data_crystal

_cell_length_a 9.86420
_cell_length_b 24.05880
_cell_length_c 24.05880
_cell_angle_alpha 61.83690
_cell_angle_beta  82.14500
_cell_angle_gamma 97.85500

_symmetry_space_group_name_	'P 1'
_symmetry_space_group_name_H-M	'P 1'

loop_
_symmetry_equiv_pos_as_xyz
  x,y,z

loop_
_atom_site_label
_atom_site_type_symbol
_atom_site_fract_x
_atom_site_fract_y
_atom_site_fract_z
_atom_site_charge
Cu	Cu	0.56931 0.04045 0.51527 0.91600
Cu	Cu	0.08458 0.51527 0.44428 0.91600
Cu	Cu	0.52886 0.44428 0.04045 0.91700
Cu	Cu	0.43069 0.95955 0.48473 0.91700
Cu	Cu	0.91542 0.48473 0.55572 0.91700
Cu	Cu	0.47114 0.55572 0.95955 0.91700
H 	H 	0.78290 0.88480 0.44140 0.00100
H 	H 	0.99510 0.85740 0.42390 0.10200
H 	H 	0.19810 0.02510 0.40260 0.11600
H 	H 	0.98380 0.04710 0.42880 0.00800
H 	H 	0.24260 0.88800 0.38760 0.10900
H 	H 	0.32550 0.95670 0.36780 0.10900
H 	H 	0.22700 0.86400 0.50700 0.06200
H 	H 	0.46680 0.86890 0.42190 0.11200
H 	H 	0.44710 0.83710 0.49630 0.11300
H 	H 	0.18860 0.75440 0.55370 0.09800
H 	H 	0.06940 0.65490 0.56670 0.01300
H 	H 	0.30180 0.70650 0.39060 0.00500
H 	H 	0.41560 0.80410 0.37840 0.09500
H 	H 	0.22430 0.44140 0.67380 0.00200
H 	H 	0.41900 0.42390 0.71870 0.10200
H 	H 	0.60070 0.40260 0.57230 0.11600
H 	H 	0.41260 0.42880 0.52410 0.00800
H 	H 	0.63020 0.38760 0.72440 0.10900
H 	H 	0.69330 0.36780 0.67550 0.10800
H 	H 	0.73400 0.50700 0.62900 0.06200
H 	H 	0.88870 0.42190 0.70920 0.11200
H 	H 	0.94340 0.49630 0.66660 0.11300
H 	H 	0.74230 0.55370 0.69190 0.09800
H 	H 	0.63610 0.56670 0.77840 0.01300
H 	H 	0.69240 0.39060 0.90290 0.00500
H 	H 	0.79400 0.37840 0.81750 0.09500
H 	H 	0.89810 0.67380 0.88480 0.00200
H 	H 	0.13770 0.71870 0.85740 0.10200
H 	H 	0.17300 0.57230 0.02510 0.11500
H 	H 	0.93670 0.52410 0.04710 0.00800
H 	H 	0.35460 0.72440 0.88800 0.10900
H 	H 	0.36880 0.67550 0.95670 0.10800
H 	H 	0.36300 0.62900 0.86400 0.06200
H 	H 	0.59790 0.70920 0.86890 0.11200
H 	H 	0.61000 0.66660 0.83710 0.11300
H 	H 	0.43420 0.69190 0.75440 0.09800
H 	H 	0.41450 0.77840 0.65490 0.01300
H 	H 	0.59530 0.90290 0.70650 0.00500
H 	H 	0.61150 0.81750 0.80410 0.09500
H 	H 	0.21710 0.11520 0.55860 0.00100
H 	H 	0.00490 0.14260 0.57610 0.10200
H 	H 	0.80190 0.97490 0.59740 0.11600
H 	H 	0.01620 0.95290 0.57120 0.00800
H 	H 	0.75740 0.11200 0.61240 0.10900
H 	H 	0.67450 0.04330 0.63220 0.10900
H 	H 	0.77300 0.13600 0.49300 0.06200
H 	H 	0.53320 0.13110 0.57810 0.11200
H 	H 	0.55290 0.16290 0.50370 0.11300
H 	H 	0.81140 0.24560 0.44630 0.09800
H 	H 	0.93060 0.34510 0.43330 0.01300
H 	H 	0.69820 0.29350 0.60940 0.00500
H 	H 	0.58440 0.19590 0.62160 0.09500
H 	H 	0.77570 0.55860 0.32620 0.00200
H 	H 	0.58100 0.57610 0.28130 0.10200
H 	H 	0.39930 0.59740 0.42770 0.11600
H 	H 	0.58740 0.57120 0.47590 0.00800
H 	H 	0.36980 0.61240 0.27560 0.10900
H 	H 	0.30670 0.63220 0.32450 0.10800
H 	H 	0.26600 0.49300 0.37100 0.06200
H 	H 	0.11130 0.57810 0.29080 0.11200
H 	H 	0.05660 0.50370 0.33340 0.11300
H 	H 	0.25770 0.44630 0.30810 0.09800
H 	H 	0.36390 0.43330 0.22160 0.01300
H 	H 	0.30760 0.60940 0.09710 0.00500
H 	H 	0.20600 0.62160 0.18250 0.09500
H 	H 	0.10190 0.32620 0.11520 0.00200
H 	H 	0.86230 0.28130 0.14260 0.10200
H 	H 	0.82700 0.42770 0.97490 0.11500
H 	H 	0.06330 0.47590 0.95290 0.00800
H 	H 	0.64540 0.27560 0.11200 0.10900
H 	H 	0.63120 0.32450 0.04330 0.10800
H 	H 	0.63700 0.37100 0.13600 0.06200
H 	H 	0.40210 0.29080 0.13110 0.11200
H 	H 	0.39000 0.33340 0.16290 0.11300
H 	H 	0.56580 0.30810 0.24560 0.09800
H 	H 	0.58550 0.22160 0.34510 0.01300
H 	H 	0.40470 0.09710 0.29350 0.00500
H 	H 	0.38850 0.18250 0.19590 0.09500
C 	C 	0.72660 0.98160 0.45720 0.38600
C 	C 	0.86400 0.96750 0.43890 -0.17800
C 	C 	0.86880 0.91220 0.43610 0.12100
C 	C 	0.99520 0.89750 0.42260 -0.21300
C 	C 	0.11930 0.93820 0.41200 0.18400
C 	C 	0.11380 0.99460 0.41230 -0.21300
C 	C 	0.98580 0.00880 0.42650 0.12500
C 	C 	0.25720 0.91960 0.40060 -0.23700
C 	C 	0.39980 0.84700 0.46210 -0.24100
C 	C 	0.31890 0.78530 0.46700 0.17400
C 	C 	0.21550 0.74360 0.52130 -0.18900
C 	C 	0.13870 0.68460 0.52830 0.09000
C 	C 	0.17310 0.67230 0.47850 -0.15900
C 	C 	0.27540 0.71640 0.42390 0.10300
C 	C 	0.34890 0.77350 0.41740 -0.20700
C 	C 	0.10250 0.60910 0.48550 0.38500
C 	C 	0.18380 0.45720 0.56120 0.38600
C 	C 	0.30290 0.43890 0.59360 -0.17700
C 	C 	0.30490 0.43610 0.65170 0.12000
C 	C 	0.41780 0.42260 0.67990 -0.21200
C 	C 	0.53130 0.41200 0.64980 0.18400
C 	C 	0.52610 0.41230 0.59310 -0.21200
C 	C 	0.41230 0.42650 0.56470 0.12400
C 	C 	0.65780 0.40060 0.67980 -0.23700
C 	C 	0.86190 0.46210 0.69090 -0.24100
C 	C 	0.78590 0.46700 0.74770 0.17400
C 	C 	0.73680 0.52130 0.73510 -0.18900
C 	C 	0.66700 0.52830 0.78710 0.09000
C 	C 	0.65160 0.47850 0.84920 -0.15900
C 	C 	0.69930 0.42390 0.85970 0.10300
C 	C 	0.76630 0.41740 0.80910 -0.20700
C 	C 	0.58800 0.48550 0.90540 0.38500
C 	C 	0.74500 0.56120 0.98160 0.38500
C 	C 	0.89650 0.59360 0.96750 -0.17700
C 	C 	0.95660 0.65170 0.91220 0.11900
C 	C 	0.09770 0.67990 0.89750 -0.21100
C 	C 	0.18110 0.64980 0.93820 0.18300
C 	C 	0.11920 0.59310 0.99460 -0.21100
C 	C 	0.97700 0.56470 0.00880 0.12400
C 	C 	0.33760 0.67980 0.91960 -0.23600
C 	C 	0.55280 0.69090 0.84700 -0.24100
C 	C 	0.53360 0.74770 0.78530 0.17400
C 	C 	0.47190 0.73510 0.74360 -0.18900
C 	C 	0.45410 0.78710 0.68460 0.09000
C 	C 	0.50080 0.84920 0.67230 -0.15900
C 	C 	0.55900 0.85970 0.71640 0.10300
C 	C 	0.57540 0.80910 0.77350 -0.20700
C 	C 	0.49340 0.90540 0.60910 0.38500
C 	C 	0.27340 0.01840 0.54280 0.38600
C 	C 	0.13600 0.03250 0.56110 -0.17800
C 	C 	0.13120 0.08780 0.56390 0.12100
C 	C 	0.00480 0.10250 0.57740 -0.21300
C 	C 	0.88070 0.06180 0.58800 0.18400
C 	C 	0.88620 0.00540 0.58770 -0.21300
C 	C 	0.01420 0.99120 0.57350 0.12500
C 	C 	0.74280 0.08040 0.59940 -0.23700
C 	C 	0.60020 0.15300 0.53790 -0.24100
C 	C 	0.68110 0.21470 0.53300 0.17400
C 	C 	0.78450 0.25640 0.47870 -0.18900
C 	C 	0.86130 0.31540 0.47170 0.09000
C 	C 	0.82690 0.32770 0.52150 -0.15900
C 	C 	0.72460 0.28360 0.57610 0.10300
C 	C 	0.65110 0.22650 0.58260 -0.20700
C 	C 	0.89750 0.39090 0.51450 0.38500
C 	C 	0.81620 0.54280 0.43880 0.38600
C 	C 	0.69710 0.56110 0.40640 -0.17700
C 	C 	0.69510 0.56390 0.34830 0.12000
C 	C 	0.58220 0.57740 0.32010 -0.21200
C 	C 	0.46870 0.58800 0.35020 0.18400
C 	C 	0.47390 0.58770 0.40690 -0.21200
C 	C 	0.58770 0.57350 0.43530 0.12400
C 	C 	0.34220 0.59940 0.32020 -0.23700
C 	C 	0.13810 0.53790 0.30910 -0.24100
C 	C 	0.21410 0.53300 0.25230 0.17400
C 	C 	0.26320 0.47870 0.26490 -0.18900
C 	C 	0.33300 0.47170 0.21290 0.09000
C 	C 	0.34840 0.52150 0.15080 -0.15900
C 	C 	0.30070 0.57610 0.14030 0.10300
C 	C 	0.23370 0.58260 0.19090 -0.20700
C 	C 	0.41200 0.51450 0.09460 0.38500
C 	C 	0.25500 0.43880 0.01840 0.38500
C 	C 	0.10350 0.40640 0.03250 -0.17700
C 	C 	0.04340 0.34830 0.08780 0.11900
C 	C 	0.90230 0.32010 0.10250 -0.21100
C 	C 	0.81890 0.35020 0.06180 0.18300
C 	C 	0.88080 0.40690 0.00540 -0.21100
C 	C 	0.02300 0.43530 0.99120 0.12400
C 	C 	0.66240 0.32020 0.08040 -0.23600
C 	C 	0.44720 0.30910 0.15300 -0.24100
C 	C 	0.46640 0.25230 0.21470 0.17400
C 	C 	0.52810 0.26490 0.25640 -0.18900
C 	C 	0.54590 0.21290 0.31540 0.09000
C 	C 	0.49920 0.15080 0.32770 -0.15900
C 	C 	0.44100 0.14030 0.28360 0.10300
C 	C 	0.42460 0.19090 0.22650 -0.20700
C 	C 	0.50660 0.09460 0.39090 0.38500
N 	N 	0.30990 0.89170 0.46150 -0.13100
N 	N 	0.77140 0.46150 0.64680 -0.13100
N 	N 	0.41820 0.64680 0.89170 -0.13100
N 	N 	0.69010 0.10830 0.53850 -0.13100
N 	N 	0.22860 0.53850 0.35320 -0.13100
N 	N 	0.58180 0.35320 0.10830 -0.13100
O 	O 	0.73130 0.02210 0.47640 -0.41600
O 	O 	0.61730 0.95120 0.45350 -0.41100
O 	O 	0.00920 0.57150 0.53700 -0.40800
O 	O 	0.14490 0.59730 0.44220 -0.42500
O 	O 	0.20770 0.47640 0.50150 -0.41600
O 	O 	0.07080 0.45350 0.59530 -0.41100
O 	O 	0.54620 0.53700 0.89150 -0.40800
O 	O 	0.58710 0.44220 0.96050 -0.42500
O 	O 	0.70920 0.50150 0.02210 -0.41600
O 	O 	0.66610 0.59530 0.95120 -0.41100
O 	O 	0.43770 0.89150 0.57150 -0.40800
O 	O 	0.54760 0.96050 0.59730 -0.42500
O 	O 	0.26870 0.97790 0.52360 -0.41600
O 	O 	0.38270 0.04880 0.54650 -0.41100
O 	O 	0.99080 0.42850 0.46300 -0.40800
O 	O 	0.85510 0.40270 0.55780 -0.42500
O 	O 	0.79230 0.52360 0.49850 -0.41600
O 	O 	0.92920 0.54650 0.40470 -0.41100
O 	O 	0.45380 0.46300 0.10850 -0.40800
O 	O 	0.41290 0.55780 0.03950 -0.42500
O 	O 	0.29080 0.49850 0.97790 -0.41600
O 	O 	0.33390 0.40470 0.04880 -0.41100
O 	O 	0.56230 0.10850 0.42850 -0.40800
O 	O 	0.45240 0.03950 0.40270 -0.42500
