data_crystal

_cell_length_a 14.50000
_cell_length_b 18.57700
_cell_length_c 15.39400
_cell_angle_alpha 90.00000
_cell_angle_beta  103.97000
_cell_angle_gamma 90.00000

_symmetry_space_group_name_	'P 1'
_symmetry_space_group_name_H-M	'P 1'

loop_
_symmetry_equiv_pos_as_xyz
  x,y,z

loop_
_atom_site_label
_atom_site_type_symbol
_atom_site_fract_x
_atom_site_fract_y
_atom_site_fract_z
_atom_site_charge
Cd	Cd	0.61146 0.20923 0.11651 1.16000
Cd	Cd	0.41301 0.30600 0.32715 1.18300
O 	O 	0.43950 0.27040 0.19170 -0.52000
O 	O 	0.48050 0.27840 0.06350 -0.48300
O 	O 	0.02820 0.26490 0.03420 -0.29000
O 	O 	0.04460 0.26170 0.89440 -0.43400
O 	O 	0.25220 0.56370 0.00340 -0.30400
O 	O 	0.26190 0.51060 0.87940 -0.32900
N 	N 	0.71160 0.30820 0.10480 -0.26500
N 	N 	0.01490 0.60550 0.10520 -0.23400
N 	N 	0.32300 0.20280 0.32850 -0.25300
N 	N 	0.01460 0.90240 0.32440 -0.23700
C 	C 	0.42610 0.29090 0.11290 0.48800
C 	C 	0.33120 0.32900 0.06860 -0.47800
C 	C 	0.24820 0.29020 0.04750 0.44600
C 	C 	0.24090 0.21060 0.07260 -0.94400
H 	H 	0.17650 0.19450 0.05160 0.32300
H 	H 	0.26020 0.20540 0.13650 0.30300
H 	H 	0.28170 0.18210 0.04550 0.31400
C 	C 	0.16130 0.32470 0.00160 -0.30700
C 	C 	0.06700 0.28170 0.97580 0.31000
C 	C 	0.16100 0.39680 0.97660 0.40100
C 	C 	0.07030 0.43440 0.92990 -0.91500
H 	H 	0.08400 0.48350 0.91820 0.29400
H 	H 	0.02620 0.43320 0.96750 0.29000
H 	H 	0.04300 0.41040 0.87450 0.29800
C 	C 	0.24760 0.43400 0.99680 -0.45500
C 	C 	0.25480 0.50810 0.95780 0.35600
C 	C 	0.33320 0.40090 0.04470 0.51900
C 	C 	0.42680 0.44400 0.06870 -1.01400
H 	H 	0.41520 0.49250 0.04730 0.33900
H 	H 	0.47260 0.42190 0.04140 0.34100
H 	H 	0.45100 0.44460 0.13250 0.32000
C 	C 	0.67810 0.37610 0.09500 0.09600
H 	H 	0.61380 0.38390 0.09070 -0.03500
C 	C 	0.73610 0.43450 0.09110 -0.17400
H 	H 	0.71050 0.48070 0.08480 0.08900
C 	C 	0.83000 0.42490 0.09640 0.11100
C 	C 	0.86160 0.35530 0.10270 -0.19000
H 	H 	0.92520 0.34640 0.10460 0.10300
C 	C 	0.80390 0.29960 0.10620 0.10500
H 	H 	0.82870 0.25320 0.10970 -0.04600
C 	C 	0.89380 0.48690 0.09740 -0.01200
C 	C 	0.87200 0.54510 0.04000 -0.00800
H 	H 	0.81450 0.54590 0.99710 -0.01800
C 	C 	0.93470 0.60250 0.04540 -0.00400
H 	H 	0.91850 0.64020 0.00480 0.00300
C 	C 	0.04140 0.54920 0.16020 0.06300
H 	H 	0.09970 0.55070 0.20190 -0.03000
C 	C 	0.98420 0.48890 0.15670 -0.13800
H 	H 	0.00570 0.44980 0.19360 0.07400
C 	C 	0.33790 0.13930 0.29840 0.09500
H 	H 	0.39220 0.13570 0.27650 -0.03100
C 	C 	0.28750 0.07880 0.29410 -0.16100
H 	H 	0.30630 0.03620 0.27160 0.07700
C 	C 	0.20100 0.08320 0.32690 0.05000
C 	C 	0.18330 0.14940 0.36140 -0.12300
H 	H 	0.13000 0.15400 0.38460 0.05900
C 	C 	0.23970 0.20750 0.36280 0.03700
H 	H 	0.22440 0.25080 0.38620 -0.03400
C 	C 	0.13970 0.02060 0.32420 0.03000
C 	C 	0.16960 0.95040 0.31940 -0.12400
H 	H 	0.23180 0.94110 0.31640 0.06100
C 	C 	0.10730 0.89360 0.31900 0.04500
H 	H 	0.12940 0.84700 0.31490 -0.01900
C 	C 	0.98680 0.96920 0.32770 0.01200
H 	H 	0.92390 0.97740 0.32910 -0.01000
C 	C 	0.04520 0.02880 0.32930 -0.10400
H 	H 	0.02120 0.07470 0.33390 0.05600
Cd	Cd	0.11146 0.70923 0.11651 1.16100
Cd	Cd	0.91301 0.80600 0.32715 1.18000
O 	O 	0.93950 0.77040 0.19170 -0.52400
O 	O 	0.98050 0.77840 0.06350 -0.48800
O 	O 	0.52820 0.76490 0.03420 -0.29400
O 	O 	0.54460 0.76170 0.89440 -0.43800
O 	O 	0.75220 0.06370 0.00340 -0.30400
O 	O 	0.76190 0.01060 0.87940 -0.33000
N 	N 	0.21160 0.80820 0.10480 -0.26600
N 	N 	0.51490 0.10550 0.10520 -0.23400
N 	N 	0.82300 0.70280 0.32850 -0.25300
N 	N 	0.51460 0.40240 0.32440 -0.25100
C 	C 	0.92610 0.79090 0.11290 0.48800
C 	C 	0.83120 0.82900 0.06860 -0.47500
C 	C 	0.74820 0.79020 0.04750 0.44200
C 	C 	0.74090 0.71060 0.07260 -0.94000
H 	H 	0.67650 0.69450 0.05160 0.32100
H 	H 	0.76020 0.70540 0.13650 0.30100
H 	H 	0.78170 0.68210 0.04550 0.31300
C 	C 	0.66130 0.82470 0.00160 -0.30400
C 	C 	0.56700 0.78170 0.97580 0.30900
C 	C 	0.66100 0.89680 0.97660 0.39400
C 	C 	0.57030 0.93440 0.92990 -0.90000
H 	H 	0.58400 0.98350 0.91820 0.28800
H 	H 	0.52620 0.93320 0.96750 0.28200
H 	H 	0.54300 0.91040 0.87450 0.29100
C 	C 	0.74760 0.93400 0.99680 -0.44900
C 	C 	0.75480 0.00810 0.95780 0.35300
C 	C 	0.83320 0.90090 0.04470 0.51200
C 	C 	0.92680 0.94400 0.06870 -0.99900
H 	H 	0.91520 0.99250 0.04730 0.33200
H 	H 	0.97260 0.92190 0.04140 0.33300
H 	H 	0.95100 0.94460 0.13250 0.31300
C 	C 	0.17810 0.87610 0.09500 0.10000
H 	H 	0.11380 0.88390 0.09070 -0.03300
C 	C 	0.23610 0.93450 0.09110 -0.18100
H 	H 	0.21050 0.98070 0.08480 0.09200
C 	C 	0.33000 0.92490 0.09640 0.12400
C 	C 	0.36160 0.85530 0.10270 -0.19800
H 	H 	0.42520 0.84640 0.10460 0.10900
C 	C 	0.30390 0.79960 0.10620 0.11000
H 	H 	0.32870 0.75320 0.10970 -0.04700
C 	C 	0.39380 0.98690 0.09740 -0.03100
C 	C 	0.37200 0.04510 0.04000 0.00200
H 	H 	0.31450 0.04590 0.99710 -0.02100
C 	C 	0.43470 0.10250 0.04540 0.00100
H 	H 	0.41850 0.14020 0.00480 0.00400
C 	C 	0.54140 0.04920 0.16020 0.02900
H 	H 	0.59970 0.05070 0.20190 -0.01900
C 	C 	0.48420 0.98890 0.15670 -0.08700
H 	H 	0.50570 0.94980 0.19360 0.05000
C 	C 	0.83790 0.63930 0.29840 0.09200
H 	H 	0.89220 0.63570 0.27650 -0.03300
C 	C 	0.78750 0.57880 0.29410 -0.15800
H 	H 	0.80630 0.53620 0.27160 0.07500
C 	C 	0.70100 0.58320 0.32690 0.04200
C 	C 	0.68330 0.64940 0.36140 -0.11800
H 	H 	0.63000 0.65400 0.38460 0.05500
C 	C 	0.73970 0.70750 0.36280 0.03400
H 	H 	0.72440 0.75080 0.38620 -0.03400
C 	C 	0.63970 0.52060 0.32420 0.04400
C 	C 	0.66960 0.45040 0.31940 -0.13600
H 	H 	0.73180 0.44110 0.31640 0.06400
C 	C 	0.60730 0.39360 0.31900 0.05000
H 	H 	0.62940 0.34700 0.31490 -0.02300
C 	C 	0.48680 0.46920 0.32770 0.04700
H 	H 	0.42390 0.47740 0.32910 -0.02000
C 	C 	0.54520 0.52880 0.32930 -0.13500
H 	H 	0.52120 0.57470 0.33390 0.06400
Cd	Cd	0.61146 0.79077 0.61651 1.15600
Cd	Cd	0.41301 0.69400 0.82715 1.17800
O 	O 	0.43950 0.72960 0.69170 -0.52400
O 	O 	0.48050 0.72160 0.56350 -0.49300
O 	O 	0.02820 0.73510 0.53420 -0.35700
O 	O 	0.04460 0.73830 0.39440 -0.45400
O 	O 	0.25220 0.43630 0.50340 -0.35800
O 	O 	0.26190 0.48940 0.37940 -0.33400
N 	N 	0.71160 0.69180 0.60480 -0.26200
N 	N 	0.01490 0.39450 0.60520 -0.25500
N 	N 	0.32300 0.79720 0.82850 -0.25600
N 	N 	0.01460 0.09760 0.82440 -0.23900
C 	C 	0.42610 0.70910 0.61290 0.49100
C 	C 	0.33120 0.67100 0.56860 -0.48700
C 	C 	0.24820 0.70980 0.54750 0.47600
C 	C 	0.24090 0.78940 0.57260 -0.96600
H 	H 	0.17650 0.80550 0.55160 0.32000
H 	H 	0.26020 0.79460 0.63650 0.30900
H 	H 	0.28170 0.81790 0.54550 0.31200
C 	C 	0.16130 0.67530 0.50160 -0.43400
C 	C 	0.06700 0.71830 0.47580 0.43600
C 	C 	0.16100 0.60320 0.47660 0.50500
C 	C 	0.07030 0.56560 0.42990 -1.03900
H 	H 	0.08400 0.51650 0.41820 0.33800
H 	H 	0.02620 0.56680 0.46750 0.34100
H 	H 	0.04300 0.58960 0.37450 0.33700
C 	C 	0.24760 0.56600 0.49680 -0.44500
C 	C 	0.25480 0.49190 0.45780 0.41800
C 	C 	0.33320 0.59910 0.54470 0.47800
C 	C 	0.42680 0.55600 0.56870 -0.96500
H 	H 	0.41520 0.50750 0.54730 0.31200
H 	H 	0.47260 0.57810 0.54140 0.31700
H 	H 	0.45100 0.55540 0.63250 0.30400
C 	C 	0.67810 0.62390 0.59500 0.07200
H 	H 	0.61380 0.61610 0.59070 -0.03100
C 	C 	0.73610 0.56550 0.59110 -0.14700
H 	H 	0.71050 0.51930 0.58480 0.07000
C 	C 	0.83000 0.57510 0.59640 0.05800
C 	C 	0.86160 0.64470 0.60270 -0.16300
H 	H 	0.92520 0.65360 0.60460 0.08600
C 	C 	0.80390 0.70040 0.60620 0.08000
H 	H 	0.82870 0.74680 0.60970 -0.04400
C 	C 	0.89380 0.51310 0.59740 0.05400
C 	C 	0.87200 0.45490 0.54000 -0.15800
H 	H 	0.81450 0.45410 0.49710 0.07100
C 	C 	0.93470 0.39750 0.54540 0.06300
H 	H 	0.91850 0.35980 0.50480 -0.03400
C 	C 	0.04140 0.45080 0.66020 0.08800
H 	H 	0.09970 0.44930 0.70190 -0.04200
C 	C 	0.98420 0.51110 0.65670 -0.18700
H 	H 	0.00570 0.55020 0.69360 0.08900
C 	C 	0.33790 0.86070 0.79840 0.09100
H 	H 	0.39220 0.86430 0.77650 -0.03000
C 	C 	0.28750 0.92120 0.79410 -0.16200
H 	H 	0.30630 0.96380 0.77160 0.07600
C 	C 	0.20100 0.91680 0.82690 0.04500
C 	C 	0.18330 0.85060 0.86140 -0.12500
H 	H 	0.13000 0.84600 0.88460 0.04800
C 	C 	0.23970 0.79250 0.86280 0.03000
H 	H 	0.22440 0.74920 0.88620 -0.04400
C 	C 	0.13970 0.97940 0.82420 0.02700
C 	C 	0.16960 0.04960 0.81940 -0.12700
H 	H 	0.23180 0.05890 0.81640 0.05700
C 	C 	0.10730 0.10640 0.81900 0.04100
H 	H 	0.12940 0.15300 0.81490 -0.02400
C 	C 	0.98680 0.03080 0.82770 0.00300
H 	H 	0.92390 0.02260 0.82910 -0.01500
C 	C 	0.04520 0.97120 0.82930 -0.10400
H 	H 	0.02120 0.92530 0.83390 0.05000
Cd	Cd	0.11146 0.29077 0.61651 1.15800
Cd	Cd	0.91301 0.19400 0.82715 1.17500
O 	O 	0.93950 0.22960 0.69170 -0.52800
O 	O 	0.98050 0.22160 0.56350 -0.49800
O 	O 	0.52820 0.23510 0.53420 -0.36300
O 	O 	0.54460 0.23830 0.39440 -0.45800
O 	O 	0.75220 0.93630 0.50340 -0.35900
O 	O 	0.76190 0.98940 0.37940 -0.33600
N 	N 	0.21160 0.19180 0.60480 -0.26300
N 	N 	0.51490 0.89450 0.60520 -0.25500
N 	N 	0.82300 0.29720 0.82850 -0.25600
N 	N 	0.51460 0.59760 0.82440 -0.25400
C 	C 	0.92610 0.20910 0.61290 0.49100
C 	C 	0.83120 0.17100 0.56860 -0.48500
C 	C 	0.74820 0.20980 0.54750 0.47300
C 	C 	0.74090 0.28940 0.57260 -0.96200
H 	H 	0.67650 0.30550 0.55160 0.31800
H 	H 	0.76020 0.29460 0.63650 0.30700
H 	H 	0.78170 0.31790 0.54550 0.31100
C 	C 	0.66130 0.17530 0.50160 -0.43200
C 	C 	0.56700 0.21830 0.47580 0.43600
C 	C 	0.66100 0.10320 0.47660 0.49900
C 	C 	0.57030 0.06560 0.42990 -1.02500
H 	H 	0.58400 0.01650 0.41820 0.33200
H 	H 	0.52620 0.06680 0.46750 0.33400
H 	H 	0.54300 0.08960 0.37450 0.33100
C 	C 	0.74760 0.06600 0.49680 -0.44200
C 	C 	0.75480 0.99190 0.45780 0.41700
C 	C 	0.83320 0.09910 0.54470 0.47200
C 	C 	0.92680 0.05600 0.56870 -0.95200
H 	H 	0.91520 0.00750 0.54730 0.30600
H 	H 	0.97260 0.07810 0.54140 0.31000
H 	H 	0.95100 0.05540 0.63250 0.29800
C 	C 	0.17810 0.12390 0.59500 0.07600
H 	H 	0.11380 0.11610 0.59070 -0.02900
C 	C 	0.23610 0.06550 0.59110 -0.15500
H 	H 	0.21050 0.01930 0.58480 0.07400
C 	C 	0.33000 0.07510 0.59640 0.07300
C 	C 	0.36160 0.14470 0.60270 -0.17200
H 	H 	0.42520 0.15360 0.60460 0.09300
C 	C 	0.30390 0.20040 0.60620 0.08600
H 	H 	0.32870 0.24680 0.60970 -0.04400
C 	C 	0.39380 0.01310 0.59740 0.03200
C 	C 	0.37200 0.95490 0.54000 -0.14500
H 	H 	0.31450 0.95410 0.49710 0.06800
C 	C 	0.43470 0.89750 0.54540 0.06700
H 	H 	0.41850 0.85980 0.50480 -0.03300
C 	C 	0.54140 0.95080 0.66020 0.05200
H 	H 	0.59970 0.94930 0.70190 -0.03000
C 	C 	0.48420 0.01110 0.65670 -0.13300
H 	H 	0.50570 0.05020 0.69360 0.06200
C 	C 	0.83790 0.36070 0.79840 0.08800
H 	H 	0.89220 0.36430 0.77650 -0.03200
C 	C 	0.78750 0.42120 0.79410 -0.15900
H 	H 	0.80630 0.46380 0.77160 0.07300
C 	C 	0.70100 0.41680 0.82690 0.03700
C 	C 	0.68330 0.35060 0.86140 -0.12000
H 	H 	0.63000 0.34600 0.88460 0.04400
C 	C 	0.73970 0.29250 0.86280 0.02600
H 	H 	0.72440 0.24920 0.88620 -0.04500
C 	C 	0.63970 0.47940 0.82420 0.04000
C 	C 	0.66960 0.54960 0.81940 -0.13700
H 	H 	0.73180 0.55890 0.81640 0.06000
C 	C 	0.60730 0.60640 0.81900 0.04600
H 	H 	0.62940 0.65300 0.81490 -0.02700
C 	C 	0.48680 0.53080 0.82770 0.04200
H 	H 	0.42390 0.52260 0.82910 -0.02500
C 	C 	0.54520 0.47120 0.82930 -0.13800
H 	H 	0.52120 0.42530 0.83390 0.05700
