data_crystal

_cell_length_a 11.04600
_cell_length_b 11.63300
_cell_length_c 16.24600
_cell_angle_alpha 78.69000
_cell_angle_beta  73.81000
_cell_angle_gamma 88.58000

_symmetry_space_group_name_	'P 1'
_symmetry_space_group_name_H-M	'P 1'

loop_
_symmetry_equiv_pos_as_xyz
  x,y,z

loop_
_atom_site_label
_atom_site_type_symbol
_atom_site_fract_x
_atom_site_fract_y
_atom_site_fract_z
_atom_site_charge
Eu	Eu	0.93434 0.93808 0.19417 2.15300
Eu	Eu	0.54926 0.55298 0.30958 2.18200
O 	O 	0.14220 0.87710 0.21790 -0.41000
O 	O 	0.90350 0.73930 0.26520 -0.52200
O 	O 	0.72690 0.89330 0.19650 -0.54700
O 	O 	0.57910 0.75370 0.23780 -0.52200
O 	O 	0.02400 0.86360 0.06670 -0.52900
O 	O 	0.07770 0.90380 0.92260 -0.51100
O 	O 	0.34200 0.61420 0.28620 -0.41400
O 	O 	0.90320 0.95620 0.34610 -0.42800
O 	O 	0.82170 0.09440 0.26590 -0.41300
O 	O 	0.34000 0.60490 0.76500 -0.40900
O 	O 	0.11170 0.06550 0.18550 -0.42900
O 	O 	0.75800 0.59700 0.30330 -0.55100
O 	O 	0.56450 0.39680 0.42390 -0.53500
O 	O 	0.37060 0.42550 0.31770 -0.42400
O 	O 	0.41580 0.46240 0.84470 -0.42000
O 	O 	0.53520 0.36770 0.56580 -0.55200
C 	C 	0.86870 0.63260 0.28140 0.54900
C 	C 	0.17790 0.98070 0.20570 0.34200
C 	C 	0.39400 0.92110 0.21980 0.10500
H 	H 	0.37050 0.84310 0.22570 0.02200
C 	C 	0.30420 0.51040 0.29740 0.33500
C 	C 	0.30630 0.00800 0.21360 -0.13400
C 	C 	0.22840 0.70580 0.91530 0.10900
H 	H 	0.20700 0.73890 0.86450 0.02000
C 	C 	0.84690 0.05220 0.33610 0.33700
C 	C 	0.35870 0.55860 0.83630 0.33200
C 	C 	0.17900 0.74940 0.99090 -0.22100
C 	C 	0.61550 0.85850 0.21810 0.55300
C 	C 	0.08790 0.84750 0.99330 0.54100
C 	C 	0.96940 0.54170 0.27880 -0.22500
C 	C 	0.51580 0.95020 0.21720 -0.21200
C 	C 	0.46220 0.15540 0.20710 -0.14600
H 	H 	0.48420 0.23330 0.20310 0.09500
C 	C 	0.31010 0.61260 0.91510 -0.14200
C 	C 	0.34630 0.56800 0.98920 0.07700
H 	H 	0.40230 0.50700 0.98860 0.02100
C 	C 	0.21420 0.70140 0.06560 0.11900
H 	H 	0.17960 0.72900 0.11690 0.00200
C 	C 	0.69080 0.25960 0.48520 -0.22300
C 	C 	0.55070 0.06740 0.21080 0.10600
H 	H 	0.63270 0.08680 0.20910 0.00800
C 	C 	0.08800 0.57030 0.28500 0.11500
H 	H 	0.10770 0.64650 0.28770 0.01800
C 	C 	0.17640 0.48370 0.28690 -0.14500
C 	C 	0.72880 0.20830 0.41180 0.11100
H 	H 	0.69680 0.23410 0.36440 0.02000
C 	C 	0.59070 0.35010 0.49150 0.56400
C 	C 	0.81470 0.11830 0.40930 -0.14000
C 	C 	0.86640 0.08470 0.47860 0.08600
H 	H 	0.92500 0.02570 0.47680 0.01900
C 	C 	0.30060 0.61250 0.06480 -0.15700
H 	H 	0.32740 0.58340 0.11420 0.09900
C 	C 	0.14730 0.37280 0.27950 0.09100
H 	H 	0.20710 0.31520 0.28040 0.01600
C 	C 	0.83180 0.13790 0.55030 -0.16700
H 	H 	0.86700 0.11450 0.59640 0.10600
C 	C 	0.74560 0.22540 0.55390 0.12200
H 	H 	0.72360 0.26180 0.60190 0.00100
C 	C 	0.94170 0.43030 0.27200 0.12300
H 	H 	0.86230 0.41160 0.26820 -0.00000
C 	C 	0.03310 0.34510 0.27090 -0.16800
H 	H 	0.01610 0.27000 0.26430 0.10400
C 	C 	0.33970 0.12310 0.20940 0.07100
H 	H 	0.27970 0.18040 0.20820 0.02400
Eu	Eu	0.06566 0.06192 0.80583 2.15200
Eu	Eu	0.45074 0.44702 0.69042 2.18100
O 	O 	0.85780 0.12290 0.78210 -0.41100
O 	O 	0.09650 0.26070 0.73480 -0.52300
O 	O 	0.27310 0.10670 0.80350 -0.54700
O 	O 	0.42090 0.24630 0.76220 -0.52200
O 	O 	0.97600 0.13640 0.93330 -0.52900
O 	O 	0.92230 0.09620 0.07740 -0.51100
O 	O 	0.65800 0.38580 0.71380 -0.41400
O 	O 	0.09680 0.04380 0.65390 -0.42800
O 	O 	0.17830 0.90560 0.73410 -0.41300
O 	O 	0.66000 0.39510 0.23500 -0.40900
O 	O 	0.88830 0.93450 0.81450 -0.42900
O 	O 	0.24200 0.40300 0.69670 -0.55100
O 	O 	0.43550 0.60320 0.57610 -0.53500
O 	O 	0.62940 0.57450 0.68230 -0.42400
O 	O 	0.58420 0.53760 0.15530 -0.42000
O 	O 	0.46480 0.63230 0.43420 -0.55200
C 	C 	0.13130 0.36740 0.71860 0.54900
C 	C 	0.82210 0.01930 0.79430 0.34200
C 	C 	0.60600 0.07890 0.78020 0.10500
H 	H 	0.62950 0.15690 0.77430 0.02200
C 	C 	0.69580 0.48960 0.70260 0.33500
C 	C 	0.69370 0.99200 0.78640 -0.13400
C 	C 	0.77160 0.29420 0.08470 0.10900
H 	H 	0.79300 0.26110 0.13550 0.02000
C 	C 	0.15310 0.94780 0.66390 0.33700
C 	C 	0.64130 0.44140 0.16370 0.33200
C 	C 	0.82100 0.25060 0.00910 -0.22100
C 	C 	0.38450 0.14150 0.78190 0.55300
C 	C 	0.91210 0.15250 0.00670 0.54100
C 	C 	0.03060 0.45830 0.72120 -0.22500
C 	C 	0.48420 0.04980 0.78280 -0.21200
C 	C 	0.53780 0.84460 0.79290 -0.14600
H 	H 	0.51580 0.76670 0.79690 0.09500
C 	C 	0.68990 0.38740 0.08490 -0.14200
C 	C 	0.65370 0.43200 0.01080 0.07700
H 	H 	0.59770 0.49300 0.01140 0.02100
C 	C 	0.78580 0.29860 0.93440 0.11900
H 	H 	0.82040 0.27100 0.88310 0.00200
C 	C 	0.30920 0.74040 0.51480 -0.22300
C 	C 	0.44930 0.93260 0.78920 0.10600
H 	H 	0.36730 0.91320 0.79090 0.00800
C 	C 	0.91200 0.42970 0.71500 0.11500
H 	H 	0.89230 0.35350 0.71230 0.01800
C 	C 	0.82360 0.51630 0.71310 -0.14500
C 	C 	0.27120 0.79170 0.58820 0.11100
H 	H 	0.30320 0.76590 0.63560 0.02000
C 	C 	0.40930 0.64990 0.50850 0.56400
C 	C 	0.18530 0.88170 0.59070 -0.14000
C 	C 	0.13360 0.91530 0.52140 0.08600
H 	H 	0.07500 0.97430 0.52320 0.01900
C 	C 	0.69940 0.38750 0.93520 -0.15700
H 	H 	0.67260 0.41660 0.88580 0.09900
C 	C 	0.85270 0.62720 0.72050 0.09100
H 	H 	0.79290 0.68480 0.71960 0.01600
C 	C 	0.16820 0.86210 0.44970 -0.16700
H 	H 	0.13300 0.88550 0.40360 0.10600
C 	C 	0.25440 0.77460 0.44610 0.12200
H 	H 	0.27640 0.73820 0.39810 0.00100
C 	C 	0.05830 0.56970 0.72800 0.12300
H 	H 	0.13770 0.58840 0.73180 -0.00000
C 	C 	0.96690 0.65490 0.72910 -0.16800
H 	H 	0.98390 0.73000 0.73570 0.10400
C 	C 	0.66030 0.87690 0.79060 0.07100
H 	H 	0.72030 0.81960 0.79180 0.02400
