data_crystal

_cell_length_a 9.42720
_cell_length_b 9.42720
_cell_length_c 16.40300
_cell_angle_alpha 88.51890
_cell_angle_beta  88.51890
_cell_angle_gamma 83.79550

_symmetry_space_group_name_	'P 1'
_symmetry_space_group_name_H-M	'P 1'

loop_
_symmetry_equiv_pos_as_xyz
  x,y,z

loop_
_atom_site_label
_atom_site_type_symbol
_atom_site_fract_x
_atom_site_fract_y
_atom_site_fract_z
_atom_site_charge
Cu	Cu	0.86387 0.50759 0.49746 0.79000
Cu	Cu	0.49241 0.13613 0.00254 0.73300
Cu	Cu	0.13613 0.49241 0.50254 0.74500
Cu	Cu	0.50759 0.86387 0.99746 0.80200
Cu	Cu	-0.00000 -0.00000 0.50000 0.64000
Cu	Cu	-0.00000 0.00000 -0.00000 0.63000
Cu	Cu	0.60233 0.39767 0.75000 0.75100
Cu	Cu	0.39767 0.60233 0.25000 0.74800
Cu	Cu	0.63662 0.36338 0.25000 0.74600
Cu	Cu	0.36338 0.63662 0.75000 0.74800
C 	C 	0.69330 0.46330 0.66010 -0.36700
C 	C 	0.95970 0.68350 0.48910 -0.32100
C 	C 	0.71650 0.42790 0.33970 -0.37800
C 	C 	0.53670 0.30670 0.83990 -0.39000
C 	C 	0.31650 0.04030 0.01090 -0.46300
C 	C 	0.57210 0.28350 0.16030 -0.40300
C 	C 	0.30670 0.53670 0.33990 -0.39800
C 	C 	0.04030 0.31650 0.51090 -0.44800
C 	C 	0.28350 0.57210 0.66030 -0.39700
C 	C 	0.46330 0.69330 0.16010 -0.37400
C 	C 	0.68350 0.95970 0.98910 -0.30700
C 	C 	0.42790 0.71650 0.83970 -0.37000
N 	N 	0.75680 0.48420 0.60090 -0.20900
N 	N 	0.97570 0.80090 0.48690 -0.19700
N 	N 	0.77190 0.45850 0.39690 -0.20900
N 	N 	0.51580 0.24320 0.89910 -0.22400
N 	N 	0.19910 0.02430 0.01310 -0.28400
N 	N 	0.54150 0.22810 0.10310 -0.23600
N 	N 	0.24320 0.51580 0.39910 -0.23400
N 	N 	0.02430 0.19910 0.51310 -0.28100
N 	N 	0.22810 0.54150 0.60310 -0.23200
N 	N 	0.48420 0.75680 0.10090 -0.21700
N 	N 	0.80090 0.97570 0.98690 -0.19000
N 	N 	0.45850 0.77190 0.89690 -0.20400
