data_crystal

_cell_length_a 9.45050
_cell_length_b 9.45050
_cell_length_c 16.43670
_cell_angle_alpha 88.51070
_cell_angle_beta  88.51070
_cell_angle_gamma 83.79630

_symmetry_space_group_name_	'P 1'
_symmetry_space_group_name_H-M	'P 1'

loop_
_symmetry_equiv_pos_as_xyz
  x,y,z

loop_
_atom_site_label
_atom_site_type_symbol
_atom_site_fract_x
_atom_site_fract_y
_atom_site_fract_z
_atom_site_charge
Cu	Cu	0.13606 0.49229 0.50266 0.74300
Cu	Cu	0.50771 0.86394 0.99734 0.80000
Cu	Cu	0.86394 0.50771 0.49734 0.79100
Cu	Cu	0.49229 0.13606 0.00266 0.73400
Cu	Cu	0.39772 0.60228 0.25000 0.74300
Cu	Cu	0.60228 0.39772 0.75000 0.74600
Cu	Cu	0.36382 0.63618 0.75000 0.74300
Cu	Cu	0.63618 0.36382 0.25000 0.74100
Cu	Cu	-0.00000 0.00000 0.50000 0.63900
Cu	Cu	-0.00000 0.00000 -0.00000 0.62900
C 	C 	0.04076 0.31660 0.51073 -0.44800
C 	C 	0.30552 0.53774 0.34091 -0.39300
C 	C 	0.28171 0.57115 0.66021 -0.39300
C 	C 	0.68340 0.95924 0.98927 -0.30800
C 	C 	0.46226 0.69448 0.15909 -0.36900
C 	C 	0.42885 0.71829 0.83979 -0.36600
C 	C 	0.95924 0.68340 0.48927 -0.32200
C 	C 	0.69448 0.46226 0.65909 -0.36300
C 	C 	0.71829 0.42885 0.33979 -0.37300
C 	C 	0.31660 0.04076 0.01073 -0.46300
C 	C 	0.53774 0.30552 0.84091 -0.38500
C 	C 	0.57115 0.28171 0.16021 -0.40000
N 	N 	0.02604 0.19884 0.51328 -0.28100
N 	N 	0.24326 0.51612 0.39964 -0.23400
N 	N 	0.22839 0.54171 0.60249 -0.23300
N 	N 	0.80116 0.97396 0.98672 -0.19000
N 	N 	0.48388 0.75674 0.10036 -0.21800
N 	N 	0.45829 0.77161 0.89751 -0.20600
N 	N 	0.97396 0.80116 0.48672 -0.19700
N 	N 	0.75674 0.48388 0.60036 -0.21000
N 	N 	0.77161 0.45829 0.39751 -0.21100
N 	N 	0.19884 0.02604 0.01328 -0.28400
N 	N 	0.51612 0.24326 0.89964 -0.22400
N 	N 	0.54171 0.22839 0.10249 -0.23800
