data_crystal

_cell_length_a 9.43660
_cell_length_b 9.43660
_cell_length_c 16.42400
_cell_angle_alpha 88.50490
_cell_angle_beta  88.50490
_cell_angle_gamma 83.74160

_symmetry_space_group_name_	'P 1'
_symmetry_space_group_name_H-M	'P 1'

loop_
_symmetry_equiv_pos_as_xyz
  x,y,z

loop_
_atom_site_label
_atom_site_type_symbol
_atom_site_fract_x
_atom_site_fract_y
_atom_site_fract_z
_atom_site_charge
Cu	Cu	0.49224 0.13618 0.50256 0.74200
Cu	Cu	0.86382 0.50776 0.99744 0.80000
Cu	Cu	0.50776 0.86382 0.49744 0.78900
Cu	Cu	0.13618 0.49224 0.00256 0.73200
Cu	Cu	0.00000 0.00000 0.50000 0.64000
Cu	Cu	-0.00000 0.00000 -0.00000 0.62900
Cu	Cu	0.63662 0.36338 0.75000 0.75000
Cu	Cu	0.36338 0.63662 0.25000 0.74700
Cu	Cu	0.60220 0.39780 0.25000 0.74800
Cu	Cu	0.39780 0.60220 0.75000 0.75100
C 	C 	0.31660 0.04060 0.51080 -0.45000
C 	C 	0.57150 0.28290 0.66140 -0.40000
C 	C 	0.53800 0.30640 0.33990 -0.39800
C 	C 	0.95940 0.68340 0.98920 -0.30900
C 	C 	0.71710 0.42850 0.83860 -0.37300
C 	C 	0.69360 0.46200 0.16010 -0.37400
C 	C 	0.68340 0.95940 0.48920 -0.32300
C 	C 	0.42850 0.71710 0.33860 -0.38000
C 	C 	0.46200 0.69360 0.66010 -0.36700
C 	C 	0.04060 0.31660 0.01080 -0.46400
C 	C 	0.28290 0.57150 0.16140 -0.40700
C 	C 	0.30640 0.53800 0.83990 -0.39000
N 	N 	0.19890 0.02530 0.51340 -0.28100
N 	N 	0.54220 0.22920 0.60340 -0.23000
N 	N 	0.51580 0.24480 0.39830 -0.22900
N 	N 	0.97470 0.80110 0.98660 -0.19000
N 	N 	0.77080 0.45780 0.89660 -0.20300
N 	N 	0.75520 0.48420 0.10170 -0.21300
N 	N 	0.80110 0.97470 0.48660 -0.19700
N 	N 	0.45780 0.77080 0.39660 -0.20700
N 	N 	0.48420 0.75520 0.60170 -0.20500
N 	N 	0.02530 0.19890 0.01340 -0.28400
N 	N 	0.22920 0.54220 0.10340 -0.23400
N 	N 	0.24480 0.51580 0.89830 -0.22000
