data_crystal

_cell_length_a 11.49240
_cell_length_b 23.92820
_cell_length_c 23.92820
_cell_angle_alpha 93.55570
_cell_angle_beta  103.36600
_cell_angle_gamma 103.36600

_symmetry_space_group_name_	'P 1'
_symmetry_space_group_name_H-M	'P 1'

loop_
_symmetry_equiv_pos_as_xyz
  x,y,z

loop_
_atom_site_label
_atom_site_type_symbol
_atom_site_fract_x
_atom_site_fract_y
_atom_site_fract_z
_atom_site_charge
Na	Na	0.98739 0.32528 0.17066 0.58400
Na	Na	0.49117 0.26674 0.26674 0.58500
Na	Na	0.00731 0.82388 0.82388 0.57500
Na	Na	0.01261 0.82934 0.67472 0.57800
Na	Na	0.98739 0.17066 0.32528 0.58300
Na	Na	0.50883 0.73326 0.73326 0.58400
Na	Na	0.99269 0.17612 0.17612 0.58000
Na	Na	0.01261 0.67472 0.82934 0.57700
Dy	Dy	0.23206 0.76283 0.76283 1.78700
Dy	Dy	0.79491 0.70769 0.70769 1.79900
Dy	Dy	0.76794 0.23717 0.23717 1.78900
Dy	Dy	0.20509 0.29231 0.29231 1.77300
Zn	Zn	0.29527 0.79764 0.27484 1.19600
Zn	Zn	0.70473 0.72516 0.20236 1.19700
Zn	Zn	0.70473 0.20236 0.72516 1.19700
Zn	Zn	0.29527 0.27484 0.79764 1.19600
H 	H 	0.85120 0.43340 0.17080 -0.00200
H 	H 	0.27220 0.90230 0.09210 0.05500
H 	H 	0.70390 0.30890 0.54550 0.06500
H 	H 	0.12170 0.79130 0.04570 0.07800
H 	H 	0.87830 0.95430 0.20870 0.08900
H 	H 	0.55110 0.69250 0.85870 0.00200
H 	H 	0.37950 0.92330 0.47110 0.05600
H 	H 	0.47840 0.04840 0.30700 0.09600
H 	H 	0.44890 0.14130 0.30750 0.00100
H 	H 	0.46480 0.77700 0.61140 0.00700
H 	H 	0.87740 0.79770 0.53110 0.00500
H 	H 	0.72780 0.09770 0.90790 0.05800
H 	H 	0.46330 0.32910 0.59590 0.08700
H 	H 	0.12170 0.04570 0.79130 0.07800
H 	H 	0.53520 0.38860 0.22300 0.00800
H 	H 	0.12260 0.46890 0.20230 -0.00500
H 	H 	0.48150 0.79610 0.07210 0.09400
H 	H 	0.71590 0.62310 0.38430 0.06700
H 	H 	0.46030 0.79040 0.97220 0.01000
H 	H 	0.63470 0.60030 0.00690 0.05900
H 	H 	0.37950 0.47110 0.92330 0.05600
H 	H 	0.46330 0.59590 0.32910 0.08700
H 	H 	0.14880 0.82920 0.56660 -0.01200
H 	H 	0.72790 0.02260 0.83120 0.05900
H 	H 	0.88790 0.01830 0.73610 0.09200
H 	H 	0.10160 0.94670 0.78830 -0.02600
H 	H 	0.91810 0.92580 0.73740 -0.01500
H 	H 	0.56450 0.50380 0.67060 0.02200
H 	H 	0.48150 0.07210 0.79610 0.09400
H 	H 	0.29610 0.45450 0.69110 0.06200
H 	H 	0.62050 0.52890 0.07670 0.05700
H 	H 	0.36750 0.62110 0.16530 0.05500
H 	H 	0.63250 0.37890 0.83470 0.05700
H 	H 	0.08190 0.26260 0.07420 -0.02900
H 	H 	0.63250 0.83470 0.37890 0.05700
H 	H 	0.87740 0.53110 0.79770 0.00500
H 	H 	0.11210 0.98170 0.26390 0.08100
H 	H 	0.53520 0.22300 0.38860 0.00800
H 	H 	0.27210 0.16880 0.97740 0.05500
H 	H 	0.28410 0.37690 0.61570 0.06300
H 	H 	0.85120 0.17080 0.43340 -0.00200
H 	H 	0.51470 0.48300 0.21900 0.09200
H 	H 	0.36950 0.09540 0.69300 0.05300
H 	H 	0.36950 0.69300 0.09540 0.05300
H 	H 	0.71590 0.38430 0.62310 0.06700
H 	H 	0.48530 0.51700 0.78100 0.09300
H 	H 	0.17050 0.83470 0.47310 0.08500
H 	H 	0.72780 0.90790 0.09770 0.05800
H 	H 	0.46480 0.61140 0.77700 0.00700
H 	H 	0.63050 0.90460 0.30700 0.05500
H 	H 	0.63470 0.00690 0.60030 0.05900
H 	H 	0.51850 0.92790 0.20390 0.09600
H 	H 	0.15200 0.20050 0.56850 0.08100
H 	H 	0.89840 0.21170 0.05330 -0.01400
H 	H 	0.82950 0.52690 0.16530 0.09200
H 	H 	0.51470 0.21900 0.48300 0.09200
H 	H 	0.87830 0.20870 0.95430 0.08900
H 	H 	0.53670 0.40410 0.67090 0.08600
H 	H 	0.10160 0.78830 0.94670 -0.02600
H 	H 	0.47840 0.30700 0.04840 0.09600
H 	H 	0.44890 0.30750 0.14130 0.00100
H 	H 	0.84800 0.79950 0.43150 0.08800
H 	H 	0.27210 0.97740 0.16880 0.05500
H 	H 	0.12260 0.20230 0.46890 -0.00500
H 	H 	0.88790 0.73610 0.01830 0.09200
H 	H 	0.82950 0.16530 0.52690 0.09200
H 	H 	0.15200 0.56850 0.20050 0.08100
H 	H 	0.08190 0.07420 0.26260 -0.02900
H 	H 	0.72790 0.83120 0.02260 0.05900
H 	H 	0.91810 0.73740 0.92580 -0.01500
H 	H 	0.55110 0.85870 0.69250 0.00200
H 	H 	0.52160 0.95160 0.69300 0.09400
H 	H 	0.43550 0.32940 0.49620 0.02200
H 	H 	0.52160 0.69300 0.95160 0.09400
H 	H 	0.63050 0.30700 0.90460 0.05500
H 	H 	0.27220 0.09210 0.90230 0.05500
H 	H 	0.62050 0.07670 0.52890 0.05700
H 	H 	0.17050 0.47310 0.83470 0.08500
H 	H 	0.36530 0.39970 0.99310 0.05700
H 	H 	0.48530 0.78100 0.51700 0.09300
H 	H 	0.29610 0.69110 0.45450 0.06200
H 	H 	0.51850 0.20390 0.92790 0.09600
H 	H 	0.36750 0.16530 0.62110 0.05500
H 	H 	0.84800 0.43150 0.79950 0.08800
H 	H 	0.56450 0.67060 0.50380 0.02200
H 	H 	0.46030 0.97220 0.79040 0.01000
H 	H 	0.11210 0.26390 0.98170 0.08100
H 	H 	0.70390 0.54550 0.30890 0.06500
H 	H 	0.43550 0.49620 0.32940 0.02200
H 	H 	0.14880 0.56660 0.82920 -0.01200
H 	H 	0.28410 0.61570 0.37690 0.06300
H 	H 	0.53670 0.67090 0.40410 0.08600
H 	H 	0.53970 0.20960 0.02780 0.00900
H 	H 	0.53970 0.02780 0.20960 0.00900
H 	H 	0.89840 0.05330 0.21170 -0.01400
H 	H 	0.36530 0.99310 0.39970 0.05700
C 	C 	0.36410 0.91472 0.43036 -0.08000
C 	C 	0.74660 0.59053 0.72839 0.36000
C 	C 	0.20830 0.55422 0.22804 -0.16500
C 	C 	0.79170 0.44578 0.77196 -0.16100
C 	C 	0.35570 0.65884 0.17106 -0.09800
C 	C 	0.29790 0.00501 0.28387 0.14600
C 	C 	0.30050 0.84805 0.16021 0.09400
C 	C 	0.31960 0.27132 0.65676 -0.14300
C 	C 	0.28160 0.17405 0.93953 -0.08500
C 	C 	0.40310 0.79366 0.04678 -0.18200
C 	C 	0.66520 0.57709 0.19417 -0.14300
C 	C 	0.27840 0.78560 0.94946 -0.17600
C 	C 	0.20830 0.22804 0.55422 -0.16500
C 	C 	0.83640 0.93074 0.72832 0.09800
C 	C 	0.16360 0.27168 0.06926 0.09900
C 	C 	0.37920 0.29785 0.10887 0.10700
C 	C 	0.60770 0.42966 0.69620 -0.16000
C 	C 	0.60330 0.70247 0.94673 -0.18500
C 	C 	0.60330 0.94673 0.70247 -0.18500
C 	C 	0.81820 0.72794 0.98598 -0.18900
C 	C 	0.71790 0.10146 0.86794 -0.08000
C 	C 	0.77050 0.17798 0.49926 -0.17300
C 	C 	0.64320 0.86698 0.30210 -0.09500
C 	C 	0.62400 0.69600 0.48926 0.07300
C 	C 	0.24120 0.17627 0.28375 0.37400
C 	C 	0.69310 0.40695 0.73259 0.12600
C 	C 	0.36410 0.43036 0.91472 -0.08000
C 	C 	0.30290 0.06907 0.79377 0.13900
C 	C 	0.71850 0.20669 0.34335 0.38900
C 	C 	0.39230 0.30380 0.57034 -0.16200
C 	C 	0.31500 0.13295 0.79721 -0.15000
C 	C 	0.69950 0.15195 0.83979 0.09600
C 	C 	0.71840 0.82595 0.06047 -0.08200
C 	C 	0.30400 0.41653 0.69693 -0.07600
C 	C 	0.63590 0.56964 0.08528 -0.07900
C 	C 	0.75880 0.82373 0.71625 0.37100
C 	C 	0.82130 0.21164 0.02816 0.08900
C 	C 	0.66640 0.77783 0.31529 0.09900
C 	C 	0.73710 0.88284 0.71556 -0.18900
C 	C 	0.26290 0.28444 0.11716 -0.19600
C 	C 	0.31530 0.68407 0.32431 0.10100
C 	C 	0.69860 0.19977 0.40231 -0.16300
C 	C 	0.58390 0.47318 0.20954 -0.17200
C 	C 	0.26170 0.88559 0.77955 0.36000
C 	C 	0.19170 0.03099 0.79117 -0.18300
C 	C 	0.69710 0.20623 0.93093 0.14300
C 	C 	0.29770 0.65603 0.37435 -0.08200
C 	C 	0.33480 0.16026 0.74888 0.09400
C 	C 	0.28210 0.13206 0.89854 -0.08200
C 	C 	0.40360 0.78759 0.58299 0.09000
C 	C 	0.29810 0.91481 0.22783 0.09400
C 	C 	0.63590 0.08528 0.56964 -0.07900
C 	C 	0.68700 0.71755 0.05561 -0.15000
C 	C 	0.74660 0.72839 0.59053 0.36000
C 	C 	0.73830 0.11441 0.22045 0.36000
C 	C 	0.33480 0.74888 0.16026 0.09400
C 	C 	0.62080 0.70215 0.89113 0.10400
C 	C 	0.72540 0.52694 0.73236 -0.14000
C 	C 	0.70230 0.34397 0.62565 -0.08000
C 	C 	0.33520 0.33530 0.92112 0.10000
C 	C 	0.30140 0.59769 0.80023 -0.16700
C 	C 	0.73710 0.71556 0.88284 -0.18900
C 	C 	0.22950 0.82202 0.50074 -0.17700
C 	C 	0.80830 0.20883 0.96901 -0.18300
C 	C 	0.78330 0.18131 0.44361 0.09600
C 	C 	0.60990 0.21007 0.01307 0.09500
C 	C 	0.24120 0.28375 0.17627 0.37400
C 	C 	0.37600 0.51074 0.30400 0.07400
C 	C 	0.40360 0.58299 0.78759 0.09000
C 	C 	0.67110 0.19308 0.51530 0.13400
C 	C 	0.28210 0.89854 0.13206 -0.08200
C 	C 	0.32530 0.75194 0.39320 0.10200
C 	C 	0.64320 0.30210 0.86698 -0.09500
C 	C 	0.17870 0.78836 0.97184 0.08400
C 	C 	0.26290 0.11716 0.28444 -0.19600
C 	C 	0.71840 0.06047 0.82595 -0.08200
C 	C 	0.33360 0.22217 0.68471 0.09700
C 	C 	0.22950 0.50074 0.82202 -0.17700
C 	C 	0.31960 0.65676 0.27132 -0.14300
C 	C 	0.19140 0.49479 0.22863 0.07700
C 	C 	0.29770 0.37435 0.65603 -0.08200
C 	C 	0.62400 0.48926 0.69600 0.07300
C 	C 	0.59640 0.21241 0.41701 0.08900
C 	C 	0.78330 0.44361 0.18131 0.09600
C 	C 	0.68500 0.86705 0.20279 -0.14900
C 	C 	0.72160 0.05054 0.21440 -0.17400
C 	C 	0.25340 0.40947 0.27161 0.36200
C 	C 	0.67110 0.51530 0.19308 0.13400
C 	C 	0.60990 0.01307 0.21007 0.09500
C 	C 	0.39670 0.29753 0.05327 -0.18800
C 	C 	0.30400 0.69693 0.41653 -0.07600
C 	C 	0.28160 0.93953 0.17405 -0.08500
C 	C 	0.39010 0.78993 0.98693 0.09200
C 	C 	0.21670 0.81869 0.55639 0.09500
C 	C 	0.69310 0.73259 0.40695 0.12600
C 	C 	0.33480 0.80583 0.42291 -0.14400
C 	C 	0.39670 0.05327 0.29753 -0.18800
C 	C 	0.35680 0.69790 0.13302 -0.09600
C 	C 	0.21670 0.55639 0.81869 0.09500
C 	C 	0.80860 0.77137 0.50521 0.07800
C 	C 	0.59640 0.41701 0.21241 0.08900
C 	C 	0.39010 0.98693 0.78993 0.09200
C 	C 	0.18180 0.27206 0.01402 -0.19200
C 	C 	0.33360 0.68471 0.22217 0.09700
C 	C 	0.69860 0.40231 0.19977 -0.16300
C 	C 	0.30050 0.16021 0.84805 0.09400
C 	C 	0.28150 0.79331 0.65665 0.39000
C 	C 	0.73830 0.22045 0.11441 0.36000
C 	C 	0.66520 0.83974 0.25112 0.09700
C 	C 	0.18180 0.01402 0.27206 -0.19200
C 	C 	0.59690 0.20634 0.95322 -0.18500
C 	C 	0.16360 0.06926 0.27168 0.09900
C 	C 	0.30140 0.80023 0.59769 -0.16700
C 	C 	0.64280 0.60841 0.04713 -0.08100
C 	C 	0.29810 0.22783 0.91481 0.09400
C 	C 	0.68700 0.05561 0.71755 -0.15000
C 	C 	0.72160 0.21440 0.05054 -0.17400
C 	C 	0.30290 0.79377 0.06907 0.13900
C 	C 	0.80860 0.50521 0.77137 0.07800
C 	C 	0.77050 0.49926 0.17798 -0.17300
C 	C 	0.35720 0.39159 0.95287 -0.08200
C 	C 	0.65600 0.14163 0.60123 0.10100
C 	C 	0.66640 0.31529 0.77783 0.09900
C 	C 	0.27460 0.26764 0.47306 -0.14500
C 	C 	0.35720 0.95287 0.39159 -0.08200
C 	C 	0.75880 0.71625 0.82373 0.37100
C 	C 	0.41610 0.52682 0.79046 -0.17300
C 	C 	0.66480 0.66470 0.07888 0.10200
C 	C 	0.58390 0.20954 0.47318 -0.17200
C 	C 	0.32530 0.39320 0.75194 0.10200
C 	C 	0.68500 0.20279 0.86705 -0.14900
C 	C 	0.66480 0.07888 0.66470 0.10200
C 	C 	0.71790 0.86794 0.10146 -0.08000
C 	C 	0.68470 0.31593 0.67569 0.10400
C 	C 	0.31300 0.28245 0.94439 -0.15300
C 	C 	0.68040 0.34324 0.72868 -0.14100
C 	C 	0.33520 0.92112 0.33530 0.10000
C 	C 	0.41610 0.79046 0.52682 -0.17300
C 	C 	0.66520 0.25112 0.83974 0.09700
C 	C 	0.00000 0.76480 0.23520 0.47800
C 	C 	0.79170 0.77196 0.44578 -0.16100
C 	C 	0.30690 0.59305 0.26741 0.12500
C 	C 	0.70210 0.99499 0.71613 0.14500
C 	C 	0.27460 0.47306 0.26764 -0.14500
C 	C 	0.65600 0.60123 0.14163 0.10100
C 	C 	0.64280 0.04713 0.60841 -0.08100
C 	C 	0.69710 0.93093 0.20623 0.14300
C 	C 	0.70190 0.08519 0.77217 0.09700
C 	C 	0.39230 0.57034 0.30380 -0.16200
C 	C 	0.83640 0.72832 0.93074 0.09800
C 	C 	0.67470 0.24806 0.60680 0.10400
C 	C 	0.19140 0.22863 0.49479 0.07700
C 	C 	0.31530 0.32431 0.68407 0.10100
C 	C 	0.37920 0.10887 0.29785 0.10700
C 	C 	0.34400 0.39877 0.85837 0.09900
C 	C 	0.29790 0.28387 0.00501 0.14600
C 	C 	0.72540 0.73236 0.52694 -0.14000
C 	C 	0.25340 0.27161 0.40947 0.36200
C 	C 	0.64430 0.34116 0.82894 -0.09700
C 	C 	0.35680 0.13302 0.69790 -0.09600
C 	C 	0.17870 0.97184 0.78836 0.08400
C 	C 	0.32890 0.80692 0.48470 0.13300
C 	C 	0.82130 0.02816 0.21164 0.08900
C 	C 	0.68470 0.67569 0.31593 0.10400
C 	C 	0.81820 0.98598 0.72794 -0.18900
C 	C 	0.40310 0.04678 0.79366 -0.18200
C 	C 	0.66520 0.19417 0.57709 -0.14300
C 	C 	0.27840 0.94946 0.78560 -0.17600
C 	C 	0.70210 0.71613 0.99499 0.14500
C 	C 	0.30690 0.26741 0.59305 0.12500
C 	C 	0.71850 0.34335 0.20669 0.38900
C 	C 	0.80830 0.96901 0.20883 -0.18300
C 	C 	0.70190 0.77217 0.08519 0.09700
C 	C 	0.67470 0.60680 0.24806 0.10400
C 	C 	0.35570 0.17106 0.65884 -0.09800
C 	C 	0.59690 0.95322 0.20634 -0.18500
C 	C 	0.69600 0.58347 0.30307 -0.07400
C 	C 	0.31500 0.79721 0.13295 -0.15000
C 	C 	0.69600 0.30307 0.58347 -0.07400
C 	C 	0.69950 0.83979 0.15195 0.09600
C 	C 	0.33480 0.42291 0.80583 -0.14400
C 	C 	0.19170 0.79117 0.03099 -0.18300
C 	C 	0.26170 0.77955 0.88559 0.36000
C 	C 	0.64430 0.82894 0.34116 -0.09700
C 	C 	0.68040 0.72868 0.34324 -0.14100
C 	C 	0.37600 0.30400 0.51074 0.07400
C 	C 	0.62080 0.89113 0.70215 0.10400
C 	C 	0.31300 0.94439 0.28245 -0.15300
C 	C 	0.34400 0.85837 0.39877 0.09900
C 	C 	0.32890 0.48470 0.80692 0.13300
C 	C 	0.70230 0.62565 0.34397 -0.08000
C 	C 	0.60770 0.69620 0.42966 -0.16000
C 	C 	0.00000 0.23520 0.76480 0.47800
C 	C 	0.28150 0.65665 0.79331 0.39000
N 	N 	0.32710 0.21536 0.74016 -0.27300
N 	N 	0.67290 0.25984 0.78464 -0.27200
N 	N 	0.69150 0.14120 0.78178 -0.27300
N 	N 	0.98290 0.31085 0.31085 0.07200
N 	N 	0.32710 0.74016 0.21536 -0.27300
N 	N 	0.33070 0.34122 0.86414 -0.27000
N 	N 	0.66990 0.66324 0.25750 -0.26500
N 	N 	0.33010 0.74250 0.33676 -0.26500
N 	N 	0.66990 0.25750 0.66324 -0.26500
N 	N 	0.30850 0.21822 0.85880 -0.27400
N 	N 	0.30850 0.85880 0.21822 -0.27400
N 	N 	0.67290 0.78464 0.25984 -0.27200
N 	N 	0.01710 0.68915 0.68915 0.05100
N 	N 	0.66930 0.13586 0.65878 -0.26900
N 	N 	0.33070 0.86414 0.34122 -0.27000
N 	N 	0.66930 0.65878 0.13586 -0.26900
N 	N 	0.69150 0.78178 0.14120 -0.27300
N 	N 	0.33010 0.33676 0.74250 -0.26500
O 	O 	0.35340 0.86491 0.78203 -0.40300
O 	O 	0.81220 0.19570 0.33126 -0.45700
O 	O 	0.89670 0.74255 0.23061 -0.50900
O 	O 	0.86810 0.73470 0.81836 -0.49300
O 	O 	0.15370 0.77139 0.85263 -0.50400
O 	O 	0.81220 0.33126 0.19570 -0.45700
O 	O 	0.67250 0.69005 0.60835 -0.39700
O 	O 	0.66900 0.77977 0.69771 -0.47100
O 	O 	0.91190 0.65855 0.65855 -0.24300
O 	O 	0.64150 0.22515 0.30649 -0.47600
O 	O 	0.64660 0.21797 0.13509 -0.40300
O 	O 	0.10330 0.76939 0.25745 -0.52900
O 	O 	0.84630 0.14737 0.22861 -0.49500
O 	O 	0.67250 0.60835 0.69005 -0.39700
O 	O 	0.15980 0.23880 0.37442 -0.45500
O 	O 	0.13190 0.18164 0.26530 -0.50800
O 	O 	0.01300 0.72932 0.72932 -0.52300
O 	O 	0.64150 0.30649 0.22515 -0.47600
O 	O 	0.84020 0.76120 0.62558 -0.44400
O 	O 	0.89670 0.23061 0.74255 -0.50900
O 	O 	0.64660 0.13509 0.21797 -0.40300
O 	O 	0.18780 0.80430 0.66874 -0.46400
O 	O 	0.12160 0.68495 0.68495 -0.26800
O 	O 	0.35340 0.78203 0.86491 -0.40300
O 	O 	0.10330 0.25745 0.76939 -0.52900
O 	O 	0.08810 0.34145 0.34145 -0.27100
O 	O 	0.15370 0.85263 0.77139 -0.50400
O 	O 	0.32750 0.30995 0.39165 -0.39600
O 	O 	0.33100 0.22023 0.30229 -0.47000
O 	O 	0.32750 0.39165 0.30995 -0.39600
O 	O 	0.33100 0.30229 0.22023 -0.47000
O 	O 	0.87840 0.31505 0.31505 -0.26100
O 	O 	0.18780 0.66874 0.80430 -0.46400
O 	O 	0.66900 0.69771 0.77977 -0.47100
O 	O 	0.35850 0.77485 0.69351 -0.47700
O 	O 	0.86810 0.81836 0.73470 -0.49300
O 	O 	0.13190 0.26530 0.18164 -0.50800
O 	O 	0.84630 0.22861 0.14737 -0.49500
O 	O 	0.84020 0.62558 0.76120 -0.44400
O 	O 	0.98700 0.27068 0.27068 -0.50100
O 	O 	0.15980 0.37442 0.23880 -0.45500
O 	O 	0.35850 0.69351 0.77485 -0.47700
