data_crystal

_cell_length_a 6.40590
_cell_length_b 16.35020
_cell_length_c 17.81960
_cell_angle_alpha 98.10900
_cell_angle_beta  94.05600
_cell_angle_gamma 95.65100

_symmetry_space_group_name_	'P 1'
_symmetry_space_group_name_H-M	'P 1'

loop_
_symmetry_equiv_pos_as_xyz
  x,y,z

loop_
_atom_site_label
_atom_site_type_symbol
_atom_site_fract_x
_atom_site_fract_y
_atom_site_fract_z
_atom_site_charge
Na	Na	0.57075 0.39640 0.51929 0.58900
Na	Na	0.87431 0.50879 0.41351 0.58900
Na	Na	0.84960 0.41205 0.72859 0.58300
Na	Na	0.27340 0.31100 0.64102 0.58800
O 	O 	0.21930 0.51455 0.37420 -0.43700
O 	O 	0.51230 0.46547 0.41404 -0.43000
O 	O 	0.90610 0.39056 0.46913 -0.48800
O 	O 	0.20110 0.35814 0.52434 -0.50300
O 	O 	0.19560 0.45561 0.70761 -0.49300
O 	O 	0.49100 0.40385 0.73876 -0.47000
O 	O 	0.92020 0.27910 0.67965 -0.41600
O 	O 	0.14850 0.18940 0.69730 -0.32800
O 	O 	0.57820 0.27503 0.57860 -0.64900
H 	H 	0.69210 0.27980 0.61210 0.27000
H 	H 	0.54560 0.22710 0.54660 0.24200
N 	N 	0.13330 0.95369 0.90141 -0.22000
H 	H 	0.07570 0.97370 0.94270 0.13800
N 	N 	0.23460 0.09506 0.02316 -0.14500
C 	C 	0.34370 0.45905 0.37258 0.35900
C 	C 	0.28690 0.38064 0.31548 -0.17600
C 	C 	0.03600 0.34001 0.47952 0.56600
C 	C 	0.42490 0.32026 0.30693 0.06700
H 	H 	0.55340 0.32700 0.33830 -0.00700
C 	C 	0.04690 0.29840 0.21680 -0.18100
H 	H 	0.91590 0.29070 0.18680 0.07900
C 	C 	0.18700 0.23890 0.20640 0.11800
C 	C 	0.29820 0.99520 0.87190 0.12900
C 	C 	0.09680 0.36930 0.27090 0.06300
H 	H 	0.00050 0.40980 0.27730 -0.01500
C 	C 	0.36400 0.45690 0.74890 0.55100
C 	C 	0.38950 0.11370 0.97700 0.10900
C 	C 	0.41810 0.06870 0.90630 -0.12600
C 	C 	0.04580 0.88770 0.84840 0.12500
C 	C 	0.13380 0.16570 0.14510 -0.13100
C 	C 	0.37560 0.25030 0.25280 -0.18000
H 	H 	0.47130 0.20940 0.24720 0.08300
C 	C 	0.16500 0.88630 0.78400 -0.08600
H 	H 	0.14150 0.84660 0.73900 0.04700
C 	C 	0.26430 0.15720 0.08470 0.10300
C 	C 	0.57240 0.10770 0.85850 0.12400
C 	C 	0.31910 0.95180 0.79770 -0.08700
H 	H 	0.42130 0.96590 0.76420 0.05900
C 	C 	0.98030 0.21870 0.70930 0.33500
C 	C 	0.84010 0.17990 0.76230 -0.15200
C 	C 	0.52110 0.18780 0.01090 -0.08200
H 	H 	0.64030 0.21270 0.99040 0.05400
C 	C 	0.44440 0.21530 0.07680 -0.07700
H 	H 	0.49800 0.26350 0.11160 0.04400
C 	C 	0.99470 0.25350 0.43580 -0.85500
H 	H 	0.84420 0.23440 0.43330 0.26100
H 	H 	0.07530 0.21590 0.46150 0.25700
H 	H 	0.03790 0.25370 0.38410 0.27000
C 	C 	0.41140 0.52670 0.81540 -0.84000
H 	H 	0.32290 0.51550 0.85620 0.24600
H 	H 	0.38200 0.57930 0.79870 0.26400
H 	H 	0.56010 0.53040 0.83420 0.25100
C 	C 	0.76370 0.07780 0.84460 -0.16500
H 	H 	0.80420 0.03230 0.86780 0.09300
C 	C 	0.89590 0.11370 0.79710 0.07400
H 	H 	0.02640 0.09260 0.78830 0.01700
C 	C 	0.65160 0.21130 0.77790 0.07400
H 	H 	0.61300 0.25820 0.75640 -0.00600
C 	C 	0.52020 0.17450 0.82470 -0.16400
H 	H 	0.39010 0.19590 0.83380 0.09000
Na	Na	0.42925 0.60360 0.48071 0.58800
Na	Na	0.12569 0.49121 0.58649 0.58800
Na	Na	0.15040 0.58795 0.27141 0.58200
Na	Na	0.72660 0.68900 0.35898 0.58700
O 	O 	0.78070 0.48545 0.62580 -0.43700
O 	O 	0.48770 0.53453 0.58596 -0.43000
O 	O 	0.09390 0.60944 0.53087 -0.48800
O 	O 	0.79890 0.64186 0.47566 -0.50300
O 	O 	0.80440 0.54439 0.29239 -0.49300
O 	O 	0.50900 0.59615 0.26124 -0.47000
O 	O 	0.07980 0.72090 0.32035 -0.41600
O 	O 	0.85150 0.81060 0.30270 -0.32800
O 	O 	0.42180 0.72497 0.42140 -0.64900
H 	H 	0.30790 0.72020 0.38790 0.27000
H 	H 	0.45440 0.77290 0.45340 0.24200
N 	N 	0.86670 0.04631 0.09859 -0.22000
H 	H 	0.92430 0.02630 0.05730 0.13800
N 	N 	0.76540 0.90494 0.97684 -0.14500
C 	C 	0.65630 0.54095 0.62742 0.35900
C 	C 	0.71310 0.61936 0.68452 -0.17600
C 	C 	0.96400 0.65999 0.52048 0.56600
C 	C 	0.57510 0.67974 0.69307 0.06700
H 	H 	0.44660 0.67300 0.66170 -0.00700
C 	C 	0.95310 0.70160 0.78320 -0.18100
H 	H 	0.08410 0.70930 0.81320 0.07900
C 	C 	0.81300 0.76110 0.79360 0.11800
C 	C 	0.70180 0.00480 0.12810 0.12900
C 	C 	0.90320 0.63070 0.72910 0.06300
H 	H 	0.99950 0.59020 0.72270 -0.01500
C 	C 	0.63600 0.54310 0.25110 0.55100
C 	C 	0.61050 0.88630 0.02300 0.10900
C 	C 	0.58190 0.93130 0.09370 -0.12600
C 	C 	0.95420 0.11230 0.15160 0.12500
C 	C 	0.86620 0.83430 0.85490 -0.13100
C 	C 	0.62440 0.74970 0.74720 -0.18000
H 	H 	0.52870 0.79060 0.75280 0.08300
C 	C 	0.83500 0.11370 0.21600 -0.08600
H 	H 	0.85850 0.15340 0.26100 0.04700
C 	C 	0.73570 0.84280 0.91530 0.10300
C 	C 	0.42760 0.89230 0.14150 0.12400
C 	C 	0.68090 0.04820 0.20230 -0.08700
H 	H 	0.57870 0.03410 0.23580 0.05900
C 	C 	0.01970 0.78130 0.29070 0.33500
C 	C 	0.15990 0.82010 0.23770 -0.15200
C 	C 	0.47890 0.81220 0.98910 -0.08200
H 	H 	0.35970 0.78730 0.00960 0.05400
C 	C 	0.55560 0.78470 0.92320 -0.07700
H 	H 	0.50200 0.73650 0.88840 0.04400
C 	C 	0.00530 0.74650 0.56420 -0.85500
H 	H 	0.15580 0.76560 0.56670 0.26100
H 	H 	0.92470 0.78410 0.53850 0.25700
H 	H 	0.96210 0.74630 0.61590 0.27000
C 	C 	0.58860 0.47330 0.18460 -0.84000
H 	H 	0.67710 0.48450 0.14380 0.24600
H 	H 	0.61800 0.42070 0.20130 0.26400
H 	H 	0.43990 0.46960 0.16580 0.25100
C 	C 	0.23630 0.92220 0.15540 -0.16500
H 	H 	0.19580 0.96770 0.13220 0.09300
C 	C 	0.10410 0.88630 0.20290 0.07400
H 	H 	0.97360 0.90740 0.21170 0.01700
C 	C 	0.34840 0.78870 0.22210 0.07400
H 	H 	0.38700 0.74180 0.24360 -0.00600
C 	C 	0.47980 0.82550 0.17530 -0.16400
H 	H 	0.60990 0.80410 0.16620 0.09000
