data_crystal

_cell_length_a 12.30290
_cell_length_b 17.43360
_cell_length_c 17.49200
_cell_angle_alpha 67.67000
_cell_angle_beta  76.20000
_cell_angle_gamma 71.88400

_symmetry_space_group_name_	'P 1'
_symmetry_space_group_name_H-M	'P 1'

loop_
_symmetry_equiv_pos_as_xyz
  x,y,z

loop_
_atom_site_label
_atom_site_type_symbol
_atom_site_fract_x
_atom_site_fract_y
_atom_site_fract_z
_atom_site_charge
Mn	Mn	0.86946 0.20046 0.64551 1.32100
Mn	Mn	0.85702 0.43505 0.47037 1.26100
C 	C 	0.05170 0.54160 0.26520 -0.34100
H 	H 	0.02700 0.57320 0.30140 0.15400
C 	C 	0.16340 0.53100 0.22500 0.27300
C 	C 	0.20180 0.48500 0.17080 -0.22200
C 	C 	0.12400 0.45000 0.15960 0.12800
H 	H 	0.14900 0.41830 0.12350 -0.01100
C 	C 	0.01110 0.45820 0.19780 -0.21100
C 	C 	0.97660 0.50500 0.25140 0.25500
C 	C 	0.20490 0.63220 0.26840 -0.22100
H 	H 	0.13270 0.66830 0.24830 0.09600
H 	H 	0.26080 0.66680 0.24770 0.11200
C 	C 	0.18610 0.60370 0.36310 0.40800
C 	C 	0.79920 0.59470 0.28780 -0.19600
H 	H 	0.72100 0.59890 0.28160 0.08500
H 	H 	0.83010 0.63490 0.23790 0.09100
C 	C 	0.79450 0.62100 0.36160 0.35300
C 	C 	0.32310 0.47600 0.12410 0.32400
H 	H 	0.37240 0.47650 0.16030 -0.04800
C 	C 	0.32780 0.55430 0.04540 -0.79000
H 	H 	0.29730 0.60540 0.06020 0.26300
H 	H 	0.28270 0.55510 0.00720 0.25400
H 	H 	0.40650 0.55160 0.01950 0.25800
C 	C 	0.36840 0.39160 0.10930 -0.23700
C 	C 	0.38550 0.31700 0.17660 0.28100
C 	C 	0.41950 0.23740 0.16720 -0.32000
H 	H 	0.42830 0.18810 0.21380 0.17100
C 	C 	0.44060 0.23140 0.08740 0.27400
C 	C 	0.42690 0.30500 0.01760 -0.23000
C 	C 	0.39160 0.38260 0.03090 0.14200
H 	H 	0.38270 0.43210 0.98460 -0.04300
C 	C 	0.44260 0.08480 0.13780 -0.24200
H 	H 	0.43540 0.04570 0.11320 0.13800
H 	H 	0.36730 0.10490 0.16640 0.12500
C 	C 	0.52550 0.03700 0.20090 0.46300
C 	C 	0.30910 0.27360 0.32010 -0.16800
H 	H 	0.25760 0.25740 0.29810 0.09600
H 	H 	0.26190 0.30630 0.35570 0.10900
C 	C 	0.38370 0.19480 0.37140 0.33000
C 	C 	0.45160 0.29440 0.93320 0.32500
H 	H 	0.52740 0.25420 0.93080 -0.03200
C 	C 	0.46090 0.37680 0.86140 -0.81700
H 	H 	0.47640 0.36620 0.80940 0.28400
H 	H 	0.52260 0.39680 0.86630 0.27900
H 	H 	0.38970 0.41940 0.86330 0.26500
C 	C 	0.36640 0.25460 0.92070 -0.20500
C 	C 	0.25660 0.25760 0.96520 0.11600
H 	H 	0.23490 0.28360 0.00590 -0.00300
C 	C 	0.17740 0.22350 0.95200 -0.20000
C 	C 	0.21110 0.18660 0.89050 0.25700
C 	C 	0.32160 0.17950 0.84700 -0.31600
H 	H 	0.34420 0.15160 0.80770 0.15900
C 	C 	0.39700 0.21310 0.86180 0.26600
C 	C 	0.53140 0.19750 0.74290 -0.18900
H 	H 	0.47970 0.24270 0.70590 0.10800
H 	H 	0.51950 0.14310 0.74850 0.11900
C 	C 	0.65340 0.20050 0.70730 0.34300
C 	C 	0.13590 0.16370 0.79150 -0.22400
H 	H 	0.19560 0.11740 0.77800 0.13700
H 	H 	0.15580 0.21700 0.75610 0.12000
C 	C 	0.02230 0.16340 0.77380 0.41000
C 	C 	0.05540 0.23110 0.99820 0.30400
H 	H 	0.03670 0.17640 0.01100 -0.01400
C 	C 	0.97110 0.29890 0.94130 -0.79800
H 	H 	0.98170 0.28690 0.89050 0.28300
H 	H 	0.98460 0.35400 0.92890 0.26500
H 	H 	0.89350 0.29870 0.96860 0.27000
C 	C 	0.04270 0.24470 0.08050 -0.20200
C 	C 	0.07810 0.17530 0.15100 0.27200
C 	C 	0.06730 0.18620 0.22630 -0.30900
H 	H 	0.09290 0.14010 0.27230 0.15300
C 	C 	0.01720 0.26750 0.23290 0.26100
C 	C 	0.98060 0.33810 0.16550 -0.21200
C 	C 	0.99580 0.32400 0.09080 0.12600
H 	H 	0.97320 0.37080 0.04440 -0.03500
C 	C 	0.92660 0.42390 0.17790 0.29800
H 	H 	0.86720 0.41480 0.22680 -0.03400
C 	C 	0.86580 0.49170 0.10550 -0.74600
H 	H 	0.81170 0.46980 0.09330 0.23800
H 	H 	0.92190 0.50600 0.05720 0.23700
H 	H 	0.82560 0.54190 0.12040 0.24500
C 	C 	0.00630 0.21690 0.38240 -0.23200
H 	H 	0.08620 0.18990 0.39130 0.12500
H 	H 	0.97120 0.17410 0.38260 0.12800
C 	C 	0.94150 0.25460 0.45140 0.46800
C 	C 	0.14850 0.02540 0.20890 -0.19200
H 	H 	0.19210 0.03660 0.24130 0.10300
H 	H 	0.19780 0.97880 0.18980 0.12000
C 	C 	0.04700 0.99680 0.26460 0.36200
O 	O 	0.47600 0.15560 0.07330 -0.17300
O 	O 	0.62280 0.04740 0.18540 -0.27500
O 	O 	0.48510 0.98770 0.26670 -0.54600
H 	H 	0.53400 0.96360 0.29850 0.31700
O 	O 	0.37150 0.32650 0.25290 -0.19000
O 	O 	0.32830 0.14660 0.43040 -0.22300
O 	O 	0.50780 0.20810 0.82150 -0.19000
O 	O 	0.68230 0.20910 0.63070 -0.36400
O 	O 	0.72470 0.19360 0.75110 -0.37700
O 	O 	0.13220 0.15430 0.87560 -0.17200
O 	O 	0.00880 0.19560 0.69830 -0.43500
O 	O 	0.95410 0.13220 0.83010 -0.27200
O 	O 	0.12400 0.09830 0.13890 -0.17900
O 	O 	0.07050 0.93470 0.33100 -0.38700
O 	O 	0.94800 0.03410 0.24600 -0.21900
O 	O 	0.00030 0.28430 0.30600 -0.18100
O 	O 	0.94590 0.20310 0.52330 -0.45400
O 	O 	0.88790 0.33060 0.43110 -0.49300
O 	O 	0.86510 0.51250 0.29310 -0.26000
O 	O 	0.84850 0.56760 0.42030 -0.44600
O 	O 	0.73550 0.69340 0.35920 -0.27100
O 	O 	0.24360 0.56540 0.23450 -0.19700
O 	O 	0.18750 0.53040 0.40620 -0.41000
O 	O 	0.16880 0.66090 0.39450 -0.56200
O 	O 	0.48910 0.18020 0.35480 -0.21400
Mn	Mn	0.13054 0.79954 0.35449 1.32200
Mn	Mn	0.14298 0.56495 0.52963 1.26200
C 	C 	0.94830 0.45840 0.73480 -0.34000
H 	H 	0.97300 0.42680 0.69860 0.15500
C 	C 	0.83660 0.46900 0.77500 0.27300
C 	C 	0.79820 0.51500 0.82920 -0.22200
C 	C 	0.87600 0.55000 0.84040 0.12800
H 	H 	0.85100 0.58170 0.87650 -0.01100
C 	C 	0.98890 0.54180 0.80220 -0.21100
C 	C 	0.02340 0.49500 0.74860 0.25500
C 	C 	0.79510 0.36780 0.73160 -0.22100
H 	H 	0.86730 0.33170 0.75170 0.09600
H 	H 	0.73920 0.33320 0.75230 0.11200
C 	C 	0.81390 0.39630 0.63690 0.40800
C 	C 	0.20080 0.40530 0.71220 -0.19600
H 	H 	0.27900 0.40110 0.71840 0.08500
H 	H 	0.16990 0.36510 0.76210 0.09100
C 	C 	0.20550 0.37900 0.63840 0.35300
C 	C 	0.67690 0.52400 0.87590 0.32400
H 	H 	0.62760 0.52350 0.83970 -0.04800
C 	C 	0.67220 0.44570 0.95460 -0.79000
H 	H 	0.70270 0.39460 0.93980 0.26300
H 	H 	0.71730 0.44490 0.99280 0.25400
H 	H 	0.59350 0.44840 0.98050 0.25800
C 	C 	0.63160 0.60840 0.89070 -0.23700
C 	C 	0.61450 0.68300 0.82340 0.28100
C 	C 	0.58050 0.76260 0.83280 -0.32000
H 	H 	0.57170 0.81190 0.78620 0.17100
C 	C 	0.55940 0.76860 0.91260 0.27400
C 	C 	0.57310 0.69500 0.98240 -0.23000
C 	C 	0.60840 0.61740 0.96910 0.14200
H 	H 	0.61730 0.56790 0.01540 -0.04300
C 	C 	0.55740 0.91520 0.86220 -0.24200
H 	H 	0.56460 0.95430 0.88680 0.13800
H 	H 	0.63270 0.89510 0.83360 0.12500
C 	C 	0.47450 0.96300 0.79910 0.46300
C 	C 	0.69090 0.72640 0.67990 -0.16800
H 	H 	0.74240 0.74260 0.70190 0.09600
H 	H 	0.73810 0.69370 0.64430 0.10900
C 	C 	0.61630 0.80520 0.62860 0.33000
C 	C 	0.54840 0.70560 0.06680 0.32500
H 	H 	0.47260 0.74580 0.06920 -0.03200
C 	C 	0.53910 0.62320 0.13860 -0.81700
H 	H 	0.52360 0.63380 0.19060 0.28400
H 	H 	0.47740 0.60320 0.13370 0.27900
H 	H 	0.61030 0.58060 0.13670 0.26500
C 	C 	0.63360 0.74540 0.07930 -0.20500
C 	C 	0.74340 0.74240 0.03480 0.11600
H 	H 	0.76510 0.71640 0.99410 -0.00300
C 	C 	0.82260 0.77650 0.04800 -0.20000
C 	C 	0.78890 0.81340 0.10950 0.25700
C 	C 	0.67840 0.82050 0.15300 -0.31600
H 	H 	0.65580 0.84840 0.19230 0.15900
C 	C 	0.60300 0.78690 0.13820 0.26600
C 	C 	0.46860 0.80250 0.25710 -0.18900
H 	H 	0.52030 0.75730 0.29410 0.10800
H 	H 	0.48050 0.85690 0.25150 0.11900
C 	C 	0.34660 0.79950 0.29270 0.34300
C 	C 	0.86410 0.83630 0.20850 -0.22400
H 	H 	0.80440 0.88260 0.22200 0.13700
H 	H 	0.84420 0.78300 0.24390 0.12000
C 	C 	0.97770 0.83660 0.22620 0.41000
C 	C 	0.94460 0.76890 0.00180 0.30400
H 	H 	0.96330 0.82360 0.98900 -0.01400
C 	C 	0.02890 0.70110 0.05870 -0.79800
H 	H 	0.01830 0.71310 0.10950 0.28300
H 	H 	0.01540 0.64600 0.07110 0.26500
H 	H 	0.10650 0.70130 0.03140 0.27000
C 	C 	0.95730 0.75530 0.91950 -0.20200
C 	C 	0.92190 0.82470 0.84900 0.27200
C 	C 	0.93270 0.81380 0.77370 -0.30900
H 	H 	0.90710 0.85990 0.72770 0.15300
C 	C 	0.98280 0.73250 0.76710 0.26100
C 	C 	0.01940 0.66190 0.83450 -0.21200
C 	C 	0.00420 0.67600 0.90920 0.12600
H 	H 	0.02680 0.62920 0.95560 -0.03500
C 	C 	0.07340 0.57610 0.82210 0.29800
H 	H 	0.13280 0.58520 0.77320 -0.03400
C 	C 	0.13420 0.50830 0.89450 -0.74600
H 	H 	0.18830 0.53020 0.90670 0.23800
H 	H 	0.07810 0.49400 0.94280 0.23700
H 	H 	0.17440 0.45810 0.87960 0.24500
C 	C 	0.99370 0.78310 0.61760 -0.23200
H 	H 	0.91380 0.81010 0.60870 0.12500
H 	H 	0.02880 0.82590 0.61740 0.12800
C 	C 	0.05850 0.74540 0.54860 0.46800
C 	C 	0.85150 0.97460 0.79110 -0.19200
H 	H 	0.80790 0.96340 0.75870 0.10300
H 	H 	0.80220 0.02120 0.81020 0.12000
C 	C 	0.95300 0.00320 0.73540 0.36200
O 	O 	0.52400 0.84440 0.92670 -0.17300
O 	O 	0.37720 0.95260 0.81460 -0.27500
O 	O 	0.51490 0.01230 0.73330 -0.54600
H 	H 	0.46600 0.03640 0.70150 0.31700
O 	O 	0.62850 0.67350 0.74710 -0.19000
O 	O 	0.67170 0.85340 0.56960 -0.22300
O 	O 	0.49220 0.79190 0.17850 -0.19000
O 	O 	0.31770 0.79090 0.36930 -0.36400
O 	O 	0.27530 0.80640 0.24890 -0.37700
O 	O 	0.86780 0.84570 0.12440 -0.17200
O 	O 	0.99120 0.80440 0.30170 -0.43500
O 	O 	0.04590 0.86780 0.16990 -0.27200
O 	O 	0.87600 0.90170 0.86110 -0.17900
O 	O 	0.92950 0.06530 0.66900 -0.38700
O 	O 	0.05200 0.96590 0.75400 -0.21900
O 	O 	0.99970 0.71570 0.69400 -0.18100
O 	O 	0.05410 0.79690 0.47670 -0.45400
O 	O 	0.11210 0.66940 0.56890 -0.49300
O 	O 	0.13490 0.48750 0.70690 -0.26000
O 	O 	0.15150 0.43240 0.57970 -0.44600
O 	O 	0.26450 0.30660 0.64080 -0.27100
O 	O 	0.75640 0.43460 0.76550 -0.19700
O 	O 	0.81250 0.46960 0.59380 -0.41000
O 	O 	0.83120 0.33910 0.60550 -0.56200
O 	O 	0.51090 0.81980 0.64520 -0.21400
