data_crystal

_cell_length_a 17.28700
_cell_length_b 6.72700
_cell_length_c 12.46100
_cell_angle_alpha 90.00000
_cell_angle_beta  90.00000
_cell_angle_gamma 90.00000

_symmetry_space_group_name_	'P 1'
_symmetry_space_group_name_H-M	'P 1'

loop_
_symmetry_equiv_pos_as_xyz
  x,y,z

loop_
_atom_site_label
_atom_site_type_symbol
_atom_site_fract_x
_atom_site_fract_y
_atom_site_fract_z
_atom_site_charge
O 	O 	0.58210 0.08360 0.90040 -0.53500
C 	C 	0.71640 0.07300 0.78050 -0.16100
H 	H 	0.69410 0.95310 0.80110 0.22900
O 	O 	0.08210 0.58360 0.40040 -0.63100
C 	C 	0.21640 0.57300 0.28050 -0.01500
H 	H 	0.19410 0.45310 0.30110 0.03100
O 	O 	0.41790 0.41640 0.90040 -0.47500
C 	C 	0.28360 0.42700 0.78050 -0.02700
H 	H 	0.30590 0.54690 0.80110 0.09700
O 	O 	0.91790 0.91640 0.40040 -0.44600
C 	C 	0.78360 0.92700 0.28050 0.13300
H 	H 	0.80590 0.04690 0.30110 -0.08500
O 	O 	0.41790 0.58360 0.09960 -0.67500
C 	C 	0.28360 0.57300 0.21950 0.00600
H 	H 	0.30590 0.45310 0.19890 0.01700
O 	O 	0.91790 0.08360 0.59960 -0.54900
C 	C 	0.78360 0.07300 0.71950 -0.16400
H 	H 	0.80590 0.95310 0.69890 0.22700
O 	O 	0.58210 0.91640 0.09960 -0.59900
C 	C 	0.71640 0.92700 0.21950 0.20400
H 	H 	0.69410 0.04690 0.19890 -0.12900
O 	O 	0.08210 0.41640 0.59960 -0.60100
C 	C 	0.21640 0.42700 0.71950 0.01100
H 	H 	0.19410 0.54690 0.69890 0.06900
O 	O 	0.41790 0.91640 0.09960 -0.60000
C 	C 	0.28360 0.92700 0.21950 0.17900
H 	H 	0.30590 0.04690 0.19890 -0.12900
O 	O 	0.91790 0.41640 0.59960 -0.48700
C 	C 	0.78360 0.42700 0.71950 -0.00200
H 	H 	0.80590 0.54690 0.69890 0.09200
O 	O 	0.58210 0.58360 0.09960 -0.67300
C 	C 	0.71640 0.57300 0.21950 0.03300
H 	H 	0.69410 0.45310 0.19890 0.01500
O 	O 	0.08210 0.08360 0.59960 -0.66500
C 	C 	0.21640 0.07300 0.71950 -0.15600
H 	H 	0.19410 0.95310 0.69890 0.20900
O 	O 	0.58210 0.41640 0.90040 -0.47300
C 	C 	0.71640 0.42700 0.78050 -0.00300
H 	H 	0.69410 0.54690 0.80110 0.09500
O 	O 	0.08210 0.91640 0.40040 -0.55700
C 	C 	0.21640 0.92700 0.28050 0.15600
H 	H 	0.19410 0.04690 0.30110 -0.11300
O 	O 	0.41790 0.08360 0.90040 -0.53700
C 	C 	0.28360 0.07300 0.78050 -0.18800
H 	H 	0.30590 0.95310 0.80110 0.23300
O 	O 	0.91790 0.58360 0.40040 -0.51600
C 	C 	0.78360 0.57300 0.28050 -0.03200
H 	H 	0.80590 0.45310 0.30110 0.05600
Ga	Ga	0.50000 0.00000 -0.00000 2.00800
Ga	Ga	-0.00000 0.50000 0.50000 2.07100
Ga	Ga	0.50000 0.50000 -0.00000 2.03500
Ga	Ga	0.00000 0.00000 0.50000 2.04500
O 	O 	0.50000 0.25000 0.06970 -0.89200
O 	O 	-0.00000 0.75000 0.56970 -0.77300
O 	O 	0.50000 0.75000 0.93030 -0.54200
O 	O 	0.00000 0.25000 0.43030 -0.88500
C 	C 	0.68250 0.25000 0.81070 -0.01200
C 	C 	0.60930 0.25000 0.87610 0.46100
C 	C 	0.18250 0.75000 0.31070 -0.16100
C 	C 	0.10930 0.75000 0.37610 0.49300
C 	C 	0.31750 0.25000 0.81070 -0.00400
C 	C 	0.39070 0.25000 0.87610 0.45500
C 	C 	0.81750 0.75000 0.31070 -0.11400
C 	C 	0.89070 0.75000 0.37610 0.47600
C 	C 	0.31750 0.75000 0.18930 -0.18800
C 	C 	0.39070 0.75000 0.12390 0.49900
C 	C 	0.81750 0.25000 0.68930 -0.01700
C 	C 	0.89070 0.25000 0.62390 0.45600
C 	C 	0.68250 0.75000 0.18930 -0.19700
C 	C 	0.60930 0.75000 0.12390 0.50600
C 	C 	0.18250 0.25000 0.68930 -0.05900
C 	C 	0.10930 0.25000 0.62390 0.47000
