data_crystal

_cell_length_a 17.52500
_cell_length_b 6.72160
_cell_length_c 11.89300
_cell_angle_alpha 90.00000
_cell_angle_beta  90.00000
_cell_angle_gamma 90.00000

_symmetry_space_group_name_	'P 1'
_symmetry_space_group_name_H-M	'P 1'

loop_
_symmetry_equiv_pos_as_xyz
  x,y,z

loop_
_atom_site_label
_atom_site_type_symbol
_atom_site_fract_x
_atom_site_fract_y
_atom_site_fract_z
_atom_site_charge
O 	O 	0.42665 0.41770 0.88340 -0.47000
O 	O 	0.08859 0.41790 0.59040 -0.62900
C 	C 	0.29400 0.42900 0.75990 -0.02800
H 	H 	0.31720 0.54870 0.77930 0.09600
C 	C 	0.22580 0.42890 0.70190 0.00600
H 	H 	0.20280 0.54860 0.68210 0.06900
O 	O 	0.07335 0.58230 0.38340 -0.68600
O 	O 	0.41141 0.58210 0.09040 -0.67200
C 	C 	0.20600 0.57100 0.25990 0.00300
H 	H 	0.18280 0.45130 0.27930 0.01100
C 	C 	0.27420 0.57110 0.20190 -0.01500
H 	H 	0.29720 0.45140 0.18210 0.02000
O 	O 	0.57335 0.91770 0.11660 -0.58400
O 	O 	0.91141 0.91790 0.40960 -0.43700
C 	C 	0.70600 0.92900 0.24010 0.19600
H 	H 	0.68280 0.04870 0.22070 -0.13000
C 	C 	0.77420 0.92890 0.29810 0.15200
H 	H 	0.79720 0.04860 0.31790 -0.09800
O 	O 	0.92665 0.08230 0.61660 -0.51500
O 	O 	0.58859 0.08210 0.90960 -0.53100
C 	C 	0.79400 0.07100 0.74010 -0.18200
H 	H 	0.81720 0.95130 0.72070 0.24500
C 	C 	0.72580 0.07110 0.79810 -0.15600
H 	H 	0.70280 0.95140 0.81790 0.23400
O 	O 	0.57335 0.58230 0.11660 -0.66200
O 	O 	0.91141 0.58210 0.40960 -0.51100
C 	C 	0.70600 0.57100 0.24010 0.01900
H 	H 	0.68280 0.45130 0.22070 0.01900
C 	C 	0.77420 0.57110 0.29810 -0.01800
H 	H 	0.79720 0.45140 0.31790 0.04800
O 	O 	0.92665 0.41770 0.61660 -0.44900
O 	O 	0.58859 0.41790 0.90960 -0.46500
C 	C 	0.79400 0.42900 0.74010 -0.01600
H 	H 	0.81720 0.54870 0.72070 0.10500
C 	C 	0.72580 0.42890 0.79810 0.00900
H 	H 	0.70280 0.54860 0.81790 0.09500
O 	O 	0.42665 0.08230 0.88340 -0.53700
O 	O 	0.08859 0.08210 0.59040 -0.69800
C 	C 	0.29400 0.07100 0.75990 -0.19500
H 	H 	0.31720 0.95130 0.77930 0.23900
C 	C 	0.22580 0.07110 0.70190 -0.16800
H 	H 	0.20280 0.95140 0.68210 0.21600
O 	O 	0.07335 0.91770 0.38340 -0.60800
O 	O 	0.41141 0.91790 0.09040 -0.59300
C 	C 	0.20600 0.92900 0.25990 0.18200
H 	H 	0.18280 0.04870 0.27930 -0.14000
C 	C 	0.27420 0.92890 0.20190 0.16500
H 	H 	0.29720 0.04860 0.18210 -0.13200
Ga	Ga	0.50000 0.50000 -0.00000 2.03200
Ga	Ga	-0.00000 0.50000 0.50000 2.03900
Ga	Ga	0.50000 0.00000 -0.00000 2.00400
Ga	Ga	0.00000 0.00000 0.50000 2.01200
O 	O 	0.49394 0.25000 0.07320 -0.89400
C 	C 	0.40000 0.25000 0.85730 0.44100
C 	C 	0.32790 0.25000 0.78930 -0.00000
C 	C 	0.19150 0.25000 0.67310 -0.05500
C 	C 	0.11650 0.25000 0.61330 0.44800
O 	O 	0.00606 0.75000 0.57320 -0.82300
C 	C 	0.10000 0.75000 0.35730 0.50100
C 	C 	0.17210 0.75000 0.28930 -0.19300
C 	C 	0.30850 0.75000 0.17310 -0.17700
C 	C 	0.38350 0.75000 0.11330 0.48100
O 	O 	0.50606 0.75000 0.92680 -0.54000
C 	C 	0.60000 0.75000 0.14270 0.48400
C 	C 	0.67210 0.75000 0.21070 -0.18300
C 	C 	0.80850 0.75000 0.32690 -0.12700
C 	C 	0.88350 0.75000 0.38670 0.48100
O 	O 	0.99394 0.25000 0.42680 -0.60800
C 	C 	0.90000 0.25000 0.64270 0.42400
C 	C 	0.82790 0.25000 0.71070 0.01200
C 	C 	0.69150 0.25000 0.82690 -0.01300
C 	C 	0.61650 0.25000 0.88670 0.45000
