data_crystal

_cell_length_a 6.72610
_cell_length_b 11.04550
_cell_length_c 11.04550
_cell_angle_alpha 119.89600
_cell_angle_beta  105.95100
_cell_angle_gamma 74.04860

_symmetry_space_group_name_	'P 1'
_symmetry_space_group_name_H-M	'P 1'

loop_
_symmetry_equiv_pos_as_xyz
  x,y,z

loop_
_atom_site_label
_atom_site_type_symbol
_atom_site_fract_x
_atom_site_fract_y
_atom_site_fract_z
_atom_site_charge
Ga	Ga	-0.00000 0.00000 -0.00000 2.02000
Ga	Ga	0.50000 0.00000 -0.00000 2.03500
H 	H 	0.28280 0.95560 0.59760 0.28000
H 	H 	0.84230 0.02360 0.60840 0.26900
H 	H 	0.21720 0.59760 0.95560 0.33000
H 	H 	0.65770 0.60840 0.02360 0.29000
H 	H 	0.71720 0.04440 0.40240 -0.18000
H 	H 	0.15770 0.97640 0.39160 -0.16900
H 	H 	0.78280 0.40240 0.04440 -0.23400
H 	H 	0.34230 0.39160 0.97640 -0.19400
H 	H 	0.75000 0.15160 0.15160 0.53300
H 	H 	0.25000 0.84840 0.84840 0.39200
C 	C 	0.65740 0.97320 0.75820 0.25800
C 	C 	0.57720 0.98660 0.62400 0.56600
C 	C 	0.37080 0.97320 0.55840 -0.60700
C 	C 	0.70410 0.01380 0.56480 -0.78900
C 	C 	0.84260 0.75820 0.97320 0.22200
C 	C 	0.92280 0.62400 0.98660 0.67800
C 	C 	0.12920 0.55840 0.97320 -0.77700
C 	C 	0.79590 0.56480 0.01380 -0.86900
C 	C 	0.34260 0.02680 0.24180 0.66500
C 	C 	0.42280 0.01340 0.37600 -0.77300
C 	C 	0.62920 0.02680 0.44160 0.59000
C 	C 	0.29590 0.98620 0.43520 0.78400
C 	C 	0.15740 0.24180 0.02680 0.70300
C 	C 	0.07720 0.37600 0.01340 -0.90100
C 	C 	0.87080 0.44160 0.02680 0.77200
C 	C 	0.20410 0.43520 0.98620 0.87100
O 	O 	0.84520 0.98870 0.81330 -0.34900
O 	O 	0.53180 0.94670 0.80410 -0.42600
O 	O 	0.65480 0.81330 0.98870 -0.37100
O 	O 	0.96820 0.80410 0.94670 -0.38400
O 	O 	0.15480 0.01130 0.18670 -0.77800
O 	O 	0.46820 0.05330 0.19590 -0.71800
O 	O 	0.34520 0.18670 0.01130 -0.75700
O 	O 	0.03180 0.19590 0.05330 -0.76400
O 	O 	0.75000 0.07850 0.07850 -1.28100
O 	O 	0.25000 0.92150 0.92150 -0.93700
