data_crystal

_cell_length_a 7.22600
_cell_length_b 10.27450
_cell_length_c 13.29180
_cell_angle_alpha 90.00000
_cell_angle_beta  90.00000
_cell_angle_gamma 99.49300

_symmetry_space_group_name_	'P 1'
_symmetry_space_group_name_H-M	'P 1'

loop_
_symmetry_equiv_pos_as_xyz
  x,y,z

loop_
_atom_site_label
_atom_site_type_symbol
_atom_site_fract_x
_atom_site_fract_y
_atom_site_fract_z
_atom_site_charge
Ce	Ce	0.16144 0.28177 0.90556 2.12500
Ce	Ce	0.83856 0.21823 0.40556 2.12600
Ce	Ce	0.83856 0.71823 0.09444 2.12400
Ce	Ce	0.16144 0.78177 0.59444 2.12500
P 	P 	0.78628 0.07245 0.05061 0.49000
P 	P 	0.21372 0.42755 0.55061 0.50100
P 	P 	0.21372 0.92755 0.94939 0.49000
P 	P 	0.78628 0.57245 0.44939 0.50100
H 	H 	0.59240 0.19050 0.04650 0.28900
H 	H 	0.87050 0.00130 0.25700 0.26300
H 	H 	0.05900 0.08610 0.14870 0.07300
H 	H 	0.40760 0.30950 0.54650 0.29100
H 	H 	0.12950 0.49870 0.75700 0.26500
H 	H 	0.94100 0.41390 0.64870 0.06800
H 	H 	0.40760 0.80950 0.95350 0.28900
H 	H 	0.12950 0.99870 0.74300 0.26300
H 	H 	0.94100 0.91390 0.85130 0.07300
H 	H 	0.59240 0.69050 0.45350 0.29100
H 	H 	0.87050 0.50130 0.24300 0.26500
H 	H 	0.05900 0.58610 0.35130 0.06800
C 	C 	0.94510 0.12550 0.15590 -0.15700
C 	C 	0.99890 0.27450 0.16270 0.38200
C 	C 	0.45400 0.55490 0.97470 0.23300
C 	C 	0.05490 0.37450 0.65590 -0.15100
C 	C 	0.00110 0.22550 0.66270 0.39100
C 	C 	0.54600 0.94510 0.47470 0.23200
C 	C 	0.05490 0.87450 0.84410 -0.15700
C 	C 	0.00110 0.72550 0.83730 0.38200
C 	C 	0.54600 0.44510 0.02530 0.23300
C 	C 	0.94510 0.62550 0.34410 -0.15100
C 	C 	0.99890 0.77450 0.33730 0.39100
C 	C 	0.45400 0.05490 0.52530 0.23200
O 	O 	0.60370 0.12690 0.08180 -0.44100
O 	O 	0.86770 0.13190 0.95403 -0.45900
O 	O 	0.74380 0.92470 0.05620 -0.46000
O 	O 	0.84830 0.07550 0.24519 -0.52100
O 	O 	0.07930 0.33370 0.08803 -0.46900
O 	O 	0.96040 0.33070 0.24300 -0.47800
O 	O 	0.30870 0.51940 0.92480 -0.44700
O 	O 	0.53240 0.67180 0.99110 -0.42500
O 	O 	0.39630 0.37310 0.58180 -0.44200
O 	O 	0.13230 0.36810 0.45403 -0.46600
O 	O 	0.25620 0.57530 0.55620 -0.46300
O 	O 	0.15170 0.42450 0.74519 -0.52300
O 	O 	0.92070 0.16630 0.58803 -0.47700
O 	O 	0.03960 0.16930 0.74300 -0.47900
O 	O 	0.69130 0.98060 0.42480 -0.44400
O 	O 	0.46760 0.82820 0.49110 -0.42600
O 	O 	0.39630 0.87310 0.91820 -0.44100
O 	O 	0.13230 0.86810 0.04597 -0.45900
O 	O 	0.25620 0.07530 0.94380 -0.46000
O 	O 	0.15170 0.92450 0.75481 -0.52100
O 	O 	0.92070 0.66630 0.91197 -0.46900
O 	O 	0.03960 0.66930 0.75700 -0.47800
O 	O 	0.69130 0.48060 0.07520 -0.44700
O 	O 	0.46760 0.32820 0.00890 -0.42500
O 	O 	0.60370 0.62690 0.41820 -0.44200
O 	O 	0.86770 0.63190 0.54597 -0.46600
O 	O 	0.74380 0.42470 0.44380 -0.46300
O 	O 	0.84830 0.57550 0.25481 -0.52300
O 	O 	0.07930 0.83370 0.41197 -0.47700
O 	O 	0.96040 0.83070 0.25700 -0.47900
O 	O 	0.30870 0.01940 0.57520 -0.44400
O 	O 	0.53240 0.17180 0.50890 -0.42600
