data_crystal

_cell_length_a 7.23510
_cell_length_b 10.19990
_cell_length_c 13.05500
_cell_angle_alpha 90.00000
_cell_angle_beta  90.00000
_cell_angle_gamma 100.42700

_symmetry_space_group_name_	'P 1'
_symmetry_space_group_name_H-M	'P 1'

loop_
_symmetry_equiv_pos_as_xyz
  x,y,z

loop_
_atom_site_label
_atom_site_type_symbol
_atom_site_fract_x
_atom_site_fract_y
_atom_site_fract_z
_atom_site_charge
Sm	Sm	0.16364 0.28216 0.90595 1.92700
Sm	Sm	0.83636 0.21784 0.40595 2.03000
Sm	Sm	0.83636 0.71784 0.09405 2.01400
Sm	Sm	0.16364 0.78216 0.59405 1.92800
P 	P 	0.78841 0.06941 0.04910 0.50500
P 	P 	0.21159 0.43059 0.54910 0.52800
P 	P 	0.21159 0.93059 0.95090 0.52000
P 	P 	0.78841 0.56941 0.45090 0.51000
H 	H 	0.59300 0.18610 0.04410 0.28900
H 	H 	0.86590 0.99930 0.26010 0.28900
H 	H 	0.05730 0.08510 0.15070 -0.01400
H 	H 	0.40700 0.31390 0.54410 0.28600
H 	H 	0.13410 0.50070 0.76010 0.26100
H 	H 	0.94270 0.41490 0.65070 0.10800
H 	H 	0.40700 0.81390 0.95590 0.28500
H 	H 	0.13410 0.00070 0.73990 0.26700
H 	H 	0.94270 0.91490 0.84930 0.10800
H 	H 	0.59300 0.68610 0.45590 0.29000
H 	H 	0.86590 0.49930 0.23990 0.29400
H 	H 	0.05730 0.58510 0.34930 -0.02000
C 	C 	0.94370 0.12430 0.15700 0.01100
C 	C 	-0.00000 0.27440 0.16380 0.29300
C 	C 	0.45320 0.55490 0.97580 0.26300
C 	C 	0.05630 0.37570 0.65700 -0.18500
C 	C 	-0.00000 0.22560 0.66380 0.37000
C 	C 	0.54680 0.94510 0.47580 0.25400
C 	C 	0.05630 0.87570 0.84300 -0.18300
C 	C 	-0.00000 0.72560 0.83620 0.36400
C 	C 	0.54680 0.44510 0.02420 0.25500
C 	C 	0.94370 0.62430 0.34300 0.02100
C 	C 	-0.00000 0.77440 0.33620 0.28800
C 	C 	0.45320 0.05490 0.52420 0.26400
O 	O 	0.60370 0.12180 0.07990 -0.44400
O 	O 	0.87170 0.13180 0.95160 -0.41400
O 	O 	0.74650 0.92050 0.05370 -0.45900
O 	O 	0.84460 0.07390 0.24750 -0.54800
O 	O 	0.08130 0.33360 0.08740 -0.44900
O 	O 	0.96100 0.33060 0.24500 -0.41400
O 	O 	0.30310 0.51830 0.92810 -0.44200
O 	O 	0.53400 0.67270 0.99050 -0.41700
O 	O 	0.39630 0.37820 0.57990 -0.44200
O 	O 	0.12830 0.36820 0.45160 -0.48100
O 	O 	0.25350 0.57950 0.55370 -0.46100
O 	O 	0.15540 0.42610 0.74750 -0.49700
O 	O 	0.91870 0.16640 0.58740 -0.41900
O 	O 	0.03900 0.16940 0.74500 -0.47400
O 	O 	0.69690 0.98170 0.42810 -0.43900
O 	O 	0.46600 0.82730 0.49050 -0.40900
O 	O 	0.39630 0.87820 0.92010 -0.44200
O 	O 	0.12830 0.86820 0.04840 -0.47600
O 	O 	0.25350 0.07950 0.94630 -0.45700
O 	O 	0.15540 0.92610 0.75250 -0.50400
O 	O 	0.91870 0.66640 0.91260 -0.41200
O 	O 	0.03900 0.66940 0.75500 -0.47200
O 	O 	0.69690 0.48170 0.07190 -0.43700
O 	O 	0.46600 0.32730 0.00950 -0.40900
O 	O 	0.60370 0.62180 0.42010 -0.44600
O 	O 	0.87170 0.63180 0.54840 -0.42200
O 	O 	0.74650 0.42050 0.44630 -0.45700
O 	O 	0.84460 0.57390 0.25250 -0.55400
O 	O 	0.08130 0.83360 0.41260 -0.45100
O 	O 	0.96100 0.83060 0.25500 -0.41200
O 	O 	0.30310 0.01830 0.57190 -0.44100
O 	O 	0.53400 0.17270 0.50950 -0.41900
