data_crystal

_cell_length_a 7.23260
_cell_length_b 10.23370
_cell_length_c 13.15580
_cell_angle_alpha 90.00000
_cell_angle_beta  90.00000
_cell_angle_gamma 100.10700

_symmetry_space_group_name_	'P 1'
_symmetry_space_group_name_H-M	'P 1'

loop_
_symmetry_equiv_pos_as_xyz
  x,y,z

loop_
_atom_site_label
_atom_site_type_symbol
_atom_site_fract_x
_atom_site_fract_y
_atom_site_fract_z
_atom_site_charge
Nd	Nd	0.16300 0.28187 0.90549 2.16100
Nd	Nd	0.83700 0.21813 0.40549 2.16900
Nd	Nd	0.83700 0.71813 0.09451 2.16200
Nd	Nd	0.16300 0.78187 0.59451 2.17000
P 	P 	0.78745 0.07069 0.04946 0.52000
P 	P 	0.21255 0.42931 0.54946 0.53200
P 	P 	0.21255 0.92931 0.95054 0.52000
P 	P 	0.78745 0.57069 0.45054 0.53200
H 	H 	0.59290 0.18800 0.04470 0.28500
H 	H 	0.86790 0.00040 0.25860 0.27300
H 	H 	0.05770 0.08600 0.14950 0.05400
H 	H 	0.40710 0.31200 0.54470 0.28700
H 	H 	0.13210 0.49960 0.75860 0.27500
H 	H 	0.94230 0.41400 0.64950 0.04800
H 	H 	0.40710 0.81200 0.95530 0.28500
H 	H 	0.13210 0.99960 0.74140 0.27300
H 	H 	0.94230 0.91400 0.85050 0.05400
H 	H 	0.59290 0.68800 0.45530 0.28700
H 	H 	0.86790 0.50040 0.24140 0.27500
H 	H 	0.05770 0.58600 0.35050 0.04800
C 	C 	0.94410 0.12520 0.15620 -0.13100
C 	C 	0.99970 0.27450 0.16340 0.41000
C 	C 	0.45310 0.55530 0.97570 0.26600
C 	C 	0.05590 0.37480 0.65620 -0.12500
C 	C 	0.00030 0.22550 0.66340 0.42000
C 	C 	0.54690 0.94470 0.47570 0.26600
C 	C 	0.05590 0.87480 0.84380 -0.13100
C 	C 	0.00030 0.72550 0.83660 0.41000
C 	C 	0.54690 0.44470 0.02430 0.26600
C 	C 	0.94410 0.62520 0.34380 -0.12500
C 	C 	0.99970 0.77450 0.33660 0.42000
C 	C 	0.45310 0.05530 0.52430 0.26600
O 	O 	0.60370 0.12410 0.08040 -0.45300
O 	O 	0.86960 0.13140 0.95230 -0.47100
O 	O 	0.74540 0.92230 0.05440 -0.48300
O 	O 	0.84610 0.07480 0.24640 -0.54100
O 	O 	0.08090 0.33380 0.08740 -0.48300
O 	O 	0.96090 0.33060 0.24420 -0.49900
O 	O 	0.30510 0.51860 0.92690 -0.47000
O 	O 	0.53280 0.67200 0.99140 -0.44200
O 	O 	0.39630 0.37590 0.58040 -0.45500
O 	O 	0.13040 0.36860 0.45230 -0.48000
O 	O 	0.25460 0.57770 0.55440 -0.48700
O 	O 	0.15390 0.42520 0.74640 -0.54200
O 	O 	0.91910 0.16620 0.58740 -0.49300
O 	O 	0.03910 0.16940 0.74420 -0.50000
O 	O 	0.69490 0.98140 0.42690 -0.46900
O 	O 	0.46720 0.82800 0.49140 -0.44300
O 	O 	0.39630 0.87590 0.91960 -0.45300
O 	O 	0.13040 0.86860 0.04770 -0.47100
O 	O 	0.25460 0.07770 0.94560 -0.48300
O 	O 	0.15390 0.92520 0.75360 -0.54100
O 	O 	0.91910 0.66620 0.91260 -0.48300
O 	O 	0.03910 0.66940 0.75580 -0.49900
O 	O 	0.69490 0.48140 0.07310 -0.47000
O 	O 	0.46720 0.32800 0.00860 -0.44200
O 	O 	0.60370 0.62410 0.41960 -0.45500
O 	O 	0.86960 0.63140 0.54770 -0.48000
O 	O 	0.74540 0.42230 0.44560 -0.48700
O 	O 	0.84610 0.57480 0.25360 -0.54200
O 	O 	0.08090 0.83380 0.41260 -0.49300
O 	O 	0.96090 0.83060 0.25580 -0.50000
O 	O 	0.30510 0.01860 0.57310 -0.46900
O 	O 	0.53280 0.17200 0.50860 -0.44300
