data_crystal

_cell_length_a 8.64800
_cell_length_b 11.66120
_cell_length_c 18.49300
_cell_angle_alpha 102.03700
_cell_angle_beta  90.00000
_cell_angle_gamma 90.00000

_symmetry_space_group_name_	'P 1'
_symmetry_space_group_name_H-M	'P 1'

loop_
_symmetry_equiv_pos_as_xyz
  x,y,z

loop_
_atom_site_label
_atom_site_type_symbol
_atom_site_fract_x
_atom_site_fract_y
_atom_site_fract_z
_atom_site_charge
Mn	Mn	0.79378 0.94163 0.16580 1.27200
Mn	Mn	0.29378 0.05837 0.33420 1.27200
Mn	Mn	0.20622 0.05837 0.83420 1.27200
Mn	Mn	0.70622 0.94163 0.66580 1.27200
H 	H 	0.65100 0.88000 0.88600 0.07400
H 	H 	0.90800 0.01700 0.93700 0.10200
H 	H 	0.63800 0.70300 0.09620 -0.02100
H 	H 	0.63800 0.50900 0.09760 0.11400
H 	H 	0.97000 0.56400 0.24300 0.11500
H 	H 	0.96700 0.75200 0.24000 -0.01600
H 	H 	0.65000 0.12800 0.07800 0.01100
H 	H 	0.64500 0.32500 0.08360 0.07200
H 	H 	0.95000 0.37200 0.24960 0.08900
H 	H 	0.94700 0.17500 0.24800 -0.02300
H 	H 	0.15100 0.12000 0.61400 0.07400
H 	H 	0.40800 0.98300 0.56300 0.10100
H 	H 	0.13800 0.29700 0.40380 -0.02100
H 	H 	0.13800 0.49100 0.40240 0.11400
H 	H 	0.47000 0.43600 0.25700 0.11500
H 	H 	0.46700 0.24800 0.26000 -0.01500
H 	H 	0.15000 0.87200 0.42200 0.01100
H 	H 	0.14500 0.67500 0.41640 0.07200
H 	H 	0.45000 0.62800 0.25040 0.08900
H 	H 	0.44700 0.82500 0.25200 -0.02300
H 	H 	0.34900 0.12000 0.11400 0.07400
H 	H 	0.09200 0.98300 0.06300 0.10200
H 	H 	0.36200 0.29700 0.90380 -0.02100
H 	H 	0.36200 0.49100 0.90240 0.11400
H 	H 	0.03000 0.43600 0.75700 0.11500
H 	H 	0.03300 0.24800 0.76000 -0.01600
H 	H 	0.35000 0.87200 0.92200 0.01100
H 	H 	0.35500 0.67500 0.91640 0.07200
H 	H 	0.05000 0.62800 0.75040 0.08900
H 	H 	0.05300 0.82500 0.75200 -0.02300
H 	H 	0.84900 0.88000 0.38600 0.07400
H 	H 	0.59200 0.01700 0.43700 0.10100
H 	H 	0.86200 0.70300 0.59620 -0.02100
H 	H 	0.86200 0.50900 0.59760 0.11400
H 	H 	0.53000 0.56400 0.74300 0.11500
H 	H 	0.53300 0.75200 0.74000 -0.01500
H 	H 	0.85000 0.12800 0.57800 0.01100
H 	H 	0.85500 0.32500 0.58360 0.07200
H 	H 	0.55000 0.37200 0.74960 0.08900
H 	H 	0.55300 0.17500 0.74800 -0.02300
C 	C 	0.69590 0.88630 0.99800 0.33000
C 	C 	0.72420 0.90960 0.92312 -0.08400
C 	C 	0.83300 0.97660 0.90440 -0.18000
C 	C 	0.84280 0.00350 0.82892 0.40300
C 	C 	0.70760 0.67270 0.12690 0.11600
C 	C 	0.70250 0.55470 0.12610 -0.21400
C 	C 	0.80150 0.50650 0.16958 0.11300
C 	C 	0.90050 0.58400 0.21390 -0.21300
C 	C 	0.89870 0.70120 0.21110 0.12500
C 	C 	0.71350 0.18260 0.11930 0.06200
C 	C 	0.70980 0.29990 0.11930 -0.11000
C 	C 	0.80080 0.37860 0.16831 0.03700
C 	C 	0.89070 0.32960 0.21570 -0.15200
C 	C 	0.88690 0.21070 0.21330 0.09400
C 	C 	0.19590 0.11370 0.50200 0.33100
C 	C 	0.22420 0.09040 0.57688 -0.08500
C 	C 	0.33300 0.02340 0.59560 -0.17700
C 	C 	0.34280 0.99650 0.67108 0.40200
C 	C 	0.20760 0.32730 0.37310 0.11600
C 	C 	0.20250 0.44530 0.37390 -0.21500
C 	C 	0.30150 0.49350 0.33042 0.11300
C 	C 	0.40050 0.41600 0.28610 -0.21200
C 	C 	0.39870 0.29880 0.28890 0.12500
C 	C 	0.21350 0.81740 0.38070 0.06200
C 	C 	0.20980 0.70010 0.38070 -0.11000
C 	C 	0.30080 0.62140 0.33169 0.03700
C 	C 	0.39070 0.67040 0.28430 -0.15200
C 	C 	0.38690 0.78930 0.28670 0.09400
C 	C 	0.30410 0.11370 0.00200 0.33000
C 	C 	0.27580 0.09040 0.07688 -0.08400
C 	C 	0.16700 0.02340 0.09560 -0.18000
C 	C 	0.15720 0.99650 0.17108 0.40300
C 	C 	0.29240 0.32730 0.87310 0.11600
C 	C 	0.29750 0.44530 0.87390 -0.21400
C 	C 	0.19850 0.49350 0.83042 0.11300
C 	C 	0.09950 0.41600 0.78610 -0.21300
C 	C 	0.10130 0.29880 0.78890 0.12500
C 	C 	0.28650 0.81740 0.88070 0.06200
C 	C 	0.29020 0.70010 0.88070 -0.11000
C 	C 	0.19920 0.62140 0.83169 0.03700
C 	C 	0.10930 0.67040 0.78430 -0.15200
C 	C 	0.11310 0.78930 0.78670 0.09400
C 	C 	0.80410 0.88630 0.49800 0.33100
C 	C 	0.77580 0.90960 0.42312 -0.08500
C 	C 	0.66700 0.97660 0.40440 -0.17700
C 	C 	0.65720 0.00350 0.32892 0.40200
C 	C 	0.79240 0.67270 0.62690 0.11600
C 	C 	0.79750 0.55470 0.62610 -0.21500
C 	C 	0.69850 0.50650 0.66958 0.11300
C 	C 	0.59950 0.58400 0.71390 -0.21200
C 	C 	0.60130 0.70120 0.71110 0.12500
C 	C 	0.78650 0.18260 0.61930 0.06200
C 	C 	0.79020 0.29990 0.61930 -0.11000
C 	C 	0.69920 0.37860 0.66831 0.03700
C 	C 	0.60930 0.32960 0.71570 -0.15200
C 	C 	0.61310 0.21070 0.71330 0.09400
N 	N 	0.80340 0.74690 0.16812 -0.25200
N 	N 	0.79890 0.13690 0.16616 -0.23700
N 	N 	0.30340 0.25310 0.33188 -0.25100
N 	N 	0.29890 0.86310 0.33384 -0.23700
N 	N 	0.19660 0.25310 0.83188 -0.25200
N 	N 	0.20110 0.86310 0.83384 -0.23700
N 	N 	0.69660 0.74690 0.66812 -0.25100
N 	N 	0.70110 0.13690 0.66616 -0.23700
O 	O 	0.80250 0.90866 0.04601 -0.42600
O 	O 	0.56560 0.84590 0.00891 -0.29000
O 	O 	0.72960 0.97577 0.78589 -0.44700
O 	O 	0.96260 0.05279 0.81215 -0.46500
O 	O 	0.30250 0.09134 0.45399 -0.42600
O 	O 	0.06560 0.15410 0.49109 -0.29100
O 	O 	0.22960 0.02423 0.71411 -0.44700
O 	O 	0.46260 0.94721 0.68785 -0.46500
O 	O 	0.19750 0.09134 0.95399 -0.42600
O 	O 	0.43440 0.15410 0.99109 -0.29000
O 	O 	0.27040 0.02423 0.21411 -0.44700
O 	O 	0.03740 0.94721 0.18785 -0.46500
O 	O 	0.69750 0.90866 0.54601 -0.42600
O 	O 	0.93440 0.84590 0.50891 -0.29100
O 	O 	0.77040 0.97577 0.28589 -0.44700
O 	O 	0.53740 0.05279 0.31215 -0.46500
