data_crystal

_cell_length_a 7.94300
_cell_length_b 7.94300
_cell_length_c 12.81250
_cell_angle_alpha 90.00000
_cell_angle_beta  90.00000
_cell_angle_gamma 90.00000

_symmetry_space_group_name_	'P 1'
_symmetry_space_group_name_H-M	'P 1'

loop_
_symmetry_equiv_pos_as_xyz
  x,y,z

loop_
_atom_site_label
_atom_site_type_symbol
_atom_site_fract_x
_atom_site_fract_y
_atom_site_fract_z
_atom_site_charge
Mg	Mg	0.46953 0.11794 0.78700 1.46600
Mg	Mg	0.53047 0.88206 0.28700 1.46500
Mg	Mg	0.88206 0.46953 0.03700 1.46000
Mg	Mg	0.11794 0.53047 0.53700 1.46600
H 	H 	0.40550 0.07370 0.97960 0.37300
H 	H 	0.29790 0.84090 0.99520 -0.00500
H 	H 	0.61760 0.74090 0.91490 0.15700
H 	H 	0.48330 0.60640 0.94730 0.17100
H 	H 	0.59450 0.92630 0.47960 0.34700
H 	H 	0.70210 0.15910 0.49520 -0.04300
H 	H 	0.38240 0.25910 0.41490 0.18000
H 	H 	0.51670 0.39360 0.44730 0.18900
H 	H 	0.92630 0.40550 0.22960 0.34700
H 	H 	0.15910 0.29790 0.24520 -0.04200
H 	H 	0.25910 0.61760 0.16490 0.16600
H 	H 	0.39360 0.48330 0.19730 0.18100
H 	H 	0.07370 0.59450 0.72960 0.34900
H 	H 	0.84090 0.70210 0.74520 -0.03800
H 	H 	0.74090 0.38240 0.66490 0.18000
H 	H 	0.60640 0.51670 0.69730 0.18800
C 	C 	0.30000 0.80370 0.83510 0.22600
C 	C 	0.38240 0.84700 0.93960 0.19600
C 	C 	0.52470 0.71880 0.96210 -0.42400
C 	C 	0.58950 0.72340 0.07250 0.46700
C 	C 	0.70000 0.19630 0.33510 0.21300
C 	C 	0.61760 0.15300 0.43960 0.23000
C 	C 	0.47530 0.28120 0.46210 -0.55100
C 	C 	0.41050 0.27660 0.57250 0.56400
C 	C 	0.19630 0.30000 0.08510 0.21800
C 	C 	0.15300 0.38240 0.18960 0.22200
C 	C 	0.28120 0.52470 0.21210 -0.54000
C 	C 	0.27660 0.58950 0.32250 0.55900
C 	C 	0.80370 0.70000 0.58510 0.21300
C 	C 	0.84700 0.61760 0.68960 0.22800
C 	C 	0.71880 0.47530 0.71210 -0.54500
C 	C 	0.72340 0.41050 0.82250 0.55900
O 	O 	0.33150 0.89660 0.75770 -0.44200
O 	O 	0.21060 0.67420 0.83320 -0.28400
O 	O 	0.69990 0.61810 0.09930 -0.60100
O 	O 	0.52520 0.82870 0.13410 -0.56900
O 	O 	0.45040 0.01510 0.93490 -0.67200
O 	O 	0.66850 0.10340 0.25770 -0.45100
O 	O 	0.78940 0.32580 0.33320 -0.29600
O 	O 	0.30010 0.38190 0.59930 -0.59900
O 	O 	0.47480 0.17130 0.63410 -0.56800
O 	O 	0.54960 0.98490 0.43490 -0.68800
O 	O 	0.10340 0.33150 0.00770 -0.48500
O 	O 	0.32580 0.21060 0.08320 -0.32800
O 	O 	0.38190 0.69990 0.34930 -0.60200
O 	O 	0.17130 0.52520 0.38410 -0.56900
O 	O 	0.98490 0.45040 0.18490 -0.69700
O 	O 	0.89660 0.66850 0.50770 -0.44400
O 	O 	0.67420 0.78940 0.58320 -0.29300
O 	O 	0.61810 0.30010 0.84930 -0.58200
O 	O 	0.82870 0.47480 0.88410 -0.53800
O 	O 	0.01510 0.54960 0.68490 -0.68400
