data_crystal

_cell_length_a 12.87080
_cell_length_b 12.87080
_cell_length_c 17.24330
_cell_angle_alpha 90.00000
_cell_angle_beta  90.00000
_cell_angle_gamma 120.00000

_symmetry_space_group_name_	'P 1'
_symmetry_space_group_name_H-M	'P 1'

loop_
_symmetry_equiv_pos_as_xyz
  x,y,z

loop_
_atom_site_label
_atom_site_type_symbol
_atom_site_fract_x
_atom_site_fract_y
_atom_site_fract_z
_atom_site_charge
O 	O 	0.68080 0.81950 0.01050 -0.43800
O 	O 	0.49230 0.69640 0.98490 -0.37800
O 	O 	0.34020 0.98370 0.19950 -0.40800
O 	O 	0.51350 0.02400 0.24560 -0.51400
C 	C 	0.54460 0.89960 0.01240 0.04200
C 	C 	0.46310 0.87380 0.08510 0.51900
C 	C 	0.48870 0.00130 0.10650 -0.46000
H 	H 	0.44800 0.02690 0.06960 0.12900
C 	C 	0.62540 0.07860 0.09580 0.29900
H 	H 	0.64760 0.16020 0.08200 -0.10300
H 	H 	0.66690 0.08030 0.14320 -0.06800
C 	C 	0.65510 0.02160 0.03340 -0.54200
H 	H 	0.72050 0.00950 0.04960 0.17300
H 	H 	0.68120 0.07340 0.98820 0.21100
C 	C 	0.48610 0.90710 0.93800 -0.46000
H 	H 	0.53970 0.92260 0.89530 0.18300
H 	H 	0.46820 0.97090 0.94200 0.18900
H 	H 	0.41320 0.83260 0.92960 0.17500
C 	C 	0.32230 0.79060 0.06590 -0.88600
H 	H 	0.27640 0.77770 0.11240 0.29300
H 	H 	0.30760 0.71480 0.04590 0.26600
H 	H 	0.29900 0.82970 0.02800 0.26900
C 	C 	0.49330 0.81320 0.14940 -1.06300
H 	H 	0.57700 0.86050 0.16190 0.37700
H 	H 	0.47570 0.73490 0.13270 0.33800
H 	H 	0.44640 0.80580 0.19450 0.36700
C 	C 	0.57460 0.79950 0.00130 0.17200
C 	C 	0.44600 0.00450 0.18930 0.32500
O 	O 	0.18050 0.86130 0.34383 -0.45800
O 	O 	0.30360 0.79590 0.31823 -0.45600
O 	O 	0.01630 0.35650 0.53283 -0.54500
O 	O 	0.97600 0.48950 0.57893 -0.48500
C 	C 	0.10040 0.64500 0.34573 -0.15100
C 	C 	0.12620 0.58930 0.41843 0.43200
C 	C 	0.99870 0.48740 0.43983 -0.29800
H 	H 	0.97310 0.42110 0.40293 0.14100
C 	C 	0.92140 0.54680 0.42913 0.02000
H 	H 	0.83980 0.48740 0.41533 0.00300
H 	H 	0.91970 0.58660 0.47653 0.03900
C 	C 	0.97840 0.63350 0.36673 -0.07500
H 	H 	0.99050 0.71100 0.38293 0.09000
H 	H 	0.92660 0.60780 0.32153 0.05700
C 	C 	0.09290 0.57900 0.27133 -0.26300
H 	H 	0.07740 0.61710 0.22863 0.07500
H 	H 	0.02910 0.49730 0.27533 0.06000
H 	H 	0.16740 0.58060 0.26293 0.09100
C 	C 	0.20940 0.53170 0.39923 -0.85500
H 	H 	0.22230 0.49870 0.44573 0.27900
H 	H 	0.28520 0.59280 0.37923 0.28500
H 	H 	0.17030 0.46930 0.36133 0.26400
C 	C 	0.18680 0.68010 0.48273 -0.97000
H 	H 	0.13950 0.71650 0.49523 0.31600
H 	H 	0.26510 0.74080 0.46603 0.31900
H 	H 	0.19420 0.64060 0.52783 0.31700
C 	C 	0.20050 0.77510 0.33463 0.30900
C 	C 	0.99550 0.44150 0.52263 0.44800
O 	O 	0.13870 0.31920 0.67717 -0.48800
O 	O 	0.20410 0.50770 0.65157 -0.47500
O 	O 	0.64350 0.65980 0.86617 -0.44200
O 	O 	0.51050 0.48650 0.91227 -0.48200
C 	C 	0.35500 0.45540 0.67907 -0.07200
C 	C 	0.41070 0.53690 0.75177 0.49700
C 	C 	0.51260 0.51130 0.77317 -0.36400
H 	H 	0.57890 0.55200 0.73627 0.14300
C 	C 	0.45320 0.37460 0.76247 0.09400
H 	H 	0.51260 0.35240 0.74867 -0.02200
H 	H 	0.41340 0.33310 0.80987 -0.00100
C 	C 	0.36650 0.34490 0.70007 -0.19600
H 	H 	0.28900 0.27950 0.71627 0.08700
H 	H 	0.39220 0.31880 0.65487 0.07300
C 	C 	0.42100 0.51390 0.60467 -0.38300
H 	H 	0.38290 0.46030 0.56197 0.13000
H 	H 	0.50270 0.53180 0.60867 0.12700
H 	H 	0.41940 0.58680 0.59627 0.13400
C 	C 	0.46830 0.67770 0.73257 -0.92700
H 	H 	0.50130 0.72360 0.77907 0.31500
H 	H 	0.40720 0.69240 0.71257 0.30700
H 	H 	0.53070 0.70100 0.69467 0.30300
C 	C 	0.31990 0.50670 0.81607 -1.03000
H 	H 	0.28350 0.42300 0.82857 0.34100
H 	H 	0.25920 0.52430 0.79937 0.33300
H 	H 	0.35940 0.55360 0.86117 0.34700
C 	C 	0.22490 0.42540 0.66797 0.29800
C 	C 	0.55850 0.55400 0.85597 0.37200
O 	O 	0.81950 0.68080 0.98950 -0.42000
O 	O 	0.69640 0.49230 0.01510 -0.54000
O 	O 	0.98370 0.34020 0.80050 -0.39200
O 	O 	0.02400 0.51350 0.75440 -0.50900
C 	C 	0.89960 0.54460 0.98760 0.02100
C 	C 	0.87380 0.46310 0.91490 0.56400
C 	C 	0.00130 0.48870 0.89350 -0.40900
H 	H 	0.02690 0.44800 0.93040 0.13700
C 	C 	0.07860 0.62540 0.90420 0.07900
H 	H 	0.16020 0.64760 0.91800 -0.00300
H 	H 	0.08030 0.66690 0.85680 0.00300
C 	C 	0.02160 0.65510 0.96660 -0.16400
H 	H 	0.00950 0.72050 0.95040 0.08100
H 	H 	0.07340 0.68120 0.01180 0.01100
C 	C 	0.90710 0.48610 0.06200 -0.56500
H 	H 	0.92260 0.53970 0.10470 0.19600
H 	H 	0.97090 0.46820 0.05800 0.18100
H 	H 	0.83260 0.41320 0.07040 0.17300
C 	C 	0.79060 0.32230 0.93410 -0.98300
H 	H 	0.77770 0.27640 0.88760 0.32600
H 	H 	0.71480 0.30760 0.95410 0.33400
H 	H 	0.82970 0.29900 0.97200 0.33700
C 	C 	0.81320 0.49330 0.85060 -1.12100
H 	H 	0.86050 0.57700 0.83810 0.39300
H 	H 	0.73490 0.47570 0.86730 0.36500
H 	H 	0.80580 0.44640 0.80550 0.38500
C 	C 	0.79950 0.57460 0.99870 0.35600
C 	C 	0.00450 0.44600 0.81070 0.30400
O 	O 	0.86130 0.18050 0.65617 -0.45400
O 	O 	0.79590 0.30360 0.68177 -0.45500
O 	O 	0.35650 0.01630 0.46717 -0.54300
O 	O 	0.48950 0.97600 0.42107 -0.48600
C 	C 	0.64500 0.10040 0.65427 -0.14100
C 	C 	0.58930 0.12620 0.58157 0.43300
C 	C 	0.48740 0.99870 0.56017 -0.30100
H 	H 	0.42110 0.97310 0.59707 0.14200
C 	C 	0.54680 0.92140 0.57087 0.02700
H 	H 	0.48740 0.83980 0.58467 0.00100
H 	H 	0.58660 0.91970 0.52347 0.03600
C 	C 	0.63350 0.97840 0.63327 -0.08600
H 	H 	0.71100 0.99050 0.61707 0.09400
H 	H 	0.60780 0.92660 0.67847 0.06200
C 	C 	0.57900 0.09290 0.72867 -0.28300
H 	H 	0.61710 0.07740 0.77137 0.08600
H 	H 	0.49730 0.02910 0.72467 0.07000
H 	H 	0.58060 0.16740 0.73707 0.10000
C 	C 	0.53170 0.20940 0.60077 -0.85700
H 	H 	0.49870 0.22230 0.55427 0.28000
H 	H 	0.59280 0.28520 0.62077 0.28600
H 	H 	0.46930 0.17030 0.63867 0.26600
C 	C 	0.68010 0.18680 0.51727 -0.97000
H 	H 	0.71650 0.13950 0.50477 0.31700
H 	H 	0.74080 0.26510 0.53397 0.31900
H 	H 	0.64060 0.19420 0.47217 0.31700
C 	C 	0.77510 0.20050 0.66537 0.30600
C 	C 	0.44150 0.99550 0.47737 0.44600
O 	O 	0.31920 0.13870 0.32283 -0.49000
O 	O 	0.50770 0.20410 0.34843 -0.47400
O 	O 	0.65980 0.64350 0.13383 -0.47100
O 	O 	0.48650 0.51050 0.08773 -0.53000
C 	C 	0.45540 0.35500 0.32093 -0.06500
C 	C 	0.53690 0.41070 0.24823 0.48400
C 	C 	0.51130 0.51260 0.22683 -0.37200
H 	H 	0.55200 0.57890 0.26373 0.14500
C 	C 	0.37460 0.45320 0.23753 0.10800
H 	H 	0.35240 0.51260 0.25133 -0.02900
H 	H 	0.33310 0.41340 0.19013 -0.01500
C 	C 	0.34490 0.36650 0.29993 -0.20600
H 	H 	0.27950 0.28900 0.28373 0.08600
H 	H 	0.31880 0.39220 0.34513 0.07500
C 	C 	0.51390 0.42100 0.39533 -0.39000
H 	H 	0.46030 0.38290 0.43803 0.13200
H 	H 	0.53180 0.50270 0.39133 0.12900
H 	H 	0.58680 0.41940 0.40373 0.13600
C 	C 	0.67770 0.46830 0.26743 -0.90800
H 	H 	0.72360 0.50130 0.22093 0.30500
H 	H 	0.69240 0.40720 0.28743 0.30100
H 	H 	0.70100 0.53070 0.30533 0.29600
C 	C 	0.50670 0.31990 0.18393 -0.99300
H 	H 	0.42300 0.28350 0.17143 0.32000
H 	H 	0.52430 0.25920 0.20063 0.31800
H 	H 	0.55360 0.35940 0.13883 0.32700
C 	C 	0.42540 0.22490 0.33203 0.29500
C 	C 	0.55400 0.55850 0.14403 0.38800
In	In	0.62470 0.62470 -0.00000 1.97700
In	In	0.37530 0.00000 0.33333 1.97700
In	In	0.00000 0.37530 0.66667 1.97700
