data_crystal

_cell_length_a 27.57900
_cell_length_b 10.15400
_cell_length_c 20.35000
_cell_angle_alpha 90.00000
_cell_angle_beta  127.33400
_cell_angle_gamma 90.00000

_symmetry_space_group_name_	'P 1'
_symmetry_space_group_name_H-M	'P 1'

loop_
_symmetry_equiv_pos_as_xyz
  x,y,z

loop_
_atom_site_label
_atom_site_type_symbol
_atom_site_fract_x
_atom_site_fract_y
_atom_site_fract_z
_atom_site_charge
Cu	Cu	0.16050 0.74110 0.26550 0.90500
O 	O 	0.15547 0.59200 0.33080 -0.35600
O 	O 	0.16250 0.47400 0.24590 -0.30000
O 	O 	0.15410 0.88970 0.34130 -0.35000
O 	O 	0.15480 0.99320 0.24870 -0.31300
N 	N 	0.06853 0.73070 0.17910 -0.22100
N 	N 	0.16888 0.25160 0.66850 -0.21500
N 	N 	0.75188 0.74840 0.85430 -0.21700
C 	C 	0.04330 0.65160 0.11520 0.10000
H 	H 	0.06870 0.59560 0.11240 -0.00400
C 	C 	0.98200 0.64600 0.05240 -0.14900
H 	H 	0.96710 0.58820 0.00860 0.08400
C 	C 	0.94250 0.72610 0.05400 0.07000
C 	C 	0.96840 0.80460 0.12290 -0.14500
H 	H 	0.94370 0.85770 0.12870 0.08800
C 	C 	0.03060 0.80480 0.18320 0.09300
H 	H 	0.04690 0.85930 0.22880 0.00400
C 	C 	0.87640 0.72990 0.98520 0.06000
C 	C 	0.85420 0.70380 0.90480 -0.13500
H 	H 	0.88080 0.68090 0.89310 0.09100
C 	C 	0.79200 0.71200 0.84170 0.08400
H 	H 	0.77780 0.69110 0.78820 0.01200
C 	C 	0.77340 0.77190 0.93270 0.08700
H 	H 	0.74580 0.79510 0.94280 0.01100
C 	C 	0.83390 0.76360 0.99840 -0.14500
H 	H 	0.84660 0.78030 0.05160 0.10100
C 	C 	0.15580 0.99210 0.31050 0.31900
C 	C 	0.19120 0.35150 0.65150 0.09400
H 	H 	0.20820 0.42240 0.68790 0.00800
C 	C 	0.14560 0.15130 0.61570 0.09200
H 	H 	0.13020 0.07990 0.62620 0.01100
C 	C 	0.16000 0.48390 0.30480 0.31100
C 	C 	0.16110 0.35940 0.34610 -0.07100
C 	C 	0.15920 0.23890 0.31340 0.01500
H 	H 	0.15790 0.23590 0.26670 0.05200
C 	C 	0.15920 0.12290 0.34850 -0.07900
C 	C 	0.16330 0.12770 0.41970 -0.01000
H 	H 	0.16480 0.04970 0.44490 0.04500
C 	C 	0.16500 0.24810 0.45400 -0.03100
C 	C 	0.16430 0.36340 0.41680 -0.01100
H 	H 	0.16600 0.44430 0.43960 0.05100
C 	C 	0.14330 0.14770 0.54640 -0.15700
H 	H 	0.12570 0.07570 0.51110 0.09100
C 	C 	0.16680 0.25060 0.52850 0.10300
C 	C 	0.19030 0.35520 0.58340 -0.15800
H 	H 	0.20570 0.42840 0.57410 0.09500
Cu	Cu	0.66050 0.24110 0.26550 0.90400
O 	O 	0.65547 0.09200 0.33080 -0.35700
O 	O 	0.66250 0.97400 0.24590 -0.30100
O 	O 	0.65410 0.38970 0.34130 -0.35100
O 	O 	0.65480 0.49320 0.24870 -0.31400
N 	N 	0.56853 0.23070 0.17910 -0.22200
N 	N 	0.66888 0.75160 0.66850 -0.21600
N 	N 	0.25188 0.24840 0.85430 -0.21900
C 	C 	0.54330 0.15160 0.11520 0.09900
H 	H 	0.56870 0.09560 0.11240 -0.00500
C 	C 	0.48200 0.14600 0.05240 -0.14900
H 	H 	0.46710 0.08820 0.00860 0.08400
C 	C 	0.44250 0.22610 0.05400 0.07000
C 	C 	0.46840 0.30460 0.12290 -0.14500
H 	H 	0.44370 0.35770 0.12870 0.08800
C 	C 	0.53060 0.30480 0.18320 0.09300
H 	H 	0.54690 0.35930 0.22880 0.00400
C 	C 	0.37640 0.22990 0.98520 0.06000
C 	C 	0.35420 0.20380 0.90480 -0.13500
H 	H 	0.38080 0.18090 0.89310 0.09100
C 	C 	0.29200 0.21200 0.84170 0.08400
H 	H 	0.27780 0.19110 0.78820 0.01200
C 	C 	0.27340 0.27190 0.93270 0.08700
H 	H 	0.24580 0.29510 0.94280 0.01100
C 	C 	0.33390 0.26360 0.99840 -0.14500
H 	H 	0.34660 0.28030 0.05160 0.10100
C 	C 	0.65580 0.49210 0.31050 0.31900
C 	C 	0.69120 0.85150 0.65150 0.09400
H 	H 	0.70820 0.92240 0.68790 0.00800
C 	C 	0.64560 0.65130 0.61570 0.09200
H 	H 	0.63020 0.57990 0.62620 0.01100
C 	C 	0.66000 0.98390 0.30480 0.31000
C 	C 	0.66110 0.85940 0.34610 -0.07100
C 	C 	0.65920 0.73890 0.31340 0.01500
H 	H 	0.65790 0.73590 0.26670 0.05200
C 	C 	0.65920 0.62290 0.34850 -0.07900
C 	C 	0.66330 0.62770 0.41970 -0.01000
H 	H 	0.66480 0.54970 0.44490 0.04600
C 	C 	0.66500 0.74810 0.45400 -0.03100
C 	C 	0.66430 0.86340 0.41680 -0.01100
H 	H 	0.66600 0.94430 0.43960 0.05100
C 	C 	0.64330 0.64770 0.54640 -0.15700
H 	H 	0.62570 0.57570 0.51110 0.09100
C 	C 	0.66680 0.75060 0.52850 0.10300
C 	C 	0.69030 0.85520 0.58340 -0.15800
H 	H 	0.70570 0.92840 0.57410 0.09400
Cu	Cu	0.16050 0.25890 0.76550 0.90400
O 	O 	0.15547 0.40800 0.83080 -0.35700
O 	O 	0.16250 0.52600 0.74590 -0.30000
O 	O 	0.15410 0.11030 0.84130 -0.35100
O 	O 	0.15480 0.00680 0.74870 -0.31400
N 	N 	0.06853 0.26930 0.67910 -0.22200
N 	N 	0.16888 0.74840 0.16850 -0.21600
N 	N 	0.75188 0.25160 0.35430 -0.21900
C 	C 	0.04330 0.34840 0.61520 0.09900
H 	H 	0.06870 0.40440 0.61240 -0.00500
C 	C 	0.98200 0.35400 0.55240 -0.14900
H 	H 	0.96710 0.41180 0.50860 0.08400
C 	C 	0.94250 0.27390 0.55400 0.07000
C 	C 	0.96840 0.19540 0.62290 -0.14500
H 	H 	0.94370 0.14230 0.62870 0.08800
C 	C 	0.03060 0.19520 0.68320 0.09300
H 	H 	0.04690 0.14070 0.72880 0.00400
C 	C 	0.87640 0.27010 0.48520 0.06000
C 	C 	0.85420 0.29620 0.40480 -0.13500
H 	H 	0.88080 0.31910 0.39310 0.09100
C 	C 	0.79200 0.28800 0.34170 0.08400
H 	H 	0.77780 0.30890 0.28820 0.01200
C 	C 	0.77340 0.22810 0.43270 0.08700
H 	H 	0.74580 0.20490 0.44280 0.01100
C 	C 	0.83390 0.23640 0.49840 -0.14500
H 	H 	0.84660 0.21970 0.55160 0.10100
C 	C 	0.15580 0.00790 0.81050 0.31900
C 	C 	0.19120 0.64850 0.15150 0.09400
H 	H 	0.20820 0.57760 0.18790 0.00800
C 	C 	0.14560 0.84870 0.11570 0.09200
H 	H 	0.13020 0.92010 0.12620 0.01100
C 	C 	0.16000 0.51610 0.80480 0.31100
C 	C 	0.16110 0.64060 0.84610 -0.07100
C 	C 	0.15920 0.76110 0.81340 0.01400
H 	H 	0.15790 0.76410 0.76670 0.05200
C 	C 	0.15920 0.87710 0.84850 -0.07800
C 	C 	0.16330 0.87230 0.91970 -0.01100
H 	H 	0.16480 0.95030 0.94490 0.04600
C 	C 	0.16500 0.75190 0.95400 -0.03100
C 	C 	0.16430 0.63660 0.91680 -0.01100
H 	H 	0.16600 0.55570 0.93960 0.05100
C 	C 	0.14330 0.85230 0.04640 -0.15700
H 	H 	0.12570 0.92430 0.01110 0.09100
C 	C 	0.16680 0.74940 0.02850 0.10300
C 	C 	0.19030 0.64480 0.08340 -0.15800
H 	H 	0.20570 0.57160 0.07410 0.09400
Cu	Cu	0.66050 0.75890 0.76550 0.90400
O 	O 	0.65547 0.90800 0.83080 -0.35700
O 	O 	0.66250 0.02600 0.74590 -0.30000
O 	O 	0.65410 0.61030 0.84130 -0.35100
O 	O 	0.65480 0.50680 0.74870 -0.31400
N 	N 	0.56853 0.76930 0.67910 -0.22200
N 	N 	0.66888 0.24840 0.16850 -0.21600
N 	N 	0.25188 0.75160 0.35430 -0.21900
C 	C 	0.54330 0.84840 0.61520 0.09900
H 	H 	0.56870 0.90440 0.61240 -0.00500
C 	C 	0.48200 0.85400 0.55240 -0.14900
H 	H 	0.46710 0.91180 0.50860 0.08400
C 	C 	0.44250 0.77390 0.55400 0.07000
C 	C 	0.46840 0.69540 0.62290 -0.14500
H 	H 	0.44370 0.64230 0.62870 0.08800
C 	C 	0.53060 0.69520 0.68320 0.09300
H 	H 	0.54690 0.64070 0.72880 0.00400
C 	C 	0.37640 0.77010 0.48520 0.06000
C 	C 	0.35420 0.79620 0.40480 -0.13500
H 	H 	0.38080 0.81910 0.39310 0.09100
C 	C 	0.29200 0.78800 0.34170 0.08400
H 	H 	0.27780 0.80890 0.28820 0.01200
C 	C 	0.27340 0.72810 0.43270 0.08700
H 	H 	0.24580 0.70490 0.44280 0.01100
C 	C 	0.33390 0.73640 0.49840 -0.14500
H 	H 	0.34660 0.71970 0.55160 0.10100
C 	C 	0.65580 0.50790 0.81050 0.31900
C 	C 	0.69120 0.14850 0.15150 0.09400
H 	H 	0.70820 0.07760 0.18790 0.00800
C 	C 	0.64560 0.34870 0.11570 0.09200
H 	H 	0.63020 0.42010 0.12620 0.01100
C 	C 	0.66000 0.01610 0.80480 0.31000
C 	C 	0.66110 0.14060 0.84610 -0.07100
C 	C 	0.65920 0.26110 0.81340 0.01500
H 	H 	0.65790 0.26410 0.76670 0.05200
C 	C 	0.65920 0.37710 0.84850 -0.07900
C 	C 	0.66330 0.37230 0.91970 -0.01000
H 	H 	0.66480 0.45030 0.94490 0.04500
C 	C 	0.66500 0.25190 0.95400 -0.03100
C 	C 	0.66430 0.13660 0.91680 -0.01100
H 	H 	0.66600 0.05570 0.93960 0.05100
C 	C 	0.64330 0.35230 0.04640 -0.15800
H 	H 	0.62570 0.42430 0.01110 0.09100
C 	C 	0.66680 0.24940 0.02850 0.10300
C 	C 	0.69030 0.14480 0.08340 -0.15800
H 	H 	0.70570 0.07160 0.07410 0.09500
Cu	Cu	0.83950 0.74110 0.23450 0.90400
O 	O 	0.84453 0.59200 0.16920 -0.35700
O 	O 	0.83750 0.47400 0.25410 -0.30000
O 	O 	0.84590 0.88970 0.15870 -0.35100
O 	O 	0.84520 0.99320 0.25130 -0.31400
N 	N 	0.93147 0.73070 0.32090 -0.22200
N 	N 	0.83112 0.25160 0.83150 -0.21600
N 	N 	0.24812 0.74840 0.64570 -0.21900
C 	C 	0.95670 0.65160 0.38480 0.09900
H 	H 	0.93130 0.59560 0.38760 -0.00500
C 	C 	0.01800 0.64600 0.44760 -0.14900
H 	H 	0.03290 0.58820 0.49140 0.08400
C 	C 	0.05750 0.72610 0.44600 0.07000
C 	C 	0.03160 0.80460 0.37710 -0.14500
H 	H 	0.05630 0.85770 0.37130 0.08800
C 	C 	0.96940 0.80480 0.31680 0.09300
H 	H 	0.95310 0.85930 0.27120 0.00400
C 	C 	0.12360 0.72990 0.51480 0.06000
C 	C 	0.14580 0.70380 0.59520 -0.13500
H 	H 	0.11920 0.68090 0.60690 0.09100
C 	C 	0.20800 0.71200 0.65830 0.08400
H 	H 	0.22220 0.69110 0.71180 0.01200
C 	C 	0.22660 0.77190 0.56730 0.08700
H 	H 	0.25420 0.79510 0.55720 0.01100
C 	C 	0.16610 0.76360 0.50160 -0.14500
H 	H 	0.15340 0.78030 0.44840 0.10100
C 	C 	0.84420 0.99210 0.18950 0.31900
C 	C 	0.80880 0.35150 0.84850 0.09400
H 	H 	0.79180 0.42240 0.81210 0.00800
C 	C 	0.85440 0.15130 0.88430 0.09200
H 	H 	0.86980 0.07990 0.87380 0.01100
C 	C 	0.84000 0.48390 0.19520 0.31100
C 	C 	0.83890 0.35940 0.15390 -0.07100
C 	C 	0.84080 0.23890 0.18660 0.01400
H 	H 	0.84210 0.23590 0.23330 0.05200
C 	C 	0.84080 0.12290 0.15150 -0.07800
C 	C 	0.83670 0.12770 0.08030 -0.01100
H 	H 	0.83520 0.04970 0.05510 0.04600
C 	C 	0.83500 0.24810 0.04600 -0.03100
C 	C 	0.83570 0.36340 0.08320 -0.01100
H 	H 	0.83400 0.44430 0.06040 0.05100
C 	C 	0.85670 0.14770 0.95360 -0.15700
H 	H 	0.87430 0.07570 0.98890 0.09100
C 	C 	0.83320 0.25060 0.97150 0.10300
C 	C 	0.80970 0.35520 0.91660 -0.15800
H 	H 	0.79430 0.42840 0.92590 0.09400
Cu	Cu	0.33950 0.24110 0.23450 0.90400
O 	O 	0.34453 0.09200 0.16920 -0.35700
O 	O 	0.33750 0.97400 0.25410 -0.30000
O 	O 	0.34590 0.38970 0.15870 -0.35100
O 	O 	0.34520 0.49320 0.25130 -0.31400
N 	N 	0.43147 0.23070 0.32090 -0.22200
N 	N 	0.33112 0.75160 0.83150 -0.21600
N 	N 	0.74812 0.24840 0.64570 -0.21900
C 	C 	0.45670 0.15160 0.38480 0.09900
H 	H 	0.43130 0.09560 0.38760 -0.00500
C 	C 	0.51800 0.14600 0.44760 -0.14900
H 	H 	0.53290 0.08820 0.49140 0.08400
C 	C 	0.55750 0.22610 0.44600 0.07000
C 	C 	0.53160 0.30460 0.37710 -0.14500
H 	H 	0.55630 0.35770 0.37130 0.08800
C 	C 	0.46940 0.30480 0.31680 0.09300
H 	H 	0.45310 0.35930 0.27120 0.00400
C 	C 	0.62360 0.22990 0.51480 0.06000
C 	C 	0.64580 0.20380 0.59520 -0.13500
H 	H 	0.61920 0.18090 0.60690 0.09100
C 	C 	0.70800 0.21200 0.65830 0.08400
H 	H 	0.72220 0.19110 0.71180 0.01200
C 	C 	0.72660 0.27190 0.56730 0.08700
H 	H 	0.75420 0.29510 0.55720 0.01100
C 	C 	0.66610 0.26360 0.50160 -0.14500
H 	H 	0.65340 0.28030 0.44840 0.10100
C 	C 	0.34420 0.49210 0.18950 0.31900
C 	C 	0.30880 0.85150 0.84850 0.09400
H 	H 	0.29180 0.92240 0.81210 0.00800
C 	C 	0.35440 0.65130 0.88430 0.09200
H 	H 	0.36980 0.57990 0.87380 0.01100
C 	C 	0.34000 0.98390 0.19520 0.31000
C 	C 	0.33890 0.85940 0.15390 -0.07100
C 	C 	0.34080 0.73890 0.18660 0.01500
H 	H 	0.34210 0.73590 0.23330 0.05200
C 	C 	0.34080 0.62290 0.15150 -0.07900
C 	C 	0.33670 0.62770 0.08030 -0.01000
H 	H 	0.33520 0.54970 0.05510 0.04500
C 	C 	0.33500 0.74810 0.04600 -0.03100
C 	C 	0.33570 0.86340 0.08320 -0.01100
H 	H 	0.33400 0.94430 0.06040 0.05100
C 	C 	0.35670 0.64770 0.95360 -0.15800
H 	H 	0.37430 0.57570 0.98890 0.09100
C 	C 	0.33320 0.75060 0.97150 0.10300
C 	C 	0.30970 0.85520 0.91660 -0.15800
H 	H 	0.29430 0.92840 0.92590 0.09500
Cu	Cu	0.83950 0.25890 0.73450 0.90400
O 	O 	0.84453 0.40800 0.66920 -0.35700
O 	O 	0.83750 0.52600 0.75410 -0.30100
O 	O 	0.84590 0.11030 0.65870 -0.35100
O 	O 	0.84520 0.00680 0.75130 -0.31400
N 	N 	0.93147 0.26930 0.82090 -0.22200
N 	N 	0.83112 0.74840 0.33150 -0.21600
N 	N 	0.24812 0.25160 0.14570 -0.21800
C 	C 	0.95670 0.34840 0.88480 0.09900
H 	H 	0.93130 0.40440 0.88760 -0.00500
C 	C 	0.01800 0.35400 0.94760 -0.14900
H 	H 	0.03290 0.41180 0.99140 0.08400
C 	C 	0.05750 0.27390 0.94600 0.07000
C 	C 	0.03160 0.19540 0.87710 -0.14500
H 	H 	0.05630 0.14230 0.87130 0.08800
C 	C 	0.96940 0.19520 0.81680 0.09300
H 	H 	0.95310 0.14070 0.77120 0.00400
C 	C 	0.12360 0.27010 0.01480 0.06000
C 	C 	0.14580 0.29620 0.09520 -0.13500
H 	H 	0.11920 0.31910 0.10690 0.09100
C 	C 	0.20800 0.28800 0.15830 0.08400
H 	H 	0.22220 0.30890 0.21180 0.01200
C 	C 	0.22660 0.22810 0.06730 0.08700
H 	H 	0.25420 0.20490 0.05720 0.01100
C 	C 	0.16610 0.23640 0.00160 -0.14500
H 	H 	0.15340 0.21970 0.94840 0.10100
C 	C 	0.84420 0.00790 0.68950 0.31900
C 	C 	0.80880 0.64850 0.34850 0.09400
H 	H 	0.79180 0.57760 0.31210 0.00800
C 	C 	0.85440 0.84870 0.38430 0.09200
H 	H 	0.86980 0.92010 0.37380 0.01100
C 	C 	0.84000 0.51610 0.69520 0.31100
C 	C 	0.83890 0.64060 0.65390 -0.07100
C 	C 	0.84080 0.76110 0.68660 0.01500
H 	H 	0.84210 0.76410 0.73330 0.05200
C 	C 	0.84080 0.87710 0.65150 -0.07900
C 	C 	0.83670 0.87230 0.58030 -0.01000
H 	H 	0.83520 0.95030 0.55510 0.04500
C 	C 	0.83500 0.75190 0.54600 -0.03100
C 	C 	0.83570 0.63660 0.58320 -0.01100
H 	H 	0.83400 0.55570 0.56040 0.05100
C 	C 	0.85670 0.85230 0.45360 -0.15700
H 	H 	0.87430 0.92430 0.48890 0.09100
C 	C 	0.83320 0.74940 0.47150 0.10300
C 	C 	0.80970 0.64480 0.41660 -0.15800
H 	H 	0.79430 0.57160 0.42590 0.09500
Cu	Cu	0.33950 0.75890 0.73450 0.90400
O 	O 	0.34453 0.90800 0.66920 -0.35700
O 	O 	0.33750 0.02600 0.75410 -0.30100
O 	O 	0.34590 0.61030 0.65870 -0.35100
O 	O 	0.34520 0.50680 0.75130 -0.31400
N 	N 	0.43147 0.76930 0.82090 -0.22200
N 	N 	0.33112 0.24840 0.33150 -0.21600
N 	N 	0.74812 0.75160 0.14570 -0.21900
C 	C 	0.45670 0.84840 0.88480 0.09900
H 	H 	0.43130 0.90440 0.88760 -0.00500
C 	C 	0.51800 0.85400 0.94760 -0.14900
H 	H 	0.53290 0.91180 0.99140 0.08400
C 	C 	0.55750 0.77390 0.94600 0.07000
C 	C 	0.53160 0.69540 0.87710 -0.14500
H 	H 	0.55630 0.64230 0.87130 0.08800
C 	C 	0.46940 0.69520 0.81680 0.09300
H 	H 	0.45310 0.64070 0.77120 0.00400
C 	C 	0.62360 0.77010 0.01480 0.06000
C 	C 	0.64580 0.79620 0.09520 -0.13500
H 	H 	0.61920 0.81910 0.10690 0.09100
C 	C 	0.70800 0.78800 0.15830 0.08400
H 	H 	0.72220 0.80890 0.21180 0.01200
C 	C 	0.72660 0.72810 0.06730 0.08700
H 	H 	0.75420 0.70490 0.05720 0.01100
C 	C 	0.66610 0.73640 0.00160 -0.14500
H 	H 	0.65340 0.71970 0.94840 0.10100
C 	C 	0.34420 0.50790 0.68950 0.31900
C 	C 	0.30880 0.14850 0.34850 0.09400
H 	H 	0.29180 0.07760 0.31210 0.00800
C 	C 	0.35440 0.34870 0.38430 0.09200
H 	H 	0.36980 0.42010 0.37380 0.01100
C 	C 	0.34000 0.01610 0.69520 0.31000
C 	C 	0.33890 0.14060 0.65390 -0.07100
C 	C 	0.34080 0.26110 0.68660 0.01500
H 	H 	0.34210 0.26410 0.73330 0.05200
C 	C 	0.34080 0.37710 0.65150 -0.07900
C 	C 	0.33670 0.37230 0.58030 -0.01000
H 	H 	0.33520 0.45030 0.55510 0.04600
C 	C 	0.33500 0.25190 0.54600 -0.03100
C 	C 	0.33570 0.13660 0.58320 -0.01100
H 	H 	0.33400 0.05570 0.56040 0.05100
C 	C 	0.35670 0.35230 0.45360 -0.15700
H 	H 	0.37430 0.42430 0.48890 0.09100
C 	C 	0.33320 0.24940 0.47150 0.10300
C 	C 	0.30970 0.14480 0.41660 -0.15800
H 	H 	0.29430 0.07160 0.42590 0.09400
