data_crystal

_cell_length_a 17.41000
_cell_length_b 6.74440
_cell_length_c 12.16460
_cell_angle_alpha 90.00000
_cell_angle_beta  90.00000
_cell_angle_gamma 90.00000

_symmetry_space_group_name_	'P 1'
_symmetry_space_group_name_H-M	'P 1'

loop_
_symmetry_equiv_pos_as_xyz
  x,y,z

loop_
_atom_site_label
_atom_site_type_symbol
_atom_site_fract_x
_atom_site_fract_y
_atom_site_fract_z
_atom_site_charge
O 	O 	0.07387 0.91692 0.88610 -0.43100
O 	O 	0.41090 0.91680 0.58881 -0.47500
C 	C 	0.27375 0.92810 0.70170 0.19100
H 	H 	0.29650 0.04760 0.68180 -0.11200
C 	C 	0.20571 0.92800 0.76060 0.14200
H 	H 	0.18280 0.04750 0.78020 -0.08300
O 	O 	0.42613 0.08308 0.38610 -0.57000
O 	O 	0.08910 0.08320 0.08881 -0.75200
C 	C 	0.22625 0.07190 0.20170 -0.14700
H 	H 	0.20350 0.95240 0.18180 0.13600
C 	C 	0.29429 0.07200 0.26060 -0.24400
H 	H 	0.31720 0.95250 0.28020 0.20000
O 	O 	0.92613 0.41692 0.11390 -0.46900
O 	O 	0.58910 0.41680 0.41119 -0.54800
C 	C 	0.72625 0.42810 0.29830 0.02000
H 	H 	0.70350 0.54760 0.31820 0.02500
C 	C 	0.79429 0.42800 0.23940 -0.08200
H 	H 	0.81720 0.54750 0.21980 0.07900
O 	O 	0.57387 0.58308 0.61390 -0.49800
O 	O 	0.91090 0.58320 0.91119 -0.36400
C 	C 	0.77375 0.57190 0.79830 0.02400
H 	H 	0.79650 0.45240 0.81820 0.05200
C 	C 	0.70571 0.57200 0.73940 0.01000
H 	H 	0.68280 0.45250 0.71980 0.05600
O 	O 	0.92613 0.08308 0.11390 -0.52600
O 	O 	0.58910 0.08320 0.41119 -0.60700
C 	C 	0.72625 0.07190 0.29830 -0.13400
H 	H 	0.70350 0.95240 0.31820 0.15600
C 	C 	0.79429 0.07200 0.23940 -0.23300
H 	H 	0.81720 0.95250 0.21980 0.20800
O 	O 	0.57387 0.91692 0.61390 -0.43200
O 	O 	0.91090 0.91680 0.91119 -0.30300
C 	C 	0.77375 0.92810 0.79830 0.17000
H 	H 	0.79650 0.04760 0.81820 -0.07400
C 	C 	0.70571 0.92800 0.73940 0.16200
H 	H 	0.68280 0.04750 0.71980 -0.07300
O 	O 	0.07387 0.58308 0.88610 -0.49700
O 	O 	0.41090 0.58320 0.58881 -0.54200
C 	C 	0.27375 0.57190 0.70170 0.03500
H 	H 	0.29650 0.45240 0.68180 0.02000
C 	C 	0.20571 0.57200 0.76060 -0.01200
H 	H 	0.18280 0.45250 0.78020 0.04900
O 	O 	0.42613 0.41692 0.38610 -0.51000
O 	O 	0.08910 0.41680 0.08881 -0.69100
C 	C 	0.22625 0.42810 0.20170 0.01200
H 	H 	0.20350 0.54760 0.18180 0.00000
C 	C 	0.29429 0.42800 0.26060 -0.08800
H 	H 	0.31720 0.54750 0.28020 0.06600
Ga	Ga	-0.00000 0.00000 -0.00000 2.06300
Ga	Ga	0.50000 0.00000 0.50000 2.16400
Ga	Ga	-0.00000 0.50000 -0.00000 2.08700
Ga	Ga	0.50000 0.50000 0.50000 2.18900
O 	O 	0.00563 0.75000 0.07130 -3.80300
H 	H 	0.01800 0.75000 0.11400 2.62900
C 	C 	0.38288 0.75000 0.61120 0.52100
C 	C 	0.30796 0.75000 0.67240 -0.17000
C 	C 	0.17169 0.75000 0.79030 -0.12300
C 	C 	0.10046 0.75000 0.86000 0.48300
O 	O 	0.49437 0.25000 0.57130 -3.30600
H 	H 	0.48200 0.25000 0.61400 2.33000
C 	C 	0.11712 0.25000 0.11120 0.46700
C 	C 	0.19204 0.25000 0.17240 -0.15100
C 	C 	0.32831 0.25000 0.29030 -0.03600
C 	C 	0.39954 0.25000 0.36000 0.41300
O 	O 	0.99437 0.25000 0.92870 -2.49500
H 	H 	0.98200 0.25000 0.88600 1.85300
C 	C 	0.61712 0.25000 0.38880 0.48100
C 	C 	0.69204 0.25000 0.32760 -0.11500
C 	C 	0.82831 0.25000 0.20970 -0.01400
C 	C 	0.89954 0.25000 0.14000 0.38200
O 	O 	0.50563 0.75000 0.42870 -3.20100
H 	H 	0.51800 0.75000 0.38600 2.28200
C 	C 	0.88288 0.75000 0.88880 0.50900
C 	C 	0.80796 0.75000 0.82760 -0.11200
C 	C 	0.67169 0.75000 0.70970 -0.11700
C 	C 	0.60046 0.75000 0.64000 0.47400
