data_crystal

_cell_length_a 9.52280
_cell_length_b 9.52280
_cell_length_c 17.47000
_cell_angle_alpha 90.00000
_cell_angle_beta  90.00000
_cell_angle_gamma 120.00000

_symmetry_space_group_name_	'P 1'
_symmetry_space_group_name_H-M	'P 1'

loop_
_symmetry_equiv_pos_as_xyz
  x,y,z

loop_
_atom_site_label
_atom_site_type_symbol
_atom_site_fract_x
_atom_site_fract_y
_atom_site_fract_z
_atom_site_charge
La	La	0.33333 0.66666 0.75000 1.65100
La	La	0.66667 0.33334 0.25000 1.64900
La	La	-0.00000 0.00000 -0.00000 1.46000
La	La	0.00000 0.00000 0.50000 1.49400
H 	H 	0.50300 0.67030 0.97570 0.10900
H 	H 	0.57530 0.59530 0.91860 0.10900
H 	H 	0.16730 0.49700 0.97570 0.07400
H 	H 	0.02000 0.42470 0.91860 0.04700
H 	H 	0.32970 0.83270 0.97570 0.07800
H 	H 	0.40470 0.98000 0.91860 0.10400
H 	H 	0.50300 0.67030 0.52430 0.11200
H 	H 	0.57530 0.59530 0.58140 0.11600
H 	H 	0.16730 0.49700 0.52430 0.07800
H 	H 	0.02000 0.42470 0.58140 0.05500
H 	H 	0.32970 0.83270 0.52430 0.08100
H 	H 	0.40470 0.98000 0.58140 0.11100
H 	H 	0.83270 0.32970 0.02430 0.06400
H 	H 	0.98000 0.40470 0.08140 0.09800
H 	H 	0.67030 0.50300 0.02430 0.09800
H 	H 	0.59530 0.57530 0.08140 0.10300
H 	H 	0.49700 0.16730 0.02430 0.06700
H 	H 	0.42470 0.02000 0.08140 0.04700
H 	H 	0.83270 0.32970 0.47570 0.07900
H 	H 	0.98000 0.40470 0.41860 0.11000
H 	H 	0.67030 0.50300 0.47570 0.11300
H 	H 	0.59530 0.57530 0.41860 0.11400
H 	H 	0.49700 0.16730 0.47570 0.08200
H 	H 	0.42470 0.02000 0.41860 0.05800
C 	C 	0.65030 0.83330 0.89470 0.39000
C 	C 	0.59980 0.69140 0.94790 -0.19800
C 	C 	0.18300 0.34970 0.89470 0.36300
C 	C 	0.09160 0.40020 0.94790 -0.13900
C 	C 	0.16670 0.81700 0.89470 0.37000
C 	C 	0.30860 0.90840 0.94790 -0.06300
C 	C 	0.65030 0.83330 0.60530 0.40100
C 	C 	0.59980 0.69140 0.55210 -0.25000
C 	C 	0.18300 0.34970 0.60530 0.37600
C 	C 	0.09160 0.40020 0.55210 -0.19700
C 	C 	0.16670 0.81700 0.60530 0.38300
C 	C 	0.30860 0.90840 0.55210 -0.11700
C 	C 	0.81700 0.16670 0.10530 0.37000
C 	C 	0.90840 0.30860 0.05210 -0.08000
C 	C 	0.83330 0.65030 0.10530 0.39200
C 	C 	0.69140 0.59980 0.05210 -0.23000
C 	C 	0.34970 0.18300 0.10530 0.37000
C 	C 	0.40020 0.09160 0.05210 -0.18300
C 	C 	0.81700 0.16670 0.39470 0.37900
C 	C 	0.90840 0.30860 0.44790 -0.10200
C 	C 	0.83330 0.65030 0.39470 0.40100
C 	C 	0.69140 0.59980 0.44790 -0.25000
C 	C 	0.34970 0.18300 0.39470 0.37900
C 	C 	0.40020 0.09160 0.44790 -0.20300
O 	O 	0.54910 0.82260 0.84510 -0.40000
O 	O 	0.78650 0.95900 0.90430 -0.25800
O 	O 	0.27350 0.45090 0.84510 -0.43300
O 	O 	0.17250 0.21350 0.90430 -0.39600
O 	O 	0.17740 0.72650 0.84510 -0.43100
O 	O 	0.04100 0.82750 0.90430 -0.36600
O 	O 	0.54910 0.82260 0.65490 -0.40500
O 	O 	0.78650 0.95900 0.59570 -0.27700
O 	O 	0.27350 0.45090 0.65490 -0.43900
O 	O 	0.17250 0.21350 0.59570 -0.41900
O 	O 	0.17740 0.72650 0.65490 -0.43700
O 	O 	0.04100 0.82750 0.59570 -0.38700
O 	O 	0.72650 0.17740 0.15490 -0.43300
O 	O 	0.82750 0.04100 0.09570 -0.37800
O 	O 	0.82260 0.54910 0.15490 -0.40400
O 	O 	0.95900 0.78650 0.09570 -0.27600
O 	O 	0.45090 0.27350 0.15490 -0.44000
O 	O 	0.21350 0.17250 0.09570 -0.42200
O 	O 	0.72650 0.17740 0.34510 -0.43500
O 	O 	0.82750 0.04100 0.40430 -0.37900
O 	O 	0.82260 0.54910 0.34510 -0.40500
O 	O 	0.95900 0.78650 0.40430 -0.27700
O 	O 	0.45090 0.27350 0.34510 -0.44100
O 	O 	0.21350 0.17250 0.40430 -0.42200
O 	O 	0.72720 0.72720 -0.00000 -0.16700
O 	O 	0.00000 0.27280 -0.00000 -0.34200
O 	O 	0.27280 0.00000 -0.00000 -0.33000
O 	O 	0.72720 0.72720 0.50000 -0.13000
O 	O 	0.00000 0.27280 0.50000 -0.30200
O 	O 	0.27280 0.00000 0.50000 -0.29200
