data_crystal

_cell_length_a 19.45610
_cell_length_b 12.51100
_cell_length_c 21.42020
_cell_angle_alpha 90.00000
_cell_angle_beta  90.00000
_cell_angle_gamma 90.00000

_symmetry_space_group_name_	'P 1'
_symmetry_space_group_name_H-M	'P 1'

loop_
_symmetry_equiv_pos_as_xyz
  x,y,z

loop_
_atom_site_label
_atom_site_type_symbol
_atom_site_fract_x
_atom_site_fract_y
_atom_site_fract_z
_atom_site_charge
Cu	Cu	0.23873 0.33517 0.26001 0.90500
Cu	Cu	0.43934 0.17062 0.38824 0.84800
C 	C 	0.41939 0.24901 0.16899 -0.07200
C 	C 	0.47938 0.25018 0.20519 -0.07000
C 	C 	0.54367 0.25424 0.17639 -0.05900
C 	C 	0.54840 0.25814 0.11115 -0.03700
C 	C 	0.48868 0.25701 0.07488 -0.05700
C 	C 	0.42403 0.25140 0.10377 -0.03300
C 	C 	0.34900 0.24510 0.19954 0.31800
C 	C 	0.47582 0.24484 0.27561 0.31900
C 	C 	0.60978 0.25512 0.21391 0.32600
C 	C 	0.61925 0.26035 0.08160 0.31000
C 	C 	0.49395 0.26088 0.00457 0.33900
C 	C 	0.35985 0.23994 0.06440 0.28200
O 	O 	0.31256 0.16490 0.19218 -0.37600
O 	O 	0.33302 0.32963 0.23021 -0.43800
O 	O 	0.43257 0.17749 0.29747 -0.46800
O 	O 	0.51442 0.30073 0.30761 -0.38900
O 	O 	0.62741 0.17709 0.24546 -0.35700
O 	O 	0.64444 0.34134 0.20812 -0.43000
O 	O 	0.65717 0.18022 0.09399 -0.30000
O 	O 	0.63667 0.33959 0.04997 -0.34100
O 	O 	0.53417 0.20122 0.97696 -0.33700
O 	O 	0.45442 0.33025 0.97829 -0.45500
O 	O 	0.36078 0.16475 0.02441 -0.30600
O 	O 	0.31039 0.30153 0.07456 -0.35600
O 	O 	0.20642 0.38505 0.17669 -1.35200
H 	H 	0.19650 0.34100 0.15210 0.61700
H 	H 	0.23650 0.41600 0.16280 0.63600
O 	O 	0.13338 0.23938 0.11239 -1.15300
H 	H 	0.11500 0.22300 0.14320 0.52200
H 	H 	0.10440 0.25400 0.08920 0.54600
O 	O 	0.24926 0.92073 0.98381 -0.93700
H 	H 	0.23730 0.87770 0.00820 0.43400
H 	H 	0.27800 0.89000 0.96460 0.45200
O 	O 	0.20000 0.03410 0.15654 -1.53700
H 	H 	0.17000 0.01600 0.18000 0.55100
H 	H 	0.21200 0.09000 0.17200 0.64500
O 	O 	0.09302 0.01354 0.03367 -0.88900
H 	H 	0.09300 0.05560 0.00600 0.42000
H 	H 	0.08150 0.96000 0.01700 0.42400
K 	K 	0.22480 0.11322 0.04310 0.38800
K 	K 	0.58295 0.49514 0.28884 0.65200
O 	O 	0.18630 0.98370 0.13280 0.42900
K 	K 	0.22960 0.10040 0.05990 0.39800
Cu	Cu	0.26127 0.66483 0.76001 0.90400
Cu	Cu	0.06066 0.82938 0.88824 0.84700
C 	C 	0.08061 0.75099 0.66899 -0.07300
C 	C 	0.02062 0.74982 0.70519 -0.07200
C 	C 	0.95633 0.74576 0.67639 -0.05900
C 	C 	0.95160 0.74186 0.61115 -0.03900
C 	C 	0.01132 0.74299 0.57488 -0.05700
C 	C 	0.07597 0.74860 0.60377 -0.03500
C 	C 	0.15100 0.75490 0.69954 0.31700
C 	C 	0.02418 0.75516 0.77561 0.31900
C 	C 	0.89022 0.74488 0.71391 0.32500
C 	C 	0.88075 0.73965 0.58160 0.30900
C 	C 	0.00605 0.73912 0.50457 0.32800
C 	C 	0.14015 0.76006 0.56440 0.28300
O 	O 	0.18744 0.83510 0.69218 -0.37800
O 	O 	0.16698 0.67037 0.73021 -0.43800
O 	O 	0.06743 0.82251 0.79747 -0.46900
O 	O 	0.98558 0.69927 0.80761 -0.39000
O 	O 	0.87259 0.82291 0.74546 -0.35500
O 	O 	0.85556 0.65866 0.70812 -0.43000
O 	O 	0.84283 0.81978 0.59399 -0.30100
O 	O 	0.86333 0.66041 0.54997 -0.34200
O 	O 	0.96583 0.79878 0.47696 -0.33000
O 	O 	0.04558 0.66975 0.47829 -0.45100
O 	O 	0.13922 0.83525 0.52441 -0.30800
O 	O 	0.18961 0.69847 0.57456 -0.35700
O 	O 	0.29358 0.61495 0.67669 -1.35200
H 	H 	0.30350 0.65900 0.65210 0.61700
H 	H 	0.26350 0.58400 0.66280 0.63600
O 	O 	0.36662 0.76062 0.61239 -1.15300
H 	H 	0.38500 0.77700 0.64320 0.52200
H 	H 	0.39560 0.74600 0.58920 0.54700
O 	O 	0.25074 0.07927 0.48381 -0.95300
H 	H 	0.26270 0.12230 0.50820 0.44600
H 	H 	0.22200 0.11000 0.46460 0.45700
O 	O 	0.30000 0.96590 0.65654 -1.58000
H 	H 	0.33000 0.98400 0.68000 0.55900
H 	H 	0.28800 0.91000 0.67200 0.66100
O 	O 	0.40698 0.98646 0.53367 -0.91400
H 	H 	0.40700 0.94440 0.50600 0.42700
H 	H 	0.41850 0.04000 0.51700 0.44100
K 	K 	0.27520 0.88678 0.54310 0.38800
K 	K 	0.91705 0.50486 0.78884 0.65200
O 	O 	0.31370 0.01630 0.63280 0.45600
K 	K 	0.27040 0.89960 0.55990 0.39700
Cu	Cu	0.76127 0.83517 0.23999 0.90400
Cu	Cu	0.56066 0.67062 0.11176 0.84600
C 	C 	0.58061 0.74901 0.33101 -0.07300
C 	C 	0.52062 0.75018 0.29481 -0.07100
C 	C 	0.45633 0.75424 0.32361 -0.06000
C 	C 	0.45160 0.75814 0.38885 -0.04000
C 	C 	0.51132 0.75701 0.42512 -0.05600
C 	C 	0.57597 0.75140 0.39623 -0.03500
C 	C 	0.65100 0.74510 0.30046 0.31800
C 	C 	0.52418 0.74484 0.22439 0.31800
C 	C 	0.39022 0.75512 0.28609 0.32500
C 	C 	0.38075 0.76035 0.41840 0.30900
C 	C 	0.50605 0.76088 0.49543 0.33100
C 	C 	0.64015 0.73994 0.43560 0.28300
O 	O 	0.68744 0.66490 0.30782 -0.37800
O 	O 	0.66698 0.82963 0.26979 -0.43800
O 	O 	0.56743 0.67749 0.20253 -0.46900
O 	O 	0.48558 0.80073 0.19239 -0.39000
O 	O 	0.37259 0.67709 0.25454 -0.35700
O 	O 	0.35556 0.84134 0.29188 -0.43100
O 	O 	0.34283 0.68022 0.40601 -0.30200
O 	O 	0.36333 0.83959 0.45003 -0.34300
O 	O 	0.46583 0.70122 0.52304 -0.33200
O 	O 	0.54558 0.83025 0.52171 -0.45100
O 	O 	0.63922 0.66475 0.47559 -0.30800
O 	O 	0.68961 0.80153 0.42544 -0.35600
O 	O 	0.79358 0.88505 0.32331 -1.35200
H 	H 	0.80350 0.84100 0.34790 0.61700
H 	H 	0.76350 0.91600 0.33720 0.63600
O 	O 	0.86662 0.73938 0.38761 -1.15400
H 	H 	0.88500 0.72300 0.35680 0.52200
H 	H 	0.89560 0.75400 0.41080 0.54700
O 	O 	0.75074 0.42073 0.51619 -0.95400
H 	H 	0.76270 0.37770 0.49180 0.44600
H 	H 	0.72200 0.39000 0.53540 0.45700
O 	O 	0.80000 0.53410 0.34346 -1.58200
H 	H 	0.83000 0.51600 0.32000 0.55900
H 	H 	0.78800 0.59000 0.32800 0.66200
O 	O 	0.90698 0.51354 0.46633 -0.91400
H 	H 	0.90700 0.55560 0.49400 0.42700
H 	H 	0.91850 0.46000 0.48300 0.44100
K 	K 	0.77520 0.61322 0.45690 0.38800
K 	K 	0.41705 0.99514 0.21116 0.65100
O 	O 	0.81370 0.48370 0.36720 0.45800
K 	K 	0.77040 0.60040 0.44010 0.39700
Cu	Cu	0.73873 0.16483 0.73999 0.90400
Cu	Cu	0.93934 0.32938 0.61176 0.84600
C 	C 	0.91939 0.25099 0.83101 -0.07300
C 	C 	0.97938 0.24982 0.79481 -0.07500
C 	C 	0.04367 0.24576 0.82361 -0.05600
C 	C 	0.04840 0.24186 0.88885 -0.03700
C 	C 	0.98868 0.24299 0.92512 -0.05800
C 	C 	0.92403 0.24860 0.89623 -0.03600
C 	C 	0.84900 0.25490 0.80046 0.31800
C 	C 	0.97582 0.25516 0.72439 0.31400
C 	C 	0.10978 0.24488 0.78609 0.32400
C 	C 	0.11925 0.23965 0.91840 0.30900
C 	C 	0.99395 0.23912 0.99543 0.31700
C 	C 	0.85985 0.26006 0.93560 0.28200
O 	O 	0.81256 0.33510 0.80782 -0.37800
O 	O 	0.83302 0.17037 0.76979 -0.43800
O 	O 	0.93257 0.32251 0.70253 -0.46900
O 	O 	0.01442 0.19927 0.69239 -0.38600
O 	O 	0.12741 0.32291 0.75454 -0.35600
O 	O 	0.14444 0.15866 0.79188 -0.43000
O 	O 	0.15717 0.31978 0.90601 -0.30100
O 	O 	0.13667 0.16041 0.95003 -0.34300
O 	O 	0.03417 0.29878 0.02304 -0.32600
O 	O 	0.95442 0.16975 0.02171 -0.44100
O 	O 	0.86078 0.33525 0.97559 -0.30900
O 	O 	0.81039 0.19847 0.92544 -0.35600
O 	O 	0.70642 0.11495 0.82331 -1.35300
H 	H 	0.69650 0.15900 0.84790 0.61700
H 	H 	0.73650 0.08400 0.83720 0.63600
O 	O 	0.63338 0.26062 0.88761 -1.15400
H 	H 	0.61500 0.27700 0.85680 0.52200
H 	H 	0.60440 0.24600 0.91080 0.54600
O 	O 	0.74926 0.57927 0.01619 -0.95200
H 	H 	0.73730 0.62230 0.99180 0.44500
H 	H 	0.77800 0.61000 0.03540 0.45600
O 	O 	0.70000 0.46590 0.84346 -1.58100
H 	H 	0.67000 0.48400 0.82000 0.55900
H 	H 	0.71200 0.41000 0.82800 0.66200
O 	O 	0.59302 0.48646 0.96633 -0.91400
H 	H 	0.59300 0.44440 0.99400 0.42600
H 	H 	0.58150 0.54000 0.98300 0.44100
K 	K 	0.72480 0.38678 0.95690 0.38800
K 	K 	0.08295 0.00486 0.71116 0.65200
O 	O 	0.68630 0.51630 0.86720 0.45700
K 	K 	0.72960 0.39960 0.94010 0.39700
Cu	Cu	0.76127 0.66483 0.73999 0.90400
Cu	Cu	0.56066 0.82938 0.61176 0.84700
C 	C 	0.58061 0.75099 0.83101 -0.07300
C 	C 	0.52062 0.74982 0.79481 -0.07100
C 	C 	0.45633 0.74576 0.82361 -0.06000
C 	C 	0.45160 0.74186 0.88885 -0.03800
C 	C 	0.51132 0.74299 0.92512 -0.05800
C 	C 	0.57597 0.74860 0.89623 -0.03400
C 	C 	0.65100 0.75490 0.80046 0.31700
C 	C 	0.52418 0.75516 0.72439 0.31800
C 	C 	0.39022 0.74488 0.78609 0.32500
C 	C 	0.38075 0.73965 0.91840 0.30900
C 	C 	0.50605 0.73912 0.99543 0.33900
C 	C 	0.64015 0.76006 0.93560 0.28200
O 	O 	0.68744 0.83510 0.80782 -0.37600
O 	O 	0.66698 0.67037 0.76979 -0.43800
O 	O 	0.56743 0.82251 0.70253 -0.46800
O 	O 	0.48558 0.69927 0.69239 -0.38900
O 	O 	0.37259 0.82291 0.75454 -0.35700
O 	O 	0.35556 0.65866 0.79188 -0.43000
O 	O 	0.34283 0.81978 0.90601 -0.30000
O 	O 	0.36333 0.66041 0.95003 -0.34100
O 	O 	0.46583 0.79878 0.02304 -0.33700
O 	O 	0.54558 0.66975 0.02171 -0.45500
O 	O 	0.63922 0.83525 0.97559 -0.30600
O 	O 	0.68961 0.69847 0.92544 -0.35600
O 	O 	0.79358 0.61495 0.82331 -1.35200
H 	H 	0.80350 0.65900 0.84790 0.61700
H 	H 	0.76350 0.58400 0.83720 0.63600
O 	O 	0.86662 0.76062 0.88761 -1.15300
H 	H 	0.88500 0.77700 0.85680 0.52200
H 	H 	0.89560 0.74600 0.91080 0.54600
O 	O 	0.75074 0.07927 0.01619 -0.93700
H 	H 	0.76270 0.12230 0.99180 0.43400
H 	H 	0.72200 0.11000 0.03540 0.45200
O 	O 	0.80000 0.96590 0.84346 -1.53700
H 	H 	0.83000 0.98400 0.82000 0.55100
H 	H 	0.78800 0.91000 0.82800 0.64500
O 	O 	0.90698 0.98646 0.96633 -0.88900
H 	H 	0.90700 0.94440 0.99400 0.42000
H 	H 	0.91850 0.04000 0.98300 0.42400
K 	K 	0.77520 0.88678 0.95690 0.38800
K 	K 	0.41705 0.50486 0.71116 0.65200
O 	O 	0.81370 0.01630 0.86720 0.42900
K 	K 	0.77040 0.89960 0.94010 0.39800
Cu	Cu	0.73873 0.33517 0.23999 0.90400
Cu	Cu	0.93934 0.17062 0.11176 0.84700
C 	C 	0.91939 0.24901 0.33101 -0.07300
C 	C 	0.97938 0.25018 0.29481 -0.07200
C 	C 	0.04367 0.25424 0.32361 -0.05900
C 	C 	0.04840 0.25814 0.38885 -0.03900
C 	C 	0.98868 0.25701 0.42512 -0.05700
C 	C 	0.92403 0.25140 0.39623 -0.03500
C 	C 	0.84900 0.24510 0.30046 0.31700
C 	C 	0.97582 0.24484 0.22439 0.31900
C 	C 	0.10978 0.25512 0.28609 0.32500
C 	C 	0.11925 0.26035 0.41840 0.30900
C 	C 	0.99395 0.26088 0.49543 0.32800
C 	C 	0.85985 0.23994 0.43560 0.28300
O 	O 	0.81256 0.16490 0.30782 -0.37800
O 	O 	0.83302 0.32963 0.26979 -0.43800
O 	O 	0.93257 0.17749 0.20253 -0.46900
O 	O 	0.01442 0.30073 0.19239 -0.39000
O 	O 	0.12741 0.17709 0.25454 -0.35500
O 	O 	0.14444 0.34134 0.29188 -0.43000
O 	O 	0.15717 0.18022 0.40601 -0.30100
O 	O 	0.13667 0.33959 0.45003 -0.34200
O 	O 	0.03417 0.20122 0.52304 -0.33000
O 	O 	0.95442 0.33025 0.52171 -0.45100
O 	O 	0.86078 0.16475 0.47559 -0.30800
O 	O 	0.81039 0.30153 0.42544 -0.35700
O 	O 	0.70642 0.38505 0.32331 -1.35200
H 	H 	0.69650 0.34100 0.34790 0.61700
H 	H 	0.73650 0.41600 0.33720 0.63600
O 	O 	0.63338 0.23938 0.38761 -1.15300
H 	H 	0.61500 0.22300 0.35680 0.52200
H 	H 	0.60440 0.25400 0.41080 0.54700
O 	O 	0.74926 0.92073 0.51619 -0.95300
H 	H 	0.73730 0.87770 0.49180 0.44600
H 	H 	0.77800 0.89000 0.53540 0.45700
O 	O 	0.70000 0.03410 0.34346 -1.58000
H 	H 	0.67000 0.01600 0.32000 0.55900
H 	H 	0.71200 0.09000 0.32800 0.66100
O 	O 	0.59302 0.01354 0.46633 -0.91400
H 	H 	0.59300 0.05560 0.49400 0.42700
H 	H 	0.58150 0.96000 0.48300 0.44100
K 	K 	0.72480 0.11322 0.45690 0.38800
K 	K 	0.08295 0.49514 0.21116 0.65200
O 	O 	0.68630 0.98370 0.36720 0.45600
K 	K 	0.72960 0.10040 0.44010 0.39700
Cu	Cu	0.23873 0.16483 0.76001 0.90400
Cu	Cu	0.43934 0.32938 0.88824 0.84600
C 	C 	0.41939 0.25099 0.66899 -0.07300
C 	C 	0.47938 0.24982 0.70519 -0.07100
C 	C 	0.54367 0.24576 0.67639 -0.06000
C 	C 	0.54840 0.24186 0.61115 -0.04000
C 	C 	0.48868 0.24299 0.57488 -0.05600
C 	C 	0.42403 0.24860 0.60377 -0.03500
C 	C 	0.34900 0.25490 0.69954 0.31800
C 	C 	0.47582 0.25516 0.77561 0.31800
C 	C 	0.60978 0.24488 0.71391 0.32500
C 	C 	0.61925 0.23965 0.58160 0.30900
C 	C 	0.49395 0.23912 0.50457 0.33100
C 	C 	0.35985 0.26006 0.56440 0.28300
O 	O 	0.31256 0.33510 0.69218 -0.37800
O 	O 	0.33302 0.17037 0.73021 -0.43800
O 	O 	0.43257 0.32251 0.79747 -0.46900
O 	O 	0.51442 0.19927 0.80761 -0.39000
O 	O 	0.62741 0.32291 0.74546 -0.35700
O 	O 	0.64444 0.15866 0.70812 -0.43100
O 	O 	0.65717 0.31978 0.59399 -0.30200
O 	O 	0.63667 0.16041 0.54997 -0.34300
O 	O 	0.53417 0.29878 0.47696 -0.33200
O 	O 	0.45442 0.16975 0.47829 -0.45100
O 	O 	0.36078 0.33525 0.52441 -0.30800
O 	O 	0.31039 0.19847 0.57456 -0.35600
O 	O 	0.20642 0.11495 0.67669 -1.35200
H 	H 	0.19650 0.15900 0.65210 0.61700
H 	H 	0.23650 0.08400 0.66280 0.63600
O 	O 	0.13338 0.26062 0.61239 -1.15400
H 	H 	0.11500 0.27700 0.64320 0.52200
H 	H 	0.10440 0.24600 0.58920 0.54700
O 	O 	0.24926 0.57927 0.48381 -0.95400
H 	H 	0.23730 0.62230 0.50820 0.44600
H 	H 	0.27800 0.61000 0.46460 0.45700
O 	O 	0.20000 0.46590 0.65654 -1.58200
H 	H 	0.17000 0.48400 0.68000 0.55900
H 	H 	0.21200 0.41000 0.67200 0.66200
O 	O 	0.09302 0.48646 0.53367 -0.91400
H 	H 	0.09300 0.44440 0.50600 0.42700
H 	H 	0.08150 0.54000 0.51700 0.44100
K 	K 	0.22480 0.38678 0.54310 0.38800
K 	K 	0.58295 0.00486 0.78884 0.65100
O 	O 	0.18630 0.51630 0.63280 0.45800
K 	K 	0.22960 0.39960 0.55990 0.39700
Cu	Cu	0.26127 0.83517 0.26001 0.90400
Cu	Cu	0.06066 0.67062 0.38824 0.84600
C 	C 	0.08061 0.74901 0.16899 -0.07300
C 	C 	0.02062 0.75018 0.20519 -0.07500
C 	C 	0.95633 0.75424 0.17639 -0.05600
C 	C 	0.95160 0.75814 0.11115 -0.03700
C 	C 	0.01132 0.75701 0.07488 -0.05800
C 	C 	0.07597 0.75140 0.10377 -0.03600
C 	C 	0.15100 0.74510 0.19954 0.31800
C 	C 	0.02418 0.74484 0.27561 0.31400
C 	C 	0.89022 0.75512 0.21391 0.32400
C 	C 	0.88075 0.76035 0.08160 0.30900
C 	C 	0.00605 0.76088 0.00457 0.31700
C 	C 	0.14015 0.73994 0.06440 0.28200
O 	O 	0.18744 0.66490 0.19218 -0.37800
O 	O 	0.16698 0.82963 0.23021 -0.43800
O 	O 	0.06743 0.67749 0.29747 -0.46900
O 	O 	0.98558 0.80073 0.30761 -0.38600
O 	O 	0.87259 0.67709 0.24546 -0.35600
O 	O 	0.85556 0.84134 0.20812 -0.43000
O 	O 	0.84283 0.68022 0.09399 -0.30100
O 	O 	0.86333 0.83959 0.04997 -0.34300
O 	O 	0.96583 0.70122 0.97696 -0.32600
O 	O 	0.04558 0.83025 0.97829 -0.44100
O 	O 	0.13922 0.66475 0.02441 -0.30900
O 	O 	0.18961 0.80153 0.07456 -0.35600
O 	O 	0.29358 0.88505 0.17669 -1.35300
H 	H 	0.30350 0.84100 0.15210 0.61700
H 	H 	0.26350 0.91600 0.16280 0.63600
O 	O 	0.36662 0.73938 0.11239 -1.15400
H 	H 	0.38500 0.72300 0.14320 0.52200
H 	H 	0.39560 0.75400 0.08920 0.54600
O 	O 	0.25074 0.42073 0.98381 -0.95200
H 	H 	0.26270 0.37770 0.00820 0.44500
H 	H 	0.22200 0.39000 0.96460 0.45600
O 	O 	0.30000 0.53410 0.15654 -1.58100
H 	H 	0.33000 0.51600 0.18000 0.55900
H 	H 	0.28800 0.59000 0.17200 0.66200
O 	O 	0.40698 0.51354 0.03367 -0.91400
H 	H 	0.40700 0.55560 0.00600 0.42600
H 	H 	0.41850 0.46000 0.01700 0.44100
K 	K 	0.27520 0.61322 0.04310 0.38800
K 	K 	0.91705 0.99514 0.28884 0.65200
O 	O 	0.31370 0.48370 0.13280 0.45700
K 	K 	0.27040 0.60040 0.05990 0.39700
