data_crystal

_cell_length_a 15.93460
_cell_length_b 7.40390
_cell_length_c 16.20920
_cell_angle_alpha 90.00000
_cell_angle_beta  111.88500
_cell_angle_gamma 90.00000

_symmetry_space_group_name_	'P 1'
_symmetry_space_group_name_H-M	'P 1'

loop_
_symmetry_equiv_pos_as_xyz
  x,y,z

loop_
_atom_site_label
_atom_site_type_symbol
_atom_site_fract_x
_atom_site_fract_y
_atom_site_fract_z
_atom_site_charge
P 	P 	0.13700 0.27660 0.69000 0.55300
P 	P 	0.41660 0.31870 0.66630 0.55400
P 	P 	0.43390 0.24920 0.38930 0.57000
P 	P 	0.21890 0.83230 0.46830 0.52600
O 	O 	0.41060 0.43660 0.41230 -0.51200
O 	O 	0.28110 0.72810 0.43290 -0.48700
O 	O 	0.35710 0.46590 0.60110 -0.66400
O 	O 	0.46370 0.77780 0.56000 -0.66400
O 	O 	0.35680 0.21520 0.70360 -0.51400
O 	O 	0.15600 0.09640 0.65370 -0.49100
O 	O 	0.19180 0.28200 0.79190 -0.66200
O 	O 	0.27780 0.98100 0.53370 -0.62200
O 	O 	0.16500 0.43850 0.64890 -0.50000
O 	O 	0.18050 0.71020 0.52230 -0.47600
O 	O 	0.45920 0.19980 0.61630 -0.50700
O 	O 	0.38340 0.09950 0.41440 -0.47800
O 	O 	0.41100 0.23640 0.28950 -0.44500
O 	O 	0.03630 0.29520 0.67180 -0.44500
O 	O 	0.49130 0.41020 0.74220 -0.43700
O 	O 	0.14360 0.92640 0.39420 -0.41000
Zn	Zn	0.38239 0.56950 0.49910 1.21600
Zn	Zn	0.27152 0.02330 0.65319 1.21600
Zn	Zn	0.24494 0.07410 0.87277 1.21400
Zn	Zn	0.40192 0.01400 0.53171 1.21400
Zn	Zn	0.95924 0.14740 0.71148 1.23800
P 	P 	0.36300 0.77660 0.81000 0.55300
P 	P 	0.08340 0.81870 0.83370 0.55400
P 	P 	0.06610 0.74920 0.11070 0.56700
P 	P 	0.28110 0.33230 0.03170 0.52200
O 	O 	0.08940 0.93660 0.08770 -0.51200
O 	O 	0.21890 0.22810 0.06710 -0.48900
O 	O 	0.14290 0.96590 0.89890 -0.65700
O 	O 	0.03630 0.27780 0.94000 -0.66200
O 	O 	0.14320 0.71520 0.79640 -0.51200
O 	O 	0.34400 0.59640 0.84630 -0.48700
O 	O 	0.30820 0.78200 0.70810 -0.65900
O 	O 	0.22220 0.48100 0.96630 -0.62200
O 	O 	0.33500 0.93850 0.85110 -0.49600
O 	O 	0.31950 0.21020 0.97770 -0.47500
O 	O 	0.04080 0.69980 0.88370 -0.50300
O 	O 	0.11660 0.59950 0.08560 -0.48000
O 	O 	0.08900 0.73640 0.21050 -0.44600
O 	O 	0.46370 0.79520 0.82820 -0.44200
O 	O 	0.00870 0.91020 0.75780 -0.43200
O 	O 	0.35640 0.42640 0.10580 -0.41100
Zn	Zn	0.11761 0.06950 0.00090 1.21300
Zn	Zn	0.22848 0.52330 0.84681 1.21800
Zn	Zn	0.25506 0.57410 0.62723 1.21600
Zn	Zn	0.09808 0.51400 0.96829 1.21700
Zn	Zn	0.54076 0.64740 0.78852 1.23800
P 	P 	0.86300 0.72340 0.31000 0.55300
P 	P 	0.58340 0.68130 0.33370 0.55400
P 	P 	0.56610 0.75080 0.61070 0.57000
P 	P 	0.78110 0.16770 0.53170 0.52600
O 	O 	0.58940 0.56340 0.58770 -0.51200
O 	O 	0.71890 0.27190 0.56710 -0.48700
O 	O 	0.64290 0.53410 0.39890 -0.66400
O 	O 	0.53630 0.22220 0.44000 -0.66400
O 	O 	0.64320 0.78480 0.29640 -0.51400
O 	O 	0.84400 0.90360 0.34630 -0.49100
O 	O 	0.80820 0.71800 0.20810 -0.66200
O 	O 	0.72220 0.01900 0.46630 -0.62200
O 	O 	0.83500 0.56150 0.35110 -0.50000
O 	O 	0.81950 0.28980 0.47770 -0.47600
O 	O 	0.54080 0.80020 0.38370 -0.50700
O 	O 	0.61660 0.90050 0.58560 -0.47800
O 	O 	0.58900 0.76360 0.71050 -0.44500
O 	O 	0.96370 0.70480 0.32820 -0.44500
O 	O 	0.50870 0.58980 0.25780 -0.43700
O 	O 	0.85640 0.07360 0.60580 -0.41000
Zn	Zn	0.61761 0.43050 0.50090 1.21600
Zn	Zn	0.72848 0.97670 0.34681 1.21600
Zn	Zn	0.75506 0.92590 0.12723 1.21400
Zn	Zn	0.59808 0.98600 0.46829 1.21400
Zn	Zn	0.04076 0.85260 0.28852 1.23800
P 	P 	0.63700 0.22340 0.19000 0.55300
P 	P 	0.91660 0.18130 0.16630 0.55400
P 	P 	0.93390 0.25080 0.88930 0.56700
P 	P 	0.71890 0.66770 0.96830 0.52200
O 	O 	0.91060 0.06340 0.91230 -0.51200
O 	O 	0.78110 0.77190 0.93290 -0.48900
O 	O 	0.85710 0.03410 0.10110 -0.65700
O 	O 	0.96370 0.72220 0.06000 -0.66200
O 	O 	0.85680 0.28480 0.20360 -0.51200
O 	O 	0.65600 0.40360 0.15370 -0.48700
O 	O 	0.69180 0.21800 0.29190 -0.65900
O 	O 	0.77780 0.51900 0.03370 -0.62200
O 	O 	0.66500 0.06150 0.14890 -0.49600
O 	O 	0.68050 0.78980 0.02230 -0.47500
O 	O 	0.95920 0.30020 0.11630 -0.50300
O 	O 	0.88340 0.40050 0.91440 -0.48000
O 	O 	0.91100 0.26360 0.78950 -0.44600
O 	O 	0.53630 0.20480 0.17180 -0.44200
O 	O 	0.99130 0.08980 0.24220 -0.43200
O 	O 	0.64360 0.57360 0.89420 -0.41100
Zn	Zn	0.88239 0.93050 0.99910 1.21300
Zn	Zn	0.77152 0.47670 0.15319 1.21800
Zn	Zn	0.74494 0.42590 0.37277 1.21600
Zn	Zn	0.90192 0.48600 0.03171 1.21700
Zn	Zn	0.45924 0.35260 0.21148 1.23800
