data_crystal

_cell_length_a 6.84190
_cell_length_b 12.08770
_cell_length_c 14.20700
_cell_angle_alpha 90.00000
_cell_angle_beta  122.54700
_cell_angle_gamma 90.00000

_symmetry_space_group_name_	'P 1'
_symmetry_space_group_name_H-M	'P 1'

loop_
_symmetry_equiv_pos_as_xyz
  x,y,z

loop_
_atom_site_label
_atom_site_type_symbol
_atom_site_fract_x
_atom_site_fract_y
_atom_site_fract_z
_atom_site_charge
O 	O 	0.24705 0.40015 0.11591 -0.77300
O 	O 	0.53844 0.36877 0.08438 -0.72400
O 	O 	0.45060 0.09330 0.37967 -0.84600
O 	O 	0.78276 0.11334 0.39942 -0.66700
C 	C 	0.42977 0.34699 0.13382 0.42300
C 	C 	0.55444 0.26496 0.22203 -0.12300
C 	C 	0.45578 0.22792 0.27381 -0.20800
C 	C 	0.57869 0.14099 0.36040 0.64500
H 	H 	0.72968 0.23217 0.24306 0.09900
H 	H 	0.27772 0.25787 0.25162 0.02200
O 	O 	0.81988 0.48269 0.05985 -1.09900
H 	H 	0.92295 0.52558 0.13066 0.29700
O 	O 	0.75295 0.90015 0.38409 -0.39000
O 	O 	0.46156 0.86877 0.41562 -0.54100
O 	O 	0.54940 0.59330 0.12033 -0.79300
O 	O 	0.21724 0.61334 0.10058 -0.90500
C 	C 	0.57023 0.84699 0.36618 0.41600
C 	C 	0.44556 0.76496 0.27797 -0.03200
C 	C 	0.54422 0.72792 0.22619 -0.23200
C 	C 	0.42131 0.64099 0.13960 0.69000
H 	H 	0.27032 0.73217 0.25694 0.01000
H 	H 	0.72228 0.75787 0.24838 0.16800
O 	O 	0.18012 0.98269 0.44015 -0.65800
H 	H 	0.07705 0.02558 0.36934 -0.19000
O 	O 	0.75295 0.59985 0.88409 -0.41000
O 	O 	0.46156 0.63123 0.91562 -0.47900
O 	O 	0.54940 0.90670 0.62033 -0.57900
O 	O 	0.21724 0.88666 0.60058 -0.70700
C 	C 	0.57023 0.65301 0.86618 0.43600
C 	C 	0.44556 0.73504 0.77797 -0.02500
C 	C 	0.54422 0.77208 0.72619 -0.15700
C 	C 	0.42131 0.85901 0.63960 0.65400
H 	H 	0.27032 0.76783 0.75694 0.05700
H 	H 	0.72228 0.74213 0.74838 0.18700
O 	O 	0.18012 0.51731 0.94015 -0.84500
H 	H 	0.07705 0.47442 0.86934 0.09900
O 	O 	0.24705 0.09985 0.61591 -0.79700
O 	O 	0.53844 0.13123 0.58438 -0.66500
O 	O 	0.45060 0.40670 0.87967 -0.63400
O 	O 	0.78276 0.38666 0.89942 -0.47800
C 	C 	0.42977 0.15301 0.63382 0.44500
C 	C 	0.55444 0.23504 0.72203 -0.11600
C 	C 	0.45578 0.27208 0.77381 -0.13400
C 	C 	0.57869 0.35901 0.86040 0.60900
H 	H 	0.72968 0.26783 0.74306 0.14300
H 	H 	0.27772 0.24213 0.75162 0.04200
O 	O 	0.81988 0.01731 0.55985 -1.27400
H 	H 	0.92295 0.97442 0.63066 0.57200
Al	Al	0.50000 0.50000 -0.00000 2.37700
Al	Al	0.50000 0.00000 0.50000 2.37800
Al	Al	-0.00000 0.50000 -0.00000 2.35600
Al	Al	-0.00000 0.00000 0.50000 2.35600
