data_crystal

_cell_length_a 14.19500
_cell_length_b 14.64400
_cell_length_c 29.17500
_cell_angle_alpha 90.00000
_cell_angle_beta  90.00000
_cell_angle_gamma 90.00000

_symmetry_space_group_name_	'P 1'
_symmetry_space_group_name_H-M	'P 1'

loop_
_symmetry_equiv_pos_as_xyz
  x,y,z

loop_
_atom_site_label
_atom_site_type_symbol
_atom_site_fract_x
_atom_site_fract_y
_atom_site_fract_z
_atom_site_charge
N 	N 	0.25970 0.15130 0.45120 -0.24100
N 	N 	0.25710 0.14970 0.29860 -0.24100
C 	C 	0.26650 0.09590 0.42360 -0.03000
C 	C 	0.26540 0.09550 0.32630 -0.02900
C 	C 	0.04830 0.17400 0.25760 -0.00200
H 	H 	0.08030 0.11820 0.26330 0.00100
N 	N 	0.25970 0.65130 0.95120 -0.22000
N 	N 	0.25710 0.64970 0.79860 -0.23800
C 	C 	0.26650 0.59590 0.92360 -0.00600
C 	C 	0.26540 0.59550 0.82630 -0.01500
C 	C 	0.04830 0.67400 0.75760 0.00000
H 	H 	0.08030 0.61820 0.76330 0.01000
N 	N 	0.75970 0.15130 0.95120 -0.22200
N 	N 	0.75710 0.14970 0.79860 -0.24000
C 	C 	0.76650 0.09590 0.92360 -0.01700
C 	C 	0.76540 0.09550 0.82630 -0.02600
C 	C 	0.54830 0.17400 0.75760 -0.00200
H 	H 	0.58030 0.11820 0.76330 0.00200
N 	N 	0.75970 0.65130 0.45120 -0.23800
N 	N 	0.75710 0.64970 0.29860 -0.23800
C 	C 	0.76650 0.59590 0.42360 -0.02000
C 	C 	0.76540 0.59550 0.32630 -0.01800
C 	C 	0.54830 0.67400 0.25760 -0.00000
H 	H 	0.58030 0.61820 0.26330 0.00900
N 	N 	0.74030 0.84870 0.45120 -0.24300
N 	N 	0.74290 0.85030 0.29860 -0.24300
C 	C 	0.73350 0.90410 0.42360 0.01600
C 	C 	0.73460 0.90450 0.32630 0.01800
C 	C 	0.95170 0.82600 0.25760 0.00100
H 	H 	0.91970 0.88180 0.26330 0.01800
N 	N 	0.74030 0.34870 0.95120 -0.22100
N 	N 	0.74290 0.35030 0.79860 -0.23800
C 	C 	0.73350 0.40410 0.92360 -0.00700
C 	C 	0.73460 0.40450 0.82630 -0.01600
C 	C 	0.95170 0.32600 0.75760 -0.00100
H 	H 	0.91970 0.38180 0.76330 0.01000
N 	N 	0.24030 0.84870 0.95120 -0.22500
N 	N 	0.24290 0.85030 0.79860 -0.24300
C 	C 	0.23350 0.90410 0.92360 0.02900
C 	C 	0.23460 0.90450 0.82630 0.02100
C 	C 	0.45170 0.82600 0.75760 0.00200
H 	H 	0.41970 0.88180 0.76330 0.01900
N 	N 	0.24030 0.34870 0.45120 -0.23900
N 	N 	0.24290 0.35030 0.29860 -0.23900
C 	C 	0.23350 0.40410 0.42360 -0.02100
C 	C 	0.23460 0.40450 0.32630 -0.01900
C 	C 	0.45170 0.32600 0.25760 -0.00200
H 	H 	0.41970 0.38180 0.26330 0.00900
N 	N 	0.74030 0.15130 0.54880 -0.24000
N 	N 	0.74290 0.14970 0.70140 -0.24000
C 	C 	0.73350 0.09590 0.57640 -0.03100
C 	C 	0.73460 0.09550 0.67370 -0.02900
C 	C 	0.95170 0.17400 0.74240 -0.00200
H 	H 	0.91970 0.11820 0.73670 0.00100
N 	N 	0.74030 0.65130 0.04880 -0.24100
N 	N 	0.74290 0.64970 0.20140 -0.23800
C 	C 	0.73350 0.59590 0.07640 -0.02200
C 	C 	0.73460 0.59550 0.17370 -0.01800
C 	C 	0.95170 0.67400 0.24240 -0.00000
H 	H 	0.91970 0.61820 0.23670 0.00900
N 	N 	0.24030 0.15130 0.04880 -0.24200
N 	N 	0.24290 0.14970 0.20140 -0.24000
C 	C 	0.23350 0.09590 0.07640 -0.03200
C 	C 	0.23460 0.09550 0.17370 -0.02900
C 	C 	0.45170 0.17400 0.24240 -0.00200
H 	H 	0.41970 0.11820 0.23670 0.00100
N 	N 	0.24030 0.65130 0.54880 -0.23800
N 	N 	0.24290 0.64970 0.70140 -0.23800
C 	C 	0.23350 0.59590 0.57640 -0.02000
C 	C 	0.23460 0.59550 0.67370 -0.01900
C 	C 	0.45170 0.67400 0.74240 0.00000
H 	H 	0.41970 0.61820 0.73670 0.00900
N 	N 	0.25970 0.84870 0.54880 -0.24300
N 	N 	0.25710 0.85030 0.70140 -0.24300
C 	C 	0.26650 0.90410 0.57640 0.01600
C 	C 	0.26540 0.90450 0.67370 0.01800
C 	C 	0.04830 0.82600 0.74240 0.00100
H 	H 	0.08030 0.88180 0.73670 0.01800
N 	N 	0.25970 0.34870 0.04880 -0.24100
N 	N 	0.25710 0.35030 0.20140 -0.23900
C 	C 	0.26650 0.40410 0.07640 -0.02300
C 	C 	0.26540 0.40450 0.17370 -0.01900
C 	C 	0.04830 0.32600 0.24240 -0.00200
H 	H 	0.08030 0.38180 0.23670 0.00900
N 	N 	0.75970 0.84870 0.04880 -0.24500
N 	N 	0.75710 0.85030 0.20140 -0.24300
C 	C 	0.76650 0.90410 0.07640 0.01400
C 	C 	0.76540 0.90450 0.17370 0.01800
C 	C 	0.54830 0.82600 0.24240 0.00100
H 	H 	0.58030 0.88180 0.23670 0.01800
N 	N 	0.75970 0.34870 0.54880 -0.23900
N 	N 	0.75710 0.35030 0.70140 -0.23900
C 	C 	0.76650 0.40410 0.57640 -0.02100
C 	C 	0.76540 0.40450 0.67370 -0.01900
C 	C 	0.54830 0.32600 0.74240 -0.00100
H 	H 	0.58030 0.38180 0.73670 0.00900
N 	N 	0.74030 0.84870 0.54880 -0.24300
N 	N 	0.74290 0.85030 0.70140 -0.24300
C 	C 	0.73350 0.90410 0.57640 0.01600
C 	C 	0.73460 0.90450 0.67370 0.01800
C 	C 	0.95170 0.82600 0.74240 0.00100
H 	H 	0.91970 0.88180 0.73670 0.01800
N 	N 	0.74030 0.34870 0.04880 -0.24100
N 	N 	0.74290 0.35030 0.20140 -0.23900
C 	C 	0.73350 0.40410 0.07640 -0.02300
C 	C 	0.73460 0.40450 0.17370 -0.01900
C 	C 	0.95170 0.32600 0.24240 -0.00200
H 	H 	0.91970 0.38180 0.23670 0.00900
N 	N 	0.24030 0.84870 0.04880 -0.24500
N 	N 	0.24290 0.85030 0.20140 -0.24300
C 	C 	0.23350 0.90410 0.07640 0.01400
C 	C 	0.23460 0.90450 0.17370 0.01800
C 	C 	0.45170 0.82600 0.24240 0.00100
H 	H 	0.41970 0.88180 0.23670 0.01800
N 	N 	0.24030 0.34870 0.54880 -0.23900
N 	N 	0.24290 0.35030 0.70140 -0.23900
C 	C 	0.23350 0.40410 0.57640 -0.02100
C 	C 	0.23460 0.40450 0.67370 -0.01900
C 	C 	0.45170 0.32600 0.74240 -0.00100
H 	H 	0.41970 0.38180 0.73670 0.00900
N 	N 	0.25970 0.15130 0.54880 -0.24000
N 	N 	0.25710 0.14970 0.70140 -0.24000
C 	C 	0.26650 0.09590 0.57640 -0.03100
C 	C 	0.26540 0.09550 0.67370 -0.02900
C 	C 	0.04830 0.17400 0.74240 -0.00200
H 	H 	0.08030 0.11820 0.73670 0.00100
N 	N 	0.25970 0.65130 0.04880 -0.24100
N 	N 	0.25710 0.64970 0.20140 -0.23800
C 	C 	0.26650 0.59590 0.07640 -0.02200
C 	C 	0.26540 0.59550 0.17370 -0.01800
C 	C 	0.04830 0.67400 0.24240 -0.00000
H 	H 	0.08030 0.61820 0.23670 0.00900
N 	N 	0.75970 0.15130 0.04880 -0.24200
N 	N 	0.75710 0.14970 0.20140 -0.24000
C 	C 	0.76650 0.09590 0.07640 -0.03200
C 	C 	0.76540 0.09550 0.17370 -0.02900
C 	C 	0.54830 0.17400 0.24240 -0.00200
H 	H 	0.58030 0.11820 0.23670 0.00100
N 	N 	0.75970 0.65130 0.54880 -0.23800
N 	N 	0.75710 0.64970 0.70140 -0.23800
C 	C 	0.76650 0.59590 0.57640 -0.02000
C 	C 	0.76540 0.59550 0.67370 -0.01900
C 	C 	0.54830 0.67400 0.74240 0.00000
H 	H 	0.58030 0.61820 0.73670 0.00900
N 	N 	0.25970 0.84870 0.45120 -0.24300
N 	N 	0.25710 0.85030 0.29860 -0.24300
C 	C 	0.26650 0.90410 0.42360 0.01600
C 	C 	0.26540 0.90450 0.32630 0.01800
C 	C 	0.04830 0.82600 0.25760 0.00100
H 	H 	0.08030 0.88180 0.26330 0.01800
N 	N 	0.25970 0.34870 0.95120 -0.22100
N 	N 	0.25710 0.35030 0.79860 -0.23800
C 	C 	0.26650 0.40410 0.92360 -0.00700
C 	C 	0.26540 0.40450 0.82630 -0.01600
C 	C 	0.04830 0.32600 0.75760 -0.00100
H 	H 	0.08030 0.38180 0.76330 0.01000
N 	N 	0.75970 0.84870 0.95120 -0.22500
N 	N 	0.75710 0.85030 0.79860 -0.24300
C 	C 	0.76650 0.90410 0.92360 0.02900
C 	C 	0.76540 0.90450 0.82630 0.02100
C 	C 	0.54830 0.82600 0.75760 0.00200
H 	H 	0.58030 0.88180 0.76330 0.01900
N 	N 	0.75970 0.34870 0.45120 -0.23900
N 	N 	0.75710 0.35030 0.29860 -0.23900
C 	C 	0.76650 0.40410 0.42360 -0.02100
C 	C 	0.76540 0.40450 0.32630 -0.01900
C 	C 	0.54830 0.32600 0.25760 -0.00200
H 	H 	0.58030 0.38180 0.26330 0.00900
N 	N 	0.74030 0.15130 0.45120 -0.24000
N 	N 	0.74290 0.14970 0.29860 -0.24000
C 	C 	0.73350 0.09590 0.42360 -0.03000
C 	C 	0.73460 0.09550 0.32630 -0.02900
C 	C 	0.95170 0.17400 0.25760 -0.00200
H 	H 	0.91970 0.11820 0.26330 0.00100
N 	N 	0.74030 0.65130 0.95120 -0.22000
N 	N 	0.74290 0.64970 0.79860 -0.23800
C 	C 	0.73350 0.59590 0.92360 -0.00600
C 	C 	0.73460 0.59550 0.82630 -0.01500
C 	C 	0.95170 0.67400 0.75760 0.00000
H 	H 	0.91970 0.61820 0.76330 0.01000
N 	N 	0.24030 0.15130 0.95120 -0.22200
N 	N 	0.24290 0.14970 0.79860 -0.24000
C 	C 	0.23350 0.09590 0.92360 -0.01700
C 	C 	0.23460 0.09550 0.82630 -0.02600
C 	C 	0.45170 0.17400 0.75760 -0.00200
H 	H 	0.41970 0.11820 0.76330 0.00200
N 	N 	0.24030 0.65130 0.45120 -0.23800
N 	N 	0.24290 0.64970 0.29860 -0.23800
C 	C 	0.23350 0.59590 0.42360 -0.02000
C 	C 	0.23460 0.59550 0.32630 -0.01800
C 	C 	0.45170 0.67400 0.25760 -0.00000
H 	H 	0.41970 0.61820 0.26330 0.00900
Pt	Pt	0.26950 0.00000 0.37497 0.24100
Pt	Pt	0.26950 0.50000 0.87497 0.29500
Pt	Pt	0.76950 0.00000 0.87497 0.24700
Pt	Pt	0.76950 0.50000 0.37497 0.29000
Pt	Pt	0.73050 0.00000 0.37497 0.24100
Pt	Pt	0.73050 0.50000 0.87497 0.29500
Pt	Pt	0.23050 0.00000 0.87497 0.24700
Pt	Pt	0.23050 0.50000 0.37497 0.29000
Pt	Pt	0.73050 0.00000 0.62503 0.24100
Pt	Pt	0.73050 0.50000 0.12503 0.29000
Pt	Pt	0.23050 0.00000 0.12503 0.24100
Pt	Pt	0.23050 0.50000 0.62503 0.29000
Pt	Pt	0.26950 0.00000 0.62503 0.24100
Pt	Pt	0.26950 0.50000 0.12503 0.29000
Pt	Pt	0.76950 0.00000 0.12503 0.24100
Pt	Pt	0.76950 0.50000 0.62503 0.29000
Fe	Fe	0.25000 0.25000 0.50000 1.14700
Fe	Fe	0.25000 0.75000 -0.00000 1.13600
Fe	Fe	0.75000 0.75000 0.50000 1.15000
Fe	Fe	0.75000 0.25000 -0.00000 1.13300
Fe	Fe	0.75000 0.25000 0.50000 1.14700
Fe	Fe	0.75000 0.75000 -0.00000 1.13600
Fe	Fe	0.25000 0.25000 -0.00000 1.13300
Fe	Fe	0.25000 0.75000 0.50000 1.15000
Fe	Fe	0.25000 0.25000 0.25000 1.14300
Fe	Fe	0.75000 0.75000 0.25000 1.14600
Fe	Fe	0.75000 0.25000 0.75000 1.14300
Fe	Fe	0.25000 0.75000 0.75000 1.14600
Fe	Fe	0.75000 0.75000 0.75000 1.14600
Fe	Fe	0.75000 0.25000 0.25000 1.14300
Fe	Fe	0.25000 0.75000 0.25000 1.14600
Fe	Fe	0.25000 0.25000 0.75000 1.14300
N 	N 	0.10210 0.24370 0.50000 -0.22000
C 	C 	0.04940 0.16720 0.50000 -0.00100
C 	C 	0.04950 0.32090 0.50000 -0.00300
H 	H 	0.08100 0.11000 0.50000 -0.00000
H 	H 	0.08130 0.37800 0.50000 0.01000
N 	N 	0.10210 0.74370 -0.00000 -0.22400
C 	C 	0.04940 0.66720 -0.00000 -0.00300
C 	C 	0.04950 0.82090 -0.00000 -0.00500
H 	H 	0.08100 0.61000 -0.00000 0.00200
H 	H 	0.08130 0.87800 -0.00000 0.01100
N 	N 	0.60210 0.24370 -0.00000 -0.22600
C 	C 	0.54940 0.16720 -0.00000 -0.00500
C 	C 	0.54950 0.32090 -0.00000 -0.00700
H 	H 	0.58100 0.11000 -0.00000 -0.00700
H 	H 	0.58130 0.37800 -0.00000 0.00300
N 	N 	0.60210 0.74370 0.50000 -0.21900
C 	C 	0.54940 0.66720 0.50000 0.00100
C 	C 	0.54950 0.82090 0.50000 -0.00000
H 	H 	0.58100 0.61000 0.50000 0.00800
H 	H 	0.58130 0.87800 0.50000 0.01900
N 	N 	0.89790 0.75630 0.50000 -0.21800
C 	C 	0.95060 0.83280 0.50000 0.00300
C 	C 	0.95050 0.67910 0.50000 -0.00100
H 	H 	0.91900 0.89000 0.50000 0.01800
H 	H 	0.91870 0.62200 0.50000 0.01000
N 	N 	0.89790 0.25630 -0.00000 -0.22600
C 	C 	0.95060 0.33280 -0.00000 -0.00400
C 	C 	0.95050 0.17910 -0.00000 -0.00800
H 	H 	0.91900 0.39000 -0.00000 0.00200
H 	H 	0.91870 0.12200 -0.00000 -0.00400
N 	N 	0.39790 0.75630 -0.00000 -0.22400
C 	C 	0.45060 0.83280 -0.00000 -0.00200
C 	C 	0.45050 0.67910 -0.00000 -0.00600
H 	H 	0.41900 0.89000 -0.00000 0.01200
H 	H 	0.41870 0.62200 -0.00000 0.00300
N 	N 	0.39790 0.25630 0.50000 -0.22000
C 	C 	0.45060 0.33280 0.50000 0.00000
C 	C 	0.45050 0.17910 0.50000 -0.00300
H 	H 	0.41900 0.39000 0.50000 0.00800
H 	H 	0.41870 0.12200 0.50000 0.00300
N 	N 	0.89790 0.24370 0.50000 -0.22000
C 	C 	0.95060 0.16720 0.50000 -0.00100
C 	C 	0.95050 0.32090 0.50000 -0.00300
H 	H 	0.91900 0.11000 0.50000 -0.00000
H 	H 	0.91870 0.37800 0.50000 0.01000
N 	N 	0.89790 0.74370 -0.00000 -0.22400
C 	C 	0.95060 0.66720 -0.00000 -0.00300
C 	C 	0.95050 0.82090 -0.00000 -0.00500
H 	H 	0.91900 0.61000 -0.00000 0.00200
H 	H 	0.91870 0.87800 -0.00000 0.01100
N 	N 	0.39790 0.24370 -0.00000 -0.22600
C 	C 	0.45060 0.16720 -0.00000 -0.00500
C 	C 	0.45050 0.32090 -0.00000 -0.00700
H 	H 	0.41900 0.11000 -0.00000 -0.00700
H 	H 	0.41870 0.37800 -0.00000 0.00300
N 	N 	0.39790 0.74370 0.50000 -0.21900
C 	C 	0.45060 0.66720 0.50000 0.00100
C 	C 	0.45050 0.82090 0.50000 -0.00000
H 	H 	0.41900 0.61000 0.50000 0.00800
H 	H 	0.41870 0.87800 0.50000 0.01900
N 	N 	0.10210 0.75630 0.50000 -0.21800
C 	C 	0.04940 0.83280 0.50000 0.00300
C 	C 	0.04950 0.67910 0.50000 -0.00100
H 	H 	0.08100 0.89000 0.50000 0.01800
H 	H 	0.08130 0.62200 0.50000 0.01000
N 	N 	0.10210 0.25630 -0.00000 -0.22600
C 	C 	0.04940 0.33280 -0.00000 -0.00400
C 	C 	0.04950 0.17910 -0.00000 -0.00800
H 	H 	0.08100 0.39000 -0.00000 0.00200
H 	H 	0.08130 0.12200 -0.00000 -0.00400
N 	N 	0.60210 0.75630 -0.00000 -0.22400
C 	C 	0.54940 0.83280 -0.00000 -0.00200
C 	C 	0.54950 0.67910 -0.00000 -0.00600
H 	H 	0.58100 0.89000 -0.00000 0.01200
H 	H 	0.58130 0.62200 -0.00000 0.00300
N 	N 	0.60210 0.25630 0.50000 -0.22000
C 	C 	0.54940 0.33280 0.50000 0.00000
C 	C 	0.54950 0.17910 0.50000 -0.00300
H 	H 	0.58100 0.39000 0.50000 0.00800
H 	H 	0.58130 0.12200 0.50000 0.00300
N 	N 	0.09990 0.25000 0.25000 -0.21700
N 	N 	0.59990 0.25000 0.75000 -0.21600
N 	N 	0.90010 0.75000 0.25000 -0.21500
N 	N 	0.40010 0.75000 0.75000 -0.21500
N 	N 	0.40010 0.25000 0.25000 -0.21700
N 	N 	0.90010 0.25000 0.75000 -0.21600
N 	N 	0.09990 0.75000 0.75000 -0.21500
N 	N 	0.59990 0.75000 0.25000 -0.21500
N 	N 	0.90010 0.75000 0.75000 -0.21500
N 	N 	0.90010 0.25000 0.25000 -0.21700
N 	N 	0.40010 0.75000 0.25000 -0.21500
N 	N 	0.09990 0.25000 0.75000 -0.21600
N 	N 	0.59990 0.25000 0.25000 -0.21700
N 	N 	0.09990 0.75000 0.25000 -0.21500
N 	N 	0.59990 0.75000 0.75000 -0.21500
N 	N 	0.40010 0.25000 0.75000 -0.21600
