data_crystal

_cell_length_a 11.56930
_cell_length_b 11.56930
_cell_length_c 56.23500
_cell_angle_alpha 90.00000
_cell_angle_beta  90.00000
_cell_angle_gamma 120.00000

_symmetry_space_group_name_	'P 1'
_symmetry_space_group_name_H-M	'P 1'

loop_
_symmetry_equiv_pos_as_xyz
  x,y,z

loop_
_atom_site_label
_atom_site_type_symbol
_atom_site_fract_x
_atom_site_fract_y
_atom_site_fract_z
_atom_site_charge
Cd	Cd	0.92350 0.28681 0.53216 1.17100
O 	O 	0.74950 0.18780 0.56049 -0.40100
O 	O 	0.80100 0.39580 0.55322 -0.35900
O 	O 	0.04200 0.50470 0.51517 -0.67300
H 	H 	0.05170 0.43760 0.51270 0.18500
H 	H 	0.00340 0.55010 0.51760 0.30400
N 	N 	0.08720 0.36410 0.55997 -0.27500
N 	N 	0.42730 0.58650 0.60173 -0.25700
H 	H 	0.50100 0.60800 0.59430 0.13300
N 	N 	0.54580 0.77850 0.66790 -0.27500
C 	C 	0.21170 0.42070 0.55156 0.11100
H 	H 	0.22340 0.41090 0.53510 -0.05200
C 	C 	0.32380 0.49230 0.56526 -0.21300
H 	H 	0.41000 0.52960 0.55830 0.10000
C 	C 	0.31000 0.51010 0.58970 0.20700
C 	C 	0.18010 0.44680 0.59856 -0.23800
H 	H 	0.16490 0.45110 0.61510 0.10700
C 	C 	0.07400 0.37820 0.58342 0.16400
H 	H 	0.98650 0.33850 0.58990 -0.05100
C 	C 	0.41550 0.70790 0.66233 0.11500
H 	H 	0.35310 0.70630 0.67350 -0.02100
C 	C 	0.36700 0.63800 0.64155 -0.21700
H 	H 	0.27360 0.58740 0.63880 0.11000
C 	C 	0.45700 0.64180 0.62435 0.19300
C 	C 	0.59210 0.71370 0.63028 -0.22500
H 	H 	0.65720 0.71750 0.61950 0.08400
C 	C 	0.63070 0.77880 0.65168 0.10600
H 	H 	0.72340 0.82700 0.65520 -0.08300
C 	C 	0.72700 0.28450 0.56223 0.30500
C 	C 	0.60010 0.25890 0.57401 -0.04600
C 	C 	0.47930 0.15870 0.56537 -0.02300
H 	H 	0.47900 0.10240 0.55310 0.04200
C 	C 	0.35800 0.13820 0.57425 -0.04200
H 	H 	0.27620 0.06930 0.56800 0.03600
Cd	Cd	0.71319 0.63669 0.86550 1.17700
O 	O 	0.81220 0.56170 0.89382 -0.39700
O 	O 	0.60420 0.40520 0.88655 -0.35100
O 	O 	0.49530 0.53730 0.84850 -0.67300
H 	H 	0.56240 0.61410 0.84603 0.17400
H 	H 	0.44990 0.45330 0.85093 0.29400
N 	N 	0.63590 0.72310 0.89330 -0.27200
N 	N 	0.41350 0.84080 0.93506 -0.25400
H 	H 	0.39200 0.89300 0.92763 0.12900
N 	N 	0.22150 0.76730 0.00123 -0.27500
C 	C 	0.57930 0.79100 0.88489 0.10300
H 	H 	0.58910 0.81250 0.86843 -0.05600
C 	C 	0.50770 0.83150 0.89859 -0.20500
H 	H 	0.47040 0.88040 0.89163 0.09300
C 	C 	0.48990 0.79990 0.92303 0.19100
C 	C 	0.55320 0.73330 0.93189 -0.20700
H 	H 	0.54890 0.71380 0.94843 0.09200
C 	C 	0.62180 0.69580 0.91675 0.10300
H 	H 	0.66150 0.64800 0.92323 -0.01300
C 	C 	0.29210 0.70760 0.99566 0.11400
H 	H 	0.29370 0.64680 0.00683 -0.02200
C 	C 	0.36200 0.72900 0.97488 -0.21700
H 	H 	0.41260 0.68620 0.97213 0.10900
C 	C 	0.35820 0.81520 0.95768 0.19000
C 	C 	0.28630 0.87840 0.96361 -0.22400
H 	H 	0.28250 0.93970 0.95283 0.08100
C 	C 	0.22120 0.85190 0.98501 0.10400
H 	H 	0.17300 0.89640 0.98853 -0.08200
C 	C 	0.71550 0.44250 0.89556 0.30300
C 	C 	0.74110 0.34120 0.90734 -0.04400
C 	C 	0.84130 0.32060 0.89870 -0.02200
H 	H 	0.89760 0.37660 0.88643 0.04300
C 	C 	0.86180 0.21980 0.90758 -0.04000
H 	H 	0.93070 0.20690 0.90133 0.03700
Cd	Cd	0.36331 0.07650 0.19883 1.17000
O 	O 	0.43830 0.25050 0.22716 -0.40500
O 	O 	0.59480 0.19900 0.21989 -0.35800
O 	O 	0.46270 0.95800 0.18184 -0.67400
H 	H 	0.38590 0.94830 0.17937 0.18200
H 	H 	0.54670 0.99660 0.18427 0.30300
N 	N 	0.27690 0.91280 0.22664 -0.27700
N 	N 	0.15920 0.57270 0.26840 -0.25700
H 	H 	0.10700 0.49900 0.26097 0.13100
N 	N 	0.23270 0.45420 0.33457 -0.27300
C 	C 	0.20900 0.78830 0.21823 0.11000
H 	H 	0.18750 0.77660 0.20177 -0.05500
C 	C 	0.16850 0.67620 0.23193 -0.21400
H 	H 	0.11960 0.59000 0.22497 0.09700
C 	C 	0.20010 0.69000 0.25637 0.20500
C 	C 	0.26670 0.81990 0.26523 -0.23800
H 	H 	0.28620 0.83510 0.28177 0.10600
C 	C 	0.30420 0.92600 0.25009 0.16300
H 	H 	0.35200 0.01350 0.25657 -0.05200
C 	C 	0.29240 0.58450 0.32900 0.11600
H 	H 	0.35320 0.64690 0.34017 -0.01900
C 	C 	0.27100 0.63300 0.30822 -0.21700
H 	H 	0.31380 0.72640 0.30547 0.11000
C 	C 	0.18480 0.54300 0.29102 0.19200
C 	C 	0.12160 0.40790 0.29695 -0.22300
H 	H 	0.06030 0.34280 0.28617 0.08300
C 	C 	0.14810 0.36930 0.31835 0.10700
H 	H 	0.10360 0.27660 0.32187 -0.07900
C 	C 	0.55750 0.27300 0.22890 0.30500
C 	C 	0.65880 0.39990 0.24068 -0.04700
C 	C 	0.67940 0.52070 0.23204 -0.02300
H 	H 	0.62340 0.52100 0.21977 0.04100
C 	C 	0.78020 0.64200 0.24092 -0.04300
H 	H 	0.79310 0.72380 0.23467 0.03600
Cd	Cd	0.07650 0.71319 0.03216 1.17000
O 	O 	0.25050 0.81220 0.06049 -0.40200
O 	O 	0.19900 0.60420 0.05322 -0.36000
O 	O 	0.95800 0.49530 0.01517 -0.67400
H 	H 	0.94830 0.56240 0.01270 0.18400
H 	H 	0.99660 0.44990 0.01760 0.30300
N 	N 	0.91280 0.63590 0.05997 -0.27600
N 	N 	0.57270 0.41350 0.10173 -0.25800
H 	H 	0.49900 0.39200 0.09430 0.13200
N 	N 	0.45420 0.22150 0.16790 -0.27600
C 	C 	0.78830 0.57930 0.05156 0.11100
H 	H 	0.77660 0.58910 0.03510 -0.05200
C 	C 	0.67620 0.50770 0.06526 -0.21300
H 	H 	0.59000 0.47040 0.05830 0.10000
C 	C 	0.69000 0.48990 0.08970 0.20700
C 	C 	0.81990 0.55320 0.09856 -0.23800
H 	H 	0.83510 0.54890 0.11510 0.10700
C 	C 	0.92600 0.62180 0.08342 0.16400
H 	H 	0.01350 0.66150 0.08990 -0.05100
C 	C 	0.58450 0.29210 0.16233 0.11500
H 	H 	0.64690 0.29370 0.17350 -0.02100
C 	C 	0.63300 0.36200 0.14155 -0.21700
H 	H 	0.72640 0.41260 0.13880 0.11000
C 	C 	0.54300 0.35820 0.12435 0.19300
C 	C 	0.40790 0.28630 0.13028 -0.22500
H 	H 	0.34280 0.28250 0.11950 0.08400
C 	C 	0.36930 0.22120 0.15168 0.10600
H 	H 	0.27660 0.17300 0.15520 -0.08300
C 	C 	0.27300 0.71550 0.06223 0.30500
C 	C 	0.39990 0.74110 0.07401 -0.04600
C 	C 	0.52070 0.84130 0.06537 -0.02300
H 	H 	0.52100 0.89760 0.05310 0.04200
C 	C 	0.64200 0.86180 0.07425 -0.04200
H 	H 	0.72380 0.93070 0.06800 0.03600
Cd	Cd	0.28681 0.36331 0.36550 1.17700
O 	O 	0.18780 0.43830 0.39382 -0.39700
O 	O 	0.39580 0.59480 0.38655 -0.35100
O 	O 	0.50470 0.46270 0.34850 -0.67300
H 	H 	0.43760 0.38590 0.34603 0.17400
H 	H 	0.55010 0.54670 0.35093 0.29400
N 	N 	0.36410 0.27690 0.39330 -0.27200
N 	N 	0.58650 0.15920 0.43506 -0.25400
H 	H 	0.60800 0.10700 0.42763 0.12900
N 	N 	0.77850 0.23270 0.50123 -0.27500
C 	C 	0.42070 0.20900 0.38489 0.10300
H 	H 	0.41090 0.18750 0.36843 -0.05600
C 	C 	0.49230 0.16850 0.39859 -0.20500
H 	H 	0.52960 0.11960 0.39163 0.09300
C 	C 	0.51010 0.20010 0.42303 0.19100
C 	C 	0.44680 0.26670 0.43189 -0.20700
H 	H 	0.45110 0.28620 0.44843 0.09200
C 	C 	0.37820 0.30420 0.41675 0.10300
H 	H 	0.33850 0.35200 0.42323 -0.01300
C 	C 	0.70790 0.29240 0.49566 0.11400
H 	H 	0.70630 0.35320 0.50683 -0.02200
C 	C 	0.63800 0.27100 0.47488 -0.21700
H 	H 	0.58740 0.31380 0.47213 0.10900
C 	C 	0.64180 0.18480 0.45768 0.19000
C 	C 	0.71370 0.12160 0.46361 -0.22400
H 	H 	0.71750 0.06030 0.45283 0.08100
C 	C 	0.77880 0.14810 0.48501 0.10400
H 	H 	0.82700 0.10360 0.48853 -0.08200
C 	C 	0.28450 0.55750 0.39556 0.30300
C 	C 	0.25890 0.65880 0.40734 -0.04400
C 	C 	0.15870 0.67940 0.39870 -0.02200
H 	H 	0.10240 0.62340 0.38643 0.04300
C 	C 	0.13820 0.78020 0.40758 -0.04000
H 	H 	0.06930 0.79310 0.40133 0.03700
Cd	Cd	0.63669 0.92350 0.69883 1.17000
O 	O 	0.56170 0.74950 0.72716 -0.40500
O 	O 	0.40520 0.80100 0.71989 -0.35800
O 	O 	0.53730 0.04200 0.68184 -0.67400
H 	H 	0.61410 0.05170 0.67937 0.18200
H 	H 	0.45330 0.00340 0.68427 0.30300
N 	N 	0.72310 0.08720 0.72664 -0.27700
N 	N 	0.84080 0.42730 0.76840 -0.25700
H 	H 	0.89300 0.50100 0.76097 0.13100
N 	N 	0.76730 0.54580 0.83457 -0.27300
C 	C 	0.79100 0.21170 0.71823 0.11000
H 	H 	0.81250 0.22340 0.70177 -0.05500
C 	C 	0.83150 0.32380 0.73193 -0.21400
H 	H 	0.88040 0.41000 0.72497 0.09700
C 	C 	0.79990 0.31000 0.75637 0.20500
C 	C 	0.73330 0.18010 0.76523 -0.23800
H 	H 	0.71380 0.16490 0.78177 0.10600
C 	C 	0.69580 0.07400 0.75009 0.16300
H 	H 	0.64800 0.98650 0.75657 -0.05200
C 	C 	0.70760 0.41550 0.82900 0.11600
H 	H 	0.64680 0.35310 0.84017 -0.01900
C 	C 	0.72900 0.36700 0.80822 -0.21700
H 	H 	0.68620 0.27360 0.80547 0.11000
C 	C 	0.81520 0.45700 0.79102 0.19200
C 	C 	0.87840 0.59210 0.79695 -0.22300
H 	H 	0.93970 0.65720 0.78617 0.08300
C 	C 	0.85190 0.63070 0.81835 0.10700
H 	H 	0.89640 0.72340 0.82187 -0.07900
C 	C 	0.44250 0.72700 0.72890 0.30500
C 	C 	0.34120 0.60010 0.74068 -0.04700
C 	C 	0.32060 0.47930 0.73204 -0.02300
H 	H 	0.37660 0.47900 0.71977 0.04100
C 	C 	0.21980 0.35800 0.74092 -0.04300
H 	H 	0.20690 0.27620 0.73467 0.03600
Cd	Cd	0.28681 0.92350 0.80117 1.17000
O 	O 	0.18780 0.74950 0.77284 -0.40200
O 	O 	0.39580 0.80100 0.78011 -0.36000
O 	O 	0.50470 0.04200 0.81816 -0.67400
H 	H 	0.43760 0.05170 0.82063 0.18400
H 	H 	0.55010 0.00340 0.81573 0.30300
N 	N 	0.36410 0.08720 0.77336 -0.27600
N 	N 	0.58650 0.42730 0.73160 -0.25800
H 	H 	0.60800 0.50100 0.73903 0.13200
N 	N 	0.77850 0.54580 0.66543 -0.27600
C 	C 	0.42070 0.21170 0.78177 0.11100
H 	H 	0.41090 0.22340 0.79823 -0.05200
C 	C 	0.49230 0.32380 0.76807 -0.21300
H 	H 	0.52960 0.41000 0.77503 0.10000
C 	C 	0.51010 0.31000 0.74363 0.20700
C 	C 	0.44680 0.18010 0.73477 -0.23800
H 	H 	0.45110 0.16490 0.71823 0.10700
C 	C 	0.37820 0.07400 0.74991 0.16400
H 	H 	0.33850 0.98650 0.74343 -0.05100
C 	C 	0.70790 0.41550 0.67100 0.11500
H 	H 	0.70630 0.35310 0.65983 -0.02100
C 	C 	0.63800 0.36700 0.69178 -0.21700
H 	H 	0.58740 0.27360 0.69453 0.11000
C 	C 	0.64180 0.45700 0.70898 0.19300
C 	C 	0.71370 0.59210 0.70305 -0.22500
H 	H 	0.71750 0.65720 0.71383 0.08400
C 	C 	0.77880 0.63070 0.68165 0.10600
H 	H 	0.82700 0.72340 0.67813 -0.08300
C 	C 	0.28450 0.72700 0.77110 0.30500
C 	C 	0.25890 0.60010 0.75932 -0.04600
C 	C 	0.15870 0.47930 0.76796 -0.02300
H 	H 	0.10240 0.47900 0.78023 0.04200
C 	C 	0.13820 0.35800 0.75908 -0.04200
H 	H 	0.06930 0.27620 0.76533 0.03600
Cd	Cd	0.63669 0.71319 0.46784 1.17700
O 	O 	0.56170 0.81220 0.43951 -0.39700
O 	O 	0.40520 0.60420 0.44678 -0.35100
O 	O 	0.53730 0.49530 0.48483 -0.67300
H 	H 	0.61410 0.56240 0.48730 0.17400
H 	H 	0.45330 0.44990 0.48240 0.29400
N 	N 	0.72310 0.63590 0.44003 -0.27200
N 	N 	0.84080 0.41350 0.39827 -0.25400
H 	H 	0.89300 0.39200 0.40570 0.12900
N 	N 	0.76730 0.22150 0.33210 -0.27500
C 	C 	0.79100 0.57930 0.44844 0.10300
H 	H 	0.81250 0.58910 0.46490 -0.05600
C 	C 	0.83150 0.50770 0.43474 -0.20500
H 	H 	0.88040 0.47040 0.44170 0.09300
C 	C 	0.79990 0.48990 0.41030 0.19100
C 	C 	0.73330 0.55320 0.40144 -0.20700
H 	H 	0.71380 0.54890 0.38490 0.09200
C 	C 	0.69580 0.62180 0.41658 0.10300
H 	H 	0.64800 0.66150 0.41010 -0.01300
C 	C 	0.70760 0.29210 0.33767 0.11400
H 	H 	0.64680 0.29370 0.32650 -0.02200
C 	C 	0.72900 0.36200 0.35845 -0.21700
H 	H 	0.68620 0.41260 0.36120 0.10900
C 	C 	0.81520 0.35820 0.37565 0.19000
C 	C 	0.87840 0.28630 0.36972 -0.22400
H 	H 	0.93970 0.28250 0.38050 0.08100
C 	C 	0.85190 0.22120 0.34832 0.10400
H 	H 	0.89640 0.17300 0.34480 -0.08200
C 	C 	0.44250 0.71550 0.43777 0.30300
C 	C 	0.34120 0.74110 0.42599 -0.04400
C 	C 	0.32060 0.84130 0.43463 -0.02200
H 	H 	0.37660 0.89760 0.44690 0.04300
C 	C 	0.21980 0.86180 0.42575 -0.04000
H 	H 	0.20690 0.93070 0.43200 0.03700
Cd	Cd	0.07650 0.36331 0.13450 1.17000
O 	O 	0.25050 0.43830 0.10618 -0.40500
O 	O 	0.19900 0.59480 0.11345 -0.35800
O 	O 	0.95800 0.46270 0.15150 -0.67400
H 	H 	0.94830 0.38590 0.15397 0.18200
H 	H 	0.99660 0.54670 0.14907 0.30300
N 	N 	0.91280 0.27690 0.10670 -0.27700
N 	N 	0.57270 0.15920 0.06494 -0.25700
H 	H 	0.49900 0.10700 0.07237 0.13100
N 	N 	0.45420 0.23270 0.99877 -0.27300
C 	C 	0.78830 0.20900 0.11511 0.11000
H 	H 	0.77660 0.18750 0.13157 -0.05500
C 	C 	0.67620 0.16850 0.10141 -0.21400
H 	H 	0.59000 0.11960 0.10837 0.09700
C 	C 	0.69000 0.20010 0.07697 0.20500
C 	C 	0.81990 0.26670 0.06811 -0.23800
H 	H 	0.83510 0.28620 0.05157 0.10600
C 	C 	0.92600 0.30420 0.08325 0.16300
H 	H 	0.01350 0.35200 0.07677 -0.05300
C 	C 	0.58450 0.29240 0.00434 0.11600
H 	H 	0.64690 0.35320 0.99317 -0.01900
C 	C 	0.63300 0.27100 0.02512 -0.21700
H 	H 	0.72640 0.31380 0.02787 0.11000
C 	C 	0.54300 0.18480 0.04232 0.19200
C 	C 	0.40790 0.12160 0.03639 -0.22300
H 	H 	0.34280 0.06030 0.04717 0.08300
C 	C 	0.36930 0.14810 0.01499 0.10700
H 	H 	0.27660 0.10360 0.01147 -0.07900
C 	C 	0.27300 0.55750 0.10444 0.30500
C 	C 	0.39990 0.65880 0.09266 -0.04700
C 	C 	0.52070 0.67940 0.10130 -0.02300
H 	H 	0.52100 0.62340 0.11357 0.04100
C 	C 	0.64200 0.78020 0.09242 -0.04300
H 	H 	0.72380 0.79310 0.09867 0.03600
Cd	Cd	0.71319 0.07650 0.30117 1.17000
O 	O 	0.81220 0.25050 0.27284 -0.40200
O 	O 	0.60420 0.19900 0.28011 -0.36000
O 	O 	0.49530 0.95800 0.31816 -0.67400
H 	H 	0.56240 0.94830 0.32063 0.18400
H 	H 	0.44990 0.99660 0.31573 0.30300
N 	N 	0.63590 0.91280 0.27336 -0.27600
N 	N 	0.41350 0.57270 0.23160 -0.25800
H 	H 	0.39200 0.49900 0.23903 0.13200
N 	N 	0.22150 0.45420 0.16543 -0.27600
C 	C 	0.57930 0.78830 0.28177 0.11100
H 	H 	0.58910 0.77660 0.29823 -0.05200
C 	C 	0.50770 0.67620 0.26807 -0.21300
H 	H 	0.47040 0.59000 0.27503 0.10000
C 	C 	0.48990 0.69000 0.24363 0.20700
C 	C 	0.55320 0.81990 0.23477 -0.23800
H 	H 	0.54890 0.83510 0.21823 0.10700
C 	C 	0.62180 0.92600 0.24991 0.16400
H 	H 	0.66150 0.01350 0.24343 -0.05100
C 	C 	0.29210 0.58450 0.17100 0.11500
H 	H 	0.29370 0.64690 0.15983 -0.02100
C 	C 	0.36200 0.63300 0.19178 -0.21700
H 	H 	0.41260 0.72640 0.19453 0.11000
C 	C 	0.35820 0.54300 0.20898 0.19300
C 	C 	0.28630 0.40790 0.20305 -0.22500
H 	H 	0.28250 0.34280 0.21383 0.08400
C 	C 	0.22120 0.36930 0.18165 0.10600
H 	H 	0.17300 0.27660 0.17813 -0.08300
C 	C 	0.71550 0.27300 0.27110 0.30500
C 	C 	0.74110 0.39990 0.25932 -0.04600
C 	C 	0.84130 0.52070 0.26796 -0.02300
H 	H 	0.89760 0.52100 0.28023 0.04200
C 	C 	0.86180 0.64200 0.25908 -0.04200
H 	H 	0.93070 0.72380 0.26533 0.03600
Cd	Cd	0.36331 0.28681 0.96784 1.17700
O 	O 	0.43830 0.18780 0.93951 -0.39700
O 	O 	0.59480 0.39580 0.94678 -0.35100
O 	O 	0.46270 0.50470 0.98483 -0.67300
H 	H 	0.38590 0.43760 0.98730 0.17400
H 	H 	0.54670 0.55010 0.98240 0.29400
N 	N 	0.27690 0.36410 0.94003 -0.27200
N 	N 	0.15920 0.58650 0.89827 -0.25400
H 	H 	0.10700 0.60800 0.90570 0.12900
N 	N 	0.23270 0.77850 0.83210 -0.27500
C 	C 	0.20900 0.42070 0.94844 0.10300
H 	H 	0.18750 0.41090 0.96490 -0.05600
C 	C 	0.16850 0.49230 0.93474 -0.20500
H 	H 	0.11960 0.52960 0.94170 0.09300
C 	C 	0.20010 0.51010 0.91030 0.19100
C 	C 	0.26670 0.44680 0.90144 -0.20700
H 	H 	0.28620 0.45110 0.88490 0.09200
C 	C 	0.30420 0.37820 0.91658 0.10300
H 	H 	0.35200 0.33850 0.91010 -0.01300
C 	C 	0.29240 0.70790 0.83767 0.11400
H 	H 	0.35320 0.70630 0.82650 -0.02200
C 	C 	0.27100 0.63800 0.85845 -0.21700
H 	H 	0.31380 0.58740 0.86120 0.10900
C 	C 	0.18480 0.64180 0.87565 0.19000
C 	C 	0.12160 0.71370 0.86972 -0.22400
H 	H 	0.06030 0.71750 0.88050 0.08100
C 	C 	0.14810 0.77880 0.84832 0.10400
H 	H 	0.10360 0.82700 0.84480 -0.08200
C 	C 	0.55750 0.28450 0.93777 0.30300
C 	C 	0.65880 0.25890 0.92599 -0.04400
C 	C 	0.67940 0.15870 0.93463 -0.02200
H 	H 	0.62340 0.10240 0.94690 0.04300
C 	C 	0.78020 0.13820 0.92575 -0.04000
H 	H 	0.79310 0.06930 0.93200 0.03700
Cd	Cd	0.92350 0.63669 0.63450 1.17000
O 	O 	0.74950 0.56170 0.60618 -0.40500
O 	O 	0.80100 0.40520 0.61345 -0.35800
O 	O 	0.04200 0.53730 0.65150 -0.67400
H 	H 	0.05170 0.61410 0.65397 0.18200
H 	H 	0.00340 0.45330 0.64907 0.30300
N 	N 	0.08720 0.72310 0.60670 -0.27700
N 	N 	0.42730 0.84080 0.56494 -0.25700
H 	H 	0.50100 0.89300 0.57237 0.13100
N 	N 	0.54580 0.76730 0.49877 -0.27300
C 	C 	0.21170 0.79100 0.61511 0.11000
H 	H 	0.22340 0.81250 0.63157 -0.05500
C 	C 	0.32380 0.83150 0.60141 -0.21400
H 	H 	0.41000 0.88040 0.60837 0.09700
C 	C 	0.31000 0.79990 0.57697 0.20500
C 	C 	0.18010 0.73330 0.56811 -0.23800
H 	H 	0.16490 0.71380 0.55157 0.10600
C 	C 	0.07400 0.69580 0.58325 0.16300
H 	H 	0.98650 0.64800 0.57677 -0.05300
C 	C 	0.41550 0.70760 0.50434 0.11600
H 	H 	0.35310 0.64680 0.49317 -0.01900
C 	C 	0.36700 0.72900 0.52512 -0.21700
H 	H 	0.27360 0.68620 0.52787 0.11000
C 	C 	0.45700 0.81520 0.54232 0.19200
C 	C 	0.59210 0.87840 0.53639 -0.22300
H 	H 	0.65720 0.93970 0.54717 0.08300
C 	C 	0.63070 0.85190 0.51499 0.10700
H 	H 	0.72340 0.89640 0.51147 -0.07900
C 	C 	0.72700 0.44250 0.60444 0.30500
C 	C 	0.60010 0.34120 0.59266 -0.04700
C 	C 	0.47930 0.32060 0.60130 -0.02300
H 	H 	0.47900 0.37660 0.61357 0.04100
C 	C 	0.35800 0.21980 0.59242 -0.04300
H 	H 	0.27620 0.20690 0.59867 0.03600
