data_crystal

_cell_length_a 14.65200
_cell_length_b 14.89400
_cell_length_c 29.73600
_cell_angle_alpha 90.00000
_cell_angle_beta  90.00000
_cell_angle_gamma 90.00000

_symmetry_space_group_name_	'P 1'
_symmetry_space_group_name_H-M	'P 1'

loop_
_symmetry_equiv_pos_as_xyz
  x,y,z

loop_
_atom_site_label
_atom_site_type_symbol
_atom_site_fract_x
_atom_site_fract_y
_atom_site_fract_z
_atom_site_charge
N 	N 	0.25720 0.14740 0.30008 -0.23300
N 	N 	0.25880 0.14770 0.45000 -0.23400
C 	C 	0.26430 0.09410 0.42245 -0.03600
C 	C 	0.26350 0.09360 0.32740 -0.03600
C 	C 	0.04660 0.32420 0.24280 -0.00200
H 	H 	0.07740 0.37850 0.23760 0.00700
N 	N 	0.25720 0.64740 0.80008 -0.23100
N 	N 	0.25880 0.64770 0.95000 -0.21600
C 	C 	0.26430 0.59410 0.92245 -0.01300
C 	C 	0.26350 0.59360 0.82740 -0.02200
C 	C 	0.04660 0.82420 0.74280 0.00100
H 	H 	0.07740 0.87850 0.73760 0.01600
N 	N 	0.75720 0.14740 0.80008 -0.23200
N 	N 	0.75880 0.14770 0.95000 -0.21700
C 	C 	0.76430 0.09410 0.92245 -0.02400
C 	C 	0.76350 0.09360 0.82740 -0.03300
C 	C 	0.54660 0.32420 0.74280 -0.00100
H 	H 	0.57740 0.37850 0.73760 0.00800
N 	N 	0.75720 0.64740 0.30008 -0.23000
N 	N 	0.75880 0.64770 0.45000 -0.23100
C 	C 	0.76430 0.59410 0.42245 -0.02500
C 	C 	0.76350 0.59360 0.32740 -0.02500
C 	C 	0.54660 0.82420 0.24280 0.00100
H 	H 	0.57740 0.87850 0.23760 0.01600
N 	N 	0.74280 0.85260 0.30008 -0.23500
N 	N 	0.74120 0.85230 0.45000 -0.23500
C 	C 	0.73570 0.90590 0.42245 0.01100
C 	C 	0.73650 0.90640 0.32740 0.01100
C 	C 	0.95340 0.67580 0.24280 -0.00000
H 	H 	0.92260 0.62150 0.23760 0.00800
N 	N 	0.74280 0.35260 0.80008 -0.23000
N 	N 	0.74120 0.35230 0.95000 -0.21500
C 	C 	0.73570 0.40590 0.92245 -0.01400
C 	C 	0.73650 0.40640 0.82740 -0.02300
C 	C 	0.95340 0.17580 0.74280 -0.00200
H 	H 	0.92260 0.12150 0.73760 0.00000
N 	N 	0.24280 0.85260 0.80008 -0.23400
N 	N 	0.24120 0.85230 0.95000 -0.21900
C 	C 	0.23570 0.90590 0.92245 0.02200
C 	C 	0.23650 0.90640 0.82740 0.01400
C 	C 	0.45340 0.67580 0.74280 0.00000
H 	H 	0.42260 0.62150 0.73760 0.00800
N 	N 	0.24280 0.35260 0.30008 -0.23100
N 	N 	0.24120 0.35230 0.45000 -0.23100
C 	C 	0.23570 0.40590 0.42245 -0.02600
C 	C 	0.23650 0.40640 0.32740 -0.02600
C 	C 	0.45340 0.17580 0.24280 -0.00200
H 	H 	0.42260 0.12150 0.23760 0.00000
N 	N 	0.74280 0.14740 0.69992 -0.23200
N 	N 	0.74120 0.14770 0.55000 -0.23300
C 	C 	0.73570 0.09410 0.57755 -0.03600
C 	C 	0.73650 0.09360 0.67260 -0.03500
C 	C 	0.95340 0.32420 0.75720 -0.00100
H 	H 	0.92260 0.37850 0.76240 0.00800
N 	N 	0.74280 0.64740 0.19992 -0.23000
N 	N 	0.74120 0.64770 0.05000 -0.23300
C 	C 	0.73570 0.59410 0.07755 -0.02700
C 	C 	0.73650 0.59360 0.17260 -0.02500
C 	C 	0.95340 0.82420 0.25720 0.00100
H 	H 	0.92260 0.87850 0.26240 0.01600
N 	N 	0.24280 0.14740 0.19992 -0.23200
N 	N 	0.24120 0.14770 0.05000 -0.23500
C 	C 	0.23570 0.09410 0.07755 -0.03700
C 	C 	0.23650 0.09360 0.17260 -0.03500
C 	C 	0.45340 0.32420 0.25720 -0.00100
H 	H 	0.42260 0.37850 0.26240 0.00800
N 	N 	0.24280 0.64740 0.69992 -0.23000
N 	N 	0.24120 0.64770 0.55000 -0.23100
C 	C 	0.23570 0.59410 0.57755 -0.02500
C 	C 	0.23650 0.59360 0.67260 -0.02500
C 	C 	0.45340 0.82420 0.75720 0.00200
H 	H 	0.42260 0.87850 0.76240 0.01700
N 	N 	0.25720 0.85260 0.69992 -0.23500
N 	N 	0.25880 0.85230 0.55000 -0.23500
C 	C 	0.26430 0.90590 0.57755 0.01100
C 	C 	0.26350 0.90640 0.67260 0.01100
C 	C 	0.04660 0.67580 0.75720 0.00000
H 	H 	0.07740 0.62150 0.76240 0.00800
N 	N 	0.25720 0.35260 0.19992 -0.23100
N 	N 	0.25880 0.35230 0.05000 -0.23400
C 	C 	0.26430 0.40590 0.07755 -0.02800
C 	C 	0.26350 0.40640 0.17260 -0.02600
C 	C 	0.04660 0.17580 0.25720 -0.00200
H 	H 	0.07740 0.12150 0.26240 0.00000
N 	N 	0.75720 0.85260 0.19992 -0.23500
N 	N 	0.75880 0.85230 0.05000 -0.23800
C 	C 	0.76430 0.90590 0.07755 0.00800
C 	C 	0.76350 0.90640 0.17260 0.01100
C 	C 	0.54660 0.67580 0.25720 -0.00000
H 	H 	0.57740 0.62150 0.26240 0.00800
N 	N 	0.75720 0.35260 0.69992 -0.23100
N 	N 	0.75880 0.35230 0.55000 -0.23100
C 	C 	0.76430 0.40590 0.57755 -0.02600
C 	C 	0.76350 0.40640 0.67260 -0.02600
C 	C 	0.54660 0.17580 0.75720 -0.00100
H 	H 	0.57740 0.12150 0.76240 0.00100
N 	N 	0.74280 0.85260 0.69992 -0.23500
N 	N 	0.74120 0.85230 0.55000 -0.23500
C 	C 	0.73570 0.90590 0.57755 0.01100
C 	C 	0.73650 0.90640 0.67260 0.01100
C 	C 	0.95340 0.67580 0.75720 0.00000
H 	H 	0.92260 0.62150 0.76240 0.00800
N 	N 	0.74280 0.35260 0.19992 -0.23100
N 	N 	0.74120 0.35230 0.05000 -0.23400
C 	C 	0.73570 0.40590 0.07755 -0.02800
C 	C 	0.73650 0.40640 0.17260 -0.02600
C 	C 	0.95340 0.17580 0.25720 -0.00200
H 	H 	0.92260 0.12150 0.26240 0.00000
N 	N 	0.24280 0.85260 0.19992 -0.23500
N 	N 	0.24120 0.85230 0.05000 -0.23800
C 	C 	0.23570 0.90590 0.07755 0.00800
C 	C 	0.23650 0.90640 0.17260 0.01100
C 	C 	0.45340 0.67580 0.25720 -0.00000
H 	H 	0.42260 0.62150 0.26240 0.00800
N 	N 	0.24280 0.35260 0.69992 -0.23100
N 	N 	0.24120 0.35230 0.55000 -0.23100
C 	C 	0.23570 0.40590 0.57755 -0.02600
C 	C 	0.23650 0.40640 0.67260 -0.02600
C 	C 	0.45340 0.17580 0.75720 -0.00100
H 	H 	0.42260 0.12150 0.76240 0.00100
N 	N 	0.25720 0.14740 0.69992 -0.23200
N 	N 	0.25880 0.14770 0.55000 -0.23300
C 	C 	0.26430 0.09410 0.57755 -0.03600
C 	C 	0.26350 0.09360 0.67260 -0.03500
C 	C 	0.04660 0.32420 0.75720 -0.00100
H 	H 	0.07740 0.37850 0.76240 0.00800
N 	N 	0.25720 0.64740 0.19992 -0.23000
N 	N 	0.25880 0.64770 0.05000 -0.23300
C 	C 	0.26430 0.59410 0.07755 -0.02700
C 	C 	0.26350 0.59360 0.17260 -0.02500
C 	C 	0.04660 0.82420 0.25720 0.00100
H 	H 	0.07740 0.87850 0.26240 0.01600
N 	N 	0.75720 0.14740 0.19992 -0.23200
N 	N 	0.75880 0.14770 0.05000 -0.23500
C 	C 	0.76430 0.09410 0.07755 -0.03700
C 	C 	0.76350 0.09360 0.17260 -0.03500
C 	C 	0.54660 0.32420 0.25720 -0.00100
H 	H 	0.57740 0.37850 0.26240 0.00800
N 	N 	0.75720 0.64740 0.69992 -0.23000
N 	N 	0.75880 0.64770 0.55000 -0.23100
C 	C 	0.76430 0.59410 0.57755 -0.02500
C 	C 	0.76350 0.59360 0.67260 -0.02500
C 	C 	0.54660 0.82420 0.75720 0.00200
H 	H 	0.57740 0.87850 0.76240 0.01700
N 	N 	0.25720 0.85260 0.30008 -0.23500
N 	N 	0.25880 0.85230 0.45000 -0.23500
C 	C 	0.26430 0.90590 0.42245 0.01100
C 	C 	0.26350 0.90640 0.32740 0.01100
C 	C 	0.04660 0.67580 0.24280 -0.00000
H 	H 	0.07740 0.62150 0.23760 0.00800
N 	N 	0.25720 0.35260 0.80008 -0.23000
N 	N 	0.25880 0.35230 0.95000 -0.21500
C 	C 	0.26430 0.40590 0.92245 -0.01400
C 	C 	0.26350 0.40640 0.82740 -0.02300
C 	C 	0.04660 0.17580 0.74280 -0.00200
H 	H 	0.07740 0.12150 0.73760 0.00000
N 	N 	0.75720 0.85260 0.80008 -0.23400
N 	N 	0.75880 0.85230 0.95000 -0.21900
C 	C 	0.76430 0.90590 0.92245 0.02200
C 	C 	0.76350 0.90640 0.82740 0.01400
C 	C 	0.54660 0.67580 0.74280 0.00000
H 	H 	0.57740 0.62150 0.73760 0.00800
N 	N 	0.75720 0.35260 0.30008 -0.23100
N 	N 	0.75880 0.35230 0.45000 -0.23100
C 	C 	0.76430 0.40590 0.42245 -0.02600
C 	C 	0.76350 0.40640 0.32740 -0.02600
C 	C 	0.54660 0.17580 0.24280 -0.00200
H 	H 	0.57740 0.12150 0.23760 0.00000
N 	N 	0.74280 0.14740 0.30008 -0.23200
N 	N 	0.74120 0.14770 0.45000 -0.23300
C 	C 	0.73570 0.09410 0.42245 -0.03500
C 	C 	0.73650 0.09360 0.32740 -0.03500
C 	C 	0.95340 0.32420 0.24280 -0.00100
H 	H 	0.92260 0.37850 0.23760 0.00800
N 	N 	0.74280 0.64740 0.80008 -0.23000
N 	N 	0.74120 0.64770 0.95000 -0.21500
C 	C 	0.73570 0.59410 0.92245 -0.01300
C 	C 	0.73650 0.59360 0.82740 -0.02200
C 	C 	0.95340 0.82420 0.74280 0.00100
H 	H 	0.92260 0.87850 0.73760 0.01600
N 	N 	0.24280 0.14740 0.80008 -0.23200
N 	N 	0.24120 0.14770 0.95000 -0.21700
C 	C 	0.23570 0.09410 0.92245 -0.02400
C 	C 	0.23650 0.09360 0.82740 -0.03300
C 	C 	0.45340 0.32420 0.74280 -0.00100
H 	H 	0.42260 0.37850 0.73760 0.00800
N 	N 	0.24280 0.64740 0.30008 -0.23000
N 	N 	0.24120 0.64770 0.45000 -0.23100
C 	C 	0.23570 0.59410 0.42245 -0.02500
C 	C 	0.23650 0.59360 0.32740 -0.02500
C 	C 	0.45340 0.82420 0.24280 0.00100
H 	H 	0.42260 0.87850 0.23760 0.01600
Pt	Pt	0.26694 0.00000 0.37499 0.24500
Pt	Pt	0.26694 0.50000 0.87499 0.29800
Pt	Pt	0.76694 0.00000 0.87499 0.25000
Pt	Pt	0.76694 0.50000 0.37499 0.29300
Pt	Pt	0.73306 0.00000 0.37499 0.24500
Pt	Pt	0.73306 0.50000 0.87499 0.29800
Pt	Pt	0.23306 0.00000 0.87499 0.25000
Pt	Pt	0.23306 0.50000 0.37499 0.29300
Pt	Pt	0.73306 0.00000 0.62501 0.24500
Pt	Pt	0.73306 0.50000 0.12501 0.29200
Pt	Pt	0.23306 0.00000 0.12501 0.24500
Pt	Pt	0.23306 0.50000 0.62501 0.29300
Pt	Pt	0.26694 0.00000 0.62501 0.24500
Pt	Pt	0.26694 0.50000 0.12501 0.29200
Pt	Pt	0.76694 0.00000 0.12501 0.24500
Pt	Pt	0.76694 0.50000 0.62501 0.29300
Fe	Fe	0.25000 0.25000 0.50000 1.11600
Fe	Fe	0.25000 0.75000 -0.00000 1.10600
Fe	Fe	0.75000 0.75000 0.50000 1.11900
Fe	Fe	0.75000 0.25000 -0.00000 1.10300
Fe	Fe	0.75000 0.25000 0.50000 1.11600
Fe	Fe	0.75000 0.75000 -0.00000 1.10600
Fe	Fe	0.25000 0.25000 -0.00000 1.10300
Fe	Fe	0.25000 0.75000 0.50000 1.11900
Fe	Fe	0.25000 0.25000 0.25000 1.11600
Fe	Fe	0.75000 0.75000 0.25000 1.11900
Fe	Fe	0.75000 0.25000 0.75000 1.11700
Fe	Fe	0.25000 0.75000 0.75000 1.12000
Fe	Fe	0.75000 0.75000 0.75000 1.12000
Fe	Fe	0.75000 0.25000 0.25000 1.11600
Fe	Fe	0.25000 0.75000 0.25000 1.11900
Fe	Fe	0.25000 0.25000 0.75000 1.11700
N 	N 	0.09510 0.24380 0.50000 -0.21000
C 	C 	0.04820 0.16980 0.50000 0.00300
C 	C 	0.04820 0.31750 0.50000 0.00300
H 	H 	0.07930 0.11460 0.50000 -0.00300
H 	H 	0.07930 0.37270 0.50000 0.00500
N 	N 	0.09510 0.74380 -0.00000 -0.21300
C 	C 	0.04820 0.66980 -0.00000 0.00100
C 	C 	0.04820 0.81750 -0.00000 0.00100
H 	H 	0.07930 0.61460 -0.00000 -0.00100
H 	H 	0.07930 0.87270 -0.00000 0.00700
N 	N 	0.59510 0.24380 -0.00000 -0.21400
C 	C 	0.54820 0.16980 -0.00000 -0.00200
C 	C 	0.54820 0.31750 -0.00000 -0.00100
H 	H 	0.57930 0.11460 -0.00000 -0.00900
H 	H 	0.57930 0.37270 -0.00000 -0.00100
N 	N 	0.59510 0.74380 0.50000 -0.20800
C 	C 	0.54820 0.66980 0.50000 0.00500
C 	C 	0.54820 0.81750 0.50000 0.00500
H 	H 	0.57930 0.61460 0.50000 0.00500
H 	H 	0.57930 0.87270 0.50000 0.01300
N 	N 	0.90490 0.75620 0.50000 -0.20800
C 	C 	0.95180 0.83020 0.50000 0.00600
C 	C 	0.95180 0.68250 0.50000 0.00400
H 	H 	0.92070 0.88540 0.50000 0.01400
H 	H 	0.92070 0.62730 0.50000 0.00500
N 	N 	0.90490 0.25620 -0.00000 -0.21400
C 	C 	0.95180 0.33020 -0.00000 -0.00000
C 	C 	0.95180 0.18250 -0.00000 -0.00200
H 	H 	0.92070 0.38540 -0.00000 -0.00100
H 	H 	0.92070 0.12730 -0.00000 -0.00800
N 	N 	0.40490 0.75620 -0.00000 -0.21200
C 	C 	0.45180 0.83020 -0.00000 0.00200
C 	C 	0.45180 0.68250 -0.00000 0.00000
H 	H 	0.42070 0.88540 -0.00000 0.00800
H 	H 	0.42070 0.62730 -0.00000 -0.00100
N 	N 	0.40490 0.25620 0.50000 -0.20900
C 	C 	0.45180 0.33020 0.50000 0.00400
C 	C 	0.45180 0.18250 0.50000 0.00300
H 	H 	0.42070 0.38540 0.50000 0.00500
H 	H 	0.42070 0.12730 0.50000 -0.00200
N 	N 	0.90490 0.24380 0.50000 -0.21000
C 	C 	0.95180 0.16980 0.50000 0.00300
C 	C 	0.95180 0.31750 0.50000 0.00300
H 	H 	0.92070 0.11460 0.50000 -0.00300
H 	H 	0.92070 0.37270 0.50000 0.00500
N 	N 	0.90490 0.74380 -0.00000 -0.21300
C 	C 	0.95180 0.66980 -0.00000 0.00100
C 	C 	0.95180 0.81750 -0.00000 0.00100
H 	H 	0.92070 0.61460 -0.00000 -0.00100
H 	H 	0.92070 0.87270 -0.00000 0.00700
N 	N 	0.40490 0.24380 -0.00000 -0.21400
C 	C 	0.45180 0.16980 -0.00000 -0.00200
C 	C 	0.45180 0.31750 -0.00000 -0.00100
H 	H 	0.42070 0.11460 -0.00000 -0.00900
H 	H 	0.42070 0.37270 -0.00000 -0.00100
N 	N 	0.40490 0.74380 0.50000 -0.20800
C 	C 	0.45180 0.66980 0.50000 0.00500
C 	C 	0.45180 0.81750 0.50000 0.00500
H 	H 	0.42070 0.61460 0.50000 0.00500
H 	H 	0.42070 0.87270 0.50000 0.01300
N 	N 	0.09510 0.75620 0.50000 -0.20800
C 	C 	0.04820 0.83020 0.50000 0.00600
C 	C 	0.04820 0.68250 0.50000 0.00400
H 	H 	0.07930 0.88540 0.50000 0.01400
H 	H 	0.07930 0.62730 0.50000 0.00500
N 	N 	0.09510 0.25620 -0.00000 -0.21400
C 	C 	0.04820 0.33020 -0.00000 -0.00000
C 	C 	0.04820 0.18250 -0.00000 -0.00200
H 	H 	0.07930 0.38540 -0.00000 -0.00100
H 	H 	0.07930 0.12730 -0.00000 -0.00800
N 	N 	0.59510 0.75620 -0.00000 -0.21200
C 	C 	0.54820 0.83020 -0.00000 0.00200
C 	C 	0.54820 0.68250 -0.00000 0.00000
H 	H 	0.57930 0.88540 -0.00000 0.00800
H 	H 	0.57930 0.62730 -0.00000 -0.00100
N 	N 	0.59510 0.25620 0.50000 -0.20900
C 	C 	0.54820 0.33020 0.50000 0.00400
C 	C 	0.54820 0.18250 0.50000 0.00300
H 	H 	0.57930 0.38540 0.50000 0.00500
H 	H 	0.57930 0.12730 0.50000 -0.00200
N 	N 	0.09560 0.25000 0.25000 -0.20700
N 	N 	0.59560 0.25000 0.75000 -0.20700
N 	N 	0.90440 0.75000 0.25000 -0.20500
N 	N 	0.40440 0.75000 0.75000 -0.20500
N 	N 	0.40440 0.25000 0.25000 -0.20700
N 	N 	0.90440 0.25000 0.75000 -0.20700
N 	N 	0.09560 0.75000 0.75000 -0.20500
N 	N 	0.59560 0.75000 0.25000 -0.20500
N 	N 	0.90440 0.75000 0.75000 -0.20500
N 	N 	0.90440 0.25000 0.25000 -0.20700
N 	N 	0.40440 0.75000 0.25000 -0.20500
N 	N 	0.09560 0.25000 0.75000 -0.20700
N 	N 	0.59560 0.25000 0.25000 -0.20700
N 	N 	0.09560 0.75000 0.25000 -0.20500
N 	N 	0.59560 0.75000 0.75000 -0.20500
N 	N 	0.40440 0.25000 0.75000 -0.20700
