data_crystal

_cell_length_a 9.77400
_cell_length_b 13.91800
_cell_length_c 7.71500
_cell_angle_alpha 90.41000
_cell_angle_beta  90.43000
_cell_angle_gamma 93.18000

_symmetry_space_group_name_	'P 1'
_symmetry_space_group_name_H-M	'P 1'

loop_
_symmetry_equiv_pos_as_xyz
  x,y,z

loop_
_atom_site_label
_atom_site_type_symbol
_atom_site_fract_x
_atom_site_fract_y
_atom_site_fract_z
_atom_site_charge
Cd	Cd	0.09521 0.26437 0.50349 1.15800
C 	C 	0.02900 0.09230 0.17300 -0.40600
C 	C 	0.07300 0.42590 0.17300 -0.36700
C 	C 	0.08300 0.42860 0.83100 -0.20700
C 	C 	0.04300 0.09150 0.83100 -0.23400
C 	C 	0.41800 0.32040 0.51300 -0.03800
C 	C 	0.56800 0.29900 0.49400 -0.06400
C 	C 	0.66400 0.38560 0.52200 -0.09700
C 	C 	0.81400 0.37100 0.48000 -0.00500
N 	N 	0.04800 0.14790 0.27900 -0.19600
N 	N 	0.11500 0.37990 0.28300 -0.18800
N 	N 	0.13000 0.38400 0.72400 -0.18800
N 	N 	0.06900 0.14720 0.72600 -0.20500
N 	N 	0.32210 0.23860 0.48500 -0.27400
N 	N 	0.86400 0.28610 0.53900 -0.24200
H 	H 	0.33969 0.21227 0.35318 0.00700
H 	H 	0.34559 0.18517 0.57520 0.03900
H 	H 	0.40157 0.34882 0.64085 0.02500
H 	H 	0.39414 0.37672 0.41925 -0.00200
H 	H 	0.58276 0.27122 0.36448 0.01100
H 	H 	0.59126 0.24600 0.58711 0.03700
H 	H 	0.66014 0.40661 0.65423 0.05500
H 	H 	0.62985 0.44289 0.44022 0.03100
H 	H 	0.87627 0.43165 0.52635 0.02800
H 	H 	0.82416 0.36898 0.33636 0.00400
H 	H 	0.80682 0.22314 0.48741 0.04800
H 	H 	0.84533 0.28331 0.68437 0.06900
Cd	Cd	0.90479 0.73563 0.49651 1.20100
C 	C 	0.97100 0.90770 0.82700 -0.04300
C 	C 	0.92700 0.57410 0.82700 -0.08000
C 	C 	0.91700 0.57140 0.16900 -0.23200
C 	C 	0.95700 0.90850 0.16900 -0.19100
C 	C 	0.58200 0.67960 0.48700 -0.02600
C 	C 	0.43200 0.70100 0.50600 -0.07700
C 	C 	0.33600 0.61440 0.47800 -0.08300
C 	C 	0.18600 0.62900 0.52000 -0.01000
N 	N 	0.95200 0.85210 0.72100 -0.18300
N 	N 	0.88500 0.62010 0.71700 -0.18400
N 	N 	0.87000 0.61600 0.27600 -0.17300
N 	N 	0.93100 0.85280 0.27400 -0.17900
N 	N 	0.67790 0.76140 0.51500 -0.27400
N 	N 	0.13600 0.71390 0.46100 -0.28300
H 	H 	0.66031 0.78773 0.64682 0.05800
H 	H 	0.65441 0.81483 0.42480 0.04100
H 	H 	0.59843 0.65118 0.35915 -0.00800
H 	H 	0.60586 0.62328 0.58075 0.01800
H 	H 	0.41724 0.72878 0.63552 0.04600
H 	H 	0.40874 0.75400 0.41289 0.02100
H 	H 	0.33986 0.59339 0.34577 0.01100
H 	H 	0.37015 0.55711 0.55978 0.03900
H 	H 	0.12373 0.56835 0.47365 -0.03100
H 	H 	0.17584 0.63102 0.66364 -0.01300
H 	H 	0.19318 0.77686 0.51259 0.02600
H 	H 	0.15467 0.71669 0.31563 -0.01900
Ni	Ni	-0.00000 0.00000 -0.00000 0.89900
Ni	Ni	-0.00000 0.50000 -0.00000 0.93000
