data_crystal

_cell_length_a 15.27300
_cell_length_b 8.88100
_cell_length_c 15.39000
_cell_angle_alpha 90.00000
_cell_angle_beta  109.92000
_cell_angle_gamma 90.00000

_symmetry_space_group_name_	'P 1'
_symmetry_space_group_name_H-M	'P 1'

loop_
_symmetry_equiv_pos_as_xyz
  x,y,z

loop_
_atom_site_label
_atom_site_type_symbol
_atom_site_fract_x
_atom_site_fract_y
_atom_site_fract_z
_atom_site_charge
C 	C 	0.17649 0.23557 0.09250 -0.33100
N 	N 	0.13539 0.22720 0.14250 -0.11300
C 	C 	0.16837 0.07492 0.92278 -0.16600
N 	N 	0.12288 0.97944 0.87996 -0.10500
C 	C 	0.34533 0.09249 0.08028 -0.32600
N 	N 	0.39591 0.00446 0.12492 -0.10400
C 	C 	0.82351 0.23557 0.40750 -0.24600
N 	N 	0.86461 0.22720 0.35750 -0.08400
C 	C 	0.83163 0.07492 0.57722 -0.23800
N 	N 	0.87712 0.97944 0.62004 -0.07800
C 	C 	0.65467 0.09249 0.41972 -0.25600
N 	N 	0.60409 0.00446 0.37508 -0.09700
C 	C 	0.32351 0.26443 0.90750 -0.16100
N 	N 	0.36461 0.27280 0.85750 -0.09300
C 	C 	0.33163 0.42508 0.07722 -0.32900
N 	N 	0.37712 0.52056 0.12004 -0.10800
C 	C 	0.15467 0.40751 0.91972 -0.16900
N 	N 	0.10409 0.49554 0.87508 -0.10500
C 	C 	0.67649 0.26443 0.59250 -0.24600
N 	N 	0.63539 0.27280 0.64250 -0.08700
C 	C 	0.66837 0.42508 0.42278 -0.25500
N 	N 	0.62288 0.52056 0.37996 -0.09900
C 	C 	0.84533 0.40751 0.58028 -0.23800
N 	N 	0.89591 0.49554 0.62492 -0.07200
K 	K 	0.50000 0.74894 0.25000 0.62300
K 	K 	-0.00000 0.75106 0.75000 0.62000
Cr	Cr	0.25000 0.25000 -0.00000 1.40100
Cr	Cr	0.75000 0.25000 0.50000 1.46700
C 	C 	0.67649 0.73557 0.09250 -0.31800
N 	N 	0.63539 0.72720 0.14250 -0.10100
C 	C 	0.66837 0.57492 0.92278 -0.15200
N 	N 	0.62288 0.47944 0.87996 -0.09000
C 	C 	0.84533 0.59249 0.08028 -0.31200
N 	N 	0.89591 0.50446 0.12492 -0.08600
C 	C 	0.32351 0.73557 0.40750 -0.26100
N 	N 	0.36461 0.72720 0.35750 -0.10100
C 	C 	0.33163 0.57492 0.57722 -0.25400
N 	N 	0.37712 0.47944 0.62004 -0.09300
C 	C 	0.15467 0.59249 0.41972 -0.27100
N 	N 	0.10409 0.50446 0.37508 -0.11300
C 	C 	0.82351 0.76443 0.90750 -0.14800
N 	N 	0.86461 0.77280 0.85750 -0.07800
C 	C 	0.83163 0.92508 0.07722 -0.31700
N 	N 	0.87712 0.02056 0.12004 -0.08800
C 	C 	0.65467 0.90751 0.91972 -0.15500
N 	N 	0.60409 0.99554 0.87508 -0.09000
C 	C 	0.17649 0.76443 0.59250 -0.26100
N 	N 	0.13539 0.77280 0.64250 -0.10100
C 	C 	0.16837 0.92508 0.42278 -0.27100
N 	N 	0.12288 0.02056 0.37996 -0.11000
C 	C 	0.34533 0.90751 0.58028 -0.25400
N 	N 	0.39591 0.99554 0.62492 -0.09100
K 	K 	0.00000 0.24894 0.25000 0.60700
K 	K 	0.50000 0.25106 0.75000 0.63600
Cr	Cr	0.75000 0.75000 -0.00000 1.40200
Cr	Cr	0.25000 0.75000 0.50000 1.46600
