data_crystal

_cell_length_a 20.31570
_cell_length_b 20.31570
_cell_length_c 19.91800
_cell_angle_alpha 90.00000
_cell_angle_beta  90.00000
_cell_angle_gamma 90.00000

_symmetry_space_group_name_	'P 1'
_symmetry_space_group_name_H-M	'P 1'

loop_
_symmetry_equiv_pos_as_xyz
  x,y,z

loop_
_atom_site_label
_atom_site_type_symbol
_atom_site_fract_x
_atom_site_fract_y
_atom_site_fract_z
_atom_site_charge
N 	N 	0.05469 0.17932 0.12765 -0.12500
N 	N 	0.03192 0.14304 0.07726 -0.19600
C 	C 	0.94120 0.30870 0.29920 -0.15600
H 	H 	0.90150 0.32260 0.31750 0.09200
C 	C 	0.94290 0.26470 0.24450 0.04300
H 	H 	0.90330 0.24970 0.22660 0.01600
N 	N 	0.94531 0.82068 0.12765 -0.12100
N 	N 	0.96808 0.85696 0.07726 -0.19000
C 	C 	0.05880 0.69130 0.29920 -0.16100
H 	H 	0.09850 0.67740 0.31750 0.09300
C 	C 	0.05710 0.73530 0.24450 0.03800
H 	H 	0.09670 0.75030 0.22660 0.01600
N 	N 	0.82068 0.05469 0.12765 -0.12400
N 	N 	0.85696 0.03192 0.07726 -0.19600
C 	C 	0.69130 0.94120 0.29920 -0.15500
H 	H 	0.67740 0.90150 0.31750 0.09300
C 	C 	0.73530 0.94290 0.24450 0.04500
H 	H 	0.75030 0.90330 0.22660 0.01600
N 	N 	0.17932 0.94531 0.12765 -0.12200
N 	N 	0.14304 0.96808 0.07726 -0.19100
C 	C 	0.30870 0.05880 0.29920 -0.16100
H 	H 	0.32260 0.09850 0.31750 0.09200
C 	C 	0.26470 0.05710 0.24450 0.03700
H 	H 	0.24970 0.09670 0.22660 0.01600
N 	N 	0.94531 0.17932 0.87235 -0.10400
N 	N 	0.96808 0.14304 0.92274 -0.15000
C 	C 	0.05880 0.30870 0.70080 -0.15100
H 	H 	0.09850 0.32260 0.68250 0.09600
C 	C 	0.05710 0.26470 0.75550 0.03600
H 	H 	0.09670 0.24970 0.77340 0.03100
N 	N 	0.05469 0.82068 0.87235 -0.10700
N 	N 	0.03192 0.85696 0.92274 -0.15700
C 	C 	0.94120 0.69130 0.70080 -0.14400
H 	H 	0.90150 0.67740 0.68250 0.09700
C 	C 	0.94290 0.73530 0.75550 0.04400
H 	H 	0.90330 0.75030 0.77340 0.03100
N 	N 	0.17932 0.05469 0.87235 -0.10700
N 	N 	0.14304 0.03192 0.92274 -0.15700
C 	C 	0.30870 0.94120 0.70080 -0.14500
H 	H 	0.32260 0.90150 0.68250 0.09600
C 	C 	0.26470 0.94290 0.75550 0.04300
H 	H 	0.24970 0.90330 0.77340 0.03000
N 	N 	0.82068 0.94531 0.87235 -0.10200
N 	N 	0.85696 0.96808 0.92274 -0.14800
C 	C 	0.69130 0.05880 0.70080 -0.15100
H 	H 	0.67740 0.09850 0.68250 0.09700
C 	C 	0.73530 0.05710 0.75550 0.03600
H 	H 	0.75030 0.09670 0.77340 0.03100
N 	N 	0.94531 0.82068 0.87235 -0.10200
N 	N 	0.96808 0.85696 0.92274 -0.14800
C 	C 	0.05880 0.69130 0.70080 -0.15100
H 	H 	0.09850 0.67740 0.68250 0.09700
C 	C 	0.05710 0.73530 0.75550 0.03600
H 	H 	0.09670 0.75030 0.77340 0.03100
N 	N 	0.05469 0.17932 0.87235 -0.10700
N 	N 	0.03192 0.14304 0.92274 -0.15700
C 	C 	0.94120 0.30870 0.70080 -0.14500
H 	H 	0.90150 0.32260 0.68250 0.09600
C 	C 	0.94290 0.26470 0.75550 0.04300
H 	H 	0.90330 0.24970 0.77340 0.03000
N 	N 	0.17932 0.94531 0.87235 -0.10400
N 	N 	0.14304 0.96808 0.92274 -0.15000
C 	C 	0.30870 0.05880 0.70080 -0.15100
H 	H 	0.32260 0.09850 0.68250 0.09600
C 	C 	0.26470 0.05710 0.75550 0.03600
H 	H 	0.24970 0.09670 0.77340 0.03100
N 	N 	0.82068 0.05469 0.87235 -0.10700
N 	N 	0.85696 0.03192 0.92274 -0.15700
C 	C 	0.69130 0.94120 0.70080 -0.14400
H 	H 	0.67740 0.90150 0.68250 0.09700
C 	C 	0.73530 0.94290 0.75550 0.04400
H 	H 	0.75030 0.90330 0.77340 0.03100
N 	N 	0.05469 0.82068 0.12765 -0.12400
N 	N 	0.03192 0.85696 0.07726 -0.19600
C 	C 	0.94120 0.69130 0.29920 -0.15500
H 	H 	0.90150 0.67740 0.31750 0.09300
C 	C 	0.94290 0.73530 0.24450 0.04500
H 	H 	0.90330 0.75030 0.22660 0.01600
N 	N 	0.94531 0.17932 0.12765 -0.12200
N 	N 	0.96808 0.14304 0.07726 -0.19100
C 	C 	0.05880 0.30870 0.29920 -0.16100
H 	H 	0.09850 0.32260 0.31750 0.09200
C 	C 	0.05710 0.26470 0.24450 0.03700
H 	H 	0.09670 0.24970 0.22660 0.01600
N 	N 	0.82068 0.94531 0.12765 -0.12100
N 	N 	0.85696 0.96808 0.07726 -0.19000
C 	C 	0.69130 0.05880 0.29920 -0.16100
H 	H 	0.67740 0.09850 0.31750 0.09300
C 	C 	0.73530 0.05710 0.24450 0.03800
H 	H 	0.75030 0.09670 0.22660 0.01600
N 	N 	0.17932 0.05469 0.12765 -0.12500
N 	N 	0.14304 0.03192 0.07726 -0.19600
C 	C 	0.30870 0.94120 0.29920 -0.15600
H 	H 	0.32260 0.90150 0.31750 0.09200
C 	C 	0.26470 0.94290 0.24450 0.04300
H 	H 	0.24970 0.90330 0.22660 0.01600
Mn	Mn	0.00000 0.50000 0.50000 1.30900
Mn	Mn	0.50000 0.00000 0.50000 1.30900
Mn	Mn	0.09427 0.09427 -0.00000 1.18600
Mn	Mn	0.90573 0.90573 -0.00000 1.18700
Mn	Mn	0.90573 0.09427 -0.00000 1.18600
Mn	Mn	0.09427 0.90573 -0.00000 1.18600
Cl	Cl	-0.00000 0.00000 -0.00000 -0.93700
N 	N 	-0.00000 0.40160 0.50000 -0.26900
N 	N 	0.00000 0.59840 0.50000 -0.26900
N 	N 	0.59840 0.00000 0.50000 -0.26900
N 	N 	0.40160 0.00000 0.50000 -0.26900
N 	N 	0.00000 0.50000 0.40020 -0.27400
N 	N 	0.50000 -0.00000 0.40020 -0.27400
N 	N 	0.00000 0.50000 0.59980 -0.27300
N 	N 	0.50000 0.00000 0.59980 -0.27300
C 	C 	0.00000 0.36020 0.44470 0.12200
C 	C 	0.00000 0.37970 0.37950 -0.14500
C 	C 	0.00000 0.44740 0.35820 0.11900
C 	C 	-0.00000 0.29300 0.46720 -0.07900
H 	H 	-0.00000 0.25590 0.43980 0.06500
C 	C 	-0.00000 0.46780 0.29040 -0.08400
H 	H 	0.00000 0.44060 0.25280 0.05600
C 	C 	-0.00000 0.33040 0.32470 0.12700
C 	C 	0.00000 0.24340 0.21710 -0.08400
C 	C 	0.00000 0.20010 0.15760 0.12800
C 	C 	0.00000 0.63980 0.44470 0.12200
C 	C 	0.00000 0.62030 0.37950 -0.14400
C 	C 	0.00000 0.55260 0.35820 0.11900
C 	C 	0.00000 0.70700 0.46720 -0.07900
H 	H 	-0.00000 0.74410 0.43980 0.06600
C 	C 	0.00000 0.53220 0.29040 -0.08400
H 	H 	0.00000 0.55940 0.25280 0.05600
C 	C 	-0.00000 0.66960 0.32470 0.12600
C 	C 	0.00000 0.75660 0.21710 -0.08500
C 	C 	0.00000 0.79990 0.15760 0.12800
C 	C 	0.63980 0.00000 0.44470 0.12200
C 	C 	0.62030 0.00000 0.37950 -0.14400
C 	C 	0.55260 0.00000 0.35820 0.11900
C 	C 	0.70700 0.00000 0.46720 -0.07900
H 	H 	0.74410 -0.00000 0.43980 0.06600
C 	C 	0.53220 -0.00000 0.29040 -0.08400
H 	H 	0.55940 0.00000 0.25280 0.05600
C 	C 	0.66960 0.00000 0.32470 0.12600
C 	C 	0.75660 0.00000 0.21710 -0.08500
C 	C 	0.79990 -0.00000 0.15760 0.12800
C 	C 	0.36020 0.00000 0.44470 0.12200
C 	C 	0.37970 0.00000 0.37950 -0.14500
C 	C 	0.44740 0.00000 0.35820 0.11900
C 	C 	0.29300 0.00000 0.46720 -0.07900
H 	H 	0.25590 -0.00000 0.43980 0.06500
C 	C 	0.46780 -0.00000 0.29040 -0.08400
H 	H 	0.44060 0.00000 0.25280 0.05600
C 	C 	0.33040 0.00000 0.32470 0.12700
C 	C 	0.24340 0.00000 0.21710 -0.08400
C 	C 	0.20010 -0.00000 0.15760 0.12800
C 	C 	0.00000 0.36020 0.55530 0.12200
C 	C 	-0.00000 0.37970 0.62050 -0.14100
C 	C 	0.00000 0.44740 0.64180 0.12200
C 	C 	-0.00000 0.29300 0.53280 -0.07800
H 	H 	-0.00000 0.25590 0.56020 0.06500
C 	C 	-0.00000 0.46780 0.70960 -0.07900
H 	H 	-0.00000 0.44060 0.74720 0.07200
C 	C 	0.00000 0.33040 0.67530 0.12400
C 	C 	-0.00000 0.24340 0.78290 -0.07100
C 	C 	0.00000 0.20010 0.84240 0.13700
C 	C 	0.00000 0.63980 0.55530 0.12200
C 	C 	0.00000 0.62030 0.62050 -0.14100
C 	C 	-0.00000 0.55260 0.64180 0.12200
C 	C 	-0.00000 0.70700 0.53280 -0.07800
H 	H 	-0.00000 0.74410 0.56020 0.06600
C 	C 	0.00000 0.53220 0.70960 -0.07900
H 	H 	-0.00000 0.55940 0.74720 0.07200
C 	C 	0.00000 0.66960 0.67530 0.12300
C 	C 	0.00000 0.75660 0.78290 -0.07100
C 	C 	0.00000 0.79990 0.84240 0.13700
C 	C 	0.36020 0.00000 0.55530 0.12200
C 	C 	0.37970 0.00000 0.62050 -0.14100
C 	C 	0.44740 0.00000 0.64180 0.12200
C 	C 	0.29300 0.00000 0.53280 -0.07800
H 	H 	0.25590 0.00000 0.56020 0.06500
C 	C 	0.46780 0.00000 0.70960 -0.07900
H 	H 	0.44060 -0.00000 0.74720 0.07200
C 	C 	0.33040 0.00000 0.67530 0.12400
C 	C 	0.24340 0.00000 0.78290 -0.07100
C 	C 	0.20010 -0.00000 0.84240 0.13700
C 	C 	0.63980 0.00000 0.55530 0.12200
C 	C 	0.62030 0.00000 0.62050 -0.14100
C 	C 	0.55260 0.00000 0.64180 0.12200
C 	C 	0.70700 0.00000 0.53280 -0.07800
H 	H 	0.74410 0.00000 0.56020 0.06600
C 	C 	0.53220 0.00000 0.70960 -0.07900
H 	H 	0.55940 -0.00000 0.74720 0.07200
C 	C 	0.66960 0.00000 0.67530 0.12300
C 	C 	0.75660 0.00000 0.78290 -0.07100
C 	C 	0.79990 -0.00000 0.84240 0.13700
Cl	Cl	0.12580 0.50000 0.50000 -0.43700
Cl	Cl	0.87420 0.50000 0.50000 -0.43100
Cl	Cl	0.50000 0.12580 0.50000 -0.43700
Cl	Cl	0.50000 0.87420 0.50000 -0.43100
