data_crystal

_cell_length_a 19.86000
_cell_length_b 22.14000
_cell_length_c 11.68440
_cell_angle_alpha 90.00000
_cell_angle_beta  116.31800
_cell_angle_gamma 90.00000

_symmetry_space_group_name_	'P 1'
_symmetry_space_group_name_H-M	'P 1'

loop_
_symmetry_equiv_pos_as_xyz
  x,y,z

loop_
_atom_site_label
_atom_site_type_symbol
_atom_site_fract_x
_atom_site_fract_y
_atom_site_fract_z
_atom_site_charge
Co	Co	0.31289 0.12295 0.61349 1.16200
N 	N 	0.90633 0.31967 0.68700 -0.24300
N 	N 	0.14070 0.20892 0.97050 -0.12000
N 	N 	0.28160 0.14144 0.42280 -0.25200
O 	O 	0.31314 0.12376 0.80240 -0.35900
O 	O 	0.23248 0.17575 0.64040 -0.38100
O 	O 	0.23641 0.05012 0.56290 -0.34200
O 	O 	0.38474 0.05017 0.63930 -0.36100
C 	C 	0.91850 0.27410 0.62350 0.08600
H 	H 	0.88070 0.26420 0.54340 -0.00500
C 	C 	0.98380 0.24110 0.66990 -0.14800
H 	H 	0.99010 0.21070 0.62060 0.08600
C 	C 	0.04000 0.25340 0.79000 0.07500
C 	C 	0.02730 0.29970 0.85960 -0.14200
H 	H 	0.06330 0.30910 0.94160 0.09400
C 	C 	0.96050 0.33110 0.80450 0.08400
H 	H 	0.95270 0.36190 0.85140 0.00400
C 	C 	0.11180 0.22010 0.84530 0.05300
C 	C 	0.14720 0.20360 0.77100 -0.07600
H 	H 	0.12560 0.21230 0.68410 0.07200
C 	C 	0.21550 0.17393 0.82920 -0.01300
C 	C 	0.24480 0.16011 0.95740 -0.07100
H 	H 	0.28970 0.13890 0.99750 0.07000
C 	C 	0.20600 0.17850 0.02560 0.05000
C 	C 	0.32540 0.13040 0.36500 0.09300
H 	H 	0.37310 0.11450 0.41340 -0.00900
C 	C 	0.30340 0.14130 0.23780 -0.15400
H 	H 	0.33570 0.13270 0.20190 0.08900
C 	C 	0.23310 0.16513 0.16300 0.08800
C 	C 	0.18870 0.17700 0.22330 -0.15300
H 	H 	0.14100 0.19340 0.17760 0.09800
C 	C 	0.21480 0.16460 0.35090 0.10000
H 	H 	0.18350 0.17300 0.38900 -0.00800
C 	C 	0.25650 0.15689 0.75280 0.28700
Co	Co	0.81289 0.62295 0.61349 1.16300
N 	N 	0.40633 0.81967 0.68700 -0.24200
N 	N 	0.64070 0.70892 0.97050 -0.12000
N 	N 	0.78160 0.64144 0.42280 -0.25200
O 	O 	0.81314 0.62376 0.80240 -0.35600
O 	O 	0.73248 0.67575 0.64040 -0.38000
O 	O 	0.73641 0.55012 0.56290 -0.34400
O 	O 	0.88474 0.55017 0.63930 -0.36300
C 	C 	0.41850 0.77410 0.62350 0.08700
H 	H 	0.38070 0.76420 0.54340 -0.00500
C 	C 	0.48380 0.74110 0.66990 -0.14700
H 	H 	0.49010 0.71070 0.62060 0.08700
C 	C 	0.54000 0.75340 0.79000 0.07500
C 	C 	0.52730 0.79970 0.85960 -0.14100
H 	H 	0.56330 0.80910 0.94160 0.09400
C 	C 	0.46050 0.83110 0.80450 0.08500
H 	H 	0.45270 0.86190 0.85140 0.00600
C 	C 	0.61180 0.72010 0.84530 0.05400
C 	C 	0.64720 0.70360 0.77100 -0.07600
H 	H 	0.62560 0.71230 0.68410 0.07300
C 	C 	0.71550 0.67393 0.82920 -0.01100
C 	C 	0.74480 0.66011 0.95740 -0.07100
H 	H 	0.78970 0.63890 0.99750 0.07200
C 	C 	0.70600 0.67850 0.02560 0.05200
C 	C 	0.82540 0.63040 0.36500 0.09500
H 	H 	0.87310 0.61450 0.41340 -0.00700
C 	C 	0.80340 0.64130 0.23780 -0.15300
H 	H 	0.83570 0.63270 0.20190 0.09000
C 	C 	0.73310 0.66513 0.16300 0.08800
C 	C 	0.68870 0.67700 0.22330 -0.15200
H 	H 	0.64100 0.69340 0.17760 0.09800
C 	C 	0.71480 0.66460 0.35090 0.10100
H 	H 	0.68350 0.67300 0.38900 -0.00700
C 	C 	0.75650 0.65689 0.75280 0.28700
Co	Co	0.31289 0.87705 0.61349 1.16400
N 	N 	0.90633 0.68033 0.68700 -0.24200
N 	N 	0.14070 0.79108 0.97050 -0.11900
N 	N 	0.28160 0.85856 0.42280 -0.25100
O 	O 	0.31314 0.87624 0.80240 -0.35300
O 	O 	0.23248 0.82425 0.64040 -0.37900
O 	O 	0.23641 0.94988 0.56290 -0.32100
O 	O 	0.38474 0.94983 0.63930 -0.34000
C 	C 	0.91850 0.72590 0.62350 0.08700
H 	H 	0.88070 0.73580 0.54340 -0.00500
C 	C 	0.98380 0.75890 0.66990 -0.14800
H 	H 	0.99010 0.78930 0.62060 0.08800
C 	C 	0.04000 0.74660 0.79000 0.07600
C 	C 	0.02730 0.70030 0.85960 -0.14200
H 	H 	0.06330 0.69090 0.94160 0.09400
C 	C 	0.96050 0.66890 0.80450 0.08500
H 	H 	0.95270 0.63810 0.85140 0.00400
C 	C 	0.11180 0.77990 0.84530 0.05500
C 	C 	0.14720 0.79640 0.77100 -0.07600
H 	H 	0.12560 0.78770 0.68410 0.07300
C 	C 	0.21550 0.82607 0.82920 -0.00800
C 	C 	0.24480 0.83989 0.95740 -0.07100
H 	H 	0.28970 0.86110 0.99750 0.07400
C 	C 	0.20600 0.82150 0.02560 0.05300
C 	C 	0.32540 0.86960 0.36500 0.09700
H 	H 	0.37310 0.88550 0.41340 -0.00400
C 	C 	0.30340 0.85870 0.23780 -0.15200
H 	H 	0.33570 0.86730 0.20190 0.09200
C 	C 	0.23310 0.83487 0.16300 0.09000
C 	C 	0.18870 0.82300 0.22330 -0.15100
H 	H 	0.14100 0.80660 0.17760 0.09900
C 	C 	0.21480 0.83540 0.35090 0.10200
H 	H 	0.18350 0.82700 0.38900 -0.00700
C 	C 	0.25650 0.84311 0.75280 0.28600
Co	Co	0.81289 0.37705 0.61349 1.16300
N 	N 	0.40633 0.18033 0.68700 -0.24300
N 	N 	0.64070 0.29108 0.97050 -0.12000
N 	N 	0.78160 0.35856 0.42280 -0.25200
O 	O 	0.81314 0.37624 0.80240 -0.35600
O 	O 	0.73248 0.32425 0.64040 -0.38000
O 	O 	0.73641 0.44988 0.56290 -0.34400
O 	O 	0.88474 0.44983 0.63930 -0.36300
C 	C 	0.41850 0.22590 0.62350 0.08600
H 	H 	0.38070 0.23580 0.54340 -0.00500
C 	C 	0.48380 0.25890 0.66990 -0.14800
H 	H 	0.49010 0.28930 0.62060 0.08700
C 	C 	0.54000 0.24660 0.79000 0.07500
C 	C 	0.52730 0.20030 0.85960 -0.14300
H 	H 	0.56330 0.19090 0.94160 0.09300
C 	C 	0.46050 0.16890 0.80450 0.08500
H 	H 	0.45270 0.13810 0.85140 0.00200
C 	C 	0.61180 0.27990 0.84530 0.05400
C 	C 	0.64720 0.29640 0.77100 -0.07600
H 	H 	0.62560 0.28770 0.68410 0.07200
C 	C 	0.71550 0.32607 0.82920 -0.01000
C 	C 	0.74480 0.33989 0.95740 -0.07100
H 	H 	0.78970 0.36110 0.99750 0.07200
C 	C 	0.70600 0.32150 0.02560 0.05200
C 	C 	0.82540 0.36960 0.36500 0.09500
H 	H 	0.87310 0.38550 0.41340 -0.00600
C 	C 	0.80340 0.35870 0.23780 -0.15300
H 	H 	0.83570 0.36730 0.20190 0.09000
C 	C 	0.73310 0.33487 0.16300 0.08800
C 	C 	0.68870 0.32300 0.22330 -0.15200
H 	H 	0.64100 0.30660 0.17760 0.09900
C 	C 	0.71480 0.33540 0.35090 0.10100
H 	H 	0.68350 0.32700 0.38900 -0.00700
C 	C 	0.75650 0.34311 0.75280 0.28700
C 	C 	0.26710 0.00000 0.57860 0.19700
C 	C 	0.35320 0.00000 0.62270 0.19900
C 	C 	0.76710 0.50000 0.57860 0.22300
C 	C 	0.85320 0.50000 0.62270 0.22400
Co	Co	0.68711 0.12295 0.38651 1.16300
N 	N 	0.09367 0.31967 0.31300 -0.24200
N 	N 	0.85930 0.20892 0.02950 -0.12000
N 	N 	0.71840 0.14144 0.57720 -0.25200
O 	O 	0.68686 0.12376 0.19760 -0.35900
O 	O 	0.76752 0.17575 0.35960 -0.38100
O 	O 	0.76359 0.05012 0.43710 -0.34200
O 	O 	0.61526 0.05017 0.36070 -0.36100
C 	C 	0.08150 0.27410 0.37650 0.08600
H 	H 	0.11930 0.26420 0.45660 -0.00500
C 	C 	0.01620 0.24110 0.33010 -0.14800
H 	H 	0.00990 0.21070 0.37940 0.08600
C 	C 	0.96000 0.25340 0.21000 0.07500
C 	C 	0.97270 0.29970 0.14040 -0.14200
H 	H 	0.93670 0.30910 0.05840 0.09400
C 	C 	0.03950 0.33110 0.19550 0.08400
H 	H 	0.04730 0.36190 0.14860 0.00400
C 	C 	0.88820 0.22010 0.15470 0.05300
C 	C 	0.85280 0.20360 0.22900 -0.07600
H 	H 	0.87440 0.21230 0.31590 0.07200
C 	C 	0.78450 0.17393 0.17080 -0.01300
C 	C 	0.75520 0.16011 0.04260 -0.07100
H 	H 	0.71030 0.13890 0.00250 0.07000
C 	C 	0.79400 0.17850 0.97440 0.05000
C 	C 	0.67460 0.13040 0.63500 0.09300
H 	H 	0.62690 0.11450 0.58660 -0.00900
C 	C 	0.69660 0.14130 0.76220 -0.15400
H 	H 	0.66430 0.13270 0.79810 0.08900
C 	C 	0.76690 0.16513 0.83700 0.08800
C 	C 	0.81130 0.17700 0.77670 -0.15300
H 	H 	0.85900 0.19340 0.82240 0.09800
C 	C 	0.78520 0.16460 0.64910 0.10000
H 	H 	0.81650 0.17300 0.61100 -0.00800
C 	C 	0.74350 0.15689 0.24720 0.28700
Co	Co	0.18711 0.62295 0.38651 1.16300
N 	N 	0.59367 0.81967 0.31300 -0.24200
N 	N 	0.35930 0.70892 0.02950 -0.12000
N 	N 	0.21840 0.64144 0.57720 -0.25200
O 	O 	0.18686 0.62376 0.19760 -0.35600
O 	O 	0.26752 0.67575 0.35960 -0.38000
O 	O 	0.26359 0.55012 0.43710 -0.34400
O 	O 	0.11526 0.55017 0.36070 -0.36300
C 	C 	0.58150 0.77410 0.37650 0.08700
H 	H 	0.61930 0.76420 0.45660 -0.00500
C 	C 	0.51620 0.74110 0.33010 -0.14700
H 	H 	0.50990 0.71070 0.37940 0.08700
C 	C 	0.46000 0.75340 0.21000 0.07500
C 	C 	0.47270 0.79970 0.14040 -0.14100
H 	H 	0.43670 0.80910 0.05840 0.09400
C 	C 	0.53950 0.83110 0.19550 0.08500
H 	H 	0.54730 0.86190 0.14860 0.00600
C 	C 	0.38820 0.72010 0.15470 0.05400
C 	C 	0.35280 0.70360 0.22900 -0.07600
H 	H 	0.37440 0.71230 0.31590 0.07300
C 	C 	0.28450 0.67393 0.17080 -0.01100
C 	C 	0.25520 0.66011 0.04260 -0.07100
H 	H 	0.21030 0.63890 0.00250 0.07200
C 	C 	0.29400 0.67850 0.97440 0.05200
C 	C 	0.17460 0.63040 0.63500 0.09500
H 	H 	0.12690 0.61450 0.58660 -0.00700
C 	C 	0.19660 0.64130 0.76220 -0.15300
H 	H 	0.16430 0.63270 0.79810 0.09000
C 	C 	0.26690 0.66513 0.83700 0.08800
C 	C 	0.31130 0.67700 0.77670 -0.15200
H 	H 	0.35900 0.69340 0.82240 0.09800
C 	C 	0.28520 0.66460 0.64910 0.10100
H 	H 	0.31650 0.67300 0.61100 -0.00700
C 	C 	0.24350 0.65689 0.24720 0.28700
Co	Co	0.68711 0.87705 0.38651 1.16400
N 	N 	0.09367 0.68033 0.31300 -0.24200
N 	N 	0.85930 0.79108 0.02950 -0.11900
N 	N 	0.71840 0.85856 0.57720 -0.25100
O 	O 	0.68686 0.87624 0.19760 -0.35300
O 	O 	0.76752 0.82425 0.35960 -0.37900
O 	O 	0.76359 0.94988 0.43710 -0.32100
O 	O 	0.61526 0.94983 0.36070 -0.34000
C 	C 	0.08150 0.72590 0.37650 0.08700
H 	H 	0.11930 0.73580 0.45660 -0.00500
C 	C 	0.01620 0.75890 0.33010 -0.14800
H 	H 	0.00990 0.78930 0.37940 0.08800
C 	C 	0.96000 0.74660 0.21000 0.07600
C 	C 	0.97270 0.70030 0.14040 -0.14200
H 	H 	0.93670 0.69090 0.05840 0.09400
C 	C 	0.03950 0.66890 0.19550 0.08500
H 	H 	0.04730 0.63810 0.14860 0.00400
C 	C 	0.88820 0.77990 0.15470 0.05500
C 	C 	0.85280 0.79640 0.22900 -0.07600
H 	H 	0.87440 0.78770 0.31590 0.07300
C 	C 	0.78450 0.82607 0.17080 -0.00800
C 	C 	0.75520 0.83989 0.04260 -0.07100
H 	H 	0.71030 0.86110 0.00250 0.07400
C 	C 	0.79400 0.82150 0.97440 0.05300
C 	C 	0.67460 0.86960 0.63500 0.09700
H 	H 	0.62690 0.88550 0.58660 -0.00400
C 	C 	0.69660 0.85870 0.76220 -0.15200
H 	H 	0.66430 0.86730 0.79810 0.09200
C 	C 	0.76690 0.83487 0.83700 0.09000
C 	C 	0.81130 0.82300 0.77670 -0.15100
H 	H 	0.85900 0.80660 0.82240 0.09900
C 	C 	0.78520 0.83540 0.64910 0.10200
H 	H 	0.81650 0.82700 0.61100 -0.00700
C 	C 	0.74350 0.84311 0.24720 0.28600
Co	Co	0.18711 0.37705 0.38651 1.16300
N 	N 	0.59367 0.18033 0.31300 -0.24300
N 	N 	0.35930 0.29108 0.02950 -0.12000
N 	N 	0.21840 0.35856 0.57720 -0.25200
O 	O 	0.18686 0.37624 0.19760 -0.35600
O 	O 	0.26752 0.32425 0.35960 -0.38000
O 	O 	0.26359 0.44988 0.43710 -0.34400
O 	O 	0.11526 0.44983 0.36070 -0.36300
C 	C 	0.58150 0.22590 0.37650 0.08600
H 	H 	0.61930 0.23580 0.45660 -0.00500
C 	C 	0.51620 0.25890 0.33010 -0.14800
H 	H 	0.50990 0.28930 0.37940 0.08700
C 	C 	0.46000 0.24660 0.21000 0.07500
C 	C 	0.47270 0.20030 0.14040 -0.14300
H 	H 	0.43670 0.19090 0.05840 0.09300
C 	C 	0.53950 0.16890 0.19550 0.08500
H 	H 	0.54730 0.13810 0.14860 0.00200
C 	C 	0.38820 0.27990 0.15470 0.05400
C 	C 	0.35280 0.29640 0.22900 -0.07600
H 	H 	0.37440 0.28770 0.31590 0.07200
C 	C 	0.28450 0.32607 0.17080 -0.01000
C 	C 	0.25520 0.33989 0.04260 -0.07100
H 	H 	0.21030 0.36110 0.00250 0.07200
C 	C 	0.29400 0.32150 0.97440 0.05200
C 	C 	0.17460 0.36960 0.63500 0.09500
H 	H 	0.12690 0.38550 0.58660 -0.00600
C 	C 	0.19660 0.35870 0.76220 -0.15300
H 	H 	0.16430 0.36730 0.79810 0.09000
C 	C 	0.26690 0.33487 0.83700 0.08800
C 	C 	0.31130 0.32300 0.77670 -0.15200
H 	H 	0.35900 0.30660 0.82240 0.09900
C 	C 	0.28520 0.33540 0.64910 0.10100
H 	H 	0.31650 0.32700 0.61100 -0.00700
C 	C 	0.24350 0.34311 0.24720 0.28700
C 	C 	0.73290 0.00000 0.42140 0.19700
C 	C 	0.64680 0.00000 0.37730 0.19900
C 	C 	0.23290 0.50000 0.42140 0.22300
C 	C 	0.14680 0.50000 0.37730 0.22400
