data_crystal

_cell_length_a 19.67000
_cell_length_b 22.23900
_cell_length_c 11.63920
_cell_angle_alpha 90.00000
_cell_angle_beta  116.74600
_cell_angle_gamma 90.00000

_symmetry_space_group_name_	'P 1'
_symmetry_space_group_name_H-M	'P 1'

loop_
_symmetry_equiv_pos_as_xyz
  x,y,z

loop_
_atom_site_label
_atom_site_type_symbol
_atom_site_fract_x
_atom_site_fract_y
_atom_site_fract_z
_atom_site_charge
Ni	Ni	0.18936 0.12040 0.38787 1.10200
N 	N 	0.21880 0.13830 0.57560 -0.24100
N 	N 	0.35960 0.20940 0.03030 -0.12100
N 	N 	0.59810 0.32120 0.31530 -0.23200
O 	O 	0.26800 0.17687 0.36360 -0.36400
O 	O 	0.19040 0.11990 0.20360 -0.35200
O 	O 	0.26734 0.05006 0.44070 -0.33300
O 	O 	0.11638 0.05010 0.36450 -0.35200
C 	C 	0.17400 0.12820 0.63260 0.08800
H 	H 	0.12600 0.11190 0.58340 -0.00200
C 	C 	0.19540 0.14060 0.75990 -0.14200
H 	H 	0.16190 0.13290 0.79450 0.08500
C 	C 	0.26740 0.16460 0.83750 0.07500
C 	C 	0.31330 0.17560 0.77840 -0.13600
H 	H 	0.36150 0.19220 0.82500 0.09300
C 	C 	0.28740 0.16190 0.64970 0.08500
H 	H 	0.31960 0.16940 0.61230 0.00200
C 	C 	0.29490 0.17880 0.97550 0.05900
C 	C 	0.25630 0.16010 0.04520 -0.07900
H 	H 	0.21120 0.13840 0.00500 0.07300
C 	C 	0.28580 0.17420 0.17390 -0.00400
C 	C 	0.35470 0.20460 0.23230 -0.08100
H 	H 	0.37680 0.21350 0.31970 0.07300
C 	C 	0.39000 0.22130 0.15650 0.05600
C 	C 	0.58780 0.27520 0.38080 0.07700
H 	H 	0.62690 0.26510 0.46080 0.00300
C 	C 	0.52060 0.24230 0.33260 -0.13800
H 	H 	0.51460 0.21180 0.38190 0.08300
C 	C 	0.46290 0.25460 0.21240 0.06900
C 	C 	0.47480 0.30160 0.14270 -0.13700
H 	H 	0.43800 0.31110 0.06020 0.09200
C 	C 	0.54210 0.33350 0.19890 0.08300
H 	H 	0.54890 0.36530 0.15310 0.00600
C 	C 	0.24510 0.15580 0.25120 0.27400
Ni	Ni	0.68936 0.62040 0.38787 1.10100
N 	N 	0.71880 0.63830 0.57560 -0.24100
N 	N 	0.85960 0.70940 0.03030 -0.12200
N 	N 	0.09810 0.82120 0.31530 -0.23300
O 	O 	0.76800 0.67687 0.36360 -0.36300
O 	O 	0.69040 0.61990 0.20360 -0.34900
O 	O 	0.76734 0.55006 0.44070 -0.33400
O 	O 	0.61638 0.55010 0.36450 -0.35400
C 	C 	0.67400 0.62820 0.63260 0.08900
H 	H 	0.62600 0.61190 0.58340 0.00000
C 	C 	0.69540 0.64060 0.75990 -0.14100
H 	H 	0.66190 0.63290 0.79450 0.08600
C 	C 	0.76740 0.66460 0.83750 0.07600
C 	C 	0.81330 0.67560 0.77840 -0.13500
H 	H 	0.86150 0.69220 0.82500 0.09400
C 	C 	0.78740 0.66190 0.64970 0.08600
H 	H 	0.81960 0.66940 0.61230 0.00200
C 	C 	0.79490 0.67880 0.97550 0.06000
C 	C 	0.75630 0.66010 0.04520 -0.07900
H 	H 	0.71120 0.63840 0.00500 0.07500
C 	C 	0.78580 0.67420 0.17390 -0.00200
C 	C 	0.85470 0.70460 0.23230 -0.08100
H 	H 	0.87680 0.71350 0.31970 0.07400
C 	C 	0.89000 0.72130 0.15650 0.05700
C 	C 	0.08780 0.77520 0.38080 0.07800
H 	H 	0.12690 0.76510 0.46080 0.00300
C 	C 	0.02060 0.74230 0.33260 -0.13800
H 	H 	0.01460 0.71180 0.38190 0.08400
C 	C 	0.96290 0.75460 0.21240 0.07000
C 	C 	0.97480 0.80160 0.14270 -0.13600
H 	H 	0.93800 0.81110 0.06020 0.09200
C 	C 	0.04210 0.83350 0.19890 0.08300
H 	H 	0.04890 0.86530 0.15310 0.00800
C 	C 	0.74510 0.65580 0.25120 0.27400
Ni	Ni	0.18936 0.87960 0.38787 1.10200
N 	N 	0.21880 0.86170 0.57560 -0.24100
N 	N 	0.35960 0.79060 0.03030 -0.12200
N 	N 	0.59810 0.67880 0.31530 -0.23300
O 	O 	0.26800 0.82313 0.36360 -0.36200
O 	O 	0.19040 0.88010 0.20360 -0.34600
O 	O 	0.26734 0.94994 0.44070 -0.31200
O 	O 	0.11638 0.94990 0.36450 -0.33200
C 	C 	0.17400 0.87180 0.63260 0.09100
H 	H 	0.12600 0.88810 0.58340 0.00200
C 	C 	0.19540 0.85940 0.75990 -0.14000
H 	H 	0.16190 0.86710 0.79450 0.08800
C 	C 	0.26740 0.83540 0.83750 0.07700
C 	C 	0.31330 0.82440 0.77840 -0.13400
H 	H 	0.36150 0.80780 0.82500 0.09500
C 	C 	0.28740 0.83810 0.64970 0.08800
H 	H 	0.31960 0.83060 0.61230 0.00300
C 	C 	0.29490 0.82120 0.97550 0.06200
C 	C 	0.25630 0.83990 0.04520 -0.07900
H 	H 	0.21120 0.86160 0.00500 0.07700
C 	C 	0.28580 0.82580 0.17390 0.00000
C 	C 	0.35470 0.79540 0.23230 -0.08100
H 	H 	0.37680 0.78650 0.31970 0.07400
C 	C 	0.39000 0.77870 0.15650 0.05800
C 	C 	0.58780 0.72480 0.38080 0.07800
H 	H 	0.62690 0.73490 0.46080 0.00300
C 	C 	0.52060 0.75770 0.33260 -0.13800
H 	H 	0.51460 0.78820 0.38190 0.08500
C 	C 	0.46290 0.74540 0.21240 0.07000
C 	C 	0.47480 0.69840 0.14270 -0.13700
H 	H 	0.43800 0.68890 0.06020 0.09200
C 	C 	0.54210 0.66650 0.19890 0.08400
H 	H 	0.54890 0.63470 0.15310 0.00600
C 	C 	0.24510 0.84420 0.25120 0.27300
Ni	Ni	0.68936 0.37960 0.38787 1.10100
N 	N 	0.71880 0.36170 0.57560 -0.24100
N 	N 	0.85960 0.29060 0.03030 -0.12200
N 	N 	0.09810 0.17880 0.31530 -0.23400
O 	O 	0.76800 0.32313 0.36360 -0.36300
O 	O 	0.69040 0.38010 0.20360 -0.34900
O 	O 	0.76734 0.44994 0.44070 -0.33400
O 	O 	0.61638 0.44990 0.36450 -0.35400
C 	C 	0.67400 0.37180 0.63260 0.08900
H 	H 	0.62600 0.38810 0.58340 0.00000
C 	C 	0.69540 0.35940 0.75990 -0.14100
H 	H 	0.66190 0.36710 0.79450 0.08600
C 	C 	0.76740 0.33540 0.83750 0.07600
C 	C 	0.81330 0.32440 0.77840 -0.13500
H 	H 	0.86150 0.30780 0.82500 0.09400
C 	C 	0.78740 0.33810 0.64970 0.08600
H 	H 	0.81960 0.33060 0.61230 0.00200
C 	C 	0.79490 0.32120 0.97550 0.06000
C 	C 	0.75630 0.33990 0.04520 -0.07800
H 	H 	0.71120 0.36160 0.00500 0.07500
C 	C 	0.78580 0.32580 0.17390 -0.00200
C 	C 	0.85470 0.29540 0.23230 -0.08000
H 	H 	0.87680 0.28650 0.31970 0.07400
C 	C 	0.89000 0.27870 0.15650 0.05700
C 	C 	0.08780 0.22480 0.38080 0.07700
H 	H 	0.12690 0.23490 0.46080 0.00300
C 	C 	0.02060 0.25770 0.33260 -0.13900
H 	H 	0.01460 0.28820 0.38190 0.08400
C 	C 	0.96290 0.24540 0.21240 0.07000
C 	C 	0.97480 0.19840 0.14270 -0.13800
H 	H 	0.93800 0.18890 0.06020 0.09100
C 	C 	0.04210 0.16650 0.19890 0.08300
H 	H 	0.04890 0.13470 0.15310 0.00400
C 	C 	0.74510 0.34420 0.25120 0.27400
C 	C 	0.23590 0.00000 0.42490 0.19200
C 	C 	0.14840 0.00000 0.38100 0.19700
C 	C 	0.73590 0.50000 0.42490 0.21700
C 	C 	0.64840 0.50000 0.38100 0.22100
Ni	Ni	0.81064 0.12040 0.61213 1.10100
N 	N 	0.78120 0.13830 0.42440 -0.24200
N 	N 	0.64040 0.20940 0.96970 -0.12200
N 	N 	0.40190 0.32120 0.68470 -0.23300
O 	O 	0.73200 0.17687 0.63640 -0.36400
O 	O 	0.80960 0.11990 0.79640 -0.35200
O 	O 	0.73266 0.05006 0.55930 -0.33300
O 	O 	0.88362 0.05010 0.63550 -0.35200
C 	C 	0.82600 0.12820 0.36740 0.08800
H 	H 	0.87400 0.11190 0.41660 -0.00200
C 	C 	0.80460 0.14060 0.24010 -0.14200
H 	H 	0.83810 0.13290 0.20550 0.08500
C 	C 	0.73260 0.16460 0.16250 0.07500
C 	C 	0.68670 0.17560 0.22160 -0.13600
H 	H 	0.63850 0.19220 0.17500 0.09300
C 	C 	0.71260 0.16190 0.35030 0.08500
H 	H 	0.68040 0.16940 0.38770 0.00200
C 	C 	0.70510 0.17880 0.02450 0.05900
C 	C 	0.74370 0.16010 0.95480 -0.07900
H 	H 	0.78880 0.13840 0.99500 0.07300
C 	C 	0.71420 0.17420 0.82610 -0.00400
C 	C 	0.64530 0.20460 0.76770 -0.08100
H 	H 	0.62320 0.21350 0.68030 0.07300
C 	C 	0.61000 0.22130 0.84350 0.05600
C 	C 	0.41220 0.27520 0.61920 0.07700
H 	H 	0.37310 0.26510 0.53920 0.00300
C 	C 	0.47940 0.24230 0.66740 -0.13800
H 	H 	0.48540 0.21180 0.61810 0.08300
C 	C 	0.53710 0.25460 0.78760 0.06900
C 	C 	0.52520 0.30160 0.85730 -0.13700
H 	H 	0.56200 0.31110 0.93980 0.09200
C 	C 	0.45790 0.33350 0.80110 0.08300
H 	H 	0.45110 0.36530 0.84690 0.00600
C 	C 	0.75490 0.15580 0.74880 0.27400
Ni	Ni	0.31064 0.62040 0.61213 1.10100
N 	N 	0.28120 0.63830 0.42440 -0.24100
N 	N 	0.14040 0.70940 0.96970 -0.12200
N 	N 	0.90190 0.82120 0.68470 -0.23300
O 	O 	0.23200 0.67687 0.63640 -0.36300
O 	O 	0.30960 0.61990 0.79640 -0.34900
O 	O 	0.23266 0.55006 0.55930 -0.33400
O 	O 	0.38362 0.55010 0.63550 -0.35400
C 	C 	0.32600 0.62820 0.36740 0.08900
H 	H 	0.37400 0.61190 0.41660 0.00000
C 	C 	0.30460 0.64060 0.24010 -0.14100
H 	H 	0.33810 0.63290 0.20550 0.08600
C 	C 	0.23260 0.66460 0.16250 0.07600
C 	C 	0.18670 0.67560 0.22160 -0.13500
H 	H 	0.13850 0.69220 0.17500 0.09400
C 	C 	0.21260 0.66190 0.35030 0.08600
H 	H 	0.18040 0.66940 0.38770 0.00200
C 	C 	0.20510 0.67880 0.02450 0.06000
C 	C 	0.24370 0.66010 0.95480 -0.07900
H 	H 	0.28880 0.63840 0.99500 0.07500
C 	C 	0.21420 0.67420 0.82610 -0.00200
C 	C 	0.14530 0.70460 0.76770 -0.08100
H 	H 	0.12320 0.71350 0.68030 0.07400
C 	C 	0.11000 0.72130 0.84350 0.05700
C 	C 	0.91220 0.77520 0.61920 0.07800
H 	H 	0.87310 0.76510 0.53920 0.00300
C 	C 	0.97940 0.74230 0.66740 -0.13800
H 	H 	0.98540 0.71180 0.61810 0.08400
C 	C 	0.03710 0.75460 0.78760 0.07000
C 	C 	0.02520 0.80160 0.85730 -0.13600
H 	H 	0.06200 0.81110 0.93980 0.09200
C 	C 	0.95790 0.83350 0.80110 0.08300
H 	H 	0.95110 0.86530 0.84690 0.00800
C 	C 	0.25490 0.65580 0.74880 0.27400
Ni	Ni	0.81064 0.87960 0.61213 1.10200
N 	N 	0.78120 0.86170 0.42440 -0.24100
N 	N 	0.64040 0.79060 0.96970 -0.12200
N 	N 	0.40190 0.67880 0.68470 -0.23300
O 	O 	0.73200 0.82313 0.63640 -0.36200
O 	O 	0.80960 0.88010 0.79640 -0.34600
O 	O 	0.73266 0.94994 0.55930 -0.31200
O 	O 	0.88362 0.94990 0.63550 -0.33200
C 	C 	0.82600 0.87180 0.36740 0.09100
H 	H 	0.87400 0.88810 0.41660 0.00200
C 	C 	0.80460 0.85940 0.24010 -0.14000
H 	H 	0.83810 0.86710 0.20550 0.08800
C 	C 	0.73260 0.83540 0.16250 0.07700
C 	C 	0.68670 0.82440 0.22160 -0.13400
H 	H 	0.63850 0.80780 0.17500 0.09500
C 	C 	0.71260 0.83810 0.35030 0.08800
H 	H 	0.68040 0.83060 0.38770 0.00300
C 	C 	0.70510 0.82120 0.02450 0.06200
C 	C 	0.74370 0.83990 0.95480 -0.07900
H 	H 	0.78880 0.86160 0.99500 0.07700
C 	C 	0.71420 0.82580 0.82610 0.00000
C 	C 	0.64530 0.79540 0.76770 -0.08100
H 	H 	0.62320 0.78650 0.68030 0.07400
C 	C 	0.61000 0.77870 0.84350 0.05800
C 	C 	0.41220 0.72480 0.61920 0.07800
H 	H 	0.37310 0.73490 0.53920 0.00300
C 	C 	0.47940 0.75770 0.66740 -0.13800
H 	H 	0.48540 0.78820 0.61810 0.08500
C 	C 	0.53710 0.74540 0.78760 0.07000
C 	C 	0.52520 0.69840 0.85730 -0.13700
H 	H 	0.56200 0.68890 0.93980 0.09200
C 	C 	0.45790 0.66650 0.80110 0.08400
H 	H 	0.45110 0.63470 0.84690 0.00600
C 	C 	0.75490 0.84420 0.74880 0.27300
Ni	Ni	0.31064 0.37960 0.61213 1.10100
N 	N 	0.28120 0.36170 0.42440 -0.24100
N 	N 	0.14040 0.29060 0.96970 -0.12200
N 	N 	0.90190 0.17880 0.68470 -0.23400
O 	O 	0.23200 0.32313 0.63640 -0.36300
O 	O 	0.30960 0.38010 0.79640 -0.34900
O 	O 	0.23266 0.44994 0.55930 -0.33400
O 	O 	0.38362 0.44990 0.63550 -0.35400
C 	C 	0.32600 0.37180 0.36740 0.08900
H 	H 	0.37400 0.38810 0.41660 0.00000
C 	C 	0.30460 0.35940 0.24010 -0.14100
H 	H 	0.33810 0.36710 0.20550 0.08600
C 	C 	0.23260 0.33540 0.16250 0.07600
C 	C 	0.18670 0.32440 0.22160 -0.13500
H 	H 	0.13850 0.30780 0.17500 0.09400
C 	C 	0.21260 0.33810 0.35030 0.08600
H 	H 	0.18040 0.33060 0.38770 0.00200
C 	C 	0.20510 0.32120 0.02450 0.06000
C 	C 	0.24370 0.33990 0.95480 -0.07800
H 	H 	0.28880 0.36160 0.99500 0.07500
C 	C 	0.21420 0.32580 0.82610 -0.00200
C 	C 	0.14530 0.29540 0.76770 -0.08000
H 	H 	0.12320 0.28650 0.68030 0.07400
C 	C 	0.11000 0.27870 0.84350 0.05700
C 	C 	0.91220 0.22480 0.61920 0.07700
H 	H 	0.87310 0.23490 0.53920 0.00300
C 	C 	0.97940 0.25770 0.66740 -0.13900
H 	H 	0.98540 0.28820 0.61810 0.08400
C 	C 	0.03710 0.24540 0.78760 0.07000
C 	C 	0.02520 0.19840 0.85730 -0.13800
H 	H 	0.06200 0.18890 0.93980 0.09100
C 	C 	0.95790 0.16650 0.80110 0.08300
H 	H 	0.95110 0.13470 0.84690 0.00400
C 	C 	0.25490 0.34420 0.74880 0.27400
C 	C 	0.76410 0.00000 0.57510 0.19200
C 	C 	0.85160 0.00000 0.61900 0.19700
C 	C 	0.26410 0.50000 0.57510 0.21700
C 	C 	0.35160 0.50000 0.61900 0.22100
