data_crystal

_cell_length_a 12.40000
_cell_length_b 15.30000
_cell_length_c 20.09000
_cell_angle_alpha 90.00000
_cell_angle_beta  103.70000
_cell_angle_gamma 90.00000

_symmetry_space_group_name_	'P 1'
_symmetry_space_group_name_H-M	'P 1'

loop_
_symmetry_equiv_pos_as_xyz
  x,y,z

loop_
_atom_site_label
_atom_site_type_symbol
_atom_site_fract_x
_atom_site_fract_y
_atom_site_fract_z
_atom_site_charge
Cu	Cu	0.15053 0.78490 0.78186 0.85400
Cu	Cu	0.84947 0.28490 0.71814 0.85400
Cu	Cu	0.84947 0.21510 0.21814 0.85400
Cu	Cu	0.15053 0.71510 0.28186 0.85400
H 	H 	0.26630 0.80560 0.94240 -0.01900
H 	H 	0.28440 0.60830 0.82550 -0.01800
H 	H 	0.41010 0.75580 0.05180 0.07000
H 	H 	0.39280 0.65500 0.05940 0.08400
H 	H 	0.54100 0.55370 0.05530 0.06000
H 	H 	0.72220 0.52770 0.05200 0.07300
H 	H 	0.76470 0.78070 0.02100 0.05500
H 	H 	0.58370 0.80770 0.02270 0.05000
H 	H 	0.87990 0.57900 0.00570 0.09100
H 	H 	0.90390 0.67960 0.00580 0.08000
H 	H 	0.10640 0.52290 0.21070 -0.00900
H 	H 	0.97670 0.74440 0.13980 -0.01700
H 	H 	0.04420 0.64680 0.86810 -0.00000
H 	H 	0.89910 0.84570 0.76610 -0.00800
H 	H 	0.71630 0.79920 0.85880 0.07100
H 	H 	0.70060 0.82220 0.78090 0.07000
H 	H 	0.63050 0.70660 0.69390 0.06200
H 	H 	0.53390 0.57600 0.66790 0.04700
H 	H 	0.53920 0.54270 0.86440 0.05900
H 	H 	0.63750 0.67010 0.89110 0.06700
H 	H 	0.43180 0.45500 0.70190 0.06200
H 	H 	0.42940 0.44450 0.77940 0.07100
H 	H 	0.62920 0.39910 0.67480 -0.01900
H 	H 	0.72370 0.26040 0.83800 -0.01900
H 	H 	0.73370 0.30560 0.55760 -0.02000
H 	H 	0.71560 0.10830 0.67450 -0.01900
H 	H 	0.58990 0.25580 0.44820 0.06900
H 	H 	0.60720 0.15500 0.44060 0.08300
H 	H 	0.45900 0.05370 0.44470 0.05900
H 	H 	0.27780 0.02770 0.44800 0.07200
H 	H 	0.23530 0.28070 0.47900 0.05400
H 	H 	0.41630 0.30770 0.47730 0.04900
H 	H 	0.12010 0.07900 0.49430 0.09100
H 	H 	0.09610 0.17960 0.49420 0.08000
H 	H 	0.89360 0.02290 0.28930 -0.00900
H 	H 	0.02330 0.24440 0.36020 -0.01700
H 	H 	0.95580 0.14680 0.63190 -0.00100
H 	H 	0.10090 0.34570 0.73390 -0.00800
H 	H 	0.28370 0.29920 0.64120 0.07100
H 	H 	0.29940 0.32220 0.71910 0.07000
H 	H 	0.36950 0.20660 0.80610 0.06200
H 	H 	0.46610 0.07600 0.83210 0.04700
H 	H 	0.46080 0.04270 0.63560 0.05900
H 	H 	0.36250 0.17010 0.60890 0.06700
H 	H 	0.56820 0.95500 0.79810 0.06200
H 	H 	0.57060 0.94450 0.72060 0.07100
H 	H 	0.37080 0.89910 0.82520 -0.01900
H 	H 	0.27630 0.76040 0.66200 -0.01900
H 	H 	0.73370 0.19440 0.05760 -0.02000
H 	H 	0.71560 0.39170 0.17450 -0.01900
H 	H 	0.58990 0.24420 0.94820 0.06900
H 	H 	0.60720 0.34500 0.94060 0.08300
H 	H 	0.45900 0.44630 0.94470 0.05900
H 	H 	0.27780 0.47230 0.94800 0.07200
H 	H 	0.23530 0.21930 0.97900 0.05400
H 	H 	0.41630 0.19230 0.97730 0.04900
H 	H 	0.12010 0.42100 0.99430 0.09100
H 	H 	0.09610 0.32040 0.99420 0.08000
H 	H 	0.89360 0.47710 0.78930 -0.00900
H 	H 	0.02330 0.25560 0.86020 -0.01700
H 	H 	0.95580 0.35320 0.13190 -0.00000
H 	H 	0.10090 0.15430 0.23390 -0.00800
H 	H 	0.28370 0.20080 0.14120 0.07100
H 	H 	0.29940 0.17780 0.21910 0.07000
H 	H 	0.36950 0.29340 0.30610 0.06200
H 	H 	0.46610 0.42400 0.33210 0.04700
H 	H 	0.46080 0.45730 0.13560 0.05900
H 	H 	0.36250 0.32990 0.10890 0.06700
H 	H 	0.56820 0.54500 0.29810 0.06200
H 	H 	0.57060 0.55550 0.22060 0.07100
H 	H 	0.37080 0.60090 0.32520 -0.01900
H 	H 	0.27630 0.73960 0.16200 -0.01900
H 	H 	0.26630 0.69440 0.44240 -0.02000
H 	H 	0.28440 0.89170 0.32550 -0.01900
H 	H 	0.41010 0.74420 0.55180 0.06900
H 	H 	0.39280 0.84500 0.55940 0.08300
H 	H 	0.54100 0.94630 0.55530 0.05900
H 	H 	0.72220 0.97230 0.55200 0.07200
H 	H 	0.76470 0.71930 0.52100 0.05400
H 	H 	0.58370 0.69230 0.52270 0.04900
H 	H 	0.87990 0.92100 0.50570 0.09100
H 	H 	0.90390 0.82040 0.50580 0.08000
H 	H 	0.10640 0.97710 0.71070 -0.00900
H 	H 	0.97670 0.75560 0.63980 -0.01700
H 	H 	0.04420 0.85320 0.36810 -0.00100
H 	H 	0.89910 0.65430 0.26610 -0.00800
H 	H 	0.71630 0.70080 0.35880 0.07100
H 	H 	0.70060 0.67780 0.28090 0.07000
H 	H 	0.63050 0.79340 0.19390 0.06200
H 	H 	0.53390 0.92400 0.16790 0.04700
H 	H 	0.53920 0.95730 0.36440 0.05900
H 	H 	0.63750 0.82990 0.39110 0.06700
H 	H 	0.43180 0.04500 0.20190 0.06200
H 	H 	0.42940 0.05550 0.27940 0.07100
H 	H 	0.62920 0.10090 0.17480 -0.01900
H 	H 	0.72370 0.23960 0.33800 -0.01900
C 	C 	0.28470 0.75230 0.92570 0.08900
C 	C 	0.29580 0.64480 0.86360 0.09700
C 	C 	0.41980 0.69900 0.03260 -0.12800
C 	C 	0.54100 0.68370 0.03710 0.06400
C 	C 	0.58530 0.59980 0.04740 -0.06100
C 	C 	0.69440 0.58440 0.04600 -0.08500
C 	C 	0.76270 0.65130 0.03600 0.07800
C 	C 	0.71940 0.73460 0.02750 -0.08500
C 	C 	0.61070 0.75080 0.02820 -0.06700
C 	C 	0.87910 0.63280 0.03110 -0.14500
C 	C 	0.06420 0.56450 0.18220 0.09200
C 	C 	0.99530 0.68550 0.14460 0.08500
C 	C 	0.99030 0.68750 0.84850 0.08600
C 	C 	0.91380 0.79550 0.79290 0.08000
C 	C 	0.72350 0.77670 0.81490 -0.13300
C 	C 	0.64930 0.69900 0.79590 0.08300
C 	C 	0.61470 0.67260 0.72880 -0.08100
C 	C 	0.55560 0.59460 0.71320 -0.06500
C 	C 	0.52930 0.54530 0.76360 0.05700
C 	C 	0.55920 0.57470 0.82990 -0.05800
C 	C 	0.61830 0.65100 0.84590 -0.08000
C 	C 	0.47700 0.45640 0.74850 -0.12400
C 	C 	0.63400 0.37360 0.71740 0.09500
C 	C 	0.68370 0.29920 0.80570 0.09800
C 	C 	0.71530 0.25230 0.57430 0.08900
C 	C 	0.70420 0.14480 0.63640 0.09700
C 	C 	0.58020 0.19900 0.46740 -0.12800
C 	C 	0.45900 0.18370 0.46290 0.06400
C 	C 	0.41470 0.09980 0.45260 -0.06100
C 	C 	0.30560 0.08440 0.45400 -0.08500
C 	C 	0.23730 0.15130 0.46400 0.07800
C 	C 	0.28060 0.23460 0.47250 -0.08500
C 	C 	0.38930 0.25080 0.47180 -0.06700
C 	C 	0.12090 0.13280 0.46890 -0.14500
C 	C 	0.93580 0.06450 0.31780 0.09200
C 	C 	0.00470 0.18550 0.35540 0.08500
C 	C 	0.00970 0.18750 0.65150 0.08600
C 	C 	0.08620 0.29550 0.70710 0.08000
C 	C 	0.27650 0.27670 0.68510 -0.13300
C 	C 	0.35070 0.19900 0.70410 0.08300
C 	C 	0.38530 0.17260 0.77120 -0.08100
C 	C 	0.44440 0.09460 0.78680 -0.06500
C 	C 	0.47070 0.04530 0.73640 0.05700
C 	C 	0.44080 0.07470 0.67010 -0.05800
C 	C 	0.38170 0.15100 0.65410 -0.08000
C 	C 	0.52300 0.95640 0.75150 -0.12300
C 	C 	0.36600 0.87360 0.78260 0.09500
C 	C 	0.31630 0.79920 0.69430 0.09800
C 	C 	0.71530 0.24770 0.07430 0.08900
C 	C 	0.70420 0.35520 0.13640 0.09700
C 	C 	0.58020 0.30100 0.96740 -0.12800
C 	C 	0.45900 0.31630 0.96290 0.06400
C 	C 	0.41470 0.40020 0.95260 -0.06100
C 	C 	0.30560 0.41560 0.95400 -0.08500
C 	C 	0.23730 0.34870 0.96400 0.07800
C 	C 	0.28060 0.26540 0.97250 -0.08500
C 	C 	0.38930 0.24920 0.97180 -0.06700
C 	C 	0.12090 0.36720 0.96890 -0.14500
C 	C 	0.93580 0.43550 0.81780 0.09200
C 	C 	0.00470 0.31450 0.85540 0.08500
C 	C 	0.00970 0.31250 0.15150 0.08600
C 	C 	0.08620 0.20450 0.20710 0.08000
C 	C 	0.27650 0.22330 0.18510 -0.13300
C 	C 	0.35070 0.30100 0.20410 0.08300
C 	C 	0.38530 0.32740 0.27120 -0.08100
C 	C 	0.44440 0.40540 0.28680 -0.06500
C 	C 	0.47070 0.45470 0.23640 0.05700
C 	C 	0.44080 0.42530 0.17010 -0.05800
C 	C 	0.38170 0.34900 0.15410 -0.08000
C 	C 	0.52300 0.54360 0.25150 -0.12400
C 	C 	0.36600 0.62640 0.28260 0.09500
C 	C 	0.31630 0.70080 0.19430 0.09800
C 	C 	0.28470 0.74770 0.42570 0.08900
C 	C 	0.29580 0.85520 0.36360 0.09700
C 	C 	0.41980 0.80100 0.53260 -0.12800
C 	C 	0.54100 0.81630 0.53710 0.06400
C 	C 	0.58530 0.90020 0.54740 -0.06100
C 	C 	0.69440 0.91560 0.54600 -0.08500
C 	C 	0.76270 0.84870 0.53600 0.07800
C 	C 	0.71940 0.76540 0.52750 -0.08500
C 	C 	0.61070 0.74920 0.52820 -0.06700
C 	C 	0.87910 0.86720 0.53110 -0.14500
C 	C 	0.06420 0.93550 0.68220 0.09200
C 	C 	0.99530 0.81450 0.64460 0.08500
C 	C 	0.99030 0.81250 0.34850 0.08600
C 	C 	0.91380 0.70450 0.29290 0.08000
C 	C 	0.72350 0.72330 0.31490 -0.13300
C 	C 	0.64930 0.80100 0.29590 0.08300
C 	C 	0.61470 0.82740 0.22880 -0.08100
C 	C 	0.55560 0.90540 0.21320 -0.06500
C 	C 	0.52930 0.95470 0.26360 0.05700
C 	C 	0.55920 0.92530 0.32990 -0.05800
C 	C 	0.61830 0.84900 0.34590 -0.08000
C 	C 	0.47700 0.04360 0.24850 -0.12300
C 	C 	0.63400 0.12640 0.21740 0.09500
C 	C 	0.68370 0.20080 0.30570 0.09800
N 	N 	0.24420 0.72270 0.86280 -0.24600
N 	N 	0.36270 0.62490 0.92200 -0.10000
N 	N 	0.35460 0.69520 0.96110 -0.08300
N 	N 	0.06410 0.65020 0.19880 -0.24200
N 	N 	0.99880 0.54520 0.12180 -0.09600
N 	N 	0.95730 0.62450 0.09870 -0.08000
N 	N 	0.01120 0.75540 0.81010 -0.24600
N 	N 	0.88820 0.68360 0.85570 -0.09600
N 	N 	0.84100 0.75380 0.81930 -0.08300
N 	N 	0.71050 0.31750 0.74670 -0.24600
N 	N 	0.59460 0.34180 0.81390 -0.10100
N 	N 	0.56490 0.38880 0.75700 -0.08400
N 	N 	0.75580 0.22270 0.63720 -0.24600
N 	N 	0.63730 0.12490 0.57800 -0.10000
N 	N 	0.64540 0.19520 0.53890 -0.08300
N 	N 	0.93590 0.15020 0.30120 -0.24200
N 	N 	0.00120 0.04520 0.37820 -0.09600
N 	N 	0.04270 0.12450 0.40130 -0.08000
N 	N 	0.98880 0.25540 0.68990 -0.24600
N 	N 	0.11180 0.18360 0.64430 -0.09600
N 	N 	0.15900 0.25380 0.68070 -0.08300
N 	N 	0.28950 0.81750 0.75330 -0.24600
N 	N 	0.40540 0.84180 0.68610 -0.10100
N 	N 	0.43510 0.88880 0.74300 -0.08400
N 	N 	0.75580 0.27730 0.13720 -0.24600
N 	N 	0.63730 0.37510 0.07800 -0.10000
N 	N 	0.64540 0.30480 0.03890 -0.08300
N 	N 	0.93590 0.34980 0.80120 -0.24200
N 	N 	0.00120 0.45480 0.87820 -0.09600
N 	N 	0.04270 0.37550 0.90130 -0.08000
N 	N 	0.98880 0.24460 0.18990 -0.24600
N 	N 	0.11180 0.31640 0.14430 -0.09600
N 	N 	0.15900 0.24620 0.18070 -0.08300
N 	N 	0.28950 0.68250 0.25330 -0.24600
N 	N 	0.40540 0.65820 0.18610 -0.10100
N 	N 	0.43510 0.61120 0.24300 -0.08400
N 	N 	0.24420 0.77730 0.36280 -0.24600
N 	N 	0.36270 0.87510 0.42200 -0.10000
N 	N 	0.35460 0.80480 0.46110 -0.08300
N 	N 	0.06410 0.84980 0.69880 -0.24200
N 	N 	0.99880 0.95480 0.62180 -0.09600
N 	N 	0.95730 0.87550 0.59870 -0.08000
N 	N 	0.01120 0.74460 0.31010 -0.24600
N 	N 	0.88820 0.81640 0.35570 -0.09600
N 	N 	0.84100 0.74620 0.31930 -0.08300
N 	N 	0.71050 0.18250 0.24670 -0.24600
N 	N 	0.59460 0.15820 0.31390 -0.10100
N 	N 	0.56490 0.11120 0.25700 -0.08400
