data_crystal

_cell_length_a 8.18000
_cell_length_b 8.89000
_cell_length_c 29.90000
_cell_angle_alpha 90.00000
_cell_angle_beta  90.00000
_cell_angle_gamma 104.06000

_symmetry_space_group_name_	'P 1'
_symmetry_space_group_name_H-M	'P 1'

loop_
_symmetry_equiv_pos_as_xyz
  x,y,z

loop_
_atom_site_label
_atom_site_type_symbol
_atom_site_fract_x
_atom_site_fract_y
_atom_site_fract_z
_atom_site_charge
Zn	Zn	0.94002 0.49896 0.90955 1.15700
Zn	Zn	0.55998 0.50104 0.40955 1.15700
Zn	Zn	0.05998 0.50104 0.09045 1.15700
Zn	Zn	0.44002 0.49896 0.59045 1.15700
Mo	Mo	0.75636 0.06236 0.92203 1.14400
Mo	Mo	0.95460 0.08681 0.04392 1.21600
Mo	Mo	0.55119 0.82487 0.99755 1.03900
Mo	Mo	0.74364 0.93764 0.42203 1.14500
Mo	Mo	0.54540 0.91319 0.54392 1.21800
Mo	Mo	0.94881 0.17513 0.49755 1.03900
Mo	Mo	0.24364 0.93764 0.07797 1.14500
Mo	Mo	0.04540 0.91319 0.95608 1.21700
Mo	Mo	0.44881 0.17513 0.00245 1.04000
Mo	Mo	0.25636 0.06236 0.57797 1.14600
Mo	Mo	0.45460 0.08681 0.45608 1.21900
Mo	Mo	0.05119 0.82487 0.50245 1.04000
H 	H 	0.87250 0.42550 0.80140 -0.00800
H 	H 	0.78500 0.66000 0.64600 -0.02600
H 	H 	0.74720 0.74710 0.87060 -0.04900
H 	H 	0.50770 0.72850 0.77480 0.08500
H 	H 	0.57720 0.85170 0.81200 0.04900
H 	H 	0.84120 0.06210 0.79400 0.04500
H 	H 	0.97200 0.23340 0.73970 0.06700
H 	H 	0.72420 0.95050 0.64540 0.05500
H 	H 	0.59450 0.77930 0.69950 0.05800
H 	H 	0.05200 0.27500 0.65870 0.05500
H 	H 	0.94020 0.16930 0.62260 0.02700
H 	H 	0.63390 0.23660 0.61170 -0.00600
H 	H 	0.62750 0.57450 0.30140 -0.00800
H 	H 	0.71500 0.34000 0.14600 -0.02700
H 	H 	0.75280 0.25290 0.37060 -0.04900
H 	H 	0.99230 0.27150 0.27480 0.08300
H 	H 	0.92280 0.14830 0.31200 0.04600
H 	H 	0.65880 0.93790 0.29400 0.04100
H 	H 	0.52800 0.76660 0.23970 0.07100
H 	H 	0.77580 0.04950 0.14540 0.05900
H 	H 	0.90550 0.22070 0.19950 0.05400
H 	H 	0.44800 0.72500 0.15870 0.05500
H 	H 	0.55980 0.83070 0.12260 0.02900
H 	H 	0.86610 0.76340 0.11170 -0.00500
H 	H 	0.12750 0.57450 0.19860 -0.00800
H 	H 	0.21500 0.34000 0.35400 -0.02600
H 	H 	0.25280 0.25290 0.12940 -0.04900
H 	H 	0.49230 0.27150 0.22520 0.08500
H 	H 	0.42280 0.14830 0.18800 0.04900
H 	H 	0.15880 0.93790 0.20600 0.04500
H 	H 	0.02800 0.76660 0.26030 0.06700
H 	H 	0.27580 0.04950 0.35460 0.05500
H 	H 	0.40550 0.22070 0.30050 0.05800
H 	H 	0.94800 0.72500 0.34130 0.05500
H 	H 	0.05980 0.83070 0.37740 0.02700
H 	H 	0.36610 0.76340 0.38830 -0.00600
H 	H 	0.37250 0.42550 0.69860 -0.00800
H 	H 	0.28500 0.66000 0.85400 -0.02700
H 	H 	0.24720 0.74710 0.62940 -0.04900
H 	H 	0.00770 0.72850 0.72520 0.08300
H 	H 	0.07720 0.85170 0.68800 0.04600
H 	H 	0.34120 0.06210 0.70600 0.04100
H 	H 	0.47200 0.23340 0.76030 0.07100
H 	H 	0.22420 0.95050 0.85460 0.05900
H 	H 	0.09450 0.77930 0.80050 0.05400
H 	H 	0.55200 0.27500 0.84130 0.05500
H 	H 	0.44020 0.16930 0.87740 0.02900
H 	H 	0.13390 0.23660 0.88830 -0.00500
C 	C 	0.82940 0.50960 0.80920 0.09500
C 	C 	0.77810 0.55470 0.64240 0.08500
C 	C 	0.76330 0.68280 0.84730 0.09300
C 	C 	0.60970 0.79250 0.78780 -0.11600
C 	C 	0.70250 0.90260 0.75280 0.05400
C 	C 	0.81670 0.03910 0.76410 -0.05500
C 	C 	0.89510 0.14240 0.73140 -0.07900
C 	C 	0.85990 0.11120 0.68630 0.06500
C 	C 	0.74800 0.97430 0.67540 -0.08700
C 	C 	0.66990 0.87110 0.70790 -0.06100
C 	C 	0.93700 0.22450 0.65050 -0.11500
C 	C 	0.69590 0.32810 0.62450 0.06100
C 	C 	0.67060 0.49040 0.30920 0.09500
C 	C 	0.72190 0.44530 0.14240 0.08400
C 	C 	0.73670 0.31720 0.34730 0.09300
C 	C 	0.89030 0.20750 0.28780 -0.11000
C 	C 	0.79750 0.09740 0.25280 0.04300
C 	C 	0.68330 0.96090 0.26410 -0.04300
C 	C 	0.60490 0.85760 0.23140 -0.08900
C 	C 	0.64010 0.88880 0.18630 0.07600
C 	C 	0.75200 0.02570 0.17540 -0.10000
C 	C 	0.83010 0.12890 0.20790 -0.05100
C 	C 	0.56300 0.77550 0.15050 -0.12000
C 	C 	0.80410 0.67190 0.12450 0.06100
C 	C 	0.17060 0.49040 0.19080 0.09500
C 	C 	0.22190 0.44530 0.35760 0.08500
C 	C 	0.23670 0.31720 0.15270 0.09300
C 	C 	0.39030 0.20750 0.21220 -0.11600
C 	C 	0.29750 0.09740 0.24720 0.05400
C 	C 	0.18330 0.96090 0.23590 -0.05500
C 	C 	0.10490 0.85760 0.26860 -0.07900
C 	C 	0.14010 0.88880 0.31370 0.06500
C 	C 	0.25200 0.02570 0.32460 -0.08700
C 	C 	0.33010 0.12890 0.29210 -0.06100
C 	C 	0.06300 0.77550 0.34950 -0.11500
C 	C 	0.30410 0.67190 0.37550 0.06100
C 	C 	0.32940 0.50960 0.69080 0.09500
C 	C 	0.27810 0.55470 0.85760 0.08400
C 	C 	0.26330 0.68280 0.65270 0.09300
C 	C 	0.10970 0.79250 0.71220 -0.11000
C 	C 	0.20250 0.90260 0.74720 0.04300
C 	C 	0.31670 0.03910 0.73590 -0.04300
C 	C 	0.39510 0.14240 0.76860 -0.08900
C 	C 	0.35990 0.11120 0.81370 0.07600
C 	C 	0.24800 0.97430 0.82460 -0.10000
C 	C 	0.16990 0.87110 0.79210 -0.05100
C 	C 	0.43700 0.22450 0.84950 -0.12000
C 	C 	0.19590 0.32810 0.87550 0.06100
N 	N 	0.84030 0.56890 0.85113 -0.27700
N 	N 	0.71230 0.69240 0.80574 -0.08500
N 	N 	0.64800 0.45820 0.62500 -0.28100
N 	N 	0.84010 0.34220 0.64402 -0.08900
N 	N 	0.75270 0.58100 0.78041 -0.09400
N 	N 	0.89940 0.48810 0.65440 -0.10700
N 	N 	0.65970 0.43110 0.35113 -0.27700
N 	N 	0.78770 0.30760 0.30574 -0.08600
N 	N 	0.85200 0.54180 0.12500 -0.28000
N 	N 	0.65990 0.65780 0.14402 -0.08800
N 	N 	0.74730 0.41900 0.28041 -0.09400
N 	N 	0.60060 0.51190 0.15440 -0.10800
N 	N 	0.15970 0.43110 0.14887 -0.27700
N 	N 	0.28770 0.30760 0.19426 -0.08500
N 	N 	0.35200 0.54180 0.37500 -0.28100
N 	N 	0.15990 0.65780 0.35598 -0.08900
N 	N 	0.24730 0.41900 0.21959 -0.09400
N 	N 	0.10060 0.51190 0.34560 -0.10700
N 	N 	0.34030 0.56890 0.64887 -0.27700
N 	N 	0.21230 0.69240 0.69426 -0.08600
N 	N 	0.14800 0.45820 0.87500 -0.28000
N 	N 	0.34010 0.34220 0.85598 -0.08800
N 	N 	0.25270 0.58100 0.71959 -0.09400
N 	N 	0.39940 0.48810 0.84560 -0.10800
O 	O 	0.96600 0.12040 0.98269 -0.53400
O 	O 	0.74630 0.98940 0.04971 -0.49800
O 	O 	0.74640 0.84980 0.96144 -0.58000
O 	O 	0.81040 0.25820 0.90887 -0.60700
O 	O 	0.59570 0.06060 0.96990 -0.61600
O 	O 	0.96550 0.26720 0.06686 -0.60300
O 	O 	0.95260 0.00250 0.90465 -0.47800
O 	O 	0.53400 0.87960 0.48269 -0.53500
O 	O 	0.75370 0.01060 0.54971 -0.50100
O 	O 	0.75360 0.15020 0.46144 -0.58100
O 	O 	0.68960 0.74180 0.40887 -0.60600
O 	O 	0.90430 0.93940 0.46990 -0.61500
O 	O 	0.53450 0.73280 0.56686 -0.60100
O 	O 	0.54740 0.99750 0.40465 -0.47700
O 	O 	0.03400 0.87960 0.01731 -0.53400
O 	O 	0.25370 0.01060 0.95029 -0.49800
O 	O 	0.25360 0.15020 0.03856 -0.58000
O 	O 	0.18960 0.74180 0.09113 -0.60700
O 	O 	0.40430 0.93940 0.03010 -0.61600
O 	O 	0.03450 0.73280 0.93314 -0.60300
O 	O 	0.04740 0.99750 0.09535 -0.47800
O 	O 	0.46600 0.12040 0.51731 -0.53500
O 	O 	0.24630 0.98940 0.45029 -0.50100
O 	O 	0.24640 0.84980 0.53856 -0.58100
O 	O 	0.31040 0.25820 0.59113 -0.60600
O 	O 	0.09570 0.06060 0.53010 -0.61500
O 	O 	0.46550 0.26720 0.43314 -0.60100
O 	O 	0.45260 0.00250 0.59535 -0.47700
