data_crystal

_cell_length_a 24.27840
_cell_length_b 13.36840
_cell_length_c 15.91030
_cell_angle_alpha 90.00000
_cell_angle_beta  90.00000
_cell_angle_gamma 90.00000

_symmetry_space_group_name_	'P 1'
_symmetry_space_group_name_H-M	'P 1'

loop_
_symmetry_equiv_pos_as_xyz
  x,y,z

loop_
_atom_site_label
_atom_site_type_symbol
_atom_site_fract_x
_atom_site_fract_y
_atom_site_fract_z
_atom_site_charge
Co	Co	0.55092 0.35477 0.38927 1.16500
Co	Co	0.38720 0.06075 0.61349 1.16600
Co	Co	0.46217 0.24586 0.50505 1.19300
O 	O 	0.91919 0.17930 0.91230 -0.41400
O 	O 	0.83465 0.05190 0.49560 -0.36800
O 	O 	0.50969 0.16970 0.59270 -0.41500
O 	O 	0.91794 0.11030 0.51060 -0.48500
O 	O 	0.60647 0.30120 0.30510 -0.43900
O 	O 	0.41334 0.31260 0.59360 -0.45400
O 	O 	0.51870 0.12650 0.98460 -0.47800
O 	O 	0.52362 0.20310 0.42110 -0.53600
O 	O 	0.58938 0.08920 0.40280 -0.44900
O 	O 	0.45597 0.08840 0.68540 -0.43200
O 	O 	0.98275 0.13320 0.81720 -0.43100
C 	C 	0.79210 0.12170 0.74310 0.11100
O 	O 	0.60737 0.13730 0.00970 -0.37200
N 	N 	0.73736 0.12350 0.77520 -0.08400
O 	O 	0.35381 0.19760 0.64290 -0.46000
N 	N 	0.70026 0.12590 0.72010 -0.08200
C 	C 	0.53730 0.12280 0.80880 -0.00800
H 	H 	0.50100 0.12160 0.82780 0.04800
C 	C 	0.87080 0.08860 0.54160 0.32000
C 	C 	0.54220 0.11400 0.42350 0.51100
H 	H 	0.51860 0.06400 0.44220 -0.14500
C 	C 	0.64560 0.12460 0.75330 0.10800
C 	C 	0.83370 0.13430 0.80150 -0.07900
H 	H 	0.82490 0.14350 0.85780 0.08700
C 	C 	0.88890 0.13310 0.77640 -0.04800
C 	C 	0.80460 0.10530 0.65860 -0.07600
H 	H 	0.77660 0.09430 0.61980 0.09300
C 	C 	0.90140 0.11830 0.69210 -0.00500
H 	H 	0.93800 0.11690 0.67480 0.05200
C 	C 	0.85950 0.10550 0.63320 -0.05200
C 	C 	0.54790 0.12460 0.72340 -0.05400
C 	C 	0.63430 0.12190 0.83920 -0.07700
H 	H 	0.66300 0.11950 0.87800 0.09300
C 	C 	0.56840 0.12900 0.95810 0.30100
C 	C 	0.60270 0.12720 0.69560 -0.07400
H 	H 	0.61030 0.13080 0.63840 0.08600
C 	C 	0.58020 0.12280 0.86640 -0.04400
C 	C 	0.93380 0.14960 0.84030 0.35300
C 	C 	0.50080 0.12830 0.66220 0.35800
C 	C 	0.37360 0.28300 0.63830 0.47200
H 	H 	0.35710 0.33130 0.67200 -0.10800
Co	Co	0.94908 0.64523 0.38927 1.16400
Co	Co	0.11280 0.93925 0.61349 1.16500
Co	Co	0.03783 0.75414 0.50505 1.19100
O 	O 	0.58081 0.82070 0.91230 -0.41600
O 	O 	0.66535 0.94810 0.49560 -0.36900
O 	O 	0.99031 0.83030 0.59270 -0.41700
O 	O 	0.58206 0.88970 0.51060 -0.48600
O 	O 	0.89353 0.69880 0.30510 -0.44000
O 	O 	0.08666 0.68740 0.59360 -0.45500
O 	O 	0.98130 0.87350 0.98460 -0.47700
O 	O 	0.97638 0.79690 0.42110 -0.53700
O 	O 	0.91062 0.91080 0.40280 -0.44900
O 	O 	0.04403 0.91160 0.68540 -0.43600
O 	O 	0.51725 0.86680 0.81720 -0.43300
C 	C 	0.70790 0.87830 0.74310 0.11100
O 	O 	0.89263 0.86270 0.00970 -0.37400
N 	N 	0.76264 0.87650 0.77520 -0.08400
O 	O 	0.14619 0.80240 0.64290 -0.46000
N 	N 	0.79974 0.87410 0.72010 -0.08200
C 	C 	0.96270 0.87720 0.80880 -0.00700
H 	H 	0.99900 0.87840 0.82780 0.04900
C 	C 	0.62920 0.91140 0.54160 0.32000
C 	C 	0.95780 0.88600 0.42350 0.51100
H 	H 	0.98140 0.93600 0.44220 -0.14400
C 	C 	0.85440 0.87540 0.75330 0.10800
C 	C 	0.66630 0.86570 0.80150 -0.07800
H 	H 	0.67510 0.85650 0.85780 0.08700
C 	C 	0.61110 0.86690 0.77640 -0.04800
C 	C 	0.69540 0.89470 0.65860 -0.07600
H 	H 	0.72340 0.90570 0.61980 0.09300
C 	C 	0.59860 0.88170 0.69210 -0.00500
H 	H 	0.56200 0.88310 0.67480 0.05200
C 	C 	0.64050 0.89450 0.63320 -0.05100
C 	C 	0.95210 0.87540 0.72340 -0.05400
C 	C 	0.86570 0.87810 0.83920 -0.07700
H 	H 	0.83700 0.88050 0.87800 0.09300
C 	C 	0.93160 0.87100 0.95810 0.30400
C 	C 	0.89730 0.87280 0.69560 -0.07400
H 	H 	0.88970 0.86920 0.63840 0.08500
C 	C 	0.91980 0.87720 0.86640 -0.04500
C 	C 	0.56620 0.85040 0.84030 0.35300
C 	C 	0.99920 0.87170 0.66220 0.36200
C 	C 	0.12640 0.71700 0.63830 0.47200
H 	H 	0.14290 0.66870 0.67200 -0.10800
Co	Co	0.94908 0.85477 0.11073 1.16300
Co	Co	0.11280 0.56075 0.88651 1.16500
Co	Co	0.03783 0.74586 0.99495 1.18900
O 	O 	0.58081 0.67930 0.58770 -0.41700
O 	O 	0.66535 0.55190 0.00440 -0.37000
O 	O 	0.99031 0.66970 0.90730 -0.41500
O 	O 	0.58206 0.61030 0.98940 -0.48600
O 	O 	0.89353 0.80120 0.19490 -0.44000
O 	O 	0.08666 0.81260 0.90640 -0.45700
O 	O 	0.98130 0.62650 0.51540 -0.47900
O 	O 	0.97638 0.70310 0.07890 -0.53900
O 	O 	0.91062 0.58920 0.09720 -0.45100
O 	O 	0.04403 0.58840 0.81460 -0.43600
O 	O 	0.51725 0.63320 0.68280 -0.43300
C 	C 	0.70790 0.62170 0.75690 0.11100
O 	O 	0.89263 0.63730 0.49030 -0.37100
N 	N 	0.76264 0.62350 0.72480 -0.08400
O 	O 	0.14619 0.69760 0.85710 -0.46000
N 	N 	0.79974 0.62590 0.77990 -0.08200
C 	C 	0.96270 0.62280 0.69120 -0.00800
H 	H 	0.99900 0.62160 0.67220 0.04900
C 	C 	0.62920 0.58860 0.95840 0.32200
C 	C 	0.95780 0.61400 0.07650 0.51100
H 	H 	0.98140 0.56400 0.05780 -0.14600
C 	C 	0.85440 0.62460 0.74670 0.10800
C 	C 	0.66630 0.63430 0.69850 -0.07800
H 	H 	0.67510 0.64350 0.64220 0.08700
C 	C 	0.61110 0.63310 0.72360 -0.04800
C 	C 	0.69540 0.60530 0.84140 -0.07500
H 	H 	0.72340 0.59430 0.88020 0.09300
C 	C 	0.59860 0.61830 0.80790 -0.00400
H 	H 	0.56200 0.61690 0.82520 0.05200
C 	C 	0.64050 0.60550 0.86680 -0.05200
C 	C 	0.95210 0.62460 0.77660 -0.05400
C 	C 	0.86570 0.62190 0.66080 -0.07800
H 	H 	0.83700 0.61950 0.62200 0.09300
C 	C 	0.93160 0.62900 0.54190 0.30000
C 	C 	0.89730 0.62720 0.80440 -0.07400
H 	H 	0.88970 0.63080 0.86160 0.08600
C 	C 	0.91980 0.62280 0.63360 -0.04400
C 	C 	0.56620 0.64960 0.65970 0.35300
C 	C 	0.99920 0.62830 0.83780 0.36200
C 	C 	0.12640 0.78300 0.86170 0.47200
H 	H 	0.14290 0.83130 0.82800 -0.10800
Co	Co	0.55092 0.14523 0.11073 1.16400
Co	Co	0.38720 0.43925 0.88651 1.16500
Co	Co	0.46217 0.25414 0.99495 1.19100
O 	O 	0.91919 0.32070 0.58770 -0.41700
O 	O 	0.83465 0.44810 0.00440 -0.37200
O 	O 	0.50969 0.33030 0.90730 -0.41600
O 	O 	0.91794 0.38970 0.98940 -0.48400
O 	O 	0.60647 0.19880 0.19490 -0.44000
O 	O 	0.41334 0.18740 0.90640 -0.45500
O 	O 	0.51870 0.37350 0.51540 -0.47900
O 	O 	0.52362 0.29690 0.07890 -0.53700
O 	O 	0.58938 0.41080 0.09720 -0.45000
O 	O 	0.45597 0.41160 0.81460 -0.43300
O 	O 	0.98275 0.36680 0.68280 -0.43200
C 	C 	0.79210 0.37830 0.75690 0.11100
O 	O 	0.60737 0.36270 0.49030 -0.37100
N 	N 	0.73736 0.37650 0.72480 -0.08400
O 	O 	0.35381 0.30240 0.85710 -0.46000
N 	N 	0.70026 0.37410 0.77990 -0.08200
C 	C 	0.53730 0.37720 0.69120 -0.00800
H 	H 	0.50100 0.37840 0.67220 0.04800
C 	C 	0.87080 0.41140 0.95840 0.32300
C 	C 	0.54220 0.38600 0.07650 0.51100
H 	H 	0.51860 0.43600 0.05780 -0.14500
C 	C 	0.64560 0.37540 0.74670 0.10800
C 	C 	0.83370 0.36570 0.69850 -0.07800
H 	H 	0.82490 0.35650 0.64220 0.08700
C 	C 	0.88890 0.36690 0.72360 -0.04800
C 	C 	0.80460 0.39470 0.84140 -0.07500
H 	H 	0.77660 0.40570 0.88020 0.09300
C 	C 	0.90140 0.38170 0.80790 -0.00500
H 	H 	0.93800 0.38310 0.82520 0.05300
C 	C 	0.85950 0.39450 0.86680 -0.05200
C 	C 	0.54790 0.37540 0.77660 -0.05300
C 	C 	0.63430 0.37810 0.66080 -0.07800
H 	H 	0.66300 0.38050 0.62200 0.09300
C 	C 	0.56840 0.37100 0.54190 0.30000
C 	C 	0.60270 0.37280 0.80440 -0.07500
H 	H 	0.61030 0.36920 0.86160 0.08600
C 	C 	0.58020 0.37720 0.63360 -0.04400
C 	C 	0.93380 0.35040 0.65970 0.35300
C 	C 	0.50080 0.37170 0.83780 0.35800
C 	C 	0.37360 0.21700 0.86170 0.47200
H 	H 	0.35710 0.16870 0.82800 -0.10800
Co	Co	0.44908 0.64523 0.61073 1.16400
Co	Co	0.61280 0.93925 0.38651 1.16500
Co	Co	0.53783 0.75414 0.49495 1.19200
O 	O 	0.08081 0.82070 0.08770 -0.41500
O 	O 	0.16535 0.94810 0.50440 -0.36900
O 	O 	0.49031 0.83030 0.40730 -0.41600
O 	O 	0.08206 0.88970 0.48940 -0.48600
O 	O 	0.39353 0.69880 0.69490 -0.44000
O 	O 	0.58666 0.68740 0.40640 -0.45500
O 	O 	0.48130 0.87350 0.01540 -0.47900
O 	O 	0.47638 0.79690 0.57890 -0.53700
O 	O 	0.41062 0.91080 0.59720 -0.45000
O 	O 	0.54403 0.91160 0.31460 -0.43300
O 	O 	0.01725 0.86680 0.18280 -0.43200
C 	C 	0.20790 0.87830 0.25690 0.11100
O 	O 	0.39263 0.86270 0.99030 -0.37200
N 	N 	0.26264 0.87650 0.22480 -0.08400
O 	O 	0.64619 0.80240 0.35710 -0.46000
N 	N 	0.29974 0.87410 0.27990 -0.08200
C 	C 	0.46270 0.87720 0.19120 -0.00800
H 	H 	0.49900 0.87840 0.17220 0.04800
C 	C 	0.12920 0.91140 0.45840 0.32000
C 	C 	0.45780 0.88600 0.57650 0.51100
H 	H 	0.48140 0.93600 0.55780 -0.14500
C 	C 	0.35440 0.87540 0.24670 0.10800
C 	C 	0.16630 0.86570 0.19850 -0.07900
H 	H 	0.17510 0.85650 0.14220 0.08700
C 	C 	0.11110 0.86690 0.22360 -0.04800
C 	C 	0.19540 0.89470 0.34140 -0.07600
H 	H 	0.22340 0.90570 0.38020 0.09300
C 	C 	0.09860 0.88170 0.30790 -0.00500
H 	H 	0.06200 0.88310 0.32520 0.05200
C 	C 	0.14050 0.89450 0.36680 -0.05200
C 	C 	0.45210 0.87540 0.27660 -0.05400
C 	C 	0.36570 0.87810 0.16080 -0.07700
H 	H 	0.33700 0.88050 0.12200 0.09300
C 	C 	0.43160 0.87100 0.04190 0.30100
C 	C 	0.39730 0.87280 0.30440 -0.07400
H 	H 	0.38970 0.86920 0.36160 0.08600
C 	C 	0.41980 0.87720 0.13360 -0.04400
C 	C 	0.06620 0.85040 0.15970 0.35300
C 	C 	0.49920 0.87170 0.33780 0.35800
C 	C 	0.62640 0.71700 0.36170 0.47200
H 	H 	0.64290 0.66870 0.32800 -0.10800
Co	Co	0.05092 0.35477 0.61073 1.16400
Co	Co	0.88720 0.06075 0.38651 1.16500
Co	Co	0.96217 0.24586 0.49495 1.19100
O 	O 	0.41919 0.17930 0.08770 -0.41600
O 	O 	0.33465 0.05190 0.50440 -0.36900
O 	O 	0.00969 0.16970 0.40730 -0.41700
O 	O 	0.41794 0.11030 0.48940 -0.48600
O 	O 	0.10647 0.30120 0.69490 -0.44000
O 	O 	0.91334 0.31260 0.40640 -0.45500
O 	O 	0.01870 0.12650 0.01540 -0.47700
O 	O 	0.02362 0.20310 0.57890 -0.53700
O 	O 	0.08938 0.08920 0.59720 -0.44900
O 	O 	0.95597 0.08840 0.31460 -0.43600
O 	O 	0.48275 0.13320 0.18280 -0.43300
C 	C 	0.29210 0.12170 0.25690 0.11100
O 	O 	0.10737 0.13730 0.99030 -0.37400
N 	N 	0.23736 0.12350 0.22480 -0.08400
O 	O 	0.85381 0.19760 0.35710 -0.46000
N 	N 	0.20026 0.12590 0.27990 -0.08200
C 	C 	0.03730 0.12280 0.19120 -0.00700
H 	H 	0.00100 0.12160 0.17220 0.04900
C 	C 	0.37080 0.08860 0.45840 0.32000
C 	C 	0.04220 0.11400 0.57650 0.51100
H 	H 	0.01860 0.06400 0.55780 -0.14400
C 	C 	0.14560 0.12460 0.24670 0.10800
C 	C 	0.33370 0.13430 0.19850 -0.07800
H 	H 	0.32490 0.14350 0.14220 0.08700
C 	C 	0.38890 0.13310 0.22360 -0.04800
C 	C 	0.30460 0.10530 0.34140 -0.07600
H 	H 	0.27660 0.09430 0.38020 0.09300
C 	C 	0.40140 0.11830 0.30790 -0.00500
H 	H 	0.43800 0.11690 0.32520 0.05200
C 	C 	0.35950 0.10550 0.36680 -0.05100
C 	C 	0.04790 0.12460 0.27660 -0.05400
C 	C 	0.13430 0.12190 0.16080 -0.07700
H 	H 	0.16300 0.11950 0.12200 0.09300
C 	C 	0.06840 0.12900 0.04190 0.30400
C 	C 	0.10270 0.12720 0.30440 -0.07400
H 	H 	0.11030 0.13080 0.36160 0.08500
C 	C 	0.08020 0.12280 0.13360 -0.04500
C 	C 	0.43380 0.14960 0.15970 0.35300
C 	C 	0.00080 0.12830 0.33780 0.36200
C 	C 	0.87360 0.28300 0.36170 0.47200
H 	H 	0.85710 0.33130 0.32800 -0.10800
Co	Co	0.05092 0.14523 0.88927 1.16300
Co	Co	0.88720 0.43925 0.11349 1.16500
Co	Co	0.96217 0.25414 0.00505 1.18900
O 	O 	0.41919 0.32070 0.41230 -0.41700
O 	O 	0.33465 0.44810 0.99560 -0.37000
O 	O 	0.00969 0.33030 0.09270 -0.41500
O 	O 	0.41794 0.38970 0.01060 -0.48600
O 	O 	0.10647 0.19880 0.80510 -0.44000
O 	O 	0.91334 0.18740 0.09360 -0.45700
O 	O 	0.01870 0.37350 0.48460 -0.47900
O 	O 	0.02362 0.29690 0.92110 -0.53900
O 	O 	0.08938 0.41080 0.90280 -0.45100
O 	O 	0.95597 0.41160 0.18540 -0.43600
O 	O 	0.48275 0.36680 0.31720 -0.43300
C 	C 	0.29210 0.37830 0.24310 0.11100
O 	O 	0.10737 0.36270 0.50970 -0.37100
N 	N 	0.23736 0.37650 0.27520 -0.08400
O 	O 	0.85381 0.30240 0.14290 -0.46000
N 	N 	0.20026 0.37410 0.22010 -0.08200
C 	C 	0.03730 0.37720 0.30880 -0.00800
H 	H 	0.00100 0.37840 0.32780 0.04900
C 	C 	0.37080 0.41140 0.04160 0.32200
C 	C 	0.04220 0.38600 0.92350 0.51100
H 	H 	0.01860 0.43600 0.94220 -0.14600
C 	C 	0.14560 0.37540 0.25330 0.10800
C 	C 	0.33370 0.36570 0.30150 -0.07800
H 	H 	0.32490 0.35650 0.35780 0.08700
C 	C 	0.38890 0.36690 0.27640 -0.04800
C 	C 	0.30460 0.39470 0.15860 -0.07500
H 	H 	0.27660 0.40570 0.11980 0.09300
C 	C 	0.40140 0.38170 0.19210 -0.00400
H 	H 	0.43800 0.38310 0.17480 0.05200
C 	C 	0.35950 0.39450 0.13320 -0.05200
C 	C 	0.04790 0.37540 0.22340 -0.05400
C 	C 	0.13430 0.37810 0.33920 -0.07800
H 	H 	0.16300 0.38050 0.37800 0.09300
C 	C 	0.06840 0.37100 0.45810 0.30000
C 	C 	0.10270 0.37280 0.19560 -0.07400
H 	H 	0.11030 0.36920 0.13840 0.08600
C 	C 	0.08020 0.37720 0.36640 -0.04400
C 	C 	0.43380 0.35040 0.34030 0.35300
C 	C 	0.00080 0.37170 0.16220 0.36200
C 	C 	0.87360 0.21700 0.13830 0.47200
H 	H 	0.85710 0.16870 0.17200 -0.10800
Co	Co	0.44908 0.85477 0.88927 1.16400
Co	Co	0.61280 0.56075 0.11349 1.16500
Co	Co	0.53783 0.74586 0.00505 1.19100
O 	O 	0.08081 0.67930 0.41230 -0.41700
O 	O 	0.16535 0.55190 0.99560 -0.37200
O 	O 	0.49031 0.66970 0.09270 -0.41600
O 	O 	0.08206 0.61030 0.01060 -0.48400
O 	O 	0.39353 0.80120 0.80510 -0.44000
O 	O 	0.58666 0.81260 0.09360 -0.45500
O 	O 	0.48130 0.62650 0.48460 -0.47900
O 	O 	0.47638 0.70310 0.92110 -0.53700
O 	O 	0.41062 0.58920 0.90280 -0.45000
O 	O 	0.54403 0.58840 0.18540 -0.43300
O 	O 	0.01725 0.63320 0.31720 -0.43200
C 	C 	0.20790 0.62170 0.24310 0.11100
O 	O 	0.39263 0.63730 0.50970 -0.37100
N 	N 	0.26264 0.62350 0.27520 -0.08400
O 	O 	0.64619 0.69760 0.14290 -0.46000
N 	N 	0.29974 0.62590 0.22010 -0.08200
C 	C 	0.46270 0.62280 0.30880 -0.00800
H 	H 	0.49900 0.62160 0.32780 0.04800
C 	C 	0.12920 0.58860 0.04160 0.32300
C 	C 	0.45780 0.61400 0.92350 0.51100
H 	H 	0.48140 0.56400 0.94220 -0.14500
C 	C 	0.35440 0.62460 0.25330 0.10800
C 	C 	0.16630 0.63430 0.30150 -0.07800
H 	H 	0.17510 0.64350 0.35780 0.08700
C 	C 	0.11110 0.63310 0.27640 -0.04800
C 	C 	0.19540 0.60530 0.15860 -0.07500
H 	H 	0.22340 0.59430 0.11980 0.09300
C 	C 	0.09860 0.61830 0.19210 -0.00500
H 	H 	0.06200 0.61690 0.17480 0.05300
C 	C 	0.14050 0.60550 0.13320 -0.05200
C 	C 	0.45210 0.62460 0.22340 -0.05300
C 	C 	0.36570 0.62190 0.33920 -0.07800
H 	H 	0.33700 0.61950 0.37800 0.09300
C 	C 	0.43160 0.62900 0.45810 0.30000
C 	C 	0.39730 0.62720 0.19560 -0.07500
H 	H 	0.38970 0.63080 0.13840 0.08600
C 	C 	0.41980 0.62280 0.36640 -0.04400
C 	C 	0.06620 0.64960 0.34030 0.35300
C 	C 	0.49920 0.62830 0.16220 0.35800
C 	C 	0.62640 0.78300 0.13830 0.47200
H 	H 	0.64290 0.83130 0.17200 -0.10800
C 	C 	0.58410 0.25000 0.25000 0.49100
H 	H 	0.54580 0.25000 0.25000 -0.16100
C 	C 	0.91590 0.75000 0.25000 0.49100
H 	H 	0.95420 0.75000 0.25000 -0.16200
C 	C 	0.41590 0.75000 0.75000 0.49100
H 	H 	0.45420 0.75000 0.75000 -0.16100
C 	C 	0.08410 0.25000 0.75000 0.49100
H 	H 	0.04580 0.25000 0.75000 -0.16200
