data_crystal

_cell_length_a 10.15910
_cell_length_b 17.64870
_cell_length_c 22.68530
_cell_angle_alpha 90.00000
_cell_angle_beta  99.59200
_cell_angle_gamma 90.00000

_symmetry_space_group_name_	'P 1'
_symmetry_space_group_name_H-M	'P 1'

loop_
_symmetry_equiv_pos_as_xyz
  x,y,z

loop_
_atom_site_label
_atom_site_type_symbol
_atom_site_fract_x
_atom_site_fract_y
_atom_site_fract_z
_atom_site_charge
Zn	Zn	0.49309 0.80775 0.83316 1.23800
Zn	Zn	0.67370 0.72506 0.72779 1.22900
O 	O 	0.51180 0.69960 0.84742 -0.49400
O 	O 	0.52540 0.37580 0.73484 -0.49700
O 	O 	0.57440 0.65210 0.76595 -0.51300
O 	O 	0.44770 0.30630 0.80261 -0.48300
O 	O 	0.67300 0.84140 0.87182 -0.47900
O 	O 	0.76210 0.78340 0.80180 -0.51100
O 	O 	0.25600 0.79000 0.81397 -0.34200
O 	O 	0.37710 0.85310 0.88675 -0.42600
O 	O 	0.66260 0.69240 0.64460 -0.35000
N 	N 	0.49380 0.47160 0.98352 -0.08600
N 	N 	0.05280 0.98740 0.99340 -0.09500
N 	N 	0.61370 0.64580 0.55340 -0.18000
C 	C 	0.53950 0.64550 0.81620 0.42900
C 	C 	0.52720 0.56830 0.84010 -0.12900
C 	C 	0.51790 0.55970 0.90020 -0.02300
H 	H 	0.52040 0.60170 0.92510 0.06200
C 	C 	0.50460 0.48630 0.92270 0.06200
C 	C 	0.49480 0.42520 0.88500 -0.03100
H 	H 	0.47970 0.37730 0.89970 0.05800
C 	C 	0.50690 0.43330 0.82590 -0.12000
C 	C 	0.52330 0.50540 0.80460 0.06300
H 	H 	0.53210 0.51150 0.76470 0.01900
C 	C 	0.49350 0.36700 0.78440 0.42300
C 	C 	0.76820 0.82370 0.84760 0.42100
C 	C 	0.90320 0.85270 0.87500 -0.10100
C 	C 	0.91210 0.90440 0.92120 -0.04700
H 	H 	0.83510 0.92100 0.93430 0.06500
C 	C 	0.26380 0.83100 0.85820 0.30000
C 	C 	0.14230 0.85640 0.88090 -0.06400
C 	C 	0.15080 0.90790 0.92700 -0.07200
H 	H 	0.23360 0.92710 0.94420 0.06000
C 	C 	0.03590 0.93170 0.94810 0.07600
C 	C 	0.01720 0.83050 0.85340 0.01700
H 	H 	0.01030 0.79820 0.82060 0.03800
C 	C 	0.62500 0.63990 0.61040 0.70700
C 	C 	0.64360 0.56180 0.63870 -1.19100
H 	H 	0.64800 0.56610 0.68110 0.39000
H 	H 	0.72490 0.53980 0.63030 0.38000
H 	H 	0.56950 0.53010 0.62240 0.38600
C 	C 	0.59550 0.57960 0.51060 -0.31600
H 	H 	0.68130 0.56150 0.50440 0.12600
H 	H 	0.54470 0.59540 0.47310 0.13400
H 	H 	0.54880 0.53960 0.52710 0.10600
C 	C 	0.60150 0.71920 0.53070 -0.30500
H 	H 	0.66980 0.75060 0.55270 0.12800
H 	H 	0.51530 0.73910 0.53440 0.13400
H 	H 	0.61100 0.71860 0.48930 0.13100
O 	O 	0.59270 0.66930 0.64650 -0.33000
Zn	Zn	0.50691 0.30775 0.66684 1.23900
Zn	Zn	0.32630 0.22506 0.77221 1.23000
O 	O 	0.48820 0.19960 0.65258 -0.49300
O 	O 	0.47460 0.87580 0.76516 -0.49600
O 	O 	0.42560 0.15210 0.73405 -0.51300
O 	O 	0.55230 0.80630 0.69739 -0.48300
O 	O 	0.32700 0.34140 0.62818 -0.47900
O 	O 	0.23790 0.28340 0.69820 -0.51100
O 	O 	0.74400 0.29000 0.68603 -0.34200
O 	O 	0.62290 0.35310 0.61325 -0.42600
O 	O 	0.33740 0.19240 0.85540 -0.35000
N 	N 	0.50620 0.97160 0.51648 -0.08600
N 	N 	0.94720 0.48740 0.50660 -0.09500
N 	N 	0.38630 0.14580 0.94660 -0.18000
C 	C 	0.46050 0.14550 0.68380 0.42900
C 	C 	0.47280 0.06830 0.65990 -0.12900
C 	C 	0.48210 0.05970 0.59980 -0.02300
H 	H 	0.47960 0.10170 0.57490 0.06200
C 	C 	0.49540 0.98630 0.57730 0.06200
C 	C 	0.50520 0.92520 0.61500 -0.03100
H 	H 	0.52030 0.87730 0.60030 0.05800
C 	C 	0.49310 0.93330 0.67410 -0.12000
C 	C 	0.47670 0.00540 0.69540 0.06300
H 	H 	0.46790 0.01150 0.73530 0.01900
C 	C 	0.50650 0.86700 0.71560 0.42300
C 	C 	0.23180 0.32370 0.65240 0.42100
C 	C 	0.09680 0.35270 0.62500 -0.10100
C 	C 	0.08790 0.40440 0.57880 -0.04700
H 	H 	0.16490 0.42100 0.56570 0.06500
C 	C 	0.73620 0.33100 0.64180 0.30000
C 	C 	0.85770 0.35640 0.61910 -0.06400
C 	C 	0.84920 0.40790 0.57300 -0.07200
H 	H 	0.76640 0.42710 0.55580 0.05900
C 	C 	0.96410 0.43170 0.55190 0.07500
C 	C 	0.98280 0.33050 0.64660 0.01700
H 	H 	0.98970 0.29820 0.67940 0.03800
C 	C 	0.37500 0.13990 0.88960 0.70700
C 	C 	0.35640 0.06180 0.86130 -1.19000
H 	H 	0.35200 0.06610 0.81890 0.39000
H 	H 	0.27510 0.03980 0.86970 0.38000
H 	H 	0.43050 0.03010 0.87760 0.38600
C 	C 	0.40450 0.07960 0.98940 -0.31600
H 	H 	0.31870 0.06150 0.99560 0.12600
H 	H 	0.45530 0.09540 0.02690 0.13400
H 	H 	0.45120 0.03960 0.97290 0.10600
C 	C 	0.39850 0.21920 0.96930 -0.30400
H 	H 	0.33020 0.25060 0.94730 0.12800
H 	H 	0.48470 0.23910 0.96560 0.13400
H 	H 	0.38900 0.21860 0.01070 0.13100
O 	O 	0.40730 0.16930 0.85350 -0.33000
Zn	Zn	0.50691 0.19225 0.16684 1.23900
Zn	Zn	0.32630 0.27494 0.27221 1.23000
O 	O 	0.48820 0.30040 0.15258 -0.49300
O 	O 	0.47460 0.62420 0.26516 -0.49600
O 	O 	0.42560 0.34790 0.23405 -0.51300
O 	O 	0.55230 0.69370 0.19739 -0.48300
O 	O 	0.32700 0.15860 0.12818 -0.47900
O 	O 	0.23790 0.21660 0.19820 -0.51100
O 	O 	0.74400 0.21000 0.18603 -0.34200
O 	O 	0.62290 0.14690 0.11325 -0.42600
O 	O 	0.33740 0.30760 0.35540 -0.35000
N 	N 	0.50620 0.52840 0.01648 -0.08600
N 	N 	0.94720 0.01260 0.00660 -0.09500
N 	N 	0.38630 0.35420 0.44660 -0.18000
C 	C 	0.46050 0.35450 0.18380 0.42900
C 	C 	0.47280 0.43170 0.15990 -0.12900
C 	C 	0.48210 0.44030 0.09980 -0.02300
H 	H 	0.47960 0.39830 0.07490 0.06200
C 	C 	0.49540 0.51370 0.07730 0.06200
C 	C 	0.50520 0.57480 0.11500 -0.03100
H 	H 	0.52030 0.62270 0.10030 0.05800
C 	C 	0.49310 0.56670 0.17410 -0.12000
C 	C 	0.47670 0.49460 0.19540 0.06300
H 	H 	0.46790 0.48850 0.23530 0.01900
C 	C 	0.50650 0.63300 0.21560 0.42300
C 	C 	0.23180 0.17630 0.15240 0.42100
C 	C 	0.09680 0.14730 0.12500 -0.10100
C 	C 	0.08790 0.09560 0.07880 -0.04700
H 	H 	0.16490 0.07900 0.06570 0.06500
C 	C 	0.73620 0.16900 0.14180 0.30000
C 	C 	0.85770 0.14360 0.11910 -0.06400
C 	C 	0.84920 0.09210 0.07300 -0.07200
H 	H 	0.76640 0.07290 0.05580 0.06000
C 	C 	0.96410 0.06830 0.05190 0.07600
C 	C 	0.98280 0.16950 0.14660 0.01700
H 	H 	0.98970 0.20180 0.17940 0.03800
C 	C 	0.37500 0.36010 0.38960 0.70700
C 	C 	0.35640 0.43820 0.36130 -1.19100
H 	H 	0.35200 0.43390 0.31890 0.39000
H 	H 	0.27510 0.46020 0.36970 0.38000
H 	H 	0.43050 0.46990 0.37760 0.38600
C 	C 	0.40450 0.42040 0.48940 -0.31600
H 	H 	0.31870 0.43850 0.49560 0.12600
H 	H 	0.45530 0.40460 0.52690 0.13400
H 	H 	0.45120 0.46040 0.47290 0.10600
C 	C 	0.39850 0.28080 0.46930 -0.30500
H 	H 	0.33020 0.24940 0.44730 0.12800
H 	H 	0.48470 0.26090 0.46560 0.13400
H 	H 	0.38900 0.28140 0.51070 0.13100
O 	O 	0.40730 0.33070 0.35350 -0.33000
Zn	Zn	0.49309 0.69225 0.33316 1.23900
Zn	Zn	0.67370 0.77494 0.22779 1.23000
O 	O 	0.51180 0.80040 0.34742 -0.49300
O 	O 	0.52540 0.12420 0.23484 -0.49600
O 	O 	0.57440 0.84790 0.26595 -0.51300
O 	O 	0.44770 0.19370 0.30261 -0.48300
O 	O 	0.67300 0.65860 0.37182 -0.47900
O 	O 	0.76210 0.71660 0.30180 -0.51100
O 	O 	0.25600 0.71000 0.31397 -0.34200
O 	O 	0.37710 0.64690 0.38675 -0.42600
O 	O 	0.66260 0.80760 0.14460 -0.35000
N 	N 	0.49380 0.02840 0.48352 -0.08600
N 	N 	0.05280 0.51260 0.49340 -0.09500
N 	N 	0.61370 0.85420 0.05340 -0.18000
C 	C 	0.53950 0.85450 0.31620 0.42900
C 	C 	0.52720 0.93170 0.34010 -0.12900
C 	C 	0.51790 0.94030 0.40020 -0.02300
H 	H 	0.52040 0.89830 0.42510 0.06200
C 	C 	0.50460 0.01370 0.42270 0.06200
C 	C 	0.49480 0.07480 0.38500 -0.03100
H 	H 	0.47970 0.12270 0.39970 0.05800
C 	C 	0.50690 0.06670 0.32590 -0.12000
C 	C 	0.52330 0.99460 0.30460 0.06300
H 	H 	0.53210 0.98850 0.26470 0.01900
C 	C 	0.49350 0.13300 0.28440 0.42300
C 	C 	0.76820 0.67630 0.34760 0.42100
C 	C 	0.90320 0.64730 0.37500 -0.10100
C 	C 	0.91210 0.59560 0.42120 -0.04700
H 	H 	0.83510 0.57900 0.43430 0.06500
C 	C 	0.26380 0.66900 0.35820 0.30000
C 	C 	0.14230 0.64360 0.38090 -0.06400
C 	C 	0.15080 0.59210 0.42700 -0.07200
H 	H 	0.23360 0.57290 0.44420 0.05900
C 	C 	0.03590 0.56830 0.44810 0.07500
C 	C 	0.01720 0.66950 0.35340 0.01700
H 	H 	0.01030 0.70180 0.32060 0.03800
C 	C 	0.62500 0.86010 0.11040 0.70700
C 	C 	0.64360 0.93820 0.13870 -1.19000
H 	H 	0.64800 0.93390 0.18110 0.39000
H 	H 	0.72490 0.96020 0.13030 0.38000
H 	H 	0.56950 0.96990 0.12240 0.38600
C 	C 	0.59550 0.92040 0.01060 -0.31600
H 	H 	0.68130 0.93850 0.00440 0.12600
H 	H 	0.54470 0.90460 0.97310 0.13400
H 	H 	0.54880 0.96040 0.02710 0.10600
C 	C 	0.60150 0.78080 0.03070 -0.30400
H 	H 	0.66980 0.74940 0.05270 0.12800
H 	H 	0.51530 0.76090 0.03440 0.13400
H 	H 	0.61100 0.78140 0.98930 0.13100
O 	O 	0.59270 0.83070 0.14650 -0.33000
