data_crystal

_cell_length_a 14.42250
_cell_length_b 14.26010
_cell_length_c 22.51060
_cell_angle_alpha 90.00000
_cell_angle_beta  100.15400
_cell_angle_gamma 90.00000

_symmetry_space_group_name_	'P 1'
_symmetry_space_group_name_H-M	'P 1'

loop_
_symmetry_equiv_pos_as_xyz
  x,y,z

loop_
_atom_site_label
_atom_site_type_symbol
_atom_site_fract_x
_atom_site_fract_y
_atom_site_fract_z
_atom_site_charge
Cd	Cd	0.25605 0.75113 0.24017 1.23800
Cd	Cd	0.18455 0.62409 0.36043 1.16200
O 	O 	0.09760 0.60330 0.26800 -0.49800
O 	O 	0.31550 0.65250 0.31690 -0.53700
O 	O 	0.61690 0.36060 0.24870 -0.35100
O 	O 	0.84760 0.35790 0.23790 -0.42400
O 	O 	0.69390 0.32140 0.33910 -0.37900
O 	O 	0.37550 0.61820 0.23630 -0.34400
O 	O 	0.82150 0.28320 0.15050 -0.49600
N 	N 	0.52350 0.47100 0.48800 -0.10100
N 	N 	0.97210 0.47350 0.00970 -0.09100
C 	C 	0.62970 0.36600 0.30550 0.28400
C 	C 	0.03220 0.54260 0.17270 -0.10000
C 	C 	0.43940 0.53980 0.32750 -0.08300
C 	C 	0.51200 0.47950 0.42360 0.07300
C 	C 	0.49910 0.48410 0.29970 -0.00700
H 	H 	0.49420 0.48540 0.25800 0.06100
C 	C 	0.57230 0.42510 0.39670 -0.07800
H 	H 	0.61710 0.38730 0.42020 0.06400
C 	C 	0.44490 0.53670 0.38950 -0.05900
H 	H 	0.40420 0.57240 0.40810 0.02400
C 	C 	0.97570 0.47950 0.07350 0.06900
C 	C 	0.91930 0.41700 0.09750 -0.05200
H 	H 	0.88180 0.37480 0.07250 0.04800
C 	C 	0.56550 0.42730 0.33390 -0.04400
C 	C 	0.97480 0.48000 0.19660 0.03000
H 	H 	0.97400 0.48020 0.23780 0.02700
C 	C 	0.03220 0.54280 0.11110 -0.04700
H 	H 	0.07000 0.58510 0.09480 0.06800
C 	C 	0.09760 0.60870 0.21270 0.39500
C 	C 	0.91860 0.41720 0.15930 -0.09800
C 	C 	0.37270 0.60530 0.28980 0.32100
C 	C 	0.85820 0.34680 0.18420 0.37100
O 	O 	0.14620 0.66230 0.18760 -0.44500
Cd	Cd	0.74395 0.25113 0.25983 1.23800
Cd	Cd	0.81545 0.12409 0.13957 1.16200
O 	O 	0.90240 0.10330 0.23200 -0.49900
O 	O 	0.68450 0.15250 0.18310 -0.53700
O 	O 	0.38310 0.86060 0.25130 -0.35100
O 	O 	0.15240 0.85790 0.26210 -0.42400
O 	O 	0.30610 0.82140 0.16090 -0.37800
O 	O 	0.62450 0.11820 0.26370 -0.34400
O 	O 	0.17850 0.78320 0.34950 -0.49600
N 	N 	0.47650 0.97100 0.01200 -0.10100
N 	N 	0.02790 0.97350 0.49030 -0.09100
C 	C 	0.37030 0.86600 0.19450 0.28400
C 	C 	0.96780 0.04260 0.32730 -0.10100
C 	C 	0.56060 0.03980 0.17250 -0.08400
C 	C 	0.48800 0.97950 0.07640 0.07300
C 	C 	0.50090 0.98410 0.20030 -0.00600
H 	H 	0.50580 0.98540 0.24200 0.06100
C 	C 	0.42770 0.92510 0.10330 -0.07800
H 	H 	0.38290 0.88730 0.07980 0.06400
C 	C 	0.55510 0.03670 0.11050 -0.06000
H 	H 	0.59580 0.07240 0.09190 0.02400
C 	C 	0.02430 0.97950 0.42650 0.06900
C 	C 	0.08070 0.91700 0.40250 -0.05200
H 	H 	0.11820 0.87480 0.42750 0.04800
C 	C 	0.43450 0.92730 0.16610 -0.04400
C 	C 	0.02520 0.98000 0.30340 0.03100
H 	H 	0.02600 0.98020 0.26220 0.02700
C 	C 	0.96780 0.04280 0.38890 -0.04700
H 	H 	0.93000 0.08510 0.40520 0.06800
C 	C 	0.90240 0.10870 0.28730 0.39500
C 	C 	0.08140 0.91720 0.34070 -0.09900
C 	C 	0.62730 0.10530 0.21020 0.32100
C 	C 	0.14180 0.84680 0.31580 0.37100
O 	O 	0.85380 0.16230 0.31240 -0.44500
Cd	Cd	0.74395 0.24887 0.75983 1.23800
Cd	Cd	0.81545 0.37591 0.63957 1.16200
O 	O 	0.90240 0.39670 0.73200 -0.49800
O 	O 	0.68450 0.34750 0.68310 -0.53700
O 	O 	0.38310 0.63940 0.75130 -0.35100
O 	O 	0.15240 0.64210 0.76210 -0.42400
O 	O 	0.30610 0.67860 0.66090 -0.37900
O 	O 	0.62450 0.38180 0.76370 -0.34400
O 	O 	0.17850 0.71680 0.84950 -0.49600
N 	N 	0.47650 0.52900 0.51200 -0.10100
N 	N 	0.02790 0.52650 0.99030 -0.09100
C 	C 	0.37030 0.63400 0.69450 0.28400
C 	C 	0.96780 0.45740 0.82730 -0.10000
C 	C 	0.56060 0.46020 0.67250 -0.08300
C 	C 	0.48800 0.52050 0.57640 0.07300
C 	C 	0.50090 0.51590 0.70030 -0.00700
H 	H 	0.50580 0.51460 0.74200 0.06100
C 	C 	0.42770 0.57490 0.60330 -0.07800
H 	H 	0.38290 0.61270 0.57980 0.06400
C 	C 	0.55510 0.46330 0.61050 -0.05900
H 	H 	0.59580 0.42760 0.59190 0.02400
C 	C 	0.02430 0.52050 0.92650 0.06900
C 	C 	0.08070 0.58300 0.90250 -0.05200
H 	H 	0.11820 0.62520 0.92750 0.04800
C 	C 	0.43450 0.57270 0.66610 -0.04400
C 	C 	0.02520 0.52000 0.80340 0.03000
H 	H 	0.02600 0.51980 0.76220 0.02700
C 	C 	0.96780 0.45720 0.88890 -0.04700
H 	H 	0.93000 0.41490 0.90520 0.06800
C 	C 	0.90240 0.39130 0.78730 0.39500
C 	C 	0.08140 0.58280 0.84070 -0.09800
C 	C 	0.62730 0.39470 0.71020 0.32100
C 	C 	0.14180 0.65320 0.81580 0.37100
O 	O 	0.85380 0.33770 0.81240 -0.44500
Cd	Cd	0.25605 0.74887 0.74017 1.23800
Cd	Cd	0.18455 0.87591 0.86043 1.16200
O 	O 	0.09760 0.89670 0.76800 -0.49900
O 	O 	0.31550 0.84750 0.81690 -0.53700
O 	O 	0.61690 0.13940 0.74870 -0.35100
O 	O 	0.84760 0.14210 0.73790 -0.42400
O 	O 	0.69390 0.17860 0.83910 -0.37800
O 	O 	0.37550 0.88180 0.73630 -0.34400
O 	O 	0.82150 0.21680 0.65050 -0.49600
N 	N 	0.52350 0.02900 0.98800 -0.10100
N 	N 	0.97210 0.02650 0.50970 -0.09100
C 	C 	0.62970 0.13400 0.80550 0.28400
C 	C 	0.03220 0.95740 0.67270 -0.10100
C 	C 	0.43940 0.96020 0.82750 -0.08400
C 	C 	0.51200 0.02050 0.92360 0.07300
C 	C 	0.49910 0.01590 0.79970 -0.00600
H 	H 	0.49420 0.01460 0.75800 0.06100
C 	C 	0.57230 0.07490 0.89670 -0.07800
H 	H 	0.61710 0.11270 0.92020 0.06400
C 	C 	0.44490 0.96330 0.88950 -0.06000
H 	H 	0.40420 0.92760 0.90810 0.02400
C 	C 	0.97570 0.02050 0.57350 0.06900
C 	C 	0.91930 0.08300 0.59750 -0.05200
H 	H 	0.88180 0.12520 0.57250 0.04800
C 	C 	0.56550 0.07270 0.83390 -0.04400
C 	C 	0.97480 0.02000 0.69660 0.03100
H 	H 	0.97400 0.01980 0.73780 0.02700
C 	C 	0.03220 0.95720 0.61110 -0.04700
H 	H 	0.07000 0.91490 0.59480 0.06800
C 	C 	0.09760 0.89130 0.71270 0.39500
C 	C 	0.91860 0.08280 0.65930 -0.09900
C 	C 	0.37270 0.89470 0.78980 0.32100
C 	C 	0.85820 0.15320 0.68420 0.37100
O 	O 	0.14620 0.83770 0.68760 -0.44500
