data_crystal

_cell_length_a 4.50540
_cell_length_b 10.33540
_cell_length_c 10.80170
_cell_angle_alpha 77.93300
_cell_angle_beta  79.23000
_cell_angle_gamma 83.14800

_symmetry_space_group_name_	'P 1'
_symmetry_space_group_name_H-M	'P 1'

loop_
_symmetry_equiv_pos_as_xyz
  x,y,z

loop_
_atom_site_label
_atom_site_type_symbol
_atom_site_fract_x
_atom_site_fract_y
_atom_site_fract_z
_atom_site_charge
Gd	Gd	0.17178 0.11326 0.57849 1.58800
O 	O 	0.78490 0.25200 0.68000 -0.45100
O 	O 	0.36760 0.14300 0.75830 -0.43800
O 	O 	0.05180 0.04940 0.24820 -0.42800
O 	O 	0.71280 0.08990 0.49930 -0.54800
O 	O 	0.24900 0.17750 0.34980 -0.45800
N 	N 	0.92500 0.46820 0.04900 -0.08500
C 	C 	0.57330 0.20890 0.76920 0.39600
C 	C 	0.57100 0.24140 0.89990 -0.09100
C 	C 	0.75250 0.33660 0.90780 -0.03700
H 	H 	0.87540 0.37780 0.83460 0.06100
C 	C 	0.75090 0.37080 0.02640 0.07300
C 	C 	0.57460 0.30390 0.13500 -0.03300
H 	H 	0.57540 0.32520 0.21440 0.05500
C 	C 	0.39770 0.20610 0.12700 -0.09500
C 	C 	0.39160 0.17500 0.00940 0.03700
H 	H 	0.27010 0.11080 0.00290 0.04500
C 	C 	0.21900 0.13690 0.25070 0.40800
Gd	Gd	0.82822 0.88674 0.42151 1.58900
O 	O 	0.21510 0.74800 0.32000 -0.45000
O 	O 	0.63240 0.85700 0.24170 -0.43800
O 	O 	0.94820 0.95060 0.75180 -0.42800
O 	O 	0.28720 0.91010 0.50070 -0.54800
O 	O 	0.75100 0.82250 0.65020 -0.45800
N 	N 	0.07500 0.53180 0.95100 -0.08500
C 	C 	0.42670 0.79110 0.23080 0.39600
C 	C 	0.42900 0.75860 0.10010 -0.09100
C 	C 	0.24750 0.66340 0.09220 -0.03700
H 	H 	0.12460 0.62220 0.16540 0.06100
C 	C 	0.24910 0.62920 0.97360 0.07300
C 	C 	0.42540 0.69610 0.86500 -0.03300
H 	H 	0.42460 0.67480 0.78560 0.05500
C 	C 	0.60230 0.79390 0.87300 -0.09500
C 	C 	0.60840 0.82500 0.99060 0.03700
H 	H 	0.72990 0.88920 0.99710 0.04500
C 	C 	0.78100 0.86310 0.74930 0.40800
