data_crystal

_cell_length_a 11.73410
_cell_length_b 17.51890
_cell_length_c 20.15790
_cell_angle_alpha 99.51000
_cell_angle_beta  90.00000
_cell_angle_gamma 90.00000

_symmetry_space_group_name_	'P 1'
_symmetry_space_group_name_H-M	'P 1'

loop_
_symmetry_equiv_pos_as_xyz
  x,y,z

loop_
_atom_site_label
_atom_site_type_symbol
_atom_site_fract_x
_atom_site_fract_y
_atom_site_fract_z
_atom_site_charge
K 	K 	0.31190 0.59228 0.45430 0.68400
K 	K 	0.45040 0.94020 0.53456 0.68700
K 	K 	0.26020 0.01320 0.97086 0.66000
K 	K 	0.81190 0.40772 0.54570 0.68000
K 	K 	0.95040 0.05980 0.46544 0.67700
K 	K 	0.76020 0.98680 0.02914 0.65200
U 	U 	0.36631 0.96676 0.75381 -0.00100
U 	U 	0.86631 0.03324 0.24619 -0.01600
H 	H 	0.09390 0.96150 0.81610 -0.01600
H 	H 	0.90270 0.96700 0.79790 0.14800
H 	H 	0.83910 0.96270 0.68450 -0.00700
H 	H 	0.97740 0.96990 0.60300 0.18700
H 	H 	0.16560 0.96870 0.62850 0.01800
H 	H 	0.29650 0.81540 0.83270 0.06700
H 	H 	0.27400 0.68060 0.82040 0.12600
H 	H 	0.27810 0.61010 0.71640 0.05900
H 	H 	0.29250 0.67040 0.62020 0.11100
H 	H 	0.31360 0.80520 0.63870 0.06100
H 	H 	0.57900 0.84810 0.67670 0.06600
H 	H 	0.74650 0.78360 0.69050 0.16500
H 	H 	0.80820 0.77740 0.80060 0.02900
H 	H 	0.69300 0.83700 0.89140 0.09900
H 	H 	0.53690 0.90210 0.86910 0.05500
H 	H 	0.59150 0.05170 0.68400 0.06100
H 	H 	0.75620 0.12140 0.70020 0.12400
H 	H 	0.81030 0.16700 0.81100 0.04600
H 	H 	0.70380 0.13370 0.89910 0.12700
H 	H 	0.54250 0.06490 0.87610 0.00900
H 	H 	0.31760 0.10690 0.66480 0.03400
H 	H 	0.30490 0.22760 0.64860 0.21400
H 	H 	0.31800 0.31500 0.75060 0.03300
H 	H 	0.31540 0.27570 0.85420 0.12800
H 	H 	0.31420 0.14160 0.85970 0.00800
H 	H 	0.59390 0.03850 0.18390 0.02600
H 	H 	0.40270 0.03300 0.20210 0.09000
H 	H 	0.33910 0.03730 0.31550 0.05200
H 	H 	0.47740 0.03010 0.39700 0.13000
H 	H 	0.66560 0.03130 0.37150 0.06700
H 	H 	0.79650 0.18460 0.16730 0.06200
H 	H 	0.77400 0.31940 0.17960 0.11400
H 	H 	0.77810 0.38990 0.28360 0.05000
H 	H 	0.79250 0.32960 0.37980 0.10300
H 	H 	0.81360 0.19480 0.36130 0.05700
H 	H 	0.07900 0.15190 0.32330 0.07800
H 	H 	0.24650 0.21640 0.30950 0.16800
H 	H 	0.30820 0.22260 0.19940 0.03900
H 	H 	0.19300 0.16300 0.10860 0.10300
H 	H 	0.03690 0.09790 0.13090 0.06700
H 	H 	0.09150 0.94830 0.31600 0.07200
H 	H 	0.25620 0.87860 0.29980 0.12700
H 	H 	0.31030 0.83300 0.18900 0.05600
H 	H 	0.20380 0.86630 0.10090 0.12900
H 	H 	0.04250 0.93510 0.12390 0.02100
H 	H 	0.81760 0.89310 0.33520 0.02900
H 	H 	0.80490 0.77240 0.35140 0.20600
H 	H 	0.81800 0.68500 0.24940 0.02300
H 	H 	0.81540 0.72430 0.14580 0.11600
H 	H 	0.81420 0.85840 0.14030 0.00000
C 	C 	0.06920 0.96420 0.77270 0.25000
C 	C 	0.95400 0.96570 0.76250 -0.30700
C 	C 	0.91620 0.96500 0.69540 0.21700
C 	C 	0.99920 0.96790 0.64700 -0.29300
C 	C 	0.11230 0.96770 0.66250 0.25000
C 	C 	0.29630 0.78560 0.79000 0.09400
C 	C 	0.28320 0.70460 0.78290 -0.10200
C 	C 	0.28420 0.66370 0.72150 0.06900
C 	C 	0.29410 0.69890 0.66340 -0.07400
C 	C 	0.30650 0.77920 0.67520 0.09600
C 	C 	0.60370 0.84650 0.72020 0.10900
C 	C 	0.70490 0.80670 0.72770 -0.12500
C 	C 	0.74120 0.80300 0.79290 0.07100
C 	C 	0.67300 0.83930 0.84710 -0.11700
C 	C 	0.57950 0.87700 0.83310 0.09000
C 	C 	0.61530 0.06920 0.72790 0.09600
C 	C 	0.71330 0.11090 0.73650 -0.13300
C 	C 	0.74520 0.13670 0.80200 0.08800
C 	C 	0.68110 0.11790 0.85470 -0.15400
C 	C 	0.58580 0.07650 0.84040 0.10500
C 	C 	0.31510 0.14420 0.70340 0.17000
C 	C 	0.31040 0.21320 0.69090 -0.20900
C 	C 	0.31490 0.26220 0.75160 0.14500
C 	C 	0.31530 0.23900 0.81510 -0.15900
C 	C 	0.31560 0.15960 0.81880 0.12600
C 	C 	0.61000 0.61160 0.54430 0.82600
C 	C 	0.11850 0.81800 0.46160 0.98600
C 	C 	0.74200 0.82050 0.52100 0.78300
C 	C 	0.95600 0.18180 0.99740 0.75000
C 	C 	0.56920 0.03580 0.22730 0.09600
C 	C 	0.45400 0.03430 0.23750 -0.11100
C 	C 	0.41620 0.03500 0.30460 0.05900
C 	C 	0.49920 0.03210 0.35300 -0.08600
C 	C 	0.61230 0.03230 0.33750 0.09100
C 	C 	0.79630 0.21440 0.21000 0.08300
C 	C 	0.78320 0.29540 0.21710 -0.10400
C 	C 	0.78420 0.33630 0.27850 0.06000
C 	C 	0.79410 0.30110 0.33660 -0.07900
C 	C 	0.80650 0.22080 0.32480 0.08500
C 	C 	0.10370 0.15350 0.27980 0.11000
C 	C 	0.20490 0.19330 0.27230 -0.11800
C 	C 	0.24120 0.19700 0.20710 0.07300
C 	C 	0.17300 0.16070 0.15290 -0.10900
C 	C 	0.07950 0.12300 0.16690 0.09300
C 	C 	0.11530 0.93080 0.27210 0.09700
C 	C 	0.21330 0.88910 0.26350 -0.12600
C 	C 	0.24520 0.86330 0.19800 0.08700
C 	C 	0.18110 0.88210 0.14530 -0.14400
C 	C 	0.08580 0.92350 0.15960 0.10600
C 	C 	0.81510 0.85580 0.29660 0.16100
C 	C 	0.81040 0.78680 0.30910 -0.21400
C 	C 	0.81490 0.73780 0.24840 0.13700
C 	C 	0.81530 0.76100 0.18490 -0.16500
C 	C 	0.81560 0.84040 0.18120 0.11600
C 	C 	0.11000 0.38840 0.45570 0.81600
C 	C 	0.61850 0.18200 0.53840 0.98800
C 	C 	0.24200 0.17950 0.47900 0.78500
C 	C 	0.45600 0.81820 0.00260 0.74300
S 	S 	0.57620 0.50710 0.53067 0.32700
S 	S 	0.26380 0.78730 0.45710 0.25000
S 	S 	0.72590 0.92035 0.51168 0.32900
S 	S 	0.99120 0.09550 0.96260 0.10200
S 	S 	0.07620 0.49290 0.46933 0.40000
S 	S 	0.76380 0.21270 0.54290 0.25100
S 	S 	0.22590 0.07965 0.48832 0.32600
S 	S 	0.49120 0.90450 0.03740 0.23800
N 	N 	0.14940 0.96630 0.72600 -0.14900
N 	N 	0.30830 0.81940 0.73670 -0.09900
N 	N 	0.54140 0.88140 0.76940 -0.10300
N 	N 	0.54930 0.05100 0.77840 -0.11100
N 	N 	0.31790 0.11190 0.76030 -0.12200
N 	N 	0.64940 0.03370 0.27400 -0.10000
N 	N 	0.80830 0.18060 0.26330 -0.10300
N 	N 	0.04140 0.11860 0.23060 -0.08800
N 	N 	0.04930 0.94900 0.22160 -0.09600
N 	N 	0.81790 0.88810 0.23970 -0.12600
O 	O 	0.39620 0.95730 0.66410 -0.14300
O 	O 	0.33300 0.97510 0.84410 -0.16000
O 	O 	0.45670 0.50720 0.51480 -0.17700
O 	O 	0.64550 0.47320 0.47510 -0.19000
O 	O 	0.60860 0.48370 0.59410 -0.18000
O 	O 	0.27010 0.72710 0.40040 -0.17600
O 	O 	0.31700 0.78700 0.51980 -0.17500
O 	O 	0.32180 0.85280 0.43280 -0.17100
O 	O 	0.64340 0.92000 0.45890 -0.20900
O 	O 	0.68690 0.95400 0.57600 -0.20400
O 	O 	0.84150 0.94030 0.49600 -0.20200
O 	O 	0.03990 0.05600 0.01530 -0.17900
O 	O 	0.05560 0.09280 0.90490 -0.12800
O 	O 	0.88510 0.05630 0.94780 -0.22100
O 	O 	0.89620 0.04270 0.33590 -0.16500
O 	O 	0.83300 0.02490 0.15590 -0.17900
O 	O 	0.95670 0.49280 0.48520 -0.23500
O 	O 	0.14550 0.52680 0.52490 -0.19200
O 	O 	0.10860 0.51630 0.40590 -0.17800
O 	O 	0.77010 0.27290 0.59960 -0.19100
O 	O 	0.81700 0.21300 0.48020 -0.18800
O 	O 	0.82180 0.14720 0.56720 -0.18200
O 	O 	0.14340 0.08000 0.54110 -0.19000
O 	O 	0.18690 0.04600 0.42400 -0.19500
O 	O 	0.34150 0.05970 0.50400 -0.18600
O 	O 	0.53990 0.94400 0.98470 -0.23400
O 	O 	0.55560 0.90720 0.09510 -0.20200
O 	O 	0.38510 0.94370 0.05220 -0.23900
F 	F 	0.57650 0.63940 0.48990 -0.45200
F 	F 	0.55550 0.64860 0.59630 -0.46800
F 	F 	0.72020 0.62230 0.55360 -0.43800
F 	F 	0.06480 0.77380 0.48580 -0.53200
F 	F 	0.08180 0.84300 0.41140 -0.52800
F 	F 	0.12100 0.88530 0.51040 -0.46100
F 	F 	0.81770 0.81100 0.56760 -0.42700
F 	F 	0.78200 0.77680 0.46620 -0.42400
F 	F 	0.64100 0.79380 0.54040 -0.42900
F 	F 	0.89390 0.18490 0.05160 -0.49700
F 	F 	0.03760 0.22620 0.01790 -0.44300
F 	F 	0.89160 0.22470 0.95220 -0.41800
F 	F 	0.07650 0.36060 0.51010 -0.43500
F 	F 	0.05550 0.35140 0.40370 -0.44800
F 	F 	0.22020 0.37770 0.44640 -0.42900
F 	F 	0.56480 0.22620 0.51420 -0.54900
F 	F 	0.58180 0.15700 0.58860 -0.54300
F 	F 	0.62100 0.11470 0.48960 -0.47300
F 	F 	0.31770 0.18900 0.43240 -0.41800
F 	F 	0.28200 0.22320 0.53380 -0.41300
F 	F 	0.14100 0.20620 0.45960 -0.41900
F 	F 	0.39390 0.81510 0.94840 -0.47300
F 	F 	0.53760 0.77380 0.98210 -0.47100
F 	F 	0.39160 0.77530 0.04780 -0.40500
