data_crystal

_cell_length_a 7.18340
_cell_length_b 22.36700
_cell_length_c 8.48520
_cell_angle_alpha 90.00000
_cell_angle_beta  90.00000
_cell_angle_gamma 90.00000

_symmetry_space_group_name_	'P 1'
_symmetry_space_group_name_H-M	'P 1'

loop_
_symmetry_equiv_pos_as_xyz
  x,y,z

loop_
_atom_site_label
_atom_site_type_symbol
_atom_site_fract_x
_atom_site_fract_y
_atom_site_fract_z
_atom_site_charge
O 	O 	0.08330 0.68540 0.02470 -0.45300
O 	O 	0.08330 0.18540 0.52470 -0.48900
O 	O 	0.91670 0.31460 0.02470 -0.45400
O 	O 	0.91670 0.81460 0.52470 -0.49000
O 	O 	0.58330 0.31460 0.02470 -0.45400
O 	O 	0.58330 0.81460 0.52470 -0.49000
O 	O 	0.41670 0.68540 0.02470 -0.45400
O 	O 	0.41670 0.18540 0.52470 -0.49000
Sr	Sr	0.25000 0.81749 0.42428 1.51000
S 	S 	0.25000 0.68077 0.12030 0.70700
O 	O 	0.25000 0.72070 0.25350 -0.50200
O 	O 	0.25000 0.39460 0.14610 -0.43300
O 	O 	0.25000 0.44380 0.92490 -0.50700
O 	O 	0.25000 0.47810 0.64590 -0.54600
H 	H 	0.25000 0.47610 0.74240 0.33900
O 	O 	0.25000 0.57510 0.69880 -0.34200
C 	C 	0.25000 0.44280 0.07080 0.52100
C 	C 	0.25000 0.53380 0.60270 0.46000
C 	C 	0.25000 0.60680 0.20320 -0.28200
C 	C 	0.25000 0.55680 0.09990 0.33800
H 	H 	0.25000 0.56180 0.99110 -0.12800
C 	C 	0.25000 0.49970 0.16780 -0.27100
C 	C 	0.25000 0.49330 0.32960 0.18600
H 	H 	0.25000 0.45500 0.37270 0.00300
C 	C 	0.25000 0.54320 0.43100 -0.23900
C 	C 	0.25000 0.59990 0.36330 0.20200
H 	H 	0.25000 0.63350 0.42780 -0.04900
Sr	Sr	0.25000 0.31749 0.92428 1.49200
S 	S 	0.25000 0.18077 0.62030 0.68800
O 	O 	0.25000 0.22070 0.75350 -0.52800
O 	O 	0.25000 0.89460 0.64610 -0.42200
O 	O 	0.25000 0.94380 0.42490 -0.40200
O 	O 	0.25000 0.97810 0.14590 -0.53200
H 	H 	0.25000 0.97610 0.24240 0.33600
O 	O 	0.25000 0.07510 0.19880 -0.33100
C 	C 	0.25000 0.94280 0.57080 0.38100
C 	C 	0.25000 0.03380 0.10270 0.54500
C 	C 	0.25000 0.10680 0.70320 -0.23200
C 	C 	0.25000 0.05680 0.59990 0.12800
H 	H 	0.25000 0.06180 0.49110 0.00900
C 	C 	0.25000 0.99970 0.66780 -0.18500
C 	C 	0.25000 0.99330 0.82960 0.17000
H 	H 	0.25000 0.95500 0.87270 -0.01100
C 	C 	0.25000 0.04320 0.93100 -0.31400
C 	C 	0.25000 0.09990 0.86330 0.20000
H 	H 	0.25000 0.13350 0.92780 -0.07200
Sr	Sr	0.75000 0.18251 0.42428 1.51000
S 	S 	0.75000 0.31923 0.12030 0.70700
O 	O 	0.75000 0.27930 0.25350 -0.50200
O 	O 	0.75000 0.60540 0.14610 -0.43300
O 	O 	0.75000 0.55620 0.92490 -0.50700
O 	O 	0.75000 0.52190 0.64590 -0.54600
H 	H 	0.75000 0.52390 0.74240 0.33900
O 	O 	0.75000 0.42490 0.69880 -0.34200
C 	C 	0.75000 0.55720 0.07080 0.52100
C 	C 	0.75000 0.46620 0.60270 0.46000
C 	C 	0.75000 0.39320 0.20320 -0.28200
C 	C 	0.75000 0.44320 0.09990 0.33800
H 	H 	0.75000 0.43820 0.99110 -0.12800
C 	C 	0.75000 0.50030 0.16780 -0.27100
C 	C 	0.75000 0.50670 0.32960 0.18600
H 	H 	0.75000 0.54500 0.37270 0.00300
C 	C 	0.75000 0.45680 0.43100 -0.23900
C 	C 	0.75000 0.40010 0.36330 0.20200
H 	H 	0.75000 0.36650 0.42780 -0.04900
Sr	Sr	0.75000 0.68251 0.92428 1.49200
S 	S 	0.75000 0.81923 0.62030 0.68800
O 	O 	0.75000 0.77930 0.75350 -0.52800
O 	O 	0.75000 0.10540 0.64610 -0.42200
O 	O 	0.75000 0.05620 0.42490 -0.40200
O 	O 	0.75000 0.02190 0.14590 -0.53200
H 	H 	0.75000 0.02390 0.24240 0.33600
O 	O 	0.75000 0.92490 0.19880 -0.33100
C 	C 	0.75000 0.05720 0.57080 0.38100
C 	C 	0.75000 0.96620 0.10270 0.54500
C 	C 	0.75000 0.89320 0.70320 -0.23200
C 	C 	0.75000 0.94320 0.59990 0.12800
H 	H 	0.75000 0.93820 0.49110 0.00900
C 	C 	0.75000 0.00030 0.66780 -0.18500
C 	C 	0.75000 0.00670 0.82960 0.17000
H 	H 	0.75000 0.04500 0.87270 -0.01100
C 	C 	0.75000 0.95680 0.93100 -0.31400
C 	C 	0.75000 0.90010 0.86330 0.20000
H 	H 	0.75000 0.86650 0.92780 -0.07200
