data_crystal

_cell_length_a 15.23800
_cell_length_b 15.23800
_cell_length_c 15.66300
_cell_angle_alpha 90.00000
_cell_angle_beta  90.00000
_cell_angle_gamma 120.00000

_symmetry_space_group_name_	'P 1'
_symmetry_space_group_name_H-M	'P 1'

loop_
_symmetry_equiv_pos_as_xyz
  x,y,z

loop_
_atom_site_label
_atom_site_type_symbol
_atom_site_fract_x
_atom_site_fract_y
_atom_site_fract_z
_atom_site_charge
Eu	Eu	0.66667 0.33334 0.75000 1.96200
Eu	Eu	0.33333 0.66666 0.75000 1.96100
Eu	Eu	0.33333 0.66666 0.25000 1.94400
Eu	Eu	0.66667 0.33334 0.25000 1.94400
Fe	Fe	0.50000 0.50000 0.50000 1.17300
Fe	Fe	-0.00000 0.50000 0.50000 1.12900
Fe	Fe	0.50000 0.00000 0.50000 1.12900
Fe	Fe	-0.00000 0.50000 -0.00000 1.05300
Fe	Fe	0.50000 0.50000 -0.00000 1.09500
Fe	Fe	0.50000 0.00000 -0.00000 1.05300
H 	H 	0.28730 0.05620 0.84530 0.05000
H 	H 	0.76890 0.71270 0.84530 0.08100
H 	H 	0.94380 0.23110 0.84530 0.08700
H 	H 	0.71270 0.94380 0.84530 0.09600
H 	H 	0.23110 0.28730 0.84530 0.06400
H 	H 	0.05620 0.76890 0.84530 0.05800
H 	H 	0.23110 0.94380 0.65470 0.06800
H 	H 	0.05620 0.28730 0.65470 0.02900
H 	H 	0.71270 0.76890 0.65470 0.06100
H 	H 	0.76890 0.05620 0.65470 0.03800
H 	H 	0.94380 0.71270 0.65470 0.07600
H 	H 	0.28730 0.23110 0.65470 0.04300
H 	H 	0.71270 0.94380 0.15470 0.05500
H 	H 	0.23110 0.28730 0.15470 0.02100
H 	H 	0.05620 0.76890 0.15470 0.01600
H 	H 	0.28730 0.05620 0.15470 0.00700
H 	H 	0.76890 0.71270 0.15470 0.03900
H 	H 	0.94380 0.23110 0.15470 0.04700
H 	H 	0.76890 0.05620 0.34530 0.03400
H 	H 	0.94380 0.71270 0.34530 0.07300
H 	H 	0.28730 0.23110 0.34530 0.04000
H 	H 	0.23110 0.94380 0.34530 0.06500
H 	H 	0.05620 0.28730 0.34530 0.02500
H 	H 	0.71270 0.76890 0.34530 0.05800
H 	H 	0.19950 0.09975 0.75000 0.01400
H 	H 	0.90025 0.80050 0.75000 0.06500
H 	H 	0.90025 0.09975 0.75000 0.03900
H 	H 	0.80050 0.90025 0.75000 0.06500
H 	H 	0.09975 0.19950 0.75000 0.01400
H 	H 	0.09975 0.90025 0.75000 0.03900
H 	H 	0.80050 0.90025 0.25000 0.06100
H 	H 	0.09975 0.19950 0.25000 0.00800
H 	H 	0.09975 0.90025 0.25000 0.03500
H 	H 	0.19950 0.09975 0.25000 0.00800
H 	H 	0.90025 0.80050 0.25000 0.06100
H 	H 	0.90025 0.09975 0.25000 0.03500
C 	C 	0.32170 0.10850 0.80640 -0.04500
C 	C 	0.42600 0.16170 0.80390 -0.02300
C 	C 	0.49160 0.13910 0.86130 0.34800
C 	C 	0.78680 0.67830 0.80640 -0.03400
C 	C 	0.73570 0.57400 0.80390 -0.00500
C 	C 	0.64750 0.50840 0.86130 0.34900
C 	C 	0.89150 0.21320 0.80640 -0.03900
C 	C 	0.83830 0.26430 0.80390 -0.00300
C 	C 	0.86090 0.35250 0.86130 0.34300
C 	C 	0.67830 0.89150 0.80640 -0.03400
C 	C 	0.57400 0.83830 0.80390 0.00200
C 	C 	0.50840 0.86090 0.86130 0.34400
C 	C 	0.21320 0.32170 0.80640 -0.04400
C 	C 	0.26430 0.42600 0.80390 -0.01600
C 	C 	0.35250 0.49160 0.86130 0.34700
C 	C 	0.10850 0.78680 0.80640 -0.04000
C 	C 	0.16170 0.73570 0.80390 -0.01700
C 	C 	0.13910 0.64750 0.86130 0.34900
C 	C 	0.21320 0.89150 0.69360 -0.03800
C 	C 	0.26430 0.83830 0.69610 -0.01700
C 	C 	0.35250 0.86090 0.63870 0.34900
C 	C 	0.10850 0.32170 0.69360 -0.04300
C 	C 	0.16170 0.42600 0.69610 -0.03700
C 	C 	0.13910 0.49160 0.63870 0.35400
C 	C 	0.67830 0.78680 0.69360 -0.03200
C 	C 	0.57400 0.73570 0.69610 -0.01900
C 	C 	0.50840 0.64750 0.63870 0.35500
C 	C 	0.78680 0.10850 0.69360 -0.03800
C 	C 	0.73570 0.16170 0.69610 -0.03100
C 	C 	0.64750 0.13910 0.63870 0.35500
C 	C 	0.89150 0.67830 0.69360 -0.03200
C 	C 	0.83830 0.57400 0.69610 -0.01200
C 	C 	0.86090 0.50840 0.63870 0.35000
C 	C 	0.32170 0.21320 0.69360 -0.04200
C 	C 	0.42600 0.26430 0.69610 -0.03100
C 	C 	0.49160 0.35250 0.63870 0.35300
C 	C 	0.67830 0.89150 0.19360 -0.02200
C 	C 	0.57400 0.83830 0.19610 -0.03000
C 	C 	0.50840 0.86090 0.13870 0.35100
C 	C 	0.21320 0.32170 0.19360 -0.03200
C 	C 	0.26430 0.42600 0.19610 -0.05000
C 	C 	0.35250 0.49160 0.13870 0.35400
C 	C 	0.10850 0.78680 0.19360 -0.02800
C 	C 	0.16170 0.73570 0.19610 -0.05000
C 	C 	0.13910 0.64750 0.13870 0.35600
C 	C 	0.32170 0.10850 0.19360 -0.03300
C 	C 	0.42600 0.16170 0.19610 -0.05600
C 	C 	0.49160 0.13910 0.13870 0.35500
C 	C 	0.78680 0.67830 0.19360 -0.02200
C 	C 	0.73570 0.57400 0.19610 -0.03800
C 	C 	0.64750 0.50840 0.13870 0.35600
C 	C 	0.89150 0.21320 0.19360 -0.02800
C 	C 	0.83830 0.26430 0.19610 -0.03500
C 	C 	0.86090 0.35250 0.13870 0.35000
C 	C 	0.78680 0.10850 0.30640 -0.02900
C 	C 	0.73570 0.16170 0.30390 -0.03900
C 	C 	0.64750 0.13910 0.36130 0.35600
C 	C 	0.89150 0.67830 0.30640 -0.02300
C 	C 	0.83830 0.57400 0.30390 -0.01900
C 	C 	0.86090 0.50840 0.36130 0.35200
C 	C 	0.32170 0.21320 0.30640 -0.03300
C 	C 	0.42600 0.26430 0.30390 -0.03900
C 	C 	0.49160 0.35250 0.36130 0.35400
C 	C 	0.21320 0.89150 0.30640 -0.02800
C 	C 	0.26430 0.83830 0.30390 -0.02400
C 	C 	0.35250 0.86090 0.36130 0.35100
C 	C 	0.10850 0.32170 0.30640 -0.03300
C 	C 	0.16170 0.42600 0.30390 -0.04500
C 	C 	0.13910 0.49160 0.36130 0.35500
C 	C 	0.67830 0.78680 0.30640 -0.02300
C 	C 	0.57400 0.73570 0.30390 -0.02700
C 	C 	0.50840 0.64750 0.36130 0.35600
C 	C 	0.27000 0.13500 0.75000 -0.03500
C 	C 	0.86500 0.73000 0.75000 -0.01500
C 	C 	0.86500 0.13500 0.75000 -0.02500
C 	C 	0.73000 0.86500 0.75000 -0.01500
C 	C 	0.13500 0.27000 0.75000 -0.03500
C 	C 	0.13500 0.86500 0.75000 -0.02400
C 	C 	0.73000 0.86500 0.25000 -0.03700
C 	C 	0.13500 0.27000 0.25000 -0.05800
C 	C 	0.13500 0.86500 0.25000 -0.04700
C 	C 	0.27000 0.13500 0.25000 -0.05800
C 	C 	0.86500 0.73000 0.25000 -0.03700
C 	C 	0.86500 0.13500 0.25000 -0.04700
N 	N 	0.47730 0.23865 0.75000 -0.19500
N 	N 	0.76135 0.52270 0.75000 -0.19500
N 	N 	0.76135 0.23865 0.75000 -0.19500
N 	N 	0.52270 0.76135 0.75000 -0.19500
N 	N 	0.23865 0.47730 0.75000 -0.19500
N 	N 	0.23865 0.76135 0.75000 -0.19500
N 	N 	0.52270 0.76135 0.25000 -0.19000
N 	N 	0.23865 0.47730 0.25000 -0.19100
N 	N 	0.23865 0.76135 0.25000 -0.19100
N 	N 	0.47730 0.23865 0.25000 -0.19100
N 	N 	0.76135 0.52270 0.25000 -0.19000
N 	N 	0.76135 0.23865 0.25000 -0.19100
O 	O 	0.58670 0.19870 0.85649 -0.42500
O 	O 	0.44750 0.06320 0.90850 -0.37800
O 	O 	0.61200 0.41330 0.85649 -0.41500
O 	O 	0.61570 0.55250 0.90850 -0.35000
O 	O 	0.80130 0.38800 0.85649 -0.40400
O 	O 	0.93680 0.38430 0.90850 -0.31600
O 	O 	0.41330 0.80130 0.85649 -0.40400
O 	O 	0.55250 0.93680 0.90850 -0.31300
O 	O 	0.38800 0.58670 0.85649 -0.41700
O 	O 	0.38430 0.44750 0.90850 -0.35600
O 	O 	0.19870 0.61200 0.85649 -0.42400
O 	O 	0.06320 0.61570 0.90850 -0.37500
O 	O 	0.38800 0.80130 0.64351 -0.43500
O 	O 	0.38430 0.93680 0.59150 -0.38000
O 	O 	0.19870 0.58670 0.64351 -0.45600
O 	O 	0.06320 0.44750 0.59150 -0.44400
O 	O 	0.41330 0.61200 0.64351 -0.44600
O 	O 	0.55250 0.61570 0.59150 -0.41500
O 	O 	0.61200 0.19870 0.64351 -0.45500
O 	O 	0.61570 0.06320 0.59150 -0.44100
O 	O 	0.80130 0.41330 0.64351 -0.43400
O 	O 	0.93680 0.55250 0.59150 -0.37700
O 	O 	0.58670 0.38800 0.64351 -0.44800
O 	O 	0.44750 0.38430 0.59150 -0.42200
O 	O 	0.41330 0.80130 0.14351 -0.45400
O 	O 	0.55250 0.93680 0.09150 -0.41200
O 	O 	0.38800 0.58670 0.14351 -0.46800
O 	O 	0.38430 0.44750 0.09150 -0.45800
O 	O 	0.19870 0.61200 0.14351 -0.47500
O 	O 	0.06320 0.61570 0.09150 -0.47600
O 	O 	0.58670 0.19870 0.14351 -0.47600
O 	O 	0.44750 0.06320 0.09150 -0.48000
O 	O 	0.61200 0.41330 0.14351 -0.46600
O 	O 	0.61570 0.55250 0.09150 -0.45100
O 	O 	0.80130 0.38800 0.14351 -0.45400
O 	O 	0.93680 0.38430 0.09150 -0.41500
O 	O 	0.61200 0.19870 0.35649 -0.45300
O 	O 	0.61570 0.06320 0.40850 -0.44100
O 	O 	0.80130 0.41330 0.35649 -0.43200
O 	O 	0.93680 0.55250 0.40850 -0.37700
O 	O 	0.58670 0.38800 0.35649 -0.44600
O 	O 	0.44750 0.38430 0.40850 -0.42200
O 	O 	0.38800 0.80130 0.35649 -0.43300
O 	O 	0.38430 0.93680 0.40850 -0.38000
O 	O 	0.19870 0.58670 0.35649 -0.45400
O 	O 	0.06320 0.44750 0.40850 -0.44400
O 	O 	0.41330 0.61200 0.35649 -0.44400
O 	O 	0.55250 0.61570 0.40850 -0.41600
