data_crystal

_cell_length_a 15.29100
_cell_length_b 15.29100
_cell_length_c 15.57300
_cell_angle_alpha 90.00000
_cell_angle_beta  90.00000
_cell_angle_gamma 120.00000

_symmetry_space_group_name_	'P 1'
_symmetry_space_group_name_H-M	'P 1'

loop_
_symmetry_equiv_pos_as_xyz
  x,y,z

loop_
_atom_site_label
_atom_site_type_symbol
_atom_site_fract_x
_atom_site_fract_y
_atom_site_fract_z
_atom_site_charge
Gd	Gd	0.66667 0.33334 0.75000 1.57700
Gd	Gd	0.33333 0.66666 0.75000 1.57600
Gd	Gd	0.33333 0.66666 0.25000 1.57100
Gd	Gd	0.66667 0.33334 0.25000 1.57100
Fe	Fe	0.50000 0.00000 -0.00000 1.10200
Fe	Fe	0.50000 0.50000 -0.00000 1.14600
Fe	Fe	0.00000 0.50000 1.00000 1.15300
Fe	Fe	0.50000 -0.00000 0.50000 1.12800
Fe	Fe	0.00000 0.50000 0.50000 1.12700
Fe	Fe	0.50000 0.50000 0.50000 1.17200
H 	H 	0.28690 0.05280 0.84190 0.03800
H 	H 	0.76590 0.71310 0.84190 0.07000
H 	H 	0.94720 0.23410 0.84190 0.08000
H 	H 	0.71310 0.94720 0.84190 0.08600
H 	H 	0.23410 0.28690 0.84190 0.05300
H 	H 	0.05280 0.76590 0.84190 0.04300
H 	H 	0.23410 0.94720 0.65810 0.07100
H 	H 	0.05280 0.28690 0.65810 0.03000
H 	H 	0.71310 0.76590 0.65810 0.06300
H 	H 	0.76590 0.05280 0.65810 0.03900
H 	H 	0.94720 0.71310 0.65810 0.08100
H 	H 	0.28690 0.23410 0.65810 0.04600
H 	H 	0.71310 0.94720 0.15810 0.07300
H 	H 	0.23410 0.28690 0.15810 0.03900
H 	H 	0.05280 0.76590 0.15810 0.03200
H 	H 	0.28690 0.05280 0.15810 0.02300
H 	H 	0.76590 0.71310 0.15810 0.05600
H 	H 	0.94720 0.23410 0.15810 0.06400
H 	H 	0.76590 0.05280 0.34190 0.03700
H 	H 	0.94720 0.71310 0.34190 0.07900
H 	H 	0.28690 0.23410 0.34190 0.04500
H 	H 	0.23410 0.94720 0.34190 0.07100
H 	H 	0.05280 0.28690 0.34190 0.02900
H 	H 	0.71310 0.76590 0.34190 0.06200
H 	H 	0.20010 0.10005 0.75000 0.01000
H 	H 	0.89995 0.79990 0.75000 0.06300
H 	H 	0.89995 0.10005 0.75000 0.03700
H 	H 	0.79990 0.89995 0.75000 0.06300
H 	H 	0.10005 0.20010 0.75000 0.00900
H 	H 	0.10005 0.89995 0.75000 0.03500
H 	H 	0.79990 0.89995 0.25000 0.06100
H 	H 	0.10005 0.20010 0.25000 0.00800
H 	H 	0.10005 0.89995 0.25000 0.03400
H 	H 	0.20010 0.10005 0.25000 0.00700
H 	H 	0.89995 0.79990 0.25000 0.06100
H 	H 	0.89995 0.10005 0.25000 0.03400
C 	C 	0.32150 0.10730 0.80480 -0.04700
C 	C 	0.42600 0.16170 0.80410 -0.02500
C 	C 	0.49160 0.13890 0.86150 0.34100
C 	C 	0.78580 0.67850 0.80480 -0.03600
C 	C 	0.73570 0.57400 0.80410 -0.00700
C 	C 	0.64730 0.50840 0.86150 0.34300
C 	C 	0.89270 0.21420 0.80480 -0.04100
C 	C 	0.83830 0.26430 0.80410 -0.00500
C 	C 	0.86110 0.35270 0.86150 0.33900
C 	C 	0.67850 0.89270 0.80480 -0.03600
C 	C 	0.57400 0.83830 0.80410 -0.00000
C 	C 	0.50840 0.86110 0.86150 0.33800
C 	C 	0.21420 0.32150 0.80480 -0.04700
C 	C 	0.26430 0.42600 0.80410 -0.02000
C 	C 	0.35270 0.49160 0.86150 0.34000
C 	C 	0.10730 0.78580 0.80480 -0.04100
C 	C 	0.16170 0.73570 0.80410 -0.02100
C 	C 	0.13890 0.64730 0.86150 0.34500
C 	C 	0.21420 0.89270 0.69520 -0.04100
C 	C 	0.26430 0.83830 0.69590 -0.01100
C 	C 	0.35270 0.86110 0.63850 0.33900
C 	C 	0.10730 0.32150 0.69520 -0.04700
C 	C 	0.16170 0.42600 0.69590 -0.03100
C 	C 	0.13890 0.49160 0.63850 0.34300
C 	C 	0.67850 0.78580 0.69520 -0.03500
C 	C 	0.57400 0.73570 0.69590 -0.01200
C 	C 	0.50840 0.64730 0.63850 0.34500
C 	C 	0.78580 0.10730 0.69520 -0.04100
C 	C 	0.73570 0.16170 0.69590 -0.02400
C 	C 	0.64730 0.13890 0.63850 0.34500
C 	C 	0.89270 0.67850 0.69520 -0.03600
C 	C 	0.83830 0.57400 0.69590 -0.00400
C 	C 	0.86110 0.50840 0.63850 0.34000
C 	C 	0.32150 0.21420 0.69520 -0.04600
C 	C 	0.42600 0.26430 0.69590 -0.02400
C 	C 	0.49160 0.35270 0.63850 0.34300
C 	C 	0.67850 0.89270 0.19520 -0.03300
C 	C 	0.57400 0.83830 0.19590 -0.01100
C 	C 	0.50840 0.86110 0.13850 0.34000
C 	C 	0.21420 0.32150 0.19520 -0.04300
C 	C 	0.26430 0.42600 0.19590 -0.03100
C 	C 	0.35270 0.49160 0.13850 0.34300
C 	C 	0.10730 0.78580 0.19520 -0.03800
C 	C 	0.16170 0.73570 0.19590 -0.03100
C 	C 	0.13890 0.64730 0.13850 0.34700
C 	C 	0.32150 0.10730 0.19520 -0.04400
C 	C 	0.42600 0.16170 0.19590 -0.03700
C 	C 	0.49160 0.13890 0.13850 0.34400
C 	C 	0.78580 0.67850 0.19520 -0.03200
C 	C 	0.73570 0.57400 0.19590 -0.01900
C 	C 	0.64730 0.50840 0.13850 0.34500
C 	C 	0.89270 0.21420 0.19520 -0.03700
C 	C 	0.83830 0.26430 0.19590 -0.01800
C 	C 	0.86110 0.35270 0.13850 0.34100
C 	C 	0.78580 0.10730 0.30480 -0.03800
C 	C 	0.73570 0.16170 0.30410 -0.02700
C 	C 	0.64730 0.13890 0.36150 0.34500
C 	C 	0.89270 0.67850 0.30480 -0.03300
C 	C 	0.83830 0.57400 0.30410 -0.00700
C 	C 	0.86110 0.50840 0.36150 0.34000
C 	C 	0.32150 0.21420 0.30480 -0.04300
C 	C 	0.42600 0.26430 0.30410 -0.02700
C 	C 	0.49160 0.35270 0.36150 0.34300
C 	C 	0.21420 0.89270 0.30480 -0.03800
C 	C 	0.26430 0.83830 0.30410 -0.01300
C 	C 	0.35270 0.86110 0.36150 0.34000
C 	C 	0.10730 0.32150 0.30480 -0.04400
C 	C 	0.16170 0.42600 0.30410 -0.03300
C 	C 	0.13890 0.49160 0.36150 0.34400
C 	C 	0.67850 0.78580 0.30480 -0.03200
C 	C 	0.57400 0.73570 0.30410 -0.01500
C 	C 	0.50840 0.64730 0.36150 0.34500
C 	C 	0.27030 0.13515 0.75000 -0.03600
C 	C 	0.86485 0.72970 0.75000 -0.01500
C 	C 	0.86485 0.13515 0.75000 -0.02500
C 	C 	0.72970 0.86485 0.75000 -0.01600
C 	C 	0.13515 0.27030 0.75000 -0.03700
C 	C 	0.13515 0.86485 0.75000 -0.02700
C 	C 	0.72970 0.86485 0.25000 -0.02300
C 	C 	0.13515 0.27030 0.25000 -0.04400
C 	C 	0.13515 0.86485 0.25000 -0.03300
C 	C 	0.27030 0.13515 0.25000 -0.04400
C 	C 	0.86485 0.72970 0.25000 -0.02300
C 	C 	0.86485 0.13515 0.25000 -0.03300
N 	N 	0.47770 0.23885 0.75000 -0.16800
N 	N 	0.76115 0.52230 0.75000 -0.16800
N 	N 	0.76115 0.23885 0.75000 -0.16800
N 	N 	0.52230 0.76115 0.75000 -0.16700
N 	N 	0.23885 0.47770 0.75000 -0.16800
N 	N 	0.23885 0.76115 0.75000 -0.16800
N 	N 	0.52230 0.76115 0.25000 -0.16600
N 	N 	0.23885 0.47770 0.25000 -0.16700
N 	N 	0.23885 0.76115 0.25000 -0.16600
N 	N 	0.47770 0.23885 0.25000 -0.16600
N 	N 	0.76115 0.52230 0.25000 -0.16600
N 	N 	0.76115 0.23885 0.25000 -0.16600
O 	O 	0.58620 0.19930 0.85670 -0.39700
O 	O 	0.44710 0.06240 0.90790 -0.41500
O 	O 	0.61310 0.41380 0.85670 -0.38800
O 	O 	0.61530 0.55290 0.90790 -0.38800
O 	O 	0.80070 0.38690 0.85670 -0.37800
O 	O 	0.93760 0.38470 0.90790 -0.35900
O 	O 	0.41380 0.80070 0.85670 -0.37600
O 	O 	0.55290 0.93760 0.90790 -0.35100
O 	O 	0.38690 0.58620 0.85670 -0.39000
O 	O 	0.38470 0.44710 0.90790 -0.39500
O 	O 	0.19930 0.61310 0.85670 -0.40000
O 	O 	0.06240 0.61530 0.90790 -0.42600
O 	O 	0.38690 0.80070 0.64330 -0.38700
O 	O 	0.38470 0.93760 0.59210 -0.37500
O 	O 	0.19930 0.58620 0.64330 -0.40900
O 	O 	0.06240 0.44710 0.59210 -0.44100
O 	O 	0.41380 0.61310 0.64330 -0.39800
O 	O 	0.55290 0.61530 0.59210 -0.41000
O 	O 	0.61310 0.19930 0.64330 -0.40700
O 	O 	0.61530 0.06240 0.59210 -0.43600
O 	O 	0.80070 0.41380 0.64330 -0.38600
O 	O 	0.93760 0.55290 0.59210 -0.37000
O 	O 	0.58620 0.38690 0.64330 -0.40000
O 	O 	0.44710 0.38470 0.59210 -0.41700
O 	O 	0.41380 0.80070 0.14330 -0.39300
O 	O 	0.55290 0.93760 0.09210 -0.38300
O 	O 	0.38690 0.58620 0.14330 -0.40700
O 	O 	0.38470 0.44710 0.09210 -0.43000
O 	O 	0.19930 0.61310 0.14330 -0.41600
O 	O 	0.06240 0.61530 0.09210 -0.45700
O 	O 	0.58620 0.19930 0.14330 -0.41600
O 	O 	0.44710 0.06240 0.09210 -0.45300
O 	O 	0.61310 0.41380 0.14330 -0.40600
O 	O 	0.61530 0.55290 0.09210 -0.42300
O 	O 	0.80070 0.38690 0.14330 -0.39700
O 	O 	0.93760 0.38470 0.09210 -0.39700
O 	O 	0.61310 0.19930 0.35670 -0.40700
O 	O 	0.61530 0.06240 0.40790 -0.43700
O 	O 	0.80070 0.41380 0.35670 -0.38500
O 	O 	0.93760 0.55290 0.40790 -0.37100
O 	O 	0.58620 0.38690 0.35670 -0.40000
O 	O 	0.44710 0.38470 0.40790 -0.41700
O 	O 	0.38690 0.80070 0.35670 -0.38600
O 	O 	0.38470 0.93760 0.40790 -0.37500
O 	O 	0.19930 0.58620 0.35670 -0.40800
O 	O 	0.06240 0.44710 0.40790 -0.44000
O 	O 	0.41380 0.61310 0.35670 -0.39800
O 	O 	0.55290 0.61530 0.40790 -0.41000
