data_crystal

_cell_length_a 15.19900
_cell_length_b 15.19900
_cell_length_c 15.58900
_cell_angle_alpha 90.00000
_cell_angle_beta  90.00000
_cell_angle_gamma 120.00000

_symmetry_space_group_name_	'P 1'
_symmetry_space_group_name_H-M	'P 1'

loop_
_symmetry_equiv_pos_as_xyz
  x,y,z

loop_
_atom_site_label
_atom_site_type_symbol
_atom_site_fract_x
_atom_site_fract_y
_atom_site_fract_z
_atom_site_charge
Tb	Tb	0.66667 0.33334 0.75000 1.85300
Tb	Tb	0.33333 0.66666 0.75000 1.85300
Tb	Tb	0.33333 0.66666 0.25000 1.83800
Tb	Tb	0.66667 0.33334 0.25000 1.83800
Fe	Fe	0.50000 0.00000 -0.00000 1.05500
Fe	Fe	0.50000 0.50000 -0.00000 1.09800
Fe	Fe	0.00000 0.50000 -0.00000 1.05500
Fe	Fe	0.50000 0.00000 0.50000 1.13200
Fe	Fe	0.00000 0.50000 0.50000 1.13200
Fe	Fe	0.50000 0.50000 0.50000 1.17600
H 	H 	0.28790 0.05550 0.84470 0.04800
H 	H 	0.76760 0.71210 0.84470 0.08000
H 	H 	0.94450 0.23240 0.84470 0.08700
H 	H 	0.71210 0.94450 0.84470 0.09500
H 	H 	0.23240 0.28790 0.84470 0.06300
H 	H 	0.05550 0.76760 0.84470 0.05600
H 	H 	0.23240 0.94450 0.65530 0.06700
H 	H 	0.05550 0.28790 0.65530 0.02700
H 	H 	0.71210 0.76760 0.65530 0.06000
H 	H 	0.76760 0.05550 0.65530 0.03600
H 	H 	0.94450 0.71210 0.65530 0.07500
H 	H 	0.28790 0.23240 0.65530 0.04200
H 	H 	0.71210 0.94450 0.15530 0.05400
H 	H 	0.23240 0.28790 0.15530 0.02000
H 	H 	0.05550 0.76760 0.15530 0.01400
H 	H 	0.28790 0.05550 0.15530 0.00500
H 	H 	0.76760 0.71210 0.15530 0.03800
H 	H 	0.94450 0.23240 0.15530 0.04600
H 	H 	0.76760 0.05550 0.34470 0.03200
H 	H 	0.94450 0.71210 0.34470 0.07200
H 	H 	0.28790 0.23240 0.34470 0.03800
H 	H 	0.23240 0.94450 0.34470 0.06400
H 	H 	0.05550 0.28790 0.34470 0.02300
H 	H 	0.71210 0.76760 0.34470 0.05600
H 	H 	0.19870 0.09935 0.75000 0.01600
H 	H 	0.90065 0.80130 0.75000 0.06700
H 	H 	0.90065 0.09935 0.75000 0.04100
H 	H 	0.80130 0.90065 0.75000 0.06700
H 	H 	0.09935 0.19870 0.75000 0.01600
H 	H 	0.09935 0.90065 0.75000 0.04100
H 	H 	0.80130 0.90065 0.25000 0.06300
H 	H 	0.09935 0.19870 0.25000 0.01000
H 	H 	0.09935 0.90065 0.25000 0.03700
H 	H 	0.19870 0.09935 0.25000 0.01000
H 	H 	0.90065 0.80130 0.25000 0.06300
H 	H 	0.90065 0.09935 0.25000 0.03700
C 	C 	0.32220 0.10850 0.80600 -0.03900
C 	C 	0.42640 0.16170 0.80390 -0.02700
C 	C 	0.49180 0.13890 0.86120 0.35900
C 	C 	0.78630 0.67780 0.80600 -0.02900
C 	C 	0.73530 0.57360 0.80390 -0.00900
C 	C 	0.64710 0.50820 0.86120 0.36000
C 	C 	0.89150 0.21370 0.80600 -0.03400
C 	C 	0.83830 0.26470 0.80390 -0.00600
C 	C 	0.86110 0.35290 0.86120 0.35400
C 	C 	0.67780 0.89150 0.80600 -0.02900
C 	C 	0.57360 0.83830 0.80390 -0.00100
C 	C 	0.50820 0.86110 0.86120 0.35500
C 	C 	0.21370 0.32220 0.80600 -0.03800
C 	C 	0.26470 0.42640 0.80390 -0.02000
C 	C 	0.35290 0.49180 0.86120 0.35800
C 	C 	0.10850 0.78630 0.80600 -0.03400
C 	C 	0.16170 0.73530 0.80390 -0.02100
C 	C 	0.13890 0.64710 0.86120 0.36000
C 	C 	0.21370 0.89150 0.69400 -0.03200
C 	C 	0.26470 0.83830 0.69610 -0.02100
C 	C 	0.35290 0.86110 0.63880 0.36100
C 	C 	0.10850 0.32220 0.69400 -0.03600
C 	C 	0.16170 0.42640 0.69610 -0.04200
C 	C 	0.13890 0.49180 0.63880 0.36600
C 	C 	0.67780 0.78630 0.69400 -0.02600
C 	C 	0.57360 0.73530 0.69610 -0.02400
C 	C 	0.50820 0.64710 0.63880 0.36700
C 	C 	0.78630 0.10850 0.69400 -0.03200
C 	C 	0.73530 0.16170 0.69610 -0.03600
C 	C 	0.64710 0.13890 0.63880 0.36700
C 	C 	0.89150 0.67780 0.69400 -0.02700
C 	C 	0.83830 0.57360 0.69610 -0.01500
C 	C 	0.86110 0.50820 0.63880 0.36100
C 	C 	0.32220 0.21370 0.69400 -0.03600
C 	C 	0.42640 0.26470 0.69610 -0.03500
C 	C 	0.49180 0.35290 0.63880 0.36500
C 	C 	0.67780 0.89150 0.19400 -0.01700
C 	C 	0.57360 0.83830 0.19610 -0.03400
C 	C 	0.50820 0.86110 0.13880 0.36300
C 	C 	0.21370 0.32220 0.19400 -0.02600
C 	C 	0.26470 0.42640 0.19610 -0.05500
C 	C 	0.35290 0.49180 0.13880 0.36700
C 	C 	0.10850 0.78630 0.19400 -0.02100
C 	C 	0.16170 0.73530 0.19610 -0.05500
C 	C 	0.13890 0.64710 0.13880 0.36900
C 	C 	0.32220 0.10850 0.19400 -0.02600
C 	C 	0.42640 0.16170 0.19610 -0.06100
C 	C 	0.49180 0.13890 0.13880 0.36800
C 	C 	0.78630 0.67780 0.19400 -0.01600
C 	C 	0.73530 0.57360 0.19610 -0.04300
C 	C 	0.64710 0.50820 0.13880 0.36900
C 	C 	0.89150 0.21370 0.19400 -0.02200
C 	C 	0.83830 0.26470 0.19610 -0.04000
C 	C 	0.86110 0.35290 0.13880 0.36200
C 	C 	0.78630 0.10850 0.30600 -0.02200
C 	C 	0.73530 0.16170 0.30390 -0.04400
C 	C 	0.64710 0.13890 0.36120 0.36900
C 	C 	0.89150 0.67780 0.30600 -0.01700
C 	C 	0.83830 0.57360 0.30390 -0.02300
C 	C 	0.86110 0.50820 0.36120 0.36300
C 	C 	0.32220 0.21370 0.30600 -0.02600
C 	C 	0.42640 0.26470 0.30390 -0.04300
C 	C 	0.49180 0.35290 0.36120 0.36700
C 	C 	0.21370 0.89150 0.30600 -0.02200
C 	C 	0.26470 0.83830 0.30390 -0.02900
C 	C 	0.35290 0.86110 0.36120 0.36200
C 	C 	0.10850 0.32220 0.30600 -0.02700
C 	C 	0.16170 0.42640 0.30390 -0.05000
C 	C 	0.13890 0.49180 0.36120 0.36800
C 	C 	0.67780 0.78630 0.30600 -0.01700
C 	C 	0.57360 0.73530 0.30390 -0.03100
C 	C 	0.50820 0.64710 0.36120 0.36800
C 	C 	0.26940 0.13470 0.75000 -0.04100
C 	C 	0.86530 0.73060 0.75000 -0.01900
C 	C 	0.86530 0.13470 0.75000 -0.03000
C 	C 	0.73060 0.86530 0.75000 -0.01900
C 	C 	0.13470 0.26940 0.75000 -0.04100
C 	C 	0.13470 0.86530 0.75000 -0.03000
C 	C 	0.73060 0.86530 0.25000 -0.04200
C 	C 	0.13470 0.26940 0.25000 -0.06500
C 	C 	0.13470 0.86530 0.25000 -0.05300
C 	C 	0.26940 0.13470 0.25000 -0.06500
C 	C 	0.86530 0.73060 0.25000 -0.04200
C 	C 	0.86530 0.13470 0.25000 -0.05300
N 	N 	0.47780 0.23890 0.75000 -0.18600
N 	N 	0.76110 0.52220 0.75000 -0.18600
N 	N 	0.76110 0.23890 0.75000 -0.18600
N 	N 	0.52220 0.76110 0.75000 -0.18600
N 	N 	0.23890 0.47780 0.75000 -0.18600
N 	N 	0.23890 0.76110 0.75000 -0.18600
N 	N 	0.52220 0.76110 0.25000 -0.18100
N 	N 	0.23890 0.47780 0.25000 -0.18100
N 	N 	0.23890 0.76110 0.25000 -0.18100
N 	N 	0.47780 0.23890 0.25000 -0.18100
N 	N 	0.76110 0.52220 0.25000 -0.18100
N 	N 	0.76110 0.23890 0.25000 -0.18100
O 	O 	0.58640 0.19890 0.85652 -0.41700
O 	O 	0.44790 0.06310 0.90800 -0.38300
O 	O 	0.61250 0.41360 0.85652 -0.40700
O 	O 	0.61520 0.55210 0.90800 -0.35400
O 	O 	0.80110 0.38750 0.85652 -0.39600
O 	O 	0.93690 0.38480 0.90800 -0.32100
O 	O 	0.41360 0.80110 0.85652 -0.39500
O 	O 	0.55210 0.93690 0.90800 -0.31800
O 	O 	0.38750 0.58640 0.85652 -0.40900
O 	O 	0.38480 0.44790 0.90800 -0.36000
O 	O 	0.19890 0.61250 0.85652 -0.41600
O 	O 	0.06310 0.61520 0.90800 -0.38000
O 	O 	0.38750 0.80110 0.64348 -0.42700
O 	O 	0.38480 0.93690 0.59200 -0.38500
O 	O 	0.19890 0.58640 0.64348 -0.44900
O 	O 	0.06310 0.44790 0.59200 -0.45000
O 	O 	0.41360 0.61250 0.64348 -0.43900
O 	O 	0.55210 0.61520 0.59200 -0.42100
O 	O 	0.61250 0.19890 0.64348 -0.44800
O 	O 	0.61520 0.06310 0.59200 -0.44700
O 	O 	0.80110 0.41360 0.64348 -0.42600
O 	O 	0.93690 0.55210 0.59200 -0.38200
O 	O 	0.58640 0.38750 0.64348 -0.44000
O 	O 	0.44790 0.38480 0.59200 -0.42700
O 	O 	0.41360 0.80110 0.14348 -0.44700
O 	O 	0.55210 0.93690 0.09200 -0.41700
O 	O 	0.38750 0.58640 0.14348 -0.46100
O 	O 	0.38480 0.44790 0.09200 -0.46400
O 	O 	0.19890 0.61250 0.14348 -0.46800
O 	O 	0.06310 0.61520 0.09200 -0.48300
O 	O 	0.58640 0.19890 0.14348 -0.46900
O 	O 	0.44790 0.06310 0.09200 -0.48600
O 	O 	0.61250 0.41360 0.14348 -0.45900
O 	O 	0.61520 0.55210 0.09200 -0.45700
O 	O 	0.80110 0.38750 0.14348 -0.44700
O 	O 	0.93690 0.38480 0.09200 -0.42000
O 	O 	0.61250 0.19890 0.35652 -0.44600
O 	O 	0.61520 0.06310 0.40800 -0.44700
O 	O 	0.80110 0.41360 0.35652 -0.42400
O 	O 	0.93690 0.55210 0.40800 -0.38200
O 	O 	0.58640 0.38750 0.35652 -0.43900
O 	O 	0.44790 0.38480 0.40800 -0.42800
O 	O 	0.38750 0.80110 0.35652 -0.42500
O 	O 	0.38480 0.93690 0.40800 -0.38500
O 	O 	0.19890 0.58640 0.35652 -0.44700
O 	O 	0.06310 0.44790 0.40800 -0.45000
O 	O 	0.41360 0.61250 0.35652 -0.43700
O 	O 	0.55210 0.61520 0.40800 -0.42100
