data_crystal

_cell_length_a 11.92600
_cell_length_b 14.41900
_cell_length_c 24.31100
_cell_angle_alpha 90.00000
_cell_angle_beta  103.42400
_cell_angle_gamma 90.00000

_symmetry_space_group_name_	'P 1'
_symmetry_space_group_name_H-M	'P 1'

loop_
_symmetry_equiv_pos_as_xyz
  x,y,z

loop_
_atom_site_label
_atom_site_type_symbol
_atom_site_fract_x
_atom_site_fract_y
_atom_site_fract_z
_atom_site_charge
C 	C 	0.46490 0.92480 0.46280 0.13200
H 	H 	0.46480 0.98780 0.47110 -0.02600
C 	C 	0.89600 0.17030 0.34470 0.11700
H 	H 	0.87590 0.10810 0.33940 -0.01700
C 	C 	0.12230 0.54400 0.44070 0.12000
H 	H 	0.07580 0.59440 0.44430 -0.06600
C 	C 	0.18050 0.40890 0.43220 0.11500
H 	H 	0.18590 0.34510 0.42790 -0.03900
C 	C 	0.96900 0.30640 0.33620 0.14100
H 	H 	0.01020 0.35520 0.32550 -0.06300
C 	C 	0.24000 0.67760 0.55290 0.09000
H 	H 	0.26480 0.61690 0.56080 -0.02800
C 	C 	0.18200 0.81330 0.56010 0.08800
H 	H 	0.15780 0.86720 0.57500 -0.00600
C 	C 	0.66600 0.05060 0.56900 0.10100
H 	H 	0.63060 0.00180 0.58320 -0.00800
C 	C 	0.39500 0.67100 0.33500 0.07800
H 	H 	0.37260 0.73260 0.32830 -0.03900
C 	C 	0.47300 0.52900 0.33280 0.08100
H 	H 	0.50900 0.47730 0.32210 -0.02200
C 	C 	0.68300 0.43310 0.43600 0.08900
H 	H 	0.69000 0.49710 0.43290 -0.05300
C 	C 	0.03000 0.05180 0.46060 0.06400
H 	H 	0.08020 0.10140 0.46230 -0.02400
C 	C 	0.96500 0.91200 0.45840 0.11800
H 	H 	0.96020 0.84770 0.45600 -0.04500
C 	C 	0.74300 0.18210 0.56400 0.10400
H 	H 	0.77360 0.24060 0.57450 -0.01600
C 	C 	0.52200 0.79130 0.45120 0.10200
H 	H 	0.56950 0.74090 0.44890 -0.06100
C 	C 	0.60300 0.13670 0.33960 0.08000
H 	H 	0.60620 0.19670 0.32610 -0.01100
C 	C 	0.28400 0.11600 0.41930 0.10600
H 	H 	0.32450 0.13290 0.45530 -0.00100
C 	C 	0.19200 0.03000 0.35670 0.11300
H 	H 	0.14920 0.98260 0.33550 -0.04100
C 	C 	0.55700 0.99400 0.34730 0.06500
H 	H 	0.52500 0.93490 0.34050 -0.02800
C 	C 	0.62150 0.29970 0.44710 0.09400
H 	H 	0.57400 0.25070 0.45200 -0.00900
N 	N 	0.37430 0.87670 0.45450 -0.22700
N 	N 	0.41510 0.78460 0.44730 -0.23400
N 	N 	0.56080 0.88020 0.45910 -0.27200
N 	N 	0.63920 0.01870 0.39200 -0.19600
N 	N 	0.67000 0.10510 0.38670 -0.16700
N 	N 	0.70860 0.04540 0.52200 -0.18400
N 	N 	0.75520 0.13430 0.51730 -0.20900
N 	N 	0.89470 0.21370 0.38760 -0.21700
N 	N 	0.93540 0.30170 0.38220 -0.23000
N 	N 	0.08350 0.45210 0.43690 -0.28900
N 	N 	0.26650 0.46560 0.43440 -0.21500
N 	N 	0.58570 0.39000 0.43740 -0.24800
N 	N 	0.24390 0.72260 0.50650 -0.21400
N 	N 	0.20670 0.80630 0.51120 -0.20500
N 	N 	0.19700 0.72950 0.58640 -0.15400
N 	N 	0.38610 0.62160 0.37800 -0.21300
N 	N 	0.68200 0.13310 0.59170 -0.13700
N 	N 	0.91620 0.06160 0.45680 -0.20200
N 	N 	0.93300 0.22530 0.30410 -0.14000
N 	N 	0.44600 0.61470 0.30000 -0.12800
N 	N 	0.43940 0.53870 0.37860 -0.20900
N 	N 	0.23270 0.02640 0.40780 -0.23900
N 	N 	0.52600 0.07020 0.31260 -0.13900
N 	N 	0.87510 0.96790 0.45890 -0.23100
N 	N 	0.06330 0.96010 0.46190 -0.25200
N 	N 	0.21700 0.11300 0.33520 -0.10700
N 	N 	0.27100 0.16900 0.38020 -0.11500
N 	N 	0.73060 0.29200 0.44850 -0.21000
N 	N 	0.76860 0.37390 0.43930 -0.23200
N 	N 	0.22250 0.55130 0.43870 -0.22800
O 	O 	0.19210 0.28490 0.66950 -0.78500
O 	O 	0.34990 0.15040 0.68380 -0.76900
O 	O 	0.40460 0.32370 0.66360 -0.77000
O 	O 	0.35860 0.27800 0.76210 -0.75800
O 	O 	0.19860 0.43290 0.75160 -0.46600
O 	O 	0.04940 0.39120 0.59780 -0.44000
O 	O 	0.99190 0.21310 0.61590 -0.40800
O 	O 	0.27740 0.33280 0.84300 -0.47000
O 	O 	0.43170 0.20210 0.85780 -0.45900
O 	O 	0.40630 0.47250 0.74410 -0.46200
O 	O 	0.56470 0.45070 0.68740 -0.43700
O 	O 	0.49140 0.37080 0.83800 -0.45700
O 	O 	0.59310 0.18500 0.68520 -0.45400
O 	O 	0.54310 0.14240 0.77940 -0.48000
O 	O 	0.29240 0.09640 0.78720 -0.45700
O 	O 	0.42110 0.99830 0.73560 -0.43600
O 	O 	0.17230 0.15160 0.57220 -0.49400
O 	O 	0.38900 0.18850 0.56870 -0.48100
O 	O 	0.22920 0.32750 0.55570 -0.46900
O 	O 	0.59730 0.31520 0.76510 -0.45900
O 	O 	0.29950 0.00600 0.53420 -0.46500
O 	O 	0.56340 0.32130 0.60760 -0.42500
O 	O 	0.46940 0.04400 0.63700 -0.44100
O 	O 	0.24710 0.99790 0.64140 -0.44500
O 	O 	0.00630 0.34110 0.69960 -0.43300
O 	O 	0.12060 0.09860 0.69640 -0.47600
O 	O 	0.39570 0.45790 0.58920 -0.43800
O 	O 	0.42030 0.34390 0.49720 -0.49100
O 	O 	0.12950 0.22550 0.77140 -0.46300
O 	O 	0.24410 0.47900 0.65690 -0.47200
Si	Si	0.32370 0.25980 0.69490 2.10000
Cu	Cu	0.21930 0.91698 0.46140 0.86800
Cu	Cu	0.31700 0.67079 0.44329 0.81800
Cu	Cu	0.71460 0.93181 0.45901 0.82500
Cu	Cu	0.82190 0.17289 0.45284 0.84700
Cu	Cu	0.93210 0.40457 0.43908 0.81000
Cu	Cu	0.43070 0.43535 0.43685 0.86100
W 	W 	0.60738 0.32242 0.68719 1.01600
W 	W 	0.54212 0.25209 0.82299 1.00400
W 	W 	0.34341 0.42417 0.80361 1.01000
W 	W 	0.52975 0.07703 0.71054 1.08100
W 	W 	0.26555 0.20593 0.82618 1.01200
W 	W 	0.10730 0.43043 0.67619 1.00100
W 	W 	0.09669 0.26821 0.57042 0.87500
W 	W 	0.40394 0.48883 0.66585 1.03200
W 	W 	0.39482 0.31909 0.56546 1.17900
W 	W 	0.30991 0.08292 0.59102 1.22400
W 	W 	0.03419 0.20791 0.69510 0.98800
W 	W 	0.25917 0.02416 0.71845 1.02900
C 	C 	0.96490 0.07520 0.96280 0.16400
H 	H 	0.96480 0.01220 0.97110 -0.03800
C 	C 	0.39600 0.82970 0.84470 0.11500
H 	H 	0.37590 0.89190 0.83940 -0.02100
C 	C 	0.62230 0.45600 0.94070 0.11600
H 	H 	0.57580 0.40560 0.94430 -0.06700
C 	C 	0.68050 0.59110 0.93220 0.11000
H 	H 	0.68590 0.65490 0.92790 -0.03800
C 	C 	0.46900 0.69360 0.83620 0.08400
H 	H 	0.51020 0.64480 0.82550 -0.02100
C 	C 	0.74000 0.32240 0.05290 0.10000
H 	H 	0.76480 0.38310 0.06080 -0.02000
C 	C 	0.68200 0.18670 0.06010 0.09800
H 	H 	0.65780 0.13280 0.07500 0.00400
C 	C 	0.16600 0.94940 0.06900 0.10100
H 	H 	0.13060 0.99820 0.08320 -0.01100
C 	C 	0.89500 0.32900 0.83500 0.08200
H 	H 	0.87260 0.26740 0.82830 -0.03400
C 	C 	0.97300 0.47100 0.83280 0.13700
H 	H 	0.00900 0.52270 0.82210 -0.06000
C 	C 	0.18300 0.56690 0.93600 0.08200
H 	H 	0.19000 0.50290 0.93290 -0.06300
C 	C 	0.53000 0.94820 0.96060 0.09400
H 	H 	0.58020 0.89860 0.96230 -0.03900
C 	C 	0.46500 0.08800 0.95840 0.08300
H 	H 	0.46020 0.15230 0.95600 -0.05100
C 	C 	0.24300 0.81790 0.06400 0.10700
H 	H 	0.27360 0.75940 0.07450 -0.01500
C 	C 	0.02200 0.20870 0.95120 0.05800
H 	H 	0.06950 0.25910 0.94890 -0.06200
C 	C 	0.10300 0.86330 0.83960 0.07700
H 	H 	0.10620 0.80330 0.82610 -0.01400
C 	C 	0.78400 0.88400 0.91930 0.11000
H 	H 	0.82450 0.86710 0.95530 -0.01000
C 	C 	0.69200 0.97000 0.85670 0.11800
H 	H 	0.64920 0.01740 0.83550 -0.03700
C 	C 	0.05700 0.00600 0.84730 0.06200
H 	H 	0.02500 0.06510 0.84050 -0.03400
C 	C 	0.12150 0.70030 0.94710 0.08600
H 	H 	0.07400 0.74930 0.95200 -0.02200
N 	N 	0.87430 0.12330 0.95450 -0.23800
N 	N 	0.91510 0.21540 0.94730 -0.22000
N 	N 	0.06080 0.11980 0.95910 -0.29000
N 	N 	0.13920 0.98130 0.89200 -0.20000
N 	N 	0.17000 0.89490 0.88670 -0.17000
N 	N 	0.20860 0.95460 0.02200 -0.17300
N 	N 	0.25520 0.86570 0.01730 -0.19500
N 	N 	0.39470 0.78630 0.88760 -0.22200
N 	N 	0.43540 0.69830 0.88220 -0.22700
N 	N 	0.58350 0.54790 0.93690 -0.28500
N 	N 	0.76650 0.53440 0.93440 -0.21600
N 	N 	0.08570 0.61000 0.93740 -0.25900
N 	N 	0.74390 0.27740 0.00650 -0.19500
N 	N 	0.70670 0.19370 0.01120 -0.18600
N 	N 	0.69700 0.27050 0.08640 -0.15000
N 	N 	0.88610 0.37840 0.87800 -0.21200
N 	N 	0.18200 0.86690 0.09170 -0.13900
N 	N 	0.41620 0.93840 0.95680 -0.22600
N 	N 	0.43300 0.77470 0.80410 -0.13800
N 	N 	0.94600 0.38530 0.80000 -0.12600
N 	N 	0.93940 0.46130 0.87860 -0.21500
N 	N 	0.73270 0.97360 0.90780 -0.24100
N 	N 	0.02600 0.92980 0.81260 -0.14500
N 	N 	0.37510 0.03210 0.95890 -0.23500
N 	N 	0.56330 0.03990 0.96190 -0.25000
N 	N 	0.71700 0.88700 0.83520 -0.10200
N 	N 	0.77100 0.83100 0.88020 -0.11100
N 	N 	0.23060 0.70800 0.94850 -0.21800
N 	N 	0.26860 0.62610 0.93930 -0.23900
N 	N 	0.72250 0.44870 0.93870 -0.23200
O 	O 	0.69210 0.71510 0.16950 -0.79100
O 	O 	0.84990 0.84960 0.18380 -0.76300
O 	O 	0.90460 0.67630 0.16360 -0.76600
O 	O 	0.85860 0.72200 0.26210 -0.75200
O 	O 	0.69860 0.56710 0.25160 -0.46600
O 	O 	0.54940 0.60880 0.09780 -0.42800
O 	O 	0.49190 0.78690 0.11590 -0.44000
O 	O 	0.77740 0.66720 0.34300 -0.46500
O 	O 	0.93170 0.79790 0.35780 -0.43900
O 	O 	0.90630 0.52750 0.24410 -0.45700
O 	O 	0.06470 0.54930 0.18740 -0.45400
O 	O 	0.99140 0.62920 0.33800 -0.43300
O 	O 	0.09310 0.81500 0.18520 -0.45400
O 	O 	0.04310 0.85760 0.27940 -0.47900
O 	O 	0.79240 0.90360 0.28720 -0.45500
O 	O 	0.92110 0.00170 0.23560 -0.41300
O 	O 	0.67230 0.84840 0.07220 -0.48700
O 	O 	0.88900 0.81150 0.06870 -0.47200
O 	O 	0.72920 0.67250 0.05570 -0.46900
O 	O 	0.09730 0.68480 0.26510 -0.46000
O 	O 	0.79950 0.99400 0.03420 -0.44200
O 	O 	0.06340 0.67870 0.10760 -0.43700
O 	O 	0.96940 0.95600 0.13700 -0.41800
O 	O 	0.74710 0.00210 0.14140 -0.43600
O 	O 	0.50630 0.65890 0.19960 -0.42600
O 	O 	0.62060 0.90140 0.19640 -0.47400
O 	O 	0.89570 0.54210 0.08920 -0.42900
O 	O 	0.92030 0.65610 0.99720 -0.51700
O 	O 	0.62950 0.77450 0.27140 -0.46400
O 	O 	0.74410 0.52100 0.15690 -0.47400
Si	Si	0.82370 0.74020 0.19490 2.10400
Cu	Cu	0.71930 0.08302 0.96140 0.85700
Cu	Cu	0.81700 0.32921 0.94329 0.81000
Cu	Cu	0.21460 0.06819 0.95901 0.81300
Cu	Cu	0.32190 0.82711 0.95284 0.83400
Cu	Cu	0.43210 0.59543 0.93908 0.79200
Cu	Cu	0.93070 0.56465 0.93685 0.86600
W 	W 	0.10738 0.67758 0.18719 1.00100
W 	W 	0.04212 0.74791 0.32299 0.95900
W 	W 	0.84341 0.57583 0.30361 1.01700
W 	W 	0.02975 0.92297 0.21054 1.02800
W 	W 	0.76555 0.79407 0.32618 1.01700
W 	W 	0.60730 0.56957 0.17619 1.01400
W 	W 	0.59669 0.73179 0.07042 0.92600
W 	W 	0.90394 0.51117 0.16585 1.05900
W 	W 	0.89482 0.68091 0.06546 1.24100
W 	W 	0.80991 0.91708 0.09102 1.22800
W 	W 	0.53419 0.79209 0.19510 1.02100
W 	W 	0.75917 0.97584 0.21845 1.02500
