data_crystal

_cell_length_a 55.75220
_cell_length_b 7.55570
_cell_length_c 14.13270
_cell_angle_alpha 90.00000
_cell_angle_beta  100.01200
_cell_angle_gamma 90.00000

_symmetry_space_group_name_	'P 1'
_symmetry_space_group_name_H-M	'P 1'

loop_
_symmetry_equiv_pos_as_xyz
  x,y,z

loop_
_atom_site_label
_atom_site_type_symbol
_atom_site_fract_x
_atom_site_fract_y
_atom_site_fract_z
_atom_site_charge
Zn	Zn	0.35994 0.37125 0.02508 1.21800
Zn	Zn	0.38744 0.54638 0.84340 1.23300
O 	O 	0.39387 0.25990 0.00910 -0.47400
O 	O 	0.37554 0.59450 0.08198 -0.54200
O 	O 	0.34961 0.80340 0.61631 -0.49300
O 	O 	0.39694 0.29310 0.85466 -0.51000
O 	O 	0.34279 0.23050 0.90793 -0.46900
O 	O 	0.39441 0.68140 0.96412 -0.54200
O 	O 	0.35129 0.48320 0.84480 -0.53700
O 	O 	0.37731 0.70020 0.73102 -0.53300
N 	N 	0.42429 0.59770 0.81980 -0.23900
C 	C 	0.31240 0.11260 0.73930 0.08500
C 	C 	0.32237 0.94470 0.75160 0.13400
C 	C 	0.39769 0.86340 0.10210 -0.50200
H 	H 	0.38780 0.96350 0.07580 0.19300
H 	H 	0.39550 0.84800 0.16810 0.19000
C 	C 	0.42398 0.90520 0.10110 0.14300
C 	C 	0.38856 0.69840 0.04540 0.53500
C 	C 	0.34158 0.33160 0.83810 0.44600
C 	C 	0.35918 0.79510 0.70240 0.50700
C 	C 	0.43213 0.98980 0.02460 0.08200
C 	C 	0.32804 0.27520 0.74130 -0.42600
H 	H 	0.31780 0.37270 0.71430 0.15100
H 	H 	0.33990 0.25490 0.69950 0.14900
C 	C 	0.40111 0.21330 0.93440 0.46800
C 	C 	0.34958 0.91130 0.77370 -0.48300
H 	H 	0.35790 0.02430 0.77670 0.18000
H 	H 	0.35350 0.85720 0.83680 0.16700
C 	C 	0.44105 0.85290 0.18040 -0.15800
H 	H 	0.43570 0.79630 0.23120 0.08800
C 	C 	0.41583 0.04360 0.93370 -0.43400
H 	H 	0.40450 0.94750 0.91450 0.17100
H 	H 	0.42580 0.05530 0.88420 0.16600
C 	C 	0.30690 0.79980 0.74600 -0.13900
H 	H 	0.31360 0.68680 0.75410 0.07800
N 	N 	0.49818 0.61080 0.79060 -0.10300
C 	C 	0.28714 0.13040 0.72330 -0.10700
H 	H 	0.28030 0.24280 0.71610 0.06200
C 	C 	0.42962 0.62740 0.73320 0.11000
H 	H 	0.41700 0.64420 0.68150 0.00400
C 	C 	0.47216 0.61010 0.79420 0.17800
C 	C 	0.45359 0.63410 0.71780 -0.20200
H 	H 	0.45700 0.65450 0.65660 0.11400
C 	C 	0.28200 0.81900 0.72880 -0.00200
H 	H 	0.27190 0.72010 0.72450 0.02300
C 	C 	0.44271 0.57780 0.89320 0.11900
H 	H 	0.43900 0.55850 0.95410 -0.01500
C 	C 	0.45719 0.01820 0.03240 -0.08500
H 	H 	0.46290 0.07480 0.98240 0.05800
C 	C 	0.27220 0.98500 0.71810 -0.02800
H 	H 	0.25540 0.99950 0.70730 0.03400
C 	C 	0.46543 0.88230 0.18580 0.02500
H 	H 	0.47640 0.84580 0.23960 0.02200
C 	C 	0.46670 0.58420 0.88370 -0.21400
H 	H 	0.47900 0.57120 0.93690 0.10800
C 	C 	0.47367 0.96530 0.11180 -0.05400
H 	H 	0.49020 0.98600 0.11490 0.04800
Zn	Zn	0.64006 0.37125 0.47492 1.21800
Zn	Zn	0.61256 0.54638 0.65660 1.23300
O 	O 	0.60613 0.25990 0.49090 -0.47600
O 	O 	0.62446 0.59450 0.41802 -0.54100
O 	O 	0.65039 0.80340 0.88369 -0.49200
O 	O 	0.60306 0.29310 0.64534 -0.51100
O 	O 	0.65721 0.23050 0.59207 -0.46800
O 	O 	0.60559 0.68140 0.53588 -0.54300
O 	O 	0.64871 0.48320 0.65520 -0.53700
O 	O 	0.62269 0.70020 0.76898 -0.53300
N 	N 	0.57571 0.59770 0.68020 -0.23900
C 	C 	0.68760 0.11260 0.76070 0.08600
C 	C 	0.67763 0.94470 0.74840 0.13300
C 	C 	0.60231 0.86340 0.39790 -0.49800
H 	H 	0.61220 0.96350 0.42420 0.19200
H 	H 	0.60450 0.84800 0.33190 0.18900
C 	C 	0.57602 0.90520 0.39890 0.13500
C 	C 	0.61144 0.69840 0.45460 0.53500
C 	C 	0.65842 0.33160 0.66190 0.44500
C 	C 	0.64082 0.79510 0.79760 0.50700
C 	C 	0.56787 0.98980 0.47540 0.09400
C 	C 	0.67196 0.27520 0.75870 -0.42600
H 	H 	0.68220 0.37270 0.78570 0.15100
H 	H 	0.66010 0.25490 0.80050 0.14900
C 	C 	0.59889 0.21330 0.56560 0.47000
C 	C 	0.65042 0.91130 0.72630 -0.48300
H 	H 	0.64210 0.02430 0.72330 0.18000
H 	H 	0.64650 0.85720 0.66320 0.16700
C 	C 	0.55895 0.85290 0.31960 -0.14700
H 	H 	0.56430 0.79630 0.26880 0.08400
C 	C 	0.58417 0.04360 0.56630 -0.43700
H 	H 	0.59550 0.94750 0.58550 0.17000
H 	H 	0.57420 0.05530 0.61580 0.16700
C 	C 	0.69310 0.79980 0.75400 -0.13900
H 	H 	0.68640 0.68680 0.74590 0.07800
N 	N 	0.50182 0.61080 0.70940 -0.10300
C 	C 	0.71286 0.13040 0.77670 -0.10800
H 	H 	0.71970 0.24280 0.78390 0.06200
C 	C 	0.57038 0.62740 0.76680 0.11000
H 	H 	0.58300 0.64420 0.81850 0.00400
C 	C 	0.52784 0.61010 0.70580 0.17800
C 	C 	0.54641 0.63410 0.78220 -0.20200
H 	H 	0.54300 0.65450 0.84340 0.11400
C 	C 	0.71800 0.81900 0.77120 -0.00200
H 	H 	0.72810 0.72010 0.77550 0.02300
C 	C 	0.55729 0.57780 0.60680 0.11900
H 	H 	0.56100 0.55850 0.54590 -0.01500
C 	C 	0.54281 0.01820 0.46760 -0.10600
H 	H 	0.53710 0.07480 0.51760 0.06600
C 	C 	0.72780 0.98500 0.78190 -0.02800
H 	H 	0.74460 0.99950 0.79270 0.03400
C 	C 	0.53457 0.88230 0.31420 0.01100
H 	H 	0.52360 0.84580 0.26040 0.02600
C 	C 	0.53330 0.58420 0.61630 -0.21400
H 	H 	0.52100 0.57120 0.56310 0.10800
C 	C 	0.52633 0.96530 0.38820 -0.03500
H 	H 	0.50980 0.98600 0.38510 0.04200
Zn	Zn	0.64006 0.62875 0.97492 1.21800
Zn	Zn	0.61256 0.45362 0.15660 1.23300
O 	O 	0.60613 0.74010 0.99090 -0.47400
O 	O 	0.62446 0.40550 0.91802 -0.54200
O 	O 	0.65039 0.19660 0.38369 -0.49300
O 	O 	0.60306 0.70690 0.14534 -0.51000
O 	O 	0.65721 0.76950 0.09207 -0.46900
O 	O 	0.60559 0.31860 0.03588 -0.54200
O 	O 	0.64871 0.51680 0.15520 -0.53700
O 	O 	0.62269 0.29980 0.26898 -0.53300
N 	N 	0.57571 0.40230 0.18020 -0.23900
C 	C 	0.68760 0.88740 0.26070 0.08500
C 	C 	0.67763 0.05530 0.24840 0.13400
C 	C 	0.60231 0.13660 0.89790 -0.50200
H 	H 	0.61220 0.03650 0.92420 0.19300
H 	H 	0.60450 0.15200 0.83190 0.19000
C 	C 	0.57602 0.09480 0.89890 0.14300
C 	C 	0.61144 0.30160 0.95460 0.53500
C 	C 	0.65842 0.66840 0.16190 0.44600
C 	C 	0.64082 0.20490 0.29760 0.50700
C 	C 	0.56787 0.01020 0.97540 0.08200
C 	C 	0.67196 0.72480 0.25870 -0.42600
H 	H 	0.68220 0.62730 0.28570 0.15100
H 	H 	0.66010 0.74510 0.30050 0.14900
C 	C 	0.59889 0.78670 0.06560 0.46800
C 	C 	0.65042 0.08870 0.22630 -0.48300
H 	H 	0.64210 0.97570 0.22330 0.18000
H 	H 	0.64650 0.14280 0.16320 0.16700
C 	C 	0.55895 0.14710 0.81960 -0.15800
H 	H 	0.56430 0.20370 0.76880 0.08800
C 	C 	0.58417 0.95640 0.06630 -0.43400
H 	H 	0.59550 0.05250 0.08550 0.17100
H 	H 	0.57420 0.94470 0.11580 0.16600
C 	C 	0.69310 0.20020 0.25400 -0.13900
H 	H 	0.68640 0.31320 0.24590 0.07800
N 	N 	0.50182 0.38920 0.20940 -0.10300
C 	C 	0.71286 0.86960 0.27670 -0.10700
H 	H 	0.71970 0.75720 0.28390 0.06200
C 	C 	0.57038 0.37260 0.26680 0.11000
H 	H 	0.58300 0.35580 0.31850 0.00400
C 	C 	0.52784 0.38990 0.20580 0.17800
C 	C 	0.54641 0.36590 0.28220 -0.20200
H 	H 	0.54300 0.34550 0.34340 0.11400
C 	C 	0.71800 0.18100 0.27120 -0.00200
H 	H 	0.72810 0.27990 0.27550 0.02300
C 	C 	0.55729 0.42220 0.10680 0.11900
H 	H 	0.56100 0.44150 0.04590 -0.01500
C 	C 	0.54281 0.98180 0.96760 -0.08500
H 	H 	0.53710 0.92520 0.01760 0.05800
C 	C 	0.72780 0.01500 0.28190 -0.02800
H 	H 	0.74460 0.00050 0.29270 0.03400
C 	C 	0.53457 0.11770 0.81420 0.02500
H 	H 	0.52360 0.15420 0.76040 0.02200
C 	C 	0.53330 0.41580 0.11630 -0.21400
H 	H 	0.52100 0.42880 0.06310 0.10800
C 	C 	0.52633 0.03470 0.88820 -0.05400
H 	H 	0.50980 0.01400 0.88510 0.04800
Zn	Zn	0.35994 0.62875 0.52508 1.21800
Zn	Zn	0.38744 0.45362 0.34340 1.23300
O 	O 	0.39387 0.74010 0.50910 -0.47600
O 	O 	0.37554 0.40550 0.58198 -0.54100
O 	O 	0.34961 0.19660 0.11631 -0.49200
O 	O 	0.39694 0.70690 0.35466 -0.51100
O 	O 	0.34279 0.76950 0.40793 -0.46800
O 	O 	0.39441 0.31860 0.46412 -0.54300
O 	O 	0.35129 0.51680 0.34480 -0.53700
O 	O 	0.37731 0.29980 0.23102 -0.53300
N 	N 	0.42429 0.40230 0.31980 -0.23900
C 	C 	0.31240 0.88740 0.23930 0.08600
C 	C 	0.32237 0.05530 0.25160 0.13300
C 	C 	0.39769 0.13660 0.60210 -0.49800
H 	H 	0.38780 0.03650 0.57580 0.19200
H 	H 	0.39550 0.15200 0.66810 0.18900
C 	C 	0.42398 0.09480 0.60110 0.13500
C 	C 	0.38856 0.30160 0.54540 0.53500
C 	C 	0.34158 0.66840 0.33810 0.44500
C 	C 	0.35918 0.20490 0.20240 0.50700
C 	C 	0.43213 0.01020 0.52460 0.09400
C 	C 	0.32804 0.72480 0.24130 -0.42600
H 	H 	0.31780 0.62730 0.21430 0.15100
H 	H 	0.33990 0.74510 0.19950 0.14900
C 	C 	0.40111 0.78670 0.43440 0.47000
C 	C 	0.34958 0.08870 0.27370 -0.48300
H 	H 	0.35790 0.97570 0.27670 0.18000
H 	H 	0.35350 0.14280 0.33680 0.16700
C 	C 	0.44105 0.14710 0.68040 -0.14700
H 	H 	0.43570 0.20370 0.73120 0.08400
C 	C 	0.41583 0.95640 0.43370 -0.43700
H 	H 	0.40450 0.05250 0.41450 0.17000
H 	H 	0.42580 0.94470 0.38420 0.16700
C 	C 	0.30690 0.20020 0.24600 -0.13900
H 	H 	0.31360 0.31320 0.25410 0.07800
N 	N 	0.49818 0.38920 0.29060 -0.10300
C 	C 	0.28714 0.86960 0.22330 -0.10800
H 	H 	0.28030 0.75720 0.21610 0.06200
C 	C 	0.42962 0.37260 0.23320 0.11000
H 	H 	0.41700 0.35580 0.18150 0.00400
C 	C 	0.47216 0.38990 0.29420 0.17800
C 	C 	0.45359 0.36590 0.21780 -0.20200
H 	H 	0.45700 0.34550 0.15660 0.11400
C 	C 	0.28200 0.18100 0.22880 -0.00200
H 	H 	0.27190 0.27990 0.22450 0.02300
C 	C 	0.44271 0.42220 0.39320 0.11900
H 	H 	0.43900 0.44150 0.45410 -0.01500
C 	C 	0.45719 0.98180 0.53240 -0.10600
H 	H 	0.46290 0.92520 0.48240 0.06600
C 	C 	0.27220 0.01500 0.21810 -0.02800
H 	H 	0.25540 0.00050 0.20730 0.03400
C 	C 	0.46543 0.11770 0.68580 0.01100
H 	H 	0.47640 0.15420 0.73960 0.02600
C 	C 	0.46670 0.41580 0.38370 -0.21400
H 	H 	0.47900 0.42880 0.43690 0.10800
C 	C 	0.47367 0.03470 0.61180 -0.03500
H 	H 	0.49020 0.01400 0.61490 0.04200
Zn	Zn	0.85994 0.87125 0.02508 1.21700
Zn	Zn	0.88744 0.04638 0.84340 1.23300
O 	O 	0.89387 0.75990 0.00910 -0.47800
O 	O 	0.87554 0.09450 0.08198 -0.54000
O 	O 	0.84961 0.30340 0.61631 -0.49300
O 	O 	0.89694 0.79310 0.85466 -0.51100
O 	O 	0.84279 0.73050 0.90793 -0.46800
O 	O 	0.89441 0.18140 0.96412 -0.54400
O 	O 	0.85129 0.98320 0.84480 -0.53500
O 	O 	0.87731 0.20020 0.73102 -0.53400
N 	N 	0.92429 0.09770 0.81980 -0.23900
C 	C 	0.81240 0.61260 0.73930 0.08500
C 	C 	0.82237 0.44470 0.75160 0.13400
C 	C 	0.89769 0.36340 0.10210 -0.49800
H 	H 	0.88780 0.46350 0.07580 0.19300
H 	H 	0.89550 0.34800 0.16810 0.19000
C 	C 	0.92398 0.40520 0.10110 0.13500
C 	C 	0.88856 0.19840 0.04540 0.53800
C 	C 	0.84158 0.83160 0.83810 0.44500
C 	C 	0.85918 0.29510 0.70240 0.50800
C 	C 	0.93213 0.48980 0.02460 0.09600
C 	C 	0.82804 0.77520 0.74130 -0.42600
H 	H 	0.81780 0.87270 0.71430 0.15100
H 	H 	0.83990 0.75490 0.69950 0.14900
C 	C 	0.90111 0.71330 0.93440 0.47300
C 	C 	0.84958 0.41130 0.77370 -0.48600
H 	H 	0.85790 0.52430 0.77670 0.18200
H 	H 	0.85350 0.35720 0.83680 0.16700
C 	C 	0.94105 0.35290 0.18040 -0.14500
H 	H 	0.93570 0.29630 0.23120 0.08400
C 	C 	0.91583 0.54360 0.93370 -0.43900
H 	H 	0.90450 0.44750 0.91450 0.17100
H 	H 	0.92580 0.55530 0.88420 0.16800
C 	C 	0.80690 0.29980 0.74600 -0.14100
H 	H 	0.81360 0.18680 0.75410 0.07800
N 	N 	0.99818 0.11080 0.79060 -0.10300
C 	C 	0.78714 0.63040 0.72330 -0.10400
H 	H 	0.78030 0.74280 0.71610 0.06100
C 	C 	0.92962 0.12740 0.73320 0.11000
H 	H 	0.91700 0.14420 0.68150 0.00400
C 	C 	0.97216 0.11010 0.79420 0.17800
C 	C 	0.95359 0.13410 0.71780 -0.20200
H 	H 	0.95700 0.15450 0.65660 0.11400
C 	C 	0.78200 0.31900 0.72880 -0.00000
H 	H 	0.77190 0.22010 0.72450 0.02200
C 	C 	0.94271 0.07780 0.89320 0.11800
H 	H 	0.93900 0.05850 0.95410 -0.01500
C 	C 	0.95719 0.51820 0.03240 -0.11000
H 	H 	0.96290 0.57480 0.98240 0.06800
C 	C 	0.77220 0.48500 0.71810 -0.03200
H 	H 	0.75540 0.49950 0.70730 0.03400
C 	C 	0.96543 0.38230 0.18580 0.00900
H 	H 	0.97640 0.34580 0.23960 0.02800
C 	C 	0.96670 0.08420 0.88370 -0.21400
H 	H 	0.97900 0.07120 0.93690 0.10800
C 	C 	0.97367 0.46530 0.11180 -0.03100
H 	H 	0.99020 0.48600 0.11490 0.04100
Zn	Zn	0.14006 0.87125 0.47492 1.21800
Zn	Zn	0.11256 0.04638 0.65660 1.23300
O 	O 	0.10613 0.75990 0.49090 -0.47600
O 	O 	0.12446 0.09450 0.41802 -0.54100
O 	O 	0.15039 0.30340 0.88369 -0.49300
O 	O 	0.10306 0.79310 0.64534 -0.51000
O 	O 	0.15721 0.73050 0.59207 -0.46800
O 	O 	0.10559 0.18140 0.53588 -0.54300
O 	O 	0.14871 0.98320 0.65520 -0.53600
O 	O 	0.12269 0.20020 0.76898 -0.53400
N 	N 	0.07571 0.09770 0.68020 -0.23900
C 	C 	0.18760 0.61260 0.76070 0.08600
C 	C 	0.17763 0.44470 0.74840 0.13400
C 	C 	0.10231 0.36340 0.39790 -0.49800
H 	H 	0.11220 0.46350 0.42420 0.19200
H 	H 	0.10450 0.34800 0.33190 0.18900
C 	C 	0.07602 0.40520 0.39890 0.13500
C 	C 	0.11144 0.19840 0.45460 0.53500
C 	C 	0.15842 0.83160 0.66190 0.44500
C 	C 	0.14082 0.29510 0.79760 0.50800
C 	C 	0.06787 0.48980 0.47540 0.09500
C 	C 	0.17196 0.77520 0.75870 -0.42600
H 	H 	0.18220 0.87270 0.78570 0.15100
H 	H 	0.16010 0.75490 0.80050 0.15000
C 	C 	0.09889 0.71330 0.56560 0.47000
C 	C 	0.15042 0.41130 0.72630 -0.48600
H 	H 	0.14210 0.52430 0.72330 0.18200
H 	H 	0.14650 0.35720 0.66320 0.16700
C 	C 	0.05895 0.35290 0.31960 -0.14600
H 	H 	0.06430 0.29630 0.26880 0.08400
C 	C 	0.08417 0.54360 0.56630 -0.43800
H 	H 	0.09550 0.44750 0.58550 0.17000
H 	H 	0.07420 0.55530 0.61580 0.16800
C 	C 	0.19310 0.29980 0.75400 -0.14100
H 	H 	0.18640 0.18680 0.74590 0.07900
N 	N 	0.00182 0.11080 0.70940 -0.10300
C 	C 	0.21286 0.63040 0.77670 -0.10400
H 	H 	0.21970 0.74280 0.78390 0.06200
C 	C 	0.07038 0.12740 0.76680 0.11000
H 	H 	0.08300 0.14420 0.81850 0.00400
C 	C 	0.02784 0.11010 0.70580 0.17800
C 	C 	0.04641 0.13410 0.78220 -0.20200
H 	H 	0.04300 0.15450 0.84340 0.11400
C 	C 	0.21800 0.31900 0.77120 -0.00000
H 	H 	0.22810 0.22010 0.77550 0.02200
C 	C 	0.05729 0.07780 0.60680 0.11800
H 	H 	0.06100 0.05850 0.54590 -0.01500
C 	C 	0.04281 0.51820 0.46760 -0.10800
H 	H 	0.03710 0.57480 0.51760 0.06700
C 	C 	0.22780 0.48500 0.78190 -0.03200
H 	H 	0.24460 0.49950 0.79270 0.03400
C 	C 	0.03457 0.38230 0.31420 0.01000
H 	H 	0.02360 0.34580 0.26040 0.02700
C 	C 	0.03330 0.08420 0.61630 -0.21400
H 	H 	0.02100 0.07120 0.56310 0.10800
C 	C 	0.02633 0.46530 0.38820 -0.03300
H 	H 	0.00980 0.48600 0.38510 0.04200
Zn	Zn	0.14006 0.12875 0.97492 1.21700
Zn	Zn	0.11256 0.95362 0.15660 1.23300
O 	O 	0.10613 0.24010 0.99090 -0.47800
O 	O 	0.12446 0.90550 0.91802 -0.54000
O 	O 	0.15039 0.69660 0.38369 -0.49300
O 	O 	0.10306 0.20690 0.14534 -0.51100
O 	O 	0.15721 0.26950 0.09207 -0.46800
O 	O 	0.10559 0.81860 0.03588 -0.54400
O 	O 	0.14871 0.01680 0.15520 -0.53500
O 	O 	0.12269 0.79980 0.26898 -0.53400
N 	N 	0.07571 0.90230 0.18020 -0.23900
C 	C 	0.18760 0.38740 0.26070 0.08500
C 	C 	0.17763 0.55530 0.24840 0.13400
C 	C 	0.10231 0.63660 0.89790 -0.49800
H 	H 	0.11220 0.53650 0.92420 0.19300
H 	H 	0.10450 0.65200 0.83190 0.19000
C 	C 	0.07602 0.59480 0.89890 0.13500
C 	C 	0.11144 0.80160 0.95460 0.53800
C 	C 	0.15842 0.16840 0.16190 0.44500
C 	C 	0.14082 0.70490 0.29760 0.50800
C 	C 	0.06787 0.51020 0.97540 0.09600
C 	C 	0.17196 0.22480 0.25870 -0.42600
H 	H 	0.18220 0.12730 0.28570 0.15100
H 	H 	0.16010 0.24510 0.30050 0.14900
C 	C 	0.09889 0.28670 0.06560 0.47300
C 	C 	0.15042 0.58870 0.22630 -0.48600
H 	H 	0.14210 0.47570 0.22330 0.18200
H 	H 	0.14650 0.64280 0.16320 0.16700
C 	C 	0.05895 0.64710 0.81960 -0.14500
H 	H 	0.06430 0.70370 0.76880 0.08400
C 	C 	0.08417 0.45640 0.06630 -0.43900
H 	H 	0.09550 0.55250 0.08550 0.17100
H 	H 	0.07420 0.44470 0.11580 0.16800
C 	C 	0.19310 0.70020 0.25400 -0.14100
H 	H 	0.18640 0.81320 0.24590 0.07800
N 	N 	0.00182 0.88920 0.20940 -0.10300
C 	C 	0.21286 0.36960 0.27670 -0.10400
H 	H 	0.21970 0.25720 0.28390 0.06100
C 	C 	0.07038 0.87260 0.26680 0.11000
H 	H 	0.08300 0.85580 0.31850 0.00400
C 	C 	0.02784 0.88990 0.20580 0.17800
C 	C 	0.04641 0.86590 0.28220 -0.20200
H 	H 	0.04300 0.84550 0.34340 0.11400
C 	C 	0.21800 0.68100 0.27120 -0.00000
H 	H 	0.22810 0.77990 0.27550 0.02200
C 	C 	0.05729 0.92220 0.10680 0.11800
H 	H 	0.06100 0.94150 0.04590 -0.01500
C 	C 	0.04281 0.48180 0.96760 -0.11000
H 	H 	0.03710 0.42520 0.01760 0.06800
C 	C 	0.22780 0.51500 0.28190 -0.03200
H 	H 	0.24460 0.50050 0.29270 0.03400
C 	C 	0.03457 0.61770 0.81420 0.00900
H 	H 	0.02360 0.65420 0.76040 0.02800
C 	C 	0.03330 0.91580 0.11630 -0.21400
H 	H 	0.02100 0.92880 0.06310 0.10800
C 	C 	0.02633 0.53470 0.88820 -0.03100
H 	H 	0.00980 0.51400 0.88510 0.04100
Zn	Zn	0.85994 0.12875 0.52508 1.21800
Zn	Zn	0.88744 0.95362 0.34340 1.23300
O 	O 	0.89387 0.24010 0.50910 -0.47600
O 	O 	0.87554 0.90550 0.58198 -0.54100
O 	O 	0.84961 0.69660 0.11631 -0.49300
O 	O 	0.89694 0.20690 0.35466 -0.51000
O 	O 	0.84279 0.26950 0.40793 -0.46800
O 	O 	0.89441 0.81860 0.46412 -0.54300
O 	O 	0.85129 0.01680 0.34480 -0.53600
O 	O 	0.87731 0.79980 0.23102 -0.53400
N 	N 	0.92429 0.90230 0.31980 -0.23900
C 	C 	0.81240 0.38740 0.23930 0.08600
C 	C 	0.82237 0.55530 0.25160 0.13400
C 	C 	0.89769 0.63660 0.60210 -0.49800
H 	H 	0.88780 0.53650 0.57580 0.19200
H 	H 	0.89550 0.65200 0.66810 0.18900
C 	C 	0.92398 0.59480 0.60110 0.13500
C 	C 	0.88856 0.80160 0.54540 0.53500
C 	C 	0.84158 0.16840 0.33810 0.44500
C 	C 	0.85918 0.70490 0.20240 0.50800
C 	C 	0.93213 0.51020 0.52460 0.09500
C 	C 	0.82804 0.22480 0.24130 -0.42600
H 	H 	0.81780 0.12730 0.21430 0.15100
H 	H 	0.83990 0.24510 0.19950 0.15000
C 	C 	0.90111 0.28670 0.43440 0.47000
C 	C 	0.84958 0.58870 0.27370 -0.48600
H 	H 	0.85790 0.47570 0.27670 0.18200
H 	H 	0.85350 0.64280 0.33680 0.16700
C 	C 	0.94105 0.64710 0.68040 -0.14600
H 	H 	0.93570 0.70370 0.73120 0.08400
C 	C 	0.91583 0.45640 0.43370 -0.43800
H 	H 	0.90450 0.55250 0.41450 0.17000
H 	H 	0.92580 0.44470 0.38420 0.16800
C 	C 	0.80690 0.70020 0.24600 -0.14100
H 	H 	0.81360 0.81320 0.25410 0.07900
N 	N 	0.99818 0.88920 0.29060 -0.10300
C 	C 	0.78714 0.36960 0.22330 -0.10400
H 	H 	0.78030 0.25720 0.21610 0.06200
C 	C 	0.92962 0.87260 0.23320 0.11000
H 	H 	0.91700 0.85580 0.18150 0.00400
C 	C 	0.97216 0.88990 0.29420 0.17800
C 	C 	0.95359 0.86590 0.21780 -0.20200
H 	H 	0.95700 0.84550 0.15660 0.11400
C 	C 	0.78200 0.68100 0.22880 -0.00000
H 	H 	0.77190 0.77990 0.22450 0.02200
C 	C 	0.94271 0.92220 0.39320 0.11800
H 	H 	0.93900 0.94150 0.45410 -0.01500
C 	C 	0.95719 0.48180 0.53240 -0.10800
H 	H 	0.96290 0.42520 0.48240 0.06700
C 	C 	0.77220 0.51500 0.21810 -0.03200
H 	H 	0.75540 0.50050 0.20730 0.03400
C 	C 	0.96543 0.61770 0.68580 0.01000
H 	H 	0.97640 0.65420 0.73960 0.02700
C 	C 	0.96670 0.91580 0.38370 -0.21400
H 	H 	0.97900 0.92880 0.43690 0.10800
C 	C 	0.97367 0.53470 0.61180 -0.03300
H 	H 	0.99020 0.51400 0.61490 0.04200
