data_crystal

_cell_length_a 13.99140
_cell_length_b 20.25610
_cell_length_c 23.37030
_cell_angle_alpha 90.00000
_cell_angle_beta  90.00000
_cell_angle_gamma 90.00000

_symmetry_space_group_name_	'P 1'
_symmetry_space_group_name_H-M	'P 1'

loop_
_symmetry_equiv_pos_as_xyz
  x,y,z

loop_
_atom_site_label
_atom_site_type_symbol
_atom_site_fract_x
_atom_site_fract_y
_atom_site_fract_z
_atom_site_charge
Zn	Zn	0.82247 0.19515 0.24702 1.21500
Zn	Zn	0.63304 0.22659 0.99610 1.21700
Zn	Zn	0.79288 0.31495 0.77921 1.16600
N 	N 	0.95030 0.20530 0.21150 -0.27300
N 	N 	0.09220 0.18200 0.17620 -0.16900
N 	N 	0.26590 0.97580 0.16260 -0.14400
N 	N 	0.23250 0.87780 0.19890 -0.25500
N 	N 	0.42180 0.18500 0.11450 -0.15300
N 	N 	0.54850 0.21620 0.06450 -0.25200
N 	N 	0.52790 0.24440 0.93780 -0.25700
N 	N 	0.39890 0.28740 0.89820 -0.15400
N 	N 	0.06360 0.32060 0.85470 -0.15900
N 	N 	0.92120 0.30310 0.81840 -0.27000
N 	N 	0.27740 0.51020 0.86010 -0.14300
N 	N 	0.26140 0.60930 0.82450 -0.28100
O 	O 	0.83260 0.33120 0.23120 -0.33100
O 	O 	0.71940 0.25840 0.24270 -0.48200
O 	O 	0.59590 0.09040 0.98700 -0.34300
O 	O 	0.71280 0.15660 0.96640 -0.44400
O 	O 	0.80510 0.84020 0.82410 -0.44600
O 	O 	0.93270 0.90660 0.80910 -0.29400
O 	O 	0.75400 0.27820 0.07670 -0.34300
O 	O 	0.70450 0.30540 0.99290 -0.53400
O 	O 	0.75260 0.22800 0.78970 -0.52200
O 	O 	0.61320 0.27150 0.77020 -0.47500
H 	H 	0.64700 0.30340 0.76280 0.13800
C 	C 	0.74560 0.31390 0.23450 0.37400
C 	C 	0.67450 0.36820 0.23130 -0.10200
C 	C 	0.57670 0.35670 0.23960 0.01700
H 	H 	0.55580 0.31340 0.24400 0.05200
C 	C 	0.51040 0.40670 0.24150 -0.08300
H 	H 	0.44790 0.39650 0.25180 0.04900
C 	C 	0.53370 0.47440 0.22830 0.02200
C 	C 	0.63330 0.48550 0.21670 -0.08600
H 	H 	0.65370 0.52780 0.20720 0.03800
C 	C 	0.69980 0.43490 0.21920 0.02000
H 	H 	0.76370 0.44490 0.21260 0.02500
C 	C 	0.02590 0.16920 0.21470 0.11300
H 	H 	0.03320 0.13650 0.24230 -0.00300
C 	C 	0.96580 0.24560 0.16640 -0.00400
H 	H 	0.92200 0.27580 0.15170 0.03100
C 	C 	0.05600 0.23500 0.14550 -0.01600
H 	H 	0.08670 0.25850 0.11660 0.02500
C 	C 	0.17870 0.15160 0.16480 0.20400
C 	C 	0.18060 0.08110 0.16900 -0.24600
H 	H 	0.12640 0.05760 0.17990 0.12600
C 	C 	0.26590 0.04880 0.15640 0.20400
C 	C 	0.34630 0.07860 0.13830 -0.24700
H 	H 	0.40140 0.05520 0.12920 0.12800
C 	C 	0.34070 0.15110 0.13400 0.20000
C 	C 	0.25840 0.18530 0.14710 -0.26100
H 	H 	0.25690 0.23100 0.14400 0.10100
C 	C 	0.21700 0.94380 0.20410 0.08500
H 	H 	0.17890 0.96370 0.23170 -0.00300
C 	C 	0.29170 0.87320 0.15270 0.01600
H 	H 	0.31330 0.83300 0.13850 0.02100
C 	C 	0.31710 0.93330 0.12860 -0.00600
H 	H 	0.35740 0.94230 0.09800 0.04200
C 	C 	0.45710 0.24330 0.13870 0.00900
H 	H 	0.43080 0.26550 0.16980 0.02800
C 	C 	0.53660 0.26220 0.10910 -0.01000
H 	H 	0.57540 0.29840 0.11690 0.03200
C 	C 	0.47820 0.16920 0.07090 0.08700
H 	H 	0.47120 0.13200 0.04810 0.00800
C 	C 	0.67140 0.09660 0.96780 0.34000
C 	C 	0.72790 0.04480 0.93780 -0.07800
C 	C 	0.68670 0.98040 0.93790 -0.01900
H 	H 	0.63160 0.97150 0.95880 0.05500
C 	C 	0.73260 0.92990 0.90500 -0.03500
H 	H 	0.70510 0.88820 0.90330 0.05400
C 	C 	0.81750 0.94180 0.87540 -0.04900
C 	C 	0.86120 0.00660 0.88000 -0.04600
H 	H 	0.91970 0.01540 0.86270 0.06800
C 	C 	0.81410 0.05510 0.91080 -0.00200
H 	H 	0.84190 0.09670 0.91330 0.04900
C 	C 	0.85610 0.89160 0.83470 0.28700
C 	C 	0.75470 0.31560 0.03250 0.42600
C 	C 	0.82650 0.37160 0.03170 -0.23600
C 	C 	0.86900 0.39290 0.08610 0.05900
H 	H 	0.85370 0.37350 0.12100 0.02100
C 	C 	0.93600 0.44580 0.08080 -0.12400
H 	H 	0.96400 0.46170 0.11420 0.06000
C 	C 	0.96210 0.47490 0.03040 0.05000
C 	C 	0.93370 0.44310 0.97820 -0.12900
H 	H 	0.96080 0.45540 0.94340 0.06900
C 	C 	0.85930 0.38980 0.98070 0.07800
H 	H 	0.83670 0.36990 0.94750 0.00800
C 	C 	0.48920 0.19970 0.90090 0.00800
H 	H 	0.51430 0.15800 0.89360 0.02800
C 	C 	0.40780 0.22480 0.87580 0.00700
H 	H 	0.36770 0.20400 0.84970 0.04000
C 	C 	0.47180 0.29590 0.93620 0.10700
H 	H 	0.48050 0.33360 0.95830 -0.02400
C 	C 	0.32060 0.33170 0.88690 0.21400
C 	C 	0.23290 0.30410 0.87940 -0.28100
H 	H 	0.22410 0.25880 0.88330 0.14100
C 	C 	0.15660 0.34550 0.86570 0.20600
C 	C 	0.17010 0.41520 0.86200 -0.25600
H 	H 	0.11910 0.44390 0.85610 0.11900
C 	C 	0.26070 0.43750 0.86760 0.20100
C 	C 	0.34150 0.40040 0.88150 -0.25400
H 	H 	0.40200 0.41840 0.88670 0.12500
C 	C 	0.02450 0.26830 0.88480 0.00000
H 	H 	0.05300 0.24490 0.91440 0.03400
C 	C 	0.93640 0.25810 0.86230 -0.00500
H 	H 	0.89310 0.22610 0.87440 0.03100
C 	C 	0.00130 0.33820 0.81400 0.09100
H 	H 	0.01240 0.37040 0.78650 -0.02200
C 	C 	0.22400 0.54520 0.82410 0.06900
H 	H 	0.17220 0.53010 0.80290 -0.02800
C 	C 	0.33950 0.60470 0.86030 0.01300
H 	H 	0.38110 0.63970 0.86670 0.01800
C 	C 	0.34940 0.55000 0.88340 -0.00500
H 	H 	0.39500 0.53800 0.91050 0.02800
C 	C 	0.66550 0.22200 0.78110 0.38200
C 	C 	0.61370 0.15650 0.78050 -0.11100
C 	C 	0.66630 0.10090 0.79480 0.02900
H 	H 	0.73020 0.10480 0.80550 0.03900
C 	C 	0.62120 0.03730 0.79300 -0.09500
H 	H 	0.65630 0.99930 0.80050 0.06900
C 	C 	0.52300 0.03300 0.77990 0.03900
C 	C 	0.47510 0.09070 0.76330 -0.10300
H 	H 	0.41180 0.08740 0.75150 0.06900
C 	C 	0.51770 0.15220 0.76370 0.03400
H 	H 	0.48370 0.18970 0.75310 0.03900
H 	H 	0.77710 0.40590 0.03250 0.10100
Zn	Zn	0.17753 0.80485 0.24702 1.21400
Zn	Zn	0.36696 0.77341 0.99610 1.21600
Zn	Zn	0.20712 0.68505 0.77921 1.16500
N 	N 	0.04970 0.79470 0.21150 -0.27400
N 	N 	0.90780 0.81800 0.17620 -0.17000
N 	N 	0.73410 0.02420 0.16260 -0.14500
N 	N 	0.76750 0.12220 0.19890 -0.25600
N 	N 	0.57820 0.81500 0.11450 -0.15400
N 	N 	0.45150 0.78380 0.06450 -0.25300
N 	N 	0.47210 0.75560 0.93780 -0.25800
N 	N 	0.60110 0.71260 0.89820 -0.15400
N 	N 	0.93640 0.67940 0.85470 -0.15900
N 	N 	0.07880 0.69690 0.81840 -0.27000
N 	N 	0.72260 0.48980 0.86010 -0.14300
N 	N 	0.73860 0.39070 0.82450 -0.28100
O 	O 	0.16740 0.66880 0.23120 -0.33100
O 	O 	0.28060 0.74160 0.24270 -0.48200
O 	O 	0.40410 0.90960 0.98700 -0.34300
O 	O 	0.28720 0.84340 0.96640 -0.44400
O 	O 	0.19490 0.15980 0.82410 -0.44600
O 	O 	0.06730 0.09340 0.80910 -0.29400
O 	O 	0.24600 0.72180 0.07670 -0.34300
O 	O 	0.29550 0.69460 0.99290 -0.53400
O 	O 	0.24740 0.77200 0.78970 -0.52200
O 	O 	0.38680 0.72850 0.77020 -0.47500
H 	H 	0.35300 0.69660 0.76280 0.13800
C 	C 	0.25440 0.68610 0.23450 0.37400
C 	C 	0.32550 0.63180 0.23130 -0.10200
C 	C 	0.42330 0.64330 0.23960 0.01700
H 	H 	0.44420 0.68660 0.24400 0.05200
C 	C 	0.48960 0.59330 0.24150 -0.08300
H 	H 	0.55210 0.60350 0.25180 0.04900
C 	C 	0.46630 0.52560 0.22830 0.02200
C 	C 	0.36670 0.51450 0.21670 -0.08600
H 	H 	0.34630 0.47220 0.20720 0.03800
C 	C 	0.30020 0.56510 0.21920 0.02000
H 	H 	0.23630 0.55510 0.21260 0.02500
C 	C 	0.97410 0.83080 0.21470 0.11300
H 	H 	0.96680 0.86350 0.24230 -0.00300
C 	C 	0.03420 0.75440 0.16640 -0.00400
H 	H 	0.07800 0.72420 0.15170 0.03100
C 	C 	0.94400 0.76500 0.14550 -0.01600
H 	H 	0.91330 0.74150 0.11660 0.02500
C 	C 	0.82130 0.84840 0.16480 0.20400
C 	C 	0.81940 0.91890 0.16900 -0.24600
H 	H 	0.87360 0.94240 0.17990 0.12600
C 	C 	0.73410 0.95120 0.15640 0.20400
C 	C 	0.65370 0.92140 0.13830 -0.24700
H 	H 	0.59860 0.94480 0.12920 0.12800
C 	C 	0.65930 0.84890 0.13400 0.20000
C 	C 	0.74160 0.81470 0.14710 -0.26100
H 	H 	0.74310 0.76900 0.14400 0.10100
C 	C 	0.78300 0.05620 0.20410 0.08500
H 	H 	0.82110 0.03630 0.23170 -0.00300
C 	C 	0.70830 0.12680 0.15270 0.01600
H 	H 	0.68670 0.16700 0.13850 0.02100
C 	C 	0.68290 0.06670 0.12860 -0.00600
H 	H 	0.64260 0.05770 0.09800 0.04200
C 	C 	0.54290 0.75670 0.13870 0.00900
H 	H 	0.56920 0.73450 0.16980 0.02800
C 	C 	0.46340 0.73780 0.10910 -0.01000
H 	H 	0.42460 0.70160 0.11690 0.03200
C 	C 	0.52180 0.83080 0.07090 0.08700
H 	H 	0.52880 0.86800 0.04810 0.00800
C 	C 	0.32860 0.90340 0.96780 0.34000
C 	C 	0.27210 0.95520 0.93780 -0.07800
C 	C 	0.31330 0.01960 0.93790 -0.01900
H 	H 	0.36840 0.02850 0.95880 0.05500
C 	C 	0.26740 0.07010 0.90500 -0.03500
H 	H 	0.29490 0.11180 0.90330 0.05400
C 	C 	0.18250 0.05820 0.87540 -0.04900
C 	C 	0.13880 0.99340 0.88000 -0.04600
H 	H 	0.08030 0.98460 0.86270 0.06800
C 	C 	0.18590 0.94490 0.91080 -0.00200
H 	H 	0.15810 0.90330 0.91330 0.04900
C 	C 	0.14390 0.10840 0.83470 0.28700
C 	C 	0.24530 0.68440 0.03250 0.42600
C 	C 	0.17350 0.62840 0.03170 -0.23600
C 	C 	0.13100 0.60710 0.08610 0.05900
H 	H 	0.14630 0.62650 0.12100 0.02100
C 	C 	0.06400 0.55420 0.08080 -0.12400
H 	H 	0.03600 0.53830 0.11420 0.06000
C 	C 	0.03790 0.52510 0.03040 0.05000
C 	C 	0.06630 0.55690 0.97820 -0.12900
H 	H 	0.03920 0.54460 0.94340 0.06900
C 	C 	0.14070 0.61020 0.98070 0.07800
H 	H 	0.16330 0.63010 0.94750 0.00800
C 	C 	0.51080 0.80030 0.90090 0.00800
H 	H 	0.48570 0.84200 0.89360 0.02800
C 	C 	0.59220 0.77520 0.87580 0.00700
H 	H 	0.63230 0.79600 0.84970 0.04000
C 	C 	0.52820 0.70410 0.93620 0.10700
H 	H 	0.51950 0.66640 0.95830 -0.02400
C 	C 	0.67940 0.66830 0.88690 0.21400
C 	C 	0.76710 0.69590 0.87940 -0.28100
H 	H 	0.77590 0.74120 0.88330 0.14100
C 	C 	0.84340 0.65450 0.86570 0.20600
C 	C 	0.82990 0.58480 0.86200 -0.25600
H 	H 	0.88090 0.55610 0.85610 0.11900
C 	C 	0.73930 0.56250 0.86760 0.20100
C 	C 	0.65850 0.59960 0.88150 -0.25400
H 	H 	0.59800 0.58160 0.88670 0.12500
C 	C 	0.97550 0.73170 0.88480 0.00000
H 	H 	0.94700 0.75510 0.91440 0.03400
C 	C 	0.06360 0.74190 0.86230 -0.00500
H 	H 	0.10690 0.77390 0.87440 0.03100
C 	C 	0.99870 0.66180 0.81400 0.09100
H 	H 	0.98760 0.62960 0.78650 -0.02200
C 	C 	0.77600 0.45480 0.82410 0.06900
H 	H 	0.82780 0.46990 0.80290 -0.02800
C 	C 	0.66050 0.39530 0.86030 0.01300
H 	H 	0.61890 0.36030 0.86670 0.01800
C 	C 	0.65060 0.45000 0.88340 -0.00500
H 	H 	0.60500 0.46200 0.91050 0.02800
C 	C 	0.33450 0.77800 0.78110 0.38200
C 	C 	0.38630 0.84350 0.78050 -0.11100
C 	C 	0.33370 0.89910 0.79480 0.02900
H 	H 	0.26980 0.89520 0.80550 0.03900
C 	C 	0.37880 0.96270 0.79300 -0.09500
H 	H 	0.34370 0.00070 0.80050 0.06900
C 	C 	0.47700 0.96700 0.77990 0.03900
C 	C 	0.52490 0.90930 0.76330 -0.10300
H 	H 	0.58820 0.91260 0.75150 0.06900
C 	C 	0.48230 0.84780 0.76370 0.03400
H 	H 	0.51630 0.81030 0.75310 0.03900
H 	H 	0.22290 0.59410 0.03250 0.10100
Zn	Zn	0.82247 0.80485 0.74702 1.21400
Zn	Zn	0.63304 0.77341 0.49610 1.21700
Zn	Zn	0.79288 0.68505 0.27921 1.16500
N 	N 	0.95030 0.79470 0.71150 -0.27400
N 	N 	0.09220 0.81800 0.67620 -0.17000
N 	N 	0.26590 0.02420 0.66260 -0.14500
N 	N 	0.23250 0.12220 0.69890 -0.25600
N 	N 	0.42180 0.81500 0.61450 -0.15400
N 	N 	0.54850 0.78380 0.56450 -0.25500
N 	N 	0.52790 0.75560 0.43780 -0.25700
N 	N 	0.39890 0.71260 0.39820 -0.15400
N 	N 	0.06360 0.67940 0.35470 -0.15900
N 	N 	0.92120 0.69690 0.31840 -0.27000
N 	N 	0.27740 0.48980 0.36010 -0.14300
N 	N 	0.26140 0.39070 0.32450 -0.28100
O 	O 	0.83260 0.66880 0.73120 -0.33100
O 	O 	0.71940 0.74160 0.74270 -0.48200
O 	O 	0.59590 0.90960 0.48700 -0.34000
O 	O 	0.71280 0.84340 0.46640 -0.44300
O 	O 	0.80510 0.15980 0.32410 -0.44600
O 	O 	0.93270 0.09340 0.30910 -0.29400
O 	O 	0.75400 0.72180 0.57670 -0.34200
O 	O 	0.70450 0.69460 0.49290 -0.52600
O 	O 	0.75260 0.77200 0.28970 -0.52200
O 	O 	0.61320 0.72850 0.27020 -0.47500
H 	H 	0.64700 0.69660 0.26280 0.13800
C 	C 	0.74560 0.68610 0.73450 0.37400
C 	C 	0.67450 0.63180 0.73130 -0.10200
C 	C 	0.57670 0.64330 0.73960 0.01700
H 	H 	0.55580 0.68660 0.74400 0.05200
C 	C 	0.51040 0.59330 0.74150 -0.08300
H 	H 	0.44790 0.60350 0.75180 0.04900
C 	C 	0.53370 0.52560 0.72830 0.02200
C 	C 	0.63330 0.51450 0.71670 -0.08600
H 	H 	0.65370 0.47220 0.70720 0.03700
C 	C 	0.69980 0.56510 0.71920 0.02000
H 	H 	0.76370 0.55510 0.71260 0.02500
C 	C 	0.02590 0.83080 0.71470 0.11300
H 	H 	0.03320 0.86350 0.74230 -0.00300
C 	C 	0.96580 0.75440 0.66640 -0.00400
H 	H 	0.92200 0.72420 0.65170 0.03100
C 	C 	0.05600 0.76500 0.64550 -0.01600
H 	H 	0.08670 0.74150 0.61660 0.02400
C 	C 	0.17870 0.84840 0.66480 0.20400
C 	C 	0.18060 0.91890 0.66900 -0.24600
H 	H 	0.12640 0.94240 0.67990 0.12600
C 	C 	0.26590 0.95120 0.65640 0.20300
C 	C 	0.34630 0.92140 0.63830 -0.24700
H 	H 	0.40140 0.94480 0.62920 0.12800
C 	C 	0.34070 0.84890 0.63400 0.19900
C 	C 	0.25840 0.81470 0.64710 -0.26100
H 	H 	0.25690 0.76900 0.64400 0.10000
C 	C 	0.21700 0.05620 0.70410 0.08500
H 	H 	0.17890 0.03630 0.73170 -0.00300
C 	C 	0.29170 0.12680 0.65270 0.01600
H 	H 	0.31330 0.16700 0.63850 0.02100
C 	C 	0.31710 0.06670 0.62860 -0.00700
H 	H 	0.35740 0.05770 0.59800 0.04100
C 	C 	0.45710 0.75670 0.63870 0.00800
H 	H 	0.43080 0.73450 0.66980 0.02800
C 	C 	0.53660 0.73780 0.60910 -0.01100
H 	H 	0.57540 0.70160 0.61690 0.03200
C 	C 	0.47820 0.83080 0.57090 0.08600
H 	H 	0.47120 0.86800 0.54810 0.00600
C 	C 	0.67140 0.90340 0.46780 0.33900
C 	C 	0.72790 0.95520 0.43780 -0.07700
C 	C 	0.68670 0.01960 0.43790 -0.01900
H 	H 	0.63160 0.02850 0.45880 0.05600
C 	C 	0.73260 0.07010 0.40500 -0.03400
H 	H 	0.70510 0.11180 0.40330 0.05400
C 	C 	0.81750 0.05820 0.37540 -0.04900
C 	C 	0.86120 0.99340 0.38000 -0.04500
H 	H 	0.91970 0.98460 0.36270 0.06800
C 	C 	0.81410 0.94490 0.41080 -0.00300
H 	H 	0.84190 0.90330 0.41330 0.05000
C 	C 	0.85610 0.10840 0.33470 0.28800
C 	C 	0.75470 0.68440 0.53250 0.41700
C 	C 	0.82650 0.62840 0.53170 -0.24300
C 	C 	0.86900 0.60710 0.58610 0.05900
H 	H 	0.85370 0.62650 0.62100 0.02000
C 	C 	0.93600 0.55420 0.58080 -0.12300
H 	H 	0.96400 0.53830 0.61420 0.06000
C 	C 	0.96210 0.52510 0.53040 0.04400
C 	C 	0.93370 0.55690 0.47820 -0.12200
H 	H 	0.96080 0.54460 0.44340 0.06800
C 	C 	0.85930 0.61020 0.48070 0.08700
H 	H 	0.83670 0.63010 0.44750 0.00600
C 	C 	0.48920 0.80030 0.40090 0.00900
H 	H 	0.51430 0.84200 0.39360 0.02800
C 	C 	0.40780 0.77520 0.37580 0.00700
H 	H 	0.36770 0.79600 0.34970 0.04000
C 	C 	0.47180 0.70410 0.43620 0.10800
H 	H 	0.48050 0.66640 0.45830 -0.02300
C 	C 	0.32060 0.66830 0.38690 0.21500
C 	C 	0.23290 0.69590 0.37940 -0.28100
H 	H 	0.22410 0.74120 0.38330 0.14200
C 	C 	0.15660 0.65450 0.36570 0.20700
C 	C 	0.17010 0.58480 0.36200 -0.25600
H 	H 	0.11910 0.55610 0.35610 0.11900
C 	C 	0.26070 0.56250 0.36760 0.20100
C 	C 	0.34150 0.59960 0.38150 -0.25400
H 	H 	0.40200 0.58160 0.38670 0.12600
C 	C 	0.02450 0.73170 0.38480 0.00000
H 	H 	0.05300 0.75510 0.41440 0.03500
C 	C 	0.93640 0.74190 0.36230 -0.00500
H 	H 	0.89310 0.77390 0.37440 0.03100
C 	C 	0.00130 0.66180 0.31400 0.09100
H 	H 	0.01240 0.62960 0.28650 -0.02200
C 	C 	0.22400 0.45480 0.32410 0.06900
H 	H 	0.17220 0.46990 0.30290 -0.02800
C 	C 	0.33950 0.39530 0.36030 0.01400
H 	H 	0.38110 0.36030 0.36670 0.01800
C 	C 	0.34940 0.45000 0.38340 -0.00500
H 	H 	0.39500 0.46200 0.41050 0.02900
C 	C 	0.66550 0.77800 0.28110 0.38200
C 	C 	0.61370 0.84350 0.28050 -0.11100
C 	C 	0.66630 0.89910 0.29480 0.02900
H 	H 	0.73020 0.89520 0.30550 0.03900
C 	C 	0.62120 0.96270 0.29300 -0.09500
H 	H 	0.65630 0.00070 0.30050 0.06900
C 	C 	0.52300 0.96700 0.27990 0.03900
C 	C 	0.47510 0.90930 0.26330 -0.10300
H 	H 	0.41180 0.91260 0.25150 0.06900
C 	C 	0.51770 0.84780 0.26370 0.03400
H 	H 	0.48370 0.81030 0.25310 0.03900
H 	H 	0.77710 0.59410 0.53250 0.10000
Zn	Zn	0.17753 0.19515 0.74702 1.21400
Zn	Zn	0.36696 0.22659 0.49610 1.21700
Zn	Zn	0.20712 0.31495 0.27921 1.16500
N 	N 	0.04970 0.20530 0.71150 -0.27400
N 	N 	0.90780 0.18200 0.67620 -0.17000
N 	N 	0.73410 0.97580 0.66260 -0.14500
N 	N 	0.76750 0.87780 0.69890 -0.25600
N 	N 	0.57820 0.18500 0.61450 -0.15400
N 	N 	0.45150 0.21620 0.56450 -0.25500
N 	N 	0.47210 0.24440 0.43780 -0.25700
N 	N 	0.60110 0.28740 0.39820 -0.15400
N 	N 	0.93640 0.32060 0.35470 -0.15900
N 	N 	0.07880 0.30310 0.31840 -0.27000
N 	N 	0.72260 0.51020 0.36010 -0.14300
N 	N 	0.73860 0.60930 0.32450 -0.28100
O 	O 	0.16740 0.33120 0.73120 -0.33100
O 	O 	0.28060 0.25840 0.74270 -0.48200
O 	O 	0.40410 0.09040 0.48700 -0.34000
O 	O 	0.28720 0.15660 0.46640 -0.44300
O 	O 	0.19490 0.84020 0.32410 -0.44600
O 	O 	0.06730 0.90660 0.30910 -0.29400
O 	O 	0.24600 0.27820 0.57670 -0.34200
O 	O 	0.29550 0.30540 0.49290 -0.52600
O 	O 	0.24740 0.22800 0.28970 -0.52200
O 	O 	0.38680 0.27150 0.27020 -0.47500
H 	H 	0.35300 0.30340 0.26280 0.13800
C 	C 	0.25440 0.31390 0.73450 0.37400
C 	C 	0.32550 0.36820 0.73130 -0.10200
C 	C 	0.42330 0.35670 0.73960 0.01700
H 	H 	0.44420 0.31340 0.74400 0.05200
C 	C 	0.48960 0.40670 0.74150 -0.08300
H 	H 	0.55210 0.39650 0.75180 0.04900
C 	C 	0.46630 0.47440 0.72830 0.02200
C 	C 	0.36670 0.48550 0.71670 -0.08600
H 	H 	0.34630 0.52780 0.70720 0.03700
C 	C 	0.30020 0.43490 0.71920 0.02000
H 	H 	0.23630 0.44490 0.71260 0.02500
C 	C 	0.97410 0.16920 0.71470 0.11300
H 	H 	0.96680 0.13650 0.74230 -0.00300
C 	C 	0.03420 0.24560 0.66640 -0.00400
H 	H 	0.07800 0.27580 0.65170 0.03100
C 	C 	0.94400 0.23500 0.64550 -0.01600
H 	H 	0.91330 0.25850 0.61660 0.02400
C 	C 	0.82130 0.15160 0.66480 0.20400
C 	C 	0.81940 0.08110 0.66900 -0.24600
H 	H 	0.87360 0.05760 0.67990 0.12600
C 	C 	0.73410 0.04880 0.65640 0.20300
C 	C 	0.65370 0.07860 0.63830 -0.24700
H 	H 	0.59860 0.05520 0.62920 0.12800
C 	C 	0.65930 0.15110 0.63400 0.19900
C 	C 	0.74160 0.18530 0.64710 -0.26100
H 	H 	0.74310 0.23100 0.64400 0.10000
C 	C 	0.78300 0.94380 0.70410 0.08500
H 	H 	0.82110 0.96370 0.73170 -0.00300
C 	C 	0.70830 0.87320 0.65270 0.01600
H 	H 	0.68670 0.83300 0.63850 0.02100
C 	C 	0.68290 0.93330 0.62860 -0.00700
H 	H 	0.64260 0.94230 0.59800 0.04100
C 	C 	0.54290 0.24330 0.63870 0.00800
H 	H 	0.56920 0.26550 0.66980 0.02800
C 	C 	0.46340 0.26220 0.60910 -0.01100
H 	H 	0.42460 0.29840 0.61690 0.03200
C 	C 	0.52180 0.16920 0.57090 0.08600
H 	H 	0.52880 0.13200 0.54810 0.00600
C 	C 	0.32860 0.09660 0.46780 0.33900
C 	C 	0.27210 0.04480 0.43780 -0.07700
C 	C 	0.31330 0.98040 0.43790 -0.01900
H 	H 	0.36840 0.97150 0.45880 0.05600
C 	C 	0.26740 0.92990 0.40500 -0.03400
H 	H 	0.29490 0.88820 0.40330 0.05400
C 	C 	0.18250 0.94180 0.37540 -0.04900
C 	C 	0.13880 0.00660 0.38000 -0.04500
H 	H 	0.08030 0.01540 0.36270 0.06800
C 	C 	0.18590 0.05510 0.41080 -0.00300
H 	H 	0.15810 0.09670 0.41330 0.05000
C 	C 	0.14390 0.89160 0.33470 0.28800
C 	C 	0.24530 0.31560 0.53250 0.41700
C 	C 	0.17350 0.37160 0.53170 -0.24300
C 	C 	0.13100 0.39290 0.58610 0.05900
H 	H 	0.14630 0.37350 0.62100 0.02000
C 	C 	0.06400 0.44580 0.58080 -0.12300
H 	H 	0.03600 0.46170 0.61420 0.06000
C 	C 	0.03790 0.47490 0.53040 0.04400
C 	C 	0.06630 0.44310 0.47820 -0.12200
H 	H 	0.03920 0.45540 0.44340 0.06800
C 	C 	0.14070 0.38980 0.48070 0.08700
H 	H 	0.16330 0.36990 0.44750 0.00600
C 	C 	0.51080 0.19970 0.40090 0.00900
H 	H 	0.48570 0.15800 0.39360 0.02800
C 	C 	0.59220 0.22480 0.37580 0.00700
H 	H 	0.63230 0.20400 0.34970 0.04000
C 	C 	0.52820 0.29590 0.43620 0.10800
H 	H 	0.51950 0.33360 0.45830 -0.02300
C 	C 	0.67940 0.33170 0.38690 0.21500
C 	C 	0.76710 0.30410 0.37940 -0.28100
H 	H 	0.77590 0.25880 0.38330 0.14200
C 	C 	0.84340 0.34550 0.36570 0.20700
C 	C 	0.82990 0.41520 0.36200 -0.25600
H 	H 	0.88090 0.44390 0.35610 0.11900
C 	C 	0.73930 0.43750 0.36760 0.20100
C 	C 	0.65850 0.40040 0.38150 -0.25400
H 	H 	0.59800 0.41840 0.38670 0.12600
C 	C 	0.97550 0.26830 0.38480 0.00000
H 	H 	0.94700 0.24490 0.41440 0.03500
C 	C 	0.06360 0.25810 0.36230 -0.00500
H 	H 	0.10690 0.22610 0.37440 0.03100
C 	C 	0.99870 0.33820 0.31400 0.09100
H 	H 	0.98760 0.37040 0.28650 -0.02200
C 	C 	0.77600 0.54520 0.32410 0.06900
H 	H 	0.82780 0.53010 0.30290 -0.02800
C 	C 	0.66050 0.60470 0.36030 0.01400
H 	H 	0.61890 0.63970 0.36670 0.01800
C 	C 	0.65060 0.55000 0.38340 -0.00500
H 	H 	0.60500 0.53800 0.41050 0.02900
C 	C 	0.33450 0.22200 0.28110 0.38200
C 	C 	0.38630 0.15650 0.28050 -0.11100
C 	C 	0.33370 0.10090 0.29480 0.02900
H 	H 	0.26980 0.10480 0.30550 0.03900
C 	C 	0.37880 0.03730 0.29300 -0.09500
H 	H 	0.34370 0.99930 0.30050 0.06900
C 	C 	0.47700 0.03300 0.27990 0.03900
C 	C 	0.52490 0.09070 0.26330 -0.10300
H 	H 	0.58820 0.08740 0.25150 0.06900
C 	C 	0.48230 0.15220 0.26370 0.03400
H 	H 	0.51630 0.18970 0.25310 0.03900
H 	H 	0.22290 0.40590 0.53250 0.10000
