data_crystal

_cell_length_a 8.59400
_cell_length_b 8.59400
_cell_length_c 12.44410
_cell_angle_alpha 90.00000
_cell_angle_beta  90.00000
_cell_angle_gamma 120.00000

_symmetry_space_group_name_	'P 1'
_symmetry_space_group_name_H-M	'P 1'

loop_
_symmetry_equiv_pos_as_xyz
  x,y,z

loop_
_atom_site_label
_atom_site_type_symbol
_atom_site_fract_x
_atom_site_fract_y
_atom_site_fract_z
_atom_site_charge
O 	O 	0.66300 0.91480 0.09890 -0.39000
O 	O 	0.30760 0.75130 0.10440 -0.46500
O 	O 	0.08520 0.74820 0.76557 -0.48000
O 	O 	0.24870 0.55630 0.77107 -0.42000
O 	O 	0.25180 0.33700 0.43223 -0.51100
O 	O 	0.44370 0.69240 0.43773 -0.35800
O 	O 	0.33700 0.08520 0.09890 -0.64200
O 	O 	0.69240 0.24870 0.10440 -0.47600
O 	O 	0.91480 0.25180 0.76557 -0.35800
O 	O 	0.75130 0.44370 0.77107 -0.33100
O 	O 	0.74820 0.66300 0.43223 -0.37200
O 	O 	0.55630 0.30760 0.43773 -0.43800
O 	O 	0.91480 0.66300 0.56777 -0.30800
O 	O 	0.75130 0.30760 0.56227 -0.39200
O 	O 	0.74820 0.08520 0.90110 -0.40000
O 	O 	0.55630 0.24870 0.89560 -0.35300
O 	O 	0.33700 0.25180 0.23443 -0.52700
O 	O 	0.69240 0.44370 0.22893 -0.37800
O 	O 	0.08520 0.33700 0.56777 -0.56200
O 	O 	0.24870 0.69240 0.56227 -0.40000
O 	O 	0.25180 0.91480 0.90110 -0.30000
O 	O 	0.44370 0.75130 0.89560 -0.27300
O 	O 	0.66300 0.74820 0.23443 -0.38900
O 	O 	0.30760 0.55630 0.22893 -0.45700
Sc	Sc	0.50000 0.00000 -0.00000 2.27200
Sc	Sc	-0.00000 0.50000 0.66667 2.30100
Sc	Sc	0.50000 0.50000 0.33333 2.32500
C 	C 	0.58930 0.79465 0.16667 0.27300
C 	C 	0.37930 0.68965 0.16667 0.23500
C 	C 	0.20535 0.79465 0.83333 0.29100
C 	C 	0.31035 0.68965 0.83333 0.23500
C 	C 	0.20535 0.41070 0.50000 0.30000
C 	C 	0.31035 0.62070 0.50000 0.20700
C 	C 	0.41070 0.20535 0.16667 0.29600
C 	C 	0.62070 0.31035 0.16667 0.19700
C 	C 	0.79465 0.20535 0.83333 0.29000
C 	C 	0.68965 0.31035 0.83333 0.23700
C 	C 	0.79465 0.58930 0.50000 0.27600
C 	C 	0.68965 0.37930 0.50000 0.24500
