data_crystal

_cell_length_a 16.21580
_cell_length_b 14.90240
_cell_length_c 7.90680
_cell_angle_alpha 90.00000
_cell_angle_beta  91.82600
_cell_angle_gamma 90.00000

_symmetry_space_group_name_	'P 1'
_symmetry_space_group_name_H-M	'P 1'

loop_
_symmetry_equiv_pos_as_xyz
  x,y,z

loop_
_atom_site_label
_atom_site_type_symbol
_atom_site_fract_x
_atom_site_fract_y
_atom_site_fract_z
_atom_site_charge
Ho	Ho	0.45498 0.38381 0.04996 1.82900
Ag	Ag	0.02677 0.74033 0.39967 0.48300
C 	C 	0.36770 0.58080 0.13780 0.39100
C 	C 	0.28920 0.62360 0.19590 -0.20800
C 	C 	0.21910 0.57200 0.20360 -0.00400
H 	H 	0.21990 0.51170 0.17320 0.02700
C 	C 	0.14740 0.61140 0.25730 -0.00100
H 	H 	0.10020 0.57620 0.26200 -0.00700
C 	C 	0.21110 0.74700 0.29360 -0.00400
H 	H 	0.20860 0.80720 0.32390 0.01600
C 	C 	0.28520 0.71280 0.24120 -0.02800
H 	H 	0.33150 0.74930 0.23660 0.00100
C 	C 	0.13360 0.17190 0.95950 0.01700
H 	H 	0.10660 0.11760 0.97490 0.00200
C 	C 	0.21200 0.17070 0.89570 -0.01700
H 	H 	0.23720 0.11660 0.86980 0.07000
C 	C 	0.25210 0.25100 0.87110 -0.09400
C 	C 	0.33750 0.25100 0.80170 0.46500
C 	C 	0.21250 0.32950 0.91280 -0.01400
H 	H 	0.23820 0.38460 0.89830 0.03900
C 	C 	0.13430 0.32540 0.97620 0.01000
H 	H 	0.10800 0.37870 0.00340 -0.00800
N 	N 	0.14270 0.69690 0.30260 -0.18900
N 	N 	0.09500 0.24800 0.00010 -0.19500
O 	O 	0.42420 0.63320 0.09280 -0.53200
O 	O 	0.36990 0.49710 0.13840 -0.50200
O 	O 	0.35906 0.18441 0.71900 -0.49500
O 	O 	0.38257 0.31880 0.83090 -0.46800
O 	O 	0.54736 0.50350 0.15830 -0.37700
O 	O 	0.53440 0.38470 0.31290 -0.38300
C 	C 	0.56910 0.45890 0.28760 -0.20200
C 	C 	0.64500 0.48860 0.38800 -1.32000
H 	H 	0.65450 0.44860 0.48210 5.87600
H 	H 	0.63680 0.54840 0.42970 1.97200
H 	H 	0.69180 0.48770 0.31710 1.37500
C 	C 	0.62560 0.49910 0.42300 2.86000
H 	H 	0.59560 0.50740 0.52470 -1.53100
H 	H 	0.64570 0.55600 0.38520 -2.39400
H 	H 	0.67130 0.45940 0.44550 -6.45500
Ho	Ho	0.54502 0.88381 0.45004 1.82800
Ag	Ag	0.97323 0.24033 0.10033 0.48400
C 	C 	0.63230 0.08080 0.36220 0.38600
C 	C 	0.71080 0.12360 0.30410 -0.21000
C 	C 	0.78090 0.07200 0.29640 -0.00400
H 	H 	0.78010 0.01170 0.32680 0.02500
C 	C 	0.85260 0.11140 0.24270 -0.00100
H 	H 	0.89980 0.07620 0.23800 -0.00800
C 	C 	0.78890 0.24700 0.20640 -0.00400
H 	H 	0.79140 0.30720 0.17610 0.01600
C 	C 	0.71480 0.21280 0.25880 -0.03000
H 	H 	0.66850 0.24930 0.26340 0.00200
C 	C 	0.86640 0.67190 0.54050 0.01400
H 	H 	0.89340 0.61760 0.52510 0.00100
C 	C 	0.78800 0.67070 0.60430 -0.01600
H 	H 	0.76280 0.61660 0.63020 0.06800
C 	C 	0.74790 0.75100 0.62890 -0.09600
C 	C 	0.66250 0.75100 0.69830 0.46600
C 	C 	0.78750 0.82950 0.58720 -0.01100
H 	H 	0.76180 0.88460 0.60170 0.03900
C 	C 	0.86570 0.82540 0.52380 0.00500
H 	H 	0.89200 0.87870 0.49660 -0.00400
N 	N 	0.85730 0.19690 0.19740 -0.18900
N 	N 	0.90500 0.74800 0.49990 -0.19300
O 	O 	0.57580 0.13320 0.40720 -0.53100
O 	O 	0.63010 0.99710 0.36160 -0.50000
O 	O 	0.64094 0.68441 0.78100 -0.49600
O 	O 	0.61743 0.81880 0.66910 -0.46500
O 	O 	0.45264 0.00350 0.34170 -0.36800
O 	O 	0.46560 0.88470 0.18710 -0.37900
C 	C 	0.43090 0.95890 0.21240 -0.22900
C 	C 	0.35500 0.98860 0.11200 -1.37500
H 	H 	0.34550 0.94860 0.01790 6.11300
H 	H 	0.36320 0.04840 0.07030 2.06500
H 	H 	0.30820 0.98770 0.18290 1.43000
C 	C 	0.37440 0.99910 0.07700 2.98700
H 	H 	0.40440 0.00740 0.97530 -1.59800
H 	H 	0.35430 0.05600 0.11480 -2.50600
H 	H 	0.32870 0.95940 0.05450 -6.72100
Ho	Ho	0.54502 0.61619 0.95004 1.82900
Ag	Ag	0.97323 0.25967 0.60033 0.48300
C 	C 	0.63230 0.41920 0.86220 0.39100
C 	C 	0.71080 0.37640 0.80410 -0.20800
C 	C 	0.78090 0.42800 0.79640 -0.00400
H 	H 	0.78010 0.48830 0.82680 0.02700
C 	C 	0.85260 0.38860 0.74270 -0.00100
H 	H 	0.89980 0.42380 0.73800 -0.00700
C 	C 	0.78890 0.25300 0.70640 -0.00400
H 	H 	0.79140 0.19280 0.67610 0.01600
C 	C 	0.71480 0.28720 0.75880 -0.02800
H 	H 	0.66850 0.25070 0.76340 0.00100
C 	C 	0.86640 0.82810 0.04050 0.01700
H 	H 	0.89340 0.88240 0.02510 0.00200
C 	C 	0.78800 0.82930 0.10430 -0.01700
H 	H 	0.76280 0.88340 0.13020 0.07000
C 	C 	0.74790 0.74900 0.12890 -0.09400
C 	C 	0.66250 0.74900 0.19830 0.46500
C 	C 	0.78750 0.67050 0.08720 -0.01400
H 	H 	0.76180 0.61540 0.10170 0.03900
C 	C 	0.86570 0.67460 0.02380 0.01000
H 	H 	0.89200 0.62130 0.99660 -0.00800
N 	N 	0.85730 0.30310 0.69740 -0.18900
N 	N 	0.90500 0.75200 0.99990 -0.19500
O 	O 	0.57580 0.36680 0.90720 -0.53200
O 	O 	0.63010 0.50290 0.86160 -0.50200
O 	O 	0.64094 0.81559 0.28100 -0.49500
O 	O 	0.61743 0.68120 0.16910 -0.46800
O 	O 	0.45264 0.49650 0.84170 -0.37700
O 	O 	0.46560 0.61530 0.68710 -0.38300
C 	C 	0.43090 0.54110 0.71240 -0.20200
C 	C 	0.35500 0.51140 0.61200 -1.32000
H 	H 	0.34550 0.55140 0.51790 5.87600
H 	H 	0.36320 0.45160 0.57030 1.97200
H 	H 	0.30820 0.51230 0.68290 1.37500
C 	C 	0.37440 0.50090 0.57700 2.86000
H 	H 	0.40440 0.49260 0.47530 -1.53100
H 	H 	0.35430 0.44400 0.61480 -2.39400
H 	H 	0.32870 0.54060 0.55450 -6.45500
Ho	Ho	0.45498 0.11619 0.54996 1.82800
Ag	Ag	0.02677 0.75967 0.89967 0.48400
C 	C 	0.36770 0.91920 0.63780 0.38600
C 	C 	0.28920 0.87640 0.69590 -0.21000
C 	C 	0.21910 0.92800 0.70360 -0.00400
H 	H 	0.21990 0.98830 0.67320 0.02500
C 	C 	0.14740 0.88860 0.75730 -0.00100
H 	H 	0.10020 0.92380 0.76200 -0.00800
C 	C 	0.21110 0.75300 0.79360 -0.00400
H 	H 	0.20860 0.69280 0.82390 0.01600
C 	C 	0.28520 0.78720 0.74120 -0.03000
H 	H 	0.33150 0.75070 0.73660 0.00200
C 	C 	0.13360 0.32810 0.45950 0.01400
H 	H 	0.10660 0.38240 0.47490 0.00100
C 	C 	0.21200 0.32930 0.39570 -0.01600
H 	H 	0.23720 0.38340 0.36980 0.06800
C 	C 	0.25210 0.24900 0.37110 -0.09600
C 	C 	0.33750 0.24900 0.30170 0.46600
C 	C 	0.21250 0.17050 0.41280 -0.01100
H 	H 	0.23820 0.11540 0.39830 0.03900
C 	C 	0.13430 0.17460 0.47620 0.00500
H 	H 	0.10800 0.12130 0.50340 -0.00400
N 	N 	0.14270 0.80310 0.80260 -0.18900
N 	N 	0.09500 0.25200 0.50010 -0.19300
O 	O 	0.42420 0.86680 0.59280 -0.53100
O 	O 	0.36990 0.00290 0.63840 -0.50000
O 	O 	0.35906 0.31559 0.21900 -0.49600
O 	O 	0.38257 0.18120 0.33090 -0.46500
O 	O 	0.54736 0.99650 0.65830 -0.36800
O 	O 	0.53440 0.11530 0.81290 -0.37900
C 	C 	0.56910 0.04110 0.78760 -0.22900
C 	C 	0.64500 0.01140 0.88800 -1.37500
H 	H 	0.65450 0.05140 0.98210 6.11300
H 	H 	0.63680 0.95160 0.92970 2.06500
H 	H 	0.69180 0.01230 0.81710 1.43000
C 	C 	0.62560 0.00090 0.92300 2.98700
H 	H 	0.59560 0.99260 0.02470 -1.59800
H 	H 	0.64570 0.94400 0.88520 -2.50600
H 	H 	0.67130 0.04060 0.94550 -6.72100
