data_crystal

_cell_length_a 16.19520
_cell_length_b 14.86730
_cell_length_c 7.89380
_cell_angle_alpha 90.00000
_cell_angle_beta  91.78300
_cell_angle_gamma 90.00000

_symmetry_space_group_name_	'P 1'
_symmetry_space_group_name_H-M	'P 1'

loop_
_symmetry_equiv_pos_as_xyz
  x,y,z

loop_
_atom_site_label
_atom_site_type_symbol
_atom_site_fract_x
_atom_site_fract_y
_atom_site_fract_z
_atom_site_charge
Er	Er	0.95531 0.88379 0.05025 1.84600
Ag	Ag	0.47352 0.75944 0.60055 0.47500
N 	N 	0.35730 0.80310 0.69730 -0.20000
N 	N 	0.59530 0.75190 0.49930 -0.19200
C 	C 	0.13210 0.91980 0.86290 0.46400
C 	C 	0.21080 0.87710 0.80480 -0.10600
C 	C 	0.28100 0.92820 0.79680 -0.04900
H 	H 	0.28000 0.98860 0.82710 0.03900
C 	C 	0.35270 0.88950 0.74360 -0.00200
H 	H 	0.40000 0.92470 0.73970 -0.02000
C 	C 	0.28900 0.75340 0.70660 0.00700
H 	H 	0.29140 0.69300 0.67670 -0.00600
C 	C 	0.21470 0.78790 0.75890 -0.03100
H 	H 	0.16810 0.75150 0.76300 0.04600
C 	C 	0.63420 0.82840 0.46050 -0.01000
H 	H 	0.60760 0.88290 0.47790 -0.01500
C 	C 	0.71220 0.82910 0.39590 -0.01600
H 	H 	0.73720 0.88330 0.36850 0.01000
C 	C 	0.75310 0.74880 0.37190 -0.13400
C 	C 	0.83870 0.74890 0.30280 0.45600
C 	C 	0.71360 0.67010 0.41290 -0.00500
H 	H 	0.73940 0.61490 0.39820 0.01000
C 	C 	0.63490 0.67420 0.47630 -0.00800
H 	H 	0.60850 0.62080 0.50400 -0.00800
O 	O 	0.07530 0.86720 0.90740 -0.49200
O 	O 	0.12980 0.00370 0.86180 -0.51100
O 	O 	0.85978 0.81580 0.21940 -0.51100
O 	O 	0.88366 0.68130 0.33160 -0.52100
O 	O 	0.03460 0.88470 0.31300 -0.60500
O 	O 	0.04760 0.00340 0.15670 -0.71700
C 	C 	0.06870 0.95910 0.28750 0.96300
C 	C 	0.14310 0.98630 0.39500 -1.04100
H 	H 	0.17280 0.03270 0.33850 0.04900
H 	H 	0.17850 0.93510 0.41290 0.20200
H 	H 	0.12550 0.00820 0.50240 1.13000
C 	C 	0.12640 0.00280 0.41700 -0.87700
H 	H 	0.11420 0.06590 0.42300 0.15200
H 	H 	0.18240 0.99470 0.38360 0.67400
H 	H 	0.11910 0.97560 0.52550 -0.45500
Er	Er	0.04469 0.38379 0.44975 1.86700
Ag	Ag	0.52648 0.25944 0.89945 0.47400
N 	N 	0.64270 0.30310 0.80270 -0.20100
N 	N 	0.40470 0.25190 0.00070 -0.19400
C 	C 	0.86790 0.41980 0.63710 0.45300
C 	C 	0.78920 0.37710 0.69520 -0.10300
C 	C 	0.71900 0.42820 0.70320 -0.05200
H 	H 	0.72000 0.48860 0.67290 0.03700
C 	C 	0.64730 0.38950 0.75640 -0.00200
H 	H 	0.60000 0.42470 0.76030 -0.02100
C 	C 	0.71100 0.25340 0.79340 0.00800
H 	H 	0.70860 0.19300 0.82330 -0.00800
C 	C 	0.78530 0.28790 0.74110 -0.03400
H 	H 	0.83190 0.25150 0.73700 0.04600
C 	C 	0.36580 0.32840 0.03950 -0.00600
H 	H 	0.39240 0.38290 0.02210 -0.01500
C 	C 	0.28780 0.32910 0.10410 -0.01900
H 	H 	0.26280 0.38330 0.13150 0.01200
C 	C 	0.24690 0.24880 0.12810 -0.12700
C 	C 	0.16130 0.24890 0.19720 0.45400
C 	C 	0.28640 0.17010 0.08710 -0.01400
H 	H 	0.26060 0.11490 0.10180 0.01500
C 	C 	0.36510 0.17420 0.02370 0.00900
H 	H 	0.39150 0.12080 0.99600 -0.01900
O 	O 	0.92470 0.36720 0.59260 -0.49500
O 	O 	0.87020 0.50370 0.63820 -0.50100
O 	O 	0.14022 0.31580 0.28060 -0.51000
O 	O 	0.11634 0.18130 0.16840 -0.51600
O 	O 	0.96540 0.38470 0.18700 -0.61200
O 	O 	0.95240 0.50340 0.34330 -0.72700
C 	C 	0.93130 0.45910 0.21250 0.98300
C 	C 	0.85690 0.48630 0.10500 -1.07000
H 	H 	0.82720 0.53270 0.16150 0.05300
H 	H 	0.82150 0.43510 0.08710 0.21000
H 	H 	0.87450 0.50820 0.99760 1.18700
C 	C 	0.87360 0.50280 0.08300 -0.90300
H 	H 	0.88580 0.56590 0.07700 0.15100
H 	H 	0.81760 0.49470 0.11640 0.68900
H 	H 	0.88090 0.47560 0.97450 -0.49100
Er	Er	0.04469 0.11621 0.94975 1.84700
Ag	Ag	0.52648 0.24056 0.39945 0.47600
N 	N 	0.64270 0.19690 0.30270 -0.20000
N 	N 	0.40470 0.24810 0.50070 -0.19200
C 	C 	0.86790 0.08020 0.13710 0.46400
C 	C 	0.78920 0.12290 0.19520 -0.10600
C 	C 	0.71900 0.07180 0.20320 -0.04900
H 	H 	0.72000 0.01140 0.17290 0.03900
C 	C 	0.64730 0.11050 0.25640 -0.00200
H 	H 	0.60000 0.07530 0.26030 -0.02000
C 	C 	0.71100 0.24660 0.29340 0.00700
H 	H 	0.70860 0.30700 0.32330 -0.00600
C 	C 	0.78530 0.21210 0.24110 -0.03100
H 	H 	0.83190 0.24850 0.23700 0.04600
C 	C 	0.36580 0.17160 0.53950 -0.01000
H 	H 	0.39240 0.11710 0.52210 -0.01500
C 	C 	0.28780 0.17090 0.60410 -0.01600
H 	H 	0.26280 0.11670 0.63150 0.01000
C 	C 	0.24690 0.25120 0.62810 -0.13400
C 	C 	0.16130 0.25110 0.69720 0.45600
C 	C 	0.28640 0.32990 0.58710 -0.00500
H 	H 	0.26060 0.38510 0.60180 0.01000
C 	C 	0.36510 0.32580 0.52370 -0.00800
H 	H 	0.39150 0.37920 0.49600 -0.00800
O 	O 	0.92470 0.13280 0.09260 -0.49200
O 	O 	0.87020 0.99630 0.13820 -0.51100
O 	O 	0.14022 0.18420 0.78060 -0.51100
O 	O 	0.11634 0.31870 0.66840 -0.52100
O 	O 	0.96540 0.11530 0.68700 -0.60500
O 	O 	0.95240 0.99660 0.84330 -0.71700
C 	C 	0.93130 0.04090 0.71250 0.96300
C 	C 	0.85690 0.01370 0.60500 -1.04100
H 	H 	0.82720 0.96730 0.66150 0.04900
H 	H 	0.82150 0.06490 0.58710 0.20200
H 	H 	0.87450 0.99180 0.49760 1.13000
C 	C 	0.87360 0.99720 0.58300 -0.87700
H 	H 	0.88580 0.93410 0.57700 0.15200
H 	H 	0.81760 0.00530 0.61640 0.67400
H 	H 	0.88090 0.02440 0.47450 -0.45500
Er	Er	0.95531 0.61621 0.55025 1.86700
Ag	Ag	0.47352 0.74056 0.10055 0.47400
N 	N 	0.35730 0.69690 0.19730 -0.20100
N 	N 	0.59530 0.74810 0.99930 -0.19400
C 	C 	0.13210 0.58020 0.36290 0.45300
C 	C 	0.21080 0.62290 0.30480 -0.10300
C 	C 	0.28100 0.57180 0.29680 -0.05200
H 	H 	0.28000 0.51140 0.32710 0.03700
C 	C 	0.35270 0.61050 0.24360 -0.00200
H 	H 	0.40000 0.57530 0.23970 -0.02100
C 	C 	0.28900 0.74660 0.20660 0.00800
H 	H 	0.29140 0.80700 0.17670 -0.00800
C 	C 	0.21470 0.71210 0.25890 -0.03400
H 	H 	0.16810 0.74850 0.26300 0.04600
C 	C 	0.63420 0.67160 0.96050 -0.00600
H 	H 	0.60760 0.61710 0.97790 -0.01500
C 	C 	0.71220 0.67090 0.89590 -0.01900
H 	H 	0.73720 0.61670 0.86850 0.01200
C 	C 	0.75310 0.75120 0.87190 -0.12700
C 	C 	0.83870 0.75110 0.80280 0.45400
C 	C 	0.71360 0.82990 0.91290 -0.01400
H 	H 	0.73940 0.88510 0.89820 0.01500
C 	C 	0.63490 0.82580 0.97630 0.00900
H 	H 	0.60850 0.87920 0.00400 -0.01900
O 	O 	0.07530 0.63280 0.40740 -0.49500
O 	O 	0.12980 0.49630 0.36180 -0.50100
O 	O 	0.85978 0.68420 0.71940 -0.51000
O 	O 	0.88366 0.81870 0.83160 -0.51600
O 	O 	0.03460 0.61530 0.81300 -0.61200
O 	O 	0.04760 0.49660 0.65670 -0.72700
C 	C 	0.06870 0.54090 0.78750 0.98300
C 	C 	0.14310 0.51370 0.89500 -1.07000
H 	H 	0.17280 0.46730 0.83850 0.05300
H 	H 	0.17850 0.56490 0.91290 0.21000
H 	H 	0.12550 0.49180 0.00240 1.18700
C 	C 	0.12640 0.49720 0.91700 -0.90300
H 	H 	0.11420 0.43410 0.92300 0.15100
H 	H 	0.18240 0.50530 0.88360 0.68900
H 	H 	0.11910 0.52440 0.02550 -0.49100
