data_crystal

_cell_length_a 12.88600
_cell_length_b 16.47830
_cell_length_c 18.25410
_cell_angle_alpha 80.20200
_cell_angle_beta  86.03900
_cell_angle_gamma 81.67300

_symmetry_space_group_name_	'P 1'
_symmetry_space_group_name_H-M	'P 1'

loop_
_symmetry_equiv_pos_as_xyz
  x,y,z

loop_
_atom_site_label
_atom_site_type_symbol
_atom_site_fract_x
_atom_site_fract_y
_atom_site_fract_z
_atom_site_charge
Zn	Zn	0.83226 0.70857 0.32595 1.19100
Zn	Zn	0.75666 0.23695 0.98774 1.20900
Zn	Zn	0.48660 0.27513 0.26392 1.19100
C 	C 	0.93420 0.58830 0.42660 0.35100
C 	C 	0.95240 0.53030 0.49970 -0.22400
H 	H 	0.95580 0.56350 0.53830 0.10100
H 	H 	0.89230 0.50040 0.51220 0.10600
C 	C 	0.90150 0.10250 0.98740 0.35500
C 	C 	0.94570 0.01010 0.99480 -0.21500
H 	H 	0.90870 0.98010 0.03650 0.10400
H 	H 	0.93020 0.99010 0.95030 0.10300
C 	C 	0.53460 0.28590 0.00010 0.37900
C 	C 	0.42610 0.26150 0.01600 -0.21700
H 	H 	0.40140 0.24930 0.97050 0.09200
H 	H 	0.37930 0.30850 0.02990 0.10600
C 	C 	0.41850 0.18670 0.07700 -0.24000
H 	H 	0.46650 0.13970 0.06400 0.11900
H 	H 	0.34790 0.17200 0.07970 0.10200
C 	C 	0.44410 0.20240 0.15360 0.39400
C 	C 	0.94770 0.84690 0.23930 0.01500
H 	H 	0.89510 0.86730 0.20580 0.00300
C 	C 	0.03910 0.87580 0.23810 -0.01700
H 	H 	0.06150 0.91940 0.20430 0.03400
C 	C 	0.03290 0.77520 0.32920 0.09200
H 	H 	0.05140 0.73610 0.37090 -0.00900
C 	C 	0.50660 0.44350 0.17550 -0.01700
H 	H 	0.49140 0.42180 0.13420 0.04100
C 	C 	0.52290 0.51970 0.17230 -0.00000
H 	H 	0.52120 0.56160 0.13100 0.04800
C 	C 	0.53210 0.44830 0.28550 0.11400
H 	H 	0.53780 0.43670 0.33680 -0.03100
C 	C 	0.20050 0.83860 0.31760 -0.13800
H 	H 	0.21700 0.89330 0.29530 0.07100
H 	H 	0.19890 0.83550 0.37120 0.06900
C 	C 	0.28510 0.77550 0.29580 0.07700
C 	C 	0.35440 0.79300 0.23520 -0.08800
H 	H 	0.34420 0.84460 0.20480 0.05900
C 	C 	0.43760 0.73560 0.21940 -0.05700
H 	H 	0.47980 0.74480 0.17610 0.04600
C 	C 	0.45660 0.66090 0.27250 0.04900
C 	C 	0.38480 0.64310 0.32420 -0.05900
H 	H 	0.39150 0.59020 0.35250 0.04900
C 	C 	0.30030 0.69900 0.33860 -0.08500
H 	H 	0.25280 0.68480 0.37770 0.06000
C 	C 	0.55830 0.60200 0.26850 -0.11100
H 	H 	0.60830 0.62950 0.23440 0.06100
H 	H 	0.58770 0.58900 0.31730 0.05400
C 	C 	0.88680 0.30320 0.85190 0.00700
H 	H 	0.93890 0.25750 0.85780 0.02300
C 	C 	0.88590 0.36930 0.79690 -0.00100
H 	H 	0.93620 0.37770 0.75830 0.04000
C 	C 	0.74720 0.38610 0.86970 0.09000
H 	H 	0.68390 0.40970 0.88970 -0.00100
C 	C 	0.26910 0.67990 0.87410 -0.00100
H 	H 	0.33530 0.65260 0.88700 0.02000
C 	C 	0.22420 0.67510 0.81210 -0.01500
H 	H 	0.25070 0.64420 0.77510 0.03100
C 	C 	0.12200 0.75730 0.87840 0.08300
H 	H 	0.06490 0.79320 0.89320 -0.00200
C 	C 	0.76210 0.50260 0.76430 -0.12900
H 	H 	0.69380 0.52470 0.78380 0.06600
H 	H 	0.75450 0.49540 0.71340 0.07400
C 	C 	0.83760 0.56380 0.76490 0.07100
C 	C 	0.83250 0.61320 0.82150 -0.08100
H 	H 	0.78190 0.60750 0.86020 0.05700
C 	C 	0.90130 0.66910 0.81970 -0.05800
H 	H 	0.89690 0.70100 0.85750 0.05100
C 	C 	0.97710 0.67960 0.76310 0.05000
C 	C 	0.98290 0.63100 0.70950 -0.05700
H 	H 	0.03470 0.63590 0.67150 0.04500
C 	C 	0.91380 0.57460 0.71020 -0.08500
H 	H 	0.91930 0.54290 0.67220 0.07100
C 	C 	0.05040 0.74430 0.75800 -0.11600
H 	H 	0.08580 0.74980 0.70910 0.06500
H 	H 	0.00900 0.79740 0.76260 0.06300
C 	C 	0.33220 0.31290 0.39140 0.00500
H 	H 	0.36930 0.35240 0.40420 0.00300
C 	C 	0.24300 0.29030 0.42530 -0.02000
H 	H 	0.20820 0.31030 0.46630 0.04600
C 	C 	0.28510 0.22070 0.33440 0.08900
H 	H 	0.28320 0.18420 0.30100 -0.00700
C 	C 	0.33090 0.77510 0.63630 -0.01000
H 	H 	0.35090 0.73210 0.60900 0.00500
C 	C 	0.24470 0.83180 0.62700 0.00100
H 	H 	0.19570 0.83530 0.59120 0.02700
C 	C 	0.33020 0.85510 0.71690 0.09600
H 	H 	0.34850 0.87950 0.75570 -0.01100
C 	C 	0.11980 0.18810 0.40860 -0.12100
H 	H 	0.10960 0.15800 0.36900 0.06500
H 	H 	0.05780 0.22840 0.41320 0.06400
C 	C 	0.13230 0.12770 0.48090 0.05100
C 	C 	0.22860 0.10060 0.51360 -0.06900
H 	H 	0.28860 0.11990 0.48990 0.06300
C 	C 	0.23790 0.04550 0.58080 -0.08000
H 	H 	0.30290 0.03000 0.60190 0.06700
C 	C 	0.15090 0.01430 0.61560 0.06100
C 	C 	0.05620 0.04590 0.58740 -0.07900
H 	H 	0.99600 0.02750 0.61170 0.05600
C 	C 	0.04640 0.10460 0.52370 -0.07200
H 	H 	0.97970 0.12920 0.50930 0.05000
C 	C 	0.16170 0.95150 0.68710 -0.11800
H 	H 	0.18090 0.97810 0.72670 0.06500
H 	H 	0.09480 0.93160 0.70170 0.06400
C 	C 	0.83680 0.55690 0.25410 0.01100
H 	H 	0.84300 0.52150 0.29950 0.01300
C 	C 	0.83730 0.53270 0.18640 -0.00800
H 	H 	0.84400 0.47840 0.17690 0.04400
C 	C 	0.81970 0.66690 0.17200 0.08900
H 	H 	0.81180 0.72230 0.14950 -0.02100
C 	C 	0.82340 0.60720 0.05380 -0.12500
H 	H 	0.82520 0.66410 0.02920 0.06700
H 	H 	0.75840 0.59000 0.04220 0.06800
C 	C 	0.91430 0.55240 0.02500 0.06200
C 	C 	0.01480 0.57620 0.01690 -0.06400
H 	H 	0.02510 0.62710 0.02850 0.05200
C 	C 	0.65700 0.84380 0.27610 0.00500
H 	H 	0.69020 0.85640 0.22960 0.00300
C 	C 	0.56730 0.88230 0.29830 -0.01600
H 	H 	0.52610 0.92620 0.27050 0.04200
C 	C 	0.62480 0.78670 0.38560 0.10800
H 	H 	0.63010 0.75150 0.43120 -0.02100
C 	C 	0.45510 0.87520 0.41590 -0.11700
H 	H 	0.43260 0.82820 0.44960 0.06300
H 	H 	0.39760 0.89940 0.38410 0.06600
N 	N 	0.94270 0.78320 0.29660 -0.27600
N 	N 	0.09320 0.82970 0.29530 -0.10600
N 	N 	0.51390 0.39650 0.24730 -0.27100
N 	N 	0.54290 0.52420 0.24370 -0.11400
N 	N 	0.79870 0.31400 0.89790 -0.26900
N 	N 	0.79720 0.42070 0.80920 -0.10300
N 	N 	0.20650 0.73010 0.91730 -0.26200
N 	N 	0.12970 0.72590 0.81430 -0.10400
N 	N 	0.35980 0.26760 0.33410 -0.27400
N 	N 	0.21240 0.23230 0.38880 -0.10600
N 	N 	0.38450 0.79240 0.69400 -0.27900
N 	N 	0.24030 0.88220 0.67700 -0.10800
N 	N 	0.82580 0.64180 0.24450 -0.27500
N 	N 	0.82610 0.60350 0.13540 -0.10700
N 	N 	0.69460 0.78200 0.33210 -0.28100
N 	N 	0.54480 0.84600 0.37030 -0.11100
O 	O 	0.84410 0.63530 0.42185 -0.47900
O 	O 	0.00100 0.59100 0.37611 -0.34400
O 	O 	0.80410 0.11870 0.98690 -0.46600
O 	O 	0.96100 0.15660 0.98250 -0.33900
O 	O 	0.60710 0.22440 0.00060 -0.46100
O 	O 	0.55200 0.35870 0.98660 -0.32200
O 	O 	0.45900 0.27390 0.15980 -0.48300
O 	O 	0.44760 0.14690 0.20710 -0.37200
C 	C 	0.90230 0.47490 0.00790 -0.06800
H 	H 	0.83610 0.45780 0.01350 0.05100
C 	C 	0.47870 0.93910 0.46070 0.05800
C 	C 	0.47680 0.02130 0.42730 -0.07500
H 	H 	0.46060 0.03630 0.37750 0.05700
C 	C 	0.50160 0.91810 0.53380 -0.06800
H 	H 	0.50280 0.86340 0.55760 0.04200
Zn	Zn	0.16774 0.29143 0.67405 1.19200
Zn	Zn	0.24334 0.76305 0.01226 1.21000
Zn	Zn	0.51340 0.72487 0.73608 1.19200
C 	C 	0.06580 0.41170 0.57340 0.35200
C 	C 	0.04760 0.46970 0.50030 -0.22300
H 	H 	0.04420 0.43650 0.46170 0.10200
H 	H 	0.10770 0.49960 0.48780 0.10700
C 	C 	0.09850 0.89750 0.01260 0.35600
C 	C 	0.05430 0.98990 0.00520 -0.21400
H 	H 	0.09130 0.01990 0.96350 0.10500
H 	H 	0.06980 0.00990 0.04970 0.10300
C 	C 	0.46540 0.71410 0.99990 0.37900
C 	C 	0.57390 0.73850 0.98400 -0.21700
H 	H 	0.59860 0.75070 0.02950 0.09200
H 	H 	0.62070 0.69150 0.97010 0.10600
C 	C 	0.58150 0.81330 0.92300 -0.24000
H 	H 	0.53350 0.86030 0.93600 0.11900
H 	H 	0.65210 0.82800 0.92030 0.10200
C 	C 	0.55590 0.79760 0.84640 0.39400
C 	C 	0.05230 0.15310 0.76070 0.01500
H 	H 	0.10490 0.13270 0.79420 0.00300
C 	C 	0.96090 0.12420 0.76190 -0.01700
H 	H 	0.93850 0.08060 0.79570 0.03400
C 	C 	0.96710 0.22480 0.67080 0.09200
H 	H 	0.94860 0.26390 0.62910 -0.00900
C 	C 	0.49340 0.55650 0.82450 -0.01700
H 	H 	0.50860 0.57820 0.86580 0.04100
C 	C 	0.47710 0.48030 0.82770 -0.00000
H 	H 	0.47880 0.43840 0.86900 0.04800
C 	C 	0.46790 0.55170 0.71450 0.11400
H 	H 	0.46220 0.56330 0.66320 -0.03100
C 	C 	0.79950 0.16140 0.68240 -0.13800
H 	H 	0.78300 0.10670 0.70470 0.07100
H 	H 	0.80110 0.16450 0.62880 0.06900
C 	C 	0.71490 0.22450 0.70420 0.07700
C 	C 	0.64560 0.20700 0.76480 -0.08800
H 	H 	0.65580 0.15540 0.79520 0.05900
C 	C 	0.56240 0.26440 0.78060 -0.05700
H 	H 	0.52020 0.25520 0.82390 0.04600
C 	C 	0.54340 0.33910 0.72750 0.04900
C 	C 	0.61520 0.35690 0.67580 -0.05900
H 	H 	0.60850 0.40980 0.64750 0.04900
C 	C 	0.69970 0.30100 0.66140 -0.08500
H 	H 	0.74720 0.31520 0.62230 0.06000
C 	C 	0.44170 0.39800 0.73150 -0.11100
H 	H 	0.39170 0.37050 0.76560 0.06100
H 	H 	0.41230 0.41100 0.68270 0.05400
C 	C 	0.11320 0.69680 0.14810 0.00700
H 	H 	0.06110 0.74250 0.14220 0.02300
C 	C 	0.11410 0.63070 0.20310 -0.00100
H 	H 	0.06380 0.62230 0.24170 0.04000
C 	C 	0.25280 0.61390 0.13030 0.09000
H 	H 	0.31610 0.59030 0.11030 -0.00100
C 	C 	0.73090 0.32010 0.12590 -0.00100
H 	H 	0.66470 0.34740 0.11300 0.02000
C 	C 	0.77580 0.32490 0.18790 -0.01500
H 	H 	0.74930 0.35580 0.22490 0.03100
C 	C 	0.87800 0.24270 0.12160 0.08300
H 	H 	0.93510 0.20680 0.10680 -0.00200
C 	C 	0.23790 0.49740 0.23570 -0.12900
H 	H 	0.30620 0.47530 0.21620 0.06600
H 	H 	0.24550 0.50460 0.28660 0.07400
C 	C 	0.16240 0.43620 0.23510 0.07100
C 	C 	0.16750 0.38680 0.17850 -0.08100
H 	H 	0.21810 0.39250 0.13980 0.05700
C 	C 	0.09870 0.33090 0.18030 -0.05800
H 	H 	0.10310 0.29900 0.14250 0.05100
C 	C 	0.02290 0.32040 0.23690 0.05000
C 	C 	0.01710 0.36900 0.29050 -0.05700
H 	H 	0.96530 0.36410 0.32850 0.04500
C 	C 	0.08620 0.42540 0.28980 -0.08500
H 	H 	0.08070 0.45710 0.32780 0.07100
C 	C 	0.94960 0.25570 0.24200 -0.11600
H 	H 	0.91420 0.25020 0.29090 0.06500
H 	H 	0.99100 0.20260 0.23740 0.06300
C 	C 	0.66780 0.68710 0.60860 0.00500
H 	H 	0.63070 0.64760 0.59580 0.00300
C 	C 	0.75700 0.70970 0.57470 -0.02000
H 	H 	0.79180 0.68970 0.53370 0.04600
C 	C 	0.71490 0.77930 0.66560 0.08900
H 	H 	0.71680 0.81580 0.69900 -0.00700
C 	C 	0.66910 0.22490 0.36370 -0.01000
H 	H 	0.64910 0.26790 0.39100 0.00500
C 	C 	0.75530 0.16820 0.37300 0.00100
H 	H 	0.80430 0.16470 0.40880 0.02700
C 	C 	0.66980 0.14490 0.28310 0.09600
H 	H 	0.65150 0.12050 0.24430 -0.01100
C 	C 	0.88020 0.81190 0.59140 -0.12100
H 	H 	0.89040 0.84200 0.63100 0.06500
H 	H 	0.94220 0.77160 0.58680 0.06400
C 	C 	0.86770 0.87230 0.51910 0.05100
C 	C 	0.77140 0.89940 0.48640 -0.06900
H 	H 	0.71140 0.88010 0.51010 0.06300
C 	C 	0.76210 0.95450 0.41920 -0.08000
H 	H 	0.69710 0.97000 0.39810 0.06700
C 	C 	0.84910 0.98570 0.38440 0.06100
C 	C 	0.94380 0.95410 0.41260 -0.07900
H 	H 	0.00400 0.97250 0.38830 0.05600
C 	C 	0.95360 0.89540 0.47630 -0.07200
H 	H 	0.02030 0.87080 0.49070 0.05000
C 	C 	0.83830 0.04850 0.31290 -0.11800
H 	H 	0.81910 0.02190 0.27330 0.06500
H 	H 	0.90520 0.06840 0.29830 0.06400
C 	C 	0.16320 0.44310 0.74590 0.01100
H 	H 	0.15700 0.47850 0.70050 0.01300
C 	C 	0.16270 0.46730 0.81360 -0.00800
H 	H 	0.15600 0.52160 0.82310 0.04400
C 	C 	0.18030 0.33310 0.82800 0.08900
H 	H 	0.18820 0.27770 0.85050 -0.02100
C 	C 	0.17660 0.39280 0.94620 -0.12500
H 	H 	0.17480 0.33590 0.97080 0.06700
H 	H 	0.24160 0.41000 0.95780 0.06800
C 	C 	0.08570 0.44760 0.97500 0.06200
C 	C 	0.98520 0.42380 0.98310 -0.06400
H 	H 	0.97490 0.37290 0.97150 0.05200
C 	C 	0.34300 0.15620 0.72390 0.00500
H 	H 	0.30980 0.14360 0.77040 0.00300
C 	C 	0.43270 0.11770 0.70170 -0.01600
H 	H 	0.47390 0.07380 0.72950 0.04200
C 	C 	0.37520 0.21330 0.61440 0.10800
H 	H 	0.36990 0.24850 0.56880 -0.02100
C 	C 	0.54490 0.12480 0.58410 -0.11700
H 	H 	0.56740 0.17180 0.55040 0.06300
H 	H 	0.60240 0.10060 0.61590 0.06600
N 	N 	0.05730 0.21680 0.70340 -0.27600
N 	N 	0.90680 0.17030 0.70470 -0.10600
N 	N 	0.48610 0.60350 0.75270 -0.27100
N 	N 	0.45710 0.47580 0.75630 -0.11400
N 	N 	0.20130 0.68600 0.10210 -0.26900
N 	N 	0.20280 0.57930 0.19080 -0.10300
N 	N 	0.79350 0.26990 0.08270 -0.26200
N 	N 	0.87030 0.27410 0.18570 -0.10400
N 	N 	0.64020 0.73240 0.66590 -0.27400
N 	N 	0.78760 0.76770 0.61120 -0.10600
N 	N 	0.61550 0.20760 0.30600 -0.27900
N 	N 	0.75970 0.11780 0.32300 -0.10800
N 	N 	0.17420 0.35820 0.75550 -0.27500
N 	N 	0.17390 0.39650 0.86460 -0.10700
N 	N 	0.30540 0.21800 0.66790 -0.28100
N 	N 	0.45520 0.15400 0.62970 -0.11100
O 	O 	0.15590 0.36470 0.57815 -0.47900
O 	O 	0.99900 0.40900 0.62389 -0.34400
O 	O 	0.19590 0.88130 0.01310 -0.46600
O 	O 	0.03900 0.84340 0.01750 -0.33900
O 	O 	0.39290 0.77560 0.99940 -0.46100
O 	O 	0.44800 0.64130 0.01340 -0.32200
O 	O 	0.54100 0.72610 0.84020 -0.48300
O 	O 	0.55240 0.85310 0.79290 -0.37200
C 	C 	0.09770 0.52510 0.99210 -0.06800
H 	H 	0.16390 0.54220 0.98650 0.05100
C 	C 	0.52130 0.06090 0.53930 0.05800
C 	C 	0.52320 0.97870 0.57270 -0.07500
H 	H 	0.53940 0.96370 0.62250 0.05700
C 	C 	0.49840 0.08190 0.46620 -0.06800
H 	H 	0.49720 0.13660 0.44240 0.04200
