data_crystal

_cell_length_a 7.01480
_cell_length_b 7.01480
_cell_length_c 7.56550
_cell_angle_alpha 90.00000
_cell_angle_beta  90.00000
_cell_angle_gamma 90.00000

_symmetry_space_group_name_	'P 1'
_symmetry_space_group_name_H-M	'P 1'

loop_
_symmetry_equiv_pos_as_xyz
  x,y,z

loop_
_atom_site_label
_atom_site_type_symbol
_atom_site_fract_x
_atom_site_fract_y
_atom_site_fract_z
_atom_site_charge
N 	N 	0.50000 0.20910 0.50000 -0.24400
N 	N 	0.50000 0.79090 0.50000 -0.24400
N 	N 	0.79090 0.50000 0.50000 -0.24300
N 	N 	0.20910 0.50000 0.50000 -0.24300
C 	C 	0.50000 0.09240 0.36118 0.00600
H 	H 	0.50000 0.16000 0.26000 -0.01200
C 	C 	0.50000 0.90760 0.36118 0.00600
H 	H 	0.50000 0.84000 0.26000 -0.01200
C 	C 	0.90760 0.50000 0.36118 0.00600
H 	H 	0.84000 0.50000 0.26000 -0.01200
C 	C 	0.09240 0.50000 0.36118 0.00600
H 	H 	0.16000 0.50000 0.26000 -0.01200
C 	C 	0.50000 0.09240 0.63882 0.00600
H 	H 	0.50000 0.16000 0.74000 -0.01200
C 	C 	0.50000 0.90760 0.63882 0.00600
H 	H 	0.50000 0.84000 0.74000 -0.01200
C 	C 	0.09240 0.50000 0.63882 0.00600
H 	H 	0.16000 0.50000 0.74000 -0.01200
C 	C 	0.90760 0.50000 0.63882 0.00600
H 	H 	0.84000 0.50000 0.74000 -0.01200
Ni	Ni	0.50000 0.50000 0.50000 1.02200
