data_crystal

_cell_length_a 10.14140
_cell_length_b 17.39830
_cell_length_c 11.36460
_cell_angle_alpha 90.00000
_cell_angle_beta  110.08500
_cell_angle_gamma 90.00000

_symmetry_space_group_name_	'P 1'
_symmetry_space_group_name_H-M	'P 1'

loop_
_symmetry_equiv_pos_as_xyz
  x,y,z

loop_
_atom_site_label
_atom_site_type_symbol
_atom_site_fract_x
_atom_site_fract_y
_atom_site_fract_z
_atom_site_charge
Dy	Dy	0.50947 0.50704 0.68128 1.95500
O 	O 	0.72830 0.48579 0.65570 -0.45600
O 	O 	0.70280 0.53865 0.87940 -0.24300
O 	O 	0.70870 0.45292 0.45870 -0.46800
O 	O 	0.35670 0.41743 0.72510 -0.29500
O 	O 	0.41190 0.56798 0.81690 -0.28900
N 	N 	0.73100 0.46960 0.90790 0.06100
O 	O 	0.56040 0.86074 0.15740 -0.43000
O 	O 	0.52610 0.91584 0.97480 -0.53400
O 	O 	0.64640 0.41826 0.84410 -0.26800
N 	N 	0.44680 0.63686 0.86960 -0.05000
N 	N 	0.21800 0.42520 0.69020 -0.04800
C 	C 	0.13530 0.39940 0.57730 0.02000
H 	H 	0.17510 0.37450 0.52520 0.04100
C 	C 	0.53730 0.85670 0.04280 0.39200
C 	C 	0.55110 0.71210 0.05060 -0.05100
H 	H 	0.59860 0.71520 0.13650 0.08000
C 	C 	0.02000 0.46840 0.73510 -0.02700
H 	H 	0.98220 0.49020 0.79120 0.08400
C 	C 	0.43760 0.77210 0.85260 -0.02700
H 	H 	0.41000 0.81600 0.80350 0.05300
O 	O 	0.83700 0.45180 0.99580 -0.10400
C 	C 	0.99250 0.40960 0.53870 -0.02500
H 	H 	0.93610 0.39250 0.45990 0.06100
C 	C 	0.77640 0.46240 0.57410 0.43400
C 	C 	0.93180 0.44550 0.61710 -0.07700
C 	C 	0.40510 0.70100 0.79860 0.03100
H 	H 	0.35440 0.69670 0.71350 0.04600
C 	C 	0.51140 0.77910 0.97960 -0.05900
C 	C 	0.16180 0.45920 0.76880 0.02000
H 	H 	0.22030 0.47640 0.84660 0.07000
C 	C 	0.51970 0.64190 0.99310 0.05700
H 	H 	0.54910 0.59730 0.03990 0.04700
Dy	Dy	0.49053 0.00704 0.81872 1.94500
O 	O 	0.27170 0.98579 0.84430 -0.45400
O 	O 	0.29720 0.03865 0.62060 -0.24400
O 	O 	0.29130 0.95292 0.04130 -0.47300
O 	O 	0.64330 0.91743 0.77490 -0.29300
O 	O 	0.58810 0.06798 0.68310 -0.28900
N 	N 	0.26900 0.96960 0.59210 0.06300
O 	O 	0.43960 0.36074 0.34260 -0.43400
O 	O 	0.47390 0.41584 0.52520 -0.54500
O 	O 	0.35360 0.91826 0.65590 -0.26700
N 	N 	0.55320 0.13686 0.63040 -0.04600
N 	N 	0.78200 0.92520 0.80980 -0.04700
C 	C 	0.86470 0.89940 0.92270 0.01600
H 	H 	0.82490 0.87450 0.97480 0.04400
C 	C 	0.46270 0.35670 0.45720 0.40900
C 	C 	0.44890 0.21210 0.44940 -0.02800
H 	H 	0.40140 0.21520 0.36350 0.07300
C 	C 	0.98000 0.96840 0.76490 -0.02300
H 	H 	0.01780 0.99020 0.70880 0.08300
C 	C 	0.56240 0.27210 0.64740 -0.01400
H 	H 	0.59000 0.31600 0.69650 0.04900
O 	O 	0.16300 0.95180 0.50420 -0.10300
C 	C 	0.00750 0.90960 0.96130 -0.01500
H 	H 	0.06390 0.89250 0.04010 0.05500
C 	C 	0.22360 0.96240 0.92590 0.44100
C 	C 	0.06820 0.94550 0.88290 -0.08200
C 	C 	0.59490 0.20100 0.70140 0.02300
H 	H 	0.64560 0.19670 0.78650 0.04800
C 	C 	0.48860 0.27910 0.52040 -0.07900
C 	C 	0.83820 0.95920 0.73120 0.01900
H 	H 	0.77970 0.97640 0.65340 0.07100
C 	C 	0.48030 0.14190 0.50690 0.04100
H 	H 	0.45090 0.09730 0.46010 0.05400
Dy	Dy	0.49053 0.49296 0.31872 1.95600
O 	O 	0.27170 0.51421 0.34430 -0.45500
O 	O 	0.29720 0.46135 0.12060 -0.24300
O 	O 	0.29130 0.54708 0.54130 -0.46800
O 	O 	0.64330 0.58257 0.27490 -0.29500
O 	O 	0.58810 0.43202 0.18310 -0.28900
N 	N 	0.26900 0.53040 0.09210 0.06100
O 	O 	0.43960 0.13926 0.84260 -0.43000
O 	O 	0.47390 0.08416 0.02520 -0.53400
O 	O 	0.35360 0.58174 0.15590 -0.26800
N 	N 	0.55320 0.36314 0.13040 -0.05000
N 	N 	0.78200 0.57480 0.30980 -0.04800
C 	C 	0.86470 0.60060 0.42270 0.02000
H 	H 	0.82490 0.62550 0.47480 0.04100
C 	C 	0.46270 0.14330 0.95720 0.39200
C 	C 	0.44890 0.28790 0.94940 -0.05100
H 	H 	0.40140 0.28480 0.86350 0.08000
C 	C 	0.98000 0.53160 0.26490 -0.02700
H 	H 	0.01780 0.50980 0.20880 0.08400
C 	C 	0.56240 0.22790 0.14740 -0.02700
H 	H 	0.59000 0.18400 0.19650 0.05300
O 	O 	0.16300 0.54820 0.00420 -0.10400
C 	C 	0.00750 0.59040 0.46130 -0.02500
H 	H 	0.06390 0.60750 0.54010 0.06100
C 	C 	0.22360 0.53760 0.42590 0.43400
C 	C 	0.06820 0.55450 0.38290 -0.07700
C 	C 	0.59490 0.29900 0.20140 0.03100
H 	H 	0.64560 0.30330 0.28650 0.04600
C 	C 	0.48860 0.22090 0.02040 -0.05900
C 	C 	0.83820 0.54080 0.23120 0.02000
H 	H 	0.77970 0.52360 0.15340 0.07000
C 	C 	0.48030 0.35810 0.00690 0.05700
H 	H 	0.45090 0.40270 0.96010 0.04700
Dy	Dy	0.50947 0.99296 0.18128 1.94500
O 	O 	0.72830 0.01421 0.15570 -0.45400
O 	O 	0.70280 0.96135 0.37940 -0.24400
O 	O 	0.70870 0.04708 0.95870 -0.47300
O 	O 	0.35670 0.08257 0.22510 -0.29300
O 	O 	0.41190 0.93202 0.31690 -0.28900
N 	N 	0.73100 0.03040 0.40790 0.06300
O 	O 	0.56040 0.63926 0.65740 -0.43400
O 	O 	0.52610 0.58416 0.47480 -0.54500
O 	O 	0.64640 0.08174 0.34410 -0.26700
N 	N 	0.44680 0.86314 0.36960 -0.04600
N 	N 	0.21800 0.07480 0.19020 -0.04700
C 	C 	0.13530 0.10060 0.07730 0.01600
H 	H 	0.17510 0.12550 0.02520 0.04400
C 	C 	0.53730 0.64330 0.54280 0.40900
C 	C 	0.55110 0.78790 0.55060 -0.02800
H 	H 	0.59860 0.78480 0.63650 0.07300
C 	C 	0.02000 0.03160 0.23510 -0.02300
H 	H 	0.98220 0.00980 0.29120 0.08300
C 	C 	0.43760 0.72790 0.35260 -0.01400
H 	H 	0.41000 0.68400 0.30350 0.04900
O 	O 	0.83700 0.04820 0.49580 -0.10300
C 	C 	0.99250 0.09040 0.03870 -0.01500
H 	H 	0.93610 0.10750 0.95990 0.05500
C 	C 	0.77640 0.03760 0.07410 0.44100
C 	C 	0.93180 0.05450 0.11710 -0.08200
C 	C 	0.40510 0.79900 0.29860 0.02300
H 	H 	0.35440 0.80330 0.21350 0.04800
C 	C 	0.51140 0.72090 0.47960 -0.07900
C 	C 	0.16180 0.04080 0.26880 0.01900
H 	H 	0.22030 0.02360 0.34660 0.07100
C 	C 	0.51970 0.85810 0.49310 0.04100
H 	H 	0.54910 0.90270 0.53990 0.05400
