data_crystal

_cell_length_a 10.12980
_cell_length_b 17.09340
_cell_length_c 11.08460
_cell_angle_alpha 90.00000
_cell_angle_beta  108.69600
_cell_angle_gamma 90.00000

_symmetry_space_group_name_	'P 1'
_symmetry_space_group_name_H-M	'P 1'

loop_
_symmetry_equiv_pos_as_xyz
  x,y,z

loop_
_atom_site_label
_atom_site_type_symbol
_atom_site_fract_x
_atom_site_fract_y
_atom_site_fract_z
_atom_site_charge
Dy	Dy	0.00893 0.00405 0.68318 1.94200
O 	O 	0.22620 0.98444 0.65400 -0.45300
O 	O 	0.84950 0.91264 0.71830 -0.29700
O 	O 	0.20420 0.02421 0.89090 -0.24200
O 	O 	0.32250 0.92667 0.99930 -0.10400
N 	N 	0.22480 0.95184 0.91150 0.06600
O 	O 	0.13650 0.90592 0.83650 -0.26300
O 	O 	0.06580 0.13986 0.67100 -0.42100
O 	O 	0.20930 0.95172 0.45250 -0.45700
O 	O 	0.02480 0.08484 0.48250 -0.55200
N 	N 	0.71200 0.92134 0.68530 -0.04600
C 	C 	0.42790 0.94164 0.61320 -0.08000
C 	C 	0.48940 0.90292 0.53480 -0.02200
H 	H 	0.43410 0.88370 0.45640 0.06000
C 	C 	0.63110 0.89272 0.57200 0.01800
H 	H 	0.67150 0.86620 0.51940 0.04300
N 	N 	0.94490 0.36849 0.37940 -0.04400
C 	C 	0.27460 0.95989 0.56970 0.43200
O 	O 	0.91290 0.43929 0.32720 -0.29200
C 	C 	0.65570 0.95746 0.76470 0.01400
H 	H 	0.71290 0.97590 0.84290 0.07100
C 	C 	0.88810 0.30413 0.31240 0.02600
H 	H 	0.82730 0.30920 0.22980 0.04900
C 	C 	0.51420 0.96714 0.73080 -0.01800
H 	H 	0.47570 0.99100 0.78710 0.07800
C 	C 	0.91960 0.23151 0.36530 -0.00700
H 	H 	0.88190 0.18730 0.31790 0.05100
C 	C 	0.03630 0.14507 0.55200 0.39500
C 	C 	0.06090 0.29111 0.55750 -0.02300
H 	H 	0.11760 0.28760 0.64190 0.07300
C 	C 	0.03010 0.36298 0.50060 0.03900
H 	H 	0.06800 0.40800 0.54570 0.05300
C 	C 	0.00780 0.22359 0.48990 -0.08300
Dy	Dy	0.99107 0.50405 0.81682 1.93700
O 	O 	0.77380 0.48444 0.84600 -0.45600
O 	O 	0.15050 0.41264 0.78170 -0.29200
O 	O 	0.79580 0.52421 0.60910 -0.23600
O 	O 	0.67750 0.42667 0.50070 -0.10600
N 	N 	0.77520 0.45184 0.58850 0.06300
O 	O 	0.86350 0.40592 0.66350 -0.26900
O 	O 	0.93420 0.63986 0.82900 -0.41400
O 	O 	0.79070 0.45172 0.04750 -0.45300
O 	O 	0.97520 0.58484 0.01750 -0.53300
N 	N 	0.28800 0.42134 0.81470 -0.04700
C 	C 	0.57210 0.44164 0.88680 -0.07600
C 	C 	0.51060 0.40292 0.96520 -0.03000
H 	H 	0.56590 0.38370 0.04360 0.06300
C 	C 	0.36890 0.39272 0.92800 0.02200
H 	H 	0.32850 0.36620 0.98060 0.04200
N 	N 	0.05510 0.86849 0.12060 -0.05000
C 	C 	0.72540 0.45989 0.93030 0.42300
O 	O 	0.08710 0.93929 0.17280 -0.29200
C 	C 	0.34430 0.45746 0.73530 0.01600
H 	H 	0.28710 0.47590 0.65710 0.07200
C 	C 	0.11190 0.80413 0.18760 0.04300
H 	H 	0.17270 0.80920 0.27020 0.04200
C 	C 	0.48580 0.46714 0.76920 -0.02100
H 	H 	0.52430 0.49100 0.71290 0.07800
C 	C 	0.08040 0.73151 0.13470 -0.04400
H 	H 	0.11810 0.68730 0.18210 0.06100
C 	C 	0.96370 0.64507 0.94800 0.36600
C 	C 	0.93910 0.79111 0.94250 -0.05600
H 	H 	0.88240 0.78760 0.85810 0.08200
C 	C 	0.96990 0.86298 0.99940 0.04900
H 	H 	0.93200 0.90800 0.95430 0.04600
C 	C 	0.99220 0.72359 0.01010 -0.04100
Dy	Dy	0.99107 0.99595 0.31682 1.94300
O 	O 	0.77380 0.01556 0.34600 -0.45200
O 	O 	0.15050 0.08736 0.28170 -0.29600
O 	O 	0.79580 0.97579 0.10910 -0.24100
O 	O 	0.67750 0.07333 0.00070 -0.10300
N 	N 	0.77520 0.04816 0.08850 0.06700
O 	O 	0.86350 0.09408 0.16350 -0.26200
O 	O 	0.93420 0.86014 0.32900 -0.42000
O 	O 	0.79070 0.04828 0.54750 -0.45600
O 	O 	0.97520 0.91516 0.51750 -0.55100
N 	N 	0.28800 0.07866 0.31470 -0.04600
C 	C 	0.57210 0.05836 0.38680 -0.08000
C 	C 	0.51060 0.09708 0.46520 -0.02200
H 	H 	0.56590 0.11630 0.54360 0.06000
C 	C 	0.36890 0.10728 0.42800 0.01800
H 	H 	0.32850 0.13380 0.48060 0.04300
N 	N 	0.05510 0.63151 0.62060 -0.04400
C 	C 	0.72540 0.04011 0.43030 0.43200
O 	O 	0.08710 0.56071 0.67280 -0.29200
C 	C 	0.34430 0.04254 0.23530 0.01400
H 	H 	0.28710 0.02410 0.15710 0.07100
C 	C 	0.11190 0.69587 0.68760 0.02600
H 	H 	0.17270 0.69080 0.77020 0.04900
C 	C 	0.48580 0.03286 0.26920 -0.01800
H 	H 	0.52430 0.00900 0.21290 0.07800
C 	C 	0.08040 0.76849 0.63470 -0.00700
H 	H 	0.11810 0.81270 0.68210 0.05100
C 	C 	0.96370 0.85493 0.44800 0.39500
C 	C 	0.93910 0.70889 0.44250 -0.02300
H 	H 	0.88240 0.71240 0.35810 0.07300
C 	C 	0.96990 0.63702 0.49940 0.03900
H 	H 	0.93200 0.59200 0.45430 0.05300
C 	C 	0.99220 0.77641 0.51010 -0.08300
Dy	Dy	0.00893 0.49595 0.18318 1.93700
O 	O 	0.22620 0.51556 0.15400 -0.45600
O 	O 	0.84950 0.58736 0.21830 -0.29200
O 	O 	0.20420 0.47579 0.39090 -0.23600
O 	O 	0.32250 0.57333 0.49930 -0.10600
N 	N 	0.22480 0.54816 0.41150 0.06300
O 	O 	0.13650 0.59408 0.33650 -0.26900
O 	O 	0.06580 0.36014 0.17100 -0.41400
O 	O 	0.20930 0.54828 0.95250 -0.45300
O 	O 	0.02480 0.41516 0.98250 -0.53300
N 	N 	0.71200 0.57866 0.18530 -0.04700
C 	C 	0.42790 0.55836 0.11320 -0.07600
C 	C 	0.48940 0.59708 0.03480 -0.03000
H 	H 	0.43410 0.61630 0.95640 0.06300
C 	C 	0.63110 0.60728 0.07200 0.02200
H 	H 	0.67150 0.63380 0.01940 0.04200
N 	N 	0.94490 0.13151 0.87940 -0.05000
C 	C 	0.27460 0.54011 0.06970 0.42300
O 	O 	0.91290 0.06071 0.82720 -0.29200
C 	C 	0.65570 0.54254 0.26470 0.01600
H 	H 	0.71290 0.52410 0.34290 0.07200
C 	C 	0.88810 0.19587 0.81240 0.04300
H 	H 	0.82730 0.19080 0.72980 0.04200
C 	C 	0.51420 0.53286 0.23080 -0.02100
H 	H 	0.47570 0.50900 0.28710 0.07800
C 	C 	0.91960 0.26849 0.86530 -0.04400
H 	H 	0.88190 0.31270 0.81790 0.06100
C 	C 	0.03630 0.35493 0.05200 0.36600
C 	C 	0.06090 0.20889 0.05750 -0.05600
H 	H 	0.11760 0.21240 0.14190 0.08200
C 	C 	0.03010 0.13702 0.00060 0.04900
H 	H 	0.06800 0.09200 0.04570 0.04600
C 	C 	0.00780 0.27641 0.98990 -0.04100
