data_crystal

_cell_length_a 10.13530
_cell_length_b 17.35010
_cell_length_c 11.35940
_cell_angle_alpha 90.00000
_cell_angle_beta  109.79800
_cell_angle_gamma 90.00000

_symmetry_space_group_name_	'P 1'
_symmetry_space_group_name_H-M	'P 1'

loop_
_symmetry_equiv_pos_as_xyz
  x,y,z

loop_
_atom_site_label
_atom_site_type_symbol
_atom_site_fract_x
_atom_site_fract_y
_atom_site_fract_z
_atom_site_charge
Dy	Dy	0.00801 0.49312 0.68018 1.97200
O 	O 	0.22760 0.51499 0.65520 -0.46000
O 	O 	0.85590 0.58307 0.72460 -0.30000
O 	O 	0.20920 0.54737 0.45850 -0.47300
O 	O 	0.91100 0.43243 0.81680 -0.29000
N 	N 	0.23080 0.53040 0.90830 0.06200
O 	O 	0.05990 0.13947 0.15830 -0.41900
O 	O 	0.14500 0.58142 0.84350 -0.26700
O 	O 	0.02700 0.08401 0.97630 -0.52800
N 	N 	0.71700 0.57514 0.69000 -0.04700
O 	O 	0.33460 0.54783 0.99550 -0.10500
N 	N 	0.94590 0.36340 0.86940 -0.06200
C 	C 	0.63490 0.60160 0.57600 0.01500
H 	H 	0.67480 0.62660 0.52390 0.04200
C 	C 	0.03740 0.14350 0.04240 0.36600
C 	C 	0.51830 0.53190 0.73470 -0.01800
H 	H 	0.48010 0.50970 0.79040 0.08000
C 	C 	0.49250 0.59090 0.53860 -0.01800
H 	H 	0.43640 0.60790 0.45990 0.05900
C 	C 	0.93680 0.22820 0.85280 -0.05400
H 	H 	0.90980 0.18420 0.80360 0.06300
C 	C 	0.43030 0.55510 0.61640 -0.08600
C 	C 	0.27640 0.53790 0.57410 0.44100
O 	O 	0.20110 0.46079 0.87690 -0.24300
C 	C 	0.66070 0.54180 0.76900 0.01600
H 	H 	0.71870 0.52530 0.84730 0.07100
C 	C 	0.01020 0.22120 0.98010 -0.02500
C 	C 	0.01930 0.35880 0.99280 0.09900
H 	H 	0.04880 0.40360 0.03910 0.02800
C 	C 	0.05090 0.28820 0.05050 -0.09600
H 	H 	0.09910 0.28520 0.13610 0.09400
C 	C 	0.90420 0.29910 0.79980 0.04800
H 	H 	0.85280 0.30340 0.71500 0.04000
Dy	Dy	0.99199 0.99312 0.81982 1.92500
O 	O 	0.77240 0.01499 0.84480 -0.45000
O 	O 	0.14410 0.08307 0.77540 -0.29300
O 	O 	0.79080 0.04737 0.04150 -0.46400
O 	O 	0.08900 0.93243 0.68320 -0.28200
N 	N 	0.76920 0.03040 0.59170 0.06500
O 	O 	0.94010 0.63947 0.34170 -0.43000
O 	O 	0.85500 0.08142 0.65650 -0.26300
O 	O 	0.97300 0.58401 0.52370 -0.55300
N 	N 	0.28300 0.07514 0.81000 -0.04600
O 	O 	0.66540 0.04783 0.50450 -0.10400
N 	N 	0.05410 0.86340 0.63060 -0.04100
C 	C 	0.36510 0.10160 0.92400 0.01300
H 	H 	0.32520 0.12660 0.97610 0.04500
C 	C 	0.96260 0.64350 0.45760 0.41100
C 	C 	0.48170 0.03190 0.76530 -0.01700
H 	H 	0.51990 0.00970 0.70960 0.08100
C 	C 	0.50750 0.09090 0.96140 -0.01300
H 	H 	0.56360 0.10790 0.04010 0.05400
C 	C 	0.06320 0.72820 0.64720 -0.00400
H 	H 	0.09020 0.68420 0.69640 0.04600
C 	C 	0.56970 0.05510 0.88360 -0.08600
C 	C 	0.72360 0.03790 0.92590 0.43700
O 	O 	0.79890 0.96079 0.62310 -0.24500
C 	C 	0.33930 0.04180 0.73100 0.01600
H 	H 	0.28130 0.02530 0.65270 0.07100
C 	C 	0.98980 0.72120 0.51990 -0.08900
C 	C 	0.98070 0.85880 0.50720 0.03000
H 	H 	0.95120 0.90360 0.46090 0.05700
C 	C 	0.94910 0.78820 0.44950 -0.01900
H 	H 	0.90090 0.78520 0.36390 0.07000
C 	C 	0.09580 0.79910 0.70020 0.02000
H 	H 	0.14720 0.80340 0.78500 0.05100
Dy	Dy	0.99199 0.50688 0.31982 1.97300
O 	O 	0.77240 0.48501 0.34480 -0.45900
O 	O 	0.14410 0.41693 0.27540 -0.29900
O 	O 	0.79080 0.45263 0.54150 -0.47200
O 	O 	0.08900 0.56757 0.18320 -0.29000
N 	N 	0.76920 0.46960 0.09170 0.06200
O 	O 	0.94010 0.86053 0.84170 -0.41900
O 	O 	0.85500 0.41858 0.15650 -0.26700
O 	O 	0.97300 0.91599 0.02370 -0.52800
N 	N 	0.28300 0.42486 0.31000 -0.04700
O 	O 	0.66540 0.45217 0.00450 -0.10500
N 	N 	0.05410 0.63660 0.13060 -0.06200
C 	C 	0.36510 0.39840 0.42400 0.01500
H 	H 	0.32520 0.37340 0.47610 0.04200
C 	C 	0.96260 0.85650 0.95760 0.36600
C 	C 	0.48170 0.46810 0.26530 -0.01800
H 	H 	0.51990 0.49030 0.20960 0.08000
C 	C 	0.50750 0.40910 0.46140 -0.01800
H 	H 	0.56360 0.39210 0.54010 0.05900
C 	C 	0.06320 0.77180 0.14720 -0.05400
H 	H 	0.09020 0.81580 0.19640 0.06300
C 	C 	0.56970 0.44490 0.38360 -0.08600
C 	C 	0.72360 0.46210 0.42590 0.44100
O 	O 	0.79890 0.53921 0.12310 -0.24300
C 	C 	0.33930 0.45820 0.23100 0.01600
H 	H 	0.28130 0.47470 0.15270 0.07100
C 	C 	0.98980 0.77880 0.01990 -0.02500
C 	C 	0.98070 0.64120 0.00720 0.09900
H 	H 	0.95120 0.59640 0.96090 0.02800
C 	C 	0.94910 0.71180 0.94950 -0.09600
H 	H 	0.90090 0.71480 0.86390 0.09400
C 	C 	0.09580 0.70090 0.20020 0.04800
H 	H 	0.14720 0.69660 0.28500 0.04000
Dy	Dy	0.00801 0.00688 0.18018 1.92500
O 	O 	0.22760 0.98501 0.15520 -0.45000
O 	O 	0.85590 0.91693 0.22460 -0.29300
O 	O 	0.20920 0.95263 0.95850 -0.46400
O 	O 	0.91100 0.06757 0.31680 -0.28200
N 	N 	0.23080 0.96960 0.40830 0.06500
O 	O 	0.05990 0.36053 0.65830 -0.43000
O 	O 	0.14500 0.91858 0.34350 -0.26300
O 	O 	0.02700 0.41599 0.47630 -0.55300
N 	N 	0.71700 0.92486 0.19000 -0.04600
O 	O 	0.33460 0.95217 0.49550 -0.10400
N 	N 	0.94590 0.13660 0.36940 -0.04100
C 	C 	0.63490 0.89840 0.07600 0.01300
H 	H 	0.67480 0.87340 0.02390 0.04500
C 	C 	0.03740 0.35650 0.54240 0.41100
C 	C 	0.51830 0.96810 0.23470 -0.01700
H 	H 	0.48010 0.99030 0.29040 0.08100
C 	C 	0.49250 0.90910 0.03860 -0.01300
H 	H 	0.43640 0.89210 0.95990 0.05400
C 	C 	0.93680 0.27180 0.35280 -0.00400
H 	H 	0.90980 0.31580 0.30360 0.04600
C 	C 	0.43030 0.94490 0.11640 -0.08600
C 	C 	0.27640 0.96210 0.07410 0.43700
O 	O 	0.20110 0.03921 0.37690 -0.24500
C 	C 	0.66070 0.95820 0.26900 0.01600
H 	H 	0.71870 0.97470 0.34730 0.07100
C 	C 	0.01020 0.27880 0.48010 -0.08900
C 	C 	0.01930 0.14120 0.49280 0.03000
H 	H 	0.04880 0.09640 0.53910 0.05700
C 	C 	0.05090 0.21180 0.55050 -0.01900
H 	H 	0.09910 0.21480 0.63610 0.07000
C 	C 	0.90420 0.20090 0.29980 0.02000
H 	H 	0.85280 0.19660 0.21500 0.05100
