data_crystal

_cell_length_a 11.26550
_cell_length_b 11.99620
_cell_length_c 12.50190
_cell_angle_alpha 90.00000
_cell_angle_beta  94.29400
_cell_angle_gamma 90.00000

_symmetry_space_group_name_	'P 1'
_symmetry_space_group_name_H-M	'P 1'

loop_
_symmetry_equiv_pos_as_xyz
  x,y,z

loop_
_atom_site_label
_atom_site_type_symbol
_atom_site_fract_x
_atom_site_fract_y
_atom_site_fract_z
_atom_site_charge
Zn	Zn	0.15934 0.52578 0.48153 1.23800
S 	S 	0.76197 0.53372 0.28456 0.51600
C 	C 	0.42507 0.63356 0.31654 -0.08000
C 	C 	0.41209 0.72208 0.24532 0.05300
H 	H 	0.34010 0.76020 0.23740 0.05900
C 	C 	0.50562 0.75449 0.18561 -0.10700
C 	C 	0.61277 0.69696 0.19678 0.06400
H 	H 	0.67540 0.71760 0.15660 0.05500
C 	C 	0.62587 0.60879 0.26812 -0.08800
C 	C 	0.53317 0.57749 0.32880 0.04300
H 	H 	0.54340 0.51910 0.37760 0.05900
C 	C 	0.32360 0.59840 0.37899 0.32000
C 	C 	0.49201 0.85135 0.11010 0.40900
O 	O 	0.22645 0.64719 0.36615 -0.33900
O 	O 	0.33714 0.51875 0.44392 -0.37600
O 	O 	0.56036 0.85563 0.03567 -0.46100
O 	O 	0.41181 0.92124 0.12643 -0.44400
O 	O 	0.81864 0.57261 0.38830 -0.41300
O 	O 	0.73054 0.41834 0.28820 -0.27300
O 	O 	0.83052 0.56510 0.19739 -0.22600
Zn	Zn	0.34066 0.02578 0.01847 1.23600
S 	S 	0.73803 0.03372 0.21544 0.51100
C 	C 	0.07493 0.13356 0.18346 -0.08300
C 	C 	0.08791 0.22208 0.25468 0.05300
H 	H 	0.15990 0.26020 0.26260 0.05900
C 	C 	0.99438 0.25449 0.31439 -0.10600
C 	C 	0.88723 0.19696 0.30322 0.06400
H 	H 	0.82460 0.21760 0.34340 0.05500
C 	C 	0.87413 0.10879 0.23188 -0.08900
C 	C 	0.96683 0.07749 0.17120 0.04500
H 	H 	0.95660 0.01910 0.12240 0.05800
C 	C 	0.17640 0.09840 0.12101 0.32100
C 	C 	0.00799 0.35135 0.38990 0.40800
O 	O 	0.27355 0.14719 0.13385 -0.34200
O 	O 	0.16286 0.01875 0.05608 -0.38000
O 	O 	0.93964 0.35563 0.46433 -0.46500
O 	O 	0.08819 0.42124 0.37357 -0.44800
O 	O 	0.68136 0.07261 0.11170 -0.41500
O 	O 	0.76946 0.91834 0.21180 -0.26700
O 	O 	0.66948 0.06510 0.30261 -0.22600
Zn	Zn	0.84066 0.47422 0.51847 1.23900
S 	S 	0.23803 0.46628 0.71544 0.51700
C 	C 	0.57493 0.36644 0.68346 -0.07900
C 	C 	0.58791 0.27792 0.75468 0.05400
H 	H 	0.65990 0.23980 0.76260 0.05900
C 	C 	0.49438 0.24551 0.81439 -0.10700
C 	C 	0.38723 0.30304 0.80322 0.06400
H 	H 	0.32460 0.28240 0.84340 0.05500
C 	C 	0.37413 0.39121 0.73188 -0.08800
C 	C 	0.46683 0.42251 0.67120 0.04300
H 	H 	0.45660 0.48090 0.62240 0.05900
C 	C 	0.67640 0.40160 0.62101 0.32000
C 	C 	0.50799 0.14865 0.88990 0.40900
O 	O 	0.77355 0.35281 0.63385 -0.33900
O 	O 	0.66286 0.48125 0.55608 -0.37600
O 	O 	0.43964 0.14437 0.96433 -0.46100
O 	O 	0.58819 0.07876 0.87357 -0.44400
O 	O 	0.18136 0.42739 0.61170 -0.41300
O 	O 	0.26946 0.58166 0.71180 -0.27300
O 	O 	0.16948 0.43490 0.80261 -0.22600
Zn	Zn	0.65934 0.97422 0.98153 1.23600
S 	S 	0.26197 0.96628 0.78456 0.51100
C 	C 	0.92507 0.86644 0.81654 -0.08300
C 	C 	0.91209 0.77792 0.74532 0.05300
H 	H 	0.84010 0.73980 0.73740 0.05900
C 	C 	0.00562 0.74551 0.68561 -0.10600
C 	C 	0.11277 0.80304 0.69678 0.06400
H 	H 	0.17540 0.78240 0.65660 0.05500
C 	C 	0.12587 0.89121 0.76812 -0.08900
C 	C 	0.03317 0.92251 0.82880 0.04500
H 	H 	0.04340 0.98090 0.87760 0.05800
C 	C 	0.82360 0.90160 0.87899 0.32100
C 	C 	0.99201 0.64865 0.61010 0.40800
O 	O 	0.72645 0.85281 0.86615 -0.34200
O 	O 	0.83714 0.98125 0.94392 -0.38000
O 	O 	0.06036 0.64437 0.53567 -0.46500
O 	O 	0.91181 0.57876 0.62643 -0.44800
O 	O 	0.31864 0.92739 0.88830 -0.41500
O 	O 	0.23054 0.08166 0.78820 -0.26700
O 	O 	0.33052 0.93490 0.69739 -0.22600
