data_crystal

_cell_length_a 11.35040
_cell_length_b 12.19230
_cell_length_c 16.18270
_cell_angle_alpha 90.00000
_cell_angle_beta  130.49100
_cell_angle_gamma 90.00000

_symmetry_space_group_name_	'P 1'
_symmetry_space_group_name_H-M	'P 1'

loop_
_symmetry_equiv_pos_as_xyz
  x,y,z

loop_
_atom_site_label
_atom_site_type_symbol
_atom_site_fract_x
_atom_site_fract_y
_atom_site_fract_z
_atom_site_charge
C 	C 	0.14270 0.88482 0.76806 -0.09600
C 	C 	0.08520 0.79696 0.69817 0.07400
H 	H 	0.98260 0.77540 0.65830 0.05100
C 	C 	0.18120 0.74074 0.68764 -0.11900
C 	C 	0.11960 0.64502 0.61218 0.42300
C 	C 	0.33390 0.77456 0.74681 0.06500
H 	H 	0.39830 0.73730 0.73960 0.05400
C 	C 	0.39040 0.86353 0.81638 -0.09300
C 	C 	0.29510 0.91824 0.82787 0.05300
H 	H 	0.33310 0.97720 0.87550 0.05400
C 	C 	0.55420 0.90060 0.87800 0.34200
O 	O 	0.07500 0.92386 0.88926 -0.41500
O 	O 	0.86740 0.92600 0.69668 -0.22900
O 	O 	0.05510 0.07284 0.78410 -0.26300
O 	O 	0.21706 0.57836 0.62812 -0.45200
O 	O 	0.97630 0.63849 0.53821 -0.47300
O 	O 	0.63770 0.85459 0.86589 -0.35300
O 	O 	0.60420 0.98007 0.94123 -0.38600
S 	S 	0.02350 0.95935 0.78361 0.51800
Zn	Zn	0.17931 0.02369 0.01883 1.23600
C 	C 	0.85730 0.38482 0.73194 -0.08600
C 	C 	0.91480 0.29696 0.80183 0.04800
H 	H 	0.01740 0.27540 0.84170 0.06500
C 	C 	0.81880 0.24074 0.81236 -0.10400
C 	C 	0.88040 0.14502 0.88782 0.40300
C 	C 	0.66610 0.27456 0.75319 0.05400
H 	H 	0.60170 0.23730 0.76040 0.05900
C 	C 	0.60960 0.36353 0.68362 -0.08500
C 	C 	0.70490 0.41824 0.67213 0.04400
H 	H 	0.66690 0.47720 0.62450 0.05900
C 	C 	0.44580 0.40060 0.62200 0.33900
O 	O 	0.92500 0.42386 0.61074 -0.41500
O 	O 	0.13260 0.42600 0.80332 -0.22500
O 	O 	0.94490 0.57284 0.71590 -0.27300
O 	O 	0.78294 0.07836 0.87188 -0.44600
O 	O 	0.02370 0.13849 0.96179 -0.45500
O 	O 	0.36230 0.35459 0.63411 -0.34800
O 	O 	0.39580 0.48007 0.55877 -0.38200
S 	S 	0.97650 0.45935 0.71639 0.51700
Zn	Zn	0.82069 0.52369 0.48117 1.24000
C 	C 	0.85730 0.11518 0.23194 -0.09600
C 	C 	0.91480 0.20304 0.30183 0.07400
H 	H 	0.01740 0.22460 0.34170 0.05100
C 	C 	0.81880 0.25926 0.31236 -0.11900
C 	C 	0.88040 0.35498 0.38782 0.42300
C 	C 	0.66610 0.22544 0.25319 0.06500
H 	H 	0.60170 0.26270 0.26040 0.05400
C 	C 	0.60960 0.13647 0.18362 -0.09300
C 	C 	0.70490 0.08176 0.17213 0.05300
H 	H 	0.66690 0.02280 0.12450 0.05400
C 	C 	0.44580 0.09940 0.12200 0.34200
O 	O 	0.92500 0.07614 0.11074 -0.41500
O 	O 	0.13260 0.07400 0.30332 -0.22900
O 	O 	0.94490 0.92716 0.21590 -0.26300
O 	O 	0.78294 0.42164 0.37188 -0.45200
O 	O 	0.02370 0.36151 0.46179 -0.47300
O 	O 	0.36230 0.14541 0.13411 -0.35300
O 	O 	0.39580 0.01993 0.05877 -0.38600
S 	S 	0.97650 0.04065 0.21639 0.51800
Zn	Zn	0.82069 0.97631 0.98117 1.23600
C 	C 	0.14270 0.61518 0.26806 -0.08600
C 	C 	0.08520 0.70304 0.19817 0.04800
H 	H 	0.98260 0.72460 0.15830 0.06500
C 	C 	0.18120 0.75926 0.18764 -0.10400
C 	C 	0.11960 0.85498 0.11218 0.40300
C 	C 	0.33390 0.72544 0.24681 0.05400
H 	H 	0.39830 0.76270 0.23960 0.05900
C 	C 	0.39040 0.63647 0.31638 -0.08500
C 	C 	0.29510 0.58176 0.32787 0.04400
H 	H 	0.33310 0.52280 0.37550 0.05900
C 	C 	0.55420 0.59940 0.37800 0.33900
O 	O 	0.07500 0.57614 0.38926 -0.41500
O 	O 	0.86740 0.57400 0.19668 -0.22500
O 	O 	0.05510 0.42716 0.28410 -0.27300
O 	O 	0.21706 0.92164 0.12812 -0.44600
O 	O 	0.97630 0.86151 0.03821 -0.45500
O 	O 	0.63770 0.64541 0.36589 -0.34800
O 	O 	0.60420 0.51993 0.44123 -0.38200
S 	S 	0.02350 0.54065 0.28361 0.51700
Zn	Zn	0.17931 0.47631 0.51883 1.24000
