data_crystal

_cell_length_a 11.25740
_cell_length_b 12.00340
_cell_length_c 16.14300
_cell_angle_alpha 90.00000
_cell_angle_beta  129.60300
_cell_angle_gamma 90.00000

_symmetry_space_group_name_	'P 1'
_symmetry_space_group_name_H-M	'P 1'

loop_
_symmetry_equiv_pos_as_xyz
  x,y,z

loop_
_atom_site_label
_atom_site_type_symbol
_atom_site_fract_x
_atom_site_fract_y
_atom_site_fract_z
_atom_site_charge
Zn	Zn	0.17802 0.02579 0.01875 1.23600
O 	O 	0.07007 0.92702 0.88853 -0.41300
O 	O 	0.39360 0.01943 0.05616 -0.38100
O 	O 	0.36059 0.14677 0.13466 -0.34500
O 	O 	0.21474 0.92135 0.12666 -0.44300
O 	O 	0.02462 0.14410 0.96402 -0.44900
S 	S 	0.02264 0.96556 0.78470 0.50900
C 	C 	0.14200 0.89041 0.76816 -0.08900
O 	O 	0.05760 0.08097 0.78813 -0.26200
O 	O 	0.86668 0.93370 0.69765 -0.22600
C 	C 	0.29550 0.92231 0.82860 0.04300
C 	C 	0.08380 0.80260 0.69689 0.06700
C 	C 	0.39120 0.86603 0.81660 -0.08100
H 	H 	0.33380 0.98120 0.87690 0.05800
C 	C 	0.18000 0.74518 0.68588 -0.11000
H 	H 	0.98090 0.78200 0.65650 0.05400
C 	C 	0.33350 0.77748 0.74547 0.05500
C 	C 	0.55560 0.90125 0.87888 0.32300
C 	C 	0.11810 0.64849 0.61027 0.41200
H 	H 	0.39750 0.73940 0.73740 0.05700
Zn	Zn	0.82198 0.52579 0.48125 1.23900
O 	O 	0.92993 0.42702 0.61147 -0.41400
O 	O 	0.60640 0.51943 0.44384 -0.37600
O 	O 	0.63941 0.64677 0.36534 -0.34000
O 	O 	0.78526 0.42135 0.37334 -0.45000
O 	O 	0.97538 0.64410 0.53598 -0.46600
S 	S 	0.97736 0.46556 0.71530 0.50900
C 	C 	0.85800 0.39041 0.73184 -0.07900
O 	O 	0.94240 0.58097 0.71187 -0.27200
O 	O 	0.13332 0.43370 0.80235 -0.22200
C 	C 	0.70450 0.42231 0.67140 0.03500
C 	C 	0.91620 0.30260 0.80311 0.04100
C 	C 	0.60880 0.36603 0.68340 -0.07300
H 	H 	0.66620 0.48120 0.62310 0.06200
C 	C 	0.82000 0.24518 0.81412 -0.09500
H 	H 	0.01910 0.28200 0.84350 0.06800
C 	C 	0.66650 0.27748 0.75453 0.04500
C 	C 	0.44440 0.40125 0.62112 0.32000
C 	C 	0.88190 0.14849 0.88973 0.39200
H 	H 	0.60250 0.23940 0.76260 0.06200
Zn	Zn	0.82198 0.97421 0.98125 1.23500
O 	O 	0.92993 0.07298 0.11147 -0.41400
O 	O 	0.60640 0.98057 0.94384 -0.38100
O 	O 	0.63941 0.85323 0.86534 -0.34500
O 	O 	0.78526 0.07865 0.87334 -0.44300
O 	O 	0.97538 0.85590 0.03598 -0.44900
S 	S 	0.97736 0.03444 0.21530 0.50900
C 	C 	0.85800 0.10959 0.23184 -0.08900
O 	O 	0.94240 0.91903 0.21187 -0.26200
O 	O 	0.13332 0.06630 0.30235 -0.22600
C 	C 	0.70450 0.07769 0.17140 0.04300
C 	C 	0.91620 0.19740 0.30311 0.06700
C 	C 	0.60880 0.13397 0.18340 -0.08100
H 	H 	0.66620 0.01880 0.12310 0.05800
C 	C 	0.82000 0.25482 0.31412 -0.11000
H 	H 	0.01910 0.21800 0.34350 0.05400
C 	C 	0.66650 0.22252 0.25453 0.05500
C 	C 	0.44440 0.09875 0.12112 0.32300
C 	C 	0.88190 0.35151 0.38973 0.41200
H 	H 	0.60250 0.26060 0.26260 0.05700
Zn	Zn	0.17802 0.47421 0.51875 1.23900
O 	O 	0.07007 0.57298 0.38853 -0.41400
O 	O 	0.39360 0.48057 0.55616 -0.37600
O 	O 	0.36059 0.35323 0.63466 -0.34000
O 	O 	0.21474 0.57865 0.62666 -0.45000
O 	O 	0.02462 0.35590 0.46402 -0.46600
S 	S 	0.02264 0.53444 0.28470 0.50900
C 	C 	0.14200 0.60959 0.26816 -0.07900
O 	O 	0.05760 0.41903 0.28813 -0.27200
O 	O 	0.86668 0.56630 0.19765 -0.22200
C 	C 	0.29550 0.57769 0.32860 0.03500
C 	C 	0.08380 0.69740 0.19689 0.04100
C 	C 	0.39120 0.63397 0.31660 -0.07300
H 	H 	0.33380 0.51880 0.37690 0.06200
C 	C 	0.18000 0.75482 0.18588 -0.09500
H 	H 	0.98090 0.71800 0.15650 0.06800
C 	C 	0.33350 0.72252 0.24547 0.04500
C 	C 	0.55560 0.59875 0.37888 0.32000
C 	C 	0.11810 0.85151 0.11027 0.39200
H 	H 	0.39750 0.76060 0.23740 0.06200
