data_crystal

_cell_length_a 11.24990
_cell_length_b 11.78880
_cell_length_c 16.22710
_cell_angle_alpha 90.00000
_cell_angle_beta  129.39900
_cell_angle_gamma 90.00000

_symmetry_space_group_name_	'P 1'
_symmetry_space_group_name_H-M	'P 1'

loop_
_symmetry_equiv_pos_as_xyz
  x,y,z

loop_
_atom_site_label
_atom_site_type_symbol
_atom_site_fract_x
_atom_site_fract_y
_atom_site_fract_z
_atom_site_charge
C 	C 	0.14176 0.89649 0.76824 -0.08300
C 	C 	0.08292 0.80827 0.69581 0.06300
H 	H 	0.97750 0.78800 0.65400 0.05700
C 	C 	0.17924 0.74918 0.68447 -0.10400
C 	C 	0.11732 0.65186 0.60859 0.40100
C 	C 	0.33305 0.78057 0.74481 0.05100
H 	H 	0.39850 0.74090 0.73670 0.06000
C 	C 	0.39113 0.86987 0.81698 -0.07400
C 	C 	0.29590 0.92767 0.82970 0.03800
H 	H 	0.33560 0.98780 0.87980 0.05900
C 	C 	0.55614 0.90437 0.88058 0.30900
O 	O 	0.06394 0.92905 0.88594 -0.41000
O 	O 	0.86569 0.94440 0.69572 -0.22200
O 	O 	0.06250 0.09001 0.79374 -0.26300
O 	O 	0.21382 0.57968 0.62553 -0.44400
O 	O 	0.97488 0.64863 0.53378 -0.45900
O 	O 	0.64131 0.85239 0.86892 -0.34300
O 	O 	0.60675 0.98594 0.94495 -0.37400
S 	S 	0.02222 0.97259 0.78504 0.49700
Zn	Zn	0.17668 0.02649 0.01745 1.23300
C 	C 	0.85824 0.39649 0.73176 -0.07600
C 	C 	0.91708 0.30827 0.80419 0.03900
H 	H 	0.02250 0.28800 0.84600 0.06900
C 	C 	0.82076 0.24918 0.81553 -0.09100
C 	C 	0.88268 0.15186 0.89141 0.38300
C 	C 	0.66695 0.28057 0.75519 0.04200
H 	H 	0.60150 0.24090 0.76330 0.06400
C 	C 	0.60887 0.36987 0.68302 -0.06700
C 	C 	0.70410 0.42767 0.67030 0.03200
H 	H 	0.66440 0.48780 0.62020 0.06300
C 	C 	0.44386 0.40437 0.61942 0.30600
O 	O 	0.93606 0.42905 0.61406 -0.41000
O 	O 	0.13431 0.44440 0.80428 -0.21800
O 	O 	0.93750 0.59001 0.70626 -0.27200
O 	O 	0.78618 0.07968 0.87447 -0.43900
O 	O 	0.02512 0.14863 0.96622 -0.44300
O 	O 	0.35869 0.35239 0.63108 -0.33800
O 	O 	0.39325 0.48594 0.55505 -0.37000
S 	S 	0.97778 0.47259 0.71496 0.49700
Zn	Zn	0.82332 0.52649 0.48255 1.23800
C 	C 	0.85824 0.10351 0.23176 -0.08400
C 	C 	0.91708 0.19173 0.30419 0.06200
H 	H 	0.02250 0.21200 0.34600 0.05700
C 	C 	0.82076 0.25082 0.31553 -0.10400
C 	C 	0.88268 0.34814 0.39141 0.40100
C 	C 	0.66695 0.21943 0.25519 0.05100
H 	H 	0.60150 0.25910 0.26330 0.06000
C 	C 	0.60887 0.13013 0.18302 -0.07400
C 	C 	0.70410 0.07233 0.17030 0.03800
H 	H 	0.66440 0.01220 0.12020 0.05900
C 	C 	0.44386 0.09563 0.11942 0.30900
O 	O 	0.93606 0.07095 0.11406 -0.41000
O 	O 	0.13431 0.05560 0.30428 -0.22200
O 	O 	0.93750 0.90999 0.20626 -0.26300
O 	O 	0.78618 0.42032 0.37447 -0.44400
O 	O 	0.02512 0.35137 0.46622 -0.45900
O 	O 	0.35869 0.14761 0.13108 -0.34300
O 	O 	0.39325 0.01406 0.05505 -0.37400
S 	S 	0.97778 0.02741 0.21496 0.49700
Zn	Zn	0.82332 0.97351 0.98255 1.23300
C 	C 	0.14176 0.60351 0.26824 -0.07600
C 	C 	0.08292 0.69173 0.19581 0.03900
H 	H 	0.97750 0.71200 0.15400 0.06900
C 	C 	0.17924 0.75082 0.18447 -0.09100
C 	C 	0.11732 0.84814 0.10859 0.38300
C 	C 	0.33305 0.71943 0.24481 0.04200
H 	H 	0.39850 0.75910 0.23670 0.06400
C 	C 	0.39113 0.63013 0.31698 -0.06700
C 	C 	0.29590 0.57233 0.32970 0.03200
H 	H 	0.33560 0.51220 0.37980 0.06300
C 	C 	0.55614 0.59563 0.38058 0.30600
O 	O 	0.06394 0.57095 0.38594 -0.41000
O 	O 	0.86569 0.55560 0.19572 -0.21800
O 	O 	0.06250 0.40999 0.29374 -0.27200
O 	O 	0.21382 0.92032 0.12553 -0.43900
O 	O 	0.97488 0.85137 0.03378 -0.44300
O 	O 	0.64131 0.64761 0.36892 -0.33800
O 	O 	0.60675 0.51406 0.44495 -0.37000
S 	S 	0.02222 0.52741 0.28504 0.49700
Zn	Zn	0.17668 0.47351 0.51745 1.23800
