data_crystal

_cell_length_a 11.28960
_cell_length_b 12.10490
_cell_length_c 16.15790
_cell_angle_alpha 90.00000
_cell_angle_beta  129.91400
_cell_angle_gamma 90.00000

_symmetry_space_group_name_	'P 1'
_symmetry_space_group_name_H-M	'P 1'

loop_
_symmetry_equiv_pos_as_xyz
  x,y,z

loop_
_atom_site_label
_atom_site_type_symbol
_atom_site_fract_x
_atom_site_fract_y
_atom_site_fract_z
_atom_site_charge
Zn	Zn	0.82132 0.02471 0.48098 1.24000
S 	S 	0.97715 0.96244 0.71584 0.51300
O 	O 	0.92720 0.92544 0.61072 -0.41300
O 	O 	0.13310 0.92960 0.80265 -0.22200
O 	O 	0.94460 0.07620 0.71460 -0.27300
O 	O 	0.39460 0.98006 0.55763 -0.37900
O 	O 	0.36210 0.85415 0.63532 -0.34400
O 	O 	0.78410 0.57851 0.87254 -0.44800
O 	O 	0.02394 0.64134 0.96261 -0.45900
C 	C 	0.85760 0.88758 0.73180 -0.08400
C 	C 	0.70490 0.92009 0.67184 0.04100
H 	H 	0.66680 0.97890 0.62390 0.06000
C 	C 	0.60930 0.86461 0.68369 -0.08100
C 	C 	0.44530 0.90080 0.62190 0.33100
C 	C 	0.66690 0.77597 0.75412 0.05300
H 	H 	0.60270 0.73830 0.76180 0.05800
C 	C 	0.81930 0.74286 0.81331 -0.10400
C 	C 	0.91620 0.79983 0.80278 0.04800
H 	H 	0.01900 0.77910 0.84300 0.06400
C 	C 	0.88120 0.64705 0.88854 0.40200
Zn	Zn	0.17868 0.52471 0.01902 1.23700
S 	S 	0.02285 0.46244 0.78416 0.53200
O 	O 	0.07280 0.42544 0.88928 -0.41300
O 	O 	0.86690 0.42960 0.69735 -0.23300
O 	O 	0.05540 0.57620 0.78540 -0.27500
O 	O 	0.60540 0.48006 0.94237 -0.38300
O 	O 	0.63790 0.35415 0.86468 -0.34700
O 	O 	0.21590 0.07851 0.62746 -0.45100
O 	O 	0.97606 0.14134 0.53739 -0.47000
C 	C 	0.14240 0.38758 0.76820 -0.09800
C 	C 	0.29510 0.42009 0.82816 0.05300
H 	H 	0.33320 0.47890 0.87610 0.05600
C 	C 	0.39070 0.36461 0.81631 -0.09000
C 	C 	0.55470 0.40080 0.87810 0.33400
C 	C 	0.33310 0.27597 0.74588 0.06500
H 	H 	0.39730 0.23830 0.73820 0.05400
C 	C 	0.18070 0.24286 0.68669 -0.11900
C 	C 	0.08380 0.29983 0.69722 0.07800
H 	H 	0.98100 0.27910 0.65700 0.04800
C 	C 	0.11880 0.14705 0.61146 0.41900
Zn	Zn	0.17868 0.97529 0.51902 1.24000
S 	S 	0.02285 0.03756 0.28416 0.51300
O 	O 	0.07280 0.07456 0.38928 -0.41300
O 	O 	0.86690 0.07040 0.19735 -0.22200
O 	O 	0.05540 0.92380 0.28540 -0.27300
O 	O 	0.60540 0.01994 0.44237 -0.37900
O 	O 	0.63790 0.14585 0.36468 -0.34400
O 	O 	0.21590 0.42149 0.12746 -0.44800
O 	O 	0.97606 0.35866 0.03739 -0.45900
C 	C 	0.14240 0.11242 0.26820 -0.08400
C 	C 	0.29510 0.07991 0.32816 0.04100
H 	H 	0.33320 0.02110 0.37610 0.06000
C 	C 	0.39070 0.13539 0.31631 -0.08100
C 	C 	0.55470 0.09920 0.37810 0.33100
C 	C 	0.33310 0.22403 0.24588 0.05300
H 	H 	0.39730 0.26170 0.23820 0.05800
C 	C 	0.18070 0.25714 0.18669 -0.10400
C 	C 	0.08380 0.20017 0.19722 0.04800
H 	H 	0.98100 0.22090 0.15700 0.06400
C 	C 	0.11880 0.35295 0.11146 0.40200
Zn	Zn	0.82132 0.47529 0.98098 1.23700
S 	S 	0.97715 0.53756 0.21584 0.53200
O 	O 	0.92720 0.57456 0.11072 -0.41300
O 	O 	0.13310 0.57040 0.30265 -0.23300
O 	O 	0.94460 0.42380 0.21460 -0.27500
O 	O 	0.39460 0.51994 0.05763 -0.38300
O 	O 	0.36210 0.64585 0.13532 -0.34700
O 	O 	0.78410 0.92149 0.37254 -0.45100
O 	O 	0.02394 0.85866 0.46261 -0.47000
C 	C 	0.85760 0.61242 0.23180 -0.09800
C 	C 	0.70490 0.57991 0.17184 0.05300
H 	H 	0.66680 0.52110 0.12390 0.05600
C 	C 	0.60930 0.63539 0.18369 -0.09000
C 	C 	0.44530 0.59920 0.12190 0.33400
C 	C 	0.66690 0.72403 0.25412 0.06500
H 	H 	0.60270 0.76170 0.26180 0.05400
C 	C 	0.81930 0.75714 0.31331 -0.11900
C 	C 	0.91620 0.70017 0.30278 0.07800
H 	H 	0.01900 0.72090 0.34300 0.04800
C 	C 	0.88120 0.85295 0.38854 0.41900
