data_crystal

_cell_length_a 8.28110
_cell_length_b 9.88340
_cell_length_c 10.18180
_cell_angle_alpha 99.05300
_cell_angle_beta  90.00000
_cell_angle_gamma 90.00000

_symmetry_space_group_name_	'P 1'
_symmetry_space_group_name_H-M	'P 1'

loop_
_symmetry_equiv_pos_as_xyz
  x,y,z

loop_
_atom_site_label
_atom_site_type_symbol
_atom_site_fract_x
_atom_site_fract_y
_atom_site_fract_z
_atom_site_charge
Pr	Pr	0.90161 0.81500 0.56293 2.04400
Pr	Pr	0.40161 0.18500 0.93707 2.04300
Pr	Pr	0.09839 0.18500 0.43707 2.04400
Pr	Pr	0.59839 0.81500 0.06293 2.04300
C 	C 	0.59500 0.02220 0.67090 0.21900
C 	C 	0.60320 0.91710 0.76810 0.24600
C 	C 	0.98350 0.49460 0.57390 0.22100
C 	C 	0.09500 0.97780 0.82910 0.24000
C 	C 	0.10320 0.08290 0.73190 0.23500
C 	C 	0.48350 0.50540 0.92610 0.22200
C 	C 	0.40500 0.97780 0.32910 0.21900
C 	C 	0.39680 0.08290 0.23190 0.24600
C 	C 	0.01650 0.50540 0.42610 0.22100
C 	C 	0.90500 0.02220 0.17090 0.24000
C 	C 	0.89680 0.91710 0.26810 0.23500
C 	C 	0.51650 0.49460 0.07390 0.22200
O 	O 	0.68330 0.99580 0.56980 -0.41600
O 	O 	0.50550 0.12290 0.70090 -0.41300
O 	O 	0.69080 0.81620 0.73900 -0.46500
O 	O 	0.51980 0.94360 0.87386 -0.57300
O 	O 	0.93350 0.59890 0.64710 -0.43500
O 	O 	0.00900 0.38010 0.60760 -0.42600
O 	O 	0.18330 0.00420 0.93020 -0.42900
O 	O 	0.00550 0.87710 0.79910 -0.41400
O 	O 	0.19080 0.18380 0.76100 -0.46300
O 	O 	0.01980 0.05640 0.62614 -0.57700
O 	O 	0.43350 0.40110 0.85290 -0.43500
O 	O 	0.50900 0.61990 0.89240 -0.42400
O 	O 	0.31670 0.00420 0.43020 -0.41600
O 	O 	0.49450 0.87710 0.29910 -0.41300
O 	O 	0.30920 0.18380 0.26100 -0.46500
O 	O 	0.48020 0.05640 0.12614 -0.57300
O 	O 	0.06650 0.40110 0.35290 -0.43500
O 	O 	0.99100 0.61990 0.39240 -0.42600
O 	O 	0.81670 0.99580 0.06980 -0.42900
O 	O 	0.99450 0.12290 0.20090 -0.41400
O 	O 	0.80920 0.81620 0.23900 -0.46300
O 	O 	0.98020 0.94360 0.37386 -0.57700
O 	O 	0.56650 0.59890 0.14710 -0.43500
O 	O 	0.49100 0.38010 0.10760 -0.42400
