data_crystal

_cell_length_a 8.28830
_cell_length_b 9.89170
_cell_length_c 10.18870
_cell_angle_alpha 99.04000
_cell_angle_beta  90.00000
_cell_angle_gamma 90.00000

_symmetry_space_group_name_	'P 1'
_symmetry_space_group_name_H-M	'P 1'

loop_
_symmetry_equiv_pos_as_xyz
  x,y,z

loop_
_atom_site_label
_atom_site_type_symbol
_atom_site_fract_x
_atom_site_fract_y
_atom_site_fract_z
_atom_site_charge
Pr	Pr	0.90155 0.31502 0.56293 2.04300
Pr	Pr	0.40155 0.68498 0.93707 2.04300
Pr	Pr	0.09845 0.68498 0.43707 2.04300
Pr	Pr	0.59845 0.31502 0.06293 2.04300
C 	C 	0.60200 0.41750 0.76800 0.23900
C 	C 	0.59510 0.52270 0.67040 0.22700
C 	C 	0.01570 0.00550 0.42570 0.21700
C 	C 	0.10200 0.58250 0.73200 0.24000
C 	C 	0.09510 0.47730 0.82960 0.22700
C 	C 	0.51570 0.99450 0.07430 0.22600
C 	C 	0.39800 0.58250 0.23200 0.23900
C 	C 	0.40490 0.47730 0.32960 0.22700
C 	C 	0.98430 0.99450 0.57430 0.21700
C 	C 	0.89800 0.41750 0.26800 0.24000
C 	C 	0.90490 0.52270 0.17040 0.22700
C 	C 	0.48430 0.00550 0.92570 0.22600
O 	O 	0.69090 0.31610 0.73900 -0.46200
O 	O 	0.52000 0.44360 0.87390 -0.57500
O 	O 	0.68350 0.49590 0.56960 -0.42000
O 	O 	0.50550 0.62310 0.70050 -0.41300
O 	O 	0.99030 0.11970 0.39250 -0.42500
O 	O 	0.06640 0.90090 0.35270 -0.43200
O 	O 	0.19090 0.68390 0.76100 -0.46200
O 	O 	0.02000 0.55640 0.62610 -0.57600
O 	O 	0.18350 0.50410 0.93040 -0.41800
O 	O 	0.00550 0.37690 0.79950 -0.41300
O 	O 	0.49030 0.88030 0.10750 -0.42700
O 	O 	0.56640 0.09910 0.14730 -0.43900
O 	O 	0.30910 0.68390 0.26100 -0.46200
O 	O 	0.48000 0.55640 0.12610 -0.57500
O 	O 	0.31650 0.50410 0.43040 -0.42000
O 	O 	0.49450 0.37690 0.29950 -0.41300
O 	O 	0.00970 0.88030 0.60750 -0.42500
O 	O 	0.93360 0.09910 0.64730 -0.43200
O 	O 	0.80910 0.31610 0.23900 -0.46200
O 	O 	0.98000 0.44360 0.37390 -0.57600
O 	O 	0.81650 0.49590 0.06960 -0.41800
O 	O 	0.99450 0.62310 0.20050 -0.41300
O 	O 	0.50970 0.11970 0.89250 -0.42700
O 	O 	0.43360 0.90090 0.85270 -0.43900
