data_crystal

_cell_length_a 18.56000
_cell_length_b 20.49900
_cell_length_c 20.76100
_cell_angle_alpha 90.00000
_cell_angle_beta  90.00000
_cell_angle_gamma 90.00000

_symmetry_space_group_name_	'P 1'
_symmetry_space_group_name_H-M	'P 1'

loop_
_symmetry_equiv_pos_as_xyz
  x,y,z

loop_
_atom_site_label
_atom_site_type_symbol
_atom_site_fract_x
_atom_site_fract_y
_atom_site_fract_z
_atom_site_charge
Cd	Cd	0.61952 0.02988 0.75006 1.21000
O 	O 	0.72243 0.09773 0.75424 -0.36500
O 	O 	0.61723 0.14710 0.74819 -0.37100
O 	O 	0.89760 0.40035 0.73740 -0.34000
O 	O 	0.79620 0.44921 0.76030 -0.39100
O 	O 	0.53356 0.02455 0.67139 -0.39000
O 	O 	0.64020 0.02680 0.62649 -0.33700
C 	C 	0.68530 0.14810 0.75180 0.30200
C 	C 	0.72220 0.21350 0.75090 -0.09300
C 	C 	0.72390 0.25050 0.69400 0.04400
C 	C 	0.69380 0.22630 0.63490 -0.07100
H 	H 	0.67420 0.18460 0.63330 0.07000
C 	C 	0.69390 0.26450 0.58120 -0.03100
H 	H 	0.67480 0.24820 0.54300 0.04300
C 	C 	0.72290 0.32880 0.58260 -0.02200
H 	H 	0.71990 0.35510 0.54630 0.03600
C 	C 	0.75450 0.35150 0.63670 -0.08100
H 	H 	0.77400 0.39330 0.63680 0.07100
C 	C 	0.75860 0.31260 0.69380 0.04900
C 	C 	0.79350 0.33470 0.75000 -0.09800
C 	C 	0.79060 0.29800 0.80710 0.04500
C 	C 	0.82270 0.32150 0.86570 -0.06700
H 	H 	0.84690 0.36130 0.86590 0.05200
C 	C 	0.81800 0.28610 0.92050 -0.03100
H 	H 	0.83790 0.30200 0.95850 0.03900
C 	C 	0.78260 0.22470 0.92020 -0.02600
H 	H 	0.78090 0.20020 0.95780 0.03800
C 	C 	0.75160 0.20120 0.86650 -0.07000
H 	H 	0.72800 0.16110 0.86780 0.05600
C 	C 	0.75420 0.23660 0.80810 0.04400
C 	C 	0.83260 0.39930 0.74890 0.32400
C 	C 	0.57390 0.02200 0.62320 0.32500
C 	C 	0.53680 0.01110 0.55880 -0.09600
C 	C 	0.54090 0.94940 0.52890 0.04700
C 	C 	0.58010 0.89670 0.55690 -0.07400
H 	H 	0.60410 0.90300 0.59580 0.07200
C 	C 	0.58280 0.83760 0.52750 -0.02500
H 	H 	0.60800 0.80360 0.54680 0.04200
C 	C 	0.54760 0.82700 0.46780 -0.02500
H 	H 	0.55140 0.78660 0.44770 0.04200
C 	C 	0.50870 0.87500 0.43990 -0.07400
H 	H 	0.48480 0.86690 0.40130 0.07000
C 	C 	0.49650 0.06170 0.53110 0.04800
Cd	Cd	0.11952 0.47012 0.24994 1.21100
O 	O 	0.22243 0.40227 0.24576 -0.36400
O 	O 	0.11723 0.35290 0.25181 -0.37000
O 	O 	0.39760 0.09965 0.26260 -0.33800
O 	O 	0.29620 0.05079 0.23970 -0.39000
O 	O 	0.03356 0.47545 0.32861 -0.38900
O 	O 	0.14020 0.47320 0.37351 -0.33700
C 	C 	0.18530 0.35190 0.24820 0.30300
C 	C 	0.22220 0.28650 0.24910 -0.09200
C 	C 	0.22390 0.24950 0.30600 0.04500
C 	C 	0.19380 0.27370 0.36510 -0.07100
H 	H 	0.17420 0.31540 0.36670 0.07000
C 	C 	0.19390 0.23550 0.41880 -0.03100
H 	H 	0.17480 0.25180 0.45700 0.04300
C 	C 	0.22290 0.17120 0.41740 -0.02200
H 	H 	0.21990 0.14490 0.45370 0.03600
C 	C 	0.25450 0.14850 0.36330 -0.08100
H 	H 	0.27400 0.10670 0.36320 0.07200
C 	C 	0.25860 0.18740 0.30620 0.04900
C 	C 	0.29350 0.16530 0.25000 -0.09800
C 	C 	0.29060 0.20200 0.19290 0.04500
C 	C 	0.32270 0.17850 0.13430 -0.06800
H 	H 	0.34690 0.13870 0.13410 0.05300
C 	C 	0.31800 0.21390 0.07950 -0.03100
H 	H 	0.33790 0.19800 0.04150 0.03900
C 	C 	0.28260 0.27530 0.07980 -0.02600
H 	H 	0.28090 0.29980 0.04220 0.03900
C 	C 	0.25160 0.29880 0.13350 -0.07000
H 	H 	0.22800 0.33890 0.13220 0.05600
C 	C 	0.25420 0.26340 0.19190 0.04400
C 	C 	0.33260 0.10070 0.25110 0.32400
C 	C 	0.07390 0.47800 0.37680 0.32500
C 	C 	0.03680 0.48890 0.44120 -0.09700
C 	C 	0.04090 0.55060 0.47110 0.04700
C 	C 	0.08010 0.60330 0.44310 -0.07500
H 	H 	0.10410 0.59700 0.40420 0.07200
C 	C 	0.08280 0.66240 0.47250 -0.02500
H 	H 	0.10800 0.69640 0.45320 0.04200
C 	C 	0.04760 0.67300 0.53220 -0.02500
H 	H 	0.05140 0.71340 0.55230 0.04200
C 	C 	0.00870 0.62500 0.56010 -0.07300
H 	H 	0.98480 0.63310 0.59870 0.06900
C 	C 	0.99650 0.43830 0.46890 0.04800
Cd	Cd	0.38048 0.97012 0.24994 1.21100
O 	O 	0.27757 0.90227 0.24576 -0.36400
O 	O 	0.38277 0.85290 0.25181 -0.37000
O 	O 	0.10240 0.59965 0.26260 -0.33900
O 	O 	0.20380 0.55079 0.23970 -0.39000
O 	O 	0.46644 0.97545 0.32861 -0.38900
O 	O 	0.35980 0.97320 0.37351 -0.33600
C 	C 	0.31470 0.85190 0.24820 0.30300
C 	C 	0.27780 0.78650 0.24910 -0.09200
C 	C 	0.27610 0.74950 0.30600 0.04500
C 	C 	0.30620 0.77370 0.36510 -0.07100
H 	H 	0.32580 0.81540 0.36670 0.07000
C 	C 	0.30610 0.73550 0.41880 -0.03100
H 	H 	0.32520 0.75180 0.45700 0.04300
C 	C 	0.27710 0.67120 0.41740 -0.02200
H 	H 	0.28010 0.64490 0.45370 0.03600
C 	C 	0.24550 0.64850 0.36330 -0.08100
H 	H 	0.22600 0.60670 0.36320 0.07100
C 	C 	0.24140 0.68740 0.30620 0.04900
C 	C 	0.20650 0.66530 0.25000 -0.09800
C 	C 	0.20940 0.70200 0.19290 0.04500
C 	C 	0.17730 0.67850 0.13430 -0.06700
H 	H 	0.15310 0.63870 0.13410 0.05200
C 	C 	0.18200 0.71390 0.07950 -0.03100
H 	H 	0.16210 0.69800 0.04150 0.03900
C 	C 	0.21740 0.77530 0.07980 -0.02600
H 	H 	0.21910 0.79980 0.04220 0.03800
C 	C 	0.24840 0.79880 0.13350 -0.07000
H 	H 	0.27200 0.83890 0.13220 0.05600
C 	C 	0.24580 0.76340 0.19190 0.04400
C 	C 	0.16740 0.60070 0.25110 0.32400
C 	C 	0.42610 0.97800 0.37680 0.32500
C 	C 	0.46320 0.98890 0.44120 -0.09600
C 	C 	0.45910 0.05060 0.47110 0.04700
C 	C 	0.41990 0.10330 0.44310 -0.07400
H 	H 	0.39590 0.09700 0.40420 0.07200
C 	C 	0.41720 0.16240 0.47250 -0.02500
H 	H 	0.39200 0.19640 0.45320 0.04200
C 	C 	0.45240 0.17300 0.53220 -0.02500
H 	H 	0.44860 0.21340 0.55230 0.04200
C 	C 	0.49130 0.12500 0.56010 -0.07400
H 	H 	0.51520 0.13310 0.59870 0.07000
C 	C 	0.50350 0.93830 0.46890 0.04800
Cd	Cd	0.88048 0.52988 0.75006 1.21100
O 	O 	0.77757 0.59773 0.75424 -0.36400
O 	O 	0.88277 0.64710 0.74819 -0.37000
O 	O 	0.60240 0.90035 0.73740 -0.33800
O 	O 	0.70380 0.94921 0.76030 -0.39000
O 	O 	0.96644 0.52455 0.67139 -0.38900
O 	O 	0.85980 0.52680 0.62649 -0.33700
C 	C 	0.81470 0.64810 0.75180 0.30300
C 	C 	0.77780 0.71350 0.75090 -0.09200
C 	C 	0.77610 0.75050 0.69400 0.04500
C 	C 	0.80620 0.72630 0.63490 -0.07100
H 	H 	0.82580 0.68460 0.63330 0.07000
C 	C 	0.80610 0.76450 0.58120 -0.03100
H 	H 	0.82520 0.74820 0.54300 0.04300
C 	C 	0.77710 0.82880 0.58260 -0.02200
H 	H 	0.78010 0.85510 0.54630 0.03600
C 	C 	0.74550 0.85150 0.63670 -0.08100
H 	H 	0.72600 0.89330 0.63680 0.07200
C 	C 	0.74140 0.81260 0.69380 0.04900
C 	C 	0.70650 0.83470 0.75000 -0.09800
C 	C 	0.70940 0.79800 0.80710 0.04500
C 	C 	0.67730 0.82150 0.86570 -0.06800
H 	H 	0.65310 0.86130 0.86590 0.05300
C 	C 	0.68200 0.78610 0.92050 -0.03100
H 	H 	0.66210 0.80200 0.95850 0.03900
C 	C 	0.71740 0.72470 0.92020 -0.02600
H 	H 	0.71910 0.70020 0.95780 0.03900
C 	C 	0.74840 0.70120 0.86650 -0.07000
H 	H 	0.77200 0.66110 0.86780 0.05600
C 	C 	0.74580 0.73660 0.80810 0.04400
C 	C 	0.66740 0.89930 0.74890 0.32400
C 	C 	0.92610 0.52200 0.62320 0.32500
C 	C 	0.96320 0.51110 0.55880 -0.09700
C 	C 	0.95910 0.44940 0.52890 0.04700
C 	C 	0.91990 0.39670 0.55690 -0.07500
H 	H 	0.89590 0.40300 0.59580 0.07200
C 	C 	0.91720 0.33760 0.52750 -0.02500
H 	H 	0.89200 0.30360 0.54680 0.04200
C 	C 	0.95240 0.32700 0.46780 -0.02500
H 	H 	0.94860 0.28660 0.44770 0.04200
C 	C 	0.99130 0.37500 0.43990 -0.07300
H 	H 	0.01520 0.36690 0.40130 0.06900
C 	C 	0.00350 0.56170 0.53110 0.04800
Cd	Cd	0.88048 0.97012 0.25006 1.21100
O 	O 	0.77757 0.90227 0.25424 -0.36500
O 	O 	0.88277 0.85290 0.24819 -0.37000
O 	O 	0.60240 0.59965 0.23740 -0.33900
O 	O 	0.70380 0.55079 0.26030 -0.39000
O 	O 	0.96644 0.97545 0.17139 -0.38900
O 	O 	0.85980 0.97320 0.12649 -0.33700
C 	C 	0.81470 0.85190 0.25180 0.30300
C 	C 	0.77780 0.78650 0.25090 -0.09200
C 	C 	0.77610 0.74950 0.19400 0.04500
C 	C 	0.80620 0.77370 0.13490 -0.07100
H 	H 	0.82580 0.81540 0.13330 0.07000
C 	C 	0.80610 0.73550 0.08120 -0.03100
H 	H 	0.82520 0.75180 0.04300 0.04300
C 	C 	0.77710 0.67120 0.08260 -0.02200
H 	H 	0.78010 0.64490 0.04630 0.03600
C 	C 	0.74550 0.64850 0.13670 -0.08100
H 	H 	0.72600 0.60670 0.13680 0.07100
C 	C 	0.74140 0.68740 0.19380 0.04900
C 	C 	0.70650 0.66530 0.25000 -0.09800
C 	C 	0.70940 0.70200 0.30710 0.04500
C 	C 	0.67730 0.67850 0.36570 -0.06800
H 	H 	0.65310 0.63870 0.36590 0.05200
C 	C 	0.68200 0.71390 0.42050 -0.03100
H 	H 	0.66210 0.69800 0.45850 0.03900
C 	C 	0.71740 0.77530 0.42020 -0.02600
H 	H 	0.71910 0.79980 0.45780 0.03900
C 	C 	0.74840 0.79880 0.36650 -0.07000
H 	H 	0.77200 0.83890 0.36780 0.05600
C 	C 	0.74580 0.76340 0.30810 0.04400
C 	C 	0.66740 0.60070 0.24890 0.32400
C 	C 	0.92610 0.97800 0.12320 0.32600
C 	C 	0.96320 0.98890 0.05880 -0.09900
C 	C 	0.95910 0.05060 0.02890 0.05300
C 	C 	0.91990 0.10330 0.05690 -0.07900
H 	H 	0.89590 0.09700 0.09580 0.07400
C 	C 	0.91720 0.16240 0.02750 -0.01900
H 	H 	0.89200 0.19640 0.04680 0.04100
C 	C 	0.95240 0.17300 0.96780 -0.03000
H 	H 	0.94860 0.21340 0.94770 0.04400
C 	C 	0.99130 0.12500 0.93990 -0.07000
H 	H 	0.01520 0.13310 0.90130 0.06800
C 	C 	0.00350 0.93830 0.03110 0.04500
Cd	Cd	0.38048 0.52988 0.74994 1.21100
O 	O 	0.27757 0.59773 0.74576 -0.36400
O 	O 	0.38277 0.64710 0.75181 -0.37000
O 	O 	0.10240 0.90035 0.76260 -0.33800
O 	O 	0.20380 0.94921 0.73970 -0.38900
O 	O 	0.46644 0.52455 0.82861 -0.38900
O 	O 	0.35980 0.52680 0.87351 -0.33700
C 	C 	0.31470 0.64810 0.74820 0.30300
C 	C 	0.27780 0.71350 0.74910 -0.09200
C 	C 	0.27610 0.75050 0.80600 0.04500
C 	C 	0.30620 0.72630 0.86510 -0.07100
H 	H 	0.32580 0.68460 0.86670 0.07000
C 	C 	0.30610 0.76450 0.91880 -0.03100
H 	H 	0.32520 0.74820 0.95700 0.04300
C 	C 	0.27710 0.82880 0.91740 -0.02200
H 	H 	0.28010 0.85510 0.95370 0.03600
C 	C 	0.24550 0.85150 0.86330 -0.08100
H 	H 	0.22600 0.89330 0.86320 0.07200
C 	C 	0.24140 0.81260 0.80620 0.04900
C 	C 	0.20650 0.83470 0.75000 -0.09800
C 	C 	0.20940 0.79800 0.69290 0.04500
C 	C 	0.17730 0.82150 0.63430 -0.06800
H 	H 	0.15310 0.86130 0.63410 0.05300
C 	C 	0.18200 0.78610 0.57950 -0.03100
H 	H 	0.16210 0.80200 0.54150 0.03900
C 	C 	0.21740 0.72470 0.57980 -0.02600
H 	H 	0.21910 0.70020 0.54220 0.03900
C 	C 	0.24840 0.70120 0.63350 -0.07000
H 	H 	0.27200 0.66110 0.63220 0.05600
C 	C 	0.24580 0.73660 0.69190 0.04400
C 	C 	0.16740 0.89930 0.75110 0.32400
C 	C 	0.42610 0.52200 0.87680 0.32500
C 	C 	0.46320 0.51110 0.94120 -0.09700
C 	C 	0.45910 0.44940 0.97110 0.04700
C 	C 	0.41990 0.39670 0.94310 -0.07400
H 	H 	0.39590 0.40300 0.90420 0.07200
C 	C 	0.41720 0.33760 0.97250 -0.02700
H 	H 	0.39200 0.30360 0.95320 0.04300
C 	C 	0.45240 0.32700 0.03220 -0.02300
H 	H 	0.44860 0.28660 0.05230 0.04100
C 	C 	0.49130 0.37500 0.06010 -0.07500
H 	H 	0.51520 0.36690 0.09870 0.07000
C 	C 	0.50350 0.56170 0.96890 0.04800
Cd	Cd	0.11952 0.02988 0.74994 1.21100
O 	O 	0.22243 0.09773 0.74576 -0.36500
O 	O 	0.11723 0.14710 0.75181 -0.37000
O 	O 	0.39760 0.40035 0.76260 -0.33900
O 	O 	0.29620 0.44921 0.73970 -0.39000
O 	O 	0.03356 0.02455 0.82861 -0.38900
O 	O 	0.14020 0.02680 0.87351 -0.33700
C 	C 	0.18530 0.14810 0.74820 0.30300
C 	C 	0.22220 0.21350 0.74910 -0.09200
C 	C 	0.22390 0.25050 0.80600 0.04500
C 	C 	0.19380 0.22630 0.86510 -0.07100
H 	H 	0.17420 0.18460 0.86670 0.07000
C 	C 	0.19390 0.26450 0.91880 -0.03100
H 	H 	0.17480 0.24820 0.95700 0.04300
C 	C 	0.22290 0.32880 0.91740 -0.02200
H 	H 	0.21990 0.35510 0.95370 0.03600
C 	C 	0.25450 0.35150 0.86330 -0.08100
H 	H 	0.27400 0.39330 0.86320 0.07100
C 	C 	0.25860 0.31260 0.80620 0.04900
C 	C 	0.29350 0.33470 0.75000 -0.09800
C 	C 	0.29060 0.29800 0.69290 0.04500
C 	C 	0.32270 0.32150 0.63430 -0.06800
H 	H 	0.34690 0.36130 0.63410 0.05200
C 	C 	0.31800 0.28610 0.57950 -0.03100
H 	H 	0.33790 0.30200 0.54150 0.03900
C 	C 	0.28260 0.22470 0.57980 -0.02600
H 	H 	0.28090 0.20020 0.54220 0.03900
C 	C 	0.25160 0.20120 0.63350 -0.07000
H 	H 	0.22800 0.16110 0.63220 0.05600
C 	C 	0.25420 0.23660 0.69190 0.04400
C 	C 	0.33260 0.39930 0.75110 0.32400
C 	C 	0.07390 0.02200 0.87680 0.32600
C 	C 	0.03680 0.01110 0.94120 -0.09900
C 	C 	0.04090 0.94940 0.97110 0.05300
C 	C 	0.08010 0.89670 0.94310 -0.07900
H 	H 	0.10410 0.90300 0.90420 0.07400
C 	C 	0.08280 0.83760 0.97250 -0.01900
H 	H 	0.10800 0.80360 0.95320 0.04100
C 	C 	0.04760 0.82700 0.03220 -0.03000
H 	H 	0.05140 0.78660 0.05230 0.04400
C 	C 	0.00870 0.87500 0.06010 -0.07000
H 	H 	0.98480 0.86690 0.09870 0.06800
C 	C 	0.99650 0.06170 0.96890 0.04500
Cd	Cd	0.61952 0.47012 0.25006 1.21100
O 	O 	0.72243 0.40227 0.25424 -0.36400
O 	O 	0.61723 0.35290 0.24819 -0.37000
O 	O 	0.89760 0.09965 0.23740 -0.33800
O 	O 	0.79620 0.05079 0.26030 -0.38900
O 	O 	0.53356 0.47545 0.17139 -0.38900
O 	O 	0.64020 0.47320 0.12649 -0.33700
C 	C 	0.68530 0.35190 0.25180 0.30300
C 	C 	0.72220 0.28650 0.25090 -0.09200
C 	C 	0.72390 0.24950 0.19400 0.04500
C 	C 	0.69380 0.27370 0.13490 -0.07100
H 	H 	0.67420 0.31540 0.13330 0.07000
C 	C 	0.69390 0.23550 0.08120 -0.03100
H 	H 	0.67480 0.25180 0.04300 0.04300
C 	C 	0.72290 0.17120 0.08260 -0.02200
H 	H 	0.71990 0.14490 0.04630 0.03600
C 	C 	0.75450 0.14850 0.13670 -0.08100
H 	H 	0.77400 0.10670 0.13680 0.07200
C 	C 	0.75860 0.18740 0.19380 0.04900
C 	C 	0.79350 0.16530 0.25000 -0.09800
C 	C 	0.79060 0.20200 0.30710 0.04500
C 	C 	0.82270 0.17850 0.36570 -0.06800
H 	H 	0.84690 0.13870 0.36590 0.05300
C 	C 	0.81800 0.21390 0.42050 -0.03100
H 	H 	0.83790 0.19800 0.45850 0.03900
C 	C 	0.78260 0.27530 0.42020 -0.02600
H 	H 	0.78090 0.29980 0.45780 0.03900
C 	C 	0.75160 0.29880 0.36650 -0.07000
H 	H 	0.72800 0.33890 0.36780 0.05600
C 	C 	0.75420 0.26340 0.30810 0.04400
C 	C 	0.83260 0.10070 0.24890 0.32400
C 	C 	0.57390 0.47800 0.12320 0.32500
C 	C 	0.53680 0.48890 0.05880 -0.09700
C 	C 	0.54090 0.55060 0.02890 0.04700
C 	C 	0.58010 0.60330 0.05690 -0.07400
H 	H 	0.60410 0.59700 0.09580 0.07200
C 	C 	0.58280 0.66240 0.02750 -0.02700
H 	H 	0.60800 0.69640 0.04680 0.04300
C 	C 	0.54760 0.67300 0.96780 -0.02300
H 	H 	0.55140 0.71340 0.94770 0.04100
C 	C 	0.50870 0.62500 0.93990 -0.07500
H 	H 	0.48480 0.63310 0.90130 0.07000
C 	C 	0.49650 0.43830 0.03110 0.04800
