data_crystal

_cell_length_a 9.62390
_cell_length_b 11.60300
_cell_length_c 14.30500
_cell_angle_alpha 90.00000
_cell_angle_beta  122.46300
_cell_angle_gamma 90.00000

_symmetry_space_group_name_	'P 1'
_symmetry_space_group_name_H-M	'P 1'

loop_
_symmetry_equiv_pos_as_xyz
  x,y,z

loop_
_atom_site_label
_atom_site_type_symbol
_atom_site_fract_x
_atom_site_fract_y
_atom_site_fract_z
_atom_site_charge
Dy	Dy	0.11766 0.98689 0.83232 1.80800
O 	O 	0.20480 0.78776 0.84376 -0.36100
O 	O 	0.89700 0.86288 0.70709 -0.37400
O 	O 	0.80610 0.68170 0.67093 -0.37700
O 	O 	0.11690 0.60625 0.79662 -0.36000
O 	O 	0.34000 0.98878 0.02214 -0.36900
O 	O 	0.01920 0.88221 0.93259 -0.36900
O 	O 	0.96190 0.88866 0.06433 -0.34000
O 	O 	0.61060 0.01101 0.14319 -0.37500
C 	C 	0.09650 0.71280 0.79310 0.25900
C 	C 	0.91710 0.75650 0.71680 0.28100
C 	C 	0.48560 0.99990 0.04830 0.29400
C 	C 	0.99450 0.93360 0.99900 0.27000
Dy	Dy	0.88234 0.48689 0.66768 1.83400
O 	O 	0.79520 0.28776 0.65624 -0.36000
O 	O 	0.10300 0.36288 0.79291 -0.37800
O 	O 	0.19390 0.18170 0.82907 -0.37000
O 	O 	0.88310 0.10625 0.70338 -0.35700
O 	O 	0.66000 0.48878 0.47786 -0.37300
O 	O 	0.98080 0.38221 0.56741 -0.36600
O 	O 	0.03810 0.38866 0.43567 -0.35400
O 	O 	0.38940 0.51101 0.35681 -0.36700
C 	C 	0.90350 0.21280 0.70690 0.25800
C 	C 	0.08290 0.25650 0.78320 0.28300
C 	C 	0.51440 0.49990 0.45170 0.28400
C 	C 	0.00550 0.43360 0.50100 0.27700
Dy	Dy	0.88234 0.01311 0.16768 1.80900
O 	O 	0.79520 0.21224 0.15624 -0.36000
O 	O 	0.10300 0.13712 0.29291 -0.37300
O 	O 	0.19390 0.31830 0.32907 -0.37600
O 	O 	0.88310 0.39375 0.20338 -0.36000
O 	O 	0.66000 0.01122 0.97786 -0.36900
O 	O 	0.98080 0.11779 0.06741 -0.36900
O 	O 	0.03810 0.11134 0.93567 -0.34000
O 	O 	0.38940 0.98899 0.85681 -0.37500
C 	C 	0.90350 0.28720 0.20690 0.25900
C 	C 	0.08290 0.24350 0.28320 0.28100
C 	C 	0.51440 0.00010 0.95170 0.29400
C 	C 	0.00550 0.06640 0.00100 0.27000
Dy	Dy	0.11766 0.51311 0.33232 1.83400
O 	O 	0.20480 0.71224 0.34376 -0.36000
O 	O 	0.89700 0.63712 0.20709 -0.37800
O 	O 	0.80610 0.81830 0.17093 -0.37000
O 	O 	0.11690 0.89375 0.29662 -0.35700
O 	O 	0.34000 0.51122 0.52214 -0.37300
O 	O 	0.01920 0.61779 0.43259 -0.36600
O 	O 	0.96190 0.61134 0.56433 -0.35400
O 	O 	0.61060 0.48899 0.64319 -0.36700
C 	C 	0.09650 0.78720 0.29310 0.25800
C 	C 	0.91710 0.74350 0.21680 0.28300
C 	C 	0.48560 0.50010 0.54830 0.28400
C 	C 	0.99450 0.56640 0.49900 0.27700
