data_crystal

_cell_length_a 9.61910
_cell_length_b 11.60230
_cell_length_c 14.30440
_cell_angle_alpha 90.00000
_cell_angle_beta  122.45600
_cell_angle_gamma 90.00000

_symmetry_space_group_name_	'P 1'
_symmetry_space_group_name_H-M	'P 1'

loop_
_symmetry_equiv_pos_as_xyz
  x,y,z

loop_
_atom_site_label
_atom_site_type_symbol
_atom_site_fract_x
_atom_site_fract_y
_atom_site_fract_z
_atom_site_charge
Dy	Dy	0.38234 0.51298 0.66760 1.83900
O 	O 	0.60320 0.63700 0.79320 -0.38100
O 	O 	0.38400 0.89370 0.70350 -0.35800
O 	O 	0.29520 0.71170 0.65660 -0.36200
O 	O 	0.48000 0.61770 0.56700 -0.36400
O 	O 	0.69330 0.81800 0.82860 -0.37600
O 	O 	0.53830 0.61130 0.43610 -0.35400
O 	O 	0.11110 0.51050 0.64350 -0.36200
O 	O 	0.83920 0.48860 0.52170 -0.37200
C 	C 	0.58340 0.74290 0.78340 0.28500
C 	C 	0.50560 0.56580 0.50090 0.27300
C 	C 	0.40340 0.78680 0.70690 0.26100
C 	C 	0.98450 0.49980 0.54720 0.27600
Dy	Dy	0.61766 0.01298 0.83240 1.82800
O 	O 	0.39680 0.13700 0.70680 -0.38000
O 	O 	0.61600 0.39370 0.79650 -0.36200
O 	O 	0.70480 0.21170 0.84340 -0.36300
O 	O 	0.52000 0.11770 0.93300 -0.36300
O 	O 	0.30670 0.31800 0.67140 -0.37900
O 	O 	0.46170 0.11130 0.06390 -0.34500
O 	O 	0.88890 0.01050 0.85650 -0.36800
O 	O 	0.16080 0.98860 0.97830 -0.36700
C 	C 	0.41660 0.24290 0.71660 0.28500
C 	C 	0.49440 0.06580 0.99910 0.26500
C 	C 	0.59660 0.28680 0.79310 0.26200
C 	C 	0.01550 0.99980 0.95280 0.28200
Dy	Dy	0.61766 0.48702 0.33240 1.83900
O 	O 	0.39680 0.36300 0.20680 -0.38100
O 	O 	0.61600 0.10630 0.29650 -0.35800
O 	O 	0.70480 0.28830 0.34340 -0.36200
O 	O 	0.52000 0.38230 0.43300 -0.36400
O 	O 	0.30670 0.18200 0.17140 -0.37600
O 	O 	0.46170 0.38870 0.56390 -0.35400
O 	O 	0.88890 0.48950 0.35650 -0.36200
O 	O 	0.16080 0.51140 0.47830 -0.37200
C 	C 	0.41660 0.25710 0.21660 0.28500
C 	C 	0.49440 0.43420 0.49910 0.27300
C 	C 	0.59660 0.21320 0.29310 0.26100
C 	C 	0.01550 0.50020 0.45280 0.27600
Dy	Dy	0.38234 0.98702 0.16760 1.82800
O 	O 	0.60320 0.86300 0.29320 -0.38000
O 	O 	0.38400 0.60630 0.20350 -0.36200
O 	O 	0.29520 0.78830 0.15660 -0.36300
O 	O 	0.48000 0.88230 0.06700 -0.36300
O 	O 	0.69330 0.68200 0.32860 -0.37900
O 	O 	0.53830 0.88870 0.93610 -0.34500
O 	O 	0.11110 0.98950 0.14350 -0.36800
O 	O 	0.83920 0.01140 0.02170 -0.36700
C 	C 	0.58340 0.75710 0.28340 0.28500
C 	C 	0.50560 0.93420 0.00090 0.26500
C 	C 	0.40340 0.71320 0.20690 0.26200
C 	C 	0.98450 0.00020 0.04720 0.28200
