data_crystal

_cell_length_a 10.19160
_cell_length_b 16.42200
_cell_length_c 15.56240
_cell_angle_alpha 90.00000
_cell_angle_beta  107.07300
_cell_angle_gamma 90.00000

_symmetry_space_group_name_	'P 1'
_symmetry_space_group_name_H-M	'P 1'

loop_
_symmetry_equiv_pos_as_xyz
  x,y,z

loop_
_atom_site_label
_atom_site_type_symbol
_atom_site_fract_x
_atom_site_fract_y
_atom_site_fract_z
_atom_site_charge
Zn	Zn	0.51175 0.38804 0.14682 1.23500
Zn	Zn	0.23552 0.29204 0.00155 1.20800
O 	O 	0.37160 0.42089 0.20479 -0.45400
O 	O 	0.68550 0.43216 0.23088 -0.39900
O 	O 	0.31550 0.37515 0.93189 -0.46900
O 	O 	0.45820 0.45172 0.03661 -0.48600
O 	O 	0.49840 0.77088 0.82652 -0.48000
O 	O 	0.20100 0.37106 0.09068 -0.51500
O 	O 	0.72710 0.36330 0.11942 -0.33400
O 	O 	0.59740 0.72151 0.96410 -0.48900
O 	O 	0.09470 0.27180 0.88710 -0.46900
H 	H 	0.16240 0.29700 0.87820 0.15700
H 	H 	0.09150 0.28430 0.93940 0.02100
C 	C 	0.39060 0.43640 0.95740 0.41100
C 	C 	0.39440 0.49980 0.88780 -0.10300
C 	C 	0.27300 0.52940 0.63560 0.03000
C 	C 	0.24750 0.40200 0.16540 0.39900
C 	C 	0.45830 0.57460 0.91790 0.03500
H 	H 	0.50050 0.58400 0.97870 0.04800
C 	C 	0.19540 0.45200 0.30450 -0.02000
H 	H 	0.28840 0.46340 0.32850 0.05800
C 	C 	0.14710 0.42140 0.21710 -0.08900
C 	C 	0.10650 0.46610 0.35670 0.00300
C 	C 	0.00780 0.40470 0.18050 0.00600
H 	H 	0.97550 0.38300 0.12290 0.05200
C 	C 	0.91540 0.42060 0.23080 -0.05500
C 	C 	0.33100 0.55950 0.57200 -0.05900
H 	H 	0.40930 0.59180 0.59050 0.05600
C 	C 	0.76750 0.40350 0.18960 0.29100
C 	C 	0.96790 0.45020 0.31820 -0.03200
H 	H 	0.90780 0.45960 0.35200 0.06200
C 	C 	0.33350 0.54510 0.73370 -0.01300
C 	C 	0.27480 0.54270 0.48080 -0.05200
H 	H 	0.31330 0.56580 0.43920 0.05600
C 	C 	0.39410 0.62090 0.76330 -0.01000
H 	H 	0.39220 0.66200 0.72190 0.05200
C 	C 	0.33320 0.48590 0.79810 -0.00400
H 	H 	0.29070 0.43610 0.77980 0.04800
C 	C 	0.16100 0.49140 0.45120 0.02100
C 	C 	0.52350 0.71560 0.88450 0.37600
C 	C 	0.15620 0.48030 0.60520 -0.05900
H 	H 	0.11520 0.45950 0.64660 0.05800
C 	C 	0.45640 0.63440 0.85370 -0.09600
C 	C 	0.10030 0.46210 0.51510 -0.05100
H 	H 	0.02170 0.43010 0.49670 0.05400
Zn	Zn	0.48825 0.88804 0.85318 1.23400
Zn	Zn	0.76448 0.79204 0.99845 1.20600
O 	O 	0.62840 0.92089 0.79521 -0.45400
O 	O 	0.31450 0.93216 0.76912 -0.39800
O 	O 	0.68450 0.87515 0.06811 -0.46800
O 	O 	0.54180 0.95172 0.96339 -0.48600
O 	O 	0.50160 0.27088 0.17348 -0.48000
O 	O 	0.79900 0.87106 0.90932 -0.51500
O 	O 	0.27290 0.86330 0.88058 -0.33400
O 	O 	0.40260 0.22151 0.03590 -0.49000
O 	O 	0.90530 0.77180 0.11290 -0.46700
H 	H 	0.83760 0.79700 0.12180 0.15700
H 	H 	0.90850 0.78430 0.06060 0.02200
C 	C 	0.60940 0.93640 0.04260 0.41200
C 	C 	0.60560 0.99980 0.11220 -0.09400
C 	C 	0.72700 0.02940 0.36440 0.01300
C 	C 	0.75250 0.90200 0.83460 0.39900
C 	C 	0.54170 0.07460 0.08210 0.02300
H 	H 	0.49950 0.08400 0.02130 0.05000
C 	C 	0.80460 0.95200 0.69550 -0.01500
H 	H 	0.71160 0.96340 0.67150 0.05800
C 	C 	0.85290 0.92140 0.78290 -0.09000
C 	C 	0.89350 0.96610 0.64330 -0.00500
C 	C 	0.99220 0.90470 0.81950 0.00700
H 	H 	0.02450 0.88300 0.87710 0.05200
C 	C 	0.08460 0.92060 0.76920 -0.05600
C 	C 	0.66900 0.05950 0.42800 -0.04400
H 	H 	0.59070 0.09180 0.40950 0.05000
C 	C 	0.23250 0.90350 0.81040 0.29100
C 	C 	0.03210 0.95020 0.68180 -0.02800
H 	H 	0.09220 0.95960 0.64800 0.06100
C 	C 	0.66650 0.04510 0.26630 -0.01400
C 	C 	0.72520 0.04270 0.51920 -0.07300
H 	H 	0.68670 0.06580 0.56080 0.06100
C 	C 	0.60590 0.12090 0.23670 -0.01400
H 	H 	0.60780 0.16200 0.27810 0.05300
C 	C 	0.66680 0.98590 0.20190 -0.00100
H 	H 	0.70930 0.93610 0.22020 0.04900
C 	C 	0.83900 0.99140 0.54880 0.04000
C 	C 	0.47650 0.21560 0.11550 0.37400
C 	C 	0.84380 0.98030 0.39480 -0.03700
H 	H 	0.88480 0.95950 0.35340 0.05200
C 	C 	0.54360 0.13440 0.14630 -0.09300
C 	C 	0.89970 0.96210 0.48490 -0.06700
H 	H 	0.97830 0.93010 0.50330 0.06000
