data_crystal

_cell_length_a 26.70630
_cell_length_b 19.51300
_cell_length_c 28.89380
_cell_angle_alpha 90.00000
_cell_angle_beta  90.00000
_cell_angle_gamma 90.00000

_symmetry_space_group_name_	'P 1'
_symmetry_space_group_name_H-M	'P 1'

loop_
_symmetry_equiv_pos_as_xyz
  x,y,z

loop_
_atom_site_label
_atom_site_type_symbol
_atom_site_fract_x
_atom_site_fract_y
_atom_site_fract_z
_atom_site_charge
Cd	Cd	0.52018 0.72844 0.01550 1.23400
Cd	Cd	0.46481 0.86889 0.07853 1.16400
Cd	Cd	0.84745 0.87875 0.20439 1.16200
Cd	Cd	0.76401 0.74367 0.24557 1.23600
O 	O 	0.72258 0.35259 0.77178 -0.38100
O 	O 	0.69189 0.25249 0.79171 -0.38000
O 	O 	0.55938 0.23964 0.91161 -0.51600
O 	O 	0.52592 0.33546 0.93933 -0.44100
O 	O 	0.69548 0.65725 0.77033 -0.53400
O 	O 	0.68883 0.74730 0.81642 -0.37100
O 	O 	0.58073 0.72961 0.95752 -0.37100
O 	O 	0.54891 0.62978 0.97649 -0.36700
O 	O 	0.54207 0.82806 0.05332 -0.54300
O 	O 	0.59100 0.74203 0.07249 -0.36300
O 	O 	0.55021 0.12524 0.99713 -0.49000
O 	O 	0.53824 0.22609 0.03240 -0.44100
O 	O 	0.63804 0.27252 0.17458 -0.49100
O 	O 	0.67949 0.18549 0.20722 -0.45000
O 	O 	0.73106 0.79104 0.18306 -0.45200
O 	O 	0.77077 0.89122 0.17304 -0.47400
C 	C 	0.55601 0.30280 0.91375 0.39000
C 	C 	0.59121 0.34420 0.88414 -0.12000
C 	C 	0.62287 0.31210 0.85319 0.03400
H 	H 	0.62170 0.26370 0.84960 0.01900
C 	C 	0.65662 0.35090 0.82728 -0.09100
C 	C 	0.69198 0.31640 0.79484 0.30000
C 	C 	0.65803 0.42120 0.83323 -0.02300
H 	H 	0.68160 0.44730 0.81610 0.03800
C 	C 	0.62589 0.45482 0.86364 -0.01800
C 	C 	0.59218 0.41530 0.88882 -0.01000
H 	H 	0.56950 0.43700 0.90950 0.04400
C 	C 	0.62772 0.53080 0.86988 -0.00200
C 	C 	0.65210 0.57180 0.83724 -0.03400
H 	H 	0.66710 0.55140 0.81080 0.01200
C 	C 	0.65447 0.64270 0.84338 -0.10300
C 	C 	0.63147 0.67350 0.88098 0.01000
H 	H 	0.63340 0.72170 0.88510 0.05000
C 	C 	0.60541 0.63330 0.91284 -0.06900
C 	C 	0.60447 0.56240 0.90720 -0.03900
H 	H 	0.58750 0.53510 0.92940 0.05600
C 	C 	0.68090 0.68576 0.80828 0.31000
C 	C 	0.57675 0.66610 0.95168 0.29600
C 	C 	0.58079 0.80430 0.07340 0.33000
C 	C 	0.61560 0.85410 0.09653 -0.12400
C 	C 	0.65652 0.83100 0.12133 0.04600
H 	H 	0.66180 0.78310 0.12500 0.03500
C 	C 	0.69012 0.87710 0.14104 -0.11900
C 	C 	0.68131 0.94730 0.13655 -0.00600
H 	H 	0.70450 0.97900 0.14930 0.03600
C 	C 	0.63855 0.97200 0.11337 -0.02000
C 	C 	0.60622 0.92420 0.09320 -0.01000
H 	H 	0.57740 0.93980 0.07700 -0.00200
C 	C 	0.62739 0.04670 0.10988 -0.01800
C 	C 	0.60026 0.07290 0.07242 -0.00900
H 	H 	0.59140 0.04320 0.04770 0.02700
C 	C 	0.58592 0.14150 0.07064 -0.12500
C 	C 	0.60088 0.18550 0.10580 0.05100
H 	H 	0.59060 0.23210 0.10520 0.02200
C 	C 	0.63059 0.16210 0.14171 -0.12300
C 	C 	0.64333 0.09270 0.14408 -0.00700
H 	H 	0.66300 0.07660 0.16920 0.04100
C 	C 	0.65096 0.21100 0.17721 0.39100
C 	C 	0.55584 0.16670 0.02990 0.38600
C 	C 	0.73443 0.85130 0.16779 0.38700
Cd	Cd	0.97982 0.77156 0.51550 1.23500
Cd	Cd	0.03519 0.63111 0.57853 1.16500
Cd	Cd	0.65255 0.62125 0.70439 1.16300
Cd	Cd	0.73599 0.75633 0.74557 1.23700
O 	O 	0.77742 0.14741 0.27178 -0.38000
O 	O 	0.80811 0.24751 0.29171 -0.37900
O 	O 	0.94062 0.26036 0.41161 -0.51500
O 	O 	0.97408 0.16454 0.43933 -0.44000
O 	O 	0.80452 0.84275 0.27033 -0.53300
O 	O 	0.81117 0.75270 0.31642 -0.37000
O 	O 	0.91927 0.77039 0.45752 -0.37000
O 	O 	0.95109 0.87022 0.47649 -0.36500
O 	O 	0.95793 0.67194 0.55332 -0.54200
O 	O 	0.90900 0.75797 0.57249 -0.36200
O 	O 	0.94979 0.37476 0.49713 -0.48800
O 	O 	0.96176 0.27391 0.53240 -0.43900
O 	O 	0.86196 0.22748 0.67458 -0.49000
O 	O 	0.82051 0.31451 0.70722 -0.44900
O 	O 	0.76894 0.70896 0.68306 -0.45100
O 	O 	0.72923 0.60878 0.67304 -0.47200
C 	C 	0.94399 0.19720 0.41375 0.39100
C 	C 	0.90879 0.15580 0.38414 -0.11800
C 	C 	0.87713 0.18790 0.35319 0.03500
H 	H 	0.87830 0.23630 0.34960 0.02100
C 	C 	0.84338 0.14910 0.32728 -0.09000
C 	C 	0.80802 0.18360 0.29484 0.30100
C 	C 	0.84197 0.07880 0.33323 -0.02200
H 	H 	0.81840 0.05270 0.31610 0.03900
C 	C 	0.87411 0.04518 0.36364 -0.01700
C 	C 	0.90782 0.08470 0.38882 -0.00900
H 	H 	0.93050 0.06300 0.40950 0.04400
C 	C 	0.87228 0.96920 0.36988 -0.00200
C 	C 	0.84790 0.92820 0.33724 -0.03400
H 	H 	0.83290 0.94860 0.31080 0.01200
C 	C 	0.84553 0.85730 0.34338 -0.10300
C 	C 	0.86853 0.82650 0.38098 0.01000
H 	H 	0.86660 0.77830 0.38510 0.05000
C 	C 	0.89459 0.86670 0.41284 -0.06900
C 	C 	0.89553 0.93760 0.40720 -0.03900
H 	H 	0.91250 0.96490 0.42940 0.05600
C 	C 	0.81910 0.81424 0.30828 0.31000
C 	C 	0.92325 0.83390 0.45168 0.29600
C 	C 	0.91921 0.69570 0.57340 0.33000
C 	C 	0.88440 0.64590 0.59653 -0.12400
C 	C 	0.84348 0.66900 0.62133 0.04600
H 	H 	0.83820 0.71690 0.62500 0.03500
C 	C 	0.80988 0.62290 0.64104 -0.11900
C 	C 	0.81869 0.55270 0.63655 -0.00600
H 	H 	0.79550 0.52100 0.64930 0.03600
C 	C 	0.86145 0.52800 0.61337 -0.02000
C 	C 	0.89378 0.57580 0.59320 -0.01000
H 	H 	0.92260 0.56020 0.57700 -0.00200
C 	C 	0.87261 0.45330 0.60988 -0.01800
C 	C 	0.89974 0.42710 0.57242 -0.00900
H 	H 	0.90860 0.45680 0.54770 0.02700
C 	C 	0.91408 0.35850 0.57064 -0.12400
C 	C 	0.89912 0.31450 0.60580 0.05100
H 	H 	0.90940 0.26790 0.60520 0.02200
C 	C 	0.86941 0.33790 0.64171 -0.12300
C 	C 	0.85667 0.40730 0.64408 -0.00700
H 	H 	0.83700 0.42340 0.66920 0.04100
C 	C 	0.84904 0.28900 0.67721 0.39100
C 	C 	0.94416 0.33330 0.52990 0.38600
C 	C 	0.76557 0.64870 0.66779 0.38700
Cd	Cd	0.47982 0.72844 0.48450 1.23500
Cd	Cd	0.53519 0.86889 0.42147 1.16500
Cd	Cd	0.15255 0.87875 0.29561 1.16300
Cd	Cd	0.23599 0.74367 0.25443 1.23700
O 	O 	0.27742 0.35259 0.72822 -0.38000
O 	O 	0.30811 0.25249 0.70829 -0.37900
O 	O 	0.44062 0.23964 0.58839 -0.51500
O 	O 	0.47408 0.33546 0.56067 -0.44000
O 	O 	0.30452 0.65725 0.72967 -0.53300
O 	O 	0.31117 0.74730 0.68358 -0.37000
O 	O 	0.41927 0.72961 0.54248 -0.37000
O 	O 	0.45109 0.62978 0.52351 -0.36600
O 	O 	0.45793 0.82806 0.44668 -0.54200
O 	O 	0.40900 0.74203 0.42751 -0.36200
O 	O 	0.44979 0.12524 0.50287 -0.48800
O 	O 	0.46176 0.22609 0.46760 -0.44000
O 	O 	0.36196 0.27252 0.32542 -0.49000
O 	O 	0.32051 0.18549 0.29278 -0.44900
O 	O 	0.26894 0.79104 0.31694 -0.45100
O 	O 	0.22923 0.89122 0.32696 -0.47200
C 	C 	0.44399 0.30280 0.58625 0.39100
C 	C 	0.40879 0.34420 0.61586 -0.11900
C 	C 	0.37713 0.31210 0.64681 0.03500
H 	H 	0.37830 0.26370 0.65040 0.02000
C 	C 	0.34338 0.35090 0.67272 -0.09000
C 	C 	0.30802 0.31640 0.70516 0.30100
C 	C 	0.34197 0.42120 0.66677 -0.02200
H 	H 	0.31840 0.44730 0.68390 0.03900
C 	C 	0.37411 0.45482 0.63636 -0.01700
C 	C 	0.40782 0.41530 0.61118 -0.00900
H 	H 	0.43050 0.43700 0.59050 0.04400
C 	C 	0.37228 0.53080 0.63012 -0.00200
C 	C 	0.34790 0.57180 0.66276 -0.03400
H 	H 	0.33290 0.55140 0.68920 0.01200
C 	C 	0.34553 0.64270 0.65662 -0.10300
C 	C 	0.36853 0.67350 0.61902 0.01000
H 	H 	0.36660 0.72170 0.61490 0.05000
C 	C 	0.39459 0.63330 0.58716 -0.06900
C 	C 	0.39553 0.56240 0.59280 -0.03900
H 	H 	0.41250 0.53510 0.57060 0.05600
C 	C 	0.31910 0.68576 0.69172 0.31000
C 	C 	0.42325 0.66610 0.54832 0.29600
C 	C 	0.41921 0.80430 0.42660 0.33000
C 	C 	0.38440 0.85410 0.40347 -0.12400
C 	C 	0.34348 0.83100 0.37867 0.04600
H 	H 	0.33820 0.78310 0.37500 0.03500
C 	C 	0.30988 0.87710 0.35896 -0.11900
C 	C 	0.31869 0.94730 0.36345 -0.00600
H 	H 	0.29550 0.97900 0.35070 0.03600
C 	C 	0.36145 0.97200 0.38663 -0.02000
C 	C 	0.39378 0.92420 0.40680 -0.01000
H 	H 	0.42260 0.93980 0.42300 -0.00200
C 	C 	0.37261 0.04670 0.39012 -0.01800
C 	C 	0.39974 0.07290 0.42758 -0.00900
H 	H 	0.40860 0.04320 0.45230 0.02700
C 	C 	0.41408 0.14150 0.42936 -0.12500
C 	C 	0.39912 0.18550 0.39420 0.05100
H 	H 	0.40940 0.23210 0.39480 0.02200
C 	C 	0.36941 0.16210 0.35829 -0.12300
C 	C 	0.35667 0.09270 0.35592 -0.00700
H 	H 	0.33700 0.07660 0.33080 0.04100
C 	C 	0.34904 0.21100 0.32279 0.39100
C 	C 	0.44416 0.16670 0.47010 0.38600
C 	C 	0.26557 0.85130 0.33221 0.38700
Cd	Cd	0.02018 0.77156 0.98450 1.23500
Cd	Cd	0.96481 0.63111 0.92147 1.16500
Cd	Cd	0.34745 0.62125 0.79561 1.16300
Cd	Cd	0.26401 0.75633 0.75443 1.23700
O 	O 	0.22258 0.14741 0.22822 -0.38000
O 	O 	0.19189 0.24751 0.20829 -0.37900
O 	O 	0.05938 0.26036 0.08839 -0.51500
O 	O 	0.02592 0.16454 0.06067 -0.44000
O 	O 	0.19548 0.84275 0.22967 -0.53300
O 	O 	0.18883 0.75270 0.18358 -0.37000
O 	O 	0.08073 0.77039 0.04248 -0.37000
O 	O 	0.04891 0.87022 0.02351 -0.36500
O 	O 	0.04207 0.67194 0.94668 -0.54200
O 	O 	0.09100 0.75797 0.92751 -0.36200
O 	O 	0.05021 0.37476 0.00287 -0.48700
O 	O 	0.03824 0.27391 0.96760 -0.44000
O 	O 	0.13804 0.22748 0.82542 -0.49000
O 	O 	0.17949 0.31451 0.79278 -0.44900
O 	O 	0.23106 0.70896 0.81694 -0.45100
O 	O 	0.27077 0.60878 0.82696 -0.47200
C 	C 	0.05601 0.19720 0.08625 0.39100
C 	C 	0.09121 0.15580 0.11586 -0.11800
C 	C 	0.12287 0.18790 0.14681 0.03500
H 	H 	0.12170 0.23630 0.15040 0.02100
C 	C 	0.15662 0.14910 0.17272 -0.09000
C 	C 	0.19198 0.18360 0.20516 0.30100
C 	C 	0.15803 0.07880 0.16677 -0.02200
H 	H 	0.18160 0.05270 0.18390 0.03900
C 	C 	0.12589 0.04518 0.13636 -0.01700
C 	C 	0.09218 0.08470 0.11118 -0.00900
H 	H 	0.06950 0.06300 0.09050 0.04400
C 	C 	0.12772 0.96920 0.13012 -0.00200
C 	C 	0.15210 0.92820 0.16276 -0.03400
H 	H 	0.16710 0.94860 0.18920 0.01200
C 	C 	0.15447 0.85730 0.15662 -0.10300
C 	C 	0.13147 0.82650 0.11902 0.01000
H 	H 	0.13340 0.77830 0.11490 0.05000
C 	C 	0.10541 0.86670 0.08716 -0.06900
C 	C 	0.10447 0.93760 0.09280 -0.03900
H 	H 	0.08750 0.96490 0.07060 0.05600
C 	C 	0.18090 0.81424 0.19172 0.31000
C 	C 	0.07675 0.83390 0.04832 0.29600
C 	C 	0.08079 0.69570 0.92660 0.33000
C 	C 	0.11560 0.64590 0.90347 -0.12400
C 	C 	0.15652 0.66900 0.87867 0.04600
H 	H 	0.16180 0.71690 0.87500 0.03500
C 	C 	0.19012 0.62290 0.85896 -0.11900
C 	C 	0.18131 0.55270 0.86345 -0.00600
H 	H 	0.20450 0.52100 0.85070 0.03600
C 	C 	0.13855 0.52800 0.88663 -0.02000
C 	C 	0.10622 0.57580 0.90680 -0.01000
H 	H 	0.07740 0.56020 0.92300 -0.00200
C 	C 	0.12739 0.45330 0.89012 -0.01800
C 	C 	0.10026 0.42710 0.92758 -0.00900
H 	H 	0.09140 0.45680 0.95230 0.02700
C 	C 	0.08592 0.35850 0.92936 -0.12400
C 	C 	0.10088 0.31450 0.89420 0.05100
H 	H 	0.09060 0.26790 0.89480 0.02200
C 	C 	0.13059 0.33790 0.85829 -0.12300
C 	C 	0.14333 0.40730 0.85592 -0.00700
H 	H 	0.16300 0.42340 0.83080 0.04100
C 	C 	0.15096 0.28900 0.82279 0.39100
C 	C 	0.05584 0.33330 0.97010 0.38500
C 	C 	0.23443 0.64870 0.83221 0.38700
Cd	Cd	0.47982 0.27156 0.98450 1.23500
Cd	Cd	0.53519 0.13111 0.92147 1.16500
Cd	Cd	0.15255 0.12125 0.79561 1.16300
Cd	Cd	0.23599 0.25633 0.75443 1.23700
O 	O 	0.27742 0.64741 0.22822 -0.38000
O 	O 	0.30811 0.74751 0.20829 -0.37900
O 	O 	0.44062 0.76036 0.08839 -0.51500
O 	O 	0.47408 0.66454 0.06067 -0.44000
O 	O 	0.30452 0.34275 0.22967 -0.53300
O 	O 	0.31117 0.25270 0.18358 -0.37000
O 	O 	0.41927 0.27039 0.04248 -0.37000
O 	O 	0.45109 0.37022 0.02351 -0.36600
O 	O 	0.45793 0.17194 0.94668 -0.54200
O 	O 	0.40900 0.25797 0.92751 -0.36200
O 	O 	0.44979 0.87476 0.00287 -0.48900
O 	O 	0.46176 0.77391 0.96760 -0.44000
O 	O 	0.36196 0.72748 0.82542 -0.49000
O 	O 	0.32051 0.81451 0.79278 -0.44900
O 	O 	0.26894 0.20896 0.81694 -0.45100
O 	O 	0.22923 0.10878 0.82696 -0.47300
C 	C 	0.44399 0.69720 0.08625 0.39100
C 	C 	0.40879 0.65580 0.11586 -0.11900
C 	C 	0.37713 0.68790 0.14681 0.03500
H 	H 	0.37830 0.73630 0.15040 0.02000
C 	C 	0.34338 0.64910 0.17272 -0.09000
C 	C 	0.30802 0.68360 0.20516 0.30100
C 	C 	0.34197 0.57880 0.16677 -0.02200
H 	H 	0.31840 0.55270 0.18390 0.03900
C 	C 	0.37411 0.54518 0.13636 -0.01700
C 	C 	0.40782 0.58470 0.11118 -0.00900
H 	H 	0.43050 0.56300 0.09050 0.04400
C 	C 	0.37228 0.46920 0.13012 -0.00200
C 	C 	0.34790 0.42820 0.16276 -0.03400
H 	H 	0.33290 0.44860 0.18920 0.01200
C 	C 	0.34553 0.35730 0.15662 -0.10300
C 	C 	0.36853 0.32650 0.11902 0.01000
H 	H 	0.36660 0.27830 0.11490 0.05000
C 	C 	0.39459 0.36670 0.08716 -0.06900
C 	C 	0.39553 0.43760 0.09280 -0.03900
H 	H 	0.41250 0.46490 0.07060 0.05600
C 	C 	0.31910 0.31424 0.19172 0.31000
C 	C 	0.42325 0.33390 0.04832 0.29600
C 	C 	0.41921 0.19570 0.92660 0.33000
C 	C 	0.38440 0.14590 0.90347 -0.12400
C 	C 	0.34348 0.16900 0.87867 0.04600
H 	H 	0.33820 0.21690 0.87500 0.03500
C 	C 	0.30988 0.12290 0.85896 -0.11900
C 	C 	0.31869 0.05270 0.86345 -0.00600
H 	H 	0.29550 0.02100 0.85070 0.03600
C 	C 	0.36145 0.02800 0.88663 -0.02000
C 	C 	0.39378 0.07580 0.90680 -0.01000
H 	H 	0.42260 0.06020 0.92300 -0.00200
C 	C 	0.37261 0.95330 0.89012 -0.01800
C 	C 	0.39974 0.92710 0.92758 -0.00900
H 	H 	0.40860 0.95680 0.95230 0.02700
C 	C 	0.41408 0.85850 0.92936 -0.12500
C 	C 	0.39912 0.81450 0.89420 0.05100
H 	H 	0.40940 0.76790 0.89480 0.02200
C 	C 	0.36941 0.83790 0.85829 -0.12300
C 	C 	0.35667 0.90730 0.85592 -0.00700
H 	H 	0.33700 0.92340 0.83080 0.04100
C 	C 	0.34904 0.78900 0.82279 0.39100
C 	C 	0.44416 0.83330 0.97010 0.38600
C 	C 	0.26557 0.14870 0.83221 0.38700
Cd	Cd	0.02018 0.22844 0.48450 1.23500
Cd	Cd	0.96481 0.36889 0.42147 1.16500
Cd	Cd	0.34745 0.37875 0.29561 1.16300
Cd	Cd	0.26401 0.24367 0.25443 1.23700
O 	O 	0.22258 0.85259 0.72822 -0.38000
O 	O 	0.19189 0.75249 0.70829 -0.37900
O 	O 	0.05938 0.73964 0.58839 -0.51500
O 	O 	0.02592 0.83546 0.56067 -0.44000
O 	O 	0.19548 0.15725 0.72967 -0.53300
O 	O 	0.18883 0.24730 0.68358 -0.37000
O 	O 	0.08073 0.22961 0.54248 -0.37000
O 	O 	0.04891 0.12978 0.52351 -0.36500
O 	O 	0.04207 0.32806 0.44668 -0.54200
O 	O 	0.09100 0.24203 0.42751 -0.36200
O 	O 	0.05021 0.62524 0.50287 -0.48800
O 	O 	0.03824 0.72609 0.46760 -0.43900
O 	O 	0.13804 0.77252 0.32542 -0.49000
O 	O 	0.17949 0.68549 0.29278 -0.44900
O 	O 	0.23106 0.29104 0.31694 -0.45100
O 	O 	0.27077 0.39122 0.32696 -0.47200
C 	C 	0.05601 0.80280 0.58625 0.39100
C 	C 	0.09121 0.84420 0.61586 -0.11800
C 	C 	0.12287 0.81210 0.64681 0.03500
H 	H 	0.12170 0.76370 0.65040 0.02100
C 	C 	0.15662 0.85090 0.67272 -0.09000
C 	C 	0.19198 0.81640 0.70516 0.30100
C 	C 	0.15803 0.92120 0.66677 -0.02200
H 	H 	0.18160 0.94730 0.68390 0.03900
C 	C 	0.12589 0.95482 0.63636 -0.01700
C 	C 	0.09218 0.91530 0.61118 -0.00900
H 	H 	0.06950 0.93700 0.59050 0.04400
C 	C 	0.12772 0.03080 0.63012 -0.00200
C 	C 	0.15210 0.07180 0.66276 -0.03400
H 	H 	0.16710 0.05140 0.68920 0.01200
C 	C 	0.15447 0.14270 0.65662 -0.10300
C 	C 	0.13147 0.17350 0.61902 0.01000
H 	H 	0.13340 0.22170 0.61490 0.05000
C 	C 	0.10541 0.13330 0.58716 -0.06900
C 	C 	0.10447 0.06240 0.59280 -0.03900
H 	H 	0.08750 0.03510 0.57060 0.05600
C 	C 	0.18090 0.18576 0.69172 0.31000
C 	C 	0.07675 0.16610 0.54832 0.29600
C 	C 	0.08079 0.30430 0.42660 0.33000
C 	C 	0.11560 0.35410 0.40347 -0.12400
C 	C 	0.15652 0.33100 0.37867 0.04600
H 	H 	0.16180 0.28310 0.37500 0.03500
C 	C 	0.19012 0.37710 0.35896 -0.11900
C 	C 	0.18131 0.44730 0.36345 -0.00600
H 	H 	0.20450 0.47900 0.35070 0.03600
C 	C 	0.13855 0.47200 0.38663 -0.02000
C 	C 	0.10622 0.42420 0.40680 -0.01000
H 	H 	0.07740 0.43980 0.42300 -0.00200
C 	C 	0.12739 0.54670 0.39012 -0.01800
C 	C 	0.10026 0.57290 0.42758 -0.00900
H 	H 	0.09140 0.54320 0.45230 0.02700
C 	C 	0.08592 0.64150 0.42936 -0.12400
C 	C 	0.10088 0.68550 0.39420 0.05100
H 	H 	0.09060 0.73210 0.39480 0.02200
C 	C 	0.13059 0.66210 0.35829 -0.12300
C 	C 	0.14333 0.59270 0.35592 -0.00700
H 	H 	0.16300 0.57660 0.33080 0.04100
C 	C 	0.15096 0.71100 0.32279 0.39100
C 	C 	0.05584 0.66670 0.47010 0.38600
C 	C 	0.23443 0.35130 0.33221 0.38700
Cd	Cd	0.52018 0.27156 0.51550 1.23500
Cd	Cd	0.46481 0.13111 0.57853 1.16500
Cd	Cd	0.84745 0.12125 0.70439 1.16300
Cd	Cd	0.76401 0.25633 0.74557 1.23700
O 	O 	0.72258 0.64741 0.27178 -0.38000
O 	O 	0.69189 0.74751 0.29171 -0.37900
O 	O 	0.55938 0.76036 0.41161 -0.51500
O 	O 	0.52592 0.66454 0.43933 -0.44000
O 	O 	0.69548 0.34275 0.27033 -0.53300
O 	O 	0.68883 0.25270 0.31642 -0.37000
O 	O 	0.58073 0.27039 0.45752 -0.37000
O 	O 	0.54891 0.37022 0.47649 -0.36600
O 	O 	0.54207 0.17194 0.55332 -0.54200
O 	O 	0.59100 0.25797 0.57249 -0.36200
O 	O 	0.55021 0.87476 0.49713 -0.48800
O 	O 	0.53824 0.77391 0.53240 -0.44000
O 	O 	0.63804 0.72748 0.67458 -0.49000
O 	O 	0.67949 0.81451 0.70722 -0.44900
O 	O 	0.73106 0.20896 0.68306 -0.45100
O 	O 	0.77077 0.10878 0.67304 -0.47200
C 	C 	0.55601 0.69720 0.41375 0.39100
C 	C 	0.59121 0.65580 0.38414 -0.11900
C 	C 	0.62287 0.68790 0.35319 0.03500
H 	H 	0.62170 0.73630 0.34960 0.02000
C 	C 	0.65662 0.64910 0.32728 -0.09000
C 	C 	0.69198 0.68360 0.29484 0.30100
C 	C 	0.65803 0.57880 0.33323 -0.02200
H 	H 	0.68160 0.55270 0.31610 0.03900
C 	C 	0.62589 0.54518 0.36364 -0.01700
C 	C 	0.59218 0.58470 0.38882 -0.00900
H 	H 	0.56950 0.56300 0.40950 0.04400
C 	C 	0.62772 0.46920 0.36988 -0.00200
C 	C 	0.65210 0.42820 0.33724 -0.03400
H 	H 	0.66710 0.44860 0.31080 0.01200
C 	C 	0.65447 0.35730 0.34338 -0.10300
C 	C 	0.63147 0.32650 0.38098 0.01000
H 	H 	0.63340 0.27830 0.38510 0.05000
C 	C 	0.60541 0.36670 0.41284 -0.06900
C 	C 	0.60447 0.43760 0.40720 -0.03900
H 	H 	0.58750 0.46490 0.42940 0.05600
C 	C 	0.68090 0.31424 0.30828 0.31000
C 	C 	0.57675 0.33390 0.45168 0.29600
C 	C 	0.58079 0.19570 0.57340 0.33000
C 	C 	0.61560 0.14590 0.59653 -0.12400
C 	C 	0.65652 0.16900 0.62133 0.04600
H 	H 	0.66180 0.21690 0.62500 0.03500
C 	C 	0.69012 0.12290 0.64104 -0.11900
C 	C 	0.68131 0.05270 0.63655 -0.00600
H 	H 	0.70450 0.02100 0.64930 0.03600
C 	C 	0.63855 0.02800 0.61337 -0.02000
C 	C 	0.60622 0.07580 0.59320 -0.01000
H 	H 	0.57740 0.06020 0.57700 -0.00200
C 	C 	0.62739 0.95330 0.60988 -0.01800
C 	C 	0.60026 0.92710 0.57242 -0.00900
H 	H 	0.59140 0.95680 0.54770 0.02700
C 	C 	0.58592 0.85850 0.57064 -0.12500
C 	C 	0.60088 0.81450 0.60580 0.05100
H 	H 	0.59060 0.76790 0.60520 0.02200
C 	C 	0.63059 0.83790 0.64171 -0.12300
C 	C 	0.64333 0.90730 0.64408 -0.00700
H 	H 	0.66300 0.92340 0.66920 0.04100
C 	C 	0.65096 0.78900 0.67721 0.39100
C 	C 	0.55584 0.83330 0.52990 0.38600
C 	C 	0.73443 0.14870 0.66779 0.38700
Cd	Cd	0.97982 0.22844 0.01550 1.23500
Cd	Cd	0.03519 0.36889 0.07853 1.16500
Cd	Cd	0.65255 0.37875 0.20439 1.16300
Cd	Cd	0.73599 0.24367 0.24557 1.23700
O 	O 	0.77742 0.85259 0.77178 -0.38000
O 	O 	0.80811 0.75249 0.79171 -0.37900
O 	O 	0.94062 0.73964 0.91161 -0.51500
O 	O 	0.97408 0.83546 0.93933 -0.44000
O 	O 	0.80452 0.15725 0.77033 -0.53300
O 	O 	0.81117 0.24730 0.81642 -0.37000
O 	O 	0.91927 0.22961 0.95752 -0.37000
O 	O 	0.95109 0.12978 0.97649 -0.36500
O 	O 	0.95793 0.32806 0.05332 -0.54200
O 	O 	0.90900 0.24203 0.07249 -0.36200
O 	O 	0.94979 0.62524 0.99713 -0.48700
O 	O 	0.96176 0.72609 0.03240 -0.44000
O 	O 	0.86196 0.77252 0.17458 -0.49000
O 	O 	0.82051 0.68549 0.20722 -0.44900
O 	O 	0.76894 0.29104 0.18306 -0.45100
O 	O 	0.72923 0.39122 0.17304 -0.47200
C 	C 	0.94399 0.80280 0.91375 0.39100
C 	C 	0.90879 0.84420 0.88414 -0.11800
C 	C 	0.87713 0.81210 0.85319 0.03500
H 	H 	0.87830 0.76370 0.84960 0.02100
C 	C 	0.84338 0.85090 0.82728 -0.09000
C 	C 	0.80802 0.81640 0.79484 0.30100
C 	C 	0.84197 0.92120 0.83323 -0.02200
H 	H 	0.81840 0.94730 0.81610 0.03900
C 	C 	0.87411 0.95482 0.86364 -0.01700
C 	C 	0.90782 0.91530 0.88882 -0.00900
H 	H 	0.93050 0.93700 0.90950 0.04400
C 	C 	0.87228 0.03080 0.86988 -0.00200
C 	C 	0.84790 0.07180 0.83724 -0.03400
H 	H 	0.83290 0.05140 0.81080 0.01200
C 	C 	0.84553 0.14270 0.84338 -0.10300
C 	C 	0.86853 0.17350 0.88098 0.01000
H 	H 	0.86660 0.22170 0.88510 0.05000
C 	C 	0.89459 0.13330 0.91284 -0.06900
C 	C 	0.89553 0.06240 0.90720 -0.03900
H 	H 	0.91250 0.03510 0.92940 0.05600
C 	C 	0.81910 0.18576 0.80828 0.31000
C 	C 	0.92325 0.16610 0.95168 0.29600
C 	C 	0.91921 0.30430 0.07340 0.33000
C 	C 	0.88440 0.35410 0.09653 -0.12400
C 	C 	0.84348 0.33100 0.12133 0.04600
H 	H 	0.83820 0.28310 0.12500 0.03500
C 	C 	0.80988 0.37710 0.14104 -0.11900
C 	C 	0.81869 0.44730 0.13655 -0.00600
H 	H 	0.79550 0.47900 0.14930 0.03600
C 	C 	0.86145 0.47200 0.11337 -0.02000
C 	C 	0.89378 0.42420 0.09320 -0.01000
H 	H 	0.92260 0.43980 0.07700 -0.00200
C 	C 	0.87261 0.54670 0.10988 -0.01800
C 	C 	0.89974 0.57290 0.07242 -0.00900
H 	H 	0.90860 0.54320 0.04770 0.02700
C 	C 	0.91408 0.64150 0.07064 -0.12400
C 	C 	0.89912 0.68550 0.10580 0.05100
H 	H 	0.90940 0.73210 0.10520 0.02200
C 	C 	0.86941 0.66210 0.14171 -0.12300
C 	C 	0.85667 0.59270 0.14408 -0.00700
H 	H 	0.83700 0.57660 0.16920 0.04100
C 	C 	0.84904 0.71100 0.17721 0.39100
C 	C 	0.94416 0.66670 0.02990 0.38500
C 	C 	0.76557 0.35130 0.16779 0.38700
