data_crystal

_cell_length_a 12.80970
_cell_length_b 8.17850
_cell_length_c 23.33870
_cell_angle_alpha 90.00000
_cell_angle_beta  104.41400
_cell_angle_gamma 90.00000

_symmetry_space_group_name_	'P 1'
_symmetry_space_group_name_H-M	'P 1'

loop_
_symmetry_equiv_pos_as_xyz
  x,y,z

loop_
_atom_site_label
_atom_site_type_symbol
_atom_site_fract_x
_atom_site_fract_y
_atom_site_fract_z
_atom_site_charge
Cd	Cd	0.31075 0.77039 0.40366 1.19100
O 	O 	0.13060 0.75810 0.34101 -0.38500
S 	S 	0.03052 0.84396 0.34216 0.49900
C 	C 	0.74270 0.24660 0.47200 0.05900
H 	H 	0.70010 0.15320 0.46740 -0.01600
C 	C 	0.04210 0.88890 0.22884 0.05500
H 	H 	0.10450 0.82670 0.24070 0.03300
N 	N 	0.38490 0.84570 0.32852 -0.24200
O 	O 	0.17520 0.01060 0.13040 -0.41100
N 	N 	0.75690 0.32950 0.52199 -0.24200
C 	C 	0.78780 0.29100 0.42612 -0.05800
C 	C 	0.00890 0.94350 0.17051 -0.12800
C 	C 	0.63760 0.03330 0.30670 0.12600
C 	C 	0.81470 0.05920 0.28981 0.09300
C 	C 	0.71050 0.99930 0.27310 -0.16200
H 	H 	0.68910 0.93580 0.23910 0.09700
C 	C 	0.98320 0.92660 0.26893 -0.10200
C 	C 	0.33840 0.79670 0.27330 0.07400
H 	H 	0.27570 0.73480 0.26690 0.00600
N 	N 	0.66450 0.12570 0.35615 -0.14400
C 	C 	0.52760 0.96140 0.29249 -0.05700
C 	C 	0.76420 0.18900 0.37122 0.12600
O 	O 	0.94680 0.73740 0.35155 -0.26200
C 	C 	0.91660 0.03630 0.15274 0.05500
H 	H 	0.89500 0.07490 0.11410 0.01500
C 	C 	0.81760 0.46340 0.52820 0.07800
H 	H 	0.82880 0.52200 0.56340 0.00400
C 	C 	0.86470 0.51880 0.48490 -0.11400
H 	H 	0.90560 0.61420 0.49040 0.08300
C 	C 	0.84170 0.15820 0.33997 -0.16400
H 	H 	0.91040 0.20300 0.35240 0.10500
C 	C 	0.88860 0.01920 0.25174 0.04300
C 	C 	0.85040 0.43130 0.43340 0.01400
H 	H 	0.88230 0.46560 0.40370 0.04000
C 	C 	0.85650 0.07160 0.19293 -0.11700
H 	H 	0.79310 0.13150 0.18050 0.08400
C 	C 	0.37880 0.83350 0.22610 -0.10900
H 	H 	0.34170 0.80220 0.18820 0.09100
O 	O 	0.05140 0.98350 0.38222 -0.28700
C 	C 	0.47450 0.91700 0.23480 0.02200
H 	H 	0.50330 0.94320 0.20310 0.03800
C 	C 	0.47770 0.92660 0.33700 0.05800
H 	H 	0.51070 0.96160 0.37510 -0.00900
S 	S 	0.08651 0.89386 0.11979 0.53000
O 	O 	0.12760 0.72950 0.13500 -0.29400
O 	O 	0.01600 0.90930 0.06219 -0.31700
Cd	Cd	0.18925 0.27039 0.09634 1.19000
O 	O 	0.36940 0.25810 0.15899 -0.38600
S 	S 	0.46948 0.34396 0.15784 0.50200
C 	C 	0.75730 0.74660 0.02800 0.05900
H 	H 	0.79990 0.65320 0.03260 -0.01700
C 	C 	0.45790 0.38890 0.27116 0.06000
H 	H 	0.39550 0.32670 0.25930 0.03200
N 	N 	0.11510 0.34570 0.17148 -0.24100
O 	O 	0.32480 0.51060 0.36960 -0.41200
N 	N 	0.74310 0.82950 0.97801 -0.24300
C 	C 	0.71220 0.79100 0.07388 -0.05900
C 	C 	0.49110 0.44350 0.32949 -0.12900
C 	C 	0.86240 0.53330 0.19330 0.12700
C 	C 	0.68530 0.55920 0.21019 0.09400
C 	C 	0.78950 0.49930 0.22690 -0.16300
H 	H 	0.81090 0.43580 0.26090 0.09800
C 	C 	0.51680 0.42660 0.23107 -0.10700
C 	C 	0.16160 0.29670 0.22670 0.07500
H 	H 	0.22430 0.23480 0.23310 0.00600
N 	N 	0.83550 0.62570 0.14385 -0.14400
C 	C 	0.97240 0.46140 0.20751 -0.05700
C 	C 	0.73580 0.68900 0.12878 0.12700
O 	O 	0.55320 0.23740 0.14845 -0.26300
C 	C 	0.58340 0.53630 0.34726 0.05600
H 	H 	0.60500 0.57490 0.38590 0.01400
C 	C 	0.68240 0.96340 0.97180 0.08100
H 	H 	0.67120 0.02200 0.93660 0.00200
C 	C 	0.63530 0.01880 0.01510 -0.11800
H 	H 	0.59440 0.11420 0.00960 0.08400
C 	C 	0.65830 0.65820 0.16003 -0.16400
H 	H 	0.58960 0.70300 0.14760 0.10500
C 	C 	0.61140 0.51920 0.24826 0.04600
C 	C 	0.64960 0.93130 0.06660 0.01700
H 	H 	0.61770 0.96560 0.09630 0.03900
C 	C 	0.64350 0.57160 0.30707 -0.11900
H 	H 	0.70690 0.63150 0.31950 0.08500
C 	C 	0.12120 0.33350 0.27390 -0.10900
H 	H 	0.15830 0.30220 0.31180 0.09100
O 	O 	0.44860 0.48350 0.11778 -0.28700
C 	C 	0.02550 0.41700 0.26520 0.02200
H 	H 	0.99670 0.44320 0.29690 0.03800
C 	C 	0.02230 0.42660 0.16300 0.05800
H 	H 	0.98930 0.46160 0.12490 -0.00800
S 	S 	0.41349 0.39386 0.38021 0.53200
O 	O 	0.37240 0.22950 0.36500 -0.29400
O 	O 	0.48400 0.40930 0.43781 -0.31700
Cd	Cd	0.68925 0.22961 0.59634 1.19000
O 	O 	0.86940 0.24190 0.65899 -0.38600
S 	S 	0.96948 0.15604 0.65784 0.49800
C 	C 	0.25730 0.75340 0.52800 0.05800
H 	H 	0.29990 0.84680 0.53260 -0.01600
C 	C 	0.95790 0.11110 0.77116 0.05500
H 	H 	0.89550 0.17330 0.75930 0.03300
N 	N 	0.61510 0.15430 0.67148 -0.24200
O 	O 	0.82480 0.98940 0.86960 -0.41100
N 	N 	0.24310 0.67050 0.47801 -0.24200
C 	C 	0.21220 0.70900 0.57388 -0.05800
C 	C 	0.99110 0.05650 0.82949 -0.12800
C 	C 	0.36240 0.96670 0.69330 0.12600
C 	C 	0.18530 0.94080 0.71019 0.09300
C 	C 	0.28950 0.00070 0.72690 -0.16200
H 	H 	0.31090 0.06420 0.76090 0.09700
C 	C 	0.01680 0.07340 0.73107 -0.10200
C 	C 	0.66160 0.20330 0.72670 0.07400
H 	H 	0.72430 0.26520 0.73310 0.00600
N 	N 	0.33550 0.87430 0.64385 -0.14400
C 	C 	0.47240 0.03860 0.70751 -0.05700
C 	C 	0.23580 0.81100 0.62878 0.12600
O 	O 	0.05320 0.26260 0.64845 -0.26200
C 	C 	0.08340 0.96370 0.84726 0.05500
H 	H 	0.10500 0.92510 0.88590 0.01500
C 	C 	0.18240 0.53660 0.47180 0.07800
H 	H 	0.17120 0.47800 0.43660 0.00400
C 	C 	0.13530 0.48120 0.51510 -0.11400
H 	H 	0.09440 0.38580 0.50960 0.08300
C 	C 	0.15830 0.84180 0.66003 -0.16400
H 	H 	0.08960 0.79700 0.64760 0.10500
C 	C 	0.11140 0.98080 0.74826 0.04300
C 	C 	0.14960 0.56870 0.56660 0.01400
H 	H 	0.11770 0.53440 0.59630 0.04000
C 	C 	0.14350 0.92840 0.80707 -0.11700
H 	H 	0.20690 0.86850 0.81950 0.08400
C 	C 	0.62120 0.16650 0.77390 -0.10900
H 	H 	0.65830 0.19780 0.81180 0.09100
O 	O 	0.94860 0.01650 0.61778 -0.28700
C 	C 	0.52550 0.08300 0.76520 0.02200
H 	H 	0.49670 0.05680 0.79690 0.03800
C 	C 	0.52230 0.07340 0.66300 0.05800
H 	H 	0.48930 0.03840 0.62490 -0.00900
S 	S 	0.91349 0.10614 0.88021 0.53000
O 	O 	0.87240 0.27050 0.86500 -0.29400
O 	O 	0.98400 0.09070 0.93781 -0.31700
Cd	Cd	0.81075 0.72961 0.90366 1.19000
O 	O 	0.63060 0.74190 0.84101 -0.38600
S 	S 	0.53052 0.65604 0.84216 0.50200
C 	C 	0.24270 0.25340 0.97200 0.05900
H 	H 	0.20010 0.34680 0.96740 -0.01700
C 	C 	0.54210 0.61110 0.72884 0.06000
H 	H 	0.60450 0.67330 0.74070 0.03200
N 	N 	0.88490 0.65430 0.82852 -0.24100
O 	O 	0.67520 0.48940 0.63040 -0.41200
N 	N 	0.25690 0.17050 0.02199 -0.24300
C 	C 	0.28780 0.20900 0.92612 -0.05900
C 	C 	0.50890 0.55650 0.67051 -0.12900
C 	C 	0.13760 0.46670 0.80670 0.12700
C 	C 	0.31470 0.44080 0.78981 0.09400
C 	C 	0.21050 0.50070 0.77310 -0.16300
H 	H 	0.18910 0.56420 0.73910 0.09800
C 	C 	0.48320 0.57340 0.76893 -0.10700
C 	C 	0.83840 0.70330 0.77330 0.07500
H 	H 	0.77570 0.76520 0.76690 0.00600
N 	N 	0.16450 0.37430 0.85615 -0.14400
C 	C 	0.02760 0.53860 0.79249 -0.05700
C 	C 	0.26420 0.31100 0.87122 0.12700
O 	O 	0.44680 0.76260 0.85155 -0.26300
C 	C 	0.41660 0.46370 0.65274 0.05600
H 	H 	0.39500 0.42510 0.61410 0.01400
C 	C 	0.31760 0.03660 0.02820 0.08100
H 	H 	0.32880 0.97800 0.06340 0.00200
C 	C 	0.36470 0.98120 0.98490 -0.11800
H 	H 	0.40560 0.88580 0.99040 0.08400
C 	C 	0.34170 0.34180 0.83997 -0.16400
H 	H 	0.41040 0.29700 0.85240 0.10500
C 	C 	0.38860 0.48080 0.75174 0.04600
C 	C 	0.35040 0.06870 0.93340 0.01700
H 	H 	0.38230 0.03440 0.90370 0.03900
C 	C 	0.35650 0.42840 0.69293 -0.11900
H 	H 	0.29310 0.36850 0.68050 0.08500
C 	C 	0.87880 0.66650 0.72610 -0.10900
H 	H 	0.84170 0.69780 0.68820 0.09100
O 	O 	0.55140 0.51650 0.88222 -0.28700
C 	C 	0.97450 0.58300 0.73480 0.02200
H 	H 	0.00330 0.55680 0.70310 0.03800
C 	C 	0.97770 0.57340 0.83700 0.05800
H 	H 	0.01070 0.53840 0.87510 -0.00800
S 	S 	0.58651 0.60614 0.61979 0.53200
O 	O 	0.62760 0.77050 0.63500 -0.29400
O 	O 	0.51600 0.59070 0.56219 -0.31700
