data_crystal

_cell_length_a 20.07100
_cell_length_b 9.69800
_cell_length_c 10.98600
_cell_angle_alpha 90.00000
_cell_angle_beta  90.00000
_cell_angle_gamma 90.00000

_symmetry_space_group_name_	'P 1'
_symmetry_space_group_name_H-M	'P 1'

loop_
_symmetry_equiv_pos_as_xyz
  x,y,z

loop_
_atom_site_label
_atom_site_type_symbol
_atom_site_fract_x
_atom_site_fract_y
_atom_site_fract_z
_atom_site_charge
Zn	Zn	0.64744 0.86779 0.50703 1.19400
O 	O 	0.55507 0.75930 0.53200 -0.47700
N 	N 	0.73917 0.00660 0.49330 -0.20000
N 	N 	0.78083 0.98470 0.59040 -0.07200
N 	N 	0.81939 0.09200 0.60370 -0.04600
N 	N 	0.80343 0.18710 0.51680 -0.24200
N 	N 	0.62390 0.91960 0.33380 -0.24700
N 	N 	0.61023 0.82070 0.24830 -0.05500
N 	N 	0.61110 0.87690 0.14200 -0.08500
N 	N 	0.62513 0.01340 0.15480 -0.25100
C 	C 	0.75447 0.13270 0.45180 0.15500
C 	C 	0.72385 0.20180 0.34480 -0.17200
H 	H 	0.74730 0.17250 0.27200 0.07300
H 	H 	0.73010 0.30060 0.35280 0.06700
C 	C 	0.64947 0.17300 0.32780 -0.22600
H 	H 	0.62780 0.17940 0.40650 0.09500
H 	H 	0.63080 0.24440 0.27630 0.09400
C 	C 	0.63318 0.03540 0.27310 0.16500
Zn	Zn	0.14744 0.36779 0.50703 1.19500
O 	O 	0.05507 0.25930 0.53200 -0.46700
N 	N 	0.23917 0.50660 0.49330 -0.20300
N 	N 	0.28083 0.48470 0.59040 -0.06600
N 	N 	0.31939 0.59200 0.60370 -0.05000
N 	N 	0.30343 0.68710 0.51680 -0.24200
N 	N 	0.12390 0.41960 0.33380 -0.24400
N 	N 	0.11023 0.32070 0.24830 -0.05800
N 	N 	0.11110 0.37690 0.14200 -0.08600
N 	N 	0.12513 0.51340 0.15480 -0.25300
C 	C 	0.25447 0.63270 0.45180 0.15500
C 	C 	0.22385 0.70180 0.34480 -0.17500
H 	H 	0.24730 0.67250 0.27200 0.07300
H 	H 	0.23010 0.80060 0.35280 0.06600
C 	C 	0.14947 0.67300 0.32780 -0.21800
H 	H 	0.12780 0.67940 0.40650 0.08800
H 	H 	0.13080 0.74440 0.27630 0.08900
C 	C 	0.13318 0.53540 0.27310 0.15600
Zn	Zn	0.35256 0.13221 0.00703 1.16600
O 	O 	0.44493 0.24070 0.03200 -0.44400
N 	N 	0.26083 0.99340 0.99330 -0.16600
N 	N 	0.21917 0.01530 0.09040 -0.10900
N 	N 	0.18061 0.90800 0.10370 -0.06700
N 	N 	0.19657 0.81290 0.01680 -0.31400
N 	N 	0.37610 0.08040 0.83380 -0.21700
N 	N 	0.38977 0.17930 0.74830 -0.03900
N 	N 	0.38890 0.12310 0.64200 -0.05500
N 	N 	0.37487 0.98660 0.65480 -0.23900
C 	C 	0.24553 0.86730 0.95180 0.26100
C 	C 	0.27615 0.79820 0.84480 -0.22700
H 	H 	0.25270 0.82750 0.77200 0.09600
H 	H 	0.26990 0.69940 0.85280 0.10000
C 	C 	0.35053 0.82700 0.82780 -0.20200
H 	H 	0.37220 0.82060 0.90650 0.11200
H 	H 	0.36920 0.75560 0.77630 0.09800
C 	C 	0.36682 0.96460 0.77310 0.15400
Zn	Zn	0.85256 0.63221 0.00703 1.16600
O 	O 	0.94493 0.74070 0.03200 -0.41300
N 	N 	0.76083 0.49340 0.99330 -0.16100
N 	N 	0.71917 0.51530 0.09040 -0.11300
N 	N 	0.68061 0.40800 0.10370 -0.06300
N 	N 	0.69657 0.31290 0.01680 -0.31500
N 	N 	0.87610 0.58040 0.83380 -0.22100
N 	N 	0.88977 0.67930 0.74830 -0.03700
N 	N 	0.88890 0.62310 0.64200 -0.05500
N 	N 	0.87487 0.48660 0.65480 -0.23500
C 	C 	0.74553 0.36730 0.95180 0.26500
C 	C 	0.77615 0.29820 0.84480 -0.22500
H 	H 	0.75270 0.32750 0.77200 0.09700
H 	H 	0.76990 0.19940 0.85280 0.10100
C 	C 	0.85053 0.32700 0.82780 -0.21000
H 	H 	0.87220 0.32060 0.90650 0.11900
H 	H 	0.86920 0.25560 0.77630 0.10400
C 	C 	0.86682 0.46460 0.77310 0.16800
Zn	Zn	0.64744 0.13221 0.00703 1.16600
O 	O 	0.55507 0.24070 0.03200 -0.44400
N 	N 	0.73917 0.99340 0.99330 -0.16600
N 	N 	0.78083 0.01530 0.09040 -0.10800
N 	N 	0.81939 0.90800 0.10370 -0.06400
N 	N 	0.80343 0.81290 0.01680 -0.31300
N 	N 	0.62390 0.08040 0.83380 -0.21700
N 	N 	0.61023 0.17930 0.74830 -0.03900
N 	N 	0.61110 0.12310 0.64200 -0.05500
N 	N 	0.62513 0.98660 0.65480 -0.23900
C 	C 	0.75447 0.86730 0.95180 0.26100
C 	C 	0.72385 0.79820 0.84480 -0.22800
H 	H 	0.74730 0.82750 0.77200 0.09700
H 	H 	0.73010 0.69940 0.85280 0.10000
C 	C 	0.64947 0.82700 0.82780 -0.20100
H 	H 	0.62780 0.82060 0.90650 0.11100
H 	H 	0.63080 0.75560 0.77630 0.09700
C 	C 	0.63318 0.96460 0.77310 0.15400
Zn	Zn	0.14744 0.63221 0.00703 1.16500
O 	O 	0.05507 0.74070 0.03200 -0.43900
N 	N 	0.23917 0.49340 0.99330 -0.16100
N 	N 	0.28083 0.51530 0.09040 -0.11300
N 	N 	0.31939 0.40800 0.10370 -0.06300
N 	N 	0.30343 0.31290 0.01680 -0.31600
N 	N 	0.12390 0.58040 0.83380 -0.22400
N 	N 	0.11023 0.67930 0.74830 -0.04300
N 	N 	0.11110 0.62310 0.64200 -0.06100
N 	N 	0.12513 0.48660 0.65480 -0.23800
C 	C 	0.25447 0.36730 0.95180 0.26700
C 	C 	0.22385 0.29820 0.84480 -0.23000
H 	H 	0.24730 0.32750 0.77200 0.09900
H 	H 	0.23010 0.19940 0.85280 0.10200
C 	C 	0.14947 0.32700 0.82780 -0.20100
H 	H 	0.12780 0.32060 0.90650 0.11100
H 	H 	0.13080 0.25560 0.77630 0.09500
C 	C 	0.13318 0.46460 0.77310 0.16000
Zn	Zn	0.35256 0.86779 0.50703 1.19500
O 	O 	0.44493 0.75930 0.53200 -0.47600
N 	N 	0.26083 0.00660 0.49330 -0.19900
N 	N 	0.21917 0.98470 0.59040 -0.07300
N 	N 	0.18061 0.09200 0.60370 -0.04800
N 	N 	0.19657 0.18710 0.51680 -0.24200
N 	N 	0.37610 0.91960 0.33380 -0.24700
N 	N 	0.38977 0.82070 0.24830 -0.05500
N 	N 	0.38890 0.87690 0.14200 -0.08500
N 	N 	0.37487 0.01340 0.15480 -0.25100
C 	C 	0.24553 0.13270 0.45180 0.15400
C 	C 	0.27615 0.20180 0.34480 -0.17100
H 	H 	0.25270 0.17250 0.27200 0.07200
H 	H 	0.26990 0.30060 0.35280 0.06600
C 	C 	0.35053 0.17300 0.32780 -0.22600
H 	H 	0.37220 0.17940 0.40650 0.09500
H 	H 	0.36920 0.24440 0.27630 0.09400
C 	C 	0.36682 0.03540 0.27310 0.16500
Zn	Zn	0.85256 0.36779 0.50703 1.19600
O 	O 	0.94493 0.25930 0.53200 -0.44100
N 	N 	0.76083 0.50660 0.49330 -0.20300
N 	N 	0.71917 0.48470 0.59040 -0.06600
N 	N 	0.68061 0.59200 0.60370 -0.05000
N 	N 	0.69657 0.68710 0.51680 -0.24100
N 	N 	0.87610 0.41960 0.33380 -0.24200
N 	N 	0.88977 0.32070 0.24830 -0.05100
N 	N 	0.88890 0.37690 0.14200 -0.08000
N 	N 	0.87487 0.51340 0.15480 -0.25100
C 	C 	0.74553 0.63270 0.45180 0.15400
C 	C 	0.77615 0.70180 0.34480 -0.17000
H 	H 	0.75270 0.67250 0.27200 0.07200
H 	H 	0.76990 0.80060 0.35280 0.06500
C 	C 	0.85053 0.67300 0.32780 -0.22800
H 	H 	0.87220 0.67940 0.40650 0.09700
H 	H 	0.86920 0.74440 0.27630 0.09700
C 	C 	0.86682 0.53540 0.27310 0.16500
C 	C 	0.50000 0.81760 0.53430 0.69600
H 	H 	0.50000 0.87390 0.60730 -0.16500
H 	H 	0.50000 0.88120 0.46620 -0.18600
C 	C 	0.00000 0.31760 0.53430 0.63600
H 	H 	-0.00000 0.37390 0.60730 -0.15700
H 	H 	0.00000 0.38120 0.46620 -0.17700
C 	C 	0.50000 0.18240 0.03430 0.40200
H 	H 	0.50000 0.12610 0.10730 -0.09500
H 	H 	0.50000 0.11880 0.96620 -0.02000
C 	C 	-0.00000 0.68240 0.03430 0.35700
H 	H 	-0.00000 0.62610 0.10730 -0.09300
H 	H 	-0.00000 0.61880 0.96620 -0.02100
