data_crystal

_cell_length_a 18.31480
_cell_length_b 9.45060
_cell_length_c 19.09930
_cell_angle_alpha 90.00000
_cell_angle_beta  106.09100
_cell_angle_gamma 90.00000

_symmetry_space_group_name_	'P 1'
_symmetry_space_group_name_H-M	'P 1'

loop_
_symmetry_equiv_pos_as_xyz
  x,y,z

loop_
_atom_site_label
_atom_site_type_symbol
_atom_site_fract_x
_atom_site_fract_y
_atom_site_fract_z
_atom_site_charge
Cd	Cd	0.28466 0.55853 0.44455 1.23500
C 	C 	0.38004 0.08630 0.09308 0.45700
C 	C 	0.37959 0.15150 0.16475 -0.23600
C 	C 	0.31130 0.19680 0.17503 0.20900
C 	C 	0.30833 0.25880 0.23933 0.17600
C 	C 	0.37517 0.27660 0.29588 -0.22800
C 	C 	0.44361 0.22980 0.28643 0.19900
C 	C 	0.44600 0.16850 0.22102 0.19100
C 	C 	0.37394 0.34540 0.36714 0.45700
C 	C 	0.39483 0.77010 0.48272 0.35600
C 	C 	0.44883 0.88880 0.49195 -0.19700
C 	C 	0.44818 0.99900 0.54148 0.34000
C 	C 	0.49936 0.10960 0.54875 -0.19400
H 	H 	0.49890 0.18300 0.58110 0.12800
C 	C 	0.02430 0.39320 0.46275 -0.09000
H 	H 	0.04090 0.32130 0.43760 0.11400
C 	C 	0.04346 0.62300 0.51924 0.27000
C 	C 	0.06726 0.51330 0.48135 -0.11500
C 	C 	0.14167 0.52740 0.46053 0.33700
O 	O 	0.44388 0.04600 0.08779 -0.47000
O 	O 	0.31834 0.07340 0.04595 -0.47600
O 	O 	0.51618 0.12720 0.21771 -0.36900
H 	H 	0.51290 0.09180 0.17780 0.26300
O 	O 	0.23926 0.30530 0.24430 -0.36500
H 	H 	0.24440 0.34330 0.28400 0.27100
O 	O 	0.31091 0.39410 0.36955 -0.45400
O 	O 	0.43353 0.34829 0.41667 -0.46500
O 	O 	0.40476 0.66037 0.44812 -0.49400
O 	O 	0.33763 0.77862 0.50729 -0.37000
O 	O 	0.39793 0.00230 0.58279 -0.47700
H 	H 	0.36760 0.93700 0.57080 0.33400
O 	O 	0.17904 0.63820 0.47807 -0.39000
O 	O 	0.16367 0.43000 0.42796 -0.33800
O 	O 	0.08233 0.74330 0.53670 -0.41800
H 	H 	0.12100 0.73970 0.52310 0.30200
O 	O 	0.24490 0.17690 0.12690 -0.39000
H 	H 	0.25130 0.13920 0.09040 0.27900
O 	O 	0.51100 0.25430 0.33180 -0.37600
H 	H 	0.50590 0.28910 0.36950 0.26100
Cd	Cd	0.71534 0.05853 0.05545 1.22000
C 	C 	0.61996 0.58630 0.40692 0.45500
C 	C 	0.62041 0.65150 0.33525 -0.22900
C 	C 	0.68870 0.69680 0.32497 0.21100
C 	C 	0.69167 0.75880 0.26067 0.17900
C 	C 	0.62483 0.77660 0.20412 -0.22600
C 	C 	0.55639 0.72980 0.21357 0.20200
C 	C 	0.55400 0.66850 0.27898 0.19200
C 	C 	0.62606 0.84540 0.13286 0.45800
C 	C 	0.60517 0.27010 0.01728 0.30500
C 	C 	0.55117 0.38880 0.00805 -0.18700
C 	C 	0.55182 0.49900 0.95852 0.30000
C 	C 	0.50064 0.60960 0.95125 -0.13700
H 	H 	0.50110 0.68300 0.91890 0.11200
C 	C 	0.97570 0.89320 0.03725 0.00200
H 	H 	0.95910 0.82130 0.06240 0.08200
C 	C 	0.95654 0.12300 0.98076 0.34900
C 	C 	0.93274 0.01330 0.01865 -0.22800
C 	C 	0.85833 0.02740 0.03947 0.33000
O 	O 	0.55612 0.54600 0.41221 -0.45400
O 	O 	0.68166 0.57340 0.45405 -0.45300
O 	O 	0.48382 0.62720 0.28229 -0.36200
H 	H 	0.48710 0.59180 0.32220 0.26600
O 	O 	0.76074 0.80530 0.25570 -0.35900
H 	H 	0.75560 0.84330 0.21600 0.27200
O 	O 	0.68909 0.89410 0.13045 -0.45000
O 	O 	0.56647 0.84829 0.08333 -0.46500
O 	O 	0.59524 0.16037 0.05188 -0.49900
O 	O 	0.66237 0.27862 0.99271 -0.33400
O 	O 	0.60207 0.50230 0.91721 -0.42100
H 	H 	0.63240 0.43700 0.92920 0.30400
O 	O 	0.82096 0.13820 0.02193 -0.41900
O 	O 	0.83633 0.93000 0.07204 -0.32200
O 	O 	0.91767 0.24330 0.96330 -0.45000
H 	H 	0.87900 0.23970 0.97690 0.32500
O 	O 	0.75510 0.67690 0.37310 -0.38300
H 	H 	0.74870 0.63920 0.40960 0.28600
O 	O 	0.48900 0.75430 0.16820 -0.37000
H 	H 	0.49410 0.78910 0.13050 0.26100
Cd	Cd	0.71534 0.44147 0.55545 1.23500
C 	C 	0.61996 0.91370 0.90692 0.45000
C 	C 	0.62041 0.84850 0.83525 -0.22300
C 	C 	0.68870 0.80320 0.82497 0.21100
C 	C 	0.69167 0.74120 0.76067 0.18200
C 	C 	0.62483 0.72340 0.70412 -0.22700
C 	C 	0.55639 0.77020 0.71357 0.20500
C 	C 	0.55400 0.83150 0.77898 0.19100
C 	C 	0.62606 0.65460 0.63286 0.45900
C 	C 	0.60517 0.22990 0.51728 0.30700
C 	C 	0.55117 0.11120 0.50805 -0.07200
C 	C 	0.55182 0.00100 0.45852 0.14200
C 	C 	0.50064 0.89040 0.45125 -0.00200
H 	H 	0.50110 0.81700 0.41890 0.06500
C 	C 	0.97570 0.60680 0.53725 -0.12200
H 	H 	0.95910 0.67870 0.56240 0.12700
C 	C 	0.95654 0.37700 0.48076 0.24200
C 	C 	0.93274 0.48670 0.51865 -0.09800
C 	C 	0.85833 0.47260 0.53947 0.33000
O 	O 	0.55612 0.95400 0.91221 -0.43700
O 	O 	0.68166 0.92660 0.95405 -0.43100
O 	O 	0.48382 0.87280 0.78229 -0.35900
H 	H 	0.48710 0.90820 0.82220 0.26800
O 	O 	0.76074 0.69470 0.75570 -0.35700
H 	H 	0.75560 0.65670 0.71600 0.27100
O 	O 	0.68909 0.60590 0.63045 -0.45300
O 	O 	0.56647 0.65171 0.58333 -0.46300
O 	O 	0.59524 0.33963 0.55188 -0.48500
O 	O 	0.66237 0.22138 0.49271 -0.35800
O 	O 	0.60207 0.99770 0.41721 -0.32800
H 	H 	0.63240 0.06300 0.42920 0.25100
O 	O 	0.82096 0.36180 0.52193 -0.39300
O 	O 	0.83633 0.57000 0.57204 -0.33300
O 	O 	0.91767 0.25670 0.46330 -0.42200
H 	H 	0.87900 0.26030 0.47690 0.29700
O 	O 	0.75510 0.82310 0.87310 -0.37700
H 	H 	0.74870 0.86080 0.90960 0.29200
O 	O 	0.48900 0.74570 0.66820 -0.37100
H 	H 	0.49410 0.71090 0.63050 0.26000
Cd	Cd	0.28466 0.94147 0.94455 1.24800
C 	C 	0.38004 0.41370 0.59308 0.45500
C 	C 	0.37959 0.34850 0.66475 -0.22900
C 	C 	0.31130 0.30320 0.67503 0.21000
C 	C 	0.30833 0.24120 0.73933 0.17900
C 	C 	0.37517 0.22340 0.79588 -0.22700
C 	C 	0.44361 0.27020 0.78643 0.20200
C 	C 	0.44600 0.33150 0.72102 0.19000
C 	C 	0.37394 0.15460 0.86714 0.45500
C 	C 	0.39483 0.72990 0.98272 0.35200
C 	C 	0.44883 0.61120 0.99195 -0.08100
C 	C 	0.44818 0.50100 0.04148 0.18900
C 	C 	0.49936 0.39040 0.04875 -0.06400
H 	H 	0.49890 0.31700 0.08110 0.08300
C 	C 	0.02430 0.10680 0.96275 -0.19000
H 	H 	0.04090 0.17870 0.93760 0.15300
C 	C 	0.04346 0.87700 0.01924 0.16900
C 	C 	0.06726 0.98670 0.98135 -0.01000
C 	C 	0.14167 0.97260 0.96053 0.32700
O 	O 	0.44388 0.45400 0.58779 -0.45600
O 	O 	0.31834 0.42660 0.54595 -0.45400
O 	O 	0.51618 0.37280 0.71771 -0.36500
H 	H 	0.51290 0.40820 0.67780 0.26500
O 	O 	0.23926 0.19470 0.74430 -0.36200
H 	H 	0.24440 0.15670 0.78400 0.27100
O 	O 	0.31091 0.10590 0.86955 -0.45200
O 	O 	0.43353 0.15171 0.91667 -0.45300
O 	O 	0.40476 0.83963 0.94812 -0.47700
O 	O 	0.33763 0.72138 0.00729 -0.38700
O 	O 	0.39793 0.49770 0.08279 -0.39300
H 	H 	0.36760 0.56300 0.07080 0.28700
O 	O 	0.17904 0.86180 0.97807 -0.36500
O 	O 	0.16367 0.07000 0.92796 -0.33600
O 	O 	0.08233 0.75670 0.03670 -0.39100
H 	H 	0.12100 0.76030 0.02310 0.27900
O 	O 	0.24490 0.32310 0.62690 -0.38400
H 	H 	0.25130 0.36080 0.59040 0.28500
O 	O 	0.51100 0.24570 0.83180 -0.37600
H 	H 	0.50590 0.21090 0.86950 0.26300
Cd	Cd	0.50000 0.50000 0.50000 1.25200
Cd	Cd	0.50000 0.00000 -0.00000 1.23400
