data_crystal

_cell_length_a 9.37550
_cell_length_b 7.47460
_cell_length_c 15.43100
_cell_angle_alpha 90.00000
_cell_angle_beta  100.11900
_cell_angle_gamma 90.00000

_symmetry_space_group_name_	'P 1'
_symmetry_space_group_name_H-M	'P 1'

loop_
_symmetry_equiv_pos_as_xyz
  x,y,z

loop_
_atom_site_label
_atom_site_type_symbol
_atom_site_fract_x
_atom_site_fract_y
_atom_site_fract_z
_atom_site_charge
Mg	Mg	0.78015 0.46719 0.59849 1.47700
P 	P 	0.65247 0.59715 0.77434 0.63200
O 	O 	0.74348 0.61460 0.70399 -0.45600
O 	O 	0.71540 0.45260 0.84425 -0.43600
H 	H 	0.72710 0.35830 0.81920 0.30200
O 	O 	0.63442 0.76390 0.82407 -0.45000
O 	O 	0.50160 0.52460 0.72507 -0.46200
H 	H 	0.43940 0.54330 0.75530 0.30400
O 	O 	0.63731 0.65790 0.52095 -0.34000
O 	O 	0.41185 0.68550 0.44644 -0.33800
O 	O 	0.96788 0.61760 0.59181 -0.36700
O 	O 	0.14943 0.64040 0.51497 -0.35500
C 	C 	0.51430 0.59950 0.49047 0.24500
C 	C 	0.03480 0.57570 0.53153 0.24300
Mg	Mg	0.71985 0.96719 0.90151 1.47500
P 	P 	0.84753 0.09715 0.72566 0.63300
O 	O 	0.75652 0.11460 0.79601 -0.45500
O 	O 	0.78460 0.95260 0.65575 -0.44000
H 	H 	0.77290 0.85830 0.68080 0.30100
O 	O 	0.86558 0.26390 0.67593 -0.44800
O 	O 	0.99840 0.02460 0.77493 -0.45000
H 	H 	0.06060 0.04330 0.74470 0.29700
O 	O 	0.86269 0.15790 0.97905 -0.33000
O 	O 	0.08815 0.18550 0.05356 -0.33800
O 	O 	0.53212 0.11760 0.90819 -0.36500
O 	O 	0.35057 0.14040 0.98503 -0.35500
C 	C 	0.98570 0.09950 0.00953 0.23400
C 	C 	0.46520 0.07570 0.96847 0.24500
Mg	Mg	0.21985 0.53281 0.40151 1.47600
P 	P 	0.34753 0.40285 0.22566 0.63100
O 	O 	0.25652 0.38540 0.29601 -0.45700
O 	O 	0.28460 0.54740 0.15575 -0.43700
H 	H 	0.27290 0.64170 0.18080 0.30100
O 	O 	0.36558 0.23610 0.17593 -0.45100
O 	O 	0.49840 0.47540 0.27493 -0.46200
H 	H 	0.56060 0.45670 0.24470 0.30400
O 	O 	0.36269 0.34210 0.47905 -0.34000
O 	O 	0.58815 0.31450 0.55356 -0.33800
O 	O 	0.03212 0.38240 0.40819 -0.36700
O 	O 	0.85057 0.35960 0.48503 -0.35500
C 	C 	0.48570 0.40050 0.50953 0.24500
C 	C 	0.96520 0.42430 0.46847 0.24300
Mg	Mg	0.28015 0.03281 0.09849 1.47500
P 	P 	0.15247 0.90285 0.27434 0.63300
O 	O 	0.24348 0.88540 0.20399 -0.45500
O 	O 	0.21540 0.04740 0.34425 -0.44000
H 	H 	0.22710 0.14170 0.31920 0.30100
O 	O 	0.13442 0.73610 0.32407 -0.44800
O 	O 	0.00160 0.97540 0.22507 -0.45000
H 	H 	0.93940 0.95670 0.25530 0.29700
O 	O 	0.13731 0.84210 0.02095 -0.33000
O 	O 	0.91185 0.81450 0.94644 -0.33800
O 	O 	0.46788 0.88240 0.09181 -0.36500
O 	O 	0.64943 0.85960 0.01497 -0.35500
C 	C 	0.01430 0.90050 0.99047 0.23400
C 	C 	0.53480 0.92430 0.03153 0.24500
