data_crystal

_cell_length_a 7.66270
_cell_length_b 7.84320
_cell_length_c 9.76950
_cell_angle_alpha 72.09200
_cell_angle_beta  83.27500
_cell_angle_gamma 84.99800

_symmetry_space_group_name_	'P 1'
_symmetry_space_group_name_H-M	'P 1'

loop_
_symmetry_equiv_pos_as_xyz
  x,y,z

loop_
_atom_site_label
_atom_site_type_symbol
_atom_site_fract_x
_atom_site_fract_y
_atom_site_fract_z
_atom_site_charge
Mg	Mg	0.37231 0.01672 0.73755 1.47400
Mg	Mg	0.30514 0.71166 0.37331 1.47000
P 	P 	0.41507 0.28097 0.40778 0.62200
O 	O 	0.48990 0.19510 0.55436 -0.66400
O 	O 	0.41680 0.48210 0.36079 -0.49400
O 	O 	0.50930 0.20490 0.29263 -0.47600
O 	O 	0.21470 0.23310 0.43010 -0.50800
H 	H 	0.20460 0.14910 0.39870 0.31200
O 	O 	0.13060 0.92960 0.70125 -0.37500
O 	O 	0.85580 0.03870 0.65690 -0.41500
O 	O 	0.18920 0.21970 0.76900 -0.39200
O 	O 	0.92340 0.33940 0.70740 -0.38100
O 	O 	0.55760 0.13560 0.82543 -0.55100
O 	O 	0.65830 0.12270 0.03469 -0.37300
C 	C 	0.00590 0.04470 0.69220 0.23000
C 	C 	0.04210 0.21790 0.72670 0.24200
C 	C 	0.56450 0.07520 0.96060 0.27900
Mg	Mg	0.62769 0.98328 0.26245 1.47400
Mg	Mg	0.69486 0.28834 0.62669 1.47000
P 	P 	0.58493 0.71903 0.59222 0.62200
O 	O 	0.51010 0.80490 0.44564 -0.66400
O 	O 	0.58320 0.51790 0.63921 -0.49400
O 	O 	0.49070 0.79510 0.70737 -0.47600
O 	O 	0.78530 0.76690 0.56990 -0.50800
H 	H 	0.79540 0.85090 0.60130 0.31200
O 	O 	0.86940 0.07040 0.29875 -0.37500
O 	O 	0.14420 0.96130 0.34310 -0.41500
O 	O 	0.81080 0.78030 0.23100 -0.39200
O 	O 	0.07660 0.66060 0.29260 -0.38100
O 	O 	0.44240 0.86440 0.17457 -0.55100
O 	O 	0.34170 0.87730 0.96531 -0.37300
C 	C 	0.99410 0.95530 0.30780 0.23000
C 	C 	0.95790 0.78210 0.27330 0.24200
C 	C 	0.43550 0.92480 0.03940 0.27900
