data_crystal

_cell_length_a 15.10140
_cell_length_b 10.96860
_cell_length_c 22.33380
_cell_angle_alpha 90.00000
_cell_angle_beta  103.09900
_cell_angle_gamma 90.00000

_symmetry_space_group_name_	'P 1'
_symmetry_space_group_name_H-M	'P 1'

loop_
_symmetry_equiv_pos_as_xyz
  x,y,z

loop_
_atom_site_label
_atom_site_type_symbol
_atom_site_fract_x
_atom_site_fract_y
_atom_site_fract_z
_atom_site_charge
Mg	Mg	0.48037 0.52588 0.56888 1.47500
Mg	Mg	0.35481 0.97919 0.62141 1.47800
P 	P 	0.38217 0.26051 0.57263 0.64200
O 	O 	0.45352 0.35575 0.59081 -0.44500
O 	O 	0.39567 0.15167 0.61322 -0.42700
O 	O 	0.28861 0.32050 0.57308 -0.44600
H 	H 	0.24800 0.28330 0.54950 0.31200
O 	O 	0.37244 0.22180 0.50333 -0.50900
H 	H 	0.42130 0.23100 0.49380 0.33200
O 	O 	0.44018 0.97817 0.70376 -0.42900
O 	O 	0.44789 0.81710 0.78617 -0.46300
H 	H 	0.43480 0.75340 0.76700 0.29100
O 	O 	0.49868 0.71672 0.55183 -0.40000
O 	O 	0.44511 0.89928 0.57289 -0.36500
O 	O 	0.38947 0.60680 0.61245 -0.37100
O 	O 	0.32852 0.78565 0.62815 -0.35200
O 	O 	0.58832 0.49040 0.52357 -0.57700
O 	O 	0.74054 0.48181 0.54412 -0.39800
O 	O 	0.59438 0.52987 0.64161 -0.36200
O 	O 	0.74560 0.51379 0.66293 -0.34800
C 	C 	0.44854 0.78680 0.57483 0.25600
C 	C 	0.38303 0.72040 0.60843 0.23500
C 	C 	0.66698 0.49410 0.55839 0.30500
C 	C 	0.66945 0.51520 0.62757 0.22800
Mg	Mg	0.98037 0.02588 0.56888 1.47900
Mg	Mg	0.85481 0.47919 0.62141 1.47800
P 	P 	0.88217 0.76051 0.57263 0.64400
O 	O 	0.95352 0.85575 0.59081 -0.42900
O 	O 	0.89567 0.65167 0.61322 -0.42000
O 	O 	0.78861 0.82050 0.57308 -0.44300
H 	H 	0.74800 0.78330 0.54950 0.31300
O 	O 	0.87244 0.72180 0.50333 -0.51000
H 	H 	0.92130 0.73100 0.49380 0.34600
O 	O 	0.94018 0.47817 0.70376 -0.39500
O 	O 	0.94789 0.31710 0.78617 -0.42300
H 	H 	0.93480 0.25340 0.76700 0.28900
O 	O 	0.99868 0.21672 0.55183 -0.37600
O 	O 	0.94511 0.39928 0.57289 -0.35300
O 	O 	0.88947 0.10680 0.61245 -0.36300
O 	O 	0.82852 0.28565 0.62815 -0.34800
O 	O 	0.08832 0.99040 0.52357 -0.59100
O 	O 	0.24054 0.98181 0.54412 -0.40000
O 	O 	0.09438 0.02987 0.64161 -0.37900
O 	O 	0.24560 0.01379 0.66293 -0.35300
C 	C 	0.94854 0.28680 0.57483 0.25600
C 	C 	0.88303 0.22040 0.60843 0.23900
C 	C 	0.16698 0.99410 0.55839 0.30500
C 	C 	0.16945 0.01520 0.62757 0.22800
Mg	Mg	0.51963 0.52588 0.93112 1.47600
Mg	Mg	0.64519 0.97919 0.87859 1.47800
P 	P 	0.61783 0.26051 0.92737 0.64200
O 	O 	0.54648 0.35575 0.90919 -0.44500
O 	O 	0.60433 0.15167 0.88678 -0.42700
O 	O 	0.71139 0.32050 0.92692 -0.44200
H 	H 	0.75200 0.28330 0.95050 0.31500
O 	O 	0.62756 0.22180 0.99667 -0.51000
H 	H 	0.57870 0.23100 0.00620 0.33300
O 	O 	0.55982 0.97817 0.79624 -0.42800
O 	O 	0.55211 0.81710 0.71383 -0.46200
H 	H 	0.56520 0.75340 0.73300 0.29200
O 	O 	0.50132 0.71672 0.94817 -0.40000
O 	O 	0.55489 0.89928 0.92711 -0.36500
O 	O 	0.61053 0.60680 0.88755 -0.36800
O 	O 	0.67148 0.78565 0.87185 -0.34700
O 	O 	0.41168 0.49040 0.97643 -0.57900
O 	O 	0.25946 0.48181 0.95588 -0.40100
O 	O 	0.40562 0.52987 0.85839 -0.36300
O 	O 	0.25440 0.51379 0.83707 -0.35200
C 	C 	0.55146 0.78680 0.92517 0.25600
C 	C 	0.61697 0.72040 0.89157 0.23400
C 	C 	0.33302 0.49410 0.94161 0.30500
C 	C 	0.33055 0.51520 0.87243 0.22800
Mg	Mg	0.01963 0.02588 0.93112 1.47400
Mg	Mg	0.14519 0.47919 0.87859 1.47700
P 	P 	0.11783 0.76051 0.92737 0.64100
O 	O 	0.04648 0.85575 0.90919 -0.46000
O 	O 	0.10433 0.65167 0.88678 -0.43500
O 	O 	0.21139 0.82050 0.92692 -0.44600
H 	H 	0.25200 0.78330 0.95050 0.31300
O 	O 	0.12756 0.72180 0.99667 -0.51000
H 	H 	0.07870 0.73100 0.00620 0.32000
O 	O 	0.05982 0.47817 0.79624 -0.43100
O 	O 	0.05211 0.31710 0.71383 -0.46700
H 	H 	0.06520 0.25340 0.73300 0.28500
O 	O 	0.00132 0.21672 0.94817 -0.42500
O 	O 	0.05489 0.39928 0.92711 -0.37900
O 	O 	0.11053 0.10680 0.88755 -0.37700
O 	O 	0.17148 0.28565 0.87185 -0.35100
O 	O 	0.91168 0.99040 0.97643 -0.56300
O 	O 	0.75946 0.98181 0.95588 -0.39800
O 	O 	0.90562 0.02987 0.85839 -0.34400
O 	O 	0.75440 0.01379 0.83707 -0.34700
C 	C 	0.05146 0.28680 0.92517 0.25600
C 	C 	0.11697 0.22040 0.89157 0.23000
C 	C 	0.83302 0.99410 0.94161 0.30700
C 	C 	0.83055 0.01520 0.87243 0.22800
Mg	Mg	0.51963 0.47412 0.43112 1.47600
Mg	Mg	0.64519 0.02081 0.37859 1.47800
P 	P 	0.61783 0.73949 0.42737 0.64200
O 	O 	0.54648 0.64425 0.40919 -0.44500
O 	O 	0.60433 0.84833 0.38678 -0.42700
O 	O 	0.71139 0.67950 0.42692 -0.44200
H 	H 	0.75200 0.71670 0.45050 0.31500
O 	O 	0.62756 0.77820 0.49667 -0.50800
H 	H 	0.57870 0.76900 0.50620 0.33200
O 	O 	0.55982 0.02183 0.29624 -0.42800
O 	O 	0.55211 0.18290 0.21383 -0.46200
H 	H 	0.56520 0.24660 0.23300 0.29200
O 	O 	0.50132 0.28328 0.44817 -0.40000
O 	O 	0.55489 0.10072 0.42711 -0.36500
O 	O 	0.61053 0.39320 0.38755 -0.36800
O 	O 	0.67148 0.21435 0.37185 -0.34800
O 	O 	0.41168 0.50960 0.47643 -0.57800
O 	O 	0.25946 0.51819 0.45588 -0.40100
O 	O 	0.40562 0.47013 0.35839 -0.36300
O 	O 	0.25440 0.48621 0.33707 -0.35200
C 	C 	0.55146 0.21320 0.42517 0.25600
C 	C 	0.61697 0.27960 0.39157 0.23400
C 	C 	0.33302 0.50590 0.44161 0.30500
C 	C 	0.33055 0.48480 0.37243 0.22900
Mg	Mg	0.01963 0.97412 0.43112 1.47400
Mg	Mg	0.14519 0.52081 0.37859 1.47700
P 	P 	0.11783 0.23949 0.42737 0.64100
O 	O 	0.04648 0.14425 0.40919 -0.46000
O 	O 	0.10433 0.34833 0.38678 -0.43400
O 	O 	0.21139 0.17950 0.42692 -0.44600
H 	H 	0.25200 0.21670 0.45050 0.31400
O 	O 	0.12756 0.27820 0.49667 -0.50700
H 	H 	0.07870 0.26900 0.50620 0.31800
O 	O 	0.05982 0.52183 0.29624 -0.43100
O 	O 	0.05211 0.68290 0.21383 -0.46700
H 	H 	0.06520 0.74660 0.23300 0.28500
O 	O 	0.00132 0.78328 0.44817 -0.42400
O 	O 	0.05489 0.60072 0.42711 -0.37800
O 	O 	0.11053 0.89320 0.38755 -0.37600
O 	O 	0.17148 0.71435 0.37185 -0.35100
O 	O 	0.91168 0.00960 0.47643 -0.56400
O 	O 	0.75946 0.01819 0.45588 -0.39800
O 	O 	0.90562 0.97013 0.35839 -0.34500
O 	O 	0.75440 0.98621 0.33707 -0.34700
C 	C 	0.05146 0.71320 0.42517 0.25600
C 	C 	0.11697 0.77960 0.39157 0.23000
C 	C 	0.83302 0.00590 0.44161 0.30600
C 	C 	0.83055 0.98480 0.37243 0.22900
Mg	Mg	0.48037 0.47412 0.06888 1.47600
Mg	Mg	0.35481 0.02081 0.12141 1.47800
P 	P 	0.38217 0.73949 0.07263 0.64200
O 	O 	0.45352 0.64425 0.09081 -0.44500
O 	O 	0.39567 0.84833 0.11322 -0.42700
O 	O 	0.28861 0.67950 0.07308 -0.44600
H 	H 	0.24800 0.71670 0.04950 0.31300
O 	O 	0.37244 0.77820 0.00333 -0.50800
H 	H 	0.42130 0.76900 0.99380 0.33200
O 	O 	0.44018 0.02183 0.20376 -0.42900
O 	O 	0.44789 0.18290 0.28617 -0.46300
H 	H 	0.43480 0.24660 0.26700 0.29100
O 	O 	0.49868 0.28328 0.05183 -0.39900
O 	O 	0.44511 0.10072 0.07289 -0.36500
O 	O 	0.38947 0.39320 0.11245 -0.37100
O 	O 	0.32852 0.21435 0.12815 -0.35200
O 	O 	0.58832 0.50960 0.02357 -0.57700
O 	O 	0.74054 0.51819 0.04412 -0.39800
O 	O 	0.59438 0.47013 0.14161 -0.36200
O 	O 	0.74560 0.48621 0.16293 -0.34800
C 	C 	0.44854 0.21320 0.07483 0.25600
C 	C 	0.38303 0.27960 0.10843 0.23500
C 	C 	0.66698 0.50590 0.05839 0.30500
C 	C 	0.66945 0.48480 0.12757 0.22800
Mg	Mg	0.98037 0.97412 0.06888 1.47800
Mg	Mg	0.85481 0.52081 0.12141 1.47800
P 	P 	0.88217 0.23949 0.07263 0.64400
O 	O 	0.95352 0.14425 0.09081 -0.43000
O 	O 	0.89567 0.34833 0.11322 -0.42000
O 	O 	0.78861 0.17950 0.07308 -0.44300
H 	H 	0.74800 0.21670 0.04950 0.31300
O 	O 	0.87244 0.27820 0.00333 -0.51100
H 	H 	0.92130 0.26900 0.99380 0.34700
O 	O 	0.94018 0.52183 0.20376 -0.39600
O 	O 	0.94789 0.68290 0.28617 -0.42400
H 	H 	0.93480 0.74660 0.26700 0.28900
O 	O 	0.99868 0.78328 0.05183 -0.37700
O 	O 	0.94511 0.60072 0.07289 -0.35300
O 	O 	0.88947 0.89320 0.11245 -0.36400
O 	O 	0.82852 0.71435 0.12815 -0.34800
O 	O 	0.08832 0.00960 0.02357 -0.59000
O 	O 	0.24054 0.01819 0.04412 -0.39900
O 	O 	0.09438 0.97013 0.14161 -0.37900
O 	O 	0.24560 0.98621 0.16293 -0.35200
C 	C 	0.94854 0.71320 0.07483 0.25600
C 	C 	0.88303 0.77960 0.10843 0.23900
C 	C 	0.16698 0.00590 0.05839 0.30500
C 	C 	0.16945 0.98480 0.12757 0.22700
P 	P 	0.50000 0.90285 0.75000 0.66500
P 	P 	0.00000 0.40285 0.75000 0.60700
P 	P 	0.50000 0.09715 0.25000 0.66500
P 	P 	0.00000 0.59715 0.25000 0.60900
