data_crystal

_cell_length_a 7.77380
_cell_length_b 9.48400
_cell_length_c 11.92430
_cell_angle_alpha 78.10200
_cell_angle_beta  78.57400
_cell_angle_gamma 86.18300

_symmetry_space_group_name_	'P 1'
_symmetry_space_group_name_H-M	'P 1'

loop_
_symmetry_equiv_pos_as_xyz
  x,y,z

loop_
_atom_site_label
_atom_site_type_symbol
_atom_site_fract_x
_atom_site_fract_y
_atom_site_fract_z
_atom_site_charge
Mg	Mg	0.99660 0.58361 0.18645 1.47500
Mg	Mg	0.31510 0.47640 0.99669 1.46100
Mg	Mg	0.12550 0.02620 0.39627 1.46400
Mg	Mg	0.21590 0.04510 0.77128 1.46800
P 	P 	0.61886 0.50132 0.15414 0.64000
P 	P 	0.43332 0.14659 0.49998 0.59600
P 	P 	0.94541 0.88414 0.67153 0.70700
O 	O 	0.52020 0.52700 0.05490 -0.37200
O 	O 	0.80250 0.55130 0.11410 -0.40700
O 	O 	0.52950 0.59440 0.24800 -0.41800
H 	H 	0.42340 0.58190 0.26380 0.30600
O 	O 	0.60970 0.34190 0.21750 -0.45900
H 	H 	0.54660 0.33570 0.28210 0.31900
O 	O 	0.35880 0.04730 0.43940 -0.48000
O 	O 	0.32980 0.15300 0.61800 -0.49100
O 	O 	0.47350 0.29530 0.42620 -0.26500
O 	O 	0.62210 0.07350 0.52180 -0.49400
H 	H 	0.69450 0.13660 0.50930 0.29500
O 	O 	0.03210 0.89460 0.54710 -0.38600
O 	O 	0.98810 0.00160 0.72750 -0.56700
O 	O 	0.73960 0.87490 0.68820 -0.45200
H 	H 	0.69810 0.95400 0.66280 0.37100
O 	O 	0.99510 0.73500 0.74210 -0.46500
H 	H 	0.90540 0.69390 0.77850 0.30600
O 	O 	0.87900 0.77120 0.23590 -0.31000
O 	O 	0.92730 0.95420 0.31630 -0.26000
O 	O 	0.18800 0.65490 0.26570 -0.38700
O 	O 	0.25300 0.84740 0.32790 -0.28100
O 	O 	0.16030 0.40570 0.15800 -0.56000
O 	O 	0.19950 0.17290 0.23570 -0.41200
O 	O 	0.91680 0.43410 0.34300 -0.36800
O 	O 	0.96060 0.20360 0.42450 -0.43400
O 	O 	0.35050 0.85070 0.75260 -0.32100
O 	O 	0.39130 0.62510 0.84160 -0.40200
O 	O 	0.12700 0.89880 0.94400 -0.28500
O 	O 	0.15720 0.66570 0.02640 -0.37500
O 	O 	0.07780 0.21770 0.83670 -0.38900
O 	O 	0.11820 0.39970 0.92240 -0.41100
O 	O 	0.39870 0.11780 0.85490 -0.44200
O 	O 	0.44070 0.29530 0.94230 -0.43900
C 	C 	0.96860 0.84110 0.28100 0.22700
C 	C 	0.15370 0.77560 0.29300 0.28600
C 	C 	0.13080 0.29350 0.23740 0.30800
C 	C 	0.98750 0.31320 0.34550 0.23000
C 	C 	0.32220 0.74780 0.83640 0.29900
C 	C 	0.18860 0.77520 0.94600 0.10200
C 	C 	0.16500 0.28840 0.88280 0.22300
C 	C 	0.35210 0.22740 0.89400 0.24900
