data_crystal

_cell_length_a 9.32540
_cell_length_b 9.42800
_cell_length_c 14.30600
_cell_angle_alpha 96.44900
_cell_angle_beta  103.87900
_cell_angle_gamma 104.35000

_symmetry_space_group_name_	'P 1'
_symmetry_space_group_name_H-M	'P 1'

loop_
_symmetry_equiv_pos_as_xyz
  x,y,z

loop_
_atom_site_label
_atom_site_type_symbol
_atom_site_fract_x
_atom_site_fract_y
_atom_site_fract_z
_atom_site_charge
Mg	Mg	0.20695 0.48237 0.89214 1.46900
Mg	Mg	0.16084 0.29821 0.53675 1.46700
P 	P 	0.33949 0.59343 0.71123 0.57800
O 	O 	0.25911 0.59703 0.79062 -0.44900
O 	O 	0.31249 0.44102 0.65459 -0.49200
O 	O 	0.51454 0.66767 0.75113 -0.22500
O 	O 	0.27001 0.69471 0.64198 -0.42700
H 	H 	0.33180 0.73040 0.61270 0.26100
O 	O 	0.05086 0.60278 0.91350 -0.38000
O 	O 	0.88683 0.62010 0.00228 -0.38800
O 	O 	0.39429 0.62770 0.00460 -0.37200
O 	O 	0.63122 0.63904 0.09309 -0.39400
O 	O 	0.99605 0.12868 0.42257 -0.38200
O 	O 	0.87423 0.88553 0.39272 -0.41200
O 	O 	0.12749 0.44567 0.44259 -0.41600
O 	O 	0.01410 0.62725 0.42108 -0.40200
C 	C 	0.98180 0.56550 0.97538 0.23400
C 	C 	0.50640 0.57750 0.02772 0.24300
C 	C 	0.96220 0.00460 0.44620 0.22900
C 	C 	0.04110 0.52240 0.46020 0.25800
Mg	Mg	0.79305 0.51763 0.10786 1.46900
Mg	Mg	0.83916 0.70179 0.46325 1.46700
P 	P 	0.66051 0.40657 0.28877 0.57800
O 	O 	0.74089 0.40297 0.20938 -0.44900
O 	O 	0.68751 0.55898 0.34541 -0.49200
O 	O 	0.48546 0.33233 0.24887 -0.22500
O 	O 	0.72999 0.30529 0.35802 -0.42700
H 	H 	0.66820 0.26960 0.38730 0.26100
O 	O 	0.94914 0.39722 0.08650 -0.38000
O 	O 	0.11317 0.37990 0.99772 -0.38800
O 	O 	0.60571 0.37230 0.99540 -0.37200
O 	O 	0.36878 0.36096 0.90691 -0.39400
O 	O 	0.00395 0.87132 0.57743 -0.38200
O 	O 	0.12577 0.11447 0.60728 -0.41200
O 	O 	0.87251 0.55433 0.55741 -0.41600
O 	O 	0.98590 0.37275 0.57892 -0.40200
C 	C 	0.01820 0.43450 0.02462 0.23400
C 	C 	0.49360 0.42250 0.97228 0.24300
C 	C 	0.03780 0.99540 0.55380 0.22900
C 	C 	0.95890 0.47760 0.53980 0.25800
