data_crystal

_cell_length_a 5.41340
_cell_length_b 15.25900
_cell_length_c 9.01760
_cell_angle_alpha 90.00000
_cell_angle_beta  94.70400
_cell_angle_gamma 90.00000

_symmetry_space_group_name_	'P 1'
_symmetry_space_group_name_H-M	'P 1'

loop_
_symmetry_equiv_pos_as_xyz
  x,y,z

loop_
_atom_site_label
_atom_site_type_symbol
_atom_site_fract_x
_atom_site_fract_y
_atom_site_fract_z
_atom_site_charge
Mg	Mg	0.17920 0.67327 0.49178 1.47200
P 	P 	0.14944 0.81834 0.76618 0.60100
O 	O 	0.11250 0.78509 0.60650 -0.43500
O 	O 	0.94840 0.78660 0.86080 -0.46000
O 	O 	0.40900 0.79556 0.83100 -0.45400
O 	O 	0.13320 0.92252 0.75680 -0.44700
H 	H 	0.01590 0.93960 0.80100 0.28700
O 	O 	0.23980 0.54410 0.40840 -0.41800
O 	O 	0.08210 0.40806 0.40140 -0.39500
C 	C 	0.09320 0.48590 0.44490 0.24700
Mg	Mg	0.32080 0.17327 0.00822 1.47100
P 	P 	0.35056 0.31834 0.73382 0.60400
O 	O 	0.38750 0.28509 0.89350 -0.43300
O 	O 	0.55160 0.28660 0.63920 -0.46400
O 	O 	0.09100 0.29556 0.66900 -0.45200
O 	O 	0.36680 0.42252 0.74320 -0.44700
H 	H 	0.48410 0.43960 0.69900 0.28900
O 	O 	0.26020 0.04410 0.09160 -0.42000
O 	O 	0.41790 0.90806 0.09860 -0.39500
C 	C 	0.40680 0.98590 0.05510 0.25100
Mg	Mg	0.82080 0.32673 0.50822 1.47100
P 	P 	0.85056 0.18166 0.23382 0.60000
O 	O 	0.88750 0.21491 0.39350 -0.43600
O 	O 	0.05160 0.21340 0.13920 -0.46100
O 	O 	0.59100 0.20444 0.16900 -0.45400
O 	O 	0.86680 0.07748 0.24320 -0.44700
H 	H 	0.98410 0.06040 0.19900 0.28700
O 	O 	0.76020 0.45590 0.59160 -0.41800
O 	O 	0.91790 0.59194 0.59860 -0.39500
C 	C 	0.90680 0.51410 0.55510 0.24700
Mg	Mg	0.67920 0.82673 0.99178 1.47100
P 	P 	0.64944 0.68166 0.26618 0.60400
O 	O 	0.61250 0.71491 0.10650 -0.43300
O 	O 	0.44840 0.71340 0.36080 -0.46400
O 	O 	0.90900 0.70444 0.33100 -0.45200
O 	O 	0.63320 0.57748 0.25680 -0.44700
H 	H 	0.51590 0.56040 0.30100 0.28900
O 	O 	0.73980 0.95590 0.90840 -0.42000
O 	O 	0.58210 0.09194 0.90140 -0.39500
C 	C 	0.59320 0.01410 0.94490 0.25100
