data_crystal

_cell_length_a 10.19190
_cell_length_b 13.52800
_cell_length_c 13.52800
_cell_angle_alpha 104.00200
_cell_angle_beta  96.18100
_cell_angle_gamma 83.81900

_symmetry_space_group_name_	'P 1'
_symmetry_space_group_name_H-M	'P 1'

loop_
_symmetry_equiv_pos_as_xyz
  x,y,z

loop_
_atom_site_label
_atom_site_type_symbol
_atom_site_fract_x
_atom_site_fract_y
_atom_site_fract_z
_atom_site_charge
U 	U 	0.75000 0.64890 0.64890 -0.01300
U 	U 	0.25000 0.35110 0.35110 -0.01300
H 	H 	0.39910 0.31090 0.74950 0.11100
H 	H 	0.80750 0.42700 0.89380 0.08600
H 	H 	0.74070 0.42000 0.99080 0.06300
H 	H 	0.61280 0.51040 0.83280 0.08300
H 	H 	0.54590 0.51320 0.93300 0.06500
H 	H 	0.62670 0.32950 0.79390 0.06200
H 	H 	0.55560 0.33390 0.89230 0.04300
H 	H 	0.33750 0.49920 0.87280 0.06700
H 	H 	0.23590 0.43450 0.79490 0.08700
H 	H 	0.62300 0.64450 0.04550 0.04900
H 	H 	0.74830 0.68820 0.11240 0.05600
H 	H 	0.73170 0.63630 0.88570 0.12500
H 	H 	0.83600 0.69510 0.96610 0.11800
H 	H 	0.52660 0.41020 0.66760 0.15100
H 	H 	0.41360 0.49440 0.70760 0.13700
H 	H 	0.10090 0.74950 0.31090 0.11100
H 	H 	0.69250 0.89380 0.42700 0.08600
H 	H 	0.75930 0.99080 0.42000 0.06300
H 	H 	0.88720 0.83280 0.51040 0.08200
H 	H 	0.95410 0.93300 0.51320 0.06400
H 	H 	0.87330 0.79390 0.32950 0.06200
H 	H 	0.94440 0.89230 0.33390 0.04300
H 	H 	0.16250 0.87280 0.49920 0.06700
H 	H 	0.26410 0.79490 0.43450 0.08700
H 	H 	0.87700 0.04550 0.64450 0.04900
H 	H 	0.75170 0.11240 0.68820 0.05600
H 	H 	0.76830 0.88570 0.63630 0.12500
H 	H 	0.66400 0.96610 0.69510 0.11900
H 	H 	0.97340 0.66760 0.41020 0.15100
H 	H 	0.08640 0.70760 0.49440 0.13700
H 	H 	0.60090 0.68910 0.25050 0.11100
H 	H 	0.19250 0.57300 0.10620 0.08600
H 	H 	0.25930 0.58000 0.00920 0.06300
H 	H 	0.38720 0.48960 0.16720 0.08300
H 	H 	0.45410 0.48680 0.06700 0.06500
H 	H 	0.37330 0.67050 0.20610 0.06200
H 	H 	0.44440 0.66610 0.10770 0.04300
H 	H 	0.66250 0.50080 0.12720 0.06700
H 	H 	0.76410 0.56550 0.20510 0.08700
H 	H 	0.37700 0.35550 0.95450 0.04900
H 	H 	0.25170 0.31180 0.88760 0.05600
H 	H 	0.26830 0.36370 0.11430 0.12500
H 	H 	0.16400 0.30490 0.03390 0.11800
H 	H 	0.47340 0.58980 0.33240 0.15100
H 	H 	0.58640 0.50560 0.29240 0.13700
H 	H 	0.89910 0.25050 0.68910 0.11100
H 	H 	0.30750 0.10620 0.57300 0.08600
H 	H 	0.24070 0.00920 0.58000 0.06300
H 	H 	0.11280 0.16720 0.48960 0.08200
H 	H 	0.04590 0.06700 0.48680 0.06400
H 	H 	0.12670 0.20610 0.67050 0.06200
H 	H 	0.05560 0.10770 0.66610 0.04300
H 	H 	0.83750 0.12720 0.50080 0.06700
H 	H 	0.73590 0.20510 0.56550 0.08700
H 	H 	0.12300 0.95450 0.35550 0.04900
H 	H 	0.24830 0.88760 0.31180 0.05600
H 	H 	0.23170 0.11430 0.36370 0.12500
H 	H 	0.33600 0.03390 0.30490 0.11900
H 	H 	0.02660 0.33240 0.58980 0.15100
H 	H 	0.91360 0.29240 0.50560 0.13700
C 	C 	0.74490 0.46210 0.94250 -0.06700
C 	C 	0.60810 0.47400 0.88580 -0.11600
C 	C 	0.56180 0.36890 0.83850 -0.05100
C 	C 	0.31600 0.43020 0.84000 -0.08800
C 	C 	0.70780 0.62570 0.07910 -0.06000
C 	C 	0.81400 0.62790 0.92730 -0.25600
C 	C 	0.92340 0.58050 0.85750 0.35300
C 	C 	0.43670 0.42120 0.68780 -0.28100
C 	C 	0.34320 0.37390 0.59830 0.36600
C 	C 	0.75510 0.94250 0.46210 -0.06800
C 	C 	0.89190 0.88580 0.47400 -0.11500
C 	C 	0.93820 0.83850 0.36890 -0.05100
C 	C 	0.18400 0.84000 0.43020 -0.08700
C 	C 	0.79220 0.07910 0.62570 -0.06000
C 	C 	0.68600 0.92730 0.62790 -0.25600
C 	C 	0.57660 0.85750 0.58050 0.35400
C 	C 	0.06330 0.68780 0.42120 -0.28100
C 	C 	0.15680 0.59830 0.37390 0.36600
C 	C 	0.25510 0.53790 0.05750 -0.06700
C 	C 	0.39190 0.52600 0.11420 -0.11600
C 	C 	0.43820 0.63110 0.16150 -0.05100
C 	C 	0.68400 0.56980 0.16000 -0.08800
C 	C 	0.29220 0.37430 0.92090 -0.06000
C 	C 	0.18600 0.37210 0.07270 -0.25600
C 	C 	0.07660 0.41950 0.14250 0.35300
C 	C 	0.56330 0.57880 0.31220 -0.28100
C 	C 	0.65680 0.62610 0.40170 0.36600
C 	C 	0.24490 0.05750 0.53790 -0.06800
C 	C 	0.10810 0.11420 0.52600 -0.11500
C 	C 	0.06180 0.16150 0.63110 -0.05100
C 	C 	0.81600 0.16000 0.56980 -0.08700
C 	C 	0.20780 0.92090 0.37430 -0.06000
C 	C 	0.31400 0.07270 0.37210 -0.25600
C 	C 	0.42340 0.14250 0.41950 0.35400
C 	C 	0.93670 0.31220 0.57880 -0.28100
C 	C 	0.84320 0.40170 0.62610 0.36600
N 	N 	0.79430 0.56390 0.99970 -0.04800
N 	N 	0.42890 0.37410 0.77790 -0.11800
N 	N 	0.70570 0.99970 0.56390 -0.04700
N 	N 	0.07110 0.77790 0.37410 -0.11800
N 	N 	0.20570 0.43610 0.00030 -0.04800
N 	N 	0.57110 0.62590 0.22210 -0.11800
N 	N 	0.29430 0.00030 0.43610 -0.04700
N 	N 	0.92890 0.22210 0.62590 -0.11800
O 	O 	0.91510 0.60910 0.77430 -0.22100
O 	O 	0.01420 0.52410 0.88630 -0.24000
O 	O 	0.34380 0.41328 0.52112 -0.20000
O 	O 	0.28060 0.30410 0.60510 -0.27000
O 	O 	0.58490 0.77430 0.60910 -0.22100
O 	O 	0.48580 0.88630 0.52410 -0.24100
O 	O 	0.15620 0.52112 0.41328 -0.20000
O 	O 	0.21940 0.60510 0.30410 -0.27000
O 	O 	0.08490 0.39090 0.22570 -0.22100
O 	O 	0.98580 0.47590 0.11370 -0.24000
O 	O 	0.65620 0.58672 0.47888 -0.20000
O 	O 	0.71940 0.69590 0.39490 -0.27000
O 	O 	0.41510 0.22570 0.39090 -0.22100
O 	O 	0.51420 0.11370 0.47590 -0.24100
O 	O 	0.84380 0.47888 0.58672 -0.20000
O 	O 	0.78060 0.39490 0.69590 -0.27000
