data_crystal

_cell_length_a 11.57300
_cell_length_b 13.89200
_cell_length_c 14.65500
_cell_angle_alpha 62.63100
_cell_angle_beta  68.97700
_cell_angle_gamma 68.80000

_symmetry_space_group_name_	'P 1'
_symmetry_space_group_name_H-M	'P 1'

loop_
_symmetry_equiv_pos_as_xyz
  x,y,z

loop_
_atom_site_label
_atom_site_type_symbol
_atom_site_fract_x
_atom_site_fract_y
_atom_site_fract_z
_atom_site_charge
C 	C 	0.94200 0.35190 0.34400 -0.29500
H 	H 	0.88980 0.39000 0.38810 0.14400
C 	C 	0.89280 0.29710 0.31360 0.23800
C 	C 	0.96900 0.23970 0.24840 -0.29700
H 	H 	0.93430 0.20430 0.22760 0.14300
C 	C 	0.09660 0.23620 0.21520 0.24200
C 	C 	0.15020 0.28990 0.24360 -0.29400
H 	H 	0.23710 0.28660 0.22060 0.14300
C 	C 	0.07080 0.34860 0.30740 0.23700
C 	C 	0.08620 0.51440 0.32120 0.00800
H 	H 	0.01700 0.56580 0.29380 0.03700
C 	C 	0.28890 0.20060 0.07590 0.00700
H 	H 	0.32760 0.25500 0.06360 0.02800
C 	C 	0.15550 0.09260 0.14050 0.10600
H 	H 	0.08580 0.06130 0.18030 -0.00100
C 	C 	0.66370 0.37660 0.37740 0.11600
H 	H 	0.67230 0.44300 0.37210 -0.00500
C 	C 	0.71030 0.21310 0.37010 0.01700
H 	H 	0.75450 0.14700 0.35930 0.03300
C 	C 	0.58400 0.24540 0.40650 0.00500
H 	H 	0.52500 0.20430 0.42600 0.02700
C 	C 	0.22560 0.36640 0.37640 0.12400
H 	H 	0.27190 0.29250 0.39460 -0.01600
C 	C 	0.16510 0.53530 0.35340 0.00500
H 	H 	0.16040 0.60420 0.35200 0.01800
C 	C 	0.53930 0.01650 0.19150 0.38500
C 	C 	0.44600 0.94320 0.25910 -0.10400
C 	C 	0.47240 0.83880 0.25740 0.03100
H 	H 	0.54720 0.81340 0.21430 0.03400
C 	C 	0.38700 0.77250 0.31990 -0.11700
C 	C 	0.27250 0.81380 0.37920 -0.00600
H 	H 	0.21460 0.76920 0.42100 0.04300
C 	C 	0.24370 0.91920 0.37720 -0.01600
C 	C 	0.33200 0.98300 0.31890 -0.00900
H 	H 	0.31470 0.05350 0.31980 0.04900
C 	C 	0.11740 0.96210 0.44000 0.02900
C 	C 	0.00970 0.93260 0.45150 -0.06100
H 	H 	0.01570 0.88740 0.41810 0.05900
C 	C 	0.10650 0.03130 0.48870 -0.05200
H 	H 	0.17750 0.05330 0.48100 0.05600
C 	C 	0.41710 0.65560 0.32610 0.36300
C 	C 	0.27360 0.31140 0.64600 0.32000
C 	C 	0.18430 0.28860 0.75140 -0.07300
C 	C 	0.11030 0.21430 0.78670 0.00500
H 	H 	0.12440 0.17160 0.74840 0.05500
C 	C 	0.01500 0.20250 0.87870 -0.08700
C 	C 	0.99380 0.26780 0.93460 -0.03800
H 	H 	0.92930 0.26080 0.99590 0.05300
C 	C 	0.06690 0.34300 0.90050 0.00600
C 	C 	0.16230 0.35190 0.80900 -0.03500
H 	H 	0.21280 0.40150 0.78560 0.06200
C 	C 	0.03300 0.42320 0.95300 0.02500
C 	C 	0.90930 0.45600 0.00340 -0.05300
H 	H 	0.84670 0.42680 0.00630 0.05100
C 	C 	0.12350 0.46740 0.94990 -0.05500
H 	H 	0.20780 0.44600 0.91600 0.05500
C 	C 	0.92770 0.13240 0.90780 0.32900
C 	C 	0.33170 0.12810 0.02890 0.00500
H 	H 	0.40580 0.12440 0.97610 0.00100
Co	Co	0.38401 0.43284 0.45397 1.15700
Co	Co	0.72718 0.05665 0.98441 1.13300
N 	N 	0.55630 0.34720 0.41030 -0.26100
N 	N 	0.76000 0.29640 0.35230 -0.16200
N 	N 	0.17560 0.17940 0.14650 -0.16100
N 	N 	0.12370 0.40640 0.33510 -0.16800
O 	O 	0.52560 0.09870 0.20750 -0.30200
O 	O 	0.62280 0.98580 0.12190 -0.47200
O 	O 	0.47650 0.63410 0.24740 -0.32200
O 	O 	0.37590 0.58800 0.41530 -0.46700
O 	O 	0.30630 0.40360 0.60450 -0.42800
O 	O 	0.30760 0.24850 0.59900 -0.32100
O 	O 	0.92230 0.10270 0.84250 -0.35400
N 	N 	0.25220 0.44150 0.38800 -0.25700
O 	O 	0.85440 0.10840 0.99740 -0.44400
N 	N 	0.24970 0.05910 0.07000 -0.25300
C 	C 	0.05800 0.64810 0.65600 -0.29400
H 	H 	0.11020 0.61000 0.61190 0.14500
C 	C 	0.10720 0.70290 0.68640 0.23900
C 	C 	0.03100 0.76030 0.75160 -0.29600
H 	H 	0.06570 0.79570 0.77240 0.14300
C 	C 	0.90340 0.76380 0.78480 0.24200
C 	C 	0.84980 0.71010 0.75640 -0.29400
H 	H 	0.76290 0.71340 0.77940 0.14300
C 	C 	0.92920 0.65140 0.69260 0.23700
C 	C 	0.91380 0.48560 0.67880 0.00800
H 	H 	0.98300 0.43420 0.70620 0.03700
C 	C 	0.71110 0.79940 0.92410 0.00700
H 	H 	0.67240 0.74500 0.93640 0.02800
C 	C 	0.84450 0.90740 0.85950 0.10600
H 	H 	0.91420 0.93870 0.81970 -0.00100
C 	C 	0.33630 0.62340 0.62260 0.11600
H 	H 	0.32770 0.55700 0.62790 -0.00500
C 	C 	0.28970 0.78690 0.62990 0.01700
H 	H 	0.24550 0.85300 0.64070 0.03300
C 	C 	0.41600 0.75460 0.59350 0.00500
H 	H 	0.47500 0.79570 0.57400 0.02700
C 	C 	0.77440 0.63360 0.62360 0.12400
H 	H 	0.72810 0.70750 0.60540 -0.01600
C 	C 	0.83490 0.46470 0.64660 0.00500
H 	H 	0.83960 0.39580 0.64800 0.01800
C 	C 	0.46070 0.98350 0.80850 0.38500
C 	C 	0.55400 0.05680 0.74090 -0.10400
C 	C 	0.52760 0.16120 0.74260 0.03100
H 	H 	0.45280 0.18660 0.78570 0.03400
C 	C 	0.61300 0.22750 0.68010 -0.11700
C 	C 	0.72750 0.18620 0.62080 -0.00600
H 	H 	0.78540 0.23080 0.57900 0.04300
C 	C 	0.75630 0.08080 0.62280 -0.01600
C 	C 	0.66800 0.01700 0.68110 -0.00900
H 	H 	0.68530 0.94650 0.68020 0.04900
C 	C 	0.88260 0.03790 0.56000 0.02900
C 	C 	0.99030 0.06740 0.54850 -0.06100
H 	H 	0.98430 0.11260 0.58190 0.05900
C 	C 	0.89350 0.96870 0.51130 -0.05200
H 	H 	0.82250 0.94670 0.51900 0.05600
C 	C 	0.58290 0.34440 0.67390 0.36300
C 	C 	0.72640 0.68860 0.35400 0.32000
C 	C 	0.81570 0.71140 0.24860 -0.07300
C 	C 	0.88970 0.78570 0.21330 0.00500
H 	H 	0.87560 0.82840 0.25160 0.05500
C 	C 	0.98500 0.79750 0.12130 -0.08700
C 	C 	0.00620 0.73220 0.06540 -0.03800
H 	H 	0.07070 0.73920 0.00410 0.05300
C 	C 	0.93310 0.65700 0.09950 0.00600
C 	C 	0.83770 0.64810 0.19100 -0.03500
H 	H 	0.78720 0.59850 0.21440 0.06200
C 	C 	0.96700 0.57680 0.04700 0.02500
C 	C 	0.09070 0.54400 0.99660 -0.05300
H 	H 	0.15330 0.57320 0.99370 0.05100
C 	C 	0.87650 0.53260 0.05010 -0.05500
H 	H 	0.79220 0.55400 0.08400 0.05500
C 	C 	0.07230 0.86760 0.09220 0.32900
C 	C 	0.66830 0.87190 0.97110 0.00500
H 	H 	0.59420 0.87560 0.02390 0.00100
Co	Co	0.61599 0.56716 0.54603 1.15700
Co	Co	0.27282 0.94335 0.01559 1.13300
N 	N 	0.44370 0.65280 0.58970 -0.26100
N 	N 	0.24000 0.70360 0.64770 -0.16200
N 	N 	0.82440 0.82060 0.85350 -0.16100
N 	N 	0.87630 0.59360 0.66490 -0.16800
O 	O 	0.47440 0.90130 0.79250 -0.30200
O 	O 	0.37720 0.01420 0.87810 -0.47200
O 	O 	0.52350 0.36590 0.75260 -0.32200
O 	O 	0.62410 0.41200 0.58470 -0.46700
O 	O 	0.69370 0.59640 0.39550 -0.42800
O 	O 	0.69240 0.75150 0.40100 -0.32100
O 	O 	0.07770 0.89730 0.15750 -0.35400
N 	N 	0.74780 0.55850 0.61200 -0.25700
O 	O 	0.14560 0.89160 0.00260 -0.44400
N 	N 	0.75030 0.94090 0.93000 -0.25300
