data_crystal

_cell_length_a 15.85740
_cell_length_b 19.33250
_cell_length_c 25.29620
_cell_angle_alpha 90.00000
_cell_angle_beta  102.69400
_cell_angle_gamma 90.00000

_symmetry_space_group_name_	'P 1'
_symmetry_space_group_name_H-M	'P 1'

loop_
_symmetry_equiv_pos_as_xyz
  x,y,z

loop_
_atom_site_label
_atom_site_type_symbol
_atom_site_fract_x
_atom_site_fract_y
_atom_site_fract_z
_atom_site_charge
C 	C 	0.42200 0.11720 0.07453 0.08000
H 	H 	0.47870 0.12230 0.07090 -0.02400
C 	C 	0.36140 0.16620 0.05040 -0.16600
H 	H 	0.37680 0.20190 0.02980 0.08600
C 	C 	0.27700 0.16080 0.05781 0.09500
C 	C 	0.25820 0.10600 0.08910 -0.16300
H 	H 	0.20310 0.10170 0.09590 0.08900
C 	C 	0.32140 0.05790 0.11020 0.08400
H 	H 	0.30710 0.02090 0.13010 -0.01500
C 	C 	0.21600 0.27800 0.02550 -0.03400
C 	C 	0.29100 0.32180 0.05010 0.10200
C 	C 	0.31980 0.37300 0.01970 -0.17000
H 	H 	0.29330 0.37930 0.98340 0.09300
C 	C 	0.38780 0.41390 0.04400 0.08900
H 	H 	0.40710 0.44710 0.02280 -0.02400
C 	C 	0.40250 0.35930 0.12520 0.09000
H 	H 	0.43110 0.35390 0.16120 -0.02000
C 	C 	0.33440 0.31440 0.10440 -0.16600
H 	H 	0.31830 0.28020 0.12610 0.09000
C 	C 	0.05870 0.24910 0.97650 -0.00500
C 	C 	0.97370 0.25310 0.95430 -0.00800
C 	C 	0.81550 0.29540 0.92410 -0.03700
C 	C 	0.74290 0.34410 0.91330 0.10600
C 	C 	0.74690 0.40550 0.88630 -0.17200
H 	H 	0.79640 0.41720 0.87430 0.09200
C 	C 	0.67740 0.44900 0.87750 0.09100
H 	H 	0.68160 0.49000 0.85900 -0.02100
C 	C 	0.59970 0.37810 0.92070 0.09400
H 	H 	0.54940 0.36780 0.93240 -0.02600
C 	C 	0.66790 0.33130 0.93250 -0.17100
H 	H 	0.66370 0.29190 0.95300 0.09000
C 	C 	0.81070 0.22610 0.92800 -0.03300
C 	C 	0.73040 0.18340 0.91700 0.09900
C 	C 	0.67510 0.18420 0.86570 -0.16300
H 	H 	0.68620 0.21330 0.83880 0.08800
C 	C 	0.60400 0.14140 0.85560 0.08100
H 	H 	0.56780 0.14220 0.82120 -0.01800
C 	C 	0.63550 0.10030 0.94310 0.08400
H 	H 	0.62070 0.07330 0.97010 -0.02100
C 	C 	0.70940 0.14120 0.95620 -0.16600
H 	H 	0.74430 0.14000 0.99090 0.09000
C 	C 	0.47270 0.03190 0.23990 0.08700
H 	H 	0.43000 0.06000 0.21960 -0.01900
C 	C 	0.48450 0.03290 0.29490 -0.16800
H 	H 	0.44880 0.06000 0.31110 0.08900
C 	C 	0.54930 0.99360 0.32688 0.10200
C 	C 	0.59960 0.95240 0.30003 -0.16800
H 	H 	0.64350 0.92450 0.31950 0.09000
C 	C 	0.58260 0.95430 0.24438 0.09200
H 	H 	0.61710 0.92730 0.22710 -0.02500
C 	C 	0.56230 0.99270 0.38630 -0.03300
C 	C 	0.52110 0.99530 0.47994 -0.00400
C 	C 	0.63760 0.99340 0.42318 -0.03500
C 	C 	0.72510 0.99620 0.41175 0.10500
C 	C 	0.74840 0.04780 0.37940 -0.17700
H 	H 	0.70900 0.08180 0.36440 0.09200
C 	C 	0.83000 0.04780 0.36980 0.09000
H 	H 	0.84430 0.08220 0.34750 -0.02800
C 	C 	0.86820 0.95110 0.42227 0.09000
H 	H 	0.90890 0.91750 0.43650 -0.02500
C 	C 	0.78830 0.94730 0.43443 -0.17400
H 	H 	0.77610 0.91290 0.45730 0.09300
C 	C 	0.92570 0.95350 0.25530 0.09200
H 	H 	0.89630 0.92200 0.27240 -0.02500
C 	C 	0.90760 0.95380 0.19960 -0.16600
H 	H 	0.86690 0.92350 0.18010 0.09000
C 	C 	0.95110 0.00060 0.17280 0.09700
C 	C 	0.01080 0.04370 0.20460 -0.16100
H 	H 	0.04200 0.07490 0.18840 0.08600
C 	C 	0.02460 0.04040 0.26040 0.08100
H 	H 	0.06440 0.07060 0.28090 -0.01700
C 	C 	0.93600 0.00310 0.11330 -0.03200
C 	C 	0.86090 0.00240 0.07660 -0.03600
C 	C 	0.77240 0.00130 0.08710 0.10900
C 	C 	0.75010 0.04070 0.12730 -0.17700
H 	H 	0.79070 0.06970 0.14860 0.09200
C 	C 	0.66670 0.03680 0.13590 0.09300
H 	H 	0.65270 0.06440 0.16280 -0.02700
C 	C 	0.62750 0.95790 0.06891 0.09900
H 	H 	0.58600 0.92880 0.04870 -0.03200
C 	C 	0.70820 0.95940 0.05690 -0.18200
H 	H 	0.71960 0.93250 0.02890 0.09900
C 	C 	0.97840 0.00400 0.01990 -0.00500
C 	C 	0.20920 0.20880 0.03110 -0.03500
Cu	Cu	0.49222 0.98638 0.13011 0.85100
Cu	Cu	0.00385 0.99568 0.36878 0.85200
N 	N 	0.40290 0.06280 0.10285 -0.24100
N 	N 	0.42890 0.40920 0.09678 -0.24200
N 	N 	0.60250 0.43660 0.89370 -0.24800
N 	N 	0.58450 0.09830 0.89313 -0.24400
N 	N 	0.52010 0.99210 0.21316 -0.24500
N 	N 	0.89120 0.00060 0.39087 -0.25700
N 	N 	0.60570 0.99570 0.10763 -0.25700
N 	N 	0.98290 0.99540 0.28656 -0.24600
S 	S 	0.12705 0.32220 0.98546 -0.00300
S 	S 	0.11178 0.17056 0.99659 -0.00200
S 	S 	0.90775 0.17902 0.94378 -0.00200
S 	S 	0.92085 0.33063 0.93230 -0.00500
S 	S 	0.46762 0.98713 0.41170 -0.00800
S 	S 	0.63429 0.98871 0.49204 -0.00100
S 	S 	0.86506 0.00771 0.00760 -0.00700
S 	S 	0.03073 0.01073 0.08830 -0.00600
C 	C 	0.07800 0.61720 0.42547 0.08100
H 	H 	0.02130 0.62230 0.42910 -0.02300
C 	C 	0.13860 0.66620 0.44960 -0.16500
H 	H 	0.12320 0.70190 0.47020 0.08700
C 	C 	0.22300 0.66080 0.44219 0.09600
C 	C 	0.24180 0.60600 0.41090 -0.16200
H 	H 	0.29690 0.60170 0.40410 0.08900
C 	C 	0.17860 0.55790 0.38980 0.08300
H 	H 	0.19290 0.52090 0.36990 -0.01500
C 	C 	0.28400 0.77800 0.47450 -0.03400
C 	C 	0.20900 0.82180 0.44990 0.10100
C 	C 	0.18020 0.87300 0.48030 -0.17000
H 	H 	0.20670 0.87930 0.51660 0.09300
C 	C 	0.11220 0.91390 0.45600 0.08900
H 	H 	0.09290 0.94710 0.47720 -0.02400
C 	C 	0.09750 0.85930 0.37480 0.09000
H 	H 	0.06890 0.85390 0.33880 -0.02000
C 	C 	0.16560 0.81440 0.39560 -0.16600
H 	H 	0.18170 0.78020 0.37390 0.09000
C 	C 	0.44130 0.74910 0.52350 -0.00700
C 	C 	0.52630 0.75310 0.54570 -0.00600
C 	C 	0.68450 0.79540 0.57590 -0.03700
C 	C 	0.75710 0.84410 0.58670 0.10600
C 	C 	0.75310 0.90550 0.61370 -0.17100
H 	H 	0.70360 0.91720 0.62570 0.09200
C 	C 	0.82260 0.94900 0.62250 0.09100
H 	H 	0.81840 0.99000 0.64100 -0.02000
C 	C 	0.90030 0.87810 0.57930 0.09400
H 	H 	0.95060 0.86780 0.56760 -0.02500
C 	C 	0.83210 0.83130 0.56750 -0.17100
H 	H 	0.83630 0.79190 0.54700 0.09000
C 	C 	0.68930 0.72610 0.57200 -0.03300
C 	C 	0.76960 0.68340 0.58300 0.09900
C 	C 	0.82490 0.68420 0.63430 -0.16300
H 	H 	0.81380 0.71330 0.66120 0.08800
C 	C 	0.89600 0.64140 0.64440 0.08200
H 	H 	0.93220 0.64220 0.67880 -0.01800
C 	C 	0.86450 0.60030 0.55690 0.08400
H 	H 	0.87930 0.57330 0.52990 -0.02100
C 	C 	0.79060 0.64120 0.54380 -0.16600
H 	H 	0.75570 0.64000 0.50910 0.09100
C 	C 	0.02730 0.53190 0.26010 0.08700
H 	H 	0.07000 0.56000 0.28040 -0.01900
C 	C 	0.01550 0.53290 0.20510 -0.16900
H 	H 	0.05120 0.56000 0.18890 0.08900
C 	C 	0.95070 0.49360 0.17312 0.10300
C 	C 	0.90040 0.45240 0.19997 -0.16900
H 	H 	0.85650 0.42450 0.18050 0.09000
C 	C 	0.91740 0.45430 0.25562 0.09200
H 	H 	0.88290 0.42730 0.27290 -0.02500
C 	C 	0.93770 0.49270 0.11370 -0.03300
C 	C 	0.97890 0.49530 0.02006 -0.00300
C 	C 	0.86240 0.49340 0.07682 -0.03400
C 	C 	0.77490 0.49620 0.08825 0.10200
C 	C 	0.75160 0.54780 0.12060 -0.17400
H 	H 	0.79100 0.58180 0.13560 0.09100
C 	C 	0.67000 0.54780 0.13020 0.08900
H 	H 	0.65570 0.58220 0.15250 -0.02700
C 	C 	0.63180 0.45110 0.07773 0.08700
H 	H 	0.59110 0.41750 0.06350 -0.02500
C 	C 	0.71170 0.44730 0.06557 -0.17200
H 	H 	0.72390 0.41290 0.04270 0.09200
C 	C 	0.57430 0.45350 0.24470 0.09400
H 	H 	0.60370 0.42200 0.22760 -0.02600
C 	C 	0.59240 0.45380 0.30040 -0.17100
H 	H 	0.63310 0.42350 0.31990 0.09100
C 	C 	0.54890 0.50060 0.32720 0.10200
C 	C 	0.48920 0.54370 0.29540 -0.16600
H 	H 	0.45800 0.57490 0.31160 0.08800
C 	C 	0.47540 0.54040 0.23960 0.08300
H 	H 	0.43560 0.57060 0.21910 -0.01800
C 	C 	0.56400 0.50310 0.38670 -0.03200
C 	C 	0.63910 0.50240 0.42340 -0.03600
C 	C 	0.72760 0.50130 0.41290 0.11000
C 	C 	0.74990 0.54070 0.37270 -0.17700
H 	H 	0.70930 0.56970 0.35140 0.09200
C 	C 	0.83330 0.53680 0.36410 0.09300
H 	H 	0.84730 0.56440 0.33720 -0.02700
C 	C 	0.87250 0.45790 0.43109 0.09900
H 	H 	0.91400 0.42880 0.45130 -0.03200
C 	C 	0.79180 0.45940 0.44310 -0.18400
H 	H 	0.78040 0.43250 0.47110 0.09900
C 	C 	0.52160 0.50400 0.48010 -0.00400
C 	C 	0.29080 0.70880 0.46890 -0.03500
Cu	Cu	0.00778 0.48638 0.36989 0.85100
Cu	Cu	0.49615 0.49568 0.13122 0.85300
N 	N 	0.09710 0.56280 0.39715 -0.24100
N 	N 	0.07110 0.90920 0.40322 -0.24200
N 	N 	0.89750 0.93660 0.60630 -0.24700
N 	N 	0.91550 0.59830 0.60687 -0.24400
N 	N 	0.97990 0.49210 0.28684 -0.24400
N 	N 	0.60880 0.50060 0.10913 -0.25600
N 	N 	0.89430 0.49570 0.39237 -0.25800
N 	N 	0.51710 0.49540 0.21344 -0.24700
S 	S 	0.37295 0.82220 0.51454 -0.00300
S 	S 	0.38822 0.67056 0.50341 -0.00300
S 	S 	0.59225 0.67902 0.55622 -0.00100
S 	S 	0.57915 0.83063 0.56770 -0.00500
S 	S 	0.03238 0.48713 0.08830 -0.00800
S 	S 	0.86571 0.48871 0.00796 -0.00100
S 	S 	0.63494 0.50771 0.49240 -0.00700
S 	S 	0.46927 0.51073 0.41170 -0.01000
C 	C 	0.57800 0.88280 0.92547 0.08100
H 	H 	0.52130 0.87770 0.92910 -0.02300
C 	C 	0.63860 0.83380 0.94960 -0.16500
H 	H 	0.62320 0.79810 0.97020 0.08700
C 	C 	0.72300 0.83920 0.94219 0.09600
C 	C 	0.74180 0.89400 0.91090 -0.16200
H 	H 	0.79690 0.89830 0.90410 0.08900
C 	C 	0.67860 0.94210 0.88980 0.08400
H 	H 	0.69290 0.97910 0.86990 -0.01500
C 	C 	0.78400 0.72200 0.97450 -0.03400
C 	C 	0.70900 0.67820 0.94990 0.10200
C 	C 	0.68020 0.62700 0.98030 -0.17000
H 	H 	0.70670 0.62070 0.01660 0.09300
C 	C 	0.61220 0.58610 0.95600 0.08900
H 	H 	0.59290 0.55290 0.97720 -0.02400
C 	C 	0.59750 0.64070 0.87480 0.09000
H 	H 	0.56890 0.64610 0.83880 -0.02000
C 	C 	0.66560 0.68560 0.89560 -0.16600
H 	H 	0.68170 0.71980 0.87390 0.09000
C 	C 	0.94130 0.75090 0.02350 -0.00500
C 	C 	0.02630 0.74690 0.04570 -0.00800
C 	C 	0.18450 0.70460 0.07590 -0.03700
C 	C 	0.25710 0.65590 0.08670 0.10600
C 	C 	0.25310 0.59450 0.11370 -0.17200
H 	H 	0.20360 0.58280 0.12570 0.09200
C 	C 	0.32260 0.55100 0.12250 0.09100
H 	H 	0.31840 0.51000 0.14100 -0.02100
C 	C 	0.40030 0.62190 0.07930 0.09400
H 	H 	0.45060 0.63220 0.06760 -0.02600
C 	C 	0.33210 0.66870 0.06750 -0.17100
H 	H 	0.33630 0.70810 0.04700 0.09000
C 	C 	0.18930 0.77390 0.07200 -0.03300
C 	C 	0.26960 0.81660 0.08300 0.09900
C 	C 	0.32490 0.81580 0.13430 -0.16300
H 	H 	0.31380 0.78670 0.16120 0.08800
C 	C 	0.39600 0.85860 0.14440 0.08100
H 	H 	0.43220 0.85780 0.17880 -0.01800
C 	C 	0.36450 0.89970 0.05690 0.08400
H 	H 	0.37930 0.92670 0.02990 -0.02100
C 	C 	0.29060 0.85880 0.04380 -0.16600
H 	H 	0.25570 0.86000 0.00910 0.09000
C 	C 	0.52730 0.96810 0.76010 0.08700
H 	H 	0.57000 0.94000 0.78040 -0.01900
C 	C 	0.51550 0.96710 0.70510 -0.16800
H 	H 	0.55120 0.94000 0.68890 0.08900
C 	C 	0.45070 0.00640 0.67312 0.10200
C 	C 	0.40040 0.04760 0.69997 -0.16800
H 	H 	0.35650 0.07550 0.68050 0.09000
C 	C 	0.41740 0.04570 0.75562 0.09200
H 	H 	0.38290 0.07270 0.77290 -0.02500
C 	C 	0.43770 0.00730 0.61370 -0.03300
C 	C 	0.47890 0.00470 0.52006 -0.00400
C 	C 	0.36240 0.00660 0.57682 -0.03500
C 	C 	0.27490 0.00380 0.58825 0.10500
C 	C 	0.25160 0.95220 0.62060 -0.17700
H 	H 	0.29100 0.91820 0.63560 0.09200
C 	C 	0.17000 0.95220 0.63020 0.09000
H 	H 	0.15570 0.91780 0.65250 -0.02800
C 	C 	0.13180 0.04890 0.57773 0.09000
H 	H 	0.09110 0.08250 0.56350 -0.02500
C 	C 	0.21170 0.05270 0.56557 -0.17400
H 	H 	0.22390 0.08710 0.54270 0.09300
C 	C 	0.07430 0.04650 0.74470 0.09200
H 	H 	0.10370 0.07800 0.72760 -0.02500
C 	C 	0.09240 0.04620 0.80040 -0.16600
H 	H 	0.13310 0.07650 0.81990 0.09000
C 	C 	0.04890 0.99940 0.82720 0.09700
C 	C 	0.98920 0.95630 0.79540 -0.16100
H 	H 	0.95800 0.92510 0.81160 0.08600
C 	C 	0.97540 0.95960 0.73960 0.08100
H 	H 	0.93560 0.92940 0.71910 -0.01700
C 	C 	0.06400 0.99690 0.88670 -0.03200
C 	C 	0.13910 0.99760 0.92340 -0.03600
C 	C 	0.22760 0.99870 0.91290 0.10900
C 	C 	0.24990 0.95930 0.87270 -0.17700
H 	H 	0.20930 0.93030 0.85140 0.09200
C 	C 	0.33330 0.96320 0.86410 0.09300
H 	H 	0.34730 0.93560 0.83720 -0.02700
C 	C 	0.37250 0.04210 0.93109 0.09900
H 	H 	0.41400 0.07120 0.95130 -0.03200
C 	C 	0.29180 0.04060 0.94310 -0.18200
H 	H 	0.28040 0.06750 0.97110 0.09900
C 	C 	0.02160 0.99600 0.98010 -0.00500
C 	C 	0.79080 0.79120 0.96890 -0.03500
Cu	Cu	0.50778 0.01362 0.86989 0.85100
Cu	Cu	0.99615 0.00432 0.63122 0.85200
N 	N 	0.59710 0.93720 0.89715 -0.24100
N 	N 	0.57110 0.59080 0.90322 -0.24200
N 	N 	0.39750 0.56340 0.10630 -0.24800
N 	N 	0.41550 0.90170 0.10687 -0.24400
N 	N 	0.47990 0.00790 0.78684 -0.24500
N 	N 	0.10880 0.99940 0.60913 -0.25700
N 	N 	0.39430 0.00430 0.89237 -0.25700
N 	N 	0.01710 0.00460 0.71344 -0.24600
S 	S 	0.87295 0.67780 0.01454 -0.00300
S 	S 	0.88822 0.82944 0.00341 -0.00200
S 	S 	0.09225 0.82098 0.05622 -0.00200
S 	S 	0.07915 0.66937 0.06770 -0.00500
S 	S 	0.53238 0.01287 0.58830 -0.00800
S 	S 	0.36571 0.01129 0.50796 -0.00100
S 	S 	0.13494 0.99229 0.99240 -0.00700
S 	S 	0.96927 0.98927 0.91170 -0.00600
C 	C 	0.92200 0.38280 0.57453 0.08100
H 	H 	0.97870 0.37770 0.57090 -0.02300
C 	C 	0.86140 0.33380 0.55040 -0.16500
H 	H 	0.87680 0.29810 0.52980 0.08700
C 	C 	0.77700 0.33920 0.55781 0.09600
C 	C 	0.75820 0.39400 0.58910 -0.16200
H 	H 	0.70310 0.39830 0.59590 0.08900
C 	C 	0.82140 0.44210 0.61020 0.08300
H 	H 	0.80710 0.47910 0.63010 -0.01500
C 	C 	0.71600 0.22200 0.52550 -0.03400
C 	C 	0.79100 0.17820 0.55010 0.10100
C 	C 	0.81980 0.12700 0.51970 -0.17000
H 	H 	0.79330 0.12070 0.48340 0.09300
C 	C 	0.88780 0.08610 0.54400 0.08900
H 	H 	0.90710 0.05290 0.52280 -0.02400
C 	C 	0.90250 0.14070 0.62520 0.09000
H 	H 	0.93110 0.14610 0.66120 -0.02000
C 	C 	0.83440 0.18560 0.60440 -0.16600
H 	H 	0.81830 0.21980 0.62610 0.09000
C 	C 	0.55870 0.25090 0.47650 -0.00700
C 	C 	0.47370 0.24690 0.45430 -0.00600
C 	C 	0.31550 0.20460 0.42410 -0.03700
C 	C 	0.24290 0.15590 0.41330 0.10600
C 	C 	0.24690 0.09450 0.38630 -0.17100
H 	H 	0.29640 0.08280 0.37430 0.09200
C 	C 	0.17740 0.05100 0.37750 0.09100
H 	H 	0.18160 0.01000 0.35900 -0.02000
C 	C 	0.09970 0.12190 0.42070 0.09400
H 	H 	0.04940 0.13220 0.43240 -0.02500
C 	C 	0.16790 0.16870 0.43250 -0.17100
H 	H 	0.16370 0.20810 0.45300 0.09000
C 	C 	0.31070 0.27390 0.42800 -0.03300
C 	C 	0.23040 0.31660 0.41700 0.09900
C 	C 	0.17510 0.31580 0.36570 -0.16300
H 	H 	0.18620 0.28670 0.33880 0.08800
C 	C 	0.10400 0.35860 0.35560 0.08200
H 	H 	0.06780 0.35780 0.32120 -0.01800
C 	C 	0.13550 0.39970 0.44310 0.08400
H 	H 	0.12070 0.42670 0.47010 -0.02100
C 	C 	0.20940 0.35880 0.45620 -0.16600
H 	H 	0.24430 0.36000 0.49090 0.09100
C 	C 	0.97270 0.46810 0.73990 0.08700
H 	H 	0.93000 0.44000 0.71960 -0.01900
C 	C 	0.98450 0.46710 0.79490 -0.16900
H 	H 	0.94880 0.44000 0.81110 0.08900
C 	C 	0.04930 0.50640 0.82688 0.10300
C 	C 	0.09960 0.54760 0.80003 -0.16900
H 	H 	0.14350 0.57550 0.81950 0.09000
C 	C 	0.08260 0.54570 0.74438 0.09200
H 	H 	0.11710 0.57270 0.72710 -0.02500
C 	C 	0.06230 0.50730 0.88630 -0.03300
C 	C 	0.02110 0.50470 0.97994 -0.00300
C 	C 	0.13760 0.50660 0.92318 -0.03400
C 	C 	0.22510 0.50380 0.91175 0.10200
C 	C 	0.24840 0.45220 0.87940 -0.17400
H 	H 	0.20900 0.41820 0.86440 0.09100
C 	C 	0.33000 0.45220 0.86980 0.08900
H 	H 	0.34430 0.41780 0.84750 -0.02700
C 	C 	0.36820 0.54890 0.92227 0.08700
H 	H 	0.40890 0.58250 0.93650 -0.02500
C 	C 	0.28830 0.55270 0.93443 -0.17200
H 	H 	0.27610 0.58710 0.95730 0.09200
C 	C 	0.42570 0.54650 0.75530 0.09400
H 	H 	0.39630 0.57800 0.77240 -0.02600
C 	C 	0.40760 0.54620 0.69960 -0.17100
H 	H 	0.36690 0.57650 0.68010 0.09100
C 	C 	0.45110 0.49940 0.67280 0.10200
C 	C 	0.51080 0.45630 0.70460 -0.16600
H 	H 	0.54200 0.42510 0.68840 0.08800
C 	C 	0.52460 0.45960 0.76040 0.08300
H 	H 	0.56440 0.42940 0.78090 -0.01800
C 	C 	0.43600 0.49690 0.61330 -0.03200
C 	C 	0.36090 0.49760 0.57660 -0.03600
C 	C 	0.27240 0.49870 0.58710 0.11000
C 	C 	0.25010 0.45930 0.62730 -0.17700
H 	H 	0.29070 0.43030 0.64860 0.09200
C 	C 	0.16670 0.46320 0.63590 0.09300
H 	H 	0.15270 0.43560 0.66280 -0.02700
C 	C 	0.12750 0.54210 0.56891 0.09900
H 	H 	0.08600 0.57120 0.54870 -0.03200
C 	C 	0.20820 0.54060 0.55690 -0.18400
H 	H 	0.21960 0.56750 0.52890 0.09900
C 	C 	0.47840 0.49600 0.51990 -0.00400
C 	C 	0.70920 0.29120 0.53110 -0.03500
Cu	Cu	0.99222 0.51362 0.63011 0.85100
Cu	Cu	0.50385 0.50432 0.86878 0.85300
N 	N 	0.90290 0.43720 0.60285 -0.24100
N 	N 	0.92890 0.09080 0.59678 -0.24200
N 	N 	0.10250 0.06340 0.39370 -0.24700
N 	N 	0.08450 0.40170 0.39313 -0.24400
N 	N 	0.02010 0.50790 0.71316 -0.24400
N 	N 	0.39120 0.49940 0.89087 -0.25600
N 	N 	0.10570 0.50430 0.60763 -0.25800
N 	N 	0.48290 0.50460 0.78656 -0.24700
S 	S 	0.62705 0.17780 0.48546 -0.00300
S 	S 	0.61178 0.32944 0.49659 -0.00300
S 	S 	0.40775 0.32098 0.44378 -0.00100
S 	S 	0.42085 0.16937 0.43230 -0.00500
S 	S 	0.96762 0.51287 0.91170 -0.00800
S 	S 	0.13429 0.51129 0.99204 -0.00100
S 	S 	0.36506 0.49229 0.50760 -0.00700
S 	S 	0.53073 0.48927 0.58830 -0.01000
