data_crystal

_cell_length_a 7.08700
_cell_length_b 17.66900
_cell_length_c 17.79300
_cell_angle_alpha 90.00000
_cell_angle_beta  90.00000
_cell_angle_gamma 90.00000

_symmetry_space_group_name_	'P 1'
_symmetry_space_group_name_H-M	'P 1'

loop_
_symmetry_equiv_pos_as_xyz
  x,y,z

loop_
_atom_site_label
_atom_site_type_symbol
_atom_site_fract_x
_atom_site_fract_y
_atom_site_fract_z
_atom_site_charge
Cd	Cd	0.72246 0.98694 0.52677 1.19800
C 	C 	0.79300 0.81460 0.57851 0.08500
H 	H 	0.80810 0.83910 0.62440 -0.01700
C 	C 	0.76160 0.74248 0.44375 -0.15600
N 	N 	0.76260 0.85627 0.51800 -0.24900
N 	N 	0.79420 0.71711 0.24264 -0.14600
N 	N 	0.80010 0.75143 0.31465 -0.15100
C 	C 	0.75310 0.70789 0.36825 0.30700
C 	C 	0.78720 0.70046 0.50906 0.07400
H 	H 	0.79310 0.64790 0.50670 -0.00100
C 	C 	0.79430 0.76427 0.18847 0.27000
C 	C 	0.80370 0.73680 0.57713 -0.15000
H 	H 	0.82170 0.70940 0.62120 0.08000
C 	C 	0.69060 0.62766 0.36155 -0.83100
H 	H 	0.69220 0.61280 0.30960 0.28600
H 	H 	0.56490 0.62270 0.38100 0.27400
H 	H 	0.77450 0.59570 0.38970 0.28200
C 	C 	0.74870 0.82083 0.45235 0.08800
H 	H 	0.72930 0.85000 0.40950 -0.02100
C 	C 	0.79100 0.65380 0.10251 0.04400
H 	H 	0.79260 0.62350 0.14520 -0.00900
C 	C 	0.79240 0.73181 0.11148 -0.11100
C 	C 	0.79470 0.84860 0.19682 -0.76700
H 	H 	0.68280 0.86910 0.17430 0.25500
H 	H 	0.90390 0.86920 0.17230 0.24700
H 	H 	0.79780 0.86150 0.24920 0.26900
N 	N 	0.78730 0.62009 0.03480 -0.26300
O 	O 	0.66180 0.97623 0.65546 -0.41300
O 	O 	0.40680 0.96668 0.58708 -0.39100
C 	C 	0.79150 0.77571 0.04731 -0.02700
H 	H 	0.79410 0.82820 0.05090 0.01500
C 	C 	0.48520 0.96810 0.64919 0.33200
C 	C 	0.78430 0.66220 0.97380 0.09400
H 	H 	0.78060 0.63910 0.92690 -0.00900
C 	C 	0.78670 0.74150 0.97880 -0.05500
H 	H 	0.78490 0.77070 0.93520 0.05300
C 	C 	0.36400 0.96112 0.71944 -0.20300
H 	H 	0.24600 0.98770 0.71130 0.08900
H 	H 	0.33470 0.90810 0.72780 0.09300
C 	C 	0.45630 0.99210 0.78771 -0.24600
H 	H 	0.50000 0.04280 0.77620 0.10200
H 	H 	0.56700 0.96150 0.79820 0.11700
O 	O 	0.16690 0.99249 0.85780 -0.34600
C 	C 	0.33840 0.99601 0.85926 0.36500
O 	O 	0.43440 0.00613 0.91874 -0.42500
Cd	Cd	0.27754 0.01306 0.02677 1.18700
C 	C 	0.20700 0.18540 0.07851 0.05800
H 	H 	0.19190 0.16090 0.12440 -0.00900
C 	C 	0.23840 0.25752 0.94375 -0.09800
N 	N 	0.23740 0.14373 0.01800 -0.27200
N 	N 	0.20580 0.28289 0.74264 -0.14900
N 	N 	0.19990 0.24857 0.81465 -0.15000
C 	C 	0.24690 0.29211 0.86825 0.29200
C 	C 	0.21280 0.29954 0.00906 -0.01700
H 	H 	0.20690 0.35210 0.00670 0.01300
C 	C 	0.20570 0.23573 0.68847 0.28600
C 	C 	0.19630 0.26320 0.07713 -0.10900
H 	H 	0.17830 0.29060 0.12120 0.06300
C 	C 	0.30940 0.37234 0.86155 -0.82000
H 	H 	0.30780 0.38720 0.80960 0.28400
H 	H 	0.43510 0.37730 0.88100 0.27700
H 	H 	0.22550 0.40430 0.88970 0.28500
C 	C 	0.25130 0.17917 0.95235 0.12000
H 	H 	0.27070 0.15000 0.90950 -0.02700
C 	C 	0.20900 0.34620 0.60251 0.06800
H 	H 	0.20740 0.37650 0.64520 -0.01700
C 	C 	0.20760 0.26819 0.61148 -0.15000
C 	C 	0.20530 0.15140 0.69682 -0.78600
H 	H 	0.31720 0.13090 0.67430 0.26200
H 	H 	0.09610 0.13080 0.67230 0.25200
H 	H 	0.20220 0.13850 0.74920 0.27300
N 	N 	0.21270 0.37991 0.53480 -0.24300
O 	O 	0.33820 0.02377 0.15546 -0.41800
O 	O 	0.59320 0.03332 0.08708 -0.40300
C 	C 	0.20850 0.22429 0.54731 0.07700
H 	H 	0.20590 0.17180 0.55090 -0.01100
C 	C 	0.51480 0.03190 0.14919 0.33700
C 	C 	0.21570 0.33780 0.47380 0.07700
H 	H 	0.21940 0.36090 0.42690 -0.01100
C 	C 	0.21330 0.25850 0.47880 -0.14900
H 	H 	0.21510 0.22930 0.43520 0.07700
C 	C 	0.63600 0.03888 0.21944 -0.20700
H 	H 	0.75400 0.01230 0.21130 0.09000
H 	H 	0.66530 0.09190 0.22780 0.09400
C 	C 	0.54370 0.00790 0.28771 -0.24400
H 	H 	0.50000 0.95720 0.27620 0.10000
H 	H 	0.43300 0.03850 0.29820 0.11400
O 	O 	0.83310 0.00751 0.35780 -0.35100
C 	C 	0.66160 0.00399 0.35926 0.36900
O 	O 	0.56560 0.99387 0.41874 -0.44700
Cd	Cd	0.22246 0.51306 0.52677 1.19800
C 	C 	0.29300 0.68540 0.57851 0.08500
H 	H 	0.30810 0.66090 0.62440 -0.01600
C 	C 	0.26160 0.75752 0.44375 -0.15500
N 	N 	0.26260 0.64373 0.51800 -0.25000
N 	N 	0.29420 0.78289 0.24264 -0.14600
N 	N 	0.30010 0.74857 0.31465 -0.15200
C 	C 	0.25310 0.79211 0.36825 0.30400
C 	C 	0.28720 0.79954 0.50906 0.07200
H 	H 	0.29310 0.85210 0.50670 -0.00200
C 	C 	0.29430 0.73573 0.18847 0.26700
C 	C 	0.30370 0.76320 0.57713 -0.15000
H 	H 	0.32170 0.79060 0.62120 0.07900
C 	C 	0.19060 0.87234 0.36155 -0.82600
H 	H 	0.19220 0.88720 0.30960 0.28400
H 	H 	0.06490 0.87730 0.38100 0.27100
H 	H 	0.27450 0.90430 0.38970 0.27900
C 	C 	0.24870 0.67917 0.45235 0.08600
H 	H 	0.22930 0.65000 0.40950 -0.02100
C 	C 	0.29100 0.84620 0.10251 0.04300
H 	H 	0.29260 0.87650 0.14520 -0.00900
C 	C 	0.29240 0.76819 0.11148 -0.11100
C 	C 	0.29470 0.65140 0.19682 -0.76200
H 	H 	0.18280 0.63090 0.17430 0.25200
H 	H 	0.40390 0.63080 0.17230 0.24400
H 	H 	0.29780 0.63850 0.24920 0.26700
N 	N 	0.28730 0.87991 0.03480 -0.26200
O 	O 	0.16180 0.52377 0.65546 -0.41800
O 	O 	0.90680 0.53332 0.58708 -0.39300
C 	C 	0.29150 0.72429 0.04731 -0.02800
H 	H 	0.29410 0.67180 0.05090 0.01400
C 	C 	0.98520 0.53190 0.64919 0.34400
C 	C 	0.28430 0.83780 0.97380 0.09100
H 	H 	0.28060 0.86090 0.92690 -0.00900
C 	C 	0.28670 0.75850 0.97880 -0.05400
H 	H 	0.28490 0.72930 0.93520 0.05200
C 	C 	0.86400 0.53888 0.71944 -0.22300
H 	H 	0.74600 0.51230 0.71130 0.09500
H 	H 	0.83470 0.59190 0.72780 0.10000
C 	C 	0.95630 0.50790 0.78771 -0.21300
H 	H 	0.00000 0.45720 0.77620 0.08800
H 	H 	0.06700 0.53850 0.79820 0.10400
O 	O 	0.66690 0.50751 0.85780 -0.34200
C 	C 	0.83840 0.50399 0.85926 0.35700
O 	O 	0.93440 0.49387 0.91874 -0.42200
Cd	Cd	0.77754 0.48694 0.02677 1.18800
C 	C 	0.70700 0.31460 0.07851 0.05900
H 	H 	0.69190 0.33910 0.12440 -0.00800
C 	C 	0.73840 0.24248 0.94375 -0.09800
N 	N 	0.73740 0.35627 0.01800 -0.27200
N 	N 	0.70580 0.21711 0.74264 -0.14900
N 	N 	0.69990 0.25143 0.81465 -0.15000
C 	C 	0.74690 0.20789 0.86825 0.29500
C 	C 	0.71280 0.20046 0.00906 -0.01600
H 	H 	0.70690 0.14790 0.00670 0.01300
C 	C 	0.70570 0.26427 0.68847 0.29000
C 	C 	0.69630 0.23680 0.07713 -0.10800
H 	H 	0.67830 0.20940 0.12120 0.06400
C 	C 	0.80940 0.12766 0.86155 -0.82800
H 	H 	0.80780 0.11280 0.80960 0.28700
H 	H 	0.93510 0.12270 0.88100 0.28100
H 	H 	0.72550 0.09570 0.88970 0.28900
C 	C 	0.75130 0.32083 0.95235 0.12100
H 	H 	0.77070 0.35000 0.90950 -0.02700
C 	C 	0.70900 0.15380 0.60251 0.07000
H 	H 	0.70740 0.12350 0.64520 -0.01600
C 	C 	0.70760 0.23181 0.61148 -0.15100
C 	C 	0.70530 0.34860 0.69682 -0.79200
H 	H 	0.81720 0.36910 0.67430 0.26500
H 	H 	0.59610 0.36920 0.67230 0.25500
H 	H 	0.70220 0.36150 0.74920 0.27600
N 	N 	0.71270 0.12009 0.53480 -0.24300
O 	O 	0.83820 0.47623 0.15546 -0.41200
O 	O 	0.09320 0.46668 0.08708 -0.40300
C 	C 	0.70850 0.27571 0.54731 0.07800
H 	H 	0.70590 0.32820 0.55090 -0.01000
C 	C 	0.01480 0.46810 0.14919 0.32900
C 	C 	0.71570 0.16220 0.47380 0.07900
H 	H 	0.71940 0.13910 0.42690 -0.01100
C 	C 	0.71330 0.24150 0.47880 -0.14900
H 	H 	0.71510 0.27070 0.43520 0.07900
C 	C 	0.13600 0.46112 0.21944 -0.19700
H 	H 	0.25400 0.48770 0.21130 0.08600
H 	H 	0.16530 0.40810 0.22780 0.09000
C 	C 	0.04370 0.49210 0.28771 -0.25800
H 	H 	0.00000 0.54280 0.27620 0.10200
H 	H 	0.93300 0.46150 0.29820 0.12100
O 	O 	0.33310 0.49249 0.35780 -0.35400
C 	C 	0.16160 0.49601 0.35926 0.37400
O 	O 	0.06560 0.50613 0.41874 -0.45000
