data_crystal

_cell_length_a 14.27860
_cell_length_b 13.02680
_cell_length_c 17.82550
_cell_angle_alpha 90.00000
_cell_angle_beta  95.84700
_cell_angle_gamma 90.00000

_symmetry_space_group_name_	'P 1'
_symmetry_space_group_name_H-M	'P 1'

loop_
_symmetry_equiv_pos_as_xyz
  x,y,z

loop_
_atom_site_label
_atom_site_type_symbol
_atom_site_fract_x
_atom_site_fract_y
_atom_site_fract_z
_atom_site_charge
Zn	Zn	0.00776 0.55605 0.72653 1.23400
Zn	Zn	0.07331 0.71941 0.86464 1.15500
C 	C 	0.16960 0.78660 0.64010 -0.12600
C 	C 	0.22410 0.86860 0.66960 0.06100
H 	H 	0.22530 0.88550 0.72030 0.02000
C 	C 	0.27570 0.92410 0.62360 -0.12300
C 	C 	0.27490 0.89950 0.54720 -0.00100
H 	H 	0.30790 0.93980 0.51580 0.03300
C 	C 	0.22450 0.81440 0.51820 -0.02300
C 	C 	0.17260 0.76010 0.56490 0.00200
H 	H 	0.13830 0.70360 0.54570 0.04400
C 	C 	0.11260 0.72420 0.69060 0.41600
C 	C 	0.34010 0.00850 0.65630 0.40400
C 	C 	0.23020 0.78210 0.43760 0.00600
C 	C 	0.30080 0.81860 0.39690 -0.03500
H 	H 	0.34720 0.86100 0.42040 0.03000
C 	C 	0.30330 0.79290 0.32200 -0.10700
C 	C 	0.23670 0.72850 0.28720 0.01300
H 	H 	0.23690 0.71380 0.23610 0.04500
C 	C 	0.16910 0.68520 0.32770 -0.07100
C 	C 	0.16490 0.71410 0.40180 -0.03900
H 	H 	0.11750 0.68770 0.42830 0.06000
C 	C 	0.37650 0.83760 0.27690 0.33000
C 	C 	0.10140 0.60720 0.28970 0.32100
O 	O 	0.06760 0.64960 0.65944 -0.47100
O 	O 	0.11530 0.74960 0.75719 -0.52400
O 	O 	0.37500 0.99350 0.72266 -0.47300
O 	O 	0.35420 0.08450 0.61558 -0.50300
O 	O 	0.45470 0.86900 0.31319 -0.57700
O 	O 	0.36120 0.84670 0.20917 -0.35800
O 	O 	0.09630 0.59430 0.22258 -0.32300
O 	O 	0.05240 0.55630 0.33385 -0.42200
Zn	Zn	0.49224 0.05605 0.77347 1.23500
Zn	Zn	0.42669 0.21941 0.63536 1.15500
C 	C 	0.33040 0.28660 0.85990 -0.12900
C 	C 	0.27590 0.36860 0.83040 0.06400
H 	H 	0.27470 0.38550 0.77970 0.01900
C 	C 	0.22430 0.42410 0.87640 -0.12600
C 	C 	0.22510 0.39950 0.95280 0.00300
H 	H 	0.19210 0.43980 0.98420 0.03000
C 	C 	0.27550 0.31440 0.98180 -0.03100
C 	C 	0.32740 0.26010 0.93510 0.00700
H 	H 	0.36170 0.20360 0.95430 0.04200
C 	C 	0.38740 0.22420 0.80940 0.41700
C 	C 	0.15990 0.50850 0.84370 0.40700
C 	C 	0.26980 0.28210 0.06240 0.01300
C 	C 	0.19920 0.31860 0.10310 -0.04000
H 	H 	0.15280 0.36100 0.07960 0.03300
C 	C 	0.19670 0.29290 0.17800 -0.10300
C 	C 	0.26330 0.22850 0.21280 0.01100
H 	H 	0.26310 0.21380 0.26390 0.04600
C 	C 	0.33090 0.18520 0.17230 -0.06800
C 	C 	0.33510 0.21410 0.09820 -0.04300
H 	H 	0.38250 0.18770 0.07170 0.06200
C 	C 	0.12350 0.33760 0.22310 0.32900
C 	C 	0.39860 0.10720 0.21030 0.32000
O 	O 	0.43240 0.14960 0.84056 -0.47100
O 	O 	0.38470 0.24960 0.74281 -0.52400
O 	O 	0.12500 0.49350 0.77734 -0.47400
O 	O 	0.14580 0.58450 0.88442 -0.50400
O 	O 	0.04530 0.36900 0.18681 -0.57400
O 	O 	0.13880 0.34670 0.29083 -0.35700
O 	O 	0.40370 0.09430 0.27742 -0.32400
O 	O 	0.44760 0.05630 0.16615 -0.42300
Zn	Zn	0.99224 0.44395 0.27347 1.23400
Zn	Zn	0.92669 0.28059 0.13536 1.15500
C 	C 	0.83040 0.21340 0.35990 -0.12600
C 	C 	0.77590 0.13140 0.33040 0.06100
H 	H 	0.77470 0.11450 0.27970 0.02000
C 	C 	0.72430 0.07590 0.37640 -0.12300
C 	C 	0.72510 0.10050 0.45280 -0.00100
H 	H 	0.69210 0.06020 0.48420 0.03300
C 	C 	0.77550 0.18560 0.48180 -0.02300
C 	C 	0.82740 0.23990 0.43510 0.00200
H 	H 	0.86170 0.29640 0.45430 0.04400
C 	C 	0.88740 0.27580 0.30940 0.41600
C 	C 	0.65990 0.99150 0.34370 0.40400
C 	C 	0.76980 0.21790 0.56240 0.00600
C 	C 	0.69920 0.18140 0.60310 -0.03500
H 	H 	0.65280 0.13900 0.57960 0.03000
C 	C 	0.69670 0.20710 0.67800 -0.10700
C 	C 	0.76330 0.27150 0.71280 0.01300
H 	H 	0.76310 0.28620 0.76390 0.04500
C 	C 	0.83090 0.31480 0.67230 -0.07100
C 	C 	0.83510 0.28590 0.59820 -0.03900
H 	H 	0.88250 0.31230 0.57170 0.06000
C 	C 	0.62350 0.16240 0.72310 0.33000
C 	C 	0.89860 0.39280 0.71030 0.32100
O 	O 	0.93240 0.35040 0.34056 -0.47100
O 	O 	0.88470 0.25040 0.24281 -0.52400
O 	O 	0.62500 0.00650 0.27734 -0.47300
O 	O 	0.64580 0.91550 0.38442 -0.50300
O 	O 	0.54530 0.13100 0.68681 -0.57700
O 	O 	0.63880 0.15330 0.79083 -0.35800
O 	O 	0.90370 0.40570 0.77742 -0.32300
O 	O 	0.94760 0.44370 0.66615 -0.42200
Zn	Zn	0.50776 0.94395 0.22653 1.23500
Zn	Zn	0.57331 0.78059 0.36464 1.15500
C 	C 	0.66960 0.71340 0.14010 -0.12900
C 	C 	0.72410 0.63140 0.16960 0.06400
H 	H 	0.72530 0.61450 0.22030 0.01900
C 	C 	0.77570 0.57590 0.12360 -0.12600
C 	C 	0.77490 0.60050 0.04720 0.00300
H 	H 	0.80790 0.56020 0.01580 0.03000
C 	C 	0.72450 0.68560 0.01820 -0.03100
C 	C 	0.67260 0.73990 0.06490 0.00700
H 	H 	0.63830 0.79640 0.04570 0.04200
C 	C 	0.61260 0.77580 0.19060 0.41700
C 	C 	0.84010 0.49150 0.15630 0.40700
C 	C 	0.73020 0.71790 0.93760 0.01300
C 	C 	0.80080 0.68140 0.89690 -0.04000
H 	H 	0.84720 0.63900 0.92040 0.03300
C 	C 	0.80330 0.70710 0.82200 -0.10300
C 	C 	0.73670 0.77150 0.78720 0.01100
H 	H 	0.73690 0.78620 0.73610 0.04600
C 	C 	0.66910 0.81480 0.82770 -0.06800
C 	C 	0.66490 0.78590 0.90180 -0.04300
H 	H 	0.61750 0.81230 0.92830 0.06200
C 	C 	0.87650 0.66240 0.77690 0.32900
C 	C 	0.60140 0.89280 0.78970 0.32000
O 	O 	0.56760 0.85040 0.15944 -0.47100
O 	O 	0.61530 0.75040 0.25719 -0.52400
O 	O 	0.87500 0.50650 0.22266 -0.47400
O 	O 	0.85420 0.41550 0.11558 -0.50400
O 	O 	0.95470 0.63100 0.81319 -0.57400
O 	O 	0.86120 0.65330 0.70917 -0.35700
O 	O 	0.59630 0.90570 0.72258 -0.32400
O 	O 	0.55240 0.94370 0.83385 -0.42300
