data_crystal

_cell_length_a 11.74630
_cell_length_b 10.95700
_cell_length_c 15.82170
_cell_angle_alpha 90.00000
_cell_angle_beta  91.76000
_cell_angle_gamma 90.00000

_symmetry_space_group_name_	'P 1'
_symmetry_space_group_name_H-M	'P 1'

loop_
_symmetry_equiv_pos_as_xyz
  x,y,z

loop_
_atom_site_label
_atom_site_type_symbol
_atom_site_fract_x
_atom_site_fract_y
_atom_site_fract_z
_atom_site_charge
Mn	Mn	0.25927 0.04236 0.13514 1.25200
Mn	Mn	0.23982 0.82833 0.28587 1.31700
O 	O 	0.96620 0.96700 0.13223 -0.35000
O 	O 	0.12985 0.93916 0.20287 -0.53000
C 	C 	0.02220 0.93850 0.19500 0.32200
H 	H 	0.98120 0.91330 0.24280 -0.02300
O 	O 	0.02130 0.18890 0.02853 -0.60100
O 	O 	0.15740 0.21211 0.12804 -0.64300
C 	C 	0.07530 0.24840 0.08090 0.54700
H 	H 	0.05340 0.33130 0.08700 -0.17800
O 	O 	0.29994 0.14129 0.25711 -0.63500
O 	O 	0.30880 0.98500 0.34640 -0.42400
C 	C 	0.31790 0.09420 0.33030 0.52800
C 	C 	0.35480 0.17220 0.40130 -0.91300
H 	H 	0.33370 0.13390 0.45460 0.28000
H 	H 	0.31780 0.25200 0.39590 0.27300
H 	H 	0.43770 0.18260 0.40090 0.28700
O 	O 	0.18748 0.97180 0.01742 -0.64900
O 	O 	0.34520 0.91680 0.95398 -0.44100
C 	C 	0.24190 0.91920 0.96030 0.67000
H 	H 	0.19810 0.87730 0.91800 -0.14900
O 	O 	0.40348 0.12947 0.07790 -0.66000
O 	O 	0.39630 0.31900 0.12803 -0.50600
C 	C 	0.43720 0.23830 0.08430 0.53600
H 	H 	0.50080 0.26030 0.05200 -0.17100
O 	O 	0.34983 0.87520 0.17851 -0.62900
O 	O 	0.50430 0.87230 0.10151 -0.52100
C 	C 	0.44250 0.82800 0.15490 0.67700
C 	C 	0.48000 0.70790 0.19090 -0.99100
H 	H 	0.54230 0.72090 0.23260 0.32100
H 	H 	0.50650 0.65540 0.14530 0.30700
H 	H 	0.41590 0.66860 0.21830 0.29100
Mn	Mn	0.24073 0.54236 0.36486 1.30000
Mn	Mn	0.26018 0.32833 0.21413 1.31600
O 	O 	0.53380 0.46700 0.36777 -0.48600
O 	O 	0.37015 0.43916 0.29713 -0.61000
C 	C 	0.47780 0.43850 0.30500 0.51000
H 	H 	0.51880 0.41330 0.25720 -0.13500
O 	O 	0.47870 0.68890 0.47147 -0.50100
O 	O 	0.34260 0.71211 0.37196 -0.60200
C 	C 	0.42470 0.74840 0.41910 0.52900
H 	H 	0.44660 0.83130 0.41300 -0.12500
O 	O 	0.20006 0.64129 0.24289 -0.65400
O 	O 	0.19120 0.48500 0.15360 -0.56300
C 	C 	0.18210 0.59420 0.16970 0.69000
C 	C 	0.14520 0.67220 0.09870 -1.00900
H 	H 	0.16630 0.63390 0.04540 0.29500
H 	H 	0.18220 0.75200 0.10410 0.28700
H 	H 	0.06230 0.68260 0.09910 0.29400
O 	O 	0.31252 0.47180 0.48258 -0.60500
O 	O 	0.15480 0.41680 0.54602 -0.49900
C 	C 	0.25810 0.41920 0.53970 0.52500
H 	H 	0.30190 0.37730 0.58200 -0.13800
O 	O 	0.09652 0.62947 0.42210 -0.58300
O 	O 	0.10370 0.81900 0.37197 -0.45700
C 	C 	0.06280 0.73830 0.41570 0.42700
H 	H 	0.99920 0.76030 0.44800 -0.06200
O 	O 	0.15017 0.37520 0.32149 -0.66600
O 	O 	0.99570 0.37230 0.39849 -0.51100
C 	C 	0.05750 0.32800 0.34510 0.70200
C 	C 	0.02000 0.20790 0.30910 -1.25100
H 	H 	0.95770 0.22090 0.26740 0.40200
H 	H 	0.99350 0.15540 0.35470 0.40300
H 	H 	0.08410 0.16860 0.28170 0.34200
Mn	Mn	0.74073 0.95764 0.86486 1.34500
Mn	Mn	0.76018 0.17167 0.71413 1.32100
O 	O 	0.03380 0.03300 0.86777 -0.56200
O 	O 	0.87015 0.06084 0.79713 -0.67200
C 	C 	0.97780 0.06150 0.80500 0.66400
H 	H 	0.01880 0.08670 0.75720 -0.22000
O 	O 	0.97870 0.81110 0.97147 -0.38900
O 	O 	0.84260 0.78789 0.87196 -0.56500
C 	C 	0.92470 0.75160 0.91910 0.50500
H 	H 	0.94660 0.66870 0.91300 -0.10000
O 	O 	0.70006 0.85871 0.74289 -0.68500
O 	O 	0.69120 0.01500 0.65360 -0.68400
C 	C 	0.68210 0.90580 0.66970 0.91700
C 	C 	0.64520 0.82780 0.59870 -1.28000
H 	H 	0.66630 0.86610 0.54540 0.43700
H 	H 	0.68220 0.74800 0.60410 0.38300
H 	H 	0.56230 0.81740 0.59910 0.41900
O 	O 	0.81252 0.02820 0.98258 -0.48900
O 	O 	0.65480 0.08320 0.04602 -0.49900
C 	C 	0.75810 0.08080 0.03970 0.30400
H 	H 	0.80190 0.12270 0.08200 -0.09700
O 	O 	0.59652 0.87053 0.92210 -0.52000
O 	O 	0.60370 0.68100 0.87197 -0.45800
C 	C 	0.56280 0.76170 0.91570 0.49800
H 	H 	0.49920 0.73970 0.94800 -0.09100
O 	O 	0.65017 0.12480 0.82149 -0.67300
O 	O 	0.49570 0.12770 0.89849 -0.51900
C 	C 	0.55750 0.17200 0.84510 0.69500
C 	C 	0.52000 0.29210 0.80910 -1.02400
H 	H 	0.45770 0.27910 0.76740 0.32300
H 	H 	0.49350 0.34460 0.85470 0.35000
H 	H 	0.58410 0.33140 0.78170 0.30600
Mn	Mn	0.75927 0.45764 0.63514 1.30300
Mn	Mn	0.73982 0.67167 0.78587 1.32100
O 	O 	0.46620 0.53300 0.63223 -0.48100
O 	O 	0.62985 0.56084 0.70287 -0.61000
C 	C 	0.52220 0.56150 0.69500 0.50400
H 	H 	0.48120 0.58670 0.74280 -0.12100
O 	O 	0.52130 0.31110 0.52853 -0.51000
O 	O 	0.65740 0.28789 0.62804 -0.60700
C 	C 	0.57530 0.25160 0.58090 0.53400
H 	H 	0.55340 0.16870 0.58700 -0.15400
O 	O 	0.79994 0.35871 0.75711 -0.66700
O 	O 	0.80880 0.51500 0.84640 -0.55700
C 	C 	0.81790 0.40580 0.83030 0.77500
C 	C 	0.85480 0.32780 0.90130 -1.21000
H 	H 	0.83370 0.36610 0.95460 0.43200
H 	H 	0.81780 0.24800 0.89590 0.38100
H 	H 	0.93770 0.31740 0.90090 0.42300
O 	O 	0.68748 0.52820 0.51742 -0.60300
O 	O 	0.84520 0.58320 0.45398 -0.47200
C 	C 	0.74190 0.58080 0.46030 0.51300
H 	H 	0.69810 0.62270 0.41800 -0.12800
O 	O 	0.90348 0.37053 0.57790 -0.60900
O 	O 	0.89630 0.18100 0.62803 -0.50800
C 	C 	0.93720 0.26170 0.58430 0.61100
H 	H 	0.00080 0.23970 0.55200 -0.20300
O 	O 	0.84983 0.62480 0.67851 -0.64700
O 	O 	0.00430 0.62770 0.60151 -0.56600
C 	C 	0.94250 0.67200 0.65490 0.68200
C 	C 	0.98000 0.79210 0.69090 -0.78500
H 	H 	0.04230 0.77910 0.73260 0.24700
H 	H 	0.00650 0.84460 0.64530 0.25800
H 	H 	0.91590 0.83140 0.71830 0.25800
Mn	Mn	-0.00000 0.00000 -0.00000 1.21600
Mn	Mn	0.50000 0.50000 0.50000 1.32400
Mn	Mn	0.50000 0.00000 -0.00000 1.24200
Mn	Mn	0.00000 0.50000 0.50000 1.31500
