data_crystal

_cell_length_a 8.09870
_cell_length_b 9.77280
_cell_length_c 11.18060
_cell_angle_alpha 97.12690
_cell_angle_beta  90.00000
_cell_angle_gamma 114.47800

_symmetry_space_group_name_	'P 1'
_symmetry_space_group_name_H-M	'P 1'

loop_
_symmetry_equiv_pos_as_xyz
  x,y,z

loop_
_atom_site_label
_atom_site_type_symbol
_atom_site_fract_x
_atom_site_fract_y
_atom_site_fract_z
_atom_site_charge
Sr	Sr	0.89256 0.51716 0.68609 1.52500
Sr	Sr	0.37540 0.48284 0.81391 1.52600
Sr	Sr	0.10744 0.48284 0.31391 1.52500
Sr	Sr	0.62460 0.51716 0.18609 1.52600
H 	H 	0.99520 0.25360 0.66090 0.31900
H 	H 	0.09620 0.35000 0.58850 0.29100
H 	H 	0.36050 0.05220 0.84450 0.04500
H 	H 	0.74160 0.74640 0.83910 0.32100
H 	H 	0.74620 0.65000 0.91150 0.29100
H 	H 	0.30830 0.94780 0.65550 0.04500
H 	H 	0.00480 0.74640 0.33910 0.31900
H 	H 	0.90380 0.65000 0.41150 0.29100
H 	H 	0.63950 0.94780 0.15550 0.04500
H 	H 	0.25840 0.25360 0.16090 0.32100
H 	H 	0.25380 0.35000 0.08850 0.29100
H 	H 	0.69170 0.05220 0.34450 0.04500
C 	C 	0.19530 0.76080 0.85560 0.32000
C 	C 	0.34930 0.88400 0.93460 -0.07000
C 	C 	0.43181 0.85182 0.03060 -0.09600
C 	C 	0.41768 0.03096 0.90720 -0.00700
C 	C 	0.36158 0.69756 0.07520 0.36400
C 	C 	0.43450 0.23920 0.64440 0.32000
C 	C 	0.46530 0.11600 0.56540 -0.07200
C 	C 	0.57999 0.14818 0.46940 -0.09400
C 	C 	0.38672 0.96904 0.59280 -0.00600
C 	C 	0.66402 0.30244 0.42480 0.36400
C 	C 	0.80470 0.23920 0.14440 0.32000
C 	C 	0.65070 0.11600 0.06540 -0.07000
C 	C 	0.56819 0.14818 0.96940 -0.09600
C 	C 	0.58232 0.96904 0.09280 -0.00700
C 	C 	0.63842 0.30244 0.92480 0.36400
C 	C 	0.56550 0.76080 0.35560 0.32000
C 	C 	0.53470 0.88400 0.43460 -0.07200
C 	C 	0.42001 0.85182 0.53060 -0.09400
C 	C 	0.61328 0.03096 0.40720 -0.00600
C 	C 	0.33598 0.69756 0.57520 0.36400
O 	O 	0.16992 0.62464 0.85720 -0.49300
O 	O 	0.10148 0.79876 0.78870 -0.38900
O 	O 	0.44419 0.61558 0.04490 -0.52600
O 	O 	0.23326 0.66652 0.14440 -0.41500
O 	O 	0.06747 0.34634 0.66140 -0.86700
O 	O 	0.54528 0.37536 0.64280 -0.49500
O 	O 	0.30272 0.20124 0.71130 -0.39000
O 	O 	0.82861 0.38442 0.45510 -0.52600
O 	O 	0.56674 0.33348 0.35560 -0.41400
O 	O 	0.72113 0.65366 0.83860 -0.87100
O 	O 	0.83008 0.37536 0.14280 -0.49300
O 	O 	0.89852 0.20124 0.21130 -0.38900
O 	O 	0.55581 0.38442 0.95510 -0.52600
O 	O 	0.76674 0.33348 0.85560 -0.41500
O 	O 	0.93253 0.65366 0.33860 -0.86700
O 	O 	0.45472 0.62464 0.35720 -0.49500
O 	O 	0.69728 0.79876 0.28870 -0.39000
O 	O 	0.17139 0.61558 0.54490 -0.52600
O 	O 	0.43326 0.66652 0.64440 -0.41400
O 	O 	0.27887 0.34634 0.16140 -0.87100
