data_crystal

_cell_length_a 18.79670
_cell_length_b 18.79670
_cell_length_c 49.39400
_cell_angle_alpha 90.00000
_cell_angle_beta  90.00000
_cell_angle_gamma 120.00000

_symmetry_space_group_name_	'P 1'
_symmetry_space_group_name_H-M	'P 1'

loop_
_symmetry_equiv_pos_as_xyz
  x,y,z

loop_
_atom_site_label
_atom_site_type_symbol
_atom_site_fract_x
_atom_site_fract_y
_atom_site_fract_z
_atom_site_charge
O 	O 	0.29860 0.22200 0.20051 -0.41600
O 	O 	0.22350 0.18450 0.16273 -0.41000
C 	C 	0.23980 0.21330 0.18658 0.39000
C 	C 	0.18040 0.23140 0.19993 -0.14800
C 	C 	0.19250 0.25550 0.22694 0.08500
H 	H 	0.23870 0.26260 0.23620 0.01300
C 	C 	0.09640 0.29980 0.28332 -0.37800
H 	H 	0.04590 0.29030 0.27680 0.16600
C 	C 	0.12500 0.32190 0.30987 0.14000
O 	O 	0.96527 0.55533 0.53384 -0.41800
O 	O 	0.89017 0.51783 0.49606 -0.41200
C 	C 	0.90647 0.54663 0.51991 0.39000
C 	C 	0.84707 0.56473 0.53326 -0.15100
C 	C 	0.85917 0.58883 0.56027 0.08500
H 	H 	0.90537 0.59593 0.56953 0.01100
C 	C 	0.76307 0.63313 0.61665 -0.37800
H 	H 	0.71257 0.62363 0.61013 0.16600
C 	C 	0.79167 0.65523 0.64320 0.13900
O 	O 	0.63193 0.88867 0.86718 -0.41700
O 	O 	0.55683 0.85117 0.82940 -0.41200
C 	C 	0.57313 0.87997 0.85325 0.39000
C 	C 	0.51373 0.89807 0.86660 -0.15100
C 	C 	0.52583 0.92217 0.89361 0.08400
H 	H 	0.57203 0.92927 0.90287 0.01100
C 	C 	0.42973 0.96647 0.94999 -0.37300
H 	H 	0.37923 0.95697 0.94347 0.16300
C 	C 	0.45833 0.98857 0.97654 0.13500
O 	O 	0.77800 0.07660 0.20051 -0.41700
O 	O 	0.81550 0.03900 0.16273 -0.41200
C 	C 	0.78670 0.02650 0.18658 0.39200
C 	C 	0.76860 0.94900 0.19993 -0.15500
C 	C 	0.74450 0.93700 0.22694 0.08700
H 	H 	0.73740 0.97610 0.23620 0.01000
C 	C 	0.70020 0.79660 0.28332 -0.37900
H 	H 	0.70970 0.75560 0.27680 0.16600
C 	C 	0.67810 0.80310 0.30987 0.13900
O 	O 	0.44467 0.40993 0.53384 -0.41700
O 	O 	0.48217 0.37233 0.49606 -0.41200
C 	C 	0.45337 0.35983 0.51991 0.39000
C 	C 	0.43527 0.28233 0.53326 -0.15100
C 	C 	0.41117 0.27033 0.56027 0.08500
H 	H 	0.40407 0.30943 0.56953 0.01100
C 	C 	0.36687 0.12993 0.61665 -0.37900
H 	H 	0.37637 0.08893 0.61013 0.16600
C 	C 	0.34477 0.13643 0.64320 0.14000
O 	O 	0.11133 0.74327 0.86718 -0.41700
O 	O 	0.14883 0.70567 0.82940 -0.41200
C 	C 	0.12003 0.69317 0.85325 0.39000
C 	C 	0.10193 0.61567 0.86660 -0.15000
C 	C 	0.07783 0.60367 0.89361 0.08500
H 	H 	0.07073 0.64277 0.90287 0.01200
C 	C 	0.03353 0.46327 0.94999 -0.37600
H 	H 	0.04303 0.42227 0.94347 0.16500
C 	C 	0.01143 0.46977 0.97654 0.13800
O 	O 	0.92340 0.70140 0.20051 -0.41700
O 	O 	0.96100 0.77650 0.16273 -0.41200
C 	C 	0.97350 0.76020 0.18658 0.38600
C 	C 	0.05100 0.81960 0.19993 -0.14700
C 	C 	0.06300 0.80750 0.22694 0.08400
H 	H 	0.02390 0.76130 0.23620 0.01200
C 	C 	0.20340 0.90360 0.28332 -0.37800
H 	H 	0.24440 0.95410 0.27680 0.16500
C 	C 	0.19690 0.87500 0.30987 0.13900
O 	O 	0.59007 0.03473 0.53384 -0.41600
O 	O 	0.62767 0.10983 0.49606 -0.41100
C 	C 	0.64017 0.09353 0.51991 0.39000
C 	C 	0.71767 0.15293 0.53326 -0.15100
C 	C 	0.72967 0.14083 0.56027 0.08500
H 	H 	0.69057 0.09463 0.56953 0.01100
C 	C 	0.87007 0.23693 0.61665 -0.37800
H 	H 	0.91107 0.28743 0.61013 0.16500
C 	C 	0.86357 0.20833 0.64320 0.13900
O 	O 	0.25673 0.36807 0.86718 -0.41700
O 	O 	0.29433 0.44317 0.82940 -0.41200
C 	C 	0.30683 0.42687 0.85325 0.39000
C 	C 	0.38433 0.48627 0.86660 -0.15100
C 	C 	0.39633 0.47417 0.89361 0.08500
H 	H 	0.35723 0.42797 0.90287 0.01100
C 	C 	0.53673 0.57027 0.94999 -0.37800
H 	H 	0.57773 0.62077 0.94347 0.16500
C 	C 	0.53023 0.54167 0.97654 0.13800
O 	O 	0.22200 0.29860 0.79949 -0.41700
O 	O 	0.18450 0.22350 0.83727 -0.41100
C 	C 	0.21330 0.23980 0.81342 0.38900
C 	C 	0.23140 0.18040 0.80007 -0.14900
C 	C 	0.25550 0.19250 0.77306 0.08400
H 	H 	0.26260 0.23870 0.76380 0.01200
C 	C 	0.29980 0.09640 0.71668 -0.37800
H 	H 	0.29030 0.04590 0.72320 0.16600
C 	C 	0.32190 0.12500 0.69013 0.14000
O 	O 	0.88867 0.63193 0.13282 -0.41700
O 	O 	0.85117 0.55683 0.17060 -0.41200
C 	C 	0.87997 0.57313 0.14675 0.39000
C 	C 	0.89807 0.51373 0.13340 -0.15100
C 	C 	0.92217 0.52583 0.10639 0.08400
H 	H 	0.92927 0.57203 0.09713 0.01100
C 	C 	0.96647 0.42973 0.05001 -0.37400
H 	H 	0.95697 0.37923 0.05653 0.16400
C 	C 	0.98857 0.45833 0.02346 0.13500
O 	O 	0.55533 0.96527 0.46616 -0.41800
O 	O 	0.51783 0.89017 0.50394 -0.41200
C 	C 	0.54663 0.90647 0.48009 0.39000
C 	C 	0.56473 0.84707 0.46674 -0.15100
C 	C 	0.58883 0.85917 0.43973 0.08500
H 	H 	0.59593 0.90537 0.43047 0.01100
C 	C 	0.63313 0.76307 0.38335 -0.37800
H 	H 	0.62363 0.71257 0.38987 0.16600
C 	C 	0.65523 0.79167 0.35680 0.13900
O 	O 	0.07660 0.77800 0.79949 -0.41700
O 	O 	0.03900 0.81550 0.83727 -0.41200
C 	C 	0.02650 0.78670 0.81342 0.39200
C 	C 	0.94900 0.76860 0.80007 -0.15500
C 	C 	0.93700 0.74450 0.77306 0.08700
H 	H 	0.97610 0.73740 0.76380 0.01000
C 	C 	0.79660 0.70020 0.71668 -0.37900
H 	H 	0.75560 0.70970 0.72320 0.16600
C 	C 	0.80310 0.67810 0.69013 0.13900
O 	O 	0.74327 0.11133 0.13282 -0.41700
O 	O 	0.70567 0.14883 0.17060 -0.41200
C 	C 	0.69317 0.12003 0.14675 0.39000
C 	C 	0.61567 0.10193 0.13340 -0.15000
C 	C 	0.60367 0.07783 0.10639 0.08500
H 	H 	0.64277 0.07073 0.09713 0.01200
C 	C 	0.46327 0.03353 0.05001 -0.37600
H 	H 	0.42227 0.04303 0.05653 0.16500
C 	C 	0.46977 0.01143 0.02346 0.13800
O 	O 	0.40993 0.44467 0.46616 -0.41700
O 	O 	0.37233 0.48217 0.50394 -0.41200
C 	C 	0.35983 0.45337 0.48009 0.39000
C 	C 	0.28233 0.43527 0.46674 -0.15100
C 	C 	0.27033 0.41117 0.43973 0.08500
H 	H 	0.30943 0.40407 0.43047 0.01100
C 	C 	0.12993 0.36687 0.38335 -0.37900
H 	H 	0.08893 0.37637 0.38987 0.16600
C 	C 	0.13643 0.34477 0.35680 0.14000
O 	O 	0.70140 0.92340 0.79949 -0.41700
O 	O 	0.77650 0.96100 0.83727 -0.41200
C 	C 	0.76020 0.97350 0.81342 0.38600
C 	C 	0.81960 0.05100 0.80007 -0.14700
C 	C 	0.80750 0.06300 0.77306 0.08400
H 	H 	0.76130 0.02390 0.76380 0.01200
C 	C 	0.90360 0.20340 0.71668 -0.37800
H 	H 	0.95410 0.24440 0.72320 0.16500
C 	C 	0.87500 0.19690 0.69013 0.13900
O 	O 	0.36807 0.25673 0.13282 -0.41700
O 	O 	0.44317 0.29433 0.17060 -0.41200
C 	C 	0.42687 0.30683 0.14675 0.39000
C 	C 	0.48627 0.38433 0.13340 -0.15100
C 	C 	0.47417 0.39633 0.10639 0.08500
H 	H 	0.42797 0.35723 0.09713 0.01100
C 	C 	0.57027 0.53673 0.05001 -0.37800
H 	H 	0.62077 0.57773 0.05653 0.16500
C 	C 	0.54167 0.53023 0.02346 0.13900
O 	O 	0.03473 0.59007 0.46616 -0.41600
O 	O 	0.10983 0.62767 0.50394 -0.41100
C 	C 	0.09353 0.64017 0.48009 0.39000
C 	C 	0.15293 0.71767 0.46674 -0.15100
C 	C 	0.14083 0.72967 0.43973 0.08500
H 	H 	0.09463 0.69057 0.43047 0.01100
C 	C 	0.23693 0.87007 0.38335 -0.37800
H 	H 	0.28743 0.91107 0.38987 0.16500
C 	C 	0.20833 0.86357 0.35680 0.13900
O 	O 	0.70140 0.77800 0.79949 -0.41800
O 	O 	0.77650 0.81550 0.83727 -0.41300
C 	C 	0.76020 0.78670 0.81342 0.39000
C 	C 	0.81960 0.76860 0.80007 -0.15300
C 	C 	0.80750 0.74450 0.77306 0.08700
H 	H 	0.76130 0.73740 0.76380 0.01000
C 	C 	0.90360 0.70020 0.71668 -0.37900
H 	H 	0.95410 0.70970 0.72320 0.16500
C 	C 	0.87500 0.67810 0.69013 0.13900
O 	O 	0.36807 0.11133 0.13282 -0.41700
O 	O 	0.44317 0.14883 0.17060 -0.41200
C 	C 	0.42687 0.12003 0.14675 0.39000
C 	C 	0.48627 0.10193 0.13340 -0.15000
C 	C 	0.47417 0.07783 0.10639 0.08500
H 	H 	0.42797 0.07073 0.09713 0.01200
C 	C 	0.57027 0.03353 0.05001 -0.37600
H 	H 	0.62077 0.04303 0.05653 0.16500
C 	C 	0.54167 0.01143 0.02346 0.13800
O 	O 	0.03473 0.44467 0.46616 -0.41600
O 	O 	0.10983 0.48217 0.50394 -0.41100
C 	C 	0.09353 0.45337 0.48009 0.39000
C 	C 	0.15293 0.43527 0.46674 -0.15100
C 	C 	0.14083 0.41117 0.43973 0.08500
H 	H 	0.09463 0.40407 0.43047 0.01100
C 	C 	0.23693 0.36687 0.38335 -0.37800
H 	H 	0.28743 0.37637 0.38987 0.16600
C 	C 	0.20833 0.34477 0.35680 0.13900
O 	O 	0.22200 0.92340 0.79949 -0.41700
O 	O 	0.18450 0.96100 0.83727 -0.41200
C 	C 	0.21330 0.97350 0.81342 0.38600
C 	C 	0.23140 0.05100 0.80007 -0.14600
C 	C 	0.25550 0.06300 0.77306 0.08300
H 	H 	0.26260 0.02390 0.76380 0.01300
C 	C 	0.29980 0.20340 0.71668 -0.37700
H 	H 	0.29030 0.24440 0.72320 0.16500
C 	C 	0.32190 0.19690 0.69013 0.13900
O 	O 	0.88867 0.25673 0.13282 -0.41700
O 	O 	0.85117 0.29433 0.17060 -0.41200
C 	C 	0.87997 0.30683 0.14675 0.38900
C 	C 	0.89807 0.38433 0.13340 -0.15100
C 	C 	0.92217 0.39633 0.10639 0.08400
H 	H 	0.92927 0.35723 0.09713 0.01100
C 	C 	0.96647 0.53673 0.05001 -0.37300
H 	H 	0.95697 0.57773 0.05653 0.16300
C 	C 	0.98857 0.53023 0.02346 0.13500
O 	O 	0.55533 0.59007 0.46616 -0.41700
O 	O 	0.51783 0.62767 0.50394 -0.41200
C 	C 	0.54663 0.64017 0.48009 0.39000
C 	C 	0.56473 0.71767 0.46674 -0.15100
C 	C 	0.58883 0.72967 0.43973 0.08500
H 	H 	0.59593 0.69057 0.43047 0.01100
C 	C 	0.63313 0.87007 0.38335 -0.37800
H 	H 	0.62363 0.91107 0.38987 0.16500
C 	C 	0.65523 0.86357 0.35680 0.13900
O 	O 	0.07660 0.29860 0.79949 -0.41700
O 	O 	0.03900 0.22350 0.83727 -0.41100
C 	C 	0.02650 0.23980 0.81342 0.39200
C 	C 	0.94900 0.18040 0.80007 -0.15300
C 	C 	0.93700 0.19250 0.77306 0.08600
H 	H 	0.97610 0.23870 0.76380 0.01100
C 	C 	0.79660 0.09640 0.71668 -0.37800
H 	H 	0.75560 0.04590 0.72320 0.16600
C 	C 	0.80310 0.12500 0.69013 0.14000
O 	O 	0.74327 0.63193 0.13282 -0.41700
O 	O 	0.70567 0.55683 0.17060 -0.41200
C 	C 	0.69317 0.57313 0.14675 0.39000
C 	C 	0.61567 0.51373 0.13340 -0.15100
C 	C 	0.60367 0.52583 0.10639 0.08500
H 	H 	0.64277 0.57203 0.09713 0.01100
C 	C 	0.46327 0.42973 0.05001 -0.37800
H 	H 	0.42227 0.37923 0.05653 0.16600
C 	C 	0.46977 0.45833 0.02346 0.14000
O 	O 	0.40993 0.96527 0.46616 -0.41800
O 	O 	0.37233 0.89017 0.50394 -0.41200
C 	C 	0.35983 0.90647 0.48009 0.39000
C 	C 	0.28233 0.84707 0.46674 -0.15100
C 	C 	0.27033 0.85917 0.43973 0.08500
H 	H 	0.30943 0.90537 0.43047 0.01100
C 	C 	0.12993 0.76307 0.38335 -0.37900
H 	H 	0.08893 0.71257 0.38987 0.16600
C 	C 	0.13643 0.79167 0.35680 0.14000
O 	O 	0.77800 0.70140 0.20051 -0.41800
O 	O 	0.81550 0.77650 0.16273 -0.41300
C 	C 	0.78670 0.76020 0.18658 0.39000
C 	C 	0.76860 0.81960 0.19993 -0.15300
C 	C 	0.74450 0.80750 0.22694 0.08700
H 	H 	0.73740 0.76130 0.23620 0.01000
C 	C 	0.70020 0.90360 0.28332 -0.37900
H 	H 	0.70970 0.95410 0.27680 0.16500
C 	C 	0.67810 0.87500 0.30987 0.13900
O 	O 	0.44467 0.03473 0.53384 -0.41600
O 	O 	0.48217 0.10983 0.49606 -0.41100
C 	C 	0.45337 0.09353 0.51991 0.39000
C 	C 	0.43527 0.15293 0.53326 -0.15100
C 	C 	0.41117 0.14083 0.56027 0.08500
H 	H 	0.40407 0.09463 0.56953 0.01100
C 	C 	0.36687 0.23693 0.61665 -0.37800
H 	H 	0.37637 0.28743 0.61013 0.16600
C 	C 	0.34477 0.20833 0.64320 0.13900
O 	O 	0.11133 0.36807 0.86718 -0.41700
O 	O 	0.14883 0.44317 0.82940 -0.41200
C 	C 	0.12003 0.42687 0.85325 0.39000
C 	C 	0.10193 0.48627 0.86660 -0.15000
C 	C 	0.07783 0.47417 0.89361 0.08500
H 	H 	0.07073 0.42797 0.90287 0.01200
C 	C 	0.03353 0.57027 0.94999 -0.37500
H 	H 	0.04303 0.62077 0.94347 0.16500
C 	C 	0.01143 0.54167 0.97654 0.13700
O 	O 	0.92340 0.22200 0.20051 -0.41700
O 	O 	0.96100 0.18450 0.16273 -0.41200
C 	C 	0.97350 0.21330 0.18658 0.38600
C 	C 	0.05100 0.23140 0.19993 -0.14600
C 	C 	0.06300 0.25550 0.22694 0.08300
H 	H 	0.02390 0.26260 0.23620 0.01300
C 	C 	0.20340 0.29980 0.28332 -0.37700
H 	H 	0.24440 0.29030 0.27680 0.16500
C 	C 	0.19690 0.32190 0.30987 0.13900
O 	O 	0.59007 0.55533 0.53384 -0.41700
O 	O 	0.62767 0.51783 0.49606 -0.41200
C 	C 	0.64017 0.54663 0.51991 0.39000
C 	C 	0.71767 0.56473 0.53326 -0.15100
C 	C 	0.72967 0.58883 0.56027 0.08500
H 	H 	0.69057 0.59593 0.56953 0.01100
C 	C 	0.87007 0.63313 0.61665 -0.37800
H 	H 	0.91107 0.62363 0.61013 0.16500
C 	C 	0.86357 0.65523 0.64320 0.13900
O 	O 	0.25673 0.88867 0.86718 -0.41700
O 	O 	0.29433 0.85117 0.82940 -0.41200
C 	C 	0.30683 0.87997 0.85325 0.38900
C 	C 	0.38433 0.89807 0.86660 -0.15100
C 	C 	0.39633 0.92217 0.89361 0.08400
H 	H 	0.35723 0.92927 0.90287 0.01100
C 	C 	0.53673 0.96647 0.94999 -0.37300
H 	H 	0.57773 0.95697 0.94347 0.16300
C 	C 	0.53023 0.98857 0.97654 0.13400
O 	O 	0.29860 0.07660 0.20051 -0.41700
O 	O 	0.22350 0.03900 0.16273 -0.41100
C 	C 	0.23980 0.02650 0.18658 0.39200
C 	C 	0.18040 0.94900 0.19993 -0.15300
C 	C 	0.19250 0.93700 0.22694 0.08600
H 	H 	0.23870 0.97610 0.23620 0.01100
C 	C 	0.09640 0.79660 0.28332 -0.37800
H 	H 	0.04590 0.75560 0.27680 0.16600
C 	C 	0.12500 0.80310 0.30987 0.14000
O 	O 	0.96527 0.40993 0.53384 -0.41800
O 	O 	0.89017 0.37233 0.49606 -0.41200
C 	C 	0.90647 0.35983 0.51991 0.39000
C 	C 	0.84707 0.28233 0.53326 -0.15100
C 	C 	0.85917 0.27033 0.56027 0.08500
H 	H 	0.90537 0.30943 0.56953 0.01100
C 	C 	0.76307 0.12993 0.61665 -0.37900
H 	H 	0.71257 0.08893 0.61013 0.16600
C 	C 	0.79167 0.13643 0.64320 0.14000
O 	O 	0.63193 0.74327 0.86718 -0.41700
O 	O 	0.55683 0.70567 0.82940 -0.41200
C 	C 	0.57313 0.69317 0.85325 0.39000
C 	C 	0.51373 0.61567 0.86660 -0.15100
C 	C 	0.52583 0.60367 0.89361 0.08500
H 	H 	0.57203 0.64277 0.90287 0.01100
C 	C 	0.42973 0.46327 0.94999 -0.37800
H 	H 	0.37923 0.42227 0.94347 0.16600
C 	C 	0.45833 0.46977 0.97654 0.13900
Cu	Cu	0.28737 0.14368 0.14433 0.90600
Cu	Cu	0.95404 0.47702 0.47766 0.90500
Cu	Cu	0.62070 0.81035 0.81099 0.90600
Cu	Cu	0.85632 0.14368 0.14433 0.90600
Cu	Cu	0.52298 0.47702 0.47766 0.90600
Cu	Cu	0.18965 0.81035 0.81099 0.90600
Cu	Cu	0.85631 0.71263 0.14433 0.90600
Cu	Cu	0.52298 0.04596 0.47766 0.90700
Cu	Cu	0.18965 0.37930 0.81099 0.90600
Cu	Cu	0.14368 0.28737 0.85567 0.90600
Cu	Cu	0.81035 0.62070 0.18901 0.90600
Cu	Cu	0.47702 0.95404 0.52234 0.90500
Cu	Cu	0.14368 0.85632 0.85567 0.90600
Cu	Cu	0.81035 0.18965 0.18901 0.90600
Cu	Cu	0.47702 0.52298 0.52234 0.90600
Cu	Cu	0.71263 0.85631 0.85567 0.90600
Cu	Cu	0.37930 0.18965 0.18901 0.90600
Cu	Cu	0.04596 0.52298 0.52234 0.90700
C 	C 	0.11095 0.22190 0.18730 0.09300
H 	H 	0.10405 0.20810 0.16900 0.03100
C 	C 	0.13435 0.26870 0.23980 -0.15100
C 	C 	0.14770 0.29540 0.27050 0.36600
C 	C 	0.77762 0.55523 0.52063 0.09500
H 	H 	0.77072 0.54143 0.50233 0.02900
C 	C 	0.80102 0.60203 0.57313 -0.15400
C 	C 	0.81437 0.62873 0.60383 0.36600
C 	C 	0.44428 0.88857 0.85397 0.09500
H 	H 	0.43738 0.87477 0.83567 0.02900
C 	C 	0.46768 0.93537 0.90647 -0.15200
C 	C 	0.48103 0.96207 0.93717 0.36100
C 	C 	0.77810 0.88905 0.18730 0.09700
H 	H 	0.79190 0.89595 0.16900 0.02800
C 	C 	0.73130 0.86565 0.23980 -0.15500
C 	C 	0.70460 0.85230 0.27050 0.36700
C 	C 	0.44477 0.22238 0.52063 0.09500
H 	H 	0.45857 0.22928 0.50233 0.02900
C 	C 	0.39797 0.19898 0.57313 -0.15300
C 	C 	0.37127 0.18563 0.60383 0.36700
C 	C 	0.11143 0.55572 0.85397 0.09500
H 	H 	0.12523 0.56262 0.83567 0.02900
C 	C 	0.06463 0.53232 0.90647 -0.15200
C 	C 	0.03793 0.51897 0.93717 0.36400
C 	C 	0.11095 0.88905 0.18730 0.09500
H 	H 	0.10405 0.89595 0.16900 0.03000
C 	C 	0.13435 0.86565 0.23980 -0.15300
C 	C 	0.14770 0.85230 0.27050 0.36600
C 	C 	0.77762 0.22238 0.52063 0.09500
H 	H 	0.77072 0.22928 0.50233 0.02900
C 	C 	0.80102 0.19898 0.57313 -0.15300
C 	C 	0.81437 0.18563 0.60383 0.36700
C 	C 	0.44428 0.55572 0.85397 0.09500
H 	H 	0.43738 0.56262 0.83567 0.02900
C 	C 	0.46768 0.53232 0.90647 -0.15300
C 	C 	0.48103 0.51897 0.93717 0.36600
C 	C 	0.22190 0.11095 0.81270 0.09300
H 	H 	0.20810 0.10405 0.83100 0.03100
C 	C 	0.26870 0.13435 0.76020 -0.15100
C 	C 	0.29540 0.14770 0.72950 0.36600
C 	C 	0.88857 0.44428 0.14603 0.09500
H 	H 	0.87477 0.43738 0.16433 0.02900
C 	C 	0.93537 0.46768 0.09353 -0.15200
C 	C 	0.96207 0.48103 0.06283 0.36100
C 	C 	0.55523 0.77762 0.47937 0.09500
H 	H 	0.54143 0.77072 0.49767 0.02900
C 	C 	0.60203 0.80102 0.42687 -0.15400
C 	C 	0.62873 0.81437 0.39617 0.36600
C 	C 	0.88905 0.77810 0.81270 0.09700
H 	H 	0.89595 0.79190 0.83100 0.02800
C 	C 	0.86565 0.73130 0.76020 -0.15500
C 	C 	0.85230 0.70460 0.72950 0.36700
C 	C 	0.55572 0.11143 0.14603 0.09500
H 	H 	0.56262 0.12523 0.16433 0.02900
C 	C 	0.53232 0.06463 0.09353 -0.15200
C 	C 	0.51897 0.03793 0.06283 0.36500
C 	C 	0.22238 0.44477 0.47937 0.09500
H 	H 	0.22928 0.45857 0.49767 0.02900
C 	C 	0.19898 0.39797 0.42687 -0.15300
C 	C 	0.18563 0.37127 0.39617 0.36700
C 	C 	0.88905 0.11095 0.81270 0.09500
H 	H 	0.89595 0.10405 0.83100 0.03000
C 	C 	0.86565 0.13435 0.76020 -0.15300
C 	C 	0.85230 0.14770 0.72950 0.36600
C 	C 	0.55572 0.44428 0.14603 0.09500
H 	H 	0.56262 0.43738 0.16433 0.02900
C 	C 	0.53232 0.46768 0.09353 -0.15300
C 	C 	0.51897 0.48103 0.06283 0.36600
C 	C 	0.22238 0.77762 0.47937 0.09500
H 	H 	0.22928 0.77072 0.49767 0.02900
C 	C 	0.19898 0.80102 0.42687 -0.15300
C 	C 	0.18563 0.81437 0.39617 0.36700
C 	C 	0.09322 0.33333 0.33333 -0.22500
H 	H 	0.04382 0.33333 0.33333 0.11600
C 	C 	0.66667 0.75988 0.33333 -0.22500
H 	H 	0.66667 0.71048 0.33333 0.11500
C 	C 	0.24012 0.90678 0.33333 -0.22400
H 	H 	0.28952 0.95618 0.33333 0.11400
C 	C 	0.33333 0.09322 0.66667 -0.22500
H 	H 	0.33333 0.04382 0.66667 0.11600
C 	C 	-0.00000 0.42655 -0.00000 -0.21900
H 	H 	-0.00000 0.37715 -0.00000 0.11400
C 	C 	0.75988 0.66667 0.66667 -0.22500
H 	H 	0.71048 0.66667 0.66667 0.11500
C 	C 	0.42655 0.00000 -0.00000 -0.21900
H 	H 	0.37715 0.00000 -0.00000 0.11400
C 	C 	0.90678 0.24012 0.66667 -0.22400
H 	H 	0.95618 0.28952 0.66667 0.11400
C 	C 	0.57345 0.57345 -0.00000 -0.22400
H 	H 	0.62285 0.62285 -0.00000 0.11400
C 	C 	0.90678 0.66667 0.66667 -0.22500
H 	H 	0.95618 0.66667 0.66667 0.11400
C 	C 	0.57345 0.00000 -0.00000 -0.21900
H 	H 	0.62285 0.00000 -0.00000 0.11400
C 	C 	0.24012 0.33333 0.33333 -0.22400
H 	H 	0.28952 0.33333 0.33333 0.11500
C 	C 	0.33333 0.24012 0.66667 -0.22400
H 	H 	0.33333 0.28952 0.66667 0.11500
C 	C 	-0.00000 0.57345 -0.00000 -0.21900
H 	H 	-0.00000 0.62285 -0.00000 0.11400
C 	C 	0.75988 0.09322 0.66667 -0.22500
H 	H 	0.71048 0.04382 0.66667 0.11600
C 	C 	0.42655 0.42655 -0.00000 -0.22500
H 	H 	0.37715 0.37715 -0.00000 0.11500
C 	C 	0.66667 0.90678 0.33333 -0.22500
H 	H 	0.66667 0.95618 0.33333 0.11400
C 	C 	0.09322 0.75988 0.33333 -0.22500
H 	H 	0.04382 0.71048 0.33333 0.11600
