data_crystal

_cell_length_a 24.02800
_cell_length_b 13.41300
_cell_length_c 24.04800
_cell_angle_alpha 90.00000
_cell_angle_beta  113.11100
_cell_angle_gamma 90.00000

_symmetry_space_group_name_	'P 1'
_symmetry_space_group_name_H-M	'P 1'

loop_
_symmetry_equiv_pos_as_xyz
  x,y,z

loop_
_atom_site_label
_atom_site_type_symbol
_atom_site_fract_x
_atom_site_fract_y
_atom_site_fract_z
_atom_site_charge
Co	Co	0.38391 0.85265 0.95030 1.13600
O 	O 	0.44353 0.20500 0.19124 -0.43300
O 	O 	0.37535 0.32442 0.17041 -0.31200
O 	O 	0.39594 0.92404 0.03524 -0.38600
O 	O 	0.30841 0.93933 0.95791 -0.37900
O 	O 	0.95958 0.14468 0.00788 -0.30100
O 	O 	0.96503 0.28822 0.96407 -0.43100
N 	N 	0.52707 0.39589 0.20130 -0.24700
N 	N 	0.56548 0.53101 0.17910 -0.15700
N 	N 	0.83595 0.68540 0.35934 -0.24100
N 	N 	0.75982 0.69961 0.27169 -0.15900
N 	N 	0.58659 0.01505 0.07944 -0.22100
N 	N 	0.59042 0.87134 0.12436 -0.16000
C 	C 	0.57798 0.70079 0.15180 -0.28500
H 	H 	0.53730 0.70240 0.12610 0.14400
C 	C 	0.60320 0.61658 0.18600 0.23300
C 	C 	0.66348 0.61320 0.22470 -0.29000
H 	H 	0.68000 0.55610 0.24700 0.13900
C 	C 	0.69865 0.69680 0.22936 0.23500
C 	C 	0.67514 0.78127 0.19526 -0.29300
H 	H 	0.69960 0.83640 0.19820 0.13900
C 	C 	0.61530 0.78259 0.15711 0.23800
C 	C 	0.57002 0.46321 0.22209 0.10100
H 	H 	0.59960 0.46400 0.26120 -0.00100
C 	C 	0.49362 0.42200 0.14260 0.00600
H 	H 	0.46020 0.38710 0.11640 0.02900
C 	C 	0.51593 0.50500 0.12828 0.00200
H 	H 	0.50100 0.53830 0.09140 0.05000
C 	C 	0.77949 0.66260 0.32863 0.09900
H 	H 	0.75570 0.62580 0.34380 -0.00900
C 	C 	0.85430 0.73960 0.32141 0.00600
H 	H 	0.89290 0.76550 0.33120 0.02300
C 	C 	0.80746 0.74940 0.26744 0.00500
H 	H 	0.80760 0.78350 0.23380 0.03700
C 	C 	0.62185 0.94180 0.10839 0.10500
H 	H 	0.66310 0.93840 0.11690 -0.01100
C 	C 	0.53003 0.99140 0.07617 0.00200
H 	H 	0.49560 0.03040 0.05770 0.04000
C 	C 	0.53152 0.90380 0.10365 0.01200
H 	H 	0.49910 0.87140 0.10780 0.03800
C 	C 	0.39090 0.23980 0.16204 0.32400
C 	C 	0.34638 0.17235 0.11614 -0.07700
C 	C 	0.36552 0.09227 0.09145 0.01100
H 	H 	0.40650 0.07680 0.10540 0.05200
C 	C 	0.32359 0.03532 0.04592 -0.07300
C 	C 	0.34360 0.96049 0.01162 0.28800
C 	C 	0.26202 0.05455 0.02813 -0.01500
H 	H 	0.23400 0.01490 0.99860 0.04700
C 	C 	0.24164 0.13180 0.05372 -0.03000
C 	C 	0.28506 0.19240 0.09632 -0.01300
H 	H 	0.27240 0.24750 0.11170 0.04900
C 	C 	0.17648 0.15082 0.03610 0.09600
C 	C 	0.15272 0.24669 0.02211 -0.15600
H 	H 	0.17850 0.29970 0.02430 0.09500
C 	C 	0.09190 0.26446 0.00506 0.09000
H 	H 	0.07700 0.32870 0.99450 0.00900
C 	C 	0.05229 0.18733 0.00334 -0.16600
C 	C 	0.98743 0.20734 0.99042 0.37800
C 	C 	0.07608 0.09123 0.01746 0.07700
H 	H 	0.05060 0.03860 0.01670 0.01900
C 	C 	0.13672 0.07303 0.03253 -0.14700
H 	H 	0.15130 0.00810 0.04040 0.08500
Co	Co	0.88391 0.35265 0.95030 1.13600
O 	O 	0.94353 0.70500 0.19124 -0.42100
O 	O 	0.87535 0.82442 0.17041 -0.31000
O 	O 	0.89594 0.42404 0.03524 -0.38300
O 	O 	0.80841 0.43933 0.95791 -0.38100
O 	O 	0.45958 0.64468 0.00788 -0.30600
O 	O 	0.46503 0.78822 0.96407 -0.43400
N 	N 	0.02707 0.89589 0.20130 -0.27300
N 	N 	0.06548 0.03101 0.17910 -0.14800
N 	N 	0.33595 0.18540 0.35934 -0.24300
N 	N 	0.25982 0.19961 0.27169 -0.16000
N 	N 	0.08659 0.51505 0.07944 -0.22000
N 	N 	0.09042 0.37134 0.12436 -0.15500
C 	C 	0.07798 0.20079 0.15180 -0.27800
H 	H 	0.03730 0.20240 0.12610 0.13500
C 	C 	0.10320 0.11658 0.18600 0.22500
C 	C 	0.16348 0.11320 0.22470 -0.28500
H 	H 	0.18000 0.05610 0.24700 0.13700
C 	C 	0.19865 0.19680 0.22936 0.23100
C 	C 	0.17514 0.28127 0.19526 -0.28800
H 	H 	0.19960 0.33640 0.19820 0.13700
C 	C 	0.11530 0.28259 0.15711 0.23000
C 	C 	0.07002 0.96321 0.22209 0.09700
H 	H 	0.09960 0.96400 0.26120 -0.00200
C 	C 	0.99362 0.92200 0.14260 0.09200
H 	H 	0.96020 0.88710 0.11640 0.00500
C 	C 	0.01593 0.00500 0.12828 -0.06600
H 	H 	0.00100 0.03830 0.09140 0.06500
C 	C 	0.27949 0.16260 0.32863 0.09800
H 	H 	0.25570 0.12580 0.34380 -0.01000
C 	C 	0.35430 0.23960 0.32141 0.00700
H 	H 	0.39290 0.26550 0.33120 0.01900
C 	C 	0.30746 0.24940 0.26744 0.00300
H 	H 	0.30760 0.28350 0.23380 0.03700
C 	C 	0.12185 0.44180 0.10839 0.10500
H 	H 	0.16310 0.43840 0.11690 -0.01100
C 	C 	0.03003 0.49140 0.07617 -0.02700
H 	H 	0.99560 0.53040 0.05770 0.06700
C 	C 	0.03152 0.40380 0.10365 -0.02500
H 	H 	0.99910 0.37140 0.10780 0.07100
C 	C 	0.89090 0.73980 0.16204 0.32100
C 	C 	0.84638 0.67235 0.11614 -0.07200
C 	C 	0.86552 0.59227 0.09145 0.00800
H 	H 	0.90650 0.57680 0.10540 0.05600
C 	C 	0.82359 0.53532 0.04592 -0.07000
C 	C 	0.84360 0.46049 0.01162 0.29000
C 	C 	0.76202 0.55455 0.02813 -0.01900
H 	H 	0.73400 0.51490 0.99860 0.04900
C 	C 	0.74164 0.63180 0.05372 -0.02300
C 	C 	0.78506 0.69240 0.09632 -0.01800
H 	H 	0.77240 0.74750 0.11170 0.05100
C 	C 	0.67648 0.65082 0.03610 0.08200
C 	C 	0.65272 0.74669 0.02211 -0.13800
H 	H 	0.67850 0.79970 0.02430 0.08900
C 	C 	0.59190 0.76446 0.00506 0.06700
H 	H 	0.57700 0.82870 0.99450 0.02000
C 	C 	0.55229 0.68733 0.00334 -0.12600
C 	C 	0.48743 0.70734 0.99042 0.34800
C 	C 	0.57608 0.59123 0.01746 0.05200
H 	H 	0.55060 0.53860 0.01670 0.03500
C 	C 	0.63672 0.57303 0.03253 -0.12700
H 	H 	0.65130 0.50810 0.04040 0.08000
Co	Co	0.61609 0.85265 0.54970 1.13500
O 	O 	0.55647 0.20500 0.30876 -0.43300
O 	O 	0.62465 0.32442 0.32959 -0.31300
O 	O 	0.60406 0.92404 0.46476 -0.38600
O 	O 	0.69159 0.93933 0.54209 -0.37800
O 	O 	0.04042 0.14468 0.49212 -0.30800
O 	O 	0.03497 0.28822 0.53593 -0.43600
N 	N 	0.47293 0.39589 0.29870 -0.24800
N 	N 	0.43452 0.53101 0.32090 -0.15800
N 	N 	0.16405 0.68540 0.14066 -0.24400
N 	N 	0.24018 0.69961 0.22831 -0.16000
N 	N 	0.41341 0.01505 0.42056 -0.22300
N 	N 	0.40958 0.87134 0.37564 -0.16100
C 	C 	0.42202 0.70079 0.34820 -0.28500
H 	H 	0.46270 0.70240 0.37390 0.14400
C 	C 	0.39680 0.61658 0.31400 0.23300
C 	C 	0.33652 0.61320 0.27530 -0.29000
H 	H 	0.32000 0.55610 0.25300 0.13900
C 	C 	0.30135 0.69680 0.27064 0.23500
C 	C 	0.32486 0.78127 0.30474 -0.29300
H 	H 	0.30040 0.83640 0.30180 0.13900
C 	C 	0.38470 0.78259 0.34289 0.23800
C 	C 	0.42998 0.46321 0.27791 0.10100
H 	H 	0.40040 0.46400 0.23880 -0.00100
C 	C 	0.50638 0.42200 0.35740 0.00600
H 	H 	0.53980 0.38710 0.38360 0.02900
C 	C 	0.48407 0.50500 0.37172 0.00200
H 	H 	0.49900 0.53830 0.40860 0.05000
C 	C 	0.22051 0.66260 0.17137 0.09800
H 	H 	0.24430 0.62580 0.15620 -0.00900
C 	C 	0.14570 0.73960 0.17859 0.00700
H 	H 	0.10710 0.76550 0.16880 0.01500
C 	C 	0.19254 0.74940 0.23256 0.00200
H 	H 	0.19240 0.78350 0.26620 0.03700
C 	C 	0.37815 0.94180 0.39161 0.10600
H 	H 	0.33690 0.93840 0.38310 -0.01100
C 	C 	0.46997 0.99140 0.42383 0.00500
H 	H 	0.50440 0.03040 0.44230 0.03800
C 	C 	0.46848 0.90380 0.39635 0.01100
H 	H 	0.50090 0.87140 0.39220 0.03900
C 	C 	0.60910 0.23980 0.33796 0.32200
C 	C 	0.65362 0.17235 0.38386 -0.07100
C 	C 	0.63448 0.09227 0.40855 0.00500
H 	H 	0.59350 0.07680 0.39460 0.05400
C 	C 	0.67641 0.03532 0.45408 -0.06700
C 	C 	0.65640 0.96049 0.48838 0.28500
C 	C 	0.73798 0.05455 0.47187 -0.03000
H 	H 	0.76600 0.01490 0.50140 0.05500
C 	C 	0.75836 0.13180 0.44628 -0.01300
C 	C 	0.71494 0.19240 0.40368 -0.02400
H 	H 	0.72760 0.24750 0.38830 0.05300
C 	C 	0.82352 0.15082 0.46390 0.06400
C 	C 	0.84728 0.24669 0.47789 -0.11500
H 	H 	0.82150 0.29970 0.47570 0.08000
C 	C 	0.90810 0.26446 0.49494 0.03600
H 	H 	0.92300 0.32870 0.50550 0.03500
C 	C 	0.94771 0.18733 0.49666 -0.08300
C 	C 	0.01257 0.20734 0.50958 0.31500
C 	C 	0.92392 0.09123 0.48254 0.02400
H 	H 	0.94940 0.03860 0.48330 0.05100
C 	C 	0.86328 0.07303 0.46747 -0.10400
H 	H 	0.84870 0.00810 0.45960 0.07200
Co	Co	0.11609 0.35265 0.54970 1.13400
O 	O 	0.05647 0.70500 0.30876 -0.44100
O 	O 	0.12465 0.82442 0.32959 -0.31500
O 	O 	0.10406 0.42404 0.46476 -0.39000
O 	O 	0.19159 0.43933 0.54209 -0.37900
O 	O 	0.54042 0.64468 0.49212 -0.30700
O 	O 	0.53497 0.78822 0.53593 -0.43400
N 	N 	0.97293 0.89589 0.29870 -0.22000
N 	N 	0.93452 0.03101 0.32090 -0.16700
N 	N 	0.66405 0.18540 0.14066 -0.24300
N 	N 	0.74018 0.19961 0.22831 -0.16100
N 	N 	0.91341 0.51505 0.42056 -0.22700
N 	N 	0.90958 0.37134 0.37564 -0.16700
C 	C 	0.92202 0.20079 0.34820 -0.29100
H 	H 	0.96270 0.20240 0.37390 0.15400
C 	C 	0.89680 0.11658 0.31400 0.24000
C 	C 	0.83652 0.11320 0.27530 -0.29400
H 	H 	0.82000 0.05610 0.25300 0.14100
C 	C 	0.80135 0.19680 0.27064 0.23900
C 	C 	0.82486 0.28127 0.30474 -0.29800
H 	H 	0.80040 0.33640 0.30180 0.14200
C 	C 	0.88470 0.28259 0.34289 0.24600
C 	C 	0.92998 0.96321 0.27791 0.10500
H 	H 	0.90040 0.96400 0.23880 -0.00100
C 	C 	0.00638 0.92200 0.35740 -0.08100
H 	H 	0.03980 0.88710 0.38360 0.05300
C 	C 	0.98407 0.00500 0.37172 0.07000
H 	H 	0.99900 0.03830 0.40860 0.03500
C 	C 	0.72051 0.16260 0.17137 0.09900
H 	H 	0.74430 0.12580 0.15620 -0.00900
C 	C 	0.64570 0.23960 0.17859 0.00700
H 	H 	0.60710 0.26550 0.16880 0.01900
C 	C 	0.69254 0.24940 0.23256 0.00400
H 	H 	0.69240 0.28350 0.26620 0.03700
C 	C 	0.87815 0.44180 0.39161 0.10700
H 	H 	0.83690 0.43840 0.38310 -0.01100
C 	C 	0.96997 0.49140 0.42383 0.03600
H 	H 	0.00440 0.53040 0.44230 0.01000
C 	C 	0.96848 0.40380 0.39635 0.04600
H 	H 	0.00090 0.37140 0.39220 0.00800
C 	C 	0.10910 0.73980 0.33796 0.32500
C 	C 	0.15362 0.67235 0.38386 -0.07700
C 	C 	0.13448 0.59227 0.40855 0.01000
H 	H 	0.09350 0.57680 0.39460 0.04900
C 	C 	0.17641 0.53532 0.45408 -0.07200
C 	C 	0.15640 0.46049 0.48838 0.28700
C 	C 	0.23798 0.55455 0.47187 -0.02400
H 	H 	0.26600 0.51490 0.50140 0.05200
C 	C 	0.25836 0.63180 0.44628 -0.02200
C 	C 	0.21494 0.69240 0.40368 -0.01700
H 	H 	0.22760 0.74750 0.38830 0.05100
C 	C 	0.32352 0.65082 0.46390 0.08100
C 	C 	0.34728 0.74669 0.47789 -0.13600
H 	H 	0.32150 0.79970 0.47570 0.08800
C 	C 	0.40810 0.76446 0.49494 0.06300
H 	H 	0.42300 0.82870 0.50550 0.02200
C 	C 	0.44771 0.68733 0.49666 -0.12700
C 	C 	0.51257 0.70734 0.50958 0.35100
C 	C 	0.42392 0.59123 0.48254 0.05200
H 	H 	0.44940 0.53860 0.48330 0.03400
C 	C 	0.36328 0.57303 0.46747 -0.12600
H 	H 	0.34870 0.50810 0.45960 0.07900
Co	Co	0.61609 0.14735 0.04970 1.13600
O 	O 	0.55647 0.79500 0.80876 -0.43300
O 	O 	0.62465 0.67558 0.82959 -0.31300
O 	O 	0.60406 0.07596 0.96476 -0.38600
O 	O 	0.69159 0.06067 0.04209 -0.37500
O 	O 	0.04042 0.85532 0.99212 -0.30700
O 	O 	0.03497 0.71178 0.03593 -0.43600
N 	N 	0.47293 0.60411 0.79870 -0.24800
N 	N 	0.43452 0.46899 0.82090 -0.15800
N 	N 	0.16405 0.31460 0.64066 -0.24400
N 	N 	0.24018 0.30039 0.72831 -0.16000
N 	N 	0.41341 0.98495 0.92056 -0.22200
N 	N 	0.40958 0.12866 0.87564 -0.16100
C 	C 	0.42202 0.29921 0.84820 -0.28400
H 	H 	0.46270 0.29760 0.87390 0.14400
C 	C 	0.39680 0.38342 0.81400 0.23200
C 	C 	0.33652 0.38680 0.77530 -0.29000
H 	H 	0.32000 0.44390 0.75300 0.13900
C 	C 	0.30135 0.30320 0.77064 0.23500
C 	C 	0.32486 0.21873 0.80474 -0.29200
H 	H 	0.30040 0.16360 0.80180 0.13900
C 	C 	0.38470 0.21741 0.84289 0.23800
C 	C 	0.42998 0.53679 0.77791 0.10100
H 	H 	0.40040 0.53600 0.73880 -0.00100
C 	C 	0.50638 0.57800 0.85740 0.00600
H 	H 	0.53980 0.61290 0.88360 0.02800
C 	C 	0.48407 0.49500 0.87172 0.00200
H 	H 	0.49900 0.46170 0.90860 0.05000
C 	C 	0.22051 0.33740 0.67137 0.09800
H 	H 	0.24430 0.37420 0.65620 -0.00900
C 	C 	0.14570 0.26040 0.67859 0.00700
H 	H 	0.10710 0.23450 0.66880 0.01500
C 	C 	0.19254 0.25060 0.73256 0.00200
H 	H 	0.19240 0.21650 0.76620 0.03700
C 	C 	0.37815 0.05820 0.89161 0.10500
H 	H 	0.33690 0.06160 0.88310 -0.01100
C 	C 	0.46997 0.00860 0.92383 0.00200
H 	H 	0.50440 0.96960 0.94230 0.03900
C 	C 	0.46848 0.09620 0.89635 0.01200
H 	H 	0.50090 0.12860 0.89220 0.03800
C 	C 	0.60910 0.76020 0.83796 0.32100
C 	C 	0.65362 0.82765 0.88386 -0.06900
C 	C 	0.63448 0.90773 0.90855 0.00100
H 	H 	0.59350 0.92320 0.89460 0.05500
C 	C 	0.67641 0.96468 0.95408 -0.06200
C 	C 	0.65640 0.03951 0.98838 0.27900
C 	C 	0.73798 0.94545 0.97187 -0.03700
H 	H 	0.76600 0.98510 0.00140 0.05900
C 	C 	0.75836 0.86820 0.94628 -0.00900
C 	C 	0.71494 0.80760 0.90368 -0.02700
H 	H 	0.72760 0.75250 0.88830 0.05400
C 	C 	0.82352 0.84918 0.96390 0.06000
C 	C 	0.84728 0.75331 0.97789 -0.10900
H 	H 	0.82150 0.70030 0.97570 0.07800
C 	C 	0.90810 0.73554 0.99494 0.02800
H 	H 	0.92300 0.67130 0.00550 0.04000
C 	C 	0.94771 0.81267 0.99666 -0.08100
C 	C 	0.01257 0.79266 0.00958 0.31600
C 	C 	0.92392 0.90877 0.98254 0.02200
H 	H 	0.94940 0.96140 0.98330 0.05100
C 	C 	0.86328 0.92697 0.96747 -0.10100
H 	H 	0.84870 0.99190 0.95960 0.07000
Co	Co	0.11609 0.64735 0.04970 1.13400
O 	O 	0.05647 0.29500 0.80876 -0.44100
O 	O 	0.12465 0.17558 0.82959 -0.31500
O 	O 	0.10406 0.57596 0.96476 -0.39000
O 	O 	0.19159 0.56067 0.04209 -0.37800
O 	O 	0.54042 0.35532 0.99212 -0.31000
O 	O 	0.53497 0.21178 0.03593 -0.43500
N 	N 	0.97293 0.10411 0.79870 -0.22100
N 	N 	0.93452 0.96899 0.82090 -0.16700
N 	N 	0.66405 0.81460 0.64066 -0.24300
N 	N 	0.74018 0.80039 0.72831 -0.16100
N 	N 	0.91341 0.48495 0.92056 -0.22700
N 	N 	0.90958 0.62866 0.87564 -0.16600
C 	C 	0.92202 0.79921 0.84820 -0.29100
H 	H 	0.96270 0.79760 0.87390 0.15300
C 	C 	0.89680 0.88342 0.81400 0.24000
C 	C 	0.83652 0.88680 0.77530 -0.29400
H 	H 	0.82000 0.94390 0.75300 0.14000
C 	C 	0.80135 0.80320 0.77064 0.23900
C 	C 	0.82486 0.71873 0.80474 -0.29700
H 	H 	0.80040 0.66360 0.80180 0.14100
C 	C 	0.88470 0.71741 0.84289 0.24600
C 	C 	0.92998 0.03679 0.77791 0.10400
H 	H 	0.90040 0.03600 0.73880 -0.00100
C 	C 	0.00638 0.07800 0.85740 -0.07700
H 	H 	0.03980 0.11290 0.88360 0.05200
C 	C 	0.98407 0.99500 0.87172 0.06700
H 	H 	0.99900 0.96170 0.90860 0.03500
C 	C 	0.72051 0.83740 0.67137 0.09900
H 	H 	0.74430 0.87420 0.65620 -0.00900
C 	C 	0.64570 0.76040 0.67859 0.00700
H 	H 	0.60710 0.73450 0.66880 0.01900
C 	C 	0.69254 0.75060 0.73256 0.00400
H 	H 	0.69240 0.71650 0.76620 0.03700
C 	C 	0.87815 0.55820 0.89161 0.10600
H 	H 	0.83690 0.56160 0.88310 -0.01100
C 	C 	0.96997 0.50860 0.92383 0.03400
H 	H 	0.00440 0.46960 0.94230 0.01200
C 	C 	0.96848 0.59620 0.89635 0.04400
H 	H 	0.00090 0.62860 0.89220 0.01000
C 	C 	0.10910 0.26020 0.83796 0.32400
C 	C 	0.15362 0.32765 0.88386 -0.07600
C 	C 	0.13448 0.40773 0.90855 0.00800
H 	H 	0.09350 0.42320 0.89460 0.05000
C 	C 	0.17641 0.46468 0.95408 -0.07000
C 	C 	0.15640 0.53951 0.98838 0.28600
C 	C 	0.23798 0.44545 0.97187 -0.02800
H 	H 	0.26600 0.48510 0.00140 0.05400
C 	C 	0.25836 0.36820 0.94628 -0.02000
C 	C 	0.21494 0.30760 0.90368 -0.01900
H 	H 	0.22760 0.25250 0.88830 0.05100
C 	C 	0.32352 0.34918 0.96390 0.07800
C 	C 	0.34728 0.25331 0.97789 -0.13300
H 	H 	0.32150 0.20030 0.97570 0.08600
C 	C 	0.40810 0.23554 0.99494 0.05800
H 	H 	0.42300 0.17130 0.00550 0.02500
C 	C 	0.44771 0.31267 0.99666 -0.12800
C 	C 	0.51257 0.29266 0.00958 0.35500
C 	C 	0.42392 0.40877 0.98254 0.05200
H 	H 	0.44940 0.46140 0.98330 0.03400
C 	C 	0.36328 0.42697 0.96747 -0.12600
H 	H 	0.34870 0.49190 0.95960 0.07800
Co	Co	0.38391 0.14735 0.45030 1.13500
O 	O 	0.44353 0.79500 0.69124 -0.43400
O 	O 	0.37535 0.67558 0.67041 -0.31300
O 	O 	0.39594 0.07596 0.53524 -0.38700
O 	O 	0.30841 0.06067 0.45791 -0.37900
O 	O 	0.95958 0.85532 0.50788 -0.30700
O 	O 	0.96503 0.71178 0.46407 -0.43200
N 	N 	0.52707 0.60411 0.70130 -0.24800
N 	N 	0.56548 0.46899 0.67910 -0.15800
N 	N 	0.83595 0.31460 0.85934 -0.24200
N 	N 	0.75982 0.30039 0.77169 -0.16000
N 	N 	0.58659 0.98495 0.57944 -0.22300
N 	N 	0.59042 0.12866 0.62436 -0.16100
C 	C 	0.57798 0.29921 0.65180 -0.28500
H 	H 	0.53730 0.29760 0.62610 0.14400
C 	C 	0.60320 0.38342 0.68600 0.23300
C 	C 	0.66348 0.38680 0.72470 -0.29000
H 	H 	0.68000 0.44390 0.74700 0.13900
C 	C 	0.69865 0.30320 0.72936 0.23500
C 	C 	0.67514 0.21873 0.69526 -0.29300
H 	H 	0.69960 0.16360 0.69820 0.13900
C 	C 	0.61530 0.21741 0.65711 0.23800
C 	C 	0.57002 0.53679 0.72209 0.10100
H 	H 	0.59960 0.53600 0.76120 -0.00100
C 	C 	0.49362 0.57800 0.64260 0.00600
H 	H 	0.46020 0.61290 0.61640 0.02900
C 	C 	0.51593 0.49500 0.62828 0.00200
H 	H 	0.50100 0.46170 0.59140 0.05000
C 	C 	0.77949 0.33740 0.82863 0.09900
H 	H 	0.75570 0.37420 0.84380 -0.00900
C 	C 	0.85430 0.26040 0.82141 0.00600
H 	H 	0.89290 0.23450 0.83120 0.02200
C 	C 	0.80746 0.25060 0.76744 0.00500
H 	H 	0.80760 0.21650 0.73380 0.03700
C 	C 	0.62185 0.05820 0.60839 0.10600
H 	H 	0.66310 0.06160 0.61690 -0.01100
C 	C 	0.53003 0.00860 0.57617 0.00400
H 	H 	0.49560 0.96960 0.55770 0.03800
C 	C 	0.53152 0.09620 0.60365 0.01100
H 	H 	0.49910 0.12860 0.60780 0.03900
C 	C 	0.39090 0.76020 0.66204 0.32400
C 	C 	0.34638 0.82765 0.61614 -0.07600
C 	C 	0.36552 0.90773 0.59145 0.01000
H 	H 	0.40650 0.92320 0.60540 0.05200
C 	C 	0.32359 0.96468 0.54592 -0.07200
C 	C 	0.34360 0.03951 0.51162 0.28700
C 	C 	0.26202 0.94545 0.52813 -0.02000
H 	H 	0.23400 0.98510 0.49860 0.05000
C 	C 	0.24164 0.86820 0.55372 -0.02900
C 	C 	0.28506 0.80760 0.59632 -0.01400
H 	H 	0.27240 0.75250 0.61170 0.05000
C 	C 	0.17648 0.84918 0.53610 0.09600
C 	C 	0.15272 0.75331 0.52211 -0.15700
H 	H 	0.17850 0.70030 0.52430 0.09500
C 	C 	0.09190 0.73554 0.50506 0.09000
H 	H 	0.07700 0.67130 0.49450 0.01000
C 	C 	0.05229 0.81267 0.50334 -0.17000
C 	C 	0.98743 0.79266 0.49042 0.38700
C 	C 	0.07608 0.90877 0.51746 0.07900
H 	H 	0.05060 0.96140 0.51670 0.01800
C 	C 	0.13672 0.92697 0.53253 -0.14800
H 	H 	0.15130 0.99190 0.54040 0.08500
Co	Co	0.88391 0.64735 0.45030 1.13600
O 	O 	0.94353 0.29500 0.69124 -0.42100
O 	O 	0.87535 0.17558 0.67041 -0.31000
O 	O 	0.89594 0.57596 0.53524 -0.38300
O 	O 	0.80841 0.56067 0.45791 -0.37800
O 	O 	0.45958 0.35532 0.50788 -0.30700
O 	O 	0.46503 0.21178 0.46407 -0.43400
N 	N 	0.02707 0.10411 0.70130 -0.27200
N 	N 	0.06548 0.96899 0.67910 -0.14900
N 	N 	0.33595 0.81460 0.85934 -0.24300
N 	N 	0.25982 0.80039 0.77169 -0.16000
N 	N 	0.08659 0.48495 0.57944 -0.22000
N 	N 	0.09042 0.62866 0.62436 -0.15500
C 	C 	0.07798 0.79921 0.65180 -0.27800
H 	H 	0.03730 0.79760 0.62610 0.13500
C 	C 	0.10320 0.88342 0.68600 0.22500
C 	C 	0.16348 0.88680 0.72470 -0.28600
H 	H 	0.18000 0.94390 0.74700 0.13700
C 	C 	0.19865 0.80320 0.72936 0.23100
C 	C 	0.17514 0.71873 0.69526 -0.28800
H 	H 	0.19960 0.66360 0.69820 0.13800
C 	C 	0.11530 0.71741 0.65711 0.23000
C 	C 	0.07002 0.03679 0.72209 0.09700
H 	H 	0.09960 0.03600 0.76120 -0.00200
C 	C 	0.99362 0.07800 0.64260 0.08900
H 	H 	0.96020 0.11290 0.61640 0.00500
C 	C 	0.01593 0.99500 0.62828 -0.06400
H 	H 	0.00100 0.96170 0.59140 0.06400
C 	C 	0.27949 0.83740 0.82863 0.09800
H 	H 	0.25570 0.87420 0.84380 -0.01000
C 	C 	0.35430 0.76040 0.82141 0.00700
H 	H 	0.39290 0.73450 0.83120 0.01900
C 	C 	0.30746 0.75060 0.76744 0.00300
H 	H 	0.30760 0.71650 0.73380 0.03700
C 	C 	0.12185 0.55820 0.60839 0.10500
H 	H 	0.16310 0.56160 0.61690 -0.01100
C 	C 	0.03003 0.50860 0.57617 -0.02600
H 	H 	0.99560 0.46960 0.55770 0.06500
C 	C 	0.03152 0.59620 0.60365 -0.02400
H 	H 	0.99910 0.62860 0.60780 0.06900
C 	C 	0.89090 0.26020 0.66204 0.32100
C 	C 	0.84638 0.32765 0.61614 -0.07000
C 	C 	0.86552 0.40773 0.59145 0.00500
H 	H 	0.90650 0.42320 0.60540 0.05700
C 	C 	0.82359 0.46468 0.54592 -0.06700
C 	C 	0.84360 0.53951 0.51162 0.28500
C 	C 	0.76202 0.44545 0.52813 -0.02700
H 	H 	0.73400 0.48510 0.49860 0.05300
C 	C 	0.74164 0.36820 0.55372 -0.01900
C 	C 	0.78506 0.30760 0.59632 -0.02100
H 	H 	0.77240 0.25250 0.61170 0.05200
C 	C 	0.67648 0.34918 0.53610 0.07900
C 	C 	0.65272 0.25331 0.52211 -0.13500
H 	H 	0.67850 0.20030 0.52430 0.08800
C 	C 	0.59190 0.23554 0.50506 0.06300
H 	H 	0.57700 0.17130 0.49450 0.02300
C 	C 	0.55229 0.31267 0.50334 -0.12600
C 	C 	0.48743 0.29266 0.49042 0.35100
C 	C 	0.57608 0.40877 0.51746 0.05100
H 	H 	0.55060 0.46140 0.51670 0.03400
C 	C 	0.63672 0.42697 0.53253 -0.12600
H 	H 	0.65130 0.49190 0.54040 0.07900
Co	Co	0.50000 0.29648 0.25000 1.15100
Co	Co	-0.00000 0.79648 0.25000 1.13900
Co	Co	0.50000 0.70352 0.75000 1.15100
Co	Co	0.00000 0.20352 0.75000 1.13900
