data_crystal

_cell_length_a 23.97920
_cell_length_b 13.37210
_cell_length_c 24.22270
_cell_angle_alpha 90.00000
_cell_angle_beta  112.70600
_cell_angle_gamma 90.00000

_symmetry_space_group_name_	'P 1'
_symmetry_space_group_name_H-M	'P 1'

loop_
_symmetry_equiv_pos_as_xyz
  x,y,z

loop_
_atom_site_label
_atom_site_type_symbol
_atom_site_fract_x
_atom_site_fract_y
_atom_site_fract_z
_atom_site_charge
Co	Co	0.38388 0.64867 0.45159 1.13500
N 	N 	0.47050 0.89662 0.29765 -0.25000
N 	N 	0.43073 0.03028 0.32051 -0.15800
N 	N 	0.41212 0.51671 0.42087 -0.22600
N 	N 	0.40792 0.37280 0.37504 -0.16200
N 	N 	0.16367 0.19137 0.13697 -0.24500
N 	N 	0.23904 0.20641 0.22457 -0.15900
O 	O 	0.44414 0.70887 0.19066 -0.43300
O 	O 	0.37583 0.82878 0.16850 -0.31000
O 	O 	0.39666 0.42418 0.03586 -0.38900
O 	O 	0.30849 0.43519 0.96120 -0.38300
O 	O 	0.96518 0.78801 0.96439 -0.43100
O 	O 	0.96022 0.64231 0.00699 -0.30000
C 	C 	0.33422 0.11590 0.27375 -0.28200
H 	H 	0.31770 0.05910 0.25120 0.13600
C 	C 	0.39372 0.11755 0.31365 0.23000
C 	C 	0.41920 0.20081 0.34805 -0.28300
H 	H 	0.45950 0.20060 0.37450 0.14300
C 	C 	0.38330 0.28437 0.34217 0.23300
C 	C 	0.32345 0.28562 0.30232 -0.28300
H 	H 	0.29970 0.34220 0.29870 0.13600
C 	C 	0.29968 0.20209 0.26823 0.22700
C 	C 	0.42866 0.96595 0.27700 0.10100
H 	H 	0.40120 0.97000 0.23750 -0.00200
C 	C 	0.50085 0.91780 0.35732 0.00300
H 	H 	0.53310 0.88100 0.38360 0.03000
C 	C 	0.47693 0.99970 0.37197 0.00400
H 	H 	0.48920 0.02950 0.40950 0.04800
C 	C 	0.37708 0.44363 0.39144 0.10800
H 	H 	0.33580 0.44070 0.38280 -0.01200
C 	C 	0.46883 0.49191 0.42383 0.00400
H 	H 	0.50330 0.53060 0.44220 0.03900
C 	C 	0.46742 0.40390 0.39652 0.00900
H 	H 	0.49990 0.37080 0.39280 0.04000
C 	C 	0.22033 0.16775 0.16938 0.09900
H 	H 	0.24440 0.12890 0.15560 -0.00900
C 	C 	0.14554 0.24870 0.17434 0.00600
H 	H 	0.10730 0.27650 0.16390 0.01800
C 	C 	0.19116 0.25880 0.22820 0.00100
H 	H 	0.19040 0.29400 0.26110 0.03700
C 	C 	0.39153 0.74319 0.16138 0.32200
C 	C 	0.34723 0.67476 0.11603 -0.07300
C 	C 	0.36636 0.59334 0.09194 0.01000
H 	H 	0.40720 0.57720 0.10590 0.05200
C 	C 	0.32454 0.53617 0.04707 -0.07300
C 	C 	0.26290 0.55638 0.02923 -0.01900
H 	H 	0.23490 0.51700 0.99990 0.05000
C 	C 	0.24269 0.63437 0.05466 -0.02700
C 	C 	0.28549 0.69508 0.09675 -0.01600
H 	H 	0.27270 0.75010 0.11230 0.05000
C 	C 	0.34461 0.45956 0.01356 0.29500
C 	C 	0.17700 0.65291 0.03624 0.09300
C 	C 	0.15367 0.74961 0.02439 -0.15200
H 	H 	0.17960 0.80340 0.02850 0.09300
C 	C 	0.09241 0.76618 0.00654 0.08500
H 	H 	0.07720 0.83060 0.99660 0.01200
C 	C 	0.05325 0.68785 0.00331 -0.16200
C 	C 	0.07662 0.59157 0.01530 0.07400
H 	H 	0.05100 0.53820 0.01300 0.02000
C 	C 	0.13748 0.57426 0.03058 -0.14400
H 	H 	0.15220 0.50910 0.03720 0.08400
C 	C 	0.98760 0.70702 0.99016 0.37800
Co	Co	0.88388 0.14867 0.45159 1.13800
N 	N 	0.97050 0.39662 0.29765 -0.22000
N 	N 	0.93073 0.53028 0.32051 -0.16700
N 	N 	0.91212 0.01671 0.42087 -0.23300
N 	N 	0.90792 0.87280 0.37504 -0.15500
N 	N 	0.66367 0.69137 0.13697 -0.24300
N 	N 	0.73904 0.70641 0.22457 -0.15900
O 	O 	0.94414 0.20887 0.19066 -0.41800
O 	O 	0.87583 0.32878 0.16850 -0.30600
O 	O 	0.89666 0.92418 0.03586 -0.38200
O 	O 	0.80849 0.93519 0.96120 -0.38100
O 	O 	0.46518 0.28801 0.96439 -0.43300
O 	O 	0.46022 0.14231 0.00699 -0.30300
C 	C 	0.83422 0.61590 0.27375 -0.28400
H 	H 	0.81770 0.55910 0.25120 0.13700
C 	C 	0.89372 0.61755 0.31365 0.23600
C 	C 	0.91920 0.70081 0.34805 -0.28700
H 	H 	0.95950 0.70060 0.37450 0.15000
C 	C 	0.88330 0.78437 0.34217 0.23600
C 	C 	0.82345 0.78562 0.30232 -0.28500
H 	H 	0.79970 0.84220 0.29870 0.13700
C 	C 	0.79968 0.70209 0.26823 0.22900
C 	C 	0.92866 0.46595 0.27700 0.10600
H 	H 	0.90120 0.47000 0.23750 -0.00100
C 	C 	0.00085 0.41780 0.35732 -0.08700
H 	H 	0.03310 0.38100 0.38360 0.05500
C 	C 	0.97693 0.49970 0.37197 0.07500
H 	H 	0.98920 0.52950 0.40950 0.03200
C 	C 	0.87708 0.94363 0.39144 0.10800
H 	H 	0.83580 0.94070 0.38280 -0.01200
C 	C 	0.96883 0.99191 0.42383 0.07100
H 	H 	0.00330 0.03060 0.44220 -0.00300
C 	C 	0.96742 0.90390 0.39652 -0.02000
H 	H 	0.99990 0.87080 0.39280 0.06100
C 	C 	0.72033 0.66775 0.16938 0.10000
H 	H 	0.74440 0.62890 0.15560 -0.00900
C 	C 	0.64554 0.74870 0.17434 0.00500
H 	H 	0.60730 0.77650 0.16390 0.02200
C 	C 	0.69116 0.75880 0.22820 0.00200
H 	H 	0.69040 0.79400 0.26110 0.03600
C 	C 	0.89153 0.24319 0.16138 0.31900
C 	C 	0.84723 0.17476 0.11603 -0.06800
C 	C 	0.86636 0.09334 0.09194 0.00600
H 	H 	0.90720 0.07720 0.10590 0.05700
C 	C 	0.82454 0.03617 0.04707 -0.06900
C 	C 	0.76290 0.05638 0.02923 -0.01900
H 	H 	0.73490 0.01700 0.99990 0.04900
C 	C 	0.74269 0.13437 0.05466 -0.02000
C 	C 	0.78549 0.19508 0.09675 -0.02100
H 	H 	0.77270 0.25010 0.11230 0.05200
C 	C 	0.84461 0.95956 0.01356 0.29200
C 	C 	0.67700 0.15291 0.03624 0.08100
C 	C 	0.65367 0.24961 0.02439 -0.13600
H 	H 	0.67960 0.30340 0.02850 0.08800
C 	C 	0.59241 0.26618 0.00654 0.06500
H 	H 	0.57720 0.33060 0.99660 0.02000
C 	C 	0.55325 0.18785 0.00331 -0.12100
C 	C 	0.57662 0.09157 0.01530 0.04900
H 	H 	0.55100 0.03820 0.01300 0.03700
C 	C 	0.63748 0.07426 0.03058 -0.12500
H 	H 	0.65220 0.00910 0.03720 0.07900
C 	C 	0.48760 0.20702 0.99016 0.34300
Co	Co	0.61612 0.64867 0.04841 1.13700
N 	N 	0.52950 0.89662 0.20235 -0.24900
N 	N 	0.56927 0.03028 0.17949 -0.15700
N 	N 	0.58788 0.51671 0.07913 -0.22500
N 	N 	0.59208 0.37280 0.12496 -0.16100
N 	N 	0.83633 0.19137 0.36303 -0.24200
N 	N 	0.76096 0.20641 0.27543 -0.15900
O 	O 	0.55586 0.70887 0.30934 -0.43100
O 	O 	0.62417 0.82878 0.33150 -0.31000
O 	O 	0.60334 0.42418 0.46414 -0.38900
O 	O 	0.69151 0.43519 0.53880 -0.38000
O 	O 	0.03482 0.78801 0.53561 -0.43600
O 	O 	0.03978 0.64231 0.49301 -0.30700
C 	C 	0.66578 0.11590 0.22625 -0.28200
H 	H 	0.68230 0.05910 0.24880 0.13600
C 	C 	0.60628 0.11755 0.18635 0.23000
C 	C 	0.58080 0.20081 0.15195 -0.28300
H 	H 	0.54050 0.20060 0.12550 0.14300
C 	C 	0.61670 0.28437 0.15783 0.23300
C 	C 	0.67655 0.28562 0.19768 -0.28400
H 	H 	0.70030 0.34220 0.20130 0.13600
C 	C 	0.70032 0.20209 0.23177 0.22700
C 	C 	0.57134 0.96595 0.22300 0.10100
H 	H 	0.59880 0.97000 0.26250 -0.00200
C 	C 	0.49915 0.91780 0.14268 0.00300
H 	H 	0.46690 0.88100 0.11640 0.03000
C 	C 	0.52307 0.99970 0.12803 0.00200
H 	H 	0.51080 0.02950 0.09050 0.04900
C 	C 	0.62292 0.44363 0.10856 0.10800
H 	H 	0.66420 0.44070 0.11720 -0.01200
C 	C 	0.53117 0.49191 0.07617 0.00500
H 	H 	0.49670 0.53060 0.05780 0.03900
C 	C 	0.53258 0.40390 0.10348 0.00900
H 	H 	0.50010 0.37080 0.10720 0.04000
C 	C 	0.77967 0.16775 0.33062 0.10000
H 	H 	0.75560 0.12890 0.34440 -0.00900
C 	C 	0.85446 0.24870 0.32566 0.00400
H 	H 	0.89270 0.27650 0.33610 0.02600
C 	C 	0.80884 0.25880 0.27180 0.00400
H 	H 	0.80960 0.29400 0.23890 0.03700
C 	C 	0.60847 0.74319 0.33862 0.32000
C 	C 	0.65277 0.67476 0.38397 -0.06700
C 	C 	0.63364 0.59334 0.40806 0.00300
H 	H 	0.59280 0.57720 0.39410 0.05400
C 	C 	0.67546 0.53617 0.45293 -0.06600
C 	C 	0.73710 0.55638 0.47077 -0.03200
H 	H 	0.76510 0.51700 0.50010 0.05700
C 	C 	0.75731 0.63437 0.44534 -0.01000
C 	C 	0.71451 0.69508 0.40325 -0.02700
H 	H 	0.72730 0.75010 0.38770 0.05400
C 	C 	0.65539 0.45956 0.48644 0.29000
C 	C 	0.82300 0.65291 0.46376 0.06100
C 	C 	0.84633 0.74961 0.47561 -0.11000
H 	H 	0.82040 0.80340 0.47150 0.07800
C 	C 	0.90759 0.76618 0.49346 0.03100
H 	H 	0.92280 0.83060 0.50340 0.03700
C 	C 	0.94675 0.68785 0.49669 -0.07600
C 	C 	0.92338 0.59157 0.48470 0.01900
H 	H 	0.94900 0.53820 0.48700 0.05400
C 	C 	0.86252 0.57426 0.46942 -0.10000
H 	H 	0.84780 0.50910 0.46280 0.07100
C 	C 	0.01240 0.70702 0.50984 0.31100
Co	Co	0.11612 0.14867 0.04841 1.13500
N 	N 	0.02950 0.39662 0.20235 -0.27500
N 	N 	0.06927 0.53028 0.17949 -0.14800
N 	N 	0.08788 0.01671 0.07913 -0.21500
N 	N 	0.09208 0.87280 0.12496 -0.16600
N 	N 	0.33633 0.69137 0.36303 -0.24300
N 	N 	0.26096 0.70641 0.27543 -0.15800
O 	O 	0.05586 0.20887 0.30934 -0.44000
O 	O 	0.12417 0.32878 0.33150 -0.31200
O 	O 	0.10334 0.92418 0.46414 -0.39600
O 	O 	0.19151 0.93519 0.53880 -0.38200
O 	O 	0.53482 0.28801 0.53561 -0.43400
O 	O 	0.53978 0.14231 0.49301 -0.30600
C 	C 	0.16578 0.61590 0.22625 -0.27900
H 	H 	0.18230 0.55910 0.24880 0.13400
C 	C 	0.10628 0.61755 0.18635 0.22400
C 	C 	0.08080 0.70081 0.15195 -0.28000
H 	H 	0.04050 0.70060 0.12550 0.13600
C 	C 	0.11670 0.78437 0.15783 0.23000
C 	C 	0.17655 0.78562 0.19768 -0.28200
H 	H 	0.20030 0.84220 0.20130 0.13500
C 	C 	0.20032 0.70209 0.23177 0.22500
C 	C 	0.07134 0.46595 0.22300 0.09700
H 	H 	0.09880 0.47000 0.26250 -0.00300
C 	C 	0.99915 0.41780 0.14268 0.09300
H 	H 	0.96690 0.38100 0.11640 0.00600
C 	C 	0.02307 0.49970 0.12803 -0.06500
H 	H 	0.01080 0.52950 0.09050 0.06300
C 	C 	0.12292 0.94363 0.10856 0.10700
H 	H 	0.16420 0.94070 0.11720 -0.01200
C 	C 	0.03117 0.99191 0.07617 -0.06700
H 	H 	0.99670 0.03060 0.05780 0.08300
C 	C 	0.03258 0.90390 0.10348 0.04100
H 	H 	0.00010 0.87080 0.10720 0.01700
C 	C 	0.27967 0.66775 0.33062 0.09900
H 	H 	0.25560 0.62890 0.34440 -0.01000
C 	C 	0.35446 0.74870 0.32566 0.00500
H 	H 	0.39270 0.77650 0.33610 0.02200
C 	C 	0.30884 0.75880 0.27180 0.00200
H 	H 	0.30960 0.79400 0.23890 0.03700
C 	C 	0.10847 0.24319 0.33862 0.32200
C 	C 	0.15277 0.17476 0.38397 -0.07400
C 	C 	0.13364 0.09334 0.40806 0.00900
H 	H 	0.09280 0.07720 0.39410 0.04900
C 	C 	0.17546 0.03617 0.45293 -0.07300
C 	C 	0.23710 0.05638 0.47077 -0.02500
H 	H 	0.26510 0.01700 0.50010 0.05300
C 	C 	0.25731 0.13437 0.44534 -0.02000
C 	C 	0.21451 0.19508 0.40325 -0.02000
H 	H 	0.22730 0.25010 0.38770 0.05100
C 	C 	0.15539 0.95956 0.48644 0.29400
C 	C 	0.32300 0.15291 0.46376 0.07900
C 	C 	0.34633 0.24961 0.47561 -0.13200
H 	H 	0.32040 0.30340 0.47150 0.08600
C 	C 	0.40759 0.26618 0.49346 0.05900
H 	H 	0.42280 0.33060 0.50340 0.02400
C 	C 	0.44675 0.18785 0.49669 -0.12200
C 	C 	0.42338 0.09157 0.48470 0.04800
H 	H 	0.44900 0.03820 0.48700 0.03600
C 	C 	0.36252 0.07426 0.46942 -0.12400
H 	H 	0.34780 0.00910 0.46280 0.07800
C 	C 	0.51240 0.20702 0.50984 0.34800
Co	Co	0.61612 0.35133 0.54841 1.13600
N 	N 	0.52950 0.10338 0.70235 -0.24900
N 	N 	0.56927 0.96972 0.67949 -0.15800
N 	N 	0.58788 0.48329 0.57913 -0.22500
N 	N 	0.59208 0.62720 0.62496 -0.16100
N 	N 	0.83633 0.80863 0.86303 -0.24300
N 	N 	0.76096 0.79359 0.77543 -0.15900
O 	O 	0.55586 0.29113 0.80934 -0.43100
O 	O 	0.62417 0.17122 0.83150 -0.31000
O 	O 	0.60334 0.57582 0.96414 -0.38800
O 	O 	0.69151 0.56481 0.03880 -0.37700
O 	O 	0.03482 0.21199 0.03561 -0.43600
O 	O 	0.03978 0.35769 0.99301 -0.30700
C 	C 	0.66578 0.88410 0.72625 -0.28200
H 	H 	0.68230 0.94090 0.74880 0.13600
C 	C 	0.60628 0.88245 0.68635 0.23000
C 	C 	0.58080 0.79919 0.65195 -0.28300
H 	H 	0.54050 0.79940 0.62550 0.14300
C 	C 	0.61670 0.71563 0.65783 0.23300
C 	C 	0.67655 0.71438 0.69768 -0.28300
H 	H 	0.70030 0.65780 0.70130 0.13600
C 	C 	0.70032 0.79791 0.73177 0.22700
C 	C 	0.57134 0.03405 0.72300 0.10100
H 	H 	0.59880 0.03000 0.76250 -0.00200
C 	C 	0.49915 0.08220 0.64268 0.00200
H 	H 	0.46690 0.11900 0.61640 0.03000
C 	C 	0.52307 0.00030 0.62803 0.00400
H 	H 	0.51080 0.97050 0.59050 0.04800
C 	C 	0.62292 0.55637 0.60856 0.10800
H 	H 	0.66420 0.55930 0.61720 -0.01200
C 	C 	0.53117 0.50809 0.57617 0.00400
H 	H 	0.49670 0.46940 0.55780 0.03900
C 	C 	0.53258 0.59610 0.60348 0.00900
H 	H 	0.50010 0.62920 0.60720 0.04000
C 	C 	0.77967 0.83225 0.83062 0.10000
H 	H 	0.75560 0.87110 0.84440 -0.00900
C 	C 	0.85446 0.75130 0.82566 0.00400
H 	H 	0.89270 0.72350 0.83610 0.02600
C 	C 	0.80884 0.74120 0.77180 0.00300
H 	H 	0.80960 0.70600 0.73890 0.03600
C 	C 	0.60847 0.25681 0.83862 0.31900
C 	C 	0.65277 0.32524 0.88397 -0.06500
C 	C 	0.63364 0.40666 0.90806 -0.00000
H 	H 	0.59280 0.42280 0.89410 0.05500
C 	C 	0.67546 0.46383 0.95293 -0.06200
C 	C 	0.73710 0.44362 0.97077 -0.04100
H 	H 	0.76510 0.48300 0.00010 0.06200
C 	C 	0.75731 0.36563 0.94534 -0.00400
C 	C 	0.71451 0.30492 0.90325 -0.03100
H 	H 	0.72730 0.24990 0.88770 0.05500
C 	C 	0.65539 0.54044 0.98644 0.28600
C 	C 	0.82300 0.34709 0.96376 0.05600
C 	C 	0.84633 0.25039 0.97561 -0.10300
H 	H 	0.82040 0.19660 0.97150 0.07500
C 	C 	0.90759 0.23382 0.99346 0.02000
H 	H 	0.92280 0.16940 0.00340 0.04300
C 	C 	0.94675 0.31215 0.99669 -0.07400
C 	C 	0.92338 0.40843 0.98470 0.01500
H 	H 	0.94900 0.46180 0.98700 0.05400
C 	C 	0.86252 0.42574 0.96942 -0.09700
H 	H 	0.84780 0.49090 0.96280 0.06900
C 	C 	0.01240 0.29298 0.00984 0.31300
Co	Co	0.11612 0.85133 0.54841 1.13500
N 	N 	0.02950 0.60338 0.70235 -0.27400
N 	N 	0.06927 0.46972 0.67949 -0.14900
N 	N 	0.08788 0.98329 0.57913 -0.21700
N 	N 	0.09208 0.12720 0.62496 -0.16600
N 	N 	0.33633 0.30863 0.86303 -0.24400
N 	N 	0.26096 0.29359 0.77543 -0.15800
O 	O 	0.05586 0.79113 0.80934 -0.43900
O 	O 	0.12417 0.67122 0.83150 -0.31200
O 	O 	0.10334 0.07582 0.96414 -0.39500
O 	O 	0.19151 0.06481 0.03880 -0.38000
O 	O 	0.53482 0.71199 0.03561 -0.43400
O 	O 	0.53978 0.85769 0.99301 -0.30800
C 	C 	0.16578 0.38410 0.72625 -0.27900
H 	H 	0.18230 0.44090 0.74880 0.13400
C 	C 	0.10628 0.38245 0.68635 0.22400
C 	C 	0.08080 0.29919 0.65195 -0.28000
H 	H 	0.04050 0.29940 0.62550 0.13600
C 	C 	0.11670 0.21563 0.65783 0.23000
C 	C 	0.17655 0.21438 0.69768 -0.28200
H 	H 	0.20030 0.15780 0.70130 0.13500
C 	C 	0.20032 0.29791 0.73177 0.22500
C 	C 	0.07134 0.53405 0.72300 0.09700
H 	H 	0.09880 0.53000 0.76250 -0.00300
C 	C 	0.99915 0.58220 0.64268 0.08900
H 	H 	0.96690 0.61900 0.61640 0.00600
C 	C 	0.02307 0.50030 0.62803 -0.06200
H 	H 	0.01080 0.47050 0.59050 0.06200
C 	C 	0.12292 0.05637 0.60856 0.10700
H 	H 	0.16420 0.05930 0.61720 -0.01200
C 	C 	0.03117 0.00809 0.57617 -0.06200
H 	H 	0.99670 0.96940 0.55780 0.08000
C 	C 	0.03258 0.09610 0.60348 0.03900
H 	H 	0.00010 0.12920 0.60720 0.01800
C 	C 	0.27967 0.33225 0.83062 0.09900
H 	H 	0.25560 0.37110 0.84440 -0.01000
C 	C 	0.35446 0.25130 0.82566 0.00500
H 	H 	0.39270 0.22350 0.83610 0.02200
C 	C 	0.30884 0.24120 0.77180 0.00200
H 	H 	0.30960 0.20600 0.73890 0.03700
C 	C 	0.10847 0.75681 0.83862 0.32200
C 	C 	0.15277 0.82524 0.88397 -0.07300
C 	C 	0.13364 0.90666 0.90806 0.00800
H 	H 	0.09280 0.92280 0.89410 0.04900
C 	C 	0.17546 0.96383 0.95293 -0.07000
C 	C 	0.23710 0.94362 0.97077 -0.02700
H 	H 	0.26510 0.98300 0.00010 0.05400
C 	C 	0.25731 0.86563 0.94534 -0.01800
C 	C 	0.21451 0.80492 0.90325 -0.02100
H 	H 	0.22730 0.74990 0.88770 0.05200
C 	C 	0.15539 0.04044 0.98644 0.29000
C 	C 	0.32300 0.84709 0.96376 0.07700
C 	C 	0.34633 0.75039 0.97561 -0.13100
H 	H 	0.32040 0.69660 0.97150 0.08500
C 	C 	0.40759 0.73382 0.99346 0.05700
H 	H 	0.42280 0.66940 0.00340 0.02600
C 	C 	0.44675 0.81215 0.99669 -0.12200
C 	C 	0.42338 0.90843 0.98470 0.04800
H 	H 	0.44900 0.96180 0.98700 0.03500
C 	C 	0.36252 0.92574 0.96942 -0.12300
H 	H 	0.34780 0.99090 0.96280 0.07700
C 	C 	0.51240 0.79298 0.00984 0.35000
Co	Co	0.38388 0.35133 0.95159 1.13600
N 	N 	0.47050 0.10338 0.79765 -0.24900
N 	N 	0.43073 0.96972 0.82051 -0.15700
N 	N 	0.41212 0.48329 0.92087 -0.22500
N 	N 	0.40792 0.62720 0.87504 -0.16100
N 	N 	0.16367 0.80863 0.63697 -0.24400
N 	N 	0.23904 0.79359 0.72457 -0.15800
O 	O 	0.44414 0.29113 0.69066 -0.43200
O 	O 	0.37583 0.17122 0.66850 -0.31000
O 	O 	0.39666 0.57582 0.53586 -0.38900
O 	O 	0.30849 0.56481 0.46120 -0.38100
O 	O 	0.96518 0.21199 0.46439 -0.43100
O 	O 	0.96022 0.35769 0.50699 -0.30500
C 	C 	0.33422 0.88410 0.77375 -0.28100
H 	H 	0.31770 0.94090 0.75120 0.13600
C 	C 	0.39372 0.88245 0.81365 0.22900
C 	C 	0.41920 0.79919 0.84805 -0.28300
H 	H 	0.45950 0.79940 0.87450 0.14300
C 	C 	0.38330 0.71563 0.84217 0.23200
C 	C 	0.32345 0.71438 0.80232 -0.28300
H 	H 	0.29970 0.65780 0.79870 0.13600
C 	C 	0.29968 0.79791 0.76823 0.22700
C 	C 	0.42866 0.03405 0.77700 0.10100
H 	H 	0.40120 0.03000 0.73750 -0.00200
C 	C 	0.50085 0.08220 0.85732 0.00300
H 	H 	0.53310 0.11900 0.88360 0.02900
C 	C 	0.47693 0.00030 0.87197 0.00200
H 	H 	0.48920 0.97050 0.90950 0.04800
C 	C 	0.37708 0.55637 0.89144 0.10800
H 	H 	0.33580 0.55930 0.88280 -0.01200
C 	C 	0.46883 0.50809 0.92383 0.00400
H 	H 	0.50330 0.46940 0.94220 0.03800
C 	C 	0.46742 0.59610 0.89652 0.00900
H 	H 	0.49990 0.62920 0.89280 0.04000
C 	C 	0.22033 0.83225 0.66938 0.09900
H 	H 	0.24440 0.87110 0.65560 -0.00900
C 	C 	0.14554 0.75130 0.67434 0.00600
H 	H 	0.10730 0.72350 0.66390 0.01800
C 	C 	0.19116 0.74120 0.72820 0.00100
H 	H 	0.19040 0.70600 0.76110 0.03700
C 	C 	0.39153 0.25681 0.66138 0.32200
C 	C 	0.34723 0.32524 0.61603 -0.07300
C 	C 	0.36636 0.40666 0.59194 0.00900
H 	H 	0.40720 0.42280 0.60590 0.05200
C 	C 	0.32454 0.46383 0.54707 -0.07200
C 	C 	0.26290 0.44362 0.52923 -0.02200
H 	H 	0.23490 0.48300 0.49990 0.05100
C 	C 	0.24269 0.36563 0.55466 -0.02600
C 	C 	0.28549 0.30492 0.59675 -0.01700
H 	H 	0.27270 0.24990 0.61230 0.05000
C 	C 	0.34461 0.54044 0.51356 0.29200
C 	C 	0.17700 0.34709 0.53624 0.09400
C 	C 	0.15367 0.25039 0.52439 -0.15400
H 	H 	0.17960 0.19660 0.52850 0.09400
C 	C 	0.09241 0.23382 0.50654 0.08700
H 	H 	0.07720 0.16940 0.49660 0.01100
C 	C 	0.05325 0.31215 0.50331 -0.16700
C 	C 	0.07662 0.40843 0.51530 0.07700
H 	H 	0.05100 0.46180 0.51300 0.01800
C 	C 	0.13748 0.42574 0.53058 -0.14600
H 	H 	0.15220 0.49090 0.53720 0.08500
C 	C 	0.98760 0.29298 0.49016 0.38500
Co	Co	0.88388 0.85133 0.95159 1.13700
N 	N 	0.97050 0.60338 0.79765 -0.22200
N 	N 	0.93073 0.46972 0.82051 -0.16700
N 	N 	0.91212 0.98329 0.92087 -0.23200
N 	N 	0.90792 0.12720 0.87504 -0.15600
N 	N 	0.66367 0.30863 0.63697 -0.24300
N 	N 	0.73904 0.29359 0.72457 -0.15900
O 	O 	0.94414 0.79113 0.69066 -0.41800
O 	O 	0.87583 0.67122 0.66850 -0.30600
O 	O 	0.89666 0.07582 0.53586 -0.38200
O 	O 	0.80849 0.06481 0.46120 -0.37900
O 	O 	0.46518 0.71199 0.46439 -0.43400
O 	O 	0.46022 0.85769 0.50699 -0.30600
C 	C 	0.83422 0.38410 0.77375 -0.28400
H 	H 	0.81770 0.44090 0.75120 0.13700
C 	C 	0.89372 0.38245 0.81365 0.23600
C 	C 	0.91920 0.29919 0.84805 -0.28600
H 	H 	0.95950 0.29940 0.87450 0.14900
C 	C 	0.88330 0.21563 0.84217 0.23600
C 	C 	0.82345 0.21438 0.80232 -0.28500
H 	H 	0.79970 0.15780 0.79870 0.13700
C 	C 	0.79968 0.29791 0.76823 0.22900
C 	C 	0.92866 0.53405 0.77700 0.10500
H 	H 	0.90120 0.53000 0.73750 -0.00100
C 	C 	0.00085 0.58220 0.85732 -0.08200
H 	H 	0.03310 0.61900 0.88360 0.05300
C 	C 	0.97693 0.50030 0.87197 0.07100
H 	H 	0.98920 0.47050 0.90950 0.03200
C 	C 	0.87708 0.05637 0.89144 0.10700
H 	H 	0.83580 0.05930 0.88280 -0.01200
C 	C 	0.96883 0.00809 0.92383 0.06400
H 	H 	0.00330 0.96940 0.94220 0.00100
C 	C 	0.96742 0.09610 0.89652 -0.01800
H 	H 	0.99990 0.12920 0.89280 0.05900
C 	C 	0.72033 0.33225 0.66938 0.10000
H 	H 	0.74440 0.37110 0.65560 -0.00900
C 	C 	0.64554 0.25130 0.67434 0.00500
H 	H 	0.60730 0.22350 0.66390 0.02200
C 	C 	0.69116 0.24120 0.72820 0.00200
H 	H 	0.69040 0.20600 0.76110 0.03600
C 	C 	0.89153 0.75681 0.66138 0.31800
C 	C 	0.84723 0.82524 0.61603 -0.06600
C 	C 	0.86636 0.90666 0.59194 0.00300
H 	H 	0.90720 0.92280 0.60590 0.05800
C 	C 	0.82454 0.96383 0.54707 -0.06500
C 	C 	0.76290 0.94362 0.52923 -0.02900
H 	H 	0.73490 0.98300 0.49990 0.05500
C 	C 	0.74269 0.86563 0.55466 -0.01600
C 	C 	0.78549 0.80492 0.59675 -0.02400
H 	H 	0.77270 0.74990 0.61230 0.05300
C 	C 	0.84461 0.04044 0.51356 0.28900
C 	C 	0.67700 0.84709 0.53624 0.07700
C 	C 	0.65367 0.75039 0.52439 -0.13100
H 	H 	0.67960 0.69660 0.52850 0.08600
C 	C 	0.59241 0.73382 0.50654 0.05900
H 	H 	0.57720 0.66940 0.49660 0.02400
C 	C 	0.55325 0.81215 0.50331 -0.12100
C 	C 	0.57662 0.90843 0.51530 0.04700
H 	H 	0.55100 0.96180 0.51300 0.03600
C 	C 	0.63748 0.92574 0.53058 -0.12300
H 	H 	0.65220 0.99090 0.53720 0.07800
C 	C 	0.48760 0.79298 0.49016 0.34700
Co	Co	0.50000 0.80023 0.25000 1.15000
Co	Co	0.00000 0.30023 0.25000 1.13800
Co	Co	0.50000 0.19977 0.75000 1.15000
Co	Co	0.00000 0.69977 0.75000 1.13900
