data_crystal

_cell_length_a 18.82760
_cell_length_b 18.82760
_cell_length_c 54.14900
_cell_angle_alpha 90.00000
_cell_angle_beta  90.00000
_cell_angle_gamma 120.00000

_symmetry_space_group_name_	'P 1'
_symmetry_space_group_name_H-M	'P 1'

loop_
_symmetry_equiv_pos_as_xyz
  x,y,z

loop_
_atom_site_label
_atom_site_type_symbol
_atom_site_fract_x
_atom_site_fract_y
_atom_site_fract_z
_atom_site_charge
C 	C 	0.22642 0.08770 0.22827 -0.00300
C 	C 	0.21402 0.01711 0.24069 0.00500
C 	C 	0.18790 0.00260 0.26553 -0.09500
C 	C 	0.17519 0.06200 0.27785 0.04700
C 	C 	0.18796 0.13418 0.26556 -0.10000
C 	C 	0.21409 0.14588 0.24073 0.00700
H 	H 	0.22253 -0.02784 0.23063 0.04600
H 	H 	0.15318 0.05096 0.29672 0.04100
H 	H 	0.22265 0.19940 0.23068 0.04500
C 	C 	0.89121 0.42065 0.56025 -0.00600
C 	C 	0.87957 0.47918 0.57277 0.00700
C 	C 	0.85499 0.46814 0.59775 -0.10500
C 	C 	0.84308 0.39649 0.61010 0.04900
C 	C 	0.85505 0.33682 0.59773 -0.10500
C 	C 	0.87961 0.35044 0.57275 0.00700
H 	H 	0.88748 0.53241 0.56270 0.04300
H 	H 	0.82229 0.38607 0.62909 0.03900
H 	H 	0.88753 0.30516 0.56266 0.04300
C 	C 	0.55681 0.75264 0.89405 -0.00700
C 	C 	0.54506 0.68231 0.90651 0.00700
C 	C 	0.52028 0.66851 0.93146 -0.10500
C 	C 	0.50827 0.72814 0.94386 0.04900
C 	C 	0.52034 0.79990 0.93154 -0.10500
C 	C 	0.54514 0.81111 0.90659 0.00700
H 	H 	0.55302 0.63708 0.89640 0.04300
H 	H 	0.48732 0.71759 0.96283 0.03800
H 	H 	0.55317 0.86442 0.89654 0.04300
C 	C 	0.82498 0.08961 0.22836 -0.01100
C 	C 	0.76716 0.01878 0.24073 0.01100
C 	C 	0.77893 0.00441 0.26555 -0.10400
C 	C 	0.85063 0.06410 0.27791 0.06000
C 	C 	0.90971 0.13648 0.26565 -0.13000
C 	C 	0.89520 0.14816 0.24083 0.02000
H 	H 	0.71398 -0.02649 0.23063 0.04500
H 	H 	0.86171 0.05302 0.29676 0.03700
H 	H 	0.94001 0.20179 0.23079 0.04000
C 	C 	0.49286 0.42110 0.56072 -0.00700
C 	C 	0.43440 0.35085 0.57319 0.00800
C 	C 	0.44558 0.33709 0.59813 -0.10500
C 	C 	0.51726 0.39672 0.61049 0.05000
C 	C 	0.57682 0.46846 0.59813 -0.10500
C 	C 	0.56305 0.47962 0.57320 0.00800
H 	H 	0.38118 0.30558 0.56311 0.04300
H 	H 	0.52783 0.38616 0.62945 0.03900
H 	H 	0.60827 0.53288 0.56312 0.04300
C 	C 	0.15862 0.75268 0.89430 -0.00700
C 	C 	0.10003 0.68242 0.90674 0.00800
C 	C 	0.11091 0.66872 0.93170 -0.10600
C 	C 	0.18244 0.72839 0.94412 0.05000
C 	C 	0.24211 0.80014 0.93180 -0.10600
C 	C 	0.22862 0.81125 0.90684 0.00800
H 	H 	0.04697 0.63710 0.89660 0.04200
H 	H 	0.19281 0.71787 0.96310 0.03800
H 	H 	0.27396 0.86449 0.89677 0.04300
C 	C 	0.82417 0.68273 0.22839 -0.01300
C 	C 	0.89462 0.69479 0.24081 0.02000
C 	C 	0.90949 0.72161 0.26558 -0.13200
C 	C 	0.85056 0.73517 0.27782 0.06200
C 	C 	0.77868 0.72284 0.26550 -0.11100
C 	C 	0.76653 0.69606 0.24075 0.01200
H 	H 	0.93927 0.68569 0.23078 0.04000
H 	H 	0.86189 0.75776 0.29663 0.03500
H 	H 	0.71315 0.68780 0.23069 0.04200
C 	C 	0.49247 0.02091 0.56070 -0.00600
C 	C 	0.43412 0.03292 0.57316 0.00800
C 	C 	0.44550 0.05821 0.59806 -0.10400
C 	C 	0.51727 0.07042 0.61040 0.05000
C 	C 	0.57675 0.05808 0.59806 -0.10400
C 	C 	0.56279 0.03279 0.57316 0.00800
H 	H 	0.38082 0.02481 0.56309 0.04400
H 	H 	0.52797 0.09179 0.62934 0.03900
H 	H 	0.60794 0.02461 0.56309 0.04300
C 	C 	0.15794 0.35297 0.89413 -0.00600
C 	C 	0.09950 0.36483 0.90660 0.00800
C 	C 	0.11067 0.38980 0.93153 -0.10500
C 	C 	0.18234 0.40184 0.94390 0.05000
C 	C 	0.24190 0.38964 0.93156 -0.10500
C 	C 	0.22814 0.36466 0.90663 0.00800
H 	H 	0.04628 0.35688 0.89651 0.04400
H 	H 	0.19289 0.42298 0.96286 0.03800
H 	H 	0.27338 0.35662 0.89656 0.04300
C 	C 	0.09304 0.22215 0.69348 -0.00600
C 	C 	0.15132 0.20994 0.68105 0.00800
C 	C 	0.13989 0.18439 0.65617 -0.10500
C 	C 	0.06811 0.17212 0.64382 0.05000
C 	C 	0.00868 0.18464 0.65612 -0.10500
C 	C 	0.02271 0.21018 0.68100 0.00800
H 	H 	0.20464 0.21811 0.69113 0.04300
H 	H 	0.05737 0.15059 0.62490 0.03900
H 	H 	-0.02239 0.21852 0.69104 0.04400
C 	C 	0.75713 0.55150 1.02719 -0.00700
C 	C 	0.81570 0.53989 1.01470 0.00800
C 	C 	0.80478 0.51543 0.98973 -0.10500
C 	C 	0.73322 0.50363 0.97734 0.05000
C 	C 	0.67355 0.51563 0.98971 -0.10500
C 	C 	0.68708 0.54011 1.01468 0.00800
H 	H 	0.86878 0.54759 1.02481 0.04300
H 	H 	0.72283 0.48285 0.95835 0.03800
H 	H 	0.64176 0.54796 1.02477 0.04300
C 	C 	0.42582 0.88768 0.36028 -0.01500
C 	C 	0.35519 0.87504 0.34785 0.01100
C 	C 	0.34104 0.84917 0.32301 -0.10700
C 	C 	0.40067 0.83699 0.31068 0.05000
C 	C 	0.47277 0.84994 0.32300 -0.10700
C 	C 	0.48429 0.87581 0.34785 0.01000
H 	H 	0.30999 0.88317 0.35791 0.04200
H 	H 	0.38985 0.81519 0.29179 0.03800
H 	H 	0.53785 0.88453 0.35790 0.04100
C 	C 	0.09419 0.81969 0.69317 -0.00800
C 	C 	0.15226 0.89037 0.68078 0.01000
C 	C 	0.14033 0.90491 0.65599 -0.11200
C 	C 	0.06830 0.84566 0.64369 0.05200
C 	C 	0.00908 0.77356 0.65596 -0.10700
C 	C 	0.02358 0.76159 0.68075 0.00900
H 	H 	0.20579 0.93531 0.69082 0.04200
H 	H 	0.05720 0.85679 0.62484 0.03700
H 	H 	-0.02135 0.70801 0.69078 0.04200
C 	C 	0.75817 0.15298 1.02712 -0.00500
C 	C 	0.81655 0.22321 1.01463 0.00700
C 	C 	0.80521 0.23698 0.98971 -0.10400
C 	C 	0.73344 0.17737 0.97739 0.04800
C 	C 	0.67394 0.10565 0.98976 -0.09900
C 	C 	0.68787 0.09447 1.01468 0.00600
H 	H 	0.86985 0.26847 1.02469 0.04300
H 	H 	0.72276 0.18794 0.95844 0.04000
H 	H 	0.64269 0.04122 1.02478 0.04600
C 	C 	0.42639 0.48658 0.36025 -0.00600
C 	C 	0.48477 0.55694 0.34781 0.00800
C 	C 	0.47304 0.57139 0.32299 -0.10500
C 	C 	0.40083 0.51230 0.31071 0.05000
C 	C 	0.34128 0.44048 0.32304 -0.10500
C 	C 	0.35563 0.42866 0.34786 0.00800
H 	H 	0.53841 0.60175 0.35784 0.04400
H 	H 	0.38986 0.52336 0.29184 0.03900
H 	H 	0.31048 0.37532 0.35793 0.04300
C 	C 	0.69143 0.82077 0.69355 -0.00800
C 	C 	0.70377 0.76253 0.68113 0.00800
C 	C 	0.72963 0.77411 0.65627 -0.10600
C 	C 	0.74212 0.84602 0.64394 0.05100
C 	C 	0.72956 0.90544 0.65623 -0.11100
C 	C 	0.70369 0.89125 0.68109 0.00900
H 	H 	0.69538 0.70909 0.69118 0.04300
H 	H 	0.76386 0.85686 0.62505 0.03700
H 	H 	0.69525 0.93631 0.69111 0.04100
C 	C 	0.35963 0.15400 1.02761 -0.00500
C 	C 	0.37121 0.09537 1.01512 0.00600
C 	C 	0.39561 0.10619 0.99013 -0.09900
C 	C 	0.40741 0.17772 0.97772 0.04800
C 	C 	0.39549 0.23747 0.99006 -0.10300
C 	C 	0.37108 0.22406 1.01505 0.00700
H 	H 	0.36342 0.04225 1.02523 0.04500
H 	H 	0.42807 0.18799 0.95872 0.04000
H 	H 	0.36320 0.26941 1.02511 0.04400
C 	C 	0.02525 0.48716 0.35964 -0.01900
C 	C 	0.03758 0.55763 0.34720 0.02400
C 	C 	0.06399 0.57246 0.32234 -0.13500
C 	C 	0.07646 0.51262 0.31004 0.07200
C 	C 	0.06404 0.44039 0.32239 -0.13500
C 	C 	0.03765 0.42896 0.34725 0.02400
H 	H 	0.02867 0.60218 0.35737 0.03900
H 	H 	0.09810 0.52339 0.29113 0.03400
H 	H 	0.02879 0.37559 0.35746 0.04000
O 	O 	0.98954 0.40125 0.93105 -0.40800
O 	O 	0.85217 0.46766 0.95580 -0.40800
O 	O 	0.98971 0.53616 0.93116 -0.40900
O 	O 	0.85232 0.33230 0.95582 -0.40700
O 	O 	0.92630 0.36952 0.99019 -0.40900
O 	O 	1.06356 0.57337 0.96556 -0.40800
O 	O 	0.92604 0.50415 0.99020 -0.40900
O 	O 	1.06348 0.43790 0.96543 -0.40700
Cu	Cu	0.90676 0.42729 0.93644 0.94200
Cu	Cu	1.00904 0.47832 0.98486 0.94200
C 	C 	1.05081 0.40973 0.94351 0.37400
C 	C 	0.86476 0.49569 0.97774 0.37300
C 	C 	1.05096 0.58892 0.94365 0.37400
C 	C 	0.86502 0.31676 0.97773 0.37400
O 	O 	0.52059 0.80222 0.28916 -0.40800
O 	O 	0.65843 0.73587 0.26474 -0.40900
O 	O 	0.52066 0.66701 0.28917 -0.40700
O 	O 	0.65856 0.87120 0.26478 -0.40900
O 	O 	0.73201 0.90825 0.29925 -0.40800
O 	O 	0.59416 0.70399 0.32364 -0.40800
O 	O 	0.73195 0.77234 0.29920 -0.40800
O 	O 	0.59402 0.83862 0.32364 -0.40900
Cu	Cu	0.57568 0.76216 0.26990 0.94200
Cu	Cu	0.67717 0.81288 0.31844 0.94200
C 	C 	0.53287 0.83016 0.31110 0.37300
C 	C 	0.71936 0.74394 0.27731 0.37500
C 	C 	0.53302 0.65130 0.31110 0.37300
C 	C 	0.71950 0.92405 0.27735 0.36900
O 	O 	0.32443 0.06979 0.59756 -0.40800
O 	O 	0.18704 0.13613 0.62231 -0.40700
O 	O 	0.32443 0.20455 0.59761 -0.40900
O 	O 	0.18715 0.00066 0.62223 -0.40800
O 	O 	0.26106 0.03779 0.65661 -0.40800
O 	O 	0.39831 0.24175 0.63201 -0.40800
O 	O 	0.26089 0.17267 0.65671 -0.40800
O 	O 	0.39834 0.10638 0.63195 -0.40700
Cu	Cu	0.24155 0.09573 0.60292 0.94200
Cu	Cu	0.34378 0.14672 0.65134 0.94200
C 	C 	0.38568 0.07823 0.61003 0.37300
C 	C 	0.19967 0.16428 0.64423 0.37300
C 	C 	0.38569 0.25730 0.61009 0.37300
C 	C 	0.19989 -0.01501 0.64411 0.37900
O 	O 	0.33722 0.43783 0.96546 -0.40700
O 	O 	0.54111 0.50455 0.99015 -0.40900
O 	O 	0.47257 0.57339 0.96541 -0.40800
O 	O 	0.40635 0.36985 0.99037 -0.40800
O 	O 	0.44297 0.33235 0.95603 -0.40700
O 	O 	0.50910 0.53593 0.93104 -0.40800
O 	O 	0.57834 0.46775 0.95580 -0.40800
O 	O 	0.37441 0.40091 0.93111 -0.40900
Cu	Cu	0.43223 0.47857 0.98484 0.94200
Cu	Cu	0.48325 0.42708 0.93649 0.94200
C 	C 	0.32166 0.40951 0.94355 0.37300
C 	C 	0.59386 0.49596 0.97771 0.37400
C 	C 	0.50059 0.58878 0.94347 0.37300
C 	C 	0.41496 0.31702 0.97797 0.37300
O 	O 	0.17624 0.86966 0.26480 -0.40600
O 	O 	0.11022 0.66427 0.28902 -0.41000
O 	O 	0.04080 0.73524 0.26526 -0.44400
O 	O 	0.24529 0.80063 0.28919 -0.40800
O 	O 	0.20803 0.83675 0.32362 -0.41000
O 	O 	0.00490 0.76970 0.29839 -0.44400
O 	O 	0.07375 0.70104 0.32344 -0.41200
O 	O 	0.13939 0.90616 0.29926 -0.40500
Cu	Cu	0.14977 0.76037 0.27007 0.94300
Cu	Cu	0.09905 0.80993 0.31814 0.94300
C 	C 	0.16776 0.92233 0.27736 0.36400
C 	C 	0.08250 0.64825 0.31100 0.39100
C 	C 	-0.01004 0.74257 0.27738 0.44900
C 	C 	0.26096 0.82871 0.31111 0.37400
O 	O 	0.67217 0.10640 0.63191 -0.40700
O 	O 	0.87609 0.17319 0.65660 -0.40800
O 	O 	0.80751 0.24182 0.63172 -0.40700
O 	O 	0.74123 0.03821 0.65668 -0.40800
O 	O 	0.77783 0.00075 0.62233 -0.40700
O 	O 	0.84408 0.20436 0.59736 -0.40800
O 	O 	0.91328 0.13631 0.62225 -0.40700
O 	O 	0.70934 0.06950 0.59756 -0.40800
Cu	Cu	0.76724 0.14708 0.65123 0.94200
Cu	Cu	0.81824 0.09560 0.60288 0.94200
C 	C 	0.65658 0.07806 0.61002 0.37400
C 	C 	0.92885 0.16463 0.64415 0.37300
C 	C 	0.83550 0.25718 0.60978 0.37300
C 	C 	0.74965 -0.01469 0.64425 0.37800
O 	O 	0.47269 0.84722 0.96554 -0.40800
O 	O 	0.40664 0.98473 0.99052 -0.40900
O 	O 	0.33735 0.84736 0.96571 -0.40800
O 	O 	0.54137 0.98451 0.99030 -0.40900
O 	O 	0.57846 1.05853 0.95594 -0.40800
O 	O 	0.37452 0.92141 0.93135 -0.40900
O 	O 	0.44312 1.05870 0.95615 -0.40800
O 	O 	0.50918 0.92126 0.93118 -0.40900
Cu	Cu	0.43245 0.90176 0.98502 0.94100
Cu	Cu	0.48335 1.00420 0.93665 0.94200
C 	C 	0.50068 0.85988 0.94360 0.37300
C 	C 	0.41517 1.04610 0.97809 0.36700
C 	C 	0.32179 0.86007 0.94380 0.37400
C 	C 	0.59410 1.04580 0.97783 0.36800
O 	O 	0.13948 0.18207 0.29932 -0.40400
O 	O 	0.07387 0.32159 0.32354 -0.41200
O 	O 	0.00499 0.18395 0.29850 -0.44300
O 	O 	0.20817 0.32003 0.32370 -0.40900
O 	O 	0.24537 0.39341 0.28927 -0.40800
O 	O 	0.04091 0.25428 0.26538 -0.44400
O 	O 	0.11028 0.39474 0.28910 -0.41000
O 	O 	0.17634 0.25546 0.26487 -0.40600
Cu	Cu	0.09916 0.23795 0.31824 0.94300
Cu	Cu	0.14985 0.33822 0.27016 0.94300
C 	C 	0.16784 0.19429 0.27742 0.37000
C 	C 	0.08258 0.38309 0.31109 0.39100
C 	C 	-0.00992 0.19609 0.27749 0.45000
C 	C 	0.26110 0.38097 0.31118 0.37300
O 	O 	0.74138 0.65304 0.65675 -0.40800
O 	O 	0.80747 0.51556 0.63176 -0.40700
O 	O 	0.87626 0.65276 0.65656 -0.40900
O 	O 	0.67220 0.51569 0.63199 -0.40800
O 	O 	0.70929 0.58969 0.59763 -0.40900
O 	O 	0.91331 0.72680 0.62220 -0.40900
O 	O 	0.84395 0.58957 0.59739 -0.40800
O 	O 	0.77785 0.72700 0.62237 -0.40800
Cu	Cu	0.76732 0.57012 0.65128 0.94200
Cu	Cu	0.81816 0.67252 0.60290 0.94200
C 	C 	0.74975 0.71432 0.64430 0.37300
C 	C 	0.83541 0.52818 0.60981 0.37300
C 	C 	0.92902 0.71398 0.64407 0.37400
C 	C 	0.65658 0.52838 0.61009 0.37400
C 	C 	0.14845 0.33390 0.86795 -0.00900
C 	C 	0.14140 0.31964 0.84597 0.00200
C 	C 	0.13369 0.30386 0.81959 -0.00600
C 	C 	0.19004 0.36263 0.80297 -0.03500
C 	C 	0.18236 0.34736 0.77730 -0.03500
C 	C 	0.11818 0.27313 0.76790 -0.00700
C 	C 	0.06290 0.21570 0.78482 0.04600
C 	C 	0.07036 0.23052 0.80975 0.04600
C 	C 	0.11018 0.25678 0.74155 0.00100
C 	C 	0.10286 0.24194 0.71961 -0.00900
H 	H 	0.23984 0.42016 0.80980 0.04400
H 	H 	0.22642 0.39336 0.76486 0.04300
N 	N 	-0.00128 0.14239 0.77895 -0.10900
N 	N 	0.01188 0.16856 0.82293 -0.10900
C 	C 	0.43580 -0.09220 0.38637 0.00000
C 	C 	0.44329 -0.07709 0.40829 -0.00200
C 	C 	0.45152 -0.06043 0.43461 -0.00400
C 	C 	0.51538 0.01420 0.44390 -0.03500
C 	C 	0.52331 0.02976 0.46955 -0.03400
C 	C 	0.46753 -0.02911 0.48625 -0.00700
C 	C 	0.40451 -0.10285 0.47652 0.04700
C 	C 	0.39680 -0.11795 0.45162 0.04600
C 	C 	0.47550 -0.01303 0.51260 0.00200
C 	C 	0.48275 0.00150 0.53455 -0.00900
H 	H 	0.55900 0.06027 0.43139 0.04400
H 	H 	0.57285 0.08759 0.47630 0.04400
N 	N 	0.34657 -0.16495 0.48980 -0.10600
N 	N 	0.33299 -0.19163 0.44585 -0.10600
C 	C 	0.76634 0.56995 0.05339 -0.01000
C 	C 	0.77326 0.58373 0.07539 0.00100
C 	C 	0.78105 0.59900 0.10178 -0.00800
C 	C 	0.79989 0.67611 0.11135 -0.03500
C 	C 	0.80770 0.69139 0.13709 -0.03600
C 	C 	0.79690 0.63007 0.15411 -0.00700
C 	C 	0.77807 0.55357 0.14465 0.04700
C 	C 	0.77017 0.53813 0.11863 0.04700
C 	C 	0.80573 0.64676 0.18042 -0.00100
C 	C 	0.81370 0.66210 0.20233 -0.00800
H 	H 	0.80872 0.72489 0.09889 0.04100
H 	H 	0.82238 0.75154 0.14369 0.04200
N 	N 	0.76570 0.48791 0.15769 -0.10900
N 	N 	0.75216 0.46148 0.11321 -0.10900
C 	C 	0.10445 0.80937 0.71923 -0.00900
C 	C 	0.11204 0.80160 0.74112 -0.00100
C 	C 	0.12023 0.79301 0.76742 -0.00500
C 	C 	0.06818 0.80108 0.78442 -0.03600
C 	C 	0.07575 0.79340 0.81009 -0.03600
C 	C 	0.13572 0.77744 0.81975 -0.00500
C 	C 	0.19068 0.76886 0.80210 0.04500
C 	C 	0.18336 0.77623 0.77733 0.04500
C 	C 	0.14293 0.76935 0.84612 -0.00100
C 	C 	0.14956 0.76214 0.86810 -0.00900
H 	H 	0.02117 0.81351 0.77781 0.04200
H 	H 	0.03429 0.80003 0.82250 0.04200
N 	N 	0.25101 0.75370 0.80794 -0.10900
N 	N 	0.23802 0.76682 0.76397 -0.10900
C 	C 	0.48331 0.43064 0.53456 -0.00900
C 	C 	0.47608 0.43783 0.51261 0.00100
C 	C 	0.46790 0.44587 0.48627 -0.00700
C 	C 	0.51804 0.43572 0.46915 0.04600
C 	C 	0.51035 0.44300 0.44423 0.04600
C 	C 	0.45193 0.46092 0.43462 -0.00700
C 	C 	0.40082 0.47140 0.45143 -0.03500
C 	C 	0.40872 0.46390 0.47708 -0.03500
C 	C 	0.44394 0.46905 0.40827 0.00100
C 	C 	0.43647 0.47651 0.38634 -0.01000
N 	N 	0.57711 0.41844 0.47480 -0.10900
N 	N 	0.56356 0.43132 0.43084 -0.10900
H 	H 	0.35493 0.48538 0.44476 0.04200
H 	H 	0.36875 0.47216 0.48968 0.04200
C 	C 	0.76788 0.14349 0.05328 -0.00900
C 	C 	0.77524 0.13640 0.07523 0.00200
C 	C 	0.78350 0.12848 0.10157 -0.00800
C 	C 	0.79425 0.06572 0.11124 0.04800
C 	C 	0.80204 0.05827 0.13727 0.04700
C 	C 	0.79916 0.11346 0.15392 -0.00700
C 	C 	0.78827 0.17679 0.14415 -0.03500
C 	C 	0.78054 0.18415 0.11839 -0.03400
C 	C 	0.80752 0.10630 0.18029 0.00000
C 	C 	0.81504 0.09937 0.20224 -0.00700
N 	N 	0.79854 0.00718 0.09840 -0.10900
N 	N 	0.81192 -0.00555 0.14289 -0.10900
H 	H 	0.78575 0.22085 0.15645 0.04300
H 	H 	0.77219 0.23364 0.11162 0.04400
C 	C 	0.57615 0.76251 0.86789 -0.01000
C 	C 	0.59086 0.77015 0.84593 0.00100
C 	C 	0.60747 0.77884 0.81958 -0.00700
C 	C 	0.54751 0.72886 0.80236 0.04600
C 	C 	0.56290 0.73678 0.77746 0.04600
C 	C 	0.63939 0.79530 0.76794 -0.00700
C 	C 	0.70064 0.84638 0.78486 -0.03600
C 	C 	0.68479 0.83822 0.81050 -0.03600
C 	C 	0.65599 0.80332 0.74159 0.00000
C 	C 	0.67117 0.81074 0.71966 -0.01000
N 	N 	0.47110 0.66963 0.80789 -0.10900
N 	N 	0.49827 0.68358 0.76397 -0.10900
H 	H 	0.76060 0.89240 0.77829 0.04200
H 	H 	0.73281 0.87814 0.82317 0.04100
C 	C 	1.00487 0.47714 0.38575 -0.00400
C 	C 	0.98971 0.46985 0.40769 -0.00200
C 	C 	0.97321 0.46206 0.43406 -0.00500
C 	C 	1.03493 0.51242 0.45096 -0.03600
C 	C 	1.01918 0.50455 0.47661 -0.03500
C 	C 	0.94148 0.44617 0.48573 -0.00700
C 	C 	0.88106 0.39689 0.46852 0.04600
C 	C 	0.89636 0.40454 0.44360 0.04500
C 	C 	0.92498 0.43776 0.51209 0.00100
C 	C 	0.91038 0.43033 0.53406 -0.01000
H 	H 	1.09519 0.55767 0.44437 0.04300
H 	H 	1.06758 0.54391 0.48926 0.04200
N 	N 	0.80425 0.33865 0.47407 -0.10900
N 	N 	0.83125 0.35212 0.43014 -0.10900
C 	C 	0.24669 0.09789 0.20215 -0.01000
C 	C 	0.26178 0.10540 0.18021 0.00200
C 	C 	0.27816 0.11342 0.15383 -0.00700
C 	C 	0.21674 0.06233 0.13696 -0.03500
C 	C 	0.23240 0.07021 0.11131 -0.03500
C 	C 	0.30971 0.12932 0.10215 -0.00700
C 	C 	0.36982 0.17943 0.11933 0.04600
C 	C 	0.35460 0.17177 0.14425 0.04600
C 	C 	0.32617 0.13748 0.07578 0.00200
C 	C 	0.34065 0.14462 0.05381 -0.00900
H 	H 	0.15679 0.01648 0.14358 0.04300
H 	H 	0.18425 0.03023 0.09868 0.04300
N 	N 	0.44625 0.23846 0.11373 -0.10900
N 	N 	0.41940 0.22497 0.15768 -0.10900
S 	S 	0.41683 0.62249 0.78211 0.07900
S 	S 	-0.05374 0.09038 0.80446 0.07900
S 	S 	0.30000 0.74841 0.78234 0.08700
S 	S 	0.28118 0.75637 0.47143 0.06900
S 	S 	0.62437 0.41095 0.44910 0.08800
S 	S 	0.74947 0.29213 0.44831 0.08000
S 	S 	0.81197 -0.05746 0.11721 0.07900
S 	S 	0.74447 0.40691 0.13908 0.07800
S 	S 	0.50077 0.28571 0.13947 0.08800
