data_crystal

_cell_length_a 8.36610
_cell_length_b 29.13900
_cell_length_c 18.85830
_cell_angle_alpha 90.00000
_cell_angle_beta  94.30700
_cell_angle_gamma 90.00000

_symmetry_space_group_name_	'P 1'
_symmetry_space_group_name_H-M	'P 1'

loop_
_symmetry_equiv_pos_as_xyz
  x,y,z

loop_
_atom_site_label
_atom_site_type_symbol
_atom_site_fract_x
_atom_site_fract_y
_atom_site_fract_z
_atom_site_charge
Ni	Ni	0.02097 0.74354 0.72388 1.08600
N 	N 	0.21040 0.51525 0.45409 -0.24000
N 	N 	0.42040 0.55753 0.43398 -0.16200
N 	N 	0.82660 0.72767 0.26475 -0.22300
N 	N 	0.68580 0.68903 0.33822 -0.15900
N 	N 	0.89580 0.69150 0.67550 -0.22600
N 	N 	0.76360 0.65361 0.58925 -0.16600
O 	O 	0.87240 0.51214 0.40532 -0.40900
O 	O 	0.93280 0.58619 0.39258 -0.26700
O 	O 	0.10400 0.71040 0.81409 -0.40100
O 	O 	0.24520 0.70206 0.72174 -0.35500
O 	O 	0.98220 0.28660 0.86442 -0.36400
O 	O 	0.84220 0.30613 0.76658 -0.35600
C 	C 	0.59830 0.60444 0.51000 -0.29400
H 	H 	0.58200 0.58490 0.54780 0.13700
C 	C 	0.52800 0.59538 0.44313 0.24000
C 	C 	0.55350 0.62313 0.38544 -0.29000
H 	H 	0.50590 0.61670 0.34040 0.14200
C 	C 	0.65220 0.66066 0.39737 0.24800
C 	C 	0.72130 0.67163 0.46364 -0.29000
H 	H 	0.78510 0.69760 0.47030 0.14800
C 	C 	0.69390 0.64308 0.52023 0.24000
C 	C 	0.31120 0.54627 0.48035 0.10800
H 	H 	0.30800 0.55900 0.52540 -0.01900
C 	C 	0.25640 0.50606 0.38720 0.00300
H 	H 	0.20600 0.48520 0.35560 0.01200
C 	C 	0.38510 0.53166 0.37400 0.00800
H 	H 	0.43900 0.53180 0.33260 0.02900
C 	C 	0.83190 0.70413 0.32410 0.11400
H 	H 	0.92510 0.69860 0.35290 0.01000
C 	C 	0.57960 0.70424 0.28400 0.00300
H 	H 	0.46960 0.69910 0.27890 0.04600
C 	C 	0.66810 0.72812 0.23980 0.01300
H 	H 	0.62760 0.74280 0.19850 0.02800
C 	C 	0.85010 0.69056 0.60817 0.11900
H 	H 	0.87530 0.71340 0.57640 -0.00300
C 	C 	0.83880 0.65228 0.70180 0.01300
H 	H 	0.85280 0.64310 0.74910 0.03100
C 	C 	0.75940 0.62876 0.65010 0.01100
H 	H 	0.71000 0.60040 0.65470 0.02200
C 	C 	0.82680 0.54507 0.29140 -0.08900
C 	C 	0.79110 0.50282 0.26063 0.02000
H 	H 	0.79310 0.47660 0.28880 0.03800
C 	C 	0.75230 0.49926 0.18799 -0.09000
H 	H 	0.72730 0.47070 0.16820 0.06500
C 	C 	0.75020 0.53769 0.14431 0.02200
C 	C 	0.77960 0.57993 0.17613 -0.08400
H 	H 	0.77330 0.60640 0.14840 0.06700
C 	C 	0.81820 0.58347 0.24838 0.02100
H 	H 	0.83880 0.61220 0.26840 0.04600
C 	C 	0.71950 0.53332 0.06593 0.08600
C 	C 	0.76690 0.49371 0.03161 -0.15800
H 	H 	0.81660 0.47020 0.05840 0.08700
C 	C 	0.74160 0.48842 0.95826 0.08700
C 	C 	0.66790 0.52417 0.91915 -0.14200
H 	H 	0.65160 0.52130 0.87000 0.08100
C 	C 	0.61830 0.56382 0.95155 0.09700
C 	C 	0.64580 0.56819 0.02506 -0.16600
H 	H 	0.61440 0.59490 0.04720 0.08600
C 	C 	0.52550 0.59933 0.90928 0.01700
C 	C 	0.55040 0.60782 0.83830 -0.08400
H 	H 	0.63240 0.59260 0.81720 0.05900
C 	C 	0.45430 0.63865 0.79872 0.01200
H 	H 	0.47220 0.64380 0.75130 0.03900
C 	C 	0.33190 0.66189 0.82881 -0.08600
C 	C 	0.30810 0.65398 0.89950 0.01600
H 	H 	0.22650 0.66930 0.92060 0.04200
C 	C 	0.40420 0.62361 0.93894 -0.08700
H 	H 	0.38760 0.61920 0.98670 0.07200
C 	C 	0.22230 0.69317 0.78551 0.29900
C 	C 	0.78390 0.44478 0.92433 0.05200
C 	C 	0.69890 0.42945 0.86240 -0.11700
H 	H 	0.61760 0.44760 0.84100 0.07300
C 	C 	0.73360 0.38766 0.83220 0.05500
H 	H 	0.67580 0.37820 0.79070 0.02500
C 	C 	0.85300 0.35981 0.86291 -0.12400
C 	C 	0.93730 0.37438 0.92507 0.11400
H 	H 	0.01620 0.35570 0.94710 -0.01400
C 	C 	0.90470 0.41665 0.95453 -0.14000
H 	H 	0.96480 0.42630 0.99530 0.09900
C 	C 	0.89320 0.31541 0.82976 0.31200
C 	C 	0.88140 0.54836 0.36932 0.33400
Ni	Ni	0.97903 0.24354 0.77612 1.10900
N 	N 	0.78960 0.01525 0.04591 -0.22100
N 	N 	0.57960 0.05753 0.06602 -0.15500
N 	N 	0.17340 0.22767 0.23525 -0.24100
N 	N 	0.31420 0.18903 0.16178 -0.16000
N 	N 	0.10420 0.19150 0.82450 -0.24600
N 	N 	0.23640 0.15361 0.91075 -0.16700
O 	O 	0.12760 0.01214 0.09468 -0.43500
O 	O 	0.06720 0.08619 0.10742 -0.29100
O 	O 	0.89600 0.21040 0.68591 -0.37400
O 	O 	0.75480 0.20206 0.77826 -0.34100
O 	O 	0.01780 0.78660 0.63558 -0.39300
O 	O 	0.15780 0.80613 0.73342 -0.36200
C 	C 	0.40170 0.10444 0.99000 -0.26800
H 	H 	0.41800 0.08490 0.95220 0.13000
C 	C 	0.47200 0.09538 0.05687 0.21700
C 	C 	0.44650 0.12313 0.11456 -0.28100
H 	H 	0.49410 0.11670 0.15960 0.14200
C 	C 	0.34780 0.16066 0.10263 0.24700
C 	C 	0.27870 0.17163 0.03636 -0.31100
H 	H 	0.21490 0.19760 0.02970 0.14200
C 	C 	0.30610 0.14308 0.97977 0.25000
C 	C 	0.68880 0.04627 0.01965 0.07600
H 	H 	0.69200 0.05900 0.97460 0.01100
C 	C 	0.74360 0.00606 0.11280 -0.01400
H 	H 	0.79400 0.98520 0.14440 0.03900
C 	C 	0.61490 0.03166 0.12600 0.02100
H 	H 	0.56100 0.03180 0.16740 0.02500
C 	C 	0.16810 0.20413 0.17590 0.10900
H 	H 	0.07490 0.19860 0.14710 -0.01000
C 	C 	0.42040 0.20424 0.21600 0.00200
H 	H 	0.53040 0.19910 0.22110 0.04900
C 	C 	0.33190 0.22812 0.26020 0.01100
H 	H 	0.37240 0.24280 0.30150 0.02700
C 	C 	0.14990 0.19056 0.89183 0.11600
H 	H 	0.12470 0.21340 0.92360 -0.01400
C 	C 	0.16120 0.15228 0.79820 0.00900
H 	H 	0.14720 0.14310 0.75090 0.01600
C 	C 	0.24060 0.12876 0.84990 0.00500
H 	H 	0.29000 0.10040 0.84530 0.02100
C 	C 	0.17320 0.04507 0.20860 -0.07100
C 	C 	0.20890 0.00282 0.23937 -0.04600
H 	H 	0.20690 0.97660 0.21120 0.05700
C 	C 	0.24770 0.99926 0.31201 -0.03800
H 	H 	0.27270 0.97070 0.33180 0.04400
C 	C 	0.24980 0.03769 0.35569 -0.01200
C 	C 	0.22040 0.07993 0.32387 -0.06800
H 	H 	0.22670 0.10640 0.35160 0.05200
C 	C 	0.18180 0.08347 0.25162 -0.00800
H 	H 	0.16120 0.11220 0.23160 0.04700
C 	C 	0.28050 0.03332 0.43407 0.06400
C 	C 	0.23310 0.99371 0.46839 -0.13500
H 	H 	0.18340 0.97020 0.44160 0.07700
C 	C 	0.25840 0.98842 0.54174 0.08800
C 	C 	0.33210 0.02417 0.58085 -0.15700
H 	H 	0.34840 0.02130 0.63000 0.07900
C 	C 	0.38170 0.06382 0.54845 0.07100
C 	C 	0.35420 0.06819 0.47494 -0.14000
H 	H 	0.38560 0.09490 0.45280 0.07900
C 	C 	0.47450 0.09933 0.59072 0.01400
C 	C 	0.44960 0.10782 0.66170 -0.08200
H 	H 	0.36760 0.09260 0.68280 0.05200
C 	C 	0.54570 0.13865 0.70128 0.00500
H 	H 	0.52780 0.14380 0.74870 0.04300
C 	C 	0.66810 0.16189 0.67119 -0.07400
C 	C 	0.69190 0.15398 0.60050 0.00800
H 	H 	0.77350 0.16930 0.57940 0.05100
C 	C 	0.59580 0.12361 0.56106 -0.08300
H 	H 	0.61240 0.11920 0.51330 0.06400
C 	C 	0.77770 0.19317 0.71449 0.29400
C 	C 	0.21610 0.94478 0.57567 -0.02500
C 	C 	0.30110 0.92945 0.63760 -0.04900
H 	H 	0.38240 0.94760 0.65900 0.04800
C 	C 	0.26640 0.88766 0.66780 -0.03100
H 	H 	0.32420 0.87820 0.70930 0.05000
C 	C 	0.14700 0.85981 0.63709 -0.03200
C 	C 	0.06270 0.87438 0.57493 -0.11500
H 	H 	0.98380 0.85570 0.55290 0.11300
C 	C 	0.09530 0.91665 0.54547 -0.01400
H 	H 	0.03520 0.92630 0.50470 0.02700
C 	C 	0.10680 0.81541 0.67024 0.27000
C 	C 	0.11860 0.04836 0.13068 0.32300
Ni	Ni	0.97903 0.25646 0.27612 1.10900
N 	N 	0.78960 0.48475 0.54591 -0.22600
N 	N 	0.57960 0.44247 0.56602 -0.16100
N 	N 	0.17340 0.27233 0.73525 -0.24000
N 	N 	0.31420 0.31097 0.66178 -0.15900
N 	N 	0.10420 0.30850 0.32450 -0.24700
N 	N 	0.23640 0.34639 0.41075 -0.16700
O 	O 	0.12760 0.48786 0.59468 -0.43100
O 	O 	0.06720 0.41381 0.60742 -0.29100
O 	O 	0.89600 0.28960 0.18591 -0.37700
O 	O 	0.75480 0.29794 0.27826 -0.34300
O 	O 	0.01780 0.71340 0.13558 -0.39700
O 	O 	0.15780 0.69387 0.23342 -0.36400
C 	C 	0.40170 0.39556 0.49000 -0.29300
H 	H 	0.41800 0.41510 0.45220 0.13700
C 	C 	0.47200 0.40462 0.55687 0.24200
C 	C 	0.44650 0.37687 0.61456 -0.28700
H 	H 	0.49410 0.38330 0.65960 0.14500
C 	C 	0.34780 0.33934 0.60263 0.24600
C 	C 	0.27870 0.32837 0.53636 -0.28800
H 	H 	0.21490 0.30240 0.52970 0.14000
C 	C 	0.30610 0.35692 0.47977 0.23500
C 	C 	0.68880 0.45373 0.51965 0.11400
H 	H 	0.69200 0.44100 0.47460 -0.01200
C 	C 	0.74360 0.49394 0.61280 0.00900
H 	H 	0.79400 0.51480 0.64440 0.02500
C 	C 	0.61490 0.46834 0.62600 0.01300
H 	H 	0.56100 0.46820 0.66740 0.03000
C 	C 	0.16810 0.29587 0.67590 0.11000
H 	H 	0.07490 0.30140 0.64710 -0.00900
C 	C 	0.42040 0.29576 0.71600 0.00300
H 	H 	0.53040 0.30090 0.72110 0.04900
C 	C 	0.33190 0.27188 0.76020 0.01100
H 	H 	0.37240 0.25720 0.80150 0.02800
C 	C 	0.14990 0.30944 0.39183 0.11400
H 	H 	0.12470 0.28660 0.42360 -0.01700
C 	C 	0.16120 0.34772 0.29820 0.00900
H 	H 	0.14720 0.35690 0.25090 0.01500
C 	C 	0.24060 0.37124 0.34990 0.00300
H 	H 	0.29000 0.39960 0.34530 0.02100
C 	C 	0.17320 0.45493 0.70860 -0.11500
C 	C 	0.20890 0.49718 0.73937 0.03900
H 	H 	0.20690 0.52340 0.71120 0.02200
C 	C 	0.24770 0.50074 0.81201 -0.12400
H 	H 	0.27270 0.52930 0.83180 0.07300
C 	C 	0.24980 0.46231 0.85569 0.05500
C 	C 	0.22040 0.42007 0.82387 -0.12100
H 	H 	0.22670 0.39360 0.85160 0.07200
C 	C 	0.18180 0.41653 0.75162 0.04000
H 	H 	0.16120 0.38780 0.73160 0.03100
C 	C 	0.28050 0.46668 0.93407 0.01400
C 	C 	0.23310 0.50629 0.96839 -0.07300
H 	H 	0.18340 0.52980 0.94160 0.05700
C 	C 	0.25840 0.51158 0.04174 0.01800
C 	C 	0.33210 0.47583 0.08085 -0.09400
H 	H 	0.34840 0.47870 0.13000 0.06000
C 	C 	0.38170 0.43618 0.04845 0.00700
C 	C 	0.35420 0.43181 0.97494 -0.06900
H 	H 	0.38560 0.40510 0.95280 0.05900
C 	C 	0.47450 0.40067 0.09072 0.04300
C 	C 	0.44960 0.39218 0.16170 -0.10400
H 	H 	0.36760 0.40740 0.18280 0.06000
C 	C 	0.54570 0.36135 0.20128 0.02000
H 	H 	0.52780 0.35620 0.24870 0.03700
C 	C 	0.66810 0.33811 0.17119 -0.08700
C 	C 	0.69190 0.34602 0.10050 0.02300
H 	H 	0.77350 0.33070 0.07940 0.04200
C 	C 	0.59580 0.37639 0.06106 -0.10600
H 	H 	0.61240 0.38080 0.01330 0.06500
C 	C 	0.77770 0.30683 0.21449 0.29900
C 	C 	0.21610 0.55522 0.07567 0.00400
C 	C 	0.30110 0.57055 0.13760 -0.07300
H 	H 	0.38240 0.55240 0.15900 0.05500
C 	C 	0.26640 0.61234 0.16780 -0.01600
H 	H 	0.32420 0.62180 0.20930 0.04400
C 	C 	0.14700 0.64019 0.13709 -0.04500
C 	C 	0.06270 0.62562 0.07493 -0.10200
H 	H 	0.98380 0.64430 0.05290 0.10500
C 	C 	0.09530 0.58335 0.04547 -0.03800
H 	H 	0.03520 0.57370 0.00470 0.02900
C 	C 	0.10680 0.68459 0.17024 0.27400
C 	C 	0.11860 0.45164 0.63068 0.33900
Ni	Ni	0.02097 0.75646 0.22388 1.08600
N 	N 	0.21040 0.98475 0.95409 -0.24100
N 	N 	0.42040 0.94247 0.93398 -0.16700
N 	N 	0.82660 0.77233 0.76475 -0.22200
N 	N 	0.68580 0.81097 0.83822 -0.15800
N 	N 	0.89580 0.80850 0.17550 -0.22600
N 	N 	0.76360 0.84639 0.08925 -0.16500
O 	O 	0.87240 0.98786 0.90532 -0.40100
O 	O 	0.93280 0.91381 0.89258 -0.26600
O 	O 	0.10400 0.78960 0.31409 -0.40400
O 	O 	0.24520 0.79794 0.22174 -0.35700
O 	O 	0.98220 0.21340 0.36442 -0.36700
O 	O 	0.84220 0.19387 0.26658 -0.35800
C 	C 	0.59830 0.89556 0.01000 -0.31900
H 	H 	0.58200 0.91510 0.04780 0.14400
C 	C 	0.52800 0.90462 0.94313 0.26500
C 	C 	0.55350 0.87687 0.88544 -0.29700
H 	H 	0.50590 0.88330 0.84040 0.14500
C 	C 	0.65220 0.83934 0.89737 0.24700
C 	C 	0.72130 0.82837 0.96364 -0.26900
H 	H 	0.78510 0.80240 0.97030 0.14600
C 	C 	0.69390 0.85692 0.02023 0.22600
C 	C 	0.31120 0.95373 0.98035 0.14700
H 	H 	0.30800 0.94100 0.02540 -0.04200
C 	C 	0.25640 0.99394 0.88720 0.02600
H 	H 	0.20600 0.01480 0.85560 -0.00100
C 	C 	0.38510 0.96834 0.87400 0.00100
H 	H 	0.43900 0.96820 0.83260 0.03400
C 	C 	0.83190 0.79587 0.82410 0.11500
H 	H 	0.92510 0.80140 0.85290 0.01100
C 	C 	0.57960 0.79576 0.78400 0.00400
H 	H 	0.46960 0.80090 0.77890 0.04600
C 	C 	0.66810 0.77188 0.73980 0.01300
H 	H 	0.62760 0.75720 0.69850 0.03000
C 	C 	0.85010 0.80944 0.10817 0.11700
H 	H 	0.87530 0.78660 0.07640 -0.00700
C 	C 	0.83880 0.84772 0.20180 0.01300
H 	H 	0.85280 0.85690 0.24910 0.03100
C 	C 	0.75940 0.87124 0.15010 0.01000
H 	H 	0.71000 0.89960 0.15470 0.02300
C 	C 	0.82680 0.95493 0.79140 -0.13200
C 	C 	0.79110 0.99718 0.76063 0.10300
H 	H 	0.79310 0.02340 0.78880 0.00300
C 	C 	0.75230 0.00074 0.68799 -0.17500
H 	H 	0.72730 0.02930 0.66820 0.09400
C 	C 	0.75020 0.96231 0.64431 0.08700
C 	C 	0.77960 0.92007 0.67613 -0.13600
H 	H 	0.77330 0.89360 0.64840 0.08700
C 	C 	0.81820 0.91653 0.74838 0.06800
H 	H 	0.83880 0.88780 0.76840 0.03100
C 	C 	0.71950 0.96668 0.56593 0.03600
C 	C 	0.76690 0.00629 0.53161 -0.09700
H 	H 	0.81660 0.02980 0.55840 0.06800
C 	C 	0.74160 0.01158 0.45826 0.01700
C 	C 	0.66790 0.97583 0.41915 -0.08000
H 	H 	0.65160 0.97870 0.37000 0.06200
C 	C 	0.61830 0.93618 0.45155 0.03500
C 	C 	0.64580 0.93181 0.52506 -0.09500
H 	H 	0.61440 0.90510 0.54720 0.06600
C 	C 	0.52550 0.90067 0.40928 0.04600
C 	C 	0.55040 0.89218 0.33830 -0.10600
H 	H 	0.63240 0.90740 0.31720 0.06800
C 	C 	0.45430 0.86135 0.29872 0.02800
H 	H 	0.47220 0.85620 0.25130 0.03300
C 	C 	0.33190 0.83811 0.32881 -0.09900
C 	C 	0.30810 0.84602 0.39950 0.03100
H 	H 	0.22650 0.83070 0.42060 0.03300
C 	C 	0.40420 0.87639 0.43894 -0.11000
H 	H 	0.38760 0.88080 0.48670 0.07300
C 	C 	0.22230 0.80683 0.28551 0.30400
C 	C 	0.78390 0.05522 0.42433 0.08200
C 	C 	0.69890 0.07055 0.36240 -0.14200
H 	H 	0.61760 0.05240 0.34100 0.08000
C 	C 	0.73360 0.11234 0.33220 0.07100
H 	H 	0.67580 0.12180 0.29070 0.01900
C 	C 	0.85300 0.14019 0.36291 -0.13900
C 	C 	0.93730 0.12562 0.42507 0.13200
H 	H 	0.01620 0.14430 0.44710 -0.02500
C 	C 	0.90470 0.08335 0.45453 -0.16600
H 	H 	0.96480 0.07370 0.49530 0.10200
C 	C 	0.89320 0.18459 0.32976 0.31600
C 	C 	0.88140 0.95164 0.86932 0.34800
Ni	Ni	0.00000 0.50000 0.50000 1.05000
Ni	Ni	-0.00000 0.00000 -0.00000 1.03900
