data_crystal

_cell_length_a 30.90700
_cell_length_b 11.14470
_cell_length_c 7.43490
_cell_angle_alpha 90.00000
_cell_angle_beta  92.63000
_cell_angle_gamma 90.00000

_symmetry_space_group_name_	'P 1'
_symmetry_space_group_name_H-M	'P 1'

loop_
_symmetry_equiv_pos_as_xyz
  x,y,z

loop_
_atom_site_label
_atom_site_type_symbol
_atom_site_fract_x
_atom_site_fract_y
_atom_site_fract_z
_atom_site_charge
Mo	Mo	0.79131 0.98501 0.82655 1.24500
Mo	Mo	0.90937 0.97686 0.76878 1.16600
O 	O 	0.76508 0.86450 0.71890 -0.49100
O 	O 	0.75141 0.09600 0.84580 -0.47800
O 	O 	0.79812 0.93950 0.05160 -0.45500
O 	O 	0.85226 0.93370 0.77360 -0.46200
O 	O 	0.90917 0.04320 0.55240 -0.52200
O 	O 	0.96093 0.07490 0.85210 -0.56400
N 	N 	0.89721 0.63370 0.00820 -0.21600
N 	N 	0.81898 0.25970 0.93790 -0.18300
N 	N 	0.83352 0.15180 0.88940 -0.11600
N 	N 	0.87535 0.15710 0.86460 -0.10400
N 	N 	0.88945 0.26640 0.89430 -0.17700
H 	H 	0.91550 0.29270 0.88740 0.07400
C 	C 	0.85560 0.45800 0.96530 -0.14700
C 	C 	0.89527 0.51230 0.99740 0.16200
H 	H 	0.92030 0.46640 0.01140 -0.08000
C 	C 	0.86158 0.70220 0.99280 0.17700
H 	H 	0.86410 0.78510 0.00300 -0.03700
C 	C 	0.82189 0.65200 0.96230 -0.20100
H 	H 	0.79720 0.69950 0.95150 0.12400
C 	C 	0.81905 0.52690 0.94730 0.11000
H 	H 	0.79220 0.49060 0.92510 -0.00100
C 	C 	0.85434 0.32810 0.93770 0.18000
Mo	Mo	0.29131 0.48501 0.82655 1.24700
Mo	Mo	0.40937 0.47686 0.76878 1.16500
O 	O 	0.26508 0.36450 0.71890 -0.49000
O 	O 	0.25141 0.59600 0.84580 -0.48200
O 	O 	0.29812 0.43950 0.05160 -0.46300
O 	O 	0.35226 0.43370 0.77360 -0.46100
O 	O 	0.40917 0.54320 0.55240 -0.52400
O 	O 	0.46093 0.57490 0.85210 -0.58300
N 	N 	0.39721 0.13370 0.00820 -0.23500
N 	N 	0.31898 0.75970 0.93790 -0.18600
N 	N 	0.33352 0.65180 0.88940 -0.11700
N 	N 	0.37535 0.65710 0.86460 -0.10500
N 	N 	0.38945 0.76640 0.89430 -0.17800
H 	H 	0.41550 0.79270 0.88740 0.06900
C 	C 	0.35560 0.95800 0.96530 -0.16600
C 	C 	0.39527 0.01230 0.99740 0.17300
H 	H 	0.42030 0.96640 0.01140 -0.08100
C 	C 	0.36158 0.20220 0.99280 0.21700
H 	H 	0.36410 0.28510 0.00300 -0.05800
C 	C 	0.32189 0.15200 0.96230 -0.23200
H 	H 	0.29720 0.19950 0.95150 0.13700
C 	C 	0.31905 0.02690 0.94730 0.13800
H 	H 	0.29220 0.99060 0.92510 -0.01300
C 	C 	0.35434 0.82810 0.93770 0.18300
Mo	Mo	0.20869 0.98501 0.67345 1.24100
Mo	Mo	0.09063 0.97686 0.73122 1.15900
O 	O 	0.23492 0.86450 0.78110 -0.48700
O 	O 	0.24859 0.09600 0.65420 -0.49300
O 	O 	0.20188 0.93950 0.44840 -0.44200
O 	O 	0.14774 0.93370 0.72640 -0.46600
O 	O 	0.09083 0.04320 0.94760 -0.51200
O 	O 	0.03907 0.07490 0.64790 -0.60200
N 	N 	0.10279 0.63370 0.49180 -0.16200
N 	N 	0.18102 0.25970 0.56210 -0.18500
N 	N 	0.16648 0.15180 0.61060 -0.12100
N 	N 	0.12465 0.15710 0.63540 -0.10900
N 	N 	0.11055 0.26640 0.60570 -0.17000
H 	H 	0.08450 0.29270 0.61260 0.05800
C 	C 	0.14440 0.45800 0.53470 -0.08500
C 	C 	0.10473 0.51230 0.50260 0.05500
H 	H 	0.07970 0.46640 0.48860 -0.03000
C 	C 	0.13842 0.70220 0.50720 0.06500
H 	H 	0.13590 0.78510 0.49700 0.01800
C 	C 	0.17811 0.65200 0.53770 -0.11500
H 	H 	0.20280 0.69950 0.54850 0.08800
C 	C 	0.18095 0.52690 0.55270 0.04000
H 	H 	0.20780 0.49060 0.57490 0.01900
C 	C 	0.14566 0.32810 0.56230 0.15300
Mo	Mo	0.70869 0.48501 0.67345 1.24000
Mo	Mo	0.59063 0.47686 0.73122 1.16100
O 	O 	0.73492 0.36450 0.78110 -0.48400
O 	O 	0.74859 0.59600 0.65420 -0.49300
O 	O 	0.70188 0.43950 0.44840 -0.44600
O 	O 	0.64774 0.43370 0.72640 -0.46500
O 	O 	0.59083 0.54320 0.94760 -0.51000
O 	O 	0.53907 0.57490 0.64790 -0.59100
N 	N 	0.60279 0.13370 0.49180 -0.15400
N 	N 	0.68102 0.75970 0.56210 -0.18400
N 	N 	0.66648 0.65180 0.61060 -0.12000
N 	N 	0.62465 0.65710 0.63540 -0.10900
N 	N 	0.61055 0.76640 0.60570 -0.16900
H 	H 	0.58450 0.79270 0.61260 0.06100
C 	C 	0.64440 0.95800 0.53470 -0.05800
C 	C 	0.60473 0.01230 0.50260 0.02800
H 	H 	0.57970 0.96640 0.48860 -0.01300
C 	C 	0.63842 0.20220 0.50720 0.05400
H 	H 	0.63590 0.28510 0.49700 0.02200
C 	C 	0.67811 0.15200 0.53770 -0.09500
H 	H 	0.70280 0.19950 0.54850 0.08100
C 	C 	0.68095 0.02690 0.55270 0.00900
H 	H 	0.70780 0.99060 0.57490 0.03200
C 	C 	0.64566 0.82810 0.56230 0.14500
Mo	Mo	0.20869 0.01499 0.17345 1.22700
Mo	Mo	0.09063 0.02314 0.23122 1.14600
O 	O 	0.23492 0.13550 0.28110 -0.50100
O 	O 	0.24859 0.90400 0.15420 -0.49700
O 	O 	0.20188 0.06050 0.94840 -0.42700
O 	O 	0.14774 0.06630 0.22640 -0.48400
O 	O 	0.09083 0.95680 0.44760 -0.52100
O 	O 	0.03907 0.92510 0.14790 -0.60600
N 	N 	0.10279 0.36630 0.99180 -0.09300
N 	N 	0.18102 0.74030 0.06210 -0.18500
N 	N 	0.16648 0.84820 0.11060 -0.12300
N 	N 	0.12465 0.84290 0.13540 -0.11100
N 	N 	0.11055 0.73360 0.10570 -0.16400
H 	H 	0.08450 0.70730 0.11260 0.04900
C 	C 	0.14440 0.54200 0.03470 -0.01500
C 	C 	0.10473 0.48770 0.00260 -0.06800
H 	H 	0.07970 0.53360 0.98860 0.03300
C 	C 	0.13842 0.29780 0.00720 -0.08900
H 	H 	0.13590 0.21490 0.99700 0.09100
C 	C 	0.17811 0.34800 0.03770 -0.00700
H 	H 	0.20280 0.30050 0.04850 0.03800
C 	C 	0.18095 0.47310 0.05270 -0.05400
H 	H 	0.20780 0.50940 0.07490 0.04600
C 	C 	0.14566 0.67190 0.06230 0.11800
Mo	Mo	0.70869 0.51499 0.17345 1.23300
Mo	Mo	0.59063 0.52314 0.23122 1.15300
O 	O 	0.73492 0.63550 0.28110 -0.50000
O 	O 	0.74859 0.40400 0.15420 -0.50400
O 	O 	0.70188 0.56050 0.94840 -0.43000
O 	O 	0.64774 0.56630 0.22640 -0.47900
O 	O 	0.59083 0.45680 0.44760 -0.52300
O 	O 	0.53907 0.42510 0.14790 -0.60300
N 	N 	0.60279 0.86630 0.99180 -0.11900
N 	N 	0.68102 0.24030 0.06210 -0.19100
N 	N 	0.66648 0.34820 0.11060 -0.12600
N 	N 	0.62465 0.34290 0.13540 -0.11300
N 	N 	0.61055 0.23360 0.10570 -0.17100
H 	H 	0.58450 0.20730 0.11260 0.05200
C 	C 	0.64440 0.04200 0.03470 -0.09500
C 	C 	0.60473 0.98770 0.00260 -0.00000
H 	H 	0.57970 0.03360 0.98860 0.01600
C 	C 	0.63842 0.79780 0.00720 -0.02500
H 	H 	0.63590 0.71490 0.99700 0.06500
C 	C 	0.67811 0.84800 0.03770 -0.08300
H 	H 	0.70280 0.80050 0.04850 0.06800
C 	C 	0.68095 0.97310 0.05270 0.04900
H 	H 	0.70780 0.00940 0.07490 0.00100
C 	C 	0.64566 0.17190 0.06230 0.14100
Mo	Mo	0.79131 0.01499 0.32655 1.23600
Mo	Mo	0.90937 0.02314 0.26878 1.15300
O 	O 	0.76508 0.13550 0.21890 -0.50200
O 	O 	0.75141 0.90400 0.34580 -0.49200
O 	O 	0.79812 0.06050 0.55160 -0.44700
O 	O 	0.85226 0.06630 0.27360 -0.47900
O 	O 	0.90917 0.95680 0.05240 -0.52500
O 	O 	0.96093 0.92510 0.35210 -0.57100
N 	N 	0.89721 0.36630 0.50820 -0.15800
N 	N 	0.81898 0.74030 0.43790 -0.18700
N 	N 	0.83352 0.84820 0.38940 -0.12000
N 	N 	0.87535 0.84290 0.36460 -0.10700
N 	N 	0.88945 0.73360 0.39430 -0.17200
H 	H 	0.91550 0.70730 0.38740 0.06500
C 	C 	0.85560 0.54200 0.46530 -0.08700
C 	C 	0.89527 0.48770 0.49740 0.04900
H 	H 	0.92030 0.53360 0.51140 -0.01900
C 	C 	0.86158 0.29780 0.49280 0.05900
H 	H 	0.86410 0.21490 0.50300 0.01900
C 	C 	0.82189 0.34800 0.46230 -0.11600
H 	H 	0.79720 0.30050 0.45150 0.08600
C 	C 	0.81905 0.47310 0.44730 0.03200
H 	H 	0.79220 0.50940 0.42510 0.01900
C 	C 	0.85434 0.67190 0.43770 0.14800
Mo	Mo	0.29131 0.51499 0.32655 1.23900
Mo	Mo	0.40937 0.52314 0.26878 1.15700
O 	O 	0.26508 0.63550 0.21890 -0.50000
O 	O 	0.25141 0.40400 0.34580 -0.49600
O 	O 	0.29812 0.56050 0.55160 -0.44700
O 	O 	0.35226 0.56630 0.27360 -0.47400
O 	O 	0.40917 0.45680 0.05240 -0.53700
O 	O 	0.46093 0.42510 0.35210 -0.59400
N 	N 	0.39721 0.86630 0.50820 -0.16900
N 	N 	0.31898 0.24030 0.43790 -0.18900
N 	N 	0.33352 0.34820 0.38940 -0.12200
N 	N 	0.37535 0.34290 0.36460 -0.10900
N 	N 	0.38945 0.23360 0.39430 -0.17400
H 	H 	0.41550 0.20730 0.38740 0.06000
C 	C 	0.35560 0.04200 0.46530 -0.12600
C 	C 	0.39527 0.98770 0.49740 0.08400
H 	H 	0.42030 0.03360 0.51140 -0.03900
C 	C 	0.36158 0.79780 0.49280 0.07700
H 	H 	0.36410 0.71490 0.50300 0.01200
C 	C 	0.32189 0.84800 0.46230 -0.14600
H 	H 	0.29720 0.80050 0.45150 0.09700
C 	C 	0.31905 0.97310 0.44730 0.08100
H 	H 	0.29220 0.00940 0.42510 -0.00300
C 	C 	0.35434 0.17190 0.43770 0.15800
Mo	Mo	-0.00000 0.16931 0.75000 1.03000
Mo	Mo	0.50000 0.66931 0.75000 1.04700
Mo	Mo	0.00000 0.83069 0.25000 1.02500
Mo	Mo	0.50000 0.33069 0.25000 1.04100
Co	Co	0.75000 0.25000 -0.00000 1.16600
Co	Co	0.25000 0.25000 0.50000 1.18000
Co	Co	0.25000 0.75000 -0.00000 1.17000
Co	Co	0.75000 0.75000 0.50000 1.18000
