data_crystal

_cell_length_a 31.11900
_cell_length_b 11.29840
_cell_length_c 7.49160
_cell_angle_alpha 90.00000
_cell_angle_beta  92.83900
_cell_angle_gamma 90.00000

_symmetry_space_group_name_	'P 1'
_symmetry_space_group_name_H-M	'P 1'

loop_
_symmetry_equiv_pos_as_xyz
  x,y,z

loop_
_atom_site_label
_atom_site_type_symbol
_atom_site_fract_x
_atom_site_fract_y
_atom_site_fract_z
_atom_site_charge
Mo	Mo	0.79317 0.48500 0.32829 1.23800
Mo	Mo	0.91051 0.47766 0.26989 1.15500
O 	O 	0.75290 0.59320 0.34100 -0.51300
O 	O 	0.76700 0.36460 0.22650 -0.51800
O 	O 	0.80030 0.55540 0.05370 -0.47200
O 	O 	0.85390 0.43600 0.27610 -0.47900
O 	O 	0.91050 0.54120 0.05260 -0.53600
O 	O 	0.96140 0.57590 0.35490 -0.57100
N 	N 	0.89820 0.13510 0.50280 -0.16000
N 	N 	0.82160 0.76160 0.43300 -0.19600
N 	N 	0.83580 0.65350 0.38770 -0.12200
N 	N 	0.87720 0.65780 0.36360 -0.10800
N 	N 	0.89140 0.76690 0.38740 -0.17200
H 	H 	0.91710 0.79270 0.37650 0.06300
C 	C 	0.85750 0.95850 0.45640 -0.11100
C 	C 	0.89660 0.01360 0.48730 0.06500
H 	H 	0.92180 0.96920 0.49760 -0.02600
C 	C 	0.86220 0.20140 0.49040 0.06100
H 	H 	0.86390 0.28320 0.50330 0.01700
C 	C 	0.82280 0.14760 0.45850 -0.13100
H 	H 	0.79780 0.19290 0.44840 0.08700
C 	C 	0.82050 0.02500 0.44140 0.06000
H 	H 	0.79410 0.98810 0.41990 -0.00100
C 	C 	0.85660 0.82940 0.43260 0.14800
Mo	Mo	0.29317 0.98500 0.32829 1.23700
Mo	Mo	0.41051 0.97766 0.26989 1.14900
O 	O 	0.25290 0.09320 0.34100 -0.51000
O 	O 	0.26700 0.86460 0.22650 -0.51900
O 	O 	0.30030 0.05540 0.05370 -0.46500
O 	O 	0.35390 0.93600 0.27610 -0.48300
O 	O 	0.41050 0.04120 0.05260 -0.53400
O 	O 	0.46140 0.07590 0.35490 -0.58700
N 	N 	0.39820 0.63510 0.50280 -0.15800
N 	N 	0.32160 0.26160 0.43300 -0.19400
N 	N 	0.33580 0.15350 0.38770 -0.12000
N 	N 	0.37720 0.15780 0.36360 -0.10800
N 	N 	0.39140 0.26690 0.38740 -0.16900
H 	H 	0.41710 0.29270 0.37650 0.05700
C 	C 	0.35750 0.45850 0.45640 -0.08400
C 	C 	0.39660 0.51360 0.48730 0.04000
H 	H 	0.42180 0.46920 0.49760 -0.02100
C 	C 	0.36220 0.70140 0.49040 0.04700
H 	H 	0.36390 0.78320 0.50330 0.02100
C 	C 	0.32280 0.64760 0.45850 -0.10900
H 	H 	0.29780 0.69290 0.44840 0.07900
C 	C 	0.32050 0.52500 0.44140 0.02400
H 	H 	0.29410 0.48810 0.41990 0.01500
C 	C 	0.35660 0.32940 0.43260 0.13900
Mo	Mo	0.20683 0.48500 0.17171 1.23000
Mo	Mo	0.08949 0.47766 0.23011 1.14700
O 	O 	0.24710 0.59320 0.15900 -0.52500
O 	O 	0.23300 0.36460 0.27350 -0.51800
O 	O 	0.19970 0.55540 0.44630 -0.44900
O 	O 	0.14610 0.43600 0.22390 -0.48600
O 	O 	0.08950 0.54120 0.44740 -0.52300
O 	O 	0.03860 0.57590 0.14510 -0.61000
N 	N 	0.10180 0.13510 0.99720 -0.11100
N 	N 	0.17840 0.76160 0.06700 -0.20000
N 	N 	0.16420 0.65350 0.11230 -0.12700
N 	N 	0.12280 0.65780 0.13640 -0.11400
N 	N 	0.10860 0.76690 0.11260 -0.17000
H 	H 	0.08290 0.79270 0.12350 0.05200
C 	C 	0.14250 0.95850 0.04360 -0.10500
C 	C 	0.10340 0.01360 0.01270 0.04400
H 	H 	0.07820 0.96920 0.00240 -0.04300
C 	C 	0.13780 0.20140 0.00960 -0.07100
H 	H 	0.13610 0.28320 0.99670 0.08700
C 	C 	0.17720 0.14760 0.04150 -0.06200
H 	H 	0.20220 0.19290 0.05160 0.05300
C 	C 	0.17950 0.02500 0.05860 0.03400
H 	H 	0.20590 0.98810 0.08010 0.00100
C 	C 	0.14340 0.82940 0.06740 0.13900
Mo	Mo	0.70683 0.98500 0.17171 1.22500
Mo	Mo	0.58949 0.97766 0.23011 1.14400
O 	O 	0.74710 0.09320 0.15900 -0.51800
O 	O 	0.73300 0.86460 0.27350 -0.51900
O 	O 	0.69970 0.05540 0.44630 -0.44600
O 	O 	0.64610 0.93600 0.22390 -0.49000
O 	O 	0.58950 0.04120 0.44740 -0.51700
O 	O 	0.53860 0.07590 0.14510 -0.59700
N 	N 	0.60180 0.63510 0.99720 -0.08000
N 	N 	0.67840 0.26160 0.06700 -0.19400
N 	N 	0.66420 0.15350 0.11230 -0.12400
N 	N 	0.62280 0.15780 0.13640 -0.11200
N 	N 	0.60860 0.26690 0.11260 -0.16500
H 	H 	0.58290 0.29270 0.12350 0.05300
C 	C 	0.64250 0.45850 0.04360 -0.02900
C 	C 	0.60340 0.51360 0.01270 -0.03100
H 	H 	0.57820 0.46920 0.00240 -0.00700
C 	C 	0.63780 0.70140 0.00960 -0.12900
H 	H 	0.63610 0.78320 0.99670 0.11300
C 	C 	0.67720 0.64760 0.04150 0.00700
H 	H 	0.70220 0.69290 0.05160 0.02600
C 	C 	0.67950 0.52500 0.05860 -0.06000
H 	H 	0.70590 0.48810 0.08010 0.04100
C 	C 	0.64340 0.32940 0.06740 0.11800
Mo	Mo	0.20683 0.51500 0.67171 1.24000
Mo	Mo	0.08949 0.52234 0.73011 1.15900
O 	O 	0.24710 0.40680 0.65900 -0.50900
O 	O 	0.23300 0.63540 0.77350 -0.49700
O 	O 	0.19970 0.44460 0.94630 -0.42700
O 	O 	0.14610 0.56400 0.72390 -0.46600
O 	O 	0.08950 0.45880 0.94740 -0.50400
O 	O 	0.03860 0.42410 0.64510 -0.59500
N 	N 	0.10180 0.86490 0.49720 -0.15400
N 	N 	0.17840 0.23840 0.56700 -0.19100
N 	N 	0.16420 0.34650 0.61230 -0.12000
N 	N 	0.12280 0.34220 0.63640 -0.10800
N 	N 	0.10860 0.23310 0.61260 -0.16700
H 	H 	0.08290 0.20730 0.62350 0.05800
C 	C 	0.14250 0.04150 0.54360 -0.06600
C 	C 	0.10340 0.98640 0.51270 0.03500
H 	H 	0.07820 0.03080 0.50240 -0.01900
C 	C 	0.13780 0.79860 0.50960 0.05100
H 	H 	0.13610 0.71680 0.49670 0.02200
C 	C 	0.17720 0.85240 0.54150 -0.09700
H 	H 	0.20220 0.80710 0.55160 0.07800
C 	C 	0.17950 0.97500 0.55860 0.01800
H 	H 	0.20590 0.01190 0.58010 0.02300
C 	C 	0.14340 0.17060 0.56740 0.14200
Mo	Mo	0.70683 0.01500 0.67171 1.24100
Mo	Mo	0.58949 0.02234 0.73011 1.16000
O 	O 	0.74710 0.90680 0.65900 -0.50900
O 	O 	0.73300 0.13540 0.77350 -0.50000
O 	O 	0.69970 0.94460 0.94630 -0.42400
O 	O 	0.64610 0.06400 0.72390 -0.46700
O 	O 	0.58950 0.95880 0.94740 -0.50000
O 	O 	0.53860 0.92410 0.64510 -0.58800
N 	N 	0.60180 0.36490 0.49720 -0.15500
N 	N 	0.67840 0.73840 0.56700 -0.19100
N 	N 	0.66420 0.84650 0.61230 -0.12000
N 	N 	0.62280 0.84220 0.63640 -0.10800
N 	N 	0.60860 0.73310 0.61260 -0.16800
H 	H 	0.58290 0.70730 0.62350 0.06100
C 	C 	0.64250 0.54150 0.54360 -0.08000
C 	C 	0.60340 0.48640 0.51270 0.04900
H 	H 	0.57820 0.53080 0.50240 -0.02200
C 	C 	0.63780 0.29860 0.50960 0.05600
H 	H 	0.63610 0.21680 0.49670 0.02100
C 	C 	0.67720 0.35240 0.54150 -0.10700
H 	H 	0.70220 0.30710 0.55160 0.08100
C 	C 	0.67950 0.47500 0.55860 0.03400
H 	H 	0.70590 0.51190 0.58010 0.01700
C 	C 	0.64340 0.67060 0.56740 0.14800
Mo	Mo	0.79317 0.51500 0.82829 1.25000
Mo	Mo	0.91051 0.52234 0.76989 1.16700
O 	O 	0.75290 0.40680 0.84100 -0.49400
O 	O 	0.76700 0.63540 0.72650 -0.50400
O 	O 	0.80030 0.44460 0.55370 -0.45000
O 	O 	0.85390 0.56400 0.77610 -0.46000
O 	O 	0.91050 0.45880 0.55260 -0.51700
O 	O 	0.96140 0.42410 0.85490 -0.55600
N 	N 	0.89820 0.86490 0.00280 -0.23700
N 	N 	0.82160 0.23840 0.93300 -0.19000
N 	N 	0.83580 0.34650 0.88770 -0.11400
N 	N 	0.87720 0.34220 0.86360 -0.10300
N 	N 	0.89140 0.23310 0.88740 -0.17500
H 	H 	0.91710 0.20730 0.87650 0.07100
C 	C 	0.85750 0.04150 0.95640 -0.15500
C 	C 	0.89660 0.98640 0.98730 0.14100
H 	H 	0.92180 0.03080 0.99760 -0.04000
C 	C 	0.86220 0.79860 0.99040 0.24000
H 	H 	0.86390 0.71680 0.00330 -0.07300
C 	C 	0.82280 0.85240 0.95850 -0.23700
H 	H 	0.79780 0.80710 0.94840 0.13800
C 	C 	0.82050 0.97500 0.94140 0.14100
H 	H 	0.79410 0.01190 0.91990 -0.01800
C 	C 	0.85660 0.17060 0.93260 0.17500
Mo	Mo	0.29317 0.01500 0.82829 1.24800
Mo	Mo	0.41051 0.02234 0.76989 1.16400
O 	O 	0.25290 0.90680 0.84100 -0.49000
O 	O 	0.26700 0.13540 0.72650 -0.50500
O 	O 	0.30030 0.94460 0.55370 -0.45000
O 	O 	0.35390 0.06400 0.77610 -0.46200
O 	O 	0.41050 0.95880 0.55260 -0.52200
O 	O 	0.46140 0.92410 0.85490 -0.57400
N 	N 	0.39820 0.36490 0.00280 -0.22300
N 	N 	0.32160 0.73840 0.93300 -0.18600
N 	N 	0.33580 0.84650 0.88770 -0.11300
N 	N 	0.37720 0.84220 0.86360 -0.10300
N 	N 	0.39140 0.73310 0.88740 -0.17200
H 	H 	0.41710 0.70730 0.87650 0.06600
C 	C 	0.35750 0.54150 0.95640 -0.12400
C 	C 	0.39660 0.48640 0.98730 0.10900
H 	H 	0.42180 0.53080 0.99760 -0.03200
C 	C 	0.36220 0.29860 0.99040 0.20200
H 	H 	0.36390 0.21680 0.00330 -0.05600
C 	C 	0.32280 0.35240 0.95850 -0.20300
H 	H 	0.29780 0.30710 0.94840 0.12400
C 	C 	0.32050 0.47500 0.94140 0.10300
H 	H 	0.29410 0.51190 0.91990 -0.00200
C 	C 	0.35660 0.67060 0.93260 0.16600
Mo	Mo	0.00000 0.66933 0.25000 1.02200
Mo	Mo	0.50000 0.16933 0.25000 1.03900
Mo	Mo	0.00000 0.33067 0.75000 1.02800
Mo	Mo	0.50000 0.83067 0.75000 1.04400
Mn	Mn	0.75000 0.75000 0.50000 1.29800
Mn	Mn	0.25000 0.75000 -0.00000 1.28000
Mn	Mn	0.25000 0.25000 0.50000 1.29800
Mn	Mn	0.75000 0.25000 -0.00000 1.28400
