data_crystal

_cell_length_a 7.36200
_cell_length_b 12.94600
_cell_length_c 13.62800
_cell_angle_alpha 90.00000
_cell_angle_beta  91.31200
_cell_angle_gamma 90.00000

_symmetry_space_group_name_	'P 1'
_symmetry_space_group_name_H-M	'P 1'

loop_
_symmetry_equiv_pos_as_xyz
  x,y,z

loop_
_atom_site_label
_atom_site_type_symbol
_atom_site_fract_x
_atom_site_fract_y
_atom_site_fract_z
_atom_site_charge
Zn	Zn	0.50024 0.25000 0.08624 1.16800
Zn	Zn	0.49976 0.75000 0.91376 1.19900
Ni	Ni	-0.00000 0.00000 -0.00000 0.91900
Ni	Ni	0.00000 0.50000 -0.00000 0.94600
H 	H 	0.52110 0.40440 0.90970 0.03000
H 	H 	0.56360 0.40350 0.74120 0.06500
H 	H 	0.45870 0.40480 0.43370 0.10200
H 	H 	0.50470 0.40270 0.26510 -0.02600
H 	H 	0.47890 0.90440 0.09030 -0.00700
H 	H 	0.43640 0.90350 0.25880 0.06800
H 	H 	0.54130 0.90480 0.56630 0.12900
H 	H 	0.49530 0.90270 0.73490 -0.01300
H 	H 	0.47890 0.59560 0.09030 -0.02200
H 	H 	0.43640 0.59650 0.25880 0.05200
H 	H 	0.54130 0.59520 0.56630 0.11500
H 	H 	0.49530 0.59730 0.73490 -0.02600
H 	H 	0.52110 0.09560 0.90970 0.01600
H 	H 	0.56360 0.09650 0.74120 0.04900
H 	H 	0.45870 0.09520 0.43370 0.08700
H 	H 	0.50470 0.09730 0.26510 -0.04000
C 	C 	0.82770 0.07820 0.04640 -0.26300
C 	C 	0.19950 0.09170 0.03780 -0.32200
C 	C 	0.53060 0.34180 0.87670 0.03800
C 	C 	0.55170 0.34140 0.77470 -0.08200
C 	C 	0.46900 0.34250 0.40020 -0.19800
C 	C 	0.49480 0.34070 0.29900 0.09700
C 	C 	0.17230 0.57820 0.95360 -0.25000
C 	C 	0.80050 0.59170 0.96220 -0.02200
C 	C 	0.46940 0.84180 0.12330 0.01300
C 	C 	0.44830 0.84140 0.22530 -0.08900
C 	C 	0.53100 0.84250 0.59980 -0.20200
C 	C 	0.50520 0.84070 0.70100 0.11000
C 	C 	0.17230 0.92180 0.95360 -0.20900
C 	C 	0.80050 0.90830 0.96220 0.01200
C 	C 	0.46940 0.65820 0.12330 0.01100
C 	C 	0.44830 0.65860 0.22530 -0.09100
C 	C 	0.53100 0.65750 0.59980 -0.20400
C 	C 	0.50520 0.65930 0.70100 0.10800
C 	C 	0.82770 0.42180 0.04640 -0.23900
C 	C 	0.19950 0.40830 0.03780 -0.29700
C 	C 	0.53060 0.15820 0.87670 0.03700
C 	C 	0.55170 0.15860 0.77470 -0.08500
C 	C 	0.46900 0.15750 0.40020 -0.20000
C 	C 	0.49480 0.15930 0.29900 0.09500
C 	C 	0.55470 0.25000 0.72390 0.00800
C 	C 	0.57580 0.25000 0.61500 0.18500
C 	C 	0.45930 0.25000 0.44870 0.17400
C 	C 	0.44530 0.75000 0.27610 -0.00000
C 	C 	0.42420 0.75000 0.38500 0.19900
C 	C 	0.54070 0.75000 0.55130 0.20500
N 	N 	0.30550 0.13980 0.07650 -0.22200
N 	N 	0.71030 0.13360 0.07770 -0.19200
N 	N 	0.69450 0.63980 0.92350 -0.22400
N 	N 	0.28970 0.63360 0.92230 -0.17300
N 	N 	0.69450 0.86020 0.92350 -0.22600
N 	N 	0.28970 0.86640 0.92230 -0.17500
N 	N 	0.30550 0.36020 0.07650 -0.22100
N 	N 	0.71030 0.36640 0.07770 -0.19000
N 	N 	0.52380 0.25000 0.92900 -0.19300
N 	N 	0.43970 0.25000 0.55900 -0.17700
N 	N 	0.50570 0.25000 0.24890 -0.25700
N 	N 	0.47620 0.75000 0.07100 -0.26600
N 	N 	0.56030 0.75000 0.44100 -0.15100
N 	N 	0.49430 0.75000 0.75110 -0.25400
O 	O 	0.73120 0.25000 0.57740 -0.17800
O 	O 	0.26880 0.75000 0.42260 -0.25100
