data_crystal

_cell_length_a 11.21500
_cell_length_b 13.98300
_cell_length_c 13.99730
_cell_angle_alpha 104.26400
_cell_angle_beta  113.61700
_cell_angle_gamma 90.00000

_symmetry_space_group_name_	'P 1'
_symmetry_space_group_name_H-M	'P 1'

loop_
_symmetry_equiv_pos_as_xyz
  x,y,z

loop_
_atom_site_label
_atom_site_type_symbol
_atom_site_fract_x
_atom_site_fract_y
_atom_site_fract_z
_atom_site_charge
Cd	Cd	0.90316 0.36723 0.44852 1.22500
Cd	Cd	0.45464 0.13277 0.55148 1.22500
H 	H 	0.78800 0.78330 0.35900 0.04600
H 	H 	0.95100 0.84350 0.32160 0.03800
H 	H 	0.08830 0.37030 0.31880 -0.00600
H 	H 	0.08480 0.38130 0.15640 0.09600
H 	H 	0.69050 0.36910 0.04020 0.09400
H 	H 	0.70750 0.36110 0.20920 -0.00900
H 	H 	0.14960 0.37590 0.85900 0.08400
H 	H 	0.11450 0.37360 0.68340 -0.00000
H 	H 	0.73430 0.37180 0.59220 0.00600
H 	H 	0.75620 0.37200 0.76340 0.09600
H 	H 	0.78800 0.37660 0.92460 0.07400
H 	H 	0.05800 0.38040 0.99420 0.05200
H 	H 	0.42900 0.71670 0.64100 0.04500
H 	H 	0.62940 0.65650 0.67840 0.03700
H 	H 	0.76950 0.12970 0.68120 -0.00700
H 	H 	0.92840 0.11870 0.84360 0.09600
H 	H 	0.65030 0.13090 0.95980 0.09400
H 	H 	0.49830 0.13890 0.79080 -0.01000
H 	H 	0.29060 0.12410 0.14100 0.08300
H 	H 	0.43110 0.12640 0.31660 0.00000
H 	H 	0.14210 0.12820 0.40780 0.00700
H 	H 	0.99280 0.12800 0.23660 0.09400
H 	H 	0.86340 0.12340 0.07540 0.07600
H 	H 	0.06380 0.11960 0.00580 0.05200
C 	C 	0.82810 0.04120 0.36820 0.00500
C 	C 	0.73970 0.01040 0.40340 -0.05300
C 	C 	0.80010 0.85200 0.36620 0.00000
C 	C 	0.89530 0.88800 0.34060 0.02200
C 	C 	0.83950 0.14600 0.36100 0.34900
C 	C 	0.66640 0.08300 0.45280 0.39700
C 	C 	0.00570 0.37050 0.26140 0.09900
C 	C 	0.00530 0.37700 0.16460 -0.17500
C 	C 	0.88830 0.37800 0.08060 0.14000
C 	C 	0.77440 0.37000 0.09680 -0.17300
C 	C 	0.78510 0.36500 0.19820 0.09800
C 	C 	0.95220 0.37540 0.82840 0.10700
C 	C 	0.06370 0.37500 0.80540 -0.15400
C 	C 	0.04180 0.37370 0.70160 0.08400
C 	C 	0.81850 0.37200 0.64700 0.09900
C 	C 	0.83130 0.37300 0.74860 -0.16400
C 	C 	0.87430 0.37700 0.97660 -0.11000
C 	C 	0.97120 0.37800 0.94240 -0.06300
C 	C 	0.45990 0.45880 0.63180 0.00600
C 	C 	0.33630 0.48960 0.59660 -0.05300
C 	C 	0.43390 0.64800 0.63380 0.00000
C 	C 	0.55470 0.61200 0.65940 0.02200
C 	C 	0.47850 0.35400 0.63900 0.34900
C 	C 	0.21360 0.41700 0.54720 0.39700
C 	C 	0.74430 0.12950 0.73860 0.10000
C 	C 	0.84070 0.12300 0.83540 -0.18000
C 	C 	0.80770 0.12200 0.91940 0.14600
C 	C 	0.67760 0.13000 0.90320 -0.17600
C 	C 	0.58690 0.13500 0.80180 0.09900
C 	C 	0.12380 0.12460 0.17160 0.10400
C 	C 	0.25830 0.12500 0.19460 -0.15100
C 	C 	0.34020 0.12630 0.29840 0.08300
C 	C 	0.17150 0.12800 0.35300 0.09600
C 	C 	0.08270 0.12700 0.25140 -0.15900
C 	C 	0.89770 0.12300 0.02340 -0.11700
C 	C 	0.02880 0.12200 0.05760 -0.05800
N 	N 	0.91060 0.98290 0.34120 -0.10000
N 	N 	0.72320 0.91430 0.40200 -0.17100
N 	N 	0.89820 0.36430 0.28040 -0.23700
N 	N 	0.92160 0.37240 0.62400 -0.22600
N 	N 	0.56940 0.51710 0.65880 -0.10000
N 	N 	0.32120 0.58570 0.59800 -0.17100
N 	N 	0.61780 0.13570 0.71960 -0.23700
N 	N 	0.29760 0.12760 0.37600 -0.22600
O 	O 	0.92960 0.20510 0.43520 -0.40000
O 	O 	0.76070 0.16700 0.28340 -0.31100
O 	O 	0.68340 0.16630 0.46080 -0.33800
O 	O 	0.58350 0.04360 0.47480 -0.51800
O 	O 	0.49440 0.29490 0.56480 -0.39900
O 	O 	0.47730 0.33300 0.71660 -0.31100
O 	O 	0.22260 0.33370 0.53920 -0.33700
O 	O 	0.10870 0.45640 0.52520 -0.51800
Cd	Cd	0.09684 0.63277 0.55148 1.22400
Cd	Cd	0.54536 0.86723 0.44852 1.22400
H 	H 	0.21200 0.21670 0.64100 0.04500
H 	H 	0.04900 0.15650 0.67840 0.03700
H 	H 	0.91170 0.62970 0.68120 -0.00700
H 	H 	0.91520 0.61870 0.84360 0.09500
H 	H 	0.30950 0.63090 0.95980 0.09300
H 	H 	0.29250 0.63890 0.79080 -0.01000
H 	H 	0.85040 0.62410 0.14100 0.08400
H 	H 	0.88550 0.62640 0.31660 -0.00000
H 	H 	0.26570 0.62820 0.40780 0.00600
H 	H 	0.24380 0.62800 0.23660 0.09600
H 	H 	0.21200 0.62340 0.07540 0.07400
H 	H 	0.94200 0.61960 0.00580 0.05200
H 	H 	0.57100 0.28330 0.35900 0.04500
H 	H 	0.37060 0.34350 0.32160 0.03700
H 	H 	0.23050 0.87030 0.31880 -0.00700
H 	H 	0.07160 0.88130 0.15640 0.09600
H 	H 	0.34970 0.86910 0.04020 0.09400
H 	H 	0.50170 0.86110 0.20920 -0.01000
H 	H 	0.70940 0.87590 0.85900 0.08300
H 	H 	0.56890 0.87360 0.68340 0.00000
H 	H 	0.85790 0.87180 0.59220 0.00700
H 	H 	0.00720 0.87200 0.76340 0.09400
H 	H 	0.13660 0.87660 0.92460 0.07600
H 	H 	0.93620 0.88040 0.99420 0.05200
C 	C 	0.17190 0.95880 0.63180 0.00500
C 	C 	0.26030 0.98960 0.59660 -0.05300
C 	C 	0.19990 0.14800 0.63380 0.00000
C 	C 	0.10470 0.11200 0.65940 0.02200
C 	C 	0.16050 0.85400 0.63900 0.34900
C 	C 	0.33360 0.91700 0.54720 0.39700
C 	C 	0.99430 0.62950 0.73860 0.09900
C 	C 	0.99470 0.62300 0.83540 -0.17500
C 	C 	0.11170 0.62200 0.91940 0.14000
C 	C 	0.22560 0.63000 0.90320 -0.17300
C 	C 	0.21490 0.63500 0.80180 0.09800
C 	C 	0.04780 0.62460 0.17160 0.10700
C 	C 	0.93630 0.62500 0.19460 -0.15400
C 	C 	0.95820 0.62630 0.29840 0.08400
C 	C 	0.18150 0.62800 0.35300 0.09900
C 	C 	0.16870 0.62700 0.25140 -0.16400
C 	C 	0.12570 0.62300 0.02340 -0.11000
C 	C 	0.02880 0.62200 0.05760 -0.06300
C 	C 	0.54010 0.54120 0.36820 0.00600
C 	C 	0.66370 0.51040 0.40340 -0.05300
C 	C 	0.56610 0.35200 0.36620 0.00000
C 	C 	0.44530 0.38800 0.34060 0.02200
C 	C 	0.52150 0.64600 0.36100 0.34900
C 	C 	0.78640 0.58300 0.45280 0.39700
C 	C 	0.25570 0.87050 0.26140 0.10000
C 	C 	0.15930 0.87700 0.16460 -0.18000
C 	C 	0.19230 0.87800 0.08060 0.14600
C 	C 	0.32240 0.87000 0.09680 -0.17600
C 	C 	0.41310 0.86500 0.19820 0.09900
C 	C 	0.87620 0.87540 0.82840 0.10400
C 	C 	0.74170 0.87500 0.80540 -0.15100
C 	C 	0.65980 0.87370 0.70160 0.08300
C 	C 	0.82850 0.87200 0.64700 0.09600
C 	C 	0.91730 0.87300 0.74860 -0.15900
C 	C 	0.10230 0.87700 0.97660 -0.11700
C 	C 	0.97120 0.87800 0.94240 -0.05800
N 	N 	0.08940 0.01710 0.65880 -0.10000
N 	N 	0.27680 0.08570 0.59800 -0.17100
N 	N 	0.10180 0.63570 0.71960 -0.23700
N 	N 	0.07840 0.62760 0.37600 -0.22600
N 	N 	0.43060 0.48290 0.34120 -0.10000
N 	N 	0.67880 0.41430 0.40200 -0.17100
N 	N 	0.38220 0.86430 0.28040 -0.23700
N 	N 	0.70240 0.87240 0.62400 -0.22600
O 	O 	0.07040 0.79490 0.56480 -0.40000
O 	O 	0.23930 0.83300 0.71660 -0.31100
O 	O 	0.31660 0.83370 0.53920 -0.33800
O 	O 	0.41650 0.95640 0.52520 -0.51800
O 	O 	0.50560 0.70510 0.43520 -0.39900
O 	O 	0.52270 0.66700 0.28340 -0.31100
O 	O 	0.77740 0.66630 0.46080 -0.33700
O 	O 	0.89130 0.54360 0.47480 -0.51800
