data_crystal

_cell_length_a 11.44000
_cell_length_b 13.75570
_cell_length_c 13.78000
_cell_angle_alpha 103.23400
_cell_angle_beta  90.00000
_cell_angle_gamma 114.57200

_symmetry_space_group_name_	'P 1'
_symmetry_space_group_name_H-M	'P 1'

loop_
_symmetry_equiv_pos_as_xyz
  x,y,z

loop_
_atom_site_label
_atom_site_type_symbol
_atom_site_fract_x
_atom_site_fract_y
_atom_site_fract_z
_atom_site_charge
Cd	Cd	0.40249 0.44542 0.36860 1.22400
Cd	Cd	0.95707 0.55458 0.13140 1.22200
Cd	Cd	0.59751 0.55458 0.63140 1.22400
Cd	Cd	0.04293 0.44542 0.86860 1.22200
H 	H 	0.27180 0.34760 0.78390 0.04000
H 	H 	0.43170 0.31340 0.84390 0.04200
H 	H 	0.20920 0.19880 0.37060 -0.01200
H 	H 	0.19380 0.02680 0.37550 0.10700
H 	H 	0.58160 0.14540 0.37250 0.11100
H 	H 	0.58480 0.31280 0.36690 -0.00400
H 	H 	0.24800 0.76380 0.37730 0.11300
H 	H 	0.23310 0.59140 0.38110 0.00800
H 	H 	0.60720 0.69100 0.37120 -0.00700
H 	H 	0.63400 0.86480 0.36560 0.10300
H 	H 	0.92420 0.65240 0.71610 0.04000
H 	H 	0.11830 0.68660 0.65610 0.04300
H 	H 	0.01040 0.80120 0.12940 -0.01000
H 	H 	0.16700 0.97320 0.12450 0.10800
H 	H 	0.43620 0.85460 0.12750 0.11100
H 	H 	0.27200 0.68720 0.13310 -0.00400
H 	H 	0.48420 0.23620 0.12270 0.11300
H 	H 	0.64170 0.40860 0.11890 0.00800
H 	H 	0.91620 0.30900 0.12880 -0.00800
H 	H 	0.76920 0.13520 0.13440 0.10200
H 	H 	0.72820 0.65240 0.21610 0.04000
H 	H 	0.56830 0.68660 0.15610 0.04200
H 	H 	0.79080 0.80120 0.62940 -0.01200
H 	H 	0.80620 0.97320 0.62450 0.10700
H 	H 	0.41840 0.85460 0.62750 0.11100
H 	H 	0.41520 0.68720 0.63310 -0.00400
H 	H 	0.75200 0.23620 0.62270 0.11300
H 	H 	0.76690 0.40860 0.61890 0.00800
H 	H 	0.39280 0.30900 0.62880 -0.00700
H 	H 	0.36600 0.13520 0.63440 0.10300
H 	H 	0.07580 0.34760 0.28390 0.04000
H 	H 	0.88170 0.31340 0.34390 0.04300
H 	H 	0.98960 0.19880 0.87060 -0.01000
H 	H 	0.83300 0.02680 0.87550 0.10800
H 	H 	0.56380 0.14540 0.87250 0.11100
H 	H 	0.72800 0.31280 0.86690 -0.00400
H 	H 	0.51580 0.76380 0.87730 0.11300
H 	H 	0.35830 0.59140 0.88110 0.00800
H 	H 	0.08380 0.69100 0.87120 -0.00800
H 	H 	0.23080 0.86480 0.86560 0.10200
C 	C 	0.32810 0.37580 0.04810 0.01900
C 	C 	0.23920 0.40600 0.01320 -0.04000
C 	C 	0.28660 0.35820 0.85420 0.01400
C 	C 	0.37940 0.33460 0.88970 0.01600
C 	C 	0.34890 0.37960 0.15830 0.30400
C 	C 	0.16950 0.45980 0.08430 0.34600
C 	C 	0.28580 0.18760 0.37070 0.10900
C 	C 	0.27570 0.08520 0.37400 -0.19000
C 	C 	0.38650 0.06840 0.37510 0.17700
C 	C 	0.50380 0.15460 0.37210 -0.18300
C 	C 	0.50410 0.25360 0.36870 0.10800
C 	C 	0.44320 0.83380 0.37200 0.17000
C 	C 	0.32340 0.75080 0.37610 -0.18000
C 	C 	0.31550 0.64820 0.37830 0.10900
C 	C 	0.53360 0.70660 0.37230 0.10500
C 	C 	0.55060 0.81000 0.36940 -0.18400
C 	C 	0.95230 0.62420 0.45190 0.01900
C 	C 	0.83320 0.59400 0.48680 -0.04200
C 	C 	0.92840 0.64180 0.64580 0.01700
C 	C 	0.04480 0.66540 0.61030 0.01400
C 	C 	0.96930 0.62040 0.34170 0.30500
C 	C 	0.70970 0.54020 0.41570 0.34600
C 	C 	0.09820 0.81240 0.12930 0.11000
C 	C 	0.19050 0.91480 0.12600 -0.19000
C 	C 	0.31810 0.93160 0.12490 0.17800
C 	C 	0.34920 0.84540 0.12790 -0.18300
C 	C 	0.25050 0.74640 0.13130 0.10800
C 	C 	0.60940 0.16620 0.12800 0.17000
C 	C 	0.57260 0.24920 0.12390 -0.18100
C 	C 	0.66730 0.35180 0.12170 0.10900
C 	C 	0.82700 0.29340 0.12770 0.10400
C 	C 	0.74060 0.19000 0.13060 -0.18400
C 	C 	0.67190 0.62420 0.95190 0.01900
C 	C 	0.76080 0.59400 0.98680 -0.04000
C 	C 	0.71340 0.64180 0.14580 0.01400
C 	C 	0.62060 0.66540 0.11030 0.01600
C 	C 	0.65110 0.62040 0.84170 0.30400
C 	C 	0.83050 0.54020 0.91570 0.34600
C 	C 	0.71420 0.81240 0.62930 0.10900
C 	C 	0.72430 0.91480 0.62600 -0.19000
C 	C 	0.61350 0.93160 0.62490 0.17700
C 	C 	0.49620 0.84540 0.62790 -0.18300
C 	C 	0.49590 0.74640 0.63130 0.10800
C 	C 	0.55680 0.16620 0.62800 0.17000
C 	C 	0.67660 0.24920 0.62390 -0.18000
C 	C 	0.68450 0.35180 0.62170 0.10900
C 	C 	0.46640 0.29340 0.62770 0.10500
C 	C 	0.44940 0.19000 0.63060 -0.18400
C 	C 	0.04770 0.37580 0.54810 0.01900
C 	C 	0.16680 0.40600 0.51320 -0.04200
C 	C 	0.07160 0.35820 0.35420 0.01700
C 	C 	0.95520 0.33460 0.38970 0.01400
C 	C 	0.03070 0.37960 0.65830 0.30500
C 	C 	0.29030 0.45980 0.58430 0.34600
C 	C 	0.90180 0.18760 0.87070 0.11000
C 	C 	0.80950 0.08520 0.87400 -0.19000
C 	C 	0.68190 0.06840 0.87510 0.17800
C 	C 	0.65080 0.15460 0.87210 -0.18300
C 	C 	0.74950 0.25360 0.86870 0.10800
C 	C 	0.39060 0.83380 0.87200 0.17000
C 	C 	0.42740 0.75080 0.87610 -0.18100
C 	C 	0.33270 0.64820 0.87830 0.10900
C 	C 	0.17300 0.70660 0.87230 0.10400
C 	C 	0.25940 0.81000 0.86940 -0.18400
N 	N 	0.40060 0.34000 0.98660 -0.09900
N 	N 	0.21510 0.39600 0.91460 -0.17700
N 	N 	0.39830 0.27220 0.36770 -0.23500
N 	N 	0.41740 0.62520 0.37680 -0.22800
N 	N 	0.36790 0.96000 0.38050 -0.09600
N 	N 	0.46540 0.94380 0.37080 -0.09500
N 	N 	0.06060 0.66000 0.51340 -0.09800
N 	N 	0.81910 0.60400 0.58540 -0.17500
N 	N 	0.12610 0.72780 0.13230 -0.23400
N 	N 	0.79220 0.37480 0.12320 -0.22800
N 	N 	0.40790 0.04000 0.11950 -0.09600
N 	N 	0.52160 0.05620 0.12920 -0.09500
N 	N 	0.59940 0.66000 0.01340 -0.09900
N 	N 	0.78490 0.60400 0.08540 -0.17700
N 	N 	0.60170 0.72780 0.63230 -0.23500
N 	N 	0.58260 0.37480 0.62320 -0.22800
N 	N 	0.63210 0.04000 0.61950 -0.09600
N 	N 	0.53460 0.05620 0.62920 -0.09500
N 	N 	0.93940 0.34000 0.48660 -0.09800
N 	N 	0.18090 0.39600 0.41460 -0.17500
N 	N 	0.87390 0.27220 0.86770 -0.23400
N 	N 	0.20780 0.62520 0.87680 -0.22800
N 	N 	0.59210 0.96000 0.88050 -0.09600
N 	N 	0.47840 0.94380 0.87080 -0.09500
O 	O 	0.44930 0.45200 0.20770 -0.37500
O 	O 	0.26160 0.30820 0.19050 -0.31700
O 	O 	0.21000 0.49440 0.17160 -0.29900
O 	O 	0.07520 0.46920 0.04530 -0.50300
O 	O 	0.99730 0.54800 0.29230 -0.37600
O 	O 	0.95340 0.69180 0.30950 -0.31800
O 	O 	0.71560 0.50560 0.32840 -0.30000
O 	O 	0.60600 0.53080 0.45470 -0.50600
O 	O 	0.55070 0.54800 0.79230 -0.37500
O 	O 	0.73840 0.69180 0.80950 -0.31700
O 	O 	0.79000 0.50560 0.82840 -0.29900
O 	O 	0.92480 0.53080 0.95470 -0.50300
O 	O 	0.00270 0.45200 0.70770 -0.37600
O 	O 	0.04660 0.30820 0.69050 -0.31800
O 	O 	0.28440 0.49440 0.67160 -0.30000
O 	O 	0.39400 0.46920 0.54530 -0.50600
