data_crystal

_cell_length_a 15.27700
_cell_length_b 17.13500
_cell_length_c 17.14990
_cell_angle_alpha 119.97100
_cell_angle_beta  96.16480
_cell_angle_gamma 90.00000

_symmetry_space_group_name_	'P 1'
_symmetry_space_group_name_H-M	'P 1'

loop_
_symmetry_equiv_pos_as_xyz
  x,y,z

loop_
_atom_site_label
_atom_site_type_symbol
_atom_site_fract_x
_atom_site_fract_y
_atom_site_fract_z
_atom_site_charge
Cd	Cd	0.32965 0.02686 0.35932 1.18700
Cd	Cd	0.67035 0.97314 0.64068 1.20300
Cd	Cd	0.50000 0.00000 0.50000 1.18200
H 	H 	0.34620 0.73770 0.13420 0.02200
H 	H 	0.33550 0.58260 0.04280 0.06500
H 	H 	0.45710 0.55670 0.24820 0.06600
H 	H 	0.46990 0.71240 0.33900 0.01900
H 	H 	0.27470 0.27610 0.65880 0.02000
H 	H 	0.29470 0.35790 0.81660 0.07300
H 	H 	0.42320 0.15400 0.82140 0.06900
H 	H 	0.39880 0.06950 0.66300 -0.03600
H 	H 	0.38650 0.06260 0.10080 0.02900
H 	H 	0.39420 0.14340 0.02460 0.05700
H 	H 	0.28950 0.35540 0.22740 0.06700
H 	H 	0.28180 0.27460 0.30360 0.03000
H 	H 	0.38680 0.44010 0.95540 0.06100
H 	H 	0.35440 0.20030 0.94520 0.06100
H 	H 	0.37100 0.43310 0.18620 0.06200
H 	H 	0.65380 0.26230 0.86580 0.01900
H 	H 	0.66450 0.41740 0.95720 0.06600
H 	H 	0.54290 0.44330 0.75180 0.06700
H 	H 	0.53010 0.28760 0.66100 0.01600
H 	H 	0.72530 0.72390 0.34120 0.02600
H 	H 	0.70530 0.64210 0.18340 0.07200
H 	H 	0.57680 0.84600 0.17860 0.07500
H 	H 	0.60120 0.93050 0.33700 -0.02000
H 	H 	0.61350 0.93740 0.89920 0.04400
H 	H 	0.60580 0.85660 0.97540 0.06100
H 	H 	0.71050 0.64460 0.77260 0.06500
H 	H 	0.71820 0.72540 0.69640 0.03700
H 	H 	0.61320 0.55990 0.04460 0.05900
H 	H 	0.64560 0.79970 0.05480 0.06300
H 	H 	0.62900 0.56690 0.81380 0.05900
C 	C 	0.41110 0.84010 0.31000 0.39500
C 	C 	0.40750 0.73980 0.24740 -0.13900
C 	C 	0.36830 0.70070 0.15760 0.05000
C 	C 	0.36190 0.60870 0.10380 -0.11600
C 	C 	0.39280 0.55230 0.13600 0.04700
C 	C 	0.43370 0.59310 0.22460 -0.11800
C 	C 	0.44100 0.68590 0.27880 0.05900
C 	C 	0.32290 0.11400 0.54420 0.34100
C 	C 	0.33380 0.16420 0.64540 -0.15300
C 	C 	0.30360 0.25050 0.69180 0.05700
C 	C 	0.31570 0.29910 0.78560 -0.12500
C 	C 	0.35770 0.26340 0.83440 0.05900
C 	C 	0.39130 0.17800 0.78840 -0.13100
C 	C 	0.37780 0.12830 0.69420 0.06900
C 	C 	0.33750 0.10940 0.26000 0.31300
C 	C 	0.33340 0.16090 0.20920 -0.10100
C 	C 	0.36680 0.12200 0.12640 0.01700
C 	C 	0.37140 0.17000 0.08120 -0.09700
C 	C 	0.34260 0.25700 0.11880 0.03500
C 	C 	0.30920 0.29600 0.20180 -0.10300
C 	C 	0.30460 0.24800 0.24700 0.02100
C 	C 	0.38200 0.45250 0.08080 0.03200
C 	C 	0.37950 0.40690 0.98540 -0.09600
C 	C 	0.36630 0.31280 0.93500 0.03200
C 	C 	0.36030 0.26440 0.97940 -0.09600
C 	C 	0.36280 0.30880 0.07500 0.03600
C 	C 	0.37180 0.40230 0.12240 -0.09800
C 	C 	0.58890 0.15990 0.69000 0.40200
C 	C 	0.59250 0.26020 0.75260 -0.14500
C 	C 	0.63170 0.29930 0.84240 0.05700
C 	C 	0.63810 0.39130 0.89620 -0.12000
C 	C 	0.60720 0.44770 0.86400 0.05300
C 	C 	0.56630 0.40690 0.77540 -0.12300
C 	C 	0.55900 0.31410 0.72120 0.06500
C 	C 	0.67710 0.88600 0.45580 0.33700
C 	C 	0.66620 0.83580 0.35460 -0.14000
C 	C 	0.69640 0.74950 0.30820 0.05200
C 	C 	0.68430 0.70090 0.21440 -0.12100
C 	C 	0.64230 0.73660 0.16560 0.05800
C 	C 	0.60870 0.82200 0.21160 -0.12600
C 	C 	0.62220 0.87170 0.30580 0.06400
C 	C 	0.66250 0.89060 0.74000 0.30900
C 	C 	0.66660 0.83910 0.79080 -0.08500
C 	C 	0.63320 0.87800 0.87360 0.01400
C 	C 	0.62860 0.83000 0.91880 -0.09000
C 	C 	0.65740 0.74300 0.88120 0.03400
C 	C 	0.69080 0.70400 0.79820 -0.09600
C 	C 	0.69540 0.75200 0.75300 0.01700
C 	C 	0.61800 0.54750 0.91920 0.02200
C 	C 	0.62050 0.59310 0.01460 -0.08600
C 	C 	0.63370 0.68720 0.06500 0.02700
C 	C 	0.63970 0.73560 0.02060 -0.08800
C 	C 	0.63720 0.69120 0.92500 0.02900
C 	C 	0.62820 0.59770 0.87760 -0.09200
O 	O 	0.35040 0.02980 0.22160 -0.40100
O 	O 	0.31340 0.14940 0.33900 -0.40400
O 	O 	0.37740 0.88836 0.28192 -0.46800
O 	O 	0.44810 0.86686 0.38992 -0.47600
O 	O 	0.28380 0.14600 0.50100 -0.39800
O 	O 	0.35720 0.03661 0.50282 -0.56200
O 	O 	0.64960 0.97020 0.77840 -0.37000
O 	O 	0.68660 0.85060 0.66100 -0.38900
O 	O 	0.62260 0.11164 0.71808 -0.49000
O 	O 	0.55190 0.13314 0.61008 -0.49200
O 	O 	0.71620 0.85400 0.49900 -0.38000
O 	O 	0.64280 0.96339 0.49718 -0.53200
Cd	Cd	0.17035 0.66754 0.64068 1.19200
Cd	Cd	0.82965 0.33246 0.35932 1.19700
Cd	Cd	0.00000 0.50000 0.50000 1.17500
H 	H 	0.15380 0.60350 0.86580 0.01600
H 	H 	0.16450 0.53980 0.95720 0.06300
H 	H 	0.04290 0.30850 0.75180 0.05800
H 	H 	0.03010 0.37340 0.66100 0.00500
H 	H 	0.22530 0.61730 0.34120 0.02100
H 	H 	0.20530 0.54130 0.18340 0.07100
H 	H 	0.07680 0.33260 0.17860 0.06200
H 	H 	0.10120 0.40650 0.33700 -0.03700
H 	H 	0.11350 0.96180 0.89920 0.03200
H 	H 	0.10580 0.11880 0.97540 0.05500
H 	H 	0.21050 0.12800 0.77260 0.04400
H 	H 	0.21820 0.97100 0.69640 0.09100
H 	H 	0.11320 0.48470 0.04460 0.05200
H 	H 	0.14560 0.25510 0.05480 0.05800
H 	H 	0.12900 0.24690 0.81380 0.05600
H 	H 	0.84620 0.39650 0.13420 0.02500
H 	H 	0.83550 0.46020 0.04280 0.06800
H 	H 	0.95710 0.69150 0.24820 0.07500
H 	H 	0.96990 0.62660 0.33900 0.03000
H 	H 	0.77470 0.38270 0.65880 0.02500
H 	H 	0.79470 0.45870 0.81660 0.07400
H 	H 	0.92320 0.66740 0.82140 0.08100
H 	H 	0.89880 0.59350 0.66300 -0.01900
H 	H 	0.88650 0.03820 0.10080 0.04100
H 	H 	0.89420 0.88120 0.02460 0.06500
H 	H 	0.78950 0.87200 0.22740 0.08800
H 	H 	0.78180 0.02900 0.30360 -0.02600
H 	H 	0.88680 0.51530 0.95540 0.07000
H 	H 	0.85440 0.74490 0.94520 0.06600
H 	H 	0.87100 0.75310 0.18620 0.06600
C 	C 	0.08890 0.53010 0.69000 0.39800
C 	C 	0.09250 0.49240 0.75260 -0.15300
C 	C 	0.13170 0.54310 0.84240 0.05300
C 	C 	0.13810 0.50490 0.89620 -0.12500
C 	C 	0.10720 0.41630 0.86400 0.04800
C 	C 	0.06630 0.36850 0.77540 -0.12800
C 	C 	0.05900 0.40710 0.72120 0.06100
C 	C 	0.17710 0.56980 0.45580 0.33700
C 	C 	0.16620 0.51880 0.35460 -0.15200
C 	C 	0.19640 0.55870 0.30820 0.05200
C 	C 	0.18430 0.51350 0.21440 -0.12800
C 	C 	0.14230 0.42900 0.16560 0.05600
C 	C 	0.10870 0.38960 0.21160 -0.13500
C 	C 	0.12220 0.43410 0.30580 0.06200
C 	C 	0.16250 0.84940 0.74000 0.29000
C 	C 	0.16660 0.95170 0.79080 -0.03500
C 	C 	0.13320 0.99560 0.87360 0.02600
C 	C 	0.12860 0.08880 0.91880 -0.11700
C 	C 	0.15740 0.13820 0.88120 0.01700
C 	C 	0.19080 0.09420 0.79820 -0.05000
C 	C 	0.19540 0.00100 0.75300 -0.10400
C 	C 	0.11800 0.37170 0.91920 0.01800
C 	C 	0.12050 0.42150 0.01460 -0.08900
C 	C 	0.13370 0.37780 0.06500 0.02200
C 	C 	0.13970 0.28500 0.02060 -0.09200
C 	C 	0.13720 0.23380 0.92500 0.03000
C 	C 	0.12820 0.27990 0.87760 -0.09600
C 	C 	0.91110 0.46990 0.31000 0.39900
C 	C 	0.90750 0.50760 0.24740 -0.13100
C 	C 	0.86830 0.45690 0.15760 0.05300
C 	C 	0.86190 0.49510 0.10380 -0.11100
C 	C 	0.89280 0.58370 0.13600 0.05000
C 	C 	0.93370 0.63150 0.22460 -0.11200
C 	C 	0.94100 0.59290 0.27880 0.06200
C 	C 	0.82290 0.43020 0.54420 0.34100
C 	C 	0.83380 0.48120 0.64540 -0.14000
C 	C 	0.80360 0.44130 0.69180 0.05600
C 	C 	0.81570 0.48650 0.78560 -0.11800
C 	C 	0.85770 0.57100 0.83440 0.06100
C 	C 	0.89130 0.61040 0.78840 -0.12200
C 	C 	0.87780 0.56590 0.69420 0.07000
C 	C 	0.83750 0.15060 0.26000 0.33200
C 	C 	0.83340 0.04830 0.20920 -0.15200
C 	C 	0.86680 0.00440 0.12640 0.00600
C 	C 	0.87140 0.91120 0.08120 -0.06800
C 	C 	0.84260 0.86180 0.11880 0.05200
C 	C 	0.80920 0.90580 0.20180 -0.15000
C 	C 	0.80460 0.99900 0.24700 0.14500
C 	C 	0.88200 0.62830 0.08080 0.03900
C 	C 	0.87950 0.57850 0.98540 -0.09700
C 	C 	0.86630 0.62220 0.93500 0.03900
C 	C 	0.86030 0.71500 0.97940 -0.09700
C 	C 	0.86280 0.76620 0.07500 0.04000
C 	C 	0.87180 0.72010 0.12240 -0.09600
O 	O 	0.14960 0.80820 0.77840 -0.38600
O 	O 	0.18660 0.81040 0.66100 -0.39400
O 	O 	0.12260 0.60644 0.71808 -0.48800
O 	O 	0.05190 0.47694 0.61008 -0.50100
O 	O 	0.21620 0.64500 0.49900 -0.39200
O 	O 	0.14280 0.53379 0.49718 -0.55500
O 	O 	0.85040 0.19180 0.22160 -0.38500
O 	O 	0.81340 0.18960 0.33900 -0.39900
O 	O 	0.87740 0.39356 0.28192 -0.47100
O 	O 	0.94810 0.52306 0.38992 -0.46400
O 	O 	0.78380 0.35500 0.50100 -0.38700
O 	O 	0.85720 0.46621 0.50282 -0.53700
