data_crystal

_cell_length_a 10.36040
_cell_length_b 10.36040
_cell_length_c 14.50590
_cell_angle_alpha 90.00000
_cell_angle_beta  90.00000
_cell_angle_gamma 90.00000

_symmetry_space_group_name_	'P 1'
_symmetry_space_group_name_H-M	'P 1'

loop_
_symmetry_equiv_pos_as_xyz
  x,y,z

loop_
_atom_site_label
_atom_site_type_symbol
_atom_site_fract_x
_atom_site_fract_y
_atom_site_fract_z
_atom_site_charge
Gd	Gd	0.14567 0.14567 0.37500 1.69200
Gd	Gd	0.85433 0.85433 0.87500 1.73200
Gd	Gd	0.85433 0.14567 0.62500 1.67000
Gd	Gd	0.14567 0.85433 0.12500 1.71500
H 	H 	0.06980 0.55660 0.37170 0.00300
H 	H 	0.93020 0.44340 0.87170 -0.01500
H 	H 	0.44340 0.06980 0.62170 -0.01700
H 	H 	0.55660 0.93020 0.12170 -0.03000
H 	H 	0.93020 0.55660 0.62830 0.00600
H 	H 	0.06980 0.44340 0.12830 -0.01300
H 	H 	0.55660 0.06980 0.37830 -0.02100
H 	H 	0.44340 0.93020 0.87830 -0.01600
H 	H 	0.00000 0.89040 0.50000 0.01800
H 	H 	-0.00000 0.10960 -0.00000 -0.05500
H 	H 	0.10960 -0.00000 0.75000 -0.03200
H 	H 	0.89040 0.00000 0.25000 -0.04800
C 	C 	0.08280 0.81100 0.33940 0.47600
C 	C 	0.04120 0.60220 0.42300 0.13100
C 	C 	0.03990 0.73750 0.42200 -0.18900
C 	C 	0.91720 0.18900 0.83940 0.50300
C 	C 	0.95880 0.39780 0.92300 0.18100
C 	C 	0.96010 0.26250 0.92200 -0.26500
C 	C 	0.18900 0.08280 0.58940 0.49300
C 	C 	0.39780 0.04120 0.67300 0.18100
C 	C 	0.26250 0.03990 0.67200 -0.25600
C 	C 	0.81100 0.91720 0.08940 0.50400
C 	C 	0.60220 0.95880 0.17300 0.22500
C 	C 	0.73750 0.96010 0.17200 -0.25000
C 	C 	0.91720 0.81100 0.66060 0.47500
C 	C 	0.95880 0.60220 0.57700 0.11300
C 	C 	0.96010 0.73750 0.57800 -0.20400
C 	C 	0.08280 0.18900 0.16060 0.50500
C 	C 	0.04120 0.39780 0.07700 0.17300
C 	C 	0.03990 0.26250 0.07800 -0.27000
C 	C 	0.81100 0.08280 0.41060 0.49900
C 	C 	0.60220 0.04120 0.32700 0.19100
C 	C 	0.73750 0.03990 0.32800 -0.27300
C 	C 	0.18900 0.91720 0.91060 0.49400
C 	C 	0.39780 0.95880 0.82700 0.21300
C 	C 	0.26250 0.96010 0.82800 -0.22500
C 	C 	-0.00000 0.38930 0.50000 0.51900
C 	C 	-0.00000 0.53710 0.50000 -0.19300
C 	C 	1.00000 0.80060 0.50000 0.09700
C 	C 	1.00000 0.61070 -0.00000 0.45000
C 	C 	-0.00000 0.46290 -0.00000 -0.23600
C 	C 	-0.00000 0.19940 -0.00000 0.19900
C 	C 	0.61070 -0.00000 0.75000 0.48100
C 	C 	0.46290 -0.00000 0.75000 -0.27700
C 	C 	0.19940 -0.00000 0.75000 0.15800
C 	C 	0.38930 0.00000 0.25000 0.48300
C 	C 	0.53710 0.00000 0.25000 -0.29000
C 	C 	0.80060 0.00000 0.25000 0.17300
O 	O 	0.06920 0.33550 0.44140 -0.49000
O 	O 	0.08950 0.75250 0.26380 -0.46400
O 	O 	0.10690 0.92760 0.34550 -0.46500
O 	O 	0.93080 0.66450 0.94140 -0.46900
O 	O 	0.91050 0.24750 0.76380 -0.47700
O 	O 	0.89310 0.07240 0.84550 -0.51600
O 	O 	0.66450 0.06920 0.69140 -0.48800
O 	O 	0.24750 0.08950 0.51380 -0.47700
O 	O 	0.07240 0.10690 0.59550 -0.48900
O 	O 	0.33550 0.93080 0.19140 -0.46900
O 	O 	0.75250 0.91050 0.01380 -0.48800
O 	O 	0.92760 0.89310 0.09550 -0.50400
O 	O 	0.93080 0.33550 0.55860 -0.50400
O 	O 	0.91050 0.75250 0.73620 -0.47100
O 	O 	0.89310 0.92760 0.65450 -0.47400
O 	O 	0.06920 0.66450 0.05860 -0.47600
O 	O 	0.08950 0.24750 0.23620 -0.47500
O 	O 	0.10690 0.07240 0.15450 -0.51500
O 	O 	0.33550 0.06920 0.30860 -0.49400
O 	O 	0.75250 0.08950 0.48620 -0.48000
O 	O 	0.92760 0.10690 0.40450 -0.51300
O 	O 	0.66450 0.93080 0.80860 -0.46100
O 	O 	0.24750 0.91050 0.98620 -0.45100
O 	O 	0.07240 0.89310 0.90450 -0.46800
