data_crystal

_cell_length_a 10.31490
_cell_length_b 10.31490
_cell_length_c 14.33900
_cell_angle_alpha 90.00000
_cell_angle_beta  90.00000
_cell_angle_gamma 90.00000

_symmetry_space_group_name_	'P 1'
_symmetry_space_group_name_H-M	'P 1'

loop_
_symmetry_equiv_pos_as_xyz
  x,y,z

loop_
_atom_site_label
_atom_site_type_symbol
_atom_site_fract_x
_atom_site_fract_y
_atom_site_fract_z
_atom_site_charge
O 	O 	0.93020 0.32970 0.05950 -0.47200
O 	O 	0.92460 0.75030 0.24170 -0.48500
O 	O 	0.90010 0.92280 0.16100 -0.49800
O 	O 	0.69300 0.30400 0.08990 -0.24900
H 	H 	0.74250 0.37660 0.06150 0.12300
C 	C 	0.92710 0.80670 0.16510 0.51300
C 	C 	0.96450 0.59930 0.07990 0.20200
H 	H 	0.93950 0.55360 0.13460 -0.01500
C 	C 	0.96540 0.73310 0.08020 -0.24800
C 	C 	0.57500 0.29700 0.03400 0.09200
H 	H 	0.55620 0.20630 0.01760 0.00800
H 	H 	0.58590 0.34780 0.97600 -0.00600
C 	C 	0.45800 0.35700 0.09600 -0.37400
H 	H 	0.37740 0.35370 0.06080 0.17400
H 	H 	0.47830 0.44750 0.11220 0.10700
H 	H 	0.44900 0.30660 0.15390 0.12900
O 	O 	0.06980 0.67030 0.55950 -0.50000
O 	O 	0.07540 0.24970 0.74170 -0.49700
O 	O 	0.09990 0.07720 0.66100 -0.54900
O 	O 	0.30700 0.69600 0.58990 -0.26600
H 	H 	0.25750 0.62340 0.56150 0.12700
C 	C 	0.07290 0.19330 0.66510 0.52200
C 	C 	0.03550 0.40070 0.57990 0.18800
H 	H 	0.06050 0.44640 0.63460 -0.01900
C 	C 	0.03460 0.26690 0.58020 -0.29700
C 	C 	0.42500 0.70300 0.53400 0.15900
H 	H 	0.44380 0.79370 0.51760 -0.00500
H 	H 	0.41410 0.65220 0.47600 -0.04800
C 	C 	0.54200 0.64300 0.59600 -0.43000
H 	H 	0.62260 0.64630 0.56080 0.17700
H 	H 	0.52170 0.55250 0.61220 0.12800
H 	H 	0.55100 0.69340 0.65390 0.15100
O 	O 	0.67030 0.93020 0.30950 -0.47700
O 	O 	0.24970 0.92460 0.49170 -0.48800
O 	O 	0.07720 0.90010 0.41100 -0.53800
O 	O 	0.69600 0.69300 0.33990 -0.26900
H 	H 	0.62340 0.74250 0.31150 0.12900
C 	C 	0.19330 0.92710 0.41510 0.52500
C 	C 	0.40070 0.96450 0.32990 0.21900
H 	H 	0.44640 0.93950 0.38460 -0.02100
C 	C 	0.26690 0.96540 0.33020 -0.27000
C 	C 	0.70300 0.57500 0.28400 0.16000
H 	H 	0.79370 0.55620 0.26760 -0.00500
H 	H 	0.65220 0.58590 0.22600 -0.05000
C 	C 	0.64300 0.45800 0.34600 -0.42500
H 	H 	0.64630 0.37740 0.31080 0.17200
H 	H 	0.55250 0.47830 0.36220 0.12500
H 	H 	0.69340 0.44900 0.40390 0.14700
O 	O 	0.32970 0.06980 0.80950 -0.49200
O 	O 	0.75030 0.07540 0.99170 -0.48000
O 	O 	0.92280 0.09990 0.91100 -0.50100
O 	O 	0.30400 0.30700 0.83990 -0.25300
H 	H 	0.37660 0.25750 0.81150 0.12400
C 	C 	0.80670 0.07290 0.91510 0.51000
C 	C 	0.59930 0.03550 0.82990 0.17400
H 	H 	0.55360 0.06050 0.88460 -0.01100
C 	C 	0.73310 0.03460 0.83020 -0.27000
C 	C 	0.29700 0.42500 0.78400 0.14700
H 	H 	0.20630 0.44380 0.76760 -0.00200
H 	H 	0.34780 0.41410 0.72600 -0.04200
C 	C 	0.35700 0.54200 0.84600 -0.41800
H 	H 	0.35370 0.62260 0.81080 0.17600
H 	H 	0.44750 0.52170 0.86220 0.12300
H 	H 	0.30660 0.55100 0.90390 0.14800
O 	O 	0.06980 0.32970 0.94050 -0.48400
O 	O 	0.07540 0.75030 0.75830 -0.49200
O 	O 	0.09990 0.92280 0.83900 -0.50600
O 	O 	0.30700 0.30400 0.91010 -0.28600
H 	H 	0.25750 0.37660 0.93850 0.13600
C 	C 	0.07290 0.80670 0.83490 0.51000
C 	C 	0.03550 0.59930 0.92010 0.18600
H 	H 	0.06050 0.55360 0.86540 -0.01600
C 	C 	0.03460 0.73310 0.91980 -0.26300
C 	C 	0.42500 0.29700 0.96600 0.23000
H 	H 	0.44380 0.20630 0.98240 -0.02100
H 	H 	0.41410 0.34780 0.02400 -0.09300
C 	C 	0.54200 0.35700 0.90400 -0.48400
H 	H 	0.62260 0.35370 0.93920 0.17400
H 	H 	0.52170 0.44750 0.88780 0.14800
H 	H 	0.55100 0.30660 0.84610 0.16600
O 	O 	0.93020 0.67030 0.44050 -0.47700
O 	O 	0.92460 0.24970 0.25830 -0.48600
O 	O 	0.90010 0.07720 0.33900 -0.53700
O 	O 	0.69300 0.69600 0.41010 -0.27100
H 	H 	0.74250 0.62340 0.43850 0.13000
C 	C 	0.92710 0.19330 0.33490 0.52500
C 	C 	0.96450 0.40070 0.42010 0.21900
H 	H 	0.93950 0.44640 0.36540 -0.02100
C 	C 	0.96540 0.26690 0.41980 -0.27000
C 	C 	0.57500 0.70300 0.46600 0.16500
H 	H 	0.55620 0.79370 0.48240 -0.00700
H 	H 	0.58590 0.65220 0.52400 -0.05300
C 	C 	0.45800 0.64300 0.40400 -0.42800
H 	H 	0.37740 0.64630 0.43920 0.17000
H 	H 	0.47830 0.55250 0.38780 0.12600
H 	H 	0.44900 0.69340 0.34610 0.14700
O 	O 	0.32970 0.93020 0.69050 -0.46900
O 	O 	0.75030 0.92460 0.50830 -0.48400
O 	O 	0.92280 0.90010 0.58900 -0.49600
O 	O 	0.30400 0.69300 0.66010 -0.27000
H 	H 	0.37660 0.74250 0.68850 0.13100
C 	C 	0.80670 0.92710 0.58490 0.51500
C 	C 	0.59930 0.96450 0.67010 0.20600
H 	H 	0.55360 0.93950 0.61540 -0.01600
C 	C 	0.73310 0.96540 0.66980 -0.24600
C 	C 	0.29700 0.57500 0.71600 0.16800
H 	H 	0.20630 0.55620 0.73240 -0.00900
H 	H 	0.34780 0.58590 0.77400 -0.05500
C 	C 	0.35700 0.45800 0.65400 -0.43000
H 	H 	0.35370 0.37740 0.68920 0.16800
H 	H 	0.44750 0.47830 0.63780 0.12700
H 	H 	0.30660 0.44900 0.59610 0.14700
O 	O 	0.67030 0.06980 0.19050 -0.50000
O 	O 	0.24970 0.07540 0.00830 -0.50400
O 	O 	0.07720 0.09990 0.08900 -0.54900
O 	O 	0.69600 0.30700 0.16010 -0.27800
H 	H 	0.62340 0.25750 0.18850 0.13200
C 	C 	0.19330 0.07290 0.08490 0.52300
C 	C 	0.40070 0.03550 0.17010 0.18900
H 	H 	0.44640 0.06050 0.11540 -0.02100
C 	C 	0.26690 0.03460 0.16980 -0.29800
C 	C 	0.70300 0.42500 0.21600 0.17200
H 	H 	0.79370 0.44380 0.23240 -0.00800
H 	H 	0.65220 0.41410 0.27400 -0.05400
C 	C 	0.64300 0.54200 0.15400 -0.44100
H 	H 	0.64630 0.62260 0.18920 0.17700
H 	H 	0.55250 0.52170 0.13780 0.13400
H 	H 	0.69340 0.55100 0.09610 0.15200
Gd	Gd	0.85983 0.14017 0.12500 1.84400
Gd	Gd	0.14017 0.85983 0.62500 1.86100
Gd	Gd	0.85983 0.85983 0.37500 1.90700
Gd	Gd	0.14017 0.14017 0.87500 1.82400
C 	C 	-0.00000 0.38650 -0.00000 0.46400
C 	C 	-0.00000 0.53030 -0.00000 -0.29600
C 	C 	-0.00000 0.79700 -0.00000 0.15500
H 	H 	-0.00000 0.88910 -0.00000 -0.03600
C 	C 	-0.00000 0.61350 0.50000 0.48000
C 	C 	0.00000 0.46970 0.50000 -0.30100
C 	C 	-0.00000 0.20300 0.50000 0.18400
H 	H 	-0.00000 0.11090 0.50000 -0.06300
C 	C 	0.61350 0.00000 0.25000 0.48000
C 	C 	0.46970 0.00000 0.25000 -0.30200
C 	C 	0.20300 0.00000 0.25000 0.18500
H 	H 	0.11090 0.00000 0.25000 -0.06200
C 	C 	0.38650 -0.00000 0.75000 0.47300
C 	C 	0.53030 -0.00000 0.75000 -0.28800
C 	C 	0.79700 -0.00000 0.75000 0.16700
H 	H 	0.88910 -0.00000 0.75000 -0.03500
