data_crystal

_cell_length_a 10.33900
_cell_length_b 10.33900
_cell_length_c 14.05700
_cell_angle_alpha 90.00000
_cell_angle_beta  90.00000
_cell_angle_gamma 90.00000

_symmetry_space_group_name_	'P 1'
_symmetry_space_group_name_H-M	'P 1'

loop_
_symmetry_equiv_pos_as_xyz
  x,y,z

loop_
_atom_site_label
_atom_site_type_symbol
_atom_site_fract_x
_atom_site_fract_y
_atom_site_fract_z
_atom_site_charge
Gd	Gd	0.87197 0.86350 0.83391 1.63600
Gd	Gd	0.12803 0.13650 0.33391 1.63200
Gd	Gd	0.13650 0.87197 0.08391 1.62300
Gd	Gd	0.86350 0.12803 0.58391 1.63200
H 	H 	0.11550 0.99160 0.69740 -0.01400
H 	H 	0.45330 0.90310 0.82820 0.01000
H 	H 	0.45250 0.00580 0.54870 0.01700
H 	H 	0.88450 0.00840 0.19740 -0.01400
H 	H 	0.54670 0.09690 0.32820 0.00800
H 	H 	0.54750 0.99420 0.04870 0.01400
H 	H 	0.00840 0.11550 0.94740 -0.01700
H 	H 	0.09690 0.45330 0.07820 0.01000
H 	H 	0.99420 0.45250 0.79870 0.01600
H 	H 	0.99160 0.88450 0.44740 -0.01500
H 	H 	0.90310 0.54670 0.57820 0.00800
H 	H 	0.00580 0.54750 0.29870 0.01600
C 	C 	0.20180 0.03820 0.52190 0.35700
C 	C 	0.27330 0.00190 0.60950 -0.17300
C 	C 	0.20680 0.98120 0.69490 0.12700
C 	C 	0.27500 0.94540 0.77600 -0.20100
C 	C 	0.40760 0.92980 0.77290 0.12400
C 	C 	0.47450 0.95340 0.68830 -0.18900
C 	C 	0.40710 0.98960 0.60630 0.10800
C 	C 	0.20090 0.92330 0.86670 0.45400
C 	C 	0.62090 0.95370 0.69010 0.46300
C 	C 	0.79820 0.96180 0.02190 0.34600
C 	C 	0.72670 0.99810 0.10950 -0.17100
C 	C 	0.79320 0.01880 0.19490 0.12600
C 	C 	0.72500 0.05460 0.27600 -0.20300
C 	C 	0.59240 0.07020 0.27290 0.12400
C 	C 	0.52550 0.04660 0.18830 -0.19000
C 	C 	0.59290 0.01040 0.10630 0.10700
C 	C 	0.79910 0.07670 0.36670 0.45500
C 	C 	0.37910 0.04630 0.19010 0.46300
C 	C 	0.96180 0.20180 0.77190 0.36000
C 	C 	0.99810 0.27330 0.85950 -0.17800
C 	C 	0.01880 0.20680 0.94490 0.14300
C 	C 	0.05460 0.27500 0.02600 -0.21400
C 	C 	0.07020 0.40760 0.02290 0.11600
C 	C 	0.04660 0.47450 0.93830 -0.18300
C 	C 	0.01040 0.40710 0.85630 0.11000
C 	C 	0.07670 0.20090 0.11670 0.45700
C 	C 	0.04630 0.62090 0.94010 0.47400
C 	C 	0.03820 0.79820 0.27190 0.35800
C 	C 	0.00190 0.72670 0.35950 -0.17400
C 	C 	0.98120 0.79320 0.44490 0.12800
C 	C 	0.94540 0.72500 0.52600 -0.20300
C 	C 	0.92980 0.59240 0.52290 0.12500
C 	C 	0.95340 0.52550 0.43830 -0.19100
C 	C 	0.98960 0.59290 0.35630 0.10900
C 	C 	0.92330 0.79910 0.61670 0.45600
C 	C 	0.95370 0.37910 0.44010 0.46300
O 	O 	0.25220 0.00680 0.44130 -0.40100
O 	O 	0.09580 0.10180 0.52314 -0.44700
O 	O 	0.07980 0.92780 0.86473 -0.49300
O 	O 	0.26220 0.90570 0.94231 -0.42500
O 	O 	0.67670 0.89090 0.75514 -0.47100
O 	O 	0.67530 0.01840 0.62568 -0.46500
O 	O 	0.74780 0.99320 0.94130 -0.39100
O 	O 	0.90420 0.89820 0.02314 -0.44800
O 	O 	0.92020 0.07220 0.36473 -0.49500
O 	O 	0.73780 0.09430 0.44231 -0.43200
O 	O 	0.32330 0.10910 0.25514 -0.47100
O 	O 	0.32470 0.98160 0.12568 -0.46700
O 	O 	0.99320 0.25220 0.69130 -0.40100
O 	O 	0.89820 0.09580 0.77314 -0.44800
O 	O 	0.07220 0.07980 0.11473 -0.49700
O 	O 	0.09430 0.26220 0.19231 -0.43300
O 	O 	0.10910 0.67670 0.00514 -0.48100
O 	O 	0.98160 0.67530 0.87568 -0.46700
O 	O 	0.00680 0.74780 0.19130 -0.40100
O 	O 	0.10180 0.90420 0.27314 -0.44700
O 	O 	0.92780 0.92020 0.61473 -0.49500
O 	O 	0.90570 0.73780 0.69231 -0.43200
O 	O 	0.89090 0.32330 0.50514 -0.47100
O 	O 	0.01840 0.32470 0.37568 -0.46600
