data_crystal

_cell_length_a 16.75670
_cell_length_b 16.75670
_cell_length_c 13.19240
_cell_angle_alpha 103.60080
_cell_angle_beta  103.60080
_cell_angle_gamma 109.54560

_symmetry_space_group_name_	'P 1'
_symmetry_space_group_name_H-M	'P 1'

loop_
_symmetry_equiv_pos_as_xyz
  x,y,z

loop_
_atom_site_label
_atom_site_type_symbol
_atom_site_fract_x
_atom_site_fract_y
_atom_site_fract_z
_atom_site_charge
Ag	Ag	0.76728 0.10284 0.79648 0.50100
Ag	Ag	0.49344 0.54674 0.88529 0.49600
C 	C 	0.40990 0.03690 0.62510 -0.14100
H 	H 	0.39500 0.98180 0.64250 0.10400
H 	H 	0.37320 0.02180 0.54880 0.08300
C 	C 	0.56710 0.05410 0.69930 0.08000
H 	H 	0.55600 0.02100 0.74590 0.01600
C 	C 	0.54550 0.11910 0.57800 -0.02000
H 	H 	0.51950 0.14010 0.52580 0.06200
C 	C 	0.63130 0.12970 0.61180 0.02000
H 	H 	0.67510 0.16070 0.58620 0.01100
C 	C 	0.20190 0.91990 0.51840 0.07000
H 	H 	0.22270 0.88170 0.54650 0.00700
C 	C 	0.13240 0.96800 0.41330 -0.00800
H 	H 	0.09400 0.97120 0.35220 0.00800
C 	C 	0.18080 0.03700 0.51120 -0.01300
H 	H 	0.18290 0.09490 0.52830 0.03200
C 	C 	0.28760 0.05320 0.69110 -0.13600
H 	H 	0.28530 0.01030 0.72970 0.08300
H 	H 	0.26750 0.09590 0.72810 0.07900
C 	C 	0.38470 0.10370 0.70270 0.08600
C 	C 	0.40000 0.18420 0.66510 -0.13300
H 	H 	0.46130 0.20570 0.66430 0.08200
H 	H 	0.36050 0.16230 0.58860 0.07800
C 	C 	0.31350 0.27070 0.74050 0.00400
H 	H 	0.25760 0.22320 0.71960 0.02700
C 	C 	0.33490 0.35870 0.79190 -0.02500
H 	H 	0.29600 0.38240 0.81300 0.03300
C 	C 	0.45310 0.34770 0.76700 0.06700
H 	H 	0.51190 0.36170 0.76760 -0.01100
C 	C 	0.37340 0.24280 0.02400 0.00300
H 	H 	0.33540 0.24860 0.06400 0.02100
C 	C 	0.36070 0.16790 0.94870 0.00800
H 	H 	0.31330 0.11170 0.92680 0.02900
C 	C 	0.48500 0.27620 0.96320 0.09000
H 	H 	0.53790 0.30730 0.95210 0.00600
C 	C 	0.44900 0.12940 0.82420 0.02700
C 	C 	0.52520 0.23080 0.33900 0.25800
C 	C 	0.55440 0.25080 0.26300 -0.10700
C 	C 	0.59230 0.21070 0.20900 0.01900
C 	C 	0.62830 0.13890 0.25430 0.25800
N 	N 	0.50420 0.07180 0.63430 -0.09600
N 	N 	0.64620 0.08980 0.68780 -0.19900
N 	N 	0.14750 0.89390 0.41660 -0.20700
N 	N 	0.22530 0.00530 0.57870 -0.10500
N 	N 	0.38810 0.26450 0.72500 -0.10700
N 	N 	0.42400 0.40740 0.80760 -0.21000
N 	N 	0.45060 0.31000 0.03360 -0.18800
N 	N 	0.42920 0.18840 0.91010 -0.11800
O 	O 	0.56260 0.30980 0.43790 -0.22500
O 	O 	0.45630 0.17170 0.34990 -0.23000
O 	O 	0.65640 0.16320 0.35720 -0.24400
O 	O 	0.57880 0.06320 0.17600 -0.22500
Ag	Ag	0.89716 0.23272 0.70352 0.50200
Ag	Ag	0.45326 0.50656 0.61471 0.49700
C 	C 	0.96310 0.59010 0.87490 -0.14100
H 	H 	0.01820 0.60500 0.85750 0.10400
H 	H 	0.97820 0.62680 0.95120 0.08200
C 	C 	0.94590 0.43290 0.80070 0.08000
H 	H 	0.97900 0.44400 0.75410 0.01600
C 	C 	0.88090 0.45450 0.92200 -0.02000
H 	H 	0.85990 0.48050 0.97420 0.06200
C 	C 	0.87030 0.36870 0.88820 0.02000
H 	H 	0.83930 0.32490 0.91380 0.01000
C 	C 	0.08010 0.79810 0.98160 0.07200
H 	H 	0.11830 0.77730 0.95350 0.00700
C 	C 	0.03200 0.86760 0.08670 -0.01000
H 	H 	0.02880 0.90600 0.14780 0.00900
C 	C 	0.96300 0.81920 0.98880 -0.01300
H 	H 	0.90510 0.81710 0.97170 0.03100
C 	C 	0.94680 0.71240 0.80890 -0.13600
H 	H 	0.98970 0.71470 0.77030 0.08300
H 	H 	0.90410 0.73250 0.77190 0.07900
C 	C 	0.89630 0.61530 0.79730 0.08600
C 	C 	0.81580 0.60000 0.83490 -0.13300
H 	H 	0.79430 0.53870 0.83570 0.08200
H 	H 	0.83770 0.63950 0.91140 0.07800
C 	C 	0.72930 0.68650 0.75950 0.00400
H 	H 	0.77680 0.74240 0.78040 0.02700
C 	C 	0.64130 0.66510 0.70810 -0.02500
H 	H 	0.61760 0.70400 0.68700 0.03300
C 	C 	0.65230 0.54690 0.73300 0.06700
H 	H 	0.63830 0.48810 0.73240 -0.01100
C 	C 	0.75720 0.62660 0.47600 0.00200
H 	H 	0.75140 0.66460 0.43600 0.02100
C 	C 	0.83210 0.63930 0.55130 0.00900
H 	H 	0.88830 0.68670 0.57320 0.02800
C 	C 	0.72380 0.51500 0.53680 0.09000
H 	H 	0.69270 0.46210 0.54790 0.00600
C 	C 	0.87060 0.55100 0.67580 0.02800
C 	C 	0.76920 0.47480 0.16100 0.25800
C 	C 	0.74920 0.44560 0.23700 -0.10700
C 	C 	0.78930 0.40770 0.29100 0.01900
C 	C 	0.86110 0.37170 0.24570 0.25800
N 	N 	0.92820 0.49580 0.86570 -0.09600
N 	N 	0.91020 0.35380 0.81220 -0.19900
N 	N 	0.10610 0.85250 0.08340 -0.20700
N 	N 	0.99470 0.77470 0.92130 -0.10600
N 	N 	0.73550 0.61190 0.77500 -0.10700
N 	N 	0.59260 0.57600 0.69240 -0.21000
N 	N 	0.69000 0.54940 0.46640 -0.18800
N 	N 	0.81160 0.57080 0.58990 -0.11800
O 	O 	0.69020 0.43740 0.06210 -0.22500
O 	O 	0.82830 0.54370 0.15010 -0.23000
O 	O 	0.83680 0.34360 0.14280 -0.24400
O 	O 	0.93680 0.42120 0.32400 -0.22500
Ag	Ag	0.23272 0.89716 0.20352 0.50200
Ag	Ag	0.50656 0.45326 0.11471 0.49700
C 	C 	0.59010 0.96310 0.37490 -0.14100
H 	H 	0.60500 0.01820 0.35750 0.10400
H 	H 	0.62680 0.97820 0.45120 0.08300
C 	C 	0.43290 0.94590 0.30070 0.08000
H 	H 	0.44400 0.97900 0.25410 0.01600
C 	C 	0.45450 0.88090 0.42200 -0.02000
H 	H 	0.48050 0.85990 0.47420 0.06200
C 	C 	0.36870 0.87030 0.38820 0.02000
H 	H 	0.32490 0.83930 0.41380 0.01100
C 	C 	0.79810 0.08010 0.48160 0.07000
H 	H 	0.77730 0.11830 0.45350 0.00700
C 	C 	0.86760 0.03200 0.58670 -0.00800
H 	H 	0.90600 0.02880 0.64780 0.00800
C 	C 	0.81920 0.96300 0.48880 -0.01300
H 	H 	0.81710 0.90510 0.47170 0.03200
C 	C 	0.71240 0.94680 0.30890 -0.13600
H 	H 	0.71470 0.98970 0.27030 0.08300
H 	H 	0.73250 0.90410 0.27190 0.07900
C 	C 	0.61530 0.89630 0.29730 0.08600
C 	C 	0.60000 0.81580 0.33490 -0.13300
H 	H 	0.53870 0.79430 0.33570 0.08200
H 	H 	0.63950 0.83770 0.41140 0.07800
C 	C 	0.68650 0.72930 0.25950 0.00400
H 	H 	0.74240 0.77680 0.28040 0.02700
C 	C 	0.66510 0.64130 0.20810 -0.02500
H 	H 	0.70400 0.61760 0.18700 0.03300
C 	C 	0.54690 0.65230 0.23300 0.06700
H 	H 	0.48810 0.63830 0.23240 -0.01100
C 	C 	0.62660 0.75720 0.97600 0.00300
H 	H 	0.66460 0.75140 0.93600 0.02100
C 	C 	0.63930 0.83210 0.05130 0.00800
H 	H 	0.68670 0.88830 0.07320 0.02900
C 	C 	0.51500 0.72380 0.03680 0.09000
H 	H 	0.46210 0.69270 0.04790 0.00600
C 	C 	0.55100 0.87060 0.17580 0.02700
C 	C 	0.47480 0.76920 0.66100 0.25800
C 	C 	0.44560 0.74920 0.73700 -0.10700
C 	C 	0.40770 0.78930 0.79100 0.01900
C 	C 	0.37170 0.86110 0.74570 0.25800
N 	N 	0.49580 0.92820 0.36570 -0.09600
N 	N 	0.35380 0.91020 0.31220 -0.19900
N 	N 	0.85250 0.10610 0.58340 -0.20700
N 	N 	0.77470 0.99470 0.42130 -0.10500
N 	N 	0.61190 0.73550 0.27500 -0.10700
N 	N 	0.57600 0.59260 0.19240 -0.21000
N 	N 	0.54940 0.69000 0.96640 -0.18800
N 	N 	0.57080 0.81160 0.08990 -0.11800
O 	O 	0.43740 0.69020 0.56210 -0.22500
O 	O 	0.54370 0.82830 0.65010 -0.23000
O 	O 	0.34360 0.83680 0.64280 -0.24400
O 	O 	0.42120 0.93680 0.82400 -0.22500
Ag	Ag	0.10284 0.76728 0.29648 0.50200
Ag	Ag	0.54674 0.49344 0.38529 0.49700
C 	C 	0.03690 0.40990 0.12510 -0.14100
H 	H 	0.98180 0.39500 0.14250 0.10400
H 	H 	0.02180 0.37320 0.04880 0.08200
C 	C 	0.05410 0.56710 0.19930 0.08000
H 	H 	0.02100 0.55600 0.24590 0.01600
C 	C 	0.11910 0.54550 0.07800 -0.02000
H 	H 	0.14010 0.51950 0.02580 0.06200
C 	C 	0.12970 0.63130 0.11180 0.02000
H 	H 	0.16070 0.67510 0.08620 0.01000
C 	C 	0.91990 0.20190 0.01840 0.07200
H 	H 	0.88170 0.22270 0.04650 0.00700
C 	C 	0.96800 0.13240 0.91330 -0.01000
H 	H 	0.97120 0.09400 0.85220 0.00900
C 	C 	0.03700 0.18080 0.01120 -0.01300
H 	H 	0.09490 0.18290 0.02830 0.03100
C 	C 	0.05320 0.28760 0.19110 -0.13600
H 	H 	0.01030 0.28530 0.22970 0.08300
H 	H 	0.09590 0.26750 0.22810 0.07900
C 	C 	0.10370 0.38470 0.20270 0.08600
C 	C 	0.18420 0.40000 0.16510 -0.13300
H 	H 	0.20570 0.46130 0.16430 0.08200
H 	H 	0.16230 0.36050 0.08860 0.07800
C 	C 	0.27070 0.31350 0.24050 0.00400
H 	H 	0.22320 0.25760 0.21960 0.02700
C 	C 	0.35870 0.33490 0.29190 -0.02500
H 	H 	0.38240 0.29600 0.31300 0.03300
C 	C 	0.34770 0.45310 0.26700 0.06700
H 	H 	0.36170 0.51190 0.26760 -0.01100
C 	C 	0.24280 0.37340 0.52400 0.00200
H 	H 	0.24860 0.33540 0.56400 0.02100
C 	C 	0.16790 0.36070 0.44870 0.00900
H 	H 	0.11170 0.31330 0.42680 0.02800
C 	C 	0.27620 0.48500 0.46320 0.09000
H 	H 	0.30730 0.53790 0.45210 0.00600
C 	C 	0.12940 0.44900 0.32420 0.02800
C 	C 	0.23080 0.52520 0.83900 0.25800
C 	C 	0.25080 0.55440 0.76300 -0.10700
C 	C 	0.21070 0.59230 0.70900 0.01900
C 	C 	0.13890 0.62830 0.75430 0.25800
N 	N 	0.07180 0.50420 0.13430 -0.09600
N 	N 	0.08980 0.64620 0.18780 -0.19900
N 	N 	0.89390 0.14750 0.91660 -0.20700
N 	N 	0.00530 0.22530 0.07870 -0.10600
N 	N 	0.26450 0.38810 0.22500 -0.10700
N 	N 	0.40740 0.42400 0.30760 -0.21000
N 	N 	0.31000 0.45060 0.53360 -0.18800
N 	N 	0.18840 0.42920 0.41010 -0.11800
O 	O 	0.30980 0.56260 0.93790 -0.22500
O 	O 	0.17170 0.45630 0.84990 -0.23000
O 	O 	0.16320 0.65640 0.85720 -0.24400
O 	O 	0.06320 0.57880 0.67600 -0.22500
