data_crystal

_cell_length_a 27.68410
_cell_length_b 27.68410
_cell_length_c 17.48010
_cell_angle_alpha 90.00000
_cell_angle_beta  90.00000
_cell_angle_gamma 120.00000

_symmetry_space_group_name_	'P 1'
_symmetry_space_group_name_H-M	'P 1'

loop_
_symmetry_equiv_pos_as_xyz
  x,y,z

loop_
_atom_site_label
_atom_site_type_symbol
_atom_site_fract_x
_atom_site_fract_y
_atom_site_fract_z
_atom_site_charge
C 	C 	0.65172 0.09463 0.17511 0.21800
C 	C 	0.66905 0.08432 0.10420 -0.22900
H 	H 	0.68299 0.11669 0.06106 0.08400
C 	C 	0.66319 0.03338 0.08035 0.19500
C 	C 	0.77061 0.05130 0.24567 0.25600
C 	C 	0.65551 0.15014 0.18757 -0.03800
C 	C 	0.61309 0.15512 0.22446 -0.03500
H 	H 	0.57602 0.11832 0.24450 0.04100
C 	C 	0.61793 0.20806 0.23308 0.02000
H 	H 	0.58472 0.21153 0.26031 0.01800
N 	N 	0.66385 0.25494 0.20653 -0.17700
C 	C 	0.70585 0.25123 0.17181 0.02200
H 	H 	0.74202 0.28868 0.15119 0.01100
C 	C 	0.70263 0.19947 0.16201 -0.04400
H 	H 	0.73712 0.19818 0.13486 0.03800
C 	C 	0.67501 0.02644 -0.00097 -0.07900
C 	C 	0.72891 0.05951 0.96953 -0.03000
H 	H 	0.76195 0.09028 1.00530 0.03800
C 	C 	0.74086 0.05178 0.89413 0.01100
H 	H 	0.78313 0.07635 0.87368 0.02100
N 	N 	0.70031 0.01327 0.84752 -0.19200
C 	C 	0.64723 0.98119 0.87447 0.04200
H 	H 	0.61536 0.95062 0.83730 0.01200
C 	C 	0.63383 0.98657 0.95068 0.00800
H 	H 	0.59173 0.96018 -0.02855 0.03900
C 	C 	0.82567 0.10429 0.24840 -0.04900
C 	C 	0.87648 0.10567 0.23501 -0.03800
H 	H 	0.87787 0.06840 0.22068 0.03000
C 	C 	0.92675 0.15638 0.23840 0.02100
H 	H 	0.96560 0.15705 0.22876 0.01600
N 	N 	0.92712 0.20479 0.25332 -0.16900
C 	C 	0.87877 0.20510 0.26542 0.02300
H 	H 	0.87996 0.24409 0.27674 0.01700
C 	C 	0.82751 0.15525 0.26313 -0.03100
H 	H 	0.78959 0.15658 0.27328 0.05100
O 	O 	0.63440 0.05842 0.22929 -0.38200
O 	O 	0.65009 0.99335 0.12708 -0.33100
O 	O 	0.72788 0.05566 0.23141 -0.39500
C 	C 	0.50039 0.17316 0.39228 -0.04700
C 	C 	0.47013 0.12764 0.34362 0.00100
C 	C 	0.54183 0.17451 0.43955 0.00000
C 	C 	0.48029 0.08300 0.34363 -0.08900
C 	C 	0.55259 0.13025 0.43884 -0.08800
C 	C 	0.52149 0.08392 0.39140 0.08000
C 	C 	0.53228 0.03592 0.39076 -0.20100
O 	O 	0.54454 0.29355 0.38730 -0.17600
C 	C 	0.91244 0.55489 0.18272 0.23100
C 	C 	0.92203 0.58254 0.11187 -0.24400
H 	H 	0.88955 0.56397 0.06892 0.09400
C 	C 	0.97204 0.62915 0.08869 0.26800
C 	C 	0.95296 0.71926 0.24806 0.28500
C 	C 	0.85911 0.50037 0.19382 -0.03300
C 	C 	0.82908 0.48841 0.26285 -0.03600
H 	H 	0.84565 0.51700 0.31068 0.05200
C 	C 	0.77585 0.44047 0.26897 0.02100
H 	H 	0.75238 0.43235 0.32153 0.00800
N 	N 	0.75299 0.40483 0.20867 -0.17600
C 	C 	0.78204 0.41433 0.14221 0.02600
H 	H 	0.76363 0.38547 0.09506 0.02100
C 	C 	0.83506 0.46165 0.13361 -0.04200
H 	H 	0.85673 0.46814 0.07972 0.04300
C 	C 	0.97884 0.64832 0.00758 -0.01300
C 	C 	0.94642 0.67013 0.97883 -0.03800
H 	H 	0.91603 0.67275 1.01501 0.04400
C 	C 	0.95434 0.69028 0.90358 0.03100
H 	H 	0.93022 0.70859 0.88345 0.02200
N 	N 	0.99242 0.68779 0.85659 -0.14900
C 	C 	0.02385 0.66587 0.88285 -0.00300
H 	H 	0.05392 0.66401 0.84530 0.01400
C 	C 	0.01825 0.64657 0.95876 -0.06100
H 	H 	0.04414 0.63012 -0.02101 0.04800
C 	C 	0.89952 0.72050 0.24962 -0.05100
C 	C 	0.89400 0.76162 0.28969 -0.03200
H 	H 	0.92851 0.79439 0.32101 0.04400
C 	C 	0.84250 0.75976 0.29111 0.02300
H 	H 	0.83844 0.79169 0.32122 0.01300
N 	N 	0.79741 0.71814 0.25481 -0.17500
C 	C 	0.80101 0.67717 0.21693 0.02000
H 	H 	0.76460 0.64448 0.18848 0.01400
C 	C 	0.85174 0.67758 0.21361 -0.02700
H 	H 	0.85364 0.64467 0.18264 0.04900
O 	O 	0.94722 0.57605 0.23840 -0.35400
O 	O 	0.01155 0.65700 0.13573 -0.40400
O 	O 	0.94881 0.67164 0.24006 -0.38400
O 	O 	0.44067 0.22627 0.32564 -0.16600
O 	O 	0.45609 0.23130 0.48071 -0.16900
C 	C 	0.45073 0.35368 0.19075 0.22900
C 	C 	0.42342 0.33774 0.11949 -0.23800
H 	H 	0.44250 0.32506 0.07569 0.09300
C 	C 	0.37636 0.34091 0.09765 0.23400
C 	C 	0.28831 0.23229 0.24829 0.24100
C 	C 	0.50245 0.34971 0.20188 -0.02500
C 	C 	0.55060 0.39224 0.23735 -0.02900
H 	H 	0.55129 0.42930 0.25866 0.04900
C 	C 	0.59905 0.38765 0.24258 0.03600
H 	H 	0.63660 0.42123 0.26764 0.01200
N 	N 	0.59933 0.34161 0.21512 -0.17000
C 	C 	0.55251 0.29895 0.18361 0.03900
H 	H 	0.55324 0.26250 0.16312 0.01400
C 	C 	0.50389 0.30224 0.17604 -0.03200
H 	H 	0.46752 0.26764 0.15012 0.04200
C 	C 	0.35637 0.32973 0.01628 -0.04400
C 	C 	0.29897 0.29859 1.00044 -0.03100
H 	H 	0.26882 0.28318 1.04660 0.04700
C 	C 	0.28023 0.28539 0.92456 0.02000
H 	H 	0.23605 0.26009 0.91316 0.01100
N 	N 	0.31703 0.30364 0.86512 -0.17500
C 	C 	0.37290 0.33490 0.87855 0.02200
H 	H 	0.40165 0.34903 0.83084 0.01400
C 	C 	0.39352 0.34815 0.95379 -0.03500
H 	H 	0.43810 0.37281 -0.03710 0.04200
C 	C 	0.28634 0.17745 0.24652 -0.04100
C 	C 	0.24219 0.12927 0.27967 -0.04300
H 	H 	0.20750 0.13007 0.30683 0.03000
C 	C 	0.24378 0.07956 0.28049 0.01800
H 	H 	0.21019 0.04273 0.30690 -0.00200
N 	N 	0.28791 0.07747 0.25000 -0.18100
C 	C 	0.33151 0.12345 0.21820 0.02400
H 	H 	0.36642 0.12094 0.19499 0.01000
C 	C 	0.33145 0.17393 0.21567 -0.02700
H 	H 	0.36656 0.21005 0.19013 0.05400
O 	O 	0.43163 0.36971 0.24622 -0.36300
O 	O 	0.34838 0.35118 0.14643 -0.37600
O 	O 	0.33636 0.27567 0.25154 -0.37900
C 	C 	0.09808 0.64809 0.30326 0.22100
C 	C 	0.08761 0.66285 0.37590 -0.22700
H 	H 	0.11888 0.67147 0.41897 0.08900
C 	C 	0.03829 0.66088 0.40011 0.19600
C 	C 	0.05742 0.77152 0.25216 0.25400
C 	C 	0.15341 0.65178 0.28995 -0.03100
C 	C 	0.15880 0.61075 0.24963 -0.03500
H 	H 	0.12239 0.57490 0.22594 0.04700
C 	C 	0.21174 0.61530 0.24229 0.02900
H 	H 	0.21563 0.58296 0.21308 0.01600
N 	N 	0.25804 0.65972 0.27288 -0.17200
C 	C 	0.25395 0.70080 0.30965 0.03100
H 	H 	0.29088 0.73611 0.33271 0.01500
C 	C 	0.20235 0.69777 0.31857 -0.04200
H 	H 	0.20083 0.73141 0.34798 0.03900
C 	C 	0.03074 0.67194 0.48263 -0.06700
C 	C 	0.07642 0.70586 0.53056 -0.03600
H 	H 	0.11887 0.72545 0.50992 0.03700
C 	C 	0.06769 0.71722 0.60600 0.01600
H 	H 	0.10330 0.74375 0.64128 0.02000
N 	N 	0.01515 0.69676 0.63426 -0.19300
C 	C 	0.97017 0.66388 0.58931 0.04600
H 	H 	0.92856 0.64813 0.61122 0.01300
C 	C 	0.97703 0.65104 0.51362 0.00000
H 	H 	0.94041 0.62526 0.47934 0.04900
C 	C 	0.11097 0.82629 0.25379 -0.04600
C 	C 	0.11461 0.87664 0.23005 -0.03800
H 	H 	0.07862 0.87813 0.20928 0.03200
C 	C 	0.16620 0.92619 0.23075 0.02500
H 	H 	0.16877 0.96469 0.21231 0.01900
N 	N 	0.21328 0.92631 0.25344 -0.16700
C 	C 	0.21149 0.87816 0.27448 0.02500
H 	H 	0.24939 0.87851 0.29000 0.01100
C 	C 	0.16074 0.82780 0.27553 -0.03000
H 	H 	0.16057 0.79020 0.29306 0.05000
O 	O 	0.06270 0.63357 0.24845 -0.37200
O 	O 	0.99915 0.65041 0.35263 -0.33400
O 	O 	0.06171 0.72788 0.24877 -0.39200
O 	O 	0.37569 0.73899 0.95897 -0.19000
C 	C 	0.55276 0.90934 0.29578 0.23200
C 	C 	0.57789 0.91941 0.36837 -0.24700
H 	H 	0.55538 0.88796 0.41120 0.09400
C 	C 	0.62628 0.96791 0.39201 0.26500
C 	C 	0.71759 0.94711 0.25100 0.28900
C 	C 	0.49890 0.85605 0.28350 -0.04000
C 	C 	0.49139 0.82248 0.21915 -0.03400
H 	H 	0.52263 0.83691 0.17444 0.05200
C 	C 	0.44448 0.76857 0.21443 0.02400
H 	H 	0.43949 0.74235 0.16575 0.01800
N 	N 	0.40585 0.74856 0.27165 -0.17500
C 	C 	0.41125 0.78101 0.33319 0.02200
H 	H 	0.38041 0.76461 0.37814 0.02900
C 	C 	0.45714 0.83493 0.34001 -0.03900
H 	H 	0.46058 0.85941 0.39016 0.04300
C 	C 	0.64489 0.97560 0.47455 -0.00500
C 	C 	0.63131 0.92997 0.52356 -0.04700
H 	H 	0.60695 0.88739 0.50394 0.04000
C 	C 	0.65161 0.93878 0.59887 0.03200
H 	H 	0.64122 0.90321 0.63502 0.01800
N 	N 	0.68573 0.99127 0.62588 -0.15000
C 	C 	0.69956 0.03625 0.58003 -0.00300
H 	H 	0.72710 0.07779 0.60110 0.01600
C 	C 	0.67957 0.02933 0.50447 -0.07100
H 	H 	0.69176 0.06590 0.46940 0.05500
C 	C 	0.71972 0.89428 0.25408 -0.05100
C 	C 	0.76666 0.89185 0.22848 -0.03100
H 	H 	0.80315 0.92846 0.20656 0.04500
C 	C 	0.76599 0.84100 0.22891 0.02200
H 	H 	0.80208 0.83914 0.20924 0.01300
N 	N 	0.72016 0.79366 0.25341 -0.17600
C 	C 	0.67392 0.79440 0.27795 0.02100
H 	H 	0.63799 0.75616 0.29723 0.01100
C 	C 	0.67276 0.84442 0.27851 -0.02700
H 	H 	0.63548 0.84415 0.29806 0.04800
O 	O 	0.57557 0.94305 0.23964 -0.36500
O 	O 	0.65594 0.00623 0.34402 -0.41200
O 	O 	0.67004 0.94267 0.24064 -0.38100
C 	C 	0.36530 0.79945 0.09106 -0.04600
C 	C 	0.33821 0.80064 0.15800 0.00000
C 	C 	0.41599 0.84598 1.06918 0.00400
C 	C 	0.36180 0.84779 0.20456 -0.08100
C 	C 	0.44085 0.89426 1.11410 -0.08400
C 	C 	0.41543 0.89672 0.18201 0.08300
C 	C 	0.44194 0.94819 0.23034 -0.20900
O 	O 	0.32084 0.67933 0.08688 -0.20000
O 	O 	0.27205 0.72247 -0.00425 -0.17800
C 	C 	0.36194 0.44989 0.31340 0.22500
C 	C 	0.35076 0.42655 0.38726 -0.23800
H 	H 	0.34550 0.45103 0.43089 0.08800
C 	C 	0.35141 0.37842 0.41110 0.22800
C 	C 	0.23638 0.28442 0.25493 0.24000
C 	C 	0.35744 0.50124 0.29995 -0.03500
C 	C 	0.39341 0.54418 0.25013 -0.03600
H 	H 	0.42627 0.54156 0.22024 0.04600
C 	C 	0.38761 0.59169 0.24041 0.02300
H 	H 	0.41605 0.62516 0.20328 0.01200
N 	N 	0.34678 0.59612 0.27809 -0.17600
C 	C 	0.31077 0.55462 0.32516 0.02400
H 	H 	0.27853 0.55871 0.35432 0.01600
C 	C 	0.31510 0.50690 0.33651 -0.04100
H 	H 	0.28491 0.47434 0.37331 0.03700
C 	C 	0.34107 0.35995 0.49387 -0.03600
C 	C 	0.31285 0.37703 0.54491 -0.04500
H 	H 	0.29790 0.40466 0.52752 0.03400
C 	C 	0.30049 0.35593 0.61966 0.02400
H 	H 	0.27816 0.36896 0.65735 0.01500
N 	N 	0.31414 0.31765 0.64424 -0.17500
C 	C 	0.34168 0.30040 0.59686 0.02300
H 	H 	0.35182 0.26953 0.61672 0.02100
C 	C 	0.35562 0.32110 0.52166 -0.03500
H 	H 	0.37674 0.30593 0.48508 0.06600
C 	C 	0.18149 0.28224 0.25598 -0.04500
C 	C 	0.13708 0.24509 0.20910 -0.04400
H 	H 	0.14142 0.21679 0.17078 0.03000
C 	C 	0.08680 0.24560 0.20989 0.01700
H 	H 	0.05301 0.21755 0.17298 -0.00100
N 	N 	0.08034 0.28160 0.25595 -0.18100
C 	C 	0.12295 0.31882 0.30079 0.01500
H 	H 	0.11727 0.34771 0.33603 0.00900
C 	C 	0.17411 0.31999 0.30142 -0.03300
H 	H 	0.20754 0.34991 0.33752 0.04700
O 	O 	0.37386 0.42757 0.25759 -0.36900
O 	O 	0.35941 0.34841 0.36295 -0.37000
O 	O 	0.27982 0.33215 0.26238 -0.38400
C 	C 	0.35858 0.90640 0.81547 0.23100
C 	C 	0.34185 0.91701 0.88667 -0.24200
H 	H 	0.32762 0.88411 0.92889 0.09600
C 	C 	0.34624 0.96765 0.90982 0.26300
C 	C 	0.23795 0.94858 0.75629 0.28900
C 	C 	0.35437 0.85080 0.80324 -0.03100
C 	C 	0.39810 0.84544 0.77135 -0.03200
H 	H 	0.43648 0.88210 0.75404 0.05300
C 	C 	0.39276 0.79218 0.76443 0.03400
H 	H 	0.42708 0.78826 0.74205 0.01900
N 	N 	0.34499 0.74551 0.78697 -0.16900
C 	C 	0.30141 0.74962 0.81526 0.03800
H 	H 	0.26368 0.71230 0.83226 0.02100
C 	C 	0.30530 0.80170 0.82418 -0.03700
H 	H 	0.26999 0.80353 0.84741 0.04500
C 	C 	0.33582 0.97697 0.99178 0.00100
C 	C 	0.34312 0.94864 0.05396 -0.05300
H 	H 	0.35888 0.92035 0.04534 0.04400
C 	C 	0.33022 0.95710 0.12891 0.03400
H 	H 	0.33479 0.93449 0.17606 0.01000
N 	N 	0.31101 0.99290 0.14285 -0.15200
C 	C 	0.30398 0.02115 0.08404 -0.00300
H 	H 	0.28750 0.04853 0.09534 0.01300
C 	C 	0.31660 0.01421 0.00847 -0.07900
H 	H 	0.30987 0.03681 0.96306 0.05600
C 	C 	0.18259 0.89634 0.75660 -0.05300
C 	C 	0.13729 0.89202 0.71458 -0.03300
H 	H 	0.14114 0.92698 0.68187 0.04100
C 	C 	0.08690 0.84130 0.71245 0.01800
H 	H 	0.05249 0.83781 0.67889 0.00300
N 	N 	0.08110 0.79605 0.75121 -0.17800
C 	C 	0.12426 0.79897 0.79230 0.01800
H 	H 	0.11920 0.76258 0.82216 0.01400
C 	C 	0.17562 0.84876 0.79531 -0.02500
H 	H 	0.20961 0.85014 0.82778 0.04800
O 	O 	0.37528 0.94202 0.76065 -0.35300
O 	O 	0.35720 0.00629 0.86128 -0.40900
O 	O 	0.28113 0.94344 0.75554 -0.38100
C 	C 	0.09458 0.44885 0.81728 0.22200
C 	C 	0.08422 0.42395 0.89011 -0.22500
H 	H 	0.11545 0.44680 0.93294 0.08700
C 	C 	0.03582 0.37521 0.91366 0.19300
C 	C 	0.05730 0.28372 0.74801 0.25200
C 	C 	0.14777 0.50308 0.80462 -0.03500
C 	C 	0.18005 0.51123 0.73862 -0.03500
H 	H 	0.16497 0.48013 0.69368 0.05200
C 	C 	0.23372 0.55837 0.73248 0.02400
H 	H 	0.25896 0.56333 0.68270 0.02500
N 	N 	0.25484 0.59693 0.78977 -0.17400
C 	C 	0.22367 0.59110 0.85302 0.02100
H 	H 	0.24094 0.62203 0.89796 0.02500
C 	C 	0.17002 0.54474 0.86144 -0.04200
H 	H 	0.14663 0.54104 0.91286 0.04000
C 	C 	0.02808 0.35624 0.99615 -0.06000
C 	C 	0.07368 0.37186 0.04610 -0.04300
H 	H 	0.11625 0.39811 0.02764 0.03600
C 	C 	0.06506 0.35128 0.12113 0.01700
H 	H 	0.10062 0.36344 0.15806 0.01700
N 	N 	0.01288 0.31478 0.14700 -0.19400
C 	C 	0.96785 0.29873 0.10044 0.04700
H 	H 	0.92662 0.26928 0.12121 0.01300
C 	C 	0.97453 0.31901 0.02502 -0.00900
H 	H 	0.93800 0.30503 0.98925 0.05300
C 	C 	0.11047 0.28224 0.74857 -0.05200
C 	C 	0.11992 0.24814 0.69830 -0.04100
H 	H 	0.08881 0.22176 0.65687 0.02500
C 	C 	0.17102 0.24919 0.69997 0.01800
H 	H 	0.17832 0.22330 0.66083 0.00700
N 	N 	0.21177 0.28295 0.74989 -0.17600
C 	C 	0.20439 0.31746 0.79777 0.01700
H 	H 	0.23761 0.34472 0.83605 0.01500
C 	C 	0.15400 0.31781 0.79795 -0.03000
H 	H 	0.14894 0.34541 0.83688 0.04800
O 	O 	0.06128 0.42539 0.76092 -0.37500
O 	O 	0.99760 0.34540 0.86559 -0.33100
O 	O 	0.06070 0.33024 0.76360 -0.39400
O 	O 	0.31007 0.66500 0.45610 -0.19400
C 	C 	0.55560 0.64360 0.81710 0.22700
C 	C 	0.58266 0.66015 0.88858 -0.23400
H 	H 	0.56379 0.67363 0.93150 0.09000
C 	C 	0.63047 0.65835 0.91076 0.23100
C 	C 	0.71928 0.76974 0.74381 0.24100
C 	C 	0.50099 0.64224 0.80590 -0.03400
C 	C 	0.48866 0.65918 0.73613 -0.03400
H 	H 	0.51689 0.67029 0.68801 0.05500
C 	C 	0.44088 0.66464 0.72958 0.02200
H 	H 	0.43263 0.67932 0.67654 0.02400
N 	N 	0.40574 0.65310 0.79020 -0.17400
C 	C 	0.41537 0.63438 0.85726 0.02500
H 	H 	0.38682 0.62494 0.90457 0.01600
C 	C 	0.46251 0.62844 0.86627 -0.04200
H 	H 	0.46903 0.61385 0.92063 0.03900
C 	C 	0.65050 0.66959 0.99230 -0.02900
C 	C 	0.61378 0.65571 0.05498 -0.04700
H 	H 	0.56908 0.63430 0.04646 0.03800
C 	C 	0.63494 0.66936 0.12995 0.02600
H 	H 	0.60659 0.65913 0.17770 0.00700
N 	N 	0.69095 0.69604 0.14300 -0.17600
C 	C 	0.72731 0.70945 0.08360 0.02500
H 	H 	0.77169 0.73126 0.09472 0.01500
C 	C 	0.70798 0.69616 0.00804 -0.04100
H 	H 	0.73797 0.70796 0.96197 0.05600
C 	C 	0.72090 0.82446 0.74229 -0.04100
C 	C 	0.75527 0.86720 0.69108 -0.03900
H 	H 	0.78170 0.86172 0.65058 0.03900
C 	C 	0.75444 0.91736 0.69059 0.02700
H 	H 	0.78078 0.95015 0.65111 0.02100
N 	N 	0.72040 0.92512 0.73895 -0.16800
C 	C 	0.68619 0.88431 0.78843 0.02500
H 	H 	0.65925 0.89103 0.82620 0.01900
C 	C 	0.68560 0.83346 0.79074 -0.03100
H 	H 	0.65804 0.80153 0.83057 0.05200
O 	O 	0.57747 0.63181 0.76053 -0.36800
O 	O 	0.65928 0.64922 0.86199 -0.37400
O 	O 	0.67267 0.72667 0.75925 -0.38400
C 	C 	0.39793 0.64008 0.49232 -0.05100
C 	C 	0.38597 0.59019 0.52854 0.00600
C 	C 	0.43825 0.66196 0.43447 0.00300
C 	C 	0.41459 0.56255 0.50755 -0.09000
C 	C 	0.46694 0.63440 0.41343 -0.08800
C 	C 	0.45539 0.58458 0.44993 0.08900
C 	C 	0.48672 0.55562 0.42713 -0.20700
O 	O 	0.40459 0.74702 0.52349 -0.17800
C 	C 	0.91299 0.35626 0.69336 0.23100
C 	C 	0.92382 0.34032 0.62169 -0.24100
H 	H 	0.89191 0.32787 0.57822 0.09300
C 	C 	0.97303 0.34114 0.60003 0.26700
C 	C 	0.95313 0.23095 0.73972 0.28400
C 	C 	0.85975 0.35773 0.70413 -0.03300
C 	C 	0.82859 0.33787 0.77206 -0.03500
H 	H 	0.84419 0.32421 0.81925 0.05300
C 	C 	0.77543 0.33277 0.77774 0.02200
H 	H 	0.75103 0.31577 0.82925 0.02200
N 	N 	0.75368 0.34752 0.71812 -0.17700
C 	C 	0.78384 0.36890 0.65286 0.02200
H 	H 	0.76619 0.38070 0.60619 0.00500
C 	C 	0.83687 0.37444 0.64470 -0.04400
H 	H 	0.85940 0.39099 0.59169 0.04100
C 	C 	0.98148 0.32922 0.51875 -0.00600
C 	C 	1.00875 0.29894 0.50354 -0.03600
H 	H 	1.02435 0.28461 0.54998 0.06200
C 	C 	1.01447 0.28533 0.42797 0.03300
H 	H 	1.03434 0.26086 0.41714 0.02200
N 	N 	0.99489 0.30214 0.36813 -0.15100
C 	C 	-0.03088 0.33240 0.38082 -0.00200
H 	H 	-0.04622 0.34546 0.33278 0.00300
C 	C 	-0.03822 0.34625 0.45577 -0.08000
H 	H 	-0.05878 0.37037 0.46415 0.03100
C 	C 	0.89984 0.17616 0.73327 -0.05200
C 	C 	0.89746 0.12424 0.73974 -0.03500
H 	H 	0.93428 0.12103 0.74927 0.03700
C 	C 	0.84589 0.07477 0.73712 0.01700
H 	H 	0.84411 0.03505 0.74355 0.00200
N 	N 	0.79773 0.07622 0.72956 -0.17900
C 	C 	0.79844 0.12550 0.72369 0.01900
H 	H 	0.75958 0.12578 0.71995 0.00800
C 	C 	0.84903 0.17588 0.72461 -0.02900
H 	H 	0.84812 0.21443 0.71996 0.05000
O 	O 	0.94628 0.36744 0.75031 -0.35300
O 	O 	0.01082 0.34994 0.64890 -0.41300
O 	O 	0.94819 0.27351 0.75285 -0.38500
O 	O 	0.65200 0.35419 1.05216 -0.20000
C 	C 	0.45622 0.09188 0.69455 0.22100
C 	C 	0.43083 0.08241 0.62210 -0.22500
H 	H 	0.45178 0.11470 0.57934 0.09400
C 	C 	0.38378 0.03306 0.59768 0.19500
C 	C 	0.29063 0.05276 0.75027 0.25500
C 	C 	0.51015 0.14515 0.70742 -0.03400
C 	C 	0.51720 0.17903 0.77121 -0.03400
H 	H 	0.48532 0.16509 0.81500 0.05100
C 	C 	0.56425 0.23289 0.77611 0.02300
H 	H 	0.56820 0.25955 0.82363 0.02800
N 	N 	0.60387 0.25251 0.72007 -0.17600
C 	C 	0.59916 0.21958 0.65938 0.02300
H 	H 	0.63097 0.23557 0.61547 0.00400
C 	C 	0.55269 0.16584 0.65200 -0.04400
H 	H 	0.54940 0.14093 0.60255 0.03600
C 	C 	0.36577 0.02698 0.51569 -0.06800
C 	C 	0.36019 0.06923 0.47953 -0.03400
H 	H 	0.37019 0.10724 0.50981 0.04900
C 	C 	0.33945 0.06175 0.40465 0.01500
H 	H 	0.33451 0.09447 0.37912 0.02800
N 	N 	0.32519 0.01401 0.36485 -0.19400
C 	C 	0.33197 0.97306 0.39786 0.04500
H 	H 	0.32172 0.93576 0.36604 0.00600
C 	C 	0.35136 0.97834 0.47369 0.00100
H 	H 	0.35520 0.94478 0.49921 0.04700
C 	C 	0.28926 0.10612 0.74934 -0.05000
C 	C 	0.24229 0.10876 0.72442 -0.04000
H 	H 	0.20548 0.07237 0.70288 0.02500
C 	C 	0.24294 0.15960 0.72595 0.01800
H 	H 	0.20650 0.16120 0.70770 0.00400
N 	N 	0.28892 0.20694 0.75022 -0.17600
C 	C 	0.33552 0.20614 0.77283 0.02200
H 	H 	0.37184 0.24430 0.79126 0.01600
C 	C 	0.33656 0.15608 0.77283 -0.02900
H 	H 	0.37397 0.15643 0.79189 0.05200
O 	O 	0.43345 0.05738 0.75005 -0.37500
O 	O 	0.35464 0.99354 0.64436 -0.32800
O 	O 	0.33836 0.05666 0.74602 -0.39400
C 	C 	0.58027 0.23989 1.00051 -0.04900
C 	C 	0.60926 0.21056 1.00311 0.00400
C 	C 	0.52327 0.21248 0.01795 0.00000
C 	C 	0.58151 0.15417 1.02341 -0.08700
C 	C 	0.49559 0.15623 0.03922 -0.09000
C 	C 	0.52466 0.12677 1.04230 0.08700
C 	C 	0.49583 0.06663 1.06586 -0.20000
O 	O 	0.57337 0.33641 0.94421 -0.17500
C 	C 	0.64701 0.55279 0.69135 0.22500
C 	C 	0.66261 0.57938 0.61948 -0.23500
H 	H 	0.67587 0.56035 0.57651 0.08800
C 	C 	0.66022 0.62688 0.59716 0.23100
C 	C 	0.77231 0.71855 0.73765 0.24100
C 	C 	0.64631 0.49843 0.70255 -0.03300
C 	C 	0.66557 0.48725 0.77114 -0.03400
H 	H 	0.67815 0.51625 0.81854 0.05600
C 	C 	0.67148 0.43966 0.77730 0.02600
H 	H 	0.68794 0.43234 0.82940 0.02900
N 	N 	0.65820 0.40356 0.71745 -0.17600
C 	C 	0.63729 0.41212 0.65158 0.02300
H 	H 	0.62651 0.38292 0.60478 0.01100
C 	C 	0.63089 0.45908 0.64298 -0.04300
H 	H 	0.61470 0.46484 0.58949 0.04000
C 	C 	0.67099 0.64681 0.51552 -0.03800
C 	C 	0.65856 0.61025 0.45293 -0.04500
H 	H 	0.63820 0.56560 0.46141 0.03600
C 	C 	0.67248 0.63152 0.37805 0.02200
H 	H 	0.66359 0.60333 0.33044 0.00900
N 	N 	0.69787 0.68746 0.36496 -0.17500
C 	C 	0.70927 0.72362 0.42413 0.02100
H 	H 	0.72973 0.76794 0.41288 0.01500
C 	C 	0.69587 0.70417 0.49963 -0.03400
H 	H 	0.70641 0.73407 0.54557 0.05100
C 	C 	0.82758 0.72075 0.73480 -0.04000
C 	C 	0.87890 0.77066 0.74380 -0.04000
H 	H 	0.88129 0.81036 0.75286 0.04000
C 	C 	0.92884 0.76949 0.74435 0.02600
H 	H 	0.96791 0.80779 0.75259 0.02200
N 	N 	0.92857 0.72045 0.73744 -0.16900
C 	C 	0.87984 0.67139 0.73035 0.02400
H 	H 	0.88033 0.63261 0.72772 0.01500
C 	C 	0.82898 0.67068 0.72797 -0.03300
H 	H 	0.79091 0.63091 0.72209 0.05300
O 	O 	0.63556 0.57486 0.74809 -0.36500
O 	O 	0.65106 0.65566 0.64593 -0.37700
O 	O 	0.72950 0.67076 0.74808 -0.38600
O 	O 	0.66575 0.32905 0.90608 -0.20500
C 	C 	0.76623 -0.00079 0.25898 -0.30000
H 	H 	0.80365 -0.00112 0.27549 0.09200
Fe	Fe	0.65195 -0.00013 0.23540 1.28300
C 	C 	0.00508 0.76830 0.25450 -0.29500
H 	H 	0.00480 0.80694 0.26011 0.09200
Fe	Fe	0.00516 0.65239 0.24404 1.28500
C 	C 	0.23936 0.23556 0.24665 -0.24900
H 	H 	0.20031 0.19684 0.24104 0.08500
Fe	Fe	0.35532 0.35119 0.25455 1.30300
C 	C 	0.24148 0.00089 0.75673 -0.30000
H 	H 	0.20265 0.00083 0.76357 0.08900
Fe	Fe	0.35699 -0.00014 0.75298 1.28400
C 	C 	0.00593 0.23563 0.73222 -0.29900
H 	H 	0.00737 0.19850 0.71798 0.08700
Fe	Fe	0.00413 0.34902 0.75707 1.28600
C 	C 	0.76762 0.76660 0.72999 -0.24700
H 	H 	0.80488 0.80531 0.71676 0.09300
Fe	Fe	0.65391 0.65115 0.75398 1.30400
Ag	Ag	0.67183 0.33474 0.21430 0.55500
S 	S 	0.48568 0.22922 0.39539 0.24100
Ag	Ag	0.33745 0.66685 0.26948 0.55900
S 	S 	0.33502 0.73730 0.03422 0.23900
Ag	Ag	0.33668 0.66556 0.78479 0.56200
S 	S 	0.36182 0.67598 0.51968 0.24000
Ag	Ag	0.67189 0.33500 0.72243 0.55200
S 	S 	0.61633 0.31250 0.97595 0.24100
Ag	Ag	0.72245 0.00143 0.73558 0.54400
Ag	Ag	0.00446 0.72199 0.74482 0.54500
Ag	Ag	0.28591 0.28054 0.75271 0.56400
Ag	Ag	0.28786 0.00238 0.25463 0.54300
Ag	Ag	0.00356 0.27859 0.25635 0.54500
Ag	Ag	0.72347 0.72043 0.25424 0.56500
H 	H 	0.43830 0.12640 0.30639 0.02900
H 	H 	0.56562 0.20974 0.47703 0.03200
H 	H 	0.45603 0.04780 0.30643 0.03200
H 	H 	0.58502 0.13209 0.47545 0.04700
H 	H 	0.56493 0.04200 0.43284 0.06900
H 	H 	0.54660 0.03190 0.33309 0.07100
H 	H 	0.49335 -0.00328 0.40516 0.05600
H 	H 	0.29890 0.76475 0.17409 0.03700
H 	H 	0.43654 0.84476 1.01716 0.04000
H 	H 	0.34075 0.84829 0.25651 0.04600
H 	H 	0.48008 0.92962 1.09612 0.06200
H 	H 	0.44485 0.98375 0.19733 0.07800
H 	H 	0.48441 0.95785 0.24721 0.09000
H 	H 	0.41716 0.94255 0.28293 0.07200
H 	H 	0.35470 0.57286 0.57312 0.03200
H 	H 	0.44750 0.70035 0.40589 0.02900
H 	H 	0.40501 0.52412 0.53632 0.05000
H 	H 	0.49811 0.65180 0.36870 0.04900
H 	H 	0.48008 0.54504 0.36535 0.07500
H 	H 	0.47257 0.51653 0.46009 0.07700
H 	H 	0.53197 0.58360 0.43773 0.07600
H 	H 	0.65332 0.23139 0.98969 0.03300
H 	H 	0.50049 0.23483 0.01611 0.03400
H 	H 	0.60437 0.13192 1.02502 0.05000
H 	H 	0.45164 0.13582 0.05340 0.04900
H 	H 	0.51745 0.06164 1.11617 0.06200
H 	H 	0.49694 0.04078 1.01806 0.06400
H 	H 	0.45164 0.05128 1.08151 0.06200
O 	O 	0.32991 0.65660 0.60736 -0.20300
