data_crystal

_cell_length_a 19.77200
_cell_length_b 9.99700
_cell_length_c 23.51000
_cell_angle_alpha 90.00000
_cell_angle_beta  105.50000
_cell_angle_gamma 90.00000

_symmetry_space_group_name_	'P 1'
_symmetry_space_group_name_H-M	'P 1'

loop_
_symmetry_equiv_pos_as_xyz
  x,y,z

loop_
_atom_site_label
_atom_site_type_symbol
_atom_site_fract_x
_atom_site_fract_y
_atom_site_fract_z
_atom_site_charge
Cd	Cd	0.36787 0.50424 0.25109 1.07700
N 	N 	0.26381 0.52730 0.17995 -0.29700
N 	N 	0.17871 0.62850 0.11067 -0.10600
N 	N 	0.15208 0.52810 0.13692 -0.11300
N 	N 	0.30389 0.51950 0.32189 -0.28800
N 	N 	0.23995 0.63810 0.36932 -0.13400
N 	N 	0.27389 0.53610 0.40401 -0.10100
C 	C 	0.24610 0.62260 0.13805 0.06600
H 	H 	0.27890 0.67980 0.12920 -0.04200
C 	C 	0.20256 0.47020 0.17819 0.07400
H 	H 	0.19610 0.40030 0.20230 -0.05900
C 	C 	0.07609 0.50210 0.12365 -0.01600
H 	H 	0.05500 0.56920 0.14330 -0.00700
H 	H 	0.06890 0.41560 0.13980 -0.01300
C 	C 	0.08600 0.27050 0.05170 -0.51800
H 	H 	0.11780 0.29670 0.08850 0.17100
H 	H 	0.11220 0.24060 0.02510 0.16700
H 	H 	0.05660 0.19920 0.05850 0.13800
C 	C 	0.04079 0.38910 0.02496 0.07800
C 	C 	0.03875 0.50350 0.05824 -0.08200
C 	C 	0.99894 0.61530 0.03439 0.05300
C 	C 	0.99870 0.73910 0.07110 -0.43500
H 	H 	0.95980 0.73530 0.08830 0.10600
H 	H 	0.99440 0.81690 0.04650 0.12100
H 	H 	0.04170 0.74380 0.10190 0.11900
C 	C 	0.25955 0.62360 0.32097 0.06400
H 	H 	0.24440 0.67980 0.28860 -0.06700
C 	C 	0.31120 0.46800 0.37548 0.05900
H 	H 	0.33890 0.39430 0.39050 -0.02500
C 	C 	0.26730 0.52240 0.46485 -0.05500
H 	H 	0.22700 0.57360 0.46860 0.04000
H 	H 	0.30870 0.56000 0.49210 0.02700
C 	C 	0.38990 0.36940 0.53380 -0.44500
H 	H 	0.39920 0.40670 0.57280 0.09700
H 	H 	0.39260 0.43870 0.50620 0.13800
H 	H 	0.42400 0.30160 0.53320 0.13800
C 	C 	0.31730 0.30850 0.51688 0.05600
C 	C 	0.25890 0.37840 0.48189 -0.06400
C 	C 	0.19230 0.32060 0.46473 0.09400
C 	C 	0.13060 0.39660 0.42630 -0.53200
H 	H 	0.10520 0.43940 0.45080 0.18100
H 	H 	0.10010 0.33550 0.39990 0.14300
H 	H 	0.14740 0.46300 0.40390 0.17300
Cd	Cd	0.86787 0.00424 0.25109 1.07800
N 	N 	0.76381 0.02730 0.17995 -0.29700
N 	N 	0.67871 0.12850 0.11067 -0.10500
N 	N 	0.65208 0.02810 0.13692 -0.11300
N 	N 	0.80389 0.01950 0.32189 -0.28700
N 	N 	0.73995 0.13810 0.36932 -0.13300
N 	N 	0.77389 0.03610 0.40401 -0.10000
C 	C 	0.74610 0.12260 0.13805 0.06700
H 	H 	0.77890 0.17980 0.12920 -0.04100
C 	C 	0.70256 0.97020 0.17819 0.07600
H 	H 	0.69610 0.90030 0.20230 -0.05900
C 	C 	0.57609 0.00210 0.12365 -0.01500
H 	H 	0.55500 0.06920 0.14330 -0.00600
H 	H 	0.56890 0.91560 0.13980 -0.01100
C 	C 	0.58600 0.77050 0.05170 -0.51700
H 	H 	0.61780 0.79670 0.08850 0.17200
H 	H 	0.61220 0.74060 0.02510 0.16800
H 	H 	0.55660 0.69920 0.05850 0.13900
C 	C 	0.54079 0.88910 0.02496 0.07900
C 	C 	0.53875 0.00350 0.05824 -0.08100
C 	C 	0.49894 0.11530 0.03439 0.05300
C 	C 	0.49870 0.23910 0.07110 -0.43400
H 	H 	0.45980 0.23530 0.08830 0.10600
H 	H 	0.49440 0.31690 0.04650 0.12000
H 	H 	0.54170 0.24380 0.10190 0.11800
C 	C 	0.75955 0.12360 0.32097 0.06400
H 	H 	0.74440 0.17980 0.28860 -0.06700
C 	C 	0.81120 0.96800 0.37548 0.06000
H 	H 	0.83890 0.89430 0.39050 -0.02500
C 	C 	0.76730 0.02240 0.46485 -0.05500
H 	H 	0.72700 0.07360 0.46860 0.04000
H 	H 	0.80870 0.06000 0.49210 0.02700
C 	C 	0.88990 0.86940 0.53380 -0.44500
H 	H 	0.89920 0.90670 0.57280 0.09700
H 	H 	0.89260 0.93870 0.50620 0.13800
H 	H 	0.92400 0.80160 0.53320 0.13800
C 	C 	0.81730 0.80850 0.51688 0.05600
C 	C 	0.75890 0.87840 0.48189 -0.06400
C 	C 	0.69230 0.82060 0.46473 0.09400
C 	C 	0.63060 0.89660 0.42630 -0.53200
H 	H 	0.60520 0.93940 0.45080 0.18100
H 	H 	0.60010 0.83550 0.39990 0.14300
H 	H 	0.64740 0.96300 0.40390 0.17300
Cd	Cd	0.63213 0.49576 0.74891 1.07800
N 	N 	0.73619 0.47270 0.82005 -0.29600
N 	N 	0.82129 0.37150 0.88933 -0.10500
N 	N 	0.84792 0.47190 0.86308 -0.11200
N 	N 	0.69611 0.48050 0.67811 -0.28700
N 	N 	0.76005 0.36190 0.63068 -0.13300
N 	N 	0.72611 0.46390 0.59599 -0.10000
C 	C 	0.75390 0.37740 0.86195 0.06700
H 	H 	0.72110 0.32020 0.87080 -0.04100
C 	C 	0.79744 0.52980 0.82181 0.07500
H 	H 	0.80390 0.59970 0.79770 -0.05800
C 	C 	0.92391 0.49790 0.87635 -0.01500
H 	H 	0.94500 0.43080 0.85670 -0.00600
H 	H 	0.93110 0.58440 0.86020 -0.01200
C 	C 	0.91400 0.72950 0.94830 -0.51700
H 	H 	0.88220 0.70330 0.91150 0.17200
H 	H 	0.88780 0.75940 0.97490 0.16800
H 	H 	0.94340 0.80080 0.94150 0.13900
C 	C 	0.95921 0.61090 0.97504 0.07900
C 	C 	0.96125 0.49650 0.94176 -0.08100
C 	C 	0.00106 0.38470 0.96561 0.05400
C 	C 	0.00130 0.26090 0.92890 -0.43400
H 	H 	0.04020 0.26470 0.91170 0.10600
H 	H 	0.00560 0.18310 0.95350 0.12100
H 	H 	0.95830 0.25620 0.89810 0.11900
C 	C 	0.74045 0.37640 0.67903 0.06400
H 	H 	0.75560 0.32020 0.71140 -0.06700
C 	C 	0.68880 0.53200 0.62452 0.05900
H 	H 	0.66110 0.60570 0.60950 -0.02500
C 	C 	0.73270 0.47760 0.53515 -0.05500
H 	H 	0.77300 0.42640 0.53140 0.04000
H 	H 	0.69130 0.44000 0.50790 0.02700
C 	C 	0.61010 0.63060 0.46620 -0.44500
H 	H 	0.60080 0.59330 0.42720 0.09700
H 	H 	0.60740 0.56130 0.49380 0.13800
H 	H 	0.57600 0.69840 0.46680 0.13800
C 	C 	0.68270 0.69150 0.48312 0.05600
C 	C 	0.74110 0.62160 0.51811 -0.06400
C 	C 	0.80770 0.67940 0.53527 0.09400
C 	C 	0.86940 0.60340 0.57370 -0.53200
H 	H 	0.89480 0.56060 0.54920 0.18100
H 	H 	0.89990 0.66450 0.60010 0.14300
H 	H 	0.85260 0.53700 0.59610 0.17300
Cd	Cd	0.13213 0.99576 0.74891 1.07800
N 	N 	0.23619 0.97270 0.82005 -0.29700
N 	N 	0.32129 0.87150 0.88933 -0.10500
N 	N 	0.34792 0.97190 0.86308 -0.11300
N 	N 	0.19611 0.98050 0.67811 -0.28700
N 	N 	0.26005 0.86190 0.63068 -0.13300
N 	N 	0.22611 0.96390 0.59599 -0.10000
C 	C 	0.25390 0.87740 0.86195 0.06700
H 	H 	0.22110 0.82020 0.87080 -0.04100
C 	C 	0.29744 0.02980 0.82181 0.07600
H 	H 	0.30390 0.09970 0.79770 -0.05900
C 	C 	0.42391 0.99790 0.87635 -0.01500
H 	H 	0.44500 0.93080 0.85670 -0.00600
H 	H 	0.43110 0.08440 0.86020 -0.01100
C 	C 	0.41400 0.22950 0.94830 -0.51700
H 	H 	0.38220 0.20330 0.91150 0.17200
H 	H 	0.38780 0.25940 0.97490 0.16800
H 	H 	0.44340 0.30080 0.94150 0.13900
C 	C 	0.45921 0.11090 0.97504 0.07900
C 	C 	0.46125 0.99650 0.94176 -0.08100
C 	C 	0.50106 0.88470 0.96561 0.05300
C 	C 	0.50130 0.76090 0.92890 -0.43400
H 	H 	0.54020 0.76470 0.91170 0.10600
H 	H 	0.50560 0.68310 0.95350 0.12000
H 	H 	0.45830 0.75620 0.89810 0.11800
C 	C 	0.24045 0.87640 0.67903 0.06400
H 	H 	0.25560 0.82020 0.71140 -0.06700
C 	C 	0.18880 0.03200 0.62452 0.06000
H 	H 	0.16110 0.10570 0.60950 -0.02500
C 	C 	0.23270 0.97760 0.53515 -0.05500
H 	H 	0.27300 0.92640 0.53140 0.04000
H 	H 	0.19130 0.94000 0.50790 0.02700
C 	C 	0.11010 0.13060 0.46620 -0.44500
H 	H 	0.10080 0.09330 0.42720 0.09700
H 	H 	0.10740 0.06130 0.49380 0.13800
H 	H 	0.07600 0.19840 0.46680 0.13800
C 	C 	0.18270 0.19150 0.48312 0.05600
C 	C 	0.24110 0.12160 0.51811 -0.06400
C 	C 	0.30770 0.17940 0.53527 0.09400
C 	C 	0.36940 0.10340 0.57370 -0.53200
H 	H 	0.39480 0.06060 0.54920 0.18100
H 	H 	0.39990 0.16450 0.60010 0.14300
H 	H 	0.35260 0.03700 0.59610 0.17300
Cd	Cd	0.63213 0.50424 0.24891 1.07800
N 	N 	0.73619 0.52730 0.32005 -0.29600
N 	N 	0.82129 0.62850 0.38933 -0.10500
N 	N 	0.84792 0.52810 0.36308 -0.11200
N 	N 	0.69611 0.51950 0.17811 -0.28700
N 	N 	0.76005 0.63810 0.13068 -0.13300
N 	N 	0.72611 0.53610 0.09599 -0.10000
C 	C 	0.75390 0.62260 0.36195 0.06700
H 	H 	0.72110 0.67980 0.37080 -0.04100
C 	C 	0.79744 0.47020 0.32181 0.07500
H 	H 	0.80390 0.40030 0.29770 -0.05800
C 	C 	0.92391 0.50210 0.37635 -0.01500
H 	H 	0.94500 0.56920 0.35670 -0.00600
H 	H 	0.93110 0.41560 0.36020 -0.01200
C 	C 	0.91400 0.27050 0.44830 -0.51700
H 	H 	0.88220 0.29670 0.41150 0.17200
H 	H 	0.88780 0.24060 0.47490 0.16900
H 	H 	0.94340 0.19920 0.44150 0.13900
C 	C 	0.95921 0.38910 0.47504 0.07900
C 	C 	0.96125 0.50350 0.44176 -0.08100
C 	C 	0.00106 0.61530 0.46561 0.05400
C 	C 	0.00130 0.73910 0.42890 -0.43500
H 	H 	0.04020 0.73530 0.41170 0.10600
H 	H 	0.00560 0.81690 0.45350 0.12100
H 	H 	0.95830 0.74380 0.39810 0.11900
C 	C 	0.74045 0.62360 0.17903 0.06400
H 	H 	0.75560 0.67980 0.21140 -0.06700
C 	C 	0.68880 0.46800 0.12452 0.05900
H 	H 	0.66110 0.39430 0.10950 -0.02500
C 	C 	0.73270 0.52240 0.03515 -0.05500
H 	H 	0.77300 0.57360 0.03140 0.04000
H 	H 	0.69130 0.56000 0.00790 0.02700
C 	C 	0.61010 0.36940 0.96620 -0.44400
H 	H 	0.60080 0.40670 0.92720 0.09700
H 	H 	0.60740 0.43870 0.99380 0.13800
H 	H 	0.57600 0.30160 0.96680 0.13800
C 	C 	0.68270 0.30850 0.98312 0.05500
C 	C 	0.74110 0.37840 0.01811 -0.06400
C 	C 	0.80770 0.32060 0.03527 0.09400
C 	C 	0.86940 0.39660 0.07370 -0.53200
H 	H 	0.89480 0.43940 0.04920 0.18100
H 	H 	0.89990 0.33550 0.10010 0.14300
H 	H 	0.85260 0.46300 0.09610 0.17300
Cd	Cd	0.13213 0.00424 0.24891 1.07800
N 	N 	0.23619 0.02730 0.32005 -0.29700
N 	N 	0.32129 0.12850 0.38933 -0.10500
N 	N 	0.34792 0.02810 0.36308 -0.11200
N 	N 	0.19611 0.01950 0.17811 -0.28700
N 	N 	0.26005 0.13810 0.13068 -0.13300
N 	N 	0.22611 0.03610 0.09599 -0.10000
C 	C 	0.25390 0.12260 0.36195 0.06700
H 	H 	0.22110 0.17980 0.37080 -0.04100
C 	C 	0.29744 0.97020 0.32181 0.07600
H 	H 	0.30390 0.90030 0.29770 -0.05900
C 	C 	0.42391 0.00210 0.37635 -0.01500
H 	H 	0.44500 0.06920 0.35670 -0.00600
H 	H 	0.43110 0.91560 0.36020 -0.01100
C 	C 	0.41400 0.77050 0.44830 -0.51700
H 	H 	0.38220 0.79670 0.41150 0.17200
H 	H 	0.38780 0.74060 0.47490 0.16900
H 	H 	0.44340 0.69920 0.44150 0.13900
C 	C 	0.45921 0.88910 0.47504 0.07900
C 	C 	0.46125 0.00350 0.44176 -0.08100
C 	C 	0.50106 0.11530 0.46561 0.05400
C 	C 	0.50130 0.23910 0.42890 -0.43400
H 	H 	0.54020 0.23530 0.41170 0.10600
H 	H 	0.50560 0.31690 0.45350 0.12100
H 	H 	0.45830 0.24380 0.39810 0.11900
C 	C 	0.24045 0.12360 0.17903 0.06400
H 	H 	0.25560 0.17980 0.21140 -0.06700
C 	C 	0.18880 0.96800 0.12452 0.06000
H 	H 	0.16110 0.89430 0.10950 -0.02500
C 	C 	0.23270 0.02240 0.03515 -0.05500
H 	H 	0.27300 0.07360 0.03140 0.04000
H 	H 	0.19130 0.06000 0.00790 0.02700
C 	C 	0.11010 0.86940 0.96620 -0.44500
H 	H 	0.10080 0.90670 0.92720 0.09700
H 	H 	0.10740 0.93870 0.99380 0.13800
H 	H 	0.07600 0.80160 0.96680 0.13800
C 	C 	0.18270 0.80850 0.98312 0.05600
C 	C 	0.24110 0.87840 0.01811 -0.06400
C 	C 	0.30770 0.82060 0.03527 0.09400
C 	C 	0.36940 0.89660 0.07370 -0.53200
H 	H 	0.39480 0.93940 0.04920 0.18100
H 	H 	0.39990 0.83550 0.10010 0.14300
H 	H 	0.35260 0.96300 0.09610 0.17300
Cd	Cd	0.36787 0.49576 0.75109 1.07800
N 	N 	0.26381 0.47270 0.67995 -0.29600
N 	N 	0.17871 0.37150 0.61067 -0.10500
N 	N 	0.15208 0.47190 0.63692 -0.11200
N 	N 	0.30389 0.48050 0.82189 -0.28700
N 	N 	0.23995 0.36190 0.86932 -0.13300
N 	N 	0.27389 0.46390 0.90401 -0.10000
C 	C 	0.24610 0.37740 0.63805 0.06700
H 	H 	0.27890 0.32020 0.62920 -0.04100
C 	C 	0.20256 0.52980 0.67819 0.07500
H 	H 	0.19610 0.59970 0.70230 -0.05800
C 	C 	0.07609 0.49790 0.62365 -0.01500
H 	H 	0.05500 0.43080 0.64330 -0.00600
H 	H 	0.06890 0.58440 0.63980 -0.01200
C 	C 	0.08600 0.72950 0.55170 -0.51700
H 	H 	0.11780 0.70330 0.58850 0.17200
H 	H 	0.11220 0.75940 0.52510 0.16900
H 	H 	0.05660 0.80080 0.55850 0.13900
C 	C 	0.04079 0.61090 0.52496 0.07900
C 	C 	0.03875 0.49650 0.55824 -0.08100
C 	C 	0.99894 0.38470 0.53439 0.05400
C 	C 	0.99870 0.26090 0.57110 -0.43500
H 	H 	0.95980 0.26470 0.58830 0.10600
H 	H 	0.99440 0.18310 0.54650 0.12100
H 	H 	0.04170 0.25620 0.60190 0.11900
C 	C 	0.25955 0.37640 0.82097 0.06400
H 	H 	0.24440 0.32020 0.78860 -0.06700
C 	C 	0.31120 0.53200 0.87548 0.05900
H 	H 	0.33890 0.60570 0.89050 -0.02500
C 	C 	0.26730 0.47760 0.96485 -0.05500
H 	H 	0.22700 0.42640 0.96860 0.04000
H 	H 	0.30870 0.44000 0.99210 0.02700
C 	C 	0.38990 0.63060 0.03380 -0.44400
H 	H 	0.39920 0.59330 0.07280 0.09700
H 	H 	0.39260 0.56130 0.00620 0.13800
H 	H 	0.42400 0.69840 0.03320 0.13800
C 	C 	0.31730 0.69150 0.01688 0.05500
C 	C 	0.25890 0.62160 0.98189 -0.06400
C 	C 	0.19230 0.67940 0.96473 0.09400
C 	C 	0.13060 0.60340 0.92630 -0.53200
H 	H 	0.10520 0.56060 0.95080 0.18100
H 	H 	0.10010 0.66450 0.89990 0.14300
H 	H 	0.14740 0.53700 0.90390 0.17300
Cd	Cd	0.86787 0.99576 0.75109 1.07800
N 	N 	0.76381 0.97270 0.67995 -0.29700
N 	N 	0.67871 0.87150 0.61067 -0.10500
N 	N 	0.65208 0.97190 0.63692 -0.11200
N 	N 	0.80389 0.98050 0.82189 -0.28700
N 	N 	0.73995 0.86190 0.86932 -0.13300
N 	N 	0.77389 0.96390 0.90401 -0.10000
C 	C 	0.74610 0.87740 0.63805 0.06700
H 	H 	0.77890 0.82020 0.62920 -0.04100
C 	C 	0.70256 0.02980 0.67819 0.07600
H 	H 	0.69610 0.09970 0.70230 -0.05900
C 	C 	0.57609 0.99790 0.62365 -0.01500
H 	H 	0.55500 0.93080 0.64330 -0.00600
H 	H 	0.56890 0.08440 0.63980 -0.01100
C 	C 	0.58600 0.22950 0.55170 -0.51700
H 	H 	0.61780 0.20330 0.58850 0.17200
H 	H 	0.61220 0.25940 0.52510 0.16900
H 	H 	0.55660 0.30080 0.55850 0.13900
C 	C 	0.54079 0.11090 0.52496 0.07900
C 	C 	0.53875 0.99650 0.55824 -0.08100
C 	C 	0.49894 0.88470 0.53439 0.05400
C 	C 	0.49870 0.76090 0.57110 -0.43400
H 	H 	0.45980 0.76470 0.58830 0.10600
H 	H 	0.49440 0.68310 0.54650 0.12100
H 	H 	0.54170 0.75620 0.60190 0.11900
C 	C 	0.75955 0.87640 0.82097 0.06400
H 	H 	0.74440 0.82020 0.78860 -0.06700
C 	C 	0.81120 0.03200 0.87548 0.06000
H 	H 	0.83890 0.10570 0.89050 -0.02500
C 	C 	0.76730 0.97760 0.96485 -0.05500
H 	H 	0.72700 0.92640 0.96860 0.04000
H 	H 	0.80870 0.94000 0.99210 0.02700
C 	C 	0.88990 0.13060 0.03380 -0.44500
H 	H 	0.89920 0.09330 0.07280 0.09700
H 	H 	0.89260 0.06130 0.00620 0.13800
H 	H 	0.92400 0.19840 0.03320 0.13800
C 	C 	0.81730 0.19150 0.01688 0.05600
C 	C 	0.75890 0.12160 0.98189 -0.06400
C 	C 	0.69230 0.17940 0.96473 0.09400
C 	C 	0.63060 0.10340 0.92630 -0.53200
H 	H 	0.60520 0.06060 0.95080 0.18100
H 	H 	0.60010 0.16450 0.89990 0.14300
H 	H 	0.64740 0.03700 0.90390 0.17300
