data_crystal

_cell_length_a 25.05400
_cell_length_b 13.21540
_cell_length_c 17.38850
_cell_angle_alpha 90.00000
_cell_angle_beta  90.00000
_cell_angle_gamma 90.00000

_symmetry_space_group_name_	'P 1'
_symmetry_space_group_name_H-M	'P 1'

loop_
_symmetry_equiv_pos_as_xyz
  x,y,z

loop_
_atom_site_label
_atom_site_type_symbol
_atom_site_fract_x
_atom_site_fract_y
_atom_site_fract_z
_atom_site_charge
N 	N 	0.25390 0.08000 0.91800 -0.09300
N 	N 	0.26900 0.11780 0.84900 -0.10300
N 	N 	0.31790 0.98270 0.87940 -0.24300
C 	C 	0.28370 0.99980 0.93520 0.08800
H 	H 	0.28070 0.96160 0.97980 -0.00800
C 	C 	0.30720 0.05650 0.82840 0.09800
H 	H 	0.32560 0.06330 0.78220 -0.01400
C 	C 	0.21270 0.12940 0.96440 -0.04700
H 	H 	0.18750 0.16260 0.93040 0.04800
H 	H 	0.19350 0.07830 0.99330 0.04400
C 	C 	0.23540 0.20670 0.01980 -0.09700
H 	H 	0.20650 0.23440 0.05040 0.06500
H 	H 	0.25990 0.17300 0.05450 0.06200
N 	N 	0.25390 0.58000 0.41800 -0.09300
N 	N 	0.26900 0.61780 0.34900 -0.10400
N 	N 	0.31790 0.48270 0.37940 -0.24400
C 	C 	0.28370 0.49980 0.43520 0.08700
H 	H 	0.28070 0.46160 0.47980 -0.00900
C 	C 	0.30720 0.55650 0.32840 0.09700
H 	H 	0.32560 0.56330 0.28220 -0.01500
C 	C 	0.21270 0.62940 0.46440 -0.04800
H 	H 	0.18750 0.66260 0.43040 0.04700
H 	H 	0.19350 0.57830 0.49330 0.04300
C 	C 	0.23540 0.70670 0.51980 -0.09800
H 	H 	0.20650 0.73440 0.55040 0.06400
H 	H 	0.25990 0.67300 0.55450 0.06100
N 	N 	0.75390 0.08000 0.41800 -0.09400
N 	N 	0.76900 0.11780 0.34900 -0.10400
N 	N 	0.81790 0.98270 0.37940 -0.24400
C 	C 	0.78370 0.99980 0.43520 0.08700
H 	H 	0.78070 0.96160 0.47980 -0.00900
C 	C 	0.80720 0.05650 0.32840 0.09700
H 	H 	0.82560 0.06330 0.28220 -0.01500
C 	C 	0.71270 0.12940 0.46440 -0.04800
H 	H 	0.68750 0.16260 0.43040 0.04700
H 	H 	0.69350 0.07830 0.49330 0.04300
C 	C 	0.73540 0.20670 0.51980 -0.09800
H 	H 	0.70650 0.23440 0.55040 0.06400
H 	H 	0.75990 0.17300 0.55450 0.06100
N 	N 	0.75390 0.58000 0.91800 -0.09400
N 	N 	0.76900 0.61780 0.84900 -0.10400
N 	N 	0.81790 0.48270 0.87940 -0.24400
C 	C 	0.78370 0.49980 0.93520 0.08700
H 	H 	0.78070 0.46160 0.97980 -0.00900
C 	C 	0.80720 0.55650 0.82840 0.09700
H 	H 	0.82560 0.56330 0.78220 -0.01500
C 	C 	0.71270 0.62940 0.96440 -0.04800
H 	H 	0.68750 0.66260 0.93040 0.04700
H 	H 	0.69350 0.57830 0.99330 0.04300
C 	C 	0.73540 0.70670 0.01980 -0.09800
H 	H 	0.70650 0.73440 0.05040 0.06400
H 	H 	0.75990 0.67300 0.05450 0.06100
N 	N 	0.49610 0.67000 0.91800 -0.09400
N 	N 	0.48100 0.63220 0.84900 -0.10400
N 	N 	0.43210 0.76730 0.87940 -0.24400
C 	C 	0.46630 0.75020 0.93520 0.08700
H 	H 	0.46930 0.78840 0.97980 -0.00900
C 	C 	0.44280 0.69350 0.82840 0.09700
H 	H 	0.42440 0.68670 0.78220 -0.01500
C 	C 	0.53730 0.62060 0.96440 -0.04800
H 	H 	0.56250 0.58740 0.93040 0.04700
H 	H 	0.55650 0.67170 0.99330 0.04300
C 	C 	0.51460 0.54330 0.01980 -0.09800
H 	H 	0.54350 0.51560 0.05040 0.06300
H 	H 	0.49010 0.57700 0.05450 0.06100
N 	N 	0.49610 0.17000 0.41800 -0.09400
N 	N 	0.48100 0.13220 0.34900 -0.10400
N 	N 	0.43210 0.26730 0.37940 -0.24400
C 	C 	0.46630 0.25020 0.43520 0.08700
H 	H 	0.46930 0.28840 0.47980 -0.00900
C 	C 	0.44280 0.19350 0.32840 0.09700
H 	H 	0.42440 0.18670 0.28220 -0.01500
C 	C 	0.53730 0.12060 0.46440 -0.04800
H 	H 	0.56250 0.08740 0.43040 0.04700
H 	H 	0.55650 0.17170 0.49330 0.04300
C 	C 	0.51460 0.04330 0.51980 -0.09800
H 	H 	0.54350 0.01560 0.55040 0.06400
H 	H 	0.49010 0.07700 0.55450 0.06100
N 	N 	0.99610 0.67000 0.41800 -0.09400
N 	N 	0.98100 0.63220 0.34900 -0.10400
N 	N 	0.93210 0.76730 0.37940 -0.24400
C 	C 	0.96630 0.75020 0.43520 0.08700
H 	H 	0.96930 0.78840 0.47980 -0.00900
C 	C 	0.94280 0.69350 0.32840 0.09700
H 	H 	0.92440 0.68670 0.28220 -0.01500
C 	C 	0.03730 0.62060 0.46440 -0.04800
H 	H 	0.06250 0.58740 0.43040 0.04700
H 	H 	0.05650 0.67170 0.49330 0.04300
C 	C 	0.01460 0.54330 0.51980 -0.09900
H 	H 	0.04350 0.51560 0.55040 0.06400
H 	H 	0.99010 0.57700 0.55450 0.06100
N 	N 	0.99610 0.17000 0.91800 -0.09400
N 	N 	0.98100 0.13220 0.84900 -0.10400
N 	N 	0.93210 0.26730 0.87940 -0.24400
C 	C 	0.96630 0.25020 0.93520 0.08700
H 	H 	0.96930 0.28840 0.97980 -0.00900
C 	C 	0.94280 0.19350 0.82840 0.09700
H 	H 	0.92440 0.18670 0.78220 -0.01500
C 	C 	0.03730 0.12060 0.96440 -0.04900
H 	H 	0.06250 0.08740 0.93040 0.04700
H 	H 	0.05650 0.17170 0.99330 0.04300
C 	C 	0.01460 0.04330 0.01980 -0.09800
H 	H 	0.04350 0.01560 0.05040 0.06300
H 	H 	0.99010 0.07700 0.05450 0.06100
N 	N 	0.49610 0.08000 0.83200 -0.09400
N 	N 	0.48100 0.11780 0.90100 -0.10400
N 	N 	0.43210 0.98270 0.87060 -0.24400
C 	C 	0.46630 0.99980 0.81480 0.08700
H 	H 	0.46930 0.96160 0.77020 -0.00900
C 	C 	0.44280 0.05650 0.92160 0.09700
H 	H 	0.42440 0.06330 0.96780 -0.01500
C 	C 	0.53730 0.12940 0.78560 -0.04800
H 	H 	0.56250 0.16260 0.81960 0.04700
H 	H 	0.55650 0.07830 0.75670 0.04300
C 	C 	0.51460 0.20670 0.73020 -0.09800
H 	H 	0.54350 0.23440 0.69960 0.06300
H 	H 	0.49010 0.17300 0.69550 0.06100
N 	N 	0.49610 0.58000 0.33200 -0.09400
N 	N 	0.48100 0.61780 0.40100 -0.10400
N 	N 	0.43210 0.48270 0.37060 -0.24400
C 	C 	0.46630 0.49980 0.31480 0.08700
H 	H 	0.46930 0.46160 0.27020 -0.00900
C 	C 	0.44280 0.55650 0.42160 0.09700
H 	H 	0.42440 0.56330 0.46780 -0.01500
C 	C 	0.53730 0.62940 0.28560 -0.04800
H 	H 	0.56250 0.66260 0.31960 0.04700
H 	H 	0.55650 0.57830 0.25670 0.04300
C 	C 	0.51460 0.70670 0.23020 -0.09800
H 	H 	0.54350 0.73440 0.19960 0.06400
H 	H 	0.49010 0.67300 0.19550 0.06100
N 	N 	0.99610 0.08000 0.33200 -0.09400
N 	N 	0.98100 0.11780 0.40100 -0.10400
N 	N 	0.93210 0.98270 0.37060 -0.24400
C 	C 	0.96630 0.99980 0.31480 0.08700
H 	H 	0.96930 0.96160 0.27020 -0.00900
C 	C 	0.94280 0.05650 0.42160 0.09700
H 	H 	0.92440 0.06330 0.46780 -0.01500
C 	C 	0.03730 0.12940 0.28560 -0.04800
H 	H 	0.06250 0.16260 0.31960 0.04700
H 	H 	0.05650 0.07830 0.25670 0.04300
C 	C 	0.01460 0.20670 0.23020 -0.09800
H 	H 	0.04350 0.23440 0.19960 0.06300
H 	H 	0.99010 0.17300 0.19550 0.06100
N 	N 	0.99610 0.58000 0.83200 -0.09400
N 	N 	0.98100 0.61780 0.90100 -0.10400
N 	N 	0.93210 0.48270 0.87060 -0.24400
C 	C 	0.96630 0.49980 0.81480 0.08700
H 	H 	0.96930 0.46160 0.77020 -0.00900
C 	C 	0.94280 0.55650 0.92160 0.09700
H 	H 	0.92440 0.56330 0.96780 -0.01500
C 	C 	0.03730 0.62940 0.78560 -0.04800
H 	H 	0.06250 0.66260 0.81960 0.04700
H 	H 	0.05650 0.57830 0.75670 0.04300
C 	C 	0.01460 0.70670 0.73020 -0.09900
H 	H 	0.04350 0.73440 0.69960 0.06400
H 	H 	0.99010 0.67300 0.69550 0.06100
N 	N 	0.25390 0.67000 0.83200 -0.09400
N 	N 	0.26900 0.63220 0.90100 -0.10400
N 	N 	0.31790 0.76730 0.87060 -0.24400
C 	C 	0.28370 0.75020 0.81480 0.08700
H 	H 	0.28070 0.78840 0.77020 -0.00900
C 	C 	0.30720 0.69350 0.92160 0.09700
H 	H 	0.32560 0.68670 0.96780 -0.01500
C 	C 	0.21270 0.62060 0.78560 -0.04800
H 	H 	0.18750 0.58740 0.81960 0.04700
H 	H 	0.19350 0.67170 0.75670 0.04300
C 	C 	0.23540 0.54330 0.73020 -0.09800
H 	H 	0.20650 0.51560 0.69960 0.06400
H 	H 	0.25990 0.57700 0.69550 0.06100
N 	N 	0.25390 0.17000 0.33200 -0.09400
N 	N 	0.26900 0.13220 0.40100 -0.10400
N 	N 	0.31790 0.26730 0.37060 -0.24400
C 	C 	0.28370 0.25020 0.31480 0.08700
H 	H 	0.28070 0.28840 0.27020 -0.00900
C 	C 	0.30720 0.19350 0.42160 0.09700
H 	H 	0.32560 0.18670 0.46780 -0.01500
C 	C 	0.21270 0.12060 0.28560 -0.04800
H 	H 	0.18750 0.08740 0.31960 0.04700
H 	H 	0.19350 0.17170 0.25670 0.04300
C 	C 	0.23540 0.04330 0.23020 -0.09900
H 	H 	0.20650 0.01560 0.19960 0.06400
H 	H 	0.25990 0.07700 0.19550 0.06100
N 	N 	0.75390 0.67000 0.33200 -0.09400
N 	N 	0.76900 0.63220 0.40100 -0.10400
N 	N 	0.81790 0.76730 0.37060 -0.24400
C 	C 	0.78370 0.75020 0.31480 0.08700
H 	H 	0.78070 0.78840 0.27020 -0.00900
C 	C 	0.80720 0.69350 0.42160 0.09700
H 	H 	0.82560 0.68670 0.46780 -0.01500
C 	C 	0.71270 0.62060 0.28560 -0.04800
H 	H 	0.68750 0.58740 0.31960 0.04700
H 	H 	0.69350 0.67170 0.25670 0.04300
C 	C 	0.73540 0.54330 0.23020 -0.09800
H 	H 	0.70650 0.51560 0.19960 0.06300
H 	H 	0.75990 0.57700 0.19550 0.06100
N 	N 	0.75390 0.17000 0.83200 -0.09400
N 	N 	0.76900 0.13220 0.90100 -0.10400
N 	N 	0.81790 0.26730 0.87060 -0.24400
C 	C 	0.78370 0.25020 0.81480 0.08700
H 	H 	0.78070 0.28840 0.77020 -0.00900
C 	C 	0.80720 0.19350 0.92160 0.09700
H 	H 	0.82560 0.18670 0.96780 -0.01500
C 	C 	0.71270 0.12060 0.78560 -0.04800
H 	H 	0.68750 0.08740 0.81960 0.04700
H 	H 	0.69350 0.17170 0.75670 0.04300
C 	C 	0.73540 0.04330 0.73020 -0.09800
H 	H 	0.70650 0.01560 0.69960 0.06300
H 	H 	0.75990 0.07700 0.69550 0.06100
N 	N 	0.74610 0.92000 0.08200 -0.09400
N 	N 	0.73100 0.88220 0.15100 -0.10400
N 	N 	0.68210 0.01730 0.12060 -0.24400
C 	C 	0.71630 0.00020 0.06480 0.08700
H 	H 	0.71930 0.03840 0.02020 -0.00900
C 	C 	0.69280 0.94350 0.17160 0.09700
H 	H 	0.67440 0.93670 0.21780 -0.01500
C 	C 	0.78730 0.87060 0.03560 -0.04800
H 	H 	0.81250 0.83740 0.06960 0.04700
H 	H 	0.80650 0.92170 0.00670 0.04300
C 	C 	0.76460 0.79330 0.98020 -0.09800
H 	H 	0.79350 0.76560 0.94960 0.06400
H 	H 	0.74010 0.82700 0.94550 0.06100
N 	N 	0.74610 0.42000 0.58200 -0.09400
N 	N 	0.73100 0.38220 0.65100 -0.10400
N 	N 	0.68210 0.51730 0.62060 -0.24400
C 	C 	0.71630 0.50020 0.56480 0.08700
H 	H 	0.71930 0.53840 0.52020 -0.00900
C 	C 	0.69280 0.44350 0.67160 0.09700
H 	H 	0.67440 0.43670 0.71780 -0.01500
C 	C 	0.78730 0.37060 0.53560 -0.04800
H 	H 	0.81250 0.33740 0.56960 0.04700
H 	H 	0.80650 0.42170 0.50670 0.04300
C 	C 	0.76460 0.29330 0.48020 -0.09800
H 	H 	0.79350 0.26560 0.44960 0.06400
H 	H 	0.74010 0.32700 0.44550 0.06100
N 	N 	0.24610 0.92000 0.58200 -0.09400
N 	N 	0.23100 0.88220 0.65100 -0.10400
N 	N 	0.18210 0.01730 0.62060 -0.24400
C 	C 	0.21630 0.00020 0.56480 0.08700
H 	H 	0.21930 0.03840 0.52020 -0.00900
C 	C 	0.19280 0.94350 0.67160 0.09700
H 	H 	0.17440 0.93670 0.71780 -0.01500
C 	C 	0.28730 0.87060 0.53560 -0.04800
H 	H 	0.31250 0.83740 0.56960 0.04700
H 	H 	0.30650 0.92170 0.50670 0.04300
C 	C 	0.26460 0.79330 0.48020 -0.09800
H 	H 	0.29350 0.76560 0.44960 0.06400
H 	H 	0.24010 0.82700 0.44550 0.06100
N 	N 	0.24610 0.42000 0.08200 -0.09400
N 	N 	0.23100 0.38220 0.15100 -0.10400
N 	N 	0.18210 0.51730 0.12060 -0.24400
C 	C 	0.21630 0.50020 0.06480 0.08700
H 	H 	0.21930 0.53840 0.02020 -0.00900
C 	C 	0.19280 0.44350 0.17160 0.09700
H 	H 	0.17440 0.43670 0.21780 -0.01500
C 	C 	0.28730 0.37060 0.03560 -0.04800
H 	H 	0.31250 0.33740 0.06960 0.04700
H 	H 	0.30650 0.42170 0.00670 0.04300
C 	C 	0.26460 0.29330 0.98020 -0.09800
H 	H 	0.29350 0.26560 0.94960 0.06400
H 	H 	0.24010 0.32700 0.94550 0.06100
N 	N 	0.50390 0.33000 0.08200 -0.09400
N 	N 	0.51900 0.36780 0.15100 -0.10400
N 	N 	0.56790 0.23270 0.12060 -0.24400
C 	C 	0.53370 0.24980 0.06480 0.08700
H 	H 	0.53070 0.21160 0.02020 -0.00900
C 	C 	0.55720 0.30650 0.17160 0.09700
H 	H 	0.57560 0.31330 0.21780 -0.01500
C 	C 	0.46270 0.37940 0.03560 -0.04800
H 	H 	0.43750 0.41260 0.06960 0.04700
H 	H 	0.44350 0.32830 0.00670 0.04300
C 	C 	0.48540 0.45670 0.98020 -0.09800
H 	H 	0.45650 0.48440 0.94960 0.06300
H 	H 	0.50990 0.42300 0.94550 0.06100
N 	N 	0.50390 0.83000 0.58200 -0.09400
N 	N 	0.51900 0.86780 0.65100 -0.10400
N 	N 	0.56790 0.73270 0.62060 -0.24400
C 	C 	0.53370 0.74980 0.56480 0.08700
H 	H 	0.53070 0.71160 0.52020 -0.00900
C 	C 	0.55720 0.80650 0.67160 0.09700
H 	H 	0.57560 0.81330 0.71780 -0.01500
C 	C 	0.46270 0.87940 0.53560 -0.04800
H 	H 	0.43750 0.91260 0.56960 0.04700
H 	H 	0.44350 0.82830 0.50670 0.04300
C 	C 	0.48540 0.95670 0.48020 -0.09800
H 	H 	0.45650 0.98440 0.44960 0.06400
H 	H 	0.50990 0.92300 0.44550 0.06100
N 	N 	0.00390 0.33000 0.58200 -0.09400
N 	N 	0.01900 0.36780 0.65100 -0.10400
N 	N 	0.06790 0.23270 0.62060 -0.24400
C 	C 	0.03370 0.24980 0.56480 0.08700
H 	H 	0.03070 0.21160 0.52020 -0.00900
C 	C 	0.05720 0.30650 0.67160 0.09700
H 	H 	0.07560 0.31330 0.71780 -0.01500
C 	C 	0.96270 0.37940 0.53560 -0.04800
H 	H 	0.93750 0.41260 0.56960 0.04700
H 	H 	0.94350 0.32830 0.50670 0.04300
C 	C 	0.98540 0.45670 0.48020 -0.09900
H 	H 	0.95650 0.48440 0.44960 0.06400
H 	H 	0.00990 0.42300 0.44550 0.06100
N 	N 	0.00390 0.83000 0.08200 -0.09400
N 	N 	0.01900 0.86780 0.15100 -0.10400
N 	N 	0.06790 0.73270 0.12060 -0.24400
C 	C 	0.03370 0.74980 0.06480 0.08700
H 	H 	0.03070 0.71160 0.02020 -0.00900
C 	C 	0.05720 0.80650 0.17160 0.09700
H 	H 	0.07560 0.81330 0.21780 -0.01500
C 	C 	0.96270 0.87940 0.03560 -0.04900
H 	H 	0.93750 0.91260 0.06960 0.04700
H 	H 	0.94350 0.82830 0.00670 0.04300
C 	C 	0.98540 0.95670 0.98020 -0.09800
H 	H 	0.95650 0.98440 0.94960 0.06300
H 	H 	0.00990 0.92300 0.94550 0.06100
N 	N 	0.50390 0.92000 0.16800 -0.09400
N 	N 	0.51900 0.88220 0.09900 -0.10400
N 	N 	0.56790 0.01730 0.12940 -0.24400
C 	C 	0.53370 0.00020 0.18520 0.08700
H 	H 	0.53070 0.03840 0.22980 -0.00900
C 	C 	0.55720 0.94350 0.07840 0.09700
H 	H 	0.57560 0.93670 0.03220 -0.01500
C 	C 	0.46270 0.87060 0.21440 -0.04800
H 	H 	0.43750 0.83740 0.18040 0.04700
H 	H 	0.44350 0.92170 0.24330 0.04300
C 	C 	0.48540 0.79330 0.26980 -0.09800
H 	H 	0.45650 0.76560 0.30040 0.06300
H 	H 	0.50990 0.82700 0.30450 0.06100
N 	N 	0.50390 0.42000 0.66800 -0.09400
N 	N 	0.51900 0.38220 0.59900 -0.10400
N 	N 	0.56790 0.51730 0.62940 -0.24400
C 	C 	0.53370 0.50020 0.68520 0.08700
H 	H 	0.53070 0.53840 0.72980 -0.00900
C 	C 	0.55720 0.44350 0.57840 0.09700
H 	H 	0.57560 0.43670 0.53220 -0.01500
C 	C 	0.46270 0.37060 0.71440 -0.04800
H 	H 	0.43750 0.33740 0.68040 0.04700
H 	H 	0.44350 0.42170 0.74330 0.04300
C 	C 	0.48540 0.29330 0.76980 -0.09800
H 	H 	0.45650 0.26560 0.80040 0.06400
H 	H 	0.50990 0.32700 0.80450 0.06100
N 	N 	0.00390 0.92000 0.66800 -0.09400
N 	N 	0.01900 0.88220 0.59900 -0.10400
N 	N 	0.06790 0.01730 0.62940 -0.24400
C 	C 	0.03370 0.00020 0.68520 0.08700
H 	H 	0.03070 0.03840 0.72980 -0.00900
C 	C 	0.05720 0.94350 0.57840 0.09700
H 	H 	0.07560 0.93670 0.53220 -0.01500
C 	C 	0.96270 0.87060 0.71440 -0.04800
H 	H 	0.93750 0.83740 0.68040 0.04700
H 	H 	0.94350 0.92170 0.74330 0.04300
C 	C 	0.98540 0.79330 0.76980 -0.09800
H 	H 	0.95650 0.76560 0.80040 0.06300
H 	H 	0.00990 0.82700 0.80450 0.06100
N 	N 	0.00390 0.42000 0.16800 -0.09400
N 	N 	0.01900 0.38220 0.09900 -0.10400
N 	N 	0.06790 0.51730 0.12940 -0.24400
C 	C 	0.03370 0.50020 0.18520 0.08700
H 	H 	0.03070 0.53840 0.22980 -0.00900
C 	C 	0.05720 0.44350 0.07840 0.09700
H 	H 	0.07560 0.43670 0.03220 -0.01500
C 	C 	0.96270 0.37060 0.21440 -0.04800
H 	H 	0.93750 0.33740 0.18040 0.04700
H 	H 	0.94350 0.42170 0.24330 0.04300
C 	C 	0.98540 0.29330 0.26980 -0.09900
H 	H 	0.95650 0.26560 0.30040 0.06400
H 	H 	0.00990 0.32700 0.30450 0.06100
N 	N 	0.74610 0.33000 0.16800 -0.09400
N 	N 	0.73100 0.36780 0.09900 -0.10400
N 	N 	0.68210 0.23270 0.12940 -0.24400
C 	C 	0.71630 0.24980 0.18520 0.08700
H 	H 	0.71930 0.21160 0.22980 -0.00900
C 	C 	0.69280 0.30650 0.07840 0.09700
H 	H 	0.67440 0.31330 0.03220 -0.01500
C 	C 	0.78730 0.37940 0.21440 -0.04800
H 	H 	0.81250 0.41260 0.18040 0.04700
H 	H 	0.80650 0.32830 0.24330 0.04300
C 	C 	0.76460 0.45670 0.26980 -0.09800
H 	H 	0.79350 0.48440 0.30040 0.06400
H 	H 	0.74010 0.42300 0.30450 0.06100
N 	N 	0.74610 0.83000 0.66800 -0.09400
N 	N 	0.73100 0.86780 0.59900 -0.10400
N 	N 	0.68210 0.73270 0.62940 -0.24400
C 	C 	0.71630 0.74980 0.68520 0.08700
H 	H 	0.71930 0.71160 0.72980 -0.00900
C 	C 	0.69280 0.80650 0.57840 0.09700
H 	H 	0.67440 0.81330 0.53220 -0.01500
C 	C 	0.78730 0.87940 0.71440 -0.04800
H 	H 	0.81250 0.91260 0.68040 0.04700
H 	H 	0.80650 0.82830 0.74330 0.04300
C 	C 	0.76460 0.95670 0.76980 -0.09900
H 	H 	0.79350 0.98440 0.80040 0.06400
H 	H 	0.74010 0.92300 0.80450 0.06100
N 	N 	0.24610 0.33000 0.66800 -0.09400
N 	N 	0.23100 0.36780 0.59900 -0.10400
N 	N 	0.18210 0.23270 0.62940 -0.24400
C 	C 	0.21630 0.24980 0.68520 0.08700
H 	H 	0.21930 0.21160 0.72980 -0.00900
C 	C 	0.19280 0.30650 0.57840 0.09700
H 	H 	0.17440 0.31330 0.53220 -0.01500
C 	C 	0.28730 0.37940 0.71440 -0.04800
H 	H 	0.31250 0.41260 0.68040 0.04700
H 	H 	0.30650 0.32830 0.74330 0.04300
C 	C 	0.26460 0.45670 0.76980 -0.09800
H 	H 	0.29350 0.48440 0.80040 0.06300
H 	H 	0.24010 0.42300 0.80450 0.06100
N 	N 	0.24610 0.83000 0.16800 -0.09400
N 	N 	0.23100 0.86780 0.09900 -0.10400
N 	N 	0.18210 0.73270 0.12940 -0.24400
C 	C 	0.21630 0.74980 0.18520 0.08700
H 	H 	0.21930 0.71160 0.22980 -0.00900
C 	C 	0.19280 0.80650 0.07840 0.09700
H 	H 	0.17440 0.81330 0.03220 -0.01500
C 	C 	0.28730 0.87940 0.21440 -0.04800
H 	H 	0.31250 0.91260 0.18040 0.04700
H 	H 	0.30650 0.82830 0.24330 0.04300
C 	C 	0.26460 0.95670 0.26980 -0.09800
H 	H 	0.29350 0.98440 0.30040 0.06300
H 	H 	0.24010 0.92300 0.30450 0.06100
Cu	Cu	0.37500 0.87500 0.87500 0.85200
Cu	Cu	0.37500 0.37500 0.37500 0.85300
Cu	Cu	0.87500 0.87500 0.37500 0.85300
Cu	Cu	0.87500 0.37500 0.87500 0.85300
Cu	Cu	0.62500 0.12500 0.12500 0.85200
Cu	Cu	0.62500 0.62500 0.62500 0.85300
Cu	Cu	0.12500 0.12500 0.62500 0.85300
Cu	Cu	0.12500 0.62500 0.12500 0.85300
