data_crystal

_cell_length_a 13.10730
_cell_length_b 17.59350
_cell_length_c 25.47960
_cell_angle_alpha 90.00000
_cell_angle_beta  90.00000
_cell_angle_gamma 90.00000

_symmetry_space_group_name_	'P 1'
_symmetry_space_group_name_H-M	'P 1'

loop_
_symmetry_equiv_pos_as_xyz
  x,y,z

loop_
_atom_site_label
_atom_site_type_symbol
_atom_site_fract_x
_atom_site_fract_y
_atom_site_fract_z
_atom_site_charge
N 	N 	0.73366 0.62944 0.68081 -0.24500
N 	N 	0.86910 0.59949 0.72926 -0.10500
N 	N 	0.83081 0.66661 0.74440 -0.09500
C 	C 	0.80890 0.57971 0.69109 0.09700
H 	H 	0.81720 0.53470 0.67240 -0.01600
C 	C 	0.75021 0.68349 0.71572 0.08700
H 	H 	0.71080 0.72710 0.71950 -0.01000
C 	C 	0.87900 0.71160 0.78585 -0.05000
H 	H 	0.91220 0.67760 0.81050 0.04600
H 	H 	0.82680 0.73950 0.80480 0.04200
C 	C 	0.95680 0.76702 0.76465 -0.09800
H 	H 	0.92210 0.80250 0.74170 0.06000
H 	H 	0.98420 0.79590 0.79380 0.06200
N 	N 	0.73366 0.12944 0.18081 -0.24500
N 	N 	0.86910 0.09949 0.22926 -0.10500
N 	N 	0.83081 0.16661 0.24440 -0.09500
C 	C 	0.80890 0.07971 0.19109 0.09700
H 	H 	0.81720 0.03470 0.17240 -0.01600
C 	C 	0.75021 0.18349 0.21572 0.08700
H 	H 	0.71080 0.22710 0.21950 -0.01000
C 	C 	0.87900 0.21160 0.28585 -0.04900
H 	H 	0.91220 0.17760 0.31050 0.04600
H 	H 	0.82680 0.23950 0.30480 0.04200
C 	C 	0.95680 0.26702 0.26465 -0.09800
H 	H 	0.92210 0.30250 0.24170 0.06000
H 	H 	0.98420 0.29590 0.29380 0.06200
N 	N 	0.23366 0.62944 0.18081 -0.24500
N 	N 	0.36910 0.59949 0.22926 -0.10500
N 	N 	0.33081 0.66661 0.24440 -0.09500
C 	C 	0.30890 0.57971 0.19109 0.09700
H 	H 	0.31720 0.53470 0.17240 -0.01600
C 	C 	0.25021 0.68349 0.21572 0.08700
H 	H 	0.21080 0.72710 0.21950 -0.01000
C 	C 	0.37900 0.71160 0.28585 -0.04900
H 	H 	0.41220 0.67760 0.31050 0.04600
H 	H 	0.32680 0.73950 0.30480 0.04200
C 	C 	0.45680 0.76702 0.26465 -0.09800
H 	H 	0.42210 0.80250 0.24170 0.06000
H 	H 	0.48420 0.79590 0.29380 0.06200
N 	N 	0.23366 0.12944 0.68081 -0.24500
N 	N 	0.36910 0.09949 0.72926 -0.10500
N 	N 	0.33081 0.16661 0.74440 -0.09500
C 	C 	0.30890 0.07971 0.69109 0.09700
H 	H 	0.31720 0.03470 0.67240 -0.01600
C 	C 	0.25021 0.18349 0.71572 0.08700
H 	H 	0.21080 0.22710 0.71950 -0.01000
C 	C 	0.37900 0.21160 0.78585 -0.04900
H 	H 	0.41220 0.17760 0.81050 0.04600
H 	H 	0.32680 0.23950 0.80480 0.04200
C 	C 	0.45680 0.26702 0.76465 -0.09800
H 	H 	0.42210 0.30250 0.74170 0.06000
H 	H 	0.48420 0.29590 0.79380 0.06200
N 	N 	0.01634 0.12056 0.68081 -0.24500
N 	N 	0.88090 0.15051 0.72926 -0.10500
N 	N 	0.91919 0.08339 0.74440 -0.09400
C 	C 	0.94110 0.17029 0.69109 0.09800
H 	H 	0.93280 0.21530 0.67240 -0.01500
C 	C 	0.99979 0.06651 0.71572 0.08800
H 	H 	0.03920 0.02290 0.71950 -0.00900
C 	C 	0.87100 0.03840 0.78585 -0.04900
H 	H 	0.83780 0.07240 0.81050 0.04700
H 	H 	0.92320 0.01050 0.80480 0.04300
C 	C 	0.79320 0.98298 0.76465 -0.09500
H 	H 	0.82790 0.94750 0.74170 0.06000
H 	H 	0.76580 0.95410 0.79380 0.06300
N 	N 	0.01634 0.62056 0.18081 -0.24400
N 	N 	0.88090 0.65051 0.22926 -0.10400
N 	N 	0.91919 0.58339 0.24440 -0.09400
C 	C 	0.94110 0.67029 0.19109 0.09800
H 	H 	0.93280 0.71530 0.17240 -0.01500
C 	C 	0.99979 0.56651 0.21572 0.08800
H 	H 	0.03920 0.52290 0.21950 -0.00900
C 	C 	0.87100 0.53840 0.28585 -0.04800
H 	H 	0.83780 0.57240 0.31050 0.04700
H 	H 	0.92320 0.51050 0.30480 0.04300
C 	C 	0.79320 0.48298 0.26465 -0.09700
H 	H 	0.82790 0.44750 0.24170 0.06100
H 	H 	0.76580 0.45410 0.29380 0.06300
N 	N 	0.51634 0.12056 0.18081 -0.24400
N 	N 	0.38090 0.15051 0.22926 -0.10400
N 	N 	0.41919 0.08339 0.24440 -0.09400
C 	C 	0.44110 0.17029 0.19109 0.09800
H 	H 	0.43280 0.21530 0.17240 -0.01500
C 	C 	0.49979 0.06651 0.21572 0.08800
H 	H 	0.53920 0.02290 0.21950 -0.00900
C 	C 	0.37100 0.03840 0.28585 -0.04800
H 	H 	0.33780 0.07240 0.31050 0.04600
H 	H 	0.42320 0.01050 0.30480 0.04300
C 	C 	0.29320 0.98298 0.26465 -0.09800
H 	H 	0.32790 0.94750 0.24170 0.06100
H 	H 	0.26580 0.95410 0.29380 0.06300
N 	N 	0.51634 0.62056 0.68081 -0.24400
N 	N 	0.38090 0.65051 0.72926 -0.10400
N 	N 	0.41919 0.58339 0.74440 -0.09400
C 	C 	0.44110 0.67029 0.69109 0.09800
H 	H 	0.43280 0.71530 0.67240 -0.01500
C 	C 	0.49979 0.56651 0.71572 0.08800
H 	H 	0.53920 0.52290 0.71950 -0.00900
C 	C 	0.37100 0.53840 0.78585 -0.04800
H 	H 	0.33780 0.57240 0.81050 0.04700
H 	H 	0.42320 0.51050 0.80480 0.04300
C 	C 	0.29320 0.48298 0.76465 -0.09700
H 	H 	0.32790 0.44750 0.74170 0.06100
H 	H 	0.26580 0.45410 0.79380 0.06300
N 	N 	0.01634 0.62944 0.06919 -0.24400
N 	N 	0.88090 0.59949 0.02074 -0.10400
N 	N 	0.91919 0.66661 0.00560 -0.09400
C 	C 	0.94110 0.57971 0.05891 0.09800
H 	H 	0.93280 0.53470 0.07760 -0.01500
C 	C 	0.99979 0.68349 0.03428 0.08700
H 	H 	0.03920 0.72710 0.03050 -0.00900
C 	C 	0.87100 0.71160 0.96415 -0.04900
H 	H 	0.83780 0.67760 0.93950 0.04700
H 	H 	0.92320 0.73950 0.94520 0.04300
C 	C 	0.79320 0.76702 0.98535 -0.09500
H 	H 	0.82790 0.80250 0.00830 0.06000
H 	H 	0.76580 0.79590 0.95620 0.06200
N 	N 	0.01634 0.12944 0.56919 -0.24400
N 	N 	0.88090 0.09949 0.52074 -0.10400
N 	N 	0.91919 0.16661 0.50560 -0.09400
C 	C 	0.94110 0.07971 0.55891 0.09800
H 	H 	0.93280 0.03470 0.57760 -0.01500
C 	C 	0.99979 0.18349 0.53428 0.08800
H 	H 	0.03920 0.22710 0.53050 -0.00900
C 	C 	0.87100 0.21160 0.46415 -0.04800
H 	H 	0.83780 0.17760 0.43950 0.04700
H 	H 	0.92320 0.23950 0.44520 0.04300
C 	C 	0.79320 0.26702 0.48535 -0.09700
H 	H 	0.82790 0.30250 0.50830 0.06100
H 	H 	0.76580 0.29590 0.45620 0.06300
N 	N 	0.51634 0.62944 0.56919 -0.24400
N 	N 	0.38090 0.59949 0.52074 -0.10400
N 	N 	0.41919 0.66661 0.50560 -0.09400
C 	C 	0.44110 0.57971 0.55891 0.09800
H 	H 	0.43280 0.53470 0.57760 -0.01500
C 	C 	0.49979 0.68349 0.53428 0.08800
H 	H 	0.53920 0.72710 0.53050 -0.00900
C 	C 	0.37100 0.71160 0.46415 -0.04800
H 	H 	0.33780 0.67760 0.43950 0.04700
H 	H 	0.42320 0.73950 0.44520 0.04300
C 	C 	0.29320 0.76702 0.48535 -0.09700
H 	H 	0.32790 0.80250 0.50830 0.06100
H 	H 	0.26580 0.79590 0.45620 0.06300
N 	N 	0.51634 0.12944 0.06919 -0.24400
N 	N 	0.38090 0.09949 0.02074 -0.10400
N 	N 	0.41919 0.16661 0.00560 -0.09400
C 	C 	0.44110 0.07971 0.05891 0.09800
H 	H 	0.43280 0.03470 0.07760 -0.01500
C 	C 	0.49979 0.18349 0.03428 0.08800
H 	H 	0.53920 0.22710 0.03050 -0.00900
C 	C 	0.37100 0.21160 0.96415 -0.04800
H 	H 	0.33780 0.17760 0.93950 0.04600
H 	H 	0.42320 0.23950 0.94520 0.04300
C 	C 	0.29320 0.26702 0.98535 -0.09900
H 	H 	0.32790 0.30250 0.00830 0.06100
H 	H 	0.26580 0.29590 0.95620 0.06400
N 	N 	0.73366 0.12056 0.06919 -0.24400
N 	N 	0.86910 0.15051 0.02074 -0.10400
N 	N 	0.83081 0.08339 0.00560 -0.09400
C 	C 	0.80890 0.17029 0.05891 0.09800
H 	H 	0.81720 0.21530 0.07760 -0.01500
C 	C 	0.75021 0.06651 0.03428 0.08800
H 	H 	0.71080 0.02290 0.03050 -0.00900
C 	C 	0.87900 0.03840 0.96415 -0.05000
H 	H 	0.91220 0.07240 0.93950 0.04700
H 	H 	0.82680 0.01050 0.94520 0.04300
C 	C 	0.95680 0.98298 0.98535 -0.09600
H 	H 	0.92210 0.94750 0.00830 0.06000
H 	H 	0.98420 0.95410 0.95620 0.06300
N 	N 	0.73366 0.62056 0.56919 -0.24400
N 	N 	0.86910 0.65051 0.52074 -0.10400
N 	N 	0.83081 0.58339 0.50560 -0.09400
C 	C 	0.80890 0.67029 0.55891 0.09800
H 	H 	0.81720 0.71530 0.57760 -0.01500
C 	C 	0.75021 0.56651 0.53428 0.08800
H 	H 	0.71080 0.52290 0.53050 -0.00900
C 	C 	0.87900 0.53840 0.46415 -0.04800
H 	H 	0.91220 0.57240 0.43950 0.04700
H 	H 	0.82680 0.51050 0.44520 0.04300
C 	C 	0.95680 0.48298 0.48535 -0.09700
H 	H 	0.92210 0.44750 0.50830 0.06100
H 	H 	0.98420 0.45410 0.45620 0.06300
N 	N 	0.23366 0.12056 0.56919 -0.24400
N 	N 	0.36910 0.15051 0.52074 -0.10400
N 	N 	0.33081 0.08339 0.50560 -0.09400
C 	C 	0.30890 0.17029 0.55891 0.09800
H 	H 	0.31720 0.21530 0.57760 -0.01500
C 	C 	0.25021 0.06651 0.53428 0.08800
H 	H 	0.21080 0.02290 0.53050 -0.00900
C 	C 	0.37900 0.03840 0.46415 -0.04800
H 	H 	0.41220 0.07240 0.43950 0.04700
H 	H 	0.32680 0.01050 0.44520 0.04300
C 	C 	0.45680 0.98298 0.48535 -0.09700
H 	H 	0.42210 0.94750 0.50830 0.06100
H 	H 	0.48420 0.95410 0.45620 0.06300
N 	N 	0.23366 0.62056 0.06919 -0.24400
N 	N 	0.36910 0.65051 0.02074 -0.10400
N 	N 	0.33081 0.58339 0.00560 -0.09400
C 	C 	0.30890 0.67029 0.05891 0.09800
H 	H 	0.31720 0.71530 0.07760 -0.01500
C 	C 	0.25021 0.56651 0.03428 0.08800
H 	H 	0.21080 0.52290 0.03050 -0.00900
C 	C 	0.37900 0.53840 0.96415 -0.04800
H 	H 	0.41220 0.57240 0.93950 0.04700
H 	H 	0.32680 0.51050 0.94520 0.04300
C 	C 	0.45680 0.48298 0.98535 -0.09700
H 	H 	0.42210 0.44750 0.00830 0.06100
H 	H 	0.48420 0.45410 0.95620 0.06300
N 	N 	0.26634 0.37056 0.31919 -0.24400
N 	N 	0.13090 0.40051 0.27074 -0.10400
N 	N 	0.16919 0.33339 0.25560 -0.09400
C 	C 	0.19110 0.42029 0.30891 0.09800
H 	H 	0.18280 0.46530 0.32760 -0.01500
C 	C 	0.24979 0.31651 0.28428 0.08800
H 	H 	0.28920 0.27290 0.28050 -0.00900
C 	C 	0.12100 0.28840 0.21415 -0.04900
H 	H 	0.08780 0.32240 0.18950 0.04700
H 	H 	0.17320 0.26050 0.19520 0.04300
C 	C 	0.04320 0.23298 0.23535 -0.09700
H 	H 	0.07790 0.19750 0.25830 0.06100
H 	H 	0.01580 0.20410 0.20620 0.06300
N 	N 	0.26634 0.87056 0.81919 -0.24400
N 	N 	0.13090 0.90051 0.77074 -0.10400
N 	N 	0.16919 0.83339 0.75560 -0.09400
C 	C 	0.19110 0.92029 0.80891 0.09800
H 	H 	0.18280 0.96530 0.82760 -0.01500
C 	C 	0.24979 0.81651 0.78428 0.08800
H 	H 	0.28920 0.77290 0.78050 -0.00900
C 	C 	0.12100 0.78840 0.71415 -0.04800
H 	H 	0.08780 0.82240 0.68950 0.04700
H 	H 	0.17320 0.76050 0.69520 0.04300
C 	C 	0.04320 0.73298 0.73535 -0.09700
H 	H 	0.07790 0.69750 0.75830 0.06100
H 	H 	0.01580 0.70410 0.70620 0.06300
N 	N 	0.76634 0.37056 0.81919 -0.24400
N 	N 	0.63090 0.40051 0.77074 -0.10400
N 	N 	0.66919 0.33339 0.75560 -0.09400
C 	C 	0.69110 0.42029 0.80891 0.09800
H 	H 	0.68280 0.46530 0.82760 -0.01500
C 	C 	0.74979 0.31651 0.78428 0.08800
H 	H 	0.78920 0.27290 0.78050 -0.00900
C 	C 	0.62100 0.28840 0.71415 -0.04800
H 	H 	0.58780 0.32240 0.68950 0.04700
H 	H 	0.67320 0.26050 0.69520 0.04300
C 	C 	0.54320 0.23298 0.73535 -0.09700
H 	H 	0.57790 0.19750 0.75830 0.06100
H 	H 	0.51580 0.20410 0.70620 0.06300
N 	N 	0.76634 0.87056 0.31919 -0.24400
N 	N 	0.63090 0.90051 0.27074 -0.10400
N 	N 	0.66919 0.83339 0.25560 -0.09400
C 	C 	0.69110 0.92029 0.30891 0.09800
H 	H 	0.68280 0.96530 0.32760 -0.01500
C 	C 	0.74979 0.81651 0.28428 0.08800
H 	H 	0.78920 0.77290 0.28050 -0.00900
C 	C 	0.62100 0.78840 0.21415 -0.04800
H 	H 	0.58780 0.82240 0.18950 0.04700
H 	H 	0.67320 0.76050 0.19520 0.04300
C 	C 	0.54320 0.73298 0.23535 -0.09700
H 	H 	0.57790 0.69750 0.25830 0.06100
H 	H 	0.51580 0.70410 0.20620 0.06300
N 	N 	0.98366 0.87944 0.31919 -0.24400
N 	N 	0.11910 0.84949 0.27074 -0.10400
N 	N 	0.08081 0.91661 0.25560 -0.09400
C 	C 	0.05890 0.82971 0.30891 0.09800
H 	H 	0.06720 0.78470 0.32760 -0.01500
C 	C 	0.00021 0.93349 0.28428 0.08800
H 	H 	0.96080 0.97710 0.28050 -0.00900
C 	C 	0.12900 0.96160 0.21415 -0.04900
H 	H 	0.16220 0.92760 0.18950 0.04700
H 	H 	0.07680 0.98950 0.19520 0.04300
C 	C 	0.20680 0.01702 0.23535 -0.09500
H 	H 	0.17210 0.05250 0.25830 0.06000
H 	H 	0.23420 0.04590 0.20620 0.06300
N 	N 	0.98366 0.37944 0.81919 -0.24400
N 	N 	0.11910 0.34949 0.77074 -0.10400
N 	N 	0.08081 0.41661 0.75560 -0.09400
C 	C 	0.05890 0.32971 0.80891 0.09800
H 	H 	0.06720 0.28470 0.82760 -0.01500
C 	C 	0.00021 0.43349 0.78428 0.08800
H 	H 	0.96080 0.47710 0.78050 -0.00900
C 	C 	0.12900 0.46160 0.71415 -0.04800
H 	H 	0.16220 0.42760 0.68950 0.04700
H 	H 	0.07680 0.48950 0.69520 0.04300
C 	C 	0.20680 0.51702 0.73535 -0.09700
H 	H 	0.17210 0.55250 0.75830 0.06100
H 	H 	0.23420 0.54590 0.70620 0.06300
N 	N 	0.48366 0.87944 0.81919 -0.24400
N 	N 	0.61910 0.84949 0.77074 -0.10400
N 	N 	0.58081 0.91661 0.75560 -0.09400
C 	C 	0.55890 0.82971 0.80891 0.09800
H 	H 	0.56720 0.78470 0.82760 -0.01500
C 	C 	0.50021 0.93349 0.78428 0.08800
H 	H 	0.46080 0.97710 0.78050 -0.00900
C 	C 	0.62900 0.96160 0.71415 -0.04800
H 	H 	0.66220 0.92760 0.68950 0.04600
H 	H 	0.57680 0.98950 0.69520 0.04300
C 	C 	0.70680 0.01702 0.73535 -0.09800
H 	H 	0.67210 0.05250 0.75830 0.06100
H 	H 	0.73420 0.04590 0.70620 0.06300
N 	N 	0.48366 0.37944 0.31919 -0.24400
N 	N 	0.61910 0.34949 0.27074 -0.10400
N 	N 	0.58081 0.41661 0.25560 -0.09400
C 	C 	0.55890 0.32971 0.30891 0.09800
H 	H 	0.56720 0.28470 0.32760 -0.01500
C 	C 	0.50021 0.43349 0.28428 0.08800
H 	H 	0.46080 0.47710 0.28050 -0.00900
C 	C 	0.62900 0.46160 0.21415 -0.04800
H 	H 	0.66220 0.42760 0.18950 0.04700
H 	H 	0.57680 0.48950 0.19520 0.04300
C 	C 	0.70680 0.51702 0.23535 -0.09700
H 	H 	0.67210 0.55250 0.25830 0.06100
H 	H 	0.73420 0.54590 0.20620 0.06300
N 	N 	0.98366 0.37056 0.93081 -0.24400
N 	N 	0.11910 0.40051 0.97926 -0.10400
N 	N 	0.08081 0.33339 0.99440 -0.09400
C 	C 	0.05890 0.42029 0.94109 0.09800
H 	H 	0.06720 0.46530 0.92240 -0.01500
C 	C 	0.00021 0.31651 0.96572 0.08700
H 	H 	0.96080 0.27290 0.96950 -0.00900
C 	C 	0.12900 0.28840 0.03585 -0.04900
H 	H 	0.16220 0.32240 0.06050 0.04700
H 	H 	0.07680 0.26050 0.05480 0.04300
C 	C 	0.20680 0.23298 0.01465 -0.09500
H 	H 	0.17210 0.19750 0.99170 0.06000
H 	H 	0.23420 0.20410 0.04380 0.06200
N 	N 	0.98366 0.87056 0.43081 -0.24400
N 	N 	0.11910 0.90051 0.47926 -0.10400
N 	N 	0.08081 0.83339 0.49440 -0.09400
C 	C 	0.05890 0.92029 0.44109 0.09800
H 	H 	0.06720 0.96530 0.42240 -0.01500
C 	C 	0.00021 0.81651 0.46572 0.08800
H 	H 	0.96080 0.77290 0.46950 -0.00900
C 	C 	0.12900 0.78840 0.53585 -0.04800
H 	H 	0.16220 0.82240 0.56050 0.04700
H 	H 	0.07680 0.76050 0.55480 0.04300
C 	C 	0.20680 0.73298 0.51465 -0.09700
H 	H 	0.17210 0.69750 0.49170 0.06100
H 	H 	0.23420 0.70410 0.54380 0.06300
N 	N 	0.48366 0.37056 0.43081 -0.24400
N 	N 	0.61910 0.40051 0.47926 -0.10400
N 	N 	0.58081 0.33339 0.49440 -0.09400
C 	C 	0.55890 0.42029 0.44109 0.09800
H 	H 	0.56720 0.46530 0.42240 -0.01500
C 	C 	0.50021 0.31651 0.46572 0.08800
H 	H 	0.46080 0.27290 0.46950 -0.00900
C 	C 	0.62900 0.28840 0.53585 -0.04800
H 	H 	0.66220 0.32240 0.56050 0.04700
H 	H 	0.57680 0.26050 0.55480 0.04300
C 	C 	0.70680 0.23298 0.51465 -0.09700
H 	H 	0.67210 0.19750 0.49170 0.06100
H 	H 	0.73420 0.20410 0.54380 0.06300
N 	N 	0.48366 0.87056 0.93081 -0.24400
N 	N 	0.61910 0.90051 0.97926 -0.10400
N 	N 	0.58081 0.83339 0.99440 -0.09400
C 	C 	0.55890 0.92029 0.94109 0.09800
H 	H 	0.56720 0.96530 0.92240 -0.01500
C 	C 	0.50021 0.81651 0.96572 0.08800
H 	H 	0.46080 0.77290 0.96950 -0.00900
C 	C 	0.62900 0.78840 0.03585 -0.04800
H 	H 	0.66220 0.82240 0.06050 0.04600
H 	H 	0.57680 0.76050 0.05480 0.04300
C 	C 	0.70680 0.73298 0.01465 -0.09900
H 	H 	0.67210 0.69750 0.99170 0.06100
H 	H 	0.73420 0.70410 0.04380 0.06400
N 	N 	0.26634 0.87944 0.93081 -0.24400
N 	N 	0.13090 0.84949 0.97926 -0.10400
N 	N 	0.16919 0.91661 0.99440 -0.09400
C 	C 	0.19110 0.82971 0.94109 0.09800
H 	H 	0.18280 0.78470 0.92240 -0.01500
C 	C 	0.24979 0.93349 0.96572 0.08800
H 	H 	0.28920 0.97710 0.96950 -0.00900
C 	C 	0.12100 0.96160 0.03585 -0.05000
H 	H 	0.08780 0.92760 0.06050 0.04700
H 	H 	0.17320 0.98950 0.05480 0.04300
C 	C 	0.04320 0.01702 0.01465 -0.09600
H 	H 	0.07790 0.05250 0.99170 0.06000
H 	H 	0.01580 0.04590 0.04380 0.06300
N 	N 	0.26634 0.37944 0.43081 -0.24400
N 	N 	0.13090 0.34949 0.47926 -0.10400
N 	N 	0.16919 0.41661 0.49440 -0.09400
C 	C 	0.19110 0.32971 0.44109 0.09800
H 	H 	0.18280 0.28470 0.42240 -0.01500
C 	C 	0.24979 0.43349 0.46572 0.08800
H 	H 	0.28920 0.47710 0.46950 -0.00900
C 	C 	0.12100 0.46160 0.53585 -0.04800
H 	H 	0.08780 0.42760 0.56050 0.04700
H 	H 	0.17320 0.48950 0.55480 0.04300
C 	C 	0.04320 0.51702 0.51465 -0.09700
H 	H 	0.07790 0.55250 0.49170 0.06100
H 	H 	0.01580 0.54590 0.54380 0.06300
N 	N 	0.76634 0.87944 0.43081 -0.24400
N 	N 	0.63090 0.84949 0.47926 -0.10400
N 	N 	0.66919 0.91661 0.49440 -0.09400
C 	C 	0.69110 0.82971 0.44109 0.09800
H 	H 	0.68280 0.78470 0.42240 -0.01500
C 	C 	0.74979 0.93349 0.46572 0.08800
H 	H 	0.78920 0.97710 0.46950 -0.00900
C 	C 	0.62100 0.96160 0.53585 -0.04800
H 	H 	0.58780 0.92760 0.56050 0.04700
H 	H 	0.67320 0.98950 0.55480 0.04300
C 	C 	0.54320 0.01702 0.51465 -0.09700
H 	H 	0.57790 0.05250 0.49170 0.06100
H 	H 	0.51580 0.04590 0.54380 0.06300
N 	N 	0.76634 0.37944 0.93081 -0.24400
N 	N 	0.63090 0.34949 0.97926 -0.10400
N 	N 	0.66919 0.41661 0.99440 -0.09400
C 	C 	0.69110 0.32971 0.94109 0.09800
H 	H 	0.68280 0.28470 0.92240 -0.01500
C 	C 	0.74979 0.43349 0.96572 0.08800
H 	H 	0.78920 0.47710 0.96950 -0.00900
C 	C 	0.62100 0.46160 0.03585 -0.04800
H 	H 	0.58780 0.42760 0.06050 0.04700
H 	H 	0.67320 0.48950 0.05480 0.04300
C 	C 	0.54320 0.51702 0.01465 -0.09700
H 	H 	0.57790 0.55250 0.99170 0.06100
H 	H 	0.51580 0.54590 0.04380 0.06300
Cu	Cu	0.62500 0.62500 0.62500 0.85300
Cu	Cu	0.12500 0.12500 0.62500 0.85300
Cu	Cu	0.12500 0.62500 0.12500 0.85300
Cu	Cu	0.62500 0.12500 0.12500 0.85300
Cu	Cu	0.37500 0.37500 0.37500 0.85300
Cu	Cu	0.87500 0.87500 0.37500 0.85300
Cu	Cu	0.87500 0.37500 0.87500 0.85300
Cu	Cu	0.37500 0.87500 0.87500 0.85300
