data_crystal

_cell_length_a 10.33320
_cell_length_b 11.76350
_cell_length_c 20.45240
_cell_angle_alpha 90.00000
_cell_angle_beta  90.00000
_cell_angle_gamma 90.00000

_symmetry_space_group_name_	'P 1'
_symmetry_space_group_name_H-M	'P 1'

loop_
_symmetry_equiv_pos_as_xyz
  x,y,z

loop_
_atom_site_label
_atom_site_type_symbol
_atom_site_fract_x
_atom_site_fract_y
_atom_site_fract_z
_atom_site_charge
Zn	Zn	0.45083 0.42233 0.00975 1.21100
Zn	Zn	0.13842 0.32406 0.00750 1.23500
O 	O 	0.33690 0.27260 0.00390 -0.55500
O 	O 	0.45540 0.11810 0.98250 -0.43800
O 	O 	0.11600 0.16000 0.99090 -0.57200
C 	C 	0.35060 0.16950 0.98650 0.31300
C 	C 	0.22760 0.10530 0.96690 0.13300
H 	H 	0.23140 0.02650 0.98520 -0.03000
C 	C 	0.22390 0.09830 0.89220 -0.52400
H 	H 	0.16790 0.03520 0.87880 0.16100
H 	H 	0.31160 0.08550 0.87550 0.18100
H 	H 	0.18990 0.16960 0.87440 0.16800
O 	O 	0.36770 0.46150 0.09350 -0.51300
O 	O 	0.17060 0.38060 0.09810 -0.47500
C 	C 	0.26650 0.43150 0.12270 0.39700
C 	C 	0.25840 0.46180 0.19400 -0.09600
C 	C 	0.17670 0.40010 0.23520 -0.01700
H 	H 	0.12470 0.34030 0.21840 0.03900
C 	C 	0.17280 0.42770 0.30110 -0.01500
H 	H 	0.11900 0.38490 0.32960 0.03600
C 	C 	0.24550 0.51600 0.32610 -0.09200
C 	C 	0.32700 0.57590 0.28510 -0.01700
H 	H 	0.37910 0.63550 0.30210 0.03400
C 	C 	0.33300 0.54940 0.21890 -0.01500
H 	H 	0.38840 0.59140 0.19080 0.03500
C 	C 	0.23560 0.54840 0.39780 0.39100
O 	O 	0.13000 0.52650 0.42530 -0.50000
O 	O 	0.33500 0.59090 0.42350 -0.47500
Zn	Zn	0.04917 0.57767 0.50975 1.21000
Zn	Zn	0.36158 0.67594 0.50750 1.23500
O 	O 	0.16310 0.72740 0.50390 -0.55400
O 	O 	0.04460 0.88190 0.48250 -0.43800
O 	O 	0.38400 0.84000 0.49090 -0.57400
C 	C 	0.14940 0.83050 0.48650 0.31000
C 	C 	0.27240 0.89470 0.46690 0.13300
H 	H 	0.26860 0.97350 0.48520 -0.03100
C 	C 	0.27610 0.90170 0.39220 -0.52400
H 	H 	0.33210 0.96480 0.37880 0.16000
H 	H 	0.18840 0.91450 0.37550 0.18000
H 	H 	0.31010 0.83040 0.37440 0.16800
O 	O 	0.13230 0.53850 0.59350 -0.51200
O 	O 	0.32940 0.61940 0.59810 -0.47400
C 	C 	0.23350 0.56850 0.62270 0.39700
C 	C 	0.24160 0.53820 0.69400 -0.09500
C 	C 	0.32330 0.59990 0.73520 -0.01700
H 	H 	0.37530 0.65970 0.71840 0.03900
C 	C 	0.32720 0.57230 0.80110 -0.01500
H 	H 	0.38100 0.61510 0.82960 0.03600
C 	C 	0.25450 0.48400 0.82610 -0.09200
C 	C 	0.17300 0.42410 0.78510 -0.01600
H 	H 	0.12090 0.36450 0.80210 0.03400
C 	C 	0.16700 0.45060 0.71890 -0.01500
H 	H 	0.11160 0.40860 0.69080 0.03500
C 	C 	0.26440 0.45160 0.89780 0.39100
O 	O 	0.37000 0.47350 0.92530 -0.49900
O 	O 	0.16500 0.40910 0.92350 -0.47400
Zn	Zn	0.54917 0.92233 0.49025 1.21000
Zn	Zn	0.86158 0.82406 0.49250 1.23600
O 	O 	0.66310 0.77260 0.49610 -0.55400
O 	O 	0.54460 0.61810 0.51750 -0.43700
O 	O 	0.88400 0.66000 0.50910 -0.57400
C 	C 	0.64940 0.66950 0.51350 0.31000
C 	C 	0.77240 0.60530 0.53310 0.13400
H 	H 	0.76860 0.52650 0.51480 -0.03000
C 	C 	0.77610 0.59830 0.60780 -0.52500
H 	H 	0.83210 0.53520 0.62120 0.16100
H 	H 	0.68840 0.58550 0.62450 0.18100
H 	H 	0.81010 0.66960 0.62560 0.16800
O 	O 	0.63230 0.96150 0.40650 -0.51300
O 	O 	0.82940 0.88060 0.40190 -0.47400
C 	C 	0.73350 0.93150 0.37730 0.39800
C 	C 	0.74160 0.96180 0.30600 -0.09800
C 	C 	0.82330 0.90010 0.26480 -0.01500
H 	H 	0.87530 0.84030 0.28160 0.03900
C 	C 	0.82720 0.92770 0.19890 -0.01800
H 	H 	0.88100 0.88490 0.17040 0.03700
C 	C 	0.75450 0.01600 0.17390 -0.08900
C 	C 	0.67300 0.07590 0.21490 -0.01900
H 	H 	0.62090 0.13550 0.19790 0.03500
C 	C 	0.66700 0.04940 0.28110 -0.01200
H 	H 	0.61160 0.09140 0.30920 0.03400
C 	C 	0.76440 0.04840 0.10220 0.39000
O 	O 	0.87000 0.02650 0.07470 -0.49800
O 	O 	0.66500 0.09090 0.07650 -0.47400
Zn	Zn	0.95083 0.07767 0.99025 1.20900
Zn	Zn	0.63842 0.17594 0.99250 1.23500
O 	O 	0.83690 0.22740 0.99610 -0.55700
O 	O 	0.95540 0.38190 0.01750 -0.43600
O 	O 	0.61600 0.34000 0.00910 -0.57300
C 	C 	0.85060 0.33050 0.01350 0.31300
C 	C 	0.72760 0.39470 0.03310 0.13300
H 	H 	0.73140 0.47350 0.01480 -0.03000
C 	C 	0.72390 0.40170 0.10780 -0.52500
H 	H 	0.66790 0.46480 0.12120 0.16100
H 	H 	0.81160 0.41450 0.12450 0.18200
H 	H 	0.68990 0.33040 0.12560 0.16800
O 	O 	0.86770 0.03850 0.90650 -0.51400
O 	O 	0.67060 0.11940 0.90190 -0.47400
C 	C 	0.76650 0.06850 0.87730 0.39800
C 	C 	0.75840 0.03820 0.80600 -0.09800
C 	C 	0.67670 0.09990 0.76480 -0.01500
H 	H 	0.62470 0.15970 0.78160 0.03900
C 	C 	0.67280 0.07230 0.69890 -0.01700
H 	H 	0.61900 0.11510 0.67040 0.03700
C 	C 	0.74550 0.98400 0.67390 -0.09000
C 	C 	0.82700 0.92410 0.71490 -0.01800
H 	H 	0.87910 0.86450 0.69790 0.03400
C 	C 	0.83300 0.95060 0.78110 -0.01200
H 	H 	0.88840 0.90860 0.80920 0.03400
C 	C 	0.73560 0.95160 0.60220 0.39000
O 	O 	0.63000 0.97350 0.57470 -0.50000
O 	O 	0.83500 0.90910 0.57650 -0.47500
