data_crystal

_cell_length_a 10.73260
_cell_length_b 23.25620
_cell_length_c 9.76350
_cell_angle_alpha 90.00000
_cell_angle_beta  105.39200
_cell_angle_gamma 90.00000

_symmetry_space_group_name_	'P 1'
_symmetry_space_group_name_H-M	'P 1'

loop_
_symmetry_equiv_pos_as_xyz
  x,y,z

loop_
_atom_site_label
_atom_site_type_symbol
_atom_site_fract_x
_atom_site_fract_y
_atom_site_fract_z
_atom_site_charge
Zn	Zn	0.32959 0.10066 0.96839 1.20900
O 	O 	0.40038 0.05229 0.13505 -0.47300
O 	O 	0.26170 0.08560 0.23870 -0.21100
C 	C 	0.36561 0.06196 0.24440 0.38200
C 	C 	0.43555 0.02944 0.37701 -0.07800
C 	C 	0.42158 0.04654 0.50908 -0.02300
H 	H 	0.36820 0.07850 0.51550 0.06100
C 	C 	0.51446 0.98296 0.36862 -0.00700
H 	H 	0.52480 0.97130 0.27900 0.04400
O 	O 	0.20189 0.04966 0.84342 -0.44700
O 	O 	0.23223 0.10991 0.67895 -0.32800
C 	C 	0.18044 0.06701 0.71436 0.30600
C 	C 	0.08696 0.03222 0.60389 -0.06100
C 	C 	0.08403 0.03845 0.46020 -0.03000
H 	H 	0.14100 0.06470 0.43300 0.06100
C 	C 	0.00239 0.99383 0.64239 -0.01900
H 	H 	0.00380 0.98970 0.73960 0.04700
N 	N 	0.50307 0.11060 0.92546 -0.25600
N 	N 	0.70333 0.09420 0.92016 -0.11300
N 	N 	0.14021 0.24236 0.42133 -0.11700
N 	N 	0.26240 0.31933 0.47139 -0.26800
C 	C 	0.60756 0.07871 0.97698 0.08900
H 	H 	0.61370 0.04890 0.04500 0.00200
C 	C 	0.53481 0.14817 0.83110 0.00700
H 	H 	0.47870 0.17630 0.77690 0.01800
C 	C 	0.65880 0.13869 0.82760 -0.00500
H 	H 	0.70540 0.15880 0.77240 0.03300
C 	C 	0.83288 0.06813 0.95210 -0.05000
H 	H 	0.84680 0.05130 0.86420 0.05000
H 	H 	0.83840 0.03670 0.02180 0.05800
C 	C 	0.93836 0.11220 0.01190 -0.10200
H 	H 	0.93560 0.14230 0.93940 0.05700
H 	H 	0.02350 0.09300 0.03100 0.05300
C 	C 	0.92610 0.14087 0.14830 -0.05900
H 	H 	0.92140 0.11080 0.21860 0.05100
H 	H 	0.84470 0.16320 0.12770 0.04900
C 	C 	0.03958 0.18090 0.21250 -0.14200
H 	H 	0.12170 0.15950 0.22590 0.09500
H 	H 	0.03990 0.21310 0.14610 0.07600
C 	C 	0.03080 0.20478 0.35410 -0.02000
H 	H 	0.94940 0.22680 0.33960 0.03400
H 	H 	0.02760 0.17240 0.41890 0.04600
C 	C 	0.24140 0.22841 0.53450 -0.01600
H 	H 	0.25680 0.19240 0.58210 0.05900
C 	C 	0.31550 0.27645 0.56490 0.01800
H 	H 	0.39250 0.27980 0.63970 0.01000
C 	C 	0.15598 0.29731 0.38620 0.08800
H 	H 	0.09870 0.31750 0.31070 -0.00800
O 	O 	0.31850 0.11100 0.26500 -0.17000
Zn	Zn	0.67041 0.60066 0.53161 1.21000
O 	O 	0.59962 0.55229 0.36495 -0.47400
O 	O 	0.73830 0.58560 0.26130 -0.21100
C 	C 	0.63439 0.56196 0.25560 0.38200
C 	C 	0.56445 0.52944 0.12299 -0.07900
C 	C 	0.57842 0.54654 0.99092 -0.02300
H 	H 	0.63180 0.57850 0.98450 0.06100
C 	C 	0.48554 0.48296 0.13138 -0.00600
H 	H 	0.47520 0.47130 0.22100 0.04400
O 	O 	0.79811 0.54966 0.65658 -0.44600
O 	O 	0.76777 0.60991 0.82105 -0.32800
C 	C 	0.81956 0.56701 0.78564 0.30600
C 	C 	0.91304 0.53222 0.89611 -0.06000
C 	C 	0.91597 0.53845 0.03980 -0.03200
H 	H 	0.85900 0.56470 0.06700 0.06100
C 	C 	0.99761 0.49383 0.85761 -0.01800
H 	H 	0.99620 0.48970 0.76040 0.04700
N 	N 	0.49693 0.61060 0.57454 -0.25600
N 	N 	0.29667 0.59420 0.57984 -0.11400
N 	N 	0.85979 0.74236 0.07867 -0.11800
N 	N 	0.73760 0.81933 0.02861 -0.26800
C 	C 	0.39244 0.57871 0.52302 0.09100
H 	H 	0.38630 0.54890 0.45500 0.00100
C 	C 	0.46519 0.64817 0.66890 0.00700
H 	H 	0.52130 0.67630 0.72310 0.01800
C 	C 	0.34120 0.63869 0.67240 -0.00500
H 	H 	0.29460 0.65880 0.72760 0.03300
C 	C 	0.16712 0.56813 0.54790 -0.04600
H 	H 	0.15320 0.55130 0.63580 0.04900
H 	H 	0.16160 0.53670 0.47820 0.05600
C 	C 	0.06164 0.61220 0.48810 -0.10600
H 	H 	0.06440 0.64230 0.56060 0.05800
H 	H 	0.97650 0.59300 0.46900 0.05300
C 	C 	0.07390 0.64087 0.35170 -0.05600
H 	H 	0.07860 0.61080 0.28140 0.05100
H 	H 	0.15530 0.66320 0.37230 0.04800
C 	C 	0.96042 0.68090 0.28750 -0.14300
H 	H 	0.87830 0.65950 0.27410 0.09500
H 	H 	0.96010 0.71310 0.35390 0.07600
C 	C 	0.96920 0.70478 0.14590 -0.02000
H 	H 	0.05060 0.72680 0.16040 0.03400
H 	H 	0.97240 0.67240 0.08110 0.04500
C 	C 	0.75860 0.72841 0.96550 -0.01400
H 	H 	0.74320 0.69240 0.91790 0.05900
C 	C 	0.68450 0.77645 0.93510 0.01900
H 	H 	0.60750 0.77980 0.86030 0.01000
C 	C 	0.84402 0.79731 0.11380 0.08800
H 	H 	0.90130 0.81750 0.18930 -0.00800
O 	O 	0.68150 0.61100 0.23500 -0.17100
Zn	Zn	0.67041 0.89934 0.03161 1.20900
O 	O 	0.59962 0.94771 0.86495 -0.47300
O 	O 	0.73830 0.91440 0.76130 -0.21100
C 	C 	0.63439 0.93804 0.75560 0.38200
C 	C 	0.56445 0.97056 0.62299 -0.07800
C 	C 	0.57842 0.95346 0.49092 -0.02300
H 	H 	0.63180 0.92150 0.48450 0.06100
C 	C 	0.48554 0.01704 0.63138 -0.00700
H 	H 	0.47520 0.02870 0.72100 0.04400
O 	O 	0.79811 0.95034 0.15658 -0.44700
O 	O 	0.76777 0.89009 0.32105 -0.32800
C 	C 	0.81956 0.93299 0.28564 0.30600
C 	C 	0.91304 0.96778 0.39611 -0.06100
C 	C 	0.91597 0.96155 0.53980 -0.03000
H 	H 	0.85900 0.93530 0.56700 0.06100
C 	C 	0.99761 0.00617 0.35761 -0.01900
H 	H 	0.99620 0.01030 0.26040 0.04700
N 	N 	0.49693 0.88940 0.07454 -0.25600
N 	N 	0.29667 0.90580 0.07984 -0.11300
N 	N 	0.85979 0.75764 0.57867 -0.11700
N 	N 	0.73760 0.68067 0.52861 -0.26800
C 	C 	0.39244 0.92129 0.02302 0.08900
H 	H 	0.38630 0.95110 0.95500 0.00200
C 	C 	0.46519 0.85183 0.16890 0.00700
H 	H 	0.52130 0.82370 0.22310 0.01800
C 	C 	0.34120 0.86131 0.17240 -0.00500
H 	H 	0.29460 0.84120 0.22760 0.03300
C 	C 	0.16712 0.93187 0.04790 -0.05000
H 	H 	0.15320 0.94870 0.13580 0.05000
H 	H 	0.16160 0.96330 0.97820 0.05800
C 	C 	0.06164 0.88780 0.98810 -0.10200
H 	H 	0.06440 0.85770 0.06060 0.05700
H 	H 	0.97650 0.90700 0.96900 0.05300
C 	C 	0.07390 0.85913 0.85170 -0.05900
H 	H 	0.07860 0.88920 0.78140 0.05100
H 	H 	0.15530 0.83680 0.87230 0.04900
C 	C 	0.96042 0.81910 0.78750 -0.14200
H 	H 	0.87830 0.84050 0.77410 0.09500
H 	H 	0.96010 0.78690 0.85390 0.07600
C 	C 	0.96920 0.79522 0.64590 -0.02000
H 	H 	0.05060 0.77320 0.66040 0.03400
H 	H 	0.97240 0.82760 0.58110 0.04600
C 	C 	0.75860 0.77159 0.46550 -0.01600
H 	H 	0.74320 0.80760 0.41790 0.05900
C 	C 	0.68450 0.72355 0.43510 0.01800
H 	H 	0.60750 0.72020 0.36030 0.01000
C 	C 	0.84402 0.70269 0.61380 0.08800
H 	H 	0.90130 0.68250 0.68930 -0.00800
O 	O 	0.68150 0.88900 0.73500 -0.17000
Zn	Zn	0.32959 0.39934 0.46839 1.21000
O 	O 	0.40038 0.44771 0.63505 -0.47400
O 	O 	0.26170 0.41440 0.73870 -0.21100
C 	C 	0.36561 0.43804 0.74440 0.38200
C 	C 	0.43555 0.47056 0.87701 -0.07900
C 	C 	0.42158 0.45346 0.00908 -0.02300
H 	H 	0.36820 0.42150 0.01550 0.06100
C 	C 	0.51446 0.51704 0.86862 -0.00600
H 	H 	0.52480 0.52870 0.77900 0.04400
O 	O 	0.20189 0.45034 0.34342 -0.44600
O 	O 	0.23223 0.39009 0.17895 -0.32800
C 	C 	0.18044 0.43299 0.21436 0.30600
C 	C 	0.08696 0.46778 0.10389 -0.06000
C 	C 	0.08403 0.46155 0.96020 -0.03200
H 	H 	0.14100 0.43530 0.93300 0.06100
C 	C 	0.00239 0.50617 0.14239 -0.01800
H 	H 	0.00380 0.51030 0.23960 0.04700
N 	N 	0.50307 0.38940 0.42546 -0.25600
N 	N 	0.70333 0.40580 0.42016 -0.11400
N 	N 	0.14021 0.25764 0.92133 -0.11800
N 	N 	0.26240 0.18067 0.97139 -0.26800
C 	C 	0.60756 0.42129 0.47698 0.09100
H 	H 	0.61370 0.45110 0.54500 0.00100
C 	C 	0.53481 0.35183 0.33110 0.00700
H 	H 	0.47870 0.32370 0.27690 0.01800
C 	C 	0.65880 0.36131 0.32760 -0.00500
H 	H 	0.70540 0.34120 0.27240 0.03300
C 	C 	0.83288 0.43187 0.45210 -0.04600
H 	H 	0.84680 0.44870 0.36420 0.04900
H 	H 	0.83840 0.46330 0.52180 0.05600
C 	C 	0.93836 0.38780 0.51190 -0.10600
H 	H 	0.93560 0.35770 0.43940 0.05800
H 	H 	0.02350 0.40700 0.53100 0.05300
C 	C 	0.92610 0.35913 0.64830 -0.05600
H 	H 	0.92140 0.38920 0.71860 0.05100
H 	H 	0.84470 0.33680 0.62770 0.04800
C 	C 	0.03958 0.31910 0.71250 -0.14300
H 	H 	0.12170 0.34050 0.72590 0.09500
H 	H 	0.03990 0.28690 0.64610 0.07600
C 	C 	0.03080 0.29522 0.85410 -0.02000
H 	H 	0.94940 0.27320 0.83960 0.03400
H 	H 	0.02760 0.32760 0.91890 0.04500
C 	C 	0.24140 0.27159 0.03450 -0.01400
H 	H 	0.25680 0.30760 0.08210 0.05900
C 	C 	0.31550 0.22355 0.06490 0.01900
H 	H 	0.39250 0.22020 0.13970 0.01000
C 	C 	0.15598 0.20269 0.88620 0.08800
H 	H 	0.09870 0.18250 0.81070 -0.00800
O 	O 	0.31850 0.38900 0.76500 -0.17100
