data_crystal

_cell_length_a 10.85460
_cell_length_b 23.62610
_cell_length_c 9.67990
_cell_angle_alpha 90.00000
_cell_angle_beta  104.14000
_cell_angle_gamma 90.00000

_symmetry_space_group_name_	'P 1'
_symmetry_space_group_name_H-M	'P 1'

loop_
_symmetry_equiv_pos_as_xyz
  x,y,z

loop_
_atom_site_label
_atom_site_type_symbol
_atom_site_fract_x
_atom_site_fract_y
_atom_site_fract_z
_atom_site_charge
Cd	Cd	0.31934 0.10554 0.47238 1.21700
O 	O 	0.16405 0.04458 0.36101 -0.39500
O 	O 	0.23175 0.09961 0.21045 -0.36500
C 	C 	0.16382 0.06030 0.23581 0.29200
C 	C 	0.07842 0.02922 0.11325 -0.05400
C 	C 	0.98632 0.99202 0.13789 -0.02600
H 	H 	0.97690 0.98660 0.23200 0.04800
C 	C 	0.09155 0.03711 0.97468 -0.02800
H 	H 	0.15400 0.06250 0.95740 0.05400
O 	O 	0.42350 0.03360 0.61964 -0.38000
O 	O 	0.33006 0.09829 0.72234 -0.37800
C 	C 	0.39694 0.05461 0.72827 0.29300
C 	C 	0.44928 0.02613 0.86914 -0.05700
C 	C 	0.52082 0.97671 0.87554 -0.01500
H 	H 	0.53520 0.96090 0.79060 0.04700
C 	C 	0.42909 0.04940 0.99476 -0.02800
H 	H 	0.38090 0.08320 0.99110 0.05600
N 	N 	0.51175 0.12191 0.43047 -0.23400
N 	N 	0.70227 0.10050 0.40508 -0.11200
N 	N 	0.12782 0.22991 0.91998 -0.11800
N 	N 	0.24848 0.30551 0.96919 -0.24400
C 	C 	0.60985 0.08712 0.46913 0.08400
H 	H 	0.61410 0.05660 0.53400 0.01100
C 	C 	0.54424 0.15923 0.33620 0.00600
H 	H 	0.49210 0.18920 0.28950 0.01400
C 	C 	0.66168 0.14680 0.31990 -0.00700
H 	H 	0.70680 0.16610 0.26160 0.03200
C 	C 	0.82476 0.07157 0.42520 -0.04900
H 	H 	0.83570 0.05860 0.33170 0.05000
H 	H 	0.82550 0.03780 0.48600 0.05900
C 	C 	0.93461 0.11011 0.49420 -0.09400
H 	H 	0.93920 0.14160 0.42800 0.05200
H 	H 	0.01490 0.08840 0.50960 0.04600
C 	C 	0.92315 0.13472 0.63587 -0.07400
H 	H 	0.91060 0.10350 0.69920 0.05500
H 	H 	0.84730 0.15940 0.61930 0.05400
C 	C 	0.04011 0.16894 0.71030 -0.12600
H 	H 	0.11600 0.14420 0.73010 0.07200
H 	H 	0.05410 0.20000 0.64710 0.06900
C 	C 	0.02212 0.19343 0.84870 -0.02900
H 	H 	0.94240 0.21560 0.82890 0.03700
H 	H 	0.01350 0.16210 0.91350 0.04400
C 	C 	0.22376 0.21661 0.03660 -0.01400
H 	H 	0.23650 0.18160 0.08610 0.05100
C 	C 	0.29645 0.26368 0.06660 0.00900
H 	H 	0.36970 0.26730 0.14330 0.01000
C 	C 	0.14675 0.28339 0.88283 0.08300
H 	H 	0.09370 0.30280 0.80450 -0.00900
Cd	Cd	0.68066 0.60554 0.02762 1.21600
O 	O 	0.83595 0.54458 0.13899 -0.39700
O 	O 	0.76825 0.59961 0.28955 -0.36700
C 	C 	0.83618 0.56030 0.26419 0.29200
C 	C 	0.92158 0.52922 0.38675 -0.05700
C 	C 	0.01368 0.49202 0.36211 -0.02500
H 	H 	0.02310 0.48660 0.26800 0.04700
C 	C 	0.90845 0.53711 0.52532 -0.02800
H 	H 	0.84600 0.56250 0.54260 0.05300
O 	O 	0.57650 0.53360 0.88036 -0.38100
O 	O 	0.66994 0.59829 0.77766 -0.37900
C 	C 	0.60306 0.55461 0.77173 0.29200
C 	C 	0.55072 0.52613 0.63086 -0.05800
C 	C 	0.47918 0.47671 0.62446 -0.01700
H 	H 	0.46480 0.46090 0.70940 0.04700
C 	C 	0.57091 0.54940 0.50524 -0.02800
H 	H 	0.61910 0.58320 0.50890 0.05600
N 	N 	0.48825 0.62191 0.06953 -0.23400
N 	N 	0.29773 0.60050 0.09492 -0.11200
N 	N 	0.87218 0.72991 0.58002 -0.11700
N 	N 	0.75152 0.80551 0.53081 -0.24300
C 	C 	0.39015 0.58712 0.03087 0.08400
H 	H 	0.38590 0.55660 0.96600 0.01100
C 	C 	0.45576 0.65923 0.16380 0.00600
H 	H 	0.50790 0.68920 0.21050 0.01400
C 	C 	0.33832 0.64680 0.18010 -0.00700
H 	H 	0.29320 0.66610 0.23840 0.03200
C 	C 	0.17524 0.57157 0.07480 -0.05000
H 	H 	0.16430 0.55860 0.16830 0.05100
H 	H 	0.17450 0.53780 0.01400 0.06000
C 	C 	0.06539 0.61011 0.00580 -0.09200
H 	H 	0.06080 0.64160 0.07200 0.05200
H 	H 	0.98510 0.58840 0.99040 0.04600
C 	C 	0.07685 0.63472 0.86413 -0.07700
H 	H 	0.08940 0.60350 0.80080 0.05500
H 	H 	0.15270 0.65940 0.88070 0.05400
C 	C 	0.95989 0.66894 0.78970 -0.12400
H 	H 	0.88400 0.64420 0.76990 0.07200
H 	H 	0.94590 0.70000 0.85290 0.06900
C 	C 	0.97788 0.69343 0.65130 -0.02800
H 	H 	0.05760 0.71560 0.67110 0.03600
H 	H 	0.98650 0.66210 0.58650 0.04400
C 	C 	0.77624 0.71661 0.46340 -0.01500
H 	H 	0.76350 0.68160 0.41390 0.05100
C 	C 	0.70355 0.76368 0.43340 0.00900
H 	H 	0.63030 0.76730 0.35670 0.01100
C 	C 	0.85325 0.78339 0.61717 0.08300
H 	H 	0.90630 0.80280 0.69550 -0.00900
Cd	Cd	0.68066 0.89446 0.52762 1.21600
O 	O 	0.83595 0.95542 0.63899 -0.39600
O 	O 	0.76825 0.90039 0.78955 -0.36600
C 	C 	0.83618 0.93970 0.76419 0.29100
C 	C 	0.92158 0.97078 0.88675 -0.05500
C 	C 	0.01368 0.00798 0.86211 -0.02700
H 	H 	0.02310 0.01340 0.76800 0.04700
C 	C 	0.90845 0.96289 0.02532 -0.02900
H 	H 	0.84600 0.93750 0.04260 0.05300
O 	O 	0.57650 0.96640 0.38036 -0.38100
O 	O 	0.66994 0.90171 0.27766 -0.37900
C 	C 	0.60306 0.94539 0.27173 0.29200
C 	C 	0.55072 0.97387 0.13086 -0.05800
C 	C 	0.47918 0.02329 0.12446 -0.01600
H 	H 	0.46480 0.03910 0.20940 0.04700
C 	C 	0.57091 0.95060 0.00524 -0.02800
H 	H 	0.61910 0.91680 0.00890 0.05600
N 	N 	0.48825 0.87809 0.56953 -0.23400
N 	N 	0.29773 0.89950 0.59492 -0.11200
N 	N 	0.87218 0.77009 0.08002 -0.11800
N 	N 	0.75152 0.69449 0.03081 -0.24400
C 	C 	0.39015 0.91288 0.53087 0.08400
H 	H 	0.38590 0.94340 0.46600 0.01100
C 	C 	0.45576 0.84077 0.66380 0.00600
H 	H 	0.50790 0.81080 0.71050 0.01400
C 	C 	0.33832 0.85320 0.68010 -0.00700
H 	H 	0.29320 0.83390 0.73840 0.03200
C 	C 	0.17524 0.92843 0.57480 -0.04900
H 	H 	0.16430 0.94140 0.66830 0.05000
H 	H 	0.17450 0.96220 0.51400 0.05900
C 	C 	0.06539 0.88989 0.50580 -0.09400
H 	H 	0.06080 0.85840 0.57200 0.05200
H 	H 	0.98510 0.91160 0.49040 0.04600
C 	C 	0.07685 0.86528 0.36413 -0.07400
H 	H 	0.08940 0.89650 0.30080 0.05500
H 	H 	0.15270 0.84060 0.38070 0.05400
C 	C 	0.95989 0.83106 0.28970 -0.12600
H 	H 	0.88400 0.85580 0.26990 0.07200
H 	H 	0.94590 0.80000 0.35290 0.06900
C 	C 	0.97788 0.80657 0.15130 -0.02900
H 	H 	0.05760 0.78440 0.17110 0.03700
H 	H 	0.98650 0.83790 0.08650 0.04400
C 	C 	0.77624 0.78339 0.96340 -0.01400
H 	H 	0.76350 0.81840 0.91390 0.05100
C 	C 	0.70355 0.73632 0.93340 0.00900
H 	H 	0.63030 0.73270 0.85670 0.01000
C 	C 	0.85325 0.71661 0.11717 0.08300
H 	H 	0.90630 0.69720 0.19550 -0.00900
Cd	Cd	0.31934 0.39446 0.97238 1.21600
O 	O 	0.16405 0.45542 0.86101 -0.39700
O 	O 	0.23175 0.40039 0.71045 -0.36700
C 	C 	0.16382 0.43970 0.73581 0.29200
C 	C 	0.07842 0.47078 0.61325 -0.05700
C 	C 	0.98632 0.50798 0.63789 -0.02500
H 	H 	0.97690 0.51340 0.73200 0.04700
C 	C 	0.09155 0.46289 0.47468 -0.02800
H 	H 	0.15400 0.43750 0.45740 0.05300
O 	O 	0.42350 0.46640 0.11964 -0.38100
O 	O 	0.33006 0.40171 0.22234 -0.37900
C 	C 	0.39694 0.44539 0.22827 0.29200
C 	C 	0.44928 0.47387 0.36914 -0.05800
C 	C 	0.52082 0.52329 0.37554 -0.01700
H 	H 	0.53520 0.53910 0.29060 0.04700
C 	C 	0.42909 0.45060 0.49476 -0.02800
H 	H 	0.38090 0.41680 0.49110 0.05600
N 	N 	0.51175 0.37809 0.93047 -0.23400
N 	N 	0.70227 0.39950 0.90508 -0.11200
N 	N 	0.12782 0.27009 0.41998 -0.11700
N 	N 	0.24848 0.19449 0.46919 -0.24300
C 	C 	0.60985 0.41288 0.96913 0.08400
H 	H 	0.61410 0.44340 0.03400 0.01100
C 	C 	0.54424 0.34077 0.83620 0.00600
H 	H 	0.49210 0.31080 0.78950 0.01400
C 	C 	0.66168 0.35320 0.81990 -0.00700
H 	H 	0.70680 0.33390 0.76160 0.03200
C 	C 	0.82476 0.42843 0.92520 -0.05000
H 	H 	0.83570 0.44140 0.83170 0.05100
H 	H 	0.82550 0.46220 0.98600 0.06000
C 	C 	0.93461 0.38989 0.99420 -0.09200
H 	H 	0.93920 0.35840 0.92800 0.05200
H 	H 	0.01490 0.41160 0.00960 0.04600
C 	C 	0.92315 0.36528 0.13587 -0.07700
H 	H 	0.91060 0.39650 0.19920 0.05500
H 	H 	0.84730 0.34060 0.11930 0.05400
C 	C 	0.04011 0.33106 0.21030 -0.12400
H 	H 	0.11600 0.35580 0.23010 0.07200
H 	H 	0.05410 0.30000 0.14710 0.06900
C 	C 	0.02212 0.30657 0.34870 -0.02800
H 	H 	0.94240 0.28440 0.32890 0.03600
H 	H 	0.01350 0.33790 0.41350 0.04400
C 	C 	0.22376 0.28339 0.53660 -0.01500
H 	H 	0.23650 0.31840 0.58610 0.05100
C 	C 	0.29645 0.23632 0.56660 0.00900
H 	H 	0.36970 0.23270 0.64330 0.01100
C 	C 	0.14675 0.21661 0.38283 0.08300
H 	H 	0.09370 0.19720 0.30450 -0.00900
