data_crystal

_cell_length_a 8.59830
_cell_length_b 13.15610
_cell_length_c 13.46000
_cell_angle_alpha 90.00000
_cell_angle_beta  92.47000
_cell_angle_gamma 90.00000

_symmetry_space_group_name_	'P 1'
_symmetry_space_group_name_H-M	'P 1'

loop_
_symmetry_equiv_pos_as_xyz
  x,y,z

loop_
_atom_site_label
_atom_site_type_symbol
_atom_site_fract_x
_atom_site_fract_y
_atom_site_fract_z
_atom_site_charge
Be	Be	0.57830 0.11960 0.25050 1.48100
Be	Be	0.15620 0.99540 0.23950 1.48000
Be	Be	0.67700 0.82620 0.40460 1.48000
P 	P 	0.30853 0.13665 0.37579 0.55800
H 	H 	0.29700 0.23800 0.35900 -0.04900
P 	P 	0.34087 0.10041 0.09261 0.56100
H 	H 	0.36000 0.07300 0.99000 -0.00400
P 	P 	0.60424 0.34124 0.22833 0.54900
H 	H 	0.53200 0.37780 0.31610 -0.04200
P 	P 	0.81211 0.95391 0.24883 0.61000
H 	H 	0.73400 0.92000 0.16800 -0.05200
O 	O 	0.46310 0.09761 0.34086 -0.56700
O 	O 	0.50170 0.09475 0.14257 -0.59700
O 	O 	0.63630 0.23533 0.26471 -0.54800
O 	O 	0.73610 0.05449 0.27050 -0.54700
O 	O 	0.17110 0.09024 0.31845 -0.52300
O 	O 	0.22530 0.02654 0.13365 -0.54900
O 	O 	0.97570 0.96850 0.21888 -0.53500
O 	O 	0.80150 0.87857 0.33271 -0.54900
O 	O 	0.29740 0.11930 0.48664 -0.50900
O 	O 	0.27490 0.20713 0.08997 -0.56600
O 	O 	0.75700 0.39515 0.21216 -0.51000
O 	O 	0.50280 0.34341 0.13332 -0.56000
Be	Be	0.42170 0.61960 0.24950 1.48100
Be	Be	0.84380 0.49540 0.26050 1.48100
Be	Be	0.32300 0.32620 0.09540 1.48000
P 	P 	0.69147 0.63665 0.12421 0.55800
H 	H 	0.70300 0.73800 0.14100 -0.05000
P 	P 	0.65913 0.60041 0.40739 0.55800
H 	H 	0.64000 0.57300 0.51000 -0.00100
P 	P 	0.39576 0.84124 0.27167 0.54800
H 	H 	0.46800 0.87780 0.18390 -0.04400
P 	P 	0.18789 0.45391 0.25117 0.60800
H 	H 	0.26600 0.42000 0.33200 -0.05200
O 	O 	0.53690 0.59761 0.15914 -0.56800
O 	O 	0.49830 0.59475 0.35743 -0.59800
O 	O 	0.36370 0.73533 0.23529 -0.54800
O 	O 	0.26390 0.55449 0.22950 -0.54700
O 	O 	0.82890 0.59024 0.18155 -0.52500
O 	O 	0.77470 0.52654 0.36635 -0.55300
O 	O 	0.02430 0.46850 0.28112 -0.53900
O 	O 	0.19850 0.37857 0.16729 -0.55000
O 	O 	0.70260 0.61930 0.01336 -0.51100
O 	O 	0.72510 0.70713 0.41003 -0.56600
O 	O 	0.24300 0.89515 0.28784 -0.51300
O 	O 	0.49720 0.84341 0.36668 -0.56100
Be	Be	0.42170 0.88040 0.74950 1.48100
Be	Be	0.84380 0.00460 0.76050 1.48000
Be	Be	0.32300 0.17380 0.59540 1.48000
P 	P 	0.69147 0.86335 0.62421 0.55800
H 	H 	0.70300 0.76200 0.64100 -0.04900
P 	P 	0.65913 0.89959 0.90739 0.56100
H 	H 	0.64000 0.92700 0.01000 -0.00400
P 	P 	0.39576 0.65876 0.77167 0.54900
H 	H 	0.46800 0.62220 0.68390 -0.04200
P 	P 	0.18789 0.04609 0.75117 0.61000
H 	H 	0.26600 0.08000 0.83200 -0.05200
O 	O 	0.53690 0.90239 0.65914 -0.56700
O 	O 	0.49830 0.90525 0.85743 -0.59700
O 	O 	0.36370 0.76467 0.73529 -0.54800
O 	O 	0.26390 0.94551 0.72950 -0.54700
O 	O 	0.82890 0.90976 0.68155 -0.52300
O 	O 	0.77470 0.97346 0.86635 -0.54900
O 	O 	0.02430 0.03150 0.78112 -0.53500
O 	O 	0.19850 0.12143 0.66729 -0.54900
O 	O 	0.70260 0.88070 0.51336 -0.50900
O 	O 	0.72510 0.79287 0.91003 -0.56600
O 	O 	0.24300 0.60485 0.78784 -0.51000
O 	O 	0.49720 0.65659 0.86668 -0.56000
Be	Be	0.57830 0.38040 0.75050 1.48100
Be	Be	0.15620 0.50460 0.73950 1.48100
Be	Be	0.67700 0.67380 0.90460 1.48000
P 	P 	0.30853 0.36335 0.87579 0.55800
H 	H 	0.29700 0.26200 0.85900 -0.05000
P 	P 	0.34087 0.39959 0.59261 0.55800
H 	H 	0.36000 0.42700 0.49000 -0.00100
P 	P 	0.60424 0.15876 0.72833 0.54800
H 	H 	0.53200 0.12220 0.81610 -0.04400
P 	P 	0.81211 0.54609 0.74883 0.60800
H 	H 	0.73400 0.58000 0.66800 -0.05200
O 	O 	0.46310 0.40239 0.84086 -0.56800
O 	O 	0.50170 0.40525 0.64257 -0.59800
O 	O 	0.63630 0.26467 0.76471 -0.54800
O 	O 	0.73610 0.44551 0.77050 -0.54700
O 	O 	0.17110 0.40976 0.81845 -0.52500
O 	O 	0.22530 0.47346 0.63365 -0.55300
O 	O 	0.97570 0.53150 0.71888 -0.53900
O 	O 	0.80150 0.62143 0.83271 -0.55000
O 	O 	0.29740 0.38070 0.98664 -0.51100
O 	O 	0.27490 0.29287 0.58997 -0.56600
O 	O 	0.75700 0.10485 0.71216 -0.51300
O 	O 	0.50280 0.15659 0.63332 -0.56100
