data_crystal

_cell_length_a 8.60320
_cell_length_b 13.22300
_cell_length_c 13.48100
_cell_angle_alpha 90.00000
_cell_angle_beta  92.38600
_cell_angle_gamma 90.00000

_symmetry_space_group_name_	'P 1'
_symmetry_space_group_name_H-M	'P 1'

loop_
_symmetry_equiv_pos_as_xyz
  x,y,z

loop_
_atom_site_label
_atom_site_type_symbol
_atom_site_fract_x
_atom_site_fract_y
_atom_site_fract_z
_atom_site_charge
Be	Be	0.42030 0.11960 0.75010 1.48000
Be	Be	0.67680 0.32630 0.90410 1.47900
Be	Be	0.84180 0.50390 0.25840 1.48100
P 	P 	0.65881 0.10076 0.90597 0.57000
H 	H 	0.64270 0.07500 0.00090 -0.01800
P 	P 	0.39464 0.34009 0.77125 0.57900
H 	H 	0.46600 0.38460 0.69850 -0.07000
P 	P 	0.81356 0.45396 0.75046 0.62100
H 	H 	0.73770 0.41520 0.67340 -0.05400
P 	P 	0.69030 0.36229 0.12333 0.57000
H 	H 	0.69840 0.26450 0.13860 -0.05700
O 	O 	0.77580 0.02800 0.86510 -0.54300
O 	O 	0.49810 0.09370 0.85650 -0.59700
O 	O 	0.72350 0.20760 0.90850 -0.56400
O 	O 	0.35770 0.23370 0.74020 -0.55000
O 	O 	0.49800 0.34460 0.86460 -0.56300
O 	O 	0.24380 0.39590 0.78740 -0.51800
O 	O 	0.73490 0.55280 0.77130 -0.54700
O 	O 	0.97690 0.47000 0.72090 -0.53500
O 	O 	0.80340 0.37880 0.83310 -0.54800
O 	O 	0.69990 0.37940 0.01230 -0.51700
O 	O 	0.82680 0.41040 0.17980 -0.53100
O 	O 	0.53460 0.39860 0.15900 -0.56800
Be	Be	0.57970 0.61960 0.74990 1.48100
Be	Be	0.32320 0.82630 0.59590 1.48000
Be	Be	0.15820 0.00390 0.24160 1.48000
P 	P 	0.34119 0.60076 0.59403 0.56700
H 	H 	0.35730 0.57500 0.49910 -0.01500
P 	P 	0.60536 0.84009 0.72875 0.57900
H 	H 	0.53400 0.88460 0.80150 -0.07100
P 	P 	0.18644 0.95396 0.74954 0.62200
H 	H 	0.26230 0.91520 0.82660 -0.05400
P 	P 	0.30970 0.86229 0.37667 0.57000
H 	H 	0.30160 0.76450 0.36140 -0.05700
O 	O 	0.22420 0.52800 0.63490 -0.54700
O 	O 	0.50190 0.59370 0.64350 -0.59800
O 	O 	0.27650 0.70760 0.59150 -0.56500
O 	O 	0.64230 0.73370 0.75980 -0.55100
O 	O 	0.50200 0.84460 0.63540 -0.56300
O 	O 	0.75620 0.89590 0.71260 -0.52200
O 	O 	0.26510 0.05280 0.72870 -0.54800
O 	O 	0.02310 0.97000 0.77910 -0.53200
O 	O 	0.19660 0.87880 0.66690 -0.54700
O 	O 	0.30010 0.87940 0.48770 -0.51500
O 	O 	0.17320 0.91040 0.32020 -0.52800
O 	O 	0.46540 0.89860 0.34100 -0.56700
Be	Be	0.57970 0.88040 0.24990 1.48100
Be	Be	0.32320 0.67370 0.09590 1.48000
Be	Be	0.15820 0.49610 0.74160 1.48100
P 	P 	0.34119 0.89924 0.09403 0.57000
H 	H 	0.35730 0.92500 0.99910 -0.01800
P 	P 	0.60536 0.65991 0.22875 0.57900
H 	H 	0.53400 0.61540 0.30150 -0.07000
P 	P 	0.18644 0.54604 0.24954 0.62100
H 	H 	0.26230 0.58480 0.32660 -0.05400
P 	P 	0.30970 0.63771 0.87667 0.57000
H 	H 	0.30160 0.73550 0.86140 -0.05700
O 	O 	0.22420 0.97200 0.13490 -0.54300
O 	O 	0.50190 0.90630 0.14350 -0.59700
O 	O 	0.27650 0.79240 0.09150 -0.56400
O 	O 	0.64230 0.76630 0.25980 -0.55000
O 	O 	0.50200 0.65540 0.13540 -0.56300
O 	O 	0.75620 0.60410 0.21260 -0.51800
O 	O 	0.26510 0.44720 0.22870 -0.54700
O 	O 	0.02310 0.53000 0.27910 -0.53500
O 	O 	0.19660 0.62120 0.16690 -0.54800
O 	O 	0.30010 0.62060 0.98770 -0.51700
O 	O 	0.17320 0.58960 0.82020 -0.53100
O 	O 	0.46540 0.60140 0.84100 -0.56800
Be	Be	0.42030 0.38040 0.25010 1.48100
Be	Be	0.67680 0.17370 0.40410 1.48000
Be	Be	0.84180 0.99610 0.75840 1.48000
P 	P 	0.65881 0.39924 0.40597 0.56700
H 	H 	0.64270 0.42500 0.50090 -0.01500
P 	P 	0.39464 0.15991 0.27125 0.57900
H 	H 	0.46600 0.11540 0.19850 -0.07100
P 	P 	0.81356 0.04604 0.25046 0.62200
H 	H 	0.73770 0.08480 0.17340 -0.05400
P 	P 	0.69030 0.13771 0.62333 0.57000
H 	H 	0.69840 0.23550 0.63860 -0.05700
O 	O 	0.77580 0.47200 0.36510 -0.54700
O 	O 	0.49810 0.40630 0.35650 -0.59800
O 	O 	0.72350 0.29240 0.40850 -0.56500
O 	O 	0.35770 0.26630 0.24020 -0.55100
O 	O 	0.49800 0.15540 0.36460 -0.56300
O 	O 	0.24380 0.10410 0.28740 -0.52200
O 	O 	0.73490 0.94720 0.27130 -0.54800
O 	O 	0.97690 0.03000 0.22090 -0.53200
O 	O 	0.80340 0.12120 0.33310 -0.54700
O 	O 	0.69990 0.12060 0.51230 -0.51500
O 	O 	0.82680 0.08960 0.67980 -0.52800
O 	O 	0.53460 0.10140 0.65900 -0.56700
