data_crystal

_cell_length_a 23.35800
_cell_length_b 23.35800
_cell_length_c 19.30000
_cell_angle_alpha 90.00000
_cell_angle_beta  90.00000
_cell_angle_gamma 120.00000

_symmetry_space_group_name_	'P 1'
_symmetry_space_group_name_H-M	'P 1'

loop_
_symmetry_equiv_pos_as_xyz
  x,y,z

loop_
_atom_site_label
_atom_site_type_symbol
_atom_site_fract_x
_atom_site_fract_y
_atom_site_fract_z
_atom_site_charge
Cu	Cu	0.06499 0.53271 0.99994 0.85900
Cu	Cu	0.93494 0.46759 0.97320 0.85900
O 	O 	0.06630 0.59420 0.93160 -0.46000
O 	O 	0.96050 0.54230 0.90690 -0.45000
O 	O 	0.87240 0.62610 0.73390 -0.39900
O 	O 	0.92740 0.73480 0.70900 -0.42200
O 	O 	0.40550 0.93230 0.92860 -0.42400
O 	O 	0.46260 0.04120 0.90560 -0.43200
O 	O 	0.37360 0.12920 0.73330 -0.42100
O 	O 	0.26580 0.07190 0.71140 -0.43400
C 	C 	0.01680 0.58620 0.90100 0.40400
C 	C 	0.91780 0.68700 0.74300 0.34700
C 	C 	0.02420 0.64350 0.85650 -0.08000
C 	C 	0.96950 0.63740 0.82130 0.00800
H 	H 	0.92910 0.59660 0.82170 0.05000
C 	C 	0.97410 0.69120 0.78550 -0.05800
C 	C 	0.03330 0.75100 0.78480 -0.07900
H 	H 	0.03630 0.78770 0.76040 0.07200
C 	C 	0.08800 0.75700 0.82000 0.08900
C 	C 	0.08340 0.70330 0.85580 -0.07000
H 	H 	0.12080 0.70740 0.87990 0.05900
C 	C 	0.19700 0.84300 0.79000 -0.05400
H 	H 	0.18950 0.84490 0.73970 0.05200
H 	H 	0.21470 0.81240 0.79690 0.04700
N 	N 	0.14000 0.82170 0.82600 -0.18500
H 	H 	0.13580 0.84930 0.85420 0.10100
C 	C 	0.24430 0.90890 0.81610 0.01400
C 	C 	0.29670 0.91520 0.85600 -0.03700
H 	H 	0.29250 0.87830 0.88110 0.04500
C 	C 	0.35530 0.97550 0.85910 -0.08400
C 	C 	0.36140 0.02950 0.82240 0.01900
H 	H 	0.40140 0.07070 0.82460 0.04400
C 	C 	0.30900 0.02320 0.78250 -0.08700
C 	C 	0.25040 0.96280 0.77940 -0.03600
H 	H 	0.21460 0.95850 0.75210 0.05400
C 	C 	0.41160 0.98570 0.90560 0.33700
C 	C 	0.31500 0.07860 0.73700 0.37800
Cu	Cu	0.73166 0.86604 0.33327 0.90700
Cu	Cu	0.60161 0.80092 0.30653 0.90700
O 	O 	0.73297 0.92753 0.26493 -0.42600
O 	O 	0.62717 0.87563 0.24023 -0.41600
O 	O 	0.53907 0.95943 0.06723 -0.34100
O 	O 	0.59407 0.06813 0.04233 -0.36300
O 	O 	0.07217 0.26563 0.26193 -0.39400
O 	O 	0.12927 0.37453 0.23893 -0.40200
O 	O 	0.04027 0.46253 0.06663 -0.36300
O 	O 	0.93247 0.40523 0.04473 -0.37800
C 	C 	0.68347 0.91953 0.23433 0.40100
C 	C 	0.58447 0.02033 0.07633 0.33400
C 	C 	0.69087 0.97683 0.18983 -0.04600
C 	C 	0.63617 0.97073 0.15463 -0.00500
H 	H 	0.59577 0.92993 0.15503 0.07300
C 	C 	0.64077 0.02453 0.11883 -0.02300
C 	C 	0.69997 0.08433 0.11813 -0.08700
H 	H 	0.70297 0.12103 0.09373 0.09400
C 	C 	0.75467 0.09033 0.15333 0.11600
C 	C 	0.75007 0.03663 0.18913 -0.07900
H 	H 	0.78747 0.04073 0.21323 0.08000
C 	C 	0.86367 0.17633 0.12333 -0.07500
H 	H 	0.85617 0.17823 0.07303 0.07900
H 	H 	0.88137 0.14573 0.13023 0.06800
N 	N 	0.80667 0.15503 0.15933 -0.18200
H 	H 	0.80247 0.18263 0.18753 0.11900
C 	C 	0.91097 0.24223 0.14943 0.04800
C 	C 	0.96337 0.24853 0.18933 -0.04900
H 	H 	0.95917 0.21163 0.21443 0.06700
C 	C 	0.02197 0.30883 0.19243 -0.05000
C 	C 	0.02807 0.36283 0.15573 0.00600
H 	H 	0.06807 0.40403 0.15793 0.06700
C 	C 	0.97567 0.35653 0.11583 -0.05200
C 	C 	0.91707 0.29613 0.11273 -0.04900
H 	H 	0.88127 0.29183 0.08543 0.07800
C 	C 	0.07827 0.31903 0.23893 0.34200
C 	C 	0.98167 0.41193 0.07033 0.36700
Cu	Cu	0.39832 0.19938 0.66661 0.90500
Cu	Cu	0.26827 0.13426 0.63987 0.90500
O 	O 	0.39963 0.26087 0.59827 -0.43200
O 	O 	0.29383 0.20897 0.57357 -0.42400
O 	O 	0.20573 0.29277 0.40057 -0.39300
O 	O 	0.26073 0.40147 0.37567 -0.41600
O 	O 	0.73883 0.59897 0.59527 -0.40100
O 	O 	0.79593 0.70787 0.57227 -0.41100
O 	O 	0.70693 0.79587 0.39997 -0.41400
O 	O 	0.59913 0.73857 0.37807 -0.42700
C 	C 	0.35013 0.25287 0.56767 0.40300
C 	C 	0.25113 0.35367 0.40967 0.34800
C 	C 	0.35753 0.31017 0.52317 -0.06000
C 	C 	0.30283 0.30407 0.48797 0.00200
H 	H 	0.26243 0.26327 0.48837 0.06100
C 	C 	0.30743 0.35787 0.45217 -0.04600
C 	C 	0.36663 0.41767 0.45147 -0.08100
H 	H 	0.36963 0.45437 0.42707 0.07900
C 	C 	0.42133 0.42367 0.48667 0.10300
C 	C 	0.41673 0.36997 0.52247 -0.07400
H 	H 	0.45413 0.37407 0.54657 0.07300
C 	C 	0.53033 0.50967 0.45667 -0.05600
H 	H 	0.52283 0.51157 0.40637 0.05400
H 	H 	0.54803 0.47907 0.46357 0.05200
N 	N 	0.47333 0.48837 0.49267 -0.18600
H 	H 	0.46913 0.51597 0.52087 0.11700
C 	C 	0.57763 0.57557 0.48277 0.02800
C 	C 	0.63003 0.58187 0.52267 -0.03900
H 	H 	0.62583 0.54497 0.54777 0.05900
C 	C 	0.68863 0.64217 0.52577 -0.06700
C 	C 	0.69473 0.69617 0.48907 0.01400
H 	H 	0.73473 0.73737 0.49127 0.05500
C 	C 	0.64233 0.68987 0.44917 -0.07600
C 	C 	0.58373 0.62947 0.44607 -0.03800
H 	H 	0.54793 0.62517 0.41877 0.06000
C 	C 	0.74493 0.65237 0.57227 0.34600
C 	C 	0.64833 0.74527 0.40367 0.37600
Cu	Cu	0.46729 0.53228 0.99994 0.85800
Cu	Cu	0.53241 0.46735 0.97320 0.85800
O 	O 	0.40580 0.47210 0.93160 -0.46000
O 	O 	0.45770 0.41820 0.90690 -0.45200
O 	O 	0.37390 0.24630 0.73390 -0.40000
O 	O 	0.26520 0.19260 0.70900 -0.42200
O 	O 	0.06770 0.47320 0.92860 -0.42400
O 	O 	0.95880 0.42140 0.90560 -0.43200
O 	O 	0.87080 0.24440 0.73330 -0.42100
O 	O 	0.92810 0.19390 0.71140 -0.43300
C 	C 	0.41380 0.43060 0.90100 0.40700
C 	C 	0.31300 0.23080 0.74300 0.34700
C 	C 	0.35650 0.38070 0.85650 -0.07900
C 	C 	0.36260 0.33210 0.82130 0.00600
H 	H 	0.40340 0.33250 0.82170 0.05100
C 	C 	0.30880 0.28290 0.78550 -0.05900
C 	C 	0.24900 0.28230 0.78480 -0.07700
H 	H 	0.21230 0.24860 0.76040 0.07200
C 	C 	0.24300 0.33100 0.82000 0.08800
C 	C 	0.29670 0.38010 0.85580 -0.07000
H 	H 	0.29260 0.41340 0.87990 0.05900
C 	C 	0.15700 0.35400 0.79000 -0.05400
H 	H 	0.15510 0.34460 0.73970 0.05200
H 	H 	0.18760 0.40230 0.79690 0.04800
N 	N 	0.17830 0.31830 0.82600 -0.18400
H 	H 	0.15070 0.28650 0.85420 0.10200
C 	C 	0.09110 0.33540 0.81610 0.01400
C 	C 	0.08480 0.38150 0.85600 -0.03700
H 	H 	0.12170 0.41420 0.88110 0.04500
C 	C 	0.02450 0.37980 0.85910 -0.08400
C 	C 	0.97050 0.33190 0.82240 0.01900
H 	H 	0.92930 0.33070 0.82460 0.04400
C 	C 	0.97680 0.28580 0.78250 -0.08700
C 	C 	0.03720 0.28760 0.77940 -0.03700
H 	H 	0.04150 0.25610 0.75210 0.05400
C 	C 	0.01430 0.42590 0.90560 0.33700
C 	C 	0.92140 0.23640 0.73700 0.37800
Cu	Cu	0.13396 0.86561 0.33327 0.90700
Cu	Cu	0.19908 0.80068 0.30653 0.90700
O 	O 	0.07247 0.80543 0.26493 -0.42600
O 	O 	0.12437 0.75153 0.24023 -0.41600
O 	O 	0.04057 0.57963 0.06723 -0.34100
O 	O 	0.93187 0.52593 0.04233 -0.36300
O 	O 	0.73437 0.80653 0.26193 -0.39300
O 	O 	0.62547 0.75473 0.23893 -0.40200
O 	O 	0.53747 0.57773 0.06663 -0.36300
O 	O 	0.59477 0.52723 0.04473 -0.37700
C 	C 	0.08047 0.76393 0.23433 0.40100
C 	C 	0.97967 0.56413 0.07633 0.33400
C 	C 	0.02317 0.71403 0.18983 -0.04600
C 	C 	0.02927 0.66543 0.15463 -0.00500
H 	H 	0.07007 0.66583 0.15503 0.07300
C 	C 	0.97547 0.61623 0.11883 -0.02300
C 	C 	0.91567 0.61563 0.11813 -0.08700
H 	H 	0.87897 0.58193 0.09373 0.09400
C 	C 	0.90967 0.66433 0.15333 0.11600
C 	C 	0.96337 0.71343 0.18913 -0.07800
H 	H 	0.95927 0.74673 0.21323 0.08000
C 	C 	0.82367 0.68733 0.12333 -0.07500
H 	H 	0.82177 0.67793 0.07303 0.08000
H 	H 	0.85427 0.73563 0.13023 0.06900
N 	N 	0.84497 0.65163 0.15933 -0.18200
H 	H 	0.81737 0.61983 0.18753 0.11900
C 	C 	0.75777 0.66873 0.14943 0.04800
C 	C 	0.75147 0.71483 0.18933 -0.04900
H 	H 	0.78837 0.74753 0.21443 0.06700
C 	C 	0.69117 0.71313 0.19243 -0.05000
C 	C 	0.63717 0.66523 0.15573 0.00600
H 	H 	0.59597 0.66403 0.15793 0.06700
C 	C 	0.64347 0.61913 0.11583 -0.05200
C 	C 	0.70387 0.62093 0.11273 -0.04900
H 	H 	0.70817 0.58943 0.08543 0.07800
C 	C 	0.68097 0.75923 0.23893 0.34200
C 	C 	0.58807 0.56973 0.07033 0.36800
Cu	Cu	0.80062 0.19895 0.66661 0.90500
Cu	Cu	0.86574 0.13402 0.63987 0.90500
O 	O 	0.73913 0.13877 0.59827 -0.43200
O 	O 	0.79103 0.08487 0.57357 -0.42400
O 	O 	0.70723 0.91297 0.40057 -0.39300
O 	O 	0.59853 0.85927 0.37567 -0.41600
O 	O 	0.40103 0.13987 0.59527 -0.40000
O 	O 	0.29213 0.08807 0.57227 -0.41100
O 	O 	0.20413 0.91107 0.39997 -0.41400
O 	O 	0.26143 0.86057 0.37807 -0.42700
C 	C 	0.74713 0.09727 0.56767 0.40200
C 	C 	0.64633 0.89747 0.40967 0.34800
C 	C 	0.68983 0.04737 0.52317 -0.05900
C 	C 	0.69593 0.99877 0.48797 0.00000
H 	H 	0.73673 0.99917 0.48837 0.06100
C 	C 	0.64213 0.94957 0.45217 -0.04600
C 	C 	0.58233 0.94897 0.45147 -0.08100
H 	H 	0.54563 0.91527 0.42707 0.07900
C 	C 	0.57633 0.99767 0.48667 0.10100
C 	C 	0.63003 0.04677 0.52247 -0.07300
H 	H 	0.62593 0.08007 0.54657 0.07300
C 	C 	0.49033 0.02067 0.45667 -0.05700
H 	H 	0.48843 0.01127 0.40637 0.05500
H 	H 	0.52093 0.06897 0.46357 0.05200
N 	N 	0.51163 0.98497 0.49267 -0.18600
H 	H 	0.48403 0.95317 0.52087 0.11700
C 	C 	0.42443 0.00207 0.48277 0.03000
C 	C 	0.41813 0.04817 0.52267 -0.04100
H 	H 	0.45503 0.08087 0.54777 0.06000
C 	C 	0.35783 0.04647 0.52577 -0.06400
C 	C 	0.30383 0.99857 0.48907 0.01100
H 	H 	0.26263 0.99737 0.49127 0.05500
C 	C 	0.31013 0.95247 0.44917 -0.07400
C 	C 	0.37053 0.95427 0.44607 -0.04100
H 	H 	0.37483 0.92277 0.41877 0.06100
C 	C 	0.34763 0.09257 0.57227 0.34500
C 	C 	0.25473 0.90307 0.40367 0.37600
Cu	Cu	0.46772 0.93501 0.99994 0.85800
Cu	Cu	0.53265 0.06506 0.97320 0.85900
O 	O 	0.52790 0.93370 0.93160 -0.46000
O 	O 	0.58180 0.03950 0.90690 -0.44900
O 	O 	0.75370 0.12760 0.73390 -0.39900
O 	O 	0.80740 0.07260 0.70900 -0.42100
O 	O 	0.52680 0.59450 0.92860 -0.42400
O 	O 	0.57860 0.53740 0.90560 -0.43400
O 	O 	0.75560 0.62640 0.73330 -0.42200
O 	O 	0.80610 0.73420 0.71140 -0.43400
C 	C 	0.56940 0.98320 0.90100 0.40400
C 	C 	0.76920 0.08220 0.74300 0.34700
C 	C 	0.61930 0.97580 0.85650 -0.08000
C 	C 	0.66790 0.03050 0.82130 0.00800
H 	H 	0.66750 0.07090 0.82170 0.05100
C 	C 	0.71710 0.02590 0.78550 -0.05700
C 	C 	0.71770 0.96670 0.78480 -0.08000
H 	H 	0.75140 0.96370 0.76040 0.07200
C 	C 	0.66900 0.91200 0.82000 0.08900
C 	C 	0.61990 0.91660 0.85580 -0.07000
H 	H 	0.58660 0.87920 0.87990 0.05900
C 	C 	0.64600 0.80300 0.79000 -0.05300
H 	H 	0.65540 0.81050 0.73970 0.05200
H 	H 	0.59770 0.78530 0.79690 0.04700
N 	N 	0.68170 0.86000 0.82600 -0.18500
H 	H 	0.71350 0.86420 0.85420 0.10200
C 	C 	0.66460 0.75570 0.81610 0.01300
C 	C 	0.61850 0.70330 0.85600 -0.03700
H 	H 	0.58580 0.70750 0.88110 0.04500
C 	C 	0.62020 0.64470 0.85910 -0.08300
C 	C 	0.66810 0.63860 0.82240 0.01700
H 	H 	0.66930 0.59860 0.82460 0.04400
C 	C 	0.71420 0.69100 0.78250 -0.08900
C 	C 	0.71240 0.74960 0.77940 -0.03400
H 	H 	0.74390 0.78540 0.75210 0.05400
C 	C 	0.57410 0.58840 0.90560 0.33900
C 	C 	0.76360 0.68500 0.73700 0.37800
Cu	Cu	0.13439 0.26834 0.33327 0.90700
Cu	Cu	0.19932 0.39839 0.30653 0.90700
O 	O 	0.19457 0.26703 0.26493 -0.42600
O 	O 	0.24847 0.37283 0.24023 -0.41600
O 	O 	0.42037 0.46093 0.06723 -0.34100
O 	O 	0.47407 0.40593 0.04233 -0.36200
O 	O 	0.19347 0.92783 0.26193 -0.39400
O 	O 	0.24527 0.87073 0.23893 -0.40200
O 	O 	0.42227 0.95973 0.06663 -0.36400
O 	O 	0.47277 0.06753 0.04473 -0.37800
C 	C 	0.23607 0.31653 0.23433 0.40100
C 	C 	0.43587 0.41553 0.07633 0.33400
C 	C 	0.28597 0.30913 0.18983 -0.04500
C 	C 	0.33457 0.36383 0.15463 -0.00500
H 	H 	0.33417 0.40423 0.15503 0.07300
C 	C 	0.38377 0.35923 0.11883 -0.02300
C 	C 	0.38437 0.30003 0.11813 -0.08700
H 	H 	0.41807 0.29703 0.09373 0.09400
C 	C 	0.33567 0.24533 0.15333 0.11600
C 	C 	0.28657 0.24993 0.18913 -0.07900
H 	H 	0.25327 0.21253 0.21323 0.08000
C 	C 	0.31267 0.13633 0.12333 -0.07500
H 	H 	0.32207 0.14383 0.07303 0.07900
H 	H 	0.26437 0.11863 0.13023 0.06900
N 	N 	0.34837 0.19333 0.15933 -0.18200
H 	H 	0.38017 0.19753 0.18753 0.11900
C 	C 	0.33127 0.08903 0.14943 0.04800
C 	C 	0.28517 0.03663 0.18933 -0.04900
H 	H 	0.25247 0.04083 0.21443 0.06700
C 	C 	0.28687 0.97803 0.19243 -0.05100
C 	C 	0.33477 0.97193 0.15573 0.00600
H 	H 	0.33597 0.93193 0.15793 0.06700
C 	C 	0.38087 0.02433 0.11583 -0.05200
C 	C 	0.37907 0.08293 0.11273 -0.04900
H 	H 	0.41057 0.11873 0.08543 0.07800
C 	C 	0.24077 0.92173 0.23893 0.34200
C 	C 	0.43027 0.01833 0.07033 0.36800
Cu	Cu	0.80105 0.60168 0.66661 0.90500
Cu	Cu	0.86598 0.73173 0.63987 0.90500
O 	O 	0.86123 0.60037 0.59827 -0.43200
O 	O 	0.91513 0.70617 0.57357 -0.42400
O 	O 	0.08703 0.79427 0.40057 -0.39300
O 	O 	0.14073 0.73927 0.37567 -0.41600
O 	O 	0.86013 0.26117 0.59527 -0.40000
O 	O 	0.91193 0.20407 0.57227 -0.41100
O 	O 	0.08893 0.29307 0.39997 -0.41400
O 	O 	0.13943 0.40087 0.37807 -0.42700
C 	C 	0.90273 0.64987 0.56767 0.40200
C 	C 	0.10253 0.74887 0.40967 0.34800
C 	C 	0.95263 0.64247 0.52317 -0.05900
C 	C 	0.00123 0.69717 0.48797 0.00000
H 	H 	0.00083 0.73757 0.48837 0.06100
C 	C 	0.05043 0.69257 0.45217 -0.04600
C 	C 	0.05103 0.63337 0.45147 -0.08100
H 	H 	0.08473 0.63037 0.42707 0.07900
C 	C 	0.00233 0.57867 0.48667 0.10100
C 	C 	0.95323 0.58327 0.52247 -0.07300
H 	H 	0.91993 0.54587 0.54657 0.07300
C 	C 	0.97933 0.46967 0.45667 -0.05700
H 	H 	0.98873 0.47717 0.40637 0.05500
H 	H 	0.93103 0.45197 0.46357 0.05200
N 	N 	0.01503 0.52667 0.49267 -0.18600
H 	H 	0.04683 0.53087 0.52087 0.11700
C 	C 	0.99793 0.42237 0.48277 0.03000
C 	C 	0.95183 0.36997 0.52267 -0.04100
H 	H 	0.91913 0.37417 0.54777 0.06000
C 	C 	0.95353 0.31137 0.52577 -0.06400
C 	C 	0.00143 0.30527 0.48907 0.01100
H 	H 	0.00263 0.26527 0.49127 0.05500
C 	C 	0.04753 0.35767 0.44917 -0.07400
C 	C 	0.04573 0.41627 0.44607 -0.04100
H 	H 	0.07723 0.45207 0.41877 0.06100
C 	C 	0.90743 0.25507 0.57227 0.34500
C 	C 	0.09693 0.35167 0.40367 0.37600
