data_crystal

_cell_length_a 8.89790
_cell_length_b 21.45870
_cell_length_c 13.48510
_cell_angle_alpha 90.00000
_cell_angle_beta  96.78040
_cell_angle_gamma 90.00000

_symmetry_space_group_name_	'P 1'
_symmetry_space_group_name_H-M	'P 1'

loop_
_symmetry_equiv_pos_as_xyz
  x,y,z

loop_
_atom_site_label
_atom_site_type_symbol
_atom_site_fract_x
_atom_site_fract_y
_atom_site_fract_z
_atom_site_charge
O 	O 	0.60280 0.70593 0.84632 -0.44700
O 	O 	0.70710 0.62298 0.92190 -0.32300
N 	N 	0.35330 0.59490 0.81818 -0.29500
C 	C 	0.68710 0.67905 0.91680 0.34400
C 	C 	0.76100 0.72009 0.99670 -0.09300
H 	H 	0.82840 0.70160 0.04600 0.10000
C 	C 	0.39770 0.54151 0.86520 0.13900
H 	H 	0.49520 0.52700 0.86100 -0.03000
C 	C 	0.30410 0.50750 0.91930 -0.25500
H 	H 	0.33830 0.47060 0.95030 0.13400
C 	C 	0.15980 0.52854 0.92740 0.22500
C 	C 	0.11430 0.58322 0.87810 -0.26100
H 	H 	0.01780 0.59900 0.88190 0.10100
C 	C 	0.21280 0.61410 0.82330 0.14200
H 	H 	0.17920 0.64990 0.78860 -0.05100
C 	C 	0.06720 0.49230 0.99080 -0.29400
H 	H 	0.10840 0.45580 0.01940 0.12500
O 	O 	0.10280 0.20593 0.84632 -0.47600
O 	O 	0.20710 0.12298 0.92190 -0.35200
N 	N 	0.85330 0.09490 0.81818 -0.26100
C 	C 	0.18710 0.17905 0.91680 0.34100
C 	C 	0.26100 0.22009 0.99670 -0.10000
H 	H 	0.32840 0.20160 0.04600 0.08600
C 	C 	0.89770 0.04151 0.86520 0.11700
H 	H 	0.99520 0.02700 0.86100 0.01100
C 	C 	0.80410 0.00750 0.91930 -0.17700
H 	H 	0.83830 0.97060 0.95030 0.12300
C 	C 	0.65980 0.02854 0.92740 0.13500
C 	C 	0.61430 0.08322 0.87810 -0.18400
H 	H 	0.51780 0.09900 0.88190 0.10500
C 	C 	0.71280 0.11410 0.82330 0.12000
H 	H 	0.67920 0.14990 0.78860 -0.02100
C 	C 	0.56720 0.99230 0.99080 -0.05000
H 	H 	0.60840 0.95580 0.01940 0.06500
O 	O 	0.39720 0.70593 0.65368 -0.45300
O 	O 	0.29290 0.62298 0.57810 -0.35200
N 	N 	0.64670 0.59490 0.68182 -0.27000
C 	C 	0.31290 0.67905 0.58320 0.34500
C 	C 	0.23900 0.72009 0.50330 -0.12300
H 	H 	0.17160 0.70160 0.45400 0.08600
C 	C 	0.60230 0.54151 0.63480 0.08600
H 	H 	0.50480 0.52700 0.63900 -0.01500
C 	C 	0.69590 0.50750 0.58070 -0.13200
H 	H 	0.66170 0.47060 0.54970 0.09200
C 	C 	0.84020 0.52854 0.57260 0.05400
C 	C 	0.88570 0.58322 0.62190 -0.12500
H 	H 	0.98220 0.59900 0.61810 0.11300
C 	C 	0.78720 0.61410 0.67670 0.09500
H 	H 	0.82080 0.64990 0.71140 -0.00200
C 	C 	0.93280 0.49230 0.50920 0.15800
H 	H 	0.89160 0.45580 0.48060 0.01700
O 	O 	0.89720 0.20593 0.65368 -0.41300
O 	O 	0.79290 0.12298 0.57810 -0.31800
N 	N 	0.14670 0.09490 0.68182 -0.29700
C 	C 	0.81290 0.17905 0.58320 0.34300
C 	C 	0.73900 0.22009 0.50330 -0.10900
H 	H 	0.67160 0.20160 0.45400 0.09700
C 	C 	0.10230 0.04151 0.63480 0.10700
H 	H 	0.00480 0.02700 0.63900 -0.05400
C 	C 	0.19590 0.00750 0.58070 -0.21000
H 	H 	0.16170 0.97060 0.54970 0.10100
C 	C 	0.34020 0.02854 0.57260 0.15300
C 	C 	0.38570 0.08322 0.62190 -0.20700
H 	H 	0.48220 0.09900 0.61810 0.11100
C 	C 	0.28720 0.11410 0.67670 0.11800
H 	H 	0.32080 0.14990 0.71140 -0.03100
C 	C 	0.43280 0.99230 0.50920 -0.10600
H 	H 	0.39160 0.95580 0.48060 0.08300
O 	O 	0.39720 0.29407 0.15368 -0.45700
O 	O 	0.29290 0.37702 0.07810 -0.35700
N 	N 	0.64670 0.40510 0.18182 -0.27300
C 	C 	0.31290 0.32095 0.08320 0.35900
C 	C 	0.23900 0.27991 0.00330 -0.16500
H 	H 	0.17160 0.29840 0.95400 0.10400
C 	C 	0.60230 0.45849 0.13480 0.09400
H 	H 	0.50480 0.47300 0.13900 -0.01800
C 	C 	0.69590 0.49250 0.08070 -0.15000
H 	H 	0.66170 0.52940 0.04970 0.09600
C 	C 	0.84020 0.47146 0.07260 0.08000
C 	C 	0.88570 0.41678 0.12190 -0.14300
H 	H 	0.98220 0.40100 0.11810 0.11900
C 	C 	0.78720 0.38590 0.17670 0.10400
H 	H 	0.82080 0.35010 0.21140 -0.00500
C 	C 	0.93280 0.50770 0.00920 0.10300
H 	H 	0.89160 0.54420 0.98060 0.03900
O 	O 	0.89720 0.79407 0.15368 -0.41600
O 	O 	0.79290 0.87702 0.07810 -0.32300
N 	N 	0.14670 0.90510 0.18182 -0.30000
C 	C 	0.81290 0.82095 0.08320 0.35700
C 	C 	0.73900 0.77991 0.00330 -0.14800
H 	H 	0.67160 0.79840 0.95400 0.11300
C 	C 	0.10230 0.95849 0.13480 0.11500
H 	H 	0.00480 0.97300 0.13900 -0.05700
C 	C 	0.19590 0.99250 0.08070 -0.22700
H 	H 	0.16170 0.02940 0.04970 0.10600
C 	C 	0.34020 0.97146 0.07260 0.17000
C 	C 	0.38570 0.91678 0.12190 -0.21900
H 	H 	0.48220 0.90100 0.11810 0.11500
C 	C 	0.28720 0.88590 0.17670 0.12400
H 	H 	0.32080 0.85010 0.21140 -0.03400
C 	C 	0.43280 0.00770 0.00920 -0.14300
H 	H 	0.39160 0.04420 0.98060 0.10000
O 	O 	0.60280 0.29407 0.34632 -0.45100
O 	O 	0.70710 0.37702 0.42190 -0.32800
N 	N 	0.35330 0.40510 0.31818 -0.29900
C 	C 	0.68710 0.32095 0.41680 0.35700
C 	C 	0.76100 0.27991 0.49670 -0.13100
H 	H 	0.82840 0.29840 0.54600 0.11600
C 	C 	0.39770 0.45849 0.36520 0.14700
H 	H 	0.49520 0.47300 0.36100 -0.03400
C 	C 	0.30410 0.49250 0.41930 -0.27300
H 	H 	0.33830 0.52940 0.45030 0.13800
C 	C 	0.15980 0.47146 0.42740 0.25100
C 	C 	0.11430 0.41678 0.37810 -0.27900
H 	H 	0.01780 0.40100 0.38190 0.10700
C 	C 	0.21280 0.38590 0.32330 0.15000
H 	H 	0.17920 0.35010 0.28860 -0.05400
C 	C 	0.06720 0.50770 0.49080 -0.35000
H 	H 	0.10840 0.54420 0.51940 0.14700
O 	O 	0.10280 0.79407 0.34632 -0.48100
O 	O 	0.20710 0.87702 0.42190 -0.35800
N 	N 	0.85330 0.90510 0.31818 -0.26400
C 	C 	0.18710 0.82095 0.41680 0.35600
C 	C 	0.26100 0.77991 0.49670 -0.14200
H 	H 	0.32840 0.79840 0.54600 0.10400
C 	C 	0.89770 0.95849 0.36520 0.12500
H 	H 	0.99520 0.97300 0.36100 0.00800
C 	C 	0.80410 0.99250 0.41930 -0.19500
H 	H 	0.83830 0.02940 0.45030 0.12900
C 	C 	0.65980 0.97146 0.42740 0.15100
C 	C 	0.61430 0.91678 0.37810 -0.19600
H 	H 	0.51780 0.90100 0.38190 0.10900
C 	C 	0.71280 0.88590 0.32330 0.12600
H 	H 	0.67920 0.85010 0.28860 -0.02300
C 	C 	0.56720 0.00770 0.49080 -0.08600
H 	H 	0.60840 0.04420 0.51940 0.08100
Zn	Zn	0.50000 0.64732 0.75000 1.21100
Zn	Zn	0.00000 0.14732 0.75000 1.18600
Zn	Zn	0.50000 0.35268 0.25000 1.21100
Zn	Zn	-0.00000 0.85268 0.25000 1.18600
