data_crystal

_cell_length_a 25.95300
_cell_length_b 11.01500
_cell_length_c 13.24600
_cell_angle_alpha 90.00000
_cell_angle_beta  119.16000
_cell_angle_gamma 90.00000

_symmetry_space_group_name_	'P 1'
_symmetry_space_group_name_H-M	'P 1'

loop_
_symmetry_equiv_pos_as_xyz
  x,y,z

loop_
_atom_site_label
_atom_site_type_symbol
_atom_site_fract_x
_atom_site_fract_y
_atom_site_fract_z
_atom_site_charge
O 	O 	0.42600 0.13700 0.81800 -0.58400
O 	O 	0.43400 0.13900 0.07000 -0.53500
O 	O 	0.40700 0.36800 0.92400 -0.58100
O 	O 	0.51100 0.35100 0.17000 -0.54500
O 	O 	0.39900 0.37000 0.20300 -0.44200
O 	O 	0.43400 0.22600 0.32000 -0.27200
O 	O 	0.46700 0.18000 0.63900 -0.30300
O 	O 	0.40500 0.34000 0.63600 -0.40100
C 	C 	0.40600 0.31700 0.29500 0.40400
C 	C 	0.40100 0.37600 0.38500 -0.12700
C 	C 	0.44700 0.36600 0.50400 -0.02500
C 	C 	0.43600 0.28800 0.58900 0.25300
O 	O 	0.92600 0.63700 0.81800 -0.60700
O 	O 	0.93400 0.63900 0.07000 -0.55400
O 	O 	0.90700 0.86800 0.92400 -0.35600
O 	O 	0.01100 0.85100 0.17000 -0.40000
O 	O 	0.89900 0.87000 0.20300 -0.27500
O 	O 	0.93400 0.72600 0.32000 -0.23500
O 	O 	0.96700 0.68000 0.63900 -0.29400
O 	O 	0.90500 0.84000 0.63600 -0.27000
C 	C 	0.90600 0.81700 0.29500 0.36400
C 	C 	0.90100 0.87600 0.38500 -0.00500
C 	C 	0.94700 0.86600 0.50400 0.05900
C 	C 	0.93600 0.78800 0.58900 0.25400
O 	O 	0.57400 0.13700 0.18200 -0.58200
O 	O 	0.56600 0.13900 0.93000 -0.46700
O 	O 	0.59300 0.36800 0.07600 -0.65800
O 	O 	0.48900 0.35100 0.83000 -0.54000
O 	O 	0.60100 0.37000 0.79700 -0.44600
O 	O 	0.56600 0.22600 0.68000 -0.27300
O 	O 	0.53300 0.18000 0.36100 -0.30000
O 	O 	0.59500 0.34000 0.36400 -0.39700
C 	C 	0.59400 0.31700 0.70500 0.41400
C 	C 	0.59900 0.37600 0.61500 -0.12800
C 	C 	0.55300 0.36600 0.49600 -0.02300
C 	C 	0.56400 0.28800 0.41100 0.25400
O 	O 	0.07400 0.63700 0.18200 -0.60200
O 	O 	0.06600 0.63900 0.93000 -0.51500
O 	O 	0.09300 0.86800 0.07600 -0.43900
O 	O 	0.98900 0.85100 0.83000 -0.35700
O 	O 	0.10100 0.87000 0.79700 -0.27600
O 	O 	0.06600 0.72600 0.68000 -0.25700
O 	O 	0.03300 0.68000 0.36100 -0.30500
O 	O 	0.09500 0.84000 0.36400 -0.26700
C 	C 	0.09400 0.81700 0.70500 0.37000
C 	C 	0.09900 0.87600 0.61500 -0.00200
C 	C 	0.05300 0.86600 0.49600 0.03400
C 	C 	0.06400 0.78800 0.41100 0.25300
O 	O 	0.57400 0.86300 0.18200 -0.43200
O 	O 	0.56600 0.86100 0.93000 -0.31300
O 	O 	0.59300 0.63200 0.07600 -0.64800
O 	O 	0.48900 0.64900 0.83000 -0.54400
O 	O 	0.60100 0.63000 0.79700 -0.42200
O 	O 	0.56600 0.77400 0.68000 -0.18400
O 	O 	0.53300 0.82000 0.36100 -0.18900
O 	O 	0.59500 0.66000 0.36400 -0.37200
C 	C 	0.59400 0.68300 0.70500 0.40600
C 	C 	0.59900 0.62400 0.61500 -0.09400
C 	C 	0.55300 0.63400 0.49600 -0.01600
C 	C 	0.56400 0.71200 0.41100 0.26800
O 	O 	0.07400 0.36300 0.18200 -0.60800
O 	O 	0.06600 0.36100 0.93000 -0.52300
O 	O 	0.09300 0.13200 0.07600 -0.59700
O 	O 	0.98900 0.14900 0.83000 -0.47500
O 	O 	0.10100 0.13000 0.79700 -0.44800
O 	O 	0.06600 0.27400 0.68000 -0.27600
O 	O 	0.03300 0.32000 0.36100 -0.30900
O 	O 	0.09500 0.16000 0.36400 -0.39200
C 	C 	0.09400 0.18300 0.70500 0.40200
C 	C 	0.09900 0.12400 0.61500 -0.19200
C 	C 	0.05300 0.13400 0.49600 -0.08500
C 	C 	0.06400 0.21200 0.41100 0.25600
O 	O 	0.42600 0.86300 0.81800 -0.42800
O 	O 	0.43400 0.86100 0.07000 -0.38800
O 	O 	0.40700 0.63200 0.92400 -0.56700
O 	O 	0.51100 0.64900 0.17000 -0.54900
O 	O 	0.39900 0.63000 0.20300 -0.41900
O 	O 	0.43400 0.77400 0.32000 -0.18300
O 	O 	0.46700 0.82000 0.63900 -0.19000
O 	O 	0.40500 0.66000 0.63600 -0.37500
C 	C 	0.40600 0.68300 0.29500 0.39700
C 	C 	0.40100 0.62400 0.38500 -0.09400
C 	C 	0.44700 0.63400 0.50400 -0.01800
C 	C 	0.43600 0.71200 0.58900 0.26700
O 	O 	0.92600 0.36300 0.81800 -0.61400
O 	O 	0.93400 0.36100 0.07000 -0.56000
O 	O 	0.90700 0.13200 0.92400 -0.52200
O 	O 	0.01100 0.14900 0.17000 -0.51300
O 	O 	0.89900 0.13000 0.20300 -0.44200
O 	O 	0.93400 0.27400 0.32000 -0.25300
O 	O 	0.96700 0.32000 0.63900 -0.29900
O 	O 	0.90500 0.16000 0.63600 -0.39700
C 	C 	0.90600 0.18300 0.29500 0.39500
C 	C 	0.90100 0.12400 0.38500 -0.19300
C 	C 	0.94700 0.13400 0.50400 -0.06100
C 	C 	0.93600 0.21200 0.58900 0.25600
Eu	Eu	0.50000 0.24080 -0.00000 1.56900
Eu	Eu	-0.00000 0.74080 -0.00000 1.54200
Eu	Eu	0.50000 0.75920 -0.00000 1.68700
Eu	Eu	0.00000 0.25920 -0.00000 1.47500
Eu	Eu	0.49370 0.00000 0.79280 1.39700
Eu	Eu	0.38480 -0.00000 0.90220 1.15000
O 	O 	0.56700 0.00000 0.74300 -0.44100
O 	O 	0.36200 0.00000 0.07300 -0.41900
C 	C 	0.62200 0.00000 0.81600 0.32500
Eu	Eu	0.99370 0.50000 0.79280 1.88600
Eu	Eu	0.88480 0.50000 0.90220 1.56400
O 	O 	0.06700 0.50000 0.74300 -0.42900
O 	O 	0.86200 0.50000 0.07300 -0.39000
C 	C 	0.12200 0.50000 0.81600 0.36600
Eu	Eu	0.50630 -0.00000 0.20720 1.37900
Eu	Eu	0.61520 0.00000 0.09780 0.94100
O 	O 	0.43300 0.00000 0.25700 -0.44400
O 	O 	0.63800 0.00000 0.92700 -0.34200
C 	C 	0.37800 0.00000 0.18400 0.34400
Eu	Eu	0.00630 0.50000 0.20720 1.72800
Eu	Eu	0.11520 0.50000 0.09780 1.32800
O 	O 	0.93300 0.50000 0.25700 -0.39200
O 	O 	0.13800 0.50000 0.92700 -0.31000
C 	C 	0.87800 0.50000 0.18400 0.37400
Eu	Eu	0.42120 0.50000 0.08290 1.73700
Eu	Eu	0.40640 0.50000 0.77340 1.59400
O 	O 	0.31300 0.50000 0.98500 -0.40000
O 	O 	0.23500 0.50000 0.01300 -0.35000
C 	C 	0.25600 0.50000 0.94400 0.46100
C 	C 	0.22100 0.50000 0.82600 -0.15100
C 	C 	0.16300 0.50000 0.76900 -0.01200
Eu	Eu	0.92120 0.00000 0.08290 1.35700
Eu	Eu	0.90640 0.00000 0.77340 1.14500
O 	O 	0.81300 0.00000 0.98500 -0.44700
O 	O 	0.73500 0.00000 0.01300 -0.40000
C 	C 	0.75600 -0.00000 0.94400 0.43000
C 	C 	0.72100 0.00000 0.82600 -0.20700
C 	C 	0.66300 0.00000 0.76900 -0.07200
Eu	Eu	0.57880 0.50000 0.91710 1.99300
Eu	Eu	0.59360 0.50000 0.22660 1.57100
O 	O 	0.68700 0.50000 0.01500 -0.46000
O 	O 	0.76500 0.50000 0.98700 -0.19200
C 	C 	0.74400 0.50000 0.05600 0.29800
C 	C 	0.77900 0.50000 0.17400 -0.11300
C 	C 	0.83700 0.50000 0.23100 -0.04800
Eu	Eu	0.07880 0.00000 0.91710 1.51300
Eu	Eu	0.09360 0.00000 0.22660 1.12300
O 	O 	0.18700 0.00000 0.01500 -0.49200
O 	O 	0.26500 0.00000 0.98700 -0.25100
C 	C 	0.24400 0.00000 0.05600 0.27600
C 	C 	0.27900 -0.00000 0.17400 -0.16600
C 	C 	0.33700 0.00000 0.23100 -0.11000
O 	O 	0.50000 0.50000 -0.00000 -0.65900
O 	O 	-0.00000 0.00000 -0.00000 -0.69800
O 	O 	0.50000 0.00000 -0.00000 -0.82200
O 	O 	0.00000 0.50000 -0.00000 -0.81300
