data_crystal

_cell_length_a 13.74500
_cell_length_b 22.34600
_cell_length_c 22.59200
_cell_angle_alpha 90.00000
_cell_angle_beta  90.00000
_cell_angle_gamma 90.00000

_symmetry_space_group_name_	'P 1'
_symmetry_space_group_name_H-M	'P 1'

loop_
_symmetry_equiv_pos_as_xyz
  x,y,z

loop_
_atom_site_label
_atom_site_type_symbol
_atom_site_fract_x
_atom_site_fract_y
_atom_site_fract_z
_atom_site_charge
Mn	Mn	0.82973 0.99513 0.17733 1.28600
Mn	Mn	0.71820 0.12232 0.17888 1.31500
Mn	Mn	0.63109 0.00993 0.11174 1.25400
O 	O 	0.71040 0.03820 0.18810 -0.94000
O 	O 	0.95080 0.95660 0.16820 -0.58900
O 	O 	0.77280 0.96990 0.10650 -0.59800
O 	O 	0.72620 0.20640 0.17430 -0.57700
O 	O 	0.64690 0.10930 0.10960 -0.56900
O 	O 	0.54460 0.98800 0.18870 -0.59200
N 	N 	0.87650 0.09280 0.14870 -0.31900
N 	N 	0.92280 0.10880 0.10760 -0.04900
N 	N 	0.97160 0.12360 0.06750 -0.07900
N 	N 	0.55220 0.99070 0.03570 -0.23700
C 	C 	0.12270 0.16820 0.27150 -0.08700
C 	C 	0.98970 0.92930 0.11470 0.15300
C 	C 	0.92640 0.94270 0.06470 -0.09000
C 	C 	0.81340 0.93250 0.05990 0.14000
C 	C 	0.08210 0.94410 0.10320 -0.07600
C 	C 	0.77100 0.94140 0.00660 -0.08200
C 	C 	0.68820 0.24160 0.12410 0.20500
C 	C 	0.67440 0.20660 0.07750 -0.18400
C 	C 	0.62100 0.15850 0.07130 0.21500
C 	C 	0.71260 0.29850 0.13370 -0.10300
C 	C 	0.56750 0.14060 0.02450 -0.09700
C 	C 	0.45490 0.95280 0.19380 0.12100
C 	C 	0.39630 0.96390 0.14860 -0.06900
Mn	Mn	0.17027 0.00487 0.67733 1.28700
Mn	Mn	0.28180 0.87768 0.67888 1.31600
Mn	Mn	0.36891 0.99007 0.61174 1.25600
O 	O 	0.28960 0.96180 0.68810 -0.93900
O 	O 	0.04920 0.04340 0.66820 -0.58900
O 	O 	0.22720 0.03010 0.60650 -0.59800
O 	O 	0.27380 0.79360 0.67430 -0.57700
O 	O 	0.35310 0.89070 0.60960 -0.56900
O 	O 	0.45540 0.01200 0.68870 -0.59200
N 	N 	0.12350 0.90720 0.64870 -0.31800
N 	N 	0.07720 0.89120 0.60760 -0.04900
N 	N 	0.02840 0.87640 0.56750 -0.07800
N 	N 	0.44780 0.00930 0.53570 -0.23800
C 	C 	0.87730 0.83180 0.77150 -0.08800
C 	C 	0.01030 0.07070 0.61470 0.15300
C 	C 	0.07360 0.05730 0.56470 -0.09000
C 	C 	0.18660 0.06750 0.55990 0.14000
C 	C 	0.91790 0.05590 0.60320 -0.07600
C 	C 	0.22900 0.05860 0.50660 -0.08200
C 	C 	0.31180 0.75840 0.62410 0.20400
C 	C 	0.32560 0.79340 0.57750 -0.18300
C 	C 	0.37900 0.84150 0.57130 0.21500
C 	C 	0.28740 0.70150 0.63370 -0.10300
C 	C 	0.43250 0.85940 0.52450 -0.09500
C 	C 	0.54510 0.04720 0.69380 0.12100
C 	C 	0.60370 0.03610 0.64860 -0.06900
Mn	Mn	0.17027 0.49513 0.32267 1.28600
Mn	Mn	0.28180 0.62232 0.32112 1.31600
Mn	Mn	0.36891 0.50993 0.38826 1.25600
O 	O 	0.28960 0.53820 0.31190 -0.93900
O 	O 	0.04920 0.45660 0.33180 -0.59000
O 	O 	0.22720 0.46990 0.39350 -0.59900
O 	O 	0.27380 0.70640 0.32570 -0.57700
O 	O 	0.35310 0.60930 0.39040 -0.56900
O 	O 	0.45540 0.48800 0.31130 -0.59300
N 	N 	0.12350 0.59280 0.35130 -0.31800
N 	N 	0.07720 0.60880 0.39240 -0.04900
N 	N 	0.02840 0.62360 0.43250 -0.07800
N 	N 	0.44780 0.49070 0.46430 -0.23800
C 	C 	0.87730 0.66820 0.22850 -0.08800
C 	C 	0.01030 0.42930 0.38530 0.15100
C 	C 	0.07360 0.44270 0.43530 -0.09100
C 	C 	0.18660 0.43250 0.44010 0.14000
C 	C 	0.91790 0.44410 0.39680 -0.07500
C 	C 	0.22900 0.44140 0.49340 -0.08300
C 	C 	0.31180 0.74160 0.37590 0.20400
C 	C 	0.32560 0.70660 0.42250 -0.18300
C 	C 	0.37900 0.65850 0.42870 0.21500
C 	C 	0.28740 0.79850 0.36630 -0.10300
C 	C 	0.43250 0.64060 0.47550 -0.09500
C 	C 	0.54510 0.45280 0.30620 0.12200
C 	C 	0.60370 0.46390 0.35140 -0.06900
Mn	Mn	0.82973 0.50487 0.82267 1.28600
Mn	Mn	0.71820 0.37768 0.82112 1.31600
Mn	Mn	0.63109 0.49007 0.88826 1.25600
O 	O 	0.71040 0.46180 0.81190 -0.93900
O 	O 	0.95080 0.54340 0.83180 -0.59000
O 	O 	0.77280 0.53010 0.89350 -0.59900
O 	O 	0.72620 0.29360 0.82570 -0.57700
O 	O 	0.64690 0.39070 0.89040 -0.56900
O 	O 	0.54460 0.51200 0.81130 -0.59300
N 	N 	0.87650 0.40720 0.85130 -0.31800
N 	N 	0.92280 0.39120 0.89240 -0.04900
N 	N 	0.97160 0.37640 0.93250 -0.07800
N 	N 	0.55220 0.50930 0.96430 -0.23900
C 	C 	0.12270 0.33180 0.72850 -0.08800
C 	C 	0.98970 0.57070 0.88530 0.15200
C 	C 	0.92640 0.55730 0.93530 -0.09100
C 	C 	0.81340 0.56750 0.94010 0.14000
C 	C 	0.08210 0.55590 0.89680 -0.07500
C 	C 	0.77100 0.55860 0.99340 -0.08300
C 	C 	0.68820 0.25840 0.87590 0.20500
C 	C 	0.67440 0.29340 0.92250 -0.18300
C 	C 	0.62100 0.34150 0.92870 0.21500
C 	C 	0.71260 0.20150 0.86630 -0.10300
C 	C 	0.56750 0.35940 0.97550 -0.09600
C 	C 	0.45490 0.54720 0.80620 0.12200
C 	C 	0.39630 0.53610 0.85140 -0.06900
Mn	Mn	0.17027 0.00487 0.82267 1.28700
Mn	Mn	0.28180 0.87768 0.82112 1.31600
Mn	Mn	0.36891 0.99007 0.88826 1.25500
O 	O 	0.28960 0.96180 0.81190 -0.93900
O 	O 	0.04920 0.04340 0.83180 -0.58900
O 	O 	0.22720 0.03010 0.89350 -0.59800
O 	O 	0.27380 0.79360 0.82570 -0.57700
O 	O 	0.35310 0.89070 0.89040 -0.56900
O 	O 	0.45540 0.01200 0.81130 -0.59200
N 	N 	0.12350 0.90720 0.85130 -0.31900
N 	N 	0.07720 0.89120 0.89240 -0.04900
N 	N 	0.02840 0.87640 0.93250 -0.07900
N 	N 	0.44780 0.00930 0.96430 -0.23700
C 	C 	0.87730 0.83180 0.72850 -0.08700
C 	C 	0.01030 0.07070 0.88530 0.15300
C 	C 	0.07360 0.05730 0.93530 -0.09000
C 	C 	0.18660 0.06750 0.94010 0.14000
C 	C 	0.91790 0.05590 0.89680 -0.07600
C 	C 	0.22900 0.05860 0.99340 -0.08200
C 	C 	0.31180 0.75840 0.87590 0.20500
C 	C 	0.32560 0.79340 0.92250 -0.18400
C 	C 	0.37900 0.84150 0.92870 0.21500
C 	C 	0.28740 0.70150 0.86630 -0.10300
C 	C 	0.43250 0.85940 0.97550 -0.09600
C 	C 	0.54510 0.04720 0.80620 0.12100
C 	C 	0.60370 0.03610 0.85140 -0.06900
Mn	Mn	0.82973 0.99513 0.32267 1.28700
Mn	Mn	0.71820 0.12232 0.32112 1.31600
Mn	Mn	0.63109 0.00993 0.38826 1.25600
O 	O 	0.71040 0.03820 0.31190 -0.93900
O 	O 	0.95080 0.95660 0.33180 -0.58900
O 	O 	0.77280 0.96990 0.39350 -0.59800
O 	O 	0.72620 0.20640 0.32570 -0.57700
O 	O 	0.64690 0.10930 0.39040 -0.56900
O 	O 	0.54460 0.98800 0.31130 -0.59200
N 	N 	0.87650 0.09280 0.35130 -0.31800
N 	N 	0.92280 0.10880 0.39240 -0.04900
N 	N 	0.97160 0.12360 0.43250 -0.07800
N 	N 	0.55220 0.99070 0.46430 -0.23800
C 	C 	0.12270 0.16820 0.22850 -0.08800
C 	C 	0.98970 0.92930 0.38530 0.15300
C 	C 	0.92640 0.94270 0.43530 -0.09000
C 	C 	0.81340 0.93250 0.44010 0.14000
C 	C 	0.08210 0.94410 0.39680 -0.07600
C 	C 	0.77100 0.94140 0.49340 -0.08100
C 	C 	0.68820 0.24160 0.37590 0.20400
C 	C 	0.67440 0.20660 0.42250 -0.18300
C 	C 	0.62100 0.15850 0.42870 0.21500
C 	C 	0.71260 0.29850 0.36630 -0.10300
C 	C 	0.56750 0.14060 0.47550 -0.09500
C 	C 	0.45490 0.95280 0.30620 0.12100
C 	C 	0.39630 0.96390 0.35140 -0.06900
Mn	Mn	0.82973 0.50487 0.67733 1.28600
Mn	Mn	0.71820 0.37768 0.67888 1.31600
Mn	Mn	0.63109 0.49007 0.61174 1.25600
O 	O 	0.71040 0.46180 0.68810 -0.93900
O 	O 	0.95080 0.54340 0.66820 -0.59000
O 	O 	0.77280 0.53010 0.60650 -0.59900
O 	O 	0.72620 0.29360 0.67430 -0.57700
O 	O 	0.64690 0.39070 0.60960 -0.56900
O 	O 	0.54460 0.51200 0.68870 -0.59300
N 	N 	0.87650 0.40720 0.64870 -0.31800
N 	N 	0.92280 0.39120 0.60760 -0.04900
N 	N 	0.97160 0.37640 0.56750 -0.07800
N 	N 	0.55220 0.50930 0.53570 -0.23800
C 	C 	0.12270 0.33180 0.77150 -0.08800
C 	C 	0.98970 0.57070 0.61470 0.15100
C 	C 	0.92640 0.55730 0.56470 -0.09100
C 	C 	0.81340 0.56750 0.55990 0.14000
C 	C 	0.08210 0.55590 0.60320 -0.07500
C 	C 	0.77100 0.55860 0.50660 -0.08300
C 	C 	0.68820 0.25840 0.62410 0.20400
C 	C 	0.67440 0.29340 0.57750 -0.18300
C 	C 	0.62100 0.34150 0.57130 0.21500
C 	C 	0.71260 0.20150 0.63370 -0.10300
C 	C 	0.56750 0.35940 0.52450 -0.09500
C 	C 	0.45490 0.54720 0.69380 0.12200
C 	C 	0.39630 0.53610 0.64860 -0.06900
Mn	Mn	0.17027 0.49513 0.17733 1.28600
Mn	Mn	0.28180 0.62232 0.17888 1.31600
Mn	Mn	0.36891 0.50993 0.11174 1.25600
O 	O 	0.28960 0.53820 0.18810 -0.93900
O 	O 	0.04920 0.45660 0.16820 -0.59000
O 	O 	0.22720 0.46990 0.10650 -0.59900
O 	O 	0.27380 0.70640 0.17430 -0.57700
O 	O 	0.35310 0.60930 0.10960 -0.56900
O 	O 	0.45540 0.48800 0.18870 -0.59300
N 	N 	0.12350 0.59280 0.14870 -0.31800
N 	N 	0.07720 0.60880 0.10760 -0.04900
N 	N 	0.02840 0.62360 0.06750 -0.07800
N 	N 	0.44780 0.49070 0.03570 -0.23900
C 	C 	0.87730 0.66820 0.27150 -0.08800
C 	C 	0.01030 0.42930 0.11470 0.15200
C 	C 	0.07360 0.44270 0.06470 -0.09100
C 	C 	0.18660 0.43250 0.05990 0.14000
C 	C 	0.91790 0.44410 0.10320 -0.07500
C 	C 	0.22900 0.44140 0.00660 -0.08300
C 	C 	0.31180 0.74160 0.12410 0.20500
C 	C 	0.32560 0.70660 0.07750 -0.18300
C 	C 	0.37900 0.65850 0.07130 0.21500
C 	C 	0.28740 0.79850 0.13370 -0.10300
C 	C 	0.43250 0.64060 0.02450 -0.09600
C 	C 	0.54510 0.45280 0.19380 0.12200
C 	C 	0.60370 0.46390 0.14860 -0.06900
Mn	Mn	0.92142 0.10540 0.25000 1.31400
Mn	Mn	0.62591 0.01044 0.25000 1.28700
Mn	Mn	0.02230 0.97947 0.25000 1.26100
Mn	Mn	0.81261 0.22937 0.25000 1.26600
O 	O 	0.88470 0.02310 0.25000 -0.94100
O 	O 	0.79160 0.13470 0.25000 -0.90700
O 	O 	0.04880 0.07350 0.25000 -0.56800
O 	O 	0.95500 0.18730 0.25000 -0.59700
N 	N 	0.58930 0.11420 0.25000 -0.31300
N 	N 	0.51440 0.13420 0.25000 -0.04700
N 	N 	0.42700 0.15140 0.25000 -0.08600
N 	N 	0.14130 0.92210 0.25000 -0.22700
N 	N 	0.16090 0.87310 0.25000 -0.02100
N 	N 	0.81070 0.32270 0.25000 -0.22900
C 	C 	0.14350 0.10850 0.25000 0.19200
C 	C 	0.04730 0.21030 0.25000 0.23700
C 	C 	0.21370 0.07350 0.25000 -0.10100
C 	C 	0.05140 0.27070 0.25000 -0.16300
C 	C 	0.40970 0.97740 0.25000 -0.07000
Mn	Mn	0.07858 0.89460 0.75000 1.31400
Mn	Mn	0.37409 0.98956 0.75000 1.28800
Mn	Mn	0.97770 0.02053 0.75000 1.26100
Mn	Mn	0.18739 0.77063 0.75000 1.26600
O 	O 	0.11530 0.97690 0.75000 -0.94100
O 	O 	0.20840 0.86530 0.75000 -0.90700
O 	O 	0.95120 0.92650 0.75000 -0.56800
O 	O 	0.04500 0.81270 0.75000 -0.59700
N 	N 	0.41070 0.88580 0.75000 -0.31300
N 	N 	0.48560 0.86580 0.75000 -0.04700
N 	N 	0.57300 0.84860 0.75000 -0.08600
N 	N 	0.85870 0.07790 0.75000 -0.22700
N 	N 	0.83910 0.12690 0.75000 -0.02100
N 	N 	0.18930 0.67730 0.75000 -0.22900
C 	C 	0.85650 0.89150 0.75000 0.19200
C 	C 	0.95270 0.78970 0.75000 0.23700
C 	C 	0.78630 0.92650 0.75000 -0.10100
C 	C 	0.94860 0.72930 0.75000 -0.16300
C 	C 	0.59030 0.02260 0.75000 -0.07000
Mn	Mn	0.07858 0.60540 0.25000 1.31400
Mn	Mn	0.37409 0.51044 0.25000 1.28800
Mn	Mn	0.97770 0.47947 0.25000 1.26200
Mn	Mn	0.18739 0.72937 0.25000 1.26600
O 	O 	0.11530 0.52310 0.25000 -0.94000
O 	O 	0.20840 0.63470 0.25000 -0.90700
O 	O 	0.95120 0.57350 0.25000 -0.56900
O 	O 	0.04500 0.68730 0.25000 -0.59700
N 	N 	0.41070 0.61420 0.25000 -0.31300
N 	N 	0.48560 0.63420 0.25000 -0.04600
N 	N 	0.57300 0.65140 0.25000 -0.08600
N 	N 	0.85870 0.42210 0.25000 -0.22700
N 	N 	0.83910 0.37310 0.25000 -0.02100
N 	N 	0.18930 0.82270 0.25000 -0.22900
C 	C 	0.85650 0.60850 0.25000 0.19200
C 	C 	0.95270 0.71030 0.25000 0.23700
C 	C 	0.78630 0.57350 0.25000 -0.10100
C 	C 	0.94860 0.77070 0.25000 -0.16300
C 	C 	0.59030 0.47740 0.25000 -0.07100
Mn	Mn	0.92142 0.39460 0.75000 1.31400
Mn	Mn	0.62591 0.48956 0.75000 1.28800
Mn	Mn	0.02230 0.52053 0.75000 1.26200
Mn	Mn	0.81261 0.27063 0.75000 1.26600
O 	O 	0.88470 0.47690 0.75000 -0.94000
O 	O 	0.79160 0.36530 0.75000 -0.90700
O 	O 	0.04880 0.42650 0.75000 -0.56900
O 	O 	0.95500 0.31270 0.75000 -0.59700
N 	N 	0.58930 0.38580 0.75000 -0.31300
N 	N 	0.51440 0.36580 0.75000 -0.04600
N 	N 	0.42700 0.34860 0.75000 -0.08600
N 	N 	0.14130 0.57790 0.75000 -0.22700
N 	N 	0.16090 0.62690 0.75000 -0.02100
N 	N 	0.81070 0.17730 0.75000 -0.22900
C 	C 	0.14350 0.39150 0.75000 0.19200
C 	C 	0.04730 0.28970 0.75000 0.23700
C 	C 	0.21370 0.42650 0.75000 -0.10100
C 	C 	0.05140 0.22930 0.75000 -0.16300
C 	C 	0.40970 0.52260 0.75000 -0.07100
N 	N 	0.50000 0.00000 -0.00000 0.00100
N 	N 	0.50000 0.00000 0.50000 0.00200
N 	N 	0.50000 0.50000 0.50000 0.00200
N 	N 	0.50000 0.50000 -0.00000 0.00200
