data_crystal

_cell_length_a 16.83960
_cell_length_b 21.48630
_cell_length_c 21.48630
_cell_angle_alpha 81.16660
_cell_angle_beta  66.92920
_cell_angle_gamma 66.92910

_symmetry_space_group_name_	'P 1'
_symmetry_space_group_name_H-M	'P 1'

loop_
_symmetry_equiv_pos_as_xyz
  x,y,z

loop_
_atom_site_label
_atom_site_type_symbol
_atom_site_fract_x
_atom_site_fract_y
_atom_site_fract_z
_atom_site_charge
Co	Co	0.35814 0.24238 0.53798 1.15700
Co	Co	0.63850 0.25762 0.96202 1.15700
Co	Co	0.89612 0.46202 0.74238 1.15700
Co	Co	0.60051 0.03799 0.75762 1.15700
H 	H 	0.36760 0.14170 0.65330 -0.01200
H 	H 	0.29910 0.12880 0.76620 0.09300
H 	H 	0.12490 0.31910 0.77470 0.09200
H 	H 	0.19970 0.32610 0.66090 -0.00300
H 	H 	0.20520 0.13270 0.98770 0.01300
H 	H 	0.27650 0.14720 0.87420 0.08300
H 	H 	0.03030 0.27640 0.87300 0.08100
H 	H 	0.97060 0.25770 0.98730 0.01800
H 	H 	0.49770 0.15000 0.41420 -0.01300
H 	H 	0.55140 0.15030 0.29890 0.08700
H 	H 	0.39330 0.34480 0.30580 0.09000
H 	H 	0.34520 0.33880 0.42060 0.00200
H 	H 	0.62930 0.54030 0.55630 0.13700
H 	H 	0.75160 0.50930 0.59350 0.00200
H 	H 	0.57950 0.50090 0.78450 -0.00400
H 	H 	0.45700 0.53200 0.74740 0.13900
H 	H 	0.31070 0.56090 0.61570 0.15100
H 	H 	0.28660 0.47970 0.57310 -0.01800
H 	H 	0.52710 0.34160 0.58000 -0.01700
H 	H 	0.55130 0.42270 0.62250 0.14700
H 	H 	0.66260 0.35830 0.84670 -0.01300
H 	H 	0.69410 0.37120 0.73380 0.09200
H 	H 	0.71870 0.18090 0.72530 0.09100
H 	H 	0.68670 0.17390 0.83910 -0.00400
H 	H 	0.82560 0.36730 0.51230 0.01200
H 	H 	0.79790 0.35280 0.62580 0.08200
H 	H 	0.67970 0.22360 0.62700 0.08000
H 	H 	0.71560 0.24230 0.51270 0.01700
H 	H 	0.56190 0.35000 0.08580 -0.01300
H 	H 	0.50060 0.34970 0.20110 0.08600
H 	H 	0.54390 0.15520 0.19420 0.09000
H 	H 	0.60460 0.16120 0.07940 0.00200
H 	H 	0.22590 0.95970 0.94370 0.13700
H 	H 	0.35440 0.99070 0.90650 0.00300
H 	H 	0.36490 0.99910 0.71550 -0.00300
H 	H 	0.23640 0.96800 0.75260 0.13900
H 	H 	0.98730 0.93910 0.88430 0.14800
H 	H 	0.83940 0.02030 0.92690 -0.01500
H 	H 	0.94870 0.15840 0.92000 -0.01400
H 	H 	0.09650 0.07730 0.87750 0.14400
H 	H 	0.02090 0.34670 0.64170 -0.01300
H 	H 	0.06530 0.23380 0.62880 0.09200
H 	H 	0.89960 0.22530 0.81910 0.09100
H 	H 	0.86060 0.33910 0.82610 -0.00400
H 	H 	0.19290 0.01230 0.63270 0.01200
H 	H 	0.15070 0.12580 0.64720 0.08300
H 	H 	0.90330 0.12700 0.77640 0.08100
H 	H 	0.95790 0.01270 0.75770 0.01700
H 	H 	0.91190 0.58580 0.65000 -0.01400
H 	H 	0.85030 0.70110 0.65030 0.08600
H 	H 	0.69910 0.69420 0.84480 0.09000
H 	H 	0.76580 0.57940 0.83880 0.00200
H 	H 	0.18560 0.44370 0.04030 0.13700
H 	H 	0.34510 0.40650 0.00930 0.00300
H 	H 	0.36400 0.21550 0.00090 -0.00300
H 	H 	0.20440 0.25260 0.03200 0.13900
H 	H 	0.92640 0.38430 0.06090 0.15100
H 	H 	0.85970 0.42690 0.97970 -0.01700
H 	H 	0.10710 0.42000 0.84160 -0.01600
H 	H 	0.17380 0.37750 0.92270 0.14600
H 	H 	0.50930 0.15330 0.85830 -0.01400
H 	H 	0.42790 0.26620 0.87120 0.09200
H 	H 	0.44400 0.27470 0.68090 0.09100
H 	H 	0.52580 0.16090 0.67390 -0.00400
H 	H 	0.33790 0.48770 0.86730 0.01200
H 	H 	0.42370 0.37420 0.85280 0.08200
H 	H 	0.30670 0.37300 0.72360 0.08000
H 	H 	0.22830 0.48730 0.74230 0.01700
H 	H 	0.64770 0.91420 0.85000 -0.01300
H 	H 	0.70170 0.79890 0.84970 0.08600
H 	H 	0.73810 0.80580 0.65520 0.09000
H 	H 	0.68400 0.92060 0.66120 0.00200
H 	H 	0.16960 0.05630 0.45970 0.13800
H 	H 	0.26090 0.09350 0.49070 0.00200
H 	H 	0.08040 0.28450 0.49910 -0.00400
H 	H 	0.98900 0.24740 0.46800 0.13900
H 	H 	0.87160 0.11570 0.43910 0.15100
H 	H 	0.76630 0.07310 0.52030 -0.01800
H 	H 	0.86870 0.08000 0.65840 -0.01700
H 	H 	0.97400 0.12250 0.57730 0.14700
C 	C 	0.31805 0.17834 0.67796 0.09600
C 	C 	0.27730 0.17028 0.74612 -0.15400
C 	C 	0.20446 0.22286 0.78502 0.07700
C 	C 	0.17501 0.28185 0.75133 -0.15700
C 	C 	0.22051 0.28536 0.68242 0.10000
C 	C 	0.16920 0.16220 0.96420 0.07700
C 	C 	0.21313 0.17038 0.89556 -0.13300
C 	C 	0.16079 0.21395 0.85907 0.05100
C 	C 	0.06874 0.24658 0.89454 -0.13100
C 	C 	0.03340 0.23430 0.96390 0.08200
C 	C 	0.47681 0.19020 0.39198 0.09300
C 	C 	0.50973 0.19007 0.32247 -0.14600
C 	C 	0.48098 0.24882 0.28782 0.07000
C 	C 	0.41719 0.30421 0.32641 -0.15000
C 	C 	0.38804 0.29997 0.39575 0.10300
C 	C 	0.37970 0.35070 0.55550 0.35700
C 	C 	0.76040 0.48450 0.70770 0.31500
C 	C 	0.53100 0.53930 0.64810 0.27300
C 	C 	0.61930 0.53240 0.60200 -0.26900
C 	C 	0.69260 0.51380 0.62440 0.13400
C 	C 	0.67770 0.50190 0.69270 -0.18600
C 	C 	0.58940 0.50880 0.73880 0.13000
C 	C 	0.51610 0.52750 0.71650 -0.24800
C 	C 	0.43340 0.49990 0.62330 0.32400
C 	C 	0.35410 0.51690 0.60850 -0.29200
C 	C 	0.33960 0.46830 0.58310 0.16700
C 	C 	0.40440 0.40260 0.57240 -0.21600
C 	C 	0.48380 0.38550 0.58710 0.17700
C 	C 	0.49820 0.43420 0.61260 -0.30200
C 	C 	0.67435 0.32166 0.82204 0.09600
C 	C 	0.69370 0.32972 0.75388 -0.15400
C 	C 	0.71234 0.27714 0.71498 0.07700
C 	C 	0.70819 0.21815 0.74867 -0.15700
C 	C 	0.68829 0.21464 0.81758 0.10000
C 	C 	0.79560 0.33780 0.53580 0.07700
C 	C 	0.77907 0.32962 0.60444 -0.13300
C 	C 	0.73381 0.28605 0.64093 0.05100
C 	C 	0.70986 0.25342 0.60546 -0.13100
C 	C 	0.73160 0.26570 0.53610 0.08200
C 	C 	0.55899 0.30980 0.10802 0.09300
C 	C 	0.52227 0.30993 0.17753 -0.14600
C 	C 	0.51762 0.25118 0.21218 0.07000
C 	C 	0.54781 0.19579 0.17359 -0.15000
C 	C 	0.58376 0.20003 0.10425 0.10300
C 	C 	0.78590 0.14930 0.94450 0.35500
C 	C 	0.45260 0.01550 0.79230 0.31300
C 	C 	0.21840 0.96070 0.85190 0.27200
C 	C 	0.25370 0.96760 0.89800 -0.26700
C 	C 	0.33080 0.98620 0.87560 0.13300
C 	C 	0.37230 0.99810 0.80730 -0.18300
C 	C 	0.33700 0.99120 0.76120 0.12800
C 	C 	0.26010 0.97250 0.78350 -0.24700
C 	C 	0.05660 0.00010 0.87670 0.31500
C 	C 	0.97950 0.98310 0.89150 -0.27900
C 	C 	0.89100 0.03170 0.91690 0.15700
C 	C 	0.87940 0.09740 0.92760 -0.21100
C 	C 	0.95640 0.11450 0.91290 0.17100
C 	C 	0.04500 0.06580 0.88740 -0.29500
C 	C 	0.99601 0.32204 0.67834 0.09500
C 	C 	0.02342 0.25388 0.67028 -0.15300
C 	C 	0.98948 0.21498 0.72286 0.07500
C 	C 	0.92634 0.24867 0.78185 -0.15600
C 	C 	0.90293 0.31758 0.78536 0.09900
C 	C 	0.13340 0.03580 0.66220 0.07700
C 	C 	0.10869 0.10444 0.67038 -0.13300
C 	C 	0.01986 0.14093 0.71395 0.05200
C 	C 	0.96328 0.10546 0.74658 -0.13200
C 	C 	0.99730 0.03610 0.73430 0.08200
C 	C 	0.86879 0.60802 0.69020 0.09300
C 	C 	0.83220 0.67753 0.69007 -0.14600
C 	C 	0.76880 0.71218 0.74882 0.07000
C 	C 	0.74360 0.67359 0.80421 -0.15000
C 	C 	0.78379 0.60425 0.79997 0.10300
C 	C 	0.93520 0.44450 0.85070 0.35600
C 	C 	0.46810 0.29230 0.98450 0.31400
C 	C 	0.17910 0.35190 0.03930 0.27200
C 	C 	0.22130 0.39800 0.03240 -0.26800
C 	C 	0.31700 0.37560 0.01380 0.13300
C 	C 	0.37040 0.30730 0.00190 -0.18400
C 	C 	0.32820 0.26120 0.00880 0.12900
C 	C 	0.23260 0.28350 0.02750 -0.24700
C 	C 	0.05670 0.37670 0.99990 0.32200
C 	C 	0.96260 0.39150 0.01690 -0.29000
C 	C 	0.92270 0.41690 0.96830 0.16600
C 	C 	0.97680 0.42760 0.90260 -0.21500
C 	C 	0.07090 0.41290 0.88550 0.17600
C 	C 	0.11080 0.38740 0.93420 -0.30000
C 	C 	0.49639 0.17796 0.82166 0.09600
C 	C 	0.44758 0.24612 0.82972 -0.15400
C 	C 	0.42732 0.28502 0.77714 0.07700
C 	C 	0.45686 0.25133 0.71815 -0.15700
C 	C 	0.50587 0.18242 0.71464 0.10000
C 	C 	0.33140 0.46420 0.83780 0.07700
C 	C 	0.38351 0.39556 0.82962 -0.13300
C 	C 	0.37474 0.35907 0.78605 0.05100
C 	C 	0.31532 0.39454 0.75342 -0.13100
C 	C 	0.26770 0.46390 0.76570 0.08200
C 	C 	0.66701 0.89198 0.80980 0.09300
C 	C 	0.69980 0.82247 0.80993 -0.14500
C 	C 	0.72980 0.78782 0.75118 0.07000
C 	C 	0.72140 0.82641 0.69579 -0.15000
C 	C 	0.68801 0.89575 0.70003 0.10300
C 	C 	0.73040 0.05550 0.64930 0.35700
C 	C 	0.24490 0.20770 0.51550 0.31500
C 	C 	0.07030 0.14810 0.46070 0.27300
C 	C 	0.15170 0.10200 0.46760 -0.26900
C 	C 	0.20640 0.12440 0.48620 0.13400
C 	C 	0.17960 0.19270 0.49810 -0.18600
C 	C 	0.09820 0.23880 0.49120 0.12900
C 	C 	0.04360 0.21650 0.47250 -0.24800
C 	C 	0.93330 0.12330 0.50010 0.32400
C 	C 	0.87100 0.10850 0.48310 -0.29200
C 	C 	0.80790 0.08310 0.53170 0.16700
C 	C 	0.80700 0.07240 0.59740 -0.21600
C 	C 	0.86930 0.08710 0.61450 0.17700
C 	C 	0.93240 0.11260 0.56580 -0.30200
N 	N 	0.29108 0.23530 0.64514 -0.24100
N 	N 	0.08080 0.19280 0.99860 -0.13300
N 	N 	0.41658 0.24505 0.42899 -0.23700
N 	N 	0.67152 0.26470 0.85486 -0.24100
N 	N 	0.77220 0.30720 0.50140 -0.13300
N 	N 	0.59062 0.25495 0.07101 -0.23700
N 	N 	0.93622 0.35486 0.73530 -0.24000
N 	N 	0.07940 0.00140 0.69280 -0.13300
N 	N 	0.84557 0.57101 0.74505 -0.23700
N 	N 	0.52638 0.14514 0.76470 -0.24100
N 	N 	0.27360 0.49860 0.80720 -0.13300
N 	N 	0.66163 0.92899 0.75495 -0.23700
O 	O 	0.43480 0.28760 0.55040 -0.42500
O 	O 	0.30810 0.36000 0.54620 -0.35900
O 	O 	0.75950 0.47330 0.76650 -0.38800
O 	O 	0.84570 0.47357 0.66063 -0.36900
O 	O 	0.44200 0.54870 0.64970 -0.30800
O 	O 	0.77280 0.21240 0.94960 -0.42500
O 	O 	0.71430 0.14000 0.95380 -0.35900
O 	O 	0.49930 0.02670 0.73350 -0.38800
O 	O 	0.47990 0.02643 0.83937 -0.37000
O 	O 	0.14040 0.95130 0.85030 -0.30500
O 	O 	0.98520 0.44960 0.78760 -0.42500
O 	O 	0.85430 0.45380 0.86000 -0.35900
O 	O 	0.52600 0.23350 0.97330 -0.38800
O 	O 	0.50633 0.33937 0.97357 -0.36900
O 	O 	0.09170 0.35030 0.04870 -0.30600
O 	O 	0.72240 0.05040 0.71240 -0.42500
O 	O 	0.66810 0.04620 0.64000 -0.36000
O 	O 	0.23280 0.26650 0.52670 -0.38800
O 	O 	0.31927 0.16063 0.52643 -0.36900
O 	O 	0.99070 0.14970 0.45130 -0.30800
Co	Co	0.64186 0.75762 0.46202 1.15600
Co	Co	0.36150 0.74238 0.03798 1.15600
Co	Co	0.10387 0.53799 0.25762 1.15600
Co	Co	0.39949 0.96201 0.24238 1.15600
H 	H 	0.63240 0.85830 0.34670 -0.01300
H 	H 	0.70090 0.87120 0.23380 0.09200
H 	H 	0.87510 0.68090 0.22530 0.09100
H 	H 	0.80030 0.67390 0.33910 -0.00400
H 	H 	0.79480 0.86730 0.01230 0.01200
H 	H 	0.72350 0.85280 0.12580 0.08200
H 	H 	0.96970 0.72360 0.12700 0.08000
H 	H 	0.02940 0.74230 0.01270 0.01700
H 	H 	0.50230 0.85000 0.58580 -0.01400
H 	H 	0.44860 0.84970 0.70110 0.08600
H 	H 	0.60670 0.65520 0.69420 0.09000
H 	H 	0.65480 0.66120 0.57940 0.00200
H 	H 	0.37070 0.45970 0.44370 0.13700
H 	H 	0.24840 0.49070 0.40650 0.00200
H 	H 	0.42050 0.49910 0.21550 -0.00400
H 	H 	0.54300 0.46800 0.25260 0.13900
H 	H 	0.68930 0.43910 0.38430 0.15100
H 	H 	0.71340 0.52030 0.42690 -0.01800
H 	H 	0.47290 0.65840 0.42000 -0.01700
H 	H 	0.44870 0.57730 0.37750 0.14700
H 	H 	0.33740 0.64170 0.15330 -0.01300
H 	H 	0.30590 0.62880 0.26620 0.09200
H 	H 	0.28130 0.81910 0.27470 0.09100
H 	H 	0.31330 0.82610 0.16090 -0.00400
H 	H 	0.17440 0.63270 0.48770 0.01200
H 	H 	0.20210 0.64720 0.37420 0.08200
H 	H 	0.32030 0.77640 0.37300 0.08000
H 	H 	0.28440 0.75770 0.48730 0.01700
H 	H 	0.43810 0.65000 0.91420 -0.01300
H 	H 	0.49940 0.65030 0.79890 0.08600
H 	H 	0.45610 0.84480 0.80580 0.09000
H 	H 	0.39540 0.83880 0.92060 0.00200
H 	H 	0.77410 0.04030 0.05630 0.13700
H 	H 	0.64560 0.00930 0.09350 0.00300
H 	H 	0.63510 0.00090 0.28450 -0.00300
H 	H 	0.76360 0.03200 0.24740 0.13900
H 	H 	0.01270 0.06090 0.11570 0.14800
H 	H 	0.16060 0.97970 0.07310 -0.01500
H 	H 	0.05130 0.84160 0.08000 -0.01400
H 	H 	0.90350 0.92270 0.12250 0.14400
H 	H 	0.97910 0.65330 0.35830 -0.01300
H 	H 	0.93470 0.76620 0.37120 0.09200
H 	H 	0.10040 0.77470 0.18090 0.09100
H 	H 	0.13940 0.66090 0.17390 -0.00400
H 	H 	0.80710 0.98770 0.36730 0.01200
H 	H 	0.84930 0.87420 0.35280 0.08300
H 	H 	0.09670 0.87300 0.22360 0.08100
H 	H 	0.04210 0.98730 0.24230 0.01700
H 	H 	0.08810 0.41420 0.35000 -0.01400
H 	H 	0.14970 0.29890 0.34970 0.08600
H 	H 	0.30090 0.30580 0.15520 0.09000
H 	H 	0.23420 0.42060 0.16120 0.00200
H 	H 	0.81440 0.55630 0.95970 0.13700
H 	H 	0.65490 0.59350 0.99070 0.00300
H 	H 	0.63600 0.78450 0.99910 -0.00300
H 	H 	0.79560 0.74740 0.96800 0.13900
H 	H 	0.07360 0.61570 0.93910 0.15100
H 	H 	0.14030 0.57310 0.02030 -0.01700
H 	H 	0.89290 0.58000 0.15840 -0.01600
H 	H 	0.82620 0.62250 0.07730 0.14600
H 	H 	0.49070 0.84670 0.14170 -0.01400
H 	H 	0.57210 0.73380 0.12880 0.09200
H 	H 	0.55600 0.72530 0.31910 0.09100
H 	H 	0.47420 0.83910 0.32610 -0.00400
H 	H 	0.66210 0.51230 0.13270 0.01200
H 	H 	0.57630 0.62580 0.14720 0.08200
H 	H 	0.69330 0.62700 0.27640 0.08000
H 	H 	0.77170 0.51270 0.25770 0.01700
H 	H 	0.35230 0.08580 0.15000 -0.01300
H 	H 	0.29830 0.20110 0.15030 0.08600
H 	H 	0.26190 0.19420 0.34480 0.09000
H 	H 	0.31600 0.07940 0.33880 0.00200
H 	H 	0.83040 0.94370 0.54030 0.13800
H 	H 	0.73910 0.90650 0.50930 0.00200
H 	H 	0.91960 0.71550 0.50090 -0.00400
H 	H 	0.01100 0.75260 0.53200 0.13900
H 	H 	0.12840 0.88430 0.56090 0.15100
H 	H 	0.23370 0.92690 0.47970 -0.01800
H 	H 	0.13130 0.92000 0.34160 -0.01700
H 	H 	0.02600 0.87750 0.42270 0.14700
C 	C 	0.68195 0.82166 0.32204 0.09600
C 	C 	0.72270 0.82972 0.25388 -0.15400
C 	C 	0.79554 0.77714 0.21498 0.07700
C 	C 	0.82499 0.71815 0.24867 -0.15700
C 	C 	0.77949 0.71464 0.31758 0.10000
C 	C 	0.83080 0.83780 0.03580 0.07700
C 	C 	0.78687 0.82962 0.10444 -0.13300
C 	C 	0.83921 0.78605 0.14093 0.05100
C 	C 	0.93126 0.75342 0.10546 -0.13100
C 	C 	0.96660 0.76570 0.03610 0.08200
C 	C 	0.52319 0.80980 0.60802 0.09300
C 	C 	0.49027 0.80993 0.67753 -0.14600
C 	C 	0.51902 0.75118 0.71218 0.07000
C 	C 	0.58281 0.69579 0.67359 -0.15000
C 	C 	0.61196 0.70003 0.60425 0.10300
C 	C 	0.62030 0.64930 0.44450 0.35700
C 	C 	0.23960 0.51550 0.29230 0.31500
C 	C 	0.46900 0.46070 0.35190 0.27300
C 	C 	0.38070 0.46760 0.39800 -0.26900
C 	C 	0.30740 0.48620 0.37560 0.13400
C 	C 	0.32230 0.49810 0.30730 -0.18600
C 	C 	0.41060 0.49120 0.26120 0.13000
C 	C 	0.48390 0.47250 0.28350 -0.24800
C 	C 	0.56660 0.50010 0.37670 0.32400
C 	C 	0.64590 0.48310 0.39150 -0.29200
C 	C 	0.66040 0.53170 0.41690 0.16700
C 	C 	0.59560 0.59740 0.42760 -0.21600
C 	C 	0.51620 0.61450 0.41290 0.17700
C 	C 	0.50180 0.56580 0.38740 -0.30200
C 	C 	0.32565 0.67834 0.17796 0.09600
C 	C 	0.30630 0.67028 0.24612 -0.15400
C 	C 	0.28766 0.72286 0.28502 0.07700
C 	C 	0.29181 0.78185 0.25133 -0.15700
C 	C 	0.31171 0.78536 0.18242 0.10000
C 	C 	0.20440 0.66220 0.46420 0.07700
C 	C 	0.22093 0.67038 0.39556 -0.13300
C 	C 	0.26619 0.71395 0.35907 0.05100
C 	C 	0.29014 0.74658 0.39454 -0.13100
C 	C 	0.26840 0.73430 0.46390 0.08200
C 	C 	0.44101 0.69020 0.89198 0.09300
C 	C 	0.47773 0.69007 0.82247 -0.14600
C 	C 	0.48238 0.74882 0.78782 0.07000
C 	C 	0.45219 0.80421 0.82641 -0.15000
C 	C 	0.41624 0.79997 0.89575 0.10300
C 	C 	0.21410 0.85070 0.05550 0.35500
C 	C 	0.54740 0.98450 0.20770 0.31300
C 	C 	0.78160 0.03930 0.14810 0.27200
C 	C 	0.74630 0.03240 0.10200 -0.26700
C 	C 	0.66920 0.01380 0.12440 0.13300
C 	C 	0.62770 0.00190 0.19270 -0.18300
C 	C 	0.66300 0.00880 0.23880 0.12800
C 	C 	0.73990 0.02750 0.21650 -0.24700
C 	C 	0.94340 0.99990 0.12330 0.31500
C 	C 	0.02050 0.01690 0.10850 -0.27900
C 	C 	0.10900 0.96830 0.08310 0.15700
C 	C 	0.12060 0.90260 0.07240 -0.21100
C 	C 	0.04360 0.88550 0.08710 0.17100
C 	C 	0.95500 0.93420 0.11260 -0.29500
C 	C 	0.00399 0.67796 0.32166 0.09500
C 	C 	0.97658 0.74612 0.32972 -0.15300
C 	C 	0.01052 0.78502 0.27714 0.07500
C 	C 	0.07366 0.75133 0.21815 -0.15600
C 	C 	0.09707 0.68242 0.21464 0.09900
C 	C 	0.86660 0.96420 0.33780 0.07700
C 	C 	0.89131 0.89556 0.32962 -0.13300
C 	C 	0.98014 0.85907 0.28605 0.05200
C 	C 	0.03672 0.89454 0.25342 -0.13200
C 	C 	0.00270 0.96390 0.26570 0.08200
C 	C 	0.13121 0.39198 0.30980 0.09300
C 	C 	0.16780 0.32247 0.30993 -0.14600
C 	C 	0.23120 0.28782 0.25118 0.07000
C 	C 	0.25640 0.32641 0.19579 -0.15000
C 	C 	0.21621 0.39575 0.20003 0.10300
C 	C 	0.06480 0.55550 0.14930 0.35600
C 	C 	0.53190 0.70770 0.01550 0.31400
C 	C 	0.82090 0.64810 0.96070 0.27200
C 	C 	0.77870 0.60200 0.96760 -0.26800
C 	C 	0.68300 0.62440 0.98620 0.13300
C 	C 	0.62960 0.69270 0.99810 -0.18400
C 	C 	0.67180 0.73880 0.99120 0.12900
C 	C 	0.76740 0.71650 0.97250 -0.24700
C 	C 	0.94330 0.62330 0.00010 0.32200
C 	C 	0.03740 0.60850 0.98310 -0.29000
C 	C 	0.07730 0.58310 0.03170 0.16600
C 	C 	0.02320 0.57240 0.09740 -0.21500
C 	C 	0.92910 0.58710 0.11450 0.17600
C 	C 	0.88920 0.61260 0.06580 -0.30000
C 	C 	0.50361 0.82204 0.17834 0.09600
C 	C 	0.55242 0.75388 0.17028 -0.15400
C 	C 	0.57268 0.71498 0.22286 0.07700
C 	C 	0.54314 0.74867 0.28185 -0.15700
C 	C 	0.49413 0.81758 0.28536 0.10000
C 	C 	0.66860 0.53580 0.16220 0.07700
C 	C 	0.61649 0.60444 0.17038 -0.13300
C 	C 	0.62526 0.64093 0.21395 0.05100
C 	C 	0.68468 0.60546 0.24658 -0.13100
C 	C 	0.73230 0.53610 0.23430 0.08200
C 	C 	0.33299 0.10802 0.19020 0.09300
C 	C 	0.30020 0.17753 0.19007 -0.14500
C 	C 	0.27020 0.21218 0.24882 0.07000
C 	C 	0.27860 0.17359 0.30421 -0.15000
C 	C 	0.31199 0.10425 0.29997 0.10300
C 	C 	0.26960 0.94450 0.35070 0.35700
C 	C 	0.75510 0.79230 0.48450 0.31500
C 	C 	0.92970 0.85190 0.53930 0.27300
C 	C 	0.84830 0.89800 0.53240 -0.26900
C 	C 	0.79360 0.87560 0.51380 0.13400
C 	C 	0.82040 0.80730 0.50190 -0.18600
C 	C 	0.90180 0.76120 0.50880 0.12900
C 	C 	0.95640 0.78350 0.52750 -0.24800
C 	C 	0.06670 0.87670 0.49990 0.32400
C 	C 	0.12900 0.89150 0.51690 -0.29200
C 	C 	0.19210 0.91690 0.46830 0.16700
C 	C 	0.19300 0.92760 0.40260 -0.21600
C 	C 	0.13070 0.91290 0.38550 0.17700
C 	C 	0.06760 0.88740 0.43420 -0.30200
N 	N 	0.70892 0.76470 0.35486 -0.24100
N 	N 	0.91920 0.80720 0.00140 -0.13300
N 	N 	0.58342 0.75495 0.57101 -0.23700
N 	N 	0.32848 0.73530 0.14514 -0.24100
N 	N 	0.22780 0.69280 0.49860 -0.13300
N 	N 	0.40938 0.74505 0.92899 -0.23700
N 	N 	0.06378 0.64514 0.26470 -0.24000
N 	N 	0.92060 0.99860 0.30720 -0.13300
N 	N 	0.15443 0.42899 0.25495 -0.23700
N 	N 	0.47362 0.85486 0.23530 -0.24100
N 	N 	0.72640 0.50140 0.19280 -0.13300
N 	N 	0.33837 0.07101 0.24505 -0.23700
O 	O 	0.56520 0.71240 0.44960 -0.42500
O 	O 	0.69190 0.64000 0.45380 -0.35900
O 	O 	0.24050 0.52670 0.23350 -0.38800
O 	O 	0.15430 0.52643 0.33937 -0.36900
O 	O 	0.55800 0.45130 0.35030 -0.30800
O 	O 	0.22720 0.78760 0.05040 -0.42500
O 	O 	0.28570 0.86000 0.04620 -0.35900
O 	O 	0.50070 0.97330 0.26650 -0.38800
O 	O 	0.52010 0.97357 0.16063 -0.37000
O 	O 	0.85960 0.04870 0.14970 -0.30500
O 	O 	0.01480 0.55040 0.21240 -0.42500
O 	O 	0.14570 0.54620 0.14000 -0.35900
O 	O 	0.47400 0.76650 0.02670 -0.38800
O 	O 	0.49367 0.66063 0.02643 -0.36900
O 	O 	0.90830 0.64970 0.95130 -0.30600
O 	O 	0.27760 0.94960 0.28760 -0.42500
O 	O 	0.33190 0.95380 0.36000 -0.36000
O 	O 	0.76720 0.73350 0.47330 -0.38800
O 	O 	0.68073 0.83937 0.47357 -0.36900
O 	O 	0.00930 0.85030 0.54870 -0.30800
