data_crystal

_cell_length_a 16.26680
_cell_length_b 16.26680
_cell_length_c 24.01600
_cell_angle_alpha 91.31360
_cell_angle_beta  91.31360
_cell_angle_gamma 107.35300

_symmetry_space_group_name_	'P 1'
_symmetry_space_group_name_H-M	'P 1'

loop_
_symmetry_equiv_pos_as_xyz
  x,y,z

loop_
_atom_site_label
_atom_site_type_symbol
_atom_site_fract_x
_atom_site_fract_y
_atom_site_fract_z
_atom_site_charge
Na	Na	0.93288 0.07430 0.00995 0.59500
Na	Na	0.92570 0.06712 0.49005 0.59600
Na	Na	0.06712 0.92570 0.99005 0.59400
Na	Na	0.07430 0.93288 0.50995 0.59500
H 	H 	0.45950 0.35450 0.84870 0.14700
H 	H 	0.46220 0.49240 0.89540 0.16900
H 	H 	0.77770 0.55070 0.93760 0.06800
H 	H 	0.77100 0.40680 0.90170 0.06400
H 	H 	0.51620 0.13600 0.81810 0.06700
H 	H 	0.37300 0.12260 0.77810 0.07000
H 	H 	0.17590 0.33430 0.76230 0.06700
H 	H 	0.17420 0.46480 0.81500 0.06700
H 	H 	0.38940 0.67940 0.96180 0.06300
H 	H 	0.54070 0.70390 0.98910 0.07100
H 	H 	0.66600 0.61860 0.05130 0.11500
H 	H 	0.77120 0.73180 0.09330 0.00900
H 	H 	0.83440 0.83160 0.94460 0.00200
H 	H 	0.72720 0.71980 0.90290 0.10900
H 	H 	0.93420 0.91320 0.12140 0.25100
H 	H 	0.67020 0.22540 0.78550 0.09500
H 	H 	0.76780 0.14760 0.79070 0.02600
H 	H 	0.77830 0.17430 0.95690 0.01400
H 	H 	0.68210 0.25290 0.95210 0.09500
H 	H 	0.91770 0.05810 0.83570 0.23500
H 	H 	0.15020 0.18580 0.80150 0.12000
H 	H 	0.05140 0.09120 0.74200 0.02600
H 	H 	0.23620 0.10240 0.63300 0.01400
H 	H 	0.33440 0.19980 0.69110 0.09700
H 	H 	0.21700 0.54620 0.97290 0.10100
H 	H 	0.13450 0.63710 0.98870 0.00900
H 	H 	0.18320 0.72780 0.83650 0.02000
H 	H 	0.27090 0.64190 0.82210 0.09900
H 	H 	0.05220 0.82760 0.88480 0.22900
H 	H 	0.64550 0.54050 0.65130 0.14700
H 	H 	0.50760 0.53780 0.60460 0.16900
H 	H 	0.44930 0.22230 0.56240 0.06800
H 	H 	0.59320 0.22900 0.59830 0.06400
H 	H 	0.86400 0.48380 0.68190 0.06700
H 	H 	0.87740 0.62700 0.72190 0.07000
H 	H 	0.66570 0.82410 0.73770 0.06700
H 	H 	0.53520 0.82580 0.68500 0.06700
H 	H 	0.32060 0.61060 0.53820 0.06300
H 	H 	0.29610 0.45930 0.51090 0.07200
H 	H 	0.38140 0.33400 0.44870 0.11500
H 	H 	0.26820 0.22880 0.40670 0.00800
H 	H 	0.16840 0.16560 0.55540 0.00100
H 	H 	0.28020 0.27280 0.59710 0.10900
H 	H 	0.08680 0.06580 0.37860 0.25100
H 	H 	0.77460 0.32980 0.71450 0.09500
H 	H 	0.85240 0.23220 0.70930 0.02600
H 	H 	0.82570 0.22170 0.54310 0.01400
H 	H 	0.74710 0.31790 0.54790 0.09500
H 	H 	0.94190 0.08230 0.66430 0.23400
H 	H 	0.81420 0.84980 0.69850 0.12000
H 	H 	0.90880 0.94860 0.75800 0.02600
H 	H 	0.89760 0.76380 0.86700 0.01400
H 	H 	0.80020 0.66560 0.80890 0.09700
H 	H 	0.45380 0.78300 0.52710 0.10100
H 	H 	0.36290 0.86550 0.51130 0.00900
H 	H 	0.27220 0.81680 0.66350 0.02000
H 	H 	0.35810 0.72910 0.67790 0.09900
H 	H 	0.17240 0.94780 0.61520 0.22900
H 	H 	0.54050 0.64550 0.15130 0.14700
H 	H 	0.53780 0.50760 0.10460 0.16900
H 	H 	0.22230 0.44930 0.06240 0.06800
H 	H 	0.22900 0.59320 0.09830 0.06400
H 	H 	0.48380 0.86400 0.18190 0.06700
H 	H 	0.62700 0.87740 0.22190 0.07000
H 	H 	0.82410 0.66570 0.23770 0.06700
H 	H 	0.82580 0.53520 0.18500 0.06700
H 	H 	0.61060 0.32060 0.03820 0.06300
H 	H 	0.45930 0.29610 0.01090 0.07100
H 	H 	0.33400 0.38140 0.94870 0.11500
H 	H 	0.22880 0.26820 0.90670 0.00900
H 	H 	0.16560 0.16840 0.05540 0.00200
H 	H 	0.27280 0.28020 0.09710 0.10900
H 	H 	0.06580 0.08680 0.87860 0.25100
H 	H 	0.32980 0.77460 0.21450 0.09500
H 	H 	0.23220 0.85240 0.20930 0.02600
H 	H 	0.22170 0.82570 0.04310 0.01400
H 	H 	0.31790 0.74710 0.04790 0.09500
H 	H 	0.08230 0.94190 0.16430 0.23500
H 	H 	0.84980 0.81420 0.19850 0.12000
H 	H 	0.94860 0.90880 0.25800 0.02600
H 	H 	0.76380 0.89760 0.36700 0.01400
H 	H 	0.66560 0.80020 0.30890 0.09700
H 	H 	0.78300 0.45380 0.02710 0.10100
H 	H 	0.86550 0.36290 0.01130 0.00900
H 	H 	0.81680 0.27220 0.16350 0.02000
H 	H 	0.72910 0.35810 0.17790 0.09900
H 	H 	0.94780 0.17240 0.11520 0.22900
H 	H 	0.35450 0.45950 0.34870 0.14700
H 	H 	0.49240 0.46220 0.39540 0.16900
H 	H 	0.55070 0.77770 0.43760 0.06800
H 	H 	0.40680 0.77100 0.40170 0.06400
H 	H 	0.13600 0.51620 0.31810 0.06700
H 	H 	0.12260 0.37300 0.27810 0.07000
H 	H 	0.33430 0.17590 0.26230 0.06700
H 	H 	0.46480 0.17420 0.31500 0.06700
H 	H 	0.67940 0.38940 0.46180 0.06300
H 	H 	0.70390 0.54070 0.48910 0.07200
H 	H 	0.61860 0.66600 0.55130 0.11500
H 	H 	0.73180 0.77120 0.59330 0.00800
H 	H 	0.83160 0.83440 0.44460 0.00100
H 	H 	0.71980 0.72720 0.40290 0.10900
H 	H 	0.91320 0.93420 0.62140 0.25100
H 	H 	0.22540 0.67020 0.28550 0.09500
H 	H 	0.14760 0.76780 0.29070 0.02600
H 	H 	0.17430 0.77830 0.45690 0.01400
H 	H 	0.25290 0.68210 0.45210 0.09500
H 	H 	0.05810 0.91770 0.33570 0.23400
H 	H 	0.18580 0.15020 0.30150 0.12000
H 	H 	0.09120 0.05140 0.24200 0.02600
H 	H 	0.10240 0.23620 0.13300 0.01400
H 	H 	0.19980 0.33440 0.19110 0.09700
H 	H 	0.54620 0.21700 0.47290 0.10100
H 	H 	0.63710 0.13450 0.48870 0.00900
H 	H 	0.72780 0.18320 0.33650 0.02000
H 	H 	0.64190 0.27090 0.32210 0.09900
H 	H 	0.82760 0.05220 0.38480 0.22900
C 	C 	0.53383 0.58903 0.94353 0.15200
C 	C 	0.61729 0.58295 0.94501 -0.14900
C 	C 	0.64217 0.51435 0.92337 0.12200
C 	C 	0.72832 0.50798 0.92499 -0.09200
C 	C 	0.72481 0.42893 0.90492 -0.08000
C 	C 	0.63542 0.38488 0.88931 0.11100
C 	C 	0.60435 0.30083 0.86679 -0.13100
C 	C 	0.52211 0.26397 0.84308 0.13700
C 	C 	0.48857 0.17843 0.81859 -0.08900
C 	C 	0.40942 0.17128 0.79648 -0.08600
C 	C 	0.39097 0.25121 0.80614 0.13100
C 	C 	0.31571 0.27003 0.78938 -0.13000
C 	C 	0.29478 0.34456 0.80539 0.11200
C 	C 	0.21752 0.36522 0.78835 -0.08000
C 	C 	0.21665 0.43731 0.81704 -0.08200
C 	C 	0.29449 0.46345 0.85155 0.11300
C 	C 	0.31718 0.53478 0.88908 -0.13900
C 	C 	0.39593 0.56645 0.91857 0.13700
C 	C 	0.42314 0.64446 0.95213 -0.08100
C 	C 	0.50670 0.65792 0.96719 -0.09600
C 	C 	0.68593 0.65659 0.97207 0.16300
C 	C 	0.69993 0.66151 0.02953 -0.20900
C 	C 	0.76329 0.72909 0.05474 0.12800
C 	C 	0.81503 0.79279 0.02308 -0.18800
C 	C 	0.80055 0.78863 0.96639 0.12000
C 	C 	0.73631 0.72125 0.94131 -0.21000
C 	C 	0.88276 0.86740 0.04847 0.41100
C 	C 	0.66495 0.24705 0.86839 0.13300
C 	C 	0.69177 0.21533 0.82008 -0.17600
C 	C 	0.75044 0.16888 0.82320 0.08700
C 	C 	0.78375 0.15369 0.87436 -0.14700
C 	C 	0.75708 0.18482 0.92243 0.08700
C 	C 	0.69891 0.23147 0.91941 -0.17400
C 	C 	0.84807 0.10535 0.87910 0.37900
C 	C 	0.25294 0.20536 0.75225 0.14200
C 	C 	0.16762 0.17036 0.76725 -0.18200
C 	C 	0.10845 0.11281 0.73169 0.09600
C 	C 	0.13296 0.08730 0.68143 -0.14500
C 	C 	0.21856 0.11996 0.66659 0.08800
C 	C 	0.27751 0.17831 0.70160 -0.18000
C 	C 	0.06925 0.02333 0.64311 0.35400
C 	C 	0.25540 0.58574 0.89656 0.14400
C 	C 	0.21194 0.58408 0.94553 -0.18800
C 	C 	0.16109 0.63763 0.95473 0.09600
C 	C 	0.14987 0.69097 0.91424 -0.15400
C 	C 	0.19089 0.69195 0.86443 0.09500
C 	C 	0.24335 0.64015 0.85576 -0.18600
C 	C 	0.09739 0.75049 0.92426 0.36700
C 	C 	0.41097 0.46617 0.55647 0.15200
C 	C 	0.41705 0.38271 0.55499 -0.15000
C 	C 	0.48565 0.35783 0.57663 0.12300
C 	C 	0.49202 0.27168 0.57501 -0.09300
C 	C 	0.57107 0.27519 0.59508 -0.08000
C 	C 	0.61512 0.36458 0.61069 0.11100
C 	C 	0.69917 0.39565 0.63321 -0.13100
C 	C 	0.73603 0.47789 0.65692 0.13600
C 	C 	0.82157 0.51143 0.68141 -0.08900
C 	C 	0.82872 0.59058 0.70352 -0.08600
C 	C 	0.74879 0.60903 0.69386 0.13100
C 	C 	0.72997 0.68429 0.71062 -0.13000
C 	C 	0.65544 0.70522 0.69461 0.11200
C 	C 	0.63478 0.78248 0.71165 -0.08000
C 	C 	0.56269 0.78335 0.68296 -0.08200
C 	C 	0.53655 0.70551 0.64845 0.11300
C 	C 	0.46522 0.68282 0.61092 -0.13900
C 	C 	0.43355 0.60407 0.58143 0.13600
C 	C 	0.35554 0.57686 0.54787 -0.08100
C 	C 	0.34208 0.49330 0.53281 -0.09600
C 	C 	0.34341 0.31407 0.52793 0.16500
C 	C 	0.33849 0.30007 0.47047 -0.21200
C 	C 	0.27091 0.23671 0.44526 0.13000
C 	C 	0.20721 0.18497 0.47692 -0.19100
C 	C 	0.21137 0.19945 0.53361 0.12400
C 	C 	0.27875 0.26369 0.55869 -0.21200
C 	C 	0.13260 0.11724 0.45153 0.41200
C 	C 	0.75295 0.33505 0.63161 0.13300
C 	C 	0.78467 0.30823 0.67992 -0.17600
C 	C 	0.83112 0.24956 0.67680 0.08700
C 	C 	0.84631 0.21625 0.62564 -0.14800
C 	C 	0.81518 0.24292 0.57757 0.08800
C 	C 	0.76853 0.30109 0.58059 -0.17500
C 	C 	0.89465 0.15193 0.62090 0.38000
C 	C 	0.79464 0.74706 0.74775 0.14100
C 	C 	0.82964 0.83238 0.73275 -0.18200
C 	C 	0.88719 0.89155 0.76831 0.09500
C 	C 	0.91270 0.86704 0.81857 -0.14500
C 	C 	0.88004 0.78144 0.83341 0.08700
C 	C 	0.82169 0.72249 0.79840 -0.18000
C 	C 	0.97667 0.93075 0.85689 0.35300
C 	C 	0.41426 0.74460 0.60344 0.14400
C 	C 	0.41592 0.78806 0.55447 -0.18800
C 	C 	0.36237 0.83891 0.54527 0.09600
C 	C 	0.30903 0.85013 0.58576 -0.15400
C 	C 	0.30805 0.80911 0.63557 0.09500
C 	C 	0.35985 0.75665 0.64424 -0.18500
C 	C 	0.24951 0.90261 0.57574 0.36700
C 	C 	0.46617 0.41097 0.05647 0.15200
C 	C 	0.38271 0.41705 0.05499 -0.14900
C 	C 	0.35783 0.48565 0.07663 0.12200
C 	C 	0.27168 0.49202 0.07501 -0.09200
C 	C 	0.27519 0.57107 0.09508 -0.08000
C 	C 	0.36458 0.61512 0.11069 0.11100
C 	C 	0.39565 0.69917 0.13321 -0.13100
C 	C 	0.47789 0.73603 0.15692 0.13700
C 	C 	0.51143 0.82157 0.18141 -0.08900
C 	C 	0.59058 0.82872 0.20352 -0.08600
C 	C 	0.60903 0.74879 0.19386 0.13100
C 	C 	0.68429 0.72997 0.21062 -0.13000
C 	C 	0.70522 0.65544 0.19461 0.11200
C 	C 	0.78248 0.63478 0.21165 -0.08000
C 	C 	0.78335 0.56269 0.18296 -0.08200
C 	C 	0.70551 0.53655 0.14845 0.11300
C 	C 	0.68282 0.46522 0.11092 -0.13900
C 	C 	0.60407 0.43355 0.08143 0.13700
C 	C 	0.57686 0.35554 0.04787 -0.08100
C 	C 	0.49330 0.34208 0.03281 -0.09600
C 	C 	0.31407 0.34341 0.02793 0.16300
C 	C 	0.30007 0.33849 0.97047 -0.20900
C 	C 	0.23671 0.27091 0.94526 0.12800
C 	C 	0.18497 0.20721 0.97692 -0.18800
C 	C 	0.19945 0.21137 0.03361 0.12000
C 	C 	0.26369 0.27875 0.05869 -0.21000
C 	C 	0.11724 0.13260 0.95153 0.41100
C 	C 	0.33505 0.75295 0.13161 0.13300
C 	C 	0.30823 0.78467 0.17992 -0.17600
C 	C 	0.24956 0.83112 0.17680 0.08700
C 	C 	0.21625 0.84631 0.12564 -0.14700
C 	C 	0.24292 0.81518 0.07757 0.08700
C 	C 	0.30109 0.76853 0.08059 -0.17400
C 	C 	0.15193 0.89465 0.12090 0.37900
C 	C 	0.74706 0.79464 0.24775 0.14200
C 	C 	0.83238 0.82964 0.23275 -0.18200
C 	C 	0.89155 0.88719 0.26831 0.09600
C 	C 	0.86704 0.91270 0.31857 -0.14500
C 	C 	0.78144 0.88004 0.33341 0.08800
C 	C 	0.72249 0.82169 0.29840 -0.18000
C 	C 	0.93075 0.97667 0.35689 0.35400
C 	C 	0.74460 0.41426 0.10344 0.14400
C 	C 	0.78806 0.41592 0.05447 -0.18800
C 	C 	0.83891 0.36237 0.04527 0.09600
C 	C 	0.85013 0.30903 0.08576 -0.15400
C 	C 	0.80911 0.30805 0.13557 0.09500
C 	C 	0.75665 0.35985 0.14424 -0.18600
C 	C 	0.90261 0.24951 0.07574 0.36700
C 	C 	0.58903 0.53383 0.44353 0.15200
C 	C 	0.58295 0.61729 0.44501 -0.15000
C 	C 	0.51435 0.64217 0.42337 0.12300
C 	C 	0.50798 0.72832 0.42499 -0.09300
C 	C 	0.42893 0.72481 0.40492 -0.08000
C 	C 	0.38488 0.63542 0.38931 0.11100
C 	C 	0.30083 0.60435 0.36679 -0.13100
C 	C 	0.26397 0.52211 0.34308 0.13600
C 	C 	0.17843 0.48857 0.31859 -0.08900
C 	C 	0.17128 0.40942 0.29648 -0.08600
C 	C 	0.25121 0.39097 0.30614 0.13100
C 	C 	0.27003 0.31571 0.28938 -0.13000
C 	C 	0.34456 0.29478 0.30539 0.11200
C 	C 	0.36522 0.21752 0.28835 -0.08000
C 	C 	0.43731 0.21665 0.31704 -0.08200
C 	C 	0.46345 0.29449 0.35155 0.11300
C 	C 	0.53478 0.31718 0.38908 -0.13900
C 	C 	0.56645 0.39593 0.41857 0.13600
C 	C 	0.64446 0.42314 0.45213 -0.08100
C 	C 	0.65792 0.50670 0.46719 -0.09600
C 	C 	0.65659 0.68593 0.47207 0.16500
C 	C 	0.66151 0.69993 0.52953 -0.21200
C 	C 	0.72909 0.76329 0.55474 0.13000
C 	C 	0.79279 0.81503 0.52308 -0.19100
C 	C 	0.78863 0.80055 0.46639 0.12400
C 	C 	0.72125 0.73631 0.44131 -0.21200
C 	C 	0.86740 0.88276 0.54847 0.41200
C 	C 	0.24705 0.66495 0.36839 0.13300
C 	C 	0.21533 0.69177 0.32008 -0.17600
C 	C 	0.16888 0.75044 0.32320 0.08700
C 	C 	0.15369 0.78375 0.37436 -0.14800
C 	C 	0.18482 0.75708 0.42243 0.08800
C 	C 	0.23147 0.69891 0.41941 -0.17500
C 	C 	0.10535 0.84807 0.37910 0.38000
C 	C 	0.20536 0.25294 0.25225 0.14100
C 	C 	0.17036 0.16762 0.26725 -0.18200
C 	C 	0.11281 0.10845 0.23169 0.09500
C 	C 	0.08730 0.13296 0.18143 -0.14500
C 	C 	0.11996 0.21856 0.16659 0.08700
C 	C 	0.17831 0.27751 0.20160 -0.18000
C 	C 	0.02333 0.06925 0.14311 0.35300
C 	C 	0.58574 0.25540 0.39656 0.14400
C 	C 	0.58408 0.21194 0.44553 -0.18800
C 	C 	0.63763 0.16109 0.45473 0.09600
C 	C 	0.69097 0.14987 0.41424 -0.15400
C 	C 	0.69195 0.19089 0.36443 0.09500
C 	C 	0.64015 0.24335 0.35576 -0.18500
C 	C 	0.75049 0.09739 0.42426 0.36700
N 	N 	0.58672 0.43962 0.89967 -0.14400
N 	N 	0.46085 0.30495 0.83561 -0.22800
N 	N 	0.34147 0.40739 0.84312 -0.14900
N 	N 	0.46398 0.53378 0.91556 -0.25600
N 	N 	0.56038 0.41328 0.60033 -0.14400
N 	N 	0.69505 0.53915 0.66439 -0.22800
N 	N 	0.59261 0.65853 0.65688 -0.14900
N 	N 	0.46622 0.53602 0.58444 -0.25600
N 	N 	0.41328 0.56038 0.10033 -0.14400
N 	N 	0.53915 0.69505 0.16439 -0.22800
N 	N 	0.65853 0.59261 0.15688 -0.14900
N 	N 	0.53602 0.46622 0.08444 -0.25600
N 	N 	0.43962 0.58672 0.39967 -0.14400
N 	N 	0.30495 0.46085 0.33561 -0.22800
N 	N 	0.40739 0.34147 0.34312 -0.14900
N 	N 	0.53378 0.46398 0.41556 -0.25600
O 	O 	0.92746 0.92470 0.02006 -0.37700
O 	O 	0.89185 0.86767 0.10231 -0.41900
O 	O 	0.87439 0.08549 0.82991 -0.37900
O 	O 	0.87481 0.08607 0.92311 -0.33700
O 	O 	0.98991 0.00595 0.65391 -0.30800
O 	O 	0.09670 0.98944 0.60305 -0.34000
O 	O 	0.07678 0.77050 0.96957 -0.31500
O 	O 	0.07718 0.78280 0.87763 -0.38900
O 	O 	0.07530 0.07254 0.47994 -0.37800
O 	O 	0.13233 0.10815 0.39769 -0.41900
O 	O 	0.91451 0.12561 0.67009 -0.37900
O 	O 	0.91393 0.12519 0.57689 -0.33800
O 	O 	0.99405 0.01009 0.84609 -0.30700
O 	O 	0.01056 0.90330 0.89695 -0.34000
O 	O 	0.22950 0.92322 0.53043 -0.31500
O 	O 	0.21720 0.92282 0.62237 -0.38900
O 	O 	0.07254 0.07530 0.97994 -0.37700
O 	O 	0.10815 0.13233 0.89769 -0.41900
O 	O 	0.12561 0.91451 0.17009 -0.37900
O 	O 	0.12519 0.91393 0.07689 -0.33700
O 	O 	0.01009 0.99405 0.34609 -0.30800
O 	O 	0.90330 0.01056 0.39695 -0.34000
O 	O 	0.92322 0.22950 0.03043 -0.31500
O 	O 	0.92282 0.21720 0.12237 -0.38900
O 	O 	0.92470 0.92746 0.52006 -0.37800
O 	O 	0.86767 0.89185 0.60231 -0.41900
O 	O 	0.08549 0.87439 0.32991 -0.37900
O 	O 	0.08607 0.87481 0.42311 -0.33800
O 	O 	0.00595 0.98991 0.15391 -0.30700
O 	O 	0.98944 0.09670 0.10305 -0.34000
O 	O 	0.77050 0.07678 0.46957 -0.31500
O 	O 	0.78280 0.07718 0.37763 -0.38900
