data_crystal

_cell_length_a 32.24900
_cell_length_b 7.77000
_cell_length_c 30.64100
_cell_angle_alpha 90.00000
_cell_angle_beta  116.03000
_cell_angle_gamma 90.00000

_symmetry_space_group_name_	'P 1'
_symmetry_space_group_name_H-M	'P 1'

loop_
_symmetry_equiv_pos_as_xyz
  x,y,z

loop_
_atom_site_label
_atom_site_type_symbol
_atom_site_fract_x
_atom_site_fract_y
_atom_site_fract_z
_atom_site_charge
Cu	Cu	0.24276 0.27341 0.37707 0.86700
Br	Br	0.26295 0.96862 0.38720 -0.39800
N 	N 	0.27374 0.38540 0.44299 -0.22000
C 	C 	0.29371 0.29650 0.48455 0.04300
H 	H 	0.29189 0.17444 0.48305 0.01800
C 	C 	0.31695 0.37390 0.52970 -0.06200
H 	H 	0.33020 0.30622 0.55840 0.06500
C 	C 	0.32047 0.55220 0.53210 -0.02200
C 	C 	0.30067 0.64490 0.48929 -0.06300
H 	H 	0.30304 0.76684 0.48967 0.08300
C 	C 	0.27750 0.55830 0.44617 0.04700
H 	H 	0.26339 0.62365 0.41710 0.02400
C 	C 	0.34395 0.65110 0.57838 0.30300
O 	O 	0.36293 0.54690 0.61749 -0.32700
O 	O 	0.34583 0.80450 0.58055 -0.26000
C 	C 	0.38540 0.62920 0.66291 0.41800
C 	C 	0.35927 0.70400 0.68357 -0.42800
H 	H 	0.32651 0.70602 0.66727 0.20500
C 	C 	0.38356 0.77630 0.72959 0.41000
C 	C 	0.43111 0.77170 0.75425 -0.42500
H 	H 	0.44693 0.82071 0.78570 0.20600
C 	C 	0.45495 0.69310 0.73149 0.42100
C 	C 	0.43305 0.62080 0.68564 -0.42800
H 	H 	0.44996 0.56798 0.67052 0.20900
O 	O 	0.36005 0.86920 0.75133 -0.32400
C 	C 	0.33299 0.77980 0.76699 0.29400
O 	O 	0.32695 0.62770 0.76244 -0.25800
C 	C 	0.31127 0.89680 0.78981 -0.01100
C 	C 	0.27944 0.82590 0.80392 -0.07200
H 	H 	0.27178 0.70717 0.79910 0.08300
C 	C 	0.25919 0.93320 0.82521 0.05800
H 	H 	0.23711 0.88483 0.83436 0.00700
N 	N 	0.26891 0.10130 0.83365 -0.21500
C 	C 	0.29947 0.16810 0.81961 0.04800
H 	H 	0.30658 0.28716 0.82498 0.01900
C 	C 	0.32127 0.07120 0.79753 -0.07200
H 	H 	0.34261 0.12334 0.78792 0.07600
O 	O 	0.50296 0.68210 0.75847 -0.31800
C 	C 	0.52973 0.75310 0.73937 0.29700
O 	O 	0.51531 0.82530 0.70141 -0.24400
C 	C 	0.57977 0.73080 0.77347 -0.01000
C 	C 	0.59466 0.63820 0.81633 -0.06200
H 	H 	0.57318 0.58167 0.82492 0.08800
C 	C 	0.64182 0.62990 0.84653 0.05100
H 	H 	0.65209 0.56461 0.87562 0.02200
N 	N 	0.67360 0.71050 0.83629 -0.21700
C 	C 	0.65845 0.80030 0.79464 0.05200
H 	H 	0.68055 0.85784 0.78719 0.01600
C 	C 	0.61223 0.81330 0.76199 -0.06700
H 	H 	0.60290 0.87648 0.73265 0.08000
Cu	Cu	0.74214 0.72015 0.88170 0.86600
Br	Br	0.76259 0.02415 0.89332 -0.40000
N 	N 	0.76526 0.60780 0.94804 -0.22100
C 	C 	0.76102 0.43690 0.95153 0.04900
H 	H 	0.74220 0.37473 0.92293 0.01700
C 	C 	0.78253 0.34750 0.99434 -0.06500
H 	H 	0.77925 0.22617 0.99493 0.08100
C 	C 	0.80908 0.43660 0.03669 -0.02100
C 	C 	0.81330 0.61350 0.03390 -0.06600
H 	H 	0.83118 0.67864 0.06221 0.06500
C 	C 	0.79098 0.69360 0.98904 0.04000
H 	H 	0.79406 0.81470 0.98733 0.01800
C 	C 	0.83144 0.33570 0.08239 0.30000
O 	O 	0.86066 0.43440 0.12015 -0.32400
O 	O 	0.82546 0.18470 0.08543 -0.26300
C 	C 	0.88393 0.35290 0.16510 0.40900
C 	C 	0.85934 0.27890 0.18788 -0.41900
H 	H 	0.82656 0.27724 0.17304 0.20300
C 	C 	0.88522 0.20720 0.23363 0.40400
C 	C 	0.93299 0.21090 0.25660 -0.41600
H 	H 	0.94983 0.16256 0.28799 0.20300
C 	C 	0.95521 0.28790 0.23194 0.41100
C 	C 	0.93181 0.36040 0.18593 -0.41400
H 	H 	0.94778 0.41224 0.16963 0.20400
O 	O 	0.86276 0.11700 0.25698 -0.32300
C 	C 	0.84046 0.21060 0.27727 0.29400
O 	O 	0.83845 0.36450 0.27604 -0.25700
C 	C 	0.81876 0.09800 0.30119 -0.01000
C 	C 	0.79154 0.17730 0.31998 -0.07400
H 	H 	0.78752 0.29863 0.31823 0.08600
C 	C 	0.77039 0.07500 0.34136 0.05900
H 	H 	0.75150 0.12969 0.35385 0.00900
N 	N 	0.77493 0.90410 0.34547 -0.21900
C 	C 	0.80065 0.82910 0.32666 0.05100
H 	H 	0.80377 0.70740 0.32861 0.01800
C 	C 	0.82324 0.92120 0.30419 -0.07300
H 	H 	0.84131 0.86324 0.29125 0.07700
O 	O 	0.00331 0.30150 0.25708 -0.31500
C 	C 	0.02953 0.22660 0.23770 0.29500
O 	O 	0.01465 0.15100 0.20024 -0.24300
C 	C 	0.07972 0.25100 0.27130 -0.00700
C 	C 	0.11206 0.17280 0.25911 -0.06900
H 	H 	0.10261 0.11065 0.22959 0.08400
C 	C 	0.15849 0.18790 0.29119 0.05400
H 	H 	0.18059 0.13301 0.28321 0.01400
N 	N 	0.17364 0.27700 0.33313 -0.21600
C 	C 	0.14181 0.35320 0.34401 0.05200
H 	H 	0.15209 0.41779 0.37322 0.02200
C 	C 	0.09472 0.34180 0.31454 -0.06500
H 	H 	0.07324 0.39495 0.32377 0.08700
Cu	Cu	0.24276 0.22659 0.87707 0.86700
Br	Br	0.26295 0.53138 0.88720 -0.40400
N 	N 	0.27374 0.11460 0.94299 -0.22400
C 	C 	0.29371 0.20350 0.98455 0.04600
H 	H 	0.29189 0.32556 0.98305 0.01700
C 	C 	0.31695 0.12610 0.02970 -0.07300
H 	H 	0.33020 0.19378 0.05840 0.06700
C 	C 	0.32047 0.94780 0.03210 -0.01300
C 	C 	0.30067 0.85510 0.98929 -0.07100
H 	H 	0.30304 0.73316 0.98967 0.08400
C 	C 	0.27750 0.94170 0.94617 0.05500
H 	H 	0.26339 0.87635 0.91710 0.02200
C 	C 	0.34395 0.84890 0.07838 0.30000
O 	O 	0.36293 0.95310 0.11749 -0.32500
O 	O 	0.34583 0.69550 0.08055 -0.26000
C 	C 	0.38540 0.87080 0.16291 0.41800
C 	C 	0.35927 0.79600 0.18357 -0.42700
H 	H 	0.32651 0.79398 0.16727 0.20500
C 	C 	0.38356 0.72370 0.22959 0.41100
C 	C 	0.43111 0.72830 0.25425 -0.42400
H 	H 	0.44693 0.67929 0.28570 0.20600
C 	C 	0.45495 0.80690 0.23149 0.42100
C 	C 	0.43305 0.87920 0.18564 -0.42700
H 	H 	0.44996 0.93202 0.17052 0.21000
O 	O 	0.36005 0.63080 0.25133 -0.32500
C 	C 	0.33299 0.72020 0.26699 0.29500
O 	O 	0.32695 0.87230 0.26244 -0.25600
C 	C 	0.31127 0.60320 0.28981 -0.01600
C 	C 	0.27944 0.67410 0.30392 -0.06900
H 	H 	0.27178 0.79283 0.29910 0.08300
C 	C 	0.25919 0.56680 0.32521 0.05300
H 	H 	0.23711 0.61517 0.33436 0.00800
N 	N 	0.26891 0.39870 0.33365 -0.21300
C 	C 	0.29947 0.33190 0.31961 0.04600
H 	H 	0.30658 0.21284 0.32498 0.01800
C 	C 	0.32127 0.42880 0.29753 -0.06700
H 	H 	0.34261 0.37666 0.28792 0.07500
O 	O 	0.50296 0.81790 0.25847 -0.31700
C 	C 	0.52973 0.74690 0.23937 0.29700
O 	O 	0.51531 0.67470 0.20141 -0.24400
C 	C 	0.57977 0.76920 0.27347 -0.00900
C 	C 	0.59466 0.86180 0.31633 -0.06200
H 	H 	0.57318 0.91833 0.32492 0.08800
C 	C 	0.64182 0.87010 0.34653 0.05100
H 	H 	0.65209 0.93539 0.37562 0.02200
N 	N 	0.67360 0.78950 0.33629 -0.21700
C 	C 	0.65845 0.69970 0.29464 0.05300
H 	H 	0.68055 0.64216 0.28719 0.01800
C 	C 	0.61223 0.68670 0.26199 -0.06700
H 	H 	0.60290 0.62352 0.23265 0.08100
Cu	Cu	0.74214 0.77985 0.38170 0.86700
Br	Br	0.76259 0.47585 0.39332 -0.40500
N 	N 	0.76526 0.89220 0.44804 -0.22400
C 	C 	0.76102 0.06310 0.45153 0.05700
H 	H 	0.74220 0.12527 0.42293 0.01600
C 	C 	0.78253 0.15250 0.49434 -0.07100
H 	H 	0.77925 0.27383 0.49493 0.08200
C 	C 	0.80908 0.06340 0.53669 -0.01200
C 	C 	0.81330 0.88650 0.53390 -0.07600
H 	H 	0.83118 0.82136 0.56221 0.06800
C 	C 	0.79098 0.80640 0.48904 0.04300
H 	H 	0.79406 0.68530 0.48733 0.01800
C 	C 	0.83144 0.16430 0.58239 0.29700
O 	O 	0.86066 0.06560 0.62015 -0.32200
O 	O 	0.82546 0.31530 0.58543 -0.26300
C 	C 	0.88393 0.14710 0.66510 0.40900
C 	C 	0.85934 0.22110 0.68788 -0.41800
H 	H 	0.82656 0.22276 0.67304 0.20300
C 	C 	0.88522 0.29280 0.73363 0.40500
C 	C 	0.93299 0.28910 0.75660 -0.41600
H 	H 	0.94983 0.33744 0.78799 0.20400
C 	C 	0.95521 0.21210 0.73194 0.41200
C 	C 	0.93181 0.13960 0.68593 -0.41400
H 	H 	0.94778 0.08776 0.66963 0.20500
O 	O 	0.86276 0.38300 0.75698 -0.32400
C 	C 	0.84046 0.28940 0.77727 0.29500
O 	O 	0.83845 0.13550 0.77604 -0.25500
C 	C 	0.81876 0.40200 0.80119 -0.01500
C 	C 	0.79154 0.32270 0.81998 -0.07100
H 	H 	0.78752 0.20137 0.81823 0.08500
C 	C 	0.77039 0.42500 0.84136 0.05400
H 	H 	0.75150 0.37031 0.85385 0.01000
N 	N 	0.77493 0.59590 0.84547 -0.21700
C 	C 	0.80065 0.67090 0.82666 0.04900
H 	H 	0.80377 0.79260 0.82861 0.01700
C 	C 	0.82324 0.57880 0.80419 -0.06700
H 	H 	0.84131 0.63676 0.79125 0.07500
O 	O 	0.00331 0.19850 0.75708 -0.31400
C 	C 	0.02953 0.27340 0.73770 0.29500
O 	O 	0.01465 0.34900 0.70024 -0.24300
C 	C 	0.07972 0.24900 0.77130 -0.00600
C 	C 	0.11206 0.32720 0.75911 -0.06900
H 	H 	0.10261 0.38935 0.72959 0.08500
C 	C 	0.15849 0.31210 0.79119 0.05400
H 	H 	0.18059 0.36699 0.78321 0.01600
N 	N 	0.17364 0.22300 0.83313 -0.21600
C 	C 	0.14181 0.14680 0.84401 0.05300
H 	H 	0.15209 0.08221 0.87322 0.02100
C 	C 	0.09472 0.15820 0.81454 -0.06500
H 	H 	0.07324 0.10505 0.82377 0.08700
Cu	Cu	0.75724 0.77341 0.12293 0.86700
Br	Br	0.73705 0.46862 0.11280 -0.40400
N 	N 	0.72626 0.88540 0.05701 -0.22400
C 	C 	0.70629 0.79650 0.01545 0.04600
H 	H 	0.70811 0.67444 0.01695 0.01700
C 	C 	0.68305 0.87390 0.97030 -0.07300
H 	H 	0.66980 0.80622 0.94160 0.06700
C 	C 	0.67953 0.05220 0.96790 -0.01300
C 	C 	0.69933 0.14490 0.01071 -0.07100
H 	H 	0.69696 0.26684 0.01033 0.08400
C 	C 	0.72250 0.05830 0.05383 0.05500
H 	H 	0.73661 0.12365 0.08290 0.02200
C 	C 	0.65605 0.15110 0.92162 0.30000
O 	O 	0.63707 0.04690 0.88251 -0.32500
O 	O 	0.65417 0.30450 0.91945 -0.26000
C 	C 	0.61460 0.12920 0.83709 0.41800
C 	C 	0.64073 0.20400 0.81643 -0.42700
H 	H 	0.67349 0.20602 0.83273 0.20500
C 	C 	0.61644 0.27630 0.77041 0.41100
C 	C 	0.56889 0.27170 0.74575 -0.42400
H 	H 	0.55307 0.32071 0.71430 0.20600
C 	C 	0.54505 0.19310 0.76851 0.42100
C 	C 	0.56695 0.12080 0.81436 -0.42700
H 	H 	0.55004 0.06798 0.82948 0.21000
O 	O 	0.63995 0.36920 0.74867 -0.32500
C 	C 	0.66701 0.27980 0.73301 0.29500
O 	O 	0.67305 0.12770 0.73756 -0.25600
C 	C 	0.68873 0.39680 0.71019 -0.01600
C 	C 	0.72056 0.32590 0.69608 -0.06900
H 	H 	0.72822 0.20717 0.70090 0.08300
C 	C 	0.74081 0.43320 0.67479 0.05300
H 	H 	0.76289 0.38483 0.66564 0.00800
N 	N 	0.73109 0.60130 0.66635 -0.21300
C 	C 	0.70053 0.66810 0.68039 0.04600
H 	H 	0.69342 0.78716 0.67502 0.01800
C 	C 	0.67873 0.57120 0.70247 -0.06700
H 	H 	0.65739 0.62334 0.71208 0.07500
O 	O 	0.49704 0.18210 0.74153 -0.31700
C 	C 	0.47027 0.25310 0.76063 0.29700
O 	O 	0.48469 0.32530 0.79859 -0.24400
C 	C 	0.42023 0.23080 0.72653 -0.00900
C 	C 	0.40534 0.13820 0.68367 -0.06200
H 	H 	0.42682 0.08167 0.67508 0.08800
C 	C 	0.35818 0.12990 0.65347 0.05100
H 	H 	0.34791 0.06461 0.62438 0.02200
N 	N 	0.32640 0.21050 0.66371 -0.21700
C 	C 	0.34155 0.30030 0.70536 0.05300
H 	H 	0.31945 0.35784 0.71281 0.01800
C 	C 	0.38777 0.31330 0.73801 -0.06700
H 	H 	0.39710 0.37648 0.76735 0.08100
Cu	Cu	0.25786 0.22015 0.61830 0.86700
Br	Br	0.23741 0.52415 0.60668 -0.40500
N 	N 	0.23474 0.10780 0.55196 -0.22400
C 	C 	0.23898 0.93690 0.54847 0.05700
H 	H 	0.25780 0.87473 0.57707 0.01600
C 	C 	0.21747 0.84750 0.50566 -0.07100
H 	H 	0.22075 0.72617 0.50507 0.08200
C 	C 	0.19092 0.93660 0.46331 -0.01200
C 	C 	0.18670 0.11350 0.46610 -0.07600
H 	H 	0.16882 0.17864 0.43779 0.06800
C 	C 	0.20902 0.19360 0.51096 0.04300
H 	H 	0.20594 0.31470 0.51267 0.01800
C 	C 	0.16856 0.83570 0.41761 0.29700
O 	O 	0.13934 0.93440 0.37985 -0.32200
O 	O 	0.17454 0.68470 0.41457 -0.26300
C 	C 	0.11607 0.85290 0.33490 0.40900
C 	C 	0.14066 0.77890 0.31212 -0.41800
H 	H 	0.17344 0.77724 0.32696 0.20300
C 	C 	0.11478 0.70720 0.26637 0.40500
C 	C 	0.06701 0.71090 0.24340 -0.41600
H 	H 	0.05017 0.66256 0.21201 0.20400
C 	C 	0.04479 0.78790 0.26806 0.41200
C 	C 	0.06819 0.86040 0.31407 -0.41400
H 	H 	0.05222 0.91224 0.33037 0.20500
O 	O 	0.13724 0.61700 0.24302 -0.32400
C 	C 	0.15954 0.71060 0.22273 0.29500
O 	O 	0.16155 0.86450 0.22396 -0.25500
C 	C 	0.18124 0.59800 0.19881 -0.01500
C 	C 	0.20846 0.67730 0.18002 -0.07100
H 	H 	0.21248 0.79863 0.18177 0.08500
C 	C 	0.22961 0.57500 0.15864 0.05400
H 	H 	0.24850 0.62969 0.14615 0.01000
N 	N 	0.22507 0.40410 0.15453 -0.21700
C 	C 	0.19935 0.32910 0.17334 0.04900
H 	H 	0.19623 0.20740 0.17139 0.01700
C 	C 	0.17676 0.42120 0.19581 -0.06700
H 	H 	0.15869 0.36324 0.20875 0.07500
O 	O 	0.99669 0.80150 0.24292 -0.31400
C 	C 	0.97047 0.72660 0.26230 0.29500
O 	O 	0.98535 0.65100 0.29976 -0.24300
C 	C 	0.92028 0.75100 0.22870 -0.00600
C 	C 	0.88794 0.67280 0.24089 -0.06900
H 	H 	0.89739 0.61065 0.27041 0.08500
C 	C 	0.84151 0.68790 0.20881 0.05400
H 	H 	0.81941 0.63301 0.21679 0.01600
N 	N 	0.82636 0.77700 0.16687 -0.21600
C 	C 	0.85819 0.85320 0.15599 0.05300
H 	H 	0.84791 0.91779 0.12678 0.02100
C 	C 	0.90528 0.84180 0.18546 -0.06500
H 	H 	0.92676 0.89495 0.17623 0.08700
Cu	Cu	0.75724 0.72659 0.62293 0.86600
Br	Br	0.73705 0.03138 0.61280 -0.39900
N 	N 	0.72626 0.61460 0.55701 -0.22100
C 	C 	0.70629 0.70350 0.51545 0.04200
H 	H 	0.70811 0.82556 0.51695 0.01700
C 	C 	0.68305 0.62610 0.47030 -0.06300
H 	H 	0.66980 0.69378 0.44160 0.06400
C 	C 	0.67953 0.44780 0.46790 -0.02300
C 	C 	0.69933 0.35510 0.51071 -0.06400
H 	H 	0.69696 0.23316 0.51033 0.08200
C 	C 	0.72250 0.44170 0.55383 0.04700
H 	H 	0.73661 0.37635 0.58290 0.02400
C 	C 	0.65605 0.34890 0.42162 0.30300
O 	O 	0.63707 0.45310 0.38251 -0.32700
O 	O 	0.65417 0.19550 0.41945 -0.26000
C 	C 	0.61460 0.37080 0.33709 0.41800
C 	C 	0.64073 0.29600 0.31643 -0.42800
H 	H 	0.67349 0.29398 0.33273 0.20500
C 	C 	0.61644 0.22370 0.27041 0.41000
C 	C 	0.56889 0.22830 0.24575 -0.42500
H 	H 	0.55307 0.17929 0.21430 0.20600
C 	C 	0.54505 0.30690 0.26851 0.42100
C 	C 	0.56695 0.37920 0.31436 -0.42800
H 	H 	0.55004 0.43202 0.32948 0.20900
O 	O 	0.63995 0.13080 0.24867 -0.32400
C 	C 	0.66701 0.22020 0.23301 0.29400
O 	O 	0.67305 0.37230 0.23756 -0.25800
C 	C 	0.68873 0.10320 0.21019 -0.01100
C 	C 	0.72056 0.17410 0.19608 -0.07200
H 	H 	0.72822 0.29283 0.20090 0.08300
C 	C 	0.74081 0.06680 0.17479 0.05800
H 	H 	0.76289 0.11517 0.16564 0.00700
N 	N 	0.73109 0.89870 0.16635 -0.21500
C 	C 	0.70053 0.83190 0.18039 0.04800
H 	H 	0.69342 0.71284 0.17502 0.01900
C 	C 	0.67873 0.92880 0.20247 -0.07200
H 	H 	0.65739 0.87666 0.21208 0.07600
O 	O 	0.49704 0.31790 0.24153 -0.31800
C 	C 	0.47027 0.24690 0.26063 0.29700
O 	O 	0.48469 0.17470 0.29859 -0.24400
C 	C 	0.42023 0.26920 0.22653 -0.01000
C 	C 	0.40534 0.36180 0.18367 -0.06200
H 	H 	0.42682 0.41833 0.17508 0.08800
C 	C 	0.35818 0.37010 0.15347 0.05100
H 	H 	0.34791 0.43539 0.12438 0.02200
N 	N 	0.32640 0.28950 0.16371 -0.21700
C 	C 	0.34155 0.19970 0.20536 0.05200
H 	H 	0.31945 0.14216 0.21281 0.01600
C 	C 	0.38777 0.18670 0.23801 -0.06700
H 	H 	0.39710 0.12352 0.26735 0.08000
Cu	Cu	0.25786 0.27985 0.11830 0.86600
Br	Br	0.23741 0.97585 0.10668 -0.40000
N 	N 	0.23474 0.39220 0.05196 -0.22100
C 	C 	0.23898 0.56310 0.04847 0.04900
H 	H 	0.25780 0.62527 0.07707 0.01700
C 	C 	0.21747 0.65250 0.00566 -0.06500
H 	H 	0.22075 0.77383 0.00507 0.08100
C 	C 	0.19092 0.56340 0.96331 -0.02100
C 	C 	0.18670 0.38650 0.96610 -0.06600
H 	H 	0.16882 0.32136 0.93779 0.06500
C 	C 	0.20902 0.30640 0.01096 0.04000
H 	H 	0.20594 0.18530 0.01267 0.01800
C 	C 	0.16856 0.66430 0.91761 0.30000
O 	O 	0.13934 0.56560 0.87985 -0.32400
O 	O 	0.17454 0.81530 0.91457 -0.26300
C 	C 	0.11607 0.64710 0.83490 0.40900
C 	C 	0.14066 0.72110 0.81212 -0.41900
H 	H 	0.17344 0.72276 0.82696 0.20300
C 	C 	0.11478 0.79280 0.76637 0.40400
C 	C 	0.06701 0.78910 0.74340 -0.41600
H 	H 	0.05017 0.83744 0.71201 0.20300
C 	C 	0.04479 0.71210 0.76806 0.41100
C 	C 	0.06819 0.63960 0.81407 -0.41400
H 	H 	0.05222 0.58776 0.83037 0.20400
O 	O 	0.13724 0.88300 0.74302 -0.32300
C 	C 	0.15954 0.78940 0.72273 0.29400
O 	O 	0.16155 0.63550 0.72396 -0.25700
C 	C 	0.18124 0.90200 0.69881 -0.01000
C 	C 	0.20846 0.82270 0.68002 -0.07400
H 	H 	0.21248 0.70137 0.68177 0.08600
C 	C 	0.22961 0.92500 0.65864 0.05900
H 	H 	0.24850 0.87031 0.64615 0.00900
N 	N 	0.22507 0.09590 0.65453 -0.21900
C 	C 	0.19935 0.17090 0.67334 0.05100
H 	H 	0.19623 0.29260 0.67139 0.01800
C 	C 	0.17676 0.07880 0.69581 -0.07300
H 	H 	0.15869 0.13676 0.70875 0.07700
O 	O 	0.99669 0.69850 0.74292 -0.31500
C 	C 	0.97047 0.77340 0.76230 0.29500
O 	O 	0.98535 0.84900 0.79976 -0.24300
C 	C 	0.92028 0.74900 0.72870 -0.00700
C 	C 	0.88794 0.82720 0.74089 -0.06900
H 	H 	0.89739 0.88935 0.77041 0.08400
C 	C 	0.84151 0.81210 0.70881 0.05400
H 	H 	0.81941 0.86699 0.71679 0.01400
N 	N 	0.82636 0.72300 0.66687 -0.21600
C 	C 	0.85819 0.64680 0.65599 0.05200
H 	H 	0.84791 0.58221 0.62678 0.02200
C 	C 	0.90528 0.65820 0.68546 -0.06500
H 	H 	0.92676 0.60505 0.67623 0.08700
