data_crystal

_cell_length_a 6.88380
_cell_length_b 34.34600
_cell_length_c 13.09160
_cell_angle_alpha 90.00000
_cell_angle_beta  90.00000
_cell_angle_gamma 90.00000

_symmetry_space_group_name_	'P 1'
_symmetry_space_group_name_H-M	'P 1'

loop_
_symmetry_equiv_pos_as_xyz
  x,y,z

loop_
_atom_site_label
_atom_site_type_symbol
_atom_site_fract_x
_atom_site_fract_y
_atom_site_fract_z
_atom_site_charge
Gd	Gd	0.09660 0.51973 0.86860 0.76700
Gd	Gd	0.15010 0.51790 0.87300 0.70100
N 	N 	0.51500 0.69570 0.93760 -0.24500
N 	N 	0.82830 0.69530 0.14350 -0.24700
O 	O 	0.39780 0.55360 0.88400 -0.42600
O 	O 	0.55850 0.57150 0.74290 -0.38900
O 	O 	0.97600 0.57020 0.97030 -0.38000
O 	O 	0.86950 0.55011 0.12340 -0.39500
O 	O 	0.77140 0.50128 0.79090 -0.43700
O 	O 	0.80850 0.49450 0.95550 -0.45800
C 	C 	0.43670 0.66790 0.99400 0.02600
H 	H 	0.38850 0.67420 0.05830 0.01400
C 	C 	0.42370 0.62940 0.96050 -0.05000
H 	H 	0.35990 0.61090 0.00010 0.06300
C 	C 	0.50400 0.61900 0.87040 -0.06000
C 	C 	0.48380 0.57810 0.82980 0.40000
C 	C 	0.59500 0.64720 0.81340 -0.05800
H 	H 	0.65190 0.64090 0.75110 0.05800
C 	C 	0.60000 0.68550 0.85000 0.03000
H 	H 	0.66480 0.70440 0.81210 -0.02900
C 	C 	0.76680 0.66630 0.20300 0.04900
H 	H 	0.70550 0.67280 0.26390 0.00300
C 	C 	0.78800 0.62750 0.18010 -0.07200
H 	H 	0.74410 0.60840 0.22490 0.06900
C 	C 	0.87620 0.61750 0.08900 -0.04100
C 	C 	0.90820 0.57560 0.05800 0.37600
C 	C 	0.94150 0.64690 0.02590 -0.08600
H 	H 	0.00210 0.64100 0.96430 0.07300
C 	C 	0.91540 0.68510 0.05580 0.04500
H 	H 	0.96040 0.70470 0.01290 -0.04300
C 	C 	0.70700 0.48560 0.87540 0.43000
C 	C 	0.51500 0.48430 0.87900 -0.13200
C 	C 	0.57200 0.45760 0.87500 -0.05000
Gd	Gd	0.40340 0.48027 0.36860 0.76900
Gd	Gd	0.34990 0.48210 0.37300 0.70400
N 	N 	0.98500 0.30430 0.43760 -0.24000
N 	N 	0.67170 0.30470 0.64350 -0.24300
O 	O 	0.10220 0.44640 0.38400 -0.42400
O 	O 	0.94150 0.42850 0.24290 -0.38500
O 	O 	0.52400 0.42980 0.47030 -0.38300
O 	O 	0.63050 0.44989 0.62340 -0.39600
O 	O 	0.72860 0.49872 0.29090 -0.43800
O 	O 	0.69150 0.50550 0.45550 -0.46100
C 	C 	0.06330 0.33210 0.49400 0.02300
H 	H 	0.11150 0.32580 0.55830 0.01100
C 	C 	0.07630 0.37060 0.46050 -0.05900
H 	H 	0.14010 0.38910 0.50010 0.06300
C 	C 	0.99600 0.38100 0.37040 -0.04600
C 	C 	0.01620 0.42190 0.32980 0.38900
C 	C 	0.90500 0.35280 0.31340 -0.06400
H 	H 	0.84810 0.35910 0.25110 0.06200
C 	C 	0.90000 0.31450 0.35000 0.03400
H 	H 	0.83520 0.29560 0.31210 -0.02900
C 	C 	0.73320 0.33370 0.70300 0.04700
H 	H 	0.79450 0.32720 0.76390 0.00700
C 	C 	0.71200 0.37250 0.68010 -0.06500
H 	H 	0.75590 0.39160 0.72490 0.06900
C 	C 	0.62380 0.38250 0.58900 -0.04900
C 	C 	0.59180 0.42440 0.55800 0.38500
C 	C 	0.55850 0.35310 0.52590 -0.06500
H 	H 	0.49790 0.35900 0.46430 0.06200
C 	C 	0.58460 0.31490 0.55580 0.03800
H 	H 	0.53960 0.29530 0.51290 -0.03700
C 	C 	0.79300 0.51440 0.37540 0.43100
C 	C 	0.98500 0.51570 0.37900 -0.13100
C 	C 	0.92800 0.54240 0.37500 -0.05400
Gd	Gd	0.90340 0.01973 0.13140 0.76800
Gd	Gd	0.84990 0.01790 0.12700 0.70100
N 	N 	0.48500 0.19570 0.06240 -0.24500
N 	N 	0.17170 0.19530 0.85650 -0.24700
O 	O 	0.60220 0.05360 0.11600 -0.42700
O 	O 	0.44150 0.07150 0.25710 -0.38900
O 	O 	0.02400 0.07020 0.02970 -0.38000
O 	O 	0.13050 0.05011 0.87660 -0.39500
O 	O 	0.22860 0.00128 0.20910 -0.43800
O 	O 	0.19150 0.99450 0.04450 -0.45800
C 	C 	0.56330 0.16790 0.00600 0.02600
H 	H 	0.61150 0.17420 0.94170 0.01400
C 	C 	0.57630 0.12940 0.03950 -0.05100
H 	H 	0.64010 0.11090 0.99990 0.06300
C 	C 	0.49600 0.11900 0.12960 -0.06000
C 	C 	0.51620 0.07810 0.17020 0.40000
C 	C 	0.40500 0.14720 0.18660 -0.05800
H 	H 	0.34810 0.14090 0.24890 0.05800
C 	C 	0.40000 0.18550 0.15000 0.03000
H 	H 	0.33520 0.20440 0.18790 -0.02900
C 	C 	0.23320 0.16630 0.79700 0.04900
H 	H 	0.29450 0.17280 0.73610 0.00300
C 	C 	0.21200 0.12750 0.81990 -0.07200
H 	H 	0.25590 0.10840 0.77510 0.06900
C 	C 	0.12380 0.11750 0.91100 -0.04100
C 	C 	0.09180 0.07560 0.94200 0.37600
C 	C 	0.05850 0.14690 0.97410 -0.08600
H 	H 	0.99790 0.14100 0.03570 0.07300
C 	C 	0.08460 0.18510 0.94420 0.04500
H 	H 	0.03960 0.20470 0.98710 -0.04300
C 	C 	0.29300 0.98560 0.12460 0.43000
C 	C 	0.48500 0.98430 0.12100 -0.13200
C 	C 	0.42800 0.95760 0.12500 -0.05000
Gd	Gd	0.59660 0.98027 0.63140 0.76900
Gd	Gd	0.65010 0.98210 0.62700 0.70400
N 	N 	0.01500 0.80430 0.56240 -0.24000
N 	N 	0.32830 0.80470 0.35650 -0.24300
O 	O 	0.89780 0.94640 0.61600 -0.42400
O 	O 	0.05850 0.92850 0.75710 -0.38500
O 	O 	0.47600 0.92980 0.52970 -0.38300
O 	O 	0.36950 0.94989 0.37660 -0.39600
O 	O 	0.27140 0.99872 0.70910 -0.43900
O 	O 	0.30850 0.00550 0.54450 -0.46100
C 	C 	0.93670 0.83210 0.50600 0.02300
H 	H 	0.88850 0.82580 0.44170 0.01100
C 	C 	0.92370 0.87060 0.53950 -0.05900
H 	H 	0.85990 0.88910 0.49990 0.06300
C 	C 	0.00400 0.88100 0.62960 -0.04600
C 	C 	0.98380 0.92190 0.67020 0.39000
C 	C 	0.09500 0.85280 0.68660 -0.06400
H 	H 	0.15190 0.85910 0.74890 0.06200
C 	C 	0.10000 0.81450 0.65000 0.03400
H 	H 	0.16480 0.79560 0.68790 -0.02900
C 	C 	0.26680 0.83370 0.29700 0.04700
H 	H 	0.20550 0.82720 0.23610 0.00700
C 	C 	0.28800 0.87250 0.31990 -0.06500
H 	H 	0.24410 0.89160 0.27510 0.06900
C 	C 	0.37620 0.88250 0.41100 -0.04900
C 	C 	0.40820 0.92440 0.44200 0.38500
C 	C 	0.44150 0.85310 0.47410 -0.06500
H 	H 	0.50210 0.85900 0.53570 0.06200
C 	C 	0.41540 0.81490 0.44420 0.03800
H 	H 	0.46040 0.79530 0.48710 -0.03700
C 	C 	0.20700 0.01440 0.62460 0.43100
C 	C 	0.01500 0.01570 0.62100 -0.13100
C 	C 	0.07200 0.04240 0.62500 -0.05400
Gd	Gd	0.90340 0.48027 0.13140 0.76800
Gd	Gd	0.84990 0.48210 0.12700 0.70200
N 	N 	0.48500 0.30430 0.06240 -0.24500
N 	N 	0.17170 0.30470 0.85650 -0.24700
O 	O 	0.60220 0.44640 0.11600 -0.42600
O 	O 	0.44150 0.42850 0.25710 -0.38900
O 	O 	0.02400 0.42980 0.02970 -0.38000
O 	O 	0.13050 0.44989 0.87660 -0.39500
O 	O 	0.22860 0.49872 0.20910 -0.43700
O 	O 	0.19150 0.50550 0.04450 -0.45800
C 	C 	0.56330 0.33210 0.00600 0.02600
H 	H 	0.61150 0.32580 0.94170 0.01400
C 	C 	0.57630 0.37060 0.03950 -0.05000
H 	H 	0.64010 0.38910 0.99990 0.06300
C 	C 	0.49600 0.38100 0.12960 -0.06000
C 	C 	0.51620 0.42190 0.17020 0.40000
C 	C 	0.40500 0.35280 0.18660 -0.05800
H 	H 	0.34810 0.35910 0.24890 0.05800
C 	C 	0.40000 0.31450 0.15000 0.03000
H 	H 	0.33520 0.29560 0.18790 -0.02900
C 	C 	0.23320 0.33370 0.79700 0.04900
H 	H 	0.29450 0.32720 0.73610 0.00300
C 	C 	0.21200 0.37250 0.81990 -0.07200
H 	H 	0.25590 0.39160 0.77510 0.06900
C 	C 	0.12380 0.38250 0.91100 -0.04100
C 	C 	0.09180 0.42440 0.94200 0.37600
C 	C 	0.05850 0.35310 0.97410 -0.08600
H 	H 	0.99790 0.35900 0.03570 0.07300
C 	C 	0.08460 0.31490 0.94420 0.04500
H 	H 	0.03960 0.29530 0.98710 -0.04300
C 	C 	0.29300 0.51440 0.12460 0.43000
C 	C 	0.48500 0.51570 0.12100 -0.13200
C 	C 	0.42800 0.54240 0.12500 -0.05000
Gd	Gd	0.59660 0.51973 0.63140 0.76900
Gd	Gd	0.65010 0.51790 0.62700 0.70400
N 	N 	0.01500 0.69570 0.56240 -0.24000
N 	N 	0.32830 0.69530 0.35650 -0.24300
O 	O 	0.89780 0.55360 0.61600 -0.42400
O 	O 	0.05850 0.57150 0.75710 -0.38500
O 	O 	0.47600 0.57020 0.52970 -0.38300
O 	O 	0.36950 0.55011 0.37660 -0.39600
O 	O 	0.27140 0.50128 0.70910 -0.43800
O 	O 	0.30850 0.49450 0.54450 -0.46100
C 	C 	0.93670 0.66790 0.50600 0.02300
H 	H 	0.88850 0.67420 0.44170 0.01100
C 	C 	0.92370 0.62940 0.53950 -0.05900
H 	H 	0.85990 0.61090 0.49990 0.06300
C 	C 	0.00400 0.61900 0.62960 -0.04600
C 	C 	0.98380 0.57810 0.67020 0.38900
C 	C 	0.09500 0.64720 0.68660 -0.06400
H 	H 	0.15190 0.64090 0.74890 0.06200
C 	C 	0.10000 0.68550 0.65000 0.03400
H 	H 	0.16480 0.70440 0.68790 -0.02900
C 	C 	0.26680 0.66630 0.29700 0.04700
H 	H 	0.20550 0.67280 0.23610 0.00700
C 	C 	0.28800 0.62750 0.31990 -0.06500
H 	H 	0.24410 0.60840 0.27510 0.06900
C 	C 	0.37620 0.61750 0.41100 -0.04900
C 	C 	0.40820 0.57560 0.44200 0.38500
C 	C 	0.44150 0.64690 0.47410 -0.06500
H 	H 	0.50210 0.64100 0.53570 0.06200
C 	C 	0.41540 0.68510 0.44420 0.03800
H 	H 	0.46040 0.70470 0.48710 -0.03700
C 	C 	0.20700 0.48560 0.62460 0.43100
C 	C 	0.01500 0.48430 0.62100 -0.13100
C 	C 	0.07200 0.45760 0.62500 -0.05400
Gd	Gd	0.09660 0.98027 0.86860 0.76800
Gd	Gd	0.15010 0.98210 0.87300 0.70100
N 	N 	0.51500 0.80430 0.93760 -0.24500
N 	N 	0.82830 0.80470 0.14350 -0.24700
O 	O 	0.39780 0.94640 0.88400 -0.42700
O 	O 	0.55850 0.92850 0.74290 -0.38900
O 	O 	0.97600 0.92980 0.97030 -0.38000
O 	O 	0.86950 0.94989 0.12340 -0.39500
O 	O 	0.77140 0.99872 0.79090 -0.43800
O 	O 	0.80850 0.00550 0.95550 -0.45800
C 	C 	0.43670 0.83210 0.99400 0.02600
H 	H 	0.38850 0.82580 0.05830 0.01400
C 	C 	0.42370 0.87060 0.96050 -0.05100
H 	H 	0.35990 0.88910 0.00010 0.06300
C 	C 	0.50400 0.88100 0.87040 -0.06000
C 	C 	0.48380 0.92190 0.82980 0.40000
C 	C 	0.59500 0.85280 0.81340 -0.05800
H 	H 	0.65190 0.85910 0.75110 0.05800
C 	C 	0.60000 0.81450 0.85000 0.03000
H 	H 	0.66480 0.79560 0.81210 -0.02900
C 	C 	0.76680 0.83370 0.20300 0.04900
H 	H 	0.70550 0.82720 0.26390 0.00300
C 	C 	0.78800 0.87250 0.18010 -0.07200
H 	H 	0.74410 0.89160 0.22490 0.06900
C 	C 	0.87620 0.88250 0.08900 -0.04100
C 	C 	0.90820 0.92440 0.05800 0.37600
C 	C 	0.94150 0.85310 0.02590 -0.08600
H 	H 	0.00210 0.85900 0.96430 0.07300
C 	C 	0.91540 0.81490 0.05580 0.04500
H 	H 	0.96040 0.79530 0.01290 -0.04300
C 	C 	0.70700 0.01440 0.87540 0.43000
C 	C 	0.51500 0.01570 0.87900 -0.13200
C 	C 	0.57200 0.04240 0.87500 -0.05000
Gd	Gd	0.40340 0.01973 0.36860 0.76900
Gd	Gd	0.34990 0.01790 0.37300 0.70400
N 	N 	0.98500 0.19570 0.43760 -0.24000
N 	N 	0.67170 0.19530 0.64350 -0.24300
O 	O 	0.10220 0.05360 0.38400 -0.42400
O 	O 	0.94150 0.07150 0.24290 -0.38500
O 	O 	0.52400 0.07020 0.47030 -0.38300
O 	O 	0.63050 0.05011 0.62340 -0.39600
O 	O 	0.72860 0.00128 0.29090 -0.43900
O 	O 	0.69150 0.99450 0.45550 -0.46100
C 	C 	0.06330 0.16790 0.49400 0.02300
H 	H 	0.11150 0.17420 0.55830 0.01100
C 	C 	0.07630 0.12940 0.46050 -0.05900
H 	H 	0.14010 0.11090 0.50010 0.06300
C 	C 	0.99600 0.11900 0.37040 -0.04600
C 	C 	0.01620 0.07810 0.32980 0.39000
C 	C 	0.90500 0.14720 0.31340 -0.06400
H 	H 	0.84810 0.14090 0.25110 0.06200
C 	C 	0.90000 0.18550 0.35000 0.03400
H 	H 	0.83520 0.20440 0.31210 -0.02900
C 	C 	0.73320 0.16630 0.70300 0.04700
H 	H 	0.79450 0.17280 0.76390 0.00700
C 	C 	0.71200 0.12750 0.68010 -0.06500
H 	H 	0.75590 0.10840 0.72490 0.06900
C 	C 	0.62380 0.11750 0.58900 -0.04900
C 	C 	0.59180 0.07560 0.55800 0.38500
C 	C 	0.55850 0.14690 0.52590 -0.06500
H 	H 	0.49790 0.14100 0.46430 0.06200
C 	C 	0.58460 0.18510 0.55580 0.03800
H 	H 	0.53960 0.20470 0.51290 -0.03700
C 	C 	0.79300 0.98560 0.37540 0.43100
C 	C 	0.98500 0.98430 0.37900 -0.13100
C 	C 	0.92800 0.95760 0.37500 -0.05400
Cu	Cu	0.48350 0.75000 0.97540 0.84000
Cu	Cu	0.31460 0.75000 0.31907 0.85700
Cl	Cl	0.26620 0.75000 0.13000 0.08000
Cl	Cl	0.37880 0.75000 0.14530 -0.79900
Cu	Cu	0.01650 0.25000 0.47540 0.83600
Cu	Cu	0.18540 0.25000 0.81907 0.85400
Cl	Cl	0.23380 0.25000 0.63000 0.07000
Cl	Cl	0.12120 0.25000 0.64530 -0.79900
Cu	Cu	0.51650 0.25000 0.02460 0.84000
Cu	Cu	0.68540 0.25000 0.68093 0.85700
Cl	Cl	0.73380 0.25000 0.87000 0.08000
Cl	Cl	0.62120 0.25000 0.85470 -0.79900
Cu	Cu	0.98350 0.75000 0.52460 0.83600
Cu	Cu	0.81460 0.75000 0.18093 0.85400
Cl	Cl	0.76620 0.75000 0.37000 0.07000
Cl	Cl	0.87880 0.75000 0.35470 -0.79900
