data_crystal

_cell_length_a 6.91170
_cell_length_b 34.43330
_cell_length_c 13.14160
_cell_angle_alpha 90.00000
_cell_angle_beta  90.00000
_cell_angle_gamma 90.00000

_symmetry_space_group_name_	'P 1'
_symmetry_space_group_name_H-M	'P 1'

loop_
_symmetry_equiv_pos_as_xyz
  x,y,z

loop_
_atom_site_label
_atom_site_type_symbol
_atom_site_fract_x
_atom_site_fract_y
_atom_site_fract_z
_atom_site_charge
Eu	Eu	0.12040 0.48230 0.87240 0.88300
Eu	Eu	0.59970 0.02140 0.63370 0.88900
N 	N 	0.83120 0.30440 0.14490 -0.24700
N 	N 	0.51300 0.30430 0.93790 -0.24000
O 	O 	0.97970 0.42970 0.97210 -0.44200
O 	O 	0.87100 0.45040 0.12340 -0.44200
O 	O 	0.40050 0.44610 0.88370 -0.46900
O 	O 	0.56000 0.42810 0.74300 -0.45200
O 	O 	0.77270 0.49810 0.79200 -0.51000
O 	O 	0.80630 0.50480 0.95620 -0.53200
C 	C 	0.91500 0.42460 0.05860 0.41300
C 	C 	0.88000 0.38210 0.08980 -0.05900
C 	C 	0.78900 0.37260 0.17870 -0.05100
H 	H 	0.74380 0.39230 0.22360 0.05900
C 	C 	0.94500 0.35250 0.02520 -0.07200
H 	H 	0.00760 0.35820 0.96260 0.06700
C 	C 	0.76400 0.33320 0.20200 0.03100
H 	H 	0.69550 0.32670 0.26220 0.00800
C 	C 	0.91400 0.31440 0.05650 0.03600
H 	H 	0.95420 0.29420 0.01220 -0.03400
C 	C 	0.48300 0.42230 0.83010 0.44200
C 	C 	0.50100 0.38130 0.86850 -0.08700
C 	C 	0.42200 0.37080 0.96070 -0.03200
H 	H 	0.35940 0.38960 0.00210 0.05400
C 	C 	0.59100 0.35270 0.81190 -0.03200
H 	H 	0.64250 0.35860 0.74670 0.04800
C 	C 	0.43500 0.33210 0.99290 0.01900
H 	H 	0.38570 0.32560 0.05810 0.01500
C 	C 	0.60600 0.31520 0.85140 0.01000
H 	H 	0.68390 0.29670 0.81680 -0.02000
C 	C 	0.70700 0.51320 0.87670 0.47200
C 	C 	0.58100 0.54070 0.87800 -0.09000
C 	C 	0.00600 0.98530 0.62300 -0.12500
Eu	Eu	0.37960 0.51770 0.37240 0.88500
Eu	Eu	0.90030 0.97860 0.13370 0.88500
N 	N 	0.66880 0.69560 0.64490 -0.24400
N 	N 	0.98700 0.69570 0.43790 -0.23500
O 	O 	0.52030 0.57030 0.47210 -0.44700
O 	O 	0.62900 0.54960 0.62340 -0.44200
O 	O 	0.09950 0.55390 0.38370 -0.46600
O 	O 	0.94000 0.57190 0.24300 -0.44600
O 	O 	0.72730 0.50190 0.29200 -0.51100
O 	O 	0.69370 0.49520 0.45620 -0.53500
C 	C 	0.58500 0.57540 0.55860 0.42400
C 	C 	0.62000 0.61790 0.58980 -0.06700
C 	C 	0.71100 0.62740 0.67870 -0.04300
H 	H 	0.75620 0.60770 0.72360 0.05900
C 	C 	0.55500 0.64750 0.52520 -0.04700
H 	H 	0.49240 0.64180 0.46260 0.05400
C 	C 	0.73600 0.66680 0.70200 0.02900
H 	H 	0.80450 0.67330 0.76220 0.01200
C 	C 	0.58600 0.68560 0.55650 0.02800
H 	H 	0.54580 0.70580 0.51220 -0.02700
C 	C 	0.01700 0.57770 0.33010 0.43000
C 	C 	0.99900 0.61870 0.36850 -0.07100
C 	C 	0.07800 0.62920 0.46070 -0.04100
H 	H 	0.14060 0.61040 0.50210 0.05400
C 	C 	0.90900 0.64730 0.31190 -0.03800
H 	H 	0.85750 0.64140 0.24670 0.05100
C 	C 	0.06500 0.66790 0.49290 0.01300
H 	H 	0.11430 0.67440 0.55810 0.01200
C 	C 	0.89400 0.68480 0.35140 0.01500
H 	H 	0.81610 0.70330 0.31680 -0.02000
C 	C 	0.79300 0.48680 0.37670 0.47300
C 	C 	0.91900 0.45930 0.37800 -0.09500
C 	C 	0.49400 0.01470 0.12300 -0.12600
Eu	Eu	0.87960 0.98230 0.12760 0.88100
Eu	Eu	0.40030 0.52140 0.36630 0.88800
N 	N 	0.16880 0.80440 0.85510 -0.24800
N 	N 	0.48700 0.80430 0.06210 -0.24200
O 	O 	0.02030 0.92970 0.02790 -0.44200
O 	O 	0.12900 0.95040 0.87660 -0.44200
O 	O 	0.59950 0.94610 0.11630 -0.46900
O 	O 	0.44000 0.92810 0.25700 -0.45200
O 	O 	0.22730 0.99810 0.20800 -0.51000
O 	O 	0.19370 0.00480 0.04380 -0.53100
C 	C 	0.08500 0.92460 0.94140 0.41300
C 	C 	0.12000 0.88210 0.91020 -0.05900
C 	C 	0.21100 0.87260 0.82130 -0.05100
H 	H 	0.25620 0.89230 0.77640 0.05900
C 	C 	0.05500 0.85250 0.97480 -0.07100
H 	H 	0.99240 0.85820 0.03740 0.06600
C 	C 	0.23600 0.83320 0.79800 0.03000
H 	H 	0.30450 0.82670 0.73780 0.00800
C 	C 	0.08600 0.81440 0.94350 0.03600
H 	H 	0.04580 0.79420 0.98780 -0.03400
C 	C 	0.51700 0.92230 0.16990 0.44200
C 	C 	0.49900 0.88130 0.13150 -0.08700
C 	C 	0.57800 0.87080 0.03930 -0.03200
H 	H 	0.64060 0.88960 0.99790 0.05400
C 	C 	0.40900 0.85270 0.18810 -0.03200
H 	H 	0.35750 0.85860 0.25330 0.04800
C 	C 	0.56500 0.83210 0.00710 0.01900
H 	H 	0.61430 0.82560 0.94190 0.01500
C 	C 	0.39400 0.81520 0.14860 0.01100
H 	H 	0.31610 0.79670 0.18320 -0.02000
C 	C 	0.29300 0.01320 0.12330 0.47200
C 	C 	0.41900 0.04070 0.12200 -0.09000
C 	C 	0.99400 0.48530 0.37700 -0.12600
Eu	Eu	0.62040 0.01770 0.62760 0.88500
Eu	Eu	0.09970 0.47860 0.86630 0.88500
N 	N 	0.33120 0.19560 0.35510 -0.24400
N 	N 	0.01300 0.19570 0.56210 -0.23500
O 	O 	0.47970 0.07030 0.52790 -0.44700
O 	O 	0.37100 0.04960 0.37660 -0.44200
O 	O 	0.90050 0.05390 0.61630 -0.46600
O 	O 	0.06000 0.07190 0.75700 -0.44600
O 	O 	0.27270 0.00190 0.70800 -0.51100
O 	O 	0.30630 0.99520 0.54380 -0.53500
C 	C 	0.41500 0.07540 0.44140 0.42400
C 	C 	0.38000 0.11790 0.41020 -0.06700
C 	C 	0.28900 0.12740 0.32130 -0.04300
H 	H 	0.24380 0.10770 0.27640 0.05900
C 	C 	0.44500 0.14750 0.47480 -0.04700
H 	H 	0.50760 0.14180 0.53740 0.05400
C 	C 	0.26400 0.16680 0.29800 0.02900
H 	H 	0.19550 0.17330 0.23780 0.01200
C 	C 	0.41400 0.18560 0.44350 0.02800
H 	H 	0.45420 0.20580 0.48780 -0.02700
C 	C 	0.98300 0.07770 0.66990 0.43000
C 	C 	0.00100 0.11870 0.63150 -0.07200
C 	C 	0.92200 0.12920 0.53930 -0.04100
H 	H 	0.85940 0.11040 0.49790 0.05300
C 	C 	0.09100 0.14730 0.68810 -0.03800
H 	H 	0.14250 0.14140 0.75330 0.05100
C 	C 	0.93500 0.16790 0.50710 0.01300
H 	H 	0.88570 0.17440 0.44190 0.01200
C 	C 	0.10600 0.18480 0.64860 0.01500
H 	H 	0.18390 0.20330 0.68320 -0.02000
C 	C 	0.20700 0.98680 0.62330 0.47400
C 	C 	0.08100 0.95930 0.62200 -0.09500
C 	C 	0.50600 0.51470 0.87700 -0.12700
Eu	Eu	0.87960 0.51770 0.12760 0.88200
Eu	Eu	0.40030 0.97860 0.36630 0.88800
N 	N 	0.16880 0.69560 0.85510 -0.24800
N 	N 	0.48700 0.69570 0.06210 -0.24100
O 	O 	0.02030 0.57030 0.02790 -0.44200
O 	O 	0.12900 0.54960 0.87660 -0.44200
O 	O 	0.59950 0.55390 0.11630 -0.46900
O 	O 	0.44000 0.57190 0.25700 -0.45200
O 	O 	0.22730 0.50190 0.20800 -0.51000
O 	O 	0.19370 0.49520 0.04380 -0.53200
C 	C 	0.08500 0.57540 0.94140 0.41300
C 	C 	0.12000 0.61790 0.91020 -0.05900
C 	C 	0.21100 0.62740 0.82130 -0.05100
H 	H 	0.25620 0.60770 0.77640 0.05900
C 	C 	0.05500 0.64750 0.97480 -0.07200
H 	H 	0.99240 0.64180 0.03740 0.06700
C 	C 	0.23600 0.66680 0.79800 0.03100
H 	H 	0.30450 0.67330 0.73780 0.00800
C 	C 	0.08600 0.68560 0.94350 0.03600
H 	H 	0.04580 0.70580 0.98780 -0.03400
C 	C 	0.51700 0.57770 0.16990 0.44200
C 	C 	0.49900 0.61870 0.13150 -0.08700
C 	C 	0.57800 0.62920 0.03930 -0.03200
H 	H 	0.64060 0.61040 0.99790 0.05400
C 	C 	0.40900 0.64730 0.18810 -0.03200
H 	H 	0.35750 0.64140 0.25330 0.04800
C 	C 	0.56500 0.66790 0.00710 0.01900
H 	H 	0.61430 0.67440 0.94190 0.01500
C 	C 	0.39400 0.68480 0.14860 0.01000
H 	H 	0.31610 0.70330 0.18320 -0.02000
C 	C 	0.29300 0.48680 0.12330 0.47200
C 	C 	0.41900 0.45930 0.12200 -0.09000
C 	C 	0.99400 0.01470 0.37700 -0.12500
Eu	Eu	0.62040 0.48230 0.62760 0.88500
Eu	Eu	0.09970 0.02140 0.86630 0.88500
N 	N 	0.33120 0.30440 0.35510 -0.24400
N 	N 	0.01300 0.30430 0.56210 -0.23500
O 	O 	0.47970 0.42970 0.52790 -0.44700
O 	O 	0.37100 0.45040 0.37660 -0.44200
O 	O 	0.90050 0.44610 0.61630 -0.46600
O 	O 	0.06000 0.42810 0.75700 -0.44600
O 	O 	0.27270 0.49810 0.70800 -0.51100
O 	O 	0.30630 0.50480 0.54380 -0.53500
C 	C 	0.41500 0.42460 0.44140 0.42400
C 	C 	0.38000 0.38210 0.41020 -0.06700
C 	C 	0.28900 0.37260 0.32130 -0.04300
H 	H 	0.24380 0.39230 0.27640 0.05900
C 	C 	0.44500 0.35250 0.47480 -0.04700
H 	H 	0.50760 0.35820 0.53740 0.05400
C 	C 	0.26400 0.33320 0.29800 0.02900
H 	H 	0.19550 0.32670 0.23780 0.01200
C 	C 	0.41400 0.31440 0.44350 0.02800
H 	H 	0.45420 0.29420 0.48780 -0.02700
C 	C 	0.98300 0.42230 0.66990 0.43000
C 	C 	0.00100 0.38130 0.63150 -0.07100
C 	C 	0.92200 0.37080 0.53930 -0.04100
H 	H 	0.85940 0.38960 0.49790 0.05400
C 	C 	0.09100 0.35270 0.68810 -0.03800
H 	H 	0.14250 0.35860 0.75330 0.05100
C 	C 	0.93500 0.33210 0.50710 0.01300
H 	H 	0.88570 0.32560 0.44190 0.01200
C 	C 	0.10600 0.31520 0.64860 0.01500
H 	H 	0.18390 0.29670 0.68320 -0.02000
C 	C 	0.20700 0.51320 0.62330 0.47300
C 	C 	0.08100 0.54070 0.62200 -0.09500
C 	C 	0.50600 0.98530 0.87700 -0.12600
Eu	Eu	0.12040 0.01770 0.87240 0.88100
Eu	Eu	0.59970 0.47860 0.63370 0.88800
N 	N 	0.83120 0.19560 0.14490 -0.24800
N 	N 	0.51300 0.19570 0.93790 -0.24200
O 	O 	0.97970 0.07030 0.97210 -0.44200
O 	O 	0.87100 0.04960 0.12340 -0.44200
O 	O 	0.40050 0.05390 0.88370 -0.46900
O 	O 	0.56000 0.07190 0.74300 -0.45200
O 	O 	0.77270 0.00190 0.79200 -0.51000
O 	O 	0.80630 0.99520 0.95620 -0.53100
C 	C 	0.91500 0.07540 0.05860 0.41300
C 	C 	0.88000 0.11790 0.08980 -0.05900
C 	C 	0.78900 0.12740 0.17870 -0.05100
H 	H 	0.74380 0.10770 0.22360 0.05900
C 	C 	0.94500 0.14750 0.02520 -0.07100
H 	H 	0.00760 0.14180 0.96260 0.06600
C 	C 	0.76400 0.16680 0.20200 0.03000
H 	H 	0.69550 0.17330 0.26220 0.00800
C 	C 	0.91400 0.18560 0.05650 0.03600
H 	H 	0.95420 0.20580 0.01220 -0.03400
C 	C 	0.48300 0.07770 0.83010 0.44200
C 	C 	0.50100 0.11870 0.86850 -0.08700
C 	C 	0.42200 0.12920 0.96070 -0.03200
H 	H 	0.35940 0.11040 0.00210 0.05400
C 	C 	0.59100 0.14730 0.81190 -0.03200
H 	H 	0.64250 0.14140 0.74670 0.04800
C 	C 	0.43500 0.16790 0.99290 0.01900
H 	H 	0.38570 0.17440 0.05810 0.01500
C 	C 	0.60600 0.18480 0.85140 0.01100
H 	H 	0.68390 0.20330 0.81680 -0.02000
C 	C 	0.70700 0.98680 0.87670 0.47200
C 	C 	0.58100 0.95930 0.87800 -0.09000
C 	C 	0.00600 0.51470 0.62300 -0.12600
Eu	Eu	0.37960 0.98230 0.37240 0.88500
Eu	Eu	0.90030 0.52140 0.13370 0.88500
N 	N 	0.66880 0.80440 0.64490 -0.24400
N 	N 	0.98700 0.80430 0.43790 -0.23500
O 	O 	0.52030 0.92970 0.47210 -0.44700
O 	O 	0.62900 0.95040 0.62340 -0.44200
O 	O 	0.09950 0.94610 0.38370 -0.46600
O 	O 	0.94000 0.92810 0.24300 -0.44600
O 	O 	0.72730 0.99810 0.29200 -0.51100
O 	O 	0.69370 0.00480 0.45620 -0.53500
C 	C 	0.58500 0.92460 0.55860 0.42400
C 	C 	0.62000 0.88210 0.58980 -0.06700
C 	C 	0.71100 0.87260 0.67870 -0.04300
H 	H 	0.75620 0.89230 0.72360 0.05900
C 	C 	0.55500 0.85250 0.52520 -0.04700
H 	H 	0.49240 0.85820 0.46260 0.05400
C 	C 	0.73600 0.83320 0.70200 0.02900
H 	H 	0.80450 0.82670 0.76220 0.01200
C 	C 	0.58600 0.81440 0.55650 0.02800
H 	H 	0.54580 0.79420 0.51220 -0.02700
C 	C 	0.01700 0.92230 0.33010 0.43000
C 	C 	0.99900 0.88130 0.36850 -0.07200
C 	C 	0.07800 0.87080 0.46070 -0.04100
H 	H 	0.14060 0.88960 0.50210 0.05300
C 	C 	0.90900 0.85270 0.31190 -0.03800
H 	H 	0.85750 0.85860 0.24670 0.05100
C 	C 	0.06500 0.83210 0.49290 0.01300
H 	H 	0.11430 0.82560 0.55810 0.01200
C 	C 	0.89400 0.81520 0.35140 0.01500
H 	H 	0.81610 0.79670 0.31680 -0.02000
C 	C 	0.79300 0.01320 0.37670 0.47400
C 	C 	0.91900 0.04070 0.37800 -0.09500
C 	C 	0.49400 0.48530 0.12300 -0.12700
Cu	Cu	0.48400 0.25000 0.97530 0.83200
Cu	Cu	0.31220 0.25000 0.31850 0.84300
Cl	Cl	0.31200 0.25000 0.13620 -0.69300
Cu	Cu	0.01600 0.75000 0.47530 0.82700
Cu	Cu	0.18780 0.75000 0.81850 0.83900
Cl	Cl	0.18800 0.75000 0.63620 -0.70400
Cu	Cu	0.51600 0.75000 0.02470 0.83200
Cu	Cu	0.68780 0.75000 0.68150 0.84300
Cl	Cl	0.68800 0.75000 0.86380 -0.69300
Cu	Cu	0.98400 0.25000 0.52470 0.82700
Cu	Cu	0.81220 0.25000 0.18150 0.83900
Cl	Cl	0.81200 0.25000 0.36380 -0.70400
