data_crystal

_cell_length_a 7.03030
_cell_length_b 12.56190
_cell_length_c 15.64080
_cell_angle_alpha 90.00000
_cell_angle_beta  90.00000
_cell_angle_gamma 100.91800

_symmetry_space_group_name_	'P 1'
_symmetry_space_group_name_H-M	'P 1'

loop_
_symmetry_equiv_pos_as_xyz
  x,y,z

loop_
_atom_site_label
_atom_site_type_symbol
_atom_site_fract_x
_atom_site_fract_y
_atom_site_fract_z
_atom_site_charge
Cu	Cu	0.50000 0.00000 0.50000 0.86300
Cu	Cu	0.00000 0.50000 -0.00000 0.84500
Cu	Cu	-0.00000 0.00000 0.50000 0.85500
Cu	Cu	0.50000 0.50000 -0.00000 0.86200
P 	P 	0.74084 0.21636 0.41380 0.47700
P 	P 	0.26071 0.26823 0.07414 0.50700
P 	P 	0.75916 0.28364 0.91380 0.48800
P 	P 	0.23929 0.23177 0.57414 0.51400
P 	P 	0.25916 0.78364 0.58620 0.50600
P 	P 	0.73929 0.73177 0.92586 0.49500
P 	P 	0.24084 0.71636 0.08620 0.49200
P 	P 	0.76071 0.76823 0.42586 0.49100
H 	H 	0.81050 0.20240 0.23240 0.08800
H 	H 	0.63220 0.22100 0.11000 0.03200
H 	H 	0.18860 0.27690 0.25510 0.06600
H 	H 	0.36620 0.25650 0.37740 0.05100
H 	H 	0.64160 0.94590 0.32490 0.20700
H 	H 	0.57780 0.95240 0.23450 0.21100
H 	H 	0.04100 0.26900 0.41100 0.37200
H 	H 	0.98800 0.22800 0.06900 0.59400
H 	H 	0.68950 0.29760 0.73240 0.11300
H 	H 	0.86780 0.27900 0.61000 0.03300
H 	H 	0.31140 0.22310 0.75510 0.04800
H 	H 	0.13380 0.24350 0.87740 0.09500
H 	H 	0.85840 0.55410 0.82490 0.18300
H 	H 	0.92220 0.54760 0.73450 0.19600
H 	H 	0.45900 0.23100 0.91100 0.46000
H 	H 	0.51200 0.27200 0.56900 0.56500
H 	H 	0.18950 0.79760 0.76760 0.07700
H 	H 	0.36780 0.77900 0.89000 0.09600
H 	H 	0.81140 0.72310 0.74490 0.09000
H 	H 	0.63380 0.74350 0.62260 0.04400
H 	H 	0.35840 0.05410 0.67510 0.15600
H 	H 	0.42220 0.04760 0.76550 0.17500
H 	H 	0.95900 0.73100 0.58900 0.48600
H 	H 	0.01200 0.77200 0.93100 0.52200
H 	H 	0.31050 0.70240 0.26760 0.05700
H 	H 	0.13220 0.72100 0.39000 0.09200
H 	H 	0.68860 0.77690 0.24490 0.10500
H 	H 	0.86620 0.75650 0.12260 0.00300
H 	H 	0.14160 0.44590 0.17510 0.18100
H 	H 	0.07780 0.45240 0.26550 0.19000
H 	H 	0.54100 0.76900 0.08900 0.39700
H 	H 	0.48800 0.72800 0.43100 0.56200
C 	C 	0.60700 0.22820 0.31720 -0.04400
C 	C 	0.68630 0.21730 0.23710 -0.04800
C 	C 	0.57930 0.22870 0.16360 -0.01300
C 	C 	0.39270 0.25170 0.17050 -0.06100
C 	C 	0.31290 0.26200 0.25040 -0.01700
C 	C 	0.41990 0.25000 0.32370 -0.03500
C 	C 	0.10150 0.00590 0.31320 0.00100
C 	C 	0.39460 0.97750 0.31410 0.28500
C 	C 	0.89300 0.27180 0.81720 0.04300
C 	C 	0.81370 0.28270 0.73710 -0.10200
C 	C 	0.92070 0.27130 0.66360 0.08000
C 	C 	0.10730 0.24830 0.67050 -0.13000
C 	C 	0.18710 0.23800 0.75040 0.05000
C 	C 	0.08010 0.25000 0.82370 -0.13500
C 	C 	0.39850 0.49410 0.81320 0.11700
C 	C 	0.10540 0.52250 0.81410 0.22400
C 	C 	0.39300 0.77180 0.68280 -0.04900
C 	C 	0.31370 0.78270 0.76290 0.00700
C 	C 	0.42070 0.77130 0.83640 -0.04000
C 	C 	0.60730 0.74830 0.82950 -0.01000
C 	C 	0.68710 0.73800 0.74960 -0.04100
C 	C 	0.58010 0.75000 0.67630 0.00400
C 	C 	0.89850 0.99410 0.68680 0.23100
C 	C 	0.60540 0.02250 0.68590 0.22900
C 	C 	0.10700 0.72820 0.18280 -0.12300
C 	C 	0.18630 0.71730 0.26290 0.05100
C 	C 	0.07930 0.72870 0.33640 -0.12000
C 	C 	0.89270 0.75170 0.32950 0.04900
C 	C 	0.81290 0.76200 0.24960 -0.09900
C 	C 	0.91990 0.75000 0.17630 0.08900
C 	C 	0.60150 0.50590 0.18680 0.11500
C 	C 	0.89460 0.47750 0.18590 0.28700
N 	N 	0.15350 0.00210 0.39370 -0.22600
N 	N 	0.34350 0.98560 0.39430 -0.17500
N 	N 	0.24850 0.99020 0.26070 -0.08900
N 	N 	0.55540 0.95630 0.28840 -0.37100
N 	N 	0.34650 0.49790 0.89370 -0.17000
N 	N 	0.15650 0.51440 0.89430 -0.19900
N 	N 	0.25150 0.50980 0.76070 -0.14200
N 	N 	0.94460 0.54370 0.78840 -0.34000
N 	N 	0.84650 0.99790 0.60630 -0.14900
N 	N 	0.65650 0.01440 0.60570 -0.26000
N 	N 	0.75150 0.00980 0.73930 -0.19500
N 	N 	0.44460 0.04370 0.71160 -0.35400
N 	N 	0.65350 0.50210 0.10630 -0.20700
N 	N 	0.84350 0.48560 0.10570 -0.23300
N 	N 	0.74850 0.49020 0.23930 -0.14400
N 	N 	0.05540 0.45630 0.21160 -0.38200
O 	O 	0.95490 0.25150 0.38471 -0.54400
O 	O 	0.68590 0.29320 0.47951 -0.28000
O 	O 	0.71140 0.09870 0.44283 -0.44400
O 	O 	0.29400 0.38640 0.04676 -0.46200
O 	O 	0.31310 0.19180 0.00697 -0.36100
O 	O 	0.04650 0.23380 0.10320 -0.85500
O 	O 	0.54510 0.24850 0.88471 -0.62300
O 	O 	0.81410 0.20680 0.97951 -0.23300
O 	O 	0.78860 0.40130 0.94283 -0.36600
O 	O 	0.20600 0.11360 0.54676 -0.45800
O 	O 	0.18690 0.30820 0.50697 -0.28400
O 	O 	0.45350 0.26620 0.60320 -0.77500
O 	O 	0.04510 0.74850 0.61529 -0.68400
O 	O 	0.31410 0.70680 0.52049 -0.29400
O 	O 	0.28860 0.90130 0.55717 -0.38600
O 	O 	0.70600 0.61360 0.95324 -0.37100
O 	O 	0.68690 0.80820 0.99303 -0.19100
O 	O 	0.95350 0.76620 0.89680 -0.67700
O 	O 	0.45490 0.75150 0.11529 -0.60500
O 	O 	0.18590 0.79320 0.02049 -0.33600
O 	O 	0.21140 0.59870 0.05717 -0.45700
O 	O 	0.79400 0.88640 0.45324 -0.37700
O 	O 	0.81310 0.69180 0.49303 -0.26900
O 	O 	0.54650 0.73380 0.39680 -0.76900
