data_crystal

_cell_length_a 7.54090
_cell_length_b 12.85010
_cell_length_c 18.86500
_cell_angle_alpha 90.00000
_cell_angle_beta  90.00000
_cell_angle_gamma 90.00000

_symmetry_space_group_name_	'P 1'
_symmetry_space_group_name_H-M	'P 1'

loop_
_symmetry_equiv_pos_as_xyz
  x,y,z

loop_
_atom_site_label
_atom_site_type_symbol
_atom_site_fract_x
_atom_site_fract_y
_atom_site_fract_z
_atom_site_charge
Mn	Mn	0.23965 0.84457 0.38634 1.25500
N 	N 	0.24830 0.59280 0.39493 -0.01600
N 	N 	0.95350 0.86600 0.26383 -0.02100
N 	N 	0.23280 0.67557 0.37237 -0.20300
N 	N 	0.52420 0.75074 0.48596 -0.03700
N 	N 	0.48480 0.82642 0.45464 -0.18600
N 	N 	0.99580 0.86998 0.32352 -0.19900
N 	N 	0.26380 0.50894 0.41798 -0.20000
N 	N 	0.56260 0.67515 0.51687 -0.18300
N 	N 	0.91190 0.86576 0.20511 -0.20800
Mn	Mn	0.26035 0.15543 0.88634 1.25400
N 	N 	0.25170 0.40720 0.89493 -0.01700
N 	N 	0.54650 0.13400 0.76383 -0.02100
N 	N 	0.26720 0.32443 0.87237 -0.20300
N 	N 	0.97580 0.24926 0.98596 -0.03800
N 	N 	0.01520 0.17358 0.95464 -0.18600
N 	N 	0.50420 0.13002 0.82352 -0.20000
N 	N 	0.23620 0.49106 0.91798 -0.20000
N 	N 	0.93740 0.32485 0.01687 -0.18300
N 	N 	0.58810 0.13424 0.70511 -0.20800
Mn	Mn	0.76035 0.34457 0.11365 1.25400
N 	N 	0.75170 0.09280 0.10507 -0.01700
N 	N 	0.04650 0.36600 0.23617 -0.02100
N 	N 	0.76720 0.17557 0.12763 -0.20300
N 	N 	0.47580 0.25074 0.01404 -0.03600
N 	N 	0.51520 0.32642 0.04536 -0.18600
N 	N 	0.00420 0.36998 0.17648 -0.19900
N 	N 	0.73620 0.00894 0.08202 -0.19900
N 	N 	0.43740 0.17515 0.98313 -0.18400
N 	N 	0.08810 0.36576 0.29489 -0.20800
Mn	Mn	0.73965 0.65543 0.61365 1.25400
N 	N 	0.74830 0.90720 0.60507 -0.01700
N 	N 	0.45350 0.63400 0.73617 -0.02100
N 	N 	0.73280 0.82443 0.62763 -0.20300
N 	N 	0.02420 0.74926 0.51404 -0.03800
N 	N 	0.98480 0.67358 0.54536 -0.18500
N 	N 	0.49580 0.63002 0.67648 -0.20000
N 	N 	0.76380 0.99106 0.58202 -0.19900
N 	N 	0.06260 0.82485 0.48313 -0.18300
N 	N 	0.41190 0.63424 0.79489 -0.20800
Mn	Mn	0.76035 0.15543 0.61365 1.25400
N 	N 	0.75170 0.40720 0.60507 -0.01700
N 	N 	0.04650 0.13400 0.73617 -0.02100
N 	N 	0.76720 0.32443 0.62763 -0.20300
N 	N 	0.47580 0.24926 0.51404 -0.03700
N 	N 	0.51520 0.17358 0.54536 -0.18600
N 	N 	0.00420 0.13002 0.67648 -0.19900
N 	N 	0.73620 0.49106 0.58202 -0.20000
N 	N 	0.43740 0.32485 0.48313 -0.18300
N 	N 	0.08810 0.13424 0.79489 -0.20800
Mn	Mn	0.73965 0.84457 0.11365 1.25400
N 	N 	0.74830 0.59280 0.10507 -0.01700
N 	N 	0.45350 0.86600 0.23617 -0.02100
N 	N 	0.73280 0.67557 0.12763 -0.20300
N 	N 	0.02420 0.75074 0.01404 -0.03800
N 	N 	0.98480 0.82642 0.04536 -0.18600
N 	N 	0.49580 0.86998 0.17648 -0.20000
N 	N 	0.76380 0.50894 0.08202 -0.20000
N 	N 	0.06260 0.67515 0.98313 -0.18300
N 	N 	0.41190 0.86576 0.29489 -0.20800
Mn	Mn	0.23965 0.65543 0.88634 1.25400
N 	N 	0.24830 0.90720 0.89493 -0.01700
N 	N 	0.95350 0.63400 0.76383 -0.02100
N 	N 	0.23280 0.82443 0.87237 -0.20300
N 	N 	0.52420 0.74926 0.98596 -0.03600
N 	N 	0.48480 0.67358 0.95464 -0.18600
N 	N 	0.99580 0.63002 0.82352 -0.19900
N 	N 	0.26380 0.99106 0.91798 -0.19900
N 	N 	0.56260 0.82485 0.01687 -0.18400
N 	N 	0.91190 0.63424 0.70511 -0.20800
Mn	Mn	0.26035 0.34457 0.38634 1.25400
N 	N 	0.25170 0.09280 0.39493 -0.01700
N 	N 	0.54650 0.36600 0.26383 -0.02100
N 	N 	0.26720 0.17557 0.37237 -0.20300
N 	N 	0.97580 0.25074 0.48596 -0.03800
N 	N 	0.01520 0.32642 0.45464 -0.18500
N 	N 	0.50420 0.36998 0.32352 -0.20000
N 	N 	0.23620 0.00894 0.41798 -0.19900
N 	N 	0.93740 0.17515 0.51687 -0.18300
N 	N 	0.58810 0.36576 0.20511 -0.20800
