data_crystal

_cell_length_a 11.43250
_cell_length_b 23.17100
_cell_length_c 9.78520
_cell_angle_alpha 90.00000
_cell_angle_beta  102.15200
_cell_angle_gamma 90.00000

_symmetry_space_group_name_	'P 1'
_symmetry_space_group_name_H-M	'P 1'

loop_
_symmetry_equiv_pos_as_xyz
  x,y,z

loop_
_atom_site_label
_atom_site_type_symbol
_atom_site_fract_x
_atom_site_fract_y
_atom_site_fract_z
_atom_site_charge
O 	O 	0.19600 0.14586 0.71940 -0.51200
O 	O 	0.27700 0.23369 0.73250 -0.31600
O 	O 	0.65600 0.20888 0.35720 -0.55100
H 	H 	0.69450 0.23580 0.33460 0.33800
O 	O 	0.54180 0.27916 0.41110 -0.49900
C 	C 	0.42750 0.20202 0.55980 0.07300
H 	H 	0.41300 0.24120 0.56930 0.03200
C 	C 	0.38630 0.10342 0.60610 0.00100
H 	H 	0.34370 0.07640 0.64610 0.02400
C 	C 	0.51180 0.18437 0.48520 -0.13200
C 	C 	0.36470 0.16169 0.62000 -0.12300
C 	C 	0.27140 0.18107 0.69690 0.38800
C 	C 	0.53460 0.12615 0.47230 0.01300
H 	H 	0.59200 0.11440 0.42350 0.04700
C 	C 	0.49220 0.02460 0.51140 -0.02800
C 	C 	0.47160 0.08494 0.53240 -0.01400
C 	C 	0.57360 0.22859 0.41390 0.48300
O 	O 	0.69600 0.64586 0.71940 -0.49400
O 	O 	0.77700 0.73369 0.73250 -0.30400
O 	O 	0.15600 0.70888 0.35720 -0.57800
H 	H 	0.19450 0.73580 0.33460 0.34000
O 	O 	0.04180 0.77916 0.41110 -0.54600
C 	C 	0.92750 0.70202 0.55980 0.22200
H 	H 	0.91300 0.74120 0.56930 0.00700
C 	C 	0.88630 0.60342 0.60610 0.04900
H 	H 	0.84370 0.57640 0.64610 0.02300
C 	C 	0.01180 0.68437 0.48520 -0.24800
C 	C 	0.86470 0.66169 0.62000 -0.16200
C 	C 	0.77140 0.68107 0.69690 0.40800
C 	C 	0.03460 0.62615 0.47230 -0.02200
H 	H 	0.09200 0.61440 0.42350 0.03600
C 	C 	0.99220 0.52460 0.51140 0.14200
C 	C 	0.97160 0.58494 0.53240 -0.00400
C 	C 	0.07360 0.72859 0.41390 0.51000
O 	O 	0.80400 0.14586 0.78060 -0.46900
O 	O 	0.72300 0.23369 0.76750 -0.30200
O 	O 	0.34400 0.20888 0.14280 -0.56400
H 	H 	0.30550 0.23580 0.16540 0.33500
O 	O 	0.45820 0.27916 0.08890 -0.50900
C 	C 	0.57250 0.20202 0.94020 0.10500
H 	H 	0.58700 0.24120 0.93070 0.02800
C 	C 	0.61370 0.10342 0.89390 0.01000
H 	H 	0.65630 0.07640 0.85390 0.03300
C 	C 	0.48820 0.18437 0.01480 -0.15900
C 	C 	0.63530 0.16169 0.88000 -0.12200
C 	C 	0.72860 0.18107 0.80310 0.39000
C 	C 	0.46540 0.12615 0.02770 0.00700
H 	H 	0.40800 0.11440 0.07650 0.03800
C 	C 	0.50780 0.02460 0.98860 0.00900
C 	C 	0.52840 0.08494 0.96760 -0.00900
C 	C 	0.42640 0.22859 0.08610 0.49000
O 	O 	0.30400 0.64586 0.78060 -0.49200
O 	O 	0.22300 0.73369 0.76750 -0.31400
O 	O 	0.84400 0.70888 0.14280 -0.53700
H 	H 	0.80550 0.73580 0.16540 0.33400
O 	O 	0.95820 0.77916 0.08890 -0.45700
C 	C 	0.07250 0.70202 0.94020 -0.04000
H 	H 	0.08700 0.74120 0.93070 0.05400
C 	C 	0.11370 0.60342 0.89390 -0.03500
H 	H 	0.15630 0.57640 0.85390 0.03400
C 	C 	0.98820 0.68437 0.01480 -0.04400
C 	C 	0.13530 0.66169 0.88000 -0.08600
C 	C 	0.22860 0.68107 0.80310 0.37200
C 	C 	0.96540 0.62615 0.02770 0.04300
H 	H 	0.90800 0.61440 0.07650 0.04800
C 	C 	0.00780 0.52460 0.98860 -0.14800
C 	C 	0.02840 0.58494 0.96760 -0.02300
C 	C 	0.92640 0.72859 0.08610 0.46100
O 	O 	0.80400 0.85414 0.28060 -0.47200
O 	O 	0.72300 0.76631 0.26750 -0.30700
O 	O 	0.34400 0.79112 0.64280 -0.55800
H 	H 	0.30550 0.76420 0.66540 0.33700
O 	O 	0.45820 0.72084 0.58890 -0.50100
C 	C 	0.57250 0.79798 0.44020 0.07500
H 	H 	0.58700 0.75880 0.43070 0.03200
C 	C 	0.61370 0.89658 0.39390 0.00400
H 	H 	0.65630 0.92360 0.35390 0.03300
C 	C 	0.48820 0.81563 0.51480 -0.13400
C 	C 	0.63530 0.83831 0.38000 -0.11500
C 	C 	0.72860 0.81893 0.30310 0.38500
C 	C 	0.46540 0.87385 0.52770 0.01800
H 	H 	0.40800 0.88560 0.57650 0.04000
C 	C 	0.50780 0.97540 0.48860 -0.01700
C 	C 	0.52840 0.91506 0.46760 -0.01600
C 	C 	0.42640 0.77141 0.58610 0.48500
O 	O 	0.30400 0.35414 0.28060 -0.49600
O 	O 	0.22300 0.26631 0.26750 -0.31900
O 	O 	0.84400 0.29112 0.64280 -0.53100
H 	H 	0.80550 0.26420 0.66540 0.33500
O 	O 	0.95820 0.22084 0.58890 -0.44900
C 	C 	0.07250 0.29798 0.44020 -0.07400
H 	H 	0.08700 0.25880 0.43070 0.05800
C 	C 	0.11370 0.39658 0.39390 -0.04400
H 	H 	0.15630 0.42360 0.35390 0.03400
C 	C 	0.98820 0.31563 0.51480 -0.01700
C 	C 	0.13530 0.33831 0.38000 -0.07700
C 	C 	0.22860 0.31893 0.30310 0.36700
C 	C 	0.96540 0.37385 0.52770 0.05300
H 	H 	0.90800 0.38560 0.57650 0.05100
C 	C 	0.00780 0.47540 0.48860 -0.18700
C 	C 	0.02840 0.41506 0.46760 -0.02600
C 	C 	0.92640 0.27141 0.58610 0.45500
O 	O 	0.19600 0.85414 0.21940 -0.51500
O 	O 	0.27700 0.76631 0.23250 -0.32100
O 	O 	0.65600 0.79112 0.85720 -0.54600
H 	H 	0.69450 0.76420 0.83460 0.33900
O 	O 	0.54180 0.72084 0.91110 -0.49200
C 	C 	0.42750 0.79798 0.05980 0.04300
H 	H 	0.41300 0.75880 0.06930 0.03600
C 	C 	0.38630 0.89658 0.10610 -0.00500
H 	H 	0.34370 0.92360 0.14610 0.02400
C 	C 	0.51180 0.81563 0.98520 -0.10900
C 	C 	0.36470 0.83831 0.12000 -0.11600
C 	C 	0.27140 0.81893 0.19690 0.38400
C 	C 	0.53460 0.87385 0.97230 0.02500
H 	H 	0.59200 0.88560 0.92350 0.04900
C 	C 	0.49220 0.97540 0.01140 -0.05300
C 	C 	0.47160 0.91506 0.03240 -0.02100
C 	C 	0.57360 0.77141 0.91390 0.47700
O 	O 	0.69600 0.35414 0.21940 -0.49800
O 	O 	0.77700 0.26631 0.23250 -0.30900
O 	O 	0.15600 0.29112 0.85720 -0.57200
H 	H 	0.19450 0.26420 0.83460 0.34100
O 	O 	0.04180 0.22084 0.91110 -0.53800
C 	C 	0.92750 0.29798 0.05980 0.18800
H 	H 	0.91300 0.25880 0.06930 0.01100
C 	C 	0.88630 0.39658 0.10610 0.04000
H 	H 	0.84370 0.42360 0.14610 0.02300
C 	C 	0.01180 0.31563 0.98520 -0.22100
C 	C 	0.86470 0.33831 0.12000 -0.15300
C 	C 	0.77140 0.31893 0.19690 0.40300
C 	C 	0.03460 0.37385 0.97230 -0.01200
H 	H 	0.09200 0.38560 0.92350 0.03900
C 	C 	0.99220 0.47540 0.01140 0.10300
C 	C 	0.97160 0.41506 0.03240 -0.00700
C 	C 	0.07360 0.27141 0.91390 0.50500
Ca	Ca	0.00000 0.14614 0.75000 1.48200
Ca	Ca	0.50000 0.64614 0.75000 1.49500
Ca	Ca	0.00000 0.85386 0.25000 1.48100
Ca	Ca	0.50000 0.35386 0.25000 1.49400
