data_crystal

_cell_length_a 10.23250
_cell_length_b 10.45790
_cell_length_c 11.66500
_cell_angle_alpha 106.73700
_cell_angle_beta  108.85600
_cell_angle_gamma 104.54100

_symmetry_space_group_name_	'P 1'
_symmetry_space_group_name_H-M	'P 1'

loop_
_symmetry_equiv_pos_as_xyz
  x,y,z

loop_
_atom_site_label
_atom_site_type_symbol
_atom_site_fract_x
_atom_site_fract_y
_atom_site_fract_z
_atom_site_charge
Sr	Sr	0.36042 0.09467 0.43399 1.51600
O 	O 	0.28280 0.31830 0.48940 -0.53300
O 	O 	0.11900 0.10840 0.44790 -0.41300
O 	O 	0.62270 0.33100 0.54950 -0.65000
H 	H 	0.64180 0.35690 0.64100 0.18000
O 	O 	0.64030 0.11720 0.50040 -0.57300
O 	O 	0.55920 0.41110 0.87040 -0.23800
O 	O 	0.45640 0.20730 0.69010 -0.43100
O 	O 	0.39950 0.21660 0.28390 -0.50900
O 	O 	0.44100 0.41580 0.25200 -0.39300
C 	C 	0.16580 0.24240 0.49090 0.37400
C 	C 	0.08330 0.32070 0.55010 -0.12200
C 	C 	0.93590 0.24880 0.52430 0.07200
H 	H 	0.88880 0.14990 0.47400 0.01600
C 	C 	0.85900 0.32510 0.57390 -0.17400
C 	C 	0.93130 0.47220 0.65240 0.02300
H 	H 	0.87940 0.52350 0.68430 0.01300
C 	C 	0.08090 0.54370 0.68360 -0.01900
C 	C 	0.15480 0.46630 0.62910 0.01100
H 	H 	0.25350 0.51370 0.64640 0.03000
C 	C 	0.69680 0.25300 0.53980 0.43700
C 	C 	0.15860 0.69590 0.76430 -0.00500
C 	C 	0.23010 0.82130 0.82690 -0.02400
C 	C 	0.31220 0.97450 0.89300 0.00600
C 	C 	0.37040 0.04710 0.82680 -0.02100
H 	H 	0.35990 0.99580 0.74250 0.04000
C 	C 	0.44400 0.19610 0.88630 -0.10100
C 	C 	0.46200 0.27320 0.01280 0.03500
H 	H 	0.51230 0.37290 0.05270 0.05700
C 	C 	0.40470 0.20150 0.08000 -0.10700
C 	C 	0.33230 0.05270 0.02070 -0.01200
H 	H 	0.29660 0.00430 0.06650 0.02000
C 	C 	0.48720 0.26990 0.80510 0.34700
C 	C 	0.41630 0.28370 0.21450 0.38000
Sr	Sr	0.63958 0.90533 0.56601 1.51700
O 	O 	0.71720 0.68170 0.51060 -0.53200
O 	O 	0.88100 0.89160 0.55210 -0.41200
O 	O 	0.37730 0.66900 0.45050 -0.64900
H 	H 	0.35820 0.64310 0.35900 0.18100
O 	O 	0.35970 0.88280 0.49960 -0.57300
O 	O 	0.44080 0.58890 0.12960 -0.23800
O 	O 	0.54360 0.79270 0.30990 -0.43100
O 	O 	0.60050 0.78340 0.71610 -0.50900
O 	O 	0.55900 0.58420 0.74800 -0.39300
C 	C 	0.83420 0.75760 0.50910 0.37400
C 	C 	0.91670 0.67930 0.44990 -0.12200
C 	C 	0.06410 0.75120 0.47570 0.07200
H 	H 	0.11120 0.85010 0.52600 0.01600
C 	C 	0.14100 0.67490 0.42610 -0.17400
C 	C 	0.06870 0.52780 0.34760 0.02300
H 	H 	0.12060 0.47650 0.31570 0.01300
C 	C 	0.91910 0.45630 0.31640 -0.01900
C 	C 	0.84520 0.53370 0.37090 0.01100
H 	H 	0.74650 0.48630 0.35360 0.03000
C 	C 	0.30320 0.74700 0.46020 0.43700
C 	C 	0.84140 0.30410 0.23570 -0.00500
C 	C 	0.76990 0.17870 0.17310 -0.02400
C 	C 	0.68780 0.02550 0.10700 0.00600
C 	C 	0.62960 0.95290 0.17320 -0.02100
H 	H 	0.64010 0.00420 0.25750 0.04000
C 	C 	0.55600 0.80390 0.11370 -0.10100
C 	C 	0.53800 0.72680 0.98720 0.03500
H 	H 	0.48770 0.62710 0.94730 0.05700
C 	C 	0.59530 0.79850 0.92000 -0.10700
C 	C 	0.66770 0.94730 0.97930 -0.01200
H 	H 	0.70340 0.99570 0.93350 0.02000
C 	C 	0.51280 0.73010 0.19490 0.34700
C 	C 	0.58370 0.71630 0.78550 0.38000
Sr	Sr	0.50000 0.50000 0.50000 1.53100
