data_crystal

_cell_length_a 6.38050
_cell_length_b 10.05600
_cell_length_c 11.24290
_cell_angle_alpha 116.56500
_cell_angle_beta  96.35430
_cell_angle_gamma 90.00000

_symmetry_space_group_name_	'P 1'
_symmetry_space_group_name_H-M	'P 1'

loop_
_symmetry_equiv_pos_as_xyz
  x,y,z

loop_
_atom_site_label
_atom_site_type_symbol
_atom_site_fract_x
_atom_site_fract_y
_atom_site_fract_z
_atom_site_charge
Ni	Ni	-0.00000 0.65028 -0.00000 0.87500
Ni	Ni	-0.00000 0.34972 -0.00000 0.87900
Ni	Ni	0.50000 0.50000 -0.00000 0.99900
H 	H 	0.57590 0.62400 0.65400 -0.02300
H 	H 	0.41390 0.62060 0.61900 0.06600
H 	H 	0.25090 0.56500 0.66040 0.05500
H 	H 	0.86030 0.49250 0.56340 0.23600
H 	H 	0.68740 0.59700 0.57060 0.16300
H 	H 	0.42410 0.97000 0.34600 0.00800
H 	H 	0.58610 0.00160 0.38100 0.05000
H 	H 	0.74910 0.90460 0.33960 0.05100
H 	H 	0.13970 0.92910 0.43660 0.05200
H 	H 	0.31260 0.02640 0.42940 0.08400
H 	H 	0.42410 0.37600 0.34600 0.11600
H 	H 	0.58610 0.37940 0.38100 0.00100
H 	H 	0.74910 0.43500 0.33960 0.00200
H 	H 	0.13970 0.50750 0.43660 -0.06100
H 	H 	0.31260 0.40300 0.42940 -0.00600
H 	H 	0.57590 0.03000 0.65400 0.08500
H 	H 	0.41390 0.99840 0.61900 0.01600
H 	H 	0.25090 0.09540 0.66040 0.00600
H 	H 	0.86030 0.07090 0.56340 0.12400
H 	H 	0.68740 0.97360 0.57060 0.07300
H 	H 	0.84270 0.57650 0.15300 0.25100
H 	H 	0.15730 0.42350 0.84700 0.13300
C 	C 	0.57030 0.52580 0.63480 0.07300
C 	C 	0.35000 0.51140 0.59220 -0.19700
C 	C 	0.72520 0.49610 0.54280 -0.40600
C 	C 	0.64990 0.55990 0.77720 0.27700
C 	C 	0.42970 0.89100 0.36520 -0.10500
C 	C 	0.65000 0.91920 0.40780 -0.04500
C 	C 	0.27480 0.95330 0.45720 -0.19100
C 	C 	0.35010 0.78270 0.22280 0.36000
C 	C 	0.42970 0.47420 0.36520 -0.33200
C 	C 	0.65000 0.48860 0.40780 0.16200
C 	C 	0.27480 0.50390 0.45720 0.11000
C 	C 	0.35010 0.44010 0.22280 0.43000
C 	C 	0.57030 0.10900 0.63480 -0.15300
C 	C 	0.35000 0.08080 0.59220 0.01100
C 	C 	0.72520 0.04670 0.54280 -0.10800
C 	C 	0.64990 0.21730 0.77720 0.34700
O 	O 	0.84470 0.56950 0.81020 -0.26600
O 	O 	0.51160 0.57350 0.85440 -0.29000
O 	O 	0.15530 0.75930 0.18980 -0.55400
O 	O 	0.48840 0.71910 0.14560 -0.50000
O 	O 	0.15530 0.43050 0.18980 -0.56900
O 	O 	0.48840 0.42650 0.14560 -0.51600
O 	O 	0.84470 0.24070 0.81020 -0.28100
O 	O 	0.51160 0.28090 0.85440 -0.30500
O 	O 	0.81700 0.52880 0.05760 -0.73000
O 	O 	0.18300 0.47120 0.94240 -0.45700
