data_crystal

_cell_length_a 10.09200
_cell_length_b 21.81800
_cell_length_c 6.52300
_cell_angle_alpha 90.00000
_cell_angle_beta  90.00000
_cell_angle_gamma 90.00000

_symmetry_space_group_name_	'P 1'
_symmetry_space_group_name_H-M	'P 1'

loop_
_symmetry_equiv_pos_as_xyz
  x,y,z

loop_
_atom_site_label
_atom_site_type_symbol
_atom_site_fract_x
_atom_site_fract_y
_atom_site_fract_z
_atom_site_charge
N 	N 	0.98710 0.71649 0.68920 -0.12700
H 	H 	0.76630 0.61490 0.62040 0.03400
C 	C 	0.84200 0.72725 0.68380 -0.02300
H 	H 	0.80200 0.70930 0.80500 0.02900
H 	H 	0.82520 0.77100 0.68710 0.04400
C 	C 	0.00910 0.64909 0.68370 -0.02300
H 	H 	0.10360 0.64080 0.68540 0.04700
H 	H 	0.97040 0.63060 0.80490 0.03500
O 	O 	0.38400 0.65070 0.55100 -0.32300
O 	O 	0.46900 0.62720 0.74100 -0.09700
O 	O 	0.58900 0.35510 0.43400 0.08300
O 	O 	0.51900 0.36870 0.74400 -0.13200
C 	C 	0.40500 0.61330 0.41300 0.12700
C 	C 	0.35730 0.54660 0.41300 -0.22200
H 	H 	0.30950 0.53930 0.53930 0.30600
H 	H 	0.29580 0.54070 0.30010 0.07300
C 	C 	0.46760 0.49990 0.39600 0.05300
H 	H 	0.51640 0.50790 0.27040 -0.00400
H 	H 	0.42890 0.45930 0.38390 0.03600
C 	C 	0.56450 0.49990 0.57500 -0.04800
H 	H 	0.51520 0.49880 0.70290 0.02200
H 	H 	0.61560 0.53760 0.57280 0.01500
C 	C 	0.65890 0.44540 0.56700 -0.17200
H 	H 	0.72350 0.44840 0.67650 0.05900
H 	H 	0.70610 0.44520 0.43720 -0.11100
C 	C 	0.58000 0.38560 0.59100 0.20300
N 	N 	0.01290 0.28351 0.68920 -0.12600
H 	H 	0.23370 0.38510 0.62040 0.03500
C 	C 	0.15800 0.27275 0.68380 -0.02200
H 	H 	0.19800 0.29070 0.80500 0.03000
H 	H 	0.17480 0.22900 0.68710 0.04500
C 	C 	0.99090 0.35091 0.68370 -0.02200
H 	H 	0.89640 0.35920 0.68540 0.04700
H 	H 	0.02960 0.36940 0.80490 0.03500
O 	O 	0.61600 0.34930 0.55100 -0.32300
O 	O 	0.53100 0.37280 0.74100 -0.09700
O 	O 	0.41100 0.64490 0.43400 0.08300
O 	O 	0.48100 0.63130 0.74400 -0.13200
C 	C 	0.59500 0.38670 0.41300 0.12700
C 	C 	0.64270 0.45340 0.41300 -0.22200
H 	H 	0.69050 0.46070 0.53930 0.30600
H 	H 	0.70420 0.45930 0.30010 0.07300
C 	C 	0.53240 0.50010 0.39600 0.05300
H 	H 	0.48360 0.49210 0.27040 -0.00400
H 	H 	0.57110 0.54070 0.38390 0.03600
C 	C 	0.43550 0.50010 0.57500 -0.04800
H 	H 	0.48480 0.50120 0.70290 0.02200
H 	H 	0.38440 0.46240 0.57280 0.01500
C 	C 	0.34110 0.55460 0.56700 -0.17200
H 	H 	0.27650 0.55160 0.67650 0.05900
H 	H 	0.29390 0.55480 0.43720 -0.11100
C 	C 	0.42000 0.61440 0.59100 0.20300
N 	N 	0.51290 0.21649 0.81080 -0.12800
H 	H 	0.73370 0.11490 0.87960 0.05100
C 	C 	0.65800 0.22725 0.81620 -0.00400
H 	H 	0.69800 0.20930 0.69500 0.02100
H 	H 	0.67480 0.27100 0.81290 0.04300
C 	C 	0.49090 0.14909 0.81630 0.00300
H 	H 	0.39640 0.14080 0.81460 0.04200
H 	H 	0.52960 0.13060 0.69510 0.02400
O 	O 	0.11600 0.15070 0.94900 -0.29700
O 	O 	0.03100 0.12720 0.75900 -0.09800
O 	O 	0.91100 0.85510 0.06600 0.05100
O 	O 	0.98100 0.86870 0.75600 -0.13000
C 	C 	0.09500 0.11330 0.08700 0.14400
C 	C 	0.14270 0.04660 0.08700 -0.24900
H 	H 	0.19050 0.03930 0.96070 0.31000
H 	H 	0.20420 0.04070 0.19990 0.06700
C 	C 	0.03240 0.99990 0.10400 0.05600
H 	H 	0.98360 0.00790 0.22960 0.00700
H 	H 	0.07110 0.95930 0.11610 0.07700
C 	C 	0.93550 0.99990 0.92500 -0.03800
H 	H 	0.98480 0.99880 0.79710 0.01900
H 	H 	0.88440 0.03760 0.92720 0.07200
C 	C 	0.84110 0.94540 0.93300 -0.16800
H 	H 	0.77650 0.94840 0.82350 0.04100
H 	H 	0.79390 0.94520 0.06280 -0.11100
C 	C 	0.92000 0.88560 0.90900 0.18500
N 	N 	0.48710 0.78351 0.81080 -0.12800
H 	H 	0.26630 0.88510 0.87960 0.05100
C 	C 	0.34200 0.77275 0.81620 -0.00400
H 	H 	0.30200 0.79070 0.69500 0.02100
H 	H 	0.32520 0.72900 0.81290 0.04300
C 	C 	0.50910 0.85091 0.81630 0.00300
H 	H 	0.60360 0.85920 0.81460 0.04200
H 	H 	0.47040 0.86940 0.69510 0.02400
O 	O 	0.88400 0.84930 0.94900 -0.29700
O 	O 	0.96900 0.87280 0.75900 -0.09800
O 	O 	0.08900 0.14490 0.06600 0.05100
O 	O 	0.01900 0.13130 0.75600 -0.13000
C 	C 	0.90500 0.88670 0.08700 0.14400
C 	C 	0.85730 0.95340 0.08700 -0.24900
H 	H 	0.80950 0.96070 0.96070 0.31000
H 	H 	0.79580 0.95930 0.19990 0.06700
C 	C 	0.96760 0.00010 0.10400 0.05600
H 	H 	0.01640 0.99210 0.22960 0.00700
H 	H 	0.92890 0.04070 0.11610 0.07700
C 	C 	0.06450 0.00010 0.92500 -0.03800
H 	H 	0.01520 0.00120 0.79710 0.01900
H 	H 	0.11560 0.96240 0.92720 0.07200
C 	C 	0.15890 0.05460 0.93300 -0.16800
H 	H 	0.22350 0.05160 0.82350 0.04100
H 	H 	0.20610 0.05480 0.06280 -0.11100
C 	C 	0.08000 0.11440 0.90900 0.18500
N 	N 	0.01290 0.28351 0.31080 -0.13000
H 	H 	0.23370 0.38510 0.37960 0.03200
C 	C 	0.15800 0.27275 0.31620 -0.01900
H 	H 	0.19800 0.29070 0.19500 0.02100
H 	H 	0.17480 0.22900 0.31290 0.04200
C 	C 	0.99090 0.35091 0.31630 -0.01800
H 	H 	0.89640 0.35920 0.31460 0.04200
H 	H 	0.02960 0.36940 0.19510 0.02600
O 	O 	0.61600 0.34930 0.44900 -0.30700
O 	O 	0.53100 0.37280 0.25900 -0.10100
O 	O 	0.41100 0.64490 0.56600 0.07200
O 	O 	0.48100 0.63130 0.25600 -0.13200
C 	C 	0.59500 0.38670 0.58700 0.14200
C 	C 	0.64270 0.45340 0.58700 -0.25700
H 	H 	0.69050 0.46070 0.46070 0.31300
H 	H 	0.70420 0.45930 0.69990 0.05200
C 	C 	0.53240 0.50010 0.60400 0.06500
H 	H 	0.48360 0.49210 0.72960 -0.01400
H 	H 	0.57110 0.54070 0.61610 0.01200
C 	C 	0.43550 0.50010 0.42500 -0.05300
H 	H 	0.48480 0.50120 0.29710 0.01200
H 	H 	0.38440 0.46240 0.42720 -0.01200
C 	C 	0.34110 0.55460 0.43300 -0.16100
H 	H 	0.27650 0.55160 0.32350 0.02700
H 	H 	0.29390 0.55480 0.56280 -0.08800
C 	C 	0.42000 0.61440 0.40900 0.18600
N 	N 	0.98710 0.71649 0.31080 -0.13000
H 	H 	0.76630 0.61490 0.37960 0.03200
C 	C 	0.84200 0.72725 0.31620 -0.01900
H 	H 	0.80200 0.70930 0.19500 0.02100
H 	H 	0.82520 0.77100 0.31290 0.04200
C 	C 	0.00910 0.64909 0.31630 -0.01800
H 	H 	0.10360 0.64080 0.31460 0.04200
H 	H 	0.97040 0.63060 0.19510 0.02600
O 	O 	0.38400 0.65070 0.44900 -0.30700
O 	O 	0.46900 0.62720 0.25900 -0.10100
O 	O 	0.58900 0.35510 0.56600 0.07200
O 	O 	0.51900 0.36870 0.25600 -0.13200
C 	C 	0.40500 0.61330 0.58700 0.14200
C 	C 	0.35730 0.54660 0.58700 -0.25700
H 	H 	0.30950 0.53930 0.46070 0.31300
H 	H 	0.29580 0.54070 0.69990 0.05200
C 	C 	0.46760 0.49990 0.60400 0.06500
H 	H 	0.51640 0.50790 0.72960 -0.01400
H 	H 	0.42890 0.45930 0.61610 0.01200
C 	C 	0.56450 0.49990 0.42500 -0.05300
H 	H 	0.51520 0.49880 0.29710 0.01200
H 	H 	0.61560 0.53760 0.42720 -0.01200
C 	C 	0.65890 0.44540 0.43300 -0.16100
H 	H 	0.72350 0.44840 0.32350 0.02700
H 	H 	0.70610 0.44520 0.56280 -0.08800
C 	C 	0.58000 0.38560 0.40900 0.18600
N 	N 	0.48710 0.78351 0.18920 -0.13100
H 	H 	0.26630 0.88510 0.12040 0.04000
C 	C 	0.34200 0.77275 0.18380 -0.02100
H 	H 	0.30200 0.79070 0.30500 0.02400
H 	H 	0.32520 0.72900 0.18710 0.04000
C 	C 	0.50910 0.85091 0.18370 -0.01400
H 	H 	0.60360 0.85920 0.18540 0.04100
H 	H 	0.47040 0.86940 0.30490 0.02800
O 	O 	0.88400 0.84930 0.05100 -0.33100
O 	O 	0.96900 0.87280 0.24100 -0.09900
O 	O 	0.08900 0.14490 0.93400 0.10400
O 	O 	0.01900 0.13130 0.24400 -0.13300
C 	C 	0.90500 0.88670 0.91300 0.12500
C 	C 	0.85730 0.95340 0.91300 -0.22800
H 	H 	0.80950 0.96070 0.03930 0.31000
H 	H 	0.79580 0.95930 0.80010 0.06000
C 	C 	0.96760 0.00010 0.89600 0.07600
H 	H 	0.01640 0.99210 0.77040 -0.01500
H 	H 	0.92890 0.04070 0.88390 -0.03900
C 	C 	0.06450 0.00010 0.07500 -0.07200
H 	H 	0.01520 0.00120 0.20290 0.00200
H 	H 	0.11560 0.96240 0.07280 -0.06400
C 	C 	0.15890 0.05460 0.06700 -0.16500
H 	H 	0.22350 0.05160 0.17650 0.04400
H 	H 	0.20610 0.05480 0.93720 -0.09000
C 	C 	0.08000 0.11440 0.09100 0.20400
N 	N 	0.51290 0.21649 0.18920 -0.13100
H 	H 	0.73370 0.11490 0.12040 0.04000
C 	C 	0.65800 0.22725 0.18380 -0.02100
H 	H 	0.69800 0.20930 0.30500 0.02400
H 	H 	0.67480 0.27100 0.18710 0.04000
C 	C 	0.49090 0.14909 0.18370 -0.01400
H 	H 	0.39640 0.14080 0.18540 0.04100
H 	H 	0.52960 0.13060 0.30490 0.02800
O 	O 	0.11600 0.15070 0.05100 -0.33100
O 	O 	0.03100 0.12720 0.24100 -0.09900
O 	O 	0.91100 0.85510 0.93400 0.10400
O 	O 	0.98100 0.86870 0.24400 -0.13300
C 	C 	0.09500 0.11330 0.91300 0.12500
C 	C 	0.14270 0.04660 0.91300 -0.22800
H 	H 	0.19050 0.03930 0.03930 0.31000
H 	H 	0.20420 0.04070 0.80010 0.06000
C 	C 	0.03240 0.99990 0.89600 0.07600
H 	H 	0.98360 0.00790 0.77040 -0.01500
H 	H 	0.07110 0.95930 0.88390 -0.03900
C 	C 	0.93550 0.99990 0.07500 -0.07200
H 	H 	0.98480 0.99880 0.20290 0.00200
H 	H 	0.88440 0.03760 0.07280 -0.06400
C 	C 	0.84110 0.94540 0.06700 -0.16500
H 	H 	0.77650 0.94840 0.17650 0.04400
H 	H 	0.79390 0.94520 0.93720 -0.09000
C 	C 	0.92000 0.88560 0.09100 0.20400
Ag	Ag	0.55524 0.72995 0.50000 0.55700
N 	N 	0.77940 0.70070 0.50000 -0.13900
N 	N 	0.95000 0.62150 0.50000 -0.09800
C 	C 	0.80610 0.63340 0.50000 -0.01200
C 	C 	0.04440 0.74350 0.50000 -0.02900
H 	H 	0.02820 0.78730 0.50000 0.05400
H 	H 	0.13960 0.73720 0.50000 0.03800
Ag	Ag	0.44476 0.27005 0.50000 0.55700
N 	N 	0.22060 0.29930 0.50000 -0.13900
N 	N 	0.05000 0.37850 0.50000 -0.09800
C 	C 	0.19390 0.36660 0.50000 -0.01200
C 	C 	0.95560 0.25650 0.50000 -0.02900
H 	H 	0.97180 0.21270 0.50000 0.05400
H 	H 	0.86040 0.26280 0.50000 0.03800
Ag	Ag	0.94476 0.22995 -0.00000 0.54700
N 	N 	0.72060 0.20070 -0.00000 -0.14500
N 	N 	0.55000 0.12150 -0.00000 -0.10500
C 	C 	0.69390 0.13340 -0.00000 -0.04300
C 	C 	0.45560 0.24350 -0.00000 -0.03700
H 	H 	0.47180 0.28730 -0.00000 0.05200
H 	H 	0.36040 0.23720 -0.00000 0.03500
Ag	Ag	0.05524 0.77005 -0.00000 0.54700
N 	N 	0.27940 0.79930 -0.00000 -0.14500
N 	N 	0.45000 0.87850 -0.00000 -0.10500
C 	C 	0.30610 0.86660 -0.00000 -0.04300
C 	C 	0.54440 0.75650 -0.00000 -0.03700
H 	H 	0.52820 0.71270 -0.00000 0.05200
H 	H 	0.63960 0.76280 -0.00000 0.03500
