data_crystal

_cell_length_a 6.78020
_cell_length_b 22.02780
_cell_length_c 24.39920
_cell_angle_alpha 105.09600
_cell_angle_beta  90.00000
_cell_angle_gamma 90.00000

_symmetry_space_group_name_	'P 1'
_symmetry_space_group_name_H-M	'P 1'

loop_
_symmetry_equiv_pos_as_xyz
  x,y,z

loop_
_atom_site_label
_atom_site_type_symbol
_atom_site_fract_x
_atom_site_fract_y
_atom_site_fract_z
_atom_site_charge
Zn	Zn	0.52972 0.76124 0.56330 1.22200
Zn	Zn	0.52504 0.73508 0.41829 1.20600
Zn	Zn	0.02972 0.23876 0.93670 1.22000
Zn	Zn	0.02504 0.26492 0.08171 1.20500
Zn	Zn	0.47028 0.23876 0.43670 1.22300
Zn	Zn	0.47496 0.26492 0.58171 1.20700
Zn	Zn	0.97028 0.76124 0.06330 1.22100
Zn	Zn	0.97496 0.73508 0.91829 1.20600
H 	H 	0.30910 0.59690 0.60750 0.03600
H 	H 	0.84590 0.63300 0.51620 0.02700
H 	H 	0.08490 0.90480 0.60100 0.03900
H 	H 	0.53670 0.99940 0.55710 0.03200
H 	H 	0.59150 0.80820 0.80390 0.04000
H 	H 	0.61490 0.69120 0.65260 0.00100
H 	H 	0.86870 0.67780 0.71020 0.08200
H 	H 	0.32970 0.82350 0.74830 0.05600
H 	H 	0.17370 0.63920 0.72060 0.06000
H 	H 	0.91310 0.82340 0.60650 0.00100
H 	H 	0.43970 0.62470 0.77530 0.03900
H 	H 	0.17260 0.81280 0.66240 0.07600
H 	H 	0.08010 0.13270 0.51870 0.08100
H 	H 	0.75260 0.08280 0.63900 0.07000
H 	H 	0.54510 0.16650 0.63950 0.00300
H 	H 	0.87690 0.98870 0.60420 0.07200
H 	H 	0.85860 0.21190 0.52080 0.00600
H 	H 	0.32580 0.08140 0.55410 0.06300
H 	H 	0.03420 0.41790 0.60660 0.08600
H 	H 	0.87880 0.32590 0.60810 -0.01000
H 	H 	0.67970 0.54810 0.53250 0.05600
H 	H 	0.14060 0.51240 0.62430 0.05800
H 	H 	0.37130 0.38880 0.56990 -0.01300
H 	H 	0.51190 0.48490 0.56840 0.07200
H 	H 	0.54000 0.78100 0.49500 -0.09000
H 	H 	0.80910 0.40310 0.89250 0.03600
H 	H 	0.34590 0.36700 0.98380 0.02600
H 	H 	0.58490 0.09520 0.89900 0.03500
H 	H 	0.03670 0.00060 0.94290 0.02700
H 	H 	0.09150 0.19180 0.69610 0.04200
H 	H 	0.11490 0.30880 0.84740 0.00100
H 	H 	0.36870 0.32220 0.78980 0.08100
H 	H 	0.82970 0.17650 0.75170 0.05400
H 	H 	0.67370 0.36080 0.77940 0.05900
H 	H 	0.41310 0.17660 0.89350 -0.00000
H 	H 	0.93970 0.37530 0.72470 0.03800
H 	H 	0.67260 0.18720 0.83760 0.07800
H 	H 	0.58010 0.86730 0.98130 0.08400
H 	H 	0.25260 0.91720 0.86100 0.06900
H 	H 	0.04510 0.83350 0.86050 0.00500
H 	H 	0.37690 0.01130 0.89580 0.07600
H 	H 	0.35860 0.78810 0.97920 0.00600
H 	H 	0.82580 0.91860 0.94590 0.06600
H 	H 	0.53420 0.58210 0.89340 0.08800
H 	H 	0.37880 0.67410 0.89190 -0.01100
H 	H 	0.17970 0.45190 0.96750 0.05600
H 	H 	0.64060 0.48760 0.87570 0.05900
H 	H 	0.87130 0.61120 0.93010 -0.01800
H 	H 	0.01190 0.51510 0.93160 0.07400
H 	H 	0.04000 0.21900 0.00500 -0.09200
H 	H 	0.69090 0.40310 0.39250 0.03600
H 	H 	0.15410 0.36700 0.48380 0.02700
H 	H 	0.91510 0.09520 0.39900 0.03900
H 	H 	0.46330 0.00060 0.44290 0.03200
H 	H 	0.40850 0.19180 0.19610 0.04000
H 	H 	0.38510 0.30880 0.34740 0.00100
H 	H 	0.13130 0.32220 0.28980 0.08200
H 	H 	0.67030 0.17650 0.25170 0.05600
H 	H 	0.82630 0.36080 0.27940 0.06000
H 	H 	0.08690 0.17660 0.39350 0.00100
H 	H 	0.56030 0.37530 0.22470 0.03900
H 	H 	0.82740 0.18720 0.33760 0.07600
H 	H 	0.91990 0.86730 0.48130 0.08100
H 	H 	0.24740 0.91720 0.36100 0.07000
H 	H 	0.45490 0.83350 0.36050 0.00300
H 	H 	0.12310 0.01130 0.39580 0.07200
H 	H 	0.14140 0.78810 0.47920 0.00600
H 	H 	0.67420 0.91860 0.44590 0.06300
H 	H 	0.96580 0.58210 0.39340 0.08600
H 	H 	0.12120 0.67410 0.39190 -0.01000
H 	H 	0.32030 0.45190 0.46750 0.05600
H 	H 	0.85940 0.48760 0.37570 0.05800
H 	H 	0.62870 0.61120 0.43010 -0.01300
H 	H 	0.48810 0.51510 0.43160 0.07200
H 	H 	0.46000 0.21900 0.50500 -0.09000
H 	H 	0.19090 0.59690 0.10750 0.03600
H 	H 	0.65410 0.63300 0.01620 0.02600
H 	H 	0.41510 0.90480 0.10100 0.03500
H 	H 	0.96330 0.99940 0.05710 0.02700
H 	H 	0.90850 0.80820 0.30390 0.04200
H 	H 	0.88510 0.69120 0.15260 0.00100
H 	H 	0.63130 0.67780 0.21020 0.08100
H 	H 	0.17030 0.82350 0.24830 0.05400
H 	H 	0.32630 0.63920 0.22060 0.05900
H 	H 	0.58690 0.82340 0.10650 -0.00000
H 	H 	0.06030 0.62470 0.27530 0.03800
H 	H 	0.32740 0.81280 0.16240 0.07800
H 	H 	0.41990 0.13270 0.01870 0.08400
H 	H 	0.74740 0.08280 0.13900 0.06900
H 	H 	0.95490 0.16650 0.13950 0.00500
H 	H 	0.62310 0.98870 0.10420 0.07600
H 	H 	0.64140 0.21190 0.02080 0.00600
H 	H 	0.17420 0.08140 0.05410 0.06600
H 	H 	0.46580 0.41790 0.10660 0.08800
H 	H 	0.62120 0.32590 0.10810 -0.01100
H 	H 	0.82030 0.54810 0.03250 0.05600
H 	H 	0.35940 0.51240 0.12430 0.05900
H 	H 	0.12870 0.38880 0.06990 -0.01800
H 	H 	0.98810 0.48490 0.06840 0.07400
H 	H 	0.96000 0.78100 0.99500 -0.09200
C 	C 	0.46630 0.88790 0.57510 0.34100
C 	C 	0.09630 0.62340 0.55990 -0.08800
C 	C 	0.20340 0.67860 0.54830 0.33600
C 	C 	0.18090 0.58700 0.59210 0.01700
C 	C 	0.90680 0.60810 0.53800 0.01500
C 	C 	0.33230 0.94310 0.57810 -0.10600
C 	C 	0.70080 0.70540 0.83460 0.32400
C 	C 	0.13550 0.94130 0.59200 0.03500
C 	C 	0.40080 0.99630 0.56550 0.02800
C 	C 	0.53870 0.71520 0.79600 -0.09600
C 	C 	0.50650 0.77410 0.78710 0.01700
C 	C 	0.05220 0.74300 0.69250 0.07800
C 	C 	0.73070 0.71600 0.65430 0.08300
C 	C 	0.88120 0.70780 0.68870 -0.14100
C 	C 	0.22180 0.73310 0.72770 0.01100
C 	C 	0.35120 0.78300 0.75390 -0.08500
C 	C 	0.25780 0.67350 0.73710 -0.08400
C 	C 	0.90520 0.79290 0.62760 0.07900
C 	C 	0.41480 0.66530 0.77000 0.00800
C 	C 	0.05930 0.78700 0.66080 -0.13500
C 	C 	0.94360 0.09710 0.57880 0.05900
C 	C 	0.97020 0.13800 0.54360 -0.11700
C 	C 	0.77910 0.10890 0.61450 -0.12000
C 	C 	0.65410 0.15890 0.61420 0.06100
C 	C 	0.07880 0.04420 0.57860 0.02900
C 	C 	0.01060 0.99090 0.59330 -0.09300
C 	C 	0.83770 0.18550 0.54540 0.06800
C 	C 	0.27530 0.04580 0.56460 -0.09100
C 	C 	0.89700 0.41340 0.59870 -0.13300
C 	C 	0.79250 0.46280 0.58580 0.06800
C 	C 	0.80310 0.35870 0.59990 0.09100
C 	C 	0.89290 0.51980 0.57940 0.01900
C 	C 	0.80840 0.55770 0.54770 -0.08200
C 	C 	0.08050 0.53650 0.60170 -0.08400
C 	C 	0.50800 0.39520 0.57780 0.07700
C 	C 	0.59210 0.45270 0.57620 -0.13000
C 	C 	0.96630 0.11210 0.92490 0.35100
C 	C 	0.59630 0.37660 0.94010 -0.09200
C 	C 	0.70340 0.32140 0.95170 0.33700
C 	C 	0.68090 0.41300 0.90790 0.01900
C 	C 	0.40680 0.39190 0.96200 0.02000
C 	C 	0.83230 0.05690 0.92190 -0.11500
C 	C 	0.20080 0.29460 0.66540 0.32400
C 	C 	0.63550 0.05870 0.90800 0.04300
C 	C 	0.90080 0.00370 0.93450 0.04000
C 	C 	0.03870 0.28480 0.70400 -0.09700
C 	C 	0.00650 0.22590 0.71290 0.00900
C 	C 	0.55220 0.25700 0.80750 0.07500
C 	C 	0.23070 0.28400 0.84570 0.08100
C 	C 	0.38120 0.29220 0.81130 -0.13600
C 	C 	0.72180 0.26690 0.77230 0.01000
C 	C 	0.85120 0.21700 0.74610 -0.07700
C 	C 	0.75780 0.32650 0.76290 -0.08400
C 	C 	0.40520 0.20710 0.87240 0.08400
C 	C 	0.91480 0.33470 0.73000 0.01200
C 	C 	0.55930 0.21300 0.83920 -0.14000
C 	C 	0.44360 0.90290 0.92120 0.05500
C 	C 	0.47020 0.86200 0.95640 -0.12000
C 	C 	0.27910 0.89110 0.88550 -0.11700
C 	C 	0.15410 0.84110 0.88580 0.06000
C 	C 	0.57880 0.95580 0.92140 0.04000
C 	C 	0.51060 0.00910 0.90670 -0.10300
C 	C 	0.33770 0.81450 0.95460 0.06900
C 	C 	0.77530 0.95420 0.93540 -0.10000
C 	C 	0.39700 0.58660 0.90130 -0.13600
C 	C 	0.29250 0.53720 0.91420 0.07000
C 	C 	0.30310 0.64130 0.90010 0.09300
C 	C 	0.39290 0.48020 0.92060 0.02100
C 	C 	0.30840 0.44230 0.95230 -0.08400
C 	C 	0.58050 0.46350 0.89830 -0.08700
C 	C 	0.00800 0.60480 0.92220 0.08700
C 	C 	0.09210 0.54730 0.92380 -0.13500
C 	C 	0.53370 0.11210 0.42490 0.34100
C 	C 	0.90370 0.37660 0.44010 -0.08800
C 	C 	0.79660 0.32140 0.45170 0.33600
C 	C 	0.81910 0.41300 0.40790 0.01700
C 	C 	0.09320 0.39190 0.46200 0.01500
C 	C 	0.66770 0.05690 0.42190 -0.10600
C 	C 	0.29920 0.29460 0.16540 0.32400
C 	C 	0.86450 0.05870 0.40800 0.03500
C 	C 	0.59920 0.00370 0.43450 0.02800
C 	C 	0.46130 0.28480 0.20400 -0.09600
C 	C 	0.49350 0.22590 0.21290 0.01700
C 	C 	0.94780 0.25700 0.30750 0.07800
C 	C 	0.26930 0.28400 0.34570 0.08300
C 	C 	0.11880 0.29220 0.31130 -0.14100
C 	C 	0.77820 0.26690 0.27230 0.01100
C 	C 	0.64880 0.21700 0.24610 -0.08500
C 	C 	0.74220 0.32650 0.26290 -0.08400
C 	C 	0.09480 0.20710 0.37240 0.07900
C 	C 	0.58520 0.33470 0.23000 0.00800
C 	C 	0.94070 0.21300 0.33920 -0.13500
C 	C 	0.05640 0.90290 0.42120 0.05900
C 	C 	0.02980 0.86200 0.45640 -0.11700
C 	C 	0.22090 0.89110 0.38550 -0.12000
C 	C 	0.34590 0.84110 0.38580 0.06100
C 	C 	0.92120 0.95580 0.42140 0.02900
C 	C 	0.98940 0.00910 0.40670 -0.09300
C 	C 	0.16230 0.81450 0.45460 0.06800
C 	C 	0.72470 0.95420 0.43540 -0.09100
C 	C 	0.10300 0.58660 0.40130 -0.13300
C 	C 	0.20750 0.53720 0.41420 0.06800
C 	C 	0.19690 0.64130 0.40010 0.09100
C 	C 	0.10710 0.48020 0.42060 0.01900
C 	C 	0.19160 0.44230 0.45230 -0.08200
C 	C 	0.91950 0.46350 0.39830 -0.08400
C 	C 	0.49200 0.60480 0.42220 0.07700
C 	C 	0.40790 0.54730 0.42380 -0.13000
C 	C 	0.03370 0.88790 0.07510 0.35100
C 	C 	0.40370 0.62340 0.05990 -0.09200
C 	C 	0.29660 0.67860 0.04830 0.33700
C 	C 	0.31910 0.58700 0.09210 0.01900
C 	C 	0.59320 0.60810 0.03800 0.02000
C 	C 	0.16770 0.94310 0.07810 -0.11500
C 	C 	0.79920 0.70540 0.33460 0.32400
C 	C 	0.36450 0.94130 0.09200 0.04300
C 	C 	0.09920 0.99630 0.06550 0.04000
C 	C 	0.96130 0.71520 0.29600 -0.09700
C 	C 	0.99350 0.77410 0.28710 0.00900
C 	C 	0.44780 0.74300 0.19250 0.07500
C 	C 	0.76930 0.71600 0.15430 0.08100
C 	C 	0.61880 0.70780 0.18870 -0.13600
C 	C 	0.27820 0.73310 0.22770 0.01000
C 	C 	0.14880 0.78300 0.25390 -0.07700
C 	C 	0.24220 0.67350 0.23710 -0.08400
C 	C 	0.59480 0.79290 0.12760 0.08400
C 	C 	0.08520 0.66530 0.27000 0.01200
C 	C 	0.44070 0.78700 0.16080 -0.14000
C 	C 	0.55640 0.09710 0.07880 0.05500
C 	C 	0.52980 0.13800 0.04360 -0.12000
C 	C 	0.72090 0.10890 0.11450 -0.11700
C 	C 	0.84590 0.15890 0.11420 0.06000
C 	C 	0.42120 0.04420 0.07860 0.04000
C 	C 	0.48940 0.99090 0.09330 -0.10300
C 	C 	0.66230 0.18550 0.04540 0.06900
C 	C 	0.22470 0.04580 0.06460 -0.10000
C 	C 	0.60300 0.41340 0.09870 -0.13600
C 	C 	0.70750 0.46280 0.08580 0.07000
C 	C 	0.69690 0.35870 0.09990 0.09300
C 	C 	0.60710 0.51980 0.07940 0.02100
C 	C 	0.69160 0.55770 0.04770 -0.08400
C 	C 	0.41950 0.53650 0.10170 -0.08700
C 	C 	0.99200 0.39520 0.07780 0.08700
C 	C 	0.90790 0.45270 0.07620 -0.13500
N 	N 	0.73990 0.75750 0.62292 -0.25800
N 	N 	0.68060 0.19670 0.57978 -0.26500
N 	N 	0.61080 0.34930 0.59002 -0.27300
N 	N 	0.23990 0.24250 0.87708 -0.25900
N 	N 	0.18060 0.80330 0.92022 -0.26400
N 	N 	0.11080 0.65070 0.90998 -0.27400
N 	N 	0.26010 0.24250 0.37708 -0.25800
N 	N 	0.31940 0.80330 0.42022 -0.26500
N 	N 	0.38920 0.65070 0.40998 -0.27300
N 	N 	0.76010 0.75750 0.12292 -0.25900
N 	N 	0.81940 0.19670 0.07978 -0.26400
N 	N 	0.88920 0.34930 0.09002 -0.27400
O 	O 	0.37340 0.68927 0.57129 -0.45900
O 	O 	0.38100 0.83893 0.58191 -0.46400
O 	O 	0.65850 0.74425 0.48963 -0.51300
O 	O 	0.80090 0.75280 0.86038 -0.45600
O 	O 	0.12330 0.71036 0.51939 -0.31200
O 	O 	0.72800 0.65150 0.84090 -0.31800
O 	O 	0.64380 0.89110 0.56540 -0.31700
O 	O 	0.87340 0.31073 0.92871 -0.45600
O 	O 	0.88100 0.16107 0.91809 -0.46400
O 	O 	0.15850 0.25575 0.01037 -0.51300
O 	O 	0.30090 0.24720 0.63962 -0.45500
O 	O 	0.62330 0.28964 0.98061 -0.31200
O 	O 	0.22800 0.34850 0.65910 -0.31800
O 	O 	0.14380 0.10890 0.93460 -0.32300
O 	O 	0.62660 0.31073 0.42871 -0.45900
O 	O 	0.61900 0.16107 0.41809 -0.46400
O 	O 	0.34150 0.25575 0.51037 -0.51300
O 	O 	0.19910 0.24720 0.13962 -0.45600
O 	O 	0.87670 0.28964 0.48061 -0.31200
O 	O 	0.27200 0.34850 0.15910 -0.31800
O 	O 	0.35620 0.10890 0.43460 -0.31700
O 	O 	0.12660 0.68927 0.07129 -0.45600
O 	O 	0.11900 0.83893 0.08191 -0.46400
O 	O 	0.84150 0.74425 0.98963 -0.51300
O 	O 	0.69910 0.75280 0.36038 -0.45500
O 	O 	0.37670 0.71036 0.01939 -0.31200
O 	O 	0.77200 0.65150 0.34090 -0.31800
O 	O 	0.85620 0.89110 0.06540 -0.32300
