data_crystal

_cell_length_a 13.57920
_cell_length_b 10.35110
_cell_length_c 17.46550
_cell_angle_alpha 90.00000
_cell_angle_beta  90.00000
_cell_angle_gamma 90.00000

_symmetry_space_group_name_	'P 1'
_symmetry_space_group_name_H-M	'P 1'

loop_
_symmetry_equiv_pos_as_xyz
  x,y,z

loop_
_atom_site_label
_atom_site_type_symbol
_atom_site_fract_x
_atom_site_fract_y
_atom_site_fract_z
_atom_site_charge
Al	Al	0.56095 0.12550 0.60690 2.39700
Al	Al	0.48405 0.17330 0.80027 2.39500
Al	Al	0.23853 0.36710 0.69486 2.39600
P 	P 	0.56698 0.13296 0.42290 0.79200
P 	P 	0.46668 0.37322 0.66933 0.74300
P 	P 	0.75300 0.12637 0.70648 0.77600
O 	O 	0.65880 0.08880 0.37770 -0.77900
O 	O 	0.53120 0.26020 0.38880 -0.68700
O 	O 	0.59710 0.15320 0.50610 -0.62100
O 	O 	0.48700 0.03000 0.41710 -0.71700
O 	O 	0.51910 0.28980 0.60910 -0.67300
O 	O 	0.49440 0.33430 0.75110 -0.71500
O 	O 	0.35600 0.35560 0.65610 -0.77400
O 	O 	0.49560 0.51290 0.65500 -0.61600
O 	O 	0.85310 0.17960 0.68510 -0.72900
O 	O 	0.76220 0.98700 0.73550 -0.78000
O 	O 	0.68880 0.12350 0.63460 -0.67500
O 	O 	0.70610 0.21370 0.76860 -0.83600
O 	O 	0.50980 0.09840 0.70660 -0.90800
Al	Al	0.93905 0.87450 0.10690 2.39900
Al	Al	0.01595 0.82670 0.30027 2.39600
Al	Al	0.26147 0.63290 0.19486 2.39700
P 	P 	0.93302 0.86704 0.92290 0.80200
P 	P 	0.03332 0.62678 0.16933 0.74100
P 	P 	0.74700 0.87363 0.20648 0.78400
O 	O 	0.84120 0.91120 0.87770 -0.77700
O 	O 	0.96880 0.73980 0.88880 -0.68600
O 	O 	0.90290 0.84680 0.00610 -0.62200
O 	O 	0.01300 0.97000 0.91710 -0.72500
O 	O 	0.98090 0.71020 0.10910 -0.67000
O 	O 	0.00560 0.66570 0.25110 -0.71800
O 	O 	0.14400 0.64440 0.15610 -0.77600
O 	O 	0.00440 0.48710 0.15500 -0.61500
O 	O 	0.64690 0.82040 0.18510 -0.72600
O 	O 	0.73780 0.01300 0.23550 -0.78800
O 	O 	0.81120 0.87650 0.13460 -0.67400
O 	O 	0.79390 0.78630 0.26860 -0.83500
O 	O 	0.99020 0.90160 0.20660 -0.90300
Al	Al	0.43905 0.62550 0.89310 2.39800
Al	Al	0.51595 0.67330 0.69973 2.39600
Al	Al	0.76147 0.86710 0.80514 2.39700
P 	P 	0.43302 0.63296 0.07710 0.79200
P 	P 	0.53332 0.87322 0.83067 0.74600
P 	P 	0.24700 0.62637 0.79352 0.78200
O 	O 	0.34120 0.58880 0.12230 -0.77900
O 	O 	0.46880 0.76020 0.11120 -0.68800
O 	O 	0.40290 0.65320 0.99390 -0.62100
O 	O 	0.51300 0.53000 0.08290 -0.71700
O 	O 	0.48090 0.78980 0.89090 -0.67300
O 	O 	0.50560 0.83430 0.74890 -0.71500
O 	O 	0.64400 0.85560 0.84390 -0.77400
O 	O 	0.50440 0.01290 0.84500 -0.61900
O 	O 	0.14690 0.67960 0.81490 -0.72600
O 	O 	0.23780 0.48700 0.76450 -0.78500
O 	O 	0.31120 0.62350 0.86540 -0.67500
O 	O 	0.29390 0.71370 0.73140 -0.83600
O 	O 	0.49020 0.59840 0.79340 -0.90700
Al	Al	0.06095 0.37450 0.39310 2.39800
Al	Al	0.98405 0.32670 0.19973 2.39600
Al	Al	0.73853 0.13290 0.30514 2.39700
P 	P 	0.06698 0.36704 0.57710 0.79400
P 	P 	0.96668 0.12678 0.33067 0.73300
P 	P 	0.25300 0.37363 0.29352 0.78200
O 	O 	0.15880 0.41120 0.62230 -0.77800
O 	O 	0.03120 0.23980 0.61120 -0.68500
O 	O 	0.09710 0.34680 0.49390 -0.62000
O 	O 	0.98700 0.47000 0.58290 -0.71800
O 	O 	0.01910 0.21020 0.39090 -0.66700
O 	O 	0.99440 0.16570 0.24890 -0.71700
O 	O 	0.85600 0.14440 0.34390 -0.77500
O 	O 	0.99560 0.98710 0.34500 -0.60800
O 	O 	0.35310 0.32040 0.31490 -0.72500
O 	O 	0.26220 0.51300 0.26450 -0.78500
O 	O 	0.18880 0.37650 0.36540 -0.67400
O 	O 	0.20610 0.28630 0.23140 -0.83500
O 	O 	0.00980 0.40160 0.29340 -0.90500
Al	Al	0.43905 0.87450 0.39310 2.39800
Al	Al	0.51595 0.82670 0.19973 2.39600
Al	Al	0.76147 0.63290 0.30514 2.39700
P 	P 	0.43302 0.86704 0.57710 0.79300
P 	P 	0.53332 0.62678 0.33067 0.74400
P 	P 	0.24700 0.87363 0.29352 0.77700
O 	O 	0.34120 0.91120 0.62230 -0.77900
O 	O 	0.46880 0.73980 0.61120 -0.68700
O 	O 	0.40290 0.84680 0.49390 -0.62100
O 	O 	0.51300 0.97000 0.58290 -0.71700
O 	O 	0.48090 0.71020 0.39090 -0.67300
O 	O 	0.50560 0.66570 0.24890 -0.71500
O 	O 	0.64400 0.64440 0.34390 -0.77400
O 	O 	0.50440 0.48710 0.34500 -0.61600
O 	O 	0.14690 0.82040 0.31490 -0.72900
O 	O 	0.23780 0.01300 0.26450 -0.78000
O 	O 	0.31120 0.87650 0.36540 -0.67500
O 	O 	0.29390 0.78630 0.23140 -0.83600
O 	O 	0.49020 0.90160 0.29340 -0.90800
Al	Al	0.06095 0.12550 0.89310 2.39900
Al	Al	0.98405 0.17330 0.69973 2.39600
Al	Al	0.73853 0.36710 0.80514 2.39700
P 	P 	0.06698 0.13296 0.07710 0.80200
P 	P 	0.96668 0.37322 0.83067 0.74100
P 	P 	0.25300 0.12637 0.79352 0.78400
O 	O 	0.15880 0.08880 0.12230 -0.77700
O 	O 	0.03120 0.26020 0.11120 -0.68600
O 	O 	0.09710 0.15320 0.99390 -0.62200
O 	O 	0.98700 0.03000 0.08290 -0.72500
O 	O 	0.01910 0.28980 0.89090 -0.67000
O 	O 	0.99440 0.33430 0.74890 -0.71800
O 	O 	0.85600 0.35560 0.84390 -0.77600
O 	O 	0.99560 0.51290 0.84500 -0.61500
O 	O 	0.35310 0.17960 0.81490 -0.72600
O 	O 	0.26220 0.98700 0.76450 -0.78800
O 	O 	0.18880 0.12350 0.86540 -0.67400
O 	O 	0.20610 0.21370 0.73140 -0.83500
O 	O 	0.00980 0.09840 0.79340 -0.90300
Al	Al	0.56095 0.37450 0.10690 2.39800
Al	Al	0.48405 0.32670 0.30027 2.39600
Al	Al	0.23853 0.13290 0.19486 2.39700
P 	P 	0.56698 0.36704 0.92290 0.79200
P 	P 	0.46668 0.12678 0.16933 0.74600
P 	P 	0.75300 0.37363 0.20648 0.78200
O 	O 	0.65880 0.41120 0.87770 -0.77900
O 	O 	0.53120 0.23980 0.88880 -0.68800
O 	O 	0.59710 0.34680 0.00610 -0.62100
O 	O 	0.48700 0.47000 0.91710 -0.71700
O 	O 	0.51910 0.21020 0.10910 -0.67300
O 	O 	0.49440 0.16570 0.25110 -0.71500
O 	O 	0.35600 0.14440 0.15610 -0.77400
O 	O 	0.49560 0.98710 0.15500 -0.61900
O 	O 	0.85310 0.32040 0.18510 -0.72600
O 	O 	0.76220 0.51300 0.23550 -0.78500
O 	O 	0.68880 0.37650 0.13460 -0.67500
O 	O 	0.70610 0.28630 0.26860 -0.83600
O 	O 	0.50980 0.40160 0.20660 -0.90700
Al	Al	0.93905 0.62550 0.60690 2.39800
Al	Al	0.01595 0.67330 0.80027 2.39600
Al	Al	0.26147 0.86710 0.69486 2.39700
P 	P 	0.93302 0.63296 0.42290 0.79400
P 	P 	0.03332 0.87322 0.66933 0.73300
P 	P 	0.74700 0.62637 0.70648 0.78200
O 	O 	0.84120 0.58880 0.37770 -0.77800
O 	O 	0.96880 0.76020 0.38880 -0.68500
O 	O 	0.90290 0.65320 0.50610 -0.62000
O 	O 	0.01300 0.53000 0.41710 -0.71800
O 	O 	0.98090 0.78980 0.60910 -0.66700
O 	O 	0.00560 0.83430 0.75110 -0.71700
O 	O 	0.14400 0.85560 0.65610 -0.77500
O 	O 	0.00440 0.01290 0.65500 -0.60800
O 	O 	0.64690 0.67960 0.68510 -0.72500
O 	O 	0.73780 0.48700 0.73550 -0.78500
O 	O 	0.81120 0.62350 0.63460 -0.67400
O 	O 	0.79390 0.71370 0.76860 -0.83500
O 	O 	0.99020 0.59840 0.70660 -0.90500
