data_crystal

_cell_length_a 13.67800
_cell_length_b 10.31800
_cell_length_c 17.35700
_cell_angle_alpha 90.00000
_cell_angle_beta  90.00000
_cell_angle_gamma 90.00000

_symmetry_space_group_name_	'P 1'
_symmetry_space_group_name_H-M	'P 1'

loop_
_symmetry_equiv_pos_as_xyz
  x,y,z

loop_
_atom_site_label
_atom_site_type_symbol
_atom_site_fract_x
_atom_site_fract_y
_atom_site_fract_z
_atom_site_charge
P 	P 	0.93297 0.63141 0.42190 0.81000
P 	P 	0.96420 0.12616 0.33245 0.73500
P 	P 	0.25318 0.37177 0.29446 0.80700
Al	Al	0.06149 0.37418 0.39302 2.39800
Al	Al	0.98219 0.32760 0.19928 2.39600
Al	Al	0.73927 0.12920 0.30503 2.39600
O 	O 	0.01260 0.40310 0.29170 -0.90800
O 	O 	0.85370 0.13550 0.34750 -0.76900
O 	O 	0.01280 0.21410 0.39224 -0.67900
O 	O 	0.35320 0.32260 0.31750 -0.73300
O 	O 	0.18810 0.37030 0.36510 -0.68500
O 	O 	0.84280 0.58540 0.37680 -0.77500
O 	O 	0.01260 0.52960 0.41620 -0.72500
O 	O 	0.90230 0.65230 0.50490 -0.61900
O 	O 	0.96750 0.75900 0.38800 -0.69000
O 	O 	0.99840 0.98910 0.34710 -0.59900
O 	O 	0.20940 0.28250 0.23180 -0.84000
O 	O 	0.26030 0.51010 0.26490 -0.80200
O 	O 	0.98900 0.16700 0.24970 -0.71800
P 	P 	0.56703 0.36859 0.92190 0.80900
P 	P 	0.53580 0.87384 0.83245 0.74900
P 	P 	0.24682 0.62823 0.79446 0.80800
Al	Al	0.43851 0.62582 0.89302 2.39900
Al	Al	0.51781 0.67240 0.69928 2.39700
Al	Al	0.76073 0.87080 0.80503 2.39700
O 	O 	0.48740 0.59690 0.79170 -0.90900
O 	O 	0.64630 0.86450 0.84750 -0.76700
O 	O 	0.48720 0.78590 0.89224 -0.68400
O 	O 	0.14680 0.67740 0.81750 -0.73300
O 	O 	0.31190 0.62970 0.86510 -0.68600
O 	O 	0.65720 0.41460 0.87680 -0.77600
O 	O 	0.48740 0.47040 0.91620 -0.72400
O 	O 	0.59770 0.34770 0.00490 -0.61900
O 	O 	0.53250 0.24100 0.88800 -0.69400
O 	O 	0.50160 0.01090 0.84710 -0.61000
O 	O 	0.29060 0.71750 0.73180 -0.84100
O 	O 	0.23970 0.48990 0.76490 -0.80200
O 	O 	0.51100 0.83300 0.74970 -0.71600
P 	P 	0.06703 0.13141 0.07810 0.81800
P 	P 	0.03580 0.62616 0.16755 0.74300
P 	P 	0.74682 0.87177 0.20554 0.81000
Al	Al	0.93851 0.87418 0.10698 2.39900
Al	Al	0.01781 0.82760 0.30072 2.39600
Al	Al	0.26073 0.62920 0.19497 2.39700
O 	O 	0.98740 0.90310 0.20830 -0.90500
O 	O 	0.14630 0.63550 0.15250 -0.76900
O 	O 	0.98720 0.71410 0.10776 -0.68100
O 	O 	0.64680 0.82260 0.18250 -0.73300
O 	O 	0.81190 0.87030 0.13490 -0.68500
O 	O 	0.15720 0.08540 0.12320 -0.77400
O 	O 	0.98740 0.02960 0.08380 -0.73200
O 	O 	0.09770 0.15230 0.99510 -0.62100
O 	O 	0.03250 0.25900 0.11200 -0.69200
O 	O 	0.00160 0.48910 0.15290 -0.60700
O 	O 	0.79060 0.78250 0.26820 -0.84000
O 	O 	0.73970 0.01010 0.23510 -0.80500
O 	O 	0.01100 0.66700 0.25030 -0.71900
P 	P 	0.43297 0.86859 0.57810 0.81000
P 	P 	0.46420 0.37384 0.66755 0.74700
P 	P 	0.75318 0.12823 0.70554 0.80300
Al	Al	0.56149 0.12582 0.60698 2.39900
Al	Al	0.48219 0.17240 0.80072 2.39700
Al	Al	0.23927 0.37080 0.69497 2.39700
O 	O 	0.51260 0.09690 0.70830 -0.91000
O 	O 	0.35370 0.36450 0.65250 -0.76700
O 	O 	0.51280 0.28590 0.60776 -0.68400
O 	O 	0.85320 0.17740 0.68250 -0.73600
O 	O 	0.68810 0.12970 0.63490 -0.68600
O 	O 	0.34280 0.91460 0.62320 -0.77600
O 	O 	0.51260 0.97040 0.58380 -0.72400
O 	O 	0.40230 0.84770 0.49510 -0.62000
O 	O 	0.46750 0.74100 0.61200 -0.69200
O 	O 	0.49840 0.51090 0.65290 -0.60700
O 	O 	0.70940 0.21750 0.76820 -0.84100
O 	O 	0.76030 0.98990 0.73510 -0.79700
O 	O 	0.48900 0.33300 0.75030 -0.71600
P 	P 	0.06703 0.36859 0.57810 0.81100
P 	P 	0.03580 0.87384 0.66755 0.73600
P 	P 	0.74682 0.62823 0.70554 0.80800
Al	Al	0.93851 0.62582 0.60698 2.39900
Al	Al	0.01781 0.67240 0.80072 2.39700
Al	Al	0.26073 0.87080 0.69497 2.39700
O 	O 	0.98740 0.59690 0.70830 -0.90700
O 	O 	0.14630 0.86450 0.65250 -0.76800
O 	O 	0.98720 0.78590 0.60776 -0.67800
O 	O 	0.64680 0.67740 0.68250 -0.73200
O 	O 	0.81190 0.62970 0.63490 -0.68500
O 	O 	0.15720 0.41460 0.62320 -0.77500
O 	O 	0.98740 0.47040 0.58380 -0.72500
O 	O 	0.09770 0.34770 0.49510 -0.61900
O 	O 	0.03250 0.24100 0.61200 -0.69000
O 	O 	0.00160 0.01090 0.65290 -0.59900
O 	O 	0.79060 0.71750 0.76820 -0.84000
O 	O 	0.73970 0.48990 0.73510 -0.80200
O 	O 	0.01100 0.83300 0.75030 -0.71800
P 	P 	0.43297 0.63141 0.07810 0.80900
P 	P 	0.46420 0.12616 0.16755 0.74900
P 	P 	0.75318 0.37177 0.20554 0.80800
Al	Al	0.56149 0.37418 0.10698 2.39900
Al	Al	0.48219 0.32760 0.30072 2.39700
Al	Al	0.23927 0.12920 0.19497 2.39700
O 	O 	0.51260 0.40310 0.20830 -0.90900
O 	O 	0.35370 0.13550 0.15250 -0.76700
O 	O 	0.51280 0.21410 0.10776 -0.68400
O 	O 	0.85320 0.32260 0.18250 -0.73300
O 	O 	0.68810 0.37030 0.13490 -0.68600
O 	O 	0.34280 0.58540 0.12320 -0.77600
O 	O 	0.51260 0.52960 0.08380 -0.72400
O 	O 	0.40230 0.65230 0.99510 -0.61900
O 	O 	0.46750 0.75900 0.11200 -0.69400
O 	O 	0.49840 0.98910 0.15290 -0.61000
O 	O 	0.70940 0.28250 0.26820 -0.84100
O 	O 	0.76030 0.51010 0.23510 -0.80200
O 	O 	0.48900 0.16700 0.25030 -0.71600
P 	P 	0.93297 0.86859 0.92190 0.81800
P 	P 	0.96420 0.37384 0.83245 0.74300
P 	P 	0.25318 0.12823 0.79446 0.81000
Al	Al	0.06149 0.12582 0.89302 2.39900
Al	Al	0.98219 0.17240 0.69928 2.39600
Al	Al	0.73927 0.37080 0.80503 2.39700
O 	O 	0.01260 0.09690 0.79170 -0.90500
O 	O 	0.85370 0.36450 0.84750 -0.76900
O 	O 	0.01280 0.28590 0.89224 -0.68100
O 	O 	0.35320 0.17740 0.81750 -0.73300
O 	O 	0.18810 0.12970 0.86510 -0.68500
O 	O 	0.84280 0.91460 0.87680 -0.77400
O 	O 	0.01260 0.97040 0.91620 -0.73200
O 	O 	0.90230 0.84770 0.00490 -0.62100
O 	O 	0.96750 0.74100 0.88800 -0.69200
O 	O 	0.99840 0.51090 0.84710 -0.60700
O 	O 	0.20940 0.21750 0.73180 -0.84000
O 	O 	0.26030 0.98990 0.76490 -0.80500
O 	O 	0.98900 0.33300 0.74970 -0.71900
P 	P 	0.56703 0.13141 0.42190 0.81000
P 	P 	0.53580 0.62616 0.33245 0.74700
P 	P 	0.24682 0.87177 0.29446 0.80300
Al	Al	0.43851 0.87418 0.39302 2.39900
Al	Al	0.51781 0.82760 0.19928 2.39700
Al	Al	0.76073 0.62920 0.30503 2.39700
O 	O 	0.48740 0.90310 0.29170 -0.91000
O 	O 	0.64630 0.63550 0.34750 -0.76700
O 	O 	0.48720 0.71410 0.39224 -0.68400
O 	O 	0.14680 0.82260 0.31750 -0.73600
O 	O 	0.31190 0.87030 0.36510 -0.68600
O 	O 	0.65720 0.08540 0.37680 -0.77600
O 	O 	0.48740 0.02960 0.41620 -0.72400
O 	O 	0.59770 0.15230 0.50490 -0.62000
O 	O 	0.53250 0.25900 0.38800 -0.69200
O 	O 	0.50160 0.48910 0.34710 -0.60700
O 	O 	0.29060 0.78250 0.23180 -0.84100
O 	O 	0.23970 0.01010 0.26490 -0.79700
O 	O 	0.51100 0.66700 0.24970 -0.71600
