data_crystal

_cell_length_a 7.59000
_cell_length_b 7.59000
_cell_length_c 7.72500
_cell_angle_alpha 90.00000
_cell_angle_beta  90.00000
_cell_angle_gamma 90.00000

_symmetry_space_group_name_	'P 1'
_symmetry_space_group_name_H-M	'P 1'

loop_
_symmetry_equiv_pos_as_xyz
  x,y,z

loop_
_atom_site_label
_atom_site_type_symbol
_atom_site_fract_x
_atom_site_fract_y
_atom_site_fract_z
_atom_site_charge
Cd	Cd	-0.00000 0.00000 -0.00000 1.18300
Ni	Ni	0.50000 0.50000 -0.00000 1.05100
N 	N 	0.22100 0.22100 -0.00000 -0.17400
C 	C 	0.32790 0.32790 -0.00000 -0.27200
N 	N 	0.77900 0.77900 -0.00000 -0.20700
C 	C 	0.67210 0.67210 -0.00000 -0.27700
N 	N 	0.77900 0.22100 -0.00000 -0.19300
C 	C 	0.67210 0.32790 -0.00000 -0.27500
N 	N 	0.22100 0.77900 -0.00000 -0.19300
C 	C 	0.32790 0.67210 -0.00000 -0.27500
N 	N 	0.03300 0.00000 0.29900 -0.52900
C 	C 	0.89200 0.00000 0.40200 -0.18500
N 	N 	0.96700 0.00000 0.29900 0.41000
C 	C 	0.10800 0.00000 0.40200 0.20000
N 	N 	0.00000 0.03300 0.29900 -0.52900
C 	C 	0.00000 0.89200 0.40200 -0.18500
N 	N 	-0.00000 0.96700 0.29900 0.41000
C 	C 	0.00000 0.10800 0.40200 0.20000
N 	N 	0.96700 0.00000 0.70100 0.43900
C 	C 	0.10800 0.00000 0.59800 0.23000
N 	N 	0.03300 0.00000 0.70100 -0.55000
C 	C 	0.89200 0.00000 0.59800 -0.19900
N 	N 	0.00000 0.03300 0.70100 -0.55000
C 	C 	0.00000 0.89200 0.59800 -0.19900
N 	N 	-0.00000 0.96700 0.70100 0.43900
C 	C 	0.00000 0.10800 0.59800 0.23000
