data_crystal

_cell_length_a 12.74100
_cell_length_b 12.06800
_cell_length_c 11.98800
_cell_angle_alpha 90.00000
_cell_angle_beta  94.90200
_cell_angle_gamma 90.00000

_symmetry_space_group_name_	'P 1'
_symmetry_space_group_name_H-M	'P 1'

loop_
_symmetry_equiv_pos_as_xyz
  x,y,z

loop_
_atom_site_label
_atom_site_type_symbol
_atom_site_fract_x
_atom_site_fract_y
_atom_site_fract_z
_atom_site_charge
Ga	Ga	0.24672 0.95967 0.20602 2.10500
P 	P 	0.20215 0.22384 0.17758 0.53800
P 	P 	0.17271 0.02016 0.44609 0.52800
F 	F 	0.09250 0.97280 0.20260 -0.89300
F 	F 	0.39340 0.95380 0.20560 -0.54500
O 	O 	0.26400 0.11740 0.16870 -0.47900
O 	O 	0.22440 0.08060 0.54760 -0.45000
O 	O 	0.25430 0.99430 0.36470 -0.48500
O 	O 	0.07950 0.08680 0.39490 -0.58300
O 	O 	0.08760 0.20440 0.19300 -0.58500
O 	O 	0.25810 0.30120 0.26360 -0.46300
H 	H 	0.13800 0.92300 0.48000 -0.06700
H 	H 	0.20100 0.27600 0.07900 -0.02600
Ga	Ga	0.74672 0.45967 0.20602 2.10700
P 	P 	0.70215 0.72384 0.17758 0.53500
P 	P 	0.67271 0.52016 0.44609 0.53000
F 	F 	0.59250 0.47280 0.20260 -0.82500
F 	F 	0.89340 0.45380 0.20560 -0.46900
O 	O 	0.76400 0.61740 0.16870 -0.44700
O 	O 	0.72440 0.58060 0.54760 -0.41700
O 	O 	0.75430 0.49430 0.36470 -0.45900
O 	O 	0.57950 0.58680 0.39490 -0.48600
O 	O 	0.58760 0.70440 0.19300 -0.49200
O 	O 	0.75810 0.80120 0.26360 -0.42900
H 	H 	0.63800 0.42300 0.48000 -0.02700
H 	H 	0.70100 0.77600 0.07900 0.00200
Ga	Ga	0.75328 0.95967 0.29398 2.10700
P 	P 	0.79785 0.22384 0.32242 0.52500
P 	P 	0.82729 0.02016 0.05391 0.51600
F 	F 	0.90750 0.97280 0.29740 -0.73900
F 	F 	0.60660 0.95380 0.29440 -0.54500
O 	O 	0.73600 0.11740 0.33130 -0.46900
O 	O 	0.77560 0.08060 0.95240 -0.41300
O 	O 	0.74570 0.99430 0.13530 -0.47400
O 	O 	0.92050 0.08680 0.10510 -0.37500
O 	O 	0.91240 0.20440 0.30700 -0.38100
O 	O 	0.74190 0.30120 0.23640 -0.44300
H 	H 	0.86200 0.92300 0.02000 0.01500
H 	H 	0.79900 0.27600 0.42100 0.01800
Ga	Ga	0.25328 0.45967 0.29398 2.10500
P 	P 	0.29785 0.72384 0.32242 0.53200
P 	P 	0.32729 0.52016 0.05391 0.52900
F 	F 	0.40750 0.47280 0.29740 -0.82400
F 	F 	0.10660 0.45380 0.29440 -0.62200
O 	O 	0.23600 0.61740 0.33130 -0.49900
O 	O 	0.27560 0.58060 0.95240 -0.45000
O 	O 	0.24570 0.49430 0.13530 -0.50700
O 	O 	0.42050 0.58680 0.10510 -0.48800
O 	O 	0.41240 0.70440 0.30700 -0.49100
O 	O 	0.24190 0.80120 0.23640 -0.47600
H 	H 	0.36200 0.42300 0.02000 -0.03000
H 	H 	0.29900 0.77600 0.42100 -0.00800
Ga	Ga	0.75328 0.04033 0.79398 2.10700
P 	P 	0.79785 0.77616 0.82242 0.52500
P 	P 	0.82729 0.97984 0.55391 0.52600
F 	F 	0.90750 0.02720 0.79740 -0.73900
F 	F 	0.60660 0.04620 0.79440 -0.54500
O 	O 	0.73600 0.88260 0.83130 -0.47000
O 	O 	0.77560 0.91940 0.45240 -0.41600
O 	O 	0.74570 0.00570 0.63530 -0.47700
O 	O 	0.92050 0.91320 0.60510 -0.37300
O 	O 	0.91240 0.79560 0.80700 -0.38200
O 	O 	0.74190 0.69880 0.73640 -0.44200
H 	H 	0.86200 0.07700 0.52000 0.01200
H 	H 	0.79900 0.72400 0.92100 0.01700
Ga	Ga	0.25328 0.54033 0.79398 2.10500
P 	P 	0.29785 0.27616 0.82242 0.53200
P 	P 	0.32729 0.47984 0.55391 0.52900
F 	F 	0.40750 0.52720 0.79740 -0.82400
F 	F 	0.10660 0.54620 0.79440 -0.62200
O 	O 	0.23600 0.38260 0.83130 -0.49900
O 	O 	0.27560 0.41940 0.45240 -0.45000
O 	O 	0.24570 0.50570 0.63530 -0.50700
O 	O 	0.42050 0.41320 0.60510 -0.48800
O 	O 	0.41240 0.29560 0.80700 -0.49000
O 	O 	0.24190 0.19880 0.73640 -0.47600
H 	H 	0.36200 0.57700 0.52000 -0.02900
H 	H 	0.29900 0.22400 0.92100 -0.00700
Ga	Ga	0.24672 0.04033 0.70602 2.10600
P 	P 	0.20215 0.77616 0.67758 0.53900
P 	P 	0.17271 0.97984 0.94609 0.52100
F 	F 	0.09250 0.02720 0.70260 -0.89300
F 	F 	0.39340 0.04620 0.70560 -0.54400
O 	O 	0.26400 0.88260 0.66870 -0.47800
O 	O 	0.22440 0.91940 0.04760 -0.44600
O 	O 	0.25430 0.00570 0.86470 -0.48200
O 	O 	0.07950 0.91320 0.89490 -0.58300
O 	O 	0.08760 0.79560 0.69300 -0.58500
O 	O 	0.25810 0.69880 0.76360 -0.46300
H 	H 	0.13800 0.07700 0.98000 -0.06200
H 	H 	0.20100 0.72400 0.57900 -0.02500
Ga	Ga	0.74672 0.54033 0.70602 2.10700
P 	P 	0.70215 0.27616 0.67758 0.53500
P 	P 	0.67271 0.47984 0.94609 0.53100
F 	F 	0.59250 0.52720 0.70260 -0.82500
F 	F 	0.89340 0.54620 0.70560 -0.46800
O 	O 	0.76400 0.38260 0.66870 -0.44600
O 	O 	0.72440 0.41940 0.04760 -0.41900
O 	O 	0.75430 0.50570 0.86470 -0.45900
O 	O 	0.57950 0.41320 0.89490 -0.48600
O 	O 	0.58760 0.29560 0.69300 -0.49200
O 	O 	0.75810 0.19880 0.76360 -0.42900
H 	H 	0.63800 0.57700 0.98000 -0.02800
H 	H 	0.70100 0.22400 0.57900 0.00200
Ga	Ga	0.00000 0.08896 0.25000 2.05600
Ga	Ga	0.50000 0.58896 0.25000 2.10600
Ga	Ga	0.00000 0.91104 0.75000 2.05600
Ga	Ga	0.50000 0.41104 0.75000 2.10600
