data_crystal

_cell_length_a 12.18100
_cell_length_b 15.35400
_cell_length_c 18.78500
_cell_angle_alpha 90.00000
_cell_angle_beta  90.00000
_cell_angle_gamma 90.00000

_symmetry_space_group_name_	'P 1'
_symmetry_space_group_name_H-M	'P 1'

loop_
_symmetry_equiv_pos_as_xyz
  x,y,z

loop_
_atom_site_label
_atom_site_type_symbol
_atom_site_fract_x
_atom_site_fract_y
_atom_site_fract_z
_atom_site_charge
Cd	Cd	0.69302 0.78414 0.18403 1.20500
Cd	Cd	0.80698 0.21586 0.68403 1.20500
Cd	Cd	0.30698 0.28414 0.31597 1.20500
Cd	Cd	0.19302 0.71586 0.81597 1.20500
H 	H 	0.51770 0.70550 0.29360 0.00100
H 	H 	0.42060 0.58210 0.32270 0.08700
H 	H 	0.60270 0.44970 0.18260 0.08200
H 	H 	0.69390 0.57630 0.15720 0.02000
H 	H 	0.50330 0.88390 0.09510 0.00500
H 	H 	0.38770 0.87320 0.99970 0.07100
H 	H 	0.54450 0.65670 0.94220 0.07000
H 	H 	0.66090 0.67690 0.03600 0.01200
H 	H 	0.98230 0.29450 0.79360 0.00200
H 	H 	0.07940 0.41790 0.82270 0.08800
H 	H 	0.89730 0.55030 0.68260 0.08300
H 	H 	0.80610 0.42370 0.65720 0.02100
H 	H 	0.99670 0.11610 0.59510 0.00600
H 	H 	0.11230 0.12680 0.49970 0.07200
H 	H 	0.95550 0.34330 0.44220 0.07000
H 	H 	0.83910 0.32310 0.53600 0.01200
H 	H 	0.48230 0.20550 0.20640 0.00200
H 	H 	0.57940 0.08210 0.17730 0.08800
H 	H 	0.39730 0.94970 0.31740 0.08300
H 	H 	0.30610 0.07630 0.34280 0.02100
H 	H 	0.49670 0.38390 0.40490 0.00600
H 	H 	0.61230 0.37320 0.50030 0.07200
H 	H 	0.45550 0.15670 0.55780 0.07000
H 	H 	0.33910 0.17690 0.46400 0.01200
H 	H 	0.01770 0.79450 0.70640 0.00200
H 	H 	0.92060 0.91790 0.67730 0.08800
H 	H 	0.10270 0.05030 0.81740 0.08200
H 	H 	0.19390 0.92370 0.84280 0.02100
H 	H 	0.00330 0.61610 0.90490 0.00700
H 	H 	0.88770 0.62680 0.00030 0.07000
H 	H 	0.04450 0.84330 0.05780 0.06900
H 	H 	0.16090 0.82310 0.96400 0.01300
C 	C 	0.53440 0.65360 0.27040 0.05200
C 	C 	0.47540 0.57970 0.28820 -0.09900
C 	C 	0.49910 0.50300 0.25430 -0.00600
C 	C 	0.58320 0.50130 0.20520 -0.09200
C 	C 	0.63750 0.57750 0.19050 0.04900
C 	C 	0.43540 0.42180 0.27280 0.27500
C 	C 	0.51150 0.83740 0.06390 0.05100
C 	C 	0.44120 0.83090 0.00690 -0.08600
C 	C 	0.44970 0.76240 0.96080 -0.01400
C 	C 	0.53440 0.70380 0.97270 -0.08300
C 	C 	0.60300 0.71560 0.02960 0.04800
C 	C 	0.36620 0.74760 0.90370 0.28300
C 	C 	0.96560 0.34640 0.77040 0.05200
C 	C 	0.02460 0.42030 0.78820 -0.10000
C 	C 	0.00090 0.49700 0.75430 -0.00600
C 	C 	0.91680 0.49870 0.70520 -0.09100
C 	C 	0.86250 0.42250 0.69050 0.04800
C 	C 	0.06460 0.57820 0.77280 0.27500
C 	C 	0.98850 0.16260 0.56390 0.05200
C 	C 	0.05880 0.16910 0.50690 -0.08700
C 	C 	0.05030 0.23760 0.46080 -0.01400
C 	C 	0.96560 0.29620 0.47270 -0.08300
C 	C 	0.89700 0.28440 0.52960 0.04900
C 	C 	0.13380 0.25240 0.40370 0.28300
C 	C 	0.46560 0.15360 0.22960 0.05200
C 	C 	0.52460 0.07970 0.21180 -0.09900
C 	C 	0.50090 0.00300 0.24570 -0.00600
C 	C 	0.41680 0.00130 0.29480 -0.09200
C 	C 	0.36250 0.07750 0.30950 0.04900
C 	C 	0.56460 0.92180 0.22720 0.27500
C 	C 	0.48850 0.33740 0.43610 0.05200
C 	C 	0.55880 0.33090 0.49310 -0.08600
C 	C 	0.55030 0.26240 0.53920 -0.01400
C 	C 	0.46560 0.20380 0.52730 -0.08300
C 	C 	0.39700 0.21560 0.47040 0.04900
C 	C 	0.63380 0.24760 0.59630 0.28300
C 	C 	0.03440 0.84640 0.72960 0.05100
C 	C 	0.97540 0.92030 0.71180 -0.09900
C 	C 	0.99910 0.99700 0.74570 -0.00600
C 	C 	0.08320 0.99870 0.79480 -0.09100
C 	C 	0.13750 0.92250 0.80950 0.04800
C 	C 	0.93540 0.07820 0.72720 0.27500
C 	C 	0.01150 0.66260 0.93610 0.04900
C 	C 	0.94120 0.66910 0.99310 -0.08200
C 	C 	0.94970 0.73760 0.03920 -0.01700
C 	C 	0.03440 0.79620 0.02730 -0.08000
C 	C 	0.10300 0.78440 0.97040 0.04600
C 	C 	0.86620 0.75240 0.09630 0.28400
N 	N 	0.61340 0.65410 0.22190 -0.23100
N 	N 	0.59060 0.78000 0.07600 -0.21400
N 	N 	0.88660 0.34590 0.72190 -0.23100
N 	N 	0.90940 0.22000 0.57600 -0.21400
N 	N 	0.38660 0.15410 0.27810 -0.23100
N 	N 	0.40940 0.28000 0.42400 -0.21400
N 	N 	0.11340 0.84590 0.77810 -0.23100
N 	N 	0.09060 0.72000 0.92400 -0.21300
O 	O 	0.47360 0.34890 0.25740 -0.36800
O 	O 	0.34580 0.43170 0.30530 -0.38000
O 	O 	0.35040 0.67120 0.88260 -0.36800
O 	O 	0.31200 0.81140 0.88330 -0.37600
O 	O 	0.02640 0.65110 0.75740 -0.36800
O 	O 	0.15420 0.56830 0.80530 -0.38000
O 	O 	0.14960 0.32880 0.38260 -0.36700
O 	O 	0.18800 0.18860 0.38330 -0.37600
O 	O 	0.52640 0.84890 0.24260 -0.36800
O 	O 	0.65420 0.93170 0.19470 -0.38000
O 	O 	0.64960 0.17120 0.61740 -0.36800
O 	O 	0.68800 0.31140 0.61670 -0.37600
O 	O 	0.97360 0.15110 0.74260 -0.36800
O 	O 	0.84580 0.06830 0.69470 -0.38000
O 	O 	0.85040 0.82880 0.11740 -0.36800
O 	O 	0.81200 0.68860 0.11670 -0.37700
Cd	Cd	0.30698 0.21586 0.81597 1.20600
Cd	Cd	0.19302 0.78414 0.31597 1.20600
Cd	Cd	0.69302 0.71586 0.68403 1.20600
Cd	Cd	0.80698 0.28414 0.18403 1.20600
H 	H 	0.48230 0.29450 0.70640 0.00200
H 	H 	0.57940 0.41790 0.67730 0.08800
H 	H 	0.39730 0.55030 0.81740 0.08300
H 	H 	0.30610 0.42370 0.84280 0.02100
H 	H 	0.49670 0.11610 0.90490 0.00600
H 	H 	0.61230 0.12680 0.00030 0.07200
H 	H 	0.45550 0.34330 0.05780 0.07000
H 	H 	0.33910 0.32310 0.96400 0.01200
H 	H 	0.01770 0.70550 0.20640 0.00200
H 	H 	0.92060 0.58210 0.17730 0.08800
H 	H 	0.10270 0.44970 0.31740 0.08300
H 	H 	0.19390 0.57630 0.34280 0.02100
H 	H 	0.00330 0.88390 0.40490 0.00600
H 	H 	0.88770 0.87320 0.50030 0.07200
H 	H 	0.04450 0.65670 0.55780 0.07000
H 	H 	0.16090 0.67690 0.46400 0.01200
H 	H 	0.51770 0.79450 0.79360 0.00200
H 	H 	0.42060 0.91790 0.82270 0.08800
H 	H 	0.60270 0.05030 0.68260 0.08300
H 	H 	0.69390 0.92370 0.65720 0.02100
H 	H 	0.50330 0.61610 0.59510 0.00600
H 	H 	0.38770 0.62680 0.49970 0.07200
H 	H 	0.54450 0.84330 0.44220 0.07000
H 	H 	0.66090 0.82310 0.53600 0.01200
H 	H 	0.98230 0.20550 0.29360 0.00200
H 	H 	0.07940 0.08210 0.32270 0.08800
H 	H 	0.89730 0.94970 0.18260 0.08200
H 	H 	0.80610 0.07630 0.15720 0.02100
H 	H 	0.99670 0.38390 0.09510 0.00700
H 	H 	0.11230 0.37320 0.99970 0.07000
H 	H 	0.95550 0.15670 0.94220 0.06900
H 	H 	0.83910 0.17690 0.03600 0.01300
C 	C 	0.46560 0.34640 0.72960 0.05200
C 	C 	0.52460 0.42030 0.71180 -0.09900
C 	C 	0.50090 0.49700 0.74570 -0.00600
C 	C 	0.41680 0.49870 0.79480 -0.09200
C 	C 	0.36250 0.42250 0.80950 0.04900
C 	C 	0.56460 0.57820 0.72720 0.27500
C 	C 	0.48850 0.16260 0.93610 0.05100
C 	C 	0.55880 0.16910 0.99310 -0.08600
C 	C 	0.55030 0.23760 0.03920 -0.01400
C 	C 	0.46560 0.29620 0.02730 -0.08300
C 	C 	0.39700 0.28440 0.97040 0.04800
C 	C 	0.63380 0.25240 0.09630 0.28300
C 	C 	0.03440 0.65360 0.22960 0.05200
C 	C 	0.97540 0.57970 0.21180 -0.10000
C 	C 	0.99910 0.50300 0.24570 -0.00600
C 	C 	0.08320 0.50130 0.29480 -0.09100
C 	C 	0.13750 0.57750 0.30950 0.04800
C 	C 	0.93540 0.42180 0.22720 0.27500
C 	C 	0.01150 0.83740 0.43610 0.05200
C 	C 	0.94120 0.83090 0.49310 -0.08700
C 	C 	0.94970 0.76240 0.53920 -0.01400
C 	C 	0.03440 0.70380 0.52730 -0.08300
C 	C 	0.10300 0.71560 0.47040 0.04900
C 	C 	0.86620 0.74760 0.59630 0.28300
C 	C 	0.53440 0.84640 0.77040 0.05200
C 	C 	0.47540 0.92030 0.78820 -0.09900
C 	C 	0.49910 0.99700 0.75430 -0.00600
C 	C 	0.58320 0.99870 0.70520 -0.09200
C 	C 	0.63750 0.92250 0.69050 0.04900
C 	C 	0.43540 0.07820 0.77280 0.27500
C 	C 	0.51150 0.66260 0.56390 0.05200
C 	C 	0.44120 0.66910 0.50690 -0.08600
C 	C 	0.44970 0.73760 0.46080 -0.01400
C 	C 	0.53440 0.79620 0.47270 -0.08300
C 	C 	0.60300 0.78440 0.52960 0.04900
C 	C 	0.36620 0.75240 0.40370 0.28300
C 	C 	0.96560 0.15360 0.27040 0.05100
C 	C 	0.02460 0.07970 0.28820 -0.09900
C 	C 	0.00090 0.00300 0.25430 -0.00600
C 	C 	0.91680 0.00130 0.20520 -0.09100
C 	C 	0.86250 0.07750 0.19050 0.04800
C 	C 	0.06460 0.92180 0.27280 0.27500
C 	C 	0.98850 0.33740 0.06390 0.04900
C 	C 	0.05880 0.33090 0.00690 -0.08200
C 	C 	0.05030 0.26240 0.96080 -0.01700
C 	C 	0.96560 0.20380 0.97270 -0.08000
C 	C 	0.89700 0.21560 0.02960 0.04600
C 	C 	0.13380 0.24760 0.90370 0.28400
N 	N 	0.38660 0.34590 0.77810 -0.23100
N 	N 	0.40940 0.22000 0.92400 -0.21400
N 	N 	0.11340 0.65410 0.27810 -0.23100
N 	N 	0.09060 0.78000 0.42400 -0.21400
N 	N 	0.61340 0.84590 0.72190 -0.23100
N 	N 	0.59060 0.72000 0.57600 -0.21400
N 	N 	0.88660 0.15410 0.22190 -0.23100
N 	N 	0.90940 0.28000 0.07600 -0.21300
O 	O 	0.52640 0.65110 0.74260 -0.36800
O 	O 	0.65420 0.56830 0.69470 -0.38000
O 	O 	0.64960 0.32880 0.11740 -0.36800
O 	O 	0.68800 0.18860 0.11670 -0.37600
O 	O 	0.97360 0.34890 0.24260 -0.36800
O 	O 	0.84580 0.43170 0.19470 -0.38000
O 	O 	0.85040 0.67120 0.61740 -0.36700
O 	O 	0.81200 0.81140 0.61670 -0.37600
O 	O 	0.47360 0.15110 0.75740 -0.36800
O 	O 	0.34580 0.06830 0.80530 -0.38000
O 	O 	0.35040 0.82880 0.38260 -0.36800
O 	O 	0.31200 0.68860 0.38330 -0.37600
O 	O 	0.02640 0.84890 0.25740 -0.36800
O 	O 	0.15420 0.93170 0.30530 -0.38000
O 	O 	0.14960 0.17120 0.88260 -0.36800
O 	O 	0.18800 0.31140 0.88330 -0.37700
