data_crystal

_cell_length_a 12.38900
_cell_length_b 13.25900
_cell_length_c 14.14600
_cell_angle_alpha 90.00000
_cell_angle_beta  90.00000
_cell_angle_gamma 112.67600

_symmetry_space_group_name_	'P 1'
_symmetry_space_group_name_H-M	'P 1'

loop_
_symmetry_equiv_pos_as_xyz
  x,y,z

loop_
_atom_site_label
_atom_site_type_symbol
_atom_site_fract_x
_atom_site_fract_y
_atom_site_fract_z
_atom_site_charge
Cu	Cu	0.16466 0.42159 0.59262 0.88500
Cu	Cu	0.52629 0.09291 0.93184 0.91300
Cu	Cu	0.33534 0.07841 0.09262 0.88300
Cu	Cu	0.97371 0.40709 0.43184 0.91100
Cu	Cu	0.83534 0.57841 0.40738 0.88400
Cu	Cu	0.47371 0.90709 0.06816 0.91200
Cu	Cu	0.66466 0.92159 0.90738 0.88300
Cu	Cu	0.02629 0.59291 0.56816 0.91100
H 	H 	0.56670 0.07630 0.73010 0.01200
H 	H 	0.70610 0.14890 0.61750 0.06300
H 	H 	0.91550 0.33890 0.81640 0.06400
H 	H 	0.76990 0.25890 0.92530 0.01200
H 	H 	0.31320 0.29700 0.60030 0.00300
H 	H 	0.38710 0.20890 0.70550 0.06900
H 	H 	0.21770 0.29520 0.91070 0.06500
H 	H 	0.14680 0.37710 0.79870 0.00600
H 	H 	0.93330 0.42370 0.23010 0.01100
H 	H 	0.79390 0.35110 0.11750 0.06300
H 	H 	0.58450 0.16110 0.31640 0.06400
H 	H 	0.73010 0.24110 0.42530 0.01200
H 	H 	0.18680 0.20300 0.10030 0.00200
H 	H 	0.11290 0.29110 0.20550 0.06900
H 	H 	0.28230 0.20480 0.41070 0.06500
H 	H 	0.35320 0.12290 0.29870 0.00600
H 	H 	0.43330 0.92370 0.26990 0.01200
H 	H 	0.29390 0.85110 0.38250 0.06300
H 	H 	0.08450 0.66110 0.18360 0.06400
H 	H 	0.23010 0.74110 0.07470 0.01200
H 	H 	0.68680 0.70300 0.39970 0.00300
H 	H 	0.61290 0.79110 0.29450 0.06900
H 	H 	0.78230 0.70480 0.08930 0.06500
H 	H 	0.85320 0.62290 0.20130 0.00600
H 	H 	0.06670 0.57630 0.76990 0.01100
H 	H 	0.20610 0.64890 0.88250 0.06300
H 	H 	0.41550 0.83890 0.68360 0.06400
H 	H 	0.26990 0.75890 0.57470 0.01200
H 	H 	0.81320 0.79700 0.89970 0.00200
H 	H 	0.88710 0.70890 0.79450 0.06900
H 	H 	0.71770 0.79520 0.58930 0.06500
H 	H 	0.64680 0.87710 0.70130 0.00600
C 	C 	0.63820 0.12990 0.74740 0.02500
C 	C 	0.72080 0.17340 0.67960 -0.07100
C 	C 	0.82560 0.25340 0.70360 -0.03300
C 	C 	0.84460 0.28550 0.79750 -0.07800
C 	C 	0.75660 0.23700 0.86250 0.04200
C 	C 	0.91990 0.30520 0.62944 0.31900
C 	C 	0.29260 0.29540 0.66370 0.04800
C 	C 	0.33870 0.24310 0.72660 -0.07400
C 	C 	0.31180 0.24230 0.82080 -0.03100
C 	C 	0.23810 0.29380 0.84760 -0.07700
C 	C 	0.19580 0.34260 0.77980 0.05000
C 	C 	0.36170 0.18970 0.89390 0.33600
C 	C 	0.86180 0.37010 0.24740 0.02500
C 	C 	0.77920 0.32660 0.17960 -0.07100
C 	C 	0.67440 0.24660 0.20360 -0.03300
C 	C 	0.65540 0.21450 0.29750 -0.07800
C 	C 	0.74340 0.26300 0.36250 0.04100
C 	C 	0.58010 0.19480 0.12944 0.31900
C 	C 	0.20740 0.20460 0.16370 0.04800
C 	C 	0.16130 0.25690 0.22660 -0.07400
C 	C 	0.18820 0.25770 0.32080 -0.03200
C 	C 	0.26190 0.20620 0.34760 -0.07700
C 	C 	0.30420 0.15740 0.27980 0.05000
C 	C 	0.13830 0.31030 0.39390 0.33600
C 	C 	0.36180 0.87010 0.25260 0.02500
C 	C 	0.27920 0.82660 0.32040 -0.07100
C 	C 	0.17440 0.74660 0.29640 -0.03300
C 	C 	0.15540 0.71450 0.20250 -0.07800
C 	C 	0.24340 0.76300 0.13750 0.04200
C 	C 	0.08010 0.69480 0.37056 0.31900
C 	C 	0.70740 0.70460 0.33630 0.04800
C 	C 	0.66130 0.75690 0.27340 -0.07400
C 	C 	0.68820 0.75770 0.17920 -0.03100
C 	C 	0.76190 0.70620 0.15240 -0.07700
C 	C 	0.80420 0.65740 0.22020 0.05000
C 	C 	0.63830 0.81030 0.10610 0.33600
C 	C 	0.13820 0.62990 0.75260 0.02500
C 	C 	0.22080 0.67340 0.82040 -0.07100
C 	C 	0.32560 0.75340 0.79640 -0.03300
C 	C 	0.34460 0.78550 0.70250 -0.07800
C 	C 	0.25660 0.73700 0.63750 0.04100
C 	C 	0.41990 0.80520 0.87056 0.31900
C 	C 	0.79260 0.79540 0.83630 0.04800
C 	C 	0.83870 0.74310 0.77340 -0.07400
C 	C 	0.81180 0.74230 0.67920 -0.03200
C 	C 	0.73810 0.79380 0.65240 -0.07700
C 	C 	0.69580 0.84260 0.72020 0.05000
C 	C 	0.86170 0.68970 0.60610 0.33600
N 	N 	0.65530 0.16136 0.83954 -0.21600
N 	N 	0.22100 0.34330 0.68816 -0.22200
N 	N 	0.84470 0.33864 0.33954 -0.21600
N 	N 	0.27900 0.15670 0.18816 -0.22200
N 	N 	0.34470 0.83864 0.16046 -0.21600
N 	N 	0.77900 0.65670 0.31184 -0.22200
N 	N 	0.15530 0.66136 0.66046 -0.21600
N 	N 	0.72100 0.84330 0.81184 -0.22200
O 	O 	0.01664 0.37684 0.66159 -0.42300
O 	O 	0.89859 0.28079 0.54633 -0.36800
O 	O 	0.33420 0.19025 0.97758 -0.38400
O 	O 	0.43077 0.14826 0.85972 -0.40200
O 	O 	0.10859 0.50698 0.50653 -0.52800
O 	O 	0.48336 0.12316 0.16159 -0.42400
O 	O 	0.60141 0.21921 0.04633 -0.36900
O 	O 	0.16580 0.30975 0.47758 -0.38400
O 	O 	0.06923 0.35174 0.35972 -0.40300
O 	O 	0.39141 0.99302 0.00653 -0.52600
O 	O 	0.98336 0.62316 0.33841 -0.42300
O 	O 	0.10141 0.71921 0.45367 -0.36800
O 	O 	0.66580 0.80975 0.02242 -0.38400
O 	O 	0.56923 0.85174 0.14028 -0.40200
O 	O 	0.89141 0.49302 0.49347 -0.52800
O 	O 	0.51664 0.87684 0.83841 -0.42400
O 	O 	0.39859 0.78079 0.95367 -0.36900
O 	O 	0.83420 0.69025 0.52242 -0.38400
O 	O 	0.93077 0.64826 0.64028 -0.40300
O 	O 	0.60859 0.00698 0.99347 -0.52600
