data_crystal

_cell_length_a 29.49700
_cell_length_b 29.49700
_cell_length_c 29.49700
_cell_angle_alpha 90.00000
_cell_angle_beta  90.00000
_cell_angle_gamma 90.00000

_symmetry_space_group_name_	'P 1'
_symmetry_space_group_name_H-M	'P 1'

loop_
_symmetry_equiv_pos_as_xyz
  x,y,z

loop_
_atom_site_label
_atom_site_type_symbol
_atom_site_fract_x
_atom_site_fract_y
_atom_site_fract_z
_atom_site_charge
Zn	Zn	0.55506 0.05506 0.44494 1.20800
Zn	Zn	0.94494 0.94494 0.94494 1.20800
Zn	Zn	0.44494 0.55506 0.05506 1.20800
Zn	Zn	0.05506 0.44494 0.55506 1.20800
Zn	Zn	0.80506 0.80506 0.80506 1.20800
Zn	Zn	0.69494 0.19494 0.30506 1.20800
Zn	Zn	0.30506 0.69494 0.19494 1.20800
Zn	Zn	0.19494 0.30506 0.69494 1.20800
Zn	Zn	0.62500 0.12500 0.37500 1.30400
Zn	Zn	0.87500 0.87500 0.87500 1.30400
Zn	Zn	0.37500 0.62500 0.12500 1.30400
Zn	Zn	0.12500 0.37500 0.62500 1.30400
H 	H 	0.44930 0.15900 0.44490 0.03100
H 	H 	0.39720 0.21510 0.42410 0.07700
H 	H 	0.46800 0.23660 0.30740 0.08000
H 	H 	0.51410 0.18050 0.32700 0.03700
H 	H 	0.05070 0.84100 0.94490 0.03100
H 	H 	0.10280 0.78490 0.92410 0.07700
H 	H 	0.03200 0.76340 0.80740 0.08000
H 	H 	0.98590 0.81950 0.82700 0.03700
H 	H 	0.55070 0.65900 0.05510 0.03100
H 	H 	0.60280 0.71510 0.07590 0.07700
H 	H 	0.53200 0.73660 0.19260 0.08000
H 	H 	0.48590 0.68050 0.17300 0.03700
H 	H 	0.94930 0.34100 0.55510 0.03100
H 	H 	0.89720 0.28490 0.57590 0.07700
H 	H 	0.96800 0.26340 0.69260 0.08000
H 	H 	0.01410 0.31950 0.67300 0.03700
H 	H 	0.44490 0.44930 0.15900 0.03000
H 	H 	0.42410 0.39720 0.21510 0.07600
H 	H 	0.30740 0.46800 0.23660 0.07900
H 	H 	0.32700 0.51410 0.18050 0.03600
H 	H 	0.94490 0.05070 0.84100 0.03000
H 	H 	0.92410 0.10280 0.78490 0.07600
H 	H 	0.80740 0.03200 0.76340 0.07900
H 	H 	0.82700 0.98590 0.81950 0.03600
H 	H 	0.05510 0.55070 0.65900 0.03000
H 	H 	0.07590 0.60280 0.71510 0.07600
H 	H 	0.19260 0.53200 0.73660 0.07900
H 	H 	0.17300 0.48590 0.68050 0.03600
H 	H 	0.55510 0.94930 0.34100 0.03000
H 	H 	0.57590 0.89720 0.28490 0.07600
H 	H 	0.69260 0.96800 0.26340 0.07900
H 	H 	0.67300 0.01410 0.31950 0.03600
H 	H 	0.15900 0.44490 0.44930 0.03000
H 	H 	0.21510 0.42410 0.39720 0.07600
H 	H 	0.23660 0.30740 0.46800 0.07900
H 	H 	0.18050 0.32700 0.51410 0.03600
H 	H 	0.84100 0.94490 0.05070 0.03000
H 	H 	0.78490 0.92410 0.10280 0.07600
H 	H 	0.76340 0.80740 0.03200 0.07900
H 	H 	0.81950 0.82700 0.98590 0.03600
H 	H 	0.65900 0.05510 0.55070 0.03000
H 	H 	0.71510 0.07590 0.60280 0.07600
H 	H 	0.73660 0.19260 0.53200 0.07900
H 	H 	0.68050 0.17300 0.48590 0.03600
H 	H 	0.34100 0.55510 0.94930 0.03000
H 	H 	0.28490 0.57590 0.89720 0.07600
H 	H 	0.26340 0.69260 0.96800 0.07900
H 	H 	0.31950 0.67300 0.01410 0.03600
H 	H 	0.90900 0.69930 0.80510 0.03000
H 	H 	0.96510 0.64720 0.82590 0.07600
H 	H 	0.98660 0.71800 0.94260 0.07900
H 	H 	0.93050 0.76410 0.92300 0.03600
H 	H 	0.59100 0.30070 0.30510 0.03000
H 	H 	0.53490 0.35280 0.32590 0.07600
H 	H 	0.51340 0.28200 0.44260 0.07900
H 	H 	0.56950 0.23590 0.42300 0.03600
H 	H 	0.40900 0.80070 0.19490 0.03000
H 	H 	0.46510 0.85280 0.17410 0.07600
H 	H 	0.48660 0.78200 0.05740 0.07900
H 	H 	0.43050 0.73590 0.07700 0.03600
H 	H 	0.09100 0.19930 0.69490 0.03000
H 	H 	0.03490 0.14720 0.67410 0.07600
H 	H 	0.01340 0.21800 0.55740 0.07900
H 	H 	0.06950 0.26410 0.57700 0.03600
H 	H 	0.19930 0.69490 0.09100 0.03000
H 	H 	0.14720 0.67410 0.03490 0.07600
H 	H 	0.21800 0.55740 0.01340 0.07900
H 	H 	0.26410 0.57700 0.06950 0.03600
H 	H 	0.80070 0.19490 0.40900 0.03000
H 	H 	0.85280 0.17410 0.46510 0.07600
H 	H 	0.78200 0.05740 0.48660 0.07900
H 	H 	0.73590 0.07700 0.43050 0.03600
H 	H 	0.30070 0.30510 0.59100 0.03000
H 	H 	0.35280 0.32590 0.53490 0.07600
H 	H 	0.28200 0.44260 0.51340 0.07900
H 	H 	0.23590 0.42300 0.56950 0.03600
H 	H 	0.69930 0.80510 0.90900 0.03000
H 	H 	0.64720 0.82590 0.96510 0.07600
H 	H 	0.71800 0.94260 0.98660 0.07900
H 	H 	0.76410 0.92300 0.93050 0.03600
H 	H 	0.19490 0.40900 0.80070 0.03000
H 	H 	0.17410 0.46510 0.85280 0.07600
H 	H 	0.05740 0.48660 0.78200 0.07900
H 	H 	0.07700 0.43050 0.73590 0.03600
H 	H 	0.69490 0.09100 0.19930 0.03000
H 	H 	0.67410 0.03490 0.14720 0.07600
H 	H 	0.55740 0.01340 0.21800 0.07900
H 	H 	0.57700 0.06950 0.26410 0.03600
H 	H 	0.80510 0.90900 0.69930 0.03000
H 	H 	0.82590 0.96510 0.64720 0.07600
H 	H 	0.94260 0.98660 0.71800 0.07900
H 	H 	0.92300 0.93050 0.76410 0.03600
H 	H 	0.30510 0.59100 0.30070 0.03000
H 	H 	0.32590 0.53490 0.35280 0.07600
H 	H 	0.44260 0.51340 0.28200 0.07900
H 	H 	0.42300 0.56950 0.23590 0.03600
C 	C 	0.48770 0.16280 0.38680 -0.10100
C 	C 	0.45220 0.17420 0.41740 0.02700
C 	C 	0.42190 0.20850 0.40570 -0.09500
C 	C 	0.42980 0.23460 0.36260 0.04300
C 	C 	0.46370 0.22190 0.33490 -0.10700
C 	C 	0.49090 0.18800 0.34690 0.03700
C 	C 	0.52310 0.12770 0.39650 0.33700
C 	C 	0.39580 0.27640 0.35550 0.11400
C 	C 	0.33510 0.31610 0.37510 0.21600
C 	C 	0.01230 0.83720 0.88680 -0.10100
C 	C 	0.04780 0.82580 0.91740 0.02700
C 	C 	0.07810 0.79150 0.90570 -0.09500
C 	C 	0.07020 0.76540 0.86260 0.04300
C 	C 	0.03630 0.77810 0.83490 -0.10700
C 	C 	0.00910 0.81200 0.84690 0.03700
C 	C 	0.97690 0.87230 0.89650 0.33700
C 	C 	0.10420 0.72360 0.85550 0.11400
C 	C 	0.16490 0.68390 0.87510 0.21600
C 	C 	0.51230 0.66280 0.11320 -0.10100
C 	C 	0.54780 0.67420 0.08260 0.02700
C 	C 	0.57810 0.70850 0.09430 -0.09500
C 	C 	0.57020 0.73460 0.13740 0.04300
C 	C 	0.53630 0.72190 0.16510 -0.10700
C 	C 	0.50910 0.68800 0.15310 0.03700
C 	C 	0.47690 0.62770 0.10350 0.33700
C 	C 	0.60420 0.77640 0.14450 0.11400
C 	C 	0.66490 0.81610 0.12490 0.21600
C 	C 	0.98770 0.33720 0.61320 -0.10100
C 	C 	0.95220 0.32580 0.58260 0.02700
C 	C 	0.92190 0.29150 0.59430 -0.09500
C 	C 	0.92980 0.26540 0.63740 0.04300
C 	C 	0.96370 0.27810 0.66510 -0.10700
C 	C 	0.99090 0.31200 0.65310 0.03700
C 	C 	0.02310 0.37230 0.60350 0.33700
C 	C 	0.89580 0.22360 0.64450 0.11400
C 	C 	0.83510 0.18390 0.62490 0.21600
C 	C 	0.38680 0.48770 0.16280 -0.10100
C 	C 	0.41740 0.45220 0.17420 0.02700
C 	C 	0.40570 0.42190 0.20850 -0.09500
C 	C 	0.36260 0.42980 0.23460 0.04300
C 	C 	0.33490 0.46370 0.22190 -0.10700
C 	C 	0.34690 0.49090 0.18800 0.03700
C 	C 	0.39650 0.52310 0.12770 0.33700
C 	C 	0.35550 0.39580 0.27640 0.11400
C 	C 	0.37510 0.33510 0.31610 0.21600
C 	C 	0.88680 0.01230 0.83720 -0.10100
C 	C 	0.91740 0.04780 0.82580 0.02700
C 	C 	0.90570 0.07810 0.79150 -0.09500
C 	C 	0.86260 0.07020 0.76540 0.04300
C 	C 	0.83490 0.03630 0.77810 -0.10700
C 	C 	0.84690 0.00910 0.81200 0.03700
C 	C 	0.89650 0.97690 0.87230 0.33700
C 	C 	0.85550 0.10420 0.72360 0.11400
C 	C 	0.87510 0.16490 0.68390 0.21600
C 	C 	0.11320 0.51230 0.66280 -0.10100
C 	C 	0.08260 0.54780 0.67420 0.02700
C 	C 	0.09430 0.57810 0.70850 -0.09500
C 	C 	0.13740 0.57020 0.73460 0.04300
C 	C 	0.16510 0.53630 0.72190 -0.10700
C 	C 	0.15310 0.50910 0.68800 0.03700
C 	C 	0.10350 0.47690 0.62770 0.33700
C 	C 	0.14450 0.60420 0.77640 0.11400
C 	C 	0.12490 0.66490 0.81610 0.21600
C 	C 	0.61320 0.98770 0.33720 -0.10100
C 	C 	0.58260 0.95220 0.32580 0.02700
C 	C 	0.59430 0.92190 0.29150 -0.09500
C 	C 	0.63740 0.92980 0.26540 0.04300
C 	C 	0.66510 0.96370 0.27810 -0.10700
C 	C 	0.65310 0.99090 0.31200 0.03700
C 	C 	0.60350 0.02310 0.37230 0.33700
C 	C 	0.64450 0.89580 0.22360 0.11400
C 	C 	0.62490 0.83510 0.18390 0.21600
C 	C 	0.16280 0.38680 0.48770 -0.10100
C 	C 	0.17420 0.41740 0.45220 0.02700
C 	C 	0.20850 0.40570 0.42190 -0.09500
C 	C 	0.23460 0.36260 0.42980 0.04300
C 	C 	0.22190 0.33490 0.46370 -0.10700
C 	C 	0.18800 0.34690 0.49090 0.03700
C 	C 	0.12770 0.39650 0.52310 0.33700
C 	C 	0.27640 0.35550 0.39580 0.11400
C 	C 	0.31610 0.37510 0.33510 0.21600
C 	C 	0.83720 0.88680 0.01230 -0.10100
C 	C 	0.82580 0.91740 0.04780 0.02700
C 	C 	0.79150 0.90570 0.07810 -0.09500
C 	C 	0.76540 0.86260 0.07020 0.04300
C 	C 	0.77810 0.83490 0.03630 -0.10700
C 	C 	0.81200 0.84690 0.00910 0.03700
C 	C 	0.87230 0.89650 0.97690 0.33700
C 	C 	0.72360 0.85550 0.10420 0.11400
C 	C 	0.68390 0.87510 0.16490 0.21600
C 	C 	0.66280 0.11320 0.51230 -0.10100
C 	C 	0.67420 0.08260 0.54780 0.02700
C 	C 	0.70850 0.09430 0.57810 -0.09500
C 	C 	0.73460 0.13740 0.57020 0.04300
C 	C 	0.72190 0.16510 0.53630 -0.10700
C 	C 	0.68800 0.15310 0.50910 0.03700
C 	C 	0.62770 0.10350 0.47690 0.33700
C 	C 	0.77640 0.14450 0.60420 0.11400
C 	C 	0.81610 0.12490 0.66490 0.21600
C 	C 	0.33720 0.61320 0.98770 -0.10100
C 	C 	0.32580 0.58260 0.95220 0.02700
C 	C 	0.29150 0.59430 0.92190 -0.09500
C 	C 	0.26540 0.63740 0.92980 0.04300
C 	C 	0.27810 0.66510 0.96370 -0.10700
C 	C 	0.31200 0.65310 0.99090 0.03700
C 	C 	0.37230 0.60350 0.02310 0.33700
C 	C 	0.22360 0.64450 0.89580 0.11400
C 	C 	0.18390 0.62490 0.83510 0.21600
C 	C 	0.91280 0.73770 0.86320 -0.10100
C 	C 	0.92420 0.70220 0.83260 0.02700
C 	C 	0.95850 0.67190 0.84430 -0.09500
C 	C 	0.98460 0.67980 0.88740 0.04300
C 	C 	0.97190 0.71370 0.91510 -0.10700
C 	C 	0.93800 0.74090 0.90310 0.03700
C 	C 	0.87770 0.77310 0.85350 0.33700
C 	C 	0.02640 0.64580 0.89450 0.11400
C 	C 	0.06610 0.58510 0.87490 0.21600
C 	C 	0.58720 0.26230 0.36320 -0.10100
C 	C 	0.57580 0.29780 0.33260 0.02700
C 	C 	0.54150 0.32810 0.34430 -0.09500
C 	C 	0.51540 0.32020 0.38740 0.04300
C 	C 	0.52810 0.28630 0.41510 -0.10700
C 	C 	0.56200 0.25910 0.40310 0.03700
C 	C 	0.62230 0.22690 0.35350 0.33700
C 	C 	0.47360 0.35420 0.39450 0.11400
C 	C 	0.43390 0.41490 0.37490 0.21600
C 	C 	0.41280 0.76230 0.13680 -0.10100
C 	C 	0.42420 0.79780 0.16740 0.02700
C 	C 	0.45850 0.82810 0.15570 -0.09500
C 	C 	0.48460 0.82020 0.11260 0.04300
C 	C 	0.47190 0.78630 0.08490 -0.10700
C 	C 	0.43800 0.75910 0.09690 0.03700
C 	C 	0.37770 0.72690 0.14650 0.33700
C 	C 	0.52640 0.85420 0.10550 0.11400
C 	C 	0.56610 0.91490 0.12510 0.21600
C 	C 	0.08720 0.23770 0.63680 -0.10100
C 	C 	0.07580 0.20220 0.66740 0.02700
C 	C 	0.04150 0.17190 0.65570 -0.09500
C 	C 	0.01540 0.17980 0.61260 0.04300
C 	C 	0.02810 0.21370 0.58490 -0.10700
C 	C 	0.06200 0.24090 0.59690 0.03700
C 	C 	0.12230 0.27310 0.64650 0.33700
C 	C 	0.97360 0.14580 0.60550 0.11400
C 	C 	0.93390 0.08510 0.62510 0.21600
C 	C 	0.23770 0.63680 0.08720 -0.10100
C 	C 	0.20220 0.66740 0.07580 0.02700
C 	C 	0.17190 0.65570 0.04150 -0.09500
C 	C 	0.17980 0.61260 0.01540 0.04300
C 	C 	0.21370 0.58490 0.02810 -0.10700
C 	C 	0.24090 0.59690 0.06200 0.03700
C 	C 	0.27310 0.64650 0.12230 0.33700
C 	C 	0.14580 0.60550 0.97360 0.11400
C 	C 	0.08510 0.62510 0.93390 0.21600
C 	C 	0.76230 0.13680 0.41280 -0.10100
C 	C 	0.79780 0.16740 0.42420 0.02700
C 	C 	0.82810 0.15570 0.45850 -0.09500
C 	C 	0.82020 0.11260 0.48460 0.04300
C 	C 	0.78630 0.08490 0.47190 -0.10700
C 	C 	0.75910 0.09690 0.43800 0.03700
C 	C 	0.72690 0.14650 0.37770 0.33700
C 	C 	0.85420 0.10550 0.52640 0.11400
C 	C 	0.91490 0.12510 0.56610 0.21600
C 	C 	0.26230 0.36320 0.58720 -0.10100
C 	C 	0.29780 0.33260 0.57580 0.02700
C 	C 	0.32810 0.34430 0.54150 -0.09500
C 	C 	0.32020 0.38740 0.51540 0.04300
C 	C 	0.28630 0.41510 0.52810 -0.10700
C 	C 	0.25910 0.40310 0.56200 0.03700
C 	C 	0.22690 0.35350 0.62230 0.33700
C 	C 	0.35420 0.39450 0.47360 0.11400
C 	C 	0.41490 0.37490 0.43390 0.21600
C 	C 	0.73770 0.86320 0.91280 -0.10100
C 	C 	0.70220 0.83260 0.92420 0.02700
C 	C 	0.67190 0.84430 0.95850 -0.09500
C 	C 	0.67980 0.88740 0.98460 0.04300
C 	C 	0.71370 0.91510 0.97190 -0.10700
C 	C 	0.74090 0.90310 0.93800 0.03700
C 	C 	0.77310 0.85350 0.87770 0.33700
C 	C 	0.64580 0.89450 0.02640 0.11400
C 	C 	0.58510 0.87490 0.06610 0.21600
C 	C 	0.13680 0.41280 0.76230 -0.10100
C 	C 	0.16740 0.42420 0.79780 0.02700
C 	C 	0.15570 0.45850 0.82810 -0.09500
C 	C 	0.11260 0.48460 0.82020 0.04300
C 	C 	0.08490 0.47190 0.78630 -0.10700
C 	C 	0.09690 0.43800 0.75910 0.03700
C 	C 	0.14650 0.37770 0.72690 0.33700
C 	C 	0.10550 0.52640 0.85420 0.11400
C 	C 	0.12510 0.56610 0.91490 0.21600
C 	C 	0.63680 0.08720 0.23770 -0.10100
C 	C 	0.66740 0.07580 0.20220 0.02700
C 	C 	0.65570 0.04150 0.17190 -0.09500
C 	C 	0.61260 0.01540 0.17980 0.04300
C 	C 	0.58490 0.02810 0.21370 -0.10700
C 	C 	0.59690 0.06200 0.24090 0.03700
C 	C 	0.64650 0.12230 0.27310 0.33700
C 	C 	0.60550 0.97360 0.14580 0.11400
C 	C 	0.62510 0.93390 0.08510 0.21600
C 	C 	0.86320 0.91280 0.73770 -0.10100
C 	C 	0.83260 0.92420 0.70220 0.02700
C 	C 	0.84430 0.95850 0.67190 -0.09500
C 	C 	0.88740 0.98460 0.67980 0.04300
C 	C 	0.91510 0.97190 0.71370 -0.10700
C 	C 	0.90310 0.93800 0.74090 0.03700
C 	C 	0.85350 0.87770 0.77310 0.33700
C 	C 	0.89450 0.02640 0.64580 0.11400
C 	C 	0.87490 0.06610 0.58510 0.21600
C 	C 	0.36320 0.58720 0.26230 -0.10100
C 	C 	0.33260 0.57580 0.29780 0.02700
C 	C 	0.34430 0.54150 0.32810 -0.09500
C 	C 	0.38740 0.51540 0.32020 0.04300
C 	C 	0.41510 0.52810 0.28630 -0.10700
C 	C 	0.40310 0.56200 0.25910 0.03700
C 	C 	0.35350 0.62230 0.22690 0.33700
C 	C 	0.39450 0.47360 0.35420 0.11400
C 	C 	0.37490 0.43390 0.41490 0.21600
N 	N 	0.36150 0.27950 0.38570 -0.15200
N 	N 	0.40539 0.30020 0.32040 -0.15600
N 	N 	0.13850 0.72050 0.88570 -0.15200
N 	N 	0.09461 0.69980 0.82040 -0.15600
N 	N 	0.63850 0.77950 0.11430 -0.15200
N 	N 	0.59461 0.80020 0.17960 -0.15600
N 	N 	0.86150 0.22050 0.61430 -0.15200
N 	N 	0.90539 0.19980 0.67960 -0.15600
N 	N 	0.38570 0.36150 0.27950 -0.15200
N 	N 	0.32040 0.40539 0.30020 -0.15600
N 	N 	0.88570 0.13850 0.72050 -0.15200
N 	N 	0.82040 0.09461 0.69980 -0.15600
N 	N 	0.11430 0.63850 0.77950 -0.15200
N 	N 	0.17960 0.59461 0.80020 -0.15600
N 	N 	0.61430 0.86150 0.22050 -0.15200
N 	N 	0.67960 0.90539 0.19980 -0.15600
N 	N 	0.27950 0.38570 0.36150 -0.15200
N 	N 	0.30020 0.32040 0.40539 -0.15600
N 	N 	0.72050 0.88570 0.13850 -0.15200
N 	N 	0.69980 0.82040 0.09461 -0.15600
N 	N 	0.77950 0.11430 0.63850 -0.15200
N 	N 	0.80020 0.17960 0.59461 -0.15600
N 	N 	0.22050 0.61430 0.86150 -0.15200
N 	N 	0.19980 0.67960 0.90539 -0.15600
N 	N 	0.02950 0.61150 0.86430 -0.15200
N 	N 	0.05020 0.65539 0.92960 -0.15600
N 	N 	0.47050 0.38850 0.36430 -0.15200
N 	N 	0.44980 0.34461 0.42960 -0.15600
N 	N 	0.52950 0.88850 0.13570 -0.15200
N 	N 	0.55020 0.84461 0.07040 -0.15600
N 	N 	0.97050 0.11150 0.63570 -0.15200
N 	N 	0.94980 0.15539 0.57040 -0.15600
N 	N 	0.11150 0.63570 0.97050 -0.15200
N 	N 	0.15539 0.57040 0.94980 -0.15600
N 	N 	0.88850 0.13570 0.52950 -0.15200
N 	N 	0.84461 0.07040 0.55020 -0.15600
N 	N 	0.38850 0.36430 0.47050 -0.15200
N 	N 	0.34461 0.42960 0.44980 -0.15600
N 	N 	0.61150 0.86430 0.02950 -0.15200
N 	N 	0.65539 0.92960 0.05020 -0.15600
N 	N 	0.13570 0.52950 0.88850 -0.15200
N 	N 	0.07040 0.55020 0.84461 -0.15600
N 	N 	0.63570 0.97050 0.11150 -0.15200
N 	N 	0.57040 0.94980 0.15539 -0.15600
N 	N 	0.86430 0.02950 0.61150 -0.15200
N 	N 	0.92960 0.05020 0.65539 -0.15600
N 	N 	0.36430 0.47050 0.38850 -0.15200
N 	N 	0.42960 0.44980 0.34461 -0.15600
N 	N 	0.34243 0.34243 0.34243 -0.24500
N 	N 	0.15757 0.65757 0.84243 -0.24500
N 	N 	0.65757 0.84243 0.15757 -0.24500
N 	N 	0.84243 0.15757 0.65757 -0.24500
N 	N 	0.09243 0.59243 0.90757 -0.24500
N 	N 	0.40757 0.40757 0.40757 -0.24500
N 	N 	0.59243 0.90757 0.09243 -0.24500
N 	N 	0.90757 0.09243 0.59243 -0.24500
O 	O 	0.51573 0.10394 0.43113 -0.49400
O 	O 	0.56235 0.12618 0.37087 -0.42900
O 	O 	0.98427 0.89606 0.93113 -0.49400
O 	O 	0.93765 0.87382 0.87087 -0.42900
O 	O 	0.48427 0.60394 0.06887 -0.49400
O 	O 	0.43765 0.62618 0.12913 -0.42900
O 	O 	0.01573 0.39606 0.56887 -0.49400
O 	O 	0.06235 0.37382 0.62913 -0.42900
O 	O 	0.43113 0.51573 0.10394 -0.49400
O 	O 	0.37087 0.56235 0.12618 -0.42900
O 	O 	0.93113 0.98427 0.89606 -0.49400
O 	O 	0.87087 0.93765 0.87382 -0.42900
O 	O 	0.06887 0.48427 0.60394 -0.49400
O 	O 	0.12913 0.43765 0.62618 -0.42900
O 	O 	0.56887 0.01573 0.39606 -0.49400
O 	O 	0.62913 0.06235 0.37382 -0.42900
O 	O 	0.10394 0.43113 0.51573 -0.49400
O 	O 	0.12618 0.37087 0.56235 -0.42900
O 	O 	0.89606 0.93113 0.98427 -0.49400
O 	O 	0.87382 0.87087 0.93765 -0.42900
O 	O 	0.60394 0.06887 0.48427 -0.49400
O 	O 	0.62618 0.12913 0.43765 -0.42900
O 	O 	0.39606 0.56887 0.01573 -0.49400
O 	O 	0.37382 0.62913 0.06235 -0.42900
O 	O 	0.85394 0.76573 0.81887 -0.49400
O 	O 	0.87618 0.81235 0.87913 -0.42900
O 	O 	0.64606 0.23427 0.31887 -0.49400
O 	O 	0.62382 0.18765 0.37913 -0.42900
O 	O 	0.35394 0.73427 0.18113 -0.49400
O 	O 	0.37618 0.68765 0.12087 -0.42900
O 	O 	0.14606 0.26573 0.68113 -0.49400
O 	O 	0.12382 0.31235 0.62087 -0.42900
O 	O 	0.26573 0.68113 0.14606 -0.49400
O 	O 	0.31235 0.62087 0.12382 -0.42900
O 	O 	0.73427 0.18113 0.35394 -0.49400
O 	O 	0.68765 0.12087 0.37618 -0.42900
O 	O 	0.23427 0.31887 0.64606 -0.49400
O 	O 	0.18765 0.37913 0.62382 -0.42900
O 	O 	0.76573 0.81887 0.85394 -0.49400
O 	O 	0.81235 0.87913 0.87618 -0.42900
O 	O 	0.18113 0.35394 0.73427 -0.49400
O 	O 	0.12087 0.37618 0.68765 -0.42900
O 	O 	0.68113 0.14606 0.26573 -0.49400
O 	O 	0.62087 0.12382 0.31235 -0.42900
O 	O 	0.81887 0.85394 0.76573 -0.49400
O 	O 	0.87913 0.87618 0.81235 -0.42900
O 	O 	0.31887 0.64606 0.23427 -0.49400
O 	O 	0.37913 0.62382 0.18765 -0.42900
