data_crystal

_cell_length_a 9.44420
_cell_length_b 15.44900
_cell_length_c 9.57190
_cell_angle_alpha 90.00000
_cell_angle_beta  93.26800
_cell_angle_gamma 90.00000

_symmetry_space_group_name_	'P 1'
_symmetry_space_group_name_H-M	'P 1'

loop_
_symmetry_equiv_pos_as_xyz
  x,y,z

loop_
_atom_site_label
_atom_site_type_symbol
_atom_site_fract_x
_atom_site_fract_y
_atom_site_fract_z
_atom_site_charge
U 	U 	0.45078 0.22963 0.19832 0.03900
P 	P 	0.20300 0.20140 0.96830 0.47300
O 	O 	0.36450 0.20110 0.94930 -0.12300
O 	O 	0.19610 0.23110 0.11760 -0.13700
O 	O 	0.12480 0.26470 0.86480 -0.13400
O 	O 	0.14760 0.10920 0.94640 -0.13300
U 	U 	0.95078 0.72963 0.69832 0.04300
P 	P 	0.70300 0.70140 0.46830 0.47200
O 	O 	0.86450 0.70110 0.44930 -0.12200
O 	O 	0.69610 0.73110 0.61760 -0.13400
O 	O 	0.62480 0.76470 0.36480 -0.13200
O 	O 	0.64760 0.60920 0.44640 -0.13200
U 	U 	0.54922 0.22963 0.80168 0.04100
P 	P 	0.79700 0.20140 0.03170 0.46900
O 	O 	0.63550 0.20110 0.05070 -0.12400
O 	O 	0.80390 0.23110 0.88240 -0.13200
O 	O 	0.87520 0.26470 0.13520 -0.13200
O 	O 	0.85240 0.10920 0.05360 -0.13300
U 	U 	0.04922 0.72963 0.30168 0.03900
P 	P 	0.29700 0.70140 0.53170 0.47200
O 	O 	0.13550 0.70110 0.55070 -0.12500
O 	O 	0.30390 0.73110 0.38240 -0.13500
O 	O 	0.37520 0.76470 0.63520 -0.13200
O 	O 	0.35240 0.60920 0.55360 -0.13300
U 	U 	0.54922 0.77037 0.80168 0.04100
P 	P 	0.79700 0.79860 0.03170 0.46900
O 	O 	0.63550 0.79890 0.05070 -0.12400
O 	O 	0.80390 0.76890 0.88240 -0.13200
O 	O 	0.87520 0.73530 0.13520 -0.13200
O 	O 	0.85240 0.89080 0.05360 -0.13100
U 	U 	0.04922 0.27037 0.30168 0.03900
P 	P 	0.29700 0.29860 0.53170 0.47200
O 	O 	0.13550 0.29890 0.55070 -0.12500
O 	O 	0.30390 0.26890 0.38240 -0.13500
O 	O 	0.37520 0.23530 0.63520 -0.13300
O 	O 	0.35240 0.39080 0.55360 -0.13300
U 	U 	0.45078 0.77037 0.19832 0.04000
P 	P 	0.20300 0.79860 0.96830 0.47300
O 	O 	0.36450 0.79890 0.94930 -0.12200
O 	O 	0.19610 0.76890 0.11760 -0.13600
O 	O 	0.12480 0.73530 0.86480 -0.13400
O 	O 	0.14760 0.89080 0.94640 -0.13100
U 	U 	0.95078 0.27037 0.69832 0.04200
P 	P 	0.70300 0.29860 0.46830 0.47200
O 	O 	0.86450 0.29890 0.44930 -0.12300
O 	O 	0.69610 0.26890 0.61760 -0.13500
O 	O 	0.62480 0.23530 0.36480 -0.13300
O 	O 	0.64760 0.39080 0.44640 -0.13200
U 	U 	-0.00000 0.00000 -0.00000 0.04200
U 	U 	0.50000 0.50000 0.50000 0.04600
