data_crystal

_cell_length_a 18.64000
_cell_length_b 18.64000
_cell_length_c 18.64000
_cell_angle_alpha 90.00000
_cell_angle_beta  90.00000
_cell_angle_gamma 90.00000

_symmetry_space_group_name_	'P 1'
_symmetry_space_group_name_H-M	'P 1'

loop_
_symmetry_equiv_pos_as_xyz
  x,y,z

loop_
_atom_site_label
_atom_site_type_symbol
_atom_site_fract_x
_atom_site_fract_y
_atom_site_fract_z
_atom_site_charge
Co	Co	0.06672 0.93328 0.43328 1.00600
Co	Co	0.43328 0.06672 0.93328 1.00700
Co	Co	0.93328 0.43328 0.06672 1.00700
Co	Co	0.56672 0.56672 0.56672 1.00700
Co	Co	0.18328 0.81672 0.31672 1.00700
Co	Co	0.31672 0.18328 0.81672 1.00700
Co	Co	0.68328 0.68328 0.68328 1.00700
Co	Co	0.81672 0.31672 0.18328 1.00700
H 	H 	0.96180 0.62500 0.28820 0.03200
H 	H 	0.53820 0.37500 0.78820 0.03200
H 	H 	0.03820 0.12500 0.21180 0.03200
H 	H 	0.46180 0.87500 0.71180 0.03300
H 	H 	0.28820 0.96180 0.62500 0.03200
H 	H 	0.78820 0.53820 0.37500 0.03200
H 	H 	0.21180 0.03820 0.12500 0.03200
H 	H 	0.71180 0.46180 0.87500 0.03300
H 	H 	0.62500 0.28820 0.96180 0.03200
H 	H 	0.37500 0.78820 0.53820 0.03200
H 	H 	0.12500 0.21180 0.03820 0.03200
H 	H 	0.87500 0.71180 0.46180 0.03300
C 	C 	0.92745 0.67745 0.37500 -0.02000
C 	C 	0.98367 0.73367 0.37500 0.09100
C 	C 	0.57255 0.32255 0.87500 -0.02000
C 	C 	0.51633 0.26633 0.87500 0.09000
C 	C 	0.07255 0.17745 0.12500 -0.02000
C 	C 	0.01633 0.23367 0.12500 0.09100
C 	C 	0.42745 0.82255 0.62500 -0.02000
C 	C 	0.48367 0.76633 0.62500 0.09000
C 	C 	0.37500 0.92745 0.67745 -0.02000
C 	C 	0.37500 0.98367 0.73367 0.09100
C 	C 	0.87500 0.57255 0.32255 -0.02000
C 	C 	0.87500 0.51633 0.26633 0.09000
C 	C 	0.12500 0.07255 0.17745 -0.02000
C 	C 	0.12500 0.01633 0.23367 0.09100
C 	C 	0.62500 0.42745 0.82255 -0.02000
C 	C 	0.62500 0.48367 0.76633 0.09000
C 	C 	0.67745 0.37500 0.92745 -0.02000
C 	C 	0.73367 0.37500 0.98367 0.09100
C 	C 	0.32255 0.87500 0.57255 -0.02000
C 	C 	0.26633 0.87500 0.51633 0.09000
C 	C 	0.17745 0.12500 0.07255 -0.02000
C 	C 	0.23367 0.12500 0.01633 0.09100
C 	C 	0.82255 0.62500 0.42745 -0.02000
C 	C 	0.76633 0.62500 0.48367 0.09000
C 	C 	0.92650 0.62500 0.32350 -0.07000
C 	C 	0.57350 0.37500 0.82350 -0.07000
C 	C 	0.07350 0.12500 0.17650 -0.07000
C 	C 	0.42650 0.87500 0.67650 -0.07000
C 	C 	0.32350 0.92650 0.62500 -0.07000
C 	C 	0.82350 0.57350 0.37500 -0.07000
C 	C 	0.17650 0.07350 0.12500 -0.07000
C 	C 	0.67650 0.42650 0.87500 -0.07000
C 	C 	0.62500 0.32350 0.92650 -0.07000
C 	C 	0.37500 0.82350 0.57350 -0.07000
C 	C 	0.12500 0.17650 0.07350 -0.07000
C 	C 	0.87500 0.67650 0.42650 -0.07000
N 	N 	0.03855 0.82939 0.39679 -0.21000
N 	N 	0.97808 0.79449 0.41263 -0.14200
N 	N 	0.46145 0.17061 0.89679 -0.21000
N 	N 	0.52192 0.20551 0.91263 -0.14200
N 	N 	0.96145 0.32939 0.10321 -0.21000
N 	N 	0.02192 0.29449 0.08737 -0.14200
N 	N 	0.53855 0.67061 0.60321 -0.21000
N 	N 	0.47808 0.70551 0.58737 -0.14200
N 	N 	0.39679 0.03855 0.82939 -0.21000
N 	N 	0.41263 0.97808 0.79449 -0.14200
N 	N 	0.89679 0.46145 0.17061 -0.21000
N 	N 	0.91263 0.52192 0.20551 -0.14200
N 	N 	0.10321 0.96145 0.32939 -0.21000
N 	N 	0.08737 0.02192 0.29449 -0.14200
N 	N 	0.60321 0.53855 0.67061 -0.21000
N 	N 	0.58737 0.47808 0.70551 -0.14200
N 	N 	0.82939 0.39679 0.03855 -0.21000
N 	N 	0.79449 0.41263 0.97808 -0.14200
N 	N 	0.17061 0.89679 0.46145 -0.21000
N 	N 	0.20551 0.91263 0.52192 -0.14200
N 	N 	0.32939 0.10321 0.96145 -0.21000
N 	N 	0.29449 0.08737 0.02192 -0.14200
N 	N 	0.67061 0.60321 0.53855 -0.21000
N 	N 	0.70551 0.58737 0.47808 -0.14200
N 	N 	0.07939 0.78855 0.35321 -0.21000
N 	N 	0.04449 0.72808 0.33737 -0.14200
N 	N 	0.42061 0.21145 0.85321 -0.21000
N 	N 	0.45551 0.27192 0.83737 -0.14200
N 	N 	0.57939 0.71145 0.64679 -0.21000
N 	N 	0.54449 0.77192 0.66263 -0.14200
N 	N 	0.92061 0.28855 0.14679 -0.21000
N 	N 	0.95551 0.22808 0.16263 -0.14200
N 	N 	0.28855 0.14679 0.92061 -0.21000
N 	N 	0.22808 0.16263 0.95551 -0.14200
N 	N 	0.71145 0.64679 0.57939 -0.21000
N 	N 	0.77192 0.66263 0.54449 -0.14200
N 	N 	0.21145 0.85321 0.42061 -0.21000
N 	N 	0.27192 0.83737 0.45551 -0.14200
N 	N 	0.78855 0.35321 0.07939 -0.21000
N 	N 	0.72808 0.33737 0.04449 -0.14200
N 	N 	0.64679 0.57939 0.71145 -0.21000
N 	N 	0.66263 0.54449 0.77192 -0.14200
N 	N 	0.14679 0.92061 0.28855 -0.21000
N 	N 	0.16263 0.95551 0.22808 -0.14200
N 	N 	0.35321 0.07939 0.78855 -0.21000
N 	N 	0.33737 0.04449 0.72808 -0.14200
N 	N 	0.85321 0.42061 0.21145 -0.21000
N 	N 	0.83737 0.45551 0.27192 -0.14200
