data_crystal

_cell_length_a 7.69400
_cell_length_b 9.21000
_cell_length_c 10.76400
_cell_angle_alpha 108.59800
_cell_angle_beta  92.30000
_cell_angle_gamma 109.81400

_symmetry_space_group_name_	'P 1'
_symmetry_space_group_name_H-M	'P 1'

loop_
_symmetry_equiv_pos_as_xyz
  x,y,z

loop_
_atom_site_label
_atom_site_type_symbol
_atom_site_fract_x
_atom_site_fract_y
_atom_site_fract_z
_atom_site_charge
Ni	Ni	0.85027 0.86585 0.87217 1.14500
Ni	Ni	0.14973 0.13415 0.12783 1.06800
Ni	Ni	0.50000 0.00000 -0.00000 1.04600
H 	H 	0.61710 0.85810 0.36100 0.12300
H 	H 	0.82010 0.98600 0.41460 0.13000
H 	H 	0.52630 0.57830 0.37330 0.09000
H 	H 	0.67280 0.52770 0.43410 0.08400
H 	H 	0.72620 0.58870 0.07790 0.02900
H 	H 	0.55550 0.60990 0.14240 0.06100
H 	H 	0.80460 0.13880 0.91710 0.22300
H 	H 	0.66100 0.00900 0.79280 0.23400
H 	H 	0.38290 0.14190 0.63900 0.08800
H 	H 	0.17990 0.01400 0.58540 0.06700
H 	H 	0.47370 0.42170 0.62670 0.09000
H 	H 	0.32720 0.47230 0.56590 0.09500
H 	H 	0.27380 0.41130 0.92210 0.11600
H 	H 	0.44450 0.39010 0.85760 0.11700
H 	H 	0.19540 0.86120 0.08290 0.19600
H 	H 	0.33900 0.99100 0.20720 0.30000
C 	C 	0.75990 0.89860 0.14120 0.35300
C 	C 	0.79910 0.81090 0.23190 -0.03000
C 	C 	0.74550 0.87220 0.37030 -0.18300
C 	C 	0.78080 0.77250 0.45050 0.01400
C 	C 	0.65390 0.58880 0.38180 -0.15600
C 	C 	0.70310 0.52140 0.24290 -0.04100
C 	C 	0.68360 0.62510 0.15960 -0.12000
C 	C 	0.75280 0.83450 0.59460 0.30500
C 	C 	0.56620 0.34360 0.16890 0.35100
C 	C 	0.24010 0.10140 0.85880 0.34200
C 	C 	0.20090 0.18910 0.76810 -0.02200
C 	C 	0.25450 0.12780 0.62970 -0.14800
C 	C 	0.21920 0.22750 0.54950 -0.01400
C 	C 	0.34610 0.41120 0.61820 -0.16600
C 	C 	0.29690 0.47860 0.75710 0.01100
C 	C 	0.31640 0.37490 0.84040 -0.18600
C 	C 	0.24720 0.16550 0.40540 0.31700
C 	C 	0.43380 0.65640 0.83110 0.33800
O 	O 	0.60510 0.91000 0.12720 -0.39100
O 	O 	0.89080 0.94830 0.07630 -0.55300
O 	O 	0.71500 0.02910 0.88020 -0.68600
O 	O 	0.39650 0.31730 0.15550 -0.47400
O 	O 	0.63950 0.23530 0.12520 -0.46400
O 	O 	0.63670 0.89970 0.62570 -0.25200
O 	O 	0.85270 0.81090 0.67620 -0.38400
O 	O 	0.39490 0.09000 0.87280 -0.38200
O 	O 	0.10920 0.05170 0.92370 -0.52100
O 	O 	0.28500 0.97090 0.11980 -0.64700
O 	O 	0.60350 0.68270 0.84450 -0.40500
O 	O 	0.36050 0.76470 0.87480 -0.32900
O 	O 	0.36330 0.10030 0.37430 -0.35200
O 	O 	0.14730 0.18910 0.32380 -0.42700
