data_crystal

_cell_length_a 7.67300
_cell_length_b 9.66100
_cell_length_c 10.53300
_cell_angle_alpha 106.54000
_cell_angle_beta  105.28000
_cell_angle_gamma 100.62000

_symmetry_space_group_name_	'P 1'
_symmetry_space_group_name_H-M	'P 1'

loop_
_symmetry_equiv_pos_as_xyz
  x,y,z

loop_
_atom_site_label
_atom_site_type_symbol
_atom_site_fract_x
_atom_site_fract_y
_atom_site_fract_z
_atom_site_charge
Tb	Tb	0.75327 0.96764 0.54887 1.90400
Tb	Tb	0.24673 0.03236 0.45113 1.90400
H 	H 	0.45300 0.37500 0.34450 0.18400
H 	H 	0.46280 0.19820 0.95050 0.17100
H 	H 	0.18410 0.51020 0.03660 0.17700
H 	H 	0.15190 0.60190 0.26420 0.19100
H 	H 	0.22490 0.52770 0.37870 0.17900
H 	H 	0.63260 0.12380 0.12040 0.19300
H 	H 	0.73590 0.26260 0.26430 0.18400
H 	H 	0.22910 0.43220 0.80970 0.18300
H 	H 	0.36200 0.32510 0.78380 0.19300
H 	H 	0.54700 0.62500 0.65550 0.18400
H 	H 	0.53720 0.80180 0.04950 0.17100
H 	H 	0.81590 0.48980 0.96340 0.17700
H 	H 	0.84810 0.39810 0.73580 0.19100
H 	H 	0.77510 0.47230 0.62130 0.17900
H 	H 	0.36740 0.87620 0.87960 0.19300
H 	H 	0.26410 0.73740 0.73570 0.18400
H 	H 	0.77090 0.56780 0.19030 0.18300
H 	H 	0.63800 0.67490 0.21620 0.19300
C 	C 	0.30910 0.45890 0.20600 0.40600
C 	C 	0.41890 0.36990 0.24940 -0.45400
C 	C 	0.47860 0.27390 0.15510 0.41600
C 	C 	0.42380 0.26460 0.01580 -0.45500
C 	C 	0.31140 0.35200 0.97000 0.41200
C 	C 	0.25770 0.44900 0.06630 -0.46300
C 	C 	0.26100 0.57330 0.31300 -0.58900
C 	C 	0.42610 0.71300 0.39540 0.53600
C 	C 	0.61310 0.18870 0.20400 -0.60800
C 	C 	0.55630 0.09080 0.28450 0.57600
C 	C 	0.25530 0.33790 0.81780 -0.57500
C 	C 	0.08450 0.20770 0.72510 0.48700
C 	C 	0.69090 0.54110 0.79400 0.40600
C 	C 	0.58110 0.63010 0.75060 -0.45400
C 	C 	0.52140 0.72610 0.84490 0.41600
C 	C 	0.57620 0.73540 0.98420 -0.45500
C 	C 	0.68860 0.64800 0.03000 0.41200
C 	C 	0.74230 0.55100 0.93370 -0.46300
C 	C 	0.73900 0.42670 0.68700 -0.58900
C 	C 	0.57390 0.28700 0.60460 0.53600
C 	C 	0.38690 0.81130 0.79600 -0.60800
C 	C 	0.44370 0.90920 0.71550 0.57600
C 	C 	0.74470 0.66210 0.18220 -0.57500
C 	C 	0.91550 0.79230 0.27490 0.48700
O 	O 	0.58790 0.70150 0.44310 -0.51200
O 	O 	0.40100 0.84300 0.41640 -0.61100
O 	O 	0.39370 0.06690 0.28920 -0.53600
O 	O 	0.68420 0.03950 0.34300 -0.52000
O 	O 	0.06520 0.13870 0.59630 -0.61200
O 	O 	0.95710 0.16910 0.77200 -0.45700
O 	O 	0.41210 0.29850 0.55690 -0.51200
O 	O 	0.59900 0.15700 0.58360 -0.61100
O 	O 	0.60630 0.93310 0.71080 -0.53600
O 	O 	0.31580 0.96050 0.65700 -0.52000
O 	O 	0.93480 0.86130 0.40370 -0.61200
O 	O 	0.04290 0.83090 0.22800 -0.45700
