data_crystal

_cell_length_a 8.47350
_cell_length_b 10.88360
_cell_length_c 11.13010
_cell_angle_alpha 64.33300
_cell_angle_beta  80.33000
_cell_angle_gamma 73.76000

_symmetry_space_group_name_	'P 1'
_symmetry_space_group_name_H-M	'P 1'

loop_
_symmetry_equiv_pos_as_xyz
  x,y,z

loop_
_atom_site_label
_atom_site_type_symbol
_atom_site_fract_x
_atom_site_fract_y
_atom_site_fract_z
_atom_site_charge
Nd	Nd	0.25174 0.99682 0.49731 2.02400
Nd	Nd	0.74826 0.00318 0.50269 2.02400
H 	H 	0.25040 0.05120 0.97670 0.17500
H 	H 	0.24140 0.43300 0.67580 0.16400
H 	H 	0.90480 0.39190 0.98560 0.16000
H 	H 	0.98310 0.03070 0.12510 0.19200
H 	H 	0.87650 0.16810 0.14420 0.16000
H 	H 	0.46800 0.24220 0.68290 0.16400
H 	H 	0.48870 0.09630 0.81110 0.18400
H 	H 	0.93820 0.62410 0.82870 0.17200
H 	H 	0.07140 0.64140 0.70610 0.13400
H 	H 	0.74960 0.94880 0.02330 0.17500
H 	H 	0.75860 0.56700 0.32420 0.16400
H 	H 	0.09520 0.60810 0.01440 0.16000
H 	H 	0.01690 0.96930 0.87490 0.19200
H 	H 	0.12350 0.83190 0.85580 0.16000
H 	H 	0.53200 0.75780 0.31710 0.16400
H 	H 	0.51130 0.90370 0.18890 0.18400
H 	H 	0.06180 0.37590 0.17130 0.17200
H 	H 	0.92860 0.35860 0.29390 0.13400
C 	C 	0.06610 0.20730 0.00160 0.40900
C 	C 	0.20210 0.14880 0.93720 -0.44700
C 	C 	0.26690 0.23300 0.81560 0.41100
C 	C 	0.19630 0.37570 0.75880 -0.44700
C 	C 	0.06180 0.43630 0.82030 0.39400
C 	C 	0.99700 0.35140 0.94230 -0.45400
C 	C 	0.99020 0.11690 0.13160 -0.59900
C 	C 	0.08290 0.07560 0.25250 0.51900
C 	C 	0.41030 0.16860 0.74440 -0.57900
C 	C 	0.36230 0.10230 0.66520 0.54300
C 	C 	0.98410 0.59150 0.75680 -0.54900
C 	C 	0.84860 0.63270 0.66370 0.53500
C 	C 	0.93390 0.79270 0.99840 0.40900
C 	C 	0.79790 0.85120 0.06280 -0.44700
C 	C 	0.73310 0.76700 0.18440 0.41100
C 	C 	0.80370 0.62430 0.24120 -0.44700
C 	C 	0.93820 0.56370 0.17970 0.39400
C 	C 	0.00300 0.64860 0.05770 -0.45400
C 	C 	0.00980 0.88310 0.86840 -0.59900
C 	C 	0.91710 0.92440 0.74750 0.51900
C 	C 	0.58970 0.83140 0.25560 -0.57900
C 	C 	0.63770 0.89770 0.33480 0.54300
C 	C 	0.01590 0.40850 0.24320 -0.54900
C 	C 	0.15140 0.36730 0.33630 0.53500
O 	O 	0.00320 0.04850 0.36700 -0.68500
O 	O 	0.23800 0.05920 0.24810 -0.48600
O 	O 	0.21730 0.09020 0.67420 -0.50000
O 	O 	0.46960 0.06260 0.58700 -0.68700
O 	O 	0.77840 0.75930 0.61530 -0.56400
O 	O 	0.81110 0.54090 0.64300 -0.34300
O 	O 	0.99680 0.95150 0.63300 -0.68500
O 	O 	0.76200 0.94080 0.75190 -0.48600
O 	O 	0.78270 0.90980 0.32580 -0.50000
O 	O 	0.53040 0.93740 0.41300 -0.68700
O 	O 	0.22160 0.24070 0.38470 -0.56400
O 	O 	0.18890 0.45910 0.35700 -0.34300
