data_crystal

_cell_length_a 9.51150
_cell_length_b 12.92000
_cell_length_c 12.92000
_cell_angle_alpha 91.98190
_cell_angle_beta  90.00000
_cell_angle_gamma 90.00000

_symmetry_space_group_name_	'P 1'
_symmetry_space_group_name_H-M	'P 1'

loop_
_symmetry_equiv_pos_as_xyz
  x,y,z

loop_
_atom_site_label
_atom_site_type_symbol
_atom_site_fract_x
_atom_site_fract_y
_atom_site_fract_z
_atom_site_charge
U 	U 	0.77706 0.68040 0.09918 -0.00400
U 	U 	0.27706 0.31960 0.90082 0.01100
U 	U 	0.27706 0.90082 0.31960 0.01100
U 	U 	0.77706 0.09918 0.68040 -0.00400
U 	U 	0.94812 0.20613 0.20613 0.00400
U 	U 	0.44812 0.79387 0.79387 0.01700
P 	P 	0.90430 0.22989 0.92781 0.30700
P 	P 	0.97060 0.43029 0.03619 0.30900
P 	P 	0.40430 0.77011 0.07219 0.35600
P 	P 	0.47060 0.56971 0.96381 0.33700
P 	P 	0.40430 0.07219 0.77011 0.35600
P 	P 	0.47060 0.96381 0.56971 0.33700
P 	P 	0.90430 0.92781 0.22989 0.30800
P 	P 	0.97060 0.03619 0.43029 0.30900
H 	H 	0.95250 0.41920 0.81220 0.26200
H 	H 	0.79670 0.38560 0.79020 0.28400
H 	H 	0.82820 0.49030 0.85070 0.27900
H 	H 	0.69060 0.42930 0.99730 0.27600
H 	H 	0.45250 0.58080 0.18780 0.29900
H 	H 	0.29670 0.61440 0.20980 0.31300
H 	H 	0.32820 0.50970 0.14930 0.31100
H 	H 	0.19060 0.57070 0.00270 0.28600
H 	H 	0.45250 0.18780 0.58080 0.29900
H 	H 	0.29670 0.20980 0.61440 0.31300
H 	H 	0.32820 0.14930 0.50970 0.31100
H 	H 	0.19060 0.00270 0.57070 0.28600
H 	H 	0.95250 0.81220 0.41920 0.26200
H 	H 	0.79670 0.79020 0.38560 0.28400
H 	H 	0.82820 0.85070 0.49030 0.27900
H 	H 	0.69060 0.99730 0.42930 0.27600
C 	C 	0.85500 0.36440 0.94040 0.19500
C 	C 	0.85840 0.42000 0.83920 -0.73900
C 	C 	0.35500 0.63560 0.05960 0.21500
C 	C 	0.35840 0.58000 0.16080 -0.79400
C 	C 	0.35500 0.05960 0.63560 0.21500
C 	C 	0.35840 0.16080 0.58000 -0.79400
C 	C 	0.85500 0.94040 0.36440 0.19500
C 	C 	0.85840 0.83920 0.42000 -0.73900
O 	O 	0.90970 0.53560 0.05740 -0.18500
O 	O 	0.81360 0.17790 0.84510 -0.14600
O 	O 	0.88560 0.17830 0.03190 -0.12100
O 	O 	0.11450 0.43580 0.98360 -0.16000
O 	O 	0.97210 0.36650 0.13510 -0.16700
O 	O 	0.05850 0.23310 0.89510 -0.10000
O 	O 	0.71150 0.36890 0.98310 -0.35500
O 	O 	0.40970 0.46440 0.94260 -0.17400
O 	O 	0.31360 0.82210 0.15490 -0.13600
O 	O 	0.38560 0.82170 0.96810 -0.12100
O 	O 	0.61450 0.56420 0.01640 -0.19600
O 	O 	0.47210 0.63350 0.86490 -0.15400
O 	O 	0.55850 0.76690 0.10490 -0.15200
O 	O 	0.21150 0.63110 0.01690 -0.34700
O 	O 	0.40970 0.94260 0.46440 -0.17400
O 	O 	0.31360 0.15490 0.82210 -0.13600
O 	O 	0.38560 0.96810 0.82170 -0.12100
O 	O 	0.61450 0.01640 0.56420 -0.19600
O 	O 	0.47210 0.86490 0.63350 -0.15400
O 	O 	0.55850 0.10490 0.76690 -0.15200
O 	O 	0.21150 0.01690 0.63110 -0.34700
O 	O 	0.90970 0.05740 0.53560 -0.18500
O 	O 	0.81360 0.84510 0.17790 -0.14600
O 	O 	0.88560 0.03190 0.17830 -0.12100
O 	O 	0.11450 0.98360 0.43580 -0.16000
O 	O 	0.97210 0.13510 0.36650 -0.16700
O 	O 	0.05850 0.89510 0.23310 -0.10000
O 	O 	0.71150 0.98310 0.36890 -0.35500
