data_crystal

_cell_length_a 8.43100
_cell_length_b 10.84100
_cell_length_c 11.11400
_cell_angle_alpha 64.43000
_cell_angle_beta  80.44000
_cell_angle_gamma 73.82000

_symmetry_space_group_name_	'P 1'
_symmetry_space_group_name_H-M	'P 1'

loop_
_symmetry_equiv_pos_as_xyz
  x,y,z

loop_
_atom_site_label
_atom_site_type_symbol
_atom_site_fract_x
_atom_site_fract_y
_atom_site_fract_z
_atom_site_charge
Sm	Sm	0.74862 0.00371 0.00223 1.84600
Sm	Sm	0.25138 0.99629 0.99777 1.84600
H 	H 	0.75080 0.95380 0.51880 0.15800
H 	H 	0.09760 0.60620 0.52030 0.15200
H 	H 	0.76270 0.56940 0.82410 0.17400
H 	H 	0.52750 0.76200 0.81580 0.17700
H 	H 	0.50890 0.90840 0.68800 0.19900
H 	H 	0.02290 0.96440 0.37560 0.14400
H 	H 	0.11890 0.82560 0.35200 0.11300
H 	H 	0.06720 0.37370 0.67500 0.18700
H 	H 	0.93050 0.35440 0.79540 0.16300
H 	H 	0.24920 0.04620 0.48120 0.15700
H 	H 	0.90240 0.39380 0.47970 0.15100
H 	H 	0.23730 0.43060 0.17590 0.17300
H 	H 	0.47250 0.23800 0.18420 0.17600
H 	H 	0.49110 0.09160 0.31200 0.19900
H 	H 	0.97710 0.03560 0.62440 0.14400
H 	H 	0.88110 0.17440 0.64800 0.11300
H 	H 	0.93280 0.62630 0.32500 0.18700
H 	H 	0.06950 0.64560 0.20460 0.16300
C 	C 	0.73100 0.76800 0.68280 0.38100
C 	C 	0.79700 0.85550 0.55910 -0.38600
C 	C 	0.93200 0.79100 0.49920 0.32200
C 	C 	0.00200 0.64700 0.56100 -0.41900
C 	C 	0.93400 0.56100 0.68060 0.40800
C 	C 	0.80500 0.62500 0.73900 -0.45000
C 	C 	0.58700 0.83500 0.75500 -0.57600
C 	C 	0.63600 0.89900 0.83370 0.54300
C 	C 	0.00900 0.87900 0.37000 -0.37900
C 	C 	0.88750 0.92300 0.25300 0.20900
C 	C 	0.01700 0.40600 0.74600 -0.59300
C 	C 	0.14900 0.36700 0.84100 0.55800
C 	C 	0.26900 0.23200 0.31720 0.38100
C 	C 	0.20300 0.14450 0.44090 -0.38600
C 	C 	0.06800 0.20900 0.50080 0.32200
C 	C 	0.99800 0.35300 0.43900 -0.41900
C 	C 	0.06600 0.43900 0.31940 0.40800
C 	C 	0.19500 0.37500 0.26100 -0.45000
C 	C 	0.41300 0.16500 0.24500 -0.57600
C 	C 	0.36400 0.10100 0.16630 0.54300
C 	C 	0.99100 0.12100 0.63000 -0.37900
C 	C 	0.11250 0.07700 0.74700 0.20900
C 	C 	0.98300 0.59400 0.25400 -0.59300
C 	C 	0.85100 0.63300 0.15900 0.55800
O 	O 	0.52830 0.93880 0.91400 -0.63500
O 	O 	0.78000 0.91310 0.82390 -0.48100
O 	O 	0.70730 0.99050 0.22770 -0.38200
O 	O 	0.00090 0.94880 0.13110 -0.53500
O 	O 	0.21500 0.23720 0.88850 -0.54400
O 	O 	0.18300 0.45800 0.86100 -0.35200
O 	O 	0.47170 0.06120 0.08600 -0.63500
O 	O 	0.22000 0.08690 0.17610 -0.48100
O 	O 	0.29270 0.00950 0.77230 -0.38200
O 	O 	0.99910 0.05120 0.86890 -0.53500
O 	O 	0.78500 0.76280 0.11150 -0.54400
O 	O 	0.81700 0.54200 0.13900 -0.35200
