data_crystal

_cell_length_a 9.61640
_cell_length_b 18.57420
_cell_length_c 18.08890
_cell_angle_alpha 90.00000
_cell_angle_beta  91.28000
_cell_angle_gamma 90.00000

_symmetry_space_group_name_	'P 1'
_symmetry_space_group_name_H-M	'P 1'

loop_
_symmetry_equiv_pos_as_xyz
  x,y,z

loop_
_atom_site_label
_atom_site_type_symbol
_atom_site_fract_x
_atom_site_fract_y
_atom_site_fract_z
_atom_site_charge
U 	U 	0.46957 0.19820 0.70820 0.00200
U 	U 	0.97216 0.26479 0.98971 0.00400
U 	U 	0.25264 0.46269 0.87480 0.01500
P 	P 	0.83580 0.15400 0.66400 0.35800
P 	P 	0.78140 0.16890 0.82910 0.35600
P 	P 	0.26780 0.26520 0.86800 0.34700
P 	P 	0.34320 0.33160 0.01270 0.35600
C 	C 	0.89370 0.19130 0.75300 0.18400
C 	C 	0.90300 0.27600 0.74710 -0.74100
H 	H 	0.96160 0.28880 0.70690 0.28400
H 	H 	0.94150 0.29510 0.79240 0.30100
H 	H 	0.81170 0.29550 0.73850 0.28800
C 	C 	0.39190 0.26320 0.94570 0.18600
C 	C 	0.39000 0.18580 0.98060 -0.72200
H 	H 	0.45460 0.18360 0.02160 0.28600
H 	H 	0.29790 0.17530 0.99740 0.27900
H 	H 	0.41530 0.15100 0.94400 0.27900
O 	O 	0.33340 0.21870 0.80930 -0.17500
O 	O 	0.43460 0.32140 0.08110 -0.14800
O 	O 	0.18880 0.31860 0.02770 -0.15700
O 	O 	0.13230 0.23250 0.89520 -0.16500
O 	O 	0.84420 0.20090 0.89880 -0.16100
O 	O 	0.24880 0.34290 0.84460 -0.16300
O 	O 	0.37140 0.40530 0.97690 -0.12600
O 	O 	0.83620 0.07350 0.66970 -0.14500
O 	O 	0.78500 0.08520 0.83330 -0.15200
O 	O 	0.52840 0.28200 0.92060 -0.35500
H 	H 	0.55100 0.25400 0.88780 0.27700
O 	O 	0.68900 0.18380 0.65220 -0.15400
O 	O 	0.63750 0.19910 0.80910 -0.19500
O 	O 	0.93480 0.18120 0.60640 -0.16300
O 	O 	0.03180 0.16450 0.76910 -0.34800
H 	H 	0.08600 0.18090 0.73910 0.26500
U 	U 	0.53043 0.69820 0.79180 0.00300
U 	U 	0.02784 0.76479 0.51029 0.00400
U 	U 	0.74736 0.96269 0.62520 0.01600
P 	P 	0.16420 0.65400 0.83600 0.35900
P 	P 	0.21860 0.66890 0.67090 0.35600
P 	P 	0.73220 0.76520 0.63200 0.34700
P 	P 	0.65680 0.83160 0.48730 0.35600
C 	C 	0.10630 0.69130 0.74700 0.18400
C 	C 	0.09700 0.77600 0.75290 -0.74100
H 	H 	0.03840 0.78880 0.79310 0.28400
H 	H 	0.05850 0.79510 0.70760 0.30100
H 	H 	0.18830 0.79550 0.76150 0.28700
C 	C 	0.60810 0.76320 0.55430 0.18700
C 	C 	0.61000 0.68580 0.51940 -0.72600
H 	H 	0.54540 0.68360 0.47840 0.28800
H 	H 	0.70210 0.67530 0.50260 0.28000
H 	H 	0.58470 0.65100 0.55600 0.28000
O 	O 	0.66660 0.71870 0.69070 -0.17500
O 	O 	0.56540 0.82140 0.41890 -0.14800
O 	O 	0.81120 0.81860 0.47230 -0.15600
O 	O 	0.86770 0.73250 0.60480 -0.16600
O 	O 	0.15580 0.70090 0.60120 -0.16100
O 	O 	0.75120 0.84290 0.65540 -0.16300
O 	O 	0.62860 0.90530 0.52310 -0.12600
O 	O 	0.16380 0.57350 0.83030 -0.14400
O 	O 	0.21500 0.58520 0.66670 -0.15200
O 	O 	0.47160 0.78200 0.57940 -0.35500
H 	H 	0.44900 0.75400 0.61220 0.27700
O 	O 	0.31100 0.68380 0.84780 -0.15400
O 	O 	0.36250 0.69910 0.69090 -0.19500
O 	O 	0.06520 0.68120 0.89360 -0.16300
O 	O 	0.96820 0.66450 0.73090 -0.34800
H 	H 	0.91400 0.68090 0.76090 0.26500
U 	U 	0.53043 0.80180 0.29180 0.00300
U 	U 	0.02784 0.73521 0.01029 0.00500
U 	U 	0.74736 0.53731 0.12520 0.01600
P 	P 	0.16420 0.84600 0.33600 0.35900
P 	P 	0.21860 0.83110 0.17090 0.35600
P 	P 	0.73220 0.73480 0.13200 0.34700
P 	P 	0.65680 0.66840 0.98730 0.35600
C 	C 	0.10630 0.80870 0.24700 0.18400
C 	C 	0.09700 0.72400 0.25290 -0.74100
H 	H 	0.03840 0.71120 0.29310 0.28400
H 	H 	0.05850 0.70490 0.20760 0.30100
H 	H 	0.18830 0.70450 0.26150 0.28800
C 	C 	0.60810 0.73680 0.05430 0.18600
C 	C 	0.61000 0.81420 0.01940 -0.72200
H 	H 	0.54540 0.81640 0.97840 0.28600
H 	H 	0.70210 0.82470 0.00260 0.27900
H 	H 	0.58470 0.84900 0.05600 0.27900
O 	O 	0.66660 0.78130 0.19070 -0.17500
O 	O 	0.56540 0.67860 0.91890 -0.14800
O 	O 	0.81120 0.68140 0.97230 -0.15700
O 	O 	0.86770 0.76750 0.10480 -0.16500
O 	O 	0.15580 0.79910 0.10120 -0.16100
O 	O 	0.75120 0.65710 0.15540 -0.16300
O 	O 	0.62860 0.59470 0.02310 -0.12600
O 	O 	0.16380 0.92650 0.33030 -0.14500
O 	O 	0.21500 0.91480 0.16670 -0.15200
O 	O 	0.47160 0.71800 0.07940 -0.35500
H 	H 	0.44900 0.74600 0.11220 0.27700
O 	O 	0.31100 0.81620 0.34780 -0.15400
O 	O 	0.36250 0.80090 0.19090 -0.19500
O 	O 	0.06520 0.81880 0.39360 -0.16300
O 	O 	0.96820 0.83550 0.23090 -0.34800
H 	H 	0.91400 0.81910 0.26090 0.26500
U 	U 	0.46957 0.30180 0.20820 0.00300
U 	U 	0.97216 0.23521 0.48971 0.00400
U 	U 	0.25264 0.03731 0.37480 0.01600
P 	P 	0.83580 0.34600 0.16400 0.35900
P 	P 	0.78140 0.33110 0.32910 0.35600
P 	P 	0.26780 0.23480 0.36800 0.34700
P 	P 	0.34320 0.16840 0.51270 0.35600
C 	C 	0.89370 0.30870 0.25300 0.18400
C 	C 	0.90300 0.22400 0.24710 -0.74100
H 	H 	0.96160 0.21120 0.20690 0.28400
H 	H 	0.94150 0.20490 0.29240 0.30100
H 	H 	0.81170 0.20450 0.23850 0.28700
C 	C 	0.39190 0.23680 0.44570 0.18700
C 	C 	0.39000 0.31420 0.48060 -0.72600
H 	H 	0.45460 0.31640 0.52160 0.28800
H 	H 	0.29790 0.32470 0.49740 0.28000
H 	H 	0.41530 0.34900 0.44400 0.28000
O 	O 	0.33340 0.28130 0.30930 -0.17500
O 	O 	0.43460 0.17860 0.58110 -0.14800
O 	O 	0.18880 0.18140 0.52770 -0.15600
O 	O 	0.13230 0.26750 0.39520 -0.16600
O 	O 	0.84420 0.29910 0.39880 -0.16100
O 	O 	0.24880 0.15710 0.34460 -0.16300
O 	O 	0.37140 0.09470 0.47690 -0.12600
O 	O 	0.83620 0.42650 0.16970 -0.14400
O 	O 	0.78500 0.41480 0.33330 -0.15200
O 	O 	0.52840 0.21800 0.42060 -0.35500
H 	H 	0.55100 0.24600 0.38780 0.27700
O 	O 	0.68900 0.31620 0.15220 -0.15400
O 	O 	0.63750 0.30090 0.30910 -0.19500
O 	O 	0.93480 0.31880 0.10640 -0.16300
O 	O 	0.03180 0.33550 0.26910 -0.34800
H 	H 	0.08600 0.31910 0.23910 0.26500
