data_crystal

_cell_length_a 9.96030
_cell_length_b 11.36120
_cell_length_c 14.80010
_cell_angle_alpha 91.52700
_cell_angle_beta  90.00000
_cell_angle_gamma 90.00000

_symmetry_space_group_name_	'P 1'
_symmetry_space_group_name_H-M	'P 1'

loop_
_symmetry_equiv_pos_as_xyz
  x,y,z

loop_
_atom_site_label
_atom_site_type_symbol
_atom_site_fract_x
_atom_site_fract_y
_atom_site_fract_z
_atom_site_charge
Co	Co	0.92715 0.74380 0.86634 1.24300
Co	Co	0.12129 0.75943 0.69485 1.18900
Co	Co	0.42715 0.75620 0.63366 1.19500
Co	Co	0.62129 0.74057 0.80515 1.20500
Co	Co	0.07285 0.25620 0.13366 1.13600
Co	Co	0.87871 0.24057 0.30515 1.21800
Co	Co	0.57285 0.24380 0.36634 1.19100
Co	Co	0.37871 0.25943 0.19485 1.20000
Co	Co	-0.00000 0.50000 -0.00000 1.11100
Co	Co	0.50000 0.00000 0.50000 1.18600
Co	Co	-0.00000 0.00000 -0.00000 1.08000
Co	Co	0.50000 0.50000 0.50000 1.21000
H 	H 	0.77240 0.64930 0.63130 -0.10300
H 	H 	0.20440 0.52300 0.77870 -0.12700
H 	H 	0.05630 0.02000 0.74330 -0.25000
H 	H 	0.62490 0.94260 0.94960 -0.05400
H 	H 	0.21110 0.99680 0.52560 -0.09400
H 	H 	0.15480 0.80270 0.07120 -0.06100
H 	H 	0.27240 0.85070 0.86870 -0.07700
H 	H 	0.70440 0.97700 0.72130 -0.12700
H 	H 	0.55630 0.48000 0.75670 -0.10400
H 	H 	0.12490 0.55740 0.55040 -0.13900
H 	H 	0.71110 0.50320 0.97440 -0.05500
H 	H 	0.65480 0.69730 0.42880 -0.09400
H 	H 	0.22760 0.35070 0.36870 -0.12700
H 	H 	0.79560 0.47700 0.22130 -0.12200
H 	H 	0.94370 0.98000 0.25670 0.03700
H 	H 	0.37510 0.05740 0.05040 -0.15200
H 	H 	0.78890 0.00320 0.47440 -0.10400
H 	H 	0.84520 0.19730 0.92880 -0.12500
H 	H 	0.72760 0.14930 0.13130 -0.14800
H 	H 	0.29560 0.02300 0.27870 -0.12900
H 	H 	0.44370 0.52000 0.24330 -0.12000
H 	H 	0.87510 0.44260 0.44960 -0.06900
H 	H 	0.28890 0.49680 0.02560 -0.14100
H 	H 	0.34520 0.30270 0.57120 -0.11600
C 	C 	0.84060 0.67680 0.66930 0.48700
C 	C 	0.14160 0.54970 0.82100 0.51200
C 	C 	0.02870 0.98070 0.79440 0.75800
C 	C 	0.71590 0.92520 0.94480 0.46800
C 	C 	0.22930 0.93410 0.56280 0.49600
C 	C 	0.10040 0.75800 0.03250 0.29500
C 	C 	0.34060 0.82320 0.83070 0.48700
C 	C 	0.64160 0.95030 0.67900 0.61900
C 	C 	0.52870 0.51930 0.70560 0.51400
C 	C 	0.21590 0.57480 0.55520 0.50600
C 	C 	0.72930 0.56590 0.93720 0.46600
C 	C 	0.60040 0.74200 0.46750 0.49000
C 	C 	0.15940 0.32320 0.33070 0.50400
C 	C 	0.85840 0.45030 0.17900 0.51200
C 	C 	0.97130 0.01930 0.20560 0.24900
C 	C 	0.28410 0.07480 0.05520 0.51300
C 	C 	0.77070 0.06590 0.43720 0.48700
C 	C 	0.89960 0.24200 0.96750 0.64900
C 	C 	0.65940 0.17680 0.16930 0.50200
C 	C 	0.35840 0.04970 0.32100 0.41200
C 	C 	0.47130 0.48070 0.29440 0.51800
C 	C 	0.78410 0.42520 0.44480 0.48800
C 	C 	0.27070 0.43410 0.06280 0.51200
C 	C 	0.39960 0.25800 0.53250 0.51100
O 	O 	0.81040 0.69460 0.75209 -0.53400
O 	O 	0.95190 0.69260 0.63430 -0.36400
O 	O 	0.08940 0.64930 0.80759 -0.58400
O 	O 	0.11810 0.48460 0.88420 -0.41500
O 	O 	0.01700 0.86970 0.78618 -0.65600
O 	O 	0.00760 0.04140 0.86250 -0.55200
O 	O 	0.74940 0.84460 0.88794 -0.51200
O 	O 	0.79360 0.98290 0.99450 -0.30500
O 	O 	0.13340 0.89310 0.60347 -0.44600
O 	O 	0.35150 0.89980 0.56593 -0.53900
O 	O 	0.02670 0.81450 0.97705 -0.44100
O 	O 	0.10570 0.65090 0.03900 -0.45000
O 	O 	0.31040 0.80540 0.74791 -0.54600
O 	O 	0.45190 0.80740 0.86570 -0.40200
O 	O 	0.58940 0.85070 0.69241 -0.57700
O 	O 	0.61810 0.01540 0.61580 -0.50000
O 	O 	0.51700 0.63030 0.71382 -0.56000
O 	O 	0.50760 0.45860 0.63750 -0.43500
O 	O 	0.24940 0.65540 0.61206 -0.56700
O 	O 	0.29360 0.51710 0.50550 -0.44400
O 	O 	0.63340 0.60690 0.89653 -0.40400
O 	O 	0.85150 0.60020 0.93407 -0.47100
O 	O 	0.52670 0.68550 0.52295 -0.54500
O 	O 	0.60570 0.84910 0.46100 -0.41100
O 	O 	0.18960 0.30540 0.24791 -0.58800
O 	O 	0.04810 0.30740 0.36570 -0.51300
O 	O 	0.91060 0.35070 0.19241 -0.52600
O 	O 	0.88190 0.51540 0.11580 -0.42000
O 	O 	0.98300 0.13030 0.21382 -0.45300
O 	O 	0.99240 0.95860 0.13750 -0.26600
O 	O 	0.25060 0.15540 0.11206 -0.59000
O 	O 	0.20640 0.01710 0.00550 -0.53000
O 	O 	0.86660 0.10690 0.39653 -0.42100
O 	O 	0.64850 0.10020 0.43407 -0.55900
O 	O 	0.97330 0.18550 0.02295 -0.58600
O 	O 	0.89430 0.34910 0.96100 -0.39400
O 	O 	0.68960 0.19460 0.25209 -0.57100
O 	O 	0.54810 0.19260 0.13430 -0.46700
O 	O 	0.41060 0.14930 0.30759 -0.54600
O 	O 	0.38190 0.98460 0.38420 -0.36800
O 	O 	0.48300 0.36970 0.28618 -0.56800
O 	O 	0.49240 0.54140 0.36250 -0.44200
O 	O 	0.75060 0.34460 0.38794 -0.53900
O 	O 	0.70640 0.48290 0.49450 -0.41900
O 	O 	0.36660 0.39310 0.10347 -0.46200
O 	O 	0.14850 0.39980 0.06593 -0.61300
O 	O 	0.47330 0.31450 0.47705 -0.55300
O 	O 	0.39430 0.15090 0.53900 -0.46400
