data_crystal

_cell_length_a 9.82600
_cell_length_b 11.25500
_cell_length_c 14.54700
_cell_angle_alpha 91.34600
_cell_angle_beta  90.00000
_cell_angle_gamma 90.00000

_symmetry_space_group_name_	'P 1'
_symmetry_space_group_name_H-M	'P 1'

loop_
_symmetry_equiv_pos_as_xyz
  x,y,z

loop_
_atom_site_label
_atom_site_type_symbol
_atom_site_fract_x
_atom_site_fract_y
_atom_site_fract_z
_atom_site_charge
Co	Co	0.91962 0.75599 0.13269 1.23200
Co	Co	0.10881 0.74023 0.31063 1.18700
Co	Co	0.41962 0.74401 0.36731 1.19500
Co	Co	0.60881 0.75977 0.18937 1.20500
Co	Co	0.08038 0.24401 0.86731 1.15400
Co	Co	0.89119 0.25977 0.68937 1.22000
Co	Co	0.58038 0.25599 0.63269 1.18900
Co	Co	0.39119 0.24023 0.81063 1.20200
Co	Co	-0.00000 0.50000 -0.00000 1.12400
Co	Co	0.50000 0.00000 0.50000 1.18000
Co	Co	-0.00000 0.00000 -0.00000 1.09500
Co	Co	0.50000 0.50000 0.50000 1.21200
H 	H 	0.75670 0.85990 0.36580 -0.09500
H 	H 	0.18840 0.98170 0.23130 -0.16600
H 	H 	0.20230 0.50920 0.48830 -0.11700
H 	H 	0.61840 0.56160 0.03750 -0.07000
H 	H 	0.17250 0.69730 0.93820 -0.13400
H 	H 	0.97310 0.52550 0.73500 -0.12700
H 	H 	0.25670 0.64010 0.13420 -0.13000
H 	H 	0.68840 0.51830 0.26870 -0.11900
H 	H 	0.70230 0.99080 0.01170 -0.09700
H 	H 	0.11840 0.93840 0.46250 -0.11100
H 	H 	0.67250 0.80270 0.56180 -0.08400
H 	H 	0.47310 0.97450 0.76500 0.04800
H 	H 	0.24330 0.14010 0.63420 -0.14000
H 	H 	0.81160 0.01830 0.76870 -0.08400
H 	H 	0.79770 0.49080 0.51170 -0.07800
H 	H 	0.38160 0.43840 0.96250 -0.13200
H 	H 	0.82750 0.30270 0.06180 -0.06800
H 	H 	0.02690 0.47450 0.26500 -0.08300
H 	H 	0.74330 0.35990 0.86580 -0.10300
H 	H 	0.31160 0.48170 0.73130 -0.13400
H 	H 	0.29770 0.00920 0.98830 -0.08900
H 	H 	0.88160 0.06160 0.53750 -0.09100
H 	H 	0.32750 0.19730 0.43820 -0.12900
H 	H 	0.52690 0.02550 0.23500 -0.25800
C 	C 	0.82710 0.83100 0.32890 0.49400
C 	C 	0.12990 0.95400 0.18530 0.66300
C 	C 	0.21970 0.57010 0.44780 0.49600
C 	C 	0.71050 0.57720 0.04620 0.31600
C 	C 	0.11070 0.74180 0.97300 0.67000
C 	C 	0.99150 0.48420 0.78820 0.65300
C 	C 	0.32710 0.66900 0.17110 0.50600
C 	C 	0.62990 0.54600 0.31470 0.52000
C 	C 	0.71970 0.92990 0.05220 0.47400
C 	C 	0.21050 0.92280 0.45380 0.49400
C 	C 	0.61070 0.75820 0.52700 0.49600
C 	C 	0.49150 0.01580 0.71180 0.20700
C 	C 	0.17290 0.16900 0.67110 0.51400
C 	C 	0.87010 0.04600 0.81470 0.37600
C 	C 	0.78030 0.42990 0.55220 0.47400
C 	C 	0.28950 0.42280 0.95380 0.67100
C 	C 	0.88930 0.25820 0.02700 0.32500
C 	C 	0.00850 0.51580 0.21180 0.33400
C 	C 	0.67290 0.33100 0.82890 0.50000
C 	C 	0.37010 0.45400 0.68530 0.52600
C 	C 	0.28030 0.07010 0.94780 0.48400
C 	C 	0.78950 0.07720 0.54620 0.49700
C 	C 	0.38930 0.24180 0.47300 0.51900
C 	C 	0.50850 0.98420 0.28820 0.78400
O 	O 	0.79910 0.81090 0.24510 -0.53600
O 	O 	0.93850 0.81630 0.36700 -0.36800
O 	O 	0.08270 0.85030 0.19498 -0.63400
O 	O 	0.10760 0.02190 0.12280 -0.59100
O 	O 	0.12040 0.61160 0.40750 -0.46600
O 	O 	0.34420 0.60230 0.43965 -0.55900
O 	O 	0.74170 0.65310 0.10862 -0.50200
O 	O 	0.79160 0.52190 0.99570 -0.26100
O 	O 	0.02980 0.68480 0.02415 -0.69900
O 	O 	0.11460 0.85070 0.96550 -0.43100
O 	O 	0.99740 0.37150 0.78104 -0.54800
O 	O 	0.00810 0.54360 0.86000 -0.51500
O 	O 	0.29910 0.68910 0.25490 -0.56400
O 	O 	0.43850 0.68370 0.13300 -0.45400
O 	O 	0.58270 0.64970 0.30502 -0.56000
O 	O 	0.60760 0.47810 0.37720 -0.44000
O 	O 	0.62040 0.88840 0.09250 -0.42900
O 	O 	0.84420 0.89770 0.06035 -0.51600
O 	O 	0.24170 0.84690 0.39138 -0.55400
O 	O 	0.29160 0.97810 0.50430 -0.39600
O 	O 	0.52980 0.81520 0.47585 -0.54000
O 	O 	0.61460 0.64930 0.53450 -0.43000
O 	O 	0.49740 0.12850 0.71896 -0.49100
O 	O 	0.50810 0.95640 0.64000 -0.28700
O 	O 	0.20090 0.18910 0.75490 -0.59100
O 	O 	0.06150 0.18370 0.63300 -0.51100
O 	O 	0.91730 0.14970 0.80502 -0.48700
O 	O 	0.89240 0.97810 0.87720 -0.26200
O 	O 	0.87960 0.38840 0.59250 -0.40200
O 	O 	0.65580 0.39770 0.56035 -0.54600
O 	O 	0.25830 0.34690 0.89138 -0.59900
O 	O 	0.20840 0.47810 0.00430 -0.57300
O 	O 	0.97020 0.31520 0.97585 -0.38500
O 	O 	0.88540 0.14930 0.03450 -0.40800
O 	O 	0.00260 0.62850 0.21896 -0.56000
O 	O 	0.99190 0.45640 0.14000 -0.30900
O 	O 	0.70090 0.31090 0.74510 -0.56100
O 	O 	0.56150 0.31630 0.86700 -0.42200
O 	O 	0.41730 0.35030 0.69498 -0.56900
O 	O 	0.39240 0.52190 0.62280 -0.44700
O 	O 	0.37960 0.11160 0.90750 -0.43600
O 	O 	0.15580 0.10230 0.93965 -0.55400
O 	O 	0.75830 0.15310 0.60862 -0.55000
O 	O 	0.70840 0.02190 0.49570 -0.45500
O 	O 	0.47020 0.18480 0.52415 -0.56800
O 	O 	0.38540 0.35070 0.46550 -0.45400
O 	O 	0.50260 0.87150 0.28104 -0.62100
O 	O 	0.49190 0.04360 0.36000 -0.55600
