data_crystal

_cell_length_a 9.93500
_cell_length_b 11.32300
_cell_length_c 14.70800
_cell_angle_alpha 91.17100
_cell_angle_beta  90.00000
_cell_angle_gamma 90.00000

_symmetry_space_group_name_	'P 1'
_symmetry_space_group_name_H-M	'P 1'

loop_
_symmetry_equiv_pos_as_xyz
  x,y,z

loop_
_atom_site_label
_atom_site_type_symbol
_atom_site_fract_x
_atom_site_fract_y
_atom_site_fract_z
_atom_site_charge
Co	Co	0.92604 0.25565 0.63363 1.25000
Co	Co	0.12025 0.24017 0.80586 1.18200
Co	Co	0.42604 0.24435 0.86637 1.19500
Co	Co	0.62025 0.25983 0.69414 1.20500
Co	Co	0.07396 0.74435 0.36637 1.14300
Co	Co	0.87975 0.75983 0.19414 1.23100
Co	Co	0.57396 0.75565 0.13363 1.19700
Co	Co	0.37975 0.74017 0.30586 1.20900
Co	Co	0.00000 0.00000 0.50000 1.12500
Co	Co	0.50000 0.50000 -0.00000 1.16000
Co	Co	0.00000 0.50000 0.50000 1.15900
Co	Co	0.50000 0.00000 -0.00000 1.12800
H 	H 	0.77230 0.35130 0.86930 -0.07600
H 	H 	0.62640 0.05580 0.55260 -0.13200
H 	H 	0.05700 0.97820 0.75720 0.02800
H 	H 	0.20460 0.47520 0.72120 -0.14100
H 	H 	0.21230 0.00420 0.97730 -0.11100
H 	H 	0.15050 0.19770 0.42690 -0.15000
H 	H 	0.27230 0.14870 0.63070 -0.13300
H 	H 	0.12640 0.44420 0.94740 -0.11500
H 	H 	0.55700 0.52180 0.74280 -0.09900
H 	H 	0.70460 0.02480 0.77880 -0.07600
H 	H 	0.71230 0.49580 0.52270 -0.09600
H 	H 	0.65050 0.30230 0.07310 -0.05100
H 	H 	0.22770 0.64870 0.13070 -0.16200
H 	H 	0.37360 0.94420 0.44740 -0.08900
H 	H 	0.94300 0.02180 0.24280 -0.23400
H 	H 	0.79540 0.52480 0.27880 -0.12300
H 	H 	0.78770 0.99580 0.02270 -0.09900
H 	H 	0.84950 0.80230 0.57310 -0.06300
H 	H 	0.72770 0.85130 0.36930 -0.10500
H 	H 	0.87360 0.55580 0.05260 -0.10800
H 	H 	0.44300 0.47820 0.25720 -0.12900
H 	H 	0.29540 0.97520 0.22120 -0.18600
H 	H 	0.28770 0.50420 0.47730 -0.11400
H 	H 	0.34950 0.69770 0.92690 -0.16100
C 	C 	0.84040 0.32380 0.83100 0.48700
C 	C 	0.71760 0.07350 0.55700 0.53200
C 	C 	0.02970 0.01870 0.70600 0.22100
C 	C 	0.14050 0.44940 0.67920 0.55000
C 	C 	0.23020 0.06680 0.93910 0.51500
C 	C 	0.09760 0.24230 0.46700 0.54000
C 	C 	0.34040 0.17620 0.66900 0.51200
C 	C 	0.21760 0.42650 0.94300 0.50900
C 	C 	0.52970 0.48130 0.79400 0.51200
C 	C 	0.64050 0.05060 0.82080 0.38400
C 	C 	0.73020 0.43320 0.56090 0.49600
C 	C 	0.59760 0.25770 0.03300 0.29600
C 	C 	0.15960 0.67620 0.16900 0.53400
C 	C 	0.28240 0.92650 0.44300 0.50500
C 	C 	0.97030 0.98130 0.29400 0.78100
C 	C 	0.85950 0.55060 0.32080 0.52200
C 	C 	0.76980 0.93320 0.06090 0.50200
C 	C 	0.90240 0.75770 0.53300 0.49200
C 	C 	0.65960 0.82380 0.33100 0.50900
C 	C 	0.78240 0.57350 0.05700 0.53200
C 	C 	0.47030 0.51870 0.20600 0.53600
C 	C 	0.35950 0.94940 0.17920 0.68600
C 	C 	0.26980 0.56680 0.43910 0.52300
C 	C 	0.40240 0.74230 0.96700 0.73400
O 	O 	0.95150 0.30860 0.86560 -0.33300
O 	O 	0.80940 0.30570 0.74810 -0.52600
O 	O 	0.74980 0.15430 0.61230 -0.55100
O 	O 	0.79460 0.01480 0.50760 -0.43800
O 	O 	0.01620 0.12940 0.71510 -0.55100
O 	O 	0.01060 0.95960 0.63670 -0.34600
O 	O 	0.08840 0.35000 0.69310 -0.62200
O 	O 	0.11610 0.51570 0.61680 -0.48200
O 	O 	0.13330 0.10820 0.89770 -0.47700
O 	O 	0.35060 0.10080 0.93470 -0.53900
O 	O 	0.10450 0.34950 0.46050 -0.49400
O 	O 	0.02620 0.18500 0.52230 -0.63200
O 	O 	0.45150 0.19140 0.63440 -0.45400
O 	O 	0.30940 0.19430 0.75190 -0.57000
O 	O 	0.24980 0.34570 0.88770 -0.56400
O 	O 	0.29460 0.48520 0.99240 -0.37400
O 	O 	0.51620 0.37060 0.78490 -0.55900
O 	O 	0.51060 0.54040 0.86330 -0.39400
O 	O 	0.58840 0.15000 0.80690 -0.52300
O 	O 	0.61610 0.98430 0.88320 -0.27800
O 	O 	0.63330 0.39180 0.60230 -0.43400
O 	O 	0.85060 0.39920 0.56530 -0.51000
O 	O 	0.60450 0.15050 0.03950 -0.44400
O 	O 	0.52620 0.31500 0.97770 -0.40100
O 	O 	0.04850 0.69140 0.13440 -0.55000
O 	O 	0.19060 0.69430 0.25190 -0.59700
O 	O 	0.25020 0.84570 0.38770 -0.57200
O 	O 	0.20540 0.98520 0.49240 -0.40800
O 	O 	0.98380 0.87060 0.28490 -0.56800
O 	O 	0.98940 0.04040 0.36330 -0.49400
O 	O 	0.91160 0.65000 0.30690 -0.51800
O 	O 	0.88390 0.48430 0.38320 -0.39600
O 	O 	0.86670 0.89180 0.10230 -0.40600
O 	O 	0.64940 0.89920 0.06530 -0.56400
O 	O 	0.89550 0.65050 0.53950 -0.38500
O 	O 	0.97380 0.81500 0.47770 -0.46100
O 	O 	0.54850 0.80860 0.36560 -0.43200
O 	O 	0.69060 0.80570 0.24810 -0.55400
O 	O 	0.75020 0.65430 0.11230 -0.56300
O 	O 	0.70540 0.51480 0.00760 -0.48600
O 	O 	0.48380 0.62940 0.21510 -0.57000
O 	O 	0.48940 0.45960 0.13670 -0.47700
O 	O 	0.41160 0.85000 0.19310 -0.61300
O 	O 	0.38390 0.01570 0.11680 -0.59200
O 	O 	0.36670 0.60820 0.39770 -0.44700
O 	O 	0.14940 0.60080 0.43470 -0.60200
O 	O 	0.39550 0.84950 0.96050 -0.42300
O 	O 	0.47380 0.68500 0.02230 -0.69500
