data_crystal

_cell_length_a 21.01000
_cell_length_b 15.98800
_cell_length_c 21.96300
_cell_angle_alpha 90.00000
_cell_angle_beta  90.33900
_cell_angle_gamma 90.00000

_symmetry_space_group_name_	'P 1'
_symmetry_space_group_name_H-M	'P 1'

loop_
_symmetry_equiv_pos_as_xyz
  x,y,z

loop_
_atom_site_label
_atom_site_type_symbol
_atom_site_fract_x
_atom_site_fract_y
_atom_site_fract_z
_atom_site_charge
Cr	Cr	0.12666 0.50670 0.24789 1.57800
Cr	Cr	0.75273 0.76192 0.37722 1.57400
Mn	Mn	0.86883 0.51540 0.24468 1.30500
Mn	Mn	0.25869 0.75120 0.12613 1.31000
O 	O 	0.19320 0.51810 0.18760 -0.38900
O 	O 	0.13510 0.63230 0.24620 -0.39700
O 	O 	0.18550 0.72830 0.19210 -0.34700
O 	O 	0.25490 0.61410 0.14210 -0.32500
O 	O 	0.13020 0.38430 0.24920 -0.43300
O 	O 	0.19130 0.48300 0.31560 -0.39700
O 	O 	0.16780 0.27550 0.30340 -0.34100
O 	O 	0.23800 0.38740 0.36640 -0.33200
O 	O 	0.05580 0.51530 0.30490 -0.37000
O 	O 	0.05820 0.51410 0.19370 -0.39700
O 	O 	0.94740 0.51330 0.30810 -0.32000
O 	O 	0.94910 0.52700 0.18160 -0.32500
O 	O 	0.75180 0.63650 0.37090 -0.40900
O 	O 	0.81610 0.75210 0.31080 -0.38900
O 	O 	0.79910 0.53450 0.31730 -0.39200
O 	O 	0.85740 0.65550 0.24720 -0.32500
O 	O 	0.74640 0.38260 0.12690 -0.36800
O 	O 	0.81630 0.27940 0.18380 -0.37500
O 	O 	0.79740 0.49640 0.16950 -0.29500
O 	O 	0.86170 0.37640 0.23930 -0.32900
O 	O 	0.31430 0.74470 0.94390 -0.37500
O 	O 	0.32090 0.74080 0.04560 -0.30400
O 	O 	0.19510 0.74050 0.94420 -0.38800
O 	O 	0.19190 0.74640 0.05000 -0.31300
C 	C 	0.17350 0.65490 0.21160 0.27800
C 	C 	0.21260 0.59270 0.17590 0.23100
C 	C 	0.16020 0.35200 0.28600 0.28900
C 	C 	0.19840 0.41380 0.32660 0.26200
C 	C 	0.00100 0.51400 0.27910 0.19900
C 	C 	0.99720 0.52030 0.21250 0.22000
C 	C 	0.78640 0.60110 0.33200 0.33100
C 	C 	0.82650 0.68000 0.29150 0.24100
C 	C 	0.79030 0.41730 0.16230 0.17200
C 	C 	0.82500 0.35580 0.19900 0.24100
C 	C 	0.28770 0.74210 0.99510 0.19700
C 	C 	0.22010 0.74130 0.99790 0.20900
Cr	Cr	0.37334 0.00670 0.25211 1.57600
Cr	Cr	0.74727 0.26192 0.12278 1.57300
Mn	Mn	0.63117 0.01540 0.25532 1.30300
Mn	Mn	0.24131 0.25120 0.37387 1.30900
O 	O 	0.30680 0.01810 0.31240 -0.39000
O 	O 	0.36490 0.13230 0.25380 -0.39800
O 	O 	0.31450 0.22830 0.30790 -0.34700
O 	O 	0.24510 0.11410 0.35790 -0.32500
O 	O 	0.36980 0.88430 0.25080 -0.43200
O 	O 	0.30870 0.98300 0.18440 -0.39600
O 	O 	0.33220 0.77550 0.19660 -0.34100
O 	O 	0.26200 0.88740 0.13360 -0.33200
O 	O 	0.44420 0.01530 0.19510 -0.37000
O 	O 	0.44180 0.01410 0.30630 -0.39700
O 	O 	0.55260 0.01330 0.19190 -0.32000
O 	O 	0.55090 0.02700 0.31840 -0.32500
O 	O 	0.74820 0.13650 0.12910 -0.40900
O 	O 	0.68390 0.25210 0.18920 -0.38900
O 	O 	0.70090 0.03450 0.18270 -0.39200
O 	O 	0.64260 0.15550 0.25280 -0.32500
O 	O 	0.75360 0.88260 0.37310 -0.36800
O 	O 	0.68370 0.77940 0.31620 -0.37400
O 	O 	0.70260 0.99640 0.33050 -0.29400
O 	O 	0.63830 0.87640 0.26070 -0.32800
O 	O 	0.18570 0.24470 0.55610 -0.37500
O 	O 	0.17910 0.24080 0.45440 -0.30500
O 	O 	0.30490 0.24050 0.55580 -0.38800
O 	O 	0.30810 0.24640 0.45000 -0.31500
C 	C 	0.32650 0.15490 0.28840 0.27800
C 	C 	0.28740 0.09270 0.32410 0.23100
C 	C 	0.33980 0.85200 0.21400 0.29000
C 	C 	0.30160 0.91380 0.17340 0.26200
C 	C 	0.49900 0.01400 0.22090 0.19900
C 	C 	0.50280 0.02030 0.28750 0.22000
C 	C 	0.71360 0.10110 0.16800 0.33100
C 	C 	0.67350 0.18000 0.20850 0.24100
C 	C 	0.70970 0.91730 0.33770 0.17300
C 	C 	0.67500 0.85580 0.30100 0.24100
C 	C 	0.21230 0.24210 0.50490 0.19800
C 	C 	0.27990 0.24130 0.50210 0.21100
Cr	Cr	0.87334 0.49330 0.75211 1.57700
Cr	Cr	0.24727 0.23808 0.62278 1.57300
Mn	Mn	0.13117 0.48460 0.75532 1.30400
Mn	Mn	0.74131 0.24880 0.87387 1.30900
O 	O 	0.80680 0.48190 0.81240 -0.39000
O 	O 	0.86490 0.36770 0.75380 -0.39800
O 	O 	0.81450 0.27170 0.80790 -0.34700
O 	O 	0.74510 0.38590 0.85790 -0.32500
O 	O 	0.86980 0.61570 0.75080 -0.43300
O 	O 	0.80870 0.51700 0.68440 -0.39700
O 	O 	0.83220 0.72450 0.69660 -0.34100
O 	O 	0.76200 0.61260 0.63360 -0.33200
O 	O 	0.94420 0.48470 0.69510 -0.37000
O 	O 	0.94180 0.48590 0.80630 -0.39700
O 	O 	0.05260 0.48670 0.69190 -0.32000
O 	O 	0.05090 0.47300 0.81840 -0.32500
O 	O 	0.24820 0.36350 0.62910 -0.40900
O 	O 	0.18390 0.24790 0.68920 -0.38900
O 	O 	0.20090 0.46550 0.68270 -0.39200
O 	O 	0.14260 0.34450 0.75280 -0.32500
O 	O 	0.25360 0.61740 0.87310 -0.36800
O 	O 	0.18370 0.72060 0.81620 -0.37500
O 	O 	0.20260 0.50360 0.83050 -0.29500
O 	O 	0.13830 0.62360 0.76070 -0.32900
O 	O 	0.68570 0.25530 0.05610 -0.37500
O 	O 	0.67910 0.25920 0.95440 -0.30400
O 	O 	0.80490 0.25950 0.05580 -0.38800
O 	O 	0.80810 0.25360 0.95000 -0.31300
C 	C 	0.82650 0.34510 0.78840 0.27800
C 	C 	0.78740 0.40730 0.82410 0.23100
C 	C 	0.83980 0.64800 0.71400 0.28900
C 	C 	0.80160 0.58620 0.67340 0.26200
C 	C 	0.99900 0.48600 0.72090 0.19900
C 	C 	0.00280 0.47970 0.78750 0.22000
C 	C 	0.21360 0.39890 0.66800 0.33100
C 	C 	0.17350 0.32000 0.70850 0.24100
C 	C 	0.20970 0.58270 0.83770 0.17200
C 	C 	0.17500 0.64420 0.80100 0.24100
C 	C 	0.71230 0.25790 0.00490 0.19700
C 	C 	0.77990 0.25870 0.00210 0.20900
Cr	Cr	0.62666 0.99330 0.74789 1.57600
Cr	Cr	0.25273 0.73808 0.87722 1.57300
Mn	Mn	0.36883 0.98460 0.74468 1.30300
Mn	Mn	0.75869 0.74880 0.62613 1.30900
O 	O 	0.69320 0.98190 0.68760 -0.39000
O 	O 	0.63510 0.86770 0.74620 -0.39800
O 	O 	0.68550 0.77170 0.69210 -0.34700
O 	O 	0.75490 0.88590 0.64210 -0.32500
O 	O 	0.63020 0.11570 0.74920 -0.43200
O 	O 	0.69130 0.01700 0.81560 -0.39600
O 	O 	0.66780 0.22450 0.80340 -0.34100
O 	O 	0.73800 0.11260 0.86640 -0.33200
O 	O 	0.55580 0.98470 0.80490 -0.37000
O 	O 	0.55820 0.98590 0.69370 -0.39700
O 	O 	0.44740 0.98670 0.80810 -0.32000
O 	O 	0.44910 0.97300 0.68160 -0.32500
O 	O 	0.25180 0.86350 0.87090 -0.40900
O 	O 	0.31610 0.74790 0.81080 -0.38900
O 	O 	0.29910 0.96550 0.81730 -0.39200
O 	O 	0.35740 0.84450 0.74720 -0.32500
O 	O 	0.24640 0.11740 0.62690 -0.36800
O 	O 	0.31630 0.22060 0.68380 -0.37400
O 	O 	0.29740 0.00360 0.66950 -0.29400
O 	O 	0.36170 0.12360 0.73930 -0.32800
O 	O 	0.81430 0.75530 0.44390 -0.37500
O 	O 	0.82090 0.75920 0.54560 -0.30500
O 	O 	0.69510 0.75950 0.44420 -0.38800
O 	O 	0.69190 0.75360 0.55000 -0.31500
C 	C 	0.67350 0.84510 0.71160 0.27800
C 	C 	0.71260 0.90730 0.67590 0.23100
C 	C 	0.66020 0.14800 0.78600 0.29000
C 	C 	0.69840 0.08620 0.82660 0.26200
C 	C 	0.50100 0.98600 0.77910 0.19900
C 	C 	0.49720 0.97970 0.71250 0.22000
C 	C 	0.28640 0.89890 0.83200 0.33100
C 	C 	0.32650 0.82000 0.79150 0.24100
C 	C 	0.29030 0.08270 0.66230 0.17300
C 	C 	0.32500 0.14420 0.69900 0.24100
C 	C 	0.78770 0.75790 0.49510 0.19800
C 	C 	0.72010 0.75870 0.49790 0.21100
