data_crystal

_cell_length_a 6.98750
_cell_length_b 15.75630
_cell_length_c 15.75630
_cell_angle_alpha 62.14590
_cell_angle_beta  81.49910
_cell_angle_gamma 98.50090

_symmetry_space_group_name_	'P 1'
_symmetry_space_group_name_H-M	'P 1'

loop_
_symmetry_equiv_pos_as_xyz
  x,y,z

loop_
_atom_site_label
_atom_site_type_symbol
_atom_site_fract_x
_atom_site_fract_y
_atom_site_fract_z
_atom_site_charge
Cu	Cu	0.53900 0.43220 0.09829 0.92700
Cu	Cu	0.63729 0.09829 0.46951 0.92700
Cu	Cu	0.10680 0.46951 0.43220 0.92700
Cu	Cu	0.46100 0.56780 0.90171 0.92700
Cu	Cu	0.36271 0.90171 0.53049 0.92600
Cu	Cu	0.89320 0.53049 0.56780 0.92600
H 	H 	0.79760 0.34110 0.28430 0.13700
H 	H 	0.87890 0.30760 0.20940 0.14200
H 	H 	0.04090 0.48860 0.13900 0.03700
H 	H 	0.22540 0.65010 0.04670 0.00800
H 	H 	0.27850 0.81370 0.92920 0.09300
H 	H 	0.03790 0.86480 0.84320 -0.01600
H 	H 	0.75330 0.75400 0.87010 0.14500
H 	H 	0.08190 0.28430 0.37460 0.13700
H 	H 	0.08830 0.20940 0.48300 0.14200
H 	H 	0.17990 0.13900 0.37240 0.03800
H 	H 	0.27210 0.04670 0.30320 0.00800
H 	H 	0.20770 0.92920 0.25710 0.09200
H 	H 	0.88110 0.84320 0.29200 -0.01600
H 	H 	0.62340 0.87010 0.37590 0.14400
H 	H 	0.45650 0.37460 0.34110 0.13700
H 	H 	0.57130 0.48300 0.30760 0.14100
H 	H 	0.55230 0.37240 0.48860 0.03700
H 	H 	0.57530 0.30320 0.65010 0.00700
H 	H 	0.46480 0.25710 0.81370 0.09300
H 	H 	0.17310 0.29200 0.86480 -0.01600
H 	H 	0.99930 0.37590 0.75400 0.14400
H 	H 	0.20240 0.65890 0.71570 0.13700
H 	H 	0.12110 0.69240 0.79060 0.14200
H 	H 	0.95910 0.51140 0.86100 0.03700
H 	H 	0.77460 0.34990 0.95330 0.00800
H 	H 	0.72150 0.18630 0.07080 0.09300
H 	H 	0.96210 0.13520 0.15680 -0.01600
H 	H 	0.24670 0.24600 0.12990 0.14500
H 	H 	0.91810 0.71570 0.62540 0.13700
H 	H 	0.91170 0.79060 0.51700 0.14200
H 	H 	0.82010 0.86100 0.62760 0.03800
H 	H 	0.72790 0.95330 0.69680 0.00800
H 	H 	0.79230 0.07080 0.74290 0.09200
H 	H 	0.11890 0.15680 0.70800 -0.01600
H 	H 	0.37660 0.12990 0.62410 0.14400
H 	H 	0.54350 0.62540 0.65890 0.13700
H 	H 	0.42870 0.51700 0.69240 0.14100
H 	H 	0.44770 0.62760 0.51140 0.03700
H 	H 	0.42470 0.69680 0.34990 0.00700
H 	H 	0.53520 0.74290 0.18630 0.09300
H 	H 	0.82690 0.70800 0.13520 -0.01600
H 	H 	0.00070 0.62410 0.24600 0.14400
C 	C 	0.57242 0.26363 0.25807 0.40800
C 	C 	0.77428 0.33393 0.22859 -0.34300
C 	C 	0.93324 0.50158 0.11076 0.05300
C 	C 	0.95477 0.60067 0.03096 -0.15100
C 	C 	0.12986 0.67057 0.01149 0.06600
C 	C 	0.16202 0.76825 0.94159 -0.18600
C 	C 	0.01819 0.79820 0.88973 0.14100
C 	C 	0.84748 0.73161 0.90567 -0.28600
C 	C 	0.81214 0.63021 0.97479 0.27300
C 	C 	0.83049 0.25807 0.47830 0.40900
C 	C 	0.00287 0.22859 0.43748 -0.34400
C 	C 	0.04400 0.11076 0.38766 0.05100
C 	C 	0.98573 0.03096 0.36837 -0.15100
C 	C 	0.14135 0.01149 0.31794 0.06600
C 	C 	0.10361 0.94159 0.29016 -0.18500
C 	C 	0.90792 0.88973 0.31207 0.14000
C 	C 	0.75315 0.90567 0.36272 -0.28400
C 	C 	0.78693 0.97479 0.39500 0.27200
C 	C 	0.30879 0.47830 0.26363 0.40800
C 	C 	0.44035 0.43748 0.33393 -0.34300
C 	C 	0.43166 0.38766 0.50158 0.05200
C 	C 	0.35410 0.36837 0.60067 -0.15300
C 	C 	0.45929 0.31794 0.67057 0.06800
C 	C 	0.39377 0.29016 0.76825 -0.18700
C 	C 	0.21999 0.31207 0.79820 0.14100
C 	C 	0.11587 0.36272 0.73161 -0.28500
C 	C 	0.18193 0.39500 0.63021 0.27300
C 	C 	0.42758 0.73637 0.74193 0.40800
C 	C 	0.22572 0.66607 0.77141 -0.34300
C 	C 	0.06676 0.49842 0.88924 0.05300
C 	C 	0.04523 0.39933 0.96904 -0.15100
C 	C 	0.87014 0.32943 0.98851 0.06600
C 	C 	0.83798 0.23175 0.05841 -0.18600
C 	C 	0.98181 0.20180 0.11027 0.14100
C 	C 	0.15252 0.26839 0.09433 -0.28600
C 	C 	0.18786 0.36979 0.02521 0.27300
C 	C 	0.16951 0.74193 0.52170 0.40900
C 	C 	0.99713 0.77141 0.56252 -0.34400
C 	C 	0.95600 0.88924 0.61234 0.05100
C 	C 	0.01427 0.96904 0.63163 -0.15100
C 	C 	0.85865 0.98851 0.68206 0.06600
C 	C 	0.89639 0.05841 0.70984 -0.18500
C 	C 	0.09208 0.11027 0.68793 0.14000
C 	C 	0.24685 0.09433 0.63728 -0.28400
C 	C 	0.21307 0.02521 0.60500 0.27200
C 	C 	0.69121 0.52170 0.73637 0.40800
C 	C 	0.55965 0.56252 0.66607 -0.34300
C 	C 	0.56834 0.61234 0.49842 0.05200
C 	C 	0.64590 0.63163 0.39933 -0.15300
C 	C 	0.54071 0.68206 0.32943 0.06800
C 	C 	0.60623 0.70984 0.23175 -0.18700
C 	C 	0.78001 0.68793 0.20180 0.14100
C 	C 	0.88413 0.63728 0.26839 -0.28500
C 	C 	0.81807 0.60500 0.36979 0.27300
N 	N 	0.77822 0.43044 0.14558 -0.17500
N 	N 	0.92380 0.14558 0.42398 -0.17400
N 	N 	0.34778 0.42398 0.43044 -0.17500
N 	N 	0.22178 0.56956 0.85442 -0.17500
N 	N 	0.07620 0.85442 0.57602 -0.17400
N 	N 	0.65222 0.57602 0.56956 -0.17500
O 	O 	0.44942 0.29669 0.20683 -0.41700
O 	O 	0.53531 0.17915 0.32962 -0.37900
O 	O 	0.65089 0.56511 0.98514 -0.47500
O 	O 	0.65625 0.20683 0.49648 -0.41700
O 	O 	0.86493 0.32962 0.49123 -0.37900
O 	O 	0.63603 0.98514 0.44975 -0.47500
O 	O 	0.15273 0.49648 0.29669 -0.41700
O 	O 	0.35616 0.49123 0.17915 -0.37900
O 	O 	0.08578 0.44975 0.56511 -0.47500
O 	O 	0.55058 0.70331 0.79317 -0.41700
O 	O 	0.46469 0.82085 0.67038 -0.37900
O 	O 	0.34911 0.43489 0.01486 -0.47500
O 	O 	0.34375 0.79317 0.50352 -0.41700
O 	O 	0.13507 0.67038 0.50877 -0.37900
O 	O 	0.36397 0.01486 0.55025 -0.47500
O 	O 	0.84727 0.50352 0.70331 -0.41700
O 	O 	0.64384 0.50877 0.82085 -0.37900
O 	O 	0.91422 0.55025 0.43489 -0.47500
