data_crystal

_cell_length_a 23.53200
_cell_length_b 23.53200
_cell_length_c 23.18100
_cell_angle_alpha 90.00000
_cell_angle_beta  90.00000
_cell_angle_gamma 90.00000

_symmetry_space_group_name_	'P 1'
_symmetry_space_group_name_H-M	'P 1'

loop_
_symmetry_equiv_pos_as_xyz
  x,y,z

loop_
_atom_site_label
_atom_site_type_symbol
_atom_site_fract_x
_atom_site_fract_y
_atom_site_fract_z
_atom_site_charge
Ni	Ni	0.00200 0.74059 0.13910 1.06400
Au	Au	0.86484 0.63983 0.27670 0.26100
Au	Au	0.13446 0.83913 0.99540 0.26600
Au	Au	0.89489 0.59416 0.01680 0.24900
N 	N 	0.94750 0.70990 0.19850 -0.23500
N 	N 	0.05740 0.76900 0.07590 -0.22400
N 	N 	0.97510 0.67330 0.08890 -0.22500
N 	N 	0.02800 0.80760 0.19020 -0.23100
N 	N 	0.06720 0.69510 0.17440 -0.23500
N 	N 	0.94120 0.78560 0.09950 -0.23200
C 	C 	0.91610 0.68380 0.22640 -0.07500
C 	C 	0.08660 0.79090 0.04270 -0.08700
C 	C 	0.94840 0.64100 0.06190 -0.07900
C 	C 	0.05250 0.84000 0.21650 -0.07000
C 	C 	0.10460 0.67670 0.19700 -0.06400
C 	C 	0.91080 0.81610 0.06960 -0.09300
Ni	Ni	0.50200 0.24059 0.63910 1.06300
Au	Au	0.36484 0.13983 0.77670 0.26200
Au	Au	0.63446 0.33913 0.49540 0.25600
Au	Au	0.39489 0.09416 0.51680 0.25600
N 	N 	0.44750 0.20990 0.69850 -0.23600
N 	N 	0.55740 0.26900 0.57590 -0.22600
N 	N 	0.47510 0.17330 0.58890 -0.22600
N 	N 	0.52800 0.30760 0.69020 -0.23100
N 	N 	0.56720 0.19510 0.67440 -0.23500
N 	N 	0.44120 0.28560 0.59950 -0.23300
C 	C 	0.41610 0.18380 0.72640 -0.07400
C 	C 	0.58660 0.29090 0.54270 -0.07700
C 	C 	0.44840 0.14100 0.56190 -0.07600
C 	C 	0.55250 0.34000 0.71650 -0.06900
C 	C 	0.60460 0.17670 0.69700 -0.06200
C 	C 	0.41080 0.31610 0.56960 -0.09000
Ni	Ni	0.49800 0.75941 0.63910 1.06300
Au	Au	0.63516 0.86017 0.77670 0.26200
Au	Au	0.36554 0.66087 0.49540 0.25600
Au	Au	0.60511 0.90584 0.51680 0.25600
N 	N 	0.55250 0.79010 0.69850 -0.23600
N 	N 	0.44260 0.73100 0.57590 -0.22600
N 	N 	0.52490 0.82670 0.58890 -0.22600
N 	N 	0.47200 0.69240 0.69020 -0.23100
N 	N 	0.43280 0.80490 0.67440 -0.23500
N 	N 	0.55880 0.71440 0.59950 -0.23300
C 	C 	0.58390 0.81620 0.72640 -0.07400
C 	C 	0.41340 0.70910 0.54270 -0.07700
C 	C 	0.55160 0.85900 0.56190 -0.07600
C 	C 	0.44750 0.66000 0.71650 -0.06900
C 	C 	0.39540 0.82330 0.69700 -0.06200
C 	C 	0.58920 0.68390 0.56960 -0.09000
Ni	Ni	0.99800 0.25941 0.13910 1.06300
Au	Au	0.13516 0.36017 0.27670 0.26000
Au	Au	0.86554 0.16087 0.99540 0.26500
Au	Au	0.10511 0.40584 0.01680 0.24800
N 	N 	0.05250 0.29010 0.19850 -0.23600
N 	N 	0.94260 0.23100 0.07590 -0.22500
N 	N 	0.02490 0.32670 0.08890 -0.22600
N 	N 	0.97200 0.19240 0.19020 -0.23200
N 	N 	0.93280 0.30490 0.17440 -0.23600
N 	N 	0.05880 0.21440 0.09950 -0.23300
C 	C 	0.08390 0.31620 0.22640 -0.07500
C 	C 	0.91340 0.20910 0.04270 -0.08700
C 	C 	0.05160 0.35900 0.06190 -0.07900
C 	C 	0.94750 0.16000 0.21650 -0.07000
C 	C 	0.89540 0.32330 0.19700 -0.06400
C 	C 	0.08920 0.18390 0.06960 -0.09300
Ni	Ni	0.25941 0.50200 0.38910 1.06300
Au	Au	0.36017 0.36484 0.52670 0.26100
Au	Au	0.16087 0.63446 0.24540 0.25500
Au	Au	0.40584 0.39489 0.26680 0.25500
N 	N 	0.29010 0.44750 0.44850 -0.23600
N 	N 	0.23100 0.55740 0.32590 -0.22600
N 	N 	0.32670 0.47510 0.33890 -0.22600
N 	N 	0.19240 0.52800 0.44020 -0.23100
N 	N 	0.30490 0.56720 0.42440 -0.23600
N 	N 	0.21440 0.44120 0.34950 -0.23300
C 	C 	0.31620 0.41610 0.47640 -0.07500
C 	C 	0.20910 0.58660 0.29270 -0.07800
C 	C 	0.35900 0.44840 0.31190 -0.07700
C 	C 	0.16000 0.55250 0.46650 -0.06900
C 	C 	0.32330 0.60460 0.44700 -0.06300
C 	C 	0.18390 0.41080 0.31960 -0.09000
Ni	Ni	0.75941 0.00200 0.88910 1.06400
Au	Au	0.86017 0.86484 0.02670 0.25300
Au	Au	0.66087 0.13446 0.74540 0.25700
Au	Au	0.90584 0.89489 0.76680 0.25700
N 	N 	0.79010 0.94750 0.94850 -0.23600
N 	N 	0.73100 0.05740 0.82590 -0.22500
N 	N 	0.82670 0.97510 0.83890 -0.22500
N 	N 	0.69240 0.02800 0.94020 -0.23200
N 	N 	0.80490 0.06720 0.92440 -0.23500
N 	N 	0.71440 0.94120 0.84950 -0.23200
C 	C 	0.81620 0.91610 0.97640 -0.06500
C 	C 	0.70910 0.08660 0.79270 -0.07600
C 	C 	0.85900 0.94840 0.81190 -0.07500
C 	C 	0.66000 0.05250 0.96650 -0.06000
C 	C 	0.82330 0.10460 0.94700 -0.06000
C 	C 	0.68390 0.91080 0.81960 -0.08800
Ni	Ni	0.24059 0.99800 0.88910 1.06400
Au	Au	0.13983 0.13516 0.02670 0.25300
Au	Au	0.33913 0.86554 0.74540 0.25700
Au	Au	0.09416 0.10511 0.76680 0.25700
N 	N 	0.20990 0.05250 0.94850 -0.23600
N 	N 	0.26900 0.94260 0.82590 -0.22500
N 	N 	0.17330 0.02490 0.83890 -0.22500
N 	N 	0.30760 0.97200 0.94020 -0.23200
N 	N 	0.19510 0.93280 0.92440 -0.23500
N 	N 	0.28560 0.05880 0.84950 -0.23200
C 	C 	0.18380 0.08390 0.97640 -0.06500
C 	C 	0.29090 0.91340 0.79270 -0.07600
C 	C 	0.14100 0.05160 0.81190 -0.07500
C 	C 	0.34000 0.94750 0.96650 -0.06000
C 	C 	0.17670 0.89540 0.94700 -0.06000
C 	C 	0.31610 0.08920 0.81960 -0.08800
Ni	Ni	0.74059 0.49800 0.38910 1.06300
Au	Au	0.63983 0.63516 0.52670 0.26100
Au	Au	0.83913 0.36554 0.24540 0.25500
Au	Au	0.59416 0.60511 0.26680 0.25500
N 	N 	0.70990 0.55250 0.44850 -0.23600
N 	N 	0.76900 0.44260 0.32590 -0.22600
N 	N 	0.67330 0.52490 0.33890 -0.22600
N 	N 	0.80760 0.47200 0.44020 -0.23100
N 	N 	0.69510 0.43280 0.42440 -0.23600
N 	N 	0.78560 0.55880 0.34950 -0.23300
C 	C 	0.68380 0.58390 0.47640 -0.07500
C 	C 	0.79090 0.41340 0.29270 -0.07800
C 	C 	0.64100 0.55160 0.31190 -0.07700
C 	C 	0.84000 0.44750 0.46650 -0.06900
C 	C 	0.67670 0.39540 0.44700 -0.06300
C 	C 	0.81610 0.58920 0.31960 -0.09000
Ni	Ni	0.00200 0.25941 0.63910 1.06300
Au	Au	0.86484 0.36017 0.77670 0.26200
Au	Au	0.13446 0.16087 0.49540 0.25600
Au	Au	0.89489 0.40584 0.51680 0.25600
N 	N 	0.94750 0.29010 0.69850 -0.23600
N 	N 	0.05740 0.23100 0.57590 -0.22600
N 	N 	0.97510 0.32670 0.58890 -0.22600
N 	N 	0.02800 0.19240 0.69020 -0.23100
N 	N 	0.06720 0.30490 0.67440 -0.23500
N 	N 	0.94120 0.21440 0.59950 -0.23300
C 	C 	0.91610 0.31620 0.72640 -0.07400
C 	C 	0.08660 0.20910 0.54270 -0.07700
C 	C 	0.94840 0.35900 0.56190 -0.07600
C 	C 	0.05250 0.16000 0.71650 -0.06900
C 	C 	0.10460 0.32330 0.69700 -0.06200
C 	C 	0.91080 0.18390 0.56960 -0.09000
Ni	Ni	0.50200 0.75941 0.13910 1.06300
Au	Au	0.36484 0.86017 0.27670 0.26000
Au	Au	0.63446 0.66087 0.99540 0.26500
Au	Au	0.39489 0.90584 0.01680 0.24800
N 	N 	0.44750 0.79010 0.19850 -0.23600
N 	N 	0.55740 0.73100 0.07590 -0.22500
N 	N 	0.47510 0.82670 0.08890 -0.22600
N 	N 	0.52800 0.69240 0.19020 -0.23200
N 	N 	0.56720 0.80490 0.17440 -0.23600
N 	N 	0.44120 0.71440 0.09950 -0.23400
C 	C 	0.41610 0.81620 0.22640 -0.07500
C 	C 	0.58660 0.70910 0.04270 -0.08700
C 	C 	0.44840 0.85900 0.06190 -0.07900
C 	C 	0.55250 0.66000 0.21650 -0.07100
C 	C 	0.60460 0.82330 0.19700 -0.06400
C 	C 	0.41080 0.68390 0.06960 -0.09300
Ni	Ni	0.49800 0.24059 0.13910 1.06300
Au	Au	0.63516 0.13983 0.27670 0.26000
Au	Au	0.36554 0.33913 0.99540 0.26500
Au	Au	0.60511 0.09416 0.01680 0.24800
N 	N 	0.55250 0.20990 0.19850 -0.23600
N 	N 	0.44260 0.26900 0.07590 -0.22500
N 	N 	0.52490 0.17330 0.08890 -0.22600
N 	N 	0.47200 0.30760 0.19020 -0.23200
N 	N 	0.43280 0.19510 0.17440 -0.23600
N 	N 	0.55880 0.28560 0.09950 -0.23400
C 	C 	0.58390 0.18380 0.22640 -0.07500
C 	C 	0.41340 0.29090 0.04270 -0.08700
C 	C 	0.55160 0.14100 0.06190 -0.07900
C 	C 	0.44750 0.34000 0.21650 -0.07100
C 	C 	0.39540 0.17670 0.19700 -0.06400
C 	C 	0.58920 0.31610 0.06960 -0.09300
Ni	Ni	0.99800 0.74059 0.63910 1.06300
Au	Au	0.13516 0.63983 0.77670 0.26200
Au	Au	0.86554 0.83913 0.49540 0.25600
Au	Au	0.10511 0.59416 0.51680 0.25600
N 	N 	0.05250 0.70990 0.69850 -0.23600
N 	N 	0.94260 0.76900 0.57590 -0.22600
N 	N 	0.02490 0.67330 0.58890 -0.22600
N 	N 	0.97200 0.80760 0.69020 -0.23100
N 	N 	0.93280 0.69510 0.67440 -0.23500
N 	N 	0.05880 0.78560 0.59950 -0.23300
C 	C 	0.08390 0.68380 0.72640 -0.07400
C 	C 	0.91340 0.79090 0.54270 -0.07700
C 	C 	0.05160 0.64100 0.56190 -0.07600
C 	C 	0.94750 0.84000 0.71650 -0.06900
C 	C 	0.89540 0.67670 0.69700 -0.06200
C 	C 	0.08920 0.81610 0.56960 -0.09000
Ni	Ni	0.25941 0.49800 0.88910 1.06400
Au	Au	0.36017 0.63516 0.02670 0.25200
Au	Au	0.16087 0.36554 0.74540 0.25700
Au	Au	0.40584 0.60511 0.76680 0.25700
N 	N 	0.29010 0.55250 0.94850 -0.23600
N 	N 	0.23100 0.44260 0.82590 -0.22500
N 	N 	0.32670 0.52490 0.83890 -0.22500
N 	N 	0.19240 0.47200 0.94020 -0.23200
N 	N 	0.30490 0.43280 0.92440 -0.23500
N 	N 	0.21440 0.55880 0.84950 -0.23200
C 	C 	0.31620 0.58390 0.97640 -0.06500
C 	C 	0.20910 0.41340 0.79270 -0.07600
C 	C 	0.35900 0.55160 0.81190 -0.07500
C 	C 	0.16000 0.44750 0.96650 -0.06000
C 	C 	0.32330 0.39540 0.94700 -0.06000
C 	C 	0.18390 0.58920 0.81960 -0.08800
Ni	Ni	0.75941 0.99800 0.38910 1.06300
Au	Au	0.86017 0.13516 0.52670 0.26100
Au	Au	0.66087 0.86554 0.24540 0.25500
Au	Au	0.90584 0.10511 0.26680 0.25500
N 	N 	0.79010 0.05250 0.44850 -0.23600
N 	N 	0.73100 0.94260 0.32590 -0.22600
N 	N 	0.82670 0.02490 0.33890 -0.22600
N 	N 	0.69240 0.97200 0.44020 -0.23100
N 	N 	0.80490 0.93280 0.42440 -0.23600
N 	N 	0.71440 0.05880 0.34950 -0.23300
C 	C 	0.81620 0.08390 0.47640 -0.07400
C 	C 	0.70910 0.91340 0.29270 -0.07800
C 	C 	0.85900 0.05160 0.31190 -0.07600
C 	C 	0.66000 0.94750 0.46650 -0.06900
C 	C 	0.82330 0.89540 0.44700 -0.06300
C 	C 	0.68390 0.08920 0.31960 -0.09000
Ni	Ni	0.24059 0.00200 0.38910 1.06300
Au	Au	0.13983 0.86484 0.52670 0.26100
Au	Au	0.33913 0.13446 0.24540 0.25500
Au	Au	0.09416 0.89489 0.26680 0.25500
N 	N 	0.20990 0.94750 0.44850 -0.23600
N 	N 	0.26900 0.05740 0.32590 -0.22600
N 	N 	0.17330 0.97510 0.33890 -0.22600
N 	N 	0.30760 0.02800 0.44020 -0.23100
N 	N 	0.19510 0.06720 0.42440 -0.23600
N 	N 	0.28560 0.94120 0.34950 -0.23300
C 	C 	0.18380 0.91610 0.47640 -0.07400
C 	C 	0.29090 0.08660 0.29270 -0.07800
C 	C 	0.14100 0.94840 0.31190 -0.07600
C 	C 	0.34000 0.05250 0.46650 -0.06900
C 	C 	0.17670 0.10460 0.44700 -0.06300
C 	C 	0.31610 0.91080 0.31960 -0.09000
Ni	Ni	0.74059 0.50200 0.88910 1.06400
Au	Au	0.63983 0.36484 0.02670 0.25200
Au	Au	0.83913 0.63446 0.74540 0.25700
Au	Au	0.59416 0.39489 0.76680 0.25700
N 	N 	0.70990 0.44750 0.94850 -0.23600
N 	N 	0.76900 0.55740 0.82590 -0.22500
N 	N 	0.67330 0.47510 0.83890 -0.22500
N 	N 	0.80760 0.52800 0.94020 -0.23200
N 	N 	0.69510 0.56720 0.92440 -0.23500
N 	N 	0.78560 0.44120 0.84950 -0.23200
C 	C 	0.68380 0.41610 0.97640 -0.06500
C 	C 	0.79090 0.58660 0.79270 -0.07600
C 	C 	0.64100 0.44840 0.81190 -0.07500
C 	C 	0.84000 0.55250 0.96650 -0.06000
C 	C 	0.67670 0.60460 0.94700 -0.06000
C 	C 	0.81610 0.41080 0.81960 -0.08800
