data_crystal

_cell_length_a 11.55160
_cell_length_b 17.16770
_cell_length_c 8.71850
_cell_angle_alpha 90.00000
_cell_angle_beta  130.63500
_cell_angle_gamma 90.00000

_symmetry_space_group_name_	'P 1'
_symmetry_space_group_name_H-M	'P 1'

loop_
_symmetry_equiv_pos_as_xyz
  x,y,z

loop_
_atom_site_label
_atom_site_type_symbol
_atom_site_fract_x
_atom_site_fract_y
_atom_site_fract_z
_atom_site_charge
Y 	Y 	0.44100 0.12800 0.26050 2.39100
O 	O 	0.67060 0.17050 0.36150 -0.46500
O 	O 	0.56850 0.07590 0.58430 -0.48000
O 	O 	0.52380 0.23650 0.47220 -0.44600
O 	O 	0.70810 0.32500 0.65240 -0.53300
O 	O 	0.85230 0.26310 0.53840 -0.53700
O 	O 	0.57220 0.98340 0.77000 -0.43000
O 	O 	0.31850 0.92160 0.43300 -0.38300
O 	O 	0.30930 0.01760 0.25300 -0.39000
C 	C 	0.73710 0.23430 0.48420 0.20700
C 	C 	0.65290 0.27170 0.54950 0.30400
C 	C 	0.51900 0.01940 0.60560 0.27600
C 	C 	0.37140 0.98440 0.41300 0.23000
Y 	Y 	0.94100 0.62800 0.26050 2.34600
O 	O 	0.17060 0.67050 0.36150 -0.35200
O 	O 	0.06850 0.57590 0.58430 -0.43900
O 	O 	0.02380 0.73650 0.47220 -0.29800
O 	O 	0.20810 0.82500 0.65240 -0.42900
O 	O 	0.35230 0.76310 0.53840 -0.41000
O 	O 	0.07220 0.48340 0.77000 -0.36300
O 	O 	0.81850 0.42160 0.43300 -0.42900
O 	O 	0.80930 0.51760 0.25300 -0.42800
C 	C 	0.23710 0.73430 0.48420 0.23300
C 	C 	0.15290 0.77170 0.54950 0.31800
C 	C 	0.01900 0.51940 0.60560 0.56700
C 	C 	0.87140 0.48440 0.41300 -0.06400
Y 	Y 	0.44100 0.87200 0.76050 2.39400
O 	O 	0.67060 0.82950 0.86150 -0.47200
O 	O 	0.56850 0.92410 0.08430 -0.50200
O 	O 	0.52380 0.76350 0.97220 -0.38700
O 	O 	0.70810 0.67500 0.15240 -0.51500
O 	O 	0.85230 0.73690 0.03840 -0.60600
O 	O 	0.57220 0.01660 0.27000 -0.44800
O 	O 	0.31850 0.07840 0.93300 -0.35900
O 	O 	0.30930 0.98240 0.75300 -0.37200
C 	C 	0.73710 0.76570 0.98420 0.32200
C 	C 	0.65290 0.72830 0.04950 0.19100
C 	C 	0.51900 0.98060 0.10560 0.25000
C 	C 	0.37140 0.01560 0.91300 0.25500
Y 	Y 	0.94100 0.37200 0.76050 2.35000
O 	O 	0.17060 0.32950 0.86150 -0.35800
O 	O 	0.06850 0.42410 0.08430 -0.45900
O 	O 	0.02380 0.26350 0.97220 -0.23600
O 	O 	0.20810 0.17500 0.15240 -0.40900
O 	O 	0.35230 0.23690 0.03840 -0.48400
O 	O 	0.07220 0.51660 0.27000 -0.37500
O 	O 	0.81850 0.57840 0.93300 -0.40900
O 	O 	0.80930 0.48240 0.75300 -0.41900
C 	C 	0.23710 0.26570 0.98420 0.35400
C 	C 	0.15290 0.22830 0.04950 0.19600
C 	C 	0.01900 0.48060 0.10560 0.52300
C 	C 	0.87140 0.51560 0.91300 -0.02100
