data_crystal

_cell_length_a 25.74650
_cell_length_b 25.74650
_cell_length_c 25.74650
_cell_angle_alpha 90.00000
_cell_angle_beta  90.00000
_cell_angle_gamma 90.00000

_symmetry_space_group_name_	'P 1'
_symmetry_space_group_name_H-M	'P 1'

loop_
_symmetry_equiv_pos_as_xyz
  x,y,z

loop_
_atom_site_label
_atom_site_type_symbol
_atom_site_fract_x
_atom_site_fract_y
_atom_site_fract_z
_atom_site_charge
Zn	Zn	0.29342 0.20658 0.20658 1.21900
Zn	Zn	0.29342 0.70658 0.70658 1.21900
Zn	Zn	0.70658 0.79342 0.20658 1.21900
Zn	Zn	0.70658 0.29342 0.70658 1.21900
Zn	Zn	0.20658 0.29342 0.20658 1.21900
Zn	Zn	0.70658 0.20658 0.79342 1.21900
Zn	Zn	0.70658 0.70658 0.29342 1.21900
Zn	Zn	0.20658 0.20658 0.29342 1.21900
Zn	Zn	0.29342 0.79342 0.79342 1.21900
Zn	Zn	0.29342 0.29342 0.29342 1.21900
Zn	Zn	0.20658 0.70658 0.79342 1.21900
Zn	Zn	0.79342 0.70658 0.20658 1.21900
Zn	Zn	0.79342 0.29342 0.79342 1.21900
Zn	Zn	0.79342 0.20658 0.70658 1.21900
Zn	Zn	0.20658 0.79342 0.70658 1.21900
Zn	Zn	0.79342 0.79342 0.29342 1.21900
Zn	Zn	0.20658 0.29342 0.79342 1.21900
Zn	Zn	0.79342 0.70658 0.79342 1.21900
Zn	Zn	0.79342 0.20658 0.29342 1.21900
Zn	Zn	0.29342 0.20658 0.79342 1.21900
Zn	Zn	0.20658 0.70658 0.20658 1.21900
Zn	Zn	0.79342 0.29342 0.20658 1.21900
Zn	Zn	0.29342 0.29342 0.70658 1.21900
Zn	Zn	0.29342 0.70658 0.29342 1.21900
Zn	Zn	0.70658 0.20658 0.20658 1.22000
Zn	Zn	0.70658 0.70658 0.70658 1.22000
Zn	Zn	0.70658 0.79342 0.79342 1.22000
Zn	Zn	0.70658 0.29342 0.29342 1.22000
Zn	Zn	0.20658 0.79342 0.29342 1.22000
Zn	Zn	0.29342 0.79342 0.20658 1.22000
Zn	Zn	0.20658 0.20658 0.70658 1.22000
Zn	Zn	0.79342 0.79342 0.70658 1.22000
O 	O 	0.28070 0.21930 0.13400 -0.48800
C 	C 	0.28100 0.21900 0.02660 0.09800
N 	N 	0.31770 0.18230 0.04740 -0.06900
O 	O 	0.28070 0.71930 0.63400 -0.48800
C 	C 	0.28100 0.71900 0.52660 0.09800
N 	N 	0.31770 0.68230 0.54740 -0.06900
O 	O 	0.71930 0.78070 0.13400 -0.48800
C 	C 	0.71900 0.78100 0.02660 0.09800
N 	N 	0.68230 0.81770 0.04740 -0.06900
O 	O 	0.71930 0.28070 0.63400 -0.48800
C 	C 	0.71900 0.28100 0.52660 0.09800
N 	N 	0.68230 0.31770 0.54740 -0.06900
O 	O 	0.21930 0.28070 0.13400 -0.48800
C 	C 	0.21900 0.28100 0.02660 0.09800
N 	N 	0.18230 0.31770 0.04740 -0.06900
O 	O 	0.71930 0.21930 0.86600 -0.48800
C 	C 	0.71900 0.21900 0.97340 0.09800
N 	N 	0.68230 0.18230 0.95260 -0.06900
O 	O 	0.71930 0.71930 0.36600 -0.48800
C 	C 	0.71900 0.71900 0.47340 0.09800
N 	N 	0.68230 0.68230 0.45260 -0.06900
O 	O 	0.21930 0.21930 0.36600 -0.48800
C 	C 	0.21900 0.21900 0.47340 0.09800
N 	N 	0.18230 0.18230 0.45260 -0.06900
O 	O 	0.28070 0.78070 0.86600 -0.48800
C 	C 	0.28100 0.78100 0.97340 0.09800
N 	N 	0.31770 0.81770 0.95260 -0.06900
O 	O 	0.28070 0.28070 0.36600 -0.48800
C 	C 	0.28100 0.28100 0.47340 0.09800
N 	N 	0.31770 0.31770 0.45260 -0.06900
O 	O 	0.13400 0.28070 0.21930 -0.48800
C 	C 	0.02660 0.28100 0.21900 0.09800
N 	N 	0.04740 0.31770 0.18230 -0.06900
O 	O 	0.63400 0.28070 0.71930 -0.48800
C 	C 	0.52660 0.28100 0.71900 0.09800
N 	N 	0.54740 0.31770 0.68230 -0.06900
O 	O 	0.13400 0.71930 0.78070 -0.48800
C 	C 	0.02660 0.71900 0.78100 0.09800
N 	N 	0.04740 0.68230 0.81770 -0.06900
O 	O 	0.13400 0.21930 0.28070 -0.48800
C 	C 	0.02660 0.21900 0.28100 0.09800
N 	N 	0.04740 0.18230 0.31770 -0.06900
O 	O 	0.63400 0.71930 0.28070 -0.48800
C 	C 	0.52660 0.71900 0.28100 0.09800
N 	N 	0.54740 0.68230 0.31770 -0.06900
O 	O 	0.86600 0.71930 0.21930 -0.48800
C 	C 	0.97340 0.71900 0.21900 0.09800
N 	N 	0.95260 0.68230 0.18230 -0.06900
O 	O 	0.36600 0.71930 0.71930 -0.48800
C 	C 	0.47340 0.71900 0.71900 0.09800
N 	N 	0.45260 0.68230 0.68230 -0.06900
O 	O 	0.36600 0.21930 0.21930 -0.48800
C 	C 	0.47340 0.21900 0.21900 0.09800
N 	N 	0.45260 0.18230 0.18230 -0.06900
O 	O 	0.86600 0.28070 0.78070 -0.48800
C 	C 	0.97340 0.28100 0.78100 0.09800
N 	N 	0.95260 0.31770 0.81770 -0.06900
O 	O 	0.36600 0.28070 0.28070 -0.48800
C 	C 	0.47340 0.28100 0.28100 0.09800
N 	N 	0.45260 0.31770 0.31770 -0.06900
O 	O 	0.21930 0.13400 0.28070 -0.48800
C 	C 	0.21900 0.02660 0.28100 0.09800
N 	N 	0.18230 0.04740 0.31770 -0.06900
O 	O 	0.21930 0.63400 0.78070 -0.48800
C 	C 	0.21900 0.52660 0.78100 0.09800
N 	N 	0.18230 0.54740 0.81770 -0.06900
O 	O 	0.78070 0.13400 0.71930 -0.48800
C 	C 	0.78100 0.02660 0.71900 0.09800
N 	N 	0.81770 0.04740 0.68230 -0.06900
O 	O 	0.78070 0.63400 0.21930 -0.48800
C 	C 	0.78100 0.52660 0.21900 0.09800
N 	N 	0.81770 0.54740 0.18230 -0.06900
O 	O 	0.28070 0.13400 0.21930 -0.48800
C 	C 	0.28100 0.02660 0.21900 0.09800
N 	N 	0.31770 0.04740 0.18230 -0.06900
O 	O 	0.21930 0.86600 0.71930 -0.48800
C 	C 	0.21900 0.97340 0.71900 0.09800
N 	N 	0.18230 0.95260 0.68230 -0.06900
O 	O 	0.21930 0.36600 0.21930 -0.48800
C 	C 	0.21900 0.47340 0.21900 0.09800
N 	N 	0.18230 0.45260 0.18230 -0.06900
O 	O 	0.78070 0.86600 0.28070 -0.48800
C 	C 	0.78100 0.97340 0.28100 0.09800
N 	N 	0.81770 0.95260 0.31770 -0.06900
O 	O 	0.78070 0.36600 0.78070 -0.48800
C 	C 	0.78100 0.47340 0.78100 0.09800
N 	N 	0.81770 0.45260 0.81770 -0.06900
O 	O 	0.28070 0.36600 0.28070 -0.48800
C 	C 	0.28100 0.47340 0.28100 0.09800
N 	N 	0.31770 0.45260 0.31770 -0.06900
O 	O 	0.21930 0.28070 0.86600 -0.48800
C 	C 	0.21900 0.28100 0.97340 0.09800
N 	N 	0.18230 0.31770 0.95260 -0.06900
O 	O 	0.21930 0.78070 0.36600 -0.48800
C 	C 	0.21900 0.78100 0.47340 0.09800
N 	N 	0.18230 0.81770 0.45260 -0.06900
O 	O 	0.78070 0.71930 0.86600 -0.48800
C 	C 	0.78100 0.71900 0.97340 0.09800
N 	N 	0.81770 0.68230 0.95260 -0.06900
O 	O 	0.78070 0.21930 0.36600 -0.48800
C 	C 	0.78100 0.21900 0.47340 0.09800
N 	N 	0.81770 0.18230 0.45260 -0.06900
O 	O 	0.28070 0.21930 0.86600 -0.48800
C 	C 	0.28100 0.21900 0.97340 0.09800
N 	N 	0.31770 0.18230 0.95260 -0.06900
O 	O 	0.21930 0.71930 0.13400 -0.48800
C 	C 	0.21900 0.71900 0.02660 0.09800
N 	N 	0.18230 0.68230 0.04740 -0.06900
O 	O 	0.21930 0.21930 0.63400 -0.48800
C 	C 	0.21900 0.21900 0.52660 0.09800
N 	N 	0.18230 0.18230 0.54740 -0.06900
O 	O 	0.78070 0.28070 0.13400 -0.48800
C 	C 	0.78100 0.28100 0.02660 0.09800
N 	N 	0.81770 0.31770 0.04740 -0.06900
O 	O 	0.78070 0.78070 0.63400 -0.48800
C 	C 	0.78100 0.78100 0.52660 0.09800
N 	N 	0.81770 0.81770 0.54740 -0.06900
O 	O 	0.28070 0.28070 0.63400 -0.48800
C 	C 	0.28100 0.28100 0.52660 0.09800
N 	N 	0.31770 0.31770 0.54740 -0.06900
O 	O 	0.28070 0.13400 0.78070 -0.48800
C 	C 	0.28100 0.02660 0.78100 0.09800
N 	N 	0.31770 0.04740 0.81770 -0.06900
O 	O 	0.28070 0.63400 0.28070 -0.48800
C 	C 	0.28100 0.52660 0.28100 0.09800
N 	N 	0.31770 0.54740 0.31770 -0.06900
O 	O 	0.71930 0.13400 0.21930 -0.48800
C 	C 	0.71900 0.02660 0.21900 0.09800
N 	N 	0.68230 0.04740 0.18230 -0.06900
O 	O 	0.71930 0.63400 0.71930 -0.48800
C 	C 	0.71900 0.52660 0.71900 0.09800
N 	N 	0.68230 0.54740 0.68230 -0.06900
O 	O 	0.21930 0.63400 0.21930 -0.48800
C 	C 	0.21900 0.52660 0.21900 0.09800
N 	N 	0.18230 0.54740 0.18230 -0.06900
O 	O 	0.71930 0.86600 0.78070 -0.48800
C 	C 	0.71900 0.97340 0.78100 0.09800
N 	N 	0.68230 0.95260 0.81770 -0.06900
O 	O 	0.71930 0.36600 0.28070 -0.48800
C 	C 	0.71900 0.47340 0.28100 0.09800
N 	N 	0.68230 0.45260 0.31770 -0.06900
O 	O 	0.21930 0.86600 0.28070 -0.48800
C 	C 	0.21900 0.97340 0.28100 0.09800
N 	N 	0.18230 0.95260 0.31770 -0.06900
O 	O 	0.28070 0.86600 0.21930 -0.48800
C 	C 	0.28100 0.97340 0.21900 0.09800
N 	N 	0.31770 0.95260 0.18230 -0.06900
O 	O 	0.28070 0.36600 0.71930 -0.48800
C 	C 	0.28100 0.47340 0.71900 0.09800
N 	N 	0.31770 0.45260 0.68230 -0.06900
O 	O 	0.13400 0.21930 0.71930 -0.48800
C 	C 	0.02660 0.21900 0.71900 0.09800
N 	N 	0.04740 0.18230 0.68230 -0.06900
O 	O 	0.63400 0.21930 0.21930 -0.48800
C 	C 	0.52660 0.21900 0.21900 0.09800
N 	N 	0.54740 0.18230 0.18230 -0.06900
O 	O 	0.13400 0.78070 0.28070 -0.48800
C 	C 	0.02660 0.78100 0.28100 0.09800
N 	N 	0.04740 0.81770 0.31770 -0.06900
O 	O 	0.63400 0.78070 0.78070 -0.48800
C 	C 	0.52660 0.78100 0.78100 0.09800
N 	N 	0.54740 0.81770 0.81770 -0.06900
O 	O 	0.63400 0.28070 0.28070 -0.48800
C 	C 	0.52660 0.28100 0.28100 0.09800
N 	N 	0.54740 0.31770 0.31770 -0.06900
O 	O 	0.86600 0.21930 0.28070 -0.48800
C 	C 	0.97340 0.21900 0.28100 0.09800
N 	N 	0.95260 0.18230 0.31770 -0.06900
O 	O 	0.36600 0.21930 0.78070 -0.48800
C 	C 	0.47340 0.21900 0.78100 0.09800
N 	N 	0.45260 0.18230 0.81770 -0.06900
O 	O 	0.86600 0.78070 0.71930 -0.48800
C 	C 	0.97340 0.78100 0.71900 0.09800
N 	N 	0.95260 0.81770 0.68230 -0.06900
O 	O 	0.86600 0.28070 0.21930 -0.48800
C 	C 	0.97340 0.28100 0.21900 0.09800
N 	N 	0.95260 0.31770 0.18230 -0.06900
O 	O 	0.36600 0.78070 0.21930 -0.48800
C 	C 	0.47340 0.78100 0.21900 0.09800
N 	N 	0.45260 0.81770 0.18230 -0.06900
O 	O 	0.71930 0.78070 0.86600 -0.48800
C 	C 	0.71900 0.78100 0.97340 0.09800
N 	N 	0.68230 0.81770 0.95260 -0.06900
O 	O 	0.71930 0.28070 0.36600 -0.48800
C 	C 	0.71900 0.28100 0.47340 0.09800
N 	N 	0.68230 0.31770 0.45260 -0.06900
O 	O 	0.28070 0.71930 0.36600 -0.48800
C 	C 	0.28100 0.71900 0.47340 0.09800
N 	N 	0.31770 0.68230 0.45260 -0.06900
O 	O 	0.28070 0.78070 0.13400 -0.48800
C 	C 	0.28100 0.78100 0.02660 0.09800
N 	N 	0.31770 0.81770 0.04740 -0.06900
O 	O 	0.71930 0.21930 0.13400 -0.48800
C 	C 	0.71900 0.21900 0.02660 0.09800
N 	N 	0.68230 0.18230 0.04740 -0.06900
O 	O 	0.71930 0.71930 0.63400 -0.48800
C 	C 	0.71900 0.71900 0.52660 0.09800
N 	N 	0.68230 0.68230 0.54740 -0.06900
O 	O 	0.86600 0.71930 0.78070 -0.48800
C 	C 	0.97340 0.71900 0.78100 0.09800
N 	N 	0.95260 0.68230 0.81770 -0.06900
O 	O 	0.36600 0.71930 0.28070 -0.48800
C 	C 	0.47340 0.71900 0.28100 0.09800
N 	N 	0.45260 0.68230 0.31770 -0.06900
O 	O 	0.36600 0.28070 0.71930 -0.48800
C 	C 	0.47340 0.28100 0.71900 0.09800
N 	N 	0.45260 0.31770 0.68230 -0.06900
O 	O 	0.13400 0.28070 0.78070 -0.48800
C 	C 	0.02660 0.28100 0.78100 0.09800
N 	N 	0.04740 0.31770 0.81770 -0.06900
O 	O 	0.13400 0.71930 0.21930 -0.48800
C 	C 	0.02660 0.71900 0.21900 0.09800
N 	N 	0.04740 0.68230 0.18230 -0.06900
O 	O 	0.63400 0.71930 0.71930 -0.48800
C 	C 	0.52660 0.71900 0.71900 0.09800
N 	N 	0.54740 0.68230 0.68230 -0.06900
O 	O 	0.78070 0.86600 0.71930 -0.48800
C 	C 	0.78100 0.97340 0.71900 0.09800
N 	N 	0.81770 0.95260 0.68230 -0.06900
O 	O 	0.78070 0.36600 0.21930 -0.48800
C 	C 	0.78100 0.47340 0.21900 0.09800
N 	N 	0.81770 0.45260 0.18230 -0.06900
O 	O 	0.21930 0.36600 0.78070 -0.48800
C 	C 	0.21900 0.47340 0.78100 0.09800
N 	N 	0.18230 0.45260 0.81770 -0.06900
O 	O 	0.78070 0.13400 0.28070 -0.48800
C 	C 	0.78100 0.02660 0.28100 0.09800
N 	N 	0.81770 0.04740 0.31770 -0.06900
O 	O 	0.78070 0.63400 0.78070 -0.48800
C 	C 	0.78100 0.52660 0.78100 0.09800
N 	N 	0.81770 0.54740 0.81770 -0.06900
O 	O 	0.21930 0.13400 0.71930 -0.48800
C 	C 	0.21900 0.02660 0.71900 0.09800
N 	N 	0.18230 0.04740 0.68230 -0.06900
O 	O 	0.78070 0.71930 0.13400 -0.48800
C 	C 	0.78100 0.71900 0.02660 0.09800
N 	N 	0.81770 0.68230 0.04740 -0.06900
O 	O 	0.78070 0.21930 0.63400 -0.48800
C 	C 	0.78100 0.21900 0.52660 0.09800
N 	N 	0.81770 0.18230 0.54740 -0.06900
O 	O 	0.21930 0.78070 0.63400 -0.48800
C 	C 	0.21900 0.78100 0.52660 0.09800
N 	N 	0.18230 0.81770 0.54740 -0.06900
O 	O 	0.78070 0.28070 0.86600 -0.48800
C 	C 	0.78100 0.28100 0.97340 0.09800
N 	N 	0.81770 0.31770 0.95260 -0.06900
O 	O 	0.78070 0.78070 0.36600 -0.48800
C 	C 	0.78100 0.78100 0.47340 0.09800
N 	N 	0.81770 0.81770 0.45260 -0.06900
O 	O 	0.21930 0.71930 0.86600 -0.48800
C 	C 	0.21900 0.71900 0.97340 0.09800
N 	N 	0.18230 0.68230 0.95260 -0.06900
O 	O 	0.71930 0.86600 0.21930 -0.48800
C 	C 	0.71900 0.97340 0.21900 0.09800
N 	N 	0.68230 0.95260 0.18230 -0.06900
O 	O 	0.71930 0.36600 0.71930 -0.48800
C 	C 	0.71900 0.47340 0.71900 0.09800
N 	N 	0.68230 0.45260 0.68230 -0.06900
O 	O 	0.28070 0.86600 0.78070 -0.48800
C 	C 	0.28100 0.97340 0.78100 0.09800
N 	N 	0.31770 0.95260 0.81770 -0.06900
O 	O 	0.28070 0.63400 0.71930 -0.48800
C 	C 	0.28100 0.52660 0.71900 0.09800
N 	N 	0.31770 0.54740 0.68230 -0.06900
O 	O 	0.71930 0.13400 0.78070 -0.48800
C 	C 	0.71900 0.02660 0.78100 0.09800
N 	N 	0.68230 0.04740 0.81770 -0.06900
O 	O 	0.71930 0.63400 0.28070 -0.48800
C 	C 	0.71900 0.52660 0.28100 0.09800
N 	N 	0.68230 0.54740 0.31770 -0.06900
O 	O 	0.86600 0.78070 0.28070 -0.48800
C 	C 	0.97340 0.78100 0.28100 0.09800
N 	N 	0.95260 0.81770 0.31770 -0.06900
O 	O 	0.36600 0.78070 0.78070 -0.48800
C 	C 	0.47340 0.78100 0.78100 0.09800
N 	N 	0.45260 0.81770 0.81770 -0.06900
O 	O 	0.86600 0.21930 0.71930 -0.48800
C 	C 	0.97340 0.21900 0.71900 0.09800
N 	N 	0.95260 0.18230 0.68230 -0.06900
O 	O 	0.13400 0.78070 0.71930 -0.48800
C 	C 	0.02660 0.78100 0.71900 0.09800
N 	N 	0.04740 0.81770 0.68230 -0.06900
O 	O 	0.63400 0.78070 0.21930 -0.48800
C 	C 	0.52660 0.78100 0.21900 0.09800
N 	N 	0.54740 0.81770 0.18230 -0.06900
O 	O 	0.63400 0.21930 0.78070 -0.48800
C 	C 	0.52660 0.21900 0.78100 0.09800
N 	N 	0.54740 0.18230 0.81770 -0.06900
O 	O 	0.25000 0.25000 0.25000 -0.95900
O 	O 	0.75000 0.75000 0.25000 -0.95900
O 	O 	0.75000 0.25000 0.75000 -0.95900
O 	O 	0.25000 0.75000 0.75000 -0.95900
O 	O 	0.25000 0.25000 0.75000 -0.95900
O 	O 	0.75000 0.75000 0.75000 -0.95900
O 	O 	0.75000 0.25000 0.25000 -0.95900
O 	O 	0.25000 0.75000 0.25000 -0.95900
C 	C 	0.25000 0.25000 0.11050 0.43300
C 	C 	0.25000 0.25000 0.05570 -0.16800
C 	C 	0.25000 0.75000 0.61050 0.43300
C 	C 	0.25000 0.75000 0.55570 -0.16800
C 	C 	0.75000 0.75000 0.11050 0.43300
C 	C 	0.75000 0.75000 0.05570 -0.16800
C 	C 	0.75000 0.25000 0.61050 0.43300
C 	C 	0.75000 0.25000 0.55570 -0.16800
C 	C 	0.75000 0.25000 0.88950 0.43300
C 	C 	0.75000 0.25000 0.94430 -0.16800
C 	C 	0.75000 0.75000 0.38950 0.43300
C 	C 	0.75000 0.75000 0.44430 -0.16800
C 	C 	0.25000 0.25000 0.38950 0.43300
C 	C 	0.25000 0.25000 0.44430 -0.16800
C 	C 	0.25000 0.75000 0.88950 0.43300
C 	C 	0.25000 0.75000 0.94430 -0.16800
C 	C 	0.11050 0.25000 0.25000 0.43300
C 	C 	0.05570 0.25000 0.25000 -0.16800
C 	C 	0.61050 0.25000 0.75000 0.43300
C 	C 	0.55570 0.25000 0.75000 -0.16800
C 	C 	0.11050 0.75000 0.75000 0.43300
C 	C 	0.05570 0.75000 0.75000 -0.16800
C 	C 	0.61050 0.75000 0.25000 0.43300
C 	C 	0.55570 0.75000 0.25000 -0.16800
C 	C 	0.88950 0.75000 0.25000 0.43300
C 	C 	0.94430 0.75000 0.25000 -0.16800
C 	C 	0.38950 0.75000 0.75000 0.43300
C 	C 	0.44430 0.75000 0.75000 -0.16800
C 	C 	0.38950 0.25000 0.25000 0.43300
C 	C 	0.44430 0.25000 0.25000 -0.16800
C 	C 	0.88950 0.25000 0.75000 0.43300
C 	C 	0.94430 0.25000 0.75000 -0.16800
C 	C 	0.25000 0.11050 0.25000 0.43300
C 	C 	0.25000 0.05570 0.25000 -0.16800
C 	C 	0.25000 0.61050 0.75000 0.43300
C 	C 	0.25000 0.55570 0.75000 -0.16800
C 	C 	0.75000 0.11050 0.75000 0.43300
C 	C 	0.75000 0.05570 0.75000 -0.16800
C 	C 	0.75000 0.61050 0.25000 0.43300
C 	C 	0.75000 0.55570 0.25000 -0.16800
C 	C 	0.25000 0.88950 0.75000 0.43300
C 	C 	0.25000 0.94430 0.75000 -0.16800
C 	C 	0.25000 0.38950 0.25000 0.43300
C 	C 	0.25000 0.44430 0.25000 -0.16800
C 	C 	0.75000 0.88950 0.25000 0.43300
C 	C 	0.75000 0.94430 0.25000 -0.16800
C 	C 	0.75000 0.38950 0.75000 0.43300
C 	C 	0.75000 0.44430 0.75000 -0.16800
C 	C 	0.25000 0.25000 0.88950 0.43300
C 	C 	0.25000 0.25000 0.94430 -0.16800
C 	C 	0.25000 0.75000 0.38950 0.43300
C 	C 	0.25000 0.75000 0.44430 -0.16800
C 	C 	0.75000 0.75000 0.88950 0.43300
C 	C 	0.75000 0.75000 0.94430 -0.16800
C 	C 	0.75000 0.25000 0.38950 0.43300
C 	C 	0.75000 0.25000 0.44430 -0.16800
C 	C 	0.25000 0.75000 0.11050 0.43300
C 	C 	0.25000 0.75000 0.05570 -0.16800
C 	C 	0.25000 0.25000 0.61050 0.43300
C 	C 	0.25000 0.25000 0.55570 -0.16800
C 	C 	0.75000 0.25000 0.11050 0.43300
C 	C 	0.75000 0.25000 0.05570 -0.16800
C 	C 	0.75000 0.75000 0.61050 0.43300
C 	C 	0.75000 0.75000 0.55570 -0.16800
C 	C 	0.25000 0.11050 0.75000 0.43300
C 	C 	0.25000 0.05570 0.75000 -0.16800
C 	C 	0.25000 0.61050 0.25000 0.43300
C 	C 	0.25000 0.55570 0.25000 -0.16800
C 	C 	0.75000 0.11050 0.25000 0.43300
C 	C 	0.75000 0.05570 0.25000 -0.16800
C 	C 	0.75000 0.61050 0.75000 0.43300
C 	C 	0.75000 0.55570 0.75000 -0.16800
C 	C 	0.75000 0.88950 0.75000 0.43300
C 	C 	0.75000 0.94430 0.75000 -0.16800
C 	C 	0.75000 0.38950 0.25000 0.43300
C 	C 	0.75000 0.44430 0.25000 -0.16800
C 	C 	0.25000 0.88950 0.25000 0.43300
C 	C 	0.25000 0.94430 0.25000 -0.16800
C 	C 	0.25000 0.38950 0.75000 0.43300
C 	C 	0.25000 0.44430 0.75000 -0.16800
C 	C 	0.11050 0.25000 0.75000 0.43300
C 	C 	0.05570 0.25000 0.75000 -0.16800
C 	C 	0.61050 0.25000 0.25000 0.43300
C 	C 	0.55570 0.25000 0.25000 -0.16800
C 	C 	0.11050 0.75000 0.25000 0.43300
C 	C 	0.05570 0.75000 0.25000 -0.16800
C 	C 	0.61050 0.75000 0.75000 0.43300
C 	C 	0.55570 0.75000 0.75000 -0.16800
C 	C 	0.88950 0.25000 0.25000 0.43300
C 	C 	0.94430 0.25000 0.25000 -0.16800
C 	C 	0.38950 0.25000 0.75000 0.43300
C 	C 	0.44430 0.25000 0.75000 -0.16800
C 	C 	0.88950 0.75000 0.75000 0.43300
C 	C 	0.94430 0.75000 0.75000 -0.16800
C 	C 	0.38950 0.75000 0.25000 0.43300
C 	C 	0.44430 0.75000 0.25000 -0.16800
