data_crystal

_cell_length_a 21.45940
_cell_length_b 21.45940
_cell_length_c 21.45940
_cell_angle_alpha 90.00000
_cell_angle_beta  90.00000
_cell_angle_gamma 90.00000

_symmetry_space_group_name_	'P 1'
_symmetry_space_group_name_H-M	'P 1'

loop_
_symmetry_equiv_pos_as_xyz
  x,y,z

loop_
_atom_site_label
_atom_site_type_symbol
_atom_site_fract_x
_atom_site_fract_y
_atom_site_fract_z
_atom_site_charge
Zn	Zn	0.05207 0.05207 0.05207 1.12200
Zn	Zn	0.94793 0.94793 0.05207 1.12600
Zn	Zn	0.94793 0.05207 0.94793 1.12600
Zn	Zn	0.05207 0.94793 0.94793 1.12600
Zn	Zn	0.05207 0.05207 0.94793 1.12400
Zn	Zn	0.94793 0.94793 0.94793 1.12800
Zn	Zn	0.05207 0.94793 0.05207 1.12400
Zn	Zn	0.94793 0.05207 0.05207 1.12400
O 	O 	-0.00000 0.00000 -0.00000 -1.60400
O 	O 	0.03900 0.03900 0.13980 -0.54100
O 	O 	0.96100 0.96100 0.13980 -0.52500
O 	O 	0.96100 0.03900 0.86020 -0.53200
O 	O 	0.03900 0.96100 0.86020 -0.53200
O 	O 	0.13980 0.03900 0.03900 -0.54000
O 	O 	0.13980 0.96100 0.96100 -0.52500
O 	O 	0.86020 0.96100 0.03900 -0.53200
O 	O 	0.86020 0.03900 0.96100 -0.53200
O 	O 	0.03900 0.13980 0.03900 -0.54000
O 	O 	0.96100 0.13980 0.96100 -0.52500
O 	O 	0.03900 0.86020 0.96100 -0.53200
O 	O 	0.96100 0.86020 0.03900 -0.53200
O 	O 	0.03900 0.03900 0.86020 -0.54000
O 	O 	0.96100 0.96100 0.86020 -0.52400
O 	O 	0.03900 0.96100 0.13980 -0.53300
O 	O 	0.96100 0.03900 0.13980 -0.53300
O 	O 	0.03900 0.13980 0.96100 -0.53300
O 	O 	0.96100 0.13980 0.03900 -0.53300
O 	O 	0.96100 0.86020 0.96100 -0.52400
O 	O 	0.03900 0.86020 0.03900 -0.54000
O 	O 	0.13980 0.03900 0.96100 -0.53300
O 	O 	0.13980 0.96100 0.03900 -0.53300
O 	O 	0.86020 0.03900 0.03900 -0.54000
O 	O 	0.86020 0.96100 0.96100 -0.52400
C 	C 	0.00000 0.00000 0.23390 -0.41200
C 	C 	0.00000 0.00000 0.16620 0.90600
C 	C 	0.00000 0.00000 0.36470 0.07600
C 	C 	-0.00000 -0.00000 0.43430 -0.03400
C 	C 	0.00000 0.00000 0.76610 -0.41300
C 	C 	0.00000 0.00000 0.83380 0.90400
C 	C 	0.00000 0.00000 0.63530 0.07500
C 	C 	0.00000 0.00000 0.56570 -0.03300
C 	C 	0.23390 0.00000 -0.00000 -0.41200
C 	C 	0.16620 0.00000 -0.00000 0.90600
C 	C 	0.36470 0.00000 -0.00000 0.07600
C 	C 	0.43430 0.00000 -0.00000 -0.03400
C 	C 	0.76610 0.00000 -0.00000 -0.41300
C 	C 	0.83380 0.00000 -0.00000 0.90400
C 	C 	0.63530 0.00000 -0.00000 0.07500
C 	C 	0.56570 0.00000 -0.00000 -0.03300
C 	C 	-0.00000 0.23390 -0.00000 -0.41200
C 	C 	-0.00000 0.16620 -0.00000 0.90600
C 	C 	0.00000 0.36470 -0.00000 0.07600
C 	C 	-0.00000 0.43430 -0.00000 -0.03400
C 	C 	-0.00000 0.76610 -0.00000 -0.41300
C 	C 	-0.00000 0.83380 -0.00000 0.90400
C 	C 	-0.00000 0.63530 -0.00000 0.07500
C 	C 	-0.00000 0.56570 -0.00000 -0.03300
C 	C 	0.96110 0.03890 0.26740 0.13200
C 	C 	0.96300 0.03700 0.33220 -0.05100
C 	C 	0.03890 0.96110 0.26740 0.13200
C 	C 	0.03700 0.96300 0.33220 -0.05100
C 	C 	0.03890 0.03890 0.73260 0.12600
C 	C 	0.03700 0.03700 0.66780 -0.05900
C 	C 	0.96110 0.96110 0.73260 0.14100
C 	C 	0.96300 0.96300 0.66780 -0.04100
C 	C 	0.26740 0.96110 0.03890 0.13200
C 	C 	0.33220 0.96300 0.03700 -0.05100
C 	C 	0.26740 0.03890 0.96110 0.13200
C 	C 	0.33220 0.03700 0.96300 -0.05100
C 	C 	0.73260 0.03890 0.03890 0.12600
C 	C 	0.66780 0.03700 0.03700 -0.05900
C 	C 	0.73260 0.96110 0.96110 0.14100
C 	C 	0.66780 0.96300 0.96300 -0.04100
C 	C 	0.03890 0.26740 0.96110 0.13200
C 	C 	0.03700 0.33220 0.96300 -0.05100
C 	C 	0.96110 0.26740 0.03890 0.13200
C 	C 	0.96300 0.33220 0.03700 -0.05100
C 	C 	0.03890 0.73260 0.03890 0.12600
C 	C 	0.03700 0.66780 0.03700 -0.05900
C 	C 	0.96110 0.73260 0.96110 0.14100
C 	C 	0.96300 0.66780 0.96300 -0.04100
C 	C 	0.03890 0.96110 0.73260 0.13300
C 	C 	0.03700 0.96300 0.66780 -0.05100
C 	C 	0.96110 0.03890 0.73260 0.13300
C 	C 	0.96300 0.03700 0.66780 -0.05100
C 	C 	0.03890 0.03890 0.26740 0.12600
C 	C 	0.03700 0.03700 0.33220 -0.05900
C 	C 	0.96110 0.96110 0.26740 0.14100
C 	C 	0.96300 0.96300 0.33220 -0.04100
C 	C 	0.96110 0.26740 0.96110 0.14100
C 	C 	0.96300 0.33220 0.96300 -0.04100
C 	C 	0.03890 0.26740 0.03890 0.12600
C 	C 	0.03700 0.33220 0.03700 -0.05900
C 	C 	0.03890 0.73260 0.96110 0.13300
C 	C 	0.03700 0.66780 0.96300 -0.05100
C 	C 	0.96110 0.73260 0.03890 0.13300
C 	C 	0.96300 0.66780 0.03700 -0.05100
C 	C 	0.26740 0.03890 0.03890 0.12600
C 	C 	0.33220 0.03700 0.03700 -0.05900
C 	C 	0.26740 0.96110 0.96110 0.14100
C 	C 	0.33220 0.96300 0.96300 -0.04100
C 	C 	0.73260 0.03890 0.96110 0.13300
C 	C 	0.66780 0.03700 0.96300 -0.05100
C 	C 	0.73260 0.96110 0.03890 0.13300
C 	C 	0.66780 0.96300 0.03700 -0.05100
C 	C 	0.00000 0.93810 0.46710 0.01100
C 	C 	0.00000 0.06190 0.46710 0.00500
C 	C 	0.00000 0.93810 0.53290 0.01100
C 	C 	0.00000 0.06190 0.53290 0.00500
C 	C 	0.46710 0.00000 0.93810 0.01100
C 	C 	0.46710 0.00000 0.06190 0.00500
C 	C 	0.53290 0.00000 0.93810 0.01100
C 	C 	0.53290 0.00000 0.06190 0.00500
C 	C 	0.93810 0.46710 -0.00000 0.01100
C 	C 	0.06190 0.46710 -0.00000 0.00500
C 	C 	0.93810 0.53290 -0.00000 0.01100
C 	C 	0.06190 0.53290 -0.00000 0.00500
C 	C 	0.93810 -0.00000 0.53290 0.01100
C 	C 	0.06190 -0.00000 0.53290 0.00500
C 	C 	0.93810 0.00000 0.46710 0.01100
C 	C 	0.06190 0.00000 0.46710 0.00500
C 	C 	0.00000 0.46710 0.06190 0.00500
C 	C 	0.00000 0.46710 0.93810 0.01100
C 	C 	-0.00000 0.53290 0.06190 0.00500
C 	C 	-0.00000 0.53290 0.93810 0.01100
C 	C 	0.46710 0.93810 -0.00000 0.01100
C 	C 	0.46710 0.06190 -0.00000 0.00500
C 	C 	0.53290 0.93810 -0.00000 0.01100
C 	C 	0.53290 0.06190 -0.00000 0.00500
Zn	Zn	0.55207 0.55207 0.55207 1.12600
Zn	Zn	0.44793 0.44793 0.55207 1.12600
Zn	Zn	0.44793 0.55207 0.44793 1.12600
Zn	Zn	0.55207 0.44793 0.44793 1.12600
Zn	Zn	0.55207 0.55207 0.44793 1.12600
Zn	Zn	0.44793 0.44793 0.44793 1.12600
Zn	Zn	0.55207 0.44793 0.55207 1.12600
Zn	Zn	0.44793 0.55207 0.55207 1.12600
O 	O 	0.50000 0.50000 0.50000 -1.58600
O 	O 	0.53900 0.53900 0.63980 -0.53900
O 	O 	0.46100 0.46100 0.63980 -0.53900
O 	O 	0.46100 0.53900 0.36020 -0.53900
O 	O 	0.53900 0.46100 0.36020 -0.53900
O 	O 	0.63980 0.53900 0.53900 -0.53900
O 	O 	0.63980 0.46100 0.46100 -0.53900
O 	O 	0.36020 0.46100 0.53900 -0.53900
O 	O 	0.36020 0.53900 0.46100 -0.53900
O 	O 	0.53900 0.63980 0.53900 -0.53900
O 	O 	0.46100 0.63980 0.46100 -0.53900
O 	O 	0.53900 0.36020 0.46100 -0.53900
O 	O 	0.46100 0.36020 0.53900 -0.53900
O 	O 	0.53900 0.53900 0.36020 -0.53900
O 	O 	0.46100 0.46100 0.36020 -0.53900
O 	O 	0.53900 0.46100 0.63980 -0.53900
O 	O 	0.46100 0.53900 0.63980 -0.53900
O 	O 	0.53900 0.63980 0.46100 -0.53900
O 	O 	0.46100 0.63980 0.53900 -0.53900
O 	O 	0.46100 0.36020 0.46100 -0.53900
O 	O 	0.53900 0.36020 0.53900 -0.53900
O 	O 	0.63980 0.53900 0.46100 -0.53900
O 	O 	0.63980 0.46100 0.53900 -0.53900
O 	O 	0.36020 0.53900 0.53900 -0.53900
O 	O 	0.36020 0.46100 0.46100 -0.53900
C 	C 	0.50000 0.50000 0.73390 -0.40100
C 	C 	0.50000 0.50000 0.66620 0.92800
C 	C 	0.50000 0.50000 0.86470 0.10900
C 	C 	0.50000 0.50000 0.93430 -0.04400
C 	C 	0.50000 0.50000 0.26610 -0.39800
C 	C 	0.50000 0.50000 0.33380 0.92700
C 	C 	0.50000 0.50000 0.13530 0.09900
C 	C 	0.50000 0.50000 0.06570 -0.02100
C 	C 	0.73390 0.50000 0.50000 -0.40100
C 	C 	0.66620 0.50000 0.50000 0.92800
C 	C 	0.86470 0.50000 0.50000 0.10900
C 	C 	0.93430 0.50000 0.50000 -0.04400
C 	C 	0.26610 0.50000 0.50000 -0.39800
C 	C 	0.33380 0.50000 0.50000 0.92700
C 	C 	0.13530 0.50000 0.50000 0.09900
C 	C 	0.06570 0.50000 0.50000 -0.02100
C 	C 	0.50000 0.73390 0.50000 -0.40100
C 	C 	0.50000 0.66620 0.50000 0.92800
C 	C 	0.50000 0.86470 0.50000 0.10900
C 	C 	0.50000 0.93430 0.50000 -0.04400
C 	C 	0.50000 0.26610 0.50000 -0.39800
C 	C 	0.50000 0.33380 0.50000 0.92700
C 	C 	0.50000 0.13530 0.50000 0.09900
C 	C 	0.50000 0.06570 0.50000 -0.02100
C 	C 	0.46110 0.53890 0.76740 0.13200
C 	C 	0.46300 0.53700 0.83220 -0.06100
C 	C 	0.53890 0.46110 0.76740 0.13200
C 	C 	0.53700 0.46300 0.83220 -0.06100
C 	C 	0.53890 0.53890 0.23260 0.13000
C 	C 	0.53700 0.53700 0.16780 -0.05800
C 	C 	0.46110 0.46110 0.23260 0.13000
C 	C 	0.46300 0.46300 0.16780 -0.05900
C 	C 	0.76740 0.46110 0.53890 0.13200
C 	C 	0.83220 0.46300 0.53700 -0.06100
C 	C 	0.76740 0.53890 0.46110 0.13200
C 	C 	0.83220 0.53700 0.46300 -0.06100
C 	C 	0.23260 0.53890 0.53890 0.13000
C 	C 	0.16780 0.53700 0.53700 -0.05800
C 	C 	0.23260 0.46110 0.46110 0.13000
C 	C 	0.16780 0.46300 0.46300 -0.05900
C 	C 	0.53890 0.76740 0.46110 0.13200
C 	C 	0.53700 0.83220 0.46300 -0.06100
C 	C 	0.46110 0.76740 0.53890 0.13200
C 	C 	0.46300 0.83220 0.53700 -0.06100
C 	C 	0.53890 0.23260 0.53890 0.13000
C 	C 	0.53700 0.16780 0.53700 -0.05800
C 	C 	0.46110 0.23260 0.46110 0.13000
C 	C 	0.46300 0.16780 0.46300 -0.05900
C 	C 	0.53890 0.46110 0.23260 0.13000
C 	C 	0.53700 0.46300 0.16780 -0.05900
C 	C 	0.46110 0.53890 0.23260 0.13000
C 	C 	0.46300 0.53700 0.16780 -0.05900
C 	C 	0.53890 0.53890 0.76740 0.13200
C 	C 	0.53700 0.53700 0.83220 -0.06000
C 	C 	0.46110 0.46110 0.76740 0.13200
C 	C 	0.46300 0.46300 0.83220 -0.06100
C 	C 	0.46110 0.76740 0.46110 0.13200
C 	C 	0.46300 0.83220 0.46300 -0.06100
C 	C 	0.53890 0.76740 0.53890 0.13200
C 	C 	0.53700 0.83220 0.53700 -0.06000
C 	C 	0.53890 0.23260 0.46110 0.13000
C 	C 	0.53700 0.16780 0.46300 -0.05900
C 	C 	0.46110 0.23260 0.53890 0.13000
C 	C 	0.46300 0.16780 0.53700 -0.05900
C 	C 	0.76740 0.53890 0.53890 0.13200
C 	C 	0.83220 0.53700 0.53700 -0.06000
C 	C 	0.76740 0.46110 0.46110 0.13200
C 	C 	0.83220 0.46300 0.46300 -0.06100
C 	C 	0.23260 0.53890 0.46110 0.13000
C 	C 	0.16780 0.53700 0.46300 -0.05900
C 	C 	0.23260 0.46110 0.53890 0.13000
C 	C 	0.16780 0.46300 0.53700 -0.05900
C 	C 	0.50000 0.43810 0.96710 0.02000
C 	C 	0.50000 0.56190 0.96710 0.02000
C 	C 	0.50000 0.43810 0.03290 -0.00300
C 	C 	0.50000 0.56190 0.03290 -0.00200
C 	C 	0.96710 0.50000 0.43810 0.02000
C 	C 	0.96710 0.50000 0.56190 0.02000
C 	C 	0.03290 0.50000 0.43810 -0.00300
C 	C 	0.03290 0.50000 0.56190 -0.00200
C 	C 	0.43810 0.96710 0.50000 0.02000
C 	C 	0.56190 0.96710 0.50000 0.02000
C 	C 	0.43810 0.03290 0.50000 -0.00300
C 	C 	0.56190 0.03290 0.50000 -0.00200
C 	C 	0.43810 0.50000 0.03290 -0.00300
C 	C 	0.56190 0.50000 0.03290 -0.00200
C 	C 	0.43810 0.50000 0.96710 0.02000
C 	C 	0.56190 0.50000 0.96710 0.02000
C 	C 	0.50000 0.96710 0.56190 0.02000
C 	C 	0.50000 0.96710 0.43810 0.02000
C 	C 	0.50000 0.03290 0.56190 -0.00200
C 	C 	0.50000 0.03290 0.43810 -0.00300
C 	C 	0.96710 0.43810 0.50000 0.02000
C 	C 	0.96710 0.56190 0.50000 0.02000
C 	C 	0.03290 0.43810 0.50000 -0.00300
C 	C 	0.03290 0.56190 0.50000 -0.00200
