data_crystal

_cell_length_a 24.31100
_cell_length_b 24.31100
_cell_length_c 24.31100
_cell_angle_alpha 60.00000
_cell_angle_beta  60.00000
_cell_angle_gamma 60.00000

_symmetry_space_group_name_	'P 1'
_symmetry_space_group_name_H-M	'P 1'

loop_
_symmetry_equiv_pos_as_xyz
  x,y,z

loop_
_atom_site_label
_atom_site_type_symbol
_atom_site_fract_x
_atom_site_fract_y
_atom_site_fract_z
_atom_site_charge
Zn	Zn	0.21725 0.34825 0.21725 1.20700
Zn	Zn	0.34825 0.21725 0.21725 1.20700
Zn	Zn	0.21725 0.21725 0.21725 1.20600
Zn	Zn	0.21725 0.21725 0.34825 1.20600
Zn	Zn	0.65175 0.78275 0.78275 1.20600
Zn	Zn	0.78275 0.65175 0.78275 1.20600
Zn	Zn	0.78275 0.78275 0.78275 1.20600
Zn	Zn	0.78275 0.78275 0.65175 1.20600
H 	H 	0.48660 0.32100 0.09620 0.04300
H 	H 	0.59510 0.33870 0.03310 0.04900
H 	H 	0.32100 0.48660 0.09620 0.04300
H 	H 	0.33870 0.59510 0.03310 0.04900
H 	H 	0.09620 0.09620 0.48660 0.04300
H 	H 	0.03310 0.03310 0.59510 0.04900
H 	H 	0.09620 0.09620 0.32100 0.04300
H 	H 	0.03310 0.03310 0.33870 0.04900
H 	H 	0.48660 0.09620 0.09620 0.04300
H 	H 	0.59510 0.03310 0.03310 0.04900
H 	H 	0.32100 0.09620 0.09620 0.04300
H 	H 	0.33870 0.03310 0.03310 0.04900
H 	H 	0.09620 0.48660 0.32100 0.04300
H 	H 	0.03310 0.59510 0.33870 0.04900
H 	H 	0.09620 0.32100 0.48660 0.04300
H 	H 	0.03310 0.33870 0.59510 0.04900
H 	H 	0.48660 0.09620 0.32100 0.04300
H 	H 	0.59510 0.03310 0.33870 0.04900
H 	H 	0.32100 0.09620 0.48660 0.04300
H 	H 	0.33870 0.03310 0.59510 0.04900
H 	H 	0.09620 0.32100 0.09620 0.04300
H 	H 	0.03310 0.33870 0.03310 0.04900
H 	H 	0.09620 0.48660 0.09620 0.04300
H 	H 	0.03310 0.59510 0.03310 0.04900
H 	H 	0.67900 0.51340 0.90380 0.04300
H 	H 	0.66130 0.40490 0.96690 0.04900
H 	H 	0.51340 0.67900 0.90380 0.04300
H 	H 	0.40490 0.66130 0.96690 0.04900
H 	H 	0.90380 0.90380 0.51340 0.04300
H 	H 	0.96690 0.96690 0.40490 0.04900
H 	H 	0.90380 0.90380 0.67900 0.04300
H 	H 	0.96690 0.96690 0.66130 0.04900
H 	H 	0.90380 0.51340 0.90380 0.04300
H 	H 	0.96690 0.40490 0.96690 0.04900
H 	H 	0.90380 0.67900 0.90380 0.04300
H 	H 	0.96690 0.66130 0.96690 0.04900
H 	H 	0.51340 0.90380 0.67900 0.04300
H 	H 	0.40490 0.96690 0.66130 0.04900
H 	H 	0.67900 0.90380 0.51340 0.04300
H 	H 	0.66130 0.96690 0.40490 0.04900
H 	H 	0.90380 0.51340 0.67900 0.04300
H 	H 	0.96690 0.40490 0.66130 0.04900
H 	H 	0.90380 0.67900 0.51340 0.04300
H 	H 	0.96690 0.66130 0.40490 0.04900
H 	H 	0.67900 0.90380 0.90380 0.04300
H 	H 	0.66130 0.96690 0.96690 0.04900
H 	H 	0.51340 0.90380 0.90380 0.04300
H 	H 	0.40490 0.96690 0.96690 0.04900
C 	C 	0.46550 0.36750 0.08350 0.00100
C 	C 	0.50380 0.41060 0.04280 0.01000
C 	C 	0.57410 0.38530 0.02030 -0.05400
C 	C 	0.36750 0.46550 0.08350 0.00100
C 	C 	0.41060 0.50380 0.04280 0.01000
C 	C 	0.38530 0.57410 0.02030 -0.05400
C 	C 	0.08350 0.08350 0.46550 0.00100
C 	C 	0.04280 0.04280 0.50380 0.01000
C 	C 	0.02030 0.02030 0.57410 -0.05400
C 	C 	0.08350 0.08350 0.36750 0.00100
C 	C 	0.04280 0.04280 0.41060 0.01000
C 	C 	0.02030 0.02030 0.38530 -0.05400
C 	C 	0.46550 0.08350 0.08350 0.00100
C 	C 	0.50380 0.04280 0.04280 0.01000
C 	C 	0.57410 0.02030 0.02030 -0.05400
C 	C 	0.36750 0.08350 0.08350 0.00100
C 	C 	0.41060 0.04280 0.04280 0.01000
C 	C 	0.38530 0.02030 0.02030 -0.05400
C 	C 	0.08350 0.46550 0.36750 0.00100
C 	C 	0.04280 0.50380 0.41060 0.01000
C 	C 	0.02030 0.57410 0.38530 -0.05400
C 	C 	0.08350 0.36750 0.46550 0.00100
C 	C 	0.04280 0.41060 0.50380 0.01000
C 	C 	0.02030 0.38530 0.57410 -0.05400
C 	C 	0.46550 0.08350 0.36750 0.00100
C 	C 	0.50380 0.04280 0.41060 0.01000
C 	C 	0.57410 0.02030 0.38530 -0.05400
C 	C 	0.36750 0.08350 0.46550 0.00100
C 	C 	0.41060 0.04280 0.50380 0.01000
C 	C 	0.38530 0.02030 0.57410 -0.05400
C 	C 	0.08350 0.36750 0.08350 0.00100
C 	C 	0.04280 0.41060 0.04280 0.01000
C 	C 	0.02030 0.38530 0.02030 -0.05400
C 	C 	0.08350 0.46550 0.08350 0.00100
C 	C 	0.04280 0.50380 0.04280 0.01000
C 	C 	0.02030 0.57410 0.02030 -0.05400
C 	C 	0.63250 0.53450 0.91650 0.00100
C 	C 	0.58940 0.49620 0.95720 0.01000
C 	C 	0.61470 0.42590 0.97970 -0.05400
C 	C 	0.53450 0.63250 0.91650 0.00100
C 	C 	0.49620 0.58940 0.95720 0.01000
C 	C 	0.42590 0.61470 0.97970 -0.05400
C 	C 	0.91650 0.91650 0.53450 0.00100
C 	C 	0.95720 0.95720 0.49620 0.01000
C 	C 	0.97970 0.97970 0.42590 -0.05400
C 	C 	0.91650 0.91650 0.63250 0.00100
C 	C 	0.95720 0.95720 0.58940 0.01000
C 	C 	0.97970 0.97970 0.61470 -0.05400
C 	C 	0.91650 0.53450 0.91650 0.00100
C 	C 	0.95720 0.49620 0.95720 0.01000
C 	C 	0.97970 0.42590 0.97970 -0.05400
C 	C 	0.91650 0.63250 0.91650 0.00100
C 	C 	0.95720 0.58940 0.95720 0.01000
C 	C 	0.97970 0.61470 0.97970 -0.05400
C 	C 	0.53450 0.91650 0.63250 0.00100
C 	C 	0.49620 0.95720 0.58940 0.01000
C 	C 	0.42590 0.97970 0.61470 -0.05400
C 	C 	0.63250 0.91650 0.53450 0.00100
C 	C 	0.58940 0.95720 0.49620 0.01000
C 	C 	0.61470 0.97970 0.42590 -0.05400
C 	C 	0.91650 0.53450 0.63250 0.00100
C 	C 	0.95720 0.49620 0.58940 0.01000
C 	C 	0.97970 0.42590 0.61470 -0.05400
C 	C 	0.91650 0.63250 0.53450 0.00100
C 	C 	0.95720 0.58940 0.49620 0.01000
C 	C 	0.97970 0.61470 0.42590 -0.05400
C 	C 	0.63250 0.91650 0.91650 0.00100
C 	C 	0.58940 0.95720 0.95720 0.01000
C 	C 	0.61470 0.97970 0.97970 -0.05400
C 	C 	0.53450 0.91650 0.91650 0.00100
C 	C 	0.49620 0.95720 0.95720 0.01000
C 	C 	0.42590 0.97970 0.97970 -0.05400
C 	C 	0.39520 0.39520 0.10480 -0.15700
C 	C 	0.35630 0.35630 0.14370 0.45600
C 	C 	0.48080 0.48080 0.01920 -0.00300
C 	C 	0.10480 0.10480 0.39520 -0.15700
C 	C 	0.14370 0.14370 0.35630 0.45600
C 	C 	0.01920 0.01920 0.48080 -0.00300
C 	C 	0.39520 0.10480 0.10480 -0.15700
C 	C 	0.35630 0.14370 0.14370 0.45600
C 	C 	0.48080 0.01920 0.01920 -0.00300
C 	C 	0.10480 0.39520 0.39520 -0.15700
C 	C 	0.14370 0.35630 0.35630 0.45600
C 	C 	0.01920 0.48080 0.48080 -0.00300
C 	C 	0.39520 0.10480 0.39520 -0.15700
C 	C 	0.35630 0.14370 0.35630 0.45600
C 	C 	0.48080 0.01920 0.48080 -0.00300
C 	C 	0.10480 0.39520 0.10480 -0.15700
C 	C 	0.14370 0.35630 0.14370 0.45600
C 	C 	0.01920 0.48080 0.01920 -0.00300
C 	C 	0.60480 0.60480 0.89520 -0.15700
C 	C 	0.64370 0.64370 0.85630 0.45600
C 	C 	0.51920 0.51920 0.98080 -0.00300
C 	C 	0.89520 0.89520 0.60480 -0.15700
C 	C 	0.85630 0.85630 0.64370 0.45600
C 	C 	0.98080 0.98080 0.51920 -0.00300
C 	C 	0.89520 0.60480 0.89520 -0.15700
C 	C 	0.85630 0.64370 0.85630 0.45600
C 	C 	0.98080 0.51920 0.98080 -0.00300
C 	C 	0.60480 0.89520 0.60480 -0.15700
C 	C 	0.64370 0.85630 0.64370 0.45600
C 	C 	0.51920 0.98080 0.51920 -0.00300
C 	C 	0.89520 0.60480 0.60480 -0.15700
C 	C 	0.85630 0.64370 0.64370 0.45600
C 	C 	0.98080 0.51920 0.51920 -0.00300
C 	C 	0.60480 0.89520 0.89520 -0.15700
C 	C 	0.64370 0.85630 0.85630 0.45600
C 	C 	0.51920 0.98080 0.98080 -0.00300
O 	O 	0.25000 0.25000 0.25000 -0.96100
O 	O 	0.75000 0.75000 0.75000 -0.96100
O 	O 	0.29370 0.38370 0.16130 -0.51900
O 	O 	0.38370 0.29370 0.16130 -0.51900
O 	O 	0.16130 0.16130 0.29370 -0.51900
O 	O 	0.16130 0.16130 0.38370 -0.51900
O 	O 	0.29370 0.16130 0.16130 -0.51900
O 	O 	0.38370 0.16130 0.16130 -0.51900
O 	O 	0.16130 0.29370 0.38370 -0.51900
O 	O 	0.16130 0.38370 0.29370 -0.51900
O 	O 	0.29370 0.16130 0.38370 -0.51900
O 	O 	0.38370 0.16130 0.29370 -0.51900
O 	O 	0.16130 0.38370 0.16130 -0.51900
O 	O 	0.16130 0.29370 0.16130 -0.51900
O 	O 	0.61630 0.70630 0.83870 -0.51900
O 	O 	0.70630 0.61630 0.83870 -0.51900
O 	O 	0.83870 0.83870 0.70630 -0.51900
O 	O 	0.83870 0.83870 0.61630 -0.51900
O 	O 	0.83870 0.70630 0.83870 -0.51900
O 	O 	0.83870 0.61630 0.83870 -0.51900
O 	O 	0.70630 0.83870 0.61630 -0.51900
O 	O 	0.61630 0.83870 0.70630 -0.51900
O 	O 	0.83870 0.70630 0.61630 -0.51900
O 	O 	0.83870 0.61630 0.70630 -0.51900
O 	O 	0.61630 0.83870 0.83870 -0.51900
O 	O 	0.70630 0.83870 0.83870 -0.51900
