data_crystal

_cell_length_a 17.14690
_cell_length_b 23.32220
_cell_length_c 25.25520
_cell_angle_alpha 90.00000
_cell_angle_beta  90.00000
_cell_angle_gamma 90.00000

_symmetry_space_group_name_	'P 1'
_symmetry_space_group_name_H-M	'P 1'

loop_
_symmetry_equiv_pos_as_xyz
  x,y,z

loop_
_atom_site_label
_atom_site_type_symbol
_atom_site_fract_x
_atom_site_fract_y
_atom_site_fract_z
_atom_site_charge
Zn	Zn	0.83571 0.84821 0.93722 1.21800
O 	O 	0.68710 0.28230 0.39390 -0.50800
O 	O 	0.78380 0.23650 0.43720 -0.51400
O 	O 	0.72580 0.96707 0.06071 -0.52200
O 	O 	0.80790 0.91330 0.10690 -0.52800
O 	O 	0.94370 0.84580 0.95490 -0.49500
C 	C 	0.74040 0.20090 0.35580 -0.15900
C 	C 	0.79660 0.16010 0.35480 0.06200
H 	H 	0.83280 0.15770 0.38310 0.02200
C 	C 	0.80190 0.12120 0.31210 -0.11400
H 	H 	0.84420 0.09490 0.31130 0.06500
C 	C 	0.74910 0.12000 0.27240 0.04200
C 	C 	0.69160 0.16170 0.27380 -0.11900
H 	H 	0.65140 0.16150 0.24790 0.06600
C 	C 	0.69230 0.20300 0.31190 0.06800
H 	H 	0.65800 0.23480 0.30820 0.02000
C 	C 	0.75590 0.07890 0.22820 0.06400
C 	C 	0.71360 0.08480 0.18580 -0.12900
H 	H 	0.67770 0.11570 0.18420 0.07000
C 	C 	0.71860 0.04700 0.14160 0.06300
H 	H 	0.69080 0.05540 0.11000 0.01900
C 	C 	0.76390 0.99820 0.14500 -0.16600
C 	C 	0.79870 0.98790 0.19210 0.07500
H 	H 	0.82510 0.95270 0.19790 0.01600
C 	C 	0.79580 0.02910 0.23220 -0.13000
H 	H 	0.82340 0.02170 0.26410 0.07000
C 	C 	0.73750 0.24200 0.39850 0.40400
C 	C 	0.76640 0.95690 0.10090 0.42900
C 	C 	0.10640 0.82310 0.96110 -0.16300
H 	H 	0.07900 0.80460 0.93320 0.09500
C 	C 	0.18280 0.82440 0.95920 0.14100
H 	H 	0.20960 0.80670 0.93050 -0.01400
C 	C 	0.10900 0.87160 0.95920 0.22900
H 	H 	0.08290 0.88820 0.92980 -0.03800
C 	C 	0.18500 0.87240 0.96130 -0.26700
H 	H 	0.21240 0.88900 0.93240 0.12400
Zn	Zn	0.66429 0.34821 0.56278 1.21400
O 	O 	0.81290 0.78230 0.10610 -0.50900
O 	O 	0.71620 0.73650 0.06280 -0.51900
O 	O 	0.77420 0.46707 0.43929 -0.51700
O 	O 	0.69210 0.41330 0.39310 -0.52600
O 	O 	0.55630 0.34580 0.54510 -0.52500
C 	C 	0.75960 0.70090 0.14420 -0.16200
C 	C 	0.70340 0.66010 0.14520 0.06300
H 	H 	0.66720 0.65770 0.11690 0.01800
C 	C 	0.69810 0.62120 0.18790 -0.11700
H 	H 	0.65580 0.59490 0.18870 0.06400
C 	C 	0.75090 0.62000 0.22760 0.04300
C 	C 	0.80840 0.66170 0.22620 -0.12100
H 	H 	0.84860 0.66150 0.25210 0.06700
C 	C 	0.80770 0.70300 0.18810 0.06900
H 	H 	0.84200 0.73480 0.19180 0.01900
C 	C 	0.74410 0.57890 0.27180 0.06200
C 	C 	0.78640 0.58480 0.31420 -0.12800
H 	H 	0.82230 0.61570 0.31580 0.07000
C 	C 	0.78140 0.54700 0.35840 0.06300
H 	H 	0.80920 0.55540 0.39000 0.02000
C 	C 	0.73610 0.49820 0.35500 -0.16500
C 	C 	0.70130 0.48790 0.30790 0.07400
H 	H 	0.67490 0.45270 0.30210 0.01600
C 	C 	0.70420 0.52910 0.26780 -0.12900
H 	H 	0.67660 0.52170 0.23590 0.06900
C 	C 	0.76250 0.74200 0.10150 0.40500
C 	C 	0.73360 0.45690 0.39910 0.42900
C 	C 	0.39360 0.32310 0.53890 0.01200
H 	H 	0.42100 0.30460 0.56680 0.03100
C 	C 	0.31720 0.32440 0.54080 -0.05800
H 	H 	0.29040 0.30670 0.56950 0.04500
C 	C 	0.39100 0.37160 0.54080 0.00800
H 	H 	0.41710 0.38820 0.57020 0.03100
C 	C 	0.31500 0.37240 0.53870 -0.06100
H 	H 	0.28760 0.38900 0.56760 0.05000
Zn	Zn	0.83571 0.84821 0.06278 1.21200
O 	O 	0.68710 0.28230 0.60610 -0.50600
O 	O 	0.78380 0.23650 0.56280 -0.51300
O 	O 	0.72580 0.96707 0.93929 -0.49700
O 	O 	0.80790 0.91330 0.89310 -0.51900
O 	O 	0.94370 0.84580 0.04510 -0.52100
C 	C 	0.74040 0.20090 0.64420 -0.16000
C 	C 	0.79660 0.16010 0.64520 0.06300
H 	H 	0.83280 0.15770 0.61690 0.02100
C 	C 	0.80190 0.12120 0.68790 -0.11600
H 	H 	0.84420 0.09490 0.68870 0.06600
C 	C 	0.74910 0.12000 0.72760 0.04600
C 	C 	0.69160 0.16170 0.72620 -0.12100
H 	H 	0.65140 0.16150 0.75210 0.06900
C 	C 	0.69230 0.20300 0.68810 0.07000
H 	H 	0.65800 0.23480 0.69180 0.02100
C 	C 	0.75590 0.07890 0.77180 0.06000
C 	C 	0.71360 0.08480 0.81420 -0.12300
H 	H 	0.67770 0.11570 0.81580 0.07200
C 	C 	0.71860 0.04700 0.85840 0.05800
H 	H 	0.69080 0.05540 0.89000 0.02800
C 	C 	0.76390 0.99820 0.85500 -0.15800
C 	C 	0.79870 0.98790 0.80790 0.07100
H 	H 	0.82510 0.95270 0.80210 0.01800
C 	C 	0.79580 0.02910 0.76780 -0.12600
H 	H 	0.82340 0.02170 0.73590 0.06900
C 	C 	0.73750 0.24200 0.60150 0.40500
C 	C 	0.76640 0.95690 0.89910 0.42500
C 	C 	0.10640 0.82310 0.03890 -0.16300
H 	H 	0.07900 0.80460 0.06680 0.08700
C 	C 	0.18280 0.82440 0.04080 0.10600
H 	H 	0.20960 0.80670 0.06950 -0.01200
C 	C 	0.10900 0.87160 0.04080 0.19300
H 	H 	0.08290 0.88820 0.07020 -0.03200
C 	C 	0.18500 0.87240 0.03870 -0.26800
H 	H 	0.21240 0.88900 0.06760 0.11700
Zn	Zn	0.66429 0.34821 0.43722 1.21400
O 	O 	0.81290 0.78230 0.89390 -0.50000
O 	O 	0.71620 0.73650 0.93720 -0.49500
O 	O 	0.77420 0.46707 0.56071 -0.51700
O 	O 	0.69210 0.41330 0.60690 -0.52500
O 	O 	0.55630 0.34580 0.45490 -0.52500
C 	C 	0.75960 0.70090 0.85580 -0.15300
C 	C 	0.70340 0.66010 0.85480 0.06000
H 	H 	0.66720 0.65770 0.88310 0.02800
C 	C 	0.69810 0.62120 0.81210 -0.11000
H 	H 	0.65580 0.59490 0.81130 0.06600
C 	C 	0.75090 0.62000 0.77240 0.04100
C 	C 	0.80840 0.66170 0.77380 -0.11600
H 	H 	0.84860 0.66150 0.74790 0.06600
C 	C 	0.80770 0.70300 0.81190 0.06600
H 	H 	0.84200 0.73480 0.80820 0.02200
C 	C 	0.74410 0.57890 0.72820 0.06600
C 	C 	0.78640 0.58480 0.68580 -0.13000
H 	H 	0.82230 0.61570 0.68420 0.07100
C 	C 	0.78140 0.54700 0.64160 0.06600
H 	H 	0.80920 0.55540 0.61000 0.02000
C 	C 	0.73610 0.49820 0.64500 -0.16600
C 	C 	0.70130 0.48790 0.69210 0.07700
H 	H 	0.67490 0.45270 0.69790 0.01700
C 	C 	0.70420 0.52910 0.73220 -0.13100
H 	H 	0.67660 0.52170 0.76410 0.07300
C 	C 	0.76250 0.74200 0.89850 0.40300
C 	C 	0.73360 0.45690 0.60090 0.42900
C 	C 	0.39360 0.32310 0.46110 0.01200
H 	H 	0.42100 0.30460 0.43320 0.03100
C 	C 	0.31720 0.32440 0.45920 -0.05800
H 	H 	0.29040 0.30670 0.43050 0.04500
C 	C 	0.39100 0.37160 0.45920 0.00800
H 	H 	0.41710 0.38820 0.42980 0.03100
C 	C 	0.31500 0.37240 0.46130 -0.06100
H 	H 	0.28760 0.38900 0.43240 0.05000
Zn	Zn	0.70808 0.91810 -0.00000 1.20700
Zn	Zn	0.70198 0.78202 -0.00000 1.21100
O 	O 	0.76950 0.84880 -0.00000 -0.97400
O 	O 	0.59550 0.90560 -0.00000 -0.49100
O 	O 	0.59590 0.80790 -0.00000 -0.51800
C 	C 	0.97360 0.84340 -0.00000 0.34800
C 	C 	0.06550 0.84660 -0.00000 -0.13100
C 	C 	0.22520 0.85220 -0.00000 0.06600
C 	C 	0.31180 0.85710 -0.00000 0.03600
C 	C 	0.35290 0.80870 -0.00000 -0.11800
H 	H 	0.32610 0.77300 -0.00000 0.05700
C 	C 	0.43690 0.80890 -0.00000 0.05300
H 	H 	0.46450 0.77350 -0.00000 0.02000
C 	C 	0.47620 0.85800 -0.00000 -0.15200
C 	C 	0.43230 0.90640 -0.00000 0.06400
H 	H 	0.45820 0.94240 -0.00000 0.02300
C 	C 	0.35170 0.90600 -0.00000 -0.12600
H 	H 	0.32420 0.94140 -0.00000 0.07400
C 	C 	0.56150 0.85650 -0.00000 0.38200
Zn	Zn	0.79192 0.41810 0.50000 1.21300
Zn	Zn	0.79802 0.28202 0.50000 1.21700
O 	O 	0.73050 0.34880 0.50000 -0.96000
O 	O 	0.90450 0.40560 0.50000 -0.48500
O 	O 	0.90410 0.30790 0.50000 -0.51100
C 	C 	0.52640 0.34340 0.50000 0.38400
C 	C 	0.43450 0.34660 0.50000 -0.10900
C 	C 	0.27480 0.35220 0.50000 0.03600
C 	C 	0.18820 0.35710 0.50000 0.06400
C 	C 	0.14710 0.30870 0.50000 -0.13100
H 	H 	0.17390 0.27300 0.50000 0.07100
C 	C 	0.06310 0.30890 0.50000 0.06600
H 	H 	0.03550 0.27350 0.50000 0.02000
C 	C 	0.02380 0.35800 0.50000 -0.15700
C 	C 	0.06770 0.40640 0.50000 0.07800
H 	H 	0.04180 0.44240 0.50000 0.02200
C 	C 	0.14830 0.40600 0.50000 -0.14000
H 	H 	0.17580 0.44140 0.50000 0.08400
C 	C 	0.93850 0.35650 0.50000 0.38600
Zn	Zn	0.16429 0.15179 0.93722 1.21900
O 	O 	0.31290 0.71770 0.39390 -0.50700
O 	O 	0.21620 0.76350 0.43720 -0.51300
O 	O 	0.27420 0.03293 0.06071 -0.52100
O 	O 	0.19210 0.08670 0.10690 -0.52700
O 	O 	0.05630 0.15420 0.95490 -0.49400
C 	C 	0.25960 0.79910 0.35580 -0.15900
C 	C 	0.20340 0.83990 0.35480 0.06200
H 	H 	0.16720 0.84230 0.38310 0.02200
C 	C 	0.19810 0.87880 0.31210 -0.11400
H 	H 	0.15580 0.90510 0.31130 0.06500
C 	C 	0.25090 0.88000 0.27240 0.04200
C 	C 	0.30840 0.83830 0.27380 -0.11900
H 	H 	0.34860 0.83850 0.24790 0.06600
C 	C 	0.30770 0.79700 0.31190 0.06800
H 	H 	0.34200 0.76520 0.30820 0.02000
C 	C 	0.24410 0.92110 0.22820 0.06400
C 	C 	0.28640 0.91520 0.18580 -0.12900
H 	H 	0.32230 0.88430 0.18420 0.07000
C 	C 	0.28140 0.95300 0.14160 0.06300
H 	H 	0.30920 0.94460 0.11000 0.01900
C 	C 	0.23610 0.00180 0.14500 -0.16600
C 	C 	0.20130 0.01210 0.19210 0.07500
H 	H 	0.17490 0.04730 0.19790 0.01600
C 	C 	0.20420 0.97090 0.23220 -0.13000
H 	H 	0.17660 0.97830 0.26410 0.07000
C 	C 	0.26250 0.75800 0.39850 0.40400
C 	C 	0.23360 0.04310 0.10090 0.42900
C 	C 	0.89360 0.17690 0.96110 -0.16300
H 	H 	0.92100 0.19540 0.93320 0.09500
C 	C 	0.81720 0.17560 0.95920 0.14100
H 	H 	0.79040 0.19330 0.93050 -0.01400
C 	C 	0.89100 0.12840 0.95920 0.22900
H 	H 	0.91710 0.11180 0.92980 -0.03800
C 	C 	0.81500 0.12760 0.96130 -0.26700
H 	H 	0.78760 0.11100 0.93240 0.12400
Zn	Zn	0.33571 0.65179 0.56278 1.21400
O 	O 	0.18710 0.21770 0.10610 -0.50900
O 	O 	0.28380 0.26350 0.06280 -0.51900
O 	O 	0.22580 0.53293 0.43929 -0.51700
O 	O 	0.30790 0.58670 0.39310 -0.52600
O 	O 	0.44370 0.65420 0.54510 -0.52500
C 	C 	0.24040 0.29910 0.14420 -0.16200
C 	C 	0.29660 0.33990 0.14520 0.06300
H 	H 	0.33280 0.34230 0.11690 0.01800
C 	C 	0.30190 0.37880 0.18790 -0.11700
H 	H 	0.34420 0.40510 0.18870 0.06400
C 	C 	0.24910 0.38000 0.22760 0.04300
C 	C 	0.19160 0.33830 0.22620 -0.12100
H 	H 	0.15140 0.33850 0.25210 0.06700
C 	C 	0.19230 0.29700 0.18810 0.06900
H 	H 	0.15800 0.26520 0.19180 0.01900
C 	C 	0.25590 0.42110 0.27180 0.06200
C 	C 	0.21360 0.41520 0.31420 -0.12800
H 	H 	0.17770 0.38430 0.31580 0.07000
C 	C 	0.21860 0.45300 0.35840 0.06300
H 	H 	0.19080 0.44460 0.39000 0.02000
C 	C 	0.26390 0.50180 0.35500 -0.16500
C 	C 	0.29870 0.51210 0.30790 0.07400
H 	H 	0.32510 0.54730 0.30210 0.01600
C 	C 	0.29580 0.47090 0.26780 -0.12900
H 	H 	0.32340 0.47830 0.23590 0.06900
C 	C 	0.23750 0.25800 0.10150 0.40500
C 	C 	0.26640 0.54310 0.39910 0.42900
C 	C 	0.60640 0.67690 0.53890 0.01200
H 	H 	0.57900 0.69540 0.56680 0.03100
C 	C 	0.68280 0.67560 0.54080 -0.05800
H 	H 	0.70960 0.69330 0.56950 0.04500
C 	C 	0.60900 0.62840 0.54080 0.00800
H 	H 	0.58290 0.61180 0.57020 0.03100
C 	C 	0.68500 0.62760 0.53870 -0.06100
H 	H 	0.71240 0.61100 0.56760 0.05000
Zn	Zn	0.16429 0.15179 0.06278 1.21200
O 	O 	0.31290 0.71770 0.60610 -0.50600
O 	O 	0.21620 0.76350 0.56280 -0.51300
O 	O 	0.27420 0.03293 0.93929 -0.49700
O 	O 	0.19210 0.08670 0.89310 -0.51900
O 	O 	0.05630 0.15420 0.04510 -0.52100
C 	C 	0.25960 0.79910 0.64420 -0.16000
C 	C 	0.20340 0.83990 0.64520 0.06300
H 	H 	0.16720 0.84230 0.61690 0.02100
C 	C 	0.19810 0.87880 0.68790 -0.11600
H 	H 	0.15580 0.90510 0.68870 0.06600
C 	C 	0.25090 0.88000 0.72760 0.04600
C 	C 	0.30840 0.83830 0.72620 -0.12100
H 	H 	0.34860 0.83850 0.75210 0.06900
C 	C 	0.30770 0.79700 0.68810 0.07000
H 	H 	0.34200 0.76520 0.69180 0.02100
C 	C 	0.24410 0.92110 0.77180 0.06000
C 	C 	0.28640 0.91520 0.81420 -0.12300
H 	H 	0.32230 0.88430 0.81580 0.07200
C 	C 	0.28140 0.95300 0.85840 0.05800
H 	H 	0.30920 0.94460 0.89000 0.02800
C 	C 	0.23610 0.00180 0.85500 -0.15800
C 	C 	0.20130 0.01210 0.80790 0.07100
H 	H 	0.17490 0.04730 0.80210 0.01800
C 	C 	0.20420 0.97090 0.76780 -0.12600
H 	H 	0.17660 0.97830 0.73590 0.06900
C 	C 	0.26250 0.75800 0.60150 0.40500
C 	C 	0.23360 0.04310 0.89910 0.42500
C 	C 	0.89360 0.17690 0.03890 -0.16300
H 	H 	0.92100 0.19540 0.06680 0.08700
C 	C 	0.81720 0.17560 0.04080 0.10600
H 	H 	0.79040 0.19330 0.06950 -0.01200
C 	C 	0.89100 0.12840 0.04080 0.19300
H 	H 	0.91710 0.11180 0.07020 -0.03200
C 	C 	0.81500 0.12760 0.03870 -0.26800
H 	H 	0.78760 0.11100 0.06760 0.11700
Zn	Zn	0.33571 0.65179 0.43722 1.21400
O 	O 	0.18710 0.21770 0.89390 -0.50000
O 	O 	0.28380 0.26350 0.93720 -0.49500
O 	O 	0.22580 0.53293 0.56071 -0.51700
O 	O 	0.30790 0.58670 0.60690 -0.52500
O 	O 	0.44370 0.65420 0.45490 -0.52500
C 	C 	0.24040 0.29910 0.85580 -0.15300
C 	C 	0.29660 0.33990 0.85480 0.06000
H 	H 	0.33280 0.34230 0.88310 0.02800
C 	C 	0.30190 0.37880 0.81210 -0.11000
H 	H 	0.34420 0.40510 0.81130 0.06600
C 	C 	0.24910 0.38000 0.77240 0.04100
C 	C 	0.19160 0.33830 0.77380 -0.11600
H 	H 	0.15140 0.33850 0.74790 0.06600
C 	C 	0.19230 0.29700 0.81190 0.06600
H 	H 	0.15800 0.26520 0.80820 0.02200
C 	C 	0.25590 0.42110 0.72820 0.06600
C 	C 	0.21360 0.41520 0.68580 -0.13000
H 	H 	0.17770 0.38430 0.68420 0.07100
C 	C 	0.21860 0.45300 0.64160 0.06600
H 	H 	0.19080 0.44460 0.61000 0.02000
C 	C 	0.26390 0.50180 0.64500 -0.16600
C 	C 	0.29870 0.51210 0.69210 0.07700
H 	H 	0.32510 0.54730 0.69790 0.01700
C 	C 	0.29580 0.47090 0.73220 -0.13100
H 	H 	0.32340 0.47830 0.76410 0.07300
C 	C 	0.23750 0.25800 0.89850 0.40300
C 	C 	0.26640 0.54310 0.60090 0.42900
C 	C 	0.60640 0.67690 0.46110 0.01200
H 	H 	0.57900 0.69540 0.43320 0.03100
C 	C 	0.68280 0.67560 0.45920 -0.05800
H 	H 	0.70960 0.69330 0.43050 0.04500
C 	C 	0.60900 0.62840 0.45920 0.00800
H 	H 	0.58290 0.61180 0.42980 0.03100
C 	C 	0.68500 0.62760 0.46130 -0.06100
H 	H 	0.71240 0.61100 0.43240 0.05000
Zn	Zn	0.29192 0.08190 -0.00000 1.20700
Zn	Zn	0.29802 0.21798 -0.00000 1.21100
O 	O 	0.23050 0.15120 -0.00000 -0.97400
O 	O 	0.40450 0.09440 -0.00000 -0.49100
O 	O 	0.40410 0.19210 -0.00000 -0.51800
C 	C 	0.02640 0.15660 -0.00000 0.34800
C 	C 	0.93450 0.15340 -0.00000 -0.13100
C 	C 	0.77480 0.14780 -0.00000 0.06600
C 	C 	0.68820 0.14290 -0.00000 0.03600
C 	C 	0.64710 0.19130 -0.00000 -0.11800
H 	H 	0.67390 0.22700 -0.00000 0.05700
C 	C 	0.56310 0.19110 -0.00000 0.05300
H 	H 	0.53550 0.22650 -0.00000 0.02000
C 	C 	0.52380 0.14200 -0.00000 -0.15200
C 	C 	0.56770 0.09360 -0.00000 0.06400
H 	H 	0.54180 0.05760 -0.00000 0.02300
C 	C 	0.64830 0.09400 -0.00000 -0.12600
H 	H 	0.67580 0.05860 -0.00000 0.07400
C 	C 	0.43850 0.14350 -0.00000 0.38200
Zn	Zn	0.20808 0.58190 0.50000 1.21300
Zn	Zn	0.20198 0.71798 0.50000 1.21700
O 	O 	0.26950 0.65120 0.50000 -0.96000
O 	O 	0.09550 0.59440 0.50000 -0.48500
O 	O 	0.09590 0.69210 0.50000 -0.51100
C 	C 	0.47360 0.65660 0.50000 0.38400
C 	C 	0.56550 0.65340 0.50000 -0.10900
C 	C 	0.72520 0.64780 0.50000 0.03600
C 	C 	0.81180 0.64290 0.50000 0.06400
C 	C 	0.85290 0.69130 0.50000 -0.13100
H 	H 	0.82610 0.72700 0.50000 0.07100
C 	C 	0.93690 0.69110 0.50000 0.06600
H 	H 	0.96450 0.72650 0.50000 0.02000
C 	C 	0.97620 0.64200 0.50000 -0.15700
C 	C 	0.93230 0.59360 0.50000 0.07800
H 	H 	0.95820 0.55760 0.50000 0.02200
C 	C 	0.85170 0.59400 0.50000 -0.14000
H 	H 	0.82420 0.55860 0.50000 0.08400
C 	C 	0.06150 0.64350 0.50000 0.38600
