data_crystal

_cell_length_a 21.49030
_cell_length_b 21.49030
_cell_length_c 21.49030
_cell_angle_alpha 90.00000
_cell_angle_beta  90.00000
_cell_angle_gamma 90.00000

_symmetry_space_group_name_	'P 1'
_symmetry_space_group_name_H-M	'P 1'

loop_
_symmetry_equiv_pos_as_xyz
  x,y,z

loop_
_atom_site_label
_atom_site_type_symbol
_atom_site_fract_x
_atom_site_fract_y
_atom_site_fract_z
_atom_site_charge
Zn	Zn	0.44795 0.44795 0.44795 1.15100
Zn	Zn	0.55205 0.55205 0.44795 1.15100
Zn	Zn	0.55205 0.44795 0.55205 1.15100
Zn	Zn	0.44795 0.55205 0.55205 1.15100
Zn	Zn	0.44795 0.44795 0.55205 1.15100
Zn	Zn	0.55205 0.55205 0.55205 1.15100
Zn	Zn	0.44795 0.55205 0.44795 1.15100
Zn	Zn	0.55205 0.44795 0.44795 1.15100
O 	O 	0.50000 0.50000 0.50000 -1.52400
O 	O 	0.46580 0.46580 0.36200 -0.61400
C 	C 	0.46012 0.46012 0.23490 0.18900
C 	C 	0.46021 0.46021 0.16990 -0.08900
O 	O 	0.53420 0.53420 0.36200 -0.61400
C 	C 	0.53988 0.53988 0.23490 0.19000
C 	C 	0.53979 0.53979 0.16990 -0.08800
O 	O 	0.53420 0.46580 0.63800 -0.61300
C 	C 	0.53988 0.46012 0.76510 0.19000
C 	C 	0.53979 0.46021 0.83010 -0.08800
O 	O 	0.46580 0.53420 0.63800 -0.61300
C 	C 	0.46012 0.53988 0.76510 0.19000
C 	C 	0.46021 0.53979 0.83010 -0.08800
O 	O 	0.36200 0.46580 0.46580 -0.61300
C 	C 	0.23490 0.46012 0.46012 0.19000
C 	C 	0.16990 0.46021 0.46021 -0.08800
O 	O 	0.36200 0.53420 0.53420 -0.61300
C 	C 	0.23490 0.53988 0.53988 0.19000
C 	C 	0.16990 0.53979 0.53979 -0.08800
O 	O 	0.63800 0.53420 0.46580 -0.61300
C 	C 	0.76510 0.53988 0.46012 0.19000
C 	C 	0.83010 0.53979 0.46021 -0.08800
O 	O 	0.63800 0.46580 0.53420 -0.61300
C 	C 	0.76510 0.46012 0.53988 0.19000
C 	C 	0.83010 0.46021 0.53979 -0.08800
O 	O 	0.46580 0.36200 0.46580 -0.61300
C 	C 	0.46012 0.23490 0.46012 0.19000
C 	C 	0.46021 0.16990 0.46021 -0.08800
O 	O 	0.53420 0.36200 0.53420 -0.61300
C 	C 	0.53988 0.23490 0.53988 0.19000
C 	C 	0.53979 0.16990 0.53979 -0.08800
O 	O 	0.46580 0.63800 0.53420 -0.61300
C 	C 	0.46012 0.76510 0.53988 0.19000
C 	C 	0.46021 0.83010 0.53979 -0.08800
O 	O 	0.53420 0.63800 0.46580 -0.61300
C 	C 	0.53988 0.76510 0.46012 0.19000
C 	C 	0.53979 0.83010 0.46021 -0.08800
O 	O 	0.46580 0.46580 0.63800 -0.61300
C 	C 	0.46012 0.46012 0.76510 0.19000
C 	C 	0.46021 0.46021 0.83010 -0.08800
O 	O 	0.53420 0.53420 0.63800 -0.61300
C 	C 	0.53988 0.53988 0.76510 0.19000
C 	C 	0.53979 0.53979 0.83010 -0.08800
O 	O 	0.46580 0.53420 0.36200 -0.61300
C 	C 	0.46012 0.53988 0.23490 0.19000
C 	C 	0.46021 0.53979 0.16990 -0.08800
O 	O 	0.53420 0.46580 0.36200 -0.61300
C 	C 	0.53988 0.46012 0.23490 0.19000
C 	C 	0.53979 0.46021 0.16990 -0.08800
O 	O 	0.46580 0.36200 0.53420 -0.61300
C 	C 	0.46012 0.23490 0.53988 0.19000
C 	C 	0.46021 0.16990 0.53979 -0.08800
O 	O 	0.53420 0.36200 0.46580 -0.61300
C 	C 	0.53988 0.23490 0.46012 0.19000
C 	C 	0.53979 0.16990 0.46021 -0.08800
O 	O 	0.53420 0.63800 0.53420 -0.61300
C 	C 	0.53988 0.76510 0.53988 0.19000
C 	C 	0.53979 0.83010 0.53979 -0.08800
O 	O 	0.46580 0.63800 0.46580 -0.61300
C 	C 	0.46012 0.76510 0.46012 0.19000
C 	C 	0.46021 0.83010 0.46021 -0.08800
O 	O 	0.36200 0.46580 0.53420 -0.61300
C 	C 	0.23490 0.46012 0.53988 0.19000
C 	C 	0.16990 0.46021 0.53979 -0.08800
O 	O 	0.36200 0.53420 0.46580 -0.61300
C 	C 	0.23490 0.53988 0.46012 0.19000
C 	C 	0.16990 0.53979 0.46021 -0.08800
O 	O 	0.63800 0.46580 0.46580 -0.61300
C 	C 	0.76510 0.46012 0.46012 0.19000
C 	C 	0.83010 0.46021 0.46021 -0.08800
O 	O 	0.63800 0.53420 0.53420 -0.61300
C 	C 	0.76510 0.53988 0.53988 0.19000
C 	C 	0.83010 0.53979 0.53979 -0.08800
C 	C 	0.50000 0.50000 0.33090 1.35300
C 	C 	0.50000 0.50000 0.26670 -0.70500
C 	C 	0.50000 0.50000 0.13690 0.12700
C 	C 	0.50000 0.50000 0.06590 -0.03900
C 	C 	0.50000 0.50000 0.66910 1.35300
C 	C 	0.50000 0.50000 0.73330 -0.70500
C 	C 	0.50000 0.50000 0.86310 0.12700
C 	C 	0.50000 0.50000 0.93410 -0.03900
C 	C 	0.33090 0.50000 0.50000 1.35300
C 	C 	0.26670 0.50000 0.50000 -0.70500
C 	C 	0.13690 0.50000 0.50000 0.12700
C 	C 	0.06590 0.50000 0.50000 -0.03900
C 	C 	0.66910 0.50000 0.50000 1.35300
C 	C 	0.73330 0.50000 0.50000 -0.70500
C 	C 	0.86310 0.50000 0.50000 0.12700
C 	C 	0.93410 0.50000 0.50000 -0.03900
C 	C 	0.50000 0.33090 0.50000 1.35300
C 	C 	0.50000 0.26670 0.50000 -0.70500
C 	C 	0.50000 0.13690 0.50000 0.12700
C 	C 	0.50000 0.06590 0.50000 -0.03900
C 	C 	0.50000 0.66910 0.50000 1.35300
C 	C 	0.50000 0.73330 0.50000 -0.70500
C 	C 	0.50000 0.86310 0.50000 0.12700
C 	C 	0.50000 0.93410 0.50000 -0.03900
C 	C 	0.44360 0.50000 0.03270 0.00700
C 	C 	0.55640 0.50000 0.03270 0.00700
C 	C 	0.55640 0.50000 0.96730 0.00700
C 	C 	0.44360 0.50000 0.96730 0.00700
C 	C 	0.03270 0.44360 0.50000 0.00700
C 	C 	0.03270 0.55640 0.50000 0.00700
C 	C 	0.96730 0.55640 0.50000 0.00700
C 	C 	0.96730 0.44360 0.50000 0.00700
C 	C 	0.50000 0.03270 0.44360 0.00700
C 	C 	0.50000 0.03270 0.55640 0.00700
C 	C 	0.50000 0.96730 0.55640 0.00700
C 	C 	0.50000 0.96730 0.44360 0.00700
C 	C 	0.50000 0.44360 0.96730 0.00700
C 	C 	0.50000 0.55640 0.96730 0.00700
C 	C 	0.50000 0.55640 0.03270 0.00700
C 	C 	0.50000 0.44360 0.03270 0.00700
C 	C 	0.44360 0.03270 0.50000 0.00700
C 	C 	0.55640 0.03270 0.50000 0.00700
C 	C 	0.55640 0.96730 0.50000 0.00700
C 	C 	0.44360 0.96730 0.50000 0.00700
C 	C 	0.03270 0.50000 0.55640 0.00700
C 	C 	0.03270 0.50000 0.44360 0.00700
C 	C 	0.96730 0.50000 0.44360 0.00700
C 	C 	0.96730 0.50000 0.55640 0.00700
