data_crystal

_cell_length_a 18.03500
_cell_length_b 10.51300
_cell_length_c 14.29300
_cell_angle_alpha 90.00000
_cell_angle_beta  90.00000
_cell_angle_gamma 90.00000

_symmetry_space_group_name_	'P 1'
_symmetry_space_group_name_H-M	'P 1'

loop_
_symmetry_equiv_pos_as_xyz
  x,y,z

loop_
_atom_site_label
_atom_site_type_symbol
_atom_site_fract_x
_atom_site_fract_y
_atom_site_fract_z
_atom_site_charge
Ga	Ga	0.70280 0.80790 0.64850 2.08700
Ga	Ga	0.81500 0.62450 0.87470 2.08400
Ga	Ga	0.89070 0.85360 0.55750 2.08500
P 	P 	0.57510 0.64240 0.54440 0.71700
P 	P 	0.70420 0.83950 0.87470 0.67200
P 	P 	0.83070 0.61340 0.65980 0.66500
O 	O 	0.75040 0.64240 0.63600 -0.61200
O 	O 	0.84750 0.66240 0.75790 -0.67200
O 	O 	0.79150 0.88810 0.61060 -0.77300
O 	O 	0.63280 0.83920 0.93000 -0.53300
O 	O 	0.60260 0.61930 0.44470 -0.69200
O 	O 	0.61830 0.75130 0.58840 -0.60500
O 	O 	0.88440 0.68540 0.59470 -0.58000
O 	O 	0.76140 0.75620 0.92390 -0.61800
O 	O 	0.68840 0.78620 0.77820 -0.63100
O 	O 	0.73610 0.97430 0.87160 -0.64300
O 	O 	0.58590 0.51860 0.59910 -0.61200
O 	O 	0.49430 0.68130 0.53790 -0.54000
O 	O 	0.84440 0.47190 0.65110 -0.54700
Ga	Ga	0.70280 0.30790 0.14850 2.08100
Ga	Ga	0.81500 0.12450 0.37470 2.08000
Ga	Ga	0.89070 0.35360 0.05750 2.06500
P 	P 	0.57510 0.14240 0.04440 0.58100
P 	P 	0.70420 0.33950 0.37470 0.67500
P 	P 	0.83070 0.11340 0.15980 0.66200
O 	O 	0.75040 0.14240 0.13600 -0.64600
O 	O 	0.84750 0.16240 0.25790 -0.67900
O 	O 	0.79150 0.38810 0.11060 -0.82400
O 	O 	0.63280 0.33920 0.43000 -0.62600
O 	O 	0.60260 0.11930 0.94470 -0.54900
O 	O 	0.61830 0.25130 0.08840 -0.63300
O 	O 	0.88440 0.18540 0.09470 -0.63000
O 	O 	0.76140 0.25620 0.42390 -0.69100
O 	O 	0.68840 0.28620 0.27820 -0.63900
O 	O 	0.73610 0.47430 0.37160 -0.67900
O 	O 	0.58590 0.01860 0.09910 -0.62800
O 	O 	0.49430 0.18130 0.03790 -0.59200
O 	O 	0.84440 0.97190 0.15110 -0.57200
Ga	Ga	0.29720 0.19210 0.64850 2.08600
Ga	Ga	0.18500 0.37550 0.87470 2.08300
Ga	Ga	0.10930 0.14640 0.55750 2.08400
P 	P 	0.42490 0.35760 0.54440 0.71600
P 	P 	0.29580 0.16050 0.87470 0.67100
P 	P 	0.16930 0.38660 0.65980 0.66400
O 	O 	0.24960 0.35760 0.63600 -0.61200
O 	O 	0.15250 0.33760 0.75790 -0.67200
O 	O 	0.20850 0.11190 0.61060 -0.77300
O 	O 	0.36720 0.16080 0.93000 -0.53300
O 	O 	0.39740 0.38070 0.44470 -0.69200
O 	O 	0.38170 0.24870 0.58840 -0.60500
O 	O 	0.11560 0.31460 0.59470 -0.58000
O 	O 	0.23860 0.24380 0.92390 -0.61800
O 	O 	0.31160 0.21380 0.77820 -0.63100
O 	O 	0.26390 0.02570 0.87160 -0.64300
O 	O 	0.41410 0.48140 0.59910 -0.61200
O 	O 	0.50570 0.31870 0.53790 -0.54000
O 	O 	0.15560 0.52810 0.65110 -0.54700
Ga	Ga	0.29720 0.69210 0.14850 2.08100
Ga	Ga	0.18500 0.87550 0.37470 2.08000
Ga	Ga	0.10930 0.64640 0.05750 2.06500
P 	P 	0.42490 0.85760 0.04440 0.58100
P 	P 	0.29580 0.66050 0.37470 0.67500
P 	P 	0.16930 0.88660 0.15980 0.66200
O 	O 	0.24960 0.85760 0.13600 -0.64600
O 	O 	0.15250 0.83760 0.25790 -0.67900
O 	O 	0.20850 0.61190 0.11060 -0.82400
O 	O 	0.36720 0.66080 0.43000 -0.62600
O 	O 	0.39740 0.88070 0.94470 -0.54900
O 	O 	0.38170 0.74870 0.08840 -0.63300
O 	O 	0.11560 0.81460 0.09470 -0.63000
O 	O 	0.23860 0.74380 0.42390 -0.69100
O 	O 	0.31160 0.71380 0.27820 -0.63900
O 	O 	0.26390 0.52570 0.37160 -0.67900
O 	O 	0.41410 0.98140 0.09910 -0.62800
O 	O 	0.50570 0.81870 0.03790 -0.59200
O 	O 	0.15560 0.02810 0.15110 -0.57200
Ga	Ga	0.20280 0.69210 0.64850 2.08500
Ga	Ga	0.31500 0.87550 0.87470 2.08200
Ga	Ga	0.39070 0.64640 0.55750 2.08400
P 	P 	0.07510 0.85760 0.54440 0.71500
P 	P 	0.20420 0.66050 0.87470 0.67100
P 	P 	0.33070 0.88660 0.65980 0.66300
O 	O 	0.25040 0.85760 0.63600 -0.61300
O 	O 	0.34750 0.83760 0.75790 -0.67200
O 	O 	0.29150 0.61190 0.61060 -0.77300
O 	O 	0.13280 0.66080 0.93000 -0.53300
O 	O 	0.10260 0.88070 0.44470 -0.69300
O 	O 	0.11830 0.74870 0.58840 -0.60600
O 	O 	0.38440 0.81460 0.59470 -0.58000
O 	O 	0.26140 0.74380 0.92390 -0.61800
O 	O 	0.18840 0.71380 0.77820 -0.63200
O 	O 	0.23610 0.52570 0.87160 -0.64200
O 	O 	0.08590 0.98140 0.59910 -0.61400
O 	O 	0.99430 0.81870 0.53790 -0.54000
O 	O 	0.34440 0.02810 0.65110 -0.54700
Ga	Ga	0.20280 0.19210 0.14850 2.08100
Ga	Ga	0.31500 0.37550 0.37470 2.08000
Ga	Ga	0.39070 0.14640 0.05750 2.06500
P 	P 	0.07510 0.35760 0.04440 0.58200
P 	P 	0.20420 0.16050 0.37470 0.67500
P 	P 	0.33070 0.38660 0.15980 0.66300
O 	O 	0.25040 0.35760 0.13600 -0.64600
O 	O 	0.34750 0.33760 0.25790 -0.67900
O 	O 	0.29150 0.11190 0.11060 -0.82300
O 	O 	0.13280 0.16080 0.43000 -0.62600
O 	O 	0.10260 0.38070 0.94470 -0.54900
O 	O 	0.11830 0.24870 0.08840 -0.63300
O 	O 	0.38440 0.31460 0.09470 -0.63000
O 	O 	0.26140 0.24380 0.42390 -0.69100
O 	O 	0.18840 0.21380 0.27820 -0.63900
O 	O 	0.23610 0.02570 0.37160 -0.67800
O 	O 	0.08590 0.48140 0.09910 -0.62900
O 	O 	0.99430 0.31870 0.03790 -0.59200
O 	O 	0.34440 0.52810 0.15110 -0.57300
Ga	Ga	0.79720 0.30790 0.64850 2.08500
Ga	Ga	0.68500 0.12450 0.87470 2.08200
Ga	Ga	0.60930 0.35360 0.55750 2.08400
P 	P 	0.92490 0.14240 0.54440 0.71500
P 	P 	0.79580 0.33950 0.87470 0.67100
P 	P 	0.66930 0.11340 0.65980 0.66300
O 	O 	0.74960 0.14240 0.63600 -0.61300
O 	O 	0.65250 0.16240 0.75790 -0.67200
O 	O 	0.70850 0.38810 0.61060 -0.77300
O 	O 	0.86720 0.33920 0.93000 -0.53300
O 	O 	0.89740 0.11930 0.44470 -0.69300
O 	O 	0.88170 0.25130 0.58840 -0.60600
O 	O 	0.61560 0.18540 0.59470 -0.58000
O 	O 	0.73860 0.25620 0.92390 -0.61800
O 	O 	0.81160 0.28620 0.77820 -0.63200
O 	O 	0.76390 0.47430 0.87160 -0.64200
O 	O 	0.91410 0.01860 0.59910 -0.61400
O 	O 	0.00570 0.18130 0.53790 -0.54000
O 	O 	0.65560 0.97190 0.65110 -0.54700
Ga	Ga	0.79720 0.80790 0.14850 2.08100
Ga	Ga	0.68500 0.62450 0.37470 2.08000
Ga	Ga	0.60930 0.85360 0.05750 2.06500
P 	P 	0.92490 0.64240 0.04440 0.58200
P 	P 	0.79580 0.83950 0.37470 0.67500
P 	P 	0.66930 0.61340 0.15980 0.66300
O 	O 	0.74960 0.64240 0.13600 -0.64600
O 	O 	0.65250 0.66240 0.25790 -0.67900
O 	O 	0.70850 0.88810 0.11060 -0.82300
O 	O 	0.86720 0.83920 0.43000 -0.62600
O 	O 	0.89740 0.61930 0.94470 -0.54900
O 	O 	0.88170 0.75130 0.08840 -0.63300
O 	O 	0.61560 0.68540 0.09470 -0.63000
O 	O 	0.73860 0.75620 0.42390 -0.69100
O 	O 	0.81160 0.78620 0.27820 -0.63900
O 	O 	0.76390 0.97430 0.37160 -0.67800
O 	O 	0.91410 0.51860 0.09910 -0.62900
O 	O 	0.00570 0.68130 0.03790 -0.59200
O 	O 	0.65560 0.47190 0.15110 -0.57300
