data_crystal

_cell_length_a 13.05600
_cell_length_b 13.05600
_cell_length_c 9.48500
_cell_angle_alpha 90.00000
_cell_angle_beta  90.00000
_cell_angle_gamma 120.00000

_symmetry_space_group_name_	'P 1'
_symmetry_space_group_name_H-M	'P 1'

loop_
_symmetry_equiv_pos_as_xyz
  x,y,z

loop_
_atom_site_label
_atom_site_type_symbol
_atom_site_fract_x
_atom_site_fract_y
_atom_site_fract_z
_atom_site_charge
H 	H 	0.87320 0.42740 0.17640 0.36300
P 	P 	0.55655 0.88758 0.08991 0.69800
O 	O 	0.61770 0.99210 0.99220 -0.58800
O 	O 	0.58530 0.79330 0.04030 -0.55600
O 	O 	0.42080 0.83120 0.08310 -0.70200
O 	O 	0.59910 0.92680 0.23920 -0.59500
Be	Be	0.66340 0.10830 0.90070 1.48000
H 	H 	0.57260 0.44580 0.17640 0.36100
P 	P 	0.11242 0.66897 0.08991 0.69500
O 	O 	0.00790 0.62560 0.99220 -0.58500
O 	O 	0.20670 0.79200 0.04030 -0.55800
O 	O 	0.16880 0.58960 0.08310 -0.70200
O 	O 	0.07320 0.67230 0.23920 -0.59600
Be	Be	0.89170 0.55510 0.90070 1.48000
H 	H 	0.55420 0.12680 0.17640 0.36200
P 	P 	0.33103 0.44345 0.08991 0.70100
O 	O 	0.37440 0.38230 0.99220 -0.59300
O 	O 	0.20800 0.41470 0.04030 -0.55700
O 	O 	0.41040 0.57920 0.08310 -0.70100
O 	O 	0.32770 0.40090 0.23920 -0.59500
Be	Be	0.44490 0.33660 0.90070 1.48000
H 	H 	0.57260 0.12680 0.32360 0.36100
P 	P 	0.11242 0.44345 0.41009 0.70100
O 	O 	0.00790 0.38230 0.50780 -0.59300
O 	O 	0.20670 0.41470 0.45970 -0.55500
O 	O 	0.16880 0.57920 0.41690 -0.70100
O 	O 	0.07320 0.40090 0.26080 -0.59600
Be	Be	0.89170 0.33660 0.59930 1.48000
H 	H 	0.55420 0.42740 0.32360 0.36000
P 	P 	0.33103 0.88758 0.41009 0.70100
O 	O 	0.37440 0.99210 0.50780 -0.59300
O 	O 	0.20800 0.79330 0.45970 -0.55500
O 	O 	0.41040 0.83120 0.41690 -0.70100
O 	O 	0.32770 0.92680 0.26080 -0.59700
Be	Be	0.44490 0.10830 0.59930 1.48000
H 	H 	0.87320 0.44580 0.32360 0.36100
P 	P 	0.55655 0.66897 0.41009 0.70100
O 	O 	0.61770 0.62560 0.50780 -0.59300
O 	O 	0.58530 0.79200 0.45970 -0.55500
O 	O 	0.42080 0.58960 0.41690 -0.70100
O 	O 	0.59910 0.67230 0.26080 -0.59500
Be	Be	0.66340 0.55510 0.59930 1.48000
H 	H 	0.12680 0.57260 0.82360 0.36200
P 	P 	0.44345 0.11242 0.91009 0.69700
O 	O 	0.38230 0.00790 0.00780 -0.58800
O 	O 	0.41470 0.20670 0.95970 -0.55600
O 	O 	0.57920 0.16880 0.91690 -0.70200
O 	O 	0.40090 0.07320 0.76080 -0.59500
Be	Be	0.33660 0.89170 0.09930 1.48000
H 	H 	0.42740 0.55420 0.82360 0.36100
P 	P 	0.88758 0.33103 0.91009 0.69500
O 	O 	0.99210 0.37440 0.00780 -0.58500
O 	O 	0.79330 0.20800 0.95970 -0.55800
O 	O 	0.83120 0.41040 0.91690 -0.70200
O 	O 	0.92680 0.32770 0.76080 -0.59600
Be	Be	0.10830 0.44490 0.09930 1.48000
H 	H 	0.44580 0.87320 0.82360 0.36200
P 	P 	0.66897 0.55655 0.91009 0.70100
O 	O 	0.62560 0.61770 0.00780 -0.59300
O 	O 	0.79200 0.58530 0.95970 -0.55700
O 	O 	0.58960 0.42080 0.91690 -0.70100
O 	O 	0.67230 0.59910 0.76080 -0.59500
Be	Be	0.55510 0.66340 0.09930 1.48000
H 	H 	0.42740 0.87320 0.67640 0.36100
P 	P 	0.88758 0.55655 0.58991 0.70100
O 	O 	0.99210 0.61770 0.49220 -0.59300
O 	O 	0.79330 0.58530 0.54030 -0.55500
O 	O 	0.83120 0.42080 0.58310 -0.70100
O 	O 	0.92680 0.59910 0.73920 -0.59600
Be	Be	0.10830 0.66340 0.40070 1.48000
H 	H 	0.44580 0.57260 0.67640 0.36000
P 	P 	0.66897 0.11242 0.58991 0.70100
O 	O 	0.62560 0.00790 0.49220 -0.59300
O 	O 	0.79200 0.20670 0.54030 -0.55500
O 	O 	0.58960 0.16880 0.58310 -0.70100
O 	O 	0.67230 0.07320 0.73920 -0.59700
Be	Be	0.55510 0.89170 0.40070 1.48000
H 	H 	0.12680 0.55420 0.67640 0.36100
P 	P 	0.44345 0.33103 0.58991 0.70100
O 	O 	0.38230 0.37440 0.49220 -0.59300
O 	O 	0.41470 0.20800 0.54030 -0.55500
O 	O 	0.57920 0.41040 0.58310 -0.70100
O 	O 	0.40090 0.32770 0.73920 -0.59500
Be	Be	0.33660 0.44490 0.40070 1.48000
Na	Na	0.33333 0.66667 0.25000 0.57100
Na	Na	0.66667 0.33333 0.75000 0.57100
Na	Na	0.66667 0.33333 0.08110 0.59600
Na	Na	0.66667 0.33333 0.41890 0.59500
Na	Na	0.33333 0.66667 0.91890 0.59600
Na	Na	0.33333 0.66667 0.58110 0.59500
O 	O 	0.83500 0.41750 0.25000 -0.78100
O 	O 	0.58250 0.41750 0.25000 -0.78100
O 	O 	0.58250 0.16500 0.25000 -0.78100
O 	O 	0.16500 0.58250 0.75000 -0.78100
O 	O 	0.41750 0.58250 0.75000 -0.78100
O 	O 	0.41750 0.83500 0.75000 -0.78100
