data_crystal

_cell_length_a 16.95400
_cell_length_b 16.95400
_cell_length_c 16.95400
_cell_angle_alpha 90.00000
_cell_angle_beta  90.00000
_cell_angle_gamma 90.00000

_symmetry_space_group_name_	'P 1'
_symmetry_space_group_name_H-M	'P 1'

loop_
_symmetry_equiv_pos_as_xyz
  x,y,z

loop_
_atom_site_label
_atom_site_type_symbol
_atom_site_fract_x
_atom_site_fract_y
_atom_site_fract_z
_atom_site_charge
Mn	Mn	0.89300 0.10700 0.60700 1.15600
Mn	Mn	0.60700 0.89300 0.10700 1.15600
Mn	Mn	0.10700 0.60700 0.89300 1.15600
Mn	Mn	0.39300 0.39300 0.39300 1.15600
Mn	Mn	0.10700 0.89300 0.39300 1.15500
Mn	Mn	0.39300 0.10700 0.89300 1.15500
Mn	Mn	0.89300 0.39300 0.10700 1.15500
Mn	Mn	0.60700 0.60700 0.60700 1.15500
Re	Re	0.97026 0.40497 0.54334 0.33700
Re	Re	0.52974 0.59503 0.04334 0.33600
Re	Re	0.02974 0.90497 0.95666 0.33600
Re	Re	0.47026 0.09503 0.45666 0.33700
Re	Re	0.54334 0.97026 0.40497 0.33700
Re	Re	0.04334 0.52974 0.59503 0.33600
Re	Re	0.95666 0.02974 0.90497 0.33600
Re	Re	0.45666 0.47026 0.09503 0.33700
Re	Re	0.40497 0.54334 0.97026 0.33700
Re	Re	0.59503 0.04334 0.52974 0.33600
Re	Re	0.90497 0.95666 0.02974 0.33600
Re	Re	0.09503 0.45666 0.47026 0.33700
Re	Re	0.02974 0.59503 0.45666 0.33700
Re	Re	0.47026 0.40497 0.95666 0.33600
Re	Re	0.97026 0.09503 0.04334 0.33600
Re	Re	0.52974 0.90497 0.54334 0.33700
Re	Re	0.45666 0.02974 0.59503 0.33700
Re	Re	0.95666 0.47026 0.40497 0.33600
Re	Re	0.04334 0.97026 0.09503 0.33600
Re	Re	0.54334 0.52974 0.90497 0.33700
Re	Re	0.59503 0.45666 0.02974 0.33700
Re	Re	0.40497 0.95666 0.47026 0.33600
Re	Re	0.09503 0.04334 0.97026 0.33600
Re	Re	0.90497 0.54334 0.52974 0.33700
C 	C 	0.93300 0.29200 0.59100 -0.03900
C 	C 	0.56700 0.70800 0.09100 -0.04000
C 	C 	0.06700 0.79200 0.90900 -0.04000
C 	C 	0.43300 0.20800 0.40900 -0.03900
C 	C 	0.59100 0.93300 0.29200 -0.03900
C 	C 	0.09100 0.56700 0.70800 -0.04000
C 	C 	0.90900 0.06700 0.79200 -0.04000
C 	C 	0.40900 0.43300 0.20800 -0.03900
C 	C 	0.29200 0.59100 0.93300 -0.03900
C 	C 	0.70800 0.09100 0.56700 -0.04000
C 	C 	0.79200 0.90900 0.06700 -0.04000
C 	C 	0.20800 0.40900 0.43300 -0.03900
C 	C 	0.06700 0.70800 0.40900 -0.03900
C 	C 	0.43300 0.29200 0.90900 -0.04000
C 	C 	0.93300 0.20800 0.09100 -0.04000
C 	C 	0.56700 0.79200 0.59100 -0.03900
C 	C 	0.40900 0.06700 0.70800 -0.03900
C 	C 	0.90900 0.43300 0.29200 -0.04000
C 	C 	0.09100 0.93300 0.20800 -0.04000
C 	C 	0.59100 0.56700 0.79200 -0.03900
C 	C 	0.70800 0.40900 0.06700 -0.03900
C 	C 	0.29200 0.90900 0.43300 -0.04000
C 	C 	0.20800 0.09100 0.93300 -0.04000
C 	C 	0.79200 0.59100 0.56700 -0.03900
S 	S 	0.92490 0.47930 0.65550 -0.30000
S 	S 	0.57510 0.52070 0.15550 -0.30100
S 	S 	0.07510 0.97930 0.84450 -0.30100
S 	S 	0.42490 0.02070 0.34450 -0.29900
S 	S 	0.65550 0.92490 0.47930 -0.30000
S 	S 	0.15550 0.57510 0.52070 -0.30100
S 	S 	0.84450 0.07510 0.97930 -0.30100
S 	S 	0.34450 0.42490 0.02070 -0.29900
S 	S 	0.47930 0.65550 0.92490 -0.30000
S 	S 	0.52070 0.15550 0.57510 -0.30100
S 	S 	0.97930 0.84450 0.07510 -0.30100
S 	S 	0.02070 0.34450 0.42490 -0.29900
S 	S 	0.07510 0.52070 0.34450 -0.30000
S 	S 	0.42490 0.47930 0.84450 -0.30100
S 	S 	0.92490 0.02070 0.15550 -0.30100
S 	S 	0.57510 0.97930 0.65550 -0.29900
S 	S 	0.34450 0.07510 0.52070 -0.30000
S 	S 	0.84450 0.42490 0.47930 -0.30100
S 	S 	0.15550 0.92490 0.02070 -0.30100
S 	S 	0.65550 0.57510 0.97930 -0.29900
S 	S 	0.52070 0.34450 0.07510 -0.30000
S 	S 	0.47930 0.84450 0.42490 -0.30100
S 	S 	0.02070 0.15550 0.92490 -0.30100
S 	S 	0.97930 0.65550 0.57510 -0.29900
S 	S 	0.10040 0.39960 0.60040 -0.29400
S 	S 	0.39960 0.60040 0.10040 -0.29400
S 	S 	0.89960 0.89960 0.89960 -0.28700
S 	S 	0.60040 0.10040 0.39960 -0.29400
S 	S 	0.89960 0.60040 0.39960 -0.29400
S 	S 	0.60040 0.39960 0.89960 -0.29400
S 	S 	0.10040 0.10040 0.10040 -0.28700
S 	S 	0.39960 0.89960 0.60040 -0.29400
N 	N 	0.91500 0.23200 0.61400 -0.28400
N 	N 	0.58500 0.76800 0.11400 -0.28500
N 	N 	0.08500 0.73200 0.88600 -0.28500
N 	N 	0.41500 0.26800 0.38600 -0.28400
N 	N 	0.61400 0.91500 0.23200 -0.28400
N 	N 	0.11400 0.58500 0.76800 -0.28500
N 	N 	0.88600 0.08500 0.73200 -0.28500
N 	N 	0.38600 0.41500 0.26800 -0.28400
N 	N 	0.23200 0.61400 0.91500 -0.28400
N 	N 	0.76800 0.11400 0.58500 -0.28500
N 	N 	0.73200 0.88600 0.08500 -0.28500
N 	N 	0.26800 0.38600 0.41500 -0.28400
N 	N 	0.08500 0.76800 0.38600 -0.28400
N 	N 	0.41500 0.23200 0.88600 -0.28500
N 	N 	0.91500 0.26800 0.11400 -0.28500
N 	N 	0.58500 0.73200 0.61400 -0.28400
N 	N 	0.38600 0.08500 0.76800 -0.28400
N 	N 	0.88600 0.41500 0.23200 -0.28500
N 	N 	0.11400 0.91500 0.26800 -0.28500
N 	N 	0.61400 0.58500 0.73200 -0.28400
N 	N 	0.76800 0.38600 0.08500 -0.28400
N 	N 	0.23200 0.88600 0.41500 -0.28500
N 	N 	0.26800 0.11400 0.91500 -0.28500
N 	N 	0.73200 0.61400 0.58500 -0.28400
