data_crystal

_cell_length_a 16.57800
_cell_length_b 16.68000
_cell_length_c 18.00600
_cell_angle_alpha 90.00000
_cell_angle_beta  90.00000
_cell_angle_gamma 90.00000

_symmetry_space_group_name_	'P 1'
_symmetry_space_group_name_H-M	'P 1'

loop_
_symmetry_equiv_pos_as_xyz
  x,y,z

loop_
_atom_site_label
_atom_site_type_symbol
_atom_site_fract_x
_atom_site_fract_y
_atom_site_fract_z
_atom_site_charge
Mn	Mn	0.60533 0.87007 0.86865 1.15700
Mn	Mn	0.39467 0.62993 0.36865 1.15700
Mn	Mn	0.10533 0.12993 0.63135 1.15700
Mn	Mn	0.89467 0.37007 0.13135 1.15700
Mn	Mn	0.39467 0.12993 0.13135 1.15600
Mn	Mn	0.60533 0.37007 0.63135 1.15600
Mn	Mn	0.89467 0.87007 0.36865 1.15600
Mn	Mn	0.10533 0.62993 0.86865 1.15600
Re	Re	0.90102 0.96468 0.96669 0.34000
Re	Re	0.04085 0.89787 0.99055 0.34000
Re	Re	0.02968 0.02203 0.90379 0.33400
Re	Re	0.09898 0.53532 0.46669 0.34000
Re	Re	0.95915 0.60213 0.49055 0.34100
Re	Re	0.97032 0.47797 0.40379 0.33600
Re	Re	0.40102 0.03532 0.53331 0.34000
Re	Re	0.54085 0.10213 0.50945 0.34200
Re	Re	0.52968 0.97797 0.59621 0.33600
Re	Re	0.59898 0.46468 0.03331 0.33900
Re	Re	0.45915 0.39787 0.00945 0.34200
Re	Re	0.47032 0.52203 0.09621 0.33600
Re	Re	0.09898 0.03532 0.03331 0.34000
Re	Re	0.95915 0.10213 0.00945 0.34000
Re	Re	0.97032 0.97797 0.09621 0.33400
Re	Re	0.90102 0.46468 0.53331 0.34000
Re	Re	0.04085 0.39787 0.50945 0.34100
Re	Re	0.02968 0.52203 0.59621 0.33600
Re	Re	0.59898 0.96468 0.46669 0.34000
Re	Re	0.45915 0.89787 0.49055 0.34200
Re	Re	0.47032 0.02203 0.40379 0.33600
Re	Re	0.40102 0.53532 0.96669 0.33900
Re	Re	0.54085 0.60213 0.99055 0.34200
Re	Re	0.52968 0.47797 0.90379 0.33600
C 	C 	0.78830 0.92480 0.92500 -0.03400
C 	C 	0.08480 0.78040 0.97730 -0.07300
C 	C 	0.06620 0.04620 0.79160 -0.03700
C 	C 	0.21170 0.57520 0.42500 -0.03300
C 	C 	0.91520 0.71960 0.47730 -0.07200
C 	C 	0.93380 0.45380 0.29160 -0.03700
C 	C 	0.28830 0.07520 0.57500 -0.03400
C 	C 	0.58480 0.21960 0.52270 -0.07200
C 	C 	0.56620 0.95380 0.70840 -0.03700
C 	C 	0.71170 0.42480 0.07500 -0.03400
C 	C 	0.41520 0.28040 0.02270 -0.07200
C 	C 	0.43380 0.54620 0.20840 -0.03700
C 	C 	0.21170 0.07520 0.07500 -0.03400
C 	C 	0.91520 0.21960 0.02270 -0.07300
C 	C 	0.93380 0.95380 0.20840 -0.03700
C 	C 	0.78830 0.42480 0.57500 -0.03300
C 	C 	0.08480 0.28040 0.52270 -0.07200
C 	C 	0.06620 0.54620 0.70840 -0.03700
C 	C 	0.71170 0.92480 0.42500 -0.03400
C 	C 	0.41520 0.78040 0.47730 -0.07200
C 	C 	0.43380 0.04620 0.29160 -0.03700
C 	C 	0.28830 0.57520 0.92500 -0.03400
C 	C 	0.58480 0.71960 0.97730 -0.07200
C 	C 	0.56620 0.45380 0.79160 -0.03700
S 	S 	0.97470 0.89290 0.87200 -0.31300
S 	S 	0.89840 0.08280 0.88910 -0.28200
S 	S 	0.91880 0.85260 0.05010 -0.29700
S 	S 	0.84350 0.04070 0.06730 -0.29600
S 	S 	0.02530 0.60710 0.37200 -0.31200
S 	S 	0.10160 0.41720 0.38910 -0.28800
S 	S 	0.08120 0.64740 0.55010 -0.29600
S 	S 	0.15650 0.45930 0.56730 -0.29600
S 	S 	0.47470 0.10710 0.62800 -0.31400
S 	S 	0.39840 0.91720 0.61090 -0.28800
S 	S 	0.41880 0.14740 0.44990 -0.29600
S 	S 	0.34350 0.95930 0.43270 -0.29400
S 	S 	0.52530 0.39290 0.12800 -0.31400
S 	S 	0.60160 0.58280 0.11090 -0.28800
S 	S 	0.58120 0.35260 0.94990 -0.29500
S 	S 	0.65650 0.54070 0.93270 -0.29500
S 	S 	0.02530 0.10710 0.12800 -0.31300
S 	S 	0.10160 0.91720 0.11090 -0.28200
S 	S 	0.08120 0.14740 0.94990 -0.29700
S 	S 	0.15650 0.95930 0.93270 -0.29600
S 	S 	0.97470 0.39290 0.62800 -0.31200
S 	S 	0.89840 0.58280 0.61090 -0.28800
S 	S 	0.91880 0.35260 0.44990 -0.29600
S 	S 	0.84350 0.54070 0.43270 -0.29600
S 	S 	0.52530 0.89290 0.37200 -0.31400
S 	S 	0.60160 0.08280 0.38910 -0.28800
S 	S 	0.58120 0.85260 0.55010 -0.29600
S 	S 	0.65650 0.04070 0.56730 -0.29400
S 	S 	0.47470 0.60710 0.87200 -0.31400
S 	S 	0.39840 0.41720 0.88910 -0.28800
S 	S 	0.41880 0.64740 0.05010 -0.29500
S 	S 	0.34350 0.45930 0.06730 -0.29500
N 	N 	0.72920 0.90680 0.89870 -0.27800
N 	N 	0.10590 0.71480 0.96510 -0.26900
N 	N 	0.08640 0.06080 0.73410 -0.29200
N 	N 	0.27080 0.59320 0.39870 -0.27800
N 	N 	0.89410 0.78520 0.46510 -0.26900
N 	N 	0.91360 0.43920 0.23410 -0.29200
N 	N 	0.22920 0.09320 0.60130 -0.27800
N 	N 	0.60590 0.28520 0.53490 -0.26900
N 	N 	0.58640 0.93920 0.76590 -0.29200
N 	N 	0.77080 0.40680 0.10130 -0.27800
N 	N 	0.39410 0.21480 0.03490 -0.26900
N 	N 	0.41360 0.56080 0.26590 -0.29200
N 	N 	0.27080 0.09320 0.10130 -0.27800
N 	N 	0.89410 0.28520 0.03490 -0.26900
N 	N 	0.91360 0.93920 0.26590 -0.29200
N 	N 	0.72920 0.40680 0.60130 -0.27800
N 	N 	0.10590 0.21480 0.53490 -0.26900
N 	N 	0.08640 0.56080 0.76590 -0.29200
N 	N 	0.77080 0.90680 0.39870 -0.27800
N 	N 	0.39410 0.71480 0.46510 -0.26900
N 	N 	0.41360 0.06080 0.23410 -0.29200
N 	N 	0.22920 0.59320 0.89870 -0.27800
N 	N 	0.60590 0.78520 0.96510 -0.26900
N 	N 	0.58640 0.43920 0.73410 -0.29200
