data_crystal

_cell_length_a 16.59600
_cell_length_b 16.79300
_cell_length_c 17.94000
_cell_angle_alpha 90.00000
_cell_angle_beta  90.00000
_cell_angle_gamma 90.00000

_symmetry_space_group_name_	'P 1'
_symmetry_space_group_name_H-M	'P 1'

loop_
_symmetry_equiv_pos_as_xyz
  x,y,z

loop_
_atom_site_label
_atom_site_type_symbol
_atom_site_fract_x
_atom_site_fract_y
_atom_site_fract_z
_atom_site_charge
Mn	Mn	0.10533 0.63012 0.86892 1.15100
Mn	Mn	0.89467 0.86988 0.36892 1.15100
Mn	Mn	0.60533 0.36988 0.63108 1.15100
Mn	Mn	0.39467 0.13012 0.13108 1.15100
Mn	Mn	0.89467 0.36988 0.13108 1.15100
Mn	Mn	0.10533 0.13012 0.63108 1.15100
Mn	Mn	0.39467 0.63012 0.36892 1.15100
Mn	Mn	0.60533 0.86988 0.86892 1.15100
Re	Re	0.39937 0.53508 0.96745 0.28800
Re	Re	0.54088 0.60246 0.98942 0.28400
Re	Re	0.47163 0.52269 0.09777 0.28800
Re	Re	0.60063 0.96492 0.46745 0.28800
Re	Re	0.45912 0.89754 0.48942 0.28400
Re	Re	0.52837 0.97731 0.59777 0.28700
Re	Re	0.89937 0.46492 0.53255 0.28800
Re	Re	0.04088 0.39754 0.51058 0.28400
Re	Re	0.97163 0.47731 0.40223 0.28700
Re	Re	0.10063 0.03508 0.03255 0.28800
Re	Re	0.95912 0.10246 0.01058 0.28300
Re	Re	0.02837 0.02269 0.90223 0.28600
Re	Re	0.60063 0.46492 0.03255 0.28800
Re	Re	0.45912 0.39754 0.01058 0.28400
Re	Re	0.52837 0.47731 0.90223 0.28800
Re	Re	0.39937 0.03508 0.53255 0.28800
Re	Re	0.54088 0.10246 0.51058 0.28400
Re	Re	0.47163 0.02269 0.40223 0.28700
Re	Re	0.10063 0.53508 0.46745 0.28800
Re	Re	0.95912 0.60246 0.48942 0.28400
Re	Re	0.02837 0.52269 0.59777 0.28700
Re	Re	0.89937 0.96492 0.96745 0.28800
Re	Re	0.04088 0.89754 0.98942 0.28300
Re	Re	0.97163 0.97731 0.09777 0.28600
C 	C 	0.28480 0.57280 0.92570 -0.03700
C 	C 	0.08560 0.77860 0.97530 -0.06500
C 	C 	0.06290 0.54770 0.70900 -0.05000
C 	C 	0.71520 0.92720 0.42570 -0.03700
C 	C 	0.91440 0.72140 0.47530 -0.06500
C 	C 	0.93710 0.95230 0.20900 -0.05000
C 	C 	0.78480 0.42720 0.57430 -0.03700
C 	C 	0.58560 0.22140 0.52470 -0.06500
C 	C 	0.56290 0.45230 0.79100 -0.05000
C 	C 	0.21520 0.07280 0.07430 -0.03800
C 	C 	0.41440 0.27860 0.02470 -0.06500
C 	C 	0.43710 0.04770 0.29100 -0.05000
C 	C 	0.71520 0.42720 0.07430 -0.03700
C 	C 	0.91440 0.22140 0.02470 -0.06500
C 	C 	0.93710 0.45230 0.29100 -0.05000
C 	C 	0.28480 0.07280 0.57430 -0.03700
C 	C 	0.08560 0.27860 0.52470 -0.06500
C 	C 	0.06290 0.04770 0.79100 -0.05000
C 	C 	0.21520 0.57280 0.42570 -0.03700
C 	C 	0.41440 0.77860 0.47530 -0.06500
C 	C 	0.43710 0.54770 0.20900 -0.05000
C 	C 	0.78480 0.92720 0.92570 -0.03800
C 	C 	0.58560 0.72140 0.97530 -0.06500
C 	C 	0.56290 0.95230 0.70900 -0.05000
Se	Se	0.41576 0.65327 0.05311 -0.24700
Se	Se	0.33772 0.45828 0.07355 -0.24600
Se	Se	0.39200 0.41294 0.88562 -0.23800
Se	Se	0.47055 0.61051 0.86560 -0.26600
Se	Se	0.58424 0.84673 0.55311 -0.24800
Se	Se	0.66228 0.04172 0.57355 -0.24600
Se	Se	0.60800 0.08706 0.38562 -0.23800
Se	Se	0.52945 0.88949 0.36560 -0.26600
Se	Se	0.91576 0.34673 0.44689 -0.24700
Se	Se	0.83772 0.54172 0.42645 -0.24700
Se	Se	0.89200 0.58706 0.61438 -0.23800
Se	Se	0.97055 0.38949 0.63440 -0.26500
Se	Se	0.08424 0.15327 0.94689 -0.24900
Se	Se	0.16228 0.95828 0.92645 -0.24700
Se	Se	0.10800 0.91294 0.11438 -0.23300
Se	Se	0.02945 0.11051 0.13440 -0.26500
Se	Se	0.58424 0.34673 0.94689 -0.24700
Se	Se	0.66228 0.54172 0.92645 -0.24600
Se	Se	0.60800 0.58706 0.11438 -0.23800
Se	Se	0.52945 0.38949 0.13440 -0.26600
Se	Se	0.41576 0.15327 0.44689 -0.24800
Se	Se	0.33772 0.95828 0.42645 -0.24600
Se	Se	0.39200 0.91294 0.61438 -0.23800
Se	Se	0.47055 0.11051 0.63440 -0.26600
Se	Se	0.08424 0.65327 0.55311 -0.24700
Se	Se	0.16228 0.45828 0.57355 -0.24700
Se	Se	0.10800 0.41294 0.38562 -0.23800
Se	Se	0.02945 0.61051 0.36560 -0.26500
Se	Se	0.91576 0.84673 0.05311 -0.24900
Se	Se	0.83772 0.04172 0.07355 -0.24700
Se	Se	0.89200 0.08706 0.88562 -0.23300
Se	Se	0.97055 0.88949 0.86560 -0.26500
N 	N 	0.22800 0.59330 0.90110 -0.28700
N 	N 	0.10490 0.71740 0.96380 -0.27800
N 	N 	0.08190 0.56140 0.76650 -0.29600
N 	N 	0.77200 0.90670 0.40110 -0.28700
N 	N 	0.89510 0.78260 0.46380 -0.27800
N 	N 	0.91810 0.93860 0.26650 -0.29600
N 	N 	0.72800 0.40670 0.59890 -0.28700
N 	N 	0.60490 0.28260 0.53620 -0.27800
N 	N 	0.58190 0.43860 0.73350 -0.29600
N 	N 	0.27200 0.09330 0.09890 -0.28700
N 	N 	0.39510 0.21740 0.03620 -0.27800
N 	N 	0.41810 0.06140 0.23350 -0.29600
N 	N 	0.77200 0.40670 0.09890 -0.28700
N 	N 	0.89510 0.28260 0.03620 -0.27800
N 	N 	0.91810 0.43860 0.23350 -0.29600
N 	N 	0.22800 0.09330 0.59890 -0.28700
N 	N 	0.10490 0.21740 0.53620 -0.27800
N 	N 	0.08190 0.06140 0.73350 -0.29600
N 	N 	0.27200 0.59330 0.40110 -0.28700
N 	N 	0.39510 0.71740 0.46380 -0.27800
N 	N 	0.41810 0.56140 0.26650 -0.29600
N 	N 	0.72800 0.90670 0.90110 -0.28700
N 	N 	0.60490 0.78260 0.96380 -0.27800
N 	N 	0.58190 0.93860 0.76650 -0.29600
