data_crystal

_cell_length_a 11.12600
_cell_length_b 17.36100
_cell_length_c 16.11900
_cell_angle_alpha 90.00000
_cell_angle_beta  102.40000
_cell_angle_gamma 90.00000

_symmetry_space_group_name_	'P 1'
_symmetry_space_group_name_H-M	'P 1'

loop_
_symmetry_equiv_pos_as_xyz
  x,y,z

loop_
_atom_site_label
_atom_site_type_symbol
_atom_site_fract_x
_atom_site_fract_y
_atom_site_fract_z
_atom_site_charge
Cd	Cd	0.15843 0.44530 0.88325 1.24800
Cd	Cd	0.33557 0.40609 0.09503 1.25600
O 	O 	0.17660 0.55920 0.81380 -0.30100
O 	O 	0.24460 0.41970 0.76870 -0.30300
O 	O 	0.02420 0.49170 0.11060 -0.33400
O 	O 	0.47050 0.16130 0.14790 -0.26200
O 	O 	0.13360 0.44390 0.02170 -0.43000
O 	O 	0.34240 0.48810 0.97520 -0.41700
O 	O 	0.22370 0.16900 0.09080 -0.21600
O 	O 	0.32440 0.47390 0.66780 -0.29100
O 	O 	0.22750 0.28550 0.09030 -0.39800
O 	O 	0.46680 0.29980 0.12010 -0.21900
O 	O 	0.27340 0.61360 0.72310 -0.27600
O 	O 	0.46560 0.54610 0.90300 -0.31900
C 	C 	0.23820 0.55610 0.75840 0.23700
C 	C 	0.04420 0.48210 0.03880 0.25700
C 	C 	0.44600 0.50960 0.96430 0.26500
C 	C 	0.27150 0.47650 0.72770 0.23500
C 	C 	0.27420 0.23610 0.09470 0.32100
C 	C 	0.41580 0.23510 0.11790 0.14600
O 	O 	0.19540 0.16290 0.03480 -0.21800
O 	O 	0.48860 0.32090 0.18970 -0.08000
C 	C 	0.23120 0.23250 0.04030 0.09300
Cd	Cd	0.65843 0.94530 0.88325 1.25000
Cd	Cd	0.83557 0.90609 0.09503 1.25600
O 	O 	0.67660 0.05920 0.81380 -0.29900
O 	O 	0.74460 0.91970 0.76870 -0.30200
O 	O 	0.52420 0.99170 0.11060 -0.33300
O 	O 	0.97050 0.66130 0.14790 -0.26000
O 	O 	0.63360 0.94390 0.02170 -0.42900
O 	O 	0.84240 0.98810 0.97520 -0.41500
O 	O 	0.72370 0.66900 0.09080 -0.22400
O 	O 	0.82440 0.97390 0.66780 -0.28900
O 	O 	0.72750 0.78550 0.09030 -0.40300
O 	O 	0.96680 0.79980 0.12010 -0.21600
O 	O 	0.77340 0.11360 0.72310 -0.27600
O 	O 	0.96560 0.04610 0.90300 -0.31800
C 	C 	0.73820 0.05610 0.75840 0.23700
C 	C 	0.54420 0.98210 0.03880 0.25700
C 	C 	0.94600 0.00960 0.96430 0.26600
C 	C 	0.77150 0.97650 0.72770 0.23500
C 	C 	0.77420 0.73610 0.09470 0.35500
C 	C 	0.91580 0.73510 0.11790 0.13500
O 	O 	0.69540 0.66290 0.03480 -0.20600
O 	O 	0.98860 0.82090 0.18970 -0.08200
C 	C 	0.73120 0.73250 0.04030 0.05900
Cd	Cd	0.84157 0.44530 0.61675 1.25000
Cd	Cd	0.66443 0.40609 0.40497 1.25600
O 	O 	0.82340 0.55920 0.68620 -0.29900
O 	O 	0.75540 0.41970 0.73130 -0.30200
O 	O 	0.97580 0.49170 0.38940 -0.33400
O 	O 	0.52950 0.16130 0.35210 -0.26000
O 	O 	0.86640 0.44390 0.47830 -0.42900
O 	O 	0.65760 0.48810 0.52480 -0.41500
O 	O 	0.77630 0.16900 0.40920 -0.22000
O 	O 	0.67560 0.47390 0.83220 -0.28900
O 	O 	0.77250 0.28550 0.40970 -0.40000
O 	O 	0.53320 0.29980 0.37990 -0.21600
O 	O 	0.72660 0.61360 0.77690 -0.27600
O 	O 	0.53440 0.54610 0.59700 -0.31900
C 	C 	0.76180 0.55610 0.74160 0.23700
C 	C 	0.95580 0.48210 0.46120 0.25600
C 	C 	0.55400 0.50960 0.53570 0.26500
C 	C 	0.72850 0.47650 0.77230 0.23500
C 	C 	0.72580 0.23610 0.40530 0.33800
C 	C 	0.58420 0.23510 0.38210 0.14000
O 	O 	0.80460 0.16290 0.46520 -0.21200
O 	O 	0.51140 0.32090 0.31030 -0.08000
C 	C 	0.76880 0.23250 0.45970 0.07600
Cd	Cd	0.34157 0.94530 0.61675 1.25000
Cd	Cd	0.16443 0.90609 0.40497 1.25700
O 	O 	0.32340 0.05920 0.68620 -0.29900
O 	O 	0.25540 0.91970 0.73130 -0.30200
O 	O 	0.47580 0.99170 0.38940 -0.33300
O 	O 	0.02950 0.66130 0.35210 -0.26000
O 	O 	0.36640 0.94390 0.47830 -0.42900
O 	O 	0.15760 0.98810 0.52480 -0.41500
O 	O 	0.27630 0.66900 0.40920 -0.22000
O 	O 	0.17560 0.97390 0.83220 -0.29100
O 	O 	0.27250 0.78550 0.40970 -0.40000
O 	O 	0.03320 0.79980 0.37990 -0.21700
O 	O 	0.22660 0.11360 0.77690 -0.27600
O 	O 	0.03440 0.04610 0.59700 -0.32000
C 	C 	0.26180 0.05610 0.74160 0.23700
C 	C 	0.45580 0.98210 0.46120 0.25600
C 	C 	0.05400 0.00960 0.53570 0.26500
C 	C 	0.22850 0.97650 0.77230 0.23500
C 	C 	0.22580 0.73610 0.40530 0.33800
C 	C 	0.08420 0.73510 0.38210 0.14000
O 	O 	0.30460 0.66290 0.46520 -0.21200
O 	O 	0.01140 0.82090 0.31030 -0.08000
C 	C 	0.26880 0.73250 0.45970 0.07600
Cd	Cd	0.84157 0.55470 0.11675 1.24900
Cd	Cd	0.66443 0.59391 0.90497 1.25700
O 	O 	0.82340 0.44080 0.18620 -0.30000
O 	O 	0.75540 0.58030 0.23130 -0.30200
O 	O 	0.97580 0.50830 0.88940 -0.33300
O 	O 	0.52950 0.83870 0.85210 -0.26100
O 	O 	0.86640 0.55610 0.97830 -0.42900
O 	O 	0.65760 0.51190 0.02480 -0.41600
O 	O 	0.77630 0.83100 0.90920 -0.21500
O 	O 	0.67560 0.52610 0.33220 -0.29000
O 	O 	0.77250 0.71450 0.90970 -0.39700
O 	O 	0.53320 0.70020 0.87990 -0.21800
O 	O 	0.72660 0.38640 0.27690 -0.27600
O 	O 	0.53440 0.45390 0.09700 -0.31900
C 	C 	0.76180 0.44390 0.24160 0.23700
C 	C 	0.95580 0.51790 0.96120 0.25700
C 	C 	0.55400 0.49040 0.03570 0.26500
C 	C 	0.72850 0.52350 0.27230 0.23500
C 	C 	0.72580 0.76390 0.90530 0.32100
C 	C 	0.58420 0.76490 0.88210 0.14600
O 	O 	0.80460 0.83710 0.96520 -0.21800
O 	O 	0.51140 0.67910 0.81030 -0.08000
C 	C 	0.76880 0.76750 0.95970 0.09300
Cd	Cd	0.34157 0.05470 0.11675 1.25000
Cd	Cd	0.16443 0.09391 0.90497 1.25600
O 	O 	0.32340 0.94080 0.18620 -0.29900
O 	O 	0.25540 0.08030 0.23130 -0.30200
O 	O 	0.47580 0.00830 0.88940 -0.33300
O 	O 	0.02950 0.33870 0.85210 -0.26000
O 	O 	0.36640 0.05610 0.97830 -0.42900
O 	O 	0.15760 0.01190 0.02480 -0.41500
O 	O 	0.27630 0.33100 0.90920 -0.22400
O 	O 	0.17560 0.02610 0.33220 -0.28900
O 	O 	0.27250 0.21450 0.90970 -0.40300
O 	O 	0.03320 0.20020 0.87990 -0.21600
O 	O 	0.22660 0.88640 0.27690 -0.27600
O 	O 	0.03440 0.95390 0.09700 -0.31800
C 	C 	0.26180 0.94390 0.24160 0.23700
C 	C 	0.45580 0.01790 0.96120 0.25700
C 	C 	0.05400 0.99040 0.03570 0.26600
C 	C 	0.22850 0.02350 0.27230 0.23500
C 	C 	0.22580 0.26390 0.90530 0.35500
C 	C 	0.08420 0.26490 0.88210 0.13500
O 	O 	0.30460 0.33710 0.96520 -0.20600
O 	O 	0.01140 0.17910 0.81030 -0.08200
C 	C 	0.26880 0.26750 0.95970 0.05900
Cd	Cd	0.15843 0.55470 0.38325 1.25000
Cd	Cd	0.33557 0.59391 0.59503 1.25600
O 	O 	0.17660 0.44080 0.31380 -0.29900
O 	O 	0.24460 0.58030 0.26870 -0.30200
O 	O 	0.02420 0.50830 0.61060 -0.33400
O 	O 	0.47050 0.83870 0.64790 -0.26000
O 	O 	0.13360 0.55610 0.52170 -0.42900
O 	O 	0.34240 0.51190 0.47520 -0.41500
O 	O 	0.22370 0.83100 0.59080 -0.22000
O 	O 	0.32440 0.52610 0.16780 -0.28900
O 	O 	0.22750 0.71450 0.59030 -0.40000
O 	O 	0.46680 0.70020 0.62010 -0.21600
O 	O 	0.27340 0.38640 0.22310 -0.27600
O 	O 	0.46560 0.45390 0.40300 -0.31900
C 	C 	0.23820 0.44390 0.25840 0.23700
C 	C 	0.04420 0.51790 0.53880 0.25600
C 	C 	0.44600 0.49040 0.46430 0.26500
C 	C 	0.27150 0.52350 0.22770 0.23500
C 	C 	0.27420 0.76390 0.59470 0.33800
C 	C 	0.41580 0.76490 0.61790 0.14000
O 	O 	0.19540 0.83710 0.53480 -0.21200
O 	O 	0.48860 0.67910 0.68970 -0.08000
C 	C 	0.23120 0.76750 0.54030 0.07600
Cd	Cd	0.65843 0.05470 0.38325 1.25000
Cd	Cd	0.83557 0.09391 0.59503 1.25700
O 	O 	0.67660 0.94080 0.31380 -0.29900
O 	O 	0.74460 0.08030 0.26870 -0.30200
O 	O 	0.52420 0.00830 0.61060 -0.33300
O 	O 	0.97050 0.33870 0.64790 -0.26000
O 	O 	0.63360 0.05610 0.52170 -0.42900
O 	O 	0.84240 0.01190 0.47520 -0.41500
O 	O 	0.72370 0.33100 0.59080 -0.22000
O 	O 	0.82440 0.02610 0.16780 -0.29100
O 	O 	0.72750 0.21450 0.59030 -0.40000
O 	O 	0.96680 0.20020 0.62010 -0.21700
O 	O 	0.77340 0.88640 0.22310 -0.27600
O 	O 	0.96560 0.95390 0.40300 -0.32000
C 	C 	0.73820 0.94390 0.25840 0.23700
C 	C 	0.54420 0.01790 0.53880 0.25600
C 	C 	0.94600 0.99040 0.46430 0.26500
C 	C 	0.77150 0.02350 0.22770 0.23500
C 	C 	0.77420 0.26390 0.59470 0.33800
C 	C 	0.91580 0.26490 0.61790 0.14000
O 	O 	0.69540 0.33710 0.53480 -0.21200
O 	O 	0.98860 0.17910 0.68970 -0.08000
C 	C 	0.73120 0.26750 0.54030 0.07600
