data_crystal

_cell_length_a 14.15200
_cell_length_b 14.15200
_cell_length_c 14.15200
_cell_angle_alpha 90.00000
_cell_angle_beta  90.00000
_cell_angle_gamma 90.00000

_symmetry_space_group_name_	'P 1'
_symmetry_space_group_name_H-M	'P 1'

loop_
_symmetry_equiv_pos_as_xyz
  x,y,z

loop_
_atom_site_label
_atom_site_type_symbol
_atom_site_fract_x
_atom_site_fract_y
_atom_site_fract_z
_atom_site_charge
O 	O 	0.56520 0.41200 0.77590 -0.46600
O 	O 	0.69320 0.37390 0.68780 -0.43700
O 	O 	0.80800 0.15400 0.77600 -0.21500
C 	C 	0.62390 0.42420 0.70890 0.37500
C 	C 	0.59970 0.50410 0.64110 -0.12600
C 	C 	0.65640 0.52260 0.56570 0.06900
H 	H 	0.70840 0.48200 0.55390 0.03200
O 	O 	0.93480 0.58800 0.27590 -0.46700
O 	O 	0.80680 0.62610 0.18780 -0.43800
O 	O 	0.69200 0.84600 0.27600 -0.21700
C 	C 	0.87610 0.57580 0.20890 0.37500
C 	C 	0.90030 0.49590 0.14110 -0.12700
C 	C 	0.84360 0.47740 0.06570 0.06900
H 	H 	0.79160 0.51800 0.05390 0.03200
O 	O 	0.43480 0.91200 0.72410 -0.46700
O 	O 	0.30680 0.87390 0.81220 -0.43800
O 	O 	0.19200 0.65400 0.72400 -0.21600
C 	C 	0.37610 0.92420 0.79110 0.37300
C 	C 	0.40030 0.00410 0.85890 -0.12600
C 	C 	0.34360 0.02260 0.93430 0.07100
H 	H 	0.29160 0.98200 0.94610 0.03000
O 	O 	0.06520 0.08800 0.22410 -0.46700
O 	O 	0.19320 0.12610 0.31220 -0.43800
O 	O 	0.30800 0.34600 0.22400 -0.21600
C 	C 	0.12390 0.07580 0.29110 0.37400
C 	C 	0.09970 0.99590 0.35890 -0.12700
C 	C 	0.15640 0.97740 0.43430 0.07000
H 	H 	0.20840 0.01800 0.44610 0.03100
O 	O 	0.77590 0.56520 0.41200 -0.46700
O 	O 	0.68780 0.69320 0.37390 -0.43800
O 	O 	0.77600 0.80800 0.15400 -0.21600
C 	C 	0.70890 0.62390 0.42420 0.37400
C 	C 	0.64110 0.59970 0.50410 -0.12700
C 	C 	0.56570 0.65640 0.52260 0.06900
H 	H 	0.55390 0.70840 0.48200 0.03200
O 	O 	0.27590 0.93480 0.58800 -0.46700
O 	O 	0.18780 0.80680 0.62610 -0.43800
O 	O 	0.27600 0.69200 0.84600 -0.21700
C 	C 	0.20890 0.87610 0.57580 0.37500
C 	C 	0.14110 0.90030 0.49590 -0.12700
C 	C 	0.06570 0.84360 0.47740 0.06900
H 	H 	0.05390 0.79160 0.51800 0.03200
O 	O 	0.72410 0.43480 0.91200 -0.46700
O 	O 	0.81220 0.30680 0.87390 -0.43800
O 	O 	0.72400 0.19200 0.65400 -0.21600
C 	C 	0.79110 0.37610 0.92420 0.37300
C 	C 	0.85890 0.40030 0.00410 -0.12600
C 	C 	0.93430 0.34360 0.02260 0.07100
H 	H 	0.94610 0.29160 0.98200 0.03000
O 	O 	0.22410 0.06520 0.08800 -0.46700
O 	O 	0.31220 0.19320 0.12610 -0.43800
O 	O 	0.22400 0.30800 0.34600 -0.21600
C 	C 	0.29110 0.12390 0.07580 0.37400
C 	C 	0.35890 0.09970 0.99590 -0.12700
C 	C 	0.43430 0.15640 0.97740 0.07000
H 	H 	0.44610 0.20840 0.01800 0.03100
O 	O 	0.41200 0.77590 0.56520 -0.46700
O 	O 	0.37390 0.68780 0.69320 -0.43800
O 	O 	0.15400 0.77600 0.80800 -0.21600
C 	C 	0.42420 0.70890 0.62390 0.37400
C 	C 	0.50410 0.64110 0.59970 -0.12700
C 	C 	0.52260 0.56570 0.65640 0.06900
H 	H 	0.48200 0.55390 0.70840 0.03200
O 	O 	0.58800 0.27590 0.93480 -0.46700
O 	O 	0.62610 0.18780 0.80680 -0.43800
O 	O 	0.84600 0.27600 0.69200 -0.21700
C 	C 	0.57580 0.20890 0.87610 0.37500
C 	C 	0.49590 0.14110 0.90030 -0.12700
C 	C 	0.47740 0.06570 0.84360 0.06900
H 	H 	0.51800 0.05390 0.79160 0.03200
O 	O 	0.91200 0.72410 0.43480 -0.46700
O 	O 	0.87390 0.81220 0.30680 -0.43800
O 	O 	0.65400 0.72400 0.19200 -0.21600
C 	C 	0.92420 0.79110 0.37610 0.37300
C 	C 	0.00410 0.85890 0.40030 -0.12600
C 	C 	0.02260 0.93430 0.34360 0.07100
H 	H 	0.98200 0.94610 0.29160 0.03000
O 	O 	0.08800 0.22410 0.06520 -0.46700
O 	O 	0.12610 0.31220 0.19320 -0.43800
O 	O 	0.34600 0.22400 0.30800 -0.21600
C 	C 	0.07580 0.29110 0.12390 0.37400
C 	C 	0.99590 0.35890 0.09970 -0.12700
C 	C 	0.97740 0.43430 0.15640 0.07000
H 	H 	0.01800 0.44610 0.20840 0.03100
Zn	Zn	0.72827 0.27173 0.77173 1.26400
Co	Co	0.57970 0.42030 0.92030 1.10400
O 	O 	0.86810 0.13190 0.63190 -0.06700
N 	N 	0.80950 0.19050 0.69050 0.01700
Zn	Zn	0.77173 0.72827 0.27173 1.26400
Co	Co	0.92030 0.57970 0.42030 1.10400
O 	O 	0.63190 0.86810 0.13190 -0.06700
N 	N 	0.69050 0.80950 0.19050 0.01700
Zn	Zn	0.27173 0.77173 0.72827 1.26400
Co	Co	0.42030 0.92030 0.57970 1.10400
O 	O 	0.13190 0.63190 0.86810 -0.06700
N 	N 	0.19050 0.69050 0.80950 0.01700
Zn	Zn	0.22827 0.22827 0.22827 1.26400
Co	Co	0.07970 0.07970 0.07970 1.10300
O 	O 	0.36810 0.36810 0.36810 -0.06700
N 	N 	0.30950 0.30950 0.30950 0.01700
