data_crystal

_cell_length_a 11.76030
_cell_length_b 18.71070
_cell_length_c 18.71070
_cell_angle_alpha 90.00000
_cell_angle_beta  90.00000
_cell_angle_gamma 90.00000

_symmetry_space_group_name_	'P 1'
_symmetry_space_group_name_H-M	'P 1'

loop_
_symmetry_equiv_pos_as_xyz
  x,y,z

loop_
_atom_site_label
_atom_site_type_symbol
_atom_site_fract_x
_atom_site_fract_y
_atom_site_fract_z
_atom_site_charge
Zn	Zn	0.64386 0.28571 0.78162 1.23600
Zn	Zn	0.64386 0.71429 0.21838 1.23600
Zn	Zn	0.14386 0.21838 0.28571 1.23500
Zn	Zn	0.14386 0.78162 0.71429 1.23500
Zn	Zn	0.64386 0.78571 0.71838 1.23500
Zn	Zn	0.64386 0.21429 0.28162 1.23500
Zn	Zn	0.14386 0.71838 0.21429 1.23500
Zn	Zn	0.14386 0.28162 0.78571 1.23500
Co	Co	0.81794 0.15389 0.82168 1.12500
Co	Co	0.81794 0.84611 0.17832 1.12500
Co	Co	0.31794 0.17832 0.15389 1.12600
Co	Co	0.31794 0.82168 0.84611 1.12600
Co	Co	0.81794 0.65389 0.67832 1.12500
Co	Co	0.81794 0.34611 0.32168 1.12500
Co	Co	0.31794 0.67832 0.34611 1.12600
Co	Co	0.31794 0.32168 0.65389 1.12600
H 	H 	0.08980 0.27170 0.50870 0.02600
H 	H 	0.70980 0.22100 0.55670 0.04800
H 	H 	0.08980 0.72830 0.49130 0.02600
H 	H 	0.70980 0.77900 0.44330 0.04800
H 	H 	0.58980 0.49130 0.27170 0.03600
H 	H 	0.20980 0.44330 0.22100 0.04600
H 	H 	0.58980 0.50870 0.72830 0.03600
H 	H 	0.20980 0.55670 0.77900 0.04600
H 	H 	0.08980 0.77170 0.99130 0.02600
H 	H 	0.70980 0.72100 0.94330 0.04800
H 	H 	0.08980 0.22830 0.00870 0.02600
H 	H 	0.70980 0.27900 0.05670 0.04800
H 	H 	0.58980 0.99130 0.22830 0.03600
H 	H 	0.20980 0.94330 0.27900 0.04600
H 	H 	0.58980 0.00870 0.77170 0.03600
H 	H 	0.20980 0.05670 0.72100 0.04600
C 	C 	0.81010 0.24090 0.67830 0.36600
C 	C 	0.85940 0.24580 0.60470 -0.04200
C 	C 	0.97150 0.26200 0.58870 -0.10600
C 	C 	0.01190 0.26210 0.51800 0.05200
C 	C 	0.93900 0.24820 0.46240 -0.10000
C 	C 	0.82290 0.23320 0.47550 -0.06700
C 	C 	0.78710 0.23190 0.54700 -0.00800
C 	C 	0.05770 0.28210 0.64480 0.39900
C 	C 	0.99250 0.25180 0.38940 0.33000
C 	C 	0.73330 0.22080 0.41990 0.32000
C 	C 	0.81010 0.75910 0.32170 0.36600
C 	C 	0.85940 0.75420 0.39530 -0.04200
C 	C 	0.97150 0.73800 0.41130 -0.10600
C 	C 	0.01190 0.73790 0.48200 0.05200
C 	C 	0.93900 0.75180 0.53760 -0.10000
C 	C 	0.82290 0.76680 0.52450 -0.06700
C 	C 	0.78710 0.76810 0.45300 -0.00800
C 	C 	0.05770 0.71790 0.35520 0.39900
C 	C 	0.99250 0.74820 0.61060 0.33000
C 	C 	0.73330 0.77920 0.58010 0.32000
C 	C 	0.31010 0.32170 0.24090 0.37100
C 	C 	0.35940 0.39530 0.24580 -0.05400
C 	C 	0.47150 0.41130 0.26200 -0.07400
C 	C 	0.51190 0.48200 0.26210 0.01300
C 	C 	0.43900 0.53760 0.24820 -0.07800
C 	C 	0.32290 0.52450 0.23320 -0.07700
C 	C 	0.28710 0.45300 0.23190 0.00400
C 	C 	0.55770 0.35520 0.28210 0.38300
C 	C 	0.49250 0.61060 0.25180 0.33500
C 	C 	0.23330 0.58010 0.22080 0.32400
C 	C 	0.31010 0.67830 0.75910 0.37100
C 	C 	0.35940 0.60470 0.75420 -0.05400
C 	C 	0.47150 0.58870 0.73800 -0.07400
C 	C 	0.51190 0.51800 0.73790 0.01300
C 	C 	0.43900 0.46240 0.75180 -0.07800
C 	C 	0.32290 0.47550 0.76680 -0.07700
C 	C 	0.28710 0.54700 0.76810 0.00400
C 	C 	0.55770 0.64480 0.71790 0.38300
C 	C 	0.49250 0.38940 0.74820 0.33500
C 	C 	0.23330 0.41990 0.77920 0.32400
C 	C 	0.81010 0.74090 0.82170 0.36600
C 	C 	0.85940 0.74580 0.89530 -0.04200
C 	C 	0.97150 0.76200 0.91130 -0.10500
C 	C 	0.01190 0.76210 0.98200 0.05100
C 	C 	0.93900 0.74820 0.03760 -0.10000
C 	C 	0.82290 0.73320 0.02450 -0.06800
C 	C 	0.78710 0.73190 0.95300 -0.00800
C 	C 	0.05770 0.78210 0.85520 0.39900
C 	C 	0.99250 0.75180 0.11060 0.33000
C 	C 	0.73330 0.72080 0.08010 0.32000
C 	C 	0.81010 0.25910 0.17830 0.36600
C 	C 	0.85940 0.25420 0.10470 -0.04200
C 	C 	0.97150 0.23800 0.08870 -0.10500
C 	C 	0.01190 0.23790 0.01800 0.05100
C 	C 	0.93900 0.25180 0.96240 -0.10000
C 	C 	0.82290 0.26680 0.97550 -0.06800
C 	C 	0.78710 0.26810 0.04700 -0.00800
C 	C 	0.05770 0.21790 0.14480 0.39900
C 	C 	0.99250 0.24820 0.88940 0.33000
C 	C 	0.73330 0.27920 0.91990 0.32000
C 	C 	0.31010 0.82170 0.25910 0.37100
C 	C 	0.35940 0.89530 0.25420 -0.05400
C 	C 	0.47150 0.91130 0.23800 -0.07400
C 	C 	0.51190 0.98200 0.23790 0.01300
C 	C 	0.43900 0.03760 0.25180 -0.07800
C 	C 	0.32290 0.02450 0.26680 -0.07700
C 	C 	0.28710 0.95300 0.26810 0.00400
C 	C 	0.55770 0.85520 0.21790 0.38300
C 	C 	0.49250 0.11060 0.24820 0.33500
C 	C 	0.23330 0.08010 0.27920 0.32400
C 	C 	0.31010 0.17830 0.74090 0.37100
C 	C 	0.35940 0.10470 0.74580 -0.05400
C 	C 	0.47150 0.08870 0.76200 -0.07400
C 	C 	0.51190 0.01800 0.76210 0.01300
C 	C 	0.43900 0.96240 0.74820 -0.07800
C 	C 	0.32290 0.97550 0.73320 -0.07700
C 	C 	0.28710 0.04700 0.73190 0.00400
C 	C 	0.55770 0.14480 0.78210 0.38300
C 	C 	0.49250 0.88940 0.75180 0.33500
C 	C 	0.23330 0.91990 0.72080 0.32400
O 	O 	0.82680 0.18710 0.71490 -0.44100
O 	O 	0.74040 0.29200 0.69520 -0.44800
O 	O 	0.03120 0.27740 0.70900 -0.47200
O 	O 	0.15310 0.30530 0.62260 -0.48600
O 	O 	0.07300 0.20750 0.37950 -0.41800
O 	O 	0.97130 0.30210 0.34540 -0.47300
O 	O 	0.75980 0.23740 0.35440 -0.54500
O 	O 	0.63880 0.19960 0.43540 -0.30100
O 	O 	0.82680 0.81290 0.28510 -0.44100
O 	O 	0.74040 0.70800 0.30480 -0.44800
O 	O 	0.03120 0.72260 0.29100 -0.47200
O 	O 	0.15310 0.69470 0.37740 -0.48600
O 	O 	0.07300 0.79250 0.62050 -0.41800
O 	O 	0.97130 0.69790 0.65460 -0.47300
O 	O 	0.75980 0.76260 0.64560 -0.54500
O 	O 	0.63880 0.80040 0.56460 -0.30100
O 	O 	0.32680 0.28510 0.18710 -0.44100
O 	O 	0.24040 0.30480 0.29200 -0.44700
O 	O 	0.53120 0.29100 0.27740 -0.47200
O 	O 	0.65310 0.37740 0.30530 -0.48400
O 	O 	0.57300 0.62050 0.20750 -0.42600
O 	O 	0.47130 0.65460 0.30210 -0.47000
O 	O 	0.25980 0.64560 0.23740 -0.54500
O 	O 	0.13880 0.56460 0.19960 -0.29900
O 	O 	0.32680 0.71490 0.81290 -0.44100
O 	O 	0.24040 0.69520 0.70800 -0.44700
O 	O 	0.53120 0.70900 0.72260 -0.47200
O 	O 	0.65310 0.62260 0.69470 -0.48400
O 	O 	0.57300 0.37950 0.79250 -0.42600
O 	O 	0.47130 0.34540 0.69790 -0.47000
O 	O 	0.25980 0.35440 0.76260 -0.54500
O 	O 	0.13880 0.43540 0.80040 -0.29900
O 	O 	0.82680 0.68710 0.78510 -0.44100
O 	O 	0.74040 0.79200 0.80480 -0.44800
O 	O 	0.03120 0.77740 0.79100 -0.47200
O 	O 	0.15310 0.80530 0.87740 -0.48600
O 	O 	0.07300 0.70750 0.12050 -0.41800
O 	O 	0.97130 0.80210 0.15460 -0.47300
O 	O 	0.75980 0.73740 0.14560 -0.54500
O 	O 	0.63880 0.69960 0.06460 -0.30100
O 	O 	0.82680 0.31290 0.21490 -0.44100
O 	O 	0.74040 0.20800 0.19520 -0.44800
O 	O 	0.03120 0.22260 0.20900 -0.47200
O 	O 	0.15310 0.19470 0.12260 -0.48600
O 	O 	0.07300 0.29250 0.87950 -0.41800
O 	O 	0.97130 0.19790 0.84540 -0.47300
O 	O 	0.75980 0.26260 0.85440 -0.54500
O 	O 	0.63880 0.30040 0.93540 -0.30100
O 	O 	0.32680 0.78510 0.31290 -0.44100
O 	O 	0.24040 0.80480 0.20800 -0.44700
O 	O 	0.53120 0.79100 0.22260 -0.47200
O 	O 	0.65310 0.87740 0.19470 -0.48400
O 	O 	0.57300 0.12050 0.29250 -0.42600
O 	O 	0.47130 0.15460 0.19790 -0.47000
O 	O 	0.25980 0.14560 0.26260 -0.54500
O 	O 	0.13880 0.06460 0.30040 -0.29900
O 	O 	0.32680 0.21490 0.68710 -0.44100
O 	O 	0.24040 0.19520 0.79200 -0.44700
O 	O 	0.53120 0.20900 0.77740 -0.47200
O 	O 	0.65310 0.12260 0.80530 -0.48400
O 	O 	0.57300 0.87950 0.70750 -0.42600
O 	O 	0.47130 0.84540 0.80210 -0.47000
O 	O 	0.25980 0.85440 0.73740 -0.54500
O 	O 	0.13880 0.93540 0.69960 -0.29900
