data_crystal

_cell_length_a 17.05440
_cell_length_b 22.18160
_cell_length_c 24.86320
_cell_angle_alpha 90.00000
_cell_angle_beta  90.00000
_cell_angle_gamma 90.00000

_symmetry_space_group_name_	'P 1'
_symmetry_space_group_name_H-M	'P 1'

loop_
_symmetry_equiv_pos_as_xyz
  x,y,z

loop_
_atom_site_label
_atom_site_type_symbol
_atom_site_fract_x
_atom_site_fract_y
_atom_site_fract_z
_atom_site_charge
Zn	Zn	0.01031 0.66686 0.38619 1.23300
Zn	Zn	0.48969 0.33314 0.88619 1.23300
Zn	Zn	0.01031 0.83314 0.38619 1.23300
Zn	Zn	0.48969 0.16686 0.88619 1.23300
Ni	Ni	0.12560 0.75000 0.31320 1.11300
Ni	Ni	0.37440 0.25000 0.81320 1.11300
H 	H 	0.66520 0.02280 0.99200 0.04000
H 	H 	0.78690 0.00690 0.02790 0.07500
H 	H 	0.85240 0.17240 0.98220 0.06800
H 	H 	0.72930 0.18800 0.94650 0.03800
H 	H 	0.88050 0.02690 0.09440 0.07100
H 	H 	0.11420 0.04010 0.07930 0.06800
H 	H 	0.97230 0.12280 0.97370 0.06800
H 	H 	0.91920 0.01620 0.18620 0.07300
H 	H 	0.93420 0.95110 0.25690 0.02800
H 	H 	0.11820 0.87580 0.18350 0.02600
H 	H 	0.10420 0.94180 0.11340 0.07500
H 	H 	0.19720 0.11410 0.05550 0.07700
H 	H 	0.30710 0.14410 0.00990 0.02700
H 	H 	0.18580 0.14050 0.87200 0.02500
H 	H 	0.07710 0.10720 0.91760 0.08000
H 	H 	0.23300 0.66270 0.25590 0.00300
H 	H 	0.31500 0.65990 0.18280 0.08900
H 	H 	0.83480 0.97720 0.49200 0.03900
H 	H 	0.71310 0.99310 0.52790 0.07400
H 	H 	0.64760 0.82760 0.48220 0.06700
H 	H 	0.77070 0.81200 0.44650 0.03700
H 	H 	0.61950 0.97310 0.59440 0.07000
H 	H 	0.38580 0.95990 0.57930 0.06700
H 	H 	0.52770 0.87720 0.47370 0.06700
H 	H 	0.58080 0.98380 0.68620 0.07600
H 	H 	0.56580 0.04890 0.75690 0.02600
H 	H 	0.38180 0.12420 0.68350 0.02400
H 	H 	0.39580 0.05820 0.61340 0.07600
H 	H 	0.30280 0.88590 0.55550 0.07600
H 	H 	0.19290 0.85590 0.50990 0.02800
H 	H 	0.31420 0.85950 0.37200 0.02600
H 	H 	0.42290 0.89280 0.41760 0.07900
H 	H 	0.26700 0.33730 0.75590 0.00300
H 	H 	0.18500 0.34010 0.68280 0.08900
H 	H 	0.66520 0.47720 0.99200 0.03900
H 	H 	0.78690 0.49310 0.02790 0.07400
H 	H 	0.85240 0.32760 0.98220 0.06700
H 	H 	0.72930 0.31200 0.94650 0.03700
H 	H 	0.88050 0.47310 0.09440 0.07000
H 	H 	0.11420 0.45990 0.07930 0.06700
H 	H 	0.97230 0.37720 0.97370 0.06600
H 	H 	0.91920 0.48380 0.18620 0.07500
H 	H 	0.93420 0.54890 0.25690 0.02600
H 	H 	0.11820 0.62420 0.18350 0.02400
H 	H 	0.10420 0.55820 0.11340 0.07600
H 	H 	0.19720 0.38590 0.05550 0.07700
H 	H 	0.30710 0.35590 0.00990 0.02700
H 	H 	0.18580 0.35950 0.87200 0.02500
H 	H 	0.07710 0.39280 0.91760 0.08000
H 	H 	0.23300 0.83730 0.25590 0.00300
H 	H 	0.31500 0.84010 0.18280 0.08900
H 	H 	0.83480 0.52280 0.49200 0.03900
H 	H 	0.71310 0.50690 0.52790 0.07400
H 	H 	0.64760 0.67240 0.48220 0.06700
H 	H 	0.77070 0.68800 0.44650 0.03700
H 	H 	0.61950 0.52690 0.59440 0.07000
H 	H 	0.38580 0.54010 0.57930 0.06700
H 	H 	0.52770 0.62280 0.47370 0.06800
H 	H 	0.58080 0.51620 0.68620 0.07600
H 	H 	0.56580 0.45110 0.75690 0.02600
H 	H 	0.38180 0.37580 0.68350 0.02400
H 	H 	0.39580 0.44180 0.61340 0.07600
H 	H 	0.30280 0.61410 0.55550 0.07600
H 	H 	0.19290 0.64410 0.50990 0.02800
H 	H 	0.31420 0.64050 0.37200 0.02600
H 	H 	0.42290 0.60720 0.41760 0.07900
H 	H 	0.26700 0.16270 0.75590 0.00300
H 	H 	0.18500 0.15990 0.68280 0.08900
H 	H 	0.35600 0.75000 0.14500 0.01000
H 	H 	0.14400 0.25000 0.64500 0.01000
C 	C 	0.60480 0.11670 0.94040 0.34100
C 	C 	0.68407 0.10633 0.96539 -0.10200
C 	C 	0.70270 0.05310 0.98990 0.03600
C 	C 	0.77570 0.04352 0.01140 -0.10900
C 	C 	0.83351 0.08803 0.00894 0.04100
C 	C 	0.81490 0.14205 0.98433 -0.10600
C 	C 	0.74110 0.15137 0.96280 0.03100
C 	C 	0.91369 0.07598 0.03047 0.04300
C 	C 	0.92422 0.04101 0.07592 -0.10700
C 	C 	0.99895 0.02638 0.09480 0.03700
C 	C 	0.06401 0.04918 0.06709 -0.10100
C 	C 	0.05515 0.08529 0.02154 0.03600
C 	C 	0.97911 0.09849 0.00384 -0.10500
C 	C 	0.00972 0.98658 0.14171 0.04900
C 	C 	0.95970 0.98810 0.18548 -0.11700
C 	C 	0.96870 0.94910 0.22795 0.05500
C 	C 	0.02840 0.90677 0.22825 -0.12800
C 	C 	0.07830 0.90438 0.18440 0.05500
C 	C 	0.06950 0.94376 0.14219 -0.12300
C 	C 	0.03835 0.86374 0.27445 0.38900
C 	C 	0.12502 0.10749 0.99223 0.05800
C 	C 	0.19480 0.11890 0.01840 -0.12800
C 	C 	0.26080 0.13720 0.99118 0.06100
C 	C 	0.25857 0.14562 0.93567 -0.13700
C 	C 	0.18860 0.13463 0.90899 0.06100
C 	C 	0.12305 0.11522 0.93640 -0.12800
C 	C 	0.32920 0.16514 0.90594 0.38800
C 	C 	0.24880 0.69890 0.24034 0.09800
C 	C 	0.29850 0.69670 0.19683 -0.15300
C 	C 	0.89520 0.88330 0.44040 0.34100
C 	C 	0.81593 0.89367 0.46539 -0.10200
C 	C 	0.79730 0.94690 0.48990 0.03600
C 	C 	0.72430 0.95648 0.51140 -0.10900
C 	C 	0.66649 0.91197 0.50894 0.04100
C 	C 	0.68510 0.85795 0.48433 -0.10600
C 	C 	0.75890 0.84863 0.46280 0.03100
C 	C 	0.58631 0.92402 0.53047 0.04300
C 	C 	0.57578 0.95899 0.57592 -0.10600
C 	C 	0.50105 0.97362 0.59480 0.03600
C 	C 	0.43599 0.95082 0.56709 -0.10200
C 	C 	0.44485 0.91471 0.52154 0.03700
C 	C 	0.52089 0.90151 0.50384 -0.10500
C 	C 	0.49028 0.01342 0.64171 0.05400
C 	C 	0.54030 0.01190 0.68548 -0.12400
C 	C 	0.53130 0.05090 0.72795 0.05700
C 	C 	0.47160 0.09323 0.72825 -0.12800
C 	C 	0.42170 0.09562 0.68440 0.05700
C 	C 	0.43050 0.05624 0.64219 -0.12600
C 	C 	0.46165 0.13626 0.77445 0.39000
C 	C 	0.37498 0.89251 0.49223 0.05600
C 	C 	0.30520 0.88110 0.51840 -0.12600
C 	C 	0.23920 0.86280 0.49118 0.05900
C 	C 	0.24143 0.85438 0.43567 -0.13600
C 	C 	0.31140 0.86537 0.40899 0.05900
C 	C 	0.37695 0.88478 0.43640 -0.12700
C 	C 	0.17080 0.83486 0.40594 0.38800
C 	C 	0.25120 0.30110 0.74034 0.09800
C 	C 	0.20150 0.30330 0.69683 -0.15300
C 	C 	0.60480 0.38330 0.94040 0.34200
C 	C 	0.68407 0.39367 0.96539 -0.10200
C 	C 	0.70270 0.44690 0.98990 0.03600
C 	C 	0.77570 0.45648 0.01140 -0.10900
C 	C 	0.83351 0.41197 0.00894 0.04200
C 	C 	0.81490 0.35795 0.98433 -0.10700
C 	C 	0.74110 0.34863 0.96280 0.03100
C 	C 	0.91369 0.42402 0.03047 0.04200
C 	C 	0.92422 0.45899 0.07592 -0.10600
C 	C 	0.99895 0.47362 0.09480 0.03700
C 	C 	0.06401 0.45082 0.06709 -0.10200
C 	C 	0.05515 0.41471 0.02154 0.03500
C 	C 	0.97911 0.40151 0.00384 -0.10300
C 	C 	0.00972 0.51342 0.14171 0.05300
C 	C 	0.95970 0.51190 0.18548 -0.12300
C 	C 	0.96870 0.55090 0.22795 0.05700
C 	C 	0.02840 0.59323 0.22825 -0.12800
C 	C 	0.07830 0.59562 0.18440 0.05600
C 	C 	0.06950 0.55624 0.14219 -0.12600
C 	C 	0.03835 0.63626 0.27445 0.39000
C 	C 	0.12502 0.39251 0.99223 0.05800
C 	C 	0.19480 0.38110 0.01840 -0.12900
C 	C 	0.26080 0.36280 0.99118 0.06100
C 	C 	0.25857 0.35438 0.93567 -0.13700
C 	C 	0.18860 0.36537 0.90899 0.06100
C 	C 	0.12305 0.38478 0.93640 -0.12800
C 	C 	0.32920 0.33486 0.90594 0.38800
C 	C 	0.24880 0.80110 0.24034 0.09800
C 	C 	0.29850 0.80330 0.19683 -0.15300
C 	C 	0.89520 0.61670 0.44040 0.34100
C 	C 	0.81593 0.60633 0.46539 -0.10200
C 	C 	0.79730 0.55310 0.48990 0.03600
C 	C 	0.72430 0.54352 0.51140 -0.10900
C 	C 	0.66649 0.58803 0.50894 0.04100
C 	C 	0.68510 0.64205 0.48433 -0.10600
C 	C 	0.75890 0.65137 0.46280 0.03100
C 	C 	0.58631 0.57598 0.53047 0.04300
C 	C 	0.57578 0.54101 0.57592 -0.10700
C 	C 	0.50105 0.52638 0.59480 0.03600
C 	C 	0.43599 0.54918 0.56709 -0.10200
C 	C 	0.44485 0.58529 0.52154 0.03700
C 	C 	0.52089 0.59849 0.50384 -0.10500
C 	C 	0.49028 0.48658 0.64171 0.05400
C 	C 	0.54030 0.48810 0.68548 -0.12400
C 	C 	0.53130 0.44910 0.72795 0.05700
C 	C 	0.47160 0.40677 0.72825 -0.12800
C 	C 	0.42170 0.40438 0.68440 0.05600
C 	C 	0.43050 0.44376 0.64219 -0.12600
C 	C 	0.46165 0.36374 0.77445 0.38900
C 	C 	0.37498 0.60749 0.49223 0.05600
C 	C 	0.30520 0.61890 0.51840 -0.12600
C 	C 	0.23920 0.63720 0.49118 0.05900
C 	C 	0.24143 0.64562 0.43567 -0.13600
C 	C 	0.31140 0.63463 0.40899 0.05900
C 	C 	0.37695 0.61522 0.43640 -0.12700
C 	C 	0.17080 0.66514 0.40594 0.38800
C 	C 	0.25120 0.19890 0.74034 0.09800
C 	C 	0.20150 0.19670 0.69683 -0.15300
C 	C 	0.32300 0.75000 0.17480 0.07700
C 	C 	0.17700 0.25000 0.67480 0.07700
N 	N 	0.22240 0.75000 0.26119 -0.21800
N 	N 	0.27760 0.25000 0.76119 -0.21700
O 	O 	0.59235 0.16753 0.91963 -0.45400
O 	O 	0.55510 0.07664 0.94091 -0.31300
O 	O 	0.00695 0.87881 0.31867 -0.46600
O 	O 	0.07684 0.81692 0.26522 -0.41600
O 	O 	0.39488 0.15973 0.92889 -0.48000
O 	O 	0.32004 0.18468 0.85908 -0.44300
O 	O 	0.90765 0.83247 0.41963 -0.45300
O 	O 	0.94490 0.92336 0.44091 -0.31300
O 	O 	0.49305 0.12119 0.81867 -0.46500
O 	O 	0.42316 0.18308 0.76522 -0.41600
O 	O 	0.10512 0.84027 0.42889 -0.48000
O 	O 	0.17996 0.81532 0.35908 -0.44300
O 	O 	0.59235 0.33247 0.91963 -0.45400
O 	O 	0.55510 0.42336 0.94091 -0.31300
O 	O 	0.00695 0.62119 0.31867 -0.46500
O 	O 	0.07684 0.68308 0.26522 -0.41600
O 	O 	0.39488 0.34027 0.92889 -0.48000
O 	O 	0.32004 0.31532 0.85908 -0.44300
O 	O 	0.90765 0.66753 0.41963 -0.45300
O 	O 	0.94490 0.57664 0.44091 -0.31300
O 	O 	0.49305 0.37881 0.81867 -0.46500
O 	O 	0.42316 0.31692 0.76522 -0.41600
O 	O 	0.10512 0.65973 0.42889 -0.48000
O 	O 	0.17996 0.68468 0.35908 -0.44300
O 	O 	0.01889 0.75000 0.35522 -0.62000
O 	O 	0.48111 0.25000 0.85522 -0.62000
Zn	Zn	0.98969 0.16686 0.61381 1.23200
Zn	Zn	0.51031 0.83314 0.11381 1.23200
Zn	Zn	0.98969 0.33314 0.61381 1.23200
Zn	Zn	0.51031 0.66686 0.11381 1.23200
Ni	Ni	0.87440 0.25000 0.68680 1.11200
Ni	Ni	0.62560 0.75000 0.18680 1.11200
H 	H 	0.33480 0.52280 0.00800 0.03900
H 	H 	0.21310 0.50690 0.97210 0.07400
H 	H 	0.14760 0.67240 0.01780 0.06700
H 	H 	0.27070 0.68800 0.05350 0.03700
H 	H 	0.11950 0.52690 0.90560 0.07000
H 	H 	0.88580 0.54010 0.92070 0.06700
H 	H 	0.02770 0.62280 0.02630 0.06600
H 	H 	0.08080 0.51620 0.81380 0.07500
H 	H 	0.06580 0.45110 0.74310 0.02600
H 	H 	0.88180 0.37580 0.81650 0.02400
H 	H 	0.89580 0.44180 0.88660 0.07600
H 	H 	0.80280 0.61410 0.94450 0.07700
H 	H 	0.69290 0.64410 0.99010 0.02700
H 	H 	0.81420 0.64050 0.12800 0.02500
H 	H 	0.92290 0.60720 0.08240 0.08000
H 	H 	0.76700 0.16270 0.74410 0.00300
H 	H 	0.68500 0.15990 0.81720 0.08900
H 	H 	0.16520 0.47720 0.50800 0.03900
H 	H 	0.28690 0.49310 0.47210 0.07400
H 	H 	0.35240 0.32760 0.51780 0.06700
H 	H 	0.22930 0.31200 0.55350 0.03700
H 	H 	0.38050 0.47310 0.40560 0.07000
H 	H 	0.61420 0.45990 0.42070 0.06700
H 	H 	0.47230 0.37720 0.52630 0.06800
H 	H 	0.41920 0.48380 0.31380 0.07600
H 	H 	0.43420 0.54890 0.24310 0.02600
H 	H 	0.61820 0.62420 0.31650 0.02400
H 	H 	0.60420 0.55820 0.38660 0.07600
H 	H 	0.69720 0.38590 0.44450 0.07600
H 	H 	0.80710 0.35590 0.49010 0.02800
H 	H 	0.68580 0.35950 0.62800 0.02600
H 	H 	0.57710 0.39280 0.58240 0.07900
H 	H 	0.73300 0.83730 0.24410 0.00300
H 	H 	0.81500 0.84010 0.31720 0.08900
H 	H 	0.33480 0.97720 0.00800 0.03900
H 	H 	0.21310 0.99310 0.97210 0.07400
H 	H 	0.14760 0.82760 0.01780 0.06700
H 	H 	0.27070 0.81200 0.05350 0.03700
H 	H 	0.11950 0.97310 0.90560 0.07000
H 	H 	0.88580 0.95990 0.92070 0.06700
H 	H 	0.02770 0.87720 0.02630 0.06700
H 	H 	0.08080 0.98380 0.81380 0.07200
H 	H 	0.06580 0.04890 0.74310 0.02700
H 	H 	0.88180 0.12420 0.81650 0.02500
H 	H 	0.89580 0.05820 0.88660 0.07500
H 	H 	0.80280 0.88590 0.94450 0.07700
H 	H 	0.69290 0.85590 0.99010 0.02700
H 	H 	0.81420 0.85950 0.12800 0.02500
H 	H 	0.92290 0.89280 0.08240 0.08000
H 	H 	0.76700 0.33730 0.74410 0.00300
H 	H 	0.68500 0.34010 0.81720 0.08900
H 	H 	0.16520 0.02280 0.50800 0.03900
H 	H 	0.28690 0.00690 0.47210 0.07400
H 	H 	0.35240 0.17240 0.51780 0.06700
H 	H 	0.22930 0.18800 0.55350 0.03700
H 	H 	0.38050 0.02690 0.40560 0.07000
H 	H 	0.61420 0.04010 0.42070 0.06700
H 	H 	0.47230 0.12280 0.52630 0.06700
H 	H 	0.41920 0.01620 0.31380 0.07600
H 	H 	0.43420 0.95110 0.24310 0.02600
H 	H 	0.61820 0.87580 0.31650 0.02400
H 	H 	0.60420 0.94180 0.38660 0.07600
H 	H 	0.69720 0.11410 0.44450 0.07600
H 	H 	0.80710 0.14410 0.49010 0.02800
H 	H 	0.68580 0.14050 0.62800 0.02600
H 	H 	0.57710 0.10720 0.58240 0.07900
H 	H 	0.73300 0.66270 0.24410 0.00300
H 	H 	0.81500 0.65990 0.31720 0.08900
H 	H 	0.64400 0.25000 0.85500 0.01000
H 	H 	0.85600 0.75000 0.35500 0.01000
C 	C 	0.39520 0.61670 0.05960 0.34200
C 	C 	0.31593 0.60633 0.03461 -0.10200
C 	C 	0.29730 0.55310 0.01010 0.03600
C 	C 	0.22430 0.54352 0.98860 -0.10900
C 	C 	0.16649 0.58803 0.99106 0.04200
C 	C 	0.18510 0.64205 0.01567 -0.10700
C 	C 	0.25890 0.65137 0.03720 0.03100
C 	C 	0.08631 0.57598 0.96953 0.04200
C 	C 	0.07578 0.54101 0.92408 -0.10600
C 	C 	0.00105 0.52638 0.90520 0.03700
C 	C 	0.93599 0.54918 0.93291 -0.10200
C 	C 	0.94485 0.58529 0.97846 0.03500
C 	C 	0.02089 0.59849 0.99616 -0.10300
C 	C 	0.99028 0.48658 0.85829 0.05300
C 	C 	0.04030 0.48810 0.81452 -0.12300
C 	C 	0.03130 0.44910 0.77205 0.05700
C 	C 	0.97160 0.40677 0.77175 -0.12800
C 	C 	0.92170 0.40438 0.81560 0.05600
C 	C 	0.93050 0.44376 0.85781 -0.12600
C 	C 	0.96165 0.36374 0.72555 0.39000
C 	C 	0.87498 0.60749 0.00777 0.05800
C 	C 	0.80520 0.61890 0.98160 -0.12900
C 	C 	0.73920 0.63720 0.00882 0.06100
C 	C 	0.74143 0.64562 0.06433 -0.13700
C 	C 	0.81140 0.63463 0.09101 0.06100
C 	C 	0.87695 0.61522 0.06360 -0.12800
C 	C 	0.67080 0.66514 0.09406 0.38800
C 	C 	0.75120 0.19890 0.75966 0.09800
C 	C 	0.70150 0.19670 0.80317 -0.15300
C 	C 	0.10480 0.38330 0.55960 0.34100
C 	C 	0.18407 0.39367 0.53461 -0.10200
C 	C 	0.20270 0.44690 0.51010 0.03600
C 	C 	0.27570 0.45648 0.48860 -0.10900
C 	C 	0.33351 0.41197 0.49106 0.04100
C 	C 	0.31490 0.35795 0.51567 -0.10600
C 	C 	0.24110 0.34863 0.53720 0.03100
C 	C 	0.41369 0.42402 0.46953 0.04300
C 	C 	0.42422 0.45899 0.42408 -0.10700
C 	C 	0.49895 0.47362 0.40520 0.03600
C 	C 	0.56401 0.45082 0.43291 -0.10200
C 	C 	0.55515 0.41471 0.47846 0.03700
C 	C 	0.47911 0.40151 0.49616 -0.10500
C 	C 	0.50972 0.51342 0.35829 0.05400
C 	C 	0.45970 0.51190 0.31452 -0.12400
C 	C 	0.46870 0.55090 0.27205 0.05700
C 	C 	0.52840 0.59323 0.27175 -0.12800
C 	C 	0.57830 0.59562 0.31560 0.05600
C 	C 	0.56950 0.55624 0.35781 -0.12600
C 	C 	0.53835 0.63626 0.22555 0.38900
C 	C 	0.62502 0.39251 0.50777 0.05600
C 	C 	0.69480 0.38110 0.48160 -0.12600
C 	C 	0.76080 0.36280 0.50882 0.05900
C 	C 	0.75857 0.35438 0.56433 -0.13600
C 	C 	0.68860 0.36537 0.59101 0.05900
C 	C 	0.62305 0.38478 0.56360 -0.12700
C 	C 	0.82920 0.33486 0.59406 0.38800
C 	C 	0.74880 0.80110 0.25966 0.09800
C 	C 	0.79850 0.80330 0.30317 -0.15300
C 	C 	0.39520 0.88330 0.05960 0.34100
C 	C 	0.31593 0.89367 0.03461 -0.10200
C 	C 	0.29730 0.94690 0.01010 0.03600
C 	C 	0.22430 0.95648 0.98860 -0.10900
C 	C 	0.16649 0.91197 0.99106 0.04100
C 	C 	0.18510 0.85795 0.01567 -0.10600
C 	C 	0.25890 0.84863 0.03720 0.03100
C 	C 	0.08631 0.92402 0.96953 0.04300
C 	C 	0.07578 0.95899 0.92408 -0.10700
C 	C 	0.00105 0.97362 0.90520 0.03700
C 	C 	0.93599 0.95082 0.93291 -0.10100
C 	C 	0.94485 0.91471 0.97846 0.03600
C 	C 	0.02089 0.90151 0.99616 -0.10500
C 	C 	0.99028 0.01342 0.85829 0.04900
C 	C 	0.04030 0.01190 0.81452 -0.11700
C 	C 	0.03130 0.05090 0.77205 0.05500
C 	C 	0.97160 0.09323 0.77175 -0.12800
C 	C 	0.92170 0.09562 0.81560 0.05500
C 	C 	0.93050 0.05624 0.85781 -0.12300
C 	C 	0.96165 0.13626 0.72555 0.38900
C 	C 	0.87498 0.89251 0.00777 0.05800
C 	C 	0.80520 0.88110 0.98160 -0.12800
C 	C 	0.73920 0.86280 0.00882 0.06100
C 	C 	0.74143 0.85438 0.06433 -0.13700
C 	C 	0.81140 0.86537 0.09101 0.06100
C 	C 	0.87695 0.88478 0.06360 -0.12800
C 	C 	0.67080 0.83486 0.09406 0.38800
C 	C 	0.75120 0.30110 0.75966 0.09800
C 	C 	0.70150 0.30330 0.80317 -0.15300
C 	C 	0.10480 0.11670 0.55960 0.34100
C 	C 	0.18407 0.10633 0.53461 -0.10200
C 	C 	0.20270 0.05310 0.51010 0.03600
C 	C 	0.27570 0.04352 0.48860 -0.10900
C 	C 	0.33351 0.08803 0.49106 0.04100
C 	C 	0.31490 0.14205 0.51567 -0.10600
C 	C 	0.24110 0.15137 0.53720 0.03100
C 	C 	0.41369 0.07598 0.46953 0.04300
C 	C 	0.42422 0.04101 0.42408 -0.10600
C 	C 	0.49895 0.02638 0.40520 0.03600
C 	C 	0.56401 0.04918 0.43291 -0.10200
C 	C 	0.55515 0.08529 0.47846 0.03700
C 	C 	0.47911 0.09849 0.49616 -0.10500
C 	C 	0.50972 0.98658 0.35829 0.05400
C 	C 	0.45970 0.98810 0.31452 -0.12400
C 	C 	0.46870 0.94910 0.27205 0.05700
C 	C 	0.52840 0.90677 0.27175 -0.12800
C 	C 	0.57830 0.90438 0.31560 0.05700
C 	C 	0.56950 0.94376 0.35781 -0.12600
C 	C 	0.53835 0.86374 0.22555 0.39000
C 	C 	0.62502 0.10749 0.50777 0.05600
C 	C 	0.69480 0.11890 0.48160 -0.12600
C 	C 	0.76080 0.13720 0.50882 0.05900
C 	C 	0.75857 0.14562 0.56433 -0.13600
C 	C 	0.68860 0.13463 0.59101 0.05900
C 	C 	0.62305 0.11522 0.56360 -0.12700
C 	C 	0.82920 0.16514 0.59406 0.38800
C 	C 	0.74880 0.69890 0.25966 0.09800
C 	C 	0.79850 0.69670 0.30317 -0.15300
C 	C 	0.67700 0.25000 0.82520 0.07700
C 	C 	0.82300 0.75000 0.32520 0.07700
N 	N 	0.77760 0.25000 0.73881 -0.21800
N 	N 	0.72240 0.75000 0.23881 -0.21700
O 	O 	0.40765 0.66753 0.08037 -0.45400
O 	O 	0.44490 0.57664 0.05909 -0.31300
O 	O 	0.99305 0.37881 0.68133 -0.46500
O 	O 	0.92316 0.31692 0.73478 -0.41600
O 	O 	0.60512 0.65973 0.07111 -0.48000
O 	O 	0.67996 0.68468 0.14092 -0.44300
O 	O 	0.09235 0.33247 0.58037 -0.45300
O 	O 	0.05510 0.42336 0.55909 -0.31300
O 	O 	0.50695 0.62119 0.18133 -0.46500
O 	O 	0.57684 0.68308 0.23478 -0.41600
O 	O 	0.89488 0.34027 0.57111 -0.48000
O 	O 	0.82004 0.31532 0.64092 -0.44300
O 	O 	0.40765 0.83247 0.08037 -0.45400
O 	O 	0.44490 0.92336 0.05909 -0.31300
O 	O 	0.99305 0.12119 0.68133 -0.46600
O 	O 	0.92316 0.18308 0.73478 -0.41600
O 	O 	0.60512 0.84027 0.07111 -0.48000
O 	O 	0.67996 0.81532 0.14092 -0.44300
O 	O 	0.09235 0.16753 0.58037 -0.45300
O 	O 	0.05510 0.07664 0.55909 -0.31300
O 	O 	0.50695 0.87881 0.18133 -0.46500
O 	O 	0.57684 0.81692 0.23478 -0.41600
O 	O 	0.89488 0.15973 0.57111 -0.48000
O 	O 	0.82004 0.18468 0.64092 -0.44300
O 	O 	0.98111 0.25000 0.64478 -0.62000
O 	O 	0.51889 0.75000 0.14478 -0.62000
