data_crystal

_cell_length_a 16.98920
_cell_length_b 20.62710
_cell_length_c 25.83090
_cell_angle_alpha 90.00000
_cell_angle_beta  90.00000
_cell_angle_gamma 90.00000

_symmetry_space_group_name_	'P 1'
_symmetry_space_group_name_H-M	'P 1'

loop_
_symmetry_equiv_pos_as_xyz
  x,y,z

loop_
_atom_site_label
_atom_site_type_symbol
_atom_site_fract_x
_atom_site_fract_y
_atom_site_fract_z
_atom_site_charge
Zn	Zn	0.48468 0.83895 0.88147 1.23000
Zn	Zn	0.01532 0.16105 0.38147 1.23000
Zn	Zn	0.48468 0.66105 0.88147 1.23100
Zn	Zn	0.01532 0.33895 0.38147 1.23100
Co	Co	0.36847 0.75000 0.81134 1.17800
Co	Co	0.13153 0.25000 0.31134 1.17800
H 	H 	0.84170 0.48410 0.49630 0.04200
H 	H 	0.71990 0.49690 0.53310 0.07300
H 	H 	0.65390 0.32470 0.47420 0.06500
H 	H 	0.77590 0.31380 0.43680 0.03900
H 	H 	0.62370 0.46790 0.59450 0.07200
H 	H 	0.39040 0.45060 0.57850 0.07100
H 	H 	0.53410 0.37890 0.46980 0.07000
H 	H 	0.58350 0.47000 0.68520 0.07200
H 	H 	0.56340 0.53210 0.75650 0.02700
H 	H 	0.37770 0.61620 0.68700 0.02700
H 	H 	0.39530 0.55140 0.61640 0.07200
H 	H 	0.30840 0.37000 0.55040 0.07300
H 	H 	0.19720 0.34750 0.50350 0.03000
H 	H 	0.31860 0.36690 0.37220 0.02800
H 	H 	0.42920 0.39580 0.41850 0.07500
H 	H 	0.25950 0.65540 0.75480 0.00500
H 	H 	0.17860 0.65320 0.68340 0.08600
H 	H 	0.65830 0.51590 0.99630 0.04200
H 	H 	0.78010 0.50310 0.03310 0.07300
H 	H 	0.84610 0.67530 0.97420 0.06500
H 	H 	0.72410 0.68620 0.93680 0.03800
H 	H 	0.87630 0.53210 0.09450 0.07200
H 	H 	0.10960 0.54940 0.07850 0.07100
H 	H 	0.96590 0.62110 0.96980 0.06800
H 	H 	0.91650 0.53000 0.18520 0.07200
H 	H 	0.93660 0.46790 0.25650 0.02700
H 	H 	0.12230 0.38380 0.18700 0.02700
H 	H 	0.10470 0.44860 0.11640 0.07200
H 	H 	0.19160 0.63000 0.05040 0.07400
H 	H 	0.30280 0.65250 0.00350 0.03000
H 	H 	0.18140 0.63310 0.87220 0.02800
H 	H 	0.07080 0.60420 0.91850 0.07500
H 	H 	0.24050 0.34460 0.25480 0.00500
H 	H 	0.32140 0.34680 0.18340 0.08600
H 	H 	0.84170 0.01590 0.49630 0.04200
H 	H 	0.71990 0.00310 0.53310 0.07300
H 	H 	0.65390 0.17530 0.47420 0.06500
H 	H 	0.77590 0.18620 0.43680 0.03900
H 	H 	0.62370 0.03210 0.59450 0.07200
H 	H 	0.39040 0.04940 0.57850 0.07100
H 	H 	0.53410 0.12110 0.46980 0.07000
H 	H 	0.58350 0.03000 0.68520 0.07200
H 	H 	0.56340 0.96790 0.75650 0.02700
H 	H 	0.37770 0.88380 0.68700 0.02700
H 	H 	0.39530 0.94860 0.61640 0.07200
H 	H 	0.30840 0.13000 0.55040 0.07300
H 	H 	0.19720 0.15250 0.50350 0.03000
H 	H 	0.31860 0.13310 0.37220 0.02800
H 	H 	0.42920 0.10420 0.41850 0.07500
H 	H 	0.25950 0.84460 0.75480 0.00500
H 	H 	0.17860 0.84680 0.68340 0.08600
H 	H 	0.65830 0.98410 0.99630 0.04200
H 	H 	0.78010 0.99690 0.03310 0.07300
H 	H 	0.84610 0.82470 0.97420 0.06500
H 	H 	0.72410 0.81380 0.93680 0.03800
H 	H 	0.87630 0.96790 0.09450 0.07200
H 	H 	0.10960 0.95060 0.07850 0.07100
H 	H 	0.96590 0.87890 0.96980 0.06800
H 	H 	0.91650 0.97000 0.18520 0.07400
H 	H 	0.93660 0.03210 0.25650 0.02600
H 	H 	0.12230 0.11620 0.18700 0.02600
H 	H 	0.10470 0.05140 0.11640 0.07200
H 	H 	0.19160 0.87000 0.05040 0.07400
H 	H 	0.30280 0.84750 0.00350 0.03000
H 	H 	0.18140 0.86690 0.87220 0.02800
H 	H 	0.07080 0.89580 0.91850 0.07600
H 	H 	0.24050 0.15540 0.25480 0.00400
H 	H 	0.32140 0.15320 0.18340 0.08600
H 	H 	0.14000 0.75000 0.64620 0.01600
H 	H 	0.36000 0.25000 0.14620 0.01600
C 	C 	0.90050 0.39090 0.43760 0.33100
C 	C 	0.82210 0.39850 0.46298 -0.09700
C 	C 	0.80380 0.45210 0.49160 0.03100
C 	C 	0.73070 0.46000 0.51378 -0.10200
C 	C 	0.67230 0.41230 0.50735 0.03500
C 	C 	0.69120 0.35730 0.47853 -0.10000
C 	C 	0.76450 0.35050 0.45633 0.02600
C 	C 	0.59190 0.42090 0.52925 0.04900
C 	C 	0.58030 0.45360 0.57570 -0.11300
C 	C 	0.50500 0.46540 0.59440 0.04500
C 	C 	0.44090 0.44280 0.56620 -0.11100
C 	C 	0.45050 0.40870 0.51994 0.04600
C 	C 	0.52660 0.39960 0.50137 -0.11200
C 	C 	0.49180 0.50330 0.64230 0.04300
C 	C 	0.54170 0.49920 0.68564 -0.11500
C 	C 	0.53030 0.53680 0.72813 0.05100
C 	C 	0.46960 0.58220 0.72980 -0.12100
C 	C 	0.41900 0.58660 0.68660 0.04700
C 	C 	0.42970 0.54800 0.64434 -0.11600
C 	C 	0.45790 0.62640 0.77483 0.38100
C 	C 	0.38120 0.38810 0.48997 0.04600
C 	C 	0.31050 0.37110 0.51448 -0.11600
C 	C 	0.24420 0.35610 0.48637 0.05000
C 	C 	0.24700 0.35350 0.43298 -0.12700
C 	C 	0.31640 0.36840 0.40812 0.04800
C 	C 	0.38290 0.38570 0.43597 -0.11600
C 	C 	0.17560 0.33830 0.40200 0.37300
C 	C 	0.24440 0.69440 0.73955 0.08800
C 	C 	0.19530 0.69250 0.69706 -0.14300
C 	C 	0.59950 0.60910 0.93760 0.33100
C 	C 	0.67790 0.60150 0.96298 -0.09800
C 	C 	0.69620 0.54790 0.99160 0.03100
C 	C 	0.76930 0.54000 0.01378 -0.10200
C 	C 	0.82770 0.58770 0.00735 0.03600
C 	C 	0.80880 0.64270 0.97853 -0.10100
C 	C 	0.73550 0.64950 0.95633 0.02700
C 	C 	0.90810 0.57910 0.02925 0.04800
C 	C 	0.91970 0.54640 0.07570 -0.11300
C 	C 	0.99500 0.53460 0.09440 0.04500
C 	C 	0.05910 0.55720 0.06620 -0.11000
C 	C 	0.04950 0.59130 0.01994 0.04400
C 	C 	0.97340 0.60040 0.00137 -0.10900
C 	C 	0.00820 0.49670 0.14230 0.04200
C 	C 	0.95830 0.50080 0.18564 -0.11500
C 	C 	0.96970 0.46320 0.22813 0.05100
C 	C 	0.03040 0.41780 0.22980 -0.12200
C 	C 	0.08100 0.41340 0.18660 0.04700
C 	C 	0.07030 0.45200 0.14434 -0.11600
C 	C 	0.04210 0.37360 0.27483 0.38100
C 	C 	0.11880 0.61190 0.98997 0.04800
C 	C 	0.18950 0.62890 0.01448 -0.11900
C 	C 	0.25580 0.64390 0.98637 0.05300
C 	C 	0.25300 0.64650 0.93298 -0.12900
C 	C 	0.18360 0.63160 0.90812 0.05000
C 	C 	0.11710 0.61430 0.93597 -0.11800
C 	C 	0.32440 0.66170 0.90200 0.37300
C 	C 	0.25560 0.30560 0.23955 0.08800
C 	C 	0.30470 0.30750 0.19706 -0.14300
C 	C 	0.90050 0.10910 0.43760 0.33100
C 	C 	0.82210 0.10150 0.46298 -0.09700
C 	C 	0.80380 0.04790 0.49160 0.03100
C 	C 	0.73070 0.04000 0.51378 -0.10200
C 	C 	0.67230 0.08770 0.50735 0.03500
C 	C 	0.69120 0.14270 0.47853 -0.10000
C 	C 	0.76450 0.14950 0.45633 0.02600
C 	C 	0.59190 0.07910 0.52925 0.04900
C 	C 	0.58030 0.04640 0.57570 -0.11400
C 	C 	0.50500 0.03460 0.59440 0.04500
C 	C 	0.44090 0.05720 0.56620 -0.11100
C 	C 	0.45050 0.09130 0.51994 0.04600
C 	C 	0.52660 0.10040 0.50137 -0.11200
C 	C 	0.49180 0.99670 0.64230 0.04200
C 	C 	0.54170 0.00080 0.68564 -0.11400
C 	C 	0.53030 0.96320 0.72813 0.05000
C 	C 	0.46960 0.91780 0.72980 -0.12100
C 	C 	0.41900 0.91340 0.68660 0.04700
C 	C 	0.42970 0.95200 0.64434 -0.11600
C 	C 	0.45790 0.87360 0.77483 0.38100
C 	C 	0.38120 0.11190 0.48997 0.04600
C 	C 	0.31050 0.12890 0.51448 -0.11600
C 	C 	0.24420 0.14390 0.48637 0.05000
C 	C 	0.24700 0.14650 0.43298 -0.12700
C 	C 	0.31640 0.13160 0.40812 0.04800
C 	C 	0.38290 0.11430 0.43597 -0.11600
C 	C 	0.17560 0.16170 0.40200 0.37300
C 	C 	0.24440 0.80560 0.73955 0.08800
C 	C 	0.19530 0.80750 0.69706 -0.14300
C 	C 	0.59950 0.89090 0.93760 0.33100
C 	C 	0.67790 0.89850 0.96298 -0.09700
C 	C 	0.69620 0.95210 0.99160 0.03000
C 	C 	0.76930 0.96000 0.01378 -0.10200
C 	C 	0.82770 0.91230 0.00735 0.03600
C 	C 	0.80880 0.85730 0.97853 -0.10100
C 	C 	0.73550 0.85050 0.95633 0.02600
C 	C 	0.90810 0.92090 0.02925 0.04800
C 	C 	0.91970 0.95360 0.07570 -0.11200
C 	C 	0.99500 0.96540 0.09440 0.04300
C 	C 	0.05910 0.94280 0.06620 -0.10900
C 	C 	0.04950 0.90870 0.01994 0.04400
C 	C 	0.97340 0.89960 0.00137 -0.11000
C 	C 	0.00820 0.00330 0.14230 0.04400
C 	C 	0.95830 0.99920 0.18564 -0.11900
C 	C 	0.96970 0.03680 0.22813 0.05700
C 	C 	0.03040 0.08220 0.22980 -0.12500
C 	C 	0.08100 0.08660 0.18660 0.05000
C 	C 	0.07030 0.04800 0.14434 -0.11800
C 	C 	0.04210 0.12640 0.27483 0.38200
C 	C 	0.11880 0.88810 0.98997 0.04800
C 	C 	0.18950 0.87110 0.01448 -0.11700
C 	C 	0.25580 0.85610 0.98637 0.05200
C 	C 	0.25300 0.85350 0.93298 -0.12800
C 	C 	0.18360 0.86840 0.90812 0.04900
C 	C 	0.11710 0.88570 0.93597 -0.11700
C 	C 	0.32440 0.83830 0.90200 0.37300
C 	C 	0.25560 0.19440 0.23955 0.08800
C 	C 	0.30470 0.19250 0.19706 -0.14300
C 	C 	0.17180 0.75000 0.67540 0.06600
C 	C 	0.32820 0.25000 0.17540 0.06500
N 	N 	0.27110 0.75000 0.75976 -0.21900
N 	N 	0.22890 0.25000 0.25976 -0.21900
O 	O 	0.91239 0.33813 0.41360 -0.44900
O 	O 	0.95116 0.43403 0.43988 -0.30300
O 	O 	0.48829 0.61007 0.81733 -0.46600
O 	O 	0.41824 0.67772 0.76591 -0.42000
O 	O 	0.10869 0.34363 0.42449 -0.47200
O 	O 	0.18389 0.32103 0.35596 -0.45400
O 	O 	0.58761 0.66187 0.91360 -0.44900
O 	O 	0.54884 0.56597 0.93988 -0.30400
O 	O 	0.01171 0.38993 0.31733 -0.46600
O 	O 	0.08176 0.32228 0.26591 -0.42000
O 	O 	0.39131 0.65637 0.92449 -0.47200
O 	O 	0.31611 0.67897 0.85596 -0.45400
O 	O 	0.91239 0.16187 0.41360 -0.44800
O 	O 	0.95116 0.06597 0.43988 -0.30300
O 	O 	0.48829 0.88993 0.81733 -0.46600
O 	O 	0.41824 0.82228 0.76591 -0.42000
O 	O 	0.10869 0.15637 0.42449 -0.47300
O 	O 	0.18389 0.17897 0.35596 -0.45400
O 	O 	0.58761 0.83813 0.91360 -0.44900
O 	O 	0.54884 0.93403 0.93988 -0.30400
O 	O 	0.01171 0.11007 0.31733 -0.46600
O 	O 	0.08176 0.17772 0.26591 -0.42000
O 	O 	0.39131 0.84363 0.92449 -0.47200
O 	O 	0.31611 0.82103 0.85596 -0.45400
O 	O 	0.47779 0.75000 0.85115 -0.62600
O 	O 	0.02221 0.25000 0.35115 -0.62700
Zn	Zn	0.51532 0.33895 0.11853 1.23100
Zn	Zn	0.98468 0.66105 0.61853 1.23100
Zn	Zn	0.51532 0.16105 0.11853 1.23100
Zn	Zn	0.98468 0.83895 0.61853 1.23100
Co	Co	0.63153 0.25000 0.18866 1.17800
Co	Co	0.86847 0.75000 0.68866 1.17800
H 	H 	0.15830 0.98410 0.50370 0.04200
H 	H 	0.28010 0.99690 0.46690 0.07300
H 	H 	0.34610 0.82470 0.52580 0.06500
H 	H 	0.22410 0.81380 0.56320 0.03900
H 	H 	0.37630 0.96790 0.40550 0.07200
H 	H 	0.60960 0.95060 0.42150 0.07100
H 	H 	0.46590 0.87890 0.53020 0.07000
H 	H 	0.41650 0.97000 0.31480 0.07200
H 	H 	0.43660 0.03210 0.24350 0.02700
H 	H 	0.62230 0.11620 0.31300 0.02700
H 	H 	0.60470 0.05140 0.38360 0.07200
H 	H 	0.69160 0.87000 0.44960 0.07300
H 	H 	0.80280 0.84750 0.49650 0.03000
H 	H 	0.68140 0.86690 0.62780 0.02800
H 	H 	0.57080 0.89580 0.58150 0.07500
H 	H 	0.74050 0.15540 0.24520 0.00500
H 	H 	0.82140 0.15320 0.31660 0.08600
H 	H 	0.34170 0.01590 0.00370 0.04200
H 	H 	0.21990 0.00310 0.96690 0.07300
H 	H 	0.15390 0.17530 0.02580 0.06500
H 	H 	0.27590 0.18620 0.06320 0.03800
H 	H 	0.12370 0.03210 0.90550 0.07200
H 	H 	0.89040 0.04940 0.92150 0.07100
H 	H 	0.03410 0.12110 0.03020 0.06800
H 	H 	0.08350 0.03000 0.81480 0.07400
H 	H 	0.06340 0.96790 0.74350 0.02600
H 	H 	0.87770 0.88380 0.81300 0.02600
H 	H 	0.89530 0.94860 0.88360 0.07200
H 	H 	0.80840 0.13000 0.94960 0.07400
H 	H 	0.69720 0.15250 0.99650 0.03000
H 	H 	0.81860 0.13310 0.12780 0.02800
H 	H 	0.92920 0.10420 0.08150 0.07600
H 	H 	0.75950 0.84460 0.74520 0.00400
H 	H 	0.67860 0.84680 0.81660 0.08600
H 	H 	0.15830 0.51590 0.50370 0.04200
H 	H 	0.28010 0.50310 0.46690 0.07300
H 	H 	0.34610 0.67530 0.52580 0.06500
H 	H 	0.22410 0.68620 0.56320 0.03900
H 	H 	0.37630 0.53210 0.40550 0.07200
H 	H 	0.60960 0.54940 0.42150 0.07100
H 	H 	0.46590 0.62110 0.53020 0.07000
H 	H 	0.41650 0.53000 0.31480 0.07200
H 	H 	0.43660 0.46790 0.24350 0.02700
H 	H 	0.62230 0.38380 0.31300 0.02700
H 	H 	0.60470 0.44860 0.38360 0.07200
H 	H 	0.69160 0.63000 0.44960 0.07300
H 	H 	0.80280 0.65250 0.49650 0.03000
H 	H 	0.68140 0.63310 0.62780 0.02800
H 	H 	0.57080 0.60420 0.58150 0.07500
H 	H 	0.74050 0.34460 0.24520 0.00500
H 	H 	0.82140 0.34680 0.31660 0.08600
H 	H 	0.34170 0.48410 0.00370 0.04200
H 	H 	0.21990 0.49690 0.96690 0.07300
H 	H 	0.15390 0.32470 0.02580 0.06500
H 	H 	0.27590 0.31380 0.06320 0.03800
H 	H 	0.12370 0.46790 0.90550 0.07200
H 	H 	0.89040 0.45060 0.92150 0.07100
H 	H 	0.03410 0.37890 0.03020 0.06800
H 	H 	0.08350 0.47000 0.81480 0.07200
H 	H 	0.06340 0.53210 0.74350 0.02700
H 	H 	0.87770 0.61620 0.81300 0.02700
H 	H 	0.89530 0.55140 0.88360 0.07200
H 	H 	0.80840 0.37000 0.94960 0.07400
H 	H 	0.69720 0.34750 0.99650 0.03000
H 	H 	0.81860 0.36690 0.12780 0.02800
H 	H 	0.92920 0.39580 0.08150 0.07500
H 	H 	0.75950 0.65540 0.74520 0.00500
H 	H 	0.67860 0.65320 0.81660 0.08600
H 	H 	0.86000 0.25000 0.35380 0.01600
H 	H 	0.64000 0.75000 0.85380 0.01600
C 	C 	0.09950 0.89090 0.56240 0.33100
C 	C 	0.17790 0.89850 0.53702 -0.09700
C 	C 	0.19620 0.95210 0.50840 0.03100
C 	C 	0.26930 0.96000 0.48622 -0.10200
C 	C 	0.32770 0.91230 0.49265 0.03500
C 	C 	0.30880 0.85730 0.52147 -0.10000
C 	C 	0.23550 0.85050 0.54367 0.02600
C 	C 	0.40810 0.92090 0.47075 0.04900
C 	C 	0.41970 0.95360 0.42430 -0.11400
C 	C 	0.49500 0.96540 0.40560 0.04500
C 	C 	0.55910 0.94280 0.43380 -0.11100
C 	C 	0.54950 0.90870 0.48006 0.04600
C 	C 	0.47340 0.89960 0.49863 -0.11200
C 	C 	0.50820 0.00330 0.35770 0.04200
C 	C 	0.45830 0.99920 0.31436 -0.11400
C 	C 	0.46970 0.03680 0.27187 0.05000
C 	C 	0.53040 0.08220 0.27020 -0.12100
C 	C 	0.58100 0.08660 0.31340 0.04700
C 	C 	0.57030 0.04800 0.35566 -0.11600
C 	C 	0.54210 0.12640 0.22517 0.38100
C 	C 	0.61880 0.88810 0.51003 0.04600
C 	C 	0.68950 0.87110 0.48552 -0.11600
C 	C 	0.75580 0.85610 0.51363 0.05000
C 	C 	0.75300 0.85350 0.56702 -0.12700
C 	C 	0.68360 0.86840 0.59188 0.04800
C 	C 	0.61710 0.88570 0.56403 -0.11600
C 	C 	0.82440 0.83830 0.59800 0.37300
C 	C 	0.75560 0.19440 0.26045 0.08800
C 	C 	0.80470 0.19250 0.30294 -0.14300
C 	C 	0.40050 0.10910 0.06240 0.33100
C 	C 	0.32210 0.10150 0.03702 -0.09700
C 	C 	0.30380 0.04790 0.00840 0.03000
C 	C 	0.23070 0.04000 0.98622 -0.10200
C 	C 	0.17230 0.08770 0.99265 0.03600
C 	C 	0.19120 0.14270 0.02147 -0.10100
C 	C 	0.26450 0.14950 0.04367 0.02600
C 	C 	0.09190 0.07910 0.97075 0.04800
C 	C 	0.08030 0.04640 0.92430 -0.11200
C 	C 	0.00500 0.03460 0.90560 0.04300
C 	C 	0.94090 0.05720 0.93380 -0.10900
C 	C 	0.95050 0.09130 0.98006 0.04400
C 	C 	0.02660 0.10040 0.99863 -0.11000
C 	C 	0.99180 0.99670 0.85770 0.04400
C 	C 	0.04170 0.00080 0.81436 -0.11900
C 	C 	0.03030 0.96320 0.77187 0.05700
C 	C 	0.96960 0.91780 0.77020 -0.12500
C 	C 	0.91900 0.91340 0.81340 0.05000
C 	C 	0.92970 0.95200 0.85566 -0.11800
C 	C 	0.95790 0.87360 0.72517 0.38200
C 	C 	0.88120 0.11190 0.01003 0.04800
C 	C 	0.81050 0.12890 0.98552 -0.11700
C 	C 	0.74420 0.14390 0.01363 0.05200
C 	C 	0.74700 0.14650 0.06702 -0.12800
C 	C 	0.81640 0.13160 0.09188 0.04900
C 	C 	0.88290 0.11430 0.06403 -0.11700
C 	C 	0.67560 0.16170 0.09800 0.37300
C 	C 	0.74440 0.80560 0.76045 0.08800
C 	C 	0.69530 0.80750 0.80294 -0.14300
C 	C 	0.09950 0.60910 0.56240 0.33100
C 	C 	0.17790 0.60150 0.53702 -0.09700
C 	C 	0.19620 0.54790 0.50840 0.03100
C 	C 	0.26930 0.54000 0.48622 -0.10200
C 	C 	0.32770 0.58770 0.49265 0.03500
C 	C 	0.30880 0.64270 0.52147 -0.10000
C 	C 	0.23550 0.64950 0.54367 0.02600
C 	C 	0.40810 0.57910 0.47075 0.04900
C 	C 	0.41970 0.54640 0.42430 -0.11300
C 	C 	0.49500 0.53460 0.40560 0.04500
C 	C 	0.55910 0.55720 0.43380 -0.11100
C 	C 	0.54950 0.59130 0.48006 0.04600
C 	C 	0.47340 0.60040 0.49863 -0.11200
C 	C 	0.50820 0.49670 0.35770 0.04300
C 	C 	0.45830 0.50080 0.31436 -0.11500
C 	C 	0.46970 0.46320 0.27187 0.05100
C 	C 	0.53040 0.41780 0.27020 -0.12100
C 	C 	0.58100 0.41340 0.31340 0.04700
C 	C 	0.57030 0.45200 0.35566 -0.11600
C 	C 	0.54210 0.37360 0.22517 0.38100
C 	C 	0.61880 0.61190 0.51003 0.04600
C 	C 	0.68950 0.62890 0.48552 -0.11600
C 	C 	0.75580 0.64390 0.51363 0.05000
C 	C 	0.75300 0.64650 0.56702 -0.12700
C 	C 	0.68360 0.63160 0.59188 0.04800
C 	C 	0.61710 0.61430 0.56403 -0.11600
C 	C 	0.82440 0.66170 0.59800 0.37300
C 	C 	0.75560 0.30560 0.26045 0.08800
C 	C 	0.80470 0.30750 0.30294 -0.14300
C 	C 	0.40050 0.39090 0.06240 0.33100
C 	C 	0.32210 0.39850 0.03702 -0.09800
C 	C 	0.30380 0.45210 0.00840 0.03100
C 	C 	0.23070 0.46000 0.98622 -0.10200
C 	C 	0.17230 0.41230 0.99265 0.03600
C 	C 	0.19120 0.35730 0.02147 -0.10100
C 	C 	0.26450 0.35050 0.04367 0.02700
C 	C 	0.09190 0.42090 0.97075 0.04800
C 	C 	0.08030 0.45360 0.92430 -0.11300
C 	C 	0.00500 0.46540 0.90560 0.04500
C 	C 	0.94090 0.44280 0.93380 -0.11000
C 	C 	0.95050 0.40870 0.98006 0.04400
C 	C 	0.02660 0.39960 0.99863 -0.10900
C 	C 	0.99180 0.50330 0.85770 0.04200
C 	C 	0.04170 0.49920 0.81436 -0.11500
C 	C 	0.03030 0.53680 0.77187 0.05100
C 	C 	0.96960 0.58220 0.77020 -0.12200
C 	C 	0.91900 0.58660 0.81340 0.04700
C 	C 	0.92970 0.54800 0.85566 -0.11600
C 	C 	0.95790 0.62640 0.72517 0.38100
C 	C 	0.88120 0.38810 0.01003 0.04800
C 	C 	0.81050 0.37110 0.98552 -0.11900
C 	C 	0.74420 0.35610 0.01363 0.05300
C 	C 	0.74700 0.35350 0.06702 -0.12900
C 	C 	0.81640 0.36840 0.09188 0.05000
C 	C 	0.88290 0.38570 0.06403 -0.11800
C 	C 	0.67560 0.33830 0.09800 0.37300
C 	C 	0.74440 0.69440 0.76045 0.08800
C 	C 	0.69530 0.69250 0.80294 -0.14300
C 	C 	0.82820 0.25000 0.32460 0.06600
C 	C 	0.67180 0.75000 0.82460 0.06500
N 	N 	0.72890 0.25000 0.24024 -0.21900
N 	N 	0.77110 0.75000 0.74024 -0.21900
O 	O 	0.08761 0.83813 0.58640 -0.44800
O 	O 	0.04884 0.93403 0.56012 -0.30300
O 	O 	0.51171 0.11007 0.18267 -0.46600
O 	O 	0.58176 0.17772 0.23409 -0.42000
O 	O 	0.89131 0.84363 0.57551 -0.47300
O 	O 	0.81611 0.82103 0.64404 -0.45400
O 	O 	0.41239 0.16187 0.08640 -0.44900
O 	O 	0.45116 0.06597 0.06012 -0.30400
O 	O 	0.98829 0.88993 0.68267 -0.46600
O 	O 	0.91824 0.82228 0.73409 -0.42000
O 	O 	0.60869 0.15637 0.07551 -0.47200
O 	O 	0.68389 0.17897 0.14404 -0.45400
O 	O 	0.08761 0.66187 0.58640 -0.44900
O 	O 	0.04884 0.56597 0.56012 -0.30300
O 	O 	0.51171 0.38993 0.18267 -0.46600
O 	O 	0.58176 0.32228 0.23409 -0.42000
O 	O 	0.89131 0.65637 0.57551 -0.47200
O 	O 	0.81611 0.67897 0.64404 -0.45400
O 	O 	0.41239 0.33813 0.08640 -0.44900
O 	O 	0.45116 0.43403 0.06012 -0.30400
O 	O 	0.98829 0.61007 0.68267 -0.46600
O 	O 	0.91824 0.67772 0.73409 -0.42000
O 	O 	0.60869 0.34363 0.07551 -0.47200
O 	O 	0.68389 0.32103 0.14404 -0.45400
O 	O 	0.52221 0.25000 0.14885 -0.62600
O 	O 	0.97779 0.75000 0.64885 -0.62700
