data_crystal

_cell_length_a 25.48100
_cell_length_b 22.48300
_cell_length_c 17.23300
_cell_angle_alpha 90.00000
_cell_angle_beta  92.69600
_cell_angle_gamma 90.00000

_symmetry_space_group_name_	'P 1'
_symmetry_space_group_name_H-M	'P 1'

loop_
_symmetry_equiv_pos_as_xyz
  x,y,z

loop_
_atom_site_label
_atom_site_type_symbol
_atom_site_fract_x
_atom_site_fract_y
_atom_site_fract_z
_atom_site_charge
Zn	Zn	0.13300 0.07000 0.30800 1.19800
O 	O 	0.71000 0.59000 0.19000 -0.50000
O 	O 	0.69000 0.63000 0.30000 -0.46000
O 	O 	0.06000 0.89000 0.30000 -0.46600
O 	O 	0.03000 0.93000 0.19000 -0.48500
O 	O 	0.13000 0.95000 0.42000 -0.45800
C 	C 	0.72000 0.63000 0.24000 0.37900
C 	C 	0.76000 0.67000 0.24000 -0.13100
C 	C 	0.76000 0.71000 0.30000 -0.01100
H 	H 	0.73980 0.71650 0.33980 0.06100
C 	C 	0.81000 0.75000 0.30000 0.01800
C 	C 	0.84000 0.75000 0.25000 -0.03100
C 	C 	0.84000 0.70000 0.19000 -0.00300
C 	C 	0.80000 0.67000 0.19000 0.01300
H 	H 	0.79090 0.63670 0.14640 0.03400
C 	C 	0.89000 0.79000 0.25000 0.08400
C 	C 	0.90000 0.82000 0.18000 -0.14000
H 	H 	0.88020 0.81580 0.13420 0.10200
C 	C 	0.95000 0.85000 0.18000 0.07300
H 	H 	0.95490 0.87620 0.13430 0.03200
C 	C 	0.98000 0.86000 0.25000 -0.16900
C 	C 	0.97000 0.83000 0.31000 0.10300
H 	H 	0.99230 0.82790 0.35660 0.02500
C 	C 	0.93000 0.79000 0.31000 -0.12600
H 	H 	0.91750 0.76740 0.35650 0.08000
C 	C 	0.03000 0.89000 0.24000 0.42200
C 	C 	0.09300 0.02000 0.90000 -0.04600
H 	H 	0.06250 0.03480 0.92420 0.05600
C 	C 	0.09600 0.02000 0.82000 -0.11000
H 	H 	0.06750 0.03480 0.78900 0.07100
C 	C 	0.18000 0.98000 0.83000 0.05300
C 	C 	0.18000 0.98000 0.91000 0.08100
H 	H 	0.20920 0.96520 0.94630 0.03600
C 	C 	0.14000 0.95000 0.66000 -0.07400
H 	H 	0.13930 0.90900 0.68690 0.05900
C 	C 	0.14000 0.95000 0.58000 0.06400
H 	H 	0.13970 0.91120 0.55030 0.03400
C 	C 	0.22000 0.95000 0.79300 -0.02100
H 	H 	0.22020 0.94880 0.73860 0.05600
C 	C 	0.30790 0.82050 0.82750 0.06500
C 	C 	0.34940 0.78980 0.79660 0.07300
C 	C 	0.36950 0.73920 0.83370 -0.13300
H 	H 	0.39780 0.71820 0.81250 0.10400
C 	C 	0.34810 0.71940 0.90180 0.13400
C 	C 	0.30660 0.75010 0.93280 -0.09200
H 	H 	0.29200 0.73660 0.97930 0.07800
C 	C 	0.28650 0.80070 0.89560 -0.04000
H 	H 	0.25820 0.82170 0.91680 0.06600
C 	C 	0.81240 0.80740 0.35550 -0.01800
C 	C 	0.38080 0.19040 0.12300 -0.00500
O 	O 	0.34930 0.65660 0.98490 -0.12700
O 	O 	0.39990 0.64180 0.90830 -0.14200
O 	O 	0.37500 0.87070 0.72400 -0.10300
O 	O 	0.40180 0.78510 0.67770 -0.10500
N 	N 	0.24870 0.90790 0.83210 -0.06400
N 	N 	0.28150 0.87050 0.79680 -0.15300
H 	H 	0.28710 0.87870 0.74800 0.13800
N 	N 	0.36580 0.67260 0.93170 -0.01600
N 	N 	0.37480 0.81360 0.72610 -0.01600
Zn	Zn	0.63300 0.57000 0.30800 1.19800
O 	O 	0.21000 0.09000 0.19000 -0.50200
O 	O 	0.19000 0.13000 0.30000 -0.46200
O 	O 	0.56000 0.39000 0.30000 -0.47100
O 	O 	0.53000 0.43000 0.19000 -0.49600
O 	O 	0.63000 0.45000 0.42000 -0.48100
C 	C 	0.22000 0.13000 0.24000 0.37800
C 	C 	0.26000 0.17000 0.24000 -0.13300
C 	C 	0.26000 0.21000 0.30000 -0.01100
H 	H 	0.23980 0.21650 0.33980 0.06100
C 	C 	0.31000 0.25000 0.30000 0.01800
C 	C 	0.34000 0.25000 0.25000 -0.03100
C 	C 	0.34000 0.20000 0.19000 -0.00400
C 	C 	0.30000 0.17000 0.19000 0.01300
H 	H 	0.29090 0.13670 0.14640 0.03200
C 	C 	0.39000 0.29000 0.25000 0.08400
C 	C 	0.40000 0.32000 0.18000 -0.13900
H 	H 	0.38020 0.31580 0.13420 0.10300
C 	C 	0.45000 0.35000 0.18000 0.07400
H 	H 	0.45490 0.37620 0.13430 0.03200
C 	C 	0.48000 0.36000 0.25000 -0.17200
C 	C 	0.47000 0.33000 0.31000 0.10400
H 	H 	0.49230 0.32790 0.35660 0.02400
C 	C 	0.43000 0.29000 0.31000 -0.12700
H 	H 	0.41750 0.26740 0.35650 0.07900
C 	C 	0.53000 0.39000 0.24000 0.42500
C 	C 	0.59300 0.52000 0.90000 0.01600
H 	H 	0.56250 0.53480 0.92420 0.04000
C 	C 	0.59600 0.52000 0.82000 -0.05300
H 	H 	0.56750 0.53480 0.78900 0.05700
C 	C 	0.68000 0.48000 0.83000 -0.01200
C 	C 	0.68000 0.48000 0.91000 0.02900
H 	H 	0.70920 0.46520 0.94630 0.04200
C 	C 	0.64000 0.45000 0.66000 -0.09400
H 	H 	0.63930 0.40900 0.68690 0.06400
C 	C 	0.64000 0.45000 0.58000 0.03800
H 	H 	0.63970 0.41120 0.55030 0.03800
C 	C 	0.72000 0.45000 0.79300 0.00200
H 	H 	0.72020 0.44880 0.73860 0.04200
C 	C 	0.80790 0.32050 0.82750 0.06400
C 	C 	0.84940 0.28980 0.79660 0.07300
C 	C 	0.86950 0.23920 0.83370 -0.13300
H 	H 	0.89780 0.21820 0.81250 0.10400
C 	C 	0.84810 0.21940 0.90180 0.13400
C 	C 	0.80660 0.25010 0.93280 -0.09300
H 	H 	0.79200 0.23660 0.97930 0.07900
C 	C 	0.78650 0.30070 0.89560 -0.04000
H 	H 	0.75820 0.32170 0.91680 0.06600
C 	C 	0.31240 0.30740 0.35550 -0.02000
C 	C 	0.88080 0.69040 0.12300 -0.00200
O 	O 	0.84930 0.15660 0.98490 -0.12500
O 	O 	0.89990 0.14180 0.90830 -0.14200
O 	O 	0.87500 0.37070 0.72400 -0.10900
O 	O 	0.90180 0.28510 0.67770 -0.10800
N 	N 	0.74870 0.40790 0.83210 -0.06900
N 	N 	0.78150 0.37050 0.79680 -0.15300
H 	H 	0.78710 0.37870 0.74800 0.13600
N 	N 	0.86580 0.17260 0.93170 -0.01600
N 	N 	0.87480 0.31360 0.72610 -0.01600
Zn	Zn	0.13300 0.93000 0.30800 1.20200
O 	O 	0.71000 0.41000 0.19000 -0.50100
O 	O 	0.69000 0.37000 0.30000 -0.46100
O 	O 	0.06000 0.11000 0.30000 -0.47300
O 	O 	0.03000 0.07000 0.19000 -0.50000
O 	O 	0.13000 0.05000 0.42000 -0.47900
C 	C 	0.72000 0.37000 0.24000 0.37800
C 	C 	0.76000 0.33000 0.24000 -0.13200
C 	C 	0.76000 0.29000 0.30000 -0.01000
H 	H 	0.73980 0.28350 0.33980 0.06100
C 	C 	0.81000 0.25000 0.30000 0.01800
C 	C 	0.84000 0.25000 0.25000 -0.03100
C 	C 	0.84000 0.30000 0.19000 -0.00300
C 	C 	0.80000 0.33000 0.19000 0.01400
H 	H 	0.79090 0.36330 0.14640 0.03400
C 	C 	0.89000 0.21000 0.25000 0.08500
C 	C 	0.90000 0.18000 0.18000 -0.13700
H 	H 	0.88020 0.18420 0.13420 0.10400
C 	C 	0.95000 0.15000 0.18000 0.07500
H 	H 	0.95490 0.12380 0.13430 0.03300
C 	C 	0.98000 0.14000 0.25000 -0.17400
C 	C 	0.97000 0.17000 0.31000 0.10500
H 	H 	0.99230 0.17210 0.35660 0.02300
C 	C 	0.93000 0.21000 0.31000 -0.12700
H 	H 	0.91750 0.23260 0.35650 0.08000
C 	C 	0.03000 0.11000 0.24000 0.42600
C 	C 	0.09300 0.98000 0.90000 0.08900
H 	H 	0.06250 0.96520 0.92420 0.02500
C 	C 	0.09600 0.98000 0.82000 0.02100
H 	H 	0.06750 0.96520 0.78900 0.03900
C 	C 	0.18000 0.02000 0.83000 -0.06000
C 	C 	0.18000 0.02000 0.91000 -0.00900
H 	H 	0.20920 0.03480 0.94630 0.04900
C 	C 	0.14000 0.05000 0.66000 -0.09200
H 	H 	0.13930 0.09100 0.68690 0.06500
C 	C 	0.14000 0.05000 0.58000 0.04100
H 	H 	0.13970 0.08880 0.55030 0.03700
C 	C 	0.22000 0.05000 0.79300 0.01900
H 	H 	0.22020 0.05120 0.73860 0.03400
C 	C 	0.30790 0.17950 0.82750 0.06300
C 	C 	0.34940 0.21020 0.79660 0.07200
C 	C 	0.36950 0.26080 0.83370 -0.13300
H 	H 	0.39780 0.28180 0.81250 0.10400
C 	C 	0.34810 0.28060 0.90180 0.13400
C 	C 	0.30660 0.24990 0.93280 -0.09300
H 	H 	0.29200 0.26340 0.97930 0.07800
C 	C 	0.28650 0.19930 0.89560 -0.04100
H 	H 	0.25820 0.17830 0.91680 0.06600
C 	C 	0.81240 0.19260 0.35550 -0.02000
C 	C 	0.38080 0.80960 0.12300 0.00200
O 	O 	0.34930 0.34340 0.98490 -0.12700
O 	O 	0.39990 0.35820 0.90830 -0.14300
O 	O 	0.37500 0.12930 0.72400 -0.11300
O 	O 	0.40180 0.21490 0.67770 -0.10900
N 	N 	0.24870 0.09210 0.83210 -0.07200
N 	N 	0.28150 0.12950 0.79680 -0.15300
H 	H 	0.28710 0.12130 0.74800 0.13400
N 	N 	0.36580 0.32740 0.93170 -0.01600
N 	N 	0.37480 0.18640 0.72610 -0.01500
Zn	Zn	0.63300 0.43000 0.30800 1.19800
O 	O 	0.21000 0.91000 0.19000 -0.49100
O 	O 	0.19000 0.87000 0.30000 -0.45700
O 	O 	0.56000 0.61000 0.30000 -0.47100
O 	O 	0.53000 0.57000 0.19000 -0.49600
O 	O 	0.63000 0.55000 0.42000 -0.48100
C 	C 	0.22000 0.87000 0.24000 0.37700
C 	C 	0.26000 0.83000 0.24000 -0.12900
C 	C 	0.26000 0.79000 0.30000 -0.01100
H 	H 	0.23980 0.78350 0.33980 0.06200
C 	C 	0.31000 0.75000 0.30000 0.02000
C 	C 	0.34000 0.75000 0.25000 -0.03200
C 	C 	0.34000 0.80000 0.19000 -0.00200
C 	C 	0.30000 0.83000 0.19000 0.01300
H 	H 	0.29090 0.86330 0.14640 0.03700
C 	C 	0.39000 0.71000 0.25000 0.08500
C 	C 	0.40000 0.68000 0.18000 -0.13900
H 	H 	0.38020 0.68420 0.13420 0.10400
C 	C 	0.45000 0.65000 0.18000 0.07500
H 	H 	0.45490 0.62380 0.13430 0.03200
C 	C 	0.48000 0.64000 0.25000 -0.17200
C 	C 	0.47000 0.67000 0.31000 0.10400
H 	H 	0.49230 0.67210 0.35660 0.02400
C 	C 	0.43000 0.71000 0.31000 -0.12600
H 	H 	0.41750 0.73260 0.35650 0.08100
C 	C 	0.53000 0.61000 0.24000 0.42500
C 	C 	0.59300 0.48000 0.90000 0.01600
H 	H 	0.56250 0.46520 0.92420 0.04000
C 	C 	0.59600 0.48000 0.82000 -0.05300
H 	H 	0.56750 0.46520 0.78900 0.05700
C 	C 	0.68000 0.52000 0.83000 -0.01200
C 	C 	0.68000 0.52000 0.91000 0.02900
H 	H 	0.70920 0.53480 0.94630 0.04200
C 	C 	0.64000 0.55000 0.66000 -0.09400
H 	H 	0.63930 0.59100 0.68690 0.06400
C 	C 	0.64000 0.55000 0.58000 0.03800
H 	H 	0.63970 0.58880 0.55030 0.03900
C 	C 	0.72000 0.55000 0.79300 0.00200
H 	H 	0.72020 0.55120 0.73860 0.04200
C 	C 	0.80790 0.67950 0.82750 0.06400
C 	C 	0.84940 0.71020 0.79660 0.07300
C 	C 	0.86950 0.76080 0.83370 -0.13300
H 	H 	0.89780 0.78180 0.81250 0.10400
C 	C 	0.84810 0.78060 0.90180 0.13500
C 	C 	0.80660 0.74990 0.93280 -0.09300
H 	H 	0.79200 0.76340 0.97930 0.07900
C 	C 	0.78650 0.69930 0.89560 -0.04000
H 	H 	0.75820 0.67830 0.91680 0.06600
C 	C 	0.31240 0.69260 0.35550 -0.01900
C 	C 	0.88080 0.30960 0.12300 -0.00200
O 	O 	0.84930 0.84340 0.98490 -0.12600
O 	O 	0.89990 0.85820 0.90830 -0.13900
O 	O 	0.87500 0.62930 0.72400 -0.10800
O 	O 	0.90180 0.71490 0.67770 -0.10700
N 	N 	0.74870 0.59210 0.83210 -0.06900
N 	N 	0.78150 0.62950 0.79680 -0.15300
H 	H 	0.78710 0.62130 0.74800 0.13600
N 	N 	0.86580 0.82740 0.93170 -0.01600
N 	N 	0.87480 0.68640 0.72610 -0.01600
Zn	Zn	0.07600 0.00000 0.17000 1.21000
Zn	Zn	0.20200 0.00000 0.18600 1.19700
O 	O 	0.14000 0.00000 0.24000 -0.95700
O 	O 	0.09000 0.00000 0.06000 -0.56600
O 	O 	0.17000 0.00000 0.07000 -0.53100
C 	C 	0.13000 0.00000 0.03000 0.60500
C 	C 	0.14000 0.00000 0.95000 -0.22700
C 	C 	0.14100 0.00000 0.79000 -0.00800
C 	C 	0.14200 0.00000 0.70000 0.02600
C 	C 	0.14000 0.00000 0.54000 -0.12800
C 	C 	0.14000 0.00000 0.45000 0.33300
Zn	Zn	0.57600 0.50000 0.17000 1.21400
Zn	Zn	0.70200 0.50000 0.18600 1.20100
O 	O 	0.64000 0.50000 0.24000 -0.94700
O 	O 	0.59000 0.50000 0.06000 -0.55500
O 	O 	0.67000 0.50000 0.07000 -0.52100
C 	C 	0.63000 0.50000 0.03000 0.59400
C 	C 	0.64000 0.50000 0.95000 -0.19900
C 	C 	0.64100 0.50000 0.79000 0.02000
C 	C 	0.64200 0.50000 0.70000 0.04700
C 	C 	0.64000 0.50000 0.54000 -0.10300
C 	C 	0.64000 0.50000 0.45000 0.35500
Zn	Zn	0.86700 0.07000 0.69200 1.19700
O 	O 	0.29000 0.59000 0.81000 -0.50100
O 	O 	0.31000 0.63000 0.70000 -0.46100
O 	O 	0.94000 0.89000 0.70000 -0.46700
O 	O 	0.97000 0.93000 0.81000 -0.48600
O 	O 	0.87000 0.95000 0.58000 -0.45900
C 	C 	0.28000 0.63000 0.76000 0.37800
C 	C 	0.24000 0.67000 0.76000 -0.13200
C 	C 	0.24000 0.71000 0.70000 -0.01100
H 	H 	0.26020 0.71650 0.66020 0.06100
C 	C 	0.19000 0.75000 0.70000 0.01800
C 	C 	0.16000 0.75000 0.75000 -0.03100
C 	C 	0.16000 0.70000 0.81000 -0.00300
C 	C 	0.20000 0.67000 0.81000 0.01300
H 	H 	0.20910 0.63670 0.85360 0.03400
C 	C 	0.11000 0.79000 0.75000 0.08400
C 	C 	0.10000 0.82000 0.82000 -0.14000
H 	H 	0.11980 0.81580 0.86580 0.10200
C 	C 	0.05000 0.85000 0.82000 0.07300
H 	H 	0.04510 0.87620 0.86570 0.03200
C 	C 	0.02000 0.86000 0.75000 -0.16900
C 	C 	0.03000 0.83000 0.69000 0.10300
H 	H 	0.00770 0.82790 0.64340 0.02500
C 	C 	0.07000 0.79000 0.69000 -0.12600
H 	H 	0.08250 0.76740 0.64350 0.08000
C 	C 	0.97000 0.89000 0.76000 0.42200
C 	C 	0.90700 0.02000 0.10000 -0.04600
H 	H 	0.93750 0.03480 0.07580 0.05600
C 	C 	0.90400 0.02000 0.18000 -0.11000
H 	H 	0.93250 0.03480 0.21100 0.07100
C 	C 	0.82000 0.98000 0.17000 0.05300
C 	C 	0.82000 0.98000 0.09000 0.08100
H 	H 	0.79080 0.96520 0.05370 0.03600
C 	C 	0.86000 0.95000 0.34000 -0.07400
H 	H 	0.86070 0.90900 0.31310 0.05900
C 	C 	0.86000 0.95000 0.42000 0.06400
H 	H 	0.86030 0.91120 0.44970 0.03400
C 	C 	0.78000 0.95000 0.20700 -0.02100
H 	H 	0.77980 0.94880 0.26140 0.05600
C 	C 	0.69210 0.82050 0.17250 0.06500
C 	C 	0.65060 0.78980 0.20340 0.07300
C 	C 	0.63050 0.73920 0.16630 -0.13300
H 	H 	0.60220 0.71820 0.18750 0.10400
C 	C 	0.65190 0.71940 0.09820 0.13400
C 	C 	0.69340 0.75010 0.06720 -0.09200
H 	H 	0.70800 0.73660 0.02070 0.07800
C 	C 	0.71350 0.80070 0.10440 -0.04000
H 	H 	0.74180 0.82170 0.08320 0.06600
C 	C 	0.18760 0.80740 0.64450 -0.01800
C 	C 	0.61920 0.19040 0.87700 -0.00500
O 	O 	0.65070 0.65660 0.01510 -0.12700
O 	O 	0.60010 0.64180 0.09170 -0.14200
O 	O 	0.62500 0.87070 0.27600 -0.10300
O 	O 	0.59820 0.78510 0.32230 -0.10500
N 	N 	0.75130 0.90790 0.16790 -0.06400
N 	N 	0.71850 0.87050 0.20320 -0.15300
H 	H 	0.71290 0.87870 0.25200 0.13800
N 	N 	0.63420 0.67260 0.06830 -0.01600
N 	N 	0.62520 0.81360 0.27390 -0.01600
Zn	Zn	0.36700 0.57000 0.69200 1.19800
O 	O 	0.79000 0.09000 0.81000 -0.50200
O 	O 	0.81000 0.13000 0.70000 -0.46200
O 	O 	0.44000 0.39000 0.70000 -0.47100
O 	O 	0.47000 0.43000 0.81000 -0.49600
O 	O 	0.37000 0.45000 0.58000 -0.48100
C 	C 	0.78000 0.13000 0.76000 0.37800
C 	C 	0.74000 0.17000 0.76000 -0.13300
C 	C 	0.74000 0.21000 0.70000 -0.01100
H 	H 	0.76020 0.21650 0.66020 0.06100
C 	C 	0.69000 0.25000 0.70000 0.01800
C 	C 	0.66000 0.25000 0.75000 -0.03100
C 	C 	0.66000 0.20000 0.81000 -0.00400
C 	C 	0.70000 0.17000 0.81000 0.01300
H 	H 	0.70910 0.13670 0.85360 0.03200
C 	C 	0.61000 0.29000 0.75000 0.08400
C 	C 	0.60000 0.32000 0.82000 -0.13900
H 	H 	0.61980 0.31580 0.86580 0.10300
C 	C 	0.55000 0.35000 0.82000 0.07400
H 	H 	0.54510 0.37620 0.86570 0.03200
C 	C 	0.52000 0.36000 0.75000 -0.17200
C 	C 	0.53000 0.33000 0.69000 0.10400
H 	H 	0.50770 0.32790 0.64340 0.02400
C 	C 	0.57000 0.29000 0.69000 -0.12700
H 	H 	0.58250 0.26740 0.64350 0.07900
C 	C 	0.47000 0.39000 0.76000 0.42500
C 	C 	0.40700 0.52000 0.10000 0.01600
H 	H 	0.43750 0.53480 0.07580 0.04000
C 	C 	0.40400 0.52000 0.18000 -0.05300
H 	H 	0.43250 0.53480 0.21100 0.05700
C 	C 	0.32000 0.48000 0.17000 -0.01200
C 	C 	0.32000 0.48000 0.09000 0.02900
H 	H 	0.29080 0.46520 0.05370 0.04200
C 	C 	0.36000 0.45000 0.34000 -0.09400
H 	H 	0.36070 0.40900 0.31310 0.06400
C 	C 	0.36000 0.45000 0.42000 0.03800
H 	H 	0.36030 0.41120 0.44970 0.03800
C 	C 	0.28000 0.45000 0.20700 0.00200
H 	H 	0.27980 0.44880 0.26140 0.04200
C 	C 	0.19210 0.32050 0.17250 0.06400
C 	C 	0.15060 0.28980 0.20340 0.07300
C 	C 	0.13050 0.23920 0.16630 -0.13300
H 	H 	0.10220 0.21820 0.18750 0.10400
C 	C 	0.15190 0.21940 0.09820 0.13400
C 	C 	0.19340 0.25010 0.06720 -0.09300
H 	H 	0.20800 0.23660 0.02070 0.07900
C 	C 	0.21350 0.30070 0.10440 -0.04000
H 	H 	0.24180 0.32170 0.08320 0.06600
C 	C 	0.68760 0.30740 0.64450 -0.02000
C 	C 	0.11920 0.69040 0.87700 -0.00200
O 	O 	0.15070 0.15660 0.01510 -0.12500
O 	O 	0.10010 0.14180 0.09170 -0.14200
O 	O 	0.12500 0.37070 0.27600 -0.10900
O 	O 	0.09820 0.28510 0.32230 -0.10800
N 	N 	0.25130 0.40790 0.16790 -0.06900
N 	N 	0.21850 0.37050 0.20320 -0.15300
H 	H 	0.21290 0.37870 0.25200 0.13600
N 	N 	0.13420 0.17260 0.06830 -0.01600
N 	N 	0.12520 0.31360 0.27390 -0.01600
Zn	Zn	0.86700 0.93000 0.69200 1.20200
O 	O 	0.29000 0.41000 0.81000 -0.50100
O 	O 	0.31000 0.37000 0.70000 -0.46100
O 	O 	0.94000 0.11000 0.70000 -0.47300
O 	O 	0.97000 0.07000 0.81000 -0.50000
O 	O 	0.87000 0.05000 0.58000 -0.47900
C 	C 	0.28000 0.37000 0.76000 0.37800
C 	C 	0.24000 0.33000 0.76000 -0.13200
C 	C 	0.24000 0.29000 0.70000 -0.01000
H 	H 	0.26020 0.28350 0.66020 0.06100
C 	C 	0.19000 0.25000 0.70000 0.01800
C 	C 	0.16000 0.25000 0.75000 -0.03100
C 	C 	0.16000 0.30000 0.81000 -0.00300
C 	C 	0.20000 0.33000 0.81000 0.01400
H 	H 	0.20910 0.36330 0.85360 0.03400
C 	C 	0.11000 0.21000 0.75000 0.08500
C 	C 	0.10000 0.18000 0.82000 -0.13700
H 	H 	0.11980 0.18420 0.86580 0.10400
C 	C 	0.05000 0.15000 0.82000 0.07500
H 	H 	0.04510 0.12380 0.86570 0.03300
C 	C 	0.02000 0.14000 0.75000 -0.17400
C 	C 	0.03000 0.17000 0.69000 0.10500
H 	H 	0.00770 0.17210 0.64340 0.02300
C 	C 	0.07000 0.21000 0.69000 -0.12700
H 	H 	0.08250 0.23260 0.64350 0.08000
C 	C 	0.97000 0.11000 0.76000 0.42600
C 	C 	0.90700 0.98000 0.10000 0.08900
H 	H 	0.93750 0.96520 0.07580 0.02500
C 	C 	0.90400 0.98000 0.18000 0.02100
H 	H 	0.93250 0.96520 0.21100 0.03900
C 	C 	0.82000 0.02000 0.17000 -0.06000
C 	C 	0.82000 0.02000 0.09000 -0.00900
H 	H 	0.79080 0.03480 0.05370 0.04900
C 	C 	0.86000 0.05000 0.34000 -0.09200
H 	H 	0.86070 0.09100 0.31310 0.06500
C 	C 	0.86000 0.05000 0.42000 0.04100
H 	H 	0.86030 0.08880 0.44970 0.03700
C 	C 	0.78000 0.05000 0.20700 0.01900
H 	H 	0.77980 0.05120 0.26140 0.03400
C 	C 	0.69210 0.17950 0.17250 0.06300
C 	C 	0.65060 0.21020 0.20340 0.07200
C 	C 	0.63050 0.26080 0.16630 -0.13300
H 	H 	0.60220 0.28180 0.18750 0.10400
C 	C 	0.65190 0.28060 0.09820 0.13400
C 	C 	0.69340 0.24990 0.06720 -0.09300
H 	H 	0.70800 0.26340 0.02070 0.07800
C 	C 	0.71350 0.19930 0.10440 -0.04100
H 	H 	0.74180 0.17830 0.08320 0.06600
C 	C 	0.18760 0.19260 0.64450 -0.02000
C 	C 	0.61920 0.80960 0.87700 0.00200
O 	O 	0.65070 0.34340 0.01510 -0.12700
O 	O 	0.60010 0.35820 0.09170 -0.14300
O 	O 	0.62500 0.12930 0.27600 -0.11300
O 	O 	0.59820 0.21490 0.32230 -0.10900
N 	N 	0.75130 0.09210 0.16790 -0.07200
N 	N 	0.71850 0.12950 0.20320 -0.15300
H 	H 	0.71290 0.12130 0.25200 0.13400
N 	N 	0.63420 0.32740 0.06830 -0.01600
N 	N 	0.62520 0.18640 0.27390 -0.01500
Zn	Zn	0.36700 0.43000 0.69200 1.19800
O 	O 	0.79000 0.91000 0.81000 -0.49100
O 	O 	0.81000 0.87000 0.70000 -0.45700
O 	O 	0.44000 0.61000 0.70000 -0.47100
O 	O 	0.47000 0.57000 0.81000 -0.49600
O 	O 	0.37000 0.55000 0.58000 -0.48100
C 	C 	0.78000 0.87000 0.76000 0.37700
C 	C 	0.74000 0.83000 0.76000 -0.12900
C 	C 	0.74000 0.79000 0.70000 -0.01100
H 	H 	0.76020 0.78350 0.66020 0.06200
C 	C 	0.69000 0.75000 0.70000 0.02000
C 	C 	0.66000 0.75000 0.75000 -0.03200
C 	C 	0.66000 0.80000 0.81000 -0.00200
C 	C 	0.70000 0.83000 0.81000 0.01300
H 	H 	0.70910 0.86330 0.85360 0.03700
C 	C 	0.61000 0.71000 0.75000 0.08500
C 	C 	0.60000 0.68000 0.82000 -0.13900
H 	H 	0.61980 0.68420 0.86580 0.10400
C 	C 	0.55000 0.65000 0.82000 0.07500
H 	H 	0.54510 0.62380 0.86570 0.03200
C 	C 	0.52000 0.64000 0.75000 -0.17200
C 	C 	0.53000 0.67000 0.69000 0.10400
H 	H 	0.50770 0.67210 0.64340 0.02400
C 	C 	0.57000 0.71000 0.69000 -0.12600
H 	H 	0.58250 0.73260 0.64350 0.08100
C 	C 	0.47000 0.61000 0.76000 0.42500
C 	C 	0.40700 0.48000 0.10000 0.01600
H 	H 	0.43750 0.46520 0.07580 0.04000
C 	C 	0.40400 0.48000 0.18000 -0.05300
H 	H 	0.43250 0.46520 0.21100 0.05700
C 	C 	0.32000 0.52000 0.17000 -0.01200
C 	C 	0.32000 0.52000 0.09000 0.02900
H 	H 	0.29080 0.53480 0.05370 0.04200
C 	C 	0.36000 0.55000 0.34000 -0.09400
H 	H 	0.36070 0.59100 0.31310 0.06400
C 	C 	0.36000 0.55000 0.42000 0.03800
H 	H 	0.36030 0.58880 0.44970 0.03900
C 	C 	0.28000 0.55000 0.20700 0.00200
H 	H 	0.27980 0.55120 0.26140 0.04200
C 	C 	0.19210 0.67950 0.17250 0.06400
C 	C 	0.15060 0.71020 0.20340 0.07300
C 	C 	0.13050 0.76080 0.16630 -0.13300
H 	H 	0.10220 0.78180 0.18750 0.10400
C 	C 	0.15190 0.78060 0.09820 0.13500
C 	C 	0.19340 0.74990 0.06720 -0.09300
H 	H 	0.20800 0.76340 0.02070 0.07900
C 	C 	0.21350 0.69930 0.10440 -0.04000
H 	H 	0.24180 0.67830 0.08320 0.06600
C 	C 	0.68760 0.69260 0.64450 -0.01900
C 	C 	0.11920 0.30960 0.87700 -0.00200
O 	O 	0.15070 0.84340 0.01510 -0.12600
O 	O 	0.10010 0.85820 0.09170 -0.13900
O 	O 	0.12500 0.62930 0.27600 -0.10800
O 	O 	0.09820 0.71490 0.32230 -0.10700
N 	N 	0.25130 0.59210 0.16790 -0.06900
N 	N 	0.21850 0.62950 0.20320 -0.15300
H 	H 	0.21290 0.62130 0.25200 0.13600
N 	N 	0.13420 0.82740 0.06830 -0.01600
N 	N 	0.12520 0.68640 0.27390 -0.01600
Zn	Zn	0.92400 0.00000 0.83000 1.21000
Zn	Zn	0.79800 -0.00000 0.81400 1.19700
O 	O 	0.86000 0.00000 0.76000 -0.95700
O 	O 	0.91000 0.00000 0.94000 -0.56600
O 	O 	0.83000 0.00000 0.93000 -0.53100
C 	C 	0.87000 0.00000 0.97000 0.60500
C 	C 	0.86000 0.00000 0.05000 -0.22700
C 	C 	0.85900 0.00000 0.21000 -0.00800
C 	C 	0.85800 0.00000 0.30000 0.02600
C 	C 	0.86000 0.00000 0.46000 -0.12800
C 	C 	0.86000 0.00000 0.55000 0.33300
Zn	Zn	0.42400 0.50000 0.83000 1.21400
Zn	Zn	0.29800 0.50000 0.81400 1.20100
O 	O 	0.36000 0.50000 0.76000 -0.94700
O 	O 	0.41000 0.50000 0.94000 -0.55500
O 	O 	0.33000 0.50000 0.93000 -0.52100
C 	C 	0.37000 0.50000 0.97000 0.59400
C 	C 	0.36000 0.50000 0.05000 -0.19900
C 	C 	0.35900 0.50000 0.21000 0.02000
C 	C 	0.35800 0.50000 0.30000 0.04700
C 	C 	0.36000 0.50000 0.46000 -0.10300
C 	C 	0.36000 0.50000 0.55000 0.35500
