data_crystal

_cell_length_a 6.62180
_cell_length_b 16.21480
_cell_length_c 13.58860
_cell_angle_alpha 90.00000
_cell_angle_beta  90.00000
_cell_angle_gamma 90.00000

_symmetry_space_group_name_	'P 1'
_symmetry_space_group_name_H-M	'P 1'

loop_
_symmetry_equiv_pos_as_xyz
  x,y,z

loop_
_atom_site_label
_atom_site_type_symbol
_atom_site_fract_x
_atom_site_fract_y
_atom_site_fract_z
_atom_site_charge
C 	C 	0.81356 0.03438 0.96783 0.01200
O 	O 	0.16601 0.17184 0.83543 -0.66600
H 	H 	0.67034 0.05881 0.94342 0.04300
C 	C 	0.31405 0.53464 0.46750 0.00800
O 	O 	0.66825 0.67180 0.33554 -0.66600
H 	H 	0.17122 0.55915 0.44260 0.04300
C 	C 	0.17751 0.46740 0.96962 0.00900
O 	O 	0.82258 0.33077 0.83719 -0.66400
H 	H 	0.32034 0.44244 0.94536 0.04300
C 	C 	0.67797 0.96756 0.47005 0.00900
O 	O 	0.32478 0.83063 0.33721 -0.66700
H 	H 	0.82117 0.94268 0.44620 0.04400
C 	C 	0.17802 0.53555 0.03414 0.00800
O 	O 	0.82463 0.67255 0.16686 -0.66400
H 	H 	0.32122 0.56036 0.05813 0.04400
C 	C 	0.67745 0.03601 0.53410 0.00800
O 	O 	0.32248 0.17285 0.66604 -0.66700
H 	H 	0.82025 0.06116 0.55813 0.04500
C 	C 	0.81416 0.96665 0.03287 0.01200
O 	O 	0.16809 0.83140 0.16746 -0.66800
H 	H 	0.67135 0.94166 0.05713 0.04300
C 	C 	0.31346 0.46700 0.53273 0.00900
O 	O 	0.66579 0.33132 0.66775 -0.66700
H 	H 	0.17027 0.44223 0.55671 0.04200
C 	C 	0.17786 0.96695 0.03264 0.00900
O 	O 	0.82498 0.83086 0.16671 -0.66600
H 	H 	0.32106 0.94220 0.05668 0.04300
C 	C 	0.67714 0.46697 0.53339 0.00900
O 	O 	0.32265 0.33102 0.66679 -0.66800
H 	H 	0.81992 0.44216 0.55792 0.04400
C 	C 	0.81435 0.53577 0.03441 0.01100
O 	O 	0.16820 0.67251 0.16704 -0.66700
H 	H 	0.67154 0.56074 0.05862 0.04300
C 	C 	0.31375 0.03573 0.53383 0.00800
O 	O 	0.66595 0.17272 0.66692 -0.66600
H 	H 	0.17056 0.06060 0.55765 0.04300
C 	C 	0.81384 0.46766 0.96991 0.01200
O 	O 	0.16590 0.33088 0.83633 -0.66700
H 	H 	0.67064 0.44295 0.94588 0.04300
C 	C 	0.31427 0.96732 0.46981 0.00800
O 	O 	0.66801 0.83070 0.33700 -0.66600
H 	H 	0.17145 0.94226 0.44575 0.04300
C 	C 	0.17728 0.03469 0.96755 0.00800
O 	O 	0.82251 0.17213 0.83641 -0.66400
H 	H 	0.32008 0.05940 0.94292 0.04400
C 	C 	0.67773 0.53460 0.46811 0.00800
O 	O 	0.32472 0.67232 0.33626 -0.66700
H 	H 	0.82092 0.55909 0.44375 0.04500
Al	Al	0.24389 0.25169 0.75134 2.41400
Al	Al	0.74409 0.25175 0.75206 2.41400
Al	Al	0.74585 0.75182 0.25153 2.41400
Al	Al	0.24601 0.75185 0.25188 2.41400
O 	O 	-0.00638 0.25219 0.69900 -1.17200
O 	O 	0.49579 0.75299 0.19897 -1.17000
O 	O 	-0.00422 0.75251 0.30440 -1.17100
O 	O 	0.49363 0.25163 0.80446 -1.16800
C 	C 	-0.00375 0.93167 0.06659 -0.12200
C 	C 	-0.00344 0.86012 0.13765 0.51400
C 	C 	0.49502 0.43188 0.56694 -0.11900
C 	C 	0.49444 0.36024 0.63793 0.51600
C 	C 	-0.00361 0.57119 0.06756 -0.12000
C 	C 	-0.00352 0.64336 0.13781 0.51000
C 	C 	0.49528 0.07153 0.56703 -0.11800
C 	C 	0.49452 0.14369 0.63723 0.51400
C 	C 	-0.00464 0.43201 0.93645 -0.12100
C 	C 	-0.00544 0.35995 0.86603 0.51100
C 	C 	0.49633 0.93181 0.43681 -0.11800
C 	C 	0.49645 0.85973 0.36646 0.51500
C 	C 	-0.00489 0.07012 0.93451 -0.12000
C 	C 	-0.00551 0.14262 0.86478 0.51100
C 	C 	0.49613 0.57017 0.43453 -0.11700
C 	C 	0.49649 0.64266 0.36475 0.51300
H 	H 	0.49329 0.25148 0.86792 0.42300
H 	H 	-0.00672 0.25295 0.63556 0.42300
H 	H 	-0.00439 0.75342 0.36783 0.42300
H 	H 	0.49563 0.75467 0.13555 0.42400
