data_crystal

_cell_length_a 27.15600
_cell_length_b 26.24200
_cell_length_c 13.29490
_cell_angle_alpha 90.00000
_cell_angle_beta  90.57000
_cell_angle_gamma 90.00000

_symmetry_space_group_name_	'P 1'
_symmetry_space_group_name_H-M	'P 1'

loop_
_symmetry_equiv_pos_as_xyz
  x,y,z

loop_
_atom_site_label
_atom_site_type_symbol
_atom_site_fract_x
_atom_site_fract_y
_atom_site_fract_z
_atom_site_charge
Cd	Cd	0.06174 0.42034 0.17877 1.13400
Cd	Cd	0.08705 0.42014 0.87441 1.13300
N 	N 	0.11380 0.37480 0.28870 -0.25000
N 	N 	0.14010 0.36860 0.77720 -0.24100
C 	C 	0.18050 0.31890 0.40510 0.10500
C 	C 	0.19020 0.31110 0.63310 0.08900
C 	C 	0.14240 0.31830 0.78310 0.08800
H 	H 	0.12720 0.30250 0.83710 -0.01100
C 	C 	0.16170 0.38200 0.28360 0.10000
H 	H 	0.17240 0.40710 0.23970 -0.02500
C 	C 	0.13210 0.31180 0.41380 -0.16800
H 	H 	0.12030 0.28790 0.45930 0.09200
C 	C 	0.16630 0.28780 0.71360 -0.15400
H 	H 	0.16630 0.25250 0.72040 0.08300
C 	C 	0.24810 0.25560 0.39620 -0.05700
H 	H 	0.24590 0.25850 0.32660 0.05200
C 	C 	0.21850 0.27910 0.56010 -0.01400
C 	C 	0.19740 0.35600 0.33720 -0.16900
H 	H 	0.23070 0.36260 0.32900 0.08900
C 	C 	0.18650 0.36320 0.62560 -0.15100
H 	H 	0.20050 0.38010 0.57140 0.08600
C 	C 	0.16210 0.39030 0.69790 0.07800
H 	H 	0.16070 0.42560 0.69170 -0.01300
C 	C 	0.21720 0.28670 0.45950 -0.02400
C 	C 	0.09880 0.34030 0.35430 0.08900
H 	H 	0.06520 0.33470 0.36140 -0.01400
S 	S 	0.97948 0.40776 0.25960 -0.60500
C 	C 	0.97520 0.34080 0.27810 0.16200
C 	C 	0.96250 0.32190 0.37290 -0.20900
H 	H 	0.95570 0.34470 0.42440 0.11000
C 	C 	0.96000 0.27040 0.39190 0.11000
H 	H 	0.95180 0.25870 0.45560 -0.01200
C 	C 	0.96970 0.23620 0.31490 -0.18500
H 	H 	0.96730 0.20140 0.32680 0.09200
C 	C 	0.98310 0.25370 0.22000 0.11900
H 	H 	0.99050 0.23100 0.16870 -0.01600
C 	C 	0.98510 0.30590 0.20430 -0.24700
H 	H 	0.99350 0.31780 0.14080 0.06700
S 	S 	0.08078 0.36502 0.02665 -0.64100
C 	C 	0.13950 0.33740 0.05290 0.21900
C 	C 	0.18280 0.35930 0.02730 -0.28800
H 	H 	0.18260 0.39100 0.99600 0.08800
C 	C 	0.22760 0.33510 0.04700 0.17600
H 	H 	0.25640 0.35080 0.02580 -0.03300
C 	C 	0.23120 0.28960 0.09580 -0.25300
H 	H 	0.26130 0.27490 0.11320 0.11800
C 	C 	0.18710 0.26700 0.11720 0.17100
H 	H 	0.18710 0.23430 0.14410 -0.03000
C 	C 	0.14230 0.29100 0.10050 -0.26900
H 	H 	0.11350 0.27540 0.12190 0.12600
Cd	Cd	0.56174 0.92034 0.17877 1.12500
Cd	Cd	0.58705 0.92014 0.87441 1.12500
N 	N 	0.61380 0.87480 0.28870 -0.25600
N 	N 	0.64010 0.86860 0.77720 -0.24500
C 	C 	0.68050 0.81890 0.40510 0.10300
C 	C 	0.69020 0.81110 0.63310 0.08700
C 	C 	0.64240 0.81830 0.78310 0.08700
H 	H 	0.62720 0.80250 0.83710 -0.01300
C 	C 	0.66170 0.88200 0.28360 0.09700
H 	H 	0.67240 0.90710 0.23970 -0.03700
C 	C 	0.63210 0.81180 0.41380 -0.16900
H 	H 	0.62030 0.78790 0.45930 0.09100
C 	C 	0.66630 0.78780 0.71360 -0.15500
H 	H 	0.66630 0.75250 0.72040 0.08100
C 	C 	0.74810 0.75560 0.39620 -0.05900
H 	H 	0.74590 0.75850 0.32660 0.05100
C 	C 	0.71850 0.77910 0.56010 -0.01700
C 	C 	0.69740 0.85600 0.33720 -0.17400
H 	H 	0.73070 0.86260 0.32900 0.08400
C 	C 	0.68650 0.86320 0.62560 -0.15600
H 	H 	0.70050 0.88010 0.57140 0.07900
C 	C 	0.66210 0.89030 0.69790 0.07600
H 	H 	0.66070 0.92560 0.69170 -0.02900
C 	C 	0.71720 0.78670 0.45950 -0.02700
C 	C 	0.59880 0.84030 0.35430 0.08600
H 	H 	0.56520 0.83470 0.36140 -0.01600
S 	S 	0.47948 0.90776 0.25960 -0.63000
C 	C 	0.47520 0.84080 0.27810 0.16700
C 	C 	0.46250 0.82190 0.37290 -0.21300
H 	H 	0.45570 0.84470 0.42440 0.10800
C 	C 	0.46000 0.77040 0.39190 0.11200
H 	H 	0.45180 0.75870 0.45560 -0.01400
C 	C 	0.46970 0.73620 0.31490 -0.18800
H 	H 	0.46730 0.70140 0.32680 0.09100
C 	C 	0.48310 0.75370 0.22000 0.12200
H 	H 	0.49050 0.73100 0.16870 -0.01800
C 	C 	0.48510 0.80590 0.20430 -0.25100
H 	H 	0.49350 0.81780 0.14080 0.06900
S 	S 	0.58078 0.86502 0.02665 -0.65000
C 	C 	0.63950 0.83740 0.05290 0.21800
C 	C 	0.68280 0.85930 0.02730 -0.28900
H 	H 	0.68260 0.89100 0.99600 0.07900
C 	C 	0.72760 0.83510 0.04700 0.17400
H 	H 	0.75640 0.85080 0.02580 -0.03900
C 	C 	0.73120 0.78960 0.09580 -0.25400
H 	H 	0.76130 0.77490 0.11320 0.11700
C 	C 	0.68710 0.76700 0.11720 0.17100
H 	H 	0.68710 0.73430 0.14410 -0.03100
C 	C 	0.64230 0.79100 0.10050 -0.26900
H 	H 	0.61350 0.77540 0.12190 0.12600
Cd	Cd	0.93826 0.42034 0.82123 1.13300
Cd	Cd	0.91295 0.42014 0.12559 1.13200
N 	N 	0.88620 0.37480 0.71130 -0.25100
N 	N 	0.85990 0.36860 0.22280 -0.24200
C 	C 	0.81950 0.31890 0.59490 0.10400
C 	C 	0.80980 0.31110 0.36690 0.08800
C 	C 	0.85760 0.31830 0.21690 0.08700
H 	H 	0.87280 0.30250 0.16290 -0.01200
C 	C 	0.83830 0.38200 0.71640 0.09900
H 	H 	0.82760 0.40710 0.76030 -0.02600
C 	C 	0.86790 0.31180 0.58620 -0.16900
H 	H 	0.87970 0.28790 0.54070 0.09100
C 	C 	0.83370 0.28780 0.28640 -0.15500
H 	H 	0.83370 0.25250 0.27960 0.08200
C 	C 	0.75190 0.25560 0.60380 -0.05800
H 	H 	0.75410 0.25850 0.67340 0.05100
C 	C 	0.78150 0.27910 0.43990 -0.01500
C 	C 	0.80260 0.35600 0.66280 -0.17000
H 	H 	0.76930 0.36260 0.67100 0.08800
C 	C 	0.81350 0.36320 0.37440 -0.15200
H 	H 	0.79950 0.38010 0.42860 0.08500
C 	C 	0.83790 0.39030 0.30210 0.07700
H 	H 	0.83930 0.42560 0.30830 -0.01400
C 	C 	0.78280 0.28670 0.54050 -0.02500
C 	C 	0.90120 0.34030 0.64570 0.08800
H 	H 	0.93480 0.33470 0.63860 -0.01500
S 	S 	0.02052 0.40776 0.74040 -0.60500
C 	C 	0.02480 0.34080 0.72190 0.16200
C 	C 	0.03750 0.32190 0.62710 -0.20900
H 	H 	0.04430 0.34470 0.57560 0.11000
C 	C 	0.04000 0.27040 0.60810 0.11000
H 	H 	0.04820 0.25870 0.54440 -0.01200
C 	C 	0.03030 0.23620 0.68510 -0.18500
H 	H 	0.03270 0.20140 0.67320 0.09200
C 	C 	0.01690 0.25370 0.78000 0.11900
H 	H 	0.00950 0.23100 0.83130 -0.01600
C 	C 	0.01490 0.30590 0.79570 -0.24700
H 	H 	0.00650 0.31780 0.85920 0.06700
S 	S 	0.91922 0.36502 0.97335 -0.64100
C 	C 	0.86050 0.33740 0.94710 0.21900
C 	C 	0.81720 0.35930 0.97270 -0.28800
H 	H 	0.81740 0.39100 0.00400 0.08800
C 	C 	0.77240 0.33510 0.95300 0.17600
H 	H 	0.74360 0.35080 0.97420 -0.03300
C 	C 	0.76880 0.28960 0.90420 -0.25300
H 	H 	0.73870 0.27490 0.88680 0.11800
C 	C 	0.81290 0.26700 0.88280 0.17100
H 	H 	0.81290 0.23430 0.85590 -0.03000
C 	C 	0.85770 0.29100 0.89950 -0.26900
H 	H 	0.88650 0.27540 0.87810 0.12600
Cd	Cd	0.43826 0.92034 0.82123 1.12500
Cd	Cd	0.41295 0.92014 0.12559 1.12500
N 	N 	0.38620 0.87480 0.71130 -0.25600
N 	N 	0.35990 0.86860 0.22280 -0.24500
C 	C 	0.31950 0.81890 0.59490 0.10300
C 	C 	0.30980 0.81110 0.36690 0.08700
C 	C 	0.35760 0.81830 0.21690 0.08700
H 	H 	0.37280 0.80250 0.16290 -0.01300
C 	C 	0.33830 0.88200 0.71640 0.09700
H 	H 	0.32760 0.90710 0.76030 -0.03700
C 	C 	0.36790 0.81180 0.58620 -0.16900
H 	H 	0.37970 0.78790 0.54070 0.09100
C 	C 	0.33370 0.78780 0.28640 -0.15500
H 	H 	0.33370 0.75250 0.27960 0.08100
C 	C 	0.25190 0.75560 0.60380 -0.05900
H 	H 	0.25410 0.75850 0.67340 0.05100
C 	C 	0.28150 0.77910 0.43990 -0.01700
C 	C 	0.30260 0.85600 0.66280 -0.17400
H 	H 	0.26930 0.86260 0.67100 0.08400
C 	C 	0.31350 0.86320 0.37440 -0.15600
H 	H 	0.29950 0.88010 0.42860 0.07900
C 	C 	0.33790 0.89030 0.30210 0.07600
H 	H 	0.33930 0.92560 0.30830 -0.02900
C 	C 	0.28280 0.78670 0.54050 -0.02700
C 	C 	0.40120 0.84030 0.64570 0.08600
H 	H 	0.43480 0.83470 0.63860 -0.01600
S 	S 	0.52052 0.90776 0.74040 -0.63000
C 	C 	0.52480 0.84080 0.72190 0.16700
C 	C 	0.53750 0.82190 0.62710 -0.21300
H 	H 	0.54430 0.84470 0.57560 0.10800
C 	C 	0.54000 0.77040 0.60810 0.11200
H 	H 	0.54820 0.75870 0.54440 -0.01400
C 	C 	0.53030 0.73620 0.68510 -0.18800
H 	H 	0.53270 0.70140 0.67320 0.09100
C 	C 	0.51690 0.75370 0.78000 0.12200
H 	H 	0.50950 0.73100 0.83130 -0.01800
C 	C 	0.51490 0.80590 0.79570 -0.25100
H 	H 	0.50650 0.81780 0.85920 0.06900
S 	S 	0.41922 0.86502 0.97335 -0.65000
C 	C 	0.36050 0.83740 0.94710 0.21800
C 	C 	0.31720 0.85930 0.97270 -0.28900
H 	H 	0.31740 0.89100 0.00400 0.07900
C 	C 	0.27240 0.83510 0.95300 0.17400
H 	H 	0.24360 0.85080 0.97420 -0.03900
C 	C 	0.26880 0.78960 0.90420 -0.25400
H 	H 	0.23870 0.77490 0.88680 0.11700
C 	C 	0.31290 0.76700 0.88280 0.17100
H 	H 	0.31290 0.73430 0.85590 -0.03100
C 	C 	0.35770 0.79100 0.89950 -0.26900
H 	H 	0.38650 0.77540 0.87810 0.12600
Cd	Cd	0.93826 0.57966 0.82123 1.13300
Cd	Cd	0.91295 0.57986 0.12559 1.13200
N 	N 	0.88620 0.62520 0.71130 -0.25100
N 	N 	0.85990 0.63140 0.22280 -0.24200
C 	C 	0.81950 0.68110 0.59490 0.10300
C 	C 	0.80980 0.68890 0.36690 0.08700
C 	C 	0.85760 0.68170 0.21690 0.08700
H 	H 	0.87280 0.69750 0.16290 -0.01300
C 	C 	0.83830 0.61800 0.71640 0.09900
H 	H 	0.82760 0.59290 0.76030 -0.02600
C 	C 	0.86790 0.68820 0.58620 -0.16800
H 	H 	0.87970 0.71210 0.54070 0.08900
C 	C 	0.83370 0.71220 0.28640 -0.15400
H 	H 	0.83370 0.74750 0.27960 0.07900
C 	C 	0.75190 0.74440 0.60380 -0.06000
H 	H 	0.75410 0.74150 0.67340 0.05100
C 	C 	0.78150 0.72090 0.43990 -0.01600
C 	C 	0.80260 0.64400 0.66280 -0.17000
H 	H 	0.76930 0.63740 0.67100 0.08800
C 	C 	0.81350 0.63680 0.37440 -0.15200
H 	H 	0.79950 0.61990 0.42860 0.08500
C 	C 	0.83790 0.60970 0.30210 0.07600
H 	H 	0.83930 0.57440 0.30830 -0.01400
C 	C 	0.78280 0.71330 0.54050 -0.02600
C 	C 	0.90120 0.65970 0.64570 0.08800
H 	H 	0.93480 0.66530 0.63860 -0.01600
S 	S 	0.02052 0.59224 0.74040 -0.60500
C 	C 	0.02480 0.65920 0.72190 0.16200
C 	C 	0.03750 0.67810 0.62710 -0.20800
H 	H 	0.04430 0.65530 0.57560 0.11000
C 	C 	0.04000 0.72960 0.60810 0.10800
H 	H 	0.04820 0.74130 0.54440 -0.01400
C 	C 	0.03030 0.76380 0.68510 -0.18600
H 	H 	0.03270 0.79860 0.67320 0.08500
C 	C 	0.01690 0.74630 0.78000 0.11700
H 	H 	0.00950 0.76900 0.83130 -0.02000
C 	C 	0.01490 0.69410 0.79570 -0.24700
H 	H 	0.00650 0.68220 0.85920 0.06600
S 	S 	0.91922 0.63498 0.97335 -0.64200
C 	C 	0.86050 0.66260 0.94710 0.21900
C 	C 	0.81720 0.64070 0.97270 -0.28900
H 	H 	0.81740 0.60900 0.00400 0.08800
C 	C 	0.77240 0.66490 0.95300 0.17700
H 	H 	0.74360 0.64920 0.97420 -0.03300
C 	C 	0.76880 0.71040 0.90420 -0.25500
H 	H 	0.73870 0.72510 0.88680 0.11800
C 	C 	0.81290 0.73300 0.88280 0.17200
H 	H 	0.81290 0.76570 0.85590 -0.03400
C 	C 	0.85770 0.70900 0.89950 -0.27100
H 	H 	0.88650 0.72460 0.87810 0.12400
Cd	Cd	0.43826 0.07966 0.82123 1.13400
Cd	Cd	0.41295 0.07986 0.12559 1.13300
N 	N 	0.38620 0.12520 0.71130 -0.25200
N 	N 	0.35990 0.13140 0.22280 -0.24200
C 	C 	0.31950 0.18110 0.59490 0.10400
C 	C 	0.30980 0.18890 0.36690 0.08800
C 	C 	0.35760 0.18170 0.21690 0.08800
H 	H 	0.37280 0.19750 0.16290 -0.01300
C 	C 	0.33830 0.11800 0.71640 0.10000
H 	H 	0.32760 0.09290 0.76030 -0.02600
C 	C 	0.36790 0.18820 0.58620 -0.16900
H 	H 	0.37970 0.21210 0.54070 0.09100
C 	C 	0.33370 0.21220 0.28640 -0.15500
H 	H 	0.33370 0.24750 0.27960 0.08100
C 	C 	0.25190 0.24440 0.60380 -0.05900
H 	H 	0.25410 0.24150 0.67340 0.05100
C 	C 	0.28150 0.22090 0.43990 -0.01600
C 	C 	0.30260 0.14400 0.66280 -0.17100
H 	H 	0.26930 0.13740 0.67100 0.09000
C 	C 	0.31350 0.13680 0.37440 -0.15200
H 	H 	0.29950 0.11990 0.42860 0.08600
C 	C 	0.33790 0.10970 0.30210 0.07700
H 	H 	0.33930 0.07440 0.30830 -0.01400
C 	C 	0.28280 0.21330 0.54050 -0.02500
C 	C 	0.40120 0.15970 0.64570 0.08800
H 	H 	0.43480 0.16530 0.63860 -0.01600
S 	S 	0.52052 0.09224 0.74040 -0.60100
C 	C 	0.52480 0.15920 0.72190 0.16000
C 	C 	0.53750 0.17810 0.62710 -0.20700
H 	H 	0.54430 0.15530 0.57560 0.10900
C 	C 	0.54000 0.22960 0.60810 0.10800
H 	H 	0.54820 0.24130 0.54440 -0.01300
C 	C 	0.53030 0.26380 0.68510 -0.18400
H 	H 	0.53270 0.29860 0.67320 0.08900
C 	C 	0.51690 0.24630 0.78000 0.11700
H 	H 	0.50950 0.26900 0.83130 -0.01600
C 	C 	0.51490 0.19410 0.79570 -0.24500
H 	H 	0.50650 0.18220 0.85920 0.06600
S 	S 	0.41922 0.13498 0.97335 -0.64100
C 	C 	0.36050 0.16260 0.94710 0.21800
C 	C 	0.31720 0.14070 0.97270 -0.28800
H 	H 	0.31740 0.10900 0.00400 0.08800
C 	C 	0.27240 0.16490 0.95300 0.17600
H 	H 	0.24360 0.14920 0.97420 -0.03200
C 	C 	0.26880 0.21040 0.90420 -0.25300
H 	H 	0.23870 0.22510 0.88680 0.11800
C 	C 	0.31290 0.23300 0.88280 0.17100
H 	H 	0.31290 0.26570 0.85590 -0.03100
C 	C 	0.35770 0.20900 0.89950 -0.26900
H 	H 	0.38650 0.22460 0.87810 0.12500
Cd	Cd	0.06174 0.57966 0.17877 1.13300
Cd	Cd	0.08705 0.57986 0.87441 1.13200
N 	N 	0.11380 0.62520 0.28870 -0.25100
N 	N 	0.14010 0.63140 0.77720 -0.24200
C 	C 	0.18050 0.68110 0.40510 0.10300
C 	C 	0.19020 0.68890 0.63310 0.08700
C 	C 	0.14240 0.68170 0.78310 0.08700
H 	H 	0.12720 0.69750 0.83710 -0.01300
C 	C 	0.16170 0.61800 0.28360 0.09900
H 	H 	0.17240 0.59290 0.23970 -0.02600
C 	C 	0.13210 0.68820 0.41380 -0.16800
H 	H 	0.12030 0.71210 0.45930 0.08900
C 	C 	0.16630 0.71220 0.71360 -0.15400
H 	H 	0.16630 0.74750 0.72040 0.07900
C 	C 	0.24810 0.74440 0.39620 -0.06000
H 	H 	0.24590 0.74150 0.32660 0.05100
C 	C 	0.21850 0.72090 0.56010 -0.01600
C 	C 	0.19740 0.64400 0.33720 -0.17000
H 	H 	0.23070 0.63740 0.32900 0.08800
C 	C 	0.18650 0.63680 0.62560 -0.15200
H 	H 	0.20050 0.61990 0.57140 0.08500
C 	C 	0.16210 0.60970 0.69790 0.07600
H 	H 	0.16070 0.57440 0.69170 -0.01400
C 	C 	0.21720 0.71330 0.45950 -0.02600
C 	C 	0.09880 0.65970 0.35430 0.08800
H 	H 	0.06520 0.66530 0.36140 -0.01600
S 	S 	0.97948 0.59224 0.25960 -0.60500
C 	C 	0.97520 0.65920 0.27810 0.16200
C 	C 	0.96250 0.67810 0.37290 -0.20800
H 	H 	0.95570 0.65530 0.42440 0.11000
C 	C 	0.96000 0.72960 0.39190 0.10800
H 	H 	0.95180 0.74130 0.45560 -0.01400
C 	C 	0.96970 0.76380 0.31490 -0.18600
H 	H 	0.96730 0.79860 0.32680 0.08500
C 	C 	0.98310 0.74630 0.22000 0.11700
H 	H 	0.99050 0.76900 0.16870 -0.02000
C 	C 	0.98510 0.69410 0.20430 -0.24700
H 	H 	0.99350 0.68220 0.14080 0.06600
S 	S 	0.08078 0.63498 0.02665 -0.64200
C 	C 	0.13950 0.66260 0.05290 0.21900
C 	C 	0.18280 0.64070 0.02730 -0.28900
H 	H 	0.18260 0.60900 0.99600 0.08800
C 	C 	0.22760 0.66490 0.04700 0.17700
H 	H 	0.25640 0.64920 0.02580 -0.03300
C 	C 	0.23120 0.71040 0.09580 -0.25500
H 	H 	0.26130 0.72510 0.11320 0.11800
C 	C 	0.18710 0.73300 0.11720 0.17200
H 	H 	0.18710 0.76570 0.14410 -0.03400
C 	C 	0.14230 0.70900 0.10050 -0.27100
H 	H 	0.11350 0.72460 0.12190 0.12400
Cd	Cd	0.56174 0.07966 0.17877 1.13400
Cd	Cd	0.58705 0.07986 0.87441 1.13300
N 	N 	0.61380 0.12520 0.28870 -0.25200
N 	N 	0.64010 0.13140 0.77720 -0.24200
C 	C 	0.68050 0.18110 0.40510 0.10400
C 	C 	0.69020 0.18890 0.63310 0.08800
C 	C 	0.64240 0.18170 0.78310 0.08800
H 	H 	0.62720 0.19750 0.83710 -0.01300
C 	C 	0.66170 0.11800 0.28360 0.10000
H 	H 	0.67240 0.09290 0.23970 -0.02600
C 	C 	0.63210 0.18820 0.41380 -0.16900
H 	H 	0.62030 0.21210 0.45930 0.09100
C 	C 	0.66630 0.21220 0.71360 -0.15500
H 	H 	0.66630 0.24750 0.72040 0.08100
C 	C 	0.74810 0.24440 0.39620 -0.05900
H 	H 	0.74590 0.24150 0.32660 0.05100
C 	C 	0.71850 0.22090 0.56010 -0.01600
C 	C 	0.69740 0.14400 0.33720 -0.17100
H 	H 	0.73070 0.13740 0.32900 0.09000
C 	C 	0.68650 0.13680 0.62560 -0.15200
H 	H 	0.70050 0.11990 0.57140 0.08600
C 	C 	0.66210 0.10970 0.69790 0.07700
H 	H 	0.66070 0.07440 0.69170 -0.01400
C 	C 	0.71720 0.21330 0.45950 -0.02500
C 	C 	0.59880 0.15970 0.35430 0.08800
H 	H 	0.56520 0.16530 0.36140 -0.01600
S 	S 	0.47948 0.09224 0.25960 -0.60100
C 	C 	0.47520 0.15920 0.27810 0.16000
C 	C 	0.46250 0.17810 0.37290 -0.20700
H 	H 	0.45570 0.15530 0.42440 0.10900
C 	C 	0.46000 0.22960 0.39190 0.10800
H 	H 	0.45180 0.24130 0.45560 -0.01300
C 	C 	0.46970 0.26380 0.31490 -0.18400
H 	H 	0.46730 0.29860 0.32680 0.08900
C 	C 	0.48310 0.24630 0.22000 0.11700
H 	H 	0.49050 0.26900 0.16870 -0.01600
C 	C 	0.48510 0.19410 0.20430 -0.24500
H 	H 	0.49350 0.18220 0.14080 0.06600
S 	S 	0.58078 0.13498 0.02665 -0.64100
C 	C 	0.63950 0.16260 0.05290 0.21800
C 	C 	0.68280 0.14070 0.02730 -0.28800
H 	H 	0.68260 0.10900 0.99600 0.08800
C 	C 	0.72760 0.16490 0.04700 0.17600
H 	H 	0.75640 0.14920 0.02580 -0.03200
C 	C 	0.73120 0.21040 0.09580 -0.25300
H 	H 	0.76130 0.22510 0.11320 0.11800
C 	C 	0.68710 0.23300 0.11720 0.17100
H 	H 	0.68710 0.26570 0.14410 -0.03100
C 	C 	0.64230 0.20900 0.10050 -0.26900
H 	H 	0.61350 0.22460 0.12190 0.12500
S 	S 	0.13490 0.50000 0.83670 -0.61800
C 	C 	0.18910 0.50000 0.90600 0.15700
C 	C 	0.19130 0.50000 0.01050 -0.23200
H 	H 	0.16220 0.50000 0.04700 0.03500
C 	C 	0.23640 0.50000 0.06100 0.09000
H 	H 	0.23920 0.50000 0.13100 -0.00700
C 	C 	0.23120 0.50000 0.84800 -0.20200
H 	H 	0.22840 0.50000 0.77840 0.10700
C 	C 	0.27750 0.50000 0.89300 0.08600
H 	H 	0.30650 0.50000 0.85680 -0.00500
C 	C 	0.27700 0.50000 0.99800 -0.15900
H 	H 	0.30770 0.50000 0.02960 0.08000
S 	S 	0.11032 0.50000 0.21520 -0.64500
C 	C 	0.10960 0.50000 0.35060 0.25300
C 	C 	0.06830 0.50000 0.40490 -0.36200
H 	H 	0.03850 0.50000 0.36980 0.10000
C 	C 	0.06620 0.50000 0.50650 0.26400
H 	H 	0.03660 0.50000 0.54110 -0.07300
C 	C 	0.11070 0.50000 0.55400 -0.32500
H 	H 	0.11070 0.50000 0.62390 0.12600
C 	C 	0.15450 0.50000 0.50850 0.24800
H 	H 	0.18430 0.50000 0.54350 -0.06400
C 	C 	0.15130 0.50000 0.40530 -0.32300
H 	H 	0.18070 0.50000 0.37030 0.14600
S 	S 	0.63490 0.00000 0.83670 -0.59500
C 	C 	0.68910 0.00000 0.90600 0.15700
C 	C 	0.69130 0.00000 0.01050 -0.22400
H 	H 	0.66220 0.00000 0.04700 0.03700
C 	C 	0.73640 -0.00000 0.06100 0.09000
H 	H 	0.73920 0.00000 0.13100 -0.00100
C 	C 	0.73120 0.00000 0.84800 -0.19500
H 	H 	0.72840 -0.00000 0.77840 0.11100
C 	C 	0.77750 0.00000 0.89300 0.08700
H 	H 	0.80650 0.00000 0.85680 0.00200
C 	C 	0.77700 0.00000 0.99800 -0.15200
H 	H 	0.80770 -0.00000 0.02960 0.08400
S 	S 	0.61032 -0.00000 0.21520 -0.62400
C 	C 	0.60960 -0.00000 0.35060 0.25700
C 	C 	0.56830 0.00000 0.40490 -0.36000
H 	H 	0.53850 -0.00000 0.36980 0.10500
C 	C 	0.56620 -0.00000 0.50650 0.26900
H 	H 	0.53660 0.00000 0.54110 -0.07000
C 	C 	0.61070 -0.00000 0.55400 -0.32200
H 	H 	0.61070 0.00000 0.62390 0.13200
C 	C 	0.65450 0.00000 0.50850 0.25400
H 	H 	0.68430 0.00000 0.54350 -0.05800
C 	C 	0.65130 0.00000 0.40530 -0.32000
H 	H 	0.68070 -0.00000 0.37030 0.15100
S 	S 	0.86510 0.50000 0.16330 -0.61800
C 	C 	0.81090 0.50000 0.09400 0.15700
C 	C 	0.80870 0.50000 0.98950 -0.23200
H 	H 	0.83780 0.50000 0.95300 0.03500
C 	C 	0.76360 0.50000 0.93900 0.09000
H 	H 	0.76080 0.50000 0.86900 -0.00700
C 	C 	0.76880 0.50000 0.15200 -0.20200
H 	H 	0.77160 0.50000 0.22160 0.10700
C 	C 	0.72250 0.50000 0.10700 0.08600
H 	H 	0.69350 0.50000 0.14320 -0.00500
C 	C 	0.72300 0.50000 0.00200 -0.15900
H 	H 	0.69230 0.50000 0.97040 0.08000
S 	S 	0.88968 0.50000 0.78480 -0.64500
C 	C 	0.89040 0.50000 0.64940 0.25300
C 	C 	0.93170 0.50000 0.59510 -0.36200
H 	H 	0.96150 0.50000 0.63020 0.10000
C 	C 	0.93380 0.50000 0.49350 0.26400
H 	H 	0.96340 0.50000 0.45890 -0.07300
C 	C 	0.88930 0.50000 0.44600 -0.32500
H 	H 	0.88930 0.50000 0.37610 0.12600
C 	C 	0.84550 0.50000 0.49150 0.24800
H 	H 	0.81570 0.50000 0.45650 -0.06400
C 	C 	0.84870 0.50000 0.59470 -0.32300
H 	H 	0.81930 0.50000 0.62970 0.14600
S 	S 	0.36510 0.00000 0.16330 -0.59500
C 	C 	0.31090 0.00000 0.09400 0.15700
C 	C 	0.30870 -0.00000 0.98950 -0.22400
H 	H 	0.33780 0.00000 0.95300 0.03700
C 	C 	0.26360 0.00000 0.93900 0.09000
H 	H 	0.26080 -0.00000 0.86900 -0.00100
C 	C 	0.26880 -0.00000 0.15200 -0.19500
H 	H 	0.27160 0.00000 0.22160 0.11100
C 	C 	0.22250 -0.00000 0.10700 0.08700
H 	H 	0.19350 0.00000 0.14320 0.00200
C 	C 	0.22300 0.00000 0.00200 -0.15200
H 	H 	0.19230 -0.00000 0.97040 0.08400
S 	S 	0.38968 0.00000 0.78480 -0.62400
C 	C 	0.39040 0.00000 0.64940 0.25700
C 	C 	0.43170 -0.00000 0.59510 -0.36000
H 	H 	0.46150 -0.00000 0.63020 0.10500
C 	C 	0.43380 -0.00000 0.49350 0.26900
H 	H 	0.46340 0.00000 0.45890 -0.07000
C 	C 	0.38930 0.00000 0.44600 -0.32200
H 	H 	0.38930 0.00000 0.37610 0.13200
C 	C 	0.34550 0.00000 0.49150 0.25400
H 	H 	0.31570 0.00000 0.45650 -0.05800
C 	C 	0.34870 -0.00000 0.59470 -0.32000
H 	H 	0.31930 -0.00000 0.62970 0.15100
