data_crystal

_cell_length_a 18.61800
_cell_length_b 8.76010
_cell_length_c 17.48400
_cell_angle_alpha 90.00000
_cell_angle_beta  93.43000
_cell_angle_gamma 90.00000

_symmetry_space_group_name_	'P 1'
_symmetry_space_group_name_H-M	'P 1'

loop_
_symmetry_equiv_pos_as_xyz
  x,y,z

loop_
_atom_site_label
_atom_site_type_symbol
_atom_site_fract_x
_atom_site_fract_y
_atom_site_fract_z
_atom_site_charge
Zn	Zn	0.32058 0.97450 0.09684 1.23300
Zn	Zn	0.01556 0.99122 0.11550 1.23500
Zn	Zn	0.40725 0.48156 0.26241 1.23800
Zn	Zn	0.15988 0.48774 0.08921 1.23900
P 	P 	0.16524 0.84547 0.08224 0.44200
H 	H 	0.16500 0.94000 0.02500 -0.05800
P 	P 	0.31070 0.33396 0.13306 0.45400
H 	H 	0.37200 0.33900 0.10000 -0.05600
P 	P 	0.95364 0.74020 0.99768 0.45900
H 	H 	0.00400 0.65300 0.02300 -0.06400
P 	P 	0.96333 0.01967 0.29259 0.50200
H 	H 	0.98400 0.15900 0.31900 -0.04200
P 	P 	0.38641 0.01758 0.93814 0.40900
H 	H 	0.45100 0.98800 0.96800 -0.04800
P 	P 	0.45105 0.80003 0.17605 0.46800
H 	H 	0.47100 0.78000 0.10300 -0.04800
O 	O 	0.23910 0.84800 0.12390 -0.41900
O 	O 	0.28340 0.17230 0.12360 -0.43500
O 	O 	0.33920 0.93060 0.99230 -0.41600
O 	O 	0.39490 0.92640 0.17580 -0.44300
O 	O 	0.10820 0.89610 0.13580 -0.43800
O 	O 	0.94780 0.87090 0.05360 -0.45500
O 	O 	0.96860 0.02470 0.20810 -0.42300
O 	O 	0.97730 0.79620 0.91980 -0.46700
O 	O 	0.32300 0.37330 0.21710 -0.41900
O 	O 	0.38000 0.93740 0.86060 -0.40100
O 	O 	0.51580 0.83550 0.22920 -0.45400
O 	O 	0.41870 0.64770 0.19250 -0.44500
O 	O 	0.88580 0.64540 0.99020 -0.41500
O 	O 	0.14830 0.69260 0.04510 -0.42600
O 	O 	0.26110 0.44670 0.08890 -0.42400
O 	O 	0.88970 0.97850 0.31760 -0.44900
O 	O 	0.02230 0.91230 0.32960 -0.46400
H 	H 	0.00360 0.85050 0.35750 0.29200
O 	O 	0.37380 0.18490 0.93530 -0.26400
Zn	Zn	0.67942 0.47450 0.40316 1.23400
Zn	Zn	0.98444 0.49122 0.38450 1.23700
Zn	Zn	0.59275 0.98156 0.23759 1.23600
Zn	Zn	0.84012 0.98774 0.41079 1.24000
P 	P 	0.83476 0.34547 0.41776 0.44200
H 	H 	0.83500 0.44000 0.47500 -0.05500
P 	P 	0.68930 0.83396 0.36694 0.45400
H 	H 	0.62800 0.83900 0.40000 -0.05600
P 	P 	0.04636 0.24020 0.50232 0.45800
H 	H 	0.99600 0.15300 0.47700 -0.06100
P 	P 	0.03667 0.51967 0.20741 0.49600
H 	H 	0.01600 0.65900 0.18100 -0.04400
P 	P 	0.61359 0.51758 0.56186 0.42300
H 	H 	0.54900 0.48800 0.53200 -0.05400
P 	P 	0.54895 0.30003 0.32395 0.46800
H 	H 	0.52900 0.28000 0.39700 -0.04600
O 	O 	0.76090 0.34800 0.37610 -0.41600
O 	O 	0.71660 0.67230 0.37640 -0.43800
O 	O 	0.66080 0.43060 0.50770 -0.42500
O 	O 	0.60510 0.42640 0.32420 -0.44100
O 	O 	0.89180 0.39610 0.36420 -0.43500
O 	O 	0.05220 0.37090 0.44640 -0.45700
O 	O 	0.03140 0.52470 0.29190 -0.42800
O 	O 	0.02270 0.29620 0.58020 -0.46800
O 	O 	0.67700 0.87330 0.28290 -0.42100
O 	O 	0.62000 0.43740 0.63940 -0.40700
O 	O 	0.48420 0.33550 0.27080 -0.45200
O 	O 	0.58130 0.14770 0.30750 -0.44300
O 	O 	0.11420 0.14540 0.50980 -0.41400
O 	O 	0.85170 0.19260 0.45490 -0.42500
O 	O 	0.73890 0.94670 0.41110 -0.42300
O 	O 	0.11030 0.47850 0.18240 -0.44800
O 	O 	0.97770 0.41230 0.17040 -0.45700
H 	H 	0.99640 0.35050 0.14250 0.29300
O 	O 	0.62620 0.68490 0.56470 -0.26400
Zn	Zn	0.67942 0.02550 0.90316 1.23200
Zn	Zn	0.98444 0.00878 0.88450 1.23400
Zn	Zn	0.59275 0.51844 0.73759 1.23800
Zn	Zn	0.84012 0.51226 0.91079 1.23900
P 	P 	0.83476 0.15453 0.91776 0.44200
H 	H 	0.83500 0.06000 0.97500 -0.05800
P 	P 	0.68930 0.66604 0.86694 0.45400
H 	H 	0.62800 0.66100 0.90000 -0.05600
P 	P 	0.04636 0.25980 0.00232 0.45900
H 	H 	0.99600 0.34700 0.97700 -0.06400
P 	P 	0.03667 0.98033 0.70741 0.50200
H 	H 	0.01600 0.84100 0.68100 -0.04200
P 	P 	0.61359 0.98242 0.06186 0.40900
H 	H 	0.54900 0.01200 0.03200 -0.04800
P 	P 	0.54895 0.19997 0.82395 0.46800
H 	H 	0.52900 0.22000 0.89700 -0.04800
O 	O 	0.76090 0.15200 0.87610 -0.41900
O 	O 	0.71660 0.82770 0.87640 -0.43500
O 	O 	0.66080 0.06940 0.00770 -0.41600
O 	O 	0.60510 0.07360 0.82420 -0.44300
O 	O 	0.89180 0.10390 0.86420 -0.43800
O 	O 	0.05220 0.12910 0.94640 -0.45500
O 	O 	0.03140 0.97530 0.79190 -0.42300
O 	O 	0.02270 0.20380 0.08020 -0.46700
O 	O 	0.67700 0.62670 0.78290 -0.41900
O 	O 	0.62000 0.06260 0.13940 -0.40100
O 	O 	0.48420 0.16450 0.77080 -0.45400
O 	O 	0.58130 0.35230 0.80750 -0.44500
O 	O 	0.11420 0.35460 0.00980 -0.41500
O 	O 	0.85170 0.30740 0.95490 -0.42600
O 	O 	0.73890 0.55330 0.91110 -0.42400
O 	O 	0.11030 0.02150 0.68240 -0.44900
O 	O 	0.97770 0.08770 0.67040 -0.46400
H 	H 	0.99640 0.14950 0.64250 0.29200
O 	O 	0.62620 0.81510 0.06470 -0.26400
Zn	Zn	0.32058 0.52550 0.59684 1.23400
Zn	Zn	0.01556 0.50878 0.61550 1.23700
Zn	Zn	0.40725 0.01844 0.76241 1.23600
Zn	Zn	0.15988 0.01226 0.58921 1.24000
P 	P 	0.16524 0.65453 0.58224 0.44200
H 	H 	0.16500 0.56000 0.52500 -0.05500
P 	P 	0.31070 0.16604 0.63306 0.45400
H 	H 	0.37200 0.16100 0.60000 -0.05600
P 	P 	0.95364 0.75980 0.49768 0.45800
H 	H 	0.00400 0.84700 0.52300 -0.06100
P 	P 	0.96333 0.48033 0.79259 0.49600
H 	H 	0.98400 0.34100 0.81900 -0.04400
P 	P 	0.38641 0.48242 0.43814 0.42300
H 	H 	0.45100 0.51200 0.46800 -0.05400
P 	P 	0.45105 0.69997 0.67605 0.46800
H 	H 	0.47100 0.72000 0.60300 -0.04600
O 	O 	0.23910 0.65200 0.62390 -0.41600
O 	O 	0.28340 0.32770 0.62360 -0.43800
O 	O 	0.33920 0.56940 0.49230 -0.42500
O 	O 	0.39490 0.57360 0.67580 -0.44100
O 	O 	0.10820 0.60390 0.63580 -0.43500
O 	O 	0.94780 0.62910 0.55360 -0.45700
O 	O 	0.96860 0.47530 0.70810 -0.42800
O 	O 	0.97730 0.70380 0.41980 -0.46800
O 	O 	0.32300 0.12670 0.71710 -0.42100
O 	O 	0.38000 0.56260 0.36060 -0.40700
O 	O 	0.51580 0.66450 0.72920 -0.45200
O 	O 	0.41870 0.85230 0.69250 -0.44300
O 	O 	0.88580 0.85460 0.49020 -0.41400
O 	O 	0.14830 0.80740 0.54510 -0.42500
O 	O 	0.26110 0.05330 0.58890 -0.42300
O 	O 	0.88970 0.52150 0.81760 -0.44800
O 	O 	0.02230 0.58770 0.82960 -0.45700
H 	H 	0.00360 0.64950 0.85750 0.29300
O 	O 	0.37380 0.31510 0.43530 -0.26400
