data_crystal

_cell_length_a 20.93350
_cell_length_b 20.93350
_cell_length_c 20.93350
_cell_angle_alpha 115.80800
_cell_angle_beta  115.80800
_cell_angle_gamma 115.80800

_symmetry_space_group_name_	'P 1'
_symmetry_space_group_name_H-M	'P 1'

loop_
_symmetry_equiv_pos_as_xyz
  x,y,z

loop_
_atom_site_label
_atom_site_type_symbol
_atom_site_fract_x
_atom_site_fract_y
_atom_site_fract_z
_atom_site_charge
Cu	Cu	0.59538 0.92375 0.75224 0.91000
Cu	Cu	0.54775 0.01271 0.65121 0.91200
O 	O 	0.49360 0.88140 0.53730 -0.41400
O 	O 	0.52720 0.82790 0.60610 -0.42400
O 	O 	0.72440 0.05850 0.82020 -0.42200
O 	O 	0.70170 0.10470 0.74040 -0.40700
O 	O 	0.51070 0.96590 0.74030 -0.39000
O 	O 	0.40330 0.91380 0.58910 -0.38300
N 	N 	0.47570 0.78100 0.68810 -0.20600
N 	N 	0.68170 0.00730 0.90620 -0.20800
N 	N 	0.14480 0.73710 0.58590 -0.21100
C 	C 	0.41760 0.77350 0.70180 0.03700
H 	H 	0.44280 0.83850 0.75220 0.01400
C 	C 	0.32090 0.67310 0.64460 -0.05200
H 	H 	0.27970 0.66970 0.65360 0.05900
C 	C 	0.28670 0.57790 0.57350 -0.05300
C 	C 	0.35020 0.58710 0.56400 -0.05300
H 	H 	0.33060 0.52480 0.51930 0.05400
C 	C 	0.44330 0.68900 0.62070 0.03800
H 	H 	0.48520 0.69420 0.61210 0.01100
C 	C 	0.48790 0.81660 0.53160 0.37000
C 	C 	0.70460 0.08930 0.97380 0.04800
H 	H 	0.67550 0.10630 0.94680 0.01900
C 	C 	0.91700 0.23010 0.84880 -0.06200
H 	H 	0.87180 0.21710 0.79250 0.06500
C 	C 	0.87610 0.18470 0.87140 -0.04300
C 	C 	0.94570 0.20830 0.95660 -0.06000
H 	H 	0.92010 0.17870 0.97400 0.06100
C 	C 	0.72360 0.98400 0.94600 0.03600
H 	H 	0.70570 0.92440 0.89800 -0.00200
C 	C 	0.75700 0.10920 0.80470 0.35200
C 	C 	0.25050 0.83230 0.69240 0.03500
H 	H 	0.26280 0.85890 0.75090 0.02100
C 	C 	0.34140 0.89170 0.71780 -0.06300
H 	H 	0.41420 0.95680 0.79230 0.06000
C 	C 	0.32330 0.85380 0.63200 -0.03400
C 	C 	0.21600 0.75780 0.52390 -0.06300
H 	H 	0.20160 0.73070 0.46410 0.06600
C 	C 	0.12980 0.70180 0.50450 0.04000
H 	H 	0.05680 0.63560 0.43030 0.01800
C 	C 	0.41980 0.91570 0.65610 0.30900
Cu	Cu	0.75224 0.59538 0.92375 0.91100
Cu	Cu	0.65121 0.54775 0.01271 0.91300
O 	O 	0.53730 0.49360 0.88140 -0.41300
O 	O 	0.60610 0.52720 0.82790 -0.42300
O 	O 	0.82020 0.72440 0.05850 -0.42100
O 	O 	0.74040 0.70170 0.10470 -0.40600
O 	O 	0.74030 0.51070 0.96590 -0.38900
O 	O 	0.58910 0.40330 0.91380 -0.38200
N 	N 	0.68810 0.47570 0.78100 -0.20500
N 	N 	0.90620 0.68170 0.00730 -0.20700
N 	N 	0.58590 0.14480 0.73710 -0.21000
C 	C 	0.70180 0.41760 0.77350 0.03800
H 	H 	0.75220 0.44280 0.83850 0.01500
C 	C 	0.64460 0.32090 0.67310 -0.05100
H 	H 	0.65360 0.27970 0.66970 0.06000
C 	C 	0.57350 0.28670 0.57790 -0.05200
C 	C 	0.56400 0.35020 0.58710 -0.05200
H 	H 	0.51930 0.33060 0.52480 0.05500
C 	C 	0.62070 0.44330 0.68900 0.03800
H 	H 	0.61210 0.48520 0.69420 0.01100
C 	C 	0.53160 0.48790 0.81660 0.37000
C 	C 	0.97380 0.70460 0.08930 0.04800
H 	H 	0.94680 0.67550 0.10630 0.01900
C 	C 	0.84880 0.91700 0.23010 -0.06200
H 	H 	0.79250 0.87180 0.21710 0.06500
C 	C 	0.87140 0.87610 0.18470 -0.04300
C 	C 	0.95660 0.94570 0.20830 -0.06000
H 	H 	0.97400 0.92010 0.17870 0.06100
C 	C 	0.94600 0.72360 0.98400 0.03600
H 	H 	0.89800 0.70570 0.92440 -0.00200
C 	C 	0.80470 0.75700 0.10920 0.35200
C 	C 	0.69240 0.25050 0.83230 0.03500
H 	H 	0.75090 0.26280 0.85890 0.02100
C 	C 	0.71780 0.34140 0.89170 -0.06300
H 	H 	0.79230 0.41420 0.95680 0.06000
C 	C 	0.63200 0.32330 0.85380 -0.03400
C 	C 	0.52390 0.21600 0.75780 -0.06300
H 	H 	0.46410 0.20160 0.73070 0.06600
C 	C 	0.50450 0.12980 0.70180 0.04000
H 	H 	0.43030 0.05680 0.63560 0.01800
C 	C 	0.65610 0.41980 0.91570 0.30900
Cu	Cu	0.92375 0.75224 0.59538 0.91100
Cu	Cu	0.01271 0.65121 0.54775 0.91300
O 	O 	0.88140 0.53730 0.49360 -0.41300
O 	O 	0.82790 0.60610 0.52720 -0.42300
O 	O 	0.05850 0.82020 0.72440 -0.42100
O 	O 	0.10470 0.74040 0.70170 -0.40600
O 	O 	0.96590 0.74030 0.51070 -0.38900
O 	O 	0.91380 0.58910 0.40330 -0.38200
N 	N 	0.78100 0.68810 0.47570 -0.20500
N 	N 	0.00730 0.90620 0.68170 -0.20700
N 	N 	0.73710 0.58590 0.14480 -0.21000
C 	C 	0.77350 0.70180 0.41760 0.03800
H 	H 	0.83850 0.75220 0.44280 0.01500
C 	C 	0.67310 0.64460 0.32090 -0.05100
H 	H 	0.66970 0.65360 0.27970 0.06000
C 	C 	0.57790 0.57350 0.28670 -0.05200
C 	C 	0.58710 0.56400 0.35020 -0.05200
H 	H 	0.52480 0.51930 0.33060 0.05500
C 	C 	0.68900 0.62070 0.44330 0.03800
H 	H 	0.69420 0.61210 0.48520 0.01100
C 	C 	0.81660 0.53160 0.48790 0.37000
C 	C 	0.08930 0.97380 0.70460 0.04800
H 	H 	0.10630 0.94680 0.67550 0.01900
C 	C 	0.23010 0.84880 0.91700 -0.06200
H 	H 	0.21710 0.79250 0.87180 0.06500
C 	C 	0.18470 0.87140 0.87610 -0.04300
C 	C 	0.20830 0.95660 0.94570 -0.06000
H 	H 	0.17870 0.97400 0.92010 0.06100
C 	C 	0.98400 0.94600 0.72360 0.03600
H 	H 	0.92440 0.89800 0.70570 -0.00200
C 	C 	0.10920 0.80470 0.75700 0.35200
C 	C 	0.83230 0.69240 0.25050 0.03500
H 	H 	0.85890 0.75090 0.26280 0.02100
C 	C 	0.89170 0.71780 0.34140 -0.06300
H 	H 	0.95680 0.79230 0.41420 0.06000
C 	C 	0.85380 0.63200 0.32330 -0.03400
C 	C 	0.75780 0.52390 0.21600 -0.06300
H 	H 	0.73070 0.46410 0.20160 0.06600
C 	C 	0.70180 0.50450 0.12980 0.04000
H 	H 	0.63560 0.43030 0.05680 0.01800
C 	C 	0.91570 0.65610 0.41980 0.30900
Cu	Cu	0.40462 0.07625 0.24776 0.91100
Cu	Cu	0.45225 0.98729 0.34879 0.91300
O 	O 	0.50640 0.11860 0.46270 -0.41300
O 	O 	0.47280 0.17210 0.39390 -0.42300
O 	O 	0.27560 0.94150 0.17980 -0.42100
O 	O 	0.29830 0.89530 0.25960 -0.40600
O 	O 	0.48930 0.03410 0.25970 -0.38900
O 	O 	0.59670 0.08620 0.41090 -0.38200
N 	N 	0.52430 0.21900 0.31190 -0.20500
N 	N 	0.31830 0.99270 0.09380 -0.20700
N 	N 	0.85520 0.26290 0.41410 -0.21000
C 	C 	0.58240 0.22650 0.29820 0.03800
H 	H 	0.55720 0.16150 0.24780 0.01500
C 	C 	0.67910 0.32690 0.35540 -0.05100
H 	H 	0.72030 0.33030 0.34640 0.06000
C 	C 	0.71330 0.42210 0.42650 -0.05200
C 	C 	0.64980 0.41290 0.43600 -0.05200
H 	H 	0.66940 0.47520 0.48070 0.05500
C 	C 	0.55670 0.31100 0.37930 0.03800
H 	H 	0.51480 0.30580 0.38790 0.01100
C 	C 	0.51210 0.18340 0.46840 0.37000
C 	C 	0.29540 0.91070 0.02620 0.04800
H 	H 	0.32450 0.89370 0.05320 0.01900
C 	C 	0.08300 0.76990 0.15120 -0.06200
H 	H 	0.12820 0.78290 0.20750 0.06500
C 	C 	0.12390 0.81530 0.12860 -0.04300
C 	C 	0.05430 0.79170 0.04340 -0.06000
H 	H 	0.07990 0.82130 0.02600 0.06100
C 	C 	0.27640 0.01600 0.05400 0.03600
H 	H 	0.29430 0.07560 0.10200 -0.00200
C 	C 	0.24300 0.89080 0.19530 0.35200
C 	C 	0.74950 0.16770 0.30760 0.03500
H 	H 	0.73720 0.14110 0.24910 0.02100
C 	C 	0.65860 0.10830 0.28220 -0.06300
H 	H 	0.58580 0.04320 0.20770 0.06000
C 	C 	0.67670 0.14620 0.36800 -0.03400
C 	C 	0.78400 0.24220 0.47610 -0.06300
H 	H 	0.79840 0.26930 0.53590 0.06600
C 	C 	0.87020 0.29820 0.49550 0.04000
H 	H 	0.94320 0.36440 0.56970 0.01800
C 	C 	0.58020 0.08430 0.34390 0.30900
Cu	Cu	0.24776 0.40462 0.07625 0.91100
Cu	Cu	0.34879 0.45225 0.98729 0.91300
O 	O 	0.46270 0.50640 0.11860 -0.41300
O 	O 	0.39390 0.47280 0.17210 -0.42300
O 	O 	0.17980 0.27560 0.94150 -0.42100
O 	O 	0.25960 0.29830 0.89530 -0.40600
O 	O 	0.25970 0.48930 0.03410 -0.38900
O 	O 	0.41090 0.59670 0.08620 -0.38200
N 	N 	0.31190 0.52430 0.21900 -0.20500
N 	N 	0.09380 0.31830 0.99270 -0.20700
N 	N 	0.41410 0.85520 0.26290 -0.21000
C 	C 	0.29820 0.58240 0.22650 0.03800
H 	H 	0.24780 0.55720 0.16150 0.01500
C 	C 	0.35540 0.67910 0.32690 -0.05100
H 	H 	0.34640 0.72030 0.33030 0.06000
C 	C 	0.42650 0.71330 0.42210 -0.05200
C 	C 	0.43600 0.64980 0.41290 -0.05200
H 	H 	0.48070 0.66940 0.47520 0.05500
C 	C 	0.37930 0.55670 0.31100 0.03800
H 	H 	0.38790 0.51480 0.30580 0.01100
C 	C 	0.46840 0.51210 0.18340 0.37000
C 	C 	0.02620 0.29540 0.91070 0.04800
H 	H 	0.05320 0.32450 0.89370 0.01900
C 	C 	0.15120 0.08300 0.76990 -0.06200
H 	H 	0.20750 0.12820 0.78290 0.06500
C 	C 	0.12860 0.12390 0.81530 -0.04300
C 	C 	0.04340 0.05430 0.79170 -0.06000
H 	H 	0.02600 0.07990 0.82130 0.06100
C 	C 	0.05400 0.27640 0.01600 0.03600
H 	H 	0.10200 0.29430 0.07560 -0.00200
C 	C 	0.19530 0.24300 0.89080 0.35200
C 	C 	0.30760 0.74950 0.16770 0.03500
H 	H 	0.24910 0.73720 0.14110 0.02100
C 	C 	0.28220 0.65860 0.10830 -0.06300
H 	H 	0.20770 0.58580 0.04320 0.06000
C 	C 	0.36800 0.67670 0.14620 -0.03400
C 	C 	0.47610 0.78400 0.24220 -0.06300
H 	H 	0.53590 0.79840 0.26930 0.06600
C 	C 	0.49550 0.87020 0.29820 0.04000
H 	H 	0.56970 0.94320 0.36440 0.01800
C 	C 	0.34390 0.58020 0.08430 0.30900
Cu	Cu	0.07625 0.24776 0.40462 0.91100
Cu	Cu	0.98729 0.34879 0.45225 0.91300
O 	O 	0.11860 0.46270 0.50640 -0.41300
O 	O 	0.17210 0.39390 0.47280 -0.42300
O 	O 	0.94150 0.17980 0.27560 -0.42100
O 	O 	0.89530 0.25960 0.29830 -0.40600
O 	O 	0.03410 0.25970 0.48930 -0.38900
O 	O 	0.08620 0.41090 0.59670 -0.38200
N 	N 	0.21900 0.31190 0.52430 -0.20500
N 	N 	0.99270 0.09380 0.31830 -0.20700
N 	N 	0.26290 0.41410 0.85520 -0.21000
C 	C 	0.22650 0.29820 0.58240 0.03800
H 	H 	0.16150 0.24780 0.55720 0.01500
C 	C 	0.32690 0.35540 0.67910 -0.05100
H 	H 	0.33030 0.34640 0.72030 0.06000
C 	C 	0.42210 0.42650 0.71330 -0.05200
C 	C 	0.41290 0.43600 0.64980 -0.05200
H 	H 	0.47520 0.48070 0.66940 0.05500
C 	C 	0.31100 0.37930 0.55670 0.03800
H 	H 	0.30580 0.38790 0.51480 0.01100
C 	C 	0.18340 0.46840 0.51210 0.37000
C 	C 	0.91070 0.02620 0.29540 0.04800
H 	H 	0.89370 0.05320 0.32450 0.01900
C 	C 	0.76990 0.15120 0.08300 -0.06200
H 	H 	0.78290 0.20750 0.12820 0.06500
C 	C 	0.81530 0.12860 0.12390 -0.04300
C 	C 	0.79170 0.04340 0.05430 -0.06000
H 	H 	0.82130 0.02600 0.07990 0.06100
C 	C 	0.01600 0.05400 0.27640 0.03600
H 	H 	0.07560 0.10200 0.29430 -0.00200
C 	C 	0.89080 0.19530 0.24300 0.35200
C 	C 	0.16770 0.30760 0.74950 0.03500
H 	H 	0.14110 0.24910 0.73720 0.02100
C 	C 	0.10830 0.28220 0.65860 -0.06300
H 	H 	0.04320 0.20770 0.58580 0.06000
C 	C 	0.14620 0.36800 0.67670 -0.03400
C 	C 	0.24220 0.47610 0.78400 -0.06300
H 	H 	0.26930 0.53590 0.79840 0.06600
C 	C 	0.29820 0.49550 0.87020 0.04000
H 	H 	0.36440 0.56970 0.94320 0.01800
C 	C 	0.08430 0.34390 0.58020 0.30900
