data_crystal

_cell_length_a 18.82500
_cell_length_b 8.39120
_cell_length_c 9.29010
_cell_angle_alpha 90.00000
_cell_angle_beta  94.06400
_cell_angle_gamma 90.00000

_symmetry_space_group_name_	'P 1'
_symmetry_space_group_name_H-M	'P 1'

loop_
_symmetry_equiv_pos_as_xyz
  x,y,z

loop_
_atom_site_label
_atom_site_type_symbol
_atom_site_fract_x
_atom_site_fract_y
_atom_site_fract_z
_atom_site_charge
O 	O 	0.58045 0.51110 0.32625 -0.43100
O 	O 	0.54913 0.66350 0.54950 -0.44700
O 	O 	0.61634 0.40170 0.56840 -0.50100
H 	H 	0.60670 0.41580 0.65220 0.28200
P 	P 	0.60214 0.56056 0.47953 0.46500
C 	C 	0.75035 0.43600 0.36170 -0.76700
H 	H 	0.79810 0.41400 0.33730 0.25900
H 	H 	0.71900 0.43600 0.27550 0.26100
H 	H 	0.73540 0.35540 0.42650 0.25700
C 	C 	0.74803 0.59700 0.43360 0.24200
C 	C 	0.68631 0.66410 0.48490 -0.14000
C 	C 	0.68966 0.81420 0.54940 -0.13600
H 	H 	0.64820 0.85680 0.58260 0.05500
O 	O 	0.08045 0.01110 0.32625 -0.46300
O 	O 	0.04913 0.16350 0.54950 -0.49800
O 	O 	0.11634 0.90170 0.56840 -0.51900
H 	H 	0.10670 0.91580 0.65220 0.27500
P 	P 	0.10214 0.06056 0.47953 0.46000
C 	C 	0.25035 0.93600 0.36170 -0.74400
H 	H 	0.29810 0.91400 0.33730 0.24300
H 	H 	0.21900 0.93600 0.27550 0.25300
H 	H 	0.23540 0.85540 0.42650 0.24700
C 	C 	0.24803 0.09700 0.43360 0.23000
C 	C 	0.18631 0.16410 0.48490 -0.14000
C 	C 	0.18966 0.31420 0.54940 -0.13400
H 	H 	0.14820 0.35680 0.58260 0.04300
O 	O 	0.41955 0.51110 0.17375 -0.43100
O 	O 	0.45087 0.66350 0.95050 -0.45200
O 	O 	0.38366 0.40170 0.93160 -0.50700
H 	H 	0.39330 0.41580 0.84780 0.28300
P 	P 	0.39786 0.56056 0.02047 0.46700
C 	C 	0.24965 0.43600 0.13830 -0.71200
H 	H 	0.20190 0.41400 0.16270 0.22700
H 	H 	0.28100 0.43600 0.22450 0.24300
H 	H 	0.26460 0.35540 0.07350 0.23800
C 	C 	0.25197 0.59700 0.06640 0.20600
C 	C 	0.31369 0.66410 0.01510 -0.11700
C 	C 	0.31034 0.81420 0.95060 -0.16000
H 	H 	0.35180 0.85680 0.91740 0.06200
O 	O 	0.91955 0.01110 0.17375 -0.38100
O 	O 	0.95087 0.16350 0.95050 -0.37700
O 	O 	0.88366 0.90170 0.93160 -0.48300
H 	H 	0.89330 0.91580 0.84780 0.29100
P 	P 	0.89786 0.06056 0.02047 0.46600
C 	C 	0.74965 0.93600 0.13830 -0.73100
H 	H 	0.70190 0.91400 0.16270 0.23900
H 	H 	0.78100 0.93600 0.22450 0.25000
H 	H 	0.76460 0.85540 0.07350 0.24700
C 	C 	0.75197 0.09700 0.06640 0.21400
C 	C 	0.81369 0.16410 0.01510 -0.11600
C 	C 	0.81034 0.31420 0.95060 -0.16300
H 	H 	0.85180 0.35680 0.91740 0.07800
O 	O 	0.41955 0.48890 0.67375 -0.43200
O 	O 	0.45087 0.33650 0.45050 -0.44800
O 	O 	0.38366 0.59830 0.43160 -0.50200
H 	H 	0.39330 0.58420 0.34780 0.28200
P 	P 	0.39786 0.43944 0.52047 0.46200
C 	C 	0.24965 0.56400 0.63830 -0.71500
H 	H 	0.20190 0.58600 0.66270 0.22600
H 	H 	0.28100 0.56400 0.72450 0.24300
H 	H 	0.26460 0.64460 0.57350 0.23800
C 	C 	0.25197 0.40300 0.56640 0.21100
C 	C 	0.31369 0.33590 0.51510 -0.12600
C 	C 	0.31034 0.18580 0.45060 -0.14900
H 	H 	0.35180 0.14320 0.41740 0.05900
O 	O 	0.91955 0.98890 0.67375 -0.38000
O 	O 	0.95087 0.83650 0.45050 -0.37400
O 	O 	0.88366 0.09830 0.43160 -0.47900
H 	H 	0.89330 0.08420 0.34780 0.29000
P 	P 	0.89786 0.93944 0.52047 0.46400
C 	C 	0.74965 0.06400 0.63830 -0.73500
H 	H 	0.70190 0.08600 0.66270 0.23900
H 	H 	0.78100 0.06400 0.72450 0.25100
H 	H 	0.76460 0.14460 0.57350 0.24700
C 	C 	0.75197 0.90300 0.56640 0.21900
C 	C 	0.81369 0.83590 0.51510 -0.12200
C 	C 	0.81034 0.68580 0.45060 -0.15500
H 	H 	0.85180 0.64320 0.41740 0.07700
O 	O 	0.58045 0.48890 0.82625 -0.43200
O 	O 	0.54913 0.33650 0.04950 -0.44400
O 	O 	0.61634 0.59830 0.06840 -0.49900
H 	H 	0.60670 0.58420 0.15220 0.28100
P 	P 	0.60214 0.43944 0.97953 0.46000
C 	C 	0.75035 0.56400 0.86170 -0.76900
H 	H 	0.79810 0.58600 0.83730 0.25900
H 	H 	0.71900 0.56400 0.77550 0.26100
H 	H 	0.73540 0.64460 0.92650 0.25600
C 	C 	0.74803 0.40300 0.93360 0.24600
C 	C 	0.68631 0.33590 0.98490 -0.14700
C 	C 	0.68966 0.18580 0.04940 -0.12800
H 	H 	0.64820 0.14320 0.08260 0.05300
O 	O 	0.08045 0.98890 0.82625 -0.46300
O 	O 	0.04913 0.83650 0.04950 -0.49200
O 	O 	0.11634 0.09830 0.06840 -0.51200
H 	H 	0.10670 0.08420 0.15220 0.27400
P 	P 	0.10214 0.93944 0.97953 0.45300
C 	C 	0.25035 0.06400 0.86170 -0.74900
H 	H 	0.29810 0.08600 0.83730 0.24300
H 	H 	0.21900 0.06400 0.77550 0.25400
H 	H 	0.23540 0.14460 0.92650 0.24600
C 	C 	0.24803 0.90300 0.93360 0.23600
C 	C 	0.18631 0.83590 0.98490 -0.15000
C 	C 	0.18966 0.68580 0.04940 -0.12100
H 	H 	0.14820 0.64320 0.08260 0.04000
Mn	Mn	0.50000 0.33867 0.25000 1.25900
Mn	Mn	0.00000 0.83867 0.25000 1.20200
Mn	Mn	0.50000 0.66133 0.75000 1.25800
Mn	Mn	0.00000 0.16133 0.75000 1.20100
