data_crystal

_cell_length_a 10.64270
_cell_length_b 11.50080
_cell_length_c 13.47310
_cell_angle_alpha 69.14200
_cell_angle_beta  78.86500
_cell_angle_gamma 63.20800

_symmetry_space_group_name_	'P 1'
_symmetry_space_group_name_H-M	'P 1'

loop_
_symmetry_equiv_pos_as_xyz
  x,y,z

loop_
_atom_site_label
_atom_site_type_symbol
_atom_site_fract_x
_atom_site_fract_y
_atom_site_fract_z
_atom_site_charge
U 	U 	0.62579 0.71128 0.83650 0.00400
Eu	Eu	0.60329 0.22800 0.75140 1.47300
O 	O 	0.85100 0.53630 0.91320 -0.19700
O 	O 	0.76510 0.49370 0.80230 -0.19400
O 	O 	0.82110 0.23140 0.76990 -0.43900
O 	O 	0.89050 0.36220 0.62590 -0.22700
O 	O 	0.41860 0.91730 0.82050 -0.21600
O 	O 	0.50260 0.07640 0.75360 -0.43000
O 	O 	0.48270 0.17630 0.91850 -0.41800
O 	O 	0.32460 0.19800 0.05390 -0.21200
O 	O 	0.50320 0.69340 0.71850 -0.19500
O 	O 	0.41490 0.70090 0.57840 -0.28000
O 	O 	0.73620 0.63400 0.53540 -0.20500
O 	O 	0.86360 0.74950 0.47820 -0.20600
C 	C 	0.00170 0.34230 0.85120 -0.02200
C 	C 	0.11370 0.31320 0.90790 -0.02800
H 	H 	0.09880 0.36010 0.95580 0.07600
C 	C 	0.24770 0.21520 0.89450 -0.06200
C 	C 	0.26750 0.14310 0.82420 -0.07700
C 	C 	0.15140 0.16370 0.77520 0.01300
H 	H 	0.16310 0.10820 0.73500 0.04600
C 	C 	0.01940 0.26530 0.78570 -0.05900
C 	C 	0.62600 0.00120 0.44960 -0.01900
H 	H 	0.71120 0.00130 0.41660 0.05800
C 	C 	0.61530 0.87630 0.50560 -0.03700
C 	C 	0.49160 0.87570 0.55620 -0.02700
C 	C 	0.86680 0.46290 0.85660 0.26800
C 	C 	0.36240 0.19370 0.95810 0.32900
C 	C 	0.41010 0.03770 0.79770 0.36200
C 	C 	0.90060 0.29040 0.72310 0.35500
C 	C 	0.47080 0.74450 0.62170 0.28800
C 	C 	0.74620 0.74620 0.50770 0.27800
U 	U 	0.37421 0.28872 0.16350 0.00300
Eu	Eu	0.39671 0.77200 0.24860 1.47200
O 	O 	0.14900 0.46370 0.08680 -0.19700
O 	O 	0.23490 0.50630 0.19770 -0.19400
O 	O 	0.17890 0.76860 0.23010 -0.43900
O 	O 	0.10950 0.63780 0.37410 -0.22700
O 	O 	0.58140 0.08270 0.17950 -0.21600
O 	O 	0.49740 0.92360 0.24640 -0.43000
O 	O 	0.51730 0.82370 0.08150 -0.41800
O 	O 	0.67540 0.80200 0.94610 -0.21200
O 	O 	0.49680 0.30660 0.28150 -0.19500
O 	O 	0.58510 0.29910 0.42160 -0.28000
O 	O 	0.26380 0.36600 0.46460 -0.20500
O 	O 	0.13640 0.25050 0.52180 -0.20600
C 	C 	0.99830 0.65770 0.14880 -0.02200
C 	C 	0.88630 0.68680 0.09210 -0.02800
H 	H 	0.90120 0.63990 0.04420 0.07600
C 	C 	0.75230 0.78480 0.10550 -0.06200
C 	C 	0.73250 0.85690 0.17580 -0.07700
C 	C 	0.84860 0.83630 0.22480 0.01300
H 	H 	0.83690 0.89180 0.26500 0.04600
C 	C 	0.98060 0.73470 0.21430 -0.05800
C 	C 	0.37400 0.99880 0.55040 -0.01900
H 	H 	0.28880 0.99870 0.58340 0.05800
C 	C 	0.38470 0.12370 0.49440 -0.03700
C 	C 	0.50840 0.12430 0.44380 -0.02700
C 	C 	0.13320 0.53710 0.14340 0.26700
C 	C 	0.63760 0.80630 0.04190 0.32900
C 	C 	0.58990 0.96230 0.20230 0.36200
C 	C 	0.09940 0.70960 0.27690 0.35500
C 	C 	0.52920 0.25550 0.37830 0.28800
C 	C 	0.25380 0.25380 0.49230 0.27800
U 	U 	-0.00000 0.50000 0.50000 0.00200
