data_crystal

_cell_length_a 10.67000
_cell_length_b 11.49110
_cell_length_c 13.44480
_cell_angle_alpha 69.15900
_cell_angle_beta  78.91300
_cell_angle_gamma 63.13200

_symmetry_space_group_name_	'P 1'
_symmetry_space_group_name_H-M	'P 1'

loop_
_symmetry_equiv_pos_as_xyz
  x,y,z

loop_
_atom_site_label
_atom_site_type_symbol
_atom_site_fract_x
_atom_site_fract_y
_atom_site_fract_z
_atom_site_charge
U 	U 	0.62675 0.71024 0.83613 0.00400
Sm	Sm	0.60537 0.22611 0.75293 1.52900
C 	C 	0.00240 0.34070 0.85080 -0.01600
C 	C 	0.11430 0.31370 0.90830 -0.03400
H 	H 	0.09900 0.36030 0.95670 0.07800
C 	C 	0.24920 0.21650 0.89250 -0.06200
C 	C 	0.26950 0.14050 0.82490 -0.09400
C 	C 	0.15330 0.16150 0.77510 0.02600
H 	H 	0.16530 0.10580 0.73490 0.04100
C 	C 	0.02090 0.26390 0.78470 -0.07200
C 	C 	0.62550 0.00000 0.45010 -0.00800
H 	H 	0.70980 0.99990 0.41540 0.05300
C 	C 	0.61860 0.87470 0.50710 -0.04400
C 	C 	0.49000 0.87500 0.55640 -0.03600
C 	C 	0.86680 0.46260 0.85720 0.27200
C 	C 	0.36120 0.19490 0.95790 0.34000
C 	C 	0.41040 0.03810 0.79970 0.38300
C 	C 	0.90280 0.28680 0.72420 0.36900
C 	C 	0.47130 0.74490 0.62120 0.29900
C 	C 	0.74630 0.74630 0.50990 0.27800
O 	O 	0.85360 0.53440 0.91280 -0.20400
O 	O 	0.76740 0.49260 0.80080 -0.19800
O 	O 	0.82470 0.22850 0.76910 -0.45800
O 	O 	0.89140 0.36130 0.62600 -0.22900
O 	O 	0.41970 0.91710 0.82200 -0.22100
O 	O 	0.50400 0.07190 0.75690 -0.44200
O 	O 	0.48180 0.17460 0.91890 -0.43100
O 	O 	0.32400 0.20110 0.05200 -0.22000
O 	O 	0.50590 0.69440 0.71690 -0.20200
O 	O 	0.41560 0.70130 0.57870 -0.28900
O 	O 	0.73610 0.63280 0.53560 -0.20300
O 	O 	0.86260 0.74990 0.47860 -0.20800
U 	U 	0.37325 0.28976 0.16387 0.00300
Sm	Sm	0.39463 0.77389 0.24707 1.52700
C 	C 	0.99760 0.65930 0.14920 -0.01600
C 	C 	0.88570 0.68630 0.09170 -0.03300
H 	H 	0.90100 0.63970 0.04330 0.07800
C 	C 	0.75080 0.78350 0.10750 -0.06200
C 	C 	0.73050 0.85950 0.17510 -0.09300
C 	C 	0.84670 0.83850 0.22490 0.02500
H 	H 	0.83470 0.89420 0.26510 0.04100
C 	C 	0.97910 0.73610 0.21530 -0.07100
C 	C 	0.37450 0.00000 0.54990 -0.01200
H 	H 	0.29020 0.00010 0.58460 0.05500
C 	C 	0.38140 0.12530 0.49290 -0.04100
C 	C 	0.51000 0.12500 0.44360 -0.03700
C 	C 	0.13320 0.53740 0.14280 0.27200
C 	C 	0.63880 0.80510 0.04210 0.34000
C 	C 	0.58960 0.96190 0.20030 0.38000
C 	C 	0.09720 0.71320 0.27580 0.36900
C 	C 	0.52870 0.25510 0.37880 0.30000
C 	C 	0.25370 0.25370 0.49010 0.27700
O 	O 	0.14640 0.46560 0.08720 -0.20400
O 	O 	0.23260 0.50740 0.19920 -0.19800
O 	O 	0.17530 0.77150 0.23090 -0.45800
O 	O 	0.10860 0.63870 0.37400 -0.22900
O 	O 	0.58030 0.08290 0.17800 -0.21900
O 	O 	0.49600 0.92810 0.24310 -0.44200
O 	O 	0.51820 0.82540 0.08110 -0.43200
O 	O 	0.67600 0.79890 0.94800 -0.22100
O 	O 	0.49410 0.30560 0.28310 -0.20200
O 	O 	0.58440 0.29870 0.42130 -0.28900
O 	O 	0.26390 0.36720 0.46440 -0.20300
O 	O 	0.13740 0.25010 0.52140 -0.20700
U 	U 	-0.00000 0.50000 0.50000 0.00100
