data_crystal

_cell_length_a 15.94730
_cell_length_b 6.63100
_cell_length_c 13.92050
_cell_angle_alpha 90.00000
_cell_angle_beta  90.00000
_cell_angle_gamma 90.00000

_symmetry_space_group_name_	'P 1'
_symmetry_space_group_name_H-M	'P 1'

loop_
_symmetry_equiv_pos_as_xyz
  x,y,z

loop_
_atom_site_label
_atom_site_type_symbol
_atom_site_fract_x
_atom_site_fract_y
_atom_site_fract_z
_atom_site_charge
C 	C 	0.21636 0.56510 0.71871 0.02400
O 	O 	0.08062 0.57422 0.58505 -0.70600
H 	H 	0.19167 0.42223 0.69458 0.03100
C 	C 	0.71722 0.06557 0.21719 -0.13600
O 	O 	0.58134 0.07542 0.08297 -0.84100
H 	H 	0.69240 0.92279 0.19292 0.15500
C 	C 	0.78381 0.92729 0.71670 0.16800
O 	O 	0.92025 0.91622 0.58289 -0.48400
H 	H 	0.80897 0.06980 0.69266 -0.05800
C 	C 	0.28434 0.42760 0.21808 -0.01200
O 	O 	0.42024 0.41808 0.08417 -0.77200
H 	H 	0.30901 0.57065 0.19401 0.03000
C 	C 	0.78444 0.06532 0.28298 -0.15200
O 	O 	0.92045 0.07429 0.41733 -0.63800
H 	H 	0.80904 0.92247 0.30738 0.18200
C 	C 	0.28400 0.56528 0.78389 0.01600
O 	O 	0.41955 0.57549 0.91758 -0.55800
H 	H 	0.30922 0.42239 0.80767 0.05000
C 	C 	0.21653 0.42718 0.28305 -0.01900
O 	O 	0.08166 0.41647 0.41779 -0.71000
H 	H 	0.19125 0.56976 0.30689 0.03800
C 	C 	0.71607 0.92774 0.78188 0.17000
O 	O 	0.58038 0.91824 0.91689 -0.47300
H 	H 	0.69135 0.07080 0.80595 -0.05900
C 	C 	0.78453 0.42846 0.28316 -0.01200
O 	O 	0.92017 0.41743 0.41820 -0.56300
H 	H 	0.80922 0.57124 0.30769 0.06500
C 	C 	0.28392 0.92859 0.78378 0.15700
O 	O 	0.41953 0.91830 0.91797 -0.48000
H 	H 	0.30906 0.07148 0.80749 -0.06900
C 	C 	0.21676 0.06386 0.28278 -0.16200
O 	O 	0.08136 0.07312 0.41698 -0.78700
H 	H 	0.19170 0.92074 0.30637 0.15900
C 	C 	0.71580 0.56462 0.78208 0.03200
O 	O 	0.58003 0.57496 0.91643 -0.55000
H 	H 	0.69084 0.42201 0.80632 0.05800
C 	C 	0.21628 0.92831 0.71853 0.16800
O 	O 	0.08094 0.91732 0.58415 -0.62200
H 	H 	0.19151 0.07109 0.69425 -0.08900
C 	C 	0.71731 0.42870 0.21729 0.00500
O 	O 	0.58133 0.41850 0.08258 -0.76700
H 	H 	0.69255 0.57148 0.19308 0.03700
C 	C 	0.78356 0.56418 0.71696 0.03000
O 	O 	0.92054 0.57338 0.58370 -0.55800
H 	H 	0.80848 0.42109 0.69317 0.05800
C 	C 	0.28460 0.06433 0.21787 -0.15600
O 	O 	0.42062 0.07495 0.08463 -0.84700
H 	H 	0.30950 0.92173 0.19360 0.15000
Al	Al	0.00127 0.49458 0.50093 2.40400
Al	Al	0.50021 -0.00359 0.00072 2.38300
Al	Al	0.00100 -0.00485 0.50031 2.39400
Al	Al	0.50004 0.49638 0.00040 2.39300
O 	O 	0.00339 0.74456 0.44919 -1.23200
O 	O 	0.49828 0.24616 0.94921 -0.98500
O 	O 	0.00294 0.24460 0.55192 -1.29800
O 	O 	0.49957 0.74618 0.05199 -1.32500
C 	C 	0.68240 0.24727 0.18287 -0.12300
C 	C 	0.61065 0.24714 0.11180 0.49600
C 	C 	0.18111 0.74650 0.68495 -0.15000
C 	C 	0.10966 0.74595 0.61402 0.52700
C 	C 	0.31984 0.24621 0.18450 -0.12900
C 	C 	0.39149 0.24649 0.11377 0.49300
C 	C 	0.81895 0.74548 0.68299 -0.10400
C 	C 	0.89112 0.74508 0.61241 0.52300
C 	C 	0.31892 0.74710 0.81776 -0.11300
C 	C 	0.39047 0.74704 0.88852 0.52700
C 	C 	0.81947 0.24668 0.31727 -0.06900
C 	C 	0.89109 0.24608 0.38855 0.48000
C 	C 	0.68084 0.74639 0.81599 -0.10300
C 	C 	0.60929 0.74659 0.88729 0.52700
C 	C 	0.18174 0.24533 0.31692 -0.11400
C 	C 	0.11049 0.24486 0.38808 0.48300
H 	H 	0.00570 0.24441 0.61384 0.37500
H 	H 	0.00693 0.74436 0.38739 0.39800
H 	H 	0.49850 0.74597 0.11392 0.49500
H 	H 	0.49513 0.24599 0.88731 0.34400
