data_crystal

_cell_length_a 15.29780
_cell_length_b 15.59270
_cell_length_c 22.14800
_cell_angle_alpha 88.84100
_cell_angle_beta  86.53800
_cell_angle_gamma 62.08500

_symmetry_space_group_name_	'P 1'
_symmetry_space_group_name_H-M	'P 1'

loop_
_symmetry_equiv_pos_as_xyz
  x,y,z

loop_
_atom_site_label
_atom_site_type_symbol
_atom_site_fract_x
_atom_site_fract_y
_atom_site_fract_z
_atom_site_charge
H 	H 	0.67620 0.21390 0.93220 0.16300
H 	H 	0.49500 0.36780 0.83640 0.42200
H 	H 	0.49310 0.39870 0.90280 0.42600
H 	H 	0.51490 0.29350 0.88810 0.41300
H 	H 	0.62520 0.40840 0.79750 0.17400
H 	H 	0.79160 0.36240 0.78640 -0.04900
H 	H 	0.90330 0.24450 0.84890 0.11500
H 	H 	0.09340 0.88410 0.79890 0.13700
H 	H 	0.11230 0.85980 0.68850 0.38200
H 	H 	0.09390 0.78020 0.65960 0.39900
H 	H 	0.19190 0.75170 0.69070 0.37500
H 	H 	0.04240 0.68040 0.72170 0.17600
H 	H 	0.97540 0.65750 0.81420 -0.04100
H 	H 	0.96650 0.74760 0.89920 0.11500
H 	H 	0.95590 0.45270 0.86330 0.15500
H 	H 	0.81220 0.51670 0.93800 0.37100
H 	H 	0.75690 0.46910 0.90740 0.38400
H 	H 	0.70620 0.58070 0.91680 0.37100
H 	H 	0.67840 0.62040 0.80950 0.14700
H 	H 	0.74360 0.64290 0.71650 -0.04700
H 	H 	0.91430 0.57430 0.69690 0.11200
H 	H 	0.28050 0.07450 0.69010 0.14100
H 	H 	0.28060 0.92070 0.66960 0.34000
H 	H 	0.38240 0.87350 0.63340 0.36100
H 	H 	0.28830 0.88560 0.60350 0.37700
H 	H 	0.30220 0.98170 0.51850 0.16700
H 	H 	0.27780 0.13220 0.48230 -0.03700
H 	H 	0.25390 0.25580 0.55010 0.11300
H 	H 	0.59620 0.16090 0.77370 0.16300
H 	H 	0.76680 0.07090 0.80620 0.40600
H 	H 	0.85420 0.06960 0.76610 0.41100
H 	H 	0.80670 0.00550 0.74870 0.41500
H 	H 	0.82650 0.15670 0.67160 0.18100
H 	H 	0.71540 0.28330 0.61320 -0.04100
H 	H 	0.54480 0.35000 0.63540 0.12600
H 	H 	0.28570 0.66200 0.79150 0.14300
H 	H 	0.28150 0.81870 0.80810 0.35000
H 	H 	0.38280 0.77800 0.83730 0.34500
H 	H 	0.28700 0.85170 0.87280 0.37700
H 	H 	0.30610 0.74590 0.95920 0.17200
H 	H 	0.28890 0.61600 0.00040 -0.05600
H 	H 	0.27260 0.50600 0.93740 0.09900
H 	H 	0.68000 0.06620 0.58720 0.15600
H 	H 	0.51670 0.12320 0.63700 0.37700
H 	H 	0.49590 0.06070 0.68540 0.38400
H 	H 	0.50090 0.03680 0.61730 0.37300
H 	H 	0.62940 0.90070 0.71150 0.15200
H 	H 	0.80000 0.79710 0.71420 -0.04200
H 	H 	0.91110 0.82590 0.65020 0.10000
H 	H 	0.90160 0.96440 0.30740 0.12300
H 	H 	0.82240 0.95730 0.21420 0.36400
H 	H 	0.85300 0.85850 0.18270 0.38100
H 	H 	0.92030 0.90800 0.17430 0.38400
H 	H 	0.97760 0.70780 0.22390 0.17200
H 	H 	0.06260 0.62530 0.30790 -0.03500
H 	H 	0.06760 0.71110 0.39140 0.11500
H 	H 	0.32380 0.78610 0.06780 0.16200
H 	H 	0.50500 0.63220 0.16360 0.42100
H 	H 	0.50690 0.60130 0.09720 0.42500
H 	H 	0.48510 0.70650 0.11190 0.41200
H 	H 	0.37480 0.59160 0.20250 0.17300
H 	H 	0.20840 0.63760 0.21360 -0.05000
H 	H 	0.09670 0.75550 0.15110 0.11400
H 	H 	0.90660 0.11590 0.20110 0.13600
H 	H 	0.88770 0.14020 0.31150 0.38200
H 	H 	0.90610 0.21980 0.34040 0.39900
H 	H 	0.80810 0.24830 0.30930 0.37500
H 	H 	0.95760 0.31960 0.27830 0.17600
H 	H 	0.02460 0.34250 0.18580 -0.04100
H 	H 	0.03350 0.25240 0.10080 0.11500
H 	H 	0.04410 0.54730 0.13670 0.15500
H 	H 	0.18780 0.48330 0.06200 0.37100
H 	H 	0.24310 0.53090 0.09260 0.38400
H 	H 	0.29380 0.41930 0.08320 0.37100
H 	H 	0.32160 0.37960 0.19050 0.14700
H 	H 	0.25640 0.35710 0.28350 -0.04700
H 	H 	0.08570 0.42570 0.30310 0.11200
H 	H 	0.71950 0.92550 0.30990 0.14100
H 	H 	0.71940 0.07930 0.33040 0.34000
H 	H 	0.61760 0.12650 0.36660 0.36100
H 	H 	0.71170 0.11440 0.39650 0.37700
H 	H 	0.69780 0.01830 0.48150 0.16700
H 	H 	0.72220 0.86780 0.51770 -0.03700
H 	H 	0.74610 0.74420 0.44990 0.11300
H 	H 	0.40380 0.83910 0.22630 0.16300
H 	H 	0.23320 0.92910 0.19380 0.40600
H 	H 	0.14580 0.93040 0.23390 0.41100
H 	H 	0.19330 0.99450 0.25130 0.41500
H 	H 	0.17350 0.84330 0.32840 0.18100
H 	H 	0.28460 0.71670 0.38680 -0.04100
H 	H 	0.45520 0.65000 0.36460 0.12600
H 	H 	0.71430 0.33800 0.20850 0.14300
H 	H 	0.71850 0.18130 0.19190 0.35000
H 	H 	0.61720 0.22200 0.16270 0.34500
H 	H 	0.71300 0.14830 0.12720 0.37700
H 	H 	0.69390 0.25410 0.04080 0.17200
H 	H 	0.71110 0.38400 0.99960 -0.05600
H 	H 	0.72740 0.49400 0.06260 0.09900
H 	H 	0.32000 0.93380 0.41280 0.15600
H 	H 	0.48330 0.87680 0.36300 0.37700
H 	H 	0.50410 0.93930 0.31460 0.38400
H 	H 	0.49910 0.96320 0.38270 0.37300
H 	H 	0.37060 0.09930 0.28850 0.15200
H 	H 	0.20000 0.20290 0.28580 -0.04200
H 	H 	0.08890 0.17410 0.34980 0.10000
H 	H 	0.09840 0.03560 0.69260 0.12300
H 	H 	0.17760 0.04270 0.78580 0.36400
H 	H 	0.14700 0.14150 0.81730 0.38100
H 	H 	0.07970 0.09200 0.82570 0.38400
H 	H 	0.02240 0.29220 0.77610 0.17200
H 	H 	0.93740 0.37470 0.69210 -0.03500
H 	H 	0.93240 0.28890 0.60860 0.11500
Ru	Ru	0.06184 0.01376 0.97816 0.92900
Ru	Ru	0.26521 0.33041 0.78405 0.93200
Ru	Ru	0.24170 0.43371 0.70493 0.94000
Ru	Ru	0.06439 0.93138 0.51733 0.93600
Ru	Ru	0.93816 0.98624 0.02184 0.92900
Ru	Ru	0.73479 0.66959 0.21595 0.93200
Ru	Ru	0.75830 0.56629 0.29507 0.94000
Ru	Ru	0.93561 0.06862 0.48267 0.93600
C 	C 	0.87120 0.14200 0.93570 0.24800
C 	C 	0.80100 0.21830 0.89672 0.12100
C 	C 	0.69970 0.24540 0.90312 -0.39400
C 	C 	0.63270 0.31700 0.86690 0.53700
C 	C 	0.52380 0.34780 0.87450 -1.28600
C 	C 	0.66920 0.35960 0.82320 -0.44800
C 	C 	0.76880 0.33220 0.81630 0.23200
C 	C 	0.83500 0.26230 0.85340 -0.25200
C 	C 	0.02260 0.88330 0.90977 0.25200
C 	C 	0.02920 0.82430 0.85680 0.12000
C 	C 	0.06940 0.83770 0.80174 -0.37300
C 	C 	0.07560 0.78390 0.75103 0.51000
C 	C 	0.12230 0.79530 0.69208 -1.20600
C 	C 	0.03950 0.71730 0.75637 -0.41900
C 	C 	0.99900 0.70410 0.81110 0.22700
C 	C 	0.99370 0.75750 0.86149 -0.22500
C 	C 	0.24740 0.05890 0.93595 0.09500
C 	C 	0.31790 0.09250 0.93372 -0.09100
C 	C 	0.29770 0.17150 0.89494 0.10300
C 	C 	0.40710 0.04660 0.96685 -0.00600
C 	C 	0.45550 0.94760 0.97957 0.03400
C 	C 	0.54640 0.90100 0.01113 0.03100
C 	C 	0.06010 0.46100 0.76619 0.25900
C 	C 	0.95130 0.50560 0.77816 0.11200
C 	C 	0.91180 0.49200 0.83389 -0.36100
C 	C 	0.81090 0.53510 0.84698 0.49100
C 	C 	0.76750 0.52410 0.90760 -1.16700
C 	C 	0.74840 0.59120 0.80220 -0.39500
C 	C 	0.78650 0.60550 0.74660 0.20400
C 	C 	0.88800 0.56340 0.73450 -0.21100
C 	C 	0.25410 0.25210 0.66987 0.25300
C 	C 	0.26510 0.17690 0.62678 0.10100
C 	C 	0.28030 0.08570 0.64781 -0.35300
C 	C 	0.29480 0.01220 0.60799 0.48000
C 	C 	0.31360 0.91370 0.63050 -1.14100
C 	C 	0.29330 0.03130 0.54650 -0.39900
C 	C 	0.27750 0.12110 0.52492 0.20100
C 	C 	0.26370 0.19400 0.56491 -0.20900
C 	C 	0.44640 0.30430 0.72141 0.22800
C 	C 	0.55500 0.26190 0.70763 0.12700
C 	C 	0.62070 0.18630 0.74134 -0.40100
C 	C 	0.72260 0.14700 0.72920 0.55700
C 	C 	0.79400 0.06600 0.76560 -1.27000
C 	C 	0.75700 0.18360 0.68090 -0.44000
C 	C 	0.69110 0.25880 0.64630 0.24000
C 	C 	0.59020 0.29830 0.65920 -0.24300
C 	C 	0.26500 0.50700 0.81773 0.25000
C 	C 	0.27630 0.57460 0.85866 0.10600
C 	C 	0.28690 0.65260 0.83397 -0.35000
C 	C 	0.29890 0.71670 0.87110 0.48700
C 	C 	0.31320 0.79910 0.84500 -1.13300
C 	C 	0.29870 0.70240 0.93325 -0.40800
C 	C 	0.28870 0.62480 0.95775 0.20700
C 	C 	0.27840 0.56000 0.92062 -0.22900
C 	C 	0.25620 0.56910 0.59502 0.10800
C 	C 	0.29880 0.61230 0.55591 -0.09100
C 	C 	0.24120 0.71260 0.54962 0.10100
C 	C 	0.39710 0.55730 0.52752 0.00000
C 	C 	0.44460 0.45520 0.52191 0.03400
C 	C 	0.54470 0.39950 0.49504 0.03100
C 	C 	0.87510 0.96610 0.57129 0.25200
C 	C 	0.80540 0.94860 0.61225 0.10700
C 	C 	0.70430 0.01080 0.61232 -0.35300
C 	C 	0.63740 0.99260 0.64903 0.49200
C 	C 	0.52800 0.05890 0.64730 -1.16400
C 	C 	0.67490 0.91320 0.68630 -0.40900
C 	C 	0.77630 0.85140 0.68790 0.19400
C 	C 	0.84180 0.86870 0.65023 -0.21900
C 	C 	0.98660 0.90090 0.40950 0.25500
C 	C 	0.98450 0.84550 0.35683 0.10400
C 	C 	0.93410 0.89520 0.30692 -0.34700
C 	C 	0.93120 0.84490 0.25624 0.48600
C 	C 	0.87680 0.89730 0.20199 -1.17900
C 	C 	0.97920 0.74400 0.25745 -0.40300
C 	C 	0.02960 0.69460 0.30787 0.21300
C 	C 	0.03270 0.74500 0.35716 -0.21100
C 	C 	0.12880 0.85800 0.06430 0.24800
C 	C 	0.19900 0.78170 0.10328 0.12100
C 	C 	0.30030 0.75460 0.09688 -0.39400
C 	C 	0.36730 0.68300 0.13310 0.53700
C 	C 	0.47620 0.65220 0.12550 -1.28600
C 	C 	0.33080 0.64040 0.17680 -0.44800
C 	C 	0.23120 0.66780 0.18370 0.23200
C 	C 	0.16500 0.73770 0.14660 -0.25200
C 	C 	0.97740 0.11670 0.09023 0.25200
C 	C 	0.97080 0.17570 0.14320 0.12000
C 	C 	0.93060 0.16230 0.19826 -0.37300
C 	C 	0.92440 0.21610 0.24897 0.51000
C 	C 	0.87770 0.20470 0.30792 -1.20600
C 	C 	0.96050 0.28270 0.24363 -0.41900
C 	C 	0.00100 0.29590 0.18890 0.22700
C 	C 	0.00630 0.24250 0.13851 -0.22500
C 	C 	0.75260 0.94110 0.06405 0.09500
C 	C 	0.68210 0.90750 0.06628 -0.09100
C 	C 	0.70230 0.82850 0.10506 0.10300
C 	C 	0.59290 0.95340 0.03315 -0.00600
C 	C 	0.54450 0.05240 0.02043 0.03400
C 	C 	0.45360 0.09900 0.98887 0.03100
C 	C 	0.93990 0.53900 0.23381 0.25900
C 	C 	0.04870 0.49440 0.22184 0.11200
C 	C 	0.08820 0.50800 0.16611 -0.36100
C 	C 	0.18910 0.46490 0.15302 0.49100
C 	C 	0.23250 0.47590 0.09240 -1.16700
C 	C 	0.25160 0.40880 0.19780 -0.39500
C 	C 	0.21350 0.39450 0.25340 0.20400
C 	C 	0.11200 0.43660 0.26550 -0.21100
C 	C 	0.74590 0.74790 0.33013 0.25300
C 	C 	0.73490 0.82310 0.37322 0.10100
C 	C 	0.71970 0.91430 0.35219 -0.35300
C 	C 	0.70520 0.98780 0.39201 0.48000
C 	C 	0.68640 0.08630 0.36950 -1.14100
C 	C 	0.70670 0.96870 0.45350 -0.39900
C 	C 	0.72250 0.87890 0.47508 0.20100
C 	C 	0.73630 0.80600 0.43509 -0.20900
C 	C 	0.55360 0.69570 0.27859 0.22800
C 	C 	0.44500 0.73810 0.29237 0.12700
C 	C 	0.37930 0.81370 0.25866 -0.40100
C 	C 	0.27740 0.85300 0.27080 0.55700
C 	C 	0.20600 0.93400 0.23440 -1.27000
C 	C 	0.24300 0.81640 0.31910 -0.44000
C 	C 	0.30890 0.74120 0.35370 0.24000
C 	C 	0.40980 0.70170 0.34080 -0.24300
C 	C 	0.73500 0.49300 0.18227 0.25000
C 	C 	0.72370 0.42540 0.14134 0.10600
C 	C 	0.71310 0.34740 0.16603 -0.35000
C 	C 	0.70110 0.28330 0.12890 0.48700
C 	C 	0.68680 0.20090 0.15500 -1.13300
C 	C 	0.70130 0.29760 0.06675 -0.40800
C 	C 	0.71130 0.37520 0.04225 0.20700
C 	C 	0.72160 0.44000 0.07938 -0.22900
C 	C 	0.74380 0.43090 0.40498 0.10800
C 	C 	0.70120 0.38770 0.44409 -0.09100
C 	C 	0.75880 0.28740 0.45038 0.10100
C 	C 	0.60290 0.44270 0.47248 0.00000
C 	C 	0.55540 0.54480 0.47809 0.03400
C 	C 	0.45530 0.60050 0.50496 0.03100
C 	C 	0.12490 0.03390 0.42871 0.25200
C 	C 	0.19460 0.05140 0.38775 0.10700
C 	C 	0.29570 0.98920 0.38768 -0.35300
C 	C 	0.36260 0.00740 0.35097 0.49200
C 	C 	0.47200 0.94110 0.35270 -1.16400
C 	C 	0.32510 0.08680 0.31370 -0.40900
C 	C 	0.22370 0.14860 0.31210 0.19400
C 	C 	0.15820 0.13130 0.34977 -0.21900
C 	C 	0.01340 0.09910 0.59050 0.25500
C 	C 	0.01550 0.15450 0.64317 0.10400
C 	C 	0.06590 0.10480 0.69308 -0.34700
C 	C 	0.06880 0.15510 0.74376 0.48600
C 	C 	0.12320 0.10270 0.79801 -1.17900
C 	C 	0.02080 0.25600 0.74255 -0.40300
C 	C 	0.97040 0.30540 0.69213 0.21300
C 	C 	0.96730 0.25500 0.64284 -0.21100
S 	S 	0.50717 0.77784 0.98225 0.01400
S 	S 	0.48217 0.28877 0.52111 0.05300
S 	S 	0.49283 0.22216 0.01775 0.01400
S 	S 	0.51783 0.71123 0.47889 0.05300
N 	N 	0.18710 0.03420 0.93841 -0.21100
N 	N 	0.42520 0.88250 0.96092 -0.12100
N 	N 	0.58260 0.80340 0.01543 -0.12000
N 	N 	0.28130 0.23320 0.86177 -0.20400
N 	N 	0.22040 0.53510 0.62805 -0.19300
N 	N 	0.40200 0.39830 0.53811 -0.11000
N 	N 	0.57360 0.30250 0.49232 -0.12200
N 	N 	0.19000 0.79480 0.54648 -0.20900
N 	N 	0.81290 0.96580 0.06159 -0.21100
N 	N 	0.57480 0.11750 0.03908 -0.12100
N 	N 	0.41740 0.19660 0.98457 -0.12000
N 	N 	0.71870 0.76680 0.13823 -0.20400
N 	N 	0.77960 0.46490 0.37195 -0.19300
N 	N 	0.59800 0.60170 0.46189 -0.11000
N 	N 	0.42640 0.69750 0.50768 -0.12200
N 	N 	0.81000 0.20520 0.45352 -0.20900
O 	O 	0.96172 0.12374 0.93030 -0.39400
O 	O 	0.83971 0.09745 0.97249 -0.38100
O 	O 	0.07799 0.92401 0.90964 -0.39800
O 	O 	0.95971 0.89350 0.95333 -0.37700
O 	O 	0.11576 0.39292 0.80021 -0.38700
O 	O 	0.09331 0.49182 0.72158 -0.38300
O 	O 	0.26331 0.23223 0.72610 -0.39000
O 	O 	0.23895 0.33470 0.64885 -0.37300
O 	O 	0.41425 0.27124 0.76571 -0.39100
O 	O 	0.38937 0.37346 0.68829 -0.37700
O 	O 	0.27102 0.42801 0.83990 -0.38800
O 	O 	0.25068 0.52824 0.76219 -0.38500
O 	O 	0.96736 0.90587 0.57086 -0.39300
O 	O 	0.84048 0.04069 0.53680 -0.37800
O 	O 	0.05099 0.85585 0.44851 -0.37500
O 	O 	0.92571 0.99104 0.41411 -0.40100
O 	O 	0.03828 0.87626 0.06970 -0.39400
O 	O 	0.16029 0.90255 0.02751 -0.38100
O 	O 	0.92201 0.07599 0.09036 -0.39800
O 	O 	0.04029 0.10650 0.04667 -0.37700
O 	O 	0.88424 0.60708 0.19979 -0.38700
O 	O 	0.90669 0.50818 0.27842 -0.38300
O 	O 	0.73669 0.76777 0.27390 -0.39000
O 	O 	0.76105 0.66530 0.35115 -0.37300
O 	O 	0.58575 0.72876 0.23429 -0.39100
O 	O 	0.61063 0.62654 0.31171 -0.37700
O 	O 	0.72898 0.57199 0.16010 -0.38800
O 	O 	0.74932 0.47176 0.23781 -0.38500
O 	O 	0.03264 0.09413 0.42914 -0.39300
O 	O 	0.15952 0.95931 0.46320 -0.37800
O 	O 	0.94901 0.14415 0.55149 -0.37500
O 	O 	0.07429 0.00896 0.58589 -0.40100
