data_crystal

_cell_length_a 16.99150
_cell_length_b 24.79900
_cell_length_c 6.78330
_cell_angle_alpha 90.00000
_cell_angle_beta  95.78400
_cell_angle_gamma 90.00000

_symmetry_space_group_name_	'P 1'
_symmetry_space_group_name_H-M	'P 1'

loop_
_symmetry_equiv_pos_as_xyz
  x,y,z

loop_
_atom_site_label
_atom_site_type_symbol
_atom_site_fract_x
_atom_site_fract_y
_atom_site_fract_z
_atom_site_charge
Pr	Pr	0.23071 0.66213 0.38240 2.08100
Ag	Ag	0.72940 0.77129 0.50981 0.46000
Ag	Ag	0.73488 0.51054 0.59660 0.49300
N 	N 	0.85087 0.52911 0.49920 -0.19500
N 	N 	0.85567 0.77221 0.50080 -0.20300
N 	N 	0.61316 0.53713 0.62480 -0.18900
N 	N 	0.60317 0.77207 0.51670 -0.20200
O 	O 	0.11470 0.60646 0.39790 -0.47700
O 	O 	0.08681 0.55666 0.12600 -0.29300
O 	O 	0.13823 0.73028 0.45800 -0.51800
O 	O 	0.14559 0.81468 0.56870 -0.46200
O 	O 	0.33440 0.60208 0.52710 -0.49500
O 	O 	0.34975 0.58336 0.85090 -0.32000
O 	O 	0.31686 0.73056 0.54890 -0.51600
O 	O 	0.32798 0.81560 0.65450 -0.47700
O 	O 	0.24082 0.57809 0.16240 -0.82200
H 	H 	0.23920 0.54680 0.21290 0.28600
H 	H 	0.24570 0.58160 0.03950 0.36400
C 	C 	0.07110 0.57562 0.28650 0.34500
C 	C 	0.99220 0.56064 0.35860 -0.03700
C 	C 	0.97350 0.57669 0.54450 -0.06900
H 	H 	0.00830 0.59820 0.62460 0.06200
C 	C 	0.90290 0.56045 0.60910 0.03900
H 	H 	0.89080 0.57160 0.73340 -0.00500
C 	C 	0.86980 0.51363 0.32070 0.04500
H 	H 	0.83470 0.49150 0.24400 -0.01000
C 	C 	0.93860 0.52885 0.24550 -0.08100
H 	H 	0.94890 0.51780 0.11960 0.07600
C 	C 	0.10834 0.77273 0.51360 0.41500
C 	C 	0.01968 0.77320 0.50790 -0.07900
C 	C 	0.97720 0.82071 0.51060 -0.04800
H 	H 	0.00340 0.85370 0.51600 0.05900
C 	C 	0.89670 0.81897 0.50540 0.02500
H 	H 	0.86900 0.85130 0.50500 -0.01200
C 	C 	0.89680 0.72614 0.49740 0.02900
H 	H 	0.86950 0.69360 0.49390 -0.01600
C 	C 	0.97760 0.72515 0.49900 -0.04100
H 	H 	0.00400 0.69240 0.49410 0.05100
C 	C 	0.37330 0.58667 0.68380 0.33900
C 	C 	0.45840 0.57084 0.66510 -0.05000
C 	C 	0.50600 0.54937 0.82190 -0.06800
H 	H 	0.48700 0.54620 0.94530 0.05600
C 	C 	0.58150 0.53262 0.79670 0.03100
H 	H 	0.61190 0.51740 0.90430 0.00000
C 	C 	0.56770 0.55959 0.47280 0.03700
H 	H 	0.58910 0.56420 0.35290 -0.00800
C 	C 	0.49100 0.57614 0.48610 -0.06800
H 	H 	0.46130 0.59070 0.37630 0.06200
C 	C 	0.35459 0.77296 0.58690 0.42100
C 	C 	0.44112 0.77290 0.55310 -0.07800
C 	C 	0.48300 0.82057 0.54250 -0.05000
H 	H 	0.45750 0.85360 0.54880 0.06300
C 	C 	0.56260 0.81848 0.52270 0.02600
H 	H 	0.58980 0.85080 0.51280 -0.01000
C 	C 	0.56190 0.72601 0.52480 0.02700
H 	H 	0.58860 0.69340 0.51940 -0.01400
C 	C 	0.48180 0.72512 0.54060 -0.04000
H 	H 	0.45520 0.69240 0.54280 0.05000
Pr	Pr	0.76929 0.16213 0.11760 2.08000
Ag	Ag	0.27060 0.27129 0.99019 0.46200
Ag	Ag	0.26512 0.01054 0.90340 0.49400
N 	N 	0.14913 0.02911 0.00080 -0.19400
N 	N 	0.14433 0.27221 0.99920 -0.20200
N 	N 	0.38684 0.03713 0.87520 -0.18900
N 	N 	0.39683 0.27207 0.98330 -0.20200
O 	O 	0.88530 0.10646 0.10210 -0.47800
O 	O 	0.91319 0.05666 0.37400 -0.29300
O 	O 	0.86177 0.23028 0.04200 -0.52400
O 	O 	0.85441 0.31468 0.93130 -0.46200
O 	O 	0.66560 0.10208 0.97290 -0.49200
O 	O 	0.65025 0.08336 0.64910 -0.31800
O 	O 	0.68314 0.23056 0.95110 -0.51300
O 	O 	0.67202 0.31560 0.84550 -0.47600
O 	O 	0.75918 0.07809 0.33760 -0.82300
H 	H 	0.76080 0.04680 0.28710 0.28600
H 	H 	0.75430 0.08160 0.46050 0.36300
C 	C 	0.92890 0.07562 0.21350 0.34300
C 	C 	0.00780 0.06064 0.14140 -0.03500
C 	C 	0.02650 0.07669 0.95550 -0.07200
H 	H 	0.99170 0.09820 0.87540 0.06500
C 	C 	0.09710 0.06045 0.89090 0.04000
H 	H 	0.10920 0.07160 0.76660 -0.00500
C 	C 	0.13020 0.01363 0.17930 0.04600
H 	H 	0.16530 0.99150 0.25600 -0.01000
C 	C 	0.06140 0.02885 0.25450 -0.08200
H 	H 	0.05110 0.01780 0.38040 0.07700
C 	C 	0.89166 0.27273 0.98640 0.42000
C 	C 	0.98032 0.27320 0.99210 -0.07300
C 	C 	0.02280 0.32071 0.98940 -0.05500
H 	H 	0.99660 0.35370 0.98400 0.06200
C 	C 	0.10330 0.31897 0.99460 0.02900
H 	H 	0.13100 0.35130 0.99500 -0.01300
C 	C 	0.10320 0.22614 0.00260 0.02800
H 	H 	0.13050 0.19360 0.00610 -0.01600
C 	C 	0.02240 0.22515 0.00100 -0.04400
H 	H 	0.99600 0.19240 0.00590 0.05100
C 	C 	0.62670 0.08667 0.81620 0.33700
C 	C 	0.54160 0.07084 0.83490 -0.04500
C 	C 	0.49400 0.04937 0.67810 -0.07100
H 	H 	0.51300 0.04620 0.55470 0.05800
C 	C 	0.41850 0.03262 0.70330 0.03300
H 	H 	0.38810 0.01740 0.59570 -0.00100
C 	C 	0.43230 0.05959 0.02720 0.04000
H 	H 	0.41090 0.06420 0.14710 -0.00900
C 	C 	0.50900 0.07614 0.01390 -0.07300
H 	H 	0.53870 0.09070 0.12370 0.06300
C 	C 	0.64541 0.27296 0.91310 0.42100
C 	C 	0.55888 0.27290 0.94690 -0.07600
C 	C 	0.51700 0.32057 0.95750 -0.05000
H 	H 	0.54250 0.35360 0.95120 0.06400
C 	C 	0.43740 0.31848 0.97730 0.02700
H 	H 	0.41020 0.35080 0.98720 -0.01000
C 	C 	0.43810 0.22601 0.97520 0.02800
H 	H 	0.41140 0.19340 0.98060 -0.01300
C 	C 	0.51820 0.22512 0.95940 -0.04000
H 	H 	0.54480 0.19240 0.95720 0.05100
Pr	Pr	0.76929 0.33787 0.61760 2.08200
Ag	Ag	0.27060 0.22871 0.49019 0.46100
Ag	Ag	0.26512 0.48946 0.40340 0.49400
N 	N 	0.14913 0.47089 0.50080 -0.19400
N 	N 	0.14433 0.22779 0.49920 -0.20300
N 	N 	0.38684 0.46287 0.37520 -0.18900
N 	N 	0.39683 0.22793 0.48330 -0.20200
O 	O 	0.88530 0.39354 0.60210 -0.47700
O 	O 	0.91319 0.44334 0.87400 -0.29300
O 	O 	0.86177 0.26972 0.54200 -0.51800
O 	O 	0.85441 0.18532 0.43130 -0.46200
O 	O 	0.66560 0.39792 0.47290 -0.49500
O 	O 	0.65025 0.41664 0.14910 -0.32000
O 	O 	0.68314 0.26944 0.45110 -0.51600
O 	O 	0.67202 0.18440 0.34550 -0.47700
O 	O 	0.75918 0.42191 0.83760 -0.82200
H 	H 	0.76080 0.45320 0.78710 0.28600
H 	H 	0.75430 0.41840 0.96050 0.36400
C 	C 	0.92890 0.42438 0.71350 0.34500
C 	C 	0.00780 0.43936 0.64140 -0.03700
C 	C 	0.02650 0.42331 0.45550 -0.06900
H 	H 	0.99170 0.40180 0.37540 0.06200
C 	C 	0.09710 0.43955 0.39090 0.03900
H 	H 	0.10920 0.42840 0.26660 -0.00500
C 	C 	0.13020 0.48637 0.67930 0.04500
H 	H 	0.16530 0.50850 0.75600 -0.01000
C 	C 	0.06140 0.47115 0.75450 -0.08100
H 	H 	0.05110 0.48220 0.88040 0.07600
C 	C 	0.89166 0.22727 0.48640 0.41500
C 	C 	0.98032 0.22680 0.49210 -0.07900
C 	C 	0.02280 0.17929 0.48940 -0.04800
H 	H 	0.99660 0.14630 0.48400 0.05900
C 	C 	0.10330 0.18103 0.49460 0.02500
H 	H 	0.13100 0.14870 0.49500 -0.01200
C 	C 	0.10320 0.27386 0.50260 0.02900
H 	H 	0.13050 0.30640 0.50610 -0.01600
C 	C 	0.02240 0.27485 0.50100 -0.04100
H 	H 	0.99600 0.30760 0.50590 0.05100
C 	C 	0.62670 0.41333 0.31620 0.33900
C 	C 	0.54160 0.42916 0.33490 -0.05000
C 	C 	0.49400 0.45063 0.17810 -0.06800
H 	H 	0.51300 0.45380 0.05470 0.05600
C 	C 	0.41850 0.46738 0.20330 0.03100
H 	H 	0.38810 0.48260 0.09570 0.00000
C 	C 	0.43230 0.44041 0.52720 0.03700
H 	H 	0.41090 0.43580 0.64710 -0.00800
C 	C 	0.50900 0.42386 0.51390 -0.06800
H 	H 	0.53870 0.40930 0.62370 0.06200
C 	C 	0.64541 0.22704 0.41310 0.42100
C 	C 	0.55888 0.22710 0.44690 -0.07800
C 	C 	0.51700 0.17943 0.45750 -0.05000
H 	H 	0.54250 0.14640 0.45120 0.06300
C 	C 	0.43740 0.18152 0.47730 0.02600
H 	H 	0.41020 0.14920 0.48720 -0.01000
C 	C 	0.43810 0.27399 0.47520 0.02700
H 	H 	0.41140 0.30660 0.48060 -0.01400
C 	C 	0.51820 0.27488 0.45940 -0.04000
H 	H 	0.54480 0.30760 0.45720 0.05000
Pr	Pr	0.23071 0.83787 0.88240 2.08000
Ag	Ag	0.72940 0.72871 0.00981 0.46200
Ag	Ag	0.73488 0.98946 0.09660 0.49400
N 	N 	0.85087 0.97089 0.99920 -0.19400
N 	N 	0.85567 0.72779 0.00080 -0.20200
N 	N 	0.61316 0.96287 0.12480 -0.18900
N 	N 	0.60317 0.72793 0.01670 -0.20200
O 	O 	0.11470 0.89354 0.89790 -0.47800
O 	O 	0.08681 0.94334 0.62600 -0.29300
O 	O 	0.13823 0.76972 0.95800 -0.52400
O 	O 	0.14559 0.68532 0.06870 -0.46200
O 	O 	0.33440 0.89792 0.02710 -0.49200
O 	O 	0.34975 0.91664 0.35090 -0.31800
O 	O 	0.31686 0.76944 0.04890 -0.51300
O 	O 	0.32798 0.68440 0.15450 -0.47600
O 	O 	0.24082 0.92191 0.66240 -0.82300
H 	H 	0.23920 0.95320 0.71290 0.28600
H 	H 	0.24570 0.91840 0.53950 0.36300
C 	C 	0.07110 0.92438 0.78650 0.34300
C 	C 	0.99220 0.93936 0.85860 -0.03500
C 	C 	0.97350 0.92331 0.04450 -0.07200
H 	H 	0.00830 0.90180 0.12460 0.06500
C 	C 	0.90290 0.93955 0.10910 0.04000
H 	H 	0.89080 0.92840 0.23340 -0.00500
C 	C 	0.86980 0.98637 0.82070 0.04600
H 	H 	0.83470 0.00850 0.74400 -0.01000
C 	C 	0.93860 0.97115 0.74550 -0.08200
H 	H 	0.94890 0.98220 0.61960 0.07700
C 	C 	0.10834 0.72727 0.01360 0.42000
C 	C 	0.01968 0.72680 0.00790 -0.07300
C 	C 	0.97720 0.67929 0.01060 -0.05500
H 	H 	0.00340 0.64630 0.01600 0.06200
C 	C 	0.89670 0.68103 0.00540 0.02900
H 	H 	0.86900 0.64870 0.00500 -0.01300
C 	C 	0.89680 0.77386 0.99740 0.02800
H 	H 	0.86950 0.80640 0.99390 -0.01600
C 	C 	0.97760 0.77485 0.99900 -0.04400
H 	H 	0.00400 0.80760 0.99410 0.05100
C 	C 	0.37330 0.91333 0.18380 0.33700
C 	C 	0.45840 0.92916 0.16510 -0.04500
C 	C 	0.50600 0.95063 0.32190 -0.07100
H 	H 	0.48700 0.95380 0.44530 0.05800
C 	C 	0.58150 0.96738 0.29670 0.03300
H 	H 	0.61190 0.98260 0.40430 -0.00100
C 	C 	0.56770 0.94041 0.97280 0.04000
H 	H 	0.58910 0.93580 0.85290 -0.00900
C 	C 	0.49100 0.92386 0.98610 -0.07300
H 	H 	0.46130 0.90930 0.87630 0.06300
C 	C 	0.35459 0.72704 0.08690 0.42100
C 	C 	0.44112 0.72710 0.05310 -0.07600
C 	C 	0.48300 0.67943 0.04250 -0.05000
H 	H 	0.45750 0.64640 0.04880 0.06400
C 	C 	0.56260 0.68152 0.02270 0.02700
H 	H 	0.58980 0.64920 0.01280 -0.01000
C 	C 	0.56190 0.77399 0.02480 0.02800
H 	H 	0.58860 0.80660 0.01940 -0.01300
C 	C 	0.48180 0.77488 0.04060 -0.04000
H 	H 	0.45520 0.80760 0.04280 0.05100
