data_crystal

_cell_length_a 12.30960
_cell_length_b 11.75700
_cell_length_c 12.63340
_cell_angle_alpha 90.00000
_cell_angle_beta  98.10300
_cell_angle_gamma 90.00000

_symmetry_space_group_name_	'P 1'
_symmetry_space_group_name_H-M	'P 1'

loop_
_symmetry_equiv_pos_as_xyz
  x,y,z

loop_
_atom_site_label
_atom_site_type_symbol
_atom_site_fract_x
_atom_site_fract_y
_atom_site_fract_z
_atom_site_charge
P 	P 	0.23219 0.25000 0.09970 0.57900
P 	P 	0.06250 0.66730 0.11398 0.63600
P 	P 	0.42871 0.33890 0.36280 0.61600
P 	P 	0.32636 0.70580 0.36496 0.63900
V 	V 	0.69618 0.29947 0.38101 1.74400
V 	V 	0.17851 0.25670 0.33940 1.80500
V 	V 	0.26388 0.50490 0.20800 1.83700
O 	O 	0.39770 0.42390 0.27450 -0.46700
O 	O 	0.26280 0.59640 0.33800 -0.49600
O 	O 	0.11250 0.55760 0.16090 -0.45900
O 	O 	0.53570 0.27990 0.35560 -0.46600
O 	O 	0.17110 0.38900 0.30360 -0.66100
O 	O 	0.32460 0.59590 0.14290 -0.62200
O 	O 	0.30410 0.79360 0.27930 -0.48100
O 	O 	0.34120 0.24830 0.36740 -0.48900
O 	O 	0.30290 0.75270 0.46950 -0.48100
O 	O 	0.23950 0.37950 0.10300 -0.48600
O 	O 	0.14280 0.75740 0.09670 -0.49800
O 	O 	0.97830 0.71110 0.18130 -0.47200
O 	O 	0.17810 0.19990 0.18930 -0.46800
O 	O 	0.17150 0.21300 0.99160 -0.49400
O 	O 	0.43650 0.41160 0.46690 -0.47400
H 	H 	0.40870 0.37660 0.51240 0.21500
O 	O 	0.44720 0.68700 0.36200 -0.46700
H 	H 	0.47480 0.65660 0.41800 0.28500
O 	O 	0.01620 0.65100 0.99800 -0.43900
H 	H 	0.95830 0.68640 0.98460 0.27100
O 	O 	0.34900 0.19800 0.12300 -0.40200
H 	H 	0.36450 0.16770 0.06830 0.19500
P 	P 	0.76781 0.75000 0.40030 0.58400
P 	P 	0.93750 0.16730 0.38602 0.65100
P 	P 	0.57129 0.83890 0.13720 0.61400
P 	P 	0.67364 0.20580 0.13504 0.63800
V 	V 	0.30382 0.79947 0.11899 1.74400
V 	V 	0.82149 0.75670 0.16060 1.80500
V 	V 	0.73612 0.00490 0.29200 1.83600
O 	O 	0.60230 0.92390 0.22550 -0.46500
O 	O 	0.73720 0.09640 0.16200 -0.49600
O 	O 	0.88750 0.05760 0.33910 -0.45900
O 	O 	0.46430 0.77990 0.14440 -0.46600
O 	O 	0.82890 0.88900 0.19640 -0.65700
O 	O 	0.67540 0.09590 0.35710 -0.62200
O 	O 	0.69590 0.29360 0.22070 -0.48100
O 	O 	0.65880 0.74830 0.13260 -0.48800
O 	O 	0.69710 0.25270 0.03050 -0.48000
O 	O 	0.76050 0.87950 0.39700 -0.48400
O 	O 	0.85720 0.25740 0.40330 -0.49800
O 	O 	0.02170 0.21110 0.31870 -0.48200
O 	O 	0.82190 0.69990 0.31070 -0.46800
O 	O 	0.82850 0.71300 0.50840 -0.50300
O 	O 	0.56350 0.91160 0.03310 -0.46500
H 	H 	0.59130 0.87660 0.98760 0.20700
O 	O 	0.55280 0.18700 0.13800 -0.46700
H 	H 	0.52520 0.15660 0.08200 0.28300
O 	O 	0.98380 0.15100 0.50200 -0.46300
H 	H 	0.04170 0.18640 0.51540 0.28900
O 	O 	0.65100 0.69800 0.37700 -0.40100
H 	H 	0.63550 0.66770 0.43170 0.19500
P 	P 	0.76781 0.75000 0.90030 0.57800
P 	P 	0.93750 0.33270 0.88602 0.63500
P 	P 	0.57129 0.66110 0.63720 0.61600
P 	P 	0.67364 0.29420 0.63504 0.63900
V 	V 	0.30382 0.70053 0.61899 1.74400
V 	V 	0.82149 0.74330 0.66060 1.80500
V 	V 	0.73612 0.49510 0.79200 1.83700
O 	O 	0.60230 0.57610 0.72550 -0.46700
O 	O 	0.73720 0.40360 0.66200 -0.49600
O 	O 	0.88750 0.44240 0.83910 -0.45900
O 	O 	0.46430 0.72010 0.64440 -0.46600
O 	O 	0.82890 0.61100 0.69640 -0.66100
O 	O 	0.67540 0.40410 0.85710 -0.62200
O 	O 	0.69590 0.20640 0.72070 -0.48100
O 	O 	0.65880 0.75170 0.63260 -0.48900
O 	O 	0.69710 0.24730 0.53050 -0.48100
O 	O 	0.76050 0.62050 0.89700 -0.48600
O 	O 	0.85720 0.24260 0.90330 -0.49800
O 	O 	0.02170 0.28890 0.81870 -0.47200
O 	O 	0.82190 0.80010 0.81070 -0.46800
O 	O 	0.82850 0.78700 0.00840 -0.49400
O 	O 	0.56350 0.58840 0.53310 -0.47400
H 	H 	0.59130 0.62340 0.48760 0.21500
O 	O 	0.55280 0.31300 0.63800 -0.46700
H 	H 	0.52520 0.34340 0.58200 0.28500
O 	O 	0.98380 0.34900 0.00200 -0.43900
H 	H 	0.04170 0.31360 0.01540 0.27100
O 	O 	0.65100 0.80200 0.87700 -0.40200
H 	H 	0.63550 0.83230 0.93170 0.19500
P 	P 	0.23219 0.25000 0.59970 0.58400
P 	P 	0.06250 0.83270 0.61398 0.65100
P 	P 	0.42871 0.16110 0.86280 0.61400
P 	P 	0.32636 0.79420 0.86496 0.63800
V 	V 	0.69618 0.20053 0.88101 1.74400
V 	V 	0.17851 0.24330 0.83940 1.80500
V 	V 	0.26388 0.99510 0.70800 1.83600
O 	O 	0.39770 0.07610 0.77450 -0.46500
O 	O 	0.26280 0.90360 0.83800 -0.49600
O 	O 	0.11250 0.94240 0.66090 -0.45900
O 	O 	0.53570 0.22010 0.85560 -0.46600
O 	O 	0.17110 0.11100 0.80360 -0.65700
O 	O 	0.32460 0.90410 0.64290 -0.62200
O 	O 	0.30410 0.70640 0.77930 -0.48100
O 	O 	0.34120 0.25170 0.86740 -0.48800
O 	O 	0.30290 0.74730 0.96950 -0.48000
O 	O 	0.23950 0.12050 0.60300 -0.48400
O 	O 	0.14280 0.74260 0.59670 -0.49800
O 	O 	0.97830 0.78890 0.68130 -0.48200
O 	O 	0.17810 0.30010 0.68930 -0.46800
O 	O 	0.17150 0.28700 0.49160 -0.50300
O 	O 	0.43650 0.08840 0.96690 -0.46500
H 	H 	0.40870 0.12340 0.01240 0.20700
O 	O 	0.44720 0.81300 0.86200 -0.46700
H 	H 	0.47480 0.84340 0.91800 0.28300
O 	O 	0.01620 0.84900 0.49800 -0.46300
H 	H 	0.95830 0.81360 0.48460 0.28900
O 	O 	0.34900 0.30200 0.62300 -0.40100
H 	H 	0.36450 0.33230 0.56830 0.19500
