data_crystal

_cell_length_a 8.12190
_cell_length_b 11.09820
_cell_length_c 13.76490
_cell_angle_alpha 91.39040
_cell_angle_beta  100.82100
_cell_angle_gamma 103.37800

_symmetry_space_group_name_	'P 1'
_symmetry_space_group_name_H-M	'P 1'

loop_
_symmetry_equiv_pos_as_xyz
  x,y,z

loop_
_atom_site_label
_atom_site_type_symbol
_atom_site_fract_x
_atom_site_fract_y
_atom_site_fract_z
_atom_site_charge
Cu	Cu	0.46830 0.99910 0.81240 0.78700
Cu	Cu	0.33680 0.15480 0.71750 0.80000
N 	N 	0.49120 0.00470 0.95770 -0.22300
C 	C 	0.21690 0.96510 0.73840 -0.33100
C 	C 	0.58480 0.20230 0.77620 -0.31900
C 	C 	0.60530 0.90270 0.75660 -0.21300
N 	N 	0.26390 0.16980 0.57420 -0.20300
N 	N 	0.20510 0.26290 0.77520 -0.20200
N 	N 	0.08230 0.90080 0.70910 -0.17500
C 	C 	0.21690 0.18610 0.49260 -0.18700
C 	C 	0.11950 0.32310 0.79380 -0.20500
Cu	Cu	0.85060 0.78220 0.64570 0.83300
Cu	Cu	0.94400 0.40370 0.82210 0.82900
N 	N 	0.68960 0.85300 0.72210 -0.18900
C 	C 	0.86340 0.62170 0.69290 -0.20700
N 	N 	0.71720 0.26680 0.79830 -0.17900
N 	N 	0.88750 0.53660 0.73250 -0.20400
C 	C 	0.98550 0.47720 0.96010 -0.21300
Cu	Cu	0.53170 0.00090 0.18760 0.78800
Cu	Cu	0.66320 0.84520 0.28250 0.80100
N 	N 	0.50880 0.99530 0.04230 -0.22200
C 	C 	0.78310 0.03490 0.26160 -0.33000
C 	C 	0.41520 0.79770 0.22380 -0.31900
C 	C 	0.39470 0.09730 0.24340 -0.21300
N 	N 	0.73610 0.83020 0.42580 -0.20300
N 	N 	0.79490 0.73710 0.22480 -0.20200
N 	N 	0.91770 0.09920 0.29090 -0.17500
C 	C 	0.78310 0.81390 0.50740 -0.18700
C 	C 	0.88050 0.67690 0.20620 -0.20500
Cu	Cu	0.14940 0.21780 0.35430 0.83300
Cu	Cu	0.05600 0.59630 0.17790 0.82900
N 	N 	0.31040 0.14700 0.27790 -0.18900
C 	C 	0.13660 0.37830 0.30710 -0.20700
N 	N 	0.28280 0.73320 0.20170 -0.17900
N 	N 	0.11250 0.46340 0.26750 -0.20400
C 	C 	0.01450 0.52280 0.03990 -0.21300
C 	C 	0.80830 0.27310 0.53150 -0.33300
N 	N 	0.86790 0.10250 0.63420 -0.26000
C 	C 	0.74620 0.13700 0.54620 0.07400
C 	C 	0.60980 0.48880 0.36110 0.21600
C 	C 	0.73950 0.44670 0.43430 -0.41800
C 	C 	0.68760 0.31370 0.45350 0.20600
N 	N 	0.55090 0.42760 0.27260 -0.30600
H 	H 	0.83160 0.01580 0.64430 0.05800
H 	H 	0.86591 0.15101 0.69249 0.07100
H 	H 	0.98302 0.12032 0.62152 0.07000
H 	H 	0.63049 0.12073 0.55797 -0.02100
H 	H 	0.74761 0.09004 0.48700 -0.01900
H 	H 	0.81229 0.31981 0.59192 0.10000
H 	H 	0.92178 0.28871 0.51654 0.10100
H 	H 	0.68684 0.26817 0.39315 -0.05800
H 	H 	0.57369 0.29467 0.46798 -0.05800
H 	H 	0.84543 0.46081 0.41020 0.13100
H 	H 	0.76018 0.48939 0.49854 0.13300
H 	H 	0.51145 0.48800 0.39057 -0.06100
H 	H 	0.65989 0.57219 0.34726 -0.06800
H 	H 	0.46815 0.46427 0.23235 0.07800
H 	H 	0.49678 0.34370 0.28294 0.08600
H 	H 	0.64522 0.42790 0.23962 0.07700
C 	C 	0.19170 0.72690 0.46850 -0.33300
N 	N 	0.13210 0.89750 0.36580 -0.26000
C 	C 	0.25380 0.86300 0.45380 0.07400
C 	C 	0.39020 0.51120 0.63890 0.21600
C 	C 	0.26050 0.55330 0.56570 -0.41800
C 	C 	0.31240 0.68630 0.54650 0.20600
N 	N 	0.44910 0.57240 0.72740 -0.30600
H 	H 	0.16840 0.98420 0.35570 0.05800
H 	H 	0.13409 0.84899 0.30751 0.07100
H 	H 	0.01698 0.87968 0.37848 0.07000
H 	H 	0.36951 0.87927 0.44203 -0.02100
H 	H 	0.25239 0.90996 0.51300 -0.01900
H 	H 	0.18771 0.68019 0.40808 0.10000
H 	H 	0.07822 0.71129 0.48346 0.10100
H 	H 	0.31316 0.73183 0.60685 -0.05800
H 	H 	0.42631 0.70533 0.53202 -0.05800
H 	H 	0.15457 0.53919 0.58980 0.13100
H 	H 	0.23982 0.51061 0.50146 0.13300
H 	H 	0.48855 0.51200 0.60943 -0.06100
H 	H 	0.34011 0.42781 0.65274 -0.06800
H 	H 	0.53185 0.53573 0.76765 0.07800
H 	H 	0.50322 0.65630 0.71706 0.08600
H 	H 	0.35478 0.57210 0.76038 0.07700
