data_crystal

_cell_length_a 13.96680
_cell_length_b 25.31740
_cell_length_c 25.18210
_cell_angle_alpha 32.11010
_cell_angle_beta  74.47830
_cell_angle_gamma 73.41150

_symmetry_space_group_name_	'P 1'
_symmetry_space_group_name_H-M	'P 1'

loop_
_symmetry_equiv_pos_as_xyz
  x,y,z

loop_
_atom_site_label
_atom_site_type_symbol
_atom_site_fract_x
_atom_site_fract_y
_atom_site_fract_z
_atom_site_charge
H 	H 	0.03550 0.43170 0.90770 -0.06100
H 	H 	0.27420 0.44460 0.95420 -0.05000
H 	H 	0.04330 0.65970 0.87790 0.17000
H 	H 	0.04190 0.75030 0.87830 -0.05100
H 	H 	0.11040 0.98720 0.58280 -0.04600
H 	H 	0.98390 0.59730 0.79310 0.19800
H 	H 	0.10640 0.89800 0.58240 0.17700
H 	H 	0.22170 0.61350 0.83390 0.18200
C 	C 	0.19212 0.31228 0.01888 0.52500
C 	C 	0.07328 0.46692 0.89472 0.29700
C 	C 	0.21555 0.47485 0.92185 0.27800
C 	C 	0.07946 0.87834 0.73034 -0.29700
C 	C 	0.07767 0.76953 0.73053 0.37900
C 	C 	0.05706 0.72574 0.81874 -0.38000
C 	C 	0.15870 0.41990 0.94490 -0.32100
C 	C 	0.05690 0.77950 0.81910 0.25800
C 	C 	0.08271 0.93529 0.73129 0.48500
C 	C 	0.09708 0.92092 0.64252 0.26200
C 	C 	0.04312 0.56648 0.82508 -0.43300
C 	C 	0.09558 0.86802 0.64202 -0.38100
C 	C 	0.09828 0.61892 0.80332 0.43100
C 	C 	0.18410 0.57590 0.84990 -0.41300
O 	O 	0.06286 0.23556 0.48794 -0.80000
O 	O 	0.11681 0.01943 0.65251 -0.54600
O 	O 	0.05243 0.89803 0.80937 -0.58400
O 	O 	0.26835 0.27181 0.06615 -0.56100
O 	O 	0.14196 0.27292 0.02584 -0.58600
O 	O 	0.07169 0.72051 0.72511 -0.36100
H 	H 	0.43170 0.03550 0.62510 -0.05100
H 	H 	0.44460 0.27420 0.32700 -0.04400
H 	H 	0.65970 0.04330 0.41910 0.17000
H 	H 	0.75030 0.04190 0.32950 -0.04900
H 	H 	0.98720 0.11040 0.31960 -0.04500
H 	H 	0.59730 0.98390 0.62570 0.18300
H 	H 	0.89800 0.10640 0.41320 0.17600
H 	H 	0.61350 0.22170 0.33090 0.17600
C 	C 	0.31228 0.19212 0.47672 0.51400
C 	C 	0.46692 0.07328 0.56508 0.27400
C 	C 	0.47485 0.21555 0.38775 0.26200
C 	C 	0.87834 0.07946 0.31186 -0.29400
C 	C 	0.76953 0.07767 0.42227 0.37700
C 	C 	0.72574 0.05706 0.39846 -0.37700
C 	C 	0.41990 0.15870 0.47650 -0.30100
C 	C 	0.77950 0.05690 0.34450 0.25600
C 	C 	0.93529 0.08271 0.25071 0.48400
C 	C 	0.92092 0.09708 0.33948 0.26000
C 	C 	0.56648 0.04312 0.56532 -0.40200
C 	C 	0.86802 0.09558 0.39438 -0.37800
C 	C 	0.61892 0.09828 0.47948 0.41400
C 	C 	0.57590 0.18410 0.39010 -0.39600
O 	O 	0.23556 0.06286 0.21364 -0.80000
O 	O 	0.01943 0.11681 0.21125 -0.54600
O 	O 	0.89803 0.05243 0.24017 -0.58100
O 	O 	0.27181 0.26835 0.39369 -0.55900
O 	O 	0.27292 0.14196 0.55928 -0.58500
O 	O 	0.72051 0.07169 0.48269 -0.35500
H 	H 	0.90770 0.62510 0.03550 -0.06000
H 	H 	0.95420 0.32700 0.27420 -0.05100
H 	H 	0.87790 0.41910 0.04330 0.17000
H 	H 	0.87830 0.32950 0.04190 -0.05300
H 	H 	0.58280 0.31960 0.11040 -0.04400
H 	H 	0.79310 0.62570 0.98390 0.19300
H 	H 	0.58240 0.41320 0.10640 0.17900
H 	H 	0.83390 0.33090 0.22170 0.18100
C 	C 	0.01888 0.47672 0.19212 0.52600
C 	C 	0.89472 0.56508 0.07328 0.29300
C 	C 	0.92185 0.38775 0.21555 0.27600
C 	C 	0.73034 0.31186 0.07946 -0.30100
C 	C 	0.73053 0.42227 0.07767 0.38100
C 	C 	0.81874 0.39846 0.05706 -0.38200
C 	C 	0.94490 0.47650 0.15870 -0.32100
C 	C 	0.81910 0.34450 0.05690 0.26200
C 	C 	0.73129 0.25071 0.08271 0.50000
C 	C 	0.64252 0.33948 0.09708 0.26600
C 	C 	0.82508 0.56532 0.04312 -0.42500
C 	C 	0.64202 0.39438 0.09558 -0.38200
C 	C 	0.80332 0.47948 0.09828 0.42700
C 	C 	0.84990 0.39010 0.18410 -0.41100
O 	O 	0.48794 0.21364 0.06286 -0.80100
O 	O 	0.65251 0.21125 0.11681 -0.55900
O 	O 	0.80937 0.24017 0.05243 -0.58500
O 	O 	0.06615 0.39369 0.26835 -0.56000
O 	O 	0.02584 0.55928 0.14196 -0.58600
O 	O 	0.72511 0.48269 0.07169 -0.36000
H 	H 	0.62510 0.90770 0.43170 -0.05800
H 	H 	0.32700 0.95420 0.44460 -0.05000
H 	H 	0.41910 0.87790 0.65970 0.16900
H 	H 	0.32950 0.87830 0.75030 -0.05200
H 	H 	0.31960 0.58280 0.98720 -0.04600
H 	H 	0.62570 0.79310 0.59730 0.19400
H 	H 	0.41320 0.58240 0.89800 0.17700
H 	H 	0.33090 0.83390 0.61350 0.18000
C 	C 	0.47672 0.01888 0.31228 0.52100
C 	C 	0.56508 0.89472 0.46692 0.29100
C 	C 	0.38775 0.92185 0.47485 0.27300
C 	C 	0.31186 0.73034 0.87834 -0.29700
C 	C 	0.42227 0.73053 0.76953 0.37900
C 	C 	0.39846 0.81874 0.72574 -0.38000
C 	C 	0.47650 0.94490 0.41990 -0.31500
C 	C 	0.34450 0.81910 0.77950 0.25900
C 	C 	0.25071 0.73129 0.93529 0.48800
C 	C 	0.33948 0.64252 0.92092 0.26300
C 	C 	0.56532 0.82508 0.56648 -0.42600
C 	C 	0.39438 0.64202 0.86802 -0.38100
C 	C 	0.47948 0.80332 0.61892 0.42600
C 	C 	0.39010 0.84990 0.57590 -0.40900
O 	O 	0.21364 0.48794 0.23556 -0.80100
O 	O 	0.21125 0.65251 0.01943 -0.54900
O 	O 	0.24017 0.80937 0.89803 -0.58400
O 	O 	0.39369 0.06615 0.27181 -0.56000
O 	O 	0.55928 0.02584 0.27292 -0.58700
O 	O 	0.48269 0.72511 0.72051 -0.36000
H 	H 	0.27607 0.49173 0.24415 0.21400
H 	H 	0.21450 0.81830 0.34230 -0.05900
H 	H 	0.97580 0.80540 0.29580 -0.05200
H 	H 	0.20670 0.59030 0.37210 0.17100
H 	H 	0.20810 0.49970 0.37170 -0.05000
H 	H 	0.13960 0.26280 0.66720 -0.04300
H 	H 	0.26610 0.65270 0.45690 0.19500
H 	H 	0.14360 0.35200 0.66760 0.17900
H 	H 	0.02830 0.63650 0.41610 0.18200
C 	C 	0.05788 0.93772 0.23112 0.52000
C 	C 	0.17672 0.78308 0.35528 0.29200
C 	C 	0.03445 0.77515 0.32815 0.27900
C 	C 	0.17054 0.37166 0.51966 -0.29800
C 	C 	0.17233 0.48047 0.51947 0.38000
C 	C 	0.19294 0.52426 0.43126 -0.38000
C 	C 	0.09130 0.83010 0.30510 -0.31500
C 	C 	0.19310 0.47050 0.43090 0.26000
C 	C 	0.16729 0.31471 0.51871 0.49900
C 	C 	0.15292 0.32908 0.60748 0.26500
C 	C 	0.20688 0.68352 0.42492 -0.42700
C 	C 	0.15442 0.38198 0.60798 -0.38100
C 	C 	0.15172 0.63108 0.44668 0.42800
C 	C 	0.06590 0.67410 0.40010 -0.41200
O 	O 	0.18714 0.01444 0.76206 -0.79600
O 	O 	0.13319 0.23057 0.59749 -0.55700
O 	O 	0.19757 0.35197 0.44063 -0.58100
O 	O 	0.98165 0.97819 0.18385 -0.56300
O 	O 	0.10804 0.97708 0.22416 -0.59000
O 	O 	0.17831 0.52949 0.52489 -0.36000
H 	H 	0.26194 0.00585 0.75827 0.21500
H 	H 	0.81830 0.21450 0.62490 -0.06100
H 	H 	0.80540 0.97580 0.92300 -0.05900
H 	H 	0.59030 0.20670 0.83090 0.17000
H 	H 	0.49970 0.20810 0.92050 -0.05000
H 	H 	0.26280 0.13960 0.93040 -0.04400
H 	H 	0.65270 0.26610 0.62430 0.19700
H 	H 	0.35200 0.14360 0.83680 0.17900
H 	H 	0.63650 0.02830 0.91910 0.18500
C 	C 	0.93772 0.05788 0.77328 0.52400
C 	C 	0.78308 0.17672 0.68492 0.29700
C 	C 	0.77515 0.03445 0.86225 0.29000
C 	C 	0.37166 0.17054 0.93814 -0.29700
C 	C 	0.48047 0.17233 0.82773 0.38100
C 	C 	0.52426 0.19294 0.85154 -0.38000
C 	C 	0.83010 0.09130 0.77350 -0.32100
C 	C 	0.47050 0.19310 0.90550 0.25900
C 	C 	0.31471 0.16729 0.99929 0.49300
C 	C 	0.32908 0.15292 0.91052 0.26400
C 	C 	0.68352 0.20688 0.68468 -0.43200
C 	C 	0.38198 0.15442 0.85562 -0.38100
C 	C 	0.63108 0.15172 0.77052 0.43300
C 	C 	0.67410 0.06590 0.85990 -0.41900
O 	O 	0.01444 0.18714 0.03636 -0.79600
O 	O 	0.23057 0.13319 0.03875 -0.55500
O 	O 	0.35197 0.19757 0.00983 -0.57900
O 	O 	0.97819 0.98165 0.85631 -0.56500
O 	O 	0.97708 0.10804 0.69072 -0.59100
O 	O 	0.52949 0.17831 0.76731 -0.36100
H 	H 	0.34230 0.62490 0.21450 -0.06400
H 	H 	0.29580 0.92300 0.97580 -0.07000
H 	H 	0.37210 0.83090 0.20670 0.17100
H 	H 	0.37170 0.92050 0.20810 -0.05200
H 	H 	0.66720 0.93040 0.13960 -0.04500
H 	H 	0.45690 0.62430 0.26610 0.20000
H 	H 	0.66760 0.83680 0.14360 0.17900
H 	H 	0.41610 0.91910 0.02830 0.19000
C 	C 	0.23112 0.77328 0.05788 0.53900
C 	C 	0.35528 0.68492 0.17672 0.30800
C 	C 	0.32815 0.86225 0.03445 0.31100
C 	C 	0.51966 0.93814 0.17054 -0.30000
C 	C 	0.51947 0.82773 0.17233 0.38200
C 	C 	0.43126 0.85154 0.19294 -0.38300
C 	C 	0.30510 0.77350 0.09130 -0.33300
C 	C 	0.43090 0.90550 0.19310 0.26200
C 	C 	0.51871 0.99929 0.16729 0.49800
C 	C 	0.60748 0.91052 0.15292 0.26600
C 	C 	0.42492 0.68468 0.20688 -0.44200
C 	C 	0.60798 0.85562 0.15442 -0.38400
C 	C 	0.44668 0.77052 0.15172 0.44200
C 	C 	0.40010 0.85990 0.06590 -0.43300
O 	O 	0.76206 0.03636 0.18714 -0.80300
O 	O 	0.59749 0.03875 0.13319 -0.55900
O 	O 	0.44063 0.00983 0.19757 -0.58100
O 	O 	0.18385 0.85631 0.98165 -0.57700
O 	O 	0.22416 0.69072 0.10804 -0.59100
O 	O 	0.52489 0.76731 0.17831 -0.36400
H 	H 	0.62490 0.34230 0.81830 -0.05700
H 	H 	0.92300 0.29580 0.80540 -0.04800
H 	H 	0.83090 0.37210 0.59030 0.16900
H 	H 	0.92050 0.37170 0.49970 -0.05000
H 	H 	0.93040 0.66720 0.26280 -0.04400
H 	H 	0.62430 0.45690 0.65270 0.19300
H 	H 	0.83680 0.66760 0.35200 0.17700
H 	H 	0.91910 0.41610 0.63650 0.17800
C 	C 	0.77328 0.23112 0.93772 0.51700
C 	C 	0.68492 0.35528 0.78308 0.28700
C 	C 	0.86225 0.32815 0.77515 0.27000
C 	C 	0.93814 0.51966 0.37166 -0.29400
C 	C 	0.82773 0.51947 0.48047 0.37800
C 	C 	0.85154 0.43126 0.52426 -0.37800
C 	C 	0.77350 0.30510 0.83010 -0.31000
C 	C 	0.90550 0.43090 0.47050 0.25600
C 	C 	0.99929 0.51871 0.31471 0.48300
C 	C 	0.91052 0.60748 0.32908 0.26000
C 	C 	0.68468 0.42492 0.68352 -0.42200
C 	C 	0.85562 0.60798 0.38198 -0.37900
C 	C 	0.77052 0.44668 0.63108 0.42400
C 	C 	0.85990 0.40010 0.67410 -0.40500
O 	O 	0.03636 0.76206 0.01444 -0.79700
O 	O 	0.03875 0.59749 0.23057 -0.55100
O 	O 	0.00983 0.44063 0.35197 -0.57400
O 	O 	0.85631 0.18385 0.97819 -0.56000
O 	O 	0.69072 0.22416 0.97708 -0.58600
O 	O 	0.76731 0.52489 0.52949 -0.35900
In	In	0.12500 0.12500 0.62500 2.01200
In	In	0.12500 0.12500 0.12500 2.01200
In	In	0.62500 0.12500 0.12500 2.01100
In	In	0.12500 0.62500 0.12500 2.01200
In	In	0.13881 0.36119 0.36119 2.00900
In	In	0.36119 0.13881 0.13881 2.00900
In	In	0.11119 0.88881 0.88881 2.00600
In	In	0.88881 0.11119 0.11119 2.00700
H 	H 	0.49173 0.27607 -0.01194 0.21300
H 	H 	0.00585 0.26194 -0.02607 0.21600
H 	H 	0.24415 -0.01194 0.27607 0.21500
H 	H 	0.75827 -0.02607 0.26194 0.21300
H 	H 	-0.01194 0.24415 0.49173 0.21600
H 	H 	-0.02607 0.75827 0.00585 0.21600
