data_crystal

_cell_length_a 6.35540
_cell_length_b 9.16600
_cell_length_c 15.31100
_cell_angle_alpha 90.27000
_cell_angle_beta  91.33800
_cell_angle_gamma 106.59400

_symmetry_space_group_name_	'P 1'
_symmetry_space_group_name_H-M	'P 1'

loop_
_symmetry_equiv_pos_as_xyz
  x,y,z

loop_
_atom_site_label
_atom_site_type_symbol
_atom_site_fract_x
_atom_site_fract_y
_atom_site_fract_z
_atom_site_charge
Fe	Fe	0.76532 0.03711 0.38230 1.26400
Fe	Fe	0.74731 0.04156 0.12640 1.28900
Fe	Fe	0.12952 0.68860 0.24959 1.27300
P 	P 	0.65506 0.77644 0.27779 0.52500
O 	O 	0.82640 0.70610 0.24210 -0.38900
O 	O 	0.68060 0.80630 0.37748 -0.34900
O 	O 	0.69280 0.94150 0.24361 -0.45900
O 	O 	0.43220 0.67110 0.25099 -0.36400
O 	O 	0.84190 0.24290 0.33639 -0.39400
O 	O 	0.02240 0.47360 0.25300 -0.41800
P 	P 	0.82130 0.33615 0.25889 0.49600
O 	O 	0.73650 0.25400 0.17670 -0.12500
O 	O 	0.26900 0.21650 0.23860 -0.03400
O 	O 	0.61650 0.39660 0.27210 -0.74300
H 	H 	0.68320 0.49670 0.26120 0.34700
H 	H 	0.51180 0.34700 0.24200 0.43400
P 	P 	0.97250 0.30350 0.25400 0.22400
O 	O 	0.84630 0.23300 0.17160 -0.31000
O 	O 	0.19700 0.25700 0.26210 -0.10100
P 	P 	0.33550 0.87470 0.07954 0.22600
O 	O 	0.55150 0.83090 0.06830 -0.20500
O 	O 	0.07180 0.11260 0.17960 -0.12600
P 	P 	0.19700 0.90660 0.07929 0.43100
O 	O 	0.04260 0.99760 0.10830 -0.25600
O 	O 	0.79590 0.84920 0.07720 -0.15000
O 	O 	0.42550 0.02010 0.10870 -0.37700
O 	O 	0.18190 0.86760 0.98800 -0.36000
O 	O 	0.16400 0.75940 0.13311 -0.39100
P 	P 	0.22401 0.94976 0.40192 0.56900
O 	O 	0.18550 0.79490 0.35630 -0.41400
O 	O 	0.46140 0.04780 0.39090 -0.36800
O 	O 	0.07520 0.03870 0.36290 -0.35000
O 	O 	0.17380 0.91520 0.49774 -0.39500
Fe	Fe	0.23468 0.96289 0.61770 1.26400
Fe	Fe	0.25269 0.95844 0.87360 1.28900
Fe	Fe	0.87048 0.31140 0.75041 1.27300
P 	P 	0.34494 0.22356 0.72221 0.52500
O 	O 	0.17360 0.29390 0.75790 -0.38900
O 	O 	0.31940 0.19370 0.62252 -0.34900
O 	O 	0.30720 0.05850 0.75639 -0.45900
O 	O 	0.56780 0.32890 0.74901 -0.36400
O 	O 	0.15810 0.75710 0.66361 -0.39400
O 	O 	0.97760 0.52640 0.74700 -0.41800
P 	P 	0.17870 0.66385 0.74111 0.49600
O 	O 	0.26350 0.74600 0.82330 -0.12500
O 	O 	0.73100 0.78350 0.76140 -0.03400
O 	O 	0.38350 0.60340 0.72790 -0.74300
H 	H 	0.31680 0.50330 0.73880 0.34700
H 	H 	0.48820 0.65300 0.75800 0.43400
P 	P 	0.02750 0.69650 0.74600 0.22400
O 	O 	0.15370 0.76700 0.82840 -0.31000
O 	O 	0.80300 0.74300 0.73790 -0.10100
P 	P 	0.66450 0.12530 0.92046 0.22600
O 	O 	0.44850 0.16910 0.93170 -0.20500
O 	O 	0.92820 0.88740 0.82040 -0.12600
P 	P 	0.80300 0.09340 0.92071 0.43100
O 	O 	0.95740 0.00240 0.89170 -0.25600
O 	O 	0.20410 0.15080 0.92280 -0.15000
O 	O 	0.57450 0.97990 0.89130 -0.37700
O 	O 	0.81810 0.13240 0.01200 -0.36000
O 	O 	0.83600 0.24060 0.86689 -0.39100
P 	P 	0.77599 0.05024 0.59808 0.56900
O 	O 	0.81450 0.20510 0.64370 -0.41400
O 	O 	0.53860 0.95220 0.60910 -0.36800
O 	O 	0.92480 0.96130 0.63710 -0.35000
O 	O 	0.82620 0.08480 0.50226 -0.39500
