data_crystal

_cell_length_a 13.64400
_cell_length_b 15.33390
_cell_length_c 15.33390
_cell_angle_alpha 99.17270
_cell_angle_beta  102.33200
_cell_angle_gamma 77.66850

_symmetry_space_group_name_	'P 1'
_symmetry_space_group_name_H-M	'P 1'

loop_
_symmetry_equiv_pos_as_xyz
  x,y,z

loop_
_atom_site_label
_atom_site_type_symbol
_atom_site_fract_x
_atom_site_fract_y
_atom_site_fract_z
_atom_site_charge
Co	Co	0.50000 0.50000 -0.00000 1.14300
Co	Co	0.00000 0.00000 0.50000 1.13600
Co	Co	0.25000 0.81207 0.81207 1.12700
Co	Co	0.75000 0.18793 0.18793 1.11300
H 	H 	0.18120 0.79440 0.60940 -0.03100
H 	H 	0.23650 0.75320 0.47800 0.11800
H 	H 	0.70390 0.37150 0.98450 0.06700
H 	H 	0.50120 0.70530 0.29590 0.10400
H 	H 	0.65550 0.63070 0.04290 0.01300
H 	H 	0.47870 0.42710 0.16630 -0.01300
H 	H 	0.52720 0.65940 0.15120 -0.00800
H 	H 	0.51730 0.59370 0.45730 0.06800
H 	H 	0.40250 0.58630 0.42310 0.06900
H 	H 	0.87090 0.36420 0.00460 0.05300
H 	H 	0.51980 0.71990 0.61410 0.11300
H 	H 	0.45290 0.46350 0.31050 0.09900
H 	H 	0.45460 0.75980 0.74440 -0.01100
H 	H 	0.48330 0.74260 0.45080 0.08600
H 	H 	0.37210 0.73970 0.39810 0.09100
H 	H 	0.82640 0.63120 0.06640 0.07900
H 	H 	0.00020 0.54990 0.08670 0.01600
H 	H 	0.02400 0.44460 0.07060 0.01600
H 	H 	0.31880 0.60940 0.79440 -0.02800
H 	H 	0.26350 0.47800 0.75320 0.11500
H 	H 	0.79610 0.98450 0.37150 0.06000
H 	H 	0.99880 0.29590 0.70530 0.15000
H 	H 	0.84450 0.04290 0.63070 0.00700
H 	H 	0.02130 0.16630 0.42710 -0.02700
H 	H 	0.97280 0.15120 0.65940 -0.03200
H 	H 	0.98270 0.45730 0.59370 0.10400
H 	H 	0.09750 0.42310 0.58630 0.09400
H 	H 	0.62910 0.00460 0.36420 0.06700
H 	H 	0.98020 0.61410 0.71990 0.12700
H 	H 	0.04710 0.31050 0.46350 0.11400
H 	H 	0.04540 0.74440 0.75980 -0.01800
H 	H 	0.01670 0.45080 0.74260 0.06300
H 	H 	0.12790 0.39810 0.73970 0.07400
H 	H 	0.67360 0.06640 0.63120 0.09100
H 	H 	0.49980 0.08670 0.54990 0.07600
H 	H 	0.47600 0.07060 0.44460 0.07600
H 	H 	0.81880 0.20560 0.39060 -0.02700
H 	H 	0.76350 0.24680 0.52200 0.12000
H 	H 	0.29610 0.62850 0.01550 -0.07000
H 	H 	0.49880 0.29470 0.70410 0.10000
H 	H 	0.34450 0.36930 0.95710 -0.00200
H 	H 	0.52130 0.57290 0.83370 -0.00400
H 	H 	0.47280 0.34060 0.84880 -0.00200
H 	H 	0.48270 0.40630 0.54270 0.06700
H 	H 	0.59750 0.41370 0.57690 0.07200
H 	H 	0.12910 0.63580 0.99540 0.14500
H 	H 	0.48020 0.28010 0.38590 0.10600
H 	H 	0.54710 0.53650 0.68950 0.10100
H 	H 	0.54540 0.24020 0.25560 -0.02200
H 	H 	0.51670 0.25740 0.54920 0.08200
H 	H 	0.62790 0.26030 0.60190 0.09100
H 	H 	0.17360 0.36880 0.93360 0.12100
H 	H 	0.99980 0.45010 0.91330 0.13500
H 	H 	0.97600 0.55540 0.92940 0.13900
H 	H 	0.68120 0.39060 0.20560 -0.03000
H 	H 	0.73650 0.52200 0.24680 0.12100
H 	H 	0.20390 0.01550 0.62850 -0.06300
H 	H 	0.00120 0.70410 0.29470 0.05400
H 	H 	0.15550 0.95710 0.36930 0.00400
H 	H 	0.97870 0.83370 0.57290 0.01000
H 	H 	0.02720 0.84880 0.34060 0.02100
H 	H 	0.01730 0.54270 0.40630 0.03000
H 	H 	0.90250 0.57690 0.41370 0.04700
H 	H 	0.37090 0.99540 0.63580 0.13100
H 	H 	0.01980 0.38590 0.28010 0.08900
H 	H 	0.95290 0.68950 0.53650 0.08600
H 	H 	0.95460 0.25560 0.24020 -0.01400
H 	H 	0.98330 0.54920 0.25740 0.10500
H 	H 	0.87210 0.60190 0.26030 0.10800
H 	H 	0.32640 0.93360 0.36880 0.10800
H 	H 	0.50020 0.91330 0.45010 0.07900
H 	H 	0.52400 0.92940 0.55540 0.08400
C 	C 	0.25120 0.77750 0.61130 0.16100
C 	C 	0.28330 0.75480 0.53180 -0.25700
C 	C 	0.47500 0.59160 0.32160 0.15300
C 	C 	0.72920 0.42450 0.00250 -0.01100
C 	C 	0.38650 0.73400 0.53180 0.20000
C 	C 	0.49580 0.64680 0.27100 -0.20800
C 	C 	0.70030 0.57600 0.03680 0.07200
C 	C 	0.48150 0.48580 0.19240 0.12700
C 	C 	0.50960 0.61960 0.18240 0.11700
C 	C 	0.45560 0.61670 0.41650 -0.15200
C 	C 	0.82890 0.42020 0.01260 -0.09900
C 	C 	0.87270 0.49630 0.03430 0.05100
C 	C 	0.44950 0.73480 0.61120 -0.24600
C 	C 	0.46720 0.50600 0.28020 -0.21400
C 	C 	0.40950 0.75790 0.68950 0.12900
C 	C 	0.42510 0.71380 0.44480 -0.21100
C 	C 	0.80300 0.57720 0.04880 -0.13600
C 	C 	0.98430 0.49800 0.04500 -0.02500
C 	C 	0.24880 0.61130 0.77750 0.15700
C 	C 	0.21670 0.53180 0.75480 -0.24900
C 	C 	0.02500 0.32160 0.59160 0.22300
C 	C 	0.77080 0.00250 0.42450 0.01400
C 	C 	0.11350 0.53180 0.73400 0.18800
C 	C 	0.00420 0.27100 0.64680 -0.31400
C 	C 	0.79970 0.03680 0.57600 0.09400
C 	C 	0.01850 0.19240 0.48580 0.15500
C 	C 	0.99040 0.18240 0.61960 0.19600
C 	C 	0.04440 0.41650 0.61670 -0.24300
C 	C 	0.67110 0.01260 0.42020 -0.14600
C 	C 	0.62730 0.03430 0.49630 0.11800
C 	C 	0.05050 0.61120 0.73480 -0.26600
C 	C 	0.03280 0.28020 0.50600 -0.26600
C 	C 	0.09050 0.68950 0.75790 0.13700
C 	C 	0.07490 0.44480 0.71380 -0.16000
C 	C 	0.69700 0.04880 0.57720 -0.17900
C 	C 	0.51570 0.04500 0.49800 -0.19500
C 	C 	0.74880 0.22250 0.38870 0.15700
C 	C 	0.71670 0.24520 0.46820 -0.25300
C 	C 	0.52500 0.40840 0.67840 0.15200
C 	C 	0.27080 0.57550 0.99750 0.23300
C 	C 	0.61350 0.26600 0.46820 0.19800
C 	C 	0.50420 0.35320 0.72900 -0.20400
C 	C 	0.29970 0.42400 0.96320 0.14600
C 	C 	0.51850 0.51420 0.80760 0.13000
C 	C 	0.49040 0.38040 0.81760 0.11500
C 	C 	0.54440 0.38330 0.58350 -0.15200
C 	C 	0.17110 0.57980 0.98740 -0.30500
C 	C 	0.12730 0.50370 0.96570 0.23800
C 	C 	0.55050 0.26520 0.38880 -0.24600
C 	C 	0.53280 0.49400 0.71980 -0.21000
C 	C 	0.59050 0.24210 0.31050 0.12700
C 	C 	0.57490 0.28620 0.55520 -0.20900
C 	C 	0.19700 0.42280 0.95120 -0.25000
C 	C 	0.01570 0.50200 0.95500 -0.32000
C 	C 	0.75120 0.38870 0.22250 0.16000
C 	C 	0.78330 0.46820 0.24520 -0.25900
C 	C 	0.97500 0.67840 0.40840 0.08300
C 	C 	0.22920 0.99750 0.57550 0.20900
C 	C 	0.88650 0.46820 0.26600 0.20800
C 	C 	0.99580 0.72900 0.35320 -0.10000
C 	C 	0.20030 0.96320 0.42400 0.12400
C 	C 	0.98150 0.80760 0.51420 0.10200
C 	C 	0.00960 0.81760 0.38040 0.03800
C 	C 	0.95560 0.58350 0.38330 -0.06300
C 	C 	0.32890 0.98740 0.57980 -0.25900
C 	C 	0.37270 0.96570 0.50370 0.17300
C 	C 	0.94950 0.38880 0.26520 -0.22000
C 	C 	0.96720 0.71980 0.49400 -0.15800
C 	C 	0.90950 0.31050 0.24210 0.11700
C 	C 	0.92510 0.55520 0.28620 -0.25800
C 	C 	0.30300 0.95120 0.42280 -0.20900
C 	C 	0.48430 0.95500 0.50200 -0.15700
S 	S 	0.43860 0.73021 0.97351 0.84200
S 	S 	0.06140 0.97351 0.73021 0.82900
S 	S 	0.56140 0.26979 0.02649 0.66600
S 	S 	0.93860 0.02649 0.26979 0.68200
N 	N 	0.49840 0.53880 0.14200 -0.25300
N 	N 	0.66190 0.50200 0.01720 -0.21900
N 	N 	0.30980 0.77780 0.68980 -0.26400
N 	N 	0.00160 0.14200 0.53880 -0.28000
N 	N 	0.83810 0.01720 0.50200 -0.22500
N 	N 	0.19020 0.68980 0.77780 -0.26500
N 	N 	0.50160 0.46120 0.85800 -0.24200
N 	N 	0.33810 0.49800 0.98280 -0.25800
N 	N 	0.69020 0.22220 0.31020 -0.26700
N 	N 	0.99840 0.85800 0.46120 -0.21500
N 	N 	0.16190 0.98280 0.49800 -0.25000
N 	N 	0.80980 0.31020 0.22220 -0.26600
O 	O 	0.38740 0.74779 0.88261 -0.48800
O 	O 	0.46650 0.63336 0.97684 -0.46300
O 	O 	0.36420 0.76720 0.03460 -0.35600
O 	O 	0.52910 0.76940 0.00140 -0.34500
O 	O 	0.11260 0.88261 0.74779 -0.48800
O 	O 	0.03350 0.97684 0.63336 -0.46500
O 	O 	0.13580 0.03460 0.76720 -0.35700
O 	O 	0.97090 0.00140 0.76940 -0.33300
O 	O 	0.61260 0.25221 0.11739 -0.47300
O 	O 	0.53350 0.36664 0.02316 -0.46600
O 	O 	0.63580 0.23280 0.96540 -0.28700
O 	O 	0.47090 0.23060 0.99860 -0.26900
O 	O 	0.88740 0.11739 0.25221 -0.47300
O 	O 	0.96650 0.02316 0.36664 -0.46100
O 	O 	0.86420 0.96540 0.23280 -0.28600
O 	O 	0.02910 0.99860 0.23060 -0.28100
