data_crystal

_cell_length_a 32.49900
_cell_length_b 32.49900
_cell_length_c 32.49900
_cell_angle_alpha 90.00000
_cell_angle_beta  90.00000
_cell_angle_gamma 90.00000

_symmetry_space_group_name_	'P 1'
_symmetry_space_group_name_H-M	'P 1'

loop_
_symmetry_equiv_pos_as_xyz
  x,y,z

loop_
_atom_site_label
_atom_site_type_symbol
_atom_site_fract_x
_atom_site_fract_y
_atom_site_fract_z
_atom_site_charge
Zr	Zr	0.00000 0.00000 0.07530 3.20900
Zr	Zr	-0.00000 -0.00000 0.92470 3.20800
Zr	Zr	0.07530 0.00000 -0.00000 3.21000
Zr	Zr	0.92470 0.00000 -0.00000 3.20900
Zr	Zr	0.00000 0.07530 -0.00000 3.21000
Zr	Zr	-0.00000 0.92470 -0.00000 3.20900
O 	O 	0.03700 0.03700 0.03700 -1.30100
O 	O 	0.96300 0.96300 0.03700 -1.20600
O 	O 	0.96300 0.03700 0.96300 -1.20600
O 	O 	0.03700 0.96300 0.96300 -1.20600
O 	O 	0.03700 0.03700 0.96300 -1.25300
O 	O 	0.96300 0.96300 0.96300 -1.16000
O 	O 	0.03700 0.96300 0.03700 -1.25300
O 	O 	0.96300 0.03700 0.03700 -1.25300
O 	O 	-0.00000 0.94230 0.10940 -0.59700
C 	C 	-0.00000 0.89000 0.16300 0.07200
O 	O 	0.00000 0.05770 0.10940 -0.63400
C 	C 	-0.00000 0.11000 0.16300 0.03200
O 	O 	-0.00000 0.94230 0.89060 -0.59500
C 	C 	0.00000 0.89000 0.83700 0.08900
O 	O 	-0.00000 0.05770 0.89060 -0.63100
C 	C 	0.00000 0.11000 0.83700 0.04900
O 	O 	0.10940 -0.00000 0.94230 -0.59700
C 	C 	0.16300 0.00000 0.89000 0.07200
O 	O 	0.10940 -0.00000 0.05770 -0.63400
C 	C 	0.16300 -0.00000 0.11000 0.03200
O 	O 	0.89060 -0.00000 0.94230 -0.59500
C 	C 	0.83700 0.00000 0.89000 0.08900
O 	O 	0.89060 -0.00000 0.05770 -0.63100
C 	C 	0.83700 -0.00000 0.11000 0.04900
O 	O 	0.94230 0.10940 -0.00000 -0.59700
C 	C 	0.89000 0.16300 -0.00000 0.07200
O 	O 	0.05770 0.10940 -0.00000 -0.63400
C 	C 	0.11000 0.16300 -0.00000 0.03200
O 	O 	0.94230 0.89060 -0.00000 -0.59500
C 	C 	0.89000 0.83700 -0.00000 0.08900
O 	O 	0.05770 0.89060 -0.00000 -0.63100
C 	C 	0.11000 0.83700 -0.00000 0.04900
O 	O 	0.94230 0.00000 0.89060 -0.59500
C 	C 	0.89000 0.00000 0.83700 0.08900
O 	O 	0.05770 0.00000 0.89060 -0.63100
C 	C 	0.11000 0.00000 0.83700 0.04900
O 	O 	0.94230 -0.00000 0.10940 -0.59700
C 	C 	0.89000 -0.00000 0.16300 0.07200
O 	O 	0.05770 -0.00000 0.10940 -0.63400
C 	C 	0.11000 -0.00000 0.16300 0.03200
O 	O 	0.00000 0.10940 0.05770 -0.63400
C 	C 	0.00000 0.16300 0.11000 0.03200
O 	O 	-0.00000 0.10940 0.94230 -0.59700
C 	C 	-0.00000 0.16300 0.89000 0.07200
O 	O 	-0.00000 0.89060 0.05770 -0.63100
C 	C 	0.00000 0.83700 0.11000 0.04900
O 	O 	-0.00000 0.89060 0.94230 -0.59500
C 	C 	0.00000 0.83700 0.89000 0.08900
O 	O 	0.10940 0.94230 -0.00000 -0.59700
C 	C 	0.16300 0.89000 -0.00000 0.07200
O 	O 	0.10940 0.05770 -0.00000 -0.63400
C 	C 	0.16300 0.11000 -0.00000 0.03200
O 	O 	0.89060 0.94230 -0.00000 -0.59500
C 	C 	0.83700 0.89000 -0.00000 0.08900
O 	O 	0.89060 0.05770 -0.00000 -0.63100
C 	C 	0.83700 0.11000 -0.00000 0.04900
C 	C 	-0.00000 0.90470 0.09530 0.42400
C 	C 	-0.00000 0.86850 0.13150 -0.11600
C 	C 	0.00000 0.09530 0.09530 0.42200
C 	C 	-0.00000 0.13150 0.13150 -0.10600
C 	C 	-0.00000 0.90470 0.90470 0.42600
C 	C 	-0.00000 0.86850 0.86850 -0.12600
C 	C 	-0.00000 0.09530 0.90470 0.42400
C 	C 	-0.00000 0.13150 0.86850 -0.11600
C 	C 	0.09530 -0.00000 0.90470 0.42400
C 	C 	0.13150 -0.00000 0.86850 -0.11600
C 	C 	0.09530 0.00000 0.09530 0.42200
C 	C 	0.13150 -0.00000 0.13150 -0.10600
C 	C 	0.90470 -0.00000 0.90470 0.42600
C 	C 	0.86850 -0.00000 0.86850 -0.12600
C 	C 	0.90470 0.00000 0.09530 0.42400
C 	C 	0.86850 -0.00000 0.13150 -0.11600
C 	C 	0.90470 0.09530 -0.00000 0.42400
C 	C 	0.86850 0.13150 -0.00000 -0.11600
C 	C 	0.09530 0.09530 -0.00000 0.42200
C 	C 	0.13150 0.13150 -0.00000 -0.10600
C 	C 	0.90470 0.90470 -0.00000 0.42600
C 	C 	0.86850 0.86850 -0.00000 -0.12600
C 	C 	0.09530 0.90470 -0.00000 0.42400
C 	C 	0.13150 0.86850 -0.00000 -0.11600
Zr	Zr	-0.00000 0.50000 0.57530 3.21600
Zr	Zr	-0.00000 0.50000 0.42470 3.21600
Zr	Zr	0.07530 0.50000 0.50000 3.22300
Zr	Zr	0.92470 0.50000 0.50000 3.22300
Zr	Zr	-0.00000 0.57530 0.50000 3.21600
Zr	Zr	-0.00000 0.42470 0.50000 3.21600
O 	O 	0.03700 0.53700 0.53700 -1.27300
O 	O 	0.96300 0.46300 0.53700 -1.22500
O 	O 	0.96300 0.53700 0.46300 -1.22500
O 	O 	0.03700 0.46300 0.46300 -1.27300
O 	O 	0.03700 0.53700 0.46300 -1.27300
O 	O 	0.96300 0.46300 0.46300 -1.22500
O 	O 	0.03700 0.46300 0.53700 -1.27300
O 	O 	0.96300 0.53700 0.53700 -1.22500
O 	O 	-0.00000 0.44230 0.60940 -0.62900
C 	C 	-0.00000 0.39000 0.66300 0.05000
O 	O 	-0.00000 0.55770 0.60940 -0.62900
C 	C 	-0.00000 0.61000 0.66300 0.05700
O 	O 	-0.00000 0.44230 0.39060 -0.63000
C 	C 	-0.00000 0.39000 0.33700 0.03800
O 	O 	-0.00000 0.55770 0.39060 -0.63000
C 	C 	-0.00000 0.61000 0.33700 0.04500
O 	O 	0.10940 0.50000 0.44230 -0.60800
C 	C 	0.16300 0.50000 0.39000 0.06700
O 	O 	0.10940 0.50000 0.55770 -0.60800
C 	C 	0.16300 0.50000 0.61000 0.07400
O 	O 	0.89060 0.50000 0.44230 -0.60600
C 	C 	0.83700 0.50000 0.39000 0.08400
O 	O 	0.89060 0.50000 0.55770 -0.60600
C 	C 	0.83700 0.50000 0.61000 0.09000
O 	O 	0.94230 0.60940 0.50000 -0.57500
C 	C 	0.89000 0.66300 0.50000 0.11300
O 	O 	0.05770 0.60940 0.50000 -0.61200
C 	C 	0.11000 0.66300 0.50000 0.07200
O 	O 	0.94230 0.39060 0.50000 -0.57700
C 	C 	0.89000 0.33700 0.50000 0.10100
O 	O 	0.05770 0.39060 0.50000 -0.61400
C 	C 	0.11000 0.33700 0.50000 0.06000
O 	O 	0.94230 0.50000 0.39060 -0.57700
C 	C 	0.89000 0.50000 0.33700 0.10100
O 	O 	0.05770 0.50000 0.39060 -0.61400
C 	C 	0.11000 0.50000 0.33700 0.06000
O 	O 	0.94230 0.50000 0.60940 -0.57500
C 	C 	0.89000 0.50000 0.66300 0.11300
O 	O 	0.05770 0.50000 0.60940 -0.61200
C 	C 	0.11000 0.50000 0.66300 0.07200
O 	O 	-0.00000 0.60940 0.55770 -0.62900
C 	C 	-0.00000 0.66300 0.61000 0.05700
O 	O 	-0.00000 0.60940 0.44230 -0.62900
C 	C 	-0.00000 0.66300 0.39000 0.05000
O 	O 	-0.00000 0.39060 0.55770 -0.63000
C 	C 	-0.00000 0.33700 0.61000 0.04500
O 	O 	0.00000 0.39060 0.44230 -0.63000
C 	C 	-0.00000 0.33700 0.39000 0.03800
O 	O 	0.10940 0.44230 0.50000 -0.60800
C 	C 	0.16300 0.39000 0.50000 0.06700
O 	O 	0.10940 0.55770 0.50000 -0.60800
C 	C 	0.16300 0.61000 0.50000 0.07400
O 	O 	0.89060 0.44230 0.50000 -0.60600
C 	C 	0.83700 0.39000 0.50000 0.08400
O 	O 	0.89060 0.55770 0.50000 -0.60600
C 	C 	0.83700 0.61000 0.50000 0.09000
C 	C 	0.00000 0.40470 0.59530 0.42200
C 	C 	-0.00000 0.36850 0.63150 -0.11200
C 	C 	0.00000 0.59530 0.59530 0.42300
C 	C 	-0.00000 0.63150 0.63150 -0.11600
C 	C 	0.00000 0.40470 0.40470 0.42100
C 	C 	0.00000 0.36850 0.36850 -0.10900
C 	C 	0.00000 0.59530 0.40470 0.42200
C 	C 	-0.00000 0.63150 0.36850 -0.11200
C 	C 	0.09530 0.50000 0.40470 0.42800
C 	C 	0.13150 0.50000 0.36850 -0.11700
C 	C 	0.09530 0.50000 0.59530 0.43000
C 	C 	0.13150 0.50000 0.63150 -0.12000
C 	C 	0.90470 0.50000 0.40470 0.43000
C 	C 	0.86850 0.50000 0.36850 -0.12700
C 	C 	0.90470 0.50000 0.59530 0.43100
C 	C 	0.86850 0.50000 0.63150 -0.13100
C 	C 	0.90470 0.59530 0.50000 0.43100
C 	C 	0.86850 0.63150 0.50000 -0.13100
C 	C 	0.09530 0.59530 0.50000 0.43000
C 	C 	0.13150 0.63150 0.50000 -0.12000
C 	C 	0.90470 0.40470 0.50000 0.43000
C 	C 	0.86850 0.36850 0.50000 -0.12700
C 	C 	0.09530 0.40470 0.50000 0.42800
C 	C 	0.13150 0.36850 0.50000 -0.11700
Zr	Zr	0.50000 -0.00000 0.57530 3.21600
Zr	Zr	0.50000 -0.00000 0.42470 3.21600
Zr	Zr	0.57530 -0.00000 0.50000 3.21600
Zr	Zr	0.42470 -0.00000 0.50000 3.21600
Zr	Zr	0.50000 0.07530 0.50000 3.22300
Zr	Zr	0.50000 0.92470 0.50000 3.22300
O 	O 	0.53700 0.03700 0.53700 -1.27300
O 	O 	0.46300 0.96300 0.53700 -1.22500
O 	O 	0.46300 0.03700 0.46300 -1.27300
O 	O 	0.53700 0.96300 0.46300 -1.22500
O 	O 	0.53700 0.03700 0.46300 -1.27300
O 	O 	0.46300 0.96300 0.46300 -1.22500
O 	O 	0.53700 0.96300 0.53700 -1.22500
O 	O 	0.46300 0.03700 0.53700 -1.27300
O 	O 	0.50000 0.94230 0.60940 -0.57500
C 	C 	0.50000 0.89000 0.66300 0.11300
O 	O 	0.50000 0.05770 0.60940 -0.61200
C 	C 	0.50000 0.11000 0.66300 0.07200
O 	O 	0.50000 0.94230 0.39060 -0.57700
C 	C 	0.50000 0.89000 0.33700 0.10100
O 	O 	0.50000 0.05770 0.39060 -0.61400
C 	C 	0.50000 0.11000 0.33700 0.06000
O 	O 	0.60940 0.00000 0.44230 -0.62900
C 	C 	0.66300 0.00000 0.39000 0.05000
O 	O 	0.60940 0.00000 0.55770 -0.62900
C 	C 	0.66300 0.00000 0.61000 0.05700
O 	O 	0.39060 0.00000 0.44230 -0.63000
C 	C 	0.33700 0.00000 0.39000 0.03800
O 	O 	0.39060 0.00000 0.55770 -0.63000
C 	C 	0.33700 0.00000 0.61000 0.04500
O 	O 	0.44230 0.10940 0.50000 -0.60800
C 	C 	0.39000 0.16300 0.50000 0.06700
O 	O 	0.55770 0.10940 0.50000 -0.60800
C 	C 	0.61000 0.16300 0.50000 0.07400
O 	O 	0.44230 0.89060 0.50000 -0.60600
C 	C 	0.39000 0.83700 0.50000 0.08400
O 	O 	0.55770 0.89060 0.50000 -0.60600
C 	C 	0.61000 0.83700 0.50000 0.09000
O 	O 	0.44230 -0.00000 0.39060 -0.63000
C 	C 	0.39000 -0.00000 0.33700 0.03800
O 	O 	0.55770 -0.00000 0.39060 -0.63000
C 	C 	0.61000 -0.00000 0.33700 0.04500
O 	O 	0.44230 -0.00000 0.60940 -0.62900
C 	C 	0.39000 -0.00000 0.66300 0.05000
O 	O 	0.55770 -0.00000 0.60940 -0.62900
C 	C 	0.61000 -0.00000 0.66300 0.05700
O 	O 	0.50000 0.10940 0.55770 -0.60800
C 	C 	0.50000 0.16300 0.61000 0.07400
O 	O 	0.50000 0.10940 0.44230 -0.60800
C 	C 	0.50000 0.16300 0.39000 0.06700
O 	O 	0.50000 0.89060 0.55770 -0.60600
C 	C 	0.50000 0.83700 0.61000 0.09000
O 	O 	0.50000 0.89060 0.44230 -0.60600
C 	C 	0.50000 0.83700 0.39000 0.08400
O 	O 	0.60940 0.94230 0.50000 -0.57500
C 	C 	0.66300 0.89000 0.50000 0.11300
O 	O 	0.60940 0.05770 0.50000 -0.61200
C 	C 	0.66300 0.11000 0.50000 0.07200
O 	O 	0.39060 0.94230 0.50000 -0.57700
C 	C 	0.33700 0.89000 0.50000 0.10100
O 	O 	0.39060 0.05770 0.50000 -0.61400
C 	C 	0.33700 0.11000 0.50000 0.06000
C 	C 	0.50000 0.90470 0.59530 0.43100
C 	C 	0.50000 0.86850 0.63150 -0.13100
C 	C 	0.50000 0.09530 0.59530 0.43000
C 	C 	0.50000 0.13150 0.63150 -0.12000
C 	C 	0.50000 0.90470 0.40470 0.43000
C 	C 	0.50000 0.86850 0.36850 -0.12700
C 	C 	0.50000 0.09530 0.40470 0.42800
C 	C 	0.50000 0.13150 0.36850 -0.11700
C 	C 	0.59530 -0.00000 0.40470 0.42200
C 	C 	0.63150 0.00000 0.36850 -0.11200
C 	C 	0.59530 -0.00000 0.59530 0.42300
C 	C 	0.63150 0.00000 0.63150 -0.11600
C 	C 	0.40470 -0.00000 0.40470 0.42100
C 	C 	0.36850 0.00000 0.36850 -0.10900
C 	C 	0.40470 -0.00000 0.59530 0.42200
C 	C 	0.36850 0.00000 0.63150 -0.11200
C 	C 	0.40470 0.09530 0.50000 0.42800
C 	C 	0.36850 0.13150 0.50000 -0.11700
C 	C 	0.59530 0.09530 0.50000 0.43000
C 	C 	0.63150 0.13150 0.50000 -0.12000
C 	C 	0.40470 0.90470 0.50000 0.43000
C 	C 	0.36850 0.86850 0.50000 -0.12700
C 	C 	0.59530 0.90470 0.50000 0.43100
C 	C 	0.63150 0.86850 0.50000 -0.13100
Zr	Zr	0.50000 0.50000 0.07530 3.22300
Zr	Zr	0.50000 0.50000 0.92470 3.22300
Zr	Zr	0.57530 0.50000 -0.00000 3.21600
Zr	Zr	0.42470 0.50000 -0.00000 3.21600
Zr	Zr	0.50000 0.57530 -0.00000 3.21600
Zr	Zr	0.50000 0.42470 -0.00000 3.21600
O 	O 	0.53700 0.53700 0.03700 -1.27300
O 	O 	0.46300 0.46300 0.03700 -1.27300
O 	O 	0.46300 0.53700 0.96300 -1.22500
O 	O 	0.53700 0.46300 0.96300 -1.22500
O 	O 	0.53700 0.53700 0.96300 -1.22500
O 	O 	0.46300 0.46300 0.96300 -1.22500
O 	O 	0.53700 0.46300 0.03700 -1.27300
O 	O 	0.46300 0.53700 0.03700 -1.27300
O 	O 	0.50000 0.44230 0.10940 -0.60800
C 	C 	0.50000 0.39000 0.16300 0.06700
O 	O 	0.50000 0.55770 0.10940 -0.60800
C 	C 	0.50000 0.61000 0.16300 0.07400
O 	O 	0.50000 0.44230 0.89060 -0.60600
C 	C 	0.50000 0.39000 0.83700 0.08400
O 	O 	0.50000 0.55770 0.89060 -0.60600
C 	C 	0.50000 0.61000 0.83700 0.09000
O 	O 	0.60940 0.50000 0.94230 -0.57500
C 	C 	0.66300 0.50000 0.89000 0.11300
O 	O 	0.60940 0.50000 0.05770 -0.61200
C 	C 	0.66300 0.50000 0.11000 0.07200
O 	O 	0.39060 0.50000 0.94230 -0.57700
C 	C 	0.33700 0.50000 0.89000 0.10100
O 	O 	0.39060 0.50000 0.05770 -0.61400
C 	C 	0.33700 0.50000 0.11000 0.06000
O 	O 	0.44230 0.60940 -0.00000 -0.62900
C 	C 	0.39000 0.66300 -0.00000 0.05000
O 	O 	0.55770 0.60940 -0.00000 -0.62900
C 	C 	0.61000 0.66300 -0.00000 0.05700
O 	O 	0.44230 0.39060 -0.00000 -0.63000
C 	C 	0.39000 0.33700 -0.00000 0.03800
O 	O 	0.55770 0.39060 -0.00000 -0.63000
C 	C 	0.61000 0.33700 -0.00000 0.04500
O 	O 	0.44230 0.50000 0.89060 -0.60600
C 	C 	0.39000 0.50000 0.83700 0.08400
O 	O 	0.55770 0.50000 0.89060 -0.60600
C 	C 	0.61000 0.50000 0.83700 0.09000
O 	O 	0.44230 0.50000 0.10940 -0.60800
C 	C 	0.39000 0.50000 0.16300 0.06700
O 	O 	0.55770 0.50000 0.10940 -0.60800
C 	C 	0.61000 0.50000 0.16300 0.07400
O 	O 	0.50000 0.60940 0.05770 -0.61200
C 	C 	0.50000 0.66300 0.11000 0.07200
O 	O 	0.50000 0.60940 0.94230 -0.57500
C 	C 	0.50000 0.66300 0.89000 0.11300
O 	O 	0.50000 0.39060 0.05770 -0.61400
C 	C 	0.50000 0.33700 0.11000 0.06000
O 	O 	0.50000 0.39060 0.94230 -0.57700
C 	C 	0.50000 0.33700 0.89000 0.10100
O 	O 	0.60940 0.44230 -0.00000 -0.62900
C 	C 	0.66300 0.39000 -0.00000 0.05000
O 	O 	0.60940 0.55770 -0.00000 -0.62900
C 	C 	0.66300 0.61000 -0.00000 0.05700
O 	O 	0.39060 0.44230 -0.00000 -0.63000
C 	C 	0.33700 0.39000 -0.00000 0.03800
O 	O 	0.39060 0.55770 -0.00000 -0.63000
C 	C 	0.33700 0.61000 -0.00000 0.04500
C 	C 	0.50000 0.40470 0.09530 0.42800
C 	C 	0.50000 0.36850 0.13150 -0.11700
C 	C 	0.50000 0.59530 0.09530 0.43000
C 	C 	0.50000 0.63150 0.13150 -0.12000
C 	C 	0.50000 0.40470 0.90470 0.43000
C 	C 	0.50000 0.36850 0.86850 -0.12700
C 	C 	0.50000 0.59530 0.90470 0.43100
C 	C 	0.50000 0.63150 0.86850 -0.13100
C 	C 	0.59530 0.50000 0.90470 0.43100
C 	C 	0.63150 0.50000 0.86850 -0.13100
C 	C 	0.59530 0.50000 0.09530 0.43000
C 	C 	0.63150 0.50000 0.13150 -0.12000
C 	C 	0.40470 0.50000 0.90470 0.43000
C 	C 	0.36850 0.50000 0.86850 -0.12700
C 	C 	0.40470 0.50000 0.09530 0.42800
C 	C 	0.36850 0.50000 0.13150 -0.11700
C 	C 	0.40470 0.59530 -0.00000 0.42200
C 	C 	0.36850 0.63150 -0.00000 -0.11200
C 	C 	0.59530 0.59530 -0.00000 0.42300
C 	C 	0.63150 0.63150 -0.00000 -0.11600
C 	C 	0.40470 0.40470 -0.00000 0.42100
C 	C 	0.36850 0.36850 -0.00000 -0.10900
C 	C 	0.59530 0.40470 -0.00000 0.42200
C 	C 	0.63150 0.36850 -0.00000 -0.11200
