data_crystal

_cell_length_a 22.85100
_cell_length_b 22.85100
_cell_length_c 22.85100
_cell_angle_alpha 109.47100
_cell_angle_beta  109.47100
_cell_angle_gamma 109.47100

_symmetry_space_group_name_	'P 1'
_symmetry_space_group_name_H-M	'P 1'

loop_
_symmetry_equiv_pos_as_xyz
  x,y,z

loop_
_atom_site_label
_atom_site_type_symbol
_atom_site_fract_x
_atom_site_fract_y
_atom_site_fract_z
_atom_site_charge
U 	U 	0.27568 0.08575 0.66695 -0.00200
U 	U 	0.41880 0.60873 0.33305 0.00200
U 	U 	0.58120 0.91425 0.18993 0.00300
U 	U 	0.72432 0.39127 0.81007 0.01100
U 	U 	0.18993 0.58120 0.91425 0.00700
U 	U 	0.81007 0.72432 0.39127 0.01100
U 	U 	0.66695 0.27568 0.08575 -0.00500
U 	U 	0.33305 0.41880 0.60873 0.00300
U 	U 	0.60873 0.33305 0.41880 0.00300
U 	U 	0.08575 0.66695 0.27568 -0.00600
U 	U 	0.39127 0.81007 0.72432 0.00700
U 	U 	0.91425 0.18993 0.58120 0.00800
U 	U 	0.72432 0.91425 0.33305 0.00800
U 	U 	0.58120 0.39127 0.66695 0.00400
U 	U 	0.41880 0.08575 0.81007 0.00400
U 	U 	0.27568 0.60873 0.18993 -0.00500
U 	U 	0.81007 0.41880 0.08575 0.00100
U 	U 	0.18993 0.27568 0.60873 -0.00500
U 	U 	0.33305 0.72432 0.91425 0.01200
U 	U 	0.66695 0.58120 0.39127 0.00400
U 	U 	0.39127 0.66695 0.58120 0.00300
U 	U 	0.91425 0.33305 0.72432 0.01200
U 	U 	0.60873 0.18993 0.27568 -0.00200
U 	U 	0.08575 0.81007 0.41880 -0.00200
U 	U 	0.36470 0.06958 0.43428 -0.04100
U 	U 	0.63530 0.93042 0.56572 -0.00700
U 	U 	0.36470 0.93043 0.29512 -0.01400
U 	U 	0.63530 0.06957 0.70488 -0.03200
U 	U 	0.29512 0.36470 0.93042 -0.00400
U 	U 	0.70488 0.63530 0.06958 -0.04200
U 	U 	0.43427 0.36469 0.06957 -0.04900
U 	U 	0.56573 0.63531 0.93043 0.00200
U 	U 	0.93042 0.56572 0.63530 0.00100
U 	U 	0.06958 0.43428 0.36470 -0.05000
U 	U 	0.06958 0.70488 0.63531 -0.04200
U 	U 	0.93042 0.29512 0.36469 -0.00400
U 	U 	0.21881 0.86837 0.35044 0.01600
U 	U 	0.51793 0.86837 0.64956 0.02300
U 	U 	0.48207 0.13163 0.35044 0.00200
U 	U 	0.78119 0.13163 0.64956 0.01100
U 	U 	0.35044 0.48207 0.13163 -0.00300
U 	U 	0.64956 0.78119 0.13163 0.00400
U 	U 	0.35044 0.21881 0.86837 0.02200
U 	U 	0.64956 0.51793 0.86837 0.02800
U 	U 	0.86837 0.64956 0.51793 0.02800
U 	U 	0.86837 0.35044 0.21881 0.02100
U 	U 	0.13163 0.64956 0.78119 0.00500
U 	U 	0.13163 0.35044 0.48207 -0.00300
Co	Co	0.35968 0.85968 0.50000 1.08700
Co	Co	0.64032 0.14032 0.50000 1.07300
Co	Co	0.50000 0.64032 0.14032 1.06700
Co	Co	0.50000 0.35968 0.85968 1.09100
Co	Co	0.85968 0.50000 0.35968 1.09100
Co	Co	0.14032 0.50000 0.64032 1.06800
Co	Co	0.00000 0.00000 0.37442 1.01600
Co	Co	0.62558 0.62558 0.62558 1.08400
Co	Co	0.37442 0.00000 -0.00000 1.02300
Co	Co	-0.00000 0.37442 -0.00000 1.00700
Co	Co	0.00000 0.00000 0.62558 1.02800
Co	Co	0.37442 0.37442 0.37442 1.07000
Co	Co	0.62558 1.00000 -0.00000 1.06400
Co	Co	-0.00000 0.62558 -0.00000 1.01100
Co	Co	-0.00000 0.00000 0.50000 1.13700
Co	Co	0.50000 0.50000 0.50000 1.19500
Co	Co	0.50000 0.00000 -0.00000 1.13800
Co	Co	-0.00000 0.50000 -0.00000 1.12300
P 	P 	0.22419 0.99206 0.48101 0.56200
P 	P 	0.51105 0.74318 0.51899 0.45800
P 	P 	0.48895 0.00794 0.23213 0.35000
P 	P 	0.77581 0.25682 0.76787 0.45800
P 	P 	0.23213 0.48895 0.00794 0.27900
P 	P 	0.76787 0.77581 0.25682 0.45700
P 	P 	0.48101 0.22419 0.99206 0.62700
P 	P 	0.51899 0.51105 0.74318 0.45800
P 	P 	0.74318 0.51899 0.51105 0.45800
P 	P 	0.99206 0.48101 0.22419 0.62800
P 	P 	0.25682 0.76787 0.77581 0.45600
P 	P 	0.00794 0.23213 0.48895 0.28000
P 	P 	0.77581 0.00794 0.51899 0.35700
P 	P 	0.48895 0.25682 0.48101 0.45400
P 	P 	0.51105 0.99206 0.76787 0.56100
P 	P 	0.22419 0.74318 0.23213 0.45300
P 	P 	0.76787 0.51105 0.99206 0.62600
P 	P 	0.23213 0.22419 0.74318 0.45400
P 	P 	0.51899 0.77581 0.00794 0.28500
P 	P 	0.48101 0.48895 0.25682 0.45300
P 	P 	0.25682 0.48101 0.48895 0.45300
P 	P 	0.00794 0.51899 0.77581 0.29000
P 	P 	0.74318 0.23213 0.22419 0.45500
P 	P 	0.99206 0.76787 0.51105 0.62300
H 	H 	0.16420 0.04020 0.42740 0.15100
H 	H 	0.23290 0.10170 0.50100 0.21200
H 	H 	0.61280 0.73680 0.57260 0.16500
H 	H 	0.60070 0.73190 0.49900 0.20600
H 	H 	0.38720 0.95980 0.12400 0.13700
H 	H 	0.39930 0.89830 0.13120 0.17000
H 	H 	0.83580 0.26320 0.87600 0.17600
H 	H 	0.76710 0.26810 0.86880 0.21400
H 	H 	0.12400 0.38720 0.95980 0.13600
H 	H 	0.13120 0.39930 0.89830 0.16100
H 	H 	0.87600 0.83580 0.26320 0.17000
H 	H 	0.86880 0.76710 0.26810 0.21200
H 	H 	0.42740 0.16420 0.04020 0.15700
H 	H 	0.50100 0.23290 0.10170 0.22100
H 	H 	0.57260 0.61280 0.73680 0.16500
H 	H 	0.49900 0.60070 0.73190 0.20700
H 	H 	0.73680 0.57260 0.61280 0.16600
H 	H 	0.73190 0.49900 0.60070 0.20700
H 	H 	0.04020 0.42740 0.16420 0.15500
H 	H 	0.10170 0.50100 0.23290 0.22100
H 	H 	0.26320 0.87600 0.83580 0.16900
H 	H 	0.26810 0.86880 0.76710 0.20800
H 	H 	0.95980 0.12400 0.38720 0.13900
H 	H 	0.89830 0.13120 0.39930 0.16600
H 	H 	0.83580 0.95980 0.57260 0.16400
H 	H 	0.76710 0.89830 0.49900 0.19000
H 	H 	0.38720 0.26320 0.42740 0.14600
H 	H 	0.39930 0.26810 0.50100 0.19500
H 	H 	0.61280 0.04020 0.87600 0.17600
H 	H 	0.60070 0.10170 0.86880 0.23100
H 	H 	0.16420 0.73680 0.12400 0.14000
H 	H 	0.23290 0.73190 0.13120 0.18600
H 	H 	0.87600 0.61280 0.04020 0.18000
H 	H 	0.86880 0.60070 0.10170 0.23900
H 	H 	0.12400 0.16420 0.73680 0.14500
H 	H 	0.13120 0.23290 0.73190 0.18900
H 	H 	0.57260 0.83580 0.95980 0.15600
H 	H 	0.49900 0.76710 0.89830 0.17900
H 	H 	0.42740 0.38720 0.26320 0.14500
H 	H 	0.50100 0.39930 0.26810 0.19500
H 	H 	0.26320 0.42740 0.38720 0.14500
H 	H 	0.26810 0.50100 0.39930 0.19400
H 	H 	0.95980 0.57260 0.83580 0.16100
H 	H 	0.89830 0.49900 0.76710 0.18000
H 	H 	0.73680 0.12400 0.16420 0.14500
H 	H 	0.73190 0.13120 0.23290 0.19400
H 	H 	0.04020 0.87600 0.61280 0.17600
H 	H 	0.10170 0.86880 0.60070 0.23400
C 	C 	0.19231 0.05395 0.47704 -0.56100
C 	C 	0.14675 0.05449 0.51244 0.50800
C 	C 	0.57691 0.71527 0.52296 -0.50500
C 	C 	0.54205 0.63431 0.48756 0.50000
C 	C 	0.42309 0.94605 0.13836 -0.42900
C 	C 	0.45795 0.94551 0.09226 0.47500
C 	C 	0.80769 0.28473 0.86164 -0.49900
C 	C 	0.85325 0.36569 0.90774 0.49000
C 	C 	0.13836 0.42309 0.94605 -0.38700
C 	C 	0.09226 0.45795 0.94551 0.46600
C 	C 	0.86164 0.80769 0.28473 -0.49900
C 	C 	0.90774 0.85325 0.36569 0.49200
C 	C 	0.47704 0.19231 0.05395 -0.59800
C 	C 	0.51244 0.14675 0.05449 0.51400
C 	C 	0.52296 0.57691 0.71527 -0.50500
C 	C 	0.48756 0.54205 0.63431 0.50000
C 	C 	0.71527 0.52296 0.57691 -0.50600
C 	C 	0.63431 0.48756 0.54205 0.50000
C 	C 	0.05395 0.47704 0.19231 -0.59900
C 	C 	0.05449 0.51244 0.14675 0.51500
C 	C 	0.28473 0.86164 0.80769 -0.49700
C 	C 	0.36569 0.90774 0.85325 0.48900
C 	C 	0.94605 0.13836 0.42309 -0.39000
C 	C 	0.94551 0.09226 0.45795 0.46900
C 	C 	0.80769 0.94605 0.52296 -0.43900
C 	C 	0.85325 0.94551 0.48756 0.47700
C 	C 	0.42309 0.28473 0.47704 -0.49400
C 	C 	0.45795 0.36569 0.51244 0.49300
C 	C 	0.57691 0.05395 0.86164 -0.56700
C 	C 	0.54205 0.05449 0.90774 0.51100
C 	C 	0.19231 0.71527 0.13836 -0.49500
C 	C 	0.14675 0.63431 0.09226 0.49300
C 	C 	0.86164 0.57691 0.05395 -0.60200
C 	C 	0.90774 0.54205 0.05449 0.51600
C 	C 	0.13836 0.19231 0.71527 -0.49600
C 	C 	0.09226 0.14675 0.63431 0.49300
C 	C 	0.52296 0.80769 0.94605 -0.39800
C 	C 	0.48756 0.85325 0.94551 0.47200
C 	C 	0.47704 0.42309 0.28473 -0.49400
C 	C 	0.51244 0.45795 0.36569 0.49300
C 	C 	0.28473 0.47704 0.42309 -0.49400
C 	C 	0.36569 0.51244 0.45795 0.49300
C 	C 	0.94605 0.52296 0.80769 -0.39800
C 	C 	0.94551 0.48756 0.85325 0.46800
C 	C 	0.71527 0.13836 0.19231 -0.50000
C 	C 	0.63431 0.09226 0.14675 0.49800
C 	C 	0.05395 0.86164 0.57691 -0.60000
C 	C 	0.05449 0.90774 0.54205 0.51500
O 	O 	0.25362 0.00538 0.55628 -0.23700
O 	O 	0.16244 0.91542 0.42492 -0.19000
O 	O 	0.27788 0.00029 0.45443 -0.24900
O 	O 	0.17569 0.07708 0.57841 -0.28200
O 	O 	0.08110 0.03178 0.47410 -0.61100
O 	O 	0.44910 0.69734 0.44372 -0.18800
O 	O 	0.49050 0.73752 0.57508 -0.18100
O 	O 	0.54586 0.82345 0.54557 -0.18700
O 	O 	0.49867 0.59728 0.42159 -0.27000
O 	O 	0.55768 0.60700 0.52590 -0.57000
O 	O 	0.55090 0.99462 0.24824 -0.14000
O 	O 	0.50950 0.08458 0.24702 -0.18600
O 	O 	0.45414 0.99971 0.27759 -0.13900
O 	O 	0.50133 0.92292 0.09861 -0.27300
O 	O 	0.44232 0.96822 0.04932 -0.56100
O 	O 	0.74638 0.30266 0.75176 -0.18700
O 	O 	0.83756 0.26248 0.75298 -0.17400
O 	O 	0.72212 0.17655 0.72241 -0.19000
O 	O 	0.82431 0.40272 0.90139 -0.24000
O 	O 	0.91890 0.39300 0.95068 -0.48400
O 	O 	0.24824 0.55090 0.99462 -0.10600
O 	O 	0.24702 0.50950 0.08458 -0.18600
O 	O 	0.27759 0.45414 0.99971 -0.10200
O 	O 	0.09861 0.50133 0.92292 -0.26200
O 	O 	0.04932 0.44232 0.96822 -0.53800
O 	O 	0.75176 0.74638 0.30266 -0.18700
O 	O 	0.75298 0.83756 0.26248 -0.17800
O 	O 	0.72241 0.72212 0.17655 -0.19200
O 	O 	0.90139 0.82431 0.40272 -0.24300
O 	O 	0.95068 0.91890 0.39300 -0.50200
O 	O 	0.55628 0.25362 0.00538 -0.26700
O 	O 	0.42492 0.16244 0.91542 -0.18700
O 	O 	0.45443 0.27788 0.00029 -0.28300
O 	O 	0.57841 0.17569 0.07708 -0.28900
O 	O 	0.47410 0.08110 0.03178 -0.61300
O 	O 	0.44372 0.44910 0.69734 -0.18700
O 	O 	0.57508 0.49050 0.73752 -0.18000
O 	O 	0.54557 0.54586 0.82345 -0.18600
O 	O 	0.42159 0.49867 0.59728 -0.27000
O 	O 	0.52590 0.55768 0.60700 -0.57000
O 	O 	0.69734 0.44372 0.44910 -0.18700
O 	O 	0.73752 0.57508 0.49050 -0.18000
O 	O 	0.82345 0.54557 0.54586 -0.18600
O 	O 	0.59728 0.42159 0.49867 -0.27000
O 	O 	0.60700 0.52590 0.55768 -0.57000
O 	O 	0.00538 0.55628 0.25362 -0.26800
O 	O 	0.91542 0.42492 0.16244 -0.18900
O 	O 	0.00029 0.45443 0.27788 -0.28400
O 	O 	0.07708 0.57841 0.17569 -0.29000
O 	O 	0.03178 0.47410 0.08110 -0.62100
O 	O 	0.30266 0.75176 0.74638 -0.18700
O 	O 	0.26248 0.75298 0.83756 -0.17600
O 	O 	0.17655 0.72241 0.72212 -0.19200
O 	O 	0.40272 0.90139 0.82431 -0.24900
O 	O 	0.39300 0.95068 0.91890 -0.50100
O 	O 	0.99462 0.24824 0.55090 -0.10600
O 	O 	0.08458 0.24702 0.50950 -0.18600
O 	O 	0.99971 0.27759 0.45414 -0.10200
O 	O 	0.92292 0.09861 0.50133 -0.25400
O 	O 	0.96822 0.04932 0.44232 -0.52900
O 	O 	0.74638 0.99462 0.44372 -0.14100
O 	O 	0.83756 0.08458 0.57508 -0.17500
O 	O 	0.72212 0.99971 0.54557 -0.13600
O 	O 	0.82431 0.92292 0.42159 -0.25000
O 	O 	0.91890 0.96822 0.52590 -0.49700
O 	O 	0.55090 0.30266 0.55628 -0.18700
O 	O 	0.50950 0.26248 0.42492 -0.18700
O 	O 	0.45414 0.17655 0.45443 -0.19500
O 	O 	0.50133 0.40272 0.57841 -0.26800
O 	O 	0.44232 0.39300 0.47410 -0.57300
O 	O 	0.44910 0.00538 0.75176 -0.23500
O 	O 	0.49050 0.91542 0.75298 -0.18000
O 	O 	0.54586 0.00029 0.72241 -0.24200
O 	O 	0.49867 0.07708 0.90139 -0.25800
O 	O 	0.55768 0.03178 0.95068 -0.55100
O 	O 	0.25362 0.69734 0.24824 -0.18800
O 	O 	0.16244 0.73752 0.24702 -0.19000
O 	O 	0.27788 0.82345 0.27759 -0.19200
O 	O 	0.17569 0.59728 0.09861 -0.29000
O 	O 	0.08110 0.60700 0.04932 -0.61300
O 	O 	0.75176 0.44910 0.00538 -0.26500
O 	O 	0.75298 0.49050 0.91542 -0.17900
O 	O 	0.72241 0.54586 0.00029 -0.27700
O 	O 	0.90139 0.49867 0.07708 -0.26500
O 	O 	0.95068 0.55768 0.03178 -0.55400
O 	O 	0.24824 0.25362 0.69734 -0.18800
O 	O 	0.24702 0.16244 0.73752 -0.18700
O 	O 	0.27759 0.27788 0.82345 -0.19000
O 	O 	0.09861 0.17569 0.59728 -0.28900
O 	O 	0.04932 0.08110 0.60700 -0.60500
O 	O 	0.44372 0.74638 0.99462 -0.10700
O 	O 	0.57508 0.83756 0.08458 -0.17900
O 	O 	0.54557 0.72212 0.99971 -0.09900
O 	O 	0.42159 0.82431 0.92292 -0.24200
O 	O 	0.52590 0.91890 0.96822 -0.50000
O 	O 	0.55628 0.55090 0.30266 -0.18800
O 	O 	0.42492 0.50950 0.26248 -0.18700
O 	O 	0.45443 0.45414 0.17655 -0.19700
O 	O 	0.57841 0.50133 0.40272 -0.26800
O 	O 	0.47410 0.44232 0.39300 -0.57300
O 	O 	0.30266 0.55628 0.55090 -0.18800
O 	O 	0.26248 0.42492 0.50950 -0.18700
O 	O 	0.17655 0.45443 0.45414 -0.19700
O 	O 	0.40272 0.57841 0.50133 -0.26800
O 	O 	0.39300 0.47410 0.44232 -0.57300
O 	O 	0.99462 0.44372 0.74638 -0.11000
O 	O 	0.08458 0.57508 0.83756 -0.17500
O 	O 	0.99971 0.54557 0.72212 -0.10200
O 	O 	0.92292 0.42159 0.82431 -0.24000
O 	O 	0.96822 0.52590 0.91890 -0.47600
O 	O 	0.69734 0.24824 0.25362 -0.18700
O 	O 	0.73752 0.24702 0.16244 -0.19000
O 	O 	0.82345 0.27759 0.27788 -0.19000
O 	O 	0.59728 0.09861 0.17569 -0.28200
O 	O 	0.60700 0.04932 0.08110 -0.61100
O 	O 	0.00538 0.75176 0.44910 -0.26400
O 	O 	0.91542 0.75298 0.49050 -0.18000
O 	O 	0.00029 0.72241 0.54586 -0.27600
O 	O 	0.07708 0.90139 0.49867 -0.27300
O 	O 	0.03178 0.95068 0.55768 -0.57000
O 	O 	0.28239 0.86297 0.41942 -0.25300
O 	O 	0.40122 0.04882 0.35240 -0.09600
O 	O 	0.13282 0.78527 0.34755 -0.06400
O 	O 	0.44355 0.86297 0.58058 -0.25400
O 	O 	0.69642 0.04882 0.64760 -0.08500
O 	O 	0.43772 0.78527 0.65245 -0.05400
O 	O 	0.55645 0.13703 0.41942 -0.27300
O 	O 	0.30358 0.95118 0.35240 -0.04000
O 	O 	0.56228 0.21473 0.34755 -0.06300
O 	O 	0.71761 0.13703 0.58058 -0.27400
O 	O 	0.59878 0.95118 0.64760 -0.03200
O 	O 	0.86718 0.21473 0.65245 -0.05200
O 	O 	0.41942 0.55645 0.13703 -0.28000
O 	O 	0.35240 0.30358 0.95118 -0.02100
O 	O 	0.34755 0.56228 0.21473 -0.06500
O 	O 	0.58058 0.71761 0.13703 -0.28000
O 	O 	0.64760 0.59878 0.95118 -0.01400
O 	O 	0.65245 0.86718 0.21473 -0.05800
O 	O 	0.41942 0.28239 0.86297 -0.24700
O 	O 	0.35240 0.40122 0.04882 -0.11300
O 	O 	0.34755 0.13282 0.78527 -0.05900
O 	O 	0.58058 0.44355 0.86297 -0.24800
O 	O 	0.64760 0.69642 0.04882 -0.10500
O 	O 	0.65245 0.43772 0.78527 -0.05200
O 	O 	0.86297 0.58058 0.44355 -0.24800
O 	O 	0.04882 0.64760 0.69642 -0.10300
O 	O 	0.78527 0.65245 0.43772 -0.05300
O 	O 	0.86297 0.41942 0.28239 -0.24700
O 	O 	0.04882 0.35240 0.40122 -0.11300
O 	O 	0.78527 0.34755 0.13282 -0.06200
O 	O 	0.13703 0.58058 0.71761 -0.28000
O 	O 	0.95118 0.64760 0.59878 -0.01600
O 	O 	0.21473 0.65245 0.86718 -0.05500
O 	O 	0.13703 0.41942 0.55645 -0.27900
O 	O 	0.95118 0.35240 0.30358 -0.02100
O 	O 	0.21473 0.34755 0.56228 -0.06500
O 	O 	0.36040 0.04850 0.68810 -0.08200
O 	O 	0.36040 0.67230 0.31190 -0.07400
O 	O 	0.63960 0.95150 0.31190 -0.06400
O 	O 	0.63960 0.32770 0.68810 -0.07200
O 	O 	0.31190 0.63960 0.95150 -0.05700
O 	O 	0.68810 0.63960 0.32770 -0.07300
O 	O 	0.68810 0.36040 0.04850 -0.08800
O 	O 	0.31190 0.36040 0.67230 -0.07400
O 	O 	0.67230 0.31190 0.36040 -0.07300
O 	O 	0.04850 0.68810 0.36040 -0.08900
O 	O 	0.32770 0.68810 0.63960 -0.07300
O 	O 	0.95150 0.31190 0.63960 -0.05700
