data_crystal

_cell_length_a 24.31760
_cell_length_b 23.98690
_cell_length_c 31.16600
_cell_angle_alpha 90.00000
_cell_angle_beta  104.71000
_cell_angle_gamma 90.00000

_symmetry_space_group_name_	'P 1'
_symmetry_space_group_name_H-M	'P 1'

loop_
_symmetry_equiv_pos_as_xyz
  x,y,z

loop_
_atom_site_label
_atom_site_type_symbol
_atom_site_fract_x
_atom_site_fract_y
_atom_site_fract_z
_atom_site_charge
C 	C 	0.37760 0.61030 0.52640 0.41000
C 	C 	0.37800 0.60640 0.47930 -0.16300
C 	C 	0.34380 0.64100 0.44870 0.09000
C 	C 	0.34170 0.63570 0.40290 0.02500
C 	C 	0.37660 0.59500 0.38880 0.06900
C 	C 	0.41040 0.56040 0.42150 -0.12800
C 	C 	0.41210 0.56690 0.46650 0.11900
C 	C 	0.44620 0.51690 0.40730 0.36800
C 	C 	0.29620 0.67880 0.32940 0.19100
C 	C 	0.24780 0.72270 0.26830 0.19500
C 	C 	0.31790 0.66370 0.26550 0.19500
C 	C 	0.17420 0.79670 0.25910 0.02800
C 	C 	0.13730 0.82830 0.22230 0.08200
C 	C 	0.09760 0.86440 0.23060 -0.15700
C 	C 	0.09310 0.87270 0.27560 0.10100
C 	C 	0.12660 0.84100 0.30880 -0.16300
C 	C 	0.16730 0.80290 0.30280 0.08000
C 	C 	0.11860 0.84730 0.35420 0.44800
C 	C 	0.06140 0.89520 0.19470 0.38700
C 	C 	0.34550 0.62770 0.19740 0.02800
C 	C 	0.37470 0.58350 0.18560 0.04100
C 	C 	0.38140 0.57960 0.14320 -0.14200
C 	C 	0.35770 0.61970 0.11270 0.14900
C 	C 	0.32400 0.65740 0.12160 -0.15400
C 	C 	0.31830 0.66400 0.16690 0.06900
C 	C 	0.31170 0.71050 0.09720 0.25100
C 	C 	0.41450 0.52920 0.13350 0.38700
N 	N 	0.32800 0.64900 0.30750 -0.15100
N 	N 	0.27840 0.69930 0.24320 -0.14800
N 	N 	0.25700 0.71830 0.31240 -0.14500
N 	N 	0.34250 0.62620 0.24160 -0.11800
N 	N 	0.21540 0.76650 0.24630 -0.11000
N 	N 	0.30510 0.67450 0.37450 -0.10800
O 	O 	0.34890 0.65080 0.53630 -0.22200
O 	O 	0.29930 0.76800 0.10510 -0.10500
O 	O 	0.40070 0.57530 0.55307 -0.44500
O 	O 	0.47350 0.48330 0.43496 -0.41900
O 	O 	0.44840 0.51510 0.36770 -0.40400
O 	O 	0.15510 0.83070 0.38570 -0.24900
O 	O 	0.07360 0.86790 0.35820 -0.47200
O 	O 	0.02630 0.93040 0.20071 -0.45900
O 	O 	0.06570 0.88580 0.15580 -0.42600
O 	O 	0.42560 0.52780 0.09660 -0.38300
O 	O 	0.43110 0.49390 0.16130 -0.47100
Eu	Eu	0.48002 0.56141 0.61730 1.95800
O 	O 	0.34160 0.71880 0.06700 -0.11300
C 	C 	0.27080 0.67230 0.08650 0.16500
O 	O 	0.23760 0.71550 0.08980 -0.12400
O 	O 	0.26630 0.74060 0.09710 -0.02800
O 	O 	0.29040 0.68730 0.05300 -0.14600
C 	C 	0.87760 0.11030 0.52640 0.41100
C 	C 	0.87800 0.10640 0.47930 -0.16400
C 	C 	0.84380 0.14100 0.44870 0.09100
C 	C 	0.84170 0.13570 0.40290 0.02500
C 	C 	0.87660 0.09500 0.38880 0.07000
C 	C 	0.91040 0.06040 0.42150 -0.12700
C 	C 	0.91210 0.06690 0.46650 0.12200
C 	C 	0.94620 0.01690 0.40730 0.36800
C 	C 	0.79620 0.17880 0.32940 0.19200
C 	C 	0.74780 0.22270 0.26830 0.19600
C 	C 	0.81790 0.16370 0.26550 0.19600
C 	C 	0.67420 0.29670 0.25910 0.02900
C 	C 	0.63730 0.32830 0.22230 0.08400
C 	C 	0.59760 0.36440 0.23060 -0.15600
C 	C 	0.59310 0.37270 0.27560 0.10300
C 	C 	0.62660 0.34100 0.30880 -0.16300
C 	C 	0.66730 0.30290 0.30280 0.08200
C 	C 	0.61860 0.34730 0.35420 0.45000
C 	C 	0.56140 0.39520 0.19470 0.38600
C 	C 	0.84550 0.12770 0.19740 0.02800
C 	C 	0.87470 0.08350 0.18560 0.04400
C 	C 	0.88140 0.07960 0.14320 -0.14100
C 	C 	0.85770 0.11970 0.11270 0.15100
C 	C 	0.82400 0.15740 0.12160 -0.15400
C 	C 	0.81830 0.16400 0.16690 0.07100
C 	C 	0.81170 0.21050 0.09720 0.25100
C 	C 	0.91450 0.02920 0.13350 0.38800
N 	N 	0.82800 0.14900 0.30750 -0.15100
N 	N 	0.77840 0.19930 0.24320 -0.14700
N 	N 	0.75700 0.21830 0.31240 -0.14500
N 	N 	0.84250 0.12620 0.24160 -0.11700
N 	N 	0.71540 0.26650 0.24630 -0.10900
N 	N 	0.80510 0.17450 0.37450 -0.10700
O 	O 	0.84890 0.15080 0.53630 -0.22200
O 	O 	0.79930 0.26800 0.10510 -0.10300
O 	O 	0.90070 0.07530 0.55307 -0.44600
O 	O 	0.97350 0.98330 0.43496 -0.41000
O 	O 	0.94840 0.01510 0.36770 -0.39700
O 	O 	0.65510 0.33070 0.38570 -0.24900
O 	O 	0.57360 0.36790 0.35820 -0.47200
O 	O 	0.52630 0.43040 0.20071 -0.45100
O 	O 	0.56570 0.38580 0.15580 -0.41900
O 	O 	0.92560 0.02780 0.09660 -0.38200
O 	O 	0.93110 0.99390 0.16130 -0.47100
Eu	Eu	0.98002 0.06141 0.61730 1.98600
O 	O 	0.84160 0.21880 0.06700 -0.11100
C 	C 	0.77080 0.17230 0.08650 0.16600
O 	O 	0.73760 0.21550 0.08980 -0.12300
O 	O 	0.76630 0.24060 0.09710 -0.02900
O 	O 	0.79040 0.18730 0.05300 -0.14500
C 	C 	0.62240 0.61030 0.97360 0.40900
C 	C 	0.62200 0.60640 0.02070 -0.16300
C 	C 	0.65620 0.64100 0.05130 0.09000
C 	C 	0.65830 0.63570 0.09710 0.02500
C 	C 	0.62340 0.59500 0.11120 0.06900
C 	C 	0.58960 0.56040 0.07850 -0.12800
C 	C 	0.58790 0.56690 0.03350 0.11900
C 	C 	0.55380 0.51690 0.09270 0.36800
C 	C 	0.70380 0.67880 0.17060 0.19200
C 	C 	0.75220 0.72270 0.23170 0.19600
C 	C 	0.68210 0.66370 0.23450 0.19500
C 	C 	0.82580 0.79670 0.24090 0.02900
C 	C 	0.86270 0.82830 0.27770 0.08500
C 	C 	0.90240 0.86440 0.26940 -0.15400
C 	C 	0.90690 0.87270 0.22440 0.10600
C 	C 	0.87340 0.84100 0.19120 -0.16400
C 	C 	0.83270 0.80290 0.19720 0.08200
C 	C 	0.88140 0.84730 0.14580 0.45100
C 	C 	0.93860 0.89520 0.30530 0.38500
C 	C 	0.65450 0.62770 0.30260 0.02800
C 	C 	0.62530 0.58350 0.31440 0.04200
C 	C 	0.61860 0.57960 0.35680 -0.14200
C 	C 	0.64230 0.61970 0.38730 0.15000
C 	C 	0.67600 0.65740 0.37840 -0.15400
C 	C 	0.68170 0.66400 0.33310 0.07000
C 	C 	0.68830 0.71050 0.40280 0.25000
C 	C 	0.58550 0.52920 0.36650 0.38700
N 	N 	0.67200 0.64900 0.19250 -0.15100
N 	N 	0.72160 0.69930 0.25680 -0.14700
N 	N 	0.74300 0.71830 0.18760 -0.14500
N 	N 	0.65750 0.62620 0.25840 -0.11800
N 	N 	0.78460 0.76650 0.25370 -0.10900
N 	N 	0.69490 0.67450 0.12550 -0.10700
O 	O 	0.65110 0.65080 0.96370 -0.22200
O 	O 	0.70070 0.76800 0.39490 -0.10400
O 	O 	0.59930 0.57530 0.94693 -0.44500
O 	O 	0.52650 0.48330 0.06504 -0.41900
O 	O 	0.55160 0.51510 0.13230 -0.40400
O 	O 	0.84490 0.83070 0.11430 -0.24900
O 	O 	0.92640 0.86790 0.14180 -0.47200
O 	O 	0.97370 0.93040 0.29929 -0.44300
O 	O 	0.93430 0.88580 0.34420 -0.41300
O 	O 	0.57440 0.52780 0.40340 -0.38300
O 	O 	0.56890 0.49390 0.33870 -0.47100
Eu	Eu	0.51998 0.56141 0.88270 1.95800
O 	O 	0.65840 0.71880 0.43300 -0.11300
C 	C 	0.72920 0.67230 0.41350 0.16700
O 	O 	0.76240 0.71550 0.41020 -0.12200
O 	O 	0.73370 0.74060 0.40290 -0.02900
O 	O 	0.70960 0.68730 0.44700 -0.14500
C 	C 	0.12240 0.11030 0.97360 0.40600
C 	C 	0.12200 0.10640 0.02070 -0.16200
C 	C 	0.15620 0.14100 0.05130 0.08800
C 	C 	0.15830 0.13570 0.09710 0.02400
C 	C 	0.12340 0.09500 0.11120 0.06800
C 	C 	0.08960 0.06040 0.07850 -0.12900
C 	C 	0.08790 0.06690 0.03350 0.11700
C 	C 	0.05380 0.01690 0.09270 0.36900
C 	C 	0.20380 0.17880 0.17060 0.19100
C 	C 	0.25220 0.22270 0.23170 0.19500
C 	C 	0.18210 0.16370 0.23450 0.19400
C 	C 	0.32580 0.29670 0.24090 0.02800
C 	C 	0.36270 0.32830 0.27770 0.08300
C 	C 	0.40240 0.36440 0.26940 -0.15600
C 	C 	0.40690 0.37270 0.22440 0.10300
C 	C 	0.37340 0.34100 0.19120 -0.16400
C 	C 	0.33270 0.30290 0.19720 0.08100
C 	C 	0.38140 0.34730 0.14580 0.45000
C 	C 	0.43860 0.39520 0.30530 0.38600
C 	C 	0.15450 0.12770 0.30260 0.02800
C 	C 	0.12530 0.08350 0.31440 0.04000
C 	C 	0.11860 0.07960 0.35680 -0.14200
C 	C 	0.14230 0.11970 0.38730 0.14800
C 	C 	0.17600 0.15740 0.37840 -0.15400
C 	C 	0.18170 0.16400 0.33310 0.06900
C 	C 	0.18830 0.21050 0.40280 0.25000
C 	C 	0.08550 0.02920 0.36650 0.38700
N 	N 	0.17200 0.14900 0.19250 -0.15200
N 	N 	0.22160 0.19930 0.25680 -0.14700
N 	N 	0.24300 0.21830 0.18760 -0.14500
N 	N 	0.15750 0.12620 0.25840 -0.11900
N 	N 	0.28460 0.26650 0.25370 -0.11000
N 	N 	0.19490 0.17450 0.12550 -0.10800
O 	O 	0.15110 0.15080 0.96370 -0.22200
O 	O 	0.20070 0.26800 0.39490 -0.10600
O 	O 	0.09930 0.07530 0.94693 -0.44300
O 	O 	0.02650 0.98330 0.06504 -0.42700
O 	O 	0.05160 0.01510 0.13230 -0.41000
O 	O 	0.34490 0.33070 0.11430 -0.25000
O 	O 	0.42640 0.36790 0.14180 -0.47200
O 	O 	0.47370 0.43040 0.29929 -0.45200
O 	O 	0.43430 0.38580 0.34420 -0.42000
O 	O 	0.07440 0.02780 0.40340 -0.38400
O 	O 	0.06890 0.99390 0.33870 -0.47200
Eu	Eu	0.01998 0.06141 0.88270 1.93100
O 	O 	0.15840 0.21880 0.43300 -0.11500
C 	C 	0.22920 0.17230 0.41350 0.16600
O 	O 	0.26240 0.21550 0.41020 -0.12400
O 	O 	0.23370 0.24060 0.40290 -0.02700
O 	O 	0.20960 0.18730 0.44700 -0.14600
C 	C 	0.62240 0.38970 0.47360 0.40900
C 	C 	0.62200 0.39360 0.52070 -0.16400
C 	C 	0.65620 0.35900 0.55130 0.09000
C 	C 	0.65830 0.36430 0.59710 0.02500
C 	C 	0.62340 0.40500 0.61120 0.06900
C 	C 	0.58960 0.43960 0.57850 -0.12800
C 	C 	0.58790 0.43310 0.53350 0.11900
C 	C 	0.55380 0.48310 0.59270 0.36800
C 	C 	0.70380 0.32120 0.67060 0.19200
C 	C 	0.75220 0.27730 0.73170 0.19600
C 	C 	0.68210 0.33630 0.73450 0.19500
C 	C 	0.82580 0.20330 0.74090 0.02900
C 	C 	0.86270 0.17170 0.77770 0.08500
C 	C 	0.90240 0.13560 0.76940 -0.15400
C 	C 	0.90690 0.12730 0.72440 0.10600
C 	C 	0.87340 0.15900 0.69120 -0.16400
C 	C 	0.83270 0.19710 0.69720 0.08200
C 	C 	0.88140 0.15270 0.64580 0.45100
C 	C 	0.93860 0.10480 0.80530 0.38500
C 	C 	0.65450 0.37230 0.80260 0.02800
C 	C 	0.62530 0.41650 0.81440 0.04200
C 	C 	0.61860 0.42040 0.85680 -0.14200
C 	C 	0.64230 0.38030 0.88730 0.15000
C 	C 	0.67600 0.34260 0.87840 -0.15400
C 	C 	0.68170 0.33600 0.83310 0.07000
C 	C 	0.68830 0.28950 0.90280 0.25000
C 	C 	0.58550 0.47080 0.86650 0.38700
N 	N 	0.67200 0.35100 0.69250 -0.15100
N 	N 	0.72160 0.30070 0.75680 -0.14700
N 	N 	0.74300 0.28170 0.68760 -0.14500
N 	N 	0.65750 0.37380 0.75840 -0.11800
N 	N 	0.78460 0.23350 0.75370 -0.10900
N 	N 	0.69490 0.32550 0.62550 -0.10700
O 	O 	0.65110 0.34920 0.46370 -0.22200
O 	O 	0.70070 0.23200 0.89490 -0.10400
O 	O 	0.59930 0.42470 0.44693 -0.44500
O 	O 	0.52650 0.51670 0.56504 -0.41900
O 	O 	0.55160 0.48490 0.63230 -0.40400
O 	O 	0.84490 0.16930 0.61430 -0.24900
O 	O 	0.92640 0.13210 0.64180 -0.47200
O 	O 	0.97370 0.06960 0.79929 -0.44200
O 	O 	0.93430 0.11420 0.84420 -0.41300
O 	O 	0.57440 0.47220 0.90340 -0.38300
O 	O 	0.56890 0.50610 0.83870 -0.47100
Eu	Eu	0.51998 0.43859 0.38270 1.95800
O 	O 	0.65840 0.28120 0.93300 -0.11300
C 	C 	0.72920 0.32770 0.91350 0.16700
O 	O 	0.76240 0.28450 0.91020 -0.12200
O 	O 	0.73370 0.25940 0.90290 -0.02900
O 	O 	0.70960 0.31270 0.94700 -0.14500
C 	C 	0.12240 0.88970 0.47360 0.40700
C 	C 	0.12200 0.89360 0.52070 -0.16300
C 	C 	0.15620 0.85900 0.55130 0.08800
C 	C 	0.15830 0.86430 0.59710 0.02400
C 	C 	0.12340 0.90500 0.61120 0.06800
C 	C 	0.08960 0.93960 0.57850 -0.12900
C 	C 	0.08790 0.93310 0.53350 0.11600
C 	C 	0.05380 0.98310 0.59270 0.36900
C 	C 	0.20380 0.82120 0.67060 0.19100
C 	C 	0.25220 0.77730 0.73170 0.19500
C 	C 	0.18210 0.83630 0.73450 0.19400
C 	C 	0.32580 0.70330 0.74090 0.02800
C 	C 	0.36270 0.67170 0.77770 0.08300
C 	C 	0.40240 0.63560 0.76940 -0.15600
C 	C 	0.40690 0.62730 0.72440 0.10300
C 	C 	0.37340 0.65900 0.69120 -0.16400
C 	C 	0.33270 0.69710 0.69720 0.08100
C 	C 	0.38140 0.65270 0.64580 0.45000
C 	C 	0.43860 0.60480 0.80530 0.38600
C 	C 	0.15450 0.87230 0.80260 0.02800
C 	C 	0.12530 0.91650 0.81440 0.04000
C 	C 	0.11860 0.92040 0.85680 -0.14200
C 	C 	0.14230 0.88030 0.88730 0.14800
C 	C 	0.17600 0.84260 0.87840 -0.15400
C 	C 	0.18170 0.83600 0.83310 0.06900
C 	C 	0.18830 0.78950 0.90280 0.25000
C 	C 	0.08550 0.97080 0.86650 0.38700
N 	N 	0.17200 0.85100 0.69250 -0.15200
N 	N 	0.22160 0.80070 0.75680 -0.14800
N 	N 	0.24300 0.78170 0.68760 -0.14500
N 	N 	0.15750 0.87380 0.75840 -0.11900
N 	N 	0.28460 0.73350 0.75370 -0.11000
N 	N 	0.19490 0.82550 0.62550 -0.10800
O 	O 	0.15110 0.84920 0.46370 -0.22200
O 	O 	0.20070 0.73200 0.89490 -0.10600
O 	O 	0.09930 0.92470 0.44693 -0.44300
O 	O 	0.02650 0.01670 0.56504 -0.42700
O 	O 	0.05160 0.98490 0.63230 -0.41000
O 	O 	0.34490 0.66930 0.61430 -0.25000
O 	O 	0.42640 0.63210 0.64180 -0.47200
O 	O 	0.47370 0.56960 0.79929 -0.45200
O 	O 	0.43430 0.61420 0.84420 -0.42000
O 	O 	0.07440 0.97220 0.90340 -0.38400
O 	O 	0.06890 0.00610 0.83870 -0.47200
Eu	Eu	0.01998 0.93859 0.38270 1.93200
O 	O 	0.15840 0.78120 0.93300 -0.11500
C 	C 	0.22920 0.82770 0.91350 0.16600
O 	O 	0.26240 0.78450 0.91020 -0.12400
O 	O 	0.23370 0.75940 0.90290 -0.02700
O 	O 	0.20960 0.81270 0.94700 -0.14600
C 	C 	0.37760 0.38970 0.02640 0.40900
C 	C 	0.37800 0.39360 0.97930 -0.16400
C 	C 	0.34380 0.35900 0.94870 0.08900
C 	C 	0.34170 0.36430 0.90290 0.02400
C 	C 	0.37660 0.40500 0.88880 0.06900
C 	C 	0.41040 0.43960 0.92150 -0.12800
C 	C 	0.41210 0.43310 0.96650 0.11900
C 	C 	0.44620 0.48310 0.90730 0.36800
C 	C 	0.29620 0.32120 0.82940 0.19100
C 	C 	0.24780 0.27730 0.76830 0.19500
C 	C 	0.31790 0.33630 0.76550 0.19500
C 	C 	0.17420 0.20330 0.75910 0.02800
C 	C 	0.13730 0.17170 0.72230 0.08200
C 	C 	0.09760 0.13560 0.73060 -0.15700
C 	C 	0.09310 0.12730 0.77560 0.10100
C 	C 	0.12660 0.15900 0.80880 -0.16300
C 	C 	0.16730 0.19710 0.80280 0.08000
C 	C 	0.11860 0.15270 0.85420 0.44800
C 	C 	0.06140 0.10480 0.69470 0.38700
C 	C 	0.34550 0.37230 0.69740 0.02800
C 	C 	0.37470 0.41650 0.68560 0.04100
C 	C 	0.38140 0.42040 0.64320 -0.14200
C 	C 	0.35770 0.38030 0.61270 0.14900
C 	C 	0.32400 0.34260 0.62160 -0.15400
C 	C 	0.31830 0.33600 0.66690 0.06900
C 	C 	0.31170 0.28950 0.59720 0.25100
C 	C 	0.41450 0.47080 0.63350 0.38700
N 	N 	0.32800 0.35100 0.80750 -0.15100
N 	N 	0.27840 0.30070 0.74320 -0.14800
N 	N 	0.25700 0.28170 0.81240 -0.14500
N 	N 	0.34250 0.37380 0.74160 -0.11800
N 	N 	0.21540 0.23350 0.74630 -0.11000
N 	N 	0.30510 0.32550 0.87450 -0.10800
O 	O 	0.34890 0.34920 0.03630 -0.22200
O 	O 	0.29930 0.23200 0.60510 -0.10500
O 	O 	0.40070 0.42470 0.05307 -0.44500
O 	O 	0.47350 0.51670 0.93496 -0.41900
O 	O 	0.44840 0.48490 0.86770 -0.40400
O 	O 	0.15510 0.16930 0.88570 -0.25000
O 	O 	0.07360 0.13210 0.85820 -0.47200
O 	O 	0.02630 0.06960 0.70071 -0.46000
O 	O 	0.06570 0.11420 0.65580 -0.42600
O 	O 	0.42560 0.47220 0.59660 -0.38300
O 	O 	0.43110 0.50610 0.66130 -0.47100
Eu	Eu	0.48002 0.43859 0.11730 1.95800
O 	O 	0.34160 0.28120 0.56700 -0.11300
C 	C 	0.27080 0.32770 0.58650 0.16500
O 	O 	0.23760 0.28450 0.58980 -0.12500
O 	O 	0.26630 0.25940 0.59710 -0.02800
O 	O 	0.29040 0.31270 0.55300 -0.14600
C 	C 	0.87760 0.88970 0.02640 0.41000
C 	C 	0.87800 0.89360 0.97930 -0.16400
C 	C 	0.84380 0.85900 0.94870 0.09100
C 	C 	0.84170 0.86430 0.90290 0.02500
C 	C 	0.87660 0.90500 0.88880 0.07100
C 	C 	0.91040 0.93960 0.92150 -0.12700
C 	C 	0.91210 0.93310 0.96650 0.12200
C 	C 	0.94620 0.98310 0.90730 0.36800
C 	C 	0.79620 0.82120 0.82940 0.19200
C 	C 	0.74780 0.77730 0.76830 0.19600
C 	C 	0.81790 0.83630 0.76550 0.19600
C 	C 	0.67420 0.70330 0.75910 0.02900
C 	C 	0.63730 0.67170 0.72230 0.08400
C 	C 	0.59760 0.63560 0.73060 -0.15600
C 	C 	0.59310 0.62730 0.77560 0.10300
C 	C 	0.62660 0.65900 0.80880 -0.16300
C 	C 	0.66730 0.69710 0.80280 0.08200
C 	C 	0.61860 0.65270 0.85420 0.45000
C 	C 	0.56140 0.60480 0.69470 0.38600
C 	C 	0.84550 0.87230 0.69740 0.02900
C 	C 	0.87470 0.91650 0.68560 0.04400
C 	C 	0.88140 0.92040 0.64320 -0.14100
C 	C 	0.85770 0.88030 0.61270 0.15100
C 	C 	0.82400 0.84260 0.62160 -0.15400
C 	C 	0.81830 0.83600 0.66690 0.07100
C 	C 	0.81170 0.78950 0.59720 0.25100
C 	C 	0.91450 0.97080 0.63350 0.38800
N 	N 	0.82800 0.85100 0.80750 -0.15100
N 	N 	0.77840 0.80070 0.74320 -0.14700
N 	N 	0.75700 0.78170 0.81240 -0.14500
N 	N 	0.84250 0.87380 0.74160 -0.11700
N 	N 	0.71540 0.73350 0.74630 -0.10900
N 	N 	0.80510 0.82550 0.87450 -0.10700
O 	O 	0.84890 0.84920 0.03630 -0.22200
O 	O 	0.79930 0.73200 0.60510 -0.10300
O 	O 	0.90070 0.92470 0.05307 -0.44600
O 	O 	0.97350 0.01670 0.93496 -0.41000
O 	O 	0.94840 0.98490 0.86770 -0.39700
O 	O 	0.65510 0.66930 0.88570 -0.24900
O 	O 	0.57360 0.63210 0.85820 -0.47200
O 	O 	0.52630 0.56960 0.70071 -0.45100
O 	O 	0.56570 0.61420 0.65580 -0.41900
O 	O 	0.92560 0.97220 0.59660 -0.38100
O 	O 	0.93110 0.00610 0.66130 -0.47000
Eu	Eu	0.98002 0.93859 0.11730 1.98500
O 	O 	0.84160 0.78120 0.56700 -0.11100
C 	C 	0.77080 0.82770 0.58650 0.16600
O 	O 	0.73760 0.78450 0.58980 -0.12300
O 	O 	0.76630 0.75940 0.59710 -0.02900
O 	O 	0.79040 0.81270 0.55300 -0.14500
Na	Na	0.00000 0.99540 0.25000 0.57900
Na	Na	0.50000 0.49540 0.25000 0.58100
Na	Na	-0.00000 0.00460 0.75000 0.57900
Na	Na	0.50000 0.50460 0.75000 0.58100
