data_crystal

_cell_length_a 8.21520
_cell_length_b 8.93870
_cell_length_c 12.39610
_cell_angle_alpha 109.84600
_cell_angle_beta  92.65100
_cell_angle_gamma 106.72500

_symmetry_space_group_name_	'P 1'
_symmetry_space_group_name_H-M	'P 1'

loop_
_symmetry_equiv_pos_as_xyz
  x,y,z

loop_
_atom_site_label
_atom_site_type_symbol
_atom_site_fract_x
_atom_site_fract_y
_atom_site_fract_z
_atom_site_charge
Co	Co	0.03208 0.05585 0.17923 1.09100
Co	Co	0.96792 0.94415 0.82077 1.09100
Co	Co	0.50000 0.50000 0.50000 1.18300
H 	H 	0.97100 0.22400 0.44900 0.04000
H 	H 	0.80400 0.37610 0.54440 0.03100
H 	H 	0.57730 0.33550 0.24770 0.03200
H 	H 	0.37810 0.86720 0.30620 0.04300
H 	H 	0.02900 0.77600 0.55100 0.03900
H 	H 	0.19600 0.62390 0.45560 0.03100
H 	H 	0.42270 0.66450 0.75230 0.03200
H 	H 	0.62190 0.13280 0.69380 0.04300
C 	C 	0.75840 0.16990 0.10680 0.09100
C 	C 	0.76230 0.22680 0.23250 -0.00300
C 	C 	0.89180 0.24680 0.40620 0.01100
C 	C 	0.78990 0.33740 0.46380 0.00900
C 	C 	0.65850 0.31480 0.29040 0.01800
C 	C 	0.53310 0.85470 0.43120 -0.06500
C 	C 	0.60800 0.93510 0.54860 -0.08600
C 	C 	0.42700 0.92060 0.38420 0.01500
C 	C 	0.55170 0.69170 0.35280 0.32100
C 	C 	0.72500 0.87210 0.60620 0.36600
C 	C 	0.24160 0.83010 0.89320 0.09100
C 	C 	0.23770 0.77320 0.76750 -0.00300
C 	C 	0.10820 0.75320 0.59380 0.01100
C 	C 	0.21010 0.66260 0.53620 0.00900
C 	C 	0.34150 0.68520 0.70960 0.01800
C 	C 	0.46690 0.14530 0.56880 -0.06500
C 	C 	0.39200 0.06490 0.45140 -0.08600
C 	C 	0.57300 0.07940 0.61580 0.01500
C 	C 	0.44830 0.30830 0.64720 0.32100
C 	C 	0.27500 0.12790 0.39380 0.36600
N 	N 	0.86600 0.09120 0.05806 -0.22900
N 	N 	0.83340 0.06350 0.94512 -0.17900
N 	N 	0.70960 0.12220 0.92680 -0.05400
N 	N 	0.66000 0.19060 0.02850 -0.08800
N 	N 	0.87910 0.19160 0.29104 -0.20700
N 	N 	0.67200 0.37040 0.40614 -0.19000
N 	N 	0.13400 0.90880 0.94194 -0.22900
N 	N 	0.16660 0.93650 0.05488 -0.17900
N 	N 	0.29040 0.87780 0.07320 -0.05400
N 	N 	0.34000 0.80940 0.97150 -0.08800
N 	N 	0.12090 0.80840 0.70896 -0.20700
N 	N 	0.32800 0.62960 0.59386 -0.19000
O 	O 	0.65600 0.69350 0.28520 -0.26700
O 	O 	0.45180 0.55850 0.35965 -0.40800
O 	O 	0.70650 0.71790 0.57058 -0.44400
O 	O 	0.83830 0.98070 0.68900 -0.43900
O 	O 	0.34400 0.30650 0.71480 -0.26700
O 	O 	0.54820 0.44150 0.64035 -0.40800
O 	O 	0.29350 0.28210 0.42942 -0.44400
O 	O 	0.16170 0.01930 0.31100 -0.43900
