data_crystal

_cell_length_a 18.59240
_cell_length_b 18.59240
_cell_length_c 42.22930
_cell_angle_alpha 90.00000
_cell_angle_beta  90.00000
_cell_angle_gamma 90.00000

_symmetry_space_group_name_	'P 1'
_symmetry_space_group_name_H-M	'P 1'

loop_
_symmetry_equiv_pos_as_xyz
  x,y,z

loop_
_atom_site_label
_atom_site_type_symbol
_atom_site_fract_x
_atom_site_fract_y
_atom_site_fract_z
_atom_site_charge
C 	C 	0.00520 0.32240 0.39385 0.25500
C 	C 	0.03920 0.27950 0.41608 -0.16500
C 	C 	0.09330 0.31300 0.43468 0.02900
C 	C 	0.11020 0.38270 0.43090 -0.11700
H 	H 	0.14670 0.40270 0.44310 0.08900
C 	C 	0.07280 0.42680 0.40840 0.09600
H 	H 	0.08260 0.47550 0.40610 -0.00000
C 	C 	0.02140 0.39250 0.39026 -0.24000
H 	H 	0.99700 0.41890 0.37500 0.12400
C 	C 	0.96290 0.28720 0.34365 0.22000
C 	C 	0.90300 0.29370 0.32463 -0.16200
H 	H 	0.85870 0.30560 0.33340 0.11400
C 	C 	0.90890 0.28260 0.29296 0.00300
C 	C 	0.97410 0.26480 0.27967 -0.05400
H 	H 	0.97710 0.25440 0.25820 0.07800
C 	C 	0.03580 0.26230 0.29860 -0.00300
C 	C 	0.03000 0.27330 0.33104 -0.16500
H 	H 	0.07040 0.27130 0.34400 0.11400
C 	C 	0.02060 0.20110 0.41618 0.41200
C 	C 	0.13450 0.26930 0.45869 0.33500
C 	C 	0.10740 0.24560 0.28386 0.33300
C 	C 	0.84230 0.28470 0.27301 0.31700
O 	O 	0.05930 0.16140 0.39978 -0.41800
O 	O 	0.96570 0.18240 0.43239 -0.44100
O 	O 	0.10820 0.21340 0.46826 -0.42300
O 	O 	0.19380 0.29860 0.46791 -0.39900
O 	O 	0.16240 0.26670 0.29798 -0.40100
O 	O 	0.10580 0.21210 0.25795 -0.40100
O 	O 	0.84510 0.25770 0.24570 -0.39300
O 	O 	0.78800 0.31490 0.28546 -0.39500
O 	O 	0.95060 0.29090 0.37597 -0.27900
C 	C 	0.99480 0.67760 0.39385 0.25400
C 	C 	0.96080 0.72050 0.41608 -0.16600
C 	C 	0.90670 0.68700 0.43468 0.02800
C 	C 	0.88980 0.61730 0.43090 -0.11800
H 	H 	0.85330 0.59730 0.44310 0.08800
C 	C 	0.92720 0.57320 0.40840 0.09500
H 	H 	0.91740 0.52450 0.40610 -0.00000
C 	C 	0.97860 0.60750 0.39026 -0.24000
H 	H 	0.00300 0.58110 0.37500 0.12400
C 	C 	0.03710 0.71280 0.34365 0.22000
C 	C 	0.09700 0.70630 0.32463 -0.16200
H 	H 	0.14130 0.69440 0.33340 0.11400
C 	C 	0.09110 0.71740 0.29296 0.00300
C 	C 	0.02590 0.73520 0.27967 -0.05400
H 	H 	0.02290 0.74560 0.25820 0.07800
C 	C 	0.96420 0.73770 0.29860 -0.00300
C 	C 	0.97000 0.72670 0.33104 -0.16500
H 	H 	0.92960 0.72870 0.34400 0.11400
C 	C 	0.97940 0.79890 0.41618 0.41200
C 	C 	0.86550 0.73070 0.45869 0.33500
C 	C 	0.89260 0.75440 0.28386 0.33300
C 	C 	0.15770 0.71530 0.27301 0.31700
O 	O 	0.94070 0.83860 0.39978 -0.41800
O 	O 	0.03430 0.81760 0.43239 -0.44100
O 	O 	0.89180 0.78660 0.46826 -0.42300
O 	O 	0.80620 0.70140 0.46791 -0.39900
O 	O 	0.83760 0.73330 0.29798 -0.40100
O 	O 	0.89420 0.78790 0.25795 -0.40100
O 	O 	0.15490 0.74230 0.24570 -0.39300
O 	O 	0.21200 0.68510 0.28546 -0.39500
O 	O 	0.04940 0.70910 0.37597 -0.27900
C 	C 	0.17760 0.50520 0.89385 0.25600
C 	C 	0.22050 0.53920 0.91608 -0.16700
C 	C 	0.18700 0.59330 0.93468 0.03000
C 	C 	0.11730 0.61020 0.93090 -0.11800
H 	H 	0.09730 0.64670 0.94310 0.08900
C 	C 	0.07320 0.57280 0.90840 0.09500
H 	H 	0.02450 0.58260 0.90610 0.00000
C 	C 	0.10750 0.52140 0.89026 -0.24000
H 	H 	0.08110 0.49700 0.87500 0.12300
C 	C 	0.21280 0.46290 0.84365 0.21900
C 	C 	0.20630 0.40300 0.82463 -0.16200
H 	H 	0.19440 0.35870 0.83340 0.11400
C 	C 	0.21740 0.40890 0.79296 0.00400
C 	C 	0.23520 0.47410 0.77967 -0.05600
H 	H 	0.24560 0.47710 0.75820 0.07800
C 	C 	0.23770 0.53580 0.79860 -0.00200
C 	C 	0.22670 0.53000 0.83104 -0.16400
H 	H 	0.22870 0.57040 0.84400 0.11300
C 	C 	0.29890 0.52060 0.91618 0.41500
C 	C 	0.23070 0.63450 0.95869 0.33400
C 	C 	0.25440 0.60740 0.78386 0.33300
C 	C 	0.21530 0.34230 0.77301 0.31700
O 	O 	0.33860 0.55930 0.89978 -0.41800
O 	O 	0.31760 0.46570 0.93239 -0.44200
O 	O 	0.28660 0.60820 0.96826 -0.42000
O 	O 	0.20140 0.69380 0.96791 -0.39600
O 	O 	0.23330 0.66240 0.79798 -0.40100
O 	O 	0.28790 0.60580 0.75795 -0.40100
O 	O 	0.24230 0.34510 0.74570 -0.39300
O 	O 	0.18510 0.28800 0.78546 -0.39500
O 	O 	0.20910 0.45060 0.87597 -0.28000
C 	C 	0.82240 0.49480 0.89385 0.25600
C 	C 	0.77950 0.46080 0.91608 -0.16700
C 	C 	0.81300 0.40670 0.93468 0.03000
C 	C 	0.88270 0.38980 0.93090 -0.11800
H 	H 	0.90270 0.35330 0.94310 0.08900
C 	C 	0.92680 0.42720 0.90840 0.09500
H 	H 	0.97550 0.41740 0.90610 0.00000
C 	C 	0.89250 0.47860 0.89026 -0.24000
H 	H 	0.91890 0.50300 0.87500 0.12300
C 	C 	0.78720 0.53710 0.84365 0.21900
C 	C 	0.79370 0.59700 0.82463 -0.16200
H 	H 	0.80560 0.64130 0.83340 0.11400
C 	C 	0.78260 0.59110 0.79296 0.00400
C 	C 	0.76480 0.52590 0.77967 -0.05600
H 	H 	0.75440 0.52290 0.75820 0.07800
C 	C 	0.76230 0.46420 0.79860 -0.00200
C 	C 	0.77330 0.47000 0.83104 -0.16400
H 	H 	0.77130 0.42960 0.84400 0.11300
C 	C 	0.70110 0.47940 0.91618 0.41500
C 	C 	0.76930 0.36550 0.95869 0.33400
C 	C 	0.74560 0.39260 0.78386 0.33300
C 	C 	0.78470 0.65770 0.77301 0.31700
O 	O 	0.66140 0.44070 0.89978 -0.41800
O 	O 	0.68240 0.53430 0.93239 -0.44200
O 	O 	0.71340 0.39180 0.96826 -0.42000
O 	O 	0.79860 0.30620 0.96791 -0.39600
O 	O 	0.76670 0.33760 0.79798 -0.40100
O 	O 	0.71210 0.39420 0.75795 -0.40100
O 	O 	0.75770 0.65490 0.74570 -0.39300
O 	O 	0.81490 0.71200 0.78546 -0.39500
O 	O 	0.79090 0.54940 0.87597 -0.28000
C 	C 	0.49480 0.82240 0.10615 0.25500
C 	C 	0.46080 0.77950 0.08392 -0.16700
C 	C 	0.40670 0.81300 0.06532 0.02800
C 	C 	0.38980 0.88270 0.06910 -0.11800
H 	H 	0.35330 0.90270 0.05690 0.08700
C 	C 	0.42720 0.92680 0.09160 0.09400
H 	H 	0.41740 0.97550 0.09390 -0.00000
C 	C 	0.47860 0.89250 0.10974 -0.24000
H 	H 	0.50300 0.91890 0.12500 0.12300
C 	C 	0.53710 0.78720 0.15635 0.21900
C 	C 	0.59700 0.79370 0.17537 -0.16200
H 	H 	0.64130 0.80560 0.16660 0.11400
C 	C 	0.59110 0.78260 0.20704 0.00400
C 	C 	0.52590 0.76480 0.22033 -0.05500
H 	H 	0.52290 0.75440 0.24180 0.07800
C 	C 	0.46420 0.76230 0.20140 -0.00200
C 	C 	0.47000 0.77330 0.16896 -0.16400
H 	H 	0.42960 0.77130 0.15600 0.11400
C 	C 	0.47940 0.70110 0.08382 0.41500
C 	C 	0.36550 0.76930 0.04131 0.33400
C 	C 	0.39260 0.74560 0.21614 0.33300
C 	C 	0.65770 0.78470 0.22699 0.31700
O 	O 	0.44070 0.66140 0.10022 -0.41800
O 	O 	0.53430 0.68240 0.06761 -0.44400
O 	O 	0.39180 0.71340 0.03174 -0.42500
O 	O 	0.30620 0.79860 0.03209 -0.40100
O 	O 	0.33760 0.76670 0.20202 -0.40100
O 	O 	0.39420 0.71210 0.24205 -0.40100
O 	O 	0.65490 0.75770 0.25430 -0.39300
O 	O 	0.71200 0.81490 0.21454 -0.39500
O 	O 	0.54940 0.79090 0.12403 -0.28000
C 	C 	0.50520 0.17760 0.10615 0.25500
C 	C 	0.53920 0.22050 0.08392 -0.16700
C 	C 	0.59330 0.18700 0.06532 0.02800
C 	C 	0.61020 0.11730 0.06910 -0.11800
H 	H 	0.64670 0.09730 0.05690 0.08700
C 	C 	0.57280 0.07320 0.09160 0.09400
H 	H 	0.58260 0.02450 0.09390 -0.00000
C 	C 	0.52140 0.10750 0.10974 -0.24000
H 	H 	0.49700 0.08110 0.12500 0.12300
C 	C 	0.46290 0.21280 0.15635 0.21900
C 	C 	0.40300 0.20630 0.17537 -0.16200
H 	H 	0.35870 0.19440 0.16660 0.11400
C 	C 	0.40890 0.21740 0.20704 0.00400
C 	C 	0.47410 0.23520 0.22033 -0.05500
H 	H 	0.47710 0.24560 0.24180 0.07800
C 	C 	0.53580 0.23770 0.20140 -0.00200
C 	C 	0.53000 0.22670 0.16896 -0.16400
H 	H 	0.57040 0.22870 0.15600 0.11400
C 	C 	0.52060 0.29890 0.08382 0.41500
C 	C 	0.63450 0.23070 0.04131 0.33400
C 	C 	0.60740 0.25440 0.21614 0.33300
C 	C 	0.34230 0.21530 0.22699 0.31700
O 	O 	0.55930 0.33860 0.10022 -0.41800
O 	O 	0.46570 0.31760 0.06761 -0.44400
O 	O 	0.60820 0.28660 0.03174 -0.42500
O 	O 	0.69380 0.20140 0.03209 -0.40100
O 	O 	0.66240 0.23330 0.20202 -0.40100
O 	O 	0.60580 0.28790 0.24205 -0.40100
O 	O 	0.34510 0.24230 0.25430 -0.39300
O 	O 	0.28800 0.18510 0.21454 -0.39500
O 	O 	0.45060 0.20910 0.12403 -0.28000
C 	C 	0.32240 0.00520 0.60615 0.25400
C 	C 	0.27950 0.03920 0.58392 -0.16600
C 	C 	0.31300 0.09330 0.56532 0.02800
C 	C 	0.38270 0.11020 0.56910 -0.11800
H 	H 	0.40270 0.14670 0.55690 0.08800
C 	C 	0.42680 0.07280 0.59160 0.09400
H 	H 	0.47550 0.08260 0.59390 -0.00000
C 	C 	0.39250 0.02140 0.60974 -0.24000
H 	H 	0.41890 0.99700 0.62500 0.12400
C 	C 	0.28720 0.96290 0.65635 0.22000
C 	C 	0.29370 0.90300 0.67537 -0.16200
H 	H 	0.30560 0.85870 0.66660 0.11400
C 	C 	0.28260 0.90890 0.70704 0.00300
C 	C 	0.26480 0.97410 0.72033 -0.05400
H 	H 	0.25440 0.97710 0.74180 0.07800
C 	C 	0.26230 0.03580 0.70140 -0.00300
C 	C 	0.27330 0.03000 0.66896 -0.16500
H 	H 	0.27130 0.07040 0.65600 0.11400
C 	C 	0.20110 0.02060 0.58382 0.41200
C 	C 	0.26930 0.13450 0.54131 0.33500
C 	C 	0.24560 0.10740 0.71614 0.33300
C 	C 	0.28470 0.84230 0.72699 0.31700
O 	O 	0.16140 0.05930 0.60022 -0.41800
O 	O 	0.18240 0.96570 0.56761 -0.44100
O 	O 	0.21340 0.10820 0.53174 -0.42300
O 	O 	0.29860 0.19380 0.53209 -0.39900
O 	O 	0.26670 0.16240 0.70202 -0.40100
O 	O 	0.21210 0.10580 0.74205 -0.40100
O 	O 	0.25770 0.84510 0.75430 -0.39300
O 	O 	0.31490 0.78800 0.71454 -0.39500
O 	O 	0.29090 0.95060 0.62403 -0.27900
C 	C 	0.67760 0.99480 0.60615 0.25400
C 	C 	0.72050 0.96080 0.58392 -0.16600
C 	C 	0.68700 0.90670 0.56532 0.02800
C 	C 	0.61730 0.88980 0.56910 -0.11800
H 	H 	0.59730 0.85330 0.55690 0.08800
C 	C 	0.57320 0.92720 0.59160 0.09400
H 	H 	0.52450 0.91740 0.59390 -0.00000
C 	C 	0.60750 0.97860 0.60974 -0.24000
H 	H 	0.58110 0.00300 0.62500 0.12400
C 	C 	0.71280 0.03710 0.65635 0.22000
C 	C 	0.70630 0.09700 0.67537 -0.16200
H 	H 	0.69440 0.14130 0.66660 0.11400
C 	C 	0.71740 0.09110 0.70704 0.00300
C 	C 	0.73520 0.02590 0.72033 -0.05400
H 	H 	0.74560 0.02290 0.74180 0.07800
C 	C 	0.73770 0.96420 0.70140 -0.00300
C 	C 	0.72670 0.97000 0.66896 -0.16500
H 	H 	0.72870 0.92960 0.65600 0.11400
C 	C 	0.79890 0.97940 0.58382 0.41200
C 	C 	0.73070 0.86550 0.54131 0.33500
C 	C 	0.75440 0.89260 0.71614 0.33300
C 	C 	0.71530 0.15770 0.72699 0.31700
O 	O 	0.83860 0.94070 0.60022 -0.41800
O 	O 	0.81760 0.03430 0.56761 -0.44100
O 	O 	0.78660 0.89180 0.53174 -0.42300
O 	O 	0.70140 0.80620 0.53209 -0.39900
O 	O 	0.73330 0.83760 0.70202 -0.40100
O 	O 	0.78790 0.89420 0.74205 -0.40100
O 	O 	0.74230 0.15490 0.75430 -0.39300
O 	O 	0.68510 0.21200 0.71454 -0.39500
O 	O 	0.70910 0.04940 0.62403 -0.27900
C 	C 	0.99480 0.67760 0.60615 0.25400
C 	C 	0.96080 0.72050 0.58392 -0.16600
C 	C 	0.90670 0.68700 0.56532 0.02800
C 	C 	0.88980 0.61730 0.56910 -0.11800
H 	H 	0.85330 0.59730 0.55690 0.08800
C 	C 	0.92720 0.57320 0.59160 0.09400
H 	H 	0.91740 0.52450 0.59390 -0.00000
C 	C 	0.97860 0.60750 0.60974 -0.24000
H 	H 	0.00300 0.58110 0.62500 0.12400
C 	C 	0.03710 0.71280 0.65635 0.22000
C 	C 	0.09700 0.70630 0.67537 -0.16200
H 	H 	0.14130 0.69440 0.66660 0.11400
C 	C 	0.09110 0.71740 0.70704 0.00300
C 	C 	0.02590 0.73520 0.72033 -0.05400
H 	H 	0.02290 0.74560 0.74180 0.07800
C 	C 	0.96420 0.73770 0.70140 -0.00300
C 	C 	0.97000 0.72670 0.66896 -0.16500
H 	H 	0.92960 0.72870 0.65600 0.11400
C 	C 	0.97940 0.79890 0.58382 0.41200
C 	C 	0.86550 0.73070 0.54131 0.33500
C 	C 	0.89260 0.75440 0.71614 0.33300
C 	C 	0.15770 0.71530 0.72699 0.31700
O 	O 	0.94070 0.83860 0.60022 -0.41800
O 	O 	0.03430 0.81760 0.56761 -0.44100
O 	O 	0.89180 0.78660 0.53174 -0.42300
O 	O 	0.80620 0.70140 0.53209 -0.39900
O 	O 	0.83760 0.73330 0.70202 -0.40100
O 	O 	0.89420 0.78790 0.74205 -0.40100
O 	O 	0.15490 0.74230 0.75430 -0.39300
O 	O 	0.21200 0.68510 0.71454 -0.39500
O 	O 	0.04940 0.70910 0.62403 -0.27900
C 	C 	0.00520 0.32240 0.60615 0.25400
C 	C 	0.03920 0.27950 0.58392 -0.16600
C 	C 	0.09330 0.31300 0.56532 0.02800
C 	C 	0.11020 0.38270 0.56910 -0.11800
H 	H 	0.14670 0.40270 0.55690 0.08800
C 	C 	0.07280 0.42680 0.59160 0.09400
H 	H 	0.08260 0.47550 0.59390 -0.00000
C 	C 	0.02140 0.39250 0.60974 -0.24000
H 	H 	0.99700 0.41890 0.62500 0.12400
C 	C 	0.96290 0.28720 0.65635 0.22000
C 	C 	0.90300 0.29370 0.67537 -0.16200
H 	H 	0.85870 0.30560 0.66660 0.11400
C 	C 	0.90890 0.28260 0.70704 0.00300
C 	C 	0.97410 0.26480 0.72033 -0.05400
H 	H 	0.97710 0.25440 0.74180 0.07800
C 	C 	0.03580 0.26230 0.70140 -0.00300
C 	C 	0.03000 0.27330 0.66896 -0.16500
H 	H 	0.07040 0.27130 0.65600 0.11400
C 	C 	0.02060 0.20110 0.58382 0.41200
C 	C 	0.13450 0.26930 0.54131 0.33500
C 	C 	0.10740 0.24560 0.71614 0.33300
C 	C 	0.84230 0.28470 0.72699 0.31700
O 	O 	0.05930 0.16140 0.60022 -0.41800
O 	O 	0.96570 0.18240 0.56761 -0.44100
O 	O 	0.10820 0.21340 0.53174 -0.42300
O 	O 	0.19380 0.29860 0.53209 -0.39900
O 	O 	0.16240 0.26670 0.70202 -0.40100
O 	O 	0.10580 0.21210 0.74205 -0.40100
O 	O 	0.84510 0.25770 0.75430 -0.39300
O 	O 	0.78800 0.31490 0.71454 -0.39500
O 	O 	0.95060 0.29090 0.62403 -0.27900
C 	C 	0.82240 0.49480 0.10615 0.25500
C 	C 	0.77950 0.46080 0.08392 -0.16700
C 	C 	0.81300 0.40670 0.06532 0.02800
C 	C 	0.88270 0.38980 0.06910 -0.11800
H 	H 	0.90270 0.35330 0.05690 0.08700
C 	C 	0.92680 0.42720 0.09160 0.09400
H 	H 	0.97550 0.41740 0.09390 -0.00000
C 	C 	0.89250 0.47860 0.10974 -0.24000
H 	H 	0.91890 0.50300 0.12500 0.12300
C 	C 	0.78720 0.53710 0.15635 0.21900
C 	C 	0.79370 0.59700 0.17537 -0.16200
H 	H 	0.80560 0.64130 0.16660 0.11400
C 	C 	0.78260 0.59110 0.20704 0.00400
C 	C 	0.76480 0.52590 0.22033 -0.05500
H 	H 	0.75440 0.52290 0.24180 0.07800
C 	C 	0.76230 0.46420 0.20140 -0.00200
C 	C 	0.77330 0.47000 0.16896 -0.16400
H 	H 	0.77130 0.42960 0.15600 0.11400
C 	C 	0.70110 0.47940 0.08382 0.41500
C 	C 	0.76930 0.36550 0.04131 0.33400
C 	C 	0.74560 0.39260 0.21614 0.33300
C 	C 	0.78470 0.65770 0.22699 0.31700
O 	O 	0.66140 0.44070 0.10022 -0.41800
O 	O 	0.68240 0.53430 0.06761 -0.44400
O 	O 	0.71340 0.39180 0.03174 -0.42500
O 	O 	0.79860 0.30620 0.03209 -0.40100
O 	O 	0.76670 0.33760 0.20202 -0.40100
O 	O 	0.71210 0.39420 0.24205 -0.40100
O 	O 	0.75770 0.65490 0.25430 -0.39300
O 	O 	0.81490 0.71200 0.21454 -0.39500
O 	O 	0.79090 0.54940 0.12403 -0.28000
C 	C 	0.17760 0.50520 0.10615 0.25500
C 	C 	0.22050 0.53920 0.08392 -0.16700
C 	C 	0.18700 0.59330 0.06532 0.02800
C 	C 	0.11730 0.61020 0.06910 -0.11800
H 	H 	0.09730 0.64670 0.05690 0.08700
C 	C 	0.07320 0.57280 0.09160 0.09400
H 	H 	0.02450 0.58260 0.09390 -0.00000
C 	C 	0.10750 0.52140 0.10974 -0.24000
H 	H 	0.08110 0.49700 0.12500 0.12300
C 	C 	0.21280 0.46290 0.15635 0.21900
C 	C 	0.20630 0.40300 0.17537 -0.16200
H 	H 	0.19440 0.35870 0.16660 0.11400
C 	C 	0.21740 0.40890 0.20704 0.00400
C 	C 	0.23520 0.47410 0.22033 -0.05500
H 	H 	0.24560 0.47710 0.24180 0.07800
C 	C 	0.23770 0.53580 0.20140 -0.00200
C 	C 	0.22670 0.53000 0.16896 -0.16400
H 	H 	0.22870 0.57040 0.15600 0.11400
C 	C 	0.29890 0.52060 0.08382 0.41500
C 	C 	0.23070 0.63450 0.04131 0.33400
C 	C 	0.25440 0.60740 0.21614 0.33300
C 	C 	0.21530 0.34230 0.22699 0.31700
O 	O 	0.33860 0.55930 0.10022 -0.41800
O 	O 	0.31760 0.46570 0.06761 -0.44400
O 	O 	0.28660 0.60820 0.03174 -0.42500
O 	O 	0.20140 0.69380 0.03209 -0.40100
O 	O 	0.23330 0.66240 0.20202 -0.40100
O 	O 	0.28790 0.60580 0.24205 -0.40100
O 	O 	0.24230 0.34510 0.25430 -0.39300
O 	O 	0.18510 0.28800 0.21454 -0.39500
O 	O 	0.20910 0.45060 0.12403 -0.28000
C 	C 	0.50520 0.17760 0.89385 0.25600
C 	C 	0.53920 0.22050 0.91608 -0.16700
C 	C 	0.59330 0.18700 0.93468 0.03000
C 	C 	0.61020 0.11730 0.93090 -0.11800
H 	H 	0.64670 0.09730 0.94310 0.08900
C 	C 	0.57280 0.07320 0.90840 0.09500
H 	H 	0.58260 0.02450 0.90610 0.00000
C 	C 	0.52140 0.10750 0.89026 -0.24000
H 	H 	0.49700 0.08110 0.87500 0.12300
C 	C 	0.46290 0.21280 0.84365 0.21900
C 	C 	0.40300 0.20630 0.82463 -0.16200
H 	H 	0.35870 0.19440 0.83340 0.11400
C 	C 	0.40890 0.21740 0.79296 0.00400
C 	C 	0.47410 0.23520 0.77967 -0.05600
H 	H 	0.47710 0.24560 0.75820 0.07800
C 	C 	0.53580 0.23770 0.79860 -0.00200
C 	C 	0.53000 0.22670 0.83104 -0.16400
H 	H 	0.57040 0.22870 0.84400 0.11300
C 	C 	0.52060 0.29890 0.91618 0.41500
C 	C 	0.63450 0.23070 0.95869 0.33400
C 	C 	0.60740 0.25440 0.78386 0.33300
C 	C 	0.34230 0.21530 0.77301 0.31700
O 	O 	0.55930 0.33860 0.89978 -0.41800
O 	O 	0.46570 0.31760 0.93239 -0.44200
O 	O 	0.60820 0.28660 0.96826 -0.42000
O 	O 	0.69380 0.20140 0.96791 -0.39600
O 	O 	0.66240 0.23330 0.79798 -0.40100
O 	O 	0.60580 0.28790 0.75795 -0.40100
O 	O 	0.34510 0.24230 0.74570 -0.39300
O 	O 	0.28800 0.18510 0.78546 -0.39500
O 	O 	0.45060 0.20910 0.87597 -0.28000
C 	C 	0.49480 0.82240 0.89385 0.25600
C 	C 	0.46080 0.77950 0.91608 -0.16700
C 	C 	0.40670 0.81300 0.93468 0.03000
C 	C 	0.38980 0.88270 0.93090 -0.11800
H 	H 	0.35330 0.90270 0.94310 0.08900
C 	C 	0.42720 0.92680 0.90840 0.09500
H 	H 	0.41740 0.97550 0.90610 0.00000
C 	C 	0.47860 0.89250 0.89026 -0.24000
H 	H 	0.50300 0.91890 0.87500 0.12300
C 	C 	0.53710 0.78720 0.84365 0.21900
C 	C 	0.59700 0.79370 0.82463 -0.16200
H 	H 	0.64130 0.80560 0.83340 0.11400
C 	C 	0.59110 0.78260 0.79296 0.00400
C 	C 	0.52590 0.76480 0.77967 -0.05600
H 	H 	0.52290 0.75440 0.75820 0.07800
C 	C 	0.46420 0.76230 0.79860 -0.00200
C 	C 	0.47000 0.77330 0.83104 -0.16400
H 	H 	0.42960 0.77130 0.84400 0.11300
C 	C 	0.47940 0.70110 0.91618 0.41500
C 	C 	0.36550 0.76930 0.95869 0.33400
C 	C 	0.39260 0.74560 0.78386 0.33300
C 	C 	0.65770 0.78470 0.77301 0.31700
O 	O 	0.44070 0.66140 0.89978 -0.41800
O 	O 	0.53430 0.68240 0.93239 -0.44200
O 	O 	0.39180 0.71340 0.96826 -0.42000
O 	O 	0.30620 0.79860 0.96791 -0.39600
O 	O 	0.33760 0.76670 0.79798 -0.40100
O 	O 	0.39420 0.71210 0.75795 -0.40100
O 	O 	0.65490 0.75770 0.74570 -0.39300
O 	O 	0.71200 0.81490 0.78546 -0.39500
O 	O 	0.54940 0.79090 0.87597 -0.28000
C 	C 	0.67760 0.99480 0.39385 0.25400
C 	C 	0.72050 0.96080 0.41608 -0.16600
C 	C 	0.68700 0.90670 0.43468 0.02800
C 	C 	0.61730 0.88980 0.43090 -0.11800
H 	H 	0.59730 0.85330 0.44310 0.08800
C 	C 	0.57320 0.92720 0.40840 0.09500
H 	H 	0.52450 0.91740 0.40610 -0.00000
C 	C 	0.60750 0.97860 0.39026 -0.24000
H 	H 	0.58110 0.00300 0.37500 0.12400
C 	C 	0.71280 0.03710 0.34365 0.22000
C 	C 	0.70630 0.09700 0.32463 -0.16200
H 	H 	0.69440 0.14130 0.33340 0.11400
C 	C 	0.71740 0.09110 0.29296 0.00300
C 	C 	0.73520 0.02590 0.27967 -0.05400
H 	H 	0.74560 0.02290 0.25820 0.07800
C 	C 	0.73770 0.96420 0.29860 -0.00300
C 	C 	0.72670 0.97000 0.33104 -0.16500
H 	H 	0.72870 0.92960 0.34400 0.11400
C 	C 	0.79890 0.97940 0.41618 0.41200
C 	C 	0.73070 0.86550 0.45869 0.33500
C 	C 	0.75440 0.89260 0.28386 0.33300
C 	C 	0.71530 0.15770 0.27301 0.31700
O 	O 	0.83860 0.94070 0.39978 -0.41800
O 	O 	0.81760 0.03430 0.43239 -0.44100
O 	O 	0.78660 0.89180 0.46826 -0.42300
O 	O 	0.70140 0.80620 0.46791 -0.39900
O 	O 	0.73330 0.83760 0.29798 -0.40100
O 	O 	0.78790 0.89420 0.25795 -0.40100
O 	O 	0.74230 0.15490 0.24570 -0.39300
O 	O 	0.68510 0.21200 0.28546 -0.39500
O 	O 	0.70910 0.04940 0.37597 -0.27900
C 	C 	0.32240 0.00520 0.39385 0.25400
C 	C 	0.27950 0.03920 0.41608 -0.16600
C 	C 	0.31300 0.09330 0.43468 0.02800
C 	C 	0.38270 0.11020 0.43090 -0.11800
H 	H 	0.40270 0.14670 0.44310 0.08800
C 	C 	0.42680 0.07280 0.40840 0.09500
H 	H 	0.47550 0.08260 0.40610 -0.00000
C 	C 	0.39250 0.02140 0.39026 -0.24000
H 	H 	0.41890 0.99700 0.37500 0.12400
C 	C 	0.28720 0.96290 0.34365 0.22000
C 	C 	0.29370 0.90300 0.32463 -0.16200
H 	H 	0.30560 0.85870 0.33340 0.11400
C 	C 	0.28260 0.90890 0.29296 0.00300
C 	C 	0.26480 0.97410 0.27967 -0.05400
H 	H 	0.25440 0.97710 0.25820 0.07800
C 	C 	0.26230 0.03580 0.29860 -0.00300
C 	C 	0.27330 0.03000 0.33104 -0.16500
H 	H 	0.27130 0.07040 0.34400 0.11400
C 	C 	0.20110 0.02060 0.41618 0.41200
C 	C 	0.26930 0.13450 0.45869 0.33500
C 	C 	0.24560 0.10740 0.28386 0.33300
C 	C 	0.28470 0.84230 0.27301 0.31700
O 	O 	0.16140 0.05930 0.39978 -0.41800
O 	O 	0.18240 0.96570 0.43239 -0.44100
O 	O 	0.21340 0.10820 0.46826 -0.42300
O 	O 	0.29860 0.19380 0.46791 -0.39900
O 	O 	0.26670 0.16240 0.29798 -0.40100
O 	O 	0.21210 0.10580 0.25795 -0.40100
O 	O 	0.25770 0.84510 0.24570 -0.39300
O 	O 	0.31490 0.78800 0.28546 -0.39500
O 	O 	0.29090 0.95060 0.37597 -0.27900
Cu	Cu	0.05655 0.05655 0.39513 0.88900
Cu	Cu	0.25859 0.25859 0.28004 0.90500
Cu	Cu	0.19182 0.19182 0.23290 0.90400
Cu	Cu	0.94345 0.94345 0.39513 0.88900
Cu	Cu	0.74141 0.74141 0.28004 0.90500
Cu	Cu	0.80818 0.80818 0.23290 0.90400
Cu	Cu	0.44345 0.55655 0.89513 0.89000
Cu	Cu	0.24141 0.75859 0.78004 0.90500
Cu	Cu	0.30818 0.69182 0.73290 0.90400
Cu	Cu	0.55655 0.44345 0.89513 0.89000
Cu	Cu	0.75859 0.24141 0.78004 0.90500
Cu	Cu	0.69182 0.30818 0.73290 0.90400
Cu	Cu	0.44345 0.55655 0.10487 0.89000
Cu	Cu	0.24141 0.75859 0.21996 0.90500
Cu	Cu	0.30818 0.69182 0.26710 0.90400
Cu	Cu	0.55655 0.44345 0.10487 0.89000
Cu	Cu	0.75859 0.24141 0.21996 0.90500
Cu	Cu	0.69182 0.30818 0.26710 0.90400
Cu	Cu	0.05655 0.05655 0.60487 0.88900
Cu	Cu	0.25859 0.25859 0.71996 0.90500
Cu	Cu	0.19182 0.19182 0.76710 0.90400
Cu	Cu	0.94345 0.94345 0.60487 0.88900
Cu	Cu	0.74141 0.74141 0.71996 0.90500
Cu	Cu	0.80818 0.80818 0.76710 0.90400
Cu	Cu	0.90633 0.09367 0.43252 0.85400
O 	O 	0.95040 0.04960 0.39543 -0.56500
Cu	Cu	0.09367 0.90633 0.43252 0.85400
O 	O 	0.04960 0.95040 0.39543 -0.56500
Cu	Cu	0.40633 0.40633 0.93252 0.85400
O 	O 	0.45040 0.45040 0.89543 -0.56600
Cu	Cu	0.59367 0.59367 0.93252 0.85400
O 	O 	0.54960 0.54960 0.89543 -0.56600
Cu	Cu	0.59367 0.59367 0.06748 0.85300
O 	O 	0.54960 0.54960 0.10457 -0.56600
Cu	Cu	0.40633 0.40633 0.06748 0.85300
O 	O 	0.45040 0.45040 0.10457 -0.56600
Cu	Cu	0.09367 0.90633 0.56748 0.85400
O 	O 	0.04960 0.95040 0.60457 -0.56500
Cu	Cu	0.90633 0.09367 0.56748 0.85400
O 	O 	0.95040 0.04960 0.60457 -0.56500
Cu	Cu	0.15412 0.15412 0.50000 0.89600
Cu	Cu	0.25497 0.25497 0.50000 0.90500
Cu	Cu	0.84588 0.84588 0.50000 0.89600
Cu	Cu	0.74503 0.74503 0.50000 0.90500
Cu	Cu	0.34588 0.65412 -0.00000 0.89300
Cu	Cu	0.24503 0.75497 -0.00000 0.90200
Cu	Cu	0.65412 0.34588 -0.00000 0.89300
Cu	Cu	0.75497 0.24503 -0.00000 0.90200
