data_crystal

_cell_length_a 15.64490
_cell_length_b 21.55440
_cell_length_c 13.26060
_cell_angle_alpha 90.00000
_cell_angle_beta  90.81500
_cell_angle_gamma 90.00000

_symmetry_space_group_name_	'P 1'
_symmetry_space_group_name_H-M	'P 1'

loop_
_symmetry_equiv_pos_as_xyz
  x,y,z

loop_
_atom_site_label
_atom_site_type_symbol
_atom_site_fract_x
_atom_site_fract_y
_atom_site_fract_z
_atom_site_charge
Cu	Cu	0.20157 0.10398 0.37819 0.84700
N 	N 	0.46090 0.37517 0.37860 -0.16400
H 	H 	0.40660 0.38480 0.38560 0.41000
C 	C 	0.48440 0.31400 0.37200 0.78400
O 	O 	0.55790 0.29760 0.35710 -0.26400
N 	N 	0.28450 0.17593 0.37930 -0.21300
C 	C 	0.32170 0.28360 0.37590 0.03800
H 	H 	0.30360 0.32570 0.37520 0.02200
O 	O 	0.10897 0.15972 0.34340 -0.39700
O 	O 	0.10200 0.14435 0.17790 -0.27800
N 	N 	0.62376 0.52944 0.37210 -0.26500
C 	C 	0.36800 0.16400 0.38020 0.00100
H 	H 	0.38580 0.12190 0.38160 -0.01800
C 	C 	0.43060 0.20950 0.37910 -0.00400
H 	H 	0.48940 0.19840 0.38050 0.02800
C 	C 	0.40770 0.26940 0.37620 -0.15900
C 	C 	0.26070 0.23500 0.37670 -0.00800
H 	H 	0.20150 0.24490 0.37540 0.02600
C 	C 	0.07790 0.16910 0.25660 0.28700
C 	C 	0.65820 0.47347 0.36520 0.12000
H 	H 	0.71850 0.47040 0.35900 -0.05700
C 	C 	0.61090 0.41910 0.36660 -0.24100
H 	H 	0.63830 0.37990 0.36230 0.14700
C 	C 	0.52300 0.42320 0.37440 0.27600
C 	C 	0.48640 0.48150 0.37910 -0.26500
H 	H 	0.42610 0.48600 0.38290 0.10300
C 	C 	0.53830 0.53250 0.37830 0.13800
H 	H 	0.51240 0.57230 0.38230 -0.00300
C 	C 	0.00650 0.25430 0.15680 -0.42600
H 	H 	0.05670 0.28130 0.16350 0.14500
H 	H 	0.95490 0.27980 0.15020 0.14700
H 	H 	0.01210 0.22820 0.09670 0.17200
N 	N 	0.42290 0.34080 0.38320 -0.21800
H 	H 	0.38520 0.37060 0.39130 -0.25600
C 	C 	0.50830 0.34530 0.37380 -0.43200
O 	O 	0.55200 0.29620 0.38600 -0.03700
Cu	Cu	0.70157 0.60398 0.37819 0.84600
N 	N 	0.96090 0.87517 0.37860 -0.17100
H 	H 	0.90660 0.88480 0.38560 0.43100
C 	C 	0.98440 0.81400 0.37200 0.79400
O 	O 	0.05790 0.79760 0.35710 -0.26700
N 	N 	0.78450 0.67593 0.37930 -0.21300
C 	C 	0.82170 0.78360 0.37590 0.03900
H 	H 	0.80360 0.82570 0.37520 0.02200
O 	O 	0.60897 0.65972 0.34340 -0.39800
O 	O 	0.60200 0.64435 0.17790 -0.27800
N 	N 	0.12376 0.02944 0.37210 -0.26600
C 	C 	0.86800 0.66400 0.38020 -0.00200
H 	H 	0.88580 0.62190 0.38160 -0.01800
C 	C 	0.93060 0.70950 0.37910 -0.00200
H 	H 	0.98940 0.69840 0.38050 0.02600
C 	C 	0.90770 0.76940 0.37620 -0.16400
C 	C 	0.76070 0.73500 0.37670 -0.01000
H 	H 	0.70150 0.74490 0.37540 0.02700
C 	C 	0.57790 0.66910 0.25660 0.28600
C 	C 	0.15820 0.97347 0.36520 0.11900
H 	H 	0.21850 0.97040 0.35900 -0.05700
C 	C 	0.11090 0.91910 0.36660 -0.24000
H 	H 	0.13830 0.87990 0.36230 0.14800
C 	C 	0.02300 0.92320 0.37440 0.27600
C 	C 	0.98640 0.98150 0.37910 -0.26300
H 	H 	0.92610 0.98600 0.38290 0.10200
C 	C 	0.03830 0.03250 0.37830 0.13500
H 	H 	0.01240 0.07230 0.38230 -0.00300
C 	C 	0.50650 0.75430 0.15680 -0.42500
H 	H 	0.55670 0.78130 0.16350 0.14500
H 	H 	0.45490 0.77980 0.15020 0.14600
H 	H 	0.51210 0.72820 0.09670 0.17200
N 	N 	0.92290 0.84080 0.38320 -0.21500
H 	H 	0.88520 0.87060 0.39130 -0.27700
C 	C 	0.00830 0.84530 0.37380 -0.44100
O 	O 	0.05200 0.79620 0.38600 -0.03600
Cu	Cu	0.79843 0.10398 0.12181 0.84600
N 	N 	0.53910 0.37517 0.12140 -0.16500
H 	H 	0.59340 0.38480 0.11440 0.40900
C 	C 	0.51560 0.31400 0.12800 0.78200
O 	O 	0.44210 0.29760 0.14290 -0.26500
N 	N 	0.71550 0.17593 0.12070 -0.21400
C 	C 	0.67830 0.28360 0.12410 0.03700
H 	H 	0.69640 0.32570 0.12480 0.02200
O 	O 	0.89103 0.15972 0.15660 -0.39800
O 	O 	0.89800 0.14435 0.32210 -0.27900
N 	N 	0.37624 0.52944 0.12790 -0.26600
C 	C 	0.63200 0.16400 0.11980 -0.00000
H 	H 	0.61420 0.12190 0.11840 -0.01900
C 	C 	0.56940 0.20950 0.12090 -0.00500
H 	H 	0.51060 0.19840 0.11950 0.02700
C 	C 	0.59230 0.26940 0.12380 -0.16000
C 	C 	0.73930 0.23500 0.12330 -0.00900
H 	H 	0.79850 0.24490 0.12460 0.02600
C 	C 	0.92210 0.16910 0.24340 0.28800
C 	C 	0.34180 0.47347 0.13480 0.12000
H 	H 	0.28150 0.47040 0.14100 -0.05700
C 	C 	0.38910 0.41910 0.13340 -0.24100
H 	H 	0.36170 0.37990 0.13770 0.14700
C 	C 	0.47700 0.42320 0.12560 0.27600
C 	C 	0.51360 0.48150 0.12090 -0.26500
H 	H 	0.57390 0.48600 0.11710 0.10300
C 	C 	0.46170 0.53250 0.12170 0.13800
H 	H 	0.48760 0.57230 0.11770 -0.00300
C 	C 	0.99350 0.25430 0.34320 -0.41600
H 	H 	0.94330 0.28130 0.33650 0.14300
H 	H 	0.04510 0.27980 0.34980 0.14200
H 	H 	0.98790 0.22820 0.40330 0.17000
N 	N 	0.57710 0.34080 0.11680 -0.21800
H 	H 	0.61480 0.37060 0.10870 -0.25600
C 	C 	0.49170 0.34530 0.12620 -0.43200
O 	O 	0.44800 0.29620 0.11400 -0.03700
Cu	Cu	0.29843 0.60398 0.12181 0.84600
N 	N 	0.03910 0.87517 0.12140 -0.15800
H 	H 	0.09340 0.88480 0.11440 0.38000
C 	C 	0.01560 0.81400 0.12800 0.76800
O 	O 	0.94210 0.79760 0.14290 -0.26100
N 	N 	0.21550 0.67593 0.12070 -0.21500
C 	C 	0.17830 0.78360 0.12410 0.03300
H 	H 	0.19640 0.82570 0.12480 0.02100
O 	O 	0.39103 0.65972 0.15660 -0.39800
O 	O 	0.39800 0.64435 0.32210 -0.27900
N 	N 	0.87624 0.02944 0.12790 -0.26600
C 	C 	0.13200 0.66400 0.11980 0.00100
H 	H 	0.11420 0.62190 0.11840 -0.02000
C 	C 	0.06940 0.70950 0.12090 -0.00900
H 	H 	0.01060 0.69840 0.11950 0.02800
C 	C 	0.09230 0.76940 0.12380 -0.15400
C 	C 	0.23930 0.73500 0.12330 -0.00700
H 	H 	0.29850 0.74490 0.12460 0.02600
C 	C 	0.42210 0.66910 0.24340 0.28600
C 	C 	0.84180 0.97347 0.13480 0.12100
H 	H 	0.78150 0.97040 0.14100 -0.05700
C 	C 	0.88910 0.91910 0.13340 -0.24100
H 	H 	0.86170 0.87990 0.13770 0.14700
C 	C 	0.97700 0.92320 0.12560 0.27600
C 	C 	0.01360 0.98150 0.12090 -0.26800
H 	H 	0.07390 0.98600 0.11710 0.10400
C 	C 	0.96170 0.03250 0.12170 0.14000
H 	H 	0.98760 0.07230 0.11770 -0.00300
C 	C 	0.49350 0.75430 0.34320 -0.42500
H 	H 	0.44330 0.78130 0.33650 0.14500
H 	H 	0.54510 0.77980 0.34980 0.14600
H 	H 	0.48790 0.72820 0.40330 0.17200
N 	N 	0.07710 0.84080 0.11680 -0.22300
H 	H 	0.11480 0.87060 0.10870 -0.22700
C 	C 	0.99170 0.84530 0.12620 -0.42100
O 	O 	0.94800 0.79620 0.11400 -0.03800
C 	C 	0.00000 0.21320 0.25000 0.05600
C 	C 	0.50000 0.71320 0.25000 0.06000
Cu	Cu	0.79843 0.89602 0.62181 0.84600
N 	N 	0.53910 0.62483 0.62140 -0.16500
H 	H 	0.59340 0.61520 0.61440 0.40900
C 	C 	0.51560 0.68600 0.62800 0.78200
O 	O 	0.44210 0.70240 0.64290 -0.26500
N 	N 	0.71550 0.82407 0.62070 -0.21400
C 	C 	0.67830 0.71640 0.62410 0.03700
H 	H 	0.69640 0.67430 0.62480 0.02100
O 	O 	0.89103 0.84028 0.65660 -0.39800
O 	O 	0.89800 0.85565 0.82210 -0.27900
N 	N 	0.37624 0.47056 0.62790 -0.26600
C 	C 	0.63200 0.83600 0.61980 -0.00000
H 	H 	0.61420 0.87810 0.61840 -0.01900
C 	C 	0.56940 0.79050 0.62090 -0.00500
H 	H 	0.51060 0.80160 0.61950 0.02700
C 	C 	0.59230 0.73060 0.62380 -0.16000
C 	C 	0.73930 0.76500 0.62330 -0.00900
H 	H 	0.79850 0.75510 0.62460 0.02600
C 	C 	0.92210 0.83090 0.74340 0.28700
C 	C 	0.34180 0.52653 0.63480 0.12000
H 	H 	0.28150 0.52960 0.64100 -0.05700
C 	C 	0.38910 0.58090 0.63340 -0.24100
H 	H 	0.36170 0.62010 0.63770 0.14700
C 	C 	0.47700 0.57680 0.62560 0.27600
C 	C 	0.51360 0.51850 0.62090 -0.26500
H 	H 	0.57390 0.51400 0.61710 0.10300
C 	C 	0.46170 0.46750 0.62170 0.13800
H 	H 	0.48760 0.42770 0.61770 -0.00300
C 	C 	0.99350 0.74570 0.84320 -0.42100
H 	H 	0.94330 0.71870 0.83650 0.14400
H 	H 	0.04510 0.72020 0.84980 0.14400
H 	H 	0.98790 0.77180 0.90330 0.17100
N 	N 	0.57710 0.65920 0.61680 -0.21800
H 	H 	0.61480 0.62940 0.60870 -0.25600
C 	C 	0.49170 0.65470 0.62620 -0.43200
O 	O 	0.44800 0.70380 0.61400 -0.03700
Cu	Cu	0.29843 0.39602 0.62181 0.84600
N 	N 	0.03910 0.12483 0.62140 -0.16100
H 	H 	0.09340 0.11520 0.61440 0.39300
C 	C 	0.01560 0.18600 0.62800 0.77400
O 	O 	0.94210 0.20240 0.64290 -0.26300
N 	N 	0.21550 0.32407 0.62070 -0.21400
C 	C 	0.17830 0.21640 0.62410 0.03500
H 	H 	0.19640 0.17430 0.62480 0.02100
O 	O 	0.39103 0.34028 0.65660 -0.39800
O 	O 	0.39800 0.35565 0.82210 -0.27900
N 	N 	0.87624 0.97056 0.62790 -0.26600
C 	C 	0.13200 0.33600 0.61980 0.00100
H 	H 	0.11420 0.37810 0.61840 -0.01900
C 	C 	0.06940 0.29050 0.62090 -0.00700
H 	H 	0.01060 0.30160 0.61950 0.02700
C 	C 	0.09230 0.23060 0.62380 -0.15600
C 	C 	0.23930 0.26500 0.62330 -0.00800
H 	H 	0.29850 0.25510 0.62460 0.02600
C 	C 	0.42210 0.33090 0.74340 0.28600
C 	C 	0.84180 0.02653 0.63480 0.12000
H 	H 	0.78150 0.02960 0.64100 -0.05700
C 	C 	0.88910 0.08090 0.63340 -0.24100
H 	H 	0.86170 0.12010 0.63770 0.14700
C 	C 	0.97700 0.07680 0.62560 0.27600
C 	C 	0.01360 0.01850 0.62090 -0.26700
H 	H 	0.07390 0.01400 0.61710 0.10400
C 	C 	0.96170 0.96750 0.62170 0.13900
H 	H 	0.98760 0.92770 0.61770 -0.00300
C 	C 	0.49350 0.24570 0.84320 -0.42500
H 	H 	0.44330 0.21870 0.83650 0.14500
H 	H 	0.54510 0.22020 0.84980 0.14600
H 	H 	0.48790 0.27180 0.90330 0.17200
N 	N 	0.07710 0.15920 0.61680 -0.22100
H 	H 	0.11480 0.12940 0.60870 -0.24000
C 	C 	0.99170 0.15470 0.62620 -0.42600
O 	O 	0.94800 0.20380 0.61400 -0.03700
Cu	Cu	0.20157 0.89602 0.87819 0.84600
N 	N 	0.46090 0.62483 0.87860 -0.16500
H 	H 	0.40660 0.61520 0.88560 0.40900
C 	C 	0.48440 0.68600 0.87200 0.78200
O 	O 	0.55790 0.70240 0.85710 -0.26500
N 	N 	0.28450 0.82407 0.87930 -0.21400
C 	C 	0.32170 0.71640 0.87590 0.03700
H 	H 	0.30360 0.67430 0.87520 0.02100
O 	O 	0.10897 0.84028 0.84340 -0.39800
O 	O 	0.10200 0.85565 0.67790 -0.27900
N 	N 	0.62376 0.47056 0.87210 -0.26600
C 	C 	0.36800 0.83600 0.88020 -0.00000
H 	H 	0.38580 0.87810 0.88160 -0.01900
C 	C 	0.43060 0.79050 0.87910 -0.00500
H 	H 	0.48940 0.80160 0.88050 0.02700
C 	C 	0.40770 0.73060 0.87620 -0.16000
C 	C 	0.26070 0.76500 0.87670 -0.00900
H 	H 	0.20150 0.75510 0.87540 0.02600
C 	C 	0.07790 0.83090 0.75660 0.28700
C 	C 	0.65820 0.52653 0.86520 0.12000
H 	H 	0.71850 0.52960 0.85900 -0.05700
C 	C 	0.61090 0.58090 0.86660 -0.24100
H 	H 	0.63830 0.62010 0.86230 0.14700
C 	C 	0.52300 0.57680 0.87440 0.27600
C 	C 	0.48640 0.51850 0.87910 -0.26500
H 	H 	0.42610 0.51400 0.88290 0.10300
C 	C 	0.53830 0.46750 0.87830 0.13800
H 	H 	0.51240 0.42770 0.88230 -0.00300
C 	C 	0.00650 0.74570 0.65680 -0.42600
H 	H 	0.05670 0.71870 0.66350 0.14500
H 	H 	0.95490 0.72020 0.65020 0.14600
H 	H 	0.01210 0.77180 0.59670 0.17200
N 	N 	0.42290 0.65920 0.88320 -0.21800
H 	H 	0.38520 0.62940 0.89130 -0.25500
C 	C 	0.50830 0.65470 0.87380 -0.43200
O 	O 	0.55200 0.70380 0.88600 -0.03700
Cu	Cu	0.70157 0.39602 0.87819 0.84600
N 	N 	0.96090 0.12483 0.87860 -0.16700
H 	H 	0.90660 0.11520 0.88560 0.41700
C 	C 	0.98440 0.18600 0.87200 0.78600
O 	O 	0.05790 0.20240 0.85710 -0.26500
N 	N 	0.78450 0.32407 0.87930 -0.21400
C 	C 	0.82170 0.21640 0.87590 0.03800
H 	H 	0.80360 0.17430 0.87520 0.02200
O 	O 	0.60897 0.34028 0.84340 -0.39800
O 	O 	0.60200 0.35565 0.67790 -0.27900
N 	N 	0.12376 0.97056 0.87210 -0.26600
C 	C 	0.86800 0.33600 0.88020 -0.00100
H 	H 	0.88580 0.37810 0.88160 -0.01900
C 	C 	0.93060 0.29050 0.87910 -0.00400
H 	H 	0.98940 0.30160 0.88050 0.02600
C 	C 	0.90770 0.23060 0.87620 -0.16100
C 	C 	0.76070 0.26500 0.87670 -0.00900
H 	H 	0.70150 0.25510 0.87540 0.02600
C 	C 	0.57790 0.33090 0.75660 0.28600
C 	C 	0.15820 0.02653 0.86520 0.12000
H 	H 	0.21850 0.02960 0.85900 -0.05700
C 	C 	0.11090 0.08090 0.86660 -0.24100
H 	H 	0.13830 0.12010 0.86230 0.14700
C 	C 	0.02300 0.07680 0.87440 0.27600
C 	C 	0.98640 0.01850 0.87910 -0.26400
H 	H 	0.92610 0.01400 0.88290 0.10200
C 	C 	0.03830 0.96750 0.87830 0.13600
H 	H 	0.01240 0.92770 0.88230 -0.00300
C 	C 	0.50650 0.24570 0.65680 -0.42500
H 	H 	0.55670 0.21870 0.66350 0.14500
H 	H 	0.45490 0.22020 0.65020 0.14600
H 	H 	0.51210 0.27180 0.59670 0.17200
N 	N 	0.92290 0.15920 0.88320 -0.21700
H 	H 	0.88520 0.12940 0.89130 -0.26400
C 	C 	0.00830 0.15470 0.87380 -0.43500
O 	O 	0.05200 0.20380 0.88600 -0.03700
C 	C 	-0.00000 0.78680 0.75000 0.05800
C 	C 	0.50000 0.28680 0.75000 0.06000
