data_crystal

_cell_length_a 12.32140
_cell_length_b 12.32140
_cell_length_c 26.00260
_cell_angle_alpha 90.00000
_cell_angle_beta  90.00000
_cell_angle_gamma 90.00000

_symmetry_space_group_name_	'P 1'
_symmetry_space_group_name_H-M	'P 1'

loop_
_symmetry_equiv_pos_as_xyz
  x,y,z

loop_
_atom_site_label
_atom_site_type_symbol
_atom_site_fract_x
_atom_site_fract_y
_atom_site_fract_z
_atom_site_charge
Co	Co	0.19367 0.29859 0.31598 1.11200
C 	C 	0.17660 0.38190 0.40440 0.31300
C 	C 	0.17040 0.44200 0.45400 -0.11700
C 	C 	0.16100 0.55590 0.45440 0.04900
H 	H 	0.15780 0.59490 0.42380 0.02000
C 	C 	0.29570 0.01130 0.25370 0.08000
H 	H 	0.31740 0.96950 0.22580 -0.03400
C 	C 	0.24970 0.05800 0.32790 0.19700
N 	N 	0.24600 0.14770 0.29954 -0.26600
N 	N 	0.28140 0.97020 0.30100 -0.27900
N 	N 	0.22140 0.05490 0.37870 -0.34700
H 	H 	0.19980 0.11310 0.39390 0.15400
H 	H 	0.22520 0.99490 0.39550 0.16200
N 	N 	0.27630 0.11580 0.25042 -0.24300
O 	O 	0.16890 0.28120 0.40350 -0.40100
O 	O 	0.18880 0.43650 0.36294 -0.42000
Co	Co	0.69367 0.79859 0.81598 1.11300
C 	C 	0.67660 0.88190 0.90440 0.31400
C 	C 	0.67040 0.94200 0.95400 -0.11500
C 	C 	0.66100 0.05590 0.95440 0.05500
H 	H 	0.65780 0.09490 0.92380 0.01800
C 	C 	0.79570 0.51130 0.75370 0.08000
H 	H 	0.81740 0.46950 0.72580 -0.03400
C 	C 	0.74970 0.55800 0.82790 0.19700
N 	N 	0.74600 0.64770 0.79954 -0.26600
N 	N 	0.78140 0.47020 0.80100 -0.27900
N 	N 	0.72140 0.55490 0.87870 -0.34700
H 	H 	0.69980 0.61310 0.89390 0.15400
H 	H 	0.72520 0.49490 0.89550 0.16200
N 	N 	0.77630 0.61580 0.75042 -0.24300
O 	O 	0.66890 0.78120 0.90350 -0.40100
O 	O 	0.68880 0.93650 0.86294 -0.42000
Co	Co	0.80633 0.70141 0.31598 1.11300
C 	C 	0.82340 0.61810 0.40440 0.31400
C 	C 	0.82960 0.55800 0.45400 -0.11600
C 	C 	0.83900 0.44410 0.45440 0.05000
H 	H 	0.84220 0.40510 0.42380 0.02000
C 	C 	0.70430 0.98870 0.25370 0.08000
H 	H 	0.68260 0.03050 0.22580 -0.03400
C 	C 	0.75030 0.94200 0.32790 0.19700
N 	N 	0.75400 0.85230 0.29954 -0.26600
N 	N 	0.71860 0.02980 0.30100 -0.27900
N 	N 	0.77860 0.94510 0.37870 -0.34700
H 	H 	0.80020 0.88690 0.39390 0.15400
H 	H 	0.77480 0.00510 0.39550 0.16200
N 	N 	0.72370 0.88420 0.25042 -0.24300
O 	O 	0.83110 0.71880 0.40350 -0.40100
O 	O 	0.81120 0.56350 0.36294 -0.42000
Co	Co	0.30633 0.20141 0.81598 1.11300
C 	C 	0.32340 0.11810 0.90440 0.31400
C 	C 	0.32960 0.05800 0.95400 -0.11500
C 	C 	0.33900 0.94410 0.95440 0.05500
H 	H 	0.34220 0.90510 0.92380 0.01800
C 	C 	0.20430 0.48870 0.75370 0.08000
H 	H 	0.18260 0.53050 0.72580 -0.03400
C 	C 	0.25030 0.44200 0.82790 0.19700
N 	N 	0.25400 0.35230 0.79954 -0.26600
N 	N 	0.21860 0.52980 0.80100 -0.27900
N 	N 	0.27860 0.44510 0.87870 -0.34700
H 	H 	0.30020 0.38690 0.89390 0.15400
H 	H 	0.27480 0.50510 0.89550 0.16200
N 	N 	0.22370 0.38420 0.75042 -0.24300
O 	O 	0.33110 0.21880 0.90350 -0.40100
O 	O 	0.31120 0.06350 0.86294 -0.42000
Co	Co	0.70141 0.19367 0.31598 1.11300
C 	C 	0.61810 0.17660 0.40440 0.31400
C 	C 	0.55800 0.17040 0.45400 -0.11600
C 	C 	0.44410 0.16100 0.45440 0.05000
H 	H 	0.40510 0.15780 0.42380 0.02000
C 	C 	0.98870 0.29570 0.25370 0.08000
H 	H 	0.03050 0.31740 0.22580 -0.03400
C 	C 	0.94200 0.24970 0.32790 0.19700
N 	N 	0.85230 0.24600 0.29954 -0.26600
N 	N 	0.02980 0.28140 0.30100 -0.27900
N 	N 	0.94510 0.22140 0.37870 -0.34700
H 	H 	0.88690 0.19980 0.39390 0.15400
H 	H 	0.00510 0.22520 0.39550 0.16200
N 	N 	0.88420 0.27630 0.25042 -0.24300
O 	O 	0.71880 0.16890 0.40350 -0.40100
O 	O 	0.56350 0.18880 0.36294 -0.42000
Co	Co	0.20141 0.69367 0.81598 1.11300
C 	C 	0.11810 0.67660 0.90440 0.31400
C 	C 	0.05800 0.67040 0.95400 -0.11500
C 	C 	0.94410 0.66100 0.95440 0.05500
H 	H 	0.90510 0.65780 0.92380 0.01800
C 	C 	0.48870 0.79570 0.75370 0.08000
H 	H 	0.53050 0.81740 0.72580 -0.03400
C 	C 	0.44200 0.74970 0.82790 0.19700
N 	N 	0.35230 0.74600 0.79954 -0.26600
N 	N 	0.52980 0.78140 0.80100 -0.27900
N 	N 	0.44510 0.72140 0.87870 -0.34700
H 	H 	0.38690 0.69980 0.89390 0.15400
H 	H 	0.50510 0.72520 0.89550 0.16200
N 	N 	0.38420 0.77630 0.75042 -0.24300
O 	O 	0.21880 0.66890 0.90350 -0.40100
O 	O 	0.06350 0.68880 0.86294 -0.42000
Co	Co	0.29859 0.80633 0.31598 1.11300
C 	C 	0.38190 0.82340 0.40440 0.31400
C 	C 	0.44200 0.82960 0.45400 -0.11600
C 	C 	0.55590 0.83900 0.45440 0.05000
H 	H 	0.59490 0.84220 0.42380 0.02000
C 	C 	0.01130 0.70430 0.25370 0.08000
H 	H 	0.96950 0.68260 0.22580 -0.03400
C 	C 	0.05800 0.75030 0.32790 0.19700
N 	N 	0.14770 0.75400 0.29954 -0.26600
N 	N 	0.97020 0.71860 0.30100 -0.27900
N 	N 	0.05490 0.77860 0.37870 -0.34700
H 	H 	0.11310 0.80020 0.39390 0.15400
H 	H 	0.99490 0.77480 0.39550 0.16200
N 	N 	0.11580 0.72370 0.25042 -0.24300
O 	O 	0.28120 0.83110 0.40350 -0.40100
O 	O 	0.43650 0.81120 0.36294 -0.42000
Co	Co	0.79859 0.30633 0.81598 1.11300
C 	C 	0.88190 0.32340 0.90440 0.31400
C 	C 	0.94200 0.32960 0.95400 -0.11500
C 	C 	0.05590 0.33900 0.95440 0.05500
H 	H 	0.09490 0.34220 0.92380 0.01800
C 	C 	0.51130 0.20430 0.75370 0.08000
H 	H 	0.46950 0.18260 0.72580 -0.03400
C 	C 	0.55800 0.25030 0.82790 0.19700
N 	N 	0.64770 0.25400 0.79954 -0.26600
N 	N 	0.47020 0.21860 0.80100 -0.27900
N 	N 	0.55490 0.27860 0.87870 -0.34700
H 	H 	0.61310 0.30020 0.89390 0.15400
H 	H 	0.49490 0.27480 0.89550 0.16200
N 	N 	0.61580 0.22370 0.75042 -0.24300
O 	O 	0.78120 0.33110 0.90350 -0.40100
O 	O 	0.93650 0.31120 0.86294 -0.42000
Co	Co	0.80633 0.70141 0.68402 1.11300
C 	C 	0.82340 0.61810 0.59560 0.31400
C 	C 	0.82960 0.55800 0.54600 -0.11600
C 	C 	0.83900 0.44410 0.54560 0.05000
H 	H 	0.84220 0.40510 0.57620 0.02000
C 	C 	0.70430 0.98870 0.74630 0.08000
H 	H 	0.68260 0.03050 0.77420 -0.03400
C 	C 	0.75030 0.94200 0.67210 0.19700
N 	N 	0.75400 0.85230 0.70046 -0.26600
N 	N 	0.71860 0.02980 0.69900 -0.27900
N 	N 	0.77860 0.94510 0.62130 -0.34700
H 	H 	0.80020 0.88690 0.60610 0.15400
H 	H 	0.77480 0.00510 0.60450 0.16200
N 	N 	0.72370 0.88420 0.74958 -0.24300
O 	O 	0.83110 0.71880 0.59650 -0.40100
O 	O 	0.81120 0.56350 0.63706 -0.42000
Co	Co	0.30633 0.20141 0.18402 1.11300
C 	C 	0.32340 0.11810 0.09560 0.31500
C 	C 	0.32960 0.05800 0.04600 -0.11700
C 	C 	0.33900 0.94410 0.04560 0.05300
H 	H 	0.34220 0.90510 0.07620 0.01900
C 	C 	0.20430 0.48870 0.24630 0.08000
H 	H 	0.18260 0.53050 0.27420 -0.03400
C 	C 	0.25030 0.44200 0.17210 0.19700
N 	N 	0.25400 0.35230 0.20046 -0.26600
N 	N 	0.21860 0.52980 0.19900 -0.27900
N 	N 	0.27860 0.44510 0.12130 -0.34700
H 	H 	0.30020 0.38690 0.10610 0.15400
H 	H 	0.27480 0.50510 0.10450 0.16200
N 	N 	0.22370 0.38420 0.24958 -0.24300
O 	O 	0.33110 0.21880 0.09650 -0.40100
O 	O 	0.31120 0.06350 0.13706 -0.42000
Co	Co	0.19367 0.29859 0.68402 1.11300
C 	C 	0.17660 0.38190 0.59560 0.31400
C 	C 	0.17040 0.44200 0.54600 -0.11600
C 	C 	0.16100 0.55590 0.54560 0.05000
H 	H 	0.15780 0.59490 0.57620 0.02000
C 	C 	0.29570 0.01130 0.74630 0.08000
H 	H 	0.31740 0.96950 0.77420 -0.03400
C 	C 	0.24970 0.05800 0.67210 0.19700
N 	N 	0.24600 0.14770 0.70046 -0.26600
N 	N 	0.28140 0.97020 0.69900 -0.27900
N 	N 	0.22140 0.05490 0.62130 -0.34700
H 	H 	0.19980 0.11310 0.60610 0.15400
H 	H 	0.22520 0.99490 0.60450 0.16200
N 	N 	0.27630 0.11580 0.74958 -0.24300
O 	O 	0.16890 0.28120 0.59650 -0.40100
O 	O 	0.18880 0.43650 0.63706 -0.42000
Co	Co	0.69367 0.79859 0.18402 1.11300
C 	C 	0.67660 0.88190 0.09560 0.31500
C 	C 	0.67040 0.94200 0.04600 -0.11700
C 	C 	0.66100 0.05590 0.04560 0.05300
H 	H 	0.65780 0.09490 0.07620 0.01900
C 	C 	0.79570 0.51130 0.24630 0.08000
H 	H 	0.81740 0.46950 0.27420 -0.03400
C 	C 	0.74970 0.55800 0.17210 0.19700
N 	N 	0.74600 0.64770 0.20046 -0.26600
N 	N 	0.78140 0.47020 0.19900 -0.27900
N 	N 	0.72140 0.55490 0.12130 -0.34700
H 	H 	0.69980 0.61310 0.10610 0.15400
H 	H 	0.72520 0.49490 0.10450 0.16200
N 	N 	0.77630 0.61580 0.24958 -0.24300
O 	O 	0.66890 0.78120 0.09650 -0.40100
O 	O 	0.68880 0.93650 0.13706 -0.42000
Co	Co	0.29859 0.80633 0.68402 1.11300
C 	C 	0.38190 0.82340 0.59560 0.31400
C 	C 	0.44200 0.82960 0.54600 -0.11600
C 	C 	0.55590 0.83900 0.54560 0.05000
H 	H 	0.59490 0.84220 0.57620 0.02000
C 	C 	0.01130 0.70430 0.74630 0.08000
H 	H 	0.96950 0.68260 0.77420 -0.03400
C 	C 	0.05800 0.75030 0.67210 0.19700
N 	N 	0.14770 0.75400 0.70046 -0.26600
N 	N 	0.97020 0.71860 0.69900 -0.27900
N 	N 	0.05490 0.77860 0.62130 -0.34700
H 	H 	0.11310 0.80020 0.60610 0.15400
H 	H 	0.99490 0.77480 0.60450 0.16200
N 	N 	0.11580 0.72370 0.74958 -0.24300
O 	O 	0.28120 0.83110 0.59650 -0.40100
O 	O 	0.43650 0.81120 0.63706 -0.42000
Co	Co	0.79859 0.30633 0.18402 1.11300
C 	C 	0.88190 0.32340 0.09560 0.31500
C 	C 	0.94200 0.32960 0.04600 -0.11700
C 	C 	0.05590 0.33900 0.04560 0.05300
H 	H 	0.09490 0.34220 0.07620 0.01900
C 	C 	0.51130 0.20430 0.24630 0.08000
H 	H 	0.46950 0.18260 0.27420 -0.03400
C 	C 	0.55800 0.25030 0.17210 0.19700
N 	N 	0.64770 0.25400 0.20046 -0.26600
N 	N 	0.47020 0.21860 0.19900 -0.27900
N 	N 	0.55490 0.27860 0.12130 -0.34700
H 	H 	0.61310 0.30020 0.10610 0.15400
H 	H 	0.49490 0.27480 0.10450 0.16200
N 	N 	0.61580 0.22370 0.24958 -0.24300
O 	O 	0.78120 0.33110 0.09650 -0.40100
O 	O 	0.93650 0.31120 0.13706 -0.42000
Co	Co	0.70141 0.19367 0.68402 1.11300
C 	C 	0.61810 0.17660 0.59560 0.31400
C 	C 	0.55800 0.17040 0.54600 -0.11600
C 	C 	0.44410 0.16100 0.54560 0.05000
H 	H 	0.40510 0.15780 0.57620 0.02000
C 	C 	0.98870 0.29570 0.74630 0.08000
H 	H 	0.03050 0.31740 0.77420 -0.03400
C 	C 	0.94200 0.24970 0.67210 0.19700
N 	N 	0.85230 0.24600 0.70046 -0.26600
N 	N 	0.02980 0.28140 0.69900 -0.27900
N 	N 	0.94510 0.22140 0.62130 -0.34700
H 	H 	0.88690 0.19980 0.60610 0.15400
H 	H 	0.00510 0.22520 0.60450 0.16200
N 	N 	0.88420 0.27630 0.74958 -0.24300
O 	O 	0.71880 0.16890 0.59650 -0.40100
O 	O 	0.56350 0.18880 0.63706 -0.42000
Co	Co	0.20141 0.69367 0.18402 1.11300
C 	C 	0.11810 0.67660 0.09560 0.31500
C 	C 	0.05800 0.67040 0.04600 -0.11700
C 	C 	0.94410 0.66100 0.04560 0.05300
H 	H 	0.90510 0.65780 0.07620 0.01900
C 	C 	0.48870 0.79570 0.24630 0.08000
H 	H 	0.53050 0.81740 0.27420 -0.03400
C 	C 	0.44200 0.74970 0.17210 0.19700
N 	N 	0.35230 0.74600 0.20046 -0.26600
N 	N 	0.52980 0.78140 0.19900 -0.27900
N 	N 	0.44510 0.72140 0.12130 -0.34700
H 	H 	0.38690 0.69980 0.10610 0.15400
H 	H 	0.50510 0.72520 0.10450 0.16200
N 	N 	0.38420 0.77630 0.24958 -0.24300
O 	O 	0.21880 0.66890 0.09650 -0.40100
O 	O 	0.06350 0.68880 0.13706 -0.42000
C 	C 	0.17240 0.38580 0.50000 0.04900
H 	H 	0.17520 0.31040 0.50000 0.03100
C 	C 	0.15660 0.60690 0.50000 -0.12100
H 	H 	0.15020 0.68210 0.50000 0.07400
C 	C 	0.67240 0.88580 -0.00000 0.04700
H 	H 	0.67520 0.81040 -0.00000 0.03100
C 	C 	0.65660 0.10690 -0.00000 -0.12800
H 	H 	0.65020 0.18210 -0.00000 0.07600
C 	C 	0.82760 0.61420 0.50000 0.04900
H 	H 	0.82480 0.68960 0.50000 0.03100
C 	C 	0.84340 0.39310 0.50000 -0.12100
H 	H 	0.84980 0.31790 0.50000 0.07400
C 	C 	0.32760 0.11420 -0.00000 0.04700
H 	H 	0.32480 0.18960 -0.00000 0.03100
C 	C 	0.34340 0.89310 -0.00000 -0.12800
H 	H 	0.34980 0.81790 -0.00000 0.07600
C 	C 	0.61420 0.17240 0.50000 0.04900
H 	H 	0.68960 0.17520 0.50000 0.03100
C 	C 	0.39310 0.15660 0.50000 -0.12100
H 	H 	0.31790 0.15020 0.50000 0.07400
C 	C 	0.11420 0.67240 -0.00000 0.04700
H 	H 	0.18960 0.67520 -0.00000 0.03100
C 	C 	0.89310 0.65660 -0.00000 -0.12800
H 	H 	0.81790 0.65020 -0.00000 0.07600
C 	C 	0.38580 0.82760 0.50000 0.04900
H 	H 	0.31040 0.82480 0.50000 0.03100
C 	C 	0.60690 0.84340 0.50000 -0.12100
H 	H 	0.68210 0.84980 0.50000 0.07400
C 	C 	0.88580 0.32760 -0.00000 0.04700
H 	H 	0.81040 0.32480 -0.00000 0.03100
C 	C 	0.10690 0.34340 -0.00000 -0.12800
H 	H 	0.18210 0.34980 -0.00000 0.07600
