data_crystal

_cell_length_a 7.25900
_cell_length_b 13.40700
_cell_length_c 18.03100
_cell_angle_alpha 90.00000
_cell_angle_beta  90.00000
_cell_angle_gamma 90.00000

_symmetry_space_group_name_	'P 1'
_symmetry_space_group_name_H-M	'P 1'

loop_
_symmetry_equiv_pos_as_xyz
  x,y,z

loop_
_atom_site_label
_atom_site_type_symbol
_atom_site_fract_x
_atom_site_fract_y
_atom_site_fract_z
_atom_site_charge
Zn	Zn	0.48650 0.61494 0.20659 1.21600
Zn	Zn	0.49920 0.37066 0.22291 1.21600
Zn	Zn	0.85720 0.49846 0.41877 1.23900
Zn	Zn	0.05360 0.85794 0.30279 1.21600
Zn	Zn	0.94240 0.61190 0.18609 1.21800
P 	P 	0.68230 0.48040 0.09340 0.54800
P 	P 	0.73960 0.69080 0.32910 0.55000
P 	P 	0.24040 0.78870 0.15260 0.58000
P 	P 	0.18950 0.49610 0.29300 0.57400
O 	O 	0.40600 0.72090 0.14230 -0.48400
O 	O 	0.53130 0.48550 0.15690 -0.64400
O 	O 	0.30300 0.58930 0.28140 -0.51400
O 	O 	0.30460 0.40330 0.29040 -0.51900
O 	O 	0.57300 0.76420 0.33910 -0.46800
O 	O 	0.71180 0.61220 0.38650 -0.44800
O 	O 	0.58190 0.47670 0.02120 -0.43000
O 	O 	0.23840 0.86290 0.09110 -0.44300
O 	O 	0.09360 0.50520 0.36660 -0.44200
O 	O 	0.92900 0.74050 0.33550 -0.49300
O 	O 	0.25900 0.84080 0.22870 -0.66000
O 	O 	0.79850 0.38720 0.10990 -0.48100
O 	O 	0.04340 0.48880 0.23060 -0.67800
O 	O 	0.79900 0.57190 0.09870 -0.49400
O 	O 	0.72630 0.64790 0.24950 -0.65800
O 	O 	0.06000 0.73090 0.15250 -0.50200
Zn	Zn	0.01350 0.38506 0.70659 1.21600
Zn	Zn	0.00080 0.62934 0.72291 1.21600
Zn	Zn	0.64280 0.50154 0.91877 1.23800
Zn	Zn	0.44640 0.14206 0.80279 1.21700
Zn	Zn	0.55760 0.38810 0.68609 1.21800
P 	P 	0.81770 0.51960 0.59340 0.54800
P 	P 	0.76040 0.30920 0.82910 0.55000
P 	P 	0.25960 0.21130 0.65260 0.58000
P 	P 	0.31050 0.50390 0.79300 0.57400
O 	O 	0.09400 0.27910 0.64230 -0.48300
O 	O 	0.96870 0.51450 0.65690 -0.64300
O 	O 	0.19700 0.41070 0.78140 -0.51300
O 	O 	0.19540 0.59670 0.79040 -0.51900
O 	O 	0.92700 0.23580 0.83910 -0.47000
O 	O 	0.78820 0.38780 0.88650 -0.44900
O 	O 	0.91810 0.52330 0.52120 -0.42900
O 	O 	0.26160 0.13710 0.59110 -0.44300
O 	O 	0.40640 0.49480 0.86660 -0.44100
O 	O 	0.57100 0.25950 0.83550 -0.49500
O 	O 	0.24100 0.15920 0.72870 -0.65900
O 	O 	0.70150 0.61280 0.60990 -0.48100
O 	O 	0.45660 0.51120 0.73060 -0.67800
O 	O 	0.70100 0.42810 0.59870 -0.49400
O 	O 	0.77370 0.35210 0.74950 -0.65800
O 	O 	0.44000 0.26910 0.65250 -0.50200
Zn	Zn	0.51350 0.11494 0.29341 1.21600
Zn	Zn	0.50080 0.87066 0.27709 1.21600
Zn	Zn	0.14280 0.99846 0.08123 1.23800
Zn	Zn	0.94640 0.35794 0.19721 1.21700
Zn	Zn	0.05760 0.11190 0.31391 1.21800
P 	P 	0.31770 0.98040 0.40660 0.54700
P 	P 	0.26040 0.19080 0.17090 0.55000
P 	P 	0.75960 0.28870 0.34740 0.58000
P 	P 	0.81050 0.99610 0.20700 0.57500
O 	O 	0.59400 0.22090 0.35770 -0.48400
O 	O 	0.46870 0.98550 0.34310 -0.64400
O 	O 	0.69700 0.08930 0.21860 -0.51400
O 	O 	0.69540 0.90330 0.20960 -0.51900
O 	O 	0.42700 0.26420 0.16090 -0.46800
O 	O 	0.28820 0.11220 0.11350 -0.44700
O 	O 	0.41810 0.97670 0.47880 -0.42900
O 	O 	0.76160 0.36290 0.40890 -0.44300
O 	O 	0.90640 0.00520 0.13340 -0.44300
O 	O 	0.07100 0.24050 0.16450 -0.49400
O 	O 	0.74100 0.34080 0.27130 -0.65900
O 	O 	0.20150 0.88720 0.39010 -0.48200
O 	O 	0.95660 0.98880 0.26940 -0.67600
O 	O 	0.20100 0.07190 0.40130 -0.49400
O 	O 	0.27370 0.14790 0.25050 -0.65800
O 	O 	0.94000 0.23090 0.34750 -0.50200
Zn	Zn	0.98650 0.88506 0.79341 1.21700
Zn	Zn	0.99920 0.12934 0.77709 1.21500
Zn	Zn	0.35720 0.00154 0.58123 1.23800
Zn	Zn	0.55360 0.64206 0.69721 1.21700
Zn	Zn	0.44240 0.88810 0.81391 1.21800
P 	P 	0.18230 0.01960 0.90660 0.54600
P 	P 	0.23960 0.80920 0.67090 0.55000
P 	P 	0.74040 0.71130 0.84740 0.58000
P 	P 	0.68950 0.00390 0.70700 0.56900
O 	O 	0.90600 0.77910 0.85770 -0.48300
O 	O 	0.03130 0.01450 0.84310 -0.64200
O 	O 	0.80300 0.91070 0.71860 -0.51000
O 	O 	0.80460 0.09670 0.70960 -0.52000
O 	O 	0.07300 0.73580 0.66090 -0.46900
O 	O 	0.21180 0.88780 0.61350 -0.44800
O 	O 	0.08190 0.02330 0.97880 -0.43000
O 	O 	0.73840 0.63710 0.90890 -0.44300
O 	O 	0.59360 0.99480 0.63340 -0.43800
O 	O 	0.42900 0.75950 0.66450 -0.49500
O 	O 	0.75900 0.65920 0.77130 -0.65900
O 	O 	0.29850 0.11280 0.89010 -0.48200
O 	O 	0.54340 0.01120 0.76940 -0.67900
O 	O 	0.29900 0.92810 0.90130 -0.49200
O 	O 	0.22630 0.85210 0.75050 -0.65800
O 	O 	0.56000 0.76910 0.84750 -0.50200
