data_crystal

_cell_length_a 11.08170
_cell_length_b 13.25730
_cell_length_c 21.72500
_cell_angle_alpha 82.84000
_cell_angle_beta  77.26300
_cell_angle_gamma 71.66000

_symmetry_space_group_name_	'P 1'
_symmetry_space_group_name_H-M	'P 1'

loop_
_symmetry_equiv_pos_as_xyz
  x,y,z

loop_
_atom_site_label
_atom_site_type_symbol
_atom_site_fract_x
_atom_site_fract_y
_atom_site_fract_z
_atom_site_charge
Cu	Cu	0.23621 0.55266 0.74918 0.89700
Cu	Cu	0.25467 0.06157 0.78984 0.89700
Cu	Cu	0.46085 0.20682 0.02542 0.88900
Cu	Cu	0.06337 0.79113 0.44417 0.88900
Cu	Cu	0.76379 0.44734 0.25082 0.89800
Cu	Cu	0.74533 0.93843 0.21016 0.89800
Cu	Cu	0.53915 0.79318 0.97458 0.88900
Cu	Cu	0.93663 0.20887 0.55583 0.88900
H 	H 	0.96680 0.53760 0.79480 0.03100
H 	H 	0.72230 0.77790 0.71180 0.04800
H 	H 	0.90000 0.81890 0.64880 0.06500
H 	H 	0.10390 0.72460 0.66500 0.03000
H 	H 	0.44610 0.85260 0.80710 0.03700
H 	H 	0.08920 0.96400 0.89610 0.01100
H 	H 	0.09100 0.79780 0.94240 0.07400
H 	H 	0.27770 0.65660 0.92350 0.04700
H 	H 	0.50030 0.40410 0.95460 0.02900
H 	H 	0.74220 0.11900 0.96860 0.00700
H 	H 	0.90820 0.17350 0.90650 0.06900
H 	H 	0.87340 0.35020 0.87140 0.05500
H 	H 	0.89860 0.57800 0.91700 0.06000
H 	H 	0.58250 0.46140 0.59140 0.06000
H 	H 	0.79290 0.83520 0.43980 0.00400
H 	H 	0.61130 0.79520 0.49670 0.07200
H 	H 	0.63150 0.66320 0.57780 0.05700
H 	H 	0.01320 0.61410 0.53730 0.03000
H 	H 	0.20850 0.42300 0.60980 0.05700
H 	H 	0.41130 0.31240 0.62360 0.07300
H 	H 	0.42830 0.16720 0.69170 0.02300
H 	H 	0.05070 0.24130 0.74410 0.04400
H 	H 	0.51350 0.54350 0.70710 0.02500
H 	H 	0.35170 0.34760 0.81690 0.02900
H 	H 	0.55040 0.23270 0.82870 0.08000
H 	H 	0.73810 0.27040 0.77410 0.04800
H 	H 	0.65650 0.08960 0.70610 0.06000
H 	H 	0.92200 0.91610 0.84640 0.04500
H 	H 	0.03320 0.46240 0.20520 0.03100
H 	H 	0.27770 0.22210 0.28820 0.04800
H 	H 	0.10000 0.18110 0.35120 0.06500
H 	H 	0.89610 0.27540 0.33500 0.03000
H 	H 	0.55390 0.14740 0.19290 0.03700
H 	H 	0.91080 0.03600 0.10390 0.01100
H 	H 	0.90900 0.20220 0.05760 0.07400
H 	H 	0.72230 0.34340 0.07650 0.04700
H 	H 	0.49970 0.59590 0.04540 0.02900
H 	H 	0.25780 0.88100 0.03140 0.00700
H 	H 	0.09180 0.82650 0.09350 0.06900
H 	H 	0.12660 0.64980 0.12860 0.05500
H 	H 	0.10140 0.42200 0.08300 0.06000
H 	H 	0.41750 0.53860 0.40860 0.06000
H 	H 	0.20710 0.16480 0.56020 0.00400
H 	H 	0.38870 0.20480 0.50330 0.07200
H 	H 	0.36850 0.33680 0.42220 0.05700
H 	H 	0.98680 0.38590 0.46270 0.03000
H 	H 	0.79150 0.57700 0.39020 0.05700
H 	H 	0.58870 0.68760 0.37640 0.07300
H 	H 	0.57170 0.83280 0.30830 0.02300
H 	H 	0.94930 0.75870 0.25590 0.04400
H 	H 	0.48650 0.45650 0.29290 0.02500
H 	H 	0.64830 0.65240 0.18310 0.02900
H 	H 	0.44960 0.76730 0.17130 0.08000
H 	H 	0.26190 0.72960 0.22590 0.04800
H 	H 	0.34350 0.91040 0.29390 0.06000
H 	H 	0.07800 0.08390 0.15360 0.04500
C 	C 	0.95320 0.59590 0.76570 0.04000
C 	C 	0.82700 0.65150 0.76030 -0.03900
C 	C 	0.80600 0.73810 0.71620 0.00500
C 	C 	0.91090 0.76320 0.67970 -0.08500
C 	C 	0.03360 0.70500 0.68920 0.05300
C 	C 	0.72000 0.62030 0.80290 0.14100
C 	C 	0.65020 0.50280 0.87590 0.14200
C 	C 	0.51040 0.66030 0.85120 0.12200
C 	C 	0.38340 0.74040 0.86410 -0.06300
C 	C 	0.37390 0.84180 0.83500 0.02800
C 	C 	0.16350 0.90700 0.88660 0.05200
C 	C 	0.16490 0.80760 0.91550 -0.10000
C 	C 	0.27550 0.72370 0.90430 -0.00200
C 	C 	0.68000 0.39500 0.90700 -0.04200
C 	C 	0.58310 0.35690 0.94460 0.04200
C 	C 	0.72570 0.18960 0.95290 0.04500
C 	C 	0.82630 0.22210 0.91630 -0.08700
C 	C 	0.80540 0.32610 0.89430 -0.00100
C 	C 	0.12390 0.46260 0.86780 0.31600
C 	C 	0.06540 0.47830 0.93730 -0.04000
C 	C 	0.93960 0.54650 0.95060 -0.01300
C 	C 	0.12810 0.42980 0.98780 -0.04100
C 	C 	0.26130 0.35040 0.97920 0.30500
C 	C 	0.36540 0.60420 0.61700 0.32500
C 	C 	0.43000 0.55280 0.55490 -0.04500
C 	C 	0.54900 0.47720 0.55440 -0.01600
C 	C 	0.37970 0.57610 0.49910 -0.03900
C 	C 	0.25160 0.65840 0.49580 0.29600
C 	C 	0.80160 0.78170 0.47210 0.04600
C 	C 	0.69230 0.75820 0.50600 -0.09000
C 	C 	0.70430 0.67940 0.55370 -0.00100
C 	C 	0.82740 0.62440 0.56530 -0.04200
C 	C 	0.93100 0.65170 0.52960 0.04000
C 	C 	0.84490 0.53790 0.61590 0.13800
C 	C 	0.75950 0.43990 0.69520 0.13900
C 	C 	0.97620 0.40420 0.66730 0.12600
C 	C 	0.10750 0.34090 0.67590 -0.03900
C 	C 	0.21660 0.36460 0.63880 -0.01200
C 	C 	0.33660 0.29810 0.64680 -0.09200
C 	C 	0.34610 0.21200 0.68830 0.04800
C 	C 	0.12400 0.25450 0.71860 0.03500
C 	C 	0.64360 0.41230 0.73340 -0.04100
C 	C 	0.52140 0.47920 0.73090 0.04100
C 	C 	0.42620 0.36480 0.79610 0.05800
C 	C 	0.54550 0.29470 0.80280 -0.09300
C 	C 	0.65690 0.31700 0.77090 0.00500
C 	C 	0.05850 0.00320 0.75590 0.32100
C 	C 	0.91880 0.00370 0.76370 -0.04700
C 	C 	0.83810 0.05420 0.72170 -0.03500
C 	C 	0.70930 0.05610 0.73500 -0.02200
C 	C 	0.65710 0.00830 0.79170 -0.03900
C 	C 	0.73900 0.95370 0.83390 -0.05300
C 	C 	0.86740 0.95260 0.81870 -0.00200
C 	C 	0.88720 0.11440 0.66300 0.28100
C 	C 	0.51190 0.03350 0.81220 0.31100
C 	C 	0.69150 0.90020 0.89390 0.31200
C 	C 	0.04680 0.40410 0.23430 0.04000
C 	C 	0.17300 0.34850 0.23970 -0.03900
C 	C 	0.19400 0.26190 0.28380 0.00500
C 	C 	0.08910 0.23680 0.32030 -0.08500
C 	C 	0.96640 0.29500 0.31080 0.05300
C 	C 	0.28000 0.37970 0.19710 0.14100
C 	C 	0.34980 0.49720 0.12410 0.14200
C 	C 	0.48960 0.33970 0.14880 0.12200
C 	C 	0.61660 0.25960 0.13590 -0.06300
C 	C 	0.62610 0.15820 0.16500 0.02800
C 	C 	0.83650 0.09300 0.11340 0.05200
C 	C 	0.83510 0.19240 0.08450 -0.10000
C 	C 	0.72450 0.27630 0.09570 -0.00200
C 	C 	0.32000 0.60500 0.09300 -0.04200
C 	C 	0.41690 0.64310 0.05540 0.04200
C 	C 	0.27430 0.81040 0.04710 0.04500
C 	C 	0.17370 0.77790 0.08370 -0.08700
C 	C 	0.19460 0.67390 0.10570 -0.00100
C 	C 	0.87610 0.53740 0.13220 0.31600
C 	C 	0.93460 0.52170 0.06270 -0.04000
C 	C 	0.06040 0.45350 0.04940 -0.01300
C 	C 	0.87190 0.57020 0.01220 -0.04100
C 	C 	0.73870 0.64960 0.02080 0.30500
C 	C 	0.63460 0.39580 0.38300 0.32500
C 	C 	0.57000 0.44720 0.44510 -0.04500
C 	C 	0.45100 0.52280 0.44560 -0.01600
C 	C 	0.62030 0.42390 0.50090 -0.03900
C 	C 	0.74840 0.34160 0.50420 0.29600
C 	C 	0.19840 0.21830 0.52790 0.04600
C 	C 	0.30770 0.24180 0.49400 -0.09000
C 	C 	0.29570 0.32060 0.44630 -0.00100
C 	C 	0.17260 0.37560 0.43470 -0.04200
C 	C 	0.06900 0.34830 0.47040 0.04000
C 	C 	0.15510 0.46210 0.38410 0.13800
C 	C 	0.24050 0.56010 0.30480 0.13900
C 	C 	0.02380 0.59580 0.33270 0.12600
C 	C 	0.89250 0.65910 0.32410 -0.03900
C 	C 	0.78340 0.63540 0.36120 -0.01200
C 	C 	0.66340 0.70190 0.35320 -0.09200
C 	C 	0.65390 0.78800 0.31170 0.04800
C 	C 	0.87600 0.74550 0.28140 0.03500
C 	C 	0.35640 0.58770 0.26660 -0.04100
C 	C 	0.47860 0.52080 0.26910 0.04100
C 	C 	0.57380 0.63520 0.20390 0.05800
C 	C 	0.45450 0.70530 0.19720 -0.09300
C 	C 	0.34310 0.68300 0.22910 0.00500
C 	C 	0.94150 0.99680 0.24410 0.32100
C 	C 	0.08120 0.99630 0.23630 -0.04700
C 	C 	0.16190 0.94580 0.27830 -0.03500
C 	C 	0.29070 0.94390 0.26500 -0.02200
C 	C 	0.34290 0.99170 0.20830 -0.03900
C 	C 	0.26100 0.04630 0.16610 -0.05300
C 	C 	0.13260 0.04740 0.18130 -0.00200
C 	C 	0.11280 0.88560 0.33700 0.28100
C 	C 	0.48810 0.96650 0.18780 0.31100
C 	C 	0.30850 0.09980 0.10610 0.31200
N 	N 	0.05670 0.62150 0.73160 -0.20700
N 	N 	0.75020 0.52750 0.83710 -0.14700
N 	N 	0.53000 0.56720 0.88680 -0.15100
N 	N 	0.60000 0.68590 0.80630 -0.14500
N 	N 	0.26690 0.92390 0.84500 -0.20500
N 	N 	0.60270 0.25620 0.96720 -0.21800
N 	N 	0.92060 0.73010 0.48390 -0.22100
N 	N 	0.73690 0.52160 0.65270 -0.14700
N 	N 	0.87470 0.38040 0.70620 -0.14500
N 	N 	0.96540 0.48290 0.62110 -0.14700
N 	N 	0.24140 0.18780 0.72550 -0.20100
N 	N 	0.41360 0.45630 0.76090 -0.20700
N 	N 	0.94330 0.37850 0.26840 -0.20700
N 	N 	0.24980 0.47250 0.16290 -0.14700
N 	N 	0.47000 0.43280 0.11320 -0.15100
N 	N 	0.40000 0.31410 0.19370 -0.14500
N 	N 	0.73310 0.07610 0.15500 -0.20500
N 	N 	0.39730 0.74380 0.03280 -0.21800
N 	N 	0.07940 0.26990 0.51610 -0.22100
N 	N 	0.26310 0.47840 0.34730 -0.14700
N 	N 	0.12530 0.61960 0.29380 -0.14500
N 	N 	0.03460 0.51710 0.37890 -0.14700
N 	N 	0.75860 0.81220 0.27450 -0.20100
N 	N 	0.58640 0.54370 0.23910 -0.20700
O 	O 	0.30230 0.55020 0.65590 -0.38200
O 	O 	0.38670 0.68610 0.62730 -0.25900
O 	O 	0.19840 0.72270 0.53710 -0.29700
O 	O 	0.20390 0.65920 0.44690 -0.36800
O 	O 	0.17250 0.53740 0.84030 -0.38200
O 	O 	0.11330 0.39020 0.84130 -0.28000
O 	O 	0.32180 0.33770 0.02510 -0.37300
O 	O 	0.30610 0.30110 0.93110 -0.28100
O 	O 	0.07580 0.06710 0.78890 -0.38700
O 	O 	0.14560 0.93540 0.72290 -0.27000
O 	O 	0.98810 0.13960 0.65930 -0.31000
O 	O 	0.82280 0.13900 0.61840 -0.37000
O 	O 	0.44800 0.02990 0.77090 -0.38100
O 	O 	0.46410 0.06000 0.86730 -0.28900
O 	O 	0.62590 0.83900 0.89180 -0.37500
O 	O 	0.71870 0.91890 0.94400 -0.29000
O 	O 	0.69770 0.44980 0.34410 -0.38200
O 	O 	0.61330 0.31390 0.37270 -0.25900
O 	O 	0.80160 0.27730 0.46290 -0.29700
O 	O 	0.79610 0.34080 0.55310 -0.36800
O 	O 	0.82750 0.46260 0.15970 -0.38200
O 	O 	0.88670 0.60980 0.15870 -0.28000
O 	O 	0.67820 0.66230 0.97490 -0.37300
O 	O 	0.69390 0.69890 0.06890 -0.28100
O 	O 	0.92420 0.93290 0.21110 -0.38700
O 	O 	0.85440 0.06460 0.27710 -0.27000
O 	O 	0.01190 0.86040 0.34070 -0.31000
O 	O 	0.17720 0.86100 0.38160 -0.37000
O 	O 	0.55200 0.97010 0.22910 -0.38100
O 	O 	0.53590 0.94000 0.13270 -0.28900
O 	O 	0.37410 0.16100 0.10820 -0.37500
O 	O 	0.28130 0.08110 0.05600 -0.29000
