data_crystal

_cell_length_a 17.11260
_cell_length_b 27.76600
_cell_length_c 9.32750
_cell_angle_alpha 90.00000
_cell_angle_beta  92.04600
_cell_angle_gamma 90.00000

_symmetry_space_group_name_	'P 1'
_symmetry_space_group_name_H-M	'P 1'

loop_
_symmetry_equiv_pos_as_xyz
  x,y,z

loop_
_atom_site_label
_atom_site_type_symbol
_atom_site_fract_x
_atom_site_fract_y
_atom_site_fract_z
_atom_site_charge
Zn	Zn	0.00208 0.29272 0.92829 1.21200
C 	C 	0.42920 0.42116 0.75240 -0.17700
C 	C 	0.50860 0.62545 0.62370 0.15000
H 	H 	0.51470 0.64180 0.53780 -0.00900
C 	C 	0.42940 0.47116 0.75270 0.14000
O 	O 	0.50370 0.72458 0.63250 -0.51500
C 	C 	0.35310 0.39523 0.75290 0.24600
C 	C 	0.50800 0.57617 0.62460 -0.23500
H 	H 	0.51320 0.55960 0.53870 0.12000
C 	C 	0.20740 0.34955 0.75540 -0.30200
C 	C 	0.12890 0.32665 0.75610 0.54500
O 	O 	0.10360 0.31510 0.87090 -0.57500
N 	N 	0.99970 0.28080 0.13260 -0.29200
O 	O 	0.09230 0.32290 0.64030 -0.58300
C 	C 	0.25900 0.34380 0.65440 0.16200
H 	H 	0.24480 0.32440 0.57660 -0.02400
C 	C 	0.23250 0.38090 0.86800 -0.02100
H 	H 	0.19880 0.38790 0.94110 0.03600
C 	C 	0.33230 0.36440 0.65600 -0.20600
H 	H 	0.36720 0.35600 0.58600 0.10900
C 	C 	0.30430 0.40050 0.86980 -0.04400
H 	H 	0.32200 0.41780 0.94990 0.05100
C 	C 	0.93150 0.24480 0.18300 0.00700
C 	C 	0.07610 0.24800 0.18800 -0.03100
C 	C 	0.26050 0.34100 0.85360 0.21200
H 	H 	0.24910 0.31990 0.92740 -0.03700
C 	C 	0.22260 0.38280 0.64430 0.03300
H 	H 	0.18470 0.38970 0.57340 0.02100
C 	C 	0.29580 0.40470 0.64410 -0.10800
H 	H 	0.30720 0.42600 0.57070 0.07300
C 	C 	0.33380 0.36220 0.85320 -0.24200
H 	H 	0.37100 0.35350 0.92370 0.12100
N 	N 	0.35870 0.49760 0.75380 -0.12500
Zn	Zn	0.50208 0.79272 0.92829 1.22200
C 	C 	0.92920 0.92116 0.75240 -0.15400
C 	C 	0.00860 0.12545 0.62370 0.14700
H 	H 	0.01470 0.14180 0.53780 -0.01000
C 	C 	0.92940 0.97116 0.75270 0.15300
O 	O 	0.00370 0.22458 0.63250 -0.51700
C 	C 	0.85310 0.89523 0.75290 0.23800
C 	C 	0.00800 0.07617 0.62460 -0.23100
H 	H 	0.01320 0.05960 0.53870 0.11600
C 	C 	0.70740 0.84955 0.75540 -0.29600
C 	C 	0.62890 0.82665 0.75610 0.54200
O 	O 	0.60360 0.81510 0.87090 -0.56900
N 	N 	0.49970 0.78080 0.13260 -0.31300
O 	O 	0.59230 0.82290 0.64030 -0.57500
C 	C 	0.75900 0.84380 0.65440 0.15800
H 	H 	0.74480 0.82440 0.57660 -0.02200
C 	C 	0.73250 0.88090 0.86800 -0.01900
H 	H 	0.69880 0.88790 0.94110 0.03800
C 	C 	0.83230 0.86440 0.65600 -0.20000
H 	H 	0.86720 0.85600 0.58600 0.10900
C 	C 	0.80430 0.90050 0.86980 -0.04500
H 	H 	0.82200 0.91780 0.94990 0.05400
C 	C 	0.43150 0.74480 0.18300 0.00400
C 	C 	0.57610 0.74800 0.18800 -0.02200
C 	C 	0.76050 0.84100 0.85360 0.20500
H 	H 	0.74910 0.81990 0.92740 -0.03300
C 	C 	0.72260 0.88280 0.64430 0.03100
H 	H 	0.68470 0.88970 0.57340 0.02300
C 	C 	0.79580 0.90470 0.64410 -0.10600
H 	H 	0.80720 0.92600 0.57070 0.07400
C 	C 	0.83380 0.86220 0.85320 -0.23500
H 	H 	0.87100 0.85350 0.92370 0.12400
N 	N 	0.85870 0.99760 0.75380 -0.12300
Zn	Zn	0.99792 0.29272 0.57171 1.23000
C 	C 	0.57080 0.42116 0.74760 -0.17500
C 	C 	0.49140 0.62545 0.87630 0.15000
H 	H 	0.48530 0.64180 0.96220 -0.00900
C 	C 	0.57060 0.47116 0.74730 0.13900
O 	O 	0.49630 0.72458 0.86750 -0.51500
C 	C 	0.64690 0.39523 0.74710 0.24300
C 	C 	0.49200 0.57617 0.87540 -0.23500
H 	H 	0.48680 0.55960 0.96130 0.12000
C 	C 	0.79260 0.34955 0.74460 -0.29500
C 	C 	0.87110 0.32665 0.74390 0.54000
O 	O 	0.89640 0.31510 0.62910 -0.56200
N 	N 	0.00030 0.28080 0.36740 -0.31600
O 	O 	0.90770 0.32290 0.85970 -0.56700
C 	C 	0.74100 0.34380 0.84560 0.15900
H 	H 	0.75520 0.32440 0.92340 -0.02100
C 	C 	0.76750 0.38090 0.63200 -0.02100
H 	H 	0.80120 0.38790 0.55890 0.04100
C 	C 	0.66770 0.36440 0.84400 -0.20300
H 	H 	0.63280 0.35600 0.91400 0.10800
C 	C 	0.69570 0.40050 0.63020 -0.04200
H 	H 	0.67800 0.41780 0.55010 0.05200
C 	C 	0.06850 0.24480 0.31700 0.00400
C 	C 	0.92390 0.24800 0.31200 -0.00800
C 	C 	0.73950 0.34100 0.64640 0.20700
H 	H 	0.75090 0.31990 0.57260 -0.03400
C 	C 	0.77740 0.38280 0.85570 0.03200
H 	H 	0.81530 0.38970 0.92660 0.02500
C 	C 	0.70420 0.40470 0.85590 -0.10500
H 	H 	0.69280 0.42600 0.92930 0.07400
C 	C 	0.66620 0.36220 0.64680 -0.24000
H 	H 	0.62900 0.35350 0.57630 0.12100
N 	N 	0.64130 0.49760 0.74620 -0.12400
Zn	Zn	0.49792 0.79272 0.57171 1.22200
C 	C 	0.07080 0.92116 0.74760 -0.17000
C 	C 	0.99140 0.12545 0.87630 0.16700
H 	H 	0.98530 0.14180 0.96220 -0.00800
C 	C 	0.07060 0.97116 0.74730 0.13700
O 	O 	0.99630 0.22458 0.86750 -0.48900
C 	C 	0.14690 0.89523 0.74710 0.23900
C 	C 	0.99200 0.07617 0.87540 -0.21000
H 	H 	0.98680 0.05960 0.96130 0.12000
C 	C 	0.29260 0.84955 0.74460 -0.29700
C 	C 	0.37110 0.82665 0.74390 0.54200
O 	O 	0.39640 0.81510 0.62910 -0.56900
N 	N 	0.50030 0.78080 0.36740 -0.31300
O 	O 	0.40770 0.82290 0.85970 -0.57600
C 	C 	0.24100 0.84380 0.84560 0.15700
H 	H 	0.25520 0.82440 0.92340 -0.02200
C 	C 	0.26750 0.88090 0.63200 -0.02300
H 	H 	0.30120 0.88790 0.55890 0.03900
C 	C 	0.16770 0.86440 0.84400 -0.20000
H 	H 	0.13280 0.85600 0.91400 0.10600
C 	C 	0.19570 0.90050 0.63020 -0.04100
H 	H 	0.17800 0.91780 0.55010 0.04900
C 	C 	0.56850 0.74480 0.31700 0.00300
C 	C 	0.42390 0.74800 0.31200 -0.02300
C 	C 	0.23950 0.84100 0.64640 0.20800
H 	H 	0.25090 0.81990 0.57260 -0.03500
C 	C 	0.27740 0.88280 0.85570 0.03300
H 	H 	0.31530 0.88970 0.92660 0.02200
C 	C 	0.20420 0.90470 0.85590 -0.10700
H 	H 	0.19280 0.92600 0.92930 0.07300
C 	C 	0.16620 0.86220 0.64680 -0.23900
H 	H 	0.12900 0.85350 0.57630 0.11700
N 	N 	0.14130 0.99760 0.74620 -0.12500
C 	C 	0.00000 0.29386 0.25000 0.19500
C 	C 	0.50000 0.79386 0.25000 0.22200
C 	C 	0.50000 0.49710 0.75000 -0.15300
C 	C 	0.50000 0.39660 0.75000 0.13900
C 	C 	0.50000 0.55030 0.75000 0.19700
C 	C 	0.50000 0.65130 0.75000 -0.22600
C 	C 	0.50000 0.70440 0.75000 0.48000
N 	N 	0.50000 0.34340 0.75000 -0.11600
C 	C 	0.00000 0.99710 0.75000 -0.16700
C 	C 	0.00000 0.89660 0.75000 0.11300
C 	C 	0.00000 0.05030 0.75000 0.17500
C 	C 	0.00000 0.15130 0.75000 -0.24100
C 	C 	0.00000 0.20440 0.75000 0.45600
N 	N 	0.00000 0.84340 0.75000 -0.12200
Zn	Zn	0.99792 0.70728 0.07171 1.23000
C 	C 	0.57080 0.57884 0.24760 -0.17500
C 	C 	0.49140 0.37455 0.37630 0.15000
H 	H 	0.48530 0.35820 0.46220 -0.00900
C 	C 	0.57060 0.52884 0.24730 0.14000
O 	O 	0.49630 0.27542 0.36750 -0.51500
C 	C 	0.64690 0.60477 0.24710 0.24300
C 	C 	0.49200 0.42383 0.37540 -0.23500
H 	H 	0.48680 0.44040 0.46130 0.12000
C 	C 	0.79260 0.65045 0.24460 -0.29600
C 	C 	0.87110 0.67335 0.24390 0.54000
O 	O 	0.89640 0.68490 0.12910 -0.56300
N 	N 	0.00030 0.71920 0.86740 -0.31600
O 	O 	0.90770 0.67710 0.35970 -0.56800
C 	C 	0.74100 0.65620 0.34560 0.15900
H 	H 	0.75520 0.67560 0.42340 -0.02200
C 	C 	0.76750 0.61910 0.13200 -0.02100
H 	H 	0.80120 0.61210 0.05890 0.04100
C 	C 	0.66770 0.63560 0.34400 -0.20300
H 	H 	0.63280 0.64400 0.41400 0.10800
C 	C 	0.69570 0.59950 0.13020 -0.04200
H 	H 	0.67800 0.58220 0.05010 0.05200
C 	C 	0.06850 0.75520 0.81700 0.00300
C 	C 	0.92390 0.75200 0.81200 -0.00700
C 	C 	0.73950 0.65900 0.14640 0.20800
H 	H 	0.75090 0.68010 0.07260 -0.03400
C 	C 	0.77740 0.61720 0.35570 0.03200
H 	H 	0.81530 0.61030 0.42660 0.02500
C 	C 	0.70420 0.59530 0.35590 -0.10600
H 	H 	0.69280 0.57400 0.42930 0.07400
C 	C 	0.66620 0.63780 0.14680 -0.24000
H 	H 	0.62900 0.64650 0.07630 0.12100
N 	N 	0.64130 0.50240 0.24620 -0.12400
Zn	Zn	0.49792 0.20728 0.07171 1.22200
C 	C 	0.07080 0.07884 0.24760 -0.17100
C 	C 	0.99140 0.87455 0.37630 0.16500
H 	H 	0.98530 0.85820 0.46220 -0.00700
C 	C 	0.07060 0.02884 0.24730 0.13800
O 	O 	0.99630 0.77542 0.36750 -0.49100
C 	C 	0.14690 0.10477 0.24710 0.23900
C 	C 	0.99200 0.92383 0.37540 -0.21200
H 	H 	0.98680 0.94040 0.46130 0.12000
C 	C 	0.29260 0.15045 0.24460 -0.29700
C 	C 	0.37110 0.17335 0.24390 0.54200
O 	O 	0.39640 0.18490 0.12910 -0.56800
N 	N 	0.50030 0.21920 0.86740 -0.31400
O 	O 	0.40770 0.17710 0.35970 -0.57600
C 	C 	0.24100 0.15620 0.34560 0.15700
H 	H 	0.25520 0.17560 0.42340 -0.02200
C 	C 	0.26750 0.11910 0.13200 -0.02300
H 	H 	0.30120 0.11210 0.05890 0.03900
C 	C 	0.16770 0.13560 0.34400 -0.20000
H 	H 	0.13280 0.14400 0.41400 0.10700
C 	C 	0.19570 0.09950 0.13020 -0.04100
H 	H 	0.17800 0.08220 0.05010 0.05000
C 	C 	0.56850 0.25520 0.81700 0.00300
C 	C 	0.42390 0.25200 0.81200 -0.02300
C 	C 	0.23950 0.15900 0.14640 0.20900
H 	H 	0.25090 0.18010 0.07260 -0.03500
C 	C 	0.27740 0.11720 0.35570 0.03300
H 	H 	0.31530 0.11030 0.42660 0.02200
C 	C 	0.20420 0.09530 0.35590 -0.10700
H 	H 	0.19280 0.07400 0.42930 0.07300
C 	C 	0.16620 0.13780 0.14680 -0.24000
H 	H 	0.12900 0.14650 0.07630 0.11800
N 	N 	0.14130 0.00240 0.24620 -0.12500
Zn	Zn	0.00208 0.70728 0.42829 1.21400
C 	C 	0.42920 0.57884 0.25240 -0.17600
C 	C 	0.50860 0.37455 0.12370 0.15000
H 	H 	0.51470 0.35820 0.03780 -0.00800
C 	C 	0.42940 0.52884 0.25270 0.14000
O 	O 	0.50370 0.27542 0.13250 -0.51500
C 	C 	0.35310 0.60477 0.25290 0.24500
C 	C 	0.50800 0.42383 0.12460 -0.23400
H 	H 	0.51320 0.44040 0.03870 0.12100
C 	C 	0.20740 0.65045 0.25540 -0.30200
C 	C 	0.12890 0.67335 0.25610 0.54400
O 	O 	0.10360 0.68490 0.37090 -0.57400
N 	N 	0.99970 0.71920 0.63260 -0.29000
O 	O 	0.09230 0.67710 0.14030 -0.58100
C 	C 	0.25900 0.65620 0.15440 0.16200
H 	H 	0.24480 0.67560 0.07660 -0.02300
C 	C 	0.23250 0.61910 0.36800 -0.02100
H 	H 	0.19880 0.61210 0.44110 0.03700
C 	C 	0.33230 0.63560 0.15600 -0.20500
H 	H 	0.36720 0.64400 0.08600 0.10900
C 	C 	0.30430 0.59950 0.36980 -0.04400
H 	H 	0.32200 0.58220 0.44990 0.05100
C 	C 	0.93150 0.75520 0.68300 0.00800
C 	C 	0.07610 0.75200 0.68800 -0.03300
C 	C 	0.26050 0.65900 0.35360 0.21100
H 	H 	0.24910 0.68010 0.42740 -0.03600
C 	C 	0.22260 0.61720 0.14430 0.03300
H 	H 	0.18470 0.61030 0.07340 0.02100
C 	C 	0.29580 0.59530 0.14410 -0.10800
H 	H 	0.30720 0.57400 0.07070 0.07400
C 	C 	0.33380 0.63780 0.35320 -0.24200
H 	H 	0.37100 0.64650 0.42370 0.12100
N 	N 	0.35870 0.50240 0.25380 -0.12500
Zn	Zn	0.50208 0.20728 0.42829 1.22200
C 	C 	0.92920 0.07884 0.25240 -0.15700
C 	C 	0.00860 0.87455 0.12370 0.14700
H 	H 	0.01470 0.85820 0.03780 -0.00900
C 	C 	0.92940 0.02884 0.25270 0.15200
O 	O 	0.00370 0.77542 0.13250 -0.51600
C 	C 	0.85310 0.10477 0.25290 0.23900
C 	C 	0.00800 0.92383 0.12460 -0.23100
H 	H 	0.01320 0.94040 0.03870 0.11700
C 	C 	0.70740 0.15045 0.25540 -0.29700
C 	C 	0.62890 0.17335 0.25610 0.54200
O 	O 	0.60360 0.18490 0.37090 -0.56800
N 	N 	0.49970 0.21920 0.63260 -0.31300
O 	O 	0.59230 0.17710 0.14030 -0.57500
C 	C 	0.75900 0.15620 0.15440 0.15900
H 	H 	0.74480 0.17560 0.07660 -0.02200
C 	C 	0.73250 0.11910 0.36800 -0.01800
H 	H 	0.69880 0.11210 0.44110 0.03800
C 	C 	0.83230 0.13560 0.15600 -0.20100
H 	H 	0.86720 0.14400 0.08600 0.10900
C 	C 	0.80430 0.09950 0.36980 -0.04500
H 	H 	0.82200 0.08220 0.44990 0.05400
C 	C 	0.43150 0.25520 0.68300 0.00300
C 	C 	0.57610 0.25200 0.68800 -0.02200
C 	C 	0.76050 0.15900 0.35360 0.20500
H 	H 	0.74910 0.18010 0.42740 -0.03300
C 	C 	0.72260 0.11720 0.14430 0.03100
H 	H 	0.68470 0.11030 0.07340 0.02300
C 	C 	0.79580 0.09530 0.14410 -0.10500
H 	H 	0.80720 0.07400 0.07070 0.07300
C 	C 	0.83380 0.13780 0.35320 -0.23500
H 	H 	0.87100 0.14650 0.42370 0.12400
N 	N 	0.85870 0.00240 0.25380 -0.12400
C 	C 	0.00000 0.70614 0.75000 0.19100
C 	C 	0.50000 0.20614 0.75000 0.22200
C 	C 	0.50000 0.50290 0.25000 -0.15300
C 	C 	0.50000 0.60340 0.25000 0.13900
C 	C 	0.50000 0.44970 0.25000 0.19800
C 	C 	0.50000 0.34870 0.25000 -0.22600
C 	C 	0.50000 0.29560 0.25000 0.48000
N 	N 	0.50000 0.65660 0.25000 -0.11600
C 	C 	0.00000 0.00290 0.25000 -0.16500
C 	C 	0.00000 0.10340 0.25000 0.11600
C 	C 	0.00000 0.94970 0.25000 0.17700
C 	C 	0.00000 0.84870 0.25000 -0.23900
C 	C 	0.00000 0.79560 0.25000 0.45900
N 	N 	0.00000 0.15660 0.25000 -0.12100
