data_crystal

_cell_length_a 16.33070
_cell_length_b 29.06810
_cell_length_c 9.28030
_cell_angle_alpha 90.00000
_cell_angle_beta  96.32400
_cell_angle_gamma 90.00000

_symmetry_space_group_name_	'P 1'
_symmetry_space_group_name_H-M	'P 1'

loop_
_symmetry_equiv_pos_as_xyz
  x,y,z

loop_
_atom_site_label
_atom_site_type_symbol
_atom_site_fract_x
_atom_site_fract_y
_atom_site_fract_z
_atom_site_charge
Zn	Zn	0.99208 0.23065 0.57077 1.23400
C 	C 	0.03080 0.38894 0.63900 0.01400
O 	O 	0.01239 0.29361 0.63410 -0.51000
O 	O 	0.61488 0.70960 0.88080 -0.48500
C 	C 	0.92650 0.53637 0.75690 0.12400
O 	O 	0.57748 0.68845 0.65180 -0.49300
C 	C 	0.62680 0.68867 0.76570 0.41200
C 	C 	0.92640 0.58439 0.75650 -0.10500
C 	C 	0.84810 0.61032 0.76120 0.12900
C 	C 	0.03090 0.43626 0.63940 -0.05800
C 	C 	0.70350 0.66102 0.76600 -0.15500
C 	C 	0.78280 0.60432 0.65530 -0.12200
C 	C 	0.71210 0.63026 0.65560 0.07000
C 	C 	0.76760 0.66606 0.87490 0.08800
H 	H 	0.76240 0.68640 0.95070 0.01500
C 	C 	0.83910 0.64119 0.87220 -0.17600
H 	H 	0.88190 0.64510 0.94580 0.10300
C 	C 	0.11360 0.22320 0.20320 -0.55400
C 	C 	0.14110 0.18930 0.27300 0.37200
C 	C 	0.11110 0.22550 0.34500 -0.70400
H 	H 	0.05100 0.37530 0.56600 0.03800
H 	H 	0.66700 0.62330 0.58900 0.02300
H 	H 	0.78900 0.57600 0.58100 0.07200
H 	H 	0.05500 0.45700 0.53500 0.04900
N 	N 	0.02640 0.22830 0.37180 -0.16900
N 	N 	0.96330 0.22867 0.36090 -0.16700
C 	C 	0.10010 0.24440 0.27780 0.92300
N 	N 	0.85230 0.51370 0.76480 -0.11300
Zn	Zn	0.49208 0.73065 0.57077 1.23000
C 	C 	0.53080 0.88894 0.63900 0.01300
O 	O 	0.51239 0.79361 0.63410 -0.50800
O 	O 	0.11488 0.20960 0.88080 -0.48900
C 	C 	0.42650 0.03637 0.75690 0.11200
O 	O 	0.07748 0.18845 0.65180 -0.49900
C 	C 	0.12680 0.18867 0.76570 0.41300
C 	C 	0.42640 0.08439 0.75650 -0.12200
C 	C 	0.34810 0.11032 0.76120 0.13200
C 	C 	0.53090 0.93626 0.63940 -0.05600
C 	C 	0.20350 0.16102 0.76600 -0.15900
C 	C 	0.28280 0.10432 0.65530 -0.12600
C 	C 	0.21210 0.13026 0.65560 0.07200
C 	C 	0.26760 0.16606 0.87490 0.08800
H 	H 	0.26240 0.18640 0.95070 0.01300
C 	C 	0.33910 0.14119 0.87220 -0.18100
H 	H 	0.38190 0.14510 0.94580 0.09900
C 	C 	0.61360 0.72320 0.20320 -0.54400
C 	C 	0.64110 0.68930 0.27300 0.36800
C 	C 	0.61110 0.72550 0.34500 -0.69000
H 	H 	0.55100 0.87530 0.56600 0.04000
H 	H 	0.16700 0.12330 0.58900 0.02100
H 	H 	0.28900 0.07600 0.58100 0.07200
H 	H 	0.55500 0.95700 0.53500 0.05000
N 	N 	0.52640 0.72830 0.37180 -0.16300
N 	N 	0.46330 0.72867 0.36090 -0.17000
C 	C 	0.60010 0.74440 0.27780 0.90400
N 	N 	0.35230 0.01370 0.76480 -0.11400
Zn	Zn	0.00792 0.23065 0.92923 1.22300
C 	C 	0.96920 0.38894 0.86100 0.03300
O 	O 	0.98761 0.29361 0.86590 -0.48900
O 	O 	0.38512 0.70960 0.61920 -0.48500
C 	C 	0.07350 0.53637 0.74310 0.11100
O 	O 	0.42252 0.68845 0.84820 -0.49300
C 	C 	0.37320 0.68867 0.73430 0.41100
C 	C 	0.07360 0.58439 0.74350 -0.11800
C 	C 	0.15190 0.61032 0.73880 0.12800
C 	C 	0.96910 0.43626 0.86060 -0.04400
C 	C 	0.29650 0.66102 0.73400 -0.15500
C 	C 	0.21720 0.60432 0.84470 -0.12300
C 	C 	0.28790 0.63026 0.84440 0.06900
C 	C 	0.23240 0.66606 0.62510 0.08500
H 	H 	0.23760 0.68640 0.54930 0.01500
C 	C 	0.16090 0.64119 0.62780 -0.17700
H 	H 	0.11810 0.64510 0.55420 0.09600
C 	C 	0.88640 0.22320 0.29680 -0.43700
C 	C 	0.85890 0.18930 0.22700 0.29800
C 	C 	0.88890 0.22550 0.15500 -0.56000
H 	H 	0.94900 0.37530 0.93400 0.03700
H 	H 	0.33300 0.62330 0.91100 0.02300
H 	H 	0.21100 0.57600 0.91900 0.07100
H 	H 	0.94500 0.45700 0.96500 0.05300
N 	N 	0.97360 0.22830 0.12820 -0.15900
N 	N 	0.03670 0.22867 0.13910 -0.17500
C 	C 	0.89990 0.24440 0.22220 0.73700
N 	N 	0.14770 0.51370 0.73520 -0.11300
Zn	Zn	0.50792 0.73065 0.92923 1.23000
C 	C 	0.46920 0.88894 0.86100 0.01300
O 	O 	0.48761 0.79361 0.86590 -0.50900
O 	O 	0.88512 0.20960 0.61920 -0.48300
C 	C 	0.57350 0.03637 0.74310 0.11200
O 	O 	0.92252 0.18845 0.84820 -0.48800
C 	C 	0.87320 0.18867 0.73430 0.41200
C 	C 	0.57360 0.08439 0.74350 -0.12100
C 	C 	0.65190 0.11032 0.73880 0.13100
C 	C 	0.46910 0.93626 0.86060 -0.05700
C 	C 	0.79650 0.16102 0.73400 -0.15500
C 	C 	0.71720 0.10432 0.84470 -0.12300
C 	C 	0.78790 0.13026 0.84440 0.07000
C 	C 	0.73240 0.16606 0.62510 0.08700
H 	H 	0.73760 0.18640 0.54930 0.01500
C 	C 	0.66090 0.14119 0.62780 -0.17900
H 	H 	0.61810 0.14510 0.55420 0.09900
C 	C 	0.38640 0.72320 0.29680 -0.54600
C 	C 	0.35890 0.68930 0.22700 0.36900
C 	C 	0.38890 0.72550 0.15500 -0.69100
H 	H 	0.44900 0.87530 0.93400 0.03900
H 	H 	0.83300 0.12330 0.91100 0.02600
H 	H 	0.71100 0.07600 0.91900 0.07300
H 	H 	0.44500 0.95700 0.96500 0.04900
N 	N 	0.47360 0.72830 0.12820 -0.16300
N 	N 	0.53670 0.72867 0.13910 -0.17000
C 	C 	0.39990 0.74440 0.22220 0.90700
N 	N 	0.64770 0.01370 0.73520 -0.11200
C 	C 	0.00000 0.60789 0.75000 0.10900
C 	C 	0.00000 0.31380 0.75000 0.39100
C 	C 	0.00000 0.46119 0.75000 0.05500
C 	C 	0.00000 0.36446 0.75000 -0.13700
C 	C 	0.00000 0.51185 0.75000 -0.10700
N 	N 	0.00000 0.65370 0.75000 -0.15200
C 	C 	0.50000 0.10789 0.75000 0.12900
C 	C 	0.50000 0.81380 0.75000 0.40800
C 	C 	0.50000 0.96119 0.75000 0.06800
C 	C 	0.50000 0.86446 0.75000 -0.12100
C 	C 	0.50000 0.01185 0.75000 -0.09400
N 	N 	0.50000 0.15370 0.75000 -0.15200
C 	C 	0.00000 0.23061 0.25000 0.12000
C 	C 	0.50000 0.73061 0.25000 0.11800
Zn	Zn	0.00792 0.76935 0.42923 1.22400
C 	C 	0.96920 0.61106 0.36100 0.02900
O 	O 	0.98761 0.70639 0.36590 -0.49100
O 	O 	0.38512 0.29040 0.11920 -0.48500
C 	C 	0.07350 0.46363 0.24310 0.11200
O 	O 	0.42252 0.31155 0.34820 -0.49300
C 	C 	0.37320 0.31133 0.23430 0.41100
C 	C 	0.07360 0.41561 0.24350 -0.11800
C 	C 	0.15190 0.38968 0.23880 0.12800
C 	C 	0.96910 0.56374 0.36060 -0.04500
C 	C 	0.29650 0.33898 0.23400 -0.15500
C 	C 	0.21720 0.39568 0.34470 -0.12300
C 	C 	0.28790 0.36974 0.34440 0.06900
C 	C 	0.23240 0.33394 0.12510 0.08500
H 	H 	0.23760 0.31360 0.04930 0.01500
C 	C 	0.16090 0.35881 0.12780 -0.17800
H 	H 	0.11810 0.35490 0.05420 0.09700
C 	C 	0.88640 0.77680 0.79680 -0.42100
C 	C 	0.85890 0.81070 0.72700 0.28700
C 	C 	0.88890 0.77450 0.65500 -0.53900
H 	H 	0.94900 0.62470 0.43400 0.03800
H 	H 	0.33300 0.37670 0.41100 0.02400
H 	H 	0.21100 0.42400 0.41900 0.07200
H 	H 	0.94500 0.54300 0.46500 0.05300
N 	N 	0.97360 0.77170 0.62820 -0.15900
N 	N 	0.03670 0.77133 0.63910 -0.17700
C 	C 	0.89990 0.75560 0.72220 0.71000
N 	N 	0.14770 0.48630 0.23520 -0.11300
Zn	Zn	0.50792 0.26935 0.42923 1.23000
C 	C 	0.46920 0.11106 0.36100 0.01300
O 	O 	0.48761 0.20639 0.36590 -0.50800
O 	O 	0.88512 0.79040 0.11920 -0.48400
C 	C 	0.57350 0.96363 0.24310 0.11300
O 	O 	0.92252 0.81155 0.34820 -0.48900
C 	C 	0.87320 0.81133 0.23430 0.41200
C 	C 	0.57360 0.91561 0.24350 -0.12100
C 	C 	0.65190 0.88968 0.23880 0.13100
C 	C 	0.46910 0.06374 0.36060 -0.05600
C 	C 	0.79650 0.83898 0.23400 -0.15500
C 	C 	0.71720 0.89568 0.34470 -0.12300
C 	C 	0.78790 0.86974 0.34440 0.07000
C 	C 	0.73240 0.83394 0.12510 0.08700
H 	H 	0.73760 0.81360 0.04930 0.01400
C 	C 	0.66090 0.85881 0.12780 -0.17900
H 	H 	0.61810 0.85490 0.05420 0.09900
C 	C 	0.38640 0.27680 0.79680 -0.54600
C 	C 	0.35890 0.31070 0.72700 0.36800
C 	C 	0.38890 0.27450 0.65500 -0.69100
H 	H 	0.44900 0.12470 0.43400 0.04000
H 	H 	0.83300 0.87670 0.41100 0.02600
H 	H 	0.71100 0.92400 0.41900 0.07300
H 	H 	0.44500 0.04300 0.46500 0.05000
N 	N 	0.47360 0.27170 0.62820 -0.16300
N 	N 	0.53670 0.27133 0.63910 -0.17000
C 	C 	0.39990 0.25560 0.72220 0.90700
N 	N 	0.64770 0.98630 0.23520 -0.11200
Zn	Zn	0.99208 0.76935 0.07077 1.23400
C 	C 	0.03080 0.61106 0.13900 0.01400
O 	O 	0.01239 0.70639 0.13410 -0.50900
O 	O 	0.61488 0.29040 0.38080 -0.48500
C 	C 	0.92650 0.46363 0.25690 0.12200
O 	O 	0.57748 0.31155 0.15180 -0.49200
C 	C 	0.62680 0.31133 0.26570 0.41200
C 	C 	0.92640 0.41561 0.25650 -0.10800
C 	C 	0.84810 0.38968 0.26120 0.13000
C 	C 	0.03090 0.56374 0.13940 -0.05700
C 	C 	0.70350 0.33898 0.26600 -0.15500
C 	C 	0.78280 0.39568 0.15530 -0.12200
C 	C 	0.71210 0.36974 0.15560 0.07000
C 	C 	0.76760 0.33394 0.37490 0.08800
H 	H 	0.76240 0.31360 0.45070 0.01500
C 	C 	0.83910 0.35881 0.37220 -0.17700
H 	H 	0.88190 0.35490 0.44580 0.10300
C 	C 	0.11360 0.77680 0.70320 -0.55300
C 	C 	0.14110 0.81070 0.77300 0.37000
C 	C 	0.11110 0.77450 0.84500 -0.70300
H 	H 	0.05100 0.62470 0.06600 0.03900
H 	H 	0.66700 0.37670 0.08900 0.02300
H 	H 	0.78900 0.42400 0.08100 0.07200
H 	H 	0.05500 0.54300 0.03500 0.04900
N 	N 	0.02640 0.77170 0.87180 -0.17000
N 	N 	0.96330 0.77133 0.86090 -0.16600
C 	C 	0.10010 0.75560 0.77780 0.92100
N 	N 	0.85230 0.48630 0.26480 -0.11300
Zn	Zn	0.49208 0.26935 0.07077 1.23000
C 	C 	0.53080 0.11106 0.13900 0.01300
O 	O 	0.51239 0.20639 0.13410 -0.50800
O 	O 	0.11488 0.79040 0.38080 -0.48800
C 	C 	0.42650 0.96363 0.25690 0.11200
O 	O 	0.07748 0.81155 0.15180 -0.49700
C 	C 	0.12680 0.81133 0.26570 0.41200
C 	C 	0.42640 0.91561 0.25650 -0.12200
C 	C 	0.34810 0.88968 0.26120 0.13100
C 	C 	0.53090 0.06374 0.13940 -0.05600
C 	C 	0.20350 0.83898 0.26600 -0.15800
C 	C 	0.28280 0.89568 0.15530 -0.12500
C 	C 	0.21210 0.86974 0.15560 0.07200
C 	C 	0.26760 0.83394 0.37490 0.08800
H 	H 	0.26240 0.81360 0.45070 0.01400
C 	C 	0.33910 0.85881 0.37220 -0.18100
H 	H 	0.38190 0.85490 0.44580 0.09900
C 	C 	0.61360 0.27680 0.70320 -0.54400
C 	C 	0.64110 0.31070 0.77300 0.36800
C 	C 	0.61110 0.27450 0.84500 -0.68900
H 	H 	0.55100 0.12470 0.06600 0.04000
H 	H 	0.16700 0.87670 0.08900 0.02200
H 	H 	0.28900 0.92400 0.08100 0.07200
H 	H 	0.55500 0.04300 0.03500 0.05000
N 	N 	0.52640 0.27170 0.87180 -0.16300
N 	N 	0.46330 0.27133 0.86090 -0.17000
C 	C 	0.60010 0.25560 0.77780 0.90400
N 	N 	0.35230 0.98630 0.26480 -0.11300
C 	C 	0.00000 0.39211 0.25000 0.11300
C 	C 	0.00000 0.68620 0.25000 0.39300
C 	C 	0.00000 0.53881 0.25000 0.05700
C 	C 	0.00000 0.63554 0.25000 -0.13300
C 	C 	0.00000 0.48815 0.25000 -0.10500
N 	N 	0.00000 0.34630 0.25000 -0.15200
C 	C 	0.50000 0.89211 0.25000 0.12900
C 	C 	0.50000 0.18620 0.25000 0.40700
C 	C 	0.50000 0.03881 0.25000 0.06800
C 	C 	0.50000 0.13554 0.25000 -0.12100
C 	C 	0.50000 0.98815 0.25000 -0.09400
N 	N 	0.50000 0.84630 0.25000 -0.15200
C 	C 	0.00000 0.76939 0.75000 0.12000
C 	C 	0.50000 0.26939 0.75000 0.11900
