data_crystal

_cell_length_a 9.61800
_cell_length_b 13.99600
_cell_length_c 19.84200
_cell_angle_alpha 90.00000
_cell_angle_beta  99.18200
_cell_angle_gamma 90.00000

_symmetry_space_group_name_	'P 1'
_symmetry_space_group_name_H-M	'P 1'

loop_
_symmetry_equiv_pos_as_xyz
  x,y,z

loop_
_atom_site_label
_atom_site_type_symbol
_atom_site_fract_x
_atom_site_fract_y
_atom_site_fract_z
_atom_site_charge
Cu	Cu	0.76938 0.09205 0.71875 0.85500
Cu	Cu	0.23062 0.59205 0.78125 0.85500
Cu	Cu	0.23062 0.90795 0.28125 0.85500
Cu	Cu	0.76938 0.40795 0.21875 0.85500
Mo	Mo	0.29947 0.09502 0.98384 1.14300
Mo	Mo	0.92354 0.10164 0.03582 1.12500
Mo	Mo	0.00880 0.11861 0.87888 1.13300
Mo	Mo	0.63966 0.11074 0.92142 1.05700
Mo	Mo	0.70053 0.59502 0.51616 1.14300
Mo	Mo	0.07646 0.60164 0.46418 1.12300
Mo	Mo	0.99120 0.61861 0.62112 1.13500
Mo	Mo	0.36034 0.61074 0.57858 1.05800
Mo	Mo	0.70053 0.90498 0.01616 1.14200
Mo	Mo	0.07646 0.89836 0.96418 1.12400
Mo	Mo	0.99120 0.88139 0.12112 1.13300
Mo	Mo	0.36034 0.88926 0.07858 1.05700
Mo	Mo	0.29947 0.40498 0.48384 1.14300
Mo	Mo	0.92354 0.39836 0.53582 1.12300
Mo	Mo	0.00880 0.38139 0.37888 1.13500
Mo	Mo	0.63966 0.38926 0.42142 1.05800
H 	H 	0.06640 0.72250 0.24720 -0.03300
H 	H 	0.10360 0.93620 0.76290 0.07700
H 	H 	0.32370 0.99170 0.80960 0.01500
H 	H 	0.50690 0.87940 0.83980 0.07200
H 	H 	0.53210 0.03300 0.33750 0.00400
H 	H 	0.75550 0.56010 0.85650 0.00900
H 	H 	0.70980 0.80450 0.87870 0.02300
H 	H 	0.82360 0.73190 0.86180 0.01400
H 	H 	0.67660 0.69340 0.71480 0.04200
H 	H 	0.68600 0.77800 0.61290 -0.01800
H 	H 	0.74220 0.93770 0.61930 -0.03700
H 	H 	0.77530 0.93480 0.81680 0.02300
H 	H 	0.93360 0.22250 0.25280 -0.03400
H 	H 	0.89640 0.43620 0.73710 0.07700
H 	H 	0.67630 0.49170 0.69040 0.01400
H 	H 	0.49310 0.37940 0.66020 0.07200
H 	H 	0.46790 0.53300 0.16250 0.00200
H 	H 	0.24450 0.06010 0.64350 0.00700
H 	H 	0.29020 0.30450 0.62130 0.02200
H 	H 	0.17640 0.23190 0.63820 0.01200
H 	H 	0.32340 0.19340 0.78520 0.04200
H 	H 	0.31400 0.27800 0.88710 -0.01800
H 	H 	0.25780 0.43770 0.88070 -0.03700
H 	H 	0.22470 0.43480 0.68320 0.02200
H 	H 	0.93360 0.27750 0.75280 -0.03300
H 	H 	0.89640 0.06380 0.23710 0.07700
H 	H 	0.67630 0.00830 0.19040 0.01500
H 	H 	0.49310 0.12060 0.16020 0.07200
H 	H 	0.46790 0.96700 0.66250 0.00400
H 	H 	0.24450 0.43990 0.14350 0.00900
H 	H 	0.29020 0.19550 0.12130 0.02300
H 	H 	0.17640 0.26810 0.13820 0.01400
H 	H 	0.32340 0.30660 0.28520 0.04200
H 	H 	0.31400 0.22200 0.38710 -0.01800
H 	H 	0.25780 0.06230 0.38070 -0.03700
H 	H 	0.22470 0.06520 0.18320 0.02300
H 	H 	0.06640 0.77750 0.74720 -0.03400
H 	H 	0.10360 0.56380 0.26290 0.07700
H 	H 	0.32370 0.50830 0.30960 0.01400
H 	H 	0.50690 0.62060 0.33980 0.07200
H 	H 	0.53210 0.46700 0.83750 0.00200
H 	H 	0.75550 0.93990 0.35650 0.00700
H 	H 	0.70980 0.69550 0.37870 0.02200
H 	H 	0.82360 0.76810 0.36180 0.01200
H 	H 	0.67660 0.80660 0.21480 0.04200
H 	H 	0.68600 0.72200 0.11290 -0.01800
H 	H 	0.74220 0.56230 0.11930 -0.03700
H 	H 	0.77530 0.56520 0.31680 0.02200
C 	C 	0.15570 0.70150 0.26650 0.05200
C 	C 	0.17740 0.60650 0.27540 -0.15100
C 	C 	0.30730 0.92670 0.80290 0.03900
C 	C 	0.41700 0.64080 0.32090 -0.12800
C 	C 	0.38870 0.73690 0.31020 0.02500
C 	C 	0.48450 0.68450 0.82630 0.03500
C 	C 	0.54020 0.96680 0.33630 -0.00900
C 	C 	0.66470 0.58480 0.84710 -0.03300
C 	C 	0.73060 0.75760 0.84570 -0.08200
C 	C 	0.73040 0.80690 0.77610 0.02300
C 	C 	0.69980 0.75800 0.71560 -0.08400
C 	C 	0.70480 0.80840 0.65510 -0.07900
C 	C 	0.73810 0.90420 0.65940 0.01300
C 	C 	0.75900 0.90240 0.77540 -0.01800
C 	C 	0.84430 0.20150 0.23350 0.05200
C 	C 	0.82260 0.10650 0.22460 -0.15100
C 	C 	0.69270 0.42670 0.69710 0.03900
C 	C 	0.58300 0.14080 0.17910 -0.12800
C 	C 	0.61130 0.23690 0.18980 0.02500
C 	C 	0.51550 0.18450 0.67370 0.03500
C 	C 	0.45980 0.46680 0.16370 -0.00500
C 	C 	0.33530 0.08480 0.65290 -0.03200
C 	C 	0.26940 0.25760 0.65430 -0.08100
C 	C 	0.26960 0.30690 0.72390 0.02200
C 	C 	0.30020 0.25800 0.78440 -0.08400
C 	C 	0.29520 0.30840 0.84490 -0.08000
C 	C 	0.26190 0.40420 0.84060 0.01300
C 	C 	0.24100 0.40240 0.72460 -0.01800
C 	C 	0.84430 0.29850 0.73350 0.05200
C 	C 	0.82260 0.39350 0.72460 -0.15100
C 	C 	0.69270 0.07330 0.19710 0.03900
C 	C 	0.58300 0.35920 0.67910 -0.12800
C 	C 	0.61130 0.26310 0.68980 0.02500
C 	C 	0.51550 0.31550 0.17370 0.03500
C 	C 	0.45980 0.03320 0.66370 -0.00900
C 	C 	0.33530 0.41520 0.15290 -0.03300
C 	C 	0.26940 0.24240 0.15430 -0.08200
C 	C 	0.26960 0.19310 0.22390 0.02300
C 	C 	0.30020 0.24200 0.28440 -0.08400
C 	C 	0.29520 0.19160 0.34490 -0.07900
C 	C 	0.26190 0.09580 0.34060 0.01300
C 	C 	0.24100 0.09760 0.22460 -0.01800
C 	C 	0.15570 0.79850 0.76650 0.05200
C 	C 	0.17740 0.89350 0.77540 -0.15100
C 	C 	0.30730 0.57330 0.30290 0.03900
C 	C 	0.41700 0.85920 0.82090 -0.12800
C 	C 	0.38870 0.76310 0.81020 0.02500
C 	C 	0.48450 0.81550 0.32630 0.03500
C 	C 	0.54020 0.53320 0.83630 -0.00500
C 	C 	0.66470 0.91520 0.34710 -0.03200
C 	C 	0.73060 0.74240 0.34570 -0.08100
C 	C 	0.73040 0.69310 0.27610 0.02200
C 	C 	0.69980 0.74200 0.21560 -0.08400
C 	C 	0.70480 0.69160 0.15510 -0.08000
C 	C 	0.73810 0.59580 0.15940 0.01300
C 	C 	0.75900 0.59760 0.27540 -0.01800
N 	N 	0.25630 0.76630 0.28410 -0.25100
N 	N 	0.43100 0.90310 0.32320 -0.23700
N 	N 	0.62740 0.68070 0.84130 -0.11500
N 	N 	0.76480 0.95100 0.71880 -0.22100
N 	N 	0.74370 0.26630 0.21590 -0.25100
N 	N 	0.56900 0.40310 0.17680 -0.23700
N 	N 	0.37260 0.18070 0.65870 -0.11500
N 	N 	0.23520 0.45100 0.78120 -0.22100
N 	N 	0.74370 0.23370 0.71590 -0.25100
N 	N 	0.56900 0.09690 0.67680 -0.23700
N 	N 	0.37260 0.31930 0.15870 -0.11500
N 	N 	0.23520 0.04900 0.28120 -0.22100
N 	N 	0.25630 0.73370 0.78410 -0.25100
N 	N 	0.43100 0.59690 0.82320 -0.23700
N 	N 	0.62740 0.81930 0.34130 -0.11500
N 	N 	0.76480 0.54900 0.21880 -0.22100
O 	O 	0.19920 0.09610 0.88450 -0.50300
O 	O 	0.08380 0.07710 0.98570 -0.60400
O 	O 	0.93160 0.09760 0.79450 -0.54300
O 	O 	0.84620 0.10030 0.92810 -0.63400
O 	O 	0.00030 0.95090 0.88750 -0.45700
O 	O 	0.26520 0.92870 0.97000 -0.51700
O 	O 	0.33830 0.04920 0.06760 -0.47900
O 	O 	0.46330 0.07590 0.94900 -0.54200
O 	O 	0.80080 0.59610 0.61550 -0.50200
O 	O 	0.91620 0.57710 0.51430 -0.60100
O 	O 	0.06840 0.59760 0.70550 -0.54400
O 	O 	0.15380 0.60030 0.57190 -0.63500
O 	O 	0.99970 0.45090 0.61250 -0.45700
O 	O 	0.73480 0.42870 0.53000 -0.51900
O 	O 	0.66170 0.54920 0.43240 -0.48200
O 	O 	0.53670 0.57590 0.55100 -0.54100
O 	O 	0.80080 0.90390 0.11550 -0.50300
O 	O 	0.91620 0.92290 0.01430 -0.60400
O 	O 	0.06840 0.90240 0.20550 -0.54300
O 	O 	0.15380 0.89970 0.07190 -0.63400
O 	O 	0.99970 0.04910 0.11250 -0.45700
O 	O 	0.73480 0.07130 0.03000 -0.51700
O 	O 	0.66170 0.95080 0.93240 -0.47900
O 	O 	0.53670 0.92410 0.05100 -0.54200
O 	O 	0.19920 0.40390 0.38450 -0.50200
O 	O 	0.08380 0.42290 0.48570 -0.60100
O 	O 	0.93160 0.40240 0.29450 -0.54400
O 	O 	0.84620 0.39970 0.42810 -0.63500
O 	O 	0.00030 0.54910 0.38750 -0.45700
O 	O 	0.26520 0.57130 0.47000 -0.51900
O 	O 	0.33830 0.45080 0.56760 -0.48200
O 	O 	0.46330 0.42410 0.44900 -0.54100
