data_crystal

_cell_length_a 20.01000
_cell_length_b 13.19300
_cell_length_c 9.89500
_cell_angle_alpha 90.00000
_cell_angle_beta  113.14200
_cell_angle_gamma 90.00000

_symmetry_space_group_name_	'P 1'
_symmetry_space_group_name_H-M	'P 1'

loop_
_symmetry_equiv_pos_as_xyz
  x,y,z

loop_
_atom_site_label
_atom_site_type_symbol
_atom_site_fract_x
_atom_site_fract_y
_atom_site_fract_z
_atom_site_charge
O 	O 	0.41754 0.41590 0.35290 -0.55400
O 	O 	0.41092 0.50670 0.53570 -0.54900
O 	O 	0.54069 0.61570 0.20420 -0.27600
C 	C 	0.38520 0.44710 0.43040 0.54800
C 	C 	0.30820 0.40990 0.39150 -0.18700
C 	C 	0.26830 0.37260 0.25270 0.06100
H 	H 	0.28880 0.36950 0.18310 0.01400
C 	C 	0.19640 0.33920 0.21680 -0.08200
C 	C 	0.16770 0.34130 0.32230 0.01600
H 	H 	0.12040 0.31900 0.29930 0.04000
C 	C 	0.20860 0.37610 0.46190 -0.11800
H 	H 	0.18910 0.37530 0.53320 0.07200
C 	C 	0.27900 0.41250 0.49720 0.08000
H 	H 	0.30600 0.43810 0.59050 0.00700
C 	C 	0.15380 0.30530 0.06470 0.14400
C 	C 	0.15490 0.33720 0.93370 -0.19800
H 	H 	0.18520 0.38610 0.92020 0.09900
C 	C 	0.10190 0.28200 0.82590 0.10700
H 	H 	0.09040 0.28920 0.72570 -0.02700
N 	N 	0.06910 0.21690 0.88380 -0.19400
N 	N 	0.10190 0.23340 0.03020 -0.18300
H 	H 	0.09090 0.20140 0.09430 0.13800
O 	O 	0.91754 0.91590 0.35290 -0.45200
O 	O 	0.91092 0.00670 0.53570 -0.45200
O 	O 	0.04069 0.11570 0.20420 -0.27500
C 	C 	0.88520 0.94710 0.43040 0.49500
C 	C 	0.80820 0.90990 0.39150 -0.15100
C 	C 	0.76830 0.87260 0.25270 0.04000
H 	H 	0.78880 0.86950 0.18310 0.02400
C 	C 	0.69640 0.83920 0.21680 -0.06600
C 	C 	0.66770 0.84130 0.32230 0.00400
H 	H 	0.62040 0.81900 0.29930 0.05300
C 	C 	0.70860 0.87610 0.46190 -0.09700
H 	H 	0.68910 0.87530 0.53320 0.07100
C 	C 	0.77900 0.91250 0.49720 0.05700
H 	H 	0.80600 0.93810 0.59050 0.02000
C 	C 	0.65380 0.80530 0.06470 0.14500
C 	C 	0.65490 0.83720 0.93370 -0.19300
H 	H 	0.68520 0.88610 0.92020 0.10200
C 	C 	0.60190 0.78200 0.82590 0.11900
H 	H 	0.59040 0.78920 0.72570 -0.01400
N 	N 	0.56910 0.71690 0.88380 -0.19100
N 	N 	0.60190 0.73340 0.03020 -0.17900
H 	H 	0.59090 0.70140 0.09430 0.14300
O 	O 	0.58246 0.41590 0.14710 -0.55400
O 	O 	0.58908 0.50670 0.96430 -0.55300
O 	O 	0.45931 0.61570 0.29580 -0.27700
C 	C 	0.61480 0.44710 0.06960 0.55200
C 	C 	0.69180 0.40990 0.10850 -0.18200
C 	C 	0.73170 0.37260 0.24730 0.05400
H 	H 	0.71120 0.36950 0.31690 0.01600
C 	C 	0.80360 0.33920 0.28320 -0.06300
C 	C 	0.83230 0.34130 0.17770 0.00100
H 	H 	0.87960 0.31900 0.20070 0.08300
C 	C 	0.79140 0.37610 0.03810 -0.08900
H 	H 	0.81090 0.37530 0.96680 0.07500
C 	C 	0.72100 0.41250 0.00280 0.07700
H 	H 	0.69400 0.43810 0.90950 0.00700
C 	C 	0.84620 0.30530 0.43530 0.14900
C 	C 	0.84510 0.33720 0.56630 -0.17500
H 	H 	0.81480 0.38610 0.57980 0.10300
C 	C 	0.89810 0.28200 0.67410 0.12200
H 	H 	0.90960 0.28920 0.77430 0.01700
N 	N 	0.93090 0.21690 0.61620 -0.13500
N 	N 	0.89810 0.23340 0.46980 -0.17700
H 	H 	0.90910 0.20140 0.40570 0.16300
O 	O 	0.08246 0.91590 0.14710 -0.53000
O 	O 	0.08908 0.00670 0.96430 -0.52200
O 	O 	0.95931 0.11570 0.29580 -0.14500
C 	C 	0.11480 0.94710 0.06960 0.51500
C 	C 	0.19180 0.90990 0.10850 -0.16700
C 	C 	0.23170 0.87260 0.24730 0.04600
H 	H 	0.21120 0.86950 0.31690 0.02100
C 	C 	0.30360 0.83920 0.28320 -0.06800
C 	C 	0.33230 0.84130 0.17770 0.00500
H 	H 	0.37960 0.81900 0.20070 0.05300
C 	C 	0.29140 0.87610 0.03810 -0.09800
H 	H 	0.31090 0.87530 0.96680 0.07000
C 	C 	0.22100 0.91250 0.00280 0.06700
H 	H 	0.19400 0.93810 0.90950 0.01400
C 	C 	0.34620 0.80530 0.43530 0.14000
C 	C 	0.34510 0.83720 0.56630 -0.18600
H 	H 	0.31480 0.88610 0.57980 0.10100
C 	C 	0.39810 0.78200 0.67410 0.11700
H 	H 	0.40960 0.78920 0.77430 -0.01400
N 	N 	0.43090 0.71690 0.61620 -0.18900
N 	N 	0.39810 0.73340 0.46980 -0.18000
H 	H 	0.40910 0.70140 0.40570 0.14200
O 	O 	0.58246 0.58410 0.64710 -0.55300
O 	O 	0.58908 0.49330 0.46430 -0.54800
O 	O 	0.45931 0.38430 0.79580 -0.27800
C 	C 	0.61480 0.55290 0.56960 0.54500
C 	C 	0.69180 0.59010 0.60850 -0.17900
C 	C 	0.73170 0.62740 0.74730 0.05200
H 	H 	0.71120 0.63050 0.81690 0.01600
C 	C 	0.80360 0.66080 0.78320 -0.06100
C 	C 	0.83230 0.65870 0.67770 0.00400
H 	H 	0.87960 0.68100 0.70070 0.08100
C 	C 	0.79140 0.62390 0.53810 -0.09800
H 	H 	0.81090 0.62470 0.46680 0.08200
C 	C 	0.72100 0.58750 0.50280 0.07100
H 	H 	0.69400 0.56190 0.40950 0.01200
C 	C 	0.84620 0.69470 0.93530 0.14000
C 	C 	0.84510 0.66280 0.06630 -0.16300
H 	H 	0.81480 0.61390 0.07980 0.10000
C 	C 	0.89810 0.71800 0.17410 0.11800
H 	H 	0.90960 0.71080 0.27430 0.02000
N 	N 	0.93090 0.78310 0.11620 -0.13200
N 	N 	0.89810 0.76660 0.96980 -0.17900
H 	H 	0.90910 0.79860 0.90570 0.16200
O 	O 	0.08246 0.08410 0.64710 -0.52900
O 	O 	0.08908 0.99330 0.46430 -0.51900
O 	O 	0.95931 0.88430 0.79580 -0.14900
C 	C 	0.11480 0.05290 0.56960 0.51100
C 	C 	0.19180 0.09010 0.60850 -0.16400
C 	C 	0.23170 0.12740 0.74730 0.04300
H 	H 	0.21120 0.13050 0.81690 0.02200
C 	C 	0.30360 0.16080 0.78320 -0.06600
C 	C 	0.33230 0.15870 0.67770 0.00400
H 	H 	0.37960 0.18100 0.70070 0.05300
C 	C 	0.29140 0.12390 0.53810 -0.10000
H 	H 	0.31090 0.12470 0.46680 0.07200
C 	C 	0.22100 0.08750 0.50280 0.06100
H 	H 	0.19400 0.06190 0.40950 0.01800
C 	C 	0.34620 0.19470 0.93530 0.13400
C 	C 	0.34510 0.16280 0.06630 -0.17700
H 	H 	0.31480 0.11390 0.07980 0.10000
C 	C 	0.39810 0.21800 0.17410 0.11400
H 	H 	0.40960 0.21080 0.27430 -0.01200
N 	N 	0.43090 0.28310 0.11620 -0.18700
N 	N 	0.39810 0.26660 0.96980 -0.18100
H 	H 	0.40910 0.29860 0.90570 0.14200
O 	O 	0.41754 0.58410 0.85290 -0.55300
O 	O 	0.41092 0.49330 0.03570 -0.54500
O 	O 	0.54069 0.38430 0.70420 -0.27700
C 	C 	0.38520 0.55290 0.93040 0.54200
C 	C 	0.30820 0.59010 0.89150 -0.18400
C 	C 	0.26830 0.62740 0.75270 0.05800
H 	H 	0.28880 0.63050 0.68310 0.01400
C 	C 	0.19640 0.66080 0.71680 -0.08000
C 	C 	0.16770 0.65870 0.82230 0.01600
H 	H 	0.12040 0.68100 0.79930 0.04000
C 	C 	0.20860 0.62390 0.96190 -0.12200
H 	H 	0.18910 0.62470 0.03320 0.07600
C 	C 	0.27900 0.58750 0.99720 0.07300
H 	H 	0.30600 0.56190 0.09050 0.01100
C 	C 	0.15380 0.69470 0.56470 0.13700
C 	C 	0.15490 0.66280 0.43370 -0.19000
H 	H 	0.18520 0.61390 0.42020 0.09700
C 	C 	0.10190 0.71800 0.32590 0.10400
H 	H 	0.09040 0.71080 0.22570 -0.02500
N 	N 	0.06910 0.78310 0.38380 -0.19200
N 	N 	0.10190 0.76660 0.53020 -0.18400
H 	H 	0.09090 0.79860 0.59430 0.13700
O 	O 	0.91754 0.08410 0.85290 -0.45100
O 	O 	0.91092 0.99330 0.03570 -0.44800
O 	O 	0.04069 0.88430 0.70420 -0.27700
C 	C 	0.88520 0.05290 0.93040 0.48700
C 	C 	0.80820 0.09010 0.89150 -0.14500
C 	C 	0.76830 0.12740 0.75270 0.03500
H 	H 	0.78880 0.13050 0.68310 0.02500
C 	C 	0.69640 0.16080 0.71680 -0.06300
C 	C 	0.66770 0.15870 0.82230 0.00300
H 	H 	0.62040 0.18100 0.79930 0.05300
C 	C 	0.70860 0.12390 0.96190 -0.10100
H 	H 	0.68910 0.12470 0.03320 0.07500
C 	C 	0.77900 0.08750 0.99720 0.04300
H 	H 	0.80600 0.06190 0.09050 0.02900
C 	C 	0.65380 0.19470 0.56470 0.13800
C 	C 	0.65490 0.16280 0.43370 -0.18400
H 	H 	0.68520 0.11390 0.42020 0.10000
C 	C 	0.60190 0.21800 0.32590 0.11600
H 	H 	0.59040 0.21080 0.22570 -0.01200
N 	N 	0.56910 0.28310 0.38380 -0.18900
N 	N 	0.60190 0.26660 0.53020 -0.18000
H 	H 	0.59090 0.29860 0.59430 0.14200
Tb	Tb	0.50000 0.44129 0.25000 2.02800
O 	O 	0.50000 0.75820 0.25000 -0.14300
N 	N 	0.50000 0.66700 0.25000 0.06300
Tb	Tb	0.00000 0.94129 0.25000 1.69200
O 	O 	0.00000 0.25820 0.25000 -0.19700
N 	N 	0.00000 0.16700 0.25000 -0.00100
Tb	Tb	0.50000 0.55871 0.75000 2.02700
O 	O 	0.50000 0.24180 0.75000 -0.14400
N 	N 	0.50000 0.33300 0.75000 0.06300
Tb	Tb	0.00000 0.05871 0.75000 1.69300
O 	O 	0.00000 0.74180 0.75000 -0.19800
N 	N 	0.00000 0.83300 0.75000 -0.00100
