data_crystal

_cell_length_a 19.97400
_cell_length_b 13.13500
_cell_length_c 9.90100
_cell_angle_alpha 90.00000
_cell_angle_beta  113.30800
_cell_angle_gamma 90.00000

_symmetry_space_group_name_	'P 1'
_symmetry_space_group_name_H-M	'P 1'

loop_
_symmetry_equiv_pos_as_xyz
  x,y,z

loop_
_atom_site_label
_atom_site_type_symbol
_atom_site_fract_x
_atom_site_fract_y
_atom_site_fract_z
_atom_site_charge
O 	O 	0.08380 0.08450 0.14870 -0.55600
O 	O 	0.08962 0.99410 0.96590 -0.55100
O 	O 	0.95992 0.88250 0.29640 -0.14800
N 	N 	0.43100 0.28170 0.61370 -0.19800
N 	N 	0.39790 0.26520 0.46850 -0.18300
H 	H 	0.40910 0.29680 0.40420 0.14100
C 	C 	0.11570 0.05320 0.07130 0.55300
C 	C 	0.19210 0.09010 0.10930 -0.20800
C 	C 	0.23220 0.12700 0.24690 0.08300
H 	H 	0.21170 0.12960 0.31640 0.00800
C 	C 	0.30310 0.16070 0.28360 -0.09800
C 	C 	0.33120 0.15990 0.17700 0.03700
H 	H 	0.37820 0.18380 0.19930 0.04100
C 	C 	0.29040 0.12410 0.03810 -0.13600
H 	H 	0.30990 0.12440 0.96690 0.08300
C 	C 	0.22140 0.08800 0.00400 0.10800
H 	H 	0.19430 0.06220 0.91070 -0.00200
C 	C 	0.34560 0.19420 0.43420 0.15500
C 	C 	0.34370 0.16240 0.56410 -0.19600
H 	H 	0.31310 0.11370 0.57740 0.10500
C 	C 	0.39760 0.21850 0.67170 0.12200
H 	H 	0.40890 0.21250 0.77200 -0.01800
O 	O 	0.58380 0.58450 0.14870 -0.58700
O 	O 	0.58962 0.49410 0.96590 -0.58700
O 	O 	0.45992 0.38250 0.29640 -0.29200
N 	N 	0.93100 0.78170 0.61370 -0.14000
N 	N 	0.89790 0.76520 0.46850 -0.18100
H 	H 	0.90910 0.79680 0.40420 0.16400
C 	C 	0.61570 0.55320 0.07130 0.59600
C 	C 	0.69210 0.59010 0.10930 -0.22700
C 	C 	0.73220 0.62700 0.24690 0.09500
H 	H 	0.71170 0.62960 0.31640 0.00100
C 	C 	0.80310 0.66070 0.28360 -0.09500
C 	C 	0.83120 0.65990 0.17700 0.03600
H 	H 	0.87820 0.68380 0.19930 0.07200
C 	C 	0.79040 0.62410 0.03810 -0.13000
H 	H 	0.80990 0.62440 0.96690 0.08900
C 	C 	0.72140 0.58800 0.00400 0.12300
H 	H 	0.69430 0.56220 0.91070 -0.01100
C 	C 	0.84560 0.69420 0.43420 0.16500
C 	C 	0.84370 0.66240 0.56410 -0.18500
H 	H 	0.81310 0.61370 0.57740 0.10700
C 	C 	0.89760 0.71850 0.67170 0.12700
H 	H 	0.90890 0.71250 0.77200 0.01500
O 	O 	0.91620 0.08450 0.35130 -0.47500
O 	O 	0.91038 0.99410 0.53410 -0.47600
O 	O 	0.04008 0.88250 0.20360 -0.28900
N 	N 	0.56900 0.28170 0.88630 -0.20000
N 	N 	0.60210 0.26520 0.03150 -0.18200
H 	H 	0.59090 0.29680 0.09580 0.14200
C 	C 	0.88430 0.05320 0.42870 0.53000
C 	C 	0.80790 0.09010 0.39070 -0.18900
C 	C 	0.76780 0.12700 0.25310 0.07500
H 	H 	0.78830 0.12960 0.18360 0.01100
C 	C 	0.69690 0.16070 0.21640 -0.09400
C 	C 	0.66880 0.15990 0.32300 0.03400
H 	H 	0.62180 0.18380 0.30070 0.04200
C 	C 	0.70960 0.12410 0.46190 -0.13400
H 	H 	0.69010 0.12440 0.53310 0.08300
C 	C 	0.77860 0.08800 0.49600 0.09500
H 	H 	0.80570 0.06220 0.58930 0.00500
C 	C 	0.65440 0.19420 0.06580 0.15900
C 	C 	0.65630 0.16240 0.93590 -0.20400
H 	H 	0.68690 0.11370 0.92260 0.10500
C 	C 	0.60240 0.21850 0.82830 0.12400
H 	H 	0.59110 0.21250 0.72800 -0.01900
O 	O 	0.41620 0.58450 0.35130 -0.58700
O 	O 	0.41038 0.49410 0.53410 -0.58300
O 	O 	0.54008 0.38250 0.20360 -0.29100
N 	N 	0.06900 0.78170 0.88630 -0.20300
N 	N 	0.10210 0.76520 0.03150 -0.18600
H 	H 	0.09090 0.79680 0.09580 0.13700
C 	C 	0.38430 0.55320 0.42870 0.59200
C 	C 	0.30790 0.59010 0.39070 -0.23400
C 	C 	0.26780 0.62700 0.25310 0.10400
H 	H 	0.28830 0.62960 0.18360 -0.00200
C 	C 	0.19690 0.66070 0.21640 -0.11700
C 	C 	0.16880 0.65990 0.32300 0.05300
H 	H 	0.12180 0.68380 0.30070 0.02600
C 	C 	0.20960 0.62410 0.46190 -0.16300
H 	H 	0.19010 0.62440 0.53310 0.08700
C 	C 	0.27860 0.58800 0.49600 0.12800
H 	H 	0.30570 0.56220 0.58930 -0.01100
C 	C 	0.15440 0.69420 0.06580 0.16100
C 	C 	0.15630 0.66240 0.93590 -0.21100
H 	H 	0.18690 0.61370 0.92260 0.10300
C 	C 	0.10240 0.71850 0.82830 0.11200
H 	H 	0.09110 0.71250 0.72800 -0.03200
O 	O 	0.91620 0.91550 0.85130 -0.47400
O 	O 	0.91038 0.00590 0.03410 -0.47000
O 	O 	0.04008 0.11750 0.70360 -0.29100
N 	N 	0.56900 0.71830 0.38630 -0.19800
N 	N 	0.60210 0.73480 0.53150 -0.18300
H 	H 	0.59090 0.70320 0.59580 0.14100
C 	C 	0.88430 0.94680 0.92870 0.52000
C 	C 	0.80790 0.90990 0.89070 -0.18100
C 	C 	0.76780 0.87300 0.75310 0.06900
H 	H 	0.78830 0.87040 0.68360 0.01300
C 	C 	0.69690 0.83930 0.71640 -0.09000
C 	C 	0.66880 0.84010 0.82300 0.03300
H 	H 	0.62180 0.81620 0.80070 0.04200
C 	C 	0.70960 0.87590 0.96190 -0.13600
H 	H 	0.69010 0.87560 0.03310 0.08800
C 	C 	0.77860 0.91200 0.99600 0.07900
H 	H 	0.80570 0.93780 0.08930 0.01500
C 	C 	0.65440 0.80580 0.56580 0.15200
C 	C 	0.65630 0.83760 0.43590 -0.19400
H 	H 	0.68690 0.88630 0.42260 0.10400
C 	C 	0.60240 0.78150 0.32830 0.12100
H 	H 	0.59110 0.78750 0.22800 -0.01700
O 	O 	0.41620 0.41550 0.85130 -0.58600
O 	O 	0.41038 0.50590 0.03410 -0.57800
O 	O 	0.54008 0.61750 0.70360 -0.29200
N 	N 	0.06900 0.21830 0.38630 -0.20100
N 	N 	0.10210 0.23480 0.53150 -0.18700
H 	H 	0.09090 0.20320 0.59580 0.13600
C 	C 	0.38430 0.44680 0.92870 0.58600
C 	C 	0.30790 0.40990 0.89070 -0.23000
C 	C 	0.26780 0.37300 0.75310 0.10100
H 	H 	0.28830 0.37040 0.68360 -0.00100
C 	C 	0.19690 0.33930 0.71640 -0.11400
C 	C 	0.16880 0.34010 0.82300 0.05200
H 	H 	0.12180 0.31620 0.80070 0.02600
C 	C 	0.20960 0.37590 0.96190 -0.16600
H 	H 	0.19010 0.37560 0.03310 0.09000
C 	C 	0.27860 0.41200 0.99600 0.12000
H 	H 	0.30570 0.43780 0.08930 -0.00700
C 	C 	0.15440 0.30580 0.56580 0.15300
C 	C 	0.15630 0.33760 0.43590 -0.20200
H 	H 	0.18690 0.38630 0.42260 0.10100
C 	C 	0.10240 0.28150 0.32830 0.10900
H 	H 	0.09110 0.28750 0.22800 -0.03000
O 	O 	0.08380 0.91550 0.64870 -0.55700
O 	O 	0.08962 0.00590 0.46590 -0.54800
O 	O 	0.95992 0.11750 0.79640 -0.15200
N 	N 	0.43100 0.71830 0.11370 -0.19600
N 	N 	0.39790 0.73480 0.96850 -0.18400
H 	H 	0.40910 0.70320 0.90420 0.14100
C 	C 	0.11570 0.94680 0.57130 0.54800
C 	C 	0.19210 0.90990 0.60930 -0.20400
C 	C 	0.23220 0.87300 0.74690 0.07900
H 	H 	0.21170 0.87040 0.81640 0.00900
C 	C 	0.30310 0.83930 0.78360 -0.09500
C 	C 	0.33120 0.84010 0.67700 0.03600
H 	H 	0.37820 0.81620 0.69930 0.04100
C 	C 	0.29040 0.87590 0.53810 -0.13800
H 	H 	0.30990 0.87560 0.46690 0.08500
C 	C 	0.22140 0.91200 0.50400 0.10200
H 	H 	0.19430 0.93780 0.41070 0.00200
C 	C 	0.34560 0.80580 0.93420 0.14800
C 	C 	0.34370 0.83760 0.06410 -0.18700
H 	H 	0.31310 0.88630 0.07740 0.10300
C 	C 	0.39760 0.78150 0.17170 0.11900
H 	H 	0.40890 0.78750 0.27200 -0.01600
O 	O 	0.58380 0.41550 0.64870 -0.58600
O 	O 	0.58962 0.50590 0.46590 -0.58200
O 	O 	0.45992 0.61750 0.79640 -0.29300
N 	N 	0.93100 0.21830 0.11370 -0.13600
N 	N 	0.89790 0.23480 0.96850 -0.18200
H 	H 	0.90910 0.20320 0.90420 0.16300
C 	C 	0.61570 0.44680 0.57130 0.58800
C 	C 	0.69210 0.40990 0.60930 -0.22300
C 	C 	0.73220 0.37300 0.74690 0.09200
H 	H 	0.71170 0.37040 0.81640 0.00100
C 	C 	0.80310 0.33930 0.78360 -0.09300
C 	C 	0.83120 0.34010 0.67700 0.03900
H 	H 	0.87820 0.31620 0.69930 0.07000
C 	C 	0.79040 0.37590 0.53810 -0.14000
H 	H 	0.80990 0.37560 0.46690 0.09700
C 	C 	0.72140 0.41200 0.50400 0.11600
H 	H 	0.69430 0.43780 0.41070 -0.00600
C 	C 	0.84560 0.30580 0.93420 0.15500
C 	C 	0.84370 0.33760 0.06410 -0.17200
H 	H 	0.81310 0.38630 0.07740 0.10400
C 	C 	0.89760 0.28150 0.17170 0.12300
H 	H 	0.90890 0.28750 0.27200 0.01800
Eu	Eu	-0.00000 0.05855 0.25000 1.79100
O 	O 	-0.00000 0.74260 0.25000 -0.20200
N 	N 	-0.00000 0.83130 0.25000 0.00200
Eu	Eu	0.50000 0.55855 0.25000 2.16500
O 	O 	0.50000 0.24260 0.25000 -0.14500
N 	N 	0.50000 0.33130 0.25000 0.07200
Eu	Eu	0.00000 0.94145 0.75000 1.79300
O 	O 	0.00000 0.25740 0.75000 -0.20300
N 	N 	0.00000 0.16870 0.75000 0.00300
Eu	Eu	0.50000 0.44145 0.75000 2.16300
O 	O 	0.50000 0.75740 0.75000 -0.14600
N 	N 	0.50000 0.66870 0.75000 0.07200
