data_crystal

_cell_length_a 18.09130
_cell_length_b 16.97390
_cell_length_c 10.36400
_cell_angle_alpha 90.00000
_cell_angle_beta  90.00000
_cell_angle_gamma 90.00000

_symmetry_space_group_name_	'P 1'
_symmetry_space_group_name_H-M	'P 1'

loop_
_symmetry_equiv_pos_as_xyz
  x,y,z

loop_
_atom_site_label
_atom_site_type_symbol
_atom_site_fract_x
_atom_site_fract_y
_atom_site_fract_z
_atom_site_charge
Ga	Ga	0.20363 0.23771 0.08534 2.10000
Ga	Ga	0.39910 0.20742 0.11145 2.08600
Ga	Ga	0.21336 0.41437 0.91233 2.09200
P 	P 	0.32287 0.28415 0.88117 0.62600
P 	P 	0.28283 0.06986 0.10519 0.67200
P 	P 	0.07615 0.29690 0.89970 0.63300
F 	F 	0.29857 0.24615 0.16940 -0.83300
F 	F 	0.21007 0.35507 0.08110 -0.79100
O 	O 	0.25601 0.23673 0.92340 -0.56000
O 	O 	0.21579 0.12353 0.08840 -0.54200
O 	O 	0.10798 0.24263 0.00350 -0.54800
O 	O 	0.34728 0.25706 0.74680 -0.47700
O 	O 	0.39080 0.27281 0.96950 -0.52100
O 	O 	0.30542 0.37299 0.88120 -0.56600
O 	O 	0.35790 0.11033 0.08130 -0.68100
O 	O 	0.07649 0.25175 0.77160 -0.58900
O 	O 	0.99750 0.32193 0.93590 -0.53900
O 	O 	0.28386 0.03197 0.24000 -0.53200
O 	O 	0.27539 0.00628 0.00090 -0.61800
O 	O 	0.12012 0.37451 0.88190 -0.68600
O 	O 	0.40830 0.92220 0.24900 -0.15300
Ga	Ga	0.29637 0.26229 0.58534 2.10400
Ga	Ga	0.10090 0.29258 0.61145 2.08900
Ga	Ga	0.28664 0.08563 0.41233 2.08300
P 	P 	0.17713 0.21585 0.38117 0.62800
P 	P 	0.21717 0.43014 0.60519 0.67100
P 	P 	0.42385 0.20310 0.39970 0.64700
F 	F 	0.20143 0.25385 0.66940 -0.82700
F 	F 	0.28993 0.14493 0.58110 -0.78700
O 	O 	0.24399 0.26327 0.42340 -0.57700
O 	O 	0.28421 0.37647 0.58840 -0.52200
O 	O 	0.39202 0.25737 0.50350 -0.51100
O 	O 	0.15272 0.24294 0.24680 -0.48900
O 	O 	0.10920 0.22719 0.46950 -0.55600
O 	O 	0.19458 0.12701 0.38120 -0.59500
O 	O 	0.14210 0.38967 0.58130 -0.66800
O 	O 	0.42351 0.24825 0.27160 -0.58100
O 	O 	0.50250 0.17807 0.43590 -0.59800
O 	O 	0.21614 0.46803 0.74000 -0.50100
O 	O 	0.22461 0.49372 0.50090 -0.56700
O 	O 	0.37988 0.12549 0.38190 -0.70100
O 	O 	0.09170 0.57780 0.74900 -0.17900
Ga	Ga	0.79637 0.23771 0.41466 2.10400
Ga	Ga	0.60090 0.20742 0.38855 2.09000
Ga	Ga	0.78664 0.41437 0.58767 2.08800
P 	P 	0.67713 0.28415 0.61883 0.62700
P 	P 	0.71717 0.06986 0.39481 0.67300
P 	P 	0.92385 0.29690 0.60030 0.68200
F 	F 	0.70143 0.24615 0.33060 -0.82700
F 	F 	0.78993 0.35507 0.41890 -0.77800
O 	O 	0.74399 0.23673 0.57660 -0.57800
O 	O 	0.78421 0.12353 0.41160 -0.52500
O 	O 	0.89202 0.24263 0.49650 -0.50800
O 	O 	0.65272 0.25706 0.75320 -0.47700
O 	O 	0.60920 0.27281 0.53050 -0.54200
O 	O 	0.69458 0.37299 0.61880 -0.57700
O 	O 	0.64210 0.11033 0.41870 -0.67200
O 	O 	0.92351 0.25175 0.72840 -0.56600
O 	O 	0.00250 0.32193 0.56410 -0.63700
O 	O 	0.71614 0.03197 0.26000 -0.53400
O 	O 	0.72461 0.00628 0.49910 -0.59500
O 	O 	0.87988 0.37451 0.61810 -0.68700
O 	O 	0.59170 0.92220 0.25100 -0.15500
Ga	Ga	0.70363 0.26229 0.91466 2.10700
Ga	Ga	0.89910 0.29258 0.88855 2.09400
Ga	Ga	0.71336 0.08563 0.08767 2.07800
P 	P 	0.82287 0.21585 0.11883 0.62700
P 	P 	0.78283 0.43014 0.89481 0.67100
P 	P 	0.57615 0.20310 0.10030 0.62200
F 	F 	0.79857 0.25385 0.83060 -0.82000
F 	F 	0.71007 0.14493 0.91890 -0.77300
O 	O 	0.75601 0.26327 0.07660 -0.59600
O 	O 	0.71579 0.37647 0.91160 -0.51300
O 	O 	0.60798 0.25737 0.99650 -0.48200
O 	O 	0.84728 0.24294 0.25320 -0.47600
O 	O 	0.89080 0.22719 0.03050 -0.55600
O 	O 	0.80542 0.12701 0.11880 -0.59600
O 	O 	0.85790 0.38967 0.91870 -0.64700
O 	O 	0.57649 0.24825 0.22840 -0.57900
O 	O 	0.49750 0.17807 0.06410 -0.60900
O 	O 	0.78386 0.46803 0.76000 -0.50300
O 	O 	0.77539 0.49372 0.99910 -0.54500
O 	O 	0.62012 0.12549 0.11810 -0.70800
O 	O 	0.90830 0.57780 0.75100 -0.14800
Ga	Ga	0.79637 0.76229 0.91466 2.10700
Ga	Ga	0.60090 0.79258 0.88855 2.09300
Ga	Ga	0.78664 0.58563 0.08767 2.08300
P 	P 	0.67713 0.71585 0.11883 0.62700
P 	P 	0.71717 0.93014 0.89481 0.67000
P 	P 	0.92385 0.70310 0.10030 0.65900
F 	F 	0.70143 0.75385 0.83060 -0.82000
F 	F 	0.78993 0.64493 0.91890 -0.76500
O 	O 	0.74399 0.76327 0.07660 -0.59200
O 	O 	0.78421 0.87647 0.91160 -0.50300
O 	O 	0.89202 0.75737 0.99650 -0.47400
O 	O 	0.65272 0.74294 0.25320 -0.47900
O 	O 	0.60920 0.72719 0.03050 -0.55900
O 	O 	0.69458 0.62701 0.11880 -0.58900
O 	O 	0.64210 0.88967 0.91870 -0.64500
O 	O 	0.92351 0.74825 0.22840 -0.56400
O 	O 	0.00250 0.67807 0.06410 -0.64400
O 	O 	0.71614 0.96803 0.76000 -0.48000
O 	O 	0.72461 0.99372 0.99910 -0.51500
O 	O 	0.87988 0.62549 0.11810 -0.69400
O 	O 	0.59170 0.07780 0.75100 -0.18400
Ga	Ga	0.70363 0.73771 0.41466 2.10400
Ga	Ga	0.89910 0.70742 0.38855 2.09100
Ga	Ga	0.71336 0.91437 0.58767 2.09300
P 	P 	0.82287 0.78415 0.61883 0.62600
P 	P 	0.78283 0.56986 0.39481 0.67200
P 	P 	0.57615 0.79690 0.60030 0.64500
F 	F 	0.79857 0.74615 0.33060 -0.82500
F 	F 	0.71007 0.85507 0.41890 -0.76900
O 	O 	0.75601 0.73673 0.57660 -0.57600
O 	O 	0.71579 0.62353 0.41160 -0.52300
O 	O 	0.60798 0.74263 0.49650 -0.51000
O 	O 	0.84728 0.75706 0.75320 -0.46800
O 	O 	0.89080 0.77281 0.53050 -0.52600
O 	O 	0.80542 0.87299 0.61880 -0.56100
O 	O 	0.85790 0.61033 0.41870 -0.65900
O 	O 	0.57649 0.75175 0.72840 -0.57200
O 	O 	0.49750 0.82193 0.56410 -0.58800
O 	O 	0.78386 0.53197 0.26000 -0.51000
O 	O 	0.77539 0.50628 0.49910 -0.56400
O 	O 	0.62012 0.87451 0.61810 -0.68000
O 	O 	0.90830 0.42220 0.25100 -0.16100
Ga	Ga	0.20363 0.76229 0.58534 2.10400
Ga	Ga	0.39910 0.79258 0.61145 2.09000
Ga	Ga	0.21336 0.58563 0.41233 2.08800
P 	P 	0.32287 0.71585 0.38117 0.62700
P 	P 	0.28283 0.93014 0.60519 0.66900
P 	P 	0.07615 0.70310 0.39970 0.61000
F 	F 	0.29857 0.75385 0.66940 -0.82500
F 	F 	0.21007 0.64493 0.58110 -0.77800
O 	O 	0.25601 0.76327 0.42340 -0.57500
O 	O 	0.21579 0.87647 0.58840 -0.51900
O 	O 	0.10798 0.75737 0.50350 -0.51400
O 	O 	0.34728 0.74294 0.24680 -0.47900
O 	O 	0.39080 0.72719 0.46950 -0.54100
O 	O 	0.30542 0.62701 0.38120 -0.57800
O 	O 	0.35790 0.88967 0.58130 -0.65500
O 	O 	0.07649 0.74825 0.27160 -0.58600
O 	O 	0.99750 0.67807 0.43590 -0.55000
O 	O 	0.28386 0.96803 0.74000 -0.47800
O 	O 	0.27539 0.99372 0.50090 -0.53600
O 	O 	0.12012 0.62549 0.38190 -0.69500
O 	O 	0.40830 0.07780 0.74900 -0.18200
Ga	Ga	0.29637 0.73771 0.08534 2.10200
Ga	Ga	0.10090 0.70742 0.11145 2.08700
Ga	Ga	0.28664 0.91437 0.91233 2.09700
P 	P 	0.17713 0.78415 0.88117 0.62600
P 	P 	0.21717 0.56986 0.10519 0.67200
P 	P 	0.42385 0.79690 0.89970 0.66800
F 	F 	0.20143 0.74615 0.16940 -0.83100
F 	F 	0.28993 0.85507 0.08110 -0.78000
O 	O 	0.24399 0.73673 0.92340 -0.55900
O 	O 	0.28421 0.62353 0.08840 -0.53100
O 	O 	0.39202 0.74263 0.00350 -0.53600
O 	O 	0.15272 0.75706 0.74680 -0.48100
O 	O 	0.10920 0.77281 0.96950 -0.52900
O 	O 	0.19458 0.87299 0.88120 -0.56100
O 	O 	0.14210 0.61033 0.08130 -0.67700
O 	O 	0.42351 0.75175 0.77160 -0.57400
O 	O 	0.50250 0.82193 0.93590 -0.57700
O 	O 	0.21614 0.53197 0.24000 -0.50800
O 	O 	0.22461 0.50628 0.00090 -0.58500
O 	O 	0.37988 0.87451 0.88190 -0.67300
O 	O 	0.09170 0.42220 0.24900 -0.19100
Cs	Cs	0.50000 0.00000 0.50000 0.70100
Cs	Cs	-0.00000 0.50000 -0.00000 0.69100
Cs	Cs	0.50000 0.00000 -0.00000 0.69000
Cs	Cs	0.00000 0.50000 0.50000 0.70100
