data_crystal

_cell_length_a 17.94910
_cell_length_b 16.97970
_cell_length_c 10.36360
_cell_angle_alpha 90.00000
_cell_angle_beta  90.00000
_cell_angle_gamma 90.00000

_symmetry_space_group_name_	'P 1'
_symmetry_space_group_name_H-M	'P 1'

loop_
_symmetry_equiv_pos_as_xyz
  x,y,z

loop_
_atom_site_label
_atom_site_type_symbol
_atom_site_fract_x
_atom_site_fract_y
_atom_site_fract_z
_atom_site_charge
Ga	Ga	0.20212 0.23997 0.08722 2.10300
Ga	Ga	0.39846 0.20173 0.11248 2.08600
Ga	Ga	0.21780 0.41602 0.91274 2.09100
P 	P 	0.32371 0.28100 0.88277 0.63100
P 	P 	0.27645 0.06934 0.10647 0.66800
P 	P 	0.07577 0.30446 0.90141 0.62800
F 	F 	0.29840 0.24478 0.17010 -0.83000
F 	F 	0.21266 0.35644 0.08190 -0.80400
O 	O 	0.25468 0.23601 0.92540 -0.56400
O 	O 	0.21070 0.12600 0.09180 -0.54300
O 	O 	0.10568 0.24977 0.00620 -0.55400
O 	O 	0.34768 0.25254 0.74930 -0.49800
O 	O 	0.39150 0.26793 0.97170 -0.53400
O 	O 	0.30884 0.37001 0.88140 -0.56700
O 	O 	0.35364 0.10646 0.08050 -0.69700
O 	O 	0.07657 0.25927 0.77330 -0.59400
O 	O 	0.99653 0.33184 0.93430 -0.56600
O 	O 	0.27788 0.03119 0.24140 -0.55000
O 	O 	0.26534 0.00650 0.00240 -0.62200
O 	O 	0.12196 0.38112 0.88580 -0.70100
Ga	Ga	0.29788 0.26003 0.58722 2.10500
Ga	Ga	0.10154 0.29827 0.61248 2.08900
Ga	Ga	0.28220 0.08398 0.41274 2.08200
P 	P 	0.17629 0.21900 0.38277 0.63300
P 	P 	0.22355 0.43066 0.60647 0.66600
P 	P 	0.42423 0.19554 0.40141 0.64200
F 	F 	0.20160 0.25522 0.67010 -0.82500
F 	F 	0.28734 0.14356 0.58190 -0.80100
O 	O 	0.24532 0.26399 0.42540 -0.57900
O 	O 	0.28930 0.37400 0.59180 -0.52400
O 	O 	0.39432 0.25023 0.50620 -0.52000
O 	O 	0.15232 0.24746 0.24930 -0.50900
O 	O 	0.10850 0.23207 0.47170 -0.56600
O 	O 	0.19116 0.12999 0.38140 -0.59300
O 	O 	0.14636 0.39354 0.58050 -0.68400
O 	O 	0.42343 0.24073 0.27330 -0.58600
O 	O 	0.50347 0.16816 0.43430 -0.62300
O 	O 	0.22212 0.46881 0.74140 -0.52200
O 	O 	0.23466 0.49350 0.50240 -0.57500
O 	O 	0.37804 0.11888 0.38580 -0.71500
Ga	Ga	0.79788 0.23997 0.41278 2.10500
Ga	Ga	0.60154 0.20173 0.38752 2.08900
Ga	Ga	0.78220 0.41602 0.58726 2.08700
P 	P 	0.67629 0.28100 0.61723 0.63100
P 	P 	0.72355 0.06934 0.39353 0.66800
P 	P 	0.92423 0.30446 0.59859 0.67600
F 	F 	0.70160 0.24478 0.32990 -0.82500
F 	F 	0.78734 0.35644 0.41810 -0.79000
O 	O 	0.74532 0.23601 0.57460 -0.58000
O 	O 	0.78930 0.12600 0.40820 -0.52700
O 	O 	0.89432 0.24977 0.49380 -0.51600
O 	O 	0.65232 0.25254 0.75070 -0.49900
O 	O 	0.60850 0.26793 0.52830 -0.55300
O 	O 	0.69116 0.37001 0.61860 -0.57700
O 	O 	0.64636 0.10646 0.41950 -0.68800
O 	O 	0.92343 0.25927 0.72670 -0.57200
O 	O 	0.00347 0.33184 0.56570 -0.65900
O 	O 	0.72212 0.03119 0.25860 -0.55100
O 	O 	0.73466 0.00650 0.49760 -0.60100
O 	O 	0.87804 0.38112 0.61420 -0.70000
Ga	Ga	0.70212 0.26003 0.91278 2.10700
Ga	Ga	0.89846 0.29827 0.88752 2.09300
Ga	Ga	0.71780 0.08398 0.08726 2.07800
P 	P 	0.82371 0.21900 0.11723 0.63200
P 	P 	0.77645 0.43066 0.89353 0.66600
P 	P 	0.57577 0.19554 0.09859 0.61900
F 	F 	0.79840 0.25522 0.82990 -0.81800
F 	F 	0.71266 0.14356 0.91810 -0.78700
O 	O 	0.75468 0.26399 0.07460 -0.59600
O 	O 	0.71070 0.37400 0.90820 -0.51600
O 	O 	0.60568 0.25023 0.99380 -0.49400
O 	O 	0.84768 0.24746 0.25070 -0.49500
O 	O 	0.89150 0.23207 0.02830 -0.56500
O 	O 	0.80884 0.12999 0.11860 -0.59300
O 	O 	0.85364 0.39354 0.91950 -0.66400
O 	O 	0.57657 0.24073 0.22670 -0.58400
O 	O 	0.49653 0.16816 0.06570 -0.63300
O 	O 	0.77788 0.46881 0.75860 -0.52200
O 	O 	0.76534 0.49350 0.99760 -0.55400
O 	O 	0.62196 0.11888 0.11420 -0.72200
Ga	Ga	0.79788 0.76003 0.91278 2.10700
Ga	Ga	0.60154 0.79827 0.88752 2.09200
Ga	Ga	0.78220 0.58398 0.08726 2.08300
P 	P 	0.67629 0.71900 0.11723 0.63200
P 	P 	0.72355 0.93066 0.89353 0.66500
P 	P 	0.92423 0.69554 0.09859 0.65400
F 	F 	0.70160 0.75522 0.82990 -0.81800
F 	F 	0.78734 0.64356 0.91810 -0.77700
O 	O 	0.74532 0.76399 0.07460 -0.59200
O 	O 	0.78930 0.87400 0.90820 -0.50600
O 	O 	0.89432 0.75023 0.99380 -0.48400
O 	O 	0.65232 0.74746 0.25070 -0.49700
O 	O 	0.60850 0.73207 0.02830 -0.56800
O 	O 	0.69116 0.62999 0.11860 -0.58700
O 	O 	0.64636 0.89354 0.91950 -0.66100
O 	O 	0.92343 0.74073 0.22670 -0.57000
O 	O 	0.00347 0.66816 0.06570 -0.66500
O 	O 	0.72212 0.96881 0.75860 -0.50200
O 	O 	0.73466 0.99350 0.99760 -0.52500
O 	O 	0.87804 0.61888 0.11420 -0.70700
Ga	Ga	0.70212 0.73997 0.41278 2.10500
Ga	Ga	0.89846 0.70173 0.38752 2.09000
Ga	Ga	0.71780 0.91602 0.58726 2.09200
P 	P 	0.82371 0.78100 0.61723 0.63100
P 	P 	0.77645 0.56934 0.39353 0.66700
P 	P 	0.57577 0.80446 0.59859 0.64100
F 	F 	0.79840 0.74478 0.32990 -0.82200
F 	F 	0.71266 0.85644 0.41810 -0.78000
O 	O 	0.75468 0.73601 0.57460 -0.57800
O 	O 	0.71070 0.62600 0.40820 -0.52500
O 	O 	0.60568 0.74977 0.49380 -0.51800
O 	O 	0.84768 0.75254 0.75070 -0.48700
O 	O 	0.89150 0.76793 0.52830 -0.53700
O 	O 	0.80884 0.87001 0.61860 -0.56100
O 	O 	0.85364 0.60646 0.41950 -0.67400
O 	O 	0.57657 0.75927 0.72670 -0.57800
O 	O 	0.49653 0.83184 0.56570 -0.61100
O 	O 	0.77788 0.53119 0.25860 -0.53000
O 	O 	0.76534 0.50650 0.49760 -0.57100
O 	O 	0.62196 0.88112 0.61420 -0.69400
Ga	Ga	0.20212 0.76003 0.58722 2.10500
Ga	Ga	0.39846 0.79827 0.61248 2.09000
Ga	Ga	0.21780 0.58398 0.41274 2.08700
P 	P 	0.32371 0.71900 0.38277 0.63200
P 	P 	0.27645 0.93066 0.60647 0.66400
P 	P 	0.07577 0.69554 0.40141 0.60700
F 	F 	0.29840 0.75522 0.67010 -0.82200
F 	F 	0.21266 0.64356 0.58190 -0.79100
O 	O 	0.25468 0.76399 0.42540 -0.57700
O 	O 	0.21070 0.87400 0.59180 -0.52200
O 	O 	0.10568 0.75023 0.50620 -0.52200
O 	O 	0.34768 0.74746 0.24930 -0.49700
O 	O 	0.39150 0.73207 0.47170 -0.55100
O 	O 	0.30884 0.62999 0.38140 -0.57700
O 	O 	0.35364 0.89354 0.58050 -0.67100
O 	O 	0.07657 0.74073 0.27330 -0.59100
O 	O 	0.99653 0.66816 0.43430 -0.57500
O 	O 	0.27788 0.96881 0.74140 -0.50200
O 	O 	0.26534 0.99350 0.50240 -0.54500
O 	O 	0.12196 0.61888 0.38580 -0.70900
Ga	Ga	0.29788 0.73997 0.08722 2.10300
Ga	Ga	0.10154 0.70173 0.11248 2.08600
Ga	Ga	0.28220 0.91602 0.91274 2.09600
P 	P 	0.17629 0.78100 0.88277 0.63100
P 	P 	0.22355 0.56934 0.10647 0.66700
P 	P 	0.42423 0.80446 0.90141 0.66200
F 	F 	0.20160 0.74478 0.17010 -0.82800
F 	F 	0.28734 0.85644 0.08190 -0.79000
O 	O 	0.24532 0.73601 0.92540 -0.56200
O 	O 	0.28930 0.62600 0.09180 -0.53200
O 	O 	0.39432 0.74977 0.00620 -0.54200
O 	O 	0.15232 0.75254 0.74930 -0.50100
O 	O 	0.10850 0.76793 0.97170 -0.54100
O 	O 	0.19116 0.87001 0.88140 -0.56300
O 	O 	0.14636 0.60646 0.08050 -0.69300
O 	O 	0.42343 0.75927 0.77330 -0.58000
O 	O 	0.50347 0.83184 0.93430 -0.60000
O 	O 	0.22212 0.53119 0.24140 -0.53000
O 	O 	0.23466 0.50650 0.00240 -0.59100
O 	O 	0.37804 0.88112 0.88580 -0.68700
Rb	Rb	0.50000 0.00000 0.50000 0.64900
Rb	Rb	-0.00000 0.50000 -0.00000 0.64100
Rb	Rb	0.50000 0.00000 -0.00000 0.64100
Rb	Rb	-0.00000 0.50000 0.50000 0.64900
