data_crystal

_cell_length_a 17.12320
_cell_length_b 17.12320
_cell_length_c 11.30860
_cell_angle_alpha 90.00000
_cell_angle_beta  90.00000
_cell_angle_gamma 90.00000

_symmetry_space_group_name_	'P 1'
_symmetry_space_group_name_H-M	'P 1'

loop_
_symmetry_equiv_pos_as_xyz
  x,y,z

loop_
_atom_site_label
_atom_site_type_symbol
_atom_site_fract_x
_atom_site_fract_y
_atom_site_fract_z
_atom_site_charge
N 	N 	0.83219 0.33059 0.14820 -0.20200
N 	N 	0.89788 0.42200 0.04170 -0.27400
N 	N 	0.82138 0.40994 0.86230 -0.23700
N 	N 	0.80293 0.33583 0.03500 -0.23000
O 	O 	0.70792 0.24572 0.06650 -0.49600
C 	C 	0.88870 0.38330 0.14540 0.09700
H 	H 	0.92030 0.39320 0.21060 -0.01400
C 	C 	0.84070 0.39170 0.97180 0.24900
C 	C 	0.76100 0.36940 0.81730 0.42500
C 	C 	0.71980 0.31240 0.87890 -0.49400
H 	H 	0.67900 0.28630 0.84170 0.20100
C 	C 	0.73870 0.29360 0.99540 0.43800
C 	C 	0.73800 0.39080 0.69200 -0.94800
H 	H 	0.73100 0.44630 0.68650 0.30400
H 	H 	0.69000 0.36500 0.67190 0.30200
H 	H 	0.77830 0.37470 0.63840 0.31500
N 	N 	0.33219 0.83059 0.64820 -0.20300
N 	N 	0.39788 0.92200 0.54170 -0.25700
N 	N 	0.32138 0.90994 0.36230 -0.22200
N 	N 	0.30293 0.83583 0.53500 -0.18300
O 	O 	0.20792 0.74572 0.56650 -0.45000
C 	C 	0.38870 0.88330 0.64540 0.10000
H 	H 	0.42030 0.89320 0.71060 -0.02100
C 	C 	0.34070 0.89170 0.47180 0.18500
C 	C 	0.26100 0.86940 0.31730 0.38500
C 	C 	0.21980 0.81240 0.37890 -0.44400
H 	H 	0.17900 0.78630 0.34170 0.17100
C 	C 	0.23870 0.79360 0.49540 0.34700
C 	C 	0.23800 0.89080 0.19200 -0.89500
H 	H 	0.23100 0.94630 0.18650 0.29000
H 	H 	0.19000 0.86500 0.17190 0.27500
H 	H 	0.27830 0.87470 0.13840 0.29200
N 	N 	0.66781 0.66941 0.64820 -0.20500
N 	N 	0.60212 0.57800 0.54170 -0.26400
N 	N 	0.67862 0.59006 0.36230 -0.22600
N 	N 	0.69707 0.66417 0.53500 -0.18400
O 	O 	0.79208 0.75428 0.56650 -0.43800
C 	C 	0.61130 0.61670 0.64540 0.09600
H 	H 	0.57970 0.60680 0.71060 -0.02800
C 	C 	0.65930 0.60830 0.47180 0.18200
C 	C 	0.73900 0.63060 0.31730 0.38800
C 	C 	0.78020 0.68760 0.37890 -0.44500
H 	H 	0.82100 0.71370 0.34170 0.18600
C 	C 	0.76130 0.70640 0.49540 0.35000
C 	C 	0.76200 0.60920 0.19200 -0.89600
H 	H 	0.76900 0.55370 0.18650 0.28500
H 	H 	0.81000 0.63500 0.17190 0.28300
H 	H 	0.72170 0.62530 0.13840 0.29000
N 	N 	0.16781 0.16941 0.14820 -0.21100
N 	N 	0.10212 0.07800 0.04170 -0.30600
N 	N 	0.17862 0.09006 0.86230 -0.24400
N 	N 	0.19707 0.16417 0.03500 -0.23600
O 	O 	0.29208 0.25428 0.06650 -0.49800
C 	C 	0.11130 0.11670 0.14540 0.08500
H 	H 	0.07970 0.10680 0.21060 -0.05300
C 	C 	0.15930 0.10830 0.97180 0.23900
C 	C 	0.23900 0.13060 0.81730 0.41500
C 	C 	0.28020 0.18760 0.87890 -0.49300
H 	H 	0.32100 0.21370 0.84170 0.20100
C 	C 	0.26130 0.20640 0.99540 0.44100
C 	C 	0.26200 0.10920 0.69200 -0.92500
H 	H 	0.26900 0.05370 0.68650 0.29000
H 	H 	0.31000 0.13500 0.67190 0.29400
H 	H 	0.22170 0.12530 0.63840 0.30100
N 	N 	0.41941 0.08219 0.39820 -0.21000
N 	N 	0.32800 0.14788 0.29170 -0.26600
N 	N 	0.34006 0.07138 0.11230 -0.20400
N 	N 	0.41417 0.05293 0.28500 -0.18700
O 	O 	0.50428 0.95792 0.31650 -0.43000
C 	C 	0.36670 0.13870 0.39540 0.09300
H 	H 	0.35680 0.17030 0.46060 -0.03100
C 	C 	0.35830 0.09070 0.22180 0.16800
C 	C 	0.38060 0.01100 0.06730 0.19100
C 	C 	0.43760 0.96980 0.12890 -0.31600
H 	H 	0.46370 0.92900 0.09170 0.12700
C 	C 	0.45640 0.98870 0.24540 0.32100
C 	C 	0.35920 0.98800 0.94200 -0.50900
H 	H 	0.30370 0.98100 0.93650 0.19500
H 	H 	0.38500 0.94000 0.92190 0.18800
H 	H 	0.37530 0.02830 0.88840 0.17000
N 	N 	0.91941 0.58219 0.89820 -0.17700
N 	N 	0.82800 0.64788 0.79170 -0.26200
N 	N 	0.84006 0.57138 0.61230 -0.23500
N 	N 	0.91417 0.55293 0.78500 -0.19300
O 	O 	0.00428 0.45792 0.81650 -0.52300
C 	C 	0.86670 0.63870 0.89540 0.10200
H 	H 	0.85680 0.67030 0.96060 -0.01300
C 	C 	0.85830 0.59070 0.72180 0.19500
C 	C 	0.88060 0.51100 0.56730 0.44100
C 	C 	0.93760 0.46980 0.62890 -0.50900
H 	H 	0.96370 0.42900 0.59170 0.22700
C 	C 	0.95640 0.48870 0.74540 0.46600
C 	C 	0.85920 0.48800 0.44200 -0.97700
H 	H 	0.80370 0.48100 0.43650 0.31200
H 	H 	0.88500 0.44000 0.42190 0.32000
H 	H 	0.87530 0.52830 0.38840 0.33200
N 	N 	0.08059 0.91781 0.89820 -0.20100
N 	N 	0.17200 0.85212 0.79170 -0.26300
N 	N 	0.15994 0.92862 0.61230 -0.24000
N 	N 	0.08583 0.94707 0.78500 -0.16200
O 	O 	0.99572 0.04208 0.81650 -0.34700
C 	C 	0.13330 0.86130 0.89540 0.09500
H 	H 	0.14320 0.82970 0.96060 -0.02000
C 	C 	0.14170 0.90930 0.72180 0.18300
C 	C 	0.11940 0.98900 0.56730 0.48800
C 	C 	0.06240 0.03020 0.62890 -0.49100
H 	H 	0.03630 0.07100 0.59170 0.16800
C 	C 	0.04360 0.01130 0.74540 0.24300
C 	C 	0.14080 0.01200 0.44200 -1.14700
H 	H 	0.19630 0.01900 0.43650 0.35100
H 	H 	0.11500 0.06000 0.42190 0.34300
H 	H 	0.12470 0.97170 0.38840 0.37800
N 	N 	0.58059 0.41781 0.39820 -0.20600
N 	N 	0.67200 0.35212 0.29170 -0.26500
N 	N 	0.65994 0.42862 0.11230 -0.22500
N 	N 	0.58583 0.44707 0.28500 -0.18100
O 	O 	0.49572 0.54208 0.31650 -0.44400
C 	C 	0.63330 0.36130 0.39540 0.09600
H 	H 	0.64320 0.32970 0.46060 -0.03100
C 	C 	0.64170 0.40930 0.22180 0.17800
C 	C 	0.61940 0.48900 0.06730 0.32800
C 	C 	0.56240 0.53020 0.12890 -0.41600
H 	H 	0.53630 0.57100 0.09170 0.15900
C 	C 	0.54360 0.51130 0.24540 0.33500
C 	C 	0.64080 0.51200 0.94200 -0.80300
H 	H 	0.69630 0.51900 0.93650 0.26900
H 	H 	0.61500 0.56000 0.92190 0.26800
H 	H 	0.62470 0.47170 0.88840 0.27500
N 	N 	0.16781 0.66941 0.85180 -0.20900
N 	N 	0.10212 0.57800 0.95830 -0.23900
N 	N 	0.17862 0.59006 0.13770 -0.21400
N 	N 	0.19707 0.66417 0.96500 -0.12900
O 	O 	0.29208 0.75428 0.93350 -0.38700
C 	C 	0.11130 0.61670 0.85460 0.09700
H 	H 	0.07970 0.60680 0.78940 -0.04500
C 	C 	0.15930 0.60830 0.02820 0.10500
C 	C 	0.23900 0.63060 0.18270 0.35800
C 	C 	0.28020 0.68760 0.12110 -0.39500
H 	H 	0.32100 0.71370 0.15830 0.15800
C 	C 	0.26130 0.70640 0.00460 0.24600
C 	C 	0.26200 0.60920 0.30800 -0.87800
H 	H 	0.26900 0.55370 0.31350 0.28200
H 	H 	0.31000 0.63500 0.32810 0.27900
H 	H 	0.22170 0.62530 0.36160 0.29000
N 	N 	0.66781 0.16941 0.35180 -0.20800
N 	N 	0.60212 0.07800 0.45830 -0.26900
N 	N 	0.67862 0.09006 0.63770 -0.23200
N 	N 	0.69707 0.16417 0.46500 -0.18500
O 	O 	0.79208 0.25428 0.43350 -0.44200
C 	C 	0.61130 0.11670 0.35460 0.09400
H 	H 	0.57970 0.10680 0.28940 -0.04000
C 	C 	0.65930 0.10830 0.52820 0.18000
C 	C 	0.73900 0.13060 0.68270 0.40100
C 	C 	0.78020 0.18760 0.62110 -0.45300
H 	H 	0.82100 0.21370 0.65830 0.19100
C 	C 	0.76130 0.20640 0.50460 0.35300
C 	C 	0.76200 0.10920 0.80800 -0.93300
H 	H 	0.76900 0.05370 0.81350 0.29600
H 	H 	0.81000 0.13500 0.82810 0.30600
H 	H 	0.72170 0.12530 0.86160 0.31200
N 	N 	0.33219 0.33059 0.35180 -0.20700
N 	N 	0.39788 0.42200 0.45830 -0.26500
N 	N 	0.32138 0.40994 0.63770 -0.22800
N 	N 	0.30293 0.33583 0.46500 -0.18400
O 	O 	0.20792 0.24572 0.43350 -0.45500
C 	C 	0.38870 0.38330 0.35460 0.09700
H 	H 	0.42030 0.39320 0.28940 -0.03400
C 	C 	0.34070 0.39170 0.52820 0.18300
C 	C 	0.26100 0.36940 0.68270 0.40200
C 	C 	0.21980 0.31240 0.62110 -0.45400
H 	H 	0.17900 0.28630 0.65830 0.17700
C 	C 	0.23870 0.29360 0.50460 0.35000
C 	C 	0.23800 0.39080 0.80800 -0.94100
H 	H 	0.23100 0.44630 0.81350 0.30600
H 	H 	0.19000 0.36500 0.82810 0.30300
H 	H 	0.27830 0.37470 0.86160 0.31900
N 	N 	0.83219 0.83059 0.85180 -0.20100
N 	N 	0.89788 0.92200 0.95830 -0.21300
N 	N 	0.82138 0.90994 0.13770 -0.21000
N 	N 	0.80293 0.83583 0.96500 -0.13400
O 	O 	0.70792 0.74572 0.93350 -0.39600
C 	C 	0.88870 0.88330 0.85460 0.10800
H 	H 	0.92030 0.89320 0.78940 -0.00800
C 	C 	0.84070 0.89170 0.02820 0.13000
C 	C 	0.76100 0.86940 0.18270 0.37200
C 	C 	0.71980 0.81240 0.12110 -0.40600
H 	H 	0.67900 0.78630 0.15830 0.16200
C 	C 	0.73870 0.79360 0.00460 0.26200
C 	C 	0.73800 0.89080 0.30800 -0.90500
H 	H 	0.73100 0.94630 0.31350 0.29600
H 	H 	0.69000 0.86500 0.32810 0.28800
H 	H 	0.77830 0.87470 0.36160 0.30500
N 	N 	0.58059 0.91781 0.60180 -0.19900
N 	N 	0.67200 0.85212 0.70830 -0.26400
N 	N 	0.65994 0.92862 0.88770 -0.24900
N 	N 	0.58583 0.94707 0.71500 -0.17900
O 	O 	0.49572 0.04208 0.68350 -0.45900
C 	C 	0.63330 0.86130 0.60460 0.09900
H 	H 	0.64320 0.82970 0.53940 -0.03000
C 	C 	0.64170 0.90930 0.77820 0.19700
C 	C 	0.61940 0.98900 0.93270 0.59100
C 	C 	0.56240 0.03020 0.87110 -0.58000
H 	H 	0.53630 0.07100 0.90830 0.23400
C 	C 	0.54360 0.01130 0.75460 0.37700
C 	C 	0.64080 0.01200 0.05800 -1.29000
H 	H 	0.69630 0.01900 0.06350 0.38700
H 	H 	0.61500 0.06000 0.07810 0.38700
H 	H 	0.62470 0.97170 0.11160 0.42300
N 	N 	0.08059 0.41781 0.10180 -0.22700
N 	N 	0.17200 0.35212 0.20830 -0.26700
N 	N 	0.15994 0.42862 0.38770 -0.21900
N 	N 	0.08583 0.44707 0.21500 -0.17300
O 	O 	0.99572 0.54208 0.18350 -0.34800
C 	C 	0.13330 0.36130 0.10460 0.08900
H 	H 	0.14320 0.32970 0.03940 -0.04800
C 	C 	0.14170 0.40930 0.27820 0.16900
C 	C 	0.11940 0.48900 0.43270 0.34400
C 	C 	0.06240 0.53020 0.37110 -0.38400
H 	H 	0.03630 0.57100 0.40830 0.13300
C 	C 	0.04360 0.51130 0.25460 0.22400
C 	C 	0.14080 0.51200 0.55800 -0.85400
H 	H 	0.19630 0.51900 0.56350 0.27500
H 	H 	0.11500 0.56000 0.57810 0.26400
H 	H 	0.12470 0.47170 0.61160 0.27500
N 	N 	0.91941 0.08219 0.10180 -0.19400
N 	N 	0.82800 0.14788 0.20830 -0.26500
N 	N 	0.84006 0.07138 0.38770 -0.21600
N 	N 	0.91417 0.05293 0.21500 -0.20000
O 	O 	0.00428 0.95792 0.18350 -0.53000
C 	C 	0.86670 0.13870 0.10460 0.09700
H 	H 	0.85680 0.17030 0.03940 -0.03600
C 	C 	0.85830 0.09070 0.27820 0.18400
C 	C 	0.88060 0.01100 0.43270 0.31800
C 	C 	0.93760 0.96980 0.37110 -0.42000
H 	H 	0.96370 0.92900 0.40830 0.19800
C 	C 	0.95640 0.98870 0.25460 0.45700
C 	C 	0.85920 0.98800 0.55800 -0.72000
H 	H 	0.80370 0.98100 0.56350 0.24600
H 	H 	0.88500 0.94000 0.57810 0.25000
H 	H 	0.87530 0.02830 0.61160 0.24100
N 	N 	0.41941 0.58219 0.60180 -0.20600
N 	N 	0.32800 0.64788 0.70830 -0.26400
N 	N 	0.34006 0.57138 0.88770 -0.22900
N 	N 	0.41417 0.55293 0.71500 -0.18700
O 	O 	0.50428 0.45792 0.68350 -0.44900
C 	C 	0.36670 0.63870 0.60460 0.09700
H 	H 	0.35680 0.67030 0.53940 -0.03100
C 	C 	0.35830 0.59070 0.77820 0.18700
C 	C 	0.38060 0.51100 0.93270 0.46400
C 	C 	0.43760 0.46980 0.87110 -0.48400
H 	H 	0.46370 0.42900 0.90830 0.20400
C 	C 	0.45640 0.48870 0.75460 0.36600
C 	C 	0.35920 0.48800 0.05800 -1.03600
H 	H 	0.30370 0.48100 0.06350 0.32000
H 	H 	0.38500 0.44000 0.07810 0.31700
H 	H 	0.37530 0.52830 0.11160 0.33300
Mn	Mn	0.00000 0.50000 -0.00000 1.21500
Mn	Mn	0.50000 0.00000 0.50000 1.25100
Mn	Mn	0.50000 0.50000 0.50000 1.26200
Mn	Mn	-0.00000 0.00000 -0.00000 1.20500
Mn	Mn	0.25000 0.25000 0.25000 1.26000
Mn	Mn	0.25000 0.75000 0.75000 1.26200
Mn	Mn	0.75000 0.75000 0.75000 1.26300
Mn	Mn	0.75000 0.25000 0.25000 1.26200
