data_crystal

_cell_length_a 17.36550
_cell_length_b 17.36550
_cell_length_c 11.55080
_cell_angle_alpha 90.00000
_cell_angle_beta  90.00000
_cell_angle_gamma 90.00000

_symmetry_space_group_name_	'P 1'
_symmetry_space_group_name_H-M	'P 1'

loop_
_symmetry_equiv_pos_as_xyz
  x,y,z

loop_
_atom_site_label
_atom_site_type_symbol
_atom_site_fract_x
_atom_site_fract_y
_atom_site_fract_z
_atom_site_charge
N 	N 	0.16724 0.32986 0.14080 -0.20200
N 	N 	0.10450 0.42141 0.03880 -0.29600
N 	N 	0.17912 0.41082 0.86200 -0.24100
N 	N 	0.19738 0.33576 0.03140 -0.23100
O 	O 	0.29064 0.24463 0.05720 -0.47700
C 	C 	0.11265 0.38225 0.13890 0.08700
H 	H 	0.08150 0.39180 0.20280 -0.04600
C 	C 	0.23880 0.37020 0.81800 0.42900
C 	C 	0.27810 0.31340 0.87680 -0.50100
H 	H 	0.31790 0.28740 0.83950 0.20200
C 	C 	0.25981 0.29375 0.99070 0.43700
C 	C 	0.26210 0.39200 0.69650 -0.95400
H 	H 	0.22330 0.37490 0.64310 0.31100
H 	H 	0.31030 0.36790 0.67790 0.30200
H 	H 	0.26740 0.44690 0.69130 0.30700
C 	C 	0.16039 0.39193 0.96950 0.23700
N 	N 	0.66724 0.82986 0.64080 -0.19700
N 	N 	0.60450 0.92141 0.53880 -0.25300
N 	N 	0.67912 0.91082 0.36200 -0.22400
N 	N 	0.69738 0.83576 0.53140 -0.18000
O 	O 	0.79064 0.74463 0.55720 -0.41800
C 	C 	0.61265 0.88225 0.63890 0.09800
H 	H 	0.58150 0.89180 0.70280 -0.02300
C 	C 	0.73880 0.87020 0.31800 0.40000
C 	C 	0.77810 0.81340 0.37680 -0.45200
H 	H 	0.81790 0.78740 0.33950 0.18600
C 	C 	0.75981 0.79375 0.49070 0.34700
C 	C 	0.76210 0.89200 0.19650 -0.91900
H 	H 	0.72330 0.87490 0.14310 0.29800
H 	H 	0.81030 0.86790 0.17790 0.29000
H 	H 	0.76740 0.94690 0.19130 0.29700
C 	C 	0.66039 0.89193 0.46950 0.17900
N 	N 	0.33276 0.67014 0.64080 -0.19800
N 	N 	0.39550 0.57859 0.53880 -0.25900
N 	N 	0.32088 0.58918 0.36200 -0.22400
N 	N 	0.30262 0.66424 0.53140 -0.17900
O 	O 	0.20936 0.75537 0.55720 -0.42500
C 	C 	0.38735 0.61775 0.63890 0.09600
H 	H 	0.41850 0.60820 0.70280 -0.02900
C 	C 	0.26120 0.62980 0.31800 0.38700
C 	C 	0.22190 0.68660 0.37680 -0.44300
H 	H 	0.18210 0.71260 0.33950 0.17200
C 	C 	0.24019 0.70625 0.49070 0.33900
C 	C 	0.23790 0.60800 0.19650 -0.88500
H 	H 	0.27670 0.62510 0.14310 0.28400
H 	H 	0.18970 0.63210 0.17790 0.27100
H 	H 	0.23260 0.55310 0.19130 0.28000
C 	C 	0.33961 0.60807 0.46950 0.17700
N 	N 	0.83276 0.17014 0.14080 -0.19700
N 	N 	0.89550 0.07859 0.03880 -0.27200
N 	N 	0.82088 0.08918 0.86200 -0.23700
N 	N 	0.80262 0.16424 0.03140 -0.22300
O 	O 	0.70936 0.25537 0.05720 -0.47000
C 	C 	0.88735 0.11775 0.13890 0.09500
H 	H 	0.91850 0.10820 0.20280 -0.02100
C 	C 	0.76120 0.12980 0.81800 0.42500
C 	C 	0.72190 0.18660 0.87680 -0.49100
H 	H 	0.68210 0.21260 0.83950 0.20000
C 	C 	0.74019 0.20625 0.99070 0.42600
C 	C 	0.73790 0.10800 0.69650 -0.93900
H 	H 	0.77670 0.12510 0.64310 0.30700
H 	H 	0.68970 0.13210 0.67790 0.29700
H 	H 	0.73260 0.05310 0.69130 0.29500
C 	C 	0.83961 0.10807 0.96950 0.23500
N 	N 	0.42014 0.41724 0.39080 -0.19900
N 	N 	0.32859 0.35450 0.28880 -0.26000
N 	N 	0.33918 0.42912 0.11200 -0.22400
N 	N 	0.41424 0.44738 0.28140 -0.17700
O 	O 	0.50537 0.54064 0.30720 -0.42100
C 	C 	0.36775 0.36265 0.38890 0.09500
H 	H 	0.35820 0.33150 0.45280 -0.03200
C 	C 	0.37980 0.48880 0.06800 0.33200
C 	C 	0.43660 0.52810 0.12680 -0.41700
H 	H 	0.46260 0.56790 0.08950 0.15900
C 	C 	0.45625 0.50981 0.24070 0.32900
C 	C 	0.35800 0.51210 0.94650 -0.80700
H 	H 	0.37510 0.47330 0.89310 0.27500
H 	H 	0.38210 0.56030 0.92790 0.26800
H 	H 	0.30310 0.51740 0.94130 0.27100
C 	C 	0.35807 0.41039 0.21950 0.17300
N 	N 	0.92014 0.91724 0.89080 -0.16800
N 	N 	0.82859 0.85450 0.78880 -0.25700
N 	N 	0.83918 0.92912 0.61200 -0.24900
N 	N 	0.91424 0.94738 0.78140 -0.18300
O 	O 	0.00537 0.04064 0.80720 -0.50500
C 	C 	0.86775 0.86265 0.88890 0.10300
H 	H 	0.85820 0.83150 0.95280 -0.01500
C 	C 	0.87980 0.98880 0.56800 0.55100
C 	C 	0.93660 0.02810 0.62680 -0.58800
H 	H 	0.96260 0.06790 0.58950 0.24900
C 	C 	0.95625 0.00981 0.74070 0.46300
C 	C 	0.85800 0.01210 0.44650 -1.19500
H 	H 	0.87510 0.97330 0.39310 0.40500
H 	H 	0.88210 0.06030 0.42790 0.37700
H 	H 	0.80310 0.01740 0.44130 0.36800
C 	C 	0.85807 0.91039 0.71950 0.19600
N 	N 	0.07986 0.58276 0.89080 -0.20200
N 	N 	0.17141 0.64550 0.78880 -0.25800
N 	N 	0.16082 0.57088 0.61200 -0.21900
N 	N 	0.08576 0.55262 0.78140 -0.16800
O 	O 	0.99463 0.45936 0.80720 -0.32600
C 	C 	0.13225 0.63735 0.88890 0.09300
H 	H 	0.14180 0.66850 0.95280 -0.02300
C 	C 	0.12020 0.51120 0.56800 0.35500
C 	C 	0.06340 0.47190 0.62680 -0.39400
H 	H 	0.03740 0.43210 0.58950 0.13900
C 	C 	0.04375 0.49019 0.74070 0.23700
C 	C 	0.14200 0.48790 0.44650 -0.86200
H 	H 	0.12490 0.52670 0.39310 0.27600
H 	H 	0.11790 0.43970 0.42790 0.26500
H 	H 	0.19690 0.48260 0.44130 0.27700
C 	C 	0.14193 0.58961 0.71950 0.16800
N 	N 	0.57986 0.08276 0.39080 -0.20300
N 	N 	0.67141 0.14550 0.28880 -0.26000
N 	N 	0.66082 0.07088 0.11200 -0.20700
N 	N 	0.58576 0.05262 0.28140 -0.18200
O 	O 	0.49463 0.95936 0.30720 -0.41000
C 	C 	0.63225 0.13735 0.38890 0.09300
H 	H 	0.64180 0.16850 0.45280 -0.03200
C 	C 	0.62020 0.01120 0.06800 0.22600
C 	C 	0.56340 0.97190 0.12680 -0.33800
H 	H 	0.53740 0.93210 0.08950 0.13300
C 	C 	0.54375 0.99019 0.24070 0.31800
C 	C 	0.64200 0.98790 0.94650 -0.57700
H 	H 	0.62490 0.02670 0.89310 0.19200
H 	H 	0.61790 0.93970 0.92790 0.20500
H 	H 	0.69690 0.98260 0.94130 0.21100
C 	C 	0.64193 0.08961 0.21950 0.16500
N 	N 	0.83276 0.67014 0.85920 -0.19500
N 	N 	0.89550 0.57859 0.96120 -0.21800
N 	N 	0.82088 0.58918 0.13800 -0.21200
N 	N 	0.80262 0.66424 0.96860 -0.13300
O 	O 	0.70936 0.75537 0.94280 -0.37200
C 	C 	0.88735 0.61775 0.86110 0.10400
H 	H 	0.91850 0.60820 0.79720 -0.01700
C 	C 	0.76120 0.62980 0.18200 0.37400
C 	C 	0.72190 0.68660 0.12320 -0.40600
H 	H 	0.68210 0.71260 0.16050 0.16100
C 	C 	0.74019 0.70625 0.00930 0.25700
C 	C 	0.73790 0.60800 0.30350 -0.89400
H 	H 	0.77670 0.62510 0.35690 0.29600
H 	H 	0.68970 0.63210 0.32210 0.28300
H 	H 	0.73260 0.55310 0.30870 0.28500
C 	C 	0.83961 0.60807 0.03050 0.12500
N 	N 	0.33276 0.17014 0.35920 -0.20100
N 	N 	0.39550 0.07859 0.46120 -0.26300
N 	N 	0.32088 0.08918 0.63800 -0.22900
N 	N 	0.30262 0.16424 0.46860 -0.18000
O 	O 	0.20936 0.25537 0.44280 -0.42900
C 	C 	0.38735 0.11775 0.36110 0.09400
H 	H 	0.41850 0.10820 0.29720 -0.03900
C 	C 	0.26120 0.12980 0.68200 0.40200
C 	C 	0.22190 0.18660 0.62320 -0.45200
H 	H 	0.18210 0.21260 0.66050 0.17700
C 	C 	0.24019 0.20625 0.50930 0.34300
C 	C 	0.23790 0.10800 0.80350 -0.92700
H 	H 	0.27670 0.12510 0.85690 0.30900
H 	H 	0.18970 0.13210 0.82210 0.29600
H 	H 	0.23260 0.05310 0.80870 0.29400
C 	C 	0.33961 0.10807 0.53050 0.17500
N 	N 	0.66724 0.32986 0.35920 -0.20000
N 	N 	0.60450 0.42141 0.46120 -0.25900
N 	N 	0.67912 0.41082 0.63800 -0.22900
N 	N 	0.69738 0.33576 0.46860 -0.18100
O 	O 	0.79064 0.24463 0.44280 -0.42200
C 	C 	0.61265 0.38225 0.36110 0.09600
H 	H 	0.58150 0.39180 0.29720 -0.03400
C 	C 	0.73880 0.37020 0.68200 0.41400
C 	C 	0.77810 0.31340 0.62320 -0.46100
H 	H 	0.81790 0.28740 0.66050 0.19200
C 	C 	0.75981 0.29375 0.50930 0.35000
C 	C 	0.76210 0.39200 0.80350 -0.95900
H 	H 	0.72330 0.37490 0.85690 0.32100
H 	H 	0.81030 0.36790 0.82210 0.31200
H 	H 	0.76740 0.44690 0.80870 0.31100
C 	C 	0.66039 0.39193 0.53050 0.17700
N 	N 	0.16724 0.82986 0.85920 -0.20000
N 	N 	0.10450 0.92141 0.96120 -0.22700
N 	N 	0.17912 0.91082 0.13800 -0.21200
N 	N 	0.19738 0.83576 0.96860 -0.12600
O 	O 	0.29064 0.74463 0.94280 -0.36900
C 	C 	0.11265 0.88225 0.86110 0.10000
H 	H 	0.08150 0.89180 0.79720 -0.03800
C 	C 	0.23880 0.87020 0.18200 0.37100
C 	C 	0.27810 0.81340 0.12320 -0.40400
H 	H 	0.31790 0.78740 0.16050 0.16000
C 	C 	0.25981 0.79375 0.00930 0.24600
C 	C 	0.26210 0.89200 0.30350 -0.90300
H 	H 	0.22330 0.87490 0.35690 0.29900
H 	H 	0.31030 0.86790 0.32210 0.28600
H 	H 	0.26740 0.94690 0.30870 0.29600
C 	C 	0.16039 0.89193 0.03050 0.10400
N 	N 	0.57986 0.58276 0.60920 -0.19900
N 	N 	0.67141 0.64550 0.71120 -0.25800
N 	N 	0.66082 0.57088 0.88800 -0.22900
N 	N 	0.58576 0.55262 0.71860 -0.18300
O 	O 	0.49463 0.45936 0.69280 -0.42600
C 	C 	0.63225 0.63735 0.61110 0.09600
H 	H 	0.64180 0.66850 0.54720 -0.03200
C 	C 	0.62020 0.51120 0.93200 0.46600
C 	C 	0.56340 0.47190 0.87320 -0.48500
H 	H 	0.53740 0.43210 0.91050 0.20400
C 	C 	0.54375 0.49019 0.75930 0.36000
C 	C 	0.64200 0.48790 0.05350 -1.03400
H 	H 	0.62490 0.52670 0.10690 0.33100
H 	H 	0.61790 0.43970 0.07210 0.31600
H 	H 	0.69690 0.48260 0.05870 0.32000
C 	C 	0.64193 0.58961 0.78050 0.18100
N 	N 	0.07986 0.08276 0.10920 -0.22200
N 	N 	0.17141 0.14550 0.21120 -0.26100
N 	N 	0.16082 0.07088 0.38800 -0.20100
N 	N 	0.08576 0.05262 0.21860 -0.17600
O 	O 	0.99463 0.95936 0.19280 -0.32900
C 	C 	0.13225 0.13735 0.11110 0.08700
H 	H 	0.14180 0.16850 0.04720 -0.04800
C 	C 	0.12020 0.01120 0.43200 0.23300
C 	C 	0.06340 0.97190 0.37320 -0.30200
H 	H 	0.03740 0.93210 0.41050 0.11000
C 	C 	0.04375 0.99019 0.25930 0.22200
C 	C 	0.14200 0.98790 0.55350 -0.61100
H 	H 	0.12490 0.02670 0.60690 0.18800
H 	H 	0.11790 0.93970 0.57210 0.19800
H 	H 	0.19690 0.98260 0.55870 0.21300
C 	C 	0.14193 0.08961 0.28050 0.15700
N 	N 	0.92014 0.41724 0.10920 -0.18500
N 	N 	0.82859 0.35450 0.21120 -0.26000
N 	N 	0.83918 0.42912 0.38800 -0.23400
N 	N 	0.91424 0.44738 0.21860 -0.19100
O 	O 	0.00537 0.54064 0.19280 -0.51600
C 	C 	0.86775 0.36265 0.11110 0.09900
H 	H 	0.85820 0.33150 0.04720 -0.03600
C 	C 	0.87980 0.48880 0.43200 0.44800
C 	C 	0.93660 0.52810 0.37320 -0.51400
H 	H 	0.96260 0.56790 0.41050 0.22600
C 	C 	0.95625 0.50981 0.25930 0.45900
C 	C 	0.85800 0.51210 0.55350 -0.98500
H 	H 	0.87510 0.47330 0.60690 0.33100
H 	H 	0.88210 0.56030 0.57210 0.32000
H 	H 	0.80310 0.51740 0.55870 0.31400
C 	C 	0.85807 0.41039 0.28050 0.18700
N 	N 	0.42014 0.91724 0.60920 -0.19300
N 	N 	0.32859 0.85450 0.71120 -0.25800
N 	N 	0.33918 0.92912 0.88800 -0.24600
N 	N 	0.41424 0.94738 0.71860 -0.17600
O 	O 	0.50537 0.04064 0.69280 -0.43600
C 	C 	0.36775 0.86265 0.61110 0.09900
H 	H 	0.35820 0.83150 0.54720 -0.03100
C 	C 	0.37980 0.98880 0.93200 0.58800
C 	C 	0.43660 0.02810 0.87320 -0.57700
H 	H 	0.46260 0.06790 0.91050 0.23200
C 	C 	0.45625 0.00981 0.75930 0.37300
C 	C 	0.35800 0.01210 0.05350 -1.27200
H 	H 	0.37510 0.97330 0.10690 0.41300
H 	H 	0.38210 0.06030 0.07210 0.38100
H 	H 	0.30310 0.01740 0.05870 0.38200
C 	C 	0.35807 0.91039 0.78050 0.19000
Cd	Cd	-0.00000 0.50000 -0.00000 1.17000
Cd	Cd	0.50000 0.00000 0.50000 1.19900
Cd	Cd	0.50000 0.50000 0.50000 1.20700
Cd	Cd	-0.00000 0.00000 -0.00000 1.16300
Cd	Cd	0.25000 0.25000 0.25000 1.20500
Cd	Cd	0.25000 0.75000 0.75000 1.20700
Cd	Cd	0.75000 0.75000 0.75000 1.20900
Cd	Cd	0.75000 0.25000 0.25000 1.20700
