data_crystal

_cell_length_a 10.86370
_cell_length_b 6.38830
_cell_length_c 16.96300
_cell_angle_alpha 90.00000
_cell_angle_beta  105.75700
_cell_angle_gamma 90.00000

_symmetry_space_group_name_	'P 1'
_symmetry_space_group_name_H-M	'P 1'

loop_
_symmetry_equiv_pos_as_xyz
  x,y,z

loop_
_atom_site_label
_atom_site_type_symbol
_atom_site_fract_x
_atom_site_fract_y
_atom_site_fract_z
_atom_site_charge
Co	Co	0.53459 0.00311 0.91606 1.11700
C 	C 	0.66860 0.18300 0.66360 0.37400
C 	C 	0.77680 0.12030 0.73570 -0.09900
C 	C 	0.83410 0.92320 0.73910 -0.03300
H 	H 	0.80340 0.82780 0.69690 0.04900
C 	C 	0.93540 0.86920 0.80420 0.08100
H 	H 	0.97400 0.73900 0.80490 0.01600
C 	C 	0.98050 0.00690 0.86880 -0.22900
H 	H 	0.05000 0.97030 0.91230 0.15400
C 	C 	0.92200 0.19740 0.86830 0.11100
C 	C 	0.82180 0.25570 0.80080 -0.08800
H 	H 	0.78490 0.38740 0.79980 0.06200
C 	C 	0.08580 0.43020 0.95990 0.13400
H 	H 	0.14500 0.38270 0.93330 -0.00900
C 	C 	0.96340 0.34600 0.93820 -0.08000
C 	C 	0.87700 0.41650 0.97990 0.05700
C 	C 	0.74280 0.33010 0.96430 0.31900
O 	O 	0.61440 0.03930 0.61852 -0.48200
O 	O 	0.63910 0.37420 0.65413 -0.46400
O 	O 	0.72430 0.13680 0.96606 -0.41100
O 	O 	0.65600 0.46600 0.95189 -0.42100
O 	O 	0.44440 0.19020 0.98306 -0.75300
H 	H 	0.36530 0.19020 0.95770 0.26900
Co	Co	0.46541 0.50311 0.58394 1.12100
C 	C 	0.33140 0.68300 0.83640 0.36800
C 	C 	0.22320 0.62030 0.76430 -0.07800
C 	C 	0.16590 0.42320 0.76090 -0.04400
H 	H 	0.19660 0.32780 0.80310 0.04100
C 	C 	0.06460 0.36920 0.69580 -0.00300
H 	H 	0.02600 0.23900 0.69510 0.02500
C 	C 	0.01950 0.50690 0.63120 -0.12800
H 	H 	0.95000 0.47030 0.58770 0.09300
C 	C 	0.07800 0.69740 0.63170 0.06400
C 	C 	0.17820 0.75570 0.69920 -0.07100
H 	H 	0.21510 0.88740 0.70020 0.06200
C 	C 	0.91420 0.93020 0.54010 0.08900
H 	H 	0.85500 0.88270 0.56670 0.00800
C 	C 	0.03660 0.84600 0.56180 -0.05500
C 	C 	0.12300 0.91650 0.52010 0.00400
C 	C 	0.25720 0.83010 0.53570 0.33000
O 	O 	0.38560 0.53930 0.88148 -0.44600
O 	O 	0.36090 0.87420 0.84587 -0.43800
O 	O 	0.27570 0.63680 0.53394 -0.43000
O 	O 	0.34400 0.96600 0.54811 -0.43200
O 	O 	0.55560 0.69020 0.51694 -0.77400
H 	H 	0.63470 0.69020 0.54230 0.27500
Co	Co	0.46541 0.99689 0.08394 1.12500
C 	C 	0.33140 0.81700 0.33640 0.38900
C 	C 	0.22320 0.87970 0.26430 -0.12900
C 	C 	0.16590 0.07680 0.26090 0.03600
H 	H 	0.19660 0.17220 0.30310 0.00700
C 	C 	0.06460 0.13080 0.19580 -0.19100
H 	H 	0.02600 0.26100 0.19510 0.09500
C 	C 	0.01950 0.99310 0.13120 0.11900
H 	H 	0.95000 0.02970 0.08770 -0.02800
C 	C 	0.07800 0.80260 0.13170 -0.10700
C 	C 	0.17820 0.74430 0.19920 0.03800
H 	H 	0.21510 0.61260 0.20020 0.01600
C 	C 	0.91420 0.56980 0.04010 -0.20800
H 	H 	0.85500 0.61730 0.06670 0.09100
C 	C 	0.03660 0.65400 0.06180 0.14300
C 	C 	0.12300 0.58350 0.02010 -0.24600
C 	C 	0.25720 0.66990 0.03570 0.40400
O 	O 	0.38560 0.96070 0.38148 -0.45000
O 	O 	0.36090 0.62580 0.34587 -0.46600
O 	O 	0.27570 0.86320 0.03394 -0.46400
O 	O 	0.34400 0.53400 0.04811 -0.48800
O 	O 	0.55560 0.80980 0.01694 -0.80300
H 	H 	0.63470 0.80980 0.04230 0.27000
Co	Co	0.53459 0.49689 0.41606 1.12300
C 	C 	0.66860 0.31700 0.16360 0.39300
C 	C 	0.77680 0.37970 0.23570 -0.14900
C 	C 	0.83410 0.57680 0.23910 0.04400
H 	H 	0.80340 0.67220 0.19690 0.01600
C 	C 	0.93540 0.63080 0.30420 -0.10900
H 	H 	0.97400 0.76100 0.30490 0.08500
C 	C 	0.98050 0.49310 0.36880 0.02100
H 	H 	0.05000 0.52970 0.41230 0.02900
C 	C 	0.92200 0.30260 0.36830 -0.06200
C 	C 	0.82180 0.24430 0.30080 0.02100
H 	H 	0.78490 0.11260 0.29980 0.01700
C 	C 	0.08580 0.06980 0.45990 -0.16700
H 	H 	0.14500 0.11730 0.43330 0.07500
C 	C 	0.96340 0.15400 0.43820 0.12100
C 	C 	0.87700 0.08350 0.47990 -0.19200
C 	C 	0.74280 0.16990 0.46430 0.39400
O 	O 	0.61440 0.46070 0.11852 -0.48100
O 	O 	0.63910 0.12580 0.15413 -0.48800
O 	O 	0.72430 0.36320 0.46606 -0.44700
O 	O 	0.65600 0.03400 0.45189 -0.48100
O 	O 	0.44440 0.30980 0.48306 -0.78600
H 	H 	0.36530 0.30980 0.45770 0.26500
Co	Co	0.50000 0.50000 -0.00000 1.16900
Co	Co	0.50000 0.00000 0.50000 1.18100
