data_crystal

_cell_length_a 10.83520
_cell_length_b 6.32460
_cell_length_c 16.88340
_cell_angle_alpha 90.00000
_cell_angle_beta  105.66700
_cell_angle_gamma 90.00000

_symmetry_space_group_name_	'P 1'
_symmetry_space_group_name_H-M	'P 1'

loop_
_symmetry_equiv_pos_as_xyz
  x,y,z

loop_
_atom_site_label
_atom_site_type_symbol
_atom_site_fract_x
_atom_site_fract_y
_atom_site_fract_z
_atom_site_charge
Ni	Ni	0.53502 0.00363 0.91739 1.06700
C 	C 	0.66510 0.18590 0.66250 0.35400
C 	C 	0.77260 0.11660 0.73420 -0.08500
C 	C 	0.83040 0.92110 0.73700 -0.04200
H 	H 	0.80110 0.82610 0.69400 0.05400
C 	C 	0.93100 0.86540 0.80300 0.08600
H 	H 	0.96900 0.73330 0.80360 0.01400
C 	C 	0.97650 0.00150 0.86820 -0.23100
H 	H 	0.04550 0.96240 0.91190 0.15300
C 	C 	0.91990 0.19350 0.86810 0.11800
C 	C 	0.81880 0.25420 0.80040 -0.09700
H 	H 	0.78220 0.38740 0.79960 0.06600
C 	C 	0.08460 0.42930 0.95970 0.13400
H 	H 	0.14360 0.37930 0.93310 -0.00600
C 	C 	0.96160 0.34450 0.93830 -0.08400
C 	C 	0.87720 0.41620 0.98150 0.06100
C 	C 	0.73980 0.32710 0.96620 0.33400
O 	O 	0.60930 0.03390 0.61820 -0.45700
O 	O 	0.63720 0.37730 0.65080 -0.45000
O 	O 	0.72090 0.13560 0.96660 -0.41600
O 	O 	0.65730 0.47010 0.95590 -0.41500
O 	O 	0.44740 0.18990 0.98370 -0.73400
H 	H 	0.36830 0.19000 0.95840 0.27300
Ni	Ni	0.46498 0.50363 0.58261 1.06800
C 	C 	0.33490 0.68590 0.83750 0.34900
C 	C 	0.22740 0.61660 0.76580 -0.06500
C 	C 	0.16960 0.42110 0.76300 -0.05200
H 	H 	0.19890 0.32610 0.80600 0.04700
C 	C 	0.06900 0.36540 0.69700 0.00700
H 	H 	0.03100 0.23330 0.69640 0.02300
C 	C 	0.02350 0.50150 0.63180 -0.13600
H 	H 	0.95450 0.46240 0.58810 0.09600
C 	C 	0.08010 0.69350 0.63190 0.07200
C 	C 	0.18120 0.75420 0.69960 -0.08000
H 	H 	0.21780 0.88740 0.70040 0.06600
C 	C 	0.91540 0.92930 0.54030 0.08900
H 	H 	0.85640 0.87930 0.56690 0.01100
C 	C 	0.03840 0.84450 0.56170 -0.05900
C 	C 	0.12280 0.91620 0.51850 0.00800
C 	C 	0.26020 0.82710 0.53380 0.34500
O 	O 	0.39070 0.53390 0.88180 -0.42400
O 	O 	0.36280 0.87730 0.84920 -0.42600
O 	O 	0.27910 0.63560 0.53340 -0.43300
O 	O 	0.34270 0.97010 0.54410 -0.42600
O 	O 	0.55260 0.68990 0.51630 -0.75500
H 	H 	0.63170 0.69000 0.54160 0.27800
Ni	Ni	0.46498 0.99637 0.08261 1.07200
C 	C 	0.33490 0.81410 0.33750 0.37000
C 	C 	0.22740 0.88340 0.26580 -0.11700
C 	C 	0.16960 0.07890 0.26300 0.03100
H 	H 	0.19890 0.17390 0.30600 0.01200
C 	C 	0.06900 0.13460 0.19700 -0.18000
H 	H 	0.03100 0.26670 0.19640 0.09200
C 	C 	0.02350 0.99850 0.13180 0.10900
H 	H 	0.95450 0.03760 0.08810 -0.02200
C 	C 	0.08010 0.80650 0.13190 -0.09900
C 	C 	0.18120 0.74580 0.19960 0.02700
H 	H 	0.21780 0.61260 0.20040 0.02100
C 	C 	0.91540 0.57070 0.04030 -0.20500
H 	H 	0.85640 0.62070 0.06690 0.09300
C 	C 	0.03840 0.65550 0.06170 0.13900
C 	C 	0.12280 0.58380 0.01850 -0.23800
C 	C 	0.26020 0.67290 0.03380 0.41500
O 	O 	0.39070 0.96610 0.38180 -0.42600
O 	O 	0.36280 0.62270 0.34920 -0.45400
O 	O 	0.27910 0.86440 0.03340 -0.46600
O 	O 	0.34270 0.52990 0.04410 -0.48000
O 	O 	0.55260 0.81010 0.01630 -0.78200
H 	H 	0.63170 0.81000 0.04160 0.27300
Ni	Ni	0.53502 0.49637 0.41739 1.07000
C 	C 	0.66510 0.31410 0.16250 0.37300
C 	C 	0.77260 0.38340 0.23420 -0.13500
C 	C 	0.83040 0.57890 0.23700 0.03900
H 	H 	0.80110 0.67390 0.19400 0.02000
C 	C 	0.93100 0.63460 0.30300 -0.10200
H 	H 	0.96900 0.76670 0.30360 0.08300
C 	C 	0.97650 0.49850 0.36820 0.01600
H 	H 	0.04550 0.53760 0.41190 0.03200
C 	C 	0.91990 0.30650 0.36810 -0.05400
C 	C 	0.81880 0.24580 0.30040 0.00900
H 	H 	0.78220 0.11260 0.29960 0.02200
C 	C 	0.08460 0.07070 0.45970 -0.16300
H 	H 	0.14360 0.12070 0.43310 0.07700
C 	C 	0.96160 0.15550 0.43830 0.11600
C 	C 	0.87720 0.08380 0.48150 -0.18400
C 	C 	0.73980 0.17290 0.46620 0.40600
O 	O 	0.60930 0.46610 0.11820 -0.45500
O 	O 	0.63720 0.12270 0.15080 -0.47400
O 	O 	0.72090 0.36440 0.46660 -0.45000
O 	O 	0.65730 0.02990 0.45590 -0.47200
O 	O 	0.44740 0.31010 0.48370 -0.76500
H 	H 	0.36830 0.31000 0.45840 0.26900
Ni	Ni	0.50000 0.50000 -0.00000 1.11300
Ni	Ni	0.50000 -0.00000 0.50000 1.12400
