data_crystal

_cell_length_a 15.31620
_cell_length_b 12.61840
_cell_length_c 15.56590
_cell_angle_alpha 90.00000
_cell_angle_beta  96.16500
_cell_angle_gamma 90.00000

_symmetry_space_group_name_	'P 1'
_symmetry_space_group_name_H-M	'P 1'

loop_
_symmetry_equiv_pos_as_xyz
  x,y,z

loop_
_atom_site_label
_atom_site_type_symbol
_atom_site_fract_x
_atom_site_fract_y
_atom_site_fract_z
_atom_site_charge
Cd	Cd	0.68200 0.82646 0.68393 1.15700
Cd	Cd	0.39064 0.83011 0.73082 1.21400
C 	C 	0.96230 0.76030 0.74540 0.08400
C 	C 	0.05580 0.77780 0.73620 0.06400
C 	C 	0.08670 0.87300 0.71110 -0.14700
H 	H 	0.04820 0.92870 0.69660 0.08500
C 	C 	0.17550 0.88610 0.70720 0.08900
H 	H 	0.19510 0.95200 0.69070 -0.01000
C 	C 	0.20340 0.71770 0.74520 0.07900
H 	H 	0.24300 0.66190 0.75480 -0.02200
C 	C 	0.11640 0.69770 0.75250 -0.14500
H 	H 	0.09860 0.63070 0.76830 0.07500
C 	C 	0.63090 0.50620 0.59690 0.09600
C 	C 	0.62810 0.43150 0.52400 0.02800
C 	C 	0.58900 0.46250 0.44340 -0.12500
H 	H 	0.56430 0.52960 0.43570 0.07400
C 	C 	0.58710 0.39330 0.37520 0.06200
H 	H 	0.56050 0.41520 0.32170 -0.00700
C 	C 	0.66120 0.26670 0.45970 0.05700
H 	H 	0.68650 0.19970 0.46530 -0.00500
C 	C 	0.66590 0.33160 0.53120 -0.11600
H 	H 	0.69420 0.30870 0.58380 0.05500
C 	C 	0.48660 0.94780 0.61450 0.34100
C 	C 	0.51930 0.01990 0.54545 -0.06600
H 	H 	0.58350 0.01630 0.54970 0.03600
C 	C 	0.49150 0.13510 0.55950 -0.31300
H 	H 	0.50130 0.17580 0.50860 0.11700
H 	H 	0.42890 0.13610 0.56450 0.11500
C 	C 	0.53830 0.18980 0.63790 0.38400
N 	N 	0.82490 0.77650 0.73390 -0.18500
N 	N 	0.84530 0.69410 0.78330 -0.07000
N 	N 	0.93210 0.68190 0.79110 -0.09500
N 	N 	0.89760 0.82100 0.70930 -0.11900
N 	N 	0.23450 0.81100 0.72540 -0.23600
N 	N 	0.63870 0.65090 0.66530 -0.17400
N 	N 	0.63470 0.57540 0.72243 -0.07500
N 	N 	0.62990 0.48200 0.68084 -0.18500
N 	N 	0.63580 0.60990 0.58529 -0.12300
N 	N 	0.62170 0.29600 0.38211 -0.22700
O 	O 	0.53746 0.88660 0.65864 -0.51400
O 	O 	0.40567 0.95065 0.62298 -0.41200
O 	O 	0.60672 0.15310 0.67688 -0.39100
O 	O 	0.50779 0.27770 0.66004 -0.44800
Cd	Cd	0.31800 0.32646 0.81607 1.15600
Cd	Cd	0.60936 0.33011 0.76918 1.21300
C 	C 	0.03770 0.26030 0.75460 0.08400
C 	C 	0.94420 0.27780 0.76380 0.06500
C 	C 	0.91330 0.37300 0.78890 -0.14800
H 	H 	0.95180 0.42870 0.80340 0.08500
C 	C 	0.82450 0.38610 0.79280 0.08900
H 	H 	0.80490 0.45200 0.80930 -0.01000
C 	C 	0.79660 0.21770 0.75480 0.07900
H 	H 	0.75700 0.16190 0.74520 -0.02200
C 	C 	0.88360 0.19770 0.74750 -0.14500
H 	H 	0.90140 0.13070 0.73170 0.07500
C 	C 	0.36910 0.00620 0.90310 0.09800
C 	C 	0.37190 0.93150 0.97600 0.02500
C 	C 	0.41100 0.96250 0.05660 -0.12000
H 	H 	0.43570 0.02960 0.06430 0.07200
C 	C 	0.41290 0.89330 0.12480 0.05900
H 	H 	0.43950 0.91520 0.17830 -0.00600
C 	C 	0.33880 0.76670 0.04030 0.05800
H 	H 	0.31350 0.69970 0.03470 -0.00500
C 	C 	0.33410 0.83160 0.96880 -0.11500
H 	H 	0.30580 0.80870 0.91620 0.05400
C 	C 	0.51340 0.44780 0.88550 0.34100
C 	C 	0.48070 0.51990 0.95455 -0.06600
H 	H 	0.41650 0.51630 0.95030 0.03600
C 	C 	0.50850 0.63510 0.94050 -0.31300
H 	H 	0.49870 0.67580 0.99140 0.11700
H 	H 	0.57110 0.63610 0.93550 0.11500
C 	C 	0.46170 0.68980 0.86210 0.38300
N 	N 	0.17510 0.27650 0.76610 -0.18500
N 	N 	0.15470 0.19410 0.71670 -0.07000
N 	N 	0.06790 0.18190 0.70890 -0.09500
N 	N 	0.10240 0.32100 0.79070 -0.11900
N 	N 	0.76550 0.31100 0.77460 -0.23600
N 	N 	0.36130 0.15090 0.83470 -0.17400
N 	N 	0.36530 0.07540 0.77757 -0.07500
N 	N 	0.37010 0.98200 0.81916 -0.18600
N 	N 	0.36420 0.10990 0.91471 -0.12300
N 	N 	0.37830 0.79600 0.11789 -0.22600
O 	O 	0.46254 0.38660 0.84136 -0.51400
O 	O 	0.59433 0.45065 0.87702 -0.41200
O 	O 	0.39328 0.65310 0.82312 -0.39200
O 	O 	0.49221 0.77770 0.83996 -0.44800
Cd	Cd	0.31800 0.17354 0.31607 1.15600
Cd	Cd	0.60936 0.16989 0.26918 1.21300
C 	C 	0.03770 0.23970 0.25460 0.08400
C 	C 	0.94420 0.22220 0.26380 0.06400
C 	C 	0.91330 0.12700 0.28890 -0.14700
H 	H 	0.95180 0.07130 0.30340 0.08500
C 	C 	0.82450 0.11390 0.29280 0.08900
H 	H 	0.80490 0.04800 0.30930 -0.01000
C 	C 	0.79660 0.28230 0.25480 0.07900
H 	H 	0.75700 0.33810 0.24520 -0.02200
C 	C 	0.88360 0.30230 0.24750 -0.14500
H 	H 	0.90140 0.36930 0.23170 0.07500
C 	C 	0.36910 0.49380 0.40310 0.09600
C 	C 	0.37190 0.56850 0.47600 0.02800
C 	C 	0.41100 0.53750 0.55660 -0.12500
H 	H 	0.43570 0.47040 0.56430 0.07400
C 	C 	0.41290 0.60670 0.62480 0.06200
H 	H 	0.43950 0.58480 0.67830 -0.00700
C 	C 	0.33880 0.73330 0.54030 0.05700
H 	H 	0.31350 0.80030 0.53470 -0.00500
C 	C 	0.33410 0.66840 0.46880 -0.11600
H 	H 	0.30580 0.69130 0.41620 0.05500
C 	C 	0.51340 0.05220 0.38550 0.34100
C 	C 	0.48070 0.98010 0.45455 -0.06600
H 	H 	0.41650 0.98370 0.45030 0.03600
C 	C 	0.50850 0.86490 0.44050 -0.31300
H 	H 	0.49870 0.82420 0.49140 0.11700
H 	H 	0.57110 0.86390 0.43550 0.11500
C 	C 	0.46170 0.81020 0.36210 0.38400
N 	N 	0.17510 0.22350 0.26610 -0.18500
N 	N 	0.15470 0.30590 0.21670 -0.07000
N 	N 	0.06790 0.31810 0.20890 -0.09500
N 	N 	0.10240 0.17900 0.29070 -0.11900
N 	N 	0.76550 0.18900 0.27460 -0.23600
N 	N 	0.36130 0.34910 0.33470 -0.17400
N 	N 	0.36530 0.42460 0.27757 -0.07500
N 	N 	0.37010 0.51800 0.31916 -0.18500
N 	N 	0.36420 0.39010 0.41471 -0.12300
N 	N 	0.37830 0.70400 0.61789 -0.22700
O 	O 	0.46254 0.11340 0.34136 -0.51400
O 	O 	0.59433 0.04935 0.37702 -0.41200
O 	O 	0.39328 0.84690 0.32312 -0.39100
O 	O 	0.49221 0.72230 0.33996 -0.44800
Cd	Cd	0.68200 0.67354 0.18393 1.15600
Cd	Cd	0.39064 0.66989 0.23082 1.21300
C 	C 	0.96230 0.73970 0.24540 0.08400
C 	C 	0.05580 0.72220 0.23620 0.06500
C 	C 	0.08670 0.62700 0.21110 -0.14800
H 	H 	0.04820 0.57130 0.19660 0.08500
C 	C 	0.17550 0.61390 0.20720 0.08900
H 	H 	0.19510 0.54800 0.19070 -0.01000
C 	C 	0.20340 0.78230 0.24520 0.07900
H 	H 	0.24300 0.83810 0.25480 -0.02200
C 	C 	0.11640 0.80230 0.25250 -0.14500
H 	H 	0.09860 0.86930 0.26830 0.07500
C 	C 	0.63090 0.99380 0.09690 0.09800
C 	C 	0.62810 0.06850 0.02400 0.02500
C 	C 	0.58900 0.03750 0.94340 -0.12000
H 	H 	0.56430 0.97040 0.93570 0.07200
C 	C 	0.58710 0.10670 0.87520 0.05900
H 	H 	0.56050 0.08480 0.82170 -0.00600
C 	C 	0.66120 0.23330 0.95970 0.05800
H 	H 	0.68650 0.30030 0.96530 -0.00500
C 	C 	0.66590 0.16840 0.03120 -0.11500
H 	H 	0.69420 0.19130 0.08380 0.05400
C 	C 	0.48660 0.55220 0.11450 0.34100
C 	C 	0.51930 0.48010 0.04545 -0.06600
H 	H 	0.58350 0.48370 0.04970 0.03600
C 	C 	0.49150 0.36490 0.05950 -0.31300
H 	H 	0.50130 0.32420 0.00860 0.11700
H 	H 	0.42890 0.36390 0.06450 0.11500
C 	C 	0.53830 0.31020 0.13790 0.38300
N 	N 	0.82490 0.72350 0.23390 -0.18500
N 	N 	0.84530 0.80590 0.28330 -0.07000
N 	N 	0.93210 0.81810 0.29110 -0.09500
N 	N 	0.89760 0.67900 0.20930 -0.11900
N 	N 	0.23450 0.68900 0.22540 -0.23600
N 	N 	0.63870 0.84910 0.16530 -0.17400
N 	N 	0.63470 0.92460 0.22243 -0.07500
N 	N 	0.62990 0.01800 0.18084 -0.18600
N 	N 	0.63580 0.89010 0.08529 -0.12300
N 	N 	0.62170 0.20400 0.88211 -0.22600
O 	O 	0.53746 0.61340 0.15864 -0.51400
O 	O 	0.40567 0.54935 0.12298 -0.41200
O 	O 	0.60672 0.34690 0.17688 -0.39200
O 	O 	0.50779 0.22230 0.16004 -0.44800
