data_crystal

_cell_length_a 12.26730
_cell_length_b 16.45200
_cell_length_c 16.59700
_cell_angle_alpha 92.25100
_cell_angle_beta  90.25600
_cell_angle_gamma 101.75700

_symmetry_space_group_name_	'P 1'
_symmetry_space_group_name_H-M	'P 1'

loop_
_symmetry_equiv_pos_as_xyz
  x,y,z

loop_
_atom_site_label
_atom_site_type_symbol
_atom_site_fract_x
_atom_site_fract_y
_atom_site_fract_z
_atom_site_charge
Cd	Cd	0.11702 0.83487 0.02787 1.17600
Cd	Cd	0.84074 0.70143 0.38771 1.16200
C 	C 	0.34750 0.97660 0.01480 0.06900
H 	H 	0.38070 0.93430 0.99430 -0.01100
C 	C 	0.22460 0.04000 0.05420 0.09000
H 	H 	0.15710 0.05400 0.06790 0.00800
C 	C 	0.89870 0.68280 0.07250 0.09100
H 	H 	0.87630 0.71360 0.11520 -0.03800
C 	C 	0.98200 0.64360 0.97280 0.08000
H 	H 	0.03380 0.64400 0.93210 -0.00500
C 	C 	0.14840 0.53120 0.46490 0.08800
H 	H 	0.12800 0.47400 0.46950 0.01600
C 	C 	0.16180 0.65670 0.48020 0.08800
H 	H 	0.15150 0.70770 0.50150 0.01100
C 	C 	0.35240 0.17700 0.08690 0.08700
C 	C 	0.27540 0.22700 0.08120 -0.07900
H 	H 	0.20480 0.20570 0.05960 0.06800
C 	C 	0.30470 0.30950 0.10800 -0.08000
H 	H 	0.25350 0.34390 0.10470 0.07100
C 	C 	0.41130 0.34110 0.13990 0.09000
C 	C 	0.48480 0.28920 0.14650 -0.08600
H 	H 	0.55490 0.30960 0.16940 0.06400
C 	C 	0.45670 0.20680 0.11970 -0.07600
H 	H 	0.50750 0.17220 0.12370 0.06200
C 	C 	0.74740 0.55700 0.07820 0.06300
C 	C 	0.67900 0.49940 0.02840 -0.05500
H 	H 	0.69970 0.48990 0.97550 0.05500
C 	C 	0.58040 0.45620 0.05680 -0.10000
H 	H 	0.53490 0.41690 0.02300 0.06800
C 	C 	0.54660 0.47010 0.13610 0.10500
C 	C 	0.61980 0.52580 0.18630 -0.11700
H 	H 	0.60080 0.53420 0.23970 0.06700
C 	C 	0.72040 0.56890 0.15800 -0.04500
H 	H 	0.76910 0.60530 0.19230 0.00200
C 	C 	0.27220 0.53230 0.34490 0.09100
C 	C 	0.32730 0.58110 0.28740 -0.08000
H 	H 	0.32770 0.63770 0.28900 0.05600
C 	C 	0.38260 0.54670 0.22700 -0.08200
H 	H 	0.41870 0.58020 0.18730 0.05200
C 	C 	0.38490 0.46290 0.22490 0.08900
C 	C 	0.32880 0.41400 0.28340 -0.07400
H 	H 	0.32780 0.35730 0.28210 0.06700
C 	C 	0.27410 0.44900 0.34350 -0.07600
H 	H 	0.23820 0.41600 0.38360 0.06900
C 	C 	0.73240 0.49610 0.36750 0.10600
H 	H 	0.79580 0.48490 0.34260 -0.02400
C 	C 	0.61700 0.55470 0.42070 0.09600
H 	H 	0.58220 0.59640 0.44070 -0.01500
C 	C 	0.09410 0.82890 0.37900 0.10000
H 	H 	0.12650 0.79020 0.35070 -0.03000
C 	C 	0.98180 0.88950 0.43800 0.09500
H 	H 	0.91570 0.89950 0.45960 -0.00300
C 	C 	0.92230 0.91630 0.13520 0.11100
H 	H 	0.86660 0.90820 0.09570 -0.01700
C 	C 	0.06900 0.91730 0.19860 0.07100
H 	H 	0.13960 0.90860 0.21120 -0.03000
C 	C 	0.62800 0.35020 0.37560 0.09300
C 	C 	0.55710 0.30070 0.42610 -0.06800
H 	H 	0.52040 0.32500 0.46640 0.06600
C 	C 	0.53980 0.21500 0.41730 -0.08300
H 	H 	0.49240 0.18200 0.45210 0.06300
C 	C 	0.59330 0.17830 0.35650 0.09400
C 	C 	0.66470 0.22930 0.30640 -0.08500
H 	H 	0.70090 0.20550 0.26550 0.06800
C 	C 	0.68280 0.31480 0.31610 -0.07400
H 	H 	0.73180 0.34820 0.28250 0.05700
C 	C 	0.46700 0.04090 0.35780 0.09100
C 	C 	0.37260 0.06800 0.33290 -0.08400
H 	H 	0.37950 0.11710 0.30580 0.06600
C 	C 	0.26780 0.02120 0.34890 -0.07400
H 	H 	0.20410 0.03970 0.33400 0.07100
C 	C 	0.25890 0.94790 0.38680 0.08700
C 	C 	0.35180 0.91880 0.40900 -0.08100
H 	H 	0.34440 0.86810 0.43340 0.06200
C 	C 	0.45630 0.96580 0.39470 -0.08300
H 	H 	0.51960 0.94690 0.40980 0.06000
C 	C 	0.65790 0.05390 0.31130 0.08300
C 	C 	0.64030 0.00690 0.23950 -0.07100
H 	H 	0.57110 0.99810 0.21390 0.05400
C 	C 	0.72510 0.97280 0.20520 -0.09400
H 	H 	0.71250 0.94100 0.15720 0.06200
C 	C 	0.82710 0.98640 0.24280 0.09000
C 	C 	0.84770 0.03270 0.31440 -0.08000
H 	H 	0.91730 0.04150 0.33950 0.07700
C 	C 	0.76210 0.06570 0.34810 -0.07600
H 	H 	0.77480 0.09650 0.39660 0.06800
C 	C 	0.03450 0.83250 0.87180 0.29900
C 	C 	0.86060 0.72490 0.55130 0.31200
C 	C 	0.98660 0.80380 0.78910 -0.05200
C 	C 	0.89560 0.83060 0.75910 -0.02700
H 	H 	0.86230 0.86700 0.78980 0.05500
C 	C 	0.85420 0.80320 0.68300 -0.02200
H 	H 	0.79240 0.82110 0.66330 0.05000
C 	C 	0.90270 0.74970 0.63570 -0.06300
C 	C 	0.99360 0.72230 0.66600 -0.02500
H 	H 	0.02650 0.68580 0.63500 0.05600
C 	C 	0.03550 0.74870 0.74200 -0.02700
H 	H 	0.09650 0.72980 0.76200 0.05000
N 	N 	0.23700 0.96570 0.02740 -0.25000
N 	N 	0.40460 0.05140 0.03360 -0.09600
N 	N 	0.32380 0.09200 0.05860 -0.11200
N 	N 	0.84740 0.60660 0.04850 -0.11300
N 	N 	0.89960 0.58050 0.98250 -0.09800
N 	N 	0.98640 0.70890 0.02680 -0.25200
N 	N 	0.21430 0.56780 0.40770 -0.11300
N 	N 	0.11550 0.58560 0.51390 -0.13400
N 	N 	0.22180 0.65190 0.41650 -0.10500
N 	N 	0.44380 0.42720 0.16290 -0.15500
N 	N 	0.71800 0.57130 0.38810 -0.26500
N 	N 	0.64610 0.43900 0.38650 -0.11300
N 	N 	0.56980 0.47530 0.42270 -0.09000
N 	N 	0.14820 0.90400 0.40420 -0.11400
N 	N 	0.98830 0.81630 0.39940 -0.25800
N 	N 	0.07450 0.94470 0.44260 -0.09300
N 	N 	0.91490 0.95250 0.20720 -0.12000
N 	N 	0.01770 0.89350 0.12670 -0.26000
N 	N 	0.01070 0.95380 0.24880 -0.09800
N 	N 	0.57380 0.09090 0.34590 -0.15300
O 	O 	0.12130 0.80790 0.89310 -0.41000
O 	O 	0.98460 0.87480 0.91740 -0.34700
O 	O 	0.78920 0.75820 0.52120 -0.37900
O 	O 	0.90480 0.67350 0.51240 -0.40300
Cd	Cd	0.88298 0.16513 0.97213 1.17700
Cd	Cd	0.15926 0.29857 0.61229 1.16300
C 	C 	0.65250 0.02340 0.98520 0.07000
H 	H 	0.61930 0.06570 0.00570 -0.01000
C 	C 	0.77540 0.96000 0.94580 0.09100
H 	H 	0.84290 0.94600 0.93210 0.00900
C 	C 	0.10130 0.31720 0.92750 0.09200
H 	H 	0.12370 0.28640 0.88480 -0.03700
C 	C 	0.01800 0.35640 0.02720 0.08100
H 	H 	0.96620 0.35600 0.06790 -0.00400
C 	C 	0.85160 0.46880 0.53510 0.08800
H 	H 	0.87200 0.52600 0.53050 0.01600
C 	C 	0.83820 0.34330 0.51980 0.08800
H 	H 	0.84850 0.29230 0.49850 0.01100
C 	C 	0.64760 0.82300 0.91310 0.08700
C 	C 	0.72460 0.77300 0.91880 -0.07900
H 	H 	0.79520 0.79430 0.94040 0.06800
C 	C 	0.69530 0.69050 0.89200 -0.08000
H 	H 	0.74650 0.65610 0.89530 0.07100
C 	C 	0.58870 0.65890 0.86010 0.09000
C 	C 	0.51520 0.71080 0.85350 -0.08600
H 	H 	0.44510 0.69040 0.83060 0.06400
C 	C 	0.54330 0.79320 0.88030 -0.07600
H 	H 	0.49250 0.82780 0.87630 0.06200
C 	C 	0.25260 0.44300 0.92180 0.06300
C 	C 	0.32100 0.50060 0.97160 -0.05500
H 	H 	0.30030 0.51010 0.02450 0.05500
C 	C 	0.41960 0.54380 0.94320 -0.10000
H 	H 	0.46510 0.58310 0.97700 0.06800
C 	C 	0.45340 0.52990 0.86390 0.10500
C 	C 	0.38020 0.47420 0.81370 -0.11700
H 	H 	0.39920 0.46580 0.76030 0.06700
C 	C 	0.27960 0.43110 0.84200 -0.04500
H 	H 	0.23090 0.39470 0.80770 0.00200
C 	C 	0.72780 0.46770 0.65510 0.09100
C 	C 	0.67270 0.41890 0.71260 -0.08000
H 	H 	0.67230 0.36230 0.71100 0.05600
C 	C 	0.61740 0.45330 0.77300 -0.08200
H 	H 	0.58130 0.41980 0.81270 0.05200
C 	C 	0.61510 0.53710 0.77510 0.08900
C 	C 	0.67120 0.58600 0.71660 -0.07400
H 	H 	0.67220 0.64270 0.71790 0.06700
C 	C 	0.72590 0.55100 0.65650 -0.07600
H 	H 	0.76180 0.58400 0.61640 0.06900
C 	C 	0.26760 0.50390 0.63250 0.10600
H 	H 	0.20420 0.51510 0.65740 -0.02400
C 	C 	0.38300 0.44530 0.57930 0.09600
H 	H 	0.41780 0.40360 0.55930 -0.01500
C 	C 	0.90590 0.17110 0.62100 0.10000
H 	H 	0.87350 0.20980 0.64930 -0.03000
C 	C 	0.01820 0.11050 0.56200 0.09500
H 	H 	0.08430 0.10050 0.54040 -0.00300
C 	C 	0.07770 0.08370 0.86480 0.11100
H 	H 	0.13340 0.09180 0.90430 -0.01700
C 	C 	0.93100 0.08270 0.80140 0.07100
H 	H 	0.86040 0.09140 0.78880 -0.03000
C 	C 	0.37200 0.64980 0.62440 0.09300
C 	C 	0.44290 0.69930 0.57390 -0.06800
H 	H 	0.47960 0.67500 0.53360 0.06600
C 	C 	0.46020 0.78500 0.58270 -0.08300
H 	H 	0.50760 0.81800 0.54790 0.06300
C 	C 	0.40670 0.82170 0.64350 0.09400
C 	C 	0.33530 0.77070 0.69360 -0.08500
H 	H 	0.29910 0.79450 0.73450 0.06800
C 	C 	0.31720 0.68520 0.68390 -0.07400
H 	H 	0.26820 0.65180 0.71750 0.05700
C 	C 	0.53300 0.95910 0.64220 0.09100
C 	C 	0.62740 0.93200 0.66710 -0.08400
H 	H 	0.62050 0.88290 0.69420 0.06600
C 	C 	0.73220 0.97880 0.65110 -0.07400
H 	H 	0.79590 0.96030 0.66600 0.07100
C 	C 	0.74110 0.05210 0.61320 0.08700
C 	C 	0.64820 0.08120 0.59100 -0.08100
H 	H 	0.65560 0.13190 0.56660 0.06200
C 	C 	0.54370 0.03420 0.60530 -0.08300
H 	H 	0.48040 0.05310 0.59020 0.06000
C 	C 	0.34210 0.94610 0.68870 0.08300
C 	C 	0.35970 0.99310 0.76050 -0.07100
H 	H 	0.42890 0.00190 0.78610 0.05400
C 	C 	0.27490 0.02720 0.79480 -0.09400
H 	H 	0.28750 0.05900 0.84280 0.06200
C 	C 	0.17290 0.01360 0.75720 0.09000
C 	C 	0.15230 0.96730 0.68560 -0.08000
H 	H 	0.08270 0.95850 0.66050 0.07700
C 	C 	0.23790 0.93430 0.65190 -0.07600
H 	H 	0.22520 0.90350 0.60340 0.06800
C 	C 	0.96550 0.16750 0.12820 0.29900
C 	C 	0.13940 0.27510 0.44870 0.31200
C 	C 	0.01340 0.19620 0.21090 -0.05200
C 	C 	0.10440 0.16940 0.24090 -0.02700
H 	H 	0.13770 0.13300 0.21020 0.05500
C 	C 	0.14580 0.19680 0.31700 -0.02200
H 	H 	0.20760 0.17890 0.33670 0.05000
C 	C 	0.09730 0.25030 0.36430 -0.06300
C 	C 	0.00640 0.27770 0.33400 -0.02500
H 	H 	0.97350 0.31420 0.36500 0.05600
C 	C 	0.96450 0.25130 0.25800 -0.02700
H 	H 	0.90350 0.27020 0.23800 0.05000
N 	N 	0.76300 0.03430 0.97260 -0.25000
N 	N 	0.59540 0.94860 0.96640 -0.09600
N 	N 	0.67620 0.90800 0.94140 -0.11200
N 	N 	0.15260 0.39340 0.95150 -0.11300
N 	N 	0.10040 0.41950 0.01750 -0.09800
N 	N 	0.01360 0.29110 0.97320 -0.25200
N 	N 	0.78570 0.43220 0.59230 -0.11300
N 	N 	0.88450 0.41440 0.48610 -0.13400
N 	N 	0.77820 0.34810 0.58350 -0.10500
N 	N 	0.55620 0.57280 0.83710 -0.15500
N 	N 	0.28200 0.42870 0.61190 -0.26500
N 	N 	0.35390 0.56100 0.61350 -0.11300
N 	N 	0.43020 0.52470 0.57730 -0.09000
N 	N 	0.85180 0.09600 0.59580 -0.11400
N 	N 	0.01170 0.18370 0.60060 -0.25800
N 	N 	0.92550 0.05530 0.55740 -0.09300
N 	N 	0.08510 0.04750 0.79280 -0.12000
N 	N 	0.98230 0.10650 0.87330 -0.26000
N 	N 	0.98930 0.04620 0.75120 -0.09800
N 	N 	0.42620 0.90910 0.65410 -0.15300
O 	O 	0.87870 0.19210 0.10690 -0.41000
O 	O 	0.01540 0.12520 0.08260 -0.34700
O 	O 	0.21080 0.24180 0.47880 -0.37900
O 	O 	0.09520 0.32650 0.48760 -0.40300
