data_crystal

_cell_length_a 14.20860
_cell_length_b 15.58830
_cell_length_c 15.58830
_cell_angle_alpha 78.01220
_cell_angle_beta  62.88710
_cell_angle_gamma 62.88710

_symmetry_space_group_name_	'P 1'
_symmetry_space_group_name_H-M	'P 1'

loop_
_symmetry_equiv_pos_as_xyz
  x,y,z

loop_
_atom_site_label
_atom_site_type_symbol
_atom_site_fract_x
_atom_site_fract_y
_atom_site_fract_z
_atom_site_charge
Ca	Ca	0.54746 0.00000 0.40508 1.46400
Ca	Ca	0.95254 0.00000 0.59492 1.47100
Ca	Ca	0.04746 0.40508 -0.00000 1.46200
Ca	Ca	0.45254 0.59492 -0.00000 1.46800
Cd	Cd	0.23224 0.03553 0.50000 1.18100
Cd	Cd	0.76776 0.96447 0.50000 1.27800
Cd	Cd	0.26777 0.50000 0.96446 1.27700
Cd	Cd	0.73223 0.50000 0.03554 1.18100
H 	H 	0.60160 0.34560 0.27320 0.27800
H 	H 	0.44600 0.22520 0.39940 0.07100
H 	H 	0.48810 0.41380 0.18240 0.07600
H 	H 	0.27860 0.28530 0.22970 0.02600
H 	H 	0.22040 0.65440 0.72680 0.29700
H 	H 	0.07060 0.77480 0.60060 0.10700
H 	H 	0.08430 0.58620 0.81760 0.12600
H 	H 	0.79360 0.71470 0.77030 0.08500
H 	H 	0.12520 0.27320 0.65440 0.28200
H 	H 	0.15460 0.39940 0.77480 0.08200
H 	H 	0.32950 0.18240 0.58620 0.08200
H 	H 	0.49170 0.22970 0.71470 0.04800
H 	H 	0.05280 0.72680 0.34560 0.28000
H 	H 	0.32880 0.60060 0.22520 0.07800
H 	H 	0.09810 0.81760 0.41380 0.10000
H 	H 	0.43610 0.77030 0.28530 0.05300
H 	H 	0.72040 0.72680 0.65440 0.29300
H 	H 	0.57060 0.60060 0.77480 0.09400
H 	H 	0.58430 0.81760 0.58620 0.11200
H 	H 	0.29360 0.77030 0.71470 0.07300
H 	H 	0.10160 0.27320 0.34560 0.28300
H 	H 	0.94600 0.39940 0.22520 0.08200
H 	H 	0.98810 0.18240 0.41380 0.08800
H 	H 	0.77860 0.22970 0.28530 0.03200
H 	H 	0.55280 0.34560 0.72680 0.28900
H 	H 	0.82880 0.22520 0.60060 0.08700
H 	H 	0.59810 0.41380 0.81760 0.11000
H 	H 	0.93610 0.28530 0.77030 0.06400
H 	H 	0.62520 0.65440 0.27320 0.28500
H 	H 	0.65460 0.77480 0.39940 0.08900
H 	H 	0.82950 0.58620 0.18240 0.09000
H 	H 	0.99170 0.71470 0.22970 0.05900
C 	C 	0.30420 0.17430 0.38090 0.33900
C 	C 	0.35340 0.41339 0.10961 0.39000
C 	C 	0.35460 0.24405 0.32255 -0.09000
C 	C 	0.43000 0.25800 0.34720 -0.16800
C 	C 	0.48050 0.32060 0.29400 0.24000
C 	C 	0.45530 0.37078 0.21722 -0.16500
C 	C 	0.38070 0.35677 0.19203 -0.07900
C 	C 	0.32950 0.29380 0.24560 -0.00700
C 	C 	0.85940 0.82570 0.61910 0.31200
C 	C 	0.87640 0.58661 0.89039 0.35000
C 	C 	0.92120 0.75595 0.67745 0.01600
C 	C 	0.03520 0.74200 0.65280 -0.23400
C 	C 	0.09510 0.67940 0.70600 0.31800
C 	C 	0.04330 0.62922 0.78278 -0.23600
C 	C 	0.92950 0.64323 0.80797 0.03800
C 	C 	0.86890 0.70620 0.75440 -0.06600
C 	C 	0.31490 0.38090 0.82570 0.32600
C 	C 	0.53699 0.10961 0.58661 0.38800
C 	C 	0.32285 0.32255 0.75595 -0.05400
C 	C 	0.22280 0.34720 0.74200 -0.17300
C 	C 	0.22550 0.29400 0.67940 0.25800
C 	C 	0.32748 0.21722 0.62922 -0.17000
C 	C 	0.42727 0.19203 0.64323 -0.05800
C 	C 	0.42490 0.24560 0.70620 -0.01500
C 	C 	0.52150 0.61910 0.17430 0.33800
C 	C 	0.23321 0.89039 0.41339 0.36500
C 	C 	0.40135 0.67745 0.24405 -0.06300
C 	C 	0.31200 0.65280 0.25800 -0.17800
C 	C 	0.19890 0.70600 0.32060 0.26400
C 	C 	0.17392 0.78278 0.37078 -0.17900
C 	C 	0.26253 0.80797 0.35677 -0.02700
C 	C 	0.37670 0.75440 0.29380 -0.02400
C 	C 	0.35940 0.61910 0.82570 0.32500
C 	C 	0.37640 0.89039 0.58661 0.36300
C 	C 	0.42120 0.67745 0.75595 -0.02600
C 	C 	0.53520 0.65280 0.74200 -0.18400
C 	C 	0.59510 0.70600 0.67940 0.28700
C 	C 	0.54330 0.78278 0.62922 -0.18500
C 	C 	0.42950 0.80797 0.64323 -0.00400
C 	C 	0.36890 0.75440 0.70620 -0.03300
C 	C 	0.80420 0.38090 0.17430 0.33500
C 	C 	0.85340 0.10961 0.41339 0.38600
C 	C 	0.85460 0.32255 0.24405 -0.07700
C 	C 	0.93000 0.34720 0.25800 -0.18400
C 	C 	0.98050 0.29400 0.32060 0.27000
C 	C 	0.95530 0.21722 0.37078 -0.18200
C 	C 	0.88070 0.19203 0.35677 -0.06600
C 	C 	0.82950 0.24560 0.29380 -0.01700
C 	C 	0.02150 0.17430 0.61910 0.31600
C 	C 	0.73321 0.41339 0.89039 0.36100
C 	C 	0.90135 0.24405 0.67745 -0.03500
C 	C 	0.81200 0.25800 0.65280 -0.19200
C 	C 	0.69890 0.32060 0.70600 0.27700
C 	C 	0.67392 0.37078 0.78278 -0.18900
C 	C 	0.76253 0.35677 0.80797 -0.01400
C 	C 	0.87670 0.29380 0.75440 -0.04000
C 	C 	0.81490 0.82570 0.38090 0.32100
C 	C 	0.03699 0.58661 0.10961 0.36600
C 	C 	0.82285 0.75595 0.32255 -0.04100
C 	C 	0.72280 0.74200 0.34720 -0.18100
C 	C 	0.72550 0.67940 0.29400 0.26900
C 	C 	0.82748 0.62922 0.21722 -0.18300
C 	C 	0.92727 0.64323 0.19203 -0.03100
C 	C 	0.92490 0.70620 0.24560 -0.03000
O 	O 	0.35611 0.11125 0.42893 -0.62500
O 	O 	0.21456 0.17631 0.38197 -0.41200
O 	O 	0.30454 0.38686 0.07586 -0.51200
O 	O 	0.38158 0.48160 0.07584 -0.60000
O 	O 	0.55500 0.32930 0.32010 -0.43500
O 	O 	0.89629 0.88875 0.57107 -0.51100
O 	O 	0.77284 0.82369 0.61803 -0.34400
O 	O 	0.76726 0.61314 0.92414 -0.36400
O 	O 	0.93902 0.51840 0.92416 -0.46400
O 	O 	0.20440 0.67070 0.67990 -0.45100
O 	O 	0.21496 0.42893 0.88875 -0.53100
O 	O 	0.40347 0.38197 0.82369 -0.36000
O 	O 	0.61960 0.07586 0.61314 -0.49200
O 	O 	0.54258 0.07584 0.51840 -0.59900
O 	O 	0.12490 0.32010 0.67070 -0.43900
O 	O 	0.53264 0.57107 0.11125 -0.61700
O 	O 	0.60913 0.61803 0.17631 -0.39700
O 	O 	0.30860 0.92414 0.38686 -0.38700
O 	O 	0.13682 0.92416 0.48160 -0.48000
O 	O 	0.11570 0.67990 0.32930 -0.44200
O 	O 	0.39629 0.57107 0.88875 -0.52000
O 	O 	0.27284 0.61803 0.82369 -0.35000
O 	O 	0.26726 0.92414 0.61314 -0.37000
O 	O 	0.43902 0.92416 0.51840 -0.47300
O 	O 	0.70440 0.67990 0.67070 -0.43900
O 	O 	0.85611 0.42893 0.11125 -0.62000
O 	O 	0.71456 0.38197 0.17631 -0.40700
O 	O 	0.80454 0.07586 0.38686 -0.50700
O 	O 	0.88158 0.07584 0.48160 -0.59400
O 	O 	0.05500 0.32010 0.32930 -0.45800
O 	O 	0.03264 0.11125 0.57107 -0.62000
O 	O 	0.10913 0.17631 0.61803 -0.39600
O 	O 	0.80860 0.38686 0.92414 -0.38200
O 	O 	0.63682 0.48160 0.92416 -0.47200
O 	O 	0.61570 0.32930 0.67990 -0.44300
O 	O 	0.71496 0.88875 0.42893 -0.52500
O 	O 	0.90347 0.82369 0.38197 -0.35200
O 	O 	0.11960 0.61314 0.07586 -0.49300
O 	O 	0.04258 0.51840 0.07584 -0.60100
O 	O 	0.62490 0.67070 0.32010 -0.43700
