data_crystal

_cell_length_a 9.95930
_cell_length_b 19.82270
_cell_length_c 19.82270
_cell_angle_alpha 90.00000
_cell_angle_beta  90.00000
_cell_angle_gamma 90.00000

_symmetry_space_group_name_	'P 1'
_symmetry_space_group_name_H-M	'P 1'

loop_
_symmetry_equiv_pos_as_xyz
  x,y,z

loop_
_atom_site_label
_atom_site_type_symbol
_atom_site_fract_x
_atom_site_fract_y
_atom_site_fract_z
_atom_site_charge
Ca	Ca	0.00000 0.00000 0.50000 1.51200
Ca	Ca	0.00000 0.50000 -0.00000 1.51200
Cd	Cd	1.00000 0.07081 0.65752 1.20800
Cd	Cd	1.00000 0.92919 0.34248 1.22700
Cd	Cd	1.00000 0.34248 0.07081 1.20900
Cd	Cd	1.00000 0.65752 0.92919 1.22500
H 	H 	0.12850 0.69090 0.47310 0.00300
H 	H 	0.12170 0.76470 0.50130 -0.00100
H 	H 	0.20450 0.70950 0.53980 -0.15000
H 	H 	0.07870 0.61830 0.60090 0.02000
H 	H 	0.70080 0.88950 0.53430 -1.45600
H 	H 	0.42130 0.76610 0.59500 4.12400
H 	H 	0.38540 0.86280 0.70090 4.34900
H 	H 	0.38360 0.92910 0.65790 4.48500
H 	H 	0.30290 0.86570 0.63360 4.52900
H 	H 	0.12850 0.30910 0.52690 0.09200
H 	H 	0.12170 0.23530 0.49870 0.09500
H 	H 	0.20450 0.29050 0.46020 -0.04500
H 	H 	0.07870 0.38170 0.39910 0.13300
H 	H 	0.70080 0.11050 0.46570 -1.34500
H 	H 	0.42130 0.23390 0.40500 3.78300
H 	H 	0.38540 0.13720 0.29910 3.97700
H 	H 	0.38360 0.07090 0.34210 4.09300
H 	H 	0.30290 0.13430 0.36640 4.14900
H 	H 	0.12850 0.52690 0.69090 0.13700
H 	H 	0.12170 0.49870 0.76470 0.13200
H 	H 	0.20450 0.46020 0.70950 -0.01300
H 	H 	0.07870 0.39910 0.61830 0.21800
H 	H 	0.70080 0.46570 0.88950 -1.41300
H 	H 	0.42130 0.40500 0.76610 3.98700
H 	H 	0.38540 0.29910 0.86280 4.21100
H 	H 	0.38360 0.34210 0.92910 4.34700
H 	H 	0.30290 0.36640 0.86570 4.38800
H 	H 	0.12850 0.47310 0.30910 0.15500
H 	H 	0.12170 0.50130 0.23530 0.15400
H 	H 	0.20450 0.53980 0.29050 0.01400
H 	H 	0.07870 0.60090 0.38170 0.24500
H 	H 	0.70080 0.53430 0.11050 -1.35200
H 	H 	0.42130 0.59500 0.23390 3.79900
H 	H 	0.38540 0.70090 0.13720 4.00100
H 	H 	0.38360 0.65790 0.07090 4.11500
H 	H 	0.30290 0.63360 0.13430 4.17000
H 	H 	0.87150 0.30910 0.52690 0.09300
H 	H 	0.87830 0.23530 0.49870 0.09600
H 	H 	0.79550 0.29050 0.46020 -0.04700
H 	H 	0.92130 0.38170 0.39910 0.14200
H 	H 	0.29920 0.11050 0.46570 -1.34600
H 	H 	0.57870 0.23390 0.40500 3.78400
H 	H 	0.61460 0.13720 0.29910 3.98000
H 	H 	0.61640 0.07090 0.34210 4.09500
H 	H 	0.69710 0.13430 0.36640 4.15200
H 	H 	0.87150 0.69090 0.47310 0.00400
H 	H 	0.87830 0.76470 0.50130 0.00000
H 	H 	0.79550 0.70950 0.53980 -0.15100
H 	H 	0.92130 0.61830 0.60090 0.02800
H 	H 	0.29920 0.88950 0.53430 -1.45800
H 	H 	0.57870 0.76610 0.59500 4.12500
H 	H 	0.61460 0.86280 0.70090 4.35100
H 	H 	0.61640 0.92910 0.65790 4.48700
H 	H 	0.69710 0.86570 0.63360 4.53200
H 	H 	0.87150 0.47310 0.30910 0.15600
H 	H 	0.87830 0.50130 0.23530 0.15600
H 	H 	0.79550 0.53980 0.29050 0.01300
H 	H 	0.92130 0.60090 0.38170 0.25400
H 	H 	0.29920 0.53430 0.11050 -1.35400
H 	H 	0.57870 0.59500 0.23390 3.79900
H 	H 	0.61460 0.70090 0.13720 4.00400
H 	H 	0.61640 0.65790 0.07090 4.11700
H 	H 	0.69710 0.63360 0.13430 4.17400
H 	H 	0.87150 0.52690 0.69090 0.13900
H 	H 	0.87830 0.49870 0.76470 0.13400
H 	H 	0.79550 0.46020 0.70950 -0.01400
H 	H 	0.92130 0.39910 0.61830 0.22500
H 	H 	0.29920 0.46570 0.88950 -1.41400
H 	H 	0.57870 0.40500 0.76610 3.98700
H 	H 	0.61460 0.29910 0.86280 4.21300
H 	H 	0.61640 0.34210 0.92910 4.34900
H 	H 	0.69710 0.36640 0.86570 4.39100
H 	H 	1.00000 0.85260 0.77420 -0.03300
H 	H 	1.00000 0.66970 0.68700 0.01600
H 	H 	1.00000 0.83340 0.57190 0.03000
H 	H 	0.00000 0.59980 0.53490 0.03100
H 	H 	1.00000 0.14740 0.22580 -0.09000
H 	H 	1.00000 0.33030 0.31300 -0.04000
H 	H 	1.00000 0.16660 0.42810 -0.04200
H 	H 	1.00000 0.40020 0.46510 0.15100
H 	H 	1.00000 0.22580 0.85260 -0.09700
H 	H 	1.00000 0.31300 0.66970 -0.05700
H 	H 	1.00000 0.42810 0.83340 -0.06400
H 	H 	0.00000 0.46510 0.59980 0.22600
H 	H 	1.00000 0.77420 0.14740 -0.09000
H 	H 	1.00000 0.68700 0.33030 -0.05500
H 	H 	1.00000 0.57190 0.16660 -0.06200
H 	H 	0.00000 0.53490 0.40020 0.24900
H 	H 	0.50000 0.93390 0.36480 -0.80700
H 	H 	0.50000 0.76550 0.66350 4.04400
H 	H 	0.50000 0.06610 0.63520 -0.79300
H 	H 	0.50000 0.23450 0.33650 3.71000
H 	H 	0.50000 0.63520 0.93390 -0.78900
H 	H 	0.50000 0.33650 0.76550 3.91200
H 	H 	0.50000 0.36480 0.06610 -0.79000
H 	H 	0.50000 0.66350 0.23450 3.72800
C 	C 	0.75110 0.92480 0.41020 1.06900
C 	C 	0.12550 0.71780 0.51330 -0.17300
C 	C 	0.62060 0.91390 0.44420 -2.18200
C 	C 	0.61940 0.89510 0.51200 3.56600
C 	C 	0.38310 0.88070 0.65590 -15.18500
C 	C 	0.75110 0.07520 0.58980 1.00700
C 	C 	0.12550 0.28220 0.48670 -0.47500
C 	C 	0.62060 0.08610 0.55580 -2.05300
C 	C 	0.61940 0.10490 0.48800 3.27800
C 	C 	0.38310 0.11930 0.34410 -13.92700
C 	C 	0.75110 0.58980 0.92480 1.04600
C 	C 	0.12550 0.48670 0.71780 -0.61600
C 	C 	0.62060 0.55580 0.91390 -2.12500
C 	C 	0.61940 0.48800 0.89510 3.45600
C 	C 	0.38310 0.34410 0.88070 -14.71800
C 	C 	0.75110 0.41020 0.07520 1.01100
C 	C 	0.12550 0.51330 0.28220 -0.67700
C 	C 	0.62060 0.44420 0.08610 -2.06000
C 	C 	0.61940 0.51200 0.10490 3.29400
C 	C 	0.38310 0.65590 0.11930 -13.99800
C 	C 	0.24890 0.07520 0.58980 1.00900
C 	C 	0.87450 0.28220 0.48670 -0.46500
C 	C 	0.37940 0.08610 0.55580 -2.05400
C 	C 	0.38060 0.10490 0.48800 3.27900
C 	C 	0.61690 0.11930 0.34410 -13.93100
C 	C 	0.24890 0.92480 0.41020 1.07100
C 	C 	0.87450 0.71780 0.51330 -0.16300
C 	C 	0.37940 0.91390 0.44420 -2.18400
C 	C 	0.38060 0.89510 0.51200 3.56600
C 	C 	0.61690 0.88070 0.65590 -15.18900
C 	C 	0.24890 0.41020 0.07520 1.01300
C 	C 	0.87450 0.51330 0.28220 -0.66600
C 	C 	0.37940 0.44420 0.08610 -2.06200
C 	C 	0.38060 0.51200 0.10490 3.29500
C 	C 	0.61690 0.65590 0.11930 -14.00300
C 	C 	0.24890 0.58980 0.92480 1.04700
C 	C 	0.87450 0.48670 0.71780 -0.60700
C 	C 	0.37940 0.55580 0.91390 -2.12600
C 	C 	0.38060 0.48800 0.89510 3.45600
C 	C 	0.61690 0.34410 0.88070 -14.72100
C 	C 	1.00000 0.92900 0.66260 0.25500
C 	C 	1.00000 0.72250 0.80960 0.28100
C 	C 	0.00000 0.85410 0.67090 -0.31400
C 	C 	0.00000 0.82540 0.73590 -0.10600
C 	C 	1.00000 0.75580 0.74140 -0.19200
C 	C 	1.00000 0.71650 0.68300 -0.12000
C 	C 	1.00000 0.74450 0.61990 -0.09400
C 	C 	0.00000 0.81360 0.61440 -0.23500
C 	C 	0.00000 0.69910 0.55460 0.03600
C 	C 	1.00000 0.62770 0.57450 -0.26000
C 	C 	1.00000 0.07100 0.33740 0.33300
C 	C 	1.00000 0.27750 0.19040 0.32700
C 	C 	1.00000 0.14590 0.32910 -0.41100
C 	C 	1.00000 0.17460 0.26410 0.03100
C 	C 	1.00000 0.24420 0.25860 -0.29700
C 	C 	1.00000 0.28350 0.31700 0.04000
C 	C 	-0.00000 0.25550 0.38010 -0.29500
C 	C 	1.00000 0.18640 0.38560 -0.03300
C 	C 	-0.00000 0.30090 0.44540 0.31400
C 	C 	1.00000 0.37230 0.42550 -0.63000
C 	C 	1.00000 0.33740 0.92900 0.32400
C 	C 	1.00000 0.19040 0.72250 0.33400
C 	C 	0.00000 0.32910 0.85410 -0.46300
C 	C 	1.00000 0.26410 0.82540 0.06300
C 	C 	1.00000 0.25860 0.75580 -0.32800
C 	C 	1.00000 0.31700 0.71650 0.07800
C 	C 	-0.00000 0.38010 0.74450 -0.36400
C 	C 	1.00000 0.38560 0.81360 0.01200
C 	C 	0.00000 0.44540 0.69910 0.45900
C 	C 	0.00000 0.42550 0.62770 -0.89300
C 	C 	1.00000 0.66260 0.07100 0.33000
C 	C 	1.00000 0.80960 0.27750 0.33000
C 	C 	1.00000 0.67090 0.14590 -0.43100
C 	C 	1.00000 0.73590 0.17460 0.04900
C 	C 	1.00000 0.74140 0.24420 -0.31400
C 	C 	1.00000 0.68300 0.28350 0.08600
C 	C 	0.00000 0.61990 0.25550 -0.37400
C 	C 	1.00000 0.61440 0.18640 0.01400
C 	C 	0.00000 0.55460 0.30090 0.50600
C 	C 	0.00000 0.57450 0.37230 -0.96600
C 	C 	0.50000 0.92240 0.41030 1.94000
C 	C 	0.50000 0.88450 0.54770 -5.85800
C 	C 	0.50000 0.85740 0.61870 12.78000
C 	C 	0.50000 0.78200 0.61800 -14.14700
C 	C 	0.50000 0.07760 0.58970 1.79300
C 	C 	0.50000 0.11550 0.45230 -5.39500
C 	C 	0.50000 0.14260 0.38130 11.72200
C 	C 	0.50000 0.21800 0.38200 -12.99400
C 	C 	0.50000 0.58970 0.92240 1.88200
C 	C 	0.50000 0.45230 0.88450 -5.67900
C 	C 	0.50000 0.38130 0.85740 12.38100
C 	C 	0.50000 0.38200 0.78200 -13.70000
C 	C 	0.50000 0.41030 0.07760 1.80200
C 	C 	0.50000 0.54770 0.11550 -5.42200
C 	C 	0.50000 0.61870 0.14260 11.78100
C 	C 	0.50000 0.61800 0.21800 -13.05400
O 	O 	0.85600 0.92630 0.44630 -0.72900
O 	O 	0.75810 0.93010 0.34740 -0.74900
O 	O 	0.85600 0.07370 0.55370 -0.74000
O 	O 	0.75810 0.06990 0.65260 -0.77700
O 	O 	0.85600 0.55370 0.92630 -0.72500
O 	O 	0.75810 0.65260 0.93010 -0.74600
O 	O 	0.85600 0.44630 0.07370 -0.74000
O 	O 	0.75810 0.34740 0.06990 -0.77300
O 	O 	0.14400 0.07370 0.55370 -0.74700
O 	O 	0.24190 0.06990 0.65260 -0.78100
O 	O 	0.14400 0.92630 0.44630 -0.73700
O 	O 	0.24190 0.93010 0.34740 -0.75400
O 	O 	0.14400 0.44630 0.07370 -0.74900
O 	O 	0.24190 0.34740 0.06990 -0.77900
O 	O 	0.14400 0.55370 0.92630 -0.73100
O 	O 	0.24190 0.65260 0.93010 -0.74900
O 	O 	1.00000 0.95190 0.60410 -0.58600
O 	O 	1.00000 0.96710 0.71310 -0.51100
O 	O 	1.00000 0.66020 0.81260 -0.44700
O 	O 	1.00000 0.75810 0.86130 -0.48300
O 	O 	0.00000 0.04810 0.39590 -0.65100
O 	O 	0.00000 0.03290 0.28690 -0.58300
O 	O 	1.00000 0.33980 0.18740 -0.45800
O 	O 	1.00000 0.24190 0.13870 -0.51600
O 	O 	1.00000 0.39590 0.95190 -0.60200
O 	O 	0.00000 0.28690 0.96710 -0.54000
O 	O 	1.00000 0.18740 0.66020 -0.46000
O 	O 	1.00000 0.13870 0.75810 -0.51700
O 	O 	-0.00000 0.60410 0.04810 -0.65300
O 	O 	1.00000 0.71310 0.03290 -0.56400
O 	O 	1.00000 0.81260 0.33980 -0.45200
O 	O 	1.00000 0.86130 0.24190 -0.49500
