data_crystal

_cell_length_a 13.21420
_cell_length_b 17.49380
_cell_length_c 17.49380
_cell_angle_alpha 90.00000
_cell_angle_beta  90.00000
_cell_angle_gamma 90.00000

_symmetry_space_group_name_	'P 1'
_symmetry_space_group_name_H-M	'P 1'

loop_
_symmetry_equiv_pos_as_xyz
  x,y,z

loop_
_atom_site_label
_atom_site_type_symbol
_atom_site_fract_x
_atom_site_fract_y
_atom_site_fract_z
_atom_site_charge
Sr	Sr	0.05332 0.86070 0.61179 1.50900
Sr	Sr	0.55332 0.13930 0.38821 1.51400
Sr	Sr	0.30332 0.88821 0.36070 1.51400
Sr	Sr	0.80332 0.11179 0.63930 1.51600
Sr	Sr	0.19668 0.63930 0.11179 1.51200
Sr	Sr	0.69668 0.36070 0.88821 1.51400
Sr	Sr	0.94668 0.61179 0.86070 1.51900
Sr	Sr	0.44668 0.38821 0.13930 1.51400
Cd	Cd	-0.00000 0.66520 0.66520 1.21600
Cd	Cd	0.50000 0.33480 0.33480 1.22700
Cd	Cd	0.25000 0.83480 0.16520 1.22700
Cd	Cd	0.75000 0.16520 0.83480 1.22800
H 	H 	0.83610 0.62070 0.41980 0.01900
H 	H 	0.82740 0.62230 0.28910 0.09600
H 	H 	0.95040 0.68620 0.21800 0.00700
H 	H 	0.07830 0.75830 0.41300 -0.00800
H 	H 	0.33610 0.37930 0.58020 0.02000
H 	H 	0.32740 0.37770 0.71090 0.08500
H 	H 	0.45040 0.31380 0.78200 0.01700
H 	H 	0.57830 0.24170 0.58700 -0.01200
H 	H 	0.08610 0.08020 0.12070 0.01400
H 	H 	0.07740 0.21090 0.12230 0.07600
H 	H 	0.20040 0.28200 0.18620 0.01500
H 	H 	0.32830 0.08700 0.25830 -0.01200
H 	H 	0.58610 0.91980 0.87930 0.02200
H 	H 	0.57740 0.78910 0.87770 0.08500
H 	H 	0.70040 0.71800 0.81380 0.02000
H 	H 	0.82830 0.91300 0.74170 -0.00800
H 	H 	0.41390 0.87930 0.91980 0.02100
H 	H 	0.42260 0.87770 0.78910 0.08600
H 	H 	0.29960 0.81380 0.71800 0.01700
H 	H 	0.17170 0.74170 0.91300 -0.01500
H 	H 	0.91390 0.12070 0.08020 0.02900
H 	H 	0.92260 0.12230 0.21090 0.09400
H 	H 	0.79960 0.18620 0.28200 0.02100
H 	H 	0.67170 0.25830 0.08700 -0.01200
H 	H 	0.16390 0.41980 0.62070 0.02200
H 	H 	0.17260 0.28910 0.62230 0.07800
H 	H 	0.04960 0.21800 0.68620 0.02800
H 	H 	0.92170 0.41300 0.75830 -0.01800
H 	H 	0.66390 0.58020 0.37930 0.02200
H 	H 	0.67260 0.71090 0.37770 0.08700
H 	H 	0.54960 0.78200 0.31380 0.01900
H 	H 	0.42170 0.58700 0.24170 -0.01400
C 	C 	0.96640 0.68660 0.51540 0.38900
C 	C 	0.10570 0.77080 0.26370 0.42800
C 	C 	0.95860 0.68950 0.42900 -0.12700
C 	C 	0.88340 0.64830 0.39170 0.08100
C 	C 	0.87910 0.64850 0.31400 -0.16300
C 	C 	0.95190 0.68790 0.27110 0.13500
C 	C 	0.02650 0.72970 0.30890 -0.23200
C 	C 	0.02890 0.73020 0.38760 0.06600
C 	C 	0.46640 0.31340 0.48460 0.35200
C 	C 	0.60570 0.22920 0.73630 0.41900
C 	C 	0.45860 0.31050 0.57100 -0.15400
C 	C 	0.38340 0.35170 0.60830 0.07200
C 	C 	0.37910 0.35150 0.68600 -0.14200
C 	C 	0.45190 0.31210 0.72890 0.07200
C 	C 	0.52650 0.27030 0.69110 -0.18800
C 	C 	0.52890 0.26980 0.61240 0.09600
C 	C 	0.21640 0.98460 0.18660 0.34800
C 	C 	0.35570 0.23630 0.27080 0.41800
C 	C 	0.20860 0.07100 0.18950 -0.15400
C 	C 	0.13340 0.10830 0.14830 0.06800
C 	C 	0.12910 0.18600 0.14850 -0.14400
C 	C 	0.20190 0.22890 0.18790 0.07000
C 	C 	0.27650 0.19110 0.22970 -0.18900
C 	C 	0.27890 0.11240 0.23020 0.09400
C 	C 	0.71640 0.01540 0.81340 0.34900
C 	C 	0.85570 0.76370 0.72920 0.41700
C 	C 	0.70860 0.92900 0.81050 -0.14800
C 	C 	0.63340 0.89170 0.85170 0.06800
C 	C 	0.62910 0.81400 0.85150 -0.13700
C 	C 	0.70190 0.77110 0.81210 0.07000
C 	C 	0.77650 0.80890 0.77030 -0.18200
C 	C 	0.77890 0.88760 0.76980 0.09300
C 	C 	0.28360 0.81340 0.01540 0.34900
C 	C 	0.14430 0.72920 0.76370 0.41900
C 	C 	0.29140 0.81050 0.92900 -0.15300
C 	C 	0.36660 0.85170 0.89170 0.07100
C 	C 	0.37090 0.85150 0.81400 -0.14300
C 	C 	0.29810 0.81210 0.77110 0.07300
C 	C 	0.22350 0.77030 0.80890 -0.19200
C 	C 	0.22110 0.76980 0.88760 0.09600
C 	C 	0.78360 0.18660 0.98460 0.35000
C 	C 	0.64430 0.27080 0.23630 0.41900
C 	C 	0.79140 0.18950 0.07100 -0.14900
C 	C 	0.86660 0.14830 0.10830 0.07200
C 	C 	0.87090 0.14850 0.18600 -0.13700
C 	C 	0.79810 0.18790 0.22890 0.07400
C 	C 	0.72350 0.22970 0.19110 -0.18600
C 	C 	0.72110 0.23020 0.11240 0.09500
C 	C 	0.03360 0.51540 0.68660 0.31600
C 	C 	0.89430 0.26370 0.77080 0.41100
C 	C 	0.04140 0.42900 0.68950 -0.17800
C 	C 	0.11660 0.39170 0.64830 0.06400
C 	C 	0.12090 0.31400 0.64850 -0.12400
C 	C 	0.04810 0.27110 0.68790 0.02000
C 	C 	0.97350 0.30890 0.72970 -0.15200
C 	C 	0.97110 0.38760 0.73020 0.12500
C 	C 	0.53360 0.48460 0.31340 0.35100
C 	C 	0.39430 0.73630 0.22920 0.41900
C 	C 	0.54140 0.57100 0.31050 -0.15300
C 	C 	0.61660 0.60830 0.35170 0.07100
C 	C 	0.62090 0.68600 0.35150 -0.14100
C 	C 	0.54810 0.72890 0.31210 0.07300
C 	C 	0.47350 0.69110 0.27030 -0.18900
C 	C 	0.47110 0.61240 0.26980 0.09600
N 	N 	0.26180 0.89750 0.53790 0.07000
N 	N 	0.76180 0.10250 0.46210 0.06900
N 	N 	0.51180 0.96210 0.39750 0.07000
N 	N 	0.01180 0.03790 0.60250 0.05400
N 	N 	0.98820 0.60250 0.03790 0.08700
N 	N 	0.48820 0.39750 0.96210 0.07000
N 	N 	0.73820 0.53790 0.89750 0.06900
N 	N 	0.23820 0.46210 0.10250 0.07100
O 	O 	0.90790 0.64510 0.55170 -0.38600
O 	O 	0.03580 0.72490 0.54730 -0.54100
O 	O 	0.11830 0.75360 0.19470 -0.55100
O 	O 	0.15850 0.81980 0.29730 -0.54600
O 	O 	0.25240 0.89530 0.60880 -0.25000
O 	O 	0.19050 0.87250 0.49730 -0.37300
O 	O 	0.33830 0.92330 0.50800 -0.25200
O 	O 	0.40790 0.35490 0.44830 -0.38800
O 	O 	0.53580 0.27510 0.45270 -0.50700
O 	O 	0.61830 0.24640 0.80530 -0.53700
O 	O 	0.65850 0.18020 0.70270 -0.53900
O 	O 	0.75240 0.10470 0.39120 -0.24300
O 	O 	0.69050 0.12750 0.50270 -0.36600
O 	O 	0.83830 0.07670 0.49200 -0.24100
O 	O 	0.15790 0.94830 0.14510 -0.39400
O 	O 	0.28580 0.95270 0.22490 -0.50800
O 	O 	0.36830 0.30530 0.25360 -0.53900
O 	O 	0.40850 0.20270 0.31980 -0.54000
O 	O 	0.50240 0.89120 0.39530 -0.24600
O 	O 	0.44050 0.00270 0.37250 -0.36800
O 	O 	0.58830 0.99200 0.42330 -0.24900
O 	O 	0.65790 0.05170 0.85490 -0.38600
O 	O 	0.78580 0.04730 0.77510 -0.50400
O 	O 	0.86830 0.69470 0.74640 -0.52700
O 	O 	0.90850 0.79730 0.68020 -0.52400
O 	O 	0.00240 0.10880 0.60470 -0.26100
O 	O 	0.94050 0.99730 0.62750 -0.34100
O 	O 	0.08830 0.00800 0.57670 -0.25600
O 	O 	0.34210 0.85490 0.05170 -0.38700
O 	O 	0.21420 0.77510 0.04730 -0.51200
O 	O 	0.13170 0.74640 0.69470 -0.54400
O 	O 	0.09150 0.68020 0.79730 -0.55200
O 	O 	0.99760 0.60470 0.10880 -0.23000
O 	O 	0.05950 0.62750 0.99730 -0.39300
O 	O 	0.91170 0.57670 0.00800 -0.24300
O 	O 	0.84210 0.14510 0.94830 -0.38100
O 	O 	0.71420 0.22490 0.95270 -0.50600
O 	O 	0.63170 0.25360 0.30530 -0.53600
O 	O 	0.59150 0.31980 0.20270 -0.53900
O 	O 	0.49760 0.39530 0.89120 -0.24700
O 	O 	0.55950 0.37250 0.00270 -0.36800
O 	O 	0.41170 0.42330 0.99200 -0.25100
O 	O 	0.09210 0.55170 0.64510 -0.38500
O 	O 	0.96420 0.54730 0.72490 -0.47200
O 	O 	0.88170 0.19470 0.75360 -0.52700
O 	O 	0.84150 0.29730 0.81980 -0.53500
O 	O 	0.74760 0.60880 0.89530 -0.24400
O 	O 	0.80950 0.49730 0.87250 -0.36400
O 	O 	0.66170 0.50800 0.92330 -0.24900
O 	O 	0.59210 0.44830 0.35490 -0.38500
O 	O 	0.46420 0.45270 0.27510 -0.50800
O 	O 	0.38170 0.80530 0.24640 -0.53700
O 	O 	0.34150 0.70270 0.18020 -0.54100
O 	O 	0.24760 0.39120 0.10470 -0.25200
O 	O 	0.30950 0.50270 0.12750 -0.37000
O 	O 	0.16170 0.49200 0.07670 -0.26200
