data_crystal

_cell_length_a 27.88850
_cell_length_b 11.44370
_cell_length_c 17.72040
_cell_angle_alpha 90.00000
_cell_angle_beta  90.00000
_cell_angle_gamma 90.00000

_symmetry_space_group_name_	'P 1'
_symmetry_space_group_name_H-M	'P 1'

loop_
_symmetry_equiv_pos_as_xyz
  x,y,z

loop_
_atom_site_label
_atom_site_type_symbol
_atom_site_fract_x
_atom_site_fract_y
_atom_site_fract_z
_atom_site_charge
Eu	Eu	0.06808 0.18380 0.22246 2.15800
O 	O 	0.12485 0.30200 0.14970 -0.43200
O 	O 	0.13729 0.30410 0.27210 -0.39000
O 	O 	0.35122 0.53460 0.08530 -0.33300
O 	O 	0.36188 0.56170 0.20760 -0.48000
O 	O 	0.19460 0.33900 0.05850 -0.16800
H 	H 	0.16830 0.31370 0.07120 0.12600
O 	O 	0.28960 0.53500 0.30080 -0.10200
H 	H 	0.31840 0.54460 0.29370 0.15400
O 	O 	0.08154 0.11670 0.35680 -0.42000
O 	O 	0.01064 0.18680 0.32865 -0.62400
O 	O 	0.93496 0.11510 0.40850 -0.66000
H 	H 	0.90860 0.08420 0.41330 0.34100
O 	O 	0.03799 0.98590 0.23000 -0.51000
O 	O 	0.03803 0.37900 0.23060 -0.50500
O 	O 	0.08010 0.79260 0.19390 0.97700
H 	H 	0.07840 0.86390 0.19740 -0.12500
C 	C 	0.15030 0.32930 0.20630 0.32100
C 	C 	0.19790 0.38550 0.19230 -0.10100
C 	C 	0.21640 0.39270 0.12000 0.17700
C 	C 	0.26150 0.43910 0.10800 -0.07000
H 	H 	0.27370 0.44300 0.05920 0.09300
C 	C 	0.28870 0.47980 0.16790 -0.16400
C 	C 	0.26990 0.47340 0.24010 0.23900
C 	C 	0.22510 0.42630 0.25200 -0.12700
H 	H 	0.21290 0.42190 0.30080 0.11100
C 	C 	0.33750 0.52800 0.15150 0.40700
C 	C 	0.03764 0.12510 0.37180 0.41500
C 	C 	0.01653 0.06350 0.43760 -0.18100
C 	C 	0.96757 0.05830 0.45290 0.33200
C 	C 	0.95228 0.99590 0.51450 -0.17800
H 	H 	0.91960 0.99310 0.52470 0.11800
C 	C 	0.03860 0.74310 0.22150 0.44200
C 	C 	0.03920 0.62160 0.22190 0.27200
H 	H 	0.06640 0.57940 0.20280 -0.85600
O 	O 	0.18780 0.37800 0.05640 -0.17200
H 	H 	0.16180 0.35110 0.06890 0.10600
O 	O 	0.30020 0.48300 0.30290 -0.30200
H 	H 	0.32660 0.50590 0.28930 0.11400
O 	O 	0.07910 0.56960 0.19270 0.87700
H 	H 	0.07670 0.49840 0.19670 -0.11100
H 	H 	0.06550 0.78520 0.20140 -0.97800
Eu	Eu	0.43192 0.31620 0.72246 2.17000
O 	O 	0.37515 0.19800 0.64970 -0.43300
O 	O 	0.36271 0.19590 0.77210 -0.39100
O 	O 	0.14878 0.96540 0.58530 -0.33300
O 	O 	0.13812 0.93830 0.70760 -0.47900
O 	O 	0.30540 0.16100 0.55850 -0.16800
H 	H 	0.33170 0.18630 0.57120 0.12700
O 	O 	0.21040 0.96500 0.80080 -0.09400
H 	H 	0.18160 0.95540 0.79370 0.14300
O 	O 	0.41846 0.38330 0.85680 -0.41800
O 	O 	0.48936 0.31320 0.82865 -0.61600
O 	O 	0.56504 0.38490 0.90850 -0.65500
H 	H 	0.59140 0.41580 0.91330 0.33900
O 	O 	0.46201 0.51410 0.73000 -0.51300
O 	O 	0.46197 0.12100 0.73060 -0.50700
O 	O 	0.41990 0.70740 0.69390 0.97800
H 	H 	0.42160 0.63610 0.69740 -0.12600
C 	C 	0.34970 0.17070 0.70630 0.32100
C 	C 	0.30210 0.11450 0.69230 -0.10200
C 	C 	0.28360 0.10730 0.62000 0.17800
C 	C 	0.23850 0.06090 0.60800 -0.07100
H 	H 	0.22630 0.05700 0.55920 0.09300
C 	C 	0.21130 0.02020 0.66790 -0.16300
C 	C 	0.23010 0.02660 0.74010 0.23900
C 	C 	0.27490 0.07370 0.75200 -0.12700
H 	H 	0.28710 0.07810 0.80080 0.11100
C 	C 	0.16250 0.97200 0.65150 0.40500
C 	C 	0.46236 0.37490 0.87180 0.40800
C 	C 	0.48347 0.43650 0.93760 -0.15800
C 	C 	0.53243 0.44170 0.95290 0.30900
C 	C 	0.54772 0.50410 0.01450 -0.16100
H 	H 	0.58040 0.50690 0.02470 0.11200
C 	C 	0.46140 0.75690 0.72150 0.44100
C 	C 	0.46080 0.87840 0.72190 0.27300
H 	H 	0.43360 0.92060 0.70280 -0.85700
O 	O 	0.31220 0.12200 0.55640 -0.17200
H 	H 	0.33820 0.14890 0.56890 0.10600
O 	O 	0.19980 0.01700 0.80290 -0.30800
H 	H 	0.17340 0.99410 0.78930 0.12400
O 	O 	0.42090 0.93040 0.69270 0.87700
H 	H 	0.42330 0.00160 0.69670 -0.11000
H 	H 	0.43450 0.71480 0.70140 -0.97800
Eu	Eu	0.93192 0.18380 0.27754 2.17600
O 	O 	0.87515 0.30200 0.35030 -0.43200
O 	O 	0.86271 0.30410 0.22790 -0.39100
O 	O 	0.64878 0.53460 0.41470 -0.33300
O 	O 	0.63812 0.56170 0.29240 -0.48000
O 	O 	0.80540 0.33900 0.44150 -0.16800
H 	H 	0.83170 0.31370 0.42880 0.12600
O 	O 	0.71040 0.53500 0.19920 -0.10200
H 	H 	0.68160 0.54460 0.20630 0.15400
O 	O 	0.91846 0.11670 0.14320 -0.41700
O 	O 	0.98936 0.18680 0.17135 -0.60900
O 	O 	0.06504 0.11510 0.09150 -0.65100
H 	H 	0.09140 0.08420 0.08670 0.33800
O 	O 	0.96201 0.98590 0.27000 -0.50300
O 	O 	0.96197 0.37900 0.26940 -0.49800
O 	O 	0.91990 0.79260 0.30610 0.97100
H 	H 	0.92160 0.86390 0.30260 -0.12300
C 	C 	0.84970 0.32930 0.29370 0.32000
C 	C 	0.80210 0.38550 0.30770 -0.10100
C 	C 	0.78360 0.39270 0.38000 0.17700
C 	C 	0.73850 0.43910 0.39200 -0.07000
H 	H 	0.72630 0.44300 0.44080 0.09300
C 	C 	0.71130 0.47980 0.33210 -0.16400
C 	C 	0.73010 0.47340 0.25990 0.24000
C 	C 	0.77490 0.42630 0.24800 -0.12700
H 	H 	0.78710 0.42190 0.19920 0.11100
C 	C 	0.66250 0.52800 0.34850 0.40700
C 	C 	0.96236 0.12510 0.12820 0.40100
C 	C 	0.98347 0.06350 0.06240 -0.13700
C 	C 	0.03243 0.05830 0.04710 0.28800
C 	C 	0.04772 0.99590 0.98550 -0.14700
H 	H 	0.08040 0.99310 0.97530 0.10700
C 	C 	0.96140 0.74310 0.27850 0.45000
C 	C 	0.96080 0.62160 0.27810 0.28000
H 	H 	0.93360 0.57940 0.29720 -0.85300
O 	O 	0.81220 0.37800 0.44360 -0.17200
H 	H 	0.83820 0.35110 0.43110 0.10700
O 	O 	0.69980 0.48300 0.19710 -0.30200
H 	H 	0.67340 0.50590 0.21070 0.11300
O 	O 	0.92090 0.56960 0.30730 0.87200
H 	H 	0.92330 0.49840 0.30330 -0.10800
H 	H 	0.93450 0.78520 0.29860 -0.97400
Eu	Eu	0.56808 0.31620 0.77754 2.17000
O 	O 	0.62485 0.19800 0.85030 -0.43200
O 	O 	0.63729 0.19590 0.72790 -0.39100
O 	O 	0.85122 0.96540 0.91470 -0.33400
O 	O 	0.86188 0.93830 0.79240 -0.48000
O 	O 	0.69460 0.16100 0.94150 -0.16800
H 	H 	0.66830 0.18630 0.92880 0.12600
O 	O 	0.78960 0.96500 0.69920 -0.09700
H 	H 	0.81840 0.95540 0.70630 0.14600
O 	O 	0.58154 0.38330 0.64320 -0.41800
O 	O 	0.51064 0.31320 0.67135 -0.61700
O 	O 	0.43496 0.38490 0.59150 -0.65600
H 	H 	0.40860 0.41580 0.58670 0.33900
O 	O 	0.53799 0.51410 0.77000 -0.51300
O 	O 	0.53803 0.12100 0.76940 -0.50700
O 	O 	0.58010 0.70740 0.80610 0.97800
H 	H 	0.57840 0.63610 0.80260 -0.12600
C 	C 	0.65030 0.17070 0.79370 0.32100
C 	C 	0.69790 0.11450 0.80770 -0.10200
C 	C 	0.71640 0.10730 0.88000 0.17800
C 	C 	0.76150 0.06090 0.89200 -0.07100
H 	H 	0.77370 0.05700 0.94080 0.09400
C 	C 	0.78870 0.02020 0.83210 -0.16200
C 	C 	0.76990 0.02660 0.75990 0.23800
C 	C 	0.72510 0.07370 0.74800 -0.12600
H 	H 	0.71290 0.07810 0.69920 0.11100
C 	C 	0.83750 0.97200 0.84850 0.40500
C 	C 	0.53764 0.37490 0.62820 0.40800
C 	C 	0.51653 0.43650 0.56240 -0.15900
C 	C 	0.46757 0.44170 0.54710 0.31000
C 	C 	0.45228 0.50410 0.48550 -0.16200
H 	H 	0.41960 0.50690 0.47530 0.11300
C 	C 	0.53860 0.75690 0.77850 0.44100
C 	C 	0.53920 0.87840 0.77810 0.27400
H 	H 	0.56640 0.92060 0.79720 -0.85800
O 	O 	0.68780 0.12200 0.94360 -0.17200
H 	H 	0.66180 0.14890 0.93110 0.10700
O 	O 	0.80020 0.01700 0.69710 -0.30600
H 	H 	0.82660 0.99410 0.71070 0.12000
O 	O 	0.57910 0.93040 0.80730 0.87800
H 	H 	0.57670 0.00160 0.80330 -0.11000
H 	H 	0.56550 0.71480 0.79860 -0.97900
Eu	Eu	0.93192 0.81620 0.77754 2.17600
O 	O 	0.87515 0.69800 0.85030 -0.43200
O 	O 	0.86271 0.69590 0.72790 -0.39100
O 	O 	0.64878 0.46540 0.91470 -0.33300
O 	O 	0.63812 0.43830 0.79240 -0.48000
O 	O 	0.80540 0.66100 0.94150 -0.16800
H 	H 	0.83170 0.68630 0.92880 0.12600
O 	O 	0.71040 0.46500 0.69920 -0.10200
H 	H 	0.68160 0.45540 0.70630 0.15400
O 	O 	0.91846 0.88330 0.64320 -0.41600
O 	O 	0.98936 0.81320 0.67135 -0.60900
O 	O 	0.06504 0.88490 0.59150 -0.65100
H 	H 	0.09140 0.91580 0.58670 0.33800
O 	O 	0.96201 0.01410 0.77000 -0.50400
O 	O 	0.96197 0.62100 0.76940 -0.49900
O 	O 	0.91990 0.20740 0.80610 0.97200
H 	H 	0.92160 0.13610 0.80260 -0.12300
C 	C 	0.84970 0.67070 0.79370 0.32000
C 	C 	0.80210 0.61450 0.80770 -0.10100
C 	C 	0.78360 0.60730 0.88000 0.17700
C 	C 	0.73850 0.56090 0.89200 -0.07000
H 	H 	0.72630 0.55700 0.94080 0.09300
C 	C 	0.71130 0.52020 0.83210 -0.16400
C 	C 	0.73010 0.52660 0.75990 0.24000
C 	C 	0.77490 0.57370 0.74800 -0.12800
H 	H 	0.78710 0.57810 0.69920 0.11100
C 	C 	0.66250 0.47200 0.84850 0.40700
C 	C 	0.96236 0.87490 0.62820 0.40100
C 	C 	0.98347 0.93650 0.56240 -0.13700
C 	C 	0.03243 0.94170 0.54710 0.28900
C 	C 	0.04772 0.00410 0.48550 -0.14500
H 	H 	0.08040 0.00690 0.47530 0.10700
C 	C 	0.96140 0.25690 0.77850 0.44900
C 	C 	0.96080 0.37840 0.77810 0.28000
H 	H 	0.93360 0.42060 0.79720 -0.85300
O 	O 	0.81220 0.62200 0.94360 -0.17200
H 	H 	0.83820 0.64890 0.93110 0.10700
O 	O 	0.69980 0.51700 0.69710 -0.30200
H 	H 	0.67340 0.49410 0.71070 0.11400
O 	O 	0.92090 0.43040 0.80730 0.87200
H 	H 	0.92330 0.50160 0.80330 -0.10900
H 	H 	0.93450 0.21480 0.79860 -0.97500
Eu	Eu	0.56808 0.68380 0.27754 2.17000
O 	O 	0.62485 0.80200 0.35030 -0.43300
O 	O 	0.63729 0.80410 0.22790 -0.39100
O 	O 	0.85122 0.03460 0.41470 -0.33300
O 	O 	0.86188 0.06170 0.29240 -0.48100
O 	O 	0.69460 0.83900 0.44150 -0.16800
H 	H 	0.66830 0.81370 0.42880 0.12700
O 	O 	0.78960 0.03500 0.19920 -0.09300
H 	H 	0.81840 0.04460 0.20630 0.14100
O 	O 	0.58154 0.61670 0.14320 -0.41800
O 	O 	0.51064 0.68680 0.17135 -0.61700
O 	O 	0.43496 0.61510 0.09150 -0.65600
H 	H 	0.40860 0.58420 0.08670 0.34000
O 	O 	0.53799 0.48590 0.27000 -0.51300
O 	O 	0.53803 0.87900 0.26940 -0.50700
O 	O 	0.58010 0.29260 0.30610 0.97800
H 	H 	0.57840 0.36390 0.30260 -0.12600
C 	C 	0.65030 0.82930 0.29370 0.32100
C 	C 	0.69790 0.88550 0.30770 -0.10100
C 	C 	0.71640 0.89270 0.38000 0.17800
C 	C 	0.76150 0.93910 0.39200 -0.07100
H 	H 	0.77370 0.94300 0.44080 0.09300
C 	C 	0.78870 0.97980 0.33210 -0.16300
C 	C 	0.76990 0.97340 0.25990 0.23900
C 	C 	0.72510 0.92630 0.24800 -0.12700
H 	H 	0.71290 0.92190 0.19920 0.11100
C 	C 	0.83750 0.02800 0.34850 0.40600
C 	C 	0.53764 0.62510 0.12820 0.40800
C 	C 	0.51653 0.56350 0.06240 -0.15900
C 	C 	0.46757 0.55830 0.04710 0.31200
C 	C 	0.45228 0.49590 0.98550 -0.16400
H 	H 	0.41960 0.49310 0.97530 0.11300
C 	C 	0.53860 0.24310 0.27850 0.44100
C 	C 	0.53920 0.12160 0.27810 0.27400
H 	H 	0.56640 0.07940 0.29720 -0.85700
O 	O 	0.68780 0.87800 0.44360 -0.17200
H 	H 	0.66180 0.85110 0.43110 0.10600
O 	O 	0.80020 0.98300 0.19710 -0.30900
H 	H 	0.82660 0.00590 0.21070 0.12500
O 	O 	0.57910 0.06960 0.30730 0.87700
H 	H 	0.57670 0.99840 0.30330 -0.11000
H 	H 	0.56550 0.28520 0.29860 -0.97800
Eu	Eu	0.06808 0.81620 0.72246 2.16000
O 	O 	0.12485 0.69800 0.64970 -0.43200
O 	O 	0.13729 0.69590 0.77210 -0.39100
O 	O 	0.35122 0.46540 0.58530 -0.33300
O 	O 	0.36188 0.43830 0.70760 -0.48000
O 	O 	0.19460 0.66100 0.55850 -0.16700
H 	H 	0.16830 0.68630 0.57120 0.12700
O 	O 	0.28960 0.46500 0.80080 -0.10200
H 	H 	0.31840 0.45540 0.79370 0.15400
O 	O 	0.08154 0.88330 0.85680 -0.42000
O 	O 	0.01064 0.81320 0.82865 -0.62300
O 	O 	0.93496 0.88490 0.90850 -0.65900
H 	H 	0.90860 0.91580 0.91330 0.34000
O 	O 	0.03799 0.01410 0.73000 -0.51000
O 	O 	0.03803 0.62100 0.73060 -0.50500
O 	O 	0.08010 0.20740 0.69390 0.97700
H 	H 	0.07840 0.13610 0.69740 -0.12600
C 	C 	0.15030 0.67070 0.70630 0.32100
C 	C 	0.19790 0.61450 0.69230 -0.10100
C 	C 	0.21640 0.60730 0.62000 0.17700
C 	C 	0.26150 0.56090 0.60800 -0.07000
H 	H 	0.27370 0.55700 0.55920 0.09300
C 	C 	0.28870 0.52020 0.66790 -0.16400
C 	C 	0.26990 0.52660 0.74010 0.23900
C 	C 	0.22510 0.57370 0.75200 -0.12700
H 	H 	0.21290 0.57810 0.80080 0.11100
C 	C 	0.33750 0.47200 0.65150 0.40700
C 	C 	0.03764 0.87490 0.87180 0.41400
C 	C 	0.01653 0.93650 0.93760 -0.17900
C 	C 	0.96757 0.94170 0.95290 0.32900
C 	C 	0.95228 0.00410 0.01450 -0.17700
H 	H 	0.91960 0.00690 0.02470 0.11800
C 	C 	0.03860 0.25690 0.72150 0.44200
C 	C 	0.03920 0.37840 0.72190 0.27200
H 	H 	0.06640 0.42060 0.70280 -0.85600
O 	O 	0.18780 0.62200 0.55640 -0.17200
H 	H 	0.16180 0.64890 0.56890 0.10600
O 	O 	0.30020 0.51700 0.80290 -0.30200
H 	H 	0.32660 0.49410 0.78930 0.11400
O 	O 	0.07910 0.43040 0.69270 0.87700
H 	H 	0.07670 0.50160 0.69670 -0.11100
H 	H 	0.06550 0.21480 0.70140 -0.97800
Eu	Eu	0.43192 0.68380 0.22246 2.17100
O 	O 	0.37515 0.80200 0.14970 -0.43200
O 	O 	0.36271 0.80410 0.27210 -0.39100
O 	O 	0.14878 0.03460 0.08530 -0.33300
O 	O 	0.13812 0.06170 0.20760 -0.47900
O 	O 	0.30540 0.83900 0.05850 -0.16800
H 	H 	0.33170 0.81370 0.07120 0.12600
O 	O 	0.21040 0.03500 0.30080 -0.09500
H 	H 	0.18160 0.04460 0.29370 0.14500
O 	O 	0.41846 0.61670 0.35680 -0.41800
O 	O 	0.48936 0.68680 0.32865 -0.61700
O 	O 	0.56504 0.61510 0.40850 -0.65600
H 	H 	0.59140 0.58420 0.41330 0.33900
O 	O 	0.46201 0.48590 0.23000 -0.51300
O 	O 	0.46197 0.87900 0.23060 -0.50700
O 	O 	0.41990 0.29260 0.19390 0.97800
H 	H 	0.42160 0.36390 0.19740 -0.12600
C 	C 	0.34970 0.82930 0.20630 0.32100
C 	C 	0.30210 0.88550 0.19230 -0.10200
C 	C 	0.28360 0.89270 0.12000 0.17800
C 	C 	0.23850 0.93910 0.10800 -0.07200
H 	H 	0.22630 0.94300 0.05920 0.09400
C 	C 	0.21130 0.97980 0.16790 -0.16100
C 	C 	0.23010 0.97340 0.24010 0.23800
C 	C 	0.27490 0.92630 0.25200 -0.12600
H 	H 	0.28710 0.92190 0.30080 0.11100
C 	C 	0.16250 0.02800 0.15150 0.40400
C 	C 	0.46236 0.62510 0.37180 0.40800
C 	C 	0.48347 0.56350 0.43760 -0.15900
C 	C 	0.53243 0.55830 0.45290 0.31000
C 	C 	0.54772 0.49590 0.51450 -0.16200
H 	H 	0.58040 0.49310 0.52470 0.11300
C 	C 	0.46140 0.24310 0.22150 0.44100
C 	C 	0.46080 0.12160 0.22190 0.27400
H 	H 	0.43360 0.07940 0.20280 -0.85800
O 	O 	0.31220 0.87800 0.05640 -0.17200
H 	H 	0.33820 0.85110 0.06890 0.10700
O 	O 	0.19980 0.98300 0.30290 -0.30700
H 	H 	0.17340 0.00590 0.28930 0.12100
O 	O 	0.42090 0.06960 0.19270 0.87800
H 	H 	0.42330 0.99840 0.19670 -0.11000
H 	H 	0.43450 0.28520 0.20140 -0.97800
C 	C 	-0.00000 0.93590 0.25000 0.58000
C 	C 	0.00000 0.80500 0.25000 -0.44600
C 	C 	0.00000 0.56130 0.25000 -0.33700
C 	C 	0.00000 0.43050 0.25000 0.54000
C 	C 	0.50000 0.56410 0.75000 0.59000
C 	C 	0.50000 0.69500 0.75000 -0.43700
C 	C 	0.50000 0.93870 0.75000 -0.33200
C 	C 	0.50000 0.06950 0.75000 0.55300
C 	C 	0.00000 0.06410 0.75000 0.58100
C 	C 	0.00000 0.19500 0.75000 -0.44500
C 	C 	0.00000 0.43870 0.75000 -0.33700
C 	C 	0.00000 0.56950 0.75000 0.54100
C 	C 	0.50000 0.43590 0.25000 0.59000
C 	C 	0.50000 0.30500 0.25000 -0.43700
C 	C 	0.50000 0.06130 0.25000 -0.33200
C 	C 	0.50000 0.93050 0.25000 0.55300
