data_crystal

_cell_length_a 7.06140
_cell_length_b 18.20800
_cell_length_c 24.72900
_cell_angle_alpha 90.00000
_cell_angle_beta  90.00000
_cell_angle_gamma 100.32000

_symmetry_space_group_name_	'P 1'
_symmetry_space_group_name_H-M	'P 1'

loop_
_symmetry_equiv_pos_as_xyz
  x,y,z

loop_
_atom_site_label
_atom_site_type_symbol
_atom_site_fract_x
_atom_site_fract_y
_atom_site_fract_z
_atom_site_charge
La	La	0.22471 0.01602 0.39972 1.58200
La	La	0.77529 0.98398 0.89972 1.55700
La	La	0.77529 0.98398 0.60028 1.55900
La	La	0.22471 0.01602 0.10028 1.58200
Cu	Cu	0.75000 0.44599 0.31570 0.76900
Cu	Cu	0.37881 0.54320 0.49274 0.77900
Cu	Cu	0.82827 0.56012 0.41965 0.79200
Cu	Cu	0.25000 0.55401 0.81570 0.77900
Cu	Cu	0.62119 0.45680 0.99274 0.77000
Cu	Cu	0.17173 0.43988 0.91965 0.80100
Cu	Cu	0.25000 0.55401 0.68430 0.77900
Cu	Cu	0.62119 0.45680 0.50726 0.77600
Cu	Cu	0.17173 0.43988 0.58035 0.80400
Cu	Cu	0.75000 0.44599 0.18430 0.76800
Cu	Cu	0.37881 0.54320 0.00726 0.78300
Cu	Cu	0.82827 0.56012 0.08035 0.79200
Cu	Cu	0.77156 0.56414 0.25000 0.74800
Cu	Cu	0.22844 0.43586 0.75000 0.76200
H 	H 	0.22280 0.28670 0.36190 0.04600
H 	H 	0.10370 0.39530 0.34890 0.03100
H 	H 	0.59290 0.28140 0.31900 0.01400
H 	H 	0.69580 0.17080 0.33490 0.02800
H 	H 	0.39600 0.76170 0.37210 0.07600
H 	H 	0.42170 0.64190 0.39580 -0.00500
H 	H 	0.32150 0.68140 0.54740 -0.00600
H 	H 	0.29980 0.80210 0.52810 0.06500
H 	H 	0.90400 0.83050 0.37870 0.03200
H 	H 	0.89280 0.70640 0.36250 -0.00300
H 	H 	0.80900 0.65850 0.51550 -0.01300
H 	H 	0.80810 0.78120 0.53550 0.04500
H 	H 	0.77720 0.71330 0.86190 0.08000
H 	H 	0.89630 0.60470 0.84890 0.02300
H 	H 	0.40710 0.71860 0.81900 -0.00200
H 	H 	0.30420 0.82920 0.83490 0.05500
H 	H 	0.60400 0.23830 0.87210 0.07100
H 	H 	0.57830 0.35810 0.89580 -0.00200
H 	H 	0.67850 0.31860 0.04740 -0.01000
H 	H 	0.70020 0.19790 0.02810 0.05600
H 	H 	0.09600 0.16950 0.87870 0.03100
H 	H 	0.10720 0.29360 0.86250 0.01100
H 	H 	0.19100 0.34150 0.01550 0.02100
H 	H 	0.19190 0.21880 0.03550 0.02700
H 	H 	0.77720 0.71330 0.63810 0.08000
H 	H 	0.89630 0.60470 0.65110 0.02300
H 	H 	0.40710 0.71860 0.68100 -0.00300
H 	H 	0.30420 0.82920 0.66510 0.05600
H 	H 	0.60400 0.23830 0.62790 0.07400
H 	H 	0.57830 0.35810 0.60420 -0.00400
H 	H 	0.67850 0.31860 0.45260 -0.00900
H 	H 	0.70020 0.19790 0.47190 0.06000
H 	H 	0.09600 0.16950 0.62130 0.03900
H 	H 	0.10720 0.29360 0.63750 0.00500
H 	H 	0.19100 0.34150 0.48450 -0.01000
H 	H 	0.19190 0.21880 0.46450 0.05000
H 	H 	0.22280 0.28670 0.13810 0.04600
H 	H 	0.10370 0.39530 0.15110 0.03000
H 	H 	0.59290 0.28140 0.18100 0.01400
H 	H 	0.69580 0.17080 0.16510 0.02800
H 	H 	0.39600 0.76170 0.12790 0.08000
H 	H 	0.42170 0.64190 0.10420 -0.00800
H 	H 	0.32150 0.68140 0.95260 -0.00600
H 	H 	0.29980 0.80210 0.97190 0.06900
H 	H 	0.90400 0.83050 0.12130 0.02900
H 	H 	0.89280 0.70640 0.13750 -0.00200
H 	H 	0.80900 0.65850 0.98450 -0.02700
H 	H 	0.80810 0.78120 0.96450 0.02800
H 	H 	0.23380 0.70590 0.25000 0.07400
H 	H 	0.38340 0.60410 0.25000 0.02700
H 	H 	0.88630 0.73240 0.25000 0.00000
H 	H 	0.74930 0.83750 0.25000 0.06500
H 	H 	0.76620 0.29410 0.75000 0.06500
H 	H 	0.61660 0.39590 0.75000 0.03000
H 	H 	0.11370 0.26760 0.75000 0.01500
H 	H 	0.25070 0.16250 0.75000 0.06800
C 	C 	0.05010 0.14540 0.35920 0.34600
C 	C 	0.97270 0.21630 0.34970 -0.11300
C 	C 	0.09330 0.28440 0.35360 0.00200
C 	C 	0.02100 0.34970 0.34530 0.01100
C 	C 	0.72110 0.28280 0.32830 0.00400
C 	C 	0.78220 0.21570 0.33720 -0.02200
C 	C 	0.32890 0.87430 0.43220 0.29400
C 	C 	0.34730 0.79580 0.44750 -0.01800
C 	C 	0.38220 0.74660 0.40800 -0.07200
C 	C 	0.39640 0.67470 0.42260 0.03900
C 	C 	0.33830 0.69800 0.51190 0.04500
C 	C 	0.32440 0.77020 0.50060 -0.07100
C 	C 	0.85410 0.90210 0.47210 0.39500
C 	C 	0.85400 0.82030 0.45950 -0.08700
C 	C 	0.88210 0.79630 0.40700 -0.03400
C 	C 	0.87720 0.72200 0.39780 0.02100
C 	C 	0.82660 0.69350 0.48770 0.01200
C 	C 	0.82660 0.76720 0.50000 -0.03200
C 	C 	0.94990 0.85460 0.85920 0.22800
C 	C 	0.02730 0.78370 0.84970 0.02600
C 	C 	0.90670 0.71560 0.85360 -0.10500
C 	C 	0.97900 0.65030 0.84530 0.01300
C 	C 	0.27890 0.71720 0.82830 0.05000
C 	C 	0.21780 0.78430 0.83720 -0.09500
C 	C 	0.67110 0.12570 0.93220 0.29700
C 	C 	0.65270 0.20420 0.94750 -0.04200
C 	C 	0.61780 0.25340 0.90800 -0.06400
C 	C 	0.60360 0.32530 0.92260 0.02800
C 	C 	0.66170 0.30200 0.01190 0.04500
C 	C 	0.67560 0.22980 0.00060 -0.05600
C 	C 	0.14590 0.09790 0.97210 0.39700
C 	C 	0.14600 0.17970 0.95950 -0.11700
C 	C 	0.11790 0.20370 0.90700 -0.00700
C 	C 	0.12280 0.27800 0.89780 0.01100
C 	C 	0.17340 0.30650 0.98770 -0.04900
C 	C 	0.17340 0.23280 -0.00000 0.04000
C 	C 	0.94990 0.85460 0.64080 0.22700
C 	C 	0.02730 0.78370 0.65030 0.02800
C 	C 	0.90670 0.71560 0.64640 -0.10600
C 	C 	0.97900 0.65030 0.65470 0.01400
C 	C 	0.27890 0.71720 0.67170 0.05100
C 	C 	0.21780 0.78430 0.66280 -0.09600
C 	C 	0.67110 0.12570 0.56780 0.29200
C 	C 	0.65270 0.20420 0.55250 -0.02600
C 	C 	0.61780 0.25340 0.59200 -0.07200
C 	C 	0.60360 0.32530 0.57740 0.03300
C 	C 	0.66170 0.30200 0.48810 0.03900
C 	C 	0.67560 0.22980 0.49940 -0.07300
C 	C 	0.14590 0.09790 0.52790 0.39800
C 	C 	0.14600 0.17970 0.54050 -0.07900
C 	C 	0.11790 0.20370 0.59300 -0.03200
C 	C 	0.12280 0.27800 0.60220 0.02800
C 	C 	0.17340 0.30650 0.51230 0.01900
C 	C 	0.17340 0.23280 0.50000 -0.03000
C 	C 	0.05010 0.14540 0.14080 0.34700
C 	C 	0.97270 0.21630 0.15030 -0.11300
C 	C 	0.09330 0.28440 0.14640 0.00300
C 	C 	0.02100 0.34970 0.15470 0.01100
C 	C 	0.72110 0.28280 0.17170 0.00400
C 	C 	0.78220 0.21570 0.16280 -0.02100
C 	C 	0.32890 0.87430 0.06780 0.28700
C 	C 	0.34730 0.79580 0.05250 0.00500
C 	C 	0.38220 0.74660 0.09200 -0.08300
C 	C 	0.39640 0.67470 0.07740 0.04600
C 	C 	0.33830 0.69800 0.98810 0.03800
C 	C 	0.32440 0.77020 0.99940 -0.09700
C 	C 	0.85410 0.90210 0.02790 0.42000
C 	C 	0.85400 0.82030 0.04050 -0.10100
C 	C 	0.88210 0.79630 0.09300 -0.02600
C 	C 	0.87720 0.72200 0.10220 0.01700
C 	C 	0.82660 0.69350 0.01230 0.02400
C 	C 	0.82660 0.76720 -0.00000 -0.00300
C 	C 	0.37360 0.85110 0.25000 0.27700
C 	C 	0.47420 0.78400 0.25000 -0.01500
C 	C 	0.36750 0.71280 0.25000 -0.06600
C 	C 	0.45850 0.65160 0.25000 0.02000
C 	C 	0.75270 0.72660 0.25000 0.04200
C 	C 	0.67120 0.79060 0.25000 -0.08000
C 	C 	0.62640 0.14890 0.75000 0.28200
C 	C 	0.52580 0.21600 0.75000 -0.02200
C 	C 	0.63250 0.28720 0.75000 -0.05900
C 	C 	0.54150 0.34840 0.75000 0.01600
C 	C 	0.24730 0.27340 0.75000 0.03800
C 	C 	0.32880 0.20940 0.75000 -0.07300
I 	I 	0.02295 0.55701 0.32989 -0.60100
I 	I 	0.48946 0.47106 0.41005 -0.73200
I 	I 	0.97705 0.44299 0.82989 -0.65100
I 	I 	0.51054 0.52894 0.91005 -0.73600
I 	I 	0.97705 0.44299 0.67011 -0.65000
I 	I 	0.51054 0.52894 0.58995 -0.72900
I 	I 	0.02295 0.55701 0.17011 -0.60100
I 	I 	0.48946 0.47106 0.08995 -0.72900
I 	I 	0.46956 0.44039 0.25000 -0.59700
I 	I 	0.53044 0.55961 0.75000 -0.59500
I 	I 	0.00000 0.50000 0.50000 -0.74100
I 	I 	-0.00000 0.50000 -0.00000 -0.72500
N 	N 	0.83560 0.34940 0.33213 -0.23900
N 	N 	0.37510 0.65010 0.47380 -0.23500
N 	N 	0.85100 0.67020 0.43719 -0.23100
N 	N 	0.16440 0.65060 0.83213 -0.23100
N 	N 	0.62490 0.34990 0.97380 -0.24200
N 	N 	0.14900 0.32980 0.93719 -0.21400
N 	N 	0.16440 0.65060 0.66787 -0.23000
N 	N 	0.62490 0.34990 0.52620 -0.23600
N 	N 	0.14900 0.32980 0.56281 -0.22600
N 	N 	0.83560 0.34940 0.16787 -0.23900
N 	N 	0.37510 0.65010 0.02620 -0.22900
N 	N 	0.85100 0.67020 0.06281 -0.23200
N 	N 	0.65200 0.65800 0.25000 -0.23700
N 	N 	0.34800 0.34200 0.75000 -0.23200
O 	O 	0.23090 0.14960 0.36067 -0.40000
O 	O 	0.93610 0.08480 0.36576 -0.39400
O 	O 	0.33860 0.89200 0.38383 -0.38700
O 	O 	0.29710 0.91890 0.46923 -0.36400
O 	O 	0.91640 0.94900 0.43638 -0.43100
O 	O 	0.78700 0.91530 0.51724 -0.43800
O 	O 	0.76910 0.85040 0.86067 -0.37700
O 	O 	0.06390 0.91520 0.86576 -0.33500
O 	O 	0.66140 0.10800 0.88383 -0.39400
O 	O 	0.70290 0.08110 0.96923 -0.37800
O 	O 	0.08360 0.05100 0.93638 -0.41700
O 	O 	0.21300 0.08470 0.01724 -0.42500
O 	O 	0.76910 0.85040 0.63933 -0.37600
O 	O 	0.06390 0.91520 0.63424 -0.33300
O 	O 	0.66140 0.10800 0.61617 -0.39400
O 	O 	0.70290 0.08110 0.53077 -0.37300
O 	O 	0.08360 0.05100 0.56362 -0.41600
O 	O 	0.21300 0.08470 0.48276 -0.43200
O 	O 	0.23090 0.14960 0.13933 -0.40000
O 	O 	0.93610 0.08480 0.13424 -0.39400
O 	O 	0.33860 0.89200 0.11617 -0.38400
O 	O 	0.29710 0.91890 0.03077 -0.35500
O 	O 	0.91640 0.94900 0.06362 -0.43400
O 	O 	0.78700 0.91530 0.98276 -0.45500
O 	O 	0.48060 0.91500 0.25000 -0.27000
O 	O 	0.19340 0.84040 0.25000 -0.25200
O 	O 	0.51940 0.08500 0.75000 -0.27300
O 	O 	0.80660 0.15960 0.75000 -0.27100
