data_crystal

_cell_length_a 9.35300
_cell_length_b 9.79700
_cell_length_c 11.38800
_cell_angle_alpha 94.34000
_cell_angle_beta  99.40700
_cell_angle_gamma 111.45500

_symmetry_space_group_name_	'P 1'
_symmetry_space_group_name_H-M	'P 1'

loop_
_symmetry_equiv_pos_as_xyz
  x,y,z

loop_
_atom_site_label
_atom_site_type_symbol
_atom_site_fract_x
_atom_site_fract_y
_atom_site_fract_z
_atom_site_charge
Y 	Y 	0.27654 0.54510 0.48855 2.37700
Y 	Y 	0.72346 0.45490 0.51145 2.37700
H 	H 	0.27380 0.23310 0.12100 -0.03800
H 	H 	0.17660 0.10180 0.93620 0.14800
H 	H 	0.84510 0.26990 0.88450 0.15000
H 	H 	0.93680 0.39710 0.07810 -0.01800
H 	H 	0.19970 0.29240 0.72280 0.03400
H 	H 	0.32210 0.00250 0.54010 0.02000
H 	H 	0.92050 0.85950 0.66090 0.06600
H 	H 	0.72620 0.76690 0.87900 -0.03800
H 	H 	0.82340 0.89820 0.06380 0.14800
H 	H 	0.15490 0.73010 0.11550 0.15000
H 	H 	0.06320 0.60290 0.92190 -0.01800
H 	H 	0.80030 0.70760 0.27720 0.03400
H 	H 	0.67790 0.99750 0.45990 0.02000
H 	H 	0.07950 0.14050 0.33910 0.06600
C 	C 	0.17510 0.41270 0.24520 0.37700
C 	C 	0.11590 0.32770 0.12340 -0.22000
C 	C 	0.18570 0.23960 0.07450 0.21000
C 	C 	0.13100 0.16460 0.96380 -0.32400
C 	C 	0.00560 0.17950 0.88890 0.29500
C 	C 	0.93200 0.26340 0.93290 -0.27900
C 	C 	0.98630 0.33880 0.04910 0.15600
C 	C 	0.04800 0.07750 0.70760 0.13400
C 	C 	0.18030 0.19560 0.69100 -0.05600
C 	C 	0.28110 0.16580 0.62670 -0.13900
C 	C 	0.25090 0.02250 0.57960 0.06900
C 	C 	0.11410 0.90630 0.59040 -0.14800
C 	C 	0.01260 0.93560 0.65420 -0.05200
C 	C 	0.41950 0.29100 0.60310 0.44600
C 	C 	0.08150 0.75330 0.53320 0.50700
C 	C 	0.82490 0.58730 0.75480 0.37700
C 	C 	0.88410 0.67230 0.87660 -0.22000
C 	C 	0.81430 0.76040 0.92550 0.21000
C 	C 	0.86900 0.83540 0.03620 -0.32400
C 	C 	0.99440 0.82050 0.11110 0.29500
C 	C 	0.06800 0.73660 0.06710 -0.27900
C 	C 	0.01370 0.66120 0.95090 0.15600
C 	C 	0.95200 0.92250 0.29240 0.13400
C 	C 	0.81970 0.80440 0.30900 -0.05600
C 	C 	0.71890 0.83420 0.37330 -0.13900
C 	C 	0.74910 0.97750 0.42040 0.06900
C 	C 	0.88590 0.09370 0.40960 -0.14800
C 	C 	0.98740 0.06440 0.34580 -0.05200
C 	C 	0.58050 0.70900 0.39690 0.44600
C 	C 	0.91850 0.24670 0.46680 0.50700
O 	O 	0.12220 0.50450 0.28280 -0.46900
O 	O 	0.28150 0.38930 0.31690 -0.50000
O 	O 	0.54660 0.27510 0.60580 -0.53000
O 	O 	0.40230 0.40770 0.57780 -0.67800
O 	O 	0.18910 0.73070 0.49170 -0.62500
O 	O 	0.94960 0.65530 0.52850 -0.64700
O 	O 	0.94520 0.10500 0.77260 -0.26600
O 	O 	0.87780 0.49550 0.71720 -0.46900
O 	O 	0.71850 0.61070 0.68310 -0.50000
O 	O 	0.45340 0.72490 0.39420 -0.53000
O 	O 	0.59770 0.59230 0.42220 -0.67800
O 	O 	0.81090 0.26930 0.50830 -0.62500
O 	O 	0.05040 0.34470 0.47150 -0.64700
O 	O 	0.05480 0.89500 0.22740 -0.26600
