data_crystal

_cell_length_a 9.42300
_cell_length_b 9.94700
_cell_length_c 11.41900
_cell_angle_alpha 93.63300
_cell_angle_beta  98.09200
_cell_angle_gamma 110.64900

_symmetry_space_group_name_	'P 1'
_symmetry_space_group_name_H-M	'P 1'

loop_
_symmetry_equiv_pos_as_xyz
  x,y,z

loop_
_atom_site_label
_atom_site_type_symbol
_atom_site_fract_x
_atom_site_fract_y
_atom_site_fract_z
_atom_site_charge
Ce	Ce	0.28419 0.04592 0.98479 2.12800
Ce	Ce	0.71581 0.95408 0.01521 2.07900
H 	H 	0.68320 0.50650 0.96320 0.03500
H 	H 	0.08100 0.63570 0.83630 0.08800
H 	H 	0.80300 0.21510 0.78110 0.06000
H 	H 	0.82660 0.40260 0.56960 0.14000
H 	H 	0.73610 0.27850 0.38240 -0.01800
H 	H 	0.06090 0.10450 0.42700 -0.00300
H 	H 	0.15220 0.22740 0.61640 0.15700
H 	H 	0.31680 0.49350 0.03680 0.03600
H 	H 	0.91900 0.36430 0.16370 0.09400
H 	H 	0.19700 0.78490 0.21890 0.03600
H 	H 	0.17340 0.59740 0.43040 0.13500
H 	H 	0.26390 0.72150 0.61760 -0.02200
H 	H 	0.93910 0.89550 0.57300 -0.03200
H 	H 	0.84780 0.77260 0.38360 0.13700
C 	C 	0.57930 0.22600 0.89640 0.36000
C 	C 	0.72180 0.34270 0.87540 -0.08100
C 	C 	0.75320 0.48470 0.92310 0.01500
C 	C 	0.88820 0.59260 0.91080 -0.09300
C 	C 	0.98990 0.56300 0.84480 -0.11200
C 	C 	0.95160 0.42240 0.79250 0.17900
C 	C 	0.82210 0.31020 0.81110 -0.10800
C 	C 	0.92530 0.74430 0.96830 0.43000
C 	C 	0.87200 0.34080 0.54130 -0.29200
C 	C 	0.81870 0.26670 0.42950 0.17200
C 	C 	0.88420 0.17420 0.38410 -0.18700
C 	C 	0.01230 0.16290 0.45630 0.14900
C 	C 	0.06750 0.23630 0.56970 -0.29000
C 	C 	0.99570 0.32260 0.61270 0.30600
C 	C 	0.82460 0.09020 0.26560 0.35200
C 	C 	0.42070 0.77400 0.10360 0.37000
C 	C 	0.27820 0.65730 0.12460 -0.09700
C 	C 	0.24680 0.51530 0.07690 0.02100
C 	C 	0.11180 0.40740 0.08920 -0.08900
C 	C 	0.01010 0.43700 0.15520 -0.11500
C 	C 	0.04840 0.57760 0.20750 0.16800
C 	C 	0.17790 0.68980 0.18890 -0.09500
C 	C 	0.07470 0.25570 0.03170 0.42700
C 	C 	0.12800 0.65920 0.45870 -0.28900
C 	C 	0.18130 0.73330 0.57050 0.15700
C 	C 	0.11580 0.82580 0.61590 -0.19200
C 	C 	0.98770 0.83710 0.54370 0.13500
C 	C 	0.93250 0.76370 0.43030 -0.28700
C 	C 	0.00430 0.67740 0.38730 0.28600
C 	C 	0.17540 0.90980 0.73440 0.29600
O 	O 	0.45620 0.25110 0.88740 -0.44300
O 	O 	0.58480 0.10750 0.92490 -0.59300
O 	O 	0.82230 0.76900 0.01350 -0.55700
O 	O 	0.05550 0.83620 0.96830 -0.57000
O 	O 	0.71400 0.11030 0.19970 -0.42900
O 	O 	0.87920 0.00000 0.22840 -0.38100
O 	O 	0.05450 0.39500 0.72640 -0.28500
O 	O 	0.54380 0.74890 0.11260 -0.46400
O 	O 	0.41520 0.89250 0.07510 -0.64800
O 	O 	0.17770 0.23100 0.98650 -0.54000
O 	O 	0.94450 0.16380 0.03170 -0.52600
O 	O 	0.28600 0.88970 0.80030 -0.46100
O 	O 	0.12080 -0.00000 0.77160 -0.37100
O 	O 	0.94550 0.60500 0.27360 -0.27800
