data_crystal

_cell_length_a 9.39800
_cell_length_b 9.91100
_cell_length_c 11.42200
_cell_angle_alpha 93.96500
_cell_angle_beta  98.13100
_cell_angle_gamma 110.78200

_symmetry_space_group_name_	'P 1'
_symmetry_space_group_name_H-M	'P 1'

loop_
_symmetry_equiv_pos_as_xyz
  x,y,z

loop_
_atom_site_label
_atom_site_type_symbol
_atom_site_fract_x
_atom_site_fract_y
_atom_site_fract_z
_atom_site_charge
Pr	Pr	0.28428 0.54560 0.48512 2.04300
Pr	Pr	0.71572 0.45440 0.51488 2.04300
H 	H 	0.94020 0.39780 0.07400 -0.01700
H 	H 	0.84980 0.27370 0.88250 0.14900
H 	H 	0.17010 0.09570 0.93140 0.14600
H 	H 	0.26330 0.22190 0.11730 -0.02900
H 	H 	0.91970 0.86610 0.66370 0.07600
H 	H 	0.31940 0.99510 0.53820 0.03600
H 	H 	0.19860 0.28640 0.71910 0.04900
H 	H 	0.05980 0.60220 0.92600 -0.01600
H 	H 	0.15020 0.72630 0.11750 0.15000
H 	H 	0.82990 0.90430 0.06860 0.14600
H 	H 	0.73670 0.77810 0.88270 -0.02900
H 	H 	0.08030 0.13390 0.33630 0.07600
H 	H 	0.68060 0.00490 0.46180 0.03600
H 	H 	0.80140 0.71360 0.28090 0.04900
C 	C 	0.17660 0.41050 0.23650 0.37600
C 	C 	0.11650 0.32650 0.11660 -0.21600
C 	C 	0.98870 0.33900 0.04460 0.15100
C 	C 	0.93410 0.26440 0.92980 -0.27700
C 	C 	0.00450 0.17780 0.88700 0.29600
C 	C 	0.12590 0.15920 0.95920 -0.31300
C 	C 	0.18020 0.23380 0.07060 0.19500
C 	C 	0.04880 0.07860 0.70620 0.15300
C 	C 	0.01140 0.93870 0.65490 -0.07900
C 	C 	0.11150 0.90640 0.58980 -0.10700
C 	C 	0.07540 0.75540 0.53290 0.45000
C 	C 	0.24860 0.01680 0.57760 0.02400
C 	C 	0.27840 0.15750 0.62410 -0.09000
C 	C 	0.17870 0.19080 0.68850 -0.09100
C 	C 	0.42030 0.27460 0.60240 0.35600
C 	C 	0.82340 0.58950 0.76350 0.37600
C 	C 	0.88350 0.67350 0.88340 -0.21600
C 	C 	0.01130 0.66100 0.95540 0.15100
C 	C 	0.06590 0.73560 0.07020 -0.27700
C 	C 	0.99550 0.82220 0.11300 0.29600
C 	C 	0.87410 0.84080 0.04080 -0.31300
C 	C 	0.81980 0.76620 0.92940 0.19500
C 	C 	0.95120 0.92140 0.29380 0.15300
C 	C 	0.98860 0.06130 0.34510 -0.07900
C 	C 	0.88850 0.09360 0.41020 -0.10700
C 	C 	0.92460 0.24460 0.46710 0.45000
C 	C 	0.75140 0.98320 0.42240 0.02400
C 	C 	0.72160 0.84250 0.37590 -0.09000
C 	C 	0.82130 0.80920 0.31150 -0.09100
C 	C 	0.57970 0.72540 0.39760 0.35600
O 	O 	0.28490 0.38940 0.30230 -0.45800
O 	O 	0.12240 0.50030 0.27370 -0.42600
O 	O 	0.94480 0.66220 0.53160 -0.55600
O 	O 	0.17870 0.73020 0.48800 -0.53600
O 	O 	0.41470 0.39410 0.57440 -0.59800
O 	O 	0.54620 0.25180 0.61130 -0.44000
O 	O 	0.94440 0.10620 0.77290 -0.26800
O 	O 	0.71510 0.61060 0.69770 -0.45800
O 	O 	0.87760 0.49970 0.72630 -0.42600
O 	O 	0.05520 0.33780 0.46840 -0.55600
O 	O 	0.82130 0.26980 0.51200 -0.53600
O 	O 	0.58530 0.60590 0.42560 -0.59800
O 	O 	0.45380 0.74820 0.38870 -0.44000
O 	O 	0.05560 0.89380 0.22710 -0.26800
