data_crystal

_cell_length_a 9.34100
_cell_length_b 9.86500
_cell_length_c 11.41500
_cell_angle_alpha 94.03300
_cell_angle_beta  98.33200
_cell_angle_gamma 110.80900

_symmetry_space_group_name_	'P 1'
_symmetry_space_group_name_H-M	'P 1'

loop_
_symmetry_equiv_pos_as_xyz
  x,y,z

loop_
_atom_site_label
_atom_site_type_symbol
_atom_site_fract_x
_atom_site_fract_y
_atom_site_fract_z
_atom_site_charge
Sm	Sm	0.78261 0.54565 0.48497 1.96600
Sm	Sm	0.21739 0.45435 0.51503 1.96600
H 	H 	0.43450 0.39450 0.07710 -0.02400
H 	H 	0.34630 0.27340 0.88430 0.15600
H 	H 	0.67650 0.10170 0.93110 0.14500
H 	H 	0.76730 0.22440 0.11950 -0.03100
H 	H 	0.69570 0.28640 0.72130 0.04300
H 	H 	0.81810 0.99740 0.53580 0.02600
H 	H 	0.41950 0.86210 0.66490 0.07100
H 	H 	0.56550 0.60550 0.92290 -0.02400
H 	H 	0.65370 0.72660 0.11570 0.15600
H 	H 	0.32350 0.89830 0.06890 0.14500
H 	H 	0.23270 0.77560 0.88050 -0.03100
H 	H 	0.30430 0.71360 0.27870 0.04300
H 	H 	0.18190 0.00260 0.46420 0.02600
H 	H 	0.58050 0.13790 0.33510 0.07100
C 	C 	0.67670 0.41200 0.23910 0.37600
C 	C 	0.61650 0.32800 0.11950 -0.22200
C 	C 	0.48530 0.33780 0.04710 0.16900
C 	C 	0.43110 0.26410 0.93190 -0.30300
C 	C 	0.50330 0.17790 0.88920 0.30900
C 	C 	0.62940 0.16240 0.96030 -0.31200
C 	C 	0.68330 0.23600 0.07260 0.19000
C 	C 	0.54730 0.07790 0.70790 0.14800
C 	C 	0.67680 0.19070 0.69010 -0.07600
C 	C 	0.77760 0.16090 0.62600 -0.10700
C 	C 	0.74770 0.01810 0.57690 0.04000
C 	C 	0.61140 0.90670 0.59010 -0.12600
C 	C 	0.51070 0.93630 0.65580 -0.07100
C 	C 	0.91980 0.28020 0.60260 0.39600
C 	C 	0.57640 0.75380 0.53250 0.48900
C 	C 	0.32330 0.58800 0.76090 0.37600
C 	C 	0.38350 0.67200 0.88050 -0.22200
C 	C 	0.51470 0.66220 0.95290 0.16900
C 	C 	0.56890 0.73590 0.06810 -0.30300
C 	C 	0.49670 0.82210 0.11080 0.30900
C 	C 	0.37060 0.83760 0.03970 -0.31200
C 	C 	0.31670 0.76400 0.92740 0.19000
C 	C 	0.45270 0.92210 0.29210 0.14800
C 	C 	0.32320 0.80930 0.30990 -0.07600
C 	C 	0.22240 0.83910 0.37400 -0.10700
C 	C 	0.25230 0.98190 0.42310 0.04000
C 	C 	0.38860 0.09330 0.40990 -0.12600
C 	C 	0.48930 0.06370 0.34420 -0.07100
C 	C 	0.08020 0.71980 0.39740 0.39600
C 	C 	0.42360 0.24620 0.46750 0.48900
O 	O 	0.78480 0.39020 0.30640 -0.44400
O 	O 	0.62200 0.50340 0.27630 -0.40900
O 	O 	0.04730 0.25890 0.61150 -0.44400
O 	O 	0.91140 0.39810 0.57430 -0.57800
O 	O 	0.68180 0.72980 0.48890 -0.54400
O 	O 	0.44470 0.65970 0.53250 -0.55600
O 	O 	0.44270 0.10480 0.77410 -0.27700
O 	O 	0.21520 0.60980 0.69360 -0.44400
O 	O 	0.37800 0.49660 0.72370 -0.40900
O 	O 	0.95270 0.74110 0.38850 -0.44400
O 	O 	0.08860 0.60190 0.42570 -0.57800
O 	O 	0.31820 0.27020 0.51110 -0.54400
O 	O 	0.55530 0.34030 0.46750 -0.55600
O 	O 	0.55730 0.89520 0.22590 -0.27700
