data_crystal

_cell_length_a 9.34100
_cell_length_b 9.84900
_cell_length_c 11.42200
_cell_angle_alpha 94.07600
_cell_angle_beta  98.57700
_cell_angle_gamma 110.92700

_symmetry_space_group_name_	'P 1'
_symmetry_space_group_name_H-M	'P 1'

loop_
_symmetry_equiv_pos_as_xyz
  x,y,z

loop_
_atom_site_label
_atom_site_type_symbol
_atom_site_fract_x
_atom_site_fract_y
_atom_site_fract_z
_atom_site_charge
Eu	Eu	0.71801 0.45464 0.01471 1.88800
Eu	Eu	0.28199 0.54536 0.98529 1.88800
H 	H 	0.06550 0.60420 0.42290 -0.02100
H 	H 	0.15440 0.72850 0.61590 0.15300
H 	H 	0.82290 0.89780 0.56860 0.14100
H 	H 	0.73130 0.77310 0.38030 -0.02600
H 	H 	0.07960 0.13900 0.83540 0.07300
H 	H 	0.67950 0.00300 0.96190 0.02500
H 	H 	0.80410 0.71190 0.77930 0.04400
H 	H 	0.93450 0.39580 0.57710 -0.02100
H 	H 	0.84560 0.27150 0.38410 0.15300
H 	H 	0.17710 0.10220 0.43140 0.14100
H 	H 	0.26870 0.22690 0.61970 -0.02600
H 	H 	0.92040 0.86100 0.16460 0.07300
H 	H 	0.32050 0.99700 0.03810 0.02500
H 	H 	0.19590 0.28810 0.22070 0.04400
C 	C 	0.82430 0.58830 0.26000 0.36100
C 	C 	0.88590 0.67260 0.38040 -0.21100
C 	C 	0.01510 0.66160 0.45240 0.16200
C 	C 	0.06880 0.73660 0.56810 -0.29200
C 	C 	0.99650 0.82120 0.61120 0.29700
C 	C 	0.87000 0.83710 0.53960 -0.30100
C 	C 	0.81640 0.76320 0.42730 0.17900
C 	C 	0.95290 0.92130 0.79210 0.14400
C 	C 	0.98880 0.06410 0.84440 -0.07200
C 	C 	0.88800 0.09330 0.90990 -0.12100
C 	C 	0.75040 0.98170 0.92210 0.04300
C 	C 	0.72020 0.83800 0.87420 -0.11200
C 	C 	0.82290 0.80790 0.81000 -0.07300
C 	C 	0.92240 0.24700 0.96730 0.47100
C 	C 	0.57990 0.71800 0.89760 0.40700
C 	C 	0.17570 0.41170 0.74000 0.36100
C 	C 	0.11410 0.32740 0.61960 -0.21100
C 	C 	0.98490 0.33840 0.54760 0.16200
C 	C 	0.93120 0.26340 0.43190 -0.29200
C 	C 	0.00350 0.17880 0.38880 0.29700
C 	C 	0.13000 0.16290 0.46040 -0.30100
C 	C 	0.18360 0.23680 0.57270 0.17900
C 	C 	0.04710 0.07870 0.20790 0.14400
C 	C 	0.01120 0.93590 0.15560 -0.07200
C 	C 	0.11200 0.90670 0.09010 -0.12100
C 	C 	0.24960 0.01830 0.07790 0.04300
C 	C 	0.27980 0.16200 0.12580 -0.11200
C 	C 	0.17710 0.19210 0.19000 -0.07300
C 	C 	0.07760 0.75300 0.03270 0.47100
C 	C 	0.42010 0.28200 0.10240 0.40700
O 	O 	0.71520 0.61020 0.19200 -0.42800
O 	O 	0.87940 0.49700 0.22260 -0.39600
O 	O 	0.81740 0.27070 0.01070 -0.52400
O 	O 	0.05500 0.34100 0.96820 -0.53600
O 	O 	0.45290 0.73810 0.88880 -0.44100
O 	O 	0.58990 0.60050 0.92550 -0.56500
O 	O 	0.05630 0.89490 0.72620 -0.26900
O 	O 	0.28480 0.38980 0.80800 -0.42800
O 	O 	0.12060 0.50300 0.77740 -0.39600
O 	O 	0.18260 0.72930 0.98930 -0.52400
O 	O 	0.94500 0.65900 0.03180 -0.53600
O 	O 	0.54710 0.26190 0.11120 -0.44100
O 	O 	0.41010 0.39950 0.07450 -0.56500
O 	O 	0.94370 0.10510 0.27380 -0.26900
