data_crystal

_cell_length_a 9.33100
_cell_length_b 9.84100
_cell_length_c 11.42300
_cell_angle_alpha 94.22400
_cell_angle_beta  98.51000
_cell_angle_gamma 110.95200

_symmetry_space_group_name_	'P 1'
_symmetry_space_group_name_H-M	'P 1'

loop_
_symmetry_equiv_pos_as_xyz
  x,y,z

loop_
_atom_site_label
_atom_site_type_symbol
_atom_site_fract_x
_atom_site_fract_y
_atom_site_fract_z
_atom_site_charge
Gd	Gd	0.28115 0.54561 0.98540 1.53300
Gd	Gd	0.71885 0.45439 0.01460 1.53300
H 	H 	0.68140 0.00230 0.96220 0.04000
H 	H 	0.80500 0.71240 0.77890 0.06200
H 	H 	0.08110 0.13930 0.83680 0.08600
H 	H 	0.82350 0.89910 0.56820 0.13800
H 	H 	0.73030 0.77310 0.38110 -0.01800
H 	H 	0.06300 0.60220 0.42170 -0.01000
H 	H 	0.15550 0.72580 0.61540 0.14900
H 	H 	0.31860 0.99770 0.03780 0.04100
H 	H 	0.19500 0.28760 0.22110 0.06300
H 	H 	0.91890 0.86070 0.16320 0.08600
H 	H 	0.17650 0.10090 0.43180 0.13800
H 	H 	0.26970 0.22690 0.61890 -0.01800
H 	H 	0.93700 0.39780 0.57830 -0.01000
H 	H 	0.84450 0.27420 0.38460 0.14900
C 	C 	0.92360 0.24750 0.96670 0.42600
C 	C 	0.88850 0.09370 0.91050 -0.08900
C 	C 	0.75270 0.98160 0.92220 0.01600
C 	C 	0.72270 0.83820 0.87440 -0.07500
C 	C 	0.82420 0.80860 0.80990 -0.10000
C 	C 	0.95400 0.92150 0.79130 0.16500
C 	C 	0.98970 0.06420 0.84500 -0.09500
C 	C 	0.58090 0.71710 0.89690 0.36500
C 	C 	0.99710 0.82180 0.61130 0.28400
C 	C 	0.87020 0.83770 0.53920 -0.28700
C 	C 	0.81610 0.76340 0.42730 0.16900
C 	C 	0.88430 0.67260 0.37850 -0.19900
C 	C 	0.01390 0.66070 0.45160 0.14400
C 	C 	0.07020 0.73500 0.56810 -0.26900
C 	C 	0.82350 0.58690 0.25920 0.35600
C 	C 	0.07640 0.75250 0.03330 0.42600
C 	C 	0.11150 0.90630 0.08950 -0.08900
C 	C 	0.24730 0.01840 0.07780 0.01600
C 	C 	0.27730 0.16180 0.12560 -0.07500
C 	C 	0.17580 0.19140 0.19010 -0.10000
C 	C 	0.04600 0.07850 0.20870 0.16500
C 	C 	0.01030 0.93580 0.15500 -0.09500
C 	C 	0.41910 0.28290 0.10310 0.36500
C 	C 	0.00290 0.17820 0.38870 0.28400
C 	C 	0.12980 0.16230 0.46080 -0.28700
C 	C 	0.18390 0.23660 0.57270 0.16900
C 	C 	0.11570 0.32740 0.62150 -0.19900
C 	C 	0.98610 0.33930 0.54840 0.14400
C 	C 	0.92980 0.26500 0.43190 -0.26900
C 	C 	0.17650 0.41310 0.74080 0.35600
O 	O 	0.05420 0.34230 0.96810 -0.46700
O 	O 	0.81800 0.27080 0.01130 -0.44900
O 	O 	0.45290 0.73620 0.89000 -0.38700
O 	O 	0.59370 0.60010 0.92600 -0.48000
O 	O 	0.71540 0.60960 0.19160 -0.38300
O 	O 	0.87670 0.49440 0.22170 -0.35800
O 	O 	0.05730 0.89500 0.72570 -0.26800
O 	O 	0.94580 0.65770 0.03190 -0.46700
O 	O 	0.18200 0.72920 0.98870 -0.44900
O 	O 	0.54710 0.26380 0.11000 -0.38700
O 	O 	0.40630 0.39990 0.07400 -0.48000
O 	O 	0.28460 0.39040 0.80840 -0.38300
O 	O 	0.12330 0.50560 0.77830 -0.35800
O 	O 	0.94270 0.10500 0.27430 -0.26800
