data_crystal

_cell_length_a 9.37000
_cell_length_b 9.90200
_cell_length_c 11.42900
_cell_angle_alpha 93.94200
_cell_angle_beta  98.07500
_cell_angle_gamma 110.69200

_symmetry_space_group_name_	'P 1'
_symmetry_space_group_name_H-M	'P 1'

loop_
_symmetry_equiv_pos_as_xyz
  x,y,z

loop_
_atom_site_label
_atom_site_type_symbol
_atom_site_fract_x
_atom_site_fract_y
_atom_site_fract_z
_atom_site_charge
Nd	Nd	0.71605 0.45412 0.01559 2.12400
Nd	Nd	0.28395 0.54588 0.98441 2.12400
H 	H 	0.06260 0.60350 0.42460 -0.02300
H 	H 	0.08150 0.13690 0.83500 0.06400
H 	H 	0.82660 0.90220 0.56950 0.13900
H 	H 	0.73450 0.77670 0.38250 -0.02900
H 	H 	0.80380 0.71430 0.77920 0.03000
H 	H 	0.68180 0.00470 0.96220 0.01200
H 	H 	0.15350 0.72700 0.61550 0.15000
H 	H 	0.93740 0.39650 0.57540 -0.02300
H 	H 	0.91850 0.86310 0.16500 0.06400
H 	H 	0.17340 0.09780 0.43050 0.13900
H 	H 	0.26550 0.22330 0.61750 -0.02900
H 	H 	0.19620 0.28570 0.22080 0.03000
H 	H 	0.31820 0.99530 0.03780 0.01200
H 	H 	0.84650 0.27300 0.38450 0.15000
C 	C 	0.01340 0.66180 0.45420 0.16200
C 	C 	0.99610 0.82150 0.61140 0.29300
C 	C 	0.99050 0.06340 0.84410 -0.05900
C 	C 	0.95380 0.92280 0.79230 0.13100
C 	C 	0.92560 0.24540 0.96780 0.49700
C 	C 	0.87200 0.84000 0.54080 -0.30200
C 	C 	0.88870 0.09360 0.91060 -0.14700
C 	C 	0.81840 0.76560 0.42910 0.17900
C 	C 	0.88510 0.67330 0.38220 -0.21600
C 	C 	0.82310 0.80960 0.81030 -0.05600
C 	C 	0.75270 0.98330 0.92240 0.06400
C 	C 	0.72190 0.84090 0.87520 -0.13100
C 	C 	0.57880 0.72360 0.89700 0.41400
C 	C 	0.06840 0.73580 0.56860 -0.29100
C 	C 	0.82340 0.58900 0.26280 0.36900
C 	C 	0.98660 0.33820 0.54580 0.16200
C 	C 	0.00390 0.17850 0.38860 0.29300
C 	C 	0.00950 0.93660 0.15590 -0.05900
C 	C 	0.04620 0.07720 0.20770 0.13100
C 	C 	0.07440 0.75460 0.03220 0.49700
C 	C 	0.12800 0.16000 0.45920 -0.30200
C 	C 	0.11130 0.90640 0.08940 -0.14700
C 	C 	0.18160 0.23440 0.57090 0.17900
C 	C 	0.11490 0.32670 0.61780 -0.21600
C 	C 	0.17690 0.19040 0.18970 -0.05600
C 	C 	0.24730 0.01670 0.07760 0.06400
C 	C 	0.27810 0.15910 0.12480 -0.13100
C 	C 	0.42120 0.27640 0.10300 0.41400
C 	C 	0.93160 0.26420 0.43140 -0.29100
C 	C 	0.17660 0.41100 0.73720 0.36900
O 	O 	0.71310 0.60920 0.19640 -0.45900
O 	O 	0.05570 0.89380 0.72590 -0.26900
O 	O 	0.82100 0.27020 0.01290 -0.56000
O 	O 	0.05630 0.33830 0.96730 -0.58000
O 	O 	0.87800 0.49780 0.22520 -0.42300
O 	O 	0.58530 0.60450 0.92560 -0.61400
O 	O 	0.45450 0.74590 0.88770 -0.46900
O 	O 	0.28690 0.39080 0.80360 -0.45900
O 	O 	0.94430 0.10620 0.27410 -0.26900
O 	O 	0.17900 0.72980 0.98710 -0.56000
O 	O 	0.94370 0.66170 0.03270 -0.58000
O 	O 	0.12200 0.50220 0.77480 -0.42300
O 	O 	0.41470 0.39550 0.07440 -0.61400
O 	O 	0.54550 0.25410 0.11230 -0.46900
