data_crystal

_cell_length_a 9.34100
_cell_length_b 9.81300
_cell_length_c 11.39500
_cell_angle_alpha 94.24700
_cell_angle_beta  99.08700
_cell_angle_gamma 111.25900

_symmetry_space_group_name_	'P 1'
_symmetry_space_group_name_H-M	'P 1'

loop_
_symmetry_equiv_pos_as_xyz
  x,y,z

loop_
_atom_site_label
_atom_site_type_symbol
_atom_site_fract_x
_atom_site_fract_y
_atom_site_fract_z
_atom_site_charge
Dy	Dy	0.22185 0.45483 0.01271 1.77100
Dy	Dy	0.77815 0.54517 0.98729 1.77100
H 	H 	0.56750 0.60720 0.42150 -0.02000
H 	H 	0.65420 0.72720 0.61760 0.15500
H 	H 	0.32060 0.89690 0.56670 0.14300
H 	H 	0.23080 0.77310 0.37720 -0.02800
H 	H 	0.30300 0.70980 0.77650 0.05200
H 	H 	0.17760 0.99880 0.96060 0.03200
H 	H 	0.58020 0.14050 0.83720 0.07900
H 	H 	0.43250 0.39280 0.57850 -0.01900
H 	H 	0.34580 0.27280 0.38240 0.15600
H 	H 	0.67940 0.10310 0.43330 0.14400
H 	H 	0.76920 0.22690 0.62280 -0.02700
H 	H 	0.69700 0.29020 0.22350 0.05200
H 	H 	0.82240 0.00120 0.03940 0.03200
H 	H 	0.41980 0.85950 0.16280 0.07900
C 	C 	0.32430 0.58830 0.25580 0.37000
C 	C 	0.38440 0.67150 0.37660 -0.21500
C 	C 	0.51560 0.66290 0.45130 0.16300
C 	C 	0.56930 0.73610 0.56880 -0.29500
C 	C 	0.49520 0.82120 0.61130 0.30600
C 	C 	0.36830 0.83660 0.53790 -0.30700
C 	C 	0.31580 0.76290 0.42490 0.18500
C 	C 	0.45130 0.92180 0.79270 0.15700
C 	C 	0.32200 0.80610 0.80870 -0.08200
C 	C 	0.22040 0.83540 0.87370 -0.10300
C 	C 	0.24930 0.97890 0.92120 0.03900
C 	C 	0.38480 0.09310 0.91010 -0.11500
C 	C 	0.48860 0.06490 0.84500 -0.08200
C 	C 	0.08040 0.71140 0.89700 0.41300
C 	C 	0.42120 0.24730 0.96840 0.47300
C 	C 	0.67570 0.41170 0.74420 0.37000
C 	C 	0.61560 0.32850 0.62340 -0.21500
C 	C 	0.48440 0.33710 0.54870 0.16300
C 	C 	0.43070 0.26390 0.43120 -0.29500
C 	C 	0.50480 0.17880 0.38870 0.30600
C 	C 	0.63170 0.16340 0.46210 -0.30700
C 	C 	0.68420 0.23710 0.57510 0.18500
C 	C 	0.54870 0.07820 0.20730 0.15700
C 	C 	0.67800 0.19390 0.19130 -0.08200
C 	C 	0.77960 0.16460 0.12630 -0.10300
C 	C 	0.75070 0.02110 0.07880 0.03900
C 	C 	0.61520 0.90690 0.08990 -0.11500
C 	C 	0.51140 0.93510 0.15500 -0.08200
C 	C 	0.91960 0.28860 0.10300 0.41300
C 	C 	0.57880 0.75270 0.03160 0.47300
O 	O 	0.37870 0.49520 0.21900 -0.38600
O 	O 	0.21840 0.61010 0.18550 -0.42200
O 	O 	0.09640 0.59540 0.92430 -0.53600
O 	O 	0.95320 0.72940 0.89210 -0.43600
O 	O 	0.55210 0.34450 0.96970 -0.52700
O 	O 	0.31300 0.26900 0.00980 -0.50900
O 	O 	0.55580 0.89490 0.72650 -0.27700
O 	O 	0.62130 0.50480 0.78100 -0.38600
O 	O 	0.78160 0.38990 0.81450 -0.42200
O 	O 	0.90360 0.40460 0.07570 -0.53600
O 	O 	0.04680 0.27060 0.10790 -0.43600
O 	O 	0.44790 0.65550 0.03030 -0.52700
O 	O 	0.68700 0.73100 0.99020 -0.50900
O 	O 	0.44420 0.10510 0.27350 -0.27700
