data_crystal

_cell_length_a 9.35600
_cell_length_b 9.79600
_cell_length_c 11.41500
_cell_angle_alpha 94.79900
_cell_angle_beta  99.61400
_cell_angle_gamma 111.73800

_symmetry_space_group_name_	'P 1'
_symmetry_space_group_name_H-M	'P 1'

loop_
_symmetry_equiv_pos_as_xyz
  x,y,z

loop_
_atom_site_label
_atom_site_type_symbol
_atom_site_fract_x
_atom_site_fract_y
_atom_site_fract_z
_atom_site_charge
Tm	Tm	0.72515 0.45516 0.01024 1.53300
Tm	Tm	0.27485 0.54484 0.98976 1.53300
H 	H 	0.06490 0.60500 0.42070 -0.01200
H 	H 	0.14820 0.72250 0.61880 0.15400
H 	H 	0.82000 0.89600 0.56580 0.14100
H 	H 	0.72860 0.77110 0.37450 -0.01800
H 	H 	0.80070 0.70500 0.77490 0.07200
H 	H 	0.67600 0.99440 0.96100 0.05300
H 	H 	0.07520 0.14250 0.83580 0.09500
H 	H 	0.93510 0.39500 0.57930 -0.01200
H 	H 	0.85180 0.27750 0.38120 0.15400
H 	H 	0.18000 0.10400 0.43420 0.14100
H 	H 	0.27140 0.22890 0.62550 -0.01800
H 	H 	0.19930 0.29500 0.22510 0.07200
H 	H 	0.32400 0.00560 0.03900 0.05300
H 	H 	0.92480 0.85750 0.16420 0.09500
C 	C 	0.82650 0.58920 0.25180 0.35100
C 	C 	0.88390 0.67130 0.37370 -0.20400
C 	C 	0.01330 0.66090 0.45010 0.15500
C 	C 	0.06500 0.73290 0.56860 -0.27900
C 	C 	0.99240 0.81920 0.61070 0.28900
C 	C 	0.86690 0.83530 0.53680 -0.29300
C 	C 	0.81400 0.76170 0.42250 0.17300
C 	C 	0.94900 0.91930 0.79280 0.17700
C 	C 	0.82000 0.80180 0.80780 -0.11700
C 	C 	0.71820 0.83070 0.87360 -0.06100
C 	C 	0.74740 0.97540 0.92140 -0.00300
C 	C 	0.88130 0.09120 0.91100 -0.06200
C 	C 	0.98510 0.06480 0.84470 -0.11200
C 	C 	0.58160 0.70480 0.89800 0.35800
C 	C 	0.91730 0.24690 0.96730 0.37800
C 	C 	0.17350 0.41080 0.74820 0.35100
C 	C 	0.11610 0.32870 0.62630 -0.20400
C 	C 	0.98670 0.33910 0.54990 0.15500
C 	C 	0.93500 0.26710 0.43140 -0.27900
C 	C 	0.00760 0.18080 0.38930 0.28900
C 	C 	0.13310 0.16470 0.46320 -0.29300
C 	C 	0.18600 0.23830 0.57750 0.17300
C 	C 	0.05100 0.08070 0.20720 0.17700
C 	C 	0.18000 0.19820 0.19220 -0.11700
C 	C 	0.28180 0.16930 0.12640 -0.06100
C 	C 	0.25260 0.02460 0.07860 -0.00300
C 	C 	0.11870 0.90880 0.08900 -0.06200
C 	C 	0.01490 0.93520 0.15530 -0.11200
C 	C 	0.41840 0.29520 0.10200 0.35800
C 	C 	0.08270 0.75310 0.03270 0.37800
O 	O 	0.87930 0.49620 0.21520 -0.36300
O 	O 	0.72100 0.61290 0.18000 -0.38200
O 	O 	0.60170 0.58970 0.92160 -0.47500
O 	O 	0.45320 0.72000 0.89660 -0.39000
O 	O 	0.80730 0.26790 0.00610 -0.43600
O 	O 	0.04950 0.34580 0.97140 -0.45500
O 	O 	0.05430 0.89420 0.72850 -0.26700
O 	O 	0.12070 0.50380 0.78480 -0.36300
O 	O 	0.27900 0.38710 0.82000 -0.38200
O 	O 	0.39830 0.41030 0.07840 -0.47500
O 	O 	0.54680 0.28000 0.10340 -0.39000
O 	O 	0.19270 0.73210 0.99390 -0.43600
O 	O 	0.95050 0.65420 0.02860 -0.45500
O 	O 	0.94570 0.10580 0.27150 -0.26700
