data_crystal

_cell_length_a 8.13000
_cell_length_b 22.35800
_cell_length_c 10.53800
_cell_angle_alpha 90.00000
_cell_angle_beta  112.35700
_cell_angle_gamma 90.00000

_symmetry_space_group_name_	'P 1'
_symmetry_space_group_name_H-M	'P 1'

loop_
_symmetry_equiv_pos_as_xyz
  x,y,z

loop_
_atom_site_label
_atom_site_type_symbol
_atom_site_fract_x
_atom_site_fract_y
_atom_site_fract_z
_atom_site_charge
Zn	Zn	0.84223 0.19393 0.41381 1.22900
Zn	Zn	0.28353 0.03194 0.33221 1.23500
Cl	Cl	0.30358 0.97535 0.15615 -0.49100
P 	P 	0.00350 0.14788 0.20862 0.48100
P 	P 	0.69687 0.07216 0.46679 0.45900
P 	P 	0.48756 0.22974 0.19198 0.48800
O 	O 	0.10030 0.08990 0.24960 -0.44300
O 	O 	0.04820 0.18120 0.09890 -0.24100
O 	O 	0.02950 0.18758 0.33270 -0.39300
O 	O 	0.78720 0.01704 0.54670 -0.43600
O 	O 	0.79090 0.13018 0.53140 -0.37600
O 	O 	0.49930 0.07634 0.44410 -0.44200
O 	O 	0.31010 0.24580 0.20450 -0.43500
H 	H 	0.23490 0.22060 0.16410 0.30100
O 	O 	0.63540 0.24919 0.32540 -0.38700
O 	O 	0.50160 0.25526 0.06550 -0.41300
N 	N 	0.69030 0.12899 0.23860 -0.08000
C 	C 	0.76460 0.13410 0.13110 -0.31900
H 	H 	0.70670 0.16670 0.06950 0.15800
H 	H 	0.74210 0.09750 0.07790 0.17700
C 	C 	0.71820 0.06870 0.30130 -0.31500
H 	H 	0.83560 0.05420 0.31320 0.13800
H 	H 	0.63090 0.04110 0.24140 0.14500
C 	C 	0.50060 0.14840 0.18650 -0.30300
H 	H 	0.43990 0.13460 0.09300 0.14400
H 	H 	0.44200 0.13090 0.24250 0.11600
Zn	Zn	0.65777 0.69393 0.08619 1.23100
Zn	Zn	0.21647 0.53194 0.16779 1.23600
Cl	Cl	0.19642 0.47535 0.34385 -0.48900
P 	P 	0.49650 0.64788 0.29138 0.47800
P 	P 	0.80313 0.57216 0.03321 0.45600
P 	P 	0.01244 0.72974 0.30802 0.47600
O 	O 	0.39970 0.58990 0.25040 -0.44300
O 	O 	0.45180 0.68120 0.40110 -0.24400
O 	O 	0.47050 0.68758 0.16730 -0.39600
O 	O 	0.71280 0.51704 0.95330 -0.43400
O 	O 	0.70910 0.63018 0.96860 -0.37200
O 	O 	0.00070 0.57634 0.05590 -0.44200
O 	O 	0.18990 0.74580 0.29550 -0.43400
H 	H 	0.26510 0.72060 0.33590 0.30000
O 	O 	0.86460 0.74919 0.17460 -0.38200
O 	O 	0.99840 0.75526 0.43450 -0.40700
N 	N 	0.80970 0.62899 0.26140 -0.08200
C 	C 	0.73540 0.63410 0.36890 -0.31300
H 	H 	0.79330 0.66670 0.43050 0.15800
H 	H 	0.75790 0.59750 0.42210 0.17600
C 	C 	0.78180 0.56870 0.19870 -0.31400
H 	H 	0.66440 0.55420 0.18680 0.13800
H 	H 	0.86910 0.54110 0.25860 0.14500
C 	C 	0.99940 0.64840 0.31350 -0.28400
H 	H 	0.06010 0.63460 0.40700 0.13500
H 	H 	0.05800 0.63090 0.25750 0.10800
Zn	Zn	0.15777 0.80607 0.58619 1.23000
Zn	Zn	0.71647 0.96806 0.66779 1.23600
Cl	Cl	0.69642 0.02465 0.84385 -0.49000
P 	P 	0.99650 0.85212 0.79138 0.48200
P 	P 	0.30313 0.92784 0.53321 0.45900
P 	P 	0.51244 0.77026 0.80802 0.48800
O 	O 	0.89970 0.91010 0.75040 -0.44300
O 	O 	0.95180 0.81880 0.90110 -0.24100
O 	O 	0.97050 0.81242 0.66730 -0.39300
O 	O 	0.21280 0.98296 0.45330 -0.43600
O 	O 	0.20910 0.86982 0.46860 -0.37600
O 	O 	0.50070 0.92366 0.55590 -0.44200
O 	O 	0.68990 0.75420 0.79550 -0.43500
H 	H 	0.76510 0.77940 0.83590 0.30100
O 	O 	0.36460 0.75081 0.67460 -0.38700
O 	O 	0.49840 0.74474 0.93450 -0.41300
N 	N 	0.30970 0.87101 0.76140 -0.08000
C 	C 	0.23540 0.86590 0.86890 -0.31900
H 	H 	0.29330 0.83330 0.93050 0.15800
H 	H 	0.25790 0.90250 0.92210 0.17700
C 	C 	0.28180 0.93130 0.69870 -0.31500
H 	H 	0.16440 0.94580 0.68680 0.13800
H 	H 	0.36910 0.95890 0.75860 0.14500
C 	C 	0.49940 0.85160 0.81350 -0.30300
H 	H 	0.56010 0.86540 0.90700 0.14400
H 	H 	0.55800 0.86910 0.75750 0.11600
Zn	Zn	0.34223 0.30607 0.91381 1.23100
Zn	Zn	0.78353 0.46806 0.83221 1.23600
Cl	Cl	0.80358 0.52465 0.65615 -0.48900
P 	P 	0.50350 0.35212 0.70862 0.47800
P 	P 	0.19687 0.42784 0.96679 0.45600
P 	P 	0.98756 0.27026 0.69198 0.47600
O 	O 	0.60030 0.41010 0.74960 -0.44300
O 	O 	0.54820 0.31880 0.59890 -0.24400
O 	O 	0.52950 0.31242 0.83270 -0.39600
O 	O 	0.28720 0.48296 0.04670 -0.43400
O 	O 	0.29090 0.36982 0.03140 -0.37200
O 	O 	0.99930 0.42366 0.94410 -0.44200
O 	O 	0.81010 0.25420 0.70450 -0.43400
H 	H 	0.73490 0.27940 0.66410 0.30000
O 	O 	0.13540 0.25081 0.82540 -0.38200
O 	O 	0.00160 0.24474 0.56550 -0.40700
N 	N 	0.19030 0.37101 0.73860 -0.08200
C 	C 	0.26460 0.36590 0.63110 -0.31300
H 	H 	0.20670 0.33330 0.56950 0.15800
H 	H 	0.24210 0.40250 0.57790 0.17600
C 	C 	0.21820 0.43130 0.80130 -0.31400
H 	H 	0.33560 0.44580 0.81320 0.13800
H 	H 	0.13090 0.45890 0.74140 0.14500
C 	C 	0.00060 0.35160 0.68650 -0.28400
H 	H 	0.93990 0.36540 0.59300 0.13500
H 	H 	0.94200 0.36910 0.74250 0.10800
