data_crystal

_cell_length_a 26.86700
_cell_length_b 20.08400
_cell_length_c 13.09900
_cell_angle_alpha 90.00000
_cell_angle_beta  90.00000
_cell_angle_gamma 90.00000

_symmetry_space_group_name_	'P 1'
_symmetry_space_group_name_H-M	'P 1'

loop_
_symmetry_equiv_pos_as_xyz
  x,y,z

loop_
_atom_site_label
_atom_site_type_symbol
_atom_site_fract_x
_atom_site_fract_y
_atom_site_fract_z
_atom_site_charge
W 	W 	0.65363 0.16622 0.52874 1.02000
W 	W 	0.76624 0.16667 0.36822 1.26900
W 	W 	0.86864 0.34216 0.68514 0.99200
W 	W 	0.76589 0.07493 0.61145 1.30000
W 	W 	0.76670 0.15837 0.83299 1.31000
Co	Co	0.74025 0.89045 0.60690 1.15900
O 	O 	0.83720 0.18370 0.35950 -0.45400
O 	O 	0.62690 0.18280 0.66320 -0.42900
O 	O 	0.70100 0.18500 0.79920 -0.48200
O 	O 	0.75570 0.07800 0.75680 -0.45700
O 	O 	0.87620 0.31740 0.54380 -0.45600
O 	O 	0.75940 0.11320 0.26760 -0.53200
O 	O 	0.69920 0.10600 0.59530 -0.47400
O 	O 	0.77840 0.10600 0.47720 -0.49500
O 	O 	0.78330 0.31580 0.66200 -0.73000
O 	O 	0.83710 0.35490 0.81460 -0.45300
O 	O 	0.69940 0.17060 0.41960 -0.48600
O 	O 	0.83640 0.42180 0.63840 -0.44000
O 	O 	0.75790 0.99120 0.59330 -0.51400
N 	N 	0.81970 0.87760 0.61140 -0.22000
N 	N 	0.90030 0.88410 0.65380 -0.14100
N 	N 	0.08010 0.92960 0.85980 -0.12800
C 	C 	0.02760 0.85850 0.75600 -0.06100
H 	H 	0.05270 0.82680 0.75060 0.04100
C 	C 	0.09010 0.96890 0.94400 -0.00800
H 	H 	0.06720 0.99450 0.98040 0.02400
C 	C 	0.03520 0.91740 0.80980 0.07000
C 	C 	0.94460 0.89530 0.70730 0.10700
C 	C 	0.89510 0.84390 0.56240 -0.01500
H 	H 	0.92050 0.82270 0.52660 0.02400
C 	C 	0.84770 0.84350 0.54050 0.01500
H 	H 	0.83440 0.82250 0.48340 0.00900
C 	C 	0.85280 0.90230 0.67600 0.11100
H 	H 	0.84440 0.92930 0.73160 -0.00300
C 	C 	0.98000 0.84850 0.71100 -0.10300
H 	H 	0.97310 0.80710 0.68220 0.06000
C 	C 	0.95240 0.95660 0.75230 -0.10400
H 	H 	0.92880 0.99040 0.74750 0.06300
C 	C 	0.13810 0.96330 0.96470 0.01500
H 	H 	0.15460 0.98620 0.01630 0.01900
C 	C 	0.99710 0.96600 0.80600 -0.05200
H 	H 	0.00200 0.00600 0.83960 0.04200
C 	C 	0.12640 0.90060 0.83230 0.08100
H 	H 	0.13160 0.87330 0.77610 0.00500
N 	N 	0.16070 0.91800 0.89780 -0.21300
O 	O 	0.75900 0.12810 0.95390 -0.55600
W 	W 	0.84637 0.83378 0.02874 1.01200
W 	W 	0.73376 0.83333 0.86822 1.27000
W 	W 	0.63136 0.65784 0.18514 0.99200
W 	W 	0.73411 0.92507 0.11145 1.29300
W 	W 	0.73330 0.84163 0.33299 1.31000
Co	Co	0.75975 0.10955 0.10690 1.15900
O 	O 	0.66280 0.81630 0.85950 -0.45400
O 	O 	0.87310 0.81720 0.16320 -0.42800
O 	O 	0.79900 0.81500 0.29920 -0.48200
O 	O 	0.74430 0.92200 0.25680 -0.45600
O 	O 	0.62380 0.68260 0.04380 -0.45800
O 	O 	0.74060 0.88680 0.76760 -0.53200
O 	O 	0.80080 0.89400 0.09530 -0.47400
O 	O 	0.72160 0.89400 0.97720 -0.49100
O 	O 	0.71670 0.68420 0.16200 -0.73000
O 	O 	0.66290 0.64510 0.31460 -0.45300
O 	O 	0.80060 0.82940 0.91960 -0.48300
O 	O 	0.66360 0.57820 0.13840 -0.44100
O 	O 	0.74210 0.00880 0.09330 -0.51200
N 	N 	0.68030 0.12240 0.11140 -0.22000
N 	N 	0.59970 0.11590 0.15380 -0.14000
N 	N 	0.41990 0.07040 0.35980 -0.12900
C 	C 	0.47240 0.14150 0.25600 -0.06200
H 	H 	0.44730 0.17320 0.25060 0.04200
C 	C 	0.40990 0.03110 0.44400 -0.00700
H 	H 	0.43280 0.00550 0.48040 0.02400
C 	C 	0.46480 0.08260 0.30980 0.07600
C 	C 	0.55540 0.10470 0.20730 0.10400
C 	C 	0.60490 0.15610 0.06240 -0.01600
H 	H 	0.57950 0.17730 0.02660 0.02400
C 	C 	0.65230 0.15650 0.04050 0.01600
H 	H 	0.66560 0.17750 0.98340 0.00800
C 	C 	0.64720 0.09770 0.17600 0.11100
H 	H 	0.65560 0.07070 0.23160 -0.00300
C 	C 	0.52000 0.15150 0.21100 -0.10200
H 	H 	0.52690 0.19290 0.18220 0.06000
C 	C 	0.54760 0.04340 0.25230 -0.09700
H 	H 	0.57120 0.00960 0.24750 0.06000
C 	C 	0.36190 0.03670 0.46470 0.01400
H 	H 	0.34540 0.01380 0.51630 0.02000
C 	C 	0.50290 0.03400 0.30600 -0.06600
H 	H 	0.49800 0.99400 0.33960 0.04900
C 	C 	0.37360 0.09940 0.33230 0.08100
H 	H 	0.36840 0.12670 0.27610 0.00500
N 	N 	0.33930 0.08200 0.39780 -0.21300
O 	O 	0.74100 0.87190 0.45390 -0.55600
W 	W 	0.34637 0.66622 0.47126 1.02100
W 	W 	0.23376 0.66667 0.63178 1.27000
W 	W 	0.13136 0.84216 0.31486 0.99200
W 	W 	0.23411 0.57493 0.38855 1.30100
W 	W 	0.23330 0.65837 0.16701 1.31000
Co	Co	0.25975 0.39045 0.39310 1.15900
O 	O 	0.16280 0.68370 0.64050 -0.45400
O 	O 	0.37310 0.68280 0.33680 -0.42900
O 	O 	0.29900 0.68500 0.20080 -0.48200
O 	O 	0.24430 0.57800 0.24320 -0.45600
O 	O 	0.12380 0.81740 0.45620 -0.45600
O 	O 	0.24060 0.61320 0.73240 -0.53200
O 	O 	0.30080 0.60600 0.40470 -0.47400
O 	O 	0.22160 0.60600 0.52280 -0.49500
O 	O 	0.21670 0.81580 0.33800 -0.73000
O 	O 	0.16290 0.85490 0.18540 -0.45300
O 	O 	0.30060 0.67060 0.58040 -0.48600
O 	O 	0.16360 0.92180 0.36160 -0.44100
O 	O 	0.24210 0.49120 0.40670 -0.51400
N 	N 	0.18030 0.37760 0.38860 -0.22000
N 	N 	0.09970 0.38410 0.34620 -0.14000
N 	N 	0.91990 0.42960 0.14020 -0.13000
C 	C 	0.97240 0.35850 0.24400 -0.06300
H 	H 	0.94730 0.32680 0.24940 0.04200
C 	C 	0.90990 0.46890 0.05600 -0.00400
H 	H 	0.93280 0.49450 0.01960 0.02200
C 	C 	0.96480 0.41740 0.19020 0.07300
C 	C 	0.05540 0.39530 0.29270 0.10500
C 	C 	0.10490 0.34390 0.43760 -0.01500
H 	H 	0.07950 0.32270 0.47340 0.02400
C 	C 	0.15230 0.34350 0.45950 0.01500
H 	H 	0.16560 0.32250 0.51660 0.00900
C 	C 	0.14720 0.40230 0.32400 0.11100
H 	H 	0.15560 0.42930 0.26840 -0.00300
C 	C 	0.02000 0.34850 0.28900 -0.10000
H 	H 	0.02690 0.30710 0.31780 0.05900
C 	C 	0.04760 0.45660 0.24770 -0.09900
H 	H 	0.07120 0.49040 0.25250 0.06100
C 	C 	0.86190 0.46330 0.03530 0.00700
H 	H 	0.84540 0.48620 0.98370 0.02500
C 	C 	0.00290 0.46600 0.19400 -0.06000
H 	H 	0.99800 0.50600 0.16040 0.04600
C 	C 	0.87360 0.40060 0.16770 0.08100
H 	H 	0.86840 0.37330 0.22390 0.00500
N 	N 	0.83930 0.41800 0.10220 -0.21300
O 	O 	0.24100 0.62810 0.04610 -0.55500
W 	W 	0.15363 0.33378 0.97126 1.01400
W 	W 	0.26624 0.33333 0.13178 1.27000
W 	W 	0.36864 0.15784 0.81486 0.99100
W 	W 	0.26589 0.42507 0.88855 1.29800
W 	W 	0.26670 0.34163 0.66701 1.31000
Co	Co	0.24025 0.60955 0.89310 1.15900
O 	O 	0.33720 0.31630 0.14050 -0.45400
O 	O 	0.12690 0.31720 0.83680 -0.42800
O 	O 	0.20100 0.31500 0.70080 -0.48200
O 	O 	0.25570 0.42200 0.74320 -0.45600
O 	O 	0.37620 0.18260 0.95620 -0.45900
O 	O 	0.25940 0.38680 0.23240 -0.53200
O 	O 	0.19920 0.39400 0.90470 -0.47400
O 	O 	0.27840 0.39400 0.02280 -0.49300
O 	O 	0.28330 0.18420 0.83800 -0.73000
O 	O 	0.33710 0.14510 0.68540 -0.45300
O 	O 	0.19940 0.32940 0.08040 -0.48300
O 	O 	0.33640 0.07820 0.86160 -0.44100
O 	O 	0.25790 0.50880 0.90670 -0.51400
N 	N 	0.31970 0.62240 0.88860 -0.22000
N 	N 	0.40030 0.61590 0.84620 -0.14000
N 	N 	0.58010 0.57040 0.64020 -0.13000
C 	C 	0.52760 0.64150 0.74400 -0.06300
H 	H 	0.55270 0.67320 0.74940 0.04200
C 	C 	0.59010 0.53110 0.55600 -0.00700
H 	H 	0.56720 0.50550 0.51960 0.02400
C 	C 	0.53520 0.58260 0.69020 0.07700
C 	C 	0.44460 0.60470 0.79270 0.10300
C 	C 	0.39510 0.65610 0.93760 -0.01500
H 	H 	0.42050 0.67730 0.97340 0.02400
C 	C 	0.34770 0.65650 0.95950 0.01300
H 	H 	0.33440 0.67750 0.01660 0.01000
C 	C 	0.35280 0.59770 0.82400 0.11100
H 	H 	0.34440 0.57070 0.76840 -0.00300
C 	C 	0.48000 0.65150 0.78900 -0.10100
H 	H 	0.47310 0.69290 0.81780 0.05900
C 	C 	0.45240 0.54340 0.74770 -0.09500
H 	H 	0.42880 0.50960 0.75250 0.05900
C 	C 	0.63810 0.53670 0.53530 0.01400
H 	H 	0.65460 0.51380 0.48370 0.02000
C 	C 	0.49710 0.53400 0.69400 -0.06900
H 	H 	0.50200 0.49400 0.66040 0.05100
C 	C 	0.62640 0.59940 0.66770 0.08100
H 	H 	0.63160 0.62670 0.72390 0.00500
N 	N 	0.66070 0.58200 0.60220 -0.21300
O 	O 	0.25900 0.37190 0.54610 -0.55600
W 	W 	0.34637 0.83378 0.47126 1.02100
W 	W 	0.23376 0.83333 0.63178 1.27000
W 	W 	0.13136 0.65784 0.31486 0.99200
W 	W 	0.23411 0.92507 0.38855 1.30000
W 	W 	0.23330 0.84163 0.16701 1.31000
Co	Co	0.25975 0.10955 0.39310 1.15900
O 	O 	0.16280 0.81630 0.64050 -0.45400
O 	O 	0.37310 0.81720 0.33680 -0.42900
O 	O 	0.29900 0.81500 0.20080 -0.48200
O 	O 	0.24430 0.92200 0.24320 -0.45700
O 	O 	0.12380 0.68260 0.45620 -0.45600
O 	O 	0.24060 0.88680 0.73240 -0.53200
O 	O 	0.30080 0.89400 0.40470 -0.47400
O 	O 	0.22160 0.89400 0.52280 -0.49500
O 	O 	0.21670 0.68420 0.33800 -0.73000
O 	O 	0.16290 0.64510 0.18540 -0.45300
O 	O 	0.30060 0.82940 0.58040 -0.48600
O 	O 	0.16360 0.57820 0.36160 -0.44000
O 	O 	0.24210 0.00880 0.40670 -0.51400
N 	N 	0.18030 0.12240 0.38860 -0.22000
N 	N 	0.09970 0.11590 0.34620 -0.14100
N 	N 	0.91990 0.07040 0.14020 -0.12800
C 	C 	0.97240 0.14150 0.24400 -0.06100
H 	H 	0.94730 0.17320 0.24940 0.04100
C 	C 	0.90990 0.03110 0.05600 -0.00800
H 	H 	0.93280 0.00550 0.01960 0.02400
C 	C 	0.96480 0.08260 0.19020 0.07000
C 	C 	0.05540 0.10470 0.29270 0.10700
C 	C 	0.10490 0.15610 0.43760 -0.01500
H 	H 	0.07950 0.17730 0.47340 0.02400
C 	C 	0.15230 0.15650 0.45950 0.01500
H 	H 	0.16560 0.17750 0.51660 0.00900
C 	C 	0.14720 0.09770 0.32400 0.11100
H 	H 	0.15560 0.07070 0.26840 -0.00300
C 	C 	0.02000 0.15150 0.28900 -0.10300
H 	H 	0.02690 0.19290 0.31780 0.06000
C 	C 	0.04760 0.04340 0.24770 -0.10400
H 	H 	0.07120 0.00960 0.25250 0.06300
C 	C 	0.86190 0.03670 0.03530 0.01500
H 	H 	0.84540 0.01380 0.98370 0.01900
C 	C 	0.00290 0.03400 0.19400 -0.05200
H 	H 	0.99800 0.99400 0.16040 0.04200
C 	C 	0.87360 0.09940 0.16770 0.08100
H 	H 	0.86840 0.12670 0.22390 0.00500
N 	N 	0.83930 0.08200 0.10220 -0.21300
O 	O 	0.24100 0.87190 0.04610 -0.55600
W 	W 	0.15363 0.16622 0.97126 1.01200
W 	W 	0.26624 0.16667 0.13178 1.27000
W 	W 	0.36864 0.34216 0.81486 0.99200
W 	W 	0.26589 0.07493 0.88855 1.29300
W 	W 	0.26670 0.15837 0.66701 1.31000
Co	Co	0.24025 0.89045 0.89310 1.15900
O 	O 	0.33720 0.18370 0.14050 -0.45400
O 	O 	0.12690 0.18280 0.83680 -0.42800
O 	O 	0.20100 0.18500 0.70080 -0.48200
O 	O 	0.25570 0.07800 0.74320 -0.45600
O 	O 	0.37620 0.31740 0.95620 -0.45800
O 	O 	0.25940 0.11320 0.23240 -0.53200
O 	O 	0.19920 0.10600 0.90470 -0.47400
O 	O 	0.27840 0.10600 0.02280 -0.49100
O 	O 	0.28330 0.31580 0.83800 -0.73000
O 	O 	0.33710 0.35490 0.68540 -0.45300
O 	O 	0.19940 0.17060 0.08040 -0.48300
O 	O 	0.33640 0.42180 0.86160 -0.44100
O 	O 	0.25790 0.99120 0.90670 -0.51200
N 	N 	0.31970 0.87760 0.88860 -0.22000
N 	N 	0.40030 0.88410 0.84620 -0.14000
N 	N 	0.58010 0.92960 0.64020 -0.12900
C 	C 	0.52760 0.85850 0.74400 -0.06200
H 	H 	0.55270 0.82680 0.74940 0.04200
C 	C 	0.59010 0.96890 0.55600 -0.00700
H 	H 	0.56720 0.99450 0.51960 0.02400
C 	C 	0.53520 0.91740 0.69020 0.07600
C 	C 	0.44460 0.89530 0.79270 0.10400
C 	C 	0.39510 0.84390 0.93760 -0.01600
H 	H 	0.42050 0.82270 0.97340 0.02400
C 	C 	0.34770 0.84350 0.95950 0.01600
H 	H 	0.33440 0.82250 0.01660 0.00800
C 	C 	0.35280 0.90230 0.82400 0.11100
H 	H 	0.34440 0.92930 0.76840 -0.00300
C 	C 	0.48000 0.84850 0.78900 -0.10200
H 	H 	0.47310 0.80710 0.81780 0.06000
C 	C 	0.45240 0.95660 0.74770 -0.09700
H 	H 	0.42880 0.99040 0.75250 0.06000
C 	C 	0.63810 0.96330 0.53530 0.01400
H 	H 	0.65460 0.98620 0.48370 0.02000
C 	C 	0.49710 0.96600 0.69400 -0.06600
H 	H 	0.50200 0.00600 0.66040 0.04900
C 	C 	0.62640 0.90060 0.66770 0.08100
H 	H 	0.63160 0.87330 0.72390 0.00500
N 	N 	0.66070 0.91800 0.60220 -0.21300
O 	O 	0.25900 0.12810 0.54610 -0.55600
W 	W 	0.65363 0.33378 0.52874 1.02100
W 	W 	0.76624 0.33333 0.36822 1.27000
W 	W 	0.86864 0.15784 0.68514 0.99200
W 	W 	0.76589 0.42507 0.61145 1.30100
W 	W 	0.76670 0.34163 0.83299 1.31000
Co	Co	0.74025 0.60955 0.60690 1.15900
O 	O 	0.83720 0.31630 0.35950 -0.45400
O 	O 	0.62690 0.31720 0.66320 -0.42900
O 	O 	0.70100 0.31500 0.79920 -0.48200
O 	O 	0.75570 0.42200 0.75680 -0.45600
O 	O 	0.87620 0.18260 0.54380 -0.45600
O 	O 	0.75940 0.38680 0.26760 -0.53200
O 	O 	0.69920 0.39400 0.59530 -0.47400
O 	O 	0.77840 0.39400 0.47720 -0.49500
O 	O 	0.78330 0.18420 0.66200 -0.73000
O 	O 	0.83710 0.14510 0.81460 -0.45300
O 	O 	0.69940 0.32940 0.41960 -0.48600
O 	O 	0.83640 0.07820 0.63840 -0.44100
O 	O 	0.75790 0.50880 0.59330 -0.51400
N 	N 	0.81970 0.62240 0.61140 -0.22000
N 	N 	0.90030 0.61590 0.65380 -0.14000
N 	N 	0.08010 0.57040 0.85980 -0.13000
C 	C 	0.02760 0.64150 0.75600 -0.06300
H 	H 	0.05270 0.67320 0.75060 0.04200
C 	C 	0.09010 0.53110 0.94400 -0.00400
H 	H 	0.06720 0.50550 0.98040 0.02200
C 	C 	0.03520 0.58260 0.80980 0.07300
C 	C 	0.94460 0.60470 0.70730 0.10500
C 	C 	0.89510 0.65610 0.56240 -0.01500
H 	H 	0.92050 0.67730 0.52660 0.02400
C 	C 	0.84770 0.65650 0.54050 0.01500
H 	H 	0.83440 0.67750 0.48340 0.00900
C 	C 	0.85280 0.59770 0.67600 0.11100
H 	H 	0.84440 0.57070 0.73160 -0.00300
C 	C 	0.98000 0.65150 0.71100 -0.10000
H 	H 	0.97310 0.69290 0.68220 0.05900
C 	C 	0.95240 0.54340 0.75230 -0.09900
H 	H 	0.92880 0.50960 0.74750 0.06100
C 	C 	0.13810 0.53670 0.96470 0.00700
H 	H 	0.15460 0.51380 0.01630 0.02500
C 	C 	0.99710 0.53400 0.80600 -0.06000
H 	H 	0.00200 0.49400 0.83960 0.04600
C 	C 	0.12640 0.59940 0.83230 0.08100
H 	H 	0.13160 0.62670 0.77610 0.00500
N 	N 	0.16070 0.58200 0.89780 -0.21300
O 	O 	0.75900 0.37190 0.95390 -0.55500
W 	W 	0.84637 0.66622 0.02874 1.01400
W 	W 	0.73376 0.66667 0.86822 1.27000
W 	W 	0.63136 0.84216 0.18514 0.99100
W 	W 	0.73411 0.57493 0.11145 1.29800
W 	W 	0.73330 0.65837 0.33299 1.31000
Co	Co	0.75975 0.39045 0.10690 1.15900
O 	O 	0.66280 0.68370 0.85950 -0.45400
O 	O 	0.87310 0.68280 0.16320 -0.42800
O 	O 	0.79900 0.68500 0.29920 -0.48200
O 	O 	0.74430 0.57800 0.25680 -0.45600
O 	O 	0.62380 0.81740 0.04380 -0.45900
O 	O 	0.74060 0.61320 0.76760 -0.53200
O 	O 	0.80080 0.60600 0.09530 -0.47400
O 	O 	0.72160 0.60600 0.97720 -0.49300
O 	O 	0.71670 0.81580 0.16200 -0.73000
O 	O 	0.66290 0.85490 0.31460 -0.45300
O 	O 	0.80060 0.67060 0.91960 -0.48300
O 	O 	0.66360 0.92180 0.13840 -0.44100
O 	O 	0.74210 0.49120 0.09330 -0.51400
N 	N 	0.68030 0.37760 0.11140 -0.22000
N 	N 	0.59970 0.38410 0.15380 -0.14000
N 	N 	0.41990 0.42960 0.35980 -0.13000
C 	C 	0.47240 0.35850 0.25600 -0.06300
H 	H 	0.44730 0.32680 0.25060 0.04200
C 	C 	0.40990 0.46890 0.44400 -0.00700
H 	H 	0.43280 0.49450 0.48040 0.02400
C 	C 	0.46480 0.41740 0.30980 0.07700
C 	C 	0.55540 0.39530 0.20730 0.10300
C 	C 	0.60490 0.34390 0.06240 -0.01500
H 	H 	0.57950 0.32270 0.02660 0.02400
C 	C 	0.65230 0.34350 0.04050 0.01300
H 	H 	0.66560 0.32250 0.98340 0.01000
C 	C 	0.64720 0.40230 0.17600 0.11100
H 	H 	0.65560 0.42930 0.23160 -0.00300
C 	C 	0.52000 0.34850 0.21100 -0.10100
H 	H 	0.52690 0.30710 0.18220 0.05900
C 	C 	0.54760 0.45660 0.25230 -0.09500
H 	H 	0.57120 0.49040 0.24750 0.05900
C 	C 	0.36190 0.46330 0.46470 0.01400
H 	H 	0.34540 0.48620 0.51630 0.02000
C 	C 	0.50290 0.46600 0.30600 -0.06900
H 	H 	0.49800 0.50600 0.33960 0.05100
C 	C 	0.37360 0.40060 0.33230 0.08100
H 	H 	0.36840 0.37330 0.27610 0.00500
N 	N 	0.33930 0.41800 0.39780 -0.21300
O 	O 	0.74100 0.62810 0.45390 -0.55600
W 	W 	0.65380 0.25000 0.75134 1.00800
W 	W 	0.86842 0.25000 0.44110 1.00300
V 	V 	0.76358 0.25000 0.60340 1.86800
O 	O 	0.87610 0.25000 0.71930 -0.46500
O 	O 	0.75520 0.25000 0.29810 -0.50300
O 	O 	0.70210 0.25000 0.60300 -0.68100
O 	O 	0.62610 0.25000 0.48800 -0.43600
O 	O 	0.77890 0.25000 0.85820 -0.52900
O 	O 	0.78460 0.25000 0.48660 -0.72800
W 	W 	0.84620 0.75000 0.25134 1.00800
W 	W 	0.63158 0.75000 0.94110 1.00800
V 	V 	0.73642 0.75000 0.10340 1.86700
O 	O 	0.62390 0.75000 0.21930 -0.46500
O 	O 	0.74480 0.75000 0.79810 -0.50300
O 	O 	0.79790 0.75000 0.10300 -0.68100
O 	O 	0.87390 0.75000 0.98800 -0.43000
O 	O 	0.72110 0.75000 0.35820 -0.52900
O 	O 	0.71540 0.75000 0.98660 -0.72600
W 	W 	0.34620 0.75000 0.24866 1.00800
W 	W 	0.13158 0.75000 0.55890 1.00300
V 	V 	0.23642 0.75000 0.39660 1.86800
O 	O 	0.12390 0.75000 0.28070 -0.46500
O 	O 	0.24480 0.75000 0.70190 -0.50300
O 	O 	0.29790 0.75000 0.39700 -0.68100
O 	O 	0.37390 0.75000 0.51200 -0.43600
O 	O 	0.22110 0.75000 0.14180 -0.52900
O 	O 	0.21540 0.75000 0.51340 -0.72800
W 	W 	0.15380 0.25000 0.74866 1.00800
W 	W 	0.36842 0.25000 0.05890 1.00800
V 	V 	0.26358 0.25000 0.89660 1.86700
O 	O 	0.37610 0.25000 0.78070 -0.46500
O 	O 	0.25520 0.25000 0.20190 -0.50300
O 	O 	0.20210 0.25000 0.89700 -0.68100
O 	O 	0.12610 0.25000 0.01200 -0.43000
O 	O 	0.27890 0.25000 0.64180 -0.52900
O 	O 	0.28460 0.25000 0.01340 -0.72600
