data_crystal

_cell_length_a 11.46070
_cell_length_b 18.79560
_cell_length_c 22.72130
_cell_angle_alpha 90.00000
_cell_angle_beta  96.86300
_cell_angle_gamma 90.00000

_symmetry_space_group_name_	'P 1'
_symmetry_space_group_name_H-M	'P 1'

loop_
_symmetry_equiv_pos_as_xyz
  x,y,z

loop_
_atom_site_label
_atom_site_type_symbol
_atom_site_fract_x
_atom_site_fract_y
_atom_site_fract_z
_atom_site_charge
Cd	Cd	0.64678 0.02444 0.05696 1.21800
N 	N 	0.76170 0.07880 0.99111 -0.23000
N 	N 	0.52420 0.03960 0.61394 -0.24900
N 	N 	0.11660 0.56630 0.94400 -0.25200
C 	C 	0.75190 0.14760 0.97760 0.10900
H 	H 	0.69240 0.17360 0.99190 -0.00000
C 	C 	0.82550 0.18200 0.94320 -0.18000
H 	H 	0.81520 0.23020 0.93500 0.09600
C 	C 	0.91480 0.14480 0.92100 0.14200
C 	C 	0.92460 0.07500 0.93510 -0.19800
H 	H 	0.98400 0.04790 0.92170 0.12600
C 	C 	0.84790 0.04380 0.96890 0.12700
H 	H 	0.85620 0.99540 0.97690 -0.00600
C 	C 	0.99850 0.17780 0.88470 -0.05700
H 	H 	0.05800 0.14870 0.87390 0.03600
C 	C 	0.99790 0.24310 0.86630 -0.05200
H 	H 	0.93990 0.27270 0.87800 0.05300
C 	C 	0.08040 0.27480 0.82870 0.08700
C 	C 	0.08340 0.34700 0.82320 -0.15600
H 	H 	0.03430 0.37470 0.84370 0.06500
C 	C 	0.15740 0.38000 0.78820 0.07900
H 	H 	0.15900 0.42940 0.78600 -0.00800
C 	C 	0.22850 0.34050 0.75660 -0.17900
H 	H 	0.27700 0.36280 0.73220 0.08500
C 	C 	0.22780 0.26850 0.76100 0.11700
C 	C 	0.15330 0.23610 0.79740 -0.17100
H 	H 	0.15330 0.18680 0.80050 0.08600
C 	C 	0.30410 0.22770 0.72590 -0.08100
H 	H 	0.35950 0.25380 0.70840 0.05400
C 	C 	0.30390 0.15920 0.71630 -0.10400
H 	H 	0.24800 0.13290 0.73330 0.06600
C 	C 	0.38150 0.11930 0.68200 0.14700
C 	C 	0.36080 0.04890 0.66940 -0.19800
H 	H 	0.29760 0.02610 0.68340 0.10100
C 	C 	0.43220 0.01180 0.63630 0.11200
H 	H 	0.41550 0.96400 0.62900 -0.01700
C 	C 	0.54530 0.10730 0.62670 0.11000
H 	H 	0.60980 0.12850 0.61260 -0.01600
C 	C 	0.47740 0.14840 0.65980 -0.19400
H 	H 	0.49660 0.19600 0.66710 0.09900
C 	C 	0.12050 0.63590 0.94430 0.07400
H 	H 	0.07550 0.66180 0.96810 -0.00900
C 	C 	0.19820 0.67330 0.90560 -0.15200
H 	H 	0.20210 0.72270 0.90600 0.08400
C 	C 	0.26170 0.63650 0.87060 0.09700
C 	C 	0.25340 0.56710 0.87290 -0.18400
H 	H 	0.29630 0.53940 0.84920 0.09200
C 	C 	0.18360 0.53490 0.90910 0.10900
H 	H 	0.18330 0.48540 0.90910 -0.02300
C 	C 	0.34060 0.67380 0.83100 0.01300
H 	H 	0.38820 0.64410 0.81140 0.02400
C 	C 	0.34980 0.73580 0.82170 -0.22400
H 	H 	0.30140 0.76580 0.84050 0.11200
C 	C 	0.42710 0.76990 0.78460 0.27500
C 	C 	0.42930 0.84300 0.78380 -0.35300
H 	H 	0.38180 0.86870 0.80660 0.16100
C 	C 	0.20560 0.39610 0.03360 0.31600
C 	C 	0.26160 0.32330 0.03220 -0.08000
C 	C 	0.20860 0.27230 0.99630 -0.01700
H 	H 	0.13810 0.28240 0.97310 0.04600
C 	C 	0.25840 0.20490 0.99360 0.04100
H 	H 	0.22030 0.16970 0.96980 0.02900
C 	C 	0.36410 0.19110 0.02650 -0.14700
C 	C 	0.41670 0.24280 0.06170 0.02100
H 	H 	0.48840 0.23330 0.08410 0.03700
C 	C 	0.36700 0.30900 0.06530 -0.04600
H 	H 	0.40450 0.34370 0.08990 0.05700
C 	C 	0.42090 0.11900 0.02430 0.41700
C 	C 	0.82420 0.03270 0.14790 0.38500
C 	C 	0.91500 0.03280 0.20090 -0.24100
C 	C 	0.95970 0.97380 0.22540 0.22500
H 	H 	0.93540 0.93040 0.20840 -0.03500
C 	C 	0.95730 0.09510 0.22510 0.18900
H 	H 	0.92960 0.13800 0.20860 -0.01500
O 	O 	0.24890 0.43860 0.07170 -0.31300
O 	O 	0.11610 0.40610 0.99850 -0.42700
O 	O 	0.35850 0.06903 0.00317 -0.48900
O 	O 	0.52540 0.11564 0.04569 -0.47200
O 	O 	0.80760 0.97620 0.11937 -0.40000
O 	O 	0.76560 0.08620 0.13425 -0.40600
Cd	Cd	0.35322 0.02444 0.44304 1.22500
N 	N 	0.23830 0.07880 0.50889 -0.24200
N 	N 	0.47580 0.03960 0.88606 -0.24600
N 	N 	0.88340 0.56630 0.55600 -0.24600
C 	C 	0.24810 0.14760 0.52240 0.11400
H 	H 	0.30760 0.17360 0.50810 -0.01400
C 	C 	0.17450 0.18200 0.55680 -0.20700
H 	H 	0.18480 0.23020 0.56500 0.09800
C 	C 	0.08520 0.14480 0.57900 0.16900
C 	C 	0.07540 0.07500 0.56490 -0.22800
H 	H 	0.01600 0.04790 0.57830 0.10600
C 	C 	0.15210 0.04380 0.53110 0.12500
H 	H 	0.14380 0.99540 0.52310 -0.02300
C 	C 	0.00150 0.17780 0.61530 -0.16400
H 	H 	0.94200 0.14870 0.62610 0.11700
C 	C 	0.00210 0.24310 0.63370 -0.11500
H 	H 	0.06010 0.27270 0.62200 0.05600
C 	C 	0.91960 0.27480 0.67130 0.19700
C 	C 	0.91660 0.34700 0.67680 -0.22900
H 	H 	0.96570 0.37470 0.65630 0.11000
C 	C 	0.84260 0.38000 0.71180 0.15300
H 	H 	0.84100 0.42940 0.71400 -0.02400
C 	C 	0.77150 0.34050 0.74340 -0.23400
H 	H 	0.72300 0.36280 0.76780 0.10900
C 	C 	0.77220 0.26850 0.73900 0.17300
C 	C 	0.84670 0.23610 0.70260 -0.23800
H 	H 	0.84670 0.18680 0.69950 0.12100
C 	C 	0.69590 0.22770 0.77410 -0.11400
H 	H 	0.64050 0.25380 0.79160 0.06600
C 	C 	0.69610 0.15920 0.78370 -0.08300
H 	H 	0.75200 0.13290 0.76670 0.06200
C 	C 	0.61850 0.11930 0.81800 0.13800
C 	C 	0.63920 0.04890 0.83060 -0.19400
H 	H 	0.70240 0.02610 0.81660 0.10400
C 	C 	0.56780 0.01180 0.86370 0.11300
H 	H 	0.58450 0.96400 0.87100 -0.01600
C 	C 	0.45470 0.10730 0.87330 0.10900
H 	H 	0.39020 0.12850 0.88740 -0.01300
C 	C 	0.52260 0.14840 0.84020 -0.18800
H 	H 	0.50340 0.19600 0.83290 0.09800
C 	C 	0.87950 0.63590 0.55570 0.07700
H 	H 	0.92450 0.66180 0.53190 0.00100
C 	C 	0.80180 0.67330 0.59440 -0.14700
H 	H 	0.79790 0.72270 0.59400 0.08600
C 	C 	0.73830 0.63650 0.62940 0.09700
C 	C 	0.74660 0.56710 0.62710 -0.18100
H 	H 	0.70370 0.53940 0.65080 0.09300
C 	C 	0.81640 0.53490 0.59090 0.11100
H 	H 	0.81670 0.48540 0.59090 -0.02200
C 	C 	0.65940 0.67380 0.66900 0.02000
H 	H 	0.61180 0.64410 0.68860 0.02200
C 	C 	0.65020 0.73580 0.67830 -0.22700
H 	H 	0.69860 0.76580 0.65950 0.11800
C 	C 	0.57290 0.76990 0.71540 0.28000
C 	C 	0.57070 0.84300 0.71620 -0.35400
H 	H 	0.61820 0.86870 0.69340 0.16400
C 	C 	0.79440 0.39610 0.46640 0.34200
C 	C 	0.73840 0.32330 0.46780 -0.04900
C 	C 	0.79140 0.27230 0.50370 -0.04200
H 	H 	0.86190 0.28240 0.52690 0.06600
C 	C 	0.74160 0.20490 0.50640 0.01100
H 	H 	0.77970 0.16970 0.53020 0.04200
C 	C 	0.63590 0.19110 0.47350 -0.10800
C 	C 	0.58330 0.24280 0.43830 0.01300
H 	H 	0.51160 0.23330 0.41590 0.04200
C 	C 	0.63300 0.30900 0.43470 -0.04400
H 	H 	0.59550 0.34370 0.41010 0.06000
C 	C 	0.57910 0.11900 0.47570 0.40800
C 	C 	0.17580 0.03270 0.35210 0.25400
C 	C 	0.08500 0.03280 0.29910 0.09000
C 	C 	0.04030 0.97380 0.27460 -0.26200
H 	H 	0.06460 0.93040 0.29160 0.11600
C 	C 	0.04270 0.09510 0.27490 -0.23100
H 	H 	0.07040 0.13800 0.29140 0.11200
O 	O 	0.75110 0.43860 0.42830 -0.30200
O 	O 	0.88390 0.40610 0.50150 -0.43300
O 	O 	0.64150 0.06903 0.49683 -0.46800
O 	O 	0.47460 0.11564 0.45431 -0.46200
O 	O 	0.19240 0.97620 0.38063 -0.37300
O 	O 	0.23440 0.08620 0.36575 -0.37200
Cd	Cd	0.35322 0.97556 0.94304 1.23000
N 	N 	0.23830 0.92120 0.00889 -0.24900
N 	N 	0.47580 0.96040 0.38606 -0.24800
N 	N 	0.88340 0.43370 0.05600 -0.25000
C 	C 	0.24810 0.85240 0.02240 0.11400
H 	H 	0.30760 0.82640 0.00810 -0.02200
C 	C 	0.17450 0.81800 0.05680 -0.21300
H 	H 	0.18480 0.76980 0.06500 0.09600
C 	C 	0.08520 0.85520 0.07900 0.17200
C 	C 	0.07540 0.92500 0.06490 -0.23700
H 	H 	0.01600 0.95210 0.07830 0.10500
C 	C 	0.15210 0.95620 0.03110 0.13000
H 	H 	0.14380 0.00460 0.02310 -0.03400
C 	C 	0.00150 0.82220 0.11530 -0.17000
H 	H 	0.94200 0.85130 0.12610 0.12000
C 	C 	0.00210 0.75690 0.13370 -0.11200
H 	H 	0.06010 0.72730 0.12200 0.05400
C 	C 	0.91960 0.72520 0.17130 0.19500
C 	C 	0.91660 0.65300 0.17680 -0.22700
H 	H 	0.96570 0.62530 0.15630 0.10900
C 	C 	0.84260 0.62000 0.21180 0.15100
H 	H 	0.84100 0.57060 0.21400 -0.02400
C 	C 	0.77150 0.65950 0.24340 -0.23300
H 	H 	0.72300 0.63720 0.26780 0.10700
C 	C 	0.77220 0.73150 0.23900 0.17100
C 	C 	0.84670 0.76390 0.20260 -0.23700
H 	H 	0.84670 0.81320 0.19950 0.12100
C 	C 	0.69590 0.77230 0.27410 -0.11300
H 	H 	0.64050 0.74620 0.29160 0.06500
C 	C 	0.69610 0.84080 0.28370 -0.08300
H 	H 	0.75200 0.86710 0.26670 0.06200
C 	C 	0.61850 0.88070 0.31800 0.13700
C 	C 	0.63920 0.95110 0.33060 -0.19200
H 	H 	0.70240 0.97390 0.31660 0.10300
C 	C 	0.56780 0.98820 0.36370 0.10900
H 	H 	0.58450 0.03600 0.37100 -0.01400
C 	C 	0.45470 0.89270 0.37330 0.10700
H 	H 	0.39020 0.87150 0.38740 -0.01600
C 	C 	0.52260 0.85160 0.34020 -0.18700
H 	H 	0.50340 0.80400 0.33290 0.09600
C 	C 	0.87950 0.36410 0.05570 0.07600
H 	H 	0.92450 0.33820 0.03190 -0.00800
C 	C 	0.80180 0.32670 0.09440 -0.15100
H 	H 	0.79790 0.27730 0.09400 0.08400
C 	C 	0.73830 0.36350 0.12940 0.09900
C 	C 	0.74660 0.43290 0.12710 -0.18400
H 	H 	0.70370 0.46060 0.15080 0.09200
C 	C 	0.81640 0.46510 0.09090 0.11100
H 	H 	0.81670 0.51460 0.09090 -0.02500
C 	C 	0.65940 0.32620 0.16900 0.01500
H 	H 	0.61180 0.35590 0.18860 0.02400
C 	C 	0.65020 0.26420 0.17830 -0.22100
H 	H 	0.69860 0.23420 0.15950 0.11500
C 	C 	0.57290 0.23010 0.21540 0.27400
C 	C 	0.57070 0.15700 0.21620 -0.34900
H 	H 	0.61820 0.13130 0.19340 0.16200
C 	C 	0.79440 0.60390 0.96640 0.36900
C 	C 	0.73840 0.67670 0.96780 -0.03400
C 	C 	0.79140 0.72770 0.00370 -0.05800
H 	H 	0.86190 0.71760 0.02690 0.06800
C 	C 	0.74160 0.79510 0.00640 -0.02300
H 	H 	0.77970 0.83030 0.03020 0.04800
C 	C 	0.63590 0.80890 0.97350 -0.07300
C 	C 	0.58330 0.75720 0.93830 0.00100
H 	H 	0.51160 0.76670 0.91590 0.04800
C 	C 	0.63300 0.69100 0.93470 -0.03700
H 	H 	0.59550 0.65630 0.91010 0.05900
C 	C 	0.57910 0.88100 0.97570 0.39800
C 	C 	0.17580 0.96730 0.85210 0.25400
C 	C 	0.08500 0.96720 0.79910 0.08300
C 	C 	0.04030 0.02620 0.77460 -0.25100
H 	H 	0.06460 0.06960 0.79160 0.11300
C 	C 	0.04270 0.90490 0.77490 -0.22300
H 	H 	0.07040 0.86200 0.79140 0.11100
O 	O 	0.75110 0.56140 0.92830 -0.30300
O 	O 	0.88390 0.59390 0.00150 -0.45800
O 	O 	0.64150 0.93097 0.99683 -0.45500
O 	O 	0.47460 0.88436 0.95431 -0.45300
O 	O 	0.19240 0.02380 0.88063 -0.36700
O 	O 	0.23440 0.91380 0.86575 -0.36900
Cd	Cd	0.64678 0.97556 0.55696 1.22600
N 	N 	0.76170 0.92120 0.49111 -0.23500
N 	N 	0.52420 0.96040 0.11394 -0.25100
N 	N 	0.11660 0.43370 0.44400 -0.25800
C 	C 	0.75190 0.85240 0.47760 0.10500
H 	H 	0.69240 0.82640 0.49190 -0.00900
C 	C 	0.82550 0.81800 0.44320 -0.18100
H 	H 	0.81520 0.76980 0.43500 0.09200
C 	C 	0.91480 0.85520 0.42100 0.13800
C 	C 	0.92460 0.92500 0.43510 -0.19600
H 	H 	0.98400 0.95210 0.42170 0.12200
C 	C 	0.84790 0.95620 0.46890 0.11700
H 	H 	0.85620 0.00460 0.47690 -0.00700
C 	C 	0.99850 0.82220 0.38470 -0.05500
H 	H 	0.05800 0.85130 0.37390 0.03300
C 	C 	0.99790 0.75690 0.36630 -0.05000
H 	H 	0.93990 0.72730 0.37800 0.05100
C 	C 	0.08040 0.72520 0.32870 0.08200
C 	C 	0.08340 0.65300 0.32320 -0.15200
H 	H 	0.03430 0.62530 0.34370 0.06200
C 	C 	0.15740 0.62000 0.28820 0.07400
H 	H 	0.15900 0.57060 0.28600 -0.00700
C 	C 	0.22850 0.65950 0.25660 -0.17500
H 	H 	0.27700 0.63720 0.23220 0.08200
C 	C 	0.22780 0.73150 0.26100 0.11200
C 	C 	0.15330 0.76390 0.29740 -0.16800
H 	H 	0.15330 0.81320 0.30050 0.08500
C 	C 	0.30410 0.77230 0.22590 -0.07900
H 	H 	0.35950 0.74620 0.20840 0.05200
C 	C 	0.30390 0.84080 0.21630 -0.10600
H 	H 	0.24800 0.86710 0.23330 0.06700
C 	C 	0.38150 0.88070 0.18200 0.14900
C 	C 	0.36080 0.95110 0.16940 -0.20100
H 	H 	0.29760 0.97390 0.18340 0.10200
C 	C 	0.43220 0.98820 0.13630 0.11500
H 	H 	0.41550 0.03600 0.12900 -0.02000
C 	C 	0.54530 0.89270 0.12670 0.10900
H 	H 	0.60980 0.87150 0.11260 -0.01900
C 	C 	0.47740 0.85160 0.15980 -0.19600
H 	H 	0.49660 0.80400 0.16710 0.09800
C 	C 	0.12050 0.36410 0.44430 0.07300
H 	H 	0.07550 0.33820 0.46810 -0.01700
C 	C 	0.19820 0.32670 0.40560 -0.15600
H 	H 	0.20210 0.27730 0.40600 0.08200
C 	C 	0.26170 0.36350 0.37060 0.09900
C 	C 	0.25340 0.43290 0.37290 -0.18800
H 	H 	0.29630 0.46060 0.34920 0.09200
C 	C 	0.18360 0.46510 0.40910 0.10900
H 	H 	0.18330 0.51460 0.40910 -0.02600
C 	C 	0.34060 0.32620 0.33100 0.00700
H 	H 	0.38820 0.35590 0.31140 0.02500
C 	C 	0.34980 0.26420 0.32170 -0.21800
H 	H 	0.30140 0.23420 0.34050 0.10900
C 	C 	0.42710 0.23010 0.28460 0.27000
C 	C 	0.42930 0.15700 0.28380 -0.34800
H 	H 	0.38180 0.13130 0.30660 0.15900
C 	C 	0.20560 0.60390 0.53360 0.34800
C 	C 	0.26160 0.67670 0.53220 -0.06300
C 	C 	0.20860 0.72770 0.49630 -0.03400
H 	H 	0.13810 0.71760 0.47310 0.04700
C 	C 	0.25840 0.79510 0.49360 -0.00100
H 	H 	0.22030 0.83030 0.46980 0.03600
C 	C 	0.36410 0.80890 0.52650 -0.10400
C 	C 	0.41670 0.75720 0.56170 0.00500
H 	H 	0.48840 0.76670 0.58410 0.04400
C 	C 	0.36700 0.69100 0.56530 -0.03700
H 	H 	0.40450 0.65630 0.58990 0.05600
C 	C 	0.42090 0.88100 0.52430 0.40500
C 	C 	0.82420 0.96730 0.64790 0.38300
C 	C 	0.91500 0.96720 0.70090 -0.23300
C 	C 	0.95970 0.02620 0.72540 0.21300
H 	H 	0.93540 0.06960 0.70840 -0.03100
C 	C 	0.95730 0.90490 0.72510 0.18100
H 	H 	0.92960 0.86200 0.70860 -0.01100
O 	O 	0.24890 0.56140 0.57170 -0.31500
O 	O 	0.11610 0.59390 0.49850 -0.45800
O 	O 	0.35850 0.93097 0.50317 -0.47100
O 	O 	0.52540 0.88436 0.54569 -0.46100
O 	O 	0.80760 0.02380 0.61937 -0.39700
O 	O 	0.76560 0.91380 0.63425 -0.40200
Cd	Cd	-0.00000 0.50000 -0.00000 1.17800
Cd	Cd	0.00000 0.50000 0.50000 1.18700
C 	C 	0.50000 0.73340 0.75000 -0.32600
H 	H 	0.50000 0.68390 0.75000 0.14600
C 	C 	0.50000 0.87760 0.75000 0.28500
H 	H 	0.50000 0.92700 0.75000 -0.07000
C 	C 	0.50000 0.26660 0.25000 -0.32100
H 	H 	0.50000 0.31610 0.25000 0.14400
C 	C 	0.50000 0.12240 0.25000 0.27900
H 	H 	0.50000 0.07300 0.25000 -0.06800
