data_crystal

_cell_length_a 17.75800
_cell_length_b 8.28100
_cell_length_c 13.99300
_cell_angle_alpha 90.00000
_cell_angle_beta  107.21000
_cell_angle_gamma 90.00000

_symmetry_space_group_name_	'P 1'
_symmetry_space_group_name_H-M	'P 1'

loop_
_symmetry_equiv_pos_as_xyz
  x,y,z

loop_
_atom_site_label
_atom_site_type_symbol
_atom_site_fract_x
_atom_site_fract_y
_atom_site_fract_z
_atom_site_charge
Sr	Sr	0.06664 0.90497 0.15704 1.51700
O 	O 	0.18251 0.71460 0.23633 -0.45400
O 	O 	0.29609 0.57790 0.27620 -0.42400
O 	O 	0.41752 0.44490 0.15827 -0.58200
O 	O 	0.41621 0.53700 0.00932 -0.60100
N 	N 	0.25412 0.42000 0.09458 -0.07700
H 	H 	0.29000 0.37340 0.14770 0.10100
C 	C 	0.19216 0.49730 0.13230 -0.29800
H 	H 	0.16070 0.41370 0.15060 0.09800
H 	H 	0.15750 0.56120 0.07920 0.08000
C 	C 	0.22769 0.60550 0.22290 0.42400
C 	C 	0.29662 0.54250 0.05130 -0.35600
H 	H 	0.29070 0.64800 0.07840 0.11800
H 	H 	0.27280 0.54690 0.97940 0.12800
C 	C 	0.38372 0.50480 0.07370 0.47800
C 	C 	0.21902 0.28830 0.02040 -0.07900
H 	H 	0.17720 0.33310 0.96550 0.04600
H 	H 	0.19610 0.20610 0.05270 0.05100
H 	H 	0.96160 0.61260 0.24110 0.17900
Sr	Sr	0.56664 0.40497 0.15704 1.51300
O 	O 	0.68251 0.21460 0.23633 -0.45900
O 	O 	0.79609 0.07790 0.27620 -0.43000
O 	O 	0.91752 0.94490 0.15827 -0.61400
O 	O 	0.91621 0.03700 0.00932 -0.62300
N 	N 	0.75412 0.92000 0.09458 -0.08100
H 	H 	0.79000 0.87340 0.14770 0.10000
C 	C 	0.69216 0.99730 0.13230 -0.29800
H 	H 	0.66070 0.91370 0.15060 0.09000
H 	H 	0.65750 0.06120 0.07920 0.07600
C 	C 	0.72769 0.10550 0.22290 0.42500
C 	C 	0.79662 0.04250 0.05130 -0.34200
H 	H 	0.79070 0.14800 0.07840 0.11300
H 	H 	0.77280 0.04690 0.97940 0.11700
C 	C 	0.88372 0.00480 0.07370 0.48200
C 	C 	0.71902 0.78830 0.02040 -0.06900
H 	H 	0.67720 0.83310 0.96550 0.03700
H 	H 	0.69610 0.70610 0.05270 0.04600
H 	H 	0.46160 0.11260 0.24110 0.27500
Sr	Sr	0.93336 0.90497 0.34296 1.50300
O 	O 	0.81749 0.71460 0.26367 -0.46200
O 	O 	0.70391 0.57790 0.22380 -0.42400
O 	O 	0.58248 0.44490 0.34173 -0.58200
O 	O 	0.58379 0.53700 0.49068 -0.59900
N 	N 	0.74588 0.42000 0.40542 -0.08400
H 	H 	0.71000 0.37340 0.35230 0.10200
C 	C 	0.80784 0.49730 0.36770 -0.28200
H 	H 	0.83930 0.41370 0.34940 0.07900
H 	H 	0.84250 0.56120 0.42080 0.06200
C 	C 	0.77231 0.60550 0.27710 0.41700
C 	C 	0.70338 0.54250 0.44870 -0.34700
H 	H 	0.70930 0.64800 0.42160 0.11500
H 	H 	0.72720 0.54690 0.52060 0.12100
C 	C 	0.61628 0.50480 0.42630 0.47500
C 	C 	0.78098 0.28830 0.47960 -0.06000
H 	H 	0.82280 0.33310 0.53450 0.02900
H 	H 	0.80390 0.20610 0.44730 0.04100
H 	H 	0.03840 0.61260 0.25890 0.25000
Sr	Sr	0.43336 0.40497 0.34296 1.51300
O 	O 	0.31749 0.21460 0.26367 -0.45600
O 	O 	0.20391 0.07790 0.22380 -0.41900
O 	O 	0.08248 0.94490 0.34173 -0.56400
O 	O 	0.08379 0.03700 0.49068 -0.57500
N 	N 	0.24588 0.92000 0.40542 -0.08200
H 	H 	0.21000 0.87340 0.35230 0.10200
C 	C 	0.30784 0.99730 0.36770 -0.29100
H 	H 	0.33930 0.91370 0.34940 0.08800
H 	H 	0.34250 0.06120 0.42080 0.07200
C 	C 	0.27231 0.10550 0.27710 0.42000
C 	C 	0.20338 0.04250 0.44870 -0.34500
H 	H 	0.20930 0.14800 0.42160 0.11800
H 	H 	0.22720 0.04690 0.52060 0.12200
C 	C 	0.11628 0.00480 0.42630 0.47400
C 	C 	0.28098 0.78830 0.47960 -0.06300
H 	H 	0.32280 0.83310 0.53450 0.03500
H 	H 	0.30390 0.70610 0.44730 0.04500
H 	H 	0.53840 0.11260 0.25890 0.27500
Sr	Sr	0.93336 0.09503 0.84296 1.50200
O 	O 	0.81749 0.28540 0.76367 -0.46300
O 	O 	0.70391 0.42210 0.72380 -0.42400
O 	O 	0.58248 0.55510 0.84173 -0.58200
O 	O 	0.58379 0.46300 0.99068 -0.60000
N 	N 	0.74588 0.58000 0.90542 -0.08300
H 	H 	0.71000 0.62660 0.85230 0.10200
C 	C 	0.80784 0.50270 0.86770 -0.28200
H 	H 	0.83930 0.58630 0.84940 0.07800
H 	H 	0.84250 0.43880 0.92080 0.06100
C 	C 	0.77231 0.39450 0.77710 0.41700
C 	C 	0.70338 0.45750 0.94870 -0.35100
H 	H 	0.70930 0.35200 0.92160 0.11600
H 	H 	0.72720 0.45310 0.02060 0.12300
C 	C 	0.61628 0.49520 0.92630 0.47600
C 	C 	0.78098 0.71170 0.97960 -0.06300
H 	H 	0.82280 0.66690 0.03450 0.03000
H 	H 	0.80390 0.79390 0.94730 0.04100
H 	H 	0.03840 0.38740 0.75890 0.24800
Sr	Sr	0.43336 0.59503 0.84296 1.51300
O 	O 	0.31749 0.78540 0.76367 -0.45700
O 	O 	0.20391 0.92210 0.72380 -0.41900
O 	O 	0.08248 0.05510 0.84173 -0.56400
O 	O 	0.08379 0.96300 0.99068 -0.57100
N 	N 	0.24588 0.08000 0.90542 -0.08500
H 	H 	0.21000 0.12660 0.85230 0.10200
C 	C 	0.30784 0.00270 0.86770 -0.29600
H 	H 	0.33930 0.08630 0.84940 0.08900
H 	H 	0.34250 0.93880 0.92080 0.07500
C 	C 	0.27231 0.89450 0.77710 0.42200
C 	C 	0.20338 0.95750 0.94870 -0.33100
H 	H 	0.20930 0.85200 0.92160 0.11500
H 	H 	0.22720 0.95310 0.02060 0.11300
C 	C 	0.11628 0.99520 0.92630 0.47200
C 	C 	0.28098 0.21170 0.97960 -0.05700
H 	H 	0.32280 0.16690 0.03450 0.03300
H 	H 	0.30390 0.29390 0.94730 0.04300
H 	H 	0.53840 0.88740 0.75890 0.27500
Sr	Sr	0.06664 0.09503 0.65704 1.51900
O 	O 	0.18251 0.28540 0.73633 -0.45400
O 	O 	0.29609 0.42210 0.77620 -0.42400
O 	O 	0.41752 0.55510 0.65827 -0.58200
O 	O 	0.41621 0.46300 0.50932 -0.59900
N 	N 	0.25412 0.58000 0.59458 -0.07900
H 	H 	0.29000 0.62660 0.64770 0.10200
C 	C 	0.19216 0.50270 0.63230 -0.29800
H 	H 	0.16070 0.58630 0.65060 0.09900
H 	H 	0.15750 0.43880 0.57920 0.08200
C 	C 	0.22769 0.39450 0.72290 0.42500
C 	C 	0.29662 0.45750 0.55130 -0.34900
H 	H 	0.29070 0.35200 0.57840 0.11700
H 	H 	0.27280 0.45310 0.47940 0.12400
C 	C 	0.38372 0.49520 0.57370 0.47600
C 	C 	0.21902 0.71170 0.52040 -0.07000
H 	H 	0.17720 0.66690 0.46550 0.04200
H 	H 	0.19610 0.79390 0.55270 0.05000
H 	H 	0.96160 0.38740 0.74110 0.17300
Sr	Sr	0.56664 0.59503 0.65704 1.51300
O 	O 	0.68251 0.78540 0.73633 -0.45800
O 	O 	0.79609 0.92210 0.77620 -0.43000
O 	O 	0.91752 0.05510 0.65827 -0.61500
O 	O 	0.91621 0.96300 0.50932 -0.62700
N 	N 	0.75412 0.08000 0.59458 -0.07900
H 	H 	0.79000 0.12660 0.64770 0.10000
C 	C 	0.69216 0.00270 0.63230 -0.29300
H 	H 	0.66070 0.08630 0.65060 0.08900
H 	H 	0.65750 0.93880 0.57920 0.07300
C 	C 	0.72769 0.89450 0.72290 0.42300
C 	C 	0.79662 0.95750 0.55130 -0.35400
H 	H 	0.79070 0.85200 0.57840 0.11500
H 	H 	0.77280 0.95310 0.47940 0.12300
C 	C 	0.88372 0.99520 0.57370 0.48400
C 	C 	0.71902 0.21170 0.52040 -0.06900
H 	H 	0.67720 0.16690 0.46550 0.03700
H 	H 	0.69610 0.29390 0.55270 0.04600
H 	H 	0.46160 0.88740 0.74110 0.27500
O 	O 	0.00000 0.67790 0.25000 -0.69700
O 	O 	0.50000 0.17790 0.25000 -0.83500
O 	O 	0.00000 0.32210 0.75000 -0.68800
O 	O 	0.50000 0.82210 0.75000 -0.83500
