data_crystal

_cell_length_a 13.39000
_cell_length_b 24.07400
_cell_length_c 13.17900
_cell_angle_alpha 90.00000
_cell_angle_beta  90.00000
_cell_angle_gamma 90.00000

_symmetry_space_group_name_	'P 1'
_symmetry_space_group_name_H-M	'P 1'

loop_
_symmetry_equiv_pos_as_xyz
  x,y,z

loop_
_atom_site_label
_atom_site_type_symbol
_atom_site_fract_x
_atom_site_fract_y
_atom_site_fract_z
_atom_site_charge
O 	O 	0.29860 0.11240 0.20860 -0.43900
O 	O 	0.43250 0.06120 0.21180 -0.55200
C 	C 	0.34130 0.06990 0.23150 0.37200
Sm	Sm	0.44108 0.84298 0.61653 1.81800
O 	O 	0.51300 0.73880 0.62590 -0.39500
O 	O 	0.35360 0.75740 0.61030 -0.44800
C 	C 	0.33550 0.55230 0.58450 -0.02700
H 	H 	0.31590 0.51580 0.57290 0.07000
C 	C 	0.39710 0.66150 0.60980 -0.06000
C 	C 	0.26310 0.59330 0.59660 -0.13300
C 	C 	0.29860 0.64760 0.60430 0.03300
H 	H 	0.25190 0.67620 0.60580 0.03400
O 	O 	0.13130 0.53230 0.58800 -0.50300
C 	C 	0.15650 0.58160 0.59980 0.47200
C 	C 	0.46900 0.61920 0.60310 -0.07300
H 	H 	0.53660 0.62770 0.60770 0.07900
C 	C 	0.43920 0.56560 0.58970 0.08500
C 	C 	0.42680 0.72300 0.62150 0.30400
C 	C 	0.34060 0.90950 0.46730 0.27600
C 	C 	0.33810 0.98890 0.34850 0.04400
H 	H 	0.40730 0.99100 0.35330 0.03100
O 	O 	0.09920 0.62210 0.61500 -0.59200
N 	N 	0.51520 0.52390 0.58500 -0.08100
C 	C 	0.28340 0.02730 0.28900 -0.11500
C 	C 	0.28430 0.94760 0.40020 -0.03900
O 	O 	0.30260 0.86360 0.49610 -0.38900
O 	O 	0.42890 0.92550 0.50050 -0.44600
C 	C 	0.17920 0.94340 0.39040 -0.09900
H 	H 	0.14510 0.91380 0.41980 0.08600
C 	C 	0.17930 0.02680 0.28870 -0.11800
H 	H 	0.14370 0.05500 0.25670 0.08700
C 	C 	0.12870 0.98280 0.33770 0.15800
N 	N 	0.02410 0.97690 0.33630 -0.09600
O 	O 	0.79860 0.61240 0.70860 -0.43200
O 	O 	0.93250 0.56120 0.71180 -0.52200
C 	C 	0.84130 0.56990 0.73150 0.36400
Sm	Sm	0.94108 0.34298 0.11653 1.87500
O 	O 	0.01300 0.23880 0.12590 -0.45900
O 	O 	0.85360 0.25740 0.11030 -0.46800
C 	C 	0.83550 0.05230 0.08450 -0.00800
H 	H 	0.81590 0.01580 0.07290 0.04300
C 	C 	0.89710 0.16150 0.10980 -0.11800
C 	C 	0.76310 0.09330 0.09660 -0.15900
C 	C 	0.79860 0.14760 0.10430 0.07200
H 	H 	0.75190 0.17620 0.10580 0.02100
O 	O 	0.63130 0.03230 0.08800 -0.51900
C 	C 	0.65650 0.08160 0.09980 0.47700
C 	C 	0.96900 0.11920 0.10310 0.03700
H 	H 	0.03660 0.12770 0.10770 0.01100
C 	C 	0.93920 0.06560 0.08970 0.06400
C 	C 	0.92680 0.22300 0.12150 0.38000
C 	C 	0.84060 0.40950 0.96730 0.29100
C 	C 	0.83810 0.48890 0.84850 -0.01900
H 	H 	0.90730 0.49100 0.85330 0.05200
O 	O 	0.59920 0.12210 0.11500 -0.56800
N 	N 	0.01520 0.02390 0.08500 -0.13900
C 	C 	0.78340 0.52730 0.78900 -0.06200
C 	C 	0.78430 0.44760 0.90020 -0.02900
O 	O 	0.80260 0.36360 0.99610 -0.38100
O 	O 	0.92890 0.42550 0.00050 -0.46300
C 	C 	0.67920 0.44340 0.89040 -0.09200
H 	H 	0.64510 0.41380 0.91980 0.09100
C 	C 	0.67930 0.52680 0.78870 -0.06900
H 	H 	0.64370 0.55500 0.75670 0.08500
C 	C 	0.62870 0.48280 0.83770 0.11400
N 	N 	0.52410 0.47690 0.83630 -0.08400
O 	O 	0.70140 0.88760 0.20860 -0.42800
O 	O 	0.56750 0.93880 0.21180 -0.51900
C 	C 	0.65870 0.93010 0.23150 0.35900
Sm	Sm	0.55892 0.15702 0.61653 1.81600
O 	O 	0.48700 0.26120 0.62590 -0.39400
O 	O 	0.64640 0.24260 0.61030 -0.44300
C 	C 	0.66450 0.44770 0.58450 -0.03200
H 	H 	0.68410 0.48420 0.57290 0.07200
C 	C 	0.60290 0.33850 0.60980 -0.05400
C 	C 	0.73690 0.40670 0.59660 -0.12100
C 	C 	0.70140 0.35240 0.60430 0.02600
H 	H 	0.74810 0.32380 0.60580 0.04100
O 	O 	0.86870 0.46770 0.58800 -0.47800
C 	C 	0.84350 0.41840 0.59980 0.45800
C 	C 	0.53100 0.38080 0.60310 -0.07700
H 	H 	0.46340 0.37230 0.60770 0.08100
C 	C 	0.56080 0.43440 0.58970 0.08800
C 	C 	0.57320 0.27700 0.62150 0.30300
C 	C 	0.65940 0.09050 0.46730 0.26600
C 	C 	0.66190 0.01110 0.34850 -0.07900
H 	H 	0.59270 0.00900 0.35330 0.04100
O 	O 	0.90080 0.37790 0.61500 -0.53400
N 	N 	0.48480 0.47610 0.58500 -0.08200
C 	C 	0.71660 0.97270 0.28900 -0.02600
C 	C 	0.71570 0.05240 0.40020 -0.03000
O 	O 	0.69740 0.13640 0.49610 -0.38600
O 	O 	0.57110 0.07450 0.50050 -0.46200
C 	C 	0.82080 0.05660 0.39040 -0.08400
H 	H 	0.85490 0.08620 0.41980 0.08600
C 	C 	0.82070 0.97320 0.28870 -0.01400
H 	H 	0.85630 0.94500 0.25670 0.07800
C 	C 	0.87130 0.01720 0.33770 0.06000
N 	N 	0.97590 0.02310 0.33630 -0.07500
O 	O 	0.20140 0.38760 0.70860 -0.42700
O 	O 	0.06750 0.43880 0.71180 -0.54800
C 	C 	0.15870 0.43010 0.73150 0.37100
Sm	Sm	0.05892 0.65702 0.11653 1.72100
O 	O 	0.98700 0.76120 0.12590 -0.33600
O 	O 	0.14640 0.74260 0.11030 -0.42900
C 	C 	0.16450 0.94770 0.08450 -0.04700
H 	H 	0.18410 0.98420 0.07290 0.08900
C 	C 	0.10290 0.83850 0.10980 -0.00600
C 	C 	0.23690 0.90670 0.09660 -0.10300
C 	C 	0.20140 0.85240 0.10430 -0.00900
H 	H 	0.24810 0.82380 0.10580 0.04700
O 	O 	0.36870 0.96770 0.08800 -0.46900
C 	C 	0.34350 0.91840 0.09980 0.45100
C 	C 	0.03100 0.88080 0.10310 -0.18300
H 	H 	0.96340 0.87230 0.10770 0.14000
C 	C 	0.06080 0.93440 0.08970 0.09800
C 	C 	0.07320 0.77700 0.12150 0.22700
C 	C 	0.15940 0.59050 0.96730 0.29700
C 	C 	0.16190 0.51110 0.84850 -0.00600
H 	H 	0.09270 0.50900 0.85330 0.02600
O 	O 	0.40080 0.87790 0.11500 -0.55900
N 	N 	0.98480 0.97610 0.08500 -0.02700
C 	C 	0.21660 0.47270 0.78900 -0.07700
C 	C 	0.21570 0.55240 0.90020 -0.04400
O 	O 	0.19740 0.63640 0.99610 -0.37800
O 	O 	0.07110 0.57450 0.00050 -0.48400
C 	C 	0.32080 0.55660 0.89040 -0.08300
H 	H 	0.35490 0.58620 0.91980 0.08800
C 	C 	0.32070 0.47320 0.78870 -0.06000
H 	H 	0.35630 0.44500 0.75670 0.08200
C 	C 	0.37130 0.51720 0.83770 0.10800
N 	N 	0.47590 0.52310 0.83630 -0.08300
O 	O 	0.79860 0.38760 0.20860 -0.43500
O 	O 	0.93250 0.43880 0.21180 -0.52200
C 	C 	0.84130 0.43010 0.23150 0.36200
Sm	Sm	0.94108 0.65702 0.61653 1.89400
O 	O 	0.01300 0.76120 0.62590 -0.45400
O 	O 	0.85360 0.74260 0.61030 -0.46400
C 	C 	0.83550 0.94770 0.58450 -0.02000
H 	H 	0.81590 0.98420 0.57290 0.08800
C 	C 	0.89710 0.83850 0.60980 -0.10300
C 	C 	0.76310 0.90670 0.59660 -0.13400
C 	C 	0.79860 0.85240 0.60430 0.05800
H 	H 	0.75190 0.82380 0.60580 0.02800
O 	O 	0.63130 0.96770 0.58800 -0.46900
C 	C 	0.65650 0.91840 0.59980 0.46600
C 	C 	0.96900 0.88080 0.60310 0.02500
H 	H 	0.03660 0.87230 0.60770 0.02200
C 	C 	0.93920 0.93440 0.58970 0.09000
C 	C 	0.92680 0.77700 0.62150 0.37700
C 	C 	0.84060 0.59050 0.46730 0.26900
C 	C 	0.83810 0.51110 0.34850 -0.02400
H 	H 	0.90730 0.50900 0.35330 0.04900
O 	O 	0.59920 0.87790 0.61500 -0.56200
N 	N 	0.01520 0.97610 0.58500 -0.08700
C 	C 	0.78340 0.47270 0.28900 -0.06300
C 	C 	0.78430 0.55240 0.40020 -0.02700
O 	O 	0.80260 0.63640 0.49610 -0.38900
O 	O 	0.92890 0.57450 0.50050 -0.44400
C 	C 	0.67920 0.55660 0.39040 -0.09600
H 	H 	0.64510 0.58620 0.41980 0.08800
C 	C 	0.67930 0.47320 0.28870 -0.07100
H 	H 	0.64370 0.44500 0.25670 0.08400
C 	C 	0.62870 0.51720 0.33770 0.11200
N 	N 	0.52410 0.52310 0.33630 -0.08600
O 	O 	0.29860 0.88760 0.70860 -0.42800
O 	O 	0.43250 0.93880 0.71180 -0.52000
C 	C 	0.34130 0.93010 0.73150 0.36200
Sm	Sm	0.44108 0.15702 0.11653 1.79500
O 	O 	0.51300 0.26120 0.12590 -0.39700
O 	O 	0.35360 0.24260 0.11030 -0.45000
C 	C 	0.33550 0.44770 0.08450 -0.02500
H 	H 	0.31590 0.48420 0.07290 0.06500
C 	C 	0.39710 0.33850 0.10980 -0.06500
C 	C 	0.26310 0.40670 0.09660 -0.13800
C 	C 	0.29860 0.35240 0.10430 0.03500
H 	H 	0.25190 0.32380 0.10580 0.03100
O 	O 	0.13130 0.46770 0.08800 -0.50700
C 	C 	0.15650 0.41840 0.09980 0.47100
C 	C 	0.46900 0.38080 0.10310 -0.07200
H 	H 	0.53660 0.37230 0.10770 0.07500
C 	C 	0.43920 0.43440 0.08970 0.07900
C 	C 	0.42680 0.27700 0.12150 0.30400
C 	C 	0.34060 0.09050 0.96730 0.29200
C 	C 	0.33810 0.01110 0.84850 -0.07000
H 	H 	0.40730 0.00900 0.85330 0.04200
O 	O 	0.09920 0.37790 0.11500 -0.59300
N 	N 	0.51520 0.47610 0.08500 -0.08300
C 	C 	0.28340 0.97270 0.78900 -0.03000
C 	C 	0.28430 0.05240 0.90020 -0.03700
O 	O 	0.30260 0.13640 0.99610 -0.38100
O 	O 	0.42890 0.07450 0.00050 -0.48200
C 	C 	0.17920 0.05660 0.89040 -0.07500
H 	H 	0.14510 0.08620 0.91980 0.07900
C 	C 	0.17930 0.97320 0.78870 -0.01200
H 	H 	0.14370 0.94500 0.75670 0.06600
C 	C 	0.12870 0.01720 0.83770 0.05000
N 	N 	0.02410 0.02310 0.83630 -0.12000
O 	O 	0.20140 0.61240 0.20860 -0.43100
O 	O 	0.06750 0.56120 0.21180 -0.54800
C 	C 	0.15870 0.56990 0.23150 0.37000
Sm	Sm	0.05892 0.34298 0.61653 1.74200
O 	O 	0.98700 0.23880 0.62590 -0.33400
O 	O 	0.14640 0.25740 0.61030 -0.42600
C 	C 	0.16450 0.05230 0.58450 -0.03900
H 	H 	0.18410 0.01580 0.57290 0.05400
C 	C 	0.10290 0.16150 0.60980 -0.01000
C 	C 	0.23690 0.09330 0.59660 -0.12000
C 	C 	0.20140 0.14760 0.60430 0.00200
H 	H 	0.24810 0.17620 0.60580 0.04600
O 	O 	0.36870 0.03230 0.58800 -0.51200
C 	C 	0.34350 0.08160 0.59980 0.46400
C 	C 	0.03100 0.11920 0.60310 -0.17400
H 	H 	0.96340 0.12770 0.60770 0.13800
C 	C 	0.06080 0.06560 0.58970 0.08300
C 	C 	0.07320 0.22300 0.62150 0.23000
C 	C 	0.15940 0.40950 0.46730 0.27400
C 	C 	0.16190 0.48890 0.34850 -0.01100
H 	H 	0.09270 0.49100 0.35330 0.02300
O 	O 	0.40080 0.12210 0.61500 -0.56500
N 	N 	0.98480 0.02390 0.58500 -0.07500
C 	C 	0.21660 0.52730 0.28900 -0.07800
C 	C 	0.21570 0.44760 0.40020 -0.04200
O 	O 	0.19740 0.36360 0.49610 -0.38600
O 	O 	0.07110 0.42550 0.50050 -0.46400
C 	C 	0.32080 0.44340 0.39040 -0.08700
H 	H 	0.35490 0.41380 0.41980 0.08400
C 	C 	0.32070 0.52680 0.28870 -0.06200
H 	H 	0.35630 0.55500 0.25670 0.08000
C 	C 	0.37130 0.48280 0.33770 0.10600
N 	N 	0.47590 0.47690 0.33630 -0.08500
O 	O 	0.70140 0.11240 0.70860 -0.43100
O 	O 	0.56750 0.06120 0.71180 -0.55000
C 	C 	0.65870 0.06990 0.73150 0.37300
Sm	Sm	0.55892 0.84298 0.11653 1.79800
O 	O 	0.48700 0.73880 0.12590 -0.39800
O 	O 	0.64640 0.75740 0.11030 -0.44700
C 	C 	0.66450 0.55230 0.08450 -0.03100
H 	H 	0.68410 0.51580 0.07290 0.06700
C 	C 	0.60290 0.66150 0.10980 -0.06000
C 	C 	0.73690 0.59330 0.09660 -0.12500
C 	C 	0.70140 0.64760 0.10430 0.02800
H 	H 	0.74810 0.67620 0.10580 0.03800
O 	O 	0.86870 0.53230 0.08800 -0.48200
C 	C 	0.84350 0.58160 0.09980 0.45700
C 	C 	0.53100 0.61920 0.10310 -0.07500
H 	H 	0.46340 0.62770 0.10770 0.07600
C 	C 	0.56080 0.56560 0.08970 0.08200
C 	C 	0.57320 0.72300 0.12150 0.30300
C 	C 	0.65940 0.90950 0.96730 0.29700
C 	C 	0.66190 0.98890 0.84850 0.04500
H 	H 	0.59270 0.99100 0.85330 0.03500
O 	O 	0.90080 0.62210 0.11500 -0.53400
N 	N 	0.48480 0.52390 0.08500 -0.08400
C 	C 	0.71660 0.02730 0.78900 -0.10900
C 	C 	0.71570 0.94760 0.90020 -0.03600
O 	O 	0.69740 0.86360 0.99610 -0.37800
O 	O 	0.57110 0.92550 0.00050 -0.46500
C 	C 	0.82080 0.94340 0.89040 -0.09900
H 	H 	0.85490 0.91380 0.91980 0.10000
C 	C 	0.82070 0.02680 0.78870 -0.11700
H 	H 	0.85630 0.05500 0.75670 0.10100
C 	C 	0.87130 0.98280 0.83770 0.17100
N 	N 	0.97590 0.97690 0.83630 -0.04700
Zn	Zn	0.00000 0.50000 0.61790 1.21400
Zn	Zn	0.50000 0.00000 0.11790 1.21200
Zn	Zn	0.50000 0.00000 0.61790 1.21300
Zn	Zn	0.00000 0.50000 0.11790 1.21400
