data_crystal

_cell_length_a 7.30900
_cell_length_b 7.30900
_cell_length_c 8.17010
_cell_angle_alpha 90.00000
_cell_angle_beta  90.00000
_cell_angle_gamma 120.00000

_symmetry_space_group_name_	'P 1'
_symmetry_space_group_name_H-M	'P 1'

loop_
_symmetry_equiv_pos_as_xyz
  x,y,z

loop_
_atom_site_label
_atom_site_type_symbol
_atom_site_fract_x
_atom_site_fract_y
_atom_site_fract_z
_atom_site_charge
O 	O 	0.11034 0.69483 0.10519 -0.34400
O 	O 	0.30517 0.41551 0.10519 -0.37800
O 	O 	0.58449 0.88966 0.10519 -0.28400
O 	O 	0.88966 0.30517 0.60519 -0.34000
O 	O 	0.69483 0.58449 0.60519 -0.36300
O 	O 	0.41551 0.11034 0.60519 -0.37300
O 	O 	0.69483 0.11034 0.89481 -0.26600
O 	O 	0.41551 0.30517 0.89481 -0.30200
O 	O 	0.88966 0.58449 0.89481 -0.23100
O 	O 	0.30517 0.88966 0.39481 -0.32200
O 	O 	0.58449 0.69483 0.39481 -0.36900
O 	O 	0.11034 0.41551 0.39481 -0.38600
Zn	Zn	0.33333 0.66667 0.25000 1.24700
Zn	Zn	0.66667 0.33333 0.75000 1.24900
C 	C 	-0.00000 0.56220 -0.00000 0.24000
H 	H 	-0.00000 0.43460 -0.00000 -0.07100
C 	C 	0.43780 0.43780 -0.00000 0.31400
H 	H 	0.56540 0.56540 -0.00000 -0.07200
C 	C 	0.56220 0.00000 -0.00000 0.20200
H 	H 	0.43460 0.00000 -0.00000 -0.06400
C 	C 	0.00000 0.43780 0.50000 0.38100
H 	H 	0.00000 0.56540 0.50000 -0.08500
C 	C 	0.56220 0.56220 0.50000 0.45400
H 	H 	0.43460 0.43460 0.50000 -0.10300
C 	C 	0.43780 0.00000 0.50000 0.34700
H 	H 	0.56540 0.00000 0.50000 -0.08100
