data_crystal

_cell_length_a 7.30840
_cell_length_b 7.30840
_cell_length_c 8.17050
_cell_angle_alpha 90.00000
_cell_angle_beta  90.00000
_cell_angle_gamma 120.00000

_symmetry_space_group_name_	'P 1'
_symmetry_space_group_name_H-M	'P 1'

loop_
_symmetry_equiv_pos_as_xyz
  x,y,z

loop_
_atom_site_label
_atom_site_type_symbol
_atom_site_fract_x
_atom_site_fract_y
_atom_site_fract_z
_atom_site_charge
O 	O 	0.11017 0.69445 0.39488 -0.36500
O 	O 	0.30555 0.41572 0.39488 -0.39800
O 	O 	0.58428 0.88983 0.39488 -0.30800
O 	O 	0.88983 0.30555 0.89488 -0.24800
O 	O 	0.69445 0.58428 0.89488 -0.27000
O 	O 	0.41572 0.11017 0.89488 -0.27900
O 	O 	0.69445 0.11017 0.60512 -0.35700
O 	O 	0.41572 0.30555 0.60512 -0.39100
O 	O 	0.88983 0.58428 0.60512 -0.31900
O 	O 	0.30555 0.88983 0.10512 -0.29600
O 	O 	0.58428 0.69445 0.10512 -0.34300
O 	O 	0.11017 0.41572 0.10512 -0.36200
Zn	Zn	0.33333 0.66667 0.25000 1.24600
Zn	Zn	0.66667 0.33333 0.75000 1.24800
C 	C 	0.00000 0.56230 0.50000 0.36000
H 	H 	0.00000 0.43000 0.50000 -0.07600
C 	C 	0.43770 0.43770 0.50000 0.43500
H 	H 	0.57000 0.57000 0.50000 -0.07600
C 	C 	0.56230 0.00000 0.50000 0.32900
H 	H 	0.43000 0.00000 0.50000 -0.07200
C 	C 	-0.00000 0.43770 -0.00000 0.23100
H 	H 	-0.00000 0.57000 -0.00000 -0.05600
C 	C 	0.56230 0.56230 -0.00000 0.29700
H 	H 	0.43000 0.43000 -0.00000 -0.07200
C 	C 	0.43770 0.00000 -0.00000 0.19500
H 	H 	0.57000 0.00000 -0.00000 -0.05300
