data_crystal

_cell_length_a 16.27980
_cell_length_b 13.92480
_cell_length_c 18.04390
_cell_angle_alpha 90.00000
_cell_angle_beta  106.08200
_cell_angle_gamma 90.00000

_symmetry_space_group_name_	'P 1'
_symmetry_space_group_name_H-M	'P 1'

loop_
_symmetry_equiv_pos_as_xyz
  x,y,z

loop_
_atom_site_label
_atom_site_type_symbol
_atom_site_fract_x
_atom_site_fract_y
_atom_site_fract_z
_atom_site_charge
Cd	Cd	0.18856 0.29811 0.15835 1.15300
N 	N 	0.23377 0.36799 0.27650 -0.25600
C 	C 	0.24464 0.40816 0.33350 -0.19600
Ag	Ag	0.25097 0.49162 0.42973 0.42900
C 	C 	0.24325 0.57060 0.52439 -0.18300
N 	N 	0.23361 0.61587 0.57412 -0.26400
N 	N 	0.11421 0.16754 0.09809 -0.25700
C 	C 	0.07535 0.10636 0.06337 -0.22500
Ag	Ag	0.92795 0.52520 0.17695 0.43000
C 	C 	0.01142 0.42440 0.15564 -0.22100
N 	N 	0.06325 0.37263 0.14924 -0.25600
C 	C 	0.84994 0.63636 0.19195 -0.19000
N 	N 	0.80265 0.69592 0.19322 -0.24700
Cd	Cd	0.68856 0.79811 0.15835 1.15800
N 	N 	0.73377 0.86799 0.27650 -0.25100
C 	C 	0.74464 0.90816 0.33350 -0.17500
Ag	Ag	0.75097 0.99162 0.42973 0.45000
C 	C 	0.74325 0.07060 0.52439 -0.19300
N 	N 	0.73361 0.11587 0.57412 -0.26300
N 	N 	0.61421 0.66754 0.09809 -0.25400
C 	C 	0.57535 0.60636 0.06337 -0.20500
Ag	Ag	0.42795 0.02520 0.17695 0.40200
C 	C 	0.51142 0.92440 0.15564 -0.17900
N 	N 	0.56325 0.87263 0.14924 -0.25600
C 	C 	0.34994 0.13636 0.19195 -0.21000
N 	N 	0.30265 0.19592 0.19322 -0.25100
Cd	Cd	0.81144 0.29811 0.34165 1.15800
N 	N 	0.76623 0.36799 0.22350 -0.25300
C 	C 	0.75536 0.40816 0.16650 -0.19400
Ag	Ag	0.74903 0.49162 0.07027 0.42100
C 	C 	0.75675 0.57060 0.97561 -0.15300
N 	N 	0.76639 0.61587 0.92588 -0.26300
N 	N 	0.88579 0.16754 0.40191 -0.25500
C 	C 	0.92465 0.10636 0.43663 -0.18600
Ag	Ag	0.07205 0.52520 0.32305 0.40900
C 	C 	0.98858 0.42440 0.34436 -0.17100
N 	N 	0.93675 0.37263 0.35076 -0.25400
C 	C 	0.15006 0.63636 0.30805 -0.20100
N 	N 	0.19735 0.69592 0.30678 -0.24800
Cd	Cd	0.31144 0.79811 0.34165 1.15900
N 	N 	0.26623 0.86799 0.22350 -0.25300
C 	C 	0.25536 0.90816 0.16650 -0.18600
Ag	Ag	0.24903 0.99162 0.07027 0.43600
C 	C 	0.25675 0.07060 0.97561 -0.17600
N 	N 	0.26639 0.11587 0.92588 -0.26500
N 	N 	0.38579 0.66754 0.40191 -0.25300
C 	C 	0.42465 0.60636 0.43663 -0.19400
Ag	Ag	0.57205 0.02520 0.32305 0.40600
C 	C 	0.48858 0.92440 0.34436 -0.17300
N 	N 	0.43675 0.87263 0.35076 -0.25400
C 	C 	0.65006 0.13636 0.30805 -0.20500
N 	N 	0.69735 0.19592 0.30678 -0.24900
Cd	Cd	0.81144 0.70189 0.84165 1.16200
N 	N 	0.76623 0.63201 0.72350 -0.25000
C 	C 	0.75536 0.59184 0.66650 -0.18500
Ag	Ag	0.74903 0.50838 0.57027 0.43300
C 	C 	0.75675 0.42940 0.47561 -0.17700
N 	N 	0.76639 0.38413 0.42588 -0.26400
N 	N 	0.88579 0.83246 0.90191 -0.25400
C 	C 	0.92465 0.89364 0.93663 -0.13800
Ag	Ag	0.07205 0.47480 0.82305 0.41200
C 	C 	0.98858 0.57560 0.84436 -0.16300
N 	N 	0.93675 0.62737 0.85076 -0.25000
C 	C 	0.15006 0.36364 0.80805 -0.19800
N 	N 	0.19735 0.30408 0.80678 -0.24800
Cd	Cd	0.31144 0.20189 0.84165 1.15800
N 	N 	0.26623 0.13201 0.72350 -0.25500
C 	C 	0.25536 0.09184 0.66650 -0.20400
Ag	Ag	0.24903 0.00838 0.57027 0.41300
C 	C 	0.25675 0.92940 0.47561 -0.16400
N 	N 	0.26639 0.88413 0.42588 -0.26500
N 	N 	0.38579 0.33246 0.90191 -0.25400
C 	C 	0.42465 0.39364 0.93663 -0.17500
Ag	Ag	0.57205 0.97480 0.82305 0.43900
C 	C 	0.48858 0.07560 0.84436 -0.20400
N 	N 	0.43675 0.12737 0.85076 -0.25100
C 	C 	0.65006 0.86364 0.80805 -0.17900
N 	N 	0.69735 0.80408 0.80678 -0.24500
Cd	Cd	0.18856 0.70189 0.65835 1.15800
N 	N 	0.23377 0.63201 0.77650 -0.25300
C 	C 	0.24464 0.59184 0.83350 -0.18600
Ag	Ag	0.25097 0.50838 0.92973 0.44200
C 	C 	0.24325 0.42940 0.02439 -0.20700
N 	N 	0.23361 0.38413 0.07412 -0.26500
N 	N 	0.11421 0.83246 0.59809 -0.25500
C 	C 	0.07535 0.89364 0.56337 -0.18300
Ag	Ag	0.92795 0.47480 0.67695 0.43400
C 	C 	0.01142 0.57560 0.65564 -0.21400
N 	N 	0.06325 0.62737 0.64924 -0.25200
C 	C 	0.84994 0.36364 0.69195 -0.18600
N 	N 	0.80265 0.30408 0.69322 -0.24700
Cd	Cd	0.68856 0.20189 0.65835 1.15700
N 	N 	0.73377 0.13201 0.77650 -0.25300
C 	C 	0.74464 0.09184 0.83350 -0.19000
Ag	Ag	0.75097 0.00838 0.92973 0.43000
C 	C 	0.74325 0.92940 0.02439 -0.18200
N 	N 	0.73361 0.88413 0.07412 -0.26300
N 	N 	0.61421 0.33246 0.59809 -0.25300
C 	C 	0.57535 0.39364 0.56337 -0.19600
Ag	Ag	0.42795 0.97480 0.67695 0.43700
C 	C 	0.51142 0.07560 0.65564 -0.21100
N 	N 	0.56325 0.12737 0.64924 -0.25200
C 	C 	0.34994 0.86364 0.69195 -0.18200
N 	N 	0.30265 0.80408 0.69322 -0.24700
Ag	Ag	-0.00000 0.00000 -0.00000 0.38600
Ag	Ag	0.50000 0.50000 -0.00000 0.41500
Ag	Ag	0.00000 -0.00000 0.50000 0.40100
Ag	Ag	0.50000 0.50000 0.50000 0.43000
