data_crystal

_cell_length_a 8.49400
_cell_length_b 12.98700
_cell_length_c 15.18700
_cell_angle_alpha 91.21300
_cell_angle_beta  94.18500
_cell_angle_gamma 108.52500

_symmetry_space_group_name_	'P 1'
_symmetry_space_group_name_H-M	'P 1'

loop_
_symmetry_equiv_pos_as_xyz
  x,y,z

loop_
_atom_site_label
_atom_site_type_symbol
_atom_site_fract_x
_atom_site_fract_y
_atom_site_fract_z
_atom_site_charge
C 	C 	0.93800 0.72370 0.64180 0.09500
H 	H 	0.97100 0.68610 0.59780 -0.03000
C 	C 	0.79500 0.76780 0.73900 0.00900
H 	H 	0.70910 0.76540 0.77450 0.00600
C 	C 	0.94100 0.85180 0.74100 -0.00800
H 	H 	0.97270 0.91530 0.77670 0.03000
C 	C 	0.19400 0.88560 0.65970 0.11000
C 	C 	0.23500 0.99500 0.66700 -0.09500
H 	H 	0.15340 0.02680 0.67780 0.06200
C 	C 	0.40100 0.06200 0.65900 -0.06900
H 	H 	0.43420 0.13600 0.67290 0.05300
C 	C 	0.51100 0.01530 0.62970 0.07800
C 	C 	0.46700 0.90420 0.61660 -0.05500
H 	H 	0.54260 0.87140 0.59880 0.05700
C 	C 	0.30000 0.84060 0.63110 -0.11300
H 	H 	0.26540 0.76570 0.62000 0.08800
C 	C 	0.73100 0.18840 0.61140 0.10800
H 	H 	0.66230 0.23110 0.61580 -0.02200
C 	C 	0.94000 0.14300 0.58600 0.01300
H 	H 	0.04150 0.14380 0.56680 0.01200
C 	C 	0.80800 0.05200 0.60300 0.00300
H 	H 	0.81070 0.98180 0.60720 0.03000
C 	C 	0.45200 0.50910 0.82010 0.10400
H 	H 	0.49200 0.58110 0.84150 -0.02200
C 	C 	0.40400 0.36600 0.73910 -0.00800
H 	H 	0.40520 0.31860 0.69260 0.01500
C 	C 	0.31700 0.33600 0.81150 -0.00200
H 	H 	0.24800 0.26710 0.82280 0.02400
C 	C 	0.28000 0.43730 0.94360 0.09300
C 	C 	0.19100 0.34620 0.98300 -0.08100
H 	H 	0.17870 0.27780 0.95830 0.05700
C 	C 	0.11800 0.35610 0.05910 -0.08000
H 	H 	0.05690 0.29380 0.08560 0.05800
C 	C 	0.13500 0.45460 0.09630 0.08000
C 	C 	0.23100 0.54990 0.05900 -0.06800
H 	H 	0.24350 0.61830 0.08420 0.05700
C 	C 	0.30600 0.53770 0.98300 -0.07900
H 	H 	0.37440 0.59900 0.95830 0.06100
C 	C 	0.10600 0.54300 0.24040 0.07100
H 	H 	0.20690 0.59960 0.24400 -0.01900
C 	C 	0.86600 0.43460 0.27270 0.00500
H 	H 	0.77070 0.40490 0.30200 0.01500
C 	C 	0.90000 0.39190 0.19400 -0.00500
H 	H 	0.83610 0.32880 0.16200 0.03300
N 	N 	0.79040 0.68760 0.67840 -0.27200
N 	N 	0.03000 0.82200 0.67840 -0.14000
N 	N 	0.67790 0.08400 0.61360 -0.14100
N 	N 	0.89230 0.22970 0.60250 -0.26900
N 	N 	0.48800 0.47500 0.74380 -0.26600
N 	N 	0.35290 0.42780 0.86350 -0.14000
N 	N 	0.05380 0.46640 0.17400 -0.13500
N 	N 	0.99350 0.52650 0.30050 -0.26900
O 	O 	0.85170 0.39940 0.48240 -0.49700
O 	O 	0.66140 0.45320 0.57700 -0.50900
O 	O 	0.56650 0.38710 0.41890 -0.45900
O 	O 	0.78170 0.57040 0.45280 -0.50400
Zn	Zn	0.59610 0.55776 0.64106 1.20800
Zn	Zn	0.99410 0.39041 0.58485 1.20500
P 	P 	0.71410 0.45260 0.48380 0.51700
C 	C 	0.06200 0.27630 0.35820 0.09500
H 	H 	0.02900 0.31390 0.40220 -0.03000
C 	C 	0.20500 0.23220 0.26100 0.00900
H 	H 	0.29090 0.23460 0.22550 0.00600
C 	C 	0.05900 0.14820 0.25900 -0.00800
H 	H 	0.02730 0.08470 0.22330 0.03000
C 	C 	0.80600 0.11440 0.34030 0.11000
C 	C 	0.76500 0.00500 0.33300 -0.09500
H 	H 	0.84660 0.97320 0.32220 0.06200
C 	C 	0.59900 0.93800 0.34100 -0.06900
H 	H 	0.56580 0.86400 0.32710 0.05300
C 	C 	0.48900 0.98470 0.37030 0.07800
C 	C 	0.53300 0.09580 0.38340 -0.05500
H 	H 	0.45740 0.12860 0.40120 0.05700
C 	C 	0.70000 0.15940 0.36890 -0.11300
H 	H 	0.73460 0.23430 0.38000 0.08800
C 	C 	0.26900 0.81160 0.38860 0.10800
H 	H 	0.33770 0.76890 0.38420 -0.02200
C 	C 	0.06000 0.85700 0.41400 0.01300
H 	H 	0.95850 0.85620 0.43320 0.01200
C 	C 	0.19200 0.94800 0.39700 0.00300
H 	H 	0.18930 0.01820 0.39280 0.03000
C 	C 	0.54800 0.49090 0.17990 0.10400
H 	H 	0.50800 0.41890 0.15850 -0.02200
C 	C 	0.59600 0.63400 0.26090 -0.00800
H 	H 	0.59480 0.68140 0.30740 0.01500
C 	C 	0.68300 0.66400 0.18850 -0.00200
H 	H 	0.75200 0.73290 0.17720 0.02400
C 	C 	0.72000 0.56270 0.05640 0.09300
C 	C 	0.80900 0.65380 0.01700 -0.08100
H 	H 	0.82130 0.72220 0.04170 0.05700
C 	C 	0.88200 0.64390 0.94090 -0.08000
H 	H 	0.94310 0.70620 0.91440 0.05800
C 	C 	0.86500 0.54540 0.90370 0.08000
C 	C 	0.76900 0.45010 0.94100 -0.06800
H 	H 	0.75650 0.38170 0.91580 0.05700
C 	C 	0.69400 0.46230 0.01700 -0.07900
H 	H 	0.62560 0.40100 0.04170 0.06100
C 	C 	0.89400 0.45700 0.75960 0.07100
H 	H 	0.79310 0.40040 0.75600 -0.01900
C 	C 	0.13400 0.56540 0.72730 0.00500
H 	H 	0.22930 0.59510 0.69800 0.01500
C 	C 	0.10000 0.60810 0.80600 -0.00500
H 	H 	0.16390 0.67120 0.83800 0.03300
N 	N 	0.20960 0.31240 0.32160 -0.27200
N 	N 	0.97000 0.17800 0.32160 -0.14000
N 	N 	0.32210 0.91600 0.38640 -0.14100
N 	N 	0.10770 0.77030 0.39750 -0.26900
N 	N 	0.51200 0.52500 0.25620 -0.26600
N 	N 	0.64710 0.57220 0.13650 -0.14000
N 	N 	0.94620 0.53360 0.82600 -0.13500
N 	N 	0.00650 0.47350 0.69950 -0.26900
O 	O 	0.14830 0.60060 0.51760 -0.49700
O 	O 	0.33860 0.54680 0.42300 -0.50900
O 	O 	0.43350 0.61290 0.58110 -0.45900
O 	O 	0.21830 0.42960 0.54720 -0.50400
Zn	Zn	0.40390 0.44224 0.35894 1.20800
Zn	Zn	0.00590 0.60959 0.41515 1.20500
P 	P 	0.28590 0.54740 0.51620 0.51700
