data_crystal

_cell_length_a 35.02410
_cell_length_b 13.33960
_cell_length_c 9.18340
_cell_angle_alpha 90.00000
_cell_angle_beta  104.11600
_cell_angle_gamma 90.00000

_symmetry_space_group_name_	'P 1'
_symmetry_space_group_name_H-M	'P 1'

loop_
_symmetry_equiv_pos_as_xyz
  x,y,z

loop_
_atom_site_label
_atom_site_type_symbol
_atom_site_fract_x
_atom_site_fract_y
_atom_site_fract_z
_atom_site_charge
Ni	Ni	0.36843 0.21665 0.04755 1.05800
C 	C 	0.34988 0.20450 0.35110 0.13100
H 	H 	0.37630 0.18640 0.38250 -0.03000
N 	N 	0.33481 0.22200 0.20420 -0.25200
O 	O 	0.36746 0.36630 0.75790 -0.29900
O 	O 	0.17504 0.63060 0.58710 -0.42500
O 	O 	0.33864 0.33950 0.94760 -0.41300
O 	O 	0.13924 0.55510 0.72520 -0.32100
N 	N 	0.41153 0.30350 0.19070 -0.26600
N 	N 	0.26805 0.24160 0.52510 -0.10100
C 	C 	0.30689 0.44580 0.75040 -0.20800
H 	H 	0.30850 0.48100 0.66470 0.12100
C 	C 	0.20706 0.51660 0.77270 -0.22600
H 	H 	0.20610 0.48390 0.86110 0.12300
C 	C 	0.29636 0.24690 0.16130 0.12600
H 	H 	0.28550 0.25950 0.06010 -0.00800
C 	C 	0.28884 0.23650 0.41000 0.19600
C 	C 	0.27235 0.25470 0.25880 -0.21900
H 	H 	0.24590 0.27160 0.22470 0.13000
C 	C 	0.27523 0.45680 0.80230 0.02200
H 	H 	0.27530 0.42690 0.89380 0.04000
C 	C 	0.32853 0.21200 0.45680 -0.21700
H 	H 	0.34030 0.20090 0.55780 0.12700
C 	C 	0.17148 0.57150 0.68880 0.37700
C 	C 	0.34049 0.37880 0.82380 0.37300
C 	C 	0.24021 0.51240 0.72690 0.03500
H 	H 	0.24110 0.54740 0.64030 0.03300
C 	C 	0.43380 0.45880 0.30900 -0.20700
H 	H 	0.42930 0.52680 0.31930 0.12700
C 	C 	0.46740 0.41440 0.39060 0.17700
C 	C 	0.40645 0.39970 0.21000 0.12800
H 	H 	0.38350 0.42980 0.15490 -0.00600
N 	N 	0.50380 0.45990 0.51450 -0.09100
C 	C 	0.47305 0.31450 0.37380 -0.20500
H 	H 	0.49550 0.28260 0.43000 0.10100
C 	C 	0.44495 0.26160 0.27190 0.11100
H 	H 	0.44920 0.19380 0.25850 -0.04500
Ni	Ni	0.86843 0.71665 0.04755 1.05900
C 	C 	0.84988 0.70450 0.35110 0.13200
H 	H 	0.87630 0.68640 0.38250 -0.03000
N 	N 	0.83481 0.72200 0.20420 -0.25200
O 	O 	0.86746 0.86630 0.75790 -0.29900
O 	O 	0.67504 0.13060 0.58710 -0.42500
O 	O 	0.83864 0.83950 0.94760 -0.41400
O 	O 	0.63924 0.05510 0.72520 -0.32000
N 	N 	0.91153 0.80350 0.19070 -0.26500
N 	N 	0.76805 0.74160 0.52510 -0.10100
C 	C 	0.80689 0.94580 0.75040 -0.20800
H 	H 	0.80850 0.98100 0.66470 0.12100
C 	C 	0.70706 0.01660 0.77270 -0.22400
H 	H 	0.70610 0.98390 0.86110 0.12200
C 	C 	0.79636 0.74690 0.16130 0.12600
H 	H 	0.78550 0.75950 0.06010 -0.00800
C 	C 	0.78884 0.73650 0.41000 0.19600
C 	C 	0.77235 0.75470 0.25880 -0.21800
H 	H 	0.74590 0.77160 0.22470 0.13000
C 	C 	0.77523 0.95680 0.80230 0.02200
H 	H 	0.77530 0.92690 0.89380 0.04000
C 	C 	0.82853 0.71200 0.45680 -0.21700
H 	H 	0.84030 0.70090 0.55780 0.12700
C 	C 	0.67148 0.07150 0.68880 0.37700
C 	C 	0.84049 0.87880 0.82380 0.37300
C 	C 	0.74021 0.01240 0.72690 0.03400
H 	H 	0.74110 0.04740 0.64030 0.03300
C 	C 	0.93380 0.95880 0.30900 -0.20600
H 	H 	0.92930 0.02680 0.31930 0.12600
C 	C 	0.96740 0.91440 0.39060 0.17600
C 	C 	0.90645 0.89970 0.21000 0.12700
H 	H 	0.88350 0.92980 0.15490 -0.00500
N 	N 	0.00380 0.95990 0.51450 -0.09100
C 	C 	0.97305 0.81450 0.37380 -0.20500
H 	H 	0.99550 0.78260 0.43000 0.10100
C 	C 	0.94495 0.76160 0.27190 0.11000
H 	H 	0.94920 0.69380 0.25850 -0.04500
Ni	Ni	0.63157 0.21665 0.45245 1.05900
C 	C 	0.65012 0.20450 0.14890 0.13300
H 	H 	0.62370 0.18640 0.11750 -0.03100
N 	N 	0.66519 0.22200 0.29580 -0.25200
O 	O 	0.63254 0.36630 0.74210 -0.29900
O 	O 	0.82496 0.63060 0.91290 -0.42500
O 	O 	0.66136 0.33950 0.55240 -0.41300
O 	O 	0.86076 0.55510 0.77480 -0.32100
N 	N 	0.58847 0.30350 0.30930 -0.26600
N 	N 	0.73195 0.24160 0.97490 -0.10000
C 	C 	0.69311 0.44580 0.74960 -0.20800
H 	H 	0.69150 0.48100 0.83530 0.12200
C 	C 	0.79294 0.51660 0.72730 -0.22600
H 	H 	0.79390 0.48390 0.63890 0.12300
C 	C 	0.70364 0.24690 0.33870 0.12600
H 	H 	0.71450 0.25950 0.43990 -0.00800
C 	C 	0.71116 0.23650 0.09000 0.19600
C 	C 	0.72765 0.25470 0.24120 -0.21900
H 	H 	0.75410 0.27160 0.27530 0.13000
C 	C 	0.72477 0.45680 0.69770 0.02300
H 	H 	0.72470 0.42690 0.60620 0.04000
C 	C 	0.67147 0.21200 0.04320 -0.21900
H 	H 	0.65970 0.20090 0.94220 0.12800
C 	C 	0.82852 0.57150 0.81120 0.37700
C 	C 	0.65951 0.37880 0.67620 0.37300
C 	C 	0.75979 0.51240 0.77310 0.03400
H 	H 	0.75890 0.54740 0.85970 0.03300
C 	C 	0.56620 0.45880 0.19100 -0.20700
H 	H 	0.57070 0.52680 0.18070 0.12700
C 	C 	0.53260 0.41440 0.10940 0.17700
C 	C 	0.59355 0.39970 0.29000 0.12800
H 	H 	0.61650 0.42980 0.34510 -0.00600
N 	N 	0.49620 0.45990 0.98550 -0.09100
C 	C 	0.52695 0.31450 0.12620 -0.20500
H 	H 	0.50450 0.28260 0.07000 0.10100
C 	C 	0.55505 0.26160 0.22810 0.11100
H 	H 	0.55080 0.19380 0.24150 -0.04500
Ni	Ni	0.13157 0.71665 0.45245 1.05900
C 	C 	0.15012 0.70450 0.14890 0.13200
H 	H 	0.12370 0.68640 0.11750 -0.03000
N 	N 	0.16519 0.72200 0.29580 -0.25200
O 	O 	0.13254 0.86630 0.74210 -0.29900
O 	O 	0.32496 0.13060 0.91290 -0.42400
O 	O 	0.16136 0.83950 0.55240 -0.41300
O 	O 	0.36076 0.05510 0.77480 -0.32000
N 	N 	0.08847 0.80350 0.30930 -0.26500
N 	N 	0.23195 0.74160 0.97490 -0.10100
C 	C 	0.19311 0.94580 0.74960 -0.20800
H 	H 	0.19150 0.98100 0.83530 0.12100
C 	C 	0.29294 0.01660 0.72730 -0.22500
H 	H 	0.29390 0.98390 0.63890 0.12200
C 	C 	0.20364 0.74690 0.33870 0.12600
H 	H 	0.21450 0.75950 0.43990 -0.00800
C 	C 	0.21116 0.73650 0.09000 0.19600
C 	C 	0.22765 0.75470 0.24120 -0.21800
H 	H 	0.25410 0.77160 0.27530 0.13000
C 	C 	0.22477 0.95680 0.69770 0.02100
H 	H 	0.22470 0.92690 0.60620 0.04000
C 	C 	0.17147 0.71200 0.04320 -0.21600
H 	H 	0.15970 0.70090 0.94220 0.12600
C 	C 	0.32852 0.07150 0.81120 0.37700
C 	C 	0.15951 0.87880 0.67620 0.37300
C 	C 	0.25979 0.01240 0.77310 0.03500
H 	H 	0.25890 0.04740 0.85970 0.03300
C 	C 	0.06620 0.95880 0.19100 -0.20500
H 	H 	0.07070 0.02680 0.18070 0.12600
C 	C 	0.03260 0.91440 0.10940 0.17700
C 	C 	0.09355 0.89970 0.29000 0.12700
H 	H 	0.11650 0.92980 0.34510 -0.00500
N 	N 	0.99620 0.95990 0.98550 -0.09100
C 	C 	0.02695 0.81450 0.12620 -0.20500
H 	H 	0.00450 0.78260 0.07000 0.10100
C 	C 	0.05505 0.76160 0.22810 0.11100
H 	H 	0.05080 0.69380 0.24150 -0.04500
Ni	Ni	0.63157 0.78335 0.95245 1.05900
C 	C 	0.65012 0.79550 0.64890 0.13200
H 	H 	0.62370 0.81360 0.61750 -0.03000
N 	N 	0.66519 0.77800 0.79580 -0.25200
O 	O 	0.63254 0.63370 0.24210 -0.29900
O 	O 	0.82496 0.36940 0.41290 -0.42500
O 	O 	0.66136 0.66050 0.05240 -0.41300
O 	O 	0.86076 0.44490 0.27480 -0.32100
N 	N 	0.58847 0.69650 0.80930 -0.26600
N 	N 	0.73195 0.75840 0.47490 -0.10100
C 	C 	0.69311 0.55420 0.24960 -0.20800
H 	H 	0.69150 0.51900 0.33530 0.12100
C 	C 	0.79294 0.48340 0.22730 -0.22600
H 	H 	0.79390 0.51610 0.13890 0.12300
C 	C 	0.70364 0.75310 0.83870 0.12600
H 	H 	0.71450 0.74050 0.93990 -0.00800
C 	C 	0.71116 0.76350 0.59000 0.19600
C 	C 	0.72765 0.74530 0.74120 -0.21900
H 	H 	0.75410 0.72840 0.77530 0.13000
C 	C 	0.72477 0.54320 0.19770 0.02200
H 	H 	0.72470 0.57310 0.10620 0.04000
C 	C 	0.67147 0.78800 0.54320 -0.21700
H 	H 	0.65970 0.79910 0.44220 0.12700
C 	C 	0.82852 0.42850 0.31120 0.37700
C 	C 	0.65951 0.62120 0.17620 0.37300
C 	C 	0.75979 0.48760 0.27310 0.03500
H 	H 	0.75890 0.45260 0.35970 0.03300
C 	C 	0.56620 0.54120 0.69100 -0.20700
H 	H 	0.57070 0.47320 0.68070 0.12700
C 	C 	0.53260 0.58560 0.60940 0.17700
C 	C 	0.59355 0.60030 0.79000 0.12800
H 	H 	0.61650 0.57020 0.84510 -0.00600
N 	N 	0.49620 0.54010 0.48550 -0.09100
C 	C 	0.52695 0.68550 0.62620 -0.20500
H 	H 	0.50450 0.71740 0.57000 0.10100
C 	C 	0.55505 0.73840 0.72810 0.11100
H 	H 	0.55080 0.80620 0.74150 -0.04500
Ni	Ni	0.13157 0.28335 0.95245 1.05900
C 	C 	0.15012 0.29550 0.64890 0.13200
H 	H 	0.12370 0.31360 0.61750 -0.03000
N 	N 	0.16519 0.27800 0.79580 -0.25200
O 	O 	0.13254 0.13370 0.24210 -0.29900
O 	O 	0.32496 0.86940 0.41290 -0.42500
O 	O 	0.16136 0.16050 0.05240 -0.41400
O 	O 	0.36076 0.94490 0.27480 -0.32000
N 	N 	0.08847 0.19650 0.80930 -0.26500
N 	N 	0.23195 0.25840 0.47490 -0.10100
C 	C 	0.19311 0.05420 0.24960 -0.20800
H 	H 	0.19150 0.01900 0.33530 0.12100
C 	C 	0.29294 0.98340 0.22730 -0.22400
H 	H 	0.29390 0.01610 0.13890 0.12200
C 	C 	0.20364 0.25310 0.83870 0.12600
H 	H 	0.21450 0.24050 0.93990 -0.00800
C 	C 	0.21116 0.26350 0.59000 0.19600
C 	C 	0.22765 0.24530 0.74120 -0.21800
H 	H 	0.25410 0.22840 0.77530 0.13000
C 	C 	0.22477 0.04320 0.19770 0.02200
H 	H 	0.22470 0.07310 0.10620 0.04000
C 	C 	0.17147 0.28800 0.54320 -0.21700
H 	H 	0.15970 0.29910 0.44220 0.12700
C 	C 	0.32852 0.92850 0.31120 0.37700
C 	C 	0.15951 0.12120 0.17620 0.37300
C 	C 	0.25979 0.98760 0.27310 0.03400
H 	H 	0.25890 0.95260 0.35970 0.03300
C 	C 	0.06620 0.04120 0.69100 -0.20600
H 	H 	0.07070 0.97320 0.68070 0.12600
C 	C 	0.03260 0.08560 0.60940 0.17600
C 	C 	0.09355 0.10030 0.79000 0.12700
H 	H 	0.11650 0.07020 0.84510 -0.00500
N 	N 	0.99620 0.04010 0.48550 -0.09100
C 	C 	0.02695 0.18550 0.62620 -0.20500
H 	H 	0.00450 0.21740 0.57000 0.10100
C 	C 	0.05505 0.23840 0.72810 0.11000
H 	H 	0.05080 0.30620 0.74150 -0.04500
Ni	Ni	0.36843 0.78335 0.54755 1.05900
C 	C 	0.34988 0.79550 0.85110 0.13300
H 	H 	0.37630 0.81360 0.88250 -0.03100
N 	N 	0.33481 0.77800 0.70420 -0.25200
O 	O 	0.36746 0.63370 0.25790 -0.29900
O 	O 	0.17504 0.36940 0.08710 -0.42500
O 	O 	0.33864 0.66050 0.44760 -0.41300
O 	O 	0.13924 0.44490 0.22520 -0.32100
N 	N 	0.41153 0.69650 0.69070 -0.26600
N 	N 	0.26805 0.75840 0.02510 -0.10000
C 	C 	0.30689 0.55420 0.25040 -0.20800
H 	H 	0.30850 0.51900 0.16470 0.12200
C 	C 	0.20706 0.48340 0.27270 -0.22600
H 	H 	0.20610 0.51610 0.36110 0.12300
C 	C 	0.29636 0.75310 0.66130 0.12600
H 	H 	0.28550 0.74050 0.56010 -0.00800
C 	C 	0.28884 0.76350 0.91000 0.19600
C 	C 	0.27235 0.74530 0.75880 -0.21900
H 	H 	0.24590 0.72840 0.72470 0.13000
C 	C 	0.27523 0.54320 0.30230 0.02300
H 	H 	0.27530 0.57310 0.39380 0.04000
C 	C 	0.32853 0.78800 0.95680 -0.21900
H 	H 	0.34030 0.79910 0.05780 0.12800
C 	C 	0.17148 0.42850 0.18880 0.37700
C 	C 	0.34049 0.62120 0.32380 0.37300
C 	C 	0.24021 0.48760 0.22690 0.03400
H 	H 	0.24110 0.45260 0.14030 0.03300
C 	C 	0.43380 0.54120 0.80900 -0.20700
H 	H 	0.42930 0.47320 0.81930 0.12700
C 	C 	0.46740 0.58560 0.89060 0.17700
C 	C 	0.40645 0.60030 0.71000 0.12800
H 	H 	0.38350 0.57020 0.65490 -0.00600
N 	N 	0.50380 0.54010 0.01450 -0.09100
C 	C 	0.47305 0.68550 0.87380 -0.20500
H 	H 	0.49550 0.71740 0.93000 0.10100
C 	C 	0.44495 0.73840 0.77190 0.11100
H 	H 	0.44920 0.80620 0.75850 -0.04500
Ni	Ni	0.86843 0.28335 0.54755 1.05900
C 	C 	0.84988 0.29550 0.85110 0.13200
H 	H 	0.87630 0.31360 0.88250 -0.03000
N 	N 	0.83481 0.27800 0.70420 -0.25200
O 	O 	0.86746 0.13370 0.25790 -0.29900
O 	O 	0.67504 0.86940 0.08710 -0.42400
O 	O 	0.83864 0.16050 0.44760 -0.41300
O 	O 	0.63924 0.94490 0.22520 -0.32000
N 	N 	0.91153 0.19650 0.69070 -0.26500
N 	N 	0.76805 0.25840 0.02510 -0.10100
C 	C 	0.80689 0.05420 0.25040 -0.20800
H 	H 	0.80850 0.01900 0.16470 0.12100
C 	C 	0.70706 0.98340 0.27270 -0.22500
H 	H 	0.70610 0.01610 0.36110 0.12200
C 	C 	0.79636 0.25310 0.66130 0.12600
H 	H 	0.78550 0.24050 0.56010 -0.00800
C 	C 	0.78884 0.26350 0.91000 0.19600
C 	C 	0.77235 0.24530 0.75880 -0.21800
H 	H 	0.74590 0.22840 0.72470 0.13000
C 	C 	0.77523 0.04320 0.30230 0.02100
H 	H 	0.77530 0.07310 0.39380 0.04000
C 	C 	0.82853 0.28800 0.95680 -0.21600
H 	H 	0.84030 0.29910 0.05780 0.12600
C 	C 	0.67148 0.92850 0.18880 0.37700
C 	C 	0.84049 0.12120 0.32380 0.37300
C 	C 	0.74021 0.98760 0.22690 0.03500
H 	H 	0.74110 0.95260 0.14030 0.03300
C 	C 	0.93380 0.04120 0.80900 -0.20500
H 	H 	0.92930 0.97320 0.81930 0.12600
C 	C 	0.96740 0.08560 0.89060 0.17700
C 	C 	0.90645 0.10030 0.71000 0.12700
H 	H 	0.88350 0.07020 0.65490 -0.00500
N 	N 	0.00380 0.04010 0.01450 -0.09100
C 	C 	0.97305 0.18550 0.87380 -0.20500
H 	H 	0.99550 0.21740 0.93000 0.10100
C 	C 	0.94495 0.23840 0.77190 0.11100
H 	H 	0.94920 0.30620 0.75850 -0.04500
