data_crystal

_cell_length_a 37.06000
_cell_length_b 13.32800
_cell_length_c 9.37300
_cell_angle_alpha 90.00000
_cell_angle_beta  102.15300
_cell_angle_gamma 90.00000

_symmetry_space_group_name_	'P 1'
_symmetry_space_group_name_H-M	'P 1'

loop_
_symmetry_equiv_pos_as_xyz
  x,y,z

loop_
_atom_site_label
_atom_site_type_symbol
_atom_site_fract_x
_atom_site_fract_y
_atom_site_fract_z
_atom_site_charge
Ni	Ni	0.86212 0.21647 0.16563 1.05800
O 	O 	0.82072 0.12860 0.21990 -0.42100
O 	O 	0.66651 0.83760 0.28420 -0.42000
O 	O 	0.85203 0.05630 0.42490 -0.32000
N 	N 	0.83158 0.22430 0.95490 -0.25200
O 	O 	0.64046 0.86330 0.05090 -0.30700
N 	N 	0.90326 0.30860 0.11190 -0.26800
C 	C 	0.77385 0.25450 0.79170 -0.20000
H 	H 	0.74900 0.27060 0.77960 0.11200
C 	C 	0.79562 0.24710 0.92840 0.12100
H 	H 	0.78480 0.25870 0.00780 -0.00800
C 	C 	0.72616 0.95710 0.25360 0.02600
H 	H 	0.72580 0.92750 0.34320 0.03600
C 	C 	0.69654 0.94530 0.14860 -0.22600
H 	H 	0.69520 0.98030 0.06190 0.12400
C 	C 	0.82650 0.21500 0.69780 -0.19900
H 	H 	0.83820 0.20450 0.62030 0.11500
C 	C 	0.75888 0.01180 0.24170 0.03100
H 	H 	0.75840 0.04740 0.15610 0.03200
C 	C 	0.78928 0.01500 0.34260 -0.22800
H 	H 	0.78970 0.98060 0.42920 0.12200
C 	C 	0.76786 0.24330 0.51880 -0.09100
H 	H 	0.78080 0.23670 0.44430 0.07100
C 	C 	0.78930 0.23780 0.67050 0.14800
C 	C 	0.66524 0.87850 0.16230 0.38300
C 	C 	0.82317 0.07040 0.32720 0.37200
C 	C 	0.84620 0.20790 0.83780 0.12300
H 	H 	0.87100 0.19080 0.85270 -0.03100
C 	C 	0.96460 0.33870 0.08500 -0.19600
H 	H 	0.98830 0.31370 0.09050 0.09200
C 	C 	0.93739 0.27770 0.12030 0.10900
H 	H 	0.94350 0.21240 0.15100 -0.04700
C 	C 	0.95630 0.43790 0.04120 0.14700
C 	C 	0.98310 0.50870 0.99880 -0.09200
H 	H 	0.97430 0.57200 0.96750 0.06000
C 	C 	0.92140 0.46720 0.03390 -0.21500
H 	H 	0.91430 0.53200 0.00380 0.12000
C 	C 	0.89603 0.40260 0.07030 0.13000
H 	H 	0.87220 0.42630 0.06550 -0.00900
Ni	Ni	0.36212 0.71647 0.16563 1.05700
O 	O 	0.32072 0.62860 0.21990 -0.42200
O 	O 	0.16651 0.33760 0.28420 -0.42000
O 	O 	0.35203 0.55630 0.42490 -0.32000
N 	N 	0.33158 0.72430 0.95490 -0.25200
O 	O 	0.14046 0.36330 0.05090 -0.30700
N 	N 	0.40326 0.80860 0.11190 -0.26800
C 	C 	0.27385 0.75450 0.79170 -0.20000
H 	H 	0.24900 0.77060 0.77960 0.11200
C 	C 	0.29562 0.74710 0.92840 0.12100
H 	H 	0.28480 0.75870 0.00780 -0.00700
C 	C 	0.22616 0.45710 0.25360 0.02600
H 	H 	0.22580 0.42750 0.34320 0.03600
C 	C 	0.19654 0.44530 0.14860 -0.22600
H 	H 	0.19520 0.48030 0.06190 0.12400
C 	C 	0.32650 0.71500 0.69780 -0.19900
H 	H 	0.33820 0.70450 0.62030 0.11500
C 	C 	0.25888 0.51180 0.24170 0.03100
H 	H 	0.25840 0.54740 0.15610 0.03200
C 	C 	0.28928 0.51500 0.34260 -0.22800
H 	H 	0.28970 0.48060 0.42920 0.12200
C 	C 	0.26786 0.74330 0.51880 -0.09100
H 	H 	0.28080 0.73670 0.44430 0.07100
C 	C 	0.28930 0.73780 0.67050 0.14800
C 	C 	0.16524 0.37850 0.16230 0.38300
C 	C 	0.32317 0.57040 0.32720 0.37200
C 	C 	0.34620 0.70790 0.83780 0.12300
H 	H 	0.37100 0.69080 0.85270 -0.03100
C 	C 	0.46460 0.83870 0.08500 -0.19600
H 	H 	0.48830 0.81370 0.09050 0.09200
C 	C 	0.43739 0.77770 0.12030 0.10900
H 	H 	0.44350 0.71240 0.15100 -0.04700
C 	C 	0.45630 0.93790 0.04120 0.14600
C 	C 	0.48310 0.00870 0.99880 -0.09300
H 	H 	0.47430 0.07200 0.96750 0.06000
C 	C 	0.42140 0.96720 0.03390 -0.21400
H 	H 	0.41430 0.03200 0.00380 0.12000
C 	C 	0.39603 0.90260 0.07030 0.13000
H 	H 	0.37220 0.92630 0.06550 -0.00900
Ni	Ni	0.13788 0.21647 0.33437 1.05700
O 	O 	0.17928 0.12860 0.28010 -0.42200
O 	O 	0.33349 0.83760 0.21580 -0.42000
O 	O 	0.14797 0.05630 0.07510 -0.32000
N 	N 	0.16842 0.22430 0.54510 -0.25200
O 	O 	0.35954 0.86330 0.44910 -0.30700
N 	N 	0.09674 0.30860 0.38810 -0.26800
C 	C 	0.22615 0.25450 0.70830 -0.20000
H 	H 	0.25100 0.27060 0.72040 0.11200
C 	C 	0.20438 0.24710 0.57160 0.12100
H 	H 	0.21520 0.25870 0.49220 -0.00700
C 	C 	0.27384 0.95710 0.24640 0.02600
H 	H 	0.27420 0.92750 0.15680 0.03600
C 	C 	0.30346 0.94530 0.35140 -0.22600
H 	H 	0.30480 0.98030 0.43810 0.12400
C 	C 	0.17350 0.21500 0.80220 -0.19900
H 	H 	0.16180 0.20450 0.87970 0.11500
C 	C 	0.24112 0.01180 0.25830 0.03100
H 	H 	0.24160 0.04740 0.34390 0.03200
C 	C 	0.21072 0.01500 0.15740 -0.22800
H 	H 	0.21030 0.98060 0.07080 0.12200
C 	C 	0.23214 0.24330 0.98120 -0.09100
H 	H 	0.21920 0.23670 0.05570 0.07000
C 	C 	0.21070 0.23780 0.82950 0.14800
C 	C 	0.33476 0.87850 0.33770 0.38300
C 	C 	0.17683 0.07040 0.17280 0.37300
C 	C 	0.15380 0.20790 0.66220 0.12300
H 	H 	0.12900 0.19080 0.64730 -0.03100
C 	C 	0.03540 0.33870 0.41500 -0.19600
H 	H 	0.01170 0.31370 0.40950 0.09200
C 	C 	0.06261 0.27770 0.37970 0.10900
H 	H 	0.05650 0.21240 0.34900 -0.04700
C 	C 	0.04370 0.43790 0.45880 0.14700
C 	C 	0.01690 0.50870 0.50120 -0.09200
H 	H 	0.02570 0.57200 0.53250 0.06000
C 	C 	0.07860 0.46720 0.46610 -0.21500
H 	H 	0.08570 0.53200 0.49620 0.12000
C 	C 	0.10397 0.40260 0.42970 0.13000
H 	H 	0.12780 0.42630 0.43450 -0.00900
Ni	Ni	0.63788 0.71647 0.33437 1.05700
O 	O 	0.67928 0.62860 0.28010 -0.42200
O 	O 	0.83349 0.33760 0.21580 -0.42000
O 	O 	0.64797 0.55630 0.07510 -0.32000
N 	N 	0.66842 0.72430 0.54510 -0.25200
O 	O 	0.85954 0.36330 0.44910 -0.30700
N 	N 	0.59674 0.80860 0.38810 -0.26800
C 	C 	0.72615 0.75450 0.70830 -0.20000
H 	H 	0.75100 0.77060 0.72040 0.11200
C 	C 	0.70438 0.74710 0.57160 0.12100
H 	H 	0.71520 0.75870 0.49220 -0.00800
C 	C 	0.77384 0.45710 0.24640 0.02600
H 	H 	0.77420 0.42750 0.15680 0.03600
C 	C 	0.80346 0.44530 0.35140 -0.22600
H 	H 	0.80480 0.48030 0.43810 0.12400
C 	C 	0.67350 0.71500 0.80220 -0.19900
H 	H 	0.66180 0.70450 0.87970 0.11500
C 	C 	0.74112 0.51180 0.25830 0.03100
H 	H 	0.74160 0.54740 0.34390 0.03200
C 	C 	0.71072 0.51500 0.15740 -0.22800
H 	H 	0.71030 0.48060 0.07080 0.12200
C 	C 	0.73214 0.74330 0.98120 -0.09200
H 	H 	0.71920 0.73670 0.05570 0.07100
C 	C 	0.71070 0.73780 0.82950 0.14900
C 	C 	0.83476 0.37850 0.33770 0.38300
C 	C 	0.67683 0.57040 0.17280 0.37200
C 	C 	0.65380 0.70790 0.66220 0.12300
H 	H 	0.62900 0.69080 0.64730 -0.03100
C 	C 	0.53540 0.83870 0.41500 -0.19600
H 	H 	0.51170 0.81370 0.40950 0.09200
C 	C 	0.56261 0.77770 0.37970 0.10900
H 	H 	0.55650 0.71240 0.34900 -0.04700
C 	C 	0.54370 0.93790 0.45880 0.14700
C 	C 	0.51690 0.00870 0.50120 -0.09300
H 	H 	0.52570 0.07200 0.53250 0.06000
C 	C 	0.57860 0.96720 0.46610 -0.21500
H 	H 	0.58570 0.03200 0.49620 0.12000
C 	C 	0.60397 0.90260 0.42970 0.13000
H 	H 	0.62780 0.92630 0.43450 -0.01000
Ni	Ni	0.13788 0.78353 0.83437 1.05700
O 	O 	0.17928 0.87140 0.78010 -0.42200
O 	O 	0.33349 0.16240 0.71580 -0.42000
O 	O 	0.14797 0.94370 0.57510 -0.32000
N 	N 	0.16842 0.77570 0.04510 -0.25200
O 	O 	0.35954 0.13670 0.94910 -0.30700
N 	N 	0.09674 0.69140 0.88810 -0.26800
C 	C 	0.22615 0.74550 0.20830 -0.20000
H 	H 	0.25100 0.72940 0.22040 0.11200
C 	C 	0.20438 0.75290 0.07160 0.12100
H 	H 	0.21520 0.74130 0.99220 -0.00800
C 	C 	0.27384 0.04290 0.74640 0.02600
H 	H 	0.27420 0.07250 0.65680 0.03600
C 	C 	0.30346 0.05470 0.85140 -0.22600
H 	H 	0.30480 0.01970 0.93810 0.12400
C 	C 	0.17350 0.78500 0.30220 -0.19900
H 	H 	0.16180 0.79550 0.37970 0.11500
C 	C 	0.24112 0.98820 0.75830 0.03100
H 	H 	0.24160 0.95260 0.84390 0.03200
C 	C 	0.21072 0.98500 0.65740 -0.22800
H 	H 	0.21030 0.01940 0.57080 0.12200
C 	C 	0.23214 0.75670 0.48120 -0.09100
H 	H 	0.21920 0.76330 0.55570 0.07100
C 	C 	0.21070 0.76220 0.32950 0.14800
C 	C 	0.33476 0.12150 0.83770 0.38300
C 	C 	0.17683 0.92960 0.67280 0.37200
C 	C 	0.15380 0.79210 0.16220 0.12300
H 	H 	0.12900 0.80920 0.14730 -0.03100
C 	C 	0.03540 0.66130 0.91500 -0.19600
H 	H 	0.01170 0.68630 0.90950 0.09200
C 	C 	0.06261 0.72230 0.87970 0.10900
H 	H 	0.05650 0.78760 0.84900 -0.04700
C 	C 	0.04370 0.56210 0.95880 0.14700
C 	C 	0.01690 0.49130 0.00120 -0.09200
H 	H 	0.02570 0.42800 0.03250 0.06000
C 	C 	0.07860 0.53280 0.96610 -0.21500
H 	H 	0.08570 0.46800 0.99620 0.12000
C 	C 	0.10397 0.59740 0.92970 0.13000
H 	H 	0.12780 0.57370 0.93450 -0.00900
Ni	Ni	0.63788 0.28353 0.83437 1.05700
O 	O 	0.67928 0.37140 0.78010 -0.42200
O 	O 	0.83349 0.66240 0.71580 -0.42000
O 	O 	0.64797 0.44370 0.57510 -0.32000
N 	N 	0.66842 0.27570 0.04510 -0.25200
O 	O 	0.85954 0.63670 0.94910 -0.30700
N 	N 	0.59674 0.19140 0.88810 -0.26800
C 	C 	0.72615 0.24550 0.20830 -0.20000
H 	H 	0.75100 0.22940 0.22040 0.11200
C 	C 	0.70438 0.25290 0.07160 0.12100
H 	H 	0.71520 0.24130 0.99220 -0.00700
C 	C 	0.77384 0.54290 0.74640 0.02600
H 	H 	0.77420 0.57250 0.65680 0.03600
C 	C 	0.80346 0.55470 0.85140 -0.22600
H 	H 	0.80480 0.51970 0.93810 0.12400
C 	C 	0.67350 0.28500 0.30220 -0.19900
H 	H 	0.66180 0.29550 0.37970 0.11500
C 	C 	0.74112 0.48820 0.75830 0.03100
H 	H 	0.74160 0.45260 0.84390 0.03200
C 	C 	0.71072 0.48500 0.65740 -0.22800
H 	H 	0.71030 0.51940 0.57080 0.12200
C 	C 	0.73214 0.25670 0.48120 -0.09100
H 	H 	0.71920 0.26330 0.55570 0.07100
C 	C 	0.71070 0.26220 0.32950 0.14800
C 	C 	0.83476 0.62150 0.83770 0.38300
C 	C 	0.67683 0.42960 0.67280 0.37200
C 	C 	0.65380 0.29210 0.16220 0.12300
H 	H 	0.62900 0.30920 0.14730 -0.03100
C 	C 	0.53540 0.16130 0.91500 -0.19600
H 	H 	0.51170 0.18630 0.90950 0.09200
C 	C 	0.56261 0.22230 0.87970 0.10900
H 	H 	0.55650 0.28760 0.84900 -0.04700
C 	C 	0.54370 0.06210 0.95880 0.14600
C 	C 	0.51690 0.99130 0.00120 -0.09300
H 	H 	0.52570 0.92800 0.03250 0.06000
C 	C 	0.57860 0.03280 0.96610 -0.21400
H 	H 	0.58570 0.96800 0.99620 0.12000
C 	C 	0.60397 0.09740 0.92970 0.13000
H 	H 	0.62780 0.07370 0.93450 -0.00900
Ni	Ni	0.86212 0.78353 0.66563 1.05700
O 	O 	0.82072 0.87140 0.71990 -0.42200
O 	O 	0.66651 0.16240 0.78420 -0.42000
O 	O 	0.85203 0.94370 0.92490 -0.32000
N 	N 	0.83158 0.77570 0.45490 -0.25200
O 	O 	0.64046 0.13670 0.55090 -0.30700
N 	N 	0.90326 0.69140 0.61190 -0.26800
C 	C 	0.77385 0.74550 0.29170 -0.20000
H 	H 	0.74900 0.72940 0.27960 0.11200
C 	C 	0.79562 0.75290 0.42840 0.12100
H 	H 	0.78480 0.74130 0.50780 -0.00700
C 	C 	0.72616 0.04290 0.75360 0.02600
H 	H 	0.72580 0.07250 0.84320 0.03600
C 	C 	0.69654 0.05470 0.64860 -0.22600
H 	H 	0.69520 0.01970 0.56190 0.12400
C 	C 	0.82650 0.78500 0.19780 -0.19900
H 	H 	0.83820 0.79550 0.12030 0.11500
C 	C 	0.75888 0.98820 0.74170 0.03100
H 	H 	0.75840 0.95260 0.65610 0.03200
C 	C 	0.78928 0.98500 0.84260 -0.22800
H 	H 	0.78970 0.01940 0.92920 0.12200
C 	C 	0.76786 0.75670 0.01880 -0.09100
H 	H 	0.78080 0.76330 0.94430 0.07000
C 	C 	0.78930 0.76220 0.17050 0.14800
C 	C 	0.66524 0.12150 0.66230 0.38300
C 	C 	0.82317 0.92960 0.82720 0.37300
C 	C 	0.84620 0.79210 0.33780 0.12300
H 	H 	0.87100 0.80920 0.35270 -0.03100
C 	C 	0.96460 0.66130 0.58500 -0.19600
H 	H 	0.98830 0.68630 0.59050 0.09200
C 	C 	0.93739 0.72230 0.62030 0.10900
H 	H 	0.94350 0.78760 0.65100 -0.04700
C 	C 	0.95630 0.56210 0.54120 0.14700
C 	C 	0.98310 0.49130 0.49880 -0.09200
H 	H 	0.97430 0.42800 0.46750 0.06000
C 	C 	0.92140 0.53280 0.53390 -0.21500
H 	H 	0.91430 0.46800 0.50380 0.12000
C 	C 	0.89603 0.59740 0.57030 0.13000
H 	H 	0.87220 0.57370 0.56550 -0.00900
Ni	Ni	0.36212 0.28353 0.66563 1.05700
O 	O 	0.32072 0.37140 0.71990 -0.42200
O 	O 	0.16651 0.66240 0.78420 -0.42000
O 	O 	0.35203 0.44370 0.92490 -0.32000
N 	N 	0.33158 0.27570 0.45490 -0.25200
O 	O 	0.14046 0.63670 0.55090 -0.30700
N 	N 	0.40326 0.19140 0.61190 -0.26800
C 	C 	0.27385 0.24550 0.29170 -0.20000
H 	H 	0.24900 0.22940 0.27960 0.11200
C 	C 	0.29562 0.25290 0.42840 0.12100
H 	H 	0.28480 0.24130 0.50780 -0.00800
C 	C 	0.22616 0.54290 0.75360 0.02600
H 	H 	0.22580 0.57250 0.84320 0.03600
C 	C 	0.19654 0.55470 0.64860 -0.22600
H 	H 	0.19520 0.51970 0.56190 0.12400
C 	C 	0.32650 0.28500 0.19780 -0.19900
H 	H 	0.33820 0.29550 0.12030 0.11500
C 	C 	0.25888 0.48820 0.74170 0.03100
H 	H 	0.25840 0.45260 0.65610 0.03200
C 	C 	0.28928 0.48500 0.84260 -0.22800
H 	H 	0.28970 0.51940 0.92920 0.12200
C 	C 	0.26786 0.25670 0.01880 -0.09200
H 	H 	0.28080 0.26330 0.94430 0.07100
C 	C 	0.28930 0.26220 0.17050 0.14900
C 	C 	0.16524 0.62150 0.66230 0.38300
C 	C 	0.32317 0.42960 0.82720 0.37200
C 	C 	0.34620 0.29210 0.33780 0.12300
H 	H 	0.37100 0.30920 0.35270 -0.03100
C 	C 	0.46460 0.16130 0.58500 -0.19600
H 	H 	0.48830 0.18630 0.59050 0.09200
C 	C 	0.43739 0.22230 0.62030 0.10900
H 	H 	0.44350 0.28760 0.65100 -0.04700
C 	C 	0.45630 0.06210 0.54120 0.14700
C 	C 	0.48310 0.99130 0.49880 -0.09300
H 	H 	0.47430 0.92800 0.46750 0.06000
C 	C 	0.42140 0.03280 0.53390 -0.21500
H 	H 	0.41430 0.96800 0.50380 0.12000
C 	C 	0.39603 0.09740 0.57030 0.13000
H 	H 	0.37220 0.07370 0.56550 -0.01000
