data_crystal

_cell_length_a 8.56600
_cell_length_b 8.56600
_cell_length_c 37.81100
_cell_angle_alpha 90.00000
_cell_angle_beta  90.00000
_cell_angle_gamma 120.00000

_symmetry_space_group_name_	'P 1'
_symmetry_space_group_name_H-M	'P 1'

loop_
_symmetry_equiv_pos_as_xyz
  x,y,z

loop_
_atom_site_label
_atom_site_type_symbol
_atom_site_fract_x
_atom_site_fract_y
_atom_site_fract_z
_atom_site_charge
Cd	Cd	0.00000 0.00000 0.66667 1.15200
Cd	Cd	-0.00000 -0.00000 0.33333 1.15200
Cd	Cd	-0.00000 0.00000 -0.00000 1.15100
In	In	0.50000 0.50000 0.77804 1.99000
In	In	-0.00000 0.50000 0.44471 1.94500
In	In	0.50000 0.00000 0.11137 1.94400
In	In	-0.00000 0.50000 0.88863 1.94400
In	In	0.50000 0.50000 0.22196 1.99000
In	In	0.50000 -0.00000 0.55529 1.94600
C 	C 	0.27820 0.17750 0.72542 0.21900
C 	C 	0.22610 0.32130 0.71710 0.22900
C 	C 	0.89930 0.72180 0.39209 0.41000
C 	C 	0.09520 0.77390 0.38377 0.07400
C 	C 	0.82250 0.10070 0.05875 0.05100
C 	C 	0.67870 0.90480 0.05043 0.43100
C 	C 	0.72180 0.82250 0.72542 0.23600
C 	C 	0.77390 0.67870 0.71710 0.25900
C 	C 	0.10070 0.27820 0.39209 0.04200
C 	C 	0.90480 0.22610 0.38377 0.41900
C 	C 	0.17750 0.89930 0.05875 0.40800
C 	C 	0.32130 0.09520 0.05043 0.05200
C 	C 	0.10070 0.82250 0.94125 0.05100
C 	C 	0.90480 0.67870 0.94957 0.43100
C 	C 	0.17750 0.27820 0.27458 0.21900
C 	C 	0.32130 0.22610 0.28290 0.22900
C 	C 	0.72180 0.89930 0.60791 0.41000
C 	C 	0.77390 0.09520 0.61623 0.07400
C 	C 	0.89930 0.17750 0.94125 0.40900
C 	C 	0.09520 0.32130 0.94957 0.05200
C 	C 	0.82250 0.72180 0.27458 0.23600
C 	C 	0.67870 0.77390 0.28290 0.26000
C 	C 	0.27820 0.10070 0.60791 0.04200
C 	C 	0.22610 0.90480 0.61623 0.41900
C 	C 	0.70480 0.40960 0.83333 0.26200
C 	C 	0.80720 0.61440 0.83333 0.21400
C 	C 	0.70480 0.29520 0.50000 0.24100
C 	C 	0.80720 0.19280 0.50000 0.22100
C 	C 	0.59040 0.29520 0.16667 0.22000
C 	C 	0.38560 0.19280 0.16667 0.22800
C 	C 	0.29520 0.59040 0.83333 0.22000
C 	C 	0.19280 0.38560 0.83333 0.22800
C 	C 	0.29520 0.70480 0.50000 0.24100
C 	C 	0.19280 0.80720 0.50000 0.22100
C 	C 	0.40960 0.70480 0.16667 0.26200
C 	C 	0.61440 0.80720 0.16667 0.21400
O 	O 	0.57850 0.33040 0.81194 -0.40400
O 	O 	0.29510 0.46060 0.73615 -0.41600
O 	O 	0.12050 0.28970 0.69213 -0.35400
O 	O 	0.39160 0.21410 0.74959 -0.37200
O 	O 	0.75620 0.69010 0.81155 -0.29300
O 	O 	0.20520 0.03550 0.70731 -0.42300
O 	O 	0.75190 0.42150 0.47861 -0.33100
O 	O 	0.16550 0.70490 0.40282 -0.36300
O 	O 	0.16920 0.87950 0.35880 -0.17500
O 	O 	0.82250 0.60840 0.41626 -0.31000
O 	O 	0.93390 0.24380 0.47822 -0.30100
O 	O 	0.83030 0.79480 0.37398 -0.23000
O 	O 	0.66960 0.24810 0.14527 -0.38200
O 	O 	0.53940 0.83450 0.06948 -0.39200
O 	O 	0.71030 0.83080 0.02546 -0.21500
O 	O 	0.78590 0.17750 0.08292 -0.29200
O 	O 	0.30990 0.06610 0.14488 -0.47500
O 	O 	0.96450 0.16970 0.04064 -0.18800
O 	O 	0.42150 0.66960 0.81194 -0.34800
O 	O 	0.70490 0.53940 0.73615 -0.37200
O 	O 	0.87950 0.71030 0.69213 -0.14200
O 	O 	0.60840 0.78590 0.74959 -0.28400
O 	O 	0.24380 0.30990 0.81155 -0.42900
O 	O 	0.79480 0.96450 0.70731 -0.13900
O 	O 	0.24810 0.57850 0.47861 -0.41000
O 	O 	0.83450 0.29510 0.40282 -0.41300
O 	O 	0.83080 0.12050 0.35880 -0.31700
O 	O 	0.17750 0.39160 0.41626 -0.33600
O 	O 	0.06610 0.75620 0.47822 -0.40500
O 	O 	0.16970 0.20520 0.37398 -0.33100
O 	O 	0.33040 0.75190 0.14527 -0.35800
O 	O 	0.46060 0.16550 0.06948 -0.38500
O 	O 	0.28970 0.16920 0.02546 -0.28700
O 	O 	0.21410 0.82250 0.08292 -0.35500
O 	O 	0.69010 0.93390 0.14488 -0.23600
O 	O 	0.03550 0.83030 0.04064 -0.37400
O 	O 	0.24810 0.66960 0.85473 -0.38200
O 	O 	0.83450 0.53940 0.93052 -0.39000
O 	O 	0.83080 0.71030 0.97454 -0.20900
O 	O 	0.17750 0.78590 0.91708 -0.29100
O 	O 	0.06610 0.30990 0.85512 -0.47500
O 	O 	0.16970 0.96450 0.95936 -0.18400
O 	O 	0.33040 0.57850 0.18806 -0.40400
O 	O 	0.46060 0.29510 0.26385 -0.41600
O 	O 	0.28970 0.12050 0.30787 -0.35400
O 	O 	0.21410 0.39160 0.25041 -0.37200
O 	O 	0.69010 0.75620 0.18845 -0.29300
O 	O 	0.03550 0.20520 0.29269 -0.42300
O 	O 	0.42150 0.75190 0.52139 -0.33100
O 	O 	0.70490 0.16550 0.59718 -0.36300
O 	O 	0.87950 0.16920 0.64120 -0.17500
O 	O 	0.60840 0.82250 0.58374 -0.31000
O 	O 	0.24380 0.93390 0.52178 -0.30100
O 	O 	0.79480 0.83030 0.62602 -0.23000
O 	O 	0.75190 0.33040 0.85473 -0.35800
O 	O 	0.16550 0.46060 0.93052 -0.38400
O 	O 	0.16920 0.28970 0.97454 -0.28000
O 	O 	0.82250 0.21410 0.91708 -0.35400
O 	O 	0.93390 0.69010 0.85512 -0.23600
O 	O 	0.83030 0.03550 0.95936 -0.37000
O 	O 	0.66960 0.42150 0.18806 -0.34800
O 	O 	0.53940 0.70490 0.26385 -0.37200
O 	O 	0.71030 0.87950 0.30787 -0.14200
O 	O 	0.78590 0.60840 0.25041 -0.28400
O 	O 	0.30990 0.24380 0.18845 -0.42900
O 	O 	0.96450 0.79480 0.29269 -0.13900
O 	O 	0.57850 0.24810 0.52139 -0.41000
O 	O 	0.29510 0.83450 0.59718 -0.41300
O 	O 	0.12050 0.83080 0.64120 -0.31700
O 	O 	0.39160 0.17750 0.58374 -0.33600
O 	O 	0.75620 0.06610 0.52178 -0.40500
O 	O 	0.20520 0.16970 0.62602 -0.33100
