data_crystal

_cell_length_a 16.98580
_cell_length_b 16.98580
_cell_length_c 16.98580
_cell_angle_alpha 90.00000
_cell_angle_beta  90.00000
_cell_angle_gamma 90.00000

_symmetry_space_group_name_	'P 1'
_symmetry_space_group_name_H-M	'P 1'

loop_
_symmetry_equiv_pos_as_xyz
  x,y,z

loop_
_atom_site_label
_atom_site_type_symbol
_atom_site_fract_x
_atom_site_fract_y
_atom_site_fract_z
_atom_site_charge
N 	N 	0.02918 0.41060 0.31965 -0.42100
C 	C 	0.10129 0.37646 0.32120 -0.03000
H 	H 	0.14360 0.38950 0.28900 -0.01300
H 	H 	0.89570 0.38720 0.45100 0.29500
N 	N 	0.52918 0.91060 0.81965 -0.31300
C 	C 	0.60129 0.87646 0.82120 -0.00700
H 	H 	0.64360 0.88950 0.78900 0.00800
H 	H 	0.39570 0.88720 0.95100 0.30500
N 	N 	0.97082 0.58940 0.31965 -0.22600
C 	C 	0.89871 0.62354 0.32120 -0.01600
H 	H 	0.85640 0.61050 0.28900 -0.01000
H 	H 	0.10430 0.61280 0.45100 0.13100
N 	N 	0.47082 0.08940 0.81965 -0.34200
C 	C 	0.39871 0.12354 0.82120 -0.03100
H 	H 	0.35640 0.11050 0.78900 -0.02300
H 	H 	0.60430 0.11280 0.95100 0.23900
N 	N 	0.97082 0.41060 0.68035 -0.22500
C 	C 	0.89871 0.37646 0.67880 -0.01400
H 	H 	0.85640 0.38950 0.71100 -0.01000
H 	H 	0.10430 0.38720 0.54900 0.13300
N 	N 	0.47082 0.91060 0.18035 -0.30500
C 	C 	0.39871 0.87646 0.17880 -0.01400
H 	H 	0.35640 0.88950 0.21100 -0.00400
H 	H 	0.60430 0.88720 0.04900 0.20200
N 	N 	0.02918 0.58940 0.68035 -0.41900
C 	C 	0.10129 0.62354 0.67880 -0.02500
H 	H 	0.14360 0.61050 0.71100 -0.01100
H 	H 	0.89570 0.61280 0.54900 0.29600
N 	N 	0.52918 0.08940 0.18035 -0.33100
C 	C 	0.60129 0.12354 0.17880 -0.03400
H 	H 	0.64360 0.11050 0.21100 -0.02500
H 	H 	0.39570 0.11280 0.04900 0.11200
N 	N 	0.31965 0.02918 0.41060 -0.42000
C 	C 	0.32120 0.10129 0.37646 -0.02900
H 	H 	0.28900 0.14360 0.38950 -0.01200
H 	H 	0.45100 0.89570 0.38720 0.29600
N 	N 	0.81965 0.52918 0.91060 -0.31200
C 	C 	0.82120 0.60129 0.87646 -0.00600
H 	H 	0.78900 0.64360 0.88950 0.00900
H 	H 	0.95100 0.39570 0.88720 0.30600
N 	N 	0.31965 0.97082 0.58940 -0.22500
C 	C 	0.32120 0.89871 0.62354 -0.01500
H 	H 	0.28900 0.85640 0.61050 -0.00900
H 	H 	0.45100 0.10430 0.61280 0.13200
N 	N 	0.81965 0.47082 0.08940 -0.34100
C 	C 	0.82120 0.39871 0.12354 -0.03000
H 	H 	0.78900 0.35640 0.11050 -0.02200
H 	H 	0.95100 0.60430 0.11280 0.23900
N 	N 	0.68035 0.97082 0.41060 -0.22500
C 	C 	0.67880 0.89871 0.37646 -0.01400
H 	H 	0.71100 0.85640 0.38950 -0.01000
H 	H 	0.54900 0.10430 0.38720 0.13300
N 	N 	0.18035 0.47082 0.91060 -0.30500
C 	C 	0.17880 0.39871 0.87646 -0.01400
H 	H 	0.21100 0.35640 0.88950 -0.00400
H 	H 	0.04900 0.60430 0.88720 0.20200
N 	N 	0.68035 0.02918 0.58940 -0.41900
C 	C 	0.67880 0.10129 0.62354 -0.02500
H 	H 	0.71100 0.14360 0.61050 -0.01100
H 	H 	0.54900 0.89570 0.61280 0.29600
N 	N 	0.18035 0.52918 0.08940 -0.33100
C 	C 	0.17880 0.60129 0.12354 -0.03400
H 	H 	0.21100 0.64360 0.11050 -0.02500
H 	H 	0.04900 0.39570 0.11280 0.11200
N 	N 	0.41060 0.31965 0.02918 -0.42000
C 	C 	0.37646 0.32120 0.10129 -0.02900
H 	H 	0.38950 0.28900 0.14360 -0.01200
H 	H 	0.38720 0.45100 0.89570 0.29600
N 	N 	0.91060 0.81965 0.52918 -0.31200
C 	C 	0.87646 0.82120 0.60129 -0.00600
H 	H 	0.88950 0.78900 0.64360 0.00900
H 	H 	0.88720 0.95100 0.39570 0.30600
N 	N 	0.58940 0.31965 0.97082 -0.22500
C 	C 	0.62354 0.32120 0.89871 -0.01500
H 	H 	0.61050 0.28900 0.85640 -0.00900
H 	H 	0.61280 0.45100 0.10430 0.13200
N 	N 	0.08940 0.81965 0.47082 -0.34100
C 	C 	0.12354 0.82120 0.39871 -0.03000
H 	H 	0.11050 0.78900 0.35640 -0.02200
H 	H 	0.11280 0.95100 0.60430 0.23900
N 	N 	0.41060 0.68035 0.97082 -0.22500
C 	C 	0.37646 0.67880 0.89871 -0.01400
H 	H 	0.38950 0.71100 0.85640 -0.01000
H 	H 	0.38720 0.54900 0.10430 0.13300
N 	N 	0.91060 0.18035 0.47082 -0.30500
C 	C 	0.87646 0.17880 0.39871 -0.01400
H 	H 	0.88950 0.21100 0.35640 -0.00400
H 	H 	0.88720 0.04900 0.60430 0.20200
N 	N 	0.58940 0.68035 0.02918 -0.41900
C 	C 	0.62354 0.67880 0.10129 -0.02500
H 	H 	0.61050 0.71100 0.14360 -0.01100
H 	H 	0.61280 0.54900 0.89570 0.29600
N 	N 	0.08940 0.18035 0.52918 -0.33100
C 	C 	0.12354 0.17880 0.60129 -0.03400
H 	H 	0.11050 0.21100 0.64360 -0.02500
H 	H 	0.11280 0.04900 0.39570 0.11200
N 	N 	0.41060 0.02918 0.31965 -0.42000
C 	C 	0.37646 0.10129 0.32120 -0.02900
H 	H 	0.38950 0.14360 0.28900 -0.01200
H 	H 	0.38720 0.89570 0.45100 0.29600
N 	N 	0.91060 0.52918 0.81965 -0.31200
C 	C 	0.87646 0.60129 0.82120 -0.00600
H 	H 	0.88950 0.64360 0.78900 0.00900
H 	H 	0.88720 0.39570 0.95100 0.30600
N 	N 	0.58940 0.97082 0.31965 -0.22500
C 	C 	0.62354 0.89871 0.32120 -0.01500
H 	H 	0.61050 0.85640 0.28900 -0.00900
H 	H 	0.61280 0.10430 0.45100 0.13200
N 	N 	0.08940 0.47082 0.81965 -0.34100
C 	C 	0.12354 0.39871 0.82120 -0.03000
H 	H 	0.11050 0.35640 0.78900 -0.02200
H 	H 	0.11280 0.60430 0.95100 0.23900
N 	N 	0.41060 0.97082 0.68035 -0.22500
C 	C 	0.37646 0.89871 0.67880 -0.01400
H 	H 	0.38950 0.85640 0.71100 -0.01000
H 	H 	0.38720 0.10430 0.54900 0.13300
N 	N 	0.91060 0.47082 0.18035 -0.30500
C 	C 	0.87646 0.39871 0.17880 -0.01400
H 	H 	0.88950 0.35640 0.21100 -0.00400
H 	H 	0.88720 0.60430 0.04900 0.20200
N 	N 	0.58940 0.02918 0.68035 -0.41900
C 	C 	0.62354 0.10129 0.67880 -0.02500
H 	H 	0.61050 0.14360 0.71100 -0.01100
H 	H 	0.61280 0.89570 0.54900 0.29600
N 	N 	0.08940 0.52918 0.18035 -0.33100
C 	C 	0.12354 0.60129 0.17880 -0.03400
H 	H 	0.11050 0.64360 0.21100 -0.02500
H 	H 	0.11280 0.39570 0.04900 0.11200
N 	N 	0.02918 0.31965 0.41060 -0.42000
C 	C 	0.10129 0.32120 0.37646 -0.02900
H 	H 	0.14360 0.28900 0.38950 -0.01200
H 	H 	0.89570 0.45100 0.38720 0.29600
N 	N 	0.52918 0.81965 0.91060 -0.31200
C 	C 	0.60129 0.82120 0.87646 -0.00600
H 	H 	0.64360 0.78900 0.88950 0.00900
H 	H 	0.39570 0.95100 0.88720 0.30600
N 	N 	0.97082 0.31965 0.58940 -0.22500
C 	C 	0.89871 0.32120 0.62354 -0.01500
H 	H 	0.85640 0.28900 0.61050 -0.00900
H 	H 	0.10430 0.45100 0.61280 0.13200
N 	N 	0.47082 0.81965 0.08940 -0.34100
C 	C 	0.39871 0.82120 0.12354 -0.03000
H 	H 	0.35640 0.78900 0.11050 -0.02200
H 	H 	0.60430 0.95100 0.11280 0.23900
N 	N 	0.97082 0.68035 0.41060 -0.22500
C 	C 	0.89871 0.67880 0.37646 -0.01400
H 	H 	0.85640 0.71100 0.38950 -0.01000
H 	H 	0.10430 0.54900 0.38720 0.13300
N 	N 	0.47082 0.18035 0.91060 -0.30500
C 	C 	0.39871 0.17880 0.87646 -0.01400
H 	H 	0.35640 0.21100 0.88950 -0.00400
H 	H 	0.60430 0.04900 0.88720 0.20200
N 	N 	0.02918 0.68035 0.58940 -0.41900
C 	C 	0.10129 0.67880 0.62354 -0.02500
H 	H 	0.14360 0.71100 0.61050 -0.01100
H 	H 	0.89570 0.54900 0.61280 0.29600
N 	N 	0.52918 0.18035 0.08940 -0.33100
C 	C 	0.60129 0.17880 0.12354 -0.03400
H 	H 	0.64360 0.21100 0.11050 -0.02500
H 	H 	0.39570 0.04900 0.11280 0.11200
N 	N 	0.31965 0.41060 0.02918 -0.42000
C 	C 	0.32120 0.37646 0.10129 -0.02900
H 	H 	0.28900 0.38950 0.14360 -0.01200
H 	H 	0.45100 0.38720 0.89570 0.29600
N 	N 	0.81965 0.91060 0.52918 -0.31200
C 	C 	0.82120 0.87646 0.60129 -0.00600
H 	H 	0.78900 0.88950 0.64360 0.00900
H 	H 	0.95100 0.88720 0.39570 0.30600
N 	N 	0.31965 0.58940 0.97082 -0.22500
C 	C 	0.32120 0.62354 0.89871 -0.01500
H 	H 	0.28900 0.61050 0.85640 -0.00900
H 	H 	0.45100 0.61280 0.10430 0.13200
N 	N 	0.81965 0.08940 0.47082 -0.34100
C 	C 	0.82120 0.12354 0.39871 -0.03000
H 	H 	0.78900 0.11050 0.35640 -0.02200
H 	H 	0.95100 0.11280 0.60430 0.23900
N 	N 	0.68035 0.41060 0.97082 -0.22500
C 	C 	0.67880 0.37646 0.89871 -0.01400
H 	H 	0.71100 0.38950 0.85640 -0.01000
H 	H 	0.54900 0.38720 0.10430 0.13300
N 	N 	0.18035 0.91060 0.47082 -0.30500
C 	C 	0.17880 0.87646 0.39871 -0.01400
H 	H 	0.21100 0.88950 0.35640 -0.00400
H 	H 	0.04900 0.88720 0.60430 0.20200
N 	N 	0.68035 0.58940 0.02918 -0.41900
C 	C 	0.67880 0.62354 0.10129 -0.02500
H 	H 	0.71100 0.61050 0.14360 -0.01100
H 	H 	0.54900 0.61280 0.89570 0.29600
N 	N 	0.18035 0.08940 0.52918 -0.33100
C 	C 	0.17880 0.12354 0.60129 -0.03400
H 	H 	0.21100 0.11050 0.64360 -0.02500
H 	H 	0.04900 0.11280 0.39570 0.11200
Zn	Zn	0.00000 0.50000 0.25000 1.13700
Zn	Zn	-0.00000 0.50000 0.75000 1.13800
Zn	Zn	0.50000 0.00000 0.25000 1.13700
Zn	Zn	0.25000 0.00000 0.50000 1.13700
Zn	Zn	0.75000 0.00000 0.50000 1.13800
Zn	Zn	0.25000 0.50000 -0.00000 1.13700
Zn	Zn	0.50000 0.25000 -0.00000 1.13700
Zn	Zn	0.50000 0.75000 -0.00000 1.13800
Zn	Zn	0.00000 0.25000 0.50000 1.13700
Zn	Zn	0.50000 0.00000 0.75000 1.13800
Zn	Zn	-0.00000 0.75000 0.50000 1.13800
Zn	Zn	0.75000 0.50000 -0.00000 1.13800
C 	C 	0.98690 0.37550 0.37550 0.50300
C 	C 	0.90420 0.39570 0.39570 -1.02800
H 	H 	0.86790 0.36510 0.36510 0.30600
C 	C 	0.48690 0.87550 0.87550 0.33600
C 	C 	0.40420 0.89570 0.89570 -0.94600
H 	H 	0.36790 0.86510 0.86510 0.29300
C 	C 	0.01310 0.62450 0.37550 0.03000
C 	C 	0.09580 0.60430 0.39570 -0.54800
H 	H 	0.13210 0.63490 0.36510 0.15600
C 	C 	0.51310 0.12450 0.87550 0.27000
C 	C 	0.59580 0.10430 0.89570 -0.80000
H 	H 	0.63210 0.13490 0.86510 0.23800
C 	C 	0.01310 0.37550 0.62450 0.03000
C 	C 	0.09580 0.39570 0.60430 -0.54800
H 	H 	0.13210 0.36510 0.63490 0.15600
C 	C 	0.51310 0.87550 0.12450 0.27000
C 	C 	0.59580 0.89570 0.10430 -0.80000
H 	H 	0.63210 0.86510 0.13490 0.23800
C 	C 	0.98690 0.62450 0.62450 0.50700
C 	C 	0.90420 0.60430 0.60430 -1.03100
H 	H 	0.86790 0.63490 0.63490 0.30800
C 	C 	0.48690 0.12450 0.12450 0.19300
C 	C 	0.40420 0.10430 0.10430 -0.61000
H 	H 	0.36790 0.13490 0.13490 0.15800
C 	C 	0.37550 0.98690 0.37550 0.50300
C 	C 	0.39570 0.90420 0.39570 -1.02800
H 	H 	0.36510 0.86790 0.36510 0.30600
C 	C 	0.87550 0.48690 0.87550 0.33600
C 	C 	0.89570 0.40420 0.89570 -0.94600
H 	H 	0.86510 0.36790 0.86510 0.29300
C 	C 	0.37550 0.01310 0.62450 0.03000
C 	C 	0.39570 0.09580 0.60430 -0.54800
H 	H 	0.36510 0.13210 0.63490 0.15600
C 	C 	0.87550 0.51310 0.12450 0.27000
C 	C 	0.89570 0.59580 0.10430 -0.80000
H 	H 	0.86510 0.63210 0.13490 0.23800
C 	C 	0.62450 0.01310 0.37550 0.03000
C 	C 	0.60430 0.09580 0.39570 -0.54800
H 	H 	0.63490 0.13210 0.36510 0.15600
C 	C 	0.12450 0.51310 0.87550 0.27000
C 	C 	0.10430 0.59580 0.89570 -0.80000
H 	H 	0.13490 0.63210 0.86510 0.23800
C 	C 	0.62450 0.98690 0.62450 0.50700
C 	C 	0.60430 0.90420 0.60430 -1.03100
H 	H 	0.63490 0.86790 0.63490 0.30800
C 	C 	0.12450 0.48690 0.12450 0.19300
C 	C 	0.10430 0.40420 0.10430 -0.61000
H 	H 	0.13490 0.36790 0.13490 0.15800
C 	C 	0.37550 0.37550 0.98690 0.50300
C 	C 	0.39570 0.39570 0.90420 -1.02800
H 	H 	0.36510 0.36510 0.86790 0.30600
C 	C 	0.87550 0.87550 0.48690 0.33600
C 	C 	0.89570 0.89570 0.40420 -0.94600
H 	H 	0.86510 0.86510 0.36790 0.29300
C 	C 	0.62450 0.37550 0.01310 0.03000
C 	C 	0.60430 0.39570 0.09580 -0.54800
H 	H 	0.63490 0.36510 0.13210 0.15600
C 	C 	0.12450 0.87550 0.51310 0.27000
C 	C 	0.10430 0.89570 0.59580 -0.80000
H 	H 	0.13490 0.86510 0.63210 0.23800
C 	C 	0.37550 0.62450 0.01310 0.03000
C 	C 	0.39570 0.60430 0.09580 -0.54800
H 	H 	0.36510 0.63490 0.13210 0.15600
C 	C 	0.87550 0.12450 0.51310 0.27000
C 	C 	0.89570 0.10430 0.59580 -0.80000
H 	H 	0.86510 0.13490 0.63210 0.23800
C 	C 	0.62450 0.62450 0.98690 0.50700
C 	C 	0.60430 0.60430 0.90420 -1.03100
H 	H 	0.63490 0.63490 0.86790 0.30800
C 	C 	0.12450 0.12450 0.48690 0.19300
C 	C 	0.10430 0.10430 0.40420 -0.61000
H 	H 	0.13490 0.13490 0.36790 0.15800
