data_crystal

_cell_length_a 11.10370
_cell_length_b 11.10370
_cell_length_c 15.93950
_cell_angle_alpha 90.00000
_cell_angle_beta  90.00000
_cell_angle_gamma 90.00000

_symmetry_space_group_name_	'P 1'
_symmetry_space_group_name_H-M	'P 1'

loop_
_symmetry_equiv_pos_as_xyz
  x,y,z

loop_
_atom_site_label
_atom_site_type_symbol
_atom_site_fract_x
_atom_site_fract_y
_atom_site_fract_z
_atom_site_charge
C 	C 	0.96360 0.24630 0.31708 0.06900
C 	C 	0.96450 0.37130 0.32101 -0.05100
H 	H 	0.93680 0.19150 0.36990 -0.01400
H 	H 	0.93120 0.41430 0.37710 0.04700
C 	C 	0.03640 0.75370 0.31708 0.03800
C 	C 	0.03550 0.62870 0.32101 -0.08100
H 	H 	0.06320 0.80850 0.36990 -0.00800
H 	H 	0.06880 0.58570 0.37710 0.03900
C 	C 	0.75370 0.96360 0.31708 0.06500
C 	C 	0.62870 0.96450 0.32101 -0.04900
H 	H 	0.80850 0.93680 0.36990 -0.00300
H 	H 	0.58570 0.93120 0.37710 0.04800
C 	C 	0.24630 0.03640 0.31708 0.03500
C 	C 	0.37130 0.03550 0.32101 -0.08400
H 	H 	0.19150 0.06320 0.36990 -0.02200
H 	H 	0.41430 0.06880 0.37710 0.03800
C 	C 	0.03640 0.24630 0.18292 0.03500
C 	C 	0.03550 0.37130 0.17899 -0.08300
H 	H 	0.06320 0.19150 0.13010 -0.02100
H 	H 	0.06880 0.41430 0.12290 0.03800
C 	C 	0.96360 0.75370 0.18292 0.06500
C 	C 	0.96450 0.62870 0.17899 -0.04900
H 	H 	0.93680 0.80850 0.13010 -0.00300
H 	H 	0.93120 0.58570 0.12290 0.04800
C 	C 	0.24630 0.96360 0.18292 0.06900
C 	C 	0.37130 0.96450 0.17899 -0.05100
H 	H 	0.19150 0.93680 0.13010 -0.01400
H 	H 	0.41430 0.93120 0.12290 0.04600
C 	C 	0.75370 0.03640 0.18292 0.03800
C 	C 	0.62870 0.03550 0.17899 -0.08100
H 	H 	0.80850 0.06320 0.13010 -0.00800
H 	H 	0.58570 0.06880 0.12290 0.03900
C 	C 	-0.00000 0.43390 0.25000 -0.00000
N 	N 	0.00000 0.18210 0.25000 -0.24900
C 	C 	0.00000 0.56610 0.25000 0.00200
N 	N 	0.00000 0.81790 0.25000 -0.23500
C 	C 	0.56610 0.00000 0.25000 0.00200
N 	N 	0.81790 0.00000 0.25000 -0.23500
C 	C 	0.43390 0.00000 0.25000 0.00000
N 	N 	0.18210 0.00000 0.25000 -0.24900
Cu	Cu	0.00000 0.00000 0.25000 0.82900
C 	C 	0.03640 0.75370 0.68292 0.03800
C 	C 	0.03550 0.62870 0.67899 -0.08100
H 	H 	0.06320 0.80850 0.63010 -0.00800
H 	H 	0.06880 0.58570 0.62290 0.03900
C 	C 	0.96360 0.24630 0.68292 0.06900
C 	C 	0.96450 0.37130 0.67899 -0.05100
H 	H 	0.93680 0.19150 0.63010 -0.01400
H 	H 	0.93120 0.41430 0.62290 0.04700
C 	C 	0.24630 0.03640 0.68292 0.03500
C 	C 	0.37130 0.03550 0.67899 -0.08400
H 	H 	0.19150 0.06320 0.63010 -0.02200
H 	H 	0.41430 0.06880 0.62290 0.03800
C 	C 	0.75370 0.96360 0.68292 0.06500
C 	C 	0.62870 0.96450 0.67899 -0.04900
H 	H 	0.80850 0.93680 0.63010 -0.00300
H 	H 	0.58570 0.93120 0.62290 0.04800
C 	C 	0.96360 0.75370 0.81708 0.06500
C 	C 	0.96450 0.62870 0.82101 -0.04900
H 	H 	0.93680 0.80850 0.86990 -0.00300
H 	H 	0.93120 0.58570 0.87710 0.04800
C 	C 	0.03640 0.24630 0.81708 0.03500
C 	C 	0.03550 0.37130 0.82101 -0.08300
H 	H 	0.06320 0.19150 0.86990 -0.02100
H 	H 	0.06880 0.41430 0.87710 0.03800
C 	C 	0.75370 0.03640 0.81708 0.03800
C 	C 	0.62870 0.03550 0.82101 -0.08100
H 	H 	0.80850 0.06320 0.86990 -0.00800
H 	H 	0.58570 0.06880 0.87710 0.03900
C 	C 	0.24630 0.96360 0.81708 0.06900
C 	C 	0.37130 0.96450 0.82101 -0.05100
H 	H 	0.19150 0.93680 0.86990 -0.01400
H 	H 	0.41430 0.93120 0.87710 0.04600
C 	C 	0.00000 0.56610 0.75000 0.00200
N 	N 	0.00000 0.81790 0.75000 -0.23500
C 	C 	0.00000 0.43390 0.75000 -0.00000
N 	N 	0.00000 0.18210 0.75000 -0.24900
C 	C 	0.43390 0.00000 0.75000 0.00000
N 	N 	0.18210 0.00000 0.75000 -0.24900
C 	C 	0.56610 0.00000 0.75000 0.00200
N 	N 	0.81790 0.00000 0.75000 -0.23500
Cu	Cu	0.00000 0.00000 0.75000 0.82900
