data_crystal

_cell_length_a 22.51210
_cell_length_b 22.66100
_cell_length_c 33.34090
_cell_angle_alpha 90.00000
_cell_angle_beta  90.00000
_cell_angle_gamma 90.00000

_symmetry_space_group_name_	'P 1'
_symmetry_space_group_name_H-M	'P 1'

loop_
_symmetry_equiv_pos_as_xyz
  x,y,z

loop_
_atom_site_label
_atom_site_type_symbol
_atom_site_fract_x
_atom_site_fract_y
_atom_site_fract_z
_atom_site_charge
In	In	0.91361 0.30102 0.25550 1.88900
In	In	0.82206 0.23196 0.33533 1.88200
In	In	0.98401 0.31012 0.35687 1.88300
In	In	0.97621 0.15883 0.29199 1.88200
In	In	0.75270 0.15495 0.42251 1.89000
In	In	0.89206 0.23307 0.44854 1.88300
In	In	0.04184 0.30150 0.46103 1.89000
In	In	0.88527 0.07841 0.38281 1.88300
In	In	0.04437 0.15772 0.40710 1.88400
In	In	0.03172 0.02362 0.34507 1.88900
S 	S 	0.81102 0.28870 0.27467 -0.96800
S 	S 	0.97680 0.36460 0.29535 -0.95900
S 	S 	0.96420 0.21370 0.23043 -0.95500
S 	S 	0.72553 0.20970 0.36252 -0.95900
S 	S 	0.88248 0.29033 0.38451 -1.47700
S 	S 	0.04180 0.36740 0.40371 -0.95300
S 	S 	0.87450 0.13698 0.31970 -1.47200
S 	S 	0.03558 0.21470 0.34316 -1.47700
S 	S 	0.03050 0.06950 0.27939 -0.95700
S 	S 	0.79500 0.21440 0.47541 -0.95600
S 	S 	0.94880 0.28980 0.49613 -0.96500
S 	S 	0.78980 0.05650 0.41134 -0.97300
S 	S 	0.94284 0.13689 0.43366 -1.49200
S 	S 	0.10270 0.21410 0.45404 -0.95400
S 	S 	0.93550 0.98700 0.36723 -0.96000
S 	S 	0.09550 0.06600 0.39586 -0.96600
N 	N 	0.59390 0.15250 0.49370 -0.34500
N 	N 	0.66830 0.13790 0.45120 -0.35300
N 	N 	0.90210 0.36170 0.20520 -0.34700
N 	N 	0.92130 0.44230 0.17030 -0.34600
C 	C 	0.62900 0.09210 0.44900 0.00100
H 	H 	0.63290 0.05930 0.43140 -0.01000
C 	C 	0.85330 0.37580 0.18480 -0.00100
H 	H 	0.81700 0.35430 0.18490 -0.00800
C 	C 	0.58290 0.09970 0.47590 -0.01300
H 	H 	0.55060 0.07380 0.48090 -0.00800
C 	C 	0.64370 0.17270 0.47710 0.08200
H 	H 	0.66000 0.21000 0.48380 -0.05800
C 	C 	0.86420 0.42570 0.16390 -0.01600
H 	H 	0.83640 0.44590 0.14750 -0.00300
C 	C 	0.94070 0.40350 0.19640 0.08400
H 	H 	0.97920 0.40540 0.20800 -0.07200
In	In	0.58639 0.69898 0.75550 1.89000
In	In	0.67794 0.76804 0.83533 1.88300
In	In	0.51599 0.68988 0.85687 1.88400
In	In	0.52379 0.84117 0.79199 1.88400
In	In	0.74730 0.84505 0.92251 1.89100
In	In	0.60794 0.76693 0.94854 1.88400
In	In	0.45816 0.69850 0.96103 1.89000
In	In	0.61473 0.92159 0.88281 1.88300
In	In	0.45563 0.84228 0.90710 1.88300
In	In	0.46828 0.97638 0.84507 1.88900
S 	S 	0.68898 0.71130 0.77467 -0.96800
S 	S 	0.52320 0.63540 0.79535 -0.96000
S 	S 	0.53580 0.78630 0.73043 -0.95500
S 	S 	0.77447 0.79030 0.86252 -0.95800
S 	S 	0.61752 0.70967 0.88451 -1.47700
S 	S 	0.45820 0.63260 0.90371 -0.95500
S 	S 	0.62550 0.86302 0.81970 -1.47100
S 	S 	0.46442 0.78530 0.84316 -1.47900
S 	S 	0.46950 0.93050 0.77939 -0.96000
S 	S 	0.70500 0.78560 0.97541 -0.95600
S 	S 	0.55120 0.71020 0.99613 -0.96600
S 	S 	0.71020 0.94350 0.91134 -0.97300
S 	S 	0.55716 0.86311 0.93366 -1.49200
S 	S 	0.39730 0.78590 0.95404 -0.95600
S 	S 	0.56450 0.01300 0.86723 -0.96200
S 	S 	0.40450 0.93400 0.89586 -0.96800
N 	N 	0.90610 0.84750 0.99370 -0.34500
N 	N 	0.83170 0.86210 0.95120 -0.35300
N 	N 	0.59790 0.63830 0.70520 -0.34700
N 	N 	0.57870 0.55770 0.67030 -0.34600
C 	C 	0.87100 0.90790 0.94900 0.00100
H 	H 	0.86710 0.94070 0.93140 -0.00900
C 	C 	0.64670 0.62420 0.68480 -0.00100
H 	H 	0.68300 0.64570 0.68490 -0.00800
C 	C 	0.91710 0.90030 0.97590 -0.01300
H 	H 	0.94940 0.92620 0.98090 -0.00800
C 	C 	0.85630 0.82730 0.97710 0.08200
H 	H 	0.84000 0.79000 0.98380 -0.05800
C 	C 	0.63580 0.57430 0.66390 -0.01600
H 	H 	0.66360 0.55410 0.64750 -0.00300
C 	C 	0.55930 0.59650 0.69640 0.08400
H 	H 	0.52080 0.59460 0.70800 -0.07200
In	In	0.08639 0.80102 0.24450 1.89000
In	In	0.17794 0.73196 0.16467 1.88300
In	In	0.01599 0.81012 0.14313 1.88400
In	In	0.02379 0.65883 0.20801 1.88400
In	In	0.24730 0.65495 0.07749 1.89100
In	In	0.10794 0.73307 0.05146 1.88400
In	In	0.95816 0.80150 0.03897 1.89000
In	In	0.11473 0.57841 0.11719 1.88300
In	In	0.95563 0.65772 0.09290 1.88400
In	In	0.96828 0.52362 0.15493 1.88900
S 	S 	0.18898 0.78870 0.22533 -0.96800
S 	S 	0.02320 0.86460 0.20465 -0.96000
S 	S 	0.03580 0.71370 0.26957 -0.95400
S 	S 	0.27447 0.70970 0.13748 -0.95900
S 	S 	0.11752 0.79033 0.11549 -1.47700
S 	S 	0.95820 0.86740 0.09629 -0.95300
S 	S 	0.12550 0.63698 0.18030 -1.47100
S 	S 	0.96442 0.71470 0.15684 -1.47800
S 	S 	0.96950 0.56950 0.22061 -0.95800
S 	S 	0.20500 0.71440 0.02459 -0.95600
S 	S 	0.05120 0.78980 0.00387 -0.96500
S 	S 	0.21020 0.55650 0.08866 -0.97200
S 	S 	0.05716 0.63689 0.06634 -1.49100
S 	S 	0.89730 0.71410 0.04596 -0.95500
S 	S 	0.06450 0.48700 0.13277 -0.96100
S 	S 	0.90450 0.56600 0.10414 -0.96700
N 	N 	0.40610 0.65250 0.00630 -0.34500
N 	N 	0.33170 0.63790 0.04880 -0.35300
N 	N 	0.09790 0.86170 0.29480 -0.34700
N 	N 	0.07870 0.94230 0.32970 -0.34600
C 	C 	0.37100 0.59210 0.05100 0.00100
H 	H 	0.36710 0.55930 0.06860 -0.00900
C 	C 	0.14670 0.87580 0.31520 -0.00100
H 	H 	0.18300 0.85430 0.31510 -0.00800
C 	C 	0.41710 0.59970 0.02410 -0.01300
H 	H 	0.44940 0.57380 0.01910 -0.00800
C 	C 	0.35630 0.67270 0.02290 0.08200
H 	H 	0.34000 0.71000 0.01620 -0.05800
C 	C 	0.13580 0.92570 0.33610 -0.01600
H 	H 	0.16360 0.94590 0.35250 -0.00300
C 	C 	0.05930 0.90350 0.30360 0.08400
H 	H 	0.02080 0.90540 0.29200 -0.07200
In	In	0.41361 0.19898 0.74450 1.89000
In	In	0.32206 0.26804 0.66467 1.88300
In	In	0.48401 0.18988 0.64313 1.88400
In	In	0.47621 0.34117 0.70801 1.88400
In	In	0.25270 0.34505 0.57749 1.89100
In	In	0.39206 0.26693 0.55146 1.88400
In	In	0.54184 0.19850 0.53897 1.89000
In	In	0.38527 0.42159 0.61719 1.88300
In	In	0.54437 0.34228 0.59290 1.88300
In	In	0.53172 0.47638 0.65493 1.88900
S 	S 	0.31102 0.21130 0.72533 -0.96800
S 	S 	0.47680 0.13540 0.70465 -0.96000
S 	S 	0.46420 0.28630 0.76957 -0.95500
S 	S 	0.22553 0.29030 0.63748 -0.95800
S 	S 	0.38248 0.20967 0.61549 -1.47700
S 	S 	0.54180 0.13260 0.59629 -0.95500
S 	S 	0.37450 0.36302 0.68030 -1.47100
S 	S 	0.53558 0.28530 0.65684 -1.47900
S 	S 	0.53050 0.43050 0.72061 -0.95900
S 	S 	0.29500 0.28560 0.52459 -0.95600
S 	S 	0.44880 0.21020 0.50387 -0.96500
S 	S 	0.28980 0.44350 0.58866 -0.97200
S 	S 	0.44284 0.36311 0.56634 -1.49100
S 	S 	0.60270 0.28590 0.54596 -0.95500
S 	S 	0.43550 0.51300 0.63277 -0.96200
S 	S 	0.59550 0.43400 0.60414 -0.96700
N 	N 	0.09390 0.34750 0.50630 -0.34500
N 	N 	0.16830 0.36210 0.54880 -0.35200
N 	N 	0.40210 0.13830 0.79480 -0.34700
N 	N 	0.42130 0.05770 0.82970 -0.34600
C 	C 	0.12900 0.40790 0.55100 0.00100
H 	H 	0.13290 0.44070 0.56860 -0.00900
C 	C 	0.35330 0.12420 0.81520 -0.00100
H 	H 	0.31700 0.14570 0.81510 -0.00800
C 	C 	0.08290 0.40030 0.52410 -0.01300
H 	H 	0.05060 0.42620 0.51910 -0.00800
C 	C 	0.14370 0.32730 0.52290 0.08200
H 	H 	0.16000 0.29000 0.51620 -0.05800
C 	C 	0.36420 0.07430 0.83610 -0.01600
H 	H 	0.33640 0.05410 0.85250 -0.00300
C 	C 	0.44070 0.09650 0.80360 0.08400
H 	H 	0.47920 0.09460 0.79200 -0.07200
In	In	0.08639 0.69898 0.74450 1.89000
In	In	0.17794 0.76804 0.66467 1.88300
In	In	0.01599 0.68988 0.64313 1.88400
In	In	0.02379 0.84117 0.70801 1.88300
In	In	0.24730 0.84505 0.57749 1.89100
In	In	0.10794 0.76693 0.55146 1.88400
In	In	0.95816 0.69850 0.53897 1.89000
In	In	0.11473 0.92159 0.61719 1.88300
In	In	0.95563 0.84228 0.59290 1.88400
In	In	0.96828 0.97638 0.65493 1.88900
S 	S 	0.18898 0.71130 0.72533 -0.96800
S 	S 	0.02320 0.63540 0.70465 -0.95900
S 	S 	0.03580 0.78630 0.76957 -0.95500
S 	S 	0.27447 0.79030 0.63748 -0.95900
S 	S 	0.11752 0.70967 0.61549 -1.47700
S 	S 	0.95820 0.63260 0.59629 -0.95300
S 	S 	0.12550 0.86302 0.68030 -1.47200
S 	S 	0.96442 0.78530 0.65684 -1.47700
S 	S 	0.96950 0.93050 0.72061 -0.95700
S 	S 	0.20500 0.78560 0.52459 -0.95600
S 	S 	0.05120 0.71020 0.50387 -0.96500
S 	S 	0.21020 0.94350 0.58866 -0.97300
S 	S 	0.05716 0.86311 0.56634 -1.49200
S 	S 	0.89730 0.78590 0.54596 -0.95400
S 	S 	0.06450 0.01300 0.63277 -0.96000
S 	S 	0.90450 0.93400 0.60414 -0.96600
N 	N 	0.40610 0.84750 0.50630 -0.34500
N 	N 	0.33170 0.86210 0.54880 -0.35300
N 	N 	0.09790 0.63830 0.79480 -0.34700
N 	N 	0.07870 0.55770 0.82970 -0.34600
C 	C 	0.37100 0.90790 0.55100 0.00100
H 	H 	0.36710 0.94070 0.56860 -0.01000
C 	C 	0.14670 0.62420 0.81520 -0.00100
H 	H 	0.18300 0.64570 0.81510 -0.00800
C 	C 	0.41710 0.90030 0.52410 -0.01300
H 	H 	0.44940 0.92620 0.51910 -0.00800
C 	C 	0.35630 0.82730 0.52290 0.08200
H 	H 	0.34000 0.79000 0.51620 -0.05800
C 	C 	0.13580 0.57430 0.83610 -0.01600
H 	H 	0.16360 0.55410 0.85250 -0.00300
C 	C 	0.05930 0.59650 0.80360 0.08400
H 	H 	0.02080 0.59460 0.79200 -0.07200
In	In	0.41361 0.30102 0.24450 1.89000
In	In	0.32206 0.23196 0.16467 1.88300
In	In	0.48401 0.31012 0.14313 1.88400
In	In	0.47621 0.15883 0.20801 1.88400
In	In	0.25270 0.15495 0.07749 1.89100
In	In	0.39206 0.23307 0.05146 1.88400
In	In	0.54184 0.30150 0.03897 1.89000
In	In	0.38527 0.07841 0.11719 1.88300
In	In	0.54437 0.15772 0.09290 1.88300
In	In	0.53172 0.02362 0.15493 1.88900
S 	S 	0.31102 0.28870 0.22533 -0.96800
S 	S 	0.47680 0.36460 0.20465 -0.96000
S 	S 	0.46420 0.21370 0.26957 -0.95500
S 	S 	0.22553 0.20970 0.13748 -0.95800
S 	S 	0.38248 0.29033 0.11549 -1.47700
S 	S 	0.54180 0.36740 0.09629 -0.95500
S 	S 	0.37450 0.13698 0.18030 -1.47100
S 	S 	0.53558 0.21470 0.15684 -1.47900
S 	S 	0.53050 0.06950 0.22061 -0.96000
S 	S 	0.29500 0.21440 0.02459 -0.95600
S 	S 	0.44880 0.28980 0.00387 -0.96600
S 	S 	0.28980 0.05650 0.08866 -0.97300
S 	S 	0.44284 0.13689 0.06634 -1.49200
S 	S 	0.60270 0.21410 0.04596 -0.95600
S 	S 	0.43550 0.98700 0.13277 -0.96200
S 	S 	0.59550 0.06600 0.10414 -0.96800
N 	N 	0.09390 0.15250 0.00630 -0.34500
N 	N 	0.16830 0.13790 0.04880 -0.35300
N 	N 	0.40210 0.36170 0.29480 -0.34700
N 	N 	0.42130 0.44230 0.32970 -0.34600
C 	C 	0.12900 0.09210 0.05100 0.00100
H 	H 	0.13290 0.05930 0.06860 -0.00900
C 	C 	0.35330 0.37580 0.31520 -0.00100
H 	H 	0.31700 0.35430 0.31510 -0.00800
C 	C 	0.08290 0.09970 0.02410 -0.01300
H 	H 	0.05060 0.07380 0.01910 -0.00800
C 	C 	0.14370 0.17270 0.02290 0.08200
H 	H 	0.16000 0.21000 0.01620 -0.05800
C 	C 	0.36420 0.42570 0.33610 -0.01600
H 	H 	0.33640 0.44590 0.35250 -0.00300
C 	C 	0.44070 0.40350 0.30360 0.08400
H 	H 	0.47920 0.40540 0.29200 -0.07200
In	In	0.91361 0.19898 0.75550 1.89000
In	In	0.82206 0.26804 0.83533 1.88300
In	In	0.98401 0.18988 0.85687 1.88400
In	In	0.97621 0.34117 0.79199 1.88400
In	In	0.75270 0.34505 0.92251 1.89100
In	In	0.89206 0.26693 0.94854 1.88400
In	In	0.04184 0.19850 0.96103 1.89000
In	In	0.88527 0.42159 0.88281 1.88300
In	In	0.04437 0.34228 0.90710 1.88400
In	In	0.03172 0.47638 0.84507 1.88900
S 	S 	0.81102 0.21130 0.77467 -0.96800
S 	S 	0.97680 0.13540 0.79535 -0.96000
S 	S 	0.96420 0.28630 0.73043 -0.95400
S 	S 	0.72553 0.29030 0.86252 -0.95900
S 	S 	0.88248 0.20967 0.88451 -1.47700
S 	S 	0.04180 0.13260 0.90371 -0.95300
S 	S 	0.87450 0.36302 0.81970 -1.47100
S 	S 	0.03558 0.28530 0.84316 -1.47800
S 	S 	0.03050 0.43050 0.77939 -0.95800
S 	S 	0.79500 0.28560 0.97541 -0.95600
S 	S 	0.94880 0.21020 0.99613 -0.96500
S 	S 	0.78980 0.44350 0.91134 -0.97200
S 	S 	0.94284 0.36311 0.93366 -1.49100
S 	S 	0.10270 0.28590 0.95404 -0.95500
S 	S 	0.93550 0.51300 0.86723 -0.96100
S 	S 	0.09550 0.43400 0.89586 -0.96700
N 	N 	0.59390 0.34750 0.99370 -0.34500
N 	N 	0.66830 0.36210 0.95120 -0.35300
N 	N 	0.90210 0.13830 0.70520 -0.34700
N 	N 	0.92130 0.05770 0.67030 -0.34600
C 	C 	0.62900 0.40790 0.94900 0.00100
H 	H 	0.63290 0.44070 0.93140 -0.00900
C 	C 	0.85330 0.12420 0.68480 -0.00100
H 	H 	0.81700 0.14570 0.68490 -0.00800
C 	C 	0.58290 0.40030 0.97590 -0.01300
H 	H 	0.55060 0.42620 0.98090 -0.00800
C 	C 	0.64370 0.32730 0.97710 0.08200
H 	H 	0.66000 0.29000 0.98380 -0.05800
C 	C 	0.86420 0.07430 0.66390 -0.01600
H 	H 	0.83640 0.05410 0.64750 -0.00300
C 	C 	0.94070 0.09650 0.69640 0.08400
H 	H 	0.97920 0.09460 0.70800 -0.07200
In	In	0.58639 0.80102 0.25550 1.89000
In	In	0.67794 0.73196 0.33533 1.88300
In	In	0.51599 0.81012 0.35687 1.88400
In	In	0.52379 0.65883 0.29199 1.88400
In	In	0.74730 0.65495 0.42251 1.89100
In	In	0.60794 0.73307 0.44854 1.88400
In	In	0.45816 0.80150 0.46103 1.89000
In	In	0.61473 0.57841 0.38281 1.88300
In	In	0.45563 0.65772 0.40710 1.88300
In	In	0.46828 0.52362 0.34507 1.88900
S 	S 	0.68898 0.78870 0.27467 -0.96800
S 	S 	0.52320 0.86460 0.29535 -0.96000
S 	S 	0.53580 0.71370 0.23043 -0.95500
S 	S 	0.77447 0.70970 0.36252 -0.95800
S 	S 	0.61752 0.79033 0.38451 -1.47700
S 	S 	0.45820 0.86740 0.40371 -0.95500
S 	S 	0.62550 0.63698 0.31970 -1.47100
S 	S 	0.46442 0.71470 0.34316 -1.47900
S 	S 	0.46950 0.56950 0.27939 -0.95900
S 	S 	0.70500 0.71440 0.47541 -0.95600
S 	S 	0.55120 0.78980 0.49613 -0.96500
S 	S 	0.71020 0.55650 0.41134 -0.97200
S 	S 	0.55716 0.63689 0.43366 -1.49100
S 	S 	0.39730 0.71410 0.45404 -0.95500
S 	S 	0.56450 0.48700 0.36723 -0.96200
S 	S 	0.40450 0.56600 0.39586 -0.96700
N 	N 	0.90610 0.65250 0.49370 -0.34500
N 	N 	0.83170 0.63790 0.45120 -0.35200
N 	N 	0.59790 0.86170 0.20520 -0.34700
N 	N 	0.57870 0.94230 0.17030 -0.34600
C 	C 	0.87100 0.59210 0.44900 0.00100
H 	H 	0.86710 0.55930 0.43140 -0.00900
C 	C 	0.64670 0.87580 0.18480 -0.00100
H 	H 	0.68300 0.85430 0.18490 -0.00800
C 	C 	0.91710 0.59970 0.47590 -0.01300
H 	H 	0.94940 0.57380 0.48090 -0.00800
C 	C 	0.85630 0.67270 0.47710 0.08200
H 	H 	0.84000 0.71000 0.48380 -0.05800
C 	C 	0.63580 0.92570 0.16390 -0.01600
H 	H 	0.66360 0.94590 0.14750 -0.00300
C 	C 	0.55930 0.90350 0.19640 0.08400
H 	H 	0.52080 0.90540 0.20800 -0.07200
