data_crystal

_cell_length_a 45.45480
_cell_length_b 45.45480
_cell_length_c 15.59510
_cell_angle_alpha 90.00000
_cell_angle_beta  90.00000
_cell_angle_gamma 120.00000

_symmetry_space_group_name_	'P 1'
_symmetry_space_group_name_H-M	'P 1'

loop_
_symmetry_equiv_pos_as_xyz
  x,y,z

loop_
_atom_site_label
_atom_site_type_symbol
_atom_site_fract_x
_atom_site_fract_y
_atom_site_fract_z
_atom_site_charge
O 	O 	0.42525 0.51597 0.58533 -0.69200
O 	O 	0.41967 0.47071 0.65870 -0.80800
C 	C 	0.41093 0.49219 0.63880 0.53800
C 	C 	0.38059 0.48961 0.68610 -0.21600
C 	C 	0.36765 0.51009 0.65720 0.08500
H 	H 	0.37740 0.52440 0.60880 0.01300
C 	C 	0.34025 0.50909 0.70060 -0.14200
H 	H 	0.33180 0.52360 0.68360 0.07300
C 	C 	0.32533 0.48661 0.76910 0.06300
C 	C 	0.33845 0.46593 0.79420 -0.15700
H 	H 	0.32830 0.45060 0.84070 0.06300
C 	C 	0.36602 0.46749 0.75230 0.09700
H 	H 	0.37470 0.45320 0.76960 -0.03300
C 	C 	0.29626 0.48527 0.81560 0.02100
C 	C 	0.27014 0.48614 0.77150 -0.11500
H 	H 	0.27080 0.48740 0.71060 0.06100
C 	C 	0.26973 0.48447 0.95330 0.01800
C 	C 	0.29565 0.48456 0.90600 -0.09200
H 	H 	0.31370 0.48410 0.93570 0.05100
O 	O 	0.48403 0.90928 0.58533 -0.69200
O 	O 	0.52929 0.94896 0.65870 -0.80200
C 	C 	0.50781 0.91874 0.63880 0.53700
C 	C 	0.51039 0.89098 0.68610 -0.21400
C 	C 	0.48991 0.85756 0.65720 0.08500
H 	H 	0.47560 0.85300 0.60880 0.01300
C 	C 	0.49091 0.83116 0.70060 -0.14100
H 	H 	0.47640 0.80820 0.68360 0.07400
C 	C 	0.51339 0.83872 0.76910 0.06400
C 	C 	0.53407 0.87252 0.79420 -0.15500
H 	H 	0.54940 0.87770 0.84070 0.06600
C 	C 	0.53251 0.89853 0.75230 0.09800
H 	H 	0.54680 0.92150 0.76960 -0.02800
C 	C 	0.51473 0.81099 0.81560 0.02300
C 	C 	0.51386 0.78400 0.77150 -0.11400
H 	H 	0.51260 0.78340 0.71060 0.06300
C 	C 	0.51553 0.78526 0.95330 0.02000
C 	C 	0.51544 0.81109 0.90600 -0.09100
H 	H 	0.51590 0.82960 0.93570 0.05300
O 	O 	0.09072 0.57475 0.58533 -0.69200
O 	O 	0.05104 0.58033 0.65870 -0.81100
C 	C 	0.08126 0.58907 0.63880 0.54000
C 	C 	0.10902 0.61941 0.68610 -0.21700
C 	C 	0.14244 0.63235 0.65720 0.08700
H 	H 	0.14700 0.62260 0.60880 0.01400
C 	C 	0.16884 0.65975 0.70060 -0.14200
H 	H 	0.19180 0.66820 0.68360 0.07400
C 	C 	0.16128 0.67467 0.76910 0.06400
C 	C 	0.12748 0.66155 0.79420 -0.15800
H 	H 	0.12230 0.67170 0.84070 0.06400
C 	C 	0.10147 0.63398 0.75230 0.09900
H 	H 	0.07850 0.62530 0.76960 -0.03400
C 	C 	0.18901 0.70374 0.81560 0.02200
C 	C 	0.21600 0.72986 0.77150 -0.11400
H 	H 	0.21660 0.72920 0.71060 0.06200
C 	C 	0.21474 0.73027 0.95330 0.01900
C 	C 	0.18891 0.70435 0.90600 -0.09000
H 	H 	0.17040 0.68630 0.93570 0.05200
O 	O 	0.57475 0.48403 0.58533 -0.69100
O 	O 	0.58033 0.52929 0.65870 -0.80600
C 	C 	0.58907 0.50781 0.63880 0.53900
C 	C 	0.61941 0.51039 0.68610 -0.21500
C 	C 	0.63235 0.48991 0.65720 0.08700
H 	H 	0.62260 0.47560 0.60880 0.01400
C 	C 	0.65975 0.49091 0.70060 -0.14100
H 	H 	0.66820 0.47640 0.68360 0.07400
C 	C 	0.67467 0.51339 0.76910 0.06400
C 	C 	0.66155 0.53407 0.79420 -0.15600
H 	H 	0.67170 0.54940 0.84070 0.06600
C 	C 	0.63398 0.53251 0.75230 0.09800
H 	H 	0.62530 0.54680 0.76960 -0.03100
C 	C 	0.70374 0.51473 0.81560 0.02200
C 	C 	0.72986 0.51386 0.77150 -0.11400
H 	H 	0.72920 0.51260 0.71060 0.06300
C 	C 	0.73027 0.51553 0.95330 0.02000
C 	C 	0.70435 0.51544 0.90600 -0.09000
H 	H 	0.68630 0.51590 0.93570 0.05200
O 	O 	0.51597 0.09072 0.58533 -0.69200
O 	O 	0.47071 0.05104 0.65870 -0.81100
C 	C 	0.49219 0.08126 0.63880 0.54000
C 	C 	0.48961 0.10902 0.68610 -0.21700
C 	C 	0.51009 0.14244 0.65720 0.08700
H 	H 	0.52440 0.14700 0.60880 0.01400
C 	C 	0.50909 0.16884 0.70060 -0.14200
H 	H 	0.52360 0.19180 0.68360 0.07400
C 	C 	0.48661 0.16128 0.76910 0.06400
C 	C 	0.46593 0.12748 0.79420 -0.15800
H 	H 	0.45060 0.12230 0.84070 0.06400
C 	C 	0.46749 0.10147 0.75230 0.09900
H 	H 	0.45320 0.07850 0.76960 -0.03500
C 	C 	0.48527 0.18901 0.81560 0.02100
C 	C 	0.48614 0.21600 0.77150 -0.11400
H 	H 	0.48740 0.21660 0.71060 0.06200
C 	C 	0.48447 0.21474 0.95330 0.01900
C 	C 	0.48456 0.18891 0.90600 -0.09100
H 	H 	0.48410 0.17040 0.93570 0.05200
O 	O 	0.90928 0.42525 0.58533 -0.69100
O 	O 	0.94896 0.41967 0.65870 -0.80100
C 	C 	0.91874 0.41093 0.63880 0.53800
C 	C 	0.89098 0.38059 0.68610 -0.21300
C 	C 	0.85756 0.36765 0.65720 0.08600
H 	H 	0.85300 0.37740 0.60880 0.01400
C 	C 	0.83116 0.34025 0.70060 -0.14000
H 	H 	0.80820 0.33180 0.68360 0.07400
C 	C 	0.83872 0.32533 0.76910 0.06400
C 	C 	0.87252 0.33845 0.79420 -0.15500
H 	H 	0.87770 0.32830 0.84070 0.06600
C 	C 	0.89853 0.36602 0.75230 0.09700
H 	H 	0.92150 0.37470 0.76960 -0.02900
C 	C 	0.81099 0.29626 0.81560 0.02300
C 	C 	0.78400 0.27014 0.77150 -0.11400
H 	H 	0.78340 0.27080 0.71060 0.06200
C 	C 	0.78526 0.26973 0.95330 0.02000
C 	C 	0.81109 0.29565 0.90600 -0.09100
H 	H 	0.82960 0.31370 0.93570 0.05300
O 	O 	0.51597 0.42525 0.41467 -0.69100
O 	O 	0.47071 0.41967 0.34130 -0.80700
C 	C 	0.49219 0.41093 0.36120 0.53900
C 	C 	0.48961 0.38059 0.31390 -0.21500
C 	C 	0.51009 0.36765 0.34280 0.08600
H 	H 	0.52440 0.37740 0.39120 0.01400
C 	C 	0.50909 0.34025 0.29940 -0.14100
H 	H 	0.52360 0.33180 0.31640 0.07400
C 	C 	0.48661 0.32533 0.23090 0.06400
C 	C 	0.46593 0.33845 0.20580 -0.15600
H 	H 	0.45060 0.32830 0.15930 0.06400
C 	C 	0.46749 0.36602 0.24770 0.09800
H 	H 	0.45320 0.37470 0.23040 -0.03200
C 	C 	0.48527 0.29626 0.18440 0.02200
C 	C 	0.48614 0.27014 0.22850 -0.11400
H 	H 	0.48740 0.27080 0.28940 0.06200
C 	C 	0.48447 0.26973 0.04670 0.01900
C 	C 	0.48456 0.29565 0.09400 -0.09100
H 	H 	0.48410 0.31370 0.06430 0.05200
O 	O 	0.90928 0.48403 0.41467 -0.69100
O 	O 	0.94896 0.52929 0.34130 -0.80100
C 	C 	0.91874 0.50781 0.36120 0.53800
C 	C 	0.89098 0.51039 0.31390 -0.21300
C 	C 	0.85756 0.48991 0.34280 0.08600
H 	H 	0.85300 0.47560 0.39120 0.01400
C 	C 	0.83116 0.49091 0.29940 -0.14000
H 	H 	0.80820 0.47640 0.31640 0.07400
C 	C 	0.83872 0.51339 0.23090 0.06400
C 	C 	0.87252 0.53407 0.20580 -0.15500
H 	H 	0.87770 0.54940 0.15930 0.06600
C 	C 	0.89853 0.53251 0.24770 0.09800
H 	H 	0.92150 0.54680 0.23040 -0.02800
C 	C 	0.81099 0.51473 0.18440 0.02300
C 	C 	0.78400 0.51386 0.22850 -0.11400
H 	H 	0.78340 0.51260 0.28940 0.06300
C 	C 	0.78526 0.51553 0.04670 0.02000
C 	C 	0.81109 0.51544 0.09400 -0.09100
H 	H 	0.82960 0.51590 0.06430 0.05300
O 	O 	0.57475 0.09072 0.41467 -0.69200
O 	O 	0.58033 0.05104 0.34130 -0.81100
C 	C 	0.58907 0.08126 0.36120 0.54000
C 	C 	0.61941 0.10902 0.31390 -0.21700
C 	C 	0.63235 0.14244 0.34280 0.08700
H 	H 	0.62260 0.14700 0.39120 0.01400
C 	C 	0.65975 0.16884 0.29940 -0.14200
H 	H 	0.66820 0.19180 0.31640 0.07400
C 	C 	0.67467 0.16128 0.23090 0.06400
C 	C 	0.66155 0.12748 0.20580 -0.15800
H 	H 	0.67170 0.12230 0.15930 0.06400
C 	C 	0.63398 0.10147 0.24770 0.09900
H 	H 	0.62530 0.07850 0.23040 -0.03400
C 	C 	0.70374 0.18901 0.18440 0.02200
C 	C 	0.72986 0.21600 0.22850 -0.11400
H 	H 	0.72920 0.21660 0.28940 0.06200
C 	C 	0.73027 0.21474 0.04670 0.01900
C 	C 	0.70435 0.18891 0.09400 -0.09000
H 	H 	0.68630 0.17040 0.06430 0.05200
O 	O 	0.48403 0.57475 0.41467 -0.69100
O 	O 	0.52929 0.58033 0.34130 -0.80600
C 	C 	0.50781 0.58907 0.36120 0.53900
C 	C 	0.51039 0.61941 0.31390 -0.21500
C 	C 	0.48991 0.63235 0.34280 0.08700
H 	H 	0.47560 0.62260 0.39120 0.01400
C 	C 	0.49091 0.65975 0.29940 -0.14100
H 	H 	0.47640 0.66820 0.31640 0.07400
C 	C 	0.51339 0.67467 0.23090 0.06400
C 	C 	0.53407 0.66155 0.20580 -0.15600
H 	H 	0.54940 0.67170 0.15930 0.06600
C 	C 	0.53251 0.63398 0.24770 0.09800
H 	H 	0.54680 0.62530 0.23040 -0.03100
C 	C 	0.51473 0.70374 0.18440 0.02200
C 	C 	0.51386 0.72986 0.22850 -0.11400
H 	H 	0.51260 0.72920 0.28940 0.06300
C 	C 	0.51553 0.73027 0.04670 0.02000
C 	C 	0.51544 0.70435 0.09400 -0.09000
H 	H 	0.51590 0.68630 0.06430 0.05200
O 	O 	0.09072 0.51597 0.41467 -0.69200
O 	O 	0.05104 0.47071 0.34130 -0.81100
C 	C 	0.08126 0.49219 0.36120 0.54000
C 	C 	0.10902 0.48961 0.31390 -0.21700
C 	C 	0.14244 0.51009 0.34280 0.08700
H 	H 	0.14700 0.52440 0.39120 0.01400
C 	C 	0.16884 0.50909 0.29940 -0.14200
H 	H 	0.19180 0.52360 0.31640 0.07400
C 	C 	0.16128 0.48661 0.23090 0.06400
C 	C 	0.12748 0.46593 0.20580 -0.15800
H 	H 	0.12230 0.45060 0.15930 0.06400
C 	C 	0.10147 0.46749 0.24770 0.09900
H 	H 	0.07850 0.45320 0.23040 -0.03500
C 	C 	0.18901 0.48527 0.18440 0.02100
C 	C 	0.21600 0.48614 0.22850 -0.11400
H 	H 	0.21660 0.48740 0.28940 0.06200
C 	C 	0.21474 0.48447 0.04670 0.01900
C 	C 	0.18891 0.48456 0.09400 -0.09100
H 	H 	0.17040 0.48410 0.06430 0.05200
O 	O 	0.42525 0.90928 0.41467 -0.69100
O 	O 	0.41967 0.94896 0.34130 -0.80100
C 	C 	0.41093 0.91874 0.36120 0.53800
C 	C 	0.38059 0.89098 0.31390 -0.21300
C 	C 	0.36765 0.85756 0.34280 0.08600
H 	H 	0.37740 0.85300 0.39120 0.01400
C 	C 	0.34025 0.83116 0.29940 -0.14000
H 	H 	0.33180 0.80820 0.31640 0.07400
C 	C 	0.32533 0.83872 0.23090 0.06400
C 	C 	0.33845 0.87252 0.20580 -0.15500
H 	H 	0.32830 0.87770 0.15930 0.06600
C 	C 	0.36602 0.89853 0.24770 0.09700
H 	H 	0.37470 0.92150 0.23040 -0.02900
C 	C 	0.29626 0.81099 0.18440 0.02300
C 	C 	0.27014 0.78400 0.22850 -0.11400
H 	H 	0.27080 0.78340 0.28940 0.06200
C 	C 	0.26973 0.78526 0.04670 0.02000
C 	C 	0.29565 0.81109 0.09400 -0.09100
H 	H 	0.31370 0.82960 0.06430 0.05300
O 	O 	0.57475 0.48403 0.41467 -0.69100
O 	O 	0.58033 0.52929 0.34130 -0.80600
C 	C 	0.58907 0.50781 0.36120 0.53900
C 	C 	0.61941 0.51039 0.31390 -0.21500
C 	C 	0.63235 0.48991 0.34280 0.08700
H 	H 	0.62260 0.47560 0.39120 0.01400
C 	C 	0.65975 0.49091 0.29940 -0.14100
H 	H 	0.66820 0.47640 0.31640 0.07400
C 	C 	0.67467 0.51339 0.23090 0.06400
C 	C 	0.66155 0.53407 0.20580 -0.15600
H 	H 	0.67170 0.54940 0.15930 0.06600
C 	C 	0.63398 0.53251 0.24770 0.09800
H 	H 	0.62530 0.54680 0.23040 -0.03100
C 	C 	0.70374 0.51473 0.18440 0.02200
C 	C 	0.72986 0.51386 0.22850 -0.11400
H 	H 	0.72920 0.51260 0.28940 0.06300
C 	C 	0.73027 0.51553 0.04670 0.02000
C 	C 	0.70435 0.51544 0.09400 -0.09000
H 	H 	0.68630 0.51590 0.06430 0.05200
O 	O 	0.51597 0.09072 0.41467 -0.69200
O 	O 	0.47071 0.05104 0.34130 -0.81100
C 	C 	0.49219 0.08126 0.36120 0.54000
C 	C 	0.48961 0.10902 0.31390 -0.21700
C 	C 	0.51009 0.14244 0.34280 0.08700
H 	H 	0.52440 0.14700 0.39120 0.01400
C 	C 	0.50909 0.16884 0.29940 -0.14200
H 	H 	0.52360 0.19180 0.31640 0.07400
C 	C 	0.48661 0.16128 0.23090 0.06400
C 	C 	0.46593 0.12748 0.20580 -0.15800
H 	H 	0.45060 0.12230 0.15930 0.06400
C 	C 	0.46749 0.10147 0.24770 0.09900
H 	H 	0.45320 0.07850 0.23040 -0.03500
C 	C 	0.48527 0.18901 0.18440 0.02100
C 	C 	0.48614 0.21600 0.22850 -0.11400
H 	H 	0.48740 0.21660 0.28940 0.06200
C 	C 	0.48447 0.21474 0.04670 0.01900
C 	C 	0.48456 0.18891 0.09400 -0.09100
H 	H 	0.48410 0.17040 0.06430 0.05200
O 	O 	0.90928 0.42525 0.41467 -0.69100
O 	O 	0.94896 0.41967 0.34130 -0.80100
C 	C 	0.91874 0.41093 0.36120 0.53800
C 	C 	0.89098 0.38059 0.31390 -0.21300
C 	C 	0.85756 0.36765 0.34280 0.08600
H 	H 	0.85300 0.37740 0.39120 0.01400
C 	C 	0.83116 0.34025 0.29940 -0.14000
H 	H 	0.80820 0.33180 0.31640 0.07400
C 	C 	0.83872 0.32533 0.23090 0.06400
C 	C 	0.87252 0.33845 0.20580 -0.15500
H 	H 	0.87770 0.32830 0.15930 0.06600
C 	C 	0.89853 0.36602 0.24770 0.09700
H 	H 	0.92150 0.37470 0.23040 -0.02900
C 	C 	0.81099 0.29626 0.18440 0.02300
C 	C 	0.78400 0.27014 0.22850 -0.11400
H 	H 	0.78340 0.27080 0.28940 0.06200
C 	C 	0.78526 0.26973 0.04670 0.02000
C 	C 	0.81109 0.29565 0.09400 -0.09100
H 	H 	0.82960 0.31370 0.06430 0.05300
O 	O 	0.42525 0.51597 0.41467 -0.69100
O 	O 	0.41967 0.47071 0.34130 -0.80700
C 	C 	0.41093 0.49219 0.36120 0.53900
C 	C 	0.38059 0.48961 0.31390 -0.21500
C 	C 	0.36765 0.51009 0.34280 0.08600
H 	H 	0.37740 0.52440 0.39120 0.01400
C 	C 	0.34025 0.50909 0.29940 -0.14100
H 	H 	0.33180 0.52360 0.31640 0.07400
C 	C 	0.32533 0.48661 0.23090 0.06400
C 	C 	0.33845 0.46593 0.20580 -0.15600
H 	H 	0.32830 0.45060 0.15930 0.06400
C 	C 	0.36602 0.46749 0.24770 0.09800
H 	H 	0.37470 0.45320 0.23040 -0.03200
C 	C 	0.29626 0.48527 0.18440 0.02200
C 	C 	0.27014 0.48614 0.22850 -0.11400
H 	H 	0.27080 0.48740 0.28940 0.06200
C 	C 	0.26973 0.48447 0.04670 0.01900
C 	C 	0.29565 0.48456 0.09400 -0.09100
H 	H 	0.31370 0.48410 0.06430 0.05200
O 	O 	0.48403 0.90928 0.41467 -0.69100
O 	O 	0.52929 0.94896 0.34130 -0.80100
C 	C 	0.50781 0.91874 0.36120 0.53800
C 	C 	0.51039 0.89098 0.31390 -0.21300
C 	C 	0.48991 0.85756 0.34280 0.08600
H 	H 	0.47560 0.85300 0.39120 0.01400
C 	C 	0.49091 0.83116 0.29940 -0.14000
H 	H 	0.47640 0.80820 0.31640 0.07400
C 	C 	0.51339 0.83872 0.23090 0.06400
C 	C 	0.53407 0.87252 0.20580 -0.15500
H 	H 	0.54940 0.87770 0.15930 0.06600
C 	C 	0.53251 0.89853 0.24770 0.09800
H 	H 	0.54680 0.92150 0.23040 -0.02800
C 	C 	0.51473 0.81099 0.18440 0.02300
C 	C 	0.51386 0.78400 0.22850 -0.11400
H 	H 	0.51260 0.78340 0.28940 0.06300
C 	C 	0.51553 0.78526 0.04670 0.02000
C 	C 	0.51544 0.81109 0.09400 -0.09100
H 	H 	0.51590 0.82960 0.06430 0.05300
O 	O 	0.09072 0.57475 0.41467 -0.69200
O 	O 	0.05104 0.58033 0.34130 -0.81100
C 	C 	0.08126 0.58907 0.36120 0.54000
C 	C 	0.10902 0.61941 0.31390 -0.21700
C 	C 	0.14244 0.63235 0.34280 0.08700
H 	H 	0.14700 0.62260 0.39120 0.01400
C 	C 	0.16884 0.65975 0.29940 -0.14200
H 	H 	0.19180 0.66820 0.31640 0.07400
C 	C 	0.16128 0.67467 0.23090 0.06400
C 	C 	0.12748 0.66155 0.20580 -0.15800
H 	H 	0.12230 0.67170 0.15930 0.06400
C 	C 	0.10147 0.63398 0.24770 0.09900
H 	H 	0.07850 0.62530 0.23040 -0.03400
C 	C 	0.18901 0.70374 0.18440 0.02200
C 	C 	0.21600 0.72986 0.22850 -0.11400
H 	H 	0.21660 0.72920 0.28940 0.06200
C 	C 	0.21474 0.73027 0.04670 0.01900
C 	C 	0.18891 0.70435 0.09400 -0.09000
H 	H 	0.17040 0.68630 0.06430 0.05200
O 	O 	0.48403 0.57475 0.58533 -0.69100
O 	O 	0.52929 0.58033 0.65870 -0.80600
C 	C 	0.50781 0.58907 0.63880 0.53900
C 	C 	0.51039 0.61941 0.68610 -0.21500
C 	C 	0.48991 0.63235 0.65720 0.08700
H 	H 	0.47560 0.62260 0.60880 0.01400
C 	C 	0.49091 0.65975 0.70060 -0.14100
H 	H 	0.47640 0.66820 0.68360 0.07400
C 	C 	0.51339 0.67467 0.76910 0.06400
C 	C 	0.53407 0.66155 0.79420 -0.15600
H 	H 	0.54940 0.67170 0.84070 0.06600
C 	C 	0.53251 0.63398 0.75230 0.09800
H 	H 	0.54680 0.62530 0.76960 -0.03100
C 	C 	0.51473 0.70374 0.81560 0.02200
C 	C 	0.51386 0.72986 0.77150 -0.11400
H 	H 	0.51260 0.72920 0.71060 0.06300
C 	C 	0.51553 0.73027 0.95330 0.02000
C 	C 	0.51544 0.70435 0.90600 -0.09000
H 	H 	0.51590 0.68630 0.93570 0.05200
O 	O 	0.09072 0.51597 0.58533 -0.69200
O 	O 	0.05104 0.47071 0.65870 -0.81100
C 	C 	0.08126 0.49219 0.63880 0.54000
C 	C 	0.10902 0.48961 0.68610 -0.21700
C 	C 	0.14244 0.51009 0.65720 0.08700
H 	H 	0.14700 0.52440 0.60880 0.01400
C 	C 	0.16884 0.50909 0.70060 -0.14200
H 	H 	0.19180 0.52360 0.68360 0.07400
C 	C 	0.16128 0.48661 0.76910 0.06400
C 	C 	0.12748 0.46593 0.79420 -0.15800
H 	H 	0.12230 0.45060 0.84070 0.06400
C 	C 	0.10147 0.46749 0.75230 0.09900
H 	H 	0.07850 0.45320 0.76960 -0.03500
C 	C 	0.18901 0.48527 0.81560 0.02100
C 	C 	0.21600 0.48614 0.77150 -0.11400
H 	H 	0.21660 0.48740 0.71060 0.06200
C 	C 	0.21474 0.48447 0.95330 0.01900
C 	C 	0.18891 0.48456 0.90600 -0.09100
H 	H 	0.17040 0.48410 0.93570 0.05200
O 	O 	0.42525 0.90928 0.58533 -0.69100
O 	O 	0.41967 0.94896 0.65870 -0.80100
C 	C 	0.41093 0.91874 0.63880 0.53800
C 	C 	0.38059 0.89098 0.68610 -0.21300
C 	C 	0.36765 0.85756 0.65720 0.08600
H 	H 	0.37740 0.85300 0.60880 0.01400
C 	C 	0.34025 0.83116 0.70060 -0.14000
H 	H 	0.33180 0.80820 0.68360 0.07400
C 	C 	0.32533 0.83872 0.76910 0.06400
C 	C 	0.33845 0.87252 0.79420 -0.15500
H 	H 	0.32830 0.87770 0.84070 0.06600
C 	C 	0.36602 0.89853 0.75230 0.09700
H 	H 	0.37470 0.92150 0.76960 -0.02900
C 	C 	0.29626 0.81099 0.81560 0.02300
C 	C 	0.27014 0.78400 0.77150 -0.11400
H 	H 	0.27080 0.78340 0.71060 0.06200
C 	C 	0.26973 0.78526 0.95330 0.02000
C 	C 	0.29565 0.81109 0.90600 -0.09100
H 	H 	0.31370 0.82960 0.93570 0.05300
O 	O 	0.51597 0.42525 0.58533 -0.69100
O 	O 	0.47071 0.41967 0.65870 -0.80700
C 	C 	0.49219 0.41093 0.63880 0.53900
C 	C 	0.48961 0.38059 0.68610 -0.21500
C 	C 	0.51009 0.36765 0.65720 0.08600
H 	H 	0.52440 0.37740 0.60880 0.01400
C 	C 	0.50909 0.34025 0.70060 -0.14100
H 	H 	0.52360 0.33180 0.68360 0.07400
C 	C 	0.48661 0.32533 0.76910 0.06400
C 	C 	0.46593 0.33845 0.79420 -0.15600
H 	H 	0.45060 0.32830 0.84070 0.06400
C 	C 	0.46749 0.36602 0.75230 0.09800
H 	H 	0.45320 0.37470 0.76960 -0.03200
C 	C 	0.48527 0.29626 0.81560 0.02200
C 	C 	0.48614 0.27014 0.77150 -0.11400
H 	H 	0.48740 0.27080 0.71060 0.06200
C 	C 	0.48447 0.26973 0.95330 0.01900
C 	C 	0.48456 0.29565 0.90600 -0.09100
H 	H 	0.48410 0.31370 0.93570 0.05200
O 	O 	0.90928 0.48403 0.58533 -0.69100
O 	O 	0.94896 0.52929 0.65870 -0.80100
C 	C 	0.91874 0.50781 0.63880 0.53800
C 	C 	0.89098 0.51039 0.68610 -0.21300
C 	C 	0.85756 0.48991 0.65720 0.08600
H 	H 	0.85300 0.47560 0.60880 0.01400
C 	C 	0.83116 0.49091 0.70060 -0.14000
H 	H 	0.80820 0.47640 0.68360 0.07400
C 	C 	0.83872 0.51339 0.76910 0.06400
C 	C 	0.87252 0.53407 0.79420 -0.15500
H 	H 	0.87770 0.54940 0.84070 0.06600
C 	C 	0.89853 0.53251 0.75230 0.09800
H 	H 	0.92150 0.54680 0.76960 -0.02800
C 	C 	0.81099 0.51473 0.81560 0.02300
C 	C 	0.78400 0.51386 0.77150 -0.11400
H 	H 	0.78340 0.51260 0.71060 0.06300
C 	C 	0.78526 0.51553 0.95330 0.02000
C 	C 	0.81109 0.51544 0.90600 -0.09100
H 	H 	0.82960 0.51590 0.93570 0.05300
O 	O 	0.57475 0.09072 0.58533 -0.69200
O 	O 	0.58033 0.05104 0.65870 -0.81100
C 	C 	0.58907 0.08126 0.63880 0.54000
C 	C 	0.61941 0.10902 0.68610 -0.21700
C 	C 	0.63235 0.14244 0.65720 0.08700
H 	H 	0.62260 0.14700 0.60880 0.01400
C 	C 	0.65975 0.16884 0.70060 -0.14200
H 	H 	0.66820 0.19180 0.68360 0.07400
C 	C 	0.67467 0.16128 0.76910 0.06400
C 	C 	0.66155 0.12748 0.79420 -0.15800
H 	H 	0.67170 0.12230 0.84070 0.06400
C 	C 	0.63398 0.10147 0.75230 0.09900
H 	H 	0.62530 0.07850 0.76960 -0.03400
C 	C 	0.70374 0.18901 0.81560 0.02200
C 	C 	0.72986 0.21600 0.77150 -0.11400
H 	H 	0.72920 0.21660 0.71060 0.06200
C 	C 	0.73027 0.21474 0.95330 0.01900
C 	C 	0.70435 0.18891 0.90600 -0.09000
H 	H 	0.68630 0.17040 0.93570 0.05200
Zr	Zr	0.46883 0.53117 0.50000 3.21700
Zr	Zr	0.46883 0.93766 0.50000 3.21700
Zr	Zr	0.06234 0.53117 0.50000 3.21700
Zr	Zr	0.53117 0.46883 0.50000 3.21700
Zr	Zr	0.53117 0.06234 0.50000 3.21700
Zr	Zr	0.93766 0.46883 0.50000 3.21700
Zr	Zr	0.46105 0.46105 0.61341 3.18000
Zr	Zr	0.53895 -0.00000 0.61341 3.17700
Zr	Zr	-0.00000 0.53895 0.61341 3.17700
Zr	Zr	0.53895 0.53895 0.61341 3.18000
Zr	Zr	0.46105 -0.00000 0.61341 3.17700
Zr	Zr	-0.00000 0.46105 0.61341 3.17700
Zr	Zr	0.46105 0.46105 0.38659 3.18000
Zr	Zr	-0.00000 0.53895 0.38659 3.17700
Zr	Zr	0.53895 0.00000 0.38659 3.17700
Zr	Zr	0.53895 0.53895 0.38659 3.18000
Zr	Zr	-0.00000 0.46105 0.38659 3.17700
Zr	Zr	0.46105 0.00000 0.38659 3.17700
O 	O 	0.52347 0.55399 0.50000 -1.44600
H 	H 	0.53390 0.57930 0.50000 0.19000
O 	O 	0.44601 0.96948 0.50000 -1.43900
H 	H 	0.42070 0.95460 0.50000 0.19000
O 	O 	0.03052 0.47653 0.50000 -1.45200
H 	H 	0.04540 0.46610 0.50000 0.18900
O 	O 	0.47653 0.44601 0.50000 -1.44600
H 	H 	0.46610 0.42070 0.50000 0.18900
O 	O 	0.55399 0.03052 0.50000 -1.45200
H 	H 	0.57930 0.04540 0.50000 0.18900
O 	O 	0.96948 0.52347 0.50000 -1.43900
H 	H 	0.95460 0.53390 0.50000 0.19100
O 	O 	0.55399 0.52347 0.50000 -1.44600
H 	H 	0.57930 0.53390 0.50000 0.19000
O 	O 	0.96948 0.44601 0.50000 -1.43900
H 	H 	0.95460 0.42070 0.50000 0.19000
O 	O 	0.47653 0.03052 0.50000 -1.45200
H 	H 	0.46610 0.04540 0.50000 0.18900
O 	O 	0.44601 0.47653 0.50000 -1.44600
H 	H 	0.42070 0.46610 0.50000 0.18900
O 	O 	0.03052 0.55399 0.50000 -1.45200
H 	H 	0.04540 0.57930 0.50000 0.18900
O 	O 	0.52347 0.96948 0.50000 -1.43900
H 	H 	0.53390 0.95460 0.50000 0.19100
O 	O 	0.48509 0.51491 0.38670 -1.44500
H 	H 	0.47770 0.52230 0.33450 0.18600
O 	O 	0.48509 0.97018 0.38670 -1.43800
H 	H 	0.47770 0.95540 0.33450 0.18700
O 	O 	0.02982 0.51491 0.38670 -1.45100
H 	H 	0.04460 0.52230 0.33450 0.18500
O 	O 	0.51491 0.48509 0.38670 -1.44500
H 	H 	0.52230 0.47770 0.33450 0.18600
O 	O 	0.51491 0.02982 0.38670 -1.45100
H 	H 	0.52230 0.04460 0.33450 0.18500
O 	O 	0.97018 0.48509 0.38670 -1.43800
H 	H 	0.95540 0.47770 0.33450 0.18700
O 	O 	0.51491 0.48509 0.61330 -1.44500
H 	H 	0.52230 0.47770 0.66550 0.18600
O 	O 	0.97018 0.48509 0.61330 -1.43800
H 	H 	0.95540 0.47770 0.66550 0.18700
O 	O 	0.51491 0.02982 0.61330 -1.45100
H 	H 	0.52230 0.04460 0.66550 0.18500
O 	O 	0.48509 0.51491 0.61330 -1.44500
H 	H 	0.47770 0.52230 0.66550 0.18600
O 	O 	0.02982 0.51491 0.61330 -1.45100
H 	H 	0.04460 0.52230 0.66550 0.18500
O 	O 	0.48509 0.97018 0.61330 -1.43800
H 	H 	0.47770 0.95540 0.66550 0.18700
C 	C 	0.24260 0.48520 0.81630 0.06700
C 	C 	0.24240 0.48480 0.90900 -0.03900
C 	C 	0.51480 0.75740 0.81630 0.06800
C 	C 	0.51520 0.75760 0.90900 -0.03900
C 	C 	0.24260 0.75740 0.81630 0.06700
C 	C 	0.24240 0.75760 0.90900 -0.03900
C 	C 	0.75740 0.51480 0.81630 0.06800
C 	C 	0.75760 0.51520 0.90900 -0.03900
C 	C 	0.48520 0.24260 0.81630 0.06700
C 	C 	0.48480 0.24240 0.90900 -0.03900
C 	C 	0.75740 0.24260 0.81630 0.06700
C 	C 	0.75760 0.24240 0.90900 -0.03900
C 	C 	0.48520 0.24260 0.18370 0.06700
C 	C 	0.48480 0.24240 0.09100 -0.03900
C 	C 	0.75740 0.51480 0.18370 0.06800
C 	C 	0.75760 0.51520 0.09100 -0.03900
C 	C 	0.75740 0.24260 0.18370 0.06700
C 	C 	0.75760 0.24240 0.09100 -0.03900
C 	C 	0.51480 0.75740 0.18370 0.06800
C 	C 	0.51520 0.75760 0.09100 -0.03900
C 	C 	0.24260 0.48520 0.18370 0.06700
C 	C 	0.24240 0.48480 0.09100 -0.03900
C 	C 	0.24260 0.75740 0.18370 0.06700
C 	C 	0.24240 0.75760 0.09100 -0.03900
