data_crystal

_cell_length_a 14.22410
_cell_length_b 13.49110
_cell_length_c 13.99980
_cell_angle_alpha 90.00000
_cell_angle_beta  90.16900
_cell_angle_gamma 90.00000

_symmetry_space_group_name_	'P 1'
_symmetry_space_group_name_H-M	'P 1'

loop_
_symmetry_equiv_pos_as_xyz
  x,y,z

loop_
_atom_site_label
_atom_site_type_symbol
_atom_site_fract_x
_atom_site_fract_y
_atom_site_fract_z
_atom_site_charge
Zn	Zn	0.97760 0.23490 0.12590 1.26100
Zn	Zn	0.87500 0.63260 0.22140 1.24000
P 	P 	0.97280 0.75310 0.39240 0.69900
P 	P 	0.85720 0.11490 0.27720 0.56800
O 	O 	0.92060 0.14160 0.36050 -0.43600
O 	O 	0.86720 0.19060 0.19690 -0.44600
O 	O 	0.93330 0.75780 0.49380 -0.39100
O 	O 	0.00470 0.37080 0.15970 -0.48600
O 	O 	0.05350 0.67720 0.38860 -0.53900
O 	O 	0.08810 0.49800 0.25110 -0.45100
O 	O 	0.89290 0.72330 0.32720 -0.46900
O 	O 	0.75510 0.11440 0.31070 -0.41800
O 	O 	0.11610 0.01070 0.25650 -0.46500
O 	O 	0.00950 0.85540 0.36590 -0.54100
Zn	Zn	0.47760 0.73490 0.12590 1.23200
Zn	Zn	0.37500 0.13260 0.22140 1.23500
P 	P 	0.47280 0.25310 0.39240 0.56400
P 	P 	0.35720 0.61490 0.27720 0.56900
O 	O 	0.42060 0.64160 0.36050 -0.47900
O 	O 	0.36720 0.69060 0.19690 -0.46800
O 	O 	0.43330 0.25780 0.49380 -0.40900
O 	O 	0.50470 0.87080 0.15970 -0.45200
O 	O 	0.55350 0.17720 0.38860 -0.46100
O 	O 	0.58810 0.99800 0.25110 -0.44600
O 	O 	0.39290 0.22330 0.32720 -0.47200
O 	O 	0.25510 0.61440 0.31070 -0.42600
O 	O 	0.61610 0.51070 0.25650 -0.44400
O 	O 	0.50950 0.35540 0.36590 -0.45200
Zn	Zn	0.02240 0.23490 0.37410 1.19900
Zn	Zn	0.12500 0.63260 0.27860 1.23000
P 	P 	0.02720 0.75310 0.10760 0.43100
P 	P 	0.14280 0.11490 0.22280 0.56900
O 	O 	0.07940 0.14160 0.13950 -0.51700
O 	O 	0.13280 0.19060 0.30310 -0.48500
O 	O 	0.06670 0.75780 0.00620 -0.42200
O 	O 	0.99530 0.37080 0.34030 -0.34800
O 	O 	0.94650 0.67720 0.11140 -0.38500
O 	O 	0.91190 0.49800 0.24890 -0.37600
O 	O 	0.10710 0.72330 0.17280 -0.47000
O 	O 	0.24490 0.11440 0.18930 -0.42500
O 	O 	0.88390 0.01070 0.24350 -0.41500
O 	O 	0.99050 0.85540 0.13410 -0.35300
Zn	Zn	0.52240 0.73490 0.37410 1.23100
Zn	Zn	0.62500 0.13260 0.27860 1.23600
P 	P 	0.52720 0.25310 0.10760 0.56400
P 	P 	0.64280 0.61490 0.22280 0.57000
O 	O 	0.57940 0.64160 0.13950 -0.47700
O 	O 	0.63280 0.69060 0.30310 -0.46500
O 	O 	0.56670 0.25780 0.00620 -0.40600
O 	O 	0.49530 0.87080 0.34030 -0.45300
O 	O 	0.44650 0.17720 0.11140 -0.46300
O 	O 	0.41190 0.99800 0.24890 -0.44900
O 	O 	0.60710 0.22330 0.17280 -0.46800
O 	O 	0.74490 0.61440 0.18930 -0.41800
O 	O 	0.38390 0.51070 0.24350 -0.44800
O 	O 	0.49050 0.35540 0.13410 -0.45300
Zn	Zn	0.02240 0.76510 0.87410 1.19800
Zn	Zn	0.12500 0.36740 0.77860 1.22900
P 	P 	0.02720 0.24690 0.60760 0.42600
P 	P 	0.14280 0.88510 0.72280 0.56900
O 	O 	0.07940 0.85840 0.63950 -0.52000
O 	O 	0.13280 0.80940 0.80310 -0.48700
O 	O 	0.06670 0.24220 0.50620 -0.42400
O 	O 	0.99530 0.62920 0.84030 -0.34600
O 	O 	0.94650 0.32280 0.61140 -0.38200
O 	O 	0.91190 0.50200 0.74890 -0.37400
O 	O 	0.10710 0.27670 0.67280 -0.47000
O 	O 	0.24490 0.88560 0.68930 -0.42500
O 	O 	0.88390 0.98930 0.74350 -0.41400
O 	O 	0.99050 0.14460 0.63410 -0.34900
Zn	Zn	0.52240 0.26510 0.87410 1.23100
Zn	Zn	0.62500 0.86740 0.77860 1.23600
P 	P 	0.52720 0.74690 0.60760 0.56400
P 	P 	0.64280 0.38510 0.72280 0.57000
O 	O 	0.57940 0.35840 0.63950 -0.47700
O 	O 	0.63280 0.30940 0.80310 -0.46500
O 	O 	0.56670 0.74220 0.50620 -0.40600
O 	O 	0.49530 0.12920 0.84030 -0.45400
O 	O 	0.44650 0.82280 0.61140 -0.46400
O 	O 	0.41190 0.00200 0.74890 -0.44900
O 	O 	0.60710 0.77670 0.67280 -0.46800
O 	O 	0.74490 0.38560 0.68930 -0.41800
O 	O 	0.38390 0.48930 0.74350 -0.44800
O 	O 	0.49050 0.64460 0.63410 -0.45300
Zn	Zn	0.97760 0.76510 0.62590 1.26300
Zn	Zn	0.87500 0.36740 0.72140 1.24100
P 	P 	0.97280 0.24690 0.89240 0.70300
P 	P 	0.85720 0.88510 0.77720 0.56900
O 	O 	0.92060 0.85840 0.86050 -0.43500
O 	O 	0.86720 0.80940 0.69690 -0.44600
O 	O 	0.93330 0.24220 0.99380 -0.39300
O 	O 	0.00470 0.62920 0.65970 -0.48800
O 	O 	0.05350 0.32280 0.88860 -0.54200
O 	O 	0.08810 0.50200 0.75110 -0.45100
O 	O 	0.89290 0.27670 0.82720 -0.46900
O 	O 	0.75510 0.88560 0.81070 -0.41900
O 	O 	0.11610 0.98930 0.75650 -0.46700
O 	O 	0.00950 0.14460 0.86590 -0.54400
Zn	Zn	0.47760 0.26510 0.62590 1.23100
Zn	Zn	0.37500 0.86740 0.72140 1.23500
P 	P 	0.47280 0.74690 0.89240 0.56400
P 	P 	0.35720 0.38510 0.77720 0.56900
O 	O 	0.42060 0.35840 0.86050 -0.48100
O 	O 	0.36720 0.30940 0.69690 -0.46900
O 	O 	0.43330 0.74220 0.99380 -0.41200
O 	O 	0.50470 0.12920 0.65970 -0.45300
O 	O 	0.55350 0.82280 0.88860 -0.46200
O 	O 	0.58810 0.00200 0.75110 -0.44700
O 	O 	0.39290 0.77670 0.82720 -0.47300
O 	O 	0.25510 0.38560 0.81070 -0.42700
O 	O 	0.61610 0.48930 0.75650 -0.44400
O 	O 	0.50950 0.64460 0.86590 -0.45300
Zn	Zn	-0.00000 0.93470 0.25000 1.20500
P 	P 	-0.00000 0.43350 0.25000 0.44400
Zn	Zn	0.50000 0.43470 0.25000 1.23500
P 	P 	0.50000 0.93350 0.25000 0.57800
Zn	Zn	0.00000 0.06530 0.75000 1.20400
P 	P 	-0.00000 0.56650 0.75000 0.44000
Zn	Zn	0.50000 0.56530 0.75000 1.23500
P 	P 	0.50000 0.06650 0.75000 0.57800
