data_crystal

_cell_length_a 8.04500
_cell_length_b 17.54900
_cell_length_c 18.01400
_cell_angle_alpha 90.00000
_cell_angle_beta  108.09300
_cell_angle_gamma 90.00000

_symmetry_space_group_name_	'P 1'
_symmetry_space_group_name_H-M	'P 1'

loop_
_symmetry_equiv_pos_as_xyz
  x,y,z

loop_
_atom_site_label
_atom_site_type_symbol
_atom_site_fract_x
_atom_site_fract_y
_atom_site_fract_z
_atom_site_charge
Zn	Zn	0.11899 0.19131 0.73341 1.21200
O 	O 	0.20670 0.18300 0.64450 -0.46000
O 	O 	0.44560 0.11790 0.70590 -0.30100
O 	O 	0.73140 0.08230 0.49030 -0.24100
O 	O 	0.09140 0.26770 0.37250 -0.32500
O 	O 	0.28670 0.24750 0.31380 -0.44700
N 	N 	0.89750 0.24900 0.68260 -0.26200
N 	N 	0.64210 0.30170 0.66260 -0.11600
N 	N 	0.94220 0.58800 0.73850 -0.27000
N 	N 	0.07800 0.49490 0.70180 -0.12200
C 	C 	0.23100 0.23960 0.37170 0.30000
C 	C 	0.34110 0.19540 0.44110 -0.00700
C 	C 	0.29550 0.19270 0.50930 -0.05600
H 	H 	0.19670 0.21850 0.51230 0.07300
C 	C 	0.39700 0.15190 0.57290 -0.00800
C 	C 	0.58800 0.11680 0.50050 0.20500
C 	C 	0.48870 0.15740 0.43710 -0.15400
H 	H 	0.52040 0.15940 0.39170 0.10700
C 	C 	0.54350 0.11340 0.56890 -0.15200
H 	H 	0.61140 0.08550 0.61150 0.09400
C 	C 	0.34930 0.14940 0.64780 0.31700
C 	C 	0.68580 0.31330 0.59700 -0.00000
H 	H 	0.62060 0.33920 0.55250 0.03800
C 	C 	0.84560 0.27910 0.60920 0.00900
H 	H 	0.90780 0.27690 0.57350 0.02600
C 	C 	0.77050 0.26360 0.71250 0.09400
H 	H 	0.77140 0.24910 0.76230 -0.00000
C 	C 	0.48470 0.32970 0.67920 -0.05800
H 	H 	0.38820 0.33240 0.63100 0.05400
H 	H 	0.45280 0.29440 0.71400 0.05700
C 	C 	0.51660 0.40620 0.71590 -0.08400
H 	H 	0.54040 0.44170 0.67920 0.06000
H 	H 	0.62020 0.40380 0.76130 0.05900
C 	C 	0.36480 0.43710 0.74130 -0.13700
H 	H 	0.33260 0.39950 0.77390 0.07800
H 	H 	0.40270 0.48270 0.77230 0.08600
C 	C 	0.87670 0.52010 0.75430 0.00600
H 	H 	0.78720 0.51460 0.77640 0.02000
C 	C 	0.06520 0.57000 0.70850 0.10100
H 	H 	0.13510 0.60530 0.69370 -0.00500
C 	C 	0.20950 0.45530 0.67380 -0.02600
H 	H 	0.16000 0.40880 0.64690 0.03800
H 	H 	0.24350 0.48770 0.63730 0.04500
C 	C 	0.96120 0.46280 0.73290 -0.00700
H 	H 	0.94350 0.41100 0.73830 0.03500
C 	C 	0.84120 0.03740 0.55300 0.06700
H 	H 	0.78600 0.98890 0.55650 0.02000
H 	H 	0.86350 0.06400 0.60240 0.00100
C 	C 	0.01650 0.02470 0.53330 -0.12600
H 	H 	0.06120 0.07320 0.52200 0.08400
H 	H 	0.10350 0.00200 0.57770 0.07800
Zn	Zn	0.88101 0.69131 0.76659 1.21200
O 	O 	0.79330 0.68300 0.85550 -0.46000
O 	O 	0.55440 0.61790 0.79410 -0.30100
O 	O 	0.26860 0.58230 0.00970 -0.24100
O 	O 	0.90860 0.76770 0.12750 -0.32500
O 	O 	0.71330 0.74750 0.18620 -0.44700
N 	N 	0.10250 0.74900 0.81740 -0.26200
N 	N 	0.35790 0.80170 0.83740 -0.11600
N 	N 	0.05780 0.08800 0.76150 -0.27000
N 	N 	0.92200 0.99490 0.79820 -0.12300
C 	C 	0.76900 0.73960 0.12830 0.30000
C 	C 	0.65890 0.69540 0.05890 -0.00700
C 	C 	0.70450 0.69270 0.99070 -0.05600
H 	H 	0.80330 0.71850 0.98770 0.07300
C 	C 	0.60300 0.65190 0.92710 -0.00900
C 	C 	0.41200 0.61680 0.99950 0.20400
C 	C 	0.51130 0.65740 0.06290 -0.15300
H 	H 	0.47960 0.65940 0.10830 0.10700
C 	C 	0.45650 0.61340 0.93110 -0.15200
H 	H 	0.38860 0.58550 0.88850 0.09400
C 	C 	0.65070 0.64940 0.85220 0.31700
C 	C 	0.31420 0.81330 0.90300 -0.00000
H 	H 	0.37940 0.83920 0.94750 0.03800
C 	C 	0.15440 0.77910 0.89080 0.00900
H 	H 	0.09220 0.77690 0.92650 0.02600
C 	C 	0.22950 0.76360 0.78750 0.09400
H 	H 	0.22860 0.74910 0.73770 -0.00000
C 	C 	0.51530 0.82970 0.82080 -0.05800
H 	H 	0.61180 0.83240 0.86900 0.05400
H 	H 	0.54720 0.79440 0.78600 0.05700
C 	C 	0.48340 0.90620 0.78410 -0.08400
H 	H 	0.45960 0.94170 0.82080 0.06000
H 	H 	0.37980 0.90380 0.73870 0.05900
C 	C 	0.63520 0.93710 0.75870 -0.13700
H 	H 	0.66740 0.89950 0.72610 0.07800
H 	H 	0.59730 0.98270 0.72770 0.08600
C 	C 	0.12330 0.02010 0.74570 0.00500
H 	H 	0.21280 0.01460 0.72360 0.02000
C 	C 	0.93480 0.07000 0.79150 0.10300
H 	H 	0.86490 0.10530 0.80630 -0.00500
C 	C 	0.79050 0.95530 0.82620 -0.02600
H 	H 	0.84000 0.90880 0.85310 0.03800
H 	H 	0.75650 0.98770 0.86270 0.04500
C 	C 	0.03880 0.96280 0.76710 -0.00600
H 	H 	0.05650 0.91100 0.76170 0.03500
C 	C 	0.15880 0.53740 0.94700 0.06500
H 	H 	0.21400 0.48890 0.94350 0.02100
H 	H 	0.13650 0.56400 0.89760 0.00100
C 	C 	0.98350 0.52470 0.96670 -0.12500
H 	H 	0.93880 0.57320 0.97800 0.08400
H 	H 	0.89650 0.50200 0.92230 0.07800
Zn	Zn	0.88101 0.80869 0.26659 1.21200
O 	O 	0.79330 0.81700 0.35550 -0.46000
O 	O 	0.55440 0.88210 0.29410 -0.30100
O 	O 	0.26860 0.91770 0.50970 -0.24100
O 	O 	0.90860 0.73230 0.62750 -0.32500
O 	O 	0.71330 0.75250 0.68620 -0.44700
N 	N 	0.10250 0.75100 0.31740 -0.26200
N 	N 	0.35790 0.69830 0.33740 -0.11600
N 	N 	0.05780 0.41200 0.26150 -0.27000
N 	N 	0.92200 0.50510 0.29820 -0.12200
C 	C 	0.76900 0.76040 0.62830 0.30000
C 	C 	0.65890 0.80460 0.55890 -0.00700
C 	C 	0.70450 0.80730 0.49070 -0.05600
H 	H 	0.80330 0.78150 0.48770 0.07300
C 	C 	0.60300 0.84810 0.42710 -0.00800
C 	C 	0.41200 0.88320 0.49950 0.20500
C 	C 	0.51130 0.84260 0.56290 -0.15400
H 	H 	0.47960 0.84060 0.60830 0.10700
C 	C 	0.45650 0.88660 0.43110 -0.15200
H 	H 	0.38860 0.91450 0.38850 0.09400
C 	C 	0.65070 0.85060 0.35220 0.31700
C 	C 	0.31420 0.68670 0.40300 -0.00000
H 	H 	0.37940 0.66080 0.44750 0.03800
C 	C 	0.15440 0.72090 0.39080 0.00900
H 	H 	0.09220 0.72310 0.42650 0.02600
C 	C 	0.22950 0.73640 0.28750 0.09400
H 	H 	0.22860 0.75090 0.23770 -0.00000
C 	C 	0.51530 0.67030 0.32080 -0.05800
H 	H 	0.61180 0.66760 0.36900 0.05400
H 	H 	0.54720 0.70560 0.28600 0.05700
C 	C 	0.48340 0.59380 0.28410 -0.08400
H 	H 	0.45960 0.55830 0.32080 0.06000
H 	H 	0.37980 0.59620 0.23870 0.05900
C 	C 	0.63520 0.56290 0.25870 -0.13700
H 	H 	0.66740 0.60050 0.22610 0.07800
H 	H 	0.59730 0.51730 0.22770 0.08600
C 	C 	0.12330 0.47990 0.24570 0.00600
H 	H 	0.21280 0.48540 0.22360 0.02000
C 	C 	0.93480 0.43000 0.29150 0.10100
H 	H 	0.86490 0.39470 0.30630 -0.00500
C 	C 	0.79050 0.54470 0.32620 -0.02600
H 	H 	0.84000 0.59120 0.35310 0.03800
H 	H 	0.75650 0.51230 0.36270 0.04500
C 	C 	0.03880 0.53720 0.26710 -0.00700
H 	H 	0.05650 0.58900 0.26170 0.03500
C 	C 	0.15880 0.96260 0.44700 0.06700
H 	H 	0.21400 0.01110 0.44350 0.02000
H 	H 	0.13650 0.93600 0.39760 0.00100
C 	C 	0.98350 0.97530 0.46670 -0.12600
H 	H 	0.93880 0.92680 0.47800 0.08400
H 	H 	0.89650 0.99800 0.42230 0.07800
Zn	Zn	0.11899 0.30869 0.23341 1.21200
O 	O 	0.20670 0.31700 0.14450 -0.46000
O 	O 	0.44560 0.38210 0.20590 -0.30100
O 	O 	0.73140 0.41770 0.99030 -0.24100
O 	O 	0.09140 0.23230 0.87250 -0.32500
O 	O 	0.28670 0.25250 0.81380 -0.44700
N 	N 	0.89750 0.25100 0.18260 -0.26200
N 	N 	0.64210 0.19830 0.16260 -0.11600
N 	N 	0.94220 0.91200 0.23850 -0.27000
N 	N 	0.07800 0.00510 0.20180 -0.12300
C 	C 	0.23100 0.26040 0.87170 0.30000
C 	C 	0.34110 0.30460 0.94110 -0.00700
C 	C 	0.29550 0.30730 0.00930 -0.05600
H 	H 	0.19670 0.28150 0.01230 0.07300
C 	C 	0.39700 0.34810 0.07290 -0.00900
C 	C 	0.58800 0.38320 0.00050 0.20400
C 	C 	0.48870 0.34260 0.93710 -0.15300
H 	H 	0.52040 0.34060 0.89170 0.10700
C 	C 	0.54350 0.38660 0.06890 -0.15200
H 	H 	0.61140 0.41450 0.11150 0.09400
C 	C 	0.34930 0.35060 0.14780 0.31700
C 	C 	0.68580 0.18670 0.09700 -0.00000
H 	H 	0.62060 0.16080 0.05250 0.03800
C 	C 	0.84560 0.22090 0.10920 0.00900
H 	H 	0.90780 0.22310 0.07350 0.02600
C 	C 	0.77050 0.23640 0.21250 0.09400
H 	H 	0.77140 0.25090 0.26230 -0.00000
C 	C 	0.48470 0.17030 0.17920 -0.05800
H 	H 	0.38820 0.16760 0.13100 0.05400
H 	H 	0.45280 0.20560 0.21400 0.05700
C 	C 	0.51660 0.09380 0.21590 -0.08400
H 	H 	0.54040 0.05830 0.17920 0.06000
H 	H 	0.62020 0.09620 0.26130 0.05900
C 	C 	0.36480 0.06290 0.24130 -0.13700
H 	H 	0.33260 0.10050 0.27390 0.07800
H 	H 	0.40270 0.01730 0.27230 0.08600
C 	C 	0.87670 0.97990 0.25430 0.00500
H 	H 	0.78720 0.98540 0.27640 0.02000
C 	C 	0.06520 0.93000 0.20850 0.10300
H 	H 	0.13510 0.89470 0.19370 -0.00500
C 	C 	0.20950 0.04470 0.17380 -0.02600
H 	H 	0.16000 0.09120 0.14690 0.03800
H 	H 	0.24350 0.01230 0.13730 0.04500
C 	C 	0.96120 0.03720 0.23290 -0.00600
H 	H 	0.94350 0.08900 0.23830 0.03500
C 	C 	0.84120 0.46260 0.05300 0.06500
H 	H 	0.78600 0.51110 0.05650 0.02100
H 	H 	0.86350 0.43600 0.10240 0.00100
C 	C 	0.01650 0.47530 0.03330 -0.12500
H 	H 	0.06120 0.42680 0.02200 0.08400
H 	H 	0.10350 0.49800 0.07770 0.07800
