data_crystal

_cell_length_a 8.03190
_cell_length_b 17.94070
_cell_length_c 17.93180
_cell_angle_alpha 90.00000
_cell_angle_beta  108.64400
_cell_angle_gamma 90.00000

_symmetry_space_group_name_	'P 1'
_symmetry_space_group_name_H-M	'P 1'

loop_
_symmetry_equiv_pos_as_xyz
  x,y,z

loop_
_atom_site_label
_atom_site_type_symbol
_atom_site_fract_x
_atom_site_fract_y
_atom_site_fract_z
_atom_site_charge
Co	Co	0.12685 0.80998 0.23644 1.15200
O 	O 	0.30520 0.74940 0.31503 -0.42100
O 	O 	0.10370 0.77120 0.37000 -0.32900
O 	O 	0.73170 0.57990 0.49060 -0.25100
O 	O 	0.20650 0.68454 0.64387 -0.43500
O 	O 	0.44110 0.61710 0.70530 -0.29800
N 	N 	0.05410 0.91340 0.25730 -0.25600
N 	N 	0.90620 0.00390 0.28540 -0.12500
N 	N 	0.09650 0.25160 0.31380 -0.24600
N 	N 	0.35280 0.19770 0.33470 -0.11800
C 	C 	0.34960 0.69730 0.44160 -0.00400
C 	C 	0.30050 0.69430 0.50920 -0.05700
H 	H 	0.20190 0.72030 0.51140 0.07300
C 	C 	0.39760 0.65300 0.57310 -0.01000
C 	C 	0.54520 0.61320 0.57000 -0.15200
H 	H 	0.61080 0.58500 0.61290 0.09500
C 	C 	0.59220 0.61660 0.50140 0.20800
C 	C 	0.49760 0.65870 0.43880 -0.15800
H 	H 	0.53230 0.66150 0.39410 0.10900
C 	C 	0.84000 0.53510 0.55040 0.08700
H 	H 	0.86870 0.55620 0.60280 -0.00000
H 	H 	0.78340 0.48700 0.54840 0.01300
C 	C 	0.92130 0.93040 0.27930 0.10300
H 	H 	0.84550 0.89580 0.28970 -0.00700
C 	C 	0.02840 0.03610 0.25880 -0.00500
H 	H 	0.04490 0.08680 0.25280 0.03500
C 	C 	0.12150 0.97920 0.24290 0.00600
H 	H 	0.21730 0.98430 0.22480 0.02100
C 	C 	0.78090 0.04320 0.32200 -0.02200
H 	H 	0.74420 0.00990 0.35630 0.04300
H 	H 	0.83550 0.08700 0.35160 0.03800
C 	C 	0.64100 0.06260 0.25670 -0.13600
H 	H 	0.59860 0.01870 0.22470 0.08600
H 	H 	0.67990 0.09830 0.22520 0.07800
C 	C 	0.22370 0.23520 0.28420 0.09300
H 	H 	0.22230 0.24850 0.23380 0.00300
C 	C 	0.14920 0.22190 0.38800 0.00300
H 	H 	0.08700 0.22380 0.42360 0.02900
C 	C 	0.30820 0.18910 0.40050 0.00300
H 	H 	0.37440 0.16500 0.44630 0.03700
C 	C 	0.51220 0.16970 0.31920 -0.05300
H 	H 	0.54620 0.20480 0.28550 0.05700
H 	H 	0.60780 0.16650 0.36850 0.05300
C 	C 	0.48440 0.09800 0.28240 -0.09400
H 	H 	0.38180 0.10140 0.23580 0.06300
H 	H 	0.45610 0.06340 0.31810 0.06200
C 	C 	0.34790 0.65040 0.64670 0.30500
C 	C 	0.24440 0.74150 0.37180 0.28300
C 	C 	0.02010 0.53080 0.52970 -0.15000
H 	H 	0.13430 0.52690 0.56980 0.08500
H 	H 	0.01860 0.56690 0.48920 0.09700
Co	Co	0.87315 0.30998 0.26356 1.15300
O 	O 	0.69480 0.24940 0.18497 -0.42000
O 	O 	0.89630 0.27120 0.13000 -0.32800
O 	O 	0.26830 0.07990 0.00940 -0.24700
O 	O 	0.79350 0.18454 0.85613 -0.43400
O 	O 	0.55890 0.11710 0.79470 -0.29700
N 	N 	0.94590 0.41340 0.24270 -0.25600
N 	N 	0.09380 0.50390 0.21460 -0.12300
N 	N 	0.90350 0.75160 0.18620 -0.24600
N 	N 	0.64720 0.69770 0.16530 -0.11800
C 	C 	0.65040 0.19730 0.05840 -0.00500
C 	C 	0.69950 0.19430 0.99080 -0.05700
H 	H 	0.79810 0.22030 0.98860 0.07300
C 	C 	0.60240 0.15300 0.92690 -0.01100
C 	C 	0.45480 0.11320 0.93000 -0.14900
H 	H 	0.38920 0.08500 0.88710 0.09400
C 	C 	0.40780 0.11660 0.99860 0.20400
C 	C 	0.50240 0.15870 0.06120 -0.15500
H 	H 	0.46770 0.16150 0.10590 0.10800
C 	C 	0.16000 0.03510 0.94960 0.08200
H 	H 	0.13130 0.05620 0.89720 0.00100
H 	H 	0.21660 0.98700 0.95160 0.01600
C 	C 	0.07870 0.43040 0.22070 0.10400
H 	H 	0.15450 0.39580 0.21030 -0.00700
C 	C 	0.97160 0.53610 0.24120 -0.00800
H 	H 	0.95510 0.58680 0.24720 0.03600
C 	C 	0.87850 0.47920 0.25710 0.00800
H 	H 	0.78270 0.48430 0.27520 0.02100
C 	C 	0.21910 0.54320 0.17800 -0.02200
H 	H 	0.25580 0.50990 0.14370 0.04300
H 	H 	0.16450 0.58700 0.14840 0.03800
C 	C 	0.35900 0.56260 0.24330 -0.13600
H 	H 	0.40140 0.51870 0.27530 0.08600
H 	H 	0.32010 0.59830 0.27480 0.07800
C 	C 	0.77630 0.73520 0.21580 0.09300
H 	H 	0.77770 0.74850 0.26620 0.00300
C 	C 	0.85080 0.72190 0.11200 0.00300
H 	H 	0.91300 0.72380 0.07640 0.02900
C 	C 	0.69180 0.68910 0.09950 0.00200
H 	H 	0.62560 0.66500 0.05370 0.03700
C 	C 	0.48780 0.66970 0.18080 -0.05300
H 	H 	0.45380 0.70480 0.21450 0.05700
H 	H 	0.39220 0.66650 0.13150 0.05300
C 	C 	0.51560 0.59800 0.21760 -0.09400
H 	H 	0.61820 0.60140 0.26420 0.06300
H 	H 	0.54390 0.56340 0.18190 0.06200
C 	C 	0.65210 0.15040 0.85330 0.30500
C 	C 	0.75560 0.24150 0.12820 0.28400
C 	C 	0.97990 0.03080 0.97030 -0.14900
H 	H 	0.86570 0.02690 0.93020 0.08500
H 	H 	0.98140 0.06690 0.01080 0.09700
Co	Co	0.87315 0.19002 0.76356 1.15300
O 	O 	0.69480 0.25060 0.68497 -0.42000
O 	O 	0.89630 0.22880 0.63000 -0.32800
O 	O 	0.26830 0.42010 0.50940 -0.25000
O 	O 	0.79350 0.31546 0.35613 -0.43400
O 	O 	0.55890 0.38290 0.29470 -0.29700
N 	N 	0.94590 0.08660 0.74270 -0.25500
N 	N 	0.09380 0.99610 0.71460 -0.12400
N 	N 	0.90350 0.74840 0.68620 -0.24600
N 	N 	0.64720 0.80230 0.66530 -0.11800
C 	C 	0.65040 0.30270 0.55840 -0.00400
C 	C 	0.69950 0.30570 0.49080 -0.05700
H 	H 	0.79810 0.27970 0.48860 0.07300
C 	C 	0.60240 0.34700 0.42690 -0.01000
C 	C 	0.45480 0.38680 0.43000 -0.15200
H 	H 	0.38920 0.41500 0.38710 0.09500
C 	C 	0.40780 0.38340 0.49860 0.20800
C 	C 	0.50240 0.34130 0.56120 -0.15800
H 	H 	0.46770 0.33850 0.60590 0.10900
C 	C 	0.16000 0.46490 0.44960 0.08700
H 	H 	0.13130 0.44380 0.39720 -0.00000
H 	H 	0.21660 0.51300 0.45160 0.01300
C 	C 	0.07870 0.06960 0.72070 0.10300
H 	H 	0.15450 0.10420 0.71030 -0.00700
C 	C 	0.97160 0.96390 0.74120 -0.00500
H 	H 	0.95510 0.91320 0.74720 0.03500
C 	C 	0.87850 0.02080 0.75710 0.00600
H 	H 	0.78270 0.01570 0.77520 0.02100
C 	C 	0.21910 0.95680 0.67800 -0.02200
H 	H 	0.25580 0.99010 0.64370 0.04300
H 	H 	0.16450 0.91300 0.64840 0.03800
C 	C 	0.35900 0.93740 0.74330 -0.13600
H 	H 	0.40140 0.98130 0.77530 0.08600
H 	H 	0.32010 0.90170 0.77480 0.07800
C 	C 	0.77630 0.76480 0.71580 0.09300
H 	H 	0.77770 0.75150 0.76620 0.00300
C 	C 	0.85080 0.77810 0.61200 0.00300
H 	H 	0.91300 0.77620 0.57640 0.02900
C 	C 	0.69180 0.81090 0.59950 0.00300
H 	H 	0.62560 0.83500 0.55370 0.03700
C 	C 	0.48780 0.83030 0.68080 -0.05300
H 	H 	0.45380 0.79520 0.71450 0.05700
H 	H 	0.39220 0.83350 0.63150 0.05300
C 	C 	0.51560 0.90200 0.71760 -0.09400
H 	H 	0.61820 0.89860 0.76420 0.06300
H 	H 	0.54390 0.93660 0.68190 0.06200
C 	C 	0.65210 0.34960 0.35330 0.30500
C 	C 	0.75560 0.25850 0.62820 0.28300
C 	C 	0.97990 0.46920 0.47030 -0.15000
H 	H 	0.86570 0.47310 0.43020 0.08500
H 	H 	0.98140 0.43310 0.51080 0.09700
Co	Co	0.12685 0.69002 0.73644 1.15300
O 	O 	0.30520 0.75060 0.81503 -0.42000
O 	O 	0.10370 0.72880 0.87000 -0.32800
O 	O 	0.73170 0.92010 0.99060 -0.24700
O 	O 	0.20650 0.81546 0.14387 -0.43400
O 	O 	0.44110 0.88290 0.20530 -0.29700
N 	N 	0.05410 0.58660 0.75730 -0.25600
N 	N 	0.90620 0.49610 0.78540 -0.12300
N 	N 	0.09650 0.24840 0.81380 -0.24600
N 	N 	0.35280 0.30230 0.83470 -0.11800
C 	C 	0.34960 0.80270 0.94160 -0.00500
C 	C 	0.30050 0.80570 0.00920 -0.05700
H 	H 	0.20190 0.77970 0.01140 0.07300
C 	C 	0.39760 0.84700 0.07310 -0.01100
C 	C 	0.54520 0.88680 0.07000 -0.14900
H 	H 	0.61080 0.91500 0.11290 0.09400
C 	C 	0.59220 0.88340 0.00140 0.20400
C 	C 	0.49760 0.84130 0.93880 -0.15500
H 	H 	0.53230 0.83850 0.89410 0.10800
C 	C 	0.84000 0.96490 0.05040 0.08200
H 	H 	0.86870 0.94380 0.10280 0.00100
H 	H 	0.78340 0.01300 0.04840 0.01600
C 	C 	0.92130 0.56960 0.77930 0.10400
H 	H 	0.84550 0.60420 0.78970 -0.00700
C 	C 	0.02840 0.46390 0.75880 -0.00800
H 	H 	0.04490 0.41320 0.75280 0.03600
C 	C 	0.12150 0.52080 0.74290 0.00800
H 	H 	0.21730 0.51570 0.72480 0.02100
C 	C 	0.78090 0.45680 0.82200 -0.02200
H 	H 	0.74420 0.49010 0.85630 0.04300
H 	H 	0.83550 0.41300 0.85160 0.03800
C 	C 	0.64100 0.43740 0.75670 -0.13600
H 	H 	0.59860 0.48130 0.72470 0.08600
H 	H 	0.67990 0.40170 0.72520 0.07800
C 	C 	0.22370 0.26480 0.78420 0.09300
H 	H 	0.22230 0.25150 0.73380 0.00300
C 	C 	0.14920 0.27810 0.88800 0.00300
H 	H 	0.08700 0.27620 0.92360 0.02900
C 	C 	0.30820 0.31090 0.90050 0.00200
H 	H 	0.37440 0.33500 0.94630 0.03700
C 	C 	0.51220 0.33030 0.81920 -0.05300
H 	H 	0.54620 0.29520 0.78550 0.05700
H 	H 	0.60780 0.33350 0.86850 0.05300
C 	C 	0.48440 0.40200 0.78240 -0.09400
H 	H 	0.38180 0.39860 0.73580 0.06300
H 	H 	0.45610 0.43660 0.81810 0.06200
C 	C 	0.34790 0.84960 0.14670 0.30500
C 	C 	0.24440 0.75850 0.87180 0.28400
C 	C 	0.02010 0.96920 0.02970 -0.14900
H 	H 	0.13430 0.97310 0.06980 0.08500
H 	H 	0.01860 0.93310 0.98920 0.09700
