data_crystal

_cell_length_a 18.34400
_cell_length_b 13.30340
_cell_length_c 7.44970
_cell_angle_alpha 90.00000
_cell_angle_beta  90.00000
_cell_angle_gamma 90.00000

_symmetry_space_group_name_	'P 1'
_symmetry_space_group_name_H-M	'P 1'

loop_
_symmetry_equiv_pos_as_xyz
  x,y,z

loop_
_atom_site_label
_atom_site_type_symbol
_atom_site_fract_x
_atom_site_fract_y
_atom_site_fract_z
_atom_site_charge
Zn	Zn	0.05650 0.87830 0.06080 1.21400
Zn	Zn	0.96610 0.12840 0.49110 1.21400
P 	P 	0.08540 0.04810 0.75160 0.56400
O 	O 	0.08470 0.99570 0.93310 -0.50500
O 	O 	0.00920 0.10010 0.72940 -0.65400
O 	O 	0.14610 0.12490 0.74210 -0.44700
O 	O 	0.09580 0.97680 0.59290 -0.48400
O 	O 	0.03640 0.34490 0.30230 -0.50100
O 	O 	0.35670 0.15460 0.70350 -0.47600
Zn	Zn	0.44350 0.12170 0.56080 1.21800
Zn	Zn	0.53390 0.87160 0.99110 1.21500
P 	P 	0.41460 0.95190 0.25160 0.55400
O 	O 	0.41530 0.00430 0.43310 -0.50600
O 	O 	0.49080 0.89990 0.22940 -0.65900
O 	O 	0.35390 0.87510 0.24210 -0.44900
O 	O 	0.40420 0.02320 0.09290 -0.47700
O 	O 	0.46360 0.65510 0.80230 -0.50000
O 	O 	0.14330 0.84540 0.20350 -0.48000
Zn	Zn	0.94350 0.37830 0.93920 1.21500
Zn	Zn	0.03390 0.62840 0.50890 1.21300
P 	P 	0.91460 0.54810 0.24840 0.55900
O 	O 	0.91530 0.49570 0.06690 -0.50300
O 	O 	0.99080 0.60010 0.27060 -0.65500
O 	O 	0.85390 0.62490 0.25790 -0.44700
O 	O 	0.90420 0.47680 0.40710 -0.47900
O 	O 	0.96360 0.84490 0.69770 -0.49900
O 	O 	0.64330 0.65460 0.29650 -0.47600
Zn	Zn	0.55650 0.62170 0.43920 1.21800
Zn	Zn	0.46610 0.37160 0.00890 1.21400
P 	P 	0.58540 0.45190 0.74840 0.55900
O 	O 	0.58470 0.50430 0.56690 -0.50700
O 	O 	0.50920 0.39990 0.77060 -0.65800
O 	O 	0.64610 0.37510 0.75790 -0.44900
O 	O 	0.59580 0.52320 0.90710 -0.48000
O 	O 	0.53640 0.15510 0.19770 -0.50000
O 	O 	0.85670 0.34540 0.79650 -0.47900
Zn	Zn	0.94350 0.12170 0.93920 1.21300
Zn	Zn	0.03390 0.87160 0.50890 1.21300
P 	P 	0.91460 0.95190 0.24840 0.56300
O 	O 	0.91530 0.00430 0.06690 -0.50600
O 	O 	0.99080 0.89990 0.27060 -0.65400
O 	O 	0.85390 0.87510 0.25790 -0.44700
O 	O 	0.90420 0.02320 0.40710 -0.48400
O 	O 	0.96360 0.65510 0.69770 -0.50100
O 	O 	0.64330 0.84540 0.29650 -0.47600
Zn	Zn	0.55650 0.87830 0.43920 1.21800
Zn	Zn	0.46610 0.12840 0.00890 1.21500
P 	P 	0.58540 0.04810 0.74840 0.55400
O 	O 	0.58470 0.99570 0.56690 -0.50600
O 	O 	0.50920 0.10010 0.77060 -0.65900
O 	O 	0.64610 0.12490 0.75790 -0.44900
O 	O 	0.59580 0.97680 0.90710 -0.47700
O 	O 	0.53640 0.34490 0.19770 -0.50000
O 	O 	0.85670 0.15460 0.79650 -0.48000
Zn	Zn	0.05650 0.62170 0.06080 1.21500
Zn	Zn	0.96610 0.37160 0.49110 1.21300
P 	P 	0.08540 0.45190 0.75160 0.55900
O 	O 	0.08470 0.50430 0.93310 -0.50300
O 	O 	0.00920 0.39990 0.72940 -0.65500
O 	O 	0.14610 0.37510 0.74210 -0.44700
O 	O 	0.09580 0.52320 0.59290 -0.47900
O 	O 	0.03640 0.15510 0.30230 -0.49900
O 	O 	0.35670 0.34540 0.70350 -0.47600
Zn	Zn	0.44350 0.37830 0.56080 1.21800
Zn	Zn	0.53390 0.62840 0.99110 1.21400
P 	P 	0.41460 0.54810 0.25160 0.55900
O 	O 	0.41530 0.49570 0.43310 -0.50700
O 	O 	0.49080 0.60010 0.22940 -0.65800
O 	O 	0.35390 0.62490 0.24210 -0.44900
O 	O 	0.40420 0.47680 0.09290 -0.48000
O 	O 	0.46360 0.84490 0.80230 -0.50000
O 	O 	0.14330 0.65460 0.20350 -0.47900
Zn	Zn	0.16690 0.25000 0.85990 1.24000
P 	P 	0.04260 0.25000 0.18800 0.54000
P 	P 	0.34540 0.25000 0.81520 0.53500
O 	O 	0.97680 0.25000 0.05210 -0.65200
O 	O 	0.11390 0.25000 0.08830 -0.44700
O 	O 	0.40660 0.25000 0.96530 -0.63600
O 	O 	0.27120 0.25000 0.90400 -0.41900
Zn	Zn	0.33310 0.75000 0.35990 1.23900
P 	P 	0.45740 0.75000 0.68800 0.54200
P 	P 	0.15460 0.75000 0.31520 0.53400
O 	O 	0.52320 0.75000 0.55210 -0.65800
O 	O 	0.38610 0.75000 0.58830 -0.44500
O 	O 	0.09340 0.75000 0.46530 -0.63700
O 	O 	0.22880 0.75000 0.40400 -0.42100
Zn	Zn	0.83310 0.75000 0.14010 1.24000
P 	P 	0.95740 0.75000 0.81200 0.54000
P 	P 	0.65460 0.75000 0.18480 0.53500
O 	O 	0.02320 0.75000 0.94790 -0.65200
O 	O 	0.88610 0.75000 0.91170 -0.44700
O 	O 	0.59340 0.75000 0.03470 -0.63600
O 	O 	0.72880 0.75000 0.09600 -0.41900
Zn	Zn	0.66690 0.25000 0.64010 1.23900
P 	P 	0.54260 0.25000 0.31200 0.54200
P 	P 	0.84540 0.25000 0.68480 0.53400
O 	O 	0.47680 0.25000 0.44790 -0.65800
O 	O 	0.61390 0.25000 0.41170 -0.44500
O 	O 	0.90660 0.25000 0.53470 -0.63700
O 	O 	0.77120 0.25000 0.59600 -0.42100
