data_crystal

_cell_length_a 19.21000
_cell_length_b 19.21000
_cell_length_c 10.99400
_cell_angle_alpha 90.00000
_cell_angle_beta  90.00000
_cell_angle_gamma 90.00000

_symmetry_space_group_name_	'P 1'
_symmetry_space_group_name_H-M	'P 1'

loop_
_symmetry_equiv_pos_as_xyz
  x,y,z

loop_
_atom_site_label
_atom_site_type_symbol
_atom_site_fract_x
_atom_site_fract_y
_atom_site_fract_z
_atom_site_charge
O 	O 	0.48383 0.38168 0.50820 -0.40800
O 	O 	0.53560 0.43335 0.35060 -0.41300
C 	C 	0.57970 0.30960 0.25990 0.08600
H 	H 	0.59430 0.35140 0.22590 0.00800
C 	C 	0.53420 0.31160 0.35680 -0.13800
C 	C 	0.51490 0.38140 0.40950 0.38800
O 	O 	0.01617 0.11832 0.50820 -0.40800
O 	O 	0.96440 0.06665 0.35060 -0.41300
C 	C 	0.92030 0.19040 0.25990 0.08700
H 	H 	0.90570 0.14860 0.22590 0.00800
C 	C 	0.96580 0.18840 0.35680 -0.13800
C 	C 	0.98510 0.11860 0.40950 0.38900
O 	O 	0.11832 0.48383 0.50820 -0.40800
O 	O 	0.06665 0.53560 0.35060 -0.41300
C 	C 	0.19040 0.57970 0.25990 0.08600
H 	H 	0.14860 0.59430 0.22590 0.00800
C 	C 	0.18840 0.53420 0.35680 -0.13800
C 	C 	0.11860 0.51490 0.40950 0.38800
O 	O 	0.38168 0.01617 0.50820 -0.40800
O 	O 	0.43335 0.96440 0.35060 -0.41400
C 	C 	0.30960 0.92030 0.25990 0.08700
H 	H 	0.35140 0.90570 0.22590 0.00800
C 	C 	0.31160 0.96580 0.35680 -0.13800
C 	C 	0.38140 0.98510 0.40950 0.38900
O 	O 	0.51617 0.88168 0.49180 -0.40800
O 	O 	0.46440 0.93335 0.64940 -0.41300
C 	C 	0.42030 0.80960 0.74010 0.08600
H 	H 	0.40570 0.85140 0.77410 0.00800
C 	C 	0.46580 0.81160 0.64320 -0.13800
C 	C 	0.48510 0.88140 0.59050 0.38800
O 	O 	0.98383 0.61832 0.49180 -0.40800
O 	O 	0.03560 0.56665 0.64940 -0.41400
C 	C 	0.07970 0.69040 0.74010 0.08700
H 	H 	0.09430 0.64860 0.77410 0.00800
C 	C 	0.03420 0.68840 0.64320 -0.13800
C 	C 	0.01490 0.61860 0.59050 0.38900
O 	O 	0.88168 0.98383 0.49180 -0.40800
O 	O 	0.93335 0.03560 0.64940 -0.41300
C 	C 	0.80960 0.07970 0.74010 0.08700
H 	H 	0.85140 0.09430 0.77410 0.00800
C 	C 	0.81160 0.03420 0.64320 -0.13800
C 	C 	0.88140 0.01490 0.59050 0.38900
O 	O 	0.61832 0.51617 0.49180 -0.40800
O 	O 	0.56665 0.46440 0.64940 -0.41300
C 	C 	0.69040 0.42030 0.74010 0.08600
H 	H 	0.64860 0.40570 0.77410 0.00800
C 	C 	0.68840 0.46580 0.64320 -0.13800
C 	C 	0.61860 0.48510 0.59050 0.38800
O 	O 	0.51617 0.61832 0.49180 -0.40800
O 	O 	0.46440 0.56665 0.64940 -0.41300
C 	C 	0.42030 0.69040 0.74010 0.08600
H 	H 	0.40570 0.64860 0.77410 0.00800
C 	C 	0.46580 0.68840 0.64320 -0.13800
C 	C 	0.48510 0.61860 0.59050 0.38800
O 	O 	0.98383 0.88168 0.49180 -0.40800
O 	O 	0.03560 0.93335 0.64940 -0.41300
C 	C 	0.07970 0.80960 0.74010 0.08700
H 	H 	0.09430 0.85140 0.77410 0.00800
C 	C 	0.03420 0.81160 0.64320 -0.13800
C 	C 	0.01490 0.88140 0.59050 0.38900
O 	O 	0.88168 0.51617 0.49180 -0.40800
O 	O 	0.93335 0.46440 0.64940 -0.41300
C 	C 	0.80960 0.42030 0.74010 0.08600
H 	H 	0.85140 0.40570 0.77410 0.00800
C 	C 	0.81160 0.46580 0.64320 -0.13800
C 	C 	0.88140 0.48510 0.59050 0.38800
O 	O 	0.61832 0.98383 0.49180 -0.40800
O 	O 	0.56665 0.03560 0.64940 -0.41400
C 	C 	0.69040 0.07970 0.74010 0.08700
H 	H 	0.64860 0.09430 0.77410 0.00800
C 	C 	0.68840 0.03420 0.64320 -0.13800
C 	C 	0.61860 0.01490 0.59050 0.38900
O 	O 	0.48383 0.11832 0.50820 -0.40800
O 	O 	0.53560 0.06665 0.35060 -0.41300
C 	C 	0.57970 0.19040 0.25990 0.08600
H 	H 	0.59430 0.14860 0.22590 0.00800
C 	C 	0.53420 0.18840 0.35680 -0.13800
C 	C 	0.51490 0.11860 0.40950 0.38800
O 	O 	0.01617 0.38168 0.50820 -0.40800
O 	O 	0.96440 0.43335 0.35060 -0.41400
C 	C 	0.92030 0.30960 0.25990 0.08700
H 	H 	0.90570 0.35140 0.22590 0.00800
C 	C 	0.96580 0.31160 0.35680 -0.13800
C 	C 	0.98510 0.38140 0.40950 0.38900
O 	O 	0.11832 0.01617 0.50820 -0.40800
O 	O 	0.06665 0.96440 0.35060 -0.41300
C 	C 	0.19040 0.92030 0.25990 0.08700
H 	H 	0.14860 0.90570 0.22590 0.00800
C 	C 	0.18840 0.96580 0.35680 -0.13800
C 	C 	0.11860 0.98510 0.40950 0.38900
O 	O 	0.38168 0.48383 0.50820 -0.40800
O 	O 	0.43335 0.53560 0.35060 -0.41300
C 	C 	0.30960 0.57970 0.25990 0.08600
H 	H 	0.35140 0.59430 0.22590 0.00800
C 	C 	0.31160 0.53420 0.35680 -0.13800
C 	C 	0.38140 0.51490 0.40950 0.38800
I 	I 	0.62904 0.25000 0.86411 -0.55800
Cu	Cu	0.68147 0.25000 0.08659 0.71800
N 	N 	0.60380 0.25000 0.21250 -0.24000
C 	C 	0.51150 0.25000 0.40690 0.08700
H 	H 	0.48140 0.25000 0.47320 0.03700
I 	I 	0.87096 0.25000 0.86411 -0.55800
Cu	Cu	0.81853 0.25000 0.08659 0.71800
N 	N 	0.89620 0.25000 0.21250 -0.24100
C 	C 	0.98850 0.25000 0.40690 0.08800
H 	H 	0.01860 0.25000 0.47320 0.03600
I 	I 	0.25000 0.62904 0.86411 -0.55800
Cu	Cu	0.25000 0.68147 0.08659 0.71800
N 	N 	0.25000 0.60380 0.21250 -0.24000
C 	C 	0.25000 0.51150 0.40690 0.08700
H 	H 	0.25000 0.48140 0.47320 0.03700
I 	I 	0.25000 0.87096 0.86411 -0.55800
Cu	Cu	0.25000 0.81853 0.08659 0.71800
N 	N 	0.25000 0.89620 0.21250 -0.24100
C 	C 	0.25000 0.98850 0.40690 0.08800
H 	H 	0.25000 0.01860 0.47320 0.03600
I 	I 	0.37096 0.75000 0.13589 -0.55800
Cu	Cu	0.31853 0.75000 0.91341 0.71800
N 	N 	0.39620 0.75000 0.78750 -0.24000
C 	C 	0.48850 0.75000 0.59310 0.08700
H 	H 	0.51860 0.75000 0.52680 0.03700
I 	I 	0.12904 0.75000 0.13589 -0.55800
Cu	Cu	0.18147 0.75000 0.91341 0.71800
N 	N 	0.10380 0.75000 0.78750 -0.24100
C 	C 	0.01150 0.75000 0.59310 0.08800
H 	H 	0.98140 0.75000 0.52680 0.03600
I 	I 	0.75000 0.12904 0.13589 -0.55800
Cu	Cu	0.75000 0.18147 0.91341 0.71800
N 	N 	0.75000 0.10380 0.78750 -0.24100
C 	C 	0.75000 0.01150 0.59310 0.08800
H 	H 	0.75000 0.98140 0.52680 0.03600
I 	I 	0.75000 0.37096 0.13589 -0.55800
Cu	Cu	0.75000 0.31853 0.91341 0.71800
N 	N 	0.75000 0.39620 0.78750 -0.24000
C 	C 	0.75000 0.48850 0.59310 0.08700
H 	H 	0.75000 0.51860 0.52680 0.03700
Cu	Cu	0.46954 0.46954 0.59500 0.90900
Cu	Cu	0.03046 0.03046 0.59500 0.90900
Cu	Cu	0.03046 0.46954 0.59500 0.90900
Cu	Cu	0.46954 0.03046 0.59500 0.90900
Cu	Cu	0.53046 0.96954 0.40500 0.90900
Cu	Cu	0.96954 0.53046 0.40500 0.90900
Cu	Cu	0.96954 0.96954 0.40500 0.90900
Cu	Cu	0.53046 0.53046 0.40500 0.90900
