data_crystal

_cell_length_a 18.12900
_cell_length_b 18.12900
_cell_length_c 21.84100
_cell_angle_alpha 90.00000
_cell_angle_beta  90.00000
_cell_angle_gamma 90.00000

_symmetry_space_group_name_	'P 1'
_symmetry_space_group_name_H-M	'P 1'

loop_
_symmetry_equiv_pos_as_xyz
  x,y,z

loop_
_atom_site_label
_atom_site_type_symbol
_atom_site_fract_x
_atom_site_fract_y
_atom_site_fract_z
_atom_site_charge
C 	C 	0.56360 0.84230 0.60480 0.07600
H 	H 	0.60890 0.85840 0.58740 0.01300
C 	C 	0.56580 0.79850 0.65630 -0.12400
C 	C 	0.63700 0.77900 0.68730 0.36200
O 	O 	0.69620 0.80440 0.66441 -0.39200
O 	O 	0.63170 0.74020 0.73495 -0.40700
C 	C 	0.06360 0.34230 0.10480 0.07200
H 	H 	0.10890 0.35840 0.08740 0.00800
C 	C 	0.06580 0.29850 0.15630 -0.12700
C 	C 	0.13700 0.27900 0.18730 0.36100
O 	O 	0.19620 0.30440 0.16441 -0.39700
O 	O 	0.13170 0.24020 0.23495 -0.41100
C 	C 	0.43640 0.15770 0.60480 0.07500
H 	H 	0.39110 0.14160 0.58740 0.01000
C 	C 	0.43420 0.20150 0.65630 -0.12600
C 	C 	0.36300 0.22100 0.68730 0.36100
O 	O 	0.30380 0.19560 0.66441 -0.39500
O 	O 	0.36830 0.25980 0.73495 -0.40800
C 	C 	0.93640 0.65770 0.10480 0.07800
H 	H 	0.89110 0.64160 0.08740 0.00700
C 	C 	0.93420 0.70150 0.15630 -0.12200
C 	C 	0.86300 0.72100 0.18730 0.36000
O 	O 	0.80380 0.69560 0.16441 -0.39600
O 	O 	0.86830 0.75980 0.23495 -0.40800
C 	C 	0.15770 0.56360 0.60480 0.07500
H 	H 	0.14160 0.60890 0.58740 0.01100
C 	C 	0.20150 0.56580 0.65630 -0.12600
C 	C 	0.22100 0.63700 0.68730 0.36100
O 	O 	0.19560 0.69620 0.66441 -0.39400
O 	O 	0.25980 0.63170 0.73495 -0.40800
C 	C 	0.65770 0.06360 0.10480 0.07200
H 	H 	0.64160 0.10890 0.08740 0.00800
C 	C 	0.70150 0.06580 0.15630 -0.12600
C 	C 	0.72100 0.13700 0.18730 0.36100
O 	O 	0.69560 0.19620 0.16441 -0.39700
O 	O 	0.75980 0.13170 0.23495 -0.41000
C 	C 	0.84230 0.43640 0.60480 0.07500
H 	H 	0.85840 0.39110 0.58740 0.01100
C 	C 	0.79850 0.43420 0.65630 -0.12500
C 	C 	0.77900 0.36300 0.68730 0.36100
O 	O 	0.80440 0.30380 0.66441 -0.39400
O 	O 	0.74020 0.36830 0.73495 -0.40800
C 	C 	0.34230 0.93640 0.10480 0.07800
H 	H 	0.35840 0.89110 0.08740 0.00700
C 	C 	0.29850 0.93420 0.15630 -0.12200
C 	C 	0.27900 0.86300 0.18730 0.36000
O 	O 	0.30440 0.80380 0.16441 -0.39700
O 	O 	0.24020 0.86830 0.23495 -0.40900
C 	C 	0.43640 0.84230 0.39520 0.07600
H 	H 	0.39110 0.85840 0.41260 0.01100
C 	C 	0.43420 0.79850 0.34370 -0.12700
C 	C 	0.36300 0.77900 0.31270 0.36200
O 	O 	0.30380 0.80440 0.33559 -0.39400
O 	O 	0.36830 0.74020 0.26505 -0.41000
C 	C 	0.93640 0.34230 0.89520 0.07900
H 	H 	0.89110 0.35840 0.91260 0.02000
C 	C 	0.93420 0.29850 0.84370 -0.11800
C 	C 	0.86300 0.27900 0.81270 0.36000
O 	O 	0.80380 0.30440 0.83559 -0.38900
O 	O 	0.86830 0.24020 0.76505 -0.40700
C 	C 	0.56360 0.15770 0.39520 0.07600
H 	H 	0.60890 0.14160 0.41260 0.01000
C 	C 	0.56580 0.20150 0.34370 -0.12800
C 	C 	0.63700 0.22100 0.31270 0.36200
O 	O 	0.69620 0.19560 0.33559 -0.39500
O 	O 	0.63170 0.25980 0.26505 -0.41000
C 	C 	0.06360 0.65770 0.89520 0.07500
H 	H 	0.10890 0.64160 0.91260 0.02100
C 	C 	0.06580 0.70150 0.84370 -0.12100
C 	C 	0.13700 0.72100 0.81270 0.36100
O 	O 	0.19620 0.69560 0.83559 -0.38900
O 	O 	0.13170 0.75980 0.76505 -0.40800
C 	C 	0.84230 0.56360 0.39520 0.07600
H 	H 	0.85840 0.60890 0.41260 0.01100
C 	C 	0.79850 0.56580 0.34370 -0.12700
C 	C 	0.77900 0.63700 0.31270 0.36200
O 	O 	0.80440 0.69620 0.33559 -0.39400
O 	O 	0.74020 0.63170 0.26505 -0.41000
C 	C 	0.34230 0.06360 0.89520 0.07500
H 	H 	0.35840 0.10890 0.91260 0.02100
C 	C 	0.29850 0.06580 0.84370 -0.12100
C 	C 	0.27900 0.13700 0.81270 0.36100
O 	O 	0.30440 0.19620 0.83559 -0.38900
O 	O 	0.24020 0.13170 0.76505 -0.40900
C 	C 	0.15770 0.43640 0.39520 0.07600
H 	H 	0.14160 0.39110 0.41260 0.01000
C 	C 	0.20150 0.43420 0.34370 -0.12800
C 	C 	0.22100 0.36300 0.31270 0.36200
O 	O 	0.19560 0.30380 0.33559 -0.39500
O 	O 	0.25980 0.36830 0.26505 -0.41000
C 	C 	0.65770 0.93640 0.89520 0.07800
H 	H 	0.64160 0.89110 0.91260 0.02000
C 	C 	0.70150 0.93420 0.84370 -0.11800
C 	C 	0.72100 0.86300 0.81270 0.36000
O 	O 	0.69560 0.80380 0.83559 -0.38900
O 	O 	0.75980 0.86830 0.76505 -0.40700
C 	C 	0.43640 0.15770 0.39520 0.07600
H 	H 	0.39110 0.14160 0.41260 0.01000
C 	C 	0.43420 0.20150 0.34370 -0.12800
C 	C 	0.36300 0.22100 0.31270 0.36200
O 	O 	0.30380 0.19560 0.33559 -0.39500
O 	O 	0.36830 0.25980 0.26505 -0.41000
C 	C 	0.93640 0.65770 0.89520 0.07800
H 	H 	0.89110 0.64160 0.91260 0.02000
C 	C 	0.93420 0.70150 0.84370 -0.11800
C 	C 	0.86300 0.72100 0.81270 0.36000
O 	O 	0.80380 0.69560 0.83559 -0.38900
O 	O 	0.86830 0.75980 0.76505 -0.40700
C 	C 	0.56360 0.84230 0.39520 0.07600
H 	H 	0.60890 0.85840 0.41260 0.01100
C 	C 	0.56580 0.79850 0.34370 -0.12700
C 	C 	0.63700 0.77900 0.31270 0.36200
O 	O 	0.69620 0.80440 0.33559 -0.39400
O 	O 	0.63170 0.74020 0.26505 -0.41000
C 	C 	0.06360 0.34230 0.89520 0.07500
H 	H 	0.10890 0.35840 0.91260 0.02100
C 	C 	0.06580 0.29850 0.84370 -0.12100
C 	C 	0.13700 0.27900 0.81270 0.36100
O 	O 	0.19620 0.30440 0.83559 -0.38900
O 	O 	0.13170 0.24020 0.76505 -0.40900
C 	C 	0.84230 0.43640 0.39520 0.07600
H 	H 	0.85840 0.39110 0.41260 0.01100
C 	C 	0.79850 0.43420 0.34370 -0.12700
C 	C 	0.77900 0.36300 0.31270 0.36200
O 	O 	0.80440 0.30380 0.33559 -0.39400
O 	O 	0.74020 0.36830 0.26505 -0.41000
C 	C 	0.34230 0.93640 0.89520 0.07900
H 	H 	0.35840 0.89110 0.91260 0.02000
C 	C 	0.29850 0.93420 0.84370 -0.11800
C 	C 	0.27900 0.86300 0.81270 0.36000
O 	O 	0.30440 0.80380 0.83559 -0.38900
O 	O 	0.24020 0.86830 0.76505 -0.40700
C 	C 	0.15770 0.56360 0.39520 0.07600
H 	H 	0.14160 0.60890 0.41260 0.01000
C 	C 	0.20150 0.56580 0.34370 -0.12800
C 	C 	0.22100 0.63700 0.31270 0.36200
O 	O 	0.19560 0.69620 0.33559 -0.39500
O 	O 	0.25980 0.63170 0.26505 -0.41000
C 	C 	0.65770 0.06360 0.89520 0.07500
H 	H 	0.64160 0.10890 0.91260 0.02100
C 	C 	0.70150 0.06580 0.84370 -0.12100
C 	C 	0.72100 0.13700 0.81270 0.36100
O 	O 	0.69560 0.19620 0.83559 -0.38900
O 	O 	0.75980 0.13170 0.76505 -0.40800
C 	C 	0.56360 0.15770 0.60480 0.07500
H 	H 	0.60890 0.14160 0.58740 0.01100
C 	C 	0.56580 0.20150 0.65630 -0.12600
C 	C 	0.63700 0.22100 0.68730 0.36100
O 	O 	0.69620 0.19560 0.66441 -0.39400
O 	O 	0.63170 0.25980 0.73495 -0.40800
C 	C 	0.06360 0.65770 0.10480 0.07200
H 	H 	0.10890 0.64160 0.08740 0.00800
C 	C 	0.06580 0.70150 0.15630 -0.12600
C 	C 	0.13700 0.72100 0.18730 0.36100
O 	O 	0.19620 0.69560 0.16441 -0.39700
O 	O 	0.13170 0.75980 0.23495 -0.41000
C 	C 	0.43640 0.84230 0.60480 0.07500
H 	H 	0.39110 0.85840 0.58740 0.01100
C 	C 	0.43420 0.79850 0.65630 -0.12500
C 	C 	0.36300 0.77900 0.68730 0.36100
O 	O 	0.30380 0.80440 0.66441 -0.39400
O 	O 	0.36830 0.74020 0.73495 -0.40800
C 	C 	0.93640 0.34230 0.10480 0.07800
H 	H 	0.89110 0.35840 0.08740 0.00700
C 	C 	0.93420 0.29850 0.15630 -0.12200
C 	C 	0.86300 0.27900 0.18730 0.36000
O 	O 	0.80380 0.30440 0.16441 -0.39700
O 	O 	0.86830 0.24020 0.23495 -0.40900
C 	C 	0.15770 0.43640 0.60480 0.07500
H 	H 	0.14160 0.39110 0.58740 0.01000
C 	C 	0.20150 0.43420 0.65630 -0.12600
C 	C 	0.22100 0.36300 0.68730 0.36100
O 	O 	0.19560 0.30380 0.66441 -0.39500
O 	O 	0.25980 0.36830 0.73495 -0.40800
C 	C 	0.65770 0.93640 0.10480 0.07800
H 	H 	0.64160 0.89110 0.08740 0.00700
C 	C 	0.70150 0.93420 0.15630 -0.12200
C 	C 	0.72100 0.86300 0.18730 0.36000
O 	O 	0.69560 0.80380 0.16441 -0.39600
O 	O 	0.75980 0.86830 0.23495 -0.40800
C 	C 	0.84230 0.56360 0.60480 0.07500
H 	H 	0.85840 0.60890 0.58740 0.01200
C 	C 	0.79850 0.56580 0.65630 -0.12500
C 	C 	0.77900 0.63700 0.68730 0.36100
O 	O 	0.80440 0.69620 0.66441 -0.39300
O 	O 	0.74020 0.63170 0.73495 -0.40800
C 	C 	0.34230 0.06360 0.10480 0.07200
H 	H 	0.35840 0.10890 0.08740 0.00800
C 	C 	0.29850 0.06580 0.15630 -0.12700
C 	C 	0.27900 0.13700 0.18730 0.36100
O 	O 	0.30440 0.19620 0.16441 -0.39700
O 	O 	0.24020 0.13170 0.23495 -0.41100
I 	I 	0.37427 0.00000 0.50000 -0.43100
I 	I 	0.87427 0.50000 -0.00000 -0.45000
I 	I 	0.62573 0.00000 0.50000 -0.43000
I 	I 	0.12573 0.50000 -0.00000 -0.45700
I 	I 	-0.00000 0.37427 0.50000 -0.43100
I 	I 	0.50000 0.87427 -0.00000 -0.45000
I 	I 	-0.00000 0.62573 0.50000 -0.43000
I 	I 	0.50000 0.12573 -0.00000 -0.45700
Cu	Cu	0.50000 0.92657 0.50000 0.80500
Cu	Cu	-0.00000 0.42657 -0.00000 0.79300
Cu	Cu	0.50000 0.07343 0.50000 0.80300
Cu	Cu	-0.00000 0.57343 -0.00000 0.79400
Cu	Cu	0.07343 0.50000 0.50000 0.80300
Cu	Cu	0.57343 0.00000 -0.00000 0.79400
Cu	Cu	0.92657 0.50000 0.50000 0.80500
Cu	Cu	0.42657 0.00000 -0.00000 0.79300
N 	N 	0.50000 0.86340 0.57790 -0.23700
C 	C 	0.50000 0.77590 0.68260 0.06900
H 	H 	0.50000 0.74540 0.71800 0.04300
N 	N 	0.00000 0.36340 0.07790 -0.24400
C 	C 	0.00000 0.27590 0.18260 0.06000
H 	H 	0.00000 0.24540 0.21800 0.04100
N 	N 	0.50000 0.13660 0.57790 -0.23800
C 	C 	0.50000 0.22410 0.68260 0.06900
H 	H 	0.50000 0.25460 0.71800 0.04200
N 	N 	0.00000 0.63660 0.07790 -0.24400
C 	C 	-0.00000 0.72410 0.18260 0.06000
H 	H 	-0.00000 0.75460 0.21800 0.04200
N 	N 	0.13660 0.50000 0.57790 -0.23800
C 	C 	0.22410 0.50000 0.68260 0.06900
H 	H 	0.25460 0.50000 0.71800 0.04200
N 	N 	0.63660 0.00000 0.07790 -0.24400
C 	C 	0.72410 0.00000 0.18260 0.06000
H 	H 	0.75460 0.00000 0.21800 0.04200
N 	N 	0.86340 0.50000 0.57790 -0.23700
C 	C 	0.77590 0.50000 0.68260 0.06900
H 	H 	0.74540 0.50000 0.71800 0.04300
N 	N 	0.36340 0.00000 0.07790 -0.24400
C 	C 	0.27590 0.00000 0.18260 0.06000
H 	H 	0.24540 0.00000 0.21800 0.04100
N 	N 	0.50000 0.86340 0.42210 -0.23800
C 	C 	0.50000 0.77590 0.31740 0.07000
H 	H 	0.50000 0.74540 0.28200 0.04000
N 	N 	0.00000 0.36340 0.92210 -0.22800
C 	C 	0.00000 0.27590 0.81740 0.06300
H 	H 	-0.00000 0.24540 0.78200 0.04200
N 	N 	0.50000 0.13660 0.42210 -0.23900
C 	C 	0.50000 0.22410 0.31740 0.07000
H 	H 	0.50000 0.25460 0.28200 0.04000
N 	N 	-0.00000 0.63660 0.92210 -0.22800
C 	C 	-0.00000 0.72410 0.81740 0.06300
H 	H 	-0.00000 0.75460 0.78200 0.04300
N 	N 	0.86340 0.50000 0.42210 -0.23800
C 	C 	0.77590 0.50000 0.31740 0.07000
H 	H 	0.74540 0.50000 0.28200 0.04000
N 	N 	0.36340 0.00000 0.92210 -0.22800
C 	C 	0.27590 0.00000 0.81740 0.06300
H 	H 	0.24540 0.00000 0.78200 0.04200
N 	N 	0.13660 0.50000 0.42210 -0.23900
C 	C 	0.22410 0.50000 0.31740 0.07000
H 	H 	0.25460 0.50000 0.28200 0.04000
N 	N 	0.63660 0.00000 0.92210 -0.22800
C 	C 	0.72410 0.00000 0.81740 0.06300
H 	H 	0.75460 0.00000 0.78200 0.04300
Cu	Cu	0.78876 0.78876 0.70935 0.90600
Cu	Cu	0.28876 0.28876 0.20935 0.90500
Cu	Cu	0.21124 0.21124 0.70935 0.90600
Cu	Cu	0.71124 0.71124 0.20935 0.90500
Cu	Cu	0.21124 0.78876 0.70935 0.90600
Cu	Cu	0.71124 0.28876 0.20935 0.90500
Cu	Cu	0.78876 0.21124 0.70935 0.90600
Cu	Cu	0.28876 0.71124 0.20935 0.90500
Cu	Cu	0.21124 0.78876 0.29065 0.90600
Cu	Cu	0.71124 0.28876 0.79065 0.90800
Cu	Cu	0.78876 0.21124 0.29065 0.90600
Cu	Cu	0.28876 0.71124 0.79065 0.90800
Cu	Cu	0.78876 0.78876 0.29065 0.90600
Cu	Cu	0.28876 0.28876 0.79065 0.90800
Cu	Cu	0.21124 0.21124 0.29065 0.90500
Cu	Cu	0.71124 0.71124 0.79065 0.90700
