data_crystal

_cell_length_a 9.93250
_cell_length_b 12.70890
_cell_length_c 16.20270
_cell_angle_alpha 90.00000
_cell_angle_beta  96.23600
_cell_angle_gamma 90.00000

_symmetry_space_group_name_	'P 1'
_symmetry_space_group_name_H-M	'P 1'

loop_
_symmetry_equiv_pos_as_xyz
  x,y,z

loop_
_atom_site_label
_atom_site_type_symbol
_atom_site_fract_x
_atom_site_fract_y
_atom_site_fract_z
_atom_site_charge
Eu	Eu	0.30590 0.04326 0.99499 2.00300
Br	Br	0.21940 0.25498 0.98350 -0.44300
O 	O 	0.41360 0.04410 0.13260 -0.49100
O 	O 	0.63720 0.02280 0.13370 -0.48700
O 	O 	0.73330 0.35810 0.47700 -0.44100
O 	O 	0.51360 0.37640 0.47310 -0.57300
O 	O 	0.09560 0.99910 0.91590 -0.39100
O 	O 	0.87720 0.96190 0.92060 -0.39400
C 	C 	0.55440 0.10700 0.24920 -0.11000
C 	C 	0.45770 0.17690 0.26500 -0.01700
H 	H 	0.37720 0.17990 0.22990 0.05500
C 	C 	0.47730 0.24610 0.33460 0.03000
H 	H 	0.40920 0.29300 0.34480 0.01600
C 	C 	0.59470 0.24400 0.38630 -0.13400
C 	C 	0.69610 0.16630 0.37460 0.06800
C 	C 	0.81730 0.15520 0.42910 -0.08200
H 	H 	0.83400 0.20150 0.47340 0.09500
C 	C 	0.90990 0.07880 0.41840 -0.01400
H 	H 	0.99060 0.07540 0.45320 0.06400
C 	C 	0.88210 0.00480 0.35390 -0.00700
H 	H 	0.94210 0.94960 0.34890 0.04600
C 	C 	0.77010 0.01280 0.29930 -0.05000
H 	H 	0.75540 0.96440 0.25630 0.06000
C 	C 	0.67430 0.09430 0.30680 0.04400
C 	C 	0.53350 0.05160 0.16610 0.45200
C 	C 	0.61490 0.32910 0.45050 0.42600
C 	C 	0.99260 0.98850 0.95290 0.27200
Eu	Eu	0.69410 0.54326 0.50501 2.03800
Br	Br	0.78060 0.75498 0.51650 -0.44300
O 	O 	0.58640 0.54410 0.36740 -0.50000
O 	O 	0.36280 0.52280 0.36630 -0.49700
O 	O 	0.26670 0.85810 0.02300 -0.44000
O 	O 	0.48640 0.87640 0.02690 -0.57100
O 	O 	0.90440 0.49910 0.58410 -0.40400
O 	O 	0.12280 0.46190 0.57940 -0.40100
C 	C 	0.44560 0.60700 0.25080 -0.11500
C 	C 	0.54230 0.67690 0.23500 -0.01400
H 	H 	0.62280 0.67990 0.27010 0.05200
C 	C 	0.52270 0.74610 0.16540 0.02800
H 	H 	0.59080 0.79300 0.15520 0.01600
C 	C 	0.40530 0.74400 0.11370 -0.13300
C 	C 	0.30390 0.66630 0.12540 0.06800
C 	C 	0.18270 0.65520 0.07090 -0.08500
H 	H 	0.16600 0.70150 0.02660 0.09600
C 	C 	0.09010 0.57880 0.08160 -0.00700
H 	H 	0.00940 0.57540 0.04680 0.06100
C 	C 	0.11790 0.50480 0.14610 -0.02100
H 	H 	0.05790 0.44960 0.15110 0.05800
C 	C 	0.22990 0.51280 0.20070 -0.06000
H 	H 	0.24460 0.46440 0.24370 0.07100
C 	C 	0.32570 0.59430 0.19320 0.04800
C 	C 	0.46650 0.55160 0.33390 0.45600
C 	C 	0.38510 0.82910 0.04950 0.42500
C 	C 	0.00740 0.48850 0.54710 0.27500
Eu	Eu	0.69410 0.95674 0.00501 2.00400
Br	Br	0.78060 0.74502 0.01650 -0.44200
O 	O 	0.58640 0.95590 0.86740 -0.49000
O 	O 	0.36280 0.97720 0.86630 -0.48600
O 	O 	0.26670 0.64190 0.52300 -0.44100
O 	O 	0.48640 0.62360 0.52690 -0.57300
O 	O 	0.90440 0.00090 0.08410 -0.39100
O 	O 	0.12280 0.03810 0.07940 -0.39400
C 	C 	0.44560 0.89300 0.75080 -0.11000
C 	C 	0.54230 0.82310 0.73500 -0.01700
H 	H 	0.62280 0.82010 0.77010 0.05500
C 	C 	0.52270 0.75390 0.66540 0.03000
H 	H 	0.59080 0.70700 0.65520 0.01600
C 	C 	0.40530 0.75600 0.61370 -0.13400
C 	C 	0.30390 0.83370 0.62540 0.06800
C 	C 	0.18270 0.84480 0.57090 -0.08200
H 	H 	0.16600 0.79850 0.52660 0.09500
C 	C 	0.09010 0.92120 0.58160 -0.01400
H 	H 	0.00940 0.92460 0.54680 0.06400
C 	C 	0.11790 0.99520 0.64610 -0.00700
H 	H 	0.05790 0.05040 0.65110 0.04600
C 	C 	0.22990 0.98720 0.70070 -0.05000
H 	H 	0.24460 0.03560 0.74370 0.06000
C 	C 	0.32570 0.90570 0.69320 0.04400
C 	C 	0.46650 0.94840 0.83390 0.45200
C 	C 	0.38510 0.67090 0.54950 0.42600
C 	C 	0.00740 0.01150 0.04710 0.27200
Eu	Eu	0.30590 0.45674 0.49499 2.03800
Br	Br	0.21940 0.24502 0.48350 -0.44300
O 	O 	0.41360 0.45590 0.63260 -0.50000
O 	O 	0.63720 0.47720 0.63370 -0.49700
O 	O 	0.73330 0.14190 0.97700 -0.44000
O 	O 	0.51360 0.12360 0.97310 -0.57100
O 	O 	0.09560 0.50090 0.41590 -0.40400
O 	O 	0.87720 0.53810 0.42060 -0.40100
C 	C 	0.55440 0.39300 0.74920 -0.11500
C 	C 	0.45770 0.32310 0.76500 -0.01400
H 	H 	0.37720 0.32010 0.72990 0.05200
C 	C 	0.47730 0.25390 0.83460 0.02800
H 	H 	0.40920 0.20700 0.84480 0.01600
C 	C 	0.59470 0.25600 0.88630 -0.13300
C 	C 	0.69610 0.33370 0.87460 0.06800
C 	C 	0.81730 0.34480 0.92910 -0.08500
H 	H 	0.83400 0.29850 0.97340 0.09600
C 	C 	0.90990 0.42120 0.91840 -0.00700
H 	H 	0.99060 0.42460 0.95320 0.06100
C 	C 	0.88210 0.49520 0.85390 -0.02100
H 	H 	0.94210 0.55040 0.84890 0.05800
C 	C 	0.77010 0.48720 0.79930 -0.06000
H 	H 	0.75540 0.53560 0.75630 0.07100
C 	C 	0.67430 0.40570 0.80680 0.04800
C 	C 	0.53350 0.44840 0.66610 0.45600
C 	C 	0.61490 0.17090 0.95050 0.42500
C 	C 	0.99260 0.51150 0.45290 0.27500
