data_crystal

_cell_length_a 9.95240
_cell_length_b 12.67000
_cell_length_c 16.21370
_cell_angle_alpha 90.00000
_cell_angle_beta  96.18000
_cell_angle_gamma 90.00000

_symmetry_space_group_name_	'P 1'
_symmetry_space_group_name_H-M	'P 1'

loop_
_symmetry_equiv_pos_as_xyz
  x,y,z

loop_
_atom_site_label
_atom_site_type_symbol
_atom_site_fract_x
_atom_site_fract_y
_atom_site_fract_z
_atom_site_charge
Sm	Sm	0.30634 0.04382 0.99503 2.11200
O 	O 	0.41300 0.04450 0.13300 -0.50200
O 	O 	0.63600 0.02210 0.13420 -0.50400
O 	O 	0.73550 0.35820 0.47750 -0.45500
O 	O 	0.51630 0.37690 0.47320 -0.59800
O 	O 	0.09530 0.99990 0.91580 -0.40500
O 	O 	0.87700 0.96220 0.92100 -0.40900
C 	C 	0.55470 0.10640 0.25000 -0.11700
C 	C 	0.45840 0.17690 0.26580 -0.01300
H 	H 	0.37810 0.17990 0.23080 0.05200
C 	C 	0.47780 0.24640 0.33500 0.02500
H 	H 	0.41050 0.29400 0.34530 0.01400
C 	C 	0.59650 0.24260 0.38630 -0.12800
C 	C 	0.69700 0.16580 0.37450 0.06200
C 	C 	0.82030 0.15520 0.42890 -0.07700
H 	H 	0.83800 0.20220 0.47280 0.09300
C 	C 	0.91060 0.07880 0.41770 -0.01800
H 	H 	0.99120 0.07510 0.45240 0.06500
C 	C 	0.88290 0.00420 0.35320 -0.00400
H 	H 	0.94280 0.94890 0.34760 0.04400
C 	C 	0.76900 0.01300 0.29930 -0.05300
H 	H 	0.75320 0.96440 0.25640 0.06000
C 	C 	0.67460 0.09410 0.30690 0.04800
C 	C 	0.53380 0.05140 0.16670 0.46200
C 	C 	0.61750 0.32870 0.45200 0.43100
C 	C 	0.99290 0.98960 0.95260 0.27800
Br	Br	0.22060 0.25669 0.98420 -0.46000
Sm	Sm	0.69366 0.54382 0.50497 2.14800
O 	O 	0.58700 0.54450 0.36700 -0.51400
O 	O 	0.36400 0.52210 0.36580 -0.51700
O 	O 	0.26450 0.85820 0.02250 -0.45500
O 	O 	0.48370 0.87690 0.02680 -0.59500
O 	O 	0.90470 0.49990 0.58420 -0.41900
O 	O 	0.12300 0.46220 0.57900 -0.41700
C 	C 	0.44530 0.60640 0.25000 -0.12200
C 	C 	0.54160 0.67690 0.23420 -0.01000
H 	H 	0.62190 0.67990 0.26920 0.04900
C 	C 	0.52220 0.74640 0.16500 0.02300
H 	H 	0.58950 0.79400 0.15470 0.01400
C 	C 	0.40350 0.74260 0.11370 -0.12700
C 	C 	0.30300 0.66580 0.12550 0.06200
C 	C 	0.17970 0.65520 0.07110 -0.08000
H 	H 	0.16200 0.70220 0.02720 0.09300
C 	C 	0.08940 0.57880 0.08230 -0.01000
H 	H 	0.00880 0.57510 0.04760 0.06200
C 	C 	0.11710 0.50420 0.14680 -0.01900
H 	H 	0.05720 0.44890 0.15240 0.05700
C 	C 	0.23100 0.51300 0.20070 -0.06300
H 	H 	0.24680 0.46440 0.24360 0.07100
C 	C 	0.32540 0.59410 0.19310 0.05300
C 	C 	0.46620 0.55140 0.33330 0.46600
C 	C 	0.38250 0.82870 0.04800 0.42900
C 	C 	0.00710 0.48960 0.54740 0.28100
Br	Br	0.77940 0.75669 0.51580 -0.46100
Sm	Sm	0.69366 0.95618 0.00497 2.11100
O 	O 	0.58700 0.95550 0.86700 -0.50300
O 	O 	0.36400 0.97790 0.86580 -0.50500
O 	O 	0.26450 0.64180 0.52250 -0.45600
O 	O 	0.48370 0.62310 0.52680 -0.59800
O 	O 	0.90470 0.00010 0.08420 -0.40500
O 	O 	0.12300 0.03780 0.07900 -0.40900
C 	C 	0.44530 0.89360 0.75000 -0.11700
C 	C 	0.54160 0.82310 0.73420 -0.01300
H 	H 	0.62190 0.82010 0.76920 0.05200
C 	C 	0.52220 0.75360 0.66500 0.02500
H 	H 	0.58950 0.70600 0.65470 0.01400
C 	C 	0.40350 0.75740 0.61370 -0.12800
C 	C 	0.30300 0.83420 0.62550 0.06200
C 	C 	0.17970 0.84480 0.57110 -0.07700
H 	H 	0.16200 0.79780 0.52720 0.09300
C 	C 	0.08940 0.92120 0.58230 -0.01800
H 	H 	0.00880 0.92490 0.54760 0.06500
C 	C 	0.11710 0.99580 0.64680 -0.00400
H 	H 	0.05720 0.05110 0.65240 0.04400
C 	C 	0.23100 0.98700 0.70070 -0.05300
H 	H 	0.24680 0.03560 0.74360 0.06000
C 	C 	0.32540 0.90590 0.69310 0.04800
C 	C 	0.46620 0.94860 0.83330 0.46200
C 	C 	0.38250 0.67130 0.54800 0.43100
C 	C 	0.00710 0.01040 0.04740 0.27800
Br	Br	0.77940 0.74331 0.01580 -0.46000
Sm	Sm	0.30634 0.45618 0.49503 2.14800
O 	O 	0.41300 0.45550 0.63300 -0.51400
O 	O 	0.63600 0.47790 0.63420 -0.51700
O 	O 	0.73550 0.14180 0.97750 -0.45500
O 	O 	0.51630 0.12310 0.97320 -0.59500
O 	O 	0.09530 0.50010 0.41580 -0.41900
O 	O 	0.87700 0.53780 0.42100 -0.41700
C 	C 	0.55470 0.39360 0.75000 -0.12200
C 	C 	0.45840 0.32310 0.76580 -0.01000
H 	H 	0.37810 0.32010 0.73080 0.04900
C 	C 	0.47780 0.25360 0.83500 0.02300
H 	H 	0.41050 0.20600 0.84530 0.01400
C 	C 	0.59650 0.25740 0.88630 -0.12700
C 	C 	0.69700 0.33420 0.87450 0.06200
C 	C 	0.82030 0.34480 0.92890 -0.08000
H 	H 	0.83800 0.29780 0.97280 0.09300
C 	C 	0.91060 0.42120 0.91770 -0.01000
H 	H 	0.99120 0.42490 0.95240 0.06200
C 	C 	0.88290 0.49580 0.85320 -0.01900
H 	H 	0.94280 0.55110 0.84760 0.05700
C 	C 	0.76900 0.48700 0.79930 -0.06300
H 	H 	0.75320 0.53560 0.75640 0.07100
C 	C 	0.67460 0.40590 0.80690 0.05300
C 	C 	0.53380 0.44860 0.66670 0.46600
C 	C 	0.61750 0.17130 0.95200 0.42900
C 	C 	0.99290 0.51040 0.45260 0.28100
Br	Br	0.22060 0.24331 0.48420 -0.46100
