data_crystal

_cell_length_a 15.70700
_cell_length_b 15.70700
_cell_length_c 7.20400
_cell_angle_alpha 90.00000
_cell_angle_beta  90.00000
_cell_angle_gamma 120.00000

_symmetry_space_group_name_	'P 1'
_symmetry_space_group_name_H-M	'P 1'

loop_
_symmetry_equiv_pos_as_xyz
  x,y,z

loop_
_atom_site_label
_atom_site_type_symbol
_atom_site_fract_x
_atom_site_fract_y
_atom_site_fract_z
_atom_site_charge
Ag	Ag	0.52846 0.26432 0.99999 0.45900
N 	N 	0.51500 0.40390 0.31070 -0.21700
N 	N 	0.40420 0.51620 0.31190 -0.21700
C 	C 	0.52210 0.35230 0.20710 -0.12800
C 	C 	0.35310 0.52290 0.20430 -0.13200
N 	N 	0.37140 0.37300 0.62580 -0.21400
C 	C 	0.36550 0.28330 0.66290 -0.00500
C 	C 	0.27900 0.20570 0.73300 -0.02400
C 	C 	0.19850 0.21780 0.76700 0.00500
C 	C 	0.20450 0.30750 0.73000 -0.05300
C 	C 	0.29090 0.38510 0.65920 -0.00800
C 	C 	0.10700 0.24700 0.75500 0.06000
N 	N 	0.01850 0.22300 0.77800 -0.14000
Ag	Ag	0.73568 0.26414 0.99999 0.45900
N 	N 	0.59610 0.11110 0.31070 -0.22400
N 	N 	0.48380 0.88800 0.31190 -0.20300
C 	C 	0.64770 0.16980 0.20710 -0.13100
C 	C 	0.47710 0.83020 0.20430 -0.12600
N 	N 	0.62700 0.99840 0.62580 -0.18200
C 	C 	0.71670 0.08220 0.66290 -0.02900
C 	C 	0.79430 0.07330 0.73300 -0.05900
C 	C 	0.78220 0.98070 0.76700 0.09300
C 	C 	0.69250 0.89700 0.73000 -0.07400
C 	C 	0.61490 0.90580 0.65920 0.01300
C 	C 	0.75300 0.86000 0.75500 0.08300
N 	N 	0.77700 0.79550 0.77800 -0.11200
Ag	Ag	0.73586 0.47154 0.99999 0.46100
N 	N 	0.88890 0.48500 0.31070 -0.20400
N 	N 	0.11200 0.59580 0.31190 -0.22400
C 	C 	0.83020 0.47790 0.20710 -0.12100
C 	C 	0.16980 0.64690 0.20430 -0.14000
N 	N 	0.00160 0.62860 0.62580 -0.24200
C 	C 	0.91780 0.63450 0.66290 0.02000
C 	C 	0.92670 0.72100 0.73300 0.03700
C 	C 	0.01930 0.80150 0.76700 -0.04100
C 	C 	0.10300 0.79550 0.73000 -0.04800
C 	C 	0.09420 0.70910 0.65920 -0.01700
C 	C 	0.14000 0.89300 0.75500 0.08000
N 	N 	0.20450 0.98150 0.77800 -0.09900
Ag	Ag	0.47154 0.73568 0.00001 0.46100
N 	N 	0.48500 0.59610 0.68930 -0.21700
N 	N 	0.59580 0.48380 0.68810 -0.21700
C 	C 	0.47790 0.64770 0.79290 -0.12600
C 	C 	0.64690 0.47710 0.79570 -0.13200
N 	N 	0.62860 0.62700 0.37420 -0.21500
C 	C 	0.63450 0.71670 0.33710 -0.00500
C 	C 	0.72100 0.79430 0.26700 -0.00400
C 	C 	0.80150 0.78220 0.23300 0.03000
C 	C 	0.79550 0.69250 0.27000 -0.06300
C 	C 	0.70910 0.61490 0.34080 -0.00200
C 	C 	0.89300 0.75300 0.24500 0.08900
N 	N 	0.98150 0.77700 0.22200 -0.09400
Ag	Ag	0.26432 0.73586 0.00001 0.45800
N 	N 	0.40390 0.88890 0.68930 -0.20400
N 	N 	0.51620 0.11200 0.68810 -0.22400
C 	C 	0.35230 0.83020 0.79290 -0.12100
C 	C 	0.52290 0.16980 0.79570 -0.14000
N 	N 	0.37300 0.00160 0.37420 -0.24100
C 	C 	0.28330 0.91780 0.33710 0.02000
C 	C 	0.20570 0.92670 0.26700 0.02500
C 	C 	0.21780 0.01930 0.23300 -0.05300
C 	C 	0.30750 0.10300 0.27000 -0.04300
C 	C 	0.38510 0.09420 0.34080 -0.02000
C 	C 	0.24700 0.14000 0.24500 0.06500
N 	N 	0.22300 0.20450 0.22200 -0.12300
Ag	Ag	0.26414 0.52846 0.00001 0.45800
N 	N 	0.11110 0.51500 0.68930 -0.22400
N 	N 	0.88800 0.40420 0.68810 -0.20300
C 	C 	0.16980 0.52210 0.79290 -0.13200
C 	C 	0.83020 0.35310 0.79570 -0.12600
N 	N 	0.99840 0.37140 0.37420 -0.18200
C 	C 	0.08220 0.36550 0.33710 -0.02900
C 	C 	0.07330 0.27900 0.26700 -0.06800
C 	C 	0.98070 0.19850 0.23300 0.08100
C 	C 	0.89700 0.20450 0.27000 -0.06900
C 	C 	0.90580 0.29090 0.34080 0.01000
C 	C 	0.86000 0.10700 0.24500 0.07000
N 	N 	0.79550 0.01850 0.22200 -0.13400
Fe	Fe	0.50000 0.50000 0.50000 1.11400
Fe	Fe	0.50000 -0.00000 0.50000 1.08700
Fe	Fe	-0.00000 0.50000 0.50000 1.08700
