data_crystal

_cell_length_a 15.29000
_cell_length_b 15.29000
_cell_length_c 6.90500
_cell_angle_alpha 90.00000
_cell_angle_beta  90.00000
_cell_angle_gamma 120.00000

_symmetry_space_group_name_	'P 1'
_symmetry_space_group_name_H-M	'P 1'

loop_
_symmetry_equiv_pos_as_xyz
  x,y,z

loop_
_atom_site_label
_atom_site_type_symbol
_atom_site_fract_x
_atom_site_fract_y
_atom_site_fract_z
_atom_site_charge
Ag	Ag	0.26446 0.73554 0.99999 0.45100
N 	N 	0.48550 0.89590 0.68230 -0.22300
N 	N 	0.41070 0.89640 0.31710 -0.22400
C 	C 	0.35740 0.83710 0.20980 -0.11300
C 	C 	0.47950 0.83710 0.79070 -0.11700
N 	N 	0.62540 0.01480 0.38210 -0.08600
C 	C 	0.70560 0.11110 0.34500 0.13000
H 	H 	0.69890 0.16730 0.36920 -0.01600
C 	C 	0.79580 0.12350 0.27190 0.07300
H 	H 	0.84940 0.18790 0.24710 -0.01000
C 	C 	0.80580 0.03950 0.23580 0.03600
H 	H 	0.86610 0.04770 0.18680 0.01100
C 	C 	0.72560 0.94310 0.27290 -0.03500
C 	C 	0.63540 0.93080 0.34600 0.27900
H 	H 	0.58180 0.86630 0.37080 -0.20600
C 	C 	0.73970 0.86090 0.24230 0.09400
N 	N 	0.75300 0.79390 0.21520 -0.10700
N 	N 	0.61020 0.98460 0.38250 -0.21800
C 	C 	0.70410 0.06880 0.34700 -0.04300
H 	H 	0.71460 0.13320 0.37180 -0.08800
C 	C 	0.78240 0.05690 0.27440 -0.24100
C 	C 	0.76670 0.96080 0.23730 0.21000
H 	H 	0.81900 0.95280 0.18870 -0.02400
C 	C 	0.67280 0.87650 0.27280 -0.35700
H 	H 	0.66230 0.81220 0.24800 0.14100
C 	C 	0.59460 0.88840 0.34540 0.13600
H 	H 	0.53170 0.83200 0.36920 0.04800
C 	C 	0.87980 0.13990 0.24030 0.06100
N 	N 	0.96040 0.20660 0.21710 -0.06100
Ag	Ag	0.26446 0.52892 0.99999 0.45100
N 	N 	0.10410 0.58960 0.68230 -0.24000
N 	N 	0.10360 0.51430 0.31710 -0.24100
C 	C 	0.16290 0.52030 0.20980 -0.12400
C 	C 	0.16290 0.64240 0.79070 -0.12800
N 	N 	0.98520 0.61060 0.38210 -0.21700
C 	C 	0.88890 0.59450 0.34500 0.13700
H 	H 	0.83270 0.53160 0.36920 0.04900
C 	C 	0.87650 0.67230 0.27190 -0.34700
H 	H 	0.81210 0.66150 0.24710 0.13800
C 	C 	0.96050 0.76630 0.23580 0.20800
H 	H 	0.95230 0.81840 0.18680 -0.02300
C 	C 	0.05690 0.78250 0.27290 -0.23500
C 	C 	0.06920 0.70460 0.34600 -0.03800
H 	H 	0.13370 0.71550 0.37080 -0.08800
C 	C 	0.13910 0.87880 0.24230 0.06300
N 	N 	0.20610 0.95910 0.21520 -0.06000
N 	N 	0.01540 0.62560 0.38250 -0.08700
C 	C 	0.93120 0.63530 0.34700 0.27200
H 	H 	0.86680 0.58140 0.37180 -0.20700
C 	C 	0.94310 0.72550 0.27440 -0.03700
C 	C 	0.03920 0.80590 0.23730 0.03500
H 	H 	0.04720 0.86620 0.18870 0.01400
C 	C 	0.12350 0.79630 0.27280 0.06600
H 	H 	0.18780 0.85010 0.24800 -0.00600
C 	C 	0.11160 0.70620 0.34540 0.12700
H 	H 	0.16800 0.69970 0.36920 -0.01500
C 	C 	0.86010 0.73990 0.24030 0.08700
N 	N 	0.79340 0.75380 0.21710 -0.10400
Ag	Ag	0.47108 0.73554 0.99999 0.45400
N 	N 	0.41040 0.51450 0.68230 -0.23500
N 	N 	0.48570 0.58930 0.31710 -0.23600
C 	C 	0.47970 0.64260 0.20980 -0.12100
C 	C 	0.35760 0.52050 0.79070 -0.11900
N 	N 	0.38940 0.37460 0.38210 -0.15500
C 	C 	0.40550 0.29440 0.34500 0.13200
H 	H 	0.46840 0.30110 0.36920 0.01700
C 	C 	0.32770 0.20420 0.27190 -0.15500
H 	H 	0.33850 0.15060 0.24710 0.06400
C 	C 	0.23370 0.19420 0.23580 0.11900
H 	H 	0.18160 0.13390 0.18680 -0.02100
C 	C 	0.21750 0.27440 0.27290 -0.13200
C 	C 	0.29540 0.36460 0.34600 0.12400
H 	H 	0.28450 0.41820 0.37080 -0.14700
C 	C 	0.12120 0.26030 0.24230 0.09000
N 	N 	0.04090 0.24700 0.21520 -0.13900
N 	N 	0.37440 0.38980 0.38250 -0.15400
C 	C 	0.36470 0.29590 0.34700 0.12200
H 	H 	0.41860 0.28540 0.37180 -0.14800
C 	C 	0.27450 0.21760 0.27440 -0.13200
C 	C 	0.19410 0.23330 0.23730 0.11800
H 	H 	0.13380 0.18100 0.18870 -0.02000
C 	C 	0.20370 0.32720 0.27280 -0.15800
H 	H 	0.14990 0.33770 0.24800 0.06500
C 	C 	0.29380 0.40540 0.34540 0.13000
H 	H 	0.30030 0.46830 0.36920 0.01600
C 	C 	0.26010 0.12020 0.24030 0.08600
N 	N 	0.24620 0.03960 0.21710 -0.13900
Ag	Ag	0.73554 0.26446 0.00001 0.45200
N 	N 	0.51450 0.10410 0.31770 -0.24000
N 	N 	0.58930 0.10360 0.68290 -0.24100
C 	C 	0.64260 0.16290 0.79020 -0.12500
C 	C 	0.52050 0.16290 0.20930 -0.12600
N 	N 	0.37460 0.98520 0.61790 -0.21800
C 	C 	0.29440 0.88890 0.65500 0.13500
H 	H 	0.30110 0.83270 0.63080 0.04900
C 	C 	0.20420 0.87650 0.72810 -0.35600
H 	H 	0.15060 0.81210 0.75290 0.13700
C 	C 	0.19420 0.96050 0.76420 0.20400
H 	H 	0.13390 0.95230 0.81320 -0.03400
C 	C 	0.27440 0.05690 0.72710 -0.23100
C 	C 	0.36460 0.06920 0.65400 -0.03400
H 	H 	0.41820 0.13370 0.62920 -0.08800
C 	C 	0.26030 0.13910 0.75770 0.07100
N 	N 	0.24700 0.20610 0.78480 -0.09900
N 	N 	0.38980 0.01540 0.61750 -0.08800
C 	C 	0.29590 0.93120 0.65300 0.27500
H 	H 	0.28540 0.86680 0.62820 -0.20700
C 	C 	0.21760 0.94310 0.72560 -0.03500
C 	C 	0.23330 0.03920 0.76270 0.03400
H 	H 	0.18100 0.04720 0.81130 0.00300
C 	C 	0.32720 0.12350 0.72720 0.05400
H 	H 	0.33770 0.18780 0.75200 -0.00700
C 	C 	0.40540 0.11160 0.65460 0.12600
H 	H 	0.46830 0.16800 0.63080 -0.01500
C 	C 	0.12020 0.86010 0.75970 0.09500
N 	N 	0.03960 0.79340 0.78290 -0.14300
Ag	Ag	0.73554 0.47108 0.00001 0.45400
N 	N 	0.89590 0.41040 0.31770 -0.22300
N 	N 	0.89640 0.48570 0.68290 -0.22400
C 	C 	0.83710 0.47970 0.79020 -0.11500
C 	C 	0.83710 0.35760 0.20930 -0.11600
N 	N 	0.01480 0.38940 0.61790 -0.08700
C 	C 	0.11110 0.40550 0.65500 0.12900
H 	H 	0.16730 0.46840 0.63080 -0.01600
C 	C 	0.12350 0.32770 0.72810 0.06200
H 	H 	0.18790 0.33850 0.75290 -0.01000
C 	C 	0.03950 0.23370 0.76420 0.03400
H 	H 	0.04770 0.18160 0.81320 0.00200
C 	C 	0.94310 0.21750 0.72710 -0.03200
C 	C 	0.93080 0.29540 0.65400 0.28200
H 	H 	0.86630 0.28450 0.62920 -0.20600
C 	C 	0.86090 0.12120 0.75770 0.10100
N 	N 	0.79390 0.04090 0.78480 -0.14300
N 	N 	0.98460 0.37440 0.61750 -0.21800
C 	C 	0.06880 0.36470 0.65300 -0.03900
H 	H 	0.13320 0.41860 0.62820 -0.08800
C 	C 	0.05690 0.27450 0.72560 -0.23700
C 	C 	0.96080 0.19410 0.76270 0.20700
H 	H 	0.95280 0.13380 0.81130 -0.03300
C 	C 	0.87650 0.20370 0.72720 -0.36600
H 	H 	0.81220 0.14990 0.75200 0.14000
C 	C 	0.88840 0.29380 0.65460 0.13500
H 	H 	0.83200 0.30030 0.63080 0.04900
C 	C 	0.13990 0.26010 0.75970 0.06900
N 	N 	0.20660 0.24620 0.78290 -0.09800
Ag	Ag	0.52892 0.26446 0.00001 0.45200
N 	N 	0.58960 0.48550 0.31770 -0.23500
N 	N 	0.51430 0.41070 0.68290 -0.23600
C 	C 	0.52030 0.35740 0.79020 -0.11800
C 	C 	0.64240 0.47950 0.20930 -0.12300
N 	N 	0.61060 0.62540 0.61790 -0.15400
C 	C 	0.59450 0.70560 0.65500 0.13400
H 	H 	0.53160 0.69890 0.63080 0.01600
C 	C 	0.67230 0.79580 0.72810 -0.13600
H 	H 	0.66150 0.84940 0.75290 0.06600
C 	C 	0.76630 0.80580 0.76420 0.12500
H 	H 	0.81840 0.86610 0.81320 -0.00100
C 	C 	0.78250 0.72560 0.72710 -0.13900
C 	C 	0.70460 0.63540 0.65400 0.11700
H 	H 	0.71550 0.58180 0.62920 -0.14700
C 	C 	0.87880 0.73970 0.75770 0.07400
N 	N 	0.95910 0.75300 0.78480 -0.06500
N 	N 	0.62560 0.61020 0.61750 -0.15300
C 	C 	0.63530 0.70410 0.65300 0.11600
H 	H 	0.58140 0.71460 0.62820 -0.14900
C 	C 	0.72550 0.78240 0.72560 -0.13900
C 	C 	0.80590 0.76670 0.76270 0.12200
H 	H 	0.86620 0.81900 0.81130 -0.00000
C 	C 	0.79630 0.67280 0.72720 -0.13800
H 	H 	0.85010 0.66230 0.75200 0.06700
C 	C 	0.70620 0.59460 0.65460 0.13300
H 	H 	0.69970 0.53170 0.63080 0.01600
C 	C 	0.73990 0.87980 0.75970 0.07000
N 	N 	0.75380 0.96040 0.78290 -0.06400
Fe	Fe	0.50000 -0.00000 0.50000 1.14200
Fe	Fe	-0.00000 0.50000 0.50000 1.14200
Fe	Fe	0.50000 0.50000 0.50000 1.16700
