data_crystal

_cell_length_a 12.33480
_cell_length_b 9.93600
_cell_length_c 17.82590
_cell_angle_alpha 90.00000
_cell_angle_beta  90.00000
_cell_angle_gamma 90.00000

_symmetry_space_group_name_	'P 1'
_symmetry_space_group_name_H-M	'P 1'

loop_
_symmetry_equiv_pos_as_xyz
  x,y,z

loop_
_atom_site_label
_atom_site_type_symbol
_atom_site_fract_x
_atom_site_fract_y
_atom_site_fract_z
_atom_site_charge
O 	O 	0.35450 0.44860 0.91722 -0.37700
O 	O 	0.27960 0.26000 0.87700 -0.33400
N 	N 	0.52880 0.04890 0.16870 -0.14500
N 	N 	0.47200 0.95520 0.20860 -0.06900
N 	N 	0.63300 0.99520 0.26230 -0.19600
C 	C 	0.33850 0.32180 0.92200 0.35100
C 	C 	0.39360 0.24810 0.98460 -0.19900
C 	C 	0.47550 0.30640 0.02480 0.15400
H 	H 	0.50090 0.39120 0.01130 0.00500
C 	C 	0.52070 0.24060 0.08550 -0.25100
H 	H 	0.57650 0.28030 0.11270 0.12800
C 	C 	0.48210 0.11490 0.10510 0.24700
C 	C 	0.40110 0.05460 0.06580 -0.35600
H 	H 	0.37570 0.96980 0.07920 0.20100
C 	C 	0.35750 0.12310 0.00530 0.19400
H 	H 	0.30200 0.08310 0.97790 -0.03400
C 	C 	0.53710 0.92760 0.26400 0.11600
H 	H 	0.51940 0.86670 0.30170 0.01300
C 	C 	0.62410 0.06960 0.20090 0.05100
H 	H 	0.67710 0.12790 0.18300 0.02100
O 	O 	0.14550 0.55140 0.91722 -0.36500
O 	O 	0.22040 0.74000 0.87700 -0.31100
N 	N 	0.97120 0.95110 0.16870 -0.10100
N 	N 	0.02800 0.04480 0.20860 -0.10500
N 	N 	0.86700 0.00480 0.26230 -0.25800
C 	C 	0.16150 0.67820 0.92200 0.30800
C 	C 	0.10640 0.75190 0.98460 -0.07700
C 	C 	0.02450 0.69360 0.02480 0.04500
H 	H 	0.99910 0.60880 0.01130 0.04200
C 	C 	0.97930 0.75940 0.08550 -0.13600
H 	H 	0.92350 0.71970 0.11270 0.09000
C 	C 	0.01790 0.88510 0.10510 0.12800
C 	C 	0.09890 0.94540 0.06580 -0.04400
H 	H 	0.12430 0.03020 0.07920 0.03900
C 	C 	0.14250 0.87690 0.00530 0.00000
H 	H 	0.19800 0.91690 0.97790 0.06400
C 	C 	0.96290 0.07240 0.26400 0.09300
H 	H 	0.98060 0.13330 0.30170 0.01000
C 	C 	0.87590 0.93040 0.20090 0.15000
H 	H 	0.82290 0.87210 0.18300 0.00200
O 	O 	0.85450 0.05140 0.41722 -0.38900
O 	O 	0.77960 0.24000 0.37700 -0.32600
N 	N 	0.02880 0.45110 0.66870 -0.11700
N 	N 	0.97200 0.54480 0.70860 -0.09200
N 	N 	0.13300 0.50480 0.76230 -0.23000
C 	C 	0.83850 0.17820 0.42200 0.32900
C 	C 	0.89360 0.25190 0.48460 -0.13600
C 	C 	0.97550 0.19360 0.52480 0.07300
H 	H 	0.00090 0.10880 0.51130 0.02400
C 	C 	0.02070 0.25940 0.58550 -0.16900
H 	H 	0.07650 0.21970 0.61270 0.09500
C 	C 	0.98210 0.38510 0.60510 0.16800
C 	C 	0.90110 0.44540 0.56580 -0.19000
H 	H 	0.87570 0.53020 0.57920 0.11700
C 	C 	0.85750 0.37690 0.50530 0.09300
H 	H 	0.80200 0.41690 0.47790 0.01500
C 	C 	0.03710 0.57240 0.76400 0.11000
H 	H 	0.01940 0.63330 0.80170 0.01200
C 	C 	0.12410 0.43040 0.70090 0.09900
H 	H 	0.17710 0.37210 0.68300 0.01200
O 	O 	0.64550 0.94860 0.41722 -0.34600
O 	O 	0.72040 0.76000 0.37700 -0.31600
N 	N 	0.47120 0.54890 0.66870 -0.12200
N 	N 	0.52800 0.45520 0.70860 -0.08900
N 	N 	0.36700 0.49520 0.76230 -0.23000
C 	C 	0.66150 0.82180 0.42200 0.32800
C 	C 	0.60640 0.74810 0.48460 -0.13600
C 	C 	0.52450 0.80640 0.52480 0.09800
H 	H 	0.49910 0.89120 0.51130 0.03900
C 	C 	0.47930 0.74060 0.58550 -0.18600
H 	H 	0.42350 0.78030 0.61270 0.11500
C 	C 	0.51790 0.61490 0.60510 0.18600
C 	C 	0.59890 0.55460 0.56580 -0.19900
H 	H 	0.62430 0.46980 0.57920 0.11800
C 	C 	0.64250 0.62310 0.50530 0.10200
H 	H 	0.69800 0.58310 0.47790 0.01200
C 	C 	0.46290 0.42760 0.76400 0.10600
H 	H 	0.48060 0.36670 0.80170 0.01000
C 	C 	0.37590 0.56960 0.70090 0.10200
H 	H 	0.32290 0.62790 0.68300 0.01200
Cu	Cu	0.25000 0.50000 0.83816 0.91100
Cu	Cu	0.75000 0.00000 0.33816 0.89100
O 	O 	0.14550 0.94860 0.58278 -0.34700
O 	O 	0.22040 0.76000 0.62300 -0.31700
N 	N 	0.97120 0.54890 0.33130 -0.12600
N 	N 	0.02800 0.45520 0.29140 -0.08700
N 	N 	0.86700 0.49520 0.23770 -0.23000
C 	C 	0.16150 0.82180 0.57800 0.33300
C 	C 	0.10640 0.74810 0.51540 -0.14900
C 	C 	0.02450 0.80640 0.47520 0.12300
H 	H 	0.99910 0.89120 0.48870 0.02700
C 	C 	0.97930 0.74060 0.41450 -0.21000
H 	H 	0.92350 0.78030 0.38730 0.12300
C 	C 	0.01790 0.61490 0.39490 0.20300
C 	C 	0.09890 0.55460 0.43420 -0.21200
H 	H 	0.12430 0.46980 0.42080 0.12400
C 	C 	0.14250 0.62310 0.49470 0.11600
H 	H 	0.19800 0.58310 0.52210 0.00800
C 	C 	0.96290 0.42760 0.23600 0.10300
H 	H 	0.98060 0.36670 0.19830 0.01000
C 	C 	0.87590 0.56960 0.29910 0.10200
H 	H 	0.82290 0.62790 0.31700 0.01200
O 	O 	0.35450 0.05140 0.58278 -0.39000
O 	O 	0.27960 0.24000 0.62300 -0.32700
N 	N 	0.52880 0.45110 0.33130 -0.12300
N 	N 	0.47200 0.54480 0.29140 -0.08800
N 	N 	0.63300 0.50480 0.23770 -0.23000
C 	C 	0.33850 0.17820 0.57800 0.33600
C 	C 	0.39360 0.25190 0.51540 -0.15600
C 	C 	0.47550 0.19360 0.47520 0.11000
H 	H 	0.50090 0.10880 0.48870 0.00800
C 	C 	0.52070 0.25940 0.41450 -0.20400
H 	H 	0.57650 0.21970 0.38730 0.10600
C 	C 	0.48210 0.38510 0.39490 0.19200
C 	C 	0.40110 0.44540 0.43420 -0.21100
H 	H 	0.37570 0.53020 0.42080 0.12400
C 	C 	0.35750 0.37690 0.49470 0.11300
H 	H 	0.30200 0.41690 0.52210 0.00800
C 	C 	0.53710 0.57240 0.23600 0.10600
H 	H 	0.51940 0.63330 0.19830 0.01200
C 	C 	0.62410 0.43040 0.29910 0.10000
H 	H 	0.67710 0.37210 0.31700 0.01000
O 	O 	0.64550 0.55140 0.08278 -0.36600
O 	O 	0.72040 0.74000 0.12300 -0.31200
N 	N 	0.47120 0.95110 0.83130 -0.10000
N 	N 	0.52800 0.04480 0.79140 -0.10800
N 	N 	0.36700 0.00480 0.73770 -0.25800
C 	C 	0.66150 0.67820 0.07800 0.31100
C 	C 	0.60640 0.75190 0.01540 -0.08600
C 	C 	0.52450 0.69360 0.97520 0.04600
H 	H 	0.49910 0.60880 0.98870 0.04400
C 	C 	0.47930 0.75940 0.91450 -0.13400
H 	H 	0.42350 0.71970 0.88730 0.09000
C 	C 	0.51790 0.88510 0.89490 0.12700
C 	C 	0.59890 0.94540 0.93420 -0.04600
H 	H 	0.62430 0.03020 0.92080 0.03900
C 	C 	0.64250 0.87690 0.99470 0.01100
H 	H 	0.69800 0.91690 0.02210 0.05900
C 	C 	0.46290 0.07240 0.73600 0.09600
H 	H 	0.48060 0.13330 0.69830 0.01000
C 	C 	0.37590 0.93040 0.79910 0.15000
H 	H 	0.32290 0.87210 0.81700 0.00200
O 	O 	0.85450 0.44860 0.08278 -0.37500
O 	O 	0.77960 0.26000 0.12300 -0.33200
N 	N 	0.02880 0.04890 0.83130 -0.13700
N 	N 	0.97200 0.95520 0.79140 -0.07300
N 	N 	0.13300 0.99520 0.73770 -0.19700
C 	C 	0.83850 0.32180 0.07800 0.34300
C 	C 	0.89360 0.24810 0.01540 -0.17900
C 	C 	0.97550 0.30640 0.97520 0.11200
H 	H 	0.00090 0.39120 0.98870 0.02300
C 	C 	0.02070 0.24060 0.91450 -0.20800
H 	H 	0.07650 0.28030 0.88730 0.11400
C 	C 	0.98210 0.11490 0.89490 0.21900
C 	C 	0.90110 0.05460 0.93420 -0.33500
H 	H 	0.87570 0.96980 0.92080 0.19400
C 	C 	0.85750 0.12310 0.99470 0.17700
H 	H 	0.80200 0.08310 0.02210 -0.02900
C 	C 	0.03710 0.92760 0.73600 0.11900
H 	H 	0.01940 0.86670 0.69830 0.01200
C 	C 	0.12410 0.06960 0.79910 0.05100
H 	H 	0.17710 0.12790 0.81700 0.02300
Cu	Cu	0.25000 0.00000 0.66184 0.89200
Cu	Cu	0.75000 0.50000 0.16184 0.91100
