data_crystal

_cell_length_a 8.26500
_cell_length_b 8.26500
_cell_length_c 15.51200
_cell_angle_alpha 90.00000
_cell_angle_beta  90.00000
_cell_angle_gamma 90.00000

_symmetry_space_group_name_	'P 1'
_symmetry_space_group_name_H-M	'P 1'

loop_
_symmetry_equiv_pos_as_xyz
  x,y,z

loop_
_atom_site_label
_atom_site_type_symbol
_atom_site_fract_x
_atom_site_fract_y
_atom_site_fract_z
_atom_site_charge
C 	C 	0.49900 0.29130 0.15970 -0.27400
N 	N 	0.52000 0.19620 0.10770 -0.20400
N 	N 	0.21880 0.05900 0.01630 -0.21400
H 	H 	0.21037 0.17509 0.98435 0.01000
H 	H 	0.21037 0.07763 0.08507 -0.01900
H 	H 	0.09931 0.88550 0.03229 0.08800
H 	H 	0.09931 0.98296 0.93158 0.10900
C 	C 	0.50100 0.70870 0.15970 -0.25900
N 	N 	0.48000 0.80380 0.10770 -0.18800
N 	N 	0.78120 0.94100 0.01630 -0.21200
H 	H 	0.78963 0.82491 0.98435 0.03700
H 	H 	0.78963 0.92237 0.08507 0.01700
H 	H 	0.90069 0.11450 0.03229 0.02200
H 	H 	0.90069 0.01704 0.93158 0.03000
C 	C 	0.70870 0.49900 0.65970 -0.24900
N 	N 	0.80380 0.52000 0.60770 -0.17800
N 	N 	0.94100 0.21880 0.51630 -0.12500
H 	H 	0.82491 0.21037 0.48435 -0.01400
H 	H 	0.92237 0.21037 0.58507 -0.00800
H 	H 	0.11450 0.09931 0.53229 0.05300
H 	H 	0.01704 0.09931 0.43158 0.04100
C 	C 	0.29130 0.50100 0.65970 -0.26600
N 	N 	0.19620 0.48000 0.60770 -0.20100
N 	N 	0.05900 0.78120 0.51630 -0.22600
H 	H 	0.17509 0.78963 0.48435 0.01700
H 	H 	0.07763 0.78963 0.58507 0.01300
H 	H 	0.88550 0.90069 0.53229 0.04800
H 	H 	0.98296 0.90069 0.43158 0.05400
C 	C 	0.50100 0.29130 0.84030 -0.26000
N 	N 	0.48000 0.19620 0.89230 -0.19000
N 	N 	0.78120 0.05900 0.98370 -0.15800
H 	H 	0.78963 0.17509 0.01565 -0.01700
H 	H 	0.78963 0.07763 0.91493 0.00600
H 	H 	0.90069 0.88550 0.96771 0.08100
H 	H 	0.90069 0.98296 0.06842 0.06800
C 	C 	0.49900 0.70870 0.84030 -0.24600
N 	N 	0.52000 0.80380 0.89230 -0.17300
N 	N 	0.21880 0.94100 0.98370 -0.07200
H 	H 	0.21037 0.82491 0.01565 -0.04600
H 	H 	0.21037 0.92237 0.91493 -0.01800
H 	H 	0.09931 0.11450 0.96771 0.08900
H 	H 	0.09931 0.01704 0.06842 0.05800
C 	C 	0.29130 0.49900 0.34030 -0.27000
N 	N 	0.19620 0.52000 0.39230 -0.19900
N 	N 	0.05900 0.21880 0.48370 -0.18100
H 	H 	0.17509 0.21037 0.51565 -0.01100
H 	H 	0.07763 0.21037 0.41493 -0.01600
H 	H 	0.88550 0.09931 0.46771 0.08600
H 	H 	0.98296 0.09931 0.56842 0.09600
C 	C 	0.70870 0.50100 0.34030 -0.25300
N 	N 	0.80380 0.48000 0.39230 -0.18000
N 	N 	0.94100 0.78120 0.48370 -0.16900
H 	H 	0.82491 0.78963 0.51565 0.01400
H 	H 	0.92237 0.78963 0.41493 0.01900
H 	H 	0.11450 0.90069 0.46771 0.01100
H 	H 	0.01704 0.90069 0.56842 -0.00400
Cd	Cd	0.50000 0.50000 0.25000 1.15800
Cd	Cd	0.50000 0.50000 0.75000 1.16000
Cd	Cd	0.50000 0.00000 -0.00000 1.15400
Cd	Cd	-0.00000 0.50000 0.50000 1.16600
C 	C 	0.08220 0.00000 -0.00000 -0.34000
C 	C 	0.91780 0.00000 -0.00000 -0.03700
C 	C 	0.00000 0.08220 0.50000 -0.26800
C 	C 	-0.00000 0.91780 0.50000 0.04000
