data_crystal

_cell_length_a 8.26200
_cell_length_b 8.26200
_cell_length_c 15.49500
_cell_angle_alpha 90.00000
_cell_angle_beta  90.00000
_cell_angle_gamma 90.00000

_symmetry_space_group_name_	'P 1'
_symmetry_space_group_name_H-M	'P 1'

loop_
_symmetry_equiv_pos_as_xyz
  x,y,z

loop_
_atom_site_label
_atom_site_type_symbol
_atom_site_fract_x
_atom_site_fract_y
_atom_site_fract_z
_atom_site_charge
Cd	Cd	0.50000 0.50000 0.25000 1.15000
Cd	Cd	0.50000 0.50000 0.75000 1.15300
Cd	Cd	0.50000 0.00000 -0.00000 0.96300
Cd	Cd	0.00000 0.50000 0.50000 0.97400
C 	C 	0.50000 0.28100 0.16100 -0.37200
N 	N 	0.50000 0.19600 0.10900 -0.27100
C 	C 	0.50000 0.71900 0.16100 -0.12000
N 	N 	0.50000 0.80400 0.10900 -0.06200
C 	C 	0.71900 0.50000 0.66100 -0.11100
N 	N 	0.80400 0.50000 0.60900 -0.06000
C 	C 	0.28100 0.50000 0.66100 -0.36200
N 	N 	0.19600 0.50000 0.60900 -0.26600
C 	C 	0.50000 0.28100 0.83900 -0.35300
N 	N 	0.50000 0.19600 0.89100 -0.24700
C 	C 	0.50000 0.71900 0.83900 -0.10800
N 	N 	0.50000 0.80400 0.89100 -0.05300
C 	C 	0.28100 0.50000 0.33900 -0.36800
N 	N 	0.19600 0.50000 0.39100 -0.26600
C 	C 	0.71900 0.50000 0.33900 -0.11800
N 	N 	0.80400 0.50000 0.39100 -0.06000
C 	C 	0.10100 0.03200 -0.00000 2.59100
N 	N 	0.21500 0.05900 -0.00000 -1.49800
C 	C 	0.89900 0.96800 -0.00000 -2.50800
N 	N 	0.78500 0.94100 -0.00000 1.14300
C 	C 	0.96800 0.10100 0.50000 -3.09800
N 	N 	0.94100 0.21500 0.50000 1.22800
C 	C 	0.03200 0.89900 0.50000 3.19200
N 	N 	0.05900 0.78500 0.50000 -1.57200
C 	C 	0.89900 0.03200 -0.00000 3.21200
N 	N 	0.78500 0.05900 -0.00000 -1.59100
C 	C 	0.10100 0.96800 -0.00000 -3.12800
N 	N 	0.21500 0.94100 -0.00000 1.23600
C 	C 	0.03200 0.10100 0.50000 2.56700
N 	N 	0.05900 0.21500 0.50000 -1.47900
C 	C 	0.96800 0.89900 0.50000 -2.47300
N 	N 	0.94100 0.78500 0.50000 1.13500
