data_crystal

_cell_length_a 7.67500
_cell_length_b 7.67500
_cell_length_c 8.05600
_cell_angle_alpha 90.00000
_cell_angle_beta  90.00000
_cell_angle_gamma 90.00000

_symmetry_space_group_name_	'P 1'
_symmetry_space_group_name_H-M	'P 1'

loop_
_symmetry_equiv_pos_as_xyz
  x,y,z

loop_
_atom_site_label
_atom_site_type_symbol
_atom_site_fract_x
_atom_site_fract_y
_atom_site_fract_z
_atom_site_charge
Cd	Cd	-0.00000 0.00000 -0.00000 1.13000
Ni	Ni	0.50000 0.50000 -0.00000 1.05400
N 	N 	0.22110 0.22110 -0.00000 -0.19200
C 	C 	0.32830 0.32830 -0.00000 -0.26300
N 	N 	0.77890 0.77890 -0.00000 -0.11800
C 	C 	0.67170 0.67170 -0.00000 -0.21400
N 	N 	0.77890 0.22110 -0.00000 -0.15300
C 	C 	0.67170 0.32830 -0.00000 -0.23800
N 	N 	0.22110 0.77890 -0.00000 -0.15300
C 	C 	0.32830 0.67170 -0.00000 -0.23800
C 	C 	-0.00000 -0.00000 0.41590 0.01400
C 	C 	0.00000 0.00000 0.58410 0.00900
N 	N 	0.00000 0.07400 0.27400 -0.15800
N 	N 	-0.00000 0.92600 0.27400 -0.02000
N 	N 	0.92600 0.00000 0.27400 -0.02000
N 	N 	0.07400 0.00000 0.27400 -0.15800
N 	N 	0.00000 0.07400 0.72600 -0.13600
N 	N 	0.00000 0.92600 0.72600 -0.00500
N 	N 	0.07400 0.00000 0.72600 -0.13600
N 	N 	0.92600 0.00000 0.72600 -0.00500
