data_crystal

_cell_length_a 8.44500
_cell_length_b 7.90300
_cell_length_c 8.44400
_cell_angle_alpha 119.58000
_cell_angle_beta  118.59000
_cell_angle_gamma 93.63000

_symmetry_space_group_name_	'P 1'
_symmetry_space_group_name_H-M	'P 1'

loop_
_symmetry_equiv_pos_as_xyz
  x,y,z

loop_
_atom_site_label
_atom_site_type_symbol
_atom_site_fract_x
_atom_site_fract_y
_atom_site_fract_z
_atom_site_charge
H 	H 	0.48040 0.27690 0.17870 0.04400
H 	H 	0.28220 0.28820 0.01300 0.03500
H 	H 	0.72770 0.28810 0.89710 0.05900
H 	H 	0.50190 0.22070 0.69780 0.05000
H 	H 	0.89870 0.72300 0.21260 0.04000
H 	H 	0.72460 0.70920 0.99930 0.07800
H 	H 	0.47250 0.76840 0.28410 0.04200
H 	H 	0.61420 0.70510 0.44200 0.04600
H 	H 	0.32550 0.94340 0.86790 0.01000
H 	H 	0.23360 0.02920 0.69430 0.00400
H 	H 	0.64570 0.08820 0.98830 0.02700
H 	H 	0.48730 0.92810 0.68900 0.01700
H 	H 	0.91650 0.05260 0.38110 0.00400
H 	H 	0.65700 0.96270 0.19950 -0.01100
H 	H 	0.74180 0.06780 0.54880 0.02200
H 	H 	0.89470 0.92310 0.56700 0.01200
Cu	Cu	0.57380 0.50000 0.07410 0.82300
N 	N 	0.40610 0.26870 0.03900 -0.29600
N 	N 	0.58970 0.25380 0.84980 -0.26800
N 	N 	0.76660 0.72910 0.14220 -0.30700
N 	N 	0.59490 0.74070 0.33610 -0.27600
C 	C 	0.35950 0.06520 0.84940 0.00100
C 	C 	0.52640 0.07320 0.84340 -0.06000
C 	C 	0.77690 0.93000 0.29340 -0.03700
C 	C 	0.76130 0.92650 0.45290 -0.05900
