data_crystal

_cell_length_a 12.84230
_cell_length_b 12.94670
_cell_length_c 23.96780
_cell_angle_alpha 81.48100
_cell_angle_beta  86.35700
_cell_angle_gamma 70.63000

_symmetry_space_group_name_	'P 1'
_symmetry_space_group_name_H-M	'P 1'

loop_
_symmetry_equiv_pos_as_xyz
  x,y,z

loop_
_atom_site_label
_atom_site_type_symbol
_atom_site_fract_x
_atom_site_fract_y
_atom_site_fract_z
_atom_site_charge
Cu	Cu	0.47522 0.23555 0.73107 0.91000
Cu	Cu	0.52839 0.23397 0.22880 0.90800
O 	O 	0.38050 0.35660 0.76890 -0.26600
O 	O 	0.58000 0.11750 0.69440 -0.26600
O 	O 	0.33420 0.79980 0.81610 -0.26300
O 	O 	0.46770 0.36390 0.17390 -0.26900
O 	O 	0.57050 0.18440 0.79590 -0.26500
O 	O 	0.59410 0.10890 0.28590 -0.27000
O 	O 	0.39690 0.30190 0.66080 -0.26700
C 	C 	0.20260 0.37020 0.79730 0.04400
H 	H 	0.23040 0.31070 0.82660 0.02000
C 	C 	0.08980 0.42450 0.79320 -0.10500
H 	H 	0.04120 0.40470 0.82100 0.06300
C 	C 	0.04740 0.50750 0.74890 0.04400
C 	C 	0.12260 0.53500 0.71120 -0.10300
H 	H 	0.09670 0.59290 0.68090 0.06400
C 	C 	0.23420 0.48070 0.71630 0.04400
H 	H 	0.28450 0.49900 0.68900 0.03100
C 	C 	0.73890 0.57350 0.76360 0.02100
H 	H 	0.68770 0.54150 0.78290 0.04200
C 	C 	0.84960 0.52110 0.77040 -0.08700
H 	H 	0.87400 0.45340 0.79500 0.05800
C 	C 	0.92710 0.56300 0.74270 0.03000
C 	C 	0.88570 0.66580 0.70830 -0.09700
H 	H 	0.93530 0.70140 0.69050 0.06000
C 	C 	0.77490 0.71420 0.70050 0.03900
H 	H 	0.74880 0.77940 0.67430 0.03400
C 	C 	0.71450 0.97970 0.74300 0.05500
H 	H 	0.66240 0.94270 0.75450 0.01800
C 	C 	0.82560 0.93080 0.75910 -0.10400
H 	H 	0.84830 0.86230 0.78320 0.06600
C 	C 	0.90210 0.98390 0.73920 0.04200
C 	C 	0.86370 0.08400 0.70590 -0.10700
H 	H 	0.91340 0.12200 0.69110 0.06600
C 	C 	0.75460 0.12870 0.69390 0.05300
H 	H 	0.72910 0.19930 0.67180 0.01500
C 	C 	0.19160 0.95100 0.77800 0.05500
H 	H 	0.23510 0.99670 0.78040 0.02200
C 	C 	0.08690 0.99600 0.75970 -0.10700
H 	H 	0.05840 0.07360 0.74870 0.06500
C 	C 	0.02030 0.93350 0.75660 0.04600
C 	C 	0.06840 0.82080 0.77060 -0.10500
H 	H 	0.02630 0.77360 0.76820 0.06500
C 	C 	0.17610 0.77560 0.78810 0.04500
H 	H 	0.20870 0.69780 0.79670 0.02800
C 	C 	0.55940 0.36500 0.08730 0.04800
H 	H 	0.61410 0.38570 0.10340 0.03600
C 	C 	0.56710 0.35100 0.03180 -0.10400
H 	H 	0.62680 0.36280 0.00930 0.06800
C 	C 	0.49060 0.32040 0.00830 0.04400
C 	C 	0.40030 0.31180 0.04140 -0.10500
H 	H 	0.34200 0.29670 0.02530 0.06300
C 	C 	0.39530 0.32500 0.09660 0.03800
H 	H 	0.33450 0.31670 0.11930 0.02000
C 	C 	0.45990 0.21130 0.87550 0.05400
H 	H 	0.41610 0.17360 0.86240 0.01100
C 	C 	0.43730 0.24680 0.92730 -0.10500
H 	H 	0.37520 0.23750 0.94850 0.06400
C 	C 	0.50190 0.29530 0.94930 0.04600
C 	C 	0.58080 0.32200 0.91190 -0.10400
H 	H 	0.62290 0.36350 0.92330 0.06900
C 	C 	0.59700 0.29100 0.86040 0.05700
H 	H 	0.64850 0.31260 0.83530 0.02600
C 	C 	0.50420 0.08190 0.37030 0.04500
H 	H 	0.47350 0.03580 0.35430 0.04000
C 	C 	0.48070 0.10200 0.42610 -0.09400
H 	H 	0.43190 0.07070 0.44820 0.06400
C 	C 	0.52850 0.16780 0.44970 0.03600
C 	C 	0.59800 0.21240 0.41560 -0.09600
H 	H 	0.63220 0.25710 0.43040 0.06200
C 	C 	0.61840 0.19270 0.36040 0.04000
H 	H 	0.66580 0.22410 0.33710 0.01800
C 	C 	0.52740 0.27510 0.58660 0.04700
H 	H 	0.57040 0.30720 0.60480 0.01800
C 	C 	0.55910 0.24230 0.53410 -0.10400
H 	H 	0.62450 0.25150 0.51660 0.06500
C 	C 	0.49850 0.19710 0.50730 0.04800
C 	C 	0.40410 0.18240 0.53480 -0.10700
H 	H 	0.36040 0.15020 0.51730 0.06800
C 	C 	0.37510 0.21490 0.58700 0.05300
H 	H 	0.31130 0.20400 0.60580 0.02700
N 	N 	0.27160 0.40110 0.76030 -0.07200
N 	N 	0.70180 0.67140 0.72930 -0.06100
N 	N 	0.68320 0.07770 0.71180 -0.07300
N 	N 	0.23390 0.84200 0.79270 -0.07400
N 	N 	0.47440 0.34950 0.11950 -0.07400
N 	N 	0.54150 0.22870 0.84350 -0.07200
N 	N 	0.57110 0.12960 0.33990 -0.07200
N 	N 	0.43490 0.26150 0.61220 -0.07100
O 	O 	0.59780 0.71880 0.71880 -0.26100
Cu	Cu	0.52478 0.76445 0.26893 0.91100
Cu	Cu	0.47161 0.76603 0.77120 0.90900
O 	O 	0.61950 0.64340 0.23110 -0.26500
O 	O 	0.42000 0.88250 0.30560 -0.26500
O 	O 	0.66580 0.20020 0.18390 -0.26300
O 	O 	0.53230 0.63610 0.82610 -0.26900
O 	O 	0.42950 0.81560 0.20410 -0.26500
O 	O 	0.40590 0.89110 0.71410 -0.27000
O 	O 	0.60310 0.69810 0.33920 -0.26700
C 	C 	0.79740 0.62980 0.20270 0.04400
H 	H 	0.76960 0.68930 0.17340 0.02000
C 	C 	0.91020 0.57550 0.20680 -0.10500
H 	H 	0.95880 0.59530 0.17900 0.06300
C 	C 	0.95260 0.49250 0.25110 0.04400
C 	C 	0.87740 0.46500 0.28880 -0.10300
H 	H 	0.90330 0.40710 0.31910 0.06400
C 	C 	0.76580 0.51930 0.28370 0.04400
H 	H 	0.71550 0.50100 0.31100 0.03100
C 	C 	0.26110 0.42650 0.23640 0.02100
H 	H 	0.31230 0.45850 0.21710 0.04200
C 	C 	0.15040 0.47890 0.22960 -0.08700
H 	H 	0.12600 0.54660 0.20500 0.05800
C 	C 	0.07290 0.43700 0.25730 0.03000
C 	C 	0.11430 0.33420 0.29170 -0.09700
H 	H 	0.06470 0.29860 0.30950 0.06000
C 	C 	0.22510 0.28580 0.29950 0.03900
H 	H 	0.25120 0.22060 0.32570 0.03400
C 	C 	0.28550 0.02030 0.25700 0.05500
H 	H 	0.33760 0.05730 0.24550 0.01800
C 	C 	0.17440 0.06920 0.24090 -0.10400
H 	H 	0.15170 0.13770 0.21680 0.06600
C 	C 	0.09790 0.01610 0.26080 0.04200
C 	C 	0.13630 0.91600 0.29410 -0.10700
H 	H 	0.08660 0.87800 0.30890 0.06600
C 	C 	0.24540 0.87130 0.30610 0.05300
H 	H 	0.27090 0.80070 0.32820 0.01500
C 	C 	0.80840 0.04900 0.22200 0.05500
H 	H 	0.76490 0.00330 0.21960 0.02200
C 	C 	0.91310 0.00400 0.24030 -0.10700
H 	H 	0.94160 0.92640 0.25130 0.06500
C 	C 	0.97970 0.06650 0.24340 0.04600
C 	C 	0.93160 0.17920 0.22940 -0.10500
H 	H 	0.97370 0.22640 0.23180 0.06500
C 	C 	0.82390 0.22440 0.21190 0.04500
H 	H 	0.79130 0.30220 0.20330 0.02800
C 	C 	0.44060 0.63500 0.91270 0.04800
H 	H 	0.38590 0.61430 0.89660 0.03600
C 	C 	0.43290 0.64900 0.96820 -0.10400
H 	H 	0.37320 0.63720 0.99070 0.06800
C 	C 	0.50940 0.67960 0.99170 0.04400
C 	C 	0.59970 0.68820 0.95860 -0.10500
H 	H 	0.65800 0.70330 0.97470 0.06300
C 	C 	0.60470 0.67500 0.90340 0.03800
H 	H 	0.66550 0.68330 0.88070 0.02000
C 	C 	0.54010 0.78870 0.12450 0.05400
H 	H 	0.58390 0.82640 0.13760 0.01100
C 	C 	0.56270 0.75320 0.07270 -0.10500
H 	H 	0.62480 0.76250 0.05150 0.06400
C 	C 	0.49810 0.70470 0.05070 0.04600
C 	C 	0.41920 0.67800 0.08810 -0.10400
H 	H 	0.37710 0.63650 0.07670 0.06900
C 	C 	0.40300 0.70900 0.13960 0.05700
H 	H 	0.35150 0.68740 0.16470 0.02600
C 	C 	0.49580 0.91810 0.62970 0.04500
H 	H 	0.52650 0.96420 0.64570 0.04000
C 	C 	0.51930 0.89800 0.57390 -0.09400
H 	H 	0.56810 0.92930 0.55180 0.06400
C 	C 	0.47150 0.83220 0.55030 0.03600
C 	C 	0.40200 0.78760 0.58440 -0.09600
H 	H 	0.36780 0.74290 0.56960 0.06200
C 	C 	0.38160 0.80730 0.63960 0.04000
H 	H 	0.33420 0.77590 0.66290 0.01800
C 	C 	0.47260 0.72490 0.41340 0.04700
H 	H 	0.42960 0.69280 0.39520 0.01800
C 	C 	0.44090 0.75770 0.46590 -0.10400
H 	H 	0.37550 0.74850 0.48340 0.06500
C 	C 	0.50150 0.80290 0.49270 0.04800
C 	C 	0.59590 0.81760 0.46520 -0.10700
H 	H 	0.63960 0.84980 0.48270 0.06800
C 	C 	0.62490 0.78510 0.41300 0.05300
H 	H 	0.68870 0.79600 0.39420 0.02700
N 	N 	0.72840 0.59890 0.23970 -0.07200
N 	N 	0.29820 0.32860 0.27070 -0.06100
N 	N 	0.31680 0.92230 0.28820 -0.07300
N 	N 	0.76610 0.15800 0.20730 -0.07400
N 	N 	0.52560 0.65050 0.88050 -0.07400
N 	N 	0.45850 0.77130 0.15650 -0.07200
N 	N 	0.42890 0.87040 0.66010 -0.07200
N 	N 	0.56510 0.73850 0.38780 -0.07100
O 	O 	0.40220 0.28120 0.28120 -0.26100
