data_crystal

_cell_length_a 13.02420
_cell_length_b 13.77950
_cell_length_c 23.95520
_cell_angle_alpha 81.25900
_cell_angle_beta  86.49000
_cell_angle_gamma 70.04600

_symmetry_space_group_name_	'P 1'
_symmetry_space_group_name_H-M	'P 1'

loop_
_symmetry_equiv_pos_as_xyz
  x,y,z

loop_
_atom_site_label
_atom_site_type_symbol
_atom_site_fract_x
_atom_site_fract_y
_atom_site_fract_z
_atom_site_charge
Cu	Cu	0.52670 0.76764 0.26552 0.94200
Cu	Cu	0.47799 0.77616 0.76430 0.92500
O 	O 	0.62010 0.65500 0.22810 -0.25900
O 	O 	0.43580 0.88530 0.29940 -0.24900
O 	O 	0.67100 0.23310 0.21050 -0.24200
O 	O 	0.52820 0.65280 0.82220 -0.25400
O 	O 	0.43140 0.81620 0.19910 -0.23500
O 	O 	0.41850 0.89840 0.70760 -0.26600
O 	O 	0.61290 0.71620 0.33330 -0.26400
C 	C 	0.79920 0.62630 0.20310 0.05100
H 	H 	0.77560 0.68340 0.17370 0.01500
C 	C 	0.90850 0.56950 0.20740 -0.10700
H 	H 	0.95900 0.58430 0.18010 0.06600
C 	C 	0.94500 0.48800 0.25360 0.04300
C 	C 	0.87040 0.47150 0.29200 -0.10200
H 	H 	0.89240 0.42230 0.32510 0.06400
C 	C 	0.75740 0.52980 0.28170 0.04400
H 	H 	0.70350 0.51450 0.30650 0.03100
C 	C 	0.24750 0.38560 0.23240 0.03100
H 	H 	0.30180 0.40720 0.21110 0.04100
C 	C 	0.14080 0.44820 0.22610 -0.09200
H 	H 	0.12210 0.50900 0.19890 0.06800
C 	C 	0.05960 0.42400 0.25910 0.03800
C 	C 	0.09020 0.33310 0.29560 -0.10300
H 	H 	0.03730 0.31070 0.31780 0.06300
C 	C 	0.20280 0.27310 0.29960 0.04400
H 	H 	0.22480 0.21310 0.32740 0.03400
C 	C 	0.30330 0.01710 0.25040 0.04700
H 	H 	0.35820 0.04410 0.23420 0.05000
C 	C 	0.18930 0.07430 0.23760 -0.08500
H 	H 	0.16870 0.13970 0.21400 0.06300
C 	C 	0.10980 0.03170 0.26070 0.02500
C 	C 	0.15010 0.93390 0.29840 -0.09200
H 	H 	0.10080 0.90080 0.31570 0.06300
C 	C 	0.25790 0.89050 0.30860 0.05300
H 	H 	0.28240 0.82890 0.33510 0.01900
C 	C 	0.81100 0.08430 0.25530 0.04000
H 	H 	0.76050 0.05040 0.26940 0.03600
C 	C 	0.92010 0.03520 0.26370 -0.10700
H 	H 	0.94500 0.96440 0.28060 0.06800
C 	C 	0.99310 0.08280 0.24900 0.05800
C 	C 	0.95270 0.18620 0.22420 -0.11700
H 	H 	0.00110 0.22470 0.21490 0.06900
C 	C 	0.84360 0.23300 0.21300 0.06000
H 	H 	0.81740 0.30330 0.19520 0.03000
C 	C 	0.43440 0.65320 0.90710 0.04900
H 	H 	0.37890 0.63680 0.89060 0.03600
C 	C 	0.42970 0.66390 0.96220 -0.09700
H 	H 	0.37000 0.65350 0.98400 0.06300
C 	C 	0.50820 0.68960 0.98970 0.03300
C 	C 	0.59560 0.69880 0.95530 -0.08900
H 	H 	0.65350 0.71340 0.97060 0.06000
C 	C 	0.59840 0.68650 0.89770 0.04300
H 	H 	0.65790 0.69300 0.87430 0.03000
C 	C 	0.53630 0.79740 0.11990 0.06200
H 	H 	0.57710 0.83530 0.13240 0.01800
C 	C 	0.55350 0.76830 0.06770 -0.11200
H 	H 	0.60520 0.78820 0.04320 0.06800
C 	C 	0.49750 0.71000 0.04930 0.05200
C 	C 	0.42320 0.68140 0.08700 -0.10900
H 	H 	0.38060 0.64410 0.07560 0.07000
C 	C 	0.41260 0.70640 0.13800 0.05300
H 	H 	0.37010 0.67850 0.16520 0.04300
C 	C 	0.51390 0.91670 0.62370 0.04700
H 	H 	0.54980 0.95430 0.64050 0.04400
C 	C 	0.53810 0.89680 0.56910 -0.09700
H 	H 	0.59420 0.91790 0.54940 0.06400
C 	C 	0.48420 0.84750 0.54160 0.03500
C 	C 	0.39920 0.82660 0.57390 -0.09900
H 	H 	0.35240 0.80010 0.55670 0.06100
C 	C 	0.38090 0.84250 0.62870 0.04000
H 	H 	0.32440 0.82410 0.64980 0.02200
C 	C 	0.48430 0.74570 0.40640 0.05900
H 	H 	0.44230 0.71650 0.38750 0.01100
C 	C 	0.45160 0.77560 0.45770 -0.10800
H 	H 	0.38770 0.76580 0.47520 0.06500
C 	C 	0.51270 0.82160 0.48530 0.04600
C 	C 	0.60850 0.82770 0.45820 -0.11200
H 	H 	0.65540 0.85330 0.47590 0.06800
C 	C 	0.63530 0.79670 0.40580 0.06700
H 	H 	0.69860 0.80450 0.38660 0.01800
N 	N 	0.72640 0.60470 0.23800 -0.07200
N 	N 	0.27840 0.29640 0.26670 -0.06100
N 	N 	0.33030 0.92870 0.28400 -0.07300
N 	N 	0.77520 0.18260 0.22630 -0.07100
N 	N 	0.51720 0.66590 0.87650 -0.06900
N 	N 	0.46160 0.77220 0.15310 -0.06900
N 	N 	0.44070 0.88310 0.65240 -0.08000
N 	N 	0.57450 0.75680 0.38250 -0.08100
O 	O 	0.37490 0.22930 0.26670 -0.25100
O 	O 	0.47790 0.88750 0.81960 -0.19100
O 	O 	0.62380 0.88050 0.23180 -0.91400
H 	H 	0.66630 0.85590 0.20520 0.42000
H 	H 	0.66250 0.88450 0.25810 0.35900
N 	N 	0.52300 0.92000 0.86550 -0.08600
C 	C 	0.60920 0.93000 0.89020 0.06400
H 	H 	0.67590 0.91640 0.86940 0.02100
C 	C 	0.60760 0.95780 0.94190 -0.12800
H 	H 	0.67050 0.96180 0.95830 0.07000
C 	C 	0.50940 0.97950 0.96880 0.06400
C 	C 	0.41930 0.97000 0.94860 -0.14800
H 	H 	0.35560 0.97380 0.97100 0.07700
C 	C 	0.42700 0.95470 0.89380 0.09800
H 	H 	0.36130 0.96920 0.87390 0.01000
O 	O 	0.73900 0.35500 0.76040 -0.13700
N 	N 	0.36820 0.96190 0.81270 -0.16000
C 	C 	0.35810 0.04310 0.77120 0.36200
H 	H 	0.41680 0.05070 0.74740 0.07500
C 	C 	0.25510 0.11220 0.76720 -0.48000
H 	H 	0.24290 0.17110 0.73890 0.13700
C 	C 	0.16740 0.10640 0.79940 0.23900
C 	C 	0.19400 0.02580 0.84230 -0.24300
H 	H 	0.13780 0.02260 0.86890 0.10800
C 	C 	0.29140 0.94990 0.85100 0.13000
H 	H 	0.30480 0.89370 0.88110 -0.00200
N 	N 	0.84360 0.29300 0.77070 -0.06500
C 	C 	0.87240 0.24400 0.82380 0.01700
H 	H 	0.82020 0.24750 0.85360 0.03700
C 	C 	0.97980 0.19100 0.83170 -0.03700
H 	H 	0.00480 0.16620 0.86940 0.03400
C 	C 	0.05380 0.17100 0.78920 -0.06700
C 	C 	0.02070 0.23400 0.73930 -0.04400
H 	H 	0.07470 0.23720 0.71130 0.04200
C 	C 	0.91500 0.29200 0.72720 0.01900
H 	H 	0.89280 0.32820 0.69070 0.03700
Cu	Cu	0.47330 0.23236 0.73448 0.94100
Cu	Cu	0.52201 0.22384 0.23570 0.92400
O 	O 	0.37990 0.34500 0.77190 -0.26000
O 	O 	0.56420 0.11470 0.70060 -0.25000
O 	O 	0.32900 0.76690 0.78950 -0.24200
O 	O 	0.47180 0.34720 0.17780 -0.25400
O 	O 	0.56860 0.18380 0.80090 -0.23500
O 	O 	0.58150 0.10160 0.29240 -0.26600
O 	O 	0.38710 0.28380 0.66670 -0.26400
C 	C 	0.20080 0.37370 0.79690 0.05100
H 	H 	0.22440 0.31660 0.82630 0.01500
C 	C 	0.09150 0.43050 0.79260 -0.10700
H 	H 	0.04100 0.41570 0.81990 0.06600
C 	C 	0.05500 0.51200 0.74640 0.04300
C 	C 	0.12960 0.52850 0.70800 -0.10200
H 	H 	0.10760 0.57770 0.67490 0.06400
C 	C 	0.24260 0.47020 0.71830 0.04400
H 	H 	0.29650 0.48550 0.69350 0.03100
C 	C 	0.75250 0.61440 0.76760 0.03100
H 	H 	0.69820 0.59280 0.78890 0.04100
C 	C 	0.85920 0.55180 0.77390 -0.09200
H 	H 	0.87790 0.49100 0.80110 0.06800
C 	C 	0.94040 0.57600 0.74090 0.03800
C 	C 	0.90980 0.66690 0.70440 -0.10300
H 	H 	0.96270 0.68930 0.68220 0.06300
C 	C 	0.79720 0.72690 0.70040 0.04400
H 	H 	0.77520 0.78690 0.67260 0.03400
C 	C 	0.69670 0.98290 0.74960 0.04700
H 	H 	0.64180 0.95590 0.76580 0.05000
C 	C 	0.81070 0.92570 0.76240 -0.08500
H 	H 	0.83130 0.86030 0.78600 0.06300
C 	C 	0.89020 0.96830 0.73930 0.02500
C 	C 	0.84990 0.06610 0.70160 -0.09200
H 	H 	0.89920 0.09920 0.68430 0.06300
C 	C 	0.74210 0.10950 0.69140 0.05300
H 	H 	0.71760 0.17110 0.66490 0.01900
C 	C 	0.18900 0.91570 0.74470 0.04000
H 	H 	0.23950 0.94960 0.73060 0.03600
C 	C 	0.07990 0.96480 0.73630 -0.10700
H 	H 	0.05500 0.03560 0.71940 0.06800
C 	C 	0.00690 0.91720 0.75100 0.05800
C 	C 	0.04730 0.81380 0.77580 -0.11700
H 	H 	0.99890 0.77530 0.78510 0.06900
C 	C 	0.15640 0.76700 0.78700 0.06000
H 	H 	0.18260 0.69670 0.80480 0.03000
C 	C 	0.56560 0.34680 0.09290 0.04900
H 	H 	0.62110 0.36320 0.10940 0.03600
C 	C 	0.57030 0.33610 0.03780 -0.09700
H 	H 	0.63000 0.34650 0.01600 0.06300
C 	C 	0.49180 0.31040 0.01030 0.03300
C 	C 	0.40440 0.30120 0.04470 -0.08900
H 	H 	0.34650 0.28660 0.02940 0.06000
C 	C 	0.40160 0.31350 0.10230 0.04300
H 	H 	0.34210 0.30700 0.12570 0.03000
C 	C 	0.46370 0.20260 0.88010 0.06200
H 	H 	0.42290 0.16470 0.86760 0.01800
C 	C 	0.44650 0.23170 0.93230 -0.11200
H 	H 	0.39480 0.21180 0.95680 0.06800
C 	C 	0.50250 0.29000 0.95070 0.05200
C 	C 	0.57680 0.31860 0.91300 -0.10900
H 	H 	0.61940 0.35590 0.92440 0.07000
C 	C 	0.58740 0.29360 0.86200 0.05300
H 	H 	0.62990 0.32150 0.83480 0.04300
C 	C 	0.48610 0.08330 0.37630 0.04700
H 	H 	0.45020 0.04570 0.35950 0.04400
C 	C 	0.46190 0.10320 0.43090 -0.09700
H 	H 	0.40580 0.08210 0.45060 0.06400
C 	C 	0.51580 0.15250 0.45840 0.03500
C 	C 	0.60080 0.17340 0.42610 -0.09900
H 	H 	0.64760 0.19990 0.44330 0.06100
C 	C 	0.61910 0.15750 0.37130 0.04000
H 	H 	0.67560 0.17590 0.35020 0.02200
C 	C 	0.51570 0.25430 0.59360 0.05900
H 	H 	0.55770 0.28350 0.61250 0.01100
C 	C 	0.54840 0.22440 0.54230 -0.10800
H 	H 	0.61230 0.23420 0.52480 0.06500
C 	C 	0.48730 0.17840 0.51470 0.04600
C 	C 	0.39150 0.17230 0.54180 -0.11200
H 	H 	0.34460 0.14670 0.52410 0.06800
C 	C 	0.36470 0.20330 0.59420 0.06700
H 	H 	0.30140 0.19550 0.61340 0.01800
N 	N 	0.27360 0.39530 0.76200 -0.07200
N 	N 	0.72160 0.70360 0.73330 -0.06100
N 	N 	0.66970 0.07130 0.71600 -0.07300
N 	N 	0.22480 0.81740 0.77370 -0.07100
N 	N 	0.48280 0.33410 0.12350 -0.06900
N 	N 	0.53840 0.22780 0.84690 -0.06900
N 	N 	0.55930 0.11690 0.34760 -0.08000
N 	N 	0.42550 0.24320 0.61750 -0.08100
O 	O 	0.62510 0.77070 0.73330 -0.25100
O 	O 	0.52210 0.11250 0.18040 -0.19100
O 	O 	0.37620 0.11950 0.76820 -0.91400
H 	H 	0.33370 0.14410 0.79480 0.42000
H 	H 	0.33750 0.11550 0.74190 0.35900
N 	N 	0.47700 0.08000 0.13450 -0.08600
C 	C 	0.39080 0.07000 0.10980 0.06400
H 	H 	0.32410 0.08360 0.13060 0.02100
C 	C 	0.39240 0.04220 0.05810 -0.12800
H 	H 	0.32950 0.03820 0.04170 0.07000
C 	C 	0.49060 0.02050 0.03120 0.06400
C 	C 	0.58070 0.03000 0.05140 -0.14800
H 	H 	0.64440 0.02620 0.02900 0.07700
C 	C 	0.57300 0.04530 0.10620 0.09800
H 	H 	0.63870 0.03080 0.12610 0.01000
O 	O 	0.26100 0.64500 0.23960 -0.13700
N 	N 	0.63180 0.03810 0.18730 -0.16000
C 	C 	0.64190 0.95690 0.22880 0.36200
H 	H 	0.58320 0.94930 0.25260 0.07500
C 	C 	0.74490 0.88780 0.23280 -0.48000
H 	H 	0.75710 0.82890 0.26110 0.13700
C 	C 	0.83260 0.89360 0.20060 0.23900
C 	C 	0.80600 0.97420 0.15770 -0.24300
H 	H 	0.86220 0.97740 0.13110 0.10800
C 	C 	0.70860 0.05010 0.14900 0.13000
H 	H 	0.69520 0.10630 0.11890 -0.00200
N 	N 	0.15640 0.70700 0.22930 -0.06500
C 	C 	0.12760 0.75600 0.17620 0.01700
H 	H 	0.17980 0.75250 0.14640 0.03700
C 	C 	0.02020 0.80900 0.16830 -0.03700
H 	H 	0.99520 0.83380 0.13060 0.03400
C 	C 	0.94620 0.82900 0.21080 -0.06700
C 	C 	0.97930 0.76600 0.26070 -0.04400
H 	H 	0.92530 0.76280 0.28870 0.04200
C 	C 	0.08500 0.70800 0.27280 0.01900
H 	H 	0.10720 0.67180 0.30930 0.03700
