data_crystal

_cell_length_a 12.11190
_cell_length_b 12.55550
_cell_length_c 12.65650
_cell_angle_alpha 62.87400
_cell_angle_beta  70.15100
_cell_angle_gamma 84.07500

_symmetry_space_group_name_	'P 1'
_symmetry_space_group_name_H-M	'P 1'

loop_
_symmetry_equiv_pos_as_xyz
  x,y,z

loop_
_atom_site_label
_atom_site_type_symbol
_atom_site_fract_x
_atom_site_fract_y
_atom_site_fract_z
_atom_site_charge
Ag	Ag	0.91922 0.61864 0.35518 0.43400
Ag	Ag	0.11156 0.45718 0.34291 0.43500
Ag	Ag	0.10582 0.67072 0.43339 0.43600
Na	Na	0.55857 0.66825 0.90787 0.58300
Na	Na	0.45928 0.87323 0.65559 0.59500
S 	S 	0.21804 0.66072 0.23060 -0.25700
S 	S 	0.82649 0.43781 0.38214 -0.28200
S 	S 	0.81200 0.70506 0.50016 -0.27400
N 	N 	0.03120 0.75310 0.15780 -0.20900
N 	N 	0.03150 0.41260 0.22600 -0.20900
N 	N 	0.01000 0.84440 0.40140 -0.20800
O 	O 	0.40440 0.80990 0.87160 -0.35400
O 	O 	0.40080 0.89000 0.99760 -0.24800
O 	O 	0.68260 0.24710 0.34180 -0.29600
O 	O 	0.66890 0.41960 0.18360 -0.24100
O 	O 	0.64600 0.94880 0.40540 -0.31600
O 	O 	0.65200 0.95740 0.57490 -0.31600
O 	O 	0.55540 0.68530 0.71690 -0.23900
O 	O 	0.37240 0.53510 0.03940 -0.24200
C 	C 	0.14990 0.75810 0.12040 0.11000
C 	C 	0.21860 0.83570 0.99690 -0.13000
C 	C 	0.35160 0.84530 0.95190 0.33900
C 	C 	0.16120 0.90460 0.91160 0.05800
H 	H 	0.20450 0.95370 0.82830 0.02400
C 	C 	0.03920 0.90000 0.95080 -0.14100
H 	H 	0.99960 0.94630 0.89510 0.08500
C 	C 	0.97830 0.82470 0.07480 0.07400
H 	H 	0.89660 0.82360 0.10220 -0.00500
C 	C 	0.91350 0.40180 0.26100 0.10700
C 	C 	0.85870 0.36580 0.20060 -0.12900
C 	C 	0.72640 0.34200 0.24700 0.33000
C 	C 	0.92820 0.34610 0.09940 0.05900
H 	H 	0.89360 0.32590 0.05520 0.02100
C 	C 	0.04890 0.35650 0.06480 -0.13600
H 	H 	0.09680 0.34200 0.99820 0.07600
C 	C 	0.09700 0.38890 0.13090 0.08000
H 	H 	0.17840 0.39460 0.10860 -0.01000
C 	C 	0.89170 0.84250 0.43970 0.10400
C 	C 	0.83270 0.94660 0.43070 -0.12600
C 	C 	0.69980 0.94910 0.47430 0.32500
C 	C 	0.89890 0.05250 0.38220 0.05200
H 	H 	0.86160 0.12220 0.37780 0.02700
C 	C 	0.01980 0.05420 0.34070 -0.13100
H 	H 	0.06510 0.12510 0.30570 0.07400
C 	C 	0.07220 0.94860 0.35210 0.07100
H 	H 	0.15380 0.94940 0.32470 0.00300
Ag	Ag	0.08078 0.38136 0.64482 0.43300
Ag	Ag	0.88844 0.54282 0.65709 0.43400
Ag	Ag	0.89418 0.32928 0.56661 0.43500
Na	Na	0.44143 0.33175 0.09213 0.58200
Na	Na	0.54072 0.12677 0.34441 0.59400
S 	S 	0.78196 0.33928 0.76940 -0.25800
S 	S 	0.17351 0.56219 0.61786 -0.28200
S 	S 	0.18800 0.29494 0.49984 -0.27400
N 	N 	0.96880 0.24690 0.84220 -0.20900
N 	N 	0.96850 0.58740 0.77400 -0.20900
N 	N 	0.99000 0.15560 0.59860 -0.20800
O 	O 	0.59560 0.19010 0.12840 -0.35400
O 	O 	0.59920 0.11000 0.00240 -0.24800
O 	O 	0.31740 0.75290 0.65820 -0.29600
O 	O 	0.33110 0.58040 0.81640 -0.24100
O 	O 	0.35400 0.05120 0.59460 -0.31600
O 	O 	0.34800 0.04260 0.42510 -0.31600
O 	O 	0.44460 0.31470 0.28310 -0.23900
O 	O 	0.62760 0.46490 0.96060 -0.24200
C 	C 	0.85010 0.24190 0.87960 0.11000
C 	C 	0.78140 0.16430 0.00310 -0.13000
C 	C 	0.64840 0.15470 0.04810 0.33900
C 	C 	0.83880 0.09540 0.08840 0.05800
H 	H 	0.79550 0.04630 0.17170 0.02400
C 	C 	0.96080 0.10000 0.04920 -0.14100
H 	H 	0.00040 0.05370 0.10490 0.08500
C 	C 	0.02170 0.17530 0.92520 0.07400
H 	H 	0.10340 0.17640 0.89780 -0.00500
C 	C 	0.08650 0.59820 0.73900 0.10700
C 	C 	0.14130 0.63420 0.79940 -0.12900
C 	C 	0.27360 0.65800 0.75300 0.33000
C 	C 	0.07180 0.65390 0.90060 0.05900
H 	H 	0.10640 0.67410 0.94480 0.02100
C 	C 	0.95110 0.64350 0.93520 -0.13600
H 	H 	0.90320 0.65800 0.00180 0.07600
C 	C 	0.90300 0.61110 0.86910 0.08000
H 	H 	0.82160 0.60540 0.89140 -0.01000
C 	C 	0.10830 0.15750 0.56030 0.10400
C 	C 	0.16730 0.05340 0.56930 -0.12600
C 	C 	0.30020 0.05090 0.52570 0.32500
C 	C 	0.10110 0.94750 0.61780 0.05200
H 	H 	0.13840 0.87780 0.62220 0.02700
C 	C 	0.98020 0.94580 0.65930 -0.13100
H 	H 	0.93490 0.87490 0.69430 0.07400
C 	C 	0.92780 0.05140 0.64790 0.07100
H 	H 	0.84620 0.05060 0.67530 0.00300
