data_crystal

_cell_length_a 26.22100
_cell_length_b 26.22100
_cell_length_c 26.02000
_cell_angle_alpha 90.00000
_cell_angle_beta  90.00000
_cell_angle_gamma 120.00000

_symmetry_space_group_name_	'P 1'
_symmetry_space_group_name_H-M	'P 1'

loop_
_symmetry_equiv_pos_as_xyz
  x,y,z

loop_
_atom_site_label
_atom_site_type_symbol
_atom_site_fract_x
_atom_site_fract_y
_atom_site_fract_z
_atom_site_charge
O 	O 	0.25103 0.85452 0.15741 -0.41400
O 	O 	0.22509 0.87840 0.23063 -0.42200
O 	O 	0.50697 0.11796 0.94590 -0.39100
O 	O 	0.53444 0.17116 0.87116 -0.38900
C 	C 	0.24760 0.89040 0.18780 0.38600
C 	C 	0.26564 0.95040 0.16360 -0.13500
C 	C 	0.28480 0.96260 0.11580 0.07800
H 	H 	0.28590 0.93330 0.09510 0.01900
C 	C 	0.30260 0.01540 0.09660 -0.13500
H 	H 	0.31500 0.02260 0.06170 0.07600
C 	C 	0.30390 0.06060 0.12440 0.06800
C 	C 	0.28280 0.04830 0.17150 -0.12200
H 	H 	0.28090 0.07760 0.19150 0.07900
C 	C 	0.26310 0.99210 0.19220 0.05900
H 	H 	0.24810 0.98340 0.22630 0.02500
C 	C 	0.32660 0.11830 0.10260 0.05600
C 	C 	0.37280 0.13906 0.06470 -0.10600
H 	H 	0.38790 0.11450 0.05400 0.06600
C 	C 	0.45560 0.18280 0.98160 -0.01500
H 	H 	0.44390 0.14530 0.99610 0.04900
C 	C 	0.49330 0.20206 0.93810 -0.06800
C 	C 	0.51260 0.16170 0.91660 0.31000
O 	O 	0.91770 0.18785 0.49074 -0.41400
O 	O 	0.89176 0.21173 0.56396 -0.42200
O 	O 	0.17364 0.45129 0.27923 -0.39100
O 	O 	0.20111 0.50449 0.20449 -0.38900
C 	C 	0.91427 0.22373 0.52113 0.38700
C 	C 	0.93231 0.28373 0.49693 -0.13900
C 	C 	0.95147 0.29593 0.44913 0.08400
H 	H 	0.95257 0.26663 0.42843 0.01800
C 	C 	0.96927 0.34873 0.42993 -0.14000
H 	H 	0.98167 0.35593 0.39503 0.07800
C 	C 	0.97057 0.39393 0.45773 0.07200
C 	C 	0.94947 0.38163 0.50483 -0.12500
H 	H 	0.94757 0.41093 0.52483 0.08200
C 	C 	0.92977 0.32543 0.52553 0.06400
H 	H 	0.91477 0.31673 0.55963 0.02500
C 	C 	0.99327 0.45163 0.43593 0.05700
C 	C 	0.03947 0.47239 0.39803 -0.10500
H 	H 	0.05457 0.44783 0.38733 0.06700
C 	C 	0.12227 0.51613 0.31493 -0.01600
H 	H 	0.11057 0.47863 0.32943 0.05000
C 	C 	0.15997 0.53539 0.27143 -0.06700
C 	C 	0.17927 0.49503 0.24993 0.31100
O 	O 	0.58436 0.52119 0.82408 -0.41300
O 	O 	0.55842 0.54507 0.89730 -0.42100
O 	O 	0.84030 0.78463 0.61257 -0.39000
O 	O 	0.86777 0.83783 0.53783 -0.38800
C 	C 	0.58093 0.55707 0.85447 0.38800
C 	C 	0.59897 0.61707 0.83027 -0.13800
C 	C 	0.61813 0.62927 0.78247 0.08500
H 	H 	0.61923 0.59997 0.76177 0.01900
C 	C 	0.63593 0.68207 0.76327 -0.13900
H 	H 	0.64833 0.68927 0.72837 0.07900
C 	C 	0.63723 0.72727 0.79107 0.07300
C 	C 	0.61613 0.71497 0.83817 -0.12600
H 	H 	0.61423 0.74427 0.85817 0.08200
C 	C 	0.59643 0.65877 0.85887 0.06500
H 	H 	0.58143 0.65007 0.89297 0.02500
C 	C 	0.65993 0.78497 0.76927 0.05500
C 	C 	0.70613 0.80573 0.73137 -0.10300
H 	H 	0.72123 0.78117 0.72067 0.06700
C 	C 	0.78893 0.84947 0.64827 -0.01600
H 	H 	0.77723 0.81197 0.66277 0.05000
C 	C 	0.82663 0.86873 0.60477 -0.06700
C 	C 	0.84593 0.82837 0.58327 0.31100
O 	O 	0.14548 0.39651 0.15741 -0.41300
O 	O 	0.12160 0.34669 0.23063 -0.42000
O 	O 	0.88204 0.38901 0.94590 -0.39000
O 	O 	0.82884 0.36328 0.87116 -0.38800
C 	C 	0.10960 0.35720 0.18780 0.38700
C 	C 	0.04960 0.31524 0.16360 -0.13400
C 	C 	0.03740 0.32220 0.11580 0.08000
H 	H 	0.06670 0.35260 0.09510 0.02000
C 	C 	0.98460 0.28720 0.09660 -0.13400
H 	H 	0.97740 0.29240 0.06170 0.07700
C 	C 	0.93940 0.24330 0.12440 0.06900
C 	C 	0.95170 0.23450 0.17150 -0.12100
H 	H 	0.92240 0.20330 0.19150 0.08100
C 	C 	0.00790 0.27100 0.19220 0.06000
H 	H 	0.01660 0.26470 0.22630 0.02600
C 	C 	0.88170 0.20830 0.10260 0.05700
C 	C 	0.86094 0.23374 0.06470 -0.10500
H 	H 	0.88550 0.27340 0.05400 0.06700
C 	C 	0.81720 0.27280 0.98160 -0.01400
H 	H 	0.85470 0.29860 0.99610 0.05000
C 	C 	0.79794 0.29124 0.93810 -0.06700
C 	C 	0.83830 0.35090 0.91660 0.31100
O 	O 	0.81215 0.72984 0.49074 -0.41300
O 	O 	0.78827 0.68002 0.56396 -0.42100
O 	O 	0.54871 0.72234 0.27923 -0.39000
O 	O 	0.49551 0.69661 0.20449 -0.38800
C 	C 	0.77627 0.69053 0.52113 0.38800
C 	C 	0.71627 0.64857 0.49693 -0.13800
C 	C 	0.70407 0.65553 0.44913 0.08500
H 	H 	0.73337 0.68593 0.42843 0.01800
C 	C 	0.65127 0.62053 0.42993 -0.14000
H 	H 	0.64407 0.62573 0.39503 0.07900
C 	C 	0.60607 0.57663 0.45773 0.07300
C 	C 	0.61837 0.56783 0.50483 -0.12600
H 	H 	0.58907 0.53663 0.52483 0.08200
C 	C 	0.67457 0.60433 0.52553 0.06500
H 	H 	0.68327 0.59803 0.55963 0.02500
C 	C 	0.54837 0.54163 0.43593 0.05500
C 	C 	0.52761 0.56707 0.39803 -0.10300
H 	H 	0.55217 0.60673 0.38733 0.06600
C 	C 	0.48387 0.60613 0.31493 -0.01700
H 	H 	0.52137 0.63193 0.32943 0.05000
C 	C 	0.46461 0.62457 0.27143 -0.06600
C 	C 	0.50497 0.68423 0.24993 0.31100
O 	O 	0.47881 0.06318 0.82408 -0.41300
O 	O 	0.45493 0.01336 0.89730 -0.42000
O 	O 	0.21537 0.05568 0.61257 -0.39000
O 	O 	0.16217 0.02995 0.53783 -0.38800
C 	C 	0.44293 0.02387 0.85447 0.38900
C 	C 	0.38293 0.98191 0.83027 -0.13800
C 	C 	0.37073 0.98887 0.78247 0.08300
H 	H 	0.40003 0.01927 0.76177 0.02000
C 	C 	0.31793 0.95387 0.76327 -0.13800
H 	H 	0.31073 0.95907 0.72837 0.07800
C 	C 	0.27273 0.90997 0.79107 0.07200
C 	C 	0.28503 0.90117 0.83817 -0.12500
H 	H 	0.25573 0.86997 0.85817 0.08200
C 	C 	0.34123 0.93767 0.85887 0.06400
H 	H 	0.34993 0.93137 0.89297 0.02500
C 	C 	0.21503 0.87497 0.76927 0.05600
C 	C 	0.19427 0.90041 0.73137 -0.10400
H 	H 	0.21883 0.94007 0.72067 0.06700
C 	C 	0.15053 0.93947 0.64827 -0.01600
H 	H 	0.18803 0.96527 0.66277 0.04900
C 	C 	0.13127 0.95791 0.60477 -0.06800
C 	C 	0.17163 0.01757 0.58327 0.31200
O 	O 	0.60349 0.74897 0.15741 -0.41300
O 	O 	0.65331 0.77491 0.23063 -0.42100
O 	O 	0.61099 0.49303 0.94590 -0.39000
O 	O 	0.63672 0.46556 0.87116 -0.38800
C 	C 	0.64280 0.75240 0.18780 0.38800
C 	C 	0.68476 0.73436 0.16360 -0.13800
C 	C 	0.67780 0.71520 0.11580 0.08500
H 	H 	0.64740 0.71410 0.09510 0.01800
C 	C 	0.71280 0.69740 0.09660 -0.13900
H 	H 	0.70760 0.68500 0.06170 0.07800
C 	C 	0.75670 0.69610 0.12440 0.07300
C 	C 	0.76550 0.71720 0.17150 -0.12600
H 	H 	0.79670 0.71910 0.19150 0.08200
C 	C 	0.72900 0.73690 0.19220 0.06500
H 	H 	0.73530 0.75190 0.22630 0.02500
C 	C 	0.79170 0.67340 0.10260 0.05500
C 	C 	0.76626 0.62720 0.06470 -0.10400
H 	H 	0.72660 0.61210 0.05400 0.06700
C 	C 	0.72720 0.54440 0.98160 -0.01400
H 	H 	0.70140 0.55610 0.99610 0.04900
C 	C 	0.70876 0.50670 0.93810 -0.06800
C 	C 	0.64910 0.48740 0.91660 0.31100
O 	O 	0.27016 0.08230 0.49074 -0.41300
O 	O 	0.31998 0.10824 0.56396 -0.42100
O 	O 	0.27766 0.82636 0.27923 -0.39000
O 	O 	0.30339 0.79889 0.20449 -0.38800
C 	C 	0.30947 0.08573 0.52113 0.38800
C 	C 	0.35143 0.06769 0.49693 -0.13800
C 	C 	0.34447 0.04853 0.44913 0.08500
H 	H 	0.31407 0.04743 0.42843 0.01900
C 	C 	0.37947 0.03073 0.42993 -0.13900
H 	H 	0.37427 0.01833 0.39503 0.07900
C 	C 	0.42337 0.02943 0.45773 0.07200
C 	C 	0.43217 0.05053 0.50483 -0.12600
H 	H 	0.46337 0.05243 0.52483 0.08200
C 	C 	0.39567 0.07023 0.52553 0.06400
H 	H 	0.40197 0.08523 0.55963 0.02500
C 	C 	0.45837 0.00673 0.43593 0.05700
C 	C 	0.43293 0.96053 0.39803 -0.10500
H 	H 	0.39327 0.94543 0.38733 0.06700
C 	C 	0.39387 0.87773 0.31493 -0.01600
H 	H 	0.36807 0.88943 0.32943 0.05000
C 	C 	0.37543 0.84003 0.27143 -0.06700
C 	C 	0.31577 0.82073 0.24993 0.31100
O 	O 	0.93682 0.41564 0.82408 -0.41300
O 	O 	0.98664 0.44158 0.89730 -0.42000
O 	O 	0.94432 0.15970 0.61257 -0.39000
O 	O 	0.97005 0.13223 0.53783 -0.38800
C 	C 	0.97613 0.41907 0.85447 0.38900
C 	C 	0.01809 0.40103 0.83027 -0.13800
C 	C 	0.01113 0.38187 0.78247 0.08300
H 	H 	0.98073 0.38077 0.76177 0.02000
C 	C 	0.04613 0.36407 0.76327 -0.13800
H 	H 	0.04093 0.35167 0.72837 0.07800
C 	C 	0.09003 0.36277 0.79107 0.07200
C 	C 	0.09883 0.38387 0.83817 -0.12500
H 	H 	0.13003 0.38577 0.85817 0.08200
C 	C 	0.06233 0.40357 0.85887 0.06400
H 	H 	0.06863 0.41857 0.89297 0.02500
C 	C 	0.12503 0.34007 0.76927 0.05600
C 	C 	0.09959 0.29387 0.73137 -0.10400
H 	H 	0.05993 0.27877 0.72067 0.06600
C 	C 	0.06053 0.21107 0.64827 -0.01600
H 	H 	0.03473 0.22277 0.66277 0.05000
C 	C 	0.04209 0.17337 0.60477 -0.06800
C 	C 	0.98243 0.15407 0.58327 0.31200
O 	O 	0.14548 0.74897 0.15741 -0.41300
O 	O 	0.12160 0.77491 0.23063 -0.42100
O 	O 	0.88204 0.49303 0.94590 -0.39000
O 	O 	0.82884 0.46556 0.87116 -0.38800
C 	C 	0.10960 0.75240 0.18780 0.38700
C 	C 	0.04960 0.73436 0.16360 -0.13400
C 	C 	0.03740 0.71520 0.11580 0.07900
H 	H 	0.06670 0.71410 0.09510 0.02000
C 	C 	0.98460 0.69740 0.09660 -0.13400
H 	H 	0.97740 0.68500 0.06170 0.07700
C 	C 	0.93940 0.69610 0.12440 0.06900
C 	C 	0.95170 0.71720 0.17150 -0.12100
H 	H 	0.92240 0.71910 0.19150 0.08000
C 	C 	0.00790 0.73690 0.19220 0.06000
H 	H 	0.01660 0.75190 0.22630 0.02600
C 	C 	0.88170 0.67340 0.10260 0.05700
C 	C 	0.86094 0.62720 0.06470 -0.10500
H 	H 	0.88550 0.61210 0.05400 0.06700
C 	C 	0.81720 0.54440 0.98160 -0.01400
H 	H 	0.85470 0.55610 0.99610 0.05000
C 	C 	0.79794 0.50670 0.93810 -0.06700
C 	C 	0.83830 0.48740 0.91660 0.31100
O 	O 	0.81215 0.08230 0.49074 -0.41300
O 	O 	0.78827 0.10824 0.56396 -0.42100
O 	O 	0.54871 0.82636 0.27923 -0.39000
O 	O 	0.49551 0.79889 0.20449 -0.38800
C 	C 	0.77627 0.08573 0.52113 0.38800
C 	C 	0.71627 0.06769 0.49693 -0.13800
C 	C 	0.70407 0.04853 0.44913 0.08500
H 	H 	0.73337 0.04743 0.42843 0.01900
C 	C 	0.65127 0.03073 0.42993 -0.13900
H 	H 	0.64407 0.01833 0.39503 0.07900
C 	C 	0.60607 0.02943 0.45773 0.07200
C 	C 	0.61837 0.05053 0.50483 -0.12500
H 	H 	0.58907 0.05243 0.52483 0.08200
C 	C 	0.67457 0.07023 0.52553 0.06400
H 	H 	0.68327 0.08523 0.55963 0.02500
C 	C 	0.54837 0.00673 0.43593 0.05700
C 	C 	0.52761 0.96053 0.39803 -0.10500
H 	H 	0.55217 0.94543 0.38733 0.06700
C 	C 	0.48387 0.87773 0.31493 -0.01600
H 	H 	0.52137 0.88943 0.32943 0.05000
C 	C 	0.46461 0.84003 0.27143 -0.06700
C 	C 	0.50497 0.82073 0.24993 0.31100
O 	O 	0.47881 0.41564 0.82408 -0.41300
O 	O 	0.45493 0.44158 0.89730 -0.42100
O 	O 	0.21537 0.15970 0.61257 -0.39000
O 	O 	0.16217 0.13223 0.53783 -0.38800
C 	C 	0.44293 0.41907 0.85447 0.38800
C 	C 	0.38293 0.40103 0.83027 -0.13800
C 	C 	0.37073 0.38187 0.78247 0.08500
H 	H 	0.40003 0.38077 0.76177 0.01900
C 	C 	0.31793 0.36407 0.76327 -0.13900
H 	H 	0.31073 0.35167 0.72837 0.07900
C 	C 	0.27273 0.36277 0.79107 0.07300
C 	C 	0.28503 0.38387 0.83817 -0.12600
H 	H 	0.25573 0.38577 0.85817 0.08200
C 	C 	0.34123 0.40357 0.85887 0.06500
H 	H 	0.34993 0.41857 0.89297 0.02500
C 	C 	0.21503 0.34007 0.76927 0.05500
C 	C 	0.19427 0.29387 0.73137 -0.10300
H 	H 	0.21883 0.27877 0.72067 0.06700
C 	C 	0.15053 0.21107 0.64827 -0.01600
H 	H 	0.18803 0.22277 0.66277 0.05000
C 	C 	0.13127 0.17337 0.60477 -0.06700
C 	C 	0.17163 0.15407 0.58327 0.31100
O 	O 	0.60349 0.85452 0.15741 -0.41300
O 	O 	0.65331 0.87840 0.23063 -0.42000
O 	O 	0.61099 0.11796 0.94590 -0.39000
O 	O 	0.63672 0.17116 0.87116 -0.38800
C 	C 	0.64280 0.89040 0.18780 0.38700
C 	C 	0.68476 0.95040 0.16360 -0.13400
C 	C 	0.67780 0.96260 0.11580 0.08000
H 	H 	0.64740 0.93330 0.09510 0.02000
C 	C 	0.71280 0.01540 0.09660 -0.13400
H 	H 	0.70760 0.02260 0.06170 0.07700
C 	C 	0.75670 0.06060 0.12440 0.06900
C 	C 	0.76550 0.04830 0.17150 -0.12100
H 	H 	0.79670 0.07760 0.19150 0.08100
C 	C 	0.72900 0.99210 0.19220 0.06000
H 	H 	0.73530 0.98340 0.22630 0.02600
C 	C 	0.79170 0.11830 0.10260 0.05700
C 	C 	0.76626 0.13906 0.06470 -0.10500
H 	H 	0.72660 0.11450 0.05400 0.06700
C 	C 	0.72720 0.18280 0.98160 -0.01400
H 	H 	0.70140 0.14530 0.99610 0.05000
C 	C 	0.70876 0.20206 0.93810 -0.06700
C 	C 	0.64910 0.16170 0.91660 0.31100
O 	O 	0.27016 0.18785 0.49074 -0.41300
O 	O 	0.31998 0.21173 0.56396 -0.42100
O 	O 	0.27766 0.45129 0.27923 -0.39000
O 	O 	0.30339 0.50449 0.20449 -0.38800
C 	C 	0.30947 0.22373 0.52113 0.38800
C 	C 	0.35143 0.28373 0.49693 -0.13800
C 	C 	0.34447 0.29593 0.44913 0.08500
H 	H 	0.31407 0.26663 0.42843 0.01800
C 	C 	0.37947 0.34873 0.42993 -0.14000
H 	H 	0.37427 0.35593 0.39503 0.07900
C 	C 	0.42337 0.39393 0.45773 0.07300
C 	C 	0.43217 0.38163 0.50483 -0.12600
H 	H 	0.46337 0.41093 0.52483 0.08200
C 	C 	0.39567 0.32543 0.52553 0.06500
H 	H 	0.40197 0.31673 0.55963 0.02500
C 	C 	0.45837 0.45163 0.43593 0.05500
C 	C 	0.43293 0.47239 0.39803 -0.10300
H 	H 	0.39327 0.44783 0.38733 0.06600
C 	C 	0.39387 0.51613 0.31493 -0.01700
H 	H 	0.36807 0.47863 0.32943 0.05000
C 	C 	0.37543 0.53539 0.27143 -0.06600
C 	C 	0.31577 0.49503 0.24993 0.31100
O 	O 	0.93682 0.52119 0.82408 -0.41300
O 	O 	0.98664 0.54507 0.89730 -0.42000
O 	O 	0.94432 0.78463 0.61257 -0.39000
O 	O 	0.97005 0.83783 0.53783 -0.38800
C 	C 	0.97613 0.55707 0.85447 0.38900
C 	C 	0.01809 0.61707 0.83027 -0.13800
C 	C 	0.01113 0.62927 0.78247 0.08300
H 	H 	0.98073 0.59997 0.76177 0.02000
C 	C 	0.04613 0.68207 0.76327 -0.13800
H 	H 	0.04093 0.68927 0.72837 0.07800
C 	C 	0.09003 0.72727 0.79107 0.07200
C 	C 	0.09883 0.71497 0.83817 -0.12500
H 	H 	0.13003 0.74427 0.85817 0.08200
C 	C 	0.06233 0.65877 0.85887 0.06400
H 	H 	0.06863 0.65007 0.89297 0.02500
C 	C 	0.12503 0.78497 0.76927 0.05600
C 	C 	0.09959 0.80573 0.73137 -0.10400
H 	H 	0.05993 0.78117 0.72067 0.06700
C 	C 	0.06053 0.84947 0.64827 -0.01600
H 	H 	0.03473 0.81197 0.66277 0.04900
C 	C 	0.04209 0.86873 0.60477 -0.06800
C 	C 	0.98243 0.82837 0.58327 0.31200
O 	O 	0.25103 0.39651 0.15741 -0.41300
O 	O 	0.22509 0.34669 0.23063 -0.42100
O 	O 	0.50697 0.38901 0.94590 -0.39000
O 	O 	0.53444 0.36328 0.87116 -0.38800
C 	C 	0.24760 0.35720 0.18780 0.38800
C 	C 	0.26564 0.31524 0.16360 -0.13800
C 	C 	0.28480 0.32220 0.11580 0.08500
H 	H 	0.28590 0.35260 0.09510 0.01800
C 	C 	0.30260 0.28720 0.09660 -0.13900
H 	H 	0.31500 0.29240 0.06170 0.07800
C 	C 	0.30390 0.24330 0.12440 0.07300
C 	C 	0.28280 0.23450 0.17150 -0.12600
H 	H 	0.28090 0.20330 0.19150 0.08200
C 	C 	0.26310 0.27100 0.19220 0.06500
H 	H 	0.24810 0.26470 0.22630 0.02500
C 	C 	0.32660 0.20830 0.10260 0.05500
C 	C 	0.37280 0.23374 0.06470 -0.10400
H 	H 	0.38790 0.27340 0.05400 0.06700
C 	C 	0.45560 0.27280 0.98160 -0.01400
H 	H 	0.44390 0.29860 0.99610 0.04900
C 	C 	0.49330 0.29124 0.93810 -0.06800
C 	C 	0.51260 0.35090 0.91660 0.31100
O 	O 	0.91770 0.72984 0.49074 -0.41300
O 	O 	0.89176 0.68002 0.56396 -0.42100
O 	O 	0.17364 0.72234 0.27923 -0.39000
O 	O 	0.20111 0.69661 0.20449 -0.38800
C 	C 	0.91427 0.69053 0.52113 0.38800
C 	C 	0.93231 0.64857 0.49693 -0.13800
C 	C 	0.95147 0.65553 0.44913 0.08500
H 	H 	0.95257 0.68593 0.42843 0.01900
C 	C 	0.96927 0.62053 0.42993 -0.13900
H 	H 	0.98167 0.62573 0.39503 0.07900
C 	C 	0.97057 0.57663 0.45773 0.07200
C 	C 	0.94947 0.56783 0.50483 -0.12600
H 	H 	0.94757 0.53663 0.52483 0.08200
C 	C 	0.92977 0.60433 0.52553 0.06400
H 	H 	0.91477 0.59803 0.55963 0.02500
C 	C 	0.99327 0.54163 0.43593 0.05700
C 	C 	0.03947 0.56707 0.39803 -0.10500
H 	H 	0.05457 0.60673 0.38733 0.06700
C 	C 	0.12227 0.60613 0.31493 -0.01600
H 	H 	0.11057 0.63193 0.32943 0.05000
C 	C 	0.15997 0.62457 0.27143 -0.06700
C 	C 	0.17927 0.68423 0.24993 0.31100
O 	O 	0.58436 0.06318 0.82408 -0.41300
O 	O 	0.55842 0.01336 0.89730 -0.42000
O 	O 	0.84030 0.05568 0.61257 -0.39000
O 	O 	0.86777 0.02995 0.53783 -0.38800
C 	C 	0.58093 0.02387 0.85447 0.38900
C 	C 	0.59897 0.98191 0.83027 -0.13800
C 	C 	0.61813 0.98887 0.78247 0.08300
H 	H 	0.61923 0.01927 0.76177 0.02000
C 	C 	0.63593 0.95387 0.76327 -0.13800
H 	H 	0.64833 0.95907 0.72837 0.07800
C 	C 	0.63723 0.90997 0.79107 0.07200
C 	C 	0.61613 0.90117 0.83817 -0.12500
H 	H 	0.61423 0.86997 0.85817 0.08200
C 	C 	0.59643 0.93767 0.85887 0.06400
H 	H 	0.58143 0.93137 0.89297 0.02500
C 	C 	0.65993 0.87497 0.76927 0.05600
C 	C 	0.70613 0.90041 0.73137 -0.10400
H 	H 	0.72123 0.94007 0.72067 0.06600
C 	C 	0.78893 0.93947 0.64827 -0.01600
H 	H 	0.77723 0.96527 0.66277 0.05000
C 	C 	0.82663 0.95791 0.60477 -0.06800
C 	C 	0.84593 0.01757 0.58327 0.31200
Cu	Cu	0.22750 0.77250 0.17367 0.90900
Cu	Cu	0.19787 0.80213 0.26203 0.91400
Cu	Cu	0.89417 0.10583 0.50700 0.90900
Cu	Cu	0.86454 0.13546 0.59536 0.91400
Cu	Cu	0.56084 0.43916 0.84034 0.90900
Cu	Cu	0.53121 0.46879 0.92870 0.91400
Cu	Cu	0.22750 0.45501 0.17367 0.90900
Cu	Cu	0.19787 0.39575 0.26203 0.91400
Cu	Cu	0.89417 0.78834 0.50700 0.90900
Cu	Cu	0.86454 0.72908 0.59536 0.91400
Cu	Cu	0.56084 0.12167 0.84034 0.90900
Cu	Cu	0.53121 0.06241 0.92870 0.91400
Cu	Cu	0.54499 0.77250 0.17367 0.90900
Cu	Cu	0.60425 0.80213 0.26203 0.91400
Cu	Cu	0.21166 0.10583 0.50700 0.90900
Cu	Cu	0.27092 0.13546 0.59536 0.91400
Cu	Cu	0.87833 0.43916 0.84034 0.90900
Cu	Cu	0.93759 0.46879 0.92870 0.91400
N 	N 	0.30740 0.15370 0.12260 -0.12200
C 	C 	0.39650 0.19825 0.04280 0.05800
C 	C 	0.43570 0.21785 0.00330 -0.01900
C 	C 	0.51060 0.25530 0.91340 0.01400
H 	H 	0.53250 0.26625 0.88230 0.05600
N 	N 	0.97407 0.48703 0.45593 -0.12200
C 	C 	0.06317 0.53158 0.37613 0.05700
C 	C 	0.10237 0.55118 0.33663 -0.01600
C 	C 	0.17727 0.58863 0.24673 0.01300
H 	H 	0.19917 0.59958 0.21563 0.05600
N 	N 	0.64073 0.82037 0.78927 -0.12200
C 	C 	0.72983 0.86492 0.70947 0.05600
C 	C 	0.76903 0.88452 0.66997 -0.01600
C 	C 	0.84393 0.92197 0.58007 0.01300
H 	H 	0.86583 0.93292 0.54897 0.05600
N 	N 	0.84630 0.15370 0.12260 -0.12200
C 	C 	0.80175 0.19825 0.04280 0.05800
C 	C 	0.78215 0.21785 0.00330 -0.01900
C 	C 	0.74470 0.25530 0.91340 0.01400
H 	H 	0.73375 0.26625 0.88230 0.05600
N 	N 	0.51297 0.48703 0.45593 -0.12100
C 	C 	0.46842 0.53158 0.37613 0.05600
C 	C 	0.44882 0.55118 0.33663 -0.01600
C 	C 	0.41137 0.58863 0.24673 0.01200
H 	H 	0.40042 0.59958 0.21563 0.05600
N 	N 	0.17963 0.82037 0.78927 -0.12200
C 	C 	0.13508 0.86492 0.70947 0.05700
C 	C 	0.11548 0.88452 0.66997 -0.01700
C 	C 	0.07803 0.92197 0.58007 0.01400
H 	H 	0.06708 0.93292 0.54897 0.05500
N 	N 	0.84630 0.69260 0.12260 -0.12200
C 	C 	0.80175 0.60350 0.04280 0.05800
C 	C 	0.78215 0.56430 0.00330 -0.01900
C 	C 	0.74470 0.48940 0.91340 0.01400
H 	H 	0.73375 0.46750 0.88230 0.05600
N 	N 	0.51297 0.02593 0.45593 -0.12200
C 	C 	0.46842 0.93683 0.37613 0.05700
C 	C 	0.44882 0.89763 0.33663 -0.01600
C 	C 	0.41137 0.82273 0.24673 0.01300
H 	H 	0.40042 0.80083 0.21563 0.05600
N 	N 	0.17963 0.35927 0.78927 -0.12200
C 	C 	0.13508 0.27017 0.70947 0.05600
C 	C 	0.11548 0.23097 0.66997 -0.01600
C 	C 	0.07803 0.15607 0.58007 0.01300
H 	H 	0.06708 0.13417 0.54897 0.05600
