data_crystal

_cell_length_a 26.29280
_cell_length_b 26.29280
_cell_length_c 26.03600
_cell_angle_alpha 90.00000
_cell_angle_beta  90.00000
_cell_angle_gamma 120.00000

_symmetry_space_group_name_	'P 1'
_symmetry_space_group_name_H-M	'P 1'

loop_
_symmetry_equiv_pos_as_xyz
  x,y,z

loop_
_atom_site_label
_atom_site_type_symbol
_atom_site_fract_x
_atom_site_fract_y
_atom_site_fract_z
_atom_site_charge
O 	O 	0.44130 0.45439 0.61024 -0.41800
O 	O 	0.13230 0.16110 0.96781 -0.40700
O 	O 	0.15880 0.21306 0.89508 -0.41800
O 	O 	0.41600 0.47951 0.68316 -0.42200
C 	C 	0.17380 0.13230 0.90220 -0.10500
C 	C 	0.20820 0.14910 0.86030 0.01900
H 	H 	0.21850 0.18600 0.84550 0.03900
C 	C 	0.15320 0.17220 0.92330 0.37200
C 	C 	0.35920 0.31530 0.74170 -0.10300
H 	H 	0.34440 0.30700 0.77580 0.06500
C 	C 	0.42100 0.44430 0.65420 0.38700
C 	C 	0.37760 0.37020 0.72360 0.04900
H 	H 	0.37350 0.39810 0.74380 0.03000
C 	C 	0.29550 0.19320 0.77400 -0.14000
H 	H 	0.27960 0.21740 0.78320 0.07900
C 	C 	0.36020 0.27120 0.71560 0.03800
C 	C 	0.40600 0.34170 0.64860 0.04400
H 	H 	0.42370 0.35100 0.61560 0.03100
C 	C 	0.40160 0.38410 0.67630 -0.11800
C 	C 	0.33910 0.21280 0.73870 0.09000
C 	C 	0.38510 0.28670 0.66830 -0.09800
H 	H 	0.38810 0.25810 0.64820 0.07200
O 	O 	0.10797 0.78772 0.94357 -0.41200
O 	O 	0.79897 0.49443 0.30114 -0.40300
O 	O 	0.82547 0.54639 0.22841 -0.41700
O 	O 	0.08267 0.81284 0.01649 -0.41100
C 	C 	0.84047 0.46563 0.23553 -0.10500
C 	C 	0.87487 0.48243 0.19363 0.02100
H 	H 	0.88517 0.51933 0.17883 0.03900
C 	C 	0.81987 0.50553 0.25663 0.37200
C 	C 	0.02587 0.64863 0.07503 -0.06900
H 	H 	0.01107 0.64033 0.10913 0.05500
C 	C 	0.08767 0.77763 0.98753 0.36100
C 	C 	0.04427 0.70353 0.05693 0.01300
H 	H 	0.04017 0.73143 0.07713 0.04200
C 	C 	0.96217 0.52653 0.10733 -0.14700
H 	H 	0.94627 0.55073 0.11653 0.08300
C 	C 	0.02687 0.60453 0.04893 0.00600
C 	C 	0.07267 0.67503 0.98193 -0.01100
H 	H 	0.09037 0.68433 0.94893 0.04800
C 	C 	0.06827 0.71743 0.00963 -0.07500
C 	C 	0.00577 0.54613 0.07203 0.10300
C 	C 	0.05177 0.62003 0.00163 -0.04300
H 	H 	0.05477 0.59143 0.98153 0.05000
O 	O 	0.77463 0.12106 0.27691 -0.41700
O 	O 	0.46563 0.82777 0.63448 -0.40400
O 	O 	0.49213 0.87973 0.56175 -0.41700
O 	O 	0.74933 0.14618 0.34983 -0.42200
C 	C 	0.50713 0.79897 0.56887 -0.10500
C 	C 	0.54153 0.81577 0.52697 0.01900
H 	H 	0.55183 0.85267 0.51217 0.03900
C 	C 	0.48653 0.83887 0.58997 0.37200
C 	C 	0.69253 0.98197 0.40837 -0.11000
H 	H 	0.67773 0.97367 0.44247 0.06700
C 	C 	0.75433 0.11097 0.32087 0.38800
C 	C 	0.71093 0.03687 0.39027 0.05600
H 	H 	0.70683 0.06477 0.41047 0.02800
C 	C 	0.62883 0.85987 0.44067 -0.13900
H 	H 	0.61293 0.88407 0.44987 0.07900
C 	C 	0.69353 0.93787 0.38227 0.04300
C 	C 	0.73933 0.00837 0.31527 0.05100
H 	H 	0.75703 0.01767 0.28227 0.03000
C 	C 	0.73493 0.05077 0.34297 -0.12200
C 	C 	0.67243 0.87947 0.40537 0.08800
C 	C 	0.71843 0.95337 0.33497 -0.10500
H 	H 	0.72143 0.92477 0.31487 0.07400
O 	O 	0.54561 0.98691 0.61024 -0.41700
O 	O 	0.83890 0.97120 0.96781 -0.40600
O 	O 	0.78694 0.94574 0.89508 -0.41800
O 	O 	0.52049 0.93649 0.68316 -0.42200
C 	C 	0.86770 0.04150 0.90220 -0.10200
C 	C 	0.85090 0.05910 0.86030 0.01800
H 	H 	0.81400 0.03250 0.84550 0.04000
C 	C 	0.82780 0.98100 0.92330 0.37000
C 	C 	0.68470 0.04390 0.74170 -0.10500
H 	H 	0.69300 0.03740 0.77580 0.06600
C 	C 	0.55570 0.97670 0.65420 0.38600
C 	C 	0.62980 0.00740 0.72360 0.05300
H 	H 	0.60190 0.97540 0.74380 0.02700
C 	C 	0.80680 0.10230 0.77400 -0.13900
H 	H 	0.78260 0.06220 0.78320 0.07900
C 	C 	0.72880 0.08900 0.71560 0.04000
C 	C 	0.65830 0.06430 0.64860 0.04500
H 	H 	0.64900 0.07270 0.61560 0.03100
C 	C 	0.61590 0.01750 0.67630 -0.11800
C 	C 	0.78720 0.12630 0.73870 0.08900
C 	C 	0.71330 0.09840 0.66830 -0.09900
H 	H 	0.74190 0.13000 0.64820 0.07200
O 	O 	0.21228 0.32024 0.94357 -0.41200
O 	O 	0.50557 0.30453 0.30114 -0.40300
O 	O 	0.45361 0.27907 0.22841 -0.41700
O 	O 	0.18716 0.26982 0.01649 -0.41100
C 	C 	0.53437 0.37483 0.23553 -0.10600
C 	C 	0.51757 0.39243 0.19363 0.02200
H 	H 	0.48067 0.36583 0.17883 0.03900
C 	C 	0.49447 0.31433 0.25663 0.37200
C 	C 	0.35137 0.37723 0.07503 -0.06800
H 	H 	0.35967 0.37073 0.10913 0.05500
C 	C 	0.22237 0.31003 0.98753 0.36100
C 	C 	0.29647 0.34073 0.05693 0.01200
H 	H 	0.26857 0.30873 0.07713 0.04300
C 	C 	0.47347 0.43563 0.10733 -0.15000
H 	H 	0.44927 0.39553 0.11653 0.08400
C 	C 	0.39547 0.42233 0.04893 0.00500
C 	C 	0.32497 0.39763 0.98193 -0.01100
H 	H 	0.31567 0.40603 0.94893 0.04900
C 	C 	0.28257 0.35083 0.00963 -0.07400
C 	C 	0.45387 0.45963 0.07203 0.10600
C 	C 	0.37997 0.43173 0.00163 -0.04200
H 	H 	0.40857 0.46333 0.98153 0.05000
O 	O 	0.87894 0.65358 0.27691 -0.41700
O 	O 	0.17223 0.63787 0.63448 -0.40400
O 	O 	0.12027 0.61241 0.56175 -0.41700
O 	O 	0.85382 0.60316 0.34983 -0.42200
C 	C 	0.20103 0.70817 0.56887 -0.10500
C 	C 	0.18423 0.72577 0.52697 0.01900
H 	H 	0.14733 0.69917 0.51217 0.04000
C 	C 	0.16113 0.64767 0.58997 0.37200
C 	C 	0.01803 0.71057 0.40837 -0.11000
H 	H 	0.02633 0.70407 0.44247 0.06800
C 	C 	0.88903 0.64337 0.32087 0.38800
C 	C 	0.96313 0.67407 0.39027 0.05600
H 	H 	0.93523 0.64207 0.41047 0.02800
C 	C 	0.14013 0.76897 0.44067 -0.13900
H 	H 	0.11593 0.72887 0.44987 0.07800
C 	C 	0.06213 0.75567 0.38227 0.04400
C 	C 	0.99163 0.73097 0.31527 0.05100
H 	H 	0.98233 0.73937 0.28227 0.03000
C 	C 	0.94923 0.68417 0.34297 -0.12200
C 	C 	0.12053 0.79297 0.40537 0.08800
C 	C 	0.04663 0.76507 0.33497 -0.10500
H 	H 	0.07523 0.79667 0.31487 0.07400
O 	O 	0.01309 0.55870 0.61024 -0.41700
O 	O 	0.02880 0.86770 0.96781 -0.40600
O 	O 	0.05426 0.84120 0.89508 -0.41800
O 	O 	0.06351 0.58400 0.68316 -0.42200
C 	C 	0.95850 0.82620 0.90220 -0.10300
C 	C 	0.94090 0.79180 0.86030 0.01800
H 	H 	0.96750 0.78150 0.84550 0.04000
C 	C 	0.01900 0.84680 0.92330 0.37000
C 	C 	0.95610 0.64080 0.74170 -0.10500
H 	H 	0.96260 0.65560 0.77580 0.06600
C 	C 	0.02330 0.57900 0.65420 0.38600
C 	C 	0.99260 0.62240 0.72360 0.05300
H 	H 	0.02460 0.62650 0.74380 0.02700
C 	C 	0.89770 0.70450 0.77400 -0.14000
H 	H 	0.93780 0.72040 0.78320 0.07900
C 	C 	0.91100 0.63980 0.71560 0.04000
C 	C 	0.93570 0.59400 0.64860 0.04500
H 	H 	0.92730 0.57630 0.61560 0.03100
C 	C 	0.98250 0.59840 0.67630 -0.11800
C 	C 	0.87370 0.66090 0.73870 0.08900
C 	C 	0.90160 0.61490 0.66830 -0.09900
H 	H 	0.87000 0.61190 0.64820 0.07200
O 	O 	0.67976 0.89203 0.94357 -0.41200
O 	O 	0.69547 0.20103 0.30114 -0.40300
O 	O 	0.72093 0.17453 0.22841 -0.41700
O 	O 	0.73018 0.91733 0.01649 -0.41100
C 	C 	0.62517 0.15953 0.23553 -0.10500
C 	C 	0.60757 0.12513 0.19363 0.02100
H 	H 	0.63417 0.11483 0.17883 0.03900
C 	C 	0.68567 0.18013 0.25663 0.37200
C 	C 	0.62277 0.97413 0.07503 -0.06900
H 	H 	0.62927 0.98893 0.10913 0.05500
C 	C 	0.68997 0.91233 0.98753 0.36100
C 	C 	0.65927 0.95573 0.05693 0.01300
H 	H 	0.69127 0.95983 0.07713 0.04200
C 	C 	0.56437 0.03783 0.10733 -0.14700
H 	H 	0.60447 0.05373 0.11653 0.08300
C 	C 	0.57767 0.97313 0.04893 0.00600
C 	C 	0.60237 0.92733 0.98193 -0.01100
H 	H 	0.59397 0.90963 0.94893 0.04800
C 	C 	0.64917 0.93173 0.00963 -0.07500
C 	C 	0.54037 0.99423 0.07203 0.10300
C 	C 	0.56827 0.94823 0.00163 -0.04300
H 	H 	0.53667 0.94523 0.98153 0.05000
O 	O 	0.34642 0.22537 0.27691 -0.41700
O 	O 	0.36213 0.53437 0.63448 -0.40300
O 	O 	0.38759 0.50787 0.56175 -0.41700
O 	O 	0.39684 0.25067 0.34983 -0.42100
C 	C 	0.29183 0.49287 0.56887 -0.10500
C 	C 	0.27423 0.45847 0.52697 0.01900
H 	H 	0.30083 0.44817 0.51217 0.04000
C 	C 	0.35233 0.51347 0.58997 0.37200
C 	C 	0.28943 0.30747 0.40837 -0.10300
H 	H 	0.29593 0.32227 0.44247 0.06600
C 	C 	0.35663 0.24567 0.32087 0.38600
C 	C 	0.32593 0.28907 0.39027 0.04900
H 	H 	0.35793 0.29317 0.41047 0.03000
C 	C 	0.23103 0.37117 0.44067 -0.14000
H 	H 	0.27113 0.38707 0.44987 0.07900
C 	C 	0.24433 0.30647 0.38227 0.03800
C 	C 	0.26903 0.26067 0.31527 0.04400
H 	H 	0.26063 0.24297 0.28227 0.03200
C 	C 	0.31583 0.26507 0.34297 -0.11800
C 	C 	0.20703 0.32757 0.40537 0.09000
C 	C 	0.23493 0.28157 0.33497 -0.09800
H 	H 	0.20333 0.27857 0.31487 0.07200
O 	O 	0.54561 0.55870 0.61024 -0.41700
O 	O 	0.83890 0.86770 0.96781 -0.40600
O 	O 	0.78694 0.84120 0.89508 -0.41800
O 	O 	0.52049 0.58400 0.68316 -0.42200
C 	C 	0.86770 0.82620 0.90220 -0.10500
C 	C 	0.85090 0.79180 0.86030 0.01900
H 	H 	0.81400 0.78150 0.84550 0.03900
C 	C 	0.82780 0.84680 0.92330 0.37200
C 	C 	0.68470 0.64080 0.74170 -0.10300
H 	H 	0.69300 0.65560 0.77580 0.06500
C 	C 	0.55570 0.57900 0.65420 0.38700
C 	C 	0.62980 0.62240 0.72360 0.04900
H 	H 	0.60190 0.62650 0.74380 0.03000
C 	C 	0.80680 0.70450 0.77400 -0.14000
H 	H 	0.78260 0.72040 0.78320 0.07900
C 	C 	0.72880 0.63980 0.71560 0.03800
C 	C 	0.65830 0.59400 0.64860 0.04400
H 	H 	0.64900 0.57630 0.61560 0.03100
C 	C 	0.61590 0.59840 0.67630 -0.11800
C 	C 	0.78720 0.66090 0.73870 0.09000
C 	C 	0.71330 0.61490 0.66830 -0.09800
H 	H 	0.74190 0.61190 0.64820 0.07200
O 	O 	0.21228 0.89203 0.94357 -0.41200
O 	O 	0.50557 0.20103 0.30114 -0.40300
O 	O 	0.45361 0.17453 0.22841 -0.41700
O 	O 	0.18716 0.91733 0.01649 -0.41100
C 	C 	0.53437 0.15953 0.23553 -0.10500
C 	C 	0.51757 0.12513 0.19363 0.02100
H 	H 	0.48067 0.11483 0.17883 0.03900
C 	C 	0.49447 0.18013 0.25663 0.37200
C 	C 	0.35137 0.97413 0.07503 -0.06900
H 	H 	0.35967 0.98893 0.10913 0.05500
C 	C 	0.22237 0.91233 0.98753 0.36100
C 	C 	0.29647 0.95573 0.05693 0.01300
H 	H 	0.26857 0.95983 0.07713 0.04200
C 	C 	0.47347 0.03783 0.10733 -0.14700
H 	H 	0.44927 0.05373 0.11653 0.08300
C 	C 	0.39547 0.97313 0.04893 0.00600
C 	C 	0.32497 0.92733 0.98193 -0.01100
H 	H 	0.31567 0.90963 0.94893 0.04800
C 	C 	0.28257 0.93173 0.00963 -0.07500
C 	C 	0.45387 0.99423 0.07203 0.10300
C 	C 	0.37997 0.94823 0.00163 -0.04300
H 	H 	0.40857 0.94523 0.98153 0.05000
O 	O 	0.87894 0.22537 0.27691 -0.41700
O 	O 	0.17223 0.53437 0.63448 -0.40400
O 	O 	0.12027 0.50787 0.56175 -0.41700
O 	O 	0.85382 0.25067 0.34983 -0.42200
C 	C 	0.20103 0.49287 0.56887 -0.10500
C 	C 	0.18423 0.45847 0.52697 0.01900
H 	H 	0.14733 0.44817 0.51217 0.03900
C 	C 	0.16113 0.51347 0.58997 0.37200
C 	C 	0.01803 0.30747 0.40837 -0.11000
H 	H 	0.02633 0.32227 0.44247 0.06700
C 	C 	0.88903 0.24567 0.32087 0.38800
C 	C 	0.96313 0.28907 0.39027 0.05600
H 	H 	0.93523 0.29317 0.41047 0.02800
C 	C 	0.14013 0.37117 0.44067 -0.13900
H 	H 	0.11593 0.38707 0.44987 0.07900
C 	C 	0.06213 0.30647 0.38227 0.04300
C 	C 	0.99163 0.26067 0.31527 0.05100
H 	H 	0.98233 0.24297 0.28227 0.03000
C 	C 	0.94923 0.26507 0.34297 -0.12200
C 	C 	0.12053 0.32757 0.40537 0.08800
C 	C 	0.04663 0.28157 0.33497 -0.10500
H 	H 	0.07523 0.27857 0.31487 0.07400
O 	O 	0.01309 0.45439 0.61024 -0.41700
O 	O 	0.02880 0.16110 0.96781 -0.40600
O 	O 	0.05426 0.21306 0.89508 -0.41800
O 	O 	0.06351 0.47951 0.68316 -0.42200
C 	C 	0.95850 0.13230 0.90220 -0.10200
C 	C 	0.94090 0.14910 0.86030 0.01800
H 	H 	0.96750 0.18600 0.84550 0.04000
C 	C 	0.01900 0.17220 0.92330 0.37000
C 	C 	0.95610 0.31530 0.74170 -0.10500
H 	H 	0.96260 0.30700 0.77580 0.06600
C 	C 	0.02330 0.44430 0.65420 0.38600
C 	C 	0.99260 0.37020 0.72360 0.05300
H 	H 	0.02460 0.39810 0.74380 0.02700
C 	C 	0.89770 0.19320 0.77400 -0.13900
H 	H 	0.93780 0.21740 0.78320 0.07900
C 	C 	0.91100 0.27120 0.71560 0.04000
C 	C 	0.93570 0.34170 0.64860 0.04500
H 	H 	0.92730 0.35100 0.61560 0.03100
C 	C 	0.98250 0.38410 0.67630 -0.11800
C 	C 	0.87370 0.21280 0.73870 0.08900
C 	C 	0.90160 0.28670 0.66830 -0.09900
H 	H 	0.87000 0.25810 0.64820 0.07200
O 	O 	0.67976 0.78772 0.94357 -0.41200
O 	O 	0.69547 0.49443 0.30114 -0.40300
O 	O 	0.72093 0.54639 0.22841 -0.41700
O 	O 	0.73018 0.81284 0.01649 -0.41100
C 	C 	0.62517 0.46563 0.23553 -0.10600
C 	C 	0.60757 0.48243 0.19363 0.02200
H 	H 	0.63417 0.51933 0.17883 0.03900
C 	C 	0.68567 0.50553 0.25663 0.37200
C 	C 	0.62277 0.64863 0.07503 -0.06800
H 	H 	0.62927 0.64033 0.10913 0.05500
C 	C 	0.68997 0.77763 0.98753 0.36100
C 	C 	0.65927 0.70353 0.05693 0.01200
H 	H 	0.69127 0.73143 0.07713 0.04300
C 	C 	0.56437 0.52653 0.10733 -0.15000
H 	H 	0.60447 0.55073 0.11653 0.08400
C 	C 	0.57767 0.60453 0.04893 0.00500
C 	C 	0.60237 0.67503 0.98193 -0.01100
H 	H 	0.59397 0.68433 0.94893 0.04900
C 	C 	0.64917 0.71743 0.00963 -0.07400
C 	C 	0.54037 0.54613 0.07203 0.10600
C 	C 	0.56827 0.62003 0.00163 -0.04200
H 	H 	0.53667 0.59143 0.98153 0.05000
O 	O 	0.34642 0.12106 0.27691 -0.41700
O 	O 	0.36213 0.82777 0.63448 -0.40400
O 	O 	0.38759 0.87973 0.56175 -0.41700
O 	O 	0.39684 0.14618 0.34983 -0.42200
C 	C 	0.29183 0.79897 0.56887 -0.10500
C 	C 	0.27423 0.81577 0.52697 0.01900
H 	H 	0.30083 0.85267 0.51217 0.04000
C 	C 	0.35233 0.83887 0.58997 0.37200
C 	C 	0.28943 0.98197 0.40837 -0.11000
H 	H 	0.29593 0.97367 0.44247 0.06800
C 	C 	0.35663 0.11097 0.32087 0.38800
C 	C 	0.32593 0.03687 0.39027 0.05600
H 	H 	0.35793 0.06477 0.41047 0.02800
C 	C 	0.23103 0.85987 0.44067 -0.13900
H 	H 	0.27113 0.88407 0.44987 0.07800
C 	C 	0.24433 0.93787 0.38227 0.04400
C 	C 	0.26903 0.00837 0.31527 0.05100
H 	H 	0.26063 0.01767 0.28227 0.03000
C 	C 	0.31583 0.05077 0.34297 -0.12200
C 	C 	0.20703 0.87947 0.40537 0.08800
C 	C 	0.23493 0.95337 0.33497 -0.10500
H 	H 	0.20333 0.92477 0.31487 0.07400
O 	O 	0.44130 0.98691 0.61024 -0.41700
O 	O 	0.13230 0.97120 0.96781 -0.40600
O 	O 	0.15880 0.94574 0.89508 -0.41800
O 	O 	0.41600 0.93649 0.68316 -0.42200
C 	C 	0.17380 0.04150 0.90220 -0.10300
C 	C 	0.20820 0.05910 0.86030 0.01800
H 	H 	0.21850 0.03250 0.84550 0.04000
C 	C 	0.15320 0.98100 0.92330 0.37000
C 	C 	0.35920 0.04390 0.74170 -0.10500
H 	H 	0.34440 0.03740 0.77580 0.06600
C 	C 	0.42100 0.97670 0.65420 0.38600
C 	C 	0.37760 0.00740 0.72360 0.05300
H 	H 	0.37350 0.97540 0.74380 0.02700
C 	C 	0.29550 0.10230 0.77400 -0.14000
H 	H 	0.27960 0.06220 0.78320 0.07900
C 	C 	0.36020 0.08900 0.71560 0.04000
C 	C 	0.40600 0.06430 0.64860 0.04500
H 	H 	0.42370 0.07270 0.61560 0.03100
C 	C 	0.40160 0.01750 0.67630 -0.11800
C 	C 	0.33910 0.12630 0.73870 0.08900
C 	C 	0.38510 0.09840 0.66830 -0.09900
H 	H 	0.38810 0.13000 0.64820 0.07200
O 	O 	0.10797 0.32024 0.94357 -0.41200
O 	O 	0.79897 0.30453 0.30114 -0.40300
O 	O 	0.82547 0.27907 0.22841 -0.41700
O 	O 	0.08267 0.26982 0.01649 -0.41100
C 	C 	0.84047 0.37483 0.23553 -0.10500
C 	C 	0.87487 0.39243 0.19363 0.02100
H 	H 	0.88517 0.36583 0.17883 0.03900
C 	C 	0.81987 0.31433 0.25663 0.37200
C 	C 	0.02587 0.37723 0.07503 -0.06900
H 	H 	0.01107 0.37073 0.10913 0.05500
C 	C 	0.08767 0.31003 0.98753 0.36100
C 	C 	0.04427 0.34073 0.05693 0.01300
H 	H 	0.04017 0.30873 0.07713 0.04200
C 	C 	0.96217 0.43563 0.10733 -0.14700
H 	H 	0.94627 0.39553 0.11653 0.08300
C 	C 	0.02687 0.42233 0.04893 0.00600
C 	C 	0.07267 0.39763 0.98193 -0.01100
H 	H 	0.09037 0.40603 0.94893 0.04800
C 	C 	0.06827 0.35083 0.00963 -0.07500
C 	C 	0.00577 0.45963 0.07203 0.10300
C 	C 	0.05177 0.43173 0.00163 -0.04300
H 	H 	0.05477 0.46333 0.98153 0.05000
O 	O 	0.77463 0.65358 0.27691 -0.41700
O 	O 	0.46563 0.63787 0.63448 -0.40300
O 	O 	0.49213 0.61241 0.56175 -0.41700
O 	O 	0.74933 0.60316 0.34983 -0.42100
C 	C 	0.50713 0.70817 0.56887 -0.10500
C 	C 	0.54153 0.72577 0.52697 0.01900
H 	H 	0.55183 0.69917 0.51217 0.04000
C 	C 	0.48653 0.64767 0.58997 0.37200
C 	C 	0.69253 0.71057 0.40837 -0.10300
H 	H 	0.67773 0.70407 0.44247 0.06600
C 	C 	0.75433 0.64337 0.32087 0.38600
C 	C 	0.71093 0.67407 0.39027 0.04900
H 	H 	0.70683 0.64207 0.41047 0.03000
C 	C 	0.62883 0.76897 0.44067 -0.14000
H 	H 	0.61293 0.72887 0.44987 0.07900
C 	C 	0.69353 0.75567 0.38227 0.03800
C 	C 	0.73933 0.73097 0.31527 0.04400
H 	H 	0.75703 0.73937 0.28227 0.03200
C 	C 	0.73493 0.68417 0.34297 -0.11800
C 	C 	0.67243 0.79297 0.40537 0.09000
C 	C 	0.71843 0.76507 0.33497 -0.09800
H 	H 	0.72143 0.79667 0.31487 0.07200
Cu	Cu	0.43931 0.56069 0.66675 0.90500
Cu	Cu	0.46866 0.53134 0.57881 0.90800
Cu	Cu	0.10597 0.89403 0.00008 0.90700
Cu	Cu	0.13532 0.86468 0.91214 0.90700
Cu	Cu	0.77264 0.22736 0.33342 0.90600
Cu	Cu	0.80199 0.19801 0.24548 0.90800
Cu	Cu	0.43931 0.87861 0.66675 0.90500
Cu	Cu	0.46866 0.93731 0.57881 0.90800
Cu	Cu	0.10597 0.21195 0.00008 0.90800
Cu	Cu	0.13532 0.27065 0.91214 0.90700
Cu	Cu	0.77264 0.54528 0.33342 0.90500
Cu	Cu	0.80199 0.60398 0.24548 0.90800
Cu	Cu	0.12139 0.56069 0.66675 0.90500
Cu	Cu	0.06269 0.53134 0.57881 0.90800
Cu	Cu	0.78805 0.89403 0.00008 0.90800
Cu	Cu	0.72935 0.86468 0.91214 0.90700
Cu	Cu	0.45472 0.22736 0.33342 0.90500
Cu	Cu	0.39602 0.19801 0.24548 0.90800
C 	C 	0.15580 0.07790 0.92440 0.04800
H 	H 	0.13160 0.06580 0.95410 0.04500
C 	C 	0.23020 0.11510 0.83650 -0.05100
N 	N 	0.35980 0.17990 0.71950 -0.13600
C 	C 	0.27240 0.13620 0.79800 0.09000
C 	C 	0.82247 0.41123 0.25773 0.04900
H 	H 	0.79827 0.39913 0.28743 0.04500
C 	C 	0.89687 0.44843 0.16983 -0.05300
N 	N 	0.02647 0.51323 0.05283 -0.13900
C 	C 	0.93907 0.46953 0.13133 0.09600
C 	C 	0.48913 0.74457 0.59107 0.04900
H 	H 	0.46493 0.73247 0.62077 0.04500
C 	C 	0.56353 0.78177 0.50317 -0.05100
N 	N 	0.69313 0.84657 0.38617 -0.13600
C 	C 	0.60573 0.80287 0.46467 0.09000
C 	C 	0.92210 0.07790 0.92440 0.04700
H 	H 	0.93420 0.06580 0.95410 0.04600
C 	C 	0.88490 0.11510 0.83650 -0.05000
N 	N 	0.82010 0.17990 0.71950 -0.13600
C 	C 	0.86380 0.13620 0.79800 0.08900
C 	C 	0.58877 0.41123 0.25773 0.05000
H 	H 	0.60087 0.39913 0.28743 0.04500
C 	C 	0.55157 0.44843 0.16983 -0.05500
N 	N 	0.48677 0.51323 0.05283 -0.14000
C 	C 	0.53047 0.46953 0.13133 0.09800
C 	C 	0.25543 0.74457 0.59107 0.04900
H 	H 	0.26753 0.73247 0.62077 0.04500
C 	C 	0.21823 0.78177 0.50317 -0.05100
N 	N 	0.15343 0.84657 0.38617 -0.13500
C 	C 	0.19713 0.80287 0.46467 0.08900
C 	C 	0.92210 0.84420 0.92440 0.04800
H 	H 	0.93420 0.86840 0.95410 0.04500
C 	C 	0.88490 0.76980 0.83650 -0.05100
N 	N 	0.82010 0.64020 0.71950 -0.13600
C 	C 	0.86380 0.72760 0.79800 0.09000
C 	C 	0.58877 0.17753 0.25773 0.04900
H 	H 	0.60087 0.20173 0.28743 0.04500
C 	C 	0.55157 0.10313 0.16983 -0.05300
N 	N 	0.48677 0.97353 0.05283 -0.13900
C 	C 	0.53047 0.06093 0.13133 0.09600
C 	C 	0.25543 0.51087 0.59107 0.04900
H 	H 	0.26753 0.53507 0.62077 0.04500
C 	C 	0.21823 0.43647 0.50317 -0.05100
N 	N 	0.15343 0.30687 0.38617 -0.13600
C 	C 	0.19713 0.39427 0.46467 0.09000
