data_crystal

_cell_length_a 13.88200
_cell_length_b 14.73120
_cell_length_c 14.73120
_cell_angle_alpha 77.92900
_cell_angle_beta  63.41770
_cell_angle_gamma 116.58200

_symmetry_space_group_name_	'P 1'
_symmetry_space_group_name_H-M	'P 1'

loop_
_symmetry_equiv_pos_as_xyz
  x,y,z

loop_
_atom_site_label
_atom_site_type_symbol
_atom_site_fract_x
_atom_site_fract_y
_atom_site_fract_z
_atom_site_charge
Mn	Mn	0.75000 0.43520 0.93520 1.32000
Mn	Mn	0.25000 0.56480 0.06480 1.27300
Mn	Mn	-0.00000 0.50000 -0.00000 1.18800
Mn	Mn	0.50000 0.50000 -0.00000 1.20500
Si	Si	0.25000 0.20308 0.70308 0.83000
Si	Si	0.75000 0.79692 0.29692 0.69700
H 	H 	0.10190 0.02970 0.65710 -0.04200
H 	H 	0.98640 0.82850 0.72950 0.13000
H 	H 	0.04640 0.80140 0.97460 0.10900
H 	H 	0.16160 0.00220 0.90220 -0.00200
H 	H 	0.28560 0.41220 0.70480 -0.03600
H 	H 	0.14740 0.46700 0.77820 0.08800
H 	H 	0.81600 0.14590 0.89750 0.12800
H 	H 	0.95530 0.09060 0.82500 -0.02300
H 	H 	0.39810 0.15710 0.52970 -0.01300
H 	H 	0.51360 0.22950 0.32850 0.05100
H 	H 	0.45360 0.47460 0.30140 0.06700
H 	H 	0.33840 0.40220 0.50220 -0.01600
H 	H 	0.21440 0.20480 0.91220 0.01000
H 	H 	0.35260 0.27820 0.96700 0.07700
H 	H 	0.68400 0.39750 0.64590 0.08400
H 	H 	0.54470 0.32500 0.59060 -0.01200
H 	H 	0.89810 0.97030 0.34290 0.02800
H 	H 	0.01360 0.17150 0.27050 -0.01900
H 	H 	0.95360 0.19860 0.02540 0.02900
H 	H 	0.83840 0.99780 0.09780 -0.01300
H 	H 	0.71440 0.58780 0.29520 0.03300
H 	H 	0.85260 0.53300 0.22180 -0.00400
H 	H 	0.18400 0.85410 0.10250 0.00900
H 	H 	0.04470 0.90940 0.17500 0.01100
H 	H 	0.60190 0.84290 0.47030 -0.00500
H 	H 	0.48640 0.77050 0.67150 0.06400
H 	H 	0.54640 0.52540 0.69860 0.06800
H 	H 	0.66160 0.59780 0.49780 -0.00200
H 	H 	0.78560 0.79520 0.08780 -0.01700
H 	H 	0.64740 0.72180 0.03300 0.01200
H 	H 	0.31600 0.60250 0.35410 0.05900
H 	H 	0.45530 0.67500 0.40940 -0.00300
C 	C 	0.14726 0.03922 0.77022 -0.31500
C 	C 	0.09185 0.98392 0.72140 0.14400
C 	C 	0.02265 0.86384 0.76462 -0.19000
C 	C 	0.00592 0.79485 0.85865 -0.02100
C 	C 	0.05804 0.84774 0.90940 -0.11200
C 	C 	0.12703 0.96772 0.86576 0.12800
C 	C 	0.93543 0.66554 0.90412 0.38000
C 	C 	0.13497 0.24498 0.75836 -0.36800
C 	C 	0.19003 0.35743 0.74471 0.17600
C 	C 	0.10808 0.39031 0.78819 -0.20300
C 	C 	0.96807 0.31113 0.84663 0.09500
C 	C 	0.91120 0.19961 0.85931 -0.17100
C 	C 	0.99464 0.16710 0.81564 0.21900
C 	C 	0.87850 0.34491 0.89761 0.27000
C 	C 	0.35274 0.27022 0.53922 -0.29200
C 	C 	0.40815 0.22140 0.48392 0.08200
C 	C 	0.47735 0.26462 0.36384 -0.08600
C 	C 	0.49408 0.35865 0.29485 -0.05800
C 	C 	0.44196 0.40940 0.34774 -0.09500
C 	C 	0.37297 0.36576 0.46772 0.09000
C 	C 	0.56457 0.40412 0.16554 0.36200
C 	C 	0.36503 0.25836 0.74498 -0.28400
C 	C 	0.30997 0.24471 0.85743 0.09800
C 	C 	0.39192 0.28819 0.89031 -0.08900
C 	C 	0.53193 0.34663 0.81113 -0.01300
C 	C 	0.58880 0.35931 0.69961 -0.10000
C 	C 	0.50536 0.31564 0.66710 0.09900
C 	C 	0.62150 0.39761 0.84491 0.29000
C 	C 	0.85274 0.96078 0.22978 -0.21700
C 	C 	0.90815 0.01608 0.27860 -0.00900
C 	C 	0.97735 0.13616 0.23538 0.03500
C 	C 	0.99408 0.20515 0.14135 -0.07800
C 	C 	0.94196 0.15226 0.09060 -0.06000
C 	C 	0.87297 0.03228 0.13424 0.02800
C 	C 	0.06457 0.33446 0.09588 0.33300
C 	C 	0.86503 0.75502 0.24164 -0.14300
C 	C 	0.80997 0.64257 0.25529 -0.04600
C 	C 	0.89192 0.60969 0.21181 0.06900
C 	C 	0.03193 0.68887 0.15337 -0.19200
C 	C 	0.08880 0.80039 0.14069 0.01300
C 	C 	0.00536 0.83290 0.18436 -0.08800
C 	C 	0.12150 0.65509 0.10239 0.33500
C 	C 	0.64726 0.72978 0.46078 -0.24600
C 	C 	0.59185 0.77860 0.51608 0.06400
C 	C 	0.52265 0.73538 0.63616 -0.07700
C 	C 	0.50592 0.64135 0.70515 -0.04300
C 	C 	0.55804 0.59060 0.65226 -0.08000
C 	C 	0.62703 0.63424 0.53228 0.07000
C 	C 	0.43543 0.59588 0.83446 0.35600
C 	C 	0.63497 0.74164 0.25502 -0.24200
C 	C 	0.69003 0.75529 0.14257 0.04600
C 	C 	0.60808 0.71181 0.10969 -0.06500
C 	C 	0.46807 0.65337 0.18887 -0.06500
C 	C 	0.41120 0.64069 0.30039 -0.07100
C 	C 	0.49464 0.68436 0.33290 0.05400
C 	C 	0.37850 0.60239 0.15509 0.31100
O 	O 	0.87082 0.61806 0.86764 -0.43900
O 	O 	0.94326 0.61158 0.97508 -0.40100
O 	O 	0.92979 0.44155 0.89853 -0.47700
O 	O 	0.75713 0.28305 0.93493 -0.33200
O 	O 	0.62918 0.36764 0.11806 -0.52600
O 	O 	0.55674 0.47508 0.11158 -0.51900
O 	O 	0.57021 0.39853 0.94155 -0.48400
O 	O 	0.74287 0.43493 0.78305 -0.36300
O 	O 	0.12918 0.38194 0.13236 -0.49300
O 	O 	0.05674 0.38842 0.02492 -0.54400
O 	O 	0.07021 0.55845 0.10147 -0.58400
O 	O 	0.24287 0.71695 0.06507 -0.42500
O 	O 	0.37082 0.63236 0.88194 -0.40300
O 	O 	0.44326 0.52492 0.88842 -0.42900
O 	O 	0.42979 0.60147 0.05845 -0.57900
O 	O 	0.25713 0.56507 0.21695 -0.39300
