data_crystal

_cell_length_a 14.15290
_cell_length_b 23.40600
_cell_length_c 23.83250
_cell_angle_alpha 90.00000
_cell_angle_beta  90.00000
_cell_angle_gamma 90.00000

_symmetry_space_group_name_	'P 1'
_symmetry_space_group_name_H-M	'P 1'

loop_
_symmetry_equiv_pos_as_xyz
  x,y,z

loop_
_atom_site_label
_atom_site_type_symbol
_atom_site_fract_x
_atom_site_fract_y
_atom_site_fract_z
_atom_site_charge
Zn	Zn	0.43963 0.13842 0.98599 1.24900
Zn	Zn	0.06037 0.36158 0.98599 1.24300
Zn	Zn	0.06037 0.13842 0.51401 1.23300
Zn	Zn	0.43963 0.36158 0.51401 1.23900
Zn	Zn	0.56037 0.86158 0.01401 1.22800
Zn	Zn	0.93963 0.63842 0.01401 1.23600
Zn	Zn	0.93963 0.86158 0.48599 1.24600
Zn	Zn	0.56037 0.63842 0.48599 1.24000
Zn	Zn	0.00000 0.50000 -0.00000 1.21600
Zn	Zn	0.50000 0.00000 -0.00000 1.22500
Zn	Zn	0.50000 0.50000 0.50000 1.23900
Zn	Zn	0.00000 0.00000 0.50000 1.22300
Si	Si	0.43780 0.48583 0.86033 0.78200
Si	Si	0.06220 0.01417 0.86033 0.64200
Si	Si	0.06220 0.48583 0.63967 0.73100
Si	Si	0.43780 0.01417 0.63967 0.72000
Si	Si	0.56220 0.51417 0.13967 0.80200
Si	Si	0.93780 0.98583 0.13967 0.92000
Si	Si	0.93780 0.51417 0.36033 0.85300
Si	Si	0.56220 0.98583 0.36033 0.85800
H 	H 	0.28910 0.40850 0.89560 -0.00800
H 	H 	0.28120 0.31610 0.93290 0.10300
H 	H 	0.56720 0.30990 0.93930 0.09200
H 	H 	0.57510 0.40230 0.90210 -0.00900
H 	H 	0.63620 0.47160 0.82540 -0.00600
H 	H 	0.78180 0.49800 0.86230 0.08000
H 	H 	0.65080 0.60580 0.96850 0.09400
H 	H 	0.50590 0.57630 0.93560 -0.00400
H 	H 	0.29200 0.56250 0.81150 -0.00100
H 	H 	0.16190 0.61290 0.84610 0.06500
H 	H 	0.22050 0.55770 0.00170 0.01600
H 	H 	0.35380 0.51050 0.96890 0.01600
H 	H 	0.36020 0.39690 0.78700 -0.00500
H 	H 	0.35900 0.37940 0.69050 0.06800
H 	H 	0.49430 0.52790 0.66260 0.07400
H 	H 	0.49730 0.54630 0.75860 -0.00100
H 	H 	0.21090 0.09150 0.89560 -0.00100
H 	H 	0.21880 0.18390 0.93290 0.09300
H 	H 	0.93280 0.19010 0.93930 0.08100
H 	H 	0.92490 0.09770 0.90210 -0.00700
H 	H 	0.86380 0.02840 0.82540 0.04500
H 	H 	0.71820 0.00200 0.86230 0.01800
H 	H 	0.84920 0.89420 0.96850 0.07000
H 	H 	0.99410 0.92370 0.93560 0.04300
H 	H 	0.20800 0.93750 0.81150 0.01300
H 	H 	0.33810 0.88710 0.84610 0.06000
H 	H 	0.27950 0.94230 0.00170 0.00900
H 	H 	0.14620 0.98950 0.96890 0.03100
H 	H 	0.13980 0.10310 0.78700 0.00400
H 	H 	0.14100 0.12060 0.69050 0.05900
H 	H 	0.00570 0.97210 0.66260 0.05800
H 	H 	0.00270 0.95370 0.75860 -0.00200
H 	H 	0.21090 0.40850 0.60440 -0.00700
H 	H 	0.21880 0.31610 0.56710 0.09500
H 	H 	0.93280 0.30990 0.56070 0.08000
H 	H 	0.92490 0.40230 0.59790 -0.01400
H 	H 	0.86380 0.47160 0.67460 0.01200
H 	H 	0.71820 0.49800 0.63770 0.06500
H 	H 	0.84920 0.60580 0.53150 0.07600
H 	H 	0.99410 0.57630 0.56440 0.01600
H 	H 	0.20800 0.56250 0.68850 -0.00900
H 	H 	0.33810 0.61290 0.65390 0.07700
H 	H 	0.27950 0.55770 0.49830 0.07700
H 	H 	0.14620 0.51050 0.53110 -0.01600
H 	H 	0.13980 0.39690 0.71300 -0.00200
H 	H 	0.14100 0.37940 0.80950 0.06500
H 	H 	0.00570 0.52790 0.83740 0.06400
H 	H 	0.00270 0.54630 0.74140 -0.00800
H 	H 	0.28910 0.09150 0.60440 -0.00600
H 	H 	0.28120 0.18390 0.56710 0.09800
H 	H 	0.56720 0.19010 0.56070 0.08500
H 	H 	0.57510 0.09770 0.59790 -0.00800
H 	H 	0.63620 0.02840 0.67460 0.02500
H 	H 	0.78180 0.00200 0.63770 0.03400
H 	H 	0.65080 0.89420 0.53150 0.06600
H 	H 	0.50590 0.92370 0.56440 0.01100
H 	H 	0.29200 0.93750 0.68850 -0.00100
H 	H 	0.16190 0.88710 0.65390 0.07100
H 	H 	0.22050 0.94230 0.49830 0.07400
H 	H 	0.35380 0.98950 0.53110 -0.00300
H 	H 	0.36020 0.10310 0.71300 0.00000
H 	H 	0.35900 0.12060 0.80950 0.06300
H 	H 	0.49430 0.97210 0.83740 0.06900
H 	H 	0.49730 0.95370 0.74140 0.00200
H 	H 	0.71090 0.59150 0.10440 -0.01200
H 	H 	0.71880 0.68390 0.06710 0.09900
H 	H 	0.43280 0.69010 0.06070 0.07900
H 	H 	0.42490 0.59770 0.09790 -0.01700
H 	H 	0.36380 0.52840 0.17460 -0.00900
H 	H 	0.21820 0.50200 0.13770 0.06200
H 	H 	0.34920 0.39420 0.03150 0.07000
H 	H 	0.49410 0.42370 0.06440 -0.01400
H 	H 	0.70800 0.43750 0.18850 -0.02300
H 	H 	0.83810 0.38710 0.15390 0.09500
H 	H 	0.77950 0.44230 0.99830 0.14300
H 	H 	0.64620 0.48950 0.03110 -0.04800
H 	H 	0.63980 0.60310 0.21300 -0.00600
H 	H 	0.64100 0.62060 0.30950 0.06900
H 	H 	0.50570 0.47210 0.33740 0.07300
H 	H 	0.50270 0.45370 0.24140 -0.00500
H 	H 	0.78910 0.90850 0.10440 -0.01900
H 	H 	0.78120 0.81610 0.06710 0.10700
H 	H 	0.06720 0.80990 0.06070 0.08900
H 	H 	0.07510 0.90230 0.09790 -0.01900
H 	H 	0.13620 0.97160 0.17460 -0.05400
H 	H 	0.28180 0.99800 0.13770 0.11600
H 	H 	0.15080 0.10580 0.03150 0.09200
H 	H 	0.00590 0.07630 0.06440 -0.05700
H 	H 	0.79200 0.06250 0.18850 -0.03200
H 	H 	0.66190 0.11290 0.15390 0.09600
H 	H 	0.72050 0.05770 0.99830 0.14000
H 	H 	0.85380 0.01050 0.03110 -0.05500
H 	H 	0.86020 0.89690 0.21300 -0.01300
H 	H 	0.85900 0.87940 0.30950 0.07700
H 	H 	0.99430 0.02790 0.33740 0.08800
H 	H 	0.99730 0.04630 0.24140 -0.00300
H 	H 	0.78910 0.59150 0.39560 -0.01400
H 	H 	0.78120 0.68390 0.43290 0.10700
H 	H 	0.06720 0.69010 0.43930 0.09200
H 	H 	0.07510 0.59770 0.40210 -0.01200
H 	H 	0.13620 0.52840 0.32540 -0.02700
H 	H 	0.28180 0.50200 0.36230 0.07700
H 	H 	0.15080 0.39420 0.46850 0.08700
H 	H 	0.00590 0.42370 0.43560 -0.03400
H 	H 	0.79200 0.43750 0.31150 -0.01500
H 	H 	0.66190 0.38710 0.34610 0.08200
H 	H 	0.72050 0.44230 0.50170 0.08300
H 	H 	0.85380 0.48950 0.46890 -0.01600
H 	H 	0.86020 0.60310 0.28700 -0.00800
H 	H 	0.85900 0.62060 0.19050 0.07300
H 	H 	0.99430 0.47210 0.16260 0.08300
H 	H 	0.99730 0.45370 0.25860 0.00100
H 	H 	0.71090 0.90850 0.39560 -0.01400
H 	H 	0.71880 0.81610 0.43290 0.10400
H 	H 	0.43280 0.80990 0.43930 0.08700
H 	H 	0.42490 0.90230 0.40210 -0.01800
H 	H 	0.36380 0.97160 0.32540 -0.03900
H 	H 	0.21820 0.99800 0.36230 0.10700
H 	H 	0.34920 0.10580 0.46850 0.09700
H 	H 	0.49410 0.07630 0.43560 -0.02800
H 	H 	0.70800 0.06250 0.31150 -0.02200
H 	H 	0.83810 0.11290 0.34610 0.08800
H 	H 	0.77950 0.05770 0.50170 0.08600
H 	H 	0.64620 0.01050 0.46890 -0.02900
H 	H 	0.63980 0.89690 0.28700 -0.01000
H 	H 	0.64100 0.87940 0.19050 0.07300
H 	H 	0.50570 0.02790 0.16260 0.07700
H 	H 	0.50270 0.04630 0.25860 -0.00800
C 	C 	0.43280 0.41410 0.89540 -0.27900
C 	C 	0.34550 0.38850 0.90450 0.10300
C 	C 	0.34080 0.33360 0.92660 -0.11400
C 	C 	0.42340 0.30430 0.93960 0.01500
C 	C 	0.51070 0.32990 0.93050 -0.10900
C 	C 	0.51540 0.38480 0.90830 0.10400
C 	C 	0.41900 0.24350 0.96190 0.30400
C 	C 	0.55390 0.51994 0.87805 -0.27400
C 	C 	0.63870 0.49780 0.85583 0.08900
C 	C 	0.72560 0.51370 0.87759 -0.09100
C 	C 	0.73110 0.55166 0.92068 -0.01100
C 	C 	0.64760 0.57684 0.94064 -0.09700
C 	C 	0.56170 0.56000 0.92028 0.10300
C 	C 	0.82250 0.56490 0.94911 0.35000
C 	C 	0.33660 0.52975 0.88612 -0.25300
C 	C 	0.27790 0.56110 0.85048 0.07100
C 	C 	0.19950 0.59038 0.87066 -0.06000
C 	C 	0.17700 0.58628 0.92661 -0.05500
C 	C 	0.23470 0.55809 0.96270 0.00200
C 	C 	0.31400 0.52998 0.94311 0.04400
C 	C 	0.08650 0.61164 0.94726 0.32900
C 	C 	0.43070 0.47285 0.78343 -0.26900
C 	C 	0.38840 0.42360 0.76207 0.07800
C 	C 	0.38720 0.41340 0.70443 -0.07600
C 	C 	0.42640 0.45204 0.66717 -0.04400
C 	C 	0.46720 0.50115 0.68783 -0.07500
C 	C 	0.46940 0.51200 0.74516 0.07500
C 	C 	0.42750 0.43910 0.60540 0.39200
C 	C 	0.06720 0.08590 0.89540 -0.27500
C 	C 	0.15450 0.11150 0.90450 0.08000
C 	C 	0.15920 0.16640 0.92660 -0.08700
C 	C 	0.07660 0.19570 0.93960 -0.04300
C 	C 	0.98930 0.17010 0.93050 -0.04700
C 	C 	0.98460 0.11520 0.90830 0.11400
C 	C 	0.08100 0.25650 0.96190 0.32100
C 	C 	0.94610 0.98006 0.87805 -0.13300
C 	C 	0.86130 0.00220 0.85583 -0.05200
C 	C 	0.77440 0.98630 0.87759 0.04800
C 	C 	0.76890 0.94834 0.92068 -0.08900
C 	C 	0.85240 0.92316 0.94064 -0.01000
C 	C 	0.93830 0.94000 0.92028 0.00900
C 	C 	0.67750 0.93510 0.94911 0.38000
C 	C 	0.16340 0.97025 0.88612 -0.19800
C 	C 	0.22210 0.93890 0.85048 0.03800
C 	C 	0.30050 0.90962 0.87066 -0.03800
C 	C 	0.32300 0.91372 0.92661 -0.06900
C 	C 	0.26530 0.94191 0.96270 0.02900
C 	C 	0.18600 0.97002 0.94311 0.00700
C 	C 	0.41350 0.88836 0.94726 0.33200
C 	C 	0.06930 0.02715 0.78343 -0.24700
C 	C 	0.11160 0.07640 0.76207 0.04800
C 	C 	0.11280 0.08660 0.70443 -0.05500
C 	C 	0.07360 0.04796 0.66717 -0.08200
C 	C 	0.03280 0.99885 0.68783 -0.03900
C 	C 	0.03060 0.98800 0.74516 0.05800
C 	C 	0.07250 0.06090 0.60540 0.40100
C 	C 	0.06720 0.41410 0.60460 -0.30200
C 	C 	0.15450 0.38850 0.59550 0.09400
C 	C 	0.15920 0.33360 0.57340 -0.09900
C 	C 	0.07660 0.30430 0.56040 -0.04200
C 	C 	0.98930 0.32990 0.56950 -0.05800
C 	C 	0.98460 0.38480 0.59170 0.12700
C 	C 	0.08100 0.24350 0.53810 0.32100
C 	C 	0.94610 0.51994 0.62195 -0.22000
C 	C 	0.86130 0.49780 0.64417 0.05500
C 	C 	0.77440 0.51370 0.62241 -0.06200
C 	C 	0.76890 0.55166 0.57932 -0.04000
C 	C 	0.85240 0.57684 0.55936 -0.07000
C 	C 	0.93830 0.56000 0.57972 0.06700
C 	C 	0.67750 0.56490 0.55089 0.36000
C 	C 	0.16340 0.52975 0.61388 -0.27300
C 	C 	0.22210 0.56110 0.64952 0.09200
C 	C 	0.30050 0.59038 0.62934 -0.09500
C 	C 	0.32300 0.58628 0.57339 -0.00900
C 	C 	0.26530 0.55809 0.53730 -0.10400
C 	C 	0.18600 0.52998 0.55689 0.09200
C 	C 	0.41350 0.61164 0.55274 0.30800
C 	C 	0.06930 0.47285 0.71657 -0.26000
C 	C 	0.11160 0.42360 0.73793 0.06700
C 	C 	0.11280 0.41340 0.79557 -0.07200
C 	C 	0.07360 0.45204 0.83283 -0.05200
C 	C 	0.03280 0.50115 0.81217 -0.07200
C 	C 	0.03060 0.51200 0.75484 0.06200
C 	C 	0.07250 0.43910 0.89460 0.39000
C 	C 	0.43280 0.08590 0.60460 -0.26200
C 	C 	0.34550 0.11150 0.59550 0.08700
C 	C 	0.34080 0.16640 0.57340 -0.10800
C 	C 	0.42340 0.19570 0.56040 0.00200
C 	C 	0.51070 0.17010 0.56950 -0.10200
C 	C 	0.51540 0.11520 0.59170 0.08700
C 	C 	0.41900 0.25650 0.53810 0.30800
C 	C 	0.55390 0.98006 0.62195 -0.19900
C 	C 	0.63870 0.00220 0.64417 -0.01500
C 	C 	0.72560 0.98630 0.62241 0.01500
C 	C 	0.73110 0.94834 0.57932 -0.07100
C 	C 	0.64760 0.92316 0.55936 -0.04400
C 	C 	0.56170 0.94000 0.57972 0.04200
C 	C 	0.82250 0.93510 0.55089 0.37200
C 	C 	0.33660 0.97025 0.61388 -0.24800
C 	C 	0.27790 0.93890 0.64952 0.08100
C 	C 	0.19950 0.90962 0.62934 -0.08100
C 	C 	0.17700 0.91372 0.57339 -0.01800
C 	C 	0.23470 0.94191 0.53730 -0.09000
C 	C 	0.31400 0.97002 0.55689 0.08200
C 	C 	0.08650 0.88836 0.55274 0.31500
C 	C 	0.43070 0.02715 0.71657 -0.26300
C 	C 	0.38840 0.07640 0.73793 0.06500
C 	C 	0.38720 0.08660 0.79557 -0.06200
C 	C 	0.42640 0.04796 0.83283 -0.07000
C 	C 	0.46720 0.99885 0.81217 -0.04500
C 	C 	0.46940 0.98800 0.75484 0.07500
C 	C 	0.42750 0.06090 0.89460 0.39900
C 	C 	0.56720 0.58590 0.10460 -0.28800
C 	C 	0.65450 0.61150 0.09550 0.09900
C 	C 	0.65920 0.66640 0.07340 -0.11900
C 	C 	0.57660 0.69570 0.06040 0.00200
C 	C 	0.48930 0.67010 0.06950 -0.11300
C 	C 	0.48460 0.61520 0.09170 0.09800
C 	C 	0.58100 0.75650 0.03810 0.30800
C 	C 	0.44610 0.48006 0.12195 -0.28000
C 	C 	0.36130 0.50220 0.14417 0.07900
C 	C 	0.27440 0.48630 0.12241 -0.08300
C 	C 	0.26890 0.44834 0.07932 -0.03500
C 	C 	0.35240 0.42316 0.05936 -0.09600
C 	C 	0.43830 0.44000 0.07972 0.09200
C 	C 	0.17750 0.43510 0.05089 0.35600
C 	C 	0.66340 0.47025 0.11388 -0.32000
C 	C 	0.72210 0.43890 0.14952 0.13700
C 	C 	0.80050 0.40962 0.12934 -0.14200
C 	C 	0.82300 0.41372 0.07339 0.05000
C 	C 	0.76530 0.44191 0.03730 -0.22100
C 	C 	0.68600 0.47002 0.05689 0.16600
C 	C 	0.91350 0.38836 0.05274 0.28400
C 	C 	0.56930 0.52715 0.21657 -0.27600
C 	C 	0.61160 0.57640 0.23793 0.08100
C 	C 	0.61280 0.58660 0.29557 -0.08000
C 	C 	0.57360 0.54796 0.33283 -0.04200
C 	C 	0.53280 0.49885 0.31217 -0.07900
C 	C 	0.53060 0.48800 0.25484 0.07900
C 	C 	0.57250 0.56090 0.39460 0.39100
C 	C 	0.93280 0.91410 0.10460 -0.28900
C 	C 	0.84550 0.88850 0.09550 0.11900
C 	C 	0.84080 0.83360 0.07340 -0.14300
C 	C 	0.92340 0.80430 0.06040 0.05700
C 	C 	0.01070 0.82990 0.06950 -0.17100
C 	C 	0.01540 0.88480 0.09170 0.08600
C 	C 	0.91900 0.74350 0.03810 0.29100
C 	C 	0.05390 0.01994 0.12195 -0.40500
C 	C 	0.13870 0.99780 0.14417 0.20200
C 	C 	0.22560 0.01370 0.12241 -0.20300
C 	C 	0.23110 0.05166 0.07932 0.03400
C 	C 	0.14760 0.07684 0.05936 -0.17300
C 	C 	0.06170 0.06000 0.07972 0.17500
C 	C 	0.32250 0.06490 0.05089 0.33000
C 	C 	0.83660 0.02975 0.11388 -0.35900
C 	C 	0.77790 0.06110 0.14952 0.16000
C 	C 	0.69950 0.09038 0.12934 -0.15400
C 	C 	0.67700 0.08628 0.07339 0.05400
C 	C 	0.73470 0.05809 0.03730 -0.22900
C 	C 	0.81400 0.02998 0.05689 0.18800
C 	C 	0.58650 0.11164 0.05274 0.28500
C 	C 	0.93070 0.97285 0.21657 -0.29700
C 	C 	0.88840 0.92360 0.23793 0.10700
C 	C 	0.88720 0.91340 0.29557 -0.09700
C 	C 	0.92640 0.95204 0.33283 -0.01000
C 	C 	0.96720 0.00115 0.31217 -0.10800
C 	C 	0.96940 0.01200 0.25484 0.09800
C 	C 	0.92750 0.93910 0.39460 0.38200
C 	C 	0.93280 0.58590 0.39540 -0.26500
C 	C 	0.84550 0.61150 0.40450 0.10900
C 	C 	0.84080 0.66640 0.42660 -0.13300
C 	C 	0.92340 0.69570 0.43960 0.05800
C 	C 	0.01070 0.67010 0.43050 -0.16200
C 	C 	0.01540 0.61520 0.40830 0.07500
C 	C 	0.91900 0.75650 0.46190 0.29100
C 	C 	0.05390 0.48006 0.37805 -0.33400
C 	C 	0.13870 0.50220 0.35583 0.11300
C 	C 	0.22560 0.48630 0.37759 -0.11200
C 	C 	0.23110 0.44834 0.42068 -0.00800
C 	C 	0.14760 0.42316 0.44064 -0.12300
C 	C 	0.06170 0.44000 0.42028 0.12800
C 	C 	0.32250 0.43510 0.44911 0.34700
C 	C 	0.83660 0.47025 0.38612 -0.30100
C 	C 	0.77790 0.43890 0.35048 0.11600
C 	C 	0.69950 0.40962 0.37066 -0.10700
C 	C 	0.67700 0.41372 0.42661 0.00300
C 	C 	0.73470 0.44191 0.46270 -0.11700
C 	C 	0.81400 0.47002 0.44311 0.11800
C 	C 	0.58650 0.38836 0.44726 0.30500
C 	C 	0.93070 0.52715 0.28343 -0.28600
C 	C 	0.88840 0.57640 0.26207 0.09300
C 	C 	0.88720 0.58660 0.20443 -0.08400
C 	C 	0.92640 0.54796 0.16717 -0.03300
C 	C 	0.96720 0.49885 0.18783 -0.08300
C 	C 	0.96940 0.48800 0.24516 0.09200
C 	C 	0.92750 0.56090 0.10540 0.38900
C 	C 	0.56720 0.91410 0.39540 -0.30300
C 	C 	0.65450 0.88850 0.40450 0.11500
C 	C 	0.65920 0.83360 0.42660 -0.12400
C 	C 	0.57660 0.80430 0.43960 0.01400
C 	C 	0.48930 0.82990 0.43050 -0.11900
C 	C 	0.48460 0.88480 0.40830 0.11400
C 	C 	0.58100 0.74350 0.46190 0.30400
C 	C 	0.44610 0.01994 0.37805 -0.35100
C 	C 	0.36130 0.99780 0.35583 0.17900
C 	C 	0.27440 0.01370 0.37759 -0.18600
C 	C 	0.26890 0.05166 0.42068 0.02300
C 	C 	0.35240 0.07684 0.44064 -0.14700
C 	C 	0.43830 0.06000 0.42028 0.15000
C 	C 	0.17750 0.06490 0.44911 0.33400
C 	C 	0.66340 0.02975 0.38612 -0.32200
C 	C 	0.72210 0.06110 0.35048 0.12600
C 	C 	0.80050 0.09038 0.37066 -0.12000
C 	C 	0.82300 0.08628 0.42661 0.01300
C 	C 	0.76530 0.05809 0.46270 -0.13100
C 	C 	0.68600 0.02998 0.44311 0.12800
C 	C 	0.91350 0.11164 0.44726 0.29800
C 	C 	0.56930 0.97285 0.28343 -0.28200
C 	C 	0.61160 0.92360 0.26207 0.09200
C 	C 	0.61280 0.91340 0.20443 -0.09100
C 	C 	0.57360 0.95204 0.16717 -0.02200
C 	C 	0.53280 0.00115 0.18783 -0.10200
C 	C 	0.53060 0.01200 0.24516 0.07900
C 	C 	0.57250 0.93910 0.10540 0.38400
O 	O 	0.34220 0.22300 0.97600 -0.30500
O 	O 	0.49130 0.21480 0.96700 -0.40100
O 	O 	0.88280 0.52537 0.95109 -0.40200
O 	O 	0.83279 0.61465 0.96807 -0.42200
O 	O 	0.04720 0.65101 0.92239 -0.31200
O 	O 	0.05160 0.59072 0.99303 -0.52100
O 	O 	0.41430 0.38900 0.59050 -0.46800
O 	O 	0.44280 0.48051 0.57369 -0.47000
O 	O 	0.15780 0.27700 0.97600 -0.31200
O 	O 	0.00870 0.28520 0.96700 -0.42500
O 	O 	0.61720 0.97463 0.95109 -0.41700
O 	O 	0.66721 0.88535 0.96807 -0.43300
O 	O 	0.45280 0.84899 0.92239 -0.29700
O 	O 	0.44840 0.90928 0.99303 -0.50100
O 	O 	0.08570 0.11100 0.59050 -0.47800
O 	O 	0.05720 0.01949 0.57369 -0.48800
O 	O 	0.15780 0.22300 0.52400 -0.32200
O 	O 	0.00870 0.21480 0.53300 -0.43600
O 	O 	0.61720 0.52537 0.54891 -0.43100
O 	O 	0.66721 0.61465 0.53193 -0.44800
O 	O 	0.45280 0.65101 0.57761 -0.30000
O 	O 	0.44840 0.59072 0.50697 -0.52300
O 	O 	0.08570 0.38900 0.90950 -0.46900
O 	O 	0.05720 0.48051 0.92631 -0.46800
O 	O 	0.34220 0.27700 0.52400 -0.31600
O 	O 	0.49130 0.28520 0.53300 -0.41300
O 	O 	0.88280 0.97463 0.54891 -0.41200
O 	O 	0.83279 0.88535 0.53193 -0.44400
O 	O 	0.04720 0.84899 0.57761 -0.31700
O 	O 	0.05160 0.90928 0.50697 -0.53800
O 	O 	0.41430 0.11100 0.90950 -0.46500
O 	O 	0.44280 0.01949 0.92631 -0.47000
O 	O 	0.65780 0.77700 0.02400 -0.32600
O 	O 	0.50870 0.78520 0.03300 -0.42600
O 	O 	0.11720 0.47463 0.04891 -0.45000
O 	O 	0.16721 0.38535 0.03193 -0.47100
O 	O 	0.95280 0.34899 0.07761 -0.28700
O 	O 	0.94840 0.40928 0.00697 -0.51600
O 	O 	0.58570 0.61100 0.40950 -0.46900
O 	O 	0.55720 0.51949 0.42631 -0.47000
O 	O 	0.84220 0.72300 0.02400 -0.31900
O 	O 	0.99130 0.71480 0.03300 -0.40200
O 	O 	0.38280 0.02537 0.04891 -0.43700
O 	O 	0.33279 0.11465 0.03193 -0.45900
O 	O 	0.54720 0.15101 0.07761 -0.30300
O 	O 	0.55160 0.09072 0.00697 -0.53700
O 	O 	0.91430 0.88900 0.40950 -0.45900
O 	O 	0.94280 0.98051 0.42631 -0.44700
O 	O 	0.84220 0.77700 0.47600 -0.30800
O 	O 	0.99130 0.78520 0.46700 -0.39100
O 	O 	0.38280 0.47463 0.45109 -0.42900
O 	O 	0.33279 0.38535 0.46807 -0.44700
O 	O 	0.54720 0.34899 0.42239 -0.30000
O 	O 	0.55160 0.40928 0.49303 -0.52200
O 	O 	0.91430 0.61100 0.09050 -0.46700
O 	O 	0.94280 0.51949 0.07369 -0.46300
O 	O 	0.65780 0.72300 0.47600 -0.31400
O 	O 	0.50870 0.71480 0.46700 -0.41400
O 	O 	0.11720 0.02537 0.45109 -0.44300
O 	O 	0.16721 0.11465 0.46807 -0.45000
O 	O 	0.95280 0.15101 0.42239 -0.28200
O 	O 	0.94840 0.09072 0.49303 -0.50100
O 	O 	0.58570 0.88900 0.09050 -0.47200
O 	O 	0.55720 0.98051 0.07369 -0.46800
