data_crystal

_cell_length_a 17.44210
_cell_length_b 17.44210
_cell_length_c 26.68200
_cell_angle_alpha 90.03260
_cell_angle_beta  90.03260
_cell_angle_gamma 98.72120

_symmetry_space_group_name_	'P 1'
_symmetry_space_group_name_H-M	'P 1'

loop_
_symmetry_equiv_pos_as_xyz
  x,y,z

loop_
_atom_site_label
_atom_site_type_symbol
_atom_site_fract_x
_atom_site_fract_y
_atom_site_fract_z
_atom_site_charge
Mn	Mn	0.76840 0.73080 0.24953 1.28900
Mn	Mn	0.26920 0.23160 0.25047 1.28700
Mn	Mn	0.23160 0.26920 0.75047 1.28700
Mn	Mn	0.73080 0.76840 0.74953 1.28900
Mn	Mn	0.50000 0.50000 0.50000 1.27500
Mn	Mn	0.50000 0.50000 -0.00000 1.25100
Mn	Mn	-0.00000 -0.00000 0.50000 1.22200
Mn	Mn	-0.00000 0.00000 -0.00000 1.19900
Mn	Mn	-0.00000 0.50000 0.50000 1.27700
Mn	Mn	0.50000 0.00000 -0.00000 1.25400
Mn	Mn	0.50000 -0.00000 0.50000 1.24100
Mn	Mn	-0.00000 0.50000 -0.00000 1.21800
H 	H 	0.66650 0.40790 0.35980 0.07000
H 	H 	0.57130 0.29250 0.37990 0.06500
H 	H 	0.64440 0.77620 0.48140 0.06100
H 	H 	0.70310 0.70450 0.41650 0.07700
H 	H 	0.67100 0.63440 0.33160 0.04400
H 	H 	0.88910 0.62070 0.30050 0.04200
H 	H 	0.89500 0.53260 0.36410 0.08700
H 	H 	0.78690 0.49650 0.41540 0.06500
H 	H 	0.49850 0.81930 0.50440 0.05800
H 	H 	0.59410 0.97050 0.60350 0.06200
H 	H 	0.63450 0.87390 0.65140 0.06900
H 	H 	0.60520 0.74380 0.62470 0.08200
H 	H 	0.06210 0.81070 0.63620 0.03700
H 	H 	0.18900 0.88840 0.61700 0.09600
H 	H 	0.71260 0.88420 0.50920 0.06700
H 	H 	0.77360 0.81260 0.57420 0.05800
H 	H 	0.31930 0.97890 0.50290 0.01600
H 	H 	0.46530 0.04730 0.61170 0.01100
H 	H 	0.36630 0.06970 0.66370 0.08400
H 	H 	0.23700 0.04520 0.63460 0.04900
H 	H 	0.84660 0.85560 0.66360 0.05700
H 	H 	0.81110 0.63510 0.70070 0.02900
H 	H 	0.89720 0.60500 0.64090 0.07800
H 	H 	0.95560 0.70280 0.58660 0.09000
H 	H 	0.87500 0.26580 0.60440 0.09100
H 	H 	0.77540 0.35300 0.60280 0.06500
H 	H 	0.75710 0.63070 0.52480 0.06200
H 	H 	0.84370 0.72430 0.47290 0.06300
H 	H 	0.67910 0.47970 0.50510 0.02600
H 	H 	0.53960 0.49000 0.61900 0.01400
H 	H 	0.64070 0.49610 0.67520 0.08100
H 	H 	0.76750 0.49790 0.64520 0.06000
H 	H 	0.01770 0.81670 0.49040 0.06800
H 	H 	0.97380 0.95540 0.38200 0.05100
H 	H 	0.94390 0.85170 0.32740 0.06400
H 	H 	0.94840 0.72580 0.35640 0.08900
H 	H 	0.59210 0.33350 0.14020 0.06500
H 	H 	0.70750 0.42870 0.12010 0.07500
H 	H 	0.22380 0.35560 0.01860 0.02400
H 	H 	0.29550 0.29690 0.08350 0.08300
H 	H 	0.36560 0.32900 0.16840 0.04300
H 	H 	0.37930 0.11090 0.19950 0.02800
H 	H 	0.46740 0.10500 0.13590 0.07100
H 	H 	0.50350 0.21310 0.08460 0.05300
H 	H 	0.18070 0.50150 0.99560 0.07400
H 	H 	0.02950 0.40590 0.89650 0.01800
H 	H 	0.12610 0.36550 0.84860 0.06500
H 	H 	0.25620 0.39480 0.87530 0.07500
H 	H 	0.18930 0.93790 0.86380 0.10500
H 	H 	0.11160 0.81100 0.88300 0.04100
H 	H 	0.11580 0.28740 0.99080 0.03400
H 	H 	0.18740 0.22640 0.92580 0.09300
H 	H 	0.02110 0.68070 0.99710 0.10700
H 	H 	0.95270 0.53470 0.88830 0.05600
H 	H 	0.93030 0.63370 0.83630 0.06400
H 	H 	0.95480 0.76300 0.86540 0.11500
H 	H 	0.14440 0.15340 0.83640 0.04600
H 	H 	0.36490 0.18890 0.79930 0.03000
H 	H 	0.39500 0.10280 0.85910 0.04900
H 	H 	0.29720 0.04440 0.91340 0.08000
H 	H 	0.73420 0.12500 0.89560 0.05300
H 	H 	0.64700 0.22460 0.89720 0.07800
H 	H 	0.36930 0.24290 0.97520 0.04200
H 	H 	0.27570 0.15630 0.02710 0.08800
H 	H 	0.52030 0.32090 0.99490 0.04900
H 	H 	0.51000 0.46040 0.88100 0.01600
H 	H 	0.50390 0.35930 0.82480 0.08000
H 	H 	0.50210 0.23250 0.85480 0.05400
H 	H 	0.18330 0.98230 0.00960 -0.02100
H 	H 	0.04460 0.02620 0.11800 -0.02800
H 	H 	0.14830 0.05610 0.17260 0.07300
H 	H 	0.27420 0.05160 0.14360 0.03800
H 	H 	0.33350 0.59210 0.64020 0.06800
H 	H 	0.42870 0.70750 0.62010 0.07000
H 	H 	0.35560 0.22380 0.51860 0.05800
H 	H 	0.29690 0.29550 0.58350 0.07700
H 	H 	0.32900 0.36560 0.66840 0.04300
H 	H 	0.11090 0.37930 0.69950 0.02800
H 	H 	0.10500 0.46740 0.63590 0.07000
H 	H 	0.21310 0.50350 0.58460 0.06500
H 	H 	0.50150 0.18070 0.49560 0.05400
H 	H 	0.40590 0.02950 0.39650 0.01700
H 	H 	0.36550 0.12610 0.34860 0.06100
H 	H 	0.39480 0.25620 0.37530 0.08100
H 	H 	0.93790 0.18930 0.36380 0.10700
H 	H 	0.81100 0.11160 0.38300 0.03400
H 	H 	0.28740 0.11580 0.49080 0.05200
H 	H 	0.22640 0.18740 0.42580 0.06900
H 	H 	0.68070 0.02110 0.49710 0.08000
H 	H 	0.53470 0.95270 0.38830 0.05300
H 	H 	0.63370 0.93030 0.33630 0.06700
H 	H 	0.76300 0.95480 0.36540 0.10900
H 	H 	0.15340 0.14440 0.33640 0.04400
H 	H 	0.18890 0.36490 0.29930 0.02900
H 	H 	0.10280 0.39500 0.35910 0.05000
H 	H 	0.04440 0.29720 0.41340 0.06700
H 	H 	0.12500 0.73420 0.39560 0.05100
H 	H 	0.22460 0.64700 0.39720 0.07400
H 	H 	0.24290 0.36930 0.47520 0.06200
H 	H 	0.15630 0.27570 0.52710 0.06300
H 	H 	0.32090 0.52030 0.49490 0.02700
H 	H 	0.46040 0.51000 0.38100 0.01400
H 	H 	0.35930 0.50390 0.32480 0.08000
H 	H 	0.23250 0.50210 0.35480 0.05300
H 	H 	0.98230 0.18330 0.50960 -0.00300
H 	H 	0.02620 0.04460 0.61800 -0.02800
H 	H 	0.05610 0.14830 0.67260 0.07300
H 	H 	0.05160 0.27420 0.64360 0.03700
H 	H 	0.40790 0.66650 0.85980 0.07300
H 	H 	0.29250 0.57130 0.87990 0.06100
H 	H 	0.77620 0.64440 0.98140 0.09500
H 	H 	0.70450 0.70310 0.91650 0.07200
H 	H 	0.63440 0.67100 0.83160 0.04400
H 	H 	0.62070 0.88910 0.80050 0.04200
H 	H 	0.53260 0.89500 0.86410 0.08600
H 	H 	0.49650 0.78690 0.91540 0.07700
H 	H 	0.81930 0.49850 0.00440 0.04100
H 	H 	0.97050 0.59410 0.10350 0.06400
H 	H 	0.87390 0.63450 0.15140 0.06500
H 	H 	0.74380 0.60520 0.12470 0.08700
H 	H 	0.81070 0.06210 0.13620 0.03700
H 	H 	0.88840 0.18900 0.11700 0.09000
H 	H 	0.88420 0.71260 0.00920 0.08300
H 	H 	0.81260 0.77360 0.07420 0.03600
H 	H 	0.97890 0.31930 0.00290 -0.01100
H 	H 	0.04730 0.46530 0.11170 0.00800
H 	H 	0.06970 0.36630 0.16370 0.08700
H 	H 	0.04520 0.23700 0.13460 0.04200
H 	H 	0.85560 0.84660 0.16360 0.05500
H 	H 	0.63510 0.81110 0.20070 0.02800
H 	H 	0.60500 0.89720 0.14090 0.08000
H 	H 	0.70280 0.95560 0.08660 0.07800
H 	H 	0.26580 0.87500 0.10440 0.08900
H 	H 	0.35300 0.77540 0.10280 0.06100
H 	H 	0.63070 0.75710 0.02480 0.08200
H 	H 	0.72430 0.84370 0.97290 0.03900
H 	H 	0.47970 0.67910 0.00510 0.00600
H 	H 	0.49000 0.53960 0.11900 0.01400
H 	H 	0.49610 0.64070 0.17520 0.08200
H 	H 	0.49790 0.76750 0.14520 0.05900
H 	H 	0.81670 0.01770 0.99040 0.08600
H 	H 	0.95540 0.97380 0.88200 0.05100
H 	H 	0.85170 0.94390 0.82740 0.06500
H 	H 	0.72580 0.94840 0.85640 0.08700
C 	C 	0.60974 0.46750 0.41534 0.09500
C 	C 	0.62638 0.40514 0.38406 -0.07000
C 	C 	0.57508 0.34206 0.39526 -0.06600
C 	C 	0.47271 0.63643 0.56533 0.09900
C 	C 	0.53152 0.68832 0.54090 -0.11400
C 	C 	0.57284 0.66920 0.49927 0.09300
C 	C 	0.63097 0.72251 0.47410 -0.06300
C 	C 	0.66281 0.68363 0.43877 -0.07500
C 	C 	0.62549 0.60493 0.44026 0.09200
C 	C 	0.64739 0.54359 0.41186 -0.10900
C 	C 	0.71657 0.56235 0.37892 0.04400
C 	C 	0.71719 0.61377 0.33887 -0.00800
C 	C 	0.84438 0.60542 0.32044 0.03300
C 	C 	0.84854 0.55346 0.35849 -0.05600
C 	C 	0.78462 0.53180 0.38853 -0.05100
C 	C 	0.54964 0.76818 0.56070 0.06300
C 	C 	0.52695 0.83003 0.53464 -0.03000
C 	C 	0.58233 0.91827 0.59244 0.02800
C 	C 	0.60658 0.86122 0.62119 -0.03700
C 	C 	0.58958 0.78442 0.60526 -0.08200
C 	C 	0.01467 0.87993 0.58195 0.00300
C 	C 	0.07146 0.85174 0.61261 -0.01500
C 	C 	0.14069 0.89395 0.60205 -0.11800
C 	C 	0.12814 0.94876 0.56414 0.17700
C 	C 	0.18626 0.00300 0.54291 -0.16200
C 	C 	0.17374 0.05162 0.50317 0.09100
C 	C 	0.76585 0.89219 0.51831 -0.06800
C 	C 	0.79922 0.85312 0.55371 -0.05700
C 	C 	0.87977 0.88347 0.55501 0.07800
C 	C 	0.93486 0.85392 0.58432 -0.01700
C 	C 	0.26493 0.01135 0.56444 -0.05800
C 	C 	0.32846 0.99812 0.53605 0.15500
C 	C 	0.41359 0.03741 0.59949 0.05000
C 	C 	0.35520 0.05100 0.63063 -0.09400
C 	C 	0.27871 0.03709 0.61335 -0.00800
C 	C 	0.90536 0.78908 0.61847 0.03300
C 	C 	0.85573 0.80395 0.65825 -0.00200
C 	C 	0.83658 0.67562 0.68021 0.04400
C 	C 	0.88668 0.65672 0.64399 -0.04700
C 	C 	0.92137 0.71429 0.61226 -0.04300
C 	C 	0.94487 0.35257 0.55987 0.18100
C 	C 	0.87928 0.31478 0.58827 -0.09300
C 	C 	0.82508 0.36254 0.58745 -0.05100
C 	C 	0.85607 0.43043 0.55931 0.10000
C 	C 	0.81640 0.49282 0.54921 -0.09900
C 	C 	0.84588 0.55716 0.52056 0.09900
C 	C 	0.80679 0.62425 0.51249 -0.07200
C 	C 	0.85412 0.67538 0.48441 -0.06700
C 	C 	0.92400 0.64186 0.47511 0.09400
C 	C 	0.98811 0.67879 0.44798 -0.05300
C 	C 	0.73682 0.48936 0.57130 0.03600
C 	C 	0.67185 0.48417 0.54017 -0.00800
C 	C 	0.59044 0.48960 0.60638 0.05400
C 	C 	0.65040 0.49368 0.64026 -0.06000
C 	C 	0.72498 0.49424 0.62263 -0.04500
C 	C 	0.98263 0.75749 0.42696 0.14800
C 	C 	0.00131 0.82337 0.45695 -0.17700
C 	C 	0.97645 0.90455 0.39386 0.02400
C 	C 	0.95827 0.84313 0.36110 0.00400
C 	C 	0.96115 0.76885 0.37824 -0.10500
C 	C 	0.53250 0.39026 0.08466 0.08600
C 	C 	0.59486 0.37362 0.11594 -0.06300
C 	C 	0.65794 0.42492 0.10474 -0.08500
C 	C 	0.36357 0.52729 0.93467 0.07800
C 	C 	0.31168 0.46848 0.95910 -0.02700
C 	C 	0.33080 0.42716 0.00073 -0.00200
C 	C 	0.27749 0.36903 0.02590 -0.02600
C 	C 	0.31637 0.33719 0.06123 -0.10500
C 	C 	0.39507 0.37451 0.05974 0.09300
C 	C 	0.45641 0.35261 0.08814 -0.11600
C 	C 	0.43765 0.28343 0.12108 0.04100
C 	C 	0.38623 0.28281 0.16113 -0.00800
C 	C 	0.39458 0.15562 0.17956 0.03300
C 	C 	0.44654 0.15146 0.14151 -0.06000
C 	C 	0.46820 0.21538 0.11147 -0.05100
C 	C 	0.23182 0.45036 0.93930 0.04000
C 	C 	0.16997 0.47305 0.96536 -0.01500
C 	C 	0.08173 0.41767 0.90756 0.03200
C 	C 	0.13878 0.39342 0.87881 -0.05900
C 	C 	0.21558 0.41042 0.89474 -0.06200
C 	C 	0.12007 0.98533 0.91805 0.19700
C 	C 	0.14826 0.92854 0.88739 -0.12500
C 	C 	0.10605 0.85931 0.89795 -0.02700
C 	C 	0.05124 0.87186 0.93586 0.03900
C 	C 	0.99700 0.81374 0.95709 -0.10200
C 	C 	0.94838 0.82626 0.99683 0.22400
C 	C 	0.10781 0.23415 0.98169 0.06200
C 	C 	0.14688 0.20078 0.94629 -0.14200
C 	C 	0.11653 0.12023 0.94499 0.13900
C 	C 	0.14608 0.06514 0.91568 -0.21300
C 	C 	0.98865 0.73507 0.93556 0.18900
C 	C 	0.00188 0.67154 0.96395 -0.19600
C 	C 	0.96259 0.58641 0.90051 0.00600
C 	C 	0.94900 0.64480 0.86937 0.02600
C 	C 	0.96291 0.72129 0.88665 -0.12300
C 	C 	0.21092 0.09464 0.88153 0.07900
C 	C 	0.19605 0.14427 0.84175 -0.04100
C 	C 	0.32438 0.16342 0.81979 0.02000
C 	C 	0.34328 0.11332 0.85601 -0.02900
C 	C 	0.28571 0.07863 0.88774 -0.09600
C 	C 	0.64743 0.05513 0.94013 0.02900
C 	C 	0.68522 0.12072 0.91173 -0.03600
C 	C 	0.63746 0.17492 0.91255 -0.08500
C 	C 	0.56957 0.14393 0.94069 0.11300
C 	C 	0.50718 0.18360 0.95079 -0.10700
C 	C 	0.44284 0.15412 0.97944 0.12100
C 	C 	0.37575 0.19321 0.98751 0.03800
C 	C 	0.32462 0.14588 0.01559 -0.19300
C 	C 	0.35814 0.07600 0.02489 0.12300
C 	C 	0.32121 0.01189 0.05202 -0.17300
C 	C 	0.51064 0.26318 0.92870 0.04200
C 	C 	0.51583 0.32815 0.95983 -0.00600
C 	C 	0.51040 0.40956 0.89362 0.05500
C 	C 	0.50632 0.34960 0.85974 -0.05800
C 	C 	0.50576 0.27502 0.87737 -0.04700
C 	C 	0.24251 0.01737 0.07304 -0.06700
C 	C 	0.17663 0.99869 0.04305 0.15300
C 	C 	0.09545 0.02355 0.10614 0.06000
C 	C 	0.15687 0.04173 0.13890 -0.11600
C 	C 	0.23115 0.03885 0.12176 -0.00300
C 	C 	0.39026 0.53250 0.58466 0.09400
C 	C 	0.37362 0.59486 0.61594 -0.06700
C 	C 	0.42492 0.65794 0.60474 -0.06800
C 	C 	0.52729 0.36357 0.43467 0.09700
C 	C 	0.46848 0.31168 0.45910 -0.11300
C 	C 	0.42716 0.33080 0.50073 0.09100
C 	C 	0.36903 0.27749 0.52590 -0.06200
C 	C 	0.33719 0.31637 0.56123 -0.07700
C 	C 	0.37451 0.39507 0.55974 0.09300
C 	C 	0.35261 0.45641 0.58814 -0.10900
C 	C 	0.28343 0.43765 0.62108 0.04500
C 	C 	0.28281 0.38623 0.66113 -0.00900
C 	C 	0.15562 0.39458 0.67956 0.03100
C 	C 	0.15146 0.44654 0.64151 -0.05600
C 	C 	0.21538 0.46820 0.61147 -0.05400
C 	C 	0.45036 0.23182 0.43930 0.06000
C 	C 	0.47305 0.16997 0.46536 -0.03500
C 	C 	0.41767 0.08173 0.40756 0.02200
C 	C 	0.39342 0.13878 0.37881 -0.04900
C 	C 	0.41042 0.21558 0.39474 -0.08100
C 	C 	0.98533 0.12007 0.41805 0.19300
C 	C 	0.92854 0.14826 0.38739 -0.13300
C 	C 	0.85931 0.10605 0.39795 -0.01800
C 	C 	0.87186 0.05124 0.43586 0.01100
C 	C 	0.81374 0.99700 0.45709 -0.06100
C 	C 	0.82626 0.94838 0.49683 0.10000
C 	C 	0.23415 0.10781 0.48169 -0.06600
C 	C 	0.20078 0.14688 0.44629 -0.09200
C 	C 	0.12023 0.11653 0.44499 0.11100
C 	C 	0.06514 0.14608 0.41568 -0.21400
C 	C 	0.73507 0.98865 0.43556 0.16000
C 	C 	0.67154 0.00188 0.46395 -0.19100
C 	C 	0.58641 0.96259 0.40051 0.00800
C 	C 	0.64480 0.94900 0.36937 0.01500
C 	C 	0.72129 0.96291 0.38665 -0.11000
C 	C 	0.09464 0.21092 0.38153 0.07100
C 	C 	0.14427 0.19605 0.34175 -0.03800
C 	C 	0.16342 0.32438 0.31979 0.02100
C 	C 	0.11332 0.34328 0.35601 -0.03400
C 	C 	0.07863 0.28571 0.38774 -0.09200
C 	C 	0.05513 0.64743 0.44013 0.02600
C 	C 	0.12072 0.68522 0.41173 -0.04200
C 	C 	0.17492 0.63746 0.41255 -0.08400
C 	C 	0.14393 0.56957 0.44069 0.10200
C 	C 	0.18360 0.50718 0.45079 -0.10800
C 	C 	0.15412 0.44284 0.47944 0.09600
C 	C 	0.19321 0.37575 0.48751 -0.06900
C 	C 	0.14588 0.32462 0.51559 -0.07600
C 	C 	0.07600 0.35814 0.52489 0.10200
C 	C 	0.01189 0.32121 0.55202 -0.15700
C 	C 	0.26318 0.51064 0.42870 0.03700
C 	C 	0.32815 0.51583 0.45983 -0.00900
C 	C 	0.40956 0.51040 0.39362 0.05400
C 	C 	0.34960 0.50632 0.35974 -0.06100
C 	C 	0.27502 0.50576 0.37737 -0.04500
C 	C 	0.01737 0.24251 0.57304 -0.07000
C 	C 	0.99869 0.17663 0.54305 0.16000
C 	C 	0.02355 0.09545 0.60614 0.06300
C 	C 	0.04173 0.15687 0.63890 -0.11600
C 	C 	0.03885 0.23115 0.62176 0.00000
C 	C 	0.46750 0.60974 0.91534 0.10300
C 	C 	0.40514 0.62638 0.88406 -0.07500
C 	C 	0.34206 0.57508 0.89526 -0.04900
C 	C 	0.63643 0.47271 0.06533 0.11800
C 	C 	0.68832 0.53152 0.04090 -0.19700
C 	C 	0.66920 0.57284 0.99927 0.18500
C 	C 	0.72251 0.63097 0.97410 -0.09900
C 	C 	0.68363 0.66281 0.93877 -0.04800
C 	C 	0.60493 0.62549 0.94026 0.09200
C 	C 	0.54359 0.64739 0.91186 -0.10100
C 	C 	0.56235 0.71657 0.87892 0.04700
C 	C 	0.61377 0.71719 0.83887 -0.00900
C 	C 	0.60542 0.84438 0.82044 0.03200
C 	C 	0.55346 0.84854 0.85849 -0.05300
C 	C 	0.53180 0.78462 0.88853 -0.05300
C 	C 	0.76818 0.54964 0.06070 0.08200
C 	C 	0.83003 0.52695 0.03464 -0.04900
C 	C 	0.91827 0.58233 0.09244 0.01900
C 	C 	0.86122 0.60658 0.12119 -0.02700
C 	C 	0.78442 0.58958 0.10526 -0.10000
C 	C 	0.87993 0.01467 0.08195 -0.00400
C 	C 	0.85174 0.07146 0.11261 -0.02200
C 	C 	0.89395 0.14069 0.10205 -0.10900
C 	C 	0.94876 0.12814 0.06414 0.15300
C 	C 	0.00300 0.18626 0.04291 -0.11900
C 	C 	0.05162 0.17374 0.00317 -0.04000
C 	C 	0.89219 0.76585 0.01831 -0.18800
C 	C 	0.85312 0.79922 0.05371 -0.00900
C 	C 	0.88347 0.87977 0.05501 0.05200
C 	C 	0.85392 0.93486 0.08432 -0.01400
C 	C 	0.01135 0.26493 0.06444 -0.09400
C 	C 	0.99812 0.32846 0.03605 0.16900
C 	C 	0.03741 0.41359 0.09949 0.05400
C 	C 	0.05100 0.35520 0.13063 -0.10800
C 	C 	0.03709 0.27871 0.11335 0.01000
C 	C 	0.78908 0.90536 0.11847 0.02500
C 	C 	0.80395 0.85573 0.15825 0.00200
C 	C 	0.67562 0.83658 0.18021 0.04600
C 	C 	0.65672 0.88668 0.14399 -0.05100
C 	C 	0.71429 0.92137 0.11226 -0.03800
C 	C 	0.35257 0.94487 0.05987 0.18100
C 	C 	0.31478 0.87928 0.08827 -0.10000
C 	C 	0.36254 0.82508 0.08745 -0.05000
C 	C 	0.43043 0.85607 0.05931 0.08900
C 	C 	0.49282 0.81640 0.04921 -0.09800
C 	C 	0.55716 0.84588 0.02056 0.07500
C 	C 	0.62425 0.80679 0.01249 -0.17400
C 	C 	0.67538 0.85412 0.98441 0.04500
C 	C 	0.64186 0.92400 0.97511 0.07400
C 	C 	0.67879 0.98811 0.94798 -0.03800
C 	C 	0.48936 0.73682 0.07130 0.03000
C 	C 	0.48417 0.67185 0.04017 -0.01000
C 	C 	0.48960 0.59044 0.10638 0.05300
C 	C 	0.49368 0.65040 0.14026 -0.06300
C 	C 	0.49424 0.72498 0.12263 -0.04300
C 	C 	0.75749 0.98263 0.92696 0.14100
C 	C 	0.82337 0.00131 0.95695 -0.16500
C 	C 	0.90455 0.97645 0.89386 0.02700
C 	C 	0.84313 0.95827 0.86110 0.00100
C 	C 	0.76885 0.96115 0.87824 -0.10000
N 	N 	0.45112 0.55958 0.55316 -0.28000
N 	N 	0.56802 0.59696 0.47726 -0.28000
N 	N 	0.77946 0.63566 0.31008 -0.18900
N 	N 	0.54296 0.90388 0.54982 -0.18100
N 	N 	0.05043 0.93857 0.55148 -0.26800
N 	N 	0.10450 0.05628 0.47978 -0.30700
N 	N 	0.40160 0.01076 0.55244 -0.27600
N 	N 	0.82146 0.74802 0.68836 -0.19000
N 	N 	0.92993 0.42381 0.54242 -0.25500
N 	N 	0.91711 0.56985 0.49726 -0.24400
N 	N 	0.59916 0.48514 0.55734 -0.20700
N 	N 	0.99724 0.89602 0.44092 -0.12000
N 	N 	0.44042 0.54888 0.94684 -0.26000
N 	N 	0.40304 0.43198 0.02274 -0.27900
N 	N 	0.36434 0.22054 0.18992 -0.19000
N 	N 	0.09612 0.45704 0.95018 -0.19700
N 	N 	0.06143 0.94957 0.94852 -0.27100
N 	N 	0.94372 0.89550 0.02022 -0.28500
N 	N 	0.98924 0.59840 0.94756 -0.12500
N 	N 	0.25198 0.17854 0.81164 -0.18600
N 	N 	0.57619 0.07007 0.95758 -0.25000
N 	N 	0.43015 0.08289 0.00274 -0.31000
N 	N 	0.51486 0.40084 0.94266 -0.19400
N 	N 	0.10398 0.00276 0.05908 -0.28100
N 	N 	0.54888 0.44042 0.44684 -0.28000
N 	N 	0.43198 0.40304 0.52274 -0.28000
N 	N 	0.22054 0.36434 0.68992 -0.18900
N 	N 	0.45704 0.09612 0.45018 -0.20600
N 	N 	0.94957 0.06143 0.44852 -0.28000
N 	N 	0.89550 0.94372 0.52022 -0.24200
N 	N 	0.59840 0.98924 0.44756 -0.14000
N 	N 	0.17854 0.25198 0.31164 -0.18700
N 	N 	0.07007 0.57619 0.45758 -0.26400
N 	N 	0.08289 0.43015 0.50274 -0.27200
N 	N 	0.40084 0.51486 0.44266 -0.20700
N 	N 	0.00276 0.10398 0.55908 -0.27500
N 	N 	0.55958 0.45112 0.05316 -0.29400
N 	N 	0.59696 0.56802 0.97726 -0.27500
N 	N 	0.63566 0.77946 0.81008 -0.18800
N 	N 	0.90388 0.54296 0.04982 -0.18500
N 	N 	0.93857 0.05043 0.05148 -0.27000
N 	N 	0.05628 0.10450 0.97978 -0.25500
N 	N 	0.01076 0.40160 0.05244 -0.28900
N 	N 	0.74802 0.82146 0.18836 -0.19100
N 	N 	0.42381 0.92993 0.04242 -0.26200
N 	N 	0.56985 0.91711 0.99726 -0.20200
N 	N 	0.48514 0.59916 0.05734 -0.21600
N 	N 	0.89602 0.99724 0.94092 -0.11200
Cl	Cl	0.04924 0.57560 0.57900 -0.50300
Cl	Cl	0.66576 0.64822 0.20805 -0.50900
Cl	Cl	0.90411 0.73991 0.23073 -0.48500
Cl	Cl	0.72790 0.80784 0.31475 -0.50800
Cl	Cl	0.58701 0.10175 0.54881 -0.50900
Cl	Cl	0.42440 0.95076 0.92100 -0.39300
Cl	Cl	0.35178 0.33424 0.29195 -0.51100
Cl	Cl	0.26009 0.09589 0.26927 -0.53800
Cl	Cl	0.19216 0.27210 0.18525 -0.52700
Cl	Cl	0.89825 0.41299 0.95119 -0.40800
Cl	Cl	0.95076 0.42440 0.42100 -0.41800
Cl	Cl	0.33424 0.35178 0.79195 -0.51000
Cl	Cl	0.09589 0.26009 0.76927 -0.53700
Cl	Cl	0.27210 0.19216 0.68525 -0.52500
Cl	Cl	0.41299 0.89825 0.45119 -0.45100
Cl	Cl	0.57560 0.04924 0.07900 -0.52300
Cl	Cl	0.64822 0.66576 0.70805 -0.50900
Cl	Cl	0.73991 0.90411 0.73073 -0.48500
Cl	Cl	0.80784 0.72790 0.81475 -0.50600
Cl	Cl	0.10175 0.58701 0.04881 -0.54600
