data_crystal

_cell_length_a 17.35300
_cell_length_b 30.45300
_cell_length_c 17.51100
_cell_angle_alpha 90.00000
_cell_angle_beta  119.54700
_cell_angle_gamma 90.00000

_symmetry_space_group_name_	'P 1'
_symmetry_space_group_name_H-M	'P 1'

loop_
_symmetry_equiv_pos_as_xyz
  x,y,z

loop_
_atom_site_label
_atom_site_type_symbol
_atom_site_fract_x
_atom_site_fract_y
_atom_site_fract_z
_atom_site_charge
C 	C 	0.84170 0.84360 0.23250 0.40700
C 	C 	0.89610 0.77340 0.29380 0.06900
H 	H 	0.93790 0.78900 0.34220 0.01100
C 	C 	0.83560 0.79400 0.22370 -0.17500
C 	C 	0.60660 0.84416 0.26430 0.50000
C 	C 	0.60340 0.79610 0.26280 -0.17700
C 	C 	0.62020 0.77204 0.34160 0.04400
H 	H 	0.63090 0.78730 0.39190 0.01400
C 	C 	0.33980 0.84576 0.23580 0.59100
C 	C 	0.40740 0.77420 0.30500 0.09200
H 	H 	0.45240 0.78900 0.35250 0.00100
C 	C 	0.34680 0.79662 0.24080 -0.22000
C 	C 	0.10430 0.84481 0.26710 0.54000
C 	C 	0.10690 0.79520 0.26960 -0.21600
C 	C 	0.11690 0.77170 0.34770 0.07300
H 	H 	0.12310 0.78720 0.39620 0.00400
C 	C 	0.84770 0.99110 0.19050 0.31600
C 	C 	0.77150 0.01525 0.11950 0.01000
C 	C 	0.78070 0.05059 0.07470 -0.12300
H 	H 	0.83640 0.06270 0.09340 0.06300
C 	C 	0.70800 0.06770 0.00310 0.08600
H 	H 	0.71370 0.08990 0.96960 -0.02300
C 	C 	0.62430 0.05060 0.98190 -0.20800
C 	C 	0.62281 0.01860 0.03900 0.12400
H 	H 	0.56810 0.01130 0.03320 -0.02300
C 	C 	0.54040 0.06600 0.90430 0.47700
C 	C 	0.86440 0.93760 0.40220 0.48700
C 	C 	0.85360 0.95329 0.47780 -0.19000
C 	C 	0.79430 0.93460 0.50030 0.06300
H 	H 	0.75820 0.91130 0.46830 -0.00700
C 	C 	0.79060 0.95210 0.57350 -0.09000
H 	H 	0.75250 0.93980 0.59070 0.05100
C 	C 	0.84370 0.98760 0.61960 -0.02600
C 	C 	0.91210 0.98715 0.53530 0.12100
H 	H 	0.95720 0.99730 0.52580 -0.02200
C 	C 	0.83620 0.00920 0.68970 0.32700
C 	C 	0.66170 0.99030 0.31080 0.34000
C 	C 	0.65510 0.01580 0.38150 -0.00000
C 	C 	0.70360 0.05080 0.42150 -0.12200
H 	H 	0.73840 0.06440 0.40160 0.06600
C 	C 	0.70030 0.06660 0.49640 0.09800
H 	H 	0.73860 0.08900 0.52970 -0.01700
C 	C 	0.64260 0.04990 0.52060 -0.23200
C 	C 	0.58960 0.01393 0.46820 0.12500
H 	H 	0.54780 0.00250 0.48120 -0.02600
C 	C 	0.63910 0.06597 0.59710 0.51600
C 	C 	0.34840 0.98716 0.18830 0.35900
C 	C 	0.27040 0.01140 0.12230 -0.00100
C 	C 	0.27930 0.05042 0.07550 -0.14300
H 	H 	0.33350 0.06410 0.09370 0.07100
C 	C 	0.20390 0.06462 0.00500 0.13800
H 	H 	0.20860 0.08760 0.97240 -0.03200
C 	C 	0.12180 0.04800 0.97800 -0.24900
C 	C 	0.12180 0.01342 0.03270 0.13700
H 	H 	0.06750 0.00390 0.02520 -0.02700
C 	C 	0.03880 0.06310 0.90660 0.48100
N 	N 	0.69510 0.99767 0.10120 -0.25000
N 	N 	0.90480 0.00368 0.59790 -0.23300
N 	N 	0.59580 0.99532 0.40100 -0.25000
N 	N 	0.19500 0.99393 0.09410 -0.24400
Nd	Nd	0.99433 0.92855 0.30436 2.19400
Nd	Nd	0.69020 0.92928 0.19402 2.27100
Nd	Nd	0.49622 0.92810 0.30522 2.26600
Nd	Nd	0.18938 0.92687 0.19359 2.33000
O 	O 	0.90650 0.85998 0.30250 -0.46500
O 	O 	0.78390 0.86543 0.17030 -0.46000
O 	O 	0.63210 0.86363 0.21570 -0.55600
O 	O 	0.59170 0.86374 0.31860 -0.51900
O 	O 	0.41160 0.86314 0.28430 -0.58700
O 	O 	0.26860 0.86092 0.18460 -0.57500
O 	O 	0.12500 0.86143 0.21660 -0.56400
O 	O 	0.09280 0.86592 0.32240 -0.54000
O 	O 	0.92940 0.00261 0.21670 -0.39900
O 	O 	0.83310 0.95479 0.21560 -0.62200
O 	O 	0.54120 0.08757 0.84480 -0.53300
O 	O 	0.46550 0.05580 0.90160 -0.53700
O 	O 	0.92830 0.94890 0.39630 -0.54900
O 	O 	0.79690 0.91466 0.34590 -0.51400
O 	O 	0.88040 0.04692 0.71590 -0.59600
O 	O 	0.78750 0.99879 0.71980 -0.42200
O 	O 	0.71190 0.00392 0.28290 -0.41000
O 	O 	0.62090 0.95479 0.28260 -0.62300
O 	O 	0.70080 0.08621 0.65540 -0.55000
O 	O 	0.57100 0.05349 0.60410 -0.53600
O 	O 	0.42540 0.00036 0.21090 -0.42700
O 	O 	0.33080 0.95298 0.21460 -0.63800
O 	O 	0.04720 0.08670 0.84760 -0.50700
O 	O 	0.96660 0.05487 0.90250 -0.55500
C 	C 	0.27550 0.77073 0.17080 0.14300
C 	C 	0.77480 0.77090 0.14840 0.13100
C 	C 	0.59850 0.77249 0.18870 0.10300
C 	C 	0.10210 0.77200 0.20480 0.15700
H 	H 	0.22870 0.78540 0.12470 -0.01600
H 	H 	0.73450 0.78620 0.09860 -0.01700
H 	H 	0.59530 0.78780 0.14120 -0.00500
H 	H 	0.09840 0.78660 0.15650 -0.01900
N 	N 	0.77480 0.72910 0.14840 -0.19000
N 	N 	0.59850 0.72751 0.18870 -0.16400
N 	N 	0.27550 0.72927 0.17080 -0.18200
N 	N 	0.10210 0.72800 0.20480 -0.18400
C 	C 	0.15830 0.34360 0.76750 0.40900
C 	C 	0.10390 0.27340 0.70620 0.07000
H 	H 	0.06210 0.28900 0.65780 0.01200
C 	C 	0.16440 0.29400 0.77630 -0.17400
C 	C 	0.39340 0.34416 0.73570 0.50100
C 	C 	0.39660 0.29610 0.73720 -0.17600
C 	C 	0.37980 0.27204 0.65840 0.04500
H 	H 	0.36910 0.28730 0.60810 0.01400
C 	C 	0.66020 0.34576 0.76420 0.59100
C 	C 	0.59260 0.27420 0.69500 0.09200
H 	H 	0.54760 0.28900 0.64750 0.00100
C 	C 	0.65320 0.29662 0.75920 -0.22000
C 	C 	0.89570 0.34481 0.73290 0.54000
C 	C 	0.89310 0.29520 0.73040 -0.21700
C 	C 	0.88310 0.27170 0.65230 0.07300
H 	H 	0.87690 0.28720 0.60380 0.00400
C 	C 	0.15230 0.49110 0.80950 0.32400
C 	C 	0.22850 0.51525 0.88050 0.00100
C 	C 	0.21930 0.55059 0.92530 -0.11400
H 	H 	0.16360 0.56270 0.90660 0.05900
C 	C 	0.29200 0.56770 0.99690 0.07600
H 	H 	0.28630 0.58990 0.03040 -0.01900
C 	C 	0.37570 0.55060 0.01810 -0.20100
C 	C 	0.37719 0.51860 0.96100 0.11700
H 	H 	0.43190 0.51130 0.96680 -0.02100
C 	C 	0.45960 0.56600 0.09570 0.47500
C 	C 	0.13560 0.43760 0.59780 0.48800
C 	C 	0.14640 0.45329 0.52220 -0.19200
C 	C 	0.20570 0.43460 0.49970 0.06400
H 	H 	0.24180 0.41130 0.53170 -0.00800
C 	C 	0.20940 0.45210 0.42650 -0.09200
H 	H 	0.24750 0.43980 0.40930 0.05200
C 	C 	0.15630 0.48760 0.38040 -0.02200
C 	C 	0.08790 0.48715 0.46470 0.12400
H 	H 	0.04280 0.49730 0.47420 -0.02300
C 	C 	0.16380 0.50920 0.31030 0.32400
C 	C 	0.33830 0.49030 0.68920 0.34400
C 	C 	0.34490 0.51580 0.61850 -0.00400
C 	C 	0.29640 0.55080 0.57850 -0.12000
H 	H 	0.26160 0.56440 0.59840 0.06500
C 	C 	0.29970 0.56660 0.50360 0.09600
H 	H 	0.26140 0.58900 0.47030 -0.01700
C 	C 	0.35740 0.54990 0.47940 -0.23100
C 	C 	0.41040 0.51393 0.53180 0.12400
H 	H 	0.45220 0.50250 0.51880 -0.02500
C 	C 	0.36090 0.56597 0.40290 0.51600
C 	C 	0.65160 0.48716 0.81170 0.36100
C 	C 	0.72960 0.51140 0.87770 -0.00300
C 	C 	0.72070 0.55042 0.92450 -0.13900
H 	H 	0.66650 0.56410 0.90630 0.07000
C 	C 	0.79610 0.56462 0.99500 0.13100
H 	H 	0.79140 0.58760 0.02760 -0.02900
C 	C 	0.87820 0.54800 0.02200 -0.24400
C 	C 	0.87820 0.51342 0.96730 0.13500
H 	H 	0.93250 0.50390 0.97480 -0.02600
C 	C 	0.96120 0.56310 0.09340 0.48200
N 	N 	0.30490 0.49767 0.89880 -0.24500
N 	N 	0.09520 0.50368 0.40210 -0.23600
N 	N 	0.40420 0.49532 0.59900 -0.24900
N 	N 	0.80500 0.49393 0.90590 -0.24300
Nd	Nd	0.00567 0.42855 0.69564 2.19900
Nd	Nd	0.30980 0.42928 0.80598 2.27300
Nd	Nd	0.50378 0.42810 0.69478 2.26600
Nd	Nd	0.81062 0.42687 0.80641 2.33000
O 	O 	0.09350 0.35998 0.69750 -0.46500
O 	O 	0.21610 0.36543 0.82970 -0.46100
O 	O 	0.36790 0.36363 0.78430 -0.55600
O 	O 	0.40830 0.36374 0.68140 -0.51900
O 	O 	0.58840 0.36314 0.71570 -0.58700
O 	O 	0.73140 0.36092 0.81540 -0.57500
O 	O 	0.87500 0.36143 0.78340 -0.56400
O 	O 	0.90720 0.36592 0.67760 -0.54100
O 	O 	0.07060 0.50261 0.78330 -0.40400
O 	O 	0.16690 0.45479 0.78440 -0.62400
O 	O 	0.45880 0.58757 0.15520 -0.53200
O 	O 	0.53450 0.55580 0.09840 -0.53600
O 	O 	0.07170 0.44890 0.60370 -0.54900
O 	O 	0.20310 0.41466 0.65410 -0.51400
O 	O 	0.11960 0.54692 0.28410 -0.59600
O 	O 	0.21250 0.49879 0.28020 -0.42000
O 	O 	0.28810 0.50392 0.71710 -0.41200
O 	O 	0.37910 0.45479 0.71740 -0.62400
O 	O 	0.29920 0.58621 0.34460 -0.55000
O 	O 	0.42900 0.55349 0.39590 -0.53600
O 	O 	0.57460 0.50036 0.78910 -0.42700
O 	O 	0.66920 0.45298 0.78540 -0.63800
O 	O 	0.95280 0.58670 0.15240 -0.50700
O 	O 	0.03340 0.55487 0.09750 -0.55600
C 	C 	0.72450 0.27073 0.82920 0.14300
C 	C 	0.22520 0.27090 0.85160 0.13100
C 	C 	0.40150 0.27249 0.81130 0.10300
C 	C 	0.89790 0.27200 0.79520 0.15700
H 	H 	0.77130 0.28540 0.87530 -0.01600
H 	H 	0.26550 0.28620 0.90140 -0.01700
H 	H 	0.40470 0.28780 0.85880 -0.00500
H 	H 	0.90160 0.28660 0.84350 -0.02000
N 	N 	0.22520 0.22910 0.85160 -0.19000
N 	N 	0.40150 0.22751 0.81130 -0.16400
N 	N 	0.72450 0.22927 0.82920 -0.18200
N 	N 	0.89790 0.22800 0.79520 -0.18400
C 	C 	0.15830 0.15640 0.76750 0.35000
C 	C 	0.10390 0.22660 0.70620 -0.10000
H 	H 	0.06210 0.21100 0.65780 0.07000
C 	C 	0.16440 0.20600 0.77630 0.00200
C 	C 	0.39340 0.15584 0.73570 0.45800
C 	C 	0.39660 0.20390 0.73720 -0.05600
C 	C 	0.37980 0.22796 0.65840 -0.05700
H 	H 	0.36910 0.21270 0.60810 0.04900
C 	C 	0.66020 0.15424 0.76420 0.53100
C 	C 	0.59260 0.22580 0.69500 -0.06000
H 	H 	0.54760 0.21100 0.64750 0.05200
C 	C 	0.65320 0.20338 0.75920 -0.05500
C 	C 	0.89570 0.15519 0.73290 0.47100
C 	C 	0.89310 0.20480 0.73040 -0.02500
C 	C 	0.88310 0.22830 0.65230 -0.09100
H 	H 	0.87690 0.21280 0.60380 0.05900
C 	C 	0.15230 0.00890 0.80950 0.31600
C 	C 	0.22850 0.98475 0.88050 0.01000
C 	C 	0.21930 0.94941 0.92530 -0.12300
H 	H 	0.16360 0.93730 0.90660 0.06300
C 	C 	0.29200 0.93230 0.99690 0.08600
H 	H 	0.28630 0.91010 0.03040 -0.02300
C 	C 	0.37570 0.94940 0.01810 -0.20800
C 	C 	0.37719 0.98140 0.96100 0.12300
H 	H 	0.43190 0.98870 0.96680 -0.02300
C 	C 	0.45960 0.93400 0.09570 0.47800
C 	C 	0.13560 0.06240 0.59780 0.48600
C 	C 	0.14640 0.04671 0.52220 -0.19000
C 	C 	0.20570 0.06540 0.49970 0.06200
H 	H 	0.24180 0.08870 0.53170 -0.00800
C 	C 	0.20940 0.04790 0.42650 -0.09000
H 	H 	0.24750 0.06020 0.40930 0.05000
C 	C 	0.15630 0.01240 0.38040 -0.02600
C 	C 	0.08790 0.01285 0.46470 0.12200
H 	H 	0.04280 0.00270 0.47420 -0.02200
C 	C 	0.16380 0.99080 0.31030 0.32700
C 	C 	0.33830 0.00970 0.68920 0.34000
C 	C 	0.34490 0.98420 0.61850 -0.00000
C 	C 	0.29640 0.94920 0.57850 -0.12200
H 	H 	0.26160 0.93560 0.59840 0.06600
C 	C 	0.29970 0.93340 0.50360 0.09800
H 	H 	0.26140 0.91100 0.47030 -0.01600
C 	C 	0.35740 0.95010 0.47940 -0.23200
C 	C 	0.41040 0.98607 0.53180 0.12500
H 	H 	0.45220 0.99750 0.51880 -0.02600
C 	C 	0.36090 0.93403 0.40290 0.51700
C 	C 	0.65160 0.01284 0.81170 0.35900
C 	C 	0.72960 0.98860 0.87770 -0.00100
C 	C 	0.72070 0.94958 0.92450 -0.14300
H 	H 	0.66650 0.93590 0.90630 0.07200
C 	C 	0.79610 0.93538 0.99500 0.13800
H 	H 	0.79140 0.91240 0.02760 -0.03100
C 	C 	0.87820 0.95200 0.02200 -0.24900
C 	C 	0.87820 0.98658 0.96730 0.13700
H 	H 	0.93250 0.99610 0.97480 -0.02700
C 	C 	0.96120 0.93690 0.09340 0.48200
N 	N 	0.30490 0.00233 0.89880 -0.25000
N 	N 	0.09520 0.99632 0.40210 -0.23400
N 	N 	0.40420 0.00468 0.59900 -0.25000
N 	N 	0.80500 0.00607 0.90590 -0.24400
Nd	Nd	0.00567 0.07145 0.69564 2.18700
Nd	Nd	0.30980 0.07072 0.80598 2.26400
Nd	Nd	0.50378 0.07190 0.69478 2.25800
Nd	Nd	0.81062 0.07313 0.80641 2.32000
O 	O 	0.09350 0.14002 0.69750 -0.45200
O 	O 	0.21610 0.13457 0.82970 -0.44600
O 	O 	0.36790 0.13637 0.78430 -0.54400
O 	O 	0.40830 0.13626 0.68140 -0.50900
O 	O 	0.58840 0.13686 0.71570 -0.57300
O 	O 	0.73140 0.13908 0.81540 -0.55800
O 	O 	0.87500 0.13857 0.78340 -0.54500
O 	O 	0.90720 0.13408 0.67760 -0.52400
O 	O 	0.07060 0.99739 0.78330 -0.39800
O 	O 	0.16690 0.04521 0.78440 -0.62100
O 	O 	0.45880 0.91243 0.15520 -0.53400
O 	O 	0.53450 0.94420 0.09840 -0.53700
O 	O 	0.07170 0.05110 0.60370 -0.54800
O 	O 	0.20310 0.08534 0.65410 -0.51300
O 	O 	0.11960 0.95308 0.28410 -0.59700
O 	O 	0.21250 0.00121 0.28020 -0.42300
O 	O 	0.28810 0.99608 0.71710 -0.40900
O 	O 	0.37910 0.04521 0.71740 -0.62100
O 	O 	0.29920 0.91379 0.34460 -0.55200
O 	O 	0.42900 0.94651 0.39590 -0.53700
O 	O 	0.57460 0.99964 0.78910 -0.42600
O 	O 	0.66920 0.04702 0.78540 -0.63600
O 	O 	0.95280 0.91330 0.15240 -0.50800
O 	O 	0.03340 0.94513 0.09750 -0.55500
H 	H 	0.77130 0.21460 0.87530 0.10200
H 	H 	0.26550 0.21380 0.90140 0.09900
H 	H 	0.40470 0.21220 0.85880 0.09700
H 	H 	0.90160 0.21340 0.84350 0.10400
C 	C 	0.84170 0.65640 0.23250 0.35000
C 	C 	0.89610 0.72660 0.29380 -0.10000
H 	H 	0.93790 0.71100 0.34220 0.07000
C 	C 	0.83560 0.70600 0.22370 0.00200
C 	C 	0.60660 0.65584 0.26430 0.45800
C 	C 	0.60340 0.70390 0.26280 -0.05600
C 	C 	0.62020 0.72796 0.34160 -0.05700
H 	H 	0.63090 0.71270 0.39190 0.04900
C 	C 	0.33980 0.65424 0.23580 0.53100
C 	C 	0.40740 0.72580 0.30500 -0.06000
H 	H 	0.45240 0.71100 0.35250 0.05200
C 	C 	0.34680 0.70338 0.24080 -0.05500
C 	C 	0.10430 0.65519 0.26710 0.47100
C 	C 	0.10690 0.70480 0.26960 -0.02600
C 	C 	0.11690 0.72830 0.34770 -0.09100
H 	H 	0.12310 0.71280 0.39620 0.05900
C 	C 	0.84770 0.50890 0.19050 0.32400
C 	C 	0.77150 0.48475 0.11950 0.00100
C 	C 	0.78070 0.44941 0.07470 -0.11400
H 	H 	0.83640 0.43730 0.09340 0.05900
C 	C 	0.70800 0.43230 0.00310 0.07600
H 	H 	0.71370 0.41010 0.96960 -0.01900
C 	C 	0.62430 0.44940 0.98190 -0.20100
C 	C 	0.62281 0.48140 0.03900 0.11700
H 	H 	0.56810 0.48870 0.03320 -0.02100
C 	C 	0.54040 0.43400 0.90430 0.47500
C 	C 	0.86440 0.56240 0.40220 0.48700
C 	C 	0.85360 0.54671 0.47780 -0.19100
C 	C 	0.79430 0.56540 0.50030 0.06400
H 	H 	0.75820 0.58870 0.46830 -0.00800
C 	C 	0.79060 0.54790 0.57350 -0.09200
H 	H 	0.75250 0.56020 0.59070 0.05100
C 	C 	0.84370 0.51240 0.61960 -0.02200
C 	C 	0.91210 0.51285 0.53530 0.12400
H 	H 	0.95720 0.50270 0.52580 -0.02300
C 	C 	0.83620 0.49080 0.68970 0.32500
C 	C 	0.66170 0.50970 0.31080 0.34400
C 	C 	0.65510 0.48420 0.38150 -0.00300
C 	C 	0.70360 0.44920 0.42150 -0.12000
H 	H 	0.73840 0.43560 0.40160 0.06500
C 	C 	0.70030 0.43340 0.49640 0.09700
H 	H 	0.73860 0.41100 0.52970 -0.01600
C 	C 	0.64260 0.45010 0.52060 -0.23100
C 	C 	0.58960 0.48607 0.46820 0.12400
H 	H 	0.54780 0.49750 0.48120 -0.02500
C 	C 	0.63910 0.43403 0.59710 0.51700
C 	C 	0.34840 0.51284 0.18830 0.36000
C 	C 	0.27040 0.48860 0.12230 -0.00300
C 	C 	0.27930 0.44958 0.07550 -0.13900
H 	H 	0.33350 0.43590 0.09370 0.07000
C 	C 	0.20390 0.43538 0.00500 0.13100
H 	H 	0.20860 0.41240 0.97240 -0.02800
C 	C 	0.12180 0.45200 0.97800 -0.24400
C 	C 	0.12180 0.48658 0.03270 0.13500
H 	H 	0.06750 0.49610 0.02520 -0.02600
C 	C 	0.03880 0.43690 0.90660 0.48300
N 	N 	0.69510 0.50233 0.10120 -0.24500
N 	N 	0.90480 0.49632 0.59790 -0.23600
N 	N 	0.59580 0.50468 0.40100 -0.24800
N 	N 	0.19500 0.50607 0.09410 -0.24300
Nd	Nd	0.99433 0.57145 0.30436 2.19200
Nd	Nd	0.69020 0.57072 0.19402 2.26500
Nd	Nd	0.49622 0.57190 0.30522 2.25800
Nd	Nd	0.18938 0.57313 0.19359 2.31900
O 	O 	0.90650 0.64002 0.30250 -0.45200
O 	O 	0.78390 0.63457 0.17030 -0.44600
O 	O 	0.63210 0.63637 0.21570 -0.54400
O 	O 	0.59170 0.63626 0.31860 -0.50900
O 	O 	0.41160 0.63686 0.28430 -0.57300
O 	O 	0.26860 0.63908 0.18460 -0.55800
O 	O 	0.12500 0.63857 0.21660 -0.54500
O 	O 	0.09280 0.63408 0.32240 -0.52500
O 	O 	0.92940 0.49739 0.21670 -0.40300
O 	O 	0.83310 0.54521 0.21560 -0.62300
O 	O 	0.54120 0.41243 0.84480 -0.53300
O 	O 	0.46550 0.44420 0.90160 -0.53600
O 	O 	0.92830 0.55110 0.39630 -0.54800
O 	O 	0.79690 0.58534 0.34590 -0.51300
O 	O 	0.88040 0.45308 0.71590 -0.59800
O 	O 	0.78750 0.50121 0.71980 -0.42100
O 	O 	0.71190 0.49608 0.28290 -0.41200
O 	O 	0.62090 0.54521 0.28260 -0.62200
O 	O 	0.70080 0.41379 0.65540 -0.55100
O 	O 	0.57100 0.44651 0.60410 -0.53700
O 	O 	0.42540 0.49964 0.21090 -0.42700
O 	O 	0.33080 0.54702 0.21460 -0.63700
O 	O 	0.04720 0.41330 0.84760 -0.50800
O 	O 	0.96660 0.44513 0.90250 -0.55600
H 	H 	0.22870 0.71460 0.12470 0.10200
H 	H 	0.73450 0.71380 0.09860 0.09900
H 	H 	0.59530 0.71220 0.14120 0.09700
H 	H 	0.09840 0.71340 0.15650 0.10400
