data_crystal

_cell_length_a 12.68350
_cell_length_b 12.68350
_cell_length_c 12.68350
_cell_angle_alpha 83.97690
_cell_angle_beta  83.97690
_cell_angle_gamma 83.97690

_symmetry_space_group_name_	'P 1'
_symmetry_space_group_name_H-M	'P 1'

loop_
_symmetry_equiv_pos_as_xyz
  x,y,z

loop_
_atom_site_label
_atom_site_type_symbol
_atom_site_fract_x
_atom_site_fract_y
_atom_site_fract_z
_atom_site_charge
Cd	Cd	0.48795 0.01205 0.75000 1.24900
Cd	Cd	0.75000 0.48795 0.01205 1.24900
Cd	Cd	0.01205 0.75000 0.48795 1.24900
Cd	Cd	0.51205 0.98795 0.25000 1.24900
Cd	Cd	0.25000 0.51205 0.98795 1.24900
Cd	Cd	0.98795 0.25000 0.51205 1.24900
Ni	Ni	0.47069 0.75000 0.02931 1.09500
Ni	Ni	0.02931 0.47069 0.75000 1.09500
Ni	Ni	0.75000 0.02931 0.47069 1.09500
Ni	Ni	0.52931 0.25000 0.97069 1.09500
Ni	Ni	0.97069 0.52931 0.25000 1.09500
Ni	Ni	0.25000 0.97069 0.52931 1.09500
H 	H 	0.56520 0.63660 0.80840 0.25600
H 	H 	0.48560 0.65350 0.72020 0.25700
H 	H 	0.80840 0.56520 0.63660 0.25600
H 	H 	0.72020 0.48560 0.65350 0.25700
H 	H 	0.63660 0.80840 0.56520 0.25600
H 	H 	0.65350 0.72020 0.48560 0.25700
H 	H 	0.86340 0.93480 0.69160 0.25700
H 	H 	0.84650 0.01440 0.77980 0.25700
H 	H 	0.93480 0.69160 0.86340 0.25700
H 	H 	0.01440 0.77980 0.84650 0.25700
H 	H 	0.69160 0.86340 0.93480 0.25700
H 	H 	0.77980 0.84650 0.01440 0.25700
H 	H 	0.43480 0.36340 0.19160 0.25600
H 	H 	0.51440 0.34650 0.27980 0.25700
H 	H 	0.19160 0.43480 0.36340 0.25600
H 	H 	0.27980 0.51440 0.34650 0.25700
H 	H 	0.36340 0.19160 0.43480 0.25600
H 	H 	0.34650 0.27980 0.51440 0.25700
H 	H 	0.13660 0.06520 0.30840 0.25700
H 	H 	0.15350 0.98560 0.22020 0.25700
H 	H 	0.06520 0.30840 0.13660 0.25700
H 	H 	0.98560 0.22020 0.15350 0.25700
H 	H 	0.30840 0.13660 0.06520 0.25700
H 	H 	0.22020 0.15350 0.98560 0.25700
C 	C 	0.49237 0.78827 0.79367 0.52000
C 	C 	0.49530 0.66880 0.79180 -0.73100
C 	C 	0.41182 0.61762 0.86892 0.53400
C 	C 	0.79367 0.49237 0.78827 0.52000
C 	C 	0.79180 0.49530 0.66880 -0.73100
C 	C 	0.86892 0.41182 0.61762 0.53400
C 	C 	0.78827 0.79367 0.49237 0.52000
C 	C 	0.66880 0.79180 0.49530 -0.73100
C 	C 	0.61762 0.86892 0.41182 0.53400
C 	C 	0.71173 0.00763 0.70633 0.52100
C 	C 	0.83120 0.00470 0.70820 -0.73300
C 	C 	0.88238 0.08818 0.63108 0.53400
C 	C 	0.00763 0.70633 0.71173 0.52100
C 	C 	0.00470 0.70820 0.83120 -0.73300
C 	C 	0.08818 0.63108 0.88238 0.53400
C 	C 	0.70633 0.71173 0.00763 0.52100
C 	C 	0.70820 0.83120 0.00470 -0.73300
C 	C 	0.63108 0.88238 0.08818 0.53400
C 	C 	0.50763 0.21173 0.20633 0.52000
C 	C 	0.50470 0.33120 0.20820 -0.73100
C 	C 	0.58818 0.38238 0.13108 0.53400
C 	C 	0.20633 0.50763 0.21173 0.52000
C 	C 	0.20820 0.50470 0.33120 -0.73100
C 	C 	0.13108 0.58818 0.38238 0.53400
C 	C 	0.21173 0.20633 0.50763 0.52000
C 	C 	0.33120 0.20820 0.50470 -0.73100
C 	C 	0.38238 0.13108 0.58818 0.53400
C 	C 	0.28827 0.99237 0.29367 0.52100
C 	C 	0.16880 0.99530 0.29180 -0.73300
C 	C 	0.11762 0.91182 0.36892 0.53400
C 	C 	0.99237 0.29367 0.28827 0.52100
C 	C 	0.99530 0.29180 0.16880 -0.73300
C 	C 	0.91182 0.36892 0.11762 0.53400
C 	C 	0.29367 0.28827 0.99237 0.52100
C 	C 	0.29180 0.16880 0.99530 -0.73300
C 	C 	0.36892 0.11762 0.91182 0.53400
O 	O 	0.49343 0.84459 0.70515 -0.47500
O 	O 	0.49174 0.83015 0.87905 -0.52300
O 	O 	0.35752 0.55352 0.83492 -0.45900
O 	O 	0.39905 0.63791 0.96457 -0.55100
O 	O 	0.70515 0.49343 0.84459 -0.47500
O 	O 	0.87905 0.49174 0.83015 -0.52300
O 	O 	0.83492 0.35752 0.55352 -0.45900
O 	O 	0.96457 0.39905 0.63791 -0.55100
O 	O 	0.84459 0.70515 0.49343 -0.47500
O 	O 	0.83015 0.87905 0.49174 -0.52300
O 	O 	0.55352 0.83492 0.35752 -0.45900
O 	O 	0.63791 0.96457 0.39905 -0.55100
O 	O 	0.65541 0.00657 0.79485 -0.47500
O 	O 	0.66985 0.00826 0.62095 -0.52300
O 	O 	0.94648 0.14248 0.66508 -0.45900
O 	O 	0.86209 0.10095 0.53543 -0.55100
O 	O 	0.00657 0.79485 0.65541 -0.47500
O 	O 	0.00826 0.62095 0.66985 -0.52300
O 	O 	0.14248 0.66508 0.94648 -0.45900
O 	O 	0.10095 0.53543 0.86209 -0.55100
O 	O 	0.79485 0.65541 0.00657 -0.47500
O 	O 	0.62095 0.66985 0.00826 -0.52300
O 	O 	0.66508 0.94648 0.14248 -0.45900
O 	O 	0.53543 0.86209 0.10095 -0.55100
O 	O 	0.50657 0.15541 0.29485 -0.47500
O 	O 	0.50826 0.16985 0.12095 -0.52300
O 	O 	0.64248 0.44648 0.16508 -0.45900
O 	O 	0.60095 0.36209 0.03543 -0.55100
O 	O 	0.29485 0.50657 0.15541 -0.47500
O 	O 	0.12095 0.50826 0.16985 -0.52300
O 	O 	0.16508 0.64248 0.44648 -0.45900
O 	O 	0.03543 0.60095 0.36209 -0.55100
O 	O 	0.15541 0.29485 0.50657 -0.47500
O 	O 	0.16985 0.12095 0.50826 -0.52300
O 	O 	0.44648 0.16508 0.64248 -0.45900
O 	O 	0.36209 0.03543 0.60095 -0.55100
O 	O 	0.34459 0.99343 0.20515 -0.47500
O 	O 	0.33015 0.99174 0.37905 -0.52300
O 	O 	0.05352 0.85752 0.33492 -0.45900
O 	O 	0.13791 0.89905 0.46457 -0.55100
O 	O 	0.99343 0.20515 0.34459 -0.47500
O 	O 	0.99174 0.37905 0.33015 -0.52300
O 	O 	0.85752 0.33492 0.05352 -0.45900
O 	O 	0.89905 0.46457 0.13791 -0.55100
O 	O 	0.20515 0.34459 0.99343 -0.47500
O 	O 	0.37905 0.33015 0.99174 -0.52300
O 	O 	0.33492 0.05352 0.85752 -0.45900
O 	O 	0.46457 0.13791 0.89905 -0.55100
