data_crystal

_cell_length_a 6.80960
_cell_length_b 12.27000
_cell_length_c 14.13400
_cell_angle_alpha 84.32300
_cell_angle_beta  78.29500
_cell_angle_gamma 79.69600

_symmetry_space_group_name_	'P 1'
_symmetry_space_group_name_H-M	'P 1'

loop_
_symmetry_equiv_pos_as_xyz
  x,y,z

loop_
_atom_site_label
_atom_site_type_symbol
_atom_site_fract_x
_atom_site_fract_y
_atom_site_fract_z
_atom_site_charge
Zn	Zn	0.37202 0.26792 0.69083 1.19500
N 	N 	0.23670 0.17520 0.61430 -0.20200
N 	N 	0.58500 0.35930 0.60970 -0.27300
O 	O 	0.54000 0.15100 0.75700 -0.48700
O 	O 	0.16090 0.38270 0.75360 -0.48600
C 	C 	0.33470 0.12850 0.52840 -0.70000
C 	C 	0.05700 0.14840 0.65190 -0.55500
C 	C 	0.71540 0.32010 0.53050 0.23600
C 	C 	0.62510 0.44250 0.65090 0.07000
C 	C 	0.05870 0.34250 0.83260 0.02800
H 	H 	0.46610 0.14290 0.50110 0.23200
C 	C 	0.24710 0.06100 0.48050 -0.45200
C 	C 	0.95890 0.08020 0.61060 -1.87800
H 	H 	0.98970 0.17760 0.71110 0.46500
H 	H 	0.69630 0.25540 0.50540 -0.03100
C 	C 	0.87810 0.37330 0.48480 -0.00500
C 	C 	0.78590 0.49900 0.61040 -0.11200
H 	H 	0.54220 0.46460 0.70970 -0.03100
C 	C 	0.91420 0.42580 0.89540 0.14600
O 	O 	0.07140 0.24280 0.85780 -0.35000
H 	H 	0.31580 0.03240 0.42130 0.10700
C 	C 	0.04990 0.03680 0.52420 -0.66400
H 	H 	0.83080 0.06420 0.64210 0.47800
H 	H 	0.96560 0.34490 0.42920 0.13300
C 	C 	0.91140 0.47150 0.52290 0.44500
H 	H 	0.80970 0.55690 0.64320 0.07400
C 	C 	0.80140 0.39940 0.98860 0.06200
C 	C 	0.87670 0.54400 0.87920 -0.28900
H 	H 	0.79660 0.32740 0.01780 0.02900
C 	C 	0.69740 0.49930 0.03020 -0.38100
C 	C 	0.74150 0.58750 0.96290 0.12000
H 	H 	0.93120 0.58540 0.82360 0.19300
H 	H 	0.61390 0.50530 0.09180 0.17000
H 	H 	0.69050 0.66300 0.97140 0.00300
C 	C 	0.42040 0.81750 0.16330 0.22500
C 	C 	0.32770 0.90900 0.10020 0.00800
O 	O 	0.45810 0.72090 0.13890 -0.31100
C 	C 	0.27260 0.02500 0.11720 -0.37700
C 	C 	0.29690 0.89710 0.00570 -0.28100
H 	H 	0.27760 0.05800 0.17380 0.07600
C 	C 	0.20880 0.08100 0.03240 -0.21200
C 	C 	0.22530 0.00190 0.96440 -0.15300
H 	H 	0.32050 0.82980 0.97550 0.12200
H 	H 	0.16350 0.15760 0.02350 0.00800
H 	H 	0.19400 0.01660 0.90210 -0.01000
C 	C 	0.25100 0.17940 0.52230 0.57700
H 	H 	0.32590 0.23130 0.48490 -0.18800
C 	C 	0.16300 0.11150 0.47280 0.66400
H 	H 	0.18270 0.11790 0.40490 -0.24000
C 	C 	0.01020 0.04150 0.62550 2.05500
H 	H 	0.91830 0.99910 0.66440 -0.37500
C 	C 	0.10700 0.10840 0.66770 0.07400
H 	H 	0.08260 0.10830 0.73560 -0.20000
C 	C 	0.64390 0.37160 0.51360 -0.10200
H 	H 	0.57510 0.33950 0.47500 0.02900
C 	C 	0.80050 0.42870 0.46620 -0.28400
H 	H 	0.83030 0.43800 0.39820 0.18000
C 	C 	0.84370 0.47230 0.62050 -0.13000
H 	H 	0.90050 0.51180 0.65890 0.15100
C 	C 	0.68800 0.41280 0.66180 0.03500
H 	H 	0.64930 0.40860 0.72960 0.03200
Zn	Zn	0.62798 0.73208 0.30917 1.20900
N 	N 	0.76330 0.82480 0.38570 -0.30600
N 	N 	0.41500 0.64070 0.39030 -0.22500
O 	O 	0.46000 0.84900 0.24300 -0.42000
O 	O 	0.83910 0.61730 0.24640 -0.43000
C 	C 	0.66530 0.87150 0.47160 0.61600
C 	C 	0.94300 0.85160 0.34810 0.54100
C 	C 	0.28460 0.67990 0.46950 -0.19000
C 	C 	0.37490 0.55750 0.34910 -0.08300
C 	C 	0.94130 0.65750 0.16740 0.58700
H 	H 	0.53390 0.85710 0.49890 -0.19300
C 	C 	0.75290 0.93900 0.51950 0.12300
C 	C 	0.04110 0.91980 0.38940 1.80500
H 	H 	0.01030 0.82240 0.28890 -0.42300
H 	H 	0.30370 0.74460 0.49460 0.01700
C 	C 	0.12190 0.62670 0.51520 -0.18900
C 	C 	0.21410 0.50100 0.38960 0.00300
H 	H 	0.45780 0.53540 0.29030 0.04300
C 	C 	0.08580 0.57420 0.10460 -0.42700
O 	O 	0.92860 0.75720 0.14220 -0.27600
H 	H 	0.68420 0.96760 0.57870 0.04000
C 	C 	0.95010 0.96320 0.47580 0.70300
H 	H 	0.16920 0.93580 0.35790 -0.40200
H 	H 	0.03440 0.65510 0.57080 -0.03200
C 	C 	0.08860 0.52850 0.47710 -0.41100
H 	H 	0.19030 0.44310 0.35680 -0.01200
C 	C 	0.19860 0.60060 0.01140 -0.31400
C 	C 	0.12330 0.45600 0.12080 0.00300
H 	H 	0.20340 0.67260 0.98220 0.09700
C 	C 	0.30260 0.50070 0.96980 0.08100
C 	C 	0.25850 0.41250 0.03710 -0.39600
H 	H 	0.06880 0.41460 0.17640 -0.07700
H 	H 	0.38610 0.49470 0.90820 -0.01100
H 	H 	0.30950 0.33700 0.02860 0.11600
C 	C 	0.57960 0.18250 0.83670 0.36300
C 	C 	0.67230 0.09100 0.89980 -0.29000
O 	O 	0.54190 0.27910 0.86110 -0.29500
C 	C 	0.72740 0.97500 0.88280 0.06500
C 	C 	0.70310 0.10290 0.99430 0.00700
H 	H 	0.72240 0.94200 0.82620 0.04500
C 	C 	0.79120 0.91900 0.96760 -0.09800
C 	C 	0.77470 0.99810 0.03560 -0.12300
H 	H 	0.67950 0.17020 0.02450 -0.00100
H 	H 	0.83650 0.84240 0.97650 0.12300
H 	H 	0.80600 0.98340 0.09790 0.16000
C 	C 	0.74900 0.82060 0.47770 -0.40700
H 	H 	0.67410 0.76870 0.51510 0.13300
C 	C 	0.83700 0.88850 0.52720 -0.54400
H 	H 	0.81730 0.88210 0.59510 0.24900
C 	C 	0.98980 0.95850 0.37450 -2.16500
H 	H 	0.08170 0.00090 0.33560 0.44800
C 	C 	0.89300 0.89160 0.33230 -0.01200
H 	H 	0.91740 0.89170 0.26440 0.22100
C 	C 	0.35610 0.62840 0.48640 0.14100
H 	H 	0.42490 0.66050 0.52500 -0.03200
C 	C 	0.19950 0.57130 0.53380 0.25700
H 	H 	0.16970 0.56200 0.60180 -0.12700
C 	C 	0.15630 0.52770 0.37950 0.06500
H 	H 	0.09950 0.48820 0.34110 -0.08000
C 	C 	0.31200 0.58720 0.33820 0.02500
H 	H 	0.35070 0.59140 0.27040 0.00000
Co	Co	-0.00000 0.50000 -0.00000 0.98900
Co	Co	0.50000 0.00000 -0.00000 1.05300
