data_crystal

_cell_length_a 21.89800
_cell_length_b 22.14900
_cell_length_c 24.66300
_cell_angle_alpha 109.97800
_cell_angle_beta  109.83500
_cell_angle_gamma 104.48900

_symmetry_space_group_name_	'P 1'
_symmetry_space_group_name_H-M	'P 1'

loop_
_symmetry_equiv_pos_as_xyz
  x,y,z

loop_
_atom_site_label
_atom_site_type_symbol
_atom_site_fract_x
_atom_site_fract_y
_atom_site_fract_z
_atom_site_charge
C 	C 	0.20870 0.71680 0.39460 -0.08600
H 	H 	0.21000 0.67560 0.36680 0.05900
C 	C 	0.22140 0.73030 0.45790 -0.01700
H 	H 	0.23050 0.69750 0.47250 0.03300
C 	C 	0.22100 0.78980 0.49950 -0.04700
H 	H 	0.23110 0.79830 0.54270 0.04600
C 	C 	0.20580 0.83790 0.47840 -0.05900
H 	H 	0.20460 0.87870 0.50690 0.03300
C 	C 	0.19230 0.82540 0.41470 0.01300
C 	C 	0.19410 0.76450 0.37278 0.03900
C 	C 	0.17960 0.76000 0.30673 -0.10700
H 	H 	0.18090 0.71680 0.27710 0.08400
C 	C 	0.17440 0.87050 0.38346 -0.08800
H 	H 	0.17290 0.91360 0.41310 0.06500
C 	C 	0.23180 0.82740 0.31750 0.03400
C 	C 	0.27750 0.83380 0.29030 -0.07900
H 	H 	0.27840 0.79280 0.26180 0.05600
C 	C 	0.32110 0.89910 0.30450 -0.02500
H 	H 	0.35210 0.90370 0.28560 0.03400
C 	C 	0.32000 0.95930 0.34720 -0.03400
H 	H 	0.35160 0.00480 0.35840 0.03400
C 	C 	0.27220 0.95280 0.37390 -0.07100
H 	H 	0.27020 0.99360 0.40170 0.05100
C 	C 	0.22930 0.88760 0.35900 0.02300
C 	C 	0.10757 0.76277 0.27997 0.05600
C 	C 	0.10403 0.82206 0.32167 0.04400
C 	C 	0.04313 0.83413 0.30478 -0.12200
C 	C 	0.98513 0.78606 0.24455 -0.00900
H 	H 	0.94300 0.79390 0.23140 0.04300
C 	C 	0.98735 0.72741 0.20355 -0.00700
H 	H 	0.94630 0.69470 0.16300 0.03300
C 	C 	0.04894 0.71493 0.22031 -0.12700
C 	C 	0.04821 0.65193 0.17102 0.40100
C 	C 	0.03471 0.89405 0.34741 0.39500
C 	C 	0.27770 0.22316 0.65858 0.02700
C 	C 	0.30070 0.17790 0.67720 -0.07700
H 	H 	0.26760 0.13210 0.66380 0.06400
C 	C 	0.37220 0.19950 0.71540 -0.02100
H 	H 	0.38870 0.16890 0.72930 0.03900
C 	C 	0.42070 0.26590 0.73380 -0.03200
H 	H 	0.47020 0.28030 0.75950 0.04500
C 	C 	0.39680 0.31090 0.71490 -0.07100
H 	H 	0.42980 0.35650 0.72780 0.05600
C 	C 	0.32530 0.28965 0.67731 0.03100
C 	C 	0.20156 0.20835 0.61584 -0.08300
H 	H 	0.16670 0.16020 0.60180 0.04900
C 	C 	0.28999 0.33186 0.65143 -0.10000
H 	H 	0.32510 0.38020 0.66620 0.07700
C 	C 	0.18602 0.26693 0.65467 0.00400
C 	C 	0.23339 0.33371 0.67284 0.04200
C 	C 	0.22400 0.39270 0.70592 -0.08800
H 	H 	0.25580 0.43850 0.71800 0.06700
C 	C 	0.16810 0.38460 0.72120 -0.00900
H 	H 	0.16110 0.42500 0.74270 0.03600
C 	C 	0.12230 0.31880 0.70560 -0.05100
H 	H 	0.08540 0.31390 0.71800 0.04900
C 	C 	0.13100 0.25920 0.67137 -0.05300
H 	H 	0.09930 0.21350 0.65960 0.02700
C 	C 	0.20250 0.22009 0.55778 0.04100
C 	C 	0.25210 0.28715 0.57765 0.04300
C 	C 	0.25960 0.30850 0.53220 -0.09800
C 	C 	0.21650 0.26130 0.46660 -0.02100
H 	H 	0.22100 0.27480 0.43500 0.04500
C 	C 	0.16720 0.19540 0.44630 -0.00400
H 	H 	0.13760 0.16420 0.40100 0.04400
C 	C 	0.16070 0.17414 0.49196 -0.11900
C 	C 	0.10573 0.10204 0.46641 0.39600
C 	C 	0.31290 0.37860 0.54960 0.34200
C 	C 	0.79060 0.15718 0.33178 0.00600
C 	C 	0.85200 0.21230 0.38420 -0.05500
H 	H 	0.88280 0.20510 0.41690 0.03800
C 	C 	0.86750 0.27800 0.38780 -0.04400
H 	H 	0.90870 0.31710 0.42460 0.04200
C 	C 	0.82490 0.28890 0.33940 -0.00900
H 	H 	0.83710 0.33490 0.34300 0.03500
C 	C 	0.76550 0.23380 0.28670 -0.09000
H 	H 	0.73670 0.24070 0.25270 0.07200
C 	C 	0.74750 0.16805 0.28310 0.04900
C 	C 	0.76470 0.08139 0.31953 -0.07100
H 	H 	0.79660 0.07460 0.35490 0.04600
C 	C 	0.68446 0.10082 0.22872 -0.10400
H 	H 	0.65240 0.10810 0.19380 0.06200
C 	C 	0.68970 0.06094 0.31113 0.01900
C 	C 	0.66390 0.03620 0.34727 -0.06800
H 	H 	0.69380 0.02900 0.38040 0.04800
C 	C 	0.59300 0.02210 0.33400 -0.03300
H 	H 	0.57440 0.00540 0.35820 0.03500
C 	C 	0.55070 0.03270 0.28580 -0.03400
H 	H 	0.50280 0.02380 0.27730 0.03100
C 	C 	0.57690 0.05640 0.24840 -0.07500
H 	H 	0.54650 0.06190 0.21410 0.03300
C 	C 	0.64680 0.07140 0.26226 0.02300
C 	C 	0.76008 0.03989 0.25303 0.01600
C 	C 	0.71706 0.05080 0.20370 0.06000
C 	C 	0.70918 0.01844 0.14056 -0.14100
C 	C 	0.74476 0.97478 0.12769 0.02300
H 	H 	0.73800 0.95080 0.08460 0.03400
C 	C 	0.78891 0.96641 0.17640 -0.03800
H 	H 	0.81510 0.93930 0.16760 0.05300
C 	C 	0.79584 0.99795 0.23999 -0.06600
C 	C 	0.84270 0.98646 0.29198 0.32100
C 	C 	0.66351 0.02778 0.08650 0.40300
C 	C 	0.57663 0.34431 0.92903 0.02600
C 	C 	0.52570 0.36120 0.94424 -0.06900
H 	H 	0.49320 0.32950 0.94990 0.05500
C 	C 	0.52300 0.42550 0.95109 -0.03200
H 	H 	0.48850 0.43780 0.96170 0.03600
C 	C 	0.56980 0.47110 0.94265 -0.02500
H 	H 	0.56730 0.51480 0.94790 0.03300
C 	C 	0.62100 0.45475 0.92645 -0.07800
H 	H 	0.65300 0.48680 0.92070 0.06000
C 	C 	0.62399 0.39050 0.91900 0.03300
C 	C 	0.58839 0.27756 0.91900 -0.08600
H 	H 	0.55510 0.24390 0.92550 0.06800
C 	C 	0.67408 0.36291 0.89968 -0.10200
H 	H 	0.70750 0.39640 0.89320 0.07700
C 	C 	0.58181 0.24595 0.85041 0.01900
C 	C 	0.62748 0.29201 0.83960 0.03500
C 	C 	0.62860 0.27220 0.77956 -0.07700
H 	H 	0.66100 0.30390 0.77380 0.05600
C 	C 	0.58170 0.20630 0.72969 -0.02700
H 	H 	0.58040 0.19190 0.68820 0.03500
C 	C 	0.53610 0.16020 0.73970 -0.03500
H 	H 	0.50390 0.11430 0.70470 0.03700
C 	C 	0.53643 0.18000 0.80080 -0.07200
H 	H 	0.50540 0.14760 0.80710 0.05000
C 	C 	0.69414 0.28151 0.01271 -0.08100
C 	C 	0.66651 0.30149 0.96509 0.02900
C 	C 	0.71219 0.34568 0.95303 0.06100
C 	C 	0.78445 0.37088 0.98820 -0.12500
C 	C 	0.81269 0.35324 0.03731 0.00500
H 	H 	0.86290 0.37210 0.06320 0.02700
C 	C 	0.76739 0.30798 0.04845 -0.03200
H 	H 	0.78720 0.29510 0.08120 0.05200
C 	C 	0.64955 0.23256 0.02777 0.31100
C 	C 	0.83419 0.41307 0.97216 0.40200
C 	C 	0.40035 0.56325 0.76709 0.02800
C 	C 	0.42590 0.51347 0.77208 -0.07800
H 	H 	0.42570 0.48000 0.73560 0.06400
C 	C 	0.45200 0.51348 0.83234 -0.02900
H 	H 	0.46790 0.47830 0.83610 0.03900
C 	C 	0.45500 0.56340 0.88641 -0.02500
H 	H 	0.47430 0.56310 0.92710 0.03500
C 	C 	0.42992 0.61440 0.88182 -0.07900
H 	H 	0.43150 0.64880 0.91880 0.06800
C 	C 	0.40256 0.61365 0.82185 0.03000
C 	C 	0.36736 0.57052 0.70579 -0.09500
H 	H 	0.36470 0.53380 0.66660 0.07500
C 	C 	0.37067 0.66390 0.80683 -0.09600
H 	H 	0.37210 0.69990 0.84560 0.07600
C 	C 	0.29470 0.56712 0.69830 0.03000
C 	C 	0.23090 0.51890 0.64450 -0.07500
H 	H 	0.22920 0.48570 0.60670 0.06000
C 	C 	0.16860 0.52050 0.64730 -0.02700
H 	H 	0.12370 0.48750 0.61070 0.03800
C 	C 	0.17030 0.56860 0.70200 -0.03000
H 	H 	0.12700 0.56770 0.70290 0.03800
C 	C 	0.23500 0.61780 0.75500 -0.07400
H 	H 	0.23710 0.65200 0.79240 0.05700
C 	C 	0.29680 0.61620 0.75240 0.03100
C 	C 	0.41122 0.64508 0.72232 0.04600
C 	C 	0.41319 0.69642 0.77731 0.05100
C 	C 	0.45329 0.76647 0.79989 -0.12300
C 	C 	0.49437 0.78541 0.77061 -0.00100
H 	H 	0.52350 0.83390 0.78770 0.03100
C 	C 	0.49401 0.73583 0.71755 -0.01700
H 	H 	0.52270 0.74990 0.69880 0.03100
C 	C 	0.45052 0.66469 0.69224 -0.10900
C 	C 	0.44950 0.61290 0.63259 0.39600
C 	C 	0.45386 0.82445 0.85514 0.42100
C 	C 	0.28390 0.35748 0.14756 0.02100
C 	C 	0.30940 0.35860 0.10291 -0.06500
H 	H 	0.28540 0.36760 0.06850 0.05100
C 	C 	0.36980 0.34660 0.10930 -0.03200
H 	H 	0.38760 0.34710 0.07920 0.04000
C 	C 	0.40400 0.33400 0.15950 -0.02100
H 	H 	0.44570 0.32610 0.16400 0.04400
C 	C 	0.37850 0.33260 0.20480 -0.08100
H 	H 	0.40270 0.32350 0.23910 0.06800
C 	C 	0.31820 0.34454 0.19871 0.03500
C 	C 	0.21850 0.36989 0.14888 -0.08200
H 	H 	0.19290 0.37910 0.11250 0.06200
C 	C 	0.28190 0.34479 0.24227 -0.10200
H 	H 	0.30680 0.33470 0.27820 0.07100
C 	C 	0.17230 0.30650 0.14760 0.01700
C 	C 	0.20580 0.29230 0.19820 0.03400
C 	C 	0.16940 0.23530 0.20300 -0.08000
H 	H 	0.19220 0.22580 0.23750 0.05200
C 	C 	0.10050 0.19310 0.15750 -0.02000
H 	H 	0.07480 0.15380 0.16040 0.03500
C 	C 	0.06720 0.20630 0.10740 -0.03700
H 	H 	0.01910 0.17540 0.07560 0.03800
C 	C 	0.10210 0.26330 0.10230 -0.06400
H 	H 	0.07830 0.27280 0.06810 0.03900
C 	C 	0.24575 0.43132 0.21649 0.02900
C 	C 	0.27942 0.41660 0.26762 0.05800
C 	C 	0.30400 0.46491 0.33190 -0.12400
C 	C 	0.29430 0.52790 0.34506 0.00000
H 	H 	0.30960 0.56080 0.38880 0.03000
C 	C 	0.26280 0.54190 0.29498 -0.02900
H 	H 	0.25760 0.58510 0.30470 0.05000
C 	C 	0.23822 0.49363 0.22962 -0.08200
C 	C 	0.20531 0.51359 0.17820 0.32100
C 	C 	0.34175 0.45495 0.38892 0.38200
O 	O 	0.10730 0.64941 0.17931 -0.50400
O 	O 	0.98967 0.60654 0.12606 -0.49600
O 	O 	0.99047 0.91411 0.31841 -0.47400
O 	O 	0.06893 0.91955 0.40766 -0.51100
O 	O 	0.03610 0.50049 0.05804 -0.76700
O 	O 	0.88728 0.46513 0.01863 -0.49800
O 	O 	0.95889 0.97030 0.43418 -0.77600
H 	H 	0.92210 0.92070 0.41160 0.14900
O 	O 	0.05454 0.07919 0.41073 -0.50100
O 	O 	0.11380 0.07003 0.49911 -0.49500
O 	O 	0.90515 0.99919 0.29777 -0.45400
O 	O 	0.82002 0.96626 0.32565 -0.33300
O 	O 	0.62964 0.97632 0.03124 -0.50600
O 	O 	0.66282 0.08728 0.10040 -0.51700
O 	O 	0.36583 0.41397 0.60251 -0.34100
O 	O 	0.29991 0.39622 0.50415 -0.47800
O 	O 	0.47900 0.94277 0.00656 -0.96800
O 	O 	0.50800 0.88090 0.88751 -0.52900
O 	O 	0.67814 0.19538 0.04768 -0.46300
O 	O 	0.59001 0.22911 0.02120 -0.34000
O 	O 	0.39940 0.81248 0.86344 -0.49000
O 	O 	0.38994 0.56400 0.59040 -0.49500
O 	O 	0.50656 0.62312 0.62913 -0.49600
O 	O 	0.46500 0.47701 0.53017 -0.90200
O 	O 	0.33394 0.48348 0.43916 -0.49400
O 	O 	0.38021 0.42159 0.38458 -0.50500
O 	O 	0.20612 0.48846 0.12497 -0.33100
O 	O 	0.17764 0.55666 0.19404 -0.45300
O 	O 	0.81765 0.39136 0.91231 -0.50900
Zn	Zn	0.12539 0.57507 0.12556 1.22500
Zn	Zn	0.96743 0.54953 0.03084 1.17500
Zn	Zn	0.05649 0.97118 0.48800 1.17800
Zn	Zn	0.97126 0.99189 0.36675 1.22700
Zn	Zn	0.54428 0.97198 0.96488 1.19500
Zn	Zn	0.61062 0.13403 0.05992 1.22600
Zn	Zn	0.37324 0.47659 0.51976 1.22700
Zn	Zn	0.46891 0.42234 0.44470 1.18700
H 	H 	0.50600 0.94100 0.03800 0.33100
H 	H 	0.47500 0.46000 0.55700 0.26500
H 	H 	0.00800 0.45500 0.06100 0.11200
C 	C 	0.79130 0.28320 0.60540 -0.08500
H 	H 	0.79000 0.32440 0.63320 0.06000
C 	C 	0.77860 0.26970 0.54210 -0.01600
H 	H 	0.76950 0.30250 0.52750 0.03400
C 	C 	0.77900 0.21020 0.50050 -0.04700
H 	H 	0.76890 0.20170 0.45730 0.04600
C 	C 	0.79420 0.16210 0.52160 -0.05900
H 	H 	0.79540 0.12130 0.49310 0.03300
C 	C 	0.80770 0.17460 0.58530 0.01300
C 	C 	0.80590 0.23550 0.62722 0.03900
C 	C 	0.82040 0.24000 0.69327 -0.10700
H 	H 	0.81910 0.28320 0.72290 0.08400
C 	C 	0.82560 0.12950 0.61654 -0.08800
H 	H 	0.82710 0.08640 0.58690 0.06500
C 	C 	0.76820 0.17260 0.68250 0.03400
C 	C 	0.72250 0.16620 0.70970 -0.07900
H 	H 	0.72160 0.20720 0.73820 0.05600
C 	C 	0.67890 0.10090 0.69550 -0.02500
H 	H 	0.64790 0.09630 0.71440 0.03400
C 	C 	0.68000 0.04070 0.65280 -0.03400
H 	H 	0.64840 0.99520 0.64160 0.03400
C 	C 	0.72780 0.04720 0.62610 -0.07100
H 	H 	0.72980 0.00640 0.59830 0.05100
C 	C 	0.77070 0.11240 0.64100 0.02300
C 	C 	0.89243 0.23723 0.72003 0.05600
C 	C 	0.89597 0.17794 0.67833 0.04400
C 	C 	0.95687 0.16587 0.69522 -0.12200
C 	C 	0.01487 0.21394 0.75545 -0.00900
H 	H 	0.05700 0.20610 0.76860 0.04300
C 	C 	0.01265 0.27259 0.79645 -0.00700
H 	H 	0.05370 0.30530 0.83700 0.03300
C 	C 	0.95106 0.28507 0.77969 -0.12700
C 	C 	0.95179 0.34807 0.82898 0.40100
C 	C 	0.96529 0.10595 0.65259 0.39500
C 	C 	0.72230 0.77684 0.34142 0.02700
C 	C 	0.69930 0.82210 0.32280 -0.07700
H 	H 	0.73240 0.86790 0.33620 0.06400
C 	C 	0.62780 0.80050 0.28460 -0.02100
H 	H 	0.61130 0.83110 0.27070 0.03900
C 	C 	0.57930 0.73410 0.26620 -0.03200
H 	H 	0.52980 0.71970 0.24050 0.04500
C 	C 	0.60320 0.68910 0.28510 -0.07100
H 	H 	0.57020 0.64350 0.27220 0.05600
C 	C 	0.67470 0.71035 0.32269 0.03100
C 	C 	0.79844 0.79165 0.38416 -0.08300
H 	H 	0.83330 0.83980 0.39820 0.04900
C 	C 	0.71001 0.66814 0.34857 -0.10000
H 	H 	0.67490 0.61980 0.33380 0.07700
C 	C 	0.81398 0.73307 0.34533 0.00400
C 	C 	0.76661 0.66629 0.32716 0.04200
C 	C 	0.77600 0.60730 0.29408 -0.08800
H 	H 	0.74420 0.56150 0.28200 0.06700
C 	C 	0.83190 0.61540 0.27880 -0.00900
H 	H 	0.83890 0.57500 0.25730 0.03600
C 	C 	0.87770 0.68120 0.29440 -0.05100
H 	H 	0.91460 0.68610 0.28200 0.04900
C 	C 	0.86900 0.74080 0.32863 -0.05300
H 	H 	0.90070 0.78650 0.34040 0.02700
C 	C 	0.79750 0.77991 0.44222 0.04100
C 	C 	0.74790 0.71285 0.42235 0.04300
C 	C 	0.74040 0.69150 0.46780 -0.09800
C 	C 	0.78350 0.73870 0.53340 -0.02100
H 	H 	0.77900 0.72520 0.56500 0.04500
C 	C 	0.83280 0.80460 0.55370 -0.00400
H 	H 	0.86240 0.83580 0.59900 0.04400
C 	C 	0.83930 0.82586 0.50804 -0.11900
C 	C 	0.89427 0.89796 0.53359 0.39600
C 	C 	0.68710 0.62140 0.45040 0.34200
C 	C 	0.20940 0.84282 0.66822 0.00600
C 	C 	0.14800 0.78770 0.61580 -0.05500
H 	H 	0.11720 0.79490 0.58310 0.03800
C 	C 	0.13250 0.72200 0.61220 -0.04400
H 	H 	0.09130 0.68290 0.57540 0.04200
C 	C 	0.17510 0.71110 0.66060 -0.00900
H 	H 	0.16290 0.66510 0.65700 0.03500
C 	C 	0.23450 0.76620 0.71330 -0.09000
H 	H 	0.26330 0.75930 0.74730 0.07200
C 	C 	0.25250 0.83195 0.71690 0.04900
C 	C 	0.23530 0.91861 0.68047 -0.07100
H 	H 	0.20340 0.92540 0.64510 0.04600
C 	C 	0.31554 0.89918 0.77128 -0.10400
H 	H 	0.34760 0.89190 0.80620 0.06200
C 	C 	0.31030 0.93906 0.68887 0.01900
C 	C 	0.33610 0.96380 0.65273 -0.06800
H 	H 	0.30620 0.97100 0.61960 0.04800
C 	C 	0.40700 0.97790 0.66600 -0.03300
H 	H 	0.42560 0.99460 0.64180 0.03500
C 	C 	0.44930 0.96730 0.71420 -0.03400
H 	H 	0.49720 0.97620 0.72270 0.03100
C 	C 	0.42310 0.94360 0.75160 -0.07500
H 	H 	0.45350 0.93810 0.78590 0.03300
C 	C 	0.35320 0.92860 0.73774 0.02300
C 	C 	0.23992 0.96011 0.74697 0.01600
C 	C 	0.28294 0.94920 0.79630 0.06000
C 	C 	0.29082 0.98156 0.85944 -0.14100
C 	C 	0.25524 0.02522 0.87231 0.02300
H 	H 	0.26200 0.04920 0.91540 0.03400
C 	C 	0.21109 0.03359 0.82360 -0.03800
H 	H 	0.18490 0.06070 0.83240 0.05300
C 	C 	0.20416 0.00205 0.76001 -0.06600
C 	C 	0.15730 0.01354 0.70802 0.32100
C 	C 	0.33649 0.97222 0.91350 0.40300
C 	C 	0.42337 0.65569 0.07097 0.02600
C 	C 	0.47430 0.63880 0.05576 -0.06900
H 	H 	0.50680 0.67050 0.05010 0.05500
C 	C 	0.47700 0.57450 0.04891 -0.03200
H 	H 	0.51150 0.56220 0.03830 0.03600
C 	C 	0.43020 0.52890 0.05735 -0.02500
H 	H 	0.43270 0.48520 0.05210 0.03300
C 	C 	0.37900 0.54525 0.07355 -0.07800
H 	H 	0.34700 0.51320 0.07930 0.06000
C 	C 	0.37601 0.60950 0.08100 0.03300
C 	C 	0.41161 0.72244 0.08100 -0.08600
H 	H 	0.44490 0.75610 0.07450 0.06800
C 	C 	0.32592 0.63709 0.10032 -0.10200
H 	H 	0.29250 0.60360 0.10680 0.07700
C 	C 	0.41819 0.75405 0.14959 0.01900
C 	C 	0.37252 0.70799 0.16040 0.03500
C 	C 	0.37140 0.72780 0.22044 -0.07700
H 	H 	0.33900 0.69610 0.22620 0.05600
C 	C 	0.41830 0.79370 0.27031 -0.02700
H 	H 	0.41960 0.80810 0.31180 0.03500
C 	C 	0.46390 0.83980 0.26030 -0.03500
H 	H 	0.49610 0.88570 0.29530 0.03700
C 	C 	0.46357 0.82000 0.19920 -0.07200
H 	H 	0.49460 0.85240 0.19290 0.05000
C 	C 	0.30586 0.71849 0.98729 -0.08100
C 	C 	0.33349 0.69851 0.03491 0.02900
C 	C 	0.28781 0.65432 0.04697 0.06100
C 	C 	0.21555 0.62912 0.01180 -0.12500
C 	C 	0.18731 0.64676 0.96269 0.00500
H 	H 	0.13710 0.62790 0.93680 0.02700
C 	C 	0.23261 0.69202 0.95155 -0.03200
H 	H 	0.21280 0.70490 0.91880 0.05200
C 	C 	0.35045 0.76744 0.97223 0.31100
C 	C 	0.16581 0.58693 0.02784 0.40200
C 	C 	0.59965 0.43675 0.23291 0.02800
C 	C 	0.57410 0.48653 0.22792 -0.07800
H 	H 	0.57430 0.52000 0.26440 0.06400
C 	C 	0.54800 0.48652 0.16766 -0.02900
H 	H 	0.53210 0.52170 0.16390 0.03900
C 	C 	0.54500 0.43660 0.11359 -0.02500
H 	H 	0.52570 0.43690 0.07290 0.03500
C 	C 	0.57008 0.38560 0.11818 -0.07900
H 	H 	0.56850 0.35120 0.08120 0.06800
C 	C 	0.59744 0.38635 0.17815 0.03000
C 	C 	0.63264 0.42948 0.29421 -0.09500
H 	H 	0.63530 0.46620 0.33340 0.07500
C 	C 	0.62933 0.33610 0.19317 -0.09600
H 	H 	0.62790 0.30010 0.15440 0.07600
C 	C 	0.70530 0.43288 0.30170 0.03000
C 	C 	0.76910 0.48110 0.35550 -0.07500
H 	H 	0.77080 0.51430 0.39330 0.06000
C 	C 	0.83140 0.47950 0.35270 -0.02700
H 	H 	0.87630 0.51250 0.38930 0.03800
C 	C 	0.82970 0.43140 0.29800 -0.03000
H 	H 	0.87300 0.43230 0.29710 0.03800
C 	C 	0.76500 0.38220 0.24500 -0.07400
H 	H 	0.76290 0.34800 0.20760 0.05700
C 	C 	0.70320 0.38380 0.24760 0.03100
C 	C 	0.58878 0.35492 0.27768 0.04600
C 	C 	0.58681 0.30358 0.22269 0.05100
C 	C 	0.54671 0.23353 0.20011 -0.12300
C 	C 	0.50563 0.21459 0.22939 -0.00100
H 	H 	0.47650 0.16610 0.21230 0.03100
C 	C 	0.50599 0.26417 0.28245 -0.01700
H 	H 	0.47730 0.25010 0.30120 0.03100
C 	C 	0.54948 0.33531 0.30776 -0.10900
C 	C 	0.55050 0.38710 0.36741 0.39600
C 	C 	0.54614 0.17555 0.14486 0.42100
C 	C 	0.71610 0.64252 0.85244 0.02100
C 	C 	0.69060 0.64140 0.89709 -0.06500
H 	H 	0.71460 0.63240 0.93150 0.05100
C 	C 	0.63020 0.65340 0.89070 -0.03200
H 	H 	0.61240 0.65290 0.92080 0.04000
C 	C 	0.59600 0.66600 0.84050 -0.02100
H 	H 	0.55430 0.67390 0.83600 0.04400
C 	C 	0.62150 0.66740 0.79520 -0.08100
H 	H 	0.59730 0.67650 0.76090 0.06800
C 	C 	0.68180 0.65546 0.80129 0.03500
C 	C 	0.78150 0.63011 0.85112 -0.08200
H 	H 	0.80710 0.62090 0.88750 0.06200
C 	C 	0.71810 0.65521 0.75773 -0.10200
H 	H 	0.69320 0.66530 0.72180 0.07100
C 	C 	0.82770 0.69350 0.85240 0.01700
C 	C 	0.79420 0.70770 0.80180 0.03400
C 	C 	0.83060 0.76470 0.79700 -0.08000
H 	H 	0.80780 0.77420 0.76250 0.05200
C 	C 	0.89950 0.80690 0.84250 -0.02000
H 	H 	0.92520 0.84620 0.83960 0.03500
C 	C 	0.93280 0.79370 0.89260 -0.03700
H 	H 	0.98090 0.82460 0.92440 0.03800
C 	C 	0.89790 0.73670 0.89770 -0.06400
H 	H 	0.92170 0.72720 0.93190 0.03900
C 	C 	0.75425 0.56868 0.78351 0.02900
C 	C 	0.72058 0.58340 0.73238 0.05800
C 	C 	0.69600 0.53509 0.66810 -0.12400
C 	C 	0.70570 0.47210 0.65494 0.00000
H 	H 	0.69040 0.43920 0.61120 0.03000
C 	C 	0.73720 0.45810 0.70502 -0.02900
H 	H 	0.74240 0.41490 0.69530 0.05000
C 	C 	0.76178 0.50637 0.77038 -0.08200
C 	C 	0.79469 0.48641 0.82180 0.32100
C 	C 	0.65825 0.54505 0.61108 0.38200
O 	O 	0.89270 0.35059 0.82069 -0.50400
O 	O 	0.01033 0.39346 0.87394 -0.49600
O 	O 	0.00953 0.08589 0.68159 -0.47400
O 	O 	0.93107 0.08045 0.59234 -0.51100
O 	O 	0.96390 0.49951 0.94196 -0.76700
O 	O 	0.11272 0.53487 0.98137 -0.49800
O 	O 	0.04111 0.02970 0.56582 -0.77600
H 	H 	0.07790 0.07930 0.58840 0.14900
O 	O 	0.94546 0.92081 0.58927 -0.50100
O 	O 	0.88620 0.92997 0.50089 -0.49500
O 	O 	0.09485 0.00081 0.70223 -0.45400
O 	O 	0.17998 0.03374 0.67435 -0.33300
O 	O 	0.37036 0.02368 0.96876 -0.50600
O 	O 	0.33718 0.91272 0.89960 -0.51700
O 	O 	0.63417 0.58603 0.39749 -0.34100
O 	O 	0.70009 0.60378 0.49585 -0.47800
O 	O 	0.52100 0.05723 0.99344 -0.96800
O 	O 	0.49200 0.11910 0.11249 -0.52900
O 	O 	0.32186 0.80462 0.95232 -0.46300
O 	O 	0.40999 0.77089 0.97880 -0.34000
O 	O 	0.60060 0.18752 0.13656 -0.49000
O 	O 	0.61006 0.43600 0.40960 -0.49500
O 	O 	0.49344 0.37688 0.37087 -0.49600
O 	O 	0.53500 0.52299 0.46983 -0.90200
O 	O 	0.66606 0.51652 0.56084 -0.49400
O 	O 	0.61979 0.57841 0.61542 -0.50500
O 	O 	0.79388 0.51154 0.87503 -0.33100
O 	O 	0.82236 0.44334 0.80596 -0.45300
O 	O 	0.18235 0.60864 0.08769 -0.50900
Zn	Zn	0.87461 0.42493 0.87444 1.22500
Zn	Zn	0.03257 0.45047 0.96916 1.17500
Zn	Zn	0.94351 0.02882 0.51200 1.17800
Zn	Zn	0.02874 0.00811 0.63325 1.22700
Zn	Zn	0.45572 0.02802 0.03512 1.19500
Zn	Zn	0.38938 0.86597 0.94008 1.22600
Zn	Zn	0.62676 0.52341 0.48024 1.22700
Zn	Zn	0.53109 0.57766 0.55530 1.18700
H 	H 	0.49400 0.05900 0.96200 0.33100
H 	H 	0.52500 0.54000 0.44300 0.26500
H 	H 	0.99200 0.54500 0.93900 0.11200
