data_crystal

_cell_length_a 11.31080
_cell_length_b 11.31080
_cell_length_c 25.23800
_cell_angle_alpha 90.00000
_cell_angle_beta  90.00000
_cell_angle_gamma 90.00000

_symmetry_space_group_name_	'P 1'
_symmetry_space_group_name_H-M	'P 1'

loop_
_symmetry_equiv_pos_as_xyz
  x,y,z

loop_
_atom_site_label
_atom_site_type_symbol
_atom_site_fract_x
_atom_site_fract_y
_atom_site_fract_z
_atom_site_charge
Co	Co	0.50000 0.29678 -0.00000 1.19100
Co	Co	0.50000 0.70322 0.50000 1.20300
Co	Co	0.70322 0.50000 0.25000 1.20300
Co	Co	0.29678 0.50000 0.75000 1.20200
Co	Co	0.40371 0.40371 0.87500 1.20000
Co	Co	0.59629 0.59629 0.37500 1.20000
Co	Co	0.59629 0.40371 0.12500 1.20000
Co	Co	0.40371 0.59629 0.62500 1.20000
H 	H 	0.44100 0.57580 0.03870 0.14900
H 	H 	0.32990 0.05210 0.81920 0.05000
H 	H 	0.41980 0.75610 0.93830 0.04900
H 	H 	0.43210 0.94870 0.96290 0.06000
H 	H 	0.30310 0.85960 0.79550 0.04800
H 	H 	0.17820 0.70570 0.98270 0.09000
H 	H 	0.10300 0.61460 0.01630 0.06100
H 	H 	0.18850 0.50080 0.94620 0.15300
H 	H 	0.23940 0.60410 0.07870 0.03300
H 	H 	0.29130 0.72130 0.05380 0.02100
H 	H 	0.55900 0.42420 0.53870 0.14800
H 	H 	0.67010 0.94790 0.31920 0.04800
H 	H 	0.58020 0.24390 0.43830 0.04600
H 	H 	0.56790 0.05130 0.46290 0.05100
H 	H 	0.69690 0.14040 0.29550 0.04900
H 	H 	0.82180 0.29430 0.48270 0.04200
H 	H 	0.89700 0.38540 0.51630 0.03800
H 	H 	0.81150 0.49920 0.44620 0.15500
H 	H 	0.76060 0.39590 0.57870 0.04800
H 	H 	0.70870 0.27870 0.55380 0.04100
H 	H 	0.42420 0.44100 0.28870 0.14800
H 	H 	0.94790 0.32990 0.06920 0.04300
H 	H 	0.24390 0.41980 0.18830 0.04500
H 	H 	0.05130 0.43210 0.21290 0.05200
H 	H 	0.14040 0.30310 0.04550 0.04200
H 	H 	0.29430 0.17820 0.23270 0.04200
H 	H 	0.38540 0.10300 0.26630 0.03700
H 	H 	0.49920 0.18850 0.19620 0.15500
H 	H 	0.39590 0.23940 0.32870 0.04900
H 	H 	0.27870 0.29130 0.30380 0.04100
H 	H 	0.57580 0.55900 0.78870 0.14800
H 	H 	0.05210 0.67010 0.56920 0.04700
H 	H 	0.75610 0.58020 0.68830 0.04600
H 	H 	0.94870 0.56790 0.71290 0.05100
H 	H 	0.85960 0.69690 0.54550 0.05000
H 	H 	0.70570 0.82180 0.73270 0.04300
H 	H 	0.61460 0.89700 0.76630 0.03800
H 	H 	0.50080 0.81150 0.69620 0.15500
H 	H 	0.60410 0.76060 0.82870 0.04900
H 	H 	0.72130 0.70870 0.80380 0.04100
H 	H 	0.55900 0.57580 0.96130 0.14700
H 	H 	0.67010 0.05210 0.18080 0.04500
H 	H 	0.58020 0.75610 0.06170 0.04400
H 	H 	0.56790 0.94870 0.03710 0.04200
H 	H 	0.69690 0.85960 0.20450 0.05100
H 	H 	0.82180 0.70570 0.01730 -0.00500
H 	H 	0.89700 0.61460 0.98370 0.01400
H 	H 	0.81150 0.50080 0.05380 0.15700
H 	H 	0.76060 0.60410 0.92130 0.06500
H 	H 	0.70870 0.72130 0.94620 0.06100
H 	H 	0.44100 0.42420 0.46130 0.14800
H 	H 	0.32990 0.94790 0.68080 0.04700
H 	H 	0.41980 0.24390 0.56170 0.04600
H 	H 	0.43210 0.05130 0.53710 0.05100
H 	H 	0.30310 0.14040 0.70450 0.05000
H 	H 	0.17820 0.29430 0.51730 0.04200
H 	H 	0.10300 0.38540 0.48370 0.03800
H 	H 	0.18850 0.49920 0.55380 0.15500
H 	H 	0.23940 0.39590 0.42130 0.04800
H 	H 	0.29130 0.27870 0.44620 0.04100
H 	H 	0.57580 0.44100 0.71130 0.14800
H 	H 	0.05210 0.32990 0.93080 0.05100
H 	H 	0.75610 0.41980 0.81170 0.04700
H 	H 	0.94870 0.43210 0.78710 0.05000
H 	H 	0.85960 0.30310 0.95450 0.05700
H 	H 	0.70570 0.17820 0.76730 0.04300
H 	H 	0.61460 0.10300 0.73370 0.03800
H 	H 	0.50080 0.18850 0.80380 0.15500
H 	H 	0.60410 0.23940 0.67130 0.04800
H 	H 	0.72130 0.29130 0.69620 0.04100
H 	H 	0.42420 0.55900 0.21130 0.14800
H 	H 	0.94790 0.67010 0.43080 0.04700
H 	H 	0.24390 0.58020 0.31170 0.04600
H 	H 	0.05130 0.56790 0.28710 0.05100
H 	H 	0.14040 0.69690 0.45450 0.05000
H 	H 	0.29430 0.82180 0.26730 0.04200
H 	H 	0.38540 0.89700 0.23370 0.03700
H 	H 	0.49920 0.81150 0.30380 0.15500
H 	H 	0.39590 0.76060 0.17130 0.04800
H 	H 	0.27870 0.70870 0.19620 0.04100
C 	C 	0.33730 0.50880 0.98450 0.37700
C 	C 	0.38450 0.02030 0.89440 -0.06700
C 	C 	0.36170 0.78520 0.86350 -0.08400
C 	C 	0.34610 0.99210 0.84340 -0.02800
C 	C 	0.40010 0.81520 0.91420 -0.01100
C 	C 	0.35510 0.65970 0.84630 0.36800
C 	C 	0.40880 0.93050 0.92860 -0.02500
C 	C 	0.33250 0.87730 0.82900 -0.01000
C 	C 	0.18130 0.63260 0.00280 -0.12700
C 	C 	0.40230 0.14710 0.91050 0.36100
C 	C 	0.26980 0.63980 0.04650 0.01700
C 	C 	0.66270 0.49120 0.48450 0.35300
C 	C 	0.61550 0.97970 0.39440 -0.07400
C 	C 	0.63830 0.21480 0.36350 -0.08100
C 	C 	0.65390 0.00790 0.34340 -0.02300
C 	C 	0.59990 0.18480 0.41420 -0.01600
C 	C 	0.64490 0.34030 0.34630 0.36700
C 	C 	0.59120 0.06950 0.42860 -0.02000
C 	C 	0.66750 0.12270 0.32900 -0.01400
C 	C 	0.81870 0.36740 0.50280 -0.02600
C 	C 	0.59770 0.85290 0.41050 0.36400
C 	C 	0.73020 0.36020 0.54650 -0.03100
C 	C 	0.49120 0.33730 0.23450 0.35300
C 	C 	0.97970 0.38450 0.14440 -0.07400
C 	C 	0.21480 0.36170 0.11350 -0.08400
C 	C 	0.00790 0.34610 0.09340 -0.02500
C 	C 	0.18480 0.40010 0.16420 -0.01500
C 	C 	0.34030 0.35510 0.09630 0.36800
C 	C 	0.06950 0.40880 0.17860 -0.02200
C 	C 	0.12270 0.33250 0.07900 -0.01400
C 	C 	0.36740 0.18130 0.25280 -0.02500
C 	C 	0.85290 0.40230 0.16050 0.36400
C 	C 	0.36020 0.26980 0.29650 -0.03100
C 	C 	0.50880 0.66270 0.73450 0.35300
C 	C 	0.02030 0.61550 0.64440 -0.07500
C 	C 	0.78520 0.63830 0.61350 -0.08100
C 	C 	0.99210 0.65390 0.59340 -0.02300
C 	C 	0.81520 0.59990 0.66420 -0.01700
C 	C 	0.65970 0.64490 0.59630 0.36700
C 	C 	0.93050 0.59120 0.67860 -0.02000
C 	C 	0.87730 0.66750 0.57900 -0.01500
C 	C 	0.63260 0.81870 0.75280 -0.02500
C 	C 	0.14710 0.59770 0.66050 0.36400
C 	C 	0.63980 0.73020 0.79650 -0.03200
C 	C 	0.66270 0.50880 0.01550 0.32900
C 	C 	0.61550 0.02030 0.10560 -0.08200
C 	C 	0.63830 0.78520 0.13650 -0.07800
C 	C 	0.65390 0.99210 0.15660 -0.01700
C 	C 	0.59990 0.81520 0.08580 -0.02200
C 	C 	0.64490 0.65970 0.15370 0.36500
C 	C 	0.59120 0.93050 0.07140 -0.01400
C 	C 	0.66750 0.87730 0.17100 -0.02000
C 	C 	0.81870 0.63260 0.99720 0.07600
C 	C 	0.59770 0.14710 0.08950 0.36700
C 	C 	0.73020 0.63980 0.95350 -0.07900
C 	C 	0.33730 0.49120 0.51550 0.35300
C 	C 	0.38450 0.97970 0.60560 -0.07600
C 	C 	0.36170 0.21480 0.63650 -0.08000
C 	C 	0.34610 0.00790 0.65660 -0.02200
C 	C 	0.40010 0.18480 0.58580 -0.01700
C 	C 	0.35510 0.34030 0.65370 0.36700
C 	C 	0.40880 0.06950 0.57140 -0.01900
C 	C 	0.33250 0.12270 0.67100 -0.01600
C 	C 	0.18130 0.36740 0.49720 -0.02600
C 	C 	0.40230 0.85290 0.58950 0.36500
C 	C 	0.26980 0.36020 0.45350 -0.03100
C 	C 	0.50880 0.33730 0.76550 0.35300
C 	C 	0.02030 0.38450 0.85560 -0.07500
C 	C 	0.78520 0.36170 0.88650 -0.07700
C 	C 	0.99210 0.34610 0.90660 -0.02000
C 	C 	0.81520 0.40010 0.83580 -0.01900
C 	C 	0.65970 0.35510 0.90370 0.36400
C 	C 	0.93050 0.40880 0.82140 -0.01800
C 	C 	0.87730 0.33250 0.92100 -0.01700
C 	C 	0.63260 0.18130 0.74720 -0.02600
C 	C 	0.14710 0.40230 0.83950 0.36500
C 	C 	0.63980 0.26980 0.70350 -0.03100
C 	C 	0.49120 0.66270 0.26550 0.35300
C 	C 	0.97970 0.61550 0.35560 -0.07500
C 	C 	0.21480 0.63830 0.38650 -0.08100
C 	C 	0.00790 0.65390 0.40660 -0.02200
C 	C 	0.18480 0.59990 0.33580 -0.01700
C 	C 	0.34030 0.64490 0.40370 0.36700
C 	C 	0.06950 0.59120 0.32140 -0.02000
C 	C 	0.12270 0.66750 0.42100 -0.01500
C 	C 	0.36740 0.81870 0.24720 -0.02600
C 	C 	0.85290 0.59770 0.33950 0.36500
C 	C 	0.36020 0.73020 0.20350 -0.03100
N 	N 	0.37050 0.57340 0.02590 -0.27300
N 	N 	0.22750 0.53590 0.97090 -0.23300
N 	N 	0.62950 0.42660 0.52590 -0.25200
N 	N 	0.77250 0.46410 0.47090 -0.25300
N 	N 	0.42660 0.37050 0.27590 -0.25200
N 	N 	0.46410 0.22750 0.22090 -0.25300
N 	N 	0.57340 0.62950 0.77590 -0.25100
N 	N 	0.53590 0.77250 0.72090 -0.25300
N 	N 	0.62950 0.57340 0.97410 -0.22900
N 	N 	0.77250 0.53590 0.02910 -0.27300
N 	N 	0.37050 0.42660 0.47410 -0.25200
N 	N 	0.22750 0.46410 0.52910 -0.25300
N 	N 	0.57340 0.37050 0.72410 -0.25200
N 	N 	0.53590 0.22750 0.77910 -0.25300
N 	N 	0.42660 0.62950 0.22410 -0.25200
N 	N 	0.46410 0.77250 0.27910 -0.25300
O 	O 	0.40990 0.58530 0.87490 -0.41000
O 	O 	0.40460 0.22400 0.87470 -0.43000
O 	O 	0.41250 0.16710 0.95970 -0.39300
O 	O 	0.40190 0.43420 0.96090 -0.49500
O 	O 	0.29960 0.63610 0.80480 -0.41400
O 	O 	0.59010 0.41470 0.37490 -0.41000
O 	O 	0.59540 0.77600 0.37470 -0.43200
O 	O 	0.58750 0.83290 0.45970 -0.40700
O 	O 	0.59810 0.56580 0.46090 -0.49800
O 	O 	0.70040 0.36390 0.30480 -0.41400
O 	O 	0.41470 0.40990 0.12490 -0.41100
O 	O 	0.77600 0.40460 0.12470 -0.43300
O 	O 	0.83290 0.41250 0.20970 -0.40700
O 	O 	0.56580 0.40190 0.21090 -0.49800
O 	O 	0.36390 0.29960 0.05480 -0.42200
O 	O 	0.58530 0.59010 0.62490 -0.41000
O 	O 	0.22400 0.59540 0.62470 -0.43200
O 	O 	0.16710 0.58750 0.70970 -0.40700
O 	O 	0.43420 0.59810 0.71090 -0.49800
O 	O 	0.63610 0.70040 0.55480 -0.41400
O 	O 	0.59010 0.58530 0.12510 -0.41000
O 	O 	0.59540 0.22400 0.12530 -0.43400
O 	O 	0.58750 0.16710 0.04030 -0.41600
O 	O 	0.59810 0.43420 0.03910 -0.49800
O 	O 	0.70040 0.63610 0.19520 -0.41400
O 	O 	0.40990 0.41470 0.62510 -0.41000
O 	O 	0.40460 0.77600 0.62530 -0.43200
O 	O 	0.41250 0.83290 0.54030 -0.40700
O 	O 	0.40190 0.56580 0.53910 -0.49800
O 	O 	0.29960 0.36390 0.69520 -0.41400
O 	O 	0.58530 0.40990 0.87510 -0.40800
O 	O 	0.22400 0.40460 0.87530 -0.43100
O 	O 	0.16710 0.41250 0.79030 -0.40700
O 	O 	0.43420 0.40190 0.78910 -0.49800
O 	O 	0.63610 0.29960 0.94520 -0.40200
O 	O 	0.41470 0.59010 0.37510 -0.41000
O 	O 	0.77600 0.59540 0.37530 -0.43200
O 	O 	0.83290 0.58750 0.29030 -0.40700
O 	O 	0.56580 0.59810 0.28910 -0.49800
O 	O 	0.36390 0.70040 0.44520 -0.41400
