data_crystal

_cell_length_a 15.31150
_cell_length_b 13.42020
_cell_length_c 19.14970
_cell_angle_alpha 90.00000
_cell_angle_beta  99.46700
_cell_angle_gamma 90.00000

_symmetry_space_group_name_	'P 1'
_symmetry_space_group_name_H-M	'P 1'

loop_
_symmetry_equiv_pos_as_xyz
  x,y,z

loop_
_atom_site_label
_atom_site_type_symbol
_atom_site_fract_x
_atom_site_fract_y
_atom_site_fract_z
_atom_site_charge
Cd	Cd	0.25151 0.19502 0.24893 1.24600
O 	O 	0.34060 0.28040 0.33760 -0.34300
O 	O 	0.38150 0.31430 0.23550 -0.32200
O 	O 	0.63960 0.55940 0.23880 -0.34500
O 	O 	0.70500 0.60980 0.34300 -0.35100
O 	O 	0.69160 0.52410 0.55790 -0.20500
O 	O 	0.16500 0.16380 0.35120 -0.30300
O 	O 	0.12410 0.09860 0.24590 -0.34900
O 	O 	0.84690 0.87160 0.21380 -0.25600
O 	O 	0.82850 0.80890 0.31780 -0.36200
O 	O 	0.01070 0.22430 0.51980 -0.21100
N 	N 	0.58430 0.40310 0.52500 -0.14000
N 	N 	0.91270 0.09480 0.48580 -0.14200
C 	C 	0.39240 0.32040 0.30080 0.28000
C 	C 	0.64940 0.55660 0.30460 0.28100
C 	C 	0.52290 0.43630 0.30400 -0.05400
H 	H 	0.50960 0.44220 0.25500 0.07500
C 	C 	0.47100 0.37460 0.34030 -0.00400
C 	C 	0.49270 0.36500 0.41290 -0.11500
H 	H 	0.45910 0.32340 0.43690 0.09800
C 	C 	0.56360 0.41620 0.45060 0.13600
C 	C 	0.61450 0.47880 0.41460 -0.12400
H 	H 	0.66210 0.51400 0.43930 0.11900
C 	C 	0.59260 0.48750 0.34090 -0.00000
C 	C 	0.64490 0.45460 0.57200 0.22800
C 	C 	0.53850 0.32670 0.56090 -0.16300
H 	H 	0.54840 0.26050 0.54340 0.08800
H 	H 	0.47540 0.33930 0.55480 0.09700
C 	C 	0.58130 0.33850 0.63710 0.13800
C 	C 	0.64320 0.41070 0.64220 -0.11000
C 	C 	0.69200 0.43880 0.70690 0.05300
H 	H 	0.73450 0.48880 0.71000 0.04000
C 	C 	0.67480 0.38950 0.76640 -0.13300
H 	H 	0.70690 0.40520 0.81050 0.08400
C 	C 	0.60980 0.31680 0.76070 0.08500
H 	H 	0.59740 0.28590 0.80140 0.01000
C 	C 	0.56380 0.28960 0.69650 -0.18500
H 	H 	0.52160 0.23930 0.69290 0.11400
C 	C 	0.11150 0.11540 0.30720 0.27000
C 	C 	0.85830 0.87230 0.28010 0.27600
C 	C 	0.90940 0.95830 0.31870 0.01500
C 	C 	0.97910 0.00150 0.29160 -0.08000
H 	H 	0.99200 0.98210 0.24780 0.09300
C 	C 	0.02880 0.07400 0.33120 0.01900
C 	C 	0.00730 0.10620 0.39460 -0.13700
H 	H 	0.04080 0.15610 0.41980 0.12200
C 	C 	0.93620 0.06510 0.42130 0.14100
C 	C 	0.88860 0.98840 0.38260 -0.12400
H 	H 	0.84250 0.95750 0.40040 0.09600
C 	C 	0.83910 0.04670 0.51330 -0.15800
H 	H 	0.85040 0.97630 0.52190 0.09800
H 	H 	0.78380 0.05460 0.48090 0.08500
C 	C 	0.83720 0.10180 0.58110 0.12400
C 	C 	0.95100 0.16910 0.53020 0.22900
C 	C 	0.90250 0.17270 0.59070 -0.10100
C 	C 	0.91630 0.23510 0.64920 0.05000
H 	H 	0.96180 0.28180 0.65610 0.04100
C 	C 	0.85740 0.22350 0.69710 -0.12500
H 	H 	0.86300 0.26450 0.73670 0.08700
C 	C 	0.79290 0.15430 0.68730 0.07800
H 	H 	0.75540 0.14930 0.72080 0.01500
C 	C 	0.77970 0.09080 0.63040 -0.16600
H 	H 	0.73500 0.04320 0.62480 0.09800
Cd	Cd	0.74849 0.69502 0.25107 1.24700
O 	O 	0.65940 0.78040 0.16240 -0.34200
O 	O 	0.61850 0.81430 0.26450 -0.32100
O 	O 	0.36040 0.05940 0.26120 -0.34300
O 	O 	0.29500 0.10980 0.15700 -0.35100
O 	O 	0.30840 0.02410 0.94210 -0.20300
O 	O 	0.83500 0.66380 0.14880 -0.30300
O 	O 	0.87590 0.59860 0.25410 -0.35000
O 	O 	0.15310 0.37160 0.28620 -0.25700
O 	O 	0.17150 0.30890 0.18220 -0.36300
O 	O 	0.98930 0.72430 0.98020 -0.21000
N 	N 	0.41570 0.90310 0.97500 -0.14000
N 	N 	0.08730 0.59480 0.01420 -0.14100
C 	C 	0.60760 0.82040 0.19920 0.28000
C 	C 	0.35060 0.05660 0.19540 0.28100
C 	C 	0.47710 0.93630 0.19600 -0.05400
H 	H 	0.49040 0.94220 0.24500 0.07500
C 	C 	0.52900 0.87460 0.15970 -0.00400
C 	C 	0.50730 0.86500 0.08710 -0.11500
H 	H 	0.54090 0.82340 0.06310 0.09800
C 	C 	0.43640 0.91620 0.04940 0.13600
C 	C 	0.38550 0.97880 0.08540 -0.12400
H 	H 	0.33790 0.01400 0.06070 0.11900
C 	C 	0.40740 0.98750 0.15910 -0.00000
C 	C 	0.35510 0.95460 0.92800 0.22600
C 	C 	0.46150 0.82670 0.93910 -0.16300
H 	H 	0.45160 0.76050 0.95660 0.08800
H 	H 	0.52460 0.83930 0.94520 0.09600
C 	C 	0.41870 0.83850 0.86290 0.13700
C 	C 	0.35680 0.91070 0.85780 -0.11000
C 	C 	0.30800 0.93880 0.79310 0.05300
H 	H 	0.26550 0.98880 0.79000 0.04000
C 	C 	0.32520 0.88950 0.73360 -0.13300
H 	H 	0.29310 0.90520 0.68950 0.08300
C 	C 	0.39020 0.81680 0.73930 0.08500
H 	H 	0.40260 0.78590 0.69860 0.01000
C 	C 	0.43620 0.78960 0.80350 -0.18500
H 	H 	0.47840 0.73930 0.80710 0.11400
C 	C 	0.88850 0.61540 0.19280 0.27200
C 	C 	0.14170 0.37230 0.21990 0.27800
C 	C 	0.09060 0.45830 0.18130 0.00900
C 	C 	0.02090 0.50150 0.20840 -0.06600
H 	H 	0.00800 0.48210 0.25220 0.08700
C 	C 	0.97120 0.57400 0.16880 0.01200
C 	C 	0.99270 0.60620 0.10540 -0.13700
H 	H 	0.95920 0.65610 0.08020 0.12100
C 	C 	0.06380 0.56510 0.07870 0.14300
C 	C 	0.11140 0.48840 0.11740 -0.12400
H 	H 	0.15750 0.45750 0.09960 0.09500
C 	C 	0.16090 0.54670 0.98670 -0.15800
H 	H 	0.14960 0.47630 0.97810 0.09700
H 	H 	0.21620 0.55460 0.01910 0.08500
C 	C 	0.16280 0.60180 0.91890 0.12400
C 	C 	0.04900 0.66910 0.96980 0.22700
C 	C 	0.09750 0.67270 0.90930 -0.10100
C 	C 	0.08370 0.73510 0.85080 0.04900
H 	H 	0.03820 0.78180 0.84390 0.04100
C 	C 	0.14260 0.72350 0.80290 -0.12500
H 	H 	0.13700 0.76450 0.76330 0.08700
C 	C 	0.20710 0.65430 0.81270 0.07800
H 	H 	0.24460 0.64930 0.77920 0.01500
C 	C 	0.22030 0.59080 0.86960 -0.16600
H 	H 	0.26500 0.54320 0.87520 0.09800
Cd	Cd	0.74849 0.80498 0.75107 1.24700
O 	O 	0.65940 0.71960 0.66240 -0.34200
O 	O 	0.61850 0.68570 0.76450 -0.32100
O 	O 	0.36040 0.44060 0.76120 -0.34400
O 	O 	0.29500 0.39020 0.65700 -0.35100
O 	O 	0.30840 0.47590 0.44210 -0.20500
O 	O 	0.83500 0.83620 0.64880 -0.30300
O 	O 	0.87590 0.90140 0.75410 -0.34900
O 	O 	0.15310 0.12840 0.78620 -0.25600
O 	O 	0.17150 0.19110 0.68220 -0.36200
O 	O 	0.98930 0.77570 0.48020 -0.21100
N 	N 	0.41570 0.59690 0.47500 -0.14000
N 	N 	0.08730 0.90520 0.51420 -0.14200
C 	C 	0.60760 0.67960 0.69920 0.28000
C 	C 	0.35060 0.44340 0.69540 0.28100
C 	C 	0.47710 0.56370 0.69600 -0.05400
H 	H 	0.49040 0.55780 0.74500 0.07500
C 	C 	0.52900 0.62540 0.65970 -0.00400
C 	C 	0.50730 0.63500 0.58710 -0.11500
H 	H 	0.54090 0.67660 0.56310 0.09800
C 	C 	0.43640 0.58380 0.54940 0.13600
C 	C 	0.38550 0.52120 0.58540 -0.12400
H 	H 	0.33790 0.48600 0.56070 0.11900
C 	C 	0.40740 0.51250 0.65910 -0.00000
C 	C 	0.35510 0.54540 0.42800 0.22800
C 	C 	0.46150 0.67330 0.43910 -0.16300
H 	H 	0.45160 0.73950 0.45660 0.08800
H 	H 	0.52460 0.66070 0.44520 0.09700
C 	C 	0.41870 0.66150 0.36290 0.13800
C 	C 	0.35680 0.58930 0.35780 -0.11000
C 	C 	0.30800 0.56120 0.29310 0.05300
H 	H 	0.26550 0.51120 0.29000 0.04000
C 	C 	0.32520 0.61050 0.23360 -0.13300
H 	H 	0.29310 0.59480 0.18950 0.08400
C 	C 	0.39020 0.68320 0.23930 0.08500
H 	H 	0.40260 0.71410 0.19860 0.01000
C 	C 	0.43620 0.71040 0.30350 -0.18500
H 	H 	0.47840 0.76070 0.30710 0.11400
C 	C 	0.88850 0.88460 0.69280 0.27000
C 	C 	0.14170 0.12770 0.71990 0.27600
C 	C 	0.09060 0.04170 0.68130 0.01500
C 	C 	0.02090 0.99850 0.70840 -0.08000
H 	H 	0.00800 0.01790 0.75220 0.09300
C 	C 	0.97120 0.92600 0.66880 0.01900
C 	C 	0.99270 0.89380 0.60540 -0.13700
H 	H 	0.95920 0.84390 0.58020 0.12200
C 	C 	0.06380 0.93490 0.57870 0.14100
C 	C 	0.11140 0.01160 0.61740 -0.12400
H 	H 	0.15750 0.04250 0.59960 0.09600
C 	C 	0.16090 0.95330 0.48670 -0.15800
H 	H 	0.14960 0.02370 0.47810 0.09800
H 	H 	0.21620 0.94540 0.51910 0.08500
C 	C 	0.16280 0.89820 0.41890 0.12400
C 	C 	0.04900 0.83090 0.46980 0.22900
C 	C 	0.09750 0.82730 0.40930 -0.10100
C 	C 	0.08370 0.76490 0.35080 0.05000
H 	H 	0.03820 0.71820 0.34390 0.04100
C 	C 	0.14260 0.77650 0.30290 -0.12500
H 	H 	0.13700 0.73550 0.26330 0.08700
C 	C 	0.20710 0.84570 0.31270 0.07800
H 	H 	0.24460 0.85070 0.27920 0.01500
C 	C 	0.22030 0.90920 0.36960 -0.16600
H 	H 	0.26500 0.95680 0.37520 0.09800
Cd	Cd	0.25151 0.30498 0.74893 1.24700
O 	O 	0.34060 0.21960 0.83760 -0.34200
O 	O 	0.38150 0.18570 0.73550 -0.32100
O 	O 	0.63960 0.94060 0.73880 -0.34300
O 	O 	0.70500 0.89020 0.84300 -0.35100
O 	O 	0.69160 0.97590 0.05790 -0.20300
O 	O 	0.16500 0.33620 0.85120 -0.30300
O 	O 	0.12410 0.40140 0.74590 -0.35000
O 	O 	0.84690 0.62840 0.71380 -0.25700
O 	O 	0.82850 0.69110 0.81780 -0.36300
O 	O 	0.01070 0.27570 0.01980 -0.21000
N 	N 	0.58430 0.09690 0.02500 -0.14000
N 	N 	0.91270 0.40520 0.98580 -0.14100
C 	C 	0.39240 0.17960 0.80080 0.28000
C 	C 	0.64940 0.94340 0.80460 0.28100
C 	C 	0.52290 0.06370 0.80400 -0.05400
H 	H 	0.50960 0.05780 0.75500 0.07500
C 	C 	0.47100 0.12540 0.84030 -0.00400
C 	C 	0.49270 0.13500 0.91290 -0.11500
H 	H 	0.45910 0.17660 0.93690 0.09800
C 	C 	0.56360 0.08380 0.95060 0.13600
C 	C 	0.61450 0.02120 0.91460 -0.12400
H 	H 	0.66210 0.98600 0.93930 0.11900
C 	C 	0.59260 0.01250 0.84090 -0.00000
C 	C 	0.64490 0.04540 0.07200 0.22600
C 	C 	0.53850 0.17330 0.06090 -0.16300
H 	H 	0.54840 0.23950 0.04340 0.08800
H 	H 	0.47540 0.16070 0.05480 0.09600
C 	C 	0.58130 0.16150 0.13710 0.13700
C 	C 	0.64320 0.08930 0.14220 -0.11000
C 	C 	0.69200 0.06120 0.20690 0.05300
H 	H 	0.73450 0.01120 0.21000 0.04000
C 	C 	0.67480 0.11050 0.26640 -0.13300
H 	H 	0.70690 0.09480 0.31050 0.08300
C 	C 	0.60980 0.18320 0.26070 0.08500
H 	H 	0.59740 0.21410 0.30140 0.01000
C 	C 	0.56380 0.21040 0.19650 -0.18500
H 	H 	0.52160 0.26070 0.19290 0.11400
C 	C 	0.11150 0.38460 0.80720 0.27200
C 	C 	0.85830 0.62770 0.78010 0.27800
C 	C 	0.90940 0.54170 0.81870 0.00900
C 	C 	0.97910 0.49850 0.79160 -0.06600
H 	H 	0.99200 0.51790 0.74780 0.08700
C 	C 	0.02880 0.42600 0.83120 0.01200
C 	C 	0.00730 0.39380 0.89460 -0.13700
H 	H 	0.04080 0.34390 0.91980 0.12100
C 	C 	0.93620 0.43490 0.92130 0.14300
C 	C 	0.88860 0.51160 0.88260 -0.12400
H 	H 	0.84250 0.54250 0.90040 0.09500
C 	C 	0.83910 0.45330 0.01330 -0.15800
H 	H 	0.85040 0.52370 0.02190 0.09700
H 	H 	0.78380 0.44540 0.98090 0.08500
C 	C 	0.83720 0.39820 0.08110 0.12400
C 	C 	0.95100 0.33090 0.03020 0.22700
C 	C 	0.90250 0.32730 0.09070 -0.10100
C 	C 	0.91630 0.26490 0.14920 0.04900
H 	H 	0.96180 0.21820 0.15610 0.04100
C 	C 	0.85740 0.27650 0.19710 -0.12500
H 	H 	0.86300 0.23550 0.23670 0.08700
C 	C 	0.79290 0.34570 0.18730 0.07800
H 	H 	0.75540 0.35070 0.22080 0.01500
C 	C 	0.77970 0.40920 0.13040 -0.16600
H 	H 	0.73500 0.45680 0.12480 0.09800
