data_crystal

_cell_length_a 18.90000
_cell_length_b 18.90000
_cell_length_c 33.56100
_cell_angle_alpha 90.00000
_cell_angle_beta  90.00000
_cell_angle_gamma 90.00000

_symmetry_space_group_name_	'P 1'
_symmetry_space_group_name_H-M	'P 1'

loop_
_symmetry_equiv_pos_as_xyz
  x,y,z

loop_
_atom_site_label
_atom_site_type_symbol
_atom_site_fract_x
_atom_site_fract_y
_atom_site_fract_z
_atom_site_charge
Cu	Cu	0.95012 0.51492 0.78038 0.90700
Cu	Cu	0.54988 0.98508 0.78038 0.90700
Cu	Cu	0.98508 0.95012 0.78038 0.90600
Cu	Cu	0.51492 0.54988 0.78038 0.90600
Cu	Cu	0.04988 0.01492 0.71962 0.90600
Cu	Cu	0.45012 0.48508 0.71962 0.90600
Cu	Cu	0.01492 0.45012 0.71962 0.90600
Cu	Cu	0.48508 0.04988 0.71962 0.90600
Cu	Cu	0.04988 0.48508 0.21962 0.90600
Cu	Cu	0.45012 0.01492 0.21962 0.90600
Cu	Cu	0.01492 0.04988 0.21962 0.90600
Cu	Cu	0.48508 0.45012 0.21962 0.90600
Cu	Cu	0.95012 0.98508 0.28038 0.90600
Cu	Cu	0.54988 0.51492 0.28038 0.90600
Cu	Cu	0.98508 0.54988 0.28038 0.90600
Cu	Cu	0.51492 0.95012 0.28038 0.90600
H 	H 	0.78540 0.13820 0.95440 0.05800
H 	H 	0.85860 0.13000 0.90030 0.04800
H 	H 	0.93110 0.32630 0.92100 0.04700
H 	H 	0.86010 0.33380 0.97630 0.05800
H 	H 	0.94950 0.12460 0.85750 0.05500
H 	H 	0.00960 0.23110 0.76120 0.05200
H 	H 	0.92770 0.33480 0.85450 0.05500
H 	H 	0.71460 0.36180 0.95440 0.05800
H 	H 	0.64140 0.37000 0.90030 0.04800
H 	H 	0.56890 0.17370 0.92100 0.04700
H 	H 	0.63990 0.16620 0.97630 0.05800
H 	H 	0.55050 0.37540 0.85750 0.05500
H 	H 	0.49040 0.26890 0.76120 0.05300
H 	H 	0.57230 0.16520 0.85450 0.05500
H 	H 	0.36180 0.78540 0.95440 0.05800
H 	H 	0.37000 0.85860 0.90030 0.04800
H 	H 	0.17370 0.93110 0.92100 0.04700
H 	H 	0.16620 0.86010 0.97630 0.05800
H 	H 	0.37540 0.94950 0.85750 0.05500
H 	H 	0.26890 0.00960 0.76120 0.05200
H 	H 	0.16520 0.92770 0.85450 0.05500
H 	H 	0.13820 0.71460 0.95440 0.05800
H 	H 	0.13000 0.64140 0.90030 0.04800
H 	H 	0.32630 0.56890 0.92100 0.04700
H 	H 	0.33380 0.63990 0.97630 0.05800
H 	H 	0.12460 0.55050 0.85750 0.05500
H 	H 	0.23110 0.49040 0.76120 0.05300
H 	H 	0.33480 0.57230 0.85450 0.05500
H 	H 	0.21460 0.63820 0.54560 0.05800
H 	H 	0.14140 0.63000 0.59970 0.04800
H 	H 	0.06890 0.82630 0.57900 0.04700
H 	H 	0.13990 0.83380 0.52370 0.05900
H 	H 	0.05050 0.62460 0.64250 0.05500
H 	H 	0.99040 0.73110 0.73880 0.05200
H 	H 	0.07230 0.83480 0.64550 0.05500
H 	H 	0.28540 0.86180 0.54560 0.05900
H 	H 	0.35860 0.87000 0.59970 0.04800
H 	H 	0.43110 0.67370 0.57900 0.04600
H 	H 	0.36010 0.66620 0.52370 0.05900
H 	H 	0.44950 0.87540 0.64250 0.05500
H 	H 	0.50960 0.76890 0.73880 0.05300
H 	H 	0.42770 0.66520 0.64550 0.05500
H 	H 	0.63820 0.28540 0.54560 0.05800
H 	H 	0.63000 0.35860 0.59970 0.04800
H 	H 	0.82630 0.43110 0.57900 0.04600
H 	H 	0.83380 0.36010 0.52370 0.05900
H 	H 	0.62460 0.44950 0.64250 0.05500
H 	H 	0.73110 0.50960 0.73880 0.05300
H 	H 	0.83480 0.42770 0.64550 0.05500
H 	H 	0.86180 0.21460 0.54560 0.05800
H 	H 	0.87000 0.14140 0.59970 0.04800
H 	H 	0.67370 0.06890 0.57900 0.04700
H 	H 	0.66620 0.13990 0.52370 0.05900
H 	H 	0.87540 0.05050 0.64250 0.05500
H 	H 	0.76890 0.99040 0.73880 0.05200
H 	H 	0.66520 0.07230 0.64550 0.05500
H 	H 	0.21460 0.86180 0.04560 0.05900
H 	H 	0.14140 0.87000 0.09970 0.04800
H 	H 	0.06890 0.67370 0.07900 0.04700
H 	H 	0.13990 0.66620 0.02370 0.05900
H 	H 	0.05050 0.87540 0.14250 0.05500
H 	H 	0.99040 0.76890 0.23880 0.05200
H 	H 	0.07230 0.66520 0.14550 0.05500
H 	H 	0.28540 0.63820 0.04560 0.05800
H 	H 	0.35860 0.63000 0.09970 0.04800
H 	H 	0.43110 0.82630 0.07900 0.04700
H 	H 	0.36010 0.83380 0.02370 0.05900
H 	H 	0.44950 0.62460 0.14250 0.05500
H 	H 	0.50960 0.73110 0.23880 0.05300
H 	H 	0.42770 0.83480 0.14550 0.05500
H 	H 	0.63820 0.21460 0.04560 0.05800
H 	H 	0.63000 0.14140 0.09970 0.04800
H 	H 	0.82630 0.06890 0.07900 0.04700
H 	H 	0.83380 0.13990 0.02370 0.05900
H 	H 	0.62460 0.05050 0.14250 0.05500
H 	H 	0.73110 0.99040 0.23880 0.05300
H 	H 	0.83480 0.07230 0.14550 0.05500
H 	H 	0.86180 0.28540 0.04560 0.05900
H 	H 	0.87000 0.35860 0.09970 0.04800
H 	H 	0.67370 0.43110 0.07900 0.04700
H 	H 	0.66620 0.36010 0.02370 0.05900
H 	H 	0.87540 0.44950 0.14250 0.05500
H 	H 	0.76890 0.50960 0.23880 0.05300
H 	H 	0.66520 0.42770 0.14550 0.05500
H 	H 	0.78540 0.36180 0.45440 0.05800
H 	H 	0.85860 0.37000 0.40030 0.04800
H 	H 	0.93110 0.17370 0.42100 0.04700
H 	H 	0.86010 0.16620 0.47630 0.05900
H 	H 	0.94950 0.37540 0.35750 0.05500
H 	H 	0.00960 0.26890 0.26120 0.05200
H 	H 	0.92770 0.16520 0.35450 0.05500
H 	H 	0.71460 0.13820 0.45440 0.05900
H 	H 	0.64140 0.13000 0.40030 0.04800
H 	H 	0.56890 0.32630 0.42100 0.04600
H 	H 	0.63990 0.33380 0.47630 0.05900
H 	H 	0.55050 0.12460 0.35750 0.05500
H 	H 	0.49040 0.23110 0.26120 0.05300
H 	H 	0.57230 0.33480 0.35450 0.05500
H 	H 	0.36180 0.71460 0.45440 0.05800
H 	H 	0.37000 0.64140 0.40030 0.04800
H 	H 	0.17370 0.56890 0.42100 0.04600
H 	H 	0.16620 0.63990 0.47630 0.05900
H 	H 	0.37540 0.55050 0.35750 0.05500
H 	H 	0.26890 0.49040 0.26120 0.05300
H 	H 	0.16520 0.57230 0.35450 0.05500
H 	H 	0.13820 0.78540 0.45440 0.05800
H 	H 	0.13000 0.85860 0.40030 0.04800
H 	H 	0.32630 0.93110 0.42100 0.04700
H 	H 	0.33380 0.86010 0.47630 0.05900
H 	H 	0.12460 0.94950 0.35750 0.05500
H 	H 	0.23110 0.00960 0.26120 0.05200
H 	H 	0.33480 0.92770 0.35450 0.05500
C 	C 	0.81140 0.23840 0.97110 0.04600
C 	C 	0.81370 0.17670 0.94756 -0.07300
C 	C 	0.85700 0.17210 0.91457 -0.04200
C 	C 	0.89870 0.22940 0.90201 0.01300
C 	C 	0.90060 0.28910 0.92704 -0.04300
C 	C 	0.85790 0.29350 0.96049 -0.07600
C 	C 	0.93400 0.22860 0.86293 0.00100
C 	C 	0.95420 0.16730 0.84409 -0.02200
C 	C 	0.98170 0.16690 0.80563 -0.07800
C 	C 	0.98960 0.23080 0.78651 0.02500
C 	C 	0.96930 0.29490 0.80339 -0.08100
C 	C 	0.94140 0.29280 0.84223 -0.02100
C 	C 	0.99810 0.09930 0.78498 0.33900
C 	C 	0.97330 0.36280 0.78172 0.34900
C 	C 	0.68860 0.26160 0.97110 0.04600
C 	C 	0.68630 0.32330 0.94756 -0.07300
C 	C 	0.64300 0.32790 0.91457 -0.04200
C 	C 	0.60130 0.27060 0.90201 0.01300
C 	C 	0.59940 0.21090 0.92704 -0.04200
C 	C 	0.64210 0.20650 0.96049 -0.07600
C 	C 	0.56600 0.27140 0.86293 0.00200
C 	C 	0.54580 0.33270 0.84409 -0.02300
C 	C 	0.51830 0.33310 0.80563 -0.07700
C 	C 	0.51040 0.26920 0.78651 0.02300
C 	C 	0.53070 0.20510 0.80339 -0.08000
C 	C 	0.55860 0.20720 0.84223 -0.02100
C 	C 	0.50190 0.40070 0.78498 0.33800
C 	C 	0.52670 0.13720 0.78172 0.34800
C 	C 	0.26160 0.81140 0.97110 0.04600
C 	C 	0.32330 0.81370 0.94756 -0.07300
C 	C 	0.32790 0.85700 0.91457 -0.04200
C 	C 	0.27060 0.89870 0.90201 0.01300
C 	C 	0.21090 0.90060 0.92704 -0.04300
C 	C 	0.20650 0.85790 0.96049 -0.07600
C 	C 	0.27140 0.93400 0.86293 0.00100
C 	C 	0.33270 0.95420 0.84409 -0.02200
C 	C 	0.33310 0.98170 0.80563 -0.07700
C 	C 	0.26920 0.98960 0.78651 0.02500
C 	C 	0.20510 0.96930 0.80339 -0.08100
C 	C 	0.20720 0.94140 0.84223 -0.02100
C 	C 	0.40070 0.99810 0.78498 0.33900
C 	C 	0.13720 0.97330 0.78172 0.35000
C 	C 	0.23840 0.68860 0.97110 0.04600
C 	C 	0.17670 0.68630 0.94756 -0.07300
C 	C 	0.17210 0.64300 0.91457 -0.04200
C 	C 	0.22940 0.60130 0.90201 0.01300
C 	C 	0.28910 0.59940 0.92704 -0.04200
C 	C 	0.29350 0.64210 0.96049 -0.07600
C 	C 	0.22860 0.56600 0.86293 0.00200
C 	C 	0.16730 0.54580 0.84409 -0.02300
C 	C 	0.16690 0.51830 0.80563 -0.07700
C 	C 	0.23080 0.51040 0.78651 0.02300
C 	C 	0.29490 0.53070 0.80339 -0.08000
C 	C 	0.29280 0.55860 0.84223 -0.02100
C 	C 	0.09930 0.50190 0.78498 0.33800
C 	C 	0.36280 0.52670 0.78172 0.34900
C 	C 	0.18860 0.73840 0.52890 0.04800
C 	C 	0.18630 0.67670 0.55244 -0.07400
C 	C 	0.14300 0.67210 0.58543 -0.04100
C 	C 	0.10130 0.72940 0.59799 0.01200
C 	C 	0.09940 0.78910 0.57296 -0.04200
C 	C 	0.14210 0.79350 0.53951 -0.07700
C 	C 	0.06600 0.72860 0.63707 0.00100
C 	C 	0.04580 0.66730 0.65591 -0.02200
C 	C 	0.01830 0.66690 0.69437 -0.07700
C 	C 	0.01040 0.73080 0.71349 0.02500
C 	C 	0.03070 0.79490 0.69661 -0.08100
C 	C 	0.05860 0.79280 0.65777 -0.02100
C 	C 	0.00190 0.59930 0.71502 0.33900
C 	C 	0.02670 0.86280 0.71828 0.35000
C 	C 	0.31140 0.76160 0.52890 0.04800
C 	C 	0.31370 0.82330 0.55244 -0.07400
C 	C 	0.35700 0.82790 0.58543 -0.04100
C 	C 	0.39870 0.77060 0.59799 0.01200
C 	C 	0.40060 0.71090 0.57296 -0.04200
C 	C 	0.35790 0.70650 0.53951 -0.07700
C 	C 	0.43400 0.77140 0.63707 0.00200
C 	C 	0.45420 0.83270 0.65591 -0.02300
C 	C 	0.48170 0.83310 0.69437 -0.07700
C 	C 	0.48960 0.76920 0.71349 0.02300
C 	C 	0.46930 0.70510 0.69661 -0.08000
C 	C 	0.44140 0.70720 0.65777 -0.02100
C 	C 	0.49810 0.90070 0.71502 0.33800
C 	C 	0.47330 0.63720 0.71828 0.34800
C 	C 	0.73840 0.31140 0.52890 0.04800
C 	C 	0.67670 0.31370 0.55244 -0.07400
C 	C 	0.67210 0.35700 0.58543 -0.04100
C 	C 	0.72940 0.39870 0.59799 0.01200
C 	C 	0.78910 0.40060 0.57296 -0.04200
C 	C 	0.79350 0.35790 0.53951 -0.07700
C 	C 	0.72860 0.43400 0.63707 0.00200
C 	C 	0.66730 0.45420 0.65591 -0.02300
C 	C 	0.66690 0.48170 0.69437 -0.07700
C 	C 	0.73080 0.48960 0.71349 0.02300
C 	C 	0.79490 0.46930 0.69661 -0.08000
C 	C 	0.79280 0.44140 0.65777 -0.02100
C 	C 	0.59930 0.49810 0.71502 0.33800
C 	C 	0.86280 0.47330 0.71828 0.34800
C 	C 	0.76160 0.18860 0.52890 0.04800
C 	C 	0.82330 0.18630 0.55244 -0.07400
C 	C 	0.82790 0.14300 0.58543 -0.04100
C 	C 	0.77060 0.10130 0.59799 0.01300
C 	C 	0.71090 0.09940 0.57296 -0.04200
C 	C 	0.70650 0.14210 0.53951 -0.07700
C 	C 	0.77140 0.06600 0.63707 0.00100
C 	C 	0.83270 0.04580 0.65591 -0.02200
C 	C 	0.83310 0.01830 0.69437 -0.07800
C 	C 	0.76920 0.01040 0.71349 0.02500
C 	C 	0.70510 0.03070 0.69661 -0.08100
C 	C 	0.70720 0.05860 0.65777 -0.02100
C 	C 	0.90070 0.00190 0.71502 0.33900
C 	C 	0.63720 0.02670 0.71828 0.34900
C 	C 	0.18860 0.76160 0.02890 0.04700
C 	C 	0.18630 0.82330 0.05244 -0.07300
C 	C 	0.14300 0.82790 0.08543 -0.04200
C 	C 	0.10130 0.77060 0.09799 0.01300
C 	C 	0.09940 0.71090 0.07296 -0.04200
C 	C 	0.14210 0.70650 0.03951 -0.07700
C 	C 	0.06600 0.77140 0.13707 0.00100
C 	C 	0.04580 0.83270 0.15591 -0.02200
C 	C 	0.01830 0.83310 0.19437 -0.07700
C 	C 	0.01040 0.76920 0.21349 0.02500
C 	C 	0.03070 0.70510 0.19661 -0.08100
C 	C 	0.05860 0.70720 0.15777 -0.02100
C 	C 	0.00190 0.90070 0.21502 0.33900
C 	C 	0.02670 0.63720 0.21828 0.34900
C 	C 	0.31140 0.73840 0.02890 0.04800
C 	C 	0.31370 0.67670 0.05244 -0.07400
C 	C 	0.35700 0.67210 0.08543 -0.04100
C 	C 	0.39870 0.72940 0.09799 0.01200
C 	C 	0.40060 0.78910 0.07296 -0.04200
C 	C 	0.35790 0.79350 0.03951 -0.07700
C 	C 	0.43400 0.72860 0.13707 0.00200
C 	C 	0.45420 0.66730 0.15591 -0.02300
C 	C 	0.48170 0.66690 0.19437 -0.07700
C 	C 	0.48960 0.73080 0.21349 0.02300
C 	C 	0.46930 0.79490 0.19661 -0.08000
C 	C 	0.44140 0.79280 0.15777 -0.02100
C 	C 	0.49810 0.59930 0.21502 0.33800
C 	C 	0.47330 0.86280 0.21828 0.34800
C 	C 	0.73840 0.18860 0.02890 0.04700
C 	C 	0.67670 0.18630 0.05244 -0.07400
C 	C 	0.67210 0.14300 0.08543 -0.04200
C 	C 	0.72940 0.10130 0.09799 0.01300
C 	C 	0.78910 0.09940 0.07296 -0.04200
C 	C 	0.79350 0.14210 0.03951 -0.07700
C 	C 	0.72860 0.06600 0.13707 0.00100
C 	C 	0.66730 0.04580 0.15591 -0.02300
C 	C 	0.66690 0.01830 0.19437 -0.07700
C 	C 	0.73080 0.01040 0.21349 0.02500
C 	C 	0.79490 0.03070 0.19661 -0.08100
C 	C 	0.79280 0.05860 0.15777 -0.02100
C 	C 	0.59930 0.00190 0.21502 0.33800
C 	C 	0.86280 0.02670 0.21828 0.35000
C 	C 	0.76160 0.31140 0.02890 0.04800
C 	C 	0.82330 0.31370 0.05244 -0.07400
C 	C 	0.82790 0.35700 0.08543 -0.04100
C 	C 	0.77060 0.39870 0.09799 0.01200
C 	C 	0.71090 0.40060 0.07296 -0.04200
C 	C 	0.70650 0.35790 0.03951 -0.07700
C 	C 	0.77140 0.43400 0.13707 0.00200
C 	C 	0.83270 0.45420 0.15591 -0.02300
C 	C 	0.83310 0.48170 0.19437 -0.07700
C 	C 	0.76920 0.48960 0.21349 0.02300
C 	C 	0.70510 0.46930 0.19661 -0.08000
C 	C 	0.70720 0.44140 0.15777 -0.02100
C 	C 	0.90070 0.49810 0.21502 0.33800
C 	C 	0.63720 0.47330 0.21828 0.34800
C 	C 	0.81140 0.26160 0.47110 0.04800
C 	C 	0.81370 0.32330 0.44756 -0.07400
C 	C 	0.85700 0.32790 0.41457 -0.04100
C 	C 	0.89870 0.27060 0.40201 0.01200
C 	C 	0.90060 0.21090 0.42704 -0.04200
C 	C 	0.85790 0.20650 0.46049 -0.07700
C 	C 	0.93400 0.27140 0.36293 0.00100
C 	C 	0.95420 0.33270 0.34409 -0.02200
C 	C 	0.98170 0.33310 0.30563 -0.07700
C 	C 	0.98960 0.26920 0.28651 0.02500
C 	C 	0.96930 0.20510 0.30339 -0.08100
C 	C 	0.94140 0.20720 0.34223 -0.02100
C 	C 	0.99810 0.40070 0.28498 0.33900
C 	C 	0.97330 0.13720 0.28172 0.35000
C 	C 	0.68860 0.23840 0.47110 0.04800
C 	C 	0.68630 0.17670 0.44756 -0.07400
C 	C 	0.64300 0.17210 0.41457 -0.04100
C 	C 	0.60130 0.22940 0.40201 0.01200
C 	C 	0.59940 0.28910 0.42704 -0.04200
C 	C 	0.64210 0.29350 0.46049 -0.07700
C 	C 	0.56600 0.22860 0.36293 0.00200
C 	C 	0.54580 0.16730 0.34409 -0.02300
C 	C 	0.51830 0.16690 0.30563 -0.07700
C 	C 	0.51040 0.23080 0.28651 0.02300
C 	C 	0.53070 0.29490 0.30339 -0.08000
C 	C 	0.55860 0.29280 0.34223 -0.02100
C 	C 	0.50190 0.09930 0.28498 0.33800
C 	C 	0.52670 0.36280 0.28172 0.34800
C 	C 	0.26160 0.68860 0.47110 0.04800
C 	C 	0.32330 0.68630 0.44756 -0.07400
C 	C 	0.32790 0.64300 0.41457 -0.04100
C 	C 	0.27060 0.60130 0.40201 0.01200
C 	C 	0.21090 0.59940 0.42704 -0.04200
C 	C 	0.20650 0.64210 0.46049 -0.07700
C 	C 	0.27140 0.56600 0.36293 0.00200
C 	C 	0.33270 0.54580 0.34409 -0.02300
C 	C 	0.33310 0.51830 0.30563 -0.07700
C 	C 	0.26920 0.51040 0.28651 0.02300
C 	C 	0.20510 0.53070 0.30339 -0.08000
C 	C 	0.20720 0.55860 0.34223 -0.02100
C 	C 	0.40070 0.50190 0.28498 0.33800
C 	C 	0.13720 0.52670 0.28172 0.34800
C 	C 	0.23840 0.81140 0.47110 0.04800
C 	C 	0.17670 0.81370 0.44756 -0.07400
C 	C 	0.17210 0.85700 0.41457 -0.04100
C 	C 	0.22940 0.89870 0.40201 0.01300
C 	C 	0.28910 0.90060 0.42704 -0.04200
C 	C 	0.29350 0.85790 0.46049 -0.07700
C 	C 	0.22860 0.93400 0.36293 0.00100
C 	C 	0.16730 0.95420 0.34409 -0.02200
C 	C 	0.16690 0.98170 0.30563 -0.07800
C 	C 	0.23080 0.98960 0.28651 0.02500
C 	C 	0.29490 0.96930 0.30339 -0.08100
C 	C 	0.29280 0.94140 0.34223 -0.02100
C 	C 	0.09930 0.99810 0.28498 0.33900
C 	C 	0.36280 0.97330 0.28172 0.34900
C 	C 	0.75000 0.25000 -0.00000 -0.06800
C 	C 	0.25000 0.75000 -0.00000 -0.06800
C 	C 	0.25000 0.75000 0.50000 -0.07100
C 	C 	0.75000 0.25000 0.50000 -0.07100
O 	O 	0.94423 0.41546 0.79807 -0.40300
O 	O 	0.00547 0.36289 0.74841 -0.40300
O 	O 	0.02585 0.10066 0.75124 -0.39800
O 	O 	0.97976 0.04262 0.80439 -0.39700
O 	O 	0.55577 0.08454 0.79807 -0.40300
O 	O 	0.49453 0.13711 0.74841 -0.40300
O 	O 	0.47415 0.39934 0.75124 -0.39700
O 	O 	0.52024 0.45738 0.80439 -0.39700
O 	O 	0.08454 0.94423 0.79807 -0.40300
O 	O 	0.13711 0.00547 0.74841 -0.40400
O 	O 	0.39934 0.02585 0.75124 -0.39700
O 	O 	0.45738 0.97976 0.80439 -0.39700
O 	O 	0.41546 0.55577 0.79807 -0.40300
O 	O 	0.36289 0.49453 0.74841 -0.40300
O 	O 	0.10066 0.47415 0.75124 -0.39700
O 	O 	0.04262 0.52024 0.80439 -0.39700
O 	O 	0.05577 0.91546 0.70193 -0.40300
O 	O 	0.99453 0.86289 0.75159 -0.40400
O 	O 	0.97415 0.60066 0.74876 -0.39700
O 	O 	0.02024 0.54262 0.69561 -0.39700
O 	O 	0.44423 0.58454 0.70193 -0.40300
O 	O 	0.50547 0.63711 0.75159 -0.40300
O 	O 	0.52585 0.89934 0.74876 -0.39700
O 	O 	0.47976 0.95738 0.69561 -0.39700
O 	O 	0.91546 0.44423 0.70193 -0.40300
O 	O 	0.86289 0.50547 0.75159 -0.40300
O 	O 	0.60066 0.52585 0.74876 -0.39700
O 	O 	0.54262 0.47976 0.69561 -0.39700
O 	O 	0.58454 0.05577 0.70193 -0.40300
O 	O 	0.63711 0.99453 0.75159 -0.40300
O 	O 	0.89934 0.97415 0.74876 -0.39800
O 	O 	0.95738 0.02024 0.69561 -0.39700
O 	O 	0.05577 0.58454 0.20193 -0.40300
O 	O 	0.99453 0.63711 0.25159 -0.40300
O 	O 	0.97415 0.89934 0.24876 -0.39800
O 	O 	0.02024 0.95738 0.19561 -0.39700
O 	O 	0.44423 0.91546 0.20193 -0.40300
O 	O 	0.50547 0.86289 0.25159 -0.40300
O 	O 	0.52585 0.60066 0.24876 -0.39700
O 	O 	0.47976 0.54262 0.19561 -0.39700
O 	O 	0.91546 0.05577 0.20193 -0.40300
O 	O 	0.86289 0.99453 0.25159 -0.40400
O 	O 	0.60066 0.97415 0.24876 -0.39700
O 	O 	0.54262 0.02024 0.19561 -0.39700
O 	O 	0.58454 0.44423 0.20193 -0.40300
O 	O 	0.63711 0.50547 0.25159 -0.40300
O 	O 	0.89934 0.52585 0.24876 -0.39700
O 	O 	0.95738 0.47976 0.19561 -0.39700
O 	O 	0.94423 0.08454 0.29807 -0.40300
O 	O 	0.00547 0.13711 0.24841 -0.40400
O 	O 	0.02585 0.39934 0.25124 -0.39700
O 	O 	0.97976 0.45738 0.30439 -0.39700
O 	O 	0.55577 0.41546 0.29807 -0.40300
O 	O 	0.49453 0.36289 0.24841 -0.40300
O 	O 	0.47415 0.10066 0.25124 -0.39700
O 	O 	0.52024 0.04262 0.30439 -0.39700
O 	O 	0.08454 0.55577 0.29807 -0.40300
O 	O 	0.13711 0.49453 0.24841 -0.40300
O 	O 	0.39934 0.47415 0.25124 -0.39700
O 	O 	0.45738 0.52024 0.30439 -0.39700
O 	O 	0.41546 0.94423 0.29807 -0.40300
O 	O 	0.36289 0.00547 0.24841 -0.40300
O 	O 	0.10066 0.02585 0.25124 -0.39800
O 	O 	0.04262 0.97976 0.30439 -0.39700
