data_crystal

_cell_length_a 21.23400
_cell_length_b 12.98000
_cell_length_c 13.00200
_cell_angle_alpha 90.00000
_cell_angle_beta  113.79000
_cell_angle_gamma 90.00000

_symmetry_space_group_name_	'P 1'
_symmetry_space_group_name_H-M	'P 1'

loop_
_symmetry_equiv_pos_as_xyz
  x,y,z

loop_
_atom_site_label
_atom_site_type_symbol
_atom_site_fract_x
_atom_site_fract_y
_atom_site_fract_z
_atom_site_charge
C 	C 	0.24150 0.04760 0.10970 0.09100
H 	H 	0.20020 0.06370 0.11490 0.00000
C 	C 	0.33590 0.96900 0.12650 0.09100
H 	H 	0.37110 0.92060 0.14640 0.00600
C 	C 	0.41200 0.27010 0.18260 0.09200
H 	H 	0.40640 0.22430 0.23320 0.01500
C 	C 	0.45550 0.38390 0.10880 0.09000
H 	H 	0.48540 0.43080 0.09820 0.00200
C 	C 	0.22380 0.79770 0.16570 0.09500
H 	H 	0.20350 0.78120 0.08970 -0.00100
C 	C 	0.28290 0.87720 0.32210 0.09400
H 	H 	0.31040 0.92470 0.37460 0.01500
N 	N 	0.27960 0.96140 0.14990 -0.10700
N 	N 	0.27330 0.10400 0.06230 -0.19600
N 	N 	0.33370 0.05380 0.07230 -0.11500
N 	N 	0.36580 0.29060 0.08190 -0.16600
N 	N 	0.39370 0.36390 0.03690 -0.11900
N 	N 	0.46960 0.32620 0.20160 -0.10700
N 	N 	0.25750 0.79360 0.34440 -0.17100
N 	N 	0.21930 0.74320 0.24380 -0.10400
N 	N 	0.26240 0.88350 0.20860 -0.10800
C 	C 	0.74150 0.54760 0.10970 0.09400
H 	H 	0.70020 0.56370 0.11490 0.00100
C 	C 	0.83590 0.46900 0.12650 0.08900
H 	H 	0.87110 0.42060 0.14640 0.00700
C 	C 	0.91200 0.77010 0.18260 0.09300
H 	H 	0.90640 0.72430 0.23320 0.01500
C 	C 	0.95550 0.88390 0.10880 0.09000
H 	H 	0.98540 0.93080 0.09820 0.00200
C 	C 	0.72380 0.29770 0.16570 0.09500
H 	H 	0.70350 0.28120 0.08970 -0.00100
C 	C 	0.78290 0.37720 0.32210 0.09400
H 	H 	0.81040 0.42470 0.37460 0.01500
N 	N 	0.77960 0.46140 0.14990 -0.10800
N 	N 	0.77330 0.60400 0.06230 -0.19700
N 	N 	0.83370 0.55380 0.07230 -0.11400
N 	N 	0.86580 0.79060 0.08190 -0.16600
N 	N 	0.89370 0.86390 0.03690 -0.11900
N 	N 	0.96960 0.82620 0.20160 -0.10800
N 	N 	0.75750 0.29360 0.34440 -0.17100
N 	N 	0.71930 0.24320 0.24380 -0.10500
N 	N 	0.76240 0.38350 0.20860 -0.10800
C 	C 	0.75850 0.04760 0.39030 0.09800
H 	H 	0.79980 0.06370 0.38510 0.01200
C 	C 	0.66410 0.96900 0.37350 0.09800
H 	H 	0.62890 0.92060 0.35360 0.01300
C 	C 	0.58800 0.27010 0.31740 0.09700
H 	H 	0.59360 0.22430 0.26680 0.01000
C 	C 	0.54450 0.38390 0.39120 0.09500
H 	H 	0.51460 0.43080 0.40180 0.01600
C 	C 	0.77620 0.79770 0.33430 0.09600
H 	H 	0.79650 0.78120 0.41030 0.01800
C 	C 	0.71710 0.87720 0.17790 0.09100
H 	H 	0.68960 0.92470 0.12540 -0.00300
N 	N 	0.72040 0.96140 0.35010 -0.10600
N 	N 	0.72670 0.10400 0.43770 -0.18400
N 	N 	0.66630 0.05380 0.42770 -0.10200
N 	N 	0.63420 0.29060 0.41810 -0.15500
N 	N 	0.60630 0.36390 0.46310 -0.09700
N 	N 	0.53040 0.32620 0.29840 -0.10700
N 	N 	0.74250 0.79360 0.15560 -0.18000
N 	N 	0.78070 0.74320 0.25620 -0.10000
N 	N 	0.73760 0.88350 0.29140 -0.10600
C 	C 	0.25850 0.54760 0.39030 0.10100
H 	H 	0.29980 0.56370 0.38510 0.01200
C 	C 	0.16410 0.46900 0.37350 0.09500
H 	H 	0.12890 0.42060 0.35360 0.01300
C 	C 	0.08800 0.77010 0.31740 0.09700
H 	H 	0.09360 0.72430 0.26680 0.01100
C 	C 	0.04450 0.88390 0.39120 0.09500
H 	H 	0.01460 0.93080 0.40180 0.01700
C 	C 	0.27620 0.29770 0.33430 0.09600
H 	H 	0.29650 0.28120 0.41030 0.01800
C 	C 	0.21710 0.37720 0.17790 0.09100
H 	H 	0.18960 0.42470 0.12540 -0.00300
N 	N 	0.22040 0.46140 0.35010 -0.10700
N 	N 	0.22670 0.60400 0.43770 -0.18400
N 	N 	0.16630 0.55380 0.42770 -0.10000
N 	N 	0.13420 0.79060 0.41810 -0.15500
N 	N 	0.10630 0.86390 0.46310 -0.09700
N 	N 	0.03040 0.82620 0.29840 -0.10500
N 	N 	0.24250 0.29360 0.15560 -0.18000
N 	N 	0.28070 0.24320 0.25620 -0.10000
N 	N 	0.23760 0.38350 0.29140 -0.10600
C 	C 	0.75850 0.95240 0.89030 0.11100
H 	H 	0.79980 0.93630 0.88510 0.02800
C 	C 	0.66410 0.03100 0.87350 0.10100
H 	H 	0.62890 0.07940 0.85360 0.02700
C 	C 	0.58800 0.72990 0.81740 0.10200
H 	H 	0.59360 0.77570 0.76680 0.01800
C 	C 	0.54450 0.61610 0.89120 0.10200
H 	H 	0.51460 0.56920 0.90180 0.03200
C 	C 	0.77620 0.20230 0.83430 0.10200
H 	H 	0.79650 0.21880 0.91030 0.03400
C 	C 	0.71710 0.12280 0.67790 0.09800
H 	H 	0.68960 0.07530 0.62540 0.01400
N 	N 	0.72040 0.03860 0.85010 -0.10300
N 	N 	0.72670 0.89600 0.93770 -0.16400
N 	N 	0.66630 0.94620 0.92770 -0.08300
N 	N 	0.63420 0.70940 0.91810 -0.13800
N 	N 	0.60630 0.63610 0.96310 -0.07500
N 	N 	0.53040 0.67380 0.79840 -0.10300
N 	N 	0.74250 0.20640 0.65560 -0.17000
N 	N 	0.78070 0.25680 0.75620 -0.09500
N 	N 	0.73760 0.11650 0.79140 -0.10200
C 	C 	0.25850 0.45240 0.89030 0.10900
H 	H 	0.29980 0.43630 0.88510 0.02800
C 	C 	0.16410 0.53100 0.87350 0.10500
H 	H 	0.12890 0.57940 0.85360 0.02700
C 	C 	0.08800 0.22990 0.81740 0.10200
H 	H 	0.09360 0.27570 0.76680 0.01800
C 	C 	0.04450 0.11610 0.89120 0.10200
H 	H 	0.01460 0.06920 0.90180 0.03200
C 	C 	0.27620 0.70230 0.83430 0.10200
H 	H 	0.29650 0.71880 0.91030 0.03500
C 	C 	0.21710 0.62280 0.67790 0.09900
H 	H 	0.18960 0.57530 0.62540 0.01500
N 	N 	0.22040 0.53860 0.85010 -0.10200
N 	N 	0.22670 0.39600 0.93770 -0.16400
N 	N 	0.16630 0.44620 0.92770 -0.08500
N 	N 	0.13420 0.20940 0.91810 -0.13800
N 	N 	0.10630 0.13610 0.96310 -0.07500
N 	N 	0.03040 0.17380 0.79840 -0.10200
N 	N 	0.24250 0.70640 0.65560 -0.17000
N 	N 	0.28070 0.75680 0.75620 -0.09400
N 	N 	0.23760 0.61650 0.79140 -0.10100
C 	C 	0.24150 0.95240 0.60970 0.10500
H 	H 	0.20020 0.93630 0.61490 0.01500
C 	C 	0.33590 0.03100 0.62650 0.09600
H 	H 	0.37110 0.07940 0.64640 0.02200
C 	C 	0.41200 0.72990 0.68260 0.09900
H 	H 	0.40640 0.77570 0.73320 0.02100
C 	C 	0.45550 0.61610 0.60880 0.09700
H 	H 	0.48540 0.56920 0.59820 0.01800
C 	C 	0.22380 0.20230 0.66570 0.10100
H 	H 	0.20350 0.21880 0.58970 0.01500
C 	C 	0.28290 0.12280 0.82210 0.10100
H 	H 	0.31040 0.07530 0.87460 0.03400
N 	N 	0.27960 0.03860 0.64990 -0.10500
N 	N 	0.27330 0.89600 0.56230 -0.18400
N 	N 	0.33370 0.94620 0.57230 -0.09800
N 	N 	0.36580 0.70940 0.58190 -0.15400
N 	N 	0.39370 0.63610 0.53690 -0.09800
N 	N 	0.46960 0.67380 0.70160 -0.10300
N 	N 	0.25750 0.20640 0.84440 -0.15400
N 	N 	0.21930 0.25680 0.74380 -0.09700
N 	N 	0.26240 0.11650 0.70860 -0.10300
C 	C 	0.74150 0.45240 0.60970 0.10300
H 	H 	0.70020 0.43630 0.61490 0.01600
C 	C 	0.83590 0.53100 0.62650 0.09800
H 	H 	0.87110 0.57940 0.64640 0.02100
C 	C 	0.91200 0.22990 0.68260 0.09800
H 	H 	0.90640 0.27570 0.73320 0.02100
C 	C 	0.95550 0.11610 0.60880 0.09600
H 	H 	0.98540 0.06920 0.59820 0.01600
C 	C 	0.72380 0.70230 0.66570 0.10100
H 	H 	0.70350 0.71880 0.58970 0.01600
C 	C 	0.78290 0.62280 0.82210 0.10200
H 	H 	0.81040 0.57530 0.87460 0.03400
N 	N 	0.77960 0.53860 0.64990 -0.10400
N 	N 	0.77330 0.39600 0.56230 -0.18400
N 	N 	0.83370 0.44620 0.57230 -0.10000
N 	N 	0.86580 0.20940 0.58190 -0.15500
N 	N 	0.89370 0.13610 0.53690 -0.09900
N 	N 	0.96960 0.17380 0.70160 -0.10500
N 	N 	0.75750 0.70640 0.84440 -0.15400
N 	N 	0.71930 0.75680 0.74380 -0.09700
N 	N 	0.76240 0.61650 0.70860 -0.10300
Cu	Cu	0.25000 0.25000 -0.00000 0.85100
Cu	Cu	0.75000 0.25000 0.50000 0.88100
Cu	Cu	0.75000 0.75000 -0.00000 0.85100
Cu	Cu	0.25000 0.75000 0.50000 0.88100
