data_crystal

_cell_length_a 8.04950
_cell_length_b 11.88520
_cell_length_c 11.92090
_cell_angle_alpha 79.88100
_cell_angle_beta  86.23100
_cell_angle_gamma 81.91200

_symmetry_space_group_name_	'P 1'
_symmetry_space_group_name_H-M	'P 1'

loop_
_symmetry_equiv_pos_as_xyz
  x,y,z

loop_
_atom_site_label
_atom_site_type_symbol
_atom_site_fract_x
_atom_site_fract_y
_atom_site_fract_z
_atom_site_charge
U 	U 	0.04212 0.56392 0.70208 0.02600
U 	U 	0.77696 0.50507 0.97635 0.03300
U 	U 	0.60820 0.84850 0.99040 0.02700
U 	U 	0.31680 0.06250 0.71860 0.00600
U 	U 	0.95788 0.43608 0.29792 0.02600
U 	U 	0.22304 0.49493 0.02365 0.03300
U 	U 	0.39180 0.15150 0.00960 0.02700
U 	U 	0.68320 0.93750 0.28140 0.00600
H 	H 	0.51993 0.49741 0.59988 0.22100
H 	H 	0.63879 0.41715 0.67835 0.23900
H 	H 	0.48367 0.71651 0.60203 0.22600
H 	H 	0.66700 0.72750 0.60022 0.23900
H 	H 	0.48007 0.50259 0.40012 0.22100
H 	H 	0.36121 0.58285 0.32165 0.23900
H 	H 	0.51633 0.28349 0.39797 0.22600
H 	H 	0.33300 0.27250 0.39978 0.23900
C 	C 	0.53700 0.79960 0.72910 0.44600
C 	C 	0.61060 0.58190 0.71460 0.31500
C 	C 	0.62500 0.49350 0.63450 -0.53900
C 	C 	0.76300 0.50340 0.54330 0.42700
C 	C 	0.57400 0.70950 0.65220 -0.51100
C 	C 	0.46310 0.55550 0.79450 0.16900
C 	C 	0.46300 0.20040 0.27090 0.44600
C 	C 	0.38940 0.41810 0.28540 0.31500
C 	C 	0.37500 0.50650 0.36550 -0.53900
C 	C 	0.23700 0.49660 0.45670 0.42700
C 	C 	0.42600 0.29050 0.34780 -0.51100
C 	C 	0.53690 0.44450 0.20550 0.16900
O 	O 	0.75750 0.56630 0.77640 -0.13900
O 	O 	0.31920 0.57180 0.75780 -0.13500
O 	O 	0.73630 0.65230 0.00540 -0.02200
O 	O 	0.02690 0.53980 0.89340 -0.02100
O 	O 	0.52020 0.76610 0.83520 -0.19000
O 	O 	0.86760 0.57480 0.54660 -0.20300
O 	O 	0.78600 0.81200 0.15120 -0.03700
O 	O 	0.48750 0.52030 0.89960 -0.10000
O 	O 	0.40600 0.99300 0.90800 -0.02700
O 	O 	0.77080 0.43940 0.46960 -0.23200
O 	O 	0.52400 0.90190 0.68310 -0.21800
O 	O 	0.24250 0.43370 0.22360 -0.13900
O 	O 	0.68080 0.42820 0.24220 -0.13500
O 	O 	0.26370 0.34770 0.99460 -0.02200
O 	O 	0.97310 0.46020 0.10660 -0.02100
O 	O 	0.47980 0.23390 0.16480 -0.19000
O 	O 	0.13240 0.42520 0.45340 -0.20300
O 	O 	0.21400 0.18800 0.84880 -0.03700
O 	O 	0.51250 0.47970 0.10040 -0.10000
O 	O 	0.59400 0.00700 0.09200 -0.02700
O 	O 	0.22920 0.56060 0.53040 -0.23200
O 	O 	0.47600 0.09810 0.31690 -0.21800
