data_crystal

_cell_length_a 11.28800
_cell_length_b 12.64500
_cell_length_c 14.72500
_cell_angle_alpha 90.00000
_cell_angle_beta  90.00000
_cell_angle_gamma 90.00000

_symmetry_space_group_name_	'P 1'
_symmetry_space_group_name_H-M	'P 1'

loop_
_symmetry_equiv_pos_as_xyz
  x,y,z

loop_
_atom_site_label
_atom_site_type_symbol
_atom_site_fract_x
_atom_site_fract_y
_atom_site_fract_z
_atom_site_charge
Pr	Pr	0.14936 0.38544 0.99286 2.03400
Pr	Pr	0.35064 0.11456 0.49286 2.03200
Pr	Pr	0.85064 0.38544 0.50714 2.02000
Pr	Pr	0.64936 0.11456 0.00714 2.02100
Pr	Pr	0.85064 0.61456 0.00714 2.02000
Pr	Pr	0.64936 0.88544 0.50714 2.02600
Pr	Pr	0.14936 0.61456 0.49286 2.03600
Pr	Pr	0.35064 0.88544 0.99286 2.02500
H 	H 	0.94500 0.59700 0.76200 0.35000
H 	H 	0.43700 0.58700 0.84800 0.52200
H 	H 	0.33100 0.52600 0.80900 0.34800
H 	H 	0.55500 0.90300 0.26200 0.59300
H 	H 	0.06300 0.91300 0.34800 0.58500
H 	H 	0.16900 0.97400 0.30900 0.38300
H 	H 	0.05500 0.59700 0.73800 0.40500
H 	H 	0.56300 0.58700 0.65200 0.52400
H 	H 	0.66900 0.52600 0.69100 0.34500
H 	H 	0.44500 0.90300 0.23800 0.59600
H 	H 	0.93700 0.91300 0.15200 0.44300
H 	H 	0.83100 0.97400 0.19100 0.30300
H 	H 	0.05500 0.40300 0.23800 0.36500
H 	H 	0.56300 0.41300 0.15200 0.52400
H 	H 	0.66900 0.47400 0.19100 0.34500
H 	H 	0.44500 0.09700 0.73800 0.59500
H 	H 	0.93700 0.08700 0.65200 0.46100
H 	H 	0.83100 0.02600 0.69100 0.31500
H 	H 	0.94500 0.40300 0.26200 0.29900
H 	H 	0.43700 0.41300 0.34800 0.52300
H 	H 	0.33100 0.47400 0.30900 0.34900
H 	H 	0.55500 0.09700 0.76200 0.59400
H 	H 	0.06300 0.08700 0.84800 0.56600
H 	H 	0.16900 0.02600 0.80900 0.37000
C 	C 	0.42710 0.44760 0.90415 0.71800
C 	C 	0.38050 0.54900 0.86310 -1.27400
C 	C 	0.30170 0.61461 0.92450 0.77000
C 	C 	0.03000 0.48650 0.83201 0.77700
C 	C 	0.07290 0.05240 0.40415 0.82800
C 	C 	0.11950 0.95100 0.36310 -1.37600
C 	C 	0.19830 0.88539 0.42450 0.80300
C 	C 	0.47000 0.01350 0.33201 0.87500
C 	C 	0.57290 0.44760 0.59585 0.71900
C 	C 	0.61950 0.54900 0.63690 -1.27700
C 	C 	0.69830 0.61461 0.57550 0.77200
C 	C 	0.97000 0.48650 0.66799 0.58700
C 	C 	0.92710 0.05240 0.09585 0.57500
C 	C 	0.88050 0.95100 0.13690 -1.12300
C 	C 	0.80170 0.88539 0.07550 0.72100
C 	C 	0.53000 0.01350 0.16799 0.86200
C 	C 	0.57290 0.55240 0.09585 0.71800
C 	C 	0.61950 0.45100 0.13690 -1.27600
C 	C 	0.69830 0.38539 0.07550 0.77200
C 	C 	0.97000 0.51350 0.16799 0.52700
C 	C 	0.92710 0.94760 0.59585 0.60600
C 	C 	0.88050 0.04900 0.63690 -1.16600
C 	C 	0.80170 0.11461 0.57550 0.73300
C 	C 	0.53000 0.98650 0.66799 0.87600
C 	C 	0.42710 0.55240 0.40415 0.71900
C 	C 	0.38050 0.45100 0.36310 -1.27500
C 	C 	0.30170 0.38539 0.42450 0.77000
C 	C 	0.03000 0.51350 0.33201 0.75300
C 	C 	0.07290 0.94760 0.90415 0.79400
C 	C 	0.11950 0.04900 0.86310 -1.33200
C 	C 	0.19830 0.11461 0.92450 0.79000
C 	C 	0.47000 0.98650 0.83201 0.86100
C 	C 	0.00000 0.55180 0.75000 -1.17200
C 	C 	0.50000 0.94820 0.25000 -1.75900
C 	C 	0.00000 0.44820 0.25000 -1.04600
C 	C 	0.50000 0.05180 0.75000 -1.76000
O 	O 	0.35451 0.38271 0.93710 -0.59600
O 	O 	0.31722 0.71181 0.92622 -0.64600
O 	O 	0.22100 0.56770 0.96846 -0.60500
O 	O 	0.98522 0.50865 0.90834 -0.79400
O 	O 	0.10410 0.41311 0.82549 -0.56200
O 	O 	0.53591 0.43123 0.90219 -0.45700
O 	O 	0.14549 0.11729 0.43710 -0.61000
O 	O 	0.18278 0.78819 0.42622 -0.65300
O 	O 	0.27900 0.93230 0.46846 -0.62000
O 	O 	0.51478 0.99135 0.40834 -0.77400
O 	O 	0.39590 0.08689 0.32549 -0.60400
O 	O 	0.96409 0.06877 0.40219 -0.53600
O 	O 	0.64549 0.38271 0.56290 -0.60100
O 	O 	0.68278 0.71181 0.57378 -0.65500
O 	O 	0.77900 0.56770 0.53154 -0.62300
O 	O 	0.01478 0.50865 0.59166 -0.64200
O 	O 	0.89590 0.41311 0.67451 -0.54600
O 	O 	0.46409 0.43123 0.59781 -0.45700
O 	O 	0.85451 0.11729 0.06290 -0.58100
O 	O 	0.81722 0.78819 0.07378 -0.64400
O 	O 	0.72100 0.93230 0.03154 -0.59200
O 	O 	0.48522 0.99135 0.09166 -0.75900
O 	O 	0.60410 0.08689 0.17451 -0.60500
O 	O 	0.03591 0.06877 0.09781 -0.36700
O 	O 	0.64549 0.61729 0.06290 -0.59900
O 	O 	0.68278 0.28819 0.07378 -0.65700
O 	O 	0.77900 0.43230 0.03154 -0.62500
O 	O 	0.01478 0.49135 0.09166 -0.61500
O 	O 	0.89590 0.58689 0.17451 -0.53400
O 	O 	0.46409 0.56877 0.09781 -0.45300
O 	O 	0.85451 0.88271 0.56290 -0.58300
O 	O 	0.81722 0.21181 0.57378 -0.64900
O 	O 	0.72100 0.06770 0.53154 -0.60300
O 	O 	0.48522 0.00865 0.59166 -0.77300
O 	O 	0.60410 0.91311 0.67451 -0.60600
O 	O 	0.03591 0.93123 0.59781 -0.38100
O 	O 	0.35451 0.61729 0.43710 -0.59700
O 	O 	0.31722 0.28819 0.42622 -0.64300
O 	O 	0.22100 0.43230 0.46846 -0.60100
O 	O 	0.98522 0.49135 0.40834 -0.79600
O 	O 	0.10410 0.58689 0.32549 -0.55200
O 	O 	0.53591 0.56877 0.40219 -0.46000
O 	O 	0.14549 0.88271 0.93710 -0.60800
O 	O 	0.18278 0.21181 0.92622 -0.64800
O 	O 	0.27900 0.06770 0.96846 -0.60900
O 	O 	0.51478 0.00865 0.90834 -0.76100
O 	O 	0.39590 0.91311 0.82549 -0.60300
O 	O 	0.96409 0.93123 0.90219 -0.52200
