data_crystal

_cell_length_a 13.01240
_cell_length_b 14.29180
_cell_length_c 23.76470
_cell_angle_alpha 95.15500
_cell_angle_beta  101.75800
_cell_angle_gamma 115.98400

_symmetry_space_group_name_	'P 1'
_symmetry_space_group_name_H-M	'P 1'

loop_
_symmetry_equiv_pos_as_xyz
  x,y,z

loop_
_atom_site_label
_atom_site_type_symbol
_atom_site_fract_x
_atom_site_fract_y
_atom_site_fract_z
_atom_site_charge
Ag	Ag	0.50020 0.45790 0.24990 0.43400
Ag	Ag	0.73180 0.70910 0.24236 0.42500
Ag	Ag	0.76880 0.51280 0.75090 0.43100
Ag	Ag	0.85690 0.97830 0.49176 0.44600
Ag	Ag	0.87660 0.49780 0.01102 0.43800
Ag	Ag	0.51300 0.31720 0.73188 0.41200
Ag	Ag	0.73790 0.24230 0.75590 0.42500
Ag	Ag	0.58130 0.92350 0.51873 0.44400
Ag	Ag	0.02850 0.80370 0.25065 0.44200
Ag	Ag	0.57730 0.39470 0.00282 0.45000
Ag	Ag	0.71750 0.95460 0.22507 0.44800
Ag	Ag	0.78620 0.33660 0.12138 0.45800
Ag	Ag	0.68160 0.74990 0.54750 0.25700
Ag	Ag	0.35600 0.30300 0.46900 0.26400
Ag	Ag	0.49510 0.01420 0.23620 0.30200
Ag	Ag	0.47780 0.94260 0.22210 0.26100
N 	N 	0.79000 0.35700 0.83090 -0.21000
N 	N 	0.82300 0.46100 0.82640 -0.20600
C 	C 	0.85100 0.51400 0.88070 0.05800
H 	H 	0.86910 0.58550 0.88980 -0.07000
N 	N 	0.84900 0.45300 0.92100 -0.25000
C 	C 	0.82100 0.36300 0.88710 0.11000
H 	H 	0.82380 0.30630 0.90260 -0.07400
N 	N 	0.58100 0.06100 0.17000 -0.20800
N 	N 	0.67700 0.04200 0.16760 -0.20400
C 	C 	0.74300 0.11500 0.14390 0.06700
H 	H 	0.81550 0.12390 0.13890 -0.06300
N 	N 	0.69400 0.17900 0.12720 -0.23100
C 	C 	0.59300 0.14300 0.14570 0.05400
H 	H 	0.54110 0.17160 0.14180 -0.05700
N 	N 	0.88100 0.50000 0.14050 -0.20900
N 	N 	0.90800 0.56050 0.10040 -0.18600
C 	C 	0.96200 0.66700 0.12600 0.02800
H 	H 	0.99000 0.72490 0.10800 -0.05200
N 	N 	0.96400 0.66800 0.18580 -0.24700
C 	C 	0.91900 0.56600 0.18830 0.10700
H 	H 	0.91450 0.54420 0.22380 -0.08600
N 	N 	0.49500 0.20800 0.83500 -0.20100
N 	N 	0.52900 0.30900 0.82010 -0.21400
C 	C 	0.55800 0.38000 0.87110 0.04500
H 	H 	0.57880 0.45150 0.87410 -0.04600
N 	N 	0.55100 0.32800 0.91710 -0.22900
C 	C 	0.51700 0.22400 0.89130 0.05400
H 	H 	0.51090 0.17070 0.91250 -0.04500
N 	N 	0.78600 0.92720 0.30590 -0.21300
N 	N 	0.79200 0.83400 0.31510 -0.21900
C 	C 	0.81200 0.84100 0.37090 0.09600
H 	H 	0.80790 0.78530 0.38900 -0.07000
N 	N 	0.83800 0.93600 0.40090 -0.23800
C 	C 	0.81400 0.98300 0.35950 0.08100
H 	H 	0.81650 0.04900 0.36660 -0.06900
N 	N 	0.65500 0.57400 0.17080 -0.21100
N 	N 	0.57000 0.47800 0.17730 -0.20200
C 	C 	0.53400 0.41000 0.12510 0.04300
H 	H 	0.47410 0.34010 0.11580 -0.05600
N 	N 	0.59700 0.46000 0.08870 -0.24600
C 	C 	0.66600 0.56000 0.12180 0.11100
H 	H 	0.71930 0.61430 0.10760 -0.06900
N 	N 	0.86200 0.01000 0.58050 -0.20600
N 	N 	0.81700 0.92800 0.60830 -0.17900
C 	C 	0.85900 0.97900 0.66680 0.10400
H 	H 	0.85280 0.94340 0.69780 -0.06300
N 	N 	0.90700 0.07600 0.67320 -0.23700
C 	C 	0.91700 0.09900 0.61890 0.07100
H 	H 	0.95700 0.16700 0.61120 -0.06400
N 	N 	0.55900 0.02200 0.69040 -0.21800
N 	N 	0.65400 0.11300 0.68580 -0.22100
C 	C 	0.67100 0.09900 0.63570 0.09300
H 	H 	0.73260 0.14910 0.62360 -0.07000
N 	N 	0.59000 0.00400 0.60220 -0.23300
C 	C 	0.52500 0.95600 0.64050 0.05900
H 	H 	0.46550 0.88650 0.63170 -0.06400
N 	N 	0.57100 0.82100 0.44470 -0.20600
N 	N 	0.60400 0.74380 0.45570 -0.22200
C 	C 	0.57300 0.68500 0.40380 0.08400
H 	H 	0.58260 0.62460 0.39760 -0.06600
N 	N 	0.52500 0.71900 0.36080 -0.24100
C 	C 	0.53400 0.80900 0.38780 0.06100
H 	H 	0.51530 0.85630 0.36890 -0.05000
N 	N 	0.69100 0.56860 0.68560 -0.21600
N 	N 	0.58900 0.57400 0.68660 -0.20700
C 	C 	0.57700 0.63100 0.64600 0.04400
H 	H 	0.51520 0.64890 0.63760 -0.05700
N 	N 	0.66700 0.66100 0.61820 -0.23200
C 	C 	0.73000 0.61900 0.64730 0.09700
H 	H 	0.79970 0.62660 0.63950 -0.07200
Ag	Ag	0.49980 0.54210 0.75010 0.43500
Ag	Ag	0.26820 0.29090 0.75764 0.42600
Ag	Ag	0.23120 0.48720 0.24910 0.43100
Ag	Ag	0.14310 0.02170 0.50824 0.44600
Ag	Ag	0.12340 0.50220 0.98898 0.43800
Ag	Ag	0.48700 0.68280 0.26812 0.41200
Ag	Ag	0.26210 0.75770 0.24410 0.42500
Ag	Ag	0.41870 0.07650 0.48127 0.44400
Ag	Ag	0.97150 0.19630 0.74935 0.44200
Ag	Ag	0.42270 0.60530 0.99718 0.45000
Ag	Ag	0.28250 0.04540 0.77493 0.44800
Ag	Ag	0.21380 0.66340 0.87862 0.45800
Ag	Ag	0.31840 0.25010 0.45250 0.25700
Ag	Ag	0.64400 0.69700 0.53100 0.26400
Ag	Ag	0.50490 0.98580 0.76380 0.30200
Ag	Ag	0.52220 0.05740 0.77790 0.26100
N 	N 	0.21000 0.64300 0.16910 -0.21000
N 	N 	0.17700 0.53900 0.17360 -0.20600
C 	C 	0.14900 0.48600 0.11930 0.05800
H 	H 	0.13090 0.41450 0.11020 -0.07000
N 	N 	0.15100 0.54700 0.07900 -0.25000
C 	C 	0.17900 0.63700 0.11290 0.11000
H 	H 	0.17620 0.69370 0.09740 -0.07400
N 	N 	0.41900 0.93900 0.83000 -0.20800
N 	N 	0.32300 0.95800 0.83240 -0.20400
C 	C 	0.25700 0.88500 0.85610 0.06700
H 	H 	0.18450 0.87610 0.86110 -0.06300
N 	N 	0.30600 0.82100 0.87280 -0.23100
C 	C 	0.40700 0.85700 0.85430 0.05400
H 	H 	0.45890 0.82840 0.85820 -0.05700
N 	N 	0.11900 0.50000 0.85950 -0.20900
N 	N 	0.09200 0.43950 0.89960 -0.18600
C 	C 	0.03800 0.33300 0.87400 0.02800
H 	H 	0.01000 0.27510 0.89200 -0.05200
N 	N 	0.03600 0.33200 0.81420 -0.24700
C 	C 	0.08100 0.43400 0.81170 0.10700
H 	H 	0.08550 0.45580 0.77620 -0.08600
N 	N 	0.50500 0.79200 0.16500 -0.20100
N 	N 	0.47100 0.69100 0.17990 -0.21400
C 	C 	0.44200 0.62000 0.12890 0.04500
H 	H 	0.42120 0.54850 0.12590 -0.04600
N 	N 	0.44900 0.67200 0.08290 -0.22900
C 	C 	0.48300 0.77600 0.10870 0.05400
H 	H 	0.48910 0.82930 0.08750 -0.04500
N 	N 	0.21400 0.07280 0.69410 -0.21300
N 	N 	0.20800 0.16600 0.68490 -0.21900
C 	C 	0.18800 0.15900 0.62910 0.09600
H 	H 	0.19210 0.21470 0.61100 -0.07000
N 	N 	0.16200 0.06400 0.59910 -0.23800
C 	C 	0.18600 0.01700 0.64050 0.08100
H 	H 	0.18350 0.95100 0.63340 -0.06900
N 	N 	0.34500 0.42600 0.82920 -0.21100
N 	N 	0.43000 0.52200 0.82270 -0.20200
C 	C 	0.46600 0.59000 0.87490 0.04300
H 	H 	0.52590 0.65990 0.88420 -0.05600
N 	N 	0.40300 0.54000 0.91130 -0.24600
C 	C 	0.33400 0.44000 0.87820 0.11100
H 	H 	0.28070 0.38570 0.89240 -0.06900
N 	N 	0.13800 0.99000 0.41950 -0.20600
N 	N 	0.18300 0.07200 0.39170 -0.17900
C 	C 	0.14100 0.02100 0.33320 0.10400
H 	H 	0.14720 0.05660 0.30220 -0.06300
N 	N 	0.09300 0.92400 0.32680 -0.23700
C 	C 	0.08300 0.90100 0.38110 0.07100
H 	H 	0.04300 0.83300 0.38880 -0.06400
N 	N 	0.44100 0.97800 0.30960 -0.21800
N 	N 	0.34600 0.88700 0.31420 -0.22100
C 	C 	0.32900 0.90100 0.36430 0.09300
H 	H 	0.26740 0.85090 0.37640 -0.07000
N 	N 	0.41000 0.99600 0.39780 -0.23300
C 	C 	0.47500 0.04400 0.35950 0.05900
H 	H 	0.53450 0.11350 0.36830 -0.06400
N 	N 	0.42900 0.17900 0.55530 -0.20600
N 	N 	0.39600 0.25620 0.54430 -0.22200
C 	C 	0.42700 0.31500 0.59620 0.08400
H 	H 	0.41740 0.37540 0.60240 -0.06600
N 	N 	0.47500 0.28100 0.63920 -0.24100
C 	C 	0.46600 0.19100 0.61220 0.06100
H 	H 	0.48470 0.14370 0.63110 -0.05000
N 	N 	0.30900 0.43140 0.31440 -0.21600
N 	N 	0.41100 0.42600 0.31340 -0.20700
C 	C 	0.42300 0.36900 0.35400 0.04400
H 	H 	0.48480 0.35110 0.36240 -0.05700
N 	N 	0.33300 0.33900 0.38180 -0.23200
C 	C 	0.27000 0.38100 0.35270 0.09700
H 	H 	0.20030 0.37340 0.36050 -0.07200
