data_crystal

_cell_length_a 13.18850
_cell_length_b 18.11290
_cell_length_c 24.84100
_cell_angle_alpha 90.00000
_cell_angle_beta  90.00000
_cell_angle_gamma 90.00000

_symmetry_space_group_name_	'P 1'
_symmetry_space_group_name_H-M	'P 1'

loop_
_symmetry_equiv_pos_as_xyz
  x,y,z

loop_
_atom_site_label
_atom_site_type_symbol
_atom_site_fract_x
_atom_site_fract_y
_atom_site_fract_z
_atom_site_charge
Cd	Cd	0.83274 0.97939 0.32456 1.22000
Cd	Cd	0.91330 0.89783 0.84836 1.23200
Cd	Cd	0.66726 0.02061 0.82456 1.22000
Cd	Cd	0.58670 0.10217 0.34836 1.23200
Cd	Cd	0.16726 0.47939 0.17544 1.22000
Cd	Cd	0.08670 0.39783 0.65164 1.23200
Cd	Cd	0.33274 0.52061 0.67544 1.22100
Cd	Cd	0.41330 0.60217 0.15164 1.23300
H 	H 	0.04800 0.78970 0.27200 0.28000
H 	H 	0.94530 0.76030 0.24920 0.28200
H 	H 	0.10830 0.72330 0.18830 0.34900
H 	H 	0.99900 0.71510 0.16400 0.33200
H 	H 	0.95750 0.77070 0.07730 0.30600
H 	H 	0.04050 0.80550 0.04020 0.31200
H 	H 	0.94210 0.90370 0.07540 -0.31400
H 	H 	0.88770 0.82500 0.15310 0.27600
H 	H 	0.92400 0.90180 0.17520 0.28500
H 	H 	0.09720 0.91610 0.20920 0.33500
H 	H 	0.16820 0.84780 0.21880 0.32100
H 	H 	0.10380 0.92840 0.07120 0.36600
H 	H 	0.05850 0.96180 0.12370 0.36200
H 	H 	0.22610 0.91310 0.14150 -0.28900
H 	H 	0.24260 0.78290 0.12890 0.36400
H 	H 	0.20920 0.81880 0.07440 0.34600
H 	H 	0.18090 0.69600 0.05620 0.30900
H 	H 	0.07020 0.66840 0.06370 0.31800
H 	H 	0.65200 0.87500 0.26230 0.27400
H 	H 	0.53420 0.86740 0.26790 0.27100
H 	H 	0.46410 0.99030 0.19380 0.30800
H 	H 	0.41940 0.90990 0.19120 0.29600
H 	H 	0.65840 0.81520 0.17810 0.26100
H 	H 	0.54140 0.80010 0.18130 0.26700
H 	H 	0.42530 0.83860 0.10490 0.28900
H 	H 	0.47080 0.87460 0.05260 0.26900
H 	H 	0.40140 0.96640 0.10720 -0.23600
H 	H 	0.53770 0.00300 0.05820 0.30600
H 	H 	0.53290 0.04640 0.11290 0.31300
H 	H 	0.73290 0.87450 0.09920 0.25700
H 	H 	0.66720 0.89590 0.04890 0.25800
H 	H 	0.70190 0.00410 0.09800 -0.21500
H 	H 	0.72390 0.94670 0.18210 0.26900
H 	H 	0.64720 0.01240 0.18790 0.28000
H 	H 	0.59550 0.76850 0.04180 0.21600
H 	H 	0.67510 0.75080 0.08690 0.23100
H 	H 	0.03320 0.03570 0.26540 -0.04000
H 	H 	0.09210 0.11410 0.19690 0.11400
H 	H 	0.80790 0.17010 0.16740 0.12800
H 	H 	0.75680 0.09330 0.23390 -0.05400
H 	H 	0.06950 0.19920 0.12950 0.15900
H 	H 	0.97260 0.24910 0.13300 0.15800
H 	H 	0.81440 0.71430 0.53010 0.23200
H 	H 	0.78830 0.78430 0.56380 0.24300
H 	H 	0.71930 0.76220 0.45320 0.15400
H 	H 	0.71440 0.84150 0.38190 -0.07400
H 	H 	0.94760 0.94980 0.43630 -0.05300
H 	H 	0.96110 0.86990 0.50570 0.15800
H 	H 	0.79930 0.96690 0.95600 -0.05900
H 	H 	0.82950 0.04200 0.02610 0.13500
H 	H 	0.11300 0.06390 0.97880 0.11600
H 	H 	0.07880 0.99540 0.90700 -0.04000
H 	H 	0.08570 0.11160 0.05940 0.15200
H 	H 	0.00590 0.06890 0.09400 0.15100
H 	H 	0.97730 0.20690 0.04730 -0.06900
H 	H 	0.88910 0.16300 0.07540 -0.07500
H 	H 	0.95800 0.79990 0.58130 -0.18700
H 	H 	0.98020 0.72670 0.55010 -0.18200
H 	H 	0.85620 0.68210 0.61870 0.25900
H 	H 	0.97360 0.67490 0.62350 0.27200
H 	H 	0.80380 0.69520 0.70660 0.18000
H 	H 	0.80500 0.75890 0.78790 -0.09700
H 	H 	0.03190 0.87600 0.73660 -0.06500
H 	H 	0.03540 0.81090 0.65610 0.19000
H 	H 	0.45200 0.21030 0.77200 0.27900
H 	H 	0.55470 0.23970 0.74920 0.28100
H 	H 	0.39170 0.27670 0.68830 0.35000
H 	H 	0.50100 0.28490 0.66400 0.33500
H 	H 	0.54250 0.22930 0.57730 0.31000
H 	H 	0.45950 0.19450 0.54020 0.31400
H 	H 	0.55790 0.09630 0.57540 -0.31700
H 	H 	0.61230 0.17500 0.65310 0.27700
H 	H 	0.57600 0.09820 0.67520 0.28600
H 	H 	0.40280 0.08390 0.70920 0.33500
H 	H 	0.33180 0.15220 0.71880 0.32200
H 	H 	0.39620 0.07160 0.57120 0.36800
H 	H 	0.44150 0.03820 0.62370 0.36400
H 	H 	0.27390 0.08690 0.64150 -0.29100
H 	H 	0.25740 0.21710 0.62890 0.36600
H 	H 	0.29080 0.18120 0.57440 0.34800
H 	H 	0.31910 0.30400 0.55620 0.31000
H 	H 	0.42980 0.33160 0.56370 0.31900
H 	H 	0.84800 0.12500 0.76230 0.27400
H 	H 	0.96580 0.13260 0.76790 0.27200
H 	H 	0.03590 0.00970 0.69380 0.30800
H 	H 	0.08060 0.09010 0.69120 0.29600
H 	H 	0.84160 0.18480 0.67810 0.26100
H 	H 	0.95860 0.19990 0.68130 0.26800
H 	H 	0.07470 0.16140 0.60490 0.28900
H 	H 	0.02920 0.12540 0.55260 0.26900
H 	H 	0.09860 0.03360 0.60720 -0.23500
H 	H 	0.96230 0.99700 0.55820 0.30500
H 	H 	0.96710 0.95360 0.61290 0.31200
H 	H 	0.76710 0.12550 0.59920 0.25700
H 	H 	0.83280 0.10410 0.54890 0.25800
H 	H 	0.79810 0.99590 0.59800 -0.21500
H 	H 	0.77610 0.05330 0.68210 0.26900
H 	H 	0.85280 0.98760 0.68790 0.28000
H 	H 	0.90450 0.23150 0.54180 0.21700
H 	H 	0.82490 0.24920 0.58690 0.23200
H 	H 	0.46680 0.96430 0.76540 -0.03800
H 	H 	0.40790 0.88590 0.69690 0.11300
H 	H 	0.69210 0.82990 0.66740 0.12800
H 	H 	0.74320 0.90670 0.73390 -0.05400
H 	H 	0.43050 0.80080 0.62950 0.15800
H 	H 	0.52740 0.75090 0.63300 0.15800
H 	H 	0.68560 0.28570 0.03010 0.23200
H 	H 	0.71170 0.21570 0.06380 0.24300
H 	H 	0.78070 0.23780 0.95320 0.15500
H 	H 	0.78560 0.15850 0.88190 -0.07400
H 	H 	0.55240 0.05020 0.93630 -0.05300
H 	H 	0.53890 0.13010 0.00570 0.15800
H 	H 	0.70070 0.03310 0.45600 -0.05900
H 	H 	0.67050 0.95800 0.52610 0.13500
H 	H 	0.38700 0.93610 0.47880 0.11700
H 	H 	0.42120 0.00460 0.40700 -0.04300
H 	H 	0.41430 0.88840 0.55940 0.15200
H 	H 	0.49410 0.93110 0.59400 0.15100
H 	H 	0.52270 0.79310 0.54730 -0.06900
H 	H 	0.61090 0.83700 0.57540 -0.07500
H 	H 	0.54200 0.20010 0.08130 -0.18800
H 	H 	0.51980 0.27330 0.05010 -0.18200
H 	H 	0.64380 0.31790 0.11870 0.25900
H 	H 	0.52640 0.32510 0.12350 0.27200
H 	H 	0.69620 0.30480 0.20660 0.18000
H 	H 	0.69500 0.24110 0.28790 -0.09700
H 	H 	0.46810 0.12400 0.23660 -0.06500
H 	H 	0.46460 0.18910 0.15610 0.19000
H 	H 	0.95200 0.28970 0.22800 0.27800
H 	H 	0.05470 0.26030 0.25080 0.28100
H 	H 	0.89170 0.22330 0.31170 0.34900
H 	H 	0.00100 0.21510 0.33600 0.33300
H 	H 	0.04250 0.27070 0.42270 0.30700
H 	H 	0.95950 0.30550 0.45980 0.31300
H 	H 	0.05790 0.40370 0.42460 -0.31500
H 	H 	0.11230 0.32500 0.34690 0.27600
H 	H 	0.07600 0.40180 0.32480 0.28600
H 	H 	0.90280 0.41610 0.29080 0.33400
H 	H 	0.83180 0.34780 0.28120 0.32100
H 	H 	0.89620 0.42840 0.42880 0.36700
H 	H 	0.94150 0.46180 0.37630 0.36200
H 	H 	0.77390 0.41310 0.35850 -0.29000
H 	H 	0.75740 0.28290 0.37110 0.36500
H 	H 	0.79080 0.31880 0.42560 0.34700
H 	H 	0.81910 0.19600 0.44380 0.30900
H 	H 	0.92980 0.16840 0.43630 0.31800
H 	H 	0.34800 0.37500 0.23770 0.27400
H 	H 	0.46580 0.36740 0.23210 0.27100
H 	H 	0.53590 0.49030 0.30620 0.30800
H 	H 	0.58060 0.40990 0.30880 0.29600
H 	H 	0.34160 0.31520 0.32190 0.26100
H 	H 	0.45860 0.30010 0.31870 0.26700
H 	H 	0.57470 0.33860 0.39510 0.29000
H 	H 	0.52920 0.37460 0.44740 0.26900
H 	H 	0.59860 0.46640 0.39280 -0.23600
H 	H 	0.46230 0.50300 0.44180 0.30700
H 	H 	0.46710 0.54640 0.38710 0.31400
H 	H 	0.26710 0.37450 0.40080 0.25700
H 	H 	0.33280 0.39590 0.45110 0.25800
H 	H 	0.29810 0.50410 0.40200 -0.21500
H 	H 	0.27610 0.44670 0.31790 0.26900
H 	H 	0.35280 0.51240 0.31210 0.28100
H 	H 	0.40450 0.26850 0.45820 0.21600
H 	H 	0.32490 0.25080 0.41310 0.23100
H 	H 	0.96680 0.53570 0.23460 -0.03900
H 	H 	0.90790 0.61410 0.30310 0.11400
H 	H 	0.19210 0.67010 0.33260 0.12800
H 	H 	0.24320 0.59330 0.26610 -0.05400
H 	H 	0.93050 0.69920 0.37050 0.15800
H 	H 	0.02740 0.74910 0.36700 0.15800
H 	H 	0.18560 0.21430 0.96990 0.23200
H 	H 	0.21170 0.28430 0.93620 0.24400
H 	H 	0.28070 0.26220 0.04680 0.15500
H 	H 	0.28560 0.34150 0.11810 -0.07400
H 	H 	0.05240 0.44980 0.06370 -0.05300
H 	H 	0.03890 0.36990 0.99430 0.15700
H 	H 	0.20070 0.46690 0.54400 -0.05900
H 	H 	0.17050 0.54200 0.47390 0.13400
H 	H 	0.88700 0.56390 0.52120 0.11600
H 	H 	0.92120 0.49540 0.59300 -0.04200
H 	H 	0.91430 0.61160 0.44060 0.15200
H 	H 	0.99410 0.56890 0.40600 0.15100
H 	H 	0.02270 0.70690 0.45270 -0.06800
H 	H 	0.11090 0.66300 0.42460 -0.07500
H 	H 	0.04200 0.29990 0.91870 -0.18900
H 	H 	0.01980 0.22670 0.94990 -0.18300
H 	H 	0.14380 0.18210 0.88130 0.26000
H 	H 	0.02640 0.17490 0.87650 0.27200
H 	H 	0.19620 0.19520 0.79340 0.18100
H 	H 	0.19500 0.25890 0.71210 -0.09800
H 	H 	0.96810 0.37600 0.76340 -0.06500
H 	H 	0.96460 0.31090 0.84390 0.19200
H 	H 	0.54800 0.71030 0.72800 0.27900
H 	H 	0.44530 0.73970 0.75080 0.28100
H 	H 	0.60830 0.77670 0.81170 0.35000
H 	H 	0.49900 0.78490 0.83600 0.33500
H 	H 	0.45750 0.72930 0.92270 0.31000
H 	H 	0.54050 0.69450 0.95980 0.31400
H 	H 	0.44210 0.59630 0.92460 -0.31700
H 	H 	0.38770 0.67500 0.84690 0.27700
H 	H 	0.42400 0.59820 0.82480 0.28700
H 	H 	0.59720 0.58390 0.79080 0.33500
H 	H 	0.66820 0.65220 0.78120 0.32200
H 	H 	0.60380 0.57160 0.92880 0.36900
H 	H 	0.55850 0.53820 0.87630 0.36400
H 	H 	0.72610 0.58690 0.85850 -0.29100
H 	H 	0.74260 0.71710 0.87110 0.36600
H 	H 	0.70920 0.68120 0.92560 0.34800
H 	H 	0.68090 0.80400 0.94380 0.31000
H 	H 	0.57020 0.83160 0.93630 0.31900
H 	H 	0.15200 0.62500 0.73770 0.27400
H 	H 	0.03420 0.63260 0.73210 0.27100
H 	H 	0.96410 0.50970 0.80620 0.30800
H 	H 	0.91940 0.59010 0.80880 0.29600
H 	H 	0.15840 0.68480 0.82190 0.26100
H 	H 	0.04140 0.69990 0.81870 0.26700
H 	H 	0.92530 0.66140 0.89510 0.28900
H 	H 	0.97080 0.62540 0.94740 0.26900
H 	H 	0.90140 0.53360 0.89280 -0.23600
H 	H 	0.03770 0.49700 0.94180 0.30700
H 	H 	0.03290 0.45360 0.88710 0.31400
H 	H 	0.23290 0.62550 0.90080 0.25700
H 	H 	0.16720 0.60410 0.95110 0.25800
H 	H 	0.20190 0.49590 0.90200 -0.21500
H 	H 	0.22390 0.55330 0.81790 0.26900
H 	H 	0.14720 0.48760 0.81210 0.28000
H 	H 	0.09550 0.73150 0.95820 0.21600
H 	H 	0.17510 0.74920 0.91310 0.23100
H 	H 	0.53320 0.46430 0.73460 -0.03800
H 	H 	0.59210 0.38590 0.80310 0.11300
H 	H 	0.30790 0.32990 0.83260 0.12800
H 	H 	0.25680 0.40670 0.76610 -0.05400
H 	H 	0.56950 0.30080 0.87050 0.15800
H 	H 	0.47260 0.25090 0.86700 0.15800
H 	H 	0.31440 0.78570 0.46990 0.23200
H 	H 	0.28830 0.71570 0.43620 0.24300
H 	H 	0.21930 0.73780 0.54680 0.15400
H 	H 	0.21440 0.65850 0.61810 -0.07400
H 	H 	0.44760 0.55020 0.56370 -0.05300
H 	H 	0.46110 0.63010 0.49430 0.15800
H 	H 	0.29930 0.53310 0.04400 -0.05900
H 	H 	0.32950 0.45800 0.97390 0.13500
H 	H 	0.61300 0.43610 0.02120 0.11600
H 	H 	0.57880 0.50460 0.09300 -0.04200
H 	H 	0.58570 0.38840 0.94060 0.15200
H 	H 	0.50590 0.43110 0.90600 0.15100
H 	H 	0.47730 0.29310 0.95270 -0.06900
H 	H 	0.38910 0.33700 0.92460 -0.07500
H 	H 	0.45800 0.70010 0.41870 -0.18700
H 	H 	0.48020 0.77330 0.44990 -0.18200
H 	H 	0.35620 0.81790 0.38130 0.25900
H 	H 	0.47360 0.82510 0.37650 0.27200
H 	H 	0.30380 0.80480 0.29340 0.18000
H 	H 	0.30500 0.74110 0.21210 -0.09700
H 	H 	0.53190 0.62400 0.26340 -0.06500
H 	H 	0.53540 0.68910 0.34390 0.19000
C 	C 	0.93500 0.86390 0.27790 0.54900
C 	C 	0.98970 0.80290 0.25020 -0.87100
C 	C 	0.02750 0.81810 0.19150 0.88800
C 	C 	0.05760 0.74740 0.16610 -1.06600
C 	C 	0.10090 0.75950 0.10870 1.00700
C 	C 	0.01840 0.80080 0.07730 -1.04200
C 	C 	0.99090 0.87770 0.09830 1.00800
C 	C 	0.94600 0.85710 0.15710 -0.91700
C 	C 	0.11830 0.86890 0.19450 -1.02500
C 	C 	0.07690 0.91580 0.10630 -1.18200
C 	C 	0.16640 0.88100 0.13990 0.94200
C 	C 	0.18730 0.80810 0.11080 -1.14300
C 	C 	0.12970 0.68530 0.08310 -1.04900
C 	C 	0.16730 0.62100 0.11430 0.77300
C 	C 	0.58490 0.97000 0.28780 0.55300
C 	C 	0.58800 0.89970 0.25540 -0.84100
C 	C 	0.47320 0.94170 0.17810 -0.90900
C 	C 	0.57650 0.91040 0.19470 0.75200
C 	C 	0.59230 0.83420 0.16810 -0.82300
C 	C 	0.58500 0.83900 0.10590 0.70900
C 	C 	0.47800 0.87090 0.09140 -0.87300
C 	C 	0.46830 0.94680 0.11680 0.82600
C 	C 	0.54370 0.99820 0.09700 -0.96300
C 	C 	0.66710 0.89280 0.08790 -0.83600
C 	C 	0.65020 0.96990 0.11150 0.74300
C 	C 	0.65690 0.96390 0.17210 -0.85500
C 	C 	0.60520 0.76480 0.08040 -0.74300
C 	C 	0.53350 0.70420 0.10340 0.48700
C 	C 	0.98680 0.06270 0.24530 0.13600
C 	C 	0.02300 0.11060 0.20400 -0.31100
C 	C 	0.95550 0.15090 0.17510 0.27000
C 	C 	0.85590 0.14330 0.18670 -0.31800
C 	C 	0.82570 0.09700 0.22640 0.15100
C 	C 	0.99600 0.19880 0.12840 -0.47500
C 	C 	0.83900 0.76280 0.54030 -0.75500
C 	C 	0.84170 0.80890 0.49010 0.42400
C 	C 	0.76660 0.80010 0.45070 -0.39500
C 	C 	0.76410 0.84910 0.40780 0.22700
C 	C 	0.90090 0.91160 0.43950 0.18700
C 	C 	0.90780 0.86400 0.48150 -0.39900
C 	C 	0.86340 0.98760 0.95980 0.16000
C 	C 	0.88250 0.03090 0.00280 -0.29500
C 	C 	0.97950 0.06030 0.01390 0.28700
C 	C 	0.04780 0.04490 0.97520 -0.32100
C 	C 	0.02710 0.00360 0.93180 0.15700
C 	C 	0.01390 0.10130 0.06310 -0.47700
C 	C 	0.96190 0.17080 0.07490 0.30600
C 	C 	0.93050 0.75180 0.57240 0.67200
C 	C 	0.91850 0.71030 0.62180 -0.85300
C 	C 	0.91550 0.74930 0.67390 0.54400
C 	C 	0.85060 0.73290 0.71200 -0.52200
C 	C 	0.85110 0.77190 0.76120 0.24200
C 	C 	0.98360 0.83940 0.73100 0.21400
C 	C 	0.98630 0.80090 0.68190 -0.48100
C 	C 	0.56500 0.13610 0.77790 0.54900
C 	C 	0.51030 0.19710 0.75020 -0.86900
C 	C 	0.47250 0.18190 0.69150 0.89000
C 	C 	0.44240 0.25260 0.66610 -1.07200
C 	C 	0.39910 0.24050 0.60870 1.01200
C 	C 	0.48160 0.19920 0.57730 -1.05200
C 	C 	0.50910 0.12230 0.59830 1.01900
C 	C 	0.55400 0.14290 0.65710 -0.92000
C 	C 	0.38170 0.13110 0.69450 -1.02800
C 	C 	0.42310 0.08420 0.60630 -1.19200
C 	C 	0.33360 0.11900 0.63990 0.94800
C 	C 	0.31270 0.19190 0.61080 -1.14800
C 	C 	0.37030 0.31470 0.58310 -1.05200
C 	C 	0.33270 0.37900 0.61430 0.77500
C 	C 	0.91510 0.03000 0.78780 0.55400
C 	C 	0.91200 0.10030 0.75540 -0.84200
C 	C 	0.02680 0.05830 0.67810 -0.91000
C 	C 	0.92350 0.08960 0.69470 0.75300
C 	C 	0.90770 0.16580 0.66810 -0.82400
C 	C 	0.91500 0.16100 0.60590 0.71000
C 	C 	0.02200 0.12910 0.59140 -0.87400
C 	C 	0.03170 0.05320 0.61680 0.82300
C 	C 	0.95630 0.00180 0.59700 -0.95900
C 	C 	0.83290 0.10720 0.58790 -0.83600
C 	C 	0.84980 0.03010 0.61150 0.74300
C 	C 	0.84310 0.03610 0.67210 -0.85400
C 	C 	0.89480 0.23520 0.58040 -0.74500
C 	C 	0.96650 0.29580 0.60340 0.48800
C 	C 	0.51320 0.93730 0.74530 0.13400
C 	C 	0.47700 0.88940 0.70400 -0.30900
C 	C 	0.54450 0.84910 0.67510 0.26800
C 	C 	0.64410 0.85670 0.68670 -0.31700
C 	C 	0.67430 0.90300 0.72640 0.15000
C 	C 	0.50400 0.80120 0.62840 -0.47400
C 	C 	0.66100 0.23720 0.04030 -0.75700
C 	C 	0.65830 0.19110 0.99010 0.42500
C 	C 	0.73340 0.19990 0.95070 -0.39600
C 	C 	0.73590 0.15090 0.90780 0.22800
C 	C 	0.59910 0.08840 0.93950 0.18800
C 	C 	0.59220 0.13600 0.98150 -0.39900
C 	C 	0.63660 0.01240 0.45980 0.16000
C 	C 	0.61750 0.96910 0.50280 -0.29500
C 	C 	0.52050 0.93970 0.51390 0.28800
C 	C 	0.45220 0.95510 0.47520 -0.32300
C 	C 	0.47290 0.99640 0.43180 0.16200
C 	C 	0.48610 0.89870 0.56310 -0.47800
C 	C 	0.53810 0.82920 0.57490 0.30600
C 	C 	0.56950 0.24820 0.07240 0.67300
C 	C 	0.58150 0.28970 0.12180 -0.85400
C 	C 	0.58450 0.25070 0.17390 0.54500
C 	C 	0.64940 0.26710 0.21200 -0.52200
C 	C 	0.64890 0.22810 0.26120 0.24300
C 	C 	0.51640 0.16060 0.23100 0.21500
C 	C 	0.51370 0.19910 0.18190 -0.48200
C 	C 	0.06500 0.36390 0.22210 0.54800
C 	C 	0.01030 0.30290 0.24980 -0.86800
C 	C 	0.97250 0.31810 0.30850 0.88700
C 	C 	0.94240 0.24740 0.33390 -1.06800
C 	C 	0.89910 0.25950 0.39130 1.00900
C 	C 	0.98160 0.30080 0.42270 -1.04700
C 	C 	0.00910 0.37770 0.40170 1.01300
C 	C 	0.05400 0.35710 0.34290 -0.91700
C 	C 	0.88170 0.36890 0.30550 -1.02600
C 	C 	0.92310 0.41580 0.39370 -1.18700
C 	C 	0.83360 0.38100 0.36010 0.94400
C 	C 	0.81270 0.30810 0.38920 -1.14500
C 	C 	0.87030 0.18530 0.41690 -1.05000
C 	C 	0.83270 0.12100 0.38570 0.77400
C 	C 	0.41510 0.47000 0.21220 0.55300
C 	C 	0.41200 0.39970 0.24460 -0.84100
C 	C 	0.52680 0.44170 0.32190 -0.91000
C 	C 	0.42350 0.41040 0.30530 0.75200
C 	C 	0.40770 0.33420 0.33190 -0.82300
C 	C 	0.41500 0.33900 0.39410 0.70900
C 	C 	0.52200 0.37090 0.40860 -0.87400
C 	C 	0.53170 0.44680 0.38320 0.82700
C 	C 	0.45630 0.49820 0.40300 -0.96500
C 	C 	0.33290 0.39280 0.41210 -0.83700
C 	C 	0.34980 0.46990 0.38850 0.74400
C 	C 	0.34310 0.46390 0.32790 -0.85600
C 	C 	0.39480 0.26480 0.41960 -0.74400
C 	C 	0.46650 0.20420 0.39660 0.48700
C 	C 	0.01320 0.56270 0.25470 0.13500
C 	C 	0.97700 0.61060 0.29600 -0.31000
C 	C 	0.04450 0.65090 0.32490 0.26900
C 	C 	0.14410 0.64330 0.31330 -0.31800
C 	C 	0.17430 0.59700 0.27360 0.15000
C 	C 	0.00400 0.69880 0.37160 -0.47300
C 	C 	0.16100 0.26280 0.95970 -0.75800
C 	C 	0.15830 0.30890 0.00990 0.42500
C 	C 	0.23340 0.30010 0.04930 -0.39500
C 	C 	0.23590 0.34910 0.09220 0.22700
C 	C 	0.09910 0.41160 0.06050 0.18700
C 	C 	0.09220 0.36400 0.01850 -0.39700
C 	C 	0.13660 0.48760 0.54020 0.15900
C 	C 	0.11750 0.53090 0.49720 -0.29400
C 	C 	0.02050 0.56030 0.48610 0.28600
C 	C 	0.95220 0.54490 0.52480 -0.32000
C 	C 	0.97290 0.50360 0.56820 0.16100
C 	C 	0.98610 0.60130 0.43690 -0.47600
C 	C 	0.03810 0.67080 0.42510 0.30400
C 	C 	0.06950 0.25180 0.92760 0.67500
C 	C 	0.08150 0.21030 0.87820 -0.85600
C 	C 	0.08450 0.24930 0.82610 0.54600
C 	C 	0.14940 0.23290 0.78800 -0.52300
C 	C 	0.14890 0.27190 0.73880 0.24300
C 	C 	0.01640 0.33940 0.76900 0.21400
C 	C 	0.01370 0.30090 0.81810 -0.48500
C 	C 	0.43500 0.63610 0.72210 0.54900
C 	C 	0.48970 0.69710 0.74980 -0.87000
C 	C 	0.52750 0.68190 0.80850 0.89000
C 	C 	0.55760 0.75260 0.83390 -1.07200
C 	C 	0.60090 0.74050 0.89130 1.01300
C 	C 	0.51840 0.69920 0.92270 -1.05300
C 	C 	0.49090 0.62230 0.90170 1.02000
C 	C 	0.44600 0.64290 0.84290 -0.92000
C 	C 	0.61830 0.63110 0.80550 -1.02900
C 	C 	0.57690 0.58420 0.89370 -1.19300
C 	C 	0.66640 0.61900 0.86010 0.94800
C 	C 	0.68730 0.69190 0.88920 -1.14900
C 	C 	0.62970 0.81470 0.91690 -1.05300
C 	C 	0.66730 0.87900 0.88570 0.77500
C 	C 	0.08490 0.53000 0.71220 0.55200
C 	C 	0.08800 0.60030 0.74460 -0.84100
C 	C 	0.97320 0.55830 0.82190 -0.90900
C 	C 	0.07650 0.58960 0.80530 0.75100
C 	C 	0.09230 0.66580 0.83190 -0.82200
C 	C 	0.08500 0.66100 0.89410 0.70800
C 	C 	0.97800 0.62910 0.90860 -0.87300
C 	C 	0.96830 0.55320 0.88320 0.82700
C 	C 	0.04370 0.50180 0.90300 -0.96600
C 	C 	0.16710 0.60720 0.91210 -0.83700
C 	C 	0.15020 0.53010 0.88850 0.74400
C 	C 	0.15690 0.53610 0.82790 -0.85500
C 	C 	0.10520 0.73520 0.91960 -0.74300
C 	C 	0.03350 0.79580 0.89660 0.48600
C 	C 	0.48680 0.43730 0.75470 0.13400
C 	C 	0.52300 0.38940 0.79600 -0.30900
C 	C 	0.45550 0.34910 0.82490 0.26800
C 	C 	0.35590 0.35670 0.81330 -0.31700
C 	C 	0.32570 0.40300 0.77360 0.15000
C 	C 	0.49600 0.30120 0.87160 -0.47400
C 	C 	0.33900 0.73720 0.45970 -0.75600
C 	C 	0.34170 0.69110 0.50990 0.42400
C 	C 	0.26660 0.69990 0.54930 -0.39500
C 	C 	0.26410 0.65090 0.59220 0.22700
C 	C 	0.40090 0.58840 0.56050 0.18800
C 	C 	0.40780 0.63600 0.51850 -0.39900
C 	C 	0.36340 0.51240 0.04020 0.16000
C 	C 	0.38250 0.46910 0.99720 -0.29500
C 	C 	0.47950 0.43970 0.98610 0.28800
C 	C 	0.54780 0.45510 0.02480 -0.32200
C 	C 	0.52710 0.49640 0.06820 0.16100
C 	C 	0.51390 0.39870 0.93690 -0.47800
C 	C 	0.46190 0.32920 0.92510 0.30600
C 	C 	0.43050 0.74820 0.42760 0.67200
C 	C 	0.41850 0.78970 0.37820 -0.85300
C 	C 	0.41550 0.75070 0.32610 0.54400
C 	C 	0.35060 0.76710 0.28800 -0.52200
C 	C 	0.35110 0.72810 0.23880 0.24200
C 	C 	0.48360 0.66060 0.26900 0.21500
C 	C 	0.48630 0.69910 0.31810 -0.48200
N 	N 	0.89120 0.05590 0.25550 -0.26900
N 	N 	0.82410 0.90400 0.40060 -0.28400
N 	N 	0.93530 0.97320 0.92180 -0.26700
N 	N 	0.91540 0.82680 0.77030 -0.29600
N 	N 	0.60880 0.94410 0.75550 -0.26800
N 	N 	0.67590 0.09600 0.90060 -0.28400
N 	N 	0.56470 0.02680 0.42180 -0.26800
N 	N 	0.58460 0.17320 0.27030 -0.29600
N 	N 	0.10880 0.55590 0.24450 -0.26900
N 	N 	0.17590 0.40400 0.09940 -0.28400
N 	N 	0.06470 0.47320 0.57820 -0.26800
N 	N 	0.08460 0.32680 0.72970 -0.29600
N 	N 	0.39120 0.44410 0.74450 -0.26800
N 	N 	0.32410 0.59600 0.59940 -0.28400
N 	N 	0.43530 0.52680 0.07820 -0.26800
N 	N 	0.41540 0.67320 0.22970 -0.29600
O 	O 	0.84120 0.86650 0.27550 -0.49100
O 	O 	0.98670 0.91000 0.30460 -0.45400
O 	O 	0.10010 0.57130 0.11760 -0.53200
O 	O 	0.24230 0.62250 0.13690 -0.64900
O 	O 	0.66480 0.99790 0.30500 -0.59500
O 	O 	0.50070 0.00380 0.29650 -0.43700
O 	O 	0.57750 0.65360 0.13230 -0.42300
O 	O 	0.44430 0.70380 0.09650 -0.49000
O 	O 	0.65880 0.13350 0.77550 -0.49100
O 	O 	0.51330 0.09000 0.80460 -0.45300
O 	O 	0.39990 0.42870 0.61760 -0.53300
O 	O 	0.25770 0.37750 0.63690 -0.65000
O 	O 	0.83520 0.00210 0.80500 -0.59500
O 	O 	0.99930 0.99620 0.79650 -0.43700
O 	O 	0.92250 0.34640 0.63230 -0.42300
O 	O 	0.05570 0.29620 0.59650 -0.49100
O 	O 	0.15880 0.36650 0.22450 -0.49000
O 	O 	0.01330 0.41000 0.19540 -0.45300
O 	O 	0.89990 0.07130 0.38240 -0.53200
O 	O 	0.75770 0.12250 0.36310 -0.64900
O 	O 	0.33520 0.49790 0.19500 -0.59500
O 	O 	0.49930 0.50380 0.20350 -0.43700
O 	O 	0.42250 0.15360 0.36770 -0.42300
O 	O 	0.55570 0.20380 0.40350 -0.49000
O 	O 	0.34120 0.63350 0.72450 -0.49100
O 	O 	0.48670 0.59000 0.69540 -0.45300
O 	O 	0.60010 0.92870 0.88240 -0.53300
O 	O 	0.74230 0.87750 0.86310 -0.65000
O 	O 	0.16480 0.50210 0.69500 -0.59500
O 	O 	0.00070 0.49620 0.70350 -0.43700
O 	O 	0.07750 0.84640 0.86770 -0.42300
O 	O 	0.94430 0.79620 0.90350 -0.48900
