data_crystal

_cell_length_a 13.57920
_cell_length_b 13.89580
_cell_length_c 20.74780
_cell_angle_alpha 90.00000
_cell_angle_beta  104.88200
_cell_angle_gamma 90.00000

_symmetry_space_group_name_	'P 1'
_symmetry_space_group_name_H-M	'P 1'

loop_
_symmetry_equiv_pos_as_xyz
  x,y,z

loop_
_atom_site_label
_atom_site_type_symbol
_atom_site_fract_x
_atom_site_fract_y
_atom_site_fract_z
_atom_site_charge
Mg	Mg	0.34614 0.13395 0.04953 1.46900
Mg	Mg	0.59493 0.04299 0.05170 1.46700
Mg	Mg	0.65386 0.63395 0.45047 1.46900
Mg	Mg	0.40507 0.54299 0.44830 1.46700
Mg	Mg	0.65386 0.86605 0.95047 1.47000
Mg	Mg	0.40507 0.95701 0.94830 1.46800
Mg	Mg	0.34614 0.36605 0.54953 1.47000
Mg	Mg	0.59493 0.45701 0.55170 1.46800
P 	P 	0.26404 0.03705 0.18150 0.22000
P 	P 	0.73596 0.53705 0.31850 0.22200
P 	P 	0.73596 0.96295 0.81850 0.22000
P 	P 	0.26404 0.46295 0.68150 0.22200
H 	H 	0.43290 0.97380 0.07290 0.17300
H 	H 	0.32480 0.23220 0.19310 0.03800
H 	H 	0.36250 0.34520 0.27860 0.03300
H 	H 	0.28640 0.15430 0.40340 0.02500
H 	H 	0.24680 0.04020 0.31830 0.05400
H 	H 	0.08070 0.13140 0.19560 0.05400
H 	H 	0.90770 0.11620 0.14230 0.03100
H 	H 	0.97020 0.89430 0.03550 0.02900
H 	H 	0.14430 0.91070 0.08610 0.05200
H 	H 	0.17880 0.86670 0.23190 0.05600
H 	H 	0.25180 0.73870 0.29990 0.03100
H 	H 	0.53220 0.83940 0.30350 0.02500
H 	H 	0.45990 0.96080 0.23070 0.06300
H 	H 	0.56710 0.47380 0.42710 0.17100
H 	H 	0.67520 0.73220 0.30690 0.03800
H 	H 	0.63750 0.84520 0.22140 0.03300
H 	H 	0.71360 0.65430 0.09660 0.02600
H 	H 	0.75320 0.54020 0.18170 0.05400
H 	H 	0.91930 0.63140 0.30440 0.05300
H 	H 	0.09230 0.61620 0.35770 0.03300
H 	H 	0.02980 0.39430 0.46450 0.03000
H 	H 	0.85570 0.41070 0.41390 0.05100
H 	H 	0.82120 0.36670 0.26810 0.05600
H 	H 	0.74820 0.23870 0.20010 0.03200
H 	H 	0.46780 0.33940 0.19650 0.02500
H 	H 	0.54010 0.46080 0.26930 0.06200
H 	H 	0.56710 0.02620 0.92710 0.17300
H 	H 	0.67520 0.76780 0.80690 0.03800
H 	H 	0.63750 0.65480 0.72140 0.03300
H 	H 	0.71360 0.84570 0.59660 0.02500
H 	H 	0.75320 0.95980 0.68170 0.05400
H 	H 	0.91930 0.86860 0.80440 0.05400
H 	H 	0.09230 0.88380 0.85770 0.03100
H 	H 	0.02980 0.10570 0.96450 0.02900
H 	H 	0.85570 0.08930 0.91390 0.05200
H 	H 	0.82120 0.13330 0.76810 0.05600
H 	H 	0.74820 0.26130 0.70010 0.03100
H 	H 	0.46780 0.16060 0.69650 0.02500
H 	H 	0.54010 0.03920 0.76930 0.06300
H 	H 	0.43290 0.52620 0.57290 0.17100
H 	H 	0.32480 0.26780 0.69310 0.03800
H 	H 	0.36250 0.15480 0.77860 0.03300
H 	H 	0.28640 0.34570 0.90340 0.02600
H 	H 	0.24680 0.45980 0.81830 0.05400
H 	H 	0.08070 0.36860 0.69560 0.05300
H 	H 	0.90770 0.38380 0.64230 0.03300
H 	H 	0.97020 0.60570 0.53550 0.03000
H 	H 	0.14430 0.58930 0.58610 0.05100
H 	H 	0.17880 0.63330 0.73190 0.05600
H 	H 	0.25180 0.76130 0.79990 0.03200
H 	H 	0.53220 0.66060 0.80350 0.02500
H 	H 	0.45990 0.53920 0.73070 0.06200
C 	C 	0.28410 0.12560 0.24731 -0.01800
C 	C 	0.31740 0.21570 0.23610 -0.06600
C 	C 	0.34020 0.28270 0.28700 0.02000
C 	C 	0.33080 0.25940 0.35036 -0.12000
C 	C 	0.29510 0.17000 0.36060 0.03000
C 	C 	0.27130 0.10190 0.31030 -0.07900
C 	C 	0.35920 0.33150 0.40660 0.40800
C 	C 	0.12930 0.02290 0.14608 -0.02100
C 	C 	0.05870 0.08330 0.16250 -0.08500
C 	C 	0.95580 0.07420 0.13080 0.03600
C 	C 	0.92340 0.00510 0.08340 -0.13100
C 	C 	0.99310 0.94350 0.06760 0.03500
C 	C 	0.09650 0.95250 0.09800 -0.07500
C 	C 	0.80990 0.99390 0.04950 0.44200
C 	C 	0.31140 0.92730 0.22540 -0.00500
C 	C 	0.25090 0.86080 0.24600 -0.08500
C 	C 	0.29430 0.78530 0.28710 0.02900
C 	C 	0.39930 0.77720 0.30990 -0.12200
C 	C 	0.46010 0.84420 0.28850 0.03500
C 	C 	0.41730 0.91700 0.24620 -0.08500
C 	C 	0.44710 0.69980 0.35920 0.41100
C 	C 	0.71590 0.62560 0.25269 -0.01800
C 	C 	0.68260 0.71570 0.26390 -0.06600
C 	C 	0.65980 0.78270 0.21300 0.02000
C 	C 	0.66920 0.75940 0.14964 -0.12000
C 	C 	0.70490 0.67000 0.13940 0.03000
C 	C 	0.72870 0.60190 0.18970 -0.07800
C 	C 	0.64080 0.83150 0.09340 0.40800
C 	C 	0.87070 0.52290 0.35392 -0.02200
C 	C 	0.94130 0.58330 0.33750 -0.07900
C 	C 	0.04420 0.57420 0.36920 0.02800
C 	C 	0.07660 0.50510 0.41660 -0.12400
C 	C 	0.00690 0.44350 0.43240 0.02800
C 	C 	0.90350 0.45250 0.40200 -0.07200
C 	C 	0.19010 0.49390 0.45050 0.43700
C 	C 	0.68860 0.42730 0.27460 -0.00700
C 	C 	0.74910 0.36080 0.25400 -0.08500
C 	C 	0.70570 0.28530 0.21290 0.02800
C 	C 	0.60070 0.27720 0.19010 -0.12200
C 	C 	0.53990 0.34420 0.21150 0.03400
C 	C 	0.58270 0.41700 0.25380 -0.08400
C 	C 	0.55290 0.19980 0.14080 0.41000
C 	C 	0.71590 0.87440 0.75269 -0.01800
C 	C 	0.68260 0.78430 0.76390 -0.06600
C 	C 	0.65980 0.71730 0.71300 0.02000
C 	C 	0.66920 0.74060 0.64964 -0.12000
C 	C 	0.70490 0.83000 0.63940 0.03000
C 	C 	0.72870 0.89810 0.68970 -0.07900
C 	C 	0.64080 0.66850 0.59340 0.40800
C 	C 	0.87070 0.97710 0.85392 -0.02100
C 	C 	0.94130 0.91670 0.83750 -0.08500
C 	C 	0.04420 0.92580 0.86920 0.03600
C 	C 	0.07660 0.99490 0.91660 -0.13100
C 	C 	0.00690 0.05650 0.93240 0.03500
C 	C 	0.90350 0.04750 0.90200 -0.07500
C 	C 	0.19010 0.00610 0.95050 0.44200
C 	C 	0.68860 0.07270 0.77460 -0.00500
C 	C 	0.74910 0.13920 0.75400 -0.08500
C 	C 	0.70570 0.21470 0.71290 0.02900
C 	C 	0.60070 0.22280 0.69010 -0.12200
C 	C 	0.53990 0.15580 0.71150 0.03500
C 	C 	0.58270 0.08300 0.75380 -0.08500
C 	C 	0.55290 0.30020 0.64080 0.41100
C 	C 	0.28410 0.37440 0.74731 -0.01800
C 	C 	0.31740 0.28430 0.73610 -0.06600
C 	C 	0.34020 0.21730 0.78700 0.02000
C 	C 	0.33080 0.24060 0.85036 -0.12000
C 	C 	0.29510 0.33000 0.86060 0.03000
C 	C 	0.27130 0.39810 0.81030 -0.07800
C 	C 	0.35920 0.16850 0.90660 0.40800
C 	C 	0.12930 0.47710 0.64608 -0.02200
C 	C 	0.05870 0.41670 0.66250 -0.07900
C 	C 	0.95580 0.42580 0.63080 0.02800
C 	C 	0.92340 0.49490 0.58340 -0.12400
C 	C 	0.99310 0.55650 0.56760 0.02800
C 	C 	0.09650 0.54750 0.59800 -0.07200
C 	C 	0.80990 0.50610 0.54950 0.43700
C 	C 	0.31140 0.57270 0.72540 -0.00700
C 	C 	0.25090 0.63920 0.74600 -0.08500
C 	C 	0.29430 0.71470 0.78710 0.02800
C 	C 	0.39930 0.72280 0.80990 -0.12200
C 	C 	0.46010 0.65580 0.78850 0.03400
C 	C 	0.41730 0.58300 0.74620 -0.08400
C 	C 	0.44710 0.80020 0.85920 0.41000
O 	O 	0.32120 0.06230 0.13157 -0.43400
O 	O 	0.37150 0.41690 0.39263 -0.50600
O 	O 	0.36950 0.29700 0.46473 -0.51200
O 	O 	0.78570 0.92260 0.01136 -0.52400
O 	O 	0.75180 0.05580 0.06207 -0.51300
O 	O 	0.39160 0.62910 0.36522 -0.49600
O 	O 	0.53840 0.71430 0.38969 -0.51900
O 	O 	0.43996 0.02380 0.03977 -0.87200
O 	O 	0.67880 0.56230 0.36843 -0.43300
O 	O 	0.62850 0.91690 0.10737 -0.50500
O 	O 	0.63050 0.79700 0.03527 -0.51100
O 	O 	0.21430 0.42260 0.48864 -0.52400
O 	O 	0.24820 0.55580 0.43793 -0.51000
O 	O 	0.60840 0.12910 0.13478 -0.49600
O 	O 	0.46160 0.21430 0.11031 -0.51900
O 	O 	0.56004 0.52380 0.46023 -0.87000
O 	O 	0.67880 0.93770 0.86843 -0.43400
O 	O 	0.62850 0.58310 0.60737 -0.50600
O 	O 	0.63050 0.70300 0.53527 -0.51200
O 	O 	0.21430 0.07740 0.98864 -0.52400
O 	O 	0.24820 0.94420 0.93793 -0.51300
O 	O 	0.60840 0.37090 0.63478 -0.49600
O 	O 	0.46160 0.28570 0.61031 -0.51900
O 	O 	0.56004 0.97620 0.96023 -0.87200
O 	O 	0.32120 0.43770 0.63157 -0.43300
O 	O 	0.37150 0.08310 0.89263 -0.50500
O 	O 	0.36950 0.20300 0.96473 -0.51100
O 	O 	0.78570 0.57740 0.51136 -0.52400
O 	O 	0.75180 0.44420 0.56207 -0.51000
O 	O 	0.39160 0.87090 0.86522 -0.49600
O 	O 	0.53840 0.78570 0.88969 -0.51900
O 	O 	0.43996 0.47620 0.53977 -0.87000
