data_crystal

_cell_length_a 14.93590
_cell_length_b 18.11820
_cell_length_c 18.11820
_cell_angle_alpha 80.21850
_cell_angle_beta  65.65820
_cell_angle_gamma 65.65820

_symmetry_space_group_name_	'P 1'
_symmetry_space_group_name_H-M	'P 1'

loop_
_symmetry_equiv_pos_as_xyz
  x,y,z

loop_
_atom_site_label
_atom_site_type_symbol
_atom_site_fract_x
_atom_site_fract_y
_atom_site_fract_z
_atom_site_charge
Co	Co	0.53737 0.16923 0.57797 1.10500
Co	Co	0.78457 0.33077 0.92203 1.10500
Co	Co	0.11534 0.42203 0.66923 1.10500
Co	Co	0.70660 0.07797 0.83077 1.10400
Co	Co	0.46263 0.83077 0.42203 1.10500
Co	Co	0.21543 0.66923 0.07797 1.10500
Co	Co	0.88466 0.57797 0.33077 1.10400
Co	Co	0.29340 0.92203 0.16923 1.10300
H 	H 	0.10920 0.35250 0.50390 0.05900
H 	H 	0.90130 0.24730 0.55530 0.09100
H 	H 	0.12930 0.15640 0.64540 0.08500
H 	H 	0.34520 0.14290 0.55250 0.01200
H 	H 	0.35260 0.33300 0.61880 -0.04800
H 	H 	0.03410 0.43760 0.41280 0.00800
H 	H 	0.75960 0.46390 0.41730 -0.02200
H 	H 	0.79650 0.19490 0.69430 0.01400
H 	H 	0.96060 0.97850 0.75330 -0.01000
H 	H 	0.46560 0.14750 0.99610 0.05800
H 	H 	0.20390 0.25270 0.94470 0.08900
H 	H 	0.43110 0.34360 0.85460 0.08400
H 	H 	0.54060 0.35710 0.94750 0.01200
H 	H 	0.80440 0.16700 0.88120 -0.04800
H 	H 	0.38450 0.06240 0.08720 0.00900
H 	H 	0.14080 0.03610 0.08270 -0.02100
H 	H 	0.18570 0.30510 0.80570 0.01500
H 	H 	0.19240 0.52150 0.74670 -0.01500
H 	H 	0.61310 0.49610 0.85250 0.05900
H 	H 	0.45660 0.44470 0.74730 0.09000
H 	H 	0.77470 0.35460 0.65640 0.08400
H 	H 	0.89770 0.44750 0.64290 0.01200
H 	H 	0.97140 0.38120 0.83300 -0.04800
H 	H 	0.44690 0.58720 0.93760 0.00800
H 	H 	0.17690 0.58270 0.96390 -0.02200
H 	H 	0.49080 0.30570 0.69490 0.01500
H 	H 	0.71390 0.24670 0.47850 -0.01500
H 	H 	0.46170 0.00390 0.64750 0.05900
H 	H 	0.14860 0.05530 0.75270 0.09100
H 	H 	0.28570 0.14540 0.84360 0.08400
H 	H 	0.48810 0.05250 0.85710 0.01100
H 	H 	0.68560 0.11880 0.66700 -0.04800
H 	H 	0.47170 0.91280 0.56240 0.00800
H 	H 	0.22350 0.91730 0.53610 -0.02200
H 	H 	0.99140 0.19430 0.80510 0.01200
H 	H 	0.93910 0.25330 0.02150 -0.01200
H 	H 	0.89080 0.64750 0.49610 0.05900
H 	H 	0.09870 0.75270 0.44470 0.09100
H 	H 	0.87070 0.84360 0.35460 0.08500
H 	H 	0.65480 0.85710 0.44750 0.01200
H 	H 	0.64740 0.66700 0.38120 -0.04800
H 	H 	0.96590 0.56240 0.58720 0.00800
H 	H 	0.24040 0.53610 0.58270 -0.02200
H 	H 	0.20350 0.80510 0.30570 0.01400
H 	H 	0.03940 0.02150 0.24670 -0.01000
H 	H 	0.53440 0.85250 0.00390 0.05800
H 	H 	0.79610 0.74730 0.05530 0.08900
H 	H 	0.56890 0.65640 0.14540 0.08400
H 	H 	0.45940 0.64290 0.05250 0.01200
H 	H 	0.19560 0.83300 0.11880 -0.04800
H 	H 	0.61550 0.93760 0.91280 0.00900
H 	H 	0.85920 0.96390 0.91730 -0.02100
H 	H 	0.81430 0.69490 0.19430 0.01500
H 	H 	0.80760 0.47850 0.25330 -0.01500
H 	H 	0.38690 0.50390 0.14750 0.05900
H 	H 	0.54340 0.55530 0.25270 0.09000
H 	H 	0.22530 0.64540 0.34360 0.08400
H 	H 	0.10230 0.55250 0.35710 0.01200
H 	H 	0.02860 0.61880 0.16700 -0.04800
H 	H 	0.55310 0.41280 0.06240 0.00800
H 	H 	0.82310 0.41730 0.03610 -0.02200
H 	H 	0.50920 0.69430 0.30510 0.01500
H 	H 	0.28610 0.75330 0.52150 -0.01500
H 	H 	0.53830 0.99610 0.35250 0.05900
H 	H 	0.85140 0.94470 0.24730 0.09100
H 	H 	0.71430 0.85460 0.15640 0.08400
H 	H 	0.51190 0.94750 0.14290 0.01100
H 	H 	0.31440 0.88120 0.33300 -0.04800
H 	H 	0.52830 0.08720 0.43760 0.00800
H 	H 	0.77650 0.08270 0.46390 -0.02200
H 	H 	0.00860 0.80570 0.19490 0.01200
H 	H 	0.06090 0.74670 0.97850 -0.01200
C 	C 	0.13409 0.25493 0.57629 0.04600
C 	C 	0.08364 0.31227 0.53025 -0.14400
C 	C 	0.99534 0.31049 0.52283 0.07300
C 	C 	0.95839 0.25012 0.56170 -0.14900
C 	C 	0.00581 0.19357 0.61041 0.07500
C 	C 	0.09500 0.19573 0.61527 -0.13700
C 	C 	0.22801 0.25551 0.58367 0.00400
C 	C 	0.32559 0.19506 0.56916 0.00100
C 	C 	0.32870 0.29910 0.60550 0.08400
C 	C 	0.94261 0.37240 0.47458 0.01200
C 	C 	0.97130 0.43034 0.42506 -0.01200
C 	C 	0.82140 0.44490 0.42770 0.09800
C 	C 	0.95721 0.13661 0.66017 0.01200
C 	C 	0.85280 0.14837 0.69823 -0.01600
C 	C 	0.94273 0.02999 0.73075 0.07900
C 	C 	0.46531 0.24507 0.92371 0.04400
C 	C 	0.42616 0.18773 0.96975 -0.14200
C 	C 	0.32866 0.18951 0.97717 0.06900
C 	C 	0.27021 0.24988 0.93830 -0.14400
C 	C 	0.30979 0.30643 0.88959 0.07000
C 	C 	0.40600 0.30427 0.88473 -0.13400
C 	C 	0.56719 0.24449 0.91633 0.00500
C 	C 	0.58981 0.30494 0.93084 0.00100
C 	C 	0.73330 0.20090 0.89450 0.08400
C 	C 	0.28959 0.12760 0.02542 0.01500
C 	C 	0.32670 0.06966 0.07494 -0.01300
C 	C 	0.19400 0.05510 0.07230 0.09800
C 	C 	0.25399 0.36339 0.83983 0.01600
C 	C 	0.19940 0.35163 0.80177 -0.01800
C 	C 	0.20347 0.47001 0.76925 0.08700
C 	C 	0.71038 0.42371 0.75493 0.04500
C 	C 	0.61389 0.46975 0.81227 -0.14300
C 	C 	0.51817 0.47717 0.81049 0.07200
C 	C 	0.52009 0.43830 0.75012 -0.14500
C 	C 	0.61622 0.38959 0.69357 0.07100
C 	C 	0.71027 0.38473 0.69573 -0.13500
C 	C 	0.81168 0.41633 0.75551 0.00400
C 	C 	0.89475 0.43084 0.69506 0.00100
C 	C 	0.93420 0.39450 0.79910 0.08400
C 	C 	0.41719 0.52542 0.87240 0.01200
C 	C 	0.39636 0.57494 0.93034 -0.01200
C 	C 	0.24910 0.57230 0.94490 0.09800
C 	C 	0.61738 0.33983 0.63661 0.01600
C 	C 	0.55103 0.30177 0.64837 -0.01700
C 	C 	0.67348 0.26925 0.52999 0.08600
C 	C 	0.38902 0.07629 0.74507 0.04500
C 	C 	0.39591 0.03025 0.68773 -0.14400
C 	C 	0.30583 0.02283 0.68951 0.07200
C 	C 	0.20851 0.06170 0.74988 -0.14600
C 	C 	0.19938 0.11041 0.80643 0.07200
C 	C 	0.29073 0.11527 0.80427 -0.13600
C 	C 	0.48352 0.08367 0.74449 0.00400
C 	C 	0.52065 0.06916 0.80494 0.00100
C 	C 	0.62780 0.10550 0.70090 0.08400
C 	C 	0.31501 0.97458 0.62760 0.01200
C 	C 	0.40164 0.92506 0.56966 -0.01200
C 	C 	0.26630 0.92770 0.55510 0.09800
C 	C 	0.09382 0.16017 0.86339 0.01400
C 	C 	0.00117 0.19823 0.85163 -0.01300
C 	C 	0.97272 0.23075 0.97001 0.08100
C 	C 	0.86591 0.74507 0.42371 0.04600
C 	C 	0.91636 0.68773 0.46975 -0.14400
C 	C 	0.00466 0.68951 0.47717 0.07300
C 	C 	0.04161 0.74988 0.43830 -0.14900
C 	C 	0.99419 0.80643 0.38959 0.07500
C 	C 	0.90500 0.80427 0.38473 -0.13700
C 	C 	0.77199 0.74449 0.41633 0.00400
C 	C 	0.67441 0.80494 0.43084 0.00100
C 	C 	0.67130 0.70090 0.39450 0.08400
C 	C 	0.05739 0.62760 0.52542 0.01200
C 	C 	0.02870 0.56966 0.57494 -0.01200
C 	C 	0.17860 0.55510 0.57230 0.09800
C 	C 	0.04279 0.86339 0.33983 0.01200
C 	C 	0.14720 0.85163 0.30177 -0.01600
C 	C 	0.05727 0.97001 0.26925 0.07900
C 	C 	0.53469 0.75493 0.07629 0.04400
C 	C 	0.57384 0.81227 0.03025 -0.14200
C 	C 	0.67134 0.81049 0.02283 0.06900
C 	C 	0.72979 0.75012 0.06170 -0.14400
C 	C 	0.69021 0.69357 0.11041 0.07000
C 	C 	0.59400 0.69573 0.11527 -0.13400
C 	C 	0.43281 0.75551 0.08367 0.00500
C 	C 	0.41019 0.69506 0.06916 0.00100
C 	C 	0.26670 0.79910 0.10550 0.08400
C 	C 	0.71041 0.87240 0.97458 0.01500
C 	C 	0.67330 0.93034 0.92506 -0.01300
C 	C 	0.80600 0.94490 0.92770 0.09800
C 	C 	0.74601 0.63661 0.16017 0.01600
C 	C 	0.80060 0.64837 0.19823 -0.01800
C 	C 	0.79653 0.52999 0.23075 0.08700
C 	C 	0.28962 0.57629 0.24507 0.04500
C 	C 	0.38611 0.53025 0.18773 -0.14300
C 	C 	0.48183 0.52283 0.18951 0.07200
C 	C 	0.47991 0.56170 0.24988 -0.14500
C 	C 	0.38378 0.61041 0.30643 0.07100
C 	C 	0.28973 0.61527 0.30427 -0.13500
C 	C 	0.18832 0.58367 0.24449 0.00400
C 	C 	0.10525 0.56916 0.30494 0.00100
C 	C 	0.06580 0.60550 0.20090 0.08400
C 	C 	0.58281 0.47458 0.12760 0.01200
C 	C 	0.60364 0.42506 0.06966 -0.01200
C 	C 	0.75090 0.42770 0.05510 0.09800
C 	C 	0.38262 0.66017 0.36339 0.01600
C 	C 	0.44897 0.69823 0.35163 -0.01700
C 	C 	0.32652 0.73075 0.47001 0.08600
C 	C 	0.61098 0.92371 0.25493 0.04500
C 	C 	0.60409 0.96975 0.31227 -0.14400
C 	C 	0.69417 0.97717 0.31049 0.07200
C 	C 	0.79149 0.93830 0.25012 -0.14600
C 	C 	0.80062 0.88959 0.19357 0.07200
C 	C 	0.70927 0.88473 0.19573 -0.13600
C 	C 	0.51648 0.91633 0.25551 0.00400
C 	C 	0.47935 0.93084 0.19506 0.00100
C 	C 	0.37220 0.89450 0.29910 0.08400
C 	C 	0.68499 0.02542 0.37240 0.01200
C 	C 	0.59836 0.07494 0.43034 -0.01200
C 	C 	0.73370 0.07230 0.44490 0.09800
C 	C 	0.90618 0.83983 0.13661 0.01400
C 	C 	0.99883 0.80177 0.14837 -0.01300
C 	C 	0.02728 0.76925 0.02999 0.08100
N 	N 	0.39007 0.22228 0.58260 -0.27400
N 	N 	0.23046 0.32338 0.60790 -0.27000
N 	N 	0.89351 0.47727 0.39531 -0.27600
N 	N 	0.84486 0.38252 0.47636 -0.12000
N 	N 	0.84272 0.08067 0.74369 -0.26300
N 	N 	0.01442 0.06082 0.68194 -0.11600
N 	N 	0.69495 0.27772 0.91740 -0.27400
N 	N 	0.66174 0.17662 0.89210 -0.27100
N 	N 	0.26609 0.02273 0.10469 -0.27500
N 	N 	0.20374 0.11748 0.02364 -0.12000
N 	N 	0.16708 0.41933 0.75631 -0.26400
N 	N 	0.25718 0.43918 0.81806 -0.12000
N 	N 	0.97267 0.41740 0.72228 -0.27400
N 	N 	0.83836 0.39210 0.82338 -0.27000
N 	N 	0.28882 0.60469 0.97727 -0.27600
N 	N 	0.32122 0.52364 0.88252 -0.12000
N 	N 	0.58641 0.25631 0.58067 -0.26400
N 	N 	0.69636 0.31806 0.56082 -0.12000
N 	N 	0.61235 0.08260 0.77772 -0.27400
N 	N 	0.55384 0.10790 0.67662 -0.27000
N 	N 	0.37078 0.89531 0.52273 -0.27600
N 	N 	0.22738 0.97636 0.61748 -0.12000
N 	N 	0.92339 0.24369 0.91933 -0.26400
N 	N 	0.07524 0.18194 0.93918 -0.11800
N 	N 	0.60993 0.77772 0.41740 -0.27400
N 	N 	0.76954 0.67662 0.39210 -0.27000
N 	N 	0.10649 0.52273 0.60469 -0.27600
N 	N 	0.15514 0.61748 0.52364 -0.12000
N 	N 	0.15728 0.91933 0.25631 -0.26300
N 	N 	0.98558 0.93918 0.31806 -0.11600
N 	N 	0.30505 0.72228 0.08260 -0.27400
N 	N 	0.33826 0.82338 0.10790 -0.27100
N 	N 	0.73391 0.97727 0.89531 -0.27500
N 	N 	0.79626 0.88252 0.97636 -0.12000
N 	N 	0.83292 0.58067 0.24369 -0.26400
N 	N 	0.74282 0.56082 0.18194 -0.12000
N 	N 	0.02733 0.58260 0.27772 -0.27400
N 	N 	0.16164 0.60790 0.17662 -0.27000
N 	N 	0.71118 0.39531 0.02273 -0.27600
N 	N 	0.67878 0.47636 0.11748 -0.12000
N 	N 	0.41359 0.74369 0.41933 -0.26400
N 	N 	0.30364 0.68194 0.43918 -0.12000
N 	N 	0.38765 0.91740 0.22228 -0.27400
N 	N 	0.44616 0.89210 0.32338 -0.27000
N 	N 	0.62922 0.10469 0.47727 -0.27600
N 	N 	0.77262 0.02364 0.38252 -0.12000
N 	N 	0.07661 0.75631 0.08067 -0.26400
N 	N 	0.92476 0.81806 0.06082 -0.11800
