data_crystal

_cell_length_a 15.02300
_cell_length_b 10.16430
_cell_length_c 18.19600
_cell_angle_alpha 90.00000
_cell_angle_beta  114.23300
_cell_angle_gamma 90.00000

_symmetry_space_group_name_	'P 1'
_symmetry_space_group_name_H-M	'P 1'

loop_
_symmetry_equiv_pos_as_xyz
  x,y,z

loop_
_atom_site_label
_atom_site_type_symbol
_atom_site_fract_x
_atom_site_fract_y
_atom_site_fract_z
_atom_site_charge
Zn	Zn	0.11150 0.27736 0.23655 1.21200
Zn	Zn	0.84417 0.05025 0.04666 1.22200
C 	C 	0.17467 0.66500 0.20190 -0.07400
H 	H 	0.23850 0.70640 0.21630 0.06500
C 	C 	0.10889 0.74020 0.23557 -0.13400
H 	H 	0.13080 0.83180 0.24650 0.08200
C 	C 	0.02346 0.73100 0.15121 -0.10700
H 	H 	0.98790 0.64930 0.14920 0.06700
C 	C 	0.09852 0.70230 0.11489 -0.09200
H 	H 	0.08000 0.62720 0.07780 0.07700
C 	C 	0.18120 0.51850 0.21858 0.31900
C 	C 	0.09737 0.68460 0.30745 0.39000
C 	C 	0.95059 0.84070 0.12414 0.35500
C 	C 	0.13045 0.82070 0.08132 0.34300
O 	O 	0.09923 0.45599 0.19243 -0.44300
O 	O 	0.26031 0.46510 0.25612 -0.31800
O 	O 	0.01465 0.67915 0.30960 -0.50600
O 	O 	0.17405 0.64528 0.36495 -0.45500
O 	O 	0.94381 0.91217 0.06528 -0.44100
O 	O 	0.89605 0.85693 0.16024 -0.48100
O 	O 	0.11794 0.80895 0.00752 -0.44700
O 	O 	0.16755 0.91780 0.12343 -0.30600
N 	N 	0.22348 0.15310 0.29592 -0.28900
C 	C 	0.30500 0.15060 0.28330 0.12400
H 	H 	0.31120 0.20990 0.24670 -0.03000
C 	C 	0.38020 0.06400 0.32210 -0.21200
H 	H 	0.43560 0.06560 0.31140 0.09800
C 	C 	0.37350 0.97470 0.37700 0.15900
C 	C 	0.28910 0.97670 0.38850 -0.21600
H 	H 	0.28030 0.91740 0.42380 0.10500
C 	C 	0.21680 0.06670 0.34770 0.12900
H 	H 	0.16050 0.06640 0.35710 -0.03800
N 	N 	0.70864 0.53090 0.49390 -0.27700
C 	C 	0.66490 0.57070 0.54078 0.10500
H 	H 	0.69510 0.55380 0.59580 -0.00800
C 	C 	0.57670 0.63580 0.51080 -0.20000
H 	H 	0.54840 0.66160 0.54540 0.10300
C 	C 	0.53000 0.66290 0.42910 0.15800
C 	C 	0.57460 0.61990 0.38170 -0.20700
H 	H 	0.54510 0.63400 0.32630 0.09900
C 	C 	0.66290 0.55580 0.41510 0.10900
H 	H 	0.69200 0.52870 0.38130 -0.01600
C 	C 	0.45630 0.88010 0.42130 -0.17000
H 	H 	0.51410 0.90970 0.41500 0.07700
H 	H 	0.47040 0.88310 0.47830 0.07400
C 	C 	0.43630 0.74260 0.39360 -0.18000
H 	H 	0.41020 0.73970 0.33520 0.08800
H 	H 	0.38820 0.70530 0.41030 0.09000
Zn	Zn	0.88850 0.77736 0.26345 1.21300
Zn	Zn	0.15583 0.55025 0.45334 1.22600
C 	C 	0.82533 0.16500 0.29810 -0.07200
H 	H 	0.76150 0.20640 0.28370 0.06500
C 	C 	0.89111 0.24020 0.26443 -0.13300
H 	H 	0.86920 0.33180 0.25350 0.08100
C 	C 	0.97654 0.23100 0.34879 -0.11800
H 	H 	0.01210 0.14930 0.35080 0.07300
C 	C 	0.90148 0.20230 0.38511 -0.08900
H 	H 	0.92000 0.12720 0.42220 0.07500
C 	C 	0.81880 0.01850 0.28142 0.30900
C 	C 	0.90263 0.18460 0.19255 0.38900
C 	C 	0.04941 0.34070 0.37586 0.36100
C 	C 	0.86955 0.32070 0.41868 0.34300
O 	O 	0.90077 0.95599 0.30757 -0.43800
O 	O 	0.73969 0.96510 0.24388 -0.31200
O 	O 	0.98535 0.17915 0.19040 -0.50900
O 	O 	0.82595 0.14528 0.13505 -0.45800
O 	O 	0.05619 0.41217 0.43472 -0.44400
O 	O 	0.10395 0.35693 0.33976 -0.48400
O 	O 	0.88206 0.30895 0.49248 -0.45100
O 	O 	0.83245 0.41780 0.37657 -0.30800
N 	N 	0.77652 0.65310 0.20408 -0.28900
C 	C 	0.69500 0.65060 0.21670 0.12400
H 	H 	0.68880 0.70990 0.25330 -0.02900
C 	C 	0.61980 0.56400 0.17790 -0.21000
H 	H 	0.56440 0.56560 0.18860 0.09900
C 	C 	0.62650 0.47470 0.12300 0.15900
C 	C 	0.71090 0.47670 0.11150 -0.21800
H 	H 	0.71970 0.41740 0.07620 0.10500
C 	C 	0.78320 0.56670 0.15230 0.13000
H 	H 	0.83950 0.56640 0.14290 -0.03800
N 	N 	0.29136 0.03090 0.00610 -0.27800
C 	C 	0.33510 0.07070 0.95922 0.10700
H 	H 	0.30490 0.05380 0.90420 -0.00700
C 	C 	0.42330 0.13580 0.98920 -0.19200
H 	H 	0.45160 0.16160 0.95460 0.10100
C 	C 	0.47000 0.16290 0.07090 0.15000
C 	C 	0.42540 0.11990 0.11830 -0.20300
H 	H 	0.45490 0.13400 0.17370 0.09800
C 	C 	0.33710 0.05580 0.08490 0.10500
H 	H 	0.30800 0.02870 0.11870 -0.01600
C 	C 	0.54370 0.38010 0.07870 -0.17300
H 	H 	0.48590 0.40970 0.08500 0.07800
H 	H 	0.52960 0.38310 0.02170 0.07500
C 	C 	0.56370 0.24260 0.10640 -0.17500
H 	H 	0.58980 0.23970 0.16480 0.08600
H 	H 	0.61180 0.20530 0.08970 0.08700
Zn	Zn	0.88850 0.72264 0.76345 1.21300
Zn	Zn	0.15583 0.94975 0.95334 1.22300
C 	C 	0.82533 0.33500 0.79810 -0.07300
H 	H 	0.76150 0.29360 0.78370 0.06600
C 	C 	0.89111 0.25980 0.76443 -0.13400
H 	H 	0.86920 0.16820 0.75350 0.08200
C 	C 	0.97654 0.26900 0.84879 -0.10700
H 	H 	0.01210 0.35070 0.85080 0.06700
C 	C 	0.90148 0.29770 0.88511 -0.09200
H 	H 	0.92000 0.37280 0.92220 0.07700
C 	C 	0.81880 0.48150 0.78142 0.31900
C 	C 	0.90263 0.31540 0.69255 0.39000
C 	C 	0.04941 0.15930 0.87586 0.35500
C 	C 	0.86955 0.17930 0.91868 0.34300
O 	O 	0.90077 0.54401 0.80757 -0.44300
O 	O 	0.73969 0.53490 0.74388 -0.31800
O 	O 	0.98535 0.32085 0.69040 -0.50600
O 	O 	0.82595 0.35472 0.63505 -0.45500
O 	O 	0.05619 0.08783 0.93472 -0.44100
O 	O 	0.10395 0.14307 0.83976 -0.48100
O 	O 	0.88206 0.19105 0.99248 -0.44700
O 	O 	0.83245 0.08220 0.87657 -0.30600
N 	N 	0.77652 0.84690 0.70408 -0.28900
C 	C 	0.69500 0.84940 0.71670 0.12400
H 	H 	0.68880 0.79010 0.75330 -0.03000
C 	C 	0.61980 0.93600 0.67790 -0.21200
H 	H 	0.56440 0.93440 0.68860 0.09800
C 	C 	0.62650 0.02530 0.62300 0.15900
C 	C 	0.71090 0.02330 0.61150 -0.21600
H 	H 	0.71970 0.08260 0.57620 0.10500
C 	C 	0.78320 0.93330 0.65230 0.12900
H 	H 	0.83950 0.93360 0.64290 -0.03800
N 	N 	0.29136 0.46910 0.50610 -0.27700
C 	C 	0.33510 0.42930 0.45922 0.10500
H 	H 	0.30490 0.44620 0.40420 -0.00800
C 	C 	0.42330 0.36420 0.48920 -0.20000
H 	H 	0.45160 0.33840 0.45460 0.10300
C 	C 	0.47000 0.33710 0.57090 0.15800
C 	C 	0.42540 0.38010 0.61830 -0.20700
H 	H 	0.45490 0.36600 0.67370 0.09900
C 	C 	0.33710 0.44420 0.58490 0.10900
H 	H 	0.30800 0.47130 0.61870 -0.01600
C 	C 	0.54370 0.11990 0.57870 -0.17000
H 	H 	0.48590 0.09030 0.58500 0.07700
H 	H 	0.52960 0.11690 0.52170 0.07400
C 	C 	0.56370 0.25740 0.60640 -0.18000
H 	H 	0.58980 0.26030 0.66480 0.08800
H 	H 	0.61180 0.29470 0.58970 0.09000
Zn	Zn	0.11150 0.22264 0.73655 1.21300
Zn	Zn	0.84417 0.44975 0.54666 1.22600
C 	C 	0.17467 0.83500 0.70190 -0.07200
H 	H 	0.23850 0.79360 0.71630 0.06500
C 	C 	0.10889 0.75980 0.73557 -0.13300
H 	H 	0.13080 0.66820 0.74650 0.08100
C 	C 	0.02346 0.76900 0.65121 -0.11800
H 	H 	0.98790 0.85070 0.64920 0.07300
C 	C 	0.09852 0.79770 0.61489 -0.08900
H 	H 	0.08000 0.87280 0.57780 0.07500
C 	C 	0.18120 0.98150 0.71858 0.30900
C 	C 	0.09737 0.81540 0.80745 0.38900
C 	C 	0.95059 0.65930 0.62414 0.36100
C 	C 	0.13045 0.67930 0.58132 0.34300
O 	O 	0.09923 0.04401 0.69243 -0.43800
O 	O 	0.26031 0.03490 0.75612 -0.31200
O 	O 	0.01465 0.82085 0.80960 -0.50900
O 	O 	0.17405 0.85472 0.86495 -0.45800
O 	O 	0.94381 0.58783 0.56528 -0.44400
O 	O 	0.89605 0.64307 0.66024 -0.48400
O 	O 	0.11794 0.69105 0.50752 -0.45100
O 	O 	0.16755 0.58220 0.62343 -0.30800
N 	N 	0.22348 0.34690 0.79592 -0.28900
C 	C 	0.30500 0.34940 0.78330 0.12400
H 	H 	0.31120 0.29010 0.74670 -0.02900
C 	C 	0.38020 0.43600 0.82210 -0.21000
H 	H 	0.43560 0.43440 0.81140 0.09900
C 	C 	0.37350 0.52530 0.87700 0.15900
C 	C 	0.28910 0.52330 0.88850 -0.21800
H 	H 	0.28030 0.58260 0.92380 0.10500
C 	C 	0.21680 0.43330 0.84770 0.13000
H 	H 	0.16050 0.43360 0.85710 -0.03800
N 	N 	0.70864 0.96910 0.99390 -0.27800
C 	C 	0.66490 0.92930 0.04078 0.10700
H 	H 	0.69510 0.94620 0.09580 -0.00700
C 	C 	0.57670 0.86420 0.01080 -0.19200
H 	H 	0.54840 0.83840 0.04540 0.10100
C 	C 	0.53000 0.83710 0.92910 0.15000
C 	C 	0.57460 0.88010 0.88170 -0.20300
H 	H 	0.54510 0.86600 0.82630 0.09800
C 	C 	0.66290 0.94420 0.91510 0.10500
H 	H 	0.69200 0.97130 0.88130 -0.01600
C 	C 	0.45630 0.61990 0.92130 -0.17300
H 	H 	0.51410 0.59030 0.91500 0.07800
H 	H 	0.47040 0.61690 0.97830 0.07500
C 	C 	0.43630 0.75740 0.89360 -0.17500
H 	H 	0.41020 0.76030 0.83520 0.08600
H 	H 	0.38820 0.79470 0.91030 0.08700
