data_crystal

_cell_length_a 16.26900
_cell_length_b 20.73000
_cell_length_c 14.98280
_cell_angle_alpha 90.00000
_cell_angle_beta  90.00000
_cell_angle_gamma 90.00000

_symmetry_space_group_name_	'P 1'
_symmetry_space_group_name_H-M	'P 1'

loop_
_symmetry_equiv_pos_as_xyz
  x,y,z

loop_
_atom_site_label
_atom_site_type_symbol
_atom_site_fract_x
_atom_site_fract_y
_atom_site_fract_z
_atom_site_charge
C 	C 	0.21676 0.43159 0.85965 0.08000
C 	C 	0.01301 0.25237 0.82923 0.09700
C 	C 	0.00873 0.43887 0.61480 0.36400
Cu	Cu	0.10619 0.56630 0.53314 0.87800
C 	C 	0.11238 0.43109 0.73708 -0.00500
H 	H 	0.13320 0.47160 0.71770 0.01900
N 	N 	0.33118 0.50331 0.95802 -0.23500
O 	O 	0.02698 0.49602 0.60255 -0.39600
O 	O 	0.95931 0.40514 0.56823 -0.41000
N 	N 	0.94247 0.14097 0.90019 -0.23800
C 	C 	0.11790 0.34013 0.83717 -0.04200
H 	H 	0.14360 0.31760 0.88490 0.04100
C 	C 	0.04588 0.40358 0.69346 -0.09600
C 	C 	0.26342 0.47995 0.81973 -0.14200
H 	H 	0.25790 0.48860 0.75780 0.06600
C 	C 	0.89653 0.18997 0.87230 0.08400
H 	H 	0.83850 0.18650 0.87730 -0.03500
C 	C 	0.28958 0.45400 0.99439 0.07400
H 	H 	0.30030 0.44330 0.05490 -0.01700
C 	C 	0.23233 0.41806 0.94887 -0.14600
H 	H 	0.20360 0.38420 0.97820 0.07600
C 	C 	0.06093 0.20081 0.85807 -0.15800
H 	H 	0.11910 0.20310 0.85420 0.08400
C 	C 	0.14918 0.39956 0.80973 -0.02800
C 	C 	0.31767 0.51508 0.87108 0.07200
H 	H 	0.34700 0.54940 0.84360 -0.00300
C 	C 	0.92910 0.24571 0.83650 -0.16100
H 	H 	0.89380 0.27930 0.81700 0.07500
C 	C 	0.02392 0.14682 0.89202 0.09800
H 	H 	0.05770 0.11190 0.91060 0.00000
C 	C 	0.04894 0.31327 0.79505 -0.03200
C 	C 	0.01383 0.34546 0.72235 -0.00300
H 	H 	0.96770 0.32730 0.69270 0.03700
C 	C 	0.28324 0.06841 0.85965 0.07900
C 	C 	0.48699 0.24763 0.82923 0.09000
C 	C 	0.49127 0.06113 0.61480 0.36300
Cu	Cu	0.39381 0.93370 0.53314 0.87800
C 	C 	0.38762 0.06891 0.73708 -0.00700
H 	H 	0.36680 0.02840 0.71770 0.01900
N 	N 	0.16882 0.99669 0.95802 -0.23200
O 	O 	0.47302 0.00398 0.60255 -0.39600
O 	O 	0.54069 0.09486 0.56823 -0.40900
N 	N 	0.55753 0.35903 0.90019 -0.23500
C 	C 	0.38210 0.15987 0.83717 -0.04500
H 	H 	0.35640 0.18240 0.88490 0.04200
C 	C 	0.45412 0.09642 0.69346 -0.09400
C 	C 	0.23658 0.02005 0.81973 -0.14500
H 	H 	0.24210 0.01140 0.75780 0.06600
C 	C 	0.60347 0.31003 0.87230 0.08200
H 	H 	0.66150 0.31350 0.87730 -0.03300
C 	C 	0.21042 0.04600 0.99439 0.06600
H 	H 	0.19970 0.05670 0.05490 -0.01300
C 	C 	0.26767 0.08194 0.94887 -0.14300
H 	H 	0.29640 0.11580 0.97820 0.07500
C 	C 	0.43907 0.29919 0.85807 -0.15300
H 	H 	0.38090 0.29690 0.85420 0.08200
C 	C 	0.35082 0.10044 0.80973 -0.02600
C 	C 	0.18233 0.98492 0.87108 0.07500
H 	H 	0.15300 0.95060 0.84360 -0.00400
C 	C 	0.57090 0.25429 0.83650 -0.15500
H 	H 	0.60620 0.22070 0.81700 0.07300
C 	C 	0.47608 0.35318 0.89202 0.09300
H 	H 	0.44230 0.38810 0.91060 0.00200
C 	C 	0.45106 0.18673 0.79505 -0.02800
C 	C 	0.48617 0.15454 0.72235 -0.00800
H 	H 	0.53230 0.17270 0.69270 0.03900
C 	C 	0.78324 0.93159 0.64035 0.07700
C 	C 	0.98699 0.75237 0.67077 0.08700
C 	C 	0.99127 0.93887 0.88520 0.35800
Cu	Cu	0.89381 0.06630 0.96686 0.87500
C 	C 	0.88762 0.93109 0.76292 -0.00900
H 	H 	0.86680 0.97160 0.78230 0.02100
N 	N 	0.66882 0.00331 0.54198 -0.23400
O 	O 	0.97302 0.99602 0.89745 -0.39400
O 	O 	0.04069 0.90514 0.93177 -0.40500
N 	N 	0.05753 0.64097 0.59981 -0.23400
C 	C 	0.88210 0.84013 0.66283 -0.04700
H 	H 	0.85640 0.81760 0.61510 0.04300
C 	C 	0.95412 0.90358 0.80654 -0.09000
C 	C 	0.73658 0.97995 0.68027 -0.13800
H 	H 	0.74210 0.98860 0.74220 0.06500
C 	C 	0.10347 0.68997 0.62770 0.08100
H 	H 	0.16150 0.68650 0.62270 -0.03300
C 	C 	0.71042 0.95400 0.50561 0.07100
H 	H 	0.69970 0.94330 0.44510 -0.01500
C 	C 	0.76767 0.91806 0.55113 -0.14300
H 	H 	0.79640 0.88420 0.52180 0.07500
C 	C 	0.93907 0.70081 0.64193 -0.15100
H 	H 	0.88090 0.70310 0.64580 0.08100
C 	C 	0.85082 0.89956 0.69027 -0.02400
C 	C 	0.68233 0.01508 0.62892 0.06800
H 	H 	0.65300 0.04940 0.65640 -0.00200
C 	C 	0.07090 0.74571 0.66350 -0.15200
H 	H 	0.10620 0.77930 0.68300 0.07300
C 	C 	0.97608 0.64682 0.60798 0.09100
H 	H 	0.94230 0.61190 0.58940 0.00300
C 	C 	0.95106 0.81327 0.70495 -0.02500
C 	C 	0.98617 0.84546 0.77765 -0.01400
H 	H 	0.03230 0.82730 0.80730 0.04300
C 	C 	0.71676 0.56841 0.64035 0.07900
C 	C 	0.51301 0.74763 0.67077 0.09000
C 	C 	0.50873 0.56113 0.88520 0.36300
Cu	Cu	0.60619 0.43370 0.96686 0.87700
C 	C 	0.61238 0.56891 0.76292 -0.00700
H 	H 	0.63320 0.52840 0.78230 0.02000
N 	N 	0.83118 0.49669 0.54198 -0.23400
O 	O 	0.52698 0.50398 0.89745 -0.39600
O 	O 	0.45931 0.59486 0.93177 -0.40900
N 	N 	0.44247 0.85903 0.59981 -0.23500
C 	C 	0.61790 0.65987 0.66283 -0.04500
H 	H 	0.64360 0.68240 0.61510 0.04200
C 	C 	0.54588 0.59642 0.80654 -0.09300
C 	C 	0.76342 0.52005 0.68027 -0.14100
H 	H 	0.75790 0.51140 0.74220 0.06500
C 	C 	0.39653 0.81003 0.62770 0.08200
H 	H 	0.33850 0.81350 0.62270 -0.03300
C 	C 	0.78958 0.54600 0.50561 0.07100
H 	H 	0.80030 0.55670 0.44510 -0.01500
C 	C 	0.73233 0.58194 0.55113 -0.14400
H 	H 	0.70360 0.61580 0.52180 0.07500
C 	C 	0.56093 0.79919 0.64193 -0.15300
H 	H 	0.61910 0.79690 0.64580 0.08200
C 	C 	0.64918 0.60044 0.69027 -0.02600
C 	C 	0.81767 0.48492 0.62892 0.07100
H 	H 	0.84700 0.45060 0.65640 -0.00300
C 	C 	0.42910 0.75429 0.66350 -0.15400
H 	H 	0.39380 0.72070 0.68300 0.07400
C 	C 	0.52392 0.85318 0.60798 0.09300
H 	H 	0.55770 0.88810 0.58940 0.00200
C 	C 	0.54894 0.68673 0.70495 -0.02800
C 	C 	0.51383 0.65454 0.77765 -0.00800
H 	H 	0.46770 0.67270 0.80730 0.04000
C 	C 	0.78324 0.56841 0.14035 0.08000
C 	C 	0.98699 0.74763 0.17077 0.09700
C 	C 	0.99127 0.56113 0.38520 0.36400
Cu	Cu	0.89381 0.43370 0.46686 0.87800
C 	C 	0.88762 0.56891 0.26292 -0.00500
H 	H 	0.86680 0.52840 0.28230 0.01900
N 	N 	0.66882 0.49669 0.04198 -0.23500
O 	O 	0.97302 0.50398 0.39745 -0.39600
O 	O 	0.04069 0.59486 0.43177 -0.41000
N 	N 	0.05753 0.85903 0.09981 -0.23800
C 	C 	0.88210 0.65987 0.16283 -0.04200
H 	H 	0.85640 0.68240 0.11510 0.04100
C 	C 	0.95412 0.59642 0.30654 -0.09600
C 	C 	0.73658 0.52005 0.18027 -0.14200
H 	H 	0.74210 0.51140 0.24220 0.06600
C 	C 	0.10347 0.81003 0.12770 0.08400
H 	H 	0.16150 0.81350 0.12270 -0.03500
C 	C 	0.71042 0.54600 0.00561 0.07400
H 	H 	0.69970 0.55670 0.94510 -0.01700
C 	C 	0.76767 0.58194 0.05113 -0.14600
H 	H 	0.79640 0.61580 0.02180 0.07600
C 	C 	0.93907 0.79919 0.14193 -0.15800
H 	H 	0.88090 0.79690 0.14580 0.08400
C 	C 	0.85082 0.60044 0.19027 -0.02800
C 	C 	0.68233 0.48492 0.12892 0.07200
H 	H 	0.65300 0.45060 0.15640 -0.00300
C 	C 	0.07090 0.75429 0.16350 -0.16100
H 	H 	0.10620 0.72070 0.18300 0.07500
C 	C 	0.97608 0.85318 0.10798 0.09800
H 	H 	0.94230 0.88810 0.08940 0.00000
C 	C 	0.95106 0.68673 0.20495 -0.03200
C 	C 	0.98617 0.65454 0.27765 -0.00300
H 	H 	0.03230 0.67270 0.30730 0.03700
C 	C 	0.71676 0.93159 0.14035 0.07900
C 	C 	0.51301 0.75237 0.17077 0.09000
C 	C 	0.50873 0.93887 0.38520 0.36300
Cu	Cu	0.60619 0.06630 0.46686 0.87800
C 	C 	0.61238 0.93109 0.26292 -0.00700
H 	H 	0.63320 0.97160 0.28230 0.01900
N 	N 	0.83118 0.00331 0.04198 -0.23200
O 	O 	0.52698 0.99602 0.39745 -0.39600
O 	O 	0.45931 0.90514 0.43177 -0.40900
N 	N 	0.44247 0.64097 0.09981 -0.23500
C 	C 	0.61790 0.84013 0.16283 -0.04500
H 	H 	0.64360 0.81760 0.11510 0.04200
C 	C 	0.54588 0.90358 0.30654 -0.09400
C 	C 	0.76342 0.97995 0.18027 -0.14500
H 	H 	0.75790 0.98860 0.24220 0.06600
C 	C 	0.39653 0.68997 0.12770 0.08200
H 	H 	0.33850 0.68650 0.12270 -0.03300
C 	C 	0.78958 0.95400 0.00561 0.06600
H 	H 	0.80030 0.94330 0.94510 -0.01300
C 	C 	0.73233 0.91806 0.05113 -0.14300
H 	H 	0.70360 0.88420 0.02180 0.07500
C 	C 	0.56093 0.70081 0.14193 -0.15300
H 	H 	0.61910 0.70310 0.14580 0.08200
C 	C 	0.64918 0.89956 0.19027 -0.02600
C 	C 	0.81767 0.01508 0.12892 0.07500
H 	H 	0.84700 0.04940 0.15640 -0.00400
C 	C 	0.42910 0.74571 0.16350 -0.15500
H 	H 	0.39380 0.77930 0.18300 0.07300
C 	C 	0.52392 0.64682 0.10798 0.09300
H 	H 	0.55770 0.61190 0.08940 0.00200
C 	C 	0.54894 0.81327 0.20495 -0.02800
C 	C 	0.51383 0.84546 0.27765 -0.00800
H 	H 	0.46770 0.82730 0.30730 0.03900
C 	C 	0.21676 0.06841 0.35965 0.07700
C 	C 	0.01301 0.24763 0.32923 0.08700
C 	C 	0.00873 0.06113 0.11480 0.35800
Cu	Cu	0.10619 0.93370 0.03314 0.87500
C 	C 	0.11238 0.06891 0.23708 -0.00900
H 	H 	0.13320 0.02840 0.21770 0.02100
N 	N 	0.33118 0.99669 0.45802 -0.23400
O 	O 	0.02698 0.00398 0.10255 -0.39400
O 	O 	0.95931 0.09486 0.06823 -0.40500
N 	N 	0.94247 0.35903 0.40019 -0.23400
C 	C 	0.11790 0.15987 0.33717 -0.04700
H 	H 	0.14360 0.18240 0.38490 0.04300
C 	C 	0.04588 0.09642 0.19346 -0.09000
C 	C 	0.26342 0.02005 0.31973 -0.13800
H 	H 	0.25790 0.01140 0.25780 0.06500
C 	C 	0.89653 0.31003 0.37230 0.08100
H 	H 	0.83850 0.31350 0.37730 -0.03300
C 	C 	0.28958 0.04600 0.49439 0.07100
H 	H 	0.30030 0.05670 0.55490 -0.01500
C 	C 	0.23233 0.08194 0.44887 -0.14300
H 	H 	0.20360 0.11580 0.47820 0.07500
C 	C 	0.06093 0.29919 0.35807 -0.15100
H 	H 	0.11910 0.29690 0.35420 0.08100
C 	C 	0.14918 0.10044 0.30973 -0.02400
C 	C 	0.31767 0.98492 0.37108 0.06800
H 	H 	0.34700 0.95060 0.34360 -0.00200
C 	C 	0.92910 0.25429 0.33650 -0.15200
H 	H 	0.89380 0.22070 0.31700 0.07300
C 	C 	0.02392 0.35318 0.39202 0.09100
H 	H 	0.05770 0.38810 0.41060 0.00300
C 	C 	0.04894 0.18673 0.29505 -0.02500
C 	C 	0.01383 0.15454 0.22235 -0.01400
H 	H 	0.96770 0.17270 0.19270 0.04300
C 	C 	0.28324 0.43159 0.35965 0.07900
C 	C 	0.48699 0.25237 0.32923 0.09000
C 	C 	0.49127 0.43887 0.11480 0.36300
Cu	Cu	0.39381 0.56630 0.03314 0.87700
C 	C 	0.38762 0.43109 0.23708 -0.00700
H 	H 	0.36680 0.47160 0.21770 0.02000
N 	N 	0.16882 0.50331 0.45802 -0.23400
O 	O 	0.47302 0.49602 0.10255 -0.39600
O 	O 	0.54069 0.40514 0.06823 -0.40900
N 	N 	0.55753 0.14097 0.40019 -0.23500
C 	C 	0.38210 0.34013 0.33717 -0.04500
H 	H 	0.35640 0.31760 0.38490 0.04200
C 	C 	0.45412 0.40358 0.19346 -0.09300
C 	C 	0.23658 0.47995 0.31973 -0.14100
H 	H 	0.24210 0.48860 0.25780 0.06500
C 	C 	0.60347 0.18997 0.37230 0.08200
H 	H 	0.66150 0.18650 0.37730 -0.03300
C 	C 	0.21042 0.45400 0.49439 0.07100
H 	H 	0.19970 0.44330 0.55490 -0.01500
C 	C 	0.26767 0.41806 0.44887 -0.14400
H 	H 	0.29640 0.38420 0.47820 0.07500
C 	C 	0.43907 0.20081 0.35807 -0.15300
H 	H 	0.38090 0.20310 0.35420 0.08200
C 	C 	0.35082 0.39956 0.30973 -0.02600
C 	C 	0.18233 0.51508 0.37108 0.07100
H 	H 	0.15300 0.54940 0.34360 -0.00300
C 	C 	0.57090 0.24571 0.33650 -0.15400
H 	H 	0.60620 0.27930 0.31700 0.07400
C 	C 	0.47608 0.14682 0.39202 0.09300
H 	H 	0.44230 0.11190 0.41060 0.00200
C 	C 	0.45106 0.31327 0.29505 -0.02800
C 	C 	0.48617 0.34546 0.22235 -0.00800
H 	H 	0.53230 0.32730 0.19270 0.04000
