data_crystal

_cell_length_a 4.75950
_cell_length_b 9.92500
_cell_length_c 22.60900
_cell_angle_alpha 90.00000
_cell_angle_beta  91.81000
_cell_angle_gamma 90.00000

_symmetry_space_group_name_	'P 1'
_symmetry_space_group_name_H-M	'P 1'

loop_
_symmetry_equiv_pos_as_xyz
  x,y,z

loop_
_atom_site_label
_atom_site_type_symbol
_atom_site_fract_x
_atom_site_fract_y
_atom_site_fract_z
_atom_site_charge
Cd	Cd	0.00000 0.00000 0.50000 1.21200
Cd	Cd	-0.00000 0.50000 -0.00000 1.20200
As	As	0.53337 0.86009 0.59476 0.46300
As	As	0.46663 0.36009 0.90524 0.47000
As	As	0.46663 0.13991 0.40524 0.44600
As	As	0.53337 0.63991 0.09476 0.43900
H 	H 	0.88780 0.03110 0.86450 0.12600
H 	H 	0.16140 0.74830 0.57660 0.24200
H 	H 	0.71500 0.64380 0.90010 0.30700
H 	H 	0.92670 0.73340 0.67830 0.04000
H 	H 	0.07990 0.76510 0.77490 0.03200
H 	H 	0.55560 0.08130 0.78780 0.15300
H 	H 	0.40070 0.04770 0.69190 -0.06800
H 	H 	0.28880 0.84770 0.85450 0.15900
H 	H 	0.22450 0.92570 0.91260 0.17200
H 	H 	0.11220 0.53110 0.63550 0.13200
H 	H 	0.83860 0.24830 0.92340 0.29300
H 	H 	0.28500 0.14380 0.59990 0.31300
H 	H 	0.07330 0.23340 0.82170 -0.05000
H 	H 	0.92010 0.26510 0.72510 0.20900
H 	H 	0.44440 0.58130 0.71220 0.12900
H 	H 	0.59930 0.54770 0.80810 0.00500
H 	H 	0.71120 0.34770 0.64550 0.13900
H 	H 	0.77550 0.42570 0.58740 0.14600
H 	H 	0.11220 0.96890 0.13550 0.15000
H 	H 	0.83860 0.25170 0.42340 0.28600
H 	H 	0.28500 0.35620 0.09990 0.32100
H 	H 	0.07330 0.26660 0.32170 -0.01900
H 	H 	0.92010 0.23490 0.22510 0.18200
H 	H 	0.44440 0.91870 0.21220 0.06700
H 	H 	0.59930 0.95230 0.30810 0.09800
H 	H 	0.71120 0.15230 0.14550 0.13600
H 	H 	0.77550 0.07430 0.08740 0.12600
H 	H 	0.88780 0.46890 0.36450 0.14400
H 	H 	0.16140 0.75170 0.07660 0.23500
H 	H 	0.71500 0.85620 0.40010 0.31500
H 	H 	0.92670 0.76660 0.17830 0.07300
H 	H 	0.07990 0.73490 0.27490 0.00400
H 	H 	0.55560 0.41870 0.28780 0.08900
H 	H 	0.40070 0.45230 0.19190 0.02600
H 	H 	0.28880 0.65230 0.35450 0.15700
H 	H 	0.22450 0.57430 0.41260 0.15200
C 	C 	0.64980 0.88820 0.67469 -0.16700
C 	C 	0.85340 0.80360 0.70028 0.05700
C 	C 	0.94700 0.82350 0.75811 -0.07600
C 	C 	0.84530 0.93010 0.79198 0.22600
C 	C 	0.63310 0.01230 0.76583 -0.33600
C 	C 	0.53920 0.99180 0.70837 0.23500
C 	C 	0.13970 0.87340 0.88052 -0.33900
C 	C 	0.01540 0.74630 0.90630 0.41800
C 	C 	0.35020 0.38820 0.82531 -0.19000
C 	C 	0.14660 0.30360 0.79972 0.17900
C 	C 	0.05300 0.32350 0.74189 -0.36800
C 	C 	0.15470 0.43010 0.70802 0.24600
C 	C 	0.36690 0.51230 0.73417 -0.25100
C 	C 	0.46080 0.49180 0.79163 0.13500
C 	C 	0.86030 0.37340 0.61948 -0.25100
C 	C 	0.98460 0.24630 0.59370 0.53400
C 	C 	0.35020 0.11180 0.32531 -0.10400
C 	C 	0.14660 0.19640 0.29972 0.09600
C 	C 	0.05300 0.17650 0.24189 -0.28400
C 	C 	0.15470 0.06990 0.20802 0.13900
C 	C 	0.36690 0.98770 0.23417 -0.05300
C 	C 	0.46080 0.00820 0.29163 -0.07200
C 	C 	0.86030 0.12660 0.11948 -0.24800
C 	C 	0.98460 0.25370 0.09370 0.53300
C 	C 	0.64980 0.61180 0.17469 -0.07900
C 	C 	0.85340 0.69640 0.20028 -0.02900
C 	C 	0.94700 0.67650 0.25811 0.01000
C 	C 	0.84530 0.56990 0.29198 0.11600
C 	C 	0.63310 0.48770 0.26583 -0.13600
C 	C 	0.53920 0.50820 0.20837 0.02400
C 	C 	0.13970 0.62660 0.38052 -0.33700
C 	C 	0.01540 0.75370 0.40630 0.41600
N 	N 	0.94460 0.95850 0.84787 -0.11600
N 	N 	0.05540 0.45850 0.65213 -0.20900
N 	N 	0.05540 0.04150 0.15213 -0.21300
N 	N 	0.94460 0.54150 0.34787 -0.12000
O 	O 	0.80670 0.82260 0.55324 -0.32600
O 	O 	0.31170 0.72140 0.59090 -0.42900
O 	O 	0.35200 0.99150 0.56782 -0.41100
O 	O 	0.76280 0.71650 0.88644 -0.46700
O 	O 	0.15150 0.67910 0.94235 -0.40900
O 	O 	0.19330 0.32260 0.94676 -0.37100
O 	O 	0.68830 0.22140 0.90910 -0.42900
O 	O 	0.64800 0.49150 0.93218 -0.38500
O 	O 	0.23720 0.21650 0.61356 -0.58100
O 	O 	0.84850 0.17910 0.55765 -0.43900
O 	O 	0.19330 0.17740 0.44676 -0.39300
O 	O 	0.68830 0.27860 0.40910 -0.42700
O 	O 	0.64800 0.00850 0.43218 -0.42000
O 	O 	0.23720 0.28350 0.11356 -0.58900
O 	O 	0.84850 0.32090 0.05765 -0.45000
O 	O 	0.80670 0.67740 0.05324 -0.34500
O 	O 	0.31170 0.77860 0.09090 -0.42700
O 	O 	0.35200 0.50850 0.06782 -0.44300
O 	O 	0.76280 0.78350 0.38644 -0.47400
O 	O 	0.15150 0.82090 0.44235 -0.42400
