data_crystal

_cell_length_a 8.88300
_cell_length_b 9.93550
_cell_length_c 14.50520
_cell_angle_alpha 82.13260
_cell_angle_beta  72.16990
_cell_angle_gamma 63.44660

_symmetry_space_group_name_	'P 1'
_symmetry_space_group_name_H-M	'P 1'

loop_
_symmetry_equiv_pos_as_xyz
  x,y,z

loop_
_atom_site_label
_atom_site_type_symbol
_atom_site_fract_x
_atom_site_fract_y
_atom_site_fract_z
_atom_site_charge
Co	Co	0.02500 0.58116 0.87242 1.08600
Co	Co	0.47858 0.41884 0.12758 1.09600
Co	Co	0.14742 0.08116 0.62758 1.09000
Co	Co	0.85616 0.91884 0.37242 1.10200
H 	H 	0.73470 0.47280 0.95040 -0.04600
H 	H 	0.82520 0.71400 0.09860 0.00700
H 	H 	0.60330 0.64840 0.20120 -0.00400
H 	H 	0.20450 0.25700 0.76840 -0.06000
H 	H 	0.79750 0.61600 0.73200 -0.00400
H 	H 	0.84160 0.41780 0.63300 -0.00300
H 	H 	0.15790 0.52720 0.04960 -0.05800
H 	H 	0.63780 0.28600 0.90140 0.00400
H 	H 	0.45290 0.35160 0.79880 -0.00400
H 	H 	0.22990 0.74300 0.23160 -0.06000
H 	H 	0.14550 0.38400 0.26800 0.01600
H 	H 	0.89240 0.58220 0.36700 -0.02200
H 	H 	0.93510 0.97280 0.54960 -0.05900
H 	H 	0.17380 0.21400 0.40140 -0.00800
H 	H 	0.05450 0.14840 0.29880 0.00200
H 	H 	0.22290 0.75700 0.73160 -0.05000
H 	H 	0.77950 0.11600 0.76800 -0.00500
H 	H 	0.72460 0.91780 0.86700 0.00300
H 	H 	0.45750 0.02720 0.45040 -0.06100
H 	H 	0.78920 0.78600 0.59860 0.00500
H 	H 	0.50170 0.85160 0.70120 -0.00300
H 	H 	0.71150 0.24300 0.26840 -0.05500
H 	H 	0.66350 0.88400 0.23200 -0.00100
H 	H 	0.50940 0.08220 0.13300 -0.00100
C 	C 	0.73220 0.52200 0.00120 0.06500
C 	C 	0.78070 0.65560 0.08100 -0.01300
C 	C 	0.66090 0.61760 0.13720 0.00300
C 	C 	0.10910 0.32300 0.74620 0.08100
C 	C 	0.88650 0.51880 0.72740 0.00800
C 	C 	0.91120 0.41000 0.67200 0.01000
C 	C 	0.25540 0.47800 0.99880 0.06900
C 	C 	0.51730 0.34440 0.91900 -0.01100
C 	C 	0.41570 0.38240 0.86280 -0.00200
C 	C 	0.17830 0.67700 0.25380 0.08500
C 	C 	0.13270 0.48120 0.27260 -0.07200
C 	C 	0.99320 0.59000 0.32800 0.06400
C 	C 	0.98340 0.02200 0.49880 0.10600
C 	C 	0.11170 0.15560 0.41900 0.00500
C 	C 	0.04810 0.11760 0.36280 -0.04300
C 	C 	0.10530 0.82300 0.75380 0.05800
C 	C 	0.86390 0.01880 0.77260 0.00900
C 	C 	0.83320 0.91000 0.82800 -0.01400
C 	C 	0.50420 0.97800 0.50120 0.08400
C 	C 	0.68630 0.84440 0.58100 -0.00900
C 	C 	0.52850 0.88240 0.63720 -0.00100
C 	C 	0.68210 0.17700 0.24620 0.08800
C 	C 	0.65530 0.98120 0.22740 -0.00400
C 	C 	0.57120 0.09000 0.17200 -0.01500
N 	N 	0.82990 0.59540 0.99260 -0.25900
N 	N 	0.63070 0.52700 0.09040 -0.27800
N 	N 	0.01080 0.46660 0.77640 -0.29500
N 	N 	0.05624 0.28540 0.68232 -0.29400
N 	N 	0.41790 0.40460 0.00740 -0.27000
N 	N 	0.24810 0.47300 0.90960 -0.28200
N 	N 	0.25380 0.53340 0.22360 -0.27100
N 	N 	0.02396 0.71460 0.31768 -0.30400
N 	N 	0.07250 0.09540 0.50740 -0.29200
N 	N 	0.97110 0.02700 0.40960 -0.26600
N 	N 	0.03720 0.96660 0.72360 -0.28500
N 	N 	0.98856 0.78540 0.81768 -0.25700
N 	N 	0.67530 0.90460 0.49260 -0.27100
N 	N 	0.40770 0.97300 0.59040 -0.27900
N 	N 	0.72740 0.03340 0.27640 -0.27800
N 	N 	0.59164 0.21460 0.18232 -0.27700
