data_crystal

_cell_length_a 9.08100
_cell_length_b 9.91790
_cell_length_c 14.57810
_cell_angle_alpha 81.80230
_cell_angle_beta  71.85270
_cell_angle_gamma 62.75440

_symmetry_space_group_name_	'P 1'
_symmetry_space_group_name_H-M	'P 1'

loop_
_symmetry_equiv_pos_as_xyz
  x,y,z

loop_
_atom_site_label
_atom_site_type_symbol
_atom_site_fract_x
_atom_site_fract_y
_atom_site_fract_z
_atom_site_charge
Co	Co	0.59239 0.57008 0.87396 1.09500
Co	Co	0.03643 0.42992 0.12604 1.10300
Co	Co	0.21635 0.07008 0.62604 1.09800
Co	Co	0.91247 0.92992 0.37396 1.08400
H 	H 	0.84640 0.24240 0.77020 -0.05600
H 	H 	0.17100 0.40920 0.63880 -0.01700
H 	H 	0.92280 0.60400 0.74180 0.01200
H 	H 	0.89860 0.46320 0.95300 -0.06700
H 	H 	0.61430 0.65080 0.20200 -0.00800
H 	H 	0.42740 0.70860 0.09860 0.00500
H 	H 	0.85900 0.75760 0.22980 -0.04700
H 	H 	0.21900 0.59080 0.36120 -0.00000
H 	H 	0.26860 0.39600 0.25820 0.00100
H 	H 	0.31480 0.53680 0.04700 -0.05600
H 	H 	0.46710 0.34920 0.79800 -0.00600
H 	H 	0.23460 0.29140 0.90140 0.00800
H 	H 	0.36660 0.74240 0.72980 -0.05900
H 	H 	0.55980 0.90920 0.86120 -0.00400
H 	H 	0.41460 0.10400 0.75820 0.00100
H 	H 	0.60160 0.96320 0.54700 -0.06600
H 	H 	0.56630 0.15080 0.29800 -0.00600
H 	H 	0.27600 0.20860 0.40140 0.00600
H 	H 	0.83880 0.25760 0.27020 -0.04800
H 	H 	0.33020 0.09080 0.13880 -0.00300
H 	H 	0.27680 0.89600 0.24180 0.00300
H 	H 	0.11180 0.03680 0.45300 -0.06700
H 	H 	0.01510 0.84920 0.70200 -0.01600
H 	H 	0.88600 0.79140 0.59860 0.01700
C 	C 	0.89593 0.30940 0.74954 0.06700
C 	C 	0.07400 0.39900 0.67800 0.04500
C 	C 	0.93670 0.50680 0.73460 -0.06900
C 	C 	0.80320 0.51900 0.00260 0.08700
C 	C 	0.65070 0.61920 0.13840 -0.00000
C 	C 	0.54670 0.65240 0.08120 -0.01600
C 	C 	0.95487 0.69060 0.25046 0.03500
C 	C 	0.15100 0.60100 0.32200 -0.00400
C 	C 	0.17810 0.49320 0.26540 -0.01500
C 	C 	0.32480 0.48100 0.99740 0.08400
C 	C 	0.40830 0.38080 0.86160 0.00200
C 	C 	0.28030 0.34760 0.91880 -0.01500
C 	C 	0.39547 0.80940 0.75046 0.09500
C 	C 	0.50200 0.89900 0.82200 -0.01000
C 	C 	0.42130 0.00680 0.76540 -0.01400
C 	C 	0.55580 0.01900 0.49740 0.09400
C 	C 	0.53910 0.11920 0.36160 0.00000
C 	C 	0.37790 0.15240 0.41880 -0.01500
C 	C 	0.95533 0.19060 0.24954 0.04500
C 	C 	0.22300 0.10100 0.17800 -0.00200
C 	C 	0.19350 0.99320 0.23460 -0.01900
C 	C 	0.07220 0.98100 0.50260 0.12100
C 	C 	0.01990 0.88080 0.63840 0.05600
C 	C 	0.94910 0.84760 0.58120 -0.07200
N 	N 	0.81826 0.45160 0.78068 -0.26900
N 	N 	0.04962 0.27140 0.68676 -0.27400
N 	N 	0.64836 0.58900 0.99288 -0.27700
N 	N 	0.81504 0.53320 0.08932 -0.28800
N 	N 	0.05054 0.54840 0.21932 -0.25700
N 	N 	0.00778 0.72860 0.31324 -0.25500
N 	N 	0.23024 0.41100 0.00712 -0.27100
N 	N 	0.43756 0.46680 0.91068 -0.28100
N 	N 	0.34894 0.95160 0.71932 -0.27900
N 	N 	0.48638 0.77140 0.81324 -0.28000
N 	N 	0.39124 0.08900 0.50712 -0.27600
N 	N 	0.65436 0.03320 0.41068 -0.28200
N 	N 	0.01986 0.04840 0.28068 -0.25500
N 	N 	0.07102 0.22860 0.18676 -0.26300
N 	N 	0.98736 0.91100 0.49288 -0.28900
N 	N 	0.09824 0.96680 0.58932 -0.29100
