data_crystal

_cell_length_a 15.92530
_cell_length_b 15.97120
_cell_length_c 18.47500
_cell_angle_alpha 90.00000
_cell_angle_beta  90.00000
_cell_angle_gamma 90.00000

_symmetry_space_group_name_	'P 1'
_symmetry_space_group_name_H-M	'P 1'

loop_
_symmetry_equiv_pos_as_xyz
  x,y,z

loop_
_atom_site_label
_atom_site_type_symbol
_atom_site_fract_x
_atom_site_fract_y
_atom_site_fract_z
_atom_site_charge
Co	Co	0.86361 0.68797 0.39903 1.10000
Co	Co	0.67864 0.99506 0.32506 1.10000
Co	Co	0.13639 0.81203 0.89903 1.10000
Co	Co	0.32136 0.50494 0.82506 1.10000
Co	Co	0.36361 0.31203 0.10097 1.10100
Co	Co	0.17864 0.00494 0.17494 1.09900
Co	Co	0.63639 0.18797 0.60097 1.10100
Co	Co	0.82136 0.49506 0.67494 1.10100
Co	Co	0.13639 0.31203 0.60097 1.10100
Co	Co	0.32136 0.00494 0.67494 1.10100
Co	Co	0.86361 0.18797 0.10097 1.10100
Co	Co	0.67864 0.49506 0.17494 1.10100
Co	Co	0.63639 0.68797 0.89903 1.10100
Co	Co	0.82136 0.99506 0.82506 1.09900
Co	Co	0.36361 0.81203 0.39903 1.10100
Co	Co	0.17864 0.50494 0.32506 1.10100
H 	H 	0.94600 0.86900 0.41850 -0.00000
H 	H 	0.86600 0.99700 0.39000 -0.00300
H 	H 	0.73130 0.81570 0.35570 -0.07300
H 	H 	0.91400 0.74810 0.55110 0.00300
H 	H 	0.89700 0.66990 0.66520 -0.00100
H 	H 	0.81930 0.54850 0.50930 -0.07300
H 	H 	0.98900 0.73940 0.27610 -0.00500
H 	H 	0.11000 0.66300 0.23890 0.00200
H 	H 	0.00580 0.55900 0.39600 -0.07500
H 	H 	0.59800 0.54800 0.31980 -0.00300
H 	H 	0.67100 0.63400 0.41400 -0.00200
H 	H 	0.82170 0.58380 0.26540 -0.06600
H 	H 	0.05400 0.63100 0.91850 0.00000
H 	H 	0.13400 0.50300 0.89000 -0.00300
H 	H 	0.26870 0.68430 0.85570 -0.07300
H 	H 	0.08600 0.75190 0.05110 0.00400
H 	H 	0.10300 0.83010 0.16520 -0.00000
H 	H 	0.18070 0.95150 0.00930 -0.07100
H 	H 	0.01100 0.76060 0.77610 0.00900
H 	H 	0.89000 0.83700 0.73890 -0.00600
H 	H 	0.99420 0.94100 0.89600 -0.07500
H 	H 	0.40200 0.95200 0.81980 -0.00300
H 	H 	0.32900 0.86600 0.91400 -0.00200
H 	H 	0.17830 0.91620 0.76540 -0.06500
H 	H 	0.44600 0.13100 0.08150 0.00000
H 	H 	0.36600 0.00300 0.11000 -0.00300
H 	H 	0.23130 0.18430 0.14430 -0.07300
H 	H 	0.41400 0.25190 0.94890 0.00400
H 	H 	0.39700 0.33010 0.83480 -0.00100
H 	H 	0.31930 0.45150 0.99070 -0.07300
H 	H 	0.48900 0.26060 0.22390 0.00300
H 	H 	0.61000 0.33700 0.26110 -0.00200
H 	H 	0.50580 0.44100 0.10400 -0.07400
H 	H 	0.09800 0.45200 0.18020 -0.00300
H 	H 	0.17100 0.36600 0.08600 -0.00200
H 	H 	0.32170 0.41620 0.23460 -0.06600
H 	H 	0.55400 0.36900 0.58150 0.00100
H 	H 	0.63400 0.49700 0.61000 -0.00200
H 	H 	0.76870 0.31570 0.64430 -0.07300
H 	H 	0.58600 0.24810 0.44890 0.00400
H 	H 	0.60300 0.16990 0.33480 -0.00100
H 	H 	0.68070 0.04850 0.49070 -0.07200
H 	H 	0.51100 0.23940 0.72390 0.00300
H 	H 	0.39000 0.16300 0.76110 -0.00200
H 	H 	0.49420 0.05900 0.60400 -0.07400
H 	H 	0.90200 0.04800 0.68020 -0.00100
H 	H 	0.82900 0.13400 0.58600 -0.00200
H 	H 	0.67830 0.08380 0.73460 -0.06500
H 	H 	0.05400 0.13100 0.58150 -0.00000
H 	H 	0.13400 0.00300 0.61000 -0.00300
H 	H 	0.26870 0.18430 0.64430 -0.07300
H 	H 	0.08600 0.25190 0.44890 0.00300
H 	H 	0.10300 0.33010 0.33480 -0.00100
H 	H 	0.18070 0.45150 0.49070 -0.07300
H 	H 	0.01100 0.26060 0.72390 -0.00500
H 	H 	0.89000 0.33700 0.76110 0.00200
H 	H 	0.99420 0.44100 0.60400 -0.07500
H 	H 	0.40200 0.45200 0.68020 -0.00300
H 	H 	0.32900 0.36600 0.58600 -0.00200
H 	H 	0.17830 0.41620 0.73460 -0.06600
H 	H 	0.94600 0.36900 0.08150 0.00000
H 	H 	0.86600 0.49700 0.11000 -0.00300
H 	H 	0.73130 0.31570 0.14430 -0.07300
H 	H 	0.91400 0.24810 0.94890 0.00400
H 	H 	0.89700 0.16990 0.83480 -0.00000
H 	H 	0.81930 0.04850 0.99070 -0.07100
H 	H 	0.98900 0.23940 0.22390 0.00900
H 	H 	0.11000 0.16300 0.26110 -0.00600
H 	H 	0.00580 0.05900 0.10400 -0.07500
H 	H 	0.59800 0.04800 0.18020 -0.00300
H 	H 	0.67100 0.13400 0.08600 -0.00200
H 	H 	0.82170 0.08380 0.23460 -0.06500
H 	H 	0.55400 0.86900 0.91850 0.00000
H 	H 	0.63400 0.99700 0.89000 -0.00300
H 	H 	0.76870 0.81570 0.85570 -0.07300
H 	H 	0.58600 0.74810 0.05110 0.00400
H 	H 	0.60300 0.66990 0.16520 -0.00100
H 	H 	0.68070 0.54850 0.00930 -0.07300
H 	H 	0.51100 0.73940 0.77610 0.00300
H 	H 	0.39000 0.66300 0.73890 -0.00200
H 	H 	0.49420 0.55900 0.89600 -0.07400
H 	H 	0.90200 0.54800 0.81980 -0.00300
H 	H 	0.82900 0.63400 0.91400 -0.00200
H 	H 	0.67830 0.58380 0.76540 -0.06600
H 	H 	0.44600 0.63100 0.41850 0.00100
H 	H 	0.36600 0.50300 0.39000 -0.00200
H 	H 	0.23130 0.68430 0.35570 -0.07300
H 	H 	0.41400 0.75190 0.55110 0.00400
H 	H 	0.39700 0.83010 0.66520 -0.00100
H 	H 	0.31930 0.95150 0.50930 -0.07200
H 	H 	0.48900 0.76060 0.27610 0.00300
H 	H 	0.61000 0.83700 0.23890 -0.00200
H 	H 	0.50580 0.94100 0.39600 -0.07400
H 	H 	0.09800 0.95200 0.31980 -0.00100
H 	H 	0.17100 0.86600 0.41400 -0.00200
H 	H 	0.32170 0.91620 0.26540 -0.06500
C 	C 	0.89450 0.87780 0.39930 -0.01300
C 	C 	0.85050 0.94730 0.38370 -0.00300
C 	C 	0.77470 0.84410 0.36420 0.11400
C 	C 	0.89350 0.70370 0.55930 -0.01900
C 	C 	0.88540 0.66030 0.62070 -0.01200
C 	C 	0.83980 0.58860 0.53520 0.12300
C 	C 	0.00710 0.69420 0.29210 -0.00100
C 	C 	0.07370 0.65040 0.27150 -0.01300
C 	C 	0.01880 0.59130 0.35980 0.11800
C 	C 	0.64960 0.56930 0.32270 -0.00500
C 	C 	0.68990 0.61380 0.37320 -0.00800
C 	C 	0.77340 0.58610 0.28910 0.10200
C 	C 	0.10550 0.62220 0.89930 -0.01300
C 	C 	0.14950 0.55270 0.88370 -0.00300
C 	C 	0.22530 0.65590 0.86420 0.11400
C 	C 	0.10650 0.79630 0.05930 -0.01900
C 	C 	0.11460 0.83970 0.12070 -0.01100
C 	C 	0.16020 0.91140 0.03520 0.12400
C 	C 	0.99290 0.80580 0.79210 -0.02800
C 	C 	0.92630 0.84960 0.77150 0.00300
C 	C 	0.98120 0.90870 0.85980 0.11400
C 	C 	0.35040 0.93070 0.82270 -0.00500
C 	C 	0.31010 0.88620 0.87320 -0.00800
C 	C 	0.22660 0.91390 0.78910 0.10200
C 	C 	0.39450 0.12220 0.10070 -0.01300
C 	C 	0.35050 0.05270 0.11630 -0.00300
C 	C 	0.27470 0.15590 0.13580 0.11400
C 	C 	0.39350 0.29630 0.94070 -0.02000
C 	C 	0.38540 0.33970 0.87930 -0.01100
C 	C 	0.33980 0.41140 0.96480 0.12300
C 	C 	0.50710 0.30580 0.20790 -0.01500
C 	C 	0.57370 0.34960 0.22850 -0.00500
C 	C 	0.51880 0.40870 0.14020 0.11700
C 	C 	0.14960 0.43070 0.17730 -0.00600
C 	C 	0.18990 0.38620 0.12680 -0.00800
C 	C 	0.27340 0.41390 0.21090 0.10200
C 	C 	0.60550 0.37780 0.60070 -0.01300
C 	C 	0.64950 0.44730 0.61630 -0.00300
C 	C 	0.72530 0.34410 0.63580 0.11500
C 	C 	0.60650 0.20370 0.44070 -0.01900
C 	C 	0.61460 0.16030 0.37930 -0.01200
C 	C 	0.66020 0.08860 0.46480 0.12300
C 	C 	0.49290 0.19420 0.70790 -0.01500
C 	C 	0.42630 0.15040 0.72850 -0.00400
C 	C 	0.48120 0.09130 0.64020 0.11700
C 	C 	0.85040 0.06930 0.67730 -0.00500
C 	C 	0.81010 0.11380 0.62680 -0.00800
C 	C 	0.72660 0.08610 0.71090 0.10200
C 	C 	0.10550 0.12220 0.60070 -0.01300
C 	C 	0.14950 0.05270 0.61630 -0.00300
C 	C 	0.22530 0.15590 0.63580 0.11400
C 	C 	0.10650 0.29630 0.44070 -0.01900
C 	C 	0.11460 0.33970 0.37930 -0.01200
C 	C 	0.16020 0.41140 0.46480 0.12300
C 	C 	0.99290 0.30580 0.70790 -0.00100
C 	C 	0.92630 0.34960 0.72850 -0.01300
C 	C 	0.98120 0.40870 0.64020 0.11800
C 	C 	0.35040 0.43070 0.67730 -0.00500
C 	C 	0.31010 0.38620 0.62680 -0.00800
C 	C 	0.22660 0.41390 0.71090 0.10200
C 	C 	0.89450 0.37780 0.10070 -0.01300
C 	C 	0.85050 0.44730 0.11630 -0.00300
C 	C 	0.77470 0.34410 0.13580 0.11400
C 	C 	0.89350 0.20370 0.94070 -0.01900
C 	C 	0.88540 0.16030 0.87930 -0.01100
C 	C 	0.83980 0.08860 0.96480 0.12400
C 	C 	0.00710 0.19420 0.20790 -0.02800
C 	C 	0.07370 0.15040 0.22850 0.00300
C 	C 	0.01880 0.09130 0.14020 0.11400
C 	C 	0.64960 0.06930 0.17730 -0.00500
C 	C 	0.68990 0.11380 0.12680 -0.00800
C 	C 	0.77340 0.08610 0.21090 0.10200
C 	C 	0.60550 0.87780 0.89930 -0.01300
C 	C 	0.64950 0.94730 0.88370 -0.00300
C 	C 	0.72530 0.84410 0.86420 0.11400
C 	C 	0.60650 0.70370 0.05930 -0.02000
C 	C 	0.61460 0.66030 0.12070 -0.01100
C 	C 	0.66020 0.58860 0.03520 0.12300
C 	C 	0.49290 0.69420 0.79210 -0.01500
C 	C 	0.42630 0.65040 0.77150 -0.00500
C 	C 	0.48120 0.59130 0.85980 0.11700
C 	C 	0.85040 0.56930 0.82270 -0.00600
C 	C 	0.81010 0.61380 0.87320 -0.00800
C 	C 	0.72660 0.58610 0.78910 0.10200
C 	C 	0.39450 0.62220 0.39930 -0.01300
C 	C 	0.35050 0.55270 0.38370 -0.00300
C 	C 	0.27470 0.65590 0.36420 0.11500
C 	C 	0.39350 0.79630 0.55930 -0.01900
C 	C 	0.38540 0.83970 0.62070 -0.01200
C 	C 	0.33980 0.91140 0.53520 0.12300
C 	C 	0.50710 0.80580 0.29210 -0.01500
C 	C 	0.57370 0.84960 0.27150 -0.00400
C 	C 	0.51880 0.90870 0.35980 0.11700
C 	C 	0.14960 0.93070 0.32270 -0.00500
C 	C 	0.18990 0.88620 0.37320 -0.00800
C 	C 	0.27340 0.91390 0.28910 0.10200
N 	N 	0.84470 0.80966 0.38728 -0.28600
N 	N 	0.77360 0.92712 0.36055 -0.28900
N 	N 	0.86578 0.65787 0.50230 -0.28800
N 	N 	0.85012 0.58465 0.60548 -0.28900
N 	N 	0.96900 0.65693 0.34906 -0.28800
N 	N 	0.08258 0.58358 0.31564 -0.28500
N 	N 	0.70260 0.55027 0.26825 -0.28500
N 	N 	0.77050 0.62563 0.35241 -0.28200
N 	N 	0.15530 0.69034 0.88728 -0.28600
N 	N 	0.22640 0.57288 0.86055 -0.28900
N 	N 	0.13422 0.84213 0.00230 -0.28700
N 	N 	0.14988 0.91535 0.10548 -0.28700
N 	N 	0.03100 0.84307 0.84906 -0.28100
N 	N 	0.91742 0.91642 0.81564 -0.28800
N 	N 	0.29740 0.94973 0.76825 -0.28500
N 	N 	0.22950 0.87437 0.85241 -0.28200
N 	N 	0.34470 0.19034 0.11272 -0.28600
N 	N 	0.27360 0.07288 0.13945 -0.28900
N 	N 	0.36578 0.34213 0.99770 -0.28800
N 	N 	0.35012 0.41535 0.89452 -0.28900
N 	N 	0.46900 0.34307 0.15094 -0.28500
N 	N 	0.58258 0.41642 0.18436 -0.28600
N 	N 	0.20260 0.44973 0.23175 -0.28500
N 	N 	0.27050 0.37437 0.14759 -0.28200
N 	N 	0.65530 0.30966 0.61272 -0.28600
N 	N 	0.72640 0.42712 0.63945 -0.28900
N 	N 	0.63422 0.15787 0.49770 -0.28800
N 	N 	0.64988 0.08465 0.39452 -0.28900
N 	N 	0.53100 0.15693 0.65094 -0.28500
N 	N 	0.41742 0.08358 0.68436 -0.28600
N 	N 	0.79740 0.05027 0.73175 -0.28400
N 	N 	0.72950 0.12563 0.64759 -0.28100
N 	N 	0.15530 0.19034 0.61272 -0.28600
N 	N 	0.22640 0.07288 0.63945 -0.28900
N 	N 	0.13422 0.34213 0.49770 -0.28800
N 	N 	0.14988 0.41535 0.39452 -0.28900
N 	N 	0.03100 0.34307 0.65094 -0.28800
N 	N 	0.91742 0.41642 0.68436 -0.28500
N 	N 	0.29740 0.44973 0.73175 -0.28500
N 	N 	0.22950 0.37437 0.64759 -0.28200
N 	N 	0.84470 0.30966 0.11272 -0.28600
N 	N 	0.77360 0.42712 0.13945 -0.28900
N 	N 	0.86578 0.15787 0.99770 -0.28700
N 	N 	0.85012 0.08465 0.89452 -0.28700
N 	N 	0.96900 0.15693 0.15094 -0.28100
N 	N 	0.08258 0.08358 0.18436 -0.28800
N 	N 	0.70260 0.05027 0.23175 -0.28500
N 	N 	0.77050 0.12563 0.14759 -0.28200
N 	N 	0.65530 0.80966 0.88728 -0.28600
N 	N 	0.72640 0.92712 0.86055 -0.28900
N 	N 	0.63422 0.65787 0.00230 -0.28800
N 	N 	0.64988 0.58465 0.10548 -0.28900
N 	N 	0.53100 0.65693 0.84906 -0.28500
N 	N 	0.41742 0.58358 0.81564 -0.28600
N 	N 	0.79740 0.55027 0.76825 -0.28500
N 	N 	0.72950 0.62563 0.85241 -0.28200
N 	N 	0.34470 0.69034 0.38728 -0.28600
N 	N 	0.27360 0.57288 0.36055 -0.28900
N 	N 	0.36578 0.84213 0.50230 -0.28800
N 	N 	0.35012 0.91535 0.60548 -0.28900
N 	N 	0.46900 0.84307 0.34906 -0.28500
N 	N 	0.58258 0.91642 0.31564 -0.28600
N 	N 	0.20260 0.94973 0.26825 -0.28400
N 	N 	0.27050 0.87437 0.35241 -0.28100
