data_crystal

_cell_length_a 14.74090
_cell_length_b 15.34290
_cell_length_c 22.19240
_cell_angle_alpha 90.00000
_cell_angle_beta  103.71600
_cell_angle_gamma 90.00000

_symmetry_space_group_name_	'P 1'
_symmetry_space_group_name_H-M	'P 1'

loop_
_symmetry_equiv_pos_as_xyz
  x,y,z

loop_
_atom_site_label
_atom_site_type_symbol
_atom_site_fract_x
_atom_site_fract_y
_atom_site_fract_z
_atom_site_charge
C 	C 	0.16580 0.67440 0.16440 0.01400
H 	H 	0.16630 0.61420 0.15940 0.05200
C 	C 	0.16680 0.73010 0.11310 -0.21700
O 	O 	0.16460 0.87610 0.07600 -0.46200
C 	C 	0.16540 0.82110 0.11780 0.29400
C 	C 	0.16130 0.85220 0.18080 -0.19000
H 	H 	0.15670 0.91180 0.18710 0.11200
C 	C 	0.16400 0.79810 0.22920 0.01400
H 	H 	0.16560 0.82050 0.26830 0.03500
C 	C 	0.16430 0.70830 0.21990 0.03000
N 	N 	0.16350 0.64780 0.26610 -0.08300
O 	O 	0.02060 0.78870 0.75480 -0.45300
C 	C 	0.94450 0.79510 0.77320 0.32800
C 	C 	0.86150 0.78480 0.73100 -0.25300
H 	H 	0.86370 0.77280 0.69030 0.12200
C 	C 	0.94340 0.81720 0.83510 -0.24000
C 	C 	0.85250 0.81680 0.84950 0.03300
H 	H 	0.84970 0.82100 0.89080 0.05000
C 	C 	0.77630 0.79040 0.74320 0.05400
H 	H 	0.72300 0.78100 0.71180 0.02600
C 	C 	0.76820 0.81060 0.80400 0.02200
N 	N 	0.68860 0.81060 0.82710 -0.07900
Zn	Zn	0.15394 0.59981 0.95404 1.19600
O 	O 	0.16680 0.60300 0.04850 -0.41600
O 	O 	0.15920 0.72870 0.00120 -0.53700
C 	C 	0.16380 0.68700 0.05340 0.33800
Zn	Zn	0.14892 0.86595 0.98783 1.20400
O 	O 	0.10530 0.81850 0.88020 -0.57200
C 	C 	0.02170 0.82840 0.88730 0.39700
N 	N 	0.14500 0.00640 0.98360 -0.23100
C 	C 	0.21570 0.05300 0.02320 0.04900
H 	H 	0.26070 0.02370 0.05270 -0.00300
C 	C 	0.21900 0.14320 0.01860 -0.11600
H 	H 	0.26630 0.17430 0.04510 0.07400
C 	C 	0.15170 0.18690 0.97450 0.05300
C 	C 	0.08100 0.14040 0.93490 -0.11400
H 	H 	0.03600 0.16960 0.90540 0.07600
C 	C 	0.07770 0.05010 0.93950 0.05200
H 	H 	0.03040 0.01900 0.91300 0.01400
O 	O 	0.01080 0.85610 0.93910 -0.43100
N 	N 	0.15640 0.46380 0.95740 -0.24700
C 	C 	0.23970 0.41910 0.97920 0.05600
H 	H 	0.29570 0.44970 0.99070 -0.01900
C 	C 	0.23950 0.32880 0.98390 -0.11700
H 	H 	0.29520 0.29890 0.99850 0.06700
C 	C 	0.15580 0.28310 0.96670 0.05100
C 	C 	0.07250 0.32780 0.94490 -0.10600
H 	H 	0.01660 0.29730 0.93340 0.06900
C 	C 	0.07270 0.41820 0.94030 0.04900
H 	H 	0.01700 0.44810 0.92570 0.00800
Zn	Zn	0.15251 0.80752 0.80565 1.23000
C 	C 	0.28030 0.74830 0.72860 0.38100
C 	C 	0.35830 0.79180 0.84100 0.24200
C 	C 	0.36460 0.77130 0.78000 -0.20000
C 	C 	0.45000 0.77150 0.76220 0.01200
H 	H 	0.45290 0.75590 0.72220 0.05500
C 	C 	0.53000 0.79580 0.80620 0.03900
C 	C 	0.52690 0.81250 0.86790 0.00200
H 	H 	0.58160 0.82460 0.89740 0.03400
C 	C 	0.44350 0.81110 0.88430 -0.18400
H 	H 	0.44230 0.82300 0.92520 0.08600
C 	C 	0.15280 0.64800 0.53240 0.37600
C 	C 	0.15630 0.60530 0.47370 -0.21300
C 	C 	0.15890 0.65250 0.42180 0.01700
H 	H 	0.15880 0.71280 0.42550 0.04600
C 	C 	0.16160 0.61850 0.36390 0.03900
C 	C 	0.16330 0.52830 0.35970 -0.01500
H 	H 	0.16580 0.50340 0.32200 0.04900
C 	C 	0.16150 0.47230 0.41020 -0.16900
H 	H 	0.16200 0.41210 0.40520 0.09700
C 	C 	0.15860 0.50990 0.47030 0.26400
N 	N 	0.16290 0.67410 0.31700 -0.08600
N 	N 	0.61500 0.79330 0.78670 -0.07800
O 	O 	0.27980 0.78790 0.86070 -0.43600
O 	O 	0.19810 0.74550 0.73850 -0.56900
O 	O 	0.28830 0.73210 0.67550 -0.44900
O 	O 	0.15150 0.60790 0.58330 -0.56700
O 	O 	0.14580 0.72910 0.53200 -0.44500
O 	O 	0.15270 0.45610 0.51260 -0.44500
C 	C 	0.22740 0.07720 0.80860 -0.20200
H 	H 	0.28170 0.10630 0.82810 0.09400
C 	C 	0.23260 0.99100 0.80540 0.12100
H 	H 	0.29080 0.96410 0.81300 -0.03200
N 	N 	0.15690 0.94360 0.79160 -0.28200
C 	C 	0.08190 0.98750 0.77430 0.14800
H 	H 	0.02700 0.95520 0.76440 -0.03500
C 	C 	0.06500 0.26630 0.75960 -0.10100
H 	H 	0.01090 0.23560 0.74160 0.07100
C 	C 	0.06600 0.35620 0.75880 0.04200
H 	H 	0.01290 0.38590 0.73780 -0.00100
C 	C 	0.15070 0.22050 0.78920 0.02000
N 	N 	0.14430 0.40330 0.78860 -0.24400
C 	C 	0.22150 0.27220 0.82140 -0.11700
H 	H 	0.27490 0.24550 0.84500 0.06500
C 	C 	0.21720 0.35960 0.82050 0.07500
H 	H 	0.26780 0.39080 0.84330 -0.00900
C 	C 	0.07200 0.07050 0.76870 -0.20100
H 	H 	0.01370 0.09560 0.75310 0.10900
C 	C 	0.15580 0.12380 0.78760 0.11600
C 	C 	0.02780 0.59990 0.85180 0.40500
C 	C 	0.94320 0.58510 0.79990 -0.23600
C 	C 	0.85740 0.58750 0.81560 0.03200
H 	H 	0.85650 0.59900 0.85660 0.05000
C 	C 	0.77220 0.57360 0.77280 0.02500
C 	C 	0.77800 0.55030 0.71400 0.01700
H 	H 	0.72340 0.53520 0.68530 0.03700
C 	C 	0.85860 0.54840 0.69630 -0.19700
H 	H 	0.85820 0.53620 0.65520 0.09800
C 	C 	0.94720 0.56550 0.74070 0.27700
C 	C 	0.28820 0.51420 0.69390 0.38500
C 	C 	0.36980 0.53790 0.74710 -0.18900
C 	C 	0.36090 0.55370 0.80700 0.22900
C 	C 	0.44720 0.57410 0.85410 -0.15300
H 	H 	0.44450 0.58800 0.89440 0.08200
C 	C 	0.53090 0.57240 0.83810 -0.01000
H 	H 	0.58590 0.58050 0.86830 0.04200
C 	C 	0.53410 0.55890 0.77730 0.04400
C 	C 	0.45660 0.53600 0.73330 0.00900
H 	H 	0.46190 0.51920 0.69400 0.05700
N 	N 	0.62060 0.55960 0.75700 -0.07900
N 	N 	0.69120 0.57670 0.79700 -0.07600
O 	O 	0.27880 0.55650 0.82520 -0.42900
O 	O 	0.20330 0.52320 0.69890 -0.57400
O 	O 	0.30300 0.48780 0.64520 -0.41200
O 	O 	0.01910 0.61150 0.90540 -0.45300
O 	O 	0.10910 0.59610 0.84230 -0.58900
O 	O 	0.02320 0.55710 0.72040 -0.44800
Zn	Zn	0.15240 0.53879 0.77490 1.23200
Zn	Zn	0.15737 0.47769 0.59980 1.21300
C 	C 	0.23060 0.29420 0.64750 0.12300
H 	H 	0.28180 0.32370 0.67130 -0.01400
C 	C 	0.23310 0.20630 0.64820 -0.19100
H 	H 	0.28700 0.17860 0.66990 0.09700
C 	C 	0.16260 0.15880 0.61960 0.10700
C 	C 	0.08630 0.20540 0.58860 -0.17900
H 	H 	0.03260 0.17600 0.56810 0.09100
C 	C 	0.08800 0.29480 0.58730 0.10900
H 	H 	0.03490 0.32360 0.56540 -0.03600
C 	C 	0.23310 0.92090 0.63620 0.07700
H 	H 	0.28970 0.89110 0.64500 -0.00400
C 	C 	0.23830 0.01130 0.63820 -0.11600
H 	H 	0.29580 0.03770 0.65390 0.07000
C 	C 	0.16030 0.06320 0.61770 0.02300
C 	C 	0.07940 0.01490 0.60530 -0.10600
H 	H 	0.02220 0.04360 0.59480 0.06700
C 	C 	0.08070 0.92430 0.60810 0.04800
H 	H 	0.02330 0.89590 0.59860 -0.01700
N 	N 	0.16010 0.34210 0.61510 -0.27000
N 	N 	0.15870 0.87350 0.62350 -0.27300
Zn	Zn	0.15565 0.74224 0.62598 1.19700
C 	C 	0.83420 0.17440 0.83560 0.01300
H 	H 	0.83370 0.11420 0.84060 0.05200
C 	C 	0.83320 0.23010 0.88690 -0.21800
O 	O 	0.83540 0.37610 0.92400 -0.46300
C 	C 	0.83460 0.32110 0.88220 0.29300
C 	C 	0.83870 0.35220 0.81920 -0.19000
H 	H 	0.84330 0.41180 0.81290 0.11300
C 	C 	0.83600 0.29810 0.77080 0.01300
H 	H 	0.83440 0.32050 0.73170 0.03600
C 	C 	0.83570 0.20830 0.78010 0.03100
N 	N 	0.83650 0.14780 0.73390 -0.08300
O 	O 	0.97940 0.28870 0.24520 -0.45200
C 	C 	0.05550 0.29510 0.22680 0.32700
C 	C 	0.13850 0.28480 0.26900 -0.25200
H 	H 	0.13630 0.27280 0.30970 0.12200
C 	C 	0.05660 0.31720 0.16490 -0.23900
C 	C 	0.14750 0.31680 0.15050 0.03300
H 	H 	0.15030 0.32100 0.10920 0.05100
C 	C 	0.22370 0.29040 0.25680 0.05400
H 	H 	0.27700 0.28100 0.28820 0.02600
C 	C 	0.23180 0.31060 0.19600 0.02300
N 	N 	0.31140 0.31060 0.17290 -0.07800
Zn	Zn	0.84606 0.09981 0.04596 1.19500
O 	O 	0.83320 0.10300 0.95150 -0.41500
O 	O 	0.84080 0.22870 0.99880 -0.53700
C 	C 	0.83620 0.18700 0.94660 0.33700
Zn	Zn	0.85108 0.36595 0.01217 1.20500
O 	O 	0.89470 0.31850 0.11980 -0.57100
C 	C 	0.97830 0.32840 0.11270 0.39800
N 	N 	0.85500 0.50640 0.01640 -0.23500
C 	C 	0.78430 0.55300 0.97680 0.05300
H 	H 	0.73930 0.52370 0.94730 -0.00400
C 	C 	0.78100 0.64320 0.98140 -0.11600
H 	H 	0.73370 0.67430 0.95490 0.07400
C 	C 	0.84830 0.68690 0.02550 0.05200
C 	C 	0.91900 0.64040 0.06510 -0.11500
H 	H 	0.96400 0.66960 0.09460 0.07600
C 	C 	0.92230 0.55010 0.06050 0.05200
H 	H 	0.96960 0.51900 0.08700 0.01100
O 	O 	0.98920 0.35610 0.06090 -0.42900
N 	N 	0.84360 0.96380 0.04260 -0.24700
C 	C 	0.76030 0.91910 0.02080 0.05600
H 	H 	0.70430 0.94970 0.00930 -0.01900
C 	C 	0.76050 0.82880 0.01610 -0.11700
H 	H 	0.70480 0.79890 0.00150 0.06700
C 	C 	0.84420 0.78310 0.03330 0.05100
C 	C 	0.92750 0.82780 0.05510 -0.10600
H 	H 	0.98340 0.79730 0.06660 0.06900
C 	C 	0.92730 0.91820 0.05970 0.05000
H 	H 	0.98300 0.94810 0.07430 0.00800
Zn	Zn	0.84749 0.30752 0.19435 1.23100
C 	C 	0.71970 0.24830 0.27140 0.38100
C 	C 	0.64170 0.29180 0.15900 0.24200
C 	C 	0.63540 0.27130 0.22000 -0.20000
C 	C 	0.55000 0.27150 0.23780 0.01200
H 	H 	0.54710 0.25590 0.27780 0.05500
C 	C 	0.47000 0.29580 0.19380 0.03900
C 	C 	0.47310 0.31250 0.13210 0.00300
H 	H 	0.41840 0.32460 0.10260 0.03500
C 	C 	0.55650 0.31110 0.11570 -0.18300
H 	H 	0.55770 0.32300 0.07480 0.08700
C 	C 	0.84720 0.14800 0.46760 0.37800
C 	C 	0.84370 0.10530 0.52630 -0.21700
C 	C 	0.84110 0.15250 0.57820 0.02100
H 	H 	0.84120 0.21280 0.57450 0.04500
C 	C 	0.83840 0.11850 0.63610 0.03400
C 	C 	0.83670 0.02830 0.64030 -0.00400
H 	H 	0.83420 0.00340 0.67800 0.04600
C 	C 	0.83850 0.97230 0.58980 -0.18300
H 	H 	0.83800 0.91210 0.59480 0.10100
C 	C 	0.84140 0.00990 0.52970 0.27400
N 	N 	0.83710 0.17410 0.68300 -0.08500
N 	N 	0.38500 0.29330 0.21330 -0.07800
O 	O 	0.72020 0.28790 0.13930 -0.43600
O 	O 	0.80190 0.24550 0.26150 -0.56900
O 	O 	0.71170 0.23210 0.32450 -0.44900
O 	O 	0.84850 0.10790 0.41670 -0.56700
O 	O 	0.85420 0.22910 0.46800 -0.44500
O 	O 	0.84730 0.95610 0.48740 -0.44900
C 	C 	0.77260 0.57720 0.19140 -0.23800
H 	H 	0.71830 0.60630 0.17190 0.10500
C 	C 	0.76740 0.49100 0.19460 0.15000
H 	H 	0.70920 0.46410 0.18700 -0.04100
N 	N 	0.84310 0.44360 0.20840 -0.29200
C 	C 	0.91810 0.48750 0.22570 0.17800
H 	H 	0.97300 0.45520 0.23560 -0.04300
C 	C 	0.93500 0.76630 0.24040 -0.09400
H 	H 	0.98910 0.73560 0.25840 0.06800
C 	C 	0.93400 0.85620 0.24120 0.03900
H 	H 	0.98710 0.88590 0.26220 0.00100
C 	C 	0.84930 0.72050 0.21080 0.00700
N 	N 	0.85570 0.90330 0.21140 -0.24200
C 	C 	0.77850 0.77220 0.17860 -0.10800
H 	H 	0.72510 0.74550 0.15500 0.06100
C 	C 	0.78280 0.85960 0.17950 0.07000
H 	H 	0.73220 0.89080 0.15670 -0.00800
C 	C 	0.92800 0.57050 0.23130 -0.23400
H 	H 	0.98630 0.59560 0.24690 0.11900
C 	C 	0.84420 0.62380 0.21240 0.14200
C 	C 	0.97220 0.09990 0.14820 0.40500
C 	C 	0.05680 0.08510 0.20010 -0.23600
C 	C 	0.14260 0.08750 0.18440 0.03200
H 	H 	0.14350 0.09900 0.14340 0.05000
C 	C 	0.22780 0.07360 0.22720 0.02500
C 	C 	0.22200 0.05030 0.28600 0.01700
H 	H 	0.27660 0.03520 0.31470 0.03700
C 	C 	0.14140 0.04840 0.30370 -0.19700
H 	H 	0.14180 0.03620 0.34480 0.09900
C 	C 	0.05280 0.06550 0.25930 0.27800
C 	C 	0.71180 0.01420 0.30610 0.38700
C 	C 	0.63020 0.03790 0.25290 -0.18900
C 	C 	0.63910 0.05370 0.19300 0.22900
C 	C 	0.55280 0.07410 0.14590 -0.15300
H 	H 	0.55550 0.08800 0.10560 0.08200
C 	C 	0.46910 0.07240 0.16190 -0.01000
H 	H 	0.41410 0.08050 0.13170 0.04200
C 	C 	0.46590 0.05890 0.22270 0.04400
C 	C 	0.54340 0.03600 0.26670 0.00900
H 	H 	0.53810 0.01920 0.30600 0.05700
N 	N 	0.37940 0.05960 0.24300 -0.07900
N 	N 	0.30880 0.07670 0.20300 -0.07600
O 	O 	0.72120 0.05650 0.17480 -0.42900
O 	O 	0.79670 0.02320 0.30110 -0.57400
O 	O 	0.69700 0.98780 0.35480 -0.41400
O 	O 	0.98090 0.11150 0.09460 -0.45400
O 	O 	0.89090 0.09610 0.15770 -0.58900
O 	O 	0.97680 0.05710 0.27960 -0.44800
Zn	Zn	0.84760 0.03879 0.22510 1.23200
Zn	Zn	0.84263 0.97769 0.40020 1.21200
C 	C 	0.76940 0.79420 0.35250 0.11900
H 	H 	0.71820 0.82370 0.32870 -0.01300
C 	C 	0.76690 0.70630 0.35180 -0.18500
H 	H 	0.71300 0.67860 0.33010 0.09400
C 	C 	0.83740 0.65880 0.38040 0.09900
C 	C 	0.91370 0.70540 0.41140 -0.17400
H 	H 	0.96740 0.67600 0.43190 0.08900
C 	C 	0.91200 0.79480 0.41270 0.10600
H 	H 	0.96510 0.82360 0.43460 -0.03500
C 	C 	0.76690 0.42090 0.36380 0.09100
H 	H 	0.71030 0.39110 0.35500 -0.00800
C 	C 	0.76170 0.51130 0.36180 -0.13300
H 	H 	0.70420 0.53770 0.34610 0.07500
C 	C 	0.83970 0.56320 0.38230 0.03500
C 	C 	0.92060 0.51490 0.39470 -0.12300
H 	H 	0.97780 0.54360 0.40520 0.07200
C 	C 	0.91930 0.42430 0.39190 0.06100
H 	H 	0.97670 0.39590 0.40140 -0.02000
N 	N 	0.83990 0.84210 0.38490 -0.26900
N 	N 	0.84130 0.37350 0.37650 -0.27700
Zn	Zn	0.84435 0.24224 0.37402 1.19800
