data_crystal

_cell_length_a 8.53890
_cell_length_b 17.20090
_cell_length_c 17.20090
_cell_angle_alpha 90.00000
_cell_angle_beta  90.00000
_cell_angle_gamma 90.00000

_symmetry_space_group_name_	'P 1'
_symmetry_space_group_name_H-M	'P 1'

loop_
_symmetry_equiv_pos_as_xyz
  x,y,z

loop_
_atom_site_label
_atom_site_type_symbol
_atom_site_fract_x
_atom_site_fract_y
_atom_site_fract_z
_atom_site_charge
Eu	Eu	0.15047 0.96304 0.11061 2.02100
Eu	Eu	0.15047 0.03696 0.88939 2.02100
Eu	Eu	0.84953 0.11061 0.03696 2.02100
Eu	Eu	0.84953 0.88939 0.96304 2.02100
Eu	Eu	0.34953 0.53696 0.61061 2.02000
Eu	Eu	0.34953 0.46304 0.38939 2.02000
Eu	Eu	0.65047 0.38939 0.53696 2.02000
Eu	Eu	0.65047 0.61061 0.46304 2.02000
H 	H 	0.44400 0.23620 0.24800 -0.01000
H 	H 	0.67650 0.16740 0.43830 -0.01800
H 	H 	0.74230 0.05220 0.37720 0.10500
H 	H 	0.65170 0.02670 0.25260 -0.01200
H 	H 	0.20100 0.10900 0.04000 0.24900
H 	H 	0.44400 0.76380 0.75200 -0.01000
H 	H 	0.67650 0.83260 0.56170 -0.01800
H 	H 	0.74230 0.94780 0.62280 0.10500
H 	H 	0.65170 0.97330 0.74740 -0.01200
H 	H 	0.20100 0.89100 0.96000 0.24900
H 	H 	0.55600 0.24800 0.76380 -0.01000
H 	H 	0.32350 0.43830 0.83260 -0.01800
H 	H 	0.25770 0.37720 0.94780 0.10500
H 	H 	0.34830 0.25260 0.97330 -0.01200
H 	H 	0.79900 0.04000 0.89100 0.24900
H 	H 	0.55600 0.75200 0.23620 -0.01000
H 	H 	0.32350 0.56170 0.16740 -0.01800
H 	H 	0.25770 0.62280 0.05220 0.10500
H 	H 	0.34830 0.74740 0.02670 -0.01200
H 	H 	0.79900 0.96000 0.10900 0.24900
H 	H 	0.05600 0.26380 0.74800 -0.01000
H 	H 	0.82350 0.33260 0.93830 -0.01800
H 	H 	0.75770 0.44780 0.87720 0.10500
H 	H 	0.84830 0.47330 0.75260 -0.01200
H 	H 	0.29900 0.39100 0.54000 0.24900
H 	H 	0.05600 0.73620 0.25200 -0.01000
H 	H 	0.82350 0.66740 0.06170 -0.01800
H 	H 	0.75770 0.55220 0.12280 0.10500
H 	H 	0.84830 0.52670 0.24740 -0.01200
H 	H 	0.29900 0.60900 0.46000 0.24900
H 	H 	0.94400 0.25200 0.26380 -0.01000
H 	H 	0.17650 0.06170 0.33260 -0.01800
H 	H 	0.24230 0.12280 0.44780 0.10500
H 	H 	0.15170 0.24740 0.47330 -0.01200
H 	H 	0.70100 0.46000 0.39100 0.24900
H 	H 	0.94400 0.74800 0.73620 -0.01000
H 	H 	0.17650 0.93830 0.66740 -0.01800
H 	H 	0.24230 0.87720 0.55220 0.10500
H 	H 	0.15170 0.75260 0.52670 -0.01200
H 	H 	0.70100 0.54000 0.60900 0.24900
C 	C 	0.54140 0.12905 0.23851 -0.23700
C 	C 	0.50300 0.19907 0.27430 0.15600
C 	C 	0.55370 0.21270 0.34950 -0.22800
C 	C 	0.50970 0.28687 0.39010 0.48700
C 	C 	0.64240 0.15790 0.38790 0.14500
C 	C 	0.68100 0.08870 0.35150 -0.21100
C 	C 	0.62840 0.07367 0.27670 0.14400
C 	C 	0.54140 0.87095 0.76149 -0.23700
C 	C 	0.50300 0.80093 0.72570 0.15600
C 	C 	0.55370 0.78730 0.65050 -0.22800
C 	C 	0.50970 0.71313 0.60990 0.48700
C 	C 	0.64240 0.84210 0.61210 0.14500
C 	C 	0.68100 0.91130 0.64850 -0.21100
C 	C 	0.62840 0.92633 0.72330 0.14400
C 	C 	0.45860 0.23851 0.87095 -0.23700
C 	C 	0.49700 0.27430 0.80093 0.15600
C 	C 	0.44630 0.34950 0.78730 -0.22800
C 	C 	0.49030 0.39010 0.71313 0.48700
C 	C 	0.35760 0.38790 0.84210 0.14500
C 	C 	0.31900 0.35150 0.91130 -0.21100
C 	C 	0.37160 0.27670 0.92633 0.14400
C 	C 	0.45860 0.76149 0.12905 -0.23700
C 	C 	0.49700 0.72570 0.19907 0.15600
C 	C 	0.44630 0.65050 0.21270 -0.22800
C 	C 	0.49030 0.60990 0.28687 0.48700
C 	C 	0.35760 0.61210 0.15790 0.14500
C 	C 	0.31900 0.64850 0.08870 -0.21100
C 	C 	0.37160 0.72330 0.07367 0.14400
C 	C 	0.95860 0.37095 0.73851 -0.23700
C 	C 	0.99700 0.30093 0.77430 0.15600
C 	C 	0.94630 0.28730 0.84950 -0.22800
C 	C 	0.99030 0.21313 0.89010 0.48700
C 	C 	0.85760 0.34210 0.88790 0.14500
C 	C 	0.81900 0.41130 0.85150 -0.21100
C 	C 	0.87160 0.42633 0.77670 0.14400
C 	C 	0.95860 0.62905 0.26149 -0.23700
C 	C 	0.99700 0.69907 0.22570 0.15600
C 	C 	0.94630 0.71270 0.15050 -0.22800
C 	C 	0.99030 0.78687 0.10990 0.48700
C 	C 	0.85760 0.65790 0.11210 0.14500
C 	C 	0.81900 0.58870 0.14850 -0.21100
C 	C 	0.87160 0.57367 0.22330 0.14400
C 	C 	0.04140 0.26149 0.37095 -0.23700
C 	C 	0.00300 0.22570 0.30093 0.15600
C 	C 	0.05370 0.15050 0.28730 -0.22800
C 	C 	0.00970 0.10990 0.21313 0.48700
C 	C 	0.14240 0.11210 0.34210 0.14500
C 	C 	0.18100 0.14850 0.41130 -0.21100
C 	C 	0.12840 0.22330 0.42633 0.14400
C 	C 	0.04140 0.73851 0.62905 -0.23700
C 	C 	0.00300 0.77430 0.69907 0.15600
C 	C 	0.05370 0.84950 0.71270 -0.22800
C 	C 	0.00970 0.89010 0.78687 0.48700
C 	C 	0.14240 0.88790 0.65790 0.14500
C 	C 	0.18100 0.85150 0.58870 -0.21100
C 	C 	0.12840 0.77670 0.57367 0.14400
S 	S 	0.47619 0.10829 0.14323 0.71400
S 	S 	0.47619 0.89171 0.85677 0.71400
S 	S 	0.52381 0.14323 0.89171 0.71400
S 	S 	0.52381 0.85677 0.10829 0.71400
S 	S 	0.02381 0.39171 0.64323 0.71400
S 	S 	0.02381 0.60829 0.35677 0.71400
S 	S 	0.97619 0.35677 0.39171 0.71400
S 	S 	0.97619 0.64323 0.60829 0.71400
O 	O 	0.35340 0.05071 0.15149 -0.52100
O 	O 	0.61240 0.07563 0.10369 -0.52900
O 	O 	0.41910 0.17954 0.10865 -0.35200
O 	O 	0.45700 0.34153 0.35072 -0.54100
O 	O 	0.53050 0.28935 0.46328 -0.53100
O 	O 	0.12140 0.07366 0.02580 -0.83000
O 	O 	0.35340 0.94929 0.84851 -0.52100
O 	O 	0.61240 0.92437 0.89631 -0.52900
O 	O 	0.41910 0.82046 0.89135 -0.35200
O 	O 	0.45700 0.65847 0.64928 -0.54100
O 	O 	0.53050 0.71065 0.53672 -0.53100
O 	O 	0.12140 0.92634 0.97420 -0.83000
O 	O 	0.64660 0.15149 0.94929 -0.52100
O 	O 	0.38760 0.10369 0.92437 -0.52900
O 	O 	0.58090 0.10865 0.82046 -0.35200
O 	O 	0.54300 0.35072 0.65847 -0.54100
O 	O 	0.46950 0.46328 0.71065 -0.53100
O 	O 	0.87860 0.02580 0.92634 -0.83000
O 	O 	0.64660 0.84851 0.05071 -0.52100
O 	O 	0.38760 0.89631 0.07563 -0.52900
O 	O 	0.58090 0.89135 0.17954 -0.35200
O 	O 	0.54300 0.64928 0.34153 -0.54100
O 	O 	0.46950 0.53672 0.28935 -0.53100
O 	O 	0.87860 0.97420 0.07366 -0.83000
O 	O 	0.14660 0.44929 0.65149 -0.52100
O 	O 	0.88760 0.42437 0.60369 -0.52900
O 	O 	0.08090 0.32046 0.60865 -0.35200
O 	O 	0.04300 0.15847 0.85072 -0.54100
O 	O 	0.96950 0.21065 0.96328 -0.53100
O 	O 	0.37860 0.42634 0.52580 -0.83100
O 	O 	0.14660 0.55071 0.34851 -0.52100
O 	O 	0.88760 0.57563 0.39631 -0.52900
O 	O 	0.08090 0.67954 0.39135 -0.35200
O 	O 	0.04300 0.84153 0.14928 -0.54100
O 	O 	0.96950 0.78935 0.03672 -0.53100
O 	O 	0.37860 0.57366 0.47420 -0.83100
O 	O 	0.85340 0.34851 0.44929 -0.52100
O 	O 	0.11240 0.39631 0.42437 -0.52900
O 	O 	0.91910 0.39135 0.32046 -0.35200
O 	O 	0.95700 0.14928 0.15847 -0.54100
O 	O 	0.03050 0.03672 0.21065 -0.53100
O 	O 	0.62140 0.47420 0.42634 -0.83100
O 	O 	0.85340 0.65149 0.55071 -0.52100
O 	O 	0.11240 0.60369 0.57563 -0.52900
O 	O 	0.91910 0.60865 0.67954 -0.35200
O 	O 	0.95700 0.85072 0.84153 -0.54100
O 	O 	0.03050 0.96328 0.78935 -0.53100
O 	O 	0.62140 0.52580 0.57366 -0.83100
