data_crystal

_cell_length_a 8.51060
_cell_length_b 17.17430
_cell_length_c 17.17430
_cell_angle_alpha 90.00000
_cell_angle_beta  90.00000
_cell_angle_gamma 90.00000

_symmetry_space_group_name_	'P 1'
_symmetry_space_group_name_H-M	'P 1'

loop_
_symmetry_equiv_pos_as_xyz
  x,y,z

loop_
_atom_site_label
_atom_site_type_symbol
_atom_site_fract_x
_atom_site_fract_y
_atom_site_fract_z
_atom_site_charge
Gd	Gd	0.84969 0.03687 0.88971 1.63800
Gd	Gd	0.84969 0.96313 0.11029 1.63800
Gd	Gd	0.15031 0.88971 0.96313 1.63800
Gd	Gd	0.15031 0.11029 0.03687 1.63800
Gd	Gd	0.65031 0.46313 0.38971 1.63800
Gd	Gd	0.65031 0.53687 0.61029 1.63800
Gd	Gd	0.34969 0.61029 0.46313 1.63800
Gd	Gd	0.34969 0.38971 0.53687 1.63800
H 	H 	0.55420 0.76380 0.75260 0.00900
H 	H 	0.32450 0.83330 0.56080 0.00200
H 	H 	0.25950 0.94880 0.62150 0.09300
H 	H 	0.35150 0.97480 0.74660 0.01000
H 	H 	0.79700 0.89100 0.96100 0.23400
H 	H 	0.55420 0.23620 0.24740 0.00900
H 	H 	0.32450 0.16670 0.43920 0.00200
H 	H 	0.25950 0.05120 0.37850 0.09300
H 	H 	0.35150 0.02520 0.25340 0.01000
H 	H 	0.79700 0.10900 0.03900 0.23400
H 	H 	0.44580 0.75260 0.23620 0.00900
H 	H 	0.67550 0.56080 0.16670 0.00200
H 	H 	0.74050 0.62150 0.05120 0.09300
H 	H 	0.64850 0.74660 0.02520 0.01000
H 	H 	0.20300 0.96100 0.10900 0.23400
H 	H 	0.44580 0.24740 0.76380 0.00900
H 	H 	0.67550 0.43920 0.83330 0.00200
H 	H 	0.74050 0.37850 0.94880 0.09300
H 	H 	0.64850 0.25340 0.97480 0.01000
H 	H 	0.20300 0.03900 0.89100 0.23400
H 	H 	0.94580 0.73620 0.25260 0.00900
H 	H 	0.17550 0.66670 0.06080 0.00200
H 	H 	0.24050 0.55120 0.12150 0.09300
H 	H 	0.14850 0.52520 0.24660 0.01000
H 	H 	0.70300 0.60900 0.46100 0.23400
H 	H 	0.94580 0.26380 0.74740 0.00900
H 	H 	0.17550 0.33330 0.93920 0.00200
H 	H 	0.24050 0.44880 0.87850 0.09300
H 	H 	0.14850 0.47480 0.75340 0.01000
H 	H 	0.70300 0.39100 0.53900 0.23400
H 	H 	0.05420 0.74740 0.73620 0.00900
H 	H 	0.82450 0.93920 0.66670 0.00200
H 	H 	0.75950 0.87850 0.55120 0.09300
H 	H 	0.85150 0.75340 0.52520 0.01000
H 	H 	0.29700 0.53900 0.60900 0.23400
H 	H 	0.05420 0.25260 0.26380 0.00900
H 	H 	0.82450 0.06080 0.33330 0.00200
H 	H 	0.75950 0.12150 0.44880 0.09300
H 	H 	0.85150 0.24660 0.47480 0.01000
H 	H 	0.29700 0.46100 0.39100 0.23400
C 	C 	0.45830 0.87140 0.76110 -0.19300
C 	C 	0.49620 0.80110 0.72580 0.11800
C 	C 	0.44650 0.78710 0.65010 -0.18500
C 	C 	0.48940 0.71280 0.61010 0.43600
C 	C 	0.35840 0.84270 0.61140 0.10500
C 	C 	0.32050 0.91220 0.64750 -0.16800
C 	C 	0.37340 0.92740 0.72270 0.10500
C 	C 	0.45830 0.12860 0.23890 -0.19300
C 	C 	0.49620 0.19890 0.27420 0.11800
C 	C 	0.44650 0.21290 0.34990 -0.18500
C 	C 	0.48940 0.28720 0.38990 0.43600
C 	C 	0.35840 0.15730 0.38860 0.10500
C 	C 	0.32050 0.08780 0.35250 -0.16800
C 	C 	0.37340 0.07260 0.27730 0.10500
C 	C 	0.54170 0.76110 0.12860 -0.19300
C 	C 	0.50380 0.72580 0.19890 0.11800
C 	C 	0.55350 0.65010 0.21290 -0.18500
C 	C 	0.51060 0.61010 0.28720 0.43600
C 	C 	0.64160 0.61140 0.15730 0.10500
C 	C 	0.67950 0.64750 0.08780 -0.16800
C 	C 	0.62660 0.72270 0.07260 0.10500
C 	C 	0.54170 0.23890 0.87140 -0.19300
C 	C 	0.50380 0.27420 0.80110 0.11800
C 	C 	0.55350 0.34990 0.78710 -0.18500
C 	C 	0.51060 0.38990 0.71280 0.43600
C 	C 	0.64160 0.38860 0.84270 0.10500
C 	C 	0.67950 0.35250 0.91220 -0.16800
C 	C 	0.62660 0.27730 0.92740 0.10500
C 	C 	0.04170 0.62860 0.26110 -0.19300
C 	C 	0.00380 0.69890 0.22580 0.11800
C 	C 	0.05350 0.71290 0.15010 -0.18500
C 	C 	0.01060 0.78720 0.11010 0.43600
C 	C 	0.14160 0.65730 0.11140 0.10500
C 	C 	0.17950 0.58780 0.14750 -0.16800
C 	C 	0.12660 0.57260 0.22270 0.10500
C 	C 	0.04170 0.37140 0.73890 -0.19300
C 	C 	0.00380 0.30110 0.77420 0.11800
C 	C 	0.05350 0.28710 0.84990 -0.18500
C 	C 	0.01060 0.21280 0.88990 0.43600
C 	C 	0.14160 0.34270 0.88860 0.10500
C 	C 	0.17950 0.41220 0.85250 -0.16800
C 	C 	0.12660 0.42740 0.77730 0.10500
C 	C 	0.95830 0.73890 0.62860 -0.19300
C 	C 	0.99620 0.77420 0.69890 0.11800
C 	C 	0.94650 0.84990 0.71290 -0.18500
C 	C 	0.98940 0.88990 0.78720 0.43600
C 	C 	0.85840 0.88860 0.65730 0.10500
C 	C 	0.82050 0.85250 0.58780 -0.16800
C 	C 	0.87340 0.77730 0.57260 0.10500
C 	C 	0.95830 0.26110 0.37140 -0.19300
C 	C 	0.99620 0.22580 0.30110 0.11800
C 	C 	0.94650 0.15010 0.28710 -0.18500
C 	C 	0.98940 0.11010 0.21280 0.43600
C 	C 	0.85840 0.11140 0.34270 0.10500
C 	C 	0.82050 0.14750 0.41220 -0.16800
C 	C 	0.87340 0.22270 0.42740 0.10500
S 	S 	0.52366 0.89177 0.85686 0.65100
S 	S 	0.52366 0.10823 0.14314 0.65100
S 	S 	0.47634 0.85686 0.10823 0.65100
S 	S 	0.47634 0.14314 0.89177 0.65100
S 	S 	0.97634 0.60823 0.35686 0.65100
S 	S 	0.97634 0.39177 0.64314 0.65100
S 	S 	0.02366 0.64314 0.60823 0.65100
S 	S 	0.02366 0.35686 0.39177 0.65100
O 	O 	0.64700 0.94954 0.84898 -0.45400
O 	O 	0.38650 0.92447 0.89637 -0.45900
O 	O 	0.58170 0.82028 0.89171 -0.32300
O 	O 	0.54290 0.65785 0.64919 -0.46800
O 	O 	0.46920 0.71013 0.53603 -0.45800
O 	O 	0.87810 0.92633 0.97401 -0.69300
O 	O 	0.64700 0.05046 0.15102 -0.45400
O 	O 	0.38650 0.07553 0.10363 -0.45900
O 	O 	0.58170 0.17972 0.10829 -0.32300
O 	O 	0.54290 0.34215 0.35081 -0.46800
O 	O 	0.46920 0.28987 0.46397 -0.45800
O 	O 	0.87810 0.07367 0.02599 -0.69300
O 	O 	0.35300 0.84898 0.05046 -0.45400
O 	O 	0.61350 0.89637 0.07553 -0.45900
O 	O 	0.41830 0.89171 0.17972 -0.32300
O 	O 	0.45710 0.64919 0.34215 -0.46800
O 	O 	0.53080 0.53603 0.28987 -0.45800
O 	O 	0.12190 0.97401 0.07367 -0.69300
O 	O 	0.35300 0.15102 0.94954 -0.45400
O 	O 	0.61350 0.10363 0.92447 -0.45900
O 	O 	0.41830 0.10829 0.82028 -0.32300
O 	O 	0.45710 0.35081 0.65785 -0.46800
O 	O 	0.53080 0.46397 0.71013 -0.45800
O 	O 	0.12190 0.02599 0.92633 -0.69300
O 	O 	0.85300 0.55046 0.34898 -0.45400
O 	O 	0.11350 0.57553 0.39637 -0.46000
O 	O 	0.91830 0.67972 0.39171 -0.32300
O 	O 	0.95710 0.84215 0.14919 -0.46800
O 	O 	0.03080 0.78987 0.03603 -0.45700
O 	O 	0.62190 0.57367 0.47401 -0.69300
O 	O 	0.85300 0.44954 0.65102 -0.45400
O 	O 	0.11350 0.42447 0.60363 -0.46000
O 	O 	0.91830 0.32028 0.60829 -0.32300
O 	O 	0.95710 0.15785 0.85081 -0.46800
O 	O 	0.03080 0.21013 0.96397 -0.45700
O 	O 	0.62190 0.42633 0.52599 -0.69300
O 	O 	0.14700 0.65102 0.55046 -0.45400
O 	O 	0.88650 0.60363 0.57553 -0.46000
O 	O 	0.08170 0.60829 0.67972 -0.32300
O 	O 	0.04290 0.85081 0.84215 -0.46800
O 	O 	0.96920 0.96397 0.78987 -0.45700
O 	O 	0.37810 0.52599 0.57367 -0.69300
O 	O 	0.14700 0.34898 0.44954 -0.45400
O 	O 	0.88650 0.39637 0.42447 -0.46000
O 	O 	0.08170 0.39171 0.32028 -0.32300
O 	O 	0.04290 0.14919 0.15785 -0.46800
O 	O 	0.96920 0.03603 0.21013 -0.45700
O 	O 	0.37810 0.47401 0.42633 -0.69300
