data_crystal

_cell_length_a 8.46720
_cell_length_b 17.12050
_cell_length_c 17.12050
_cell_angle_alpha 90.00000
_cell_angle_beta  90.00000
_cell_angle_gamma 90.00000

_symmetry_space_group_name_	'P 1'
_symmetry_space_group_name_H-M	'P 1'

loop_
_symmetry_equiv_pos_as_xyz
  x,y,z

loop_
_atom_site_label
_atom_site_type_symbol
_atom_site_fract_x
_atom_site_fract_y
_atom_site_fract_z
_atom_site_charge
Tb	Tb	0.14980 0.89018 0.96267 1.94200
Tb	Tb	0.14980 0.10982 0.03733 1.94200
Tb	Tb	0.85020 0.96267 0.10982 1.94200
Tb	Tb	0.85020 0.03733 0.89018 1.94200
Tb	Tb	0.35020 0.60982 0.46267 1.94200
Tb	Tb	0.35020 0.39018 0.53733 1.94200
Tb	Tb	0.64980 0.53733 0.60982 1.94200
Tb	Tb	0.64980 0.46267 0.39018 1.94200
H 	H 	0.05310 0.74870 0.73600 -0.00500
H 	H 	0.82790 0.94140 0.66490 -0.01300
H 	H 	0.76280 0.87980 0.54880 0.10600
H 	H 	0.85540 0.75660 0.52350 -0.00700
H 	H 	0.22000 0.96600 0.09600 0.23800
H 	H 	0.05310 0.25130 0.26400 -0.00500
H 	H 	0.82790 0.05860 0.33510 -0.01300
H 	H 	0.76280 0.12020 0.45120 0.10600
H 	H 	0.85540 0.24340 0.47650 -0.00700
H 	H 	0.22000 0.03400 0.90400 0.23800
H 	H 	0.94690 0.73600 0.25130 -0.00500
H 	H 	0.17210 0.66490 0.05860 -0.01300
H 	H 	0.23720 0.54880 0.12020 0.10600
H 	H 	0.14460 0.52350 0.24340 -0.00700
H 	H 	0.78000 0.09600 0.03400 0.23800
H 	H 	0.94690 0.26400 0.74870 -0.00500
H 	H 	0.17210 0.33510 0.94140 -0.01300
H 	H 	0.23720 0.45120 0.87980 0.10600
H 	H 	0.14460 0.47650 0.75660 -0.00700
H 	H 	0.78000 0.90400 0.96600 0.23800
H 	H 	0.44690 0.75130 0.23600 -0.00500
H 	H 	0.67210 0.55860 0.16490 -0.01300
H 	H 	0.73720 0.62020 0.04880 0.10600
H 	H 	0.64460 0.74340 0.02350 -0.00700
H 	H 	0.28000 0.53400 0.59600 0.23800
H 	H 	0.44690 0.24870 0.76400 -0.00500
H 	H 	0.67210 0.44140 0.83510 -0.01300
H 	H 	0.73720 0.37980 0.95120 0.10600
H 	H 	0.64460 0.25660 0.97650 -0.00700
H 	H 	0.28000 0.46600 0.40400 0.23800
H 	H 	0.55310 0.76400 0.75130 -0.00500
H 	H 	0.32790 0.83510 0.55860 -0.01300
H 	H 	0.26280 0.95120 0.62020 0.10600
H 	H 	0.35540 0.97650 0.74340 -0.00700
H 	H 	0.72000 0.40400 0.53400 0.23800
H 	H 	0.55310 0.23600 0.24870 -0.00500
H 	H 	0.32790 0.16490 0.44140 -0.01300
H 	H 	0.26280 0.04880 0.37980 0.10600
H 	H 	0.35540 0.02350 0.25660 -0.00700
H 	H 	0.72000 0.59600 0.46600 0.23800
C 	C 	0.96230 0.74120 0.62700 -0.22800
C 	C 	0.99790 0.77630 0.69800 0.15000
C 	C 	0.95070 0.85260 0.71180 -0.22100
C 	C 	0.99190 0.89210 0.78640 0.47500
C 	C 	0.86240 0.89060 0.65570 0.14100
C 	C 	0.82430 0.85400 0.58570 -0.21100
C 	C 	0.87700 0.78040 0.57110 0.14500
C 	C 	0.96230 0.25880 0.37300 -0.22800
C 	C 	0.99790 0.22370 0.30200 0.15000
C 	C 	0.95070 0.14740 0.28820 -0.22100
C 	C 	0.99190 0.10790 0.21360 0.47500
C 	C 	0.86240 0.10940 0.34430 0.14100
C 	C 	0.82430 0.14600 0.41430 -0.21100
C 	C 	0.87700 0.21960 0.42890 0.14500
C 	C 	0.03770 0.62700 0.25880 -0.22800
C 	C 	0.00210 0.69800 0.22370 0.15000
C 	C 	0.04930 0.71180 0.14740 -0.22100
C 	C 	0.00810 0.78640 0.10790 0.47500
C 	C 	0.13760 0.65570 0.10940 0.14100
C 	C 	0.17570 0.58570 0.14600 -0.21100
C 	C 	0.12300 0.57110 0.21960 0.14500
C 	C 	0.03770 0.37300 0.74120 -0.22800
C 	C 	0.00210 0.30200 0.77630 0.15000
C 	C 	0.04930 0.28820 0.85260 -0.22100
C 	C 	0.00810 0.21360 0.89210 0.47500
C 	C 	0.13760 0.34430 0.89060 0.14100
C 	C 	0.17570 0.41430 0.85400 -0.21100
C 	C 	0.12300 0.42890 0.78040 0.14500
C 	C 	0.53770 0.75880 0.12700 -0.22800
C 	C 	0.50210 0.72370 0.19800 0.15000
C 	C 	0.54930 0.64740 0.21180 -0.22100
C 	C 	0.50810 0.60790 0.28640 0.47500
C 	C 	0.63760 0.60940 0.15570 0.14100
C 	C 	0.67570 0.64600 0.08570 -0.21100
C 	C 	0.62300 0.71960 0.07110 0.14500
C 	C 	0.53770 0.24120 0.87300 -0.22800
C 	C 	0.50210 0.27630 0.80200 0.15000
C 	C 	0.54930 0.35260 0.78820 -0.22100
C 	C 	0.50810 0.39210 0.71360 0.47500
C 	C 	0.63760 0.39060 0.84430 0.14100
C 	C 	0.67570 0.35400 0.91430 -0.21100
C 	C 	0.62300 0.28040 0.92890 0.14500
C 	C 	0.46230 0.87300 0.75880 -0.22800
C 	C 	0.49790 0.80200 0.72370 0.15000
C 	C 	0.45070 0.78820 0.64740 -0.22100
C 	C 	0.49190 0.71360 0.60790 0.47500
C 	C 	0.36240 0.84430 0.60940 0.14100
C 	C 	0.32430 0.91430 0.64600 -0.21100
C 	C 	0.37700 0.92890 0.71960 0.14500
C 	C 	0.46230 0.12700 0.24120 -0.22800
C 	C 	0.49790 0.19800 0.27630 0.15000
C 	C 	0.45070 0.21180 0.35260 -0.22100
C 	C 	0.49190 0.28640 0.39210 0.47500
C 	C 	0.36240 0.15570 0.39060 0.14100
C 	C 	0.32430 0.08570 0.35400 -0.21100
C 	C 	0.37700 0.07110 0.28040 0.14500
S 	S 	0.02364 0.64386 0.60766 0.70200
S 	S 	0.02364 0.35614 0.39234 0.70200
S 	S 	0.97636 0.60766 0.35614 0.70200
S 	S 	0.97636 0.39234 0.64386 0.70200
S 	S 	0.47636 0.85614 0.10766 0.70200
S 	S 	0.47636 0.14386 0.89234 0.70200
S 	S 	0.52364 0.89234 0.85614 0.70200
S 	S 	0.52364 0.10766 0.14386 0.70200
O 	O 	0.14700 0.65090 0.54940 -0.51100
O 	O 	0.88430 0.60480 0.57530 -0.52500
O 	O 	0.08190 0.60960 0.67950 -0.34200
O 	O 	0.04380 0.85180 0.84130 -0.52100
O 	O 	0.96930 0.96610 0.78920 -0.51000
O 	O 	0.12080 0.97410 0.07250 -0.80600
O 	O 	0.14700 0.34910 0.45060 -0.51100
O 	O 	0.88430 0.39520 0.42470 -0.52500
O 	O 	0.08190 0.39040 0.32050 -0.34200
O 	O 	0.04380 0.14820 0.15870 -0.52100
O 	O 	0.96930 0.03390 0.21080 -0.51000
O 	O 	0.12080 0.02590 0.92750 -0.80600
O 	O 	0.85300 0.54940 0.34910 -0.51100
O 	O 	0.11570 0.57530 0.39520 -0.52500
O 	O 	0.91810 0.67950 0.39040 -0.34200
O 	O 	0.95620 0.84130 0.14820 -0.52100
O 	O 	0.03070 0.78920 0.03390 -0.51000
O 	O 	0.87920 0.07250 0.02590 -0.80600
O 	O 	0.85300 0.45060 0.65090 -0.51100
O 	O 	0.11570 0.42470 0.60480 -0.52500
O 	O 	0.91810 0.32050 0.60960 -0.34200
O 	O 	0.95620 0.15870 0.85180 -0.52100
O 	O 	0.03070 0.21080 0.96610 -0.51000
O 	O 	0.87920 0.92750 0.97410 -0.80600
O 	O 	0.35300 0.84910 0.04940 -0.51100
O 	O 	0.61570 0.89520 0.07530 -0.52400
O 	O 	0.41810 0.89040 0.17950 -0.34200
O 	O 	0.45620 0.64820 0.34130 -0.52000
O 	O 	0.53070 0.53390 0.28920 -0.51000
O 	O 	0.37920 0.52590 0.57250 -0.80600
O 	O 	0.35300 0.15090 0.95060 -0.51100
O 	O 	0.61570 0.10480 0.92470 -0.52400
O 	O 	0.41810 0.10960 0.82050 -0.34200
O 	O 	0.45620 0.35180 0.65870 -0.52000
O 	O 	0.53070 0.46610 0.71080 -0.51000
O 	O 	0.37920 0.47410 0.42750 -0.80600
O 	O 	0.64700 0.95060 0.84910 -0.51100
O 	O 	0.38430 0.92470 0.89520 -0.52400
O 	O 	0.58190 0.82050 0.89040 -0.34200
O 	O 	0.54380 0.65870 0.64820 -0.52000
O 	O 	0.46930 0.71080 0.53390 -0.51000
O 	O 	0.62080 0.42750 0.52590 -0.80600
O 	O 	0.64700 0.04940 0.15090 -0.51100
O 	O 	0.38430 0.07530 0.10480 -0.52400
O 	O 	0.58190 0.17950 0.10960 -0.34200
O 	O 	0.54380 0.34130 0.35180 -0.52000
O 	O 	0.46930 0.28920 0.46610 -0.51000
O 	O 	0.62080 0.57250 0.47410 -0.80600
