data_crystal

_cell_length_a 8.60300
_cell_length_b 15.47600
_cell_length_c 16.50400
_cell_angle_alpha 90.00000
_cell_angle_beta  96.87700
_cell_angle_gamma 90.00000

_symmetry_space_group_name_	'P 1'
_symmetry_space_group_name_H-M	'P 1'

loop_
_symmetry_equiv_pos_as_xyz
  x,y,z

loop_
_atom_site_label
_atom_site_type_symbol
_atom_site_fract_x
_atom_site_fract_y
_atom_site_fract_z
_atom_site_charge
Sc	Sc	0.63355 0.79805 0.16364 2.33100
Sc	Sc	0.49585 0.89323 0.52210 2.34500
Sc	Sc	0.02152 0.76914 0.29943 2.32700
P 	P 	0.22760 0.76200 0.13355 0.70600
P 	P 	0.76411 0.78366 0.97600 0.62200
P 	P 	0.81649 0.60698 0.19758 0.63700
P 	P 	0.66826 0.79002 0.37165 0.66500
O 	O 	0.37080 0.99391 0.45826 -0.72900
O 	O 	0.60350 0.86154 0.42101 -0.59000
O 	O 	0.81470 0.68918 0.98960 -0.63600
O 	O 	0.58800 0.79072 0.28426 -0.61900
O 	O 	0.66050 0.81028 0.04101 -0.59400
O 	O 	0.90750 0.57373 0.13045 -0.58600
O 	O 	0.15460 0.68584 0.08558 -0.61300
O 	O 	0.84620 0.79337 0.37542 -0.59400
O 	O 	0.86650 0.81877 0.20413 -0.84200
O 	O 	0.92460 0.64688 0.26745 -0.58600
O 	O 	0.66840 0.79455 0.89177 -0.56000
O 	O 	0.40250 0.76500 0.12961 -0.57900
O 	O 	0.90910 0.84227 0.98163 -0.30300
O 	O 	0.63540 0.69990 0.40934 -0.46600
H 	H 	0.54530 0.69870 0.42090 0.29600
O 	O 	0.68320 0.66644 0.16491 -0.57900
O 	O 	0.19300 0.76060 0.22181 -0.62500
O 	O 	0.16000 0.84756 0.09250 -0.50100
H 	H 	0.07550 0.83750 0.06560 0.30200
O 	O 	0.72980 0.52811 0.23276 -0.43200
H 	H 	0.79450 0.49560 0.25730 0.20900
Sc	Sc	0.86645 0.29805 0.33636 2.33000
Sc	Sc	0.00415 0.39323 0.97790 2.34300
Sc	Sc	0.47848 0.26914 0.20057 2.32700
P 	P 	0.27240 0.26200 0.36645 0.70600
P 	P 	0.73589 0.28366 0.52400 0.61800
P 	P 	0.68351 0.10698 0.30242 0.63700
P 	P 	0.83174 0.29002 0.12835 0.66500
O 	O 	0.12920 0.49391 0.04174 -0.72300
O 	O 	0.89650 0.36154 0.07899 -0.59300
O 	O 	0.68530 0.18918 0.51040 -0.64000
O 	O 	0.91200 0.29072 0.21574 -0.62100
O 	O 	0.83950 0.31028 0.45899 -0.58900
O 	O 	0.59250 0.07373 0.36955 -0.58400
O 	O 	0.34540 0.18584 0.41442 -0.61400
O 	O 	0.65380 0.29337 0.12458 -0.59400
O 	O 	0.63350 0.31877 0.29587 -0.84000
O 	O 	0.57540 0.14688 0.23255 -0.58600
O 	O 	0.83160 0.29455 0.60823 -0.56100
O 	O 	0.09750 0.26500 0.37039 -0.57700
O 	O 	0.59090 0.34227 0.51837 -0.30900
O 	O 	0.86460 0.19990 0.09066 -0.46700
H 	H 	0.95470 0.19870 0.07910 0.29300
O 	O 	0.81680 0.16644 0.33509 -0.58000
O 	O 	0.30700 0.26060 0.27819 -0.62400
O 	O 	0.34000 0.34756 0.40750 -0.50000
H 	H 	0.42450 0.33750 0.43440 0.30200
O 	O 	0.77020 0.02811 0.26724 -0.43200
H 	H 	0.70550 0.99560 0.24270 0.20800
Sc	Sc	0.36645 0.20195 0.83636 2.33000
Sc	Sc	0.50415 0.10677 0.47790 2.34400
Sc	Sc	0.97848 0.23086 0.70057 2.32700
P 	P 	0.77240 0.23800 0.86645 0.70600
P 	P 	0.23589 0.21634 0.02400 0.62200
P 	P 	0.18351 0.39302 0.80242 0.63700
P 	P 	0.33174 0.20998 0.62835 0.66500
O 	O 	0.62920 0.00609 0.54174 -0.72900
O 	O 	0.39650 0.13846 0.57899 -0.59000
O 	O 	0.18530 0.31082 0.01040 -0.63600
O 	O 	0.41200 0.20928 0.71574 -0.61900
O 	O 	0.33950 0.18972 0.95899 -0.59400
O 	O 	0.09250 0.42627 0.86955 -0.58600
O 	O 	0.84540 0.31416 0.91442 -0.61300
O 	O 	0.15380 0.20663 0.62458 -0.59400
O 	O 	0.13350 0.18123 0.79587 -0.84200
O 	O 	0.07540 0.35312 0.73255 -0.58600
O 	O 	0.33160 0.20545 0.10823 -0.56000
O 	O 	0.59750 0.23500 0.87039 -0.57900
O 	O 	0.09090 0.15773 0.01837 -0.30300
O 	O 	0.36460 0.30010 0.59066 -0.46600
H 	H 	0.45470 0.30130 0.57910 0.29600
O 	O 	0.31680 0.33356 0.83509 -0.57900
O 	O 	0.80700 0.23940 0.77819 -0.62500
O 	O 	0.84000 0.15244 0.90750 -0.50100
H 	H 	0.92450 0.16250 0.93440 0.30200
O 	O 	0.27020 0.47189 0.76724 -0.43200
H 	H 	0.20550 0.50440 0.74270 0.20900
Sc	Sc	0.13355 0.70195 0.66364 2.33000
Sc	Sc	0.99585 0.60677 0.02210 2.34300
Sc	Sc	0.52152 0.73086 0.79943 2.32700
P 	P 	0.72760 0.73800 0.63355 0.70600
P 	P 	0.26411 0.71634 0.47600 0.61800
P 	P 	0.31649 0.89302 0.69758 0.63700
P 	P 	0.16826 0.70998 0.87165 0.66500
O 	O 	0.87080 0.50609 0.95826 -0.72300
O 	O 	0.10350 0.63846 0.92101 -0.59300
O 	O 	0.31470 0.81082 0.48960 -0.64000
O 	O 	0.08800 0.70928 0.78426 -0.62100
O 	O 	0.16050 0.68972 0.54101 -0.58900
O 	O 	0.40750 0.92627 0.63045 -0.58400
O 	O 	0.65460 0.81416 0.58558 -0.61400
O 	O 	0.34620 0.70663 0.87542 -0.59400
O 	O 	0.36650 0.68123 0.70413 -0.84000
O 	O 	0.42460 0.85312 0.76745 -0.58600
O 	O 	0.16840 0.70545 0.39177 -0.56100
O 	O 	0.90250 0.73500 0.62961 -0.57700
O 	O 	0.40910 0.65773 0.48163 -0.30900
O 	O 	0.13540 0.80010 0.90934 -0.46700
H 	H 	0.04530 0.80130 0.92090 0.29300
O 	O 	0.18320 0.83356 0.66491 -0.58000
O 	O 	0.69300 0.73940 0.72181 -0.62400
O 	O 	0.66000 0.65244 0.59250 -0.50000
H 	H 	0.57550 0.66250 0.56560 0.30200
O 	O 	0.22980 0.97189 0.73276 -0.43200
H 	H 	0.29450 0.00440 0.75730 0.20800
