data_crystal

_cell_length_a 24.25000
_cell_length_b 24.25000
_cell_length_c 15.23200
_cell_angle_alpha 90.00000
_cell_angle_beta  90.00000
_cell_angle_gamma 90.00000

_symmetry_space_group_name_	'P 1'
_symmetry_space_group_name_H-M	'P 1'

loop_
_symmetry_equiv_pos_as_xyz
  x,y,z

loop_
_atom_site_label
_atom_site_type_symbol
_atom_site_fract_x
_atom_site_fract_y
_atom_site_fract_z
_atom_site_charge
O 	O 	0.44557 0.14750 0.08590 -0.67700
O 	O 	0.39751 0.08398 0.16110 -0.83900
C 	C 	0.40774 0.13222 0.13810 0.55100
C 	C 	0.37113 0.17636 0.17400 -0.17900
C 	C 	0.30153 0.26027 0.23060 0.01200
C 	C 	0.38320 0.23095 0.15380 -0.09100
H 	H 	0.41530 0.23960 0.12060 0.09000
C 	C 	0.32420 0.16373 0.22250 0.07800
H 	H 	0.31600 0.12640 0.23630 -0.06300
C 	C 	0.34840 0.27290 0.18210 -0.10100
C 	C 	0.28940 0.20568 0.25080 0.01800
H 	H 	0.25740 0.19700 0.28390 -0.02800
O 	O 	0.32970 0.36580 0.16160 -0.24300
O 	O 	0.41430 0.33950 0.14780 -0.05900
N 	N 	0.36520 0.33010 0.16250 0.06000
C 	C 	0.36846 0.22565 0.12760 0.08100
H 	H 	0.39040 0.23070 0.07660 0.01000
C 	C 	0.33900 0.16901 0.24870 -0.04500
H 	H 	0.34080 0.13530 0.28040 0.00300
C 	C 	0.33365 0.26760 0.15590 0.15300
C 	C 	0.30420 0.21096 0.27700 -0.10900
H 	H 	0.28220 0.20590 0.32800 0.04000
O 	O 	0.31280 0.36060 0.14030 0.17000
O 	O 	0.34950 0.31850 0.02950 -0.08500
N 	N 	0.33150 0.31960 0.10560 -0.05900
O 	O 	0.55443 0.85250 0.08590 -0.66200
O 	O 	0.60249 0.91602 0.16110 -0.70300
C 	C 	0.59226 0.86778 0.13810 0.53000
C 	C 	0.62887 0.82364 0.17400 -0.13000
C 	C 	0.69847 0.73973 0.23060 0.02200
C 	C 	0.61680 0.76905 0.15380 -0.05600
H 	H 	0.58470 0.76040 0.12060 0.08100
C 	C 	0.67580 0.83627 0.22250 0.04000
H 	H 	0.68400 0.87360 0.23630 0.01800
C 	C 	0.65160 0.72710 0.18210 -0.04200
C 	C 	0.71060 0.79432 0.25080 -0.00600
H 	H 	0.74260 0.80300 0.28390 0.03300
O 	O 	0.67030 0.63420 0.16160 -0.18800
O 	O 	0.58570 0.66050 0.14780 -0.05700
N 	N 	0.63480 0.66990 0.16250 0.04200
C 	C 	0.63154 0.77435 0.12760 0.04100
H 	H 	0.60960 0.76930 0.07660 0.02900
C 	C 	0.66100 0.83099 0.24870 -0.01700
H 	H 	0.65920 0.86470 0.28040 0.03900
C 	C 	0.66635 0.73240 0.15590 0.10600
C 	C 	0.69580 0.78904 0.27700 -0.06900
H 	H 	0.71780 0.79410 0.32800 0.05800
O 	O 	0.68720 0.63940 0.14030 0.12200
O 	O 	0.65050 0.68150 0.02950 -0.08000
N 	N 	0.66850 0.68040 0.10560 -0.04100
O 	O 	0.85250 0.44557 0.58590 -0.65700
O 	O 	0.91602 0.39751 0.66110 -0.71000
C 	C 	0.86778 0.40774 0.63810 0.52900
C 	C 	0.82364 0.37113 0.67400 -0.13100
C 	C 	0.73973 0.30153 0.73060 0.01500
C 	C 	0.76905 0.38320 0.65380 -0.07500
H 	H 	0.76040 0.41530 0.62060 0.08900
C 	C 	0.83627 0.32420 0.72250 0.05400
H 	H 	0.87360 0.31600 0.73630 -0.00200
C 	C 	0.72710 0.34840 0.68210 -0.06500
C 	C 	0.79432 0.28940 0.75080 0.01200
H 	H 	0.80300 0.25740 0.78390 0.00600
O 	O 	0.63420 0.32970 0.66160 -0.21600
O 	O 	0.66050 0.41430 0.64780 -0.05400
N 	N 	0.66990 0.36520 0.66250 0.05000
C 	C 	0.77435 0.36846 0.62760 0.05500
H 	H 	0.76930 0.39040 0.57660 0.02600
C 	C 	0.83099 0.33900 0.74870 -0.03700
H 	H 	0.86470 0.34080 0.78040 0.04200
C 	C 	0.73240 0.33365 0.65590 0.12900
C 	C 	0.78904 0.30420 0.77700 -0.08500
H 	H 	0.79410 0.28220 0.82800 0.05600
O 	O 	0.63940 0.31280 0.64030 0.14600
O 	O 	0.68150 0.34950 0.52950 -0.04600
N 	N 	0.68040 0.33150 0.60560 -0.05600
O 	O 	0.14750 0.55443 0.58590 -0.66900
O 	O 	0.08398 0.60249 0.66110 -0.82500
C 	C 	0.13222 0.59226 0.63810 0.55200
C 	C 	0.17636 0.62887 0.67400 -0.16900
C 	C 	0.26027 0.69847 0.73060 0.02200
C 	C 	0.23095 0.61680 0.65380 -0.06500
H 	H 	0.23960 0.58470 0.62060 0.08400
C 	C 	0.16373 0.67580 0.72250 0.06100
H 	H 	0.12640 0.68400 0.73630 -0.03800
C 	C 	0.27290 0.65160 0.68210 -0.06300
C 	C 	0.20568 0.71060 0.75080 -0.00200
H 	H 	0.19700 0.74260 0.78390 0.00400
O 	O 	0.36580 0.67030 0.66160 -0.17300
O 	O 	0.33950 0.58570 0.64780 -0.05400
N 	N 	0.33010 0.63480 0.66250 0.04200
C 	C 	0.22565 0.63154 0.62760 0.05700
H 	H 	0.23070 0.60960 0.57660 0.02400
C 	C 	0.16901 0.66100 0.74870 -0.02200
H 	H 	0.13530 0.65920 0.78040 0.00300
C 	C 	0.26760 0.66635 0.65590 0.12000
C 	C 	0.21096 0.69580 0.77700 -0.08900
H 	H 	0.20590 0.71780 0.82800 0.04600
O 	O 	0.36060 0.68720 0.64030 0.11200
O 	O 	0.31850 0.65050 0.52950 -0.04500
N 	N 	0.31960 0.66850 0.60560 -0.04800
O 	O 	0.55443 0.14750 0.91410 -0.66200
O 	O 	0.60249 0.08398 0.83890 -0.82200
C 	C 	0.59226 0.13222 0.86190 0.55100
C 	C 	0.62887 0.17636 0.82600 -0.16600
C 	C 	0.69847 0.26027 0.76940 0.02000
C 	C 	0.61680 0.23095 0.84620 -0.05800
H 	H 	0.58470 0.23960 0.87940 0.08100
C 	C 	0.67580 0.16373 0.77750 0.05300
H 	H 	0.68400 0.12640 0.76370 -0.03400
C 	C 	0.65160 0.27290 0.81790 -0.04900
C 	C 	0.71060 0.20568 0.74920 -0.00800
H 	H 	0.74260 0.19700 0.71610 0.00500
O 	O 	0.67030 0.36580 0.83840 -0.15400
O 	O 	0.58570 0.33950 0.85220 -0.05200
N 	N 	0.63480 0.33010 0.83750 0.03800
C 	C 	0.63154 0.22565 0.87240 0.04700
H 	H 	0.60960 0.23070 0.92340 0.03200
C 	C 	0.66100 0.16901 0.75130 -0.01600
H 	H 	0.65920 0.13530 0.71960 -0.00100
C 	C 	0.66635 0.26760 0.84410 0.11000
C 	C 	0.69580 0.21096 0.72300 -0.08200
H 	H 	0.71780 0.20590 0.67200 0.04100
O 	O 	0.68720 0.36060 0.85970 0.09700
O 	O 	0.65050 0.31850 0.97050 -0.00800
N 	N 	0.66850 0.31960 0.89440 -0.05000
O 	O 	0.44557 0.85250 0.91410 -0.65000
O 	O 	0.39751 0.91602 0.83890 -0.70800
C 	C 	0.40774 0.86778 0.86190 0.52800
C 	C 	0.37113 0.82364 0.82600 -0.12900
C 	C 	0.30153 0.73973 0.76940 0.01300
C 	C 	0.38320 0.76905 0.84620 -0.06800
H 	H 	0.41530 0.76040 0.87940 0.08700
C 	C 	0.32420 0.83627 0.77750 0.04800
H 	H 	0.31600 0.87360 0.76370 0.00000
C 	C 	0.34840 0.72710 0.81790 -0.05200
C 	C 	0.28940 0.79432 0.74920 0.00700
H 	H 	0.25740 0.80300 0.71610 0.00700
O 	O 	0.32970 0.63420 0.83840 -0.19500
O 	O 	0.41430 0.66050 0.85220 -0.05200
N 	N 	0.36520 0.66990 0.83750 0.04500
C 	C 	0.36846 0.77435 0.87240 0.04700
H 	H 	0.39040 0.76930 0.92340 0.03300
C 	C 	0.33900 0.83099 0.75130 -0.03100
H 	H 	0.34080 0.86470 0.71960 0.03800
C 	C 	0.33365 0.73240 0.84410 0.12000
C 	C 	0.30420 0.78904 0.72300 -0.07800
H 	H 	0.28220 0.79410 0.67200 0.05100
O 	O 	0.31280 0.63940 0.85970 0.13000
O 	O 	0.34950 0.68150 0.97050 -0.00900
N 	N 	0.33150 0.68040 0.89440 -0.05800
O 	O 	0.14750 0.44557 0.41410 -0.67100
O 	O 	0.08398 0.39751 0.33890 -0.83900
C 	C 	0.13222 0.40774 0.36190 0.55200
C 	C 	0.17636 0.37113 0.32600 -0.17600
C 	C 	0.26027 0.30153 0.26940 0.01200
C 	C 	0.23095 0.38320 0.34620 -0.08400
H 	H 	0.23960 0.41530 0.37940 0.09000
C 	C 	0.16373 0.32420 0.27750 0.07300
H 	H 	0.12640 0.31600 0.26370 -0.06100
C 	C 	0.27290 0.34840 0.31790 -0.08900
C 	C 	0.20568 0.28940 0.24920 0.01300
H 	H 	0.19700 0.25740 0.21610 -0.02700
O 	O 	0.36580 0.32970 0.33840 -0.22400
O 	O 	0.33950 0.41430 0.35220 -0.05600
N 	N 	0.33010 0.36520 0.33750 0.05600
C 	C 	0.22565 0.36846 0.37240 0.07300
H 	H 	0.23070 0.39040 0.42340 0.01600
C 	C 	0.16901 0.33900 0.25130 -0.04000
H 	H 	0.13530 0.34080 0.21960 -0.00000
C 	C 	0.26760 0.33365 0.34410 0.14500
C 	C 	0.21096 0.30420 0.22300 -0.10400
H 	H 	0.20590 0.28220 0.17200 0.03600
O 	O 	0.36060 0.31280 0.35970 0.15500
O 	O 	0.31850 0.34950 0.47050 -0.04900
N 	N 	0.31960 0.33150 0.39440 -0.06100
O 	O 	0.85250 0.55443 0.41410 -0.65600
O 	O 	0.91602 0.60249 0.33890 -0.70200
C 	C 	0.86778 0.59226 0.36190 0.52900
C 	C 	0.82364 0.62887 0.32600 -0.12700
C 	C 	0.73973 0.69847 0.26940 0.02000
C 	C 	0.76905 0.61680 0.34620 -0.04800
H 	H 	0.76040 0.58470 0.37940 0.07900
C 	C 	0.83627 0.67580 0.27750 0.03200
H 	H 	0.87360 0.68400 0.26370 0.02100
C 	C 	0.72710 0.65160 0.31790 -0.02700
C 	C 	0.79432 0.71060 0.24920 -0.01200
H 	H 	0.80300 0.74260 0.21610 0.03400
O 	O 	0.63420 0.67030 0.33840 -0.16600
O 	O 	0.66050 0.58570 0.35220 -0.05400
N 	N 	0.66990 0.63480 0.33750 0.03600
C 	C 	0.77435 0.63154 0.37240 0.03000
H 	H 	0.76930 0.60960 0.42340 0.03700
C 	C 	0.83099 0.66100 0.25130 -0.01100
H 	H 	0.86470 0.65920 0.21960 0.03400
C 	C 	0.73240 0.66635 0.34410 0.09500
C 	C 	0.78904 0.69580 0.22300 -0.06100
H 	H 	0.79410 0.71780 0.17200 0.05200
O 	O 	0.63940 0.68720 0.35970 0.10500
O 	O 	0.68150 0.65050 0.47050 -0.04200
N 	N 	0.68040 0.66850 0.39440 -0.04200
O 	O 	0.55443 0.85250 0.91410 -0.64800
O 	O 	0.60249 0.91602 0.83890 -0.69700
C 	C 	0.59226 0.86778 0.86190 0.52800
C 	C 	0.62887 0.82364 0.82600 -0.12400
C 	C 	0.69847 0.73973 0.76940 0.02100
C 	C 	0.61680 0.76905 0.84620 -0.04600
H 	H 	0.58470 0.76040 0.87940 0.07900
C 	C 	0.67580 0.83627 0.77750 0.03100
H 	H 	0.68400 0.87360 0.76370 0.02400
C 	C 	0.65160 0.72710 0.81790 -0.02100
C 	C 	0.71060 0.79432 0.74920 -0.01200
H 	H 	0.74260 0.80300 0.71610 0.03600
O 	O 	0.67030 0.63420 0.83840 -0.14700
O 	O 	0.58570 0.66050 0.85220 -0.05100
N 	N 	0.63480 0.66990 0.83750 0.03200
C 	C 	0.63154 0.77435 0.87240 0.02700
H 	H 	0.60960 0.76930 0.92340 0.04200
C 	C 	0.66100 0.83099 0.75130 -0.01000
H 	H 	0.65920 0.86470 0.71960 0.03700
C 	C 	0.66635 0.73240 0.84410 0.09100
C 	C 	0.69580 0.78904 0.72300 -0.06000
H 	H 	0.71780 0.79410 0.67200 0.05500
O 	O 	0.68720 0.63940 0.85970 0.09000
O 	O 	0.65050 0.68150 0.97050 -0.00500
N 	N 	0.66850 0.68040 0.89440 -0.04500
O 	O 	0.44557 0.14750 0.91410 -0.66300
O 	O 	0.39751 0.08398 0.83890 -0.83200
C 	C 	0.40774 0.13222 0.86190 0.55100
C 	C 	0.37113 0.17636 0.82600 -0.17200
C 	C 	0.30153 0.26027 0.76940 0.01200
C 	C 	0.38320 0.23095 0.84620 -0.08000
H 	H 	0.41530 0.23960 0.87940 0.08900
C 	C 	0.32420 0.16373 0.77750 0.07000
H 	H 	0.31600 0.12640 0.76370 -0.05700
C 	C 	0.34840 0.27290 0.81790 -0.08000
C 	C 	0.28940 0.20568 0.74920 0.01200
H 	H 	0.25740 0.19700 0.71610 -0.02400
O 	O 	0.32970 0.36580 0.83840 -0.20200
O 	O 	0.41430 0.33950 0.85220 -0.05300
N 	N 	0.36520 0.33010 0.83750 0.05100
C 	C 	0.36846 0.22565 0.87240 0.06700
H 	H 	0.39040 0.23070 0.92340 0.02300
C 	C 	0.33900 0.16901 0.75130 -0.03800
H 	H 	0.34080 0.13530 0.71960 0.00000
C 	C 	0.33365 0.26760 0.84410 0.13800
C 	C 	0.30420 0.21096 0.72300 -0.10000
H 	H 	0.28220 0.20590 0.67200 0.03700
O 	O 	0.31280 0.36060 0.85970 0.13800
O 	O 	0.34950 0.31850 0.97050 -0.01100
N 	N 	0.33150 0.31960 0.89440 -0.06300
O 	O 	0.14750 0.55443 0.41410 -0.67000
O 	O 	0.08398 0.60249 0.33890 -0.82800
C 	C 	0.13222 0.59226 0.36190 0.55200
C 	C 	0.17636 0.62887 0.32600 -0.17000
C 	C 	0.26027 0.69847 0.26940 0.01900
C 	C 	0.23095 0.61680 0.34620 -0.06200
H 	H 	0.23960 0.58470 0.37940 0.08200
C 	C 	0.16373 0.67580 0.27750 0.05600
H 	H 	0.12640 0.68400 0.26370 -0.03700
C 	C 	0.27290 0.65160 0.31790 -0.05700
C 	C 	0.20568 0.71060 0.24920 -0.00600
H 	H 	0.19700 0.74260 0.21610 0.00300
O 	O 	0.36580 0.67030 0.33840 -0.17400
O 	O 	0.33950 0.58570 0.35220 -0.05500
N 	N 	0.33010 0.63480 0.33750 0.04200
C 	C 	0.22565 0.63154 0.37240 0.05200
H 	H 	0.23070 0.60960 0.42340 0.02600
C 	C 	0.16901 0.66100 0.25130 -0.01800
H 	H 	0.13530 0.65920 0.21960 -0.00200
C 	C 	0.26760 0.66635 0.34410 0.11500
C 	C 	0.21096 0.69580 0.22300 -0.08500
H 	H 	0.20590 0.71780 0.17200 0.03900
O 	O 	0.36060 0.68720 0.35970 0.11300
O 	O 	0.31850 0.65050 0.47050 -0.04500
N 	N 	0.31960 0.66850 0.39440 -0.04800
O 	O 	0.85250 0.44557 0.41410 -0.65800
O 	O 	0.91602 0.39751 0.33890 -0.71300
C 	C 	0.86778 0.40774 0.36190 0.52800
C 	C 	0.82364 0.37113 0.32600 -0.13300
C 	C 	0.73973 0.30153 0.26940 0.01300
C 	C 	0.76905 0.38320 0.34620 -0.07100
H 	H 	0.76040 0.41530 0.37940 0.08700
C 	C 	0.83627 0.32420 0.27750 0.05000
H 	H 	0.87360 0.31600 0.26370 -0.00200
C 	C 	0.72710 0.34840 0.31790 -0.05900
C 	C 	0.79432 0.28940 0.24920 0.00700
H 	H 	0.80300 0.25740 0.21610 0.00500
O 	O 	0.63420 0.32970 0.33840 -0.21600
O 	O 	0.66050 0.41430 0.35220 -0.05500
N 	N 	0.66990 0.36520 0.33750 0.05000
C 	C 	0.77435 0.36846 0.37240 0.05100
H 	H 	0.76930 0.39040 0.42340 0.02700
C 	C 	0.83099 0.33900 0.25130 -0.03300
H 	H 	0.86470 0.34080 0.21960 0.03600
C 	C 	0.73240 0.33365 0.34410 0.12400
C 	C 	0.78904 0.30420 0.22300 -0.08000
H 	H 	0.79410 0.28220 0.17200 0.04900
O 	O 	0.63940 0.31280 0.35970 0.14700
O 	O 	0.68150 0.34950 0.47050 -0.04600
N 	N 	0.68040 0.33150 0.39440 -0.05600
O 	O 	0.44557 0.85250 0.08590 -0.66300
O 	O 	0.39751 0.91602 0.16110 -0.71400
C 	C 	0.40774 0.86778 0.13810 0.53000
C 	C 	0.37113 0.82364 0.17400 -0.13600
C 	C 	0.30153 0.73973 0.23060 0.01400
C 	C 	0.38320 0.76905 0.15380 -0.07800
H 	H 	0.41530 0.76040 0.12060 0.08900
C 	C 	0.32420 0.83627 0.22250 0.05700
H 	H 	0.31600 0.87360 0.23630 -0.00500
C 	C 	0.34840 0.72710 0.18210 -0.07300
C 	C 	0.28940 0.79432 0.25080 0.01300
H 	H 	0.25740 0.80300 0.28390 0.00300
O 	O 	0.32970 0.63420 0.16160 -0.23600
O 	O 	0.41430 0.66050 0.14780 -0.05800
N 	N 	0.36520 0.66990 0.16250 0.05500
C 	C 	0.36846 0.77435 0.12760 0.06100
H 	H 	0.39040 0.76930 0.07660 0.02000
C 	C 	0.33900 0.83099 0.24870 -0.03900
H 	H 	0.34080 0.86470 0.28040 0.04000
C 	C 	0.33365 0.73240 0.15590 0.13500
C 	C 	0.30420 0.78904 0.27700 -0.08700
H 	H 	0.28220 0.79410 0.32800 0.05400
O 	O 	0.31280 0.63940 0.14030 0.16200
O 	O 	0.34950 0.68150 0.02950 -0.08400
N 	N 	0.33150 0.68040 0.10560 -0.05400
O 	O 	0.55443 0.14750 0.08590 -0.67400
O 	O 	0.60249 0.08398 0.16110 -0.82800
C 	C 	0.59226 0.13222 0.13810 0.55300
C 	C 	0.62887 0.17636 0.17400 -0.17200
C 	C 	0.69847 0.26027 0.23060 0.02100
C 	C 	0.61680 0.23095 0.15380 -0.06800
H 	H 	0.58470 0.23960 0.12060 0.08400
C 	C 	0.67580 0.16373 0.22250 0.06200
H 	H 	0.68400 0.12640 0.23630 -0.04000
C 	C 	0.65160 0.27290 0.18210 -0.07000
C 	C 	0.71060 0.20568 0.25080 -0.00100
H 	H 	0.74260 0.19700 0.28390 0.00200
O 	O 	0.67030 0.36580 0.16160 -0.19500
O 	O 	0.58570 0.33950 0.14780 -0.05800
N 	N 	0.63480 0.33010 0.16250 0.04700
C 	C 	0.63154 0.22565 0.12760 0.06100
H 	H 	0.60960 0.23070 0.07660 0.01900
C 	C 	0.66100 0.16901 0.24870 -0.02300
H 	H 	0.65920 0.13530 0.28040 0.00200
C 	C 	0.66635 0.26760 0.15590 0.12400
C 	C 	0.69580 0.21096 0.27700 -0.09100
H 	H 	0.71780 0.20590 0.32800 0.04400
O 	O 	0.68720 0.36060 0.14030 0.12900
O 	O 	0.65050 0.31850 0.02950 -0.08200
N 	N 	0.66850 0.31960 0.10560 -0.04600
O 	O 	0.85250 0.55443 0.58590 -0.65600
O 	O 	0.91602 0.60249 0.66110 -0.69900
C 	C 	0.86778 0.59226 0.63810 0.52900
C 	C 	0.82364 0.62887 0.67400 -0.12600
C 	C 	0.73973 0.69847 0.73060 0.02300
C 	C 	0.76905 0.61680 0.65380 -0.05200
H 	H 	0.76040 0.58470 0.62060 0.08100
C 	C 	0.83627 0.67580 0.72250 0.03700
H 	H 	0.87360 0.68400 0.73630 0.02100
C 	C 	0.72710 0.65160 0.68210 -0.03200
C 	C 	0.79432 0.71060 0.75080 -0.00800
H 	H 	0.80300 0.74260 0.78390 0.03500
O 	O 	0.63420 0.67030 0.66160 -0.16600
O 	O 	0.66050 0.58570 0.64780 -0.05300
N 	N 	0.66990 0.63480 0.66250 0.03600
C 	C 	0.77435 0.63154 0.62760 0.03500
H 	H 	0.76930 0.60960 0.57660 0.03500
C 	C 	0.83099 0.66100 0.74870 -0.01500
H 	H 	0.86470 0.65920 0.78040 0.04000
C 	C 	0.73240 0.66635 0.65590 0.10000
C 	C 	0.78904 0.69580 0.77700 -0.06600
H 	H 	0.79410 0.71780 0.82800 0.05900
O 	O 	0.63940 0.68720 0.64030 0.10400
O 	O 	0.68150 0.65050 0.52950 -0.04200
N 	N 	0.68040 0.66850 0.60560 -0.04300
O 	O 	0.14750 0.44557 0.58590 -0.67100
O 	O 	0.08398 0.39751 0.66110 -0.83600
C 	C 	0.13222 0.40774 0.63810 0.55200
C 	C 	0.17636 0.37113 0.67400 -0.17500
C 	C 	0.26027 0.30153 0.73060 0.01400
C 	C 	0.23095 0.38320 0.65380 -0.08800
H 	H 	0.23960 0.41530 0.62060 0.09200
C 	C 	0.16373 0.32420 0.72250 0.07800
H 	H 	0.12640 0.31600 0.73630 -0.06100
C 	C 	0.27290 0.34840 0.68210 -0.09500
C 	C 	0.20568 0.28940 0.75080 0.01800
H 	H 	0.19700 0.25740 0.78390 -0.02600
O 	O 	0.36580 0.32970 0.66160 -0.22400
O 	O 	0.33950 0.41430 0.64780 -0.05500
N 	N 	0.33010 0.36520 0.66250 0.05600
C 	C 	0.22565 0.36846 0.62760 0.07700
H 	H 	0.23070 0.39040 0.57660 0.01500
C 	C 	0.16901 0.33900 0.74870 -0.04400
H 	H 	0.13530 0.34080 0.78040 0.00500
C 	C 	0.26760 0.33365 0.65590 0.15000
C 	C 	0.21096 0.30420 0.77700 -0.10800
H 	H 	0.20590 0.28220 0.82800 0.04300
O 	O 	0.36060 0.31280 0.64030 0.15400
O 	O 	0.31850 0.34950 0.52950 -0.04900
N 	N 	0.31960 0.33150 0.60560 -0.06200
Zr	Zr	0.50000 0.10037 -0.00000 3.21200
Zr	Zr	0.50000 0.89963 -0.00000 3.21100
Zr	Zr	0.89963 0.50000 0.50000 3.21300
Zr	Zr	0.10037 0.50000 0.50000 3.21400
Zr	Zr	0.42701 0.00000 0.11592 3.14500
Zr	Zr	0.57299 0.00000 0.11592 3.14700
Zr	Zr	0.00000 0.42701 0.61592 3.14500
Zr	Zr	-0.00000 0.57299 0.61592 3.14600
Zr	Zr	0.57299 -0.00000 0.88408 3.14800
Zr	Zr	0.42701 -0.00000 0.88408 3.14700
Zr	Zr	0.00000 0.42701 0.38408 3.14500
Zr	Zr	0.00000 0.57299 0.38408 3.14600
O 	O 	0.50000 0.04916 0.11700 -1.42100
O 	O 	0.50000 0.95084 0.11700 -1.24200
O 	O 	0.95084 0.50000 0.61700 -1.23800
O 	O 	0.04916 0.50000 0.61700 -1.42000
O 	O 	0.50000 0.04916 0.88300 -1.41300
O 	O 	0.50000 0.95084 0.88300 -1.23300
O 	O 	0.04916 0.50000 0.38300 -1.42200
O 	O 	0.95084 0.50000 0.38300 -1.24000
O 	O 	0.42630 0.04899 -0.00000 -1.43900
O 	O 	0.57370 0.95101 -0.00000 -1.25600
O 	O 	0.95101 0.42630 0.50000 -1.25000
O 	O 	0.04899 0.57370 0.50000 -1.42400
O 	O 	0.57370 0.04899 -0.00000 -1.43200
O 	O 	0.42630 0.95101 -0.00000 -1.26300
O 	O 	0.04899 0.42630 0.50000 -1.43200
O 	O 	0.95101 0.57370 0.50000 -1.24200
