data_crystal

_cell_length_a 24.26300
_cell_length_b 24.26300
_cell_length_c 14.61500
_cell_angle_alpha 90.00000
_cell_angle_beta  90.00000
_cell_angle_gamma 90.00000

_symmetry_space_group_name_	'P 1'
_symmetry_space_group_name_H-M	'P 1'

loop_
_symmetry_equiv_pos_as_xyz
  x,y,z

loop_
_atom_site_label
_atom_site_type_symbol
_atom_site_fract_x
_atom_site_fract_y
_atom_site_fract_z
_atom_site_charge
O 	O 	0.08170 0.39750 0.16310 -0.83200
O 	O 	0.14770 0.44700 0.08930 -0.68600
C 	C 	0.13080 0.40800 0.13840 0.60800
C 	C 	0.17370 0.36846 0.17250 -0.31000
C 	C 	0.25319 0.29520 0.23570 0.37800
C 	C 	0.22860 0.37550 0.14780 0.17600
H 	H 	0.23890 0.40530 0.10940 0.01000
C 	C 	0.26833 0.33890 0.17950 -0.21900
H 	H 	0.30580 0.34370 0.16260 1.27900
C 	C 	0.15855 0.32480 0.22870 0.13700
H 	H 	0.12100 0.32000 0.24560 -0.05500
C 	C 	0.19830 0.28820 0.26030 -0.43900
O 	O 	0.18240 0.24150 0.32040 -1.45600
C 	C 	0.12390 0.23170 0.33800 0.91700
H 	H 	0.11990 0.19970 0.37890 -0.20400
H 	H 	0.10470 0.22450 0.28060 -0.23200
H 	H 	0.10780 0.26420 0.36780 -0.27000
C 	C 	0.22720 0.37120 0.13880 0.13900
H 	H 	0.23660 0.39800 0.09410 -0.03700
C 	C 	0.26690 0.33460 0.17030 -0.42900
C 	C 	0.15990 0.32920 0.23780 0.17400
H 	H 	0.12340 0.32730 0.26090 -0.02000
C 	C 	0.19970 0.29250 0.26940 -0.22200
H 	H 	0.19030 0.26570 0.31410 1.34200
O 	O 	0.32370 0.33730 0.13470 -1.38200
C 	C 	0.34190 0.39010 0.09600 0.59200
H 	H 	0.38050 0.38720 0.07720 -0.08100
H 	H 	0.33820 0.41910 0.14250 -0.14100
H 	H 	0.31900 0.39930 0.04300 -0.10400
O 	O 	0.91830 0.60250 0.16310 -0.70700
O 	O 	0.85230 0.55300 0.08930 -0.67300
C 	C 	0.86920 0.59200 0.13840 0.58200
C 	C 	0.82630 0.63154 0.17250 -0.26000
C 	C 	0.74681 0.70480 0.23570 0.34700
C 	C 	0.77140 0.62450 0.14780 0.16500
H 	H 	0.76110 0.59470 0.10940 0.01200
C 	C 	0.73167 0.66110 0.17950 -0.20600
H 	H 	0.69420 0.65630 0.16260 1.24700
C 	C 	0.84145 0.67520 0.22870 0.11800
H 	H 	0.87900 0.68000 0.24560 -0.03000
C 	C 	0.80170 0.71180 0.26030 -0.36500
O 	O 	0.81760 0.75850 0.32040 -1.17500
C 	C 	0.87610 0.76830 0.33800 0.52400
H 	H 	0.88010 0.80030 0.37890 -0.00500
H 	H 	0.89530 0.77550 0.28060 -0.02900
H 	H 	0.89220 0.73580 0.36780 -0.08500
C 	C 	0.77280 0.62880 0.13880 0.12900
H 	H 	0.76340 0.60200 0.09410 -0.03300
C 	C 	0.73310 0.66540 0.17030 -0.41000
C 	C 	0.84010 0.67080 0.23780 0.15400
H 	H 	0.87660 0.67270 0.26090 0.01200
C 	C 	0.80030 0.70750 0.26940 -0.18200
H 	H 	0.80970 0.73430 0.31410 1.12600
O 	O 	0.67630 0.66270 0.13470 -1.34600
C 	C 	0.65810 0.60990 0.09600 0.56900
H 	H 	0.61950 0.61280 0.07720 -0.07400
H 	H 	0.66180 0.58090 0.14250 -0.13300
H 	H 	0.68100 0.60070 0.04300 -0.09900
O 	O 	0.60250 0.08170 0.66310 -0.82600
O 	O 	0.55300 0.14770 0.58930 -0.68000
C 	C 	0.59200 0.13080 0.63840 0.60500
C 	C 	0.63154 0.17370 0.67250 -0.29900
C 	C 	0.70480 0.25319 0.73570 0.37200
C 	C 	0.62450 0.22860 0.64780 0.17200
H 	H 	0.59470 0.23890 0.60940 0.01500
C 	C 	0.66110 0.26833 0.67950 -0.21100
H 	H 	0.65630 0.30580 0.66260 1.23900
C 	C 	0.67520 0.15855 0.72870 0.13100
H 	H 	0.68000 0.12100 0.74560 -0.05200
C 	C 	0.71180 0.19830 0.76030 -0.41600
O 	O 	0.75850 0.18240 0.82040 -1.35700
C 	C 	0.76830 0.12390 0.83800 0.79400
H 	H 	0.80030 0.11990 0.87890 -0.13200
H 	H 	0.77550 0.10470 0.78060 -0.17400
H 	H 	0.73580 0.10780 0.86780 -0.22300
C 	C 	0.62880 0.22720 0.63880 0.13300
H 	H 	0.60200 0.23660 0.59410 -0.03700
C 	C 	0.66540 0.26690 0.67030 -0.41500
C 	C 	0.67080 0.15990 0.73780 0.16800
H 	H 	0.67270 0.12340 0.76090 -0.01500
C 	C 	0.70750 0.19970 0.76940 -0.21100
H 	H 	0.73430 0.19030 0.81410 1.26800
O 	O 	0.66270 0.32370 0.63470 -1.33000
C 	C 	0.60990 0.34190 0.59600 0.54200
H 	H 	0.61280 0.38050 0.57720 -0.05900
H 	H 	0.58090 0.33820 0.64250 -0.12400
H 	H 	0.60070 0.31900 0.54300 -0.07800
O 	O 	0.39750 0.91830 0.66310 -0.70700
O 	O 	0.44700 0.85230 0.58930 -0.66800
C 	C 	0.40800 0.86920 0.63840 0.58200
C 	C 	0.36846 0.82630 0.67250 -0.25900
C 	C 	0.29520 0.74681 0.73570 0.34500
C 	C 	0.37550 0.77140 0.64780 0.16600
H 	H 	0.40530 0.76110 0.60940 0.01700
C 	C 	0.33890 0.73167 0.67950 -0.20300
H 	H 	0.34370 0.69420 0.66260 1.23400
C 	C 	0.32480 0.84145 0.72870 0.12200
H 	H 	0.32000 0.87900 0.74560 -0.02900
C 	C 	0.28820 0.80170 0.76030 -0.37800
O 	O 	0.24150 0.81760 0.82040 -1.24100
C 	C 	0.23170 0.87610 0.83800 0.60900
H 	H 	0.19970 0.88010 0.87890 -0.05800
H 	H 	0.22450 0.89530 0.78060 -0.07100
H 	H 	0.26420 0.89220 0.86780 -0.11400
C 	C 	0.37120 0.77280 0.63880 0.12800
H 	H 	0.39800 0.76340 0.59410 -0.03300
C 	C 	0.33460 0.73310 0.67030 -0.40600
C 	C 	0.32920 0.84010 0.73780 0.15700
H 	H 	0.32730 0.87660 0.76090 0.00900
C 	C 	0.29250 0.80030 0.76940 -0.18700
H 	H 	0.26570 0.80970 0.81410 1.17600
O 	O 	0.33730 0.67630 0.63470 -1.33100
C 	C 	0.39010 0.65810 0.59600 0.54200
H 	H 	0.38720 0.61950 0.57720 -0.06100
H 	H 	0.41910 0.66180 0.64250 -0.12300
H 	H 	0.39930 0.68100 0.54300 -0.07800
O 	O 	0.91830 0.39750 0.83690 -0.70400
O 	O 	0.85230 0.44700 0.91070 -0.66000
C 	C 	0.86920 0.40800 0.86160 0.58200
C 	C 	0.82630 0.36846 0.82750 -0.25600
C 	C 	0.74681 0.29520 0.76430 0.33900
C 	C 	0.77140 0.37550 0.85220 0.16500
H 	H 	0.76110 0.40530 0.89060 0.02200
C 	C 	0.73167 0.33890 0.82050 -0.19700
H 	H 	0.69420 0.34370 0.83740 1.20800
C 	C 	0.84145 0.32480 0.77130 0.11900
H 	H 	0.87900 0.32000 0.75440 -0.03100
C 	C 	0.80170 0.28820 0.73970 -0.37900
O 	O 	0.81760 0.24150 0.67960 -1.24700
C 	C 	0.87610 0.23170 0.66200 0.61800
H 	H 	0.88010 0.19970 0.62110 -0.06400
H 	H 	0.89530 0.22450 0.71940 -0.07300
H 	H 	0.89220 0.26420 0.63220 -0.12000
C 	C 	0.77280 0.37120 0.86120 0.12400
H 	H 	0.76340 0.39800 0.90590 -0.03400
C 	C 	0.73310 0.33460 0.82970 -0.39800
C 	C 	0.84010 0.32920 0.76220 0.15800
H 	H 	0.87660 0.32730 0.73910 0.01200
C 	C 	0.80030 0.29250 0.73060 -0.18600
H 	H 	0.80970 0.26570 0.68590 1.17800
O 	O 	0.67630 0.33730 0.86530 -1.29800
C 	C 	0.65810 0.39010 0.90400 0.50600
H 	H 	0.61950 0.38720 0.92280 -0.04500
H 	H 	0.66180 0.41910 0.85750 -0.11100
H 	H 	0.68100 0.39930 0.95700 -0.05600
O 	O 	0.08170 0.60250 0.83690 -0.82200
O 	O 	0.14770 0.55300 0.91070 -0.67200
C 	C 	0.13080 0.59200 0.86160 0.60400
C 	C 	0.17370 0.63154 0.82750 -0.29500
C 	C 	0.25319 0.70480 0.76430 0.36600
C 	C 	0.22860 0.62450 0.85220 0.17200
H 	H 	0.23890 0.59470 0.89060 0.02100
C 	C 	0.26833 0.66110 0.82050 -0.20400
H 	H 	0.30580 0.65630 0.83740 1.21400
C 	C 	0.15855 0.67520 0.77130 0.12900
H 	H 	0.12100 0.68000 0.75440 -0.05500
C 	C 	0.19830 0.71180 0.73970 -0.41600
O 	O 	0.18240 0.75850 0.67960 -1.36200
C 	C 	0.12390 0.76830 0.66200 0.80100
H 	H 	0.11990 0.80030 0.62110 -0.13700
H 	H 	0.10470 0.77550 0.71940 -0.17500
H 	H 	0.10780 0.73580 0.63220 -0.22800
C 	C 	0.22720 0.62880 0.86120 0.13000
H 	H 	0.23660 0.60200 0.90590 -0.03800
C 	C 	0.26690 0.66540 0.82970 -0.40700
C 	C 	0.15990 0.67080 0.76220 0.16900
H 	H 	0.12340 0.67270 0.73910 -0.01200
C 	C 	0.19970 0.70750 0.73060 -0.20900
H 	H 	0.19030 0.73430 0.68590 1.26900
O 	O 	0.32370 0.66270 0.86530 -1.29800
C 	C 	0.34190 0.60990 0.90400 0.50600
H 	H 	0.38050 0.61280 0.92280 -0.04300
H 	H 	0.33820 0.58090 0.85750 -0.11200
H 	H 	0.31900 0.60070 0.95700 -0.05600
O 	O 	0.39750 0.08170 0.33690 -0.83100
O 	O 	0.44700 0.14770 0.41070 -0.68100
C 	C 	0.40800 0.13080 0.36160 0.60700
C 	C 	0.36846 0.17370 0.32750 -0.30700
C 	C 	0.29520 0.25319 0.26430 0.37200
C 	C 	0.37550 0.22860 0.35220 0.17500
H 	H 	0.40530 0.23890 0.39060 0.01500
C 	C 	0.33890 0.26833 0.32050 -0.21400
H 	H 	0.34370 0.30580 0.33740 1.25500
C 	C 	0.32480 0.15855 0.27130 0.13500
H 	H 	0.32000 0.12100 0.25440 -0.05700
C 	C 	0.28820 0.19830 0.23970 -0.43900
O 	O 	0.24150 0.18240 0.17960 -1.46000
C 	C 	0.23170 0.12390 0.16200 0.92300
H 	H 	0.19970 0.11990 0.12110 -0.20900
H 	H 	0.22450 0.10470 0.21940 -0.23300
H 	H 	0.26420 0.10780 0.13220 -0.27500
C 	C 	0.37120 0.22720 0.36120 0.13500
H 	H 	0.39800 0.23660 0.40590 -0.03800
C 	C 	0.33460 0.26690 0.32970 -0.42100
C 	C 	0.32920 0.15990 0.26220 0.17400
H 	H 	0.32730 0.12340 0.23910 -0.01800
C 	C 	0.29250 0.19970 0.23060 -0.22100
H 	H 	0.26570 0.19030 0.18590 1.34400
O 	O 	0.33730 0.32370 0.36530 -1.35100
C 	C 	0.39010 0.34190 0.40400 0.55600
H 	H 	0.38720 0.38050 0.42280 -0.06500
H 	H 	0.41910 0.33820 0.35750 -0.13000
H 	H 	0.39930 0.31900 0.45700 -0.08200
O 	O 	0.60250 0.91830 0.33690 -0.70600
O 	O 	0.55300 0.85230 0.41070 -0.66800
C 	C 	0.59200 0.86920 0.36160 0.58100
C 	C 	0.63154 0.82630 0.32750 -0.25600
C 	C 	0.70480 0.74681 0.26430 0.34100
C 	C 	0.62450 0.77140 0.35220 0.16400
H 	H 	0.59470 0.76110 0.39060 0.01800
C 	C 	0.66110 0.73167 0.32050 -0.19900
H 	H 	0.65630 0.69420 0.33740 1.21900
C 	C 	0.67520 0.84145 0.27130 0.11500
H 	H 	0.68000 0.87900 0.25440 -0.03300
C 	C 	0.71180 0.80170 0.23970 -0.36600
O 	O 	0.75850 0.81760 0.17960 -1.18300
C 	C 	0.76830 0.87610 0.16200 0.53400
H 	H 	0.80030 0.88010 0.12110 -0.01300
H 	H 	0.77550 0.89530 0.21940 -0.03100
H 	H 	0.73580 0.89220 0.13220 -0.09300
C 	C 	0.62880 0.77280 0.36120 0.12400
H 	H 	0.60200 0.76340 0.40590 -0.03400
C 	C 	0.66540 0.73310 0.32970 -0.40200
C 	C 	0.67080 0.84010 0.26220 0.15500
H 	H 	0.67270 0.87660 0.23910 0.01600
C 	C 	0.70750 0.80030 0.23060 -0.18000
H 	H 	0.73430 0.80970 0.18590 1.12900
O 	O 	0.66270 0.67630 0.36530 -1.31100
C 	C 	0.60990 0.65810 0.40400 0.53100
H 	H 	0.61280 0.61950 0.42280 -0.05700
H 	H 	0.58090 0.66180 0.35750 -0.12000
H 	H 	0.60070 0.68100 0.45700 -0.07600
O 	O 	0.91830 0.60250 0.83690 -0.70100
O 	O 	0.85230 0.55300 0.91070 -0.66000
C 	C 	0.86920 0.59200 0.86160 0.58000
C 	C 	0.82630 0.63154 0.82750 -0.25000
C 	C 	0.74681 0.70480 0.76430 0.33700
C 	C 	0.77140 0.62450 0.85220 0.16300
H 	H 	0.76110 0.59470 0.89060 0.02300
C 	C 	0.73167 0.66110 0.82050 -0.19400
H 	H 	0.69420 0.65630 0.83740 1.19500
C 	C 	0.84145 0.67520 0.77130 0.11400
H 	H 	0.87900 0.68000 0.75440 -0.03100
C 	C 	0.80170 0.71180 0.73970 -0.36100
O 	O 	0.81760 0.75850 0.67960 -1.16400
C 	C 	0.87610 0.76830 0.66200 0.51300
H 	H 	0.88010 0.80030 0.62110 -0.00100
H 	H 	0.89530 0.77550 0.71940 -0.02300
H 	H 	0.89220 0.73580 0.63220 -0.08200
C 	C 	0.77280 0.62880 0.86120 0.12200
H 	H 	0.76340 0.60200 0.90590 -0.03400
C 	C 	0.73310 0.66540 0.82970 -0.39300
C 	C 	0.84010 0.67080 0.76220 0.15300
H 	H 	0.87660 0.67270 0.73910 0.01600
C 	C 	0.80030 0.70750 0.73060 -0.17700
H 	H 	0.80970 0.73430 0.68590 1.11500
O 	O 	0.67630 0.66270 0.86530 -1.28000
C 	C 	0.65810 0.60990 0.90400 0.49400
H 	H 	0.61950 0.61280 0.92280 -0.04000
H 	H 	0.66180 0.58090 0.85750 -0.10700
H 	H 	0.68100 0.60070 0.95700 -0.05300
O 	O 	0.08170 0.39750 0.83690 -0.82500
O 	O 	0.14770 0.44700 0.91070 -0.67200
C 	C 	0.13080 0.40800 0.86160 0.60600
C 	C 	0.17370 0.36846 0.82750 -0.30100
C 	C 	0.25319 0.29520 0.76430 0.36700
C 	C 	0.22860 0.37550 0.85220 0.17400
H 	H 	0.23890 0.40530 0.89060 0.02000
C 	C 	0.26833 0.33890 0.82050 -0.20700
H 	H 	0.30580 0.34370 0.83740 1.22800
C 	C 	0.15855 0.32480 0.77130 0.13400
H 	H 	0.12100 0.32000 0.75440 -0.05600
C 	C 	0.19830 0.28820 0.73970 -0.43400
O 	O 	0.18240 0.24150 0.67960 -1.44500
C 	C 	0.12390 0.23170 0.66200 0.90600
H 	H 	0.11990 0.19970 0.62110 -0.20000
H 	H 	0.10470 0.22450 0.71940 -0.22600
H 	H 	0.10780 0.26420 0.63220 -0.26700
C 	C 	0.22720 0.37120 0.86120 0.13200
H 	H 	0.23660 0.39800 0.90590 -0.03900
C 	C 	0.26690 0.33460 0.82970 -0.41200
C 	C 	0.15990 0.32920 0.76220 0.17300
H 	H 	0.12340 0.32730 0.73910 -0.01600
C 	C 	0.19970 0.29250 0.73060 -0.21800
H 	H 	0.19030 0.26570 0.68590 1.33200
O 	O 	0.32370 0.33730 0.86530 -1.31600
C 	C 	0.34190 0.39010 0.90400 0.51700
H 	H 	0.38050 0.38720 0.92280 -0.04800
H 	H 	0.33820 0.41910 0.85750 -0.11600
H 	H 	0.31900 0.39930 0.95700 -0.05900
O 	O 	0.39750 0.91830 0.33690 -0.71000
O 	O 	0.44700 0.85230 0.41070 -0.66900
C 	C 	0.40800 0.86920 0.36160 0.58200
C 	C 	0.36846 0.82630 0.32750 -0.26200
C 	C 	0.29520 0.74681 0.26430 0.34300
C 	C 	0.37550 0.77140 0.35220 0.16600
H 	H 	0.40530 0.76110 0.39060 0.01700
C 	C 	0.33890 0.73167 0.32050 -0.20300
H 	H 	0.34370 0.69420 0.33740 1.23400
C 	C 	0.32480 0.84145 0.27130 0.12100
H 	H 	0.32000 0.87900 0.25440 -0.03300
C 	C 	0.28820 0.80170 0.23970 -0.38400
O 	O 	0.24150 0.81760 0.17960 -1.26300
C 	C 	0.23170 0.87610 0.16200 0.63600
H 	H 	0.19970 0.88010 0.12110 -0.07400
H 	H 	0.22450 0.89530 0.21940 -0.08100
H 	H 	0.26420 0.89220 0.13220 -0.12900
C 	C 	0.37120 0.77280 0.36120 0.12700
H 	H 	0.39800 0.76340 0.40590 -0.03400
C 	C 	0.33460 0.73310 0.32970 -0.40700
C 	C 	0.32920 0.84010 0.26220 0.15900
H 	H 	0.32730 0.87660 0.23910 0.01100
C 	C 	0.29250 0.80030 0.23060 -0.18900
H 	H 	0.26570 0.80970 0.18590 1.19000
O 	O 	0.33730 0.67630 0.36530 -1.33200
C 	C 	0.39010 0.65810 0.40400 0.54400
H 	H 	0.38720 0.61950 0.42280 -0.06200
H 	H 	0.41910 0.66180 0.35750 -0.12400
H 	H 	0.39930 0.68100 0.45700 -0.07900
O 	O 	0.60250 0.08170 0.33690 -0.82800
O 	O 	0.55300 0.14770 0.41070 -0.68100
C 	C 	0.59200 0.13080 0.36160 0.60500
C 	C 	0.63154 0.17370 0.32750 -0.30100
C 	C 	0.70480 0.25319 0.26430 0.37000
C 	C 	0.62450 0.22860 0.35220 0.17300
H 	H 	0.59470 0.23890 0.39060 0.01600
C 	C 	0.66110 0.26833 0.32050 -0.21000
H 	H 	0.65630 0.30580 0.33740 1.23900
C 	C 	0.67520 0.15855 0.27130 0.13000
H 	H 	0.68000 0.12100 0.25440 -0.05600
C 	C 	0.71180 0.19830 0.23970 -0.42200
O 	O 	0.75850 0.18240 0.17960 -1.38000
C 	C 	0.76830 0.12390 0.16200 0.82100
H 	H 	0.80030 0.11990 0.12110 -0.14800
H 	H 	0.77550 0.10470 0.21940 -0.18300
H 	H 	0.73580 0.10780 0.13220 -0.23900
C 	C 	0.62880 0.22720 0.36120 0.13300
H 	H 	0.60200 0.23660 0.40590 -0.03800
C 	C 	0.66540 0.26690 0.32970 -0.41600
C 	C 	0.67080 0.15990 0.26220 0.17000
H 	H 	0.67270 0.12340 0.23910 -0.01300
C 	C 	0.70750 0.19970 0.23060 -0.21200
H 	H 	0.73430 0.19030 0.18590 1.28300
O 	O 	0.66270 0.32370 0.36530 -1.33000
C 	C 	0.60990 0.34190 0.40400 0.54300
H 	H 	0.61280 0.38050 0.42280 -0.06000
H 	H 	0.58090 0.33820 0.35750 -0.12600
H 	H 	0.60070 0.31900 0.45700 -0.07900
O 	O 	0.08170 0.60250 0.16310 -0.82800
O 	O 	0.14770 0.55300 0.08930 -0.68500
C 	C 	0.13080 0.59200 0.13840 0.60600
C 	C 	0.17370 0.63154 0.17250 -0.30500
C 	C 	0.25319 0.70480 0.23570 0.37600
C 	C 	0.22860 0.62450 0.14780 0.17400
H 	H 	0.23890 0.59470 0.10940 0.01000
C 	C 	0.26833 0.66110 0.17950 -0.21600
H 	H 	0.30580 0.65630 0.16260 1.26500
C 	C 	0.15855 0.67520 0.22870 0.13200
H 	H 	0.12100 0.68000 0.24560 -0.05400
C 	C 	0.19830 0.71180 0.26030 -0.42100
O 	O 	0.18240 0.75850 0.32040 -1.37300
C 	C 	0.12390 0.76830 0.33800 0.81200
H 	H 	0.11990 0.80030 0.37890 -0.14100
H 	H 	0.10470 0.77550 0.28060 -0.18100
H 	H 	0.10780 0.73580 0.36780 -0.23200
C 	C 	0.22720 0.62880 0.13880 0.13600
H 	H 	0.23660 0.60200 0.09410 -0.03700
C 	C 	0.26690 0.66540 0.17030 -0.42400
C 	C 	0.15990 0.67080 0.23780 0.17000
H 	H 	0.12340 0.67270 0.26090 -0.01500
C 	C 	0.19970 0.70750 0.26940 -0.21400
H 	H 	0.19030 0.73430 0.31410 1.28000
O 	O 	0.32370 0.66270 0.13470 -1.36300
C 	C 	0.34190 0.60990 0.09600 0.58000
H 	H 	0.38050 0.61280 0.07720 -0.07600
H 	H 	0.33820 0.58090 0.14250 -0.13800
H 	H 	0.31900 0.60070 0.04300 -0.10100
O 	O 	0.91830 0.39750 0.16310 -0.71100
O 	O 	0.85230 0.44700 0.08930 -0.67400
C 	C 	0.86920 0.40800 0.13840 0.58400
C 	C 	0.82630 0.36846 0.17250 -0.26500
C 	C 	0.74681 0.29520 0.23570 0.34900
C 	C 	0.77140 0.37550 0.14780 0.16700
H 	H 	0.76110 0.40530 0.10940 0.01200
C 	C 	0.73167 0.33890 0.17950 -0.20900
H 	H 	0.69420 0.34370 0.16260 1.26000
C 	C 	0.84145 0.32480 0.22870 0.12300
H 	H 	0.87900 0.32000 0.24560 -0.03000
C 	C 	0.80170 0.28820 0.26030 -0.38400
O 	O 	0.81760 0.24150 0.32040 -1.25800
C 	C 	0.87610 0.23170 0.33800 0.62900
H 	H 	0.88010 0.19970 0.37890 -0.06800
H 	H 	0.89530 0.22450 0.28060 -0.08000
H 	H 	0.89220 0.26420 0.36780 -0.12400
C 	C 	0.77280 0.37120 0.13880 0.13100
H 	H 	0.76340 0.39800 0.09410 -0.03300
C 	C 	0.73310 0.33460 0.17030 -0.41500
C 	C 	0.84010 0.32920 0.23780 0.15900
H 	H 	0.87660 0.32730 0.26090 0.00800
C 	C 	0.80030 0.29250 0.26940 -0.19100
H 	H 	0.80970 0.26570 0.31410 1.18900
O 	O 	0.67630 0.33730 0.13470 -1.36500
C 	C 	0.65810 0.39010 0.09600 0.58100
H 	H 	0.61950 0.38720 0.07720 -0.07900
H 	H 	0.66180 0.41910 0.14250 -0.13600
H 	H 	0.68100 0.39930 0.04300 -0.10200
O 	O 	0.60250 0.91830 0.66310 -0.70400
O 	O 	0.55300 0.85230 0.58930 -0.66700
C 	C 	0.59200 0.86920 0.63840 0.58100
C 	C 	0.63154 0.82630 0.67250 -0.25400
C 	C 	0.70480 0.74681 0.73570 0.34300
C 	C 	0.62450 0.77140 0.64780 0.16400
H 	H 	0.59470 0.76110 0.60940 0.01800
C 	C 	0.66110 0.73167 0.67950 -0.20000
H 	H 	0.65630 0.69420 0.66260 1.21900
C 	C 	0.67520 0.84145 0.72870 0.11600
H 	H 	0.68000 0.87900 0.74560 -0.02900
C 	C 	0.71180 0.80170 0.76030 -0.36000
O 	O 	0.75850 0.81760 0.82040 -1.16000
C 	C 	0.76830 0.87610 0.83800 0.50700
H 	H 	0.80030 0.88010 0.87890 0.00300
H 	H 	0.77550 0.89530 0.78060 -0.02100
H 	H 	0.73580 0.89220 0.86780 -0.07700
C 	C 	0.62880 0.77280 0.63880 0.12500
H 	H 	0.60200 0.76340 0.59410 -0.03300
C 	C 	0.66540 0.73310 0.67030 -0.40100
C 	C 	0.67080 0.84010 0.73780 0.15300
H 	H 	0.67270 0.87660 0.76090 0.01400
C 	C 	0.70750 0.80030 0.76940 -0.17900
H 	H 	0.73430 0.80970 0.81410 1.11400
O 	O 	0.66270 0.67630 0.63470 -1.31000
C 	C 	0.60990 0.65810 0.59600 0.52900
H 	H 	0.61280 0.61950 0.57720 -0.05600
H 	H 	0.58090 0.66180 0.64250 -0.11900
H 	H 	0.60070 0.68100 0.54300 -0.07500
O 	O 	0.39750 0.08170 0.66310 -0.82900
O 	O 	0.44700 0.14770 0.58930 -0.68000
C 	C 	0.40800 0.13080 0.63840 0.60700
C 	C 	0.36846 0.17370 0.67250 -0.30500
C 	C 	0.29520 0.25319 0.73570 0.37400
C 	C 	0.37550 0.22860 0.64780 0.17400
H 	H 	0.40530 0.23890 0.60940 0.01400
C 	C 	0.33890 0.26833 0.67950 -0.21400
H 	H 	0.34370 0.30580 0.66260 1.25400
C 	C 	0.32480 0.15855 0.72870 0.13600
H 	H 	0.32000 0.12100 0.74560 -0.05300
C 	C 	0.28820 0.19830 0.76030 -0.43300
O 	O 	0.24150 0.18240 0.82040 -1.43800
C 	C 	0.23170 0.12390 0.83800 0.89700
H 	H 	0.19970 0.11990 0.87890 -0.19300
H 	H 	0.22450 0.10470 0.78060 -0.22400
H 	H 	0.26420 0.10780 0.86780 -0.26000
C 	C 	0.37120 0.22720 0.63880 0.13600
H 	H 	0.39800 0.23660 0.59410 -0.03700
C 	C 	0.33460 0.26690 0.67030 -0.42000
C 	C 	0.32920 0.15990 0.73780 0.17200
H 	H 	0.32730 0.12340 0.76090 -0.01900
C 	C 	0.29250 0.19970 0.76940 -0.21900
H 	H 	0.26570 0.19030 0.81410 1.33000
O 	O 	0.33730 0.32370 0.63470 -1.35000
C 	C 	0.39010 0.34190 0.59600 0.55400
H 	H 	0.38720 0.38050 0.57720 -0.06500
H 	H 	0.41910 0.33820 0.64250 -0.12800
H 	H 	0.39930 0.31900 0.54300 -0.08200
Zr	Zr	0.10038 0.50000 -0.00000 3.20700
Zr	Zr	0.89962 0.50000 -0.00000 3.20700
Zr	Zr	0.50000 0.10038 0.50000 3.20900
Zr	Zr	0.50000 0.89962 0.50000 3.20900
Zr	Zr	0.00000 0.42775 0.11979 3.14900
Zr	Zr	-0.00000 0.57225 0.11979 3.15000
Zr	Zr	0.57225 -0.00000 0.61979 3.14900
Zr	Zr	0.42775 -0.00000 0.61979 3.14900
Zr	Zr	0.00000 0.42775 0.88021 3.15100
Zr	Zr	-0.00000 0.57225 0.88021 3.15100
Zr	Zr	0.42775 0.00000 0.38021 3.14900
Zr	Zr	0.57225 0.00000 0.38021 3.14900
O 	O 	0.05020 0.42570 -0.00000 -1.43300
O 	O 	0.94980 0.57430 -0.00000 -1.26600
O 	O 	0.57430 0.05020 0.50000 -1.42300
O 	O 	0.42570 0.94980 0.50000 -1.25400
O 	O 	0.94980 0.42570 -0.00000 -1.26800
O 	O 	0.05020 0.57430 -0.00000 -1.43100
O 	O 	0.42570 0.05020 0.50000 -1.42600
O 	O 	0.57430 0.94980 0.50000 -1.25200
O 	O 	0.05000 0.50000 0.12730 -1.40100
O 	O 	0.95000 0.50000 0.12730 -1.22800
O 	O 	0.50000 0.05000 0.62730 -1.40100
O 	O 	0.50000 0.95000 0.62730 -1.22500
O 	O 	0.95000 0.50000 0.87270 -1.22000
O 	O 	0.05000 0.50000 0.87270 -1.39400
O 	O 	0.50000 0.05000 0.37270 -1.40300
O 	O 	0.50000 0.95000 0.37270 -1.22700
