data_crystal

_cell_length_a 24.21800
_cell_length_b 24.21800
_cell_length_c 15.35900
_cell_angle_alpha 90.00000
_cell_angle_beta  90.00000
_cell_angle_gamma 90.00000

_symmetry_space_group_name_	'P 1'
_symmetry_space_group_name_H-M	'P 1'

loop_
_symmetry_equiv_pos_as_xyz
  x,y,z

loop_
_atom_site_label
_atom_site_type_symbol
_atom_site_fract_x
_atom_site_fract_y
_atom_site_fract_z
_atom_site_charge
O 	O 	0.05458 0.35140 0.58510 -0.65700
O 	O 	0.10225 0.41728 0.66120 -0.76800
C 	C 	0.16817 0.23248 0.66630 0.15200
C 	C 	0.13176 0.27219 0.63480 -0.13000
H 	H 	0.10740 0.26340 0.58840 0.07700
C 	C 	0.13112 0.32467 0.67140 -0.06100
C 	C 	0.20312 0.29790 0.77070 0.14000
C 	C 	0.20383 0.24539 0.73420 -0.10200
C 	C 	0.16675 0.33758 0.73930 -0.12800
H 	H 	0.16630 0.37350 0.76430 0.04300
C 	C 	0.17000 0.17511 0.62820 -0.49000
H 	H 	0.14150 0.15220 0.65550 0.15000
H 	H 	0.20640 0.15880 0.63900 0.15700
H 	H 	0.16340 0.17700 0.56530 0.14300
C 	C 	0.09181 0.36800 0.63780 0.47400
C 	C 	0.24290 0.30910 0.84420 -0.47600
H 	H 	0.23880 0.28060 0.88900 0.15300
H 	H 	0.23500 0.34540 0.86950 0.13300
H 	H 	0.28080 0.30860 0.82180 0.14100
O 	O 	0.94542 0.64860 0.58510 -0.64400
O 	O 	0.89775 0.58272 0.66120 -0.76300
C 	C 	0.83183 0.76752 0.66630 0.16100
C 	C 	0.86824 0.72781 0.63480 -0.13600
H 	H 	0.89260 0.73660 0.58840 0.08400
C 	C 	0.86888 0.67533 0.67140 -0.05400
C 	C 	0.79688 0.70210 0.77070 0.14400
C 	C 	0.79617 0.75461 0.73420 -0.10500
C 	C 	0.83325 0.66242 0.73930 -0.13100
H 	H 	0.83370 0.62650 0.76430 0.04600
C 	C 	0.83000 0.82489 0.62820 -0.50800
H 	H 	0.85850 0.84780 0.65550 0.16200
H 	H 	0.79360 0.84120 0.63900 0.16600
H 	H 	0.83660 0.82300 0.56530 0.15100
C 	C 	0.90819 0.63200 0.63780 0.47200
C 	C 	0.75710 0.69090 0.84420 -0.47900
H 	H 	0.76120 0.71940 0.88900 0.15300
H 	H 	0.76500 0.65460 0.86950 0.13400
H 	H 	0.71920 0.69140 0.82180 0.14200
O 	O 	0.64860 0.05458 0.08510 -0.66600
O 	O 	0.58272 0.10225 0.16120 -0.77300
C 	C 	0.76752 0.16817 0.16630 0.14300
C 	C 	0.72781 0.13176 0.13480 -0.12500
H 	H 	0.73660 0.10740 0.08840 0.07000
C 	C 	0.67533 0.13112 0.17140 -0.06900
C 	C 	0.70210 0.20312 0.27070 0.13000
C 	C 	0.75461 0.20383 0.23420 -0.09700
C 	C 	0.66242 0.16675 0.23930 -0.12200
H 	H 	0.62650 0.16630 0.26430 0.03800
C 	C 	0.82489 0.17000 0.12820 -0.47700
H 	H 	0.84780 0.14150 0.15550 0.14600
H 	H 	0.84120 0.20640 0.13900 0.15300
H 	H 	0.82300 0.16340 0.06530 0.13200
C 	C 	0.63200 0.09181 0.13780 0.47600
C 	C 	0.69090 0.24290 0.34420 -0.45800
H 	H 	0.71940 0.23880 0.38900 0.14300
H 	H 	0.65460 0.23500 0.36950 0.12300
H 	H 	0.69140 0.28080 0.32180 0.13300
O 	O 	0.35140 0.94542 0.08510 -0.64900
O 	O 	0.41728 0.89775 0.16120 -0.76600
C 	C 	0.23248 0.83183 0.16630 0.14800
C 	C 	0.27219 0.86824 0.13480 -0.12800
H 	H 	0.26340 0.89260 0.08840 0.07600
C 	C 	0.32467 0.86888 0.17140 -0.06200
C 	C 	0.29790 0.79688 0.27070 0.13500
C 	C 	0.24539 0.79617 0.23420 -0.10000
C 	C 	0.33758 0.83325 0.23930 -0.12500
H 	H 	0.37350 0.83370 0.26430 0.04100
C 	C 	0.17511 0.83000 0.12820 -0.48200
H 	H 	0.15220 0.85850 0.15550 0.14900
H 	H 	0.15880 0.79360 0.13900 0.15300
H 	H 	0.17700 0.83660 0.06530 0.13600
C 	C 	0.36800 0.90819 0.13780 0.47400
C 	C 	0.30910 0.75710 0.34420 -0.46300
H 	H 	0.28060 0.76120 0.38900 0.14500
H 	H 	0.34540 0.76500 0.36950 0.12500
H 	H 	0.30860 0.71920 0.32180 0.13500
O 	O 	0.94542 0.35140 0.41490 -0.64500
O 	O 	0.89775 0.41728 0.33880 -0.76600
C 	C 	0.83183 0.23248 0.33370 0.15400
C 	C 	0.86824 0.27219 0.36520 -0.13100
H 	H 	0.89260 0.26340 0.41160 0.08100
C 	C 	0.86888 0.32467 0.32860 -0.06000
C 	C 	0.79688 0.29790 0.22930 0.13200
C 	C 	0.79617 0.24539 0.26580 -0.10200
C 	C 	0.83325 0.33758 0.26070 -0.12500
H 	H 	0.83370 0.37350 0.23570 0.03900
C 	C 	0.83000 0.17511 0.37180 -0.49500
H 	H 	0.85850 0.15220 0.34450 0.15400
H 	H 	0.79360 0.15880 0.36100 0.15900
H 	H 	0.83660 0.17700 0.43470 0.14500
C 	C 	0.90819 0.36800 0.36220 0.47300
C 	C 	0.75710 0.30910 0.15580 -0.45300
H 	H 	0.76120 0.28060 0.11100 0.13700
H 	H 	0.76500 0.34540 0.13050 0.11800
H 	H 	0.71920 0.30860 0.17820 0.13000
O 	O 	0.05458 0.64860 0.41490 -0.65800
O 	O 	0.10225 0.58272 0.33880 -0.77200
C 	C 	0.16817 0.76752 0.33370 0.15200
C 	C 	0.13176 0.72781 0.36520 -0.13000
H 	H 	0.10740 0.73660 0.41160 0.07700
C 	C 	0.13112 0.67533 0.32860 -0.06500
C 	C 	0.20312 0.70210 0.22930 0.12900
C 	C 	0.20383 0.75461 0.26580 -0.10000
C 	C 	0.16675 0.66242 0.26070 -0.12300
H 	H 	0.16630 0.62650 0.23570 0.03700
C 	C 	0.17000 0.82489 0.37180 -0.49500
H 	H 	0.14150 0.84780 0.34450 0.15400
H 	H 	0.20640 0.84120 0.36100 0.16200
H 	H 	0.16340 0.82300 0.43470 0.14600
C 	C 	0.09181 0.63200 0.36220 0.47400
C 	C 	0.24290 0.69090 0.15580 -0.45100
H 	H 	0.23880 0.71940 0.11100 0.13700
H 	H 	0.23500 0.65460 0.13050 0.11700
H 	H 	0.28080 0.69140 0.17820 0.13000
O 	O 	0.35140 0.05458 0.91490 -0.64600
O 	O 	0.41728 0.10225 0.83880 -0.76400
C 	C 	0.23248 0.16817 0.83370 0.16200
C 	C 	0.27219 0.13176 0.86520 -0.13600
H 	H 	0.26340 0.10740 0.91160 0.08500
C 	C 	0.32467 0.13112 0.82860 -0.05600
C 	C 	0.29790 0.20312 0.72930 0.13900
C 	C 	0.24539 0.20383 0.76580 -0.10500
C 	C 	0.33758 0.16675 0.76070 -0.12900
H 	H 	0.37350 0.16630 0.73570 0.04200
C 	C 	0.17511 0.17000 0.87180 -0.50800
H 	H 	0.15220 0.14150 0.84450 0.15700
H 	H 	0.15880 0.20640 0.86100 0.16600
H 	H 	0.17700 0.16340 0.93470 0.15700
C 	C 	0.36800 0.09181 0.86220 0.47200
C 	C 	0.30910 0.24290 0.65580 -0.46700
H 	H 	0.28060 0.23880 0.61100 0.14500
H 	H 	0.34540 0.23500 0.63050 0.12600
H 	H 	0.30860 0.28080 0.67820 0.13700
O 	O 	0.64860 0.94542 0.91490 -0.63800
O 	O 	0.58272 0.89775 0.83880 -0.76100
C 	C 	0.76752 0.83183 0.83370 0.16800
C 	C 	0.72781 0.86824 0.86520 -0.13900
H 	H 	0.73660 0.89260 0.91160 0.08800
C 	C 	0.67533 0.86888 0.82860 -0.05100
C 	C 	0.70210 0.79688 0.72930 0.14200
C 	C 	0.75461 0.79617 0.76580 -0.10700
C 	C 	0.66242 0.83325 0.76070 -0.13100
H 	H 	0.62650 0.83370 0.73570 0.04400
C 	C 	0.82489 0.83000 0.87180 -0.52100
H 	H 	0.84780 0.85850 0.84450 0.16700
H 	H 	0.84120 0.79360 0.86100 0.17200
H 	H 	0.82300 0.83660 0.93470 0.16100
C 	C 	0.63200 0.90819 0.86220 0.47100
C 	C 	0.69090 0.75710 0.65580 -0.47000
H 	H 	0.71940 0.76120 0.61100 0.14700
H 	H 	0.65460 0.76500 0.63050 0.12800
H 	H 	0.69140 0.71920 0.67820 0.13800
O 	O 	0.94542 0.64860 0.41490 -0.64500
O 	O 	0.89775 0.58272 0.33880 -0.76600
C 	C 	0.83183 0.76752 0.33370 0.15800
C 	C 	0.86824 0.72781 0.36520 -0.13300
H 	H 	0.89260 0.73660 0.41160 0.08200
C 	C 	0.86888 0.67533 0.32860 -0.05900
C 	C 	0.79688 0.70210 0.22930 0.13300
C 	C 	0.79617 0.75461 0.26580 -0.10300
C 	C 	0.83325 0.66242 0.26070 -0.12600
H 	H 	0.83370 0.62650 0.23570 0.04000
C 	C 	0.83000 0.82489 0.37180 -0.50400
H 	H 	0.85850 0.84780 0.34450 0.16000
H 	H 	0.79360 0.84120 0.36100 0.16500
H 	H 	0.83660 0.82300 0.43470 0.15000
C 	C 	0.90819 0.63200 0.36220 0.47300
C 	C 	0.75710 0.69090 0.15580 -0.45500
H 	H 	0.76120 0.71940 0.11100 0.13900
H 	H 	0.76500 0.65460 0.13050 0.11900
H 	H 	0.71920 0.69140 0.17820 0.13100
O 	O 	0.05458 0.35140 0.41490 -0.65900
O 	O 	0.10225 0.41728 0.33880 -0.77200
C 	C 	0.16817 0.23248 0.33370 0.14800
C 	C 	0.13176 0.27219 0.36520 -0.12700
H 	H 	0.10740 0.26340 0.41160 0.07600
C 	C 	0.13112 0.32467 0.32860 -0.06600
C 	C 	0.20312 0.29790 0.22930 0.12800
C 	C 	0.20383 0.24539 0.26580 -0.10000
C 	C 	0.16675 0.33758 0.26070 -0.12200
H 	H 	0.16630 0.37350 0.23570 0.03700
C 	C 	0.17000 0.17511 0.37180 -0.48500
H 	H 	0.14150 0.15220 0.34450 0.14700
H 	H 	0.20640 0.15880 0.36100 0.15600
H 	H 	0.16340 0.17700 0.43470 0.14100
C 	C 	0.09181 0.36800 0.36220 0.47400
C 	C 	0.24290 0.30910 0.15580 -0.44900
H 	H 	0.23880 0.28060 0.11100 0.13600
H 	H 	0.23500 0.34540 0.13050 0.11600
H 	H 	0.28080 0.30860 0.17820 0.12900
O 	O 	0.35140 0.94542 0.91490 -0.63900
O 	O 	0.41728 0.89775 0.83880 -0.76100
C 	C 	0.23248 0.83183 0.83370 0.16400
C 	C 	0.27219 0.86824 0.86520 -0.13700
H 	H 	0.26340 0.89260 0.91160 0.08700
C 	C 	0.32467 0.86888 0.82860 -0.05300
C 	C 	0.29790 0.79688 0.72930 0.14100
C 	C 	0.24539 0.79617 0.76580 -0.10600
C 	C 	0.33758 0.83325 0.76070 -0.13000
H 	H 	0.37350 0.83370 0.73570 0.04400
C 	C 	0.17511 0.83000 0.87180 -0.51100
H 	H 	0.15220 0.85850 0.84450 0.16100
H 	H 	0.15880 0.79360 0.86100 0.16700
H 	H 	0.17700 0.83660 0.93470 0.15700
C 	C 	0.36800 0.90819 0.86220 0.47100
C 	C 	0.30910 0.75710 0.65580 -0.46900
H 	H 	0.28060 0.76120 0.61100 0.14700
H 	H 	0.34540 0.76500 0.63050 0.12800
H 	H 	0.30860 0.71920 0.67820 0.13800
O 	O 	0.64860 0.05458 0.91490 -0.64600
O 	O 	0.58272 0.10225 0.83880 -0.76400
C 	C 	0.76752 0.16817 0.83370 0.16500
C 	C 	0.72781 0.13176 0.86520 -0.13800
H 	H 	0.73660 0.10740 0.91160 0.08700
C 	C 	0.67533 0.13112 0.82860 -0.05400
C 	C 	0.70210 0.20312 0.72930 0.13900
C 	C 	0.75461 0.20383 0.76580 -0.10600
C 	C 	0.66242 0.16675 0.76070 -0.13000
H 	H 	0.62650 0.16630 0.73570 0.04200
C 	C 	0.82489 0.17000 0.87180 -0.51800
H 	H 	0.84780 0.14150 0.84450 0.16400
H 	H 	0.84120 0.20640 0.86100 0.17100
H 	H 	0.82300 0.16340 0.93470 0.16100
C 	C 	0.63200 0.09181 0.86220 0.47200
C 	C 	0.69090 0.24290 0.65580 -0.46700
H 	H 	0.71940 0.23880 0.61100 0.14500
H 	H 	0.65460 0.23500 0.63050 0.12600
H 	H 	0.69140 0.28080 0.67820 0.13700
O 	O 	0.05458 0.64860 0.58510 -0.65700
O 	O 	0.10225 0.58272 0.66120 -0.76900
C 	C 	0.16817 0.76752 0.66630 0.15500
C 	C 	0.13176 0.72781 0.63480 -0.13200
H 	H 	0.10740 0.73660 0.58840 0.07900
C 	C 	0.13112 0.67533 0.67140 -0.06000
C 	C 	0.20312 0.70210 0.77070 0.14000
C 	C 	0.20383 0.75461 0.73420 -0.10300
C 	C 	0.16675 0.66242 0.73930 -0.12900
H 	H 	0.16630 0.62650 0.76430 0.04300
C 	C 	0.17000 0.82489 0.62820 -0.49800
H 	H 	0.14150 0.84780 0.65550 0.15500
H 	H 	0.20640 0.84120 0.63900 0.16300
H 	H 	0.16340 0.82300 0.56530 0.14700
C 	C 	0.09181 0.63200 0.63780 0.47300
C 	C 	0.24290 0.69090 0.84420 -0.47500
H 	H 	0.23880 0.71940 0.88900 0.15200
H 	H 	0.23500 0.65460 0.86950 0.13200
H 	H 	0.28080 0.69140 0.82180 0.14100
O 	O 	0.94542 0.35140 0.58510 -0.64400
O 	O 	0.89775 0.41728 0.66120 -0.76300
C 	C 	0.83183 0.23248 0.66630 0.15800
C 	C 	0.86824 0.27219 0.63480 -0.13400
H 	H 	0.89260 0.26340 0.58840 0.08200
C 	C 	0.86888 0.32467 0.67140 -0.05500
C 	C 	0.79688 0.29790 0.77070 0.14400
C 	C 	0.79617 0.24539 0.73420 -0.10400
C 	C 	0.83325 0.33758 0.73930 -0.13100
H 	H 	0.83370 0.37350 0.76430 0.04600
C 	C 	0.83000 0.17511 0.62820 -0.49900
H 	H 	0.85850 0.15220 0.65550 0.15600
H 	H 	0.79360 0.15880 0.63900 0.16100
H 	H 	0.83660 0.17700 0.56530 0.14700
C 	C 	0.90819 0.36800 0.63780 0.47200
C 	C 	0.75710 0.30910 0.84420 -0.48000
H 	H 	0.76120 0.28060 0.88900 0.15500
H 	H 	0.76500 0.34540 0.86950 0.13500
H 	H 	0.71920 0.30860 0.82180 0.14300
O 	O 	0.64860 0.94542 0.08510 -0.64900
O 	O 	0.58272 0.89775 0.16120 -0.76500
C 	C 	0.76752 0.83183 0.16630 0.15200
C 	C 	0.72781 0.86824 0.13480 -0.13000
H 	H 	0.73660 0.89260 0.08840 0.07700
C 	C 	0.67533 0.86888 0.17140 -0.06100
C 	C 	0.70210 0.79688 0.27070 0.13500
C 	C 	0.75461 0.79617 0.23420 -0.10100
C 	C 	0.66242 0.83325 0.23930 -0.12600
H 	H 	0.62650 0.83370 0.26430 0.04100
C 	C 	0.82489 0.83000 0.12820 -0.49200
H 	H 	0.84780 0.85850 0.15550 0.15500
H 	H 	0.84120 0.79360 0.13900 0.15900
H 	H 	0.82300 0.83660 0.06530 0.14000
C 	C 	0.63200 0.90819 0.13780 0.47400
C 	C 	0.69090 0.75710 0.34420 -0.46300
H 	H 	0.71940 0.76120 0.38900 0.14500
H 	H 	0.65460 0.76500 0.36950 0.12600
H 	H 	0.69140 0.71920 0.32180 0.13500
O 	O 	0.35140 0.05458 0.08510 -0.66600
O 	O 	0.41728 0.10225 0.16120 -0.77300
C 	C 	0.23248 0.16817 0.16630 0.13900
C 	C 	0.27219 0.13176 0.13480 -0.12200
H 	H 	0.26340 0.10740 0.08840 0.06900
C 	C 	0.32467 0.13112 0.17140 -0.07000
C 	C 	0.29790 0.20312 0.27070 0.13000
C 	C 	0.24539 0.20383 0.23420 -0.09700
C 	C 	0.33758 0.16675 0.23930 -0.12100
H 	H 	0.37350 0.16630 0.26430 0.03800
C 	C 	0.17511 0.17000 0.12820 -0.46800
H 	H 	0.15220 0.14150 0.15550 0.13900
H 	H 	0.15880 0.20640 0.13900 0.14800
H 	H 	0.17700 0.16340 0.06530 0.12800
C 	C 	0.36800 0.09181 0.13780 0.47600
C 	C 	0.30910 0.24290 0.34420 -0.45800
H 	H 	0.28060 0.23880 0.38900 0.14300
H 	H 	0.34540 0.23500 0.36950 0.12300
H 	H 	0.30860 0.28080 0.32180 0.13300
Zr	Zr	0.00000 0.39854 0.50000 3.21500
Zr	Zr	0.00000 0.60146 0.50000 3.21500
Zr	Zr	0.60146 0.00000 -0.00000 3.21300
Zr	Zr	0.39854 0.00000 -0.00000 3.21300
Zr	Zr	0.92729 0.50000 0.61488 3.17900
Zr	Zr	0.07271 0.50000 0.61488 3.17800
Zr	Zr	0.50000 0.92729 0.11488 3.17900
Zr	Zr	0.50000 0.07271 0.11488 3.17800
Zr	Zr	0.07271 0.50000 0.38512 3.17800
Zr	Zr	0.92729 0.50000 0.38512 3.17900
Zr	Zr	0.50000 0.92729 0.88512 3.18000
Zr	Zr	0.50000 0.07271 0.88512 3.18000
O 	O 	0.00000 0.44984 0.61320 -1.35900
O 	O 	-0.00000 0.55016 0.61320 -1.35900
O 	O 	0.55016 0.00000 0.11320 -1.36200
O 	O 	0.44984 0.00000 0.11320 -1.36200
O 	O 	0.00000 0.44984 0.38680 -1.36100
O 	O 	-0.00000 0.55016 0.38680 -1.36000
O 	O 	0.44984 0.00000 0.88680 -1.34800
O 	O 	0.55016 0.00000 0.88680 -1.34800
O 	O 	0.07310 0.45085 0.50000 -1.33700
O 	O 	0.92690 0.54915 0.50000 -1.32900
O 	O 	0.54915 0.07310 -0.00000 -1.35000
O 	O 	0.45085 0.92690 -0.00000 -1.33800
O 	O 	0.92690 0.45085 0.50000 -1.32900
O 	O 	0.07310 0.54915 0.50000 -1.33700
O 	O 	0.45085 0.07310 -0.00000 -1.35000
O 	O 	0.54915 0.92690 -0.00000 -1.33800
