data_crystal

_cell_length_a 23.67900
_cell_length_b 23.67900
_cell_length_c 16.81600
_cell_angle_alpha 90.00000
_cell_angle_beta  90.00000
_cell_angle_gamma 90.00000

_symmetry_space_group_name_	'P 1'
_symmetry_space_group_name_H-M	'P 1'

loop_
_symmetry_equiv_pos_as_xyz
  x,y,z

loop_
_atom_site_label
_atom_site_type_symbol
_atom_site_fract_x
_atom_site_fract_y
_atom_site_fract_z
_atom_site_charge
O 	O 	0.84902 0.44324 0.57914 -0.58800
O 	O 	0.91613 0.39730 0.64920 -0.20800
C 	C 	0.86588 0.40727 0.62950 0.36500
C 	C 	0.82152 0.37037 0.66730 0.05500
C 	C 	0.76711 0.37170 0.64020 -0.16600
H 	H 	0.75720 0.39700 0.59860 0.10000
C 	C 	0.72630 0.33690 0.67260 0.18500
C 	C 	0.74180 0.29990 0.73260 -0.07200
C 	C 	0.79580 0.29910 0.76070 0.03000
H 	H 	0.80570 0.27510 0.80380 0.04900
C 	C 	0.83660 0.33390 0.72530 -0.09200
H 	H 	0.87480 0.33180 0.74210 0.18900
C 	C 	0.66710 0.33610 0.63680 -0.54100
H 	H 	0.66450 0.36470 0.59480 0.17400
H 	H 	0.63930 0.34440 0.67840 0.17700
H 	H 	0.65950 0.29870 0.61420 0.19100
O 	O 	0.15098 0.55676 0.57914 -0.59500
O 	O 	0.08387 0.60270 0.64920 -0.27100
C 	C 	0.13412 0.59273 0.62950 0.37800
C 	C 	0.17848 0.62963 0.66730 0.03200
C 	C 	0.23289 0.62830 0.64020 -0.15500
H 	H 	0.24280 0.60300 0.59860 0.09700
C 	C 	0.27370 0.66310 0.67260 0.17900
C 	C 	0.25820 0.70010 0.73260 -0.06300
C 	C 	0.20420 0.70090 0.76070 0.01400
H 	H 	0.19430 0.72490 0.80380 0.04700
C 	C 	0.16340 0.66610 0.72530 -0.08000
H 	H 	0.12520 0.66820 0.74210 0.16100
C 	C 	0.33290 0.66390 0.63680 -0.54000
H 	H 	0.33550 0.63530 0.59480 0.17600
H 	H 	0.36070 0.65560 0.67840 0.18000
H 	H 	0.34050 0.70130 0.61420 0.19700
O 	O 	0.55676 0.84902 0.07914 -0.59300
O 	O 	0.60270 0.91613 0.14920 -0.30400
C 	C 	0.59273 0.86588 0.12950 0.40000
C 	C 	0.62963 0.82152 0.16730 0.03200
C 	C 	0.62830 0.76711 0.14020 -0.15000
H 	H 	0.60300 0.75720 0.09860 0.10200
C 	C 	0.66310 0.72630 0.17260 0.18700
C 	C 	0.70010 0.74180 0.23260 -0.06000
C 	C 	0.70090 0.79580 0.26070 0.01900
H 	H 	0.72490 0.80570 0.30380 0.06900
C 	C 	0.66610 0.83660 0.22530 -0.06600
H 	H 	0.66820 0.87480 0.24210 0.17300
C 	C 	0.66390 0.66710 0.13680 -0.55400
H 	H 	0.63530 0.66450 0.09480 0.18600
H 	H 	0.65560 0.63930 0.17840 0.18600
H 	H 	0.70130 0.65950 0.11420 0.20700
O 	O 	0.44324 0.15098 0.07914 -0.60100
O 	O 	0.39730 0.08387 0.14920 -0.37100
C 	C 	0.40727 0.13412 0.12950 0.41000
C 	C 	0.37037 0.17848 0.16730 0.00300
C 	C 	0.37170 0.23289 0.14020 -0.14100
H 	H 	0.39700 0.24280 0.09860 0.09500
C 	C 	0.33690 0.27370 0.17260 0.17200
C 	C 	0.29990 0.25820 0.23260 -0.06300
C 	C 	0.29910 0.20420 0.26070 -0.00200
H 	H 	0.27510 0.19430 0.30380 0.03900
C 	C 	0.33390 0.16340 0.22530 -0.06300
H 	H 	0.33180 0.12520 0.24210 0.12600
C 	C 	0.33610 0.33290 0.13680 -0.53500
H 	H 	0.36470 0.33550 0.09480 0.17800
H 	H 	0.34440 0.36070 0.17840 0.17900
H 	H 	0.29870 0.34050 0.11420 0.19200
O 	O 	0.15098 0.44324 0.42086 -0.62400
O 	O 	0.08387 0.39730 0.35080 -0.48200
C 	C 	0.13412 0.40727 0.37050 0.45000
C 	C 	0.17848 0.37037 0.33270 -0.04300
C 	C 	0.23289 0.37170 0.35980 -0.10800
H 	H 	0.24280 0.39700 0.40140 0.07900
C 	C 	0.27370 0.33690 0.32740 0.14100
C 	C 	0.25820 0.29990 0.26740 -0.03500
C 	C 	0.20420 0.29910 0.23930 -0.03700
H 	H 	0.19430 0.27510 0.19620 0.05100
C 	C 	0.16340 0.33390 0.27470 -0.02600
H 	H 	0.12520 0.33180 0.25790 0.09200
C 	C 	0.33290 0.33610 0.36320 -0.50100
H 	H 	0.33550 0.36470 0.40520 0.16300
H 	H 	0.36070 0.34440 0.32160 0.16800
H 	H 	0.34050 0.29870 0.38580 0.17800
O 	O 	0.84902 0.55676 0.42086 -0.61600
O 	O 	0.91613 0.60270 0.35080 -0.41400
C 	C 	0.86588 0.59273 0.37050 0.43900
C 	C 	0.82152 0.62963 0.33270 -0.01300
C 	C 	0.76711 0.62830 0.35980 -0.11700
H 	H 	0.75720 0.60300 0.40140 0.08600
C 	C 	0.72630 0.66310 0.32740 0.15700
C 	C 	0.74180 0.70010 0.26740 -0.03300
C 	C 	0.79580 0.70090 0.23930 -0.01400
H 	H 	0.80570 0.72490 0.19620 0.07900
C 	C 	0.83660 0.66610 0.27470 -0.02900
H 	H 	0.87480 0.66820 0.25790 0.13900
C 	C 	0.66710 0.66390 0.36320 -0.52200
H 	H 	0.66450 0.63530 0.40520 0.17200
H 	H 	0.63930 0.65560 0.32160 0.17600
H 	H 	0.65950 0.70130 0.38580 0.19400
O 	O 	0.44324 0.84902 0.92086 -0.61400
O 	O 	0.39730 0.91613 0.85080 -0.32400
C 	C 	0.40727 0.86588 0.87050 0.40700
C 	C 	0.37037 0.82152 0.83270 0.00800
C 	C 	0.37170 0.76711 0.85980 -0.13200
H 	H 	0.39700 0.75720 0.90140 0.08500
C 	C 	0.33690 0.72630 0.82740 0.15600
C 	C 	0.29990 0.74180 0.76740 -0.04300
C 	C 	0.29910 0.79580 0.73930 -0.00400
H 	H 	0.27510 0.80570 0.69620 0.06100
C 	C 	0.33390 0.83660 0.77470 -0.05400
H 	H 	0.33180 0.87480 0.75790 0.15500
C 	C 	0.33610 0.66710 0.86320 -0.50700
H 	H 	0.36470 0.66450 0.90520 0.16000
H 	H 	0.34440 0.63930 0.82160 0.16800
H 	H 	0.29870 0.65950 0.88580 0.17800
O 	O 	0.55676 0.15098 0.92086 -0.62000
O 	O 	0.60270 0.08387 0.85080 -0.38500
C 	C 	0.59273 0.13412 0.87050 0.42000
C 	C 	0.62963 0.17848 0.83270 -0.01400
C 	C 	0.62830 0.23289 0.85980 -0.12200
H 	H 	0.60300 0.24280 0.90140 0.08100
C 	C 	0.66310 0.27370 0.82740 0.14900
C 	C 	0.70010 0.25820 0.76740 -0.03500
C 	C 	0.70090 0.20420 0.73930 -0.02100
H 	H 	0.72490 0.19430 0.69620 0.05900
C 	C 	0.66610 0.16340 0.77470 -0.04200
H 	H 	0.66820 0.12520 0.75790 0.12700
C 	C 	0.66390 0.33290 0.86320 -0.50800
H 	H 	0.63530 0.33550 0.90520 0.16100
H 	H 	0.65560 0.36070 0.82160 0.17000
H 	H 	0.70130 0.34050 0.88580 0.18400
O 	O 	0.15098 0.55676 0.42086 -0.62300
O 	O 	0.08387 0.60270 0.35080 -0.47900
C 	C 	0.13412 0.59273 0.37050 0.45100
C 	C 	0.17848 0.62963 0.33270 -0.04000
C 	C 	0.23289 0.62830 0.35980 -0.10800
H 	H 	0.24280 0.60300 0.40140 0.08000
C 	C 	0.27370 0.66310 0.32740 0.14500
C 	C 	0.25820 0.70010 0.26740 -0.02900
C 	C 	0.20420 0.70090 0.23930 -0.03400
H 	H 	0.19430 0.72490 0.19620 0.06400
C 	C 	0.16340 0.66610 0.27470 -0.02200
H 	H 	0.12520 0.66820 0.25790 0.10200
C 	C 	0.33290 0.66390 0.36320 -0.51100
H 	H 	0.33550 0.63530 0.40520 0.16800
H 	H 	0.36070 0.65560 0.32160 0.17200
H 	H 	0.34050 0.70130 0.38580 0.18900
O 	O 	0.84902 0.44324 0.42086 -0.61600
O 	O 	0.91613 0.39730 0.35080 -0.41700
C 	C 	0.86588 0.40727 0.37050 0.43800
C 	C 	0.82152 0.37037 0.33270 -0.01700
C 	C 	0.76711 0.37170 0.35980 -0.11800
H 	H 	0.75720 0.39700 0.40140 0.08500
C 	C 	0.72630 0.33690 0.32740 0.15300
C 	C 	0.74180 0.29990 0.26740 -0.03800
C 	C 	0.79580 0.29910 0.23930 -0.01700
H 	H 	0.80570 0.27510 0.19620 0.06600
C 	C 	0.83660 0.33390 0.27470 -0.03400
H 	H 	0.87480 0.33180 0.25790 0.13000
C 	C 	0.66710 0.33610 0.36320 -0.51200
H 	H 	0.66450 0.36470 0.40520 0.16700
H 	H 	0.63930 0.34440 0.32160 0.17100
H 	H 	0.65950 0.29870 0.38580 0.18400
O 	O 	0.44324 0.15098 0.92086 -0.62100
O 	O 	0.39730 0.08387 0.85080 -0.38800
C 	C 	0.40727 0.13412 0.87050 0.41800
C 	C 	0.37037 0.17848 0.83270 -0.01800
C 	C 	0.37170 0.23289 0.85980 -0.12200
H 	H 	0.39700 0.24280 0.90140 0.08000
C 	C 	0.33690 0.27370 0.82740 0.14400
C 	C 	0.29990 0.25820 0.76740 -0.04000
C 	C 	0.29910 0.20420 0.73930 -0.02300
H 	H 	0.27510 0.19430 0.69620 0.04500
C 	C 	0.33390 0.16340 0.77470 -0.04700
H 	H 	0.33180 0.12520 0.75790 0.11700
C 	C 	0.33610 0.33290 0.86320 -0.49700
H 	H 	0.36470 0.33550 0.90520 0.15600
H 	H 	0.34440 0.36070 0.82160 0.16500
H 	H 	0.29870 0.34050 0.88580 0.17300
O 	O 	0.55676 0.84902 0.92086 -0.61300
O 	O 	0.60270 0.91613 0.85080 -0.32100
C 	C 	0.59273 0.86588 0.87050 0.40800
C 	C 	0.62963 0.82152 0.83270 0.01200
C 	C 	0.62830 0.76711 0.85980 -0.13100
H 	H 	0.60300 0.75720 0.90140 0.08600
C 	C 	0.66310 0.72630 0.82740 0.16000
C 	C 	0.70010 0.74180 0.76740 -0.03800
C 	C 	0.70090 0.79580 0.73930 -0.00100
H 	H 	0.72490 0.80570 0.69620 0.07500
C 	C 	0.66610 0.83660 0.77470 -0.05000
H 	H 	0.66820 0.87480 0.75790 0.16500
C 	C 	0.66390 0.66710 0.86320 -0.51800
H 	H 	0.63530 0.66450 0.90520 0.16500
H 	H 	0.65560 0.63930 0.82160 0.17300
H 	H 	0.70130 0.65950 0.88580 0.18900
O 	O 	0.84902 0.55676 0.57914 -0.58700
O 	O 	0.91613 0.60270 0.64920 -0.20400
C 	C 	0.86588 0.59273 0.62950 0.36800
C 	C 	0.82152 0.62963 0.66730 0.05900
C 	C 	0.76711 0.62830 0.64020 -0.16500
H 	H 	0.75720 0.60300 0.59860 0.10200
C 	C 	0.72630 0.66310 0.67260 0.19100
C 	C 	0.74180 0.70010 0.73260 -0.06600
C 	C 	0.79580 0.70090 0.76070 0.03300
H 	H 	0.80570 0.72490 0.80380 0.06400
C 	C 	0.83660 0.66610 0.72530 -0.08700
H 	H 	0.87480 0.66820 0.74210 0.20000
C 	C 	0.66710 0.66390 0.63680 -0.55100
H 	H 	0.66450 0.63530 0.59480 0.18000
H 	H 	0.63930 0.65560 0.67840 0.18300
H 	H 	0.65950 0.70130 0.61420 0.20200
O 	O 	0.15098 0.44324 0.57914 -0.59500
O 	O 	0.08387 0.39730 0.64920 -0.27300
C 	C 	0.13412 0.40727 0.62950 0.37800
C 	C 	0.17848 0.37037 0.66730 0.02900
C 	C 	0.23289 0.37170 0.64020 -0.15500
H 	H 	0.24280 0.39700 0.59860 0.09500
C 	C 	0.27370 0.33690 0.67260 0.17400
C 	C 	0.25820 0.29990 0.73260 -0.06800
C 	C 	0.20420 0.29910 0.76070 0.01100
H 	H 	0.19430 0.27510 0.80380 0.03400
C 	C 	0.16340 0.33390 0.72530 -0.08400
H 	H 	0.12520 0.33180 0.74210 0.15200
C 	C 	0.33290 0.33610 0.63680 -0.52900
H 	H 	0.33550 0.36470 0.59480 0.17100
H 	H 	0.36070 0.34440 0.67840 0.17500
H 	H 	0.34050 0.29870 0.61420 0.18600
O 	O 	0.55676 0.15098 0.07914 -0.60000
O 	O 	0.60270 0.08387 0.14920 -0.36800
C 	C 	0.59273 0.13412 0.12950 0.41100
C 	C 	0.62963 0.17848 0.16730 0.00600
C 	C 	0.62830 0.23289 0.14020 -0.14000
H 	H 	0.60300 0.24280 0.09860 0.09600
C 	C 	0.66310 0.27370 0.17260 0.17600
C 	C 	0.70010 0.25820 0.23260 -0.05700
C 	C 	0.70090 0.20420 0.26070 0.00000
H 	H 	0.72490 0.19430 0.30380 0.05300
C 	C 	0.66610 0.16340 0.22530 -0.05800
H 	H 	0.66820 0.12520 0.24210 0.13600
C 	C 	0.66390 0.33290 0.13680 -0.54400
H 	H 	0.63530 0.33550 0.09480 0.18300
H 	H 	0.65560 0.36070 0.17840 0.18300
H 	H 	0.70130 0.34050 0.11420 0.20200
O 	O 	0.44324 0.84902 0.07914 -0.59400
O 	O 	0.39730 0.91613 0.14920 -0.30700
C 	C 	0.40727 0.86588 0.12950 0.39900
C 	C 	0.37037 0.82152 0.16730 0.02900
C 	C 	0.37170 0.76711 0.14020 -0.15000
H 	H 	0.39700 0.75720 0.09860 0.10100
C 	C 	0.33690 0.72630 0.17260 0.18300
C 	C 	0.29990 0.74180 0.23260 -0.06600
C 	C 	0.29910 0.79580 0.26070 0.01700
H 	H 	0.27510 0.80570 0.30380 0.05500
C 	C 	0.33390 0.83660 0.22530 -0.07000
H 	H 	0.33180 0.87480 0.24210 0.16400
C 	C 	0.33610 0.66710 0.13680 -0.54500
H 	H 	0.36470 0.66450 0.09480 0.18200
H 	H 	0.34440 0.63930 0.17840 0.18200
H 	H 	0.29870 0.65950 0.11420 0.19700
Zr	Zr	0.00000 0.42651 0.60484 3.29800
C 	C 	0.00000 0.49010 0.85540 1.53900
C 	C 	-0.00000 0.43780 0.89310 -1.21300
H 	H 	-0.00000 0.40290 0.86410 0.77700
C 	C 	-0.00000 0.43490 0.97560 0.81600
C 	C 	-0.00000 0.48410 0.02050 -1.19700
C 	C 	-0.00000 0.53640 0.98290 1.31500
C 	C 	-0.00000 0.53940 0.90030 -1.93100
H 	H 	0.00000 0.57470 0.87220 0.41600
C 	C 	0.00000 0.48120 0.10310 -0.04400
H 	H 	-0.00000 0.44590 0.13120 0.44900
C 	C 	-0.00000 0.53040 0.14800 0.59100
C 	C 	-0.00000 0.58270 0.11040 -0.15100
H 	H 	-0.00000 0.61770 0.13930 -0.36200
C 	C 	-0.00000 0.58570 0.02780 -0.56400
C 	C 	-0.00000 0.52020 0.23660 -1.92200
O 	O 	0.00000 0.45640 0.72130 5.17700
O 	O 	-0.00000 0.56320 0.28300 -5.04300
O 	O 	-0.00000 0.46920 0.26220 4.45600
O 	O 	-0.00000 0.55063 0.74060 0.51800
Zr	Zr	0.00000 0.57349 0.60484 3.29700
C 	C 	0.00000 0.50990 0.85540 1.73600
C 	C 	-0.00000 0.56220 0.89310 -1.36600
H 	H 	-0.00000 0.59710 0.86410 1.14700
C 	C 	-0.00000 0.56510 0.97560 0.76400
C 	C 	-0.00000 0.51590 0.02050 -1.16200
C 	C 	-0.00000 0.46360 0.98290 1.32700
C 	C 	-0.00000 0.46060 0.90030 -1.97900
H 	H 	-0.00000 0.42530 0.87220 0.43300
C 	C 	0.00000 0.51880 0.10310 0.18400
H 	H 	0.00000 0.55410 0.13120 0.12400
C 	C 	-0.00000 0.46960 0.14800 0.31800
C 	C 	-0.00000 0.41730 0.11040 -0.24500
H 	H 	0.00000 0.38230 0.13930 -0.05000
C 	C 	-0.00000 0.41430 0.02780 -0.57300
C 	C 	-0.00000 0.47980 0.23660 -1.99200
O 	O 	0.00000 0.54360 0.72130 5.11400
O 	O 	-0.00000 0.43680 0.28300 -5.12300
O 	O 	0.00000 0.53080 0.26220 4.37000
O 	O 	-0.00000 0.44937 0.74060 0.50100
Zr	Zr	0.57349 0.00000 0.10484 3.27100
C 	C 	0.50990 0.00000 0.35540 1.31800
C 	C 	0.56220 0.00000 0.39310 -0.99100
H 	H 	0.59710 0.00000 0.36410 0.95000
C 	C 	0.56510 -0.00000 0.47560 0.57800
C 	C 	0.51590 -0.00000 0.52050 -0.59900
C 	C 	0.46360 0.00000 0.48290 0.96800
C 	C 	0.46060 0.00000 0.40030 -1.35200
H 	H 	0.42530 0.00000 0.37220 0.32300
C 	C 	0.51880 0.00000 0.60310 -0.17000
H 	H 	0.55410 0.00000 0.63120 0.41100
C 	C 	0.46960 0.00000 0.64800 0.84300
C 	C 	0.41730 0.00000 0.61040 -0.39600
H 	H 	0.38230 0.00000 0.63930 -0.13500
C 	C 	0.41430 -0.00000 0.52780 -0.44000
C 	C 	0.47980 0.00000 0.73660 -2.85700
O 	O 	0.54360 0.00000 0.22130 3.92200
O 	O 	0.43680 0.00000 0.78300 -7.40700
O 	O 	0.53080 0.00000 0.76220 6.17600
O 	O 	0.44937 0.00000 0.24060 0.12400
Zr	Zr	0.42651 0.00000 0.10484 3.27100
C 	C 	0.49010 0.00000 0.35540 1.11100
C 	C 	0.43780 0.00000 0.39310 -0.83000
H 	H 	0.40290 0.00000 0.36410 0.56200
C 	C 	0.43490 -0.00000 0.47560 0.63200
C 	C 	0.48410 -0.00000 0.52050 -0.63500
C 	C 	0.53640 0.00000 0.48290 0.95600
C 	C 	0.53940 0.00000 0.40030 -1.30200
H 	H 	0.57470 0.00000 0.37220 0.30500
C 	C 	0.48120 0.00000 0.60310 -0.40600
H 	H 	0.44590 0.00000 0.63120 0.74700
C 	C 	0.53040 0.00000 0.64800 1.12400
C 	C 	0.58270 0.00000 0.61040 -0.29900
H 	H 	0.61770 0.00000 0.63930 -0.45600
C 	C 	0.58570 -0.00000 0.52780 -0.43000
C 	C 	0.52020 0.00000 0.73660 -2.78500
O 	O 	0.45640 0.00000 0.22130 3.98900
O 	O 	0.56320 0.00000 0.78300 -7.32500
O 	O 	0.46920 0.00000 0.76220 6.26400
O 	O 	0.55063 0.00000 0.24060 0.14200
Zr	Zr	0.00000 0.42651 0.39516 3.24200
C 	C 	-0.00000 0.49010 0.14460 0.66800
C 	C 	0.00000 0.43780 0.10690 -0.42300
H 	H 	-0.00000 0.40290 0.13590 0.33900
C 	C 	-0.00000 0.43490 0.02440 0.41000
C 	C 	-0.00000 0.48410 0.97950 0.00300
C 	C 	-0.00000 0.53640 0.01710 0.54700
C 	C 	-0.00000 0.53940 0.09970 -0.63100
H 	H 	-0.00000 0.57470 0.12780 0.18300
C 	C 	-0.00000 0.48120 0.89690 -0.80400
H 	H 	-0.00000 0.44590 0.86880 1.06300
C 	C 	-0.00000 0.53040 0.85200 1.70700
C 	C 	-0.00000 0.58270 0.88960 -0.45500
H 	H 	-0.00000 0.61770 0.86070 -0.54700
C 	C 	0.00000 0.58570 0.97220 -0.25300
C 	C 	0.00000 0.52020 0.76340 -3.74800
O 	O 	0.00000 0.45640 0.27870 2.72500
O 	O 	0.00000 0.56320 0.71700 -9.86400
O 	O 	-0.00000 0.46920 0.73780 8.27000
O 	O 	-0.00000 0.55063 0.25940 -0.26200
Zr	Zr	-0.00000 0.57349 0.39516 3.24200
C 	C 	0.00000 0.50990 0.14460 0.86600
C 	C 	-0.00000 0.56220 0.10690 -0.57700
H 	H 	-0.00000 0.59710 0.13590 0.71100
C 	C 	-0.00000 0.56510 0.02440 0.35800
C 	C 	0.00000 0.51590 0.97950 0.03700
C 	C 	-0.00000 0.46360 0.01710 0.55800
C 	C 	0.00000 0.46060 0.09970 -0.68000
H 	H 	-0.00000 0.42530 0.12780 0.20000
C 	C 	-0.00000 0.51880 0.89690 -0.57700
H 	H 	-0.00000 0.55410 0.86880 0.73900
C 	C 	0.00000 0.46960 0.85200 1.43500
C 	C 	0.00000 0.41730 0.88960 -0.54900
H 	H 	0.00000 0.38230 0.86070 -0.23700
C 	C 	-0.00000 0.41430 0.97220 -0.26300
C 	C 	0.00000 0.47980 0.76340 -3.81800
O 	O 	0.00000 0.54360 0.27870 2.66200
O 	O 	0.00000 0.43680 0.71700 -9.94400
O 	O 	-0.00000 0.53080 0.73780 8.18400
O 	O 	-0.00000 0.44937 0.25940 -0.28000
Zr	Zr	0.42651 0.00000 0.89516 3.26700
C 	C 	0.49010 -0.00000 0.64460 1.07600
C 	C 	0.43780 0.00000 0.60690 -0.79800
H 	H 	0.40290 0.00000 0.63590 0.54600
C 	C 	0.43490 0.00000 0.52440 0.61200
C 	C 	0.48410 0.00000 0.47950 -0.57600
C 	C 	0.53640 -0.00000 0.51710 0.91800
C 	C 	0.53940 0.00000 0.59970 -1.24500
H 	H 	0.57470 0.00000 0.62780 0.29500
C 	C 	0.48120 0.00000 0.39690 -0.44400
H 	H 	0.44590 0.00000 0.36880 0.77600
C 	C 	0.53040 0.00000 0.35200 1.17600
C 	C 	0.58270 0.00000 0.38960 -0.31200
H 	H 	0.61770 0.00000 0.36070 -0.46500
C 	C 	0.58570 0.00000 0.47220 -0.41800
C 	C 	0.52020 0.00000 0.26340 -2.86000
O 	O 	0.45640 0.00000 0.77870 3.88700
O 	O 	0.56320 0.00000 0.21700 -7.52300
O 	O 	0.46920 -0.00000 0.23780 6.42100
O 	O 	0.55063 0.00000 0.75940 0.10800
Zr	Zr	0.57349 0.00000 0.89516 3.26700
C 	C 	0.50990 -0.00000 0.64460 1.28000
C 	C 	0.56220 0.00000 0.60690 -0.95600
H 	H 	0.59710 0.00000 0.63590 0.92900
C 	C 	0.56510 0.00000 0.52440 0.55700
C 	C 	0.51590 0.00000 0.47950 -0.53900
C 	C 	0.46360 -0.00000 0.51710 0.93100
C 	C 	0.46060 0.00000 0.59970 -1.29500
H 	H 	0.42530 0.00000 0.62780 0.31400
C 	C 	0.51880 0.00000 0.39690 -0.20600
H 	H 	0.55410 0.00000 0.36880 0.43600
C 	C 	0.46960 0.00000 0.35200 0.89100
C 	C 	0.41730 0.00000 0.38960 -0.41000
H 	H 	0.38230 0.00000 0.36070 -0.14000
C 	C 	0.41430 0.00000 0.47220 -0.42700
C 	C 	0.47980 0.00000 0.26340 -2.93400
O 	O 	0.54360 0.00000 0.77870 3.82200
O 	O 	0.43680 0.00000 0.21700 -7.60700
O 	O 	0.53080 -0.00000 0.23780 6.33100
O 	O 	0.44937 0.00000 0.75940 0.09000
Zr	Zr	0.89626 0.50000 0.50000 3.21700
Zr	Zr	0.10374 0.50000 0.50000 3.21800
Zr	Zr	0.50000 0.89626 -0.00000 3.21900
Zr	Zr	0.50000 0.10374 -0.00000 3.22000
O 	O 	0.94965 0.42540 0.50000 -1.18700
O 	O 	0.05035 0.57460 0.50000 -1.27300
O 	O 	0.57460 0.94965 -0.00000 -1.17200
O 	O 	0.42540 0.05035 -0.00000 -1.26200
O 	O 	0.05035 0.42540 0.50000 -1.27700
O 	O 	0.94965 0.57460 0.50000 -1.18300
O 	O 	0.42540 0.94965 -0.00000 -1.17600
O 	O 	0.57460 0.05035 -0.00000 -1.25900
O 	O 	0.94876 0.50000 0.60190 -1.25300
O 	O 	0.05124 0.50000 0.60190 -1.34000
O 	O 	0.50000 0.94876 0.10190 -1.25000
O 	O 	0.50000 0.05124 0.10190 -1.33500
O 	O 	0.05124 0.50000 0.39810 -1.33400
O 	O 	0.94876 0.50000 0.39810 -1.24700
O 	O 	0.50000 0.94876 0.89810 -1.26100
O 	O 	0.50000 0.05124 0.89810 -1.34600
C 	C 	-0.00000 0.50000 0.76680 -8.30000
C 	C 	0.50000 0.00000 0.26680 -6.20600
C 	C 	-0.00000 0.50000 0.23320 -3.98200
C 	C 	0.50000 0.00000 0.73320 -6.02600
H 	H 	-0.00000 0.39960 -0.00000 -0.65700
H 	H 	-0.00000 0.62100 -0.00000 0.77000
H 	H 	-0.00000 0.60040 -0.00000 -0.54500
H 	H 	-0.00000 0.37900 -0.00000 0.84200
H 	H 	0.60040 0.00000 0.50000 -0.51800
H 	H 	0.37900 0.00000 0.50000 0.81800
H 	H 	0.39960 0.00000 0.50000 -0.63500
H 	H 	0.62100 0.00000 0.50000 0.74300
