data_crystal

_cell_length_a 23.02400
_cell_length_b 23.02400
_cell_length_c 18.64840
_cell_angle_alpha 90.00000
_cell_angle_beta  90.00000
_cell_angle_gamma 90.00000

_symmetry_space_group_name_	'P 1'
_symmetry_space_group_name_H-M	'P 1'

loop_
_symmetry_equiv_pos_as_xyz
  x,y,z

loop_
_atom_site_label
_atom_site_type_symbol
_atom_site_fract_x
_atom_site_fract_y
_atom_site_fract_z
_atom_site_charge
O 	O 	0.44250 0.15730 0.06890 -0.65400
C 	C 	0.40480 0.13930 0.11300 0.54800
O 	O 	0.39420 0.08770 0.12940 -0.81500
C 	C 	0.37290 0.18390 0.15580 -0.13500
C 	C 	0.37160 0.24180 0.13490 -0.00400
C 	C 	0.34090 0.16568 0.21480 0.00200
H 	H 	0.39350 0.25430 0.09460 0.08200
C 	C 	0.33840 0.28158 0.17320 0.07700
C 	C 	0.30760 0.20540 0.25310 0.05500
H 	H 	0.34170 0.12610 0.22910 0.02100
C 	C 	0.30630 0.26340 0.23220 0.01900
N 	N 	0.34140 0.34110 0.14470 0.01700
N 	N 	0.27590 0.17980 0.31460 0.04800
O 	O 	0.38750 0.36040 0.12330 -0.04500
O 	O 	0.29410 0.36760 0.14500 -0.06200
O 	O 	0.30080 0.14450 0.35240 -0.10600
O 	O 	0.22510 0.19670 0.32300 -0.10000
O 	O 	0.33900 0.34950 0.08020 -0.05500
O 	O 	0.34680 0.38020 0.19060 -0.04200
O 	O 	0.27150 0.20830 0.36990 -0.07200
O 	O 	0.25540 0.13080 0.30720 -0.13700
O 	O 	0.55750 0.84270 0.06890 -0.64100
C 	C 	0.59520 0.86070 0.11300 0.52200
O 	O 	0.60580 0.91230 0.12940 -0.68100
C 	C 	0.62710 0.81610 0.15580 -0.07900
C 	C 	0.62840 0.75820 0.13490 -0.02300
C 	C 	0.65910 0.83432 0.21480 -0.02400
H 	H 	0.60650 0.74570 0.09460 0.09200
C 	C 	0.66160 0.71842 0.17320 0.09500
C 	C 	0.69240 0.79460 0.25310 0.10000
H 	H 	0.65830 0.87390 0.22910 0.09400
C 	C 	0.69370 0.73660 0.23220 0.00700
N 	N 	0.65860 0.65890 0.14470 0.01100
N 	N 	0.72410 0.82020 0.31460 -0.00100
O 	O 	0.61250 0.63960 0.12330 -0.04400
O 	O 	0.70590 0.63240 0.14500 -0.04800
O 	O 	0.69920 0.85550 0.35240 -0.02400
O 	O 	0.77490 0.80330 0.32300 -0.02700
O 	O 	0.66100 0.65050 0.08020 -0.04500
O 	O 	0.65320 0.61980 0.19060 -0.03900
O 	O 	0.72850 0.79170 0.36990 -0.03300
O 	O 	0.74460 0.86920 0.30720 -0.00900
O 	O 	0.84270 0.44250 0.56890 -0.63500
C 	C 	0.86070 0.40480 0.61300 0.52100
O 	O 	0.91230 0.39420 0.62940 -0.68600
C 	C 	0.81610 0.37290 0.65580 -0.08100
C 	C 	0.75820 0.37160 0.63490 -0.02500
C 	C 	0.83432 0.34090 0.71480 -0.02500
H 	H 	0.74570 0.39350 0.59460 0.09600
C 	C 	0.71842 0.33840 0.67320 0.09600
C 	C 	0.79460 0.30760 0.75310 0.09600
H 	H 	0.87390 0.34170 0.72910 0.08900
C 	C 	0.73660 0.30630 0.73220 0.00500
N 	N 	0.65890 0.34140 0.64470 0.01200
N 	N 	0.82020 0.27590 0.81460 0.01200
O 	O 	0.63960 0.38750 0.62330 -0.04100
O 	O 	0.63240 0.29410 0.64500 -0.05800
O 	O 	0.85550 0.30080 0.85240 -0.03200
O 	O 	0.80330 0.22510 0.82300 -0.06200
O 	O 	0.65050 0.33900 0.58020 -0.04500
O 	O 	0.61980 0.34680 0.69060 -0.04100
O 	O 	0.79170 0.27150 0.86990 -0.04300
O 	O 	0.86920 0.25540 0.80720 -0.04300
O 	O 	0.15730 0.55750 0.56890 -0.64700
C 	C 	0.13930 0.59520 0.61300 0.54700
O 	O 	0.08770 0.60580 0.62940 -0.80400
C 	C 	0.18390 0.62710 0.65580 -0.12500
C 	C 	0.24180 0.62840 0.63490 -0.00600
C 	C 	0.16568 0.65910 0.71480 0.00000
H 	H 	0.25430 0.60650 0.59460 0.08800
C 	C 	0.28158 0.66160 0.67320 0.08200
C 	C 	0.20540 0.69240 0.75310 0.06400
H 	H 	0.12610 0.65830 0.72910 0.03000
C 	C 	0.26340 0.69370 0.73220 0.02000
N 	N 	0.34110 0.65860 0.64470 0.01100
N 	N 	0.17980 0.72410 0.81460 0.03100
O 	O 	0.36040 0.61250 0.62330 -0.04100
O 	O 	0.36760 0.70590 0.64500 -0.04500
O 	O 	0.14450 0.69920 0.85240 -0.09000
O 	O 	0.19670 0.77490 0.82300 -0.06000
O 	O 	0.34950 0.66100 0.58020 -0.04000
O 	O 	0.38020 0.65320 0.69060 -0.03800
O 	O 	0.20830 0.72850 0.86990 -0.05300
O 	O 	0.13080 0.74460 0.80720 -0.09600
O 	O 	0.55750 0.15730 0.93110 -0.63800
C 	C 	0.59520 0.13930 0.88700 0.54700
O 	O 	0.60580 0.08770 0.87060 -0.79800
C 	C 	0.62710 0.18390 0.84420 -0.12200
C 	C 	0.62840 0.24180 0.86510 -0.00700
C 	C 	0.65910 0.16568 0.78520 -0.00100
H 	H 	0.60650 0.25430 0.90540 0.09200
C 	C 	0.66160 0.28158 0.82680 0.08500
C 	C 	0.69240 0.20540 0.74690 0.06500
H 	H 	0.65830 0.12610 0.77090 0.03000
C 	C 	0.69370 0.26340 0.76780 0.01900
N 	N 	0.65860 0.34110 0.85530 0.00900
N 	N 	0.72410 0.17980 0.68540 0.03300
O 	O 	0.61250 0.36040 0.87670 -0.03800
O 	O 	0.70590 0.36760 0.85500 -0.04300
O 	O 	0.69920 0.14450 0.64760 -0.09400
O 	O 	0.77490 0.19670 0.67700 -0.06100
O 	O 	0.66100 0.34950 0.91980 -0.03200
O 	O 	0.65320 0.38020 0.80940 -0.03700
O 	O 	0.72850 0.20830 0.63010 -0.05800
O 	O 	0.74460 0.13080 0.69280 -0.09600
O 	O 	0.44250 0.84270 0.93110 -0.62600
C 	C 	0.40480 0.86070 0.88700 0.52000
O 	O 	0.39420 0.91230 0.87060 -0.68300
C 	C 	0.37290 0.81610 0.84420 -0.07800
C 	C 	0.37160 0.75820 0.86510 -0.02600
C 	C 	0.34090 0.83432 0.78520 -0.02600
H 	H 	0.39350 0.74570 0.90540 0.10000
C 	C 	0.33840 0.71842 0.82680 0.09900
C 	C 	0.30760 0.79460 0.74690 0.09600
H 	H 	0.34170 0.87390 0.77090 0.08900
C 	C 	0.30630 0.73660 0.76780 0.00400
N 	N 	0.34140 0.65890 0.85530 0.01000
N 	N 	0.27590 0.82020 0.68540 0.01300
O 	O 	0.38750 0.63960 0.87670 -0.03800
O 	O 	0.29410 0.63240 0.85500 -0.05500
O 	O 	0.30080 0.85550 0.64760 -0.03600
O 	O 	0.22510 0.80330 0.67700 -0.06400
O 	O 	0.33900 0.65050 0.91980 -0.03800
O 	O 	0.34680 0.61980 0.80940 -0.04000
O 	O 	0.27150 0.79170 0.63010 -0.04700
O 	O 	0.25540 0.86920 0.69280 -0.04400
O 	O 	0.15730 0.44250 0.43110 -0.64900
C 	C 	0.13930 0.40480 0.38700 0.54700
O 	O 	0.08770 0.39420 0.37060 -0.81400
C 	C 	0.18390 0.37290 0.34420 -0.13300
C 	C 	0.24180 0.37160 0.36510 -0.00600
C 	C 	0.16568 0.34090 0.28520 0.00200
H 	H 	0.25430 0.39350 0.40540 0.08600
C 	C 	0.28158 0.33840 0.32680 0.08000
C 	C 	0.20540 0.30760 0.24690 0.05500
H 	H 	0.12610 0.34170 0.27090 0.02000
C 	C 	0.26340 0.30630 0.26780 0.01800
N 	N 	0.34110 0.34140 0.35530 0.01500
N 	N 	0.17980 0.27590 0.18540 0.04900
O 	O 	0.36040 0.38750 0.37670 -0.04200
O 	O 	0.36760 0.29410 0.35500 -0.05900
O 	O 	0.14450 0.30080 0.14760 -0.11000
O 	O 	0.19670 0.22510 0.17700 -0.10200
O 	O 	0.34950 0.33900 0.41980 -0.04800
O 	O 	0.38020 0.34680 0.30940 -0.04200
O 	O 	0.20830 0.27150 0.13010 -0.07500
O 	O 	0.13080 0.25540 0.19280 -0.13800
O 	O 	0.84270 0.55750 0.43110 -0.63400
C 	C 	0.86070 0.59520 0.38700 0.52100
O 	O 	0.91230 0.60580 0.37060 -0.67800
C 	C 	0.81610 0.62710 0.34420 -0.07600
C 	C 	0.75820 0.62840 0.36510 -0.02400
C 	C 	0.83432 0.65910 0.28520 -0.02500
H 	H 	0.74570 0.60650 0.40540 0.09700
C 	C 	0.71842 0.66160 0.32680 0.09800
C 	C 	0.79460 0.69240 0.24690 0.10000
H 	H 	0.87390 0.65830 0.27090 0.09400
C 	C 	0.73660 0.69370 0.26780 0.00600
N 	N 	0.65890 0.65860 0.35530 0.00900
N 	N 	0.82020 0.72410 0.18540 0.00100
O 	O 	0.63960 0.61250 0.37670 -0.04000
O 	O 	0.63240 0.70590 0.35500 -0.04400
O 	O 	0.85550 0.69920 0.14760 -0.02900
O 	O 	0.80330 0.77490 0.17700 -0.02900
O 	O 	0.65050 0.66100 0.41980 -0.03700
O 	O 	0.61980 0.65320 0.30940 -0.03800
O 	O 	0.79170 0.72850 0.13010 -0.03800
O 	O 	0.86920 0.74460 0.19280 -0.01000
O 	O 	0.55750 0.84270 0.93110 -0.62500
C 	C 	0.59520 0.86070 0.88700 0.52100
O 	O 	0.60580 0.91230 0.87060 -0.67300
C 	C 	0.62710 0.81610 0.84420 -0.07200
C 	C 	0.62840 0.75820 0.86510 -0.02600
C 	C 	0.65910 0.83432 0.78520 -0.02700
H 	H 	0.60650 0.74570 0.90540 0.10100
C 	C 	0.66160 0.71842 0.82680 0.10100
C 	C 	0.69240 0.79460 0.74690 0.10300
H 	H 	0.65830 0.87390 0.77090 0.09600
C 	C 	0.69370 0.73660 0.76780 0.00500
N 	N 	0.65860 0.65890 0.85530 0.00600
N 	N 	0.72410 0.82020 0.68540 -0.00100
O 	O 	0.61250 0.63960 0.87670 -0.03700
O 	O 	0.70590 0.63240 0.85500 -0.04200
O 	O 	0.69920 0.85550 0.64760 -0.02400
O 	O 	0.77490 0.80330 0.67700 -0.02600
O 	O 	0.66100 0.65050 0.91980 -0.03000
O 	O 	0.65320 0.61980 0.80940 -0.03700
O 	O 	0.72850 0.79170 0.63010 -0.03300
O 	O 	0.74460 0.86920 0.69280 -0.00600
O 	O 	0.44250 0.15730 0.93110 -0.63900
C 	C 	0.40480 0.13930 0.88700 0.54600
O 	O 	0.39420 0.08770 0.87060 -0.80700
C 	C 	0.37290 0.18390 0.84420 -0.12800
C 	C 	0.37160 0.24180 0.86510 -0.00700
C 	C 	0.34090 0.16568 0.78520 0.00000
H 	H 	0.39350 0.25430 0.90540 0.09000
C 	C 	0.33840 0.28158 0.82680 0.08300
C 	C 	0.30760 0.20540 0.74690 0.05800
H 	H 	0.34170 0.12610 0.77090 0.02300
C 	C 	0.30630 0.26340 0.76780 0.01700
N 	N 	0.34140 0.34110 0.85530 0.01200
N 	N 	0.27590 0.17980 0.68540 0.04700
O 	O 	0.38750 0.36040 0.87670 -0.03900
O 	O 	0.29410 0.36760 0.85500 -0.05600
O 	O 	0.30080 0.14450 0.64760 -0.10600
O 	O 	0.22510 0.19670 0.67700 -0.09900
O 	O 	0.33900 0.34950 0.91980 -0.04000
O 	O 	0.34680 0.38020 0.80940 -0.04000
O 	O 	0.27150 0.20830 0.63010 -0.07200
O 	O 	0.25540 0.13080 0.69280 -0.13400
O 	O 	0.15730 0.55750 0.43110 -0.64800
C 	C 	0.13930 0.59520 0.38700 0.54800
O 	O 	0.08770 0.60580 0.37060 -0.80500
C 	C 	0.18390 0.62710 0.34420 -0.12700
C 	C 	0.24180 0.62840 0.36510 -0.00600
C 	C 	0.16568 0.65910 0.28520 0.00100
H 	H 	0.25430 0.60650 0.40540 0.08700
C 	C 	0.28158 0.66160 0.32680 0.08200
C 	C 	0.20540 0.69240 0.24690 0.06200
H 	H 	0.12610 0.65830 0.27090 0.02800
C 	C 	0.26340 0.69370 0.26780 0.02000
N 	N 	0.34110 0.65860 0.35530 0.01100
N 	N 	0.17980 0.72410 0.18540 0.03500
O 	O 	0.36040 0.61250 0.37670 -0.04100
O 	O 	0.36760 0.70590 0.35500 -0.04500
O 	O 	0.14450 0.69920 0.14760 -0.09900
O 	O 	0.19670 0.77490 0.17700 -0.06500
O 	O 	0.34950 0.66100 0.41980 -0.04000
O 	O 	0.38020 0.65320 0.30940 -0.03900
O 	O 	0.20830 0.72850 0.13010 -0.06200
O 	O 	0.13080 0.74460 0.19280 -0.10000
O 	O 	0.84270 0.44250 0.43110 -0.63600
C 	C 	0.86070 0.40480 0.38700 0.52100
O 	O 	0.91230 0.39420 0.37060 -0.68800
C 	C 	0.81610 0.37290 0.34420 -0.08200
C 	C 	0.75820 0.37160 0.36510 -0.02400
C 	C 	0.83432 0.34090 0.28520 -0.02500
H 	H 	0.74570 0.39350 0.40540 0.09500
C 	C 	0.71842 0.33840 0.32680 0.09600
C 	C 	0.79460 0.30760 0.24690 0.09300
H 	H 	0.87390 0.34170 0.27090 0.08700
C 	C 	0.73660 0.30630 0.26780 0.00500
N 	N 	0.65890 0.34140 0.35530 0.01200
N 	N 	0.82020 0.27590 0.18540 0.01600
O 	O 	0.63960 0.38750 0.37670 -0.04100
O 	O 	0.63240 0.29410 0.35500 -0.05800
O 	O 	0.85550 0.30080 0.14760 -0.04100
O 	O 	0.80330 0.22510 0.17700 -0.06600
O 	O 	0.65050 0.33900 0.41980 -0.04500
O 	O 	0.61980 0.34680 0.30940 -0.04100
O 	O 	0.79170 0.27150 0.13010 -0.05200
O 	O 	0.86920 0.25540 0.19280 -0.04700
O 	O 	0.44250 0.84270 0.06890 -0.64300
C 	C 	0.40480 0.86070 0.11300 0.52200
O 	O 	0.39420 0.91230 0.12940 -0.69000
C 	C 	0.37290 0.81610 0.15580 -0.08500
C 	C 	0.37160 0.75820 0.13490 -0.02300
C 	C 	0.34090 0.83432 0.21480 -0.02400
H 	H 	0.39350 0.74570 0.09460 0.09100
C 	C 	0.33840 0.71842 0.17320 0.09300
C 	C 	0.30760 0.79460 0.25310 0.09300
H 	H 	0.34170 0.87390 0.22910 0.08600
C 	C 	0.30630 0.73660 0.23220 0.00600
N 	N 	0.34140 0.65890 0.14470 0.01500
N 	N 	0.27590 0.82020 0.31460 0.01400
O 	O 	0.38750 0.63960 0.12330 -0.04500
O 	O 	0.29410 0.63240 0.14500 -0.06100
O 	O 	0.30080 0.85550 0.35240 -0.03700
O 	O 	0.22510 0.80330 0.32300 -0.06500
O 	O 	0.33900 0.65050 0.08020 -0.05300
O 	O 	0.34680 0.61980 0.19060 -0.04200
O 	O 	0.27150 0.79170 0.36990 -0.04700
O 	O 	0.25540 0.86920 0.30720 -0.04700
O 	O 	0.55750 0.15730 0.06890 -0.65400
C 	C 	0.59520 0.13930 0.11300 0.54800
O 	O 	0.60580 0.08770 0.12940 -0.80500
C 	C 	0.62710 0.18390 0.15580 -0.12900
C 	C 	0.62840 0.24180 0.13490 -0.00400
C 	C 	0.65910 0.16568 0.21480 0.00100
H 	H 	0.60650 0.25430 0.09460 0.08300
C 	C 	0.66160 0.28158 0.17320 0.08000
C 	C 	0.69240 0.20540 0.25310 0.06200
H 	H 	0.65830 0.12610 0.22910 0.02800
C 	C 	0.69370 0.26340 0.23220 0.02100
N 	N 	0.65860 0.34110 0.14470 0.01300
N 	N 	0.72410 0.17980 0.31460 0.03300
O 	O 	0.61250 0.36040 0.12330 -0.04400
O 	O 	0.70590 0.36760 0.14500 -0.04900
O 	O 	0.69920 0.14450 0.35240 -0.09400
O 	O 	0.77490 0.19670 0.32300 -0.06200
O 	O 	0.66100 0.34950 0.08020 -0.04700
O 	O 	0.65320 0.38020 0.19060 -0.04000
O 	O 	0.72850 0.20830 0.36990 -0.05800
O 	O 	0.74460 0.13080 0.30720 -0.09900
O 	O 	0.84270 0.55750 0.56890 -0.63400
C 	C 	0.86070 0.59520 0.61300 0.52100
O 	O 	0.91230 0.60580 0.62940 -0.67700
C 	C 	0.81610 0.62710 0.65580 -0.07500
C 	C 	0.75820 0.62840 0.63490 -0.02500
C 	C 	0.83432 0.65910 0.71480 -0.02600
H 	H 	0.74570 0.60650 0.59460 0.09700
C 	C 	0.71842 0.66160 0.67320 0.09900
C 	C 	0.79460 0.69240 0.75310 0.10300
H 	H 	0.87390 0.65830 0.72910 0.09700
C 	C 	0.73660 0.69370 0.73220 0.00600
N 	N 	0.65890 0.65860 0.64470 0.00800
N 	N 	0.82020 0.72410 0.81460 -0.00300
O 	O 	0.63960 0.61250 0.62330 -0.04000
O 	O 	0.63240 0.70590 0.64500 -0.04400
O 	O 	0.85550 0.69920 0.85240 -0.02100
O 	O 	0.80330 0.77490 0.82300 -0.02400
O 	O 	0.65050 0.66100 0.58020 -0.03700
O 	O 	0.61980 0.65320 0.69060 -0.03800
O 	O 	0.79170 0.72850 0.86990 -0.02900
O 	O 	0.86920 0.74460 0.80720 -0.00500
O 	O 	0.15730 0.44250 0.56890 -0.64900
C 	C 	0.13930 0.40480 0.61300 0.54700
O 	O 	0.08770 0.39420 0.62940 -0.81300
C 	C 	0.18390 0.37290 0.65580 -0.13200
C 	C 	0.24180 0.37160 0.63490 -0.00600
C 	C 	0.16568 0.34090 0.71480 0.00100
H 	H 	0.25430 0.39350 0.59460 0.08600
C 	C 	0.28158 0.33840 0.67320 0.08000
C 	C 	0.20540 0.30760 0.75310 0.05700
H 	H 	0.12610 0.34170 0.72910 0.02200
C 	C 	0.26340 0.30630 0.73220 0.01800
N 	N 	0.34110 0.34140 0.64470 0.01500
N 	N 	0.17980 0.27590 0.81460 0.04600
O 	O 	0.36040 0.38750 0.62330 -0.04200
O 	O 	0.36760 0.29410 0.64500 -0.05900
O 	O 	0.14450 0.30080 0.85240 -0.10200
O 	O 	0.19670 0.22510 0.82300 -0.09700
O 	O 	0.34950 0.33900 0.58020 -0.04800
O 	O 	0.38020 0.34680 0.69060 -0.04100
O 	O 	0.20830 0.27150 0.86990 -0.06700
O 	O 	0.13080 0.25540 0.80720 -0.13300
Zr	Zr	0.50000 0.10670 -0.00000 3.21800
Zr	Zr	0.50000 0.89330 -0.00000 3.21600
Zr	Zr	0.89330 0.50000 0.50000 3.21800
Zr	Zr	0.10670 0.50000 0.50000 3.22000
O 	O 	0.50000 0.05200 0.09200 -1.43200
O 	O 	0.50000 0.94800 0.09200 -1.25400
O 	O 	0.94800 0.50000 0.59200 -1.25100
O 	O 	0.05200 0.50000 0.59200 -1.43200
O 	O 	0.50000 0.05200 0.90800 -1.42200
O 	O 	0.50000 0.94800 0.90800 -1.24400
O 	O 	0.05200 0.50000 0.40800 -1.43300
O 	O 	0.94800 0.50000 0.40800 -1.25200
O 	O 	0.42250 0.05300 -0.00000 -1.42600
O 	O 	0.57750 0.94700 -0.00000 -1.24800
O 	O 	0.94700 0.42250 0.50000 -1.23900
O 	O 	0.05300 0.57750 0.50000 -1.41000
O 	O 	0.57750 0.05300 -0.00000 -1.42000
O 	O 	0.42250 0.94700 -0.00000 -1.25500
O 	O 	0.05300 0.42250 0.50000 -1.41700
O 	O 	0.94700 0.57750 0.50000 -1.23200
Zr	Zr	0.42387 0.00000 0.09248 3.15100
Zr	Zr	0.57613 0.00000 0.09248 3.15200
Zr	Zr	0.00000 0.42387 0.59248 3.15000
Zr	Zr	0.00000 0.57613 0.59248 3.15100
Zr	Zr	0.57613 -0.00000 0.90752 3.15400
Zr	Zr	0.42387 -0.00000 0.90752 3.15300
Zr	Zr	-0.00000 0.42387 0.40752 3.15000
Zr	Zr	0.00000 0.57613 0.40752 3.15100
