data_crystal

_cell_length_a 24.37800
_cell_length_b 24.37800
_cell_length_c 15.01700
_cell_angle_alpha 90.00000
_cell_angle_beta  90.00000
_cell_angle_gamma 90.00000

_symmetry_space_group_name_	'P 1'
_symmetry_space_group_name_H-M	'P 1'

loop_
_symmetry_equiv_pos_as_xyz
  x,y,z

loop_
_atom_site_label
_atom_site_type_symbol
_atom_site_fract_x
_atom_site_fract_y
_atom_site_fract_z
_atom_site_charge
O 	O 	0.85281 0.44550 0.58890 -0.65000
O 	O 	0.91800 0.39620 0.66290 -0.62400
C 	C 	0.86810 0.40800 0.64000 0.48700
C 	C 	0.82630 0.36740 0.67320 -0.08400
C 	C 	0.77390 0.37160 0.64210 -0.07100
H 	H 	0.76440 0.39940 0.60050 0.06600
C 	C 	0.73340 0.33360 0.67260 0.11500
C 	C 	0.74660 0.29420 0.73250 -0.03100
C 	C 	0.80210 0.28950 0.76330 -0.05500
H 	H 	0.81220 0.26130 0.80370 0.06700
C 	C 	0.84050 0.32670 0.73300 0.01300
H 	H 	0.87730 0.32420 0.75360 0.05900
C 	C 	0.67600 0.33950 0.63500 -0.45000
H 	H 	0.67490 0.37050 0.59340 0.14100
H 	H 	0.65000 0.34600 0.68370 0.14100
H 	H 	0.66580 0.30570 0.60350 0.14600
H 	H 	0.96790 0.11430 0.66920 0.07600
O 	O 	0.14719 0.55450 0.58890 -0.66100
O 	O 	0.08200 0.60380 0.66290 -0.71700
C 	C 	0.13190 0.59200 0.64000 0.50100
C 	C 	0.17370 0.63260 0.67320 -0.12000
C 	C 	0.22610 0.62840 0.64210 -0.05700
H 	H 	0.23560 0.60060 0.60050 0.05900
C 	C 	0.26660 0.66640 0.67260 0.10300
C 	C 	0.25340 0.70580 0.73250 -0.01900
C 	C 	0.19790 0.71050 0.76330 -0.08200
H 	H 	0.18780 0.73870 0.80370 0.06200
C 	C 	0.15950 0.67330 0.73300 0.02900
H 	H 	0.12270 0.67580 0.75360 0.01100
C 	C 	0.32400 0.66050 0.63500 -0.44700
H 	H 	0.32510 0.62950 0.59340 0.14100
H 	H 	0.35000 0.65400 0.68370 0.14100
H 	H 	0.33420 0.69430 0.60350 0.15100
H 	H 	0.03210 0.88570 0.66920 -0.06200
O 	O 	0.55450 0.85281 0.08890 -0.65900
O 	O 	0.60380 0.91800 0.16290 -0.62800
C 	C 	0.59200 0.86810 0.14000 0.48700
C 	C 	0.63260 0.82630 0.17320 -0.09300
C 	C 	0.62840 0.77390 0.14210 -0.06500
H 	H 	0.60060 0.76440 0.10050 0.05800
C 	C 	0.66640 0.73340 0.17260 0.10600
C 	C 	0.70580 0.74660 0.23250 -0.02300
C 	C 	0.71050 0.80210 0.26330 -0.06200
H 	H 	0.73870 0.81220 0.30370 0.07700
C 	C 	0.67330 0.84050 0.23300 0.01900
H 	H 	0.67580 0.87730 0.25360 0.05900
C 	C 	0.66050 0.67600 0.13500 -0.43900
H 	H 	0.62950 0.67490 0.09340 0.13200
H 	H 	0.65400 0.65000 0.18370 0.13600
H 	H 	0.69430 0.66580 0.10350 0.14300
H 	H 	0.88570 0.96790 0.16920 0.10300
O 	O 	0.44550 0.14719 0.08890 -0.66900
O 	O 	0.39620 0.08200 0.16290 -0.72100
C 	C 	0.40800 0.13190 0.14000 0.50100
C 	C 	0.36740 0.17370 0.17320 -0.12700
C 	C 	0.37160 0.22610 0.14210 -0.05400
H 	H 	0.39940 0.23560 0.10050 0.05200
C 	C 	0.33360 0.26660 0.17260 0.09100
C 	C 	0.29420 0.25340 0.23250 -0.02500
C 	C 	0.28950 0.19790 0.26330 -0.08500
H 	H 	0.26130 0.18780 0.30370 0.04600
C 	C 	0.32670 0.15950 0.23300 0.02500
H 	H 	0.32420 0.12270 0.25360 0.00300
C 	C 	0.33950 0.32400 0.13500 -0.42100
H 	H 	0.37050 0.32510 0.09340 0.12500
H 	H 	0.34600 0.35000 0.18370 0.12900
H 	H 	0.30570 0.33420 0.10350 0.13000
H 	H 	0.11430 0.03210 0.16920 -0.09300
O 	O 	0.14719 0.44550 0.41110 -0.66200
O 	O 	0.08200 0.39620 0.33710 -0.72200
C 	C 	0.13190 0.40800 0.36000 0.49900
C 	C 	0.17370 0.36740 0.32680 -0.12100
C 	C 	0.22610 0.37160 0.35790 -0.06100
H 	H 	0.23560 0.39940 0.39950 0.05900
C 	C 	0.26660 0.33360 0.32740 0.10200
C 	C 	0.25340 0.29420 0.26750 -0.03200
C 	C 	0.19790 0.28950 0.23670 -0.08000
H 	H 	0.18780 0.26130 0.19630 0.04200
C 	C 	0.15950 0.32670 0.26700 0.02000
H 	H 	0.12270 0.32420 0.24640 0.00300
C 	C 	0.32400 0.33950 0.36500 -0.44000
H 	H 	0.32510 0.37050 0.40660 0.13700
H 	H 	0.35000 0.34600 0.31630 0.13600
H 	H 	0.33420 0.30570 0.39650 0.14100
H 	H 	0.03210 0.11430 0.33080 -0.09400
O 	O 	0.85281 0.55450 0.41110 -0.65200
O 	O 	0.91800 0.60380 0.33710 -0.62700
C 	C 	0.86810 0.59200 0.36000 0.48500
C 	C 	0.82630 0.63260 0.32680 -0.08500
C 	C 	0.77390 0.62840 0.35790 -0.07300
H 	H 	0.76440 0.60060 0.39950 0.06600
C 	C 	0.73340 0.66640 0.32740 0.12000
C 	C 	0.74660 0.70580 0.26750 -0.03100
C 	C 	0.80210 0.71050 0.23670 -0.05500
H 	H 	0.81220 0.73870 0.19630 0.07100
C 	C 	0.84050 0.67330 0.26700 0.01300
H 	H 	0.87730 0.67580 0.24640 0.05900
C 	C 	0.67600 0.66050 0.36500 -0.46000
H 	H 	0.67490 0.62950 0.40660 0.14500
H 	H 	0.65000 0.65400 0.31630 0.14400
H 	H 	0.66580 0.69430 0.39650 0.15600
H 	H 	0.96790 0.88570 0.33080 0.10500
O 	O 	0.44550 0.85281 0.91110 -0.64000
O 	O 	0.39620 0.91800 0.83710 -0.62300
C 	C 	0.40800 0.86810 0.86000 0.48400
C 	C 	0.36740 0.82630 0.82680 -0.07900
C 	C 	0.37160 0.77390 0.85790 -0.07800
H 	H 	0.39940 0.76440 0.89950 0.07300
C 	C 	0.33360 0.73340 0.82740 0.12700
C 	C 	0.29420 0.74660 0.76750 -0.03900
C 	C 	0.28950 0.80210 0.73670 -0.05000
H 	H 	0.26130 0.81220 0.69630 0.06100
C 	C 	0.32670 0.84050 0.76700 0.00700
H 	H 	0.32420 0.87730 0.74640 0.05900
C 	C 	0.33950 0.67600 0.86500 -0.47000
H 	H 	0.37050 0.67490 0.90660 0.15300
H 	H 	0.34600 0.65000 0.81630 0.14800
H 	H 	0.30570 0.66580 0.89650 0.15800
H 	H 	0.11430 0.96790 0.83080 0.08000
O 	O 	0.55450 0.14719 0.91110 -0.65000
O 	O 	0.60380 0.08200 0.83710 -0.71400
C 	C 	0.59200 0.13190 0.86000 0.49900
C 	C 	0.63260 0.17370 0.82680 -0.11300
C 	C 	0.62840 0.22610 0.85790 -0.06400
H 	H 	0.60060 0.23560 0.89950 0.06700
C 	C 	0.66640 0.26660 0.82740 0.11600
C 	C 	0.70580 0.25340 0.76750 -0.02700
C 	C 	0.71050 0.19790 0.73670 -0.07600
H 	H 	0.73870 0.18780 0.69630 0.05700
C 	C 	0.67330 0.15950 0.76700 0.02300
H 	H 	0.67580 0.12270 0.74640 0.01100
C 	C 	0.66050 0.32400 0.86500 -0.46600
H 	H 	0.62950 0.32510 0.90660 0.15300
H 	H 	0.65400 0.35000 0.81630 0.14800
H 	H 	0.69430 0.33420 0.89650 0.16300
H 	H 	0.88570 0.03210 0.83080 -0.05500
O 	O 	0.14719 0.55450 0.41110 -0.66100
O 	O 	0.08200 0.60380 0.33710 -0.72000
C 	C 	0.13190 0.59200 0.36000 0.49900
C 	C 	0.17370 0.63260 0.32680 -0.12000
C 	C 	0.22610 0.62840 0.35790 -0.06000
H 	H 	0.23560 0.60060 0.39950 0.05900
C 	C 	0.26660 0.66640 0.32740 0.10500
C 	C 	0.25340 0.70580 0.26750 -0.02600
C 	C 	0.19790 0.71050 0.23670 -0.08100
H 	H 	0.18780 0.73870 0.19630 0.05400
C 	C 	0.15950 0.67330 0.26700 0.02500
H 	H 	0.12270 0.67580 0.24640 0.00700
C 	C 	0.32400 0.66050 0.36500 -0.44800
H 	H 	0.32510 0.62950 0.40660 0.14000
H 	H 	0.35000 0.65400 0.31630 0.14000
H 	H 	0.33420 0.69430 0.39650 0.15100
H 	H 	0.03210 0.88570 0.33080 -0.06400
O 	O 	0.85281 0.44550 0.41110 -0.65200
O 	O 	0.91800 0.39620 0.33710 -0.62900
C 	C 	0.86810 0.40800 0.36000 0.48400
C 	C 	0.82630 0.36740 0.32680 -0.08600
C 	C 	0.77390 0.37160 0.35790 -0.07400
H 	H 	0.76440 0.39940 0.39950 0.06600
C 	C 	0.73340 0.33360 0.32740 0.11700
C 	C 	0.74660 0.29420 0.26750 -0.03800
C 	C 	0.80210 0.28950 0.23670 -0.05400
H 	H 	0.81220 0.26130 0.19630 0.05900
C 	C 	0.84050 0.32670 0.26700 0.00800
H 	H 	0.87730 0.32420 0.24640 0.05500
C 	C 	0.67600 0.33950 0.36500 -0.45100
H 	H 	0.67490 0.37050 0.40660 0.14100
H 	H 	0.65000 0.34600 0.31630 0.14000
H 	H 	0.66580 0.30570 0.39650 0.14600
H 	H 	0.96790 0.11430 0.33080 0.07400
O 	O 	0.44550 0.14719 0.91110 -0.65000
O 	O 	0.39620 0.08200 0.83710 -0.71500
C 	C 	0.40800 0.13190 0.86000 0.49800
C 	C 	0.36740 0.17370 0.82680 -0.11300
C 	C 	0.37160 0.22610 0.85790 -0.06600
H 	H 	0.39940 0.23560 0.89950 0.06700
C 	C 	0.33360 0.26660 0.82740 0.11300
C 	C 	0.29420 0.25340 0.76750 -0.03400
C 	C 	0.28950 0.19790 0.73670 -0.07500
H 	H 	0.26130 0.18780 0.69630 0.04400
C 	C 	0.32670 0.15950 0.76700 0.01800
H 	H 	0.32420 0.12270 0.74640 0.00700
C 	C 	0.33950 0.32400 0.86500 -0.45900
H 	H 	0.37050 0.32510 0.90660 0.14900
H 	H 	0.34600 0.35000 0.81630 0.14400
H 	H 	0.30570 0.33420 0.89650 0.15400
H 	H 	0.11430 0.03210 0.83080 -0.08600
O 	O 	0.55450 0.85281 0.91110 -0.64000
O 	O 	0.60380 0.91800 0.83710 -0.62100
C 	C 	0.59200 0.86810 0.86000 0.48400
C 	C 	0.63260 0.82630 0.82680 -0.07800
C 	C 	0.62840 0.77390 0.85790 -0.07700
H 	H 	0.60060 0.76440 0.89950 0.07300
C 	C 	0.66640 0.73340 0.82740 0.12900
C 	C 	0.70580 0.74660 0.76750 -0.03200
C 	C 	0.71050 0.80210 0.73670 -0.05100
H 	H 	0.73870 0.81220 0.69630 0.07400
C 	C 	0.67330 0.84050 0.76700 0.01200
H 	H 	0.67580 0.87730 0.74640 0.06300
C 	C 	0.66050 0.67600 0.86500 -0.47800
H 	H 	0.62950 0.67490 0.90660 0.15700
H 	H 	0.65400 0.65000 0.81630 0.15200
H 	H 	0.69430 0.66580 0.89650 0.16700
H 	H 	0.88570 0.96790 0.83080 0.11100
O 	O 	0.85281 0.55450 0.58890 -0.65100
O 	O 	0.91800 0.60380 0.66290 -0.62300
C 	C 	0.86810 0.59200 0.64000 0.48600
C 	C 	0.82630 0.63260 0.67320 -0.08500
C 	C 	0.77390 0.62840 0.64210 -0.07000
H 	H 	0.76440 0.60060 0.60050 0.06600
C 	C 	0.73340 0.66640 0.67260 0.11800
C 	C 	0.74660 0.70580 0.73250 -0.02500
C 	C 	0.80210 0.71050 0.76330 -0.05600
H 	H 	0.81220 0.73870 0.80370 0.07900
C 	C 	0.84050 0.67330 0.73300 0.01700
H 	H 	0.87730 0.67580 0.75360 0.06300
C 	C 	0.67600 0.66050 0.63500 -0.45900
H 	H 	0.67490 0.62950 0.59340 0.14500
H 	H 	0.65000 0.65400 0.68370 0.14500
H 	H 	0.66580 0.69430 0.60350 0.15600
H 	H 	0.96790 0.88570 0.66920 0.10700
O 	O 	0.14719 0.44550 0.58890 -0.66100
O 	O 	0.08200 0.39620 0.66290 -0.71800
C 	C 	0.13190 0.40800 0.64000 0.50000
C 	C 	0.17370 0.36740 0.67320 -0.12000
C 	C 	0.22610 0.37160 0.64210 -0.05800
H 	H 	0.23560 0.39940 0.60050 0.05900
C 	C 	0.26660 0.33360 0.67260 0.10000
C 	C 	0.25340 0.29420 0.73250 -0.02600
C 	C 	0.19790 0.28950 0.76330 -0.08100
H 	H 	0.18780 0.26130 0.80370 0.04900
C 	C 	0.15950 0.32670 0.73300 0.02400
H 	H 	0.12270 0.32420 0.75360 0.00700
C 	C 	0.32400 0.33950 0.63500 -0.43800
H 	H 	0.32510 0.37050 0.59340 0.13700
H 	H 	0.35000 0.34600 0.68370 0.13700
H 	H 	0.33420 0.30570 0.60350 0.14100
H 	H 	0.03210 0.11430 0.66920 -0.09200
O 	O 	0.55450 0.14719 0.08890 -0.66800
O 	O 	0.60380 0.08200 0.16290 -0.72000
C 	C 	0.59200 0.13190 0.14000 0.50200
C 	C 	0.63260 0.17370 0.17320 -0.12700
C 	C 	0.62840 0.22610 0.14210 -0.05300
H 	H 	0.60060 0.23560 0.10050 0.05200
C 	C 	0.66640 0.26660 0.17260 0.09300
C 	C 	0.70580 0.25340 0.23250 -0.01800
C 	C 	0.71050 0.19790 0.26330 -0.08700
H 	H 	0.73870 0.18780 0.30370 0.05900
C 	C 	0.67330 0.15950 0.23300 0.03100
H 	H 	0.67580 0.12270 0.25360 0.00700
C 	C 	0.66050 0.32400 0.13500 -0.42800
H 	H 	0.62950 0.32510 0.09340 0.12800
H 	H 	0.65400 0.35000 0.18370 0.13300
H 	H 	0.69430 0.33420 0.10350 0.13900
H 	H 	0.88570 0.03210 0.16920 -0.06300
O 	O 	0.44550 0.85281 0.08890 -0.65900
O 	O 	0.39620 0.91800 0.16290 -0.63000
C 	C 	0.40800 0.86810 0.14000 0.48700
C 	C 	0.36740 0.82630 0.17320 -0.09300
C 	C 	0.37160 0.77390 0.14210 -0.06700
H 	H 	0.39940 0.76440 0.10050 0.05800
C 	C 	0.33360 0.73340 0.17260 0.10400
C 	C 	0.29420 0.74660 0.23250 -0.03000
C 	C 	0.28950 0.80210 0.26330 -0.06000
H 	H 	0.26130 0.81220 0.30370 0.06400
C 	C 	0.32670 0.84050 0.23300 0.01400
H 	H 	0.32420 0.87730 0.25360 0.05500
C 	C 	0.33950 0.67600 0.13500 -0.43200
H 	H 	0.37050 0.67490 0.09340 0.12900
H 	H 	0.34600 0.65000 0.18370 0.13300
H 	H 	0.30570 0.66580 0.10350 0.13500
H 	H 	0.11430 0.96790 0.16920 0.07200
Zr	Zr	0.89903 0.50000 0.50000 3.21100
Zr	Zr	0.10097 0.50000 0.50000 3.21200
Zr	Zr	0.50000 0.89903 -0.00000 3.20800
Zr	Zr	0.50000 0.10097 -0.00000 3.21000
Zr	Zr	0.00000 0.42703 0.61706 3.17100
O 	O 	0.00000 0.33520 0.57760 -0.44900
C 	C 	0.00000 0.22450 0.58120 -0.19800
H 	H 	-0.00000 0.24400 0.63600 0.08000
C 	C 	-0.00000 0.16760 0.57910 0.20300
C 	C 	0.00000 0.13690 0.66580 0.31400
O 	O 	0.00000 0.33890 0.60270 -0.15100
H 	H 	0.00000 0.16250 0.71430 -0.10600
H 	H 	-0.00000 0.14770 0.63610 -0.29000
Zr	Zr	0.00000 0.57297 0.61706 3.17100
O 	O 	-0.00000 0.66480 0.57760 -0.44500
C 	C 	0.00000 0.77550 0.58120 -0.16800
H 	H 	0.00000 0.75600 0.63600 0.07700
C 	C 	0.00000 0.83240 0.57910 0.17100
C 	C 	0.00000 0.86310 0.66580 0.36700
O 	O 	0.00000 0.66110 0.60270 -0.15400
H 	H 	0.00000 0.83750 0.71430 -0.10000
H 	H 	0.00000 0.85230 0.63610 -0.31000
Zr	Zr	0.57297 0.00000 0.11706 3.17100
O 	O 	0.66480 0.00000 0.07760 -0.44800
C 	C 	0.77550 0.00000 0.08120 -0.16500
H 	H 	0.75600 0.00000 0.13600 0.07400
C 	C 	0.83240 0.00000 0.07910 0.17200
C 	C 	0.86310 0.00000 0.16580 0.36100
O 	O 	0.66110 0.00000 0.10270 -0.15100
H 	H 	0.83750 0.00000 0.21430 -0.10100
H 	H 	0.85230 0.00000 0.13610 -0.30600
Zr	Zr	0.42703 0.00000 0.11706 3.17100
O 	O 	0.33520 0.00000 0.07760 -0.45200
C 	C 	0.22450 0.00000 0.08120 -0.19400
H 	H 	0.24400 0.00000 0.13600 0.07700
C 	C 	0.16760 0.00000 0.07910 0.20200
C 	C 	0.13690 0.00000 0.16580 0.30800
O 	O 	0.33890 0.00000 0.10270 -0.14900
H 	H 	0.16250 0.00000 0.21430 -0.10700
H 	H 	0.14770 0.00000 0.13610 -0.28600
Zr	Zr	-0.00000 0.42703 0.38294 3.17000
O 	O 	0.00000 0.33520 0.42240 -0.45200
C 	C 	-0.00000 0.22450 0.41880 -0.19700
H 	H 	0.00000 0.24400 0.36400 0.07700
C 	C 	0.00000 0.16760 0.42090 0.20000
C 	C 	-0.00000 0.13690 0.33420 0.31200
O 	O 	0.00000 0.33890 0.39730 -0.15000
H 	H 	0.00000 0.16250 0.28570 -0.10900
H 	H 	-0.00000 0.14770 0.36390 -0.28800
Zr	Zr	0.00000 0.57297 0.38294 3.17000
O 	O 	-0.00000 0.66480 0.42240 -0.44700
C 	C 	0.00000 0.77550 0.41880 -0.16700
H 	H 	0.00000 0.75600 0.36400 0.07400
C 	C 	0.00000 0.83240 0.42090 0.16800
C 	C 	0.00000 0.86310 0.33420 0.36500
O 	O 	0.00000 0.66110 0.39730 -0.15300
H 	H 	0.00000 0.83750 0.28570 -0.10400
H 	H 	0.00000 0.85230 0.36390 -0.30700
Zr	Zr	0.42703 0.00000 0.88294 3.17300
O 	O 	0.33520 0.00000 0.92240 -0.46100
C 	C 	0.22450 0.00000 0.91880 -0.17000
H 	H 	0.24400 0.00000 0.86400 0.07300
C 	C 	0.16760 0.00000 0.92090 0.22900
C 	C 	0.13690 0.00000 0.83420 0.30500
O 	O 	0.33890 0.00000 0.89730 -0.12100
H 	H 	0.16250 0.00000 0.78570 -0.10500
H 	H 	0.14770 0.00000 0.86390 -0.29100
Zr	Zr	0.57297 0.00000 0.88294 3.17300
O 	O 	0.66480 0.00000 0.92240 -0.45700
C 	C 	0.77550 0.00000 0.91880 -0.14100
H 	H 	0.75600 0.00000 0.86400 0.07000
C 	C 	0.83240 0.00000 0.92090 0.20000
C 	C 	0.86310 0.00000 0.83420 0.35800
O 	O 	0.66110 0.00000 0.89730 -0.12400
H 	H 	0.83750 0.00000 0.78570 -0.09800
H 	H 	0.85230 0.00000 0.86390 -0.31100
O 	O 	0.04950 0.50000 0.61970 -1.36600
O 	O 	0.95050 0.50000 0.61970 -1.23400
O 	O 	0.50000 0.04950 0.11970 -1.36700
O 	O 	0.50000 0.95050 0.11970 -1.23800
O 	O 	0.95050 0.50000 0.38030 -1.23700
O 	O 	0.04950 0.50000 0.38030 -1.36900
O 	O 	0.50000 0.04950 0.88030 -1.35600
O 	O 	0.50000 0.95050 0.88030 -1.22600
O 	O 	0.94990 0.42810 0.50000 -1.19000
O 	O 	0.05010 0.57190 0.50000 -1.31700
O 	O 	0.57190 0.94990 -0.00000 -1.20700
O 	O 	0.42810 0.05010 -0.00000 -1.33000
O 	O 	0.05010 0.42810 0.50000 -1.31800
O 	O 	0.94990 0.57190 0.50000 -1.18900
O 	O 	0.42810 0.94990 -0.00000 -1.20700
O 	O 	0.57190 0.05010 -0.00000 -1.33000
C 	C 	-0.00000 0.31450 0.50000 0.26100
C 	C 	-0.00000 0.25340 0.50000 0.03000
C 	C 	0.00000 0.13850 0.50000 -0.25300
C 	C 	0.00000 0.07760 0.50000 0.13100
C 	C 	-0.00000 0.02870 0.50000 -0.39500
C 	C 	0.00000 0.68550 0.50000 0.26600
C 	C 	0.00000 0.74660 0.50000 0.01600
C 	C 	0.00000 0.86150 0.50000 -0.10500
C 	C 	-0.00000 0.92240 0.50000 -0.12400
C 	C 	0.00000 0.97130 0.50000 0.27300
C 	C 	0.68550 0.00000 -0.00000 0.25600
C 	C 	0.74660 0.00000 -0.00000 -0.01200
C 	C 	0.86150 0.00000 -0.00000 -0.13800
C 	C 	0.92240 0.00000 -0.00000 -0.12300
C 	C 	0.97130 0.00000 -0.00000 0.26100
C 	C 	0.31450 0.00000 -0.00000 0.25200
C 	C 	0.25340 0.00000 -0.00000 0.00200
C 	C 	0.13850 0.00000 -0.00000 -0.28100
C 	C 	0.07760 0.00000 -0.00000 0.13000
C 	C 	0.02870 0.00000 -0.00000 -0.39900
