data_crystal

_cell_length_a 15.48300
_cell_length_b 15.48300
_cell_length_c 12.30800
_cell_angle_alpha 90.00000
_cell_angle_beta  90.00000
_cell_angle_gamma 90.00000

_symmetry_space_group_name_	'P 1'
_symmetry_space_group_name_H-M	'P 1'

loop_
_symmetry_equiv_pos_as_xyz
  x,y,z

loop_
_atom_site_label
_atom_site_type_symbol
_atom_site_fract_x
_atom_site_fract_y
_atom_site_fract_z
_atom_site_charge
O 	O 	0.38290 0.61370 0.38510 -0.54400
O 	O 	0.29072 0.59251 0.24580 -0.56800
O 	O 	0.23440 0.75480 0.38730 -0.46100
H 	H 	0.22210 0.80690 0.39670 0.16500
C 	C 	0.43190 0.53720 0.11880 0.07300
H 	H 	0.38440 0.56140 0.08050 -0.01500
C 	C 	0.43230 0.53960 0.23280 -0.17700
C 	C 	0.36250 0.58490 0.29180 0.45200
O 	O 	0.88290 0.11370 0.88510 -0.51500
O 	O 	0.79072 0.09251 0.74580 -0.55100
O 	O 	0.73440 0.25480 0.88730 -0.47000
H 	H 	0.72210 0.30690 0.89670 0.18100
C 	C 	0.93190 0.03720 0.61880 0.01600
H 	H 	0.88440 0.06140 0.58050 0.02400
C 	C 	0.93230 0.03960 0.73280 -0.11500
C 	C 	0.86250 0.08490 0.79180 0.43000
O 	O 	0.11710 0.88630 0.88510 -0.51100
O 	O 	0.20928 0.90749 0.74580 -0.54700
O 	O 	0.26560 0.74520 0.88730 -0.47000
H 	H 	0.27790 0.69310 0.89670 0.18100
C 	C 	0.06810 0.96280 0.61880 0.02700
H 	H 	0.11560 0.93860 0.58050 0.02400
C 	C 	0.06770 0.96040 0.73280 -0.10500
C 	C 	0.13750 0.91510 0.79180 0.42900
O 	O 	0.61710 0.38630 0.38510 -0.54600
O 	O 	0.70928 0.40749 0.24580 -0.56800
O 	O 	0.76560 0.24520 0.38730 -0.46100
H 	H 	0.77790 0.19310 0.39670 0.16400
C 	C 	0.56810 0.46280 0.11880 0.07300
H 	H 	0.61560 0.43860 0.08050 -0.01500
C 	C 	0.56770 0.46040 0.23280 -0.17700
C 	C 	0.63750 0.41510 0.29180 0.45300
O 	O 	0.38630 0.88290 0.63510 -0.52800
O 	O 	0.40749 0.79072 0.49580 -0.55400
O 	O 	0.24520 0.73440 0.63730 -0.46000
H 	H 	0.19310 0.72210 0.64670 0.16400
C 	C 	0.46280 0.93190 0.36880 -0.00700
H 	H 	0.43860 0.88440 0.33050 0.03400
C 	C 	0.46040 0.93230 0.48280 -0.09600
C 	C 	0.41510 0.86250 0.54180 0.42700
O 	O 	0.88630 0.38290 0.13510 -0.49400
O 	O 	0.90749 0.29072 0.99580 -0.44200
O 	O 	0.74520 0.23440 0.13730 -0.48000
H 	H 	0.69310 0.22210 0.14670 0.16900
C 	C 	0.96280 0.43190 0.86880 -0.16800
H 	H 	0.93860 0.38440 0.83050 0.09000
C 	C 	0.96040 0.43230 0.98280 0.19200
C 	C 	0.91510 0.36250 0.04180 0.20100
O 	O 	0.11370 0.61710 0.13510 -0.49700
O 	O 	0.09251 0.70928 0.99580 -0.44200
O 	O 	0.25480 0.76560 0.13730 -0.48100
H 	H 	0.30690 0.77790 0.14670 0.17100
C 	C 	0.03720 0.56810 0.86880 -0.17600
H 	H 	0.06140 0.61560 0.83050 0.09100
C 	C 	0.03960 0.56770 0.98280 0.18500
C 	C 	0.08490 0.63750 0.04180 0.20200
O 	O 	0.61370 0.11710 0.63510 -0.53500
O 	O 	0.59251 0.20928 0.49580 -0.55600
O 	O 	0.75480 0.26560 0.63730 -0.46100
H 	H 	0.80690 0.27790 0.64670 0.16400
C 	C 	0.53720 0.06810 0.36880 -0.02600
H 	H 	0.56140 0.11560 0.33050 0.03600
C 	C 	0.53960 0.06770 0.48280 -0.11200
C 	C 	0.58490 0.13750 0.54180 0.42800
O 	O 	0.11710 0.61370 0.36490 -0.54900
O 	O 	0.20928 0.59251 0.50420 -0.56100
O 	O 	0.26560 0.75480 0.36270 -0.45900
H 	H 	0.27790 0.80690 0.35330 0.16400
C 	C 	0.06810 0.53720 0.63120 0.05500
H 	H 	0.11560 0.56140 0.66950 0.01100
C 	C 	0.06770 0.53960 0.51720 -0.16000
C 	C 	0.13750 0.58490 0.45820 0.44700
O 	O 	0.61710 0.11370 0.86490 -0.58600
O 	O 	0.70928 0.09251 0.00420 -0.66700
O 	O 	0.76560 0.25480 0.86270 -0.43600
H 	H 	0.77790 0.30690 0.85330 0.15700
C 	C 	0.56810 0.03720 0.13120 0.20300
H 	H 	0.61560 0.06140 0.16950 -0.04300
C 	C 	0.56770 0.03960 0.01720 -0.45300
C 	C 	0.63750 0.08490 0.95820 0.67000
O 	O 	0.38290 0.88630 0.86490 -0.58000
O 	O 	0.29072 0.90749 0.00420 -0.66500
O 	O 	0.23440 0.74520 0.86270 -0.43500
H 	H 	0.22210 0.69310 0.85330 0.15600
C 	C 	0.43190 0.96280 0.13120 0.22200
H 	H 	0.38440 0.93860 0.16950 -0.04500
C 	C 	0.43230 0.96040 0.01720 -0.44100
C 	C 	0.36250 0.91510 0.95820 0.67300
O 	O 	0.88290 0.38630 0.36490 -0.54600
O 	O 	0.79072 0.40749 0.50420 -0.55900
O 	O 	0.73440 0.24520 0.36270 -0.45900
H 	H 	0.72210 0.19310 0.35330 0.16300
C 	C 	0.93190 0.46280 0.63120 0.06300
H 	H 	0.88440 0.43860 0.66950 0.01000
C 	C 	0.93230 0.46040 0.51720 -0.15300
C 	C 	0.86250 0.41510 0.45820 0.44600
O 	O 	0.11370 0.88290 0.11490 -0.55500
O 	O 	0.09251 0.79072 0.25420 -0.56300
O 	O 	0.25480 0.73440 0.11270 -0.44700
H 	H 	0.30690 0.72210 0.10330 0.14600
C 	C 	0.03720 0.93190 0.38120 0.03800
H 	H 	0.06140 0.88440 0.41950 0.01800
C 	C 	0.03960 0.93230 0.26720 -0.12800
C 	C 	0.08490 0.86250 0.20820 0.43700
O 	O 	0.61370 0.38290 0.61490 -0.53700
O 	O 	0.59251 0.29072 0.75420 -0.54800
O 	O 	0.75480 0.23440 0.61270 -0.45800
H 	H 	0.80690 0.22210 0.60330 0.16300
C 	C 	0.53720 0.43190 0.88120 -0.04200
H 	H 	0.56140 0.38440 0.91950 0.06300
C 	C 	0.53960 0.43230 0.76720 -0.10200
C 	C 	0.58490 0.36250 0.70820 0.42700
O 	O 	0.38630 0.61710 0.61490 -0.53700
O 	O 	0.40749 0.70928 0.75420 -0.54600
O 	O 	0.24520 0.76560 0.61270 -0.45900
H 	H 	0.19310 0.77790 0.60330 0.16300
C 	C 	0.46280 0.56810 0.88120 -0.04200
H 	H 	0.43860 0.61560 0.91950 0.06400
C 	C 	0.46040 0.56770 0.76720 -0.10100
C 	C 	0.41510 0.63750 0.70820 0.42700
O 	O 	0.88630 0.11710 0.11490 -0.55900
O 	O 	0.90749 0.20928 0.25420 -0.56300
O 	O 	0.74520 0.26560 0.11270 -0.44700
H 	H 	0.69310 0.27790 0.10330 0.14600
C 	C 	0.96280 0.06810 0.38120 0.02700
H 	H 	0.93860 0.11560 0.41950 0.02000
C 	C 	0.96040 0.06770 0.26720 -0.13600
C 	C 	0.91510 0.13750 0.20820 0.43800
In	In	0.31142 0.68858 0.50000 2.01100
In	In	0.81142 0.18858 -0.00000 1.99400
In	In	0.18858 0.81142 -0.00000 1.99400
In	In	0.68858 0.31142 0.50000 2.01100
In	In	0.31142 0.81142 0.75000 2.01300
In	In	0.81142 0.31142 0.25000 2.00900
In	In	0.18858 0.68858 0.25000 2.00900
In	In	0.68858 0.18858 0.75000 2.01200
C 	C 	0.50000 0.50000 0.06020 -0.14100
C 	C 	0.50000 0.50000 0.28860 0.11100
H 	H 	0.50000 0.50000 0.36580 0.02900
C 	C 	0.00000 0.00000 0.56020 -0.03600
C 	C 	-0.00000 0.00000 0.78860 0.03100
H 	H 	0.00000 0.00000 0.86580 0.05900
C 	C 	0.50000 0.00000 0.31020 0.03200
C 	C 	0.50000 -0.00000 0.53860 0.03100
H 	H 	0.50000 -0.00000 0.61580 0.05400
C 	C 	0.00000 0.50000 0.81020 0.12700
C 	C 	0.00000 0.50000 0.03860 -0.31700
H 	H 	0.00000 0.50000 0.11580 0.15700
C 	C 	-0.00000 0.50000 0.68980 -0.09100
C 	C 	0.00000 0.50000 0.46140 0.09000
H 	H 	-0.00000 0.50000 0.38420 0.02900
C 	C 	0.50000 0.00000 0.18980 -0.18300
C 	C 	0.50000 0.00000 0.96140 0.43700
H 	H 	0.50000 0.00000 0.88420 -0.07400
C 	C 	0.00000 0.00000 0.43980 -0.04700
C 	C 	-0.00000 0.00000 0.21140 0.04800
H 	H 	-0.00000 0.00000 0.13420 0.02900
C 	C 	0.50000 0.50000 0.93980 0.10600
C 	C 	0.50000 0.50000 0.71140 0.05100
H 	H 	0.50000 0.50000 0.63420 0.05000
