data_crystal

_cell_length_a 13.17410
_cell_length_b 13.21900
_cell_length_c 14.02880
_cell_angle_alpha 82.98900
_cell_angle_beta  82.36900
_cell_angle_gamma 84.05400

_symmetry_space_group_name_	'P 1'
_symmetry_space_group_name_H-M	'P 1'

loop_
_symmetry_equiv_pos_as_xyz
  x,y,z

loop_
_atom_site_label
_atom_site_type_symbol
_atom_site_fract_x
_atom_site_fract_y
_atom_site_fract_z
_atom_site_charge
Zn	Zn	0.36397 0.17197 0.79901 1.21800
Zn	Zn	0.37384 0.17761 0.58883 1.21700
H 	H 	0.33990 0.49590 0.80530 0.06000
H 	H 	0.33800 0.65920 0.86710 0.07500
H 	H 	0.34440 0.84360 0.85600 0.02200
H 	H 	0.39890 0.51180 0.51980 0.03800
H 	H 	0.40720 0.68570 0.51340 0.07000
H 	H 	0.38630 0.84660 0.58340 0.05000
H 	H 	0.04990 0.18010 0.58900 0.06200
H 	H 	0.89080 0.16460 0.52240 0.07800
H 	H 	0.71100 0.16140 0.53440 0.02100
H 	H 	0.85100 0.17800 0.87640 0.05700
H 	H 	0.02640 0.17370 0.87010 0.04300
H 	H 	0.69190 0.16980 0.80690 0.04300
H 	H 	0.23870 0.27230 0.95670 0.03600
H 	H 	0.49170 0.09390 0.12150 0.07000
H 	H 	0.49390 0.09120 0.95680 0.00700
H 	H 	0.34170 0.34260 0.25410 0.08700
H 	H 	0.35080 0.33130 0.41850 0.00200
H 	H 	0.38560 0.03160 0.44030 0.00600
H 	H 	0.38420 0.03380 0.27500 0.09000
C 	C 	0.36670 0.37200 0.67030 0.38600
C 	C 	0.36760 0.48500 0.66250 -0.09000
C 	C 	0.35230 0.53470 0.74400 -0.05100
C 	C 	0.34760 0.69380 0.80360 -0.13300
C 	C 	0.35230 0.81210 0.79780 0.06600
C 	C 	0.38730 0.54290 0.57830 0.02200
C 	C 	0.39110 0.64840 0.57500 -0.08600
C 	C 	0.36550 0.86400 0.72180 -0.13400
C 	C 	0.37630 0.80990 0.64600 0.00000
C 	C 	0.35430 0.64080 0.73980 0.06800
C 	C 	0.37390 0.70050 0.65130 0.00700
C 	C 	0.36950 0.97730 0.71050 0.40100
C 	C 	0.17200 0.18190 0.72090 0.38900
C 	C 	0.05760 0.18030 0.72920 -0.08500
C 	C 	0.00960 0.17870 0.65050 -0.04800
C 	C 	0.85270 0.16820 0.58450 -0.13000
C 	C 	0.74020 0.16530 0.59210 0.06700
C 	C 	0.89080 0.17650 0.81480 -0.07300
C 	C 	0.99710 0.17650 0.81140 0.01200
C 	C 	0.68060 0.16750 0.66960 -0.13900
C 	C 	0.73080 0.17040 0.74480 0.00700
C 	C 	0.90230 0.17520 0.65470 0.06200
C 	C 	0.84070 0.17450 0.73920 -0.00300
C 	C 	0.56720 0.16510 0.67970 0.39600
C 	C 	0.29070 0.23540 0.99120 0.00300
C 	C 	0.28610 0.24380 0.08880 0.04800
C 	C 	0.36040 0.18820 0.14060 -0.01600
C 	C 	0.43830 0.13140 0.08920 -0.08900
C 	C 	0.43880 0.12920 0.99120 0.05500
C 	C 	0.35950 0.18720 0.24640 0.09800
C 	C 	0.35090 0.27770 0.29070 -0.14200
C 	C 	0.35610 0.26980 0.38880 0.08600
C 	C 	0.37720 0.09550 0.40180 0.08800
C 	C 	0.37500 0.09640 0.30330 -0.14600
C 	C 	0.05860 0.41220 0.13830 0.08800
C 	C 	0.90740 0.55230 0.19170 -0.04500
C 	C 	0.07580 0.46510 0.20400 -0.07900
C 	C 	0.99410 0.53770 0.22950 0.00300
C 	C 	0.88450 0.49080 0.12310 -0.00500
C 	C 	0.96380 0.41440 0.09300 -0.06300
N 	N 	0.36420 0.17860 0.94300 -0.23200
N 	N 	0.20540 0.30660 0.13800 -0.07800
N 	N 	0.14430 0.34870 0.09270 -0.08400
N 	N 	0.36810 0.18120 0.44450 -0.25500
O 	O 	0.35700 0.32380 0.75340 -0.47000
O 	O 	0.37450 0.33060 0.59340 -0.45900
O 	O 	0.22100 0.18800 0.63900 -0.47400
O 	O 	0.21000 0.17690 0.79920 -0.45600
O 	O 	0.52720 0.16460 0.60270 -0.46500
O 	O 	0.51820 0.16220 0.76270 -0.47100
O 	O 	0.36820 0.01820 0.78750 -0.46000
O 	O 	0.37450 0.02410 0.62790 -0.46800
H 	H 	0.15261 0.38364 0.78608 0.05000
H 	H 	0.99234 0.41406 0.71211 0.03400
H 	H 	0.19356 0.49661 0.90519 0.03300
H 	H 	0.04192 0.64183 0.96113 0.05200
H 	H 	0.15189 0.45086 0.23588 0.05700
Zn	Zn	0.63603 0.82803 0.20099 1.21700
Zn	Zn	0.62616 0.82239 0.41117 1.21600
H 	H 	0.66010 0.50410 0.19470 0.06000
H 	H 	0.66200 0.34080 0.13290 0.07500
H 	H 	0.65560 0.15640 0.14400 0.02200
H 	H 	0.60110 0.48820 0.48020 0.03800
H 	H 	0.59280 0.31430 0.48660 0.07000
H 	H 	0.61370 0.15340 0.41660 0.05000
H 	H 	0.95010 0.81990 0.41100 0.06200
H 	H 	0.10920 0.83540 0.47760 0.07800
H 	H 	0.28900 0.83860 0.46560 0.02100
H 	H 	0.14900 0.82200 0.12360 0.05700
H 	H 	0.97360 0.82630 0.12990 0.04300
H 	H 	0.30810 0.83020 0.19310 0.04300
H 	H 	0.76130 0.72770 0.04330 0.03600
H 	H 	0.50830 0.90610 0.87850 0.07000
H 	H 	0.50610 0.90880 0.04320 0.00700
H 	H 	0.65830 0.65740 0.74590 0.08700
H 	H 	0.64920 0.66870 0.58150 0.00200
H 	H 	0.61440 0.96840 0.55970 0.00600
H 	H 	0.61580 0.96620 0.72500 0.09000
C 	C 	0.63330 0.62800 0.32970 0.38600
C 	C 	0.63240 0.51500 0.33750 -0.09000
C 	C 	0.64770 0.46530 0.25600 -0.05100
C 	C 	0.65240 0.30620 0.19640 -0.13300
C 	C 	0.64770 0.18790 0.20220 0.06600
C 	C 	0.61270 0.45710 0.42170 0.02200
C 	C 	0.60890 0.35160 0.42500 -0.08600
C 	C 	0.63450 0.13600 0.27820 -0.13400
C 	C 	0.62370 0.19010 0.35400 0.00000
C 	C 	0.64570 0.35920 0.26020 0.06800
C 	C 	0.62610 0.29950 0.34870 0.00700
C 	C 	0.63050 0.02270 0.28950 0.40100
C 	C 	0.82800 0.81810 0.27910 0.38900
C 	C 	0.94240 0.81970 0.27080 -0.08500
C 	C 	0.99040 0.82130 0.34950 -0.04800
C 	C 	0.14730 0.83180 0.41550 -0.13000
C 	C 	0.25980 0.83470 0.40790 0.06700
C 	C 	0.10920 0.82350 0.18520 -0.07300
C 	C 	0.00290 0.82350 0.18860 0.01200
C 	C 	0.31940 0.83250 0.33040 -0.13900
C 	C 	0.26920 0.82960 0.25520 0.00700
C 	C 	0.09770 0.82480 0.34530 0.06200
C 	C 	0.15930 0.82550 0.26080 -0.00300
C 	C 	0.43280 0.83490 0.32030 0.39600
C 	C 	0.70930 0.76460 0.00880 0.00300
C 	C 	0.71390 0.75620 0.91120 0.04800
C 	C 	0.63960 0.81180 0.85940 -0.01600
C 	C 	0.56170 0.86860 0.91080 -0.08900
C 	C 	0.56120 0.87080 0.00880 0.05500
C 	C 	0.64050 0.81280 0.75360 0.09800
C 	C 	0.64910 0.72230 0.70930 -0.14200
C 	C 	0.64390 0.73020 0.61120 0.08600
C 	C 	0.62280 0.90450 0.59820 0.08800
C 	C 	0.62500 0.90360 0.69670 -0.14600
C 	C 	0.94140 0.58780 0.86170 0.08800
C 	C 	0.09260 0.44770 0.80830 -0.04500
C 	C 	0.92420 0.53490 0.79600 -0.07900
C 	C 	0.00590 0.46230 0.77050 0.00300
C 	C 	0.11550 0.50920 0.87690 -0.00500
C 	C 	0.03620 0.58560 0.90700 -0.06300
N 	N 	0.63580 0.82140 0.05700 -0.23200
N 	N 	0.79460 0.69340 0.86200 -0.07800
N 	N 	0.85570 0.65130 0.90730 -0.08400
N 	N 	0.63190 0.81880 0.55550 -0.25500
O 	O 	0.64300 0.67620 0.24660 -0.47000
O 	O 	0.62550 0.66940 0.40660 -0.45900
O 	O 	0.77900 0.81200 0.36100 -0.47400
O 	O 	0.79000 0.82310 0.20080 -0.45600
O 	O 	0.47280 0.83540 0.39730 -0.46500
O 	O 	0.48180 0.83780 0.23730 -0.47100
O 	O 	0.63180 0.98180 0.21250 -0.46000
O 	O 	0.62550 0.97590 0.37210 -0.46800
H 	H 	0.84739 0.61636 0.21392 0.05000
H 	H 	0.00766 0.58594 0.28789 0.03400
H 	H 	0.80644 0.50339 0.09481 0.03300
H 	H 	0.95808 0.35817 0.03887 0.05200
H 	H 	0.84811 0.54914 0.76412 0.05700
