data_crystal

_cell_length_a 11.45070
_cell_length_b 11.46350
_cell_length_c 21.12100
_cell_angle_alpha 90.00000
_cell_angle_beta  90.00000
_cell_angle_gamma 90.00000

_symmetry_space_group_name_	'P 1'
_symmetry_space_group_name_H-M	'P 1'

loop_
_symmetry_equiv_pos_as_xyz
  x,y,z

loop_
_atom_site_label
_atom_site_type_symbol
_atom_site_fract_x
_atom_site_fract_y
_atom_site_fract_z
_atom_site_charge
C 	C 	0.04690 0.74750 0.70310 0.05600
C 	C 	0.04520 0.62840 0.70080 -0.13600
C 	C 	0.74700 0.96280 0.70020 0.08700
C 	C 	0.62750 0.96150 0.69840 -0.09100
H 	H 	0.08320 0.78840 0.66980 0.00200
H 	H 	0.07850 0.59000 0.66600 0.08000
H 	H 	0.78890 0.93670 0.66520 0.00500
H 	H 	0.58850 0.93490 0.66220 0.06900
C 	C 	0.95310 0.25250 0.70310 0.10200
C 	C 	0.95480 0.37160 0.70080 -0.10300
C 	C 	0.25300 0.03720 0.70020 0.05400
C 	C 	0.37250 0.03850 0.69840 -0.13200
H 	H 	0.91680 0.21160 0.66980 -0.01000
H 	H 	0.92150 0.41000 0.66600 0.08400
H 	H 	0.21110 0.06330 0.66520 -0.00700
H 	H 	0.41150 0.06510 0.66220 0.06500
C 	C 	0.95310 0.74750 0.79690 0.09300
C 	C 	0.95480 0.62840 0.79920 -0.09700
C 	C 	0.25300 0.96280 0.79980 0.09600
C 	C 	0.37250 0.96150 0.80160 -0.09700
H 	H 	0.91680 0.78840 0.83020 0.00300
H 	H 	0.92150 0.59000 0.83400 0.08300
H 	H 	0.21110 0.93670 0.83480 -0.00700
H 	H 	0.41150 0.93490 0.83780 0.07000
C 	C 	0.04690 0.25250 0.79690 0.05900
C 	C 	0.04520 0.37160 0.79920 -0.14200
C 	C 	0.74700 0.03720 0.79980 0.05100
C 	C 	0.62750 0.03850 0.80160 -0.12600
H 	H 	0.08320 0.21160 0.83020 -0.01400
H 	H 	0.07850 0.41000 0.83400 0.07900
H 	H 	0.78890 0.06330 0.83480 0.00300
H 	H 	0.58850 0.06510 0.83780 0.06100
C 	C 	0.95310 0.25250 0.29690 0.10200
C 	C 	0.95480 0.37160 0.29920 -0.10200
C 	C 	0.25300 0.03720 0.29980 0.05400
C 	C 	0.37250 0.03850 0.30160 -0.13200
H 	H 	0.91680 0.21160 0.33020 -0.01000
H 	H 	0.92150 0.41000 0.33400 0.08400
H 	H 	0.21110 0.06330 0.33480 -0.00700
H 	H 	0.41150 0.06510 0.33780 0.06500
C 	C 	0.04690 0.74750 0.29690 0.05700
C 	C 	0.04520 0.62840 0.29920 -0.13600
C 	C 	0.74700 0.96280 0.29980 0.08800
C 	C 	0.62750 0.96150 0.30160 -0.09100
H 	H 	0.08320 0.78840 0.33020 0.00300
H 	H 	0.07850 0.59000 0.33400 0.08000
H 	H 	0.78890 0.93670 0.33480 0.00500
H 	H 	0.58850 0.93490 0.33780 0.06900
C 	C 	0.04690 0.25250 0.20310 0.05900
C 	C 	0.04520 0.37160 0.20080 -0.14200
C 	C 	0.74700 0.03720 0.20020 0.05200
C 	C 	0.62750 0.03850 0.19840 -0.12600
H 	H 	0.08320 0.21160 0.16980 -0.01300
H 	H 	0.07850 0.41000 0.16600 0.08000
H 	H 	0.78890 0.06330 0.16520 0.00500
H 	H 	0.58850 0.06510 0.16220 0.06300
C 	C 	0.95310 0.74750 0.20310 0.09300
C 	C 	0.95480 0.62840 0.20080 -0.09600
C 	C 	0.25300 0.96280 0.20020 0.09700
C 	C 	0.37250 0.96150 0.19840 -0.09600
H 	H 	0.91680 0.78840 0.16980 0.00400
H 	H 	0.92150 0.59000 0.16600 0.08400
H 	H 	0.21110 0.93670 0.16520 -0.00600
H 	H 	0.41150 0.93490 0.16220 0.07100
Au	Au	0.00000 0.00000 0.50000 0.35400
Au	Au	-0.00000 0.00000 -0.00000 0.35700
Br	Br	0.79699 0.93891 0.50000 -0.26200
Br	Br	0.20301 0.06109 0.50000 -0.33900
Br	Br	0.20301 0.93891 -0.00000 -0.28100
Br	Br	0.79699 0.06109 -0.00000 -0.29900
Zn	Zn	0.00000 0.00000 0.75000 1.16600
Zn	Zn	0.00000 0.00000 0.25000 1.16600
N 	N 	0.00000 0.00000 0.64790 -0.25600
C 	C 	0.00000 0.00000 0.59430 -0.00700
N 	N 	0.00000 0.00000 0.85210 -0.25500
C 	C 	0.00000 0.00000 0.90570 -0.01500
N 	N 	0.00000 0.00000 0.35210 -0.25600
C 	C 	0.00000 0.00000 0.40570 -0.00700
N 	N 	0.00000 0.00000 0.14790 -0.25600
C 	C 	0.00000 0.00000 0.09430 -0.00800
N 	N 	0.00000 0.81000 0.75000 -0.26200
C 	C 	0.00000 0.56450 0.75000 0.02100
N 	N 	0.00000 0.19000 0.75000 -0.27800
C 	C 	0.00000 0.43550 0.75000 0.02300
N 	N 	0.00000 0.19000 0.25000 -0.27800
C 	C 	-0.00000 0.43550 0.25000 0.02300
N 	N 	0.00000 0.81000 0.25000 -0.26200
C 	C 	-0.00000 0.56450 0.25000 0.02100
N 	N 	0.80910 0.00000 0.75000 -0.25500
C 	C 	0.56430 0.00000 0.75000 0.01000
N 	N 	0.19090 0.00000 0.75000 -0.27100
C 	C 	0.43570 0.00000 0.75000 0.01300
N 	N 	0.19090 0.00000 0.25000 -0.27100
C 	C 	0.43570 0.00000 0.25000 0.01200
N 	N 	0.80910 0.00000 0.25000 -0.25500
C 	C 	0.56430 0.00000 0.25000 0.01000
C 	C 	0.57100 0.40900 0.21150 -0.57400
C 	C 	0.64000 0.44400 0.16720 0.56400
C 	C 	0.71900 0.33910 0.13830 -0.85300
C 	C 	0.77500 0.39200 0.08800 0.62600
H 	H 	0.61660 0.36480 0.24080 0.21300
H 	H 	0.51800 0.35830 0.19060 0.20700
H 	H 	0.69230 0.49750 0.18700 -0.12700
H 	H 	0.59620 0.48400 0.13580 -0.13300
H 	H 	0.77550 0.30800 0.16690 0.30100
H 	H 	0.66950 0.27830 0.12410 0.29900
H 	H 	0.82140 0.33700 0.06530 -0.14800
H 	H 	0.82330 0.45270 0.10340 -0.15600
H 	H 	0.71720 0.42310 0.06060 -0.15000
C 	C 	0.42900 0.59100 0.21150 -0.53900
C 	C 	0.36000 0.55600 0.16720 0.51200
C 	C 	0.28100 0.66090 0.13830 -0.78200
C 	C 	0.22500 0.60800 0.08800 0.54900
H 	H 	0.38340 0.63520 0.24080 0.20300
H 	H 	0.48200 0.64170 0.19060 0.20100
H 	H 	0.30770 0.50250 0.18700 -0.11600
H 	H 	0.40380 0.51600 0.13580 -0.11800
H 	H 	0.22450 0.69200 0.16690 0.27200
H 	H 	0.33050 0.72170 0.12410 0.28000
H 	H 	0.17860 0.66300 0.06530 -0.13400
H 	H 	0.17670 0.54730 0.10340 -0.14500
H 	H 	0.28280 0.57690 0.06060 -0.13000
C 	C 	0.42900 0.40900 0.28850 -0.53500
C 	C 	0.36000 0.44400 0.33280 0.51200
C 	C 	0.28100 0.33910 0.36170 -0.79600
C 	C 	0.22500 0.39200 0.41200 0.57500
H 	H 	0.38340 0.36480 0.25920 0.19900
H 	H 	0.48200 0.35830 0.30940 0.19600
H 	H 	0.30770 0.49750 0.31300 -0.11500
H 	H 	0.40380 0.48400 0.36420 -0.11800
H 	H 	0.22450 0.30800 0.33310 0.27400
H 	H 	0.33050 0.27830 0.37590 0.28000
H 	H 	0.17860 0.33700 0.43470 -0.14600
H 	H 	0.17670 0.45270 0.39660 -0.15300
H 	H 	0.28280 0.42310 0.43940 -0.13900
C 	C 	0.57100 0.59100 0.28850 -0.56400
C 	C 	0.64000 0.55600 0.33280 0.54500
C 	C 	0.71900 0.66090 0.36170 -0.81700
C 	C 	0.77500 0.60800 0.41200 0.58000
H 	H 	0.61660 0.63520 0.25920 0.21300
H 	H 	0.51800 0.64170 0.30940 0.20700
H 	H 	0.69230 0.50250 0.31300 -0.12300
H 	H 	0.59620 0.51600 0.36420 -0.12900
H 	H 	0.77550 0.69200 0.33310 0.29200
H 	H 	0.66950 0.72170 0.37590 0.29100
H 	H 	0.82140 0.66300 0.43470 -0.13400
H 	H 	0.82330 0.54730 0.39660 -0.14400
H 	H 	0.71720 0.57690 0.43940 -0.13800
N 	N 	0.50000 0.50000 0.25000 0.12700
C 	C 	0.42900 0.59100 0.78850 -0.52100
C 	C 	0.36000 0.55600 0.83280 0.48900
C 	C 	0.28100 0.66090 0.86170 -0.75600
C 	C 	0.22500 0.60800 0.91200 0.52400
H 	H 	0.38340 0.63520 0.75920 0.19800
H 	H 	0.48200 0.64170 0.80940 0.19500
H 	H 	0.30770 0.50250 0.81300 -0.10900
H 	H 	0.40380 0.51600 0.86420 -0.11300
H 	H 	0.22450 0.69200 0.83310 0.26400
H 	H 	0.33050 0.72170 0.87590 0.27000
H 	H 	0.17860 0.66300 0.93470 -0.13100
H 	H 	0.17670 0.54730 0.89660 -0.14000
H 	H 	0.28280 0.57690 0.93940 -0.12700
C 	C 	0.57100 0.40900 0.78850 -0.55500
C 	C 	0.64000 0.44400 0.83280 0.54000
C 	C 	0.71900 0.33910 0.86170 -0.82500
C 	C 	0.77500 0.39200 0.91200 0.59900
H 	H 	0.61660 0.36480 0.75920 0.20700
H 	H 	0.51800 0.35830 0.80940 0.20000
H 	H 	0.69230 0.49750 0.81300 -0.12100
H 	H 	0.59620 0.48400 0.86420 -0.12700
H 	H 	0.77550 0.30800 0.83310 0.29200
H 	H 	0.66950 0.27830 0.87590 0.28800
H 	H 	0.82140 0.33700 0.93470 -0.14400
H 	H 	0.82330 0.45270 0.89660 -0.15000
H 	H 	0.71720 0.42310 0.93940 -0.14600
C 	C 	0.57100 0.59100 0.71150 -0.56300
C 	C 	0.64000 0.55600 0.66720 0.54500
C 	C 	0.71900 0.66090 0.63830 -0.81800
C 	C 	0.77500 0.60800 0.58800 0.58100
H 	H 	0.61660 0.63520 0.74080 0.21200
H 	H 	0.51800 0.64170 0.69060 0.20700
H 	H 	0.69230 0.50250 0.68700 -0.12300
H 	H 	0.59620 0.51600 0.63580 -0.12900
H 	H 	0.77550 0.69200 0.66690 0.29200
H 	H 	0.66950 0.72170 0.62410 0.29100
H 	H 	0.82140 0.66300 0.56530 -0.13400
H 	H 	0.82330 0.54730 0.60340 -0.14400
H 	H 	0.71720 0.57690 0.56060 -0.13900
C 	C 	0.42900 0.40900 0.71150 -0.53400
C 	C 	0.36000 0.44400 0.66720 0.51300
C 	C 	0.28100 0.33910 0.63830 -0.79700
C 	C 	0.22500 0.39200 0.58800 0.57600
H 	H 	0.38340 0.36480 0.74080 0.19900
H 	H 	0.48200 0.35830 0.69060 0.19600
H 	H 	0.30770 0.49750 0.68700 -0.11500
H 	H 	0.40380 0.48400 0.63580 -0.11800
H 	H 	0.22450 0.30800 0.66690 0.27400
H 	H 	0.33050 0.27830 0.62410 0.28000
H 	H 	0.17860 0.33700 0.56530 -0.14600
H 	H 	0.17670 0.45270 0.60340 -0.15300
H 	H 	0.28280 0.42310 0.56060 -0.13900
N 	N 	0.50000 0.50000 0.75000 0.12200
