data_crystal

_cell_length_a 23.34200
_cell_length_b 20.68500
_cell_length_c 12.54020
_cell_angle_alpha 90.00000
_cell_angle_beta  97.97000
_cell_angle_gamma 90.00000

_symmetry_space_group_name_	'P 1'
_symmetry_space_group_name_H-M	'P 1'

loop_
_symmetry_equiv_pos_as_xyz
  x,y,z

loop_
_atom_site_label
_atom_site_type_symbol
_atom_site_fract_x
_atom_site_fract_y
_atom_site_fract_z
_atom_site_charge
Ag	Ag	0.26320 0.92350 0.56500 0.48700
N 	N 	0.33300 0.95000 0.48300 -0.17500
N 	N 	0.18380 0.88700 0.46200 -0.18500
N 	N 	0.50060 0.53380 0.09500 -0.17600
N 	N 	0.08200 0.84400 0.34500 -0.17000
C 	C 	0.47600 0.73000 0.32000 -0.00200
H 	H 	0.45850 0.70800 0.37150 0.00200
C 	C 	0.15300 0.92100 0.38700 0.02900
H 	H 	0.16600 0.96270 0.37750 -0.01700
C 	C 	0.47600 0.79800 0.32100 -0.00600
H 	H 	0.45900 0.82060 0.37190 0.01300
C 	C 	0.54800 0.50900 0.06800 -0.00100
H 	H 	0.58280 0.51540 0.11310 -0.00400
C 	C 	0.45300 0.52600 0.02700 -0.00400
H 	H 	0.41890 0.54440 0.04270 -0.00300
C 	C 	0.39200 0.93700 0.51600 -0.06100
H 	H 	0.40410 0.92500 0.58640 0.03200
C 	C 	0.10800 0.90300 0.32600 -0.04300
H 	H 	0.09160 0.92880 0.27000 0.01300
C 	C 	0.11600 0.80700 0.41500 -0.00900
H 	H 	0.10270 0.76590 0.42810 0.00600
C 	C 	0.37000 0.97900 0.31500 0.00100
H 	H 	0.36130 0.99440 0.24500 -0.00700
N 	N 	0.42500 0.96100 0.35300 -0.17800
C 	C 	0.43000 0.94200 0.44700 0.05300
H 	H 	0.46740 0.92950 0.47560 -0.01000
C 	C 	0.16800 0.82500 0.46800 -0.01100
H 	H 	0.19190 0.79530 0.50810 -0.00300
C 	C 	0.33000 0.97600 0.37700 -0.02400
H 	H 	0.29380 0.99360 0.34830 -0.00200
C 	C 	0.97800 0.66000 0.33000 0.02400
H 	H 	0.96610 0.68160 0.38820 0.00700
C 	C 	0.97300 0.59800 0.32800 -0.01700
H 	H 	0.95290 0.57780 0.37690 0.03300
Ag	Ag	0.76320 0.42350 0.56500 0.48900
N 	N 	0.83300 0.45000 0.48300 -0.17500
N 	N 	0.68380 0.38700 0.46200 -0.18400
N 	N 	0.00060 0.03380 0.09500 -0.20100
N 	N 	0.58200 0.34400 0.34500 -0.16800
C 	C 	0.97600 0.23000 0.32000 0.02500
H 	H 	0.95850 0.20800 0.37150 0.00000
C 	C 	0.65300 0.42100 0.38700 0.02900
H 	H 	0.66600 0.46270 0.37750 -0.01600
C 	C 	0.97600 0.29800 0.32100 0.02200
H 	H 	0.95900 0.32060 0.37190 0.01000
C 	C 	0.04800 0.00900 0.06800 0.01700
H 	H 	0.08280 0.01540 0.11310 -0.01200
C 	C 	0.95300 0.02600 0.02700 0.04200
H 	H 	0.91890 0.04440 0.04270 -0.01300
C 	C 	0.89200 0.43700 0.51600 -0.05700
H 	H 	0.90410 0.42500 0.58640 0.03600
C 	C 	0.60800 0.40300 0.32600 -0.04100
H 	H 	0.59160 0.42880 0.27000 0.01500
C 	C 	0.61600 0.30700 0.41500 -0.00900
H 	H 	0.60270 0.26590 0.42810 0.00800
C 	C 	0.87000 0.47900 0.31500 0.00200
H 	H 	0.86130 0.49440 0.24500 -0.00400
N 	N 	0.92500 0.46100 0.35300 -0.17000
C 	C 	0.93000 0.44200 0.44700 0.05100
H 	H 	0.96740 0.42950 0.47560 0.00200
C 	C 	0.66800 0.32500 0.46800 -0.01000
H 	H 	0.69190 0.29530 0.50810 -0.00200
C 	C 	0.83000 0.47600 0.37700 -0.02200
H 	H 	0.79380 0.49360 0.34830 -0.00200
C 	C 	0.47800 0.16000 0.33000 0.00000
H 	H 	0.46610 0.18160 0.38820 0.00400
C 	C 	0.47300 0.09800 0.32800 -0.03800
H 	H 	0.45290 0.07780 0.37690 0.03200
Ag	Ag	0.73680 0.92350 0.93500 0.48800
N 	N 	0.66700 0.95000 0.01700 -0.17400
N 	N 	0.81620 0.88700 0.03800 -0.18500
N 	N 	0.49940 0.53380 0.40500 -0.17600
N 	N 	0.91800 0.84400 0.15500 -0.16000
C 	C 	0.52400 0.73000 0.18000 -0.00100
H 	H 	0.54150 0.70800 0.12850 0.00200
C 	C 	0.84700 0.92100 0.11300 0.03000
H 	H 	0.83400 0.96270 0.12250 -0.01500
C 	C 	0.52400 0.79800 0.17900 -0.00600
H 	H 	0.54100 0.82060 0.12810 0.01300
C 	C 	0.45200 0.50900 0.43200 -0.00100
H 	H 	0.41720 0.51540 0.38690 -0.00400
C 	C 	0.54700 0.52600 0.47300 -0.00500
H 	H 	0.58110 0.54440 0.45730 -0.00200
C 	C 	0.60800 0.93700 0.98400 -0.06500
H 	H 	0.59590 0.92500 0.91360 0.03300
C 	C 	0.89200 0.90300 0.17400 -0.04000
H 	H 	0.90840 0.92880 0.23000 0.02000
C 	C 	0.88400 0.80700 0.08500 -0.00900
H 	H 	0.89730 0.76590 0.07190 0.01400
C 	C 	0.63000 0.97900 0.18500 0.00200
H 	H 	0.63870 0.99440 0.25500 -0.00700
N 	N 	0.57500 0.96100 0.14700 -0.17800
C 	C 	0.57000 0.94200 0.05300 0.05600
H 	H 	0.53260 0.92950 0.02440 -0.01100
C 	C 	0.83200 0.82500 0.03200 -0.00600
H 	H 	0.80810 0.79530 0.99190 -0.00400
C 	C 	0.67000 0.97600 0.12300 -0.02400
H 	H 	0.70620 0.99360 0.15170 -0.00100
C 	C 	0.02200 0.66000 0.17000 -0.00400
H 	H 	0.03390 0.68160 0.11180 -0.00000
C 	C 	0.02700 0.59800 0.17200 -0.04600
H 	H 	0.04710 0.57780 0.12310 0.03100
Ag	Ag	0.23680 0.42350 0.93500 0.48800
N 	N 	0.16700 0.45000 0.01700 -0.17500
N 	N 	0.31620 0.38700 0.03800 -0.18500
N 	N 	0.99940 0.03380 0.40500 -0.14500
N 	N 	0.41800 0.34400 0.15500 -0.16800
C 	C 	0.02400 0.23000 0.18000 -0.00700
H 	H 	0.04150 0.20800 0.12850 0.00000
C 	C 	0.34700 0.42100 0.11300 0.02900
H 	H 	0.33400 0.46270 0.12250 -0.01600
C 	C 	0.02400 0.29800 0.17900 -0.01000
H 	H 	0.04100 0.32060 0.12810 0.01100
C 	C 	0.95200 0.00900 0.43200 -0.01700
H 	H 	0.91720 0.01540 0.38690 0.00500
C 	C 	0.04700 0.02600 0.47300 -0.05000
H 	H 	0.08110 0.04440 0.45730 0.01000
C 	C 	0.10800 0.43700 0.98400 -0.06600
H 	H 	0.09590 0.42500 0.91360 0.03000
C 	C 	0.39200 0.40300 0.17400 -0.04200
H 	H 	0.40840 0.42880 0.23000 0.01500
C 	C 	0.38400 0.30700 0.08500 -0.00900
H 	H 	0.39730 0.26590 0.07190 0.00800
C 	C 	0.13000 0.47900 0.18500 0.00200
H 	H 	0.13870 0.49440 0.25500 -0.00800
N 	N 	0.07500 0.46100 0.14700 -0.18000
C 	C 	0.07000 0.44200 0.05300 0.05600
H 	H 	0.03260 0.42950 0.02440 -0.01900
C 	C 	0.33200 0.32500 0.03200 -0.01000
H 	H 	0.30810 0.29530 0.99190 -0.00300
C 	C 	0.17000 0.47600 0.12300 -0.02500
H 	H 	0.20620 0.49360 0.15170 -0.00200
C 	C 	0.52200 0.16000 0.17000 0.00000
H 	H 	0.53390 0.18160 0.11180 0.00400
C 	C 	0.52700 0.09800 0.17200 -0.03800
H 	H 	0.54710 0.07780 0.12310 0.03200
Ag	Ag	0.73680 0.07650 0.43500 0.48900
N 	N 	0.66700 0.05000 0.51700 -0.17500
N 	N 	0.81620 0.11300 0.53800 -0.18400
N 	N 	0.49940 0.46620 0.90500 -0.17500
N 	N 	0.91800 0.15600 0.65500 -0.16000
C 	C 	0.52400 0.27000 0.68000 -0.00200
H 	H 	0.54150 0.29200 0.62850 0.00200
C 	C 	0.84700 0.07900 0.61300 0.03000
H 	H 	0.83400 0.03730 0.62250 -0.01500
C 	C 	0.52400 0.20200 0.67900 -0.00600
H 	H 	0.54100 0.17940 0.62810 0.01300
C 	C 	0.45200 0.49100 0.93200 -0.00200
H 	H 	0.41720 0.48460 0.88690 -0.00400
C 	C 	0.54700 0.47400 0.97300 -0.00500
H 	H 	0.58110 0.45560 0.95730 -0.00200
C 	C 	0.60800 0.06300 0.48400 -0.06100
H 	H 	0.59590 0.07500 0.41360 0.03200
C 	C 	0.89200 0.09700 0.67400 -0.04000
H 	H 	0.90840 0.07120 0.73000 0.02000
C 	C 	0.88400 0.19300 0.58500 -0.00900
H 	H 	0.89730 0.23410 0.57190 0.01300
C 	C 	0.63000 0.02100 0.68500 0.00200
H 	H 	0.63870 0.00560 0.75500 -0.00600
N 	N 	0.57500 0.03900 0.64700 -0.17800
C 	C 	0.57000 0.05800 0.55300 0.05300
H 	H 	0.53260 0.07050 0.52440 -0.01000
C 	C 	0.83200 0.17500 0.53200 -0.00900
H 	H 	0.80810 0.20470 0.49190 -0.00200
C 	C 	0.67000 0.02400 0.62300 -0.02400
H 	H 	0.70620 0.00640 0.65170 -0.00100
C 	C 	0.02200 0.34000 0.67000 -0.00400
H 	H 	0.03390 0.31840 0.61180 -0.00100
C 	C 	0.02700 0.40200 0.67200 -0.04600
H 	H 	0.04710 0.42220 0.62310 0.03100
Ag	Ag	0.23680 0.57650 0.43500 0.48800
N 	N 	0.16700 0.55000 0.51700 -0.17500
N 	N 	0.31620 0.61300 0.53800 -0.18500
N 	N 	0.99940 0.96620 0.90500 -0.14500
N 	N 	0.41800 0.65600 0.65500 -0.16800
C 	C 	0.02400 0.77000 0.68000 -0.00800
H 	H 	0.04150 0.79200 0.62850 0.00000
C 	C 	0.34700 0.57900 0.61300 0.02900
H 	H 	0.33400 0.53730 0.62250 -0.01600
C 	C 	0.02400 0.70200 0.67900 -0.01100
H 	H 	0.04100 0.67940 0.62810 0.01100
C 	C 	0.95200 0.99100 0.93200 -0.01800
H 	H 	0.91720 0.98460 0.88690 0.00500
C 	C 	0.04700 0.97400 0.97300 -0.05100
H 	H 	0.08110 0.95560 0.95730 0.01000
C 	C 	0.10800 0.56300 0.48400 -0.06500
H 	H 	0.09590 0.57500 0.41360 0.03000
C 	C 	0.39200 0.59700 0.67400 -0.04200
H 	H 	0.40840 0.57120 0.73000 0.01500
C 	C 	0.38400 0.69300 0.58500 -0.00900
H 	H 	0.39730 0.73410 0.57190 0.00800
C 	C 	0.13000 0.52100 0.68500 0.00100
H 	H 	0.13870 0.50560 0.75500 -0.00800
N 	N 	0.07500 0.53900 0.64700 -0.18000
C 	C 	0.07000 0.55800 0.55300 0.05500
H 	H 	0.03260 0.57050 0.52440 -0.01900
C 	C 	0.33200 0.67500 0.53200 -0.01000
H 	H 	0.30810 0.70470 0.49190 -0.00300
C 	C 	0.17000 0.52400 0.62300 -0.02500
H 	H 	0.20620 0.50640 0.65170 -0.00200
C 	C 	0.52200 0.84000 0.67000 0.00000
H 	H 	0.53390 0.81840 0.61180 0.00400
C 	C 	0.52700 0.90200 0.67200 -0.03800
H 	H 	0.54710 0.92220 0.62310 0.03200
Ag	Ag	0.26320 0.07650 0.06500 0.48800
N 	N 	0.33300 0.05000 0.98300 -0.17500
N 	N 	0.18380 0.11300 0.96200 -0.18500
N 	N 	0.50060 0.46620 0.59500 -0.17600
N 	N 	0.08200 0.15600 0.84500 -0.17000
C 	C 	0.47600 0.27000 0.82000 -0.00200
H 	H 	0.45850 0.29200 0.87150 0.00200
C 	C 	0.15300 0.07900 0.88700 0.02900
H 	H 	0.16600 0.03730 0.87750 -0.01600
C 	C 	0.47600 0.20200 0.82100 -0.00600
H 	H 	0.45900 0.17940 0.87190 0.01300
C 	C 	0.54800 0.49100 0.56800 -0.00100
H 	H 	0.58280 0.48460 0.61310 -0.00400
C 	C 	0.45300 0.47400 0.52700 -0.00500
H 	H 	0.41890 0.45560 0.54270 -0.00300
C 	C 	0.39200 0.06300 0.01600 -0.06400
H 	H 	0.40410 0.07500 0.08640 0.03200
C 	C 	0.10800 0.09700 0.82600 -0.04300
H 	H 	0.09160 0.07120 0.77000 0.01300
C 	C 	0.11600 0.19300 0.91500 -0.00900
H 	H 	0.10270 0.23410 0.92810 0.00600
C 	C 	0.37000 0.02100 0.81500 0.00200
H 	H 	0.36130 0.00560 0.74500 -0.00700
N 	N 	0.42500 0.03900 0.85300 -0.17800
C 	C 	0.43000 0.05800 0.94700 0.05400
H 	H 	0.46740 0.07050 0.97560 -0.01000
C 	C 	0.16800 0.17500 0.96800 -0.01100
H 	H 	0.19190 0.20470 0.00810 -0.00300
C 	C 	0.33000 0.02400 0.87700 -0.02400
H 	H 	0.29380 0.00640 0.84830 -0.00200
C 	C 	0.97800 0.34000 0.83000 0.02400
H 	H 	0.96610 0.31840 0.88820 0.00600
C 	C 	0.97300 0.40200 0.82800 -0.01700
H 	H 	0.95290 0.42220 0.87690 0.03300
Ag	Ag	0.76320 0.57650 0.06500 0.48900
N 	N 	0.83300 0.55000 0.98300 -0.17600
N 	N 	0.68380 0.61300 0.96200 -0.18400
N 	N 	0.00060 0.96620 0.59500 -0.20200
N 	N 	0.58200 0.65600 0.84500 -0.16800
C 	C 	0.97600 0.77000 0.82000 0.02500
H 	H 	0.95850 0.79200 0.87150 -0.00000
C 	C 	0.65300 0.57900 0.88700 0.02900
H 	H 	0.66600 0.53730 0.87750 -0.01600
C 	C 	0.97600 0.70200 0.82100 0.02200
H 	H 	0.95900 0.67940 0.87190 0.01000
C 	C 	0.04800 0.99100 0.56800 0.01600
H 	H 	0.08280 0.98460 0.61310 -0.01200
C 	C 	0.95300 0.97400 0.52700 0.04200
H 	H 	0.91890 0.95560 0.54270 -0.01300
C 	C 	0.89200 0.56300 0.01600 -0.05600
H 	H 	0.90410 0.57500 0.08640 0.03600
C 	C 	0.60800 0.59700 0.82600 -0.04100
H 	H 	0.59160 0.57120 0.77000 0.01500
C 	C 	0.61600 0.69300 0.91500 -0.00800
H 	H 	0.60270 0.73410 0.92810 0.00800
C 	C 	0.87000 0.52100 0.81500 0.00200
H 	H 	0.86130 0.50560 0.74500 -0.00400
N 	N 	0.92500 0.53900 0.85300 -0.17000
C 	C 	0.93000 0.55800 0.94700 0.05000
H 	H 	0.96740 0.57050 0.97560 0.00200
C 	C 	0.66800 0.67500 0.96800 -0.01200
H 	H 	0.69190 0.70470 0.00810 -0.00100
C 	C 	0.83000 0.52400 0.87700 -0.02200
H 	H 	0.79380 0.50640 0.84830 -0.00200
C 	C 	0.47800 0.84000 0.83000 0.00000
H 	H 	0.46610 0.81840 0.88820 0.00400
C 	C 	0.47300 0.90200 0.82800 -0.03800
H 	H 	0.45290 0.92220 0.87690 0.03200
Ag	Ag	0.50000 0.59000 0.25000 0.51100
Ag	Ag	0.50000 0.94590 0.25000 0.52800
N 	N 	0.50000 0.82900 0.25000 -0.16100
N 	N 	0.50000 0.69700 0.25000 -0.18100
Ag	Ag	0.00000 0.09000 0.25000 0.49900
Ag	Ag	0.00000 0.44590 0.25000 0.51700
N 	N 	0.00000 0.32900 0.25000 -0.18100
N 	N 	0.00000 0.19700 0.25000 -0.19900
Ag	Ag	0.50000 0.41000 0.75000 0.51100
Ag	Ag	0.50000 0.05410 0.75000 0.52800
N 	N 	0.50000 0.17100 0.75000 -0.16100
N 	N 	0.50000 0.30300 0.75000 -0.18100
Ag	Ag	0.00000 0.91000 0.75000 0.49800
Ag	Ag	0.00000 0.55410 0.75000 0.51600
N 	N 	0.00000 0.67100 0.75000 -0.18100
N 	N 	0.00000 0.80300 0.75000 -0.19900
Ag	Ag	0.00000 0.80750 0.25000 0.50200
N 	N 	0.00000 0.69800 0.25000 -0.18800
N 	N 	0.00000 0.55700 0.25000 -0.16600
Ag	Ag	0.50000 0.30750 0.25000 0.51500
N 	N 	0.50000 0.19800 0.25000 -0.17200
N 	N 	0.50000 0.05700 0.25000 -0.15000
Ag	Ag	0.00000 0.19250 0.75000 0.50200
N 	N 	0.00000 0.30200 0.75000 -0.18800
N 	N 	0.00000 0.44300 0.75000 -0.16600
Ag	Ag	0.50000 0.69250 0.75000 0.51500
N 	N 	0.50000 0.80200 0.75000 -0.17200
N 	N 	0.50000 0.94300 0.75000 -0.15000
