data_crystal

_cell_length_a 18.56530
_cell_length_b 18.56530
_cell_length_c 23.96360
_cell_angle_alpha 90.00000
_cell_angle_beta  90.00000
_cell_angle_gamma 120.00000

_symmetry_space_group_name_	'P 1'
_symmetry_space_group_name_H-M	'P 1'

loop_
_symmetry_equiv_pos_as_xyz
  x,y,z

loop_
_atom_site_label
_atom_site_type_symbol
_atom_site_fract_x
_atom_site_fract_y
_atom_site_fract_z
_atom_site_charge
O 	O 	0.48134 0.37099 0.99451 -0.40300
O 	O 	0.44018 0.41081 0.07120 -0.40600
N 	N 	0.23890 0.08480 0.20070 -0.09900
H 	H 	0.46030 0.28180 0.21810 0.12400
C 	C 	0.45000 0.35950 0.04287 0.34700
C 	C 	0.42250 0.27640 0.06923 -0.07200
C 	C 	0.38140 0.25560 0.11950 -0.03000
H 	H 	0.36760 0.29210 0.13650 0.06100
O 	O 	0.62901 0.11035 0.99451 -0.40300
O 	O 	0.58919 0.02937 0.07120 -0.40600
N 	N 	0.91520 0.15410 0.20070 -0.09900
H 	H 	0.71820 0.17850 0.21810 0.12400
C 	C 	0.64050 0.09050 0.04287 0.34800
C 	C 	0.72360 0.14610 0.06923 -0.07200
C 	C 	0.74440 0.12580 0.11950 -0.03000
H 	H 	0.70790 0.07550 0.13650 0.06100
O 	O 	0.88965 0.51866 0.99451 -0.40200
O 	O 	0.97063 0.55982 0.07120 -0.40500
N 	N 	0.84590 0.76110 0.20070 -0.09800
H 	H 	0.82150 0.53970 0.21810 0.12500
C 	C 	0.90950 0.55000 0.04287 0.34900
C 	C 	0.85390 0.57750 0.06923 -0.07100
C 	C 	0.87420 0.61860 0.11950 -0.02900
H 	H 	0.92450 0.63240 0.13650 0.06200
O 	O 	0.51866 0.62901 0.49451 -0.40100
O 	O 	0.55982 0.58919 0.57120 -0.40500
N 	N 	0.76110 0.91520 0.70070 -0.09800
H 	H 	0.53970 0.71820 0.71810 0.12500
C 	C 	0.55000 0.64050 0.54287 0.34800
C 	C 	0.57750 0.72360 0.56923 -0.07100
C 	C 	0.61860 0.74440 0.61950 -0.02900
H 	H 	0.63240 0.70790 0.63650 0.06200
O 	O 	0.37099 0.88965 0.49451 -0.40100
O 	O 	0.41081 0.97063 0.57120 -0.40500
N 	N 	0.08480 0.84590 0.70070 -0.09800
H 	H 	0.28180 0.82150 0.71810 0.12500
C 	C 	0.35950 0.90950 0.54287 0.34800
C 	C 	0.27640 0.85390 0.56923 -0.07100
C 	C 	0.25560 0.87420 0.61950 -0.02900
H 	H 	0.29210 0.92450 0.63650 0.06200
O 	O 	0.11035 0.48134 0.49451 -0.40100
O 	O 	0.02937 0.44018 0.57120 -0.40500
N 	N 	0.15410 0.23890 0.70070 -0.09800
H 	H 	0.17850 0.46030 0.71810 0.12500
C 	C 	0.09050 0.45000 0.54287 0.34800
C 	C 	0.14610 0.42250 0.56923 -0.07100
C 	C 	0.12580 0.38140 0.61950 -0.02900
H 	H 	0.07550 0.36760 0.63650 0.06200
O 	O 	0.37099 0.48134 0.00549 -0.40200
O 	O 	0.41081 0.44018 0.92880 -0.40500
N 	N 	0.08480 0.23890 0.79930 -0.09800
H 	H 	0.28180 0.46030 0.78190 0.12500
C 	C 	0.35950 0.45000 0.95713 0.34800
C 	C 	0.27640 0.42250 0.93077 -0.07100
C 	C 	0.25560 0.38140 0.88050 -0.02900
H 	H 	0.29210 0.36760 0.86350 0.06200
O 	O 	0.11035 0.62901 0.00549 -0.40200
O 	O 	0.02937 0.58919 0.92880 -0.40500
N 	N 	0.15410 0.91520 0.79930 -0.09800
H 	H 	0.17850 0.71820 0.78190 0.12500
C 	C 	0.09050 0.64050 0.95713 0.34900
C 	C 	0.14610 0.72360 0.93077 -0.07100
C 	C 	0.12580 0.74440 0.88050 -0.02900
H 	H 	0.07550 0.70790 0.86350 0.06200
O 	O 	0.51866 0.88965 0.00549 -0.40200
O 	O 	0.55982 0.97063 0.92880 -0.40500
N 	N 	0.76110 0.84590 0.79930 -0.09800
H 	H 	0.53970 0.82150 0.78190 0.12500
C 	C 	0.55000 0.90950 0.95713 0.34900
C 	C 	0.57750 0.85390 0.93077 -0.07100
C 	C 	0.61860 0.87420 0.88050 -0.02900
H 	H 	0.63240 0.92450 0.86350 0.06200
O 	O 	0.62901 0.51866 0.50549 -0.40100
O 	O 	0.58919 0.55982 0.42880 -0.40500
N 	N 	0.91520 0.76110 0.29930 -0.09800
H 	H 	0.71820 0.53970 0.28190 0.12500
C 	C 	0.64050 0.55000 0.45713 0.34800
C 	C 	0.72360 0.57750 0.43077 -0.07100
C 	C 	0.74440 0.61860 0.38050 -0.02900
H 	H 	0.70790 0.63240 0.36350 0.06200
O 	O 	0.88965 0.37099 0.50549 -0.40100
O 	O 	0.97063 0.41081 0.42880 -0.40500
N 	N 	0.84590 0.08480 0.29930 -0.09800
H 	H 	0.82150 0.28180 0.28190 0.12500
C 	C 	0.90950 0.35950 0.45713 0.34800
C 	C 	0.85390 0.27640 0.43077 -0.07100
C 	C 	0.87420 0.25560 0.38050 -0.02900
H 	H 	0.92450 0.29210 0.36350 0.06200
O 	O 	0.48134 0.11035 0.50549 -0.40100
O 	O 	0.44018 0.02937 0.42880 -0.40500
N 	N 	0.23890 0.15410 0.29930 -0.09800
H 	H 	0.46030 0.17850 0.28190 0.12500
C 	C 	0.45000 0.09050 0.45713 0.34800
C 	C 	0.42250 0.14610 0.43077 -0.07100
C 	C 	0.38140 0.12580 0.38050 -0.02900
H 	H 	0.36760 0.07550 0.36350 0.06200
O 	O 	0.51866 0.62901 0.00549 -0.40200
O 	O 	0.55982 0.58919 0.92880 -0.40500
N 	N 	0.76110 0.91520 0.79930 -0.09800
H 	H 	0.53970 0.71820 0.78190 0.12500
C 	C 	0.55000 0.64050 0.95713 0.34800
C 	C 	0.57750 0.72360 0.93077 -0.07100
C 	C 	0.61860 0.74440 0.88050 -0.02900
H 	H 	0.63240 0.70790 0.86350 0.06200
O 	O 	0.37099 0.88965 0.00549 -0.40200
O 	O 	0.41081 0.97063 0.92880 -0.40500
N 	N 	0.08480 0.84590 0.79930 -0.09800
H 	H 	0.28180 0.82150 0.78190 0.12500
C 	C 	0.35950 0.90950 0.95713 0.34900
C 	C 	0.27640 0.85390 0.93077 -0.07100
C 	C 	0.25560 0.87420 0.88050 -0.02900
H 	H 	0.29210 0.92450 0.86350 0.06200
O 	O 	0.11035 0.48134 0.00549 -0.40200
O 	O 	0.02937 0.44018 0.92880 -0.40500
N 	N 	0.15410 0.23890 0.79930 -0.09800
H 	H 	0.17850 0.46030 0.78190 0.12500
C 	C 	0.09050 0.45000 0.95713 0.34900
C 	C 	0.14610 0.42250 0.93077 -0.07100
C 	C 	0.12580 0.38140 0.88050 -0.02900
H 	H 	0.07550 0.36760 0.86350 0.06200
O 	O 	0.48134 0.37099 0.50549 -0.40100
O 	O 	0.44018 0.41081 0.42880 -0.40500
N 	N 	0.23890 0.08480 0.29930 -0.09800
H 	H 	0.46030 0.28180 0.28190 0.12500
C 	C 	0.45000 0.35950 0.45713 0.34800
C 	C 	0.42250 0.27640 0.43077 -0.07100
C 	C 	0.38140 0.25560 0.38050 -0.02900
H 	H 	0.36760 0.29210 0.36350 0.06200
O 	O 	0.62901 0.11035 0.50549 -0.40100
O 	O 	0.58919 0.02937 0.42880 -0.40500
N 	N 	0.91520 0.15410 0.29930 -0.09800
H 	H 	0.71820 0.17850 0.28190 0.12500
C 	C 	0.64050 0.09050 0.45713 0.34800
C 	C 	0.72360 0.14610 0.43077 -0.07100
C 	C 	0.74440 0.12580 0.38050 -0.02900
H 	H 	0.70790 0.07550 0.36350 0.06200
O 	O 	0.88965 0.51866 0.50549 -0.40100
O 	O 	0.97063 0.55982 0.42880 -0.40500
N 	N 	0.84590 0.76110 0.29930 -0.09800
H 	H 	0.82150 0.53970 0.28190 0.12500
C 	C 	0.90950 0.55000 0.45713 0.34800
C 	C 	0.85390 0.57750 0.43077 -0.07100
C 	C 	0.87420 0.61860 0.38050 -0.02900
H 	H 	0.92450 0.63240 0.36350 0.06200
O 	O 	0.62901 0.51866 0.99451 -0.40200
O 	O 	0.58919 0.55982 0.07120 -0.40500
N 	N 	0.91520 0.76110 0.20070 -0.09800
H 	H 	0.71820 0.53970 0.21810 0.12500
C 	C 	0.64050 0.55000 0.04287 0.34800
C 	C 	0.72360 0.57750 0.06923 -0.07100
C 	C 	0.74440 0.61860 0.11950 -0.02900
H 	H 	0.70790 0.63240 0.13650 0.06200
O 	O 	0.88965 0.37099 0.99451 -0.40200
O 	O 	0.97063 0.41081 0.07120 -0.40500
N 	N 	0.84590 0.08480 0.20070 -0.09800
H 	H 	0.82150 0.28180 0.21810 0.12500
C 	C 	0.90950 0.35950 0.04287 0.34900
C 	C 	0.85390 0.27640 0.06923 -0.07100
C 	C 	0.87420 0.25560 0.11950 -0.02900
H 	H 	0.92450 0.29210 0.13650 0.06200
O 	O 	0.48134 0.11035 0.99451 -0.40200
O 	O 	0.44018 0.02937 0.07120 -0.40500
N 	N 	0.23890 0.15410 0.20070 -0.09800
H 	H 	0.46030 0.17850 0.21810 0.12500
C 	C 	0.45000 0.09050 0.04287 0.34900
C 	C 	0.42250 0.14610 0.06923 -0.07100
C 	C 	0.38140 0.12580 0.11950 -0.02900
H 	H 	0.36760 0.07550 0.13650 0.06200
O 	O 	0.37099 0.48134 0.49451 -0.40100
O 	O 	0.41081 0.44018 0.57120 -0.40500
N 	N 	0.08480 0.23890 0.70070 -0.09800
H 	H 	0.28180 0.46030 0.71810 0.12500
C 	C 	0.35950 0.45000 0.54287 0.34800
C 	C 	0.27640 0.42250 0.56923 -0.07100
C 	C 	0.25560 0.38140 0.61950 -0.02900
H 	H 	0.29210 0.36760 0.63650 0.06200
O 	O 	0.11035 0.62901 0.49451 -0.40100
O 	O 	0.02937 0.58919 0.57120 -0.40500
N 	N 	0.15410 0.91520 0.70070 -0.09800
H 	H 	0.17850 0.71820 0.71810 0.12500
C 	C 	0.09050 0.64050 0.54287 0.34800
C 	C 	0.14610 0.72360 0.56923 -0.07100
C 	C 	0.12580 0.74440 0.61950 -0.02900
H 	H 	0.07550 0.70790 0.63650 0.06200
O 	O 	0.51866 0.88965 0.49451 -0.40100
O 	O 	0.55982 0.97063 0.57120 -0.40500
N 	N 	0.76110 0.84590 0.70070 -0.09800
H 	H 	0.53970 0.82150 0.71810 0.12500
C 	C 	0.55000 0.90950 0.54287 0.34800
C 	C 	0.57750 0.85390 0.56923 -0.07100
C 	C 	0.61860 0.87420 0.61950 -0.02900
H 	H 	0.63240 0.92450 0.63650 0.06200
Cu	Cu	0.52377 0.47623 0.95469 0.90500
Cu	Cu	0.52377 0.04754 0.95469 0.90500
Cu	Cu	0.95246 0.47623 0.95469 0.90500
Cu	Cu	0.47623 0.52377 0.45469 0.90500
Cu	Cu	0.47623 0.95246 0.45469 0.90500
Cu	Cu	0.04754 0.52377 0.45469 0.90500
Cu	Cu	0.47623 0.52377 0.04531 0.90500
Cu	Cu	0.04754 0.52377 0.04531 0.90500
Cu	Cu	0.47623 0.95246 0.04531 0.90500
Cu	Cu	0.52377 0.47623 0.54531 0.90500
Cu	Cu	0.95246 0.47623 0.54531 0.90500
Cu	Cu	0.52377 0.04754 0.54531 0.90500
N 	N 	0.43590 0.25770 0.25000 -0.24400
C 	C 	0.20730 0.05740 0.25000 0.08000
H 	H 	0.15400 0.01110 0.25000 0.02600
N 	N 	0.74230 0.17820 0.25000 -0.24400
C 	C 	0.94260 0.14990 0.25000 0.08000
H 	H 	0.98890 0.14290 0.25000 0.02600
N 	N 	0.82180 0.56410 0.25000 -0.24400
C 	C 	0.85010 0.79270 0.25000 0.08000
H 	H 	0.85710 0.84600 0.25000 0.02600
N 	N 	0.56410 0.74230 0.75000 -0.24400
C 	C 	0.79270 0.94260 0.75000 0.08000
H 	H 	0.84600 0.98890 0.75000 0.02600
N 	N 	0.25770 0.82180 0.75000 -0.24400
C 	C 	0.05740 0.85010 0.75000 0.08000
H 	H 	0.01110 0.85710 0.75000 0.02600
N 	N 	0.17820 0.43590 0.75000 -0.24400
C 	C 	0.14990 0.20730 0.75000 0.08000
H 	H 	0.14290 0.15400 0.75000 0.02600
N 	N 	0.25770 0.43590 0.75000 -0.24400
C 	C 	0.05740 0.20730 0.75000 0.08000
H 	H 	0.01110 0.15400 0.75000 0.02600
N 	N 	0.17820 0.74230 0.75000 -0.24400
C 	C 	0.14990 0.94260 0.75000 0.08000
H 	H 	0.14290 0.98890 0.75000 0.02600
N 	N 	0.56410 0.82180 0.75000 -0.24400
C 	C 	0.79270 0.85010 0.75000 0.08000
H 	H 	0.84600 0.85710 0.75000 0.02600
N 	N 	0.74230 0.56410 0.25000 -0.24400
C 	C 	0.94260 0.79270 0.25000 0.08000
H 	H 	0.98890 0.84600 0.25000 0.02600
N 	N 	0.82180 0.25770 0.25000 -0.24400
C 	C 	0.85010 0.05740 0.25000 0.08000
H 	H 	0.85710 0.01110 0.25000 0.02600
N 	N 	0.43590 0.17820 0.25000 -0.24400
C 	C 	0.20730 0.14990 0.25000 0.08000
H 	H 	0.15400 0.14290 0.25000 0.02600
C 	C 	0.44290 0.22145 0.04350 0.01200
H 	H 	0.47010 0.23505 0.00920 0.05800
C 	C 	0.36030 0.18015 0.14520 0.01000
C 	C 	0.31670 0.15835 0.20050 0.04800
C 	C 	0.77855 0.22145 0.04350 0.01200
H 	H 	0.76495 0.23505 0.00920 0.05900
C 	C 	0.81985 0.18015 0.14520 0.01000
C 	C 	0.84165 0.15835 0.20050 0.04800
C 	C 	0.77855 0.55710 0.04350 0.01200
H 	H 	0.76495 0.52990 0.00920 0.05800
C 	C 	0.81985 0.63970 0.14520 0.01000
C 	C 	0.84165 0.68330 0.20050 0.04800
C 	C 	0.55710 0.77855 0.54350 0.01200
H 	H 	0.52990 0.76495 0.50920 0.05900
C 	C 	0.63970 0.81985 0.64520 0.01000
C 	C 	0.68330 0.84165 0.70050 0.04800
C 	C 	0.22145 0.77855 0.54350 0.01200
H 	H 	0.23505 0.76495 0.50920 0.05900
C 	C 	0.18015 0.81985 0.64520 0.01000
C 	C 	0.15835 0.84165 0.70050 0.04800
C 	C 	0.22145 0.44290 0.54350 0.01200
H 	H 	0.23505 0.47010 0.50920 0.05900
C 	C 	0.18015 0.36030 0.64520 0.01000
C 	C 	0.15835 0.31670 0.70050 0.04800
C 	C 	0.22145 0.44290 0.95650 0.01200
H 	H 	0.23505 0.47010 0.99080 0.05800
C 	C 	0.18015 0.36030 0.85480 0.01000
C 	C 	0.15835 0.31670 0.79950 0.04800
C 	C 	0.22145 0.77855 0.95650 0.01200
H 	H 	0.23505 0.76495 0.99080 0.05900
C 	C 	0.18015 0.81985 0.85480 0.01000
C 	C 	0.15835 0.84165 0.79950 0.04800
C 	C 	0.55710 0.77855 0.95650 0.01200
H 	H 	0.52990 0.76495 0.99080 0.05800
C 	C 	0.63970 0.81985 0.85480 0.01000
C 	C 	0.68330 0.84165 0.79950 0.04800
C 	C 	0.77855 0.55710 0.45650 0.01200
H 	H 	0.76495 0.52990 0.49080 0.05900
C 	C 	0.81985 0.63970 0.35480 0.01000
C 	C 	0.84165 0.68330 0.29950 0.04800
C 	C 	0.77855 0.22145 0.45650 0.01200
H 	H 	0.76495 0.23505 0.49080 0.05900
C 	C 	0.81985 0.18015 0.35480 0.01000
C 	C 	0.84165 0.15835 0.29950 0.04800
C 	C 	0.44290 0.22145 0.45650 0.01200
H 	H 	0.47010 0.23505 0.49080 0.05900
C 	C 	0.36030 0.18015 0.35480 0.01000
C 	C 	0.31670 0.15835 0.29950 0.04800
C 	C 	0.35760 0.17880 0.25000 0.08800
C 	C 	0.82120 0.17880 0.25000 0.08800
C 	C 	0.82120 0.64240 0.25000 0.08800
C 	C 	0.64240 0.82120 0.75000 0.08800
C 	C 	0.17880 0.82120 0.75000 0.08800
C 	C 	0.17880 0.35760 0.75000 0.08800
