data_crystal

_cell_length_a 5.50900
_cell_length_b 10.54500
_cell_length_c 29.39900
_cell_angle_alpha 90.00000
_cell_angle_beta  90.00000
_cell_angle_gamma 90.00000

_symmetry_space_group_name_	'P 1'
_symmetry_space_group_name_H-M	'P 1'

loop_
_symmetry_equiv_pos_as_xyz
  x,y,z

loop_
_atom_site_label
_atom_site_type_symbol
_atom_site_fract_x
_atom_site_fract_y
_atom_site_fract_z
_atom_site_charge
Cu	Cu	0.76830 0.01373 0.23763 0.75600
S 	S 	0.82560 0.04178 0.98751 -0.00300
N 	N 	0.73800 0.05460 0.17073 -0.28300
N 	N 	0.42150 0.13700 0.01103 -0.07900
N 	N 	0.41810 0.13590 0.96446 -0.08000
N 	N 	0.70080 0.03510 0.80445 -0.27900
C 	C 	0.53960 0.11410 0.15442 0.07700
H 	H 	0.42560 0.14530 0.17490 -0.06300
C 	C 	0.49890 0.13060 0.10813 -0.16800
H 	H 	0.36060 0.17250 0.09800 0.09700
C 	C 	0.66710 0.08360 0.07711 0.09300
C 	C 	0.87590 0.02660 0.09423 -0.16800
H 	H 	0.99520 0.99690 0.07450 0.09200
C 	C 	0.90450 0.01460 0.14075 0.08400
H 	H 	0.04560 0.97710 0.15170 -0.05700
C 	C 	0.62260 0.09270 0.02764 0.02600
C 	C 	0.61710 0.08820 0.94740 0.02200
C 	C 	0.65290 0.07280 0.89783 0.08400
C 	C 	0.48140 0.11850 0.86781 -0.17500
H 	H 	0.34840 0.16400 0.87840 0.09600
C 	C 	0.50910 0.09610 0.82204 0.08200
H 	H 	0.38890 0.12470 0.80230 -0.07400
C 	C 	0.87470 0.99470 0.83350 0.05000
H 	H 	0.01050 0.95350 0.82190 -0.05800
C 	C 	0.85620 0.01290 0.88022 -0.14400
H 	H 	0.97910 0.98520 0.89950 0.07600
Cu	Cu	0.73170 0.98627 0.73763 0.75700
S 	S 	0.67440 0.95822 0.48751 -0.00500
N 	N 	0.76200 0.94540 0.67073 -0.27900
N 	N 	0.07850 0.86300 0.51103 -0.07500
N 	N 	0.08190 0.86410 0.46446 -0.07700
N 	N 	0.79920 0.96490 0.30445 -0.27700
C 	C 	0.96040 0.88590 0.65442 0.06000
H 	H 	0.07440 0.85470 0.67490 -0.05600
C 	C 	0.00110 0.86940 0.60813 -0.14800
H 	H 	0.13940 0.82750 0.59800 0.09200
C 	C 	0.83290 0.91640 0.57711 0.08100
C 	C 	0.62410 0.97340 0.59423 -0.15900
H 	H 	0.50480 0.00310 0.57450 0.08700
C 	C 	0.59550 0.98540 0.64075 0.07200
H 	H 	0.45440 0.02290 0.65170 -0.05200
C 	C 	0.87740 0.90730 0.52764 0.02500
C 	C 	0.88290 0.91180 0.44740 0.02000
C 	C 	0.84710 0.92720 0.39783 0.07500
C 	C 	0.01860 0.88150 0.36781 -0.15900
H 	H 	0.15160 0.83600 0.37840 0.09200
C 	C 	0.99090 0.90390 0.32204 0.06800
H 	H 	0.11110 0.87530 0.30230 -0.06800
C 	C 	0.62530 0.00530 0.33350 0.04600
H 	H 	0.48950 0.04650 0.32190 -0.05500
C 	C 	0.64380 0.98710 0.38022 -0.14100
H 	H 	0.52090 0.01480 0.39950 0.07400
Cu	Cu	0.23170 0.51373 0.26237 0.75800
S 	S 	0.17440 0.54178 0.51249 -0.00500
N 	N 	0.26200 0.55460 0.32927 -0.28400
N 	N 	0.57850 0.63700 0.48897 -0.07800
N 	N 	0.58190 0.63590 0.53554 -0.07900
N 	N 	0.29920 0.53510 0.69555 -0.28700
C 	C 	0.46040 0.61410 0.34558 0.07800
H 	H 	0.57440 0.64530 0.32510 -0.06300
C 	C 	0.50110 0.63060 0.39187 -0.16800
H 	H 	0.63940 0.67250 0.40200 0.09800
C 	C 	0.33290 0.58360 0.42289 0.09400
C 	C 	0.12410 0.52660 0.40577 -0.17100
H 	H 	0.00480 0.49690 0.42550 0.09200
C 	C 	0.09550 0.51460 0.35925 0.08600
H 	H 	0.95440 0.47710 0.34830 -0.05900
C 	C 	0.37740 0.59270 0.47236 0.02600
C 	C 	0.38290 0.58820 0.55260 0.01800
C 	C 	0.34710 0.57280 0.60217 0.09600
C 	C 	0.51860 0.61850 0.63219 -0.18500
H 	H 	0.65160 0.66400 0.62160 0.09900
C 	C 	0.49090 0.59610 0.67796 0.08700
H 	H 	0.61110 0.62470 0.69770 -0.07700
C 	C 	0.12530 0.49470 0.66650 0.07300
H 	H 	0.98950 0.45350 0.67810 -0.06400
C 	C 	0.14380 0.51290 0.61978 -0.17300
H 	H 	0.02090 0.48520 0.60050 0.08900
Cu	Cu	0.26830 0.48627 0.76237 0.75800
S 	S 	0.32560 0.45822 0.01249 -0.00600
N 	N 	0.23800 0.44540 0.82927 -0.27900
N 	N 	0.92150 0.36300 0.98897 -0.07500
N 	N 	0.91810 0.36410 0.03554 -0.07600
N 	N 	0.20080 0.46490 0.19555 -0.28300
C 	C 	0.03960 0.38590 0.84558 0.05600
H 	H 	0.92560 0.35470 0.82510 -0.05300
C 	C 	0.99890 0.36940 0.89187 -0.14400
H 	H 	0.86060 0.32750 0.90200 0.09100
C 	C 	0.16710 0.41640 0.92289 0.07900
C 	C 	0.37590 0.47340 0.90577 -0.16000
H 	H 	0.49520 0.50310 0.92550 0.08800
C 	C 	0.40450 0.48540 0.85925 0.07500
H 	H 	0.54560 0.52290 0.84830 -0.05400
C 	C 	0.12260 0.40730 0.97236 0.02500
C 	C 	0.11710 0.41180 0.05260 0.01600
C 	C 	0.15290 0.42720 0.10217 0.08300
C 	C 	0.98140 0.38150 0.13219 -0.16300
H 	H 	0.84840 0.33600 0.12160 0.09300
C 	C 	0.00910 0.40390 0.17796 0.06800
H 	H 	0.88890 0.37530 0.19770 -0.06900
C 	C 	0.37470 0.50530 0.16650 0.06500
H 	H 	0.51050 0.54650 0.17810 -0.06000
C 	C 	0.35620 0.48710 0.11978 -0.16400
H 	H 	0.47910 0.51480 0.10050 0.08600
