data_crystal

_cell_length_a 7.35800
_cell_length_b 9.99700
_cell_length_c 15.05780
_cell_angle_alpha 109.38700
_cell_angle_beta  98.49800
_cell_angle_gamma 90.00000

_symmetry_space_group_name_	'P 1'
_symmetry_space_group_name_H-M	'P 1'

loop_
_symmetry_equiv_pos_as_xyz
  x,y,z

loop_
_atom_site_label
_atom_site_type_symbol
_atom_site_fract_x
_atom_site_fract_y
_atom_site_fract_z
_atom_site_charge
Cd	Cd	-0.00000 0.50000 0.50000 1.15700
Cd	Cd	0.50000 0.00000 0.50000 1.16600
H 	H 	0.82380 0.47440 0.67640 -0.01200
H 	H 	0.75970 0.59490 0.82540 0.09000
H 	H 	0.87620 0.95820 0.78400 0.12800
H 	H 	0.94380 0.82690 0.63700 0.01900
H 	H 	0.67620 0.79800 0.32360 -0.01600
H 	H 	0.74030 0.76950 0.17460 0.11200
H 	H 	0.62380 0.17420 0.21600 0.12400
H 	H 	0.55620 0.18990 0.36300 -0.00800
H 	H 	0.17620 0.52560 0.32360 -0.02500
H 	H 	0.24030 0.40510 0.17460 0.08700
H 	H 	0.12380 0.04180 0.21600 0.06500
H 	H 	0.05620 0.17310 0.36300 -0.04300
H 	H 	0.32380 0.20200 0.67640 -0.02200
H 	H 	0.25970 0.23050 0.82540 0.06500
H 	H 	0.37620 0.82580 0.78400 0.06900
H 	H 	0.44380 0.81010 0.63700 -0.01600
C 	C 	0.83900 0.57299 0.69918 0.09600
C 	C 	0.79860 0.64464 0.78868 -0.14600
C 	C 	0.81670 0.79181 0.82342 0.09600
C 	C 	0.86820 0.85958 0.76456 -0.13700
C 	C 	0.90840 0.77942 0.67584 0.09300
C 	C 	0.77990 0.87035 0.92050 0.07500
C 	C 	0.60650 0.65007 0.44314 0.09700
C 	C 	0.66100 0.87381 0.30082 0.12200
C 	C 	0.70140 0.85596 0.21132 -0.17700
C 	C 	0.68330 0.96839 0.17658 0.17500
C 	C 	0.63180 0.09502 0.23544 -0.22200
C 	C 	0.59160 0.10358 0.32416 0.06500
C 	C 	0.72010 0.94985 0.07950 0.06800
C 	C 	0.89350 0.20693 0.55686 0.11000
C 	C 	0.16100 0.42701 0.30082 0.08000
C 	C 	0.20140 0.35536 0.21132 -0.16600
C 	C 	0.18330 0.20819 0.17658 0.09400
C 	C 	0.13180 0.14042 0.23544 -0.17000
C 	C 	0.09160 0.22058 0.32416 0.07400
C 	C 	0.22010 0.12965 0.07950 -0.02400
C 	C 	0.39350 0.34993 0.55686 0.08800
C 	C 	0.33900 0.12619 0.69918 0.05300
C 	C 	0.29860 0.14404 0.78868 -0.13400
C 	C 	0.31670 0.03161 0.82342 0.01400
C 	C 	0.36820 0.90498 0.76456 -0.08300
C 	C 	0.40840 0.89642 0.67584 0.10300
C 	C 	0.27990 0.05015 0.92050 -0.01600
C 	C 	0.10650 0.79307 0.44314 0.07500
S 	S 	0.65913 0.48379 0.39684 -0.19600
S 	S 	0.84087 0.08695 0.60316 -0.23300
S 	S 	0.34087 0.51621 0.60316 -0.25900
S 	S 	0.15913 0.91305 0.39684 -0.22400
S 	S 	0.75000 0.78587 -0.00000 0.01000
S 	S 	0.25000 0.21413 -0.00000 -0.01700
N 	N 	0.89870 0.63745 0.64330 -0.22700
N 	N 	0.76710 0.00685 0.95370 -0.10600
N 	N 	0.57040 0.76649 0.47518 -0.25100
N 	N 	0.60130 0.99415 0.35670 -0.21300
N 	N 	0.73290 0.05315 0.04630 -0.08900
N 	N 	0.92960 0.29131 0.52482 -0.24000
N 	N 	0.10130 0.36255 0.35670 -0.25800
N 	N 	0.23290 0.99315 0.04630 -0.04600
N 	N 	0.42960 0.23351 0.52482 -0.27400
N 	N 	0.39870 0.00585 0.64330 -0.27400
N 	N 	0.26710 0.94685 0.95370 -0.06400
N 	N 	0.07040 0.70869 0.47518 -0.28200
