data_crystal

_cell_length_a 28.94700
_cell_length_b 8.33210
_cell_length_c 18.32830
_cell_angle_alpha 90.00000
_cell_angle_beta  114.79200
_cell_angle_gamma 90.00000

_symmetry_space_group_name_	'P 1'
_symmetry_space_group_name_H-M	'P 1'

loop_
_symmetry_equiv_pos_as_xyz
  x,y,z

loop_
_atom_site_label
_atom_site_type_symbol
_atom_site_fract_x
_atom_site_fract_y
_atom_site_fract_z
_atom_site_charge
Zn	Zn	0.30639 0.22207 0.11587 1.22300
N 	N 	0.38410 0.79540 0.13470 -0.17000
O 	O 	0.37560 0.30350 0.23080 -0.41500
N 	N 	0.33380 0.99920 0.12000 -0.30300
N 	N 	0.48460 0.52600 0.51190 -0.05200
O 	O 	0.30170 0.36610 0.20620 -0.43700
C 	C 	0.30980 0.63840 0.46760 0.44700
C 	C 	0.43140 0.51560 0.45620 0.08100
C 	C 	0.32790 0.51050 0.35860 0.04600
H 	H 	0.29330 0.51090 0.32500 0.03600
C 	C 	0.34530 0.57460 0.43520 -0.12300
C 	C 	0.43050 0.70100 0.15130 -0.00500
H 	H 	0.45530 0.76930 0.14380 0.02700
H 	H 	0.42230 0.61430 0.11260 0.04700
C 	C 	0.42480 0.06880 0.15380 -0.90000
H 	H 	0.44440 0.07750 0.21080 0.29600
H 	H 	0.41190 0.17260 0.13200 0.29400
H 	H 	0.44600 0.02860 0.12930 0.29700
C 	C 	0.36250 0.44540 0.33250 -0.09400
C 	C 	0.38150 0.95660 0.13720 0.32800
H 	H 	0.49330 0.46460 0.20390 0.04900
C 	C 	0.39760 0.57900 0.48400 -0.03500
H 	H 	0.40960 0.62430 0.53500 0.05900
C 	C 	0.41360 0.44770 0.38030 -0.05800
H 	H 	0.43640 0.40400 0.36200 0.09100
C 	C 	0.33710 0.73410 0.11660 0.00500
H 	H 	0.32810 0.62620 0.11180 0.03400
C 	C 	0.30600 0.86080 0.10700 -0.00000
H 	H 	0.27130 0.85500 0.09370 0.02400
C 	C 	0.45410 0.63110 0.23490 -0.16500
H 	H 	0.46330 0.71790 0.27370 0.08100
H 	H 	0.42910 0.56480 0.24290 0.09400
C 	C 	0.34600 0.36590 0.25160 0.39200
O 	O 	0.49520 0.61970 0.58580 -0.16100
O 	O 	0.32652 0.65950 0.54240 -0.51400
O 	O 	0.26580 0.66360 0.41890 -0.51200
Zn	Zn	0.80639 0.72207 0.11587 1.22500
N 	N 	0.88410 0.29540 0.13470 -0.16900
O 	O 	0.87560 0.80350 0.23080 -0.41400
N 	N 	0.83380 0.49920 0.12000 -0.30200
N 	N 	0.98460 0.02600 0.51190 -0.05100
O 	O 	0.80170 0.86610 0.20620 -0.43600
C 	C 	0.80980 0.13840 0.46760 0.44800
C 	C 	0.93140 0.01560 0.45620 0.08100
C 	C 	0.82790 0.01050 0.35860 0.04600
H 	H 	0.79330 0.01090 0.32500 0.03600
C 	C 	0.84530 0.07460 0.43520 -0.12200
C 	C 	0.93050 0.20100 0.15130 -0.00400
H 	H 	0.95530 0.26930 0.14380 0.02600
H 	H 	0.92230 0.11430 0.11260 0.04700
C 	C 	0.92480 0.56880 0.15380 -0.89700
H 	H 	0.94440 0.57750 0.21080 0.29500
H 	H 	0.91190 0.67260 0.13200 0.29300
H 	H 	0.94600 0.52860 0.12930 0.29600
C 	C 	0.86250 0.94540 0.33250 -0.09400
C 	C 	0.88150 0.45660 0.13720 0.32600
H 	H 	0.99330 0.96460 0.20390 0.04900
C 	C 	0.89760 0.07900 0.48400 -0.03500
H 	H 	0.90960 0.12430 0.53500 0.05900
C 	C 	0.91360 0.94770 0.38030 -0.05800
H 	H 	0.93640 0.90400 0.36200 0.09100
C 	C 	0.83710 0.23410 0.11660 0.00500
H 	H 	0.82810 0.12620 0.11180 0.03300
C 	C 	0.80600 0.36080 0.10700 -0.00000
H 	H 	0.77130 0.35500 0.09370 0.02300
C 	C 	0.95410 0.13110 0.23490 -0.16600
H 	H 	0.96330 0.21790 0.27370 0.08100
H 	H 	0.92910 0.06480 0.24290 0.09400
C 	C 	0.84600 0.86590 0.25160 0.39200
O 	O 	0.99520 0.11970 0.58580 -0.16200
O 	O 	0.82652 0.15950 0.54240 -0.51400
O 	O 	0.76580 0.16360 0.41890 -0.51200
Zn	Zn	0.69361 0.22207 0.38413 1.22400
N 	N 	0.61590 0.79540 0.36530 -0.16900
O 	O 	0.62440 0.30350 0.26920 -0.41400
N 	N 	0.66620 0.99920 0.38000 -0.30200
N 	N 	0.51540 0.52600 0.98810 -0.05100
O 	O 	0.69830 0.36610 0.29380 -0.43600
C 	C 	0.69020 0.63840 0.03240 0.44900
C 	C 	0.56860 0.51560 0.04380 0.08100
C 	C 	0.67210 0.51050 0.14140 0.04700
H 	H 	0.70670 0.51090 0.17500 0.03600
C 	C 	0.65470 0.57460 0.06480 -0.12300
C 	C 	0.56950 0.70100 0.34870 -0.00500
H 	H 	0.54470 0.76930 0.35620 0.02700
H 	H 	0.57770 0.61430 0.38740 0.04700
C 	C 	0.57520 0.06880 0.34620 -0.89900
H 	H 	0.55560 0.07750 0.28920 0.29600
H 	H 	0.58810 0.17260 0.36800 0.29400
H 	H 	0.55400 0.02860 0.37070 0.29700
C 	C 	0.63750 0.44540 0.16750 -0.09500
C 	C 	0.61850 0.95660 0.36280 0.32700
H 	H 	0.50670 0.46460 0.29610 0.04900
C 	C 	0.60240 0.57900 0.01600 -0.03400
H 	H 	0.59040 0.62430 0.96500 0.05800
C 	C 	0.58640 0.44770 0.11970 -0.05800
H 	H 	0.56360 0.40400 0.13800 0.09100
C 	C 	0.66290 0.73410 0.38340 0.00500
H 	H 	0.67190 0.62620 0.38820 0.03400
C 	C 	0.69400 0.86080 0.39300 -0.00000
H 	H 	0.72870 0.85500 0.40630 0.02400
C 	C 	0.54590 0.63110 0.26510 -0.16500
H 	H 	0.53670 0.71790 0.22630 0.08100
H 	H 	0.57090 0.56480 0.25710 0.09400
C 	C 	0.65400 0.36590 0.24840 0.39200
O 	O 	0.50480 0.61970 0.91420 -0.16100
O 	O 	0.67348 0.65950 0.95760 -0.51500
O 	O 	0.73420 0.66360 0.08110 -0.51200
Zn	Zn	0.19361 0.72207 0.38413 1.22500
N 	N 	0.11590 0.29540 0.36530 -0.16800
O 	O 	0.12440 0.80350 0.26920 -0.41400
N 	N 	0.16620 0.49920 0.38000 -0.30200
N 	N 	0.01540 0.02600 0.98810 -0.05000
O 	O 	0.19830 0.86610 0.29380 -0.43600
C 	C 	0.19020 0.13840 0.03240 0.44600
C 	C 	0.06860 0.01560 0.04380 0.08000
C 	C 	0.17210 0.01050 0.14140 0.04500
H 	H 	0.20670 0.01090 0.17500 0.03600
C 	C 	0.15470 0.07460 0.06480 -0.12100
C 	C 	0.06950 0.20100 0.34870 -0.00500
H 	H 	0.04470 0.26930 0.35620 0.02700
H 	H 	0.07770 0.11430 0.38740 0.04700
C 	C 	0.07520 0.56880 0.34620 -0.89800
H 	H 	0.05560 0.57750 0.28920 0.29600
H 	H 	0.08810 0.67260 0.36800 0.29300
H 	H 	0.05400 0.52860 0.37070 0.29700
C 	C 	0.13750 0.94540 0.16750 -0.09300
C 	C 	0.11850 0.45660 0.36280 0.32700
H 	H 	0.00670 0.96460 0.29610 0.04900
C 	C 	0.10240 0.07900 0.01600 -0.03800
H 	H 	0.09040 0.12430 0.96500 0.06000
C 	C 	0.08640 0.94770 0.11970 -0.05700
H 	H 	0.06360 0.90400 0.13800 0.09100
C 	C 	0.16290 0.23410 0.38340 0.00500
H 	H 	0.17190 0.12620 0.38820 0.03400
C 	C 	0.19400 0.36080 0.39300 -0.00000
H 	H 	0.22870 0.35500 0.40630 0.02400
C 	C 	0.04590 0.13110 0.26510 -0.16500
H 	H 	0.03670 0.21790 0.22630 0.08100
H 	H 	0.07090 0.06480 0.25710 0.09400
C 	C 	0.15400 0.86590 0.24840 0.39200
O 	O 	0.00480 0.11970 0.91420 -0.16100
O 	O 	0.17348 0.15950 0.95760 -0.51300
O 	O 	0.23420 0.16360 0.08110 -0.51200
Zn	Zn	0.69361 0.77793 0.88413 1.22400
N 	N 	0.61590 0.20460 0.86530 -0.16900
O 	O 	0.62440 0.69650 0.76920 -0.41400
N 	N 	0.66620 0.00080 0.88000 -0.30200
N 	N 	0.51540 0.47400 0.48810 -0.05100
O 	O 	0.69830 0.63390 0.79380 -0.43600
C 	C 	0.69020 0.36160 0.53240 0.44800
C 	C 	0.56860 0.48440 0.54380 0.08200
C 	C 	0.67210 0.48950 0.64140 0.04700
H 	H 	0.70670 0.48910 0.67500 0.03600
C 	C 	0.65470 0.42540 0.56480 -0.12300
C 	C 	0.56950 0.29900 0.84870 -0.00500
H 	H 	0.54470 0.23070 0.85620 0.02700
H 	H 	0.57770 0.38570 0.88740 0.04700
C 	C 	0.57520 0.93120 0.84620 -0.90100
H 	H 	0.55560 0.92250 0.78920 0.29600
H 	H 	0.58810 0.82740 0.86800 0.29400
H 	H 	0.55400 0.97140 0.87070 0.29700
C 	C 	0.63750 0.55460 0.66750 -0.09400
C 	C 	0.61850 0.04340 0.86280 0.32800
H 	H 	0.50670 0.53540 0.79610 0.04900
C 	C 	0.60240 0.42100 0.51600 -0.03500
H 	H 	0.59040 0.37570 0.46500 0.05900
C 	C 	0.58640 0.55230 0.61970 -0.05800
H 	H 	0.56360 0.59600 0.63800 0.09100
C 	C 	0.66290 0.26590 0.88340 0.00500
H 	H 	0.67190 0.37380 0.88820 0.03400
C 	C 	0.69400 0.13920 0.89300 -0.00000
H 	H 	0.72870 0.14500 0.90630 0.02400
C 	C 	0.54590 0.36890 0.76510 -0.16500
H 	H 	0.53670 0.28210 0.72630 0.08100
H 	H 	0.57090 0.43520 0.75710 0.09400
C 	C 	0.65400 0.63410 0.74840 0.39200
O 	O 	0.50480 0.38030 0.41420 -0.16100
O 	O 	0.67348 0.34050 0.45760 -0.51400
O 	O 	0.73420 0.33640 0.58110 -0.51200
Zn	Zn	0.19361 0.27793 0.88413 1.22500
N 	N 	0.11590 0.70460 0.86530 -0.16900
O 	O 	0.12440 0.19650 0.76920 -0.41400
N 	N 	0.16620 0.50080 0.88000 -0.30200
N 	N 	0.01540 0.97400 0.48810 -0.05000
O 	O 	0.19830 0.13390 0.79380 -0.43600
C 	C 	0.19020 0.86160 0.53240 0.44800
C 	C 	0.06860 0.98440 0.54380 0.08100
C 	C 	0.17210 0.98950 0.64140 0.04600
H 	H 	0.20670 0.98910 0.67500 0.03600
C 	C 	0.15470 0.92540 0.56480 -0.12200
C 	C 	0.06950 0.79900 0.84870 -0.00400
H 	H 	0.04470 0.73070 0.85620 0.02700
H 	H 	0.07770 0.88570 0.88740 0.04700
C 	C 	0.07520 0.43120 0.84620 -0.89900
H 	H 	0.05560 0.42250 0.78920 0.29600
H 	H 	0.08810 0.32740 0.86800 0.29400
H 	H 	0.05400 0.47140 0.87070 0.29700
C 	C 	0.13750 0.05460 0.66750 -0.09300
C 	C 	0.11850 0.54340 0.86280 0.32700
H 	H 	0.00670 0.03540 0.79610 0.04900
C 	C 	0.10240 0.92100 0.51600 -0.03500
H 	H 	0.09040 0.87570 0.46500 0.05900
C 	C 	0.08640 0.05230 0.61970 -0.05800
H 	H 	0.06360 0.09600 0.63800 0.09100
C 	C 	0.16290 0.76590 0.88340 0.00500
H 	H 	0.17190 0.87380 0.88820 0.03300
C 	C 	0.19400 0.63920 0.89300 -0.00000
H 	H 	0.22870 0.64500 0.90630 0.02300
C 	C 	0.04590 0.86890 0.76510 -0.16600
H 	H 	0.03670 0.78210 0.72630 0.08100
H 	H 	0.07090 0.93520 0.75710 0.09400
C 	C 	0.15400 0.13410 0.74840 0.39200
O 	O 	0.00480 0.88030 0.41420 -0.16100
O 	O 	0.17348 0.84050 0.45760 -0.51400
O 	O 	0.23420 0.83640 0.58110 -0.51200
Zn	Zn	0.30639 0.77793 0.61587 1.22400
N 	N 	0.38410 0.20460 0.63470 -0.16900
O 	O 	0.37560 0.69650 0.73080 -0.41400
N 	N 	0.33380 0.00080 0.62000 -0.30200
N 	N 	0.48460 0.47400 0.01190 -0.05100
O 	O 	0.30170 0.63390 0.70620 -0.43600
C 	C 	0.30980 0.36160 0.96760 0.44900
C 	C 	0.43140 0.48440 0.95620 0.08100
C 	C 	0.32790 0.48950 0.85860 0.04700
H 	H 	0.29330 0.48910 0.82500 0.03600
C 	C 	0.34530 0.42540 0.93520 -0.12300
C 	C 	0.43050 0.29900 0.65130 -0.00500
H 	H 	0.45530 0.23070 0.64380 0.02700
H 	H 	0.42230 0.38570 0.61260 0.04700
C 	C 	0.42480 0.93120 0.65380 -0.89900
H 	H 	0.44440 0.92250 0.71080 0.29600
H 	H 	0.41190 0.82740 0.63200 0.29400
H 	H 	0.44600 0.97140 0.62930 0.29700
C 	C 	0.36250 0.55460 0.83250 -0.09500
C 	C 	0.38150 0.04340 0.63720 0.32700
H 	H 	0.49330 0.53540 0.70390 0.04900
C 	C 	0.39760 0.42100 0.98400 -0.03400
H 	H 	0.40960 0.37570 0.03500 0.05800
C 	C 	0.41360 0.55230 0.88030 -0.05800
H 	H 	0.43640 0.59600 0.86200 0.09100
C 	C 	0.33710 0.26590 0.61660 0.00500
H 	H 	0.32810 0.37380 0.61180 0.03400
C 	C 	0.30600 0.13920 0.60700 -0.00000
H 	H 	0.27130 0.14500 0.59370 0.02400
C 	C 	0.45410 0.36890 0.73490 -0.16500
H 	H 	0.46330 0.28210 0.77370 0.08100
H 	H 	0.42910 0.43520 0.74290 0.09400
C 	C 	0.34600 0.63410 0.75160 0.39200
O 	O 	0.49520 0.38030 0.08580 -0.16100
O 	O 	0.32652 0.34050 0.04240 -0.51500
O 	O 	0.26580 0.33640 0.91890 -0.51200
Zn	Zn	0.80639 0.27793 0.61587 1.22500
N 	N 	0.88410 0.70460 0.63470 -0.16900
O 	O 	0.87560 0.19650 0.73080 -0.41400
N 	N 	0.83380 0.50080 0.62000 -0.30200
N 	N 	0.98460 0.97400 0.01190 -0.05000
O 	O 	0.80170 0.13390 0.70620 -0.43600
C 	C 	0.80980 0.86160 0.96760 0.44700
C 	C 	0.93140 0.98440 0.95620 0.08000
C 	C 	0.82790 0.98950 0.85860 0.04500
H 	H 	0.79330 0.98910 0.82500 0.03600
C 	C 	0.84530 0.92540 0.93520 -0.12100
C 	C 	0.93050 0.79900 0.65130 -0.00400
H 	H 	0.95530 0.73070 0.64380 0.02600
H 	H 	0.92230 0.88570 0.61260 0.04700
C 	C 	0.92480 0.43120 0.65380 -0.89700
H 	H 	0.94440 0.42250 0.71080 0.29500
H 	H 	0.91190 0.32740 0.63200 0.29300
H 	H 	0.94600 0.47140 0.62930 0.29600
C 	C 	0.86250 0.05460 0.83250 -0.09300
C 	C 	0.88150 0.54340 0.63720 0.32600
H 	H 	0.99330 0.03540 0.70390 0.04800
C 	C 	0.89760 0.92100 0.98400 -0.03700
H 	H 	0.90960 0.87570 0.03500 0.06000
C 	C 	0.91360 0.05230 0.88030 -0.05700
H 	H 	0.93640 0.09600 0.86200 0.09000
C 	C 	0.83710 0.76590 0.61660 0.00500
H 	H 	0.82810 0.87380 0.61180 0.03400
C 	C 	0.80600 0.63920 0.60700 -0.00000
H 	H 	0.77130 0.64500 0.59370 0.02400
C 	C 	0.95410 0.86890 0.73490 -0.16600
H 	H 	0.96330 0.78210 0.77370 0.08100
H 	H 	0.92910 0.93520 0.74290 0.09400
C 	C 	0.84600 0.13410 0.75160 0.39200
O 	O 	0.99520 0.88030 0.08580 -0.16200
O 	O 	0.82652 0.84050 0.04240 -0.51300
O 	O 	0.76580 0.83640 0.91890 -0.51200
C 	C 	0.50000 0.53320 0.25000 -0.02600
C 	C 	0.00000 0.03320 0.25000 -0.02600
C 	C 	0.50000 0.46680 0.75000 -0.02600
C 	C 	0.00000 0.96680 0.75000 -0.02500
