data_crystal

_cell_length_a 24.06260
_cell_length_b 15.19160
_cell_length_c 10.48650
_cell_angle_alpha 90.00000
_cell_angle_beta  90.00000
_cell_angle_gamma 90.00000

_symmetry_space_group_name_	'P 1'
_symmetry_space_group_name_H-M	'P 1'

loop_
_symmetry_equiv_pos_as_xyz
  x,y,z

loop_
_atom_site_label
_atom_site_type_symbol
_atom_site_fract_x
_atom_site_fract_y
_atom_site_fract_z
_atom_site_charge
O 	O 	0.73200 0.15510 0.56470 -0.50900
O 	O 	0.66468 0.15760 0.71180 -0.46100
C 	C 	0.68700 0.12900 0.61490 0.38500
C 	C 	0.69320 0.86800 0.31860 0.39500
O 	O 	0.73836 0.84500 0.36570 -0.51400
O 	O 	0.67174 0.84140 0.21730 -0.47800
C 	C 	0.68810 0.99710 0.46790 0.00400
H 	H 	0.72680 0.99920 0.46780 -0.03300
N 	N 	0.51450 0.98410 0.45310 -0.05500
C 	C 	0.60290 0.93320 0.38990 -0.05200
H 	H 	0.58460 0.89450 0.33550 0.07700
C 	C 	0.65770 0.05710 0.54140 -0.10700
C 	C 	0.66050 0.93450 0.39530 -0.11500
C 	C 	0.60040 0.05250 0.54460 -0.05600
H 	H 	0.58020 0.08990 0.59740 0.08100
C 	C 	0.57280 0.99080 0.46740 0.08100
O 	O 	0.49870 0.98700 0.32380 -0.13900
C 	C 	0.38080 0.86410 0.87900 -0.08800
N 	N 	0.37520 0.78180 0.81870 -0.10200
N 	N 	0.34300 0.76760 0.01810 -0.13500
C 	C 	0.35100 0.72200 0.90540 0.10700
C 	C 	0.36300 0.85490 0.00500 -0.03900
N 	N 	0.62190 0.78340 0.75640 -0.10000
C 	C 	0.62110 0.86780 0.80900 -0.28100
C 	C 	0.64410 0.85920 0.93100 -0.85900
N 	N 	0.66590 0.77470 0.94090 -0.11300
C 	C 	0.67020 0.88240 0.85070 1.42700
C 	C 	0.32520 0.87540 0.90860 0.07200
C 	C 	0.68600 0.90650 0.99300 -1.47700
C 	C 	0.64290 0.71570 0.84770 0.17100
C 	C 	0.44240 0.74200 0.64870 -0.04200
C 	C 	0.54210 0.74500 0.62810 -0.04200
C 	C 	0.38370 0.74000 0.69290 -0.01400
C 	C 	0.49360 0.77630 0.68630 -0.05900
C 	C 	0.29050 0.93400 0.00420 -0.59200
C 	C 	0.27460 0.85380 0.81250 -0.06800
H 	H 	0.61200 0.78940 0.56550 -0.00300
H 	H 	0.61510 0.69270 0.61670 0.05400
H 	H 	0.45090 0.68020 0.63750 0.04900
H 	H 	0.43870 0.76510 0.56280 0.02300
H 	H 	0.53670 0.68140 0.63410 0.06100
H 	H 	0.53510 0.75830 0.53920 0.02200
H 	H 	0.36050 0.76890 0.63030 0.01200
H 	H 	0.37170 0.67870 0.69790 0.04700
H 	H 	0.49720 0.76660 0.77740 0.04600
H 	H 	0.49240 0.83940 0.67310 0.04100
H 	H 	0.39400 0.91550 0.84180 0.06600
H 	H 	0.36400 0.89770 0.06870 0.04000
H 	H 	0.60800 0.91910 0.77060 0.23900
H 	H 	0.64460 0.90230 0.99380 0.66000
H 	H 	0.64380 0.57440 0.81680 -0.37600
H 	H 	0.71140 0.60400 0.67490 0.57700
H 	H 	0.75260 0.59740 0.79030 0.55200
H 	H 	0.72980 0.68940 0.74740 0.56700
H 	H 	0.69140 0.64670 0.04100 0.42000
H 	H 	0.71970 0.55960 0.99370 0.48600
H 	H 	0.65650 0.55980 0.03060 0.17300
H 	H 	0.35110 0.58560 0.86370 0.01700
H 	H 	0.28880 0.67540 0.73810 -0.02100
H 	H 	0.24820 0.68380 0.85440 -0.03600
H 	H 	0.25670 0.59240 0.78770 0.08800
H 	H 	0.28470 0.50890 0.96770 0.14300
H 	H 	0.25520 0.59360 0.01980 0.23500
H 	H 	0.31030 0.56050 0.08310 0.21000
C 	C 	0.72090 0.62800 0.75670 -1.86300
O 	O 	0.76800 0.84490 0.06470 -0.50800
O 	O 	0.83532 0.84240 0.21180 -0.46100
C 	C 	0.81300 0.87100 0.11490 0.38500
C 	C 	0.80680 0.13200 0.81860 0.39600
O 	O 	0.76164 0.15500 0.86570 -0.51200
O 	O 	0.82826 0.15860 0.71730 -0.47900
C 	C 	0.81190 0.00290 0.96790 0.00700
H 	H 	0.77320 0.00080 0.96780 -0.03200
N 	N 	0.98550 0.01590 0.95310 -0.05500
C 	C 	0.89710 0.06680 0.88990 -0.05200
H 	H 	0.91540 0.10550 0.83550 0.07700
C 	C 	0.84230 0.94290 0.04140 -0.11000
C 	C 	0.83950 0.06550 0.89530 -0.11500
C 	C 	0.89960 0.94750 0.04460 -0.05900
H 	H 	0.91980 0.91010 0.09740 0.08100
C 	C 	0.92720 0.00920 0.96740 0.08300
O 	O 	0.00130 0.01300 0.82380 -0.14000
C 	C 	0.11920 0.13590 0.37900 -0.08800
N 	N 	0.12480 0.21820 0.31870 -0.10200
N 	N 	0.15700 0.23240 0.51810 -0.13400
C 	C 	0.14900 0.27800 0.40540 0.10600
C 	C 	0.13700 0.14510 0.50500 -0.05100
N 	N 	0.87810 0.21660 0.25640 -0.10000
C 	C 	0.87890 0.13220 0.30900 -0.29000
C 	C 	0.85590 0.14080 0.43100 -0.87500
N 	N 	0.83410 0.22530 0.44090 -0.11300
C 	C 	0.82980 0.11760 0.35070 1.46400
C 	C 	0.17480 0.12460 0.40860 0.09900
C 	C 	0.81400 0.09350 0.49300 -1.52500
C 	C 	0.85710 0.28430 0.34770 0.16900
C 	C 	0.05760 0.25800 0.14870 -0.04300
C 	C 	0.95790 0.25500 0.12810 -0.04200
C 	C 	0.11630 0.26000 0.19290 -0.01400
C 	C 	0.00640 0.22370 0.18630 -0.05800
C 	C 	0.20950 0.06600 0.50420 -0.62700
C 	C 	0.22540 0.14620 0.31250 -0.10300
H 	H 	0.88800 0.21060 0.06550 -0.00300
H 	H 	0.88490 0.30730 0.11670 0.05300
H 	H 	0.04910 0.31980 0.13750 0.05000
H 	H 	0.06130 0.23490 0.06280 0.02400
H 	H 	0.96330 0.31860 0.13410 0.06000
H 	H 	0.96490 0.24170 0.03920 0.02200
H 	H 	0.13950 0.23110 0.13030 0.01200
H 	H 	0.12830 0.32130 0.19790 0.04700
H 	H 	0.00280 0.23340 0.27740 0.04600
H 	H 	0.00760 0.16060 0.17310 0.04100
H 	H 	0.10600 0.08450 0.34180 0.06800
H 	H 	0.13600 0.10230 0.56870 0.04300
H 	H 	0.89200 0.08090 0.27060 0.24500
H 	H 	0.85540 0.09770 0.49380 0.67200
H 	H 	0.85620 0.42560 0.31680 -0.38800
H 	H 	0.78860 0.39600 0.17490 0.59200
H 	H 	0.74740 0.40260 0.29030 0.56800
H 	H 	0.77020 0.31060 0.24740 0.58100
H 	H 	0.80860 0.35330 0.54100 0.43700
H 	H 	0.78030 0.44040 0.49370 0.49700
H 	H 	0.84350 0.44020 0.53060 0.18400
H 	H 	0.14890 0.41440 0.36370 0.00900
H 	H 	0.21120 0.32460 0.23810 -0.00800
H 	H 	0.25180 0.31620 0.35440 -0.02300
H 	H 	0.24330 0.40760 0.28770 0.10000
H 	H 	0.21530 0.49110 0.46770 0.15600
H 	H 	0.24480 0.40640 0.51980 0.24600
H 	H 	0.18970 0.43950 0.58310 0.22100
C 	C 	0.77910 0.37200 0.25670 -1.91000
O 	O 	0.26800 0.65510 0.43530 -0.50800
O 	O 	0.33532 0.65760 0.28820 -0.46000
C 	C 	0.31300 0.62900 0.38510 0.38500
C 	C 	0.30680 0.36800 0.68140 0.39500
O 	O 	0.26164 0.34500 0.63430 -0.51400
O 	O 	0.32826 0.34140 0.78270 -0.47800
C 	C 	0.31190 0.49710 0.53210 0.00400
H 	H 	0.27320 0.49920 0.53220 -0.03300
N 	N 	0.48550 0.48410 0.54690 -0.05500
C 	C 	0.39710 0.43320 0.61010 -0.05200
H 	H 	0.41540 0.39450 0.66450 0.07700
C 	C 	0.34230 0.55710 0.45860 -0.10700
C 	C 	0.33950 0.43450 0.60470 -0.11500
C 	C 	0.39960 0.55250 0.45540 -0.05600
H 	H 	0.41980 0.58990 0.40260 0.08100
C 	C 	0.42720 0.49080 0.53260 0.08100
O 	O 	0.50130 0.48700 0.67620 -0.13900
C 	C 	0.61920 0.36410 0.12100 -0.08800
N 	N 	0.62480 0.28180 0.18130 -0.10200
N 	N 	0.65700 0.26760 0.98190 -0.13400
C 	C 	0.64900 0.22200 0.09460 0.10700
C 	C 	0.63700 0.35490 0.99500 -0.03900
N 	N 	0.37810 0.28340 0.24360 -0.10200
C 	C 	0.37890 0.36780 0.19100 -0.28300
C 	C 	0.35590 0.35920 0.06900 -0.85900
N 	N 	0.33410 0.27470 0.05910 -0.11400
C 	C 	0.32980 0.38240 0.14930 1.42600
C 	C 	0.67480 0.37540 0.09140 0.07100
C 	C 	0.31400 0.40650 0.00700 -1.47700
C 	C 	0.35710 0.21570 0.15230 0.16600
C 	C 	0.55760 0.24200 0.35130 -0.04200
C 	C 	0.45790 0.24500 0.37190 -0.04200
C 	C 	0.61630 0.24000 0.30710 -0.01400
C 	C 	0.50640 0.27630 0.31370 -0.05900
C 	C 	0.70950 0.43400 0.99580 -0.59000
C 	C 	0.72540 0.35380 0.18750 -0.06700
H 	H 	0.38800 0.28940 0.43450 -0.00300
H 	H 	0.38490 0.19270 0.38330 0.05300
H 	H 	0.54910 0.18020 0.36250 0.04900
H 	H 	0.56130 0.26510 0.43720 0.02300
H 	H 	0.46330 0.18140 0.36590 0.06100
H 	H 	0.46490 0.25830 0.46080 0.02200
H 	H 	0.63950 0.26890 0.36970 0.01200
H 	H 	0.62830 0.17870 0.30210 0.04700
H 	H 	0.50280 0.26660 0.22260 0.04600
H 	H 	0.50760 0.33940 0.32690 0.04100
H 	H 	0.60600 0.41550 0.15820 0.06600
H 	H 	0.63600 0.39770 0.93130 0.04000
H 	H 	0.39200 0.41910 0.22940 0.24000
H 	H 	0.35540 0.40230 0.00620 0.66000
H 	H 	0.35620 0.07440 0.18320 -0.37600
H 	H 	0.28860 0.10400 0.32510 0.57700
H 	H 	0.24740 0.09740 0.20970 0.55200
H 	H 	0.27020 0.18940 0.25260 0.56700
H 	H 	0.30860 0.14670 0.95900 0.42000
H 	H 	0.28030 0.05960 0.00630 0.48500
H 	H 	0.34350 0.05980 0.96940 0.17300
H 	H 	0.64890 0.08560 0.13630 0.01700
H 	H 	0.71120 0.17540 0.26190 -0.02000
H 	H 	0.75180 0.18380 0.14560 -0.03500
H 	H 	0.74330 0.09240 0.21230 0.08800
H 	H 	0.71530 0.00890 0.03230 0.14400
H 	H 	0.74480 0.09360 0.98020 0.23600
H 	H 	0.68970 0.06050 0.91690 0.21100
C 	C 	0.27910 0.12800 0.24330 -1.86300
O 	O 	0.23200 0.34490 0.93530 -0.50800
O 	O 	0.16468 0.34240 0.78820 -0.46100
C 	C 	0.18700 0.37100 0.88510 0.38500
C 	C 	0.19320 0.63200 0.18140 0.39600
O 	O 	0.23836 0.65500 0.13430 -0.51200
O 	O 	0.17174 0.65860 0.28270 -0.47900
C 	C 	0.18810 0.50290 0.03210 0.00800
H 	H 	0.22680 0.50080 0.03220 -0.03200
N 	N 	0.01450 0.51590 0.04690 -0.05500
C 	C 	0.10290 0.56680 0.11010 -0.05200
H 	H 	0.08460 0.60550 0.16450 0.07700
C 	C 	0.15770 0.44290 0.95860 -0.11000
C 	C 	0.16050 0.56550 0.10470 -0.11500
C 	C 	0.10040 0.44750 0.95540 -0.05900
H 	H 	0.08020 0.41010 0.90260 0.08100
C 	C 	0.07280 0.50920 0.03260 0.08400
O 	O 	0.99870 0.51300 0.17620 -0.14000
C 	C 	0.88080 0.63590 0.62100 -0.08800
N 	N 	0.87520 0.71820 0.68130 -0.10200
N 	N 	0.84300 0.73240 0.48190 -0.13400
C 	C 	0.85100 0.77800 0.59460 0.10600
C 	C 	0.86300 0.64510 0.49500 -0.05100
N 	N 	0.12190 0.71660 0.74360 -0.10000
C 	C 	0.12110 0.63220 0.69100 -0.29000
C 	C 	0.14410 0.64080 0.56900 -0.87600
N 	N 	0.16590 0.72530 0.55910 -0.11400
C 	C 	0.17020 0.61760 0.64930 1.46600
C 	C 	0.82520 0.62460 0.59140 0.09900
C 	C 	0.18600 0.59350 0.50700 -1.52600
C 	C 	0.14290 0.78430 0.65230 0.16700
C 	C 	0.94240 0.75800 0.85130 -0.04300
C 	C 	0.04210 0.75500 0.87190 -0.04200
C 	C 	0.88370 0.76000 0.80710 -0.01400
C 	C 	0.99360 0.72370 0.81370 -0.05800
C 	C 	0.79050 0.56600 0.49580 -0.62700
C 	C 	0.77460 0.64620 0.68750 -0.10300
H 	H 	0.11200 0.71060 0.93450 -0.00300
H 	H 	0.11510 0.80730 0.88330 0.05300
H 	H 	0.95090 0.81980 0.86250 0.05000
H 	H 	0.93870 0.73490 0.93720 0.02400
H 	H 	0.03670 0.81860 0.86590 0.06000
H 	H 	0.03510 0.74170 0.96080 0.02200
H 	H 	0.86050 0.73110 0.86970 0.01200
H 	H 	0.87170 0.82130 0.80210 0.04700
H 	H 	0.99720 0.73340 0.72260 0.04600
H 	H 	0.99240 0.66060 0.82690 0.04100
H 	H 	0.89400 0.58450 0.65820 0.06800
H 	H 	0.86400 0.60230 0.43130 0.04300
H 	H 	0.10800 0.58090 0.72940 0.24500
H 	H 	0.14460 0.59770 0.50620 0.67200
H 	H 	0.14380 0.92560 0.68320 -0.38700
H 	H 	0.21140 0.89600 0.82510 0.59100
H 	H 	0.25260 0.90260 0.70970 0.56800
H 	H 	0.22980 0.81060 0.75260 0.58000
H 	H 	0.19140 0.85330 0.45900 0.43700
H 	H 	0.21970 0.94040 0.50630 0.49700
H 	H 	0.15650 0.94020 0.46940 0.18400
H 	H 	0.85110 0.91440 0.63630 0.00900
H 	H 	0.78880 0.82460 0.76190 -0.00800
H 	H 	0.74820 0.81620 0.64560 -0.02300
H 	H 	0.75670 0.90760 0.71230 0.10000
H 	H 	0.78470 0.99110 0.53230 0.15600
H 	H 	0.75520 0.90640 0.48020 0.24600
H 	H 	0.81030 0.93950 0.41690 0.22100
C 	C 	0.22090 0.87200 0.74330 -1.90800
O 	O 	0.26800 0.84490 0.43530 -0.50800
O 	O 	0.33532 0.84240 0.28820 -0.46000
C 	C 	0.31300 0.87100 0.38510 0.38500
C 	C 	0.30680 0.13200 0.68140 0.39500
O 	O 	0.26164 0.15500 0.63430 -0.51400
O 	O 	0.32826 0.15860 0.78270 -0.47800
C 	C 	0.31190 0.00290 0.53210 0.00400
H 	H 	0.27320 0.00080 0.53220 -0.03300
N 	N 	0.48550 0.01590 0.54690 -0.05500
C 	C 	0.39710 0.06680 0.61010 -0.05200
H 	H 	0.41540 0.10550 0.66450 0.07700
C 	C 	0.34230 0.94290 0.45860 -0.10700
C 	C 	0.33950 0.06550 0.60470 -0.11500
C 	C 	0.39960 0.94750 0.45540 -0.05600
H 	H 	0.41980 0.91010 0.40260 0.08100
C 	C 	0.42720 0.00920 0.53260 0.08100
O 	O 	0.50130 0.01300 0.67620 -0.13900
C 	C 	0.61920 0.13590 0.12100 -0.08800
N 	N 	0.62480 0.21820 0.18130 -0.10200
N 	N 	0.65700 0.23240 0.98190 -0.13500
C 	C 	0.64900 0.27800 0.09460 0.10700
C 	C 	0.63700 0.14510 0.99500 -0.03900
N 	N 	0.37810 0.21660 0.24360 -0.10000
C 	C 	0.37890 0.13220 0.19100 -0.28100
C 	C 	0.35590 0.14080 0.06900 -0.85900
N 	N 	0.33410 0.22530 0.05910 -0.11300
C 	C 	0.32980 0.11760 0.14930 1.42700
C 	C 	0.67480 0.12460 0.09140 0.07200
C 	C 	0.31400 0.09350 0.00700 -1.47700
C 	C 	0.35710 0.28430 0.15230 0.17100
C 	C 	0.55760 0.25800 0.35130 -0.04200
C 	C 	0.45790 0.25500 0.37190 -0.04200
C 	C 	0.61630 0.26000 0.30710 -0.01400
C 	C 	0.50640 0.22370 0.31370 -0.05900
C 	C 	0.70950 0.06600 0.99580 -0.59200
C 	C 	0.72540 0.14620 0.18750 -0.06800
H 	H 	0.38800 0.21060 0.43450 -0.00300
H 	H 	0.38490 0.30730 0.38330 0.05400
H 	H 	0.54910 0.31980 0.36250 0.04900
H 	H 	0.56130 0.23490 0.43720 0.02300
H 	H 	0.46330 0.31860 0.36590 0.06100
H 	H 	0.46490 0.24170 0.46080 0.02200
H 	H 	0.63950 0.23110 0.36970 0.01200
H 	H 	0.62830 0.32130 0.30210 0.04700
H 	H 	0.50280 0.23340 0.22260 0.04600
H 	H 	0.50760 0.16060 0.32690 0.04100
H 	H 	0.60600 0.08450 0.15820 0.06600
H 	H 	0.63600 0.10230 0.93130 0.04000
H 	H 	0.39200 0.08090 0.22940 0.23900
H 	H 	0.35540 0.09770 0.00620 0.66000
H 	H 	0.35620 0.42560 0.18320 -0.37600
H 	H 	0.28860 0.39600 0.32510 0.57700
H 	H 	0.24740 0.40260 0.20970 0.55200
H 	H 	0.27020 0.31060 0.25260 0.56700
H 	H 	0.30860 0.35330 0.95900 0.42000
H 	H 	0.28030 0.44040 0.00630 0.48600
H 	H 	0.34350 0.44020 0.96940 0.17300
H 	H 	0.64890 0.41440 0.13630 0.01700
H 	H 	0.71120 0.32460 0.26190 -0.02100
H 	H 	0.75180 0.31620 0.14560 -0.03600
H 	H 	0.74330 0.40760 0.21230 0.08800
H 	H 	0.71530 0.49110 0.03230 0.14300
H 	H 	0.74480 0.40640 0.98020 0.23500
H 	H 	0.68970 0.43950 0.91690 0.21000
C 	C 	0.27910 0.37200 0.24330 -1.86300
O 	O 	0.23200 0.15510 0.93530 -0.50800
O 	O 	0.16468 0.15760 0.78820 -0.46100
C 	C 	0.18700 0.12900 0.88510 0.38500
C 	C 	0.19320 0.86800 0.18140 0.39600
O 	O 	0.23836 0.84500 0.13430 -0.51200
O 	O 	0.17174 0.84140 0.28270 -0.47900
C 	C 	0.18810 0.99710 0.03210 0.00700
H 	H 	0.22680 0.99920 0.03220 -0.03200
N 	N 	0.01450 0.98410 0.04690 -0.05500
C 	C 	0.10290 0.93320 0.11010 -0.05200
H 	H 	0.08460 0.89450 0.16450 0.07700
C 	C 	0.15770 0.05710 0.95860 -0.11000
C 	C 	0.16050 0.93450 0.10470 -0.11500
C 	C 	0.10040 0.05250 0.95540 -0.05900
H 	H 	0.08020 0.08990 0.90260 0.08100
C 	C 	0.07280 0.99080 0.03260 0.08300
O 	O 	0.99870 0.98700 0.17620 -0.14000
C 	C 	0.88080 0.86410 0.62100 -0.08800
N 	N 	0.87520 0.78180 0.68130 -0.10200
N 	N 	0.84300 0.76760 0.48190 -0.13400
C 	C 	0.85100 0.72200 0.59460 0.10600
C 	C 	0.86300 0.85490 0.49500 -0.05100
N 	N 	0.12190 0.78340 0.74360 -0.10000
C 	C 	0.12110 0.86780 0.69100 -0.29000
C 	C 	0.14410 0.85920 0.56900 -0.87500
N 	N 	0.16590 0.77470 0.55910 -0.11300
C 	C 	0.17020 0.88240 0.64930 1.46400
C 	C 	0.82520 0.87540 0.59140 0.09900
C 	C 	0.18600 0.90650 0.50700 -1.52500
C 	C 	0.14290 0.71570 0.65230 0.16900
C 	C 	0.94240 0.74200 0.85130 -0.04300
C 	C 	0.04210 0.74500 0.87190 -0.04200
C 	C 	0.88370 0.74000 0.80710 -0.01400
C 	C 	0.99360 0.77630 0.81370 -0.05800
C 	C 	0.79050 0.93400 0.49580 -0.62700
C 	C 	0.77460 0.85380 0.68750 -0.10300
H 	H 	0.11200 0.78940 0.93450 -0.00300
H 	H 	0.11510 0.69270 0.88330 0.05300
H 	H 	0.95090 0.68020 0.86250 0.05000
H 	H 	0.93870 0.76510 0.93720 0.02400
H 	H 	0.03670 0.68140 0.86590 0.06000
H 	H 	0.03510 0.75830 0.96080 0.02200
H 	H 	0.86050 0.76890 0.86970 0.01200
H 	H 	0.87170 0.67870 0.80210 0.04700
H 	H 	0.99720 0.76660 0.72260 0.04600
H 	H 	0.99240 0.83940 0.82690 0.04100
H 	H 	0.89400 0.91550 0.65820 0.06800
H 	H 	0.86400 0.89770 0.43130 0.04300
H 	H 	0.10800 0.91910 0.72940 0.24500
H 	H 	0.14460 0.90230 0.50620 0.67200
H 	H 	0.14380 0.57440 0.68320 -0.38800
H 	H 	0.21140 0.60400 0.82510 0.59200
H 	H 	0.25260 0.59740 0.70970 0.56800
H 	H 	0.22980 0.68940 0.75260 0.58100
H 	H 	0.19140 0.64670 0.45900 0.43700
H 	H 	0.21970 0.55960 0.50630 0.49700
H 	H 	0.15650 0.55980 0.46940 0.18400
H 	H 	0.85110 0.58560 0.63630 0.00900
H 	H 	0.78880 0.67540 0.76190 -0.00800
H 	H 	0.74820 0.68380 0.64560 -0.02300
H 	H 	0.75670 0.59240 0.71230 0.10000
H 	H 	0.78470 0.50890 0.53230 0.15600
H 	H 	0.75520 0.59360 0.48020 0.24600
H 	H 	0.81030 0.56050 0.41690 0.22100
C 	C 	0.22090 0.62800 0.74330 -1.91000
O 	O 	0.73200 0.34490 0.56470 -0.50800
O 	O 	0.66468 0.34240 0.71180 -0.46000
C 	C 	0.68700 0.37100 0.61490 0.38500
C 	C 	0.69320 0.63200 0.31860 0.39500
O 	O 	0.73836 0.65500 0.36570 -0.51400
O 	O 	0.67174 0.65860 0.21730 -0.47800
C 	C 	0.68810 0.50290 0.46790 0.00400
H 	H 	0.72680 0.50080 0.46780 -0.03300
N 	N 	0.51450 0.51590 0.45310 -0.05500
C 	C 	0.60290 0.56680 0.38990 -0.05200
H 	H 	0.58460 0.60550 0.33550 0.07700
C 	C 	0.65770 0.44290 0.54140 -0.10700
C 	C 	0.66050 0.56550 0.39530 -0.11500
C 	C 	0.60040 0.44750 0.54460 -0.05600
H 	H 	0.58020 0.41010 0.59740 0.08100
C 	C 	0.57280 0.50920 0.46740 0.08100
O 	O 	0.49870 0.51300 0.32380 -0.13900
C 	C 	0.38080 0.63590 0.87900 -0.08800
N 	N 	0.37520 0.71820 0.81870 -0.10200
N 	N 	0.34300 0.73240 0.01810 -0.13400
C 	C 	0.35100 0.77800 0.90540 0.10700
C 	C 	0.36300 0.64510 0.00500 -0.03900
N 	N 	0.62190 0.71660 0.75640 -0.10200
C 	C 	0.62110 0.63220 0.80900 -0.28300
C 	C 	0.64410 0.64080 0.93100 -0.85900
N 	N 	0.66590 0.72530 0.94090 -0.11400
C 	C 	0.67020 0.61760 0.85070 1.42600
C 	C 	0.32520 0.62460 0.90860 0.07100
C 	C 	0.68600 0.59350 0.99300 -1.47700
C 	C 	0.64290 0.78430 0.84770 0.16600
C 	C 	0.44240 0.75800 0.64870 -0.04200
C 	C 	0.54210 0.75500 0.62810 -0.04200
C 	C 	0.38370 0.76000 0.69290 -0.01400
C 	C 	0.49360 0.72370 0.68630 -0.05900
C 	C 	0.29050 0.56600 0.00420 -0.59000
C 	C 	0.27460 0.64620 0.81250 -0.06700
H 	H 	0.61200 0.71060 0.56550 -0.00300
H 	H 	0.61510 0.80730 0.61670 0.05300
H 	H 	0.45090 0.81980 0.63750 0.04900
H 	H 	0.43870 0.73490 0.56280 0.02300
H 	H 	0.53670 0.81860 0.63410 0.06100
H 	H 	0.53510 0.74170 0.53920 0.02200
H 	H 	0.36050 0.73110 0.63030 0.01200
H 	H 	0.37170 0.82130 0.69790 0.04700
H 	H 	0.49720 0.73340 0.77740 0.04600
H 	H 	0.49240 0.66060 0.67310 0.04100
H 	H 	0.39400 0.58450 0.84180 0.06600
H 	H 	0.36400 0.60230 0.06870 0.04000
H 	H 	0.60800 0.58090 0.77060 0.24000
H 	H 	0.64460 0.59770 0.99380 0.66000
H 	H 	0.64380 0.92560 0.81680 -0.37600
H 	H 	0.71140 0.89600 0.67490 0.57700
H 	H 	0.75260 0.90260 0.79030 0.55200
H 	H 	0.72980 0.81060 0.74740 0.56700
H 	H 	0.69140 0.85330 0.04100 0.42000
H 	H 	0.71970 0.94040 0.99370 0.48500
H 	H 	0.65650 0.94020 0.03060 0.17300
H 	H 	0.35110 0.91440 0.86370 0.01700
H 	H 	0.28880 0.82460 0.73810 -0.02000
H 	H 	0.24820 0.81620 0.85440 -0.03500
H 	H 	0.25670 0.90760 0.78770 0.08800
H 	H 	0.28470 0.99110 0.96770 0.14400
H 	H 	0.25520 0.90640 0.01980 0.23600
H 	H 	0.31030 0.93950 0.08310 0.21100
C 	C 	0.72090 0.87200 0.75670 -1.86300
O 	O 	0.76800 0.65510 0.06470 -0.50800
O 	O 	0.83532 0.65760 0.21180 -0.46100
C 	C 	0.81300 0.62900 0.11490 0.38500
C 	C 	0.80680 0.36800 0.81860 0.39600
O 	O 	0.76164 0.34500 0.86570 -0.51200
O 	O 	0.82826 0.34140 0.71730 -0.47900
C 	C 	0.81190 0.49710 0.96790 0.00800
H 	H 	0.77320 0.49920 0.96780 -0.03200
N 	N 	0.98550 0.48410 0.95310 -0.05500
C 	C 	0.89710 0.43320 0.88990 -0.05200
H 	H 	0.91540 0.39450 0.83550 0.07700
C 	C 	0.84230 0.55710 0.04140 -0.11000
C 	C 	0.83950 0.43450 0.89530 -0.11500
C 	C 	0.89960 0.55250 0.04460 -0.05900
H 	H 	0.91980 0.58990 0.09740 0.08100
C 	C 	0.92720 0.49080 0.96740 0.08400
O 	O 	0.00130 0.48700 0.82380 -0.14000
C 	C 	0.11920 0.36410 0.37900 -0.08800
N 	N 	0.12480 0.28180 0.31870 -0.10200
N 	N 	0.15700 0.26760 0.51810 -0.13400
C 	C 	0.14900 0.22200 0.40540 0.10600
C 	C 	0.13700 0.35490 0.50500 -0.05100
N 	N 	0.87810 0.28340 0.25640 -0.10000
C 	C 	0.87890 0.36780 0.30900 -0.29000
C 	C 	0.85590 0.35920 0.43100 -0.87600
N 	N 	0.83410 0.27470 0.44090 -0.11400
C 	C 	0.82980 0.38240 0.35070 1.46600
C 	C 	0.17480 0.37540 0.40860 0.09900
C 	C 	0.81400 0.40650 0.49300 -1.52600
C 	C 	0.85710 0.21570 0.34770 0.16700
C 	C 	0.05760 0.24200 0.14870 -0.04300
C 	C 	0.95790 0.24500 0.12810 -0.04200
C 	C 	0.11630 0.24000 0.19290 -0.01400
C 	C 	0.00640 0.27630 0.18630 -0.05800
C 	C 	0.20950 0.43400 0.50420 -0.62700
C 	C 	0.22540 0.35380 0.31250 -0.10300
H 	H 	0.88800 0.28940 0.06550 -0.00300
H 	H 	0.88490 0.19270 0.11670 0.05300
H 	H 	0.04910 0.18020 0.13750 0.05000
H 	H 	0.06130 0.26510 0.06280 0.02400
H 	H 	0.96330 0.18140 0.13410 0.06000
H 	H 	0.96490 0.25830 0.03920 0.02200
H 	H 	0.13950 0.26890 0.13030 0.01200
H 	H 	0.12830 0.17870 0.19790 0.04700
H 	H 	0.00280 0.26660 0.27740 0.04600
H 	H 	0.00760 0.33940 0.17310 0.04100
H 	H 	0.10600 0.41550 0.34180 0.06800
H 	H 	0.13600 0.39770 0.56870 0.04300
H 	H 	0.89200 0.41910 0.27060 0.24500
H 	H 	0.85540 0.40230 0.49380 0.67200
H 	H 	0.85620 0.07440 0.31680 -0.38700
H 	H 	0.78860 0.10400 0.17490 0.59100
H 	H 	0.74740 0.09740 0.29030 0.56800
H 	H 	0.77020 0.18940 0.24740 0.58000
H 	H 	0.80860 0.14670 0.54100 0.43700
H 	H 	0.78030 0.05960 0.49370 0.49700
H 	H 	0.84350 0.05980 0.53060 0.18400
H 	H 	0.14890 0.08560 0.36370 0.00900
H 	H 	0.21120 0.17540 0.23810 -0.00800
H 	H 	0.25180 0.18380 0.35440 -0.02300
H 	H 	0.24330 0.09240 0.28770 0.10000
H 	H 	0.21530 0.00890 0.46770 0.15600
H 	H 	0.24480 0.09360 0.51980 0.24600
H 	H 	0.18970 0.06050 0.58310 0.22100
C 	C 	0.77910 0.12800 0.25670 -1.90800
Zn	Zn	0.71013 0.75000 0.10479 1.20000
Zn	Zn	0.29751 0.75000 0.17666 1.22100
C 	C 	0.59950 0.75000 0.63310 -0.04000
Zn	Zn	0.78987 0.25000 0.60479 1.19900
Zn	Zn	0.20249 0.25000 0.67666 1.22100
C 	C 	0.90050 0.25000 0.13310 -0.04000
Zn	Zn	0.28987 0.25000 0.89521 1.20000
Zn	Zn	0.70249 0.25000 0.82334 1.22100
C 	C 	0.40050 0.25000 0.36690 -0.04000
Zn	Zn	0.21013 0.75000 0.39521 1.19900
Zn	Zn	0.79751 0.75000 0.32334 1.22100
C 	C 	0.09950 0.75000 0.86690 -0.04000
