data_crystal

_cell_length_a 10.37300
_cell_length_b 15.08800
_cell_length_c 24.12600
_cell_angle_alpha 90.00000
_cell_angle_beta  90.00000
_cell_angle_gamma 90.00000

_symmetry_space_group_name_	'P 1'
_symmetry_space_group_name_H-M	'P 1'

loop_
_symmetry_equiv_pos_as_xyz
  x,y,z

loop_
_atom_site_label
_atom_site_type_symbol
_atom_site_fract_x
_atom_site_fract_y
_atom_site_fract_z
_atom_site_charge
Zn	Zn	0.59298 0.50024 0.95972 1.21900
Zn	Zn	0.81513 0.50009 0.04574 1.21800
O 	O 	0.35930 0.09540 0.01120 -0.47900
C 	C 	0.54770 0.29660 0.15090 -0.07800
H 	H 	0.60460 0.33130 0.17130 0.09000
C 	C 	0.53670 0.30510 0.09350 -0.06600
O 	O 	0.20770 0.09230 0.07730 -0.44000
C 	C 	0.47280 0.19080 0.40880 -0.07500
C 	C 	0.38950 0.18490 0.08930 -0.06800
C 	C 	0.46930 0.23340 0.17610 0.09600
C 	C 	0.62710 0.31340 0.40790 -0.06700
O 	O 	0.71360 0.40420 0.08690 -0.43800
C 	C 	0.54590 0.25240 0.32190 0.10300
O 	O 	0.56150 0.40690 0.02060 -0.46900
C 	C 	0.46150 0.24810 0.06240 -0.00200
H 	H 	0.45980 0.25240 0.02400 0.04500
N 	N 	0.17170 0.52720 0.12420 -0.11800
C 	C 	0.31390 0.11820 0.05580 0.37800
C 	C 	0.38850 0.17880 0.14610 -0.07200
H 	H 	0.33450 0.13870 0.16390 0.08900
C 	C 	0.55090 0.25200 0.43720 -0.00500
H 	H 	0.55220 0.25190 0.47570 0.04400
N 	N 	0.46250 0.22520 0.23820 -0.04300
N 	N 	0.54890 0.25800 0.26510 -0.06100
C 	C 	0.62780 0.31130 0.35010 -0.07400
H 	H 	0.68220 0.34870 0.33030 0.08600
C 	C 	0.61080 0.37840 0.06500 0.36400
C 	C 	0.46690 0.19260 0.35130 -0.07500
H 	H 	0.41150 0.15470 0.33240 0.09600
C 	C 	0.11080 0.60530 0.13900 -0.00400
H 	H 	0.14660 0.65130 0.15960 0.04700
N 	N 	0.97510 0.52220 0.09090 -0.24700
C 	C 	0.30480 0.50770 0.13730 -0.03100
H 	H 	0.35250 0.56300 0.13640 0.05100
H 	H 	0.33900 0.47050 0.10800 0.04000
C 	C 	0.08390 0.47830 0.09550 0.09800
C 	C 	0.31700 0.50850 0.24450 -0.07500
H 	H 	0.22670 0.52210 0.25040 0.06700
H 	H 	0.36410 0.56400 0.24410 0.07300
C 	C 	0.33180 0.46440 0.19000 -0.12200
H 	H 	0.42040 0.44400 0.18810 0.07200
H 	H 	0.27820 0.41170 0.19120 0.07500
O 	O 	0.67970 0.26250 0.24470 -0.13800
C 	C 	0.18370 0.39240 0.01610 -0.48400
H 	H 	0.13860 0.43090 0.99110 0.17500
H 	H 	0.18900 0.33410 0.00030 0.18100
H 	H 	0.26900 0.41490 0.02230 0.17600
C 	C 	0.70300 0.38100 0.43960 0.36600
O 	O 	0.80270 0.40950 0.41690 -0.44600
O 	O 	0.65440 0.40590 0.48520 -0.46900
C 	C 	0.36480 0.45280 0.29200 -0.11800
H 	H 	0.30930 0.40120 0.29410 0.07500
H 	H 	0.44990 0.43160 0.28190 0.07400
C 	C 	0.11100 0.38800 0.07140 -0.02600
H 	H 	0.02990 0.35720 0.06580 0.03400
H 	H 	0.16150 0.35400 0.09770 0.04400
C 	C 	0.99330 0.60270 0.11890 0.00100
H 	H 	0.93190 0.64720 0.12260 0.03300
C 	C 	0.37470 0.49020 0.34930 -0.04200
H 	H 	0.40920 0.44480 0.37360 0.04500
H 	H 	0.43590 0.53880 0.34880 0.05500
N 	N 	0.25330 0.52250 0.37290 -0.11400
C 	C 	0.20960 0.60860 0.37140 -0.01100
H 	H 	0.25100 0.65670 0.35510 0.05300
C 	C 	0.16410 0.47380 0.40200 0.08600
C 	C 	0.18280 0.37820 0.41720 0.00300
H 	H 	0.22650 0.34820 0.38700 0.03400
H 	H 	0.09900 0.35060 0.42190 0.02300
N 	N 	0.06840 0.52510 0.41720 -0.24800
C 	C 	0.09690 0.60980 0.39760 0.00600
H 	H 	0.04510 0.65960 0.40230 0.03000
C 	C 	0.26050 0.36590 0.47000 -0.52200
H 	H 	0.33510 0.40350 0.46900 0.18500
H 	H 	0.28720 0.30520 0.47300 0.19200
H 	H 	0.20820 0.38120 0.50140 0.19000
O 	O 	0.36810 0.16780 0.25130 -0.14200
C 	C 	0.40220 0.12110 0.44070 0.38400
O 	O 	0.44980 0.09830 0.48510 -0.48300
O 	O 	0.30280 0.09030 0.41730 -0.45000
Zn	Zn	0.90702 0.49976 0.45972 1.22000
Zn	Zn	0.68487 0.49991 0.54574 1.21900
O 	O 	0.14070 0.90460 0.51120 -0.47800
C 	C 	0.95230 0.70340 0.65090 -0.07700
H 	H 	0.89540 0.66870 0.67130 0.09100
C 	C 	0.96330 0.69490 0.59350 -0.06600
O 	O 	0.29230 0.90770 0.57730 -0.44000
C 	C 	0.02720 0.80920 0.90880 -0.07500
C 	C 	0.11050 0.81510 0.58930 -0.06800
C 	C 	0.03070 0.76660 0.67610 0.09600
C 	C 	0.87290 0.68660 0.90790 -0.06700
O 	O 	0.78640 0.59580 0.58690 -0.43800
C 	C 	0.95410 0.74760 0.82190 0.10300
O 	O 	0.93850 0.59310 0.52060 -0.46900
C 	C 	0.03850 0.75190 0.56240 -0.00100
H 	H 	0.04020 0.74760 0.52400 0.04400
N 	N 	0.32830 0.47280 0.62420 -0.11900
C 	C 	0.18610 0.88180 0.55580 0.37900
C 	C 	0.11150 0.82120 0.64610 -0.07200
H 	H 	0.16550 0.86130 0.66390 0.08900
C 	C 	0.94910 0.74800 0.93720 -0.00600
H 	H 	0.94780 0.74810 0.97570 0.04400
N 	N 	0.03750 0.77480 0.73820 -0.04300
N 	N 	0.95110 0.74200 0.76510 -0.06100
C 	C 	0.87220 0.68870 0.85010 -0.07400
H 	H 	0.81780 0.65130 0.83030 0.08600
C 	C 	0.88920 0.62160 0.56500 0.36400
C 	C 	0.03310 0.80740 0.85130 -0.07500
H 	H 	0.08850 0.84530 0.83240 0.09600
C 	C 	0.38920 0.39470 0.63900 -0.00300
H 	H 	0.35340 0.34870 0.65960 0.04700
N 	N 	0.52490 0.47780 0.59090 -0.24700
C 	C 	0.19520 0.49230 0.63730 -0.03100
H 	H 	0.14750 0.43700 0.63640 0.05100
H 	H 	0.16100 0.52950 0.60800 0.04000
C 	C 	0.41610 0.52170 0.59550 0.09900
C 	C 	0.18300 0.49150 0.74450 -0.07500
H 	H 	0.27330 0.47790 0.75040 0.06700
H 	H 	0.13590 0.43600 0.74410 0.07300
C 	C 	0.16820 0.53560 0.69000 -0.12200
H 	H 	0.07960 0.55600 0.68810 0.07200
H 	H 	0.22180 0.58830 0.69120 0.07500
O 	O 	0.82030 0.73750 0.74470 -0.13700
C 	C 	0.31630 0.60760 0.51610 -0.48400
H 	H 	0.36140 0.56910 0.49110 0.17500
H 	H 	0.31100 0.66590 0.50030 0.18100
H 	H 	0.23100 0.58510 0.52230 0.17600
C 	C 	0.79700 0.61900 0.93960 0.36600
O 	O 	0.69730 0.59050 0.91690 -0.44600
O 	O 	0.84560 0.59410 0.98520 -0.46900
C 	C 	0.13520 0.54720 0.79200 -0.11800
H 	H 	0.19070 0.59880 0.79410 0.07500
H 	H 	0.05010 0.56840 0.78190 0.07400
C 	C 	0.38900 0.61200 0.57140 -0.02600
H 	H 	0.47010 0.64280 0.56580 0.03400
H 	H 	0.33850 0.64600 0.59770 0.04400
C 	C 	0.50670 0.39730 0.61890 0.00000
H 	H 	0.56810 0.35280 0.62260 0.03300
C 	C 	0.12530 0.50980 0.84930 -0.04200
H 	H 	0.09080 0.55520 0.87360 0.04500
H 	H 	0.06410 0.46120 0.84880 0.05500
N 	N 	0.24670 0.47750 0.87290 -0.11300
C 	C 	0.29040 0.39140 0.87140 -0.01100
H 	H 	0.24900 0.34330 0.85510 0.05300
C 	C 	0.33590 0.52620 0.90200 0.08600
C 	C 	0.31720 0.62180 0.91720 0.00300
H 	H 	0.27350 0.65180 0.88700 0.03400
H 	H 	0.40100 0.64940 0.92190 0.02300
N 	N 	0.43160 0.47490 0.91720 -0.24800
C 	C 	0.40310 0.39020 0.89760 0.00600
H 	H 	0.45490 0.34040 0.90230 0.03000
C 	C 	0.23950 0.63410 0.97000 -0.52200
H 	H 	0.16490 0.59650 0.96900 0.18500
H 	H 	0.21280 0.69480 0.97300 0.19200
H 	H 	0.29180 0.61880 0.00140 0.19000
O 	O 	0.13190 0.83220 0.75130 -0.14200
C 	C 	0.09780 0.87890 0.94070 0.38400
O 	O 	0.05020 0.90170 0.98510 -0.48300
O 	O 	0.19720 0.90970 0.91730 -0.45000
Zn	Zn	0.40702 0.00024 0.54028 1.22000
Zn	Zn	0.18487 0.00009 0.45426 1.21900
O 	O 	0.64070 0.59540 0.48880 -0.47800
C 	C 	0.45230 0.79660 0.34910 -0.07700
H 	H 	0.39540 0.83130 0.32870 0.09100
C 	C 	0.46330 0.80510 0.40650 -0.06600
O 	O 	0.79230 0.59230 0.42270 -0.44000
C 	C 	0.52720 0.69080 0.09120 -0.07500
C 	C 	0.61050 0.68490 0.41070 -0.06800
C 	C 	0.53070 0.73340 0.32390 0.09500
C 	C 	0.37290 0.81340 0.09210 -0.06700
O 	O 	0.28640 0.90420 0.41310 -0.43800
C 	C 	0.45410 0.75240 0.17810 0.10300
O 	O 	0.43850 0.90690 0.47940 -0.46900
C 	C 	0.53850 0.74810 0.43760 -0.00100
H 	H 	0.54020 0.75240 0.47600 0.04400
N 	N 	0.82830 0.02720 0.37580 -0.11800
C 	C 	0.68610 0.61820 0.44420 0.37900
C 	C 	0.61150 0.67880 0.35390 -0.07200
H 	H 	0.66550 0.63870 0.33610 0.08900
C 	C 	0.44910 0.75200 0.06280 -0.00500
H 	H 	0.44780 0.75190 0.02430 0.04400
N 	N 	0.53750 0.72520 0.26180 -0.04300
N 	N 	0.45110 0.75800 0.23490 -0.06100
C 	C 	0.37220 0.81130 0.14990 -0.07400
H 	H 	0.31780 0.84870 0.16970 0.08600
C 	C 	0.38920 0.87840 0.43500 0.36400
C 	C 	0.53310 0.69260 0.14870 -0.07500
H 	H 	0.58850 0.65470 0.16760 0.09600
C 	C 	0.88920 0.10530 0.36100 -0.00500
H 	H 	0.85340 0.15130 0.34040 0.04700
N 	N 	0.02490 0.02220 0.40910 -0.24700
C 	C 	0.69520 0.00770 0.36270 -0.03300
H 	H 	0.64750 0.06300 0.36360 0.05100
H 	H 	0.66100 0.97050 0.39200 0.04100
C 	C 	0.91610 0.97830 0.40450 0.09900
C 	C 	0.68300 0.00850 0.25550 -0.07500
H 	H 	0.77330 0.02210 0.24960 0.06800
H 	H 	0.63590 0.06400 0.25590 0.07400
C 	C 	0.66820 0.96440 0.31000 -0.12000
H 	H 	0.57960 0.94400 0.31190 0.07100
H 	H 	0.72180 0.91170 0.30880 0.07500
O 	O 	0.32030 0.76250 0.25530 -0.13800
C 	C 	0.81630 0.89240 0.48390 -0.48400
H 	H 	0.86140 0.93090 0.50890 0.17500
H 	H 	0.81100 0.83410 0.49970 0.18100
H 	H 	0.73100 0.91490 0.47770 0.17600
C 	C 	0.29700 0.88100 0.06040 0.36600
O 	O 	0.19730 0.90950 0.08310 -0.44600
O 	O 	0.34560 0.90590 0.01480 -0.46900
C 	C 	0.63520 0.95280 0.20800 -0.11800
H 	H 	0.69070 0.90120 0.20590 0.07500
H 	H 	0.55010 0.93160 0.21810 0.07400
C 	C 	0.88900 0.88800 0.42860 -0.02600
H 	H 	0.97010 0.85720 0.43420 0.03400
H 	H 	0.83850 0.85400 0.40230 0.04400
C 	C 	0.00670 0.10270 0.38110 0.00200
H 	H 	0.06810 0.14720 0.37740 0.03300
C 	C 	0.62530 0.99020 0.15070 -0.04200
H 	H 	0.59080 0.94480 0.12640 0.04500
H 	H 	0.56410 0.03880 0.15120 0.05500
N 	N 	0.74670 0.02250 0.12710 -0.11400
C 	C 	0.79040 0.10860 0.12860 -0.01000
H 	H 	0.74900 0.15670 0.14490 0.05300
C 	C 	0.83590 0.97380 0.09800 0.08800
C 	C 	0.81720 0.87820 0.08280 0.00200
H 	H 	0.77350 0.84820 0.11300 0.03400
H 	H 	0.90100 0.85060 0.07810 0.02300
N 	N 	0.93160 0.02510 0.08280 -0.24800
C 	C 	0.90310 0.10980 0.10240 0.00600
H 	H 	0.95490 0.15960 0.09770 0.03000
C 	C 	0.73950 0.86590 0.03000 -0.52100
H 	H 	0.66490 0.90350 0.03100 0.18500
H 	H 	0.71280 0.80520 0.02700 0.19200
H 	H 	0.79180 0.88120 0.99860 0.18900
O 	O 	0.63190 0.66780 0.24870 -0.14200
C 	C 	0.59780 0.62110 0.05930 0.38400
O 	O 	0.55020 0.59830 0.01490 -0.48300
O 	O 	0.69720 0.59030 0.08270 -0.45000
Zn	Zn	0.09298 0.99976 0.04028 1.22000
Zn	Zn	0.31513 0.99991 0.95426 1.21900
O 	O 	0.85930 0.40460 0.98880 -0.47900
C 	C 	0.04770 0.20340 0.84910 -0.07600
H 	H 	0.10460 0.16870 0.82870 0.09100
C 	C 	0.03670 0.19490 0.90650 -0.06500
O 	O 	0.70770 0.40770 0.92270 -0.44000
C 	C 	0.97280 0.30920 0.59120 -0.07600
C 	C 	0.88950 0.31510 0.91070 -0.06800
C 	C 	0.96930 0.26660 0.82390 0.09400
C 	C 	0.12710 0.18660 0.59210 -0.06700
O 	O 	0.21360 0.09580 0.91310 -0.43800
C 	C 	0.04590 0.24760 0.67810 0.10300
O 	O 	0.06150 0.09310 0.97940 -0.46900
C 	C 	0.96150 0.25190 0.93760 -0.00200
H 	H 	0.95980 0.24760 0.97600 0.04400
N 	N 	0.67170 0.97280 0.87580 -0.11900
C 	C 	0.81390 0.38180 0.94420 0.37900
C 	C 	0.88850 0.32120 0.85390 -0.07200
H 	H 	0.83450 0.36130 0.83610 0.08900
C 	C 	0.05090 0.24800 0.56280 -0.00500
H 	H 	0.05220 0.24810 0.52430 0.04400
N 	N 	0.96250 0.27480 0.76180 -0.04400
N 	N 	0.04890 0.24200 0.73490 -0.06100
C 	C 	0.12780 0.18870 0.64990 -0.07400
H 	H 	0.18220 0.15130 0.66970 0.08600
C 	C 	0.11080 0.12160 0.93500 0.36400
C 	C 	0.96690 0.30740 0.64870 -0.07600
H 	H 	0.91150 0.34530 0.66760 0.09600
C 	C 	0.61080 0.89470 0.86100 -0.00300
H 	H 	0.64660 0.84870 0.84040 0.04700
N 	N 	0.47510 0.97780 0.90910 -0.24700
C 	C 	0.80480 0.99230 0.86270 -0.02200
H 	H 	0.85250 0.93700 0.86360 0.04900
H 	H 	0.83900 0.02950 0.89200 0.03700
C 	C 	0.58390 0.02170 0.90450 0.09800
C 	C 	0.81700 0.99150 0.75550 -0.06500
H 	H 	0.72670 0.97790 0.74960 0.06500
H 	H 	0.86410 0.93600 0.75590 0.07100
C 	C 	0.83180 0.03560 0.81000 -0.13200
H 	H 	0.92040 0.05600 0.81190 0.07500
H 	H 	0.77820 0.08830 0.80880 0.07800
O 	O 	0.17970 0.23750 0.75530 -0.13700
C 	C 	0.68370 0.10760 0.98390 -0.48900
H 	H 	0.63860 0.06910 0.00890 0.17700
H 	H 	0.68900 0.16590 0.99970 0.18200
H 	H 	0.76900 0.08510 0.97770 0.17800
C 	C 	0.20300 0.11900 0.56040 0.36600
O 	O 	0.30270 0.09050 0.58310 -0.44600
O 	O 	0.15440 0.09410 0.51480 -0.46900
C 	C 	0.86480 0.04720 0.70800 -0.12400
H 	H 	0.80930 0.09880 0.70590 0.07600
H 	H 	0.94990 0.06840 0.71810 0.07500
C 	C 	0.61100 0.11200 0.92860 -0.02300
H 	H 	0.52990 0.14280 0.93420 0.03300
H 	H 	0.66150 0.14600 0.90230 0.04300
C 	C 	0.49330 0.89730 0.88110 0.00000
H 	H 	0.43190 0.85280 0.87740 0.03400
C 	C 	0.87470 0.00980 0.65070 -0.04100
H 	H 	0.90920 0.05520 0.62640 0.04500
H 	H 	0.93590 0.96120 0.65120 0.05500
N 	N 	0.75330 0.97750 0.62710 -0.11300
C 	C 	0.70960 0.89140 0.62860 -0.01000
H 	H 	0.75100 0.84330 0.64490 0.05300
C 	C 	0.66410 0.02620 0.59800 0.08600
C 	C 	0.68280 0.12180 0.58280 0.00400
H 	H 	0.72650 0.15180 0.61300 0.03400
H 	H 	0.59900 0.14940 0.57810 0.02300
N 	N 	0.56840 0.97490 0.58280 -0.24800
C 	C 	0.59690 0.89020 0.60240 0.00600
H 	H 	0.54510 0.84040 0.59770 0.03000
C 	C 	0.76050 0.13410 0.53000 -0.52200
H 	H 	0.83510 0.09650 0.53100 0.18500
H 	H 	0.78720 0.19480 0.52700 0.19200
H 	H 	0.70820 0.11880 0.49860 0.19000
O 	O 	0.86810 0.33220 0.74870 -0.14200
C 	C 	0.90220 0.37890 0.55930 0.38400
O 	O 	0.94980 0.40170 0.51490 -0.48400
O 	O 	0.80280 0.40970 0.58270 -0.45100
