data_crystal

_cell_length_a 10.48190
_cell_length_b 12.42390
_cell_length_c 19.80430
_cell_angle_alpha 75.22850
_cell_angle_beta  81.27670
_cell_angle_gamma 82.93640

_symmetry_space_group_name_	'P 1'
_symmetry_space_group_name_H-M	'P 1'

loop_
_symmetry_equiv_pos_as_xyz
  x,y,z

loop_
_atom_site_label
_atom_site_type_symbol
_atom_site_fract_x
_atom_site_fract_y
_atom_site_fract_z
_atom_site_charge
Zn	Zn	0.31217 0.86935 0.15284 1.20800
Zn	Zn	0.35968 0.88580 0.66933 1.18600
O 	O 	0.26900 0.77050 0.09905 -0.44800
O 	O 	0.17650 0.85660 0.23329 -0.45100
O 	O 	0.38220 0.87240 0.00537 -0.32000
O 	O 	0.27070 0.68700 0.27704 -0.30900
C 	C 	0.18140 0.76050 0.27753 0.30900
C 	C 	0.59030 0.90990 0.14010 0.08400
H 	H 	0.58420 0.96420 0.09830 -0.00200
N 	N 	0.26800 0.03360 0.11163 -0.26000
N 	N 	0.31680 0.82140 0.59439 -0.27800
N 	N 	0.49440 0.85190 0.17547 -0.27000
N 	N 	0.28030 0.20590 0.04870 -0.11400
C 	C 	0.30740 0.79940 0.03311 0.30100
N 	N 	0.69780 0.88090 0.17178 -0.11700
C 	C 	0.25260 0.73970 0.98815 -0.03800
O 	O 	0.34820 0.81120 0.76905 -0.47400
N 	N 	0.94790 0.52410 0.48960 -0.04500
C 	C 	0.06470 0.64350 0.38510 -0.08700
H 	H 	0.13470 0.58950 0.38580 0.09200
C 	C 	0.33410 0.10130 0.05900 0.08500
H 	H 	0.40880 0.07850 0.03250 0.00600
N 	N 	0.04330 0.51110 0.01500 -0.05000
C 	C 	0.82360 0.92750 0.14610 -0.03100
H 	H 	0.88980 0.88110 0.17240 0.05000
H 	H 	0.81890 0.00180 0.15400 0.04600
C 	C 	0.17360 0.65340 0.01960 -0.09500
H 	H 	0.15790 0.63020 0.06830 0.09700
C 	C 	0.27880 0.77130 0.91531 -0.03300
H 	H 	0.33470 0.82650 0.89440 0.05900
C 	C 	0.86090 0.93330 0.06850 -0.13600
H 	H 	0.79090 0.97370 0.04290 0.08100
H 	H 	0.87340 0.85820 0.06130 0.08000
C 	C 	0.14110 0.63620 0.90490 -0.10000
H 	H 	0.10270 0.60270 0.87700 0.10000
C 	C 	0.24580 0.76210 0.79350 0.31800
C 	C 	0.95760 0.62600 0.43580 0.10900
C 	C 	0.11840 0.60220 0.97770 0.11300
C 	C 	0.46730 0.46590 0.98190 -0.08800
H 	H 	0.53210 0.43360 0.95050 0.06100
H 	H 	0.40570 0.51500 0.95360 0.06300
C 	C 	0.98480 0.99140 0.03970 -0.07200
H 	H 	0.97550 0.06340 0.05140 0.05300
H 	H 	0.05660 0.94680 0.06190 0.04200
N 	N 	0.32590 0.77450 0.49460 -0.11300
C 	C 	0.33380 0.30320 0.99770 -0.03700
H 	H 	0.26490 0.34910 0.97350 0.05600
H 	H 	0.39750 0.27780 0.96290 0.04700
C 	C 	0.39670 0.37240 0.03410 -0.12300
H 	H 	0.45790 0.32410 0.06300 0.07700
H 	H 	0.33070 0.40480 0.06490 0.08300
C 	C 	0.06590 0.74300 0.33306 -0.04100
C 	C 	0.22270 0.72180 0.87360 -0.03500
C 	C 	0.85320 0.80480 0.38300 -0.05300
C 	C 	0.85130 0.70580 0.43490 -0.07800
H 	H 	0.77960 0.69270 0.46900 0.08000
C 	C 	0.17250 0.20740 0.09730 -0.01100
H 	H 	0.11550 0.26910 0.10260 0.06000
C 	C 	0.38760 0.82010 0.53320 0.07700
H 	H 	0.46880 0.84700 0.51920 -0.01200
O 	O 	0.16490 0.74750 0.75870 -0.30900
C 	C 	0.54130 0.78590 0.23410 0.00400
H 	H 	0.49450 0.73620 0.26960 0.02400
C 	C 	0.66630 0.80370 0.23270 -0.00800
H 	H 	0.72030 0.76980 0.26680 0.04300
C 	C 	0.20370 0.77610 0.59360 0.01000
H 	H 	0.13540 0.76630 0.62990 0.02900
O 	O 	0.07480 0.46090 0.07940 -0.14400
C 	C 	0.38490 0.74530 0.42760 -0.04200
H 	H 	0.46630 0.77880 0.41150 0.05200
H 	H 	0.32750 0.77540 0.39190 0.04600
C 	C 	0.48940 0.56190 0.49490 -0.08200
H 	H 	0.57300 0.59230 0.48430 0.06400
H 	H 	0.44770 0.57830 0.53880 0.06300
C 	C 	0.20800 0.74860 0.53270 -0.01000
H 	H 	0.14330 0.71760 0.51840 0.05300
C 	C 	0.40850 0.62000 0.43760 -0.12200
H 	H 	0.32540 0.58860 0.44780 0.09200
H 	H 	0.45090 0.60430 0.39360 0.07100
O 	O 	0.83330 0.49400 0.50190 -0.15000
C 	C 	0.96100 0.82290 0.33240 -0.01500
H 	H 	0.96270 0.88940 0.29770 0.06300
C 	C 	0.16540 0.10020 0.13640 0.00500
H 	H 	0.10190 0.07580 0.17360 0.02900
O 	O 	0.64750 0.87720 0.42710 -0.33200
C 	C 	0.73990 0.89160 0.38160 0.33300
O 	O 	0.75040 0.97730 0.33001 -0.46900
Zn	Zn	0.68783 0.13065 0.84716 1.20800
Zn	Zn	0.64032 0.11420 0.33067 1.18600
O 	O 	0.73100 0.22950 0.90095 -0.44800
O 	O 	0.82350 0.14340 0.76671 -0.45100
O 	O 	0.61780 0.12760 0.99463 -0.32000
O 	O 	0.72930 0.31300 0.72296 -0.30900
C 	C 	0.81860 0.23950 0.72247 0.30900
C 	C 	0.40970 0.09010 0.85990 0.08400
H 	H 	0.41580 0.03580 0.90170 -0.00200
N 	N 	0.73200 0.96640 0.88837 -0.26000
N 	N 	0.68320 0.17860 0.40561 -0.27800
N 	N 	0.50560 0.14810 0.82453 -0.27000
N 	N 	0.71970 0.79410 0.95130 -0.11400
C 	C 	0.69260 0.20060 0.96689 0.30100
N 	N 	0.30220 0.11910 0.82822 -0.11700
C 	C 	0.74740 0.26030 0.01185 -0.03800
O 	O 	0.65180 0.18880 0.23095 -0.47400
N 	N 	0.05210 0.47590 0.51040 -0.04500
C 	C 	0.93530 0.35650 0.61490 -0.08700
H 	H 	0.86530 0.41050 0.61420 0.09200
C 	C 	0.66590 0.89870 0.94100 0.08500
H 	H 	0.59120 0.92150 0.96750 0.00600
N 	N 	0.95670 0.48890 0.98500 -0.05000
C 	C 	0.17640 0.07250 0.85390 -0.03100
H 	H 	0.11020 0.11890 0.82760 0.05000
H 	H 	0.18110 0.99820 0.84600 0.04600
C 	C 	0.82640 0.34660 0.98040 -0.09500
H 	H 	0.84210 0.36980 0.93170 0.09700
C 	C 	0.72120 0.22870 0.08469 -0.03300
H 	H 	0.66530 0.17350 0.10560 0.05900
C 	C 	0.13910 0.06670 0.93150 -0.13600
H 	H 	0.20910 0.02630 0.95710 0.08100
H 	H 	0.12660 0.14180 0.93870 0.08000
C 	C 	0.85890 0.36380 0.09510 -0.10000
H 	H 	0.89730 0.39730 0.12300 0.10000
C 	C 	0.75420 0.23790 0.20650 0.31800
C 	C 	0.04240 0.37400 0.56420 0.10900
C 	C 	0.88160 0.39780 0.02230 0.11300
C 	C 	0.53270 0.53410 0.01810 -0.08800
H 	H 	0.46790 0.56640 0.04950 0.06100
H 	H 	0.59430 0.48500 0.04640 0.06300
C 	C 	0.01520 0.00860 0.96030 -0.07200
H 	H 	0.02450 0.93660 0.94860 0.05300
H 	H 	0.94340 0.05320 0.93810 0.04200
N 	N 	0.67410 0.22550 0.50540 -0.11300
C 	C 	0.66620 0.69680 0.00230 -0.03700
H 	H 	0.73510 0.65090 0.02650 0.05600
H 	H 	0.60250 0.72220 0.03710 0.04700
C 	C 	0.60330 0.62760 0.96590 -0.12300
H 	H 	0.54210 0.67590 0.93700 0.07700
H 	H 	0.66930 0.59520 0.93510 0.08300
C 	C 	0.93410 0.25700 0.66694 -0.04100
C 	C 	0.77730 0.27820 0.12640 -0.03500
C 	C 	0.14680 0.19520 0.61700 -0.05300
C 	C 	0.14870 0.29420 0.56510 -0.07800
H 	H 	0.22040 0.30730 0.53100 0.08000
C 	C 	0.82750 0.79260 0.90270 -0.01100
H 	H 	0.88450 0.73090 0.89740 0.06000
C 	C 	0.61240 0.17990 0.46680 0.07700
H 	H 	0.53120 0.15300 0.48080 -0.01200
O 	O 	0.83510 0.25250 0.24130 -0.30900
C 	C 	0.45870 0.21410 0.76590 0.00400
H 	H 	0.50550 0.26380 0.73040 0.02400
C 	C 	0.33370 0.19630 0.76730 -0.00800
H 	H 	0.27970 0.23020 0.73320 0.04300
C 	C 	0.79630 0.22390 0.40640 0.01000
H 	H 	0.86460 0.23370 0.37010 0.02900
O 	O 	0.92520 0.53910 0.92060 -0.14400
C 	C 	0.61510 0.25470 0.57240 -0.04200
H 	H 	0.53370 0.22120 0.58850 0.05200
H 	H 	0.67250 0.22460 0.60810 0.04600
C 	C 	0.51060 0.43810 0.50510 -0.08200
H 	H 	0.42700 0.40770 0.51570 0.06400
H 	H 	0.55230 0.42170 0.46120 0.06300
C 	C 	0.79200 0.25140 0.46730 -0.01000
H 	H 	0.85670 0.28240 0.48160 0.05300
C 	C 	0.59150 0.38000 0.56240 -0.12200
H 	H 	0.67460 0.41140 0.55220 0.09200
H 	H 	0.54910 0.39570 0.60640 0.07100
O 	O 	0.16670 0.50600 0.49810 -0.15000
C 	C 	0.03900 0.17710 0.66760 -0.01500
H 	H 	0.03730 0.11060 0.70230 0.06300
C 	C 	0.83460 0.89980 0.86360 0.00500
H 	H 	0.89810 0.92420 0.82640 0.02900
O 	O 	0.35250 0.12280 0.57290 -0.33200
C 	C 	0.26010 0.10840 0.61840 0.33300
O 	O 	0.24960 0.02270 0.66999 -0.46900
