data_crystal

_cell_length_a 27.62130
_cell_length_b 10.51210
_cell_length_c 14.76140
_cell_angle_alpha 90.00000
_cell_angle_beta  117.04800
_cell_angle_gamma 90.00000

_symmetry_space_group_name_	'P 1'
_symmetry_space_group_name_H-M	'P 1'

loop_
_symmetry_equiv_pos_as_xyz
  x,y,z

loop_
_atom_site_label
_atom_site_type_symbol
_atom_site_fract_x
_atom_site_fract_y
_atom_site_fract_z
_atom_site_charge
Zn	Zn	0.79092 0.64000 0.53548 1.21500
O 	O 	0.83409 0.73650 0.66800 -0.44400
O 	O 	0.83089 0.25050 0.97500 -0.44800
O 	O 	0.76639 0.10160 0.91530 -0.47300
O 	O 	0.76970 0.88740 0.61160 -0.47500
N 	N 	0.82725 0.47210 0.54320 -0.25000
C 	C 	0.84385 0.07060 0.89160 -0.06600
C 	C 	0.81615 0.99790 0.80480 -0.00600
H 	H 	0.77850 0.00320 0.76880 0.04100
N 	N 	0.85820 0.27710 0.57380 -0.11800
C 	C 	0.84471 0.91680 0.77150 -0.06600
C 	C 	0.81110 0.14880 0.93080 0.37500
C 	C 	0.81368 0.84010 0.67530 0.36600
N 	N 	0.98600 0.96680 0.96360 -0.04800
C 	C 	0.90030 0.06760 0.94490 -0.08700
H 	H 	0.91870 0.12000 0.00100 0.10000
C 	C 	0.90110 0.90660 0.82750 -0.07800
H 	H 	0.92010 0.84850 0.80830 0.09100
C 	C 	0.83590 0.37170 0.60260 0.09300
C 	C 	0.92890 0.98420 0.91260 0.10500
C 	C 	0.87650 0.15250 0.62310 -0.04500
H 	H 	0.85890 0.08530 0.57390 0.04800
H 	H 	0.86630 0.14320 0.67750 0.04900
C 	C 	0.84470 0.43930 0.47230 0.00700
H 	H 	0.84340 0.49170 0.42050 0.02600
C 	C 	0.82180 0.36270 0.68900 -0.00700
H 	H 	0.81710 0.44770 0.70930 0.02500
H 	H 	0.85160 0.32280 0.74660 0.03600
C 	C 	0.86390 0.31860 0.49030 -0.01500
H 	H 	0.87800 0.27290 0.45380 0.04700
C 	C 	0.76970 0.28570 0.66010 -0.51200
H 	H 	0.74010 0.32500 0.60300 0.18900
H 	H 	0.76160 0.28340 0.71670 0.19000
H 	H 	0.77480 0.20060 0.64240 0.18700
C 	C 	0.93780 0.14020 0.66610 -0.11600
H 	H 	0.94930 0.06070 0.70330 0.07500
H 	H 	0.94710 0.13670 0.61020 0.08100
C 	C 	0.96880 0.24820 0.73610 -0.08700
H 	H 	0.96510 0.24210 0.79820 0.06400
H 	H 	0.95280 0.32830 0.70360 0.06500
O 	O 	0.00190 0.87650 0.92130 -0.14400
Zn	Zn	0.29092 0.14000 0.53548 1.21600
O 	O 	0.33409 0.23650 0.66800 -0.44300
O 	O 	0.33089 0.75050 0.97500 -0.44600
O 	O 	0.26639 0.60160 0.91530 -0.47100
O 	O 	0.26970 0.38740 0.61160 -0.47400
N 	N 	0.32725 0.97210 0.54320 -0.24900
C 	C 	0.34385 0.57060 0.89160 -0.06400
C 	C 	0.31615 0.49790 0.80480 -0.01000
H 	H 	0.27850 0.50320 0.76880 0.04500
N 	N 	0.35820 0.77710 0.57380 -0.11700
C 	C 	0.34471 0.41680 0.77150 -0.06600
C 	C 	0.31110 0.64880 0.93080 0.37400
C 	C 	0.31368 0.34010 0.67530 0.36500
N 	N 	0.48600 0.46680 0.96360 -0.04800
C 	C 	0.40030 0.56760 0.94490 -0.08000
H 	H 	0.41870 0.62000 0.00100 0.09600
C 	C 	0.40110 0.40660 0.82750 -0.07700
H 	H 	0.42010 0.34850 0.80830 0.09100
C 	C 	0.33590 0.87170 0.60260 0.09400
C 	C 	0.42890 0.48420 0.91260 0.10000
C 	C 	0.37650 0.65250 0.62310 -0.04500
H 	H 	0.35890 0.58530 0.57390 0.04900
H 	H 	0.36630 0.64320 0.67750 0.04900
C 	C 	0.34470 0.93930 0.47230 0.00700
H 	H 	0.34340 0.99170 0.42050 0.02600
C 	C 	0.32180 0.86270 0.68900 -0.00800
H 	H 	0.31710 0.94770 0.70930 0.02500
H 	H 	0.35160 0.82280 0.74660 0.03700
C 	C 	0.36390 0.81860 0.49030 -0.01500
H 	H 	0.37800 0.77290 0.45380 0.04700
C 	C 	0.26970 0.78570 0.66010 -0.51200
H 	H 	0.24010 0.82500 0.60300 0.18900
H 	H 	0.26160 0.78340 0.71670 0.19000
H 	H 	0.27480 0.70060 0.64240 0.18700
C 	C 	0.43780 0.64020 0.66610 -0.11500
H 	H 	0.44930 0.56070 0.70330 0.07600
H 	H 	0.44710 0.63670 0.61020 0.08100
C 	C 	0.46880 0.74820 0.73610 -0.08800
H 	H 	0.46510 0.74210 0.79820 0.06500
H 	H 	0.45280 0.82830 0.70360 0.06600
O 	O 	0.50190 0.37650 0.92130 -0.14400
Zn	Zn	0.20908 0.64000 0.96452 1.21700
O 	O 	0.16591 0.73650 0.83200 -0.44300
O 	O 	0.16911 0.25050 0.52500 -0.44700
O 	O 	0.23361 0.10160 0.58470 -0.47200
O 	O 	0.23030 0.88740 0.88840 -0.47300
N 	N 	0.17275 0.47210 0.95680 -0.24900
C 	C 	0.15615 0.07060 0.60840 -0.06700
C 	C 	0.18385 0.99790 0.69520 -0.00500
H 	H 	0.22150 0.00320 0.73120 0.04300
N 	N 	0.14180 0.27710 0.92620 -0.11800
C 	C 	0.15529 0.91680 0.72850 -0.06700
C 	C 	0.18890 0.14880 0.56920 0.37500
C 	C 	0.18632 0.84010 0.82470 0.36600
N 	N 	0.01400 0.96680 0.53640 -0.04800
C 	C 	0.09970 0.06760 0.55510 -0.08000
H 	H 	0.08130 0.12000 0.49900 0.09700
C 	C 	0.09890 0.90660 0.67250 -0.07600
H 	H 	0.07990 0.84850 0.69170 0.09100
C 	C 	0.16410 0.37170 0.89740 0.09300
C 	C 	0.07110 0.98420 0.58740 0.10100
C 	C 	0.12350 0.15250 0.87690 -0.04500
H 	H 	0.14110 0.08530 0.92610 0.04800
H 	H 	0.13370 0.14320 0.82250 0.04900
C 	C 	0.15530 0.43930 0.02770 0.00600
H 	H 	0.15660 0.49170 0.07950 0.02600
C 	C 	0.17820 0.36270 0.81100 -0.00800
H 	H 	0.18290 0.44770 0.79070 0.02500
H 	H 	0.14840 0.32280 0.75340 0.03600
C 	C 	0.13610 0.31860 0.00970 -0.01300
H 	H 	0.12200 0.27290 0.04620 0.04700
C 	C 	0.23030 0.28570 0.83990 -0.51100
H 	H 	0.25990 0.32500 0.89700 0.18900
H 	H 	0.23840 0.28340 0.78330 0.19000
H 	H 	0.22520 0.20060 0.85760 0.18600
C 	C 	0.06220 0.14020 0.83390 -0.11400
H 	H 	0.05070 0.06070 0.79670 0.07500
H 	H 	0.05290 0.13670 0.88980 0.08000
C 	C 	0.03120 0.24820 0.76390 -0.09000
H 	H 	0.03490 0.24210 0.70180 0.06500
H 	H 	0.04720 0.32830 0.79640 0.06600
O 	O 	0.99810 0.87650 0.57870 -0.14400
Zn	Zn	0.70908 0.14000 0.96452 1.21600
O 	O 	0.66591 0.23650 0.83200 -0.44400
O 	O 	0.66911 0.75050 0.52500 -0.44700
O 	O 	0.73361 0.60160 0.58470 -0.47200
O 	O 	0.73030 0.38740 0.88840 -0.47400
N 	N 	0.67275 0.97210 0.95680 -0.24800
C 	C 	0.65615 0.57060 0.60840 -0.06400
C 	C 	0.68385 0.49790 0.69520 -0.01000
H 	H 	0.72150 0.50320 0.73120 0.04500
N 	N 	0.64180 0.77710 0.92620 -0.11700
C 	C 	0.65529 0.41680 0.72850 -0.06600
C 	C 	0.68890 0.64880 0.56920 0.37400
C 	C 	0.68632 0.34010 0.82470 0.36500
N 	N 	0.51400 0.46680 0.53640 -0.04800
C 	C 	0.59970 0.56760 0.55510 -0.08100
H 	H 	0.58130 0.62000 0.49900 0.09700
C 	C 	0.59890 0.40660 0.67250 -0.07700
H 	H 	0.57990 0.34850 0.69170 0.09100
C 	C 	0.66410 0.87170 0.89740 0.09400
C 	C 	0.57110 0.48420 0.58740 0.10100
C 	C 	0.62350 0.65250 0.87690 -0.04500
H 	H 	0.64110 0.58530 0.92610 0.04900
H 	H 	0.63370 0.64320 0.82250 0.04900
C 	C 	0.65530 0.93930 0.02770 0.00400
H 	H 	0.65660 0.99170 0.07950 0.02600
C 	C 	0.67820 0.86270 0.81100 -0.00600
H 	H 	0.68290 0.94770 0.79070 0.02500
H 	H 	0.64840 0.82280 0.75340 0.03600
C 	C 	0.63610 0.81860 0.00970 -0.01500
H 	H 	0.62200 0.77290 0.04620 0.04700
C 	C 	0.73030 0.78570 0.83990 -0.51300
H 	H 	0.75990 0.82500 0.89700 0.19000
H 	H 	0.73840 0.78340 0.78330 0.19100
H 	H 	0.72520 0.70060 0.85760 0.18700
C 	C 	0.56220 0.64020 0.83390 -0.11500
H 	H 	0.55070 0.56070 0.79670 0.07600
H 	H 	0.55290 0.63670 0.88980 0.08100
C 	C 	0.53120 0.74820 0.76390 -0.08800
H 	H 	0.53490 0.74210 0.70180 0.06500
H 	H 	0.54720 0.82830 0.79640 0.06600
O 	O 	0.49810 0.37650 0.57870 -0.14400
Zn	Zn	0.20908 0.36000 0.46452 1.21600
O 	O 	0.16591 0.26350 0.33200 -0.44300
O 	O 	0.16911 0.74950 0.02500 -0.44700
O 	O 	0.23361 0.89840 0.08470 -0.47200
O 	O 	0.23030 0.11260 0.38840 -0.47400
N 	N 	0.17275 0.52790 0.45680 -0.24900
C 	C 	0.15615 0.92940 0.10840 -0.06500
C 	C 	0.18385 0.00210 0.19520 -0.00500
H 	H 	0.22150 0.99680 0.23120 0.04200
N 	N 	0.14180 0.72290 0.42620 -0.11700
C 	C 	0.15529 0.08320 0.22850 -0.06600
C 	C 	0.18890 0.85120 0.06920 0.37500
C 	C 	0.18632 0.15990 0.32470 0.36600
N 	N 	0.01400 0.03320 0.03640 -0.04800
C 	C 	0.09970 0.93240 0.05510 -0.08700
H 	H 	0.08130 0.88000 0.99900 0.10000
C 	C 	0.09890 0.09340 0.17250 -0.07800
H 	H 	0.07990 0.15150 0.19170 0.09100
C 	C 	0.16410 0.62830 0.39740 0.09300
C 	C 	0.07110 0.01580 0.08740 0.10500
C 	C 	0.12350 0.84750 0.37690 -0.04500
H 	H 	0.14110 0.91470 0.42610 0.04800
H 	H 	0.13370 0.85680 0.32250 0.04900
C 	C 	0.15530 0.56070 0.52770 0.00700
H 	H 	0.15660 0.50830 0.57950 0.02600
C 	C 	0.17820 0.63730 0.31100 -0.00700
H 	H 	0.18290 0.55230 0.29070 0.02500
H 	H 	0.14840 0.67720 0.25340 0.03600
C 	C 	0.13610 0.68140 0.50970 -0.01500
H 	H 	0.12200 0.72710 0.54620 0.04700
C 	C 	0.23030 0.71430 0.33990 -0.51200
H 	H 	0.25990 0.67500 0.39700 0.18900
H 	H 	0.23840 0.71660 0.28330 0.19000
H 	H 	0.22520 0.79940 0.35760 0.18700
C 	C 	0.06220 0.85980 0.33390 -0.11600
H 	H 	0.05070 0.93930 0.29670 0.07500
H 	H 	0.05290 0.86330 0.38980 0.08100
C 	C 	0.03120 0.75180 0.26390 -0.08700
H 	H 	0.03490 0.75790 0.20180 0.06400
H 	H 	0.04720 0.67170 0.29640 0.06500
O 	O 	0.99810 0.12350 0.07870 -0.14400
Zn	Zn	0.70908 0.86000 0.46452 1.21600
O 	O 	0.66591 0.76350 0.33200 -0.44300
O 	O 	0.66911 0.24950 0.02500 -0.44600
O 	O 	0.73361 0.39840 0.08470 -0.47100
O 	O 	0.73030 0.61260 0.38840 -0.47400
N 	N 	0.67275 0.02790 0.45680 -0.24900
C 	C 	0.65615 0.42940 0.10840 -0.06400
C 	C 	0.68385 0.50210 0.19520 -0.01000
H 	H 	0.72150 0.49680 0.23120 0.04500
N 	N 	0.64180 0.22290 0.42620 -0.11700
C 	C 	0.65529 0.58320 0.22850 -0.06600
C 	C 	0.68890 0.35120 0.06920 0.37400
C 	C 	0.68632 0.65990 0.32470 0.36500
N 	N 	0.51400 0.53320 0.03640 -0.04800
C 	C 	0.59970 0.43240 0.05510 -0.08000
H 	H 	0.58130 0.38000 0.99900 0.09600
C 	C 	0.59890 0.59340 0.17250 -0.07700
H 	H 	0.57990 0.65150 0.19170 0.09100
C 	C 	0.66410 0.12830 0.39740 0.09400
C 	C 	0.57110 0.51580 0.08740 0.10000
C 	C 	0.62350 0.34750 0.37690 -0.04500
H 	H 	0.64110 0.41470 0.42610 0.04900
H 	H 	0.63370 0.35680 0.32250 0.04900
C 	C 	0.65530 0.06070 0.52770 0.00700
H 	H 	0.65660 0.00830 0.57950 0.02600
C 	C 	0.67820 0.13730 0.31100 -0.00800
H 	H 	0.68290 0.05230 0.29070 0.02500
H 	H 	0.64840 0.17720 0.25340 0.03700
C 	C 	0.63610 0.18140 0.50970 -0.01500
H 	H 	0.62200 0.22710 0.54620 0.04700
C 	C 	0.73030 0.21430 0.33990 -0.51200
H 	H 	0.75990 0.17500 0.39700 0.18900
H 	H 	0.73840 0.21660 0.28330 0.19000
H 	H 	0.72520 0.29940 0.35760 0.18700
C 	C 	0.56220 0.35980 0.33390 -0.11500
H 	H 	0.55070 0.43930 0.29670 0.07600
H 	H 	0.55290 0.36330 0.38980 0.08100
C 	C 	0.53120 0.25180 0.26390 -0.08800
H 	H 	0.53490 0.25790 0.20180 0.06500
H 	H 	0.54720 0.17170 0.29640 0.06600
O 	O 	0.49810 0.62350 0.07870 -0.14400
Zn	Zn	0.79092 0.36000 0.03548 1.21700
O 	O 	0.83409 0.26350 0.16800 -0.44300
O 	O 	0.83089 0.74950 0.47500 -0.44700
O 	O 	0.76639 0.89840 0.41530 -0.47200
O 	O 	0.76970 0.11260 0.11160 -0.47300
N 	N 	0.82725 0.52790 0.04320 -0.24900
C 	C 	0.84385 0.92940 0.39160 -0.06700
C 	C 	0.81615 0.00210 0.30480 -0.00500
H 	H 	0.77850 0.99680 0.26880 0.04300
N 	N 	0.85820 0.72290 0.07380 -0.11800
C 	C 	0.84471 0.08320 0.27150 -0.06700
C 	C 	0.81110 0.85120 0.43080 0.37500
C 	C 	0.81368 0.15990 0.17530 0.36600
N 	N 	0.98600 0.03320 0.46360 -0.04800
C 	C 	0.90030 0.93240 0.44490 -0.08000
H 	H 	0.91870 0.88000 0.50100 0.09700
C 	C 	0.90110 0.09340 0.32750 -0.07600
H 	H 	0.92010 0.15150 0.30830 0.09100
C 	C 	0.83590 0.62830 0.10260 0.09300
C 	C 	0.92890 0.01580 0.41260 0.10100
C 	C 	0.87650 0.84750 0.12310 -0.04500
H 	H 	0.85890 0.91470 0.07390 0.04800
H 	H 	0.86630 0.85680 0.17750 0.04900
C 	C 	0.84470 0.56070 0.97230 0.00600
H 	H 	0.84340 0.50830 0.92050 0.02600
C 	C 	0.82180 0.63730 0.18900 -0.00800
H 	H 	0.81710 0.55230 0.20930 0.02500
H 	H 	0.85160 0.67720 0.24660 0.03600
C 	C 	0.86390 0.68140 0.99030 -0.01300
H 	H 	0.87800 0.72710 0.95380 0.04700
C 	C 	0.76970 0.71430 0.16010 -0.51100
H 	H 	0.74010 0.67500 0.10300 0.18900
H 	H 	0.76160 0.71660 0.21670 0.19000
H 	H 	0.77480 0.79940 0.14240 0.18600
C 	C 	0.93780 0.85980 0.16610 -0.11400
H 	H 	0.94930 0.93930 0.20330 0.07500
H 	H 	0.94710 0.86330 0.11020 0.08000
C 	C 	0.96880 0.75180 0.23610 -0.09000
H 	H 	0.96510 0.75790 0.29820 0.06500
H 	H 	0.95280 0.67170 0.20360 0.06600
O 	O 	0.00190 0.12350 0.42130 -0.14400
Zn	Zn	0.29092 0.86000 0.03548 1.21600
O 	O 	0.33409 0.76350 0.16800 -0.44400
O 	O 	0.33089 0.24950 0.47500 -0.44700
O 	O 	0.26639 0.39840 0.41530 -0.47200
O 	O 	0.26970 0.61260 0.11160 -0.47400
N 	N 	0.32725 0.02790 0.04320 -0.24800
C 	C 	0.34385 0.42940 0.39160 -0.06400
C 	C 	0.31615 0.50210 0.30480 -0.01000
H 	H 	0.27850 0.49680 0.26880 0.04500
N 	N 	0.35820 0.22290 0.07380 -0.11700
C 	C 	0.34471 0.58320 0.27150 -0.06600
C 	C 	0.31110 0.35120 0.43080 0.37400
C 	C 	0.31368 0.65990 0.17530 0.36500
N 	N 	0.48600 0.53320 0.46360 -0.04800
C 	C 	0.40030 0.43240 0.44490 -0.08100
H 	H 	0.41870 0.38000 0.50100 0.09700
C 	C 	0.40110 0.59340 0.32750 -0.07700
H 	H 	0.42010 0.65150 0.30830 0.09100
C 	C 	0.33590 0.12830 0.10260 0.09400
C 	C 	0.42890 0.51580 0.41260 0.10100
C 	C 	0.37650 0.34750 0.12310 -0.04500
H 	H 	0.35890 0.41470 0.07390 0.04900
H 	H 	0.36630 0.35680 0.17750 0.04900
C 	C 	0.34470 0.06070 0.97230 0.00400
H 	H 	0.34340 0.00830 0.92050 0.02600
C 	C 	0.32180 0.13730 0.18900 -0.00600
H 	H 	0.31710 0.05230 0.20930 0.02500
H 	H 	0.35160 0.17720 0.24660 0.03600
C 	C 	0.36390 0.18140 0.99030 -0.01500
H 	H 	0.37800 0.22710 0.95380 0.04700
C 	C 	0.26970 0.21430 0.16010 -0.51300
H 	H 	0.24010 0.17500 0.10300 0.19000
H 	H 	0.26160 0.21660 0.21670 0.19100
H 	H 	0.27480 0.29940 0.14240 0.18700
C 	C 	0.43780 0.35980 0.16610 -0.11500
H 	H 	0.44930 0.43930 0.20330 0.07600
H 	H 	0.44710 0.36330 0.11020 0.08100
C 	C 	0.46880 0.25180 0.23610 -0.08800
H 	H 	0.46510 0.25790 0.29820 0.06500
H 	H 	0.45280 0.17170 0.20360 0.06600
O 	O 	0.50190 0.62350 0.42130 -0.14400
