data_crystal

_cell_length_a 27.51850
_cell_length_b 10.42470
_cell_length_c 14.86560
_cell_angle_alpha 90.00000
_cell_angle_beta  117.54100
_cell_angle_gamma 90.00000

_symmetry_space_group_name_	'P 1'
_symmetry_space_group_name_H-M	'P 1'

loop_
_symmetry_equiv_pos_as_xyz
  x,y,z

loop_
_atom_site_label
_atom_site_type_symbol
_atom_site_fract_x
_atom_site_fract_y
_atom_site_fract_z
_atom_site_charge
Zn	Zn	0.29130 0.36024 0.03377 1.22000
O 	O 	0.16737 0.25020 0.02130 -0.45600
C 	C 	0.15585 0.43410 0.10480 -0.08500
O 	O 	0.23291 0.39990 0.07940 -0.47700
C 	C 	0.37680 0.84860 0.14750 -0.01100
H 	H 	0.37180 0.84380 0.20780 0.03100
H 	H 	0.35630 0.92230 0.10860 0.04200
N 	N 	0.35260 0.73250 0.08640 -0.16800
N 	N 	0.01258 0.53500 0.03750 -0.09400
C 	C 	0.09873 0.43650 0.05310 -0.06200
H 	H 	0.07980 0.38290 0.99770 0.06600
N 	N 	0.32220 0.53590 0.04420 -0.29600
C 	C 	0.07029 0.52030 0.08530 0.07300
C 	C 	0.18804 0.35300 0.06510 0.38200
C 	C 	0.32720 0.59100 0.96280 -0.00900
H 	H 	0.31860 0.55310 0.90060 0.02500
C 	C 	0.34740 0.71170 0.99390 0.00700
H 	H 	0.35620 0.77020 0.95640 0.03700
C 	C 	0.33500 0.60400 0.21350 -0.87300
H 	H 	0.29810 0.58520 0.20000 0.29300
H 	H 	0.34730 0.68060 0.25380 0.29300
H 	H 	0.35850 0.53380 0.24980 0.28400
C 	C 	0.33700 0.62380 0.11390 0.32100
C 	C 	0.43550 0.87200 0.17980 -0.13700
H 	H 	0.44570 0.95390 0.21470 0.07200
H 	H 	0.44090 0.87830 0.11990 0.07800
C 	C 	0.18416 0.50820 0.19060 0.01500
H 	H 	0.22220 0.50350 0.22590 0.03200
C 	C 	0.15598 0.59010 0.22450 -0.08500
C 	C 	0.09917 0.59780 0.17050 -0.06200
H 	H 	0.08030 0.65470 0.19120 0.06400
C 	C 	0.18718 0.66460 0.32150 0.38100
O 	O 	0.16589 0.76530 0.33190 -0.45800
O 	O 	0.23153 0.61610 0.38450 -0.47000
C 	C 	0.47450 0.76630 0.25100 -0.07700
H 	H 	0.48060 0.78110 0.31980 0.05300
H 	H 	0.45730 0.68290 0.22960 0.05100
Zn	Zn	0.79130 0.86024 0.03377 1.21800
O 	O 	0.66737 0.75020 0.02130 -0.45800
C 	C 	0.65585 0.93410 0.10480 -0.08300
O 	O 	0.73291 0.89990 0.07940 -0.47800
C 	C 	0.87680 0.34860 0.14750 -0.01100
H 	H 	0.87180 0.34380 0.20780 0.03200
H 	H 	0.85630 0.42230 0.10860 0.04200
N 	N 	0.85260 0.23250 0.08640 -0.16700
N 	N 	0.51258 0.03500 0.03750 -0.09400
C 	C 	0.59873 0.93650 0.05310 -0.07000
H 	H 	0.57980 0.88290 0.99770 0.07100
N 	N 	0.82220 0.03590 0.04420 -0.29500
C 	C 	0.57029 0.02030 0.08530 0.07800
C 	C 	0.68804 0.85300 0.06510 0.38100
C 	C 	0.82720 0.09100 0.96280 -0.01000
H 	H 	0.81860 0.05310 0.90060 0.02400
C 	C 	0.84740 0.21170 0.99390 0.00600
H 	H 	0.85620 0.27020 0.95640 0.03700
C 	C 	0.83500 0.10400 0.21350 -0.87400
H 	H 	0.79810 0.08520 0.20000 0.29300
H 	H 	0.84730 0.18060 0.25380 0.29400
H 	H 	0.85850 0.03380 0.24980 0.28500
C 	C 	0.83700 0.12380 0.11390 0.32200
C 	C 	0.93550 0.37200 0.17980 -0.13700
H 	H 	0.94570 0.45390 0.21470 0.07200
H 	H 	0.94090 0.37830 0.11990 0.07900
C 	C 	0.68416 0.00820 0.19060 0.01500
H 	H 	0.72220 0.00350 0.22590 0.03200
C 	C 	0.65598 0.09010 0.22450 -0.08400
C 	C 	0.59917 0.09780 0.17050 -0.06400
H 	H 	0.58030 0.15470 0.19120 0.06500
C 	C 	0.68718 0.16460 0.32150 0.38100
O 	O 	0.66589 0.26530 0.33190 -0.45700
O 	O 	0.73153 0.11610 0.38450 -0.47000
C 	C 	0.97450 0.26630 0.25100 -0.07700
H 	H 	0.98060 0.28110 0.31980 0.05300
H 	H 	0.95730 0.18290 0.22960 0.05100
Zn	Zn	0.70870 0.36024 0.46623 1.21900
O 	O 	0.83263 0.25020 0.47870 -0.45700
C 	C 	0.84415 0.43410 0.39520 -0.08400
O 	O 	0.76709 0.39990 0.42060 -0.47800
C 	C 	0.62320 0.84860 0.35250 -0.01100
H 	H 	0.62820 0.84380 0.29220 0.03100
H 	H 	0.64370 0.92230 0.39140 0.04200
N 	N 	0.64740 0.73250 0.41360 -0.16800
N 	N 	0.98742 0.53500 0.46250 -0.09400
C 	C 	0.90127 0.43650 0.44690 -0.06400
H 	H 	0.92020 0.38290 0.50230 0.06800
N 	N 	0.67780 0.53590 0.45580 -0.29600
C 	C 	0.92971 0.52030 0.41470 0.07400
C 	C 	0.81196 0.35300 0.43490 0.38100
C 	C 	0.67280 0.59100 0.53720 -0.00900
H 	H 	0.68140 0.55310 0.59940 0.02400
C 	C 	0.65260 0.71170 0.50610 0.00600
H 	H 	0.64380 0.77020 0.54360 0.03700
C 	C 	0.66500 0.60400 0.28650 -0.87300
H 	H 	0.70190 0.58520 0.30000 0.29300
H 	H 	0.65270 0.68060 0.24620 0.29300
H 	H 	0.64150 0.53380 0.25020 0.28400
C 	C 	0.66300 0.62380 0.38610 0.32100
C 	C 	0.56450 0.87200 0.32020 -0.13800
H 	H 	0.55430 0.95390 0.28530 0.07200
H 	H 	0.55910 0.87830 0.38010 0.07900
C 	C 	0.81584 0.50820 0.30940 0.01500
H 	H 	0.77780 0.50350 0.27410 0.03200
C 	C 	0.84402 0.59010 0.27550 -0.08400
C 	C 	0.90083 0.59780 0.32950 -0.06200
H 	H 	0.91970 0.65470 0.30880 0.06400
C 	C 	0.81282 0.66460 0.17850 0.38100
O 	O 	0.83411 0.76530 0.16810 -0.45800
O 	O 	0.76847 0.61610 0.11550 -0.47000
C 	C 	0.52550 0.76630 0.24900 -0.07600
H 	H 	0.51940 0.78110 0.18020 0.05300
H 	H 	0.54270 0.68290 0.27040 0.05000
Zn	Zn	0.20870 0.86024 0.46623 1.21900
O 	O 	0.33263 0.75020 0.47870 -0.45700
C 	C 	0.34415 0.93410 0.39520 -0.08500
O 	O 	0.26709 0.89990 0.42060 -0.47800
C 	C 	0.12320 0.34860 0.35250 -0.01000
H 	H 	0.12820 0.34380 0.29220 0.03100
H 	H 	0.14370 0.42230 0.39140 0.04200
N 	N 	0.14740 0.23250 0.41360 -0.16800
N 	N 	0.48742 0.03500 0.46250 -0.09400
C 	C 	0.40127 0.93650 0.44690 -0.06400
H 	H 	0.42020 0.88290 0.50230 0.06800
N 	N 	0.17780 0.03590 0.45580 -0.29700
C 	C 	0.42971 0.02030 0.41470 0.07400
C 	C 	0.31196 0.85300 0.43490 0.38100
C 	C 	0.17280 0.09100 0.53720 -0.00900
H 	H 	0.18140 0.05310 0.59940 0.02400
C 	C 	0.15260 0.21170 0.50610 0.00600
H 	H 	0.14380 0.27020 0.54360 0.03700
C 	C 	0.16500 0.10400 0.28650 -0.87400
H 	H 	0.20190 0.08520 0.30000 0.29300
H 	H 	0.15270 0.18060 0.24620 0.29400
H 	H 	0.14150 0.03380 0.25020 0.28500
C 	C 	0.16300 0.12380 0.38610 0.32200
C 	C 	0.06450 0.37200 0.32020 -0.13800
H 	H 	0.05430 0.45390 0.28530 0.07200
H 	H 	0.05910 0.37830 0.38010 0.07900
C 	C 	0.31584 0.00820 0.30940 0.01500
H 	H 	0.27780 0.00350 0.27410 0.03200
C 	C 	0.34402 0.09010 0.27550 -0.08400
C 	C 	0.40083 0.09780 0.32950 -0.06200
H 	H 	0.41970 0.15470 0.30880 0.06500
C 	C 	0.31282 0.16460 0.17850 0.38100
O 	O 	0.33411 0.26530 0.16810 -0.45700
O 	O 	0.26847 0.11610 0.11550 -0.46900
C 	C 	0.02550 0.26630 0.24900 -0.07500
H 	H 	0.01940 0.28110 0.18020 0.05300
H 	H 	0.04270 0.18290 0.27040 0.05000
Zn	Zn	0.70870 0.63976 0.96623 1.21900
O 	O 	0.83263 0.74980 0.97870 -0.45700
C 	C 	0.84415 0.56590 0.89520 -0.08500
O 	O 	0.76709 0.60010 0.92060 -0.47700
C 	C 	0.62320 0.15140 0.85250 -0.01100
H 	H 	0.62820 0.15620 0.79220 0.03100
H 	H 	0.64370 0.07770 0.89140 0.04200
N 	N 	0.64740 0.26750 0.91360 -0.16800
N 	N 	0.98742 0.46500 0.96250 -0.09400
C 	C 	0.90127 0.56350 0.94690 -0.06200
H 	H 	0.92020 0.61710 0.00230 0.06600
N 	N 	0.67780 0.46410 0.95580 -0.29600
C 	C 	0.92971 0.47970 0.91470 0.07300
C 	C 	0.81196 0.64700 0.93490 0.38200
C 	C 	0.67280 0.40900 0.03720 -0.00900
H 	H 	0.68140 0.44690 0.09940 0.02500
C 	C 	0.65260 0.28830 0.00610 0.00700
H 	H 	0.64380 0.22980 0.04360 0.03700
C 	C 	0.66500 0.39600 0.78650 -0.87300
H 	H 	0.70190 0.41480 0.80000 0.29300
H 	H 	0.65270 0.31940 0.74620 0.29300
H 	H 	0.64150 0.46620 0.75020 0.28400
C 	C 	0.66300 0.37620 0.88610 0.32100
C 	C 	0.56450 0.12800 0.82020 -0.13700
H 	H 	0.55430 0.04610 0.78530 0.07200
H 	H 	0.55910 0.12170 0.88010 0.07800
C 	C 	0.81584 0.49180 0.80940 0.01500
H 	H 	0.77780 0.49650 0.77410 0.03200
C 	C 	0.84402 0.40990 0.77550 -0.08500
C 	C 	0.90083 0.40220 0.82950 -0.06200
H 	H 	0.91970 0.34530 0.80880 0.06400
C 	C 	0.81282 0.33540 0.67850 0.38100
O 	O 	0.83411 0.23470 0.66810 -0.45800
O 	O 	0.76847 0.38390 0.61550 -0.47000
C 	C 	0.52550 0.23370 0.74900 -0.07700
H 	H 	0.51940 0.21890 0.68020 0.05300
H 	H 	0.54270 0.31710 0.77040 0.05100
Zn	Zn	0.20870 0.13976 0.96623 1.21800
O 	O 	0.33263 0.24980 0.97870 -0.45800
C 	C 	0.34415 0.06590 0.89520 -0.08300
O 	O 	0.26709 0.10010 0.92060 -0.47800
C 	C 	0.12320 0.65140 0.85250 -0.01100
H 	H 	0.12820 0.65620 0.79220 0.03200
H 	H 	0.14370 0.57770 0.89140 0.04200
N 	N 	0.14740 0.76750 0.91360 -0.16700
N 	N 	0.48742 0.96500 0.96250 -0.09400
C 	C 	0.40127 0.06350 0.94690 -0.07000
H 	H 	0.42020 0.11710 0.00230 0.07100
N 	N 	0.17780 0.96410 0.95580 -0.29500
C 	C 	0.42971 0.97970 0.91470 0.07800
C 	C 	0.31196 0.14700 0.93490 0.38100
C 	C 	0.17280 0.90900 0.03720 -0.01000
H 	H 	0.18140 0.94690 0.09940 0.02400
C 	C 	0.15260 0.78830 0.00610 0.00600
H 	H 	0.14380 0.72980 0.04360 0.03700
C 	C 	0.16500 0.89600 0.78650 -0.87400
H 	H 	0.20190 0.91480 0.80000 0.29300
H 	H 	0.15270 0.81940 0.74620 0.29400
H 	H 	0.14150 0.96620 0.75020 0.28500
C 	C 	0.16300 0.87620 0.88610 0.32200
C 	C 	0.06450 0.62800 0.82020 -0.13700
H 	H 	0.05430 0.54610 0.78530 0.07200
H 	H 	0.05910 0.62170 0.88010 0.07900
C 	C 	0.31584 0.99180 0.80940 0.01500
H 	H 	0.27780 0.99650 0.77410 0.03200
C 	C 	0.34402 0.90990 0.77550 -0.08400
C 	C 	0.40083 0.90220 0.82950 -0.06400
H 	H 	0.41970 0.84530 0.80880 0.06500
C 	C 	0.31282 0.83540 0.67850 0.38100
O 	O 	0.33411 0.73470 0.66810 -0.45700
O 	O 	0.26847 0.88390 0.61550 -0.47000
C 	C 	0.02550 0.73370 0.74900 -0.07700
H 	H 	0.01940 0.71890 0.68020 0.05300
H 	H 	0.04270 0.81710 0.77040 0.05100
Zn	Zn	0.29130 0.63976 0.53377 1.21900
O 	O 	0.16737 0.74980 0.52130 -0.45700
C 	C 	0.15585 0.56590 0.60480 -0.08400
O 	O 	0.23291 0.60010 0.57940 -0.47800
C 	C 	0.37680 0.15140 0.64750 -0.01100
H 	H 	0.37180 0.15620 0.70780 0.03100
H 	H 	0.35630 0.07770 0.60860 0.04200
N 	N 	0.35260 0.26750 0.58640 -0.16800
N 	N 	0.01258 0.46500 0.53750 -0.09400
C 	C 	0.09873 0.56350 0.55310 -0.06400
H 	H 	0.07980 0.61710 0.49770 0.06800
N 	N 	0.32220 0.46410 0.54420 -0.29600
C 	C 	0.07029 0.47970 0.58530 0.07400
C 	C 	0.18804 0.64700 0.56510 0.38100
C 	C 	0.32720 0.40900 0.46280 -0.00900
H 	H 	0.31860 0.44690 0.40060 0.02400
C 	C 	0.34740 0.28830 0.49390 0.00600
H 	H 	0.35620 0.22980 0.45640 0.03700
C 	C 	0.33500 0.39600 0.71350 -0.87300
H 	H 	0.29810 0.41480 0.70000 0.29300
H 	H 	0.34730 0.31940 0.75380 0.29300
H 	H 	0.35850 0.46620 0.74980 0.28400
C 	C 	0.33700 0.37620 0.61390 0.32100
C 	C 	0.43550 0.12800 0.67980 -0.13800
H 	H 	0.44570 0.04610 0.71470 0.07200
H 	H 	0.44090 0.12170 0.61990 0.07900
C 	C 	0.18416 0.49180 0.69060 0.01500
H 	H 	0.22220 0.49650 0.72590 0.03200
C 	C 	0.15598 0.40990 0.72450 -0.08400
C 	C 	0.09917 0.40220 0.67050 -0.06200
H 	H 	0.08030 0.34530 0.69120 0.06400
C 	C 	0.18718 0.33540 0.82150 0.38100
O 	O 	0.16589 0.23470 0.83190 -0.45800
O 	O 	0.23153 0.38390 0.88450 -0.47000
C 	C 	0.47450 0.23370 0.75100 -0.07600
H 	H 	0.48060 0.21890 0.81980 0.05300
H 	H 	0.45730 0.31710 0.72960 0.05000
Zn	Zn	0.79130 0.13976 0.53377 1.21900
O 	O 	0.66737 0.24980 0.52130 -0.45700
C 	C 	0.65585 0.06590 0.60480 -0.08500
O 	O 	0.73291 0.10010 0.57940 -0.47800
C 	C 	0.87680 0.65140 0.64750 -0.01000
H 	H 	0.87180 0.65620 0.70780 0.03100
H 	H 	0.85630 0.57770 0.60860 0.04200
N 	N 	0.85260 0.76750 0.58640 -0.16800
N 	N 	0.51258 0.96500 0.53750 -0.09400
C 	C 	0.59873 0.06350 0.55310 -0.06400
H 	H 	0.57980 0.11710 0.49770 0.06800
N 	N 	0.82220 0.96410 0.54420 -0.29700
C 	C 	0.57029 0.97970 0.58530 0.07400
C 	C 	0.68804 0.14700 0.56510 0.38100
C 	C 	0.82720 0.90900 0.46280 -0.00900
H 	H 	0.81860 0.94690 0.40060 0.02400
C 	C 	0.84740 0.78830 0.49390 0.00600
H 	H 	0.85620 0.72980 0.45640 0.03700
C 	C 	0.83500 0.89600 0.71350 -0.87400
H 	H 	0.79810 0.91480 0.70000 0.29300
H 	H 	0.84730 0.81940 0.75380 0.29400
H 	H 	0.85850 0.96620 0.74980 0.28500
C 	C 	0.83700 0.87620 0.61390 0.32200
C 	C 	0.93550 0.62800 0.67980 -0.13800
H 	H 	0.94570 0.54610 0.71470 0.07200
H 	H 	0.94090 0.62170 0.61990 0.07900
C 	C 	0.68416 0.99180 0.69060 0.01500
H 	H 	0.72220 0.99650 0.72590 0.03200
C 	C 	0.65598 0.90990 0.72450 -0.08400
C 	C 	0.59917 0.90220 0.67050 -0.06200
H 	H 	0.58030 0.84530 0.69120 0.06500
C 	C 	0.68718 0.83540 0.82150 0.38100
O 	O 	0.66589 0.73470 0.83190 -0.45700
O 	O 	0.73153 0.88390 0.88450 -0.46900
C 	C 	0.97450 0.73370 0.75100 -0.07500
H 	H 	0.98060 0.71890 0.81980 0.05300
H 	H 	0.95730 0.81710 0.72960 0.05000
