data_crystal

_cell_length_a 28.33100
_cell_length_b 28.33100
_cell_length_c 28.33100
_cell_angle_alpha 90.00000
_cell_angle_beta  90.00000
_cell_angle_gamma 90.00000

_symmetry_space_group_name_	'P 1'
_symmetry_space_group_name_H-M	'P 1'

loop_
_symmetry_equiv_pos_as_xyz
  x,y,z

loop_
_atom_site_label
_atom_site_type_symbol
_atom_site_fract_x
_atom_site_fract_y
_atom_site_fract_z
_atom_site_charge
H 	H 	0.58490 0.25970 0.71290 0.32600
H 	H 	0.59740 0.28350 0.76130 0.34300
H 	H 	0.61690 0.23310 0.74940 0.32600
H 	H 	0.41510 0.74030 0.71290 0.33600
H 	H 	0.40260 0.71650 0.76130 0.35400
H 	H 	0.38310 0.76690 0.74940 0.33900
H 	H 	0.41510 0.25970 0.28710 0.30100
H 	H 	0.40260 0.28350 0.23870 0.31300
H 	H 	0.38310 0.23310 0.25060 0.29400
H 	H 	0.58490 0.74030 0.28710 0.32700
H 	H 	0.59740 0.71650 0.23870 0.34300
H 	H 	0.61690 0.76690 0.25060 0.32900
H 	H 	0.71290 0.58490 0.25970 0.32700
H 	H 	0.76130 0.59740 0.28350 0.34400
H 	H 	0.74940 0.61690 0.23310 0.32700
H 	H 	0.71290 0.41510 0.74030 0.33600
H 	H 	0.76130 0.40260 0.71650 0.35400
H 	H 	0.74940 0.38310 0.76690 0.33900
H 	H 	0.28710 0.41510 0.25970 0.30100
H 	H 	0.23870 0.40260 0.28350 0.31300
H 	H 	0.25060 0.38310 0.23310 0.29400
H 	H 	0.28710 0.58490 0.74030 0.32700
H 	H 	0.23870 0.59740 0.71650 0.34300
H 	H 	0.25060 0.61690 0.76690 0.32900
H 	H 	0.25970 0.71290 0.58490 0.32700
H 	H 	0.28350 0.76130 0.59740 0.34400
H 	H 	0.23310 0.74940 0.61690 0.32700
H 	H 	0.74030 0.71290 0.41510 0.33600
H 	H 	0.71650 0.76130 0.40260 0.35400
H 	H 	0.76690 0.74940 0.38310 0.33900
H 	H 	0.25970 0.28710 0.41510 0.30100
H 	H 	0.28350 0.23870 0.40260 0.31300
H 	H 	0.23310 0.25060 0.38310 0.29400
H 	H 	0.74030 0.28710 0.58490 0.32700
H 	H 	0.71650 0.23870 0.59740 0.34300
H 	H 	0.76690 0.25060 0.61690 0.32900
H 	H 	0.25970 0.58490 0.28710 0.31000
H 	H 	0.28350 0.59740 0.23870 0.32300
H 	H 	0.23310 0.61690 0.25060 0.30500
H 	H 	0.74030 0.41510 0.28710 0.31800
H 	H 	0.71650 0.40260 0.23870 0.33300
H 	H 	0.76690 0.38310 0.25060 0.31800
H 	H 	0.25970 0.41510 0.71290 0.31800
H 	H 	0.28350 0.40260 0.76130 0.33400
H 	H 	0.23310 0.38310 0.74940 0.31500
H 	H 	0.74030 0.58490 0.71290 0.34500
H 	H 	0.71650 0.59740 0.76130 0.36400
H 	H 	0.76690 0.61690 0.74940 0.35100
H 	H 	0.58490 0.71290 0.74030 0.34500
H 	H 	0.59740 0.76130 0.71650 0.36400
H 	H 	0.61690 0.74940 0.76690 0.35100
H 	H 	0.41510 0.71290 0.25970 0.31800
H 	H 	0.40260 0.76130 0.28350 0.33400
H 	H 	0.38310 0.74940 0.23310 0.31500
H 	H 	0.41510 0.28710 0.74030 0.31800
H 	H 	0.40260 0.23870 0.71650 0.33300
H 	H 	0.38310 0.25060 0.76690 0.31800
H 	H 	0.58490 0.28710 0.25970 0.31000
H 	H 	0.59740 0.23870 0.28350 0.32300
H 	H 	0.61690 0.25060 0.23310 0.30500
H 	H 	0.71290 0.25970 0.41510 0.31800
H 	H 	0.76130 0.28350 0.40260 0.33400
H 	H 	0.74940 0.23310 0.38310 0.31500
H 	H 	0.71290 0.74030 0.58490 0.34500
H 	H 	0.76130 0.71650 0.59740 0.36400
H 	H 	0.74940 0.76690 0.61690 0.35100
H 	H 	0.28710 0.25970 0.58490 0.31000
H 	H 	0.23870 0.28350 0.59740 0.32300
H 	H 	0.25060 0.23310 0.61690 0.30500
H 	H 	0.28710 0.74030 0.41510 0.31800
H 	H 	0.23870 0.71650 0.40260 0.33300
H 	H 	0.25060 0.76690 0.38310 0.31800
H 	H 	0.41510 0.74030 0.28710 0.31800
H 	H 	0.40260 0.71650 0.23870 0.33300
H 	H 	0.38310 0.76690 0.25060 0.31800
H 	H 	0.58490 0.25970 0.28710 0.31000
H 	H 	0.59740 0.28350 0.23870 0.32300
H 	H 	0.61690 0.23310 0.25060 0.30500
H 	H 	0.58490 0.74030 0.71290 0.34500
H 	H 	0.59740 0.71650 0.76130 0.36400
H 	H 	0.61690 0.76690 0.74940 0.35100
H 	H 	0.41510 0.25970 0.71290 0.31800
H 	H 	0.40260 0.28350 0.76130 0.33400
H 	H 	0.38310 0.23310 0.74940 0.31500
H 	H 	0.28710 0.41510 0.74030 0.31800
H 	H 	0.23870 0.40260 0.71650 0.33300
H 	H 	0.25060 0.38310 0.76690 0.31800
H 	H 	0.28710 0.58490 0.25970 0.31000
H 	H 	0.23870 0.59740 0.28350 0.32300
H 	H 	0.25060 0.61690 0.23310 0.30500
H 	H 	0.71290 0.58490 0.74030 0.34500
H 	H 	0.76130 0.59740 0.71650 0.36400
H 	H 	0.74940 0.61690 0.76690 0.35100
H 	H 	0.71290 0.41510 0.25970 0.31800
H 	H 	0.76130 0.40260 0.28350 0.33400
H 	H 	0.74940 0.38310 0.23310 0.31500
H 	H 	0.74030 0.28710 0.41510 0.31800
H 	H 	0.71650 0.23870 0.40260 0.33300
H 	H 	0.76690 0.25060 0.38310 0.31800
H 	H 	0.25970 0.28710 0.58490 0.31000
H 	H 	0.28350 0.23870 0.59740 0.32300
H 	H 	0.23310 0.25060 0.61690 0.30500
H 	H 	0.74030 0.71290 0.58490 0.34500
H 	H 	0.71650 0.76130 0.59740 0.36400
H 	H 	0.76690 0.74940 0.61690 0.35100
H 	H 	0.25970 0.71290 0.41510 0.31800
H 	H 	0.28350 0.76130 0.40260 0.33400
H 	H 	0.23310 0.74940 0.38310 0.31500
H 	H 	0.74030 0.41510 0.71290 0.33600
H 	H 	0.71650 0.40260 0.76130 0.35400
H 	H 	0.76690 0.38310 0.74940 0.33900
H 	H 	0.25970 0.58490 0.71290 0.32700
H 	H 	0.28350 0.59740 0.76130 0.34400
H 	H 	0.23310 0.61690 0.74940 0.32700
H 	H 	0.74030 0.58490 0.28710 0.32700
H 	H 	0.71650 0.59740 0.23870 0.34300
H 	H 	0.76690 0.61690 0.25060 0.32900
H 	H 	0.25970 0.41510 0.28710 0.30100
H 	H 	0.28350 0.40260 0.23870 0.31300
H 	H 	0.23310 0.38310 0.25060 0.29400
H 	H 	0.41510 0.28710 0.25970 0.30100
H 	H 	0.40260 0.23870 0.28350 0.31300
H 	H 	0.38310 0.25060 0.23310 0.29400
H 	H 	0.58490 0.28710 0.74030 0.32700
H 	H 	0.59740 0.23870 0.71650 0.34300
H 	H 	0.61690 0.25060 0.76690 0.32900
H 	H 	0.58490 0.71290 0.25970 0.32700
H 	H 	0.59740 0.76130 0.28350 0.34400
H 	H 	0.61690 0.74940 0.23310 0.32700
H 	H 	0.41510 0.71290 0.74030 0.33600
H 	H 	0.40260 0.76130 0.71650 0.35400
H 	H 	0.38310 0.74940 0.76690 0.33900
H 	H 	0.28710 0.74030 0.58490 0.32700
H 	H 	0.23870 0.71650 0.59740 0.34300
H 	H 	0.25060 0.76690 0.61690 0.32900
H 	H 	0.28710 0.25970 0.41510 0.30100
H 	H 	0.23870 0.28350 0.40260 0.31300
H 	H 	0.25060 0.23310 0.38310 0.29400
H 	H 	0.71290 0.74030 0.41510 0.33600
H 	H 	0.76130 0.71650 0.40260 0.35400
H 	H 	0.74940 0.76690 0.38310 0.33900
H 	H 	0.71290 0.25970 0.58490 0.32700
H 	H 	0.76130 0.28350 0.59740 0.34400
H 	H 	0.74940 0.23310 0.61690 0.32700
Zr	Zr	0.50000 0.08700 0.50000 3.21700
Zr	Zr	0.50000 0.91300 0.50000 3.21700
Zr	Zr	0.50000 0.50000 0.08700 3.21700
Zr	Zr	0.50000 0.50000 0.91300 3.21700
Zr	Zr	0.08700 0.50000 0.50000 3.21700
Zr	Zr	0.91300 0.50000 0.50000 3.21700
Zr	Zr	0.43748 -0.00000 0.43748 3.15900
Zr	Zr	0.56252 -0.00000 0.43748 3.15900
Zr	Zr	0.56252 -0.00000 0.56252 3.16000
Zr	Zr	0.43748 -0.00000 0.56252 3.15900
Zr	Zr	0.43748 0.43748 -0.00000 3.15900
Zr	Zr	0.43748 0.56252 -0.00000 3.15900
Zr	Zr	0.56252 0.56252 -0.00000 3.16000
Zr	Zr	0.56252 0.43748 -0.00000 3.15900
Zr	Zr	-0.00000 0.43748 0.43748 3.15900
Zr	Zr	-0.00000 0.43748 0.56252 3.15900
Zr	Zr	-0.00000 0.56252 0.56252 3.16000
Zr	Zr	-0.00000 0.56252 0.43748 3.15900
O 	O 	0.54624 0.12670 0.54624 -0.69700
O 	O 	0.58738 0.07120 0.58738 -0.80800
C 	C 	0.57650 0.11500 0.57650 0.60500
C 	C 	0.60330 0.15120 0.60330 -0.46500
C 	C 	0.59350 0.19840 0.59350 0.36800
H 	H 	0.57090 0.20580 0.57090 -0.09800
C 	C 	0.61710 0.23510 0.61710 -0.59700
H 	H 	0.60950 0.26610 0.60950 0.20800
C 	C 	0.65080 0.22740 0.65080 0.60700
C 	C 	0.65990 0.18120 0.65990 -0.64900
H 	H 	0.68250 0.17390 0.68250 0.20800
C 	C 	0.63740 0.14450 0.63740 0.41900
H 	H 	0.64560 0.11380 0.64560 -0.16700
C 	C 	0.67340 0.26670 0.67340 -0.90200
O 	O 	0.45376 0.87330 0.54624 -0.69300
O 	O 	0.41262 0.92880 0.58738 -0.76100
C 	C 	0.42350 0.88500 0.57650 0.59700
C 	C 	0.39670 0.84880 0.60330 -0.44600
C 	C 	0.40650 0.80160 0.59350 0.36000
H 	H 	0.42910 0.79420 0.57090 -0.09400
C 	C 	0.38290 0.76490 0.61710 -0.58900
H 	H 	0.39050 0.73390 0.60950 0.20600
C 	C 	0.34920 0.77260 0.65080 0.60300
C 	C 	0.34010 0.81880 0.65990 -0.63600
H 	H 	0.31750 0.82610 0.68250 0.21300
C 	C 	0.36260 0.85550 0.63740 0.41000
H 	H 	0.35440 0.88620 0.64560 -0.14300
C 	C 	0.32660 0.73330 0.67340 -0.90300
O 	O 	0.45376 0.12670 0.45376 -0.69700
O 	O 	0.41262 0.07120 0.41262 -0.81400
C 	C 	0.42350 0.11500 0.42350 0.59900
C 	C 	0.39670 0.15120 0.39670 -0.45200
C 	C 	0.40650 0.19840 0.40650 0.34700
H 	H 	0.42910 0.20580 0.42910 -0.09100
C 	C 	0.38290 0.23510 0.38290 -0.56600
H 	H 	0.39050 0.26610 0.39050 0.19800
C 	C 	0.34920 0.22740 0.34920 0.56600
C 	C 	0.34010 0.18120 0.34010 -0.61700
H 	H 	0.31750 0.17390 0.31750 0.18200
C 	C 	0.36260 0.14450 0.36260 0.39300
H 	H 	0.35440 0.11380 0.35440 -0.17000
C 	C 	0.32660 0.26670 0.32660 -0.83700
O 	O 	0.54624 0.87330 0.45376 -0.69300
O 	O 	0.58738 0.92880 0.41262 -0.76100
C 	C 	0.57650 0.88500 0.42350 0.59700
C 	C 	0.60330 0.84880 0.39670 -0.44600
C 	C 	0.59350 0.80160 0.40650 0.36000
H 	H 	0.57090 0.79420 0.42910 -0.09400
C 	C 	0.61710 0.76490 0.38290 -0.58900
H 	H 	0.60950 0.73390 0.39050 0.20600
C 	C 	0.65080 0.77260 0.34920 0.60300
C 	C 	0.65990 0.81880 0.34010 -0.63600
H 	H 	0.68250 0.82610 0.31750 0.21300
C 	C 	0.63740 0.85550 0.36260 0.41000
H 	H 	0.64560 0.88620 0.35440 -0.14300
C 	C 	0.67340 0.73330 0.32660 -0.90300
O 	O 	0.54624 0.54624 0.12670 -0.69700
O 	O 	0.58738 0.58738 0.07120 -0.80800
C 	C 	0.57650 0.57650 0.11500 0.60500
C 	C 	0.60330 0.60330 0.15120 -0.46500
C 	C 	0.59350 0.59350 0.19840 0.36800
H 	H 	0.57090 0.57090 0.20580 -0.09800
C 	C 	0.61710 0.61710 0.23510 -0.59700
H 	H 	0.60950 0.60950 0.26610 0.20800
C 	C 	0.65080 0.65080 0.22740 0.60700
C 	C 	0.65990 0.65990 0.18120 -0.64900
H 	H 	0.68250 0.68250 0.17390 0.20800
C 	C 	0.63740 0.63740 0.14450 0.41900
H 	H 	0.64560 0.64560 0.11380 -0.16700
C 	C 	0.67340 0.67340 0.26670 -0.90200
O 	O 	0.54624 0.45376 0.87330 -0.69300
O 	O 	0.58738 0.41262 0.92880 -0.76100
C 	C 	0.57650 0.42350 0.88500 0.59700
C 	C 	0.60330 0.39670 0.84880 -0.44600
C 	C 	0.59350 0.40650 0.80160 0.36000
H 	H 	0.57090 0.42910 0.79420 -0.09400
C 	C 	0.61710 0.38290 0.76490 -0.58900
H 	H 	0.60950 0.39050 0.73390 0.20600
C 	C 	0.65080 0.34920 0.77260 0.60300
C 	C 	0.65990 0.34010 0.81880 -0.63600
H 	H 	0.68250 0.31750 0.82610 0.21300
C 	C 	0.63740 0.36260 0.85550 0.41000
H 	H 	0.64560 0.35440 0.88620 -0.14300
C 	C 	0.67340 0.32660 0.73330 -0.90300
O 	O 	0.45376 0.45376 0.12670 -0.69700
O 	O 	0.41262 0.41262 0.07120 -0.81400
C 	C 	0.42350 0.42350 0.11500 0.59900
C 	C 	0.39670 0.39670 0.15120 -0.45200
C 	C 	0.40650 0.40650 0.19840 0.34700
H 	H 	0.42910 0.42910 0.20580 -0.09100
C 	C 	0.38290 0.38290 0.23510 -0.56600
H 	H 	0.39050 0.39050 0.26610 0.19800
C 	C 	0.34920 0.34920 0.22740 0.56600
C 	C 	0.34010 0.34010 0.18120 -0.61700
H 	H 	0.31750 0.31750 0.17390 0.18200
C 	C 	0.36260 0.36260 0.14450 0.39300
H 	H 	0.35440 0.35440 0.11380 -0.17000
C 	C 	0.32660 0.32660 0.26670 -0.83700
O 	O 	0.45376 0.54624 0.87330 -0.69300
O 	O 	0.41262 0.58738 0.92880 -0.76100
C 	C 	0.42350 0.57650 0.88500 0.59700
C 	C 	0.39670 0.60330 0.84880 -0.44600
C 	C 	0.40650 0.59350 0.80160 0.36000
H 	H 	0.42910 0.57090 0.79420 -0.09400
C 	C 	0.38290 0.61710 0.76490 -0.58900
H 	H 	0.39050 0.60950 0.73390 0.20600
C 	C 	0.34920 0.65080 0.77260 0.60300
C 	C 	0.34010 0.65990 0.81880 -0.63600
H 	H 	0.31750 0.68250 0.82610 0.21300
C 	C 	0.36260 0.63740 0.85550 0.41000
H 	H 	0.35440 0.64560 0.88620 -0.14300
C 	C 	0.32660 0.67340 0.73330 -0.90300
O 	O 	0.12670 0.54624 0.54624 -0.69700
O 	O 	0.07120 0.58738 0.58738 -0.80800
C 	C 	0.11500 0.57650 0.57650 0.60500
C 	C 	0.15120 0.60330 0.60330 -0.46500
C 	C 	0.19840 0.59350 0.59350 0.36800
H 	H 	0.20580 0.57090 0.57090 -0.09800
C 	C 	0.23510 0.61710 0.61710 -0.59700
H 	H 	0.26610 0.60950 0.60950 0.20800
C 	C 	0.22740 0.65080 0.65080 0.60700
C 	C 	0.18120 0.65990 0.65990 -0.64900
H 	H 	0.17390 0.68250 0.68250 0.20800
C 	C 	0.14450 0.63740 0.63740 0.41900
H 	H 	0.11380 0.64560 0.64560 -0.16700
C 	C 	0.26670 0.67340 0.67340 -0.90200
O 	O 	0.87330 0.54624 0.45376 -0.69300
O 	O 	0.92880 0.58738 0.41262 -0.76100
C 	C 	0.88500 0.57650 0.42350 0.59700
C 	C 	0.84880 0.60330 0.39670 -0.44600
C 	C 	0.80160 0.59350 0.40650 0.36000
H 	H 	0.79420 0.57090 0.42910 -0.09400
C 	C 	0.76490 0.61710 0.38290 -0.58900
H 	H 	0.73390 0.60950 0.39050 0.20600
C 	C 	0.77260 0.65080 0.34920 0.60300
C 	C 	0.81880 0.65990 0.34010 -0.63600
H 	H 	0.82610 0.68250 0.31750 0.21300
C 	C 	0.85550 0.63740 0.36260 0.41000
H 	H 	0.88620 0.64560 0.35440 -0.14300
C 	C 	0.73330 0.67340 0.32660 -0.90300
O 	O 	0.12670 0.45376 0.45376 -0.69700
O 	O 	0.07120 0.41262 0.41262 -0.81400
C 	C 	0.11500 0.42350 0.42350 0.59900
C 	C 	0.15120 0.39670 0.39670 -0.45200
C 	C 	0.19840 0.40650 0.40650 0.34700
H 	H 	0.20580 0.42910 0.42910 -0.09100
C 	C 	0.23510 0.38290 0.38290 -0.56600
H 	H 	0.26610 0.39050 0.39050 0.19800
C 	C 	0.22740 0.34920 0.34920 0.56600
C 	C 	0.18120 0.34010 0.34010 -0.61700
H 	H 	0.17390 0.31750 0.31750 0.18200
C 	C 	0.14450 0.36260 0.36260 0.39300
H 	H 	0.11380 0.35440 0.35440 -0.17000
C 	C 	0.26670 0.32660 0.32660 -0.83700
O 	O 	0.87330 0.45376 0.54624 -0.69300
O 	O 	0.92880 0.41262 0.58738 -0.76100
C 	C 	0.88500 0.42350 0.57650 0.59700
C 	C 	0.84880 0.39670 0.60330 -0.44600
C 	C 	0.80160 0.40650 0.59350 0.36000
H 	H 	0.79420 0.42910 0.57090 -0.09400
C 	C 	0.76490 0.38290 0.61710 -0.58900
H 	H 	0.73390 0.39050 0.60950 0.20600
C 	C 	0.77260 0.34920 0.65080 0.60300
C 	C 	0.81880 0.34010 0.65990 -0.63600
H 	H 	0.82610 0.31750 0.68250 0.21300
C 	C 	0.85550 0.36260 0.63740 0.41000
H 	H 	0.88620 0.35440 0.64560 -0.14300
C 	C 	0.73330 0.32660 0.67340 -0.90300
O 	O 	0.12670 0.54624 0.45376 -0.69700
O 	O 	0.07120 0.58738 0.41262 -0.81100
C 	C 	0.11500 0.57650 0.42350 0.60200
C 	C 	0.15120 0.60330 0.39670 -0.45800
C 	C 	0.19840 0.59350 0.40650 0.35700
H 	H 	0.20580 0.57090 0.42910 -0.09400
C 	C 	0.23510 0.61710 0.38290 -0.58100
H 	H 	0.26610 0.60950 0.39050 0.20300
C 	C 	0.22740 0.65080 0.34920 0.58600
C 	C 	0.18120 0.65990 0.34010 -0.63300
H 	H 	0.17390 0.68250 0.31750 0.19500
C 	C 	0.14450 0.63740 0.36260 0.40600
H 	H 	0.11380 0.64560 0.35440 -0.16800
C 	C 	0.26670 0.67340 0.32660 -0.86900
O 	O 	0.87330 0.45376 0.45376 -0.69200
O 	O 	0.92880 0.41262 0.41262 -0.76400
C 	C 	0.88500 0.42350 0.42350 0.59400
C 	C 	0.84880 0.39670 0.39670 -0.43900
C 	C 	0.80160 0.40650 0.40650 0.34900
H 	H 	0.79420 0.42910 0.42910 -0.09000
C 	C 	0.76490 0.38290 0.38290 -0.57300
H 	H 	0.73390 0.39050 0.39050 0.20100
C 	C 	0.77260 0.34920 0.34920 0.58200
C 	C 	0.81880 0.34010 0.34010 -0.62000
H 	H 	0.82610 0.31750 0.31750 0.20000
C 	C 	0.85550 0.36260 0.36260 0.39700
H 	H 	0.88620 0.35440 0.35440 -0.14400
C 	C 	0.73330 0.32660 0.32660 -0.87100
O 	O 	0.12670 0.45376 0.54624 -0.69700
O 	O 	0.07120 0.41262 0.58738 -0.81100
C 	C 	0.11500 0.42350 0.57650 0.60200
C 	C 	0.15120 0.39670 0.60330 -0.45800
C 	C 	0.19840 0.40650 0.59350 0.35700
H 	H 	0.20580 0.42910 0.57090 -0.09400
C 	C 	0.23510 0.38290 0.61710 -0.58100
H 	H 	0.26610 0.39050 0.60950 0.20300
C 	C 	0.22740 0.34920 0.65080 0.58600
C 	C 	0.18120 0.34010 0.65990 -0.63300
H 	H 	0.17390 0.31750 0.68250 0.19500
C 	C 	0.14450 0.36260 0.63740 0.40600
H 	H 	0.11380 0.35440 0.64560 -0.16800
C 	C 	0.26670 0.32660 0.67340 -0.86900
O 	O 	0.87330 0.54624 0.54624 -0.69300
O 	O 	0.92880 0.58738 0.58738 -0.75800
C 	C 	0.88500 0.57650 0.57650 0.60000
C 	C 	0.84880 0.60330 0.60330 -0.45200
C 	C 	0.80160 0.59350 0.59350 0.37000
H 	H 	0.79420 0.57090 0.57090 -0.09700
C 	C 	0.76490 0.61710 0.61710 -0.60400
H 	H 	0.73390 0.60950 0.60950 0.21000
C 	C 	0.77260 0.65080 0.65080 0.62300
C 	C 	0.81880 0.65990 0.65990 -0.65200
H 	H 	0.82610 0.68250 0.68250 0.22600
C 	C 	0.85550 0.63740 0.63740 0.42300
H 	H 	0.88620 0.64560 0.64560 -0.14100
C 	C 	0.73330 0.67340 0.67340 -0.93500
O 	O 	0.54624 0.54624 0.87330 -0.69300
O 	O 	0.58738 0.58738 0.92880 -0.75800
C 	C 	0.57650 0.57650 0.88500 0.60000
C 	C 	0.60330 0.60330 0.84880 -0.45200
C 	C 	0.59350 0.59350 0.80160 0.37000
H 	H 	0.57090 0.57090 0.79420 -0.09700
C 	C 	0.61710 0.61710 0.76490 -0.60400
H 	H 	0.60950 0.60950 0.73390 0.21000
C 	C 	0.65080 0.65080 0.77260 0.62300
C 	C 	0.65990 0.65990 0.81880 -0.65200
H 	H 	0.68250 0.68250 0.82610 0.22600
C 	C 	0.63740 0.63740 0.85550 0.42300
H 	H 	0.64560 0.64560 0.88620 -0.14100
C 	C 	0.67340 0.67340 0.73330 -0.93500
O 	O 	0.45376 0.54624 0.12670 -0.69700
O 	O 	0.41262 0.58738 0.07120 -0.81100
C 	C 	0.42350 0.57650 0.11500 0.60200
C 	C 	0.39670 0.60330 0.15120 -0.45800
C 	C 	0.40650 0.59350 0.19840 0.35700
H 	H 	0.42910 0.57090 0.20580 -0.09400
C 	C 	0.38290 0.61710 0.23510 -0.58100
H 	H 	0.39050 0.60950 0.26610 0.20300
C 	C 	0.34920 0.65080 0.22740 0.58600
C 	C 	0.34010 0.65990 0.18120 -0.63300
H 	H 	0.31750 0.68250 0.17390 0.19500
C 	C 	0.36260 0.63740 0.14450 0.40600
H 	H 	0.35440 0.64560 0.11380 -0.16800
C 	C 	0.32660 0.67340 0.26670 -0.86900
O 	O 	0.45376 0.45376 0.87330 -0.69200
O 	O 	0.41262 0.41262 0.92880 -0.76400
C 	C 	0.42350 0.42350 0.88500 0.59400
C 	C 	0.39670 0.39670 0.84880 -0.43900
C 	C 	0.40650 0.40650 0.80160 0.34900
H 	H 	0.42910 0.42910 0.79420 -0.09000
C 	C 	0.38290 0.38290 0.76490 -0.57300
H 	H 	0.39050 0.39050 0.73390 0.20100
C 	C 	0.34920 0.34920 0.77260 0.58200
C 	C 	0.34010 0.34010 0.81880 -0.62000
H 	H 	0.31750 0.31750 0.82610 0.20000
C 	C 	0.36260 0.36260 0.85550 0.39700
H 	H 	0.35440 0.35440 0.88620 -0.14400
C 	C 	0.32660 0.32660 0.73330 -0.87100
O 	O 	0.54624 0.45376 0.12670 -0.69700
O 	O 	0.58738 0.41262 0.07120 -0.81100
C 	C 	0.57650 0.42350 0.11500 0.60200
C 	C 	0.60330 0.39670 0.15120 -0.45800
C 	C 	0.59350 0.40650 0.19840 0.35700
H 	H 	0.57090 0.42910 0.20580 -0.09400
C 	C 	0.61710 0.38290 0.23510 -0.58100
H 	H 	0.60950 0.39050 0.26610 0.20300
C 	C 	0.65080 0.34920 0.22740 0.58600
C 	C 	0.65990 0.34010 0.18120 -0.63300
H 	H 	0.68250 0.31750 0.17390 0.19500
C 	C 	0.63740 0.36260 0.14450 0.40600
H 	H 	0.64560 0.35440 0.11380 -0.16800
C 	C 	0.67340 0.32660 0.26670 -0.86900
O 	O 	0.54624 0.12670 0.45376 -0.69700
O 	O 	0.58738 0.07120 0.41262 -0.81100
C 	C 	0.57650 0.11500 0.42350 0.60200
C 	C 	0.60330 0.15120 0.39670 -0.45800
C 	C 	0.59350 0.19840 0.40650 0.35700
H 	H 	0.57090 0.20580 0.42910 -0.09400
C 	C 	0.61710 0.23510 0.38290 -0.58100
H 	H 	0.60950 0.26610 0.39050 0.20300
C 	C 	0.65080 0.22740 0.34920 0.58600
C 	C 	0.65990 0.18120 0.34010 -0.63300
H 	H 	0.68250 0.17390 0.31750 0.19500
C 	C 	0.63740 0.14450 0.36260 0.40600
H 	H 	0.64560 0.11380 0.35440 -0.16800
C 	C 	0.67340 0.26670 0.32660 -0.86900
O 	O 	0.54624 0.87330 0.54624 -0.69300
O 	O 	0.58738 0.92880 0.58738 -0.75800
C 	C 	0.57650 0.88500 0.57650 0.60000
C 	C 	0.60330 0.84880 0.60330 -0.45200
C 	C 	0.59350 0.80160 0.59350 0.37000
H 	H 	0.57090 0.79420 0.57090 -0.09700
C 	C 	0.61710 0.76490 0.61710 -0.60400
H 	H 	0.60950 0.73390 0.60950 0.21000
C 	C 	0.65080 0.77260 0.65080 0.62300
C 	C 	0.65990 0.81880 0.65990 -0.65200
H 	H 	0.68250 0.82610 0.68250 0.22600
C 	C 	0.63740 0.85550 0.63740 0.42300
H 	H 	0.64560 0.88620 0.64560 -0.14100
C 	C 	0.67340 0.73330 0.67340 -0.93500
O 	O 	0.45376 0.12670 0.54624 -0.69700
O 	O 	0.41262 0.07120 0.58738 -0.81100
C 	C 	0.42350 0.11500 0.57650 0.60200
C 	C 	0.39670 0.15120 0.60330 -0.45800
C 	C 	0.40650 0.19840 0.59350 0.35700
H 	H 	0.42910 0.20580 0.57090 -0.09400
C 	C 	0.38290 0.23510 0.61710 -0.58100
H 	H 	0.39050 0.26610 0.60950 0.20300
C 	C 	0.34920 0.22740 0.65080 0.58600
C 	C 	0.34010 0.18120 0.65990 -0.63300
H 	H 	0.31750 0.17390 0.68250 0.19500
C 	C 	0.36260 0.14450 0.63740 0.40600
H 	H 	0.35440 0.11380 0.64560 -0.16800
C 	C 	0.32660 0.26670 0.67340 -0.86900
O 	O 	0.45376 0.87330 0.45376 -0.69200
O 	O 	0.41262 0.92880 0.41262 -0.76400
C 	C 	0.42350 0.88500 0.42350 0.59400
C 	C 	0.39670 0.84880 0.39670 -0.43900
C 	C 	0.40650 0.80160 0.40650 0.34900
H 	H 	0.42910 0.79420 0.42910 -0.09000
C 	C 	0.38290 0.76490 0.38290 -0.57300
H 	H 	0.39050 0.73390 0.39050 0.20100
C 	C 	0.34920 0.77260 0.34920 0.58200
C 	C 	0.34010 0.81880 0.34010 -0.62000
H 	H 	0.31750 0.82610 0.31750 0.20000
C 	C 	0.36260 0.85550 0.36260 0.39700
H 	H 	0.35440 0.88620 0.35440 -0.14400
C 	C 	0.32660 0.73330 0.32660 -0.87100
O 	O 	0.43710 0.04329 0.50000 -1.37000
O 	O 	0.56290 0.95671 0.50000 -1.29900
O 	O 	0.56290 0.04329 0.50000 -1.36800
O 	O 	0.43710 0.95671 0.50000 -1.30100
O 	O 	0.50000 0.43710 0.04329 -1.37000
O 	O 	0.50000 0.56290 0.95671 -1.29900
O 	O 	0.50000 0.56290 0.04329 -1.36800
O 	O 	0.50000 0.43710 0.95671 -1.30100
O 	O 	0.04329 0.50000 0.43710 -1.37000
O 	O 	0.95671 0.50000 0.56290 -1.29900
O 	O 	0.04329 0.50000 0.56290 -1.36800
O 	O 	0.95671 0.50000 0.43710 -1.30100
O 	O 	0.04329 0.43710 0.50000 -1.37000
O 	O 	0.95671 0.56290 0.50000 -1.29900
O 	O 	0.04329 0.56290 0.50000 -1.36800
O 	O 	0.95671 0.43710 0.50000 -1.30100
O 	O 	0.43710 0.50000 0.95671 -1.30100
O 	O 	0.56290 0.50000 0.04329 -1.36800
O 	O 	0.56290 0.50000 0.95671 -1.29900
O 	O 	0.43710 0.50000 0.04329 -1.37000
O 	O 	0.50000 0.04329 0.56290 -1.36800
O 	O 	0.50000 0.95671 0.43710 -1.30100
O 	O 	0.50000 0.04329 0.43710 -1.37000
O 	O 	0.50000 0.95671 0.56290 -1.29900
C 	C 	0.65340 0.28600 0.71400 0.95800
C 	C 	0.60890 0.26340 0.73660 -2.06700
C 	C 	0.34660 0.71400 0.71400 0.96900
C 	C 	0.39110 0.73660 0.73660 -2.11300
C 	C 	0.34660 0.28600 0.28600 0.87600
C 	C 	0.39110 0.26340 0.26340 -1.90300
C 	C 	0.65340 0.71400 0.28600 0.95800
C 	C 	0.60890 0.73660 0.26340 -2.06700
C 	C 	0.71400 0.65340 0.28600 0.95800
C 	C 	0.73660 0.60890 0.26340 -2.06700
C 	C 	0.71400 0.34660 0.71400 0.96900
C 	C 	0.73660 0.39110 0.73660 -2.11300
C 	C 	0.28600 0.34660 0.28600 0.87600
C 	C 	0.26340 0.39110 0.26340 -1.90300
C 	C 	0.28600 0.65340 0.71400 0.95800
C 	C 	0.26340 0.60890 0.73660 -2.06700
C 	C 	0.28600 0.71400 0.65340 0.95800
C 	C 	0.26340 0.73660 0.60890 -2.06700
C 	C 	0.71400 0.71400 0.34660 0.96900
C 	C 	0.73660 0.73660 0.39110 -2.11300
C 	C 	0.28600 0.28600 0.34660 0.87600
C 	C 	0.26340 0.26340 0.39110 -1.90300
C 	C 	0.71400 0.28600 0.65340 0.95800
C 	C 	0.73660 0.26340 0.60890 -2.06700
C 	C 	0.28600 0.65340 0.28600 0.91100
C 	C 	0.26340 0.60890 0.26340 -1.96200
C 	C 	0.71400 0.34660 0.28600 0.92300
C 	C 	0.73660 0.39110 0.26340 -2.00800
C 	C 	0.28600 0.34660 0.71400 0.92300
C 	C 	0.26340 0.39110 0.73660 -2.00800
C 	C 	0.71400 0.65340 0.71400 1.00400
C 	C 	0.73660 0.60890 0.73660 -2.17100
C 	C 	0.65340 0.71400 0.71400 1.00400
C 	C 	0.60890 0.73660 0.73660 -2.17100
C 	C 	0.34660 0.71400 0.28600 0.92300
C 	C 	0.39110 0.73660 0.26340 -2.00800
C 	C 	0.34660 0.28600 0.71400 0.92300
C 	C 	0.39110 0.26340 0.73660 -2.00800
C 	C 	0.65340 0.28600 0.28600 0.91100
C 	C 	0.60890 0.26340 0.26340 -1.96200
C 	C 	0.71400 0.28600 0.34660 0.92300
C 	C 	0.73660 0.26340 0.39110 -2.00800
C 	C 	0.71400 0.71400 0.65340 1.00400
C 	C 	0.73660 0.73660 0.60890 -2.17100
C 	C 	0.28600 0.28600 0.65340 0.91100
C 	C 	0.26340 0.26340 0.60890 -1.96200
C 	C 	0.28600 0.71400 0.34660 0.92300
C 	C 	0.26340 0.73660 0.39110 -2.00800
