data_crystal

_cell_length_a 10.19500
_cell_length_b 21.34200
_cell_length_c 18.53300
_cell_angle_alpha 90.00000
_cell_angle_beta  102.96000
_cell_angle_gamma 90.00000

_symmetry_space_group_name_	'P 1'
_symmetry_space_group_name_H-M	'P 1'

loop_
_symmetry_equiv_pos_as_xyz
  x,y,z

loop_
_atom_site_label
_atom_site_type_symbol
_atom_site_fract_x
_atom_site_fract_y
_atom_site_fract_z
_atom_site_charge
Zn	Zn	0.34843 0.65082 0.78606 1.24500
O 	O 	0.35680 0.52900 0.88370 -0.26600
O 	O 	0.23870 0.61577 0.84980 -0.43000
O 	O 	0.13060 0.73040 0.29480 -0.26000
O 	O 	0.23000 0.78911 0.22220 -0.42300
O 	O 	0.22750 0.55910 0.66010 -0.26800
O 	O 	0.42470 0.60080 0.71744 -0.42200
O 	O 	0.61620 0.72447 0.78150 -0.26500
O 	O 	0.49870 0.68466 0.85940 -0.43000
C 	C 	0.26350 0.56570 0.88680 0.33400
C 	C 	0.10060 0.60000 0.96350 0.00400
H 	H 	0.12250 0.64130 0.95560 0.05100
C 	C 	0.16670 0.55020 0.93500 -0.05400
C 	C 	0.13480 0.48970 0.94680 -0.04300
H 	H 	0.18060 0.45740 0.92950 0.06500
C 	C 	0.03240 0.47520 0.98550 0.03100
C 	C 	0.00480 0.58710 0.00250 -0.07500
H 	H 	0.96320 0.62000 0.02160 0.06800
C 	C 	0.13420 0.75450 0.23410 0.32900
C 	C 	0.35050 0.56810 0.66670 0.32000
C 	C 	0.36370 0.53760 0.53860 -0.04600
H 	H 	0.27690 0.55310 0.52200 0.06600
C 	C 	0.42280 0.53900 0.61270 -0.05000
C 	C 	0.55320 0.51470 0.63880 0.00700
H 	H 	0.59260 0.51620 0.68920 0.05200
C 	C 	0.62320 0.48850 0.59050 -0.08000
H 	H 	0.70820 0.47140 0.60830 0.07300
C 	C 	0.43490 0.51220 0.48600 0.03400
C 	C 	0.60240 0.70970 0.84420 0.32800
C 	C 	0.71690 0.72190 0.91070 -0.04900
C 	C 	0.70580 0.70280 0.97990 -0.05200
H 	H 	0.62890 0.68160 0.98540 0.07400
C 	C 	0.81120 0.71500 0.04370 0.03300
C 	C 	0.80370 0.69560 0.11540 -0.08500
H 	H 	0.72790 0.67400 0.12180 0.07600
C 	C 	0.90520 0.70770 0.17560 0.00700
H 	H 	0.89830 0.69430 0.22240 0.05100
C 	C 	0.02160 0.74090 0.16670 -0.05500
C 	C 	0.03120 0.76030 0.09830 -0.04300
H 	H 	0.10730 0.78230 0.09310 0.07000
C 	C 	0.92710 0.74780 0.03390 0.02500
C 	C 	0.93620 0.76740 0.96180 -0.07600
H 	H 	0.01190 0.78900 0.95530 0.07300
C 	C 	0.83370 0.75440 0.90210 0.00000
H 	H 	0.84080 0.76710 0.85510 0.05600
Zn	Zn	0.65157 0.15082 0.71394 1.24400
O 	O 	0.64320 0.02900 0.61630 -0.26700
O 	O 	0.76130 0.11577 0.65020 -0.43000
O 	O 	0.86940 0.23040 0.20520 -0.26000
O 	O 	0.77000 0.28911 0.27780 -0.42300
O 	O 	0.77250 0.05910 0.83990 -0.26800
O 	O 	0.57530 0.10080 0.78256 -0.42200
O 	O 	0.38380 0.22447 0.71850 -0.26500
O 	O 	0.50130 0.18466 0.64060 -0.43000
C 	C 	0.73650 0.06570 0.61320 0.33500
C 	C 	0.89940 0.10000 0.53650 0.00700
H 	H 	0.87750 0.14130 0.54440 0.05100
C 	C 	0.83330 0.05020 0.56500 -0.05400
C 	C 	0.86520 0.98970 0.55320 -0.04400
H 	H 	0.81940 0.95740 0.57050 0.06600
C 	C 	0.96760 0.97520 0.51450 0.03300
C 	C 	0.99520 0.08710 0.49750 -0.07900
H 	H 	0.03680 0.12000 0.47840 0.07000
C 	C 	0.86580 0.25450 0.26590 0.32900
C 	C 	0.64950 0.06810 0.83330 0.32000
C 	C 	0.63630 0.03760 0.96140 -0.04600
H 	H 	0.72310 0.05310 0.97800 0.06600
C 	C 	0.57720 0.03900 0.88730 -0.05000
C 	C 	0.44680 0.01470 0.86120 0.00700
H 	H 	0.40740 0.01620 0.81080 0.05200
C 	C 	0.37680 0.98850 0.90950 -0.08000
H 	H 	0.29180 0.97140 0.89170 0.07300
C 	C 	0.56510 0.01220 0.01400 0.03400
C 	C 	0.39760 0.20970 0.65580 0.32800
C 	C 	0.28310 0.22190 0.58930 -0.05100
C 	C 	0.29420 0.20280 0.52010 -0.05100
H 	H 	0.37110 0.18160 0.51460 0.07400
C 	C 	0.18880 0.21500 0.45630 0.03200
C 	C 	0.19630 0.19560 0.38460 -0.08400
H 	H 	0.27210 0.17400 0.37820 0.07600
C 	C 	0.09480 0.20770 0.32440 0.00700
H 	H 	0.10170 0.19430 0.27760 0.05100
C 	C 	0.97840 0.24090 0.33330 -0.05500
C 	C 	0.96880 0.26030 0.40170 -0.04500
H 	H 	0.89270 0.28230 0.40690 0.07000
C 	C 	0.07290 0.24780 0.46610 0.02800
C 	C 	0.06380 0.26740 0.53820 -0.08100
H 	H 	0.98810 0.28900 0.54470 0.07500
C 	C 	0.16630 0.25440 0.59790 0.00300
H 	H 	0.15920 0.26710 0.64490 0.05500
Zn	Zn	0.65157 0.34918 0.21394 1.24400
O 	O 	0.64320 0.47100 0.11630 -0.26700
O 	O 	0.76130 0.38423 0.15020 -0.43000
O 	O 	0.86940 0.26960 0.70520 -0.26000
O 	O 	0.77000 0.21089 0.77780 -0.42300
O 	O 	0.77250 0.44090 0.33990 -0.26800
O 	O 	0.57530 0.39920 0.28256 -0.42200
O 	O 	0.38380 0.27553 0.21850 -0.26500
O 	O 	0.50130 0.31534 0.14060 -0.43000
C 	C 	0.73650 0.43430 0.11320 0.33400
C 	C 	0.89940 0.40000 0.03650 0.00400
H 	H 	0.87750 0.35870 0.04440 0.05100
C 	C 	0.83330 0.44980 0.06500 -0.05400
C 	C 	0.86520 0.51030 0.05320 -0.04300
H 	H 	0.81940 0.54260 0.07050 0.06500
C 	C 	0.96760 0.52480 0.01450 0.03100
C 	C 	0.99520 0.41290 0.99750 -0.07500
H 	H 	0.03680 0.38000 0.97840 0.06800
C 	C 	0.86580 0.24550 0.76590 0.32900
C 	C 	0.64950 0.43190 0.33330 0.32000
C 	C 	0.63630 0.46240 0.46140 -0.04600
H 	H 	0.72310 0.44690 0.47800 0.06600
C 	C 	0.57720 0.46100 0.38730 -0.05000
C 	C 	0.44680 0.48530 0.36120 0.00700
H 	H 	0.40740 0.48380 0.31080 0.05200
C 	C 	0.37680 0.51150 0.40950 -0.08000
H 	H 	0.29180 0.52860 0.39170 0.07300
C 	C 	0.56510 0.48780 0.51400 0.03400
C 	C 	0.39760 0.29030 0.15580 0.32800
C 	C 	0.28310 0.27810 0.08930 -0.04900
C 	C 	0.29420 0.29720 0.02010 -0.05200
H 	H 	0.37110 0.31840 0.01460 0.07400
C 	C 	0.18880 0.28500 0.95630 0.03300
C 	C 	0.19630 0.30440 0.88460 -0.08500
H 	H 	0.27210 0.32600 0.87820 0.07600
C 	C 	0.09480 0.29230 0.82440 0.00700
H 	H 	0.10170 0.30570 0.77760 0.05100
C 	C 	0.97840 0.25910 0.83330 -0.05500
C 	C 	0.96880 0.23970 0.90170 -0.04300
H 	H 	0.89270 0.21770 0.90690 0.07000
C 	C 	0.07290 0.25220 0.96610 0.02500
C 	C 	0.06380 0.23260 0.03820 -0.07600
H 	H 	0.98810 0.21100 0.04470 0.07300
C 	C 	0.16630 0.24560 0.09790 0.00000
H 	H 	0.15920 0.23290 0.14490 0.05600
Zn	Zn	0.34843 0.84918 0.28606 1.24400
O 	O 	0.35680 0.97100 0.38370 -0.26700
O 	O 	0.23870 0.88423 0.34980 -0.43000
O 	O 	0.13060 0.76960 0.79480 -0.26000
O 	O 	0.23000 0.71089 0.72220 -0.42300
O 	O 	0.22750 0.94090 0.16010 -0.26800
O 	O 	0.42470 0.89920 0.21744 -0.42200
O 	O 	0.61620 0.77553 0.28150 -0.26500
O 	O 	0.49870 0.81534 0.35940 -0.43000
C 	C 	0.26350 0.93430 0.38680 0.33500
C 	C 	0.10060 0.90000 0.46350 0.00700
H 	H 	0.12250 0.85870 0.45560 0.05100
C 	C 	0.16670 0.94980 0.43500 -0.05400
C 	C 	0.13480 0.01030 0.44680 -0.04400
H 	H 	0.18060 0.04260 0.42950 0.06600
C 	C 	0.03240 0.02480 0.48550 0.03300
C 	C 	0.00480 0.91290 0.50250 -0.07900
H 	H 	0.96320 0.88000 0.52160 0.07000
C 	C 	0.13420 0.74550 0.73410 0.32900
C 	C 	0.35050 0.93190 0.16670 0.32000
C 	C 	0.36370 0.96240 0.03860 -0.04600
H 	H 	0.27690 0.94690 0.02200 0.06600
C 	C 	0.42280 0.96100 0.11270 -0.05000
C 	C 	0.55320 0.98530 0.13880 0.00700
H 	H 	0.59260 0.98380 0.18920 0.05200
C 	C 	0.62320 0.01150 0.09050 -0.08000
H 	H 	0.70820 0.02860 0.10830 0.07300
C 	C 	0.43490 0.98780 0.98600 0.03400
C 	C 	0.60240 0.79030 0.34420 0.32800
C 	C 	0.71690 0.77810 0.41070 -0.05100
C 	C 	0.70580 0.79720 0.47990 -0.05100
H 	H 	0.62890 0.81840 0.48540 0.07400
C 	C 	0.81120 0.78500 0.54370 0.03200
C 	C 	0.80370 0.80440 0.61540 -0.08400
H 	H 	0.72790 0.82600 0.62180 0.07600
C 	C 	0.90520 0.79230 0.67560 0.00700
H 	H 	0.89830 0.80570 0.72240 0.05100
C 	C 	0.02160 0.75910 0.66670 -0.05500
C 	C 	0.03120 0.73970 0.59830 -0.04500
H 	H 	0.10730 0.71770 0.59310 0.07000
C 	C 	0.92710 0.75220 0.53390 0.02800
C 	C 	0.93620 0.73260 0.46180 -0.08100
H 	H 	0.01190 0.71100 0.45530 0.07500
C 	C 	0.83370 0.74560 0.40210 0.00300
H 	H 	0.84080 0.73290 0.35510 0.05500
