data_crystal

_cell_length_a 11.80740
_cell_length_b 12.02870
_cell_length_c 12.58150
_cell_angle_alpha 77.50800
_cell_angle_beta  88.50500
_cell_angle_gamma 62.82300

_symmetry_space_group_name_	'P 1'
_symmetry_space_group_name_H-M	'P 1'

loop_
_symmetry_equiv_pos_as_xyz
  x,y,z

loop_
_atom_site_label
_atom_site_type_symbol
_atom_site_fract_x
_atom_site_fract_y
_atom_site_fract_z
_atom_site_charge
C 	C 	0.01650 0.65590 0.38980 0.16400
C 	C 	0.97210 0.69840 0.48620 -0.30300
H 	H 	0.90980 0.68150 0.52210 0.14900
C 	C 	0.02280 0.76460 0.52500 0.18500
C 	C 	0.11080 0.79630 0.47230 -0.14100
H 	H 	0.13820 0.84720 0.49850 0.10800
C 	C 	0.15930 0.75140 0.37850 0.02700
C 	C 	0.11290 0.68140 0.33560 -0.12200
H 	H 	0.14390 0.65190 0.27310 0.10300
C 	C 	0.96290 0.58170 0.34740 0.14100
C 	C 	0.97710 0.80520 0.63070 0.13000
C 	C 	0.26070 0.77640 0.32140 0.29900
C 	C 	0.62110 0.10010 0.17590 -0.12200
C 	C 	0.65070 0.18180 0.22420 0.06000
H 	H 	0.60520 0.21530 0.28080 0.03400
C 	C 	0.74690 0.21080 0.18670 -0.13700
C 	C 	0.80590 0.16960 0.09370 0.08300
H 	H 	0.86420 0.19720 0.06400 0.00900
C 	C 	0.78110 0.09140 0.04580 -0.16200
C 	C 	0.68490 0.05710 0.08960 0.07400
H 	H 	0.66550 0.00400 0.05810 0.02800
C 	C 	0.51730 0.06400 0.21740 0.35500
C 	C 	0.78140 0.29030 0.24140 0.35300
C 	C 	0.84680 0.05150 0.94950 0.37800
C 	C 	0.22320 0.14320 0.65500 0.23400
C 	C 	0.19090 0.11940 0.76180 -0.28500
H 	H 	0.11230 0.12200 0.77660 0.15400
C 	C 	0.27960 0.09220 0.84400 0.22700
C 	C 	0.39920 0.08870 0.82460 -0.26600
H 	H 	0.45610 0.07470 0.88170 0.14000
C 	C 	0.42860 0.10710 0.71580 0.22700
C 	C 	0.34100 0.13640 0.62850 -0.27600
H 	H 	0.36060 0.15070 0.55630 0.14100
C 	C 	0.11550 0.26340 0.47220 0.11000
H 	H 	0.16380 0.30700 0.45510 0.00500
C 	C 	0.98350 0.18630 0.45930 -0.16500
H 	H 	0.92330 0.16780 0.43180 0.08600
C 	C 	0.05090 0.12990 0.55740 0.15500
H 	H 	0.04270 0.06750 0.61040 -0.00900
C 	C 	0.35020 0.99140 0.04080 0.09400
H 	H 	0.43700 0.95220 0.03140 -0.00600
C 	C 	0.14090 0.10120 0.00300 -0.05200
H 	H 	0.06030 0.15090 0.96590 0.09500
C 	C 	0.16980 0.05130 0.11070 0.03900
H 	H 	0.11020 0.05980 0.16220 0.03400
C 	C 	0.65480 0.02320 0.76250 0.11700
H 	H 	0.65630 0.97470 0.83140 -0.00800
C 	C 	0.71230 0.11200 0.61840 0.00100
H 	H 	0.76180 0.13510 0.56850 0.02800
C 	C 	0.58840 0.15250 0.60570 0.02700
H 	H 	0.53540 0.21110 0.54480 0.03400
C 	C 	0.42720 0.74800 0.85330 0.21100
C 	C 	0.53340 0.69690 0.92810 -0.22800
H 	H 	0.52570 0.67480 0.00240 0.11000
C 	C 	0.65260 0.67900 0.89030 0.20700
C 	C 	0.66320 0.71340 0.77650 -0.26400
H 	H 	0.74230 0.69780 0.75050 0.14000
C 	C 	0.55410 0.77070 0.70440 0.22600
C 	C 	0.43520 0.79040 0.74340 -0.26400
H 	H 	0.36200 0.83200 0.69530 0.13100
C 	C 	0.20360 0.80000 0.82230 0.11600
H 	H 	0.20590 0.80510 0.74750 -0.00300
C 	C 	0.13870 0.80460 0.98300 0.03400
H 	H 	0.08530 0.81340 0.03950 0.03200
C 	C 	0.26640 0.77060 0.99420 0.03100
H 	H 	0.31590 0.75370 0.05760 0.03200
C 	C 	0.78160 0.54030 0.06300 0.10700
H 	H 	0.72820 0.50440 0.08840 -0.00500
C 	C 	0.85910 0.65790 0.95910 0.10900
H 	H 	0.87140 0.71420 0.90230 -0.02000
C 	C 	0.93440 0.58940 0.05280 -0.15800
H 	H 	0.00850 0.59160 0.07270 0.12100
C 	C 	0.48370 0.81860 0.51070 0.12400
H 	H 	0.41300 0.80380 0.52110 -0.00500
C 	C 	0.65380 0.83360 0.54530 0.00800
H 	H 	0.72240 0.83340 0.58020 0.03900
C 	C 	0.62430 0.86250 0.43330 0.01000
H 	H 	0.67030 0.88450 0.37900 0.03700
Cu	Cu	0.96266 0.39111 0.25823 0.88000
Cu	Cu	0.92878 0.91965 0.79521 0.88800
Cu	Cu	0.41290 0.90296 0.27391 0.90300
N 	N 	0.02060 0.27710 0.40670 -0.15700
N 	N 	0.13140 0.17790 0.56650 -0.18000
N 	N 	0.25840 0.06220 0.95960 -0.12900
N 	N 	0.30240 0.98440 0.13440 -0.21700
N 	N 	0.54960 0.09770 0.69220 -0.16200
N 	N 	0.75450 0.02940 0.71910 -0.21200
N 	N 	0.30480 0.76720 0.88930 -0.15800
N 	N 	0.10180 0.82390 0.87340 -0.20300
N 	N 	0.75860 0.62590 0.96590 -0.16500
N 	N 	0.88380 0.51500 0.11490 -0.20000
N 	N 	0.56200 0.80540 0.59450 -0.16600
N 	N 	0.51480 0.85270 0.41720 -0.21700
O 	O 	0.03060 0.50060 0.29490 -0.30400
O 	O 	0.84900 0.60490 0.36270 -0.24500
O 	O 	0.92040 0.75570 0.69160 -0.27900
O 	O 	0.00330 0.88770 0.65760 -0.29900
O 	O 	0.28960 0.85380 0.35160 -0.38500
O 	O 	0.31350 0.71910 0.24940 -0.27900
O 	O 	0.53140 0.96100 0.20050 -0.40900
O 	O 	0.42920 0.13780 0.26220 -0.30200
O 	O 	0.70720 0.35920 0.29600 -0.28700
O 	O 	0.89040 0.28450 0.21980 -0.41300
O 	O 	0.89280 0.10960 0.89030 -0.35100
O 	O 	0.85040 0.94780 0.93300 -0.40400
