data_crystal

_cell_length_a 18.81750
_cell_length_b 18.81750
_cell_length_c 19.04830
_cell_angle_alpha 90.00000
_cell_angle_beta  90.00000
_cell_angle_gamma 120.00000

_symmetry_space_group_name_	'P 1'
_symmetry_space_group_name_H-M	'P 1'

loop_
_symmetry_equiv_pos_as_xyz
  x,y,z

loop_
_atom_site_label
_atom_site_type_symbol
_atom_site_fract_x
_atom_site_fract_y
_atom_site_fract_z
_atom_site_charge
Cd	Cd	0.67081 0.05418 0.37694 1.19600
N 	N 	0.68890 0.06490 0.25837 -0.30800
N 	N 	0.57020 0.07140 0.33504 -0.33800
C 	C 	0.61940 0.05680 0.22524 -0.04100
C 	C 	0.73330 0.05490 0.20889 0.46700
C 	C 	0.55770 0.06400 0.26800 0.17400
H 	H 	0.52900 0.07500 0.36000 0.05800
C 	C 	0.62580 0.04090 0.15491 -0.04900
N 	N 	0.69800 0.04060 0.14545 -0.32200
C 	C 	0.81540 0.06450 0.22180 -1.44100
O 	O 	0.49690 0.06300 0.23535 -0.43500
C 	C 	0.57240 0.02380 0.09151 0.23100
H 	H 	0.82700 0.04700 0.18700 0.57100
H 	H 	0.81900 0.04100 0.26100 0.49800
H 	H 	0.87800 0.13200 0.22500 0.21200
O 	O 	0.59590 0.00830 0.03460 -0.41000
N 	N 	0.50410 0.02500 0.09720 -0.35400
H 	H 	0.47500 0.00300 0.14000 0.11600
H 	H 	0.47200 0.00700 0.06700 0.19100
Cd	Cd	0.33748 0.38751 0.71027 1.19500
N 	N 	0.35557 0.39823 0.59170 -0.30900
N 	N 	0.23687 0.40473 0.66837 -0.33900
C 	C 	0.28607 0.39013 0.55857 -0.04200
C 	C 	0.39997 0.38823 0.54222 0.46200
C 	C 	0.22437 0.39733 0.60133 0.17200
H 	H 	0.19567 0.40833 0.69333 0.05800
C 	C 	0.29247 0.37423 0.48824 -0.05000
N 	N 	0.36467 0.37393 0.47878 -0.32200
C 	C 	0.48207 0.39783 0.55513 -1.43200
O 	O 	0.16357 0.39633 0.56868 -0.43500
C 	C 	0.23907 0.35713 0.42484 0.23100
H 	H 	0.49367 0.38033 0.52033 0.56600
H 	H 	0.48567 0.37433 0.59433 0.49400
H 	H 	0.54467 0.46533 0.55833 0.21000
O 	O 	0.26257 0.34163 0.36793 -0.41200
N 	N 	0.17077 0.35833 0.43053 -0.35400
H 	H 	0.14167 0.33633 0.47333 0.11500
H 	H 	0.13867 0.34033 0.40033 0.19100
Cd	Cd	0.00414 0.72085 0.04361 1.19300
N 	N 	0.02223 0.73157 0.92504 -0.30600
N 	N 	0.90353 0.73807 0.00171 -0.33800
C 	C 	0.95273 0.72347 0.89191 -0.04500
C 	C 	0.06663 0.72157 0.87556 0.46400
C 	C 	0.89103 0.73067 0.93467 0.17100
H 	H 	0.86233 0.74167 0.02667 0.05800
C 	C 	0.95913 0.70757 0.82158 -0.05200
N 	N 	0.03133 0.70727 0.81212 -0.32100
C 	C 	0.14873 0.73117 0.88847 -1.43400
O 	O 	0.83023 0.72967 0.90202 -0.43500
C 	C 	0.90573 0.69047 0.75818 0.23100
H 	H 	0.16033 0.71367 0.85367 0.56700
H 	H 	0.15233 0.70767 0.92767 0.49500
H 	H 	0.21133 0.79867 0.89167 0.21100
O 	O 	0.92923 0.67497 0.70127 -0.41300
N 	N 	0.83743 0.69167 0.76387 -0.35400
H 	H 	0.80833 0.66967 0.80667 0.11500
H 	H 	0.80533 0.67367 0.73367 0.19100
Cd	Cd	0.94582 0.61663 0.37694 1.19500
N 	N 	0.93510 0.62400 0.25837 -0.30900
N 	N 	0.92860 0.49880 0.33504 -0.33900
C 	C 	0.94320 0.56260 0.22524 -0.04200
C 	C 	0.94510 0.67840 0.20889 0.46400
C 	C 	0.93600 0.49370 0.26800 0.17300
H 	H 	0.92500 0.45400 0.36000 0.05800
C 	C 	0.95910 0.58490 0.15491 -0.05000
N 	N 	0.95940 0.65740 0.14545 -0.32200
C 	C 	0.93550 0.75090 0.22180 -1.43600
O 	O 	0.93700 0.43390 0.23535 -0.43500
C 	C 	0.97620 0.54860 0.09151 0.23200
H 	H 	0.95300 0.78000 0.18700 0.56800
H 	H 	0.95900 0.77800 0.26100 0.49600
H 	H 	0.86800 0.74600 0.22500 0.21000
O 	O 	0.99170 0.58760 0.03460 -0.41100
N 	N 	0.97500 0.47910 0.09720 -0.35500
H 	H 	0.99700 0.47200 0.14000 0.11600
H 	H 	0.99300 0.46500 0.06700 0.19200
Cd	Cd	0.61249 0.94996 0.71027 1.19500
N 	N 	0.60177 0.95733 0.59170 -0.30900
N 	N 	0.59527 0.83213 0.66837 -0.33900
C 	C 	0.60987 0.89593 0.55857 -0.04200
C 	C 	0.61177 0.01173 0.54222 0.46200
C 	C 	0.60267 0.82703 0.60133 0.17200
H 	H 	0.59167 0.78733 0.69333 0.05800
C 	C 	0.62577 0.91823 0.48824 -0.05000
N 	N 	0.62607 0.99073 0.47878 -0.32200
C 	C 	0.60217 0.08423 0.55513 -1.43100
O 	O 	0.60367 0.76723 0.56868 -0.43500
C 	C 	0.64287 0.88193 0.42484 0.23100
H 	H 	0.61967 0.11333 0.52033 0.56500
H 	H 	0.62567 0.11133 0.59433 0.49300
H 	H 	0.53467 0.07933 0.55833 0.20900
O 	O 	0.65837 0.92093 0.36793 -0.41200
N 	N 	0.64167 0.81243 0.43053 -0.35400
H 	H 	0.66367 0.80533 0.47333 0.11500
H 	H 	0.65967 0.79833 0.40033 0.19100
Cd	Cd	0.27915 0.28330 0.04361 1.19500
N 	N 	0.26843 0.29067 0.92504 -0.30900
N 	N 	0.26193 0.16547 0.00171 -0.33800
C 	C 	0.27653 0.22927 0.89191 -0.04200
C 	C 	0.27843 0.34507 0.87556 0.46300
C 	C 	0.26933 0.16037 0.93467 0.17200
H 	H 	0.25833 0.12067 0.02667 0.05800
C 	C 	0.29243 0.25157 0.82158 -0.05000
N 	N 	0.29273 0.32407 0.81212 -0.32200
C 	C 	0.26883 0.41757 0.88847 -1.43300
O 	O 	0.27033 0.10057 0.90202 -0.43600
C 	C 	0.30953 0.21527 0.75818 0.23100
H 	H 	0.28633 0.44667 0.85367 0.56600
H 	H 	0.29233 0.44467 0.92767 0.49400
H 	H 	0.20133 0.41267 0.89167 0.21000
O 	O 	0.32503 0.25427 0.70127 -0.41200
N 	N 	0.30833 0.14577 0.76387 -0.35400
H 	H 	0.33033 0.13867 0.80667 0.11400
H 	H 	0.32633 0.13167 0.73367 0.19000
Cd	Cd	0.38337 0.32919 0.37694 1.19500
N 	N 	0.37600 0.31110 0.25837 -0.30900
N 	N 	0.50120 0.42980 0.33504 -0.33900
C 	C 	0.43740 0.38060 0.22524 -0.04200
C 	C 	0.32160 0.26670 0.20889 0.46300
C 	C 	0.50630 0.44230 0.26800 0.17200
H 	H 	0.54600 0.47100 0.36000 0.05800
C 	C 	0.41510 0.37420 0.15491 -0.05000
N 	N 	0.34260 0.30200 0.14545 -0.32200
C 	C 	0.24910 0.18460 0.22180 -1.43300
O 	O 	0.56610 0.50310 0.23535 -0.43500
C 	C 	0.45140 0.42760 0.09151 0.23100
H 	H 	0.22000 0.17300 0.18700 0.56600
H 	H 	0.22200 0.18100 0.26100 0.49400
H 	H 	0.25400 0.12200 0.22500 0.21000
O 	O 	0.41240 0.40410 0.03460 -0.41200
N 	N 	0.52090 0.49590 0.09720 -0.35400
H 	H 	0.52800 0.52500 0.14000 0.11500
H 	H 	0.53500 0.52800 0.06700 0.19100
Cd	Cd	0.05004 0.66252 0.71027 1.19500
N 	N 	0.04267 0.64443 0.59170 -0.30800
N 	N 	0.16787 0.76313 0.66837 -0.33900
C 	C 	0.10407 0.71393 0.55857 -0.04200
C 	C 	0.98827 0.60003 0.54222 0.46100
C 	C 	0.17297 0.77563 0.60133 0.17300
H 	H 	0.21267 0.80433 0.69333 0.05800
C 	C 	0.08177 0.70753 0.48824 -0.05000
N 	N 	0.00927 0.63533 0.47878 -0.32200
C 	C 	0.91577 0.51793 0.55513 -1.43000
O 	O 	0.23277 0.83643 0.56868 -0.43500
C 	C 	0.11807 0.76093 0.42484 0.23100
H 	H 	0.88667 0.50633 0.52033 0.56500
H 	H 	0.88867 0.51433 0.59433 0.49300
H 	H 	0.92067 0.45533 0.55833 0.20900
O 	O 	0.07907 0.73743 0.36793 -0.41200
N 	N 	0.18757 0.82923 0.43053 -0.35400
H 	H 	0.19467 0.85833 0.47333 0.11500
H 	H 	0.20167 0.86133 0.40033 0.19100
Cd	Cd	0.71670 0.99586 0.04361 1.19300
N 	N 	0.70933 0.97777 0.92504 -0.30700
N 	N 	0.83453 0.09647 0.00171 -0.33400
C 	C 	0.77073 0.04727 0.89191 -0.04400
C 	C 	0.65493 0.93337 0.87556 0.46300
C 	C 	0.83963 0.10897 0.93467 0.16600
H 	H 	0.87933 0.13767 0.02667 0.05900
C 	C 	0.74843 0.04087 0.82158 -0.05200
N 	N 	0.67593 0.96867 0.81212 -0.32100
C 	C 	0.58243 0.85127 0.88847 -1.43300
O 	O 	0.89943 0.16977 0.90202 -0.43600
C 	C 	0.78473 0.09427 0.75818 0.23100
H 	H 	0.55333 0.83967 0.85367 0.56600
H 	H 	0.55533 0.84767 0.92767 0.49500
H 	H 	0.58733 0.78867 0.89167 0.21000
O 	O 	0.74573 0.07077 0.70127 -0.41300
N 	N 	0.85423 0.16257 0.76387 -0.35400
H 	H 	0.86133 0.19167 0.80667 0.11400
H 	H 	0.86833 0.19467 0.73367 0.19000
Cd	Cd	0.32919 0.94582 0.62306 1.19500
N 	N 	0.31110 0.93510 0.74163 -0.30900
N 	N 	0.42980 0.92860 0.66496 -0.33900
C 	C 	0.38060 0.94320 0.77476 -0.04200
C 	C 	0.26670 0.94510 0.79111 0.46600
C 	C 	0.44230 0.93600 0.73200 0.17300
H 	H 	0.47100 0.92500 0.64000 0.05800
C 	C 	0.37420 0.95910 0.84509 -0.04900
N 	N 	0.30200 0.95940 0.85455 -0.32200
C 	C 	0.18460 0.93550 0.77820 -1.44100
O 	O 	0.50310 0.93700 0.76465 -0.43500
C 	C 	0.42760 0.97620 0.90849 0.23100
H 	H 	0.17300 0.95300 0.81300 0.57100
H 	H 	0.18100 0.95900 0.73900 0.49800
H 	H 	0.12200 0.86800 0.77500 0.21200
O 	O 	0.40410 0.99170 0.96540 -0.41000
N 	N 	0.49590 0.97500 0.90280 -0.35400
H 	H 	0.52500 0.99700 0.86000 0.11600
H 	H 	0.52800 0.99300 0.93300 0.19100
Cd	Cd	0.99586 0.27915 0.95639 1.19300
N 	N 	0.97777 0.26843 0.07496 -0.30600
N 	N 	0.09647 0.26193 0.99829 -0.33800
C 	C 	0.04727 0.27653 0.10809 -0.04500
C 	C 	0.93337 0.27843 0.12444 0.46400
C 	C 	0.10897 0.26933 0.06533 0.17100
H 	H 	0.13767 0.25833 0.97333 0.05800
C 	C 	0.04087 0.29243 0.17842 -0.05200
N 	N 	0.96867 0.29273 0.18788 -0.32100
C 	C 	0.85127 0.26883 0.11153 -1.43400
O 	O 	0.16977 0.27033 0.09798 -0.43500
C 	C 	0.09427 0.30953 0.24182 0.23100
H 	H 	0.83967 0.28633 0.14633 0.56700
H 	H 	0.84767 0.29233 0.07233 0.49500
H 	H 	0.78867 0.20133 0.10833 0.21100
O 	O 	0.07077 0.32503 0.29873 -0.41300
N 	N 	0.16257 0.30833 0.23613 -0.35400
H 	H 	0.19167 0.33033 0.19333 0.11500
H 	H 	0.19467 0.32633 0.26633 0.19100
Cd	Cd	0.66252 0.61249 0.28973 1.19500
N 	N 	0.64443 0.60177 0.40830 -0.30900
N 	N 	0.76313 0.59527 0.33163 -0.33900
C 	C 	0.71393 0.60987 0.44143 -0.04200
C 	C 	0.60003 0.61177 0.45778 0.46200
C 	C 	0.77563 0.60267 0.39867 0.17200
H 	H 	0.80433 0.59167 0.30667 0.05800
C 	C 	0.70753 0.62577 0.51176 -0.05000
N 	N 	0.63533 0.62607 0.52122 -0.32200
C 	C 	0.51793 0.60217 0.44487 -1.43200
O 	O 	0.83643 0.60367 0.43132 -0.43500
C 	C 	0.76093 0.64287 0.57516 0.23100
H 	H 	0.50633 0.61967 0.47967 0.56600
H 	H 	0.51433 0.62567 0.40567 0.49400
H 	H 	0.45533 0.53467 0.44167 0.21000
O 	O 	0.73743 0.65837 0.63207 -0.41200
N 	N 	0.82923 0.64167 0.56947 -0.35400
H 	H 	0.85833 0.66367 0.52667 0.11500
H 	H 	0.86133 0.65967 0.59967 0.19100
Cd	Cd	0.05418 0.38337 0.62306 1.19500
N 	N 	0.06490 0.37600 0.74163 -0.30900
N 	N 	0.07140 0.50120 0.66496 -0.33900
C 	C 	0.05680 0.43740 0.77476 -0.04200
C 	C 	0.05490 0.32160 0.79111 0.46400
C 	C 	0.06400 0.50630 0.73200 0.17300
H 	H 	0.07500 0.54600 0.64000 0.05800
C 	C 	0.04090 0.41510 0.84509 -0.05000
N 	N 	0.04060 0.34260 0.85455 -0.32200
C 	C 	0.06450 0.24910 0.77820 -1.43600
O 	O 	0.06300 0.56610 0.76465 -0.43500
C 	C 	0.02380 0.45140 0.90849 0.23200
H 	H 	0.04700 0.22000 0.81300 0.56800
H 	H 	0.04100 0.22200 0.73900 0.49600
H 	H 	0.13200 0.25400 0.77500 0.21000
O 	O 	0.00830 0.41240 0.96540 -0.41100
N 	N 	0.02500 0.52090 0.90280 -0.35500
H 	H 	0.00300 0.52800 0.86000 0.11600
H 	H 	0.00700 0.53500 0.93300 0.19200
Cd	Cd	0.72085 0.71670 0.95639 1.19500
N 	N 	0.73157 0.70933 0.07496 -0.30900
N 	N 	0.73807 0.83453 0.99829 -0.33800
C 	C 	0.72347 0.77073 0.10809 -0.04200
C 	C 	0.72157 0.65493 0.12444 0.46300
C 	C 	0.73067 0.83963 0.06533 0.17200
H 	H 	0.74167 0.87933 0.97333 0.05800
C 	C 	0.70757 0.74843 0.17842 -0.05000
N 	N 	0.70727 0.67593 0.18788 -0.32200
C 	C 	0.73117 0.58243 0.11153 -1.43300
O 	O 	0.72967 0.89943 0.09798 -0.43600
C 	C 	0.69047 0.78473 0.24182 0.23100
H 	H 	0.71367 0.55333 0.14633 0.56600
H 	H 	0.70767 0.55533 0.07233 0.49400
H 	H 	0.79867 0.58733 0.10833 0.21000
O 	O 	0.67497 0.74573 0.29873 -0.41200
N 	N 	0.69167 0.85423 0.23613 -0.35400
H 	H 	0.66967 0.86133 0.19333 0.11400
H 	H 	0.67367 0.86833 0.26633 0.19000
Cd	Cd	0.38751 0.05004 0.28973 1.19500
N 	N 	0.39823 0.04267 0.40830 -0.30900
N 	N 	0.40473 0.16787 0.33163 -0.33900
C 	C 	0.39013 0.10407 0.44143 -0.04200
C 	C 	0.38823 0.98827 0.45778 0.46200
C 	C 	0.39733 0.17297 0.39867 0.17200
H 	H 	0.40833 0.21267 0.30667 0.05800
C 	C 	0.37423 0.08177 0.51176 -0.05000
N 	N 	0.37393 0.00927 0.52122 -0.32200
C 	C 	0.39783 0.91577 0.44487 -1.43100
O 	O 	0.39633 0.23277 0.43132 -0.43500
C 	C 	0.35713 0.11807 0.57516 0.23100
H 	H 	0.38033 0.88667 0.47967 0.56500
H 	H 	0.37433 0.88867 0.40567 0.49300
H 	H 	0.46533 0.92067 0.44167 0.20900
O 	O 	0.34163 0.07907 0.63207 -0.41200
N 	N 	0.35833 0.18757 0.56947 -0.35400
H 	H 	0.33633 0.19467 0.52667 0.11500
H 	H 	0.34033 0.20167 0.59967 0.19100
Cd	Cd	0.61663 0.67081 0.62306 1.19500
N 	N 	0.62400 0.68890 0.74163 -0.30900
N 	N 	0.49880 0.57020 0.66496 -0.33900
C 	C 	0.56260 0.61940 0.77476 -0.04200
C 	C 	0.67840 0.73330 0.79111 0.46300
C 	C 	0.49370 0.55770 0.73200 0.17200
H 	H 	0.45400 0.52900 0.64000 0.05800
C 	C 	0.58490 0.62580 0.84509 -0.05000
N 	N 	0.65740 0.69800 0.85455 -0.32200
C 	C 	0.75090 0.81540 0.77820 -1.43300
O 	O 	0.43390 0.49690 0.76465 -0.43500
C 	C 	0.54860 0.57240 0.90849 0.23100
H 	H 	0.78000 0.82700 0.81300 0.56600
H 	H 	0.77800 0.81900 0.73900 0.49400
H 	H 	0.74600 0.87800 0.77500 0.21000
O 	O 	0.58760 0.59590 0.96540 -0.41200
N 	N 	0.47910 0.50410 0.90280 -0.35400
H 	H 	0.47200 0.47500 0.86000 0.11500
H 	H 	0.46500 0.47200 0.93300 0.19100
Cd	Cd	0.28330 0.00414 0.95639 1.19300
N 	N 	0.29067 0.02223 0.07496 -0.30700
N 	N 	0.16547 0.90353 0.99829 -0.33400
C 	C 	0.22927 0.95273 0.10809 -0.04400
C 	C 	0.34507 0.06663 0.12444 0.46300
C 	C 	0.16037 0.89103 0.06533 0.16600
H 	H 	0.12067 0.86233 0.97333 0.05900
C 	C 	0.25157 0.95913 0.17842 -0.05200
N 	N 	0.32407 0.03133 0.18788 -0.32100
C 	C 	0.41757 0.14873 0.11153 -1.43300
O 	O 	0.10057 0.83023 0.09798 -0.43600
C 	C 	0.21527 0.90573 0.24182 0.23100
H 	H 	0.44667 0.16033 0.14633 0.56600
H 	H 	0.44467 0.15233 0.07233 0.49500
H 	H 	0.41267 0.21133 0.10833 0.21000
O 	O 	0.25427 0.92923 0.29873 -0.41300
N 	N 	0.14577 0.83743 0.23613 -0.35400
H 	H 	0.13867 0.80833 0.19333 0.11400
H 	H 	0.13167 0.80533 0.26633 0.19000
Cd	Cd	0.94996 0.33748 0.28973 1.19500
N 	N 	0.95733 0.35557 0.40830 -0.30800
N 	N 	0.83213 0.23687 0.33163 -0.33900
C 	C 	0.89593 0.28607 0.44143 -0.04200
C 	C 	0.01173 0.39997 0.45778 0.46100
C 	C 	0.82703 0.22437 0.39867 0.17300
H 	H 	0.78733 0.19567 0.30667 0.05800
C 	C 	0.91823 0.29247 0.51176 -0.05000
N 	N 	0.99073 0.36467 0.52122 -0.32200
C 	C 	0.08423 0.48207 0.44487 -1.43000
O 	O 	0.76723 0.16357 0.43132 -0.43500
C 	C 	0.88193 0.23907 0.57516 0.23100
H 	H 	0.11333 0.49367 0.47967 0.56500
H 	H 	0.11133 0.48567 0.40567 0.49300
H 	H 	0.07933 0.54467 0.44167 0.20900
O 	O 	0.92093 0.26257 0.63207 -0.41200
N 	N 	0.81243 0.17077 0.56947 -0.35400
H 	H 	0.80533 0.14167 0.52667 0.11500
H 	H 	0.79833 0.13867 0.59967 0.19100
