data_crystal

_cell_length_a 9.97400
_cell_length_b 9.18040
_cell_length_c 27.53850
_cell_angle_alpha 90.00000
_cell_angle_beta  90.00000
_cell_angle_gamma 90.00000

_symmetry_space_group_name_	'P 1'
_symmetry_space_group_name_H-M	'P 1'

loop_
_symmetry_equiv_pos_as_xyz
  x,y,z

loop_
_atom_site_label
_atom_site_type_symbol
_atom_site_fract_x
_atom_site_fract_y
_atom_site_fract_z
_atom_site_charge
Zn	Zn	0.62128 0.32750 0.05796 1.24600
Zn	Zn	0.43416 0.67979 0.96054 1.24600
P 	P 	0.72228 0.57882 0.98473 0.57800
P 	P 	0.32699 0.41845 0.03494 0.59000
O 	O 	0.62160 0.69980 0.97481 -0.45900
O 	O 	0.69920 0.50250 0.03279 -0.43000
O 	O 	0.86480 0.63380 0.98406 -0.40200
O 	O 	0.70690 0.45940 0.94419 -0.46600
H 	H 	0.66470 0.49330 0.92120 0.29000
O 	O 	0.43830 0.30560 0.04014 -0.45700
O 	O 	0.19140 0.35130 0.02861 -0.41300
O 	O 	0.34960 0.52130 0.99314 -0.43400
O 	O 	0.32470 0.51300 0.08314 -0.46400
H 	H 	0.31260 0.45950 0.10660 0.29300
O 	O 	0.63230 0.36050 0.12794 -0.44500
O 	O 	0.60590 0.34500 0.39213 -0.44400
O 	O 	0.77980 0.19660 0.15260 -0.30300
O 	O 	0.42380 0.45850 0.36508 -0.30100
C 	C 	0.69550 0.29530 0.16010 0.36200
C 	C 	0.66320 0.33490 0.21210 -0.06600
C 	C 	0.72970 0.27060 0.25010 -0.00900
H 	H 	0.80040 0.20760 0.24350 0.05600
C 	C 	0.69470 0.29660 0.29740 -0.02300
H 	H 	0.74450 0.25580 0.32260 0.06800
C 	C 	0.58590 0.38340 0.30770 -0.05500
C 	C 	0.51840 0.45190 0.26980 -0.02600
H 	H 	0.44700 0.51390 0.27650 0.06400
C 	C 	0.55760 0.42790 0.22270 -0.01000
H 	H 	0.51260 0.47460 0.19750 0.06500
C 	C 	0.53390 0.39890 0.35890 0.34900
Zn	Zn	0.37872 0.67250 0.55796 1.24700
Zn	Zn	0.56584 0.32021 0.46054 1.24700
P 	P 	0.27772 0.42118 0.48473 0.57800
P 	P 	0.67301 0.58155 0.53494 0.59100
O 	O 	0.37840 0.30020 0.47481 -0.45900
O 	O 	0.30080 0.49750 0.53279 -0.43000
O 	O 	0.13520 0.36620 0.48406 -0.40200
O 	O 	0.29310 0.54060 0.44419 -0.46600
H 	H 	0.33530 0.50670 0.42120 0.29000
O 	O 	0.56170 0.69440 0.54014 -0.45700
O 	O 	0.80860 0.64870 0.52861 -0.41200
O 	O 	0.65040 0.47870 0.49314 -0.43500
O 	O 	0.67530 0.48700 0.58314 -0.46400
H 	H 	0.68740 0.54050 0.60660 0.29300
O 	O 	0.36770 0.63950 0.62794 -0.44500
O 	O 	0.39410 0.65500 0.89213 -0.44400
O 	O 	0.22020 0.80340 0.65260 -0.30300
O 	O 	0.57620 0.54150 0.86508 -0.30100
C 	C 	0.30450 0.70470 0.66010 0.36200
C 	C 	0.33680 0.66510 0.71210 -0.06600
C 	C 	0.27030 0.72940 0.75010 -0.00900
H 	H 	0.19960 0.79240 0.74350 0.05600
C 	C 	0.30530 0.70340 0.79740 -0.02300
H 	H 	0.25550 0.74420 0.82260 0.06800
C 	C 	0.41410 0.61660 0.80770 -0.05500
C 	C 	0.48160 0.54810 0.76980 -0.02600
H 	H 	0.55300 0.48610 0.77650 0.06400
C 	C 	0.44240 0.57210 0.72270 -0.01000
H 	H 	0.48740 0.52540 0.69750 0.06500
C 	C 	0.46610 0.60110 0.85890 0.34900
Zn	Zn	0.12128 0.17250 0.05796 1.24600
Zn	Zn	0.93416 0.82021 0.96054 1.24600
P 	P 	0.22228 0.92118 0.98473 0.58000
P 	P 	0.82699 0.08155 0.03494 0.58500
O 	O 	0.12160 0.80020 0.97481 -0.45800
O 	O 	0.19920 0.99750 0.03279 -0.42600
O 	O 	0.36480 0.86620 0.98406 -0.40100
O 	O 	0.20690 0.04060 0.94419 -0.46800
H 	H 	0.16470 0.00670 0.92120 0.28900
O 	O 	0.93830 0.19440 0.04014 -0.45500
O 	O 	0.69140 0.14870 0.02861 -0.41300
O 	O 	0.84960 0.97870 0.99314 -0.43300
O 	O 	0.82470 0.98700 0.08314 -0.45500
H 	H 	0.81260 0.04050 0.10660 0.28800
O 	O 	0.13230 0.13950 0.12794 -0.44800
O 	O 	0.10590 0.15500 0.39213 -0.44200
O 	O 	0.27980 0.30340 0.15260 -0.30500
O 	O 	0.92380 0.04150 0.36508 -0.29400
C 	C 	0.19550 0.20470 0.16010 0.36500
C 	C 	0.16320 0.16510 0.21210 -0.07400
C 	C 	0.22970 0.22940 0.25010 -0.00100
H 	H 	0.30040 0.29240 0.24350 0.05200
C 	C 	0.19470 0.20340 0.29740 -0.03200
H 	H 	0.24450 0.24420 0.32260 0.07000
C 	C 	0.08590 0.11660 0.30770 -0.04500
C 	C 	0.01840 0.04810 0.26980 -0.04400
H 	H 	0.94700 0.98610 0.27650 0.07200
C 	C 	0.05760 0.07210 0.22270 0.00100
H 	H 	0.01260 0.02540 0.19750 0.05900
C 	C 	0.03390 0.10110 0.35890 0.34000
Zn	Zn	0.87872 0.82750 0.55796 1.24600
Zn	Zn	0.06584 0.17979 0.46054 1.24600
P 	P 	0.77772 0.07882 0.48473 0.58100
P 	P 	0.17301 0.91845 0.53494 0.58600
O 	O 	0.87840 0.19980 0.47481 -0.45800
O 	O 	0.80080 0.00250 0.53279 -0.42600
O 	O 	0.63520 0.13380 0.48406 -0.40100
O 	O 	0.79310 0.95940 0.44419 -0.47000
H 	H 	0.83530 0.99330 0.42120 0.28900
O 	O 	0.06170 0.80560 0.54014 -0.45500
O 	O 	0.30860 0.85130 0.52861 -0.41200
O 	O 	0.15040 0.02130 0.49314 -0.43300
O 	O 	0.17530 0.01300 0.58314 -0.45600
H 	H 	0.18740 0.95950 0.60660 0.28800
O 	O 	0.86770 0.86050 0.62794 -0.44800
O 	O 	0.89410 0.84500 0.89213 -0.44200
O 	O 	0.72020 0.69660 0.65260 -0.30500
O 	O 	0.07620 0.95850 0.86508 -0.29400
C 	C 	0.80450 0.79530 0.66010 0.36500
C 	C 	0.83680 0.83490 0.71210 -0.07500
C 	C 	0.77030 0.77060 0.75010 -0.00000
H 	H 	0.69960 0.70760 0.74350 0.05200
C 	C 	0.80530 0.79660 0.79740 -0.03300
H 	H 	0.75550 0.75580 0.82260 0.07000
C 	C 	0.91410 0.88340 0.80770 -0.04500
C 	C 	0.98160 0.95190 0.76980 -0.04500
H 	H 	0.05300 0.01390 0.77650 0.07200
C 	C 	0.94240 0.92790 0.72270 0.00200
H 	H 	0.98740 0.97460 0.69750 0.05900
C 	C 	0.96610 0.89890 0.85890 0.34000
