data_crystal

_cell_length_a 27.62130
_cell_length_b 9.11890
_cell_length_c 9.99540
_cell_angle_alpha 90.00000
_cell_angle_beta  92.21100
_cell_angle_gamma 90.00000

_symmetry_space_group_name_	'P 1'
_symmetry_space_group_name_H-M	'P 1'

loop_
_symmetry_equiv_pos_as_xyz
  x,y,z

loop_
_atom_site_label
_atom_site_type_symbol
_atom_site_fract_x
_atom_site_fract_y
_atom_site_fract_z
_atom_site_charge
Zn	Zn	0.04954 0.32200 0.09595 1.24300
Zn	Zn	0.45165 0.32169 0.08788 1.24000
P 	P 	0.02663 0.41946 0.80461 0.55800
P 	P 	0.47664 0.42296 0.80132 0.57700
O 	O 	0.03338 0.29710 0.90510 -0.44500
O 	O 	0.02171 0.35720 0.66210 -0.40400
O 	O 	0.98362 0.51480 0.82820 -0.43400
O 	O 	0.07394 0.51890 0.81320 -0.36700
O 	O 	0.46738 0.30290 0.90120 -0.45900
O 	O 	0.52475 0.50100 0.82630 -0.43500
O 	O 	0.43551 0.54140 0.81130 -0.47500
O 	O 	0.47657 0.36260 0.65930 -0.40000
O 	O 	0.11821 0.36680 0.11960 -0.44300
O 	O 	0.14355 0.19440 0.26430 -0.29700
O 	O 	0.35655 0.45990 0.93420 -0.28900
O 	O 	0.38197 0.33400 0.11550 -0.43300
C 	C 	0.20219 0.33480 0.15450 -0.04600
C 	C 	0.24007 0.26620 0.22680 -0.04000
C 	C 	0.21277 0.42940 0.05130 -0.02600
C 	C 	0.28789 0.29060 0.19320 0.00500
C 	C 	0.26060 0.45270 0.01810 -0.00200
C 	C 	0.29827 0.38070 0.08690 -0.06700
C 	C 	0.34974 0.39440 0.03940 0.34100
C 	C 	0.15037 0.29530 0.18400 0.34800
H 	H 	0.26880 0.52190 0.93740 0.05500
H 	H 	0.18950 0.48960 0.00420 0.06700
H 	H 	0.23360 0.21170 0.29890 0.06800
H 	H 	0.31480 0.23320 0.24050 0.06000
H 	H 	0.09900 0.45090 0.82390 0.20800
H 	H 	0.42030 0.53130 0.87740 0.28900
Zn	Zn	0.95046 0.82200 0.40405 1.24500
Zn	Zn	0.54835 0.82169 0.41212 1.24200
P 	P 	0.97337 0.91946 0.69539 0.55500
P 	P 	0.52336 0.92296 0.69868 0.57600
O 	O 	0.96662 0.79710 0.59490 -0.44600
O 	O 	0.97829 0.85720 0.83790 -0.40500
O 	O 	0.01638 0.01480 0.67180 -0.43300
O 	O 	0.92606 0.01890 0.68680 -0.36300
O 	O 	0.53262 0.80290 0.59880 -0.46000
O 	O 	0.47525 0.00100 0.67370 -0.43400
O 	O 	0.56449 0.04140 0.68870 -0.47300
O 	O 	0.52343 0.86260 0.84070 -0.40100
O 	O 	0.88179 0.86680 0.38040 -0.44300
O 	O 	0.85645 0.69440 0.23570 -0.29600
O 	O 	0.64345 0.95990 0.56580 -0.29200
O 	O 	0.61803 0.83400 0.38450 -0.43300
C 	C 	0.79781 0.83480 0.34550 -0.04500
C 	C 	0.75993 0.76620 0.27320 -0.04000
C 	C 	0.78723 0.92940 0.44870 -0.02600
C 	C 	0.71211 0.79060 0.30680 0.00600
C 	C 	0.73940 0.95270 0.48190 -0.00200
C 	C 	0.70173 0.88070 0.41310 -0.06800
C 	C 	0.65026 0.89440 0.46060 0.34400
C 	C 	0.84963 0.79530 0.31600 0.34800
H 	H 	0.73120 0.02190 0.56260 0.05500
H 	H 	0.81050 0.98960 0.49580 0.06700
H 	H 	0.76640 0.71170 0.20110 0.06900
H 	H 	0.68520 0.73320 0.25950 0.06100
H 	H 	0.90100 0.95090 0.67610 0.20500
H 	H 	0.57970 0.03130 0.62260 0.28800
Zn	Zn	0.95046 0.67800 0.90405 1.24400
Zn	Zn	0.54835 0.67831 0.91212 1.24100
P 	P 	0.97337 0.58054 0.19539 0.55900
P 	P 	0.52336 0.57704 0.19868 0.57800
O 	O 	0.96662 0.70290 0.09490 -0.44500
O 	O 	0.97829 0.64280 0.33790 -0.40400
O 	O 	0.01638 0.48520 0.17180 -0.43400
O 	O 	0.92606 0.48110 0.18680 -0.36700
O 	O 	0.53262 0.69710 0.09880 -0.45900
O 	O 	0.47525 0.49900 0.17370 -0.43500
O 	O 	0.56449 0.45860 0.18870 -0.47500
O 	O 	0.52343 0.63740 0.34070 -0.40000
O 	O 	0.88179 0.63320 0.88040 -0.44300
O 	O 	0.85645 0.80560 0.73570 -0.29700
O 	O 	0.64345 0.54010 0.06580 -0.28900
O 	O 	0.61803 0.66600 0.88450 -0.43300
C 	C 	0.79781 0.66520 0.84550 -0.04600
C 	C 	0.75993 0.73380 0.77320 -0.04000
C 	C 	0.78723 0.57060 0.94870 -0.02600
C 	C 	0.71211 0.70940 0.80680 0.00500
C 	C 	0.73940 0.54730 0.98190 -0.00200
C 	C 	0.70173 0.61930 0.91310 -0.06700
C 	C 	0.65026 0.60560 0.96060 0.34100
C 	C 	0.84963 0.70470 0.81600 0.34800
H 	H 	0.73120 0.47810 0.06260 0.05500
H 	H 	0.81050 0.51040 0.99580 0.06700
H 	H 	0.76640 0.78830 0.70110 0.06800
H 	H 	0.68520 0.76680 0.75950 0.06000
H 	H 	0.90100 0.54910 0.17610 0.20800
H 	H 	0.57970 0.46870 0.12260 0.28900
Zn	Zn	0.04954 0.17800 0.59595 1.24500
Zn	Zn	0.45165 0.17831 0.58788 1.24200
P 	P 	0.02663 0.08054 0.30461 0.55500
P 	P 	0.47664 0.07704 0.30132 0.57600
O 	O 	0.03338 0.20290 0.40510 -0.44600
O 	O 	0.02171 0.14280 0.16210 -0.40500
O 	O 	0.98362 0.98520 0.32820 -0.43300
O 	O 	0.07394 0.98110 0.31320 -0.36300
O 	O 	0.46738 0.19710 0.40120 -0.46000
O 	O 	0.52475 0.99900 0.32630 -0.43400
O 	O 	0.43551 0.95860 0.31130 -0.47300
O 	O 	0.47657 0.13740 0.15930 -0.40100
O 	O 	0.11821 0.13320 0.61960 -0.44300
O 	O 	0.14355 0.30560 0.76430 -0.29600
O 	O 	0.35655 0.04010 0.43420 -0.29200
O 	O 	0.38197 0.16600 0.61550 -0.43300
C 	C 	0.20219 0.16520 0.65450 -0.04500
C 	C 	0.24007 0.23380 0.72680 -0.04000
C 	C 	0.21277 0.07060 0.55130 -0.02600
C 	C 	0.28789 0.20940 0.69320 0.00600
C 	C 	0.26060 0.04730 0.51810 -0.00200
C 	C 	0.29827 0.11930 0.58690 -0.06800
C 	C 	0.34974 0.10560 0.53940 0.34400
C 	C 	0.15037 0.20470 0.68400 0.34800
H 	H 	0.26880 0.97810 0.43740 0.05500
H 	H 	0.18950 0.01040 0.50420 0.06700
H 	H 	0.23360 0.28830 0.79890 0.06900
H 	H 	0.31480 0.26680 0.74050 0.06100
H 	H 	0.09900 0.04910 0.32390 0.20500
H 	H 	0.42030 0.96870 0.37740 0.28800
