data_crystal

_cell_length_a 9.15400
_cell_length_b 9.23900
_cell_length_c 9.34500
_cell_angle_alpha 78.23100
_cell_angle_beta  87.48500
_cell_angle_gamma 87.17900

_symmetry_space_group_name_	'P 1'
_symmetry_space_group_name_H-M	'P 1'

loop_
_symmetry_equiv_pos_as_xyz
  x,y,z

loop_
_atom_site_label
_atom_site_type_symbol
_atom_site_fract_x
_atom_site_fract_y
_atom_site_fract_z
_atom_site_charge
P 	P 	0.61700 0.86030 0.67860 0.80500
P 	P 	0.81260 0.11110 0.10540 0.81200
P 	P 	0.64870 0.66940 0.13810 0.71300
Al	Al	0.63070 0.89680 0.33970 2.39700
Al	Al	0.83710 0.86730 0.92680 2.39500
Al	Al	0.43850 0.63160 0.90800 2.40300
F 	F 	0.60530 0.50230 0.91950 -0.91900
O 	O 	0.53600 0.73480 0.02610 -0.67300
O 	O 	0.78750 0.03510 0.97770 -0.78000
O 	O 	0.64840 0.50220 0.18700 -0.55000
O 	O 	0.73100 0.25800 0.08710 -0.64800
O 	O 	0.76800 0.00940 0.24970 -0.78600
O 	O 	0.51450 0.73560 0.73390 -0.66400
O 	O 	0.97680 0.13530 0.11200 -0.74700
O 	O 	0.80150 0.71860 0.07090 -0.72400
O 	O 	0.75260 0.85090 0.77080 -0.76700
O 	O 	0.67400 0.85100 0.52340 -0.72800
O 	O 	0.62500 0.73530 0.27700 -0.73600
O 	O 	0.53920 0.01040 0.67520 -0.80200
P 	P 	0.38300 0.13970 0.32140 0.80400
P 	P 	0.18740 0.88890 0.89460 0.81100
P 	P 	0.35130 0.33060 0.86190 0.71300
Al	Al	0.36930 0.10320 0.66030 2.39700
Al	Al	0.16290 0.13270 0.07320 2.39500
Al	Al	0.56150 0.36840 0.09200 2.40300
F 	F 	0.39470 0.49770 0.08050 -0.91900
O 	O 	0.46400 0.26520 0.97390 -0.67300
O 	O 	0.21250 0.96490 0.02230 -0.78000
O 	O 	0.35160 0.49780 0.81300 -0.55000
O 	O 	0.26900 0.74200 0.91290 -0.64800
O 	O 	0.23200 0.99060 0.75030 -0.78600
O 	O 	0.48550 0.26440 0.26610 -0.66400
O 	O 	0.02320 0.86470 0.88800 -0.74700
O 	O 	0.19850 0.28140 0.92910 -0.72400
O 	O 	0.24740 0.14910 0.22920 -0.76700
O 	O 	0.32600 0.14900 0.47660 -0.72800
O 	O 	0.37500 0.26470 0.72300 -0.73600
O 	O 	0.46080 0.98960 0.32480 -0.80200
