data_crystal

_cell_length_a 6.87960
_cell_length_b 9.85600
_cell_length_c 11.06700
_cell_angle_alpha 90.00000
_cell_angle_beta  90.00000
_cell_angle_gamma 90.00000

_symmetry_space_group_name_	'P 1'
_symmetry_space_group_name_H-M	'P 1'

loop_
_symmetry_equiv_pos_as_xyz
  x,y,z

loop_
_atom_site_label
_atom_site_type_symbol
_atom_site_fract_x
_atom_site_fract_y
_atom_site_fract_z
_atom_site_charge
Mn	Mn	0.12553 0.20259 0.71068 1.29200
Mn	Mn	0.37447 0.79741 0.21068 1.29200
Mn	Mn	0.87447 0.70259 0.78932 1.29200
Mn	Mn	0.62553 0.29741 0.28932 1.29200
H 	H 	0.34920 0.90850 0.57250 0.10100
H 	H 	0.46580 0.89470 0.69410 0.11600
H 	H 	0.63090 0.12190 0.58250 0.13700
H 	H 	0.46460 0.08720 0.48990 0.12000
H 	H 	0.15080 0.09150 0.07250 0.10100
H 	H 	0.03420 0.10530 0.19410 0.11600
H 	H 	0.86910 0.87810 0.08250 0.13000
H 	H 	0.03540 0.91280 0.98990 0.11600
H 	H 	0.65080 0.40850 0.92750 0.10200
H 	H 	0.53420 0.39470 0.80590 0.11600
H 	H 	0.36910 0.62190 0.91750 0.13600
H 	H 	0.53540 0.58720 0.01010 0.11900
H 	H 	0.84920 0.59150 0.42750 0.10100
H 	H 	0.96580 0.60530 0.30590 0.11600
H 	H 	0.13090 0.37810 0.41750 0.13600
H 	H 	0.96460 0.41280 0.51010 0.12000
C 	C 	0.17160 0.90364 0.72087 0.41800
C 	C 	0.35620 0.93909 0.65565 -0.26000
C 	C 	0.49390 0.13408 0.56486 -0.30300
C 	C 	0.44810 0.28234 0.55256 0.43800
C 	C 	0.32840 0.09636 0.22087 0.41800
C 	C 	0.14380 0.06091 0.15565 -0.26000
C 	C 	0.00610 0.86592 0.06486 -0.29100
C 	C 	0.05190 0.71766 0.05256 0.43400
C 	C 	0.82840 0.40364 0.77913 0.41800
C 	C 	0.64380 0.43909 0.84435 -0.26000
C 	C 	0.50610 0.63408 0.93514 -0.30200
C 	C 	0.55190 0.78234 0.94744 0.43900
C 	C 	0.67160 0.59636 0.27913 0.41800
C 	C 	0.85620 0.56091 0.34435 -0.26000
C 	C 	0.99390 0.36592 0.43514 -0.30200
C 	C 	0.94810 0.21766 0.44744 0.44100
O 	O 	0.14170 0.77809 0.73160 -0.47300
O 	O 	0.06352 0.99270 0.75815 -0.48000
O 	O 	0.33612 0.33587 0.62643 -0.45100
O 	O 	0.52730 0.34520 0.46913 -0.44700
O 	O 	0.38068 0.08063 0.65932 -0.20700
O 	O 	0.35830 0.22191 0.23160 -0.47300
O 	O 	0.43648 0.00730 0.25815 -0.48100
O 	O 	0.16388 0.66413 0.12643 -0.45000
O 	O 	0.97270 0.65480 0.96913 -0.44500
O 	O 	0.11932 0.91937 0.15932 -0.20800
O 	O 	0.85830 0.27809 0.76840 -0.47200
O 	O 	0.93648 0.49270 0.74185 -0.48000
O 	O 	0.66388 0.83587 0.87357 -0.45100
O 	O 	0.47270 0.84520 0.03087 -0.44900
O 	O 	0.61932 0.58063 0.84068 -0.20700
O 	O 	0.64170 0.72191 0.26840 -0.47400
O 	O 	0.56352 0.50730 0.24185 -0.48100
O 	O 	0.83612 0.16413 0.37357 -0.45100
O 	O 	0.02730 0.15480 0.53087 -0.45000
O 	O 	0.88068 0.41937 0.34068 -0.20700
