data_crystal

_cell_length_a 6.96430
_cell_length_b 9.97240
_cell_length_c 11.19510
_cell_angle_alpha 90.00000
_cell_angle_beta  90.00000
_cell_angle_gamma 90.00000

_symmetry_space_group_name_	'P 1'
_symmetry_space_group_name_H-M	'P 1'

loop_
_symmetry_equiv_pos_as_xyz
  x,y,z

loop_
_atom_site_label
_atom_site_type_symbol
_atom_site_fract_x
_atom_site_fract_y
_atom_site_fract_z
_atom_site_charge
Mn	Mn	0.12570 0.20269 0.21081 1.28500
Mn	Mn	0.37430 0.79731 0.71081 1.28500
Mn	Mn	0.87430 0.70269 0.28919 1.28400
Mn	Mn	0.62570 0.29731 0.78919 1.28500
H 	H 	0.45900 0.90000 0.19900 0.12700
H 	H 	0.34800 0.90900 0.07400 0.11100
H 	H 	0.61900 0.12600 0.07700 0.17400
H 	H 	0.47200 0.08800 0.98900 0.13400
H 	H 	0.04100 0.10000 0.69900 0.12700
H 	H 	0.15200 0.09100 0.57400 0.11000
H 	H 	0.88100 0.87400 0.57700 0.17000
H 	H 	0.02800 0.91200 0.48900 0.13400
H 	H 	0.54100 0.40000 0.30100 0.12800
H 	H 	0.65200 0.40900 0.42600 0.11100
H 	H 	0.38100 0.62600 0.42300 0.17500
H 	H 	0.52800 0.58800 0.51100 0.13500
H 	H 	0.95900 0.60000 0.80100 0.12700
H 	H 	0.84800 0.59100 0.92600 0.11000
H 	H 	0.11900 0.37400 0.92300 0.16700
H 	H 	0.97200 0.41200 0.01100 0.13000
C 	C 	0.17110 0.90350 0.22080 0.40500
C 	C 	0.35520 0.93930 0.15560 -0.28200
C 	C 	0.49370 0.13450 0.06470 -0.37200
C 	C 	0.44830 0.28200 0.05320 0.43600
C 	C 	0.32890 0.09650 0.72080 0.40500
C 	C 	0.14480 0.06070 0.65560 -0.28400
C 	C 	0.00630 0.86550 0.56470 -0.36600
C 	C 	0.05170 0.71800 0.55320 0.43500
C 	C 	0.82890 0.40350 0.27920 0.40500
C 	C 	0.64480 0.43930 0.34440 -0.28300
C 	C 	0.50630 0.63450 0.43530 -0.37300
C 	C 	0.55170 0.78200 0.44680 0.43600
C 	C 	0.67110 0.59650 0.77920 0.40500
C 	C 	0.85520 0.56070 0.84440 -0.28100
C 	C 	0.99370 0.36550 0.93530 -0.35800
C 	C 	0.94830 0.21800 0.94680 0.43500
O 	O 	0.06330 0.99230 0.25830 -0.47100
O 	O 	0.33710 0.33560 0.12660 -0.44800
O 	O 	0.38090 0.08080 0.15902 -0.19000
O 	O 	0.14210 0.77880 0.23170 -0.46500
O 	O 	0.52810 0.34500 0.96950 -0.44100
O 	O 	0.43670 0.00770 0.75830 -0.47300
O 	O 	0.16290 0.66440 0.62660 -0.44800
O 	O 	0.11910 0.91920 0.65902 -0.19000
O 	O 	0.35790 0.22120 0.73170 -0.46700
O 	O 	0.97190 0.65500 0.46950 -0.44100
O 	O 	0.93670 0.49230 0.24170 -0.47300
O 	O 	0.66290 0.83560 0.37340 -0.44900
O 	O 	0.61910 0.58080 0.34098 -0.18900
O 	O 	0.85790 0.27880 0.26830 -0.46600
O 	O 	0.47190 0.84500 0.53050 -0.44100
O 	O 	0.56330 0.50770 0.74170 -0.47300
O 	O 	0.83710 0.16440 0.87340 -0.44700
O 	O 	0.88090 0.41920 0.84098 -0.19200
O 	O 	0.64210 0.72120 0.76830 -0.46700
O 	O 	0.02810 0.15500 0.03050 -0.44100
