data_crystal

_cell_length_a 17.85240
_cell_length_b 12.61770
_cell_length_c 11.18810
_cell_angle_alpha 90.00000
_cell_angle_beta  94.81990
_cell_angle_gamma 90.00000

_symmetry_space_group_name_	'P 1'
_symmetry_space_group_name_H-M	'P 1'

loop_
_symmetry_equiv_pos_as_xyz
  x,y,z

loop_
_atom_site_label
_atom_site_type_symbol
_atom_site_fract_x
_atom_site_fract_y
_atom_site_fract_z
_atom_site_charge
Co	Co	0.42134 0.55927 0.50055 1.12700
N 	N 	0.87396 0.93470 0.16240 -0.21000
N 	N 	0.91092 0.98310 0.25600 -0.16600
N 	N 	0.87723 0.97030 0.35630 -0.21700
C 	C 	0.81180 0.88760 0.20530 0.04100
C 	C 	0.81480 0.91090 0.32810 0.07600
C 	C 	0.75980 0.87350 0.40070 -0.13800
H 	H 	0.76220 0.88830 0.48330 0.06300
C 	C 	0.70270 0.81480 0.34520 0.03500
H 	H 	0.66510 0.78850 0.39110 0.02000
C 	C 	0.69840 0.79200 0.22030 -0.09000
C 	C 	0.75300 0.82740 0.14910 -0.05200
H 	H 	0.75080 0.81180 0.06670 0.05900
C 	C 	0.63300 0.72660 0.16830 0.36400
O 	O 	0.52029 0.58060 0.43190 -0.74100
H 	H 	0.54500 0.64000 0.46700 0.18700
O 	O 	0.63584 0.69030 0.06290 -0.45300
O 	O 	0.58098 0.71240 0.23500 -0.44000
Co	Co	0.92134 0.05927 0.50055 1.15200
N 	N 	0.37396 0.43470 0.16240 -0.21500
N 	N 	0.41092 0.48310 0.25600 -0.18900
N 	N 	0.37723 0.47030 0.35630 -0.22500
C 	C 	0.31180 0.38760 0.20530 0.03500
C 	C 	0.31480 0.41090 0.32810 0.07300
C 	C 	0.25980 0.37350 0.40070 -0.14400
H 	H 	0.26220 0.38830 0.48330 0.06000
C 	C 	0.20270 0.31480 0.34520 0.03500
H 	H 	0.16510 0.28850 0.39110 0.01200
C 	C 	0.19840 0.29200 0.22030 -0.09900
C 	C 	0.25300 0.32740 0.14910 -0.05300
H 	H 	0.25080 0.31180 0.06670 0.05700
C 	C 	0.13300 0.22660 0.16830 0.36400
O 	O 	0.02029 0.08060 0.43190 -0.79200
H 	H 	0.04500 0.14000 0.46700 0.17900
O 	O 	0.13584 0.19030 0.06290 -0.46600
O 	O 	0.08098 0.21240 0.23500 -0.46800
Co	Co	0.57866 0.55927 0.99945 1.13100
N 	N 	0.12604 0.93470 0.33760 -0.22000
N 	N 	0.08908 0.98310 0.24400 -0.20300
N 	N 	0.12277 0.97030 0.14370 -0.23200
C 	C 	0.18820 0.88760 0.29470 0.03400
C 	C 	0.18520 0.91090 0.17190 0.07100
C 	C 	0.24020 0.87350 0.09930 -0.14100
H 	H 	0.23780 0.88830 0.01670 0.06200
C 	C 	0.29730 0.81480 0.15480 0.03300
H 	H 	0.33490 0.78850 0.10890 0.02000
C 	C 	0.30160 0.79200 0.27970 -0.09200
C 	C 	0.24700 0.82740 0.35090 -0.05700
H 	H 	0.24920 0.81180 0.43330 0.06000
C 	C 	0.36700 0.72660 0.33170 0.36300
O 	O 	0.47971 0.58060 0.06810 -0.74200
H 	H 	0.45500 0.64000 0.03300 0.18600
O 	O 	0.36416 0.69030 0.43710 -0.45200
O 	O 	0.41902 0.71240 0.26500 -0.44000
Co	Co	0.07866 0.05927 0.99945 1.10700
N 	N 	0.62604 0.43470 0.33760 -0.21500
N 	N 	0.58908 0.48310 0.24400 -0.18900
N 	N 	0.62277 0.47030 0.14370 -0.22500
C 	C 	0.68820 0.38760 0.29470 0.04200
C 	C 	0.68520 0.41090 0.17190 0.07200
C 	C 	0.74020 0.37350 0.09930 -0.13300
H 	H 	0.73780 0.38830 0.01670 0.06300
C 	C 	0.79730 0.31480 0.15480 0.03000
H 	H 	0.83490 0.28850 0.10890 0.03000
C 	C 	0.80160 0.29200 0.27970 -0.07900
C 	C 	0.74700 0.32740 0.35090 -0.05800
H 	H 	0.74920 0.31180 0.43330 0.06500
C 	C 	0.86700 0.22660 0.33170 0.35800
O 	O 	0.97971 0.08060 0.06810 -0.67400
H 	H 	0.95500 0.14000 0.03300 0.19400
O 	O 	0.86416 0.19030 0.43710 -0.43200
O 	O 	0.91902 0.21240 0.26500 -0.39500
Co	Co	0.57866 0.44073 0.49945 1.12900
N 	N 	0.12604 0.06530 0.83760 -0.22000
N 	N 	0.08908 0.01690 0.74400 -0.20400
N 	N 	0.12277 0.02970 0.64370 -0.23200
C 	C 	0.18820 0.11240 0.79470 0.03400
C 	C 	0.18520 0.08910 0.67190 0.07100
C 	C 	0.24020 0.12650 0.59930 -0.14100
H 	H 	0.23780 0.11170 0.51670 0.06300
C 	C 	0.29730 0.18520 0.65480 0.03300
H 	H 	0.33490 0.21150 0.60890 0.02100
C 	C 	0.30160 0.20800 0.77970 -0.09200
C 	C 	0.24700 0.17260 0.85090 -0.05700
H 	H 	0.24920 0.18820 0.93330 0.06000
C 	C 	0.36700 0.27340 0.83170 0.36200
O 	O 	0.47971 0.41940 0.56810 -0.74100
H 	H 	0.45500 0.36000 0.53300 0.18700
O 	O 	0.36416 0.30970 0.93710 -0.45100
O 	O 	0.41902 0.28760 0.76500 -0.43900
Co	Co	0.07866 0.94073 0.49945 1.10700
N 	N 	0.62604 0.56530 0.83760 -0.21400
N 	N 	0.58908 0.51690 0.74400 -0.18900
N 	N 	0.62277 0.52970 0.64370 -0.22400
C 	C 	0.68820 0.61240 0.79470 0.04300
C 	C 	0.68520 0.58910 0.67190 0.07200
C 	C 	0.74020 0.62650 0.59930 -0.13200
H 	H 	0.73780 0.61170 0.51670 0.06400
C 	C 	0.79730 0.68520 0.65480 0.03000
H 	H 	0.83490 0.71150 0.60890 0.03100
C 	C 	0.80160 0.70800 0.77970 -0.07800
C 	C 	0.74700 0.67260 0.85090 -0.05800
H 	H 	0.74920 0.68820 0.93330 0.06700
C 	C 	0.86700 0.77340 0.83170 0.35700
O 	O 	0.97971 0.91940 0.56810 -0.67200
H 	H 	0.95500 0.86000 0.53300 0.19400
O 	O 	0.86416 0.80970 0.93710 -0.42800
O 	O 	0.91902 0.78760 0.76500 -0.39300
Co	Co	0.42134 0.44073 0.00055 1.12700
N 	N 	0.87396 0.06530 0.66240 -0.20800
N 	N 	0.91092 0.01690 0.75600 -0.16500
N 	N 	0.87723 0.02970 0.85630 -0.21600
C 	C 	0.81180 0.11240 0.70530 0.04200
C 	C 	0.81480 0.08910 0.82810 0.07600
C 	C 	0.75980 0.12650 0.90070 -0.13700
H 	H 	0.76220 0.11170 0.98330 0.06300
C 	C 	0.70270 0.18520 0.84520 0.03500
H 	H 	0.66510 0.21150 0.89110 0.02100
C 	C 	0.69840 0.20800 0.72030 -0.08900
C 	C 	0.75300 0.17260 0.64910 -0.05300
H 	H 	0.75080 0.18820 0.56670 0.06100
C 	C 	0.63300 0.27340 0.66830 0.36400
O 	O 	0.52029 0.41940 0.93190 -0.74000
H 	H 	0.54500 0.36000 0.96700 0.18800
O 	O 	0.63584 0.30970 0.56290 -0.45100
O 	O 	0.58098 0.28760 0.73500 -0.43900
Co	Co	0.92134 0.94073 0.00055 1.14800
N 	N 	0.37396 0.56530 0.66240 -0.21500
N 	N 	0.41092 0.51690 0.75600 -0.18900
N 	N 	0.37723 0.52970 0.85630 -0.22500
C 	C 	0.31180 0.61240 0.70530 0.03500
C 	C 	0.31480 0.58910 0.82810 0.07400
C 	C 	0.25980 0.62650 0.90070 -0.14400
H 	H 	0.26220 0.61170 0.98330 0.06100
C 	C 	0.20270 0.68520 0.84520 0.03600
H 	H 	0.16510 0.71150 0.89110 0.01300
C 	C 	0.19840 0.70800 0.72030 -0.09900
C 	C 	0.25300 0.67260 0.64910 -0.05300
H 	H 	0.25080 0.68820 0.56670 0.05700
C 	C 	0.13300 0.77340 0.66830 0.36400
O 	O 	0.02029 0.91940 0.93190 -0.79000
H 	H 	0.04500 0.86000 0.96700 0.18000
O 	O 	0.13584 0.80970 0.56290 -0.46800
O 	O 	0.08098 0.78760 0.73500 -0.46800
Co	Co	0.50000 0.59577 0.25000 1.15400
Co	Co	0.00000 0.09577 0.25000 1.10700
Co	Co	0.50000 0.40423 0.75000 1.15400
Co	Co	0.00000 0.90423 0.75000 1.10600
