data_crystal

_cell_length_a 17.85310
_cell_length_b 12.62250
_cell_length_c 11.19090
_cell_angle_alpha 90.00000
_cell_angle_beta  94.83940
_cell_angle_gamma 90.00000

_symmetry_space_group_name_	'P 1'
_symmetry_space_group_name_H-M	'P 1'

loop_
_symmetry_equiv_pos_as_xyz
  x,y,z

loop_
_atom_site_label
_atom_site_type_symbol
_atom_site_fract_x
_atom_site_fract_y
_atom_site_fract_z
_atom_site_charge
Co	Co	0.42133 0.55929 0.50051 1.13000
N 	N 	0.87397 0.93480 0.16230 -0.20800
N 	N 	0.91086 0.98290 0.25610 -0.16400
N 	N 	0.87731 0.97050 0.35620 -0.21700
C 	C 	0.81189 0.88740 0.20540 0.04000
C 	C 	0.81485 0.91090 0.32810 0.07600
C 	C 	0.75980 0.87360 0.40060 -0.13800
H 	H 	0.76220 0.88850 0.48310 0.06300
C 	C 	0.70280 0.81470 0.34520 0.03500
H 	H 	0.66520 0.78840 0.39110 0.02000
C 	C 	0.69862 0.79190 0.22040 -0.09100
C 	C 	0.75280 0.82740 0.14910 -0.05100
H 	H 	0.75030 0.81210 0.06660 0.05800
C 	C 	0.63320 0.72640 0.16850 0.36500
O 	O 	0.52018 0.58038 0.43210 -0.74200
H 	H 	0.54300 0.64100 0.46700 0.18800
O 	O 	0.63586 0.69020 0.06320 -0.45400
O 	O 	0.58102 0.71240 0.23500 -0.44000
Co	Co	0.92133 0.05929 0.50051 1.15300
N 	N 	0.37397 0.43480 0.16230 -0.21500
N 	N 	0.41086 0.48290 0.25610 -0.18900
N 	N 	0.37731 0.47050 0.35620 -0.22500
C 	C 	0.31189 0.38740 0.20540 0.03400
C 	C 	0.31485 0.41090 0.32810 0.07300
C 	C 	0.25980 0.37360 0.40060 -0.14500
H 	H 	0.26220 0.38850 0.48310 0.06000
C 	C 	0.20280 0.31470 0.34520 0.03500
H 	H 	0.16520 0.28840 0.39110 0.01200
C 	C 	0.19862 0.29190 0.22040 -0.10000
C 	C 	0.25280 0.32740 0.14910 -0.05200
H 	H 	0.25030 0.31210 0.06660 0.05600
C 	C 	0.13320 0.22640 0.16850 0.36500
O 	O 	0.02018 0.08038 0.43210 -0.79200
H 	H 	0.04300 0.14100 0.46700 0.17900
O 	O 	0.13586 0.19020 0.06320 -0.46700
O 	O 	0.08102 0.21240 0.23500 -0.46800
Co	Co	0.57867 0.55929 0.99949 1.13200
N 	N 	0.12603 0.93480 0.33770 -0.22000
N 	N 	0.08914 0.98290 0.24390 -0.20200
N 	N 	0.12269 0.97050 0.14380 -0.23200
C 	C 	0.18811 0.88740 0.29460 0.03300
C 	C 	0.18515 0.91090 0.17190 0.07100
C 	C 	0.24020 0.87360 0.09940 -0.14200
H 	H 	0.23780 0.88850 0.01690 0.06200
C 	C 	0.29720 0.81470 0.15480 0.03300
H 	H 	0.33480 0.78840 0.10890 0.02000
C 	C 	0.30138 0.79190 0.27960 -0.09300
C 	C 	0.24720 0.82740 0.35090 -0.05600
H 	H 	0.24970 0.81210 0.43340 0.05900
C 	C 	0.36680 0.72640 0.33150 0.36300
O 	O 	0.47982 0.58038 0.06790 -0.74300
H 	H 	0.45700 0.64100 0.03300 0.18700
O 	O 	0.36414 0.69020 0.43680 -0.45300
O 	O 	0.41898 0.71240 0.26500 -0.44000
Co	Co	0.07867 0.05929 0.99949 1.10700
N 	N 	0.62603 0.43480 0.33770 -0.21500
N 	N 	0.58914 0.48290 0.24390 -0.18800
N 	N 	0.62269 0.47050 0.14380 -0.22500
C 	C 	0.68811 0.38740 0.29460 0.04100
C 	C 	0.68515 0.41090 0.17190 0.07200
C 	C 	0.74020 0.37360 0.09940 -0.13300
H 	H 	0.73780 0.38850 0.01690 0.06300
C 	C 	0.79720 0.31470 0.15480 0.03100
H 	H 	0.83480 0.28840 0.10890 0.03000
C 	C 	0.80138 0.29190 0.27960 -0.08000
C 	C 	0.74720 0.32740 0.35090 -0.05700
H 	H 	0.74970 0.31210 0.43340 0.06400
C 	C 	0.86680 0.22640 0.33150 0.35800
O 	O 	0.97982 0.08038 0.06790 -0.67600
H 	H 	0.95700 0.14100 0.03300 0.19500
O 	O 	0.86414 0.19020 0.43680 -0.43300
O 	O 	0.91898 0.21240 0.26500 -0.39500
Co	Co	0.57867 0.44071 0.49949 1.12900
N 	N 	0.12603 0.06520 0.83770 -0.22000
N 	N 	0.08914 0.01710 0.74390 -0.20300
N 	N 	0.12269 0.02950 0.64380 -0.23100
C 	C 	0.18811 0.11260 0.79460 0.03300
C 	C 	0.18515 0.08910 0.67190 0.07100
C 	C 	0.24020 0.12640 0.59940 -0.14100
H 	H 	0.23780 0.11150 0.51690 0.06300
C 	C 	0.29720 0.18530 0.65480 0.03300
H 	H 	0.33480 0.21160 0.60890 0.02000
C 	C 	0.30138 0.20810 0.77960 -0.09200
C 	C 	0.24720 0.17260 0.85090 -0.05600
H 	H 	0.24970 0.18790 0.93340 0.06000
C 	C 	0.36680 0.27360 0.83150 0.36300
O 	O 	0.47982 0.41962 0.56790 -0.74200
H 	H 	0.45700 0.35900 0.53300 0.18800
O 	O 	0.36414 0.30980 0.93680 -0.45200
O 	O 	0.41898 0.28760 0.76500 -0.44000
Co	Co	0.07867 0.94071 0.49949 1.10700
N 	N 	0.62603 0.56520 0.83770 -0.21400
N 	N 	0.58914 0.51710 0.74390 -0.18800
N 	N 	0.62269 0.52950 0.64380 -0.22400
C 	C 	0.68811 0.61260 0.79460 0.04300
C 	C 	0.68515 0.58910 0.67190 0.07200
C 	C 	0.74020 0.62640 0.59940 -0.13200
H 	H 	0.73780 0.61150 0.51690 0.06400
C 	C 	0.79720 0.68530 0.65480 0.03000
H 	H 	0.83480 0.71160 0.60890 0.03100
C 	C 	0.80138 0.70810 0.77960 -0.07800
C 	C 	0.74720 0.67260 0.85090 -0.05700
H 	H 	0.74970 0.68790 0.93340 0.06700
C 	C 	0.86680 0.77360 0.83150 0.35800
O 	O 	0.97982 0.91962 0.56790 -0.67400
H 	H 	0.95700 0.85900 0.53300 0.19600
O 	O 	0.86414 0.80980 0.93680 -0.42900
O 	O 	0.91898 0.78760 0.76500 -0.39300
Co	Co	0.42133 0.44071 0.00051 1.12800
N 	N 	0.87397 0.06520 0.66230 -0.20800
N 	N 	0.91086 0.01710 0.75610 -0.16400
N 	N 	0.87731 0.02950 0.85620 -0.21600
C 	C 	0.81189 0.11260 0.70540 0.04200
C 	C 	0.81485 0.08910 0.82810 0.07600
C 	C 	0.75980 0.12640 0.90060 -0.13700
H 	H 	0.76220 0.11150 0.98310 0.06300
C 	C 	0.70280 0.18530 0.84520 0.03500
H 	H 	0.66520 0.21160 0.89110 0.02100
C 	C 	0.69862 0.20810 0.72040 -0.09000
C 	C 	0.75280 0.17260 0.64910 -0.05200
H 	H 	0.75030 0.18790 0.56660 0.06100
C 	C 	0.63320 0.27360 0.66850 0.36400
O 	O 	0.52018 0.41962 0.93210 -0.74100
H 	H 	0.54300 0.35900 0.96700 0.18800
O 	O 	0.63586 0.30980 0.56320 -0.45100
O 	O 	0.58102 0.28760 0.73500 -0.44000
Co	Co	0.92133 0.94071 0.00051 1.14900
N 	N 	0.37397 0.56520 0.66230 -0.21500
N 	N 	0.41086 0.51710 0.75610 -0.18800
N 	N 	0.37731 0.52950 0.85620 -0.22400
C 	C 	0.31189 0.61260 0.70540 0.03400
C 	C 	0.31485 0.58910 0.82810 0.07400
C 	C 	0.25980 0.62640 0.90060 -0.14400
H 	H 	0.26220 0.61150 0.98310 0.06200
C 	C 	0.20280 0.68530 0.84520 0.03600
H 	H 	0.16520 0.71160 0.89110 0.01300
C 	C 	0.19862 0.70810 0.72040 -0.10000
C 	C 	0.25280 0.67260 0.64910 -0.05200
H 	H 	0.25030 0.68790 0.56660 0.05600
C 	C 	0.13320 0.77360 0.66850 0.36500
O 	O 	0.02018 0.91962 0.93210 -0.79000
H 	H 	0.04300 0.85900 0.96700 0.18000
O 	O 	0.13586 0.80980 0.56320 -0.46800
O 	O 	0.08102 0.78760 0.73500 -0.46800
Co	Co	0.50000 0.59580 0.25000 1.15300
Co	Co	0.00000 0.09580 0.25000 1.10600
Co	Co	0.50000 0.40420 0.75000 1.15300
Co	Co	-0.00000 0.90420 0.75000 1.10500
