data_crystal

_cell_length_a 17.51800
_cell_length_b 13.30900
_cell_length_c 11.18100
_cell_angle_alpha 90.00000
_cell_angle_beta  95.87300
_cell_angle_gamma 90.00000

_symmetry_space_group_name_	'P 1'
_symmetry_space_group_name_H-M	'P 1'

loop_
_symmetry_equiv_pos_as_xyz
  x,y,z

loop_
_atom_site_label
_atom_site_type_symbol
_atom_site_fract_x
_atom_site_fract_y
_atom_site_fract_z
_atom_site_charge
Co	Co	0.91929 0.94188 0.99851 1.15500
C 	C 	0.63390 0.71880 0.17020 0.35700
C 	C 	0.69720 0.79080 0.21930 -0.08200
C 	C 	0.74980 0.82830 0.14730 -0.05900
H 	H 	0.74650 0.81240 0.06590 0.06600
C 	C 	0.80840 0.89120 0.19960 0.04500
C 	C 	0.81100 0.91350 0.32520 0.07800
C 	C 	0.75760 0.87700 0.39850 -0.14000
H 	H 	0.75960 0.89340 0.47960 0.06300
C 	C 	0.70170 0.81510 0.34320 0.03200
H 	H 	0.66540 0.78810 0.38910 0.02000
N 	N 	0.87300 0.97410 0.35310 -0.21500
N 	N 	0.90730 0.98600 0.25100 -0.16400
N 	N 	0.87000 0.93880 0.16020 -0.20200
O 	O 	0.58230 0.70190 0.23610 -0.45200
O 	O 	0.63690 0.68300 0.06340 -0.44700
O 	O 	0.97810 0.07640 0.06450 -0.72700
H 	H 	0.95100 0.13000 0.06100 0.25700
Co	Co	0.41929 0.44188 0.99851 1.13600
C 	C 	0.13390 0.21880 0.17020 0.35800
C 	C 	0.19720 0.29080 0.21930 -0.09600
C 	C 	0.24980 0.32830 0.14730 -0.05800
H 	H 	0.24650 0.31240 0.06590 0.05700
C 	C 	0.30840 0.39120 0.19960 0.03400
C 	C 	0.31100 0.41350 0.32520 0.07600
C 	C 	0.25760 0.37700 0.39850 -0.15000
H 	H 	0.25960 0.39340 0.47960 0.06100
C 	C 	0.20170 0.31510 0.34320 0.03300
H 	H 	0.16540 0.28810 0.38910 0.01000
N 	N 	0.37300 0.47410 0.35310 -0.22400
N 	N 	0.40730 0.48600 0.25100 -0.18900
N 	N 	0.37000 0.43880 0.16020 -0.21100
O 	O 	0.08230 0.20190 0.23610 -0.48100
O 	O 	0.13690 0.18300 0.06340 -0.46800
O 	O 	0.47810 0.57640 0.06450 -0.79800
H 	H 	0.45100 0.63000 0.06100 0.25600
Co	Co	0.08071 0.94188 0.50149 1.11400
C 	C 	0.36610 0.71880 0.32980 0.35500
C 	C 	0.30280 0.79080 0.28070 -0.08700
C 	C 	0.25020 0.82830 0.35270 -0.06200
H 	H 	0.25350 0.81240 0.43410 0.06200
C 	C 	0.19160 0.89120 0.30040 0.03500
C 	C 	0.18900 0.91350 0.17480 0.07400
C 	C 	0.24240 0.87700 0.10150 -0.14500
H 	H 	0.24040 0.89340 0.02040 0.06500
C 	C 	0.29830 0.81510 0.15680 0.03100
H 	H 	0.33460 0.78810 0.11090 0.02000
N 	N 	0.12700 0.97410 0.14690 -0.22900
N 	N 	0.09270 0.98600 0.24900 -0.20100
N 	N 	0.13000 0.93880 0.33980 -0.21500
O 	O 	0.41770 0.70190 0.26390 -0.45200
O 	O 	0.36310 0.68300 0.43660 -0.45100
O 	O 	0.02190 0.07640 0.43550 -0.85600
H 	H 	0.04900 0.13000 0.43900 0.25700
Co	Co	0.58071 0.44188 0.50149 1.13600
C 	C 	0.86610 0.21880 0.32980 0.35000
C 	C 	0.80280 0.29080 0.28070 -0.07200
C 	C 	0.75020 0.32830 0.35270 -0.06400
H 	H 	0.75350 0.31240 0.43410 0.06800
C 	C 	0.69160 0.39120 0.30040 0.04400
C 	C 	0.68900 0.41350 0.17480 0.07500
C 	C 	0.74240 0.37700 0.10150 -0.13600
H 	H 	0.74040 0.39340 0.02040 0.06600
C 	C 	0.79830 0.31510 0.15680 0.02800
H 	H 	0.83460 0.28810 0.11090 0.03100
N 	N 	0.62700 0.47410 0.14690 -0.22200
N 	N 	0.59270 0.48600 0.24900 -0.18800
N 	N 	0.63000 0.43880 0.33980 -0.21000
O 	O 	0.91770 0.20190 0.26390 -0.40700
O 	O 	0.86310 0.18300 0.43660 -0.43100
O 	O 	0.52190 0.57640 0.43550 -0.79800
H 	H 	0.54900 0.63000 0.43900 0.25600
Co	Co	0.08071 0.05812 0.00149 1.11200
C 	C 	0.36610 0.28120 0.82980 0.35500
C 	C 	0.30280 0.20920 0.78070 -0.08600
C 	C 	0.25020 0.17170 0.85270 -0.06300
H 	H 	0.25350 0.18760 0.93410 0.06400
C 	C 	0.19160 0.10880 0.80040 0.03600
C 	C 	0.18900 0.08650 0.67480 0.07300
C 	C 	0.24240 0.12300 0.60150 -0.14400
H 	H 	0.24040 0.10660 0.52040 0.06300
C 	C 	0.29830 0.18490 0.65680 0.03000
H 	H 	0.33460 0.21190 0.61090 0.02000
N 	N 	0.12700 0.02590 0.64690 -0.23000
N 	N 	0.09270 0.01400 0.74900 -0.20000
N 	N 	0.13000 0.06120 0.83980 -0.21300
O 	O 	0.41770 0.29810 0.76390 -0.45200
O 	O 	0.36310 0.31700 0.93660 -0.45000
O 	O 	0.02190 0.92360 0.93550 -0.85400
H 	H 	0.04900 0.87000 0.93900 0.25700
Co	Co	0.58071 0.55812 0.00149 1.13700
C 	C 	0.86610 0.78120 0.82980 0.35100
C 	C 	0.80280 0.70920 0.78070 -0.07400
C 	C 	0.75020 0.67170 0.85270 -0.06300
H 	H 	0.75350 0.68760 0.93410 0.06600
C 	C 	0.69160 0.60880 0.80040 0.04200
C 	C 	0.68900 0.58650 0.67480 0.07500
C 	C 	0.74240 0.62300 0.60150 -0.13600
H 	H 	0.74040 0.60660 0.52040 0.06600
C 	C 	0.79830 0.68490 0.65680 0.02800
H 	H 	0.83460 0.71190 0.61090 0.03100
N 	N 	0.62700 0.52590 0.64690 -0.22300
N 	N 	0.59270 0.51400 0.74900 -0.18800
N 	N 	0.63000 0.56120 0.83980 -0.21100
O 	O 	0.91770 0.79810 0.76390 -0.40900
O 	O 	0.86310 0.81700 0.93660 -0.43400
O 	O 	0.52190 0.42360 0.93550 -0.79900
H 	H 	0.54900 0.37000 0.93900 0.25600
Co	Co	0.91929 0.05812 0.49851 1.15900
C 	C 	0.63390 0.28120 0.67020 0.35700
C 	C 	0.69720 0.20920 0.71930 -0.08400
C 	C 	0.74980 0.17170 0.64730 -0.05800
H 	H 	0.74650 0.18760 0.56590 0.06300
C 	C 	0.80840 0.10880 0.69960 0.04300
C 	C 	0.81100 0.08650 0.82520 0.07800
C 	C 	0.75760 0.12300 0.89850 -0.14100
H 	H 	0.75960 0.10660 0.97960 0.06400
C 	C 	0.70170 0.18490 0.84320 0.03200
H 	H 	0.66540 0.21190 0.88910 0.02000
N 	N 	0.87300 0.02590 0.85310 -0.21500
N 	N 	0.90730 0.01400 0.75100 -0.16500
N 	N 	0.87000 0.06120 0.66020 -0.20400
O 	O 	0.58230 0.29810 0.73610 -0.45200
O 	O 	0.63690 0.31700 0.56340 -0.44900
O 	O 	0.97810 0.92360 0.56450 -0.72800
H 	H 	0.95100 0.87000 0.56100 0.25700
Co	Co	0.41929 0.55812 0.49851 1.13600
C 	C 	0.13390 0.78120 0.67020 0.35700
C 	C 	0.19720 0.70920 0.71930 -0.09600
C 	C 	0.24980 0.67170 0.64730 -0.05900
H 	H 	0.24650 0.68760 0.56590 0.05800
C 	C 	0.30840 0.60880 0.69960 0.03500
C 	C 	0.31100 0.58650 0.82520 0.07600
C 	C 	0.25760 0.62300 0.89850 -0.15000
H 	H 	0.25960 0.60660 0.97960 0.06100
C 	C 	0.20170 0.68490 0.84320 0.03300
H 	H 	0.16540 0.71190 0.88910 0.01000
N 	N 	0.37300 0.52590 0.85310 -0.22400
N 	N 	0.40730 0.51400 0.75100 -0.18900
N 	N 	0.37000 0.56120 0.66020 -0.21000
O 	O 	0.08230 0.79810 0.73610 -0.48000
O 	O 	0.13690 0.81700 0.56340 -0.46600
O 	O 	0.47810 0.42360 0.56450 -0.79800
H 	H 	0.45100 0.37000 0.56100 0.25600
Co	Co	0.00000 0.09134 0.25000 1.09200
Co	Co	0.50000 0.59134 0.25000 1.14100
Co	Co	0.00000 0.90866 0.75000 1.09400
Co	Co	0.50000 0.40866 0.75000 1.14100
