data_crystal

_cell_length_a 17.78350
_cell_length_b 12.78180
_cell_length_c 11.22540
_cell_angle_alpha 90.00000
_cell_angle_beta  95.18000
_cell_angle_gamma 90.00000

_symmetry_space_group_name_	'P 1'
_symmetry_space_group_name_H-M	'P 1'

loop_
_symmetry_equiv_pos_as_xyz
  x,y,z

loop_
_atom_site_label
_atom_site_type_symbol
_atom_site_fract_x
_atom_site_fract_y
_atom_site_fract_z
_atom_site_charge
Co	Co	0.42086 0.55816 0.49986 1.12800
N 	N 	0.87320 0.93500 0.16170 -0.20500
N 	N 	0.91050 0.98310 0.25560 -0.16300
N 	N 	0.87680 0.97010 0.35480 -0.21500
C 	C 	0.81200 0.88700 0.20460 0.04700
C 	C 	0.81470 0.90990 0.32740 0.07800
C 	C 	0.76030 0.87260 0.39840 -0.14300
H 	H 	0.76280 0.88730 0.47980 0.06400
C 	C 	0.70350 0.81380 0.34390 0.03700
H 	H 	0.66630 0.78830 0.38930 0.01900
C 	C 	0.69910 0.79020 0.21950 -0.08800
C 	C 	0.75310 0.82680 0.14830 -0.05600
H 	H 	0.75040 0.81220 0.06690 0.06500
C 	C 	0.63390 0.72370 0.16870 0.36300
O 	O 	0.52011 0.57990 0.43220 -0.73800
H 	H 	0.54600 0.63900 0.46500 0.18500
O 	O 	0.63691 0.68760 0.06390 -0.44800
O 	O 	0.58158 0.70970 0.23460 -0.43900
Co	Co	0.92086 0.05816 0.49986 1.15100
N 	N 	0.37320 0.43500 0.16170 -0.21500
N 	N 	0.41050 0.48310 0.25560 -0.18900
N 	N 	0.37680 0.47010 0.35480 -0.22500
C 	C 	0.31200 0.38700 0.20460 0.03600
C 	C 	0.31470 0.40990 0.32740 0.07600
C 	C 	0.26030 0.37260 0.39840 -0.15200
H 	H 	0.26280 0.38730 0.47980 0.06300
C 	C 	0.20350 0.31380 0.34390 0.03900
H 	H 	0.16630 0.28830 0.38930 0.01000
C 	C 	0.19910 0.29020 0.21950 -0.10100
C 	C 	0.25310 0.32680 0.14830 -0.05500
H 	H 	0.25040 0.31220 0.06690 0.05700
C 	C 	0.13390 0.22370 0.16870 0.36400
O 	O 	0.02011 0.07990 0.43220 -0.79100
H 	H 	0.04600 0.13900 0.46500 0.17800
O 	O 	0.13691 0.18760 0.06390 -0.46900
O 	O 	0.08158 0.20970 0.23460 -0.46900
Co	Co	0.57914 0.55816 0.00014 1.12900
N 	N 	0.12680 0.93500 0.33830 -0.22000
N 	N 	0.08950 0.98310 0.24440 -0.20200
N 	N 	0.12320 0.97010 0.14520 -0.22900
C 	C 	0.18800 0.88700 0.29540 0.03500
C 	C 	0.18530 0.90990 0.17260 0.07400
C 	C 	0.23970 0.87260 0.10160 -0.14800
H 	H 	0.23720 0.88730 0.02020 0.06600
C 	C 	0.29650 0.81380 0.15610 0.03600
H 	H 	0.33370 0.78830 0.11070 0.01900
C 	C 	0.30090 0.79020 0.28050 -0.09200
C 	C 	0.24690 0.82680 0.35170 -0.05900
H 	H 	0.24960 0.81220 0.43310 0.06100
C 	C 	0.36610 0.72370 0.33130 0.36200
O 	O 	0.47989 0.57990 0.06780 -0.73900
H 	H 	0.45400 0.63900 0.03500 0.18600
O 	O 	0.36309 0.68760 0.43610 -0.45200
O 	O 	0.41842 0.70970 0.26540 -0.44000
Co	Co	0.07914 0.05816 0.00014 1.10300
N 	N 	0.62680 0.43500 0.33830 -0.21400
N 	N 	0.58950 0.48310 0.24440 -0.18900
N 	N 	0.62320 0.47010 0.14520 -0.22300
C 	C 	0.68800 0.38700 0.29540 0.04300
C 	C 	0.68530 0.40990 0.17260 0.07400
C 	C 	0.73970 0.37260 0.10160 -0.13900
H 	H 	0.73720 0.38730 0.02020 0.06700
C 	C 	0.79650 0.31380 0.15610 0.03300
H 	H 	0.83370 0.28830 0.11070 0.03000
C 	C 	0.80090 0.29020 0.28050 -0.07900
C 	C 	0.74690 0.32680 0.35170 -0.06100
H 	H 	0.74960 0.31220 0.43310 0.06700
C 	C 	0.86610 0.22370 0.33130 0.35700
O 	O 	0.97989 0.07990 0.06780 -0.67100
H 	H 	0.95400 0.13900 0.03500 0.19300
O 	O 	0.86309 0.18760 0.43610 -0.43200
O 	O 	0.91842 0.20970 0.26540 -0.39400
Co	Co	0.57914 0.44184 0.50014 1.12800
N 	N 	0.12680 0.06500 0.83830 -0.21800
N 	N 	0.08950 0.01690 0.74440 -0.20100
N 	N 	0.12320 0.02990 0.64520 -0.23000
C 	C 	0.18800 0.11300 0.79540 0.03700
C 	C 	0.18530 0.09010 0.67260 0.07300
C 	C 	0.23970 0.12740 0.60160 -0.14700
H 	H 	0.23720 0.11270 0.52020 0.06500
C 	C 	0.29650 0.18620 0.65610 0.03500
H 	H 	0.33370 0.21170 0.61070 0.01900
C 	C 	0.30090 0.20980 0.78050 -0.09100
C 	C 	0.24690 0.17320 0.85170 -0.06000
H 	H 	0.24960 0.18780 0.93310 0.06400
C 	C 	0.36610 0.27630 0.83130 0.36200
O 	O 	0.47989 0.42010 0.56780 -0.73900
H 	H 	0.45400 0.36100 0.53500 0.18500
O 	O 	0.36309 0.31240 0.93610 -0.45000
O 	O 	0.41842 0.29030 0.76540 -0.44000
Co	Co	0.07914 0.94184 0.50014 1.10600
N 	N 	0.62680 0.56500 0.83830 -0.21500
N 	N 	0.58950 0.51690 0.74440 -0.18900
N 	N 	0.62320 0.52990 0.64520 -0.22300
C 	C 	0.68800 0.61300 0.79540 0.04300
C 	C 	0.68530 0.59010 0.67260 0.07400
C 	C 	0.73970 0.62740 0.60160 -0.13900
H 	H 	0.73720 0.61270 0.52020 0.06700
C 	C 	0.79650 0.68620 0.65610 0.03400
H 	H 	0.83370 0.71170 0.61070 0.02900
C 	C 	0.80090 0.70980 0.78050 -0.08000
C 	C 	0.74690 0.67320 0.85170 -0.06000
H 	H 	0.74960 0.68780 0.93310 0.06500
C 	C 	0.86610 0.77630 0.83130 0.35800
O 	O 	0.97989 0.92010 0.56780 -0.67200
H 	H 	0.95400 0.86100 0.53500 0.19300
O 	O 	0.86309 0.81240 0.93610 -0.43500
O 	O 	0.91842 0.79030 0.76540 -0.39600
Co	Co	0.42086 0.44184 0.99986 1.12800
N 	N 	0.87320 0.06500 0.66170 -0.20800
N 	N 	0.91050 0.01690 0.75560 -0.16500
N 	N 	0.87680 0.02990 0.85480 -0.21500
C 	C 	0.81200 0.11300 0.70460 0.04400
C 	C 	0.81470 0.09010 0.82740 0.07700
C 	C 	0.76030 0.12740 0.89840 -0.14300
H 	H 	0.76280 0.11270 0.97980 0.06500
C 	C 	0.70350 0.18620 0.84390 0.03700
H 	H 	0.66630 0.21170 0.88930 0.02000
C 	C 	0.69910 0.20980 0.71950 -0.08900
C 	C 	0.75310 0.17320 0.64830 -0.05500
H 	H 	0.75040 0.18780 0.56690 0.06300
C 	C 	0.63390 0.27630 0.66870 0.36300
O 	O 	0.52011 0.42010 0.93220 -0.73900
H 	H 	0.54600 0.36100 0.96500 0.18600
O 	O 	0.63691 0.31240 0.56390 -0.45000
O 	O 	0.58158 0.29030 0.73460 -0.44000
Co	Co	0.92086 0.94184 0.99986 1.14700
N 	N 	0.37320 0.56500 0.66170 -0.21500
N 	N 	0.41050 0.51690 0.75560 -0.19000
N 	N 	0.37680 0.52990 0.85480 -0.22500
C 	C 	0.31200 0.61300 0.70460 0.03600
C 	C 	0.31470 0.59010 0.82740 0.07500
C 	C 	0.26030 0.62740 0.89840 -0.15200
H 	H 	0.26280 0.61270 0.97980 0.06300
C 	C 	0.20350 0.68620 0.84390 0.03900
H 	H 	0.16630 0.71170 0.88930 0.01000
C 	C 	0.19910 0.70980 0.71950 -0.10000
C 	C 	0.25310 0.67320 0.64830 -0.05600
H 	H 	0.25040 0.68780 0.56690 0.05800
C 	C 	0.13390 0.77630 0.66870 0.36400
O 	O 	0.02011 0.92010 0.93220 -0.78900
H 	H 	0.04600 0.86100 0.96500 0.17800
O 	O 	0.13691 0.81240 0.56390 -0.46700
O 	O 	0.08158 0.79030 0.73460 -0.46800
Co	Co	0.50000 0.59464 0.25000 1.15200
Co	Co	0.00000 0.09464 0.25000 1.10200
Co	Co	0.50000 0.40536 0.75000 1.15200
Co	Co	0.00000 0.90536 0.75000 1.10400
