data_crystal

_cell_length_a 17.84910
_cell_length_b 12.65340
_cell_length_c 11.19840
_cell_angle_alpha 90.00000
_cell_angle_beta  94.86500
_cell_angle_gamma 90.00000

_symmetry_space_group_name_	'P 1'
_symmetry_space_group_name_H-M	'P 1'

loop_
_symmetry_equiv_pos_as_xyz
  x,y,z

loop_
_atom_site_label
_atom_site_type_symbol
_atom_site_fract_x
_atom_site_fract_y
_atom_site_fract_z
_atom_site_charge
Co	Co	0.42123 0.55902 0.50044 1.13000
N 	N 	0.87397 0.93480 0.16210 -0.20800
N 	N 	0.91073 0.98300 0.25580 -0.16500
N 	N 	0.87738 0.97050 0.35590 -0.21600
C 	C 	0.81170 0.88750 0.20510 0.04000
C 	C 	0.81490 0.91040 0.32790 0.07500
C 	C 	0.75980 0.87310 0.40030 -0.13800
H 	H 	0.76210 0.88790 0.48280 0.06300
C 	C 	0.70300 0.81440 0.34500 0.03700
H 	H 	0.66550 0.78800 0.39110 0.02000
C 	C 	0.69830 0.79150 0.22020 -0.09200
C 	C 	0.75280 0.82700 0.14920 -0.05000
H 	H 	0.75050 0.81130 0.06690 0.05800
C 	C 	0.63310 0.72600 0.16860 0.36500
O 	O 	0.52009 0.58010 0.43200 -0.74400
H 	H 	0.54300 0.64100 0.46500 0.19000
O 	O 	0.63617 0.68970 0.06330 -0.45300
O 	O 	0.58104 0.71170 0.23490 -0.44200
Co	Co	0.92123 0.05902 0.50044 1.15300
N 	N 	0.37397 0.43480 0.16210 -0.21500
N 	N 	0.41073 0.48300 0.25580 -0.18800
N 	N 	0.37738 0.47050 0.35590 -0.22500
C 	C 	0.31170 0.38750 0.20510 0.03400
C 	C 	0.31490 0.41040 0.32790 0.07300
C 	C 	0.25980 0.37310 0.40030 -0.14500
H 	H 	0.26210 0.38790 0.48280 0.06000
C 	C 	0.20300 0.31440 0.34500 0.03600
H 	H 	0.16550 0.28800 0.39110 0.01100
C 	C 	0.19830 0.29150 0.22020 -0.10100
C 	C 	0.25280 0.32700 0.14920 -0.05200
H 	H 	0.25050 0.31130 0.06690 0.05600
C 	C 	0.13310 0.22600 0.16860 0.36500
O 	O 	0.02009 0.08010 0.43200 -0.79500
H 	H 	0.04300 0.14100 0.46500 0.18100
O 	O 	0.13617 0.18970 0.06330 -0.46600
O 	O 	0.08104 0.21170 0.23490 -0.46900
Co	Co	0.57877 0.55902 0.99956 1.13200
N 	N 	0.12603 0.93480 0.33790 -0.22000
N 	N 	0.08927 0.98300 0.24420 -0.20200
N 	N 	0.12262 0.97050 0.14410 -0.23100
C 	C 	0.18830 0.88750 0.29490 0.03300
C 	C 	0.18510 0.91040 0.17210 0.07000
C 	C 	0.24020 0.87310 0.09970 -0.14200
H 	H 	0.23790 0.88790 0.01720 0.06200
C 	C 	0.29700 0.81440 0.15500 0.03400
H 	H 	0.33450 0.78800 0.10890 0.01900
C 	C 	0.30170 0.79150 0.27980 -0.09400
C 	C 	0.24720 0.82700 0.35080 -0.05500
H 	H 	0.24950 0.81130 0.43310 0.05900
C 	C 	0.36690 0.72600 0.33140 0.36400
O 	O 	0.47991 0.58010 0.06800 -0.74500
H 	H 	0.45700 0.64100 0.03500 0.18900
O 	O 	0.36383 0.68970 0.43670 -0.45200
O 	O 	0.41896 0.71170 0.26510 -0.44200
Co	Co	0.07877 0.05902 0.99956 1.10700
N 	N 	0.62603 0.43480 0.33790 -0.21500
N 	N 	0.58927 0.48300 0.24420 -0.18800
N 	N 	0.62262 0.47050 0.14410 -0.22400
C 	C 	0.68830 0.38750 0.29490 0.04100
C 	C 	0.68510 0.41040 0.17210 0.07100
C 	C 	0.74020 0.37310 0.09970 -0.13300
H 	H 	0.73790 0.38790 0.01720 0.06300
C 	C 	0.79700 0.31440 0.15500 0.03200
H 	H 	0.83450 0.28800 0.10890 0.02900
C 	C 	0.80170 0.29150 0.27980 -0.08100
C 	C 	0.74720 0.32700 0.35080 -0.05600
H 	H 	0.74950 0.31130 0.43310 0.06400
C 	C 	0.86690 0.22600 0.33140 0.35900
O 	O 	0.97991 0.08010 0.06800 -0.67800
H 	H 	0.95700 0.14100 0.03500 0.19700
O 	O 	0.86383 0.18970 0.43670 -0.43200
O 	O 	0.91896 0.21170 0.26510 -0.39600
Co	Co	0.57877 0.44098 0.49956 1.12900
N 	N 	0.12603 0.06520 0.83790 -0.22000
N 	N 	0.08927 0.01700 0.74420 -0.20200
N 	N 	0.12262 0.02950 0.64410 -0.23100
C 	C 	0.18830 0.11250 0.79490 0.03300
C 	C 	0.18510 0.08960 0.67210 0.07100
C 	C 	0.24020 0.12690 0.59970 -0.14200
H 	H 	0.23790 0.11210 0.51720 0.06300
C 	C 	0.29700 0.18560 0.65500 0.03400
H 	H 	0.33450 0.21200 0.60890 0.02000
C 	C 	0.30170 0.20850 0.77980 -0.09300
C 	C 	0.24720 0.17300 0.85080 -0.05500
H 	H 	0.24950 0.18870 0.93310 0.06000
C 	C 	0.36690 0.27400 0.83140 0.36400
O 	O 	0.47991 0.41990 0.56800 -0.74400
H 	H 	0.45700 0.35900 0.53500 0.19000
O 	O 	0.36383 0.31030 0.93670 -0.45100
O 	O 	0.41896 0.28830 0.76510 -0.44100
Co	Co	0.07877 0.94098 0.49956 1.10700
N 	N 	0.62603 0.56520 0.83790 -0.21400
N 	N 	0.58927 0.51700 0.74420 -0.18700
N 	N 	0.62262 0.52950 0.64410 -0.22300
C 	C 	0.68830 0.61250 0.79490 0.04200
C 	C 	0.68510 0.58960 0.67210 0.07200
C 	C 	0.74020 0.62690 0.59970 -0.13200
H 	H 	0.73790 0.61210 0.51720 0.06400
C 	C 	0.79700 0.68560 0.65500 0.03100
H 	H 	0.83450 0.71200 0.60890 0.03000
C 	C 	0.80170 0.70850 0.77980 -0.07900
C 	C 	0.74720 0.67300 0.85080 -0.05700
H 	H 	0.74950 0.68870 0.93310 0.06700
C 	C 	0.86690 0.77400 0.83140 0.35800
O 	O 	0.97991 0.91990 0.56800 -0.67600
H 	H 	0.95700 0.85900 0.53500 0.19800
O 	O 	0.86383 0.81030 0.93670 -0.42800
O 	O 	0.91896 0.78830 0.76510 -0.39500
Co	Co	0.42123 0.44098 0.00044 1.12800
N 	N 	0.87397 0.06520 0.66210 -0.20800
N 	N 	0.91073 0.01700 0.75580 -0.16400
N 	N 	0.87738 0.02950 0.85590 -0.21600
C 	C 	0.81170 0.11250 0.70510 0.04100
C 	C 	0.81490 0.08960 0.82790 0.07500
C 	C 	0.75980 0.12690 0.90030 -0.13700
H 	H 	0.76210 0.11210 0.98280 0.06300
C 	C 	0.70300 0.18560 0.84500 0.03600
H 	H 	0.66550 0.21200 0.89110 0.02000
C 	C 	0.69830 0.20850 0.72020 -0.09100
C 	C 	0.75280 0.17300 0.64920 -0.05100
H 	H 	0.75050 0.18870 0.56690 0.06100
C 	C 	0.63310 0.27400 0.66860 0.36500
O 	O 	0.52009 0.41990 0.93200 -0.74300
H 	H 	0.54300 0.35900 0.96500 0.19100
O 	O 	0.63617 0.31030 0.56330 -0.45000
O 	O 	0.58104 0.28830 0.73490 -0.44100
Co	Co	0.92123 0.94098 0.00044 1.14900
N 	N 	0.37397 0.56520 0.66210 -0.21500
N 	N 	0.41073 0.51700 0.75580 -0.18800
N 	N 	0.37738 0.52950 0.85590 -0.22400
C 	C 	0.31170 0.61250 0.70510 0.03400
C 	C 	0.31490 0.58960 0.82790 0.07400
C 	C 	0.25980 0.62690 0.90030 -0.14500
H 	H 	0.26210 0.61210 0.98280 0.06200
C 	C 	0.20300 0.68560 0.84500 0.03700
H 	H 	0.16550 0.71200 0.89110 0.01200
C 	C 	0.19830 0.70850 0.72020 -0.10100
C 	C 	0.25280 0.67300 0.64920 -0.05100
H 	H 	0.25050 0.68870 0.56690 0.05600
C 	C 	0.13310 0.77400 0.66860 0.36600
O 	O 	0.02009 0.91990 0.93200 -0.79200
H 	H 	0.04300 0.85900 0.96500 0.18200
O 	O 	0.13617 0.81030 0.56330 -0.46700
O 	O 	0.08104 0.78830 0.73490 -0.47000
Co	Co	0.50000 0.59553 0.25000 1.15300
Co	Co	0.00000 0.09553 0.25000 1.10600
Co	Co	0.50000 0.40447 0.75000 1.15300
Co	Co	-0.00000 0.90447 0.75000 1.10500
