data_crystal

_cell_length_a 11.04370
_cell_length_b 11.01070
_cell_length_c 11.02220
_cell_angle_alpha 83.36400
_cell_angle_beta  85.87100
_cell_angle_gamma 77.34600

_symmetry_space_group_name_	'P 1'
_symmetry_space_group_name_H-M	'P 1'

loop_
_symmetry_equiv_pos_as_xyz
  x,y,z

loop_
_atom_site_label
_atom_site_type_symbol
_atom_site_fract_x
_atom_site_fract_y
_atom_site_fract_z
_atom_site_charge
Co	Co	0.08690 0.90366 0.25111 1.15500
Co	Co	0.97180 0.85856 0.00277 1.11600
Co	Co	0.85370 0.99996 0.48949 1.11000
O 	O 	0.09250 0.94120 0.06590 -0.70800
O 	O 	0.04800 0.90350 0.43180 -0.62300
O 	O 	0.33000 0.93690 0.43780 -0.42600
O 	O 	0.27900 0.86410 0.26920 -0.42100
O 	O 	0.03860 0.67430 0.07560 -0.44100
O 	O 	0.10310 0.71110 0.25190 -0.43000
N 	N 	0.84250 0.89510 0.14280 -0.22900
N 	N 	0.89000 0.91520 0.24440 -0.19500
N 	N 	0.80470 0.92520 0.33540 -0.21000
N 	N 	0.07430 0.18620 0.16150 -0.22000
N 	N 	0.09520 0.09480 0.25420 -0.19200
N 	N 	0.11570 0.13630 0.35670 -0.21200
C 	C 	0.69570 0.91020 0.29420 0.03800
C 	C 	0.71930 0.89240 0.16840 0.06400
C 	C 	0.50200 0.88060 0.15540 0.03000
H 	H 	0.43780 0.87210 0.10940 0.02100
C 	C 	0.62080 0.87860 0.10040 -0.13400
H 	H 	0.63480 0.86810 0.01770 0.06000
C 	C 	0.48100 0.89560 0.28160 -0.09700
C 	C 	0.57770 0.91220 0.34930 -0.05400
H 	H 	0.56310 0.92470 0.43160 0.06000
C 	C 	0.35700 0.89900 0.33210 0.34900
C 	C 	0.07900 0.29570 0.20900 0.03900
C 	C 	0.10300 0.26430 0.33140 0.07000
C 	C 	0.11300 0.35390 0.41020 -0.13100
H 	H 	0.12120 0.33360 0.49380 0.06800
C 	C 	0.10800 0.47320 0.35490 0.02700
H 	H 	0.11950 0.53480 0.40130 0.03400
C 	C 	0.08600 0.50350 0.23440 -0.07900
C 	C 	0.07000 0.41920 0.15740 -0.06500
H 	H 	0.05380 0.44310 0.07550 0.06500
C 	C 	0.07400 0.64160 0.18310 0.36700
H 	H 	0.18100 0.91900 0.04300 0.16500
H 	H 	0.96800 0.88300 0.44800 0.02900
Co	Co	0.91310 0.09634 0.74889 1.15500
Co	Co	0.02820 0.14144 0.99723 1.11600
Co	Co	0.14630 0.00004 0.51051 1.11000
O 	O 	0.90750 0.05880 0.93410 -0.70800
O 	O 	0.95200 0.09650 0.56820 -0.62300
O 	O 	0.67000 0.06310 0.56220 -0.42600
O 	O 	0.72100 0.13590 0.73080 -0.42100
O 	O 	0.96140 0.32570 0.92440 -0.44100
O 	O 	0.89690 0.28890 0.74810 -0.43000
N 	N 	0.15750 0.10490 0.85720 -0.22900
N 	N 	0.11000 0.08480 0.75560 -0.19500
N 	N 	0.19530 0.07480 0.66460 -0.21000
N 	N 	0.92570 0.81380 0.83850 -0.22000
N 	N 	0.90480 0.90520 0.74580 -0.19200
N 	N 	0.88430 0.86370 0.64330 -0.21200
C 	C 	0.30430 0.08980 0.70580 0.03800
C 	C 	0.28070 0.10760 0.83160 0.06400
C 	C 	0.49800 0.11940 0.84460 0.03000
H 	H 	0.56220 0.12790 0.89060 0.02100
C 	C 	0.37920 0.12140 0.89960 -0.13400
H 	H 	0.36520 0.13190 0.98230 0.06000
C 	C 	0.51900 0.10440 0.71840 -0.09700
C 	C 	0.42230 0.08780 0.65070 -0.05400
H 	H 	0.43690 0.07530 0.56840 0.06000
C 	C 	0.64300 0.10100 0.66790 0.34900
C 	C 	0.92100 0.70430 0.79100 0.03900
C 	C 	0.89700 0.73570 0.66860 0.07000
C 	C 	0.88700 0.64610 0.58980 -0.13100
H 	H 	0.87880 0.66640 0.50620 0.06800
C 	C 	0.89200 0.52680 0.64510 0.02700
H 	H 	0.88050 0.46520 0.59870 0.03400
C 	C 	0.91400 0.49650 0.76560 -0.07900
C 	C 	0.93000 0.58080 0.84260 -0.06500
H 	H 	0.94620 0.55690 0.92450 0.06500
C 	C 	0.92600 0.35840 0.81690 0.36700
H 	H 	0.81900 0.08100 0.95700 0.16500
H 	H 	0.03200 0.11700 0.55200 0.02900
