data_crystal

_cell_length_a 10.91880
_cell_length_b 10.96340
_cell_length_c 11.05640
_cell_angle_alpha 83.33600
_cell_angle_beta  87.08300
_cell_angle_gamma 70.19100

_symmetry_space_group_name_	'P 1'
_symmetry_space_group_name_H-M	'P 1'

loop_
_symmetry_equiv_pos_as_xyz
  x,y,z

loop_
_atom_site_label
_atom_site_type_symbol
_atom_site_fract_x
_atom_site_fract_y
_atom_site_fract_z
_atom_site_charge
Co	Co	0.09333 0.89525 0.25072 1.15100
Co	Co	0.85068 0.01668 0.48226 1.11900
Co	Co	0.97107 0.86351 0.00171 1.11600
N 	N 	0.80030 0.93740 0.33490 -0.20800
N 	N 	0.88190 0.93200 0.23900 -0.19100
N 	N 	0.83450 0.90240 0.14090 -0.22600
N 	N 	0.07620 0.17760 0.16360 -0.21600
N 	N 	0.09360 0.08640 0.25710 -0.18900
N 	N 	0.11370 0.12460 0.36110 -0.21100
C 	C 	0.69580 0.91030 0.29660 0.04000
C 	C 	0.71770 0.88910 0.17360 0.07200
C 	C 	0.62560 0.86240 0.10560 -0.13200
H 	H 	0.63960 0.84970 0.02180 0.05900
C 	C 	0.51530 0.85550 0.16610 0.02700
H 	H 	0.45210 0.83570 0.12360 0.02000
C 	C 	0.49270 0.87720 0.29070 -0.08600
C 	C 	0.58110 0.90500 0.35830 -0.05400
H 	H 	0.56550 0.91970 0.44150 0.05900
C 	C 	0.36430 0.87390 0.34770 0.35400
C 	C 	0.08630 0.28580 0.21040 0.03700
C 	C 	0.10840 0.25200 0.33500 0.06700
C 	C 	0.12110 0.33990 0.41200 -0.13100
H 	H 	0.13580 0.31640 0.49680 0.06300
C 	C 	0.11090 0.46230 0.35720 0.02800
H 	H 	0.11810 0.52540 0.40600 0.02600
C 	C 	0.09000 0.49740 0.23070 -0.08700
C 	C 	0.07790 0.41080 0.15540 -0.05400
H 	H 	0.06440 0.43410 0.07040 0.06100
C 	C 	0.08230 0.63410 0.18000 0.36500
O 	O 	0.10150 0.92990 0.06660 -0.73900
H 	H 	0.18200 0.87900 0.03500 0.18100
O 	O 	0.04600 0.90020 0.42960 -0.72300
H 	H 	0.06400 0.81400 0.47000 0.16900
O 	O 	0.33770 0.90880 0.45420 -0.44600
O 	O 	0.29470 0.83520 0.28500 -0.43300
O 	O 	0.04840 0.67060 0.07020 -0.44900
O 	O 	0.10810 0.70140 0.25250 -0.44200
Co	Co	0.90667 0.10475 0.74928 1.15200
Co	Co	0.14932 0.98332 0.51774 1.12000
Co	Co	0.02893 0.13649 0.99829 1.11700
N 	N 	0.19970 0.06260 0.66510 -0.20700
N 	N 	0.11810 0.06800 0.76100 -0.19000
N 	N 	0.16550 0.09760 0.85910 -0.22500
N 	N 	0.92380 0.82240 0.83640 -0.21600
N 	N 	0.90640 0.91360 0.74290 -0.18900
N 	N 	0.88630 0.87540 0.63890 -0.21100
C 	C 	0.30420 0.08970 0.70340 0.04000
C 	C 	0.28230 0.11090 0.82640 0.07200
C 	C 	0.37440 0.13760 0.89440 -0.13200
H 	H 	0.36040 0.15030 0.97820 0.05900
C 	C 	0.48470 0.14450 0.83390 0.02700
H 	H 	0.54790 0.16430 0.87640 0.02000
C 	C 	0.50730 0.12280 0.70930 -0.08600
C 	C 	0.41890 0.09500 0.64170 -0.05400
H 	H 	0.43450 0.08030 0.55850 0.05900
C 	C 	0.63570 0.12610 0.65230 0.35400
C 	C 	0.91370 0.71420 0.78960 0.03700
C 	C 	0.89160 0.74800 0.66500 0.06700
C 	C 	0.87890 0.66010 0.58800 -0.13100
H 	H 	0.86420 0.68360 0.50320 0.06300
C 	C 	0.88910 0.53770 0.64280 0.02800
H 	H 	0.88190 0.47460 0.59400 0.02600
C 	C 	0.91000 0.50260 0.76930 -0.08700
C 	C 	0.92210 0.58920 0.84460 -0.05400
H 	H 	0.93560 0.56590 0.92960 0.06100
C 	C 	0.91770 0.36590 0.82000 0.36500
O 	O 	0.89850 0.07010 0.93340 -0.73900
H 	H 	0.81800 0.12100 0.96500 0.18100
O 	O 	0.95400 0.09980 0.57040 -0.72300
H 	H 	0.93600 0.18600 0.53000 0.16900
O 	O 	0.66230 0.09120 0.54580 -0.44600
O 	O 	0.70530 0.16480 0.71500 -0.43300
O 	O 	0.95160 0.32940 0.92980 -0.44900
O 	O 	0.89190 0.29860 0.74750 -0.44200
