data_crystal

_cell_length_a 17.62860
_cell_length_b 13.09290
_cell_length_c 11.07270
_cell_angle_alpha 90.00000
_cell_angle_beta  95.59900
_cell_angle_gamma 90.00000

_symmetry_space_group_name_	'P 1'
_symmetry_space_group_name_H-M	'P 1'

loop_
_symmetry_equiv_pos_as_xyz
  x,y,z

loop_
_atom_site_label
_atom_site_type_symbol
_atom_site_fract_x
_atom_site_fract_y
_atom_site_fract_z
_atom_site_charge
Co	Co	0.57870 0.56424 0.99732 1.12400
N 	N 	0.86950 0.93980 0.16330 -0.20700
N 	N 	0.90680 0.98640 0.25600 -0.16400
N 	N 	0.87320 0.97680 0.35710 -0.21600
C 	C 	0.80860 0.89230 0.20850 0.03500
C 	C 	0.81190 0.91590 0.33040 0.08400
C 	C 	0.75810 0.87800 0.40240 -0.14700
H 	H 	0.76170 0.89070 0.48540 0.07000
C 	C 	0.69990 0.82170 0.34690 0.03900
H 	H 	0.66150 0.79890 0.39230 0.02300
C 	C 	0.69610 0.79660 0.22140 -0.09100
C 	C 	0.74920 0.83220 0.14970 -0.05000
H 	H 	0.74640 0.81790 0.06710 0.05800
C 	C 	0.63310 0.72670 0.17110 0.36200
O 	O 	0.47900 0.57720 0.06740 -0.71300
H 	H 	0.46500 0.63500 0.01600 0.14700
O 	O 	0.63630 0.69240 0.06470 -0.45200
O 	O 	0.58150 0.70850 0.23890 -0.43300
Co	Co	0.07870 0.06424 0.99732 1.09800
N 	N 	0.36950 0.43980 0.16330 -0.21300
N 	N 	0.40680 0.48640 0.25600 -0.18800
N 	N 	0.37320 0.47680 0.35710 -0.22400
C 	C 	0.30860 0.39230 0.20850 0.02800
C 	C 	0.31190 0.41590 0.33040 0.08300
C 	C 	0.25810 0.37800 0.40240 -0.15500
H 	H 	0.26170 0.39070 0.48540 0.06800
C 	C 	0.19990 0.32170 0.34690 0.04000
H 	H 	0.16150 0.29890 0.39230 0.01300
C 	C 	0.19610 0.29660 0.22140 -0.10200
C 	C 	0.24920 0.33220 0.14970 -0.05000
H 	H 	0.24640 0.31790 0.06710 0.05500
C 	C 	0.13310 0.22670 0.17110 0.36200
O 	O 	0.97900 0.07720 0.06740 -0.65000
H 	H 	0.96500 0.13500 0.01600 0.16200
O 	O 	0.13630 0.19240 0.06470 -0.46600
O 	O 	0.08150 0.20850 0.23890 -0.46100
Co	Co	0.42130 0.56424 0.50268 1.12000
N 	N 	0.13050 0.93980 0.33670 -0.21800
N 	N 	0.09320 0.98640 0.24400 -0.20000
N 	N 	0.12680 0.97680 0.14290 -0.22900
C 	C 	0.19140 0.89230 0.29150 0.02700
C 	C 	0.18810 0.91590 0.16960 0.08000
C 	C 	0.24190 0.87800 0.09760 -0.15100
H 	H 	0.23830 0.89070 0.01460 0.07000
C 	C 	0.30010 0.82170 0.15310 0.03700
H 	H 	0.33850 0.79890 0.10770 0.02200
C 	C 	0.30390 0.79660 0.27860 -0.09300
C 	C 	0.25080 0.83220 0.35030 -0.05500
H 	H 	0.25360 0.81790 0.43290 0.05900
C 	C 	0.36690 0.72670 0.32890 0.36000
O 	O 	0.52100 0.57720 0.43260 -0.71200
H 	H 	0.53500 0.63500 0.48400 0.14800
O 	O 	0.36370 0.69240 0.43530 -0.45100
O 	O 	0.41850 0.70850 0.26110 -0.43300
Co	Co	0.92130 0.06424 0.50268 1.14500
N 	N 	0.63050 0.43980 0.33670 -0.21300
N 	N 	0.59320 0.48640 0.24400 -0.18700
N 	N 	0.62680 0.47680 0.14290 -0.22300
C 	C 	0.69140 0.39230 0.29150 0.03700
C 	C 	0.68810 0.41590 0.16960 0.08000
C 	C 	0.74190 0.37800 0.09760 -0.14100
H 	H 	0.73830 0.39070 0.01460 0.07000
C 	C 	0.80010 0.32170 0.15310 0.03300
H 	H 	0.83850 0.29890 0.10770 0.03400
C 	C 	0.80390 0.29660 0.27860 -0.07800
C 	C 	0.75080 0.33220 0.35030 -0.05700
H 	H 	0.75360 0.31790 0.43290 0.06400
C 	C 	0.86690 0.22670 0.32890 0.35600
O 	O 	0.02100 0.07720 0.43260 -0.75700
H 	H 	0.03500 0.13500 0.48400 0.13200
O 	O 	0.86370 0.19240 0.43530 -0.43100
O 	O 	0.91850 0.20850 0.26110 -0.38800
Co	Co	0.42130 0.43576 0.00268 1.11900
N 	N 	0.13050 0.06020 0.83670 -0.21800
N 	N 	0.09320 0.01360 0.74400 -0.20100
N 	N 	0.12680 0.02320 0.64290 -0.22900
C 	C 	0.19140 0.10770 0.79150 0.02800
C 	C 	0.18810 0.08410 0.66960 0.08000
C 	C 	0.24190 0.12200 0.59760 -0.15100
H 	H 	0.23830 0.10930 0.51460 0.07000
C 	C 	0.30010 0.17830 0.65310 0.03700
H 	H 	0.33850 0.20110 0.60770 0.02300
C 	C 	0.30390 0.20340 0.77860 -0.09200
C 	C 	0.25080 0.16780 0.85030 -0.05500
H 	H 	0.25360 0.18210 0.93290 0.05900
C 	C 	0.36690 0.27330 0.82890 0.36000
O 	O 	0.52100 0.42280 0.93260 -0.71000
H 	H 	0.53500 0.36500 0.98400 0.14900
O 	O 	0.36370 0.30760 0.93530 -0.45000
O 	O 	0.41850 0.29150 0.76110 -0.43300
Co	Co	0.92130 0.93576 0.00268 1.14100
N 	N 	0.63050 0.56020 0.83670 -0.21200
N 	N 	0.59320 0.51360 0.74400 -0.18700
N 	N 	0.62680 0.52320 0.64290 -0.22200
C 	C 	0.69140 0.60770 0.79150 0.03800
C 	C 	0.68810 0.58410 0.66960 0.08000
C 	C 	0.74190 0.62200 0.59760 -0.14000
H 	H 	0.73830 0.60930 0.51460 0.07100
C 	C 	0.80010 0.67830 0.65310 0.03300
H 	H 	0.83850 0.70110 0.60770 0.03500
C 	C 	0.80390 0.70340 0.77860 -0.07700
C 	C 	0.75080 0.66780 0.85030 -0.05700
H 	H 	0.75360 0.68210 0.93290 0.06700
C 	C 	0.86690 0.77330 0.82890 0.35500
O 	O 	0.02100 0.92280 0.93260 -0.75500
H 	H 	0.03500 0.86500 0.98400 0.13400
O 	O 	0.86370 0.80760 0.93530 -0.42700
O 	O 	0.91850 0.79150 0.76110 -0.38700
Co	Co	0.57870 0.43576 0.49732 1.12100
N 	N 	0.86950 0.06020 0.66330 -0.20700
N 	N 	0.90680 0.01360 0.75600 -0.16400
N 	N 	0.87320 0.02320 0.85710 -0.21500
C 	C 	0.80860 0.10770 0.70850 0.03700
C 	C 	0.81190 0.08410 0.83040 0.08400
C 	C 	0.75810 0.12200 0.90240 -0.14600
H 	H 	0.76170 0.10930 0.98540 0.07100
C 	C 	0.69990 0.17830 0.84690 0.03900
H 	H 	0.66150 0.20110 0.89230 0.02400
C 	C 	0.69610 0.20340 0.72140 -0.09000
C 	C 	0.74920 0.16780 0.64970 -0.05000
H 	H 	0.74640 0.18210 0.56710 0.06000
C 	C 	0.63310 0.27330 0.67110 0.36200
O 	O 	0.47900 0.42280 0.56740 -0.71200
H 	H 	0.46500 0.36500 0.51600 0.14800
O 	O 	0.63630 0.30760 0.56470 -0.45000
O 	O 	0.58150 0.29150 0.73890 -0.43200
Co	Co	0.07870 0.93576 0.49732 1.09800
N 	N 	0.36950 0.56020 0.66330 -0.21300
N 	N 	0.40680 0.51360 0.75600 -0.18700
N 	N 	0.37320 0.52320 0.85710 -0.22300
C 	C 	0.30860 0.60770 0.70850 0.02800
C 	C 	0.31190 0.58410 0.83040 0.08400
C 	C 	0.25810 0.62200 0.90240 -0.15500
H 	H 	0.26170 0.60930 0.98540 0.07000
C 	C 	0.19990 0.67830 0.84690 0.04100
H 	H 	0.16150 0.70110 0.89230 0.01400
C 	C 	0.19610 0.70340 0.72140 -0.10200
C 	C 	0.24920 0.66780 0.64970 -0.05000
H 	H 	0.24640 0.68210 0.56710 0.05500
C 	C 	0.13310 0.77330 0.67110 0.36200
O 	O 	0.97900 0.92280 0.56740 -0.64800
H 	H 	0.96500 0.86500 0.51600 0.16300
O 	O 	0.13630 0.80760 0.56470 -0.46700
O 	O 	0.08150 0.79150 0.73890 -0.46100
Co	Co	0.50000 0.59353 0.25000 1.15100
Co	Co	0.00000 0.09353 0.25000 1.10400
Co	Co	0.50000 0.40647 0.75000 1.15100
Co	Co	0.00000 0.90647 0.75000 1.10300
