data_crystal

_cell_length_a 10.92040
_cell_length_b 10.96030
_cell_length_c 11.05870
_cell_angle_alpha 83.32800
_cell_angle_beta  87.02300
_cell_angle_gamma 70.33000

_symmetry_space_group_name_	'P 1'
_symmetry_space_group_name_H-M	'P 1'

loop_
_symmetry_equiv_pos_as_xyz
  x,y,z

loop_
_atom_site_label
_atom_site_type_symbol
_atom_site_fract_x
_atom_site_fract_y
_atom_site_fract_z
_atom_site_charge
Co	Co	0.09325 0.89520 0.25067 1.15200
Co	Co	0.85082 0.01647 0.48239 1.12000
Co	Co	0.97085 0.86353 0.00176 1.12000
N 	N 	0.80030 0.93710 0.33480 -0.20700
N 	N 	0.88150 0.93130 0.23920 -0.18800
N 	N 	0.83470 0.90310 0.14120 -0.22500
N 	N 	0.07570 0.17800 0.16320 -0.21700
N 	N 	0.09400 0.08520 0.25710 -0.19300
N 	N 	0.11420 0.12560 0.36090 -0.21100
C 	C 	0.69620 0.91060 0.29680 0.03900
C 	C 	0.71830 0.88870 0.17340 0.07200
C 	C 	0.62590 0.86120 0.10680 -0.13600
H 	H 	0.63990 0.84720 0.02330 0.05900
C 	C 	0.51570 0.85550 0.16700 0.03200
H 	H 	0.45240 0.83600 0.12440 0.01700
C 	C 	0.49250 0.87770 0.29110 -0.09200
C 	C 	0.58100 0.90430 0.35790 -0.05000
H 	H 	0.56580 0.91780 0.44150 0.05700
C 	C 	0.36450 0.87460 0.34710 0.35700
C 	C 	0.08630 0.28550 0.20990 0.03900
C 	C 	0.10810 0.25170 0.33540 0.06700
C 	C 	0.12110 0.34060 0.41140 -0.13400
H 	H 	0.13680 0.31710 0.49600 0.06300
C 	C 	0.11000 0.46280 0.35770 0.03000
H 	H 	0.11610 0.52590 0.40700 0.02500
C 	C 	0.08960 0.49860 0.23050 -0.08800
C 	C 	0.07770 0.41020 0.15610 -0.05500
H 	H 	0.06420 0.43330 0.07110 0.06100
C 	C 	0.08190 0.63400 0.18000 0.35800
O 	O 	0.10090 0.92990 0.06600 -0.74600
H 	H 	0.18700 0.88300 0.04700 0.19100
O 	O 	0.04570 0.90010 0.42960 -0.73800
H 	H 	0.04600 0.81900 0.46700 0.18600
O 	O 	0.33760 0.90970 0.45380 -0.44400
O 	O 	0.29440 0.83570 0.28550 -0.43500
O 	O 	0.04710 0.67110 0.06980 -0.44600
O 	O 	0.10790 0.70200 0.25250 -0.44000
Co	Co	0.90675 0.10480 0.74933 1.15200
Co	Co	0.14918 0.98353 0.51761 1.12000
Co	Co	0.02915 0.13647 0.99824 1.12000
N 	N 	0.19970 0.06290 0.66520 -0.20700
N 	N 	0.11850 0.06870 0.76080 -0.18800
N 	N 	0.16530 0.09690 0.85880 -0.22500
N 	N 	0.92430 0.82200 0.83680 -0.21700
N 	N 	0.90600 0.91480 0.74290 -0.19300
N 	N 	0.88580 0.87440 0.63910 -0.21100
C 	C 	0.30380 0.08940 0.70320 0.03900
C 	C 	0.28170 0.11130 0.82660 0.07200
C 	C 	0.37410 0.13880 0.89320 -0.13600
H 	H 	0.36010 0.15280 0.97670 0.05900
C 	C 	0.48430 0.14450 0.83300 0.03200
H 	H 	0.54760 0.16400 0.87560 0.01700
C 	C 	0.50750 0.12230 0.70890 -0.09200
C 	C 	0.41900 0.09570 0.64210 -0.05000
H 	H 	0.43420 0.08220 0.55850 0.05700
C 	C 	0.63550 0.12540 0.65290 0.35700
C 	C 	0.91370 0.71450 0.79010 0.03900
C 	C 	0.89190 0.74830 0.66460 0.06700
C 	C 	0.87890 0.65940 0.58860 -0.13400
H 	H 	0.86320 0.68290 0.50400 0.06300
C 	C 	0.89000 0.53720 0.64230 0.03000
H 	H 	0.88390 0.47410 0.59300 0.02500
C 	C 	0.91040 0.50140 0.76950 -0.08800
C 	C 	0.92230 0.58980 0.84390 -0.05500
H 	H 	0.93580 0.56670 0.92890 0.06100
C 	C 	0.91810 0.36600 0.82000 0.35800
O 	O 	0.89910 0.07010 0.93400 -0.74600
H 	H 	0.81300 0.11700 0.95300 0.19100
O 	O 	0.95430 0.09990 0.57040 -0.73800
H 	H 	0.95400 0.18100 0.53300 0.18600
O 	O 	0.66240 0.09030 0.54620 -0.44400
O 	O 	0.70560 0.16430 0.71450 -0.43500
O 	O 	0.95290 0.32890 0.93020 -0.44600
O 	O 	0.89210 0.29800 0.74750 -0.44000
