data_crystal

_cell_length_a 10.96380
_cell_length_b 10.97180
_cell_length_c 10.98140
_cell_angle_alpha 83.22700
_cell_angle_beta  85.93700
_cell_angle_gamma 81.09300

_symmetry_space_group_name_	'P 1'
_symmetry_space_group_name_H-M	'P 1'

loop_
_symmetry_equiv_pos_as_xyz
  x,y,z

loop_
_atom_site_label
_atom_site_type_symbol
_atom_site_fract_x
_atom_site_fract_y
_atom_site_fract_z
_atom_site_charge
Co	Co	0.08070 0.90650 0.25070 1.15000
Co	Co	0.85550 0.99570 0.49000 1.11100
Co	Co	0.96480 0.85920 0.00480 1.11100
C 	C 	0.68850 0.91600 0.29400 0.03900
C 	C 	0.70970 0.90300 0.17040 0.08100
C 	C 	0.61580 0.89200 0.09640 -0.14400
H 	H 	0.63200 0.88060 0.01380 0.06200
C 	C 	0.49730 0.89700 0.14960 0.03100
H 	H 	0.43220 0.88960 0.10240 0.02100
C 	C 	0.47490 0.91300 0.27320 -0.08000
C 	C 	0.56840 0.92900 0.34530 -0.06600
H 	H 	0.55130 0.94780 0.42570 0.06400
C 	C 	0.34340 0.91900 0.33280 0.35600
C 	C 	0.06470 0.29500 0.21320 0.04000
C 	C 	0.09310 0.26500 0.33580 0.08300
C 	C 	0.10350 0.35300 0.41260 -0.14500
H 	H 	0.12400 0.33060 0.49370 0.07400
C 	C 	0.08260 0.47700 0.36530 0.03500
H 	H 	0.08670 0.53930 0.41540 0.02900
C 	C 	0.05560 0.50900 0.24260 -0.08900
C 	C 	0.04180 0.41900 0.16840 -0.06600
H 	H 	0.01710 0.44150 0.08860 0.06600
C 	C 	0.05040 0.64200 0.18910 0.37200
N 	N 	0.79850 0.92700 0.33750 -0.21100
N 	N 	0.88100 0.91700 0.24460 -0.19100
N 	N 	0.83060 0.90200 0.14190 -0.22900
N 	N 	0.06180 0.18900 0.16600 -0.22400
N 	N 	0.08940 0.10000 0.25570 -0.19300
N 	N 	0.11120 0.14100 0.35910 -0.21900
O 	O 	0.09430 0.93700 0.06430 -0.71500
H 	H 	0.16900 0.88800 0.03500 0.16800
O 	O 	0.04000 0.89900 0.43200 -0.66900
H 	H 	0.10200 0.84100 0.47600 0.11100
O 	O 	0.31780 0.95100 0.43400 -0.46800
O 	O 	0.27240 0.86900 0.26670 -0.42100
O 	O 	0.01190 0.67600 0.08220 -0.44400
O 	O 	0.08190 0.71100 0.25810 -0.42900
Co	Co	0.91930 0.09350 0.74930 1.14900
Co	Co	0.14450 0.00430 0.51000 1.11000
Co	Co	0.03520 0.14080 0.99520 1.11100
C 	C 	0.31150 0.08400 0.70600 0.03900
C 	C 	0.29030 0.09700 0.82960 0.08100
C 	C 	0.38420 0.10800 0.90360 -0.14400
H 	H 	0.36800 0.11940 0.98620 0.06200
C 	C 	0.50270 0.10300 0.85040 0.03100
H 	H 	0.56780 0.11040 0.89760 0.02100
C 	C 	0.52510 0.08700 0.72680 -0.08000
C 	C 	0.43160 0.07100 0.65470 -0.06600
H 	H 	0.44870 0.05220 0.57430 0.06400
C 	C 	0.65660 0.08100 0.66720 0.35600
C 	C 	0.93530 0.70500 0.78680 0.04000
C 	C 	0.90690 0.73500 0.66420 0.08300
C 	C 	0.89650 0.64700 0.58740 -0.14500
H 	H 	0.87600 0.66940 0.50630 0.07400
C 	C 	0.91740 0.52300 0.63470 0.03500
H 	H 	0.91330 0.46070 0.58460 0.02900
C 	C 	0.94440 0.49100 0.75740 -0.08900
C 	C 	0.95820 0.58100 0.83160 -0.06600
H 	H 	0.98290 0.55850 0.91140 0.06600
C 	C 	0.94960 0.35800 0.81090 0.37200
N 	N 	0.20150 0.07300 0.66250 -0.21100
N 	N 	0.11900 0.08300 0.75540 -0.19100
N 	N 	0.16940 0.09800 0.85810 -0.22900
N 	N 	0.93820 0.81100 0.83400 -0.22400
N 	N 	0.91060 0.90000 0.74430 -0.19300
N 	N 	0.88880 0.85900 0.64090 -0.21900
O 	O 	0.90570 0.06300 0.93570 -0.71500
H 	H 	0.83100 0.11200 0.96500 0.16800
O 	O 	0.96000 0.10100 0.56800 -0.66900
H 	H 	0.89800 0.15900 0.52400 0.11100
O 	O 	0.68220 0.04900 0.56600 -0.46800
O 	O 	0.72760 0.13100 0.73330 -0.42100
O 	O 	0.98810 0.32400 0.91780 -0.44400
O 	O 	0.91810 0.28900 0.74190 -0.42900
