data_crystal

_cell_length_a 10.99190
_cell_length_b 10.98430
_cell_length_c 10.98930
_cell_angle_alpha 83.02400
_cell_angle_beta  85.22100
_cell_angle_gamma 81.10400

_symmetry_space_group_name_	'P 1'
_symmetry_space_group_name_H-M	'P 1'

loop_
_symmetry_equiv_pos_as_xyz
  x,y,z

loop_
_atom_site_label
_atom_site_type_symbol
_atom_site_fract_x
_atom_site_fract_y
_atom_site_fract_z
_atom_site_charge
Co	Co	0.08360 0.90702 0.25115 1.14800
Co	Co	0.97040 0.85751 0.00286 1.12200
Co	Co	0.85480 0.99607 0.49096 1.11400
N 	N 	0.83750 0.89420 0.14170 -0.23300
N 	N 	0.88500 0.91290 0.24670 -0.19000
N 	N 	0.79950 0.92650 0.33790 -0.21000
N 	N 	0.07180 0.18960 0.16040 -0.22200
N 	N 	0.09380 0.10030 0.25130 -0.19000
N 	N 	0.11340 0.14070 0.35590 -0.21600
C 	C 	0.69090 0.91700 0.29340 0.02700
C 	C 	0.71460 0.89890 0.16900 0.08900
C 	C 	0.62090 0.88720 0.09800 -0.16800
H 	H 	0.63730 0.87650 0.01530 0.07000
C 	C 	0.50300 0.89130 0.15020 0.06800
H 	H 	0.43910 0.88120 0.10340 0.00800
C 	C 	0.47800 0.91070 0.27430 -0.13600
C 	C 	0.57210 0.92570 0.34550 -0.03500
H 	H 	0.55510 0.94140 0.42690 0.05300
C 	C 	0.36000 0.91180 0.32460 0.35600
C 	C 	0.07900 0.29720 0.21100 0.03400
C 	C 	0.10900 0.26660 0.33010 0.07800
C 	C 	0.11000 0.35560 0.40900 -0.14800
H 	H 	0.11670 0.33410 0.49290 0.07100
C 	C 	0.09900 0.47620 0.35840 0.04100
H 	H 	0.10750 0.53760 0.40730 0.02400
C 	C 	0.07600 0.50910 0.23610 -0.09000
C 	C 	0.06200 0.42220 0.16000 -0.05900
H 	H 	0.04320 0.44490 0.07870 0.06400
C 	C 	0.05900 0.64510 0.18490 0.37200
O 	O 	0.08580 0.94680 0.06570 -0.71900
H 	H 	0.17400 0.93900 0.04900 0.16500
O 	O 	0.04390 0.90440 0.43210 -0.70100
H 	H 	0.09300 0.82600 0.46000 0.14300
O 	O 	0.32470 0.95000 0.43430 -0.42700
O 	O 	0.28200 0.87340 0.26550 -0.42100
O 	O 	0.02490 0.67610 0.08060 -0.45100
O 	O 	0.09370 0.71530 0.25600 -0.43200
Co	Co	0.91640 0.09298 0.74885 1.14900
Co	Co	0.02960 0.14249 0.99714 1.12300
Co	Co	0.14520 0.00393 0.50904 1.11400
N 	N 	0.16250 0.10580 0.85830 -0.23300
N 	N 	0.11500 0.08710 0.75330 -0.19000
N 	N 	0.20050 0.07350 0.66210 -0.21000
N 	N 	0.92820 0.81040 0.83960 -0.22200
N 	N 	0.90620 0.89970 0.74870 -0.19000
N 	N 	0.88660 0.85930 0.64410 -0.21600
C 	C 	0.30910 0.08300 0.70660 0.02700
C 	C 	0.28540 0.10110 0.83100 0.08900
C 	C 	0.37910 0.11280 0.90200 -0.16800
H 	H 	0.36270 0.12350 0.98470 0.07000
C 	C 	0.49700 0.10870 0.84980 0.06800
H 	H 	0.56090 0.11880 0.89660 0.00800
C 	C 	0.52200 0.08930 0.72570 -0.13600
C 	C 	0.42790 0.07430 0.65450 -0.03500
H 	H 	0.44490 0.05860 0.57310 0.05300
C 	C 	0.64000 0.08820 0.67540 0.35600
C 	C 	0.92100 0.70280 0.78900 0.03400
C 	C 	0.89100 0.73340 0.66990 0.07800
C 	C 	0.89000 0.64440 0.59100 -0.14800
H 	H 	0.88330 0.66590 0.50710 0.07100
C 	C 	0.90100 0.52380 0.64160 0.04100
H 	H 	0.89250 0.46240 0.59270 0.02400
C 	C 	0.92400 0.49090 0.76390 -0.09000
C 	C 	0.93800 0.57780 0.84000 -0.05900
H 	H 	0.95680 0.55510 0.92130 0.06400
C 	C 	0.94100 0.35490 0.81510 0.37200
O 	O 	0.91420 0.05320 0.93430 -0.71900
H 	H 	0.82600 0.06100 0.95100 0.16500
O 	O 	0.95610 0.09560 0.56790 -0.70100
H 	H 	0.90700 0.17400 0.54000 0.14300
O 	O 	0.67530 0.05000 0.56570 -0.42700
O 	O 	0.71800 0.12660 0.73450 -0.42100
O 	O 	0.97510 0.32390 0.91940 -0.45100
O 	O 	0.90630 0.28470 0.74400 -0.43200
