data_crystal

_cell_length_a 16.89400
_cell_length_b 14.01400
_cell_length_c 11.00330
_cell_angle_alpha 90.00000
_cell_angle_beta  98.28700
_cell_angle_gamma 90.00000

_symmetry_space_group_name_	'P 1'
_symmetry_space_group_name_H-M	'P 1'

loop_
_symmetry_equiv_pos_as_xyz
  x,y,z

loop_
_atom_site_label
_atom_site_type_symbol
_atom_site_fract_x
_atom_site_fract_y
_atom_site_fract_z
_atom_site_charge
Co	Co	0.92339 0.93220 0.00590 1.15000
N 	N 	0.86580 0.94100 0.16180 -0.20600
N 	N 	0.90510 0.99620 0.25260 -0.17400
N 	N 	0.87340 0.98090 0.35800 -0.20700
C 	C 	0.80790 0.89030 0.21060 0.03800
C 	C 	0.81390 0.91540 0.33300 0.08100
C 	C 	0.76420 0.87510 0.40850 -0.14600
H 	H 	0.76850 0.89050 0.49140 0.07000
C 	C 	0.70810 0.81140 0.35440 0.03900
H 	H 	0.67140 0.78590 0.40100 0.02100
C 	C 	0.70440 0.78390 0.23300 -0.08800
C 	C 	0.75560 0.82130 0.16000 -0.05600
H 	H 	0.75500 0.80080 0.07950 0.06100
C 	C 	0.63790 0.71390 0.17990 0.37800
O 	O 	0.97560 0.07030 0.06630 -0.65400
H 	H 	0.94700 0.12900 0.04800 0.17600
O 	O 	0.64180 0.68260 0.07470 -0.46000
O 	O 	0.58570 0.69600 0.24650 -0.45200
Co	Co	0.42339 0.43220 0.00590 1.12500
N 	N 	0.36580 0.44100 0.16180 -0.21100
N 	N 	0.40510 0.49620 0.25260 -0.19800
N 	N 	0.37340 0.48090 0.35800 -0.21600
C 	C 	0.30790 0.39030 0.21060 0.02900
C 	C 	0.31390 0.41540 0.33300 0.07900
C 	C 	0.26420 0.37510 0.40850 -0.15500
H 	H 	0.26850 0.39050 0.49140 0.06800
C 	C 	0.20810 0.31140 0.35440 0.04000
H 	H 	0.17140 0.28590 0.40100 0.01100
C 	C 	0.20440 0.28390 0.23300 -0.09900
C 	C 	0.25560 0.32130 0.16000 -0.05700
H 	H 	0.25500 0.30080 0.07950 0.05700
C 	C 	0.13790 0.21390 0.17990 0.37700
O 	O 	0.47560 0.57030 0.06630 -0.72200
H 	H 	0.44700 0.62900 0.04800 0.16800
O 	O 	0.14180 0.18260 0.07470 -0.47400
O 	O 	0.08570 0.19600 0.24650 -0.48000
Co	Co	0.07661 0.93220 0.49410 1.10200
N 	N 	0.13420 0.94100 0.33820 -0.21600
N 	N 	0.09490 0.99620 0.24740 -0.21100
N 	N 	0.12660 0.98090 0.14200 -0.22300
C 	C 	0.19210 0.89030 0.28940 0.02800
C 	C 	0.18610 0.91540 0.16700 0.07600
C 	C 	0.23580 0.87510 0.09150 -0.15200
H 	H 	0.23150 0.89050 0.00860 0.07000
C 	C 	0.29190 0.81140 0.14560 0.03700
H 	H 	0.32860 0.78590 0.09900 0.02000
C 	C 	0.29560 0.78390 0.26700 -0.09200
C 	C 	0.24440 0.82130 0.34000 -0.06100
H 	H 	0.24500 0.80080 0.42050 0.05900
C 	C 	0.36210 0.71390 0.32010 0.37600
O 	O 	0.02440 0.07030 0.43370 -0.77400
H 	H 	0.05300 0.12900 0.45200 0.16200
O 	O 	0.35820 0.68260 0.42530 -0.46100
O 	O 	0.41430 0.69600 0.25350 -0.45300
Co	Co	0.57661 0.43220 0.49410 1.12700
N 	N 	0.63420 0.44100 0.33820 -0.21100
N 	N 	0.59490 0.49620 0.24740 -0.19700
N 	N 	0.62660 0.48090 0.14200 -0.21400
C 	C 	0.69210 0.39030 0.28940 0.04000
C 	C 	0.68610 0.41540 0.16700 0.07700
C 	C 	0.73580 0.37510 0.09150 -0.14000
H 	H 	0.73150 0.39050 0.00860 0.07100
C 	C 	0.79190 0.31140 0.14560 0.03300
H 	H 	0.82860 0.28590 0.09900 0.03200
C 	C 	0.79560 0.28390 0.26700 -0.07700
C 	C 	0.74440 0.32130 0.34000 -0.06200
H 	H 	0.74500 0.30080 0.42050 0.06600
C 	C 	0.86210 0.21390 0.32010 0.37200
O 	O 	0.52440 0.57030 0.43370 -0.72100
H 	H 	0.55300 0.62900 0.45200 0.16900
O 	O 	0.85820 0.18260 0.42530 -0.44000
O 	O 	0.91430 0.19600 0.25350 -0.40800
Co	Co	0.07661 0.06780 0.99410 1.10200
N 	N 	0.13420 0.05900 0.83820 -0.21600
N 	N 	0.09490 0.00380 0.74740 -0.21100
N 	N 	0.12660 0.01910 0.64200 -0.22300
C 	C 	0.19210 0.10970 0.78940 0.02800
C 	C 	0.18610 0.08460 0.66700 0.07600
C 	C 	0.23580 0.12490 0.59150 -0.15100
H 	H 	0.23150 0.10950 0.50860 0.07100
C 	C 	0.29190 0.18860 0.64560 0.03700
H 	H 	0.32860 0.21410 0.59900 0.02100
C 	C 	0.29560 0.21610 0.76700 -0.09200
C 	C 	0.24440 0.17870 0.84000 -0.06100
H 	H 	0.24500 0.19920 0.92050 0.05900
C 	C 	0.36210 0.28610 0.82010 0.37600
O 	O 	0.02440 0.92970 0.93370 -0.77100
H 	H 	0.05300 0.87100 0.95200 0.16300
O 	O 	0.35820 0.31740 0.92530 -0.46000
O 	O 	0.41430 0.30400 0.75350 -0.45300
Co	Co	0.57661 0.56780 0.99410 1.12900
N 	N 	0.63420 0.55900 0.83820 -0.21000
N 	N 	0.59490 0.50380 0.74740 -0.19700
N 	N 	0.62660 0.51910 0.64200 -0.21400
C 	C 	0.69210 0.60970 0.78940 0.04100
C 	C 	0.68610 0.58460 0.66700 0.07700
C 	C 	0.73580 0.62490 0.59150 -0.13900
H 	H 	0.73150 0.60950 0.50860 0.07200
C 	C 	0.79190 0.68860 0.64560 0.03300
H 	H 	0.82860 0.71410 0.59900 0.03300
C 	C 	0.79560 0.71610 0.76700 -0.07500
C 	C 	0.74440 0.67870 0.84000 -0.06300
H 	H 	0.74500 0.69920 0.92050 0.06800
C 	C 	0.86210 0.78610 0.82010 0.37100
O 	O 	0.52440 0.42970 0.93370 -0.72000
H 	H 	0.55300 0.37100 0.95200 0.16900
O 	O 	0.85820 0.81740 0.92530 -0.43700
O 	O 	0.91430 0.80400 0.75350 -0.40600
Co	Co	0.92339 0.06780 0.50590 1.15300
N 	N 	0.86580 0.05900 0.66180 -0.20500
N 	N 	0.90510 0.00380 0.75260 -0.17400
N 	N 	0.87340 0.01910 0.85800 -0.20600
C 	C 	0.80790 0.10970 0.71060 0.03900
C 	C 	0.81390 0.08460 0.83300 0.08100
C 	C 	0.76420 0.12490 0.90850 -0.14500
H 	H 	0.76850 0.10950 0.99140 0.07100
C 	C 	0.70810 0.18860 0.85440 0.03900
H 	H 	0.67140 0.21410 0.90100 0.02200
C 	C 	0.70440 0.21610 0.73300 -0.08700
C 	C 	0.75560 0.17870 0.66000 -0.05600
H 	H 	0.75500 0.19920 0.57950 0.06300
C 	C 	0.63790 0.28610 0.67990 0.37700
O 	O 	0.97560 0.92970 0.56630 -0.65300
H 	H 	0.94700 0.87100 0.54800 0.17600
O 	O 	0.64180 0.31740 0.57470 -0.45800
O 	O 	0.58570 0.30400 0.74650 -0.45200
Co	Co	0.42339 0.56780 0.50590 1.12600
N 	N 	0.36580 0.55900 0.66180 -0.21100
N 	N 	0.40510 0.50380 0.75260 -0.19800
N 	N 	0.37340 0.51910 0.85800 -0.21600
C 	C 	0.30790 0.60970 0.71060 0.02900
C 	C 	0.31390 0.58460 0.83300 0.07900
C 	C 	0.26420 0.62490 0.90850 -0.15500
H 	H 	0.26850 0.60950 0.99140 0.06900
C 	C 	0.20810 0.68860 0.85440 0.04000
H 	H 	0.17140 0.71410 0.90100 0.01100
C 	C 	0.20440 0.71610 0.73300 -0.09900
C 	C 	0.25560 0.67870 0.66000 -0.05700
H 	H 	0.25500 0.69920 0.57950 0.05700
C 	C 	0.13790 0.78610 0.67990 0.37700
O 	O 	0.47560 0.42970 0.56630 -0.72100
H 	H 	0.44700 0.37100 0.54800 0.16800
O 	O 	0.14180 0.81740 0.57470 -0.47500
O 	O 	0.08570 0.80400 0.74650 -0.48000
Co	Co	0.00000 0.09140 0.25000 1.10800
Co	Co	0.50000 0.59140 0.25000 1.15600
Co	Co	0.00000 0.90860 0.75000 1.10700
Co	Co	0.50000 0.40860 0.75000 1.15600
