data_crystal

_cell_length_a 16.80140
_cell_length_b 14.17300
_cell_length_c 33.18130
_cell_angle_alpha 90.00000
_cell_angle_beta  96.64100
_cell_angle_gamma 90.00000

_symmetry_space_group_name_	'P 1'
_symmetry_space_group_name_H-M	'P 1'

loop_
_symmetry_equiv_pos_as_xyz
  x,y,z

loop_
_atom_site_label
_atom_site_type_symbol
_atom_site_fract_x
_atom_site_fract_y
_atom_site_fract_z
_atom_site_charge
Co	Co	0.00688 0.09479 0.41734 1.13000
Co	Co	0.92549 0.07049 0.50288 1.13000
Co	Co	0.91897 0.95850 0.33322 1.12900
Co	Co	0.09000 0.06817 0.33554 1.12200
C 	C 	0.18820 0.13680 0.26390 0.03800
C 	C 	0.18690 0.11180 0.22380 0.06300
C 	C 	0.23720 0.15120 0.19630 -0.12800
H 	H 	0.23480 0.13390 0.16920 0.05900
C 	C 	0.29070 0.21870 0.21470 0.01400
H 	H 	0.32460 0.25040 0.19900 0.03000
C 	C 	0.29410 0.24000 0.25700 -0.07700
C 	C 	0.24280 0.20070 0.28160 -0.06900
H 	H 	0.24500 0.21650 0.30890 0.06500
C 	C 	0.35990 0.30900 0.27390 0.35900
C 	C 	0.31590 0.39770 0.40410 0.03400
C 	C 	0.31640 0.41950 0.44440 0.06700
C 	C 	0.26740 0.38010 0.46990 -0.14400
H 	H 	0.27050 0.39610 0.49720 0.06700
C 	C 	0.21240 0.31410 0.45220 0.03300
H 	H 	0.17570 0.28760 0.46780 0.02300
C 	C 	0.21080 0.28690 0.41200 -0.09400
C 	C 	0.26050 0.32800 0.38810 -0.05700
H 	H 	0.25850 0.31040 0.36100 0.06100
C 	C 	0.14840 0.21530 0.39490 0.37900
C 	C 	0.19660 0.91680 0.39140 0.08600
C 	C 	0.19890 0.88980 0.43160 0.02600
C 	C 	0.30630 0.81480 0.38410 0.03400
H 	H 	0.34410 0.78890 0.36900 0.02000
C 	C 	0.30810 0.79200 0.42680 -0.08800
C 	C 	0.25190 0.82750 0.44920 -0.05600
H 	H 	0.25040 0.80890 0.47590 0.06000
C 	C 	0.24970 0.87360 0.36640 -0.14600
H 	H 	0.24540 0.88560 0.33860 0.06800
C 	C 	0.37130 0.72200 0.44430 0.36300
N 	N 	0.12940 0.08150 0.28000 -0.21900
N 	N 	0.09440 0.03070 0.24950 -0.19000
N 	N 	0.12540 0.04780 0.21540 -0.21700
N 	N 	0.37230 0.45100 0.38750 -0.22400
N 	N 	0.40560 0.50360 0.41840 -0.19100
N 	N 	0.37380 0.49150 0.45340 -0.22100
N 	N 	0.13740 0.97850 0.38120 -0.22700
N 	N 	0.10170 0.98970 0.41500 -0.19100
N 	N 	0.13670 0.94110 0.44650 -0.21200
O 	O 	0.02370 0.94060 0.31170 -0.71700
O 	O 	0.98540 0.08630 0.35560 -0.70100
O 	O 	0.02930 0.06880 0.47760 -0.73800
O 	O 	0.35370 0.34640 0.30800 -0.45700
O 	O 	0.41430 0.32620 0.25200 -0.44300
O 	O 	0.15320 0.18300 0.36030 -0.46600
O 	O 	0.09830 0.19400 0.41830 -0.45500
O 	O 	0.36550 0.68760 0.47850 -0.45600
O 	O 	0.42770 0.70720 0.42270 -0.43400
H 	H 	0.06900 0.10300 0.49500 0.16500
H 	H 	0.02700 0.87700 0.32200 0.13900
H 	H 	0.95600 0.14300 0.34700 0.17700
Co	Co	0.50688 0.59479 0.41734 1.15000
Co	Co	0.42549 0.57049 0.50288 1.12100
Co	Co	0.41897 0.45850 0.33322 1.12000
Co	Co	0.59000 0.56817 0.33554 1.13300
C 	C 	0.68820 0.63680 0.26390 0.04200
C 	C 	0.68690 0.61180 0.22380 0.06400
C 	C 	0.73720 0.65120 0.19630 -0.12400
H 	H 	0.73480 0.63390 0.16920 0.06000
C 	C 	0.79070 0.71870 0.21470 0.01400
H 	H 	0.82460 0.75040 0.19900 0.03300
C 	C 	0.79410 0.74000 0.25700 -0.07100
C 	C 	0.74280 0.70070 0.28160 -0.06900
H 	H 	0.74500 0.71650 0.30890 0.06800
C 	C 	0.85990 0.80900 0.27390 0.35800
C 	C 	0.81590 0.89770 0.40410 0.03800
C 	C 	0.81640 0.91950 0.44440 0.06800
C 	C 	0.76740 0.88010 0.46990 -0.13900
H 	H 	0.77050 0.89610 0.49720 0.06800
C 	C 	0.71240 0.81410 0.45220 0.03300
H 	H 	0.67570 0.78760 0.46780 0.02800
C 	C 	0.71080 0.78690 0.41200 -0.08900
C 	C 	0.76050 0.82800 0.38810 -0.05600
H 	H 	0.75850 0.81040 0.36100 0.06300
C 	C 	0.64840 0.71530 0.39490 0.38000
C 	C 	0.69660 0.41680 0.39140 0.08700
C 	C 	0.69890 0.38980 0.43160 0.03100
C 	C 	0.80630 0.31480 0.38410 0.03300
H 	H 	0.84410 0.28890 0.36900 0.02400
C 	C 	0.80810 0.29200 0.42680 -0.08200
C 	C 	0.75190 0.32750 0.44920 -0.05700
H 	H 	0.75040 0.30890 0.47590 0.06300
C 	C 	0.74970 0.37360 0.36640 -0.14100
H 	H 	0.74540 0.38560 0.33860 0.06900
C 	C 	0.87130 0.22200 0.44430 0.36100
N 	N 	0.62940 0.58150 0.28000 -0.21600
N 	N 	0.59440 0.53070 0.24950 -0.18500
N 	N 	0.62540 0.54780 0.21540 -0.21400
N 	N 	0.87230 0.95100 0.38750 -0.22100
N 	N 	0.90560 0.00360 0.41840 -0.18100
N 	N 	0.87380 0.99150 0.45340 -0.21700
N 	N 	0.63740 0.47850 0.38120 -0.22400
N 	N 	0.60170 0.48970 0.41500 -0.18600
N 	N 	0.63670 0.44110 0.44650 -0.21000
O 	O 	0.52370 0.44060 0.31170 -0.69900
O 	O 	0.48540 0.58630 0.35560 -0.72900
O 	O 	0.52930 0.56880 0.47760 -0.71700
O 	O 	0.85370 0.84640 0.30800 -0.44900
O 	O 	0.91430 0.82620 0.25200 -0.42500
O 	O 	0.65320 0.68300 0.36030 -0.45900
O 	O 	0.59830 0.69400 0.41830 -0.44400
O 	O 	0.86550 0.18760 0.47850 -0.44800
O 	O 	0.92770 0.20720 0.42270 -0.41500
H 	H 	0.56900 0.60300 0.49500 0.16700
H 	H 	0.52700 0.37700 0.32200 0.14700
H 	H 	0.45600 0.64300 0.34700 0.17400
Co	Co	0.99312 0.09479 0.08266 1.17000
Co	Co	0.07451 0.07049 0.99712 1.11100
Co	Co	0.08103 0.95850 0.16678 1.11100
Co	Co	0.91000 0.06817 0.16446 1.14200
C 	C 	0.81180 0.13680 0.23610 0.04300
C 	C 	0.81310 0.11180 0.27620 0.06400
C 	C 	0.76280 0.15120 0.30370 -0.12500
H 	H 	0.76520 0.13390 0.33080 0.05900
C 	C 	0.70930 0.21870 0.28530 0.01500
H 	H 	0.67540 0.25040 0.30100 0.03000
C 	C 	0.70590 0.24000 0.24300 -0.07400
C 	C 	0.75720 0.20070 0.21840 -0.06700
H 	H 	0.75500 0.21650 0.19110 0.06700
C 	C 	0.64010 0.30900 0.22610 0.35900
C 	C 	0.68410 0.39770 0.09590 0.03700
C 	C 	0.68360 0.41950 0.05560 0.06700
C 	C 	0.73260 0.38010 0.03010 -0.13800
H 	H 	0.72950 0.39610 0.00280 0.06900
C 	C 	0.78760 0.31410 0.04780 0.03200
H 	H 	0.82430 0.28760 0.03220 0.03200
C 	C 	0.78920 0.28690 0.08800 -0.08700
C 	C 	0.73950 0.32800 0.11190 -0.05700
H 	H 	0.74150 0.31040 0.13900 0.06400
C 	C 	0.85160 0.21530 0.10510 0.38000
C 	C 	0.80340 0.91680 0.10860 0.08700
C 	C 	0.80110 0.88980 0.06840 0.03000
C 	C 	0.69370 0.81480 0.11590 0.03500
H 	H 	0.65590 0.78890 0.13100 0.02000
C 	C 	0.69190 0.79200 0.07320 -0.08600
C 	C 	0.74810 0.82750 0.05080 -0.05500
H 	H 	0.74960 0.80890 0.02410 0.06100
C 	C 	0.75030 0.87360 0.13360 -0.14300
H 	H 	0.75460 0.88560 0.16140 0.06800
C 	C 	0.62870 0.72200 0.05570 0.36400
N 	N 	0.87060 0.08150 0.22000 -0.21400
N 	N 	0.90560 0.03070 0.25050 -0.17500
N 	N 	0.87460 0.04780 0.28460 -0.21100
N 	N 	0.62770 0.45100 0.11250 -0.22400
N 	N 	0.59440 0.50360 0.08160 -0.19100
N 	N 	0.62620 0.49150 0.04660 -0.22000
N 	N 	0.86260 0.97850 0.11880 -0.22300
N 	N 	0.89830 0.98970 0.08500 -0.18100
N 	N 	0.86330 0.94110 0.05350 -0.20900
O 	O 	0.97630 0.94060 0.18830 -0.67600
O 	O 	0.01460 0.08630 0.14440 -0.75600
O 	O 	0.97070 0.06880 0.02240 -0.69500
O 	O 	0.64630 0.34640 0.19200 -0.45500
O 	O 	0.58570 0.32620 0.24800 -0.44300
O 	O 	0.84680 0.18300 0.13970 -0.45400
O 	O 	0.90170 0.19400 0.08170 -0.43300
O 	O 	0.63450 0.68760 0.02150 -0.45500
O 	O 	0.57230 0.70720 0.07730 -0.43400
H 	H 	0.93100 0.10300 0.00500 0.16800
H 	H 	0.97300 0.87700 0.17800 0.15500
H 	H 	0.04400 0.14300 0.15300 0.17100
Co	Co	0.49312 0.59479 0.08266 1.15000
Co	Co	0.57451 0.57049 0.99712 1.12200
Co	Co	0.58103 0.45850 0.16678 1.12000
Co	Co	0.41000 0.56817 0.16446 1.13200
C 	C 	0.31180 0.63680 0.23610 0.03900
C 	C 	0.31310 0.61180 0.27620 0.06300
C 	C 	0.26280 0.65120 0.30370 -0.12800
H 	H 	0.26520 0.63390 0.33080 0.05700
C 	C 	0.20930 0.71870 0.28530 0.01400
H 	H 	0.17540 0.75040 0.30100 0.02700
C 	C 	0.20590 0.74000 0.24300 -0.07900
C 	C 	0.25720 0.70070 0.21840 -0.06800
H 	H 	0.25500 0.71650 0.19110 0.06500
C 	C 	0.14010 0.80900 0.22610 0.35900
C 	C 	0.18410 0.89770 0.09590 0.03300
C 	C 	0.18360 0.91950 0.05560 0.06600
C 	C 	0.23260 0.88010 0.03010 -0.14200
H 	H 	0.22950 0.89610 0.00280 0.06800
C 	C 	0.28760 0.81410 0.04780 0.03300
H 	H 	0.32430 0.78760 0.03220 0.02800
C 	C 	0.28920 0.78690 0.08800 -0.09200
C 	C 	0.23950 0.82800 0.11190 -0.05800
H 	H 	0.24150 0.81040 0.13900 0.06100
C 	C 	0.35160 0.71530 0.10510 0.37900
C 	C 	0.30340 0.41680 0.10860 0.08700
C 	C 	0.30110 0.38980 0.06840 0.02600
C 	C 	0.19370 0.31480 0.11590 0.03600
H 	H 	0.15590 0.28890 0.13100 0.01500
C 	C 	0.19190 0.29200 0.07320 -0.09200
C 	C 	0.24810 0.32750 0.05080 -0.05400
H 	H 	0.24960 0.30890 0.02410 0.05900
C 	C 	0.25030 0.37360 0.13360 -0.14700
H 	H 	0.25460 0.38560 0.16140 0.06700
C 	C 	0.12870 0.22200 0.05570 0.36500
N 	N 	0.37060 0.58150 0.22000 -0.21700
N 	N 	0.40560 0.53070 0.25050 -0.18500
N 	N 	0.37460 0.54780 0.28460 -0.21400
N 	N 	0.12770 0.95100 0.11250 -0.22700
N 	N 	0.09440 0.00360 0.08160 -0.19900
N 	N 	0.12620 0.99150 0.04660 -0.22400
N 	N 	0.36260 0.47850 0.11880 -0.22500
N 	N 	0.39830 0.48970 0.08500 -0.18600
N 	N 	0.36330 0.44110 0.05350 -0.21100
O 	O 	0.47630 0.44060 0.18830 -0.70000
O 	O 	0.51460 0.58630 0.14440 -0.72900
O 	O 	0.47070 0.56880 0.02240 -0.71700
O 	O 	0.14630 0.84640 0.19200 -0.46200
O 	O 	0.08570 0.82620 0.24800 -0.45400
O 	O 	0.34680 0.68300 0.13970 -0.46100
O 	O 	0.40170 0.69400 0.08170 -0.44400
O 	O 	0.13450 0.18760 0.02150 -0.46200
O 	O 	0.07230 0.20720 0.07730 -0.45200
H 	H 	0.43100 0.60300 0.00500 0.16700
H 	H 	0.47300 0.37700 0.17800 0.14700
H 	H 	0.54400 0.64300 0.15300 0.17400
Co	Co	0.99312 0.90521 0.58266 1.17000
Co	Co	0.07451 0.92951 0.49712 1.11100
Co	Co	0.08103 0.04150 0.66678 1.11100
Co	Co	0.91000 0.93183 0.66446 1.14200
C 	C 	0.81180 0.86320 0.73610 0.04300
C 	C 	0.81310 0.88820 0.77620 0.06400
C 	C 	0.76280 0.84880 0.80370 -0.12500
H 	H 	0.76520 0.86610 0.83080 0.05900
C 	C 	0.70930 0.78130 0.78530 0.01500
H 	H 	0.67540 0.74960 0.80100 0.03000
C 	C 	0.70590 0.76000 0.74300 -0.07400
C 	C 	0.75720 0.79930 0.71840 -0.06700
H 	H 	0.75500 0.78350 0.69110 0.06700
C 	C 	0.64010 0.69100 0.72610 0.35900
C 	C 	0.68410 0.60230 0.59590 0.03700
C 	C 	0.68360 0.58050 0.55560 0.06700
C 	C 	0.73260 0.61990 0.53010 -0.13800
H 	H 	0.72950 0.60390 0.50280 0.06900
C 	C 	0.78760 0.68590 0.54780 0.03200
H 	H 	0.82430 0.71240 0.53220 0.03200
C 	C 	0.78920 0.71310 0.58800 -0.08700
C 	C 	0.73950 0.67200 0.61190 -0.05700
H 	H 	0.74150 0.68960 0.63900 0.06400
C 	C 	0.85160 0.78470 0.60510 0.38000
C 	C 	0.80340 0.08320 0.60860 0.08700
C 	C 	0.80110 0.11020 0.56840 0.03100
C 	C 	0.69370 0.18520 0.61590 0.03500
H 	H 	0.65590 0.21110 0.63100 0.02000
C 	C 	0.69190 0.20800 0.57320 -0.08600
C 	C 	0.74810 0.17250 0.55080 -0.05500
H 	H 	0.74960 0.19110 0.52410 0.06100
C 	C 	0.75030 0.12640 0.63360 -0.14300
H 	H 	0.75460 0.11440 0.66140 0.06800
C 	C 	0.62870 0.27800 0.55570 0.36400
N 	N 	0.87060 0.91850 0.72000 -0.21400
N 	N 	0.90560 0.96930 0.75050 -0.17500
N 	N 	0.87460 0.95220 0.78460 -0.21100
N 	N 	0.62770 0.54900 0.61250 -0.22400
N 	N 	0.59440 0.49640 0.58160 -0.19100
N 	N 	0.62620 0.50850 0.54660 -0.22000
N 	N 	0.86260 0.02150 0.61880 -0.22300
N 	N 	0.89830 0.01030 0.58500 -0.18100
N 	N 	0.86330 0.05890 0.55350 -0.20900
O 	O 	0.97630 0.05940 0.68830 -0.67600
O 	O 	0.01460 0.91370 0.64440 -0.75700
O 	O 	0.97070 0.93120 0.52240 -0.69500
O 	O 	0.64630 0.65360 0.69200 -0.45500
O 	O 	0.58570 0.67380 0.74800 -0.44300
O 	O 	0.84680 0.81700 0.63970 -0.45400
O 	O 	0.90170 0.80600 0.58170 -0.43300
O 	O 	0.63450 0.31240 0.52150 -0.45500
O 	O 	0.57230 0.29280 0.57730 -0.43300
H 	H 	0.93100 0.89700 0.50500 0.16800
H 	H 	0.97300 0.12300 0.67800 0.15600
H 	H 	0.04400 0.85700 0.65300 0.17100
Co	Co	0.49312 0.40521 0.58266 1.15000
Co	Co	0.57451 0.42951 0.49712 1.12100
Co	Co	0.58103 0.54150 0.66678 1.12000
Co	Co	0.41000 0.43183 0.66446 1.13200
C 	C 	0.31180 0.36320 0.73610 0.03900
C 	C 	0.31310 0.38820 0.77620 0.06300
C 	C 	0.26280 0.34880 0.80370 -0.12800
H 	H 	0.26520 0.36610 0.83080 0.05700
C 	C 	0.20930 0.28130 0.78530 0.01400
H 	H 	0.17540 0.24960 0.80100 0.02700
C 	C 	0.20590 0.26000 0.74300 -0.07900
C 	C 	0.25720 0.29930 0.71840 -0.06800
H 	H 	0.25500 0.28350 0.69110 0.06500
C 	C 	0.14010 0.19100 0.72610 0.35900
C 	C 	0.18410 0.10230 0.59590 0.03300
C 	C 	0.18360 0.08050 0.55560 0.06600
C 	C 	0.23260 0.11990 0.53010 -0.14200
H 	H 	0.22950 0.10390 0.50280 0.06800
C 	C 	0.28760 0.18590 0.54780 0.03200
H 	H 	0.32430 0.21240 0.53220 0.02700
C 	C 	0.28920 0.21310 0.58800 -0.09200
C 	C 	0.23950 0.17200 0.61190 -0.05800
H 	H 	0.24150 0.18960 0.63900 0.06100
C 	C 	0.35160 0.28470 0.60510 0.37900
C 	C 	0.30340 0.58320 0.60860 0.08700
C 	C 	0.30110 0.61020 0.56840 0.02600
C 	C 	0.19370 0.68520 0.61590 0.03600
H 	H 	0.15590 0.71110 0.63100 0.01500
C 	C 	0.19190 0.70800 0.57320 -0.09300
C 	C 	0.24810 0.67250 0.55080 -0.05400
H 	H 	0.24960 0.69110 0.52410 0.05900
C 	C 	0.25030 0.62640 0.63360 -0.14800
H 	H 	0.25460 0.61440 0.66140 0.06700
C 	C 	0.12870 0.77800 0.55570 0.36600
N 	N 	0.37060 0.41850 0.72000 -0.21700
N 	N 	0.40560 0.46930 0.75050 -0.18500
N 	N 	0.37460 0.45220 0.78460 -0.21400
N 	N 	0.12770 0.04900 0.61250 -0.22700
N 	N 	0.09440 0.99640 0.58160 -0.20000
N 	N 	0.12620 0.00850 0.54660 -0.22400
N 	N 	0.36260 0.52150 0.61880 -0.22500
N 	N 	0.39830 0.51030 0.58500 -0.18600
N 	N 	0.36330 0.55890 0.55350 -0.21100
O 	O 	0.47630 0.55940 0.68830 -0.70000
O 	O 	0.51460 0.41370 0.64440 -0.72900
O 	O 	0.47070 0.43120 0.52240 -0.71700
O 	O 	0.14630 0.15360 0.69200 -0.46200
O 	O 	0.08570 0.17380 0.74800 -0.45400
O 	O 	0.34680 0.31700 0.63970 -0.46100
O 	O 	0.40170 0.30600 0.58170 -0.44400
O 	O 	0.13450 0.81240 0.52150 -0.46300
O 	O 	0.07230 0.79280 0.57730 -0.45200
H 	H 	0.43100 0.39700 0.50500 0.16600
H 	H 	0.47300 0.62300 0.67800 0.14700
H 	H 	0.54400 0.35700 0.65300 0.17400
Co	Co	0.00688 0.90521 0.91734 1.13100
Co	Co	0.92549 0.92951 0.00288 1.13100
Co	Co	0.91897 0.04150 0.83322 1.13000
Co	Co	0.09000 0.93183 0.83554 1.12300
C 	C 	0.18820 0.86320 0.76390 0.03700
C 	C 	0.18690 0.88820 0.72380 0.06300
C 	C 	0.23720 0.84880 0.69630 -0.12800
H 	H 	0.23480 0.86610 0.66920 0.05900
C 	C 	0.29070 0.78130 0.71470 0.01400
H 	H 	0.32460 0.74960 0.69900 0.03000
C 	C 	0.29410 0.76000 0.75700 -0.07700
C 	C 	0.24280 0.79930 0.78160 -0.06900
H 	H 	0.24500 0.78350 0.80890 0.06500
C 	C 	0.35990 0.69100 0.77390 0.35900
C 	C 	0.31590 0.60230 0.90410 0.03400
C 	C 	0.31640 0.58050 0.94440 0.06700
C 	C 	0.26740 0.61990 0.96990 -0.14400
H 	H 	0.27050 0.60390 0.99720 0.06700
C 	C 	0.21240 0.68590 0.95220 0.03300
H 	H 	0.17570 0.71240 0.96780 0.02300
C 	C 	0.21080 0.71310 0.91200 -0.09400
C 	C 	0.26050 0.67200 0.88810 -0.05700
H 	H 	0.25850 0.68960 0.86100 0.06100
C 	C 	0.14840 0.78470 0.89490 0.37900
C 	C 	0.19660 0.08320 0.89140 0.08600
C 	C 	0.19890 0.11020 0.93160 0.02600
C 	C 	0.30630 0.18520 0.88410 0.03500
H 	H 	0.34410 0.21110 0.86900 0.02000
C 	C 	0.30810 0.20800 0.92680 -0.08800
C 	C 	0.25190 0.17250 0.94920 -0.05600
H 	H 	0.25040 0.19110 0.97590 0.06000
C 	C 	0.24970 0.12640 0.86640 -0.14600
H 	H 	0.24540 0.11440 0.83860 0.06800
C 	C 	0.37130 0.27800 0.94430 0.36300
N 	N 	0.12940 0.91850 0.78000 -0.21900
N 	N 	0.09440 0.96930 0.74950 -0.19000
N 	N 	0.12540 0.95220 0.71540 -0.21700
N 	N 	0.37230 0.54900 0.88750 -0.22400
N 	N 	0.40560 0.49640 0.91840 -0.19100
N 	N 	0.37380 0.50850 0.95340 -0.22100
N 	N 	0.13740 0.02150 0.88120 -0.22700
N 	N 	0.10170 0.01030 0.91500 -0.19100
N 	N 	0.13670 0.05890 0.94650 -0.21200
O 	O 	0.02370 0.05940 0.81170 -0.71700
O 	O 	0.98540 0.91370 0.85560 -0.70000
O 	O 	0.02930 0.93120 0.97760 -0.73800
O 	O 	0.35370 0.65360 0.80800 -0.45700
O 	O 	0.41430 0.67380 0.75200 -0.44300
O 	O 	0.15320 0.81700 0.86030 -0.46600
O 	O 	0.09830 0.80600 0.91830 -0.45500
O 	O 	0.36550 0.31240 0.97850 -0.45600
O 	O 	0.42770 0.29280 0.92270 -0.43400
H 	H 	0.06900 0.89700 0.99500 0.16500
H 	H 	0.02700 0.12300 0.82200 0.13900
H 	H 	0.95600 0.85700 0.84700 0.17700
Co	Co	0.50688 0.40521 0.91734 1.15000
Co	Co	0.42549 0.42951 0.00288 1.12100
Co	Co	0.41897 0.54150 0.83322 1.12000
Co	Co	0.59000 0.43183 0.83554 1.13300
C 	C 	0.68820 0.36320 0.76390 0.04200
C 	C 	0.68690 0.38820 0.72380 0.06400
C 	C 	0.73720 0.34880 0.69630 -0.12400
H 	H 	0.73480 0.36610 0.66920 0.06000
C 	C 	0.79070 0.28130 0.71470 0.01400
H 	H 	0.82460 0.24960 0.69900 0.03300
C 	C 	0.79410 0.26000 0.75700 -0.07100
C 	C 	0.74280 0.29930 0.78160 -0.06900
H 	H 	0.74500 0.28350 0.80890 0.06800
C 	C 	0.85990 0.19100 0.77390 0.35800
C 	C 	0.81590 0.10230 0.90410 0.03800
C 	C 	0.81640 0.08050 0.94440 0.06800
C 	C 	0.76740 0.11990 0.96990 -0.13900
H 	H 	0.77050 0.10390 0.99720 0.06800
C 	C 	0.71240 0.18590 0.95220 0.03300
H 	H 	0.67570 0.21240 0.96780 0.02800
C 	C 	0.71080 0.21310 0.91200 -0.08900
C 	C 	0.76050 0.17200 0.88810 -0.05600
H 	H 	0.75850 0.18960 0.86100 0.06300
C 	C 	0.64840 0.28470 0.89490 0.38000
C 	C 	0.69660 0.58320 0.89140 0.08700
C 	C 	0.69890 0.61020 0.93160 0.03100
C 	C 	0.80630 0.68520 0.88410 0.03300
H 	H 	0.84410 0.71110 0.86900 0.02500
C 	C 	0.80810 0.70800 0.92680 -0.08100
C 	C 	0.75190 0.67250 0.94920 -0.05700
H 	H 	0.75040 0.69110 0.97590 0.06300
C 	C 	0.74970 0.62640 0.86640 -0.14100
H 	H 	0.74540 0.61440 0.83860 0.06900
C 	C 	0.87130 0.77800 0.94430 0.36100
N 	N 	0.62940 0.41850 0.78000 -0.21600
N 	N 	0.59440 0.46930 0.74950 -0.18500
N 	N 	0.62540 0.45220 0.71540 -0.21400
N 	N 	0.87230 0.04900 0.88750 -0.22100
N 	N 	0.90560 0.99640 0.91840 -0.18100
N 	N 	0.87380 0.00850 0.95340 -0.21700
N 	N 	0.63740 0.52150 0.88120 -0.22400
N 	N 	0.60170 0.51030 0.91500 -0.18600
N 	N 	0.63670 0.55890 0.94650 -0.21000
O 	O 	0.52370 0.55940 0.81170 -0.69900
O 	O 	0.48540 0.41370 0.85560 -0.72900
O 	O 	0.52930 0.43120 0.97760 -0.71700
O 	O 	0.85370 0.15360 0.80800 -0.44900
O 	O 	0.91430 0.17380 0.75200 -0.42500
O 	O 	0.65320 0.31700 0.86030 -0.45900
O 	O 	0.59830 0.30600 0.91830 -0.44400
O 	O 	0.86550 0.81240 0.97850 -0.44700
O 	O 	0.92770 0.79280 0.92270 -0.41400
H 	H 	0.56900 0.39700 0.99500 0.16700
H 	H 	0.52700 0.62300 0.82200 0.14700
H 	H 	0.45600 0.35700 0.84700 0.17400
Co	Co	-0.00000 0.92944 0.25000 1.13300
Co	Co	0.50000 0.42944 0.25000 1.15200
Co	Co	0.00000 0.07056 0.75000 1.13300
Co	Co	0.50000 0.57056 0.75000 1.15200
