data_crystal

_cell_length_a 10.85200
_cell_length_b 10.91260
_cell_length_c 11.14780
_cell_angle_alpha 84.49900
_cell_angle_beta  88.21100
_cell_angle_gamma 66.36000

_symmetry_space_group_name_	'P 1'
_symmetry_space_group_name_H-M	'P 1'

loop_
_symmetry_equiv_pos_as_xyz
  x,y,z

loop_
_atom_site_label
_atom_site_type_symbol
_atom_site_fract_x
_atom_site_fract_y
_atom_site_fract_z
_atom_site_charge
Co	Co	0.09510 0.89330 0.25220 1.15000
Co	Co	0.96770 0.86770 0.00120 1.12900
Co	Co	0.84980 0.01410 0.48490 1.11400
N 	N 	0.79900 0.94320 0.33190 -0.21000
N 	N 	0.87900 0.94140 0.23820 -0.18800
N 	N 	0.83100 0.91440 0.13980 -0.22200
N 	N 	0.07610 0.17660 0.16350 -0.21600
N 	N 	0.08980 0.08710 0.25810 -0.19200
N 	N 	0.10700 0.12890 0.36180 -0.21800
C 	C 	0.69500 0.91650 0.29360 0.04200
C 	C 	0.71500 0.89830 0.17080 0.07500
C 	C 	0.62400 0.87200 0.10460 -0.14400
H 	H 	0.63540 0.86290 0.02250 0.06500
C 	C 	0.51500 0.86000 0.16460 0.03600
H 	H 	0.45410 0.83970 0.12290 0.01300
C 	C 	0.49700 0.87800 0.28630 -0.09500
C 	C 	0.58500 0.90820 0.35430 -0.05700
H 	H 	0.57080 0.92170 0.43560 0.06100
C 	C 	0.38100 0.86700 0.34360 0.31900
C 	C 	0.08500 0.28440 0.20930 0.04500
C 	C 	0.10450 0.25450 0.33300 0.07200
C 	C 	0.11800 0.34330 0.40780 -0.14000
H 	H 	0.13070 0.32200 0.49050 0.06700
C 	C 	0.11100 0.46580 0.35260 0.03400
H 	H 	0.11910 0.52800 0.39970 0.02500
C 	C 	0.09200 0.49740 0.22970 -0.08700
C 	C 	0.07800 0.40810 0.15530 -0.06200
H 	H 	0.06560 0.42990 0.07270 0.06600
C 	C 	0.08500 0.63130 0.17640 0.35800
O 	O 	0.09690 0.92710 0.06710 -0.72000
H 	H 	0.19300 0.87320 0.07280 0.15400
O 	O 	0.05700 0.89600 0.42880 -0.73100
H 	H 	0.05580 0.82220 0.48020 0.16400
O 	O 	0.35000 0.90450 0.45040 -0.41700
O 	O 	0.30500 0.82300 0.28450 -0.40700
O 	O 	0.04300 0.67280 0.06830 -0.44700
O 	O 	0.11400 0.69850 0.24840 -0.43800
Co	Co	0.90490 0.10670 0.74780 1.15100
Co	Co	0.03230 0.13230 0.99880 1.13000
Co	Co	0.15020 0.98590 0.51510 1.11500
N 	N 	0.20100 0.05680 0.66810 -0.20900
N 	N 	0.12100 0.05860 0.76180 -0.18800
N 	N 	0.16900 0.08560 0.86020 -0.22200
N 	N 	0.92390 0.82340 0.83650 -0.21600
N 	N 	0.91020 0.91290 0.74190 -0.19200
N 	N 	0.89300 0.87110 0.63820 -0.21800
C 	C 	0.30500 0.08350 0.70640 0.04200
C 	C 	0.28500 0.10170 0.82920 0.07500
C 	C 	0.37600 0.12800 0.89540 -0.14400
H 	H 	0.36460 0.13710 0.97750 0.06500
C 	C 	0.48500 0.14000 0.83540 0.03600
H 	H 	0.54590 0.16030 0.87710 0.01300
C 	C 	0.50300 0.12200 0.71370 -0.09500
C 	C 	0.41500 0.09180 0.64570 -0.05700
H 	H 	0.42920 0.07830 0.56440 0.06100
C 	C 	0.61900 0.13300 0.65640 0.31900
C 	C 	0.91500 0.71560 0.79070 0.04500
C 	C 	0.89550 0.74550 0.66700 0.07200
C 	C 	0.88200 0.65670 0.59220 -0.14000
H 	H 	0.86930 0.67800 0.50950 0.06700
C 	C 	0.88900 0.53420 0.64740 0.03400
H 	H 	0.88090 0.47200 0.60030 0.02500
C 	C 	0.90800 0.50260 0.77030 -0.08700
C 	C 	0.92200 0.59190 0.84470 -0.06200
H 	H 	0.93440 0.57010 0.92730 0.06600
C 	C 	0.91500 0.36870 0.82360 0.35800
O 	O 	0.90310 0.07290 0.93290 -0.72000
H 	H 	0.80700 0.12680 0.92720 0.15400
O 	O 	0.94300 0.10400 0.57120 -0.73100
H 	H 	0.94420 0.17780 0.51980 0.16400
O 	O 	0.65000 0.09550 0.54960 -0.41700
O 	O 	0.69500 0.17700 0.71550 -0.40700
O 	O 	0.95700 0.32720 0.93170 -0.44700
O 	O 	0.88600 0.30150 0.75160 -0.43800
