data_crystal

_cell_length_a 10.64890
_cell_length_b 10.88570
_cell_length_c 11.07820
_cell_angle_alpha 84.00500
_cell_angle_beta  89.82600
_cell_angle_gamma 63.60500

_symmetry_space_group_name_	'P 1'
_symmetry_space_group_name_H-M	'P 1'

loop_
_symmetry_equiv_pos_as_xyz
  x,y,z

loop_
_atom_site_label
_atom_site_type_symbol
_atom_site_fract_x
_atom_site_fract_y
_atom_site_fract_z
_atom_site_charge
Co	Co	0.09720 0.88790 0.25445 1.14800
Co	Co	0.96140 0.87220 0.00024 1.12500
Co	Co	0.84380 0.02720 0.47758 1.12200
O 	O 	0.10590 0.91740 0.06950 -0.72600
H 	H 	0.20710 0.87200 0.07620 0.16400
O 	O 	0.05110 0.89550 0.42930 -0.73000
H 	H 	0.07160 0.80880 0.47630 0.16400
O 	O 	0.35500 0.88760 0.45860 -0.44500
O 	O 	0.32000 0.80000 0.29530 -0.42900
O 	O 	0.03890 0.67150 0.07250 -0.44600
O 	O 	0.11200 0.69310 0.25740 -0.44200
N 	N 	0.81860 0.92720 0.13260 -0.22700
N 	N 	0.86630 0.95960 0.23000 -0.18600
N 	N 	0.79120 0.95780 0.32580 -0.20900
N 	N 	0.08700 0.16900 0.16570 -0.21600
N 	N 	0.10010 0.07830 0.26080 -0.19400
N 	N 	0.11310 0.11930 0.36650 -0.21500
C 	C 	0.68940 0.92370 0.29060 0.03800
C 	C 	0.70690 0.90450 0.16670 0.08200
C 	C 	0.51300 0.85230 0.16690 0.04300
H 	H 	0.45210 0.82900 0.12600 0.00700
C 	C 	0.61900 0.86730 0.10450 -0.15100
H 	H 	0.63040 0.85290 0.02310 0.06800
C 	C 	0.49600 0.87130 0.29080 -0.10300
C 	C 	0.58630 0.90490 0.35410 -0.04900
H 	H 	0.57780 0.91450 0.43650 0.05700
C 	C 	0.38200 0.85140 0.35280 0.36300
C 	C 	0.09210 0.27880 0.21240 0.04300
C 	C 	0.10830 0.24630 0.33870 0.07600
C 	C 	0.11730 0.33540 0.41510 -0.14400
H 	H 	0.12880 0.31320 0.49900 0.07000
C 	C 	0.10850 0.45850 0.35990 0.03600
H 	H 	0.11330 0.52140 0.40810 0.02500
C 	C 	0.09250 0.49150 0.23500 -0.08500
C 	C 	0.08380 0.40290 0.15810 -0.06200
H 	H 	0.07300 0.42560 0.07420 0.06700
C 	C 	0.08400 0.62890 0.18260 0.36100
Co	Co	0.90280 0.11210 0.74555 1.14800
Co	Co	0.03860 0.12780 0.99976 1.12500
Co	Co	0.15620 0.97280 0.52242 1.12200
O 	O 	0.89410 0.08260 0.93050 -0.72600
H 	H 	0.79290 0.12800 0.92380 0.16400
O 	O 	0.94890 0.10450 0.57070 -0.73000
H 	H 	0.92840 0.19120 0.52370 0.16400
O 	O 	0.64500 0.11240 0.54140 -0.44500
O 	O 	0.68000 0.20000 0.70470 -0.42900
O 	O 	0.96110 0.32850 0.92750 -0.44600
O 	O 	0.88800 0.30690 0.74260 -0.44200
N 	N 	0.18140 0.07280 0.86740 -0.22700
N 	N 	0.13370 0.04040 0.77000 -0.18600
N 	N 	0.20880 0.04220 0.67420 -0.20900
N 	N 	0.91300 0.83100 0.83430 -0.21600
N 	N 	0.89990 0.92170 0.73920 -0.19400
N 	N 	0.88690 0.88070 0.63350 -0.21500
C 	C 	0.31060 0.07630 0.70940 0.03800
C 	C 	0.29310 0.09550 0.83330 0.08200
C 	C 	0.48700 0.14770 0.83310 0.04300
H 	H 	0.54790 0.17100 0.87400 0.00700
C 	C 	0.38100 0.13270 0.89550 -0.15100
H 	H 	0.36960 0.14710 0.97690 0.06800
C 	C 	0.50400 0.12870 0.70920 -0.10300
C 	C 	0.41370 0.09510 0.64590 -0.04900
H 	H 	0.42220 0.08550 0.56350 0.05700
C 	C 	0.61800 0.14860 0.64720 0.36300
C 	C 	0.90790 0.72120 0.78760 0.04300
C 	C 	0.89170 0.75370 0.66130 0.07600
C 	C 	0.88270 0.66460 0.58490 -0.14400
H 	H 	0.87120 0.68680 0.50100 0.07000
C 	C 	0.89150 0.54150 0.64010 0.03600
H 	H 	0.88670 0.47860 0.59190 0.02500
C 	C 	0.90750 0.50850 0.76500 -0.08500
C 	C 	0.91620 0.59710 0.84190 -0.06200
H 	H 	0.92700 0.57440 0.92580 0.06700
C 	C 	0.91600 0.37110 0.81740 0.36100
