data_crystal

_cell_length_a 17.76200
_cell_length_b 12.86800
_cell_length_c 11.23220
_cell_angle_alpha 90.00000
_cell_angle_beta  95.19800
_cell_angle_gamma 90.00000

_symmetry_space_group_name_	'P 1'
_symmetry_space_group_name_H-M	'P 1'

loop_
_symmetry_equiv_pos_as_xyz
  x,y,z

loop_
_atom_site_label
_atom_site_type_symbol
_atom_site_fract_x
_atom_site_fract_y
_atom_site_fract_z
_atom_site_charge
Co	Co	0.57936 0.55808 0.00037 1.13400
N 	N 	0.87330 0.93520 0.16220 -0.20300
N 	N 	0.90950 0.98360 0.25360 -0.16000
N 	N 	0.87630 0.97220 0.35560 -0.22100
C 	C 	0.81130 0.88890 0.20420 0.04400
C 	C 	0.81530 0.91030 0.32810 0.07500
C 	C 	0.76090 0.87450 0.39990 -0.13800
H 	H 	0.76200 0.89210 0.48030 0.06100
C 	C 	0.70380 0.81020 0.34400 0.03000
H 	H 	0.66940 0.77890 0.39020 0.02000
C 	C 	0.69780 0.79210 0.21830 -0.08800
C 	C 	0.75200 0.82720 0.14860 -0.05400
H 	H 	0.75000 0.81100 0.06770 0.06400
C 	C 	0.63540 0.72280 0.16930 0.36000
O 	O 	0.63750 0.68660 0.06470 -0.44500
O 	O 	0.58230 0.70970 0.23530 -0.43100
O 	O 	0.48110 0.57730 0.06830 -0.80800
H 	H 	0.44690 0.61810 0.03680 0.25000
Co	Co	0.07936 0.05808 0.00037 1.10700
N 	N 	0.37330 0.43520 0.16220 -0.21300
N 	N 	0.40950 0.48360 0.25360 -0.18600
N 	N 	0.37630 0.47220 0.35560 -0.23100
C 	C 	0.31130 0.38890 0.20420 0.03400
C 	C 	0.31530 0.41030 0.32810 0.07300
C 	C 	0.26090 0.37450 0.39990 -0.14700
H 	H 	0.26200 0.39210 0.48030 0.05900
C 	C 	0.20380 0.31020 0.34400 0.03100
H 	H 	0.16940 0.27890 0.39020 0.01200
C 	C 	0.19780 0.29210 0.21830 -0.10100
C 	C 	0.25200 0.32720 0.14860 -0.05300
H 	H 	0.25000 0.31100 0.06770 0.05600
C 	C 	0.13540 0.22280 0.16930 0.36200
O 	O 	0.13750 0.18660 0.06470 -0.46500
O 	O 	0.08230 0.20970 0.23530 -0.46200
O 	O 	0.98110 0.07730 0.06830 -0.73000
H 	H 	0.94690 0.11810 0.03680 0.24500
Co	Co	0.42064 0.55808 0.49963 1.13200
N 	N 	0.12670 0.93520 0.33780 -0.21900
N 	N 	0.09050 0.98360 0.24640 -0.19800
N 	N 	0.12370 0.97220 0.14440 -0.23600
C 	C 	0.18870 0.88890 0.29580 0.03400
C 	C 	0.18470 0.91030 0.17190 0.07100
C 	C 	0.23910 0.87450 0.10010 -0.14200
H 	H 	0.23800 0.89210 0.01970 0.06200
C 	C 	0.29620 0.81020 0.15600 0.02800
H 	H 	0.33060 0.77890 0.10980 0.02100
C 	C 	0.30220 0.79210 0.28170 -0.09100
C 	C 	0.24800 0.82720 0.35140 -0.05800
H 	H 	0.25000 0.81100 0.43230 0.06100
C 	C 	0.36460 0.72280 0.33070 0.35800
O 	O 	0.36250 0.68660 0.43530 -0.44800
O 	O 	0.41770 0.70970 0.26470 -0.43200
O 	O 	0.51890 0.57730 0.43170 -0.80800
H 	H 	0.55310 0.61810 0.46320 0.25000
Co	Co	0.92064 0.05808 0.49963 1.15600
N 	N 	0.62670 0.43520 0.33780 -0.21300
N 	N 	0.59050 0.48360 0.24640 -0.18500
N 	N 	0.62370 0.47220 0.14440 -0.22900
C 	C 	0.68870 0.38890 0.29580 0.04200
C 	C 	0.68470 0.41030 0.17190 0.07200
C 	C 	0.73910 0.37450 0.10010 -0.13400
H 	H 	0.73800 0.39210 0.01970 0.06400
C 	C 	0.79620 0.31020 0.15600 0.02600
H 	H 	0.83060 0.27890 0.10980 0.03000
C 	C 	0.80220 0.29210 0.28170 -0.07700
C 	C 	0.74800 0.32720 0.35140 -0.05900
H 	H 	0.75000 0.31100 0.43230 0.06600
C 	C 	0.86460 0.22280 0.33070 0.35300
O 	O 	0.86250 0.18660 0.43530 -0.42800
O 	O 	0.91770 0.20970 0.26470 -0.38600
O 	O 	0.01890 0.07730 0.43170 -0.86900
H 	H 	0.05310 0.11810 0.46320 0.25200
Co	Co	0.42064 0.44192 0.99963 1.13200
N 	N 	0.12670 0.06480 0.83780 -0.21700
N 	N 	0.09050 0.01640 0.74640 -0.19800
N 	N 	0.12370 0.02780 0.64440 -0.23700
C 	C 	0.18870 0.11110 0.79580 0.03600
C 	C 	0.18470 0.08970 0.67190 0.07000
C 	C 	0.23910 0.12550 0.60010 -0.14200
H 	H 	0.23800 0.10790 0.51970 0.06100
C 	C 	0.29620 0.18980 0.65600 0.02700
H 	H 	0.33060 0.22110 0.60980 0.02000
C 	C 	0.30220 0.20790 0.78170 -0.09000
C 	C 	0.24800 0.17280 0.85140 -0.05900
H 	H 	0.25000 0.18900 0.93230 0.06300
C 	C 	0.36460 0.27720 0.83070 0.35800
O 	O 	0.36250 0.31340 0.93530 -0.44700
O 	O 	0.41770 0.29030 0.76470 -0.43100
O 	O 	0.51890 0.42270 0.93170 -0.80800
H 	H 	0.55310 0.38190 0.96320 0.25000
Co	Co	0.92064 0.94192 0.99963 1.15200
N 	N 	0.62670 0.56480 0.83780 -0.21400
N 	N 	0.59050 0.51640 0.74640 -0.18500
N 	N 	0.62370 0.52780 0.64440 -0.23000
C 	C 	0.68870 0.61110 0.79580 0.04100
C 	C 	0.68470 0.58970 0.67190 0.07200
C 	C 	0.73910 0.62550 0.60010 -0.13400
H 	H 	0.73800 0.60790 0.51970 0.06400
C 	C 	0.79620 0.68980 0.65600 0.02700
H 	H 	0.83060 0.72110 0.60980 0.03000
C 	C 	0.80220 0.70790 0.78170 -0.07900
C 	C 	0.74800 0.67280 0.85140 -0.05800
H 	H 	0.75000 0.68900 0.93230 0.06400
C 	C 	0.86460 0.77720 0.83070 0.35300
O 	O 	0.86250 0.81340 0.93530 -0.43100
O 	O 	0.91770 0.79030 0.76470 -0.38800
O 	O 	0.01890 0.92270 0.93170 -0.86700
H 	H 	0.05310 0.88190 0.96320 0.25200
Co	Co	0.57936 0.44192 0.50037 1.13300
N 	N 	0.87330 0.06480 0.66220 -0.20700
N 	N 	0.90950 0.01640 0.75360 -0.16100
N 	N 	0.87630 0.02780 0.85560 -0.22100
C 	C 	0.81130 0.11110 0.70420 0.04200
C 	C 	0.81530 0.08970 0.82810 0.07600
C 	C 	0.76090 0.12550 0.89990 -0.13900
H 	H 	0.76200 0.10790 0.98030 0.06200
C 	C 	0.70380 0.18980 0.84400 0.03100
H 	H 	0.66940 0.22110 0.89020 0.02000
C 	C 	0.69780 0.20790 0.71830 -0.08900
C 	C 	0.75200 0.17280 0.64860 -0.05300
H 	H 	0.75000 0.18900 0.56770 0.06200
C 	C 	0.63540 0.27720 0.66930 0.36000
O 	O 	0.63750 0.31340 0.56470 -0.44600
O 	O 	0.58230 0.29030 0.73530 -0.43100
O 	O 	0.48110 0.42270 0.56830 -0.80800
H 	H 	0.44690 0.38190 0.53680 0.24900
Co	Co	0.07936 0.94192 0.50037 1.11000
N 	N 	0.37330 0.56480 0.66220 -0.21300
N 	N 	0.40950 0.51640 0.75360 -0.18600
N 	N 	0.37630 0.52780 0.85560 -0.23100
C 	C 	0.31130 0.61110 0.70420 0.03400
C 	C 	0.31530 0.58970 0.82810 0.07300
C 	C 	0.26090 0.62550 0.89990 -0.14700
H 	H 	0.26200 0.60790 0.98030 0.05900
C 	C 	0.20380 0.68980 0.84400 0.03000
H 	H 	0.16940 0.72110 0.89020 0.01200
C 	C 	0.19780 0.70790 0.71830 -0.10000
C 	C 	0.25200 0.67280 0.64860 -0.05400
H 	H 	0.25000 0.68900 0.56770 0.05700
C 	C 	0.13540 0.77720 0.66930 0.36100
O 	O 	0.13750 0.81340 0.56470 -0.46400
O 	O 	0.08230 0.79030 0.73530 -0.46100
O 	O 	0.98110 0.92270 0.56830 -0.73200
H 	H 	0.94690 0.88190 0.53680 0.24500
Co	Co	0.50000 0.59410 0.25000 1.15500
Co	Co	-0.00000 0.09410 0.25000 1.10600
Co	Co	0.50000 0.40590 0.75000 1.15500
Co	Co	0.00000 0.90590 0.75000 1.10700
