data_crystal

_cell_length_a 10.25410
_cell_length_b 10.86570
_cell_length_c 10.98600
_cell_angle_alpha 83.30900
_cell_angle_beta  91.74000
_cell_angle_gamma 61.65700

_symmetry_space_group_name_	'P 1'
_symmetry_space_group_name_H-M	'P 1'

loop_
_symmetry_equiv_pos_as_xyz
  x,y,z

loop_
_atom_site_label
_atom_site_type_symbol
_atom_site_fract_x
_atom_site_fract_y
_atom_site_fract_z
_atom_site_charge
Co	Co	0.09820 0.88310 0.25679 1.15500
Co	Co	0.95350 0.87670 0.99792 1.12300
Co	Co	0.83400 0.04260 0.46798 1.12400
C 	C 	0.67900 0.93870 0.28350 0.04700
C 	C 	0.68900 0.91710 0.16020 0.08400
C 	C 	0.60300 0.86940 0.10220 -0.14800
H 	H 	0.61340 0.85260 0.02100 0.07400
C 	C 	0.50300 0.84780 0.16910 0.03700
H 	H 	0.43970 0.82030 0.13250 0.00200
C 	C 	0.49600 0.86760 0.29350 -0.08900
C 	C 	0.58100 0.91370 0.35180 -0.05800
H 	H 	0.57270 0.92770 0.43380 0.05900
C 	C 	0.39500 0.83300 0.36450 0.31500
C 	C 	0.10290 0.26960 0.21680 0.04000
C 	C 	0.11700 0.23480 0.34430 0.08000
C 	C 	0.11800 0.32600 0.42420 -0.14500
H 	H 	0.12690 0.30250 0.50930 0.07800
C 	C 	0.10400 0.45320 0.36900 0.04000
H 	H 	0.10470 0.51700 0.41860 0.02700
C 	C 	0.09100 0.48870 0.24090 -0.09600
C 	C 	0.08980 0.39740 0.16250 -0.05900
H 	H 	0.08080 0.42090 0.07740 0.06200
C 	C 	0.07700 0.62760 0.18990 0.37200
N 	N 	0.78000 0.97840 0.31580 -0.21600
N 	N 	0.84800 0.98470 0.21570 -0.17900
N 	N 	0.79600 0.94680 0.12190 -0.22000
N 	N 	0.10570 0.15940 0.16820 -0.22500
N 	N 	0.12040 0.06530 0.26420 -0.19700
N 	N 	0.12770 0.10530 0.37330 -0.21500
O 	O 	0.11120 0.90800 0.07480 -0.73600
H 	H 	0.21440 0.87020 0.05880 0.16800
O 	O 	0.05400 0.89080 0.43080 -0.70800
H 	H 	0.11980 0.79630 0.47500 0.13900
O 	O 	0.37400 0.86260 0.47550 -0.42500
O 	O 	0.32600 0.77500 0.31440 -0.41200
O 	O 	0.03700 0.66960 0.07380 -0.44700
O 	O 	0.08600 0.69880 0.26540 -0.44900
Co	Co	0.90180 0.11690 0.74321 1.15400
Co	Co	0.04650 0.12330 0.00208 1.12200
Co	Co	0.16600 0.95740 0.53202 1.12300
C 	C 	0.32100 0.06130 0.71650 0.04600
C 	C 	0.31100 0.08290 0.83980 0.08400
C 	C 	0.39700 0.13060 0.89780 -0.14800
H 	H 	0.38660 0.14740 0.97900 0.07400
C 	C 	0.49700 0.15220 0.83090 0.03700
H 	H 	0.56030 0.17970 0.86750 0.00200
C 	C 	0.50400 0.13240 0.70650 -0.08900
C 	C 	0.41900 0.08630 0.64820 -0.05800
H 	H 	0.42730 0.07230 0.56620 0.05900
C 	C 	0.60500 0.16700 0.63550 0.31500
C 	C 	0.89710 0.73040 0.78320 0.04000
C 	C 	0.88300 0.76520 0.65570 0.08000
C 	C 	0.88200 0.67400 0.57580 -0.14500
H 	H 	0.87310 0.69750 0.49070 0.07800
C 	C 	0.89600 0.54680 0.63100 0.04000
H 	H 	0.89530 0.48300 0.58140 0.02700
C 	C 	0.90900 0.51130 0.75910 -0.09600
C 	C 	0.91020 0.60260 0.83750 -0.05900
H 	H 	0.91920 0.57910 0.92260 0.06200
C 	C 	0.92300 0.37240 0.81010 0.37200
N 	N 	0.22000 0.02160 0.68420 -0.21600
N 	N 	0.15200 0.01530 0.78430 -0.17900
N 	N 	0.20400 0.05320 0.87810 -0.22000
N 	N 	0.89430 0.84060 0.83180 -0.22500
N 	N 	0.87960 0.93470 0.73580 -0.19700
N 	N 	0.87230 0.89470 0.62670 -0.21500
O 	O 	0.88880 0.09200 0.92520 -0.73600
H 	H 	0.78560 0.12980 0.94120 0.16800
O 	O 	0.94600 0.10920 0.56920 -0.70800
H 	H 	0.88020 0.20370 0.52500 0.13900
O 	O 	0.62600 0.13740 0.52450 -0.42500
O 	O 	0.67400 0.22500 0.68560 -0.41200
O 	O 	0.96300 0.33040 0.92620 -0.44700
O 	O 	0.91400 0.30120 0.73460 -0.44900
