data_crystal

_cell_length_a 14.96090
_cell_length_b 15.21050
_cell_length_c 15.38200
_cell_angle_alpha 80.31760
_cell_angle_beta  70.00210
_cell_angle_gamma 60.54140

_symmetry_space_group_name_	'P 1'
_symmetry_space_group_name_H-M	'P 1'

loop_
_symmetry_equiv_pos_as_xyz
  x,y,z

loop_
_atom_site_label
_atom_site_type_symbol
_atom_site_fract_x
_atom_site_fract_y
_atom_site_fract_z
_atom_site_charge
Cd	Cd	0.11699 0.80808 0.98203 1.08100
Cd	Cd	0.07493 0.80808 0.51797 1.08200
Cd	Cd	0.81714 0.36572 0.25000 1.18500
H 	H 	0.27470 0.67600 0.20590 -0.04100
H 	H 	0.39190 0.39840 0.94040 -0.02200
H 	H 	0.56220 0.27400 0.07180 -0.09100
H 	H 	0.53840 0.26460 0.98310 -0.09000
H 	H 	0.50990 0.15000 0.09440 0.19300
H 	H 	0.40120 0.22800 0.07480 0.22500
H 	H 	0.42350 0.23880 0.16380 0.22900
H 	H 	0.51710 0.26940 0.30170 0.01300
H 	H 	0.51940 0.27780 0.40130 0.00900
H 	H 	0.69160 0.22640 0.30500 -0.05000
H 	H 	0.65220 0.31180 0.23350 0.00800
H 	H 	0.57000 0.50200 0.30020 0.05100
H 	H 	0.57940 0.50140 0.39880 0.04000
H 	H 	0.45510 0.43960 0.46390 0.02700
H 	H 	0.40290 0.53900 0.40860 0.01800
H 	H 	0.71610 0.34220 0.35810 -0.07400
H 	H 	0.04930 0.67600 0.29410 -0.04000
H 	H 	0.20970 0.39840 0.55960 -0.02200
H 	H 	0.16380 0.27400 0.42820 -0.09200
H 	H 	0.19700 0.26460 0.51690 -0.09200
H 	H 	0.34010 0.15000 0.40560 0.19600
H 	H 	0.37080 0.22800 0.42520 0.22600
H 	H 	0.33770 0.23880 0.33620 0.23000
H 	H 	0.21350 0.26940 0.19830 0.01400
H 	H 	0.20280 0.27780 0.09870 0.01000
H 	H 	0.08200 0.22640 0.19500 -0.04900
H 	H 	0.03600 0.31180 0.26650 0.00900
H 	H 	0.92800 0.50200 0.19980 0.05200
H 	H 	0.91920 0.50140 0.10120 0.04100
H 	H 	0.10530 0.43960 0.03610 0.02700
H 	H 	0.05810 0.53900 0.09140 0.01800
H 	H 	0.94170 0.34220 0.14190 -0.07400
C 	C 	0.26156 0.57308 0.90419 0.43500
C 	C 	0.30674 0.53846 0.98456 -0.30300
C 	C 	0.28226 0.60464 0.05639 0.33400
C 	C 	0.33239 0.55296 0.12898 -0.20300
C 	C 	0.31625 0.60610 0.20446 0.12300
C 	C 	0.41452 0.45928 0.26822 0.17200
C 	C 	0.39846 0.45002 0.12923 0.19200
C 	C 	0.37628 0.43906 0.98796 0.17400
C 	C 	0.50569 0.28442 0.04765 0.30000
C 	C 	0.45565 0.21950 0.09980 -0.73100
C 	C 	0.52783 0.30630 0.33949 -0.02800
C 	C 	0.63966 0.29612 0.29896 -0.06700
C 	C 	0.56893 0.46646 0.35886 -0.10300
C 	C 	0.45978 0.46956 0.40271 -0.01300
C 	C 	0.16536 0.57308 0.59581 0.43400
C 	C 	0.15480 0.53846 0.51544 -0.30100
C 	C 	0.11310 0.60464 0.44361 0.33100
C 	C 	0.11465 0.55296 0.37102 -0.20300
C 	C 	0.07765 0.60610 0.29554 0.12300
C 	C 	0.12620 0.45928 0.23178 0.17200
C 	C 	0.15152 0.45002 0.37077 0.19200
C 	C 	0.18466 0.43906 0.51204 0.17300
C 	C 	0.20989 0.28442 0.45235 0.30500
C 	C 	0.32485 0.21950 0.40020 -0.73600
C 	C 	0.16587 0.30630 0.16051 -0.02900
C 	C 	0.06422 0.29612 0.20104 -0.06400
C 	C 	0.96461 0.46646 0.14114 -0.10800
C 	C 	0.07066 0.46956 0.09729 -0.00900
N 	N 	0.65862 0.36232 0.34309 -0.17500
N 	N 	0.44770 0.41290 0.34326 -0.12800
N 	N 	0.35678 0.56180 0.27247 -0.17500
N 	N 	0.43949 0.40070 0.19869 -0.17600
N 	N 	0.42537 0.39326 0.05479 -0.20800
N 	N 	0.97906 0.36232 0.15691 -0.17600
N 	N 	0.13940 0.41290 0.15674 -0.12900
N 	N 	0.08142 0.56180 0.22753 -0.17400
N 	N 	0.15981 0.40070 0.30131 -0.17600
N 	N 	0.18137 0.39326 0.44521 -0.20900
O 	O 	0.27979 0.50826 0.85152 -0.41900
O 	O 	0.20914 0.66570 0.88969 -0.61700
O 	O 	0.22433 0.69770 0.06179 -0.50600
O 	O 	0.21195 0.50826 0.64848 -0.41900
O 	O 	0.12516 0.66570 0.61031 -0.61700
O 	O 	0.07797 0.69770 0.43821 -0.50700
Cd	Cd	0.88301 0.19192 0.01797 1.08200
Cd	Cd	0.92507 0.19192 0.48203 1.08300
Cd	Cd	0.18286 0.63428 0.75000 1.18600
H 	H 	0.72530 0.32400 0.79410 -0.04000
H 	H 	0.60810 0.60160 0.05960 -0.02200
H 	H 	0.43780 0.72600 0.92820 -0.09100
H 	H 	0.46160 0.73540 0.01690 -0.09000
H 	H 	0.49010 0.85000 0.90560 0.19300
H 	H 	0.59880 0.77200 0.92520 0.22500
H 	H 	0.57650 0.76120 0.83620 0.22900
H 	H 	0.48290 0.73060 0.69830 0.01300
H 	H 	0.48060 0.72220 0.59870 0.00900
H 	H 	0.30840 0.77360 0.69500 -0.05000
H 	H 	0.34780 0.68820 0.76650 0.00800
H 	H 	0.43000 0.49800 0.69980 0.05100
H 	H 	0.42060 0.49860 0.60120 0.04000
H 	H 	0.54490 0.56040 0.53610 0.02700
H 	H 	0.59710 0.46100 0.59140 0.01800
H 	H 	0.28390 0.65780 0.64190 -0.07400
H 	H 	0.95070 0.32400 0.70590 -0.04000
H 	H 	0.79030 0.60160 0.44040 -0.02200
H 	H 	0.83620 0.72600 0.57180 -0.09200
H 	H 	0.80300 0.73540 0.48310 -0.09200
H 	H 	0.65990 0.85000 0.59440 0.19600
H 	H 	0.62920 0.77200 0.57480 0.22600
H 	H 	0.66230 0.76120 0.66380 0.23000
H 	H 	0.78650 0.73060 0.80170 0.01400
H 	H 	0.79720 0.72220 0.90130 0.01000
H 	H 	0.91800 0.77360 0.80500 -0.04900
H 	H 	0.96400 0.68820 0.73350 0.00900
H 	H 	0.07200 0.49800 0.80020 0.05200
H 	H 	0.08080 0.49860 0.89880 0.04100
H 	H 	0.89470 0.56040 0.96390 0.02700
H 	H 	0.94190 0.46100 0.90860 0.01800
H 	H 	0.05830 0.65780 0.85810 -0.07400
C 	C 	0.73844 0.42692 0.09581 0.43500
C 	C 	0.69326 0.46154 0.01544 -0.30300
C 	C 	0.71774 0.39536 0.94361 0.33400
C 	C 	0.66761 0.44704 0.87102 -0.20300
C 	C 	0.68375 0.39390 0.79554 0.12300
C 	C 	0.58548 0.54072 0.73178 0.17200
C 	C 	0.60154 0.54998 0.87077 0.19200
C 	C 	0.62372 0.56094 0.01204 0.17400
C 	C 	0.49431 0.71558 0.95235 0.30000
C 	C 	0.54435 0.78050 0.90020 -0.73100
C 	C 	0.47217 0.69370 0.66051 -0.02800
C 	C 	0.36034 0.70388 0.70104 -0.06700
C 	C 	0.43107 0.53354 0.64114 -0.10300
C 	C 	0.54022 0.53044 0.59729 -0.01300
C 	C 	0.83464 0.42692 0.40419 0.43400
C 	C 	0.84520 0.46154 0.48456 -0.30100
C 	C 	0.88690 0.39536 0.55639 0.33100
C 	C 	0.88535 0.44704 0.62898 -0.20300
C 	C 	0.92235 0.39390 0.70446 0.12300
C 	C 	0.87380 0.54072 0.76822 0.17200
C 	C 	0.84848 0.54998 0.62923 0.19200
C 	C 	0.81534 0.56094 0.48796 0.17300
C 	C 	0.79011 0.71558 0.54765 0.30500
C 	C 	0.67515 0.78050 0.59980 -0.73600
C 	C 	0.83413 0.69370 0.83949 -0.02900
C 	C 	0.93578 0.70388 0.79896 -0.06400
C 	C 	0.03539 0.53354 0.85886 -0.10800
C 	C 	0.92934 0.53044 0.90271 -0.00900
N 	N 	0.34138 0.63768 0.65691 -0.17500
N 	N 	0.55230 0.58710 0.65674 -0.12800
N 	N 	0.64322 0.43820 0.72753 -0.17500
N 	N 	0.56051 0.59930 0.80131 -0.17600
N 	N 	0.57463 0.60674 0.94521 -0.20800
N 	N 	0.02094 0.63768 0.84309 -0.17600
N 	N 	0.86060 0.58710 0.84326 -0.12900
N 	N 	0.91858 0.43820 0.77247 -0.17400
N 	N 	0.84019 0.59930 0.69869 -0.17600
N 	N 	0.81863 0.60674 0.55479 -0.20900
O 	O 	0.72021 0.49174 0.14848 -0.41900
O 	O 	0.79086 0.33430 0.11031 -0.61700
O 	O 	0.77567 0.30230 0.93821 -0.50600
O 	O 	0.78805 0.49174 0.35152 -0.41900
O 	O 	0.87484 0.33430 0.38969 -0.61700
O 	O 	0.92203 0.30230 0.56179 -0.50700
