data_crystal

_cell_length_a 15.23210
_cell_length_b 11.48200
_cell_length_c 13.49130
_cell_angle_alpha 90.00000
_cell_angle_beta  114.52000
_cell_angle_gamma 90.00000

_symmetry_space_group_name_	'P 1'
_symmetry_space_group_name_H-M	'P 1'

loop_
_symmetry_equiv_pos_as_xyz
  x,y,z

loop_
_atom_site_label
_atom_site_type_symbol
_atom_site_fract_x
_atom_site_fract_y
_atom_site_fract_z
_atom_site_charge
Bi	Bi	0.57574 0.52979 0.82574 1.83900
O 	O 	0.47780 0.41190 0.67700 -0.46100
O 	O 	0.45710 0.23070 0.61510 -0.42400
O 	O 	0.59760 0.33410 0.87680 -0.47900
O 	O 	0.56030 0.15240 0.81700 -0.40600
O 	O 	0.44010 0.49410 0.85830 -0.43100
O 	O 	0.38180 0.47290 0.98340 -0.47600
C 	C 	0.48980 0.30420 0.68820 0.20400
C 	C 	0.55280 0.25890 0.80290 0.18700
C 	C 	0.44950 0.49070 0.95490 0.24100
Bi	Bi	0.42426 0.47021 0.17426 1.84000
O 	O 	0.52220 0.58810 0.32300 -0.46000
O 	O 	0.54290 0.76930 0.38490 -0.42400
O 	O 	0.40240 0.66590 0.12320 -0.47900
O 	O 	0.43970 0.84760 0.18300 -0.40600
O 	O 	0.55990 0.50590 0.14170 -0.43100
O 	O 	0.61820 0.52710 0.01660 -0.47600
C 	C 	0.51020 0.69580 0.31180 0.20400
C 	C 	0.44720 0.74110 0.19710 0.18700
C 	C 	0.55050 0.50930 0.04510 0.24100
Bi	Bi	0.42426 0.02979 0.67426 1.84200
O 	O 	0.52220 0.91190 0.82300 -0.46000
O 	O 	0.54290 0.73070 0.88490 -0.42500
O 	O 	0.40240 0.83410 0.62320 -0.47800
O 	O 	0.43970 0.65240 0.68300 -0.40600
O 	O 	0.55990 0.99410 0.64170 -0.42900
O 	O 	0.61820 0.97290 0.51660 -0.47500
C 	C 	0.51020 0.80420 0.81180 0.20400
C 	C 	0.44720 0.75890 0.69710 0.18700
C 	C 	0.55050 0.99070 0.54510 0.24100
Bi	Bi	0.57574 0.97021 0.32574 1.84200
O 	O 	0.47780 0.08810 0.17700 -0.46000
O 	O 	0.45710 0.26930 0.11510 -0.42500
O 	O 	0.59760 0.16590 0.37680 -0.47800
O 	O 	0.56030 0.34760 0.31700 -0.40600
O 	O 	0.44010 0.00590 0.35830 -0.42900
O 	O 	0.38180 0.02710 0.48340 -0.47500
C 	C 	0.48980 0.19580 0.18820 0.20400
C 	C 	0.55280 0.24110 0.30290 0.18700
C 	C 	0.44950 0.00930 0.45490 0.24100
C 	C 	0.13360 0.45770 0.56650 -0.27600
H 	H 	0.09400 0.47870 0.49140 0.12900
H 	H 	0.09770 0.47730 0.60910 0.10900
C 	C 	0.22290 0.52890 0.60600 0.34200
H 	H 	0.26670 0.50030 0.67810 -0.07400
C 	C 	0.19860 0.65250 0.61660 -0.80400
H 	H 	0.15820 0.68290 0.54600 0.24500
H 	H 	0.25690 0.69750 0.64770 0.24000
H 	H 	0.16500 0.65690 0.66300 0.23300
N 	N 	0.15000 0.32870 0.57260 -0.26000
H 	H 	0.09340 0.29210 0.54480 0.11100
H 	H 	0.18260 0.30760 0.64180 0.06100
H 	H 	0.18380 0.30980 0.53470 0.06900
N 	N 	0.27440 0.52210 0.53100 -0.38700
H 	H 	0.28320 0.44780 0.51870 0.12100
H 	H 	0.33130 0.55750 0.56210 0.16300
H 	H 	0.23880 0.55700 0.46810 0.09800
C 	C 	0.86640 0.95770 0.93350 -0.28600
H 	H 	0.90600 0.97870 0.00860 0.13900
H 	H 	0.90230 0.97730 0.89090 0.11200
C 	C 	0.77710 0.02890 0.89400 0.33800
H 	H 	0.73330 0.00030 0.82190 -0.07400
C 	C 	0.80140 0.15250 0.88340 -0.79700
H 	H 	0.84180 0.18290 0.95400 0.23900
H 	H 	0.74310 0.19750 0.85230 0.23700
H 	H 	0.83500 0.15690 0.83700 0.22800
N 	N 	0.85000 0.82870 0.92740 -0.25600
H 	H 	0.90660 0.79210 0.95520 0.10600
H 	H 	0.81740 0.80760 0.85820 0.05900
H 	H 	0.81620 0.80980 0.96530 0.06600
N 	N 	0.72560 0.02210 0.96900 -0.39200
H 	H 	0.71680 0.94780 0.98130 0.12300
H 	H 	0.66870 0.05750 0.93790 0.16300
H 	H 	0.76120 0.05700 0.03190 0.10100
C 	C 	0.86640 0.54230 0.43350 -0.27600
H 	H 	0.90600 0.52130 0.50860 0.12900
H 	H 	0.90230 0.52270 0.39090 0.10900
C 	C 	0.77710 0.47110 0.39400 0.34200
H 	H 	0.73330 0.49970 0.32190 -0.07400
C 	C 	0.80140 0.34750 0.38340 -0.80400
H 	H 	0.84180 0.31710 0.45400 0.24500
H 	H 	0.74310 0.30250 0.35230 0.24000
H 	H 	0.83500 0.34310 0.33700 0.23300
N 	N 	0.85000 0.67130 0.42740 -0.26000
H 	H 	0.90660 0.70790 0.45520 0.11100
H 	H 	0.81740 0.69240 0.35820 0.06100
H 	H 	0.81620 0.69020 0.46530 0.06900
N 	N 	0.72560 0.47790 0.46900 -0.38700
H 	H 	0.71680 0.55220 0.48130 0.12100
H 	H 	0.66870 0.44250 0.43790 0.16300
H 	H 	0.76120 0.44300 0.53190 0.09800
C 	C 	0.13360 0.04230 0.06650 -0.28600
H 	H 	0.09400 0.02130 0.99140 0.13900
H 	H 	0.09770 0.02270 0.10910 0.11200
C 	C 	0.22290 0.97110 0.10600 0.33800
H 	H 	0.26670 0.99970 0.17810 -0.07400
C 	C 	0.19860 0.84750 0.11660 -0.79700
H 	H 	0.15820 0.81710 0.04600 0.23900
H 	H 	0.25690 0.80250 0.14770 0.23700
H 	H 	0.16500 0.84310 0.16300 0.22800
N 	N 	0.15000 0.17130 0.07260 -0.25600
H 	H 	0.09340 0.20790 0.04480 0.10600
H 	H 	0.18260 0.19240 0.14180 0.05900
H 	H 	0.18380 0.19020 0.03470 0.06600
N 	N 	0.27440 0.97790 0.03100 -0.39200
H 	H 	0.28320 0.05220 0.01870 0.12300
H 	H 	0.33130 0.94250 0.06210 0.16300
H 	H 	0.23880 0.94300 0.96810 0.10100
Bi	Bi	0.99498 0.49949 0.83174 1.76300
O 	O 	0.00530 0.70660 0.87910 -0.55100
O 	O 	0.01930 0.88240 0.82020 -0.49500
O 	O 	0.97060 0.61820 0.68110 -0.50200
O 	O 	0.99500 0.79150 0.62610 -0.54500
C 	C 	0.00720 0.77530 0.80900 0.21200
C 	C 	0.98900 0.72420 0.69530 0.20500
Bi	Bi	0.00502 0.99949 0.66826 1.76300
O 	O 	0.99470 0.20660 0.62090 -0.55400
O 	O 	0.98070 0.38240 0.67980 -0.49300
O 	O 	0.02940 0.11820 0.81890 -0.49700
O 	O 	0.00500 0.29150 0.87390 -0.54400
C 	C 	0.99280 0.27530 0.69100 0.20400
C 	C 	0.01100 0.22420 0.80470 0.21200
Bi	Bi	0.00502 0.50051 0.16826 1.76300
O 	O 	0.99470 0.29340 0.12090 -0.55100
O 	O 	0.98070 0.11760 0.17980 -0.49500
O 	O 	0.02940 0.38180 0.31890 -0.50200
O 	O 	0.00500 0.20850 0.37390 -0.54500
C 	C 	0.99280 0.22470 0.19100 0.21200
C 	C 	0.01100 0.27580 0.30470 0.20500
Bi	Bi	0.99498 0.00051 0.33174 1.76300
O 	O 	0.00530 0.79340 0.37910 -0.55400
O 	O 	0.01930 0.61760 0.32020 -0.49300
O 	O 	0.97060 0.88180 0.18110 -0.49700
O 	O 	0.99500 0.70850 0.12610 -0.54400
C 	C 	0.00720 0.72470 0.30900 0.20400
C 	C 	0.98900 0.77580 0.19530 0.21200
