data_crystal

_cell_length_a 25.13350
_cell_length_b 25.13350
_cell_length_c 9.74540
_cell_angle_alpha 90.00000
_cell_angle_beta  90.00000
_cell_angle_gamma 90.00000

_symmetry_space_group_name_	'P 1'
_symmetry_space_group_name_H-M	'P 1'

loop_
_symmetry_equiv_pos_as_xyz
  x,y,z

loop_
_atom_site_label
_atom_site_type_symbol
_atom_site_fract_x
_atom_site_fract_y
_atom_site_fract_z
_atom_site_charge
In	In	0.70316 0.35607 0.69672 2.00000
O 	O 	0.74059 0.38163 0.49200 -0.35100
O 	O 	0.81463 0.41697 0.40450 -0.39700
O 	O 	0.78095 0.39210 0.74420 -0.39800
O 	O 	0.84779 0.44036 0.65830 -0.32100
O 	O 	0.73437 0.28084 0.59630 -0.37700
O 	O 	0.76872 0.20055 0.63550 -0.36100
O 	O 	0.64038 0.33544 0.53890 -0.35600
O 	O 	0.55309 0.32806 0.50550 -0.12500
O 	O 	0.62885 0.32812 0.80420 -0.37400
O 	O 	0.54140 0.33075 0.78860 -0.13800
C 	C 	0.78539 0.40324 0.50160 0.24500
C 	C 	0.80659 0.41323 0.64760 0.23100
C 	C 	0.75117 0.24477 0.67240 0.24100
C 	C 	0.59266 0.33140 0.57980 0.23500
C 	C 	0.58556 0.33006 0.73660 0.23400
In	In	0.20316 0.85607 0.19672 2.00100
O 	O 	0.24059 0.88163 0.99200 -0.35200
O 	O 	0.31463 0.91697 0.90450 -0.39800
O 	O 	0.28095 0.89210 0.24420 -0.39600
O 	O 	0.34779 0.94036 0.15830 -0.31900
O 	O 	0.23437 0.78084 0.09630 -0.37500
O 	O 	0.26872 0.70055 0.13550 -0.35900
O 	O 	0.14038 0.83544 0.03890 -0.35500
O 	O 	0.05309 0.82806 0.00550 -0.12400
O 	O 	0.12885 0.82812 0.30420 -0.37400
O 	O 	0.04140 0.83075 0.28860 -0.13700
C 	C 	0.28539 0.90324 0.00160 0.25000
C 	C 	0.30659 0.91323 0.14760 0.23000
C 	C 	0.25117 0.74477 0.17240 0.24100
C 	C 	0.09266 0.83140 0.07980 0.23500
C 	C 	0.08556 0.83006 0.23660 0.23500
In	In	0.79684 0.64393 0.19672 2.00100
O 	O 	0.75941 0.61837 0.99200 -0.35100
O 	O 	0.68537 0.58303 0.90450 -0.39700
O 	O 	0.71905 0.60790 0.24420 -0.39700
O 	O 	0.65221 0.55964 0.15830 -0.31900
O 	O 	0.76563 0.71916 0.09630 -0.37500
O 	O 	0.73128 0.79945 0.13550 -0.35900
O 	O 	0.85962 0.66456 0.03890 -0.35500
O 	O 	0.94691 0.67194 0.00550 -0.12400
O 	O 	0.87115 0.67188 0.30420 -0.37400
O 	O 	0.95860 0.66925 0.28860 -0.13700
C 	C 	0.71461 0.59676 0.00160 0.24800
C 	C 	0.69341 0.58677 0.14760 0.23000
C 	C 	0.74883 0.75523 0.17240 0.24100
C 	C 	0.90734 0.66860 0.07980 0.23500
C 	C 	0.91444 0.66994 0.23660 0.23500
In	In	0.29684 0.14393 0.69672 2.00100
O 	O 	0.25941 0.11837 0.49200 -0.35000
O 	O 	0.18537 0.08303 0.40450 -0.39600
O 	O 	0.21905 0.10790 0.74420 -0.39700
O 	O 	0.15221 0.05964 0.65830 -0.32000
O 	O 	0.26563 0.21916 0.59630 -0.37600
O 	O 	0.23128 0.29945 0.63550 -0.36000
O 	O 	0.35962 0.16456 0.53890 -0.35500
O 	O 	0.44691 0.17194 0.50550 -0.12400
O 	O 	0.37115 0.17188 0.80420 -0.37300
O 	O 	0.45860 0.16925 0.78860 -0.13700
C 	C 	0.21461 0.09676 0.50160 0.24600
C 	C 	0.19341 0.08677 0.64760 0.23100
C 	C 	0.24883 0.25523 0.67240 0.24100
C 	C 	0.40734 0.16860 0.57980 0.23500
C 	C 	0.41444 0.16994 0.73660 0.23400
In	In	0.39393 0.95316 0.94672 2.00100
O 	O 	0.36837 0.99059 0.74200 -0.35000
O 	O 	0.33303 0.06463 0.65450 -0.39600
O 	O 	0.35790 0.03095 0.99420 -0.39600
O 	O 	0.30964 0.09779 0.90830 -0.31900
O 	O 	0.46916 0.98437 0.84630 -0.37700
O 	O 	0.54945 0.01872 0.88550 -0.35900
O 	O 	0.41456 0.89038 0.78890 -0.35500
O 	O 	0.42194 0.80309 0.75550 -0.12500
O 	O 	0.42188 0.87885 0.05420 -0.37200
O 	O 	0.41925 0.79140 0.03860 -0.13500
C 	C 	0.34676 0.03539 0.75160 0.24700
C 	C 	0.33677 0.05659 0.89760 0.23100
C 	C 	0.50523 0.00117 0.92240 0.24200
C 	C 	0.41860 0.84266 0.82980 0.23600
C 	C 	0.41994 0.83556 0.98660 0.23100
In	In	0.89393 0.45316 0.44672 2.00100
O 	O 	0.86837 0.49059 0.24200 -0.35000
O 	O 	0.83303 0.56463 0.15450 -0.39600
O 	O 	0.85790 0.53095 0.49420 -0.39700
O 	O 	0.80964 0.59779 0.40830 -0.32000
O 	O 	0.96916 0.48437 0.34630 -0.37600
O 	O 	0.04945 0.51872 0.38550 -0.36000
O 	O 	0.91456 0.39038 0.28890 -0.35500
O 	O 	0.92194 0.30309 0.25550 -0.12500
O 	O 	0.92188 0.37885 0.55420 -0.37400
O 	O 	0.91925 0.29140 0.53860 -0.13700
C 	C 	0.84676 0.53539 0.25160 0.24600
C 	C 	0.83677 0.55659 0.39760 0.23100
C 	C 	0.00523 0.50117 0.42240 0.24100
C 	C 	0.91860 0.34266 0.32980 0.23500
C 	C 	0.91994 0.33556 0.48660 0.23400
In	In	0.10607 0.04684 0.44672 2.00100
O 	O 	0.13163 0.00941 0.24200 -0.35100
O 	O 	0.16697 0.93537 0.15450 -0.39600
O 	O 	0.14210 0.96905 0.49420 -0.39700
O 	O 	0.19036 0.90221 0.40830 -0.32000
O 	O 	0.03084 0.01563 0.34630 -0.37600
O 	O 	0.95055 0.98128 0.38550 -0.36000
O 	O 	0.08544 0.10962 0.28890 -0.35500
O 	O 	0.07806 0.19691 0.25550 -0.12500
O 	O 	0.07812 0.12115 0.55420 -0.37400
O 	O 	0.08075 0.20860 0.53860 -0.13700
C 	C 	0.15324 0.96461 0.25160 0.24700
C 	C 	0.16323 0.94341 0.39760 0.23100
C 	C 	0.99477 0.99883 0.42240 0.24100
C 	C 	0.08140 0.15734 0.32980 0.23500
C 	C 	0.08006 0.16444 0.48660 0.23400
In	In	0.60607 0.54684 0.94672 2.00100
O 	O 	0.63163 0.50941 0.74200 -0.35000
O 	O 	0.66697 0.43537 0.65450 -0.39600
O 	O 	0.64210 0.46905 0.99420 -0.39700
O 	O 	0.69036 0.40221 0.90830 -0.31900
O 	O 	0.53084 0.51563 0.84630 -0.37600
O 	O 	0.45055 0.48128 0.88550 -0.35900
O 	O 	0.58544 0.60962 0.78890 -0.35500
O 	O 	0.57806 0.69691 0.75550 -0.12500
O 	O 	0.57812 0.62115 0.05420 -0.37200
O 	O 	0.58075 0.70860 0.03860 -0.13600
C 	C 	0.65324 0.46461 0.75160 0.24600
C 	C 	0.66323 0.44341 0.89760 0.23100
C 	C 	0.49477 0.49883 0.92240 0.24100
C 	C 	0.58140 0.65734 0.82980 0.23500
C 	C 	0.58006 0.66444 0.98660 0.23200
In	In	0.29684 0.64393 0.30328 2.00100
O 	O 	0.25941 0.61837 0.50800 -0.35000
O 	O 	0.18537 0.58303 0.59550 -0.39600
O 	O 	0.21905 0.60790 0.25580 -0.39700
O 	O 	0.15221 0.55964 0.34170 -0.32000
O 	O 	0.26563 0.71916 0.40370 -0.37600
O 	O 	0.23128 0.79945 0.36450 -0.36000
O 	O 	0.35962 0.66456 0.46110 -0.35500
O 	O 	0.44691 0.67194 0.49450 -0.12400
O 	O 	0.37115 0.67188 0.19580 -0.37300
O 	O 	0.45860 0.66925 0.21140 -0.13700
C 	C 	0.21461 0.59676 0.49840 0.24600
C 	C 	0.19341 0.58677 0.35240 0.23100
C 	C 	0.24883 0.75523 0.32760 0.24100
C 	C 	0.40734 0.66860 0.42020 0.23500
C 	C 	0.41444 0.66994 0.26340 0.23400
In	In	0.79684 0.14393 0.80328 2.00100
O 	O 	0.75941 0.11837 0.00800 -0.35200
O 	O 	0.68537 0.08303 0.09550 -0.39800
O 	O 	0.71905 0.10790 0.75580 -0.39600
O 	O 	0.65221 0.05964 0.84170 -0.31900
O 	O 	0.76563 0.21916 0.90370 -0.37500
O 	O 	0.73128 0.29945 0.86450 -0.35900
O 	O 	0.85962 0.16456 0.96110 -0.35500
O 	O 	0.94691 0.17194 0.99450 -0.12400
O 	O 	0.87115 0.17188 0.69580 -0.37400
O 	O 	0.95860 0.16925 0.71140 -0.13700
C 	C 	0.71461 0.09676 0.99840 0.25000
C 	C 	0.69341 0.08677 0.85240 0.23000
C 	C 	0.74883 0.25523 0.82760 0.24100
C 	C 	0.90734 0.16860 0.92020 0.23500
C 	C 	0.91444 0.16994 0.76340 0.23500
In	In	0.20316 0.35607 0.80328 2.00100
O 	O 	0.24059 0.38163 0.00800 -0.35100
O 	O 	0.31463 0.41697 0.09550 -0.39700
O 	O 	0.28095 0.39210 0.75580 -0.39700
O 	O 	0.34779 0.44036 0.84170 -0.31900
O 	O 	0.23437 0.28084 0.90370 -0.37500
O 	O 	0.26872 0.20055 0.86450 -0.35900
O 	O 	0.14038 0.33544 0.96110 -0.35500
O 	O 	0.05309 0.32806 0.99450 -0.12400
O 	O 	0.12885 0.32812 0.69580 -0.37400
O 	O 	0.04140 0.33075 0.71140 -0.13700
C 	C 	0.28539 0.40324 0.99840 0.24800
C 	C 	0.30659 0.41323 0.85240 0.23000
C 	C 	0.25117 0.24477 0.82760 0.24100
C 	C 	0.09266 0.33140 0.92020 0.23500
C 	C 	0.08556 0.33006 0.76340 0.23500
In	In	0.70316 0.85607 0.30328 2.00100
O 	O 	0.74059 0.88163 0.50800 -0.35000
O 	O 	0.81463 0.91697 0.59550 -0.39600
O 	O 	0.78095 0.89210 0.25580 -0.39700
O 	O 	0.84779 0.94036 0.34170 -0.32000
O 	O 	0.73437 0.78084 0.40370 -0.37600
O 	O 	0.76872 0.70055 0.36450 -0.36000
O 	O 	0.64038 0.83544 0.46110 -0.35500
O 	O 	0.55309 0.82806 0.49450 -0.12400
O 	O 	0.62885 0.82812 0.19580 -0.37300
O 	O 	0.54140 0.83075 0.21140 -0.13700
C 	C 	0.78539 0.90324 0.49840 0.24600
C 	C 	0.80659 0.91323 0.35240 0.23100
C 	C 	0.75117 0.74477 0.32760 0.24100
C 	C 	0.59266 0.83140 0.42020 0.23500
C 	C 	0.58556 0.83006 0.26340 0.23400
In	In	0.60607 0.04684 0.05328 2.00100
O 	O 	0.63163 0.00941 0.25800 -0.35000
O 	O 	0.66697 0.93537 0.34550 -0.39600
O 	O 	0.64210 0.96905 0.00580 -0.39600
O 	O 	0.69036 0.90221 0.09170 -0.31900
O 	O 	0.53084 0.01563 0.15370 -0.37700
O 	O 	0.45055 0.98128 0.11450 -0.35900
O 	O 	0.58544 0.10962 0.21110 -0.35500
O 	O 	0.57806 0.19691 0.24450 -0.12500
O 	O 	0.57812 0.12115 0.94580 -0.37200
O 	O 	0.58075 0.20860 0.96140 -0.13500
C 	C 	0.65324 0.96461 0.24840 0.24700
C 	C 	0.66323 0.94341 0.10240 0.23100
C 	C 	0.49477 0.99883 0.07760 0.24200
C 	C 	0.58140 0.15734 0.17020 0.23600
C 	C 	0.58006 0.16444 0.01340 0.23100
In	In	0.10607 0.54684 0.55328 2.00100
O 	O 	0.13163 0.50941 0.75800 -0.35000
O 	O 	0.16697 0.43537 0.84550 -0.39600
O 	O 	0.14210 0.46905 0.50580 -0.39700
O 	O 	0.19036 0.40221 0.59170 -0.32000
O 	O 	0.03084 0.51563 0.65370 -0.37600
O 	O 	0.95055 0.48128 0.61450 -0.36000
O 	O 	0.08544 0.60962 0.71110 -0.35500
O 	O 	0.07806 0.69691 0.74450 -0.12500
O 	O 	0.07812 0.62115 0.44580 -0.37400
O 	O 	0.08075 0.70860 0.46140 -0.13700
C 	C 	0.15324 0.46461 0.74840 0.24600
C 	C 	0.16323 0.44341 0.60240 0.23100
C 	C 	0.99477 0.49883 0.57760 0.24100
C 	C 	0.08140 0.65734 0.67020 0.23500
C 	C 	0.08006 0.66444 0.51340 0.23400
In	In	0.89393 0.95316 0.55328 2.00100
O 	O 	0.86837 0.99059 0.75800 -0.35100
O 	O 	0.83303 0.06463 0.84550 -0.39600
O 	O 	0.85790 0.03095 0.50580 -0.39700
O 	O 	0.80964 0.09779 0.59170 -0.32000
O 	O 	0.96916 0.98437 0.65370 -0.37600
O 	O 	0.04945 0.01872 0.61450 -0.36000
O 	O 	0.91456 0.89038 0.71110 -0.35500
O 	O 	0.92194 0.80309 0.74450 -0.12500
O 	O 	0.92188 0.87885 0.44580 -0.37400
O 	O 	0.91925 0.79140 0.46140 -0.13700
C 	C 	0.84676 0.03539 0.74840 0.24700
C 	C 	0.83677 0.05659 0.60240 0.23100
C 	C 	0.00523 0.00117 0.57760 0.24100
C 	C 	0.91860 0.84266 0.67020 0.23500
C 	C 	0.91994 0.83556 0.51340 0.23400
In	In	0.39393 0.45316 0.05328 2.00100
O 	O 	0.36837 0.49059 0.25800 -0.35000
O 	O 	0.33303 0.56463 0.34550 -0.39600
O 	O 	0.35790 0.53095 0.00580 -0.39700
O 	O 	0.30964 0.59779 0.09170 -0.31900
O 	O 	0.46916 0.48437 0.15370 -0.37600
O 	O 	0.54945 0.51872 0.11450 -0.35900
O 	O 	0.41456 0.39038 0.21110 -0.35500
O 	O 	0.42194 0.30309 0.24450 -0.12500
O 	O 	0.42188 0.37885 0.94580 -0.37200
O 	O 	0.41925 0.29140 0.96140 -0.13600
C 	C 	0.34676 0.53539 0.24840 0.24600
C 	C 	0.33677 0.55659 0.10240 0.23100
C 	C 	0.50523 0.50117 0.07760 0.24100
C 	C 	0.41860 0.34266 0.17020 0.23500
C 	C 	0.41994 0.33556 0.01340 0.23200
