data_crystal

_cell_length_a 10.41950
_cell_length_b 11.17430
_cell_length_c 12.56900
_cell_angle_alpha 102.19800
_cell_angle_beta  108.53700
_cell_angle_gamma 98.94400

_symmetry_space_group_name_	'P 1'
_symmetry_space_group_name_H-M	'P 1'

loop_
_symmetry_equiv_pos_as_xyz
  x,y,z

loop_
_atom_site_label
_atom_site_type_symbol
_atom_site_fract_x
_atom_site_fract_y
_atom_site_fract_z
_atom_site_charge
Nd	Nd	0.39829 0.95560 0.31927 2.03900
Nd	Nd	0.60171 0.04440 0.68073 2.03900
H 	H 	0.56870 0.37360 0.70690 0.28300
H 	H 	0.23910 0.10220 0.74740 0.28100
H 	H 	0.49430 0.35770 0.33510 0.07400
H 	H 	0.10140 0.93860 0.36510 0.05700
H 	H 	0.43130 0.62640 0.29310 0.28300
H 	H 	0.76090 0.89780 0.25260 0.28100
H 	H 	0.50570 0.64230 0.66490 0.07400
H 	H 	0.89860 0.06140 0.63490 0.05700
C 	C 	0.54560 0.25140 0.50610 0.47700
C 	C 	0.52490 0.38170 0.50570 -0.18300
C 	C 	0.49630 0.41480 0.40160 -0.08300
C 	C 	0.52920 0.46850 0.60490 0.23600
C 	C 	0.13880 0.51730 0.01100 0.02400
C 	C 	0.95650 0.59310 0.06360 0.13500
C 	C 	0.09580 0.61100 0.07440 -0.11900
C 	C 	0.20010 0.73080 0.15340 0.34700
C 	C 	0.29740 0.03380 0.57290 0.44900
C 	C 	0.14430 0.01570 0.53620 -0.18400
C 	C 	0.08240 0.05210 0.61840 0.24000
C 	C 	0.06050 0.96360 0.41920 -0.07800
C 	C 	0.45440 0.74860 0.49390 0.47700
C 	C 	0.47510 0.61830 0.49430 -0.18300
C 	C 	0.50370 0.58520 0.59840 -0.08300
C 	C 	0.47080 0.53150 0.39510 0.23600
C 	C 	0.86120 0.48270 0.98900 0.02400
C 	C 	0.04350 0.40690 0.93640 0.13500
C 	C 	0.90420 0.38900 0.92560 -0.11900
C 	C 	0.79990 0.26920 0.84660 0.34700
C 	C 	0.70260 0.96620 0.42710 0.44900
C 	C 	0.85570 0.98430 0.46380 -0.18400
C 	C 	0.91760 0.94790 0.38160 0.24000
C 	C 	0.93950 0.03640 0.58080 -0.07800
O 	O 	0.52230 0.17400 0.40970 -0.54100
O 	O 	0.58450 0.22880 0.60430 -0.49800
O 	O 	0.55650 0.44500 0.71200 -0.42100
O 	O 	0.32120 0.75270 0.15370 -0.42700
O 	O 	0.35280 0.00910 0.49730 -0.59600
O 	O 	0.37100 0.07190 0.68100 -0.50100
O 	O 	0.15700 0.10280 0.73440 -0.42300
O 	O 	0.16070 0.80920 0.21730 -0.43200
O 	O 	0.89910 0.67590 0.11780 -0.15600
O 	O 	0.47770 0.82600 0.59030 -0.54100
O 	O 	0.41550 0.77120 0.39570 -0.49800
O 	O 	0.44350 0.55500 0.28800 -0.42100
O 	O 	0.67880 0.24730 0.84630 -0.42700
O 	O 	0.64720 0.99090 0.50270 -0.59600
O 	O 	0.62900 0.92810 0.31900 -0.50100
O 	O 	0.84300 0.89720 0.26560 -0.42300
O 	O 	0.83930 0.19080 0.78270 -0.43200
O 	O 	0.10090 0.32410 0.88220 -0.15600
