data_crystal

_cell_length_a 10.55070
_cell_length_b 10.92650
_cell_length_c 12.89780
_cell_angle_alpha 103.18400
_cell_angle_beta  111.14700
_cell_angle_gamma 96.56600

_symmetry_space_group_name_	'P 1'
_symmetry_space_group_name_H-M	'P 1'

loop_
_symmetry_equiv_pos_as_xyz
  x,y,z

loop_
_atom_site_label
_atom_site_type_symbol
_atom_site_fract_x
_atom_site_fract_y
_atom_site_fract_z
_atom_site_charge
Er	Er	0.89354 0.45347 0.31733 1.63900
Er	Er	0.10646 0.54653 0.68267 1.63900
H 	H 	0.05320 0.87000 0.70160 0.28500
H 	H 	0.76340 0.59600 0.73720 0.28400
H 	H 	0.81600 0.08840 0.04940 0.28600
H 	H 	0.00090 0.85200 0.34130 0.08400
H 	H 	0.57710 0.44480 0.35260 0.08000
H 	H 	0.44020 0.16080 0.11270 0.11200
H 	H 	0.94680 0.13000 0.29840 0.28500
H 	H 	0.23660 0.40400 0.26280 0.28400
H 	H 	0.18400 0.91160 0.95060 0.28600
H 	H 	0.99910 0.14800 0.65870 0.08400
H 	H 	0.42290 0.55520 0.64740 0.08000
H 	H 	0.55980 0.83920 0.88730 0.11200
C 	C 	0.02100 0.96780 0.60310 0.24300
C 	C 	0.02090 0.87710 0.50640 -0.17400
C 	C 	0.00030 0.91170 0.40530 -0.08700
C 	C 	0.03680 0.74330 0.50760 0.46000
C 	C 	0.59540 0.54700 0.61580 0.24700
C 	C 	0.64220 0.51390 0.52730 -0.18100
C 	C 	0.54570 0.46700 0.41180 -0.08300
C 	C 	0.79320 0.52780 0.55160 0.46800
C 	C 	0.63600 0.01320 0.00590 0.23900
C 	C 	0.60070 0.11030 0.07530 -0.12400
C 	C 	0.46420 0.09590 0.06760 -0.11000
C 	C 	0.70460 0.23020 0.15430 0.33500
C 	C 	0.97900 0.03220 0.39690 0.24300
C 	C 	0.97910 0.12290 0.49360 -0.17400
C 	C 	0.99970 0.08830 0.59470 -0.08700
C 	C 	0.96320 0.25670 0.49240 0.46000
C 	C 	0.40460 0.45300 0.38420 0.24700
C 	C 	0.35780 0.48610 0.47270 -0.18100
C 	C 	0.45430 0.53300 0.58820 -0.08300
C 	C 	0.20680 0.47220 0.44840 0.46800
C 	C 	0.36400 0.98680 0.99410 0.23900
C 	C 	0.39930 0.88970 0.92470 -0.12400
C 	C 	0.53580 0.90410 0.93240 -0.11000
C 	C 	0.29540 0.76980 0.84570 0.33500
O 	O 	0.01490 0.66280 0.41340 -0.48700
O 	O 	0.07170 0.71990 0.60510 -0.45200
O 	O 	0.04110 0.94350 0.70600 -0.42300
O 	O 	0.83180 0.50310 0.46990 -0.51200
O 	O 	0.87920 0.56480 0.65720 -0.47100
O 	O 	0.68280 0.59390 0.73030 -0.43200
O 	O 	0.82630 0.24970 0.15520 -0.39700
O 	O 	0.67180 0.31200 0.21990 -0.41400
O 	O 	0.76520 0.01910 0.00580 -0.41500
O 	O 	0.98510 0.33720 0.58660 -0.48700
O 	O 	0.92830 0.28010 0.39490 -0.45200
O 	O 	0.95890 0.05650 0.29400 -0.42300
O 	O 	0.16820 0.49690 0.53010 -0.51200
O 	O 	0.12080 0.43520 0.34280 -0.47100
O 	O 	0.31720 0.40610 0.26970 -0.43200
O 	O 	0.17370 0.75030 0.84480 -0.39700
O 	O 	0.32820 0.68800 0.78010 -0.41400
O 	O 	0.23480 0.98090 0.99420 -0.41500
