data_crystal

_cell_length_a 10.41400
_cell_length_b 10.95400
_cell_length_c 12.43200
_cell_angle_alpha 104.28600
_cell_angle_beta  106.96100
_cell_angle_gamma 98.02700

_symmetry_space_group_name_	'P 1'
_symmetry_space_group_name_H-M	'P 1'

loop_
_symmetry_equiv_pos_as_xyz
  x,y,z

loop_
_atom_site_label
_atom_site_type_symbol
_atom_site_fract_x
_atom_site_fract_y
_atom_site_fract_z
_atom_site_charge
Gd	Gd	0.89352 0.92423 0.80621 1.69000
Gd	Gd	0.09433 0.06687 0.19436 1.72100
H 	H 	0.30459 0.50616 0.19119 0.14000
H 	H 	0.61238 0.05058 0.86156 0.05200
H 	H 	0.78231 0.31828 0.88323 0.06800
H 	H 	0.57622 0.92102 0.24595 0.13300
H 	H 	0.74062 0.63843 0.90202 0.15400
H 	H 	0.37396 0.96142 0.13593 0.03500
H 	H 	0.19879 0.66303 0.13389 0.04200
H 	H 	0.28776 0.13493 0.81650 0.15000
C 	C 	0.63400 0.51093 0.48721 0.16600
C 	C 	0.46630 0.58626 0.57266 -0.05800
C 	C 	0.70577 0.71909 0.65903 0.32900
C 	C 	0.56444 0.97131 0.09713 0.16300
C 	C 	0.56093 0.02886 0.92105 -0.04500
C 	C 	0.98789 0.21548 0.99206 0.34300
C 	C 	0.99057 0.35723 0.00444 -0.11800
C 	C 	0.10772 0.45784 0.07661 0.17300
C 	C 	0.87461 0.39232 0.93811 -0.06700
C 	C 	0.78579 0.99638 0.04765 0.44300
C 	C 	0.63348 0.99296 0.01807 -0.13700
C 	C 	0.60153 0.60457 0.57095 -0.11100
C 	C 	0.36459 0.47707 0.49483 0.16300
C 	C 	0.53363 0.39943 0.41326 -0.05500
C 	C 	0.29199 0.26826 0.33051 0.33500
C 	C 	0.42525 0.04640 0.90338 0.17300
C 	C 	0.42625 0.98411 0.07730 -0.02800
C 	C 	0.99931 0.76220 0.01391 0.39400
C 	C 	0.99172 0.62259 0.01162 -0.16500
C 	C 	0.87282 0.52183 0.94195 0.17800
C 	C 	0.10694 0.58815 0.07975 -0.01300
C 	C 	0.20087 0.01529 0.95051 0.40000
C 	C 	0.35391 0.02127 0.98079 -0.15400
C 	C 	0.39857 0.38249 0.41462 -0.10000
O 	O 	0.86364 0.03675 0.15389 -0.46900
O 	O 	0.85028 0.97246 0.97512 -0.47800
O 	O 	0.89455 0.13057 0.90310 -0.43400
O 	O 	0.08694 0.18113 0.05924 -0.32300
O 	O 	0.83498 0.72725 0.68317 -0.44500
O 	O 	0.67452 0.81792 0.71744 -0.44100
O 	O 	0.22622 0.42796 0.14238 -0.26000
O 	O 	0.63331 0.93467 0.19459 -0.28100
O 	O 	0.76173 0.52645 0.47060 -0.27700
O 	O 	0.12389 0.97859 0.84392 -0.44000
O 	O 	0.13347 0.03535 0.02202 -0.41600
O 	O 	0.06439 0.85027 0.11345 -0.44200
O 	O 	0.94197 0.78515 0.91607 -0.42000
O 	O 	0.16479 0.27159 0.29774 -0.41900
O 	O 	0.31742 0.15884 0.28642 -0.44400
O 	O 	0.74881 0.54550 0.87835 -0.28000
O 	O 	0.36730 0.09370 0.80994 -0.28600
O 	O 	0.23051 0.46033 0.49883 -0.26400
H 	H 	0.43966 0.65660 0.63575 0.06300
H 	H 	0.55992 0.32862 0.35026 0.07200
H 	H 	0.81054 0.61950 0.48929 0.14400
H 	H 	0.21682 0.53324 0.55972 0.14600
