data_crystal

_cell_length_a 10.79980
_cell_length_b 14.57310
_cell_length_c 17.05900
_cell_angle_alpha 78.40100
_cell_angle_beta  89.43800
_cell_angle_gamma 83.03900

_symmetry_space_group_name_	'P 1'
_symmetry_space_group_name_H-M	'P 1'

loop_
_symmetry_equiv_pos_as_xyz
  x,y,z

loop_
_atom_site_label
_atom_site_type_symbol
_atom_site_fract_x
_atom_site_fract_y
_atom_site_fract_z
_atom_site_charge
Co	Co	0.26760 0.88879 0.50835 1.14200
Co	Co	0.49278 0.01918 0.40603 1.13500
Co	Co	0.73662 0.58668 0.97474 1.17200
Co	Co	0.50062 0.46401 0.91805 1.14300
O 	O 	0.81833 0.02926 0.59125 -0.43700
O 	O 	0.69689 0.91278 0.60136 -0.43000
O 	O 	0.74138 0.66037 0.84629 -0.34800
O 	O 	0.90253 0.64625 0.92704 -0.35700
O 	O 	0.27805 0.78332 0.61797 -0.39500
O 	O 	0.09534 0.82027 0.55816 -0.36200
O 	O 	0.44705 0.91660 0.50221 -0.75600
O 	O 	0.17881 0.46035 0.91528 -0.41800
O 	O 	0.33210 0.54811 0.87347 -0.44700
O 	O 	0.55527 0.57346 0.96156 -0.76200
O 	O 	0.44853 0.96934 0.30671 -0.42900
O 	O 	0.44850 0.81433 0.32163 -0.28800
O 	O 	0.68210 0.71824 0.00652 -0.39700
O 	O 	0.55708 0.65648 0.10483 -0.44800
O 	O 	0.59110 0.13931 0.04347 -0.11600
O 	O 	0.70540 0.06330 0.97240 -0.03900
O 	O 	0.81980 0.48280 0.74740 -0.14600
O 	O 	0.78890 0.58680 0.63720 -0.21200
O 	O 	0.18290 0.98500 0.76609 -0.11900
O 	O 	0.16190 0.90660 0.88600 -0.06200
N 	N 	0.22430 0.00475 0.56611 -0.20200
N 	N 	0.31755 0.04502 0.59512 -0.21100
N 	N 	0.14350 0.13843 0.59435 -0.11900
N 	N 	0.86670 0.30750 0.94586 -0.11000
N 	N 	0.78147 0.44966 0.94911 -0.20300
N 	N 	0.68797 0.39557 0.94044 -0.20800
N 	N 	0.64190 0.06441 0.03067 -0.01000
N 	N 	0.14400 0.91900 0.80920 -0.00600
N 	N 	0.85200 0.54790 0.69620 -0.00500
C 	C 	0.12090 0.06250 0.56567 0.11000
H 	H 	0.04260 0.05220 0.54790 0.00700
C 	C 	0.26650 0.12470 0.61210 0.10700
H 	H 	0.30960 0.16650 0.63360 -0.00100
C 	C 	0.05150 0.21990 0.60429 -0.10700
H 	H 	0.97260 0.21600 0.57790 0.07000
H 	H 	0.08260 0.27870 0.57830 0.07400
C 	C 	0.02840 0.22150 0.69151 0.05600
C 	C 	0.10360 0.26590 0.73336 -0.04500
H 	H 	0.16930 0.29580 0.70710 0.05600
C 	C 	0.08330 0.26670 0.81349 -0.07800
H 	H 	0.13500 0.29740 0.84110 0.07300
C 	C 	0.98750 0.22257 0.85319 0.09200
C 	C 	0.91180 0.17870 0.81120 -0.07700
H 	H 	0.84600 0.14890 0.83750 0.08000
C 	C 	0.93140 0.17800 0.73150 -0.04400
H 	H 	0.87900 0.14800 0.70390 0.05900
C 	C 	0.96200 0.22730 0.93992 -0.14200
H 	H 	0.93280 0.16830 0.96750 0.10400
H 	H 	0.03940 0.23450 0.96630 0.09500
C 	C 	0.88710 0.39533 0.95213 0.10700
H 	H 	0.96590 0.41450 0.95780 0.01700
C 	C 	0.74210 0.31121 0.93802 0.10600
H 	H 	0.70010 0.26020 0.93170 0.02000
C 	C 	0.78590 0.94954 0.62342 0.35300
C 	C 	0.86230 0.89660 0.69512 -0.04700
C 	C 	0.82400 0.81557 0.74192 -0.01400
H 	H 	0.75220 0.79230 0.72700 0.06100
C 	C 	0.89110 0.76849 0.81071 -0.02300
C 	C 	0.99680 0.80130 0.83281 -0.08700
H 	H 	0.04270 0.77020 0.87910 0.09900
C 	C 	0.03380 0.88160 0.78498 0.10800
C 	C 	0.96840 0.93020 0.71780 -0.07300
H 	H 	0.99510 0.98550 0.68760 0.08600
C 	C 	0.84320 0.68574 0.86402 0.28500
C 	C 	0.22670 0.52368 0.86620 0.34900
C 	C 	0.14980 0.57093 0.79319 -0.05500
C 	C 	0.18950 0.64703 0.73920 -0.00800
H 	H 	0.26540 0.66870 0.74880 0.06200
C 	C 	0.11800 0.69121 0.67124 -0.03800
C 	C 	0.00630 0.65908 0.65629 -0.07100
H 	H 	0.95690 0.68810 0.61090 0.08500
C 	C 	0.96990 0.58290 0.71039 0.09000
C 	C 	0.03920 0.53850 0.77785 -0.06200
H 	H 	0.01150 0.48690 0.81300 0.08400
C 	C 	0.16440 0.77052 0.61216 0.29200
C 	C 	0.61490 0.72155 0.06690 0.35400
C 	C 	0.59920 0.81178 0.09785 -0.05000
C 	C 	0.63660 0.89410 0.05314 -0.05800
H 	H 	0.67870 0.89370 0.00470 0.09100
C 	C 	0.61050 0.97652 0.08152 0.10700
C 	C 	0.55500 0.97936 0.15450 -0.05300
H 	H 	0.53980 0.03640 0.17270 0.08200
C 	C 	0.52190 0.89583 0.20048 -0.05500
C 	C 	0.54300 0.81325 0.17069 0.00400
H 	H 	0.51830 0.75720 0.20080 0.05700
C 	C 	0.46700 0.89330 0.28253 0.34100
H 	H 	0.50680 0.86690 0.50750 0.20900
H 	H 	0.50500 0.62660 0.94100 0.24300
O 	O 	0.74700 0.04800 0.99190 -0.07400
O 	O 	0.84100 0.46320 0.72350 0.01600
O 	O 	0.21890 0.85950 0.85720 -0.07400
O 	O 	0.81900 0.56300 0.61530 0.05000
O 	O 	0.76570 0.61350 0.66250 0.04500
Co	Co	0.73240 0.11121 0.49165 1.14200
Co	Co	0.50722 0.98082 0.59397 1.13500
Co	Co	0.26338 0.41332 0.02526 1.17200
Co	Co	0.49938 0.53599 0.08195 1.14300
O 	O 	0.18167 0.97074 0.40875 -0.43700
O 	O 	0.30311 0.08722 0.39864 -0.43000
O 	O 	0.25862 0.33963 0.15371 -0.34800
O 	O 	0.09747 0.35375 0.07296 -0.35700
O 	O 	0.72195 0.21668 0.38203 -0.39500
O 	O 	0.90466 0.17973 0.44184 -0.36200
O 	O 	0.55295 0.08340 0.49779 -0.75600
O 	O 	0.82119 0.53965 0.08472 -0.41800
O 	O 	0.66790 0.45189 0.12653 -0.44700
O 	O 	0.44473 0.42654 0.03844 -0.76200
O 	O 	0.55147 0.03066 0.69329 -0.42900
O 	O 	0.55150 0.18567 0.67837 -0.28800
O 	O 	0.31790 0.28176 0.99348 -0.39700
O 	O 	0.44292 0.34352 0.89517 -0.44800
O 	O 	0.40890 0.86069 0.95653 -0.11600
O 	O 	0.29460 0.93670 0.02760 -0.03900
O 	O 	0.18020 0.51720 0.25260 -0.14600
O 	O 	0.21110 0.41320 0.36280 -0.21200
O 	O 	0.81710 0.01500 0.23391 -0.11900
O 	O 	0.83810 0.09340 0.11400 -0.06200
N 	N 	0.77570 0.99525 0.43389 -0.20200
N 	N 	0.68245 0.95498 0.40488 -0.21100
N 	N 	0.85650 0.86157 0.40565 -0.11900
N 	N 	0.13330 0.69250 0.05414 -0.11000
N 	N 	0.21853 0.55034 0.05089 -0.20300
N 	N 	0.31203 0.60443 0.05956 -0.20800
N 	N 	0.35810 0.93559 0.96933 -0.01000
N 	N 	0.85600 0.08100 0.19080 -0.00600
N 	N 	0.14800 0.45210 0.30380 -0.00500
C 	C 	0.87910 0.93750 0.43433 0.11000
H 	H 	0.95740 0.94780 0.45210 0.00700
C 	C 	0.73350 0.87530 0.38790 0.10700
H 	H 	0.69040 0.83350 0.36640 -0.00100
C 	C 	0.94850 0.78010 0.39571 -0.10700
H 	H 	0.02740 0.78400 0.42210 0.07000
H 	H 	0.91740 0.72130 0.42170 0.07400
C 	C 	0.97160 0.77850 0.30849 0.05600
C 	C 	0.89640 0.73410 0.26664 -0.04500
H 	H 	0.83070 0.70420 0.29290 0.05600
C 	C 	0.91670 0.73330 0.18651 -0.07800
H 	H 	0.86500 0.70260 0.15890 0.07300
C 	C 	0.01250 0.77743 0.14681 0.09200
C 	C 	0.08820 0.82130 0.18880 -0.07700
H 	H 	0.15400 0.85110 0.16250 0.08000
C 	C 	0.06860 0.82200 0.26850 -0.04400
H 	H 	0.12100 0.85200 0.29610 0.05900
C 	C 	0.03800 0.77270 0.06008 -0.14200
H 	H 	0.06720 0.83170 0.03250 0.10400
H 	H 	0.96060 0.76550 0.03370 0.09500
C 	C 	0.11290 0.60467 0.04787 0.10700
H 	H 	0.03410 0.58550 0.04220 0.01700
C 	C 	0.25790 0.68879 0.06198 0.10600
H 	H 	0.29990 0.73980 0.06830 0.02000
C 	C 	0.21410 0.05046 0.37658 0.35300
C 	C 	0.13770 0.10340 0.30488 -0.04700
C 	C 	0.17600 0.18443 0.25808 -0.01400
H 	H 	0.24780 0.20770 0.27300 0.06100
C 	C 	0.10890 0.23151 0.18929 -0.02300
C 	C 	0.00320 0.19870 0.16719 -0.08700
H 	H 	0.95730 0.22980 0.12090 0.09900
C 	C 	0.96620 0.11840 0.21502 0.10800
C 	C 	0.03160 0.06980 0.28220 -0.07300
H 	H 	0.00490 0.01450 0.31240 0.08600
C 	C 	0.15680 0.31426 0.13598 0.28500
C 	C 	0.77330 0.47632 0.13380 0.34900
C 	C 	0.85020 0.42907 0.20681 -0.05500
C 	C 	0.81050 0.35297 0.26080 -0.00800
H 	H 	0.73460 0.33130 0.25120 0.06200
C 	C 	0.88200 0.30879 0.32876 -0.03800
C 	C 	0.99370 0.34092 0.34371 -0.07100
H 	H 	0.04310 0.31190 0.38910 0.08500
C 	C 	0.03010 0.41710 0.28961 0.09000
C 	C 	0.96080 0.46150 0.22215 -0.06200
H 	H 	0.98850 0.51310 0.18700 0.08400
C 	C 	0.83560 0.22948 0.38784 0.29200
C 	C 	0.38510 0.27845 0.93310 0.35400
C 	C 	0.40080 0.18822 0.90215 -0.05000
C 	C 	0.36340 0.10590 0.94686 -0.05800
H 	H 	0.32130 0.10630 0.99530 0.09100
C 	C 	0.38950 0.02348 0.91848 0.10700
C 	C 	0.44500 0.02064 0.84550 -0.05300
H 	H 	0.46020 0.96360 0.82730 0.08200
C 	C 	0.47810 0.10417 0.79952 -0.05500
C 	C 	0.45700 0.18675 0.82931 0.00400
H 	H 	0.48170 0.24280 0.79920 0.05700
C 	C 	0.53300 0.10670 0.71747 0.34100
H 	H 	0.49320 0.13310 0.49250 0.20900
H 	H 	0.49500 0.37340 0.05900 0.24300
O 	O 	0.25300 0.95200 0.00810 -0.07400
O 	O 	0.15900 0.53680 0.27650 0.01600
O 	O 	0.78110 0.14050 0.14280 -0.07400
O 	O 	0.18100 0.43700 0.38470 0.05000
O 	O 	0.23430 0.38650 0.33750 0.04500
