data_crystal

_cell_length_a 11.16600
_cell_length_b 17.71000
_cell_length_c 19.66900
_cell_angle_alpha 90.00000
_cell_angle_beta  97.07000
_cell_angle_gamma 90.00000

_symmetry_space_group_name_	'P 1'
_symmetry_space_group_name_H-M	'P 1'

loop_
_symmetry_equiv_pos_as_xyz
  x,y,z

loop_
_atom_site_label
_atom_site_type_symbol
_atom_site_fract_x
_atom_site_fract_y
_atom_site_fract_z
_atom_site_charge
Cd	Cd	0.60605 0.61237 0.55870 1.23000
Cd	Cd	0.56441 0.55927 0.37736 1.21300
Cd	Cd	0.39395 0.11237 0.94130 1.23000
Cd	Cd	0.43559 0.05927 0.12264 1.21300
Cd	Cd	0.39395 0.38763 0.44130 1.23000
Cd	Cd	0.43559 0.44073 0.62264 1.21300
Cd	Cd	0.60605 0.88763 0.05870 1.23000
Cd	Cd	0.56441 0.94073 0.87736 1.21300
H 	H 	0.35650 0.73380 0.43420 0.07300
H 	H 	0.16730 0.75520 0.37920 0.04300
H 	H 	0.14100 0.82800 0.27840 0.03600
H 	H 	0.30210 0.87440 0.23180 0.06400
H 	H 	0.75630 0.91660 0.25290 0.06100
H 	H 	0.93880 0.90090 0.31330 0.03700
H 	H 	0.96220 0.83240 0.41630 0.03800
H 	H 	0.79890 0.77540 0.45270 0.06500
H 	H 	0.86280 0.58690 0.50190 -0.02500
H 	H 	0.05900 0.62750 0.51350 0.15500
H 	H 	0.99020 0.75430 0.67020 0.12400
H 	H 	0.79540 0.70910 0.65750 -0.02300
H 	H 	0.22780 0.69070 0.57970 0.17100
H 	H 	0.20690 0.73130 0.64820 0.16100
H 	H 	0.15570 0.79650 0.51710 -0.03700
H 	H 	0.12970 0.83700 0.58470 -0.03900
H 	H 	0.36550 0.79840 0.55520 0.16400
H 	H 	0.31400 0.88080 0.55020 0.15500
H 	H 	0.30780 0.93290 0.78770 -0.03300
H 	H 	0.22390 0.90980 0.67620 0.12700
H 	H 	0.51810 0.78950 0.64990 0.14300
H 	H 	0.59260 0.81890 0.76050 -0.04600
H 	H 	0.64350 0.23380 0.06580 0.07200
H 	H 	0.83270 0.25520 0.12080 0.04200
H 	H 	0.85900 0.32800 0.22160 0.03500
H 	H 	0.69790 0.37440 0.26820 0.06300
H 	H 	0.24370 0.41660 0.24710 0.06000
H 	H 	0.06120 0.40090 0.18670 0.03600
H 	H 	0.03780 0.33240 0.08370 0.03800
H 	H 	0.20110 0.27540 0.04730 0.06500
H 	H 	0.13720 0.08690 0.99810 -0.02500
H 	H 	0.94100 0.12750 0.98650 0.15500
H 	H 	0.00980 0.25430 0.82980 0.12400
H 	H 	0.20460 0.20910 0.84250 -0.02400
H 	H 	0.77220 0.19070 0.92030 0.17100
H 	H 	0.79310 0.23130 0.85180 0.16100
H 	H 	0.84430 0.29650 0.98290 -0.03700
H 	H 	0.87030 0.33700 0.91530 -0.03900
H 	H 	0.63450 0.29840 0.94480 0.16400
H 	H 	0.68600 0.38080 0.94980 0.15600
H 	H 	0.69220 0.43290 0.71230 -0.03300
H 	H 	0.77610 0.40980 0.82380 0.12700
H 	H 	0.48190 0.28950 0.85010 0.14300
H 	H 	0.40740 0.31890 0.73950 -0.04600
H 	H 	0.64350 0.26620 0.56580 0.07200
H 	H 	0.83270 0.24480 0.62080 0.04200
H 	H 	0.85900 0.17200 0.72160 0.03500
H 	H 	0.69790 0.12560 0.76820 0.06300
H 	H 	0.24370 0.08340 0.74710 0.06000
H 	H 	0.06120 0.09910 0.68670 0.03600
H 	H 	0.03780 0.16760 0.58370 0.03800
H 	H 	0.20110 0.22460 0.54730 0.06500
H 	H 	0.13720 0.41310 0.49810 -0.02500
H 	H 	0.94100 0.37250 0.48650 0.15500
H 	H 	0.00980 0.24570 0.32980 0.12400
H 	H 	0.20460 0.29090 0.34250 -0.02300
H 	H 	0.77220 0.30930 0.42030 0.17100
H 	H 	0.79310 0.26870 0.35180 0.16100
H 	H 	0.84430 0.20350 0.48290 -0.03700
H 	H 	0.87030 0.16300 0.41530 -0.03900
H 	H 	0.63450 0.20160 0.44480 0.16400
H 	H 	0.68600 0.11920 0.44980 0.15500
H 	H 	0.69220 0.06710 0.21230 -0.03300
H 	H 	0.77610 0.09020 0.32380 0.12700
H 	H 	0.48190 0.21050 0.35010 0.14300
H 	H 	0.40740 0.18110 0.23950 -0.04600
H 	H 	0.35650 0.76620 0.93420 0.07200
H 	H 	0.16730 0.74480 0.87920 0.04200
H 	H 	0.14100 0.67200 0.77840 0.03500
H 	H 	0.30210 0.62560 0.73180 0.06300
H 	H 	0.75630 0.58340 0.75290 0.06000
H 	H 	0.93880 0.59910 0.81330 0.03600
H 	H 	0.96220 0.66760 0.91630 0.03800
H 	H 	0.79890 0.72460 0.95270 0.06500
H 	H 	0.86280 0.91310 0.00190 -0.02500
H 	H 	0.05900 0.87250 0.01350 0.15500
H 	H 	0.99020 0.74570 0.17020 0.12400
H 	H 	0.79540 0.79090 0.15750 -0.02400
H 	H 	0.22780 0.80930 0.07970 0.17100
H 	H 	0.20690 0.76870 0.14820 0.16100
H 	H 	0.15570 0.70350 0.01710 -0.03700
H 	H 	0.12970 0.66300 0.08470 -0.03900
H 	H 	0.36550 0.70160 0.05520 0.16400
H 	H 	0.31400 0.61920 0.05020 0.15600
H 	H 	0.30780 0.56710 0.28770 -0.03300
H 	H 	0.22390 0.59020 0.17620 0.12700
H 	H 	0.51810 0.71050 0.14990 0.14300
H 	H 	0.59260 0.68110 0.26050 -0.04600
C 	C 	0.58500 0.73020 0.46310 0.35100
C 	C 	0.56670 0.78240 0.40280 -0.13500
C 	C 	0.45080 0.79560 0.36970 0.04800
C 	C 	0.34680 0.76330 0.39490 -0.09300
C 	C 	0.23420 0.77540 0.36180 -0.02000
C 	C 	0.21850 0.81910 0.30020 -0.03200
C 	C 	0.31480 0.84800 0.27290 -0.08400
C 	C 	0.43520 0.83860 0.30600 0.04800
C 	C 	0.53840 0.86620 0.27900 -0.12300
C 	C 	0.65390 0.85710 0.31490 0.04700
C 	C 	0.76230 0.88870 0.29330 -0.07900
C 	C 	0.87160 0.87940 0.32930 -0.02900
C 	C 	0.88640 0.83750 0.39130 -0.02700
C 	C 	0.78830 0.80510 0.41340 -0.08500
C 	C 	0.66860 0.81470 0.37850 0.04600
C 	C 	0.52460 0.89950 0.20670 0.39000
C 	C 	0.88850 0.62030 0.53720 0.15600
C 	C 	0.00720 0.64520 0.54340 -0.29400
C 	C 	0.04810 0.69570 0.59330 0.27200
C 	C 	0.96640 0.71950 0.63580 -0.27400
C 	C 	0.84840 0.69190 0.62800 0.14100
C 	C 	0.17660 0.72630 0.60000 -0.43300
C 	C 	0.18310 0.80170 0.56560 0.21700
C 	C 	0.31290 0.83350 0.57510 -0.41200
C 	C 	0.35150 0.90480 0.75930 0.14900
C 	C 	0.29960 0.89070 0.69240 -0.27400
C 	C 	0.36360 0.84750 0.65080 0.26100
C 	C 	0.47380 0.81960 0.67640 -0.29000
C 	C 	0.51730 0.83790 0.74320 0.16300
C 	C 	0.41500 0.23020 0.03690 0.35100
C 	C 	0.43330 0.28240 0.09720 -0.13500
C 	C 	0.54920 0.29560 0.13030 0.04800
C 	C 	0.65320 0.26330 0.10510 -0.09300
C 	C 	0.76580 0.27540 0.13820 -0.02000
C 	C 	0.78150 0.31910 0.19980 -0.03200
C 	C 	0.68520 0.34800 0.22710 -0.08400
C 	C 	0.56480 0.33860 0.19400 0.04800
C 	C 	0.46160 0.36620 0.22100 -0.12300
C 	C 	0.34610 0.35710 0.18510 0.04700
C 	C 	0.23770 0.38870 0.20670 -0.07900
C 	C 	0.12840 0.37940 0.17070 -0.02900
C 	C 	0.11360 0.33750 0.10870 -0.02700
C 	C 	0.21170 0.30510 0.08660 -0.08500
C 	C 	0.33140 0.31470 0.12150 0.04600
C 	C 	0.47540 0.39950 0.29330 0.39000
C 	C 	0.11150 0.12030 0.96280 0.15500
C 	C 	0.99280 0.14520 0.95660 -0.29300
C 	C 	0.95190 0.19570 0.90670 0.27300
C 	C 	0.03360 0.21950 0.86420 -0.27500
C 	C 	0.15160 0.19190 0.87200 0.14100
C 	C 	0.82340 0.22630 0.90000 -0.43300
C 	C 	0.81690 0.30170 0.93440 0.21700
C 	C 	0.68710 0.33350 0.92490 -0.41200
C 	C 	0.64850 0.40480 0.74070 0.14900
C 	C 	0.70040 0.39070 0.80760 -0.27400
C 	C 	0.63640 0.34750 0.84920 0.26100
C 	C 	0.52620 0.31960 0.82360 -0.29000
C 	C 	0.48270 0.33790 0.75680 0.16300
C 	C 	0.41500 0.26980 0.53690 0.35100
C 	C 	0.43330 0.21760 0.59720 -0.13500
C 	C 	0.54920 0.20440 0.63030 0.04800
C 	C 	0.65320 0.23670 0.60510 -0.09300
C 	C 	0.76580 0.22460 0.63820 -0.02000
C 	C 	0.78150 0.18090 0.69980 -0.03200
C 	C 	0.68520 0.15200 0.72710 -0.08400
C 	C 	0.56480 0.16140 0.69400 0.04800
C 	C 	0.46160 0.13380 0.72100 -0.12300
C 	C 	0.34610 0.14290 0.68510 0.04700
C 	C 	0.23770 0.11130 0.70670 -0.07900
C 	C 	0.12840 0.12060 0.67070 -0.02900
C 	C 	0.11360 0.16250 0.60870 -0.02700
C 	C 	0.21170 0.19490 0.58660 -0.08500
C 	C 	0.33140 0.18530 0.62150 0.04600
C 	C 	0.47540 0.10050 0.79330 0.39000
C 	C 	0.11150 0.37970 0.46280 0.15600
C 	C 	0.99280 0.35480 0.45660 -0.29400
C 	C 	0.95190 0.30430 0.40670 0.27200
C 	C 	0.03360 0.28050 0.36420 -0.27400
C 	C 	0.15160 0.30810 0.37200 0.14100
C 	C 	0.82340 0.27370 0.40000 -0.43300
C 	C 	0.81690 0.19830 0.43440 0.21700
C 	C 	0.68710 0.16650 0.42490 -0.41200
C 	C 	0.64850 0.09520 0.24070 0.14900
C 	C 	0.70040 0.10930 0.30760 -0.27400
C 	C 	0.63640 0.15250 0.34920 0.26100
C 	C 	0.52620 0.18040 0.32360 -0.29000
C 	C 	0.48270 0.16210 0.25680 0.16300
C 	C 	0.58500 0.76980 0.96310 0.35100
C 	C 	0.56670 0.71760 0.90280 -0.13500
C 	C 	0.45080 0.70440 0.86970 0.04800
C 	C 	0.34680 0.73670 0.89490 -0.09300
C 	C 	0.23420 0.72460 0.86180 -0.02000
C 	C 	0.21850 0.68090 0.80020 -0.03200
C 	C 	0.31480 0.65200 0.77290 -0.08400
C 	C 	0.43520 0.66140 0.80600 0.04800
C 	C 	0.53840 0.63380 0.77900 -0.12300
C 	C 	0.65390 0.64290 0.81490 0.04700
C 	C 	0.76230 0.61130 0.79330 -0.07900
C 	C 	0.87160 0.62060 0.82930 -0.02900
C 	C 	0.88640 0.66250 0.89130 -0.02700
C 	C 	0.78830 0.69490 0.91340 -0.08500
C 	C 	0.66860 0.68530 0.87850 0.04600
C 	C 	0.52460 0.60050 0.70670 0.39000
C 	C 	0.88850 0.87970 0.03720 0.15500
C 	C 	0.00720 0.85480 0.04340 -0.29300
C 	C 	0.04810 0.80430 0.09330 0.27300
C 	C 	0.96640 0.78050 0.13580 -0.27500
C 	C 	0.84840 0.80810 0.12800 0.14100
C 	C 	0.17660 0.77370 0.10000 -0.43300
C 	C 	0.18310 0.69830 0.06560 0.21700
C 	C 	0.31290 0.66650 0.07510 -0.41200
C 	C 	0.35150 0.59520 0.25930 0.14900
C 	C 	0.29960 0.60930 0.19240 -0.27400
C 	C 	0.36360 0.65250 0.15080 0.26100
C 	C 	0.47380 0.68040 0.17640 -0.29000
C 	C 	0.51730 0.66210 0.24320 0.16300
S 	S 	0.33105 0.55527 0.48332 0.68400
S 	S 	0.66895 0.05527 0.01668 0.68400
S 	S 	0.66895 0.44473 0.51668 0.68400
S 	S 	0.33105 0.94473 0.98332 0.68400
N 	N 	0.80880 0.64160 0.57930 -0.25500
N 	N 	0.46060 0.88010 0.78450 -0.26900
N 	N 	0.19120 0.14160 0.92070 -0.25500
N 	N 	0.53940 0.38010 0.71550 -0.26900
N 	N 	0.19120 0.35840 0.42070 -0.25500
N 	N 	0.53940 0.11990 0.21550 -0.26900
N 	N 	0.80880 0.85840 0.07930 -0.25500
N 	N 	0.46060 0.61990 0.28450 -0.26900
O 	O 	0.60610 0.66100 0.44940 -0.52600
O 	O 	0.58050 0.75280 0.52290 -0.35500
O 	O 	0.45700 0.95580 0.19390 -0.44800
O 	O 	0.58570 0.86640 0.16650 -0.44900
O 	O 	0.40530 0.61600 0.51990 -0.46100
O 	O 	0.39990 0.52080 0.42920 -0.56300
O 	O 	0.21680 0.58370 0.45150 -0.31400
O 	O 	0.31290 0.49260 0.53160 -0.50200
O 	O 	0.39390 0.16100 0.05060 -0.52600
O 	O 	0.41950 0.25280 0.97710 -0.35500
O 	O 	0.54300 0.45580 0.30610 -0.44800
O 	O 	0.41430 0.36640 0.33350 -0.44900
O 	O 	0.59470 0.11600 0.98010 -0.46000
O 	O 	0.60010 0.02080 0.07080 -0.56300
O 	O 	0.78320 0.08370 0.04850 -0.31400
O 	O 	0.68710 0.99260 0.96840 -0.50200
O 	O 	0.39390 0.33900 0.55060 -0.52600
O 	O 	0.41950 0.24720 0.47710 -0.35500
O 	O 	0.54300 0.04420 0.80610 -0.44800
O 	O 	0.41430 0.13360 0.83350 -0.44900
O 	O 	0.59470 0.38400 0.48010 -0.46100
O 	O 	0.60010 0.47920 0.57080 -0.56300
O 	O 	0.78320 0.41630 0.54850 -0.31400
O 	O 	0.68710 0.50740 0.46840 -0.50200
O 	O 	0.60610 0.83900 0.94940 -0.52600
O 	O 	0.58050 0.74720 0.02290 -0.35500
O 	O 	0.45700 0.54420 0.69390 -0.44800
O 	O 	0.58570 0.63360 0.66650 -0.44900
O 	O 	0.40530 0.88400 0.01990 -0.46000
O 	O 	0.39990 0.97920 0.92920 -0.56300
O 	O 	0.21680 0.91630 0.95150 -0.31400
O 	O 	0.31290 0.00740 0.03160 -0.50200
