data_crystal

_cell_length_a 10.46470
_cell_length_b 15.57220
_cell_length_c 13.87840
_cell_angle_alpha 90.00000
_cell_angle_beta  96.82900
_cell_angle_gamma 90.00000

_symmetry_space_group_name_	'P 1'
_symmetry_space_group_name_H-M	'P 1'

loop_
_symmetry_equiv_pos_as_xyz
  x,y,z

loop_
_atom_site_label
_atom_site_type_symbol
_atom_site_fract_x
_atom_site_fract_y
_atom_site_fract_z
_atom_site_charge
Zn	Zn	0.53322 0.41442 0.39012 1.22900
P 	P 	0.42947 0.60693 0.38229 0.45000
P 	P 	0.70809 0.33438 0.22905 0.46700
O 	O 	0.67248 0.38906 0.31244 -0.44500
O 	O 	0.85133 0.34008 0.22143 -0.37700
O 	O 	0.62769 0.35564 0.13426 -0.44900
O 	O 	0.52828 0.53811 0.37297 -0.45700
O 	O 	0.37780 0.60644 0.48026 -0.43900
O 	O 	0.47924 0.69553 0.36169 -0.43600
H 	H 	0.32390 0.59590 0.31400 -0.04400
H 	H 	0.68440 0.25580 0.24810 -0.06200
Zn	Zn	0.03322 0.91442 0.39012 1.20700
P 	P 	0.92947 0.10693 0.38229 0.52600
P 	P 	0.20809 0.83438 0.22905 0.46800
O 	O 	0.17248 0.88906 0.31244 -0.47200
O 	O 	0.35133 0.84008 0.22143 -0.42400
O 	O 	0.12769 0.85564 0.13426 -0.50200
O 	O 	0.02828 0.03811 0.37297 -0.54400
O 	O 	0.87780 0.10644 0.48026 -0.42100
O 	O 	0.97924 0.19553 0.36169 -0.39000
H 	H 	0.82390 0.09590 0.31400 -0.03300
H 	H 	0.18440 0.75580 0.24810 -0.08300
Zn	Zn	0.46678 0.41442 0.10988 1.23000
P 	P 	0.57053 0.60693 0.11771 0.45200
P 	P 	0.29191 0.33438 0.27095 0.46900
O 	O 	0.32752 0.38906 0.18756 -0.46100
O 	O 	0.14867 0.34008 0.27857 -0.45100
O 	O 	0.37231 0.35564 0.36574 -0.46600
O 	O 	0.47172 0.53811 0.12703 -0.46400
O 	O 	0.62220 0.60644 0.01974 -0.42300
O 	O 	0.52076 0.69553 0.13831 -0.43900
H 	H 	0.67610 0.59590 0.18600 -0.02600
H 	H 	0.31560 0.25580 0.25190 -0.07000
Zn	Zn	0.96678 0.91442 0.10988 1.25000
P 	P 	0.07053 0.10693 0.11771 0.37700
P 	P 	0.79191 0.83438 0.27095 0.47000
O 	O 	0.82752 0.88906 0.18756 -0.43700
O 	O 	0.64867 0.84008 0.27857 -0.41900
O 	O 	0.87231 0.85564 0.36574 -0.41400
O 	O 	0.97172 0.03811 0.12703 -0.37600
O 	O 	0.12220 0.10644 0.01974 -0.43600
O 	O 	0.02076 0.19553 0.13831 -0.46900
H 	H 	0.17610 0.09590 0.18600 -0.03500
H 	H 	0.81560 0.75580 0.25190 -0.05100
Zn	Zn	0.46678 0.58558 0.60988 1.22900
P 	P 	0.57053 0.39307 0.61771 0.45200
P 	P 	0.29191 0.66562 0.77095 0.47000
O 	O 	0.32752 0.61094 0.68756 -0.46300
O 	O 	0.14867 0.65992 0.77857 -0.45300
O 	O 	0.37231 0.64436 0.86574 -0.46700
O 	O 	0.47172 0.46189 0.62703 -0.46500
O 	O 	0.62220 0.39356 0.51974 -0.42400
O 	O 	0.52076 0.30447 0.63831 -0.43900
H 	H 	0.67610 0.40410 0.68600 -0.02600
H 	H 	0.31560 0.74420 0.75190 -0.07100
Zn	Zn	0.96678 0.08558 0.60988 1.25200
P 	P 	0.07053 0.89307 0.61771 0.37400
P 	P 	0.79191 0.16562 0.77095 0.47000
O 	O 	0.82752 0.11094 0.68756 -0.43600
O 	O 	0.64867 0.15992 0.77857 -0.42000
O 	O 	0.87231 0.14436 0.86574 -0.41600
O 	O 	0.97172 0.96189 0.62703 -0.37500
O 	O 	0.12220 0.89356 0.51974 -0.44200
O 	O 	0.02076 0.80447 0.63831 -0.47200
H 	H 	0.17610 0.90410 0.68600 -0.03600
H 	H 	0.81560 0.24420 0.75190 -0.05100
Zn	Zn	0.53322 0.58558 0.89012 1.22900
P 	P 	0.42947 0.39307 0.88229 0.45100
P 	P 	0.70809 0.66562 0.72905 0.46700
O 	O 	0.67248 0.61094 0.81244 -0.44500
O 	O 	0.85133 0.65992 0.72143 -0.37600
O 	O 	0.62769 0.64436 0.63426 -0.45100
O 	O 	0.52828 0.46189 0.87297 -0.45900
O 	O 	0.37780 0.39356 0.98026 -0.44400
O 	O 	0.47924 0.30447 0.86169 -0.43800
H 	H 	0.32390 0.40410 0.81400 -0.04500
H 	H 	0.68440 0.74420 0.74810 -0.06300
Zn	Zn	0.03322 0.08558 0.89012 1.20400
P 	P 	0.92947 0.89307 0.88229 0.52800
P 	P 	0.20809 0.16562 0.72905 0.46800
O 	O 	0.17248 0.11094 0.81244 -0.47600
O 	O 	0.35133 0.15992 0.72143 -0.42500
O 	O 	0.12769 0.14436 0.63426 -0.50400
O 	O 	0.02828 0.96189 0.87297 -0.54700
O 	O 	0.87780 0.89356 0.98026 -0.42200
O 	O 	0.97924 0.80447 0.86169 -0.39000
H 	H 	0.82390 0.90410 0.81400 -0.03300
H 	H 	0.18440 0.24420 0.74810 -0.08500
Zn	Zn	-0.00000 0.26617 0.25000 1.20600
Zn	Zn	0.50000 0.76617 0.25000 1.23700
Zn	Zn	0.00000 0.73383 0.75000 1.20500
Zn	Zn	0.50000 0.23383 0.75000 1.23700
