data_crystal

_cell_length_a 10.51300
_cell_length_b 15.61700
_cell_length_c 13.89500
_cell_angle_alpha 90.00000
_cell_angle_beta  97.01400
_cell_angle_gamma 90.00000

_symmetry_space_group_name_	'P 1'
_symmetry_space_group_name_H-M	'P 1'

loop_
_symmetry_equiv_pos_as_xyz
  x,y,z

loop_
_atom_site_label
_atom_site_type_symbol
_atom_site_fract_x
_atom_site_fract_y
_atom_site_fract_z
_atom_site_charge
Zn	Zn	0.03326 0.08550 0.39017 1.20500
O 	O 	0.12230 0.10652 0.51985 -0.44300
O 	O 	0.17260 0.11098 0.31218 -0.47000
O 	O 	0.87200 0.14405 0.36587 -0.41200
O 	O 	0.02820 0.96204 0.37295 -0.54200
P 	P 	0.07053 0.10694 0.61767 0.37500
P 	P 	0.20793 0.16557 0.22902 0.47000
O 	O 	0.02080 0.19556 0.63831 -0.47100
H 	H 	0.16980 0.08840 0.68350 -0.04200
H 	H 	0.18160 0.24230 0.24700 -0.08700
O 	O 	0.35110 0.15988 0.22171 -0.42200
Zn	Zn	0.53326 0.58550 0.39017 1.22800
O 	O 	0.62230 0.60652 0.51985 -0.42300
O 	O 	0.67260 0.61098 0.31218 -0.44200
O 	O 	0.37200 0.64405 0.36587 -0.46400
O 	O 	0.52820 0.46204 0.37295 -0.45500
P 	P 	0.57053 0.60694 0.61767 0.45100
P 	P 	0.70793 0.66557 0.22902 0.46800
O 	O 	0.52080 0.69556 0.63831 -0.43800
H 	H 	0.66980 0.58840 0.68350 -0.03200
H 	H 	0.68160 0.74230 0.24700 -0.06600
O 	O 	0.85110 0.65988 0.22171 -0.37500
Zn	Zn	0.96674 0.08550 0.10983 1.24900
O 	O 	0.87770 0.10652 0.98015 -0.42100
O 	O 	0.82740 0.11098 0.18782 -0.43400
O 	O 	0.12800 0.14405 0.13413 -0.50000
O 	O 	0.97180 0.96204 0.12705 -0.37400
P 	P 	0.92947 0.10694 0.88233 0.52700
P 	P 	0.79207 0.16557 0.27098 0.47000
O 	O 	0.97920 0.19556 0.86169 -0.38800
H 	H 	0.83020 0.08840 0.81650 -0.03900
H 	H 	0.81840 0.24230 0.25300 -0.05400
O 	O 	0.64890 0.15988 0.27829 -0.41600
Zn	Zn	0.46674 0.58550 0.10983 1.22900
O 	O 	0.37770 0.60652 0.98015 -0.44400
O 	O 	0.32740 0.61098 0.18782 -0.45900
O 	O 	0.62800 0.64405 0.13413 -0.44700
O 	O 	0.47180 0.46204 0.12705 -0.46100
P 	P 	0.42947 0.60694 0.88233 0.45100
P 	P 	0.29207 0.66557 0.27098 0.47000
O 	O 	0.47920 0.69556 0.86169 -0.43700
H 	H 	0.33020 0.58840 0.81650 -0.05100
H 	H 	0.31840 0.74230 0.25300 -0.07400
O 	O 	0.14890 0.65988 0.27829 -0.44900
Zn	Zn	0.96674 0.91450 0.60983 1.25000
O 	O 	0.87770 0.89348 0.48015 -0.42000
O 	O 	0.82740 0.88902 0.68782 -0.43400
O 	O 	0.12800 0.85595 0.63413 -0.50200
O 	O 	0.97180 0.03796 0.62705 -0.37300
P 	P 	0.92947 0.89306 0.38233 0.52500
P 	P 	0.79207 0.83443 0.77098 0.47100
O 	O 	0.97920 0.80444 0.36169 -0.38900
H 	H 	0.83020 0.91160 0.31650 -0.03900
H 	H 	0.81840 0.75770 0.75300 -0.05400
O 	O 	0.64890 0.84012 0.77829 -0.41700
Zn	Zn	0.46674 0.41450 0.60983 1.22800
O 	O 	0.37770 0.39348 0.48015 -0.43900
O 	O 	0.32740 0.38902 0.68782 -0.46000
O 	O 	0.62800 0.35595 0.63413 -0.44900
O 	O 	0.47180 0.53796 0.62705 -0.46300
P 	P 	0.42947 0.39306 0.38233 0.45100
P 	P 	0.29207 0.33443 0.77098 0.47100
O 	O 	0.47920 0.30444 0.36169 -0.43500
H 	H 	0.33020 0.41160 0.31650 -0.05000
H 	H 	0.31840 0.25770 0.75300 -0.07500
O 	O 	0.14890 0.34012 0.77829 -0.45100
Zn	Zn	0.03326 0.91450 0.89017 1.20300
O 	O 	0.12230 0.89348 0.01985 -0.43600
O 	O 	0.17260 0.88902 0.81218 -0.47300
O 	O 	0.87200 0.85595 0.86587 -0.41400
O 	O 	0.02820 0.03796 0.87295 -0.54400
P 	P 	0.07053 0.89306 0.11767 0.37800
P 	P 	0.20793 0.83443 0.72902 0.47000
O 	O 	0.02080 0.80444 0.13831 -0.46800
H 	H 	0.16980 0.91160 0.18350 -0.04100
H 	H 	0.18160 0.75770 0.74700 -0.08900
O 	O 	0.35110 0.84012 0.72171 -0.42300
Zn	Zn	0.53326 0.41450 0.89017 1.22700
O 	O 	0.62230 0.39348 0.01985 -0.42200
O 	O 	0.67260 0.38902 0.81218 -0.44300
O 	O 	0.37200 0.35595 0.86587 -0.46500
O 	O 	0.52820 0.53796 0.87295 -0.45700
P 	P 	0.57053 0.39306 0.11767 0.45200
P 	P 	0.70793 0.33443 0.72902 0.46800
O 	O 	0.52080 0.30444 0.13831 -0.43700
H 	H 	0.66980 0.41160 0.18350 -0.03200
H 	H 	0.68160 0.25770 0.74700 -0.06600
O 	O 	0.85110 0.34012 0.72171 -0.37400
Zn	Zn	-0.00000 0.26613 0.75000 1.20300
Zn	Zn	0.50000 0.76613 0.75000 1.23600
Zn	Zn	0.00000 0.73387 0.25000 1.20400
Zn	Zn	0.50000 0.23387 0.25000 1.23600
