data_crystal

_cell_length_a 14.47500
_cell_length_b 16.61300
_cell_length_c 24.83900
_cell_angle_alpha 90.00000
_cell_angle_beta  95.06200
_cell_angle_gamma 90.00000

_symmetry_space_group_name_	'P 1'
_symmetry_space_group_name_H-M	'P 1'

loop_
_symmetry_equiv_pos_as_xyz
  x,y,z

loop_
_atom_site_label
_atom_site_type_symbol
_atom_site_fract_x
_atom_site_fract_y
_atom_site_fract_z
_atom_site_charge
Cd	Cd	0.37597 0.26026 0.48663 1.21600
N 	N 	0.14210 0.78632 0.23975 -0.11600
C 	C 	0.09160 0.82542 0.20068 0.03000
H 	H 	0.06090 0.79570 0.17290 0.04000
C 	C 	0.08297 0.90802 0.19959 -0.04900
C 	C 	0.12695 0.95212 0.24222 -0.02100
H 	H 	0.12230 0.00790 0.24270 0.05500
C 	C 	0.17810 0.91163 0.28427 -0.05400
C 	C 	0.18190 0.82890 0.28056 0.03500
H 	H 	0.21470 0.80100 0.30860 0.01900
N 	N 	0.98466 0.91517 0.11213 -0.24000
H 	H 	0.97860 0.86410 0.10730 0.16000
N 	N 	0.02711 0.03127 0.15274 -0.12900
N 	N 	0.90509 0.11883 0.02997 -0.22400
C 	C 	0.03143 0.95229 0.15551 0.13900
C 	C 	0.97650 0.04635 0.10403 0.01300
C 	C 	0.94980 0.97351 0.07832 0.12600
C 	C 	0.89800 0.97372 0.02847 -0.17000
H 	H 	0.87800 0.92630 0.01130 0.09000
C 	C 	0.87790 0.04829 0.00600 0.08200
H 	H 	0.84380 0.05030 0.97250 -0.00000
C 	C 	0.95250 0.11831 0.07777 0.00700
H 	H 	0.97030 0.16690 0.09420 0.03000
N 	N 	0.27379 0.92489 0.37251 -0.23000
H 	H 	0.28490 0.87460 0.37830 0.12900
N 	N 	0.21791 0.03750 0.33135 -0.12300
N 	N 	0.33654 0.13596 0.45082 -0.23300
C 	C 	0.22360 0.95698 0.32893 0.13400
C 	C 	0.26850 0.05706 0.37927 0.01400
C 	C 	0.30320 0.98722 0.40526 0.12200
C 	C 	0.35500 0.99164 0.45531 -0.17900
H 	H 	0.37830 0.94600 0.47350 0.10600
C 	C 	0.36930 0.06810 0.47607 0.08200
H 	H 	0.40350 0.07340 0.50940 -0.00300
C 	C 	0.28820 0.13136 0.40306 -0.00000
H 	H 	0.26730 0.17820 0.38540 0.02400
O 	O 	0.99589 0.76540 0.42801 -0.42700
O 	O 	0.04123 0.70653 0.50337 -0.39000
O 	O 	0.13850 0.29037 0.43099 -0.49200
O 	O 	0.28585 0.32604 0.42198 -0.48100
C 	C 	0.05650 0.72790 0.45699 0.43600
C 	C 	0.14520 0.70760 0.43480 -0.46700
H 	H 	0.19530 0.71380 0.46310 0.16600
H 	H 	0.15580 0.74550 0.40620 0.17200
C 	C 	0.14780 0.62245 0.41228 0.15000
C 	C 	0.07030 0.57500 0.40415 -0.08600
H 	H 	0.01280 0.59610 0.41070 0.07000
C 	C 	0.07590 0.49550 0.38614 -0.13500
H 	H 	0.02250 0.46420 0.38150 0.08400
C 	C 	0.16010 0.46295 0.37513 0.20200
C 	C 	0.23720 0.51240 0.38091 -0.13400
H 	H 	0.29400 0.49230 0.37240 0.09000
C 	C 	0.23200 0.59080 0.39901 -0.08700
H 	H 	0.28500 0.62270 0.40230 0.06200
C 	C 	0.16840 0.37610 0.35926 -0.53100
H 	H 	0.21280 0.37110 0.33240 0.20100
H 	H 	0.10890 0.35660 0.34350 0.19800
C 	C 	0.19980 0.32646 0.40816 0.50800
Cd	Cd	0.87597 0.76026 0.48663 1.21700
N 	N 	0.64210 0.28632 0.23975 -0.11500
C 	C 	0.59160 0.32542 0.20068 0.03100
H 	H 	0.56090 0.29570 0.17290 0.04100
C 	C 	0.58297 0.40802 0.19959 -0.04900
C 	C 	0.62695 0.45212 0.24222 -0.01900
H 	H 	0.62230 0.50790 0.24270 0.05600
C 	C 	0.67810 0.41163 0.28427 -0.05400
C 	C 	0.68190 0.32890 0.28056 0.03600
H 	H 	0.71470 0.30100 0.30860 0.01900
N 	N 	0.48466 0.41517 0.11213 -0.23900
H 	H 	0.47860 0.36410 0.10730 0.16000
N 	N 	0.52711 0.53127 0.15274 -0.12900
N 	N 	0.40509 0.61883 0.02997 -0.22400
C 	C 	0.53143 0.45229 0.15551 0.13900
C 	C 	0.47650 0.54635 0.10403 0.01300
C 	C 	0.44980 0.47351 0.07832 0.12600
C 	C 	0.39800 0.47372 0.02847 -0.16800
H 	H 	0.37800 0.42630 0.01130 0.08900
C 	C 	0.37790 0.54829 0.00600 0.08000
H 	H 	0.34380 0.55030 0.97250 0.00100
C 	C 	0.45250 0.61831 0.07777 0.00700
H 	H 	0.47030 0.66690 0.09420 0.03000
N 	N 	0.77379 0.42489 0.37251 -0.23000
H 	H 	0.78490 0.37460 0.37830 0.12900
N 	N 	0.71791 0.53750 0.33135 -0.12300
N 	N 	0.83654 0.63596 0.45082 -0.23300
C 	C 	0.72360 0.45698 0.32893 0.13400
C 	C 	0.76850 0.55706 0.37927 0.01400
C 	C 	0.80320 0.48722 0.40526 0.12200
C 	C 	0.85500 0.49164 0.45531 -0.17800
H 	H 	0.87830 0.44600 0.47350 0.10600
C 	C 	0.86930 0.56810 0.47607 0.08200
H 	H 	0.90350 0.57340 0.50940 -0.00300
C 	C 	0.78820 0.63136 0.40306 -0.00000
H 	H 	0.76730 0.67820 0.38540 0.02400
O 	O 	0.49589 0.26540 0.42801 -0.42700
O 	O 	0.54123 0.20653 0.50337 -0.38900
O 	O 	0.63850 0.79037 0.43099 -0.49200
O 	O 	0.78585 0.82604 0.42198 -0.48100
C 	C 	0.55650 0.22790 0.45699 0.43600
C 	C 	0.64520 0.20760 0.43480 -0.46700
H 	H 	0.69530 0.21380 0.46310 0.16600
H 	H 	0.65580 0.24550 0.40620 0.17200
C 	C 	0.64780 0.12245 0.41228 0.15000
C 	C 	0.57030 0.07500 0.40415 -0.08600
H 	H 	0.51280 0.09610 0.41070 0.07000
C 	C 	0.57590 0.99550 0.38614 -0.13500
H 	H 	0.52250 0.96420 0.38150 0.08400
C 	C 	0.66010 0.96295 0.37513 0.20100
C 	C 	0.73720 0.01240 0.38091 -0.13400
H 	H 	0.79400 0.99230 0.37240 0.09000
C 	C 	0.73200 0.09080 0.39901 -0.08700
H 	H 	0.78500 0.12270 0.40230 0.06200
C 	C 	0.66840 0.87610 0.35926 -0.53000
H 	H 	0.71280 0.87110 0.33240 0.20100
H 	H 	0.60890 0.85660 0.34350 0.19800
C 	C 	0.69980 0.82646 0.40816 0.50800
Cd	Cd	0.62403 0.26026 0.01337 1.21800
N 	N 	0.85790 0.78632 0.26025 -0.11500
C 	C 	0.90840 0.82542 0.29932 0.03100
H 	H 	0.93910 0.79570 0.32710 0.04100
C 	C 	0.91703 0.90802 0.30041 -0.04800
C 	C 	0.87305 0.95212 0.25778 -0.02000
H 	H 	0.87770 0.00790 0.25730 0.05600
C 	C 	0.82190 0.91163 0.21573 -0.05300
C 	C 	0.81810 0.82890 0.21944 0.03500
H 	H 	0.78530 0.80100 0.19140 0.01900
N 	N 	0.01534 0.91517 0.38787 -0.23900
H 	H 	0.02140 0.86410 0.39270 0.16000
N 	N 	0.97289 0.03127 0.34726 -0.12900
N 	N 	0.09491 0.11883 0.47003 -0.22400
C 	C 	0.96857 0.95229 0.34449 0.13900
C 	C 	0.02350 0.04635 0.39597 0.01300
C 	C 	0.05020 0.97351 0.42168 0.12500
C 	C 	0.10200 0.97372 0.47153 -0.16800
H 	H 	0.12200 0.92630 0.48870 0.08900
C 	C 	0.12210 0.04829 0.49400 0.07900
H 	H 	0.15620 0.05030 0.52750 0.00100
C 	C 	0.04750 0.11831 0.42223 0.00700
H 	H 	0.02970 0.16690 0.40580 0.03000
N 	N 	0.72621 0.92489 0.12749 -0.23000
H 	H 	0.71510 0.87460 0.12170 0.12900
N 	N 	0.78209 0.03750 0.16865 -0.12300
N 	N 	0.66346 0.13596 0.04918 -0.23400
C 	C 	0.77640 0.95698 0.17107 0.13400
C 	C 	0.73150 0.05706 0.12073 0.01500
C 	C 	0.69680 0.98722 0.09474 0.12200
C 	C 	0.64500 0.99164 0.04469 -0.18000
H 	H 	0.62170 0.94600 0.02650 0.10600
C 	C 	0.63070 0.06810 0.02393 0.08500
H 	H 	0.59650 0.07340 0.99060 -0.00300
C 	C 	0.71180 0.13136 0.09694 0.00000
H 	H 	0.73270 0.17820 0.11460 0.02400
O 	O 	0.00411 0.76540 0.07199 -0.42700
O 	O 	0.95877 0.70653 0.99663 -0.38800
O 	O 	0.86150 0.29037 0.06901 -0.49200
O 	O 	0.71415 0.32604 0.07802 -0.48100
C 	C 	0.94350 0.72790 0.04301 0.43500
C 	C 	0.85480 0.70760 0.06520 -0.46600
H 	H 	0.80470 0.71380 0.03690 0.16600
H 	H 	0.84420 0.74550 0.09380 0.17200
C 	C 	0.85220 0.62245 0.08772 0.14900
C 	C 	0.92970 0.57500 0.09585 -0.08500
H 	H 	0.98720 0.59610 0.08930 0.07000
C 	C 	0.92410 0.49550 0.11386 -0.13500
H 	H 	0.97750 0.46420 0.11850 0.08400
C 	C 	0.83990 0.46295 0.12487 0.20200
C 	C 	0.76280 0.51240 0.11909 -0.13500
H 	H 	0.70600 0.49230 0.12760 0.09000
C 	C 	0.76800 0.59080 0.10099 -0.08600
H 	H 	0.71500 0.62270 0.09770 0.06200
C 	C 	0.83160 0.37610 0.14074 -0.53100
H 	H 	0.78720 0.37110 0.16760 0.20100
H 	H 	0.89110 0.35660 0.15650 0.19800
C 	C 	0.80020 0.32646 0.09184 0.50800
Cd	Cd	0.12403 0.76026 0.01337 1.21700
N 	N 	0.35790 0.28632 0.26025 -0.11500
C 	C 	0.40840 0.32542 0.29932 0.03100
H 	H 	0.43910 0.29570 0.32710 0.04100
C 	C 	0.41703 0.40802 0.30041 -0.04900
C 	C 	0.37305 0.45212 0.25778 -0.01900
H 	H 	0.37770 0.50790 0.25730 0.05600
C 	C 	0.32190 0.41163 0.21573 -0.05400
C 	C 	0.31810 0.32890 0.21944 0.03600
H 	H 	0.28530 0.30100 0.19140 0.01900
N 	N 	0.51534 0.41517 0.38787 -0.23900
H 	H 	0.52140 0.36410 0.39270 0.16000
N 	N 	0.47289 0.53127 0.34726 -0.12900
N 	N 	0.59491 0.61883 0.47003 -0.22400
C 	C 	0.46857 0.45229 0.34449 0.13900
C 	C 	0.52350 0.54635 0.39597 0.01300
C 	C 	0.55020 0.47351 0.42168 0.12600
C 	C 	0.60200 0.47372 0.47153 -0.16800
H 	H 	0.62200 0.42630 0.48870 0.08900
C 	C 	0.62210 0.54829 0.49400 0.07900
H 	H 	0.65620 0.55030 0.52750 0.00100
C 	C 	0.54750 0.61831 0.42223 0.00700
H 	H 	0.52970 0.66690 0.40580 0.03000
N 	N 	0.22621 0.42489 0.12749 -0.23000
H 	H 	0.21510 0.37460 0.12170 0.12900
N 	N 	0.28209 0.53750 0.16865 -0.12300
N 	N 	0.16346 0.63596 0.04918 -0.23300
C 	C 	0.27640 0.45698 0.17107 0.13400
C 	C 	0.23150 0.55706 0.12073 0.01400
C 	C 	0.19680 0.48722 0.09474 0.12200
C 	C 	0.14500 0.49164 0.04469 -0.17900
H 	H 	0.12170 0.44600 0.02650 0.10600
C 	C 	0.13070 0.56810 0.02393 0.08300
H 	H 	0.09650 0.57340 0.99060 -0.00300
C 	C 	0.21180 0.63136 0.09694 -0.00000
H 	H 	0.23270 0.67820 0.11460 0.02400
O 	O 	0.50411 0.26540 0.07199 -0.42700
O 	O 	0.45877 0.20653 0.99663 -0.39000
O 	O 	0.36150 0.79037 0.06901 -0.49200
O 	O 	0.21415 0.82604 0.07802 -0.48100
C 	C 	0.44350 0.22790 0.04301 0.43700
C 	C 	0.35480 0.20760 0.06520 -0.46800
H 	H 	0.30470 0.21380 0.03690 0.16600
H 	H 	0.34420 0.24550 0.09380 0.17200
C 	C 	0.35220 0.12245 0.08772 0.15000
C 	C 	0.42970 0.07500 0.09585 -0.08600
H 	H 	0.48720 0.09610 0.08930 0.07000
C 	C 	0.42410 0.99550 0.11386 -0.13500
H 	H 	0.47750 0.96420 0.11850 0.08400
C 	C 	0.33990 0.96295 0.12487 0.20100
C 	C 	0.26280 0.01240 0.11909 -0.13200
H 	H 	0.20600 0.99230 0.12760 0.08900
C 	C 	0.26800 0.09080 0.10099 -0.08800
H 	H 	0.21500 0.12270 0.09770 0.06200
C 	C 	0.33160 0.87610 0.14074 -0.53000
H 	H 	0.28720 0.87110 0.16760 0.20100
H 	H 	0.39110 0.85660 0.15650 0.19800
C 	C 	0.30020 0.82646 0.09184 0.50800
Cd	Cd	0.62403 0.73974 0.51337 1.21700
N 	N 	0.85790 0.21368 0.76025 -0.11500
C 	C 	0.90840 0.17458 0.79932 0.03100
H 	H 	0.93910 0.20430 0.82710 0.04100
C 	C 	0.91703 0.09198 0.80041 -0.04800
C 	C 	0.87305 0.04788 0.75778 -0.02000
H 	H 	0.87770 0.99210 0.75730 0.05600
C 	C 	0.82190 0.08837 0.71573 -0.05300
C 	C 	0.81810 0.17110 0.71944 0.03500
H 	H 	0.78530 0.19900 0.69140 0.01900
N 	N 	0.01534 0.08483 0.88787 -0.24000
H 	H 	0.02140 0.13590 0.89270 0.16000
N 	N 	0.97289 0.96873 0.84726 -0.12900
N 	N 	0.09491 0.88117 0.97003 -0.22400
C 	C 	0.96857 0.04771 0.84449 0.13900
C 	C 	0.02350 0.95365 0.89597 0.01300
C 	C 	0.05020 0.02649 0.92168 0.12600
C 	C 	0.10200 0.02628 0.97153 -0.17000
H 	H 	0.12200 0.07370 0.98870 0.09000
C 	C 	0.12210 0.95171 0.99400 0.08200
H 	H 	0.15620 0.94970 0.02750 -0.00000
C 	C 	0.04750 0.88169 0.92223 0.00700
H 	H 	0.02970 0.83310 0.90580 0.03000
N 	N 	0.72621 0.07511 0.62749 -0.23000
H 	H 	0.71510 0.12540 0.62170 0.12900
N 	N 	0.78209 0.96250 0.66865 -0.12300
N 	N 	0.66346 0.86404 0.54918 -0.23300
C 	C 	0.77640 0.04302 0.67107 0.13400
C 	C 	0.73150 0.94294 0.62073 0.01400
C 	C 	0.69680 0.01278 0.59474 0.12200
C 	C 	0.64500 0.00836 0.54469 -0.17900
H 	H 	0.62170 0.05400 0.52650 0.10600
C 	C 	0.63070 0.93190 0.52393 0.08200
H 	H 	0.59650 0.92660 0.49060 -0.00300
C 	C 	0.71180 0.86864 0.59694 -0.00000
H 	H 	0.73270 0.82180 0.61460 0.02400
O 	O 	0.00411 0.23460 0.57199 -0.42700
O 	O 	0.95877 0.29347 0.49663 -0.39000
O 	O 	0.86150 0.70963 0.56901 -0.49200
O 	O 	0.71415 0.67396 0.57802 -0.48100
C 	C 	0.94350 0.27210 0.54301 0.43600
C 	C 	0.85480 0.29240 0.56520 -0.46700
H 	H 	0.80470 0.28620 0.53690 0.16600
H 	H 	0.84420 0.25450 0.59380 0.17200
C 	C 	0.85220 0.37755 0.58772 0.15000
C 	C 	0.92970 0.42500 0.59585 -0.08600
H 	H 	0.98720 0.40390 0.58930 0.07000
C 	C 	0.92410 0.50450 0.61386 -0.13500
H 	H 	0.97750 0.53580 0.61850 0.08400
C 	C 	0.83990 0.53705 0.62487 0.20200
C 	C 	0.76280 0.48760 0.61909 -0.13400
H 	H 	0.70600 0.50770 0.62760 0.09000
C 	C 	0.76800 0.40920 0.60099 -0.08700
H 	H 	0.71500 0.37730 0.59770 0.06200
C 	C 	0.83160 0.62390 0.64074 -0.53100
H 	H 	0.78720 0.62890 0.66760 0.20100
H 	H 	0.89110 0.64340 0.65650 0.19800
C 	C 	0.80020 0.67354 0.59184 0.50800
Cd	Cd	0.12403 0.23974 0.51337 1.21700
N 	N 	0.35790 0.71368 0.76025 -0.11500
C 	C 	0.40840 0.67458 0.79932 0.03100
H 	H 	0.43910 0.70430 0.82710 0.04100
C 	C 	0.41703 0.59198 0.80041 -0.04900
C 	C 	0.37305 0.54788 0.75778 -0.01900
H 	H 	0.37770 0.49210 0.75730 0.05600
C 	C 	0.32190 0.58837 0.71573 -0.05400
C 	C 	0.31810 0.67110 0.71944 0.03600
H 	H 	0.28530 0.69900 0.69140 0.01900
N 	N 	0.51534 0.58483 0.88787 -0.23900
H 	H 	0.52140 0.63590 0.89270 0.16000
N 	N 	0.47289 0.46873 0.84726 -0.12900
N 	N 	0.59491 0.38117 0.97003 -0.22400
C 	C 	0.46857 0.54771 0.84449 0.13900
C 	C 	0.52350 0.45365 0.89597 0.01300
C 	C 	0.55020 0.52649 0.92168 0.12600
C 	C 	0.60200 0.52628 0.97153 -0.16800
H 	H 	0.62200 0.57370 0.98870 0.08900
C 	C 	0.62210 0.45171 0.99400 0.08000
H 	H 	0.65620 0.44970 0.02750 0.00100
C 	C 	0.54750 0.38169 0.92223 0.00700
H 	H 	0.52970 0.33310 0.90580 0.03000
N 	N 	0.22621 0.57511 0.62749 -0.23000
H 	H 	0.21510 0.62540 0.62170 0.12900
N 	N 	0.28209 0.46250 0.66865 -0.12300
N 	N 	0.16346 0.36404 0.54918 -0.23300
C 	C 	0.27640 0.54302 0.67107 0.13400
C 	C 	0.23150 0.44294 0.62073 0.01400
C 	C 	0.19680 0.51278 0.59474 0.12200
C 	C 	0.14500 0.50836 0.54469 -0.17800
H 	H 	0.12170 0.55400 0.52650 0.10600
C 	C 	0.13070 0.43190 0.52393 0.08200
H 	H 	0.09650 0.42660 0.49060 -0.00300
C 	C 	0.21180 0.36864 0.59694 -0.00000
H 	H 	0.23270 0.32180 0.61460 0.02400
O 	O 	0.50411 0.73460 0.57199 -0.42700
O 	O 	0.45877 0.79347 0.49663 -0.38900
O 	O 	0.36150 0.20963 0.56901 -0.49200
O 	O 	0.21415 0.17396 0.57802 -0.48100
C 	C 	0.44350 0.77210 0.54301 0.43600
C 	C 	0.35480 0.79240 0.56520 -0.46700
H 	H 	0.30470 0.78620 0.53690 0.16600
H 	H 	0.34420 0.75450 0.59380 0.17200
C 	C 	0.35220 0.87755 0.58772 0.15000
C 	C 	0.42970 0.92500 0.59585 -0.08600
H 	H 	0.48720 0.90390 0.58930 0.07000
C 	C 	0.42410 0.00450 0.61386 -0.13500
H 	H 	0.47750 0.03580 0.61850 0.08400
C 	C 	0.33990 0.03705 0.62487 0.20100
C 	C 	0.26280 0.98760 0.61909 -0.13400
H 	H 	0.20600 0.00770 0.62760 0.09000
C 	C 	0.26800 0.90920 0.60099 -0.08700
H 	H 	0.21500 0.87730 0.59770 0.06200
C 	C 	0.33160 0.12390 0.64074 -0.53000
H 	H 	0.28720 0.12890 0.66760 0.20100
H 	H 	0.39110 0.14340 0.65650 0.19800
C 	C 	0.30020 0.17354 0.59184 0.50800
Cd	Cd	0.37597 0.73974 0.98663 1.21800
N 	N 	0.14210 0.21368 0.73975 -0.11500
C 	C 	0.09160 0.17458 0.70068 0.03100
H 	H 	0.06090 0.20430 0.67290 0.04100
C 	C 	0.08297 0.09198 0.69959 -0.04800
C 	C 	0.12695 0.04788 0.74222 -0.02000
H 	H 	0.12230 0.99210 0.74270 0.05600
C 	C 	0.17810 0.08837 0.78427 -0.05300
C 	C 	0.18190 0.17110 0.78056 0.03500
H 	H 	0.21470 0.19900 0.80860 0.01900
N 	N 	0.98466 0.08483 0.61213 -0.23900
H 	H 	0.97860 0.13590 0.60730 0.16000
N 	N 	0.02711 0.96873 0.65274 -0.12900
N 	N 	0.90509 0.88117 0.52997 -0.22400
C 	C 	0.03143 0.04771 0.65551 0.13900
C 	C 	0.97650 0.95365 0.60403 0.01300
C 	C 	0.94980 0.02649 0.57832 0.12500
C 	C 	0.89800 0.02628 0.52847 -0.16800
H 	H 	0.87800 0.07370 0.51130 0.08900
C 	C 	0.87790 0.95171 0.50600 0.07900
H 	H 	0.84380 0.94970 0.47250 0.00100
C 	C 	0.95250 0.88169 0.57777 0.00700
H 	H 	0.97030 0.83310 0.59420 0.03000
N 	N 	0.27379 0.07511 0.87251 -0.23000
H 	H 	0.28490 0.12540 0.87830 0.12900
N 	N 	0.21791 0.96250 0.83135 -0.12300
N 	N 	0.33654 0.86404 0.95082 -0.23400
C 	C 	0.22360 0.04302 0.82893 0.13400
C 	C 	0.26850 0.94294 0.87927 0.01500
C 	C 	0.30320 0.01278 0.90526 0.12200
C 	C 	0.35500 0.00836 0.95531 -0.18000
H 	H 	0.37830 0.05400 0.97350 0.10600
C 	C 	0.36930 0.93190 0.97607 0.08500
H 	H 	0.40350 0.92660 0.00940 -0.00300
C 	C 	0.28820 0.86864 0.90306 0.00000
H 	H 	0.26730 0.82180 0.88540 0.02400
O 	O 	0.99589 0.23460 0.92801 -0.42700
O 	O 	0.04123 0.29347 0.00337 -0.38800
O 	O 	0.13850 0.70963 0.93099 -0.49200
O 	O 	0.28585 0.67396 0.92198 -0.48100
C 	C 	0.05650 0.27210 0.95699 0.43500
C 	C 	0.14520 0.29240 0.93480 -0.46600
H 	H 	0.19530 0.28620 0.96310 0.16600
H 	H 	0.15580 0.25450 0.90620 0.17200
C 	C 	0.14780 0.37755 0.91228 0.14900
C 	C 	0.07030 0.42500 0.90415 -0.08500
H 	H 	0.01280 0.40390 0.91070 0.07000
C 	C 	0.07590 0.50450 0.88614 -0.13500
H 	H 	0.02250 0.53580 0.88150 0.08400
C 	C 	0.16010 0.53705 0.87513 0.20200
C 	C 	0.23720 0.48760 0.88091 -0.13500
H 	H 	0.29400 0.50770 0.87240 0.09000
C 	C 	0.23200 0.40920 0.89901 -0.08600
H 	H 	0.28500 0.37730 0.90230 0.06200
C 	C 	0.16840 0.62390 0.85926 -0.53100
H 	H 	0.21280 0.62890 0.83240 0.20100
H 	H 	0.10890 0.64340 0.84350 0.19800
C 	C 	0.19980 0.67354 0.90816 0.50800
Cd	Cd	0.87597 0.23974 0.98663 1.21700
N 	N 	0.64210 0.71368 0.73975 -0.11500
C 	C 	0.59160 0.67458 0.70068 0.03100
H 	H 	0.56090 0.70430 0.67290 0.04100
C 	C 	0.58297 0.59198 0.69959 -0.04900
C 	C 	0.62695 0.54788 0.74222 -0.01900
H 	H 	0.62230 0.49210 0.74270 0.05600
C 	C 	0.67810 0.58837 0.78427 -0.05400
C 	C 	0.68190 0.67110 0.78056 0.03600
H 	H 	0.71470 0.69900 0.80860 0.01900
N 	N 	0.48466 0.58483 0.61213 -0.23900
H 	H 	0.47860 0.63590 0.60730 0.16000
N 	N 	0.52711 0.46873 0.65274 -0.12900
N 	N 	0.40509 0.38117 0.52997 -0.22400
C 	C 	0.53143 0.54771 0.65551 0.13900
C 	C 	0.47650 0.45365 0.60403 0.01300
C 	C 	0.44980 0.52649 0.57832 0.12600
C 	C 	0.39800 0.52628 0.52847 -0.16800
H 	H 	0.37800 0.57370 0.51130 0.08900
C 	C 	0.37790 0.45171 0.50600 0.07900
H 	H 	0.34380 0.44970 0.47250 0.00100
C 	C 	0.45250 0.38169 0.57777 0.00700
H 	H 	0.47030 0.33310 0.59420 0.03000
N 	N 	0.77379 0.57511 0.87251 -0.23000
H 	H 	0.78490 0.62540 0.87830 0.12900
N 	N 	0.71791 0.46250 0.83135 -0.12300
N 	N 	0.83654 0.36404 0.95082 -0.23300
C 	C 	0.72360 0.54302 0.82893 0.13400
C 	C 	0.76850 0.44294 0.87927 0.01400
C 	C 	0.80320 0.51278 0.90526 0.12200
C 	C 	0.85500 0.50836 0.95531 -0.17900
H 	H 	0.87830 0.55400 0.97350 0.10600
C 	C 	0.86930 0.43190 0.97607 0.08300
H 	H 	0.90350 0.42660 0.00940 -0.00300
C 	C 	0.78820 0.36864 0.90306 -0.00000
H 	H 	0.76730 0.32180 0.88540 0.02400
O 	O 	0.49589 0.73460 0.92801 -0.42700
O 	O 	0.54123 0.79347 0.00337 -0.39000
O 	O 	0.63850 0.20963 0.93099 -0.49200
O 	O 	0.78585 0.17396 0.92198 -0.48100
C 	C 	0.55650 0.77210 0.95699 0.43700
C 	C 	0.64520 0.79240 0.93480 -0.46800
H 	H 	0.69530 0.78620 0.96310 0.16600
H 	H 	0.65580 0.75450 0.90620 0.17200
C 	C 	0.64780 0.87755 0.91228 0.15000
C 	C 	0.57030 0.92500 0.90415 -0.08600
H 	H 	0.51280 0.90390 0.91070 0.07000
C 	C 	0.57590 0.00450 0.88614 -0.13500
H 	H 	0.52250 0.03580 0.88150 0.08400
C 	C 	0.66010 0.03705 0.87513 0.20100
C 	C 	0.73720 0.98760 0.88091 -0.13200
H 	H 	0.79400 0.00770 0.87240 0.08900
C 	C 	0.73200 0.90920 0.89901 -0.08800
H 	H 	0.78500 0.87730 0.90230 0.06200
C 	C 	0.66840 0.12390 0.85926 -0.53000
H 	H 	0.71280 0.12890 0.83240 0.20100
H 	H 	0.60890 0.14340 0.84350 0.19800
C 	C 	0.69980 0.17354 0.90816 0.50800
