data_crystal

_cell_length_a 14.09900
_cell_length_b 10.99700
_cell_length_c 21.86500
_cell_angle_alpha 90.00000
_cell_angle_beta  93.97100
_cell_angle_gamma 90.00000

_symmetry_space_group_name_	'P 1'
_symmetry_space_group_name_H-M	'P 1'

loop_
_symmetry_equiv_pos_as_xyz
  x,y,z

loop_
_atom_site_label
_atom_site_type_symbol
_atom_site_fract_x
_atom_site_fract_y
_atom_site_fract_z
_atom_site_charge
Zn	Zn	0.82008 0.29753 0.08706 1.21100
O 	O 	0.63450 0.47890 0.07440 -0.46200
N 	N 	0.96620 0.29660 0.08920 -0.25400
C 	C 	0.71430 0.53290 0.07990 0.38600
Zn	Zn	0.61069 0.29709 0.07720 1.21200
O 	O 	0.79170 0.48080 0.08730 -0.47000
N 	N 	0.46650 0.29670 0.08140 -0.24100
C 	C 	0.71170 0.66970 0.08020 -0.08200
O 	O 	0.63250 0.11380 0.07780 -0.46500
C 	C 	0.79490 0.73730 0.08790 -0.01700
H 	H 	0.85250 0.69620 0.09340 0.04800
O 	O 	0.78980 0.11470 0.08370 -0.46700
C 	C 	0.62740 0.73420 0.07320 -0.01500
H 	H 	0.57020 0.69210 0.06800 0.05200
O 	O 	0.64810 0.29900 0.16940 -0.45600
C 	C 	0.71200 0.92610 0.07930 -0.08300
O 	O 	0.80800 0.28880 0.17890 -0.43500
C 	C 	0.62640 0.85920 0.07360 -0.01600
H 	H 	0.56860 0.90020 0.07010 0.05100
O 	O 	0.63300 0.21060 0.48450 -0.43700
C 	C 	0.79570 0.86160 0.08760 -0.01400
H 	H 	0.85320 0.90290 0.09300 0.05000
O 	O 	0.79420 0.19690 0.49230 -0.44800
C 	C 	0.71160 0.06220 0.07930 0.39500
C 	C 	0.72490 0.28660 0.20180 0.35800
C 	C 	0.72470 0.26760 0.26730 -0.08600
C 	C 	0.80520 0.23510 0.30340 -0.00700
H 	H 	0.86230 0.22400 0.28530 0.04900
C 	C 	0.80240 0.21880 0.36510 -0.03000
H 	H 	0.85810 0.19880 0.38810 0.05200
C 	C 	0.71690 0.23160 0.39530 -0.07200
C 	C 	0.63680 0.26280 0.35820 -0.02200
H 	H 	0.57970 0.27370 0.37630 0.05100
C 	C 	0.63810 0.27830 0.29590 -0.01500
H 	H 	0.58210 0.29570 0.27250 0.05200
C 	C 	0.71560 0.21140 0.46250 0.34400
C 	C 	0.41420 0.39790 0.07460 0.05800
H 	H 	0.44570 0.47200 0.07350 0.01200
C 	C 	0.31330 0.39870 0.06900 -0.05700
H 	H 	0.27930 0.46560 0.05340 0.04800
C 	C 	0.26900 0.29720 0.08750 0.02900
C 	C 	0.32740 0.19750 0.10760 -0.04600
H 	H 	0.30040 0.13130 0.12630 0.03600
C 	C 	0.42160 0.19800 0.10000 0.02300
H 	H 	0.45630 0.12710 0.10800 0.00900
C 	C 	0.00850 0.37250 0.05660 0.08000
H 	H 	0.97310 0.43550 0.03800 -0.01100
C 	C 	0.11090 0.36560 0.04680 -0.06600
H 	H 	0.13670 0.40440 0.01400 0.05700
C 	C 	0.16590 0.29890 0.08860 0.04400
C 	C 	0.11890 0.22870 0.13410 -0.05300
H 	H 	0.15150 0.19120 0.16740 0.04400
C 	C 	0.01930 0.22290 0.12310 0.08100
H 	H 	0.98850 0.15990 0.14200 -0.00200
C 	C 	0.32080 0.40600 0.09040 -0.04900
H 	H 	0.29430 0.47920 0.10220 0.04900
C 	C 	0.31820 0.18670 0.08630 -0.04200
H 	H 	0.28760 0.11230 0.08950 0.03700
C 	C 	0.41650 0.19450 0.08010 0.01600
H 	H 	0.44900 0.12230 0.07460 0.01300
C 	C 	0.10940 0.39800 0.06490 -0.06100
H 	H 	0.13520 0.47330 0.05550 0.05000
C 	C 	0.11280 0.20700 0.11610 -0.07000
H 	H 	0.14250 0.13490 0.12940 0.05000
Zn	Zn	0.82008 0.20247 0.58706 1.21100
O 	O 	0.63450 0.02110 0.57440 -0.46000
N 	N 	0.96620 0.20340 0.58920 -0.25100
C 	C 	0.71430 0.96710 0.57990 0.38200
Zn	Zn	0.61069 0.20291 0.57720 1.21200
O 	O 	0.79170 0.01920 0.58730 -0.46700
N 	N 	0.46650 0.20330 0.58140 -0.24000
C 	C 	0.71170 0.83030 0.58020 -0.08100
O 	O 	0.63250 0.38620 0.57780 -0.46400
C 	C 	0.79490 0.76270 0.58790 -0.01800
H 	H 	0.85250 0.80380 0.59340 0.04800
O 	O 	0.78980 0.38530 0.58370 -0.46700
C 	C 	0.62740 0.76580 0.57320 -0.01600
H 	H 	0.57020 0.80790 0.56800 0.05200
O 	O 	0.64810 0.20100 0.66940 -0.45600
C 	C 	0.71200 0.57390 0.57930 -0.08400
O 	O 	0.80800 0.21120 0.67890 -0.43400
C 	C 	0.62640 0.64080 0.57360 -0.01500
H 	H 	0.56860 0.59980 0.57010 0.05100
O 	O 	0.63300 0.28940 0.98450 -0.43600
C 	C 	0.79570 0.63840 0.58760 -0.01300
H 	H 	0.85320 0.59710 0.59300 0.05000
O 	O 	0.79420 0.30310 0.99230 -0.44800
C 	C 	0.71160 0.43780 0.57930 0.39500
C 	C 	0.72490 0.21340 0.70180 0.35800
C 	C 	0.72470 0.23240 0.76730 -0.08600
C 	C 	0.80520 0.26490 0.80340 -0.00700
H 	H 	0.86230 0.27600 0.78530 0.04900
C 	C 	0.80240 0.28120 0.86510 -0.03000
H 	H 	0.85810 0.30120 0.88810 0.05200
C 	C 	0.71690 0.26840 0.89530 -0.07200
C 	C 	0.63680 0.23720 0.85820 -0.02200
H 	H 	0.57970 0.22630 0.87630 0.05100
C 	C 	0.63810 0.22170 0.79590 -0.01500
H 	H 	0.58210 0.20430 0.77250 0.05200
C 	C 	0.71560 0.28860 0.96250 0.34400
C 	C 	0.41420 0.10210 0.57460 0.05900
H 	H 	0.44570 0.02800 0.57350 0.01200
C 	C 	0.31330 0.10130 0.56900 -0.05700
H 	H 	0.27930 0.03440 0.55340 0.04700
C 	C 	0.26900 0.20280 0.58750 0.03000
C 	C 	0.32740 0.30250 0.60760 -0.04600
H 	H 	0.30040 0.36870 0.62630 0.03700
C 	C 	0.42160 0.30200 0.60000 0.02300
H 	H 	0.45630 0.37290 0.60800 0.00900
C 	C 	0.00850 0.12750 0.55660 0.07200
H 	H 	0.97310 0.06450 0.53800 -0.00600
C 	C 	0.11090 0.13440 0.54680 -0.06500
H 	H 	0.13670 0.09560 0.51400 0.05600
C 	C 	0.16590 0.20110 0.58860 0.04300
C 	C 	0.11890 0.27130 0.63410 -0.05200
H 	H 	0.15150 0.30880 0.66740 0.04300
C 	C 	0.01930 0.27710 0.62310 0.07900
H 	H 	0.98850 0.34010 0.64200 -0.00100
C 	C 	0.32080 0.09400 0.59040 -0.04900
H 	H 	0.29430 0.02080 0.60220 0.04800
C 	C 	0.31820 0.31330 0.58630 -0.04200
H 	H 	0.28760 0.38770 0.58950 0.03800
C 	C 	0.41650 0.30550 0.58010 0.01600
H 	H 	0.44900 0.37770 0.57460 0.01300
C 	C 	0.10940 0.10200 0.56490 -0.05900
H 	H 	0.13520 0.02670 0.55550 0.04900
C 	C 	0.11280 0.29300 0.61610 -0.06900
H 	H 	0.14250 0.36510 0.62940 0.05100
Zn	Zn	0.17992 0.79753 0.41294 1.21100
O 	O 	0.36550 0.97890 0.42560 -0.46000
N 	N 	0.03380 0.79660 0.41080 -0.25100
C 	C 	0.28570 0.03290 0.42010 0.38200
Zn	Zn	0.38931 0.79709 0.42280 1.21200
O 	O 	0.20830 0.98080 0.41270 -0.46700
N 	N 	0.53350 0.79670 0.41860 -0.24000
C 	C 	0.28830 0.16970 0.41980 -0.08100
O 	O 	0.36750 0.61380 0.42220 -0.46400
C 	C 	0.20510 0.23730 0.41210 -0.01800
H 	H 	0.14750 0.19620 0.40660 0.04800
O 	O 	0.21020 0.61470 0.41630 -0.46700
C 	C 	0.37260 0.23420 0.42680 -0.01600
H 	H 	0.42980 0.19210 0.43200 0.05200
O 	O 	0.35190 0.79900 0.33060 -0.45600
C 	C 	0.28800 0.42610 0.42070 -0.08400
O 	O 	0.19200 0.78880 0.32110 -0.43400
C 	C 	0.37360 0.35920 0.42640 -0.01500
H 	H 	0.43140 0.40020 0.42990 0.05100
O 	O 	0.36700 0.71060 0.01550 -0.43600
C 	C 	0.20430 0.36160 0.41240 -0.01300
H 	H 	0.14680 0.40290 0.40700 0.05000
O 	O 	0.20580 0.69690 0.00770 -0.44800
C 	C 	0.28840 0.56220 0.42070 0.39500
C 	C 	0.27510 0.78660 0.29820 0.35800
C 	C 	0.27530 0.76760 0.23270 -0.08600
C 	C 	0.19480 0.73510 0.19660 -0.00700
H 	H 	0.13770 0.72400 0.21470 0.04900
C 	C 	0.19760 0.71880 0.13490 -0.03000
H 	H 	0.14190 0.69880 0.11190 0.05200
C 	C 	0.28310 0.73160 0.10470 -0.07200
C 	C 	0.36320 0.76280 0.14180 -0.02200
H 	H 	0.42030 0.77370 0.12370 0.05100
C 	C 	0.36190 0.77830 0.20410 -0.01500
H 	H 	0.41790 0.79570 0.22750 0.05200
C 	C 	0.28440 0.71140 0.03750 0.34400
C 	C 	0.58580 0.89790 0.42540 0.05900
H 	H 	0.55430 0.97200 0.42650 0.01200
C 	C 	0.68670 0.89870 0.43100 -0.05700
H 	H 	0.72070 0.96560 0.44660 0.04700
C 	C 	0.73100 0.79720 0.41250 0.03000
C 	C 	0.67260 0.69750 0.39240 -0.04600
H 	H 	0.69960 0.63130 0.37370 0.03700
C 	C 	0.57840 0.69800 0.40000 0.02300
H 	H 	0.54370 0.62710 0.39200 0.00900
C 	C 	0.99150 0.87250 0.44340 0.07200
H 	H 	0.02690 0.93550 0.46200 -0.00600
C 	C 	0.88910 0.86560 0.45320 -0.06500
H 	H 	0.86330 0.90440 0.48600 0.05600
C 	C 	0.83410 0.79890 0.41140 0.04300
C 	C 	0.88110 0.72870 0.36590 -0.05200
H 	H 	0.84850 0.69120 0.33260 0.04300
C 	C 	0.98070 0.72290 0.37690 0.07900
H 	H 	0.01150 0.65990 0.35800 -0.00100
C 	C 	0.67920 0.90600 0.40960 -0.04900
H 	H 	0.70570 0.97920 0.39780 0.04800
C 	C 	0.68180 0.68670 0.41370 -0.04200
H 	H 	0.71240 0.61230 0.41050 0.03800
C 	C 	0.58350 0.69450 0.41990 0.01600
H 	H 	0.55100 0.62230 0.42540 0.01300
C 	C 	0.89060 0.89800 0.43510 -0.05900
H 	H 	0.86480 0.97330 0.44450 0.04900
C 	C 	0.88720 0.70700 0.38390 -0.06900
H 	H 	0.85750 0.63490 0.37060 0.05100
Zn	Zn	0.17992 0.70247 0.91294 1.21100
O 	O 	0.36550 0.52110 0.92560 -0.46200
N 	N 	0.03380 0.70340 0.91080 -0.25400
C 	C 	0.28570 0.46710 0.92010 0.38600
Zn	Zn	0.38931 0.70291 0.92280 1.21200
O 	O 	0.20830 0.51920 0.91270 -0.47000
N 	N 	0.53350 0.70330 0.91860 -0.24100
C 	C 	0.28830 0.33030 0.91980 -0.08200
O 	O 	0.36750 0.88620 0.92220 -0.46500
C 	C 	0.20510 0.26270 0.91210 -0.01700
H 	H 	0.14750 0.30380 0.90660 0.04800
O 	O 	0.21020 0.88530 0.91630 -0.46700
C 	C 	0.37260 0.26580 0.92680 -0.01500
H 	H 	0.42980 0.30790 0.93200 0.05200
O 	O 	0.35190 0.70100 0.83060 -0.45600
C 	C 	0.28800 0.07390 0.92070 -0.08300
O 	O 	0.19200 0.71120 0.82110 -0.43500
C 	C 	0.37360 0.14080 0.92640 -0.01600
H 	H 	0.43140 0.09980 0.92990 0.05100
O 	O 	0.36700 0.78940 0.51550 -0.43700
C 	C 	0.20430 0.13840 0.91240 -0.01400
H 	H 	0.14680 0.09710 0.90700 0.05000
O 	O 	0.20580 0.80310 0.50770 -0.44800
C 	C 	0.28840 0.93780 0.92070 0.39500
C 	C 	0.27510 0.71340 0.79820 0.35800
C 	C 	0.27530 0.73240 0.73270 -0.08600
C 	C 	0.19480 0.76490 0.69660 -0.00700
H 	H 	0.13770 0.77600 0.71470 0.04900
C 	C 	0.19760 0.78120 0.63490 -0.03000
H 	H 	0.14190 0.80120 0.61190 0.05200
C 	C 	0.28310 0.76840 0.60470 -0.07200
C 	C 	0.36320 0.73720 0.64180 -0.02200
H 	H 	0.42030 0.72630 0.62370 0.05100
C 	C 	0.36190 0.72170 0.70410 -0.01500
H 	H 	0.41790 0.70430 0.72750 0.05200
C 	C 	0.28440 0.78860 0.53750 0.34400
C 	C 	0.58580 0.60210 0.92540 0.05800
H 	H 	0.55430 0.52800 0.92650 0.01200
C 	C 	0.68670 0.60130 0.93100 -0.05700
H 	H 	0.72070 0.53440 0.94660 0.04800
C 	C 	0.73100 0.70280 0.91250 0.02900
C 	C 	0.67260 0.80250 0.89240 -0.04600
H 	H 	0.69960 0.86870 0.87370 0.03600
C 	C 	0.57840 0.80200 0.90000 0.02300
H 	H 	0.54370 0.87290 0.89200 0.00900
C 	C 	0.99150 0.62750 0.94340 0.08000
H 	H 	0.02690 0.56450 0.96200 -0.01100
C 	C 	0.88910 0.63440 0.95320 -0.06600
H 	H 	0.86330 0.59560 0.98600 0.05700
C 	C 	0.83410 0.70110 0.91140 0.04400
C 	C 	0.88110 0.77130 0.86590 -0.05300
H 	H 	0.84850 0.80880 0.83260 0.04400
C 	C 	0.98070 0.77710 0.87690 0.08100
H 	H 	0.01150 0.84010 0.85800 -0.00200
C 	C 	0.67920 0.59400 0.90960 -0.04900
H 	H 	0.70570 0.52080 0.89780 0.04900
C 	C 	0.68180 0.81330 0.91370 -0.04200
H 	H 	0.71240 0.88770 0.91050 0.03700
C 	C 	0.58350 0.80550 0.91990 0.01600
H 	H 	0.55100 0.87770 0.92540 0.01300
C 	C 	0.89060 0.60200 0.93510 -0.06100
H 	H 	0.86480 0.52670 0.94450 0.05000
C 	C 	0.88720 0.79300 0.88390 -0.07000
H 	H 	0.85750 0.86510 0.87060 0.05000
