data_crystal

_cell_length_a 44.26000
_cell_length_b 15.01600
_cell_length_c 14.97400
_cell_angle_alpha 90.00000
_cell_angle_beta  94.01200
_cell_angle_gamma 90.00000

_symmetry_space_group_name_	'P 1'
_symmetry_space_group_name_H-M	'P 1'

loop_
_symmetry_equiv_pos_as_xyz
  x,y,z

loop_
_atom_site_label
_atom_site_type_symbol
_atom_site_fract_x
_atom_site_fract_y
_atom_site_fract_z
_atom_site_charge
Zn	Zn	0.21687 0.25056 0.99564 1.22300
O 	O 	0.22433 0.33005 0.10173 -0.48900
O 	O 	0.23090 0.64876 0.41842 -0.49500
O 	O 	0.27410 0.33068 0.10691 -0.48200
O 	O 	0.28066 0.64441 0.42330 -0.47500
N 	N 	0.17294 0.25910 0.96000 -0.26700
C 	C 	0.27969 0.46940 0.34790 0.04800
C 	C 	0.25355 0.57170 0.24310 0.04400
C 	C 	0.25347 0.53540 0.33800 -0.13500
C 	C 	0.25070 0.41280 0.21590 -0.13700
C 	C 	0.25246 0.50690 0.17920 0.04600
C 	C 	0.22367 0.41160 0.27330 0.04900
C 	C 	0.22532 0.47700 0.33970 0.04500
C 	C 	0.20347 0.48140 0.40000 -0.08100
H 	H 	0.20460 0.52530 0.44570 0.07100
C 	C 	0.27796 0.40300 0.28320 0.04800
C 	C 	0.25390 0.61840 0.06640 -0.02500
H 	H 	0.25420 0.63440 0.00510 0.04100
C 	C 	0.25483 0.65980 0.21940 -0.07600
H 	H 	0.25570 0.70460 0.26430 0.06300
C 	C 	0.30232 0.46740 0.41530 -0.08300
H 	H 	0.30380 0.51330 0.45910 0.07600
C 	C 	0.25480 0.68330 0.13080 -0.02500
H 	H 	0.25540 0.74440 0.11420 0.04100
C 	C 	0.29852 0.33480 0.28790 -0.08100
H 	H 	0.29730 0.28890 0.24400 0.07200
C 	C 	0.32088 0.33270 0.35560 -0.02200
H 	H 	0.33510 0.28520 0.35880 0.03600
C 	C 	0.24957 0.35080 0.13580 0.42400
C 	C 	0.25516 0.61520 0.40000 0.41900
C 	C 	0.32294 0.39850 0.41900 -0.02300
H 	H 	0.33860 0.39670 0.46570 0.03800
C 	C 	0.20007 0.35210 0.26820 -0.08600
H 	H 	0.19900 0.30710 0.22360 0.07600
C 	C 	0.16424 0.29760 0.88170 0.10000
H 	H 	0.17900 0.32870 0.85050 -0.00400
C 	C 	0.25261 0.53020 0.09040 -0.07600
H 	H 	0.25180 0.48540 0.04560 0.06400
C 	C 	0.17790 0.35800 0.32810 -0.02200
H 	H 	0.16130 0.31790 0.32370 0.03600
C 	C 	0.13534 0.29430 0.84480 -0.17800
H 	H 	0.13010 0.32160 0.78860 0.09100
C 	C 	0.17971 0.42140 0.39380 -0.02600
H 	H 	0.16450 0.42430 0.43550 0.03800
C 	C 	0.12253 0.21170 0.97130 -0.18100
H 	H 	0.10810 0.18140 0.00420 0.09300
C 	C 	0.15209 0.21700 0.00370 0.10800
H 	H 	0.15800 0.18970 0.05940 -0.01300
C 	C 	0.08344 0.24600 0.85220 -0.08600
C 	C 	0.05888 0.24590 0.81950 0.03100
C 	C 	0.02780 0.24610 0.78170 -0.03900
C 	C 	0.02319 0.29330 0.69240 0.01900
C 	C 	0.00674 0.29370 0.84210 0.01800
C 	C 	0.11386 0.25090 0.89010 0.13500
C 	C 	0.02958 0.07600 0.78460 -0.06700
H 	H 	0.05000 0.07640 0.80860 0.05600
C 	C 	0.04485 0.33260 0.64510 -0.06700
H 	H 	0.06550 0.33100 0.66700 0.05400
C 	C 	0.03653 0.37470 0.56540 -0.02700
H 	H 	0.05160 0.40300 0.53330 0.03700
C 	C 	0.00704 0.37670 0.53140 -0.03300
H 	H 	0.00160 0.40600 0.47640 0.04000
C 	C 	0.01496 0.99670 0.76740 -0.02900
H 	H 	0.02520 0.94200 0.77930 0.03800
C 	C 	0.01474 0.33480 0.92110 -0.06500
H 	H 	0.03530 0.33500 0.94390 0.05500
C 	C 	0.01492 0.15290 0.76740 0.01900
Zn	Zn	0.71687 0.75056 0.99564 1.22400
O 	O 	0.72433 0.83005 0.10173 -0.48800
O 	O 	0.73090 0.14876 0.41842 -0.49500
O 	O 	0.77410 0.83068 0.10691 -0.48200
O 	O 	0.78066 0.14441 0.42330 -0.47500
N 	N 	0.67294 0.75910 0.96000 -0.26700
C 	C 	0.77969 0.96940 0.34790 0.04800
C 	C 	0.75355 0.07170 0.24310 0.04400
C 	C 	0.75347 0.03540 0.33800 -0.13500
C 	C 	0.75070 0.91280 0.21590 -0.13700
C 	C 	0.75246 0.00690 0.17920 0.04600
C 	C 	0.72367 0.91160 0.27330 0.04900
C 	C 	0.72532 0.97700 0.33970 0.04500
C 	C 	0.70347 0.98140 0.40000 -0.08100
H 	H 	0.70460 0.02530 0.44570 0.07100
C 	C 	0.77796 0.90300 0.28320 0.04800
C 	C 	0.75390 0.11840 0.06640 -0.02500
H 	H 	0.75420 0.13440 0.00510 0.04100
C 	C 	0.75483 0.15980 0.21940 -0.07500
H 	H 	0.75570 0.20460 0.26430 0.06300
C 	C 	0.80232 0.96740 0.41530 -0.08300
H 	H 	0.80380 0.01330 0.45910 0.07600
C 	C 	0.75480 0.18330 0.13080 -0.02500
H 	H 	0.75540 0.24440 0.11420 0.04100
C 	C 	0.79852 0.83480 0.28790 -0.08100
H 	H 	0.79730 0.78890 0.24400 0.07200
C 	C 	0.82088 0.83270 0.35560 -0.02200
H 	H 	0.83510 0.78520 0.35880 0.03700
C 	C 	0.74957 0.85080 0.13580 0.42400
C 	C 	0.75516 0.11520 0.40000 0.41900
C 	C 	0.82294 0.89850 0.41900 -0.02300
H 	H 	0.83860 0.89670 0.46570 0.03800
C 	C 	0.70007 0.85210 0.26820 -0.08600
H 	H 	0.69900 0.80710 0.22360 0.07600
C 	C 	0.66424 0.79760 0.88170 0.10000
H 	H 	0.67900 0.82870 0.85050 -0.00500
C 	C 	0.75261 0.03020 0.09040 -0.07700
H 	H 	0.75180 0.98540 0.04560 0.06400
C 	C 	0.67790 0.85800 0.32810 -0.02200
H 	H 	0.66130 0.81790 0.32370 0.03600
C 	C 	0.63534 0.79430 0.84480 -0.17800
H 	H 	0.63010 0.82160 0.78860 0.09100
C 	C 	0.67971 0.92140 0.39380 -0.02600
H 	H 	0.66450 0.92430 0.43550 0.03800
C 	C 	0.62253 0.71170 0.97130 -0.18200
H 	H 	0.60810 0.68140 0.00420 0.09300
C 	C 	0.65209 0.71700 0.00370 0.10800
H 	H 	0.65800 0.68970 0.05940 -0.01300
C 	C 	0.58344 0.74600 0.85220 -0.08600
C 	C 	0.55888 0.74590 0.81950 0.03200
C 	C 	0.52780 0.74610 0.78170 -0.03900
C 	C 	0.52319 0.79330 0.69240 0.01900
C 	C 	0.50674 0.79370 0.84210 0.01800
C 	C 	0.61386 0.75090 0.89010 0.13600
C 	C 	0.52958 0.57600 0.78460 -0.06700
H 	H 	0.55000 0.57640 0.80860 0.05600
C 	C 	0.54485 0.83260 0.64510 -0.06700
H 	H 	0.56550 0.83100 0.66700 0.05400
C 	C 	0.53653 0.87470 0.56540 -0.02700
H 	H 	0.55160 0.90300 0.53330 0.03700
C 	C 	0.50704 0.87670 0.53140 -0.03300
H 	H 	0.50160 0.90600 0.47640 0.04000
C 	C 	0.51496 0.49670 0.76740 -0.02800
H 	H 	0.52520 0.44200 0.77930 0.03800
C 	C 	0.51474 0.83480 0.92110 -0.06400
H 	H 	0.53530 0.83500 0.94390 0.05500
C 	C 	0.51492 0.65290 0.76740 0.02000
Zn	Zn	0.78313 0.25056 0.50436 1.22400
O 	O 	0.77567 0.33005 0.39827 -0.48800
O 	O 	0.76910 0.64876 0.08158 -0.49500
O 	O 	0.72590 0.33068 0.39309 -0.48200
O 	O 	0.71934 0.64441 0.07670 -0.47500
N 	N 	0.82706 0.25910 0.54000 -0.26700
C 	C 	0.72031 0.46940 0.15210 0.04800
C 	C 	0.74645 0.57170 0.25690 0.04400
C 	C 	0.74653 0.53540 0.16200 -0.13500
C 	C 	0.74930 0.41280 0.28410 -0.13700
C 	C 	0.74754 0.50690 0.32080 0.04600
C 	C 	0.77633 0.41160 0.22670 0.04900
C 	C 	0.77468 0.47700 0.16030 0.04500
C 	C 	0.79653 0.48140 0.10000 -0.08100
H 	H 	0.79540 0.52530 0.05430 0.07100
C 	C 	0.72204 0.40300 0.21680 0.04800
C 	C 	0.74610 0.61840 0.43360 -0.02500
H 	H 	0.74580 0.63440 0.49490 0.04100
C 	C 	0.74517 0.65980 0.28060 -0.07500
H 	H 	0.74430 0.70460 0.23570 0.06300
C 	C 	0.69768 0.46740 0.08470 -0.08300
H 	H 	0.69620 0.51330 0.04090 0.07700
C 	C 	0.74520 0.68330 0.36920 -0.02500
H 	H 	0.74460 0.74440 0.38580 0.04100
C 	C 	0.70148 0.33480 0.21210 -0.08100
H 	H 	0.70270 0.28890 0.25600 0.07200
C 	C 	0.67912 0.33270 0.14440 -0.02200
H 	H 	0.66490 0.28520 0.14120 0.03700
C 	C 	0.75043 0.35080 0.36420 0.42400
C 	C 	0.74484 0.61520 0.10000 0.41900
C 	C 	0.67706 0.39850 0.08100 -0.02300
H 	H 	0.66140 0.39670 0.03430 0.03800
C 	C 	0.79993 0.35210 0.23180 -0.08600
H 	H 	0.80100 0.30710 0.27640 0.07600
C 	C 	0.83576 0.29760 0.61830 0.10000
H 	H 	0.82100 0.32870 0.64950 -0.00500
C 	C 	0.74739 0.53020 0.40960 -0.07600
H 	H 	0.74820 0.48540 0.45440 0.06300
C 	C 	0.82210 0.35800 0.17190 -0.02200
H 	H 	0.83870 0.31790 0.17630 0.03600
C 	C 	0.86466 0.29430 0.65520 -0.17800
H 	H 	0.86990 0.32160 0.71140 0.09100
C 	C 	0.82029 0.42140 0.10620 -0.02600
H 	H 	0.83550 0.42430 0.06450 0.03800
C 	C 	0.87747 0.21170 0.52870 -0.18100
H 	H 	0.89190 0.18140 0.49580 0.09300
C 	C 	0.84791 0.21700 0.49630 0.10800
H 	H 	0.84200 0.18970 0.44060 -0.01300
C 	C 	0.91656 0.24600 0.64780 -0.08600
C 	C 	0.94112 0.24590 0.68050 0.03100
C 	C 	0.97220 0.24610 0.71830 -0.03800
C 	C 	0.97681 0.29330 0.80760 0.01800
C 	C 	0.99326 0.29370 0.65790 0.01700
C 	C 	0.88614 0.25090 0.60990 0.13500
C 	C 	0.97042 0.07600 0.71540 -0.06700
H 	H 	0.95000 0.07640 0.69140 0.05600
C 	C 	0.95515 0.33260 0.85490 -0.06700
H 	H 	0.93450 0.33100 0.83300 0.05400
C 	C 	0.96347 0.37470 0.93460 -0.02700
H 	H 	0.94840 0.40300 0.96670 0.03700
C 	C 	0.99296 0.37670 0.96860 -0.03300
H 	H 	0.99840 0.40600 0.02360 0.04000
C 	C 	0.98504 0.99670 0.73260 -0.02900
H 	H 	0.97480 0.94200 0.72070 0.03800
C 	C 	0.98526 0.33480 0.57890 -0.06400
H 	H 	0.96470 0.33500 0.55610 0.05500
C 	C 	0.98508 0.15290 0.73260 0.01900
Zn	Zn	0.28313 0.75056 0.50436 1.22400
O 	O 	0.27567 0.83005 0.39827 -0.48800
O 	O 	0.26910 0.14876 0.08158 -0.49500
O 	O 	0.22590 0.83068 0.39309 -0.48200
O 	O 	0.21934 0.14441 0.07670 -0.47500
N 	N 	0.32706 0.75910 0.54000 -0.26700
C 	C 	0.22031 0.96940 0.15210 0.04800
C 	C 	0.24645 0.07170 0.25690 0.04400
C 	C 	0.24653 0.03540 0.16200 -0.13500
C 	C 	0.24930 0.91280 0.28410 -0.13700
C 	C 	0.24754 0.00690 0.32080 0.04600
C 	C 	0.27633 0.91160 0.22670 0.04900
C 	C 	0.27468 0.97700 0.16030 0.04500
C 	C 	0.29653 0.98140 0.10000 -0.08100
H 	H 	0.29540 0.02530 0.05430 0.07100
C 	C 	0.22204 0.90300 0.21680 0.04800
C 	C 	0.24610 0.11840 0.43360 -0.02500
H 	H 	0.24580 0.13440 0.49490 0.04100
C 	C 	0.24517 0.15980 0.28060 -0.07600
H 	H 	0.24430 0.20460 0.23570 0.06300
C 	C 	0.19768 0.96740 0.08470 -0.08300
H 	H 	0.19620 0.01330 0.04090 0.07600
C 	C 	0.24520 0.18330 0.36920 -0.02500
H 	H 	0.24460 0.24440 0.38580 0.04100
C 	C 	0.20148 0.83480 0.21210 -0.08100
H 	H 	0.20270 0.78890 0.25600 0.07200
C 	C 	0.17912 0.83270 0.14440 -0.02200
H 	H 	0.16490 0.78520 0.14120 0.03700
C 	C 	0.25043 0.85080 0.36420 0.42400
C 	C 	0.24484 0.11520 0.10000 0.41900
C 	C 	0.17706 0.89850 0.08100 -0.02400
H 	H 	0.16140 0.89670 0.03430 0.03800
C 	C 	0.29993 0.85210 0.23180 -0.08600
H 	H 	0.30100 0.80710 0.27640 0.07600
C 	C 	0.33576 0.79760 0.61830 0.10000
H 	H 	0.32100 0.82870 0.64950 -0.00500
C 	C 	0.24739 0.03020 0.40960 -0.07600
H 	H 	0.24820 0.98540 0.45440 0.06300
C 	C 	0.32210 0.85800 0.17190 -0.02200
H 	H 	0.33870 0.81790 0.17630 0.03600
C 	C 	0.36466 0.79430 0.65520 -0.17800
H 	H 	0.36990 0.82160 0.71140 0.09100
C 	C 	0.32029 0.92140 0.10620 -0.02600
H 	H 	0.33550 0.92430 0.06450 0.03800
C 	C 	0.37747 0.71170 0.52870 -0.18100
H 	H 	0.39190 0.68140 0.49580 0.09300
C 	C 	0.34791 0.71700 0.49630 0.10800
H 	H 	0.34200 0.68970 0.44060 -0.01300
C 	C 	0.41656 0.74600 0.64780 -0.08600
C 	C 	0.44112 0.74590 0.68050 0.03100
C 	C 	0.47220 0.74610 0.71830 -0.03900
C 	C 	0.47681 0.79330 0.80760 0.01900
C 	C 	0.49326 0.79370 0.65790 0.01800
C 	C 	0.38614 0.75090 0.60990 0.13500
C 	C 	0.47042 0.57600 0.71540 -0.06700
H 	H 	0.45000 0.57640 0.69140 0.05600
C 	C 	0.45515 0.83260 0.85490 -0.06700
H 	H 	0.43450 0.83100 0.83300 0.05400
C 	C 	0.46347 0.87470 0.93460 -0.02700
H 	H 	0.44840 0.90300 0.96670 0.03700
C 	C 	0.49296 0.87670 0.96860 -0.03300
H 	H 	0.49840 0.90600 0.02360 0.04000
C 	C 	0.48504 0.49670 0.73260 -0.02800
H 	H 	0.47480 0.44200 0.72070 0.03800
C 	C 	0.48526 0.83480 0.57890 -0.06400
H 	H 	0.46470 0.83500 0.55610 0.05500
C 	C 	0.48508 0.65290 0.73260 0.01900
Zn	Zn	0.78313 0.74944 0.00436 1.22400
O 	O 	0.77567 0.66995 0.89827 -0.48800
O 	O 	0.76910 0.35124 0.58158 -0.49500
O 	O 	0.72590 0.66932 0.89309 -0.48200
O 	O 	0.71934 0.35559 0.57670 -0.47500
N 	N 	0.82706 0.74090 0.04000 -0.26700
C 	C 	0.72031 0.53060 0.65210 0.04800
C 	C 	0.74645 0.42830 0.75690 0.04400
C 	C 	0.74653 0.46460 0.66200 -0.13500
C 	C 	0.74930 0.58720 0.78410 -0.13700
C 	C 	0.74754 0.49310 0.82080 0.04600
C 	C 	0.77633 0.58840 0.72670 0.04900
C 	C 	0.77468 0.52300 0.66030 0.04500
C 	C 	0.79653 0.51860 0.60000 -0.08100
H 	H 	0.79540 0.47470 0.55430 0.07100
C 	C 	0.72204 0.59700 0.71680 0.04800
C 	C 	0.74610 0.38160 0.93360 -0.02500
H 	H 	0.74580 0.36560 0.99490 0.04100
C 	C 	0.74517 0.34020 0.78060 -0.07600
H 	H 	0.74430 0.29540 0.73570 0.06300
C 	C 	0.69768 0.53260 0.58470 -0.08300
H 	H 	0.69620 0.48670 0.54090 0.07600
C 	C 	0.74520 0.31670 0.86920 -0.02500
H 	H 	0.74460 0.25560 0.88580 0.04100
C 	C 	0.70148 0.66520 0.71210 -0.08100
H 	H 	0.70270 0.71110 0.75600 0.07200
C 	C 	0.67912 0.66730 0.64440 -0.02200
H 	H 	0.66490 0.71480 0.64120 0.03600
C 	C 	0.75043 0.64920 0.86420 0.42400
C 	C 	0.74484 0.38480 0.60000 0.41900
C 	C 	0.67706 0.60150 0.58100 -0.02300
H 	H 	0.66140 0.60330 0.53430 0.03800
C 	C 	0.79993 0.64790 0.73180 -0.08600
H 	H 	0.80100 0.69290 0.77640 0.07600
C 	C 	0.83576 0.70240 0.11830 0.10000
H 	H 	0.82100 0.67130 0.14950 -0.00400
C 	C 	0.74739 0.46980 0.90960 -0.07600
H 	H 	0.74820 0.51460 0.95440 0.06400
C 	C 	0.82210 0.64200 0.67190 -0.02200
H 	H 	0.83870 0.68210 0.67630 0.03600
C 	C 	0.86466 0.70570 0.15520 -0.17800
H 	H 	0.86990 0.67840 0.21140 0.09100
C 	C 	0.82029 0.57860 0.60620 -0.02600
H 	H 	0.83550 0.57570 0.56450 0.03800
C 	C 	0.87747 0.78830 0.02870 -0.18100
H 	H 	0.89190 0.81860 0.99580 0.09300
C 	C 	0.84791 0.78300 0.99630 0.10800
H 	H 	0.84200 0.81030 0.94060 -0.01300
C 	C 	0.91656 0.75400 0.14780 -0.08600
C 	C 	0.94112 0.75410 0.18050 0.03100
C 	C 	0.97220 0.75390 0.21830 -0.03900
C 	C 	0.97681 0.70670 0.30760 0.01900
C 	C 	0.99326 0.70630 0.15790 0.01800
C 	C 	0.88614 0.74910 0.10990 0.13500
C 	C 	0.97042 0.92400 0.21540 -0.06700
H 	H 	0.95000 0.92360 0.19140 0.05600
C 	C 	0.95515 0.66740 0.35490 -0.06700
H 	H 	0.93450 0.66900 0.33300 0.05400
C 	C 	0.96347 0.62530 0.43460 -0.02700
H 	H 	0.94840 0.59700 0.46670 0.03700
C 	C 	0.99296 0.62330 0.46860 -0.03300
H 	H 	0.99840 0.59400 0.52360 0.04000
C 	C 	0.98504 0.00330 0.23260 -0.02900
H 	H 	0.97480 0.05800 0.22070 0.03800
C 	C 	0.98526 0.66520 0.07890 -0.06500
H 	H 	0.96470 0.66500 0.05610 0.05500
C 	C 	0.98508 0.84710 0.23260 0.01900
Zn	Zn	0.28313 0.24944 0.00436 1.22400
O 	O 	0.27567 0.16995 0.89827 -0.48800
O 	O 	0.26910 0.85124 0.58158 -0.49500
O 	O 	0.22590 0.16932 0.89309 -0.48200
O 	O 	0.21934 0.85559 0.57670 -0.47500
N 	N 	0.32706 0.24090 0.04000 -0.26700
C 	C 	0.22031 0.03060 0.65210 0.04800
C 	C 	0.24645 0.92830 0.75690 0.04400
C 	C 	0.24653 0.96460 0.66200 -0.13500
C 	C 	0.24930 0.08720 0.78410 -0.13700
C 	C 	0.24754 0.99310 0.82080 0.04600
C 	C 	0.27633 0.08840 0.72670 0.04900
C 	C 	0.27468 0.02300 0.66030 0.04500
C 	C 	0.29653 0.01860 0.60000 -0.08100
H 	H 	0.29540 0.97470 0.55430 0.07100
C 	C 	0.22204 0.09700 0.71680 0.04800
C 	C 	0.24610 0.88160 0.93360 -0.02500
H 	H 	0.24580 0.86560 0.99490 0.04100
C 	C 	0.24517 0.84020 0.78060 -0.07500
H 	H 	0.24430 0.79540 0.73570 0.06300
C 	C 	0.19768 0.03260 0.58470 -0.08300
H 	H 	0.19620 0.98670 0.54090 0.07600
C 	C 	0.24520 0.81670 0.86920 -0.02500
H 	H 	0.24460 0.75560 0.88580 0.04100
C 	C 	0.20148 0.16520 0.71210 -0.08100
H 	H 	0.20270 0.21110 0.75600 0.07200
C 	C 	0.17912 0.16730 0.64440 -0.02200
H 	H 	0.16490 0.21480 0.64120 0.03700
C 	C 	0.25043 0.14920 0.86420 0.42400
C 	C 	0.24484 0.88480 0.60000 0.41900
C 	C 	0.17706 0.10150 0.58100 -0.02300
H 	H 	0.16140 0.10330 0.53430 0.03800
C 	C 	0.29993 0.14790 0.73180 -0.08600
H 	H 	0.30100 0.19290 0.77640 0.07600
C 	C 	0.33576 0.20240 0.11830 0.10000
H 	H 	0.32100 0.17130 0.14950 -0.00500
C 	C 	0.24739 0.96980 0.90960 -0.07700
H 	H 	0.24820 0.01460 0.95440 0.06400
C 	C 	0.32210 0.14200 0.67190 -0.02200
H 	H 	0.33870 0.18210 0.67630 0.03600
C 	C 	0.36466 0.20570 0.15520 -0.17800
H 	H 	0.36990 0.17840 0.21140 0.09100
C 	C 	0.32029 0.07860 0.60620 -0.02600
H 	H 	0.33550 0.07570 0.56450 0.03800
C 	C 	0.37747 0.28830 0.02870 -0.18200
H 	H 	0.39190 0.31860 0.99580 0.09300
C 	C 	0.34791 0.28300 0.99630 0.10800
H 	H 	0.34200 0.31030 0.94060 -0.01300
C 	C 	0.41656 0.25400 0.14780 -0.08600
C 	C 	0.44112 0.25410 0.18050 0.03200
C 	C 	0.47220 0.25390 0.21830 -0.03900
C 	C 	0.47681 0.20670 0.30760 0.01900
C 	C 	0.49326 0.20630 0.15790 0.01800
C 	C 	0.38614 0.24910 0.10990 0.13600
C 	C 	0.47042 0.42400 0.21540 -0.06700
H 	H 	0.45000 0.42360 0.19140 0.05600
C 	C 	0.45515 0.16740 0.35490 -0.06700
H 	H 	0.43450 0.16900 0.33300 0.05400
C 	C 	0.46347 0.12530 0.43460 -0.02700
H 	H 	0.44840 0.09700 0.46670 0.03700
C 	C 	0.49296 0.12330 0.46860 -0.03300
H 	H 	0.49840 0.09400 0.52360 0.04000
C 	C 	0.48504 0.50330 0.23260 -0.02800
H 	H 	0.47480 0.55800 0.22070 0.03800
C 	C 	0.48526 0.16520 0.07890 -0.06400
H 	H 	0.46470 0.16500 0.05610 0.05500
C 	C 	0.48508 0.34710 0.23260 0.02000
Zn	Zn	0.21687 0.74944 0.49564 1.22400
O 	O 	0.22433 0.66995 0.60173 -0.48800
O 	O 	0.23090 0.35124 0.91842 -0.49500
O 	O 	0.27410 0.66932 0.60691 -0.48200
O 	O 	0.28066 0.35559 0.92330 -0.47500
N 	N 	0.17294 0.74090 0.46000 -0.26700
C 	C 	0.27969 0.53060 0.84790 0.04800
C 	C 	0.25355 0.42830 0.74310 0.04400
C 	C 	0.25347 0.46460 0.83800 -0.13500
C 	C 	0.25070 0.58720 0.71590 -0.13700
C 	C 	0.25246 0.49310 0.67920 0.04600
C 	C 	0.22367 0.58840 0.77330 0.04900
C 	C 	0.22532 0.52300 0.83970 0.04500
C 	C 	0.20347 0.51860 0.90000 -0.08100
H 	H 	0.20460 0.47470 0.94570 0.07100
C 	C 	0.27796 0.59700 0.78320 0.04800
C 	C 	0.25390 0.38160 0.56640 -0.02500
H 	H 	0.25420 0.36560 0.50510 0.04100
C 	C 	0.25483 0.34020 0.71940 -0.07500
H 	H 	0.25570 0.29540 0.76430 0.06300
C 	C 	0.30232 0.53260 0.91530 -0.08300
H 	H 	0.30380 0.48670 0.95910 0.07700
C 	C 	0.25480 0.31670 0.63080 -0.02500
H 	H 	0.25540 0.25560 0.61420 0.04100
C 	C 	0.29852 0.66520 0.78790 -0.08100
H 	H 	0.29730 0.71110 0.74400 0.07200
C 	C 	0.32088 0.66730 0.85560 -0.02200
H 	H 	0.33510 0.71480 0.85880 0.03700
C 	C 	0.24957 0.64920 0.63580 0.42400
C 	C 	0.25516 0.38480 0.90000 0.41900
C 	C 	0.32294 0.60150 0.91900 -0.02300
H 	H 	0.33860 0.60330 0.96570 0.03800
C 	C 	0.20007 0.64790 0.76820 -0.08600
H 	H 	0.19900 0.69290 0.72360 0.07600
C 	C 	0.16424 0.70240 0.38170 0.10000
H 	H 	0.17900 0.67130 0.35050 -0.00500
C 	C 	0.25261 0.46980 0.59040 -0.07600
H 	H 	0.25180 0.51460 0.54560 0.06300
C 	C 	0.17790 0.64200 0.82810 -0.02200
H 	H 	0.16130 0.68210 0.82370 0.03600
C 	C 	0.13534 0.70570 0.34480 -0.17800
H 	H 	0.13010 0.67840 0.28860 0.09100
C 	C 	0.17971 0.57860 0.89380 -0.02600
H 	H 	0.16450 0.57570 0.93550 0.03800
C 	C 	0.12253 0.78830 0.47130 -0.18100
H 	H 	0.10810 0.81860 0.50420 0.09300
C 	C 	0.15209 0.78300 0.50370 0.10800
H 	H 	0.15800 0.81030 0.55940 -0.01300
C 	C 	0.08344 0.75400 0.35220 -0.08600
C 	C 	0.05888 0.75410 0.31950 0.03100
C 	C 	0.02780 0.75390 0.28170 -0.03800
C 	C 	0.02319 0.70670 0.19240 0.01800
C 	C 	0.00674 0.70630 0.34210 0.01700
C 	C 	0.11386 0.74910 0.39010 0.13500
C 	C 	0.02958 0.92400 0.28460 -0.06700
H 	H 	0.05000 0.92360 0.30860 0.05600
C 	C 	0.04485 0.66740 0.14510 -0.06700
H 	H 	0.06550 0.66900 0.16700 0.05400
C 	C 	0.03653 0.62530 0.06540 -0.02700
H 	H 	0.05160 0.59700 0.03330 0.03700
C 	C 	0.00704 0.62330 0.03140 -0.03300
H 	H 	0.00160 0.59400 0.97640 0.04000
C 	C 	0.01496 0.00330 0.26740 -0.02900
H 	H 	0.02520 0.05800 0.27930 0.03800
C 	C 	0.01474 0.66520 0.42110 -0.06400
H 	H 	0.03530 0.66500 0.44390 0.05500
C 	C 	0.01492 0.84710 0.26740 0.01900
Zn	Zn	0.71687 0.24944 0.49564 1.22400
O 	O 	0.72433 0.16995 0.60173 -0.48800
O 	O 	0.73090 0.85124 0.91842 -0.49500
O 	O 	0.77410 0.16932 0.60691 -0.48200
O 	O 	0.78066 0.85559 0.92330 -0.47500
N 	N 	0.67294 0.24090 0.46000 -0.26700
C 	C 	0.77969 0.03060 0.84790 0.04800
C 	C 	0.75355 0.92830 0.74310 0.04400
C 	C 	0.75347 0.96460 0.83800 -0.13500
C 	C 	0.75070 0.08720 0.71590 -0.13700
C 	C 	0.75246 0.99310 0.67920 0.04600
C 	C 	0.72367 0.08840 0.77330 0.04900
C 	C 	0.72532 0.02300 0.83970 0.04500
C 	C 	0.70347 0.01860 0.90000 -0.08100
H 	H 	0.70460 0.97470 0.94570 0.07100
C 	C 	0.77796 0.09700 0.78320 0.04800
C 	C 	0.75390 0.88160 0.56640 -0.02500
H 	H 	0.75420 0.86560 0.50510 0.04100
C 	C 	0.75483 0.84020 0.71940 -0.07600
H 	H 	0.75570 0.79540 0.76430 0.06300
C 	C 	0.80232 0.03260 0.91530 -0.08300
H 	H 	0.80380 0.98670 0.95910 0.07600
C 	C 	0.75480 0.81670 0.63080 -0.02500
H 	H 	0.75540 0.75560 0.61420 0.04100
C 	C 	0.79852 0.16520 0.78790 -0.08100
H 	H 	0.79730 0.21110 0.74400 0.07200
C 	C 	0.82088 0.16730 0.85560 -0.02200
H 	H 	0.83510 0.21480 0.85880 0.03700
C 	C 	0.74957 0.14920 0.63580 0.42400
C 	C 	0.75516 0.88480 0.90000 0.41900
C 	C 	0.82294 0.10150 0.91900 -0.02400
H 	H 	0.83860 0.10330 0.96570 0.03800
C 	C 	0.70007 0.14790 0.76820 -0.08600
H 	H 	0.69900 0.19290 0.72360 0.07600
C 	C 	0.66424 0.20240 0.38170 0.10000
H 	H 	0.67900 0.17130 0.35050 -0.00500
C 	C 	0.75261 0.96980 0.59040 -0.07600
H 	H 	0.75180 0.01460 0.54560 0.06300
C 	C 	0.67790 0.14200 0.82810 -0.02200
H 	H 	0.66130 0.18210 0.82370 0.03600
C 	C 	0.63534 0.20570 0.34480 -0.17800
H 	H 	0.63010 0.17840 0.28860 0.09100
C 	C 	0.67971 0.07860 0.89380 -0.02600
H 	H 	0.66450 0.07570 0.93550 0.03800
C 	C 	0.62253 0.28830 0.47130 -0.18100
H 	H 	0.60810 0.31860 0.50420 0.09300
C 	C 	0.65209 0.28300 0.50370 0.10800
H 	H 	0.65800 0.31030 0.55940 -0.01300
C 	C 	0.58344 0.25400 0.35220 -0.08600
C 	C 	0.55888 0.25410 0.31950 0.03100
C 	C 	0.52780 0.25390 0.28170 -0.03900
C 	C 	0.52319 0.20670 0.19240 0.01900
C 	C 	0.50674 0.20630 0.34210 0.01800
C 	C 	0.61386 0.24910 0.39010 0.13500
C 	C 	0.52958 0.42400 0.28460 -0.06700
H 	H 	0.55000 0.42360 0.30860 0.05600
C 	C 	0.54485 0.16740 0.14510 -0.06700
H 	H 	0.56550 0.16900 0.16700 0.05400
C 	C 	0.53653 0.12530 0.06540 -0.02700
H 	H 	0.55160 0.09700 0.03330 0.03700
C 	C 	0.50704 0.12330 0.03140 -0.03300
H 	H 	0.50160 0.09400 0.97640 0.04000
C 	C 	0.51496 0.50330 0.26740 -0.02800
H 	H 	0.52520 0.55800 0.27930 0.03800
C 	C 	0.51474 0.16520 0.42110 -0.06400
H 	H 	0.53530 0.16500 0.44390 0.05500
C 	C 	0.51492 0.34710 0.26740 0.01900
