data_crystal

_cell_length_a 12.33410
_cell_length_b 10.82630
_cell_length_c 18.20360
_cell_angle_alpha 90.00000
_cell_angle_beta  93.48800
_cell_angle_gamma 90.00000

_symmetry_space_group_name_	'P 1'
_symmetry_space_group_name_H-M	'P 1'

loop_
_symmetry_equiv_pos_as_xyz
  x,y,z

loop_
_atom_site_label
_atom_site_type_symbol
_atom_site_fract_x
_atom_site_fract_y
_atom_site_fract_z
_atom_site_charge
Zn	Zn	0.80114 0.22506 0.28207 1.25100
Zn	Zn	0.11281 0.09754 0.71765 1.21000
O 	O 	0.56530 0.38390 0.31630 -0.46200
C 	C 	0.13200 0.03970 0.46920 0.07700
H 	H 	0.13120 0.95880 0.44910 0.01900
O 	O 	0.67490 0.22860 0.35296 -0.42600
C 	C 	0.06230 0.12840 0.43919 -0.21800
O 	O 	0.42354 0.29020 0.69445 -0.45200
H 	H 	0.48050 0.33240 0.69280 0.22200
C 	C 	0.20430 0.18170 0.56053 0.01600
O 	O 	0.21486 0.22137 0.69040 -0.56300
C 	C 	0.20380 0.06830 0.52900 -0.13600
H 	H 	0.25320 0.00710 0.54800 0.06200
O 	O 	0.98954 0.99470 0.34646 -0.55900
O 	O 	0.91120 0.17940 0.36196 -0.48100
O 	O 	0.85340 0.40970 0.30188 -0.44000
C 	C 	0.13080 0.26740 0.53380 -0.15400
H 	H 	0.12750 0.34560 0.55730 0.08200
C 	C 	0.06040 0.24210 0.47270 0.08900
H 	H 	0.01100 0.30360 0.45420 0.00700
O 	O 	0.73433 0.53522 0.24058 -0.60000
C 	C 	0.35880 0.30310 0.62510 0.47600
H 	H 	0.31760 0.38260 0.62560 -0.09300
C 	C 	0.27870 0.19510 0.62970 -0.19000
H 	H 	0.31990 0.11650 0.63920 0.06400
C 	C 	0.42350 0.29900 0.55760 -0.49000
C 	C 	0.39420 0.37710 0.49950 1.74000
H 	H 	0.33480 0.43210 0.50350 -0.56900
C 	C 	0.44960 0.37640 0.43610 0.93100
H 	H 	0.42810 0.43070 0.39690 -0.30200
C 	C 	0.53590 0.29740 0.42920 -0.04000
C 	C 	0.56600 0.21840 0.48560 -0.02400
H 	H 	0.62520 0.16330 0.48100 0.00600
C 	C 	0.50950 0.21880 0.55030 0.23000
H 	H 	0.53050 0.16370 0.58920 0.00300
C 	C 	0.82480 0.50990 0.27503 0.43900
H 	H 	0.87570 0.57560 0.28060 -0.16000
C 	C 	0.59770 0.30060 0.36079 0.30300
C 	C 	0.98130 0.09920 0.37723 0.52700
C 	C 	0.38110 0.21190 0.63300 -0.58800
H 	H 	0.38560 0.12250 0.64650 0.17400
C 	C 	0.26250 0.25590 0.62650 0.30300
H 	H 	0.25760 0.34710 0.61830 -0.07800
C 	C 	0.44030 0.23780 0.56310 0.97300
C 	C 	0.43590 0.35290 0.52920 -1.30200
H 	H 	0.39840 0.41910 0.55070 0.20000
C 	C 	0.48620 0.37110 0.46380 -1.29500
H 	H 	0.48320 0.44970 0.44060 0.22400
C 	C 	0.54110 0.27420 0.43240 0.18100
C 	C 	0.54560 0.15920 0.46630 0.23800
H 	H 	0.58310 0.09300 0.44480 -0.05900
C 	C 	0.49520 0.14100 0.53170 -0.82500
H 	H 	0.49830 0.06240 0.55490 0.29200
Zn	Zn	0.69886 0.72506 0.21793 1.24200
Zn	Zn	0.38719 0.59754 0.78235 1.23900
O 	O 	0.93470 0.88390 0.18370 -0.20800
C 	C 	0.36800 0.53970 0.03080 -0.27800
H 	H 	0.36880 0.45880 0.05090 0.15500
O 	O 	0.82510 0.72860 0.14704 -0.24600
C 	C 	0.43770 0.62840 0.06081 0.01300
O 	O 	0.07646 0.79020 0.80555 -0.03500
H 	H 	0.01950 0.83240 0.80720 0.17000
C 	C 	0.29570 0.68170 0.93947 -0.42700
O 	O 	0.28514 0.72137 0.80960 -0.71400
C 	C 	0.29620 0.56830 0.97100 0.16700
H 	H 	0.24680 0.50710 0.95200 -0.03800
O 	O 	0.51046 0.49470 0.15354 -0.47400
O 	O 	0.58880 0.67940 0.13804 -0.42700
O 	O 	0.64660 0.90970 0.19812 -0.49100
C 	C 	0.36920 0.76740 0.96620 0.04100
H 	H 	0.37250 0.84560 0.94270 0.09000
C 	C 	0.43960 0.74210 0.02730 -0.23300
H 	H 	0.48900 0.80360 0.04580 0.13700
O 	O 	0.76567 0.03522 0.25942 -0.59600
C 	C 	0.14120 0.80310 0.87490 3.97100
H 	H 	0.18240 0.88260 0.87440 -0.83800
C 	C 	0.22130 0.69510 0.87030 -2.37800
H 	H 	0.18010 0.61650 0.86080 0.80900
C 	C 	0.07650 0.79900 0.94240 -4.38300
C 	C 	0.10580 0.87710 0.00050 17.47200
H 	H 	0.16520 0.93210 0.99650 -5.76600
C 	C 	0.05040 0.87640 0.06390 8.48900
H 	H 	0.07190 0.93070 0.10310 -2.99300
C 	C 	0.96410 0.79740 0.07080 -0.04700
C 	C 	0.93400 0.71840 0.01440 -1.35700
H 	H 	0.87480 0.66330 0.01900 -0.08600
C 	C 	0.99050 0.71880 0.94970 0.89300
H 	H 	0.96950 0.66370 0.91080 -0.06800
C 	C 	0.67520 0.00990 0.22497 0.66000
H 	H 	0.62430 0.07560 0.21940 -0.17000
C 	C 	0.90230 0.80060 0.13921 -0.40600
C 	C 	0.51870 0.59920 0.12277 0.34200
C 	C 	0.11890 0.71190 0.86700 -5.95300
H 	H 	0.11440 0.62250 0.85350 1.51700
C 	C 	0.23750 0.75590 0.87350 3.17600
H 	H 	0.24240 0.84710 0.88170 -1.05300
C 	C 	0.05970 0.73780 0.93690 10.10200
C 	C 	0.06410 0.85290 0.97080 -12.91600
H 	H 	0.10160 0.91910 0.94930 1.72800
C 	C 	0.01380 0.87110 0.03620 -11.94700
H 	H 	0.01680 0.94970 0.05940 1.85900
C 	C 	0.95890 0.77420 0.06760 2.29300
C 	C 	0.95440 0.65920 0.03370 3.61500
H 	H 	0.91690 0.59300 0.05520 -1.28700
C 	C 	0.00480 0.64100 0.96830 -6.26300
H 	H 	0.00170 0.56240 0.94510 2.06800
Zn	Zn	0.19886 0.77494 0.71793 1.25000
Zn	Zn	0.88719 0.90246 0.28235 1.20900
O 	O 	0.43470 0.61610 0.68370 -0.46300
C 	C 	0.86800 0.96030 0.53080 0.07600
H 	H 	0.86880 0.04120 0.55090 0.01800
O 	O 	0.32510 0.77140 0.64704 -0.42700
C 	C 	0.93770 0.87160 0.56081 -0.21800
O 	O 	0.57646 0.70980 0.30555 -0.45200
H 	H 	0.51950 0.66760 0.30720 0.22200
C 	C 	0.79570 0.81830 0.43947 0.01600
O 	O 	0.78514 0.77863 0.30960 -0.56300
C 	C 	0.79620 0.93170 0.47100 -0.13600
H 	H 	0.74680 0.99290 0.45200 0.06200
O 	O 	0.01046 0.00530 0.65354 -0.55900
O 	O 	0.08880 0.82060 0.63804 -0.48100
O 	O 	0.14660 0.59030 0.69812 -0.44000
C 	C 	0.86920 0.73260 0.46620 -0.15400
H 	H 	0.87250 0.65440 0.44270 0.08200
C 	C 	0.93960 0.75790 0.52730 0.08900
H 	H 	0.98900 0.69640 0.54580 0.00700
O 	O 	0.26567 0.46478 0.75942 -0.60000
C 	C 	0.64120 0.69690 0.37490 0.47600
H 	H 	0.68240 0.61740 0.37440 -0.09300
C 	C 	0.72130 0.80490 0.37030 -0.19000
H 	H 	0.68010 0.88350 0.36080 0.06400
C 	C 	0.57650 0.70100 0.44240 -0.49000
C 	C 	0.60580 0.62290 0.50050 1.74000
H 	H 	0.66520 0.56790 0.49650 -0.56900
C 	C 	0.55040 0.62360 0.56390 0.93100
H 	H 	0.57190 0.56930 0.60310 -0.30200
C 	C 	0.46410 0.70260 0.57080 -0.04000
C 	C 	0.43400 0.78160 0.51440 -0.02400
H 	H 	0.37480 0.83670 0.51900 0.00600
C 	C 	0.49050 0.78120 0.44970 0.23000
H 	H 	0.46950 0.83630 0.41080 0.00300
C 	C 	0.17520 0.49010 0.72497 0.43900
H 	H 	0.12430 0.42440 0.71940 -0.16000
C 	C 	0.40230 0.69940 0.63921 0.30300
C 	C 	0.01870 0.90080 0.62277 0.52700
C 	C 	0.61890 0.78810 0.36700 -0.58800
H 	H 	0.61440 0.87750 0.35350 0.17400
C 	C 	0.73750 0.74410 0.37350 0.30300
H 	H 	0.74240 0.65290 0.38170 -0.07800
C 	C 	0.55970 0.76220 0.43690 0.97300
C 	C 	0.56410 0.64710 0.47080 -1.30200
H 	H 	0.60160 0.58090 0.44930 0.20000
C 	C 	0.51380 0.62890 0.53620 -1.29500
H 	H 	0.51680 0.55030 0.55940 0.22400
C 	C 	0.45890 0.72580 0.56760 0.18100
C 	C 	0.45440 0.84080 0.53370 0.23800
H 	H 	0.41690 0.90700 0.55520 -0.05900
C 	C 	0.50480 0.85900 0.46830 -0.82500
H 	H 	0.50170 0.93760 0.44510 0.29200
Zn	Zn	0.30114 0.27494 0.78207 1.24200
Zn	Zn	0.61281 0.40246 0.21765 1.23900
O 	O 	0.06530 0.11610 0.81630 -0.20800
C 	C 	0.63200 0.46030 0.96920 -0.27800
H 	H 	0.63120 0.54120 0.94910 0.15500
O 	O 	0.17490 0.27140 0.85296 -0.24600
C 	C 	0.56230 0.37160 0.93919 0.01300
O 	O 	0.92354 0.20980 0.19445 -0.03500
H 	H 	0.98050 0.16760 0.19280 0.17000
C 	C 	0.70430 0.31830 0.06053 -0.42700
O 	O 	0.71486 0.27863 0.19040 -0.71400
C 	C 	0.70380 0.43170 0.02900 0.16700
H 	H 	0.75320 0.49290 0.04800 -0.03800
O 	O 	0.48954 0.50530 0.84646 -0.47400
O 	O 	0.41120 0.32060 0.86196 -0.42700
O 	O 	0.35340 0.09030 0.80188 -0.49100
C 	C 	0.63080 0.23260 0.03380 0.04100
H 	H 	0.62750 0.15440 0.05730 0.09000
C 	C 	0.56040 0.25790 0.97270 -0.23300
H 	H 	0.51100 0.19640 0.95420 0.13700
O 	O 	0.23433 0.96478 0.74058 -0.59600
C 	C 	0.85880 0.19690 0.12510 3.97100
H 	H 	0.81760 0.11740 0.12560 -0.83800
C 	C 	0.77870 0.30490 0.12970 -2.37800
H 	H 	0.81990 0.38350 0.13920 0.80900
C 	C 	0.92350 0.20100 0.05760 -4.38300
C 	C 	0.89420 0.12290 0.99950 17.47200
H 	H 	0.83480 0.06790 0.00350 -5.76600
C 	C 	0.94960 0.12360 0.93610 8.48900
H 	H 	0.92810 0.06930 0.89690 -2.99300
C 	C 	0.03590 0.20260 0.92920 -0.04700
C 	C 	0.06600 0.28160 0.98560 -1.35700
H 	H 	0.12520 0.33670 0.98100 -0.08600
C 	C 	0.00950 0.28120 0.05030 0.89300
H 	H 	0.03050 0.33630 0.08920 -0.06800
C 	C 	0.32480 0.99010 0.77503 0.66000
H 	H 	0.37570 0.92440 0.78060 -0.17000
C 	C 	0.09770 0.19940 0.86079 -0.40600
C 	C 	0.48130 0.40080 0.87723 0.34200
C 	C 	0.88110 0.28810 0.13300 -5.95300
H 	H 	0.88560 0.37750 0.14650 1.51700
C 	C 	0.76250 0.24410 0.12650 3.17600
H 	H 	0.75760 0.15290 0.11830 -1.05300
C 	C 	0.94030 0.26220 0.06310 10.10200
C 	C 	0.93590 0.14710 0.02920 -12.91600
H 	H 	0.89840 0.08090 0.05070 1.72800
C 	C 	0.98620 0.12890 0.96380 -11.94700
H 	H 	0.98320 0.05030 0.94060 1.85900
C 	C 	0.04110 0.22580 0.93240 2.29300
C 	C 	0.04560 0.34080 0.96630 3.61500
H 	H 	0.08310 0.40700 0.94480 -1.28700
C 	C 	0.99520 0.35900 0.03170 -6.26300
H 	H 	0.99830 0.43760 0.05490 2.06800
