data_crystal

_cell_length_a 13.79800
_cell_length_b 16.60500
_cell_length_c 24.13300
_cell_angle_alpha 106.90600
_cell_angle_beta  99.46900
_cell_angle_gamma 90.18400

_symmetry_space_group_name_	'P 1'
_symmetry_space_group_name_H-M	'P 1'

loop_
_symmetry_equiv_pos_as_xyz
  x,y,z

loop_
_atom_site_label
_atom_site_type_symbol
_atom_site_fract_x
_atom_site_fract_y
_atom_site_fract_z
_atom_site_charge
Zn	Zn	0.66300 0.44539 0.43435 1.21700
Zn	Zn	0.63571 0.40278 0.30556 1.21900
Zn	Zn	0.16525 0.95509 0.43131 1.21900
Zn	Zn	0.13232 0.88977 0.30129 1.21600
O 	O 	0.74287 0.34211 0.40893 -0.46800
O 	O 	0.72299 0.30756 0.31092 -0.45600
O 	O 	0.54268 0.36385 0.41584 -0.45400
O 	O 	0.52318 0.33383 0.31831 -0.46400
O 	O 	0.56067 0.50769 0.33146 -0.47400
O 	O 	0.57230 0.53995 0.42898 -0.45300
O 	O 	0.77031 0.51685 0.41944 -0.46300
O 	O 	0.75694 0.48025 0.32161 -0.45600
O 	O 	0.27308 0.87387 0.41859 -0.46400
O 	O 	0.25567 0.83098 0.32006 -0.46100
O 	O 	0.03949 0.01028 0.40986 -0.45400
O 	O 	0.02070 0.97037 0.31120 -0.45300
O 	O 	0.22886 0.02681 0.38843 -0.48000
O 	O 	0.21315 0.98628 0.29055 -0.43500
O 	O 	0.08036 0.86196 0.44360 -0.42900
O 	O 	0.06538 0.82092 0.34562 -0.47900
N 	N 	0.21188 0.03491 0.51285 -0.25700
N 	N 	0.59348 0.37308 0.21739 -0.25700
N 	N 	0.07530 0.81208 0.21996 -0.25700
N 	N 	0.70187 0.46668 0.52269 -0.25300
C 	C 	0.75680 0.29693 0.35978 0.38400
C 	C 	0.81860 0.22255 0.35914 -0.08000
C 	C 	0.85170 0.20342 0.41107 -0.00800
H 	H 	0.83420 0.23710 0.44680 0.05100
C 	C 	0.90990 0.13568 0.41124 -0.02400
H 	H 	0.93220 0.12290 0.44690 0.06000
C 	C 	0.93550 0.08638 0.35884 -0.07500
C 	C 	0.90130 0.10450 0.30659 -0.01700
H 	H 	0.91800 0.07040 0.27080 0.04700
C 	C 	0.84280 0.17230 0.30649 -0.01300
H 	H 	0.81940 0.18450 0.27070 0.05000
C 	C 	0.00360 0.01661 0.35996 0.37000
C 	C 	0.50430 0.32247 0.36440 0.37800
C 	C 	0.42960 0.25256 0.35761 -0.08000
C 	C 	0.39460 0.19680 0.30240 -0.01400
H 	H 	0.41340 0.20620 0.26850 0.04800
C 	C 	0.33260 0.12790 0.29622 -0.01600
H 	H 	0.30940 0.09000 0.25830 0.05000
C 	C 	0.30450 0.11439 0.34552 -0.07500
C 	C 	0.33560 0.17240 0.40043 -0.01500
H 	H 	0.31370 0.16490 0.43410 0.05000
C 	C 	0.39790 0.24050 0.40631 -0.01400
H 	H 	0.41920 0.27950 0.44400 0.05100
C 	C 	0.24420 0.03674 0.34100 0.37000
C 	C 	0.54440 0.55289 0.38015 0.38000
C 	C 	0.48440 0.62800 0.37925 -0.07800
C 	C 	0.44560 0.67175 0.42840 -0.01500
H 	H 	0.46060 0.65660 0.46380 0.05300
C 	C 	0.38520 0.73715 0.42579 -0.01600
H 	H 	0.35830 0.76660 0.45930 0.05200
C 	C 	0.36340 0.76029 0.37407 -0.07900
C 	C 	0.40390 0.71761 0.32531 -0.01700
H 	H 	0.39010 0.73350 0.29020 0.04700
C 	C 	0.46420 0.65196 0.32794 -0.01600
H 	H 	0.49200 0.62310 0.29460 0.04800
C 	C 	0.79090 0.52590 0.37273 0.37900
C 	C 	0.86110 0.59821 0.37853 -0.08200
C 	C 	0.89190 0.60880 0.32956 -0.01000
H 	H 	0.87080 0.56890 0.29220 0.04300
C 	C 	0.95370 0.67750 0.33455 -0.02400
H 	H 	0.97500 0.68420 0.30060 0.05000
C 	C 	0.98450 0.73642 0.38871 -0.07300
C 	C 	0.95470 0.72510 0.43788 -0.01900
H 	H 	0.97630 0.76460 0.47530 0.05200
C 	C 	0.89320 0.65610 0.43283 -0.01000
H 	H 	0.87300 0.64860 0.46690 0.05100
C 	C 	0.04850 0.81195 0.39297 0.36100
C 	C 	0.29230 0.82774 0.37082 0.37800
C 	C 	0.11080 0.74160 0.19368 0.10800
H 	H 	0.16880 0.72480 0.21360 -0.00900
C 	C 	0.07020 0.68940 0.13896 -0.16800
H 	H 	0.10100 0.63930 0.12190 0.09400
C 	C 	0.98620 0.70990 0.10961 0.10300
C 	C 	0.93290 0.76860 0.14200 -0.01500
H 	H 	0.86590 0.77500 0.12780 0.04000
C 	C 	0.98010 0.81880 0.19660 -0.02000
H 	H 	0.94350 0.86050 0.21910 0.02900
C 	C 	0.94270 0.66320 0.05045 -0.06800
C 	C 	0.90820 0.63180 0.00004 0.01700
C 	C 	0.87520 0.60200 0.93629 -0.03200
C 	C 	0.95920 0.56870 0.90331 0.01600
C 	C 	0.93120 0.54280 0.84232 0.00800
C 	C 	0.82220 0.55210 0.82184 -0.02900
C 	C 	0.80240 0.64450 0.85012 0.01500
C 	C 	0.75880 0.69950 0.82120 -0.06500
H 	H 	0.74060 0.68220 0.77960 0.05900
C 	C 	0.74220 0.78020 0.85402 -0.02700
H 	H 	0.71280 0.81850 0.83460 0.04000
C 	C 	0.76790 0.80590 0.91482 -0.03100
H 	H 	0.75440 0.86100 0.93670 0.03800
C 	C 	0.81320 0.75140 0.94373 -0.06300
H 	H 	0.83240 0.76930 0.98530 0.05300
C 	C 	0.82990 0.67100 0.91134 0.01500
C 	C 	0.79580 0.52980 0.91468 0.01300
C 	C 	0.76790 0.50290 0.85344 0.01200
C 	C 	0.69620 0.43860 0.82691 -0.06400
H 	H 	0.67740 0.42020 0.78530 0.05700
C 	C 	0.65220 0.40160 0.86160 -0.03100
H 	H 	0.60340 0.35700 0.84370 0.04600
C 	C 	0.67870 0.42880 0.92208 -0.03000
H 	H 	0.64720 0.40340 0.94540 0.04000
C 	C 	0.75120 0.49310 0.94920 -0.06800
H 	H 	0.76960 0.51140 0.99080 0.05300
C 	C 	0.79360 0.52550 0.75786 0.02100
C 	C 	0.77460 0.50780 0.70584 -0.06400
C 	C 	0.75070 0.49280 0.64331 0.11600
C 	C 	0.67350 0.53290 0.62007 -0.15200
H 	H 	0.63630 0.57010 0.64530 0.09300
C 	C 	0.65100 0.51830 0.55980 0.08800
H 	H 	0.59770 0.54590 0.54430 0.00500
C 	C 	0.77710 0.42760 0.54509 0.08800
H 	H 	0.81330 0.39090 0.51890 0.00200
C 	C 	0.80360 0.43890 0.60474 -0.15400
H 	H 	0.85710 0.41040 0.61920 0.09100
C 	C 	0.30470 0.06920 0.52913 0.09000
H 	H 	0.34630 0.05960 0.50040 -0.00300
C 	C 	0.34180 0.11760 0.58593 -0.15700
H 	H 	0.40710 0.14210 0.59580 0.09200
C 	C 	0.28140 0.12990 0.62839 0.11600
C 	C 	0.18440 0.09840 0.61082 -0.15400
H 	H 	0.14030 0.10860 0.63820 0.09400
C 	C 	0.15290 0.05187 0.55288 0.09200
H 	H 	0.08620 0.03110 0.54100 0.00500
C 	C 	0.31950 0.16870 0.68973 -0.06600
C 	C 	0.35010 0.19090 0.74111 0.02200
C 	C 	0.38480 0.21470 0.80480 -0.03200
C 	C 	0.49290 0.19810 0.82140 0.01600
C 	C 	0.55750 0.16430 0.78354 -0.06500
H 	H 	0.53600 0.14930 0.74220 0.06000
C 	C 	0.65400 0.15260 0.80625 -0.02600
H 	H 	0.69810 0.12880 0.78030 0.04300
C 	C 	0.68620 0.17530 0.86668 -0.03400
H 	H 	0.75230 0.16760 0.88190 0.04100
C 	C 	0.62160 0.20940 0.90497 -0.06200
H 	H 	0.64360 0.22500 0.94630 0.05100
C 	C 	0.52570 0.22060 0.88271 0.01300
C 	C 	0.44500 0.25620 0.91823 -0.03200
C 	C 	0.36150 0.18720 0.89638 0.01500
C 	C 	0.32940 0.16460 0.83552 0.01700
C 	C 	0.25840 0.09960 0.80887 -0.06700
H 	H 	0.23610 0.08400 0.76760 0.06000
C 	C 	0.22010 0.05750 0.84302 -0.02900
H 	H 	0.17180 0.01260 0.82480 0.03900
C 	C 	0.25140 0.08000 0.90327 -0.03400
H 	H 	0.22420 0.05100 0.92620 0.03800
C 	C 	0.32250 0.14510 0.93020 -0.06500
H 	H 	0.34430 0.16070 0.97150 0.05500
C 	C 	0.40820 0.33040 0.89659 0.01400
C 	C 	0.37660 0.30870 0.83585 0.01500
C 	C 	0.34640 0.36940 0.80911 -0.06700
H 	H 	0.32510 0.35440 0.76780 0.05800
C 	C 	0.34750 0.45280 0.84348 -0.03000
H 	H 	0.32760 0.49530 0.82550 0.04000
C 	C 	0.37770 0.47420 0.90411 -0.03200
H 	H 	0.37750 0.53120 0.92730 0.03800
C 	C 	0.40790 0.41320 0.93095 -0.06500
H 	H 	0.42810 0.42790 0.97240 0.05400
C 	C 	0.47700 0.27970 0.98189 0.02100
C 	C 	0.50180 0.29980 0.03376 -0.07400
C 	C 	0.53240 0.32470 0.09657 0.11800
C 	C 	0.62490 0.30590 0.12074 -0.16400
H 	H 	0.66840 0.27620 0.09620 0.08500
C 	C 	0.65240 0.33100 0.18112 0.08900
H 	H 	0.71550 0.31800 0.19760 -0.00600
C 	C 	0.50460 0.39120 0.19382 0.09600
H 	H 	0.46260 0.42110 0.21930 -0.00400
C 	C 	0.47150 0.36810 0.13395 -0.16500
H 	H 	0.40790 0.38170 0.11860 0.09500
C 	C 	0.04970 0.54660 0.92870 -0.04800
H 	H 	0.06630 0.55880 0.97010 0.04100
C 	C 	0.11570 0.50650 0.89280 -0.02300
H 	H 	0.17970 0.49630 0.91000 0.03200
C 	C 	0.08770 0.48150 0.83180 -0.01500
H 	H 	0.13320 0.45490 0.80750 0.02900
C 	C 	0.99370 0.49510 0.80630 -0.02900
H 	H 	0.97500 0.47700 0.76000 0.02400
C 	C 	0.97450 0.80310 0.12850 -0.12800
H 	H 	0.93520 0.82930 0.10320 0.07000
C 	C 	0.02220 0.85050 0.18370 0.07100
H 	H 	0.01760 0.90990 0.19590 -0.00700
C 	C 	0.06270 0.59160 0.92800 -0.02100
H 	H 	0.08240 0.62110 0.96850 0.03000
C 	C 	0.13160 0.56950 0.89140 -0.02100
H 	H 	0.19930 0.57250 0.90810 0.02800
C 	C 	0.10430 0.54350 0.83160 -0.04100
H 	H 	0.15310 0.53110 0.80720 0.03800
C 	C 	0.00430 0.53520 0.80610 -0.01600
H 	H 	0.98550 0.52460 0.76490 0.03100
Zn	Zn	0.33700 0.55461 0.56565 1.21600
Zn	Zn	0.36429 0.59722 0.69444 1.21800
Zn	Zn	0.83475 0.04491 0.56869 1.21900
Zn	Zn	0.86768 0.11023 0.69871 1.21600
O 	O 	0.25713 0.65789 0.59107 -0.46800
O 	O 	0.27701 0.69244 0.68908 -0.45600
O 	O 	0.45732 0.63615 0.58416 -0.45400
O 	O 	0.47682 0.66617 0.68169 -0.46400
O 	O 	0.43933 0.49231 0.66854 -0.47400
O 	O 	0.42770 0.46005 0.57102 -0.45300
O 	O 	0.22969 0.48315 0.58056 -0.46300
O 	O 	0.24306 0.51975 0.67839 -0.45600
O 	O 	0.72692 0.12613 0.58141 -0.46400
O 	O 	0.74433 0.16902 0.67994 -0.46100
O 	O 	0.96051 0.98972 0.59014 -0.45400
O 	O 	0.97930 0.02963 0.68880 -0.45300
O 	O 	0.77114 0.97319 0.61157 -0.48000
O 	O 	0.78685 0.01372 0.70945 -0.43500
O 	O 	0.91964 0.13804 0.55640 -0.42900
O 	O 	0.93462 0.17908 0.65438 -0.47900
N 	N 	0.78812 0.96509 0.48715 -0.25700
N 	N 	0.40652 0.62692 0.78261 -0.25700
N 	N 	0.92470 0.18792 0.78004 -0.25700
N 	N 	0.29813 0.53332 0.47731 -0.25300
C 	C 	0.24320 0.70307 0.64022 0.38400
C 	C 	0.18140 0.77745 0.64086 -0.08000
C 	C 	0.14830 0.79658 0.58893 -0.00800
H 	H 	0.16580 0.76290 0.55320 0.05100
C 	C 	0.09010 0.86432 0.58876 -0.02400
H 	H 	0.06780 0.87710 0.55310 0.06000
C 	C 	0.06450 0.91362 0.64116 -0.07500
C 	C 	0.09870 0.89550 0.69341 -0.01700
H 	H 	0.08200 0.92960 0.72920 0.04700
C 	C 	0.15720 0.82770 0.69351 -0.01300
H 	H 	0.18060 0.81550 0.72930 0.05000
C 	C 	0.99640 0.98339 0.64004 0.37000
C 	C 	0.49570 0.67753 0.63560 0.37800
C 	C 	0.57040 0.74744 0.64239 -0.08000
C 	C 	0.60540 0.80320 0.69760 -0.01400
H 	H 	0.58660 0.79380 0.73150 0.04800
C 	C 	0.66740 0.87210 0.70378 -0.01600
H 	H 	0.69060 0.91000 0.74170 0.05000
C 	C 	0.69550 0.88561 0.65448 -0.07500
C 	C 	0.66440 0.82760 0.59957 -0.01500
H 	H 	0.68630 0.83510 0.56590 0.05000
C 	C 	0.60210 0.75950 0.59369 -0.01400
H 	H 	0.58080 0.72050 0.55600 0.05100
C 	C 	0.75580 0.96326 0.65900 0.37000
C 	C 	0.45560 0.44711 0.61985 0.38000
C 	C 	0.51560 0.37200 0.62075 -0.07800
C 	C 	0.55440 0.32825 0.57160 -0.01500
H 	H 	0.53940 0.34340 0.53620 0.05300
C 	C 	0.61480 0.26285 0.57421 -0.01600
H 	H 	0.64170 0.23340 0.54070 0.05200
C 	C 	0.63660 0.23971 0.62593 -0.07900
C 	C 	0.59610 0.28239 0.67469 -0.01700
H 	H 	0.60990 0.26650 0.70980 0.04700
C 	C 	0.53580 0.34804 0.67206 -0.01600
H 	H 	0.50800 0.37690 0.70540 0.04800
C 	C 	0.20910 0.47410 0.62727 0.37900
C 	C 	0.13890 0.40179 0.62147 -0.08200
C 	C 	0.10810 0.39120 0.67044 -0.01000
H 	H 	0.12920 0.43110 0.70780 0.04300
C 	C 	0.04630 0.32250 0.66545 -0.02400
H 	H 	0.02500 0.31580 0.69940 0.05000
C 	C 	0.01550 0.26358 0.61129 -0.07300
C 	C 	0.04530 0.27490 0.56212 -0.01900
H 	H 	0.02370 0.23540 0.52470 0.05200
C 	C 	0.10680 0.34390 0.56717 -0.01000
H 	H 	0.12700 0.35140 0.53310 0.05100
C 	C 	0.95150 0.18805 0.60703 0.36100
C 	C 	0.70770 0.17226 0.62918 0.37800
C 	C 	0.88920 0.25840 0.80632 0.10800
H 	H 	0.83120 0.27520 0.78640 -0.00900
C 	C 	0.92980 0.31060 0.86104 -0.16800
H 	H 	0.89900 0.36070 0.87810 0.09400
C 	C 	0.01380 0.29010 0.89039 0.10300
C 	C 	0.06710 0.23140 0.85800 -0.01500
H 	H 	0.13410 0.22500 0.87220 0.04000
C 	C 	0.01990 0.18120 0.80340 -0.02000
H 	H 	0.05650 0.13950 0.78090 0.02900
C 	C 	0.05730 0.33680 0.94955 -0.06800
C 	C 	0.09180 0.36820 0.99996 0.01700
C 	C 	0.12480 0.39800 0.06371 -0.03200
C 	C 	0.04080 0.43130 0.09669 0.01600
C 	C 	0.06880 0.45720 0.15768 0.00800
C 	C 	0.17780 0.44790 0.17816 -0.02900
C 	C 	0.19760 0.35550 0.14988 0.01500
C 	C 	0.24120 0.30050 0.17880 -0.06500
H 	H 	0.25940 0.31780 0.22040 0.05900
C 	C 	0.25780 0.21980 0.14598 -0.02700
H 	H 	0.28720 0.18150 0.16540 0.04000
C 	C 	0.23210 0.19410 0.08518 -0.03100
H 	H 	0.24560 0.13900 0.06330 0.03800
C 	C 	0.18680 0.24860 0.05627 -0.06300
H 	H 	0.16760 0.23070 0.01470 0.05300
C 	C 	0.17010 0.32900 0.08866 0.01500
C 	C 	0.20420 0.47020 0.08532 0.01300
C 	C 	0.23210 0.49710 0.14656 0.01200
C 	C 	0.30380 0.56140 0.17309 -0.06400
H 	H 	0.32260 0.57980 0.21470 0.05700
C 	C 	0.34780 0.59840 0.13840 -0.03100
H 	H 	0.39660 0.64300 0.15630 0.04600
C 	C 	0.32130 0.57120 0.07792 -0.03000
H 	H 	0.35280 0.59660 0.05460 0.04000
C 	C 	0.24880 0.50690 0.05080 -0.06800
H 	H 	0.23040 0.48860 0.00920 0.05300
C 	C 	0.20640 0.47450 0.24214 0.02100
C 	C 	0.22540 0.49220 0.29416 -0.06400
C 	C 	0.24930 0.50720 0.35669 0.11600
C 	C 	0.32650 0.46710 0.37993 -0.15200
H 	H 	0.36370 0.42990 0.35470 0.09300
C 	C 	0.34900 0.48170 0.44020 0.08800
H 	H 	0.40230 0.45410 0.45570 0.00500
C 	C 	0.22290 0.57240 0.45491 0.08800
H 	H 	0.18670 0.60910 0.48110 0.00200
C 	C 	0.19640 0.56110 0.39526 -0.15400
H 	H 	0.14290 0.58960 0.38080 0.09100
C 	C 	0.69530 0.93080 0.47087 0.09000
H 	H 	0.65370 0.94040 0.49960 -0.00300
C 	C 	0.65820 0.88240 0.41407 -0.15700
H 	H 	0.59290 0.85790 0.40420 0.09200
C 	C 	0.71860 0.87010 0.37161 0.11600
C 	C 	0.81560 0.90160 0.38918 -0.15400
H 	H 	0.85970 0.89140 0.36180 0.09400
C 	C 	0.84710 0.94813 0.44712 0.09200
H 	H 	0.91380 0.96890 0.45900 0.00500
C 	C 	0.68050 0.83130 0.31027 -0.06600
C 	C 	0.64990 0.80910 0.25889 0.02200
C 	C 	0.61520 0.78530 0.19520 -0.03200
C 	C 	0.50710 0.80190 0.17860 0.01600
C 	C 	0.44250 0.83570 0.21646 -0.06500
H 	H 	0.46400 0.85070 0.25780 0.06000
C 	C 	0.34600 0.84740 0.19375 -0.02600
H 	H 	0.30190 0.87120 0.21970 0.04300
C 	C 	0.31380 0.82470 0.13332 -0.03400
H 	H 	0.24770 0.83240 0.11810 0.04100
C 	C 	0.37840 0.79060 0.09503 -0.06200
H 	H 	0.35640 0.77500 0.05370 0.05100
C 	C 	0.47430 0.77940 0.11729 0.01300
C 	C 	0.55500 0.74380 0.08177 -0.03200
C 	C 	0.63850 0.81280 0.10362 0.01500
C 	C 	0.67060 0.83540 0.16448 0.01700
C 	C 	0.74160 0.90040 0.19113 -0.06700
H 	H 	0.76390 0.91600 0.23240 0.06000
C 	C 	0.77990 0.94250 0.15698 -0.02900
H 	H 	0.82820 0.98740 0.17520 0.03900
C 	C 	0.74860 0.92000 0.09673 -0.03400
H 	H 	0.77580 0.94900 0.07380 0.03800
C 	C 	0.67750 0.85490 0.06980 -0.06500
H 	H 	0.65570 0.83930 0.02850 0.05500
C 	C 	0.59180 0.66960 0.10341 0.01400
C 	C 	0.62340 0.69130 0.16415 0.01500
C 	C 	0.65360 0.63060 0.19089 -0.06700
H 	H 	0.67490 0.64560 0.23220 0.05800
C 	C 	0.65250 0.54720 0.15652 -0.03000
H 	H 	0.67240 0.50470 0.17450 0.04000
C 	C 	0.62230 0.52580 0.09589 -0.03200
H 	H 	0.62250 0.46880 0.07270 0.03800
C 	C 	0.59210 0.58680 0.06905 -0.06500
H 	H 	0.57190 0.57210 0.02760 0.05400
C 	C 	0.52300 0.72030 0.01811 0.02100
C 	C 	0.49820 0.70020 0.96624 -0.07400
C 	C 	0.46760 0.67530 0.90343 0.11800
C 	C 	0.37510 0.69410 0.87926 -0.16400
H 	H 	0.33160 0.72380 0.90380 0.08500
C 	C 	0.34760 0.66900 0.81888 0.08900
H 	H 	0.28450 0.68200 0.80240 -0.00600
C 	C 	0.49540 0.60880 0.80618 0.09600
H 	H 	0.53740 0.57890 0.78070 -0.00400
C 	C 	0.52850 0.63190 0.86605 -0.16500
H 	H 	0.59210 0.61830 0.88140 0.09500
C 	C 	0.95030 0.45340 0.07130 -0.04800
H 	H 	0.93370 0.44120 0.02990 0.04100
C 	C 	0.88430 0.49350 0.10720 -0.02300
H 	H 	0.82030 0.50370 0.09000 0.03200
C 	C 	0.91230 0.51850 0.16820 -0.01500
H 	H 	0.86680 0.54510 0.19250 0.02900
C 	C 	0.00630 0.50490 0.19370 -0.02900
H 	H 	0.02500 0.52300 0.24000 0.02400
C 	C 	0.02550 0.19690 0.87150 -0.12800
H 	H 	0.06480 0.17070 0.89680 0.07000
C 	C 	0.97780 0.14950 0.81630 0.07100
H 	H 	0.98240 0.09010 0.80410 -0.00700
C 	C 	0.93730 0.40840 0.07200 -0.02100
H 	H 	0.91760 0.37890 0.03150 0.03000
C 	C 	0.86840 0.43050 0.10860 -0.02100
H 	H 	0.80070 0.42750 0.09190 0.02800
C 	C 	0.89570 0.45650 0.16840 -0.04100
H 	H 	0.84690 0.46890 0.19280 0.03800
C 	C 	0.99570 0.46480 0.19390 -0.01600
H 	H 	0.01450 0.47540 0.23510 0.03100
