data_crystal

_cell_length_a 12.11170
_cell_length_b 11.14190
_cell_length_c 18.74200
_cell_angle_alpha 90.00000
_cell_angle_beta  93.47200
_cell_angle_gamma 90.00000

_symmetry_space_group_name_	'P 1'
_symmetry_space_group_name_H-M	'P 1'

loop_
_symmetry_equiv_pos_as_xyz
  x,y,z

loop_
_atom_site_label
_atom_site_type_symbol
_atom_site_fract_x
_atom_site_fract_y
_atom_site_fract_z
_atom_site_charge
Mn	Mn	0.09829 0.11129 0.71531 1.27100
O 	O 	0.22170 0.22422 0.68924 -0.53300
Mn	Mn	0.81143 0.22075 0.28293 1.31100
O 	O 	0.43734 0.28780 0.69294 -0.46900
H 	H 	0.48540 0.34230 0.69620 0.21700
O 	O 	0.93890 0.17540 0.35671 -0.47900
C 	C 	0.21500 0.18090 0.56359 0.01700
O 	O 	0.00156 0.98810 0.35605 -0.50400
C 	C 	0.21010 0.06730 0.53820 -0.12200
H 	H 	0.25470 0.00710 0.56130 0.06400
O 	O 	0.56950 0.36000 0.32126 -0.49900
C 	C 	0.14100 0.03650 0.47880 0.05400
H 	H 	0.13810 0.95570 0.46260 0.02000
O 	O 	0.68310 0.21190 0.35734 -0.45300
C 	C 	0.07690 0.12290 0.44348 -0.15200
O 	O 	0.72365 0.52766 0.24323 -0.58900
C 	C 	0.07800 0.23690 0.47180 0.05300
H 	H 	0.03230 0.29740 0.44980 0.02500
O 	O 	0.84775 0.41019 0.30432 -0.46500
C 	C 	0.14540 0.26430 0.53220 -0.12200
H 	H 	0.14290 0.34260 0.55210 0.06700
C 	C 	0.99960 0.09290 0.38030 0.43300
C 	C 	0.60460 0.28340 0.36540 0.36500
C 	C 	0.81600 0.50670 0.27746 0.48100
H 	H 	0.86580 0.57240 0.28290 -0.15100
C 	C 	0.28900 0.19690 0.63182 0.00500
H 	H 	0.33080 0.12100 0.64260 0.00600
C 	C 	0.37090 0.30110 0.62587 0.16500
H 	H 	0.33000 0.37900 0.62600 -0.03100
C 	C 	0.43760 0.29470 0.56046 -0.13700
C 	C 	0.40760 0.36850 0.50330 0.36900
H 	H 	0.34840 0.42370 0.50700 -0.10600
C 	C 	0.46290 0.36310 0.44080 0.17400
H 	H 	0.44080 0.41430 0.40200 -0.03500
C 	C 	0.54960 0.28420 0.43400 -0.03300
C 	C 	0.57960 0.20970 0.49090 -0.04400
H 	H 	0.63890 0.15480 0.48700 0.03600
C 	C 	0.52360 0.21410 0.55420 0.10400
H 	H 	0.54470 0.16190 0.59280 0.01500
C 	C 	0.27060 0.25250 0.62710 0.07100
H 	H 	0.26710 0.34080 0.61770 -0.00300
C 	C 	0.45090 0.23160 0.56570 0.23100
C 	C 	0.44750 0.34450 0.53420 -0.30900
H 	H 	0.41350 0.40960 0.55720 0.08400
C 	C 	0.49390 0.36240 0.46890 -0.29000
H 	H 	0.49150 0.43960 0.44740 0.07200
C 	C 	0.54360 0.26720 0.43520 -0.01700
C 	C 	0.54700 0.15420 0.46680 0.10100
H 	H 	0.58100 0.08920 0.44370 -0.01200
C 	C 	0.50070 0.13640 0.53200 -0.31200
H 	H 	0.50300 0.05920 0.55350 0.12700
C 	C 	0.39050 0.20840 0.63350 -0.14800
H 	H 	0.39460 0.12180 0.64750 0.07200
Mn	Mn	0.40171 0.61129 0.78469 1.27300
O 	O 	0.27830 0.72422 0.81076 -0.53300
Mn	Mn	0.68857 0.72075 0.21707 1.31100
O 	O 	0.06266 0.78780 0.80706 -0.46700
H 	H 	0.01460 0.84230 0.80380 0.21800
O 	O 	0.56110 0.67540 0.14329 -0.47800
C 	C 	0.28500 0.68090 0.93641 0.02000
O 	O 	0.49844 0.48810 0.14395 -0.50700
C 	C 	0.28990 0.56730 0.96180 -0.12800
H 	H 	0.24530 0.50710 0.93870 0.06600
O 	O 	0.93050 0.86000 0.17874 -0.50000
C 	C 	0.35900 0.53650 0.02120 0.06400
H 	H 	0.36190 0.45570 0.03740 0.01600
O 	O 	0.81690 0.71190 0.14266 -0.45300
C 	C 	0.42310 0.62290 0.05652 -0.15500
O 	O 	0.77635 0.02766 0.25677 -0.58900
C 	C 	0.42200 0.73690 0.02820 0.05800
H 	H 	0.46770 0.79740 0.05020 0.02400
O 	O 	0.65225 0.91019 0.19568 -0.46600
C 	C 	0.35460 0.76430 0.96780 -0.12700
H 	H 	0.35710 0.84260 0.94790 0.06900
C 	C 	0.50040 0.59290 0.11970 0.43400
C 	C 	0.89540 0.78340 0.13460 0.36500
C 	C 	0.68400 0.00670 0.22254 0.48300
H 	H 	0.63420 0.07240 0.21710 -0.15100
C 	C 	0.21100 0.69690 0.86818 -0.00500
H 	H 	0.16920 0.62100 0.85740 0.01000
C 	C 	0.12910 0.80110 0.87413 0.18400
H 	H 	0.17000 0.87900 0.87400 -0.03500
C 	C 	0.06240 0.79470 0.93954 -0.16100
C 	C 	0.09240 0.86850 0.99670 0.42600
H 	H 	0.15160 0.92370 0.99300 -0.12500
C 	C 	0.03710 0.86310 0.05920 0.19600
H 	H 	0.05920 0.91430 0.09800 -0.04100
C 	C 	0.95040 0.78420 0.06600 -0.03600
C 	C 	0.92040 0.70970 0.00910 -0.05200
H 	H 	0.86110 0.65480 0.01300 0.03600
C 	C 	0.97640 0.71410 0.94580 0.10800
H 	H 	0.95530 0.66190 0.90720 0.01300
C 	C 	0.22940 0.75250 0.87290 0.08200
H 	H 	0.23290 0.84080 0.88230 -0.00700
C 	C 	0.04910 0.73160 0.93430 0.27100
C 	C 	0.05250 0.84450 0.96580 -0.35000
H 	H 	0.08650 0.90960 0.94280 0.09200
C 	C 	0.00610 0.86240 0.03110 -0.31800
H 	H 	0.00850 0.93960 0.05260 0.07700
C 	C 	0.95640 0.76720 0.06480 -0.01400
C 	C 	0.95300 0.65420 0.03320 0.11800
H 	H 	0.91900 0.58920 0.05630 -0.01900
C 	C 	0.99930 0.63640 0.96800 -0.33600
H 	H 	0.99700 0.55920 0.94650 0.13600
C 	C 	0.10950 0.70840 0.86650 -0.17200
H 	H 	0.10540 0.62180 0.85250 0.07700
Mn	Mn	0.90171 0.88871 0.28469 1.27200
O 	O 	0.77830 0.77578 0.31076 -0.53200
Mn	Mn	0.18857 0.77925 0.71707 1.31200
O 	O 	0.56266 0.71220 0.30706 -0.46800
H 	H 	0.51460 0.65770 0.30380 0.21800
O 	O 	0.06110 0.82460 0.64329 -0.47800
C 	C 	0.78500 0.81910 0.43641 0.01700
O 	O 	0.99844 0.01190 0.64395 -0.50400
C 	C 	0.78990 0.93270 0.46180 -0.12200
H 	H 	0.74530 0.99290 0.43870 0.06400
O 	O 	0.43050 0.64000 0.67874 -0.49900
C 	C 	0.85900 0.96350 0.52120 0.05400
H 	H 	0.86190 0.04430 0.53740 0.02000
O 	O 	0.31690 0.78810 0.64266 -0.45300
C 	C 	0.92310 0.87710 0.55652 -0.15200
O 	O 	0.27635 0.47234 0.75677 -0.58900
C 	C 	0.92200 0.76310 0.52820 0.05300
H 	H 	0.96770 0.70260 0.55020 0.02500
O 	O 	0.15225 0.58981 0.69568 -0.46500
C 	C 	0.85460 0.73570 0.46780 -0.12200
H 	H 	0.85710 0.65740 0.44790 0.06700
C 	C 	0.00040 0.90710 0.61970 0.43300
C 	C 	0.39540 0.71660 0.63460 0.36500
C 	C 	0.18400 0.49330 0.72254 0.48100
H 	H 	0.13420 0.42760 0.71710 -0.15100
C 	C 	0.71100 0.80310 0.36818 0.00500
H 	H 	0.66920 0.87900 0.35740 0.00600
C 	C 	0.62910 0.69890 0.37413 0.16500
H 	H 	0.67000 0.62100 0.37400 -0.03100
C 	C 	0.56240 0.70530 0.43954 -0.13700
C 	C 	0.59240 0.63150 0.49670 0.36900
H 	H 	0.65160 0.57630 0.49300 -0.10600
C 	C 	0.53710 0.63690 0.55920 0.17400
H 	H 	0.55920 0.58570 0.59800 -0.03500
C 	C 	0.45040 0.71580 0.56600 -0.03300
C 	C 	0.42040 0.79030 0.50910 -0.04400
H 	H 	0.36110 0.84520 0.51300 0.03600
C 	C 	0.47640 0.78590 0.44580 0.10400
H 	H 	0.45530 0.83810 0.40720 0.01500
C 	C 	0.72940 0.74750 0.37290 0.07100
H 	H 	0.73290 0.65920 0.38230 -0.00300
C 	C 	0.54910 0.76840 0.43430 0.23100
C 	C 	0.55250 0.65550 0.46580 -0.30900
H 	H 	0.58650 0.59040 0.44280 0.08400
C 	C 	0.50610 0.63760 0.53110 -0.29000
H 	H 	0.50850 0.56040 0.55260 0.07200
C 	C 	0.45640 0.73280 0.56480 -0.01700
C 	C 	0.45300 0.84580 0.53320 0.10100
H 	H 	0.41900 0.91080 0.55630 -0.01200
C 	C 	0.49930 0.86360 0.46800 -0.31200
H 	H 	0.49700 0.94080 0.44650 0.12700
C 	C 	0.60950 0.79160 0.36650 -0.14800
H 	H 	0.60540 0.87820 0.35250 0.07200
Mn	Mn	0.59829 0.38871 0.21531 1.27300
O 	O 	0.72170 0.27578 0.18924 -0.53300
Mn	Mn	0.31143 0.27925 0.78293 1.31100
O 	O 	0.93734 0.21220 0.19294 -0.46700
H 	H 	0.98540 0.15770 0.19620 0.21800
O 	O 	0.43890 0.32460 0.85671 -0.47800
C 	C 	0.71500 0.31910 0.06359 0.02000
O 	O 	0.50156 0.51190 0.85605 -0.50700
C 	C 	0.71010 0.43270 0.03820 -0.12800
H 	H 	0.75470 0.49290 0.06130 0.06600
O 	O 	0.06950 0.14000 0.82126 -0.50000
C 	C 	0.64100 0.46350 0.97880 0.06400
H 	H 	0.63810 0.54430 0.96260 0.01600
O 	O 	0.18310 0.28810 0.85734 -0.45300
C 	C 	0.57690 0.37710 0.94348 -0.15500
O 	O 	0.22365 0.97234 0.74323 -0.58900
C 	C 	0.57800 0.26310 0.97180 0.05800
H 	H 	0.53230 0.20260 0.94980 0.02400
O 	O 	0.34775 0.08981 0.80432 -0.46600
C 	C 	0.64540 0.23570 0.03220 -0.12700
H 	H 	0.64290 0.15740 0.05210 0.06900
C 	C 	0.49960 0.40710 0.88030 0.43400
C 	C 	0.10460 0.21660 0.86540 0.36500
C 	C 	0.31600 0.99330 0.77746 0.48300
H 	H 	0.36580 0.92760 0.78290 -0.15100
C 	C 	0.78900 0.30310 0.13182 -0.00500
H 	H 	0.83080 0.37900 0.14260 0.01000
C 	C 	0.87090 0.19890 0.12587 0.18400
H 	H 	0.83000 0.12100 0.12600 -0.03500
C 	C 	0.93760 0.20530 0.06046 -0.16100
C 	C 	0.90760 0.13150 0.00330 0.42600
H 	H 	0.84840 0.07630 0.00700 -0.12500
C 	C 	0.96290 0.13690 0.94080 0.19600
H 	H 	0.94080 0.08570 0.90200 -0.04100
C 	C 	0.04960 0.21580 0.93400 -0.03600
C 	C 	0.07960 0.29030 0.99090 -0.05200
H 	H 	0.13890 0.34520 0.98700 0.03600
C 	C 	0.02360 0.28590 0.05420 0.10800
H 	H 	0.04470 0.33810 0.09280 0.01300
C 	C 	0.77060 0.24750 0.12710 0.08200
H 	H 	0.76710 0.15920 0.11770 -0.00700
C 	C 	0.95090 0.26840 0.06570 0.27100
C 	C 	0.94750 0.15550 0.03420 -0.35000
H 	H 	0.91350 0.09040 0.05720 0.09200
C 	C 	0.99390 0.13760 0.96890 -0.31800
H 	H 	0.99150 0.06040 0.94740 0.07700
C 	C 	0.04360 0.23280 0.93520 -0.01400
C 	C 	0.04700 0.34580 0.96680 0.11800
H 	H 	0.08100 0.41080 0.94370 -0.01900
C 	C 	0.00070 0.36360 0.03200 -0.33600
H 	H 	0.00300 0.44080 0.05350 0.13600
C 	C 	0.89050 0.29160 0.13350 -0.17200
H 	H 	0.89460 0.37820 0.14750 0.07700
