data_crystal

_cell_length_a 9.67110
_cell_length_b 11.78490
_cell_length_c 14.38630
_cell_angle_alpha 90.00000
_cell_angle_beta  122.27600
_cell_angle_gamma 90.00000

_symmetry_space_group_name_	'P 1'
_symmetry_space_group_name_H-M	'P 1'

loop_
_symmetry_equiv_pos_as_xyz
  x,y,z

loop_
_atom_site_label
_atom_site_type_symbol
_atom_site_fract_x
_atom_site_fract_y
_atom_site_fract_z
_atom_site_charge
Sm	Sm	0.61680 0.98358 0.33036 2.08100
O 	O 	0.70360 0.78320 0.34350 -0.39300
O 	O 	0.61560 0.60450 0.30140 -0.39600
O 	O 	0.30630 0.67990 0.17320 -0.40500
O 	O 	0.39780 0.85760 0.20470 -0.41800
O 	O 	0.51720 0.88170 0.43430 -0.39300
O 	O 	0.46700 0.89190 0.56760 -0.38800
O 	O 	0.89120 0.98470 0.35720 -0.39200
O 	O 	0.15850 0.01240 0.47720 -0.39600
C 	C 	0.59580 0.70950 0.29490 0.26700
C 	C 	0.41720 0.75360 0.21730 0.28300
C 	C 	0.49500 0.93480 0.50040 0.27900
C 	C 	0.01680 0.99990 0.45410 0.27100
Sm	Sm	0.38320 0.48358 0.16964 2.08100
O 	O 	0.29640 0.28320 0.15650 -0.39100
O 	O 	0.38440 0.10450 0.19860 -0.39400
O 	O 	0.69370 0.17990 0.32680 -0.40500
O 	O 	0.60220 0.35760 0.29530 -0.41700
O 	O 	0.48280 0.38170 0.06570 -0.39200
O 	O 	0.53300 0.39190 0.93240 -0.38800
O 	O 	0.10880 0.48470 0.14280 -0.39300
O 	O 	0.84150 0.51240 0.02280 -0.39900
C 	C 	0.40420 0.20950 0.20510 0.26600
C 	C 	0.58280 0.25360 0.28270 0.28300
C 	C 	0.50500 0.43480 0.99960 0.27700
C 	C 	0.98320 0.49990 0.04590 0.27100
Sm	Sm	0.38320 0.01642 0.66964 2.08200
O 	O 	0.29640 0.21680 0.65650 -0.39200
O 	O 	0.38440 0.39550 0.69860 -0.39600
O 	O 	0.69370 0.32010 0.82680 -0.40500
O 	O 	0.60220 0.14240 0.79530 -0.41800
O 	O 	0.48280 0.11830 0.56570 -0.39300
O 	O 	0.53300 0.10810 0.43240 -0.38800
O 	O 	0.10880 0.01530 0.64280 -0.39200
O 	O 	0.84150 0.98760 0.52280 -0.39600
C 	C 	0.40420 0.29050 0.70510 0.26700
C 	C 	0.58280 0.24640 0.78270 0.28300
C 	C 	0.50500 0.06520 0.49960 0.27900
C 	C 	0.98320 0.00010 0.54590 0.27100
Sm	Sm	0.61680 0.51642 0.83036 2.08100
O 	O 	0.70360 0.71680 0.84350 -0.39100
O 	O 	0.61560 0.89550 0.80140 -0.39400
O 	O 	0.30630 0.82010 0.67320 -0.40500
O 	O 	0.39780 0.64240 0.70470 -0.41700
O 	O 	0.51720 0.61830 0.93430 -0.39200
O 	O 	0.46700 0.60810 0.06760 -0.38800
O 	O 	0.89120 0.51530 0.85720 -0.39300
O 	O 	0.15850 0.48760 0.97720 -0.39900
C 	C 	0.59580 0.79050 0.79490 0.26600
C 	C 	0.41720 0.74640 0.71730 0.28300
C 	C 	0.49500 0.56520 0.00040 0.27700
C 	C 	0.01680 0.50010 0.95410 0.27100
