data_crystal

_cell_length_a 9.60080
_cell_length_b 11.54220
_cell_length_c 14.28860
_cell_angle_alpha 90.00000
_cell_angle_beta  122.46000
_cell_angle_gamma 90.00000

_symmetry_space_group_name_	'P 1'
_symmetry_space_group_name_H-M	'P 1'

loop_
_symmetry_equiv_pos_as_xyz
  x,y,z

loop_
_atom_site_label
_atom_site_type_symbol
_atom_site_fract_x
_atom_site_fract_y
_atom_site_fract_z
_atom_site_charge
Y 	Y 	0.61770 0.98846 0.33257 2.38300
O 	O 	0.70490 0.78990 0.34286 -0.42400
O 	O 	0.61670 0.60733 0.29500 -0.42200
O 	O 	0.30540 0.68334 0.17013 -0.44000
O 	O 	0.39590 0.86535 0.20743 -0.44300
O 	O 	0.51980 0.88268 0.43190 -0.42500
O 	O 	0.46130 0.88762 0.56330 -0.40800
O 	O 	0.88920 0.99123 0.35640 -0.42600
O 	O 	0.16110 0.01036 0.47848 -0.43300
C 	C 	0.59600 0.71480 0.29190 0.24200
C 	C 	0.41630 0.75870 0.21660 0.26300
C 	C 	0.49470 0.93350 0.49840 0.26400
C 	C 	0.01510 0.00050 0.45240 0.26700
Y 	Y 	0.38230 0.48846 0.16743 2.38400
O 	O 	0.29510 0.28990 0.15714 -0.42200
O 	O 	0.38330 0.10733 0.20500 -0.42000
O 	O 	0.69460 0.18334 0.32987 -0.43900
O 	O 	0.60410 0.36535 0.29257 -0.44300
O 	O 	0.48020 0.38268 0.06810 -0.42500
O 	O 	0.53870 0.38762 0.93670 -0.41000
O 	O 	0.11080 0.49123 0.14360 -0.42500
O 	O 	0.83890 0.51036 0.02152 -0.43400
C 	C 	0.40400 0.21480 0.20810 0.24200
C 	C 	0.58370 0.25870 0.28340 0.26400
C 	C 	0.50530 0.43350 0.00160 0.26300
C 	C 	0.98490 0.50050 0.04760 0.26600
Y 	Y 	0.38230 0.01154 0.66743 2.38400
O 	O 	0.29510 0.21010 0.65714 -0.42300
O 	O 	0.38330 0.39267 0.70500 -0.42200
O 	O 	0.69460 0.31666 0.82987 -0.44000
O 	O 	0.60410 0.13465 0.79257 -0.44300
O 	O 	0.48020 0.11732 0.56810 -0.42500
O 	O 	0.53870 0.11238 0.43670 -0.40800
O 	O 	0.11080 0.00877 0.64360 -0.42600
O 	O 	0.83890 0.98964 0.52152 -0.43300
C 	C 	0.40400 0.28520 0.70810 0.24200
C 	C 	0.58370 0.24130 0.78340 0.26300
C 	C 	0.50530 0.06650 0.50160 0.26400
C 	C 	0.98490 0.99950 0.54760 0.26700
Y 	Y 	0.61770 0.51154 0.83257 2.38400
O 	O 	0.70490 0.71010 0.84286 -0.42200
O 	O 	0.61670 0.89267 0.79500 -0.42000
O 	O 	0.30540 0.81666 0.67013 -0.43900
O 	O 	0.39590 0.63465 0.70743 -0.44300
O 	O 	0.51980 0.61732 0.93190 -0.42500
O 	O 	0.46130 0.61238 0.06330 -0.41000
O 	O 	0.88920 0.50877 0.85640 -0.42500
O 	O 	0.16110 0.48964 0.97848 -0.43400
C 	C 	0.59600 0.78520 0.79190 0.24200
C 	C 	0.41630 0.74130 0.71660 0.26400
C 	C 	0.49470 0.56650 0.99840 0.26300
C 	C 	0.01510 0.49950 0.95240 0.26600
