data_crystal

_cell_length_a 12.79750
_cell_length_b 10.21820
_cell_length_c 14.83050
_cell_angle_alpha 90.00000
_cell_angle_beta  90.00000
_cell_angle_gamma 90.00000

_symmetry_space_group_name_	'P 1'
_symmetry_space_group_name_H-M	'P 1'

loop_
_symmetry_equiv_pos_as_xyz
  x,y,z

loop_
_atom_site_label
_atom_site_type_symbol
_atom_site_fract_x
_atom_site_fract_y
_atom_site_fract_z
_atom_site_charge
Zn	Zn	0.66160 0.49641 0.06242 1.23100
P 	P 	0.43009 0.52847 0.13144 0.44300
H 	H 	0.40180 0.59300 0.20430 -0.03900
P 	P 	0.70418 0.21315 0.15150 0.44400
H 	H 	0.77460 0.17700 0.21040 -0.03800
O 	O 	0.53785 0.58014 0.10865 -0.46700
O 	O 	0.71788 0.35834 0.13768 -0.44700
O 	O 	0.34910 0.56400 0.06068 -0.43400
O 	O 	0.72734 0.13215 0.06693 -0.40000
O 	O 	0.42937 0.38440 0.15436 -0.47700
O 	O 	0.59834 0.17500 0.18961 -0.42500
Zn	Zn	0.83840 0.00359 0.56242 1.23700
P 	P 	0.06991 0.97153 0.63144 0.35300
H 	H 	0.09820 0.90700 0.70430 -0.04600
P 	P 	0.79582 0.28685 0.65150 0.44400
H 	H 	0.72540 0.32300 0.71040 -0.04100
O 	O 	0.96215 0.91986 0.60865 -0.37100
O 	O 	0.78212 0.14166 0.63768 -0.44600
O 	O 	0.15090 0.93600 0.56068 -0.43200
O 	O 	0.77266 0.36785 0.56693 -0.39000
O 	O 	0.07063 0.11560 0.65436 -0.50200
O 	O 	0.90166 0.32500 0.68961 -0.36900
Zn	Zn	0.33840 0.49641 0.43758 1.23100
P 	P 	0.56991 0.52847 0.36856 0.44400
H 	H 	0.59820 0.59300 0.29570 -0.03400
P 	P 	0.29582 0.21315 0.34850 0.44300
H 	H 	0.22540 0.17700 0.28960 -0.05100
O 	O 	0.46215 0.58014 0.39135 -0.46600
O 	O 	0.28212 0.35834 0.36232 -0.46600
O 	O 	0.65090 0.56400 0.43932 -0.42000
O 	O 	0.27266 0.13215 0.43307 -0.40900
O 	O 	0.57063 0.38440 0.34564 -0.47200
O 	O 	0.40166 0.17500 0.31039 -0.42500
Zn	Zn	0.16160 0.00359 0.93758 1.22500
P 	P 	0.93009 0.97153 0.86856 0.54000
H 	H 	0.90180 0.90700 0.79570 -0.02300
P 	P 	0.20418 0.28685 0.84850 0.44300
H 	H 	0.27460 0.32300 0.78960 -0.04700
O 	O 	0.03785 0.91986 0.89135 -0.55700
O 	O 	0.21788 0.14166 0.86232 -0.46600
O 	O 	0.84910 0.93600 0.93932 -0.41500
O 	O 	0.22734 0.36785 0.93307 -0.42100
O 	O 	0.92937 0.11560 0.84564 -0.43600
O 	O 	0.09834 0.32500 0.81039 -0.46700
Zn	Zn	0.33840 0.50359 0.93758 1.23100
P 	P 	0.56991 0.47153 0.86856 0.44400
H 	H 	0.59820 0.40700 0.79570 -0.03400
P 	P 	0.29582 0.78685 0.84850 0.44300
H 	H 	0.22540 0.82300 0.78960 -0.05100
O 	O 	0.46215 0.41986 0.89135 -0.46600
O 	O 	0.28212 0.64166 0.86232 -0.46500
O 	O 	0.65090 0.43600 0.93932 -0.41800
O 	O 	0.27266 0.86785 0.93307 -0.40600
O 	O 	0.57063 0.61560 0.84564 -0.47100
O 	O 	0.40166 0.82500 0.81039 -0.42400
Zn	Zn	0.16160 0.99641 0.43758 1.22700
P 	P 	0.93009 0.02847 0.36856 0.53700
H 	H 	0.90180 0.09300 0.29570 -0.02400
P 	P 	0.20418 0.71315 0.34850 0.44300
H 	H 	0.27460 0.67700 0.28960 -0.04700
O 	O 	0.03785 0.08014 0.39135 -0.55700
O 	O 	0.21788 0.85834 0.36232 -0.46500
O 	O 	0.84910 0.06400 0.43932 -0.42000
O 	O 	0.22734 0.63215 0.43307 -0.42100
O 	O 	0.92937 0.88440 0.34564 -0.43500
O 	O 	0.09834 0.67500 0.31039 -0.46600
Zn	Zn	0.66160 0.50359 0.56242 1.23300
P 	P 	0.43009 0.47153 0.63144 0.44400
H 	H 	0.40180 0.40700 0.70430 -0.03700
P 	P 	0.70418 0.78685 0.65150 0.44500
H 	H 	0.77460 0.82300 0.71040 -0.03700
O 	O 	0.53785 0.41986 0.60865 -0.46500
O 	O 	0.71788 0.64166 0.63768 -0.44600
O 	O 	0.34910 0.43600 0.56068 -0.43300
O 	O 	0.72734 0.86785 0.56693 -0.40100
O 	O 	0.42937 0.61560 0.65436 -0.47700
O 	O 	0.59834 0.82500 0.68961 -0.42500
Zn	Zn	0.83840 0.99641 0.06242 1.23300
P 	P 	0.06991 0.02847 0.13144 0.35900
H 	H 	0.09820 0.09300 0.20430 -0.04600
P 	P 	0.79582 0.71315 0.15150 0.44400
H 	H 	0.72540 0.67700 0.21040 -0.04200
O 	O 	0.96215 0.08014 0.10865 -0.37400
O 	O 	0.78212 0.85834 0.13768 -0.44800
O 	O 	0.15090 0.06400 0.06068 -0.43000
O 	O 	0.77266 0.63215 0.06693 -0.39300
O 	O 	0.07063 0.88440 0.15436 -0.50500
O 	O 	0.90166 0.67500 0.18961 -0.37200
Zn	Zn	0.50000 0.29115 0.25000 1.22900
Zn	Zn	-0.00000 0.20885 0.75000 1.19000
Zn	Zn	0.50000 0.70885 0.75000 1.22900
Zn	Zn	0.00000 0.79115 0.25000 1.19100
