data_crystal

_cell_length_a 15.67020
_cell_length_b 15.67020
_cell_length_c 15.67020
_cell_angle_alpha 90.00000
_cell_angle_beta  90.00000
_cell_angle_gamma 90.00000

_symmetry_space_group_name_	'P 1'
_symmetry_space_group_name_H-M	'P 1'

loop_
_symmetry_equiv_pos_as_xyz
  x,y,z

loop_
_atom_site_label
_atom_site_type_symbol
_atom_site_fract_x
_atom_site_fract_y
_atom_site_fract_z
_atom_site_charge
N 	N 	0.41220 0.82100 0.19450 -0.24300
C 	C 	0.39150 0.90200 0.21760 0.07700
N 	N 	0.08780 0.67900 0.19450 -0.25000
C 	C 	0.10850 0.59800 0.21760 0.03800
N 	N 	0.08780 0.82100 0.30550 -0.24900
C 	C 	0.10850 0.90200 0.28240 0.05100
N 	N 	0.41220 0.67900 0.30550 -0.24100
C 	C 	0.39150 0.59800 0.28240 0.06200
N 	N 	0.19450 0.41220 0.82100 -0.24300
C 	C 	0.21760 0.39150 0.90200 0.07700
N 	N 	0.19450 0.08780 0.67900 -0.25000
C 	C 	0.21760 0.10850 0.59800 0.03800
N 	N 	0.30550 0.08780 0.82100 -0.24900
C 	C 	0.28240 0.10850 0.90200 0.05100
N 	N 	0.30550 0.41220 0.67900 -0.24100
C 	C 	0.28240 0.39150 0.59800 0.06200
N 	N 	0.82100 0.19450 0.41220 -0.24300
C 	C 	0.90200 0.21760 0.39150 0.07700
N 	N 	0.67900 0.19450 0.08780 -0.25000
C 	C 	0.59800 0.21760 0.10850 0.03800
N 	N 	0.82100 0.30550 0.08780 -0.24900
C 	C 	0.90200 0.28240 0.10850 0.05100
N 	N 	0.67900 0.30550 0.41220 -0.24100
C 	C 	0.59800 0.28240 0.39150 0.06200
N 	N 	0.32100 0.91220 0.80550 -0.22500
C 	C 	0.40200 0.89150 0.78240 0.09800
N 	N 	0.17900 0.58780 0.80550 -0.24100
C 	C 	0.09800 0.60850 0.78240 0.05800
N 	N 	0.32100 0.58780 0.69450 -0.24300
C 	C 	0.40200 0.60850 0.71760 0.07200
N 	N 	0.17900 0.91220 0.69450 -0.22600
C 	C 	0.09800 0.89150 0.71760 0.08600
N 	N 	0.91220 0.69450 0.17900 -0.22600
C 	C 	0.89150 0.71760 0.09800 0.08600
N 	N 	0.58780 0.69450 0.32100 -0.24300
C 	C 	0.60850 0.71760 0.40200 0.07200
N 	N 	0.58780 0.80550 0.17900 -0.24100
C 	C 	0.60850 0.78240 0.09800 0.05800
N 	N 	0.91220 0.80550 0.32100 -0.22500
C 	C 	0.89150 0.78240 0.40200 0.09800
N 	N 	0.69450 0.32100 0.58780 -0.24300
C 	C 	0.71760 0.40200 0.60850 0.07200
N 	N 	0.69450 0.17900 0.91220 -0.22600
C 	C 	0.71760 0.09800 0.89150 0.08600
N 	N 	0.80550 0.32100 0.91220 -0.22500
C 	C 	0.78240 0.40200 0.89150 0.09800
N 	N 	0.80550 0.17900 0.58780 -0.24100
C 	C 	0.78240 0.09800 0.60850 0.05800
N 	N 	0.58780 0.17900 0.80550 -0.24100
C 	C 	0.60850 0.09800 0.78240 0.05800
N 	N 	0.91220 0.32100 0.80550 -0.22500
C 	C 	0.89150 0.40200 0.78240 0.09800
N 	N 	0.91220 0.17900 0.69450 -0.22600
C 	C 	0.89150 0.09800 0.71760 0.08600
N 	N 	0.58780 0.32100 0.69450 -0.24300
C 	C 	0.60850 0.40200 0.71760 0.07200
N 	N 	0.80550 0.58780 0.17900 -0.24100
C 	C 	0.78240 0.60850 0.09800 0.05800
N 	N 	0.80550 0.91220 0.32100 -0.22500
C 	C 	0.78240 0.89150 0.40200 0.09800
N 	N 	0.69450 0.91220 0.17900 -0.22600
C 	C 	0.71760 0.89150 0.09800 0.08600
N 	N 	0.69450 0.58780 0.32100 -0.24300
C 	C 	0.71760 0.60850 0.40200 0.07200
N 	N 	0.17900 0.80550 0.58780 -0.24100
C 	C 	0.09800 0.78240 0.60850 0.05800
N 	N 	0.32100 0.80550 0.91220 -0.22500
C 	C 	0.40200 0.78240 0.89150 0.09800
N 	N 	0.17900 0.69450 0.91220 -0.22600
C 	C 	0.09800 0.71760 0.89150 0.08600
N 	N 	0.32100 0.69450 0.58780 -0.24300
C 	C 	0.40200 0.71760 0.60850 0.07200
N 	N 	0.67900 0.08780 0.19450 -0.25000
C 	C 	0.59800 0.10850 0.21760 0.03800
N 	N 	0.82100 0.41220 0.19450 -0.24300
C 	C 	0.90200 0.39150 0.21760 0.07700
N 	N 	0.67900 0.41220 0.30550 -0.24100
C 	C 	0.59800 0.39150 0.28240 0.06200
N 	N 	0.82100 0.08780 0.30550 -0.24900
C 	C 	0.90200 0.10850 0.28240 0.05100
N 	N 	0.08780 0.30550 0.82100 -0.24900
C 	C 	0.10850 0.28240 0.90200 0.05100
N 	N 	0.41220 0.30550 0.67900 -0.24100
C 	C 	0.39150 0.28240 0.59800 0.06200
N 	N 	0.41220 0.19450 0.82100 -0.24300
C 	C 	0.39150 0.21760 0.90200 0.07700
N 	N 	0.08780 0.19450 0.67900 -0.25000
C 	C 	0.10850 0.21760 0.59800 0.03800
N 	N 	0.30550 0.67900 0.41220 -0.24100
C 	C 	0.28240 0.59800 0.39150 0.06200
N 	N 	0.30550 0.82100 0.08780 -0.24900
C 	C 	0.28240 0.90200 0.10850 0.05100
N 	N 	0.19450 0.67900 0.08780 -0.25000
C 	C 	0.21760 0.59800 0.10850 0.03800
N 	N 	0.19450 0.82100 0.41220 -0.24300
C 	C 	0.21760 0.90200 0.39150 0.07700
Cu	Cu	0.50000 0.75000 0.25000 0.89500
Cu	Cu	0.00000 0.75000 0.25000 0.86000
Cu	Cu	0.25000 0.50000 0.75000 0.89500
Cu	Cu	0.25000 0.00000 0.75000 0.86000
Cu	Cu	0.75000 0.25000 0.50000 0.89500
Cu	Cu	0.75000 0.25000 -0.00000 0.86000
Cu	Cu	0.50000 0.25000 0.75000 0.89500
Cu	Cu	0.00000 0.25000 0.75000 0.86000
Cu	Cu	0.75000 0.50000 0.25000 0.89500
Cu	Cu	0.75000 0.00000 0.25000 0.86000
Cu	Cu	0.25000 0.75000 0.50000 0.89500
Cu	Cu	0.25000 0.75000 -0.00000 0.86000
C 	C 	0.37390 0.77830 0.12610 0.24300
C 	C 	0.32700 0.94710 0.17300 -0.02800
O 	O 	0.39520 0.70790 0.10480 -0.32000
C 	C 	0.12610 0.72170 0.12610 0.23400
C 	C 	0.17300 0.55290 0.17300 -0.05800
O 	O 	0.10480 0.79210 0.10480 -0.33000
C 	C 	0.12610 0.77830 0.37390 0.24300
C 	C 	0.17300 0.94710 0.32700 -0.02800
O 	O 	0.10480 0.70790 0.39520 -0.32000
C 	C 	0.37390 0.72170 0.37390 0.24300
C 	C 	0.32700 0.55290 0.32700 -0.04800
O 	O 	0.39520 0.79210 0.39520 -0.29500
C 	C 	0.12610 0.37390 0.77830 0.24300
C 	C 	0.17300 0.32700 0.94710 -0.02800
O 	O 	0.10480 0.39520 0.70790 -0.32000
C 	C 	0.12610 0.12610 0.72170 0.23400
C 	C 	0.17300 0.17300 0.55290 -0.05800
O 	O 	0.10480 0.10480 0.79210 -0.33000
C 	C 	0.37390 0.12610 0.77830 0.24300
C 	C 	0.32700 0.17300 0.94710 -0.02800
O 	O 	0.39520 0.10480 0.70790 -0.32000
C 	C 	0.37390 0.37390 0.72170 0.24300
C 	C 	0.32700 0.32700 0.55290 -0.04800
O 	O 	0.39520 0.39520 0.79210 -0.29500
C 	C 	0.77830 0.12610 0.37390 0.24300
C 	C 	0.94710 0.17300 0.32700 -0.02800
O 	O 	0.70790 0.10480 0.39520 -0.32000
C 	C 	0.72170 0.12610 0.12610 0.23400
C 	C 	0.55290 0.17300 0.17300 -0.05800
O 	O 	0.79210 0.10480 0.10480 -0.33000
C 	C 	0.77830 0.37390 0.12610 0.24300
C 	C 	0.94710 0.32700 0.17300 -0.02800
O 	O 	0.70790 0.39520 0.10480 -0.32000
C 	C 	0.72170 0.37390 0.37390 0.24300
C 	C 	0.55290 0.32700 0.32700 -0.04800
O 	O 	0.79210 0.39520 0.39520 -0.29500
C 	C 	0.27830 0.87390 0.87390 0.25700
C 	C 	0.44710 0.82700 0.82700 -0.02100
O 	O 	0.20790 0.89520 0.89520 -0.26700
C 	C 	0.22170 0.62610 0.87390 0.24700
C 	C 	0.05290 0.67300 0.82700 -0.05000
O 	O 	0.29210 0.60480 0.89520 -0.28100
C 	C 	0.27830 0.62610 0.62610 0.24600
C 	C 	0.44710 0.67300 0.67300 -0.03000
O 	O 	0.20790 0.60480 0.60480 -0.31100
C 	C 	0.22170 0.87390 0.62610 0.24700
C 	C 	0.05290 0.82700 0.67300 -0.05000
O 	O 	0.29210 0.89520 0.60480 -0.28100
C 	C 	0.87390 0.62610 0.22170 0.24700
C 	C 	0.82700 0.67300 0.05290 -0.05000
O 	O 	0.89520 0.60480 0.29210 -0.28100
C 	C 	0.62610 0.62610 0.27830 0.24600
C 	C 	0.67300 0.67300 0.44710 -0.03000
O 	O 	0.60480 0.60480 0.20790 -0.31100
C 	C 	0.62610 0.87390 0.22170 0.24700
C 	C 	0.67300 0.82700 0.05290 -0.05000
O 	O 	0.60480 0.89520 0.29210 -0.28100
C 	C 	0.87390 0.87390 0.27830 0.25700
C 	C 	0.82700 0.82700 0.44710 -0.02100
O 	O 	0.89520 0.89520 0.20790 -0.26700
C 	C 	0.62610 0.27830 0.62610 0.24600
C 	C 	0.67300 0.44710 0.67300 -0.03000
O 	O 	0.60480 0.20790 0.60480 -0.31100
C 	C 	0.62610 0.22170 0.87390 0.24700
C 	C 	0.67300 0.05290 0.82700 -0.05000
O 	O 	0.60480 0.29210 0.89520 -0.28100
C 	C 	0.87390 0.27830 0.87390 0.25700
C 	C 	0.82700 0.44710 0.82700 -0.02100
O 	O 	0.89520 0.20790 0.89520 -0.26700
C 	C 	0.87390 0.22170 0.62610 0.24700
C 	C 	0.82700 0.05290 0.67300 -0.05000
O 	O 	0.89520 0.29210 0.60480 -0.28100
