data_crystal

_cell_length_a 15.64750
_cell_length_b 15.64750
_cell_length_c 15.64750
_cell_angle_alpha 90.00000
_cell_angle_beta  90.00000
_cell_angle_gamma 90.00000

_symmetry_space_group_name_	'P 1'
_symmetry_space_group_name_H-M	'P 1'

loop_
_symmetry_equiv_pos_as_xyz
  x,y,z

loop_
_atom_site_label
_atom_site_type_symbol
_atom_site_fract_x
_atom_site_fract_y
_atom_site_fract_z
_atom_site_charge
N 	N 	0.41159 0.82247 0.19520 -0.24900
C 	C 	0.38990 0.90260 0.21590 0.08300
N 	N 	0.08841 0.67753 0.19520 -0.25600
C 	C 	0.11010 0.59740 0.21590 0.04500
N 	N 	0.08841 0.82247 0.30480 -0.25500
C 	C 	0.11010 0.90260 0.28410 0.05800
N 	N 	0.41159 0.67753 0.30480 -0.24700
C 	C 	0.38990 0.59740 0.28410 0.06900
N 	N 	0.19520 0.41159 0.82247 -0.24900
C 	C 	0.21590 0.38990 0.90260 0.08400
N 	N 	0.19520 0.08841 0.67753 -0.25500
C 	C 	0.21590 0.11010 0.59740 0.04600
N 	N 	0.30480 0.08841 0.82247 -0.25400
C 	C 	0.28410 0.11010 0.90260 0.05900
N 	N 	0.30480 0.41159 0.67753 -0.24600
C 	C 	0.28410 0.38990 0.59740 0.07000
N 	N 	0.82247 0.19520 0.41159 -0.24800
C 	C 	0.90260 0.21590 0.38990 0.08400
N 	N 	0.67753 0.19520 0.08841 -0.25500
C 	C 	0.59740 0.21590 0.11010 0.04600
N 	N 	0.82247 0.30480 0.08841 -0.25400
C 	C 	0.90260 0.28410 0.11010 0.05900
N 	N 	0.67753 0.30480 0.41159 -0.24600
C 	C 	0.59740 0.28410 0.38990 0.07000
N 	N 	0.32247 0.91159 0.80480 -0.23000
C 	C 	0.40260 0.88990 0.78410 0.10500
N 	N 	0.17753 0.58841 0.80480 -0.24600
C 	C 	0.09740 0.61010 0.78410 0.06600
N 	N 	0.32247 0.58841 0.69520 -0.24800
C 	C 	0.40260 0.61010 0.71590 0.07900
N 	N 	0.17753 0.91159 0.69520 -0.23100
C 	C 	0.09740 0.88990 0.71590 0.09300
N 	N 	0.91159 0.69520 0.17753 -0.23100
C 	C 	0.88990 0.71590 0.09740 0.09300
N 	N 	0.58841 0.69520 0.32247 -0.24800
C 	C 	0.61010 0.71590 0.40260 0.07900
N 	N 	0.58841 0.80480 0.17753 -0.24600
C 	C 	0.61010 0.78410 0.09740 0.06600
N 	N 	0.91159 0.80480 0.32247 -0.23000
C 	C 	0.88990 0.78410 0.40260 0.10500
N 	N 	0.69520 0.32247 0.58841 -0.24800
C 	C 	0.71590 0.40260 0.61010 0.07900
N 	N 	0.69520 0.17753 0.91159 -0.23100
C 	C 	0.71590 0.09740 0.88990 0.09300
N 	N 	0.80480 0.32247 0.91159 -0.23000
C 	C 	0.78410 0.40260 0.88990 0.10500
N 	N 	0.80480 0.17753 0.58841 -0.24600
C 	C 	0.78410 0.09740 0.61010 0.06600
N 	N 	0.58841 0.17753 0.80480 -0.24600
C 	C 	0.61010 0.09740 0.78410 0.06600
N 	N 	0.91159 0.32247 0.80480 -0.23000
C 	C 	0.88990 0.40260 0.78410 0.10500
N 	N 	0.91159 0.17753 0.69520 -0.23100
C 	C 	0.88990 0.09740 0.71590 0.09300
N 	N 	0.58841 0.32247 0.69520 -0.24800
C 	C 	0.61010 0.40260 0.71590 0.07900
N 	N 	0.80480 0.58841 0.17753 -0.24600
C 	C 	0.78410 0.61010 0.09740 0.06600
N 	N 	0.80480 0.91159 0.32247 -0.23000
C 	C 	0.78410 0.88990 0.40260 0.10500
N 	N 	0.69520 0.91159 0.17753 -0.23100
C 	C 	0.71590 0.88990 0.09740 0.09300
N 	N 	0.69520 0.58841 0.32247 -0.24800
C 	C 	0.71590 0.61010 0.40260 0.07900
N 	N 	0.17753 0.80480 0.58841 -0.24600
C 	C 	0.09740 0.78410 0.61010 0.06600
N 	N 	0.32247 0.80480 0.91159 -0.23000
C 	C 	0.40260 0.78410 0.88990 0.10500
N 	N 	0.17753 0.69520 0.91159 -0.23100
C 	C 	0.09740 0.71590 0.88990 0.09300
N 	N 	0.32247 0.69520 0.58841 -0.24800
C 	C 	0.40260 0.71590 0.61010 0.07900
N 	N 	0.67753 0.08841 0.19520 -0.25500
C 	C 	0.59740 0.11010 0.21590 0.04600
N 	N 	0.82247 0.41159 0.19520 -0.24800
C 	C 	0.90260 0.38990 0.21590 0.08400
N 	N 	0.67753 0.41159 0.30480 -0.24600
C 	C 	0.59740 0.38990 0.28410 0.07000
N 	N 	0.82247 0.08841 0.30480 -0.25400
C 	C 	0.90260 0.11010 0.28410 0.05900
N 	N 	0.08841 0.30480 0.82247 -0.25400
C 	C 	0.11010 0.28410 0.90260 0.05900
N 	N 	0.41159 0.30480 0.67753 -0.24600
C 	C 	0.38990 0.28410 0.59740 0.07000
N 	N 	0.41159 0.19520 0.82247 -0.24800
C 	C 	0.38990 0.21590 0.90260 0.08400
N 	N 	0.08841 0.19520 0.67753 -0.25500
C 	C 	0.11010 0.21590 0.59740 0.04600
N 	N 	0.30480 0.67753 0.41159 -0.24600
C 	C 	0.28410 0.59740 0.38990 0.07000
N 	N 	0.30480 0.82247 0.08841 -0.25400
C 	C 	0.28410 0.90260 0.11010 0.05900
N 	N 	0.19520 0.67753 0.08841 -0.25500
C 	C 	0.21590 0.59740 0.11010 0.04600
N 	N 	0.19520 0.82247 0.41159 -0.24800
C 	C 	0.21590 0.90260 0.38990 0.08400
Cu	Cu	0.50000 0.75000 0.25000 0.89500
Cu	Cu	-0.00000 0.75000 0.25000 0.86000
Cu	Cu	0.25000 0.50000 0.75000 0.89500
Cu	Cu	0.25000 0.00000 0.75000 0.86000
Cu	Cu	0.75000 0.25000 0.50000 0.89500
Cu	Cu	0.75000 0.25000 -0.00000 0.86000
Cu	Cu	0.50000 0.25000 0.75000 0.89500
Cu	Cu	-0.00000 0.25000 0.75000 0.86000
Cu	Cu	0.75000 0.50000 0.25000 0.89500
Cu	Cu	0.75000 -0.00000 0.25000 0.86000
Cu	Cu	0.25000 0.75000 0.50000 0.89500
Cu	Cu	0.25000 0.75000 -0.00000 0.86000
C 	C 	0.37210 0.78290 0.12790 0.24900
C 	C 	0.32690 0.94710 0.17310 -0.03800
O 	O 	0.39620 0.71230 0.10380 -0.32000
C 	C 	0.12790 0.71710 0.12790 0.24000
C 	C 	0.17310 0.55290 0.17310 -0.06800
O 	O 	0.10380 0.78770 0.10380 -0.33100
C 	C 	0.12790 0.78290 0.37210 0.24900
C 	C 	0.17310 0.94710 0.32690 -0.03800
O 	O 	0.10380 0.71230 0.39620 -0.32000
C 	C 	0.37210 0.71710 0.37210 0.24800
C 	C 	0.32690 0.55290 0.32690 -0.05800
O 	O 	0.39620 0.78770 0.39620 -0.29500
C 	C 	0.12790 0.37210 0.78290 0.24900
C 	C 	0.17310 0.32690 0.94710 -0.03800
O 	O 	0.10380 0.39620 0.71230 -0.32000
C 	C 	0.12790 0.12790 0.71710 0.24000
C 	C 	0.17310 0.17310 0.55290 -0.06800
O 	O 	0.10380 0.10380 0.78770 -0.33100
C 	C 	0.37210 0.12790 0.78290 0.24900
C 	C 	0.32690 0.17310 0.94710 -0.03800
O 	O 	0.39620 0.10380 0.71230 -0.32000
C 	C 	0.37210 0.37210 0.71710 0.24800
C 	C 	0.32690 0.32690 0.55290 -0.05800
O 	O 	0.39620 0.39620 0.78770 -0.29500
C 	C 	0.78290 0.12790 0.37210 0.24900
C 	C 	0.94710 0.17310 0.32690 -0.03800
O 	O 	0.71230 0.10380 0.39620 -0.32000
C 	C 	0.71710 0.12790 0.12790 0.24000
C 	C 	0.55290 0.17310 0.17310 -0.06800
O 	O 	0.78770 0.10380 0.10380 -0.33100
C 	C 	0.78290 0.37210 0.12790 0.24900
C 	C 	0.94710 0.32690 0.17310 -0.03800
O 	O 	0.71230 0.39620 0.10380 -0.32000
C 	C 	0.71710 0.37210 0.37210 0.24800
C 	C 	0.55290 0.32690 0.32690 -0.05800
O 	O 	0.78770 0.39620 0.39620 -0.29500
C 	C 	0.28290 0.87210 0.87210 0.26000
C 	C 	0.44710 0.82690 0.82690 -0.03100
O 	O 	0.21230 0.89620 0.89620 -0.26500
C 	C 	0.21710 0.62790 0.87210 0.25100
C 	C 	0.05290 0.67310 0.82690 -0.06000
O 	O 	0.28770 0.60380 0.89620 -0.28000
C 	C 	0.28290 0.62790 0.62790 0.25100
C 	C 	0.44710 0.67310 0.67310 -0.04000
O 	O 	0.21230 0.60380 0.60380 -0.31000
C 	C 	0.21710 0.87210 0.62790 0.25100
C 	C 	0.05290 0.82690 0.67310 -0.06000
O 	O 	0.28770 0.89620 0.60380 -0.28000
C 	C 	0.87210 0.62790 0.21710 0.25100
C 	C 	0.82690 0.67310 0.05290 -0.06000
O 	O 	0.89620 0.60380 0.28770 -0.28000
C 	C 	0.62790 0.62790 0.28290 0.25100
C 	C 	0.67310 0.67310 0.44710 -0.04000
O 	O 	0.60380 0.60380 0.21230 -0.31000
C 	C 	0.62790 0.87210 0.21710 0.25100
C 	C 	0.67310 0.82690 0.05290 -0.06000
O 	O 	0.60380 0.89620 0.28770 -0.28000
C 	C 	0.87210 0.87210 0.28290 0.26000
C 	C 	0.82690 0.82690 0.44710 -0.03100
O 	O 	0.89620 0.89620 0.21230 -0.26500
C 	C 	0.62790 0.28290 0.62790 0.25100
C 	C 	0.67310 0.44710 0.67310 -0.04000
O 	O 	0.60380 0.21230 0.60380 -0.31000
C 	C 	0.62790 0.21710 0.87210 0.25100
C 	C 	0.67310 0.05290 0.82690 -0.06000
O 	O 	0.60380 0.28770 0.89620 -0.28000
C 	C 	0.87210 0.28290 0.87210 0.26000
C 	C 	0.82690 0.44710 0.82690 -0.03100
O 	O 	0.89620 0.21230 0.89620 -0.26500
C 	C 	0.87210 0.21710 0.62790 0.25100
C 	C 	0.82690 0.05290 0.67310 -0.06000
O 	O 	0.89620 0.28770 0.60380 -0.28000
