data_crystal

_cell_length_a 15.44000
_cell_length_b 15.44000
_cell_length_c 16.25400
_cell_angle_alpha 90.00000
_cell_angle_beta  90.00000
_cell_angle_gamma 120.00000

_symmetry_space_group_name_	'P 1'
_symmetry_space_group_name_H-M	'P 1'

loop_
_symmetry_equiv_pos_as_xyz
  x,y,z

loop_
_atom_site_label
_atom_site_type_symbol
_atom_site_fract_x
_atom_site_fract_y
_atom_site_fract_z
_atom_site_charge
Yb	Yb	0.66667 0.33334 0.75000 1.51800
Yb	Yb	0.33333 0.66666 0.75000 1.52100
Yb	Yb	0.33333 0.66666 0.25000 1.52000
Yb	Yb	0.66667 0.33334 0.25000 1.51600
Mn	Mn	0.50000 0.00000 -0.00000 1.17000
Mn	Mn	0.50000 0.50000 -0.00000 1.21300
Mn	Mn	1.00000 0.50000 -0.00000 1.17000
Mn	Mn	0.50000 0.00000 0.50000 1.23200
Mn	Mn	1.00000 0.50000 0.50000 1.23200
Mn	Mn	0.50000 0.50000 0.50000 1.27600
H 	H 	0.29150 0.05950 0.84370 0.05400
H 	H 	0.76800 0.70850 0.84370 0.07300
H 	H 	0.94050 0.23200 0.84370 0.04300
H 	H 	0.70850 0.94050 0.84370 0.10000
H 	H 	0.23200 0.29150 0.84370 0.08100
H 	H 	0.05950 0.76800 0.84370 0.11100
H 	H 	0.23200 0.94050 0.65630 0.09100
H 	H 	0.05950 0.29150 0.65630 0.07900
H 	H 	0.70850 0.76800 0.65630 0.06000
H 	H 	0.76800 0.05950 0.65630 0.02100
H 	H 	0.94050 0.70850 0.65630 0.03300
H 	H 	0.29150 0.23200 0.65630 0.05200
H 	H 	0.70850 0.94050 0.15630 0.05800
H 	H 	0.23200 0.29150 0.15630 0.03800
H 	H 	0.05950 0.76800 0.15630 0.07100
H 	H 	0.29150 0.05950 0.15630 0.01100
H 	H 	0.76800 0.70850 0.15630 0.03000
H 	H 	0.94050 0.23200 0.15630 -0.00100
H 	H 	0.76800 0.05950 0.34370 0.01800
H 	H 	0.94050 0.70850 0.34370 0.03000
H 	H 	0.29150 0.23200 0.34370 0.04900
H 	H 	0.23200 0.94050 0.34370 0.08900
H 	H 	0.05950 0.29150 0.34370 0.07700
H 	H 	0.70850 0.76800 0.34370 0.05700
H 	H 	0.20280 0.10140 0.75000 0.03100
H 	H 	0.89860 0.79720 0.75000 0.03100
H 	H 	0.89860 0.10140 0.75000 -0.00300
H 	H 	0.79720 0.89860 0.75000 0.04700
H 	H 	0.10140 0.20280 0.75000 0.04700
H 	H 	0.10140 0.89860 0.75000 0.08000
H 	H 	0.79720 0.89860 0.25000 0.04000
H 	H 	0.10140 0.20280 0.25000 0.04000
H 	H 	0.10140 0.89860 0.25000 0.07500
H 	H 	0.20280 0.10140 0.25000 0.02300
H 	H 	0.89860 0.79720 0.25000 0.02300
H 	H 	0.89860 0.10140 0.25000 -0.01100
C 	C 	0.32520 0.11060 0.80570 -0.04600
C 	C 	0.42870 0.16310 0.80280 -0.01300
C 	C 	0.49580 0.14260 0.86040 0.30300
C 	C 	0.78540 0.67480 0.80570 -0.04600
C 	C 	0.73440 0.57130 0.80280 -0.00400
C 	C 	0.64680 0.50420 0.86040 0.30300
C 	C 	0.88940 0.21460 0.80570 -0.05400
C 	C 	0.83690 0.26560 0.80280 -0.02000
C 	C 	0.85740 0.35320 0.86040 0.30200
C 	C 	0.67480 0.88940 0.80570 -0.04400
C 	C 	0.57130 0.83690 0.80280 0.01900
C 	C 	0.50420 0.85740 0.86040 0.30100
C 	C 	0.21460 0.32520 0.80570 -0.04500
C 	C 	0.26560 0.42870 0.80280 0.00900
C 	C 	0.35320 0.49580 0.86040 0.30500
C 	C 	0.11060 0.78540 0.80570 -0.03700
C 	C 	0.16310 0.73440 0.80280 0.02600
C 	C 	0.14260 0.64680 0.86040 0.30300
C 	C 	0.21460 0.88940 0.69430 -0.03600
C 	C 	0.26560 0.83690 0.69720 0.01300
C 	C 	0.35320 0.85740 0.63960 0.30600
C 	C 	0.11060 0.32520 0.69430 -0.04300
C 	C 	0.16310 0.42870 0.69720 0.00600
C 	C 	0.14260 0.49580 0.63960 0.30400
C 	C 	0.67480 0.78540 0.69430 -0.04300
C 	C 	0.57130 0.73440 0.69720 -0.00400
C 	C 	0.50420 0.64680 0.63960 0.30800
C 	C 	0.78540 0.11060 0.69430 -0.05200
C 	C 	0.73440 0.16310 0.69720 -0.03300
C 	C 	0.64680 0.14260 0.63960 0.30500
C 	C 	0.88940 0.67480 0.69430 -0.04500
C 	C 	0.83690 0.57130 0.69720 -0.02600
C 	C 	0.85740 0.50420 0.63960 0.30600
C 	C 	0.32520 0.21460 0.69430 -0.04400
C 	C 	0.42870 0.26560 0.69720 -0.01800
C 	C 	0.49580 0.35320 0.63960 0.30500
C 	C 	0.67480 0.88940 0.19430 -0.03700
C 	C 	0.57130 0.83690 0.19720 -0.01100
C 	C 	0.50420 0.85740 0.13960 0.30300
C 	C 	0.21460 0.32520 0.19430 -0.03600
C 	C 	0.26560 0.42870 0.19720 -0.02100
C 	C 	0.35320 0.49580 0.13960 0.30700
C 	C 	0.11060 0.78540 0.19430 -0.02900
C 	C 	0.16310 0.73440 0.19720 -0.00300
C 	C 	0.14260 0.64680 0.13960 0.30500
C 	C 	0.32520 0.11060 0.19430 -0.03900
C 	C 	0.42870 0.16310 0.19720 -0.04400
C 	C 	0.49580 0.14260 0.13960 0.30500
C 	C 	0.78540 0.67480 0.19430 -0.03800
C 	C 	0.73440 0.57130 0.19720 -0.03500
C 	C 	0.64680 0.50420 0.13960 0.30500
C 	C 	0.88940 0.21460 0.19430 -0.04600
C 	C 	0.83690 0.26560 0.19720 -0.05100
C 	C 	0.85740 0.35320 0.13960 0.30400
C 	C 	0.78540 0.11060 0.30570 -0.04600
C 	C 	0.73440 0.16310 0.30280 -0.04000
C 	C 	0.64680 0.14260 0.36040 0.30600
C 	C 	0.88940 0.67480 0.30570 -0.03900
C 	C 	0.83690 0.57130 0.30280 -0.03300
C 	C 	0.85740 0.50420 0.36040 0.30700
C 	C 	0.32520 0.21460 0.30570 -0.03800
C 	C 	0.42870 0.26560 0.30280 -0.02500
C 	C 	0.49580 0.35320 0.36040 0.30700
C 	C 	0.21460 0.88940 0.30570 -0.03000
C 	C 	0.26560 0.83690 0.30280 0.00700
C 	C 	0.35320 0.85740 0.36040 0.30700
C 	C 	0.11060 0.32520 0.30570 -0.03700
C 	C 	0.16310 0.42870 0.30280 -0.00000
C 	C 	0.14260 0.49580 0.36040 0.30500
C 	C 	0.67480 0.78540 0.30570 -0.03700
C 	C 	0.57130 0.73440 0.30280 -0.01000
C 	C 	0.50420 0.64680 0.36040 0.30900
C 	C 	0.27230 0.13615 0.75000 -0.03600
C 	C 	0.86385 0.72770 0.75000 -0.03600
C 	C 	0.86385 0.13615 0.75000 -0.05000
C 	C 	0.72770 0.86385 0.75000 -0.00200
C 	C 	0.13615 0.27230 0.75000 -0.00200
C 	C 	0.13615 0.86385 0.75000 0.01200
C 	C 	0.72770 0.86385 0.25000 -0.02100
C 	C 	0.13615 0.27230 0.25000 -0.02100
C 	C 	0.13615 0.86385 0.25000 -0.00600
C 	C 	0.27230 0.13615 0.25000 -0.05600
C 	C 	0.86385 0.72770 0.25000 -0.05700
C 	C 	0.86385 0.13615 0.25000 -0.07000
N 	N 	0.48100 0.24050 0.75000 -0.17400
N 	N 	0.75950 0.51900 0.75000 -0.17400
N 	N 	0.75950 0.24050 0.75000 -0.17500
N 	N 	0.51900 0.75950 0.75000 -0.17500
N 	N 	0.24050 0.48100 0.75000 -0.17500
N 	N 	0.24050 0.75950 0.75000 -0.17500
N 	N 	0.51900 0.75950 0.25000 -0.17300
N 	N 	0.24050 0.48100 0.25000 -0.17300
N 	N 	0.24050 0.75950 0.25000 -0.17200
N 	N 	0.48100 0.24050 0.25000 -0.17200
N 	N 	0.75950 0.51900 0.25000 -0.17200
N 	N 	0.75950 0.24050 0.25000 -0.17300
O 	O 	0.59130 0.20170 0.85410 -0.36300
O 	O 	0.45100 0.06750 0.90730 -0.38100
O 	O 	0.61040 0.40870 0.85410 -0.35200
O 	O 	0.61650 0.54900 0.90730 -0.35100
O 	O 	0.79830 0.38960 0.85410 -0.36300
O 	O 	0.93250 0.38350 0.90730 -0.38500
O 	O 	0.40870 0.79830 0.85410 -0.33600
O 	O 	0.54900 0.93250 0.90730 -0.30200
O 	O 	0.38960 0.59130 0.85410 -0.35000
O 	O 	0.38350 0.45100 0.90730 -0.34700
O 	O 	0.20170 0.61040 0.85410 -0.33500
O 	O 	0.06750 0.61650 0.90730 -0.29800
O 	O 	0.38960 0.79830 0.64590 -0.36300
O 	O 	0.38350 0.93250 0.59270 -0.36000
O 	O 	0.20170 0.59130 0.64590 -0.36400
O 	O 	0.06750 0.45100 0.59270 -0.36500
O 	O 	0.40870 0.61040 0.64590 -0.37900
O 	O 	0.54900 0.61650 0.59270 -0.41100
O 	O 	0.61040 0.20170 0.64590 -0.39300
O 	O 	0.61650 0.06750 0.59270 -0.45100
O 	O 	0.79830 0.40870 0.64590 -0.39300
O 	O 	0.93250 0.54900 0.59270 -0.44700
O 	O 	0.59130 0.38960 0.64590 -0.38100
O 	O 	0.45100 0.38350 0.59270 -0.41600
O 	O 	0.40870 0.79830 0.14590 -0.38600
O 	O 	0.54900 0.93250 0.09270 -0.40400
O 	O 	0.38960 0.59130 0.14590 -0.40200
O 	O 	0.38350 0.45100 0.09270 -0.45200
O 	O 	0.20170 0.61040 0.14590 -0.38500
O 	O 	0.06750 0.61650 0.09270 -0.39900
O 	O 	0.59130 0.20170 0.14590 -0.41500
O 	O 	0.45100 0.06750 0.09270 -0.48800
O 	O 	0.61040 0.40870 0.14590 -0.40400
O 	O 	0.61650 0.54900 0.09270 -0.45700
O 	O 	0.79830 0.38960 0.14590 -0.41600
O 	O 	0.93250 0.38350 0.09270 -0.49200
O 	O 	0.61040 0.20170 0.35410 -0.39300
O 	O 	0.61650 0.06750 0.40730 -0.45200
O 	O 	0.79830 0.40870 0.35410 -0.39300
O 	O 	0.93250 0.54900 0.40730 -0.44700
O 	O 	0.59130 0.38960 0.35410 -0.38100
O 	O 	0.45100 0.38350 0.40730 -0.41600
O 	O 	0.38960 0.79830 0.35410 -0.36300
O 	O 	0.38350 0.93250 0.40730 -0.36000
O 	O 	0.20170 0.59130 0.35410 -0.36400
O 	O 	0.06750 0.45100 0.40730 -0.36500
O 	O 	0.40870 0.61040 0.35410 -0.37900
O 	O 	0.54900 0.61650 0.40730 -0.41200
