data_crystal

_cell_length_a 12.72100
_cell_length_b 12.85500
_cell_length_c 17.45400
_cell_angle_alpha 106.42600
_cell_angle_beta  102.72400
_cell_angle_gamma 99.86200

_symmetry_space_group_name_	'P 1'
_symmetry_space_group_name_H-M	'P 1'

loop_
_symmetry_equiv_pos_as_xyz
  x,y,z

loop_
_atom_site_label
_atom_site_type_symbol
_atom_site_fract_x
_atom_site_fract_y
_atom_site_fract_z
_atom_site_charge
C 	C 	0.38640 0.48970 0.10650 0.56800
C 	C 	0.89530 0.79430 0.56610 -0.85300
H 	H 	0.89600 0.73710 0.59310 0.24000
H 	H 	0.84380 0.76150 0.50980 0.25900
H 	H 	0.87120 0.85650 0.59860 0.24500
C 	C 	0.09540 0.88140 0.64700 -0.88700
H 	H 	0.07390 0.94250 0.68310 0.26800
H 	H 	0.16990 0.90910 0.64280 0.28800
H 	H 	0.09590 0.82080 0.67070 0.25300
C 	C 	0.46000 0.49200 0.18840 -0.84600
H 	H 	0.41650 0.49420 0.22850 0.23200
H 	H 	0.52260 0.55860 0.21030 0.25500
H 	H 	0.48840 0.42460 0.17940 0.25500
C 	C 	0.04710 0.74260 0.50370 -0.82300
H 	H 	0.04330 0.67950 0.52490 0.23300
H 	H 	0.12340 0.76970 0.50260 0.24500
H 	H 	0.99660 0.71790 0.44720 0.23800
C 	C 	0.01260 0.83760 0.56090 0.58700
C 	C 	0.28940 0.38630 0.07110 -0.81100
H 	H 	0.31780 0.31900 0.06330 0.22400
H 	H 	0.24390 0.38460 0.01730 0.23300
H 	H 	0.24380 0.38870 0.10980 0.22300
C 	C 	0.34110 0.59560 0.12000 -0.82500
H 	H 	0.29610 0.59700 0.15900 0.22600
H 	H 	0.29490 0.59430 0.06660 0.25200
H 	H 	0.40340 0.66240 0.14290 0.24000
N 	N 	0.01880 0.93290 0.52660 -0.23800
N 	N 	0.45310 0.48470 0.04510 -0.23800
Na	Na	0.15259 0.31854 0.77870 0.56100
Na	Na	0.25476 0.01960 0.50634 0.57200
P 	P 	0.41097 0.45432 0.94006 0.24200
P 	P 	0.02871 0.07091 0.57387 0.23900
S 	S 	0.36426 0.29159 0.87526 -0.26900
S 	S 	0.92315 0.10155 0.64060 -0.27400
Cl	Cl	0.30625 0.53938 0.90178 -0.56600
Cl	Cl	0.18388 0.16049 0.63281 -0.56600
C 	C 	0.76350 0.15640 0.07400 -0.84000
H 	H 	0.74390 0.16390 0.01860 0.25500
H 	H 	0.73450 0.20860 0.11160 0.25200
H 	H 	0.84460 0.17350 0.09570 0.23800
C 	C 	0.71240 0.03570 0.06770 0.57400
C 	C 	0.76230 0.95370 0.01220 -0.80100
H 	H 	0.84360 0.97560 0.03400 0.22200
H 	H 	0.73420 0.87770 0.01200 0.22200
H 	H 	0.74070 0.95550 0.95520 0.23600
C 	C 	0.73570 0.02640 0.15380 -0.87300
H 	H 	0.70030 0.07620 0.18760 0.26800
H 	H 	0.70560 0.94900 0.14970 0.26900
H 	H 	0.81620 0.04810 0.18000 0.24900
N 	N 	0.58880 0.00350 0.02970 -0.24000
Na	Na	0.53377 0.25130 0.99040 0.57200
P 	P 	0.51429 0.96429 0.92786 0.24400
S 	S 	0.48806 0.80207 0.86646 -0.29600
Cl	Cl	0.56350 0.06253 0.86674 -0.55400
C 	C 	0.41560 0.82610 0.36500 0.60400
C 	C 	0.35060 0.72860 0.38370 -0.84900
H 	H 	0.40040 0.70950 0.42610 0.25400
H 	H 	0.28930 0.75080 0.40430 0.25000
H 	H 	0.32060 0.66350 0.33260 0.23300
C 	C 	0.51600 0.79530 0.33760 -0.89900
H 	H 	0.49000 0.73060 0.28610 0.26700
H 	H 	0.55850 0.85900 0.32790 0.29600
H 	H 	0.56370 0.77650 0.38140 0.26700
C 	C 	0.34020 0.85280 0.29660 -0.88500
H 	H 	0.27850 0.87690 0.31550 0.25700
H 	H 	0.38290 0.91300 0.28320 0.27600
H 	H 	0.31060 0.78580 0.24680 0.25900
N 	N 	0.45230 0.92570 0.44240 -0.24600
P 	P 	0.50166 0.06427 0.45637 0.24100
S 	S 	0.38421 0.14356 0.43277 -0.28900
Cl	Cl	0.62326 0.09601 0.40517 -0.57200
Na	Na	0.52686 0.84230 0.71720 0.56200
C 	C 	0.61360 0.51030 0.89350 0.56700
C 	C 	0.10470 0.20570 0.43390 -0.85400
H 	H 	0.10400 0.26290 0.40690 0.23900
H 	H 	0.15620 0.23850 0.49020 0.25800
H 	H 	0.12880 0.14350 0.40140 0.24400
C 	C 	0.90460 0.11860 0.35300 -0.88800
H 	H 	0.92610 0.05750 0.31690 0.26700
H 	H 	0.83010 0.09090 0.35720 0.28700
H 	H 	0.90410 0.17920 0.32930 0.25200
C 	C 	0.54000 0.50800 0.81160 -0.84700
H 	H 	0.58350 0.50580 0.77150 0.23200
H 	H 	0.47740 0.44140 0.78970 0.25500
H 	H 	0.51160 0.57540 0.82060 0.25500
C 	C 	0.95290 0.25740 0.49630 -0.82300
H 	H 	0.95670 0.32050 0.47510 0.23300
H 	H 	0.87660 0.23030 0.49740 0.24500
H 	H 	0.00340 0.28210 0.55280 0.23800
C 	C 	0.98740 0.16240 0.43910 0.58700
C 	C 	0.71060 0.61370 0.92890 -0.81100
H 	H 	0.68220 0.68100 0.93670 0.22400
H 	H 	0.75610 0.61540 0.98270 0.23300
H 	H 	0.75620 0.61130 0.89020 0.22300
C 	C 	0.65890 0.40440 0.88000 -0.82500
H 	H 	0.70390 0.40300 0.84100 0.22600
H 	H 	0.70510 0.40570 0.93340 0.25200
H 	H 	0.59660 0.33760 0.85710 0.24000
N 	N 	0.98120 0.06710 0.47340 -0.23800
N 	N 	0.54690 0.51530 0.95490 -0.23800
Na	Na	0.84741 0.68146 0.22130 0.56100
Na	Na	0.74524 0.98040 0.49366 0.57200
P 	P 	0.58903 0.54568 0.05994 0.24200
P 	P 	0.97129 0.92909 0.42613 0.23900
S 	S 	0.63574 0.70841 0.12474 -0.26900
S 	S 	0.07685 0.89845 0.35940 -0.27400
Cl	Cl	0.69375 0.46062 0.09822 -0.56600
Cl	Cl	0.81612 0.83951 0.36719 -0.56600
C 	C 	0.23650 0.84360 0.92600 -0.84000
H 	H 	0.25610 0.83610 0.98140 0.25500
H 	H 	0.26550 0.79140 0.88840 0.25200
H 	H 	0.15540 0.82650 0.90430 0.23800
C 	C 	0.28760 0.96430 0.93230 0.57400
C 	C 	0.23770 0.04630 0.98780 -0.80100
H 	H 	0.15640 0.02440 0.96600 0.22200
H 	H 	0.26580 0.12230 0.98800 0.22200
H 	H 	0.25930 0.04450 0.04480 0.23600
C 	C 	0.26430 0.97360 0.84620 -0.87300
H 	H 	0.29970 0.92380 0.81240 0.26800
H 	H 	0.29440 0.05100 0.85030 0.26900
H 	H 	0.18380 0.95190 0.82000 0.24900
N 	N 	0.41120 0.99650 0.97030 -0.24000
Na	Na	0.46623 0.74870 0.00960 0.57200
P 	P 	0.48571 0.03571 0.07214 0.24400
S 	S 	0.51194 0.19793 0.13354 -0.29600
Cl	Cl	0.43650 0.93747 0.13326 -0.55400
C 	C 	0.58440 0.17390 0.63500 0.60400
C 	C 	0.64940 0.27140 0.61630 -0.84900
H 	H 	0.59960 0.29050 0.57390 0.25400
H 	H 	0.71070 0.24920 0.59570 0.25000
H 	H 	0.67940 0.33650 0.66740 0.23300
C 	C 	0.48400 0.20470 0.66240 -0.89900
H 	H 	0.51000 0.26940 0.71390 0.26700
H 	H 	0.44150 0.14100 0.67210 0.29600
H 	H 	0.43630 0.22350 0.61860 0.26700
C 	C 	0.65980 0.14720 0.70340 -0.88500
H 	H 	0.72150 0.12310 0.68450 0.25700
H 	H 	0.61710 0.08700 0.71680 0.27600
H 	H 	0.68940 0.21420 0.75320 0.25900
N 	N 	0.54770 0.07430 0.55760 -0.24600
P 	P 	0.49834 0.93573 0.54363 0.24100
S 	S 	0.61579 0.85644 0.56723 -0.28900
Cl	Cl	0.37674 0.90399 0.59483 -0.57200
Na	Na	0.47314 0.15770 0.28280 0.56200
