data_crystal

_cell_length_a 9.20100
_cell_length_b 9.20790
_cell_length_c 15.32550
_cell_angle_alpha 99.87000
_cell_angle_beta  99.85130
_cell_angle_gamma 115.45000

_symmetry_space_group_name_	'P 1'
_symmetry_space_group_name_H-M	'P 1'

loop_
_symmetry_equiv_pos_as_xyz
  x,y,z

loop_
_atom_site_label
_atom_site_type_symbol
_atom_site_fract_x
_atom_site_fract_y
_atom_site_fract_z
_atom_site_charge
Ba	Ba	0.22133 0.97133 0.94266 1.80700
Ba	Ba	0.77867 0.02867 0.05734 1.80700
Ba	Ba	0.52090 0.77090 0.54180 1.82100
Ba	Ba	0.47910 0.22910 0.45820 1.82100
Zr	Zr	0.86548 0.61548 0.23096 3.20100
Zr	Zr	0.13452 0.38452 0.76904 3.20100
C 	C 	0.10180 0.73240 0.10900 0.23200
C 	C 	0.01360 0.84340 0.11360 0.28700
C 	C 	0.15000 0.59540 0.35460 0.24900
C 	C 	0.20090 0.78280 0.37520 0.28400
C 	C 	0.50720 0.37660 0.10900 0.23300
C 	C 	0.60000 0.27020 0.11360 0.27600
C 	C 	0.70460 0.75920 0.35460 0.24900
C 	C 	0.67430 0.59240 0.37520 0.28500
C 	C 	0.89820 0.26760 0.89100 0.23200
C 	C 	0.98640 0.15660 0.88640 0.28700
C 	C 	0.85000 0.40460 0.64540 0.24900
C 	C 	0.79910 0.21720 0.62480 0.28400
C 	C 	0.49280 0.62340 0.89100 0.23300
C 	C 	0.40000 0.72980 0.88640 0.27600
C 	C 	0.29540 0.24080 0.64540 0.24900
C 	C 	0.32570 0.40760 0.62480 0.28500
O 	O 	0.20990 0.75970 0.06980 -0.36800
O 	O 	0.05820 0.96310 0.08140 -0.51800
O 	O 	0.89820 0.79820 0.15320 -0.71600
O 	O 	0.04450 0.61840 0.15060 -0.59800
O 	O 	0.00350 0.50290 0.30060 -0.60800
O 	O 	0.09480 0.81510 0.32900 -0.68100
O 	O 	0.33450 0.88680 0.43140 -0.54300
O 	O 	0.24510 0.55080 0.39220 -0.41800
O 	O 	0.35990 0.31010 0.06980 -0.37500
O 	O 	0.52320 0.11830 0.08140 -0.53000
O 	O 	0.75500 0.35500 0.15320 -0.71200
O 	O 	0.60610 0.53220 0.15060 -0.60200
O 	O 	0.79710 0.79770 0.30060 -0.61000
O 	O 	0.73420 0.51390 0.32900 -0.68500
O 	O 	0.59690 0.54460 0.43140 -0.54300
O 	O 	0.64710 0.84140 0.39220 -0.41700
O 	O 	0.79010 0.24030 0.93020 -0.36800
O 	O 	0.94180 0.03690 0.91860 -0.51800
O 	O 	0.10180 0.20180 0.84680 -0.71600
O 	O 	0.95550 0.38160 0.84940 -0.59800
O 	O 	0.99650 0.49710 0.69940 -0.60800
O 	O 	0.90520 0.18490 0.67100 -0.68100
O 	O 	0.66550 0.11320 0.56860 -0.54300
O 	O 	0.75490 0.44920 0.60780 -0.41800
O 	O 	0.64010 0.68990 0.93020 -0.37500
O 	O 	0.47680 0.88170 0.91860 -0.53000
O 	O 	0.24500 0.64500 0.84680 -0.71200
O 	O 	0.39390 0.46780 0.84940 -0.60200
O 	O 	0.20290 0.20230 0.69940 -0.61000
O 	O 	0.26580 0.48610 0.67100 -0.68500
O 	O 	0.40310 0.45540 0.56860 -0.54300
O 	O 	0.35290 0.15860 0.60780 -0.41700
