data_crystal

_cell_length_a 8.85200
_cell_length_b 11.68600
_cell_length_c 17.84700
_cell_angle_alpha 90.00000
_cell_angle_beta  90.00000
_cell_angle_gamma 99.67000

_symmetry_space_group_name_	'P 1'
_symmetry_space_group_name_H-M	'P 1'

loop_
_symmetry_equiv_pos_as_xyz
  x,y,z

loop_
_atom_site_label
_atom_site_type_symbol
_atom_site_fract_x
_atom_site_fract_y
_atom_site_fract_z
_atom_site_charge
Mn	Mn	0.79412 0.38127 0.17015 1.27300
Mn	Mn	0.70588 0.61873 0.67015 1.27300
Mn	Mn	0.20588 0.61873 0.82985 1.27300
Mn	Mn	0.29412 0.38127 0.32985 1.27300
H 	H 	0.98090 0.18700 0.23570 -0.02500
H 	H 	0.98370 0.99270 0.23710 0.08100
H 	H 	0.61610 0.94840 0.10620 0.08000
H 	H 	0.62380 0.14410 0.10820 -0.02000
H 	H 	0.95100 0.61520 0.24690 -0.00300
H 	H 	0.95830 0.81080 0.25020 0.07500
H 	H 	0.63580 0.77470 0.09170 0.08400
H 	H 	0.63790 0.57890 0.09310 -0.00200
H 	H 	0.71900 0.38620 0.88170 0.09400
H 	H 	0.88570 0.40140 0.91440 0.09300
H 	H 	0.88380 0.59190 0.94390 0.13100
H 	H 	0.70710 0.57880 0.92840 0.14000
H 	H 	0.51910 0.81300 0.73570 -0.02500
H 	H 	0.51630 0.00730 0.73710 0.08200
H 	H 	0.88390 0.05160 0.60620 0.08000
H 	H 	0.87620 0.85590 0.60820 -0.02000
H 	H 	0.54900 0.38480 0.74690 -0.00300
H 	H 	0.54170 0.18920 0.75020 0.07500
H 	H 	0.86420 0.22530 0.59170 0.08400
H 	H 	0.86210 0.42110 0.59310 -0.00200
H 	H 	0.78100 0.61380 0.38170 0.09400
H 	H 	0.61430 0.59860 0.41440 0.09400
H 	H 	0.61620 0.40810 0.44390 0.13100
H 	H 	0.79290 0.42120 0.42840 0.14000
H 	H 	0.01910 0.81300 0.76430 -0.02500
H 	H 	0.01630 0.00730 0.76290 0.08100
H 	H 	0.38390 0.05160 0.89380 0.08000
H 	H 	0.37620 0.85590 0.89180 -0.02000
H 	H 	0.04900 0.38480 0.75310 -0.00300
H 	H 	0.04170 0.18920 0.74980 0.07500
H 	H 	0.36420 0.22530 0.90830 0.08400
H 	H 	0.36210 0.42110 0.90690 -0.00200
H 	H 	0.28100 0.61380 0.11830 0.09400
H 	H 	0.11430 0.59860 0.08560 0.09300
H 	H 	0.11620 0.40810 0.05610 0.13100
H 	H 	0.29290 0.42120 0.07160 0.14000
H 	H 	0.48090 0.18700 0.26430 -0.02500
H 	H 	0.48370 0.99270 0.26290 0.08200
H 	H 	0.11610 0.94840 0.39380 0.08000
H 	H 	0.12380 0.14410 0.39180 -0.02000
H 	H 	0.45100 0.61520 0.25310 -0.00300
H 	H 	0.45830 0.81080 0.24980 0.07500
H 	H 	0.13580 0.77470 0.40830 0.08400
H 	H 	0.13790 0.57890 0.40690 -0.00200
H 	H 	0.21900 0.38620 0.61830 0.09400
H 	H 	0.38570 0.40140 0.58560 0.09400
H 	H 	0.38380 0.59190 0.55610 0.13100
H 	H 	0.20710 0.57880 0.57160 0.14000
C 	C 	0.90550 0.13840 0.20920 0.09900
C 	C 	0.90790 0.02110 0.21030 -0.15300
C 	C 	0.79960 0.94570 0.17216 0.06600
C 	C 	0.69230 0.99510 0.13340 -0.15300
C 	C 	0.69770 0.11330 0.13500 0.08600
C 	C 	0.88660 0.64770 0.21510 0.07800
C 	C 	0.89140 0.76580 0.21740 -0.13500
C 	C 	0.79710 0.81810 0.17115 0.04900
C 	C 	0.70150 0.74460 0.12410 -0.13400
C 	C 	0.70350 0.62650 0.12510 0.07400
C 	C 	0.72120 0.38270 0.99707 0.37200
C 	C 	0.78590 0.42390 0.92070 -0.19000
C 	C 	0.80110 0.55400 0.91228 -0.31900
C 	C 	0.83360 0.58900 0.83167 0.44700
C 	C 	0.59450 0.86160 0.70920 0.10000
C 	C 	0.59210 0.97890 0.71030 -0.15600
C 	C 	0.70040 0.05430 0.67216 0.06800
C 	C 	0.80770 0.00490 0.63340 -0.15200
C 	C 	0.80230 0.88670 0.63500 0.08500
C 	C 	0.61340 0.35230 0.71510 0.07800
C 	C 	0.60860 0.23420 0.71740 -0.13500
C 	C 	0.70290 0.18190 0.67115 0.04900
C 	C 	0.79850 0.25540 0.62410 -0.13300
C 	C 	0.79650 0.37350 0.62510 0.07300
C 	C 	0.77880 0.61730 0.49707 0.37500
C 	C 	0.71410 0.57610 0.42070 -0.19100
C 	C 	0.69890 0.44600 0.41228 -0.31800
C 	C 	0.66640 0.41100 0.33167 0.44600
C 	C 	0.09450 0.86160 0.79080 0.09900
C 	C 	0.09210 0.97890 0.78970 -0.15300
C 	C 	0.20040 0.05430 0.82784 0.06600
C 	C 	0.30770 0.00490 0.86660 -0.15300
C 	C 	0.30230 0.88670 0.86500 0.08600
C 	C 	0.11340 0.35230 0.78490 0.07800
C 	C 	0.10860 0.23420 0.78260 -0.13500
C 	C 	0.20290 0.18190 0.82885 0.04900
C 	C 	0.29850 0.25540 0.87590 -0.13400
C 	C 	0.29650 0.37350 0.87490 0.07400
C 	C 	0.27880 0.61730 0.00293 0.37200
C 	C 	0.21410 0.57610 0.07930 -0.19000
C 	C 	0.19890 0.44600 0.08772 -0.31900
C 	C 	0.16640 0.41100 0.16833 0.44700
C 	C 	0.40550 0.13840 0.29080 0.10000
C 	C 	0.40790 0.02110 0.28970 -0.15600
C 	C 	0.29960 0.94570 0.32784 0.06800
C 	C 	0.19230 0.99510 0.36660 -0.15200
C 	C 	0.19770 0.11330 0.36500 0.08500
C 	C 	0.38660 0.64770 0.28490 0.07800
C 	C 	0.39140 0.76580 0.28260 -0.13500
C 	C 	0.29710 0.81810 0.32885 0.04900
C 	C 	0.20150 0.74460 0.37590 -0.13300
C 	C 	0.20350 0.62650 0.37490 0.07300
C 	C 	0.22120 0.38270 0.50293 0.37500
C 	C 	0.28590 0.42390 0.57930 -0.19100
C 	C 	0.30110 0.55400 0.58772 -0.31800
C 	C 	0.33360 0.58900 0.66833 0.44600
N 	N 	0.80170 0.18590 0.17237 -0.24500
N 	N 	0.79480 0.57780 0.16987 -0.23400
N 	N 	0.69830 0.81410 0.67237 -0.24500
N 	N 	0.70520 0.42220 0.66987 -0.23400
N 	N 	0.19830 0.81410 0.82763 -0.24500
N 	N 	0.20520 0.42220 0.83013 -0.23400
N 	N 	0.30170 0.18590 0.32763 -0.24500
N 	N 	0.29480 0.57780 0.33013 -0.23400
O 	O 	0.81620 0.38580 0.04956 -0.45000
O 	O 	0.58170 0.35090 0.00255 -0.31200
O 	O 	0.72570 0.61210 0.79231 -0.46300
O 	O 	0.96540 0.58800 0.80634 -0.48500
O 	O 	0.68380 0.61420 0.54956 -0.45100
O 	O 	0.91830 0.64910 0.50255 -0.31300
O 	O 	0.77430 0.38790 0.29231 -0.46300
O 	O 	0.53460 0.41200 0.30634 -0.48500
O 	O 	0.18380 0.61420 0.95044 -0.45000
O 	O 	0.41830 0.64910 0.99745 -0.31200
O 	O 	0.27430 0.38790 0.20769 -0.46300
O 	O 	0.03460 0.41200 0.19366 -0.48500
O 	O 	0.31620 0.38580 0.45044 -0.45100
O 	O 	0.08170 0.35090 0.49745 -0.31300
O 	O 	0.22570 0.61210 0.70769 -0.46300
O 	O 	0.46540 0.58800 0.69366 -0.48500
