data_crystal

_cell_length_a 8.86470
_cell_length_b 11.70700
_cell_length_c 17.88240
_cell_angle_alpha 90.00000
_cell_angle_beta  90.00000
_cell_angle_gamma 99.71300

_symmetry_space_group_name_	'P 1'
_symmetry_space_group_name_H-M	'P 1'

loop_
_symmetry_equiv_pos_as_xyz
  x,y,z

loop_
_atom_site_label
_atom_site_type_symbol
_atom_site_fract_x
_atom_site_fract_y
_atom_site_fract_z
_atom_site_charge
Mn	Mn	0.79401 0.38120 0.17008 1.27100
Mn	Mn	0.70599 0.61880 0.67008 1.27100
Mn	Mn	0.20599 0.61880 0.82992 1.27100
Mn	Mn	0.29401 0.38120 0.32992 1.27100
H 	H 	0.98170 0.18610 0.23540 -0.02300
H 	H 	0.98340 0.99240 0.23680 0.08000
H 	H 	0.61630 0.94810 0.10710 0.08000
H 	H 	0.62440 0.14350 0.10770 -0.02000
H 	H 	0.95760 0.81150 0.25040 0.07300
H 	H 	0.95130 0.61550 0.24660 -0.00100
H 	H 	0.63780 0.57950 0.09250 -0.00000
H 	H 	0.63580 0.77430 0.09180 0.08300
H 	H 	0.71690 0.38590 0.88210 0.09600
H 	H 	0.88400 0.40030 0.91380 0.09500
H 	H 	0.88440 0.59100 0.94330 0.12900
H 	H 	0.70790 0.57870 0.92810 0.13900
H 	H 	0.51830 0.81390 0.73540 -0.02400
H 	H 	0.51660 0.00760 0.73680 0.08200
H 	H 	0.88370 0.05190 0.60710 0.08000
H 	H 	0.87560 0.85650 0.60770 -0.02000
H 	H 	0.54240 0.18850 0.75040 0.07300
H 	H 	0.54870 0.38450 0.74660 -0.00100
H 	H 	0.86220 0.42050 0.59250 -0.00000
H 	H 	0.86420 0.22570 0.59180 0.08300
H 	H 	0.78310 0.61410 0.38210 0.09600
H 	H 	0.61600 0.59970 0.41380 0.09500
H 	H 	0.61560 0.40900 0.44330 0.12900
H 	H 	0.79210 0.42130 0.42810 0.13800
H 	H 	0.01830 0.81390 0.76460 -0.02300
H 	H 	0.01660 0.00760 0.76320 0.08000
H 	H 	0.38370 0.05190 0.89290 0.08000
H 	H 	0.37560 0.85650 0.89230 -0.02000
H 	H 	0.04240 0.18850 0.74960 0.07300
H 	H 	0.04870 0.38450 0.75340 -0.00100
H 	H 	0.36220 0.42050 0.90750 -0.00000
H 	H 	0.36420 0.22570 0.90820 0.08300
H 	H 	0.28310 0.61410 0.11790 0.09600
H 	H 	0.11600 0.59970 0.08620 0.09500
H 	H 	0.11560 0.40900 0.05670 0.12900
H 	H 	0.29210 0.42130 0.07190 0.13900
H 	H 	0.48170 0.18610 0.26460 -0.02400
H 	H 	0.48340 0.99240 0.26320 0.08200
H 	H 	0.11630 0.94810 0.39290 0.08000
H 	H 	0.12440 0.14350 0.39230 -0.02000
H 	H 	0.45760 0.81150 0.24960 0.07300
H 	H 	0.45130 0.61550 0.25340 -0.00100
H 	H 	0.13780 0.57950 0.40750 -0.00000
H 	H 	0.13580 0.77430 0.40820 0.08300
H 	H 	0.21690 0.38590 0.61790 0.09600
H 	H 	0.38400 0.40030 0.58620 0.09500
H 	H 	0.38440 0.59100 0.55670 0.12900
H 	H 	0.20790 0.57870 0.57190 0.13800
C 	C 	0.90610 0.13760 0.20910 0.09600
C 	C 	0.90780 0.02090 0.21000 -0.15100
C 	C 	0.79930 0.94520 0.17190 0.06700
C 	C 	0.69290 0.99490 0.13390 -0.15300
C 	C 	0.69770 0.11300 0.13490 0.08600
C 	C 	0.79740 0.81800 0.17110 0.04600
C 	C 	0.89140 0.76640 0.21750 -0.13100
C 	C 	0.88680 0.64790 0.21490 0.07200
C 	C 	0.70330 0.62670 0.12470 0.07100
C 	C 	0.70150 0.74420 0.12400 -0.13100
C 	C 	0.72170 0.38300 0.99690 0.37500
C 	C 	0.78480 0.42340 0.92060 -0.19700
C 	C 	0.80140 0.55340 0.91190 -0.31400
C 	C 	0.83350 0.58820 0.83180 0.43600
C 	C 	0.59390 0.86240 0.70910 0.09700
C 	C 	0.59220 0.97910 0.71000 -0.15400
C 	C 	0.70070 0.05480 0.67190 0.06800
C 	C 	0.80710 0.00510 0.63390 -0.15100
C 	C 	0.80230 0.88700 0.63490 0.08400
C 	C 	0.70260 0.18200 0.67110 0.04600
C 	C 	0.60860 0.23360 0.71750 -0.13100
C 	C 	0.61320 0.35210 0.71490 0.07200
C 	C 	0.79670 0.37330 0.62470 0.07100
C 	C 	0.79850 0.25580 0.62400 -0.13100
C 	C 	0.77830 0.61700 0.49690 0.37800
C 	C 	0.71520 0.57660 0.42060 -0.19800
C 	C 	0.69860 0.44660 0.41190 -0.31300
C 	C 	0.66650 0.41180 0.33180 0.43600
C 	C 	0.09390 0.86240 0.79090 0.09600
C 	C 	0.09220 0.97910 0.79000 -0.15100
C 	C 	0.20070 0.05480 0.82810 0.06700
C 	C 	0.30710 0.00510 0.86610 -0.15300
C 	C 	0.30230 0.88700 0.86510 0.08600
C 	C 	0.20260 0.18200 0.82890 0.04600
C 	C 	0.10860 0.23360 0.78250 -0.13100
C 	C 	0.11320 0.35210 0.78510 0.07200
C 	C 	0.29670 0.37330 0.87530 0.07100
C 	C 	0.29850 0.25580 0.87600 -0.13100
C 	C 	0.27830 0.61700 0.00310 0.37500
C 	C 	0.21520 0.57660 0.07940 -0.19700
C 	C 	0.19860 0.44660 0.08810 -0.31400
C 	C 	0.16650 0.41180 0.16820 0.43600
C 	C 	0.40610 0.13760 0.29090 0.09700
C 	C 	0.40780 0.02090 0.29000 -0.15400
C 	C 	0.29930 0.94520 0.32810 0.06800
C 	C 	0.19290 0.99490 0.36610 -0.15100
C 	C 	0.19770 0.11300 0.36510 0.08400
C 	C 	0.29740 0.81800 0.32890 0.04600
C 	C 	0.39140 0.76640 0.28250 -0.13100
C 	C 	0.38680 0.64790 0.28510 0.07200
C 	C 	0.20330 0.62670 0.37530 0.07100
C 	C 	0.20150 0.74420 0.37600 -0.13100
C 	C 	0.22170 0.38300 0.50310 0.37800
C 	C 	0.28480 0.42340 0.57940 -0.19800
C 	C 	0.30140 0.55340 0.58810 -0.31300
C 	C 	0.33350 0.58820 0.66820 0.43600
N 	N 	0.80120 0.18530 0.17240 -0.24300
N 	N 	0.79470 0.57730 0.16940 -0.23200
N 	N 	0.69880 0.81470 0.67240 -0.24300
N 	N 	0.70530 0.42270 0.66940 -0.23200
N 	N 	0.19880 0.81470 0.82760 -0.24300
N 	N 	0.20530 0.42270 0.83060 -0.23200
N 	N 	0.30120 0.18530 0.32760 -0.24300
N 	N 	0.29470 0.57730 0.33060 -0.23200
O 	O 	0.81540 0.38540 0.04949 -0.45100
O 	O 	0.58190 0.35110 0.00260 -0.31100
O 	O 	0.96540 0.58800 0.80597 -0.48000
O 	O 	0.72540 0.61240 0.79233 -0.45700
O 	O 	0.68460 0.61460 0.54949 -0.45200
O 	O 	0.91810 0.64890 0.50260 -0.31200
O 	O 	0.53460 0.41200 0.30597 -0.48000
O 	O 	0.77460 0.38760 0.29233 -0.45700
O 	O 	0.18460 0.61460 0.95051 -0.45100
O 	O 	0.41810 0.64890 0.99740 -0.31100
O 	O 	0.03460 0.41200 0.19403 -0.48000
O 	O 	0.27460 0.38760 0.20767 -0.45700
O 	O 	0.31540 0.38540 0.45051 -0.45200
O 	O 	0.08190 0.35110 0.49740 -0.31200
O 	O 	0.46540 0.58800 0.69403 -0.48000
O 	O 	0.22540 0.61240 0.70767 -0.45700
