data_crystal

_cell_length_a 9.33220
_cell_length_b 10.79500
_cell_length_c 21.61810
_cell_angle_alpha 91.58400
_cell_angle_beta  90.00000
_cell_angle_gamma 90.00000

_symmetry_space_group_name_	'P 1'
_symmetry_space_group_name_H-M	'P 1'

loop_
_symmetry_equiv_pos_as_xyz
  x,y,z

loop_
_atom_site_label
_atom_site_type_symbol
_atom_site_fract_x
_atom_site_fract_y
_atom_site_fract_z
_atom_site_charge
Zn	Zn	0.63372 0.25393 0.75007 1.17800
Zn	Zn	0.10962 0.92585 0.81213 1.22400
Zn	Zn	0.39528 0.06806 0.68954 1.22400
Zn	Zn	0.13372 0.24607 0.24993 1.17800
Zn	Zn	0.60962 0.57415 0.18787 1.22200
Zn	Zn	0.89528 0.43194 0.31046 1.22300
Zn	Zn	0.36628 0.74607 0.24993 1.17700
Zn	Zn	0.89038 0.07415 0.18787 1.22300
Zn	Zn	0.60472 0.93194 0.31046 1.22300
Zn	Zn	0.86628 0.75393 0.75007 1.17700
Zn	Zn	0.39038 0.42585 0.81213 1.22200
Zn	Zn	0.10472 0.56806 0.68954 1.22300
P 	P 	0.36386 0.13669 0.82693 0.51000
P 	P 	0.35823 0.35804 0.67300 0.51400
P 	P 	0.86386 0.36331 0.17307 0.51000
P 	P 	0.85823 0.14196 0.32700 0.51400
P 	P 	0.63614 0.86331 0.17307 0.51000
P 	P 	0.64177 0.64196 0.32700 0.51400
P 	P 	0.13614 0.63669 0.82693 0.51000
P 	P 	0.14177 0.85804 0.67300 0.51400
H 	H 	0.46060 0.97350 0.87920 0.15500
H 	H 	0.54460 0.09540 0.89590 0.17500
H 	H 	0.47180 0.22670 0.98350 0.13500
H 	H 	0.35150 0.24370 0.07670 -0.02100
H 	H 	0.11540 0.94540 0.02980 -0.01700
H 	H 	0.24150 0.92410 0.93810 0.12000
H 	H 	0.45540 0.52120 0.62180 0.15900
H 	H 	0.54040 0.39960 0.60550 0.17600
H 	H 	0.47560 0.27170 0.51630 0.13600
H 	H 	0.35750 0.25510 0.42210 -0.02200
H 	H 	0.11660 0.54950 0.46890 -0.02100
H 	H 	0.23860 0.57080 0.56190 0.12500
H 	H 	0.96060 0.52650 0.12080 0.15500
H 	H 	0.04460 0.40460 0.10410 0.17400
H 	H 	0.97180 0.27330 0.01650 0.13600
H 	H 	0.85150 0.25630 0.92330 -0.02200
H 	H 	0.61540 0.55460 0.97020 -0.01900
H 	H 	0.74150 0.57590 0.06190 0.12000
H 	H 	0.95540 0.97880 0.37820 0.15800
H 	H 	0.04040 0.10040 0.39450 0.17400
H 	H 	0.97560 0.22830 0.48370 0.13600
H 	H 	0.85750 0.24490 0.57790 -0.02200
H 	H 	0.61660 0.95050 0.53110 -0.02200
H 	H 	0.73860 0.92920 0.43810 0.12500
H 	H 	0.53940 0.02650 0.12080 0.15500
H 	H 	0.45540 0.90460 0.10410 0.17500
H 	H 	0.52820 0.77330 0.01650 0.13500
H 	H 	0.64850 0.75630 0.92330 -0.02100
H 	H 	0.88460 0.05460 0.97020 -0.01700
H 	H 	0.75850 0.07590 0.06190 0.12000
H 	H 	0.54460 0.47880 0.37820 0.15900
H 	H 	0.45960 0.60040 0.39450 0.17600
H 	H 	0.52440 0.72830 0.48370 0.13600
H 	H 	0.64250 0.74490 0.57790 -0.02200
H 	H 	0.88340 0.45050 0.53110 -0.02100
H 	H 	0.76140 0.42920 0.43810 0.12500
H 	H 	0.03940 0.47350 0.87920 0.15500
H 	H 	0.95540 0.59540 0.89590 0.17400
H 	H 	0.02820 0.72670 0.98350 0.13600
H 	H 	0.14850 0.74370 0.07670 -0.02200
H 	H 	0.38460 0.44540 0.02980 -0.01900
H 	H 	0.25850 0.42410 0.93810 0.12000
H 	H 	0.04460 0.02120 0.62180 0.15800
H 	H 	0.95960 0.89960 0.60550 0.17400
H 	H 	0.02440 0.77170 0.51630 0.13600
H 	H 	0.14250 0.75510 0.42210 -0.02200
H 	H 	0.38340 0.04950 0.46890 -0.02200
H 	H 	0.26140 0.07080 0.56190 0.12500
C 	C 	0.44950 0.06070 0.89014 -0.46900
C 	C 	0.36880 0.07230 0.95075 0.28300
C 	C 	0.40120 0.16950 0.99293 -0.28500
C 	C 	0.32820 0.18020 0.04855 0.16300
C 	C 	0.22090 0.09710 0.06261 -0.22800
C 	C 	0.18780 0.00140 0.02079 0.16700
C 	C 	0.26300 0.98930 0.96559 -0.29300
C 	C 	0.14120 0.10970 0.12244 0.39800
C 	C 	0.44500 0.43400 0.61059 -0.47800
C 	C 	0.36770 0.42310 0.54942 0.29100
C 	C 	0.40390 0.32810 0.50685 -0.29100
C 	C 	0.33280 0.31790 0.45043 0.16800
C 	C 	0.22510 0.40080 0.43610 -0.23500
C 	C 	0.18950 0.49420 0.47814 0.17600
C 	C 	0.26180 0.50620 0.53432 -0.30100
C 	C 	0.14750 0.38960 0.37526 0.41000
C 	C 	0.94950 0.43930 0.10986 -0.46800
C 	C 	0.86880 0.42770 0.04925 0.28300
C 	C 	0.90120 0.33050 0.00707 -0.28600
C 	C 	0.82820 0.31980 0.95145 0.16400
C 	C 	0.72090 0.40290 0.93739 -0.22900
C 	C 	0.68780 0.49860 0.97921 0.17000
C 	C 	0.76300 0.51070 0.03441 -0.29500
C 	C 	0.64120 0.39030 0.87756 0.39900
C 	C 	0.94500 0.06600 0.38941 -0.47600
C 	C 	0.86770 0.07690 0.45058 0.29100
C 	C 	0.90390 0.17190 0.49315 -0.29100
C 	C 	0.83280 0.18210 0.54957 0.16800
C 	C 	0.72510 0.09920 0.56390 -0.23500
C 	C 	0.68950 0.00580 0.52186 0.17800
C 	C 	0.76180 0.99380 0.46568 -0.30200
C 	C 	0.64750 0.11040 0.62474 0.41100
C 	C 	0.55050 0.93930 0.10986 -0.46900
C 	C 	0.63120 0.92770 0.04925 0.28300
C 	C 	0.59880 0.83050 0.00707 -0.28500
C 	C 	0.67180 0.81980 0.95145 0.16300
C 	C 	0.77910 0.90290 0.93739 -0.22800
C 	C 	0.81220 0.99860 0.97921 0.16700
C 	C 	0.73700 0.01070 0.03441 -0.29300
C 	C 	0.85880 0.89030 0.87756 0.39800
C 	C 	0.55500 0.56600 0.38941 -0.47800
C 	C 	0.63230 0.57690 0.45058 0.29100
C 	C 	0.59610 0.67190 0.49315 -0.29100
C 	C 	0.66720 0.68210 0.54957 0.16800
C 	C 	0.77490 0.59920 0.56390 -0.23500
C 	C 	0.81050 0.50580 0.52186 0.17600
C 	C 	0.73820 0.49380 0.46568 -0.30100
C 	C 	0.85250 0.61040 0.62474 0.41000
C 	C 	0.05050 0.56070 0.89014 -0.46800
C 	C 	0.13120 0.57230 0.95075 0.28300
C 	C 	0.09880 0.66950 0.99293 -0.28600
C 	C 	0.17180 0.68020 0.04855 0.16400
C 	C 	0.27910 0.59710 0.06261 -0.22900
C 	C 	0.31220 0.50140 0.02079 0.17000
C 	C 	0.23700 0.48930 0.96559 -0.29500
C 	C 	0.35880 0.60970 0.12244 0.39900
C 	C 	0.05500 0.93400 0.61059 -0.47600
C 	C 	0.13230 0.92310 0.54942 0.29100
C 	C 	0.09610 0.82810 0.50685 -0.29100
C 	C 	0.16720 0.81790 0.45043 0.16800
C 	C 	0.27490 0.90080 0.43610 -0.23500
C 	C 	0.31050 0.99420 0.47814 0.17800
C 	C 	0.23820 0.00620 0.53432 -0.30200
C 	C 	0.35250 0.88960 0.37526 0.41100
O 	O 	0.47090 0.12450 0.77172 -0.61400
O 	O 	0.22660 0.06940 0.80873 -0.50900
O 	O 	0.33180 0.26970 0.84567 -0.47700
O 	O 	0.16120 0.20470 0.15587 -0.51800
O 	O 	0.05600 0.02160 0.13614 -0.49200
O 	O 	0.21480 0.42000 0.68802 -0.49900
O 	O 	0.46150 0.37480 0.72872 -0.62000
O 	O 	0.33370 0.22280 0.65530 -0.47600
O 	O 	0.06440 0.47810 0.36138 -0.49500
O 	O 	0.16890 0.29520 0.34160 -0.52400
O 	O 	0.97090 0.37550 0.22828 -0.61400
O 	O 	0.72660 0.43060 0.19127 -0.50900
O 	O 	0.83180 0.23030 0.15433 -0.47700
O 	O 	0.66120 0.29530 0.84413 -0.51800
O 	O 	0.55600 0.47840 0.86386 -0.49100
O 	O 	0.71480 0.08000 0.31198 -0.49900
O 	O 	0.96150 0.12520 0.27128 -0.61900
O 	O 	0.83370 0.27720 0.34470 -0.47600
O 	O 	0.56440 0.02190 0.63862 -0.49500
O 	O 	0.66890 0.20480 0.65840 -0.52400
O 	O 	0.52910 0.87550 0.22828 -0.61400
O 	O 	0.77340 0.93060 0.19127 -0.50900
O 	O 	0.66820 0.73030 0.15433 -0.47700
O 	O 	0.83880 0.79530 0.84413 -0.51800
O 	O 	0.94400 0.97840 0.86386 -0.49200
O 	O 	0.78520 0.58000 0.31198 -0.49900
O 	O 	0.53850 0.62520 0.27128 -0.62000
O 	O 	0.66630 0.77720 0.34470 -0.47600
O 	O 	0.93560 0.52190 0.63862 -0.49500
O 	O 	0.83110 0.70480 0.65840 -0.52400
O 	O 	0.02910 0.62450 0.77172 -0.61400
O 	O 	0.27340 0.56940 0.80873 -0.50900
O 	O 	0.16820 0.76970 0.84567 -0.47700
O 	O 	0.33880 0.70470 0.15587 -0.51800
O 	O 	0.44400 0.52160 0.13614 -0.49100
O 	O 	0.28520 0.92000 0.68802 -0.49900
O 	O 	0.03850 0.87480 0.72872 -0.61900
O 	O 	0.16630 0.72280 0.65530 -0.47600
O 	O 	0.43560 0.97810 0.36138 -0.49500
O 	O 	0.33110 0.79520 0.34160 -0.52400
