data_crystal

_cell_length_a 9.84380
_cell_length_b 13.20670
_cell_length_c 16.49190
_cell_angle_alpha 81.12080
_cell_angle_beta  72.63580
_cell_angle_gamma 68.11880

_symmetry_space_group_name_	'P 1'
_symmetry_space_group_name_H-M	'P 1'

loop_
_symmetry_equiv_pos_as_xyz
  x,y,z

loop_
_atom_site_label
_atom_site_type_symbol
_atom_site_fract_x
_atom_site_fract_y
_atom_site_fract_z
_atom_site_charge
Sm	Sm	0.62669 0.38190 0.57286 2.04500
Sm	Sm	0.58145 0.11810 0.92714 2.02200
Sm	Sm	0.37331 0.61810 0.42714 2.04500
Sm	Sm	0.41855 0.88190 0.07286 2.02200
Zn	Zn	0.24719 0.11040 0.31780 1.19900
Zn	Zn	0.17970 0.16051 0.54571 1.15900
Zn	Zn	0.67539 0.38960 0.18220 1.19900
Zn	Zn	0.88592 0.33949 0.95429 1.15800
Zn	Zn	0.75281 0.88960 0.68220 1.20000
Zn	Zn	0.82030 0.83949 0.45429 1.16000
Zn	Zn	0.32461 0.61040 0.81780 1.19900
Zn	Zn	0.11408 0.66051 0.04571 1.15800
H 	H 	0.02250 0.18530 0.18330 -0.03600
H 	H 	0.41580 0.93010 0.62990 -0.04300
H 	H 	0.39110 0.31470 0.31670 -0.03800
H 	H 	0.97580 0.56990 0.87010 -0.04400
H 	H 	0.97750 0.81470 0.81670 -0.03600
H 	H 	0.58420 0.06990 0.37010 -0.04300
H 	H 	0.60890 0.68530 0.68330 -0.03800
H 	H 	0.02420 0.43010 0.12990 -0.04400
C 	C 	0.97760 0.27040 0.43780 0.40900
C 	C 	0.93560 0.27280 0.35840 -0.07300
C 	C 	0.80970 0.33250 0.32810 -0.06900
C 	C 	0.66640 0.42420 0.35740 0.36800
C 	C 	0.97510 0.22190 0.23370 0.11000
C 	C 	0.73330 0.10260 0.59140 0.36200
C 	C 	0.59750 0.08280 0.58820 -0.08100
C 	C 	0.47060 0.14340 0.56020 -0.07000
C 	C 	0.41750 0.25420 0.51960 0.37200
C 	C 	0.45290 0.98740 0.61240 0.10300
C 	C 	0.68580 0.22960 0.06220 0.40800
C 	C 	0.56680 0.22720 0.14160 -0.07200
C 	C 	0.47030 0.16750 0.17190 -0.06700
C 	C 	0.44800 0.07580 0.14260 0.36700
C 	C 	0.43070 0.27810 0.26630 0.11000
C 	C 	0.42730 0.39740 0.90860 0.36100
C 	C 	0.26850 0.41720 0.91180 -0.07800
C 	C 	0.17420 0.35660 0.93980 -0.06900
C 	C 	0.19130 0.24580 0.98040 0.36600
C 	C 	0.05270 0.51260 0.88760 0.10300
C 	C 	0.02240 0.72960 0.56220 0.40900
C 	C 	0.06440 0.72720 0.64160 -0.07300
C 	C 	0.19030 0.66750 0.67190 -0.06900
C 	C 	0.33360 0.57580 0.64260 0.36800
C 	C 	0.02490 0.77810 0.76630 0.11000
C 	C 	0.26670 0.89740 0.40860 0.36200
C 	C 	0.40250 0.91720 0.41180 -0.08100
C 	C 	0.52940 0.85660 0.43980 -0.07000
C 	C 	0.58250 0.74580 0.48040 0.37200
C 	C 	0.54710 0.01260 0.38760 0.10300
C 	C 	0.31420 0.77040 0.93780 0.40800
C 	C 	0.43320 0.77280 0.85840 -0.07200
C 	C 	0.52970 0.83250 0.82810 -0.06700
C 	C 	0.55200 0.92420 0.85740 0.36700
C 	C 	0.56930 0.72190 0.73370 0.11000
C 	C 	0.57270 0.60260 0.09140 0.36100
C 	C 	0.73150 0.58280 0.08820 -0.07800
C 	C 	0.82580 0.64340 0.06020 -0.06900
C 	C 	0.80870 0.75420 0.01960 0.36600
C 	C 	0.94730 0.48740 0.11240 0.10300
C 	C 	0.52700 0.25000 0.75000 0.25900
C 	C 	0.68520 0.25000 0.75000 0.30300
C 	C 	0.47300 0.75000 0.25000 0.25900
C 	C 	0.31480 0.75000 0.25000 0.30300
N 	N 	0.83663 0.29774 0.24840 -0.24700
N 	N 	0.03936 0.20338 0.29750 -0.24500
N 	N 	0.37894 0.08172 0.57580 -0.27800
N 	N 	0.58528 0.98424 0.62120 -0.25400
N 	N 	0.38277 0.20226 0.25160 -0.24700
N 	N 	0.54024 0.29662 0.20250 -0.24500
N 	N 	0.03646 0.41828 0.92420 -0.27700
N 	N 	0.19072 0.51576 0.87880 -0.25500
N 	N 	0.16337 0.70226 0.75160 -0.24700
N 	N 	0.96064 0.79662 0.70250 -0.24500
N 	N 	0.62106 0.91828 0.42420 -0.27800
N 	N 	0.41472 0.01576 0.37880 -0.25400
N 	N 	0.61723 0.79774 0.74840 -0.24700
N 	N 	0.45976 0.70338 0.79750 -0.24500
N 	N 	0.96354 0.58172 0.07580 -0.27700
N 	N 	0.80928 0.48424 0.12120 -0.25500
O 	O 	0.89290 0.33385 0.49515 -0.52200
O 	O 	0.10600 0.19920 0.44140 -0.61100
O 	O 	0.63013 0.46496 0.42958 -0.58500
O 	O 	0.58118 0.46344 0.30860 -0.52100
O 	O 	0.82234 0.02772 0.62800 -0.45400
O 	O 	0.75567 0.18956 0.56050 -0.47900
O 	O 	0.48873 0.31814 0.50880 -0.49000
O 	O 	0.29553 0.27894 0.49820 -0.45200
O 	O 	0.47251 0.30408 0.69110 -0.42600
O 	O 	0.73750 0.31012 0.69488 -0.47400
O 	O 	0.72190 0.16615 0.00485 -0.51500
O 	O 	0.74660 0.30080 0.05860 -0.61000
O 	O 	0.52467 0.03504 0.07042 -0.57600
O 	O 	0.35322 0.03656 0.19140 -0.51600
O 	O 	0.47806 0.47228 0.87200 -0.45100
O 	O 	0.50573 0.31044 0.93950 -0.47800
O 	O 	0.31567 0.18186 0.99120 -0.49000
O 	O 	0.07267 0.22106 0.00180 -0.44600
O 	O 	0.46769 0.19592 0.80890 -0.42600
O 	O 	0.74250 0.18988 0.80512 -0.47400
O 	O 	0.10710 0.66615 0.50485 -0.52200
O 	O 	0.89400 0.80080 0.55860 -0.61100
O 	O 	0.36987 0.53504 0.57042 -0.58500
O 	O 	0.41882 0.53656 0.69140 -0.52100
O 	O 	0.17766 0.97228 0.37200 -0.45400
O 	O 	0.24433 0.81044 0.43950 -0.47900
O 	O 	0.51127 0.68186 0.49120 -0.49000
O 	O 	0.70447 0.72106 0.50180 -0.45200
O 	O 	0.52749 0.69592 0.30890 -0.42600
O 	O 	0.26250 0.68988 0.30512 -0.47400
O 	O 	0.27810 0.83385 0.99515 -0.51500
O 	O 	0.25340 0.69920 0.94140 -0.61000
O 	O 	0.47533 0.96496 0.92958 -0.57600
O 	O 	0.64678 0.96344 0.80860 -0.51600
O 	O 	0.52194 0.52772 0.12800 -0.45100
O 	O 	0.49427 0.68956 0.06050 -0.47800
O 	O 	0.68433 0.81814 0.00880 -0.49000
O 	O 	0.92733 0.77894 0.99820 -0.44600
O 	O 	0.53231 0.80408 0.19110 -0.42600
O 	O 	0.25750 0.81012 0.19488 -0.47400
