data_crystal

_cell_length_a 13.23700
_cell_length_b 14.69800
_cell_length_c 14.87000
_cell_angle_alpha 90.00000
_cell_angle_beta  90.00000
_cell_angle_gamma 90.00000

_symmetry_space_group_name_	'P 1'
_symmetry_space_group_name_H-M	'P 1'

loop_
_symmetry_equiv_pos_as_xyz
  x,y,z

loop_
_atom_site_label
_atom_site_type_symbol
_atom_site_fract_x
_atom_site_fract_y
_atom_site_fract_z
_atom_site_charge
Cd	Cd	0.23831 0.06321 0.61010 1.15300
Cd	Cd	0.26169 0.56321 0.88990 1.15300
Cd	Cd	0.76169 0.43679 0.61010 1.16000
Cd	Cd	0.73831 0.93679 0.88990 1.15800
Cd	Cd	0.76169 0.93679 0.38990 1.15800
Cd	Cd	0.73831 0.43679 0.11010 1.16000
Cd	Cd	0.23831 0.56321 0.38990 1.15400
Cd	Cd	0.26169 0.06321 0.11010 1.15500
Cd	Cd	0.00000 0.75000 0.64885 1.13700
Cd	Cd	0.50000 0.25000 0.85115 1.17000
Cd	Cd	0.00000 0.25000 0.35115 1.13600
Cd	Cd	0.50000 0.75000 0.14885 1.16900
H 	H 	0.45600 0.00090 0.33330 0.09300
H 	H 	0.32800 0.86140 0.51910 -0.01000
H 	H 	0.42080 0.84940 0.37720 -0.01600
H 	H 	0.35350 0.17590 0.47690 0.18400
H 	H 	0.35390 0.16360 0.37220 0.19600
H 	H 	0.45620 0.16650 0.42520 0.21100
H 	H 	0.04400 0.50090 0.16670 0.06200
H 	H 	0.17200 0.36140 0.98090 -0.01700
H 	H 	0.07920 0.34940 0.12280 -0.03000
H 	H 	0.14650 0.67590 0.02310 0.14900
H 	H 	0.14610 0.66360 0.12780 0.16100
H 	H 	0.04380 0.66650 0.07480 0.15000
H 	H 	0.54400 0.49910 0.33330 0.09100
H 	H 	0.67200 0.63860 0.51910 -0.00700
H 	H 	0.57920 0.65060 0.37720 -0.01300
H 	H 	0.64650 0.32410 0.47690 0.18900
H 	H 	0.64610 0.33640 0.37220 0.20200
H 	H 	0.54380 0.33350 0.42520 0.21300
H 	H 	0.95600 0.99910 0.16670 0.10900
H 	H 	0.82800 0.13860 0.98090 -0.00500
H 	H 	0.92080 0.15060 0.12280 0.00600
H 	H 	0.85350 0.82410 0.02310 0.21900
H 	H 	0.85390 0.83640 0.12780 0.23000
H 	H 	0.95620 0.83350 0.07480 0.26800
H 	H 	0.54400 0.99910 0.66670 0.08700
H 	H 	0.67200 0.13860 0.48090 -0.00900
H 	H 	0.57920 0.15060 0.62280 -0.01200
H 	H 	0.64650 0.82410 0.52310 0.18700
H 	H 	0.64610 0.83640 0.62780 0.19900
H 	H 	0.54380 0.83350 0.57480 0.21100
H 	H 	0.95600 0.49910 0.83330 0.12000
H 	H 	0.82800 0.63860 0.01910 -0.00300
H 	H 	0.92080 0.65060 0.87720 0.00300
H 	H 	0.85350 0.32410 0.97690 0.22400
H 	H 	0.85390 0.33640 0.87220 0.23600
H 	H 	0.95620 0.33350 0.92520 0.27500
H 	H 	0.45600 0.50090 0.66670 0.08900
H 	H 	0.32800 0.36140 0.48090 -0.01100
H 	H 	0.42080 0.34940 0.62280 -0.01500
H 	H 	0.35350 0.67590 0.52310 0.18300
H 	H 	0.35390 0.66360 0.62780 0.19400
H 	H 	0.45620 0.66650 0.57480 0.20900
H 	H 	0.04400 0.00090 0.83330 0.06100
H 	H 	0.17200 0.86140 0.01910 -0.01800
H 	H 	0.07920 0.84940 0.87720 -0.02900
H 	H 	0.14650 0.17590 0.97690 0.14700
H 	H 	0.14610 0.16360 0.87220 0.15900
H 	H 	0.04380 0.16650 0.92520 0.14700
C 	C 	0.15040 0.94070 0.64710 -0.27700
C 	C 	0.16220 0.64180 0.79990 -0.29000
C 	C 	0.14560 0.65070 0.48240 -0.28100
C 	C 	0.38300 0.04640 0.43870 0.25900
C 	C 	0.35140 0.90960 0.48430 -0.04500
C 	C 	0.40280 0.90280 0.40670 0.02000
C 	C 	0.38700 0.14700 0.42720 -0.72300
C 	C 	0.34960 0.44070 0.85290 -0.26800
C 	C 	0.33780 0.14180 0.70010 -0.27300
C 	C 	0.35440 0.15070 0.01760 -0.25700
C 	C 	0.11700 0.54640 0.06130 0.21300
C 	C 	0.14860 0.40960 0.01570 -0.05200
C 	C 	0.09720 0.40280 0.09330 0.00100
C 	C 	0.11300 0.64700 0.07280 -0.63400
C 	C 	0.84960 0.55930 0.64710 -0.24400
C 	C 	0.83780 0.85820 0.79990 -0.24900
C 	C 	0.85440 0.84930 0.48240 -0.23500
C 	C 	0.61700 0.45360 0.43870 0.26400
C 	C 	0.64860 0.59040 0.48430 -0.03700
C 	C 	0.59720 0.59720 0.40670 0.02200
C 	C 	0.61300 0.35300 0.42720 -0.73000
C 	C 	0.65040 0.05930 0.85290 -0.25100
C 	C 	0.66220 0.35820 0.70010 -0.26300
C 	C 	0.64560 0.34930 0.01760 -0.25700
C 	C 	0.88300 0.95360 0.06130 0.29400
C 	C 	0.85140 0.09040 0.01570 -0.01800
C 	C 	0.90280 0.09720 0.09330 0.03300
C 	C 	0.88700 0.85300 0.07280 -0.80100
C 	C 	0.84960 0.05930 0.35290 -0.24000
C 	C 	0.83780 0.35820 0.20010 -0.24700
C 	C 	0.85440 0.34930 0.51760 -0.23200
C 	C 	0.61700 0.95360 0.56130 0.25800
C 	C 	0.64860 0.09040 0.51570 -0.03000
C 	C 	0.59720 0.09720 0.59330 0.01900
C 	C 	0.61300 0.85300 0.57280 -0.72400
C 	C 	0.65040 0.55930 0.14710 -0.25400
C 	C 	0.66220 0.85820 0.29990 -0.26500
C 	C 	0.64560 0.84930 0.98240 -0.25800
C 	C 	0.88300 0.45360 0.93870 0.30700
C 	C 	0.85140 0.59040 0.98430 -0.02800
C 	C 	0.90280 0.59720 0.90670 0.03900
C 	C 	0.88700 0.35300 0.92720 -0.81700
C 	C 	0.15040 0.44070 0.35290 -0.27800
C 	C 	0.16220 0.14180 0.20010 -0.28900
C 	C 	0.14560 0.15070 0.51760 -0.28100
C 	C 	0.38300 0.54640 0.56130 0.25600
C 	C 	0.35140 0.40960 0.51570 -0.04300
C 	C 	0.40280 0.40280 0.59330 0.01800
C 	C 	0.38700 0.64700 0.57280 -0.71900
C 	C 	0.34960 0.94070 0.14710 -0.26900
C 	C 	0.33780 0.64180 0.29990 -0.27300
C 	C 	0.35440 0.65070 0.98240 -0.25700
C 	C 	0.11700 0.04640 0.93870 0.21100
C 	C 	0.14860 0.90960 0.98430 -0.04900
C 	C 	0.09720 0.90280 0.90670 0.00100
C 	C 	0.11300 0.14700 0.92720 -0.62900
N 	N 	0.10290 0.87870 0.65510 -0.21200
N 	N 	0.10530 0.68040 0.75720 -0.21000
N 	N 	0.10150 0.68740 0.53550 -0.21800
N 	N 	0.42250 0.98660 0.38080 -0.25300
N 	N 	0.33960 0.00020 0.50320 -0.29300
N 	N 	0.39710 0.37870 0.84490 -0.19700
N 	N 	0.39470 0.18040 0.74280 -0.19000
N 	N 	0.39850 0.18740 0.96450 -0.20200
N 	N 	0.07750 0.48660 0.11920 -0.24000
N 	N 	0.16040 0.50020 0.99680 -0.29200
N 	N 	0.89710 0.62130 0.65510 -0.17300
N 	N 	0.89470 0.81960 0.75720 -0.16400
N 	N 	0.89850 0.81260 0.53550 -0.17600
N 	N 	0.57750 0.51340 0.38080 -0.24900
N 	N 	0.66040 0.49980 0.50320 -0.29100
N 	N 	0.60290 0.12130 0.84490 -0.19800
N 	N 	0.60530 0.31960 0.74280 -0.19100
N 	N 	0.60150 0.31260 0.96450 -0.20100
N 	N 	0.92250 0.01340 0.11920 -0.24400
N 	N 	0.83960 0.99980 0.99680 -0.29600
N 	N 	0.89710 0.12130 0.34490 -0.17200
N 	N 	0.89470 0.31960 0.24280 -0.16200
N 	N 	0.89850 0.31260 0.46450 -0.17400
N 	N 	0.57750 0.01340 0.61920 -0.24300
N 	N 	0.66040 0.99980 0.49680 -0.29400
N 	N 	0.60290 0.62130 0.15510 -0.19700
N 	N 	0.60530 0.81960 0.25720 -0.19100
N 	N 	0.60150 0.81260 0.03550 -0.20200
N 	N 	0.92250 0.51340 0.88080 -0.25800
N 	N 	0.83960 0.49980 0.00320 -0.29300
N 	N 	0.10290 0.37870 0.34490 -0.21300
N 	N 	0.10530 0.18040 0.24280 -0.21000
N 	N 	0.10150 0.18740 0.46450 -0.21900
N 	N 	0.42250 0.48660 0.61920 -0.24900
N 	N 	0.33960 0.50020 0.49680 -0.29400
N 	N 	0.39710 0.87870 0.15510 -0.19700
N 	N 	0.39470 0.68040 0.25720 -0.19100
N 	N 	0.39850 0.68740 0.03550 -0.20200
N 	N 	0.07750 0.98660 0.88080 -0.23700
N 	N 	0.16040 0.00020 0.00320 -0.29200
