data_crystal

_cell_length_a 11.09000
_cell_length_b 11.32000
_cell_length_c 16.24300
_cell_angle_alpha 74.94000
_cell_angle_beta  82.76000
_cell_angle_gamma 75.06000

_symmetry_space_group_name_	'P 1'
_symmetry_space_group_name_H-M	'P 1'

loop_
_symmetry_equiv_pos_as_xyz
  x,y,z

loop_
_atom_site_label
_atom_site_type_symbol
_atom_site_fract_x
_atom_site_fract_y
_atom_site_fract_z
_atom_site_charge
O 	O 	0.35210 0.43380 0.00730 -0.56600
O 	O 	0.52120 0.42230 0.91640 -0.56800
O 	O 	0.92510 0.50140 0.76170 -0.59400
O 	O 	0.93090 0.48000 0.89910 -0.48700
C 	C 	0.12390 0.43650 0.81640 -0.15400
O 	O 	0.85920 0.78840 0.72730 -0.54400
O 	O 	0.72360 0.70450 0.82430 -0.57000
C 	C 	0.77810 0.79070 0.78740 0.50500
C 	C 	0.73410 0.91280 0.81740 -0.15800
C 	C 	0.77710 0.01950 0.77110 0.07500
H 	H 	0.83120 0.01550 0.72280 0.00900
C 	C 	0.65390 0.91700 0.88800 -0.00000
H 	H 	0.62510 0.84620 0.91700 0.04600
O 	O 	0.29760 0.33420 0.35430 -0.59100
O 	O 	0.43600 0.40340 0.25080 -0.50200
C 	C 	0.40360 0.36100 0.32790 0.46500
C 	C 	0.40740 0.42430 0.93480 0.51500
Nd	Nd	0.08707 0.34091 0.37296 1.89700
Nd	Nd	0.70867 0.49371 0.86533 2.32100
O 	O 	0.88670 0.38290 0.45750 -0.51000
O 	O 	0.87670 0.31750 0.34660 -0.43900
O 	O 	0.74230 0.34570 0.78350 -0.56200
N 	N 	0.36110 0.36030 0.64600 -0.09100
O 	O 	0.85760 0.24170 0.69010 -0.32800
C 	C 	0.78570 0.24640 0.75480 0.42200
C 	C 	0.82530 0.34550 0.41430 0.35500
N 	N 	0.47740 0.35010 0.62960 -0.08200
C 	C 	0.48720 0.34510 0.39800 -0.15300
C 	C 	0.19940 0.43900 0.88130 0.07900
H 	H 	0.16250 0.45520 0.93320 0.00800
C 	C 	0.61280 0.34360 0.37630 0.05800
H 	H 	0.64380 0.34550 0.32010 0.02900
N 	N 	0.52440 0.04580 0.98460 -0.08700
C 	C 	0.44000 0.34410 0.48070 0.00400
H 	H 	0.35590 0.34530 0.49540 0.00800
C 	C 	0.65830 0.13470 0.87000 0.00000
H 	H 	0.63240 0.20920 0.88820 0.01600
C 	C 	0.51920 0.34110 0.54340 0.04800
C 	C 	0.61460 0.02840 0.91710 0.03400
C 	C 	0.69420 0.33940 0.43750 -0.10600
C 	C 	0.31580 0.38020 0.72840 0.03100
C 	C 	0.38870 0.38820 0.79220 0.01700
H 	H 	0.47530 0.37420 0.78390 0.03900
C 	C 	0.64520 0.34020 0.52270 -0.04000
H 	H 	0.69640 0.34010 0.56390 0.06000
C 	C 	0.32890 0.41650 0.86550 -0.16900
C 	C 	0.73750 0.13150 0.79860 -0.15000
C 	C 	0.18790 0.40400 0.74070 0.00800
H 	H 	0.14160 0.39870 0.69840 -0.00200
C 	C 	0.98740 0.47700 0.82880 0.40400
O 	O 	0.64790 0.56620 0.99270 -0.56600
O 	O 	0.47880 0.57770 0.08360 -0.56800
O 	O 	0.07490 0.49860 0.23830 -0.59400
O 	O 	0.06910 0.52000 0.10090 -0.48700
C 	C 	0.87610 0.56350 0.18360 -0.15400
O 	O 	0.14080 0.21160 0.27270 -0.54400
O 	O 	0.27640 0.29550 0.17570 -0.57000
C 	C 	0.22190 0.20930 0.21260 0.50500
C 	C 	0.26590 0.08720 0.18260 -0.15800
C 	C 	0.22290 0.98050 0.22890 0.07500
H 	H 	0.16880 0.98450 0.27720 0.00900
C 	C 	0.34610 0.08300 0.11200 -0.00000
H 	H 	0.37490 0.15380 0.08300 0.04600
O 	O 	0.70240 0.66580 0.64570 -0.59100
O 	O 	0.56400 0.59660 0.74920 -0.50200
C 	C 	0.59640 0.63900 0.67210 0.46500
C 	C 	0.59260 0.57570 0.06520 0.51500
Nd	Nd	0.91293 0.65909 0.62704 1.89700
Nd	Nd	0.29133 0.50629 0.13467 2.32100
O 	O 	0.11330 0.61710 0.54250 -0.51000
O 	O 	0.12330 0.68250 0.65340 -0.43900
O 	O 	0.25770 0.65430 0.21650 -0.56200
N 	N 	0.63890 0.63970 0.35400 -0.09100
O 	O 	0.14240 0.75830 0.30990 -0.32800
C 	C 	0.21430 0.75360 0.24520 0.42200
C 	C 	0.17470 0.65450 0.58570 0.35500
N 	N 	0.52260 0.64990 0.37040 -0.08200
C 	C 	0.51280 0.65490 0.60200 -0.15300
C 	C 	0.80060 0.56100 0.11870 0.07900
H 	H 	0.83750 0.54480 0.06680 0.00800
C 	C 	0.38720 0.65640 0.62370 0.05800
H 	H 	0.35620 0.65450 0.67990 0.02900
N 	N 	0.47560 0.95420 0.01540 -0.08700
C 	C 	0.56000 0.65590 0.51930 0.00400
H 	H 	0.64410 0.65470 0.50460 0.00800
C 	C 	0.34170 0.86530 0.13000 0.00000
H 	H 	0.36760 0.79080 0.11180 0.01600
C 	C 	0.48080 0.65890 0.45660 0.04800
C 	C 	0.38540 0.97160 0.08290 0.03400
C 	C 	0.30580 0.66060 0.56250 -0.10600
C 	C 	0.68420 0.61980 0.27160 0.03100
C 	C 	0.61130 0.61180 0.20780 0.01700
H 	H 	0.52470 0.62580 0.21610 0.03900
C 	C 	0.35480 0.65980 0.47730 -0.04000
H 	H 	0.30360 0.65990 0.43610 0.06000
C 	C 	0.67110 0.58350 0.13450 -0.16900
C 	C 	0.26250 0.86850 0.20140 -0.15000
C 	C 	0.81210 0.59600 0.25930 0.00800
H 	H 	0.85840 0.60130 0.30160 -0.00200
C 	C 	0.01260 0.52300 0.17120 0.40400
