data_crystal

_cell_length_a 10.13400
_cell_length_b 10.35520
_cell_length_c 10.74360
_cell_angle_alpha 78.16250
_cell_angle_beta  89.43000
_cell_angle_gamma 65.23900

_symmetry_space_group_name_	'P 1'
_symmetry_space_group_name_H-M	'P 1'

loop_
_symmetry_equiv_pos_as_xyz
  x,y,z

loop_
_atom_site_label
_atom_site_type_symbol
_atom_site_fract_x
_atom_site_fract_y
_atom_site_fract_z
_atom_site_charge
La	La	0.03339 0.20630 0.00051 1.55500
La	La	0.96661 0.79370 0.99949 1.55500
H 	H 	0.52170 0.83080 0.96960 0.03800
H 	H 	0.65690 0.44590 0.85990 0.08500
H 	H 	0.23220 0.73440 0.79300 0.04300
H 	H 	0.43380 0.68460 0.56520 0.08900
H 	H 	0.31210 0.76790 0.36020 0.02100
H 	H 	0.10930 0.50250 0.45840 0.04900
H 	H 	0.25000 0.38560 0.78100 0.11900
H 	H 	0.14420 0.36470 0.68080 0.11700
H 	H 	0.47830 0.16920 0.03040 0.03800
H 	H 	0.34310 0.55410 0.14010 0.08500
H 	H 	0.76780 0.26560 0.20700 0.04300
H 	H 	0.56620 0.31540 0.43480 0.08900
H 	H 	0.68790 0.23210 0.63980 0.02100
H 	H 	0.89070 0.49750 0.54160 0.04900
H 	H 	0.75000 0.61440 0.21900 0.11900
H 	H 	0.85580 0.63530 0.31920 0.11700
C 	C 	0.23480 0.94270 0.89590 0.30300
C 	C 	0.35840 0.80370 0.88410 -0.06700
C 	C 	0.50050 0.76560 0.93180 0.00200
C 	C 	0.61040 0.63230 0.92360 -0.07000
C 	C 	0.76530 0.58520 0.97720 0.36000
C 	C 	0.58170 0.53790 0.86460 -0.10000
C 	C 	0.44100 0.58080 0.81290 0.16500
C 	C 	0.32880 0.70960 0.82480 -0.10300
C 	C 	0.34330 0.54420 0.63160 0.13600
C 	C 	0.36790 0.64770 0.54310 -0.15100
C 	C 	0.29550 0.69720 0.42160 0.04600
C 	C 	0.19900 0.64310 0.39030 -0.09500
C 	C 	0.11870 0.69600 0.26050 0.31500
C 	C 	0.17580 0.53870 0.48040 -0.03500
C 	C 	0.24840 0.48630 0.60230 0.02100
C 	C 	0.76520 0.05730 0.10410 0.30300
C 	C 	0.64160 0.19630 0.11590 -0.06700
C 	C 	0.49950 0.23440 0.06820 0.00200
C 	C 	0.38960 0.36770 0.07640 -0.07000
C 	C 	0.23470 0.41480 0.02280 0.36000
C 	C 	0.41830 0.46210 0.13540 -0.10000
C 	C 	0.55900 0.41920 0.18710 0.16500
C 	C 	0.67120 0.29040 0.17520 -0.10300
C 	C 	0.65670 0.45580 0.36840 0.13600
C 	C 	0.63210 0.35230 0.45690 -0.15100
C 	C 	0.70450 0.30280 0.57840 0.04600
C 	C 	0.80100 0.35690 0.60970 -0.09500
C 	C 	0.88130 0.30400 0.73950 0.31500
C 	C 	0.82420 0.46130 0.51960 -0.03500
C 	C 	0.75160 0.51370 0.39770 0.02100
N 	N 	0.23690 0.37480 0.69220 -0.19700
N 	N 	0.76310 0.62520 0.30780 -0.19700
O 	O 	0.10840 0.94660 0.91150 -0.45300
O 	O 	0.25830 0.05380 0.89250 -0.35500
O 	O 	0.85200 0.45280 0.99090 -0.43800
O 	O 	0.79680 0.68190 0.00600 -0.41500
O 	O 	0.41550 0.48500 0.75340 -0.24000
O 	O 	0.15850 0.76910 0.17170 -0.37700
O 	O 	0.01520 0.66410 0.24080 -0.36800
O 	O 	0.89160 0.05340 0.08850 -0.45300
O 	O 	0.74170 0.94620 0.10750 -0.35500
O 	O 	0.14800 0.54720 0.00910 -0.43800
O 	O 	0.20320 0.31810 0.99400 -0.41500
O 	O 	0.58450 0.51500 0.24660 -0.24000
O 	O 	0.84150 0.23090 0.82830 -0.37700
O 	O 	0.98480 0.33590 0.75920 -0.36800
