data_crystal

_cell_length_a 9.60470
_cell_length_b 10.04270
_cell_length_c 11.45890
_cell_angle_alpha 96.12600
_cell_angle_beta  97.20650
_cell_angle_gamma 111.85900

_symmetry_space_group_name_	'P 1'
_symmetry_space_group_name_H-M	'P 1'

loop_
_symmetry_equiv_pos_as_xyz
  x,y,z

loop_
_atom_site_label
_atom_site_type_symbol
_atom_site_fract_x
_atom_site_fract_y
_atom_site_fract_z
_atom_site_charge
Ce	Ce	0.71324 0.95492 0.00822 2.10400
Ce	Ce	0.28676 0.04508 0.99178 2.10400
H 	H 	0.68230 0.50510 0.97370 0.03200
H 	H 	0.80400 0.21040 0.78810 0.04100
H 	H 	0.07770 0.63840 0.84460 0.08200
H 	H 	0.82900 0.40960 0.58140 0.08200
H 	H 	0.74580 0.29680 0.38220 0.02300
H 	H 	0.05020 0.10720 0.41830 0.05700
H 	H 	0.16780 0.15270 0.68150 0.14200
H 	H 	0.26210 0.30380 0.68460 0.13100
H 	H 	0.31770 0.49490 0.02630 0.03100
H 	H 	0.19600 0.78960 0.21190 0.04000
H 	H 	0.92230 0.36160 0.15540 0.08200
H 	H 	0.17100 0.59040 0.41860 0.08200
H 	H 	0.25420 0.70320 0.61780 0.02300
H 	H 	0.94980 0.89280 0.58170 0.05700
H 	H 	0.83220 0.84730 0.31850 0.14200
H 	H 	0.73790 0.69620 0.31540 0.13100
C 	C 	0.92180 0.74700 0.97740 0.42000
C 	C 	0.88690 0.59320 0.92050 -0.09800
C 	C 	0.75250 0.48300 0.93200 0.02500
C 	C 	0.72050 0.33970 0.88260 -0.09800
C 	C 	0.42200 0.77890 0.10120 0.35100
C 	C 	0.82230 0.30820 0.81910 -0.08300
C 	C 	0.94980 0.42110 0.80200 0.15300
C 	C 	0.98630 0.56290 0.85400 -0.09800
C 	C 	0.99100 0.32630 0.61740 0.12800
C 	C 	0.87430 0.34850 0.54800 -0.14200
C 	C 	0.82460 0.28110 0.43010 0.03200
C 	C 	0.88960 0.19080 0.38180 -0.07200
C 	C 	0.82960 0.10950 0.25730 0.30100
C 	C 	0.00630 0.16950 0.45170 -0.06700
C 	C 	0.05930 0.23810 0.56930 0.04100
C 	C 	0.07820 0.25300 0.02260 0.42000
C 	C 	0.11310 0.40680 0.07950 -0.09800
C 	C 	0.24750 0.51700 0.06800 0.02500
C 	C 	0.27950 0.66030 0.11740 -0.09800
C 	C 	0.57800 0.22110 0.89880 0.35100
C 	C 	0.17770 0.69180 0.18090 -0.08300
C 	C 	0.05020 0.57890 0.19800 0.15300
C 	C 	0.01370 0.43710 0.14600 -0.09800
C 	C 	0.00900 0.67370 0.38260 0.12800
C 	C 	0.12570 0.65150 0.45200 -0.14200
C 	C 	0.17540 0.71890 0.56990 0.03200
C 	C 	0.11040 0.80920 0.61820 -0.07200
C 	C 	0.17040 0.89050 0.74270 0.30100
C 	C 	0.99370 0.83050 0.54830 -0.06700
C 	C 	0.94070 0.76190 0.43070 0.04100
N 	N 	0.18210 0.22510 0.64030 -0.25400
N 	N 	0.81790 0.77490 0.35970 -0.25400
O 	O 	0.54370 0.75730 0.10990 -0.45600
O 	O 	0.88180 0.01760 0.21770 -0.41100
O 	O 	0.81700 0.77350 0.01690 -0.54200
O 	O 	0.94610 0.15940 0.01610 -0.53400
O 	O 	0.41920 0.89970 0.07770 -0.61000
O 	O 	0.05060 0.39220 0.73460 -0.24000
O 	O 	0.72440 0.12970 0.19210 -0.43900
O 	O 	0.45630 0.24270 0.89010 -0.45600
O 	O 	0.11820 0.98240 0.78230 -0.41100
O 	O 	0.18300 0.22650 0.98310 -0.54200
O 	O 	0.05390 0.84060 0.98390 -0.53400
O 	O 	0.58080 0.10030 0.92230 -0.61000
O 	O 	0.94940 0.60780 0.26540 -0.24000
O 	O 	0.27560 0.87030 0.80790 -0.43900
