data_crystal

_cell_length_a 10.46400
_cell_length_b 12.01620
_cell_length_c 13.18460
_cell_angle_alpha 83.78000
_cell_angle_beta  86.01400
_cell_angle_gamma 75.65900

_symmetry_space_group_name_	'P 1'
_symmetry_space_group_name_H-M	'P 1'

loop_
_symmetry_equiv_pos_as_xyz
  x,y,z

loop_
_atom_site_label
_atom_site_type_symbol
_atom_site_fract_x
_atom_site_fract_y
_atom_site_fract_z
_atom_site_charge
Eu	Eu	0.39268 0.38214 0.95242 1.85700
O 	O 	0.15410 0.39870 0.02246 -0.37700
O 	O 	0.28990 0.22730 0.00797 -0.42700
O 	O 	0.38950 0.39090 0.13165 -0.46700
O 	O 	0.45470 0.54960 0.15731 -0.52800
O 	O 	0.66670 0.42010 0.04289 -0.53900
O 	O 	0.60070 0.26560 0.00839 -0.47200
O 	O 	0.35220 0.11190 0.43020 -0.44800
H 	H 	0.33020 0.05460 0.46210 0.26500
O 	O 	0.34830 0.16690 0.58700 -0.29000
C 	C 	0.47960 0.46140 0.46710 -0.01800
C 	C 	0.47090 0.48940 0.36150 0.02000
H 	H 	0.49220 0.55850 0.33150 0.01200
C 	C 	0.17480 0.29180 0.01880 0.29700
C 	C 	0.42510 0.45500 0.18700 0.46300
C 	C 	0.06060 0.23600 0.02070 -0.07300
C 	C 	0.39880 0.31750 0.34090 0.06400
H 	H 	0.37170 0.26930 0.29840 0.04600
C 	C 	0.44600 0.35890 0.50760 -0.00200
H 	H 	0.45070 0.33720 0.57900 0.03200
C 	C 	0.93180 0.30190 0.02510 0.03700
H 	H 	0.91370 0.38270 0.03010 0.02900
C 	C 	0.08710 0.11820 0.01190 -0.01700
H 	H 	0.17610 0.07440 0.00970 0.05500
C 	C 	0.68840 0.31620 0.02530 0.45800
C 	C 	0.85580 0.12990 0.01270 0.00300
H 	H 	0.78440 0.09450 0.01060 0.04300
C 	C 	0.43200 0.41880 0.29970 -0.14900
C 	C 	0.98560 0.06260 0.00620 -0.00700
C 	C 	0.82970 0.24760 0.02210 -0.13300
C 	C 	0.40630 0.28850 0.44580 -0.10500
C 	C 	0.36660 0.18300 0.49570 0.37000
Eu	Eu	0.60732 0.61786 0.04758 1.85800
O 	O 	0.84590 0.60130 0.97754 -0.37600
O 	O 	0.71010 0.77270 0.99203 -0.42700
O 	O 	0.61050 0.60910 0.86835 -0.46700
O 	O 	0.54530 0.45040 0.84269 -0.52800
O 	O 	0.33330 0.57990 0.95711 -0.53900
O 	O 	0.39930 0.73440 0.99161 -0.47200
O 	O 	0.64780 0.88810 0.56980 -0.44800
H 	H 	0.66980 0.94540 0.53790 0.26500
O 	O 	0.65170 0.83310 0.41300 -0.29000
C 	C 	0.52040 0.53860 0.53290 -0.01800
C 	C 	0.52910 0.51060 0.63850 0.02000
H 	H 	0.50780 0.44150 0.66850 0.01200
C 	C 	0.82520 0.70820 0.98120 0.29700
C 	C 	0.57490 0.54500 0.81300 0.46300
C 	C 	0.93940 0.76400 0.97930 -0.07300
C 	C 	0.60120 0.68250 0.65910 0.06400
H 	H 	0.62830 0.73070 0.70160 0.04600
C 	C 	0.55400 0.64110 0.49240 -0.00200
H 	H 	0.54930 0.66280 0.42100 0.03200
C 	C 	0.06820 0.69810 0.97490 0.03700
H 	H 	0.08630 0.61730 0.96990 0.02900
C 	C 	0.91290 0.88180 0.98810 -0.01700
H 	H 	0.82390 0.92560 0.99030 0.05500
C 	C 	0.31160 0.68380 0.97470 0.45800
C 	C 	0.14420 0.87010 0.98730 0.00300
H 	H 	0.21560 0.90550 0.98940 0.04300
C 	C 	0.56800 0.58120 0.70030 -0.14900
C 	C 	0.01440 0.93740 0.99380 -0.00700
C 	C 	0.17030 0.75240 0.97790 -0.13300
C 	C 	0.59370 0.71150 0.55420 -0.10500
C 	C 	0.63340 0.81700 0.50430 0.37000
