data_crystal

_cell_length_a 10.47020
_cell_length_b 12.01310
_cell_length_c 13.17650
_cell_angle_alpha 83.82700
_cell_angle_beta  85.92000
_cell_angle_gamma 75.68600

_symmetry_space_group_name_	'P 1'
_symmetry_space_group_name_H-M	'P 1'

loop_
_symmetry_equiv_pos_as_xyz
  x,y,z

loop_
_atom_site_label
_atom_site_type_symbol
_atom_site_fract_x
_atom_site_fract_y
_atom_site_fract_z
_atom_site_charge
Eu	Eu	0.39278 0.88220 0.45222 1.86600
O 	O 	0.54620 0.95002 0.34285 -0.53000
O 	O 	0.61060 0.10937 0.36839 -0.46800
O 	O 	0.15400 0.89927 0.52222 -0.37400
O 	O 	0.66680 0.92010 0.54321 -0.53600
O 	O 	0.28990 0.72722 0.50723 -0.42700
O 	O 	0.64800 0.38910 0.06973 -0.20000
O 	O 	0.65170 0.33340 0.91270 -0.23900
C 	C 	0.17470 0.79120 0.51830 0.29200
C 	C 	0.56870 0.08060 0.20050 -0.13800
C 	C 	0.57590 0.04410 0.31340 0.46300
C 	C 	0.52050 0.03800 0.03320 -0.01100
C 	C 	0.60120 0.18190 0.15920 0.04600
H 	H 	0.62800 0.23000 0.20190 0.04800
C 	C 	0.06050 0.73610 0.52060 -0.07600
C 	C 	0.55420 0.14120 0.99240 -0.01500
H 	H 	0.54980 0.16270 0.92100 0.04000
C 	C 	0.52880 0.01070 0.13830 0.01500
H 	H 	0.50650 0.94200 0.16830 0.01600
C 	C 	0.59380 0.21210 0.05430 -0.07300
C 	C 	0.63370 0.31720 0.00410 0.29300
O 	O 	0.60130 0.76483 0.50828 -0.47200
C 	C 	0.82870 0.74730 0.52220 -0.13200
C 	C 	0.93130 0.80250 0.52510 0.04200
H 	H 	0.91310 0.88320 0.53000 0.03000
C 	C 	0.68790 0.81560 0.52500 0.45700
C 	C 	0.08610 0.61860 0.51140 -0.02200
H 	H 	0.17510 0.57500 0.50850 0.05600
C 	C 	0.98590 0.56300 0.50640 -0.00100
C 	C 	0.85600 0.62980 0.51290 0.00500
H 	H 	0.78510 0.59380 0.51090 0.04500
Eu	Eu	0.60722 0.11780 0.54778 1.86600
O 	O 	0.45380 0.04998 0.65715 -0.53000
O 	O 	0.38940 0.89063 0.63161 -0.46800
O 	O 	0.84600 0.10073 0.47778 -0.37400
O 	O 	0.33320 0.07990 0.45679 -0.53600
O 	O 	0.71010 0.27278 0.49277 -0.42700
O 	O 	0.35200 0.61090 0.93027 -0.20000
O 	O 	0.34830 0.66660 0.08730 -0.23900
C 	C 	0.82530 0.20880 0.48170 0.29200
C 	C 	0.43130 0.91940 0.79950 -0.13800
C 	C 	0.42410 0.95590 0.68660 0.46300
C 	C 	0.47950 0.96200 0.96680 -0.01100
C 	C 	0.39880 0.81810 0.84080 0.04600
H 	H 	0.37200 0.77000 0.79810 0.04800
C 	C 	0.93950 0.26390 0.47940 -0.07600
C 	C 	0.44580 0.85880 0.00760 -0.01500
H 	H 	0.45020 0.83730 0.07900 0.04000
C 	C 	0.47120 0.98930 0.86170 0.01500
H 	H 	0.49350 0.05800 0.83170 0.01600
C 	C 	0.40620 0.78790 0.94570 -0.07300
C 	C 	0.36630 0.68280 0.99590 0.29300
O 	O 	0.39870 0.23517 0.49172 -0.47200
C 	C 	0.17130 0.25270 0.47780 -0.13200
C 	C 	0.06870 0.19750 0.47490 0.04200
H 	H 	0.08690 0.11680 0.47000 0.03000
C 	C 	0.31210 0.18440 0.47500 0.45700
C 	C 	0.91390 0.38140 0.48860 -0.02200
H 	H 	0.82490 0.42500 0.49150 0.05600
C 	C 	0.01410 0.43700 0.49360 -0.00100
C 	C 	0.14400 0.37020 0.48710 0.00500
H 	H 	0.21490 0.40620 0.48910 0.04500
