data_crystal

_cell_length_a 15.75000
_cell_length_b 14.50100
_cell_length_c 19.36300
_cell_angle_alpha 90.00000
_cell_angle_beta  113.67000
_cell_angle_gamma 90.00000

_symmetry_space_group_name_	'P 1'
_symmetry_space_group_name_H-M	'P 1'

loop_
_symmetry_equiv_pos_as_xyz
  x,y,z

loop_
_atom_site_label
_atom_site_type_symbol
_atom_site_fract_x
_atom_site_fract_y
_atom_site_fract_z
_atom_site_charge
Cd	Cd	0.20624 0.85687 0.46326 1.24500
Cd	Cd	0.65509 0.30050 0.34824 1.22700
Cd	Cd	0.76699 0.41976 0.21520 1.22900
O 	O 	0.09090 0.95330 0.38517 -0.41100
O 	O 	0.88340 0.22650 0.10632 -0.35900
O 	O 	0.78990 0.29830 0.14822 -0.50000
O 	O 	0.30470 0.97320 0.50186 -0.42700
O 	O 	0.66750 0.24660 0.47698 -0.45400
O 	O 	0.86840 0.12740 0.46074 -0.39100
O 	O 	0.73710 0.16670 0.36440 -0.43300
O 	O 	0.77780 0.38280 0.41488 -0.44200
O 	O 	0.65010 0.17150 0.72833 -0.51500
O 	O 	0.50790 0.19340 0.72032 -0.33900
O 	O 	0.54170 0.22630 0.37277 -0.38200
O 	O 	0.84750 0.37140 0.33493 -0.43500
O 	O 	0.10390 0.99100 0.27738 -0.43100
O 	O 	0.31490 0.99610 0.39092 -0.46200
C 	C 	0.06830 0.99650 0.32510 0.41300
C 	C 	0.98730 0.06230 0.30540 -0.16900
C 	C 	0.85080 0.23580 0.15460 0.35900
C 	C 	0.88140 0.17490 0.22290 -0.15700
C 	C 	0.95650 0.11460 0.23960 0.12600
C 	C 	0.58500 0.21810 0.44320 0.33600
C 	C 	0.53620 0.17640 0.48790 -0.15400
C 	C 	0.57090 0.19250 0.56550 0.08300
C 	C 	0.52530 0.15470 0.60740 -0.16600
C 	C 	0.33820 0.01140 0.46020 0.40900
C 	C 	0.41520 0.08010 0.49580 -0.16900
C 	C 	0.45830 0.12020 0.45340 0.11700
C 	C 	0.82100 0.14320 0.39160 0.37800
C 	C 	0.86830 0.13030 0.33840 -0.15200
C 	C 	0.94450 0.07230 0.35570 0.13500
C 	C 	0.83440 0.18040 0.27030 0.09300
C 	C 	0.84430 0.39730 0.39540 0.36700
C 	C 	0.92520 0.45030 0.44960 -0.11000
C 	C 	0.98560 0.49440 0.42390 0.02700
C 	C 	0.93920 0.45640 0.52600 0.04800
C 	C 	0.56220 0.17430 0.69030 0.34400
C 	C 	0.44750 0.09940 0.57310 0.12100
Cd	Cd	0.79376 0.35687 0.03674 1.24400
Cd	Cd	0.34491 0.80050 0.15176 1.22700
Cd	Cd	0.23301 0.91976 0.28480 1.22900
O 	O 	0.90910 0.45330 0.11483 -0.41200
O 	O 	0.11660 0.72650 0.39368 -0.35800
O 	O 	0.21010 0.79830 0.35178 -0.50000
O 	O 	0.69530 0.47320 0.99814 -0.42500
O 	O 	0.33250 0.74660 0.02302 -0.45300
O 	O 	0.13160 0.62740 0.03926 -0.39000
O 	O 	0.26290 0.66670 0.13560 -0.43200
O 	O 	0.22220 0.88280 0.08512 -0.44000
O 	O 	0.34990 0.67150 0.77167 -0.51500
O 	O 	0.49210 0.69340 0.77968 -0.33900
O 	O 	0.45830 0.72630 0.12723 -0.38200
O 	O 	0.15250 0.87140 0.16507 -0.43400
O 	O 	0.89610 0.49100 0.22262 -0.43100
O 	O 	0.68510 0.49610 0.10908 -0.46200
C 	C 	0.93170 0.49650 0.17490 0.40800
C 	C 	0.01270 0.56230 0.19460 -0.16500
C 	C 	0.14920 0.73580 0.34540 0.35900
C 	C 	0.11860 0.67490 0.27710 -0.15700
C 	C 	0.04350 0.61460 0.26040 0.12600
C 	C 	0.41500 0.71810 0.05680 0.33500
C 	C 	0.46380 0.67640 0.01210 -0.15300
C 	C 	0.42910 0.69250 0.93450 0.08100
C 	C 	0.47470 0.65470 0.89260 -0.16600
C 	C 	0.66180 0.51140 0.03980 0.40800
C 	C 	0.58480 0.58010 0.00420 -0.16900
C 	C 	0.54170 0.62020 0.04660 0.11600
C 	C 	0.17900 0.64320 0.10840 0.37700
C 	C 	0.13170 0.63030 0.16160 -0.15200
C 	C 	0.05550 0.57230 0.14430 0.13500
C 	C 	0.16560 0.68040 0.22970 0.09300
C 	C 	0.15570 0.89730 0.10460 0.36600
C 	C 	0.07480 0.95030 0.05040 -0.10500
C 	C 	0.01440 0.99440 0.07610 0.03400
C 	C 	0.06080 0.95640 0.97400 0.03800
C 	C 	0.43780 0.67430 0.80970 0.34400
C 	C 	0.55250 0.59940 0.92690 0.12100
Cd	Cd	0.79376 0.14313 0.53674 1.24500
Cd	Cd	0.34491 0.69950 0.65176 1.22700
Cd	Cd	0.23301 0.58024 0.78480 1.22900
O 	O 	0.90910 0.04670 0.61483 -0.41100
O 	O 	0.11660 0.77350 0.89368 -0.35900
O 	O 	0.21010 0.70170 0.85178 -0.50000
O 	O 	0.69530 0.02680 0.49814 -0.42700
O 	O 	0.33250 0.75340 0.52302 -0.45400
O 	O 	0.13160 0.87260 0.53926 -0.39100
O 	O 	0.26290 0.83330 0.63560 -0.43300
O 	O 	0.22220 0.61720 0.58512 -0.44200
O 	O 	0.34990 0.82850 0.27167 -0.51500
O 	O 	0.49210 0.80660 0.27968 -0.33900
O 	O 	0.45830 0.77370 0.62723 -0.38200
O 	O 	0.15250 0.62860 0.66507 -0.43500
O 	O 	0.89610 0.00900 0.72262 -0.43100
O 	O 	0.68510 0.00390 0.60908 -0.46200
C 	C 	0.93170 0.00350 0.67490 0.41300
C 	C 	0.01270 0.93770 0.69460 -0.16900
C 	C 	0.14920 0.76420 0.84540 0.35900
C 	C 	0.11860 0.82510 0.77710 -0.15700
C 	C 	0.04350 0.88540 0.76040 0.12600
C 	C 	0.41500 0.78190 0.55680 0.33600
C 	C 	0.46380 0.82360 0.51210 -0.15400
C 	C 	0.42910 0.80750 0.43450 0.08300
C 	C 	0.47470 0.84530 0.39260 -0.16600
C 	C 	0.66180 0.98860 0.53980 0.40900
C 	C 	0.58480 0.91990 0.50420 -0.16900
C 	C 	0.54170 0.87980 0.54660 0.11700
C 	C 	0.17900 0.85680 0.60840 0.37800
C 	C 	0.13170 0.86970 0.66160 -0.15200
C 	C 	0.05550 0.92770 0.64430 0.13500
C 	C 	0.16560 0.81960 0.72970 0.09300
C 	C 	0.15570 0.60270 0.60460 0.36700
C 	C 	0.07480 0.54970 0.55040 -0.11000
C 	C 	0.01440 0.50560 0.57610 0.02700
C 	C 	0.06080 0.54360 0.47400 0.04800
C 	C 	0.43780 0.82570 0.30970 0.34400
C 	C 	0.55250 0.90060 0.42690 0.12100
Cd	Cd	0.20624 0.64313 0.96326 1.24400
Cd	Cd	0.65509 0.19950 0.84824 1.22700
Cd	Cd	0.76699 0.08024 0.71520 1.22900
O 	O 	0.09090 0.54670 0.88517 -0.41200
O 	O 	0.88340 0.27350 0.60632 -0.35800
O 	O 	0.78990 0.20170 0.64822 -0.50000
O 	O 	0.30470 0.52680 0.00186 -0.42500
O 	O 	0.66750 0.25340 0.97698 -0.45300
O 	O 	0.86840 0.37260 0.96074 -0.39000
O 	O 	0.73710 0.33330 0.86440 -0.43200
O 	O 	0.77780 0.11720 0.91488 -0.44000
O 	O 	0.65010 0.32850 0.22833 -0.51500
O 	O 	0.50790 0.30660 0.22032 -0.33900
O 	O 	0.54170 0.27370 0.87277 -0.38200
O 	O 	0.84750 0.12860 0.83493 -0.43400
O 	O 	0.10390 0.50900 0.77738 -0.43100
O 	O 	0.31490 0.50390 0.89092 -0.46200
C 	C 	0.06830 0.50350 0.82510 0.40800
C 	C 	0.98730 0.43770 0.80540 -0.16500
C 	C 	0.85080 0.26420 0.65460 0.35900
C 	C 	0.88140 0.32510 0.72290 -0.15700
C 	C 	0.95650 0.38540 0.73960 0.12600
C 	C 	0.58500 0.28190 0.94320 0.33500
C 	C 	0.53620 0.32360 0.98790 -0.15300
C 	C 	0.57090 0.30750 0.06550 0.08100
C 	C 	0.52530 0.34530 0.10740 -0.16600
C 	C 	0.33820 0.48860 0.96020 0.40800
C 	C 	0.41520 0.41990 0.99580 -0.16900
C 	C 	0.45830 0.37980 0.95340 0.11600
C 	C 	0.82100 0.35680 0.89160 0.37700
C 	C 	0.86830 0.36970 0.83840 -0.15200
C 	C 	0.94450 0.42770 0.85570 0.13500
C 	C 	0.83440 0.31960 0.77030 0.09300
C 	C 	0.84430 0.10270 0.89540 0.36600
C 	C 	0.92520 0.04970 0.94960 -0.10500
C 	C 	0.98560 0.00560 0.92390 0.03400
C 	C 	0.93920 0.04360 0.02600 0.03800
C 	C 	0.56220 0.32570 0.19030 0.34400
C 	C 	0.44750 0.40060 0.07310 0.12100
