data_crystal

_cell_length_a 9.00300
_cell_length_b 12.11800
_cell_length_c 12.86500
_cell_angle_alpha 98.74000
_cell_angle_beta  90.25100
_cell_angle_gamma 93.32500

_symmetry_space_group_name_	'P 1'
_symmetry_space_group_name_H-M	'P 1'

loop_
_symmetry_equiv_pos_as_xyz
  x,y,z

loop_
_atom_site_label
_atom_site_type_symbol
_atom_site_fract_x
_atom_site_fract_y
_atom_site_fract_z
_atom_site_charge
Zn	Zn	0.40462 0.57505 0.12693 1.21900
O 	O 	0.35060 0.73496 0.19922 -0.39700
O 	O 	0.20010 0.60145 0.24513 -0.36100
C 	C 	0.24230 0.70340 0.25090 0.29800
C 	C 	0.16440 0.79050 0.32230 -0.08000
C 	C 	0.07610 0.76340 0.40240 0.01700
H 	H 	0.05820 0.68710 0.41010 0.04300
C 	C 	0.01260 0.84530 0.47240 -0.08600
H 	H 	0.95380 0.82430 0.52810 0.07200
C 	C 	0.03310 0.95580 0.46230 0.03100
C 	C 	0.08090 0.97750 0.36170 -0.04600
H 	H 	0.06440 0.04740 0.34000 0.04800
C 	C 	0.15150 0.89630 0.29540 -0.01800
H 	H 	0.19140 0.91320 0.23100 0.03100
O 	O 	0.35480 0.40917 0.09940 -0.47700
O 	O 	0.40770 0.35714 0.92975 -0.48300
C 	C 	0.34530 0.34350 0.01370 0.41100
C 	C 	0.24380 0.24100 0.01150 -0.13000
C 	C 	0.19610 0.20270 0.09980 0.04900
H 	H 	0.22820 0.24180 0.16650 0.03100
C 	C 	0.10090 0.10740 0.09470 -0.09900
H 	H 	0.09010 0.06850 0.15330 0.06400
C 	C 	0.01800 0.06880 0.99710 0.02100
C 	C 	0.03710 0.12470 0.91150 -0.04900
H 	H 	0.97820 0.10150 0.84970 0.04500
C 	C 	0.14160 0.21430 0.91500 -0.00900
H 	H 	0.14910 0.25740 0.85920 0.04100
N 	N 	0.27010 0.60340 0.99360 -0.23100
C 	C 	0.29720 0.69680 0.95170 0.05500
H 	H 	0.36970 0.75110 0.98470 0.01000
C 	C 	0.22450 0.71780 0.86290 -0.08800
H 	H 	0.24760 0.78510 0.83520 0.07300
C 	C 	0.11720 0.63960 0.81410 0.00900
C 	C 	0.08650 0.54460 0.85870 -0.09700
H 	H 	0.01230 0.48990 0.82870 0.07500
C 	C 	0.16530 0.52990 0.94790 0.06000
H 	H 	0.14330 0.46400 0.97780 0.00600
C 	C 	0.04270 0.66460 0.71590 0.20900
O 	O 	0.07520 0.75080 0.68210 -0.23000
N 	N 	0.94090 0.58510 0.67000 -0.18900
N 	N 	0.87090 0.60170 0.57930 -0.05600
C 	C 	0.77750 0.52300 0.53890 -0.04800
H 	H 	0.76060 0.45820 0.57150 0.06400
C 	C 	0.69650 0.53320 0.44180 0.11500
C 	C 	0.69870 0.63250 0.40080 -0.15500
H 	H 	0.75510 0.69670 0.43460 0.09100
C 	C 	0.61820 0.63690 0.31070 0.08800
H 	H 	0.62240 0.70510 0.28260 0.00300
N 	N 	0.53380 0.54990 0.26040 -0.23500
C 	C 	0.53110 0.45460 0.30080 0.09000
H 	H 	0.47190 0.39210 0.26630 0.00800
C 	C 	0.61080 0.44230 0.39070 -0.15500
H 	H 	0.60650 0.37280 0.41660 0.09100
H 	H 	0.91000 0.52600 0.69800 0.14400
C 	C 	0.15900 0.98610 0.39860 -0.04300
H 	H 	0.19850 0.06130 0.40590 0.04100
C 	C 	0.22000 0.90410 0.32770 0.00800
H 	H 	0.29800 0.92320 0.28310 0.03600
C 	C 	0.08560 0.03220 0.00790 0.01800
C 	C 	0.16330 0.05570 0.92000 -0.07700
H 	H 	0.15480 0.00450 0.85630 0.05900
C 	C 	0.25260 0.15280 0.92460 0.03200
H 	H 	0.32050 0.16110 0.86960 0.03200
Zn	Zn	0.59538 0.42495 0.87307 1.22000
O 	O 	0.64940 0.26504 0.80078 -0.39600
O 	O 	0.79990 0.39855 0.75487 -0.36100
C 	C 	0.75770 0.29660 0.74910 0.29800
C 	C 	0.83560 0.20950 0.67770 -0.08000
C 	C 	0.92390 0.23660 0.59760 0.01700
H 	H 	0.94180 0.31290 0.58990 0.04300
C 	C 	0.98740 0.15470 0.52760 -0.08600
H 	H 	0.04620 0.17570 0.47190 0.07200
C 	C 	0.96690 0.04420 0.53770 0.03100
C 	C 	0.91910 0.02250 0.63830 -0.04600
H 	H 	0.93560 0.95260 0.66000 0.04800
C 	C 	0.84850 0.10370 0.70460 -0.01800
H 	H 	0.80860 0.08680 0.76900 0.03100
O 	O 	0.64520 0.59083 0.90060 -0.47700
O 	O 	0.59230 0.64286 0.07025 -0.48300
C 	C 	0.65470 0.65650 0.98630 0.41100
C 	C 	0.75620 0.75900 0.98850 -0.13000
C 	C 	0.80390 0.79730 0.90020 0.04900
H 	H 	0.77180 0.75820 0.83350 0.03100
C 	C 	0.89910 0.89260 0.90530 -0.09900
H 	H 	0.90990 0.93150 0.84670 0.06400
C 	C 	0.98200 0.93120 0.00290 0.02100
C 	C 	0.96290 0.87530 0.08850 -0.04900
H 	H 	0.02180 0.89850 0.15030 0.04500
C 	C 	0.85840 0.78570 0.08500 -0.00900
H 	H 	0.85090 0.74260 0.14080 0.04100
N 	N 	0.72990 0.39660 0.00640 -0.23100
C 	C 	0.70280 0.30320 0.04830 0.05500
H 	H 	0.63030 0.24890 0.01530 0.01000
C 	C 	0.77550 0.28220 0.13710 -0.08800
H 	H 	0.75240 0.21490 0.16480 0.07300
C 	C 	0.88280 0.36040 0.18590 0.00900
C 	C 	0.91350 0.45540 0.14130 -0.09700
H 	H 	0.98770 0.51010 0.17130 0.07500
C 	C 	0.83470 0.47010 0.05210 0.06000
H 	H 	0.85670 0.53600 0.02220 0.00600
C 	C 	0.95730 0.33540 0.28410 0.20900
O 	O 	0.92480 0.24920 0.31790 -0.23000
N 	N 	0.05910 0.41490 0.33000 -0.18900
N 	N 	0.12910 0.39830 0.42070 -0.05600
C 	C 	0.22250 0.47700 0.46110 -0.04800
H 	H 	0.23940 0.54180 0.42850 0.06400
C 	C 	0.30350 0.46680 0.55820 0.11500
C 	C 	0.30130 0.36750 0.59920 -0.15500
H 	H 	0.24490 0.30330 0.56540 0.09100
C 	C 	0.38180 0.36310 0.68930 0.08800
H 	H 	0.37760 0.29490 0.71740 0.00300
N 	N 	0.46620 0.45010 0.73960 -0.23500
C 	C 	0.46890 0.54540 0.69920 0.09000
H 	H 	0.52810 0.60790 0.73370 0.00800
C 	C 	0.38920 0.55770 0.60930 -0.15500
H 	H 	0.39350 0.62720 0.58340 0.09100
H 	H 	0.09000 0.47400 0.30200 0.14400
C 	C 	0.84100 0.01390 0.60140 -0.04300
H 	H 	0.80150 0.93870 0.59410 0.04100
C 	C 	0.78000 0.09590 0.67230 0.00800
H 	H 	0.70200 0.07680 0.71690 0.03600
C 	C 	0.91440 0.96780 0.99210 0.01800
C 	C 	0.83670 0.94430 0.08000 -0.07700
H 	H 	0.84520 0.99550 0.14370 0.05900
C 	C 	0.74740 0.84720 0.07540 0.03200
H 	H 	0.67950 0.83890 0.13040 0.03200
