data_crystal

_cell_length_a 8.25700
_cell_length_b 13.16300
_cell_length_c 14.23800
_cell_angle_alpha 114.26100
_cell_angle_beta  96.49300
_cell_angle_gamma 101.69900

_symmetry_space_group_name_	'P 1'
_symmetry_space_group_name_H-M	'P 1'

loop_
_symmetry_equiv_pos_as_xyz
  x,y,z

loop_
_atom_site_label
_atom_site_type_symbol
_atom_site_fract_x
_atom_site_fract_y
_atom_site_fract_z
_atom_site_charge
Tb	Tb	0.26933 0.54978 0.49918 1.96100
O 	O 	0.19670 0.49540 0.62810 -0.53200
O 	O 	0.92960 0.47590 0.64160 -0.55600
O 	O 	0.44800 0.47840 0.38680 -0.57600
O 	O 	0.51960 0.31540 0.34740 -0.48600
O 	O 	0.11320 0.67270 0.57540 -0.55500
O 	O 	0.84060 0.65410 0.58670 -0.50300
N 	N 	0.14110 0.19510 0.88480 -0.21400
C 	C 	0.07180 0.46130 0.65920 0.55600
C 	C 	0.09100 0.39480 0.72280 -0.29700
C 	C 	0.24880 0.39440 0.76440 0.20800
H 	H 	0.34480 0.43710 0.75520 -0.03500
C 	C 	0.26610 0.33070 0.82000 -0.29200
H 	H 	0.37360 0.33060 0.84750 0.12900
C 	C 	0.12620 0.26800 0.83490 0.23500
C 	C 	0.96860 0.26940 0.79390 -0.29300
H 	H 	0.87240 0.22700 0.80320 0.12900
C 	C 	0.95220 0.33350 0.73900 0.22100
H 	H 	0.84480 0.33480 0.71260 -0.05800
C 	C 	0.44850 0.37920 0.32200 0.46500
C 	C 	0.36410 0.33200 0.20750 -0.22600
C 	C 	0.34630 0.21730 0.13920 0.15900
H 	H 	0.38530 0.17000 0.16470 -0.01300
C 	C 	0.27160 0.17280 0.03430 -0.24400
H 	H 	0.25750 0.09490 0.99030 0.11700
C 	C 	0.21680 0.24120 0.99250 0.20800
C 	C 	0.23380 0.35570 0.06090 -0.25400
H 	H 	0.19810 0.40380 0.03510 0.12200
C 	C 	0.30310 0.39860 0.16660 0.17200
H 	H 	0.30890 0.47480 0.21180 -0.03100
C 	C 	0.99370 0.71240 0.60910 0.50900
C 	C 	0.03490 0.84030 0.68010 -0.25000
C 	C 	0.19540 0.91020 0.70610 0.18800
H 	H 	0.28060 0.87950 0.67790 -0.03600
C 	C 	0.23140 0.02590 0.77390 -0.26800
H 	H 	0.34140 0.07300 0.79130 0.11900
C 	C 	0.10640 0.07350 0.81660 0.20300
C 	C 	0.94320 0.00490 0.79040 -0.23900
H 	H 	0.85780 0.03560 0.81830 0.11300
C 	C 	0.90930 0.88800 0.72070 0.15400
H 	H 	0.79890 0.84080 0.70100 -0.01000
Tb	Tb	0.73067 0.45022 0.50082 1.96100
O 	O 	0.80330 0.50460 0.37190 -0.53200
O 	O 	0.07040 0.52410 0.35840 -0.55600
O 	O 	0.55200 0.52160 0.61320 -0.57600
O 	O 	0.48040 0.68460 0.65260 -0.48600
O 	O 	0.88680 0.32730 0.42460 -0.55500
O 	O 	0.15940 0.34590 0.41330 -0.50300
N 	N 	0.85890 0.80490 0.11520 -0.21400
C 	C 	0.92820 0.53870 0.34080 0.55600
C 	C 	0.90900 0.60520 0.27720 -0.29700
C 	C 	0.75120 0.60560 0.23560 0.20800
H 	H 	0.65520 0.56290 0.24480 -0.03500
C 	C 	0.73390 0.66930 0.18000 -0.29200
H 	H 	0.62640 0.66940 0.15250 0.12900
C 	C 	0.87380 0.73200 0.16510 0.23500
C 	C 	0.03140 0.73060 0.20610 -0.29300
H 	H 	0.12760 0.77300 0.19680 0.12900
C 	C 	0.04780 0.66650 0.26100 0.22100
H 	H 	0.15520 0.66520 0.28740 -0.05800
C 	C 	0.55150 0.62080 0.67800 0.46500
C 	C 	0.63590 0.66800 0.79250 -0.22600
C 	C 	0.65370 0.78270 0.86080 0.15900
H 	H 	0.61470 0.83000 0.83530 -0.01300
C 	C 	0.72840 0.82720 0.96570 -0.24400
H 	H 	0.74250 0.90510 0.00970 0.11700
C 	C 	0.78320 0.75880 0.00750 0.20800
C 	C 	0.76620 0.64430 0.93910 -0.25400
H 	H 	0.80190 0.59620 0.96490 0.12200
C 	C 	0.69690 0.60140 0.83340 0.17200
H 	H 	0.69110 0.52520 0.78820 -0.03100
C 	C 	0.00630 0.28760 0.39090 0.50900
C 	C 	0.96510 0.15970 0.31990 -0.25000
C 	C 	0.80460 0.08980 0.29390 0.18800
H 	H 	0.71940 0.12050 0.32210 -0.03600
C 	C 	0.76860 0.97410 0.22610 -0.26800
H 	H 	0.65860 0.92700 0.20870 0.11900
C 	C 	0.89360 0.92650 0.18340 0.20300
C 	C 	0.05680 0.99510 0.20960 -0.23900
H 	H 	0.14220 0.96440 0.18170 0.11300
C 	C 	0.09070 0.11200 0.27930 0.15400
H 	H 	0.20110 0.15920 0.29900 -0.01000
