data_crystal

_cell_length_a 14.75330
_cell_length_b 14.75330
_cell_length_c 14.75330
_cell_angle_alpha 109.47100
_cell_angle_beta  109.47100
_cell_angle_gamma 109.47100

_symmetry_space_group_name_	'P 1'
_symmetry_space_group_name_H-M	'P 1'

loop_
_symmetry_equiv_pos_as_xyz
  x,y,z

loop_
_atom_site_label
_atom_site_type_symbol
_atom_site_fract_x
_atom_site_fract_y
_atom_site_fract_z
_atom_site_charge
Zn	Zn	0.75000 0.25000 0.50000 1.17400
Zn	Zn	0.25000 0.75000 0.50000 1.17400
Zn	Zn	0.50000 0.25000 0.75000 1.17500
Zn	Zn	0.50000 0.75000 0.25000 1.17500
Zn	Zn	0.25000 0.50000 0.75000 1.17500
Zn	Zn	0.75000 0.50000 0.25000 1.17500
C 	C 	0.67720 0.21284 0.26926 -0.00800
C 	C 	0.94358 0.40794 0.73074 -0.01300
C 	C 	0.05642 0.78716 0.46436 -0.00500
C 	C 	0.32280 0.59206 0.53564 -0.00900
C 	C 	0.46436 0.05642 0.78716 -0.00500
C 	C 	0.53564 0.32280 0.59206 -0.00900
C 	C 	0.26926 0.67720 0.21284 -0.00900
C 	C 	0.73074 0.94358 0.40794 -0.01400
C 	C 	0.40794 0.73074 0.94358 -0.01900
C 	C 	0.21284 0.26926 0.67720 -0.00900
C 	C 	0.59206 0.53564 0.32280 -0.00900
C 	C 	0.78716 0.46436 0.05642 0.00100
C 	C 	0.40794 0.94358 0.73074 -0.01400
C 	C 	0.21284 0.67720 0.26926 -0.00800
C 	C 	0.59206 0.32280 0.53564 -0.00900
C 	C 	0.78716 0.05642 0.46436 -0.00400
C 	C 	0.67720 0.26926 0.21284 -0.00800
C 	C 	0.94358 0.73074 0.40794 -0.01300
C 	C 	0.05642 0.46436 0.78716 -0.00500
C 	C 	0.32280 0.53564 0.59206 -0.00900
C 	C 	0.46436 0.78716 0.05642 0.00100
C 	C 	0.53564 0.59206 0.32280 -0.00900
C 	C 	0.26926 0.21284 0.67720 -0.00800
C 	C 	0.73074 0.40794 0.94358 -0.01900
C 	C 	0.81344 0.49333 0.49333 -0.23900
C 	C 	0.75596 0.38689 0.38689 0.13000
C 	C 	-0.00000 0.32011 0.50667 -0.23400
C 	C 	-0.00000 0.36907 0.61311 0.13100
C 	C 	-0.00000 0.50667 0.32011 -0.23500
C 	C 	-0.00000 0.61311 0.36907 0.13200
C 	C 	0.18656 0.67989 0.67989 -0.23900
C 	C 	0.24404 0.63093 0.63093 0.12800
C 	C 	0.32011 0.00000 0.50667 -0.23600
C 	C 	0.36907 -0.00000 0.61311 0.13200
C 	C 	0.67989 0.18656 0.67989 -0.23600
C 	C 	0.63093 0.24404 0.63093 0.12900
C 	C 	0.49333 0.81344 0.49333 -0.23900
C 	C 	0.38689 0.75596 0.38689 0.13000
C 	C 	0.50667 0.00000 0.32011 -0.23500
C 	C 	0.61311 0.00000 0.36907 0.13300
C 	C 	0.32011 0.50667 -0.00000 -0.22900
C 	C 	0.36907 0.61311 -0.00000 0.13400
C 	C 	0.49333 0.49333 0.81344 -0.23800
C 	C 	0.38689 0.38689 0.75596 0.12900
C 	C 	0.67989 0.67989 0.18656 -0.23900
C 	C 	0.63093 0.63093 0.24404 0.12900
C 	C 	0.50667 0.32011 -0.00000 -0.22200
C 	C 	0.61311 0.36907 -0.00000 0.13300
N 	N 	0.72717 0.28738 0.37979 -0.29200
N 	N 	0.90759 0.34738 0.62021 -0.29300
N 	N 	0.09241 0.71262 0.43979 -0.29300
N 	N 	0.27283 0.65262 0.56021 -0.29200
N 	N 	0.43979 0.09241 0.71262 -0.29300
N 	N 	0.56021 0.27283 0.65262 -0.29300
N 	N 	0.37979 0.72717 0.28738 -0.29200
N 	N 	0.62021 0.90759 0.34738 -0.29300
N 	N 	0.34738 0.62021 0.90759 -0.29400
N 	N 	0.28738 0.37979 0.72717 -0.29200
N 	N 	0.65262 0.56021 0.27283 -0.29200
N 	N 	0.71262 0.43979 0.09241 -0.29400
N 	N 	0.34738 0.90759 0.62021 -0.29400
N 	N 	0.28738 0.72717 0.37979 -0.29200
N 	N 	0.65262 0.27283 0.56021 -0.29200
N 	N 	0.71262 0.09241 0.43979 -0.29300
N 	N 	0.72717 0.37979 0.28738 -0.29200
N 	N 	0.90759 0.62021 0.34738 -0.29300
N 	N 	0.09241 0.43979 0.71262 -0.29400
N 	N 	0.27283 0.56021 0.65262 -0.29300
N 	N 	0.43979 0.71262 0.09241 -0.29400
N 	N 	0.56021 0.65262 0.27283 -0.29200
N 	N 	0.37979 0.28738 0.72717 -0.29200
N 	N 	0.62021 0.34738 0.90759 -0.29400
H 	H 	0.63921 0.11884 0.22257 -0.00000
H 	H 	0.89626 0.41664 0.77743 -0.00000
H 	H 	0.36079 0.58336 0.47962 -0.00100
H 	H 	0.52038 0.10374 0.88116 -0.00400
H 	H 	0.47962 0.36079 0.58336 -0.00100
H 	H 	0.22257 0.63921 0.11884 0.00000
H 	H 	0.77743 0.89626 0.41664 -0.00100
H 	H 	0.41664 0.77743 0.89626 -0.00100
H 	H 	0.11884 0.22257 0.63921 -0.00100
H 	H 	0.58336 0.47962 0.36079 -0.00100
H 	H 	0.88116 0.52038 0.10374 -0.00200
H 	H 	0.11884 0.63921 0.22257 -0.00000
H 	H 	0.58336 0.36079 0.47962 -0.00100
H 	H 	0.88116 0.10374 0.52038 -0.00200
H 	H 	0.63921 0.22257 0.11884 0.00100
H 	H 	0.89626 0.77743 0.41664 -0.00100
H 	H 	0.10374 0.52038 0.88116 -0.00200
H 	H 	0.36079 0.47962 0.58336 -0.00100
H 	H 	0.52038 0.88116 0.10374 -0.00300
H 	H 	0.47962 0.58336 0.36079 -0.00100
H 	H 	0.22257 0.11884 0.63921 -0.00100
H 	H 	0.77743 0.41664 0.89626 -0.00100
H 	H 	0.86204 0.56511 0.48454 0.03600
H 	H 	0.87290 0.48949 0.56298 0.04000
H 	H 	0.74925 0.50662 0.51369 0.04900
H 	H 	0.05180 0.38955 0.49712 0.04700
H 	H 	0.91119 0.26983 0.43420 0.02900
H 	H 	0.03701 0.26358 0.50746 0.04700
H 	H 	0.02348 0.50126 0.25304 0.04900
H 	H 	0.91371 0.43383 0.28202 0.03100
H 	H 	0.06281 0.50369 0.38791 0.04400
H 	H 	0.12710 0.61660 0.69009 0.04000
H 	H 	0.13796 0.70307 0.62251 0.03700
H 	H 	0.25075 0.75736 0.76444 0.04800
H 	H 	0.30238 0.92218 0.43565 0.03600
H 	H 	0.38114 0.07670 0.51269 0.03900
H 	H 	0.23945 0.00112 0.49044 0.05000
H 	H 	0.73752 0.17259 0.64830 0.03000
H 	H 	0.61052 0.10315 0.65449 0.04900
H 	H 	0.72900 0.24008 0.77424 0.04400
H 	H 	0.56233 0.87528 0.49077 0.04000
H 	H 	0.51538 0.74954 0.50500 0.04900
H 	H 	0.48351 0.85936 0.56545 0.03500
H 	H 	0.43392 0.91462 0.28492 0.03200
H 	H 	0.49975 0.02027 0.25081 0.05000
H 	H 	0.50512 0.06512 0.38723 0.04400
H 	H 	0.38948 0.49263 0.04398 0.04900
H 	H 	0.26248 0.43507 0.91078 0.02500
H 	H 	0.27100 0.51108 0.04524 0.04600
H 	H 	0.50026 0.52052 0.75107 0.04800
H 	H 	0.56608 0.48070 0.85101 0.03200
H 	H 	0.49488 0.56000 0.88211 0.04200
H 	H 	0.61886 0.69557 0.13155 0.03900
H 	H 	0.69762 0.61980 0.13327 0.03900
H 	H 	0.76055 0.76167 0.25099 0.04900
H 	H 	0.48462 0.23416 0.98963 0.04100
H 	H 	0.43767 0.31295 0.92844 0.03400
H 	H 	0.51649 0.37585 0.08193 0.03400
H 	H 	0.41664 0.89626 0.77743 -0.00200
H 	H 	0.10374 0.88116 0.52038 -0.00300
