data_crystal

_cell_length_a 17.49200
_cell_length_b 17.49200
_cell_length_c 13.24200
_cell_angle_alpha 90.00000
_cell_angle_beta  90.00000
_cell_angle_gamma 120.00000

_symmetry_space_group_name_	'P 1'
_symmetry_space_group_name_H-M	'P 1'

loop_
_symmetry_equiv_pos_as_xyz
  x,y,z

loop_
_atom_site_label
_atom_site_type_symbol
_atom_site_fract_x
_atom_site_fract_y
_atom_site_fract_z
_atom_site_charge
Cu	Cu	0.55764 0.42464 0.13860 0.91500
Cu	Cu	0.55283 0.41905 0.39090 0.91400
O 	O 	0.53150 0.36130 0.26200 -0.51200
N 	N 	0.60410 0.50980 0.03600 -0.19500
N 	N 	0.40550 0.50330 0.00800 -0.21300
O 	O 	0.32460 0.56080 0.89400 -0.55200
O 	O 	0.67700 0.44190 0.13600 -0.50800
O 	O 	0.55240 0.57090 0.90900 -0.31200
O 	O 	0.19920 0.49200 0.98200 -0.39500
O 	O 	0.80360 0.50820 0.05000 -0.27900
O 	O 	0.44400 0.42750 0.11500 -0.31000
C 	C 	0.54640 0.52610 0.99000 0.06500
C 	C 	0.45700 0.48140 0.04300 0.18000
C 	C 	0.69660 0.54820 0.00500 -0.11000
H 	H 	0.69620 0.53260 0.93240 0.08500
C 	C 	0.72510 0.49600 0.06200 0.32700
C 	C 	0.31870 0.47500 0.04270 -0.07800
H 	H 	0.28500 0.40860 0.03960 0.08000
C 	C 	0.27400 0.51200 0.96000 0.37600
C 	C 	0.75800 0.64020 0.01400 0.04600
H 	H 	0.72220 0.66850 0.00390 0.04500
H 	H 	0.79500 0.65390 0.95240 0.05600
C 	C 	0.82190 0.69450 0.09260 -0.24700
H 	H 	0.87790 0.74270 0.06460 0.15600
H 	H 	0.83410 0.65920 0.14180 0.13600
C 	C 	0.73600 0.80400 0.04800 -0.49100
H 	H 	0.74140 0.78620 0.97940 0.21300
H 	H 	0.78150 0.86570 0.05890 0.25500
H 	H 	0.67770 0.79710 0.05750 0.21100
S 	S 	0.75240 0.73210 0.14170 0.19400
C 	C 	0.31300 0.50020 0.14410 -0.00900
H 	H 	0.36940 0.51680 0.17860 0.05200
H 	H 	0.26600 0.44790 0.17940 0.04300
C 	C 	0.29500 0.57220 0.15680 -0.19300
H 	H 	0.24720 0.56710 0.11230 0.09900
H 	H 	0.34830 0.63110 0.14960 0.08200
S 	S 	0.25930 0.54220 0.29110 0.08200
Hg	Hg	0.74430 0.76070 0.32500 0.18500
Cl	Cl	0.58850 0.73260 0.38910 -0.33800
Cl	Cl	0.89840 0.77920 0.37010 -0.28900
Cl	Cl	0.80560 0.86190 0.22720 -0.29600
Hg	Hg	0.19310 0.35400 0.24390 0.07500
Cu	Cu	0.57536 0.13300 0.13860 0.91600
Cu	Cu	0.58095 0.13378 0.39090 0.91500
O 	O 	0.63870 0.17020 0.26200 -0.51100
N 	N 	0.49020 0.09430 0.03600 -0.19500
N 	N 	0.49670 0.90220 0.00800 -0.21200
O 	O 	0.43920 0.76380 0.89400 -0.55100
O 	O 	0.55810 0.23510 0.13600 -0.50700
O 	O 	0.42910 0.98150 0.90900 -0.31400
O 	O 	0.50800 0.70720 0.98200 -0.39300
O 	O 	0.49180 0.29540 0.05000 -0.27900
O 	O 	0.57250 0.01650 0.11500 -0.30800
C 	C 	0.47390 0.02030 0.99000 0.07100
C 	C 	0.51860 0.97560 0.04300 0.17500
C 	C 	0.45180 0.14840 0.00500 -0.11000
H 	H 	0.46740 0.16360 0.93240 0.08500
C 	C 	0.50400 0.22910 0.06200 0.32700
C 	C 	0.52500 0.84370 0.04270 -0.07800
H 	H 	0.59140 0.87640 0.03960 0.08000
C 	C 	0.48800 0.76200 0.96000 0.37600
C 	C 	0.35980 0.11780 0.01400 0.04600
H 	H 	0.33150 0.05370 0.00390 0.04500
H 	H 	0.34610 0.14110 0.95240 0.05700
C 	C 	0.30550 0.12740 0.09260 -0.24800
H 	H 	0.25730 0.13520 0.06460 0.15600
H 	H 	0.34080 0.17490 0.14180 0.13600
C 	C 	0.19600 0.93200 0.04800 -0.49300
H 	H 	0.21380 0.95520 0.97940 0.21300
H 	H 	0.13430 0.91580 0.05890 0.25500
H 	H 	0.20290 0.88060 0.05750 0.21100
S 	S 	0.26790 0.02030 0.14170 0.19700
C 	C 	0.49980 0.81280 0.14410 -0.00900
H 	H 	0.48320 0.85260 0.17860 0.05200
H 	H 	0.55210 0.81810 0.17940 0.04300
C 	C 	0.42780 0.72280 0.15680 -0.19300
H 	H 	0.43290 0.68010 0.11230 0.09900
H 	H 	0.36890 0.71720 0.14960 0.08200
S 	S 	0.45780 0.71710 0.29110 0.08300
Hg	Hg	0.23930 0.98360 0.32500 0.18300
Cl	Cl	0.26740 0.85590 0.38910 -0.33800
Cl	Cl	0.22080 0.11920 0.37010 -0.28900
Cl	Cl	0.13810 0.94370 0.22720 -0.29700
Hg	Hg	0.64600 0.83910 0.24390 0.07400
Cu	Cu	0.86700 0.44236 0.13860 0.91600
Cu	Cu	0.86622 0.44717 0.39090 0.91500
O 	O 	0.82980 0.46850 0.26200 -0.51100
N 	N 	0.90570 0.39590 0.03600 -0.19500
N 	N 	0.09780 0.59450 0.00800 -0.21100
O 	O 	0.23620 0.67540 0.89400 -0.55100
O 	O 	0.76490 0.32300 0.13600 -0.50700
O 	O 	0.01850 0.44760 0.90900 -0.31400
O 	O 	0.29280 0.80080 0.98200 -0.39400
O 	O 	0.70460 0.19640 0.05000 -0.27900
O 	O 	0.98350 0.55600 0.11500 -0.30800
C 	C 	0.97970 0.45360 0.99000 0.07100
C 	C 	0.02440 0.54300 0.04300 0.17500
C 	C 	0.85160 0.30340 0.00500 -0.11000
H 	H 	0.83640 0.30380 0.93240 0.08500
C 	C 	0.77090 0.27490 0.06200 0.32700
C 	C 	0.15630 0.68130 0.04270 -0.07800
H 	H 	0.12360 0.71500 0.03960 0.08000
C 	C 	0.23800 0.72600 0.96000 0.37600
C 	C 	0.88220 0.24200 0.01400 0.04400
H 	H 	0.94630 0.27780 0.00390 0.04600
H 	H 	0.85890 0.20500 0.95240 0.05800
C 	C 	0.87260 0.17810 0.09260 -0.24700
H 	H 	0.86480 0.12210 0.06460 0.15600
H 	H 	0.82510 0.16590 0.14180 0.13600
C 	C 	0.06800 0.26400 0.04800 -0.49300
H 	H 	0.04480 0.25860 0.97940 0.21300
H 	H 	0.08420 0.21850 0.05890 0.25600
H 	H 	0.11940 0.32230 0.05750 0.21200
S 	S 	0.97970 0.24760 0.14170 0.19600
C 	C 	0.18720 0.68700 0.14410 -0.00900
H 	H 	0.14740 0.63060 0.17860 0.05200
H 	H 	0.18190 0.73400 0.17940 0.04300
C 	C 	0.27720 0.70500 0.15680 -0.19300
H 	H 	0.31990 0.75280 0.11230 0.09900
H 	H 	0.28280 0.65170 0.14960 0.08200
S 	S 	0.28290 0.74070 0.29110 0.08200
Hg	Hg	0.01640 0.25570 0.32500 0.18300
Cl	Cl	0.14410 0.41150 0.38910 -0.33800
Cl	Cl	0.88080 0.10160 0.37010 -0.28800
Cl	Cl	0.05630 0.19440 0.22720 -0.29600
Hg	Hg	0.16090 0.80690 0.24390 0.07400
Cu	Cu	0.44236 0.57536 0.63860 0.91500
Cu	Cu	0.44717 0.58095 0.89090 0.91000
O 	O 	0.46850 0.63870 0.76200 -0.51200
N 	N 	0.39590 0.49020 0.53600 -0.21100
N 	N 	0.59450 0.49670 0.50800 -0.21400
O 	O 	0.67540 0.43920 0.39400 -0.55200
O 	O 	0.32300 0.55810 0.63600 -0.51000
O 	O 	0.44760 0.42910 0.40900 -0.31600
O 	O 	0.80080 0.50800 0.48200 -0.38500
O 	O 	0.19640 0.49180 0.55000 -0.29000
O 	O 	0.55600 0.57250 0.61500 -0.30500
C 	C 	0.45360 0.47390 0.49000 0.11500
C 	C 	0.54300 0.51860 0.54300 0.14600
C 	C 	0.30340 0.45180 0.50500 -0.13500
H 	H 	0.30380 0.46740 0.43240 0.10600
C 	C 	0.27490 0.50400 0.56200 0.33000
C 	C 	0.68130 0.52500 0.54270 -0.10400
H 	H 	0.71500 0.59140 0.53960 0.08000
C 	C 	0.72600 0.48800 0.46000 0.39900
C 	C 	0.24200 0.35980 0.51400 0.00800
H 	H 	0.27780 0.33150 0.50390 0.04500
H 	H 	0.20500 0.34610 0.45240 0.08300
C 	C 	0.17810 0.30550 0.59260 -0.23500
H 	H 	0.12210 0.25730 0.56460 0.14400
H 	H 	0.16590 0.34080 0.64180 0.13100
C 	C 	0.26400 0.19600 0.54800 -0.57000
H 	H 	0.25860 0.21380 0.47940 0.25500
H 	H 	0.21850 0.13430 0.55890 0.27100
H 	H 	0.32230 0.20290 0.55750 0.22700
S 	S 	0.24760 0.26790 0.64170 0.20000
C 	C 	0.68700 0.49980 0.64410 0.00000
H 	H 	0.63060 0.48320 0.67860 0.04900
H 	H 	0.73400 0.55210 0.67940 0.03900
C 	C 	0.70500 0.42780 0.65680 -0.19700
H 	H 	0.75280 0.43290 0.61230 0.09300
H 	H 	0.65170 0.36890 0.64960 0.08100
S 	S 	0.74070 0.45780 0.79110 0.07900
Hg	Hg	0.25570 0.23930 0.82500 0.17700
Cl	Cl	0.41150 0.26740 0.88910 -0.35100
Cl	Cl	0.10160 0.22080 0.87010 -0.29900
Cl	Cl	0.19440 0.13810 0.72720 -0.29900
Hg	Hg	0.80690 0.64600 0.74390 0.07300
Cu	Cu	0.42464 0.86700 0.63860 0.91400
Cu	Cu	0.41905 0.86622 0.89090 0.90900
O 	O 	0.36130 0.82980 0.76200 -0.51200
N 	N 	0.50980 0.90570 0.53600 -0.21100
N 	N 	0.50330 0.09780 0.50800 -0.21400
O 	O 	0.56080 0.23620 0.39400 -0.55200
O 	O 	0.44190 0.76490 0.63600 -0.51000
O 	O 	0.57090 0.01850 0.40900 -0.31300
O 	O 	0.49200 0.29280 0.48200 -0.38600
O 	O 	0.50820 0.70460 0.55000 -0.29000
O 	O 	0.42750 0.98350 0.61500 -0.30800
C 	C 	0.52610 0.97970 0.49000 0.11000
C 	C 	0.48140 0.02440 0.54300 0.15100
C 	C 	0.54820 0.85160 0.50500 -0.13500
H 	H 	0.53260 0.83640 0.43240 0.10600
C 	C 	0.49600 0.77090 0.56200 0.33000
C 	C 	0.47500 0.15630 0.54270 -0.10300
H 	H 	0.40860 0.12360 0.53960 0.08000
C 	C 	0.51200 0.23800 0.46000 0.39900
C 	C 	0.64020 0.88220 0.51400 0.00800
H 	H 	0.66850 0.94630 0.50390 0.04400
H 	H 	0.65390 0.85890 0.45240 0.08300
C 	C 	0.69450 0.87260 0.59260 -0.23500
H 	H 	0.74270 0.86480 0.56460 0.14400
H 	H 	0.65920 0.82510 0.64180 0.13100
C 	C 	0.80400 0.06800 0.54800 -0.56700
H 	H 	0.78620 0.04480 0.47940 0.25400
H 	H 	0.86570 0.08420 0.55890 0.27100
H 	H 	0.79710 0.11940 0.55750 0.22600
S 	S 	0.73210 0.97970 0.64170 0.19700
C 	C 	0.50020 0.18720 0.64410 -0.00000
H 	H 	0.51680 0.14740 0.67860 0.05000
H 	H 	0.44790 0.18190 0.67940 0.04000
C 	C 	0.57220 0.27720 0.65680 -0.19600
H 	H 	0.56710 0.31990 0.61230 0.09300
H 	H 	0.63110 0.28280 0.64960 0.08100
S 	S 	0.54220 0.28290 0.79110 0.07900
Hg	Hg	0.76070 0.01640 0.82500 0.17900
Cl	Cl	0.73260 0.14410 0.88910 -0.35000
Cl	Cl	0.77920 0.88080 0.87010 -0.29900
Cl	Cl	0.86190 0.05630 0.72720 -0.29700
Hg	Hg	0.35400 0.16090 0.74390 0.07400
Cu	Cu	0.13300 0.55764 0.63860 0.91400
Cu	Cu	0.13378 0.55283 0.89090 0.90900
O 	O 	0.17020 0.53150 0.76200 -0.51200
N 	N 	0.09430 0.60410 0.53600 -0.21100
N 	N 	0.90220 0.40550 0.50800 -0.21400
O 	O 	0.76380 0.32460 0.39400 -0.55200
O 	O 	0.23510 0.67700 0.63600 -0.51000
O 	O 	0.98150 0.55240 0.40900 -0.31300
O 	O 	0.70720 0.19920 0.48200 -0.38500
O 	O 	0.29540 0.80360 0.55000 -0.29000
O 	O 	0.01650 0.44400 0.61500 -0.30800
C 	C 	0.02030 0.54640 0.49000 0.11000
C 	C 	0.97560 0.45700 0.54300 0.15100
C 	C 	0.14840 0.69660 0.50500 -0.13500
H 	H 	0.16360 0.69620 0.43240 0.10600
C 	C 	0.22910 0.72510 0.56200 0.33000
C 	C 	0.84370 0.31870 0.54270 -0.10300
H 	H 	0.87640 0.28500 0.53960 0.08000
C 	C 	0.76200 0.27400 0.46000 0.39900
C 	C 	0.11780 0.75800 0.51400 0.00800
H 	H 	0.05370 0.72220 0.50390 0.04400
H 	H 	0.14110 0.79500 0.45240 0.08300
C 	C 	0.12740 0.82190 0.59260 -0.23400
H 	H 	0.13520 0.87790 0.56460 0.14300
H 	H 	0.17490 0.83410 0.64180 0.13000
C 	C 	0.93200 0.73600 0.54800 -0.56600
H 	H 	0.95520 0.74140 0.47940 0.25400
H 	H 	0.91580 0.78150 0.55890 0.27000
H 	H 	0.88060 0.67770 0.55750 0.22600
S 	S 	0.02030 0.75240 0.64170 0.19600
C 	C 	0.81280 0.31300 0.64410 -0.00000
H 	H 	0.85260 0.36940 0.67860 0.05000
H 	H 	0.81810 0.26600 0.67940 0.04000
C 	C 	0.72280 0.29500 0.65680 -0.19700
H 	H 	0.68010 0.24720 0.61230 0.09300
H 	H 	0.71720 0.34830 0.64960 0.08100
S 	S 	0.71710 0.25930 0.79110 0.07900
Hg	Hg	0.98360 0.74430 0.82500 0.17900
Cl	Cl	0.85590 0.58850 0.88910 -0.35000
Cl	Cl	0.11920 0.89840 0.87010 -0.30100
Cl	Cl	0.94370 0.80560 0.72720 -0.29800
Hg	Hg	0.83910 0.19310 0.74390 0.07400
Ca	Ca	0.66667 0.33333 0.26250 1.51000
Ca	Ca	0.33333 0.66667 0.76250 1.51000
C 	C 	0.33333 0.66667 0.30200 -0.04200
C 	C 	0.66667 0.33333 0.80200 -0.04600
