data_crystal

_cell_length_a 30.35300
_cell_length_b 4.85950
_cell_length_c 18.32300
_cell_angle_alpha 90.00000
_cell_angle_beta  118.12300
_cell_angle_gamma 90.00000

_symmetry_space_group_name_	'P 1'
_symmetry_space_group_name_H-M	'P 1'

loop_
_symmetry_equiv_pos_as_xyz
  x,y,z

loop_
_atom_site_label
_atom_site_type_symbol
_atom_site_fract_x
_atom_site_fract_y
_atom_site_fract_z
_atom_site_charge
C 	C 	0.82870 0.28800 0.09230 0.42600
C 	C 	0.88060 0.15100 0.14010 -0.16700
H 	H 	0.87620 0.95060 0.13640 0.09600
C 	C 	0.91180 0.23200 0.09750 -0.04900
H 	H 	0.89620 0.15860 0.04180 0.03700
H 	H 	0.91220 0.43140 0.09360 0.05200
C 	C 	0.96500 0.12700 0.14450 -0.06700
H 	H 	0.96510 0.92770 0.14010 0.05900
H 	H 	0.98470 0.20130 0.11990 0.05400
C 	C 	0.96010 0.11200 0.27310 -0.05900
H 	H 	0.97710 0.16800 0.33060 0.05200
H 	H 	0.95830 0.91240 0.27120 0.05900
C 	C 	0.90730 0.23300 0.23070 -0.06000
H 	H 	0.88870 0.16580 0.25800 0.06000
H 	H 	0.90920 0.43150 0.23530 0.06400
C 	C 	0.02170 0.40700 0.26230 0.17100
C 	C 	0.07430 0.67500 0.37100 0.17600
C 	C 	0.07540 0.70100 0.25000 0.17000
C 	C 	0.17560 0.73400 0.71260 0.42200
C 	C 	0.13700 0.82600 0.62640 -0.16900
H 	H 	0.12300 0.00090 0.63220 0.09000
C 	C 	0.16470 0.87900 0.57600 -0.03800
H 	H 	0.18240 0.71410 0.57530 0.03500
H 	H 	0.18920 0.02400 0.60250 0.02900
C 	C 	0.12860 0.96500 0.48610 -0.05800
H 	H 	0.11470 0.14550 0.48580 0.05300
H 	H 	0.14650 0.97580 0.45420 0.05600
C 	C 	0.06030 0.71100 0.49170 -0.05700
H 	H 	0.03690 0.56240 0.46410 0.05000
H 	H 	0.04120 0.87330 0.49000 0.04700
C 	C 	0.09460 0.63100 0.58140 -0.04500
H 	H 	0.07500 0.62120 0.61050 0.03700
H 	H 	0.10810 0.44940 0.58250 0.05300
C 	C 	0.20020 0.73500 0.11690 0.36400
C 	C 	0.15840 0.85800 0.12850 -0.15200
H 	H 	0.14960 0.03600 0.09990 0.07500
C 	C 	0.11320 0.68400 0.09370 -0.05200
H 	H 	0.12300 0.49630 0.11250 0.05500
H 	H 	0.09870 0.68430 0.03390 0.04000
C 	C 	0.07400 0.77400 0.11700 -0.05300
H 	H 	0.05820 0.94090 0.08720 0.04600
H 	H 	0.04850 0.63260 0.10070 0.04900
C 	C 	0.13560 0.01200 0.24000 -0.08000
H 	H 	0.14750 0.02220 0.29920 0.06000
H 	H 	0.12480 0.19350 0.21670 0.06200
C 	C 	0.17770 0.91000 0.22270 -0.03100
H 	H 	0.19160 0.74140 0.25300 0.04100
H 	H 	0.20410 0.04690 0.24210 0.02800
N 	N 	0.98780 0.20600 0.23200 -0.11600
N 	N 	0.03560 0.49300 0.34060 -0.16400
N 	N 	0.09640 0.77100 0.33070 -0.16700
N 	N 	0.03970 0.51400 0.21310 -0.16600
N 	N 	0.08870 0.76600 0.44920 -0.11800
N 	N 	0.09490 0.82200 0.20350 -0.11100
O 	O 	0.82470 0.52600 0.10180 -0.45700
O 	O 	0.79330 0.12800 0.04260 -0.55100
O 	O 	0.18810 0.47400 0.71230 -0.48400
H 	H 	0.20920 0.46380 0.69640 0.26400
O 	O 	0.19000 0.86800 0.77340 -0.40600
O 	O 	0.24000 0.86600 0.13700 -0.38800
O 	O 	0.19610 0.49500 0.09030 -0.42000
Cd	Cd	0.75938 0.78000 0.08613 1.25300
C 	C 	0.32870 0.78800 0.09230 0.42700
C 	C 	0.38060 0.65100 0.14010 -0.15400
H 	H 	0.37620 0.45060 0.13640 0.09000
C 	C 	0.41180 0.73200 0.09750 -0.06000
H 	H 	0.39620 0.65860 0.04180 0.04100
H 	H 	0.41220 0.93140 0.09360 0.05500
C 	C 	0.46500 0.62700 0.14450 -0.05300
H 	H 	0.46510 0.42770 0.14010 0.05200
H 	H 	0.48470 0.70130 0.11990 0.05100
C 	C 	0.46010 0.61200 0.27310 -0.04500
H 	H 	0.47710 0.66800 0.33060 0.05000
H 	H 	0.45830 0.41240 0.27120 0.05100
C 	C 	0.40730 0.73300 0.23070 -0.07200
H 	H 	0.38870 0.66580 0.25800 0.06400
H 	H 	0.40920 0.93150 0.23530 0.06800
C 	C 	0.52170 0.90700 0.26230 0.17400
C 	C 	0.57430 0.17500 0.37100 0.17200
C 	C 	0.57540 0.20100 0.25000 0.17000
C 	C 	0.67560 0.23400 0.71260 0.41500
C 	C 	0.63700 0.32600 0.62640 -0.16800
H 	H 	0.62300 0.50090 0.63220 0.09300
C 	C 	0.66470 0.37900 0.57600 -0.04600
H 	H 	0.68240 0.21410 0.57530 0.03500
H 	H 	0.68920 0.52400 0.60250 0.03500
C 	C 	0.62860 0.46500 0.48610 -0.06500
H 	H 	0.61470 0.64550 0.48580 0.05900
H 	H 	0.64650 0.47580 0.45420 0.05700
C 	C 	0.56030 0.21100 0.49170 -0.05100
H 	H 	0.53690 0.06240 0.46410 0.04700
H 	H 	0.54120 0.37330 0.49000 0.04400
C 	C 	0.59460 0.13100 0.58140 -0.05900
H 	H 	0.57500 0.12120 0.61050 0.04000
H 	H 	0.60810 0.94940 0.58250 0.06100
C 	C 	0.70020 0.23500 0.11690 0.36000
C 	C 	0.65840 0.35800 0.12850 -0.14700
H 	H 	0.64960 0.53600 0.09990 0.07700
C 	C 	0.61320 0.18400 0.09370 -0.06100
H 	H 	0.62300 0.99630 0.11250 0.05900
H 	H 	0.59870 0.18430 0.03390 0.04200
C 	C 	0.57400 0.27400 0.11700 -0.04700
H 	H 	0.55820 0.44090 0.08720 0.04300
H 	H 	0.54850 0.13260 0.10070 0.04700
C 	C 	0.63560 0.51200 0.24000 -0.05700
H 	H 	0.64750 0.52220 0.29920 0.05500
H 	H 	0.62480 0.69350 0.21670 0.05700
C 	C 	0.67770 0.41000 0.22270 -0.06000
H 	H 	0.69160 0.24140 0.25300 0.04800
H 	H 	0.70410 0.54690 0.24210 0.04000
N 	N 	0.48780 0.70600 0.23200 -0.11900
N 	N 	0.53560 0.99300 0.34060 -0.16100
N 	N 	0.59640 0.27100 0.33070 -0.16800
N 	N 	0.53970 0.01400 0.21310 -0.16700
N 	N 	0.58870 0.26600 0.44920 -0.11800
N 	N 	0.59490 0.32200 0.20350 -0.11700
O 	O 	0.32470 0.02600 0.10180 -0.46000
O 	O 	0.29330 0.62800 0.04260 -0.55000
O 	O 	0.68810 0.97400 0.71230 -0.47900
H 	H 	0.70920 0.96380 0.69640 0.26400
O 	O 	0.69000 0.36800 0.77340 -0.40600
O 	O 	0.74000 0.36600 0.13700 -0.38900
O 	O 	0.69610 0.99500 0.09030 -0.41700
Cd	Cd	0.25938 0.28000 0.08613 1.25200
C 	C 	0.17130 0.28800 0.90770 0.42700
C 	C 	0.11940 0.15100 0.85990 -0.16600
H 	H 	0.12380 0.95060 0.86360 0.09600
C 	C 	0.08820 0.23200 0.90250 -0.04900
H 	H 	0.10380 0.15860 0.95820 0.03700
H 	H 	0.08780 0.43140 0.90640 0.05200
C 	C 	0.03500 0.12700 0.85550 -0.06700
H 	H 	0.03490 0.92770 0.85990 0.05900
H 	H 	0.01530 0.20130 0.88010 0.05400
C 	C 	0.03990 0.11200 0.72690 -0.05900
H 	H 	0.02290 0.16800 0.66940 0.05200
H 	H 	0.04170 0.91240 0.72880 0.05900
C 	C 	0.09270 0.23300 0.76930 -0.06000
H 	H 	0.11130 0.16580 0.74200 0.06000
H 	H 	0.09080 0.43150 0.76470 0.06400
C 	C 	0.97830 0.40700 0.73770 0.17100
C 	C 	0.92570 0.67500 0.62900 0.17600
C 	C 	0.92460 0.70100 0.75000 0.17000
C 	C 	0.82440 0.73400 0.28740 0.42200
C 	C 	0.86300 0.82600 0.37360 -0.16900
H 	H 	0.87700 0.00090 0.36780 0.09000
C 	C 	0.83530 0.87900 0.42400 -0.03800
H 	H 	0.81760 0.71410 0.42470 0.03500
H 	H 	0.81080 0.02400 0.39750 0.02900
C 	C 	0.87140 0.96500 0.51390 -0.05800
H 	H 	0.88530 0.14550 0.51420 0.05300
H 	H 	0.85350 0.97580 0.54580 0.05600
C 	C 	0.93970 0.71100 0.50830 -0.05700
H 	H 	0.96310 0.56240 0.53590 0.05000
H 	H 	0.95880 0.87330 0.51000 0.04700
C 	C 	0.90540 0.63100 0.41860 -0.04500
H 	H 	0.92500 0.62120 0.38950 0.03700
H 	H 	0.89190 0.44940 0.41750 0.05300
C 	C 	0.79980 0.73500 0.88310 0.36400
C 	C 	0.84160 0.85800 0.87150 -0.15200
H 	H 	0.85040 0.03600 0.90010 0.07500
C 	C 	0.88680 0.68400 0.90630 -0.05200
H 	H 	0.87700 0.49630 0.88750 0.05500
H 	H 	0.90130 0.68430 0.96610 0.04000
C 	C 	0.92600 0.77400 0.88300 -0.05300
H 	H 	0.94180 0.94090 0.91280 0.04600
H 	H 	0.95150 0.63260 0.89930 0.04900
C 	C 	0.86440 0.01200 0.76000 -0.08000
H 	H 	0.85250 0.02220 0.70080 0.06000
H 	H 	0.87520 0.19350 0.78330 0.06200
C 	C 	0.82230 0.91000 0.77730 -0.03100
H 	H 	0.80840 0.74140 0.74700 0.04100
H 	H 	0.79590 0.04690 0.75790 0.02800
N 	N 	0.01220 0.20600 0.76800 -0.11600
N 	N 	0.96440 0.49300 0.65940 -0.16400
N 	N 	0.90360 0.77100 0.66930 -0.16700
N 	N 	0.96030 0.51400 0.78690 -0.16600
N 	N 	0.91130 0.76600 0.55080 -0.11800
N 	N 	0.90510 0.82200 0.79650 -0.11100
O 	O 	0.17530 0.52600 0.89820 -0.45700
O 	O 	0.20670 0.12800 0.95740 -0.55100
O 	O 	0.81190 0.47400 0.28770 -0.48400
H 	H 	0.79080 0.46380 0.30360 0.26400
O 	O 	0.81000 0.86800 0.22660 -0.40600
O 	O 	0.76000 0.86600 0.86300 -0.38800
O 	O 	0.80390 0.49500 0.90970 -0.42000
Cd	Cd	0.24062 0.78000 0.91387 1.25300
C 	C 	0.67130 0.78800 0.90770 0.42700
C 	C 	0.61940 0.65100 0.85990 -0.15400
H 	H 	0.62380 0.45060 0.86360 0.09000
C 	C 	0.58820 0.73200 0.90250 -0.06000
H 	H 	0.60380 0.65860 0.95820 0.04100
H 	H 	0.58780 0.93140 0.90640 0.05500
C 	C 	0.53500 0.62700 0.85550 -0.05300
H 	H 	0.53490 0.42770 0.85990 0.05200
H 	H 	0.51530 0.70130 0.88010 0.05100
C 	C 	0.53990 0.61200 0.72690 -0.04500
H 	H 	0.52290 0.66800 0.66940 0.05000
H 	H 	0.54170 0.41240 0.72880 0.05100
C 	C 	0.59270 0.73300 0.76930 -0.07200
H 	H 	0.61130 0.66580 0.74200 0.06400
H 	H 	0.59080 0.93150 0.76470 0.06800
C 	C 	0.47830 0.90700 0.73770 0.17400
C 	C 	0.42570 0.17500 0.62900 0.17200
C 	C 	0.42460 0.20100 0.75000 0.17000
C 	C 	0.32440 0.23400 0.28740 0.41500
C 	C 	0.36300 0.32600 0.37360 -0.16800
H 	H 	0.37700 0.50090 0.36780 0.09300
C 	C 	0.33530 0.37900 0.42400 -0.04600
H 	H 	0.31760 0.21410 0.42470 0.03500
H 	H 	0.31080 0.52400 0.39750 0.03500
C 	C 	0.37140 0.46500 0.51390 -0.06500
H 	H 	0.38530 0.64550 0.51420 0.05900
H 	H 	0.35350 0.47580 0.54580 0.05700
C 	C 	0.43970 0.21100 0.50830 -0.05100
H 	H 	0.46310 0.06240 0.53590 0.04700
H 	H 	0.45880 0.37330 0.51000 0.04400
C 	C 	0.40540 0.13100 0.41860 -0.05900
H 	H 	0.42500 0.12120 0.38950 0.04000
H 	H 	0.39190 0.94940 0.41750 0.06100
C 	C 	0.29980 0.23500 0.88310 0.36000
C 	C 	0.34160 0.35800 0.87150 -0.14700
H 	H 	0.35040 0.53600 0.90010 0.07700
C 	C 	0.38680 0.18400 0.90630 -0.06100
H 	H 	0.37700 0.99630 0.88750 0.05900
H 	H 	0.40130 0.18430 0.96610 0.04200
C 	C 	0.42600 0.27400 0.88300 -0.04700
H 	H 	0.44180 0.44090 0.91280 0.04300
H 	H 	0.45150 0.13260 0.89930 0.04700
C 	C 	0.36440 0.51200 0.76000 -0.05700
H 	H 	0.35250 0.52220 0.70080 0.05500
H 	H 	0.37520 0.69350 0.78330 0.05700
C 	C 	0.32230 0.41000 0.77730 -0.06000
H 	H 	0.30840 0.24140 0.74700 0.04800
H 	H 	0.29590 0.54690 0.75790 0.04000
N 	N 	0.51220 0.70600 0.76800 -0.11900
N 	N 	0.46440 0.99300 0.65940 -0.16100
N 	N 	0.40360 0.27100 0.66930 -0.16800
N 	N 	0.46030 0.01400 0.78690 -0.16700
N 	N 	0.41130 0.26600 0.55080 -0.11800
N 	N 	0.40510 0.32200 0.79650 -0.11700
O 	O 	0.67530 0.02600 0.89820 -0.46000
O 	O 	0.70670 0.62800 0.95740 -0.55000
O 	O 	0.31190 0.97400 0.28770 -0.47900
H 	H 	0.29080 0.96380 0.30360 0.26400
O 	O 	0.31000 0.36800 0.22660 -0.40600
O 	O 	0.26000 0.36600 0.86300 -0.38900
O 	O 	0.30390 0.99500 0.90970 -0.41700
Cd	Cd	0.74062 0.28000 0.91387 1.25200
