data_crystal

_cell_length_a 18.36800
_cell_length_b 18.36800
_cell_length_c 17.96400
_cell_angle_alpha 90.00000
_cell_angle_beta  90.00000
_cell_angle_gamma 120.00000

_symmetry_space_group_name_	'P 1'
_symmetry_space_group_name_H-M	'P 1'

loop_
_symmetry_equiv_pos_as_xyz
  x,y,z

loop_
_atom_site_label
_atom_site_type_symbol
_atom_site_fract_x
_atom_site_fract_y
_atom_site_fract_z
_atom_site_charge
O 	O 	0.31760 0.22430 0.84260 -0.52300
Zn	Zn	0.24313 0.34157 0.67044 1.22500
C 	C 	0.27920 0.15740 0.80650 0.42600
O 	O 	0.21190 0.28190 0.57550 -0.50500
O 	O 	0.23650 0.44200 0.65480 -0.45700
O 	O 	0.15160 0.27130 0.73730 -0.50800
C 	C 	0.24170 0.07590 0.84960 -0.17400
C 	C 	0.30860 0.49900 0.63300 0.30900
C 	C 	0.25370 0.07600 0.92500 0.11800
O 	O 	0.36810 0.48600 0.62140 -0.32800
C 	C 	0.32160 0.58590 0.62440 -0.10700
H 	H 	0.28300 0.12730 0.95070 0.00300
C 	C 	0.25240 0.59870 0.62450 0.03100
H 	H 	0.19760 0.55220 0.62470 0.03600
O 	O 	0.77570 0.09330 0.84260 -0.52600
Zn	Zn	0.65843 0.90156 0.67044 1.23200
C 	C 	0.84260 0.12180 0.80650 0.42200
O 	O 	0.71810 0.93000 0.57550 -0.45800
O 	O 	0.55800 0.79450 0.65480 -0.45000
O 	O 	0.72870 0.88030 0.73730 -0.49000
C 	C 	0.92410 0.16580 0.84960 -0.14500
C 	C 	0.50100 0.80960 0.63300 0.30700
C 	C 	0.92400 0.17770 0.92500 0.15600
O 	O 	0.51400 0.88210 0.62140 -0.31200
C 	C 	0.41410 0.73570 0.62440 -0.10300
H 	H 	0.87270 0.15570 0.95070 -0.00600
C 	C 	0.40130 0.65370 0.62450 0.03000
H 	H 	0.44780 0.64540 0.62470 0.04000
O 	O 	0.90670 0.68240 0.84260 -0.50300
Zn	Zn	0.09844 0.75687 0.67044 1.22400
C 	C 	0.87820 0.72080 0.80650 0.43000
O 	O 	0.07000 0.78810 0.57550 -0.49000
O 	O 	0.20550 0.76350 0.65480 -0.45000
O 	O 	0.11970 0.84840 0.73730 -0.49600
C 	C 	0.83420 0.75830 0.84960 -0.17000
C 	C 	0.19040 0.69140 0.63300 0.31000
C 	C 	0.82230 0.74630 0.92500 0.11900
O 	O 	0.11790 0.63190 0.62140 -0.33600
C 	C 	0.26430 0.67840 0.62440 -0.10700
H 	H 	0.84430 0.71700 0.95070 0.01200
C 	C 	0.34630 0.74760 0.62450 0.03000
H 	H 	0.35460 0.80240 0.62470 0.04400
O 	O 	0.68240 0.77570 0.34260 -0.51200
Zn	Zn	0.75687 0.65843 0.17044 1.22700
C 	C 	0.72080 0.84260 0.30650 0.41900
O 	O 	0.78810 0.71810 0.07550 -0.49300
O 	O 	0.76350 0.55800 0.15480 -0.44500
O 	O 	0.84840 0.72870 0.23730 -0.48400
C 	C 	0.75830 0.92410 0.34960 -0.12300
C 	C 	0.69140 0.50100 0.13300 0.30800
C 	C 	0.74630 0.92400 0.42500 0.13800
O 	O 	0.63190 0.51400 0.12140 -0.32400
C 	C 	0.67840 0.41410 0.12440 -0.10000
H 	H 	0.71700 0.87270 0.45070 0.01200
C 	C 	0.74760 0.40130 0.12450 0.02800
H 	H 	0.80240 0.44780 0.12470 0.04700
O 	O 	0.22430 0.90670 0.34260 -0.49900
Zn	Zn	0.34157 0.09844 0.17044 1.22400
C 	C 	0.15740 0.87820 0.30650 0.42100
O 	O 	0.28190 0.07000 0.07550 -0.49700
O 	O 	0.44200 0.20550 0.15480 -0.45200
O 	O 	0.27130 0.11970 0.23730 -0.50800
C 	C 	0.07590 0.83420 0.34960 -0.15100
C 	C 	0.49900 0.19040 0.13300 0.31000
C 	C 	0.07600 0.82230 0.42500 0.09900
O 	O 	0.48600 0.11790 0.12140 -0.33300
C 	C 	0.58590 0.26430 0.12440 -0.10400
H 	H 	0.12730 0.84430 0.45070 0.02200
C 	C 	0.59870 0.34630 0.12450 0.03000
H 	H 	0.55220 0.35460 0.12470 0.04200
O 	O 	0.09330 0.31760 0.34260 -0.52700
Zn	Zn	0.90156 0.24313 0.17044 1.23100
C 	C 	0.12180 0.27920 0.30650 0.42800
O 	O 	0.93000 0.21190 0.07550 -0.46400
O 	O 	0.79450 0.23650 0.15480 -0.45000
O 	O 	0.88030 0.15160 0.23730 -0.49300
C 	C 	0.16580 0.24170 0.34960 -0.18000
C 	C 	0.80960 0.30860 0.13300 0.30800
C 	C 	0.17770 0.25370 0.42500 0.10900
O 	O 	0.88210 0.36810 0.12140 -0.30900
C 	C 	0.73570 0.32160 0.12440 -0.10000
H 	H 	0.15570 0.28300 0.45070 0.01000
C 	C 	0.65370 0.25240 0.12450 0.03000
H 	H 	0.64540 0.19760 0.12470 0.03900
O 	O 	0.77570 0.68240 0.34260 -0.51200
Zn	Zn	0.65843 0.75687 0.17044 1.22700
C 	C 	0.84260 0.72080 0.30650 0.41900
O 	O 	0.71810 0.78810 0.07550 -0.49300
O 	O 	0.55800 0.76350 0.15480 -0.44500
O 	O 	0.72870 0.84840 0.23730 -0.48400
C 	C 	0.92410 0.75830 0.34960 -0.12300
C 	C 	0.50100 0.69140 0.13300 0.30800
C 	C 	0.92400 0.74630 0.42500 0.13800
O 	O 	0.51400 0.63190 0.12140 -0.32400
C 	C 	0.41410 0.67840 0.12440 -0.10000
H 	H 	0.87270 0.71700 0.45070 0.01200
C 	C 	0.40130 0.74760 0.12450 0.02800
H 	H 	0.44780 0.80240 0.12470 0.04700
O 	O 	0.90670 0.22430 0.34260 -0.49900
Zn	Zn	0.09844 0.34157 0.17044 1.22400
C 	C 	0.87820 0.15740 0.30650 0.42100
O 	O 	0.07000 0.28190 0.07550 -0.49700
O 	O 	0.20550 0.44200 0.15480 -0.45200
O 	O 	0.11970 0.27130 0.23730 -0.50800
C 	C 	0.83420 0.07590 0.34960 -0.15100
C 	C 	0.19040 0.49900 0.13300 0.31000
C 	C 	0.82230 0.07600 0.42500 0.09900
O 	O 	0.11790 0.48600 0.12140 -0.33300
C 	C 	0.26430 0.58590 0.12440 -0.10400
H 	H 	0.84430 0.12730 0.45070 0.02200
C 	C 	0.34630 0.59870 0.12450 0.03000
H 	H 	0.35460 0.55220 0.12470 0.04200
O 	O 	0.31760 0.09330 0.34260 -0.52700
Zn	Zn	0.24313 0.90156 0.17044 1.23100
C 	C 	0.27920 0.12180 0.30650 0.42800
O 	O 	0.21190 0.93000 0.07550 -0.46400
O 	O 	0.23650 0.79450 0.15480 -0.45000
O 	O 	0.15160 0.88030 0.23730 -0.49300
C 	C 	0.24170 0.16580 0.34960 -0.18000
C 	C 	0.30860 0.80960 0.13300 0.30800
C 	C 	0.25370 0.17770 0.42500 0.10900
O 	O 	0.36810 0.88210 0.12140 -0.30900
C 	C 	0.32160 0.73570 0.12440 -0.10000
H 	H 	0.28300 0.15570 0.45070 0.01000
C 	C 	0.25240 0.65370 0.12450 0.03000
H 	H 	0.19760 0.64540 0.12470 0.03900
O 	O 	0.22430 0.31760 0.84260 -0.52200
Zn	Zn	0.34157 0.24313 0.67044 1.22500
C 	C 	0.15740 0.27920 0.80650 0.42600
O 	O 	0.28190 0.21190 0.57550 -0.50500
O 	O 	0.44200 0.23650 0.65480 -0.45700
O 	O 	0.27130 0.15160 0.73730 -0.50800
C 	C 	0.07590 0.24170 0.84960 -0.17400
C 	C 	0.49900 0.30860 0.63300 0.30900
C 	C 	0.07600 0.25370 0.92500 0.11800
O 	O 	0.48600 0.36810 0.62140 -0.32800
C 	C 	0.58590 0.32160 0.62440 -0.10700
H 	H 	0.12730 0.28300 0.95070 0.00300
C 	C 	0.59870 0.25240 0.62450 0.03100
H 	H 	0.55220 0.19760 0.62470 0.03600
O 	O 	0.09330 0.77570 0.84260 -0.52600
Zn	Zn	0.90156 0.65843 0.67044 1.23200
C 	C 	0.12180 0.84260 0.80650 0.42200
O 	O 	0.93000 0.71810 0.57550 -0.45800
O 	O 	0.79450 0.55800 0.65480 -0.45000
O 	O 	0.88030 0.72870 0.73730 -0.49000
C 	C 	0.16580 0.92410 0.84960 -0.14500
C 	C 	0.80960 0.50100 0.63300 0.30700
C 	C 	0.17770 0.92400 0.92500 0.15600
O 	O 	0.88210 0.51400 0.62140 -0.31200
C 	C 	0.73570 0.41410 0.62440 -0.10300
H 	H 	0.15570 0.87270 0.95070 -0.00600
C 	C 	0.65370 0.40130 0.62450 0.03000
H 	H 	0.64540 0.44780 0.62470 0.04000
O 	O 	0.68240 0.90670 0.84260 -0.50300
Zn	Zn	0.75687 0.09844 0.67044 1.22400
C 	C 	0.72080 0.87820 0.80650 0.43000
O 	O 	0.78810 0.07000 0.57550 -0.49000
O 	O 	0.76350 0.20550 0.65480 -0.45000
O 	O 	0.84840 0.11970 0.73730 -0.49600
C 	C 	0.75830 0.83420 0.84960 -0.17000
C 	C 	0.69140 0.19040 0.63300 0.31000
C 	C 	0.74630 0.82230 0.92500 0.11900
O 	O 	0.63190 0.11790 0.62140 -0.33600
C 	C 	0.67840 0.26430 0.62440 -0.10700
H 	H 	0.71700 0.84430 0.95070 0.01200
C 	C 	0.74760 0.34630 0.62450 0.03000
H 	H 	0.80240 0.35460 0.62470 0.04400
Zn	Zn	0.34910 0.34910 0.82824 1.15400
O 	O 	0.34350 0.34350 0.71270 -0.71000
C 	C 	0.23910 0.23910 0.54520 0.43700
C 	C 	0.22240 0.22240 0.46420 -0.18200
Zn	Zn	0.65090 0.00000 0.82824 1.14500
O 	O 	0.65650 0.00000 0.71270 -0.73100
C 	C 	0.76090 0.00000 0.54520 0.39300
C 	C 	0.77760 0.00000 0.46420 -0.19800
Zn	Zn	-0.00000 0.65090 0.82824 1.14500
O 	O 	0.00000 0.65650 0.71270 -0.73100
C 	C 	-0.00000 0.76090 0.54520 0.39300
C 	C 	-0.00000 0.77760 0.46420 -0.19800
Zn	Zn	0.65090 0.65090 0.32824 1.15700
O 	O 	0.65650 0.65650 0.21270 -0.70700
C 	C 	0.76090 0.76090 0.04520 0.46200
C 	C 	0.77760 0.77760 0.96420 -0.19600
Zn	Zn	0.34910 0.00000 0.32824 1.14600
O 	O 	0.34350 0.00000 0.21270 -0.73000
C 	C 	0.23910 0.00000 0.04520 0.41900
C 	C 	0.22240 0.00000 0.96420 -0.23800
Zn	Zn	0.00000 0.34910 0.32824 1.14600
O 	O 	-0.00000 0.34350 0.21270 -0.73000
C 	C 	-0.00000 0.23910 0.04520 0.41900
C 	C 	-0.00000 0.22240 0.96420 -0.23800
C 	C 	0.19770 0.00000 0.81110 0.05100
H 	H 	0.18960 0.00000 0.75950 0.02900
C 	C 	-0.00000 0.19770 0.81110 0.05100
H 	H 	0.00000 0.18960 0.75950 0.02900
C 	C 	0.80230 0.80230 0.81110 0.10600
H 	H 	0.81040 0.81040 0.75950 0.03400
C 	C 	0.80230 0.00000 0.31110 0.03800
H 	H 	0.81040 0.00000 0.25950 0.04100
C 	C 	-0.00000 0.80230 0.31110 0.03800
H 	H 	-0.00000 0.81040 0.25950 0.04100
C 	C 	0.19770 0.19770 0.31110 0.10200
H 	H 	0.18960 0.18960 0.25950 0.02400
