data_crystal

_cell_length_a 20.32800
_cell_length_b 20.32800
_cell_length_c 17.91000
_cell_angle_alpha 90.00000
_cell_angle_beta  90.00000
_cell_angle_gamma 90.00000

_symmetry_space_group_name_	'P 1'
_symmetry_space_group_name_H-M	'P 1'

loop_
_symmetry_equiv_pos_as_xyz
  x,y,z

loop_
_atom_site_label
_atom_site_type_symbol
_atom_site_fract_x
_atom_site_fract_y
_atom_site_fract_z
_atom_site_charge
Zn	Zn	0.25841 0.11757 0.76401 1.23100
O 	O 	0.19410 0.17210 0.71010 -0.46000
O 	O 	0.25720 0.03310 0.71190 -0.45100
O 	O 	0.23300 0.13040 0.86860 -0.43000
C 	C 	0.19890 0.17800 0.63920 0.36800
O 	O 	0.24560 0.15700 0.59970 -0.44200
O 	O 	0.33970 0.05160 0.62960 -0.41800
C 	C 	0.14270 0.21280 0.60170 -0.11500
C 	C 	0.48080 0.20910 0.65330 0.37500
C 	C 	0.09000 0.23370 0.64400 0.06400
C 	C 	0.14310 0.22420 0.52390 0.05500
C 	C 	0.53910 0.23040 0.61020 -0.11700
H 	H 	0.08820 0.22400 0.69470 0.04600
C 	C 	0.09280 0.25750 0.49040 -0.10200
H 	H 	0.17810 0.20890 0.49530 0.04300
C 	C 	0.54110 0.21830 0.53330 0.05700
C 	C 	0.09120 0.26790 0.40770 0.32500
H 	H 	0.50770 0.19400 0.51080 0.03900
O 	O 	0.05230 0.30780 0.38040 -0.30300
Zn	Zn	0.75841 0.61757 0.26401 1.23100
O 	O 	0.69410 0.67210 0.21010 -0.45800
O 	O 	0.75720 0.53310 0.21190 -0.44900
O 	O 	0.73300 0.63040 0.36860 -0.43500
C 	C 	0.69890 0.67800 0.13920 0.35800
O 	O 	0.74560 0.65700 0.09970 -0.44300
O 	O 	0.83970 0.55160 0.12960 -0.41800
C 	C 	0.64270 0.71280 0.10170 -0.09000
C 	C 	0.98080 0.70910 0.15330 0.36600
C 	C 	0.59000 0.73370 0.14400 0.04000
C 	C 	0.64310 0.72420 0.02390 -0.00400
C 	C 	0.03910 0.73040 0.11020 -0.09900
H 	H 	0.58820 0.72400 0.19470 0.05200
C 	C 	0.59280 0.75750 0.99040 -0.05500
H 	H 	0.67810 0.70890 0.99530 0.06900
C 	C 	0.04110 0.71830 0.03330 0.01800
C 	C 	0.59120 0.76790 0.90770 0.30800
H 	H 	0.00770 0.69400 0.01080 0.04700
O 	O 	0.55230 0.80780 0.88040 -0.29700
Zn	Zn	0.74159 0.88243 0.76401 1.23000
O 	O 	0.80590 0.82790 0.71010 -0.46100
O 	O 	0.74280 0.96690 0.71190 -0.45200
O 	O 	0.76700 0.86960 0.86860 -0.43100
C 	C 	0.80110 0.82200 0.63920 0.36700
O 	O 	0.75440 0.84300 0.59970 -0.44300
O 	O 	0.66030 0.94840 0.62960 -0.41900
C 	C 	0.85730 0.78720 0.60170 -0.11600
C 	C 	0.51920 0.79090 0.65330 0.37400
C 	C 	0.91000 0.76630 0.64400 0.06300
C 	C 	0.85690 0.77580 0.52390 0.05400
C 	C 	0.46090 0.76960 0.61020 -0.11800
H 	H 	0.91180 0.77600 0.69470 0.04500
C 	C 	0.90720 0.74250 0.49040 -0.10300
H 	H 	0.82190 0.79110 0.49530 0.04200
C 	C 	0.45890 0.78170 0.53330 0.05600
C 	C 	0.90880 0.73210 0.40770 0.32400
H 	H 	0.49230 0.80600 0.51080 0.03800
O 	O 	0.94770 0.69220 0.38040 -0.30400
Zn	Zn	0.24159 0.38243 0.26401 1.23000
O 	O 	0.30590 0.32790 0.21010 -0.45900
O 	O 	0.24280 0.46690 0.21190 -0.45000
O 	O 	0.26700 0.36960 0.36860 -0.43600
C 	C 	0.30110 0.32200 0.13920 0.35700
O 	O 	0.25440 0.34300 0.09970 -0.44300
O 	O 	0.16030 0.44840 0.12960 -0.41800
C 	C 	0.35730 0.28720 0.10170 -0.09000
C 	C 	0.01920 0.29090 0.15330 0.36600
C 	C 	0.41000 0.26630 0.14400 0.04000
C 	C 	0.35690 0.27580 0.02390 -0.00400
C 	C 	0.96090 0.26960 0.11020 -0.09900
H 	H 	0.41180 0.27600 0.19470 0.05200
C 	C 	0.40720 0.24250 0.99040 -0.05500
H 	H 	0.32190 0.29110 0.99530 0.06900
C 	C 	0.95890 0.28170 0.03330 0.01800
C 	C 	0.40880 0.23210 0.90770 0.30800
H 	H 	0.99230 0.30600 0.01080 0.04700
O 	O 	0.44770 0.19220 0.88040 -0.29700
Zn	Zn	0.88243 0.25841 0.76401 1.23000
O 	O 	0.82790 0.19410 0.71010 -0.46100
O 	O 	0.96690 0.25720 0.71190 -0.45200
O 	O 	0.86960 0.23300 0.86860 -0.43100
C 	C 	0.82200 0.19890 0.63920 0.36700
O 	O 	0.84300 0.24560 0.59970 -0.44300
O 	O 	0.94840 0.33970 0.62960 -0.41900
C 	C 	0.78720 0.14270 0.60170 -0.11600
C 	C 	0.79090 0.48080 0.65330 0.37400
C 	C 	0.76630 0.09000 0.64400 0.06300
C 	C 	0.77580 0.14310 0.52390 0.05400
C 	C 	0.76960 0.53910 0.61020 -0.11800
H 	H 	0.77600 0.08820 0.69470 0.04500
C 	C 	0.74250 0.09280 0.49040 -0.10300
H 	H 	0.79110 0.17810 0.49530 0.04200
C 	C 	0.78170 0.54110 0.53330 0.05600
C 	C 	0.73210 0.09120 0.40770 0.32400
H 	H 	0.80600 0.50770 0.51080 0.03800
O 	O 	0.69220 0.05230 0.38040 -0.30400
Zn	Zn	0.38243 0.75841 0.26401 1.23000
O 	O 	0.32790 0.69410 0.21010 -0.45900
O 	O 	0.46690 0.75720 0.21190 -0.45000
O 	O 	0.36960 0.73300 0.36860 -0.43600
C 	C 	0.32200 0.69890 0.13920 0.35700
O 	O 	0.34300 0.74560 0.09970 -0.44300
O 	O 	0.44840 0.83970 0.12960 -0.41800
C 	C 	0.28720 0.64270 0.10170 -0.09000
C 	C 	0.29090 0.98080 0.15330 0.36600
C 	C 	0.26630 0.59000 0.14400 0.04000
C 	C 	0.27580 0.64310 0.02390 -0.00400
C 	C 	0.26960 0.03910 0.11020 -0.09900
H 	H 	0.27600 0.58820 0.19470 0.05200
C 	C 	0.24250 0.59280 0.99040 -0.05500
H 	H 	0.29110 0.67810 0.99530 0.06900
C 	C 	0.28170 0.04110 0.03330 0.01800
C 	C 	0.23210 0.59120 0.90770 0.30800
H 	H 	0.30600 0.00770 0.01080 0.04700
O 	O 	0.19220 0.55230 0.88040 -0.29700
Zn	Zn	0.11757 0.74159 0.76401 1.23000
O 	O 	0.17210 0.80590 0.71010 -0.46100
O 	O 	0.03310 0.74280 0.71190 -0.45200
O 	O 	0.13040 0.76700 0.86860 -0.43100
C 	C 	0.17800 0.80110 0.63920 0.36700
O 	O 	0.15700 0.75440 0.59970 -0.44300
O 	O 	0.05160 0.66030 0.62960 -0.41900
C 	C 	0.21280 0.85730 0.60170 -0.11600
C 	C 	0.20910 0.51920 0.65330 0.37400
C 	C 	0.23370 0.91000 0.64400 0.06300
C 	C 	0.22420 0.85690 0.52390 0.05400
C 	C 	0.23040 0.46090 0.61020 -0.11800
H 	H 	0.22400 0.91180 0.69470 0.04500
C 	C 	0.25750 0.90720 0.49040 -0.10300
H 	H 	0.20890 0.82190 0.49530 0.04200
C 	C 	0.21830 0.45890 0.53330 0.05600
C 	C 	0.26790 0.90880 0.40770 0.32400
H 	H 	0.19400 0.49230 0.51080 0.03800
O 	O 	0.30780 0.94770 0.38040 -0.30400
Zn	Zn	0.61757 0.24159 0.26401 1.23000
O 	O 	0.67210 0.30590 0.21010 -0.45900
O 	O 	0.53310 0.24280 0.21190 -0.45000
O 	O 	0.63040 0.26700 0.36860 -0.43600
C 	C 	0.67800 0.30110 0.13920 0.35700
O 	O 	0.65700 0.25440 0.09970 -0.44300
O 	O 	0.55160 0.16030 0.12960 -0.41800
C 	C 	0.71280 0.35730 0.10170 -0.09000
C 	C 	0.70910 0.01920 0.15330 0.36600
C 	C 	0.73370 0.41000 0.14400 0.04000
C 	C 	0.72420 0.35690 0.02390 -0.00400
C 	C 	0.73040 0.96090 0.11020 -0.09900
H 	H 	0.72400 0.41180 0.19470 0.05200
C 	C 	0.75750 0.40720 0.99040 -0.05500
H 	H 	0.70890 0.32190 0.99530 0.06900
C 	C 	0.71830 0.95890 0.03330 0.01800
C 	C 	0.76790 0.40880 0.90770 0.30800
H 	H 	0.69400 0.99230 0.01080 0.04700
O 	O 	0.80780 0.44770 0.88040 -0.29700
Zn	Zn	0.25841 0.88243 0.26401 1.23000
O 	O 	0.19410 0.82790 0.21010 -0.45900
O 	O 	0.25720 0.96690 0.21190 -0.45100
O 	O 	0.23300 0.86960 0.36860 -0.43600
C 	C 	0.19890 0.82200 0.13920 0.35700
O 	O 	0.24560 0.84300 0.09970 -0.44300
O 	O 	0.33970 0.94840 0.12960 -0.41800
C 	C 	0.14270 0.78720 0.10170 -0.09100
C 	C 	0.48080 0.79090 0.15330 0.36600
C 	C 	0.09000 0.76630 0.14400 0.04100
C 	C 	0.14310 0.77580 0.02390 -0.00300
C 	C 	0.53910 0.76960 0.11020 -0.09900
H 	H 	0.08820 0.77600 0.19470 0.05200
C 	C 	0.09280 0.74250 0.99040 -0.05500
H 	H 	0.17810 0.79110 0.99530 0.06800
C 	C 	0.54110 0.78170 0.03330 0.01800
C 	C 	0.09120 0.73210 0.90770 0.30800
H 	H 	0.50770 0.80600 0.01080 0.04800
O 	O 	0.05230 0.69220 0.88040 -0.29700
Zn	Zn	0.75841 0.38243 0.76401 1.23000
O 	O 	0.69410 0.32790 0.71010 -0.46000
O 	O 	0.75720 0.46690 0.71190 -0.45100
O 	O 	0.73300 0.36960 0.86860 -0.43100
C 	C 	0.69890 0.32200 0.63920 0.36700
O 	O 	0.74560 0.34300 0.59970 -0.44300
O 	O 	0.83970 0.44840 0.62960 -0.41900
C 	C 	0.64270 0.28720 0.60170 -0.11600
C 	C 	0.98080 0.29090 0.65330 0.37400
C 	C 	0.59000 0.26630 0.64400 0.06300
C 	C 	0.64310 0.27580 0.52390 0.05400
C 	C 	0.03910 0.26960 0.61020 -0.11900
H 	H 	0.58820 0.27600 0.69470 0.04500
C 	C 	0.59280 0.24250 0.49040 -0.10300
H 	H 	0.67810 0.29110 0.49530 0.04200
C 	C 	0.04110 0.28170 0.53330 0.05600
C 	C 	0.59120 0.23210 0.40770 0.32400
H 	H 	0.00770 0.30600 0.51080 0.03800
O 	O 	0.55230 0.19220 0.38040 -0.30400
Zn	Zn	0.74159 0.11757 0.26401 1.23000
O 	O 	0.80590 0.17210 0.21010 -0.45900
O 	O 	0.74280 0.03310 0.21190 -0.45100
O 	O 	0.76700 0.13040 0.36860 -0.43600
C 	C 	0.80110 0.17800 0.13920 0.35700
O 	O 	0.75440 0.15700 0.09970 -0.44300
O 	O 	0.66030 0.05160 0.12960 -0.41800
C 	C 	0.85730 0.21280 0.10170 -0.09100
C 	C 	0.51920 0.20910 0.15330 0.36600
C 	C 	0.91000 0.23370 0.14400 0.04100
C 	C 	0.85690 0.22420 0.02390 -0.00300
C 	C 	0.46090 0.23040 0.11020 -0.09900
H 	H 	0.91180 0.22400 0.19470 0.05200
C 	C 	0.90720 0.25750 0.99040 -0.05500
H 	H 	0.82190 0.20890 0.99530 0.06800
C 	C 	0.45890 0.21830 0.03330 0.01800
C 	C 	0.90880 0.26790 0.90770 0.30800
H 	H 	0.49230 0.19400 0.01080 0.04800
O 	O 	0.94770 0.30780 0.88040 -0.29700
Zn	Zn	0.24159 0.61757 0.76401 1.23000
O 	O 	0.30590 0.67210 0.71010 -0.46000
O 	O 	0.24280 0.53310 0.71190 -0.45100
O 	O 	0.26700 0.63040 0.86860 -0.43100
C 	C 	0.30110 0.67800 0.63920 0.36700
O 	O 	0.25440 0.65700 0.59970 -0.44300
O 	O 	0.16030 0.55160 0.62960 -0.41900
C 	C 	0.35730 0.71280 0.60170 -0.11600
C 	C 	0.01920 0.70910 0.65330 0.37400
C 	C 	0.41000 0.73370 0.64400 0.06300
C 	C 	0.35690 0.72420 0.52390 0.05400
C 	C 	0.96090 0.73040 0.61020 -0.11900
H 	H 	0.41180 0.72400 0.69470 0.04500
C 	C 	0.40720 0.75750 0.49040 -0.10300
H 	H 	0.32190 0.70890 0.49530 0.04200
C 	C 	0.95890 0.71830 0.53330 0.05600
C 	C 	0.40880 0.76790 0.40770 0.32400
H 	H 	0.99230 0.69400 0.51080 0.03800
O 	O 	0.44770 0.80780 0.38040 -0.30400
Zn	Zn	0.88243 0.74159 0.26401 1.23000
O 	O 	0.82790 0.80590 0.21010 -0.45900
O 	O 	0.96690 0.74280 0.21190 -0.45100
O 	O 	0.86960 0.76700 0.36860 -0.43600
C 	C 	0.82200 0.80110 0.13920 0.35700
O 	O 	0.84300 0.75440 0.09970 -0.44300
O 	O 	0.94840 0.66030 0.12960 -0.41800
C 	C 	0.78720 0.85730 0.10170 -0.09100
C 	C 	0.79090 0.51920 0.15330 0.36600
C 	C 	0.76630 0.91000 0.14400 0.04100
C 	C 	0.77580 0.85690 0.02390 -0.00300
C 	C 	0.76960 0.46090 0.11020 -0.09900
H 	H 	0.77600 0.91180 0.19470 0.05200
C 	C 	0.74250 0.90720 0.99040 -0.05500
H 	H 	0.79110 0.82190 0.99530 0.06800
C 	C 	0.78170 0.45890 0.03330 0.01800
C 	C 	0.73210 0.90880 0.90770 0.30800
H 	H 	0.80600 0.49230 0.01080 0.04800
O 	O 	0.69220 0.94770 0.88040 -0.29700
Zn	Zn	0.38243 0.24159 0.76401 1.23000
O 	O 	0.32790 0.30590 0.71010 -0.46000
O 	O 	0.46690 0.24280 0.71190 -0.45100
O 	O 	0.36960 0.26700 0.86860 -0.43100
C 	C 	0.32200 0.30110 0.63920 0.36700
O 	O 	0.34300 0.25440 0.59970 -0.44300
O 	O 	0.44840 0.16030 0.62960 -0.41900
C 	C 	0.28720 0.35730 0.60170 -0.11600
C 	C 	0.29090 0.01920 0.65330 0.37400
C 	C 	0.26630 0.41000 0.64400 0.06300
C 	C 	0.27580 0.35690 0.52390 0.05400
C 	C 	0.26960 0.96090 0.61020 -0.11900
H 	H 	0.27600 0.41180 0.69470 0.04500
C 	C 	0.24250 0.40720 0.49040 -0.10300
H 	H 	0.29110 0.32190 0.49530 0.04200
C 	C 	0.28170 0.95890 0.53330 0.05600
C 	C 	0.23210 0.40880 0.40770 0.32400
H 	H 	0.30600 0.99230 0.51080 0.03800
O 	O 	0.19220 0.44770 0.38040 -0.30400
Zn	Zn	0.11757 0.25841 0.26401 1.23000
O 	O 	0.17210 0.19410 0.21010 -0.45900
O 	O 	0.03310 0.25720 0.21190 -0.45100
O 	O 	0.13040 0.23300 0.36860 -0.43600
C 	C 	0.17800 0.19890 0.13920 0.35700
O 	O 	0.15700 0.24560 0.09970 -0.44300
O 	O 	0.05160 0.33970 0.12960 -0.41800
C 	C 	0.21280 0.14270 0.10170 -0.09100
C 	C 	0.20910 0.48080 0.15330 0.36600
C 	C 	0.23370 0.09000 0.14400 0.04100
C 	C 	0.22420 0.14310 0.02390 -0.00300
C 	C 	0.23040 0.53910 0.11020 -0.09900
H 	H 	0.22400 0.08820 0.19470 0.05200
C 	C 	0.25750 0.09280 0.99040 -0.05500
H 	H 	0.20890 0.17810 0.99530 0.06800
C 	C 	0.21830 0.54110 0.03330 0.01800
C 	C 	0.26790 0.09120 0.90770 0.30800
H 	H 	0.19400 0.50770 0.01080 0.04800
O 	O 	0.30780 0.05230 0.88040 -0.29700
Zn	Zn	0.61757 0.75841 0.76401 1.23000
O 	O 	0.67210 0.69410 0.71010 -0.46000
O 	O 	0.53310 0.75720 0.71190 -0.45100
O 	O 	0.63040 0.73300 0.86860 -0.43100
C 	C 	0.67800 0.69890 0.63920 0.36700
O 	O 	0.65700 0.74560 0.59970 -0.44300
O 	O 	0.55160 0.83970 0.62960 -0.41900
C 	C 	0.71280 0.64270 0.60170 -0.11600
C 	C 	0.70910 0.98080 0.65330 0.37400
C 	C 	0.73370 0.59000 0.64400 0.06300
C 	C 	0.72420 0.64310 0.52390 0.05400
C 	C 	0.73040 0.03910 0.61020 -0.11900
H 	H 	0.72400 0.58820 0.69470 0.04500
C 	C 	0.75750 0.59280 0.49040 -0.10300
H 	H 	0.70890 0.67810 0.49530 0.04200
C 	C 	0.71830 0.04110 0.53330 0.05600
C 	C 	0.76790 0.59120 0.40770 0.32400
H 	H 	0.69400 0.00770 0.51080 0.03800
O 	O 	0.80780 0.55230 0.38040 -0.30400
O 	O 	0.34370 0.15630 0.73700 -0.64400
Co	Co	0.34706 0.15294 0.61906 1.15900
O 	O 	0.65630 0.84370 0.73700 -0.64400
Co	Co	0.65294 0.84706 0.61906 1.15900
O 	O 	0.15630 0.34370 0.23700 -0.64400
Co	Co	0.15294 0.34706 0.11906 1.15800
O 	O 	0.84370 0.34370 0.73700 -0.64400
Co	Co	0.84706 0.34706 0.61906 1.15900
O 	O 	0.15630 0.65630 0.73700 -0.64400
Co	Co	0.15294 0.65294 0.61906 1.15900
O 	O 	0.34370 0.84370 0.23700 -0.64400
Co	Co	0.34706 0.84706 0.11906 1.15800
O 	O 	0.65630 0.15630 0.23700 -0.64400
Co	Co	0.65294 0.15294 0.11906 1.15800
O 	O 	0.84370 0.65630 0.23700 -0.64400
Co	Co	0.84706 0.65294 0.11906 1.15800
