data_crystal

_cell_length_a 18.38900
_cell_length_b 18.38900
_cell_length_c 17.96900
_cell_angle_alpha 90.00000
_cell_angle_beta  90.00000
_cell_angle_gamma 120.00000

_symmetry_space_group_name_	'P 1'
_symmetry_space_group_name_H-M	'P 1'

loop_
_symmetry_equiv_pos_as_xyz
  x,y,z

loop_
_atom_site_label
_atom_site_type_symbol
_atom_site_fract_x
_atom_site_fract_y
_atom_site_fract_z
_atom_site_charge
Zn	Zn	0.75691 0.65858 0.33316 1.22600
O 	O 	0.78770 0.71860 0.42930 -0.49700
O 	O 	0.76030 0.55680 0.34990 -0.48100
O 	O 	0.87990 0.72900 0.76690 -0.48300
C 	C 	0.69170 0.50370 0.37070 0.36400
O 	O 	0.90700 0.68440 0.66270 -0.48100
O 	O 	0.63110 0.51300 0.38090 -0.34600
C 	C 	0.67750 0.41320 0.37700 -0.11700
C 	C 	0.82210 0.74630 0.57760 0.13100
C 	C 	0.74740 0.40100 0.37720 0.04400
H 	H 	0.84430 0.71760 0.55130 0.01300
C 	C 	0.83350 0.75660 0.65400 -0.18600
H 	H 	0.80210 0.44750 0.37750 0.04100
C 	C 	0.87700 0.72180 0.69680 0.43700
Zn	Zn	0.34142 0.09833 0.33316 1.22400
O 	O 	0.28140 0.06910 0.42930 -0.50000
O 	O 	0.44320 0.20350 0.34990 -0.48600
O 	O 	0.27100 0.15090 0.76690 -0.50000
C 	C 	0.49630 0.18800 0.37070 0.36700
O 	O 	0.31560 0.22260 0.66270 -0.50000
O 	O 	0.48700 0.11810 0.38090 -0.35400
C 	C 	0.58680 0.26430 0.37700 -0.12100
C 	C 	0.25370 0.07580 0.57760 0.13300
C 	C 	0.59900 0.34640 0.37720 0.04500
H 	H 	0.28240 0.12670 0.55130 0.00500
C 	C 	0.24340 0.07690 0.65400 -0.19100
H 	H 	0.55250 0.35460 0.37750 0.03500
C 	C 	0.27820 0.15520 0.69680 0.43500
Zn	Zn	0.90167 0.24309 0.33316 1.23100
O 	O 	0.93090 0.21230 0.42930 -0.47000
O 	O 	0.79650 0.23970 0.34990 -0.48400
O 	O 	0.84910 0.12010 0.76690 -0.48900
C 	C 	0.81200 0.30830 0.37070 0.36400
O 	O 	0.77740 0.09300 0.66270 -0.50400
O 	O 	0.88190 0.36890 0.38090 -0.33200
C 	C 	0.73570 0.32250 0.37700 -0.11700
C 	C 	0.92420 0.17790 0.57760 0.17000
C 	C 	0.65360 0.25260 0.37720 0.04600
H 	H 	0.87330 0.15570 0.55130 -0.00400
C 	C 	0.92310 0.16650 0.65400 -0.16500
H 	H 	0.64540 0.19790 0.37750 0.03300
C 	C 	0.84480 0.12300 0.69680 0.43100
Zn	Zn	0.24309 0.34142 0.83316 1.22600
O 	O 	0.21230 0.28140 0.92930 -0.50900
O 	O 	0.23970 0.44320 0.84990 -0.48500
O 	O 	0.12010 0.27100 0.26690 -0.50600
C 	C 	0.30830 0.49630 0.87070 0.36600
O 	O 	0.09300 0.31560 0.16270 -0.51100
O 	O 	0.36890 0.48700 0.88090 -0.34300
C 	C 	0.32250 0.58680 0.87700 -0.11700
C 	C 	0.17790 0.25370 0.07760 0.15100
C 	C 	0.25260 0.59900 0.87720 0.04500
H 	H 	0.15570 0.28240 0.05130 -0.00900
C 	C 	0.16650 0.24340 0.15400 -0.21500
H 	H 	0.19790 0.55250 0.87750 0.03400
C 	C 	0.12300 0.27820 0.19680 0.44300
Zn	Zn	0.65858 0.90167 0.83316 1.23200
O 	O 	0.71860 0.93090 0.92930 -0.46500
O 	O 	0.55680 0.79650 0.84990 -0.47800
O 	O 	0.72900 0.84910 0.26690 -0.48300
C 	C 	0.50370 0.81200 0.87070 0.36300
O 	O 	0.68440 0.77740 0.16270 -0.49800
O 	O 	0.51300 0.88190 0.88090 -0.32800
C 	C 	0.41320 0.73570 0.87700 -0.11200
C 	C 	0.74630 0.92420 0.07760 0.18000
C 	C 	0.40100 0.65360 0.87720 0.04400
H 	H 	0.71760 0.87330 0.05130 -0.00800
C 	C 	0.75660 0.92310 0.15400 -0.16600
H 	H 	0.44750 0.64540 0.87750 0.03800
C 	C 	0.72180 0.84480 0.19680 0.43500
Zn	Zn	0.09833 0.75691 0.83316 1.22500
O 	O 	0.06910 0.78770 0.92930 -0.49500
O 	O 	0.20350 0.76030 0.84990 -0.47900
O 	O 	0.15090 0.87990 0.26690 -0.49100
C 	C 	0.18800 0.69170 0.87070 0.36600
O 	O 	0.22260 0.90700 0.16270 -0.48600
O 	O 	0.11810 0.63110 0.88090 -0.35100
C 	C 	0.26430 0.67750 0.87700 -0.11600
C 	C 	0.07580 0.82210 0.07760 0.14400
C 	C 	0.34640 0.74740 0.87720 0.04300
H 	H 	0.12670 0.84430 0.05130 0.00200
C 	C 	0.07690 0.83350 0.15400 -0.19100
H 	H 	0.35460 0.80210 0.87750 0.04300
C 	C 	0.15520 0.87700 0.19680 0.43600
Zn	Zn	0.34142 0.24309 0.83316 1.22600
O 	O 	0.28140 0.21230 0.92930 -0.50900
O 	O 	0.44320 0.23970 0.84990 -0.48500
O 	O 	0.27100 0.12010 0.26690 -0.50600
C 	C 	0.49630 0.30830 0.87070 0.36600
O 	O 	0.31560 0.09300 0.16270 -0.51100
O 	O 	0.48700 0.36890 0.88090 -0.34300
C 	C 	0.58680 0.32250 0.87700 -0.11700
C 	C 	0.25370 0.17790 0.07760 0.15100
C 	C 	0.59900 0.25260 0.87720 0.04500
H 	H 	0.28240 0.15570 0.05130 -0.00900
C 	C 	0.24340 0.16650 0.15400 -0.21500
H 	H 	0.55250 0.19790 0.87750 0.03400
C 	C 	0.27820 0.12300 0.19680 0.44300
Zn	Zn	0.90167 0.65858 0.83316 1.23200
O 	O 	0.93090 0.71860 0.92930 -0.46500
O 	O 	0.79650 0.55680 0.84990 -0.47800
O 	O 	0.84910 0.72900 0.26690 -0.48300
C 	C 	0.81200 0.50370 0.87070 0.36300
O 	O 	0.77740 0.68440 0.16270 -0.49800
O 	O 	0.88190 0.51300 0.88090 -0.32800
C 	C 	0.73570 0.41320 0.87700 -0.11200
C 	C 	0.92420 0.74630 0.07760 0.18000
C 	C 	0.65360 0.40100 0.87720 0.04400
H 	H 	0.87330 0.71760 0.05130 -0.00800
C 	C 	0.92310 0.75660 0.15400 -0.16600
H 	H 	0.64540 0.44750 0.87750 0.03800
C 	C 	0.84480 0.72180 0.19680 0.43500
Zn	Zn	0.75691 0.09833 0.83316 1.22500
O 	O 	0.78770 0.06910 0.92930 -0.49500
O 	O 	0.76030 0.20350 0.84990 -0.47900
O 	O 	0.87990 0.15090 0.26690 -0.49100
C 	C 	0.69170 0.18800 0.87070 0.36600
O 	O 	0.90700 0.22260 0.16270 -0.48600
O 	O 	0.63110 0.11810 0.88090 -0.35100
C 	C 	0.67750 0.26430 0.87700 -0.11600
C 	C 	0.82210 0.07580 0.07760 0.14400
C 	C 	0.74740 0.34640 0.87720 0.04300
H 	H 	0.84430 0.12670 0.05130 0.00200
C 	C 	0.83350 0.07690 0.15400 -0.19100
H 	H 	0.80210 0.35460 0.87750 0.04300
C 	C 	0.87700 0.15520 0.19680 0.43600
Zn	Zn	0.65858 0.75691 0.33316 1.22700
O 	O 	0.71860 0.78770 0.42930 -0.49600
O 	O 	0.55680 0.76030 0.34990 -0.48000
O 	O 	0.72900 0.87990 0.76690 -0.48300
C 	C 	0.50370 0.69170 0.37070 0.36400
O 	O 	0.68440 0.90700 0.66270 -0.48100
O 	O 	0.51300 0.63110 0.38090 -0.34600
C 	C 	0.41320 0.67750 0.37700 -0.11700
C 	C 	0.74630 0.82210 0.57760 0.13100
C 	C 	0.40100 0.74740 0.37720 0.04400
H 	H 	0.71760 0.84430 0.55130 0.01300
C 	C 	0.75660 0.83350 0.65400 -0.18600
H 	H 	0.44750 0.80210 0.37750 0.04100
C 	C 	0.72180 0.87700 0.69680 0.43700
Zn	Zn	0.09833 0.34142 0.33316 1.22400
O 	O 	0.06910 0.28140 0.42930 -0.50000
O 	O 	0.20350 0.44320 0.34990 -0.48600
O 	O 	0.15090 0.27100 0.76690 -0.50000
C 	C 	0.18800 0.49630 0.37070 0.36700
O 	O 	0.22260 0.31560 0.66270 -0.50000
O 	O 	0.11810 0.48700 0.38090 -0.35400
C 	C 	0.26430 0.58680 0.37700 -0.12100
C 	C 	0.07580 0.25370 0.57760 0.13300
C 	C 	0.34640 0.59900 0.37720 0.04500
H 	H 	0.12670 0.28240 0.55130 0.00500
C 	C 	0.07690 0.24340 0.65400 -0.19100
H 	H 	0.35460 0.55250 0.37750 0.03500
C 	C 	0.15520 0.27820 0.69680 0.43500
Zn	Zn	0.24309 0.90167 0.33316 1.23100
O 	O 	0.21230 0.93090 0.42930 -0.47000
O 	O 	0.23970 0.79650 0.34990 -0.48400
O 	O 	0.12010 0.84910 0.76690 -0.48900
C 	C 	0.30830 0.81200 0.37070 0.36400
O 	O 	0.09300 0.77740 0.66270 -0.50400
O 	O 	0.36890 0.88190 0.38090 -0.33200
C 	C 	0.32250 0.73570 0.37700 -0.11700
C 	C 	0.17790 0.92420 0.57760 0.17000
C 	C 	0.25260 0.65360 0.37720 0.04600
H 	H 	0.15570 0.87330 0.55130 -0.00400
C 	C 	0.16650 0.92310 0.65400 -0.16500
H 	H 	0.19790 0.64540 0.37750 0.03300
C 	C 	0.12300 0.84480 0.69680 0.43100
O 	O 	0.65710 0.65710 0.29210 -0.68900
Co	Co	0.65066 0.65066 0.17540 1.07500
C 	C 	0.76020 0.76020 0.46040 0.46300
C 	C 	0.77800 0.77800 0.53940 -0.19800
C 	C 	0.80370 0.80370 0.69210 0.11500
H 	H 	0.81525 0.81525 0.74300 0.03200
O 	O 	0.34290 0.00000 0.29210 -0.71000
Co	Co	0.34934 0.00000 0.17540 1.06200
C 	C 	0.23980 0.00000 0.46040 0.42400
C 	C 	0.22200 0.00000 0.53940 -0.24100
C 	C 	0.19630 0.00000 0.69210 0.06700
H 	H 	0.18475 0.00000 0.74300 0.02600
O 	O 	0.00000 0.34290 0.29210 -0.71000
Co	Co	-0.00000 0.34934 0.17540 1.06200
C 	C 	0.00000 0.23980 0.46040 0.42400
C 	C 	-0.00000 0.22200 0.53940 -0.24100
C 	C 	0.00000 0.19630 0.69210 0.06700
H 	H 	-0.00000 0.18475 0.74300 0.02600
O 	O 	0.34290 0.34290 0.79210 -0.68900
Co	Co	0.34934 0.34934 0.67540 1.07600
C 	C 	0.23980 0.23980 0.96040 0.48800
C 	C 	0.22200 0.22200 0.03940 -0.24400
C 	C 	0.19630 0.19630 0.19210 0.12800
H 	H 	0.18475 0.18475 0.24300 0.01400
O 	O 	0.65710 0.00000 0.79210 -0.70800
Co	Co	0.65066 0.00000 0.67540 1.06400
C 	C 	0.76020 -0.00000 0.96040 0.44600
C 	C 	0.77800 0.00000 0.03940 -0.25900
C 	C 	0.80370 0.00000 0.19210 0.07200
H 	H 	0.81525 0.00000 0.24300 0.02900
O 	O 	0.00000 0.65710 0.79210 -0.70800
Co	Co	0.00000 0.65066 0.67540 1.06400
C 	C 	-0.00000 0.76020 0.96040 0.44600
C 	C 	-0.00000 0.77800 0.03940 -0.25900
C 	C 	-0.00000 0.80370 0.19210 0.07200
H 	H 	-0.00000 0.81525 0.24300 0.02900
