data_crystal

_cell_length_a 15.43700
_cell_length_b 15.43700
_cell_length_c 7.51120
_cell_angle_alpha 90.00000
_cell_angle_beta  90.00000
_cell_angle_gamma 90.00000

_symmetry_space_group_name_	'P 1'
_symmetry_space_group_name_H-M	'P 1'

loop_
_symmetry_equiv_pos_as_xyz
  x,y,z

loop_
_atom_site_label
_atom_site_type_symbol
_atom_site_fract_x
_atom_site_fract_y
_atom_site_fract_z
_atom_site_charge
S 	S 	0.41788 0.52951 0.27047 -0.02500
S 	S 	0.59615 0.58087 0.36300 -0.00300
N 	N 	0.33320 0.68050 0.66020 -0.24400
C 	C 	0.47560 0.59060 0.11300 -0.02300
C 	C 	0.55650 0.61270 0.15760 -0.06300
H 	H 	0.59080 0.64450 0.07970 0.04900
C 	C 	0.50300 0.52250 0.42370 -0.00300
C 	C 	0.41910 0.69360 0.67500 0.09100
H 	H 	0.44660 0.72470 0.58540 -0.01300
C 	C 	0.46870 0.66390 0.81350 -0.16600
H 	H 	0.52790 0.67480 0.81600 0.08700
C 	C 	0.42970 0.61720 0.95030 0.09900
C 	C 	0.34250 0.59960 0.92980 -0.16600
H 	H 	0.31390 0.56580 0.01390 0.09100
C 	C 	0.29760 0.63160 0.78580 0.09200
H 	H 	0.23910 0.61820 0.77580 -0.02100
S 	S 	0.08212 0.97049 0.27047 -0.02300
S 	S 	0.90385 0.91913 0.36300 -0.00200
N 	N 	0.16680 0.81950 0.66020 -0.24300
C 	C 	0.02440 0.90940 0.11300 -0.02100
C 	C 	0.94350 0.88730 0.15760 -0.06300
H 	H 	0.90920 0.85550 0.07970 0.05000
C 	C 	0.99700 0.97750 0.42370 -0.00400
C 	C 	0.08090 0.80640 0.67500 0.09000
H 	H 	0.05340 0.77530 0.58540 -0.01300
C 	C 	0.03130 0.83610 0.81350 -0.16300
H 	H 	0.97210 0.82520 0.81600 0.08500
C 	C 	0.07030 0.88280 0.95030 0.09800
C 	C 	0.15750 0.90040 0.92980 -0.16600
H 	H 	0.18610 0.93420 0.01390 0.09100
C 	C 	0.20240 0.86840 0.78580 0.09200
H 	H 	0.26090 0.88180 0.77580 -0.02100
S 	S 	0.97049 0.41788 0.27047 -0.02300
S 	S 	0.91913 0.59615 0.36300 -0.00200
N 	N 	0.81950 0.33320 0.66020 -0.24300
C 	C 	0.90940 0.47560 0.11300 -0.02200
C 	C 	0.88730 0.55650 0.15760 -0.06200
H 	H 	0.85550 0.59080 0.07970 0.05000
C 	C 	0.97750 0.50300 0.42370 -0.00300
C 	C 	0.80640 0.41910 0.67500 0.09100
H 	H 	0.77530 0.44660 0.58540 -0.01300
C 	C 	0.83610 0.46870 0.81350 -0.16600
H 	H 	0.82520 0.52790 0.81600 0.08600
C 	C 	0.88280 0.42970 0.95030 0.09900
C 	C 	0.90040 0.34250 0.92980 -0.16600
H 	H 	0.93420 0.31390 0.01390 0.09100
C 	C 	0.86840 0.29760 0.78580 0.09200
H 	H 	0.88180 0.23910 0.77580 -0.02100
S 	S 	0.52951 0.08212 0.27047 -0.02400
S 	S 	0.58087 0.90385 0.36300 -0.00200
N 	N 	0.68050 0.16680 0.66020 -0.24300
C 	C 	0.59060 0.02440 0.11300 -0.02200
C 	C 	0.61270 0.94350 0.15760 -0.06200
H 	H 	0.64450 0.90920 0.07970 0.05000
C 	C 	0.52250 0.99700 0.42370 -0.00300
C 	C 	0.69360 0.08090 0.67500 0.09000
H 	H 	0.72470 0.05340 0.58540 -0.01300
C 	C 	0.66390 0.03130 0.81350 -0.16400
H 	H 	0.67480 0.97210 0.81600 0.08600
C 	C 	0.61720 0.07030 0.95030 0.09900
C 	C 	0.59960 0.15750 0.92980 -0.16500
H 	H 	0.56580 0.18610 0.01390 0.09100
C 	C 	0.63160 0.20240 0.78580 0.09200
H 	H 	0.61820 0.26090 0.77580 -0.02100
S 	S 	0.58212 0.47049 0.72953 -0.02400
S 	S 	0.40385 0.41913 0.63700 -0.00200
N 	N 	0.66680 0.31950 0.33980 -0.24300
C 	C 	0.52440 0.40940 0.88700 -0.02200
C 	C 	0.44350 0.38730 0.84240 -0.06200
H 	H 	0.40920 0.35550 0.92030 0.05000
C 	C 	0.49700 0.47750 0.57630 -0.00300
C 	C 	0.58090 0.30640 0.32500 0.09100
H 	H 	0.55340 0.27530 0.41460 -0.01300
C 	C 	0.53130 0.33610 0.18650 -0.16600
H 	H 	0.47210 0.32520 0.18400 0.08700
C 	C 	0.57030 0.38280 0.04970 0.09900
C 	C 	0.65750 0.40040 0.07020 -0.16600
H 	H 	0.68610 0.43420 0.98610 0.09100
C 	C 	0.70240 0.36840 0.21420 0.09200
H 	H 	0.76090 0.38180 0.22420 -0.02100
S 	S 	0.91788 0.02951 0.72953 -0.02300
S 	S 	0.09615 0.08087 0.63700 -0.00200
N 	N 	0.83320 0.18050 0.33980 -0.24300
C 	C 	0.97560 0.09060 0.88700 -0.02100
C 	C 	0.05650 0.11270 0.84240 -0.06300
H 	H 	0.09080 0.14450 0.92030 0.05000
C 	C 	0.00300 0.02250 0.57630 -0.00400
C 	C 	0.91910 0.19360 0.32500 0.09000
H 	H 	0.94660 0.22470 0.41460 -0.01300
C 	C 	0.96870 0.16390 0.18650 -0.16300
H 	H 	0.02790 0.17480 0.18400 0.08500
C 	C 	0.92970 0.11720 0.04970 0.09800
C 	C 	0.84250 0.09960 0.07020 -0.16600
H 	H 	0.81390 0.06580 0.98610 0.09100
C 	C 	0.79760 0.13160 0.21420 0.09200
H 	H 	0.73910 0.11820 0.22420 -0.02100
S 	S 	0.02951 0.58212 0.72953 -0.02300
S 	S 	0.08087 0.40385 0.63700 -0.00200
N 	N 	0.18050 0.66680 0.33980 -0.24300
C 	C 	0.09060 0.52440 0.88700 -0.02200
C 	C 	0.11270 0.44350 0.84240 -0.06200
H 	H 	0.14450 0.40920 0.92030 0.05000
C 	C 	0.02250 0.49700 0.57630 -0.00300
C 	C 	0.19360 0.58090 0.32500 0.09100
H 	H 	0.22470 0.55340 0.41460 -0.01300
C 	C 	0.16390 0.53130 0.18650 -0.16600
H 	H 	0.17480 0.47210 0.18400 0.08600
C 	C 	0.11720 0.57030 0.04970 0.09900
C 	C 	0.09960 0.65750 0.07020 -0.16600
H 	H 	0.06580 0.68610 0.98610 0.09100
C 	C 	0.13160 0.70240 0.21420 0.09200
H 	H 	0.11820 0.76090 0.22420 -0.02100
S 	S 	0.47049 0.91788 0.72953 -0.02400
S 	S 	0.41913 0.09615 0.63700 -0.00200
N 	N 	0.31950 0.83320 0.33980 -0.24300
C 	C 	0.40940 0.97560 0.88700 -0.02200
C 	C 	0.38730 0.05650 0.84240 -0.06200
H 	H 	0.35550 0.09080 0.92030 0.05000
C 	C 	0.47750 0.00300 0.57630 -0.00300
C 	C 	0.30640 0.91910 0.32500 0.09000
H 	H 	0.27530 0.94660 0.41460 -0.01300
C 	C 	0.33610 0.96870 0.18650 -0.16400
H 	H 	0.32520 0.02790 0.18400 0.08600
C 	C 	0.38280 0.92970 0.04970 0.09900
C 	C 	0.40040 0.84250 0.07020 -0.16500
H 	H 	0.43420 0.81390 0.98610 0.09100
C 	C 	0.36840 0.79760 0.21420 0.09200
H 	H 	0.38180 0.73910 0.22420 -0.02100
Cu	Cu	0.25000 0.75000 0.50000 0.85100
Cu	Cu	0.75000 0.25000 0.50000 0.85100
