data_crystal

_cell_length_a 19.35770
_cell_length_b 19.35770
_cell_length_c 11.02420
_cell_angle_alpha 90.00000
_cell_angle_beta  90.00000
_cell_angle_gamma 90.00000

_symmetry_space_group_name_	'P 1'
_symmetry_space_group_name_H-M	'P 1'

loop_
_symmetry_equiv_pos_as_xyz
  x,y,z

loop_
_atom_site_label
_atom_site_type_symbol
_atom_site_fract_x
_atom_site_fract_y
_atom_site_fract_z
_atom_site_charge
C 	C 	0.30830 0.57930 0.25990 0.09400
H 	H 	0.34970 0.59530 0.22800 0.00400
C 	C 	0.31150 0.53370 0.35590 -0.14500
C 	C 	0.38110 0.51570 0.41110 0.40500
O 	O 	0.38040 0.48340 0.50840 -0.40500
O 	O 	0.43190 0.53540 0.35360 -0.41800
C 	C 	0.19170 0.92070 0.25990 0.09400
H 	H 	0.15030 0.90470 0.22800 0.00400
C 	C 	0.18850 0.96630 0.35590 -0.14700
C 	C 	0.11890 0.98430 0.41110 0.40500
O 	O 	0.11960 0.01660 0.50840 -0.40700
O 	O 	0.06810 0.96460 0.35360 -0.41900
C 	C 	0.92070 0.30830 0.25990 0.09300
H 	H 	0.90470 0.34970 0.22800 0.00300
C 	C 	0.96630 0.31150 0.35590 -0.14700
C 	C 	0.98430 0.38110 0.41110 0.40400
O 	O 	0.01660 0.38040 0.50840 -0.40700
O 	O 	0.96460 0.43190 0.35360 -0.41900
C 	C 	0.57930 0.19170 0.25990 0.09300
H 	H 	0.59530 0.15030 0.22800 0.00300
C 	C 	0.53370 0.18850 0.35590 -0.14600
C 	C 	0.51570 0.11890 0.41110 0.40400
O 	O 	0.48340 0.11960 0.50840 -0.40600
O 	O 	0.53540 0.06810 0.35360 -0.41900
C 	C 	0.69170 0.07930 0.74010 0.09300
H 	H 	0.65030 0.09530 0.77200 0.00300
C 	C 	0.68850 0.03370 0.64410 -0.14700
C 	C 	0.61890 0.01570 0.58890 0.40400
O 	O 	0.61960 0.98340 0.49160 -0.40700
O 	O 	0.56810 0.03540 0.64640 -0.41900
C 	C 	0.80830 0.42070 0.74010 0.09300
H 	H 	0.84970 0.40470 0.77200 0.00300
C 	C 	0.81150 0.46630 0.64410 -0.14600
C 	C 	0.88110 0.48430 0.58890 0.40400
O 	O 	0.88040 0.51660 0.49160 -0.40600
O 	O 	0.93190 0.46460 0.64640 -0.41900
C 	C 	0.07930 0.80830 0.74010 0.09300
H 	H 	0.09530 0.84970 0.77200 0.00300
C 	C 	0.03370 0.81150 0.64410 -0.14700
C 	C 	0.01570 0.88110 0.58890 0.40500
O 	O 	0.98340 0.88040 0.49160 -0.40700
O 	O 	0.03540 0.93190 0.64640 -0.41900
C 	C 	0.42070 0.69170 0.74010 0.09300
H 	H 	0.40470 0.65030 0.77200 0.00300
C 	C 	0.46630 0.68850 0.64410 -0.14600
C 	C 	0.48430 0.61890 0.58890 0.40400
O 	O 	0.51660 0.61960 0.49160 -0.40600
O 	O 	0.46460 0.56810 0.64640 -0.41900
C 	C 	0.69170 0.42070 0.74010 0.09300
H 	H 	0.65030 0.40470 0.77200 0.00300
C 	C 	0.68850 0.46630 0.64410 -0.14600
C 	C 	0.61890 0.48430 0.58890 0.40400
O 	O 	0.61960 0.51660 0.49160 -0.40600
O 	O 	0.56810 0.46460 0.64640 -0.41900
C 	C 	0.80830 0.07930 0.74010 0.09300
H 	H 	0.84970 0.09530 0.77200 0.00300
C 	C 	0.81150 0.03370 0.64410 -0.14700
C 	C 	0.88110 0.01570 0.58890 0.40500
O 	O 	0.88040 0.98340 0.49160 -0.40700
O 	O 	0.93190 0.03540 0.64640 -0.41900
C 	C 	0.07930 0.69170 0.74010 0.09300
H 	H 	0.09530 0.65030 0.77200 0.00300
C 	C 	0.03370 0.68850 0.64410 -0.14700
C 	C 	0.01570 0.61890 0.58890 0.40400
O 	O 	0.98340 0.61960 0.49160 -0.40700
O 	O 	0.03540 0.56810 0.64640 -0.41900
C 	C 	0.42070 0.80830 0.74010 0.09300
H 	H 	0.40470 0.84970 0.77200 0.00300
C 	C 	0.46630 0.81150 0.64410 -0.14600
C 	C 	0.48430 0.88110 0.58890 0.40400
O 	O 	0.51660 0.88040 0.49160 -0.40600
O 	O 	0.46460 0.93190 0.64640 -0.41900
C 	C 	0.30830 0.92070 0.25990 0.09300
H 	H 	0.34970 0.90470 0.22800 0.00300
C 	C 	0.31150 0.96630 0.35590 -0.14700
C 	C 	0.38110 0.98430 0.41110 0.40400
O 	O 	0.38040 0.01660 0.50840 -0.40700
O 	O 	0.43190 0.96460 0.35360 -0.41900
C 	C 	0.19170 0.57930 0.25990 0.09300
H 	H 	0.15030 0.59530 0.22800 0.00300
C 	C 	0.18850 0.53370 0.35590 -0.14600
C 	C 	0.11890 0.51570 0.41110 0.40400
O 	O 	0.11960 0.48340 0.50840 -0.40600
O 	O 	0.06810 0.53540 0.35360 -0.41900
C 	C 	0.92070 0.19170 0.25990 0.09300
H 	H 	0.90470 0.15030 0.22800 0.00300
C 	C 	0.96630 0.18850 0.35590 -0.14700
C 	C 	0.98430 0.11890 0.41110 0.40500
O 	O 	0.01660 0.11960 0.50840 -0.40700
O 	O 	0.96460 0.06810 0.35360 -0.41900
C 	C 	0.57930 0.30830 0.25990 0.09300
H 	H 	0.59530 0.34970 0.22800 0.00300
C 	C 	0.53370 0.31150 0.35590 -0.14600
C 	C 	0.51570 0.38110 0.41110 0.40400
O 	O 	0.48340 0.38040 0.50840 -0.40600
O 	O 	0.53540 0.43190 0.35360 -0.41900
Cu	Cu	0.25000 0.68089 0.08787 0.72500
I 	I 	0.25000 0.63108 0.86473 -0.57000
C 	C 	0.25000 0.51190 0.40600 0.09200
H 	H 	0.25000 0.48260 0.47290 0.03300
N 	N 	0.25000 0.60170 0.21000 -0.24400
Cu	Cu	0.25000 0.81911 0.08787 0.72500
I 	I 	0.25000 0.86892 0.86473 -0.56900
C 	C 	0.25000 0.98810 0.40600 0.09300
H 	H 	0.25000 0.01740 0.47290 0.03200
N 	N 	0.25000 0.89830 0.21000 -0.24400
Cu	Cu	0.81911 0.25000 0.08787 0.72500
I 	I 	0.86892 0.25000 0.86473 -0.56900
C 	C 	0.98810 0.25000 0.40600 0.09300
H 	H 	0.01740 0.25000 0.47290 0.03200
N 	N 	0.89830 0.25000 0.21000 -0.24400
Cu	Cu	0.68089 0.25000 0.08787 0.72500
I 	I 	0.63108 0.25000 0.86473 -0.57000
C 	C 	0.51190 0.25000 0.40600 0.09200
H 	H 	0.48260 0.25000 0.47290 0.03300
N 	N 	0.60170 0.25000 0.21000 -0.24400
Cu	Cu	0.75000 0.18089 0.91213 0.72500
I 	I 	0.75000 0.13108 0.13527 -0.56900
C 	C 	0.75000 0.01190 0.59400 0.09300
H 	H 	0.75000 0.98260 0.52710 0.03200
N 	N 	0.75000 0.10170 0.79000 -0.24400
Cu	Cu	0.75000 0.31911 0.91213 0.72500
I 	I 	0.75000 0.36892 0.13527 -0.57000
C 	C 	0.75000 0.48810 0.59400 0.09200
H 	H 	0.75000 0.51740 0.52710 0.03300
N 	N 	0.75000 0.39830 0.79000 -0.24400
Cu	Cu	0.18089 0.75000 0.91213 0.72500
I 	I 	0.13108 0.75000 0.13527 -0.56900
C 	C 	0.01190 0.75000 0.59400 0.09300
H 	H 	0.98260 0.75000 0.52710 0.03200
N 	N 	0.10170 0.75000 0.79000 -0.24400
Cu	Cu	0.31911 0.75000 0.91213 0.72500
I 	I 	0.36892 0.75000 0.13527 -0.57000
C 	C 	0.48810 0.75000 0.59400 0.09200
H 	H 	0.51740 0.75000 0.52710 0.03300
N 	N 	0.39830 0.75000 0.79000 -0.24400
Cu	Cu	0.46747 0.46747 0.60140 0.90600
Cu	Cu	0.03253 0.03253 0.60140 0.90600
Cu	Cu	0.03253 0.46747 0.60140 0.90600
Cu	Cu	0.46747 0.03253 0.60140 0.90600
Cu	Cu	0.53253 0.96747 0.39860 0.90600
Cu	Cu	0.96747 0.53253 0.39860 0.90600
Cu	Cu	0.96747 0.96747 0.39860 0.90600
Cu	Cu	0.53253 0.53253 0.39860 0.90600
