data_crystal

_cell_length_a 18.19600
_cell_length_b 18.19600
_cell_length_c 15.12700
_cell_angle_alpha 90.00000
_cell_angle_beta  90.00000
_cell_angle_gamma 120.00000

_symmetry_space_group_name_	'P 1'
_symmetry_space_group_name_H-M	'P 1'

loop_
_symmetry_equiv_pos_as_xyz
  x,y,z

loop_
_atom_site_label
_atom_site_type_symbol
_atom_site_fract_x
_atom_site_fract_y
_atom_site_fract_z
_atom_site_charge
C 	C 	0.05670 0.32480 0.82190 0.35500
C 	C 	0.96610 0.27160 0.85330 -0.15500
C 	C 	0.94140 0.19810 0.89970 0.10100
H 	H 	0.98170 0.18130 0.91370 0.00800
C 	C 	0.90920 0.29760 0.83860 0.10700
H 	H 	0.92660 0.34980 0.80890 0.01400
C 	C 	0.85750 0.14840 0.92620 -0.19200
H 	H 	0.83980 0.09680 0.95720 0.10800
C 	C 	0.82600 0.24900 0.86650 -0.19800
H 	H 	0.78670 0.26810 0.85670 0.10600
C 	C 	0.80080 0.17450 0.90740 0.18100
C 	C 	0.67850 0.15230 0.98980 0.08400
H 	H 	0.71210 0.20860 0.01140 0.03800
C 	C 	0.66860 0.04150 0.91140 0.09000
H 	H 	0.69530 0.01700 0.87820 0.01600
C 	C 	0.59620 0.10520 0.01710 -0.13800
H 	H 	0.57440 0.12840 0.05890 0.11000
C 	C 	0.58450 0.99280 0.93500 -0.13200
H 	H 	0.55300 0.93550 0.91590 0.10000
C 	C 	0.54530 0.02600 0.98570 0.06700
N 	N 	0.71230 0.12250 0.93510 -0.16400
O 	O 	0.11390 0.31510 0.85470 -0.36300
O 	O 	0.07180 0.37720 0.76330 -0.39900
Cl	Cl	0.22970 0.54043 0.64607 -0.60200
C 	C 	0.67520 0.73190 0.82190 0.35400
C 	C 	0.72840 0.69450 0.85330 -0.15300
C 	C 	0.80190 0.74330 0.89970 0.10000
H 	H 	0.81870 0.80040 0.91370 0.00900
C 	C 	0.70240 0.61160 0.83860 0.10700
H 	H 	0.65020 0.57680 0.80890 0.01500
C 	C 	0.85160 0.70910 0.92620 -0.19000
H 	H 	0.90320 0.74300 0.95720 0.10900
C 	C 	0.75100 0.57700 0.86650 -0.19600
H 	H 	0.73190 0.51860 0.85670 0.10700
C 	C 	0.82550 0.62630 0.90740 0.18200
C 	C 	0.84770 0.52620 0.98980 0.08800
H 	H 	0.79140 0.50350 0.01140 0.03700
C 	C 	0.95850 0.62710 0.91140 0.09200
H 	H 	0.98300 0.67830 0.87820 0.01700
C 	C 	0.89480 0.49100 0.01710 -0.13900
H 	H 	0.87160 0.44600 0.05890 0.11200
C 	C 	0.00720 0.59170 0.93500 -0.13100
H 	H 	0.06450 0.61750 0.91590 0.10100
C 	C 	0.97400 0.51930 0.98570 0.06900
N 	N 	0.87750 0.58980 0.93510 -0.16300
O 	O 	0.68490 0.79880 0.85470 -0.36200
O 	O 	0.62280 0.69460 0.76330 -0.39700
Cl	Cl	0.45957 0.68927 0.64607 -0.60200
C 	C 	0.26810 0.94330 0.82190 0.35600
C 	C 	0.30550 0.03390 0.85330 -0.15400
C 	C 	0.25670 0.05860 0.89970 0.10200
H 	H 	0.19960 0.01830 0.91370 0.01000
C 	C 	0.38840 0.09080 0.83860 0.10800
H 	H 	0.42320 0.07340 0.80890 0.01500
C 	C 	0.29090 0.14250 0.92620 -0.19200
H 	H 	0.25700 0.16020 0.95720 0.11000
C 	C 	0.42300 0.17400 0.86650 -0.19700
H 	H 	0.48140 0.21330 0.85670 0.10800
C 	C 	0.37370 0.19920 0.90740 0.18300
C 	C 	0.47380 0.32150 0.98980 0.09300
H 	H 	0.49650 0.28790 0.01140 0.03500
C 	C 	0.37290 0.33140 0.91140 0.09700
H 	H 	0.32170 0.30470 0.87820 0.01600
C 	C 	0.50900 0.40380 0.01710 -0.14600
H 	H 	0.55400 0.42560 0.05890 0.11400
C 	C 	0.40830 0.41550 0.93500 -0.13900
H 	H 	0.38250 0.44700 0.91590 0.10300
C 	C 	0.48070 0.45470 0.98570 0.07400
N 	N 	0.41020 0.28770 0.93510 -0.16500
O 	O 	0.20120 0.88610 0.85470 -0.36200
O 	O 	0.30540 0.92820 0.76330 -0.39800
Cl	Cl	0.31073 0.77030 0.64607 -0.60100
C 	C 	0.67520 0.94330 0.67810 0.35600
C 	C 	0.72840 0.03390 0.64670 -0.15400
C 	C 	0.80190 0.05860 0.60030 0.10200
H 	H 	0.81870 0.01830 0.58630 0.01000
C 	C 	0.70240 0.09080 0.66140 0.10800
H 	H 	0.65020 0.07340 0.69110 0.01500
C 	C 	0.85160 0.14250 0.57380 -0.19100
H 	H 	0.90320 0.16020 0.54280 0.11000
C 	C 	0.75100 0.17400 0.63350 -0.19700
H 	H 	0.73190 0.21330 0.64330 0.10800
C 	C 	0.82550 0.19920 0.59260 0.18300
C 	C 	0.84770 0.32150 0.51020 0.09600
H 	H 	0.79140 0.28790 0.48860 0.03400
C 	C 	0.95850 0.33140 0.58860 0.09700
H 	H 	0.98300 0.30470 0.62180 0.01600
C 	C 	0.89480 0.40380 0.48290 -0.14800
H 	H 	0.87160 0.42560 0.44110 0.11500
C 	C 	0.00720 0.41550 0.56500 -0.13900
H 	H 	0.06450 0.44700 0.58410 0.10300
C 	C 	0.97400 0.45470 0.51430 0.07400
N 	N 	0.87750 0.28770 0.56490 -0.16600
O 	O 	0.68490 0.88610 0.64530 -0.36200
O 	O 	0.62280 0.92820 0.73670 -0.39700
Cl	Cl	0.45957 0.77030 0.85393 -0.60100
C 	C 	0.26810 0.32480 0.67810 0.35500
C 	C 	0.30550 0.27160 0.64670 -0.15200
C 	C 	0.25670 0.19810 0.60030 0.10100
H 	H 	0.19960 0.18130 0.58630 0.01000
C 	C 	0.38840 0.29760 0.66140 0.10700
H 	H 	0.42320 0.34980 0.69110 0.01500
C 	C 	0.29090 0.14840 0.57380 -0.19100
H 	H 	0.25700 0.09680 0.54280 0.11000
C 	C 	0.42300 0.24900 0.63350 -0.19700
H 	H 	0.48140 0.26810 0.64330 0.10800
C 	C 	0.37370 0.17450 0.59260 0.18300
C 	C 	0.47380 0.15230 0.51020 0.09600
H 	H 	0.49650 0.20860 0.48860 0.03400
C 	C 	0.37290 0.04150 0.58860 0.09700
H 	H 	0.32170 0.01700 0.62180 0.01600
C 	C 	0.50900 0.10520 0.48290 -0.14800
H 	H 	0.55400 0.12840 0.44110 0.11500
C 	C 	0.40830 0.99280 0.56500 -0.13900
H 	H 	0.38250 0.93550 0.58410 0.10300
C 	C 	0.48070 0.02600 0.51430 0.07400
N 	N 	0.41020 0.12250 0.56490 -0.16600
O 	O 	0.20120 0.31510 0.64530 -0.36200
O 	O 	0.30540 0.37720 0.73670 -0.39800
Cl	Cl	0.31073 0.54043 0.85393 -0.60100
C 	C 	0.05670 0.73190 0.67810 0.35600
C 	C 	0.96610 0.69450 0.64670 -0.15300
C 	C 	0.94140 0.74330 0.60030 0.10200
H 	H 	0.98170 0.80040 0.58630 0.01000
C 	C 	0.90920 0.61160 0.66140 0.10800
H 	H 	0.92660 0.57680 0.69110 0.01500
C 	C 	0.85750 0.70910 0.57380 -0.19100
H 	H 	0.83980 0.74300 0.54280 0.11000
C 	C 	0.82600 0.57700 0.63350 -0.19700
H 	H 	0.78670 0.51860 0.64330 0.10800
C 	C 	0.80080 0.62630 0.59260 0.18300
C 	C 	0.67850 0.52620 0.51020 0.09600
H 	H 	0.71210 0.50350 0.48860 0.03400
C 	C 	0.66860 0.62710 0.58860 0.09700
H 	H 	0.69530 0.67830 0.62180 0.01600
C 	C 	0.59620 0.49100 0.48290 -0.14800
H 	H 	0.57440 0.44600 0.44110 0.11500
C 	C 	0.58450 0.59170 0.56500 -0.13900
H 	H 	0.55300 0.61750 0.58410 0.10300
C 	C 	0.54530 0.51930 0.51430 0.07500
N 	N 	0.71230 0.58980 0.56490 -0.16600
O 	O 	0.11390 0.79880 0.64530 -0.36200
O 	O 	0.07180 0.69460 0.73670 -0.39700
Cl	Cl	0.22970 0.68927 0.85393 -0.60100
C 	C 	0.94330 0.67520 0.17810 0.35600
C 	C 	0.03390 0.72840 0.14670 -0.15400
C 	C 	0.05860 0.80190 0.10030 0.10200
H 	H 	0.01830 0.81870 0.08630 0.00900
C 	C 	0.09080 0.70240 0.16140 0.10800
H 	H 	0.07340 0.65020 0.19110 0.01500
C 	C 	0.14250 0.85160 0.07380 -0.19100
H 	H 	0.16020 0.90320 0.04280 0.10900
C 	C 	0.17400 0.75100 0.13350 -0.19700
H 	H 	0.21330 0.73190 0.14330 0.10700
C 	C 	0.19920 0.82550 0.09260 0.18200
C 	C 	0.32150 0.84770 0.01020 0.08500
H 	H 	0.28790 0.79140 0.98860 0.03900
C 	C 	0.33140 0.95850 0.08860 0.09100
H 	H 	0.30470 0.98300 0.12180 0.01700
C 	C 	0.40380 0.89480 0.98290 -0.13700
H 	H 	0.42560 0.87160 0.94110 0.11100
C 	C 	0.41550 0.00720 0.06500 -0.13100
H 	H 	0.44700 0.06450 0.08410 0.10100
C 	C 	0.45470 0.97400 0.01430 0.06800
N 	N 	0.28770 0.87750 0.06490 -0.16300
O 	O 	0.88610 0.68490 0.14530 -0.36200
O 	O 	0.92820 0.62280 0.23670 -0.39800
Cl	Cl	0.77030 0.45957 0.35393 -0.60100
C 	C 	0.32480 0.26810 0.17810 0.35500
C 	C 	0.27160 0.30550 0.14670 -0.15200
C 	C 	0.19810 0.25670 0.10030 0.10100
H 	H 	0.18130 0.19960 0.08630 0.01000
C 	C 	0.29760 0.38840 0.16140 0.10700
H 	H 	0.34980 0.42320 0.19110 0.01500
C 	C 	0.14840 0.29090 0.07380 -0.19000
H 	H 	0.09680 0.25700 0.04280 0.10900
C 	C 	0.24900 0.42300 0.13350 -0.19600
H 	H 	0.26810 0.48140 0.14330 0.10700
C 	C 	0.17450 0.37370 0.09260 0.18200
C 	C 	0.15230 0.47380 0.01020 0.08800
H 	H 	0.20860 0.49650 0.98860 0.03700
C 	C 	0.04150 0.37290 0.08860 0.09200
H 	H 	0.01700 0.32170 0.12180 0.01700
C 	C 	0.10520 0.50900 0.98290 -0.13900
H 	H 	0.12840 0.55400 0.94110 0.11200
C 	C 	0.99280 0.40830 0.06500 -0.13100
H 	H 	0.93550 0.38250 0.08410 0.10100
C 	C 	0.02600 0.48070 0.01430 0.06900
N 	N 	0.12250 0.41020 0.06490 -0.16300
O 	O 	0.31510 0.20120 0.14530 -0.36200
O 	O 	0.37720 0.30540 0.23670 -0.39700
Cl	Cl	0.54043 0.31073 0.35393 -0.60200
C 	C 	0.73190 0.05670 0.17810 0.35600
C 	C 	0.69450 0.96610 0.14670 -0.15400
C 	C 	0.74330 0.94140 0.10030 0.10200
H 	H 	0.80040 0.98170 0.08630 0.01000
C 	C 	0.61160 0.90920 0.16140 0.10800
H 	H 	0.57680 0.92660 0.19110 0.01500
C 	C 	0.70910 0.85750 0.07380 -0.19200
H 	H 	0.74300 0.83980 0.04280 0.11000
C 	C 	0.57700 0.82600 0.13350 -0.19700
H 	H 	0.51860 0.78670 0.14330 0.10800
C 	C 	0.62630 0.80080 0.09260 0.18300
C 	C 	0.52620 0.67850 0.01020 0.09300
H 	H 	0.50350 0.71210 0.98860 0.03500
C 	C 	0.62710 0.66860 0.08860 0.09700
H 	H 	0.67830 0.69530 0.12180 0.01600
C 	C 	0.49100 0.59620 0.98290 -0.14600
H 	H 	0.44600 0.57440 0.94110 0.11400
C 	C 	0.59170 0.58450 0.06500 -0.13900
H 	H 	0.61750 0.55300 0.08410 0.10300
C 	C 	0.51930 0.54530 0.01430 0.07400
N 	N 	0.58980 0.71230 0.06490 -0.16500
O 	O 	0.79880 0.11390 0.14530 -0.36200
O 	O 	0.69460 0.07180 0.23670 -0.39800
Cl	Cl	0.68927 0.22970 0.35393 -0.60100
C 	C 	0.32480 0.05670 0.32190 0.35600
C 	C 	0.27160 0.96610 0.35330 -0.15400
C 	C 	0.19810 0.94140 0.39970 0.10200
H 	H 	0.18130 0.98170 0.41370 0.01000
C 	C 	0.29760 0.90920 0.33860 0.10800
H 	H 	0.34980 0.92660 0.30890 0.01500
C 	C 	0.14840 0.85750 0.42620 -0.19100
H 	H 	0.09680 0.83980 0.45720 0.11000
C 	C 	0.24900 0.82600 0.36650 -0.19700
H 	H 	0.26810 0.78670 0.35670 0.10800
C 	C 	0.17450 0.80080 0.40740 0.18300
C 	C 	0.15230 0.67850 0.48980 0.09600
H 	H 	0.20860 0.71210 0.51140 0.03400
C 	C 	0.04150 0.66860 0.41140 0.09700
H 	H 	0.01700 0.69530 0.37820 0.01600
C 	C 	0.10520 0.59620 0.51710 -0.14800
H 	H 	0.12840 0.57440 0.55890 0.11500
C 	C 	0.99280 0.58450 0.43500 -0.13900
H 	H 	0.93550 0.55300 0.41590 0.10300
C 	C 	0.02600 0.54530 0.48570 0.07400
N 	N 	0.12250 0.71230 0.43510 -0.16600
O 	O 	0.31510 0.11390 0.35470 -0.36200
O 	O 	0.37720 0.07180 0.26330 -0.39700
Cl	Cl	0.54043 0.22970 0.14607 -0.60100
C 	C 	0.73190 0.67520 0.32190 0.35500
C 	C 	0.69450 0.72840 0.35330 -0.15200
C 	C 	0.74330 0.80190 0.39970 0.10100
H 	H 	0.80040 0.81870 0.41370 0.01000
C 	C 	0.61160 0.70240 0.33860 0.10700
H 	H 	0.57680 0.65020 0.30890 0.01500
C 	C 	0.70910 0.85160 0.42620 -0.19100
H 	H 	0.74300 0.90320 0.45720 0.11000
C 	C 	0.57700 0.75100 0.36650 -0.19700
H 	H 	0.51860 0.73190 0.35670 0.10800
C 	C 	0.62630 0.82550 0.40740 0.18300
C 	C 	0.52620 0.84770 0.48980 0.09600
H 	H 	0.50350 0.79140 0.51140 0.03400
C 	C 	0.62710 0.95850 0.41140 0.09700
H 	H 	0.67830 0.98300 0.37820 0.01600
C 	C 	0.49100 0.89480 0.51710 -0.14800
H 	H 	0.44600 0.87160 0.55890 0.11500
C 	C 	0.59170 0.00720 0.43500 -0.13900
H 	H 	0.61750 0.06450 0.41590 0.10300
C 	C 	0.51930 0.97400 0.48570 0.07400
N 	N 	0.58980 0.87750 0.43510 -0.16600
O 	O 	0.79880 0.68490 0.35470 -0.36200
O 	O 	0.69460 0.62280 0.26330 -0.39800
Cl	Cl	0.68927 0.45957 0.14607 -0.60100
C 	C 	0.94330 0.26810 0.32190 0.35600
C 	C 	0.03390 0.30550 0.35330 -0.15300
C 	C 	0.05860 0.25670 0.39970 0.10200
H 	H 	0.01830 0.19960 0.41370 0.01000
C 	C 	0.09080 0.38840 0.33860 0.10800
H 	H 	0.07340 0.42320 0.30890 0.01500
C 	C 	0.14250 0.29090 0.42620 -0.19100
H 	H 	0.16020 0.25700 0.45720 0.11000
C 	C 	0.17400 0.42300 0.36650 -0.19700
H 	H 	0.21330 0.48140 0.35670 0.10800
C 	C 	0.19920 0.37370 0.40740 0.18300
C 	C 	0.32150 0.47380 0.48980 0.09600
H 	H 	0.28790 0.49650 0.51140 0.03400
C 	C 	0.33140 0.37290 0.41140 0.09700
H 	H 	0.30470 0.32170 0.37820 0.01600
C 	C 	0.40380 0.50900 0.51710 -0.14800
H 	H 	0.42560 0.55400 0.55890 0.11500
C 	C 	0.41550 0.40830 0.43500 -0.13900
H 	H 	0.44700 0.38250 0.41590 0.10300
C 	C 	0.45470 0.48070 0.48570 0.07500
N 	N 	0.28770 0.41020 0.43510 -0.16600
O 	O 	0.88610 0.20120 0.35470 -0.36200
O 	O 	0.92820 0.30540 0.26330 -0.39700
Cl	Cl	0.77030 0.31073 0.14607 -0.60100
Cd	Cd	0.33333 0.66667 0.75000 1.25400
Cd	Cd	0.66667 0.33333 0.25000 1.25400
Cd	Cd	0.21150 0.42300 0.75000 1.24600
Cd	Cd	0.57700 0.78850 0.75000 1.24600
Cd	Cd	0.21150 0.78850 0.75000 1.24600
Cd	Cd	0.78850 0.57700 0.25000 1.24600
Cd	Cd	0.42300 0.21150 0.25000 1.24600
Cd	Cd	0.78850 0.21150 0.25000 1.24600
