data_crystal

_cell_length_a 7.73340
_cell_length_b 25.83300
_cell_length_c 12.06230
_cell_angle_alpha 90.00000
_cell_angle_beta  106.85400
_cell_angle_gamma 90.00000

_symmetry_space_group_name_	'P 1'
_symmetry_space_group_name_H-M	'P 1'

loop_
_symmetry_equiv_pos_as_xyz
  x,y,z

loop_
_atom_site_label
_atom_site_type_symbol
_atom_site_fract_x
_atom_site_fract_y
_atom_site_fract_z
_atom_site_charge
I 	I 	0.12933 0.43139 0.37316 -0.23500
Ag	Ag	0.86463 0.64695 0.20889 0.50900
N 	N 	0.06130 0.59685 0.34050 -0.19900
N 	N 	0.18940 0.66485 0.46090 -0.31900
H 	H 	0.26460 0.67670 0.52290 0.12400
H 	H 	0.11990 0.68570 0.41250 0.12500
N 	N 	0.29220 0.58244 0.51830 -0.20000
C 	C 	0.15610 0.51083 0.40200 0.01300
C 	C 	0.27750 0.53167 0.49870 0.00700
H 	H 	0.35210 0.50940 0.55230 0.01400
C 	C 	0.18040 0.61410 0.43980 0.19100
C 	C 	0.05020 0.54580 0.32360 0.00600
H 	H 	0.96820 0.53310 0.25670 0.00600
I 	I 	0.62003 0.67700 0.36107 -0.25500
Ag	Ag	0.50606 0.89178 0.17124 0.51800
N 	N 	0.73570 0.82639 0.52520 -0.20200
N 	N 	0.69260 0.90927 0.45340 -0.31800
H 	H 	0.66190 0.93090 0.39680 0.11300
H 	H 	0.72890 0.92040 0.52350 0.11000
N 	N 	0.62660 0.84207 0.32200 -0.20400
C 	C 	0.61870 0.79146 0.30350 -0.00300
H 	H 	0.58250 0.77940 0.22760 0.00800
C 	C 	0.66240 0.75609 0.39250 0.00700
C 	C 	0.72160 0.77563 0.50410 -0.00300
H 	H 	0.75240 0.75270 0.56610 0.01300
C 	C 	0.68390 0.85900 0.43260 0.17300
I 	I 	0.62003 0.82300 0.86107 -0.25500
Ag	Ag	0.50606 0.60822 0.67124 0.51800
N 	N 	0.73570 0.67361 0.02520 -0.20200
N 	N 	0.69260 0.59073 0.95340 -0.31800
H 	H 	0.66190 0.56910 0.89680 0.11300
H 	H 	0.72890 0.57960 0.02350 0.11000
N 	N 	0.62660 0.65793 0.82200 -0.20400
C 	C 	0.61870 0.70854 0.80350 -0.00300
H 	H 	0.58250 0.72060 0.72760 0.00800
C 	C 	0.66240 0.74391 0.89250 0.00800
C 	C 	0.72160 0.72437 0.00410 -0.00400
H 	H 	0.75240 0.74730 0.06610 0.01400
C 	C 	0.68390 0.64100 0.93260 0.17300
I 	I 	0.12933 0.06861 0.87316 -0.23400
Ag	Ag	0.86463 0.85305 0.70889 0.51000
N 	N 	0.06130 0.90315 0.84050 -0.20000
N 	N 	0.18940 0.83515 0.96090 -0.31900
H 	H 	0.26460 0.82330 0.02290 0.12400
H 	H 	0.11990 0.81430 0.91250 0.12500
N 	N 	0.29220 0.91756 0.01830 -0.20100
C 	C 	0.15610 0.98917 0.90200 0.01300
C 	C 	0.27750 0.96833 0.99870 0.00800
H 	H 	0.35210 0.99060 0.05230 0.01300
C 	C 	0.18040 0.88590 0.93980 0.19100
C 	C 	0.05020 0.95420 0.82360 0.00700
H 	H 	0.96820 0.96690 0.75670 0.00500
I 	I 	0.37997 0.17700 0.13893 -0.25500
Ag	Ag	0.49394 0.39178 0.32876 0.51800
N 	N 	0.26430 0.32639 0.97480 -0.20200
N 	N 	0.30740 0.40927 0.04660 -0.31800
H 	H 	0.33810 0.43090 0.10320 0.11300
H 	H 	0.27110 0.42040 0.97650 0.11000
N 	N 	0.37340 0.34207 0.17800 -0.20400
C 	C 	0.38130 0.29146 0.19650 -0.00300
H 	H 	0.41750 0.27940 0.27240 0.00800
C 	C 	0.33760 0.25609 0.10750 0.00800
C 	C 	0.27840 0.27563 0.99590 -0.00400
H 	H 	0.24760 0.25270 0.93390 0.01400
C 	C 	0.31610 0.35900 0.06740 0.17300
I 	I 	0.87067 0.93139 0.12684 -0.23400
Ag	Ag	0.13537 0.14695 0.29111 0.51000
N 	N 	0.93870 0.09685 0.15950 -0.20000
N 	N 	0.81060 0.16485 0.03910 -0.31900
H 	H 	0.73540 0.17670 0.97710 0.12400
H 	H 	0.88010 0.18570 0.08750 0.12500
N 	N 	0.70780 0.08244 0.98170 -0.20100
C 	C 	0.84390 0.01083 0.09800 0.01300
C 	C 	0.72250 0.03167 0.00130 0.00800
H 	H 	0.64790 0.00940 0.94770 0.01300
C 	C 	0.81960 0.11410 0.06020 0.19100
C 	C 	0.94980 0.04580 0.17640 0.00700
H 	H 	0.03180 0.03310 0.24330 0.00500
I 	I 	0.87067 0.56861 0.62684 -0.23400
Ag	Ag	0.13537 0.35305 0.79111 0.51000
N 	N 	0.93870 0.40315 0.65950 -0.19900
N 	N 	0.81060 0.33515 0.53910 -0.31900
H 	H 	0.73540 0.32330 0.47710 0.12400
H 	H 	0.88010 0.31430 0.58750 0.12500
N 	N 	0.70780 0.41756 0.48170 -0.20000
C 	C 	0.84390 0.48917 0.59800 0.01300
C 	C 	0.72250 0.46833 0.50130 0.00700
H 	H 	0.64790 0.49060 0.44770 0.01400
C 	C 	0.81960 0.38590 0.56020 0.19100
C 	C 	0.94980 0.45420 0.67640 0.00600
H 	H 	0.03180 0.46690 0.74330 0.00600
I 	I 	0.37997 0.32300 0.63893 -0.25500
Ag	Ag	0.49394 0.10822 0.82876 0.51800
N 	N 	0.26430 0.17361 0.47480 -0.20200
N 	N 	0.30740 0.09073 0.54660 -0.31800
H 	H 	0.33810 0.06910 0.60320 0.11300
H 	H 	0.27110 0.07960 0.47650 0.11000
N 	N 	0.37340 0.15793 0.67800 -0.20400
C 	C 	0.38130 0.20854 0.69650 -0.00300
H 	H 	0.41750 0.22060 0.77240 0.00800
C 	C 	0.33760 0.24391 0.60750 0.00700
C 	C 	0.27840 0.22437 0.49590 -0.00300
H 	H 	0.24760 0.24730 0.43390 0.01300
C 	C 	0.31610 0.14100 0.56740 0.17300
