data_crystal

_cell_length_a 22.28000
_cell_length_b 22.20000
_cell_length_c 11.19800
_cell_angle_alpha 90.00000
_cell_angle_beta  90.93100
_cell_angle_gamma 90.00000

_symmetry_space_group_name_	'P 1'
_symmetry_space_group_name_H-M	'P 1'

loop_
_symmetry_equiv_pos_as_xyz
  x,y,z

loop_
_atom_site_label
_atom_site_type_symbol
_atom_site_fract_x
_atom_site_fract_y
_atom_site_fract_z
_atom_site_charge
N 	N 	0.40815 0.35469 0.52050 -0.23400
N 	N 	0.09088 0.35840 0.52300 -0.23700
C 	C 	0.28301 0.35670 0.53250 0.04700
C 	C 	0.21546 0.35750 0.53360 0.05400
C 	C 	0.31210 0.33600 0.42970 -0.12800
H 	H 	0.28960 0.32350 0.36130 0.06700
C 	C 	0.18340 0.32910 0.62100 -0.13100
H 	H 	0.20340 0.30960 0.68600 0.06700
C 	C 	0.12370 0.38720 0.44110 0.06800
H 	H 	0.10340 0.40870 0.37930 -0.02300
C 	C 	0.37990 0.37450 0.61890 0.06800
H 	H 	0.40340 0.38860 0.68460 -0.01800
C 	C 	0.18520 0.38680 0.44280 -0.13400
H 	H 	0.20670 0.40660 0.38170 0.06900
C 	C 	0.12130 0.32950 0.61210 0.06600
H 	H 	0.09910 0.30870 0.67090 -0.01800
C 	C 	0.31840 0.37510 0.62770 -0.12800
H 	H 	0.30040 0.38820 0.69940 0.06700
C 	C 	0.37350 0.33430 0.43030 0.06900
H 	H 	0.39280 0.31760 0.36280 -0.02100
C 	C 	0.48400 0.17270 0.60070 -0.12700
H 	H 	0.47260 0.15210 0.67120 0.06700
C 	C 	0.48470 0.23560 0.59820 0.06900
H 	H 	0.47410 0.25740 0.66770 -0.02100
C 	C 	0.00550 0.17270 0.39600 -0.14000
H 	H 	0.00830 0.15240 0.32160 0.06700
C 	C 	0.96660 0.97930 0.42070 0.06100
H 	H 	0.94180 0.95820 0.36500 -0.01300
C 	C 	0.47440 0.04150 0.40620 -0.10900
H 	H 	0.45660 0.06190 0.33990 0.06300
C 	C 	0.00680 0.23410 0.39970 0.07700
H 	H 	0.01290 0.25560 0.32750 -0.03000
C 	C 	0.47500 0.97920 0.40990 0.05400
H 	H 	0.45680 0.95760 0.34570 -0.01500
C 	C 	0.96670 0.04120 0.41680 -0.08400
H 	H 	0.94400 0.06190 0.35720 0.06000
N 	N 	0.90815 0.85469 0.52050 -0.22800
N 	N 	0.59088 0.85840 0.52300 -0.23500
C 	C 	0.78301 0.85670 0.53250 0.04700
C 	C 	0.71546 0.85750 0.53360 0.05400
C 	C 	0.81210 0.83600 0.42970 -0.12700
H 	H 	0.78960 0.82350 0.36130 0.06800
C 	C 	0.68340 0.82910 0.62100 -0.13000
H 	H 	0.70340 0.80960 0.68600 0.06800
C 	C 	0.62370 0.88720 0.44110 0.06800
H 	H 	0.60340 0.90870 0.37930 -0.02000
C 	C 	0.87990 0.87450 0.61890 0.06800
H 	H 	0.90340 0.88860 0.68460 -0.01400
C 	C 	0.68520 0.88680 0.44280 -0.13300
H 	H 	0.70670 0.90660 0.38170 0.06900
C 	C 	0.62130 0.82950 0.61210 0.06600
H 	H 	0.59910 0.80870 0.67090 -0.01500
C 	C 	0.81840 0.87510 0.62770 -0.12700
H 	H 	0.80040 0.88820 0.69940 0.06700
C 	C 	0.87350 0.83430 0.43030 0.07000
H 	H 	0.89280 0.81760 0.36280 -0.01700
C 	C 	0.98400 0.67270 0.60070 -0.10000
H 	H 	0.97260 0.65210 0.67120 0.06500
C 	C 	0.98470 0.73560 0.59820 0.08000
H 	H 	0.97410 0.75740 0.66770 -0.02000
C 	C 	0.50550 0.67270 0.39600 -0.14100
H 	H 	0.50830 0.65240 0.32160 0.07100
C 	C 	0.46660 0.47930 0.42070 0.06400
H 	H 	0.44180 0.45820 0.36500 -0.01700
C 	C 	0.97440 0.54150 0.40620 -0.10500
H 	H 	0.95660 0.56190 0.33990 0.06600
C 	C 	0.50680 0.73410 0.39970 0.08200
H 	H 	0.51290 0.75560 0.32750 -0.02800
C 	C 	0.97500 0.47920 0.40990 0.08300
H 	H 	0.95680 0.45760 0.34570 -0.01800
C 	C 	0.46670 0.54120 0.41680 -0.12800
H 	H 	0.44400 0.56190 0.35720 0.06700
N 	N 	0.59185 0.35469 0.47950 -0.23300
N 	N 	0.90912 0.35840 0.47700 -0.23000
C 	C 	0.71699 0.35670 0.46750 0.04800
C 	C 	0.78454 0.35750 0.46640 0.05300
C 	C 	0.68790 0.33600 0.57030 -0.12900
H 	H 	0.71040 0.32350 0.63870 0.06900
C 	C 	0.81660 0.32910 0.37900 -0.12800
H 	H 	0.79660 0.30960 0.31400 0.06900
C 	C 	0.87630 0.38720 0.55890 0.06800
H 	H 	0.89660 0.40870 0.62070 -0.01500
C 	C 	0.62010 0.37450 0.38110 0.06900
H 	H 	0.59660 0.38860 0.31540 -0.01800
C 	C 	0.81480 0.38680 0.55720 -0.13100
H 	H 	0.79330 0.40660 0.61830 0.07000
C 	C 	0.87870 0.32950 0.38790 0.06600
H 	H 	0.90090 0.30870 0.32910 -0.00900
C 	C 	0.68160 0.37510 0.37230 -0.12900
H 	H 	0.69960 0.38820 0.30060 0.06800
C 	C 	0.62650 0.33430 0.56970 0.07000
H 	H 	0.60720 0.31760 0.63720 -0.02100
C 	C 	0.51600 0.17270 0.39930 -0.12700
H 	H 	0.52740 0.15210 0.32880 0.06800
C 	C 	0.51530 0.23560 0.40180 0.06900
H 	H 	0.52590 0.25740 0.33230 -0.02100
C 	C 	0.99450 0.17270 0.60400 -0.12100
H 	H 	0.99170 0.15240 0.67840 0.07300
C 	C 	0.03340 0.97930 0.57930 0.04000
H 	H 	0.05820 0.95820 0.63500 -0.01300
C 	C 	0.52560 0.04150 0.59380 -0.10900
H 	H 	0.54340 0.06190 0.66010 0.06300
C 	C 	0.99320 0.23410 0.60030 0.09800
H 	H 	0.98710 0.25560 0.67250 -0.02600
C 	C 	0.52500 0.97920 0.59010 0.05400
H 	H 	0.54320 0.95760 0.65430 -0.01500
C 	C 	0.03330 0.04120 0.58320 -0.10300
H 	H 	0.05600 0.06190 0.64280 0.05700
N 	N 	0.09185 0.85469 0.47950 -0.23400
N 	N 	0.40912 0.85840 0.47700 -0.23500
C 	C 	0.21699 0.85670 0.46750 0.04700
C 	C 	0.28454 0.85750 0.46640 0.05200
C 	C 	0.18790 0.83600 0.57030 -0.13000
H 	H 	0.21040 0.82350 0.63870 0.06700
C 	C 	0.31660 0.82910 0.37900 -0.12900
H 	H 	0.29660 0.80960 0.31400 0.06700
C 	C 	0.37630 0.88720 0.55890 0.06700
H 	H 	0.39660 0.90870 0.62070 -0.02000
C 	C 	0.12010 0.87450 0.38110 0.06800
H 	H 	0.09660 0.88860 0.31540 -0.02200
C 	C 	0.31480 0.88680 0.55720 -0.13300
H 	H 	0.29330 0.90660 0.61830 0.06800
C 	C 	0.37870 0.82950 0.38790 0.06500
H 	H 	0.40090 0.80870 0.32910 -0.01500
C 	C 	0.18160 0.87510 0.37230 -0.13000
H 	H 	0.19960 0.88820 0.30060 0.06600
C 	C 	0.12650 0.83430 0.56970 0.06900
H 	H 	0.10720 0.81760 0.63720 -0.02500
C 	C 	0.01600 0.67270 0.39930 -0.12000
H 	H 	0.02740 0.65210 0.32880 0.06000
C 	C 	0.01530 0.73560 0.40180 0.06000
H 	H 	0.02590 0.75740 0.33230 -0.02200
C 	C 	0.49450 0.67270 0.60400 -0.14100
H 	H 	0.49170 0.65240 0.67840 0.07000
C 	C 	0.53340 0.47930 0.57930 0.06400
H 	H 	0.55820 0.45820 0.63500 -0.01700
C 	C 	0.02560 0.54150 0.59380 -0.12500
H 	H 	0.04340 0.56190 0.66010 0.06200
C 	C 	0.49320 0.73410 0.60030 0.08200
H 	H 	0.48710 0.75560 0.67250 -0.02800
C 	C 	0.02500 0.47920 0.59010 0.06300
H 	H 	0.04320 0.45760 0.65430 -0.02000
C 	C 	0.53330 0.54120 0.58320 -0.12800
H 	H 	0.55600 0.56190 0.64280 0.06700
Cu	Cu	0.50000 0.35700 0.50000 0.84800
N 	N 	0.50000 0.94830 0.50000 -0.23400
N 	N 	0.50000 0.26560 0.50000 -0.23600
C 	C 	0.50000 0.07420 0.50000 0.03700
C 	C 	0.50000 0.14020 0.50000 0.05200
Cu	Cu	0.00000 0.85700 0.50000 0.84200
N 	N 	0.00000 0.44830 0.50000 -0.24900
N 	N 	0.00000 0.76560 0.50000 -0.24600
C 	C 	0.00000 0.57420 0.50000 0.03000
C 	C 	0.00000 0.64020 0.50000 0.02700
Cu	Cu	0.00000 0.35719 0.50000 0.84200
N 	N 	0.00000 0.26520 0.50000 -0.25300
N 	N 	0.00000 0.94680 0.50000 -0.24600
C 	C 	0.00000 0.14020 0.50000 0.04600
C 	C 	0.00000 0.07270 0.50000 0.01500
Cu	Cu	0.50000 0.85719 0.50000 0.84800
N 	N 	0.50000 0.76520 0.50000 -0.24200
N 	N 	0.50000 0.44680 0.50000 -0.24100
C 	C 	0.50000 0.64020 0.50000 0.05900
C 	C 	0.50000 0.57270 0.50000 0.04800
