data_crystal

_cell_length_a 12.38500
_cell_length_b 15.35200
_cell_length_c 25.03780
_cell_angle_alpha 107.85300
_cell_angle_beta  104.31900
_cell_angle_gamma 90.00010

_symmetry_space_group_name_	'P 1'
_symmetry_space_group_name_H-M	'P 1'

loop_
_symmetry_equiv_pos_as_xyz
  x,y,z

loop_
_atom_site_label
_atom_site_type_symbol
_atom_site_fract_x
_atom_site_fract_y
_atom_site_fract_z
_atom_site_charge
Sc	Sc	0.47934 0.04169 0.20854 2.34600
Sc	Sc	0.68745 0.99980 0.12486 2.34600
Sc	Sc	0.60412 0.79173 0.45818 2.34600
Sc	Sc	0.22920 0.16685 0.20854 2.34700
Sc	Sc	0.93741 0.12506 0.12486 2.34600
Sc	Sc	0.35406 0.66645 0.45818 2.34600
Sc	Sc	0.27080 0.45831 0.79146 2.34700
Sc	Sc	0.56259 0.50020 0.87514 2.34600
Sc	Sc	0.14594 0.70827 0.54182 2.34600
Sc	Sc	0.02066 0.33315 0.79146 2.34700
Sc	Sc	0.81255 0.37494 0.87514 2.34600
Sc	Sc	0.89588 0.83355 0.54182 2.34600
H 	H 	0.56900 0.12810 0.15800 0.38400
H 	H 	0.92430 0.93900 0.25560 0.01800
H 	H 	0.10120 0.01440 0.29340 0.02200
H 	H 	0.40500 0.91670 0.33360 0.03000
H 	H 	0.14210 0.81970 0.37460 0.01900
H 	H 	0.00160 0.89580 0.41180 0.02600
H 	H 	0.67840 0.91760 0.33340 0.03300
H 	H 	0.24240 0.84800 0.07740 0.02000
H 	H 	0.06610 0.88590 0.03920 0.01100
H 	H 	0.08900 0.02990 0.15800 0.38400
H 	H 	0.83130 0.31660 0.25560 0.01900
H 	H 	0.69220 0.27900 0.29340 0.02100
H 	H 	0.42860 0.41690 0.33360 0.03000
H 	H 	0.73250 0.55490 0.37460 0.01700
H 	H 	0.91020 0.51600 0.41180 0.01900
H 	H 	0.15500 0.41580 0.33340 0.03100
H 	H 	0.33500 0.22940 0.07740 0.01800
H 	H 	0.47310 0.15330 0.03920 0.01300
H 	H 	0.41100 0.37190 0.84200 0.38400
H 	H 	0.66870 0.56100 0.74440 0.02000
H 	H 	0.80780 0.48560 0.70660 0.02100
H 	H 	0.07140 0.58330 0.66640 0.03400
H 	H 	0.76750 0.68030 0.62540 0.01700
H 	H 	0.58980 0.60420 0.58820 0.01800
H 	H 	0.34500 0.58240 0.66660 0.03300
H 	H 	0.16500 0.65200 0.92260 0.02000
H 	H 	0.02690 0.61410 0.96080 0.01500
H 	H 	0.93100 0.47010 0.84200 0.38400
H 	H 	0.57570 0.18340 0.74440 0.02100
H 	H 	0.39880 0.22100 0.70660 0.02100
H 	H 	0.09500 0.08310 0.66640 0.03000
H 	H 	0.35790 0.94510 0.62540 0.01600
H 	H 	0.49840 0.98400 0.58820 0.01700
H 	H 	0.82160 0.08420 0.66660 0.03400
H 	H 	0.25760 0.27060 0.92260 0.01800
H 	H 	0.43390 0.34670 0.96080 0.01200
H 	H 	0.85060 0.10060 0.20120 0.39000
H 	H 	0.64940 0.39940 0.79880 0.39000
H 	H 	0.31610 0.06610 0.13220 0.38200
H 	H 	0.18390 0.43390 0.86780 0.38200
H 	H 	0.51720 0.76720 0.53440 0.38800
H 	H 	0.98280 0.73280 0.46560 0.38100
H 	H 	0.75000 0.69800 0.50000 0.38400
H 	H 	0.25000 0.80200 0.50000 0.38400
H 	H 	0.48760 0.75000 1.00000 0.04700
H 	H 	0.76140 0.75000 -0.00000 0.03100
H 	H 	0.01240 0.25000 -0.00000 0.03500
H 	H 	0.73860 0.25000 -0.00000 0.03200
C 	C 	0.70460 0.95300 0.24060 0.48300
C 	C 	0.78930 0.93130 0.28760 -0.16200
C 	C 	0.90180 0.93010 0.28720 0.02900
C 	C 	0.98080 0.91590 0.33320 -0.02900
C 	C 	0.10210 0.91590 0.33320 -0.02100
C 	C 	0.14720 0.97400 0.30920 0.03000
C 	C 	0.25980 0.97220 0.30820 -0.16700
C 	C 	0.30420 0.02830 0.27880 0.47700
C 	C 	0.32820 0.91660 0.33340 0.10500
C 	C 	0.28440 0.86050 0.35840 -0.16800
C 	C 	0.35890 0.80560 0.38860 0.47900
C 	C 	0.17160 0.85920 0.35800 0.03000
C 	C 	0.94740 0.90310 0.37960 0.01900
C 	C 	0.83420 0.90110 0.37900 -0.16100
C 	C 	0.75500 0.91680 0.33320 0.09600
C 	C 	0.79680 0.88110 0.42600 0.47600
C 	C 	0.46100 0.88080 0.09300 0.46700
C 	C 	0.37900 0.81030 0.04580 -0.15000
C 	C 	0.26490 0.80820 0.04540 0.01800
C 	C 	0.01960 0.82990 0.02340 0.04600
C 	C 	0.90680 0.83120 0.02480 -0.17700
C 	C 	0.86240 0.91640 0.05520 0.47700
C 	C 	0.03600 0.28760 0.24060 0.49200
C 	C 	0.99830 0.35630 0.28760 -0.17200
C 	C 	0.88540 0.35710 0.28720 0.03200
C 	C 	0.85240 0.41730 0.33320 -0.02600
C 	C 	0.73110 0.41730 0.33320 -0.02700
C 	C 	0.66200 0.33520 0.30920 0.03000
C 	C 	0.54840 0.33600 0.30820 -0.16800
C 	C 	0.47460 0.25050 0.27880 0.47700
C 	C 	0.50520 0.41680 0.33340 0.10600
C 	C 	0.57400 0.49790 0.35840 -0.17000
C 	C 	0.52970 0.58300 0.38860 0.48000
C 	C 	0.68640 0.49880 0.35800 0.03200
C 	C 	0.93220 0.47650 0.37960 0.02500
C 	C 	0.04480 0.47790 0.37900 -0.16200
C 	C 	0.07820 0.41640 0.33320 0.10400
C 	C 	0.12920 0.54490 0.42600 0.47800
C 	C 	0.13200 0.21220 0.09300 0.47000
C 	C 	0.16680 0.23550 0.04580 -0.15800
C 	C 	0.28050 0.23720 0.04540 0.02400
C 	C 	0.50380 0.19350 0.02340 0.03400
C 	C 	0.61800 0.19360 0.02480 -0.16600
C 	C 	0.69280 0.13880 0.05520 0.47400
C 	C 	0.46400 0.54700 0.75940 0.48300
C 	C 	0.50170 0.56870 0.71240 -0.16100
C 	C 	0.61460 0.56990 0.71280 0.02800
C 	C 	0.64760 0.58410 0.66680 -0.02500
C 	C 	0.76890 0.58410 0.66680 -0.02600
C 	C 	0.83800 0.52600 0.69080 0.03000
C 	C 	0.95160 0.52780 0.69180 -0.16800
C 	C 	0.02540 0.47170 0.72120 0.48000
C 	C 	0.99480 0.58340 0.66660 0.10000
C 	C 	0.92600 0.63950 0.64160 -0.16600
C 	C 	0.97030 0.69440 0.61140 0.47400
C 	C 	0.81360 0.64080 0.64200 0.03000
C 	C 	0.56780 0.59690 0.62040 0.02900
C 	C 	0.45520 0.59890 0.62100 -0.16400
C 	C 	0.42180 0.58320 0.66680 0.09800
C 	C 	0.37080 0.61890 0.57400 0.47800
C 	C 	0.36800 0.61920 0.90700 0.46600
C 	C 	0.33320 0.68970 0.95420 -0.14400
C 	C 	0.21950 0.69180 0.95460 0.02300
C 	C 	0.99620 0.67010 0.97660 0.03300
C 	C 	0.88200 0.66880 0.97520 -0.15800
C 	C 	0.80720 0.58360 0.94480 0.47300
C 	C 	0.79540 0.21240 0.75940 0.48300
C 	C 	0.71070 0.14370 0.71240 -0.16100
C 	C 	0.59820 0.14290 0.71280 0.02800
C 	C 	0.51920 0.08270 0.66680 -0.02500
C 	C 	0.39790 0.08270 0.66680 -0.02700
C 	C 	0.35280 0.16480 0.69080 0.03100
C 	C 	0.24020 0.16400 0.69180 -0.16800
C 	C 	0.19580 0.24950 0.72120 0.47700
C 	C 	0.17180 0.08320 0.66660 0.10700
C 	C 	0.21560 0.00210 0.64160 -0.17100
C 	C 	0.14110 0.91700 0.61140 0.48100
C 	C 	0.32840 0.00120 0.64200 0.03400
C 	C 	0.55260 0.02350 0.62040 0.03000
C 	C 	0.66580 0.02210 0.62100 -0.16200
C 	C 	0.74500 0.08360 0.66680 0.09700
C 	C 	0.70320 0.95510 0.57400 0.47500
C 	C 	0.03900 0.28780 0.90700 0.47000
C 	C 	0.12100 0.26450 0.95420 -0.15500
C 	C 	0.23510 0.26280 0.95460 0.03000
C 	C 	0.48040 0.30650 0.97660 0.04100
C 	C 	0.59320 0.30640 0.97520 -0.16000
C 	C 	0.63760 0.36120 0.94480 0.47400
C 	C 	0.41090 0.75000 -0.00000 0.07300
C 	C 	0.18590 0.75000 -0.00000 -0.02400
C 	C 	0.06370 0.75000 -0.00000 -0.03700
C 	C 	0.83810 0.75000 -0.00000 0.09400
C 	C 	0.08910 0.25000 -0.00000 0.09300
C 	C 	0.31410 0.25000 -0.00000 -0.02800
C 	C 	0.43630 0.25000 -0.00000 -0.03900
C 	C 	0.66190 0.25000 -0.00000 0.09300
O 	O 	0.72913 0.94103 0.19266 -0.62000
O 	O 	0.61517 0.98227 0.25174 -0.59800
O 	O 	0.69629 0.85079 0.41518 -0.60100
O 	O 	0.86998 0.89268 0.47416 -0.61900
O 	O 	0.31552 0.73722 0.39624 -0.61900
O 	O 	0.46330 0.82960 0.40440 -0.59600
O 	O 	0.39228 0.00348 0.26216 -0.59200
O 	O 	0.25311 0.09641 0.27042 -0.61600
O 	O 	0.55194 0.89784 0.08168 -0.59700
O 	O 	0.43808 0.91568 0.14136 -0.62500
O 	O 	0.91360 0.99290 0.06280 -0.62700
O 	O 	0.77400 0.90830 0.07120 -0.59800
O 	O 	0.58368 0.08098 0.16716 -1.12500
O 	O 	0.96353 0.25163 0.19266 -0.62400
O 	O 	0.13657 0.26947 0.25174 -0.59900
O 	O 	0.21889 0.56439 0.41518 -0.60100
O 	O 	0.10418 0.58148 0.47416 -0.61600
O 	O 	0.58072 0.65902 0.39624 -0.62000
O 	O 	0.44110 0.57480 0.40440 -0.59600
O 	O 	0.36988 0.25868 0.26216 -0.59200
O 	O 	0.51731 0.17401 0.27042 -0.61600
O 	O 	0.02974 0.18384 0.08168 -0.59500
O 	O 	0.20328 0.22568 0.14136 -0.62500
O 	O 	0.64920 0.06990 0.06280 -0.62100
O 	O 	0.79720 0.16290 0.07120 -0.59600
O 	O 	0.08348 0.08618 0.16716 -1.12500
O 	O 	0.53647 0.55897 0.80734 -0.61900
O 	O 	0.36343 0.51773 0.74826 -0.59700
O 	O 	0.28111 0.64921 0.58482 -0.60100
O 	O 	0.39582 0.60732 0.52584 -0.61700
O 	O 	0.91928 0.76278 0.60376 -0.62000
O 	O 	0.05890 0.67040 0.59560 -0.59200
O 	O 	0.13012 0.49652 0.73784 -0.59300
O 	O 	0.98269 0.40359 0.72958 -0.61900
O 	O 	0.47026 0.60216 0.91832 -0.59400
O 	O 	0.29672 0.58432 0.85864 -0.62300
O 	O 	0.85080 0.50710 0.93720 -0.62100
O 	O 	0.70280 0.59170 0.92880 -0.59400
O 	O 	0.41652 0.41902 0.83284 -1.12600
O 	O 	0.77087 0.24837 0.80734 -0.61800
O 	O 	0.88483 0.23053 0.74826 -0.59700
O 	O 	0.80371 0.93561 0.58482 -0.60200
O 	O 	0.63002 0.91852 0.52584 -0.61700
O 	O 	0.18448 0.84098 0.60376 -0.61900
O 	O 	0.03670 0.92520 0.59560 -0.59300
O 	O 	0.10772 0.24132 0.73784 -0.59200
O 	O 	0.24689 0.32599 0.72958 -0.61700
O 	O 	0.94806 0.31616 0.91832 -0.59500
O 	O 	0.06192 0.27432 0.85864 -0.62400
O 	O 	0.58640 0.43010 0.93720 -0.62100
O 	O 	0.72600 0.33710 0.92880 -0.59300
O 	O 	0.91632 0.41382 0.83284 -1.12600
O 	O 	0.83249 0.08249 0.16498 -1.12200
O 	O 	0.66751 0.41751 0.83502 -1.12200
O 	O 	0.33420 0.08420 0.16840 -1.12800
O 	O 	0.16580 0.41580 0.83160 -1.12800
O 	O 	0.49910 0.74910 0.49820 -1.12800
O 	O 	0.00090 0.75090 0.50180 -1.12000
O 	O 	0.75000 0.75240 0.50000 -1.12400
O 	O 	0.25000 0.74760 0.50000 -1.12300
