data_crystal

_cell_length_a 21.95440
_cell_length_b 23.89140
_cell_length_c 17.03980
_cell_angle_alpha 90.00000
_cell_angle_beta  106.56800
_cell_angle_gamma 90.00000

_symmetry_space_group_name_	'P 1'
_symmetry_space_group_name_H-M	'P 1'

loop_
_symmetry_equiv_pos_as_xyz
  x,y,z

loop_
_atom_site_label
_atom_site_type_symbol
_atom_site_fract_x
_atom_site_fract_y
_atom_site_fract_z
_atom_site_charge
Zn	Zn	0.31152 0.01769 0.04588 1.20400
Zn	Zn	0.01786 0.00010 0.27939 1.16000
Zn	Zn	0.63572 0.49987 0.89623 1.16100
S 	S 	0.54050 0.63144 0.25499 0.00800
S 	S 	0.96044 0.77586 0.26129 0.02300
S 	S 	0.79391 0.61293 0.08306 0.00200
S 	S 	0.37521 0.78983 0.06374 0.01400
O 	O 	0.35960 0.95140 0.09020 -0.46300
N 	N 	0.04434 0.01958 0.40030 -0.30800
N 	N 	0.29206 0.03500 0.92410 -0.28300
O 	O 	0.63939 0.57279 0.37957 -0.46700
O 	O 	0.64368 0.62462 0.89140 -0.31200
O 	O 	0.69052 0.55259 0.96850 -0.49300
N 	N 	0.10712 0.98795 0.26320 -0.28500
N 	N 	0.54314 0.99129 0.40150 -0.28700
O 	O 	0.30792 0.89175 0.99210 -0.30300
O 	O 	0.69608 0.64726 0.43710 -0.31000
N 	N 	0.21761 0.00896 0.04050 -0.27900
O 	O 	0.96727 0.93722 0.22660 -0.49600
C 	C 	0.88010 0.69166 0.17460 -0.04600
C 	C 	0.54358 0.73956 0.27200 0.06300
O 	O 	0.02321 0.88282 0.32830 -0.31600
C 	C 	0.51230 0.94300 0.38320 0.17600
C 	C 	0.10048 0.05097 0.56250 0.16600
N 	N 	0.61269 0.50086 0.77240 -0.30100
C 	C 	0.39160 0.85781 0.09940 -0.07200
C 	C 	0.07180 0.98240 0.45730 0.13000
H 	H 	0.07190 0.94490 0.44220 -0.02200
C 	C 	0.47180 0.80798 0.19200 0.05400
C 	C 	0.86120 0.79079 0.13500 0.07900
C 	C 	0.52490 0.79527 0.25590 -0.13700
H 	H 	0.54800 0.82380 0.28820 0.09300
C 	C 	0.50840 0.69689 0.22200 -0.02300
C 	C 	0.34930 0.90309 0.05600 0.33000
C 	C 	0.14190 0.94330 0.29410 0.09500
C 	C 	0.45620 0.70838 0.15590 -0.03700
C 	C 	0.98070 0.89090 0.26400 0.32800
C 	C 	0.43880 0.76387 0.14230 -0.02000
C 	C 	0.23510 0.98140 0.26740 0.14200
C 	C 	0.78980 0.72078 0.05920 0.14200
C 	C 	0.23864 0.05582 0.75650 0.16400
C 	C 	0.13360 0.06550 0.65000 -0.19000
C 	C 	0.24480 0.00285 0.78780 -0.20600
H 	H 	0.23120 0.97260 0.75280 0.10500
C 	C 	0.68499 0.60444 0.94950 0.30500
C 	C 	0.26130 0.09845 0.81150 -0.21100
H 	H 	0.25870 0.13530 0.79340 0.10700
C 	C 	0.89629 0.74781 0.18620 -0.02300
C 	C 	0.41270 0.98450 0.38120 0.18200
C 	C 	0.20641 0.06509 0.66700 -0.19000
H 	H 	0.21850 0.03560 0.63530 0.09500
H 	H 	0.22020 0.10050 0.65010 0.08800
C 	C 	0.94110 0.84325 0.22390 -0.06800
C 	C 	0.28780 0.08663 0.89370 0.11500
H 	H 	0.30330 0.11610 0.92940 -0.01700
C 	C 	0.20510 0.93840 0.29660 -0.18600
H 	H 	0.22760 0.90620 0.31780 0.09900
C 	C 	0.06970 0.08950 0.50500 -0.21000
H 	H 	0.06700 0.12670 0.51970 0.10600
C 	C 	0.73320 0.64135 0.00370 -0.00100
C 	C 	0.13540 0.02874 0.23190 0.10500
H 	H 	0.11150 0.05970 0.20810 -0.04900
C 	C 	0.44290 0.86180 0.16560 -0.05300
C 	C 	0.64950 0.62517 0.38820 0.33200
C 	C 	0.60110 0.66132 0.33220 -0.06500
C 	C 	0.19850 0.02640 0.23380 -0.19800
H 	H 	0.21640 0.05570 0.21190 0.09500
C 	C 	0.18090 0.05420 0.03050 0.09400
H 	H 	0.20000 0.08920 0.03960 -0.02000
C 	C 	0.04260 0.07250 0.42490 0.10600
C 	C 	0.44540 0.03440 0.40160 -0.22600
H 	H 	0.42380 0.06660 0.40860 0.10900
C 	C 	0.80800 0.77680 0.07180 -0.18900
H 	H 	0.78450 0.80450 0.03800 0.11400
C 	C 	0.82660 0.67873 0.11080 -0.03400
C 	C 	0.34210 0.98150 0.36690 -0.21200
H 	H 	0.33210 0.94840 0.39390 0.09500
H 	H 	0.32840 0.01390 0.39160 0.09400
C 	C 	0.88870 0.84487 0.15930 -0.07300
H 	H 	0.87190 0.87790 0.13300 0.06600
C 	C 	0.73760 0.69735 0.99920 -0.24200
C 	C 	0.50960 0.03642 0.41140 0.12600
H 	H 	0.53060 0.07030 0.42540 -0.02300
C 	C 	0.44770 0.93750 0.37250 -0.24600
H 	H 	0.42800 0.90290 0.35970 0.11900
C 	C 	0.27080 0.99355 0.87030 0.10200
H 	H 	0.27380 0.95690 0.88960 -0.01300
C 	C 	0.10010 0.99650 0.53710 -0.22200
H 	H 	0.11930 0.96900 0.57450 0.10800
C 	C 	0.59640 0.71741 0.33360 -0.06200
H 	H 	0.62500 0.73980 0.37140 0.06400
C 	C 	0.18900 0.95840 0.02930 0.09500
H 	H 	0.21390 0.92630 0.03790 -0.01100
C 	C 	0.30560 0.97930 0.27750 -0.14700
H 	H 	0.31760 0.01080 0.24920 0.06700
H 	H 	0.31590 0.94510 0.25340 0.07300
C 	C 	0.57820 0.44870 0.64880 -0.19700
H 	H 	0.57150 0.41390 0.62340 0.10100
C 	C 	0.12390 0.95310 0.00570 -0.18100
H 	H 	0.10560 0.91760 0.99830 0.08200
C 	C 	0.01310 0.99580 0.96510 -0.15800
H 	H 	0.00040 0.95930 0.94100 0.05200
H 	H 	0.99610 0.02400 0.92370 0.06200
C 	C 	0.59900 0.54750 0.72800 0.11000
C 	C 	0.57480 0.54740 0.64440 -0.20200
H 	H 	0.56570 0.58100 0.61590 0.10000
C 	C 	0.56410 0.49730 0.60260 0.14900
C 	C 	0.60210 0.45240 0.73220 0.09600
C 	C 	0.11520 0.05100 0.00700 -0.18700
H 	H 	0.09110 0.08360 0.00070 0.09200
C 	C 	0.53630 0.49650 0.51150 -0.17500
H 	H 	0.54660 0.46140 0.48980 0.08100
H 	H 	0.55450 0.52670 0.48740 0.06500
C 	C 	0.08570 0.99960 0.99280 0.12100
H 	H 	0.12200 0.09620 0.66500 0.10900
H 	H 	0.71220 0.71360 0.96700 0.16400
H 	H 	0.46190 0.89650 0.19000 0.05700
H 	H 	0.53700 0.91800 0.38400 -0.05800
H 	H 	0.12400 0.03300 0.69400 0.04500
H 	H 	0.43400 0.67600 0.11600 0.02300
H 	H 	0.90300 0.66800 0.21700 0.05300
H 	H 	0.11700 0.91200 0.31900 0.00000
H 	H 	0.60700 0.58200 0.76500 -0.01700
H 	H 	0.02700 0.10270 0.39000 -0.04700
H 	H 	0.61700 0.41600 0.76600 -0.04700
S 	S 	0.17297 0.86065 0.52602 0.01100
S 	S 	0.04667 0.67055 0.37182 0.01100
O 	O 	0.00811 0.57027 0.28304 -0.44400
O 	O 	0.34431 0.92317 0.55792 -0.43600
O 	O 	0.09007 0.55335 0.23460 -0.33300
O 	O 	0.26207 0.94487 0.60380 -0.33700
C 	C 	0.28770 0.91473 0.56390 0.31100
C 	C 	0.09620 0.63035 0.32230 -0.07700
C 	C 	0.06360 0.58123 0.27660 0.31900
C 	C 	0.25290 0.86623 0.51810 -0.07700
C 	C 	0.22440 0.78240 0.44450 0.01800
C 	C 	0.17080 0.79860 0.46320 0.01400
C 	C 	0.17020 0.69970 0.37980 0.02500
C 	C 	0.11560 0.71710 0.39980 0.01200
C 	C 	0.11410 0.76610 0.44240 -0.07800
H 	H 	0.07810 0.77710 0.45660 0.06800
C 	C 	0.22770 0.73220 0.40040 -0.08300
H 	H 	0.26390 0.72140 0.38630 0.07200
Zn	Zn	0.68848 0.51769 0.45412 1.20600
Zn	Zn	0.98214 0.50010 0.22061 1.20800
Zn	Zn	0.36428 0.99987 0.60377 1.20800
S 	S 	0.45950 0.13144 0.24501 0.01700
S 	S 	0.03956 0.27586 0.23871 0.00800
S 	S 	0.20609 0.11293 0.41694 0.00300
S 	S 	0.62479 0.28983 0.43626 0.02500
O 	O 	0.64040 0.45140 0.40980 -0.46400
N 	N 	0.95566 0.51958 0.09970 -0.29200
N 	N 	0.70794 0.53500 0.57590 -0.28000
O 	O 	0.36061 0.07279 0.12043 -0.46700
O 	O 	0.35632 0.12462 0.60860 -0.30600
O 	O 	0.30948 0.05259 0.53150 -0.45700
N 	N 	0.89288 0.48795 0.23680 -0.26900
N 	N 	0.45686 0.49129 0.09850 -0.30200
O 	O 	0.69208 0.39175 0.50790 -0.29800
O 	O 	0.30392 0.14726 0.06290 -0.31100
N 	N 	0.78239 0.50896 0.45950 -0.28000
O 	O 	0.03273 0.43722 0.27340 -0.46200
C 	C 	0.11990 0.19166 0.32540 -0.03700
C 	C 	0.45642 0.23956 0.22800 0.06000
O 	O 	0.97679 0.38282 0.17170 -0.31300
C 	C 	0.48770 0.44300 0.11680 0.16900
C 	C 	0.89952 0.55097 0.93750 0.20700
N 	N 	0.38731 0.00086 0.72760 -0.28000
C 	C 	0.60840 0.35781 0.40060 -0.07400
C 	C 	0.92820 0.48240 0.04270 0.13700
H 	H 	0.92810 0.44490 0.05780 -0.02600
C 	C 	0.52820 0.30798 0.30800 0.05000
C 	C 	0.13880 0.29079 0.36500 0.08500
C 	C 	0.47510 0.29527 0.24410 -0.13300
H 	H 	0.45200 0.32380 0.21180 0.09100
C 	C 	0.49160 0.19689 0.27800 -0.01700
C 	C 	0.65070 0.40309 0.44400 0.32800
C 	C 	0.85810 0.44330 0.20590 0.08800
C 	C 	0.54380 0.20838 0.34410 -0.04100
C 	C 	0.01930 0.39090 0.23600 0.31800
C 	C 	0.56120 0.26387 0.35770 -0.01400
C 	C 	0.76490 0.48140 0.23260 0.14300
C 	C 	0.21020 0.22078 0.44080 0.14700
C 	C 	0.76136 0.55582 0.74350 0.12500
C 	C 	0.86640 0.56550 0.85000 -0.26400
C 	C 	0.75520 0.50285 0.71220 -0.18000
H 	H 	0.76880 0.47260 0.74720 0.09200
C 	C 	0.31501 0.10444 0.55050 0.29600
C 	C 	0.73870 0.59845 0.68850 -0.18500
H 	H 	0.74130 0.63530 0.70660 0.09800
C 	C 	0.10371 0.24781 0.31380 -0.03000
C 	C 	0.58730 0.48450 0.11880 0.15200
C 	C 	0.79359 0.56509 0.83300 -0.11700
H 	H 	0.78150 0.53560 0.86470 0.04400
H 	H 	0.77980 0.60050 0.84990 0.06300
C 	C 	0.05890 0.34325 0.27610 -0.05900
C 	C 	0.71220 0.58663 0.60630 0.10300
H 	H 	0.69670 0.61610 0.57060 -0.01300
C 	C 	0.79490 0.43840 0.20340 -0.18900
H 	H 	0.77240 0.40620 0.18220 0.08900
C 	C 	0.93030 0.58950 0.99500 -0.23800
H 	H 	0.93300 0.62670 0.98030 0.11800
C 	C 	0.26680 0.14135 0.49630 0.00500
C 	C 	0.86460 0.52874 0.26810 0.10300
H 	H 	0.88850 0.55970 0.29190 -0.01600
C 	C 	0.55710 0.36180 0.33440 -0.05000
C 	C 	0.35050 0.12517 0.11180 0.33400
C 	C 	0.39890 0.16132 0.16780 -0.06800
C 	C 	0.80150 0.52640 0.26620 -0.19400
H 	H 	0.78360 0.55570 0.28810 0.09500
C 	C 	0.81910 0.55420 0.46950 0.10700
H 	H 	0.80000 0.58920 0.46040 -0.02200
C 	C 	0.95740 0.57250 0.07510 0.12900
C 	C 	0.55460 0.53440 0.09840 -0.21500
H 	H 	0.57620 0.56660 0.09140 0.10300
C 	C 	0.19200 0.27680 0.42820 -0.19500
H 	H 	0.21550 0.30450 0.46200 0.11600
C 	C 	0.17340 0.17873 0.38920 -0.04300
C 	C 	0.65790 0.48150 0.13310 -0.17000
H 	H 	0.66790 0.44840 0.10610 0.05200
H 	H 	0.67160 0.51390 0.10840 0.07200
C 	C 	0.11130 0.34487 0.34070 -0.08100
H 	H 	0.12810 0.37790 0.36700 0.07200
C 	C 	0.26240 0.19735 0.50080 -0.24800
C 	C 	0.49040 0.53642 0.08860 0.12100
H 	H 	0.46940 0.57030 0.07460 -0.05300
C 	C 	0.55230 0.43750 0.12750 -0.23600
H 	H 	0.57200 0.40290 0.14030 0.10900
C 	C 	0.72920 0.49355 0.62970 0.09700
H 	H 	0.72620 0.45690 0.61040 -0.00700
C 	C 	0.89990 0.49650 0.96290 -0.24900
H 	H 	0.88070 0.46900 0.92550 0.11900
C 	C 	0.40360 0.21741 0.16640 -0.06000
H 	H 	0.37500 0.23980 0.12860 0.06300
C 	C 	0.81100 0.45840 0.47070 0.10800
H 	H 	0.78610 0.42630 0.46210 -0.01300
C 	C 	0.69440 0.47930 0.22250 -0.17500
H 	H 	0.68240 0.51080 0.25080 0.07700
H 	H 	0.68410 0.44510 0.24660 0.08000
C 	C 	0.42180 0.94870 0.85120 -0.19400
H 	H 	0.42850 0.91390 0.87660 0.10100
C 	C 	0.87610 0.45310 0.49430 -0.19800
H 	H 	0.89440 0.41760 0.50170 0.10400
C 	C 	0.98690 0.49580 0.53490 -0.17200
H 	H 	0.99960 0.45930 0.55900 0.08300
H 	H 	0.00390 0.52400 0.57630 0.07600
C 	C 	0.40100 0.04750 0.77200 0.10800
C 	C 	0.42520 0.04740 0.85560 -0.19500
H 	H 	0.43430 0.08100 0.88410 0.09900
C 	C 	0.43590 0.99730 0.89740 0.14600
C 	C 	0.39790 0.95240 0.76780 0.10100
C 	C 	0.88480 0.55100 0.49300 -0.19900
H 	H 	0.90890 0.58360 0.49930 0.10200
C 	C 	0.46370 0.99650 0.98850 -0.17900
H 	H 	0.45340 0.96140 0.01020 0.08400
H 	H 	0.44550 0.02670 0.01260 0.06500
C 	C 	0.91430 0.49960 0.50720 0.15400
H 	H 	0.87800 0.59620 0.83500 0.14000
H 	H 	0.28780 0.21360 0.53300 0.16700
H 	H 	0.53810 0.39650 0.31000 0.05600
H 	H 	0.46300 0.41800 0.11600 -0.05700
H 	H 	0.87600 0.53300 0.80600 0.09200
H 	H 	0.56600 0.17600 0.38400 0.05000
H 	H 	0.09700 0.16800 0.28300 0.02800
H 	H 	0.88300 0.41200 0.18100 -0.00200
H 	H 	0.39300 0.08200 0.73500 -0.01400
H 	H 	0.97300 0.60270 0.11000 -0.02300
H 	H 	0.38300 0.91600 0.73400 -0.01400
Zn	Zn	0.68848 0.98231 0.95412 1.20500
Zn	Zn	0.98214 0.99990 0.72061 1.16100
Zn	Zn	0.36428 0.50013 0.10377 1.16200
S 	S 	0.45950 0.36856 0.74501 0.00900
S 	S 	0.03956 0.22414 0.73871 0.02300
S 	S 	0.20609 0.38707 0.91694 0.00200
S 	S 	0.62479 0.21017 0.93626 0.01400
O 	O 	0.64040 0.04860 0.90980 -0.46300
N 	N 	0.95566 0.98042 0.59970 -0.30800
N 	N 	0.70794 0.96500 0.07590 -0.28300
O 	O 	0.36061 0.42721 0.62043 -0.46700
O 	O 	0.35632 0.37538 0.10860 -0.31200
O 	O 	0.30948 0.44741 0.03150 -0.49300
N 	N 	0.89288 0.01205 0.73680 -0.28500
N 	N 	0.45686 0.00871 0.59850 -0.28700
O 	O 	0.69208 0.10825 0.00790 -0.30300
O 	O 	0.30392 0.35274 0.56290 -0.31000
N 	N 	0.78239 0.99104 0.95950 -0.27900
O 	O 	0.03273 0.06278 0.77340 -0.49600
C 	C 	0.11990 0.30834 0.82540 -0.04600
C 	C 	0.45642 0.26044 0.72800 0.06300
O 	O 	0.97679 0.11718 0.67170 -0.31600
C 	C 	0.48770 0.05700 0.61680 0.17600
C 	C 	0.89952 0.94903 0.43750 0.16600
N 	N 	0.38731 0.49914 0.22760 -0.30100
C 	C 	0.60840 0.14219 0.90060 -0.07200
C 	C 	0.92820 0.01760 0.54270 0.13000
H 	H 	0.92810 0.05510 0.55780 -0.02200
C 	C 	0.52820 0.19202 0.80800 0.05400
C 	C 	0.13880 0.20921 0.86500 0.07900
C 	C 	0.47510 0.20473 0.74410 -0.13700
H 	H 	0.45200 0.17620 0.71180 0.09300
C 	C 	0.49160 0.30311 0.77800 -0.02300
C 	C 	0.65070 0.09691 0.94400 0.33000
C 	C 	0.85810 0.05670 0.70590 0.09500
C 	C 	0.54380 0.29162 0.84410 -0.03700
C 	C 	0.01930 0.10910 0.73600 0.32800
C 	C 	0.56120 0.23613 0.85770 -0.02000
C 	C 	0.76490 0.01860 0.73260 0.14200
C 	C 	0.21020 0.27922 0.94080 0.14200
C 	C 	0.76136 0.94418 0.24350 0.16400
C 	C 	0.86640 0.93450 0.35000 -0.19000
C 	C 	0.75520 0.99715 0.21220 -0.20600
H 	H 	0.76880 0.02740 0.24720 0.10500
C 	C 	0.31501 0.39556 0.05050 0.30500
C 	C 	0.73870 0.90155 0.18850 -0.21100
H 	H 	0.74130 0.86470 0.20660 0.10700
C 	C 	0.10371 0.25219 0.81380 -0.02300
C 	C 	0.58730 0.01550 0.61880 0.18200
C 	C 	0.79359 0.93491 0.33300 -0.19000
H 	H 	0.78150 0.96440 0.36470 0.09500
H 	H 	0.77980 0.89950 0.34990 0.08800
C 	C 	0.05890 0.15675 0.77610 -0.06800
C 	C 	0.71220 0.91337 0.10630 0.11500
H 	H 	0.69670 0.88390 0.07060 -0.01700
C 	C 	0.79490 0.06160 0.70340 -0.18600
H 	H 	0.77240 0.09380 0.68220 0.09900
C 	C 	0.93030 0.91050 0.49500 -0.21000
H 	H 	0.93300 0.87330 0.48030 0.10600
C 	C 	0.26680 0.35865 0.99630 -0.00100
C 	C 	0.86460 0.97126 0.76810 0.10500
H 	H 	0.88850 0.94030 0.79190 -0.04900
C 	C 	0.55710 0.13820 0.83440 -0.05300
C 	C 	0.35050 0.37483 0.61180 0.33200
C 	C 	0.39890 0.33868 0.66780 -0.06500
C 	C 	0.80150 0.97360 0.76620 -0.19800
H 	H 	0.78360 0.94430 0.78810 0.09500
C 	C 	0.81910 0.94580 0.96950 0.09400
H 	H 	0.80000 0.91080 0.96040 -0.02000
C 	C 	0.95740 0.92750 0.57510 0.10600
C 	C 	0.55460 0.96560 0.59840 -0.22600
H 	H 	0.57620 0.93340 0.59140 0.10900
C 	C 	0.19200 0.22320 0.92820 -0.18900
H 	H 	0.21550 0.19550 0.96200 0.11400
C 	C 	0.17340 0.32127 0.88920 -0.03400
C 	C 	0.65790 0.01850 0.63310 -0.21200
H 	H 	0.66790 0.05160 0.60610 0.09500
H 	H 	0.67160 0.98610 0.60840 0.09400
C 	C 	0.11130 0.15513 0.84070 -0.07300
H 	H 	0.12810 0.12210 0.86700 0.06600
C 	C 	0.26240 0.30265 0.00080 -0.24200
C 	C 	0.49040 0.96358 0.58860 0.12600
H 	H 	0.46940 0.92970 0.57460 -0.02300
C 	C 	0.55230 0.06250 0.62750 -0.24600
H 	H 	0.57200 0.09710 0.64030 0.11900
C 	C 	0.72920 0.00645 0.12970 0.10200
H 	H 	0.72620 0.04310 0.11040 -0.01300
C 	C 	0.89990 0.00350 0.46290 -0.22200
H 	H 	0.88070 0.03100 0.42550 0.10800
C 	C 	0.40360 0.28259 0.66640 -0.06200
H 	H 	0.37500 0.26020 0.62860 0.06400
C 	C 	0.81100 0.04160 0.97070 0.09500
H 	H 	0.78610 0.07370 0.96210 -0.01100
C 	C 	0.69440 0.02070 0.72250 -0.14700
H 	H 	0.68240 0.98920 0.75080 0.06700
H 	H 	0.68410 0.05490 0.74660 0.07300
C 	C 	0.42180 0.55130 0.35120 -0.19700
H 	H 	0.42850 0.58610 0.37660 0.10100
C 	C 	0.87610 0.04690 0.99430 -0.18100
H 	H 	0.89440 0.08240 0.00170 0.08200
C 	C 	0.98690 0.00420 0.03490 -0.15800
H 	H 	0.99960 0.04070 0.05900 0.05200
H 	H 	0.00390 0.97600 0.07630 0.06200
C 	C 	0.40100 0.45250 0.27200 0.11000
C 	C 	0.42520 0.45260 0.35560 -0.20200
H 	H 	0.43430 0.41900 0.38410 0.10000
C 	C 	0.43590 0.50270 0.39740 0.14900
C 	C 	0.39790 0.54760 0.26780 0.09600
C 	C 	0.88480 0.94900 0.99300 -0.18700
H 	H 	0.90890 0.91640 0.99930 0.09200
C 	C 	0.46370 0.50350 0.48850 -0.17500
H 	H 	0.45340 0.53860 0.51020 0.08100
H 	H 	0.44550 0.47330 0.51260 0.06500
C 	C 	0.91430 0.00040 0.00720 0.12100
H 	H 	0.87800 0.90380 0.33500 0.10900
H 	H 	0.28780 0.28640 0.03300 0.16400
H 	H 	0.53810 0.10350 0.81000 0.05700
H 	H 	0.46300 0.08200 0.61600 -0.05800
H 	H 	0.87600 0.96700 0.30600 0.04500
H 	H 	0.56600 0.32400 0.88400 0.02300
H 	H 	0.09700 0.33200 0.78300 0.05300
H 	H 	0.88300 0.08800 0.68100 0.00000
H 	H 	0.39300 0.41800 0.23500 -0.01700
H 	H 	0.97300 0.89730 0.61000 -0.04700
H 	H 	0.38300 0.58400 0.23400 -0.04700
S 	S 	0.82703 0.13935 0.47398 0.01100
S 	S 	0.95333 0.32945 0.62818 0.01100
O 	O 	0.99189 0.42973 0.71696 -0.44400
O 	O 	0.65569 0.07683 0.44208 -0.43600
O 	O 	0.90993 0.44665 0.76540 -0.33300
O 	O 	0.73793 0.05513 0.39620 -0.33700
C 	C 	0.71230 0.08527 0.43610 0.31100
C 	C 	0.90380 0.36965 0.67770 -0.07700
C 	C 	0.93640 0.41877 0.72340 0.31900
C 	C 	0.74710 0.13377 0.48190 -0.07700
C 	C 	0.77560 0.21760 0.55550 0.01800
C 	C 	0.82920 0.20140 0.53680 0.01400
C 	C 	0.82980 0.30030 0.62020 0.02500
C 	C 	0.88440 0.28290 0.60020 0.01200
C 	C 	0.88590 0.23390 0.55760 -0.07800
H 	H 	0.92190 0.22290 0.54340 0.06800
C 	C 	0.77230 0.26780 0.59960 -0.08300
H 	H 	0.73610 0.27860 0.61370 0.07200
Zn	Zn	0.31152 0.48231 0.54588 1.20600
Zn	Zn	0.01786 0.49990 0.77939 1.20800
Zn	Zn	0.63572 0.00013 0.39623 1.20800
S 	S 	0.54050 0.86856 0.75499 0.01700
S 	S 	0.96044 0.72414 0.76129 0.00800
S 	S 	0.79391 0.88707 0.58306 0.00300
S 	S 	0.37521 0.71017 0.56374 0.02500
O 	O 	0.35960 0.54860 0.59020 -0.46400
N 	N 	0.04434 0.48042 0.90030 -0.29200
N 	N 	0.29206 0.46500 0.42410 -0.28000
O 	O 	0.63939 0.92721 0.87957 -0.46700
O 	O 	0.64368 0.87538 0.39140 -0.30600
O 	O 	0.69052 0.94741 0.46850 -0.45700
N 	N 	0.10712 0.51205 0.76320 -0.26900
N 	N 	0.54314 0.50871 0.90150 -0.30200
O 	O 	0.30792 0.60825 0.49210 -0.29800
O 	O 	0.69608 0.85274 0.93710 -0.31100
N 	N 	0.21761 0.49104 0.54050 -0.28000
O 	O 	0.96727 0.56278 0.72660 -0.46200
C 	C 	0.88010 0.80834 0.67460 -0.03700
C 	C 	0.54358 0.76044 0.77200 0.06000
O 	O 	0.02321 0.61718 0.82830 -0.31300
C 	C 	0.51230 0.55700 0.88320 0.16900
C 	C 	0.10048 0.44903 0.06250 0.20700
N 	N 	0.61269 0.99914 0.27240 -0.28000
C 	C 	0.39160 0.64219 0.59940 -0.07400
C 	C 	0.07180 0.51760 0.95730 0.13700
H 	H 	0.07190 0.55510 0.94220 -0.02600
C 	C 	0.47180 0.69202 0.69200 0.05000
C 	C 	0.86120 0.70921 0.63500 0.08500
C 	C 	0.52490 0.70473 0.75590 -0.13300
H 	H 	0.54800 0.67620 0.78820 0.09100
C 	C 	0.50840 0.80311 0.72200 -0.01700
C 	C 	0.34930 0.59691 0.55600 0.32800
C 	C 	0.14190 0.55670 0.79410 0.08800
C 	C 	0.45620 0.79162 0.65590 -0.04100
C 	C 	0.98070 0.60910 0.76400 0.31800
C 	C 	0.43880 0.73613 0.64230 -0.01400
C 	C 	0.23510 0.51860 0.76740 0.14300
C 	C 	0.78980 0.77922 0.55920 0.14700
C 	C 	0.23864 0.44418 0.25650 0.12500
C 	C 	0.13360 0.43450 0.15000 -0.26400
C 	C 	0.24480 0.49715 0.28780 -0.18000
H 	H 	0.23120 0.52740 0.25280 0.09200
C 	C 	0.68499 0.89556 0.44950 0.29600
C 	C 	0.26130 0.40155 0.31150 -0.18500
H 	H 	0.25870 0.36470 0.29340 0.09800
C 	C 	0.89629 0.75219 0.68620 -0.03000
C 	C 	0.41270 0.51550 0.88120 0.15200
C 	C 	0.20641 0.43491 0.16700 -0.11700
H 	H 	0.21850 0.46440 0.13530 0.04400
H 	H 	0.22020 0.39950 0.15010 0.06300
C 	C 	0.94110 0.65675 0.72390 -0.05900
C 	C 	0.28780 0.41337 0.39370 0.10300
H 	H 	0.30330 0.38390 0.42940 -0.01300
C 	C 	0.20510 0.56160 0.79660 -0.18900
H 	H 	0.22760 0.59380 0.81780 0.08900
C 	C 	0.06970 0.41050 0.00500 -0.23800
H 	H 	0.06700 0.37330 0.01970 0.11800
C 	C 	0.73320 0.85865 0.50370 0.00500
C 	C 	0.13540 0.47126 0.73190 0.10300
H 	H 	0.11150 0.44030 0.70810 -0.01600
C 	C 	0.44290 0.63820 0.66560 -0.05000
C 	C 	0.64950 0.87483 0.88820 0.33400
C 	C 	0.60110 0.83868 0.83220 -0.06800
C 	C 	0.19850 0.47360 0.73380 -0.19400
H 	H 	0.21640 0.44430 0.71190 0.09500
C 	C 	0.18090 0.44580 0.53050 0.10700
H 	H 	0.20000 0.41080 0.53960 -0.02200
C 	C 	0.04260 0.42750 0.92490 0.12900
C 	C 	0.44540 0.46560 0.90160 -0.21500
H 	H 	0.42380 0.43340 0.90860 0.10300
C 	C 	0.80800 0.72320 0.57180 -0.19500
H 	H 	0.78450 0.69550 0.53800 0.11600
C 	C 	0.82660 0.82127 0.61080 -0.04300
C 	C 	0.34210 0.51850 0.86690 -0.17000
H 	H 	0.33210 0.55160 0.89390 0.05200
H 	H 	0.32840 0.48610 0.89160 0.07200
C 	C 	0.88870 0.65513 0.65930 -0.08100
H 	H 	0.87190 0.62210 0.63300 0.07200
C 	C 	0.73760 0.80265 0.49920 -0.24800
C 	C 	0.50960 0.46358 0.91140 0.12100
H 	H 	0.53060 0.42970 0.92540 -0.05300
C 	C 	0.44770 0.56250 0.87250 -0.23600
H 	H 	0.42800 0.59710 0.85970 0.10900
C 	C 	0.27080 0.50645 0.37030 0.09700
H 	H 	0.27380 0.54310 0.38960 -0.00700
C 	C 	0.10010 0.50350 0.03710 -0.24900
H 	H 	0.11930 0.53100 0.07450 0.11900
C 	C 	0.59640 0.78259 0.83360 -0.06000
H 	H 	0.62500 0.76020 0.87140 0.06300
C 	C 	0.18900 0.54160 0.52930 0.10800
H 	H 	0.21390 0.57370 0.53790 -0.01300
C 	C 	0.30560 0.52070 0.77750 -0.17500
H 	H 	0.31760 0.48920 0.74920 0.07700
H 	H 	0.31590 0.55490 0.75340 0.08000
C 	C 	0.57820 0.05130 0.14880 -0.19400
H 	H 	0.57150 0.08610 0.12340 0.10100
C 	C 	0.12390 0.54690 0.50570 -0.19800
H 	H 	0.10560 0.58240 0.49830 0.10400
C 	C 	0.01310 0.50420 0.46510 -0.17200
H 	H 	0.00040 0.54070 0.44100 0.08300
H 	H 	0.99610 0.47600 0.42370 0.07600
C 	C 	0.59900 0.95250 0.22800 0.10800
C 	C 	0.57480 0.95260 0.14440 -0.19500
H 	H 	0.56570 0.91900 0.11590 0.09900
C 	C 	0.56410 0.00270 0.10260 0.14600
C 	C 	0.60210 0.04760 0.23220 0.10100
C 	C 	0.11520 0.44900 0.50700 -0.19900
H 	H 	0.09110 0.41640 0.50070 0.10200
C 	C 	0.53630 0.00350 0.01150 -0.17900
H 	H 	0.54660 0.03860 0.98980 0.08400
H 	H 	0.55450 0.97330 0.98740 0.06500
C 	C 	0.08570 0.50040 0.49280 0.15400
H 	H 	0.12200 0.40380 0.16500 0.14000
H 	H 	0.71220 0.78640 0.46700 0.16700
H 	H 	0.46190 0.60350 0.69000 0.05600
H 	H 	0.53700 0.58200 0.88400 -0.05700
H 	H 	0.12400 0.46700 0.19400 0.09200
H 	H 	0.43400 0.82400 0.61600 0.05000
H 	H 	0.90300 0.83200 0.71700 0.02800
H 	H 	0.11700 0.58800 0.81900 -0.00200
H 	H 	0.60700 0.91800 0.26500 -0.01400
H 	H 	0.02700 0.39730 0.89000 -0.02300
H 	H 	0.61700 0.08400 0.26600 -0.01400
