data_crystal

_cell_length_a 7.16350
_cell_length_b 18.60700
_cell_length_c 18.60700
_cell_angle_alpha 90.00000
_cell_angle_beta  90.00000
_cell_angle_gamma 90.00000

_symmetry_space_group_name_	'P 1'
_symmetry_space_group_name_H-M	'P 1'

loop_
_symmetry_equiv_pos_as_xyz
  x,y,z

loop_
_atom_site_label
_atom_site_type_symbol
_atom_site_fract_x
_atom_site_fract_y
_atom_site_fract_z
_atom_site_charge
Co	Co	0.75000 0.25000 0.75000 1.08400
Co	Co	0.25000 0.75000 0.25000 1.08300
Co	Co	0.75000 0.75000 0.25000 1.08300
Co	Co	0.25000 0.25000 0.75000 1.08300
H 	H 	0.91630 0.39180 0.67840 0.14000
H 	H 	0.81640 0.46270 0.64840 0.17600
H 	H 	0.79290 0.44050 0.73100 0.16500
H 	H 	0.22930 0.47640 0.56230 0.04000
H 	H 	0.91630 0.10820 0.82160 0.14000
H 	H 	0.81640 0.03730 0.85160 0.17500
H 	H 	0.79290 0.05950 0.76900 0.16500
H 	H 	0.22930 0.02360 0.93770 0.04000
H 	H 	0.41630 0.82160 0.39180 0.13800
H 	H 	0.31640 0.85160 0.46270 0.17400
H 	H 	0.29290 0.76900 0.44050 0.16300
H 	H 	0.72930 0.93770 0.47640 0.04000
H 	H 	0.41630 0.67840 0.10820 0.13800
H 	H 	0.31640 0.64840 0.03730 0.17400
H 	H 	0.29290 0.73100 0.05950 0.16300
H 	H 	0.72930 0.56230 0.02360 0.04000
H 	H 	0.58370 0.60820 0.17840 0.13900
H 	H 	0.68360 0.53730 0.14840 0.17500
H 	H 	0.70710 0.55950 0.23100 0.16400
H 	H 	0.27070 0.52360 0.06230 0.04000
H 	H 	0.58370 0.89180 0.32160 0.13900
H 	H 	0.68360 0.96270 0.35160 0.17500
H 	H 	0.70710 0.94050 0.26900 0.16400
H 	H 	0.27070 0.97640 0.43770 0.04100
H 	H 	0.08370 0.17840 0.89180 0.13800
H 	H 	0.18360 0.14840 0.96270 0.17400
H 	H 	0.20710 0.23100 0.94050 0.16300
H 	H 	0.77070 0.06230 0.97640 0.04000
H 	H 	0.08370 0.32160 0.60820 0.13800
H 	H 	0.18360 0.35160 0.53730 0.17400
H 	H 	0.20710 0.26900 0.55950 0.16300
H 	H 	0.77070 0.43770 0.52360 0.04100
H 	H 	0.08370 0.60820 0.32160 0.13700
H 	H 	0.18360 0.53730 0.35160 0.17400
H 	H 	0.20710 0.55950 0.26900 0.16300
H 	H 	0.77070 0.52360 0.43770 0.04100
H 	H 	0.08370 0.89180 0.17840 0.13700
H 	H 	0.18360 0.96270 0.14840 0.17400
H 	H 	0.20710 0.94050 0.23100 0.16300
H 	H 	0.77070 0.97640 0.06230 0.04100
H 	H 	0.58370 0.17840 0.60820 0.13900
H 	H 	0.68360 0.14840 0.53730 0.17500
H 	H 	0.70710 0.23100 0.55950 0.16400
H 	H 	0.27070 0.06230 0.52360 0.04000
H 	H 	0.58370 0.32160 0.89180 0.13900
H 	H 	0.68360 0.35160 0.96270 0.17600
H 	H 	0.70710 0.26900 0.94050 0.16500
H 	H 	0.27070 0.43770 0.97640 0.04100
H 	H 	0.41630 0.39180 0.82160 0.13900
H 	H 	0.31640 0.46270 0.85160 0.17500
H 	H 	0.29290 0.44050 0.76900 0.16400
H 	H 	0.72930 0.47640 0.93770 0.04100
H 	H 	0.41630 0.10820 0.67840 0.13800
H 	H 	0.31640 0.03730 0.64840 0.17400
H 	H 	0.29290 0.05950 0.73100 0.16300
H 	H 	0.72930 0.02360 0.56230 0.04000
H 	H 	0.91630 0.82160 0.10820 0.14000
H 	H 	0.81640 0.85160 0.03730 0.17600
H 	H 	0.79290 0.76900 0.05950 0.16500
H 	H 	0.22930 0.93770 0.02360 0.04000
H 	H 	0.91630 0.67840 0.39180 0.14000
H 	H 	0.81640 0.64840 0.46270 0.17600
H 	H 	0.79290 0.73100 0.44050 0.16500
H 	H 	0.22930 0.56230 0.47640 0.04000
C 	C 	0.80490 0.42220 0.68180 -0.55000
C 	C 	0.63160 0.37790 0.66260 0.19600
C 	C 	0.34160 0.48580 0.53680 -0.08200
C 	C 	0.80490 0.07780 0.81820 -0.55000
C 	C 	0.63160 0.12210 0.83740 0.19600
C 	C 	0.34160 0.01420 0.96320 -0.08200
C 	C 	0.30490 0.81820 0.42220 -0.54600
C 	C 	0.13160 0.83740 0.37790 0.19200
C 	C 	0.84160 0.96320 0.48580 -0.08200
C 	C 	0.30490 0.68180 0.07780 -0.54600
C 	C 	0.13160 0.66260 0.12210 0.19200
C 	C 	0.84160 0.53680 0.01420 -0.08000
C 	C 	0.69510 0.57780 0.18180 -0.54800
C 	C 	0.86840 0.62210 0.16260 0.19500
C 	C 	0.15840 0.51420 0.03680 -0.08300
C 	C 	0.69510 0.92220 0.31820 -0.54800
C 	C 	0.86840 0.87790 0.33740 0.19500
C 	C 	0.15840 0.98580 0.46320 -0.08500
C 	C 	0.19510 0.18180 0.92220 -0.54800
C 	C 	0.36840 0.16260 0.87790 0.19500
C 	C 	0.65840 0.03680 0.98580 -0.08200
C 	C 	0.19510 0.31820 0.57780 -0.54700
C 	C 	0.36840 0.33740 0.62210 0.19500
C 	C 	0.65840 0.46320 0.51420 -0.08200
C 	C 	0.19510 0.57780 0.31820 -0.54700
C 	C 	0.36840 0.62210 0.33740 0.19500
C 	C 	0.65840 0.51420 0.46320 -0.08200
C 	C 	0.19510 0.92220 0.18180 -0.54700
C 	C 	0.36840 0.87790 0.16260 0.19500
C 	C 	0.65840 0.98580 0.03680 -0.08200
C 	C 	0.69510 0.18180 0.57780 -0.54900
C 	C 	0.86840 0.16260 0.62210 0.19600
C 	C 	0.15840 0.03680 0.51420 -0.08400
C 	C 	0.69510 0.31820 0.92220 -0.55200
C 	C 	0.86840 0.33740 0.87790 0.19900
C 	C 	0.15840 0.46320 0.98580 -0.08500
C 	C 	0.30490 0.42220 0.81820 -0.55000
C 	C 	0.13160 0.37790 0.83740 0.19700
C 	C 	0.84160 0.48580 0.96320 -0.08500
C 	C 	0.30490 0.07780 0.68180 -0.54700
C 	C 	0.13160 0.12210 0.66260 0.19300
C 	C 	0.84160 0.01420 0.53680 -0.08200
C 	C 	0.80490 0.81820 0.07780 -0.55100
C 	C 	0.63160 0.83740 0.12210 0.19600
C 	C 	0.34160 0.96320 0.01420 -0.08200
C 	C 	0.80490 0.68180 0.42220 -0.55100
C 	C 	0.63160 0.66260 0.37790 0.19600
C 	C 	0.34160 0.53680 0.48580 -0.08200
C 	C 	0.50000 0.39010 0.60990 -0.19800
C 	C 	0.50000 0.44640 0.55360 0.07500
C 	C 	0.50000 0.10990 0.89010 -0.19800
C 	C 	0.50000 0.05360 0.94640 0.07500
C 	C 	1.00000 0.89010 0.39010 -0.19500
C 	C 	1.00000 0.94640 0.44640 0.07700
C 	C 	1.00000 0.60990 0.10990 -0.19400
C 	C 	1.00000 0.55360 0.05360 0.07600
C 	C 	0.50000 0.60990 0.39010 -0.19800
C 	C 	0.50000 0.55360 0.44640 0.07500
C 	C 	0.50000 0.89010 0.10990 -0.19800
C 	C 	0.50000 0.94640 0.05360 0.07500
C 	C 	1.00000 0.10990 0.60990 -0.19500
C 	C 	1.00000 0.05360 0.55360 0.07700
C 	C 	0.00000 0.39010 0.89010 -0.20300
C 	C 	1.00000 0.44640 0.94640 0.08000
N 	N 	0.58380 0.32220 0.70360 -0.29200
N 	N 	0.58380 0.17780 0.79640 -0.29200
N 	N 	0.08380 0.79640 0.32220 -0.29300
N 	N 	0.08380 0.70360 0.17780 -0.29300
N 	N 	0.91620 0.67780 0.20360 -0.29100
N 	N 	0.91620 0.82220 0.29640 -0.29100
N 	N 	0.41620 0.20360 0.82220 -0.29200
N 	N 	0.41620 0.29640 0.67780 -0.29200
N 	N 	0.41620 0.67780 0.29640 -0.29200
N 	N 	0.41620 0.82220 0.20360 -0.29200
N 	N 	0.91620 0.20360 0.67780 -0.29100
N 	N 	0.91620 0.29640 0.82220 -0.29200
N 	N 	0.08380 0.32220 0.79640 -0.29300
N 	N 	0.08380 0.17780 0.70360 -0.29200
N 	N 	0.58380 0.79640 0.17780 -0.29200
N 	N 	0.58380 0.70360 0.32220 -0.29200
