data_crystal

_cell_length_a 7.21900
_cell_length_b 10.79500
_cell_length_c 11.66200
_cell_angle_alpha 113.68600
_cell_angle_beta  102.81400
_cell_angle_gamma 95.06900

_symmetry_space_group_name_	'P 1'
_symmetry_space_group_name_H-M	'P 1'

loop_
_symmetry_equiv_pos_as_xyz
  x,y,z

loop_
_atom_site_label
_atom_site_type_symbol
_atom_site_fract_x
_atom_site_fract_y
_atom_site_fract_z
_atom_site_charge
Ba	Ba	0.54785 0.22705 0.61578 1.97500
Ba	Ba	0.45215 0.77295 0.38422 1.97500
V 	V 	0.86984 0.74980 0.17464 1.82000
V 	V 	0.13016 0.25020 0.82536 1.82000
H 	H 	0.59600 0.73000 0.73150 -0.03300
H 	H 	0.76000 0.12150 0.02400 0.00800
H 	H 	0.15000 0.97700 0.42460 0.23100
H 	H 	0.18700 0.95300 0.54500 0.22600
H 	H 	0.40400 0.27000 0.26850 -0.03300
H 	H 	0.24000 0.87850 0.97600 0.00800
H 	H 	0.85000 0.02300 0.57540 0.23100
H 	H 	0.81300 0.04700 0.45500 0.22600
C 	C 	0.70630 0.59780 0.89410 0.40400
C 	C 	0.71330 0.74520 0.91440 -0.12200
C 	C 	0.65210 0.79270 0.82160 0.09500
C 	C 	0.66460 0.93460 0.86300 -0.17400
C 	C 	0.59070 0.98880 0.76170 0.44700
C 	C 	0.74170 0.02390 0.99510 0.08000
C 	C 	0.80320 0.96780 0.08170 -0.08200
C 	C 	0.88790 0.04190 0.22760 0.33400
C 	C 	0.29370 0.40220 0.10590 0.40400
C 	C 	0.28670 0.25480 0.08560 -0.12200
C 	C 	0.34790 0.20730 0.17840 0.09500
C 	C 	0.33540 0.06540 0.13700 -0.17400
C 	C 	0.40930 0.01120 0.23830 0.44700
C 	C 	0.25830 0.97610 0.00490 0.08000
C 	C 	0.19680 0.03220 0.91830 -0.08200
C 	C 	0.11210 0.95810 0.77240 0.33400
N 	N 	0.78820 0.83160 0.03980 -0.22400
N 	N 	0.21180 0.16840 0.96020 -0.22400
O 	O 	0.64230 0.50130 0.78680 -0.47700
O 	O 	0.77160 0.58780 0.00310 -0.52000
O 	O 	0.92540 0.95770 0.28060 -0.53100
O 	O 	0.91500 0.16660 0.28720 -0.32400
O 	O 	0.56740 0.90900 0.64740 -0.53200
O 	O 	0.56020 0.10810 0.80220 -0.44000
O 	O 	0.74040 0.71020 0.25600 -0.71600
O 	O 	0.08680 0.72720 0.21870 -0.71600
O 	O 	0.24210 0.98970 0.49870 -0.72900
O 	O 	0.35770 0.49870 0.21320 -0.47700
O 	O 	0.22840 0.41220 0.99690 -0.52000
O 	O 	0.07460 0.04230 0.71940 -0.53100
O 	O 	0.08500 0.83340 0.71280 -0.32400
O 	O 	0.43260 0.09100 0.35260 -0.53200
O 	O 	0.43980 0.89190 0.19780 -0.44000
O 	O 	0.25960 0.28980 0.74400 -0.71600
O 	O 	0.91320 0.27280 0.78130 -0.71600
O 	O 	0.75790 0.01030 0.50130 -0.72900
