data_crystal

_cell_length_a 18.11000
_cell_length_b 19.78900
_cell_length_c 9.20500
_cell_angle_alpha 90.00000
_cell_angle_beta  102.48000
_cell_angle_gamma 90.00000

_symmetry_space_group_name_	'P 1'
_symmetry_space_group_name_H-M	'P 1'

loop_
_symmetry_equiv_pos_as_xyz
  x,y,z

loop_
_atom_site_label
_atom_site_type_symbol
_atom_site_fract_x
_atom_site_fract_y
_atom_site_fract_z
_atom_site_charge
N 	N 	0.58420 0.39550 0.78160 -0.24900
N 	N 	0.92140 0.74900 0.72730 -0.23800
C 	C 	0.64630 0.38800 0.72370 0.09300
H 	H 	0.65100 0.34930 0.66920 -0.02500
C 	C 	0.70290 0.43620 0.74310 -0.19900
H 	H 	0.74640 0.42790 0.70740 0.09200
C 	C 	0.69600 0.49620 0.81450 0.14000
C 	C 	0.63270 0.50390 0.87380 -0.20600
H 	H 	0.62560 0.54330 0.92420 0.09200
C 	C 	0.58070 0.45310 0.85760 0.10600
H 	H 	0.53970 0.45870 0.90240 -0.03000
C 	C 	0.87250 0.73480 0.60220 0.12800
H 	H 	0.87440 0.76050 0.51850 -0.03100
C 	C 	0.81900 0.68450 0.58790 -0.21500
H 	H 	0.78550 0.67760 0.49720 0.10200
C 	C 	0.81550 0.64400 0.71020 0.15500
C 	C 	0.86840 0.65710 0.84050 -0.20100
H 	H 	0.86950 0.63070 0.92460 0.09900
C 	C 	0.91960 0.70930 0.84500 0.11400
H 	H 	0.95440 0.71740 0.93360 -0.01900
C 	C 	0.75470 0.59140 0.69570 -0.18500
H 	H 	0.75940 0.56050 0.61640 0.08400
H 	H 	0.70580 0.61330 0.66730 0.07800
C 	C 	0.75710 0.55110 0.83660 -0.16300
H 	H 	0.75000 0.58150 0.91520 0.06900
H 	H 	0.80640 0.53020 0.86750 0.07400
N 	N 	0.08420 0.89550 0.78160 -0.25800
N 	N 	0.42140 0.24900 0.72730 -0.25600
C 	C 	0.14630 0.88800 0.72370 0.08700
H 	H 	0.15100 0.84930 0.66920 -0.02800
C 	C 	0.20290 0.93620 0.74310 -0.19600
H 	H 	0.24640 0.92790 0.70740 0.08700
C 	C 	0.19600 0.99620 0.81450 0.13100
C 	C 	0.13270 0.00390 0.87380 -0.20500
H 	H 	0.12560 0.04330 0.92420 0.08500
C 	C 	0.08070 0.95310 0.85760 0.09800
H 	H 	0.03970 0.95870 0.90240 -0.04900
C 	C 	0.37250 0.23480 0.60220 0.12400
H 	H 	0.37440 0.26050 0.51850 -0.04100
C 	C 	0.31900 0.18450 0.58790 -0.22000
H 	H 	0.28550 0.17760 0.49720 0.10100
C 	C 	0.31550 0.14400 0.71020 0.15300
C 	C 	0.36840 0.15710 0.84050 -0.20700
H 	H 	0.36950 0.13070 0.92460 0.09300
C 	C 	0.41960 0.20930 0.84500 0.10800
H 	H 	0.45440 0.21740 0.93360 -0.03900
C 	C 	0.25470 0.09140 0.69570 -0.18800
H 	H 	0.25940 0.06050 0.61640 0.08200
H 	H 	0.20580 0.11330 0.66730 0.07600
C 	C 	0.25710 0.05110 0.83660 -0.15600
H 	H 	0.25000 0.08150 0.91520 0.06400
H 	H 	0.30640 0.03020 0.86750 0.06700
N 	N 	0.41580 0.39550 0.71840 -0.24900
N 	N 	0.07860 0.74900 0.77270 -0.26600
C 	C 	0.35370 0.38800 0.77630 0.08800
H 	H 	0.34900 0.34930 0.83080 -0.02500
C 	C 	0.29710 0.43620 0.75690 -0.19200
H 	H 	0.25360 0.42790 0.79260 0.08200
C 	C 	0.30400 0.49620 0.68550 0.12900
C 	C 	0.36730 0.50390 0.62620 -0.20000
H 	H 	0.37440 0.54330 0.57580 0.09000
C 	C 	0.41930 0.45310 0.64240 0.10200
H 	H 	0.46030 0.45870 0.59760 -0.02900
C 	C 	0.12750 0.73480 0.89780 0.12300
H 	H 	0.12560 0.76050 0.98150 -0.04900
C 	C 	0.18100 0.68450 0.91210 -0.23000
H 	H 	0.21450 0.67760 0.00280 0.10300
C 	C 	0.18450 0.64400 0.78980 0.15600
C 	C 	0.13160 0.65710 0.65950 -0.21500
H 	H 	0.13050 0.63070 0.57540 0.08900
C 	C 	0.08040 0.70930 0.65500 0.10500
H 	H 	0.04560 0.71740 0.56640 -0.05500
C 	C 	0.24530 0.59140 0.80430 -0.19600
H 	H 	0.24060 0.56050 0.88360 0.08200
H 	H 	0.29420 0.61330 0.83270 0.08100
C 	C 	0.24290 0.55110 0.66340 -0.14800
H 	H 	0.25000 0.58150 0.58480 0.06200
H 	H 	0.19360 0.53020 0.63250 0.05800
N 	N 	0.91580 0.89550 0.71840 -0.23200
N 	N 	0.57860 0.24900 0.77270 -0.25700
C 	C 	0.85370 0.88800 0.77630 0.09200
H 	H 	0.84900 0.84930 0.83080 -0.02100
C 	C 	0.79710 0.93620 0.75690 -0.19200
H 	H 	0.75360 0.92790 0.79260 0.08600
C 	C 	0.80400 0.99620 0.68550 0.13200
C 	C 	0.86730 0.00390 0.62620 -0.19500
H 	H 	0.87440 0.04330 0.57580 0.09700
C 	C 	0.91930 0.95310 0.64240 0.10700
H 	H 	0.96030 0.95870 0.59760 -0.00600
C 	C 	0.62750 0.23480 0.89780 0.12800
H 	H 	0.62560 0.26050 0.98150 -0.04200
C 	C 	0.68100 0.18450 0.91210 -0.22500
H 	H 	0.71450 0.17760 0.00280 0.10400
C 	C 	0.68450 0.14400 0.78980 0.16000
C 	C 	0.63160 0.15710 0.65950 -0.21000
H 	H 	0.63050 0.13070 0.57540 0.09500
C 	C 	0.58040 0.20930 0.65500 0.11100
H 	H 	0.54560 0.21740 0.56640 -0.03900
C 	C 	0.74530 0.09140 0.80430 -0.19600
H 	H 	0.74060 0.06050 0.88360 0.08500
H 	H 	0.79420 0.11330 0.83270 0.08500
C 	C 	0.74290 0.05110 0.66340 -0.15000
H 	H 	0.75000 0.08150 0.58480 0.06500
H 	H 	0.69360 0.03020 0.63250 0.06500
Cu	Cu	0.50000 0.32394 0.75000 0.84600
Cu	Cu	0.00000 0.82394 0.75000 0.81700
N 	N 	0.41580 0.60450 0.21840 -0.24900
N 	N 	0.07860 0.25100 0.27270 -0.26500
C 	C 	0.35370 0.61200 0.27630 0.08900
H 	H 	0.34900 0.65070 0.33080 -0.02500
C 	C 	0.29710 0.56380 0.25690 -0.19200
H 	H 	0.25360 0.57210 0.29260 0.08300
C 	C 	0.30400 0.50380 0.18550 0.13000
C 	C 	0.36730 0.49610 0.12620 -0.20000
H 	H 	0.37440 0.45670 0.07580 0.09100
C 	C 	0.41930 0.54690 0.14240 0.10300
H 	H 	0.46030 0.54130 0.09760 -0.02800
C 	C 	0.12750 0.26520 0.39780 0.12100
H 	H 	0.12560 0.23950 0.48150 -0.04800
C 	C 	0.18100 0.31550 0.41210 -0.22400
H 	H 	0.21450 0.32240 0.50280 0.10000
C 	C 	0.18450 0.35600 0.28980 0.15400
C 	C 	0.13160 0.34290 0.15950 -0.21300
H 	H 	0.13050 0.36930 0.07540 0.08800
C 	C 	0.08040 0.29070 0.15500 0.10400
H 	H 	0.04560 0.28260 0.06640 -0.05500
C 	C 	0.24530 0.40860 0.30430 -0.19400
H 	H 	0.24060 0.43950 0.38360 0.08200
H 	H 	0.29420 0.38670 0.33270 0.08100
C 	C 	0.24290 0.44890 0.16340 -0.14900
H 	H 	0.25000 0.41850 0.08480 0.06300
H 	H 	0.19360 0.46980 0.13250 0.05900
N 	N 	0.91580 0.10450 0.21840 -0.23100
N 	N 	0.57860 0.75100 0.27270 -0.25600
C 	C 	0.85370 0.11200 0.27630 0.09200
H 	H 	0.84900 0.15070 0.33080 -0.02000
C 	C 	0.79710 0.06380 0.25690 -0.19100
H 	H 	0.75360 0.07210 0.29260 0.08600
C 	C 	0.80400 0.00380 0.18550 0.13100
C 	C 	0.86730 0.99610 0.12620 -0.19300
H 	H 	0.87440 0.95670 0.07580 0.09700
C 	C 	0.91930 0.04690 0.14240 0.10600
H 	H 	0.96030 0.04130 0.09760 -0.00500
C 	C 	0.62750 0.76520 0.39780 0.12600
H 	H 	0.62560 0.73950 0.48150 -0.04100
C 	C 	0.68100 0.81550 0.41210 -0.22200
H 	H 	0.71450 0.82240 0.50280 0.10200
C 	C 	0.68450 0.85600 0.28980 0.15900
C 	C 	0.63160 0.84290 0.15950 -0.20900
H 	H 	0.63050 0.86930 0.07540 0.09500
C 	C 	0.58040 0.79070 0.15500 0.11100
H 	H 	0.54560 0.78260 0.06640 -0.03900
C 	C 	0.74530 0.90860 0.30430 -0.19600
H 	H 	0.74060 0.93950 0.38360 0.08500
H 	H 	0.79420 0.88670 0.33270 0.08600
C 	C 	0.74290 0.94890 0.16340 -0.15000
H 	H 	0.75000 0.91850 0.08480 0.06600
H 	H 	0.69360 0.96980 0.13250 0.06500
N 	N 	0.58420 0.60450 0.28160 -0.25000
N 	N 	0.92140 0.25100 0.22730 -0.23700
C 	C 	0.64630 0.61200 0.22370 0.09400
H 	H 	0.65100 0.65070 0.16920 -0.02500
C 	C 	0.70290 0.56380 0.24310 -0.20000
H 	H 	0.74640 0.57210 0.20740 0.09200
C 	C 	0.69600 0.50380 0.31450 0.14100
C 	C 	0.63270 0.49610 0.37380 -0.20700
H 	H 	0.62560 0.45670 0.42420 0.09300
C 	C 	0.58070 0.54690 0.35760 0.10700
H 	H 	0.53970 0.54130 0.40240 -0.03000
C 	C 	0.87250 0.26520 0.10220 0.12600
H 	H 	0.87440 0.23950 0.01850 -0.03000
C 	C 	0.81900 0.31550 0.08790 -0.20900
H 	H 	0.78550 0.32240 0.99720 0.09900
C 	C 	0.81550 0.35600 0.21020 0.15300
C 	C 	0.86840 0.34290 0.34050 -0.19900
H 	H 	0.86950 0.36930 0.42460 0.09900
C 	C 	0.91960 0.29070 0.34500 0.11300
H 	H 	0.95440 0.28260 0.43360 -0.01800
C 	C 	0.75470 0.40860 0.19570 -0.18300
H 	H 	0.75940 0.43950 0.11640 0.08400
H 	H 	0.70580 0.38670 0.16730 0.07800
C 	C 	0.75710 0.44890 0.33660 -0.16400
H 	H 	0.75000 0.41850 0.41520 0.07000
H 	H 	0.80640 0.46980 0.36750 0.07500
N 	N 	0.08420 0.10450 0.28160 -0.25800
N 	N 	0.42140 0.75100 0.22730 -0.25500
C 	C 	0.14630 0.11200 0.22370 0.08800
H 	H 	0.15100 0.15070 0.16920 -0.02800
C 	C 	0.20290 0.06380 0.24310 -0.19700
H 	H 	0.24640 0.07210 0.20740 0.08700
C 	C 	0.19600 0.00380 0.31450 0.13400
C 	C 	0.13270 0.99610 0.37380 -0.20700
H 	H 	0.12560 0.95670 0.42420 0.08600
C 	C 	0.08070 0.04690 0.35760 0.10000
H 	H 	0.03970 0.04130 0.40240 -0.04900
C 	C 	0.37250 0.76520 0.10220 0.12100
H 	H 	0.37440 0.73950 0.01850 -0.03900
C 	C 	0.31900 0.81550 0.08790 -0.21300
H 	H 	0.28550 0.82240 0.99720 0.09700
C 	C 	0.31550 0.85600 0.21020 0.15000
C 	C 	0.36840 0.84290 0.34050 -0.20500
H 	H 	0.36950 0.86930 0.42460 0.09300
C 	C 	0.41960 0.79070 0.34500 0.10700
H 	H 	0.45440 0.78260 0.43360 -0.03800
C 	C 	0.25470 0.90860 0.19570 -0.18600
H 	H 	0.25940 0.93950 0.11640 0.08200
H 	H 	0.20580 0.88670 0.16730 0.07600
C 	C 	0.25710 0.94890 0.33660 -0.15800
H 	H 	0.25000 0.91850 0.41520 0.06500
H 	H 	0.30640 0.96980 0.36750 0.06800
Cu	Cu	0.50000 0.67606 0.25000 0.84600
Cu	Cu	-0.00000 0.17606 0.25000 0.81700
