data_crystal

_cell_length_a 15.21400
_cell_length_b 15.21400
_cell_length_c 19.68600
_cell_angle_alpha 90.00000
_cell_angle_beta  90.00000
_cell_angle_gamma 120.00000

_symmetry_space_group_name_	'P 1'
_symmetry_space_group_name_H-M	'P 1'

loop_
_symmetry_equiv_pos_as_xyz
  x,y,z

loop_
_atom_site_label
_atom_site_type_symbol
_atom_site_fract_x
_atom_site_fract_y
_atom_site_fract_z
_atom_site_charge
C 	C 	0.75490 0.59960 0.25850 -0.10300
H 	H 	0.69070 0.57240 0.23920 0.07600
C 	C 	0.77340 0.54540 0.30780 0.04900
H 	H 	0.72160 0.48200 0.32150 0.02600
C 	C 	0.86950 0.58610 0.33650 -0.12700
C 	C 	0.94690 0.68080 0.31600 0.11200
C 	C 	0.92840 0.73500 0.26670 -0.11500
C 	C 	0.83240 0.69440 0.23800 0.04700
H 	H 	0.82000 0.73060 0.20500 0.03600
C 	C 	0.87300 0.51300 0.37800 0.35500
C 	C 	0.00600 0.82930 0.23380 0.37400
C 	C 	0.32920 0.96350 0.21900 0.11300
H 	H 	0.28540 0.93860 0.25600 0.00200
C 	C 	0.41870 0.96160 0.21980 -0.11300
H 	H 	0.43460 0.93410 0.25680 0.08800
C 	C 	0.93480 0.09040 0.99200 0.10400
H 	H 	0.99890 0.09680 0.99280 0.00500
C 	C 	0.88210 0.07150 0.05190 -0.14600
H 	H 	0.91300 0.07310 0.09300 0.11100
C 	C 	0.78020 0.04970 0.05020 0.07800
C 	C 	0.74920 0.06180 0.99060 -0.14300
H 	H 	0.68400 0.05220 0.98740 0.09400
C 	C 	0.80700 0.08760 0.93250 0.08900
H 	H 	0.78110 0.09650 0.89190 0.00800
C 	C 	0.72100 0.02270 0.11200 0.09700
N 	N 	0.89890 0.09980 0.93420 -0.22500
N 	N 	0.63560 0.02620 0.10930 -0.13600
O 	O 	0.09200 0.84650 0.23150 -0.37900
O 	O 	0.90800 0.55200 0.43000 -0.25300
O 	O 	0.85100 0.41800 0.38700 -0.29600
O 	O 	0.98230 0.88690 0.21300 -0.38800
H 	H 	0.41052 0.87951 0.56267 0.15200
C 	C 	0.40040 0.15530 0.92517 -0.12400
H 	H 	0.42760 0.11830 0.90587 0.07800
C 	C 	0.45460 0.22800 0.97447 0.05900
H 	H 	0.51800 0.23960 0.98817 0.02200
C 	C 	0.41390 0.28340 0.00317 -0.13500
C 	C 	0.31920 0.26610 0.98267 0.11100
C 	C 	0.26500 0.19340 0.93337 -0.15900
C 	C 	0.30560 0.13800 0.90467 0.07100
H 	H 	0.26940 0.08940 0.87167 0.01800
C 	C 	0.48700 0.36000 0.04467 0.35600
C 	C 	0.17070 0.17670 0.90047 0.43600
C 	C 	0.03650 0.36570 0.88567 0.08700
H 	H 	0.06140 0.34680 0.92267 0.00200
C 	C 	0.03840 0.45710 0.88647 -0.13500
H 	H 	0.06590 0.50050 0.92347 0.08900
C 	C 	0.90960 0.84440 0.65867 0.10300
H 	H 	0.90320 0.90210 0.65947 0.00500
C 	C 	0.92850 0.81060 0.71857 -0.13900
H 	H 	0.92690 0.83990 0.75967 0.11100
C 	C 	0.95030 0.73050 0.71687 0.07600
C 	C 	0.93820 0.68740 0.65727 -0.13800
H 	H 	0.94780 0.63180 0.65407 0.09700
C 	C 	0.91240 0.71940 0.59917 0.09000
H 	H 	0.90350 0.68460 0.55857 0.01000
C 	C 	0.97730 0.69830 0.77867 0.12100
N 	N 	0.90020 0.79910 0.60087 -0.22600
N 	N 	0.97380 0.60940 0.77597 -0.12600
O 	O 	0.15350 0.24550 0.89817 -0.40500
O 	O 	0.44800 0.35600 0.09667 -0.25800
O 	O 	0.58200 0.43300 0.05367 -0.29600
O 	O 	0.11310 0.09540 0.87967 -0.44800
H 	H 	0.12049 0.53101 0.22934 0.14800
C 	C 	0.84470 0.24510 0.59183 -0.13100
H 	H 	0.88170 0.30930 0.57253 0.08600
C 	C 	0.77200 0.22660 0.64113 0.06500
H 	H 	0.76040 0.27840 0.65483 0.01900
C 	C 	0.71660 0.13050 0.66983 -0.13900
C 	C 	0.73390 0.05310 0.64933 0.10700
C 	C 	0.80660 0.07160 0.60003 -0.18200
C 	C 	0.86200 0.16760 0.57133 0.08700
H 	H 	0.91060 0.18000 0.53833 0.02200
C 	C 	0.64000 0.12700 0.71133 0.35500
C 	C 	0.82330 0.99400 0.56713 0.48200
C 	C 	0.63430 0.67080 0.55233 0.09800
H 	H 	0.65320 0.71460 0.58933 0.00300
C 	C 	0.54290 0.58130 0.55313 -0.14700
H 	H 	0.49950 0.56540 0.59013 0.09400
C 	C 	0.15560 0.06520 0.32533 0.10000
H 	H 	0.09790 0.00110 0.32613 -0.01900
C 	C 	0.18940 0.11790 0.38523 -0.15300
H 	H 	0.16010 0.08700 0.42633 0.10100
C 	C 	0.26950 0.21980 0.38353 0.07700
C 	C 	0.31260 0.25080 0.32393 -0.14600
H 	H 	0.36820 0.31600 0.32073 0.09500
C 	C 	0.28060 0.19300 0.26583 0.08700
H 	H 	0.31540 0.21890 0.22523 0.00800
C 	C 	0.30170 0.27900 0.44533 0.09600
N 	N 	0.20090 0.10110 0.26753 -0.23500
N 	N 	0.39060 0.36440 0.44263 -0.13600
O 	O 	0.75450 0.90800 0.56483 -0.41000
O 	O 	0.64400 0.09200 0.76333 -0.26300
O 	O 	0.56700 0.14900 0.72033 -0.30100
O 	O 	0.90460 0.01770 0.54633 -0.45300
H 	H 	0.46899 0.58948 0.89601 0.15200
C 	C 	0.59960 0.75490 0.74150 -0.10400
H 	H 	0.57240 0.69070 0.76080 0.07500
C 	C 	0.54540 0.77340 0.69220 0.04800
H 	H 	0.48200 0.72160 0.67850 0.02500
C 	C 	0.58610 0.86950 0.66350 -0.12700
C 	C 	0.68080 0.94690 0.68400 0.11200
C 	C 	0.73500 0.92840 0.73330 -0.11500
C 	C 	0.69440 0.83240 0.76200 0.04700
H 	H 	0.73060 0.82000 0.79500 0.03600
C 	C 	0.51300 0.87300 0.62200 0.35500
C 	C 	0.82930 0.00600 0.76620 0.37400
C 	C 	0.96350 0.32920 0.78100 0.11300
H 	H 	0.93860 0.28540 0.74400 0.00200
C 	C 	0.96160 0.41870 0.78020 -0.11300
H 	H 	0.93410 0.43460 0.74320 0.08800
C 	C 	0.09040 0.93480 0.00800 0.10400
H 	H 	0.09680 0.99890 0.00720 0.00500
C 	C 	0.07150 0.88210 0.94810 -0.14600
H 	H 	0.07310 0.91300 0.90700 0.11100
C 	C 	0.04970 0.78020 0.94980 0.07800
C 	C 	0.06180 0.74920 0.00940 -0.14300
H 	H 	0.05220 0.68400 0.01260 0.09400
C 	C 	0.08760 0.80700 0.06750 0.08900
H 	H 	0.09650 0.78110 0.10810 0.00800
C 	C 	0.02270 0.72100 0.88800 0.09700
N 	N 	0.09980 0.89890 0.06580 -0.22500
N 	N 	0.02620 0.63560 0.89070 -0.13600
O 	O 	0.84650 0.09200 0.76850 -0.37900
O 	O 	0.55200 0.90800 0.57000 -0.25300
O 	O 	0.41800 0.85100 0.61300 -0.29600
O 	O 	0.88690 0.98230 0.78700 -0.38800
H 	H 	0.87951 0.41052 0.43733 0.15200
C 	C 	0.15530 0.40040 0.07483 -0.12400
H 	H 	0.11830 0.42760 0.09413 0.07800
C 	C 	0.22800 0.45460 0.02553 0.05900
H 	H 	0.23960 0.51800 0.01183 0.02200
C 	C 	0.28340 0.41390 0.99683 -0.13500
C 	C 	0.26610 0.31920 0.01733 0.11100
C 	C 	0.19340 0.26500 0.06663 -0.15900
C 	C 	0.13800 0.30560 0.09533 0.07100
H 	H 	0.08940 0.26940 0.12833 0.01800
C 	C 	0.36000 0.48700 0.95533 0.35600
C 	C 	0.17670 0.17070 0.09953 0.43600
C 	C 	0.36570 0.03650 0.11433 0.08700
H 	H 	0.34680 0.06140 0.07733 0.00200
C 	C 	0.45710 0.03840 0.11353 -0.13500
H 	H 	0.50050 0.06590 0.07653 0.08900
C 	C 	0.84440 0.90960 0.34133 0.10300
H 	H 	0.90210 0.90320 0.34053 0.00500
C 	C 	0.81060 0.92850 0.28143 -0.13900
H 	H 	0.83990 0.92690 0.24033 0.11100
C 	C 	0.73050 0.95030 0.28313 0.07600
C 	C 	0.68740 0.93820 0.34273 -0.13800
H 	H 	0.63180 0.94780 0.34593 0.09700
C 	C 	0.71940 0.91240 0.40083 0.09000
H 	H 	0.68460 0.90350 0.44143 0.01000
C 	C 	0.69830 0.97730 0.22133 0.12100
N 	N 	0.79910 0.90020 0.39913 -0.22600
N 	N 	0.60940 0.97380 0.22403 -0.12600
O 	O 	0.24550 0.15350 0.10183 -0.40500
O 	O 	0.35600 0.44800 0.90333 -0.25800
O 	O 	0.43300 0.58200 0.94633 -0.29600
O 	O 	0.09540 0.11310 0.12033 -0.44800
H 	H 	0.53101 0.12049 0.77066 0.14800
C 	C 	0.24510 0.84470 0.40817 -0.13100
H 	H 	0.30930 0.88170 0.42747 0.08600
C 	C 	0.22660 0.77200 0.35887 0.06500
H 	H 	0.27840 0.76040 0.34517 0.01900
C 	C 	0.13050 0.71660 0.33017 -0.13900
C 	C 	0.05310 0.73390 0.35067 0.10700
C 	C 	0.07160 0.80660 0.39997 -0.18200
C 	C 	0.16760 0.86200 0.42867 0.08700
H 	H 	0.18000 0.91060 0.46167 0.02200
C 	C 	0.12700 0.64000 0.28867 0.35500
C 	C 	0.99400 0.82330 0.43287 0.48200
C 	C 	0.67080 0.63430 0.44767 0.09800
H 	H 	0.71460 0.65320 0.41067 0.00300
C 	C 	0.58130 0.54290 0.44687 -0.14700
H 	H 	0.56540 0.49950 0.40987 0.09400
C 	C 	0.06520 0.15560 0.67467 0.10000
H 	H 	0.00110 0.09790 0.67387 -0.01900
C 	C 	0.11790 0.18940 0.61477 -0.15300
H 	H 	0.08700 0.16010 0.57367 0.10100
C 	C 	0.21980 0.26950 0.61647 0.07700
C 	C 	0.25080 0.31260 0.67607 -0.14600
H 	H 	0.31600 0.36820 0.67927 0.09500
C 	C 	0.19300 0.28060 0.73417 0.08700
H 	H 	0.21890 0.31540 0.77477 0.00800
C 	C 	0.27900 0.30170 0.55467 0.09600
N 	N 	0.10110 0.20090 0.73247 -0.23500
N 	N 	0.36440 0.39060 0.55737 -0.13600
O 	O 	0.90800 0.75450 0.43517 -0.41000
O 	O 	0.09200 0.64400 0.23667 -0.26300
O 	O 	0.14900 0.56700 0.27967 -0.30100
O 	O 	0.01770 0.90460 0.45367 -0.45300
H 	H 	0.58948 0.46899 0.10399 0.15200
C 	C 	0.58050 0.00000 0.16667 0.08500
C 	C 	0.48340 0.00000 0.16667 0.05200
Cd	Cd	0.14365 0.00000 0.16667 1.21100
N 	N 	0.30550 0.00000 0.16667 -0.23300
N 	N 	0.75670 0.00000 0.16667 -0.14800
C 	C 	-0.00000 0.58050 0.83333 0.08500
C 	C 	-0.00000 0.48340 0.83333 0.05200
Cd	Cd	-0.00000 0.14365 0.83333 1.21100
N 	N 	-0.00000 0.30550 0.83333 -0.23300
N 	N 	-0.00000 0.75670 0.83333 -0.14800
C 	C 	0.41950 0.41950 0.50000 0.09300
C 	C 	0.51660 0.51660 0.50000 0.08400
Cd	Cd	0.85635 0.85635 0.50000 1.22600
N 	N 	0.69450 0.69450 0.50000 -0.21900
N 	N 	0.24330 0.24330 0.50000 -0.13800
