data_crystal

_cell_length_a 8.91140
_cell_length_b 11.39000
_cell_length_c 13.21370
_cell_angle_alpha 115.53000
_cell_angle_beta  92.99550
_cell_angle_gamma 90.00000

_symmetry_space_group_name_	'P 1'
_symmetry_space_group_name_H-M	'P 1'

loop_
_symmetry_equiv_pos_as_xyz
  x,y,z

loop_
_atom_site_label
_atom_site_type_symbol
_atom_site_fract_x
_atom_site_fract_y
_atom_site_fract_z
_atom_site_charge
Cu	Cu	-0.00000 0.00000 -0.00000 0.80800
Cu	Cu	0.62777 0.03032 0.06064 0.87800
Cu	Cu	0.37223 0.96968 0.93936 0.95000
H 	H 	0.95070 0.15460 0.44700 0.03400
H 	H 	0.75580 0.66170 0.76660 0.19000
H 	H 	0.68180 0.59710 0.83580 0.18800
H 	H 	0.45600 0.56170 0.70940 0.03200
H 	H 	0.55990 0.59540 0.63260 0.02800
H 	H 	0.75010 0.08580 0.30880 0.19100
H 	H 	0.04930 0.70760 0.55300 0.01500
H 	H 	0.24420 0.89510 0.23340 0.17300
H 	H 	0.31820 0.76130 0.16420 0.15800
H 	H 	0.54400 0.85230 0.29060 0.04800
H 	H 	0.44010 0.96280 0.36740 0.04700
H 	H 	0.24990 0.77700 0.69120 0.18900
H 	H 	0.04930 0.84540 0.55300 0.02200
H 	H 	0.24420 0.33830 0.23340 0.16300
H 	H 	0.31820 0.40290 0.16420 0.16000
H 	H 	0.54400 0.43830 0.29060 0.03700
H 	H 	0.44010 0.40460 0.36740 0.02600
H 	H 	0.24990 0.91420 0.69120 0.19900
H 	H 	0.95070 0.29240 0.44700 0.04200
H 	H 	0.75580 0.10490 0.76660 0.18300
H 	H 	0.68180 0.23870 0.83580 0.19100
H 	H 	0.45600 0.14770 0.70940 0.02200
H 	H 	0.55990 0.03720 0.63260 0.00900
H 	H 	0.75010 0.22300 0.30880 0.20300
C 	C 	0.59360 0.77580 0.86660 0.44300
C 	C 	0.66090 0.64520 0.79160 -0.42000
C 	C 	0.55860 0.56030 0.68760 0.12100
C 	C 	0.71830 0.38740 0.55860 0.27100
C 	C 	0.40640 0.90920 0.13340 0.43700
C 	C 	0.33910 0.85360 0.20840 -0.39600
C 	C 	0.44140 0.87270 0.31240 0.09800
C 	C 	0.28170 0.82880 0.44140 0.26900
C 	C 	0.40640 0.22420 0.13340 0.43900
C 	C 	0.33910 0.35480 0.20840 -0.40700
C 	C 	0.44140 0.43970 0.31240 0.11000
C 	C 	0.28170 0.61260 0.44140 0.27000
C 	C 	0.59360 0.09080 0.86660 0.44400
C 	C 	0.66090 0.14640 0.79160 -0.42900
C 	C 	0.55860 0.12730 0.68760 0.13200
C 	C 	0.71830 0.17120 0.55860 0.27200
C 	C 	0.92570 0.11260 0.22520 0.49600
C 	C 	0.81210 0.15850 0.31700 -0.48300
C 	C 	0.88750 0.21810 0.43620 0.13400
C 	C 	0.55920 0.34190 0.68380 0.25800
C 	C 	0.07430 0.88740 0.77480 0.34500
C 	C 	0.18790 0.84150 0.68300 -0.43000
C 	C 	0.11250 0.78190 0.56380 0.12400
C 	C 	0.44080 0.65810 0.31620 0.25900
N 	N 	0.61110 0.42340 0.63700 -0.19300
N 	N 	0.38890 0.78640 0.36300 -0.18800
N 	N 	0.38890 0.57660 0.36300 -0.19200
N 	N 	0.61110 0.21360 0.63700 -0.19700
N 	N 	0.76960 0.26090 0.52180 -0.19500
N 	N 	0.23040 0.73910 0.47820 -0.19600
O 	O 	0.67740 0.85260 0.95020 -0.39200
O 	O 	0.46100 0.79907 0.84514 -0.40200
O 	O 	0.76370 0.46290 0.52220 -0.21800
O 	O 	0.32260 0.90240 0.04980 -0.45200
O 	O 	0.53900 0.95393 0.15486 -0.39300
O 	O 	0.23630 0.94070 0.47780 -0.22000
O 	O 	0.32260 0.14740 0.04980 -0.49200
O 	O 	0.53900 0.20093 0.15486 -0.43200
O 	O 	0.23630 0.53710 0.47780 -0.24200
O 	O 	0.67740 0.09760 0.95020 -0.41800
O 	O 	0.46100 0.04607 0.84514 -0.43000
O 	O 	0.76370 0.05930 0.52220 -0.23900
O 	O 	0.86290 0.06150 0.12300 -0.52100
O 	O 	0.06340 0.12270 0.24540 -0.39800
O 	O 	0.47170 0.38020 0.76040 -0.22600
O 	O 	0.13710 0.93850 0.87700 -0.44800
O 	O 	0.93660 0.87730 0.75460 -0.23000
O 	O 	0.52830 0.61980 0.23960 -0.22900
