data_crystal

_cell_length_a 11.70900
_cell_length_b 12.62600
_cell_length_c 13.19490
_cell_angle_alpha 103.48200
_cell_angle_beta  116.34000
_cell_angle_gamma 90.00000

_symmetry_space_group_name_	'P 1'
_symmetry_space_group_name_H-M	'P 1'

loop_
_symmetry_equiv_pos_as_xyz
  x,y,z

loop_
_atom_site_label
_atom_site_type_symbol
_atom_site_fract_x
_atom_site_fract_y
_atom_site_fract_z
_atom_site_charge
Cu	Cu	0.98647 0.09456 0.97294 0.96300
Cu	Cu	0.01353 0.90544 0.02706 0.89800
Cu	Cu	-0.00000 0.50000 -0.00000 0.83700
H 	H 	0.93250 0.15690 0.73100 0.21600
H 	H 	0.75350 0.30150 0.64100 0.00600
H 	H 	0.82340 0.95620 0.24840 0.03200
H 	H 	0.94580 0.02410 0.35820 0.02900
H 	H 	0.91170 0.17640 0.28760 0.19100
H 	H 	0.77590 0.12300 0.18780 0.18100
H 	H 	0.20150 0.84310 0.26900 0.20600
H 	H 	0.11250 0.69850 0.35900 -0.00700
H 	H 	0.57500 0.04380 0.75160 0.02000
H 	H 	0.58760 0.97590 0.64180 0.01400
H 	H 	0.62410 0.82360 0.71240 0.19700
H 	H 	0.58810 0.87700 0.81220 0.20100
H 	H 	0.06750 0.84310 0.26900 0.19500
H 	H 	0.24650 0.69850 0.35900 -0.00300
H 	H 	0.17660 0.04380 0.75160 0.02200
H 	H 	0.05420 0.97590 0.64180 0.00200
H 	H 	0.08830 0.82360 0.71240 0.18600
H 	H 	0.22410 0.87700 0.81220 0.19800
H 	H 	0.79850 0.15690 0.73100 0.20900
H 	H 	0.88750 0.30150 0.64100 0.01000
H 	H 	0.42500 0.95620 0.24840 0.01400
H 	H 	0.41240 0.02410 0.35820 0.01000
H 	H 	0.37590 0.17640 0.28760 0.18900
H 	H 	0.41190 0.12300 0.18780 0.18700
C 	C 	0.84069 0.13640 0.47218 0.28900
C 	C 	0.85910 0.02870 0.30100 0.13700
C 	C 	0.86280 0.10790 0.23260 -0.45100
C 	C 	0.92008 0.06950 0.14996 0.46900
C 	C 	0.36851 0.86360 0.52782 0.28900
C 	C 	0.55810 0.97130 0.69900 0.16500
C 	C 	0.63020 0.89210 0.76740 -0.47200
C 	C 	0.77012 0.93050 0.85004 0.49000
C 	C 	0.15931 0.86360 0.52782 0.29000
C 	C 	0.14090 0.97130 0.69900 0.15700
C 	C 	0.13720 0.89210 0.76740 -0.46700
C 	C 	0.07992 0.93050 0.85004 0.47500
C 	C 	0.63149 0.13640 0.47218 0.29000
C 	C 	0.44190 0.02870 0.30100 0.16600
C 	C 	0.36980 0.10790 0.23260 -0.47700
C 	C 	0.22988 0.06950 0.14996 0.49100
C 	C 	0.92700 0.28670 0.85400 0.48100
C 	C 	0.86830 0.20330 0.73660 -0.50500
C 	C 	0.81810 0.25540 0.63620 0.18600
C 	C 	0.65140 0.02910 0.30280 0.29000
C 	C 	0.07300 0.71330 0.14600 0.48500
C 	C 	0.13170 0.79670 0.26340 -0.51300
C 	C 	0.18190 0.74460 0.36380 0.19400
C 	C 	0.34860 0.97090 0.69720 0.28700
N 	N 	0.78083 0.06480 0.36166 -0.20700
N 	N 	0.41917 0.93520 0.63834 -0.21100
N 	N 	0.21917 0.93520 0.63834 -0.21200
N 	N 	0.58083 0.06480 0.36166 -0.21200
N 	N 	0.76150 0.17120 0.52300 -0.21300
N 	N 	0.23850 0.82880 0.47700 -0.21700
O 	O 	0.95071 0.97420 0.14022 -0.40700
O 	O 	0.92967 0.13340 0.09554 -0.43900
O 	O 	0.95364 0.16620 0.52028 -0.23500
O 	O 	0.81049 0.02580 0.85978 -0.42400
O 	O 	0.83413 0.86660 0.90446 -0.39800
O 	O 	0.43336 0.83380 0.47972 -0.24900
O 	O 	0.04929 0.02580 0.85978 -0.43300
O 	O 	0.07033 0.86660 0.90446 -0.41800
O 	O 	0.04636 0.83380 0.47972 -0.26600
O 	O 	0.18951 0.97420 0.14022 -0.45400
O 	O 	0.16587 0.13340 0.09554 -0.47500
O 	O 	0.56664 0.16620 0.52028 -0.25000
O 	O 	0.97289 0.25260 0.94578 -0.38000
O 	O 	0.92820 0.38560 0.85640 -0.43000
O 	O 	0.60230 0.97240 0.20460 -0.25200
O 	O 	0.02711 0.74740 0.05422 -0.44600
O 	O 	0.07180 0.61440 0.14360 -0.48500
O 	O 	0.39770 0.02760 0.79540 -0.23600
