data_crystal

_cell_length_a 13.31200
_cell_length_b 7.31600
_cell_length_c 14.87000
_cell_angle_alpha 90.00000
_cell_angle_beta  91.31500
_cell_angle_gamma 90.00000

_symmetry_space_group_name_	'P 1'
_symmetry_space_group_name_H-M	'P 1'

loop_
_symmetry_equiv_pos_as_xyz
  x,y,z

loop_
_atom_site_label
_atom_site_type_symbol
_atom_site_fract_x
_atom_site_fract_y
_atom_site_fract_z
_atom_site_charge
Cd	Cd	0.97959 0.18386 0.18541 1.19200
N 	N 	0.10050 0.79560 0.38720 -0.15400
O 	O 	0.52900 0.60060 0.58210 -0.43200
C 	C 	0.21760 0.32250 0.39720 -0.10100
H 	H 	0.20880 0.20820 0.37080 0.06800
C 	C 	0.37010 0.14660 0.57560 0.51700
C 	C 	0.16620 0.63700 0.40830 0.07600
O 	O 	0.93180 0.41070 0.28800 -0.42200
N 	N 	0.02410 0.99670 0.29970 -0.28300
O 	O 	0.65070 0.75800 0.64300 -0.39900
N 	N 	0.43040 0.00250 0.56960 -0.32700
C 	C 	0.30780 0.52980 0.50310 -0.09900
H 	H 	0.35990 0.55000 0.54470 0.05200
N 	N 	0.35210 0.21330 0.49190 -0.21800
C 	C 	0.72180 0.30360 0.40640 -0.02900
H 	H 	0.68610 0.21440 0.36950 0.03100
H 	H 	0.77480 0.24030 0.43960 0.02800
C 	C 	0.83720 0.36500 0.28470 0.32400
C 	C 	0.69640 0.55030 0.52530 -0.08800
H 	H 	0.75520 0.51030 0.56090 0.05200
C 	C 	0.24170 0.65900 0.47640 -0.05900
H 	H 	0.24580 0.77250 0.50480 0.05100
C 	C 	0.04480 0.88400 0.43470 -0.03800
H 	H 	0.03500 0.85960 0.49530 0.05900
C 	C 	0.15740 0.47100 0.37420 -0.07300
H 	H 	0.10660 0.45170 0.33120 0.06600
C 	C 	0.32780 0.21450 0.65030 -1.28700
H 	H 	0.25670 0.19240 0.64770 0.40800
H 	H 	0.35660 0.15550 0.70250 0.37700
H 	H 	0.34000 0.34360 0.65390 0.40900
C 	C 	0.28860 0.35500 0.45940 0.11400
C 	C 	0.45990 0.97700 0.48430 0.02000
H 	H 	0.50660 0.89080 0.46610 0.00900
C 	C 	0.40930 0.10060 0.42740 -0.02900
H 	H 	0.41100 0.10980 0.36510 0.03700
C 	C 	0.76860 0.45030 0.34520 -0.17700
H 	H 	0.71350 0.49970 0.30780 0.07900
C 	C 	0.81260 0.60880 0.39650 -0.02300
H 	H 	0.83650 0.70100 0.35530 0.01500
H 	H 	0.86890 0.56840 0.43410 0.03400
C 	C 	0.00020 0.01800 0.38970 0.13000
H 	H 	0.96040 0.10970 0.41360 -0.07200
C 	C 	0.08770 0.86200 0.30180 0.27000
C 	C 	0.61440 0.63900 0.58920 0.32400
C 	C 	0.13200 0.77400 0.21550 -0.76800
H 	H 	0.15480 0.86820 0.17600 0.24400
H 	H 	0.08160 0.70170 0.18530 0.26200
H 	H 	0.18810 0.69670 0.23240 0.25500
C 	C 	0.65120 0.38700 0.47080 -0.11000
H 	H 	0.63000 0.29350 0.51260 0.05000
H 	H 	0.59190 0.42870 0.43770 0.07000
O 	O 	0.81290 0.24900 0.22730 -0.42000
C 	C 	0.72660 0.69060 0.45690 -0.11000
H 	H 	0.75060 0.80000 0.48730 0.05300
H 	H 	0.66890 0.72340 0.41930 0.05700
Cd	Cd	0.47959 0.81614 0.68541 1.21300
N 	N 	0.60050 0.20440 0.88720 -0.17000
O 	O 	0.02900 0.39940 0.08210 -0.40000
C 	C 	0.71760 0.67750 0.89720 -0.14900
H 	H 	0.70880 0.79180 0.87080 0.08100
C 	C 	0.87010 0.85340 0.07560 0.46800
C 	C 	0.66620 0.36300 0.90830 0.03100
O 	O 	0.43180 0.58930 0.78800 -0.38900
N 	N 	0.52410 0.00330 0.79970 -0.27600
O 	O 	0.15070 0.24200 0.14300 -0.38700
N 	N 	0.93040 0.99750 0.06960 -0.31400
C 	C 	0.80780 0.47020 0.00310 -0.17900
H 	H 	0.85990 0.45000 0.04470 0.06500
N 	N 	0.85210 0.78670 0.99190 -0.21900
C 	C 	0.22180 0.69640 0.90640 -0.06100
H 	H 	0.18610 0.78560 0.86950 0.05000
H 	H 	0.27480 0.75970 0.93960 0.04400
C 	C 	0.33720 0.63500 0.78470 0.30800
C 	C 	0.19640 0.44970 0.02530 -0.11500
H 	H 	0.25520 0.48970 0.06090 0.06300
C 	C 	0.74170 0.34100 0.97640 0.01900
H 	H 	0.74580 0.22750 0.00480 0.01200
C 	C 	0.54480 0.11600 0.93470 0.05000
H 	H 	0.53500 0.14040 0.99530 0.01200
C 	C 	0.65740 0.52900 0.87420 -0.03300
H 	H 	0.60660 0.54830 0.83120 0.03900
C 	C 	0.82780 0.78550 0.15030 -1.20100
H 	H 	0.75670 0.80760 0.14770 0.37700
H 	H 	0.85660 0.84450 0.20250 0.34000
H 	H 	0.84000 0.65640 0.15390 0.37400
C 	C 	0.78860 0.64500 0.95940 0.15200
C 	C 	0.95990 0.02300 0.98430 -0.11300
H 	H 	0.00660 0.10920 0.96610 0.09800
C 	C 	0.90930 0.89940 0.92740 0.02200
H 	H 	0.91100 0.89020 0.86510 0.00400
C 	C 	0.26860 0.54970 0.84520 -0.14700
H 	H 	0.21350 0.50030 0.80780 0.07700
C 	C 	0.31260 0.39120 0.89650 -0.05700
H 	H 	0.33650 0.29900 0.85530 0.03500
H 	H 	0.36890 0.43160 0.93410 0.05800
C 	C 	0.50020 0.98200 0.88970 -0.04500
H 	H 	0.46040 0.89030 0.91360 0.03400
C 	C 	0.58770 0.13800 0.80180 0.25400
C 	C 	0.11440 0.36100 0.08920 0.32300
C 	C 	0.63200 0.22600 0.71550 -0.74100
H 	H 	0.65480 0.13180 0.67600 0.22800
H 	H 	0.58160 0.29830 0.68530 0.23900
H 	H 	0.68810 0.30330 0.73240 0.24300
C 	C 	0.15120 0.61300 0.97080 -0.07300
H 	H 	0.13000 0.70650 0.01260 0.04500
H 	H 	0.09190 0.57130 0.93770 0.07400
O 	O 	0.31290 0.75100 0.72730 -0.40500
C 	C 	0.22660 0.30940 0.95690 -0.07900
H 	H 	0.25060 0.20000 0.98730 0.05300
H 	H 	0.16890 0.27660 0.91930 0.05300
