data_crystal

_cell_length_a 25.46140
_cell_length_b 25.46140
_cell_length_c 14.26280
_cell_angle_alpha 90.00000
_cell_angle_beta  90.00000
_cell_angle_gamma 120.00000

_symmetry_space_group_name_	'P 1'
_symmetry_space_group_name_H-M	'P 1'

loop_
_symmetry_equiv_pos_as_xyz
  x,y,z

loop_
_atom_site_label
_atom_site_type_symbol
_atom_site_fract_x
_atom_site_fract_y
_atom_site_fract_z
_atom_site_charge
Mn	Mn	0.08062 0.40207 0.18801 1.23200
O 	O 	0.06808 0.41727 0.33383 -0.45800
N 	N 	0.09096 0.49346 0.19080 -0.22800
O 	O 	0.05910 0.47636 0.43680 -0.45700
C 	C 	0.09470 0.53713 0.13320 0.06000
C 	C 	0.11440 0.54213 0.03450 0.09300
C 	C 	0.06550 0.46400 0.35420 0.34000
C 	C 	0.07294 0.50515 0.27550 -0.07400
C 	C 	0.15080 0.54770 0.84930 -0.35500
H 	H 	0.16340 0.55030 0.78740 0.14000
C 	C 	0.08680 0.55750 0.96340 -0.30200
H 	H 	0.05640 0.56620 0.97810 0.11100
C 	C 	0.10470 0.55990 0.87150 0.36400
C 	C 	0.17730 0.53200 0.91780 0.19200
H 	H 	0.20770 0.52330 0.90270 -0.04400
C 	C 	0.15910 0.52890 0.01150 -0.22200
H 	H 	0.17730 0.51790 0.05820 0.08800
C 	C 	0.06606 0.55569 0.26510 -0.08400
O 	O 	0.03220 0.57486 0.41080 -0.47300
C 	C 	0.04770 0.58981 0.32790 0.34600
O 	O 	0.08100 0.57520 0.80000 -0.48800
H 	H 	0.07940 0.55570 0.75330 0.23300
O 	O 	0.04729 0.63524 0.29160 -0.47000
N 	N 	0.08010 0.57557 0.17390 -0.23200
Mn	Mn	0.74729 0.73540 0.52134 1.23400
O 	O 	0.73475 0.75060 0.66716 -0.45300
N 	N 	0.75763 0.82679 0.52413 -0.22700
O 	O 	0.72577 0.80969 0.77013 -0.45100
C 	C 	0.76137 0.87046 0.46653 0.06400
C 	C 	0.78107 0.87546 0.36783 0.10000
C 	C 	0.73217 0.79733 0.68753 0.34100
C 	C 	0.73961 0.83848 0.60883 -0.07100
C 	C 	0.81747 0.88103 0.18263 -0.35300
H 	H 	0.83007 0.88363 0.12073 0.14400
C 	C 	0.75347 0.89083 0.29673 -0.30400
H 	H 	0.72307 0.89953 0.31143 0.11800
C 	C 	0.77137 0.89323 0.20483 0.36900
C 	C 	0.84397 0.86533 0.25113 0.19300
H 	H 	0.87437 0.85663 0.23603 -0.04000
C 	C 	0.82577 0.86223 0.34483 -0.21800
H 	H 	0.84397 0.85123 0.39153 0.09000
C 	C 	0.73273 0.88902 0.59843 -0.07800
O 	O 	0.69887 0.90819 0.74413 -0.46300
C 	C 	0.71437 0.92314 0.66123 0.34600
O 	O 	0.74767 0.90853 0.13333 -0.48100
H 	H 	0.74607 0.88903 0.08663 0.23600
O 	O 	0.71396 0.96857 0.62493 -0.45500
N 	N 	0.74677 0.90890 0.50723 -0.22800
Mn	Mn	0.41395 0.06874 0.85468 1.23100
O 	O 	0.40141 0.08394 0.00050 -0.45700
N 	N 	0.42429 0.16013 0.85747 -0.22700
O 	O 	0.39243 0.14303 0.10347 -0.45400
C 	C 	0.42803 0.20380 0.79987 0.06100
C 	C 	0.44773 0.20880 0.70117 0.09700
C 	C 	0.39883 0.13067 0.02087 0.34200
C 	C 	0.40627 0.17182 0.94217 -0.07400
C 	C 	0.48413 0.21437 0.51597 -0.35500
H 	H 	0.49673 0.21697 0.45407 0.14000
C 	C 	0.42013 0.22417 0.63007 -0.30500
H 	H 	0.38973 0.23287 0.64477 0.11500
C 	C 	0.43803 0.22657 0.53817 0.36700
C 	C 	0.51063 0.19867 0.58447 0.19100
H 	H 	0.54103 0.18997 0.56937 -0.04400
C 	C 	0.49243 0.19557 0.67817 -0.22000
H 	H 	0.51063 0.18457 0.72487 0.08800
C 	C 	0.39939 0.22236 0.93177 -0.08000
O 	O 	0.36553 0.24153 0.07747 -0.46700
C 	C 	0.38103 0.25648 0.99457 0.34400
O 	O 	0.41433 0.24187 0.46667 -0.48500
H 	H 	0.41273 0.22237 0.41997 0.23600
O 	O 	0.38062 0.30191 0.95827 -0.46400
N 	N 	0.41343 0.24224 0.84057 -0.23100
Mn	Mn	0.59793 0.67855 0.18801 1.23400
O 	O 	0.58273 0.65081 0.33383 -0.45300
N 	N 	0.50654 0.59750 0.19080 -0.22700
O 	O 	0.52364 0.58274 0.43680 -0.45200
C 	C 	0.46287 0.55757 0.13320 0.06100
C 	C 	0.45787 0.57227 0.03450 0.09800
C 	C 	0.53600 0.60150 0.35420 0.34100
C 	C 	0.49485 0.56779 0.27550 -0.07200
C 	C 	0.45230 0.60310 0.84930 -0.35500
H 	H 	0.44970 0.61310 0.78740 0.14100
C 	C 	0.44250 0.52930 0.96340 -0.30500
H 	H 	0.43380 0.49020 0.97810 0.11500
C 	C 	0.44010 0.54480 0.87150 0.36700
C 	C 	0.46800 0.64530 0.91780 0.19300
H 	H 	0.47670 0.68440 0.90270 -0.04400
C 	C 	0.47110 0.63020 0.01150 -0.22200
H 	H 	0.48210 0.65940 0.05820 0.08800
C 	C 	0.44431 0.51037 0.26510 -0.08100
O 	O 	0.42514 0.45734 0.41080 -0.46700
C 	C 	0.41019 0.45789 0.32790 0.34600
O 	O 	0.42480 0.50580 0.80000 -0.48600
H 	H 	0.44430 0.52370 0.75330 0.23600
O 	O 	0.36476 0.41205 0.29160 -0.46400
N 	N 	0.42443 0.50453 0.17390 -0.23100
Mn	Mn	0.26460 0.01188 0.52134 1.22600
O 	O 	0.24940 0.98414 0.66716 -0.44100
N 	N 	0.17321 0.93083 0.52413 -0.22200
O 	O 	0.19031 0.91607 0.77013 -0.44700
C 	C 	0.12954 0.89090 0.46653 0.05300
C 	C 	0.12454 0.90560 0.36783 0.12400
C 	C 	0.20267 0.93483 0.68753 0.33900
C 	C 	0.16152 0.90112 0.60883 -0.06900
C 	C 	0.11897 0.93643 0.18263 -0.40500
H 	H 	0.11637 0.94643 0.12073 0.16000
C 	C 	0.10917 0.86263 0.29673 -0.33200
H 	H 	0.10047 0.82353 0.31143 0.12100
C 	C 	0.10677 0.87813 0.20483 0.39400
C 	C 	0.13467 0.97863 0.25113 0.26900
H 	H 	0.14337 0.01773 0.23603 -0.08500
C 	C 	0.13777 0.96353 0.34483 -0.26600
H 	H 	0.14877 0.99273 0.39153 0.11000
C 	C 	0.11098 0.84370 0.59843 -0.08300
O 	O 	0.09181 0.79067 0.74413 -0.47000
C 	C 	0.07686 0.79122 0.66123 0.34600
O 	O 	0.09147 0.83913 0.13333 -0.50000
H 	H 	0.11097 0.85703 0.08663 0.24000
O 	O 	0.03143 0.74538 0.62493 -0.47200
N 	N 	0.09110 0.83786 0.50723 -0.23100
Mn	Mn	0.93126 0.34522 0.85468 1.23600
O 	O 	0.91606 0.31748 0.00050 -0.44800
N 	N 	0.83987 0.26417 0.85747 -0.22700
O 	O 	0.85697 0.24941 0.10347 -0.45000
C 	C 	0.79620 0.22424 0.79987 0.06200
C 	C 	0.79120 0.23894 0.70117 0.09700
C 	C 	0.86933 0.26817 0.02087 0.34300
C 	C 	0.82818 0.23446 0.94217 -0.07500
C 	C 	0.78563 0.26977 0.51597 -0.35400
H 	H 	0.78303 0.27977 0.45407 0.14100
C 	C 	0.77583 0.19597 0.63007 -0.30400
H 	H 	0.76713 0.15687 0.64477 0.11400
C 	C 	0.77343 0.21147 0.53817 0.36700
C 	C 	0.80133 0.31197 0.58447 0.19100
H 	H 	0.81003 0.35107 0.56937 -0.04300
C 	C 	0.80443 0.29687 0.67817 -0.21900
H 	H 	0.81543 0.32607 0.72487 0.08800
C 	C 	0.77764 0.17704 0.93177 -0.08000
O 	O 	0.75847 0.12401 0.07747 -0.46700
C 	C 	0.74352 0.12456 0.99457 0.34200
O 	O 	0.75813 0.17247 0.46667 -0.48700
H 	H 	0.77763 0.19037 0.41997 0.23600
O 	O 	0.69809 0.07872 0.95827 -0.47000
N 	N 	0.75776 0.17120 0.84057 -0.23100
Mn	Mn	0.32145 0.91938 0.18801 1.23600
O 	O 	0.34919 0.93192 0.33383 -0.44800
N 	N 	0.40250 0.90904 0.19080 -0.22600
O 	O 	0.41726 0.94090 0.43680 -0.44400
C 	C 	0.44243 0.90530 0.13320 0.06300
C 	C 	0.42773 0.88560 0.03450 0.09800
C 	C 	0.39850 0.93450 0.35420 0.34100
C 	C 	0.43221 0.92706 0.27550 -0.06900
C 	C 	0.39690 0.84920 0.84930 -0.35700
H 	H 	0.38690 0.83660 0.78740 0.14300
C 	C 	0.47070 0.91320 0.96340 -0.30300
H 	H 	0.50980 0.94360 0.97810 0.11900
C 	C 	0.45520 0.89530 0.87150 0.37100
C 	C 	0.35470 0.82270 0.91780 0.19800
H 	H 	0.31560 0.79230 0.90270 -0.04500
C 	C 	0.36980 0.84090 0.01150 -0.22500
H 	H 	0.34060 0.82270 0.05820 0.08900
C 	C 	0.48963 0.93394 0.26510 -0.07800
O 	O 	0.54266 0.96780 0.41080 -0.45800
C 	C 	0.54211 0.95230 0.32790 0.34500
O 	O 	0.49420 0.91900 0.80000 -0.48200
H 	H 	0.47630 0.92060 0.75330 0.24000
O 	O 	0.58795 0.95271 0.29160 -0.45800
N 	N 	0.49547 0.91990 0.17390 -0.23000
Mn	Mn	0.98812 0.25271 0.52134 1.24100
O 	O 	0.01586 0.26525 0.66716 -0.46500
N 	N 	0.06917 0.24237 0.52413 -0.23300
O 	O 	0.08393 0.27423 0.77013 -0.45600
C 	C 	0.10910 0.23863 0.46653 0.06900
C 	C 	0.09440 0.21893 0.36783 0.06500
C 	C 	0.06517 0.26783 0.68753 0.34200
C 	C 	0.09888 0.26039 0.60883 -0.07500
C 	C 	0.06357 0.18253 0.18263 -0.29800
H 	H 	0.05357 0.16993 0.12073 0.11500
C 	C 	0.13737 0.24653 0.29673 -0.27500
H 	H 	0.17647 0.27693 0.31143 0.10500
C 	C 	0.12187 0.22863 0.20483 0.33300
C 	C 	0.02137 0.15603 0.25113 0.09900
H 	H 	0.98227 0.12563 0.23603 0.00200
C 	C 	0.03647 0.17423 0.34483 -0.16900
H 	H 	0.00727 0.15603 0.39153 0.06100
C 	C 	0.15630 0.26727 0.59843 -0.08100
O 	O 	0.20933 0.30113 0.74413 -0.46800
C 	C 	0.20878 0.28563 0.66123 0.34500
O 	O 	0.16087 0.25233 0.13333 -0.47500
H 	H 	0.14297 0.25393 0.08663 0.23000
O 	O 	0.25462 0.28604 0.62493 -0.46400
N 	N 	0.16214 0.25323 0.50723 -0.23200
Mn	Mn	0.65478 0.58605 0.85468 1.23400
O 	O 	0.68252 0.59859 0.00050 -0.45400
N 	N 	0.73583 0.57571 0.85747 -0.22700
O 	O 	0.75059 0.60757 0.10347 -0.45200
C 	C 	0.77576 0.57197 0.79987 0.06100
C 	C 	0.76106 0.55227 0.70117 0.09800
C 	C 	0.73183 0.60117 0.02087 0.34200
C 	C 	0.76554 0.59373 0.94217 -0.07300
C 	C 	0.73023 0.51587 0.51597 -0.35400
H 	H 	0.72023 0.50327 0.45407 0.14100
C 	C 	0.80403 0.57987 0.63007 -0.30500
H 	H 	0.84313 0.61027 0.64477 0.11600
C 	C 	0.78853 0.56197 0.53817 0.36700
C 	C 	0.68803 0.48937 0.58447 0.19100
H 	H 	0.64893 0.45897 0.56937 -0.04300
C 	C 	0.70313 0.50757 0.67817 -0.22000
H 	H 	0.67393 0.48937 0.72487 0.08800
C 	C 	0.82296 0.60061 0.93177 -0.07900
O 	O 	0.87599 0.63447 0.07747 -0.46300
C 	C 	0.87544 0.61897 0.99457 0.34300
O 	O 	0.82753 0.58567 0.46667 -0.48300
H 	H 	0.80963 0.58727 0.41997 0.23600
O 	O 	0.92128 0.61938 0.95827 -0.45800
N 	N 	0.82880 0.58657 0.84057 -0.23000
Mn	Mn	0.91938 0.59793 0.81199 1.23600
O 	O 	0.93192 0.58273 0.66617 -0.44800
N 	N 	0.90904 0.50654 0.80920 -0.22600
O 	O 	0.94090 0.52364 0.56320 -0.44400
C 	C 	0.90530 0.46287 0.86680 0.06300
C 	C 	0.88560 0.45787 0.96550 0.09800
C 	C 	0.93450 0.53600 0.64580 0.34100
C 	C 	0.92706 0.49485 0.72450 -0.06900
C 	C 	0.84920 0.45230 0.15070 -0.35600
H 	H 	0.83660 0.44970 0.21260 0.14200
C 	C 	0.91320 0.44250 0.03660 -0.30200
H 	H 	0.94360 0.43380 0.02190 0.11900
C 	C 	0.89530 0.44010 0.12850 0.37000
C 	C 	0.82270 0.46800 0.08220 0.19600
H 	H 	0.79230 0.47670 0.09730 -0.04500
C 	C 	0.84090 0.47110 0.98850 -0.22300
H 	H 	0.82270 0.48210 0.94180 0.08900
C 	C 	0.93394 0.44431 0.73490 -0.07800
O 	O 	0.96780 0.42514 0.58920 -0.45800
C 	C 	0.95230 0.41019 0.67210 0.34500
O 	O 	0.91900 0.42480 0.20000 -0.48200
H 	H 	0.92060 0.44430 0.24670 0.24000
O 	O 	0.95271 0.36476 0.70840 -0.45800
N 	N 	0.91990 0.42443 0.82610 -0.23000
Mn	Mn	0.58605 0.93126 0.14532 1.23600
O 	O 	0.59859 0.91606 0.99950 -0.44800
N 	N 	0.57571 0.83987 0.14253 -0.22700
O 	O 	0.60757 0.85697 0.89653 -0.45000
C 	C 	0.57197 0.79620 0.20013 0.06200
C 	C 	0.55227 0.79120 0.29883 0.09800
C 	C 	0.60117 0.86933 0.97913 0.34100
C 	C 	0.59373 0.82818 0.05783 -0.07300
C 	C 	0.51587 0.78563 0.48403 -0.35400
H 	H 	0.50327 0.78303 0.54593 0.14100
C 	C 	0.57987 0.77583 0.36993 -0.30400
H 	H 	0.61027 0.76713 0.35523 0.11500
C 	C 	0.56197 0.77343 0.46183 0.36700
C 	C 	0.48937 0.80133 0.41553 0.19100
H 	H 	0.45897 0.81003 0.43063 -0.04300
C 	C 	0.50757 0.80443 0.32183 -0.21900
H 	H 	0.48937 0.81543 0.27513 0.08800
C 	C 	0.60061 0.77764 0.06823 -0.08000
O 	O 	0.63447 0.75847 0.92253 -0.46600
C 	C 	0.61897 0.74352 0.00543 0.34500
O 	O 	0.58567 0.75813 0.53333 -0.48600
H 	H 	0.58727 0.77763 0.58003 0.23600
O 	O 	0.61938 0.69809 0.04173 -0.46400
N 	N 	0.58657 0.75776 0.15943 -0.23100
Mn	Mn	0.25271 0.26460 0.47866 1.23400
O 	O 	0.26525 0.24940 0.33284 -0.45300
N 	N 	0.24237 0.17321 0.47587 -0.22800
O 	O 	0.27423 0.19031 0.22987 -0.45300
C 	C 	0.23863 0.12954 0.53347 0.05900
C 	C 	0.21893 0.12454 0.63217 0.09500
C 	C 	0.26783 0.20267 0.31247 0.34000
C 	C 	0.26039 0.16152 0.39117 -0.07300
C 	C 	0.18253 0.11897 0.81737 -0.35600
H 	H 	0.16993 0.11637 0.87927 0.13700
C 	C 	0.24653 0.10917 0.70327 -0.30600
H 	H 	0.27693 0.10047 0.68857 0.11200
C 	C 	0.22863 0.10677 0.79517 0.36400
C 	C 	0.15603 0.13467 0.74887 0.18800
H 	H 	0.12563 0.14337 0.76397 -0.04600
C 	C 	0.17423 0.13777 0.65517 -0.22100
H 	H 	0.15603 0.14877 0.60847 0.08600
C 	C 	0.26727 0.11098 0.40157 -0.08300
O 	O 	0.30113 0.09181 0.25587 -0.47100
C 	C 	0.28563 0.07686 0.33877 0.34600
O 	O 	0.25233 0.09147 0.86667 -0.49000
H 	H 	0.25393 0.11097 0.91337 0.23600
O 	O 	0.28604 0.03143 0.37507 -0.47200
N 	N 	0.25323 0.09110 0.49277 -0.23300
Mn	Mn	0.40207 0.32145 0.81199 1.23400
O 	O 	0.41727 0.34919 0.66617 -0.45300
N 	N 	0.49346 0.40250 0.80920 -0.22700
O 	O 	0.47636 0.41726 0.56320 -0.45200
C 	C 	0.53713 0.44243 0.86680 0.06100
C 	C 	0.54213 0.42773 0.96550 0.09800
C 	C 	0.46400 0.39850 0.64580 0.34100
C 	C 	0.50515 0.43221 0.72450 -0.07200
C 	C 	0.54770 0.39690 0.15070 -0.35500
H 	H 	0.55030 0.38690 0.21260 0.14100
C 	C 	0.55750 0.47070 0.03660 -0.30500
H 	H 	0.56620 0.50980 0.02190 0.11500
C 	C 	0.55990 0.45520 0.12850 0.36700
C 	C 	0.53200 0.35470 0.08220 0.19300
H 	H 	0.52330 0.31560 0.09730 -0.04400
C 	C 	0.52890 0.36980 0.98850 -0.22200
H 	H 	0.51790 0.34060 0.94180 0.08800
C 	C 	0.55569 0.48963 0.73490 -0.08100
O 	O 	0.57486 0.54266 0.58920 -0.46700
C 	C 	0.58981 0.54211 0.67210 0.34600
O 	O 	0.57520 0.49420 0.20000 -0.48600
H 	H 	0.55570 0.47630 0.24670 0.23600
O 	O 	0.63524 0.58795 0.70840 -0.46400
N 	N 	0.57557 0.49547 0.82610 -0.23100
Mn	Mn	0.06874 0.65478 0.14532 1.23100
O 	O 	0.08394 0.68252 0.99950 -0.45700
N 	N 	0.16013 0.73583 0.14253 -0.22700
O 	O 	0.14303 0.75059 0.89653 -0.45400
C 	C 	0.20380 0.77576 0.20013 0.06100
C 	C 	0.20880 0.76106 0.29883 0.09800
C 	C 	0.13067 0.73183 0.97913 0.34500
C 	C 	0.17182 0.76554 0.05783 -0.07700
C 	C 	0.21437 0.73023 0.48403 -0.35500
H 	H 	0.21697 0.72023 0.54593 0.14000
C 	C 	0.22417 0.80403 0.36993 -0.30500
H 	H 	0.23287 0.84313 0.35523 0.11600
C 	C 	0.22657 0.78853 0.46183 0.36700
C 	C 	0.19867 0.68803 0.41553 0.19100
H 	H 	0.18997 0.64893 0.43063 -0.04400
C 	C 	0.19557 0.70313 0.32183 -0.22000
H 	H 	0.18457 0.67393 0.27513 0.08800
C 	C 	0.22236 0.82296 0.06823 -0.07800
O 	O 	0.24153 0.87599 0.92253 -0.46100
C 	C 	0.25648 0.87544 0.00543 0.34000
O 	O 	0.24187 0.82753 0.53333 -0.48300
H 	H 	0.22237 0.80963 0.58003 0.23600
O 	O 	0.30191 0.92128 0.04173 -0.45800
N 	N 	0.24224 0.82880 0.15943 -0.23100
Mn	Mn	0.73540 0.98812 0.47866 1.24100
O 	O 	0.75060 0.01586 0.33284 -0.46400
N 	N 	0.82679 0.06917 0.47587 -0.23200
O 	O 	0.80969 0.08393 0.22987 -0.45500
C 	C 	0.87046 0.10910 0.53347 0.07100
C 	C 	0.87546 0.09440 0.63217 0.06800
C 	C 	0.79733 0.06517 0.31247 0.34200
C 	C 	0.83848 0.09888 0.39117 -0.07400
C 	C 	0.88103 0.06357 0.81737 -0.29800
H 	H 	0.88363 0.05357 0.87927 0.11800
C 	C 	0.89083 0.13737 0.70327 -0.27500
H 	H 	0.89953 0.17647 0.68857 0.10700
C 	C 	0.89323 0.12187 0.79517 0.33600
C 	C 	0.86533 0.02137 0.74887 0.10300
H 	H 	0.85663 0.98227 0.76397 0.00300
C 	C 	0.86223 0.03647 0.65517 -0.16800
H 	H 	0.85123 0.00727 0.60847 0.06400
C 	C 	0.88902 0.15630 0.40157 -0.07800
O 	O 	0.90819 0.20933 0.25587 -0.46300
C 	C 	0.92314 0.20878 0.33877 0.34500
O 	O 	0.90853 0.16087 0.86667 -0.47000
H 	H 	0.88903 0.14297 0.91337 0.23100
O 	O 	0.96857 0.25462 0.37507 -0.45500
N 	N 	0.90890 0.16214 0.49277 -0.23000
Mn	Mn	0.67855 0.08062 0.81199 1.23100
O 	O 	0.65081 0.06808 0.66617 -0.45800
N 	N 	0.59750 0.09096 0.80920 -0.22800
O 	O 	0.58274 0.05910 0.56320 -0.45700
C 	C 	0.55757 0.09470 0.86680 0.05900
C 	C 	0.57227 0.11440 0.96550 0.09400
C 	C 	0.60150 0.06550 0.64580 0.34000
C 	C 	0.56779 0.07294 0.72450 -0.07400
C 	C 	0.60310 0.15080 0.15070 -0.35600
H 	H 	0.61310 0.16340 0.21260 0.14000
C 	C 	0.52930 0.08680 0.03660 -0.30200
H 	H 	0.49020 0.05640 0.02190 0.11100
C 	C 	0.54480 0.10470 0.12850 0.36400
C 	C 	0.64530 0.17730 0.08220 0.19400
H 	H 	0.68440 0.20770 0.09730 -0.04400
C 	C 	0.63020 0.15910 0.98850 -0.22300
H 	H 	0.65940 0.17730 0.94180 0.08900
C 	C 	0.51037 0.06606 0.73490 -0.08400
O 	O 	0.45734 0.03220 0.58920 -0.47300
C 	C 	0.45789 0.04770 0.67210 0.34600
O 	O 	0.50580 0.08100 0.20000 -0.48800
H 	H 	0.52370 0.07940 0.24670 0.23300
O 	O 	0.41205 0.04729 0.70840 -0.47000
N 	N 	0.50453 0.08010 0.82610 -0.23200
Mn	Mn	0.34522 0.41395 0.14532 1.23400
O 	O 	0.31748 0.40141 0.99950 -0.45400
N 	N 	0.26417 0.42429 0.14253 -0.22700
O 	O 	0.24941 0.39243 0.89653 -0.45200
C 	C 	0.22424 0.42803 0.20013 0.06100
C 	C 	0.23894 0.44773 0.29883 0.09700
C 	C 	0.26817 0.39883 0.97913 0.34100
C 	C 	0.23446 0.40627 0.05783 -0.07300
C 	C 	0.26977 0.48413 0.48403 -0.35400
H 	H 	0.27977 0.49673 0.54593 0.14000
C 	C 	0.19597 0.42013 0.36993 -0.30400
H 	H 	0.15687 0.38973 0.35523 0.11400
C 	C 	0.21147 0.43803 0.46183 0.36700
C 	C 	0.31197 0.51063 0.41553 0.19100
H 	H 	0.35107 0.54103 0.43063 -0.04300
C 	C 	0.29687 0.49243 0.32183 -0.21900
H 	H 	0.32607 0.51063 0.27513 0.08800
C 	C 	0.17704 0.39939 0.06823 -0.08100
O 	O 	0.12401 0.36553 0.92253 -0.46900
C 	C 	0.12456 0.38103 0.00543 0.34500
O 	O 	0.17247 0.41433 0.53333 -0.48700
H 	H 	0.19037 0.41273 0.58003 0.23600
O 	O 	0.07872 0.38062 0.04173 -0.47000
N 	N 	0.17120 0.41343 0.15943 -0.23100
Mn	Mn	0.01188 0.74729 0.47866 1.22600
O 	O 	0.98414 0.73475 0.33284 -0.44100
N 	N 	0.93083 0.75763 0.47587 -0.22200
O 	O 	0.91607 0.72577 0.22987 -0.44700
C 	C 	0.89090 0.76137 0.53347 0.05500
C 	C 	0.90560 0.78107 0.63217 0.12600
C 	C 	0.93483 0.73217 0.31247 0.34000
C 	C 	0.90112 0.73961 0.39117 -0.06900
C 	C 	0.93643 0.81747 0.81737 -0.40200
H 	H 	0.94643 0.83007 0.87927 0.16300
C 	C 	0.86263 0.75347 0.70327 -0.33000
H 	H 	0.82353 0.72307 0.68857 0.12400
C 	C 	0.87813 0.77137 0.79517 0.39600
C 	C 	0.97863 0.84397 0.74887 0.27000
H 	H 	0.01773 0.87437 0.76397 -0.08100
C 	C 	0.96353 0.82577 0.65517 -0.26300
H 	H 	0.99273 0.84397 0.60847 0.11200
C 	C 	0.84370 0.73273 0.40157 -0.08100
O 	O 	0.79067 0.69887 0.25587 -0.46700
C 	C 	0.79122 0.71437 0.33877 0.34600
O 	O 	0.83913 0.74767 0.86667 -0.49500
H 	H 	0.85703 0.74607 0.91337 0.24100
O 	O 	0.74538 0.71396 0.37507 -0.46400
N 	N 	0.83786 0.74677 0.49277 -0.22900
Mn	Mn	-0.00000 0.50000 0.50000 1.26800
Mn	Mn	0.66667 0.83333 0.83333 1.27600
Mn	Mn	0.33333 0.16667 0.16667 1.27500
Mn	Mn	0.50000 0.50000 0.50000 1.27500
Mn	Mn	0.16667 0.83333 0.83333 1.27500
Mn	Mn	0.83333 0.16667 0.16667 1.27600
Mn	Mn	0.50000 0.00000 0.50000 1.26800
Mn	Mn	0.16667 0.33333 0.83333 1.27500
Mn	Mn	0.83333 0.66667 0.16667 1.27600
