data_crystal

_cell_length_a 10.48030
_cell_length_b 17.88550
_cell_length_c 17.83640
_cell_angle_alpha 90.00000
_cell_angle_beta  105.74400
_cell_angle_gamma 90.00000

_symmetry_space_group_name_	'P 1'
_symmetry_space_group_name_H-M	'P 1'

loop_
_symmetry_equiv_pos_as_xyz
  x,y,z

loop_
_atom_site_label
_atom_site_type_symbol
_atom_site_fract_x
_atom_site_fract_y
_atom_site_fract_z
_atom_site_charge
C 	C 	0.71820 0.04130 0.47000 0.50300
C 	C 	0.85430 0.07230 0.47580 -0.13300
C 	C 	0.89800 0.08110 0.40920 0.07400
H 	H 	0.84010 0.07210 0.36040 0.04300
C 	C 	0.02780 0.10320 0.41530 -0.10800
C 	C 	0.11110 0.11960 0.48750 -0.01000
H 	H 	0.19790 0.13490 0.49260 0.05800
C 	C 	0.06360 0.11300 0.55190 0.05600
C 	C 	0.93800 0.08860 0.54790 0.00800
H 	H 	0.91000 0.08310 0.59280 0.05900
C 	C 	0.08020 0.10530 0.34470 0.39900
C 	C 	0.36300 0.17160 0.26050 0.44000
C 	C 	0.43650 0.24210 0.29090 -0.11200
C 	C 	0.37780 0.31090 0.26830 0.06200
H 	H 	0.29730 0.31300 0.23010 0.03300
C 	C 	0.43680 0.37630 0.30150 -0.11300
C 	C 	0.55790 0.37300 0.35780 -0.02000
H 	H 	0.59910 0.41650 0.38100 0.07500
C 	C 	0.61540 0.30440 0.37840 0.07700
C 	C 	0.55800 0.23850 0.34670 -0.01700
H 	H 	0.59920 0.19280 0.36220 0.06900
C 	C 	0.37020 0.45100 0.27850 0.45100
C 	C 	0.47540 0.14270 0.52750 0.52900
C 	C 	0.44640 0.22570 0.53130 -0.19600
C 	C 	0.50820 0.26640 0.59720 0.13900
H 	H 	0.56500 0.24130 0.63870 -0.00600
C 	C 	0.40720 0.37520 0.54540 0.11800
H 	H 	0.39350 0.42620 0.54970 -0.00800
C 	C 	0.33980 0.33830 0.47770 -0.17300
H 	H 	0.28090 0.36430 0.43780 0.10200
C 	C 	0.36080 0.26320 0.47000 0.13300
H 	H 	0.31830 0.23810 0.42450 -0.00100
Eu	Eu	0.40273 0.01465 0.37277 2.10900
N 	N 	0.15420 0.12910 0.62990 -0.00100
N 	N 	0.72340 0.30050 0.45590 0.01400
O 	O 	0.75780 0.35700 0.49360 -0.08700
O 	O 	0.76690 0.24190 0.48140 -0.07600
N 	N 	0.49090 0.33980 0.60440 -0.26600
O 	O 	0.63860 0.03420 0.40360 -0.49500
O 	O 	0.69400 0.02340 0.53220 -0.54800
O 	O 	0.99860 0.11620 0.27950 -0.44600
O 	O 	0.20070 0.09720 0.35270 -0.49100
O 	O 	0.24800 0.18010 0.62910 -0.05600
O 	O 	0.10980 0.13490 0.68460 -0.04700
O 	O 	0.41520 0.10980 0.28330 -0.51900
O 	O 	0.24760 0.17990 0.21480 -0.48600
O 	O 	0.28240 0.45490 0.21660 -0.52700
O 	O 	0.41000 0.50420 0.32580 -0.50400
O 	O 	0.44980 0.11540 0.46110 -0.52900
O 	O 	0.52150 0.11010 0.59100 -0.51500
Zn	Zn	0.10342 0.10878 0.20214 1.22200
N 	N 	0.75510 0.30130 0.42330 -0.01200
O 	O 	0.81310 0.35840 0.44910 -0.06000
O 	O 	0.81310 0.24490 0.43910 -0.05800
O 	O 	0.26840 0.14310 0.63580 -0.06900
O 	O 	0.12880 0.08960 0.68630 -0.08400
C 	C 	0.78180 0.54130 0.03000 0.50200
C 	C 	0.64570 0.57230 0.02420 -0.12800
C 	C 	0.60200 0.58110 0.09080 0.06600
H 	H 	0.65990 0.57210 0.13960 0.04500
C 	C 	0.47220 0.60320 0.08470 -0.10200
C 	C 	0.38890 0.61960 0.01250 -0.01500
H 	H 	0.30210 0.63490 0.00740 0.05900
C 	C 	0.43640 0.61300 0.94810 0.06200
C 	C 	0.56200 0.58860 0.95210 -0.00100
H 	H 	0.59000 0.58310 0.90720 0.06100
C 	C 	0.41980 0.60530 0.15530 0.40100
C 	C 	0.13700 0.67160 0.23950 0.43900
C 	C 	0.06350 0.74210 0.20910 -0.10900
C 	C 	0.12220 0.81090 0.23170 0.05900
H 	H 	0.20270 0.81300 0.26990 0.03500
C 	C 	0.06320 0.87630 0.19850 -0.11000
C 	C 	0.94210 0.87300 0.14220 -0.02400
H 	H 	0.90090 0.91650 0.11900 0.07600
C 	C 	0.88460 0.80440 0.12160 0.07900
C 	C 	0.94200 0.73850 0.15330 -0.02000
H 	H 	0.90080 0.69280 0.13780 0.07100
C 	C 	0.12980 0.95100 0.22150 0.45500
C 	C 	0.02460 0.64270 0.97250 0.53000
C 	C 	0.05360 0.72570 0.96870 -0.19100
C 	C 	0.99180 0.76640 0.90280 0.13100
H 	H 	0.93500 0.74130 0.86130 -0.00400
C 	C 	0.09280 0.87520 0.95460 0.11500
H 	H 	0.10650 0.92620 0.95030 -0.00600
C 	C 	0.16020 0.83830 0.02230 -0.17000
H 	H 	0.21910 0.86430 0.06220 0.10100
C 	C 	0.13920 0.76320 0.03000 0.12900
H 	H 	0.18170 0.73810 0.07550 0.00000
Eu	Eu	0.09727 0.51465 0.12723 2.11000
N 	N 	0.34580 0.62910 0.87010 -0.00200
N 	N 	0.77660 0.80050 0.04410 0.01300
O 	O 	0.74220 0.85700 0.00640 -0.08700
O 	O 	0.73310 0.74190 0.01860 -0.07600
N 	N 	0.00910 0.83980 0.89560 -0.26200
O 	O 	0.86140 0.53420 0.09640 -0.49500
O 	O 	0.80600 0.52340 0.96780 -0.55000
O 	O 	0.50140 0.61620 0.22050 -0.44900
O 	O 	0.29930 0.59720 0.14730 -0.49100
O 	O 	0.25200 0.68010 0.87090 -0.05600
O 	O 	0.39020 0.63490 0.81540 -0.04600
O 	O 	0.08480 0.60980 0.21670 -0.51900
O 	O 	0.25240 0.67990 0.28520 -0.48500
O 	O 	0.21760 0.95490 0.28340 -0.52700
O 	O 	0.09000 0.00420 0.17420 -0.50800
O 	O 	0.05020 0.61540 0.03890 -0.52900
O 	O 	0.97850 0.61010 0.90900 -0.51700
Zn	Zn	0.39658 0.60878 0.29786 1.22300
N 	N 	0.74490 0.80130 0.07670 -0.01200
O 	O 	0.68690 0.85840 0.05090 -0.06000
O 	O 	0.68690 0.74490 0.06090 -0.05800
O 	O 	0.23160 0.64310 0.86420 -0.06900
O 	O 	0.37120 0.58960 0.81370 -0.08400
C 	C 	0.28180 0.95870 0.53000 0.50300
C 	C 	0.14570 0.92770 0.52420 -0.13300
C 	C 	0.10200 0.91890 0.59080 0.07400
H 	H 	0.15990 0.92790 0.63960 0.04300
C 	C 	0.97220 0.89680 0.58470 -0.10800
C 	C 	0.88890 0.88040 0.51250 -0.01000
H 	H 	0.80210 0.86510 0.50740 0.05800
C 	C 	0.93640 0.88700 0.44810 0.05600
C 	C 	0.06200 0.91140 0.45210 0.00800
H 	H 	0.09000 0.91690 0.40720 0.05900
C 	C 	0.91980 0.89470 0.65530 0.39900
C 	C 	0.63700 0.82840 0.73950 0.44000
C 	C 	0.56350 0.75790 0.70910 -0.11200
C 	C 	0.62220 0.68910 0.73170 0.06200
H 	H 	0.70270 0.68700 0.76990 0.03300
C 	C 	0.56320 0.62370 0.69850 -0.11300
C 	C 	0.44210 0.62700 0.64220 -0.02000
H 	H 	0.40090 0.58350 0.61900 0.07500
C 	C 	0.38460 0.69560 0.62160 0.07700
C 	C 	0.44200 0.76150 0.65330 -0.01700
H 	H 	0.40080 0.80720 0.63780 0.06900
C 	C 	0.62980 0.54900 0.72150 0.45100
C 	C 	0.52460 0.85730 0.47250 0.52900
C 	C 	0.55360 0.77430 0.46870 -0.19600
C 	C 	0.49180 0.73360 0.40280 0.13900
H 	H 	0.43500 0.75870 0.36130 -0.00600
C 	C 	0.59280 0.62480 0.45460 0.11800
H 	H 	0.60650 0.57380 0.45030 -0.00800
C 	C 	0.66020 0.66170 0.52230 -0.17300
H 	H 	0.71910 0.63570 0.56220 0.10200
C 	C 	0.63920 0.73680 0.53000 0.13300
H 	H 	0.68170 0.76190 0.57550 -0.00100
Eu	Eu	0.59727 0.98535 0.62723 2.10900
N 	N 	0.84580 0.87090 0.37010 -0.00100
N 	N 	0.27660 0.69950 0.54410 0.01400
O 	O 	0.24220 0.64300 0.50640 -0.08700
O 	O 	0.23310 0.75810 0.51860 -0.07600
N 	N 	0.50910 0.66020 0.39560 -0.26600
O 	O 	0.36140 0.96580 0.59640 -0.49500
O 	O 	0.30600 0.97660 0.46780 -0.54800
O 	O 	0.00140 0.88380 0.72050 -0.44600
O 	O 	0.79930 0.90280 0.64730 -0.49100
O 	O 	0.75200 0.81990 0.37090 -0.05600
O 	O 	0.89020 0.86510 0.31540 -0.04700
O 	O 	0.58480 0.89020 0.71670 -0.51900
O 	O 	0.75240 0.82010 0.78520 -0.48600
O 	O 	0.71760 0.54510 0.78340 -0.52700
O 	O 	0.59000 0.49580 0.67420 -0.50400
O 	O 	0.55020 0.88460 0.53890 -0.52900
O 	O 	0.47850 0.88990 0.40900 -0.51500
Zn	Zn	0.89658 0.89122 0.79786 1.22200
N 	N 	0.24490 0.69870 0.57670 -0.01200
O 	O 	0.18690 0.64160 0.55090 -0.06000
O 	O 	0.18690 0.75510 0.56090 -0.05800
O 	O 	0.73160 0.85690 0.36420 -0.06900
O 	O 	0.87120 0.91040 0.31370 -0.08400
C 	C 	0.21820 0.45870 0.97000 0.50200
C 	C 	0.35430 0.42770 0.97580 -0.12800
C 	C 	0.39800 0.41890 0.90920 0.06600
H 	H 	0.34010 0.42790 0.86040 0.04500
C 	C 	0.52780 0.39680 0.91530 -0.10200
C 	C 	0.61110 0.38040 0.98750 -0.01500
H 	H 	0.69790 0.36510 0.99260 0.05900
C 	C 	0.56360 0.38700 0.05190 0.06200
C 	C 	0.43800 0.41140 0.04790 -0.00100
H 	H 	0.41000 0.41690 0.09280 0.06100
C 	C 	0.58020 0.39470 0.84470 0.40100
C 	C 	0.86300 0.32840 0.76050 0.43900
C 	C 	0.93650 0.25790 0.79090 -0.10900
C 	C 	0.87780 0.18910 0.76830 0.05900
H 	H 	0.79730 0.18700 0.73010 0.03500
C 	C 	0.93680 0.12370 0.80150 -0.11000
C 	C 	0.05790 0.12700 0.85780 -0.02400
H 	H 	0.09910 0.08350 0.88100 0.07600
C 	C 	0.11540 0.19560 0.87840 0.07900
C 	C 	0.05800 0.26150 0.84670 -0.02000
H 	H 	0.09920 0.30720 0.86220 0.07100
C 	C 	0.87020 0.04900 0.77850 0.45500
C 	C 	0.97540 0.35730 0.02750 0.53000
C 	C 	0.94640 0.27430 0.03130 -0.19100
C 	C 	0.00820 0.23360 0.09720 0.13100
H 	H 	0.06500 0.25870 0.13870 -0.00400
C 	C 	0.90720 0.12480 0.04540 0.11500
H 	H 	0.89350 0.07380 0.04970 -0.00600
C 	C 	0.83980 0.16170 0.97770 -0.17000
H 	H 	0.78090 0.13570 0.93780 0.10100
C 	C 	0.86080 0.23680 0.97000 0.12900
H 	H 	0.81830 0.26190 0.92450 0.00000
Eu	Eu	0.90273 0.48535 0.87277 2.11000
N 	N 	0.65420 0.37090 0.12990 -0.00200
N 	N 	0.22340 0.19950 0.95590 0.01300
O 	O 	0.25780 0.14300 0.99360 -0.08700
O 	O 	0.26690 0.25810 0.98140 -0.07600
N 	N 	0.99090 0.16020 0.10440 -0.26200
O 	O 	0.13860 0.46580 0.90360 -0.49500
O 	O 	0.19400 0.47660 0.03220 -0.55000
O 	O 	0.49860 0.38380 0.77950 -0.44900
O 	O 	0.70070 0.40280 0.85270 -0.49100
O 	O 	0.74800 0.31990 0.12910 -0.05600
O 	O 	0.60980 0.36510 0.18460 -0.04600
O 	O 	0.91520 0.39020 0.78330 -0.51900
O 	O 	0.74760 0.32010 0.71480 -0.48500
O 	O 	0.78240 0.04510 0.71660 -0.52700
O 	O 	0.91000 0.99580 0.82580 -0.50800
O 	O 	0.94980 0.38460 0.96110 -0.52900
O 	O 	0.02150 0.38990 0.09100 -0.51700
Zn	Zn	0.60342 0.39122 0.70214 1.22300
N 	N 	0.25510 0.19870 0.92330 -0.01200
O 	O 	0.31310 0.14160 0.94910 -0.06000
O 	O 	0.31310 0.25510 0.93910 -0.05800
O 	O 	0.76840 0.35690 0.13580 -0.06900
O 	O 	0.62880 0.41040 0.18630 -0.08400
