data_crystal

_cell_length_a 11.58900
_cell_length_b 17.79200
_cell_length_c 16.44100
_cell_angle_alpha 90.00000
_cell_angle_beta  109.73000
_cell_angle_gamma 90.00000

_symmetry_space_group_name_	'P 1'
_symmetry_space_group_name_H-M	'P 1'

loop_
_symmetry_equiv_pos_as_xyz
  x,y,z

loop_
_atom_site_label
_atom_site_type_symbol
_atom_site_fract_x
_atom_site_fract_y
_atom_site_fract_z
_atom_site_charge
Tb	Tb	0.91119 0.01015 0.86194 2.04300
Zn	Zn	0.58823 0.11520 0.69953 1.23100
C 	C 	0.80480 0.94120 0.01580 0.51200
C 	C 	0.67960 0.92330 0.01760 -0.12900
C 	C 	0.66000 0.91850 0.09430 0.05900
H 	H 	0.72580 0.92460 0.14520 0.04400
C 	C 	0.54400 0.90460 0.09890 -0.07400
C 	C 	0.45140 0.89430 0.02570 -0.04700
H 	H 	0.37260 0.88650 0.02690 0.07900
C 	C 	0.47180 0.89510 0.94800 0.08200
C 	C 	0.58280 0.90980 0.94140 -0.00800
H 	H 	0.59400 0.91080 0.88800 0.07600
C 	C 	0.52220 0.90110 0.18610 0.38100
C 	C 	0.63550 0.96160 0.69890 0.50000
C 	C 	0.58490 0.88370 0.68190 -0.14500
C 	C 	0.64590 0.82000 0.71790 0.09600
H 	H 	0.72460 0.82490 0.75770 0.01700
C 	C 	0.59870 0.74970 0.69920 -0.13100
C 	C 	0.48690 0.74100 0.63520 -0.01000
H 	H 	0.45330 0.69330 0.62100 0.06300
C 	C 	0.42500 0.80320 0.59210 0.08100
C 	C 	0.47480 0.87430 0.61190 -0.01500
H 	H 	0.43590 0.91550 0.57940 0.07400
C 	C 	0.67320 0.67920 0.73910 0.48600
C 	C 	0.36450 0.13600 0.54650 0.11900
H 	H 	0.35420 0.08480 0.55280 -0.00300
C 	C 	0.27720 0.17430 0.47880 -0.17900
H 	H 	0.20980 0.14950 0.44070 0.10100
C 	C 	0.29560 0.25000 0.47110 0.14100
H 	H 	0.24090 0.27730 0.42640 -0.00100
C 	C 	0.39430 0.28530 0.52930 -0.21400
C 	C 	0.47230 0.24380 0.59480 0.14700
H 	H 	0.53640 0.26830 0.63620 -0.01000
C 	C 	0.42270 0.36840 0.52410 0.55300
N 	N 	0.36840 0.88270 0.86740 -0.00400
N 	N 	0.46100 0.16980 0.60210 -0.27100
O 	O 	0.81170 0.95220 0.94290 -0.52300
O 	O 	0.89170 0.94470 0.08630 -0.53700
O 	O 	0.59980 0.92230 0.24890 -0.32800
O 	O 	0.41800 0.88450 0.18540 -0.47200
O 	O 	0.26000 0.89650 0.86900 -0.07800
O 	O 	0.38200 0.90700 0.79900 -0.05900
O 	O 	0.58120 0.01240 0.65500 -0.51300
O 	O 	0.72000 0.98630 0.78600 -0.24200
O 	O 	0.78180 0.69010 0.78330 -0.49000
O 	O 	0.62200 0.61730 0.72110 -0.54400
N 	N 	0.30800 0.79400 0.53700 -0.10000
O 	O 	0.25300 0.73940 0.52700 -0.03400
O 	O 	0.25000 0.84600 0.49800 0.01300
O 	O 	0.38260 0.39680 0.45140 -0.55000
O 	O 	0.48610 0.39920 0.59310 -0.55400
O 	O 	0.27500 0.85300 0.87600 -0.05700
O 	O 	0.39200 0.86300 0.80100 -0.05600
N 	N 	0.32000 0.79600 0.50500 0.08900
O 	O 	0.28500 0.73190 0.48080 -0.09900
O 	O 	0.27700 0.85000 0.46250 -0.15300
O 	O 	0.73900 0.96650 0.75220 -0.35600
Tb	Tb	0.58881 0.51015 0.63806 2.06200
Zn	Zn	0.91177 0.61520 0.80047 1.23100
C 	C 	0.69520 0.44120 0.48420 0.51900
C 	C 	0.82040 0.42330 0.48240 -0.12700
C 	C 	0.84000 0.41850 0.40570 0.06200
H 	H 	0.77420 0.42460 0.35480 0.04300
C 	C 	0.95600 0.40460 0.40110 -0.07800
C 	C 	0.04860 0.39430 0.47430 -0.03700
H 	H 	0.12740 0.38650 0.47310 0.07800
C 	C 	0.02820 0.39510 0.55200 0.07700
C 	C 	0.91720 0.40980 0.55860 -0.01100
H 	H 	0.90600 0.41080 0.61200 0.07600
C 	C 	0.97780 0.40110 0.31390 0.38200
C 	C 	0.86450 0.46160 0.80110 0.49900
C 	C 	0.91510 0.38370 0.81810 -0.15200
C 	C 	0.85410 0.32000 0.78210 0.10200
H 	H 	0.77540 0.32490 0.74230 0.01400
C 	C 	0.90130 0.24970 0.80080 -0.13900
C 	C 	0.01310 0.24100 0.86480 -0.00100
H 	H 	0.04670 0.19330 0.87900 0.06100
C 	C 	0.07500 0.30320 0.90790 0.07500
C 	C 	0.02520 0.37430 0.88810 -0.00800
H 	H 	0.06410 0.41550 0.92060 0.07100
C 	C 	0.82680 0.17920 0.76090 0.48800
C 	C 	0.13550 0.63600 0.95350 0.12200
H 	H 	0.14580 0.58480 0.94720 -0.00400
C 	C 	0.22280 0.67430 0.02120 -0.18100
H 	H 	0.29020 0.64950 0.05930 0.10000
C 	C 	0.20440 0.75000 0.02890 0.13400
H 	H 	0.25910 0.77730 0.07360 0.00000
C 	C 	0.10570 0.78530 0.97070 -0.20900
C 	C 	0.02770 0.74380 0.90520 0.14400
H 	H 	0.96360 0.76830 0.86380 -0.00900
C 	C 	0.07730 0.86840 0.97590 0.55700
N 	N 	0.13160 0.38270 0.63260 -0.00300
N 	N 	0.03900 0.66980 0.89790 -0.27100
O 	O 	0.68830 0.45220 0.55710 -0.53200
O 	O 	0.60830 0.44470 0.41370 -0.54300
O 	O 	0.90020 0.42230 0.25110 -0.32800
O 	O 	0.08200 0.38450 0.31460 -0.47200
O 	O 	0.24000 0.39650 0.63100 -0.08000
O 	O 	0.11800 0.40700 0.70100 -0.06100
O 	O 	0.91880 0.51240 0.84500 -0.51100
O 	O 	0.78000 0.48630 0.71400 -0.24800
O 	O 	0.71820 0.19010 0.71670 -0.49100
O 	O 	0.87800 0.11730 0.77890 -0.54400
N 	N 	0.19200 0.29400 0.96300 -0.09300
O 	O 	0.24700 0.23940 0.97300 -0.03900
O 	O 	0.25000 0.34600 0.00200 0.01100
O 	O 	0.11740 0.89680 0.04860 -0.55500
O 	O 	0.01390 0.89920 0.90690 -0.55200
O 	O 	0.22500 0.35300 0.62400 -0.05700
O 	O 	0.10800 0.36300 0.69900 -0.05500
N 	N 	0.18000 0.29600 0.99500 0.08200
O 	O 	0.21500 0.23190 0.01920 -0.09400
O 	O 	0.22300 0.35000 0.03750 -0.15000
O 	O 	0.76100 0.46650 0.74780 -0.35600
Tb	Tb	0.08881 0.98985 0.13806 2.04300
Zn	Zn	0.41177 0.88480 0.30047 1.23100
C 	C 	0.19520 0.05880 0.98420 0.51200
C 	C 	0.32040 0.07670 0.98240 -0.12900
C 	C 	0.34000 0.08150 0.90570 0.05900
H 	H 	0.27420 0.07540 0.85480 0.04400
C 	C 	0.45600 0.09540 0.90110 -0.07400
C 	C 	0.54860 0.10570 0.97430 -0.04700
H 	H 	0.62740 0.11350 0.97310 0.07900
C 	C 	0.52820 0.10490 0.05200 0.08200
C 	C 	0.41720 0.09020 0.05860 -0.00800
H 	H 	0.40600 0.08920 0.11200 0.07600
C 	C 	0.47780 0.09890 0.81390 0.38100
C 	C 	0.36450 0.03840 0.30110 0.50000
C 	C 	0.41510 0.11630 0.31810 -0.14500
C 	C 	0.35410 0.18000 0.28210 0.09600
H 	H 	0.27540 0.17510 0.24230 0.01700
C 	C 	0.40130 0.25030 0.30080 -0.13100
C 	C 	0.51310 0.25900 0.36480 -0.01000
H 	H 	0.54670 0.30670 0.37900 0.06300
C 	C 	0.57500 0.19680 0.40790 0.08100
C 	C 	0.52520 0.12570 0.38810 -0.01500
H 	H 	0.56410 0.08450 0.42060 0.07400
C 	C 	0.32680 0.32080 0.26090 0.48600
C 	C 	0.63550 0.86400 0.45350 0.11900
H 	H 	0.64580 0.91520 0.44720 -0.00300
C 	C 	0.72280 0.82570 0.52120 -0.17900
H 	H 	0.79020 0.85050 0.55930 0.10100
C 	C 	0.70440 0.75000 0.52890 0.14100
H 	H 	0.75910 0.72270 0.57360 -0.00100
C 	C 	0.60570 0.71470 0.47070 -0.21400
C 	C 	0.52770 0.75620 0.40520 0.14700
H 	H 	0.46360 0.73170 0.36380 -0.01000
C 	C 	0.57730 0.63160 0.47590 0.55300
N 	N 	0.63160 0.11730 0.13260 -0.00400
N 	N 	0.53900 0.83020 0.39790 -0.27100
O 	O 	0.18830 0.04780 0.05710 -0.52300
O 	O 	0.10830 0.05530 0.91370 -0.53700
O 	O 	0.40020 0.07770 0.75110 -0.32800
O 	O 	0.58200 0.11550 0.81460 -0.47200
O 	O 	0.74000 0.10350 0.13100 -0.07800
O 	O 	0.61800 0.09300 0.20100 -0.05900
O 	O 	0.41880 0.98760 0.34500 -0.51300
O 	O 	0.28000 0.01370 0.21400 -0.24200
O 	O 	0.21820 0.30990 0.21670 -0.49000
O 	O 	0.37800 0.38270 0.27890 -0.54400
N 	N 	0.69200 0.20600 0.46300 -0.10000
O 	O 	0.74700 0.26060 0.47300 -0.03400
O 	O 	0.75000 0.15400 0.50200 0.01300
O 	O 	0.61740 0.60320 0.54860 -0.55000
O 	O 	0.51390 0.60080 0.40690 -0.55400
O 	O 	0.72500 0.14700 0.12400 -0.05700
O 	O 	0.60800 0.13700 0.19900 -0.05600
N 	N 	0.68000 0.20400 0.49500 0.08900
O 	O 	0.71500 0.26810 0.51920 -0.09900
O 	O 	0.72300 0.15000 0.53750 -0.15300
O 	O 	0.26100 0.03350 0.24780 -0.35600
Tb	Tb	0.41119 0.48985 0.36194 2.06200
Zn	Zn	0.08823 0.38480 0.19953 1.23100
C 	C 	0.30480 0.55880 0.51580 0.51900
C 	C 	0.17960 0.57670 0.51760 -0.12700
C 	C 	0.16000 0.58150 0.59430 0.06200
H 	H 	0.22580 0.57540 0.64520 0.04300
C 	C 	0.04400 0.59540 0.59890 -0.07800
C 	C 	0.95140 0.60570 0.52570 -0.03700
H 	H 	0.87260 0.61350 0.52690 0.07800
C 	C 	0.97180 0.60490 0.44800 0.07700
C 	C 	0.08280 0.59020 0.44140 -0.01100
H 	H 	0.09400 0.58920 0.38800 0.07600
C 	C 	0.02220 0.59890 0.68610 0.38200
C 	C 	0.13550 0.53840 0.19890 0.49900
C 	C 	0.08490 0.61630 0.18190 -0.15200
C 	C 	0.14590 0.68000 0.21790 0.10200
H 	H 	0.22460 0.67510 0.25770 0.01400
C 	C 	0.09870 0.75030 0.19920 -0.13900
C 	C 	0.98690 0.75900 0.13520 -0.00100
H 	H 	0.95330 0.80670 0.12100 0.06100
C 	C 	0.92500 0.69680 0.09210 0.07500
C 	C 	0.97480 0.62570 0.11190 -0.00800
H 	H 	0.93590 0.58450 0.07940 0.07100
C 	C 	0.17320 0.82080 0.23910 0.48800
C 	C 	0.86450 0.36400 0.04650 0.12200
H 	H 	0.85420 0.41520 0.05280 -0.00400
C 	C 	0.77720 0.32570 0.97880 -0.18100
H 	H 	0.70980 0.35050 0.94070 0.10000
C 	C 	0.79560 0.25000 0.97110 0.13400
H 	H 	0.74090 0.22270 0.92640 0.00000
C 	C 	0.89430 0.21470 0.02930 -0.20900
C 	C 	0.97230 0.25620 0.09480 0.14400
H 	H 	0.03640 0.23170 0.13620 -0.00900
C 	C 	0.92270 0.13160 0.02410 0.55700
N 	N 	0.86840 0.61730 0.36740 -0.00300
N 	N 	0.96100 0.33020 0.10210 -0.27100
O 	O 	0.31170 0.54780 0.44290 -0.53200
O 	O 	0.39170 0.55530 0.58630 -0.54300
O 	O 	0.09980 0.57770 0.74890 -0.32800
O 	O 	0.91800 0.61550 0.68540 -0.47200
O 	O 	0.76000 0.60350 0.36900 -0.08000
O 	O 	0.88200 0.59300 0.29900 -0.06100
O 	O 	0.08120 0.48760 0.15500 -0.51100
O 	O 	0.22000 0.51370 0.28600 -0.24800
O 	O 	0.28180 0.80990 0.28330 -0.49100
O 	O 	0.12200 0.88270 0.22110 -0.54400
N 	N 	0.80800 0.70600 0.03700 -0.09300
O 	O 	0.75300 0.76060 0.02700 -0.03900
O 	O 	0.75000 0.65400 0.99800 0.01100
O 	O 	0.88260 0.10320 0.95140 -0.55500
O 	O 	0.98610 0.10080 0.09310 -0.55200
O 	O 	0.77500 0.64700 0.37600 -0.05700
O 	O 	0.89200 0.63700 0.30100 -0.05500
N 	N 	0.82000 0.70400 0.00500 0.08200
O 	O 	0.78500 0.76810 0.98080 -0.09400
O 	O 	0.77700 0.65000 0.96250 -0.15000
O 	O 	0.23900 0.53350 0.25220 -0.35600
