data_crystal

_cell_length_a 18.47970
_cell_length_b 18.47970
_cell_length_c 18.63200
_cell_angle_alpha 86.37720
_cell_angle_beta  86.37720
_cell_angle_gamma 70.36350

_symmetry_space_group_name_	'P 1'
_symmetry_space_group_name_H-M	'P 1'

loop_
_symmetry_equiv_pos_as_xyz
  x,y,z

loop_
_atom_site_label
_atom_site_type_symbol
_atom_site_fract_x
_atom_site_fract_y
_atom_site_fract_z
_atom_site_charge
Eu	Eu	0.89878 0.54547 0.56756 1.83800
Eu	Eu	0.35245 0.00879 0.52016 1.78500
Eu	Eu	0.45453 0.10122 0.93244 1.82600
Eu	Eu	0.99121 0.64755 0.97984 1.78100
Eu	Eu	0.10122 0.45453 0.43244 1.83900
Eu	Eu	0.64755 0.99121 0.47984 1.78600
Eu	Eu	0.54547 0.89878 0.06756 1.82700
Eu	Eu	0.00879 0.35245 0.02016 1.78200
H 	H 	0.67350 0.76790 0.50590 0.02900
H 	H 	0.45140 0.79120 0.55050 0.02800
H 	H 	0.61630 0.59310 0.60040 0.05100
H 	H 	0.03580 0.56160 0.73550 0.00900
H 	H 	0.21780 0.54580 0.59960 0.04200
H 	H 	0.20880 0.62420 0.79560 0.05200
H 	H 	0.13400 0.26380 0.53220 0.01400
H 	H 	0.93330 0.28650 0.63950 0.03000
H 	H 	0.10380 0.08260 0.64520 0.04100
H 	H 	0.23210 0.32650 0.99410 0.03000
H 	H 	0.20880 0.54860 0.94950 0.03000
H 	H 	0.40690 0.38370 0.89960 0.05100
H 	H 	0.43840 0.96420 0.76450 0.00900
H 	H 	0.45420 0.78220 0.90040 0.04300
H 	H 	0.37580 0.79120 0.70440 0.05200
H 	H 	0.73620 0.86600 0.96780 0.02000
H 	H 	0.71350 0.06670 0.86050 0.03800
H 	H 	0.91740 0.89620 0.85480 0.04600
H 	H 	0.32650 0.23210 0.49410 0.02900
H 	H 	0.54860 0.20880 0.44950 0.02800
H 	H 	0.38370 0.40690 0.39960 0.05100
H 	H 	0.96420 0.43840 0.26450 0.00900
H 	H 	0.78220 0.45420 0.40040 0.04200
H 	H 	0.79120 0.37580 0.20440 0.05200
H 	H 	0.86600 0.73620 0.46780 0.01400
H 	H 	0.06670 0.71350 0.36050 0.03000
H 	H 	0.89620 0.91740 0.35480 0.04100
H 	H 	0.76790 0.67350 0.00590 0.03000
H 	H 	0.79120 0.45140 0.05050 0.03000
H 	H 	0.59310 0.61630 0.10040 0.05100
H 	H 	0.56160 0.03580 0.23550 0.00900
H 	H 	0.54580 0.21780 0.09960 0.04300
H 	H 	0.62420 0.20880 0.29560 0.05200
H 	H 	0.26380 0.13400 0.03220 0.02000
H 	H 	0.28650 0.93330 0.13950 0.03800
H 	H 	0.08260 0.10380 0.14520 0.04600
C 	C 	0.53720 0.87480 0.49550 0.51100
C 	C 	0.55850 0.79390 0.52220 -0.18200
C 	C 	0.63570 0.74750 0.52330 0.06300
C 	C 	0.65700 0.67280 0.54970 -0.10200
C 	C 	0.73980 0.62480 0.55100 0.32200
C 	C 	0.50320 0.76140 0.55100 0.02300
C 	C 	0.52280 0.68900 0.57920 -0.01200
C 	C 	0.60180 0.64280 0.57990 -0.01500
C 	C 	0.46430 0.66110 0.60990 -0.01200
C 	C 	0.41050 0.64250 0.63280 -0.00800
C 	C 	0.08580 0.51680 0.60170 0.49300
C 	C 	0.12050 0.54610 0.65600 -0.17100
C 	C 	0.08340 0.56740 0.72460 0.06800
C 	C 	0.11580 0.59600 0.77480 -0.10900
C 	C 	0.07510 0.61730 0.84780 0.36400
C 	C 	0.19120 0.55900 0.64350 0.01700
C 	C 	0.22260 0.59040 0.69320 -0.00900
C 	C 	0.18630 0.60650 0.76040 -0.01000
C 	C 	0.29150 0.60670 0.67570 -0.01100
C 	C 	0.34880 0.62360 0.65580 -0.00600
C 	C 	0.99590 0.37030 0.55860 0.48900
C 	C 	0.02780 0.28720 0.58180 -0.17300
C 	C 	0.10250 0.24190 0.56000 0.08100
C 	C 	0.12870 0.16450 0.58040 -0.14200
C 	C 	0.20670 0.11430 0.55740 0.40300
C 	C 	0.98250 0.25610 0.62460 0.02300
C 	C 	0.01060 0.17760 0.64640 -0.02500
C 	C 	0.08400 0.13320 0.62720 0.00500
C 	C 	0.96200 0.14360 0.69380 -0.01600
C 	C 	0.92690 0.11110 0.72730 -0.02200
C 	C 	0.12520 0.46280 0.00450 0.50800
C 	C 	0.20610 0.44150 0.97780 -0.17900
C 	C 	0.25250 0.36430 0.97670 0.06200
C 	C 	0.32720 0.34300 0.95030 -0.10100
C 	C 	0.37520 0.26020 0.94900 0.32100
C 	C 	0.23860 0.49680 0.94900 0.02100
C 	C 	0.31100 0.47720 0.92080 -0.01100
C 	C 	0.35720 0.39820 0.92010 -0.01600
C 	C 	0.33890 0.53570 0.89010 -0.01200
C 	C 	0.35750 0.58950 0.86720 -0.00700
C 	C 	0.48320 0.91420 0.89830 0.49100
C 	C 	0.45390 0.87950 0.84400 -0.17000
C 	C 	0.43260 0.91660 0.77540 0.06800
C 	C 	0.40400 0.88420 0.72520 -0.10900
C 	C 	0.38270 0.92490 0.65220 0.36400
C 	C 	0.44100 0.80880 0.85650 0.01600
C 	C 	0.40960 0.77740 0.80680 -0.00800
C 	C 	0.39350 0.81370 0.73960 -0.01000
C 	C 	0.39330 0.70850 0.82430 -0.01100
C 	C 	0.37640 0.65120 0.84420 -0.00600
C 	C 	0.62970 0.00410 0.94140 0.47000
C 	C 	0.71280 0.97220 0.91820 -0.15000
C 	C 	0.75810 0.89750 0.94000 0.06600
C 	C 	0.83550 0.87130 0.91960 -0.13100
C 	C 	0.88570 0.79330 0.94260 0.39900
C 	C 	0.74390 0.01750 0.87540 -0.00300
C 	C 	0.82240 0.98940 0.85360 -0.00500
C 	C 	0.86680 0.91600 0.87280 -0.00900
C 	C 	0.85640 0.03800 0.80620 -0.02900
C 	C 	0.88890 0.07310 0.77270 -0.01200
C 	C 	0.46280 0.12520 0.50450 0.51100
C 	C 	0.44150 0.20610 0.47780 -0.18200
C 	C 	0.36430 0.25250 0.47670 0.06300
C 	C 	0.34300 0.32720 0.45030 -0.10200
C 	C 	0.26020 0.37520 0.44900 0.32200
C 	C 	0.49680 0.23860 0.44900 0.02300
C 	C 	0.47720 0.31100 0.42080 -0.01200
C 	C 	0.39820 0.35720 0.42010 -0.01500
C 	C 	0.53570 0.33890 0.39010 -0.01200
C 	C 	0.58950 0.35750 0.36720 -0.00800
C 	C 	0.91420 0.48320 0.39830 0.49300
C 	C 	0.87950 0.45390 0.34400 -0.17100
C 	C 	0.91660 0.43260 0.27540 0.06800
C 	C 	0.88420 0.40400 0.22520 -0.10900
C 	C 	0.92490 0.38270 0.15220 0.36400
C 	C 	0.80880 0.44100 0.35650 0.01700
C 	C 	0.77740 0.40960 0.30680 -0.00900
C 	C 	0.81370 0.39350 0.23960 -0.01000
C 	C 	0.70850 0.39330 0.32430 -0.01100
C 	C 	0.65120 0.37640 0.34420 -0.00600
C 	C 	0.00410 0.62970 0.44140 0.48900
C 	C 	0.97220 0.71280 0.41820 -0.17300
C 	C 	0.89750 0.75810 0.44000 0.08100
C 	C 	0.87130 0.83550 0.41960 -0.14200
C 	C 	0.79330 0.88570 0.44260 0.40300
C 	C 	0.01750 0.74390 0.37540 0.02300
C 	C 	0.98940 0.82240 0.35360 -0.02500
C 	C 	0.91600 0.86680 0.37280 0.00500
C 	C 	0.03800 0.85640 0.30620 -0.01600
C 	C 	0.07310 0.88890 0.27270 -0.02200
C 	C 	0.87480 0.53720 0.99550 0.50800
C 	C 	0.79390 0.55850 0.02220 -0.17900
C 	C 	0.74750 0.63570 0.02330 0.06200
C 	C 	0.67280 0.65700 0.04970 -0.10100
C 	C 	0.62480 0.73980 0.05100 0.32100
C 	C 	0.76140 0.50320 0.05100 0.02100
C 	C 	0.68900 0.52280 0.07920 -0.01100
C 	C 	0.64280 0.60180 0.07990 -0.01600
C 	C 	0.66110 0.46430 0.10990 -0.01200
C 	C 	0.64250 0.41050 0.13280 -0.00700
C 	C 	0.51680 0.08580 0.10170 0.49100
C 	C 	0.54610 0.12050 0.15600 -0.17000
C 	C 	0.56740 0.08340 0.22460 0.06800
C 	C 	0.59600 0.11580 0.27480 -0.10900
C 	C 	0.61730 0.07510 0.34780 0.36400
C 	C 	0.55900 0.19120 0.14350 0.01600
C 	C 	0.59040 0.22260 0.19320 -0.00800
C 	C 	0.60650 0.18630 0.26040 -0.01000
C 	C 	0.60670 0.29150 0.17570 -0.01100
C 	C 	0.62360 0.34880 0.15580 -0.00600
C 	C 	0.37030 0.99590 0.05860 0.47000
C 	C 	0.28720 0.02780 0.08180 -0.15000
C 	C 	0.24190 0.10250 0.06000 0.06600
C 	C 	0.16450 0.12870 0.08040 -0.13100
C 	C 	0.11430 0.20670 0.05740 0.39900
C 	C 	0.25610 0.98250 0.12460 -0.00300
C 	C 	0.17760 0.01060 0.14640 -0.00500
C 	C 	0.13320 0.08400 0.12720 -0.00900
C 	C 	0.14360 0.96200 0.19380 -0.02900
C 	C 	0.11110 0.92690 0.22730 -0.01200
O 	O 	0.46540 0.91180 0.49150 -0.54800
O 	O 	0.58800 0.90080 0.47430 -0.54100
O 	O 	0.78830 0.65350 0.52300 -0.41600
O 	O 	0.75920 0.55800 0.57800 -0.41600
O 	O 	0.12240 0.49760 0.54540 -0.48600
O 	O 	0.01860 0.51380 0.61820 -0.53200
O 	O 	0.09830 0.65010 0.88900 -0.41900
O 	O 	0.01600 0.59740 0.86230 -0.42600
O 	O 	0.93320 0.40920 0.58620 -0.50000
O 	O 	0.03330 0.39650 0.51210 -0.54900
O 	O 	0.24400 0.13160 0.50850 -0.46200
O 	O 	0.23720 0.05500 0.59340 -0.46000
O 	O 	0.08820 0.53460 0.00850 -0.54900
O 	O 	0.09920 0.41200 0.02570 -0.54000
O 	O 	0.34650 0.21170 0.97700 -0.41700
O 	O 	0.44200 0.24080 0.92200 -0.41600
O 	O 	0.50240 0.87760 0.95460 -0.48300
O 	O 	0.48620 0.98140 0.88180 -0.52900
O 	O 	0.34990 0.90170 0.61100 -0.42000
O 	O 	0.40260 0.98400 0.63770 -0.42800
O 	O 	0.59080 0.06680 0.91380 -0.49600
O 	O 	0.60350 0.96670 0.98790 -0.53900
O 	O 	0.86840 0.75600 0.99150 -0.46100
O 	O 	0.94500 0.76280 0.90660 -0.45800
O 	O 	0.53460 0.08820 0.50850 -0.54800
O 	O 	0.41200 0.09920 0.52570 -0.54100
O 	O 	0.21170 0.34650 0.47700 -0.41600
O 	O 	0.24080 0.44200 0.42200 -0.41600
O 	O 	0.87760 0.50240 0.45460 -0.48600
O 	O 	0.98140 0.48620 0.38180 -0.53200
O 	O 	0.90170 0.34990 0.11100 -0.41900
O 	O 	0.98400 0.40260 0.13770 -0.42600
O 	O 	0.06680 0.59080 0.41380 -0.50000
O 	O 	0.96670 0.60350 0.48790 -0.54900
O 	O 	0.75600 0.86840 0.49150 -0.46200
O 	O 	0.76280 0.94500 0.40660 -0.46000
O 	O 	0.91180 0.46540 0.99150 -0.54900
O 	O 	0.90080 0.58800 0.97430 -0.54000
O 	O 	0.65350 0.78830 0.02300 -0.41700
O 	O 	0.55800 0.75920 0.07800 -0.41600
O 	O 	0.49760 0.12240 0.04540 -0.48300
O 	O 	0.51380 0.01860 0.11820 -0.52900
O 	O 	0.65010 0.09830 0.38900 -0.42000
O 	O 	0.59740 0.01600 0.36230 -0.42800
O 	O 	0.40920 0.93320 0.08620 -0.49600
O 	O 	0.39650 0.03330 0.01210 -0.53900
O 	O 	0.13160 0.24400 0.00850 -0.46100
O 	O 	0.05500 0.23720 0.09340 -0.45800
