data_crystal

_cell_length_a 29.95370
_cell_length_b 21.13980
_cell_length_c 19.43850
_cell_angle_alpha 90.00000
_cell_angle_beta  93.98000
_cell_angle_gamma 90.00000

_symmetry_space_group_name_	'P 1'
_symmetry_space_group_name_H-M	'P 1'

loop_
_symmetry_equiv_pos_as_xyz
  x,y,z

loop_
_atom_site_label
_atom_site_type_symbol
_atom_site_fract_x
_atom_site_fract_y
_atom_site_fract_z
_atom_site_charge
Dy	Dy	0.27653 0.17457 0.05885 1.71900
Dy	Dy	0.18123 0.83030 0.96348 1.66300
O 	O 	0.34030 0.10140 0.07300 -0.39900
O 	O 	0.28000 0.06900 0.01550 -0.42100
O 	O 	0.25730 0.84010 0.96890 -0.51900
O 	O 	0.30920 0.77180 0.00160 -0.54700
O 	O 	0.62780 0.72290 0.38130 -0.39800
O 	O 	0.69592 0.70850 0.35150 -0.40300
O 	O 	0.68886 0.80880 0.04470 -0.45400
O 	O 	0.73127 0.74550 0.11320 -0.51800
O 	O 	0.14620 0.90970 0.89300 -0.42600
O 	O 	0.19100 0.94490 0.97370 -0.42600
O 	O 	0.21560 0.18410 0.98140 -0.52400
O 	O 	0.17115 0.24390 0.91220 -0.45200
C 	C 	0.31720 0.05750 0.04380 0.32500
C 	C 	0.33420 0.99090 0.04640 -0.09400
C 	C 	0.37670 0.97790 0.07810 -0.01700
H 	H 	0.39410 0.01080 0.09700 0.05300
C 	C 	0.39310 0.91620 0.08170 -0.00900
C 	C 	0.36480 0.86700 0.05520 0.02400
H 	H 	0.37470 0.82540 0.05870 0.03000
C 	C 	0.32390 0.87920 0.02510 -0.17000
C 	C 	0.30750 0.94110 0.01850 0.05400
H 	H 	0.27950 0.94910 0.99620 0.03400
C 	C 	0.29450 0.82570 0.99560 0.52400
C 	C 	0.43600 0.90240 0.11200 -0.00900
C 	C 	0.47250 0.88550 0.13340 -0.00800
C 	C 	0.51430 0.86360 0.15740 -0.00200
C 	C 	0.55020 0.84150 0.17530 -0.01500
C 	C 	0.59210 0.81530 0.19330 0.00400
C 	C 	0.60380 0.78770 0.25650 -0.02400
H 	H 	0.58390 0.78970 0.29120 0.05700
C 	C 	0.64450 0.75710 0.26930 -0.08600
C 	C 	0.67510 0.75530 0.21790 0.04600
H 	H 	0.70240 0.73490 0.22670 0.02400
C 	C 	0.66540 0.78380 0.15340 -0.14700
C 	C 	0.62370 0.81250 0.14070 0.00300
H 	H 	0.61610 0.83010 0.09760 0.04800
C 	C 	0.65690 0.72750 0.33870 0.33500
C 	C 	0.69830 0.77940 0.10070 0.47200
C 	C 	0.16200 0.95530 0.92700 0.35000
C 	C 	0.14770 0.01960 0.90720 -0.10800
C 	C 	0.17230 0.07320 0.93270 0.05000
H 	H 	0.19790 0.06770 0.96210 0.02700
C 	C 	0.15800 0.13480 0.91320 -0.14500
C 	C 	0.11770 0.14290 0.87330 -0.00100
H 	H 	0.10690 0.18340 0.86330 0.04400
C 	C 	0.09320 0.08940 0.84810 -0.00500
C 	C 	0.10870 0.02870 0.86640 -0.01500
H 	H 	0.09230 0.99360 0.85060 0.04800
C 	C 	0.05450 0.09650 0.80360 -0.02000
C 	C 	0.01900 0.09810 0.77180 -0.01300
C 	C 	0.18350 0.19030 0.93780 0.44500
Dy	Dy	0.77653 0.67457 0.05885 1.72000
Dy	Dy	0.68123 0.33030 0.96348 1.66200
O 	O 	0.84030 0.60140 0.07300 -0.39900
O 	O 	0.78000 0.56900 0.01550 -0.42100
O 	O 	0.75730 0.34010 0.96890 -0.51900
O 	O 	0.80920 0.27180 0.00160 -0.54900
O 	O 	0.12780 0.22290 0.38130 -0.39800
O 	O 	0.19592 0.20850 0.35150 -0.40300
O 	O 	0.18886 0.30880 0.04470 -0.45500
O 	O 	0.23127 0.24550 0.11320 -0.51800
O 	O 	0.64620 0.40970 0.89300 -0.42600
O 	O 	0.69100 0.44490 0.97370 -0.42500
O 	O 	0.71560 0.68410 0.98140 -0.52400
O 	O 	0.67115 0.74390 0.91220 -0.45300
C 	C 	0.81720 0.55750 0.04380 0.32600
C 	C 	0.83420 0.49090 0.04640 -0.09300
C 	C 	0.87670 0.47790 0.07810 -0.02000
H 	H 	0.89410 0.51080 0.09700 0.05500
C 	C 	0.89310 0.41620 0.08170 -0.00800
C 	C 	0.86480 0.36700 0.05520 0.02400
H 	H 	0.87470 0.32540 0.05870 0.03000
C 	C 	0.82390 0.37920 0.02510 -0.17100
C 	C 	0.80750 0.44110 0.01850 0.05100
H 	H 	0.77950 0.44910 0.99620 0.03500
C 	C 	0.79450 0.32570 0.99560 0.52700
C 	C 	0.93600 0.40240 0.11200 -0.01000
C 	C 	0.97250 0.38550 0.13340 -0.00800
C 	C 	0.01430 0.36360 0.15740 -0.00300
C 	C 	0.05020 0.34150 0.17530 -0.01500
C 	C 	0.09210 0.31530 0.19330 0.00400
C 	C 	0.10380 0.28770 0.25650 -0.02400
H 	H 	0.08390 0.28970 0.29120 0.05700
C 	C 	0.14450 0.25710 0.26930 -0.08700
C 	C 	0.17510 0.25530 0.21790 0.04600
H 	H 	0.20240 0.23490 0.22670 0.02400
C 	C 	0.16540 0.28380 0.15340 -0.14700
C 	C 	0.12370 0.31250 0.14070 0.00300
H 	H 	0.11610 0.33010 0.09760 0.04800
C 	C 	0.15690 0.22750 0.33870 0.33500
C 	C 	0.19830 0.27940 0.10070 0.47200
C 	C 	0.66200 0.45530 0.92700 0.35100
C 	C 	0.64770 0.51960 0.90720 -0.10900
C 	C 	0.67230 0.57320 0.93270 0.05000
H 	H 	0.69790 0.56770 0.96210 0.02600
C 	C 	0.65800 0.63480 0.91320 -0.14500
C 	C 	0.61770 0.64290 0.87330 -0.00100
H 	H 	0.60690 0.68340 0.86330 0.04400
C 	C 	0.59320 0.58940 0.84810 -0.00400
C 	C 	0.60870 0.52870 0.86640 -0.01700
H 	H 	0.59230 0.49360 0.85060 0.05000
C 	C 	0.55450 0.59650 0.80360 -0.02100
C 	C 	0.51900 0.59810 0.77180 -0.01300
C 	C 	0.68350 0.69030 0.93780 0.44500
Dy	Dy	0.72347 0.17457 0.44115 1.71900
Dy	Dy	0.81877 0.83030 0.53652 1.66200
O 	O 	0.65970 0.10140 0.42700 -0.39900
O 	O 	0.72000 0.06900 0.48450 -0.42100
O 	O 	0.74270 0.84010 0.53110 -0.51900
O 	O 	0.69080 0.77180 0.49840 -0.54800
O 	O 	0.37220 0.72290 0.11870 -0.39800
O 	O 	0.30408 0.70850 0.14850 -0.40200
O 	O 	0.31114 0.80880 0.45530 -0.45500
O 	O 	0.26873 0.74550 0.38680 -0.51800
O 	O 	0.85380 0.90970 0.60700 -0.42600
O 	O 	0.80900 0.94490 0.52630 -0.42600
O 	O 	0.78440 0.18410 0.51860 -0.52400
O 	O 	0.82885 0.24390 0.58780 -0.45300
C 	C 	0.68280 0.05750 0.45620 0.32500
C 	C 	0.66580 0.99090 0.45360 -0.09300
C 	C 	0.62330 0.97790 0.42190 -0.02000
H 	H 	0.60590 0.01080 0.40300 0.05400
C 	C 	0.60690 0.91620 0.41830 -0.00800
C 	C 	0.63520 0.86700 0.44480 0.02400
H 	H 	0.62530 0.82540 0.44130 0.03000
C 	C 	0.67610 0.87920 0.47490 -0.17000
C 	C 	0.69250 0.94110 0.48150 0.05100
H 	H 	0.72050 0.94910 0.50380 0.03500
C 	C 	0.70550 0.82570 0.50440 0.52600
C 	C 	0.56400 0.90240 0.38800 -0.01000
C 	C 	0.52750 0.88550 0.36660 -0.00800
C 	C 	0.48570 0.86360 0.34260 -0.00200
C 	C 	0.44980 0.84150 0.32470 -0.01500
C 	C 	0.40790 0.81530 0.30670 0.00400
C 	C 	0.39620 0.78770 0.24350 -0.02400
H 	H 	0.41610 0.78970 0.20880 0.05700
C 	C 	0.35550 0.75710 0.23070 -0.08600
C 	C 	0.32490 0.75530 0.28210 0.04600
H 	H 	0.29760 0.73490 0.27330 0.02400
C 	C 	0.33460 0.78380 0.34660 -0.14700
C 	C 	0.37630 0.81250 0.35930 0.00300
H 	H 	0.38390 0.83010 0.40240 0.04800
C 	C 	0.34310 0.72750 0.16130 0.33500
C 	C 	0.30170 0.77940 0.39930 0.47200
C 	C 	0.83800 0.95530 0.57300 0.35100
C 	C 	0.85230 0.01960 0.59280 -0.10900
C 	C 	0.82770 0.07320 0.56730 0.05000
H 	H 	0.80210 0.06770 0.53790 0.02600
C 	C 	0.84200 0.13480 0.58680 -0.14500
C 	C 	0.88230 0.14290 0.62670 -0.00100
H 	H 	0.89310 0.18340 0.63670 0.04400
C 	C 	0.90680 0.08940 0.65190 -0.00500
C 	C 	0.89130 0.02870 0.63360 -0.01600
H 	H 	0.90770 0.99360 0.64940 0.04900
C 	C 	0.94550 0.09650 0.69640 -0.02000
C 	C 	0.98100 0.09810 0.72820 -0.01300
C 	C 	0.81650 0.19030 0.56220 0.44500
Dy	Dy	0.22347 0.67457 0.44115 1.71900
Dy	Dy	0.31877 0.33030 0.53652 1.66200
O 	O 	0.15970 0.60140 0.42700 -0.39900
O 	O 	0.22000 0.56900 0.48450 -0.42100
O 	O 	0.24270 0.34010 0.53110 -0.51900
O 	O 	0.19080 0.27180 0.49840 -0.54800
O 	O 	0.87220 0.22290 0.11870 -0.39800
O 	O 	0.80408 0.20850 0.14850 -0.40300
O 	O 	0.81114 0.30880 0.45530 -0.45500
O 	O 	0.76873 0.24550 0.38680 -0.51800
O 	O 	0.35380 0.40970 0.60700 -0.42600
O 	O 	0.30900 0.44490 0.52630 -0.42500
O 	O 	0.28440 0.68410 0.51860 -0.52400
O 	O 	0.32885 0.74390 0.58780 -0.45300
C 	C 	0.18280 0.55750 0.45620 0.32600
C 	C 	0.16580 0.49090 0.45360 -0.09300
C 	C 	0.12330 0.47790 0.42190 -0.02000
H 	H 	0.10590 0.51080 0.40300 0.05500
C 	C 	0.10690 0.41620 0.41830 -0.00800
C 	C 	0.13520 0.36700 0.44480 0.02400
H 	H 	0.12530 0.32540 0.44130 0.03000
C 	C 	0.17610 0.37920 0.47490 -0.17000
C 	C 	0.19250 0.44110 0.48150 0.05100
H 	H 	0.22050 0.44910 0.50380 0.03500
C 	C 	0.20550 0.32570 0.50440 0.52600
C 	C 	0.06400 0.40240 0.38800 -0.01000
C 	C 	0.02750 0.38550 0.36660 -0.00800
C 	C 	0.98570 0.36360 0.34260 -0.00300
C 	C 	0.94980 0.34150 0.32470 -0.01500
C 	C 	0.90790 0.31530 0.30670 0.00400
C 	C 	0.89620 0.28770 0.24350 -0.02400
H 	H 	0.91610 0.28970 0.20880 0.05700
C 	C 	0.85550 0.25710 0.23070 -0.08700
C 	C 	0.82490 0.25530 0.28210 0.04600
H 	H 	0.79760 0.23490 0.27330 0.02400
C 	C 	0.83460 0.28380 0.34660 -0.14700
C 	C 	0.87630 0.31250 0.35930 0.00300
H 	H 	0.88390 0.33010 0.40240 0.04800
C 	C 	0.84310 0.22750 0.16130 0.33500
C 	C 	0.80170 0.27940 0.39930 0.47200
C 	C 	0.33800 0.45530 0.57300 0.35100
C 	C 	0.35230 0.51960 0.59280 -0.10900
C 	C 	0.32770 0.57320 0.56730 0.05000
H 	H 	0.30210 0.56770 0.53790 0.02600
C 	C 	0.34200 0.63480 0.58680 -0.14500
C 	C 	0.38230 0.64290 0.62670 -0.00100
H 	H 	0.39310 0.68340 0.63670 0.04400
C 	C 	0.40680 0.58940 0.65190 -0.00400
C 	C 	0.39130 0.52870 0.63360 -0.01700
H 	H 	0.40770 0.49360 0.64940 0.05000
C 	C 	0.44550 0.59650 0.69640 -0.02100
C 	C 	0.48100 0.59810 0.72820 -0.01300
C 	C 	0.31650 0.69030 0.56220 0.44500
Dy	Dy	0.72347 0.82543 0.94115 1.71800
Dy	Dy	0.81877 0.16970 0.03652 1.66200
O 	O 	0.65970 0.89860 0.92700 -0.39900
O 	O 	0.72000 0.93100 0.98450 -0.42100
O 	O 	0.74270 0.15990 0.03110 -0.51900
O 	O 	0.69080 0.22820 0.99840 -0.54700
O 	O 	0.37220 0.27710 0.61870 -0.39800
O 	O 	0.30408 0.29150 0.64850 -0.40300
O 	O 	0.31114 0.19120 0.95530 -0.45400
O 	O 	0.26873 0.25450 0.88680 -0.51800
O 	O 	0.85380 0.09030 0.10700 -0.42600
O 	O 	0.80900 0.05510 0.02630 -0.42600
O 	O 	0.78440 0.81590 0.01860 -0.52400
O 	O 	0.82885 0.75610 0.08780 -0.45200
C 	C 	0.68280 0.94250 0.95620 0.32500
C 	C 	0.66580 0.00910 0.95360 -0.09400
C 	C 	0.62330 0.02210 0.92190 -0.01700
H 	H 	0.60590 0.98920 0.90300 0.05300
C 	C 	0.60690 0.08380 0.91830 -0.00900
C 	C 	0.63520 0.13300 0.94480 0.02400
H 	H 	0.62530 0.17460 0.94130 0.03000
C 	C 	0.67610 0.12080 0.97490 -0.17000
C 	C 	0.69250 0.05890 0.98150 0.05400
H 	H 	0.72050 0.05090 0.00380 0.03400
C 	C 	0.70550 0.17430 0.00440 0.52400
C 	C 	0.56400 0.09760 0.88800 -0.00900
C 	C 	0.52750 0.11450 0.86660 -0.00800
C 	C 	0.48570 0.13640 0.84260 -0.00200
C 	C 	0.44980 0.15850 0.82470 -0.01500
C 	C 	0.40790 0.18470 0.80670 0.00400
C 	C 	0.39620 0.21230 0.74350 -0.02400
H 	H 	0.41610 0.21030 0.70880 0.05700
C 	C 	0.35550 0.24290 0.73070 -0.08600
C 	C 	0.32490 0.24470 0.78210 0.04600
H 	H 	0.29760 0.26510 0.77330 0.02400
C 	C 	0.33460 0.21620 0.84660 -0.14700
C 	C 	0.37630 0.18750 0.85930 0.00300
H 	H 	0.38390 0.16990 0.90240 0.04800
C 	C 	0.34310 0.27250 0.66130 0.33500
C 	C 	0.30170 0.22060 0.89930 0.47200
C 	C 	0.83800 0.04470 0.07300 0.35000
C 	C 	0.85230 0.98040 0.09280 -0.10800
C 	C 	0.82770 0.92680 0.06730 0.05000
H 	H 	0.80210 0.93230 0.03790 0.02700
C 	C 	0.84200 0.86520 0.08680 -0.14500
C 	C 	0.88230 0.85710 0.12670 -0.00100
H 	H 	0.89310 0.81660 0.13670 0.04400
C 	C 	0.90680 0.91060 0.15190 -0.00500
C 	C 	0.89130 0.97130 0.13360 -0.01500
H 	H 	0.90770 0.00640 0.14940 0.04800
C 	C 	0.94550 0.90350 0.19640 -0.02000
C 	C 	0.98100 0.90190 0.22820 -0.01300
C 	C 	0.81650 0.80970 0.06220 0.44500
Dy	Dy	0.22347 0.32543 0.94115 1.72000
Dy	Dy	0.31877 0.66970 0.03652 1.66200
O 	O 	0.15970 0.39860 0.92700 -0.39900
O 	O 	0.22000 0.43100 0.98450 -0.42100
O 	O 	0.24270 0.65990 0.03110 -0.51900
O 	O 	0.19080 0.72820 0.99840 -0.54900
O 	O 	0.87220 0.77710 0.61870 -0.39800
O 	O 	0.80408 0.79150 0.64850 -0.40300
O 	O 	0.81114 0.69120 0.95530 -0.45500
O 	O 	0.76873 0.75450 0.88680 -0.51800
O 	O 	0.35380 0.59030 0.10700 -0.42600
O 	O 	0.30900 0.55510 0.02630 -0.42500
O 	O 	0.28440 0.31590 0.01860 -0.52400
O 	O 	0.32885 0.25610 0.08780 -0.45300
C 	C 	0.18280 0.44250 0.95620 0.32600
C 	C 	0.16580 0.50910 0.95360 -0.09300
C 	C 	0.12330 0.52210 0.92190 -0.02000
H 	H 	0.10590 0.48920 0.90300 0.05500
C 	C 	0.10690 0.58380 0.91830 -0.00800
C 	C 	0.13520 0.63300 0.94480 0.02400
H 	H 	0.12530 0.67460 0.94130 0.03000
C 	C 	0.17610 0.62080 0.97490 -0.17100
C 	C 	0.19250 0.55890 0.98150 0.05100
H 	H 	0.22050 0.55090 0.00380 0.03500
C 	C 	0.20550 0.67430 0.00440 0.52700
C 	C 	0.06400 0.59760 0.88800 -0.01000
C 	C 	0.02750 0.61450 0.86660 -0.00800
C 	C 	0.98570 0.63640 0.84260 -0.00300
C 	C 	0.94980 0.65850 0.82470 -0.01500
C 	C 	0.90790 0.68470 0.80670 0.00400
C 	C 	0.89620 0.71230 0.74350 -0.02400
H 	H 	0.91610 0.71030 0.70880 0.05700
C 	C 	0.85550 0.74290 0.73070 -0.08700
C 	C 	0.82490 0.74470 0.78210 0.04600
H 	H 	0.79760 0.76510 0.77330 0.02400
C 	C 	0.83460 0.71620 0.84660 -0.14700
C 	C 	0.87630 0.68750 0.85930 0.00300
H 	H 	0.88390 0.66990 0.90240 0.04800
C 	C 	0.84310 0.77250 0.66130 0.33500
C 	C 	0.80170 0.72060 0.89930 0.47200
C 	C 	0.33800 0.54470 0.07300 0.35100
C 	C 	0.35230 0.48040 0.09280 -0.10900
C 	C 	0.32770 0.42680 0.06730 0.05000
H 	H 	0.30210 0.43230 0.03790 0.02600
C 	C 	0.34200 0.36520 0.08680 -0.14500
C 	C 	0.38230 0.35710 0.12670 -0.00100
H 	H 	0.39310 0.31660 0.13670 0.04400
C 	C 	0.40680 0.41060 0.15190 -0.00400
C 	C 	0.39130 0.47130 0.13360 -0.01700
H 	H 	0.40770 0.50640 0.14940 0.05000
C 	C 	0.44550 0.40350 0.19640 -0.02100
C 	C 	0.48100 0.40190 0.22820 -0.01300
C 	C 	0.31650 0.30970 0.06220 0.44500
Dy	Dy	0.27653 0.82543 0.55885 1.71900
Dy	Dy	0.18123 0.16970 0.46348 1.66200
O 	O 	0.34030 0.89860 0.57300 -0.39900
O 	O 	0.28000 0.93100 0.51550 -0.42100
O 	O 	0.25730 0.15990 0.46890 -0.51900
O 	O 	0.30920 0.22820 0.50160 -0.54800
O 	O 	0.62780 0.27710 0.88130 -0.39800
O 	O 	0.69592 0.29150 0.85150 -0.40200
O 	O 	0.68886 0.19120 0.54470 -0.45500
O 	O 	0.73127 0.25450 0.61320 -0.51800
O 	O 	0.14620 0.09030 0.39300 -0.42600
O 	O 	0.19100 0.05510 0.47370 -0.42600
O 	O 	0.21560 0.81590 0.48140 -0.52400
O 	O 	0.17115 0.75610 0.41220 -0.45300
C 	C 	0.31720 0.94250 0.54380 0.32500
C 	C 	0.33420 0.00910 0.54640 -0.09300
C 	C 	0.37670 0.02210 0.57810 -0.02000
H 	H 	0.39410 0.98920 0.59700 0.05400
C 	C 	0.39310 0.08380 0.58170 -0.00800
C 	C 	0.36480 0.13300 0.55520 0.02400
H 	H 	0.37470 0.17460 0.55870 0.03000
C 	C 	0.32390 0.12080 0.52510 -0.17000
C 	C 	0.30750 0.05890 0.51850 0.05100
H 	H 	0.27950 0.05090 0.49620 0.03500
C 	C 	0.29450 0.17430 0.49560 0.52600
C 	C 	0.43600 0.09760 0.61200 -0.01000
C 	C 	0.47250 0.11450 0.63340 -0.00800
C 	C 	0.51430 0.13640 0.65740 -0.00200
C 	C 	0.55020 0.15850 0.67530 -0.01500
C 	C 	0.59210 0.18470 0.69330 0.00400
C 	C 	0.60380 0.21230 0.75650 -0.02400
H 	H 	0.58390 0.21030 0.79120 0.05700
C 	C 	0.64450 0.24290 0.76930 -0.08600
C 	C 	0.67510 0.24470 0.71790 0.04600
H 	H 	0.70240 0.26510 0.72670 0.02400
C 	C 	0.66540 0.21620 0.65340 -0.14700
C 	C 	0.62370 0.18750 0.64070 0.00300
H 	H 	0.61610 0.16990 0.59760 0.04800
C 	C 	0.65690 0.27250 0.83870 0.33500
C 	C 	0.69830 0.22060 0.60070 0.47200
C 	C 	0.16200 0.04470 0.42700 0.35100
C 	C 	0.14770 0.98040 0.40720 -0.10900
C 	C 	0.17230 0.92680 0.43270 0.05000
H 	H 	0.19790 0.93230 0.46210 0.02600
C 	C 	0.15800 0.86520 0.41320 -0.14500
C 	C 	0.11770 0.85710 0.37330 -0.00100
H 	H 	0.10690 0.81660 0.36330 0.04400
C 	C 	0.09320 0.91060 0.34810 -0.00500
C 	C 	0.10870 0.97130 0.36640 -0.01600
H 	H 	0.09230 0.00640 0.35060 0.04900
C 	C 	0.05450 0.90350 0.30360 -0.02000
C 	C 	0.01900 0.90190 0.27180 -0.01300
C 	C 	0.18350 0.80970 0.43780 0.44500
Dy	Dy	0.77653 0.32543 0.55885 1.71900
Dy	Dy	0.68123 0.66970 0.46348 1.66200
O 	O 	0.84030 0.39860 0.57300 -0.39900
O 	O 	0.78000 0.43100 0.51550 -0.42100
O 	O 	0.75730 0.65990 0.46890 -0.51900
O 	O 	0.80920 0.72820 0.50160 -0.54800
O 	O 	0.12780 0.77710 0.88130 -0.39800
O 	O 	0.19592 0.79150 0.85150 -0.40300
O 	O 	0.18886 0.69120 0.54470 -0.45500
O 	O 	0.23127 0.75450 0.61320 -0.51800
O 	O 	0.64620 0.59030 0.39300 -0.42600
O 	O 	0.69100 0.55510 0.47370 -0.42500
O 	O 	0.71560 0.31590 0.48140 -0.52400
O 	O 	0.67115 0.25610 0.41220 -0.45300
C 	C 	0.81720 0.44250 0.54380 0.32600
C 	C 	0.83420 0.50910 0.54640 -0.09300
C 	C 	0.87670 0.52210 0.57810 -0.02000
H 	H 	0.89410 0.48920 0.59700 0.05500
C 	C 	0.89310 0.58380 0.58170 -0.00800
C 	C 	0.86480 0.63300 0.55520 0.02400
H 	H 	0.87470 0.67460 0.55870 0.03000
C 	C 	0.82390 0.62080 0.52510 -0.17000
C 	C 	0.80750 0.55890 0.51850 0.05100
H 	H 	0.77950 0.55090 0.49620 0.03500
C 	C 	0.79450 0.67430 0.49560 0.52600
C 	C 	0.93600 0.59760 0.61200 -0.01000
C 	C 	0.97250 0.61450 0.63340 -0.00800
C 	C 	0.01430 0.63640 0.65740 -0.00300
C 	C 	0.05020 0.65850 0.67530 -0.01500
C 	C 	0.09210 0.68470 0.69330 0.00400
C 	C 	0.10380 0.71230 0.75650 -0.02400
H 	H 	0.08390 0.71030 0.79120 0.05700
C 	C 	0.14450 0.74290 0.76930 -0.08700
C 	C 	0.17510 0.74470 0.71790 0.04600
H 	H 	0.20240 0.76510 0.72670 0.02400
C 	C 	0.16540 0.71620 0.65340 -0.14700
C 	C 	0.12370 0.68750 0.64070 0.00300
H 	H 	0.11610 0.66990 0.59760 0.04800
C 	C 	0.15690 0.77250 0.83870 0.33500
C 	C 	0.19830 0.72060 0.60070 0.47200
C 	C 	0.66200 0.54470 0.42700 0.35100
C 	C 	0.64770 0.48040 0.40720 -0.10900
C 	C 	0.67230 0.42680 0.43270 0.05000
H 	H 	0.69790 0.43230 0.46210 0.02600
C 	C 	0.65800 0.36520 0.41320 -0.14500
C 	C 	0.61770 0.35710 0.37330 -0.00100
H 	H 	0.60690 0.31660 0.36330 0.04400
C 	C 	0.59320 0.41060 0.34810 -0.00400
C 	C 	0.60870 0.47130 0.36640 -0.01700
H 	H 	0.59230 0.50640 0.35060 0.05000
C 	C 	0.55450 0.40350 0.30360 -0.02100
C 	C 	0.51900 0.40190 0.27180 -0.01300
C 	C 	0.68350 0.30970 0.43780 0.44500
