data_crystal

_cell_length_a 30.00580
_cell_length_b 21.24400
_cell_length_c 19.59430
_cell_angle_alpha 90.00000
_cell_angle_beta  93.87000
_cell_angle_gamma 90.00000

_symmetry_space_group_name_	'P 1'
_symmetry_space_group_name_H-M	'P 1'

loop_
_symmetry_equiv_pos_as_xyz
  x,y,z

loop_
_atom_site_label
_atom_site_type_symbol
_atom_site_fract_x
_atom_site_fract_y
_atom_site_fract_z
_atom_site_charge
Eu	Eu	0.27613 0.32595 0.55802 1.82900
Eu	Eu	0.18083 0.66840 0.46243 1.78100
O 	O 	0.34049 0.40041 0.57124 -0.41100
O 	O 	0.27989 0.43302 0.51310 -0.42100
O 	O 	0.25759 0.66123 0.46820 -0.52900
O 	O 	0.31048 0.72921 0.50137 -0.55000
O 	O 	0.68809 0.69071 0.54580 -0.46600
O 	O 	0.73066 0.75402 0.61376 -0.52400
O 	O 	0.62718 0.77708 0.87995 -0.41100
O 	O 	0.69523 0.79229 0.85019 -0.41700
O 	O 	0.19191 0.55250 0.47050 -0.43900
O 	O 	0.14595 0.58710 0.39120 -0.44100
O 	O 	0.21528 0.31292 0.47877 -0.54700
O 	O 	0.17000 0.25485 0.41133 -0.47700
C 	C 	0.31781 0.44379 0.54290 0.31200
C 	C 	0.33480 0.50957 0.54630 -0.09700
C 	C 	0.37658 0.52240 0.57740 -0.02000
H 	H 	0.39410 0.48970 0.59580 0.05200
C 	C 	0.39266 0.58452 0.58140 -0.00900
C 	C 	0.36550 0.63320 0.55510 0.01700
H 	H 	0.37570 0.67450 0.55840 0.02900
C 	C 	0.32326 0.62076 0.52380 -0.17500
C 	C 	0.30815 0.55934 0.51940 0.05600
H 	H 	0.28010 0.55080 0.49850 0.02900
C 	C 	0.29536 0.67400 0.49530 0.50300
C 	C 	0.43582 0.59870 0.61280 -0.01200
C 	C 	0.47188 0.61540 0.63620 -0.00800
C 	C 	0.51346 0.63580 0.65900 -0.00400
C 	C 	0.54996 0.65630 0.67800 -0.01500
C 	C 	0.59235 0.68440 0.69350 0.00300
C 	C 	0.62326 0.68660 0.64170 -0.00100
H 	H 	0.61620 0.66800 0.59940 0.04800
C 	C 	0.66425 0.71690 0.65480 -0.14400
C 	C 	0.67461 0.74380 0.71820 0.04800
H 	H 	0.70230 0.76270 0.72710 0.02000
C 	C 	0.64395 0.74300 0.76950 -0.09400
C 	C 	0.60305 0.71300 0.75640 -0.02200
H 	H 	0.58260 0.71200 0.79010 0.05500
C 	C 	0.69692 0.72052 0.60100 0.45800
C 	C 	0.65595 0.77270 0.83680 0.33300
C 	C 	0.16253 0.54250 0.42460 0.34800
C 	C 	0.14819 0.47720 0.40620 -0.10800
C 	C 	0.17220 0.42470 0.43020 0.05200
H 	H 	0.19850 0.42970 0.45760 0.01900
C 	C 	0.15674 0.36443 0.41310 -0.14300
C 	C 	0.11744 0.35644 0.37230 -0.00500
H 	H 	0.10720 0.31620 0.36100 0.04300
C 	C 	0.09345 0.40920 0.34860 -0.00400
C 	C 	0.10920 0.47010 0.36480 -0.02100
H 	H 	0.09360 0.50530 0.34790 0.04900
C 	C 	0.18223 0.30660 0.43660 0.45100
C 	C 	0.05330 0.40270 0.30420 -0.02400
C 	C 	0.01967 0.40040 0.27040 -0.01500
Eu	Eu	0.77613 0.82595 0.55802 1.83000
Eu	Eu	0.68083 0.16840 0.46243 1.78200
O 	O 	0.84049 0.90041 0.57124 -0.41000
O 	O 	0.77989 0.93302 0.51310 -0.42000
O 	O 	0.75759 0.16123 0.46820 -0.52800
O 	O 	0.81048 0.22921 0.50137 -0.54900
O 	O 	0.18809 0.19071 0.54580 -0.46500
O 	O 	0.23066 0.25402 0.61376 -0.52300
O 	O 	0.12718 0.27708 0.87995 -0.41000
O 	O 	0.19523 0.29229 0.85019 -0.41500
O 	O 	0.69191 0.05250 0.47050 -0.43800
O 	O 	0.64595 0.08710 0.39120 -0.44000
O 	O 	0.71528 0.81292 0.47877 -0.54600
O 	O 	0.67000 0.75485 0.41133 -0.47600
C 	C 	0.81781 0.94379 0.54290 0.31300
C 	C 	0.83480 0.00957 0.54630 -0.09600
C 	C 	0.87658 0.02240 0.57740 -0.01900
H 	H 	0.89410 0.98970 0.59580 0.05300
C 	C 	0.89266 0.08452 0.58140 -0.00800
C 	C 	0.86550 0.13320 0.55510 0.01800
H 	H 	0.87570 0.17450 0.55840 0.02900
C 	C 	0.82326 0.12076 0.52380 -0.17500
C 	C 	0.80815 0.05934 0.51940 0.05600
H 	H 	0.78010 0.05080 0.49850 0.02900
C 	C 	0.79536 0.17400 0.49530 0.50300
C 	C 	0.93582 0.09870 0.61280 -0.01200
C 	C 	0.97188 0.11540 0.63620 -0.00900
C 	C 	0.01346 0.13580 0.65900 -0.00400
C 	C 	0.04996 0.15630 0.67800 -0.01500
C 	C 	0.09235 0.18440 0.69350 0.00300
C 	C 	0.12326 0.18660 0.64170 -0.00100
H 	H 	0.11620 0.16800 0.59940 0.04800
C 	C 	0.16425 0.21690 0.65480 -0.14400
C 	C 	0.17461 0.24380 0.71820 0.04800
H 	H 	0.20230 0.26270 0.72710 0.02000
C 	C 	0.14395 0.24300 0.76950 -0.09400
C 	C 	0.10305 0.21300 0.75640 -0.02200
H 	H 	0.08260 0.21200 0.79010 0.05500
C 	C 	0.19692 0.22052 0.60100 0.45800
C 	C 	0.15595 0.27270 0.83680 0.33300
C 	C 	0.66253 0.04250 0.42460 0.34800
C 	C 	0.64819 0.97720 0.40620 -0.10800
C 	C 	0.67220 0.92470 0.43020 0.05200
H 	H 	0.69850 0.92970 0.45760 0.01900
C 	C 	0.65674 0.86443 0.41310 -0.14300
C 	C 	0.61744 0.85644 0.37230 -0.00400
H 	H 	0.60720 0.81620 0.36100 0.04300
C 	C 	0.59345 0.90920 0.34860 -0.00500
C 	C 	0.60920 0.97010 0.36480 -0.02000
H 	H 	0.59360 0.00530 0.34790 0.04900
C 	C 	0.68223 0.80660 0.43660 0.45100
C 	C 	0.55330 0.90270 0.30420 -0.02300
C 	C 	0.51967 0.90040 0.27040 -0.01500
Eu	Eu	0.72387 0.32595 0.94198 1.83100
Eu	Eu	0.81917 0.66840 0.03757 1.78300
O 	O 	0.65951 0.40041 0.92876 -0.41000
O 	O 	0.72011 0.43302 0.98690 -0.42000
O 	O 	0.74241 0.66123 0.03180 -0.52800
O 	O 	0.68952 0.72921 0.99863 -0.55000
O 	O 	0.31191 0.69071 0.95420 -0.46500
O 	O 	0.26934 0.75402 0.88624 -0.52300
O 	O 	0.37282 0.77708 0.62005 -0.41000
O 	O 	0.30477 0.79229 0.64981 -0.41600
O 	O 	0.80809 0.55250 0.02950 -0.43700
O 	O 	0.85405 0.58710 0.10880 -0.44000
O 	O 	0.78472 0.31292 0.02123 -0.54700
O 	O 	0.83000 0.25485 0.08867 -0.47600
C 	C 	0.68219 0.44379 0.95710 0.31300
C 	C 	0.66520 0.50957 0.95370 -0.09600
C 	C 	0.62342 0.52240 0.92260 -0.01900
H 	H 	0.60590 0.48970 0.90420 0.05300
C 	C 	0.60734 0.58452 0.91860 -0.00800
C 	C 	0.63450 0.63320 0.94490 0.01800
H 	H 	0.62430 0.67450 0.94160 0.02900
C 	C 	0.67674 0.62076 0.97620 -0.17600
C 	C 	0.69185 0.55934 0.98060 0.05600
H 	H 	0.71990 0.55080 0.00150 0.02900
C 	C 	0.70464 0.67400 0.00470 0.50400
C 	C 	0.56418 0.59870 0.88720 -0.01200
C 	C 	0.52812 0.61540 0.86380 -0.00800
C 	C 	0.48654 0.63580 0.84100 -0.00400
C 	C 	0.45004 0.65630 0.82200 -0.01500
C 	C 	0.40765 0.68440 0.80650 0.00300
C 	C 	0.37674 0.68660 0.85830 -0.00100
H 	H 	0.38380 0.66800 0.90060 0.04800
C 	C 	0.33575 0.71690 0.84520 -0.14400
C 	C 	0.32539 0.74380 0.78180 0.04800
H 	H 	0.29770 0.76270 0.77290 0.02000
C 	C 	0.35605 0.74300 0.73050 -0.09400
C 	C 	0.39695 0.71300 0.74360 -0.02200
H 	H 	0.41740 0.71200 0.70990 0.05500
C 	C 	0.30308 0.72052 0.89900 0.45800
C 	C 	0.34405 0.77270 0.66320 0.33300
C 	C 	0.83747 0.54250 0.07540 0.34800
C 	C 	0.85181 0.47720 0.09380 -0.10800
C 	C 	0.82780 0.42470 0.06980 0.05200
H 	H 	0.80150 0.42970 0.04240 0.01900
C 	C 	0.84326 0.36443 0.08690 -0.14300
C 	C 	0.88256 0.35644 0.12770 -0.00500
H 	H 	0.89280 0.31620 0.13900 0.04300
C 	C 	0.90655 0.40920 0.15140 -0.00400
C 	C 	0.89080 0.47010 0.13520 -0.02100
H 	H 	0.90640 0.50530 0.15210 0.04900
C 	C 	0.81777 0.30660 0.06340 0.45100
C 	C 	0.94670 0.40270 0.19580 -0.02400
C 	C 	0.98033 0.40040 0.22960 -0.01500
Eu	Eu	0.22387 0.82595 0.94198 1.82900
Eu	Eu	0.31917 0.16840 0.03757 1.78200
O 	O 	0.15951 0.90041 0.92876 -0.41000
O 	O 	0.22011 0.93302 0.98690 -0.42000
O 	O 	0.24241 0.16123 0.03180 -0.52800
O 	O 	0.18952 0.22921 0.99863 -0.54800
O 	O 	0.81191 0.19071 0.95420 -0.46400
O 	O 	0.76934 0.25402 0.88624 -0.52300
O 	O 	0.87282 0.27708 0.62005 -0.41000
O 	O 	0.80477 0.29229 0.64981 -0.41600
O 	O 	0.30809 0.05250 0.02950 -0.43800
O 	O 	0.35405 0.08710 0.10880 -0.44000
O 	O 	0.28472 0.81292 0.02123 -0.54600
O 	O 	0.33000 0.75485 0.08867 -0.47600
C 	C 	0.18219 0.94379 0.95710 0.31300
C 	C 	0.16520 0.00957 0.95370 -0.09600
C 	C 	0.12342 0.02240 0.92260 -0.01600
H 	H 	0.10590 0.98970 0.90420 0.05100
C 	C 	0.10734 0.08452 0.91860 -0.00900
C 	C 	0.13450 0.13320 0.94490 0.01900
H 	H 	0.12430 0.17450 0.94160 0.02900
C 	C 	0.17674 0.12076 0.97620 -0.17500
C 	C 	0.19185 0.05934 0.98060 0.05900
H 	H 	0.21990 0.05080 0.00150 0.02700
C 	C 	0.20464 0.17400 0.00470 0.50100
C 	C 	0.06418 0.09870 0.88720 -0.01100
C 	C 	0.02812 0.11540 0.86380 -0.00900
C 	C 	0.98654 0.13580 0.84100 -0.00400
C 	C 	0.95004 0.15630 0.82200 -0.01500
C 	C 	0.90765 0.18440 0.80650 0.00300
C 	C 	0.87674 0.18660 0.85830 -0.00100
H 	H 	0.88380 0.16800 0.90060 0.04800
C 	C 	0.83575 0.21690 0.84520 -0.14400
C 	C 	0.82539 0.24380 0.78180 0.04800
H 	H 	0.79770 0.26270 0.77290 0.02000
C 	C 	0.85605 0.24300 0.73050 -0.09400
C 	C 	0.89695 0.21300 0.74360 -0.02200
H 	H 	0.91740 0.21200 0.70990 0.05500
C 	C 	0.80308 0.22052 0.89900 0.45800
C 	C 	0.84405 0.27270 0.66320 0.33300
C 	C 	0.33747 0.04250 0.07540 0.34700
C 	C 	0.35181 0.97720 0.09380 -0.10700
C 	C 	0.32780 0.92470 0.06980 0.05200
H 	H 	0.30150 0.92970 0.04240 0.02000
C 	C 	0.34326 0.86443 0.08690 -0.14300
C 	C 	0.38256 0.85644 0.12770 -0.00400
H 	H 	0.39280 0.81620 0.13900 0.04300
C 	C 	0.40655 0.90920 0.15140 -0.00500
C 	C 	0.39080 0.97010 0.13520 -0.02000
H 	H 	0.40640 0.00530 0.15210 0.04800
C 	C 	0.31777 0.80660 0.06340 0.45100
C 	C 	0.44670 0.90270 0.19580 -0.02300
C 	C 	0.48033 0.90040 0.22960 -0.01500
Eu	Eu	0.72387 0.67405 0.44198 1.83000
Eu	Eu	0.81917 0.33160 0.53757 1.78200
O 	O 	0.65951 0.59959 0.42876 -0.41000
O 	O 	0.72011 0.56698 0.48690 -0.42000
O 	O 	0.74241 0.33877 0.53180 -0.52800
O 	O 	0.68952 0.27079 0.49863 -0.54900
O 	O 	0.31191 0.30929 0.45420 -0.46500
O 	O 	0.26934 0.24598 0.38624 -0.52300
O 	O 	0.37282 0.22292 0.12005 -0.41000
O 	O 	0.30477 0.20771 0.14981 -0.41600
O 	O 	0.80809 0.44750 0.52950 -0.43800
O 	O 	0.85405 0.41290 0.60880 -0.44000
O 	O 	0.78472 0.68708 0.52123 -0.54600
O 	O 	0.83000 0.74515 0.58867 -0.47600
C 	C 	0.68219 0.55621 0.45710 0.31300
C 	C 	0.66520 0.49043 0.45370 -0.09600
C 	C 	0.62342 0.47760 0.42260 -0.01900
H 	H 	0.60590 0.51030 0.40420 0.05300
C 	C 	0.60734 0.41548 0.41860 -0.00800
C 	C 	0.63450 0.36680 0.44490 0.01800
H 	H 	0.62430 0.32550 0.44160 0.02900
C 	C 	0.67674 0.37924 0.47620 -0.17500
C 	C 	0.69185 0.44066 0.48060 0.05600
H 	H 	0.71990 0.44920 0.50150 0.02900
C 	C 	0.70464 0.32600 0.50470 0.50300
C 	C 	0.56418 0.40130 0.38720 -0.01200
C 	C 	0.52812 0.38460 0.36380 -0.00800
C 	C 	0.48654 0.36420 0.34100 -0.00400
C 	C 	0.45004 0.34370 0.32200 -0.01500
C 	C 	0.40765 0.31560 0.30650 0.00300
C 	C 	0.37674 0.31340 0.35830 -0.00100
H 	H 	0.38380 0.33200 0.40060 0.04800
C 	C 	0.33575 0.28310 0.34520 -0.14400
C 	C 	0.32539 0.25620 0.28180 0.04800
H 	H 	0.29770 0.23730 0.27290 0.02000
C 	C 	0.35605 0.25700 0.23050 -0.09400
C 	C 	0.39695 0.28700 0.24360 -0.02200
H 	H 	0.41740 0.28800 0.20990 0.05500
C 	C 	0.30308 0.27948 0.39900 0.45800
C 	C 	0.34405 0.22730 0.16320 0.33300
C 	C 	0.83747 0.45750 0.57540 0.34800
C 	C 	0.85181 0.52280 0.59380 -0.10800
C 	C 	0.82780 0.57530 0.56980 0.05200
H 	H 	0.80150 0.57030 0.54240 0.01900
C 	C 	0.84326 0.63557 0.58690 -0.14300
C 	C 	0.88256 0.64356 0.62770 -0.00500
H 	H 	0.89280 0.68380 0.63900 0.04300
C 	C 	0.90655 0.59080 0.65140 -0.00400
C 	C 	0.89080 0.52990 0.63520 -0.02100
H 	H 	0.90640 0.49470 0.65210 0.04900
C 	C 	0.81777 0.69340 0.56340 0.45100
C 	C 	0.94670 0.59730 0.69580 -0.02400
C 	C 	0.98033 0.59960 0.72960 -0.01500
Eu	Eu	0.22387 0.17405 0.44198 1.83000
Eu	Eu	0.31917 0.83160 0.53757 1.78200
O 	O 	0.15951 0.09959 0.42876 -0.41000
O 	O 	0.22011 0.06698 0.48690 -0.42000
O 	O 	0.24241 0.83877 0.53180 -0.52800
O 	O 	0.18952 0.77079 0.49863 -0.54900
O 	O 	0.81191 0.80929 0.45420 -0.46500
O 	O 	0.76934 0.74598 0.38624 -0.52300
O 	O 	0.87282 0.72292 0.12005 -0.41000
O 	O 	0.80477 0.70771 0.14981 -0.41500
O 	O 	0.30809 0.94750 0.52950 -0.43800
O 	O 	0.35405 0.91290 0.60880 -0.44000
O 	O 	0.28472 0.18708 0.52123 -0.54600
O 	O 	0.33000 0.24515 0.58867 -0.47600
C 	C 	0.18219 0.05621 0.45710 0.31300
C 	C 	0.16520 0.99043 0.45370 -0.09600
C 	C 	0.12342 0.97760 0.42260 -0.01900
H 	H 	0.10590 0.01030 0.40420 0.05300
C 	C 	0.10734 0.91548 0.41860 -0.00800
C 	C 	0.13450 0.86680 0.44490 0.01800
H 	H 	0.12430 0.82550 0.44160 0.02900
C 	C 	0.17674 0.87924 0.47620 -0.17500
C 	C 	0.19185 0.94066 0.48060 0.05600
H 	H 	0.21990 0.94920 0.50150 0.02900
C 	C 	0.20464 0.82600 0.50470 0.50300
C 	C 	0.06418 0.90130 0.38720 -0.01200
C 	C 	0.02812 0.88460 0.36380 -0.00900
C 	C 	0.98654 0.86420 0.34100 -0.00400
C 	C 	0.95004 0.84370 0.32200 -0.01500
C 	C 	0.90765 0.81560 0.30650 0.00300
C 	C 	0.87674 0.81340 0.35830 -0.00100
H 	H 	0.88380 0.83200 0.40060 0.04800
C 	C 	0.83575 0.78310 0.34520 -0.14400
C 	C 	0.82539 0.75620 0.28180 0.04800
H 	H 	0.79770 0.73730 0.27290 0.02000
C 	C 	0.85605 0.75700 0.23050 -0.09400
C 	C 	0.89695 0.78700 0.24360 -0.02200
H 	H 	0.91740 0.78800 0.20990 0.05500
C 	C 	0.80308 0.77948 0.39900 0.45800
C 	C 	0.84405 0.72730 0.16320 0.33300
C 	C 	0.33747 0.95750 0.57540 0.34800
C 	C 	0.35181 0.02280 0.59380 -0.10800
C 	C 	0.32780 0.07530 0.56980 0.05200
H 	H 	0.30150 0.07030 0.54240 0.01900
C 	C 	0.34326 0.13557 0.58690 -0.14300
C 	C 	0.38256 0.14356 0.62770 -0.00400
H 	H 	0.39280 0.18380 0.63900 0.04300
C 	C 	0.40655 0.09080 0.65140 -0.00500
C 	C 	0.39080 0.02990 0.63520 -0.02000
H 	H 	0.40640 0.99470 0.65210 0.04900
C 	C 	0.31777 0.19340 0.56340 0.45100
C 	C 	0.44670 0.09730 0.69580 -0.02300
C 	C 	0.48033 0.09960 0.72960 -0.01500
Eu	Eu	0.27613 0.67405 0.05802 1.83100
Eu	Eu	0.18083 0.33160 0.96243 1.78300
O 	O 	0.34049 0.59959 0.07124 -0.41000
O 	O 	0.27989 0.56698 0.01310 -0.42000
O 	O 	0.25759 0.33877 0.96820 -0.52800
O 	O 	0.31048 0.27079 0.00137 -0.55000
O 	O 	0.68809 0.30929 0.04580 -0.46500
O 	O 	0.73066 0.24598 0.11376 -0.52300
O 	O 	0.62718 0.22292 0.37995 -0.41000
O 	O 	0.69523 0.20771 0.35019 -0.41600
O 	O 	0.19191 0.44750 0.97050 -0.43700
O 	O 	0.14595 0.41290 0.89120 -0.44000
O 	O 	0.21528 0.68708 0.97877 -0.54700
O 	O 	0.17000 0.74515 0.91133 -0.47600
C 	C 	0.31781 0.55621 0.04290 0.31300
C 	C 	0.33480 0.49043 0.04630 -0.09600
C 	C 	0.37658 0.47760 0.07740 -0.01900
H 	H 	0.39410 0.51030 0.09580 0.05300
C 	C 	0.39266 0.41548 0.08140 -0.00800
C 	C 	0.36550 0.36680 0.05510 0.01800
H 	H 	0.37570 0.32550 0.05840 0.02900
C 	C 	0.32326 0.37924 0.02380 -0.17600
C 	C 	0.30815 0.44066 0.01940 0.05600
H 	H 	0.28010 0.44920 0.99850 0.02900
C 	C 	0.29536 0.32600 0.99530 0.50400
C 	C 	0.43582 0.40130 0.11280 -0.01200
C 	C 	0.47188 0.38460 0.13620 -0.00800
C 	C 	0.51346 0.36420 0.15900 -0.00400
C 	C 	0.54996 0.34370 0.17800 -0.01500
C 	C 	0.59235 0.31560 0.19350 0.00300
C 	C 	0.62326 0.31340 0.14170 -0.00100
H 	H 	0.61620 0.33200 0.09940 0.04800
C 	C 	0.66425 0.28310 0.15480 -0.14400
C 	C 	0.67461 0.25620 0.21820 0.04800
H 	H 	0.70230 0.23730 0.22710 0.02000
C 	C 	0.64395 0.25700 0.26950 -0.09400
C 	C 	0.60305 0.28700 0.25640 -0.02200
H 	H 	0.58260 0.28800 0.29010 0.05500
C 	C 	0.69692 0.27948 0.10100 0.45800
C 	C 	0.65595 0.22730 0.33680 0.33300
C 	C 	0.16253 0.45750 0.92460 0.34800
C 	C 	0.14819 0.52280 0.90620 -0.10800
C 	C 	0.17220 0.57530 0.93020 0.05200
H 	H 	0.19850 0.57030 0.95760 0.01900
C 	C 	0.15674 0.63557 0.91310 -0.14300
C 	C 	0.11744 0.64356 0.87230 -0.00500
H 	H 	0.10720 0.68380 0.86100 0.04300
C 	C 	0.09345 0.59080 0.84860 -0.00400
C 	C 	0.10920 0.52990 0.86480 -0.02100
H 	H 	0.09360 0.49470 0.84790 0.04900
C 	C 	0.18223 0.69340 0.93660 0.45100
C 	C 	0.05330 0.59730 0.80420 -0.02400
C 	C 	0.01967 0.59960 0.77040 -0.01500
Eu	Eu	0.77613 0.17405 0.05802 1.82900
Eu	Eu	0.68083 0.83160 0.96243 1.78200
O 	O 	0.84049 0.09959 0.07124 -0.41000
O 	O 	0.77989 0.06698 0.01310 -0.42000
O 	O 	0.75759 0.83877 0.96820 -0.52800
O 	O 	0.81048 0.77079 0.00137 -0.54800
O 	O 	0.18809 0.80929 0.04580 -0.46400
O 	O 	0.23066 0.74598 0.11376 -0.52300
O 	O 	0.12718 0.72292 0.37995 -0.41000
O 	O 	0.19523 0.70771 0.35019 -0.41600
O 	O 	0.69191 0.94750 0.97050 -0.43800
O 	O 	0.64595 0.91290 0.89120 -0.44000
O 	O 	0.71528 0.18708 0.97877 -0.54600
O 	O 	0.67000 0.24515 0.91133 -0.47600
C 	C 	0.81781 0.05621 0.04290 0.31300
C 	C 	0.83480 0.99043 0.04630 -0.09600
C 	C 	0.87658 0.97760 0.07740 -0.01600
H 	H 	0.89410 0.01030 0.09580 0.05100
C 	C 	0.89266 0.91548 0.08140 -0.00900
C 	C 	0.86550 0.86680 0.05510 0.01900
H 	H 	0.87570 0.82550 0.05840 0.02900
C 	C 	0.82326 0.87924 0.02380 -0.17500
C 	C 	0.80815 0.94066 0.01940 0.05900
H 	H 	0.78010 0.94920 0.99850 0.02700
C 	C 	0.79536 0.82600 0.99530 0.50100
C 	C 	0.93582 0.90130 0.11280 -0.01100
C 	C 	0.97188 0.88460 0.13620 -0.00900
C 	C 	0.01346 0.86420 0.15900 -0.00400
C 	C 	0.04996 0.84370 0.17800 -0.01500
C 	C 	0.09235 0.81560 0.19350 0.00300
C 	C 	0.12326 0.81340 0.14170 -0.00100
H 	H 	0.11620 0.83200 0.09940 0.04800
C 	C 	0.16425 0.78310 0.15480 -0.14400
C 	C 	0.17461 0.75620 0.21820 0.04800
H 	H 	0.20230 0.73730 0.22710 0.02000
C 	C 	0.14395 0.75700 0.26950 -0.09400
C 	C 	0.10305 0.78700 0.25640 -0.02200
H 	H 	0.08260 0.78800 0.29010 0.05500
C 	C 	0.19692 0.77948 0.10100 0.45800
C 	C 	0.15595 0.72730 0.33680 0.33300
C 	C 	0.66253 0.95750 0.92460 0.34700
C 	C 	0.64819 0.02280 0.90620 -0.10700
C 	C 	0.67220 0.07530 0.93020 0.05200
H 	H 	0.69850 0.07030 0.95760 0.02000
C 	C 	0.65674 0.13557 0.91310 -0.14300
C 	C 	0.61744 0.14356 0.87230 -0.00400
H 	H 	0.60720 0.18380 0.86100 0.04300
C 	C 	0.59345 0.09080 0.84860 -0.00500
C 	C 	0.60920 0.02990 0.86480 -0.02000
H 	H 	0.59360 0.99470 0.84790 0.04800
C 	C 	0.68223 0.19340 0.93660 0.45100
C 	C 	0.55330 0.09730 0.80420 -0.02300
C 	C 	0.51967 0.09960 0.77040 -0.01500
