data_crystal

_cell_length_a 29.92580
_cell_length_b 21.04180
_cell_length_c 19.43260
_cell_angle_alpha 90.00000
_cell_angle_beta  94.00000
_cell_angle_gamma 90.00000

_symmetry_space_group_name_	'P 1'
_symmetry_space_group_name_H-M	'P 1'

loop_
_symmetry_equiv_pos_as_xyz
  x,y,z

loop_
_atom_site_label
_atom_site_type_symbol
_atom_site_fract_x
_atom_site_fract_y
_atom_site_fract_z
_atom_site_charge
Er	Er	0.27659 0.17500 0.05766 1.67200
Er	Er	0.18199 0.82999 0.96255 1.58300
O 	O 	0.27910 0.06970 0.01680 -0.42200
O 	O 	0.33970 0.10260 0.07080 -0.40200
O 	O 	0.25820 0.84000 0.96620 -0.50300
O 	O 	0.30910 0.77170 0.00230 -0.53400
O 	O 	0.62853 0.72300 0.38160 -0.38300
O 	O 	0.69703 0.70960 0.35180 -0.38800
O 	O 	0.68897 0.80750 0.04490 -0.45300
O 	O 	0.73144 0.74320 0.11160 -0.51300
O 	O 	0.14720 0.90890 0.89150 -0.41600
O 	O 	0.19080 0.94390 0.97380 -0.41900
O 	O 	0.21660 0.18450 0.98070 -0.51300
O 	O 	0.17170 0.24420 0.91220 -0.45200
C 	C 	0.31720 0.05850 0.04310 0.34400
C 	C 	0.33370 0.99150 0.04660 -0.10600
C 	C 	0.37660 0.97810 0.07740 -0.00700
H 	H 	0.39440 0.01110 0.09580 0.05100
C 	C 	0.39260 0.91690 0.08080 -0.01300
C 	C 	0.36480 0.86710 0.05300 0.03200
H 	H 	0.37530 0.82550 0.05470 0.03000
C 	C 	0.32310 0.87970 0.02390 -0.18000
C 	C 	0.30780 0.94160 0.01830 0.07100
H 	H 	0.28000 0.95000 0.99560 0.02900
C 	C 	0.29460 0.82600 0.99500 0.52600
C 	C 	0.43600 0.90170 0.11130 -0.00700
C 	C 	0.47290 0.88580 0.13310 -0.00900
C 	C 	0.51410 0.86520 0.15860 -0.00100
C 	C 	0.55010 0.84410 0.17680 -0.01400
C 	C 	0.59350 0.81460 0.19230 0.00400
C 	C 	0.60450 0.78840 0.25740 -0.02300
H 	H 	0.58470 0.79130 0.29210 0.05700
C 	C 	0.64560 0.75800 0.26930 -0.08800
C 	C 	0.67490 0.75510 0.21820 0.05200
H 	H 	0.70160 0.73290 0.22680 0.02500
C 	C 	0.66640 0.78430 0.15300 -0.15200
C 	C 	0.62320 0.81290 0.14180 0.00300
H 	H 	0.61500 0.83080 0.09900 0.04900
C 	C 	0.65790 0.72850 0.33840 0.32600
C 	C 	0.69840 0.77880 0.10020 0.48000
C 	C 	0.16310 0.95440 0.92530 0.35200
C 	C 	0.14740 0.01940 0.90720 -0.10300
C 	C 	0.17250 0.07290 0.93130 0.04200
H 	H 	0.19890 0.06740 0.95890 0.03300
C 	C 	0.15750 0.13410 0.91330 -0.13000
C 	C 	0.11870 0.14310 0.87260 -0.00600
H 	H 	0.10900 0.18390 0.86090 0.04800
C 	C 	0.09380 0.08990 0.84860 -0.00200
C 	C 	0.10980 0.02650 0.86620 -0.01500
H 	H 	0.09410 0.99100 0.84920 0.05000
C 	C 	0.18400 0.19160 0.93740 0.44200
C 	C 	0.05380 0.09580 0.80320 -0.01900
C 	C 	0.01980 0.09800 0.77210 -0.01100
Er	Er	0.77659 0.67500 0.05766 1.67300
Er	Er	0.68199 0.32999 0.96255 1.58200
O 	O 	0.77910 0.56970 0.01680 -0.42200
O 	O 	0.83970 0.60260 0.07080 -0.40300
O 	O 	0.75820 0.34000 0.96620 -0.50400
O 	O 	0.80910 0.27170 0.00230 -0.53600
O 	O 	0.12853 0.22300 0.38160 -0.38400
O 	O 	0.19703 0.20960 0.35180 -0.38900
O 	O 	0.18897 0.30750 0.04490 -0.45500
O 	O 	0.23144 0.24320 0.11160 -0.51400
O 	O 	0.64720 0.40890 0.89150 -0.41700
O 	O 	0.69080 0.44390 0.97380 -0.42000
O 	O 	0.71660 0.68450 0.98070 -0.51500
O 	O 	0.67170 0.74420 0.91220 -0.45300
C 	C 	0.81720 0.55850 0.04310 0.34400
C 	C 	0.83370 0.49150 0.04660 -0.10700
C 	C 	0.87660 0.47810 0.07740 -0.01100
H 	H 	0.89440 0.51110 0.09580 0.05200
C 	C 	0.89260 0.41690 0.08080 -0.01300
C 	C 	0.86480 0.36710 0.05300 0.03100
H 	H 	0.87530 0.32550 0.05470 0.02900
C 	C 	0.82310 0.37970 0.02390 -0.18200
C 	C 	0.80780 0.44160 0.01830 0.06900
H 	H 	0.78000 0.45000 0.99560 0.03100
C 	C 	0.79460 0.32600 0.99500 0.52900
C 	C 	0.93600 0.40170 0.11130 -0.00700
C 	C 	0.97290 0.38580 0.13310 -0.00800
C 	C 	0.01410 0.36520 0.15860 -0.00100
C 	C 	0.05010 0.34410 0.17680 -0.01400
C 	C 	0.09350 0.31460 0.19230 0.00400
C 	C 	0.10450 0.28840 0.25740 -0.02300
H 	H 	0.08470 0.29130 0.29210 0.05700
C 	C 	0.14560 0.25800 0.26930 -0.08800
C 	C 	0.17490 0.25510 0.21820 0.05200
H 	H 	0.20160 0.23290 0.22680 0.02400
C 	C 	0.16640 0.28430 0.15300 -0.15200
C 	C 	0.12320 0.31290 0.14180 0.00300
H 	H 	0.11500 0.33080 0.09900 0.04900
C 	C 	0.15790 0.22850 0.33840 0.32600
C 	C 	0.19840 0.27880 0.10020 0.48000
C 	C 	0.66310 0.45440 0.92530 0.35300
C 	C 	0.64740 0.51940 0.90720 -0.10400
C 	C 	0.67250 0.57290 0.93130 0.04300
H 	H 	0.69890 0.56740 0.95890 0.03200
C 	C 	0.65750 0.63410 0.91330 -0.13000
C 	C 	0.61870 0.64310 0.87260 -0.00600
H 	H 	0.60900 0.68390 0.86090 0.04800
C 	C 	0.59380 0.58990 0.84860 -0.00100
C 	C 	0.60980 0.52650 0.86620 -0.01700
H 	H 	0.59410 0.49100 0.84920 0.05200
C 	C 	0.68400 0.69160 0.93740 0.44200
C 	C 	0.55380 0.59580 0.80320 -0.01900
C 	C 	0.51980 0.59800 0.77210 -0.01100
Er	Er	0.72341 0.17500 0.44234 1.67200
Er	Er	0.81801 0.82999 0.53745 1.58200
O 	O 	0.72090 0.06970 0.48320 -0.42200
O 	O 	0.66030 0.10260 0.42920 -0.40300
O 	O 	0.74180 0.84000 0.53380 -0.50400
O 	O 	0.69090 0.77170 0.49770 -0.53600
O 	O 	0.37147 0.72300 0.11840 -0.38400
O 	O 	0.30297 0.70960 0.14820 -0.38900
O 	O 	0.31103 0.80750 0.45510 -0.45500
O 	O 	0.26856 0.74320 0.38840 -0.51400
O 	O 	0.85280 0.90890 0.60850 -0.41700
O 	O 	0.80920 0.94390 0.52620 -0.42000
O 	O 	0.78340 0.18450 0.51930 -0.51400
O 	O 	0.82830 0.24420 0.58780 -0.45300
C 	C 	0.68280 0.05850 0.45690 0.34400
C 	C 	0.66630 0.99150 0.45340 -0.10700
C 	C 	0.62340 0.97810 0.42260 -0.01000
H 	H 	0.60560 0.01110 0.40420 0.05100
C 	C 	0.60740 0.91690 0.41920 -0.01300
C 	C 	0.63520 0.86710 0.44700 0.03100
H 	H 	0.62470 0.82550 0.44530 0.02900
C 	C 	0.67690 0.87970 0.47610 -0.18200
C 	C 	0.69220 0.94160 0.48170 0.06900
H 	H 	0.72000 0.95000 0.50440 0.03100
C 	C 	0.70540 0.82600 0.50500 0.52800
C 	C 	0.56400 0.90170 0.38870 -0.00700
C 	C 	0.52710 0.88580 0.36690 -0.00800
C 	C 	0.48590 0.86520 0.34140 -0.00100
C 	C 	0.44990 0.84410 0.32320 -0.01400
C 	C 	0.40650 0.81460 0.30770 0.00400
C 	C 	0.39550 0.78840 0.24260 -0.02300
H 	H 	0.41530 0.79130 0.20790 0.05700
C 	C 	0.35440 0.75800 0.23070 -0.08800
C 	C 	0.32510 0.75510 0.28180 0.05200
H 	H 	0.29840 0.73290 0.27320 0.02500
C 	C 	0.33360 0.78430 0.34700 -0.15200
C 	C 	0.37680 0.81290 0.35820 0.00300
H 	H 	0.38500 0.83080 0.40100 0.04900
C 	C 	0.34210 0.72850 0.16160 0.32600
C 	C 	0.30160 0.77880 0.39980 0.48000
C 	C 	0.83690 0.95440 0.57470 0.35200
C 	C 	0.85260 0.01940 0.59280 -0.10400
C 	C 	0.82750 0.07290 0.56870 0.04300
H 	H 	0.80110 0.06740 0.54110 0.03200
C 	C 	0.84250 0.13410 0.58670 -0.13000
C 	C 	0.88130 0.14310 0.62740 -0.00600
H 	H 	0.89100 0.18390 0.63910 0.04800
C 	C 	0.90620 0.08990 0.65140 -0.00200
C 	C 	0.89020 0.02650 0.63380 -0.01600
H 	H 	0.90590 0.99100 0.65080 0.05100
C 	C 	0.81600 0.19160 0.56260 0.44200
C 	C 	0.94620 0.09580 0.69680 -0.01900
C 	C 	0.98020 0.09800 0.72790 -0.01100
Er	Er	0.22341 0.67500 0.44234 1.67200
Er	Er	0.31801 0.32999 0.53745 1.58200
O 	O 	0.22090 0.56970 0.48320 -0.42200
O 	O 	0.16030 0.60260 0.42920 -0.40300
O 	O 	0.24180 0.34000 0.53380 -0.50400
O 	O 	0.19090 0.27170 0.49770 -0.53600
O 	O 	0.87147 0.22300 0.11840 -0.38400
O 	O 	0.80297 0.20960 0.14820 -0.38900
O 	O 	0.81103 0.30750 0.45510 -0.45500
O 	O 	0.76856 0.24320 0.38840 -0.51400
O 	O 	0.35280 0.40890 0.60850 -0.41700
O 	O 	0.30920 0.44390 0.52620 -0.42000
O 	O 	0.28340 0.68450 0.51930 -0.51400
O 	O 	0.32830 0.74420 0.58780 -0.45300
C 	C 	0.18280 0.55850 0.45690 0.34400
C 	C 	0.16630 0.49150 0.45340 -0.10700
C 	C 	0.12340 0.47810 0.42260 -0.01100
H 	H 	0.10560 0.51110 0.40420 0.05200
C 	C 	0.10740 0.41690 0.41920 -0.01300
C 	C 	0.13520 0.36710 0.44700 0.03000
H 	H 	0.12470 0.32550 0.44530 0.02900
C 	C 	0.17690 0.37970 0.47610 -0.18100
C 	C 	0.19220 0.44160 0.48170 0.06900
H 	H 	0.22000 0.45000 0.50440 0.03100
C 	C 	0.20540 0.32600 0.50500 0.52800
C 	C 	0.06400 0.40170 0.38870 -0.00700
C 	C 	0.02710 0.38580 0.36690 -0.00800
C 	C 	0.98590 0.36520 0.34140 -0.00100
C 	C 	0.94990 0.34410 0.32320 -0.01400
C 	C 	0.90650 0.31460 0.30770 0.00400
C 	C 	0.89550 0.28840 0.24260 -0.02300
H 	H 	0.91530 0.29130 0.20790 0.05700
C 	C 	0.85440 0.25800 0.23070 -0.08800
C 	C 	0.82510 0.25510 0.28180 0.05200
H 	H 	0.79840 0.23290 0.27320 0.02400
C 	C 	0.83360 0.28430 0.34700 -0.15200
C 	C 	0.87680 0.31290 0.35820 0.00300
H 	H 	0.88500 0.33080 0.40100 0.04900
C 	C 	0.84210 0.22850 0.16160 0.32600
C 	C 	0.80160 0.27880 0.39980 0.48000
C 	C 	0.33690 0.45440 0.57470 0.35300
C 	C 	0.35260 0.51940 0.59280 -0.10400
C 	C 	0.32750 0.57290 0.56870 0.04300
H 	H 	0.30110 0.56740 0.54110 0.03200
C 	C 	0.34250 0.63410 0.58670 -0.13000
C 	C 	0.38130 0.64310 0.62740 -0.00600
H 	H 	0.39100 0.68390 0.63910 0.04800
C 	C 	0.40620 0.58990 0.65140 -0.00100
C 	C 	0.39020 0.52650 0.63380 -0.01700
H 	H 	0.40590 0.49100 0.65080 0.05200
C 	C 	0.31600 0.69160 0.56260 0.44200
C 	C 	0.44620 0.59580 0.69680 -0.01900
C 	C 	0.48020 0.59800 0.72790 -0.01100
Er	Er	0.72341 0.82500 0.94234 1.67100
Er	Er	0.81801 0.17001 0.03745 1.58200
O 	O 	0.72090 0.93030 0.98320 -0.42300
O 	O 	0.66030 0.89740 0.92920 -0.40300
O 	O 	0.74180 0.16000 0.03380 -0.50400
O 	O 	0.69090 0.22830 0.99770 -0.53500
O 	O 	0.37147 0.27700 0.61840 -0.38400
O 	O 	0.30297 0.29040 0.64820 -0.38900
O 	O 	0.31103 0.19250 0.95510 -0.45400
O 	O 	0.26856 0.25680 0.88840 -0.51400
O 	O 	0.85280 0.09110 0.10850 -0.41700
O 	O 	0.80920 0.05610 0.02620 -0.42000
O 	O 	0.78340 0.81550 0.01930 -0.51400
O 	O 	0.82830 0.75580 0.08780 -0.45300
C 	C 	0.68280 0.94150 0.95690 0.34300
C 	C 	0.66630 0.00850 0.95340 -0.10700
C 	C 	0.62340 0.02190 0.92260 -0.00800
H 	H 	0.60560 0.98890 0.90420 0.05000
C 	C 	0.60740 0.08310 0.91920 -0.01400
C 	C 	0.63520 0.13290 0.94700 0.03100
H 	H 	0.62470 0.17450 0.94530 0.02900
C 	C 	0.67690 0.12030 0.97610 -0.18100
C 	C 	0.69220 0.05840 0.98170 0.07100
H 	H 	0.72000 0.05000 0.00440 0.02900
C 	C 	0.70540 0.17400 0.00500 0.52600
C 	C 	0.56400 0.09830 0.88870 -0.00700
C 	C 	0.52710 0.11420 0.86690 -0.00900
C 	C 	0.48590 0.13480 0.84140 -0.00100
C 	C 	0.44990 0.15590 0.82320 -0.01400
C 	C 	0.40650 0.18540 0.80770 0.00400
C 	C 	0.39550 0.21160 0.74260 -0.02300
H 	H 	0.41530 0.20870 0.70790 0.05700
C 	C 	0.35440 0.24200 0.73070 -0.08800
C 	C 	0.32510 0.24490 0.78180 0.05200
H 	H 	0.29840 0.26710 0.77320 0.02500
C 	C 	0.33360 0.21570 0.84700 -0.15200
C 	C 	0.37680 0.18710 0.85820 0.00300
H 	H 	0.38500 0.16920 0.90100 0.04900
C 	C 	0.34210 0.27150 0.66160 0.32600
C 	C 	0.30160 0.22120 0.89980 0.48000
C 	C 	0.83690 0.04560 0.07470 0.35200
C 	C 	0.85260 0.98060 0.09280 -0.10300
C 	C 	0.82750 0.92710 0.06870 0.04200
H 	H 	0.80110 0.93260 0.04110 0.03300
C 	C 	0.84250 0.86590 0.08670 -0.13000
C 	C 	0.88130 0.85690 0.12740 -0.00600
H 	H 	0.89100 0.81610 0.13910 0.04800
C 	C 	0.90620 0.91010 0.15140 -0.00200
C 	C 	0.89020 0.97350 0.13380 -0.01500
H 	H 	0.90590 0.00900 0.15080 0.05000
C 	C 	0.81600 0.80840 0.06260 0.44200
C 	C 	0.94620 0.90420 0.19680 -0.01900
C 	C 	0.98020 0.90200 0.22790 -0.01100
Er	Er	0.22341 0.32500 0.94234 1.67300
Er	Er	0.31801 0.67001 0.03745 1.58200
O 	O 	0.22090 0.43030 0.98320 -0.42200
O 	O 	0.16030 0.39740 0.92920 -0.40300
O 	O 	0.24180 0.66000 0.03380 -0.50400
O 	O 	0.19090 0.72830 0.99770 -0.53600
O 	O 	0.87147 0.77700 0.61840 -0.38400
O 	O 	0.80297 0.79040 0.64820 -0.38900
O 	O 	0.81103 0.69250 0.95510 -0.45500
O 	O 	0.76856 0.75680 0.88840 -0.51400
O 	O 	0.35280 0.59110 0.10850 -0.41700
O 	O 	0.30920 0.55610 0.02620 -0.42000
O 	O 	0.28340 0.31550 0.01930 -0.51500
O 	O 	0.32830 0.25580 0.08780 -0.45300
C 	C 	0.18280 0.44150 0.95690 0.34400
C 	C 	0.16630 0.50850 0.95340 -0.10700
C 	C 	0.12340 0.52190 0.92260 -0.01100
H 	H 	0.10560 0.48890 0.90420 0.05200
C 	C 	0.10740 0.58310 0.91920 -0.01300
C 	C 	0.13520 0.63290 0.94700 0.03100
H 	H 	0.12470 0.67450 0.94530 0.02900
C 	C 	0.17690 0.62030 0.97610 -0.18200
C 	C 	0.19220 0.55840 0.98170 0.06900
H 	H 	0.22000 0.55000 0.00440 0.03100
C 	C 	0.20540 0.67400 0.00500 0.52900
C 	C 	0.06400 0.59830 0.88870 -0.00700
C 	C 	0.02710 0.61420 0.86690 -0.00800
C 	C 	0.98590 0.63480 0.84140 -0.00100
C 	C 	0.94990 0.65590 0.82320 -0.01400
C 	C 	0.90650 0.68540 0.80770 0.00400
C 	C 	0.89550 0.71160 0.74260 -0.02300
H 	H 	0.91530 0.70870 0.70790 0.05700
C 	C 	0.85440 0.74200 0.73070 -0.08800
C 	C 	0.82510 0.74490 0.78180 0.05200
H 	H 	0.79840 0.76710 0.77320 0.02400
C 	C 	0.83360 0.71570 0.84700 -0.15200
C 	C 	0.87680 0.68710 0.85820 0.00300
H 	H 	0.88500 0.66920 0.90100 0.04900
C 	C 	0.84210 0.77150 0.66160 0.32600
C 	C 	0.80160 0.72120 0.89980 0.48000
C 	C 	0.33690 0.54560 0.07470 0.35300
C 	C 	0.35260 0.48060 0.09280 -0.10400
C 	C 	0.32750 0.42710 0.06870 0.04300
H 	H 	0.30110 0.43260 0.04110 0.03200
C 	C 	0.34250 0.36590 0.08670 -0.13000
C 	C 	0.38130 0.35690 0.12740 -0.00600
H 	H 	0.39100 0.31610 0.13910 0.04800
C 	C 	0.40620 0.41010 0.15140 -0.00100
C 	C 	0.39020 0.47350 0.13380 -0.01700
H 	H 	0.40590 0.50900 0.15080 0.05200
C 	C 	0.31600 0.30840 0.06260 0.44200
C 	C 	0.44620 0.40420 0.19680 -0.01900
C 	C 	0.48020 0.40200 0.22790 -0.01100
Er	Er	0.27659 0.82500 0.55766 1.67200
Er	Er	0.18199 0.17001 0.46255 1.58200
O 	O 	0.27910 0.93030 0.51680 -0.42200
O 	O 	0.33970 0.89740 0.57080 -0.40300
O 	O 	0.25820 0.16000 0.46620 -0.50400
O 	O 	0.30910 0.22830 0.50230 -0.53600
O 	O 	0.62853 0.27700 0.88160 -0.38400
O 	O 	0.69703 0.29040 0.85180 -0.38900
O 	O 	0.68897 0.19250 0.54490 -0.45500
O 	O 	0.73144 0.25680 0.61160 -0.51400
O 	O 	0.14720 0.09110 0.39150 -0.41700
O 	O 	0.19080 0.05610 0.47380 -0.42000
O 	O 	0.21660 0.81550 0.48070 -0.51400
O 	O 	0.17170 0.75580 0.41220 -0.45300
C 	C 	0.31720 0.94150 0.54310 0.34400
C 	C 	0.33370 0.00850 0.54660 -0.10700
C 	C 	0.37660 0.02190 0.57740 -0.01000
H 	H 	0.39440 0.98890 0.59580 0.05100
C 	C 	0.39260 0.08310 0.58080 -0.01300
C 	C 	0.36480 0.13290 0.55300 0.03100
H 	H 	0.37530 0.17450 0.55470 0.02900
C 	C 	0.32310 0.12030 0.52390 -0.18200
C 	C 	0.30780 0.05840 0.51830 0.06900
H 	H 	0.28000 0.05000 0.49560 0.03100
C 	C 	0.29460 0.17400 0.49500 0.52800
C 	C 	0.43600 0.09830 0.61130 -0.00700
C 	C 	0.47290 0.11420 0.63310 -0.00800
C 	C 	0.51410 0.13480 0.65860 -0.00100
C 	C 	0.55010 0.15590 0.67680 -0.01400
C 	C 	0.59350 0.18540 0.69230 0.00400
C 	C 	0.60450 0.21160 0.75740 -0.02300
H 	H 	0.58470 0.20870 0.79210 0.05700
C 	C 	0.64560 0.24200 0.76930 -0.08800
C 	C 	0.67490 0.24490 0.71820 0.05200
H 	H 	0.70160 0.26710 0.72680 0.02500
C 	C 	0.66640 0.21570 0.65300 -0.15200
C 	C 	0.62320 0.18710 0.64180 0.00300
H 	H 	0.61500 0.16920 0.59900 0.04900
C 	C 	0.65790 0.27150 0.83840 0.32600
C 	C 	0.69840 0.22120 0.60020 0.48000
C 	C 	0.16310 0.04560 0.42530 0.35200
C 	C 	0.14740 0.98060 0.40720 -0.10400
C 	C 	0.17250 0.92710 0.43130 0.04300
H 	H 	0.19890 0.93260 0.45890 0.03200
C 	C 	0.15750 0.86590 0.41330 -0.13000
C 	C 	0.11870 0.85690 0.37260 -0.00600
H 	H 	0.10900 0.81610 0.36090 0.04800
C 	C 	0.09380 0.91010 0.34860 -0.00200
C 	C 	0.10980 0.97350 0.36620 -0.01600
H 	H 	0.09410 0.00900 0.34920 0.05100
C 	C 	0.18400 0.80840 0.43740 0.44200
C 	C 	0.05380 0.90420 0.30320 -0.01900
C 	C 	0.01980 0.90200 0.27210 -0.01100
Er	Er	0.77659 0.32500 0.55766 1.67200
Er	Er	0.68199 0.67001 0.46255 1.58200
O 	O 	0.77910 0.43030 0.51680 -0.42200
O 	O 	0.83970 0.39740 0.57080 -0.40300
O 	O 	0.75820 0.66000 0.46620 -0.50400
O 	O 	0.80910 0.72830 0.50230 -0.53600
O 	O 	0.12853 0.77700 0.88160 -0.38400
O 	O 	0.19703 0.79040 0.85180 -0.38900
O 	O 	0.18897 0.69250 0.54490 -0.45500
O 	O 	0.23144 0.75680 0.61160 -0.51400
O 	O 	0.64720 0.59110 0.39150 -0.41700
O 	O 	0.69080 0.55610 0.47380 -0.42000
O 	O 	0.71660 0.31550 0.48070 -0.51400
O 	O 	0.67170 0.25580 0.41220 -0.45300
C 	C 	0.81720 0.44150 0.54310 0.34400
C 	C 	0.83370 0.50850 0.54660 -0.10700
C 	C 	0.87660 0.52190 0.57740 -0.01100
H 	H 	0.89440 0.48890 0.59580 0.05200
C 	C 	0.89260 0.58310 0.58080 -0.01300
C 	C 	0.86480 0.63290 0.55300 0.03000
H 	H 	0.87530 0.67450 0.55470 0.02900
C 	C 	0.82310 0.62030 0.52390 -0.18100
C 	C 	0.80780 0.55840 0.51830 0.06900
H 	H 	0.78000 0.55000 0.49560 0.03100
C 	C 	0.79460 0.67400 0.49500 0.52800
C 	C 	0.93600 0.59830 0.61130 -0.00700
C 	C 	0.97290 0.61420 0.63310 -0.00800
C 	C 	0.01410 0.63480 0.65860 -0.00100
C 	C 	0.05010 0.65590 0.67680 -0.01400
C 	C 	0.09350 0.68540 0.69230 0.00400
C 	C 	0.10450 0.71160 0.75740 -0.02300
H 	H 	0.08470 0.70870 0.79210 0.05700
C 	C 	0.14560 0.74200 0.76930 -0.08800
C 	C 	0.17490 0.74490 0.71820 0.05200
H 	H 	0.20160 0.76710 0.72680 0.02400
C 	C 	0.16640 0.71570 0.65300 -0.15200
C 	C 	0.12320 0.68710 0.64180 0.00300
H 	H 	0.11500 0.66920 0.59900 0.04900
C 	C 	0.15790 0.77150 0.83840 0.32600
C 	C 	0.19840 0.72120 0.60020 0.48000
C 	C 	0.66310 0.54560 0.42530 0.35300
C 	C 	0.64740 0.48060 0.40720 -0.10400
C 	C 	0.67250 0.42710 0.43130 0.04300
H 	H 	0.69890 0.43260 0.45890 0.03200
C 	C 	0.65750 0.36590 0.41330 -0.13000
C 	C 	0.61870 0.35690 0.37260 -0.00600
H 	H 	0.60900 0.31610 0.36090 0.04800
C 	C 	0.59380 0.41010 0.34860 -0.00100
C 	C 	0.60980 0.47350 0.36620 -0.01700
H 	H 	0.59410 0.50900 0.34920 0.05200
C 	C 	0.68400 0.30840 0.43740 0.44200
C 	C 	0.55380 0.40420 0.30320 -0.01900
C 	C 	0.51980 0.40200 0.27210 -0.01100
