data_crystal

_cell_length_a 15.09200
_cell_length_b 16.74400
_cell_length_c 22.51800
_cell_angle_alpha 90.00000
_cell_angle_beta  90.00000
_cell_angle_gamma 90.00000

_symmetry_space_group_name_	'P 1'
_symmetry_space_group_name_H-M	'P 1'

loop_
_symmetry_equiv_pos_as_xyz
  x,y,z

loop_
_atom_site_label
_atom_site_type_symbol
_atom_site_fract_x
_atom_site_fract_y
_atom_site_fract_z
_atom_site_charge
Co	Co	0.26612 0.27396 0.38195 1.17000
Co	Co	0.73388 0.22604 0.38195 1.17000
Co	Co	0.26612 0.72604 0.11805 1.17000
Co	Co	0.73388 0.77396 0.11805 1.17000
Co	Co	0.73388 0.72604 0.61805 1.17000
Co	Co	0.26612 0.77396 0.61805 1.17000
Co	Co	0.73388 0.27396 0.88195 1.17000
Co	Co	0.26612 0.22604 0.88195 1.17000
Co	Co	0.50000 0.25000 0.40268 1.20500
Co	Co	0.50000 0.75000 0.09732 1.20500
Co	Co	0.50000 0.75000 0.59732 1.20500
Co	Co	0.50000 0.25000 0.90268 1.20400
H 	H 	0.55820 0.43740 0.27860 0.04100
H 	H 	0.49470 0.42140 0.56140 0.04600
H 	H 	0.47000 0.55300 0.60550 0.04800
H 	H 	0.09230 0.28390 0.45230 -0.19600
H 	H 	0.96910 0.35580 0.46200 0.36800
H 	H 	0.04100 0.47860 0.32740 0.31300
H 	H 	0.16440 0.40000 0.31850 -0.12600
H 	H 	0.87010 0.45680 0.42630 0.47000
H 	H 	0.93380 0.52350 0.44930 0.44900
H 	H 	0.94720 0.57220 0.35670 -0.41400
H 	H 	0.88760 0.50450 0.33220 -0.39000
H 	H 	0.83450 0.63700 0.38970 0.47500
H 	H 	0.77090 0.56620 0.37470 0.47700
H 	H 	0.67590 0.61280 0.30240 0.28700
H 	H 	0.65120 0.67860 0.21650 -0.11200
H 	H 	0.90020 0.71120 0.19090 -0.11300
H 	H 	0.93260 0.64920 0.27780 0.28800
H 	H 	0.44180 0.06260 0.27860 0.04200
H 	H 	0.50530 0.07860 0.56140 0.04700
H 	H 	0.53000 0.94700 0.60550 0.04700
H 	H 	0.90770 0.21610 0.45230 -0.19900
H 	H 	0.03090 0.14420 0.46200 0.37200
H 	H 	0.95900 0.02140 0.32740 0.31600
H 	H 	0.83560 0.10000 0.31850 -0.12800
H 	H 	0.12990 0.04320 0.42630 0.47700
H 	H 	0.06620 0.97650 0.44930 0.45800
H 	H 	0.05280 0.92780 0.35670 -0.42200
H 	H 	0.11240 0.99550 0.33220 -0.39800
H 	H 	0.16550 0.86300 0.38970 0.48100
H 	H 	0.22910 0.93380 0.37470 0.48400
H 	H 	0.32410 0.88720 0.30240 0.29100
H 	H 	0.34880 0.82140 0.21650 -0.11300
H 	H 	0.09980 0.78880 0.19090 -0.11400
H 	H 	0.06740 0.85080 0.27780 0.29100
H 	H 	0.55820 0.56260 0.22140 0.04100
H 	H 	0.49470 0.57860 0.93860 0.04600
H 	H 	0.47000 0.44700 0.89450 0.04800
H 	H 	0.09230 0.71610 0.04770 -0.19600
H 	H 	0.96910 0.64420 0.03800 0.36700
H 	H 	0.04100 0.52140 0.17260 0.31300
H 	H 	0.16440 0.60000 0.18150 -0.12600
H 	H 	0.87010 0.54320 0.07370 0.46900
H 	H 	0.93380 0.47650 0.05070 0.44800
H 	H 	0.94720 0.42780 0.14330 -0.41300
H 	H 	0.88760 0.49550 0.16780 -0.39000
H 	H 	0.83450 0.36300 0.11030 0.47300
H 	H 	0.77090 0.43380 0.12530 0.47600
H 	H 	0.67590 0.38720 0.19760 0.28700
H 	H 	0.65120 0.32140 0.28350 -0.11200
H 	H 	0.90020 0.28880 0.30910 -0.11300
H 	H 	0.93260 0.35080 0.22220 0.28700
H 	H 	0.44180 0.93740 0.22140 0.04000
H 	H 	0.50530 0.92140 0.93860 0.04600
H 	H 	0.53000 0.05300 0.89450 0.04800
H 	H 	0.90770 0.78390 0.04770 -0.19100
H 	H 	0.03090 0.85580 0.03800 0.35900
H 	H 	0.95900 0.97860 0.17260 0.30600
H 	H 	0.83560 0.90000 0.18150 -0.12200
H 	H 	0.12990 0.95680 0.07370 0.45400
H 	H 	0.06620 0.02350 0.05070 0.43000
H 	H 	0.05280 0.07220 0.14330 -0.39700
H 	H 	0.11240 0.00450 0.16780 -0.37400
H 	H 	0.16550 0.13700 0.11030 0.46000
H 	H 	0.22910 0.06620 0.12530 0.46200
H 	H 	0.32410 0.11280 0.19760 0.28000
H 	H 	0.34880 0.17860 0.28350 -0.10800
H 	H 	0.09980 0.21120 0.30910 -0.11000
H 	H 	0.06740 0.14920 0.22220 0.28100
H 	H 	0.44180 0.56260 0.72140 0.04100
H 	H 	0.50530 0.57860 0.43860 0.04600
H 	H 	0.53000 0.44700 0.39450 0.04800
H 	H 	0.90770 0.71610 0.54770 -0.19600
H 	H 	0.03090 0.64420 0.53800 0.36700
H 	H 	0.95900 0.52140 0.67260 0.31300
H 	H 	0.83560 0.60000 0.68150 -0.12600
H 	H 	0.12990 0.54320 0.57370 0.47000
H 	H 	0.06620 0.47650 0.55070 0.44900
H 	H 	0.05280 0.42780 0.64330 -0.41400
H 	H 	0.11240 0.49550 0.66780 -0.39000
H 	H 	0.16550 0.36300 0.61030 0.47400
H 	H 	0.22910 0.43380 0.62530 0.47700
H 	H 	0.32410 0.38720 0.69760 0.28700
H 	H 	0.34880 0.32140 0.78350 -0.11200
H 	H 	0.09980 0.28880 0.80910 -0.11300
H 	H 	0.06740 0.35080 0.72220 0.28700
H 	H 	0.55820 0.93740 0.72140 0.04100
H 	H 	0.49470 0.92140 0.43860 0.04600
H 	H 	0.47000 0.05300 0.39450 0.04900
H 	H 	0.09230 0.78390 0.54770 -0.19500
H 	H 	0.96910 0.85580 0.53800 0.36600
H 	H 	0.04100 0.97860 0.67260 0.31100
H 	H 	0.16440 0.90000 0.68150 -0.12500
H 	H 	0.87010 0.95680 0.57370 0.46600
H 	H 	0.93380 0.02350 0.55070 0.44500
H 	H 	0.94720 0.07220 0.64330 -0.41000
H 	H 	0.88760 0.00450 0.66780 -0.38700
H 	H 	0.83450 0.13700 0.61030 0.47100
H 	H 	0.77090 0.06620 0.62530 0.47400
H 	H 	0.67590 0.11280 0.69760 0.28600
H 	H 	0.65120 0.17860 0.78350 -0.11100
H 	H 	0.90020 0.21120 0.80910 -0.11200
H 	H 	0.93260 0.14920 0.72220 0.28600
H 	H 	0.44180 0.43740 0.77860 0.04100
H 	H 	0.50530 0.42140 0.06140 0.04600
H 	H 	0.53000 0.55300 0.10550 0.04800
H 	H 	0.90770 0.28390 0.95230 -0.19600
H 	H 	0.03090 0.35580 0.96200 0.36700
H 	H 	0.95900 0.47860 0.82740 0.31300
H 	H 	0.83560 0.40000 0.81850 -0.12600
H 	H 	0.12990 0.45680 0.92630 0.46900
H 	H 	0.06620 0.52350 0.94930 0.44800
H 	H 	0.05280 0.57220 0.85670 -0.41300
H 	H 	0.11240 0.50450 0.83220 -0.39000
H 	H 	0.16550 0.63700 0.88970 0.47300
H 	H 	0.22910 0.56620 0.87470 0.47600
H 	H 	0.32410 0.61280 0.80240 0.28700
H 	H 	0.34880 0.67860 0.71650 -0.11200
H 	H 	0.09980 0.71120 0.69090 -0.11300
H 	H 	0.06740 0.64920 0.77780 0.28700
H 	H 	0.55820 0.06260 0.77860 0.04100
H 	H 	0.49470 0.07860 0.06140 0.04700
H 	H 	0.47000 0.94700 0.10550 0.04600
H 	H 	0.09230 0.21610 0.95230 -0.19400
H 	H 	0.96910 0.14420 0.96200 0.36500
H 	H 	0.04100 0.02140 0.82740 0.31100
H 	H 	0.16440 0.10000 0.81850 -0.12500
H 	H 	0.87010 0.04320 0.92630 0.46500
H 	H 	0.93380 0.97650 0.94930 0.44300
H 	H 	0.94720 0.92780 0.85670 -0.40800
H 	H 	0.88760 0.99550 0.83220 -0.38500
H 	H 	0.83450 0.86300 0.88970 0.47000
H 	H 	0.77090 0.93380 0.87470 0.47200
H 	H 	0.67590 0.88720 0.80240 0.28500
H 	H 	0.65120 0.82140 0.71650 -0.11100
H 	H 	0.90020 0.78880 0.69090 -0.11200
H 	H 	0.93260 0.85080 0.77780 0.28500
C 	C 	0.40000 0.36780 0.31580 0.39500
C 	C 	0.42420 0.43890 0.28110 -0.11200
C 	C 	0.50690 0.46410 0.26710 -0.01100
C 	C 	0.37880 0.35980 0.47460 0.38000
C 	C 	0.38200 0.43130 0.51380 -0.10200
C 	C 	0.44600 0.45330 0.55250 -0.01000
C 	C 	0.43190 0.52950 0.57810 -0.02300
C 	C 	0.35580 0.56470 0.55800 -0.10100
C 	C 	0.32170 0.64420 0.57490 0.32500
C 	C 	0.08510 0.32700 0.42670 0.59300
C 	C 	0.01140 0.37210 0.43450 -1.01300
C 	C 	0.99850 0.43510 0.40580 1.01000
C 	C 	0.05360 0.44120 0.35670 -0.76000
C 	C 	0.12700 0.39240 0.35090 0.44600
C 	C 	0.92070 0.48940 0.41560 -1.50500
C 	C 	0.89500 0.54060 0.36550 1.45700
C 	C 	0.82390 0.59390 0.36180 -1.55700
C 	C 	0.80580 0.62950 0.30330 0.88100
C 	C 	0.72320 0.63500 0.28180 -0.74900
C 	C 	0.70950 0.67360 0.22930 0.41300
C 	C 	0.85370 0.69300 0.21440 0.38900
C 	C 	0.87380 0.65630 0.26660 -0.68400
C 	C 	0.60000 0.13220 0.31580 0.39400
C 	C 	0.57580 0.06110 0.28110 -0.11000
C 	C 	0.49310 0.03590 0.26710 -0.01600
C 	C 	0.62120 0.14020 0.47460 0.38000
C 	C 	0.61800 0.06870 0.51380 -0.10200
C 	C 	0.55400 0.04670 0.55250 -0.01100
C 	C 	0.56810 0.97050 0.57810 -0.02100
C 	C 	0.64420 0.93530 0.55800 -0.10200
C 	C 	0.67830 0.85580 0.57490 0.32600
C 	C 	0.91490 0.17300 0.42670 0.60000
C 	C 	0.98860 0.12790 0.43450 -1.02600
C 	C 	0.00150 0.06490 0.40580 1.02600
C 	C 	0.94640 0.05880 0.35670 -0.77000
C 	C 	0.87300 0.10760 0.35090 0.45200
C 	C 	0.07930 0.01060 0.41560 -1.53300
C 	C 	0.10500 0.95940 0.36550 1.48600
C 	C 	0.17610 0.90610 0.36180 -1.58100
C 	C 	0.19420 0.87050 0.30330 0.89400
C 	C 	0.27680 0.86500 0.28180 -0.75800
C 	C 	0.29050 0.82640 0.22930 0.41800
C 	C 	0.14630 0.80700 0.21440 0.39400
C 	C 	0.12620 0.84370 0.26660 -0.69200
C 	C 	0.40000 0.63220 0.18420 0.39500
C 	C 	0.42420 0.56110 0.21890 -0.11200
C 	C 	0.50690 0.53590 0.23290 -0.01100
C 	C 	0.37880 0.64020 0.02540 0.38000
C 	C 	0.38200 0.56870 0.98620 -0.10300
C 	C 	0.44600 0.54670 0.94750 -0.00900
C 	C 	0.43190 0.47050 0.92190 -0.02300
C 	C 	0.35580 0.43530 0.94200 -0.10100
C 	C 	0.32170 0.35580 0.92510 0.32500
C 	C 	0.08510 0.67300 0.07330 0.59200
C 	C 	0.01140 0.62790 0.06550 -1.01100
C 	C 	0.99850 0.56490 0.09420 1.00800
C 	C 	0.05360 0.55880 0.14330 -0.75900
C 	C 	0.12700 0.60760 0.14910 0.44600
C 	C 	0.92070 0.51060 0.08440 -1.50200
C 	C 	0.89500 0.45940 0.13450 1.45400
C 	C 	0.82390 0.40610 0.13820 -1.55400
C 	C 	0.80580 0.37050 0.19670 0.88000
C 	C 	0.72320 0.36500 0.21820 -0.74800
C 	C 	0.70950 0.32640 0.27070 0.41200
C 	C 	0.85370 0.30700 0.28560 0.38900
C 	C 	0.87380 0.34370 0.23340 -0.68300
C 	C 	0.60000 0.86780 0.18420 0.39500
C 	C 	0.57580 0.93890 0.21890 -0.11000
C 	C 	0.49310 0.96410 0.23290 -0.00700
C 	C 	0.62120 0.85980 0.02540 0.38300
C 	C 	0.61800 0.93130 0.98620 -0.10500
C 	C 	0.55400 0.95330 0.94750 -0.01000
C 	C 	0.56810 0.02950 0.92190 -0.02100
C 	C 	0.64420 0.06470 0.94200 -0.10100
C 	C 	0.67830 0.14420 0.92510 0.32600
C 	C 	0.91490 0.82700 0.07330 0.57800
C 	C 	0.98860 0.87210 0.06550 -0.98600
C 	C 	0.00150 0.93510 0.09420 0.98000
C 	C 	0.94640 0.94120 0.14330 -0.74000
C 	C 	0.87300 0.89240 0.14910 0.43500
C 	C 	0.07930 0.98940 0.08440 -1.44800
C 	C 	0.10500 0.04060 0.13450 1.39800
C 	C 	0.17610 0.09390 0.13820 -1.50600
C 	C 	0.19420 0.12950 0.19670 0.85500
C 	C 	0.27680 0.13500 0.21820 -0.73100
C 	C 	0.29050 0.17360 0.27070 0.40200
C 	C 	0.14630 0.19300 0.28560 0.38000
C 	C 	0.12620 0.15630 0.23340 -0.66700
C 	C 	0.60000 0.63220 0.68420 0.39500
C 	C 	0.57580 0.56110 0.71890 -0.11200
C 	C 	0.49310 0.53590 0.73290 -0.01100
C 	C 	0.62120 0.64020 0.52540 0.38000
C 	C 	0.61800 0.56870 0.48620 -0.10200
C 	C 	0.55400 0.54670 0.44750 -0.01000
C 	C 	0.56810 0.47050 0.42190 -0.02300
C 	C 	0.64420 0.43530 0.44200 -0.10100
C 	C 	0.67830 0.35580 0.42510 0.32500
C 	C 	0.91490 0.67300 0.57330 0.59300
C 	C 	0.98860 0.62790 0.56550 -1.01300
C 	C 	0.00150 0.56490 0.59420 1.01000
C 	C 	0.94640 0.55880 0.64330 -0.76000
C 	C 	0.87300 0.60760 0.64910 0.44600
C 	C 	0.07930 0.51060 0.58440 -1.50400
C 	C 	0.10500 0.45940 0.63450 1.45700
C 	C 	0.17610 0.40610 0.63820 -1.55600
C 	C 	0.19420 0.37050 0.69670 0.88100
C 	C 	0.27680 0.36500 0.71820 -0.74900
C 	C 	0.29050 0.32640 0.77070 0.41200
C 	C 	0.14630 0.30700 0.78560 0.38900
C 	C 	0.12620 0.34370 0.73340 -0.68400
C 	C 	0.40000 0.86780 0.68420 0.39500
C 	C 	0.42420 0.93890 0.71890 -0.11200
C 	C 	0.50690 0.96410 0.73290 -0.01100
C 	C 	0.37880 0.85980 0.52540 0.38000
C 	C 	0.38200 0.93130 0.48620 -0.10100
C 	C 	0.44600 0.95330 0.44750 -0.00700
C 	C 	0.43190 0.02950 0.42190 -0.02600
C 	C 	0.35580 0.06470 0.44200 -0.10000
C 	C 	0.32170 0.14420 0.42510 0.32500
C 	C 	0.08510 0.82700 0.57330 0.59000
C 	C 	0.01140 0.87210 0.56550 -1.00800
C 	C 	0.99850 0.93510 0.59420 1.00400
C 	C 	0.05360 0.94120 0.64330 -0.75600
C 	C 	0.12700 0.89240 0.64910 0.44400
C 	C 	0.92070 0.98940 0.58440 -1.49300
C 	C 	0.89500 0.04060 0.63450 1.44400
C 	C 	0.82390 0.09390 0.63820 -1.54600
C 	C 	0.80580 0.12950 0.69670 0.87600
C 	C 	0.72320 0.13500 0.71820 -0.74500
C 	C 	0.70950 0.17360 0.77070 0.41000
C 	C 	0.85370 0.19300 0.78560 0.38700
C 	C 	0.87380 0.15630 0.73340 -0.68000
C 	C 	0.60000 0.36780 0.81580 0.39500
C 	C 	0.57580 0.43890 0.78110 -0.11200
C 	C 	0.49310 0.46410 0.76710 -0.01100
C 	C 	0.62120 0.35980 0.97460 0.38000
C 	C 	0.61800 0.43130 0.01380 -0.10300
C 	C 	0.55400 0.45330 0.05250 -0.00900
C 	C 	0.56810 0.52950 0.07810 -0.02300
C 	C 	0.64420 0.56470 0.05800 -0.10100
C 	C 	0.67830 0.64420 0.07490 0.32500
C 	C 	0.91490 0.32700 0.92670 0.59200
C 	C 	0.98860 0.37210 0.93450 -1.01100
C 	C 	0.00150 0.43510 0.90580 1.00800
C 	C 	0.94640 0.44120 0.85670 -0.75900
C 	C 	0.87300 0.39240 0.85090 0.44600
C 	C 	0.07930 0.48940 0.91560 -1.50200
C 	C 	0.10500 0.54060 0.86550 1.45400
C 	C 	0.17610 0.59390 0.86180 -1.55400
C 	C 	0.19420 0.62950 0.80330 0.88000
C 	C 	0.27680 0.63500 0.78180 -0.74900
C 	C 	0.29050 0.67360 0.72930 0.41200
C 	C 	0.14630 0.69300 0.71440 0.38900
C 	C 	0.12620 0.65630 0.76660 -0.68300
C 	C 	0.40000 0.13220 0.81580 0.39500
C 	C 	0.42420 0.06110 0.78110 -0.11200
C 	C 	0.50690 0.03590 0.76710 -0.01100
C 	C 	0.37880 0.14020 0.97460 0.38300
C 	C 	0.38200 0.06870 0.01380 -0.10600
C 	C 	0.44600 0.04670 0.05250 -0.01400
C 	C 	0.43190 0.97050 0.07810 -0.01600
C 	C 	0.35580 0.93530 0.05800 -0.10300
C 	C 	0.32170 0.85580 0.07490 0.32700
C 	C 	0.08510 0.17300 0.92670 0.58900
C 	C 	0.01140 0.12790 0.93450 -1.00500
C 	C 	0.99850 0.06490 0.90580 1.00100
C 	C 	0.05360 0.05880 0.85670 -0.75400
C 	C 	0.12700 0.10760 0.85090 0.44300
C 	C 	0.92070 0.01060 0.91560 -1.48700
C 	C 	0.89500 0.95940 0.86550 1.43900
C 	C 	0.82390 0.90610 0.86180 -1.54100
C 	C 	0.80580 0.87050 0.80330 0.87300
C 	C 	0.72320 0.86500 0.78180 -0.74400
C 	C 	0.70950 0.82640 0.72930 0.40900
C 	C 	0.85370 0.80700 0.71440 0.38600
C 	C 	0.87380 0.84370 0.76660 -0.67900
S 	S 	0.30148 0.50399 0.50779 0.00300
S 	S 	0.69852 0.99601 0.50779 0.00500
S 	S 	0.30148 0.49601 0.99221 0.00300
S 	S 	0.69852 0.00399 0.99221 0.00600
S 	S 	0.69852 0.49601 0.49221 0.00300
S 	S 	0.30148 0.00399 0.49221 -0.00000
S 	S 	0.69852 0.50399 0.00779 0.00300
S 	S 	0.30148 0.99601 0.00779 0.01000
S 	S 	0.34463 0.50000 0.25000 0.07600
S 	S 	0.65537 0.00000 0.25000 0.07200
S 	S 	0.65537 0.50000 0.75000 0.07600
S 	S 	0.34463 0.00000 0.75000 0.07600
N 	N 	0.14560 0.33760 0.38800 -0.42500
N 	N 	0.77170 0.70450 0.19500 -0.35300
N 	N 	0.85440 0.16240 0.38800 -0.42800
N 	N 	0.22830 0.79550 0.19500 -0.35500
N 	N 	0.14560 0.66240 0.11200 -0.42400
N 	N 	0.77170 0.29550 0.30500 -0.35300
N 	N 	0.85440 0.83760 0.11200 -0.41900
N 	N 	0.22830 0.20450 0.30500 -0.34900
N 	N 	0.85440 0.66240 0.61200 -0.42500
N 	N 	0.22830 0.29550 0.80500 -0.35300
N 	N 	0.14560 0.83760 0.61200 -0.42400
N 	N 	0.77170 0.20450 0.80500 -0.35200
N 	N 	0.85440 0.33760 0.88800 -0.42500
N 	N 	0.22830 0.70450 0.69500 -0.35300
N 	N 	0.14560 0.16240 0.88800 -0.42300
N 	N 	0.77170 0.79550 0.69500 -0.35200
O 	O 	0.46230 0.32850 0.33640 -0.42900
O 	O 	0.31860 0.35420 0.32310 -0.43200
O 	O 	0.45080 0.32260 0.46840 -0.41800
O 	O 	0.30520 0.34400 0.45220 -0.44000
O 	O 	0.37330 0.69060 0.60400 -0.48800
O 	O 	0.24320 0.66430 0.56360 -0.40100
O 	O 	0.53770 0.17150 0.33640 -0.42900
O 	O 	0.68140 0.14580 0.32310 -0.43200
O 	O 	0.54920 0.17740 0.46840 -0.41800
O 	O 	0.69480 0.15600 0.45220 -0.44000
O 	O 	0.62670 0.80940 0.60400 -0.48800
O 	O 	0.75680 0.83570 0.56360 -0.40100
O 	O 	0.46230 0.67150 0.16360 -0.42900
O 	O 	0.31860 0.64580 0.17690 -0.43200
O 	O 	0.45080 0.67740 0.03160 -0.41800
O 	O 	0.30520 0.65600 0.04780 -0.44000
O 	O 	0.37330 0.30940 0.89600 -0.48800
O 	O 	0.24320 0.33570 0.93640 -0.40100
O 	O 	0.53770 0.82850 0.16360 -0.42900
O 	O 	0.68140 0.85420 0.17690 -0.43200
O 	O 	0.54920 0.82260 0.03160 -0.41800
O 	O 	0.69480 0.84400 0.04780 -0.44000
O 	O 	0.62670 0.19060 0.89600 -0.48800
O 	O 	0.75680 0.16430 0.93640 -0.40100
O 	O 	0.53770 0.67150 0.66360 -0.42900
O 	O 	0.68140 0.64580 0.67690 -0.43200
O 	O 	0.54920 0.67740 0.53160 -0.41800
O 	O 	0.69480 0.65600 0.54780 -0.44000
O 	O 	0.62670 0.30940 0.39600 -0.48800
O 	O 	0.75680 0.33570 0.43640 -0.40100
O 	O 	0.46230 0.82850 0.66360 -0.42900
O 	O 	0.31860 0.85420 0.67690 -0.43200
O 	O 	0.45080 0.82260 0.53160 -0.41800
O 	O 	0.30520 0.84400 0.54780 -0.44000
O 	O 	0.37330 0.19060 0.39600 -0.48800
O 	O 	0.24320 0.16430 0.43640 -0.40200
O 	O 	0.53770 0.32850 0.83640 -0.42900
O 	O 	0.68140 0.35420 0.82310 -0.43200
O 	O 	0.54920 0.32260 0.96840 -0.41800
O 	O 	0.69480 0.34400 0.95220 -0.44000
O 	O 	0.62670 0.69060 0.10400 -0.48800
O 	O 	0.75680 0.66430 0.06360 -0.40100
O 	O 	0.46230 0.17150 0.83640 -0.42900
O 	O 	0.31860 0.14580 0.82310 -0.43200
O 	O 	0.45080 0.17740 0.96840 -0.41800
O 	O 	0.30520 0.15600 0.95220 -0.44000
O 	O 	0.37330 0.80940 0.10400 -0.48800
O 	O 	0.24320 0.83570 0.06360 -0.40100
