data_crystal

_cell_length_a 8.44130
_cell_length_b 8.44130
_cell_length_c 16.68800
_cell_angle_alpha 90.00000
_cell_angle_beta  90.00000
_cell_angle_gamma 90.78230

_symmetry_space_group_name_	'P 1'
_symmetry_space_group_name_H-M	'P 1'

loop_
_symmetry_equiv_pos_as_xyz
  x,y,z

loop_
_atom_site_label
_atom_site_type_symbol
_atom_site_fract_x
_atom_site_fract_y
_atom_site_fract_z
_atom_site_charge
Cd	Cd	0.93855 0.06145 0.32061 1.16300
Cd	Cd	0.30719 0.69281 0.17980 1.21400
Cd	Cd	0.62063 0.37937 0.28458 1.20000
Cd	Cd	0.06145 0.93855 0.82061 1.16200
Cd	Cd	0.69281 0.30719 0.67980 1.21400
Cd	Cd	0.37937 0.62063 0.78458 1.19900
H 	H 	0.66980 0.77600 0.25810 -0.04800
H 	H 	0.36280 0.09380 0.19990 -0.01300
H 	H 	0.33020 0.22400 0.75810 -0.04900
H 	H 	0.63720 0.90620 0.69990 -0.01400
H 	H 	0.77600 0.66980 0.75810 -0.04900
H 	H 	0.09380 0.36280 0.69990 -0.01400
H 	H 	0.22400 0.33020 0.25810 -0.04800
H 	H 	0.90620 0.63720 0.19990 -0.01300
H 	H 	0.57580 0.42420 0.48910 0.01900
H 	H 	0.89490 0.10510 0.52910 -0.02400
H 	H 	0.42420 0.57580 0.98910 0.02000
H 	H 	0.10510 0.89490 0.02910 -0.02700
C 	C 	0.62150 0.87310 0.25000 0.11000
C 	C 	0.45460 0.04600 0.21810 0.08800
C 	C 	0.37850 0.12690 0.75000 0.10900
C 	C 	0.54540 0.95400 0.71810 0.08700
C 	C 	0.87310 0.62150 0.75000 0.10900
C 	C 	0.04600 0.45460 0.71810 0.08700
C 	C 	0.12690 0.37850 0.25000 0.11000
C 	C 	0.95400 0.54540 0.21810 0.08800
C 	C 	0.65260 0.34740 0.48250 0.07100
C 	C 	0.82560 0.17440 0.50440 0.09600
C 	C 	0.34740 0.65260 0.98250 0.05100
C 	C 	0.17440 0.82560 0.00440 0.12100
N 	N 	0.68820 0.01140 0.26920 -0.23400
N 	N 	0.57860 0.12600 0.24730 -0.22500
N 	N 	0.47640 0.88840 0.21770 -0.24600
N 	N 	0.31180 0.98860 0.76920 -0.23400
N 	N 	0.42140 0.87400 0.74730 -0.22600
N 	N 	0.52360 0.11160 0.71770 -0.24600
N 	N 	0.01140 0.68820 0.76920 -0.23400
N 	N 	0.12600 0.57860 0.74730 -0.22600
N 	N 	0.88840 0.47640 0.71770 -0.24600
N 	N 	0.98860 0.31180 0.26920 -0.23400
N 	N 	0.87400 0.42140 0.24730 -0.22500
N 	N 	0.11160 0.52360 0.21770 -0.24600
N 	N 	0.70180 0.29820 0.41330 -0.21300
N 	N 	0.81280 0.18720 0.42840 -0.23600
N 	N 	0.72800 0.27200 0.54550 -0.23500
N 	N 	0.29820 0.70180 0.91330 -0.21100
N 	N 	0.18720 0.81280 0.92840 -0.24900
N 	N 	0.27200 0.72800 0.04550 -0.22800
Cl	Cl	0.07610 0.92390 0.20060 -0.65900
Cl	Cl	0.43120 0.56880 0.34370 -0.62000
Cl	Cl	0.52000 0.48000 0.14280 -0.62700
Cl	Cl	0.92390 0.07610 0.70060 -0.66200
Cl	Cl	0.56880 0.43120 0.84370 -0.62400
Cl	Cl	0.48000 0.52000 0.64280 -0.63300
