data_crystal

_cell_length_a 27.32800
_cell_length_b 32.12500
_cell_length_c 18.42400
_cell_angle_alpha 90.00000
_cell_angle_beta  90.00000
_cell_angle_gamma 90.00000

_symmetry_space_group_name_	'P 1'
_symmetry_space_group_name_H-M	'P 1'

loop_
_symmetry_equiv_pos_as_xyz
  x,y,z

loop_
_atom_site_label
_atom_site_type_symbol
_atom_site_fract_x
_atom_site_fract_y
_atom_site_fract_z
_atom_site_charge
Fe	Fe	0.19276 0.08050 0.20407 1.25000
Cl	Cl	0.15039 0.05348 0.29853 -0.35800
O 	O 	0.22170 0.02440 0.18010 -0.30300
O 	O 	0.23410 0.09430 0.11080 -0.27800
O 	O 	0.27200 0.99110 0.10330 -0.10300
O 	O 	0.29280 0.06600 0.04320 -0.10300
C 	C 	0.25160 0.02290 0.12770 0.24000
C 	C 	0.26160 0.06470 0.08940 0.24000
O 	O 	0.10150 0.17370 0.14770 -0.29300
O 	O 	0.07480 0.10590 0.07650 -0.27800
O 	O 	0.16260 0.13890 0.19890 -0.29100
O 	O 	0.13510 0.07110 0.12970 -0.28200
C 	C 	0.12570 0.14210 0.15880 0.24500
C 	C 	0.11110 0.10280 0.11870 0.23100
O 	O 	0.24420 0.10580 0.26120 -0.41900
Fe	Fe	0.69276 0.08050 0.70407 1.24900
Cl	Cl	0.65039 0.05348 0.79853 -0.36400
O 	O 	0.72170 0.02440 0.68010 -0.30700
O 	O 	0.73410 0.09430 0.61080 -0.28300
O 	O 	0.77200 0.99110 0.60330 -0.11300
O 	O 	0.79280 0.06600 0.54320 -0.11200
C 	C 	0.75160 0.02290 0.62770 0.23800
C 	C 	0.76160 0.06470 0.58940 0.23800
O 	O 	0.60150 0.17370 0.64770 -0.29700
O 	O 	0.57480 0.10590 0.57650 -0.28400
O 	O 	0.66260 0.13890 0.69890 -0.29300
O 	O 	0.63510 0.07110 0.62970 -0.28600
C 	C 	0.62570 0.14210 0.65880 0.24400
C 	C 	0.61110 0.10280 0.61870 0.23100
O 	O 	0.74420 0.10580 0.76120 -0.42000
Fe	Fe	0.79565 0.08500 0.82276 1.25100
Cl	Cl	0.84200 0.06084 0.72870 -0.35400
O 	O 	0.77200 0.02730 0.84520 -0.30100
O 	O 	0.75270 0.09720 0.91210 -0.29600
O 	O 	0.72480 0.99270 0.92460 -0.11500
O 	O 	0.69860 0.06560 0.98480 -0.11100
C 	C 	0.74330 0.02510 0.90060 0.22300
C 	C 	0.72980 0.06580 0.93510 0.22900
Fe	Fe	0.29565 0.08500 0.32276 1.25100
Cl	Cl	0.34200 0.06084 0.22870 -0.34900
O 	O 	0.27200 0.02730 0.34520 -0.29800
O 	O 	0.25270 0.09720 0.41210 -0.29300
O 	O 	0.22480 0.99270 0.42460 -0.10700
O 	O 	0.19860 0.06560 0.48480 -0.10200
C 	C 	0.24330 0.02510 0.40060 0.22400
C 	C 	0.22980 0.06580 0.43510 0.23000
Fe	Fe	0.44276 0.16950 0.45407 1.24900
Cl	Cl	0.40039 0.19652 0.54853 -0.36100
O 	O 	0.47170 0.22560 0.43010 -0.30600
O 	O 	0.48410 0.15570 0.36080 -0.28200
O 	O 	0.52200 0.25890 0.35330 -0.11200
O 	O 	0.54280 0.18400 0.29320 -0.11000
C 	C 	0.50160 0.22710 0.37770 0.23800
C 	C 	0.51160 0.18530 0.33940 0.23800
O 	O 	0.35150 0.07630 0.39770 -0.29600
O 	O 	0.32480 0.14410 0.32650 -0.28300
O 	O 	0.41260 0.11110 0.44890 -0.29200
O 	O 	0.38510 0.17890 0.37970 -0.28500
C 	C 	0.37570 0.10790 0.40880 0.24400
C 	C 	0.36110 0.14720 0.36870 0.23100
O 	O 	0.49420 0.14420 0.51120 -0.42000
Fe	Fe	0.94276 0.16950 0.95407 1.24000
Cl	Cl	0.90039 0.19652 0.04853 -0.34300
O 	O 	0.97170 0.22560 0.93010 -0.31400
O 	O 	0.98410 0.15570 0.86080 -0.28500
O 	O 	0.02200 0.25890 0.85330 -0.11600
O 	O 	0.04280 0.18400 0.79320 -0.11400
C 	C 	0.00160 0.22710 0.87770 0.23900
C 	C 	0.01160 0.18530 0.83940 0.23700
O 	O 	0.85150 0.07630 0.89770 -0.30000
O 	O 	0.82480 0.14410 0.82650 -0.28500
O 	O 	0.91260 0.11110 0.94890 -0.30100
O 	O 	0.88510 0.17890 0.87970 -0.28900
C 	C 	0.87570 0.10790 0.90880 0.24500
C 	C 	0.86110 0.14720 0.86870 0.22900
O 	O 	0.99420 0.14420 0.01120 -0.40600
Fe	Fe	0.04565 0.16500 0.07276 1.25600
Cl	Cl	0.09200 0.18916 0.97870 -0.37300
O 	O 	0.02200 0.22270 0.09520 -0.29200
O 	O 	0.00270 0.15280 0.16210 -0.29200
O 	O 	0.97480 0.25730 0.17460 -0.10400
O 	O 	0.94860 0.18440 0.23480 -0.10100
C 	C 	0.99330 0.22490 0.15060 0.22300
C 	C 	0.97980 0.18420 0.18510 0.23000
Fe	Fe	0.54565 0.16500 0.57276 1.25100
Cl	Cl	0.59200 0.18916 0.47870 -0.35200
O 	O 	0.52200 0.22270 0.59520 -0.29900
O 	O 	0.50270 0.15280 0.66210 -0.29400
O 	O 	0.47480 0.25730 0.67460 -0.10800
O 	O 	0.44860 0.18440 0.73480 -0.10400
C 	C 	0.49330 0.22490 0.65060 0.22400
C 	C 	0.47980 0.18420 0.68510 0.23000
Fe	Fe	0.20435 0.91500 0.82276 1.25100
Cl	Cl	0.15800 0.93916 0.72870 -0.35400
O 	O 	0.22800 0.97270 0.84520 -0.30100
O 	O 	0.24730 0.90280 0.91210 -0.29600
O 	O 	0.27520 0.00730 0.92460 -0.11500
O 	O 	0.30140 0.93440 0.98480 -0.11100
C 	C 	0.25670 0.97490 0.90060 0.22300
C 	C 	0.27020 0.93420 0.93510 0.22900
Fe	Fe	0.70435 0.91500 0.32276 1.25100
Cl	Cl	0.65800 0.93916 0.22870 -0.34900
O 	O 	0.72800 0.97270 0.34520 -0.29800
O 	O 	0.74730 0.90280 0.41210 -0.29300
O 	O 	0.77520 0.00730 0.42460 -0.10700
O 	O 	0.80140 0.93440 0.48480 -0.10200
C 	C 	0.75670 0.97490 0.40060 0.22400
C 	C 	0.77020 0.93420 0.43510 0.23000
Fe	Fe	0.80724 0.91950 0.20407 1.24900
Cl	Cl	0.84961 0.94652 0.29853 -0.35900
O 	O 	0.77830 0.97560 0.18010 -0.30400
O 	O 	0.76590 0.90570 0.11080 -0.27900
O 	O 	0.72800 0.00890 0.10330 -0.10400
O 	O 	0.70720 0.93400 0.04320 -0.10400
C 	C 	0.74840 0.97710 0.12770 0.23900
C 	C 	0.73840 0.93530 0.08940 0.23900
O 	O 	0.89850 0.82630 0.14770 -0.29300
O 	O 	0.92520 0.89410 0.07650 -0.27800
O 	O 	0.83740 0.86110 0.19890 -0.29100
O 	O 	0.86490 0.92890 0.12970 -0.28200
C 	C 	0.87430 0.85790 0.15880 0.24500
C 	C 	0.88890 0.89720 0.11870 0.23100
O 	O 	0.75580 0.89420 0.26120 -0.41900
Fe	Fe	0.30724 0.91950 0.70407 1.24900
Cl	Cl	0.34961 0.94652 0.79853 -0.36400
O 	O 	0.27830 0.97560 0.68010 -0.30700
O 	O 	0.26590 0.90570 0.61080 -0.28300
O 	O 	0.22800 0.00890 0.60330 -0.11300
O 	O 	0.20720 0.93400 0.54320 -0.11200
C 	C 	0.24840 0.97710 0.62770 0.23800
C 	C 	0.23840 0.93530 0.58940 0.23800
O 	O 	0.39850 0.82630 0.64770 -0.29700
O 	O 	0.42520 0.89410 0.57650 -0.28400
O 	O 	0.33740 0.86110 0.69890 -0.29300
O 	O 	0.36490 0.92890 0.62970 -0.28600
C 	C 	0.37430 0.85790 0.65880 0.24400
C 	C 	0.38890 0.89720 0.61870 0.23100
O 	O 	0.25580 0.89420 0.76120 -0.42000
Fe	Fe	0.45435 0.83500 0.57276 1.25100
Cl	Cl	0.40800 0.81084 0.47870 -0.35200
O 	O 	0.47800 0.77730 0.59520 -0.29900
O 	O 	0.49730 0.84720 0.66210 -0.29400
O 	O 	0.52520 0.74270 0.67460 -0.10800
O 	O 	0.55140 0.81560 0.73480 -0.10400
C 	C 	0.50670 0.77510 0.65060 0.22400
C 	C 	0.52020 0.81580 0.68510 0.23000
Fe	Fe	0.95435 0.83500 0.07276 1.25600
Cl	Cl	0.90800 0.81084 0.97870 -0.37300
O 	O 	0.97800 0.77730 0.09520 -0.29200
O 	O 	0.99730 0.84720 0.16210 -0.29200
O 	O 	0.02520 0.74270 0.17460 -0.10400
O 	O 	0.05140 0.81560 0.23480 -0.10100
C 	C 	0.00670 0.77510 0.15060 0.22300
C 	C 	0.02020 0.81580 0.18510 0.23000
Fe	Fe	0.05724 0.83050 0.95407 1.24000
Cl	Cl	0.09961 0.80348 0.04853 -0.34300
O 	O 	0.02830 0.77440 0.93010 -0.31400
O 	O 	0.01590 0.84430 0.86080 -0.28500
O 	O 	0.97800 0.74110 0.85330 -0.11600
O 	O 	0.95720 0.81600 0.79320 -0.11400
C 	C 	0.99840 0.77290 0.87770 0.23900
C 	C 	0.98840 0.81470 0.83940 0.23700
O 	O 	0.14850 0.92370 0.89770 -0.30000
O 	O 	0.17520 0.85590 0.82650 -0.28500
O 	O 	0.08740 0.88890 0.94890 -0.30100
O 	O 	0.11490 0.82110 0.87970 -0.28900
C 	C 	0.12430 0.89210 0.90880 0.24500
C 	C 	0.13890 0.85280 0.86870 0.22900
O 	O 	0.00580 0.85580 0.01120 -0.40600
Fe	Fe	0.55724 0.83050 0.45407 1.24900
Cl	Cl	0.59961 0.80348 0.54853 -0.36100
O 	O 	0.52830 0.77440 0.43010 -0.30600
O 	O 	0.51590 0.84430 0.36080 -0.28200
O 	O 	0.47800 0.74110 0.35330 -0.11200
O 	O 	0.45720 0.81600 0.29320 -0.11000
C 	C 	0.49840 0.77290 0.37770 0.23800
C 	C 	0.48840 0.81470 0.33940 0.23800
O 	O 	0.64850 0.92370 0.39770 -0.29600
O 	O 	0.67520 0.85590 0.32650 -0.28300
O 	O 	0.58740 0.88890 0.44890 -0.29200
O 	O 	0.61490 0.82110 0.37970 -0.28500
C 	C 	0.62430 0.89210 0.40880 0.24400
C 	C 	0.63890 0.85280 0.36870 0.23100
O 	O 	0.50580 0.85580 0.51120 -0.42000
Fe	Fe	0.19276 0.58050 0.70407 1.24900
Cl	Cl	0.15039 0.55348 0.79853 -0.36400
O 	O 	0.22170 0.52440 0.68010 -0.30700
O 	O 	0.23410 0.59430 0.61080 -0.28300
O 	O 	0.27200 0.49110 0.60330 -0.11300
O 	O 	0.29280 0.56600 0.54320 -0.11200
C 	C 	0.25160 0.52290 0.62770 0.23800
C 	C 	0.26160 0.56470 0.58940 0.23800
O 	O 	0.10150 0.67370 0.64770 -0.29700
O 	O 	0.07480 0.60590 0.57650 -0.28400
O 	O 	0.16260 0.63890 0.69890 -0.29300
O 	O 	0.13510 0.57110 0.62970 -0.28600
C 	C 	0.12570 0.64210 0.65880 0.24400
C 	C 	0.11110 0.60280 0.61870 0.23100
O 	O 	0.24420 0.60580 0.76120 -0.42000
Fe	Fe	0.69276 0.58050 0.20407 1.24900
Cl	Cl	0.65039 0.55348 0.29853 -0.35900
O 	O 	0.72170 0.52440 0.18010 -0.30400
O 	O 	0.73410 0.59430 0.11080 -0.27900
O 	O 	0.77200 0.49110 0.10330 -0.10400
O 	O 	0.79280 0.56600 0.04320 -0.10300
C 	C 	0.75160 0.52290 0.12770 0.23900
C 	C 	0.76160 0.56470 0.08940 0.23900
O 	O 	0.60150 0.67370 0.14770 -0.29300
O 	O 	0.57480 0.60590 0.07650 -0.27800
O 	O 	0.66260 0.63890 0.19890 -0.29100
O 	O 	0.63510 0.57110 0.12970 -0.28200
C 	C 	0.62570 0.64210 0.15880 0.24500
C 	C 	0.61110 0.60280 0.11870 0.23100
O 	O 	0.74420 0.60580 0.26120 -0.41900
Fe	Fe	0.79565 0.58500 0.32276 1.25100
Cl	Cl	0.84200 0.56084 0.22870 -0.34900
O 	O 	0.77200 0.52730 0.34520 -0.29800
O 	O 	0.75270 0.59720 0.41210 -0.29300
O 	O 	0.72480 0.49270 0.42460 -0.10700
O 	O 	0.69860 0.56560 0.48480 -0.10200
C 	C 	0.74330 0.52510 0.40060 0.22400
C 	C 	0.72980 0.56580 0.43510 0.23000
Fe	Fe	0.29565 0.58500 0.82276 1.25100
Cl	Cl	0.34200 0.56084 0.72870 -0.35400
O 	O 	0.27200 0.52730 0.84520 -0.30100
O 	O 	0.25270 0.59720 0.91210 -0.29600
O 	O 	0.22480 0.49270 0.92460 -0.11500
O 	O 	0.19860 0.56560 0.98480 -0.11100
C 	C 	0.24330 0.52510 0.90060 0.22300
C 	C 	0.22980 0.56580 0.93510 0.22900
Fe	Fe	0.44276 0.66950 0.95407 1.24000
Cl	Cl	0.40039 0.69652 0.04853 -0.34300
O 	O 	0.47170 0.72560 0.93010 -0.31400
O 	O 	0.48410 0.65570 0.86080 -0.28600
O 	O 	0.52200 0.75890 0.85330 -0.11600
O 	O 	0.54280 0.68400 0.79320 -0.11400
C 	C 	0.50160 0.72710 0.87770 0.23900
C 	C 	0.51160 0.68530 0.83940 0.23700
O 	O 	0.35150 0.57630 0.89770 -0.30000
O 	O 	0.32480 0.64410 0.82650 -0.28500
O 	O 	0.41260 0.61110 0.94890 -0.30100
O 	O 	0.38510 0.67890 0.87970 -0.28900
C 	C 	0.37570 0.60790 0.90880 0.24500
C 	C 	0.36110 0.64720 0.86870 0.22900
O 	O 	0.49420 0.64420 0.01120 -0.40600
Fe	Fe	0.94276 0.66950 0.45407 1.24900
Cl	Cl	0.90039 0.69652 0.54853 -0.36100
O 	O 	0.97170 0.72560 0.43010 -0.30600
O 	O 	0.98410 0.65570 0.36080 -0.28200
O 	O 	0.02200 0.75890 0.35330 -0.11200
O 	O 	0.04280 0.68400 0.29320 -0.11000
C 	C 	0.00160 0.72710 0.37770 0.23800
C 	C 	0.01160 0.68530 0.33940 0.23800
O 	O 	0.85150 0.57630 0.39770 -0.29600
O 	O 	0.82480 0.64410 0.32650 -0.28300
O 	O 	0.91260 0.61110 0.44890 -0.29200
O 	O 	0.88510 0.67890 0.37970 -0.28500
C 	C 	0.87570 0.60790 0.40880 0.24400
C 	C 	0.86110 0.64720 0.36870 0.23100
O 	O 	0.99420 0.64420 0.51120 -0.42000
Fe	Fe	0.04565 0.66500 0.57276 1.25100
Cl	Cl	0.09200 0.68916 0.47870 -0.35200
O 	O 	0.02200 0.72270 0.59520 -0.29900
O 	O 	0.00270 0.65280 0.66210 -0.29400
O 	O 	0.97480 0.75730 0.67460 -0.10800
O 	O 	0.94860 0.68440 0.73480 -0.10400
C 	C 	0.99330 0.72490 0.65060 0.22400
C 	C 	0.97980 0.68420 0.68510 0.23000
Fe	Fe	0.54565 0.66500 0.07276 1.25600
Cl	Cl	0.59200 0.68916 0.97870 -0.37300
O 	O 	0.52200 0.72270 0.09520 -0.29200
O 	O 	0.50270 0.65280 0.16210 -0.29200
O 	O 	0.47480 0.75730 0.17460 -0.10400
O 	O 	0.44860 0.68440 0.23480 -0.10100
C 	C 	0.49330 0.72490 0.15060 0.22300
C 	C 	0.47980 0.68420 0.18510 0.23000
Fe	Fe	0.20435 0.41500 0.32276 1.25100
Cl	Cl	0.15800 0.43916 0.22870 -0.34900
O 	O 	0.22800 0.47270 0.34520 -0.29800
O 	O 	0.24730 0.40280 0.41210 -0.29300
O 	O 	0.27520 0.50730 0.42460 -0.10700
O 	O 	0.30140 0.43440 0.48480 -0.10200
C 	C 	0.25670 0.47490 0.40060 0.22400
C 	C 	0.27020 0.43420 0.43510 0.23000
Fe	Fe	0.70435 0.41500 0.82276 1.25100
Cl	Cl	0.65800 0.43916 0.72870 -0.35400
O 	O 	0.72800 0.47270 0.84520 -0.30100
O 	O 	0.74730 0.40280 0.91210 -0.29600
O 	O 	0.77520 0.50730 0.92460 -0.11500
O 	O 	0.80140 0.43440 0.98480 -0.11100
C 	C 	0.75670 0.47490 0.90060 0.22300
C 	C 	0.77020 0.43420 0.93510 0.22900
Fe	Fe	0.80724 0.41950 0.70407 1.24900
Cl	Cl	0.84961 0.44652 0.79853 -0.36400
O 	O 	0.77830 0.47560 0.68010 -0.30700
O 	O 	0.76590 0.40570 0.61080 -0.28300
O 	O 	0.72800 0.50890 0.60330 -0.11300
O 	O 	0.70720 0.43400 0.54320 -0.11200
C 	C 	0.74840 0.47710 0.62770 0.23800
C 	C 	0.73840 0.43530 0.58940 0.23800
O 	O 	0.89850 0.32630 0.64770 -0.29700
O 	O 	0.92520 0.39410 0.57650 -0.28400
O 	O 	0.83740 0.36110 0.69890 -0.29300
O 	O 	0.86490 0.42890 0.62970 -0.28600
C 	C 	0.87430 0.35790 0.65880 0.24400
C 	C 	0.88890 0.39720 0.61870 0.23100
O 	O 	0.75580 0.39420 0.76120 -0.42000
Fe	Fe	0.30724 0.41950 0.20407 1.24900
Cl	Cl	0.34961 0.44652 0.29853 -0.35900
O 	O 	0.27830 0.47560 0.18010 -0.30400
O 	O 	0.26590 0.40570 0.11080 -0.27900
O 	O 	0.22800 0.50890 0.10330 -0.10400
O 	O 	0.20720 0.43400 0.04320 -0.10300
C 	C 	0.24840 0.47710 0.12770 0.23900
C 	C 	0.23840 0.43530 0.08940 0.23900
O 	O 	0.39850 0.32630 0.14770 -0.29300
O 	O 	0.42520 0.39410 0.07650 -0.27800
O 	O 	0.33740 0.36110 0.19890 -0.29100
O 	O 	0.36490 0.42890 0.12970 -0.28200
C 	C 	0.37430 0.35790 0.15880 0.24500
C 	C 	0.38890 0.39720 0.11870 0.23100
O 	O 	0.25580 0.39420 0.26120 -0.41900
Fe	Fe	0.45435 0.33500 0.07276 1.25600
Cl	Cl	0.40800 0.31084 0.97870 -0.37300
O 	O 	0.47800 0.27730 0.09520 -0.29200
O 	O 	0.49730 0.34720 0.16210 -0.29200
O 	O 	0.52520 0.24270 0.17460 -0.10400
O 	O 	0.55140 0.31560 0.23480 -0.10100
C 	C 	0.50670 0.27510 0.15060 0.22300
C 	C 	0.52020 0.31580 0.18510 0.23000
Fe	Fe	0.95435 0.33500 0.57276 1.25100
Cl	Cl	0.90800 0.31084 0.47870 -0.35200
O 	O 	0.97800 0.27730 0.59520 -0.29900
O 	O 	0.99730 0.34720 0.66210 -0.29400
O 	O 	0.02520 0.24270 0.67460 -0.10800
O 	O 	0.05140 0.31560 0.73480 -0.10400
C 	C 	0.00670 0.27510 0.65060 0.22400
C 	C 	0.02020 0.31580 0.68510 0.23000
Fe	Fe	0.05724 0.33050 0.45407 1.24900
Cl	Cl	0.09961 0.30348 0.54853 -0.36100
O 	O 	0.02830 0.27440 0.43010 -0.30600
O 	O 	0.01590 0.34430 0.36080 -0.28200
O 	O 	0.97800 0.24110 0.35330 -0.11200
O 	O 	0.95720 0.31600 0.29320 -0.11000
C 	C 	0.99840 0.27290 0.37770 0.23800
C 	C 	0.98840 0.31470 0.33940 0.23800
O 	O 	0.14850 0.42370 0.39770 -0.29600
O 	O 	0.17520 0.35590 0.32650 -0.28300
O 	O 	0.08740 0.38890 0.44890 -0.29200
O 	O 	0.11490 0.32110 0.37970 -0.28500
C 	C 	0.12430 0.39210 0.40880 0.24400
C 	C 	0.13890 0.35280 0.36870 0.23100
O 	O 	0.00580 0.35580 0.51120 -0.42000
Fe	Fe	0.55724 0.33050 0.95407 1.24000
Cl	Cl	0.59961 0.30348 0.04853 -0.34300
O 	O 	0.52830 0.27440 0.93010 -0.31400
O 	O 	0.51590 0.34430 0.86080 -0.28600
O 	O 	0.47800 0.24110 0.85330 -0.11600
O 	O 	0.45720 0.31600 0.79320 -0.11400
C 	C 	0.49840 0.27290 0.87770 0.23900
C 	C 	0.48840 0.31470 0.83940 0.23700
O 	O 	0.64850 0.42370 0.89770 -0.30000
O 	O 	0.67520 0.35590 0.82650 -0.28500
O 	O 	0.58740 0.38890 0.94890 -0.30100
O 	O 	0.61490 0.32110 0.87970 -0.28900
C 	C 	0.62430 0.39210 0.90880 0.24500
C 	C 	0.63890 0.35280 0.86870 0.22900
O 	O 	0.50580 0.35580 0.01120 -0.40600
