data_crystal

_cell_length_a 17.65500
_cell_length_b 17.63800
_cell_length_c 12.95600
_cell_angle_alpha 90.00000
_cell_angle_beta  127.42100
_cell_angle_gamma 90.00000

_symmetry_space_group_name_	'P 1'
_symmetry_space_group_name_H-M	'P 1'

loop_
_symmetry_equiv_pos_as_xyz
  x,y,z

loop_
_atom_site_label
_atom_site_type_symbol
_atom_site_fract_x
_atom_site_fract_y
_atom_site_fract_z
_atom_site_charge
O 	O 	0.09870 0.22105 0.38900 -0.45200
O 	O 	0.07740 0.29891 0.18210 -0.50800
O 	O 	0.08710 0.61520 0.87920 -0.53400
O 	O 	0.22780 0.65085 0.06340 -0.49900
O 	O 	0.23200 0.31213 0.35070 -0.45800
N 	N 	0.07250 0.16054 0.42160 -0.07300
C 	C 	0.08950 0.09100 0.39720 0.08900
C 	C 	0.01470 0.03350 0.48230 0.05900
C 	C 	0.06060 0.02780 0.42670 -0.22900
C 	C 	0.15770 0.33080 0.24040 0.37800
C 	C 	0.16020 0.60480 0.99410 0.46700
C 	C 	0.16470 0.53050 0.05660 -0.17400
C 	C 	0.23950 0.44730 0.24100 -0.07100
C 	C 	0.16400 0.39700 0.17370 -0.05500
C 	C 	0.00090 0.10690 0.50850 -0.25400
C 	C 	0.08970 0.47960 0.98660 0.06700
C 	C 	0.08850 0.41330 0.04450 -0.08100
C 	C 	0.02900 0.16860 0.47680 0.09600
C 	C 	0.23990 0.51340 0.18370 0.04600
H 	H 	0.02400 0.49800 0.88900 0.00700
H 	H 	0.01300 0.21900 0.48900 -0.00400
H 	H 	0.96700 0.11600 0.54400 0.16200
H 	H 	0.02800 0.37300 0.99900 0.04900
H 	H 	0.11400 0.08500 0.36100 0.00500
H 	H 	0.29500 0.54900 0.23800 0.02800
H 	H 	0.05600 0.98800 0.39400 0.12100
H 	H 	0.29000 0.44300 0.32600 0.07500
O 	O 	0.59870 0.72105 0.38900 -0.43800
O 	O 	0.57740 0.79891 0.18210 -0.47800
O 	O 	0.58710 0.11520 0.87920 -0.51000
O 	O 	0.72780 0.15085 0.06340 -0.49300
O 	O 	0.73200 0.81213 0.35070 -0.45200
N 	N 	0.57250 0.66054 0.42160 -0.05300
C 	C 	0.58950 0.59100 0.39720 0.07900
C 	C 	0.51470 0.53350 0.48230 0.05900
C 	C 	0.56060 0.52780 0.42670 -0.19800
C 	C 	0.65770 0.83080 0.24040 0.37300
C 	C 	0.66020 0.10480 0.99410 0.46800
C 	C 	0.66470 0.03050 0.05660 -0.17200
C 	C 	0.73950 0.94730 0.24100 -0.06700
C 	C 	0.66400 0.89700 0.17370 -0.04200
C 	C 	0.50090 0.60690 0.50850 -0.09600
C 	C 	0.58970 0.97960 0.98660 0.08900
C 	C 	0.58850 0.91330 0.04450 -0.08400
C 	C 	0.52900 0.66860 0.47680 0.03500
C 	C 	0.73990 0.01340 0.18370 0.04800
H 	H 	0.52400 0.99800 0.88900 0.03000
H 	H 	0.51300 0.71900 0.48900 0.04400
H 	H 	0.46700 0.61600 0.54400 0.06100
H 	H 	0.52800 0.87300 0.99900 0.07700
H 	H 	0.61400 0.58500 0.36100 0.02200
H 	H 	0.79500 0.04900 0.23800 0.03800
H 	H 	0.55600 0.48800 0.39400 0.12200
H 	H 	0.79000 0.94300 0.32600 0.07700
O 	O 	0.90130 0.22105 0.11100 -0.43100
O 	O 	0.92260 0.29891 0.31790 -0.44300
O 	O 	0.91290 0.61520 0.62080 -0.47000
O 	O 	0.77220 0.65085 0.43660 -0.46600
O 	O 	0.76800 0.31213 0.14930 -0.45900
N 	N 	0.92750 0.16054 0.07840 0.00800
C 	C 	0.91050 0.09100 0.10280 -0.07600
C 	C 	0.98530 0.03350 0.01770 -0.12600
C 	C 	0.93940 0.02780 0.07330 0.02600
C 	C 	0.84230 0.33080 0.25960 0.38300
C 	C 	0.83980 0.60480 0.50590 0.41400
C 	C 	0.83530 0.53050 0.44340 -0.09000
C 	C 	0.76050 0.44730 0.25900 -0.02900
C 	C 	0.83600 0.39700 0.32630 -0.07200
C 	C 	0.99910 0.10690 0.99150 0.21400
C 	C 	0.91030 0.47960 0.51340 0.01500
C 	C 	0.91150 0.41330 0.45550 -0.00100
C 	C 	0.97100 0.16860 0.02320 -0.11900
C 	C 	0.76010 0.51340 0.31630 0.00700
H 	H 	0.97600 0.49800 0.61100 0.07100
H 	H 	0.98700 0.21900 0.01100 0.11600
H 	H 	0.03300 0.11600 0.95600 -0.08600
H 	H 	0.97200 0.37300 0.50100 0.07100
H 	H 	0.88600 0.08500 0.13900 0.09800
H 	H 	0.70500 0.54900 0.26200 0.04500
H 	H 	0.94400 0.98800 0.10600 0.03600
H 	H 	0.71000 0.44300 0.17400 0.06000
O 	O 	0.40130 0.72105 0.11100 -0.44900
O 	O 	0.42260 0.79891 0.31790 -0.47800
O 	O 	0.41290 0.11520 0.62080 -0.50000
O 	O 	0.27220 0.15085 0.43660 -0.47400
O 	O 	0.26800 0.81213 0.14930 -0.46400
N 	N 	0.42750 0.66054 0.07840 0.00200
C 	C 	0.41050 0.59100 0.10280 -0.12300
C 	C 	0.48530 0.53350 0.01770 -0.18000
C 	C 	0.43940 0.52780 0.07330 0.08000
C 	C 	0.34230 0.83080 0.25960 0.38700
C 	C 	0.33980 0.10480 0.50590 0.41700
C 	C 	0.33530 0.03050 0.44340 -0.10600
C 	C 	0.26050 0.94730 0.25900 -0.03200
C 	C 	0.33600 0.89700 0.32630 -0.08100
C 	C 	0.49910 0.60690 0.99150 0.08900
C 	C 	0.41030 0.97960 0.51340 0.01100
C 	C 	0.41150 0.91330 0.45550 -0.01200
C 	C 	0.47100 0.66860 0.02320 -0.07900
C 	C 	0.26010 0.01340 0.31630 0.00500
H 	H 	0.47600 0.99800 0.61100 0.04600
H 	H 	0.48700 0.71900 0.01100 0.07400
H 	H 	0.53300 0.61600 0.95600 0.00400
H 	H 	0.47200 0.87300 0.50100 0.04800
H 	H 	0.38600 0.58500 0.13900 0.10700
H 	H 	0.20500 0.04900 0.26200 0.03400
H 	H 	0.44400 0.48800 0.10600 -0.00800
H 	H 	0.21000 0.94300 0.17400 0.05800
O 	O 	0.90130 0.77895 0.61100 -0.42300
O 	O 	0.92260 0.70109 0.81790 -0.44300
O 	O 	0.91290 0.38480 0.12080 -0.46000
O 	O 	0.77220 0.34915 0.93660 -0.43800
O 	O 	0.76800 0.68787 0.64930 -0.45500
N 	N 	0.92750 0.83946 0.57840 -0.03500
C 	C 	0.91050 0.90900 0.60280 0.07000
C 	C 	0.98530 0.96650 0.51770 0.06300
C 	C 	0.93940 0.97220 0.57330 -0.17300
C 	C 	0.84230 0.66920 0.75960 0.39700
C 	C 	0.83980 0.39520 0.00590 0.35700
C 	C 	0.83530 0.46950 0.94340 -0.01500
C 	C 	0.76050 0.55270 0.75900 0.01500
C 	C 	0.83600 0.60300 0.82630 -0.10800
C 	C 	0.99910 0.89310 0.49150 0.05900
C 	C 	0.91030 0.52040 0.01340 -0.06600
C 	C 	0.91150 0.58670 0.95550 0.07400
C 	C 	0.97100 0.83140 0.52320 -0.02300
C 	C 	0.76010 0.48660 0.81630 -0.03900
H 	H 	0.97600 0.50200 0.11100 0.08600
H 	H 	0.98700 0.78100 0.51100 0.09100
H 	H 	0.03300 0.88400 0.45600 -0.03600
H 	H 	0.97200 0.62700 0.00100 0.04000
H 	H 	0.88600 0.91500 0.63900 0.03500
H 	H 	0.70500 0.45100 0.76200 0.06200
H 	H 	0.94400 0.01200 0.60600 0.12500
H 	H 	0.71000 0.55700 0.67400 0.04700
O 	O 	0.40130 0.27895 0.61100 -0.44000
O 	O 	0.42260 0.20109 0.81790 -0.47800
O 	O 	0.41290 0.88480 0.12080 -0.48800
O 	O 	0.27220 0.84915 0.93660 -0.44700
O 	O 	0.26800 0.18787 0.64930 -0.46100
N 	N 	0.42750 0.33946 0.57840 -0.05500
C 	C 	0.41050 0.40900 0.60280 0.07800
C 	C 	0.48530 0.46650 0.51770 0.06100
C 	C 	0.43940 0.47220 0.57330 -0.20000
C 	C 	0.34230 0.16920 0.75960 0.39800
C 	C 	0.33980 0.89520 0.00590 0.36300
C 	C 	0.33530 0.96950 0.94340 -0.03300
C 	C 	0.26050 0.05270 0.75900 -0.00400
C 	C 	0.33600 0.10300 0.82630 -0.11000
C 	C 	0.49910 0.39310 0.49150 -0.09800
C 	C 	0.41030 0.02040 0.01340 -0.06600
C 	C 	0.41150 0.08670 0.95550 0.05200
C 	C 	0.47100 0.33140 0.52320 0.03500
C 	C 	0.26010 0.98660 0.81630 -0.02800
H 	H 	0.47600 0.00200 0.11100 0.05800
H 	H 	0.48700 0.28100 0.51100 0.04300
H 	H 	0.53300 0.38400 0.45600 0.06300
H 	H 	0.47200 0.12700 0.00100 0.02100
H 	H 	0.38600 0.41500 0.63900 0.01900
H 	H 	0.20500 0.95100 0.76200 0.04800
H 	H 	0.44400 0.51200 0.60600 0.12100
H 	H 	0.21000 0.05700 0.67400 0.05000
O 	O 	0.09870 0.77895 0.88900 -0.44600
O 	O 	0.07740 0.70109 0.68210 -0.51000
O 	O 	0.08710 0.38480 0.37920 -0.52500
O 	O 	0.22780 0.34915 0.56340 -0.47500
O 	O 	0.23200 0.68787 0.85070 -0.45300
N 	N 	0.07250 0.83946 0.92160 -0.11000
C 	C 	0.08950 0.90900 0.89720 0.21300
C 	C 	0.01470 0.96650 0.98230 0.23500
C 	C 	0.06060 0.97220 0.92670 -0.39700
C 	C 	0.15770 0.66920 0.74040 0.38900
C 	C 	0.16020 0.39520 0.49410 0.41800
C 	C 	0.16470 0.46950 0.55660 -0.11000
C 	C 	0.23950 0.55270 0.74100 -0.03400
C 	C 	0.16400 0.60300 0.67370 -0.08500
C 	C 	0.00090 0.89310 0.00850 -0.38900
C 	C 	0.08970 0.52040 0.48660 -0.00100
C 	C 	0.08850 0.58670 0.54450 -0.02100
C 	C 	0.02900 0.83140 0.97680 0.18000
C 	C 	0.23990 0.48660 0.68370 0.00700
H 	H 	0.02400 0.50200 0.38900 0.02000
H 	H 	0.01300 0.78100 0.98900 -0.02600
H 	H 	0.96700 0.88400 0.04400 0.20100
H 	H 	0.02800 0.62700 0.49900 0.02400
H 	H 	0.11400 0.91500 0.86100 -0.04800
H 	H 	0.29500 0.45100 0.73800 0.04300
H 	H 	0.05600 0.01200 0.89400 0.19300
H 	H 	0.29000 0.55700 0.82600 0.06400
O 	O 	0.59870 0.27895 0.88900 -0.42900
O 	O 	0.57740 0.20109 0.68210 -0.47700
O 	O 	0.58710 0.88480 0.37920 -0.49900
O 	O 	0.72780 0.84915 0.56340 -0.46700
O 	O 	0.73200 0.18787 0.85070 -0.44800
N 	N 	0.57250 0.33946 0.92160 -0.11000
C 	C 	0.58950 0.40900 0.89720 0.27900
C 	C 	0.51470 0.46650 0.98230 0.29900
C 	C 	0.56060 0.47220 0.92670 -0.47700
C 	C 	0.65770 0.16920 0.74040 0.38600
C 	C 	0.66020 0.89520 0.49410 0.41500
C 	C 	0.66470 0.96950 0.55660 -0.09600
C 	C 	0.73950 0.05270 0.74100 -0.03200
C 	C 	0.66400 0.10300 0.67370 -0.07600
C 	C 	0.50090 0.39310 0.00850 -0.28100
C 	C 	0.58970 0.02040 0.48660 0.00400
C 	C 	0.58850 0.08670 0.54450 -0.01000
C 	C 	0.52900 0.33140 0.97680 0.14900
C 	C 	0.73990 0.98660 0.68370 0.01000
H 	H 	0.52400 0.00200 0.38900 0.04400
H 	H 	0.51300 0.28100 0.98900 0.01300
H 	H 	0.46700 0.38400 0.04400 0.12000
H 	H 	0.52800 0.12700 0.49900 0.04600
H 	H 	0.61400 0.41500 0.86100 -0.06600
H 	H 	0.79500 0.95100 0.73800 0.05400
H 	H 	0.55600 0.51200 0.89400 0.25000
H 	H 	0.79000 0.05700 0.82600 0.06700
Mg	Mg	0.00000 0.30427 0.25000 1.47200
Mg	Mg	0.50000 0.80427 0.25000 1.47800
Mg	Mg	0.00000 0.69573 0.75000 1.47200
Mg	Mg	0.50000 0.19573 0.75000 1.47800
Mg	Mg	0.25000 0.25000 0.50000 1.47500
Mg	Mg	0.75000 0.25000 -0.00000 1.47400
Mg	Mg	0.75000 0.75000 0.50000 1.47500
Mg	Mg	0.25000 0.75000 -0.00000 1.47400
