data_crystal

_cell_length_a 18.16520
_cell_length_b 17.24660
_cell_length_c 13.49210
_cell_angle_alpha 90.00000
_cell_angle_beta  129.40000
_cell_angle_gamma 90.00000

_symmetry_space_group_name_	'P 1'
_symmetry_space_group_name_H-M	'P 1'

loop_
_symmetry_equiv_pos_as_xyz
  x,y,z

loop_
_atom_site_label
_atom_site_type_symbol
_atom_site_fract_x
_atom_site_fract_y
_atom_site_fract_z
_atom_site_charge
O 	O 	0.09932 0.27847 0.88938 -0.44700
O 	O 	0.08878 0.11102 0.87900 -0.53600
O 	O 	0.07547 0.80089 0.18685 -0.51600
O 	O 	0.23074 0.81091 0.35221 -0.46400
O 	O 	0.23126 0.14687 0.05926 -0.50800
N 	N 	0.07298 0.33949 0.92170 -0.07900
C 	C 	0.15659 0.83020 0.24350 0.39300
C 	C 	0.01517 0.46611 0.98310 0.14700
C 	C 	0.16220 0.10074 0.99260 0.48700
C 	C 	0.05930 0.47491 0.92890 -0.18600
C 	C 	0.08830 0.41116 0.90020 0.06900
C 	C 	0.16612 0.02641 0.05500 -0.19000
C 	C 	0.24250 0.94219 0.23760 -0.05200
C 	C 	0.16271 0.89534 0.17410 -0.06200
C 	C 	0.08560 0.91295 0.04790 -0.09000
C 	C 	0.08770 0.97742 0.98910 0.08700
C 	C 	0.24370 0.00742 0.17890 0.04500
C 	C 	0.03150 0.32834 0.97510 0.14900
C 	C 	0.00210 0.39055 0.00550 -0.33900
H 	H 	0.07500 0.52300 0.91700 0.08900
H 	H 	0.97400 0.38100 0.04600 0.18400
H 	H 	0.03400 0.99200 0.90300 0.00200
H 	H 	0.11900 0.41680 0.86900 0.01900
H 	H 	0.02200 0.27600 0.98600 -0.01600
H 	H 	0.02900 0.87700 0.00800 0.04200
H 	H 	0.29800 0.04100 0.22400 0.03000
H 	H 	0.30100 0.92900 0.32800 0.06300
O 	O 	0.59932 0.77847 0.88938 -0.43300
O 	O 	0.58878 0.61102 0.87900 -0.51300
O 	O 	0.57547 0.30089 0.18685 -0.48500
O 	O 	0.73074 0.31091 0.35221 -0.45800
O 	O 	0.73126 0.64687 0.05926 -0.50500
N 	N 	0.57298 0.83949 0.92170 -0.06500
C 	C 	0.65659 0.33020 0.24350 0.39000
C 	C 	0.51517 0.96611 0.98310 0.16100
C 	C 	0.66220 0.60074 0.99260 0.49000
C 	C 	0.55930 0.97491 0.92890 -0.17300
C 	C 	0.58830 0.91116 0.90020 0.07500
C 	C 	0.66612 0.52641 0.05500 -0.18400
C 	C 	0.74250 0.44219 0.23760 -0.04200
C 	C 	0.66271 0.39534 0.17410 -0.05400
C 	C 	0.58560 0.41295 0.04790 -0.08300
C 	C 	0.58770 0.47742 0.98910 0.09800
C 	C 	0.74370 0.50742 0.17890 0.04300
C 	C 	0.53150 0.82834 0.97510 0.10400
C 	C 	0.50210 0.89055 0.00550 -0.20700
H 	H 	0.57500 0.02300 0.91700 0.09900
H 	H 	0.47400 0.88100 0.04600 0.09300
H 	H 	0.53400 0.49200 0.90300 0.02200
H 	H 	0.61900 0.91680 0.86900 0.02700
H 	H 	0.52200 0.77600 0.98600 0.02700
H 	H 	0.52900 0.37700 0.00800 0.06300
H 	H 	0.79800 0.54100 0.22400 0.04100
H 	H 	0.80100 0.42900 0.32800 0.06400
O 	O 	0.90068 0.27847 0.61062 -0.42400
O 	O 	0.91122 0.11102 0.62100 -0.46900
O 	O 	0.92453 0.80089 0.31315 -0.45300
O 	O 	0.76926 0.81091 0.14779 -0.46700
O 	O 	0.76874 0.14687 0.44074 -0.46900
N 	N 	0.92702 0.33949 0.57830 -0.02400
C 	C 	0.84341 0.83020 0.25650 0.40100
C 	C 	0.98483 0.46611 0.51690 0.03100
C 	C 	0.83780 0.10074 0.50740 0.41400
C 	C 	0.94070 0.47491 0.57110 -0.06700
C 	C 	0.91170 0.41116 0.59980 0.01500
C 	C 	0.83388 0.02641 0.44500 -0.07400
C 	C 	0.75750 0.94219 0.26240 -0.00100
C 	C 	0.83729 0.89534 0.32590 -0.08900
C 	C 	0.91440 0.91295 0.45210 0.00900
C 	C 	0.91230 0.97742 0.51090 -0.01600
C 	C 	0.75630 0.00742 0.32110 -0.01600
C 	C 	0.96850 0.32834 0.52490 -0.04200
C 	C 	0.99790 0.39055 0.49450 0.07900
H 	H 	0.92500 0.52300 0.58300 0.06900
H 	H 	0.02600 0.38100 0.45400 -0.04100
H 	H 	0.96600 0.99200 0.59700 0.07900
H 	H 	0.88100 0.41680 0.63100 0.05900
H 	H 	0.97800 0.27600 0.51400 0.09700
H 	H 	0.97100 0.87700 0.49200 0.06700
H 	H 	0.70200 0.04100 0.27600 0.05200
H 	H 	0.69900 0.92900 0.17200 0.04500
O 	O 	0.40068 0.77847 0.61062 -0.44100
O 	O 	0.41122 0.61102 0.62100 -0.49700
O 	O 	0.42453 0.30089 0.31315 -0.48700
O 	O 	0.26926 0.31091 0.14779 -0.47200
O 	O 	0.26874 0.64687 0.44074 -0.47700
N 	N 	0.42702 0.83949 0.57830 -0.04100
C 	C 	0.34341 0.33020 0.25650 0.40500
C 	C 	0.48483 0.96611 0.51690 0.02800
C 	C 	0.33780 0.60074 0.50740 0.41800
C 	C 	0.44070 0.97491 0.57110 -0.09200
C 	C 	0.41170 0.91116 0.59980 0.01600
C 	C 	0.33388 0.52641 0.44500 -0.09000
C 	C 	0.25750 0.44219 0.26240 -0.00600
C 	C 	0.33729 0.39534 0.32590 -0.09600
C 	C 	0.41440 0.41295 0.45210 -0.00200
C 	C 	0.41230 0.47742 0.51090 -0.01700
C 	C 	0.25630 0.50742 0.32110 -0.01500
C 	C 	0.46850 0.82834 0.52490 0.01500
C 	C 	0.49790 0.89055 0.49450 -0.07400
H 	H 	0.42500 0.02300 0.58300 0.06400
H 	H 	0.52600 0.88100 0.45400 0.05600
H 	H 	0.46600 0.49200 0.59700 0.05600
H 	H 	0.38100 0.91680 0.63100 0.04800
H 	H 	0.47800 0.77600 0.51400 0.05000
H 	H 	0.47100 0.37700 0.49200 0.04600
H 	H 	0.20200 0.54100 0.27600 0.04000
H 	H 	0.19900 0.42900 0.17200 0.04400
O 	O 	0.90068 0.72153 0.11062 -0.43100
O 	O 	0.91122 0.88898 0.12100 -0.45700
O 	O 	0.92453 0.19911 0.81315 -0.45300
O 	O 	0.76926 0.18909 0.64779 -0.46200
O 	O 	0.76874 0.85313 0.94074 -0.43300
N 	N 	0.92702 0.66051 0.07830 -0.00100
C 	C 	0.84341 0.16980 0.75650 0.41600
C 	C 	0.98483 0.53389 0.01690 -0.09500
C 	C 	0.83780 0.89926 0.00740 0.33800
C 	C 	0.94070 0.52509 0.07110 0.01300
C 	C 	0.91170 0.58884 0.09980 -0.04000
C 	C 	0.83388 0.97359 0.94500 0.02300
C 	C 	0.75750 0.05781 0.76240 0.05100
C 	C 	0.83729 0.10466 0.82590 -0.12800
C 	C 	0.91440 0.08705 0.95210 0.08800
C 	C 	0.91230 0.02258 0.01090 -0.12500
C 	C 	0.75630 0.99258 0.82110 -0.08100
C 	C 	0.96850 0.67166 0.02490 -0.12700
C 	C 	0.99790 0.60945 0.99450 0.20700
H 	H 	0.92500 0.47700 0.08300 0.03500
H 	H 	0.02600 0.61900 0.95400 -0.07600
H 	H 	0.96600 0.00800 0.09700 0.10900
H 	H 	0.88100 0.58320 0.13100 0.07900
H 	H 	0.97800 0.72400 0.01400 0.11900
H 	H 	0.97100 0.12300 0.99200 0.05000
H 	H 	0.70200 0.95900 0.77600 0.07600
H 	H 	0.69900 0.07100 0.67200 0.03700
O 	O 	0.40068 0.22153 0.11062 -0.44700
O 	O 	0.41122 0.38898 0.12100 -0.48400
O 	O 	0.42453 0.69911 0.81315 -0.48800
O 	O 	0.26926 0.68909 0.64779 -0.46700
O 	O 	0.26874 0.35313 0.94074 -0.44300
N 	N 	0.42702 0.16051 0.07830 -0.01700
C 	C 	0.34341 0.66980 0.75650 0.41900
C 	C 	0.48483 0.03389 0.01690 -0.10000
C 	C 	0.33780 0.39926 0.00740 0.34800
C 	C 	0.44070 0.02509 0.07110 -0.00000
C 	C 	0.41170 0.08884 0.09980 -0.04300
C 	C 	0.33388 0.47359 0.94500 0.00700
C 	C 	0.25750 0.55781 0.76240 0.04000
C 	C 	0.33729 0.60466 0.82590 -0.13500
C 	C 	0.41440 0.58705 0.95210 0.07800
C 	C 	0.41230 0.52258 0.01090 -0.13000
C 	C 	0.25630 0.49258 0.82110 -0.07400
C 	C 	0.46850 0.17166 0.02490 -0.06700
C 	C 	0.49790 0.10945 0.99450 0.05300
H 	H 	0.42500 0.97700 0.08300 0.02400
H 	H 	0.52600 0.11900 0.95400 0.02100
H 	H 	0.46600 0.50800 0.09700 0.08600
H 	H 	0.38100 0.08320 0.13100 0.07000
H 	H 	0.47800 0.22400 0.01400 0.07200
H 	H 	0.47100 0.62300 0.99200 0.02900
H 	H 	0.20200 0.45900 0.77600 0.06300
H 	H 	0.19900 0.57100 0.67200 0.03700
O 	O 	0.09932 0.72153 0.38938 -0.45400
O 	O 	0.08878 0.88898 0.37900 -0.52400
O 	O 	0.07547 0.19911 0.68685 -0.51800
O 	O 	0.23074 0.18909 0.85221 -0.45900
O 	O 	0.23126 0.85313 0.55926 -0.47700
N 	N 	0.07298 0.66051 0.42170 -0.05800
C 	C 	0.15659 0.16980 0.74350 0.40700
C 	C 	0.01517 0.53389 0.48310 0.02700
C 	C 	0.16220 0.89926 0.49260 0.42000
C 	C 	0.05930 0.52509 0.42890 -0.11000
C 	C 	0.08830 0.58884 0.40020 0.01800
C 	C 	0.16612 0.97359 0.55500 -0.09900
C 	C 	0.24250 0.05781 0.73760 -0.00300
C 	C 	0.16271 0.10466 0.67410 -0.10000
C 	C 	0.08560 0.08705 0.54790 -0.01200
C 	C 	0.08770 0.02258 0.48910 -0.02000
C 	C 	0.24370 0.99258 0.67890 -0.01500
C 	C 	0.03150 0.67166 0.47510 0.07400
C 	C 	0.00210 0.60945 0.50550 -0.22400
H 	H 	0.07500 0.47700 0.41700 0.05700
H 	H 	0.97400 0.61900 0.54600 0.15300
H 	H 	0.03400 0.00800 0.40300 0.03200
H 	H 	0.11900 0.58320 0.36900 0.03800
H 	H 	0.02200 0.72400 0.48600 0.00500
H 	H 	0.02900 0.12300 0.50800 0.02400
H 	H 	0.29800 0.95900 0.72400 0.05300
H 	H 	0.30100 0.07100 0.82800 0.05500
O 	O 	0.59932 0.22153 0.38938 -0.44000
O 	O 	0.58878 0.38898 0.37900 -0.49900
O 	O 	0.57547 0.69911 0.68685 -0.48500
O 	O 	0.73074 0.68909 0.85221 -0.45300
O 	O 	0.73126 0.35313 0.55926 -0.46900
N 	N 	0.57298 0.16051 0.42170 -0.04000
C 	C 	0.65659 0.66980 0.74350 0.40400
C 	C 	0.51517 0.03389 0.48310 0.02900
C 	C 	0.66220 0.39926 0.49260 0.41700
C 	C 	0.55930 0.02509 0.42890 -0.08400
C 	C 	0.58830 0.08884 0.40020 0.01500
C 	C 	0.66612 0.47359 0.55500 -0.08400
C 	C 	0.74250 0.55781 0.73760 0.00500
C 	C 	0.66271 0.60466 0.67410 -0.09300
C 	C 	0.58560 0.58705 0.54790 -0.00100
C 	C 	0.58770 0.52258 0.48910 -0.01800
C 	C 	0.74370 0.49258 0.67890 -0.01800
C 	C 	0.53150 0.17166 0.47510 0.01600
C 	C 	0.50210 0.10945 0.50550 -0.07200
H 	H 	0.57500 0.97700 0.41700 0.06000
H 	H 	0.47400 0.11900 0.54600 0.05600
H 	H 	0.53400 0.50800 0.40300 0.05300
H 	H 	0.61900 0.08320 0.36900 0.04900
H 	H 	0.52200 0.22400 0.48600 0.05100
H 	H 	0.52900 0.62300 0.50800 0.04400
H 	H 	0.79800 0.45900 0.72400 0.06500
H 	H 	0.80100 0.57100 0.82800 0.05700
Mg	Mg	0.00000 0.19347 0.75000 1.47200
Mg	Mg	0.50000 0.69347 0.75000 1.47900
Mg	Mg	0.00000 0.80653 0.25000 1.47200
Mg	Mg	0.50000 0.30653 0.25000 1.47800
Mg	Mg	0.25000 0.25000 -0.00000 1.47400
Mg	Mg	0.75000 0.25000 0.50000 1.47600
Mg	Mg	0.75000 0.75000 -0.00000 1.47400
Mg	Mg	0.25000 0.75000 0.50000 1.47600
