data_crystal

_cell_length_a 18.30660
_cell_length_b 16.97900
_cell_length_c 13.80350
_cell_angle_alpha 90.00000
_cell_angle_beta  130.13400
_cell_angle_gamma 90.00000

_symmetry_space_group_name_	'P 1'
_symmetry_space_group_name_H-M	'P 1'

loop_
_symmetry_equiv_pos_as_xyz
  x,y,z

loop_
_atom_site_label
_atom_site_type_symbol
_atom_site_fract_x
_atom_site_fract_y
_atom_site_fract_z
_atom_site_charge
O 	O 	0.09933 0.27866 0.88833 -0.44800
O 	O 	0.08858 0.10834 0.87882 -0.53800
O 	O 	0.23165 0.81227 0.35637 -0.46200
O 	O 	0.07581 0.80109 0.19096 -0.51800
O 	O 	0.23134 0.14610 0.05769 -0.50900
N 	N 	0.07295 0.33959 0.92070 -0.07400
C 	C 	0.15746 0.83089 0.24750 0.39100
C 	C 	0.16165 0.09893 0.99170 0.48800
C 	C 	0.16627 0.02518 0.05640 -0.19100
C 	C 	0.01488 0.46603 0.98260 0.13100
C 	C 	0.08700 0.41297 0.90070 0.05900
C 	C 	0.05810 0.47663 0.92970 -0.16500
C 	C 	0.16313 0.89530 0.17820 -0.06500
C 	C 	0.08620 0.91135 0.05250 -0.08400
C 	C 	0.24260 0.94350 0.24030 -0.05200
C 	C 	0.24310 0.00830 0.18010 0.04300
C 	C 	0.08770 0.97512 0.99170 0.08400
C 	C 	0.03360 0.32680 0.97440 0.13300
C 	C 	0.00400 0.38929 0.00450 -0.31000
H 	H 	0.11700 0.41700 0.86800 0.02400
H 	H 	0.02800 0.98800 0.89800 0.00300
H 	H 	0.01900 0.27200 0.97900 -0.00900
H 	H 	0.02600 0.87700 0.00800 0.03500
H 	H 	0.07200 0.52800 0.91900 0.07800
H 	H 	0.29200 0.04100 0.22400 0.03000
H 	H 	0.97700 0.37700 0.04700 0.16700
H 	H 	0.30000 0.93400 0.33000 0.06300
O 	O 	0.59933 0.77866 0.88833 -0.43200
O 	O 	0.58858 0.60834 0.87882 -0.51400
O 	O 	0.73165 0.31227 0.35637 -0.45700
O 	O 	0.57581 0.30109 0.19096 -0.48500
O 	O 	0.73134 0.64610 0.05769 -0.50600
N 	N 	0.57295 0.83959 0.92070 -0.06300
C 	C 	0.65746 0.33089 0.24750 0.38800
C 	C 	0.66165 0.59893 0.99170 0.49200
C 	C 	0.66627 0.52518 0.05640 -0.18500
C 	C 	0.51488 0.96603 0.98260 0.15700
C 	C 	0.58700 0.91297 0.90070 0.06900
C 	C 	0.55810 0.97663 0.92970 -0.16000
C 	C 	0.66313 0.39530 0.17820 -0.05600
C 	C 	0.58620 0.41135 0.05250 -0.07800
C 	C 	0.74260 0.44350 0.24030 -0.04200
C 	C 	0.74310 0.50830 0.18010 0.04000
C 	C 	0.58770 0.47512 0.99170 0.09700
C 	C 	0.53360 0.82680 0.97440 0.10000
C 	C 	0.50400 0.88929 0.00450 -0.19600
H 	H 	0.61700 0.91700 0.86800 0.03100
H 	H 	0.52800 0.48800 0.89800 0.02500
H 	H 	0.51900 0.77200 0.97900 0.03000
H 	H 	0.52600 0.37700 0.00800 0.05800
H 	H 	0.57200 0.02800 0.91900 0.09200
H 	H 	0.79200 0.54100 0.22400 0.04200
H 	H 	0.47700 0.87700 0.04700 0.08500
H 	H 	0.80000 0.43400 0.33000 0.06400
O 	O 	0.90067 0.27866 0.61167 -0.42300
O 	O 	0.91142 0.10834 0.62118 -0.46900
O 	O 	0.76835 0.81227 0.14363 -0.46700
O 	O 	0.92419 0.80109 0.30904 -0.45200
O 	O 	0.76866 0.14610 0.44231 -0.46900
N 	N 	0.92705 0.33959 0.57930 -0.02600
C 	C 	0.84254 0.83089 0.25250 0.40100
C 	C 	0.83835 0.09893 0.50830 0.41200
C 	C 	0.83373 0.02518 0.44360 -0.07100
C 	C 	0.98512 0.46603 0.51740 0.04100
C 	C 	0.91300 0.41297 0.59930 0.01900
C 	C 	0.94190 0.47663 0.57030 -0.06800
C 	C 	0.83687 0.89530 0.32180 -0.09200
C 	C 	0.91380 0.91135 0.44750 0.00800
C 	C 	0.75740 0.94350 0.25970 0.00700
C 	C 	0.75690 0.00830 0.31990 -0.03300
C 	C 	0.91230 0.97512 0.50830 -0.00600
C 	C 	0.96640 0.32680 0.52560 -0.02900
C 	C 	0.99600 0.38929 0.49550 0.06600
H 	H 	0.88300 0.41700 0.63200 0.05900
H 	H 	0.97200 0.98800 0.60200 0.07400
H 	H 	0.98100 0.27200 0.52100 0.09300
H 	H 	0.97400 0.87700 0.49200 0.06700
H 	H 	0.92800 0.52800 0.58100 0.06900
H 	H 	0.70800 0.04100 0.27600 0.06100
H 	H 	0.02300 0.37700 0.45300 -0.03600
H 	H 	0.70000 0.93400 0.17000 0.04100
O 	O 	0.40067 0.77866 0.61167 -0.44000
O 	O 	0.41142 0.60834 0.62118 -0.49700
O 	O 	0.26835 0.31227 0.14363 -0.47100
O 	O 	0.42419 0.30109 0.30904 -0.48800
O 	O 	0.26866 0.64610 0.44231 -0.47700
N 	N 	0.42705 0.83959 0.57930 -0.04000
C 	C 	0.34254 0.33089 0.25250 0.40400
C 	C 	0.33835 0.59893 0.50830 0.41600
C 	C 	0.33373 0.52518 0.44360 -0.08700
C 	C 	0.48512 0.96603 0.51740 0.02400
C 	C 	0.41300 0.91297 0.59930 0.01400
C 	C 	0.44190 0.97663 0.57030 -0.08300
C 	C 	0.33687 0.39530 0.32180 -0.10100
C 	C 	0.41380 0.41135 0.44750 -0.00100
C 	C 	0.25740 0.44350 0.25970 0.00100
C 	C 	0.25690 0.50830 0.31990 -0.03100
C 	C 	0.41230 0.47512 0.50830 -0.01000
C 	C 	0.46640 0.82680 0.52560 0.01500
C 	C 	0.49600 0.88929 0.49550 -0.06700
H 	H 	0.38300 0.91700 0.63200 0.05000
H 	H 	0.47200 0.48800 0.60200 0.05100
H 	H 	0.48100 0.77200 0.52100 0.05000
H 	H 	0.47400 0.37700 0.49200 0.04400
H 	H 	0.42800 0.02800 0.58100 0.06000
H 	H 	0.20800 0.54100 0.27600 0.04900
H 	H 	0.52300 0.87700 0.45300 0.05200
H 	H 	0.20000 0.43400 0.17000 0.04100
O 	O 	0.90067 0.72134 0.11167 -0.42900
O 	O 	0.91142 0.89166 0.12118 -0.45500
O 	O 	0.76835 0.18773 0.64363 -0.46100
O 	O 	0.92419 0.19891 0.80904 -0.45300
O 	O 	0.76866 0.85390 0.94231 -0.43100
N 	N 	0.92705 0.66041 0.07930 -0.00400
C 	C 	0.84254 0.16911 0.75250 0.41700
C 	C 	0.83835 0.90107 0.00830 0.33200
C 	C 	0.83373 0.97482 0.94360 0.03500
C 	C 	0.98512 0.53397 0.01740 -0.08500
C 	C 	0.91300 0.58703 0.09930 -0.03300
C 	C 	0.94190 0.52337 0.07030 0.00700
C 	C 	0.83687 0.10470 0.82180 -0.13500
C 	C 	0.91380 0.08865 0.94750 0.08600
C 	C 	0.75740 0.05650 0.75970 0.07000
C 	C 	0.75690 0.99170 0.81990 -0.11800
C 	C 	0.91230 0.02488 0.00830 -0.11000
C 	C 	0.96640 0.67320 0.02560 -0.11000
C 	C 	0.99600 0.61071 0.99550 0.19100
H 	H 	0.88300 0.58300 0.13200 0.07700
H 	H 	0.97200 0.01200 0.10200 0.09800
H 	H 	0.98100 0.72800 0.02100 0.11200
H 	H 	0.97400 0.12300 0.99200 0.05100
H 	H 	0.92800 0.47200 0.08100 0.03800
H 	H 	0.70800 0.95900 0.77600 0.09600
H 	H 	0.02300 0.62300 0.95300 -0.06700
H 	H 	0.70000 0.06600 0.67000 0.03000
O 	O 	0.40067 0.22134 0.11167 -0.44600
O 	O 	0.41142 0.39166 0.12118 -0.48300
O 	O 	0.26835 0.68773 0.64363 -0.46700
O 	O 	0.42419 0.69891 0.80904 -0.48900
O 	O 	0.26866 0.35390 0.94231 -0.44200
N 	N 	0.42705 0.16041 0.07930 -0.01800
C 	C 	0.34254 0.66911 0.75250 0.42000
C 	C 	0.33835 0.40107 0.00830 0.34100
C 	C 	0.33373 0.47482 0.94360 0.01700
C 	C 	0.48512 0.03397 0.01740 -0.10300
C 	C 	0.41300 0.08703 0.09930 -0.04100
C 	C 	0.44190 0.02337 0.07030 0.00200
C 	C 	0.33687 0.60470 0.82180 -0.14300
C 	C 	0.41380 0.58865 0.94750 0.07700
C 	C 	0.25740 0.55650 0.75970 0.05700
C 	C 	0.25690 0.49170 0.81990 -0.10800
C 	C 	0.41230 0.52488 0.00830 -0.11600
C 	C 	0.46640 0.17320 0.02560 -0.06300
C 	C 	0.49600 0.11071 0.99550 0.05600
H 	H 	0.38300 0.08300 0.13200 0.06900
H 	H 	0.47200 0.51200 0.10200 0.07400
H 	H 	0.48100 0.22800 0.02100 0.06900
H 	H 	0.47400 0.62300 0.99200 0.02900
H 	H 	0.42800 0.97200 0.08100 0.02300
H 	H 	0.20800 0.45900 0.77600 0.08100
H 	H 	0.52300 0.12300 0.95300 0.02100
H 	H 	0.20000 0.56600 0.67000 0.03000
O 	O 	0.09933 0.72134 0.38833 -0.45400
O 	O 	0.08858 0.89166 0.37882 -0.52400
O 	O 	0.23165 0.18773 0.85637 -0.45700
O 	O 	0.07581 0.19891 0.69096 -0.52000
O 	O 	0.23134 0.85390 0.55769 -0.47600
N 	N 	0.07295 0.66041 0.42070 -0.05400
C 	C 	0.15746 0.16911 0.74750 0.40700
C 	C 	0.16165 0.90107 0.49170 0.41700
C 	C 	0.16627 0.97482 0.55640 -0.09300
C 	C 	0.01488 0.53397 0.48260 0.01100
C 	C 	0.08700 0.58703 0.40070 0.01000
C 	C 	0.05810 0.52337 0.42970 -0.09200
C 	C 	0.16313 0.10470 0.67820 -0.10700
C 	C 	0.08620 0.08865 0.55250 -0.00700
C 	C 	0.24260 0.05650 0.74030 0.00700
C 	C 	0.24310 0.99170 0.68010 -0.03500
C 	C 	0.08770 0.02488 0.49170 -0.01700
C 	C 	0.03360 0.67320 0.47440 0.06200
C 	C 	0.00400 0.61071 0.50450 -0.19800
H 	H 	0.11700 0.58300 0.36800 0.04100
H 	H 	0.02800 0.01200 0.39800 0.02600
H 	H 	0.01900 0.72800 0.47900 0.00800
H 	H 	0.02600 0.12300 0.50800 0.02000
H 	H 	0.07200 0.47200 0.41900 0.04800
H 	H 	0.29200 0.95900 0.72400 0.06300
H 	H 	0.97700 0.62300 0.54700 0.14000
H 	H 	0.30000 0.06600 0.83000 0.05200
O 	O 	0.59933 0.22134 0.38833 -0.43900
O 	O 	0.58858 0.39166 0.37882 -0.49900
O 	O 	0.73165 0.68773 0.85637 -0.45100
O 	O 	0.57581 0.69891 0.69096 -0.48600
O 	O 	0.73134 0.35390 0.55769 -0.46900
N 	N 	0.57295 0.16041 0.42070 -0.03900
C 	C 	0.65746 0.66911 0.74750 0.40400
C 	C 	0.66165 0.40107 0.49170 0.41400
C 	C 	0.66627 0.47482 0.55640 -0.07700
C 	C 	0.51488 0.03397 0.48260 0.02600
C 	C 	0.58700 0.08703 0.40070 0.01400
C 	C 	0.55810 0.02337 0.42970 -0.07700
C 	C 	0.66313 0.60470 0.67820 -0.09800
C 	C 	0.58620 0.58865 0.55250 0.00200
C 	C 	0.74260 0.55650 0.74030 0.01600
C 	C 	0.74310 0.49170 0.68010 -0.04000
C 	C 	0.58770 0.52488 0.49170 -0.01300
C 	C 	0.53360 0.17320 0.47440 0.01700
C 	C 	0.50400 0.11071 0.50450 -0.06600
H 	H 	0.61700 0.08300 0.36800 0.05100
H 	H 	0.52800 0.51200 0.39800 0.04900
H 	H 	0.51900 0.22800 0.47900 0.05100
H 	H 	0.52600 0.62300 0.50800 0.04200
H 	H 	0.57200 0.97200 0.41900 0.05600
H 	H 	0.79200 0.45900 0.72400 0.07600
H 	H 	0.47700 0.12300 0.54700 0.05200
H 	H 	0.80000 0.56600 0.83000 0.05400
Mg	Mg	0.00000 0.19181 0.75000 1.47200
Mg	Mg	0.50000 0.69181 0.75000 1.47900
Mg	Mg	0.00000 0.80819 0.25000 1.47200
Mg	Mg	0.50000 0.30819 0.25000 1.47800
Mg	Mg	0.25000 0.25000 -0.00000 1.47400
Mg	Mg	0.75000 0.25000 0.50000 1.47600
Mg	Mg	0.75000 0.75000 -0.00000 1.47400
Mg	Mg	0.25000 0.75000 0.50000 1.47600
