data_crystal

_cell_length_a 14.13900
_cell_length_b 20.57090
_cell_length_c 9.92840
_cell_angle_alpha 90.00000
_cell_angle_beta  95.78600
_cell_angle_gamma 90.00000

_symmetry_space_group_name_	'P 1'
_symmetry_space_group_name_H-M	'P 1'

loop_
_symmetry_equiv_pos_as_xyz
  x,y,z

loop_
_atom_site_label
_atom_site_type_symbol
_atom_site_fract_x
_atom_site_fract_y
_atom_site_fract_z
_atom_site_charge
Cu	Cu	0.18983 0.73564 0.69532 0.91000
C 	C 	0.01719 0.81783 0.21930 0.36400
C 	C 	0.94050 0.85022 0.29030 -0.20200
C 	C 	0.94749 0.85433 0.43020 0.17600
H 	H 	0.99840 0.83480 0.48150 -0.01100
C 	C 	0.87934 0.88721 0.49440 -0.29700
H 	H 	0.88400 0.88900 0.58840 0.15300
C 	C 	0.80441 0.91741 0.41900 0.32400
C 	C 	0.79395 0.91097 0.28030 -0.30700
H 	H 	0.74130 0.92860 0.22940 0.15200
C 	C 	0.86265 0.87804 0.21720 0.17500
H 	H 	0.85620 0.87460 0.12330 -0.01800
C 	C 	0.15440 0.87792 0.64380 0.01700
H 	H 	0.19560 0.88040 0.57660 0.03100
C 	C 	0.10150 0.92732 0.68460 -0.00900
H 	H 	0.10020 0.96980 0.65240 0.04300
C 	C 	0.07530 0.84044 0.80060 0.08800
H 	H 	0.05160 0.81300 0.86360 0.01800
C 	C 	0.98390 0.93950 0.85760 -0.04600
H 	H 	0.94530 0.96760 0.79590 0.04900
H 	H 	0.94180 0.90950 0.89770 0.05700
C 	C 	0.03500 0.97891 0.96460 -0.10600
H 	H 	0.08060 0.00660 0.92560 0.06700
H 	H 	0.06970 0.95060 0.03040 0.07200
C 	C 	0.29389 0.63311 0.56570 0.07800
H 	H 	0.31540 0.66280 0.50500 0.02700
C 	C 	0.22451 0.59065 0.72820 -0.01300
H 	H 	0.18830 0.58640 0.80080 0.04100
C 	C 	0.26998 0.54128 0.67130 0.03700
C 	C 	0.47069 0.51960 0.54570 -0.10800
H 	H 	0.46370 0.49500 0.62740 0.07200
H 	H 	0.50400 0.55960 0.57170 0.07200
C 	C 	0.37356 0.53569 0.47660 -0.04600
H 	H 	0.38070 0.56310 0.39870 0.06000
H 	H 	0.34240 0.49580 0.44420 0.04900
C 	C 	0.35491 0.80349 0.67050 0.37200
C 	C 	0.42157 0.84103 0.59040 -0.21100
C 	C 	0.49254 0.87904 0.65560 0.18700
H 	H 	0.49970 0.88050 0.74970 -0.02000
C 	C 	0.55320 0.91497 0.58400 -0.31100
H 	H 	0.60080 0.94020 0.62950 0.15800
C 	C 	0.54264 0.91308 0.44460 0.33400
C 	C 	0.47194 0.87535 0.37730 -0.30800
H 	H 	0.46470 0.87420 0.28320 0.15600
C 	C 	0.41237 0.83944 0.44970 0.19200
H 	H 	0.36540 0.81380 0.40400 -0.02300
C 	C 	0.66995 0.98757 0.42370 0.26400
H 	H 	0.69500 0.01420 0.35490 -0.03600
H 	H 	0.64240 0.01640 0.48650 -0.03100
N 	N 	0.13761 0.82323 0.71750 -0.21300
N 	N 	0.05042 0.90280 0.78210 -0.11500
N 	N 	0.23988 0.64796 0.66260 -0.20700
N 	N 	0.31338 0.56924 0.56710 -0.12000
O 	O 	0.09171 0.80135 0.29597 -0.40300
O 	O 	0.00676 0.80997 0.09610 -0.30900
O 	O 	0.74464 0.95239 0.49341 -0.30300
O 	O 	0.36471 0.80562 0.79470 -0.30500
O 	O 	0.28952 0.77260 0.59900 -0.40800
O 	O 	0.59850 0.94669 0.36203 -0.30600
Cu	Cu	0.81016 0.23564 0.80468 0.90900
C 	C 	0.98281 0.31783 0.28070 0.36100
C 	C 	0.05950 0.35022 0.20970 -0.20000
C 	C 	0.05251 0.35433 0.06980 0.17300
H 	H 	0.00160 0.33480 0.01850 -0.00900
C 	C 	0.12066 0.38721 0.00560 -0.29400
H 	H 	0.11600 0.38900 0.91160 0.15100
C 	C 	0.19559 0.41741 0.08100 0.32300
C 	C 	0.20605 0.41097 0.21970 -0.30600
H 	H 	0.25870 0.42860 0.27060 0.15200
C 	C 	0.13735 0.37804 0.28280 0.17300
H 	H 	0.14380 0.37460 0.37670 -0.01700
C 	C 	0.84560 0.37792 0.85620 0.01700
H 	H 	0.80440 0.38040 0.92340 0.03100
C 	C 	0.89850 0.42732 0.81540 -0.00900
H 	H 	0.89980 0.46980 0.84760 0.04300
C 	C 	0.92470 0.34044 0.69940 0.08800
H 	H 	0.94840 0.31300 0.63640 0.01800
C 	C 	0.01610 0.43950 0.64240 -0.04600
H 	H 	0.05470 0.46760 0.70410 0.04900
H 	H 	0.05820 0.40950 0.60230 0.05700
C 	C 	0.96500 0.47891 0.53540 -0.10700
H 	H 	0.91940 0.50660 0.57440 0.06900
H 	H 	0.93030 0.45060 0.46960 0.07200
C 	C 	0.70611 0.13311 0.93430 0.07800
H 	H 	0.68460 0.16280 0.99500 0.02600
C 	C 	0.77549 0.09065 0.77180 -0.01300
H 	H 	0.81170 0.08640 0.69920 0.04100
C 	C 	0.73002 0.04128 0.82870 0.03700
C 	C 	0.52931 0.01960 0.95430 -0.10900
H 	H 	0.53630 0.99500 0.87260 0.07300
H 	H 	0.49600 0.05960 0.92830 0.07300
C 	C 	0.62644 0.03569 0.02340 -0.04500
H 	H 	0.61930 0.06310 0.10130 0.06000
H 	H 	0.65760 0.99580 0.05580 0.04900
C 	C 	0.64509 0.30349 0.82950 0.37200
C 	C 	0.57843 0.34103 0.90960 -0.21100
C 	C 	0.50746 0.37904 0.84440 0.18700
H 	H 	0.50030 0.38050 0.75030 -0.02100
C 	C 	0.44680 0.41497 0.91600 -0.31200
H 	H 	0.39920 0.44020 0.87050 0.15800
C 	C 	0.45736 0.41308 0.05540 0.33400
C 	C 	0.52806 0.37535 0.12270 -0.30800
H 	H 	0.53530 0.37420 0.21680 0.15600
C 	C 	0.58763 0.33944 0.05030 0.19200
H 	H 	0.63460 0.31380 0.09600 -0.02300
C 	C 	0.33005 0.48757 0.07630 0.26500
H 	H 	0.30500 0.51420 0.14510 -0.03700
H 	H 	0.35760 0.51640 0.01350 -0.03200
N 	N 	0.86239 0.32323 0.78250 -0.21300
N 	N 	0.94958 0.40280 0.71790 -0.11500
N 	N 	0.76012 0.14796 0.83740 -0.20700
N 	N 	0.68662 0.06924 0.93290 -0.12000
O 	O 	0.90829 0.30135 0.20403 -0.40300
O 	O 	0.99324 0.30997 0.40390 -0.30900
O 	O 	0.25536 0.45239 0.00659 -0.30300
O 	O 	0.63529 0.30562 0.70530 -0.30500
O 	O 	0.71048 0.27260 0.90100 -0.40800
O 	O 	0.40150 0.44669 0.13797 -0.30600
Cu	Cu	0.81016 0.26436 0.30468 0.90900
C 	C 	0.98281 0.18217 0.78070 0.36300
C 	C 	0.05950 0.14978 0.70970 -0.20300
C 	C 	0.05251 0.14567 0.56980 0.17500
H 	H 	0.00160 0.16520 0.51850 -0.01100
C 	C 	0.12066 0.11279 0.50560 -0.29700
H 	H 	0.11600 0.11100 0.41160 0.15300
C 	C 	0.19559 0.08259 0.58100 0.32400
C 	C 	0.20605 0.08903 0.71970 -0.30700
H 	H 	0.25870 0.07140 0.77060 0.15200
C 	C 	0.13735 0.12196 0.78280 0.17500
H 	H 	0.14380 0.12540 0.87670 -0.01800
C 	C 	0.84560 0.12208 0.35620 0.01700
H 	H 	0.80440 0.11960 0.42340 0.03100
C 	C 	0.89850 0.07268 0.31540 -0.00900
H 	H 	0.89980 0.03020 0.34760 0.04300
C 	C 	0.92470 0.15956 0.19940 0.08800
H 	H 	0.94840 0.18700 0.13640 0.01800
C 	C 	0.01610 0.06050 0.14240 -0.04600
H 	H 	0.05470 0.03240 0.20410 0.04900
H 	H 	0.05820 0.09050 0.10230 0.05700
C 	C 	0.96500 0.02109 0.03540 -0.10600
H 	H 	0.91940 0.99340 0.07440 0.06700
H 	H 	0.93030 0.04940 0.96960 0.07200
C 	C 	0.70611 0.36689 0.43430 0.07800
H 	H 	0.68460 0.33720 0.49500 0.02700
C 	C 	0.77549 0.40935 0.27180 -0.01300
H 	H 	0.81170 0.41360 0.19920 0.04100
C 	C 	0.73002 0.45872 0.32870 0.03700
C 	C 	0.52931 0.48040 0.45430 -0.10800
H 	H 	0.53630 0.50500 0.37260 0.07200
H 	H 	0.49600 0.44040 0.42830 0.07200
C 	C 	0.62644 0.46431 0.52340 -0.04600
H 	H 	0.61930 0.43690 0.60130 0.06000
H 	H 	0.65760 0.50420 0.55580 0.04900
C 	C 	0.64509 0.19651 0.32950 0.37200
C 	C 	0.57843 0.15897 0.40960 -0.21100
C 	C 	0.50746 0.12096 0.34440 0.18700
H 	H 	0.50030 0.11950 0.25030 -0.02000
C 	C 	0.44680 0.08503 0.41600 -0.31100
H 	H 	0.39920 0.05980 0.37050 0.15800
C 	C 	0.45736 0.08692 0.55540 0.33400
C 	C 	0.52806 0.12465 0.62270 -0.30800
H 	H 	0.53530 0.12580 0.71680 0.15600
C 	C 	0.58763 0.16056 0.55030 0.19200
H 	H 	0.63460 0.18620 0.59600 -0.02300
C 	C 	0.33005 0.01243 0.57630 0.26400
H 	H 	0.30500 0.98580 0.64510 -0.03600
H 	H 	0.35760 0.98360 0.51350 -0.03100
N 	N 	0.86239 0.17677 0.28250 -0.21300
N 	N 	0.94958 0.09720 0.21790 -0.11500
N 	N 	0.76012 0.35204 0.33740 -0.20700
N 	N 	0.68662 0.43076 0.43290 -0.12000
O 	O 	0.90829 0.19865 0.70403 -0.40300
O 	O 	0.99324 0.19003 0.90390 -0.30900
O 	O 	0.25536 0.04761 0.50659 -0.30300
O 	O 	0.63529 0.19438 0.20530 -0.30500
O 	O 	0.71048 0.22740 0.40100 -0.40800
O 	O 	0.40150 0.05331 0.63797 -0.30600
Cu	Cu	0.18983 0.76436 0.19532 0.90900
C 	C 	0.01719 0.68217 0.71930 0.36100
C 	C 	0.94050 0.64978 0.79030 -0.20000
C 	C 	0.94749 0.64567 0.93020 0.17300
H 	H 	0.99840 0.66520 0.98150 -0.00900
C 	C 	0.87934 0.61279 0.99440 -0.29400
H 	H 	0.88400 0.61100 0.08840 0.15100
C 	C 	0.80441 0.58259 0.91900 0.32300
C 	C 	0.79395 0.58903 0.78030 -0.30600
H 	H 	0.74130 0.57140 0.72940 0.15200
C 	C 	0.86265 0.62196 0.71720 0.17300
H 	H 	0.85620 0.62540 0.62330 -0.01700
C 	C 	0.15440 0.62208 0.14380 0.01700
H 	H 	0.19560 0.61960 0.07660 0.03100
C 	C 	0.10150 0.57268 0.18460 -0.00900
H 	H 	0.10020 0.53020 0.15240 0.04300
C 	C 	0.07530 0.65956 0.30060 0.08800
H 	H 	0.05160 0.68700 0.36360 0.01800
C 	C 	0.98390 0.56050 0.35760 -0.04600
H 	H 	0.94530 0.53240 0.29590 0.04900
H 	H 	0.94180 0.59050 0.39770 0.05700
C 	C 	0.03500 0.52109 0.46460 -0.10700
H 	H 	0.08060 0.49340 0.42560 0.06900
H 	H 	0.06970 0.54940 0.53040 0.07200
C 	C 	0.29389 0.86689 0.06570 0.07800
H 	H 	0.31540 0.83720 0.00500 0.02600
C 	C 	0.22451 0.90935 0.22820 -0.01300
H 	H 	0.18830 0.91360 0.30080 0.04100
C 	C 	0.26998 0.95872 0.17130 0.03700
C 	C 	0.47069 0.98040 0.04570 -0.10900
H 	H 	0.46370 0.00500 0.12740 0.07300
H 	H 	0.50400 0.94040 0.07170 0.07300
C 	C 	0.37356 0.96431 0.97660 -0.04500
H 	H 	0.38070 0.93690 0.89870 0.06000
H 	H 	0.34240 0.00420 0.94420 0.04900
C 	C 	0.35491 0.69651 0.17050 0.37200
C 	C 	0.42157 0.65897 0.09040 -0.21100
C 	C 	0.49254 0.62096 0.15560 0.18700
H 	H 	0.49970 0.61950 0.24970 -0.02100
C 	C 	0.55320 0.58503 0.08400 -0.31200
H 	H 	0.60080 0.55980 0.12950 0.15800
C 	C 	0.54264 0.58692 0.94460 0.33400
C 	C 	0.47194 0.62465 0.87730 -0.30800
H 	H 	0.46470 0.62580 0.78320 0.15600
C 	C 	0.41237 0.66056 0.94970 0.19200
H 	H 	0.36540 0.68620 0.90400 -0.02300
C 	C 	0.66995 0.51243 0.92370 0.26500
H 	H 	0.69500 0.48580 0.85490 -0.03700
H 	H 	0.64240 0.48360 0.98650 -0.03200
N 	N 	0.13761 0.67677 0.21750 -0.21300
N 	N 	0.05042 0.59720 0.28210 -0.11500
N 	N 	0.23988 0.85204 0.16260 -0.20700
N 	N 	0.31338 0.93076 0.06710 -0.12000
O 	O 	0.09171 0.69865 0.79597 -0.40300
O 	O 	0.00676 0.69003 0.59610 -0.30900
O 	O 	0.74464 0.54761 0.99341 -0.30300
O 	O 	0.36471 0.69438 0.29470 -0.30500
O 	O 	0.28952 0.72740 0.09900 -0.40800
O 	O 	0.59850 0.55331 0.86203 -0.30600
