data_crystal

_cell_length_a 7.35830
_cell_length_b 27.28000
_cell_length_c 27.85600
_cell_angle_alpha 90.00000
_cell_angle_beta  90.00000
_cell_angle_gamma 90.00000

_symmetry_space_group_name_	'P 1'
_symmetry_space_group_name_H-M	'P 1'

loop_
_symmetry_equiv_pos_as_xyz
  x,y,z

loop_
_atom_site_label
_atom_site_type_symbol
_atom_site_fract_x
_atom_site_fract_y
_atom_site_fract_z
_atom_site_charge
Ba	Ba	0.86512 0.13979 0.28842 1.93400
C 	C 	0.22230 0.03125 0.36333 0.07800
H 	H 	0.10290 0.04270 0.35370 -0.04700
H 	H 	0.27000 0.01090 0.33770 -0.01900
C 	C 	0.34730 0.07543 0.37042 -0.27800
H 	H 	0.28700 0.09780 0.39290 0.10800
C 	C 	0.52700 0.05929 0.39325 0.06500
H 	H 	0.59690 0.04100 0.36980 -0.01600
H 	H 	0.59670 0.08810 0.40200 -0.01000
C 	C 	0.49900 0.02756 0.43790 -0.12700
H 	H 	0.61550 0.01560 0.44920 0.07100
H 	H 	0.44490 0.04710 0.46320 0.07700
C 	C 	0.20420 0.00071 0.40831 -0.12500
H 	H 	0.14030 0.01940 0.43260 0.06300
H 	H 	0.13290 0.97170 0.40130 0.06600
C 	C 	0.44300 0.93953 0.42269 0.15800
C 	C 	0.64880 0.88072 0.44016 0.16400
C 	C 	0.39860 0.86155 0.39783 0.16400
C 	C 	0.94060 0.72694 0.29889 0.36900
C 	C 	0.09480 0.76157 0.31086 -0.15200
H 	H 	0.17200 0.76470 0.28240 0.06400
C 	C 	0.36690 0.10222 0.32257 0.48400
C 	C 	0.15020 0.82835 0.57739 0.36400
C 	C 	0.94600 0.90339 0.47378 -0.05600
H 	H 	0.89330 0.93600 0.47400 0.04900
H 	H 	0.04230 0.90280 0.45000 0.05300
C 	C 	0.02430 0.89211 0.52265 -0.05300
H 	H 	0.93180 0.89780 0.54680 0.04900
H 	H 	0.12430 0.91440 0.52900 0.03500
C 	C 	0.94180 0.80436 0.51138 -0.04100
H 	H 	0.98850 0.77110 0.51140 0.04700
H 	H 	0.84260 0.80590 0.53430 0.04800
C 	C 	0.87080 0.81676 0.46178 -0.07600
H 	H 	0.96690 0.81250 0.43830 0.06800
H 	H 	0.77190 0.79480 0.45350 0.07600
C 	C 	0.36750 0.77916 0.36286 -0.06600
H 	H 	0.43540 0.76790 0.39060 0.05900
H 	H 	0.44960 0.78010 0.33560 0.04700
C 	C 	0.02270 0.81199 0.32338 -0.08100
H 	H 	0.95200 0.82460 0.29670 0.04400
H 	H 	0.94310 0.80960 0.35100 0.07000
C 	C 	0.17740 0.84746 0.33452 -0.04300
H 	H 	0.24790 0.85310 0.30560 0.03800
H 	H 	0.12710 0.87860 0.34470 0.04300
C 	C 	0.09230 0.83956 0.52700 -0.16200
H 	H 	0.19700 0.83530 0.50560 0.08800
C 	C 	0.21290 0.74349 0.35250 -0.03300
H 	H 	0.26300 0.71160 0.34460 0.00300
H 	H 	0.13840 0.73990 0.38100 0.04900
N 	N 	0.38070 0.98614 0.42674 -0.10200
N 	N 	0.33490 0.90775 0.39896 -0.16600
N 	N 	0.60440 0.92873 0.44230 -0.16600
N 	N 	0.54920 0.84529 0.41877 -0.16200
N 	N 	0.80660 0.86756 0.46091 -0.11500
N 	N 	0.29650 0.82862 0.37208 -0.11800
O 	O 	0.52060 0.10649 0.30385 -0.60900
O 	O 	0.93400 0.70788 0.25817 -0.54200
O 	O 	0.81800 0.71917 0.32999 -0.39300
O 	O 	0.22340 0.11734 0.30282 -0.62800
O 	O 	0.08740 0.84940 0.61198 -0.43600
O 	O 	0.27200 0.79365 0.58101 -0.26500
Ba	Ba	0.63488 0.86021 0.78842 1.94600
C 	C 	0.27770 0.96875 0.86333 0.08400
H 	H 	0.39710 0.95730 0.85370 -0.05200
H 	H 	0.23000 0.98910 0.83770 -0.02300
C 	C 	0.15270 0.92457 0.87042 -0.28800
H 	H 	0.21300 0.90220 0.89290 0.10900
C 	C 	0.97300 0.94071 0.89325 0.07900
H 	H 	0.90310 0.95900 0.86980 -0.02100
H 	H 	0.90330 0.91190 0.90200 -0.01500
C 	C 	0.00100 0.97244 0.93790 -0.14200
H 	H 	0.88450 0.98440 0.94920 0.07600
H 	H 	0.05510 0.95290 0.96320 0.08000
C 	C 	0.29580 0.99929 0.90831 -0.13100
H 	H 	0.35970 0.98060 0.93260 0.06400
H 	H 	0.36710 0.02830 0.90130 0.06800
C 	C 	0.05700 0.06047 0.92269 0.15800
C 	C 	0.85120 0.11928 0.94016 0.16300
C 	C 	0.10140 0.13845 0.89783 0.16600
C 	C 	0.55940 0.27306 0.79889 0.36700
C 	C 	0.40520 0.23843 0.81086 -0.15300
H 	H 	0.32800 0.23530 0.78240 0.06500
C 	C 	0.13310 0.89778 0.82257 0.48100
C 	C 	0.34980 0.17165 0.07739 0.36600
C 	C 	0.55400 0.09661 0.97378 -0.07100
H 	H 	0.60670 0.06400 0.97400 0.05300
H 	H 	0.45770 0.09720 0.95000 0.05900
C 	C 	0.47570 0.10789 0.02265 -0.03600
H 	H 	0.56820 0.10220 0.04680 0.04100
H 	H 	0.37570 0.08560 0.02900 0.03000
C 	C 	0.55820 0.19564 0.01138 -0.04300
H 	H 	0.51150 0.22890 0.01140 0.04600
H 	H 	0.65740 0.19410 0.03430 0.04700
C 	C 	0.62920 0.18324 0.96178 -0.07500
H 	H 	0.53310 0.18750 0.93830 0.06700
H 	H 	0.72810 0.20520 0.95350 0.07500
C 	C 	0.13250 0.22084 0.86286 -0.06800
H 	H 	0.06460 0.23210 0.89060 0.06100
H 	H 	0.05040 0.21990 0.83560 0.04900
C 	C 	0.47730 0.18801 0.82338 -0.06500
H 	H 	0.54800 0.17540 0.79670 0.03700
H 	H 	0.55690 0.19040 0.85100 0.06300
C 	C 	0.32260 0.15254 0.83452 -0.05000
H 	H 	0.25210 0.14690 0.80560 0.04000
H 	H 	0.37290 0.12140 0.84470 0.04500
C 	C 	0.40770 0.16044 0.02700 -0.16400
H 	H 	0.30300 0.16470 0.00560 0.08900
C 	C 	0.28710 0.25651 0.85250 -0.03300
H 	H 	0.23700 0.28840 0.84460 0.00400
H 	H 	0.36160 0.26010 0.88100 0.05000
N 	N 	0.11930 0.01386 0.92674 -0.09900
N 	N 	0.16510 0.09225 0.89896 -0.16700
N 	N 	0.89560 0.07127 0.94230 -0.16700
N 	N 	0.95080 0.15471 0.91877 -0.16400
N 	N 	0.69340 0.13244 0.96091 -0.11400
N 	N 	0.20350 0.17138 0.87208 -0.11700
O 	O 	0.97940 0.89351 0.80385 -0.60500
O 	O 	0.56600 0.29212 0.75817 -0.54400
O 	O 	0.68200 0.28083 0.82999 -0.39300
O 	O 	0.27660 0.88266 0.80282 -0.62900
O 	O 	0.41260 0.15060 0.11198 -0.43500
O 	O 	0.22800 0.20635 0.08101 -0.26400
Ba	Ba	0.13488 0.63979 0.21158 1.93300
C 	C 	0.77770 0.53125 0.13667 0.07700
H 	H 	0.89710 0.54270 0.14630 -0.04900
H 	H 	0.73000 0.51090 0.16230 -0.02100
C 	C 	0.65270 0.57543 0.12958 -0.28000
H 	H 	0.71300 0.59780 0.10710 0.10700
C 	C 	0.47300 0.55929 0.10675 0.06400
H 	H 	0.40310 0.54100 0.13020 -0.01700
H 	H 	0.40330 0.58810 0.09800 -0.01100
C 	C 	0.50100 0.52756 0.06210 -0.12800
H 	H 	0.38450 0.51560 0.05080 0.07100
H 	H 	0.55510 0.54710 0.03680 0.07700
C 	C 	0.79580 0.50071 0.09169 -0.12600
H 	H 	0.85970 0.51940 0.06740 0.06300
H 	H 	0.86710 0.47170 0.09870 0.06700
C 	C 	0.55700 0.43953 0.07731 0.15800
C 	C 	0.35120 0.38072 0.05984 0.16400
C 	C 	0.60140 0.36155 0.10217 0.16400
C 	C 	0.05940 0.22694 0.20111 0.36900
C 	C 	0.90520 0.26157 0.18914 -0.15200
H 	H 	0.82800 0.26470 0.21760 0.06400
C 	C 	0.63310 0.60222 0.17743 0.48400
C 	C 	0.84980 0.32835 0.92261 0.36400
C 	C 	0.05400 0.40339 0.02622 -0.05700
H 	H 	0.10670 0.43600 0.02600 0.04900
H 	H 	0.95770 0.40280 0.05000 0.05400
C 	C 	0.97570 0.39211 0.97735 -0.05100
H 	H 	0.06820 0.39780 0.95320 0.04800
H 	H 	0.87570 0.41440 0.97100 0.03400
C 	C 	0.05820 0.30436 0.98862 -0.04100
H 	H 	0.01150 0.27110 0.98860 0.04700
H 	H 	0.15740 0.30590 0.96570 0.04800
C 	C 	0.12920 0.31676 0.03822 -0.07600
H 	H 	0.03310 0.31250 0.06170 0.06800
H 	H 	0.22810 0.29480 0.04650 0.07600
C 	C 	0.63250 0.27916 0.13714 -0.06600
H 	H 	0.56460 0.26790 0.10940 0.05900
H 	H 	0.55040 0.28010 0.16440 0.04700
C 	C 	0.97730 0.31199 0.17662 -0.08100
H 	H 	0.04800 0.32460 0.20330 0.04400
H 	H 	0.05690 0.30960 0.14900 0.06900
C 	C 	0.82260 0.34746 0.16548 -0.04300
H 	H 	0.75210 0.35310 0.19440 0.03800
H 	H 	0.87290 0.37860 0.15530 0.04300
C 	C 	0.90770 0.33956 0.97300 -0.16300
H 	H 	0.80300 0.33530 0.99440 0.08800
C 	C 	0.78710 0.24349 0.14750 -0.03300
H 	H 	0.73700 0.21160 0.15540 0.00300
H 	H 	0.86160 0.23990 0.11900 0.04900
N 	N 	0.61930 0.48614 0.07326 -0.10100
N 	N 	0.66510 0.40775 0.10104 -0.16600
N 	N 	0.39560 0.42873 0.05770 -0.16600
N 	N 	0.45080 0.34529 0.08123 -0.16200
N 	N 	0.19340 0.36756 0.03909 -0.11500
N 	N 	0.70350 0.32862 0.12792 -0.11800
O 	O 	0.47940 0.60649 0.19615 -0.60900
O 	O 	0.06600 0.20788 0.24183 -0.54200
O 	O 	0.18200 0.21917 0.17001 -0.39300
O 	O 	0.77660 0.61734 0.19718 -0.62800
O 	O 	0.91260 0.34940 0.88802 -0.43600
O 	O 	0.72800 0.29365 0.91899 -0.26500
Ba	Ba	0.36512 0.36021 0.71158 1.94500
C 	C 	0.72230 0.46875 0.63667 0.08200
H 	H 	0.60290 0.45730 0.64630 -0.05100
H 	H 	0.77000 0.48910 0.66230 -0.02200
C 	C 	0.84730 0.42457 0.62958 -0.28600
H 	H 	0.78700 0.40220 0.60710 0.10800
C 	C 	0.02700 0.44071 0.60675 0.07700
H 	H 	0.09690 0.45900 0.63020 -0.02000
H 	H 	0.09670 0.41190 0.59800 -0.01400
C 	C 	0.99900 0.47244 0.56210 -0.13900
H 	H 	0.11550 0.48440 0.55080 0.07500
H 	H 	0.94490 0.45290 0.53680 0.08000
C 	C 	0.70420 0.49929 0.59169 -0.12900
H 	H 	0.64030 0.48060 0.56740 0.06400
H 	H 	0.63290 0.52830 0.59870 0.06700
C 	C 	0.94300 0.56047 0.57731 0.15800
C 	C 	0.14880 0.61928 0.55984 0.16300
C 	C 	0.89860 0.63845 0.60217 0.16600
C 	C 	0.44060 0.77306 0.70111 0.36700
C 	C 	0.59480 0.73843 0.68914 -0.15300
H 	H 	0.67200 0.73530 0.71760 0.06500
C 	C 	0.86690 0.39778 0.67743 0.48100
C 	C 	0.65020 0.67165 0.42261 0.36600
C 	C 	0.44600 0.59661 0.52622 -0.07100
H 	H 	0.39330 0.56400 0.52600 0.05300
H 	H 	0.54230 0.59720 0.55000 0.05900
C 	C 	0.52430 0.60789 0.47735 -0.03600
H 	H 	0.43180 0.60220 0.45320 0.04100
H 	H 	0.62430 0.58560 0.47100 0.03000
C 	C 	0.44180 0.69564 0.48862 -0.04300
H 	H 	0.48850 0.72890 0.48860 0.04600
H 	H 	0.34260 0.69410 0.46570 0.04700
C 	C 	0.37080 0.68324 0.53822 -0.07600
H 	H 	0.46690 0.68750 0.56170 0.06700
H 	H 	0.27190 0.70520 0.54650 0.07500
C 	C 	0.86750 0.72084 0.63714 -0.06800
H 	H 	0.93540 0.73210 0.60940 0.06100
H 	H 	0.94960 0.71990 0.66440 0.04900
C 	C 	0.52270 0.68801 0.67662 -0.06500
H 	H 	0.45200 0.67540 0.70330 0.03700
H 	H 	0.44310 0.69040 0.64900 0.06300
C 	C 	0.67740 0.65254 0.66548 -0.05000
H 	H 	0.74790 0.64690 0.69440 0.04000
H 	H 	0.62710 0.62140 0.65530 0.04500
C 	C 	0.59230 0.66044 0.47300 -0.16400
H 	H 	0.69700 0.66470 0.49440 0.09000
C 	C 	0.71290 0.75651 0.64750 -0.03300
H 	H 	0.76300 0.78840 0.65540 0.00400
H 	H 	0.63840 0.76010 0.61900 0.05000
N 	N 	0.88070 0.51386 0.57326 -0.10000
N 	N 	0.83490 0.59225 0.60104 -0.16700
N 	N 	0.10440 0.57127 0.55770 -0.16600
N 	N 	0.04920 0.65471 0.58123 -0.16400
N 	N 	0.30660 0.63244 0.53909 -0.11400
N 	N 	0.79650 0.67138 0.62792 -0.11700
O 	O 	0.02060 0.39351 0.69615 -0.60500
O 	O 	0.43400 0.79212 0.74183 -0.54400
O 	O 	0.31800 0.78083 0.67001 -0.39300
O 	O 	0.72340 0.38266 0.69718 -0.62900
O 	O 	0.58740 0.65060 0.38802 -0.43500
O 	O 	0.77200 0.70635 0.41899 -0.26400
Ba	Ba	0.13488 0.86021 0.71158 1.93300
C 	C 	0.77770 0.96875 0.63667 0.07700
H 	H 	0.89710 0.95730 0.64630 -0.04800
H 	H 	0.73000 0.98910 0.66230 -0.02000
C 	C 	0.65270 0.92457 0.62958 -0.27900
H 	H 	0.71300 0.90220 0.60710 0.10700
C 	C 	0.47300 0.94071 0.60675 0.06400
H 	H 	0.40310 0.95900 0.63020 -0.01700
H 	H 	0.40330 0.91190 0.59800 -0.01100
C 	C 	0.50100 0.97244 0.56210 -0.12800
H 	H 	0.38450 0.98440 0.55080 0.07100
H 	H 	0.55510 0.95290 0.53680 0.07700
C 	C 	0.79580 0.99929 0.59169 -0.12500
H 	H 	0.85970 0.98060 0.56740 0.06300
H 	H 	0.86710 0.02830 0.59870 0.06600
C 	C 	0.55700 0.06047 0.57731 0.15800
C 	C 	0.35120 0.11928 0.55984 0.16400
C 	C 	0.60140 0.13845 0.60217 0.16400
C 	C 	0.05940 0.27306 0.70111 0.36900
C 	C 	0.90520 0.23843 0.68914 -0.15200
H 	H 	0.82800 0.23530 0.71760 0.06400
C 	C 	0.63310 0.89778 0.67743 0.48400
C 	C 	0.84980 0.17165 0.42261 0.36400
C 	C 	0.05400 0.09661 0.52622 -0.05600
H 	H 	0.10670 0.06400 0.52600 0.04900
H 	H 	0.95770 0.09720 0.55000 0.05300
C 	C 	0.97570 0.10789 0.47735 -0.05300
H 	H 	0.06820 0.10220 0.45320 0.04900
H 	H 	0.87570 0.08560 0.47100 0.03500
C 	C 	0.05820 0.19564 0.48862 -0.04100
H 	H 	0.01150 0.22890 0.48860 0.04700
H 	H 	0.15740 0.19410 0.46570 0.04800
C 	C 	0.12920 0.18324 0.53822 -0.07600
H 	H 	0.03310 0.18750 0.56170 0.06800
H 	H 	0.22810 0.20520 0.54650 0.07600
C 	C 	0.63250 0.22084 0.63714 -0.06600
H 	H 	0.56460 0.23210 0.60940 0.05900
H 	H 	0.55040 0.21990 0.66440 0.04700
C 	C 	0.97730 0.18801 0.67662 -0.08100
H 	H 	0.04800 0.17540 0.70330 0.04400
H 	H 	0.05690 0.19040 0.64900 0.07000
C 	C 	0.82260 0.15254 0.66548 -0.04300
H 	H 	0.75210 0.14690 0.69440 0.03800
H 	H 	0.87290 0.12140 0.65530 0.04300
C 	C 	0.90770 0.16044 0.47300 -0.16200
H 	H 	0.80300 0.16470 0.49440 0.08800
C 	C 	0.78710 0.25651 0.64750 -0.03300
H 	H 	0.73700 0.28840 0.65540 0.00300
H 	H 	0.86160 0.26010 0.61900 0.04900
N 	N 	0.61930 0.01386 0.57326 -0.10200
N 	N 	0.66510 0.09225 0.60104 -0.16600
N 	N 	0.39560 0.07127 0.55770 -0.16600
N 	N 	0.45080 0.15471 0.58123 -0.16200
N 	N 	0.19340 0.13244 0.53909 -0.11500
N 	N 	0.70350 0.17138 0.62792 -0.11800
O 	O 	0.47940 0.89351 0.69615 -0.60900
O 	O 	0.06600 0.29212 0.74183 -0.54200
O 	O 	0.18200 0.28083 0.67001 -0.39300
O 	O 	0.77660 0.88266 0.69718 -0.62800
O 	O 	0.91260 0.15060 0.38802 -0.43600
O 	O 	0.72800 0.20635 0.41899 -0.26500
Ba	Ba	0.36512 0.13979 0.21158 1.94600
C 	C 	0.72230 0.03125 0.13667 0.08400
H 	H 	0.60290 0.04270 0.14630 -0.05200
H 	H 	0.77000 0.01090 0.16230 -0.02300
C 	C 	0.84730 0.07543 0.12958 -0.28800
H 	H 	0.78700 0.09780 0.10710 0.10900
C 	C 	0.02700 0.05929 0.10675 0.07900
H 	H 	0.09690 0.04100 0.13020 -0.02100
H 	H 	0.09670 0.08810 0.09800 -0.01500
C 	C 	0.99900 0.02756 0.06210 -0.14200
H 	H 	0.11550 0.01560 0.05080 0.07600
H 	H 	0.94490 0.04710 0.03680 0.08000
C 	C 	0.70420 0.00071 0.09169 -0.13100
H 	H 	0.64030 0.01940 0.06740 0.06400
H 	H 	0.63290 0.97170 0.09870 0.06800
C 	C 	0.94300 0.93953 0.07731 0.15800
C 	C 	0.14880 0.88072 0.05984 0.16300
C 	C 	0.89860 0.86155 0.10217 0.16600
C 	C 	0.44060 0.72694 0.20111 0.36700
C 	C 	0.59480 0.76157 0.18914 -0.15300
H 	H 	0.67200 0.76470 0.21760 0.06500
C 	C 	0.86690 0.10222 0.17743 0.48100
C 	C 	0.65020 0.82835 0.92261 0.36600
C 	C 	0.44600 0.90339 0.02622 -0.07100
H 	H 	0.39330 0.93600 0.02600 0.05300
H 	H 	0.54230 0.90280 0.05000 0.05900
C 	C 	0.52430 0.89211 0.97735 -0.03600
H 	H 	0.43180 0.89780 0.95320 0.04100
H 	H 	0.62430 0.91440 0.97100 0.03000
C 	C 	0.44180 0.80436 0.98862 -0.04300
H 	H 	0.48850 0.77110 0.98860 0.04600
H 	H 	0.34260 0.80590 0.96570 0.04700
C 	C 	0.37080 0.81676 0.03822 -0.07500
H 	H 	0.46690 0.81250 0.06170 0.06700
H 	H 	0.27190 0.79480 0.04650 0.07500
C 	C 	0.86750 0.77916 0.13714 -0.06800
H 	H 	0.93540 0.76790 0.10940 0.06100
H 	H 	0.94960 0.78010 0.16440 0.04900
C 	C 	0.52270 0.81199 0.17662 -0.06500
H 	H 	0.45200 0.82460 0.20330 0.03700
H 	H 	0.44310 0.80960 0.14900 0.06300
C 	C 	0.67740 0.84746 0.16548 -0.05000
H 	H 	0.74790 0.85310 0.19440 0.04000
H 	H 	0.62710 0.87860 0.15530 0.04500
C 	C 	0.59230 0.83956 0.97300 -0.16400
H 	H 	0.69700 0.83530 0.99440 0.08900
C 	C 	0.71290 0.74349 0.14750 -0.03300
H 	H 	0.76300 0.71160 0.15540 0.00400
H 	H 	0.63840 0.73990 0.11900 0.05000
N 	N 	0.88070 0.98614 0.07326 -0.09900
N 	N 	0.83490 0.90775 0.10104 -0.16700
N 	N 	0.10440 0.92873 0.05770 -0.16700
N 	N 	0.04920 0.84529 0.08123 -0.16400
N 	N 	0.30660 0.86756 0.03909 -0.11400
N 	N 	0.79650 0.82862 0.12792 -0.11700
O 	O 	0.02060 0.10649 0.19615 -0.60500
O 	O 	0.43400 0.70788 0.24183 -0.54400
O 	O 	0.31800 0.71917 0.17001 -0.39300
O 	O 	0.72340 0.11734 0.19718 -0.62900
O 	O 	0.58740 0.84940 0.88802 -0.43500
O 	O 	0.77200 0.79365 0.91899 -0.26400
Ba	Ba	0.86512 0.36021 0.78842 1.93300
C 	C 	0.22230 0.46875 0.86333 0.07700
H 	H 	0.10290 0.45730 0.85370 -0.04900
H 	H 	0.27000 0.48910 0.83770 -0.02100
C 	C 	0.34730 0.42457 0.87042 -0.28000
H 	H 	0.28700 0.40220 0.89290 0.10700
C 	C 	0.52700 0.44071 0.89325 0.06400
H 	H 	0.59690 0.45900 0.86980 -0.01700
H 	H 	0.59670 0.41190 0.90200 -0.01100
C 	C 	0.49900 0.47244 0.93790 -0.12800
H 	H 	0.61550 0.48440 0.94920 0.07100
H 	H 	0.44490 0.45290 0.96320 0.07700
C 	C 	0.20420 0.49929 0.90831 -0.12600
H 	H 	0.14030 0.48060 0.93260 0.06300
H 	H 	0.13290 0.52830 0.90130 0.06700
C 	C 	0.44300 0.56047 0.92269 0.15800
C 	C 	0.64880 0.61928 0.94016 0.16400
C 	C 	0.39860 0.63845 0.89783 0.16400
C 	C 	0.94060 0.77306 0.79889 0.36900
C 	C 	0.09480 0.73843 0.81086 -0.15200
H 	H 	0.17200 0.73530 0.78240 0.06400
C 	C 	0.36690 0.39778 0.82257 0.48400
C 	C 	0.15020 0.67165 0.07739 0.36400
C 	C 	0.94600 0.59661 0.97378 -0.05700
H 	H 	0.89330 0.56400 0.97400 0.04900
H 	H 	0.04230 0.59720 0.95000 0.05400
C 	C 	0.02430 0.60789 0.02265 -0.05100
H 	H 	0.93180 0.60220 0.04680 0.04800
H 	H 	0.12430 0.58560 0.02900 0.03400
C 	C 	0.94180 0.69564 0.01138 -0.04100
H 	H 	0.98850 0.72890 0.01140 0.04700
H 	H 	0.84260 0.69410 0.03430 0.04800
C 	C 	0.87080 0.68324 0.96178 -0.07600
H 	H 	0.96690 0.68750 0.93830 0.06800
H 	H 	0.77190 0.70520 0.95350 0.07600
C 	C 	0.36750 0.72084 0.86286 -0.06600
H 	H 	0.43540 0.73210 0.89060 0.05900
H 	H 	0.44960 0.71990 0.83560 0.04700
C 	C 	0.02270 0.68801 0.82338 -0.08100
H 	H 	0.95200 0.67540 0.79670 0.04400
H 	H 	0.94310 0.69040 0.85100 0.06900
C 	C 	0.17740 0.65254 0.83452 -0.04300
H 	H 	0.24790 0.64690 0.80560 0.03800
H 	H 	0.12710 0.62140 0.84470 0.04300
C 	C 	0.09230 0.66044 0.02700 -0.16300
H 	H 	0.19700 0.66470 0.00560 0.08800
C 	C 	0.21290 0.75651 0.85250 -0.03300
H 	H 	0.26300 0.78840 0.84460 0.00300
H 	H 	0.13840 0.76010 0.88100 0.04900
N 	N 	0.38070 0.51386 0.92674 -0.10100
N 	N 	0.33490 0.59225 0.89896 -0.16600
N 	N 	0.60440 0.57127 0.94230 -0.16600
N 	N 	0.54920 0.65471 0.91877 -0.16200
N 	N 	0.80660 0.63244 0.96091 -0.11500
N 	N 	0.29650 0.67138 0.87208 -0.11800
O 	O 	0.52060 0.39351 0.80385 -0.60900
O 	O 	0.93400 0.79212 0.75817 -0.54200
O 	O 	0.81800 0.78083 0.82999 -0.39300
O 	O 	0.22340 0.38266 0.80282 -0.62800
O 	O 	0.08740 0.65060 0.11198 -0.43600
O 	O 	0.27200 0.70635 0.08101 -0.26500
Ba	Ba	0.63488 0.63979 0.28842 1.94500
C 	C 	0.27770 0.53125 0.36333 0.08200
H 	H 	0.39710 0.54270 0.35370 -0.05100
H 	H 	0.23000 0.51090 0.33770 -0.02200
C 	C 	0.15270 0.57543 0.37042 -0.28600
H 	H 	0.21300 0.59780 0.39290 0.10800
C 	C 	0.97300 0.55929 0.39325 0.07700
H 	H 	0.90310 0.54100 0.36980 -0.02000
H 	H 	0.90330 0.58810 0.40200 -0.01400
C 	C 	0.00100 0.52756 0.43790 -0.13900
H 	H 	0.88450 0.51560 0.44920 0.07500
H 	H 	0.05510 0.54710 0.46320 0.08000
C 	C 	0.29580 0.50071 0.40831 -0.12900
H 	H 	0.35970 0.51940 0.43260 0.06400
H 	H 	0.36710 0.47170 0.40130 0.06700
C 	C 	0.05700 0.43953 0.42269 0.15800
C 	C 	0.85120 0.38072 0.44016 0.16300
C 	C 	0.10140 0.36155 0.39783 0.16600
C 	C 	0.55940 0.22694 0.29889 0.36700
C 	C 	0.40520 0.26157 0.31086 -0.15300
H 	H 	0.32800 0.26470 0.28240 0.06500
C 	C 	0.13310 0.60222 0.32257 0.48100
C 	C 	0.34980 0.32835 0.57739 0.36600
C 	C 	0.55400 0.40339 0.47378 -0.07100
H 	H 	0.60670 0.43600 0.47400 0.05300
H 	H 	0.45770 0.40280 0.45000 0.05900
C 	C 	0.47570 0.39211 0.52265 -0.03600
H 	H 	0.56820 0.39780 0.54680 0.04100
H 	H 	0.37570 0.41440 0.52900 0.03000
C 	C 	0.55820 0.30436 0.51138 -0.04300
H 	H 	0.51150 0.27110 0.51140 0.04600
H 	H 	0.65740 0.30590 0.53430 0.04700
C 	C 	0.62920 0.31676 0.46178 -0.07600
H 	H 	0.53310 0.31250 0.43830 0.06700
H 	H 	0.72810 0.29480 0.45350 0.07500
C 	C 	0.13250 0.27916 0.36286 -0.06800
H 	H 	0.06460 0.26790 0.39060 0.06100
H 	H 	0.05040 0.28010 0.33560 0.04900
C 	C 	0.47730 0.31199 0.32338 -0.06500
H 	H 	0.54800 0.32460 0.29670 0.03700
H 	H 	0.55690 0.30960 0.35100 0.06300
C 	C 	0.32260 0.34746 0.33452 -0.05000
H 	H 	0.25210 0.35310 0.30560 0.04000
H 	H 	0.37290 0.37860 0.34470 0.04500
C 	C 	0.40770 0.33956 0.52700 -0.16400
H 	H 	0.30300 0.33530 0.50560 0.09000
C 	C 	0.28710 0.24349 0.35250 -0.03300
H 	H 	0.23700 0.21160 0.34460 0.00400
H 	H 	0.36160 0.23990 0.38100 0.05000
N 	N 	0.11930 0.48614 0.42674 -0.10000
N 	N 	0.16510 0.40775 0.39896 -0.16700
N 	N 	0.89560 0.42873 0.44230 -0.16600
N 	N 	0.95080 0.34529 0.41877 -0.16400
N 	N 	0.69340 0.36756 0.46091 -0.11400
N 	N 	0.20350 0.32862 0.37208 -0.11700
O 	O 	0.97940 0.60649 0.30385 -0.60500
O 	O 	0.56600 0.20788 0.25817 -0.54400
O 	O 	0.68200 0.21917 0.32999 -0.39300
O 	O 	0.27660 0.61734 0.30282 -0.62900
O 	O 	0.41260 0.34940 0.61198 -0.43500
O 	O 	0.22800 0.29365 0.58101 -0.26400
