data_crystal

_cell_length_a 27.62700
_cell_length_b 6.83480
_cell_length_c 28.13500
_cell_angle_alpha 90.00000
_cell_angle_beta  90.00000
_cell_angle_gamma 90.00000

_symmetry_space_group_name_	'P 1'
_symmetry_space_group_name_H-M	'P 1'

loop_
_symmetry_equiv_pos_as_xyz
  x,y,z

loop_
_atom_site_label
_atom_site_type_symbol
_atom_site_fract_x
_atom_site_fract_y
_atom_site_fract_z
_atom_site_charge
C 	C 	0.56582 0.84000 0.38442 0.16900
C 	C 	0.61130 0.10170 0.36543 0.17100
C 	C 	0.58590 0.06100 0.44082 0.16400
C 	C 	0.56680 0.01100 0.52604 -0.10500
H 	H 	0.55390 0.88720 0.51490 0.06800
H 	H 	0.54150 0.07820 0.54350 0.06800
C 	C 	0.60140 0.31730 0.49990 -0.09400
H 	H 	0.57670 0.39110 0.51660 0.05700
H 	H 	0.61070 0.39120 0.47190 0.06200
C 	C 	0.52422 0.53690 0.40610 -0.06000
H 	H 	0.52410 0.59640 0.43740 0.05200
H 	H 	0.54530 0.42340 0.40710 0.05900
C 	C 	0.54148 0.60810 0.32234 -0.06400
H 	H 	0.56250 0.49520 0.31890 0.06400
H 	H 	0.55320 0.71040 0.30140 0.07100
C 	C 	0.64670 0.12580 0.28566 -0.07700
H 	H 	0.61960 0.04490 0.27580 0.07600
H 	H 	0.67520 0.04330 0.28770 0.06600
C 	C 	0.67200 0.35380 0.34945 -0.05300
H 	H 	0.70230 0.28770 0.35630 0.04600
H 	H 	0.66050 0.41300 0.37870 0.05200
C 	C 	0.65511 0.28620 0.24908 -0.04500
H 	H 	0.66380 0.22750 0.21890 0.03100
H 	H 	0.62540 0.35980 0.24460 0.06000
C 	C 	0.68082 0.51380 0.31238 -0.06400
H 	H 	0.65160 0.59080 0.30840 0.06800
H 	H 	0.70630 0.60030 0.32330 0.04300
C 	C 	0.69522 0.42410 0.26483 -0.15200
H 	H 	0.72460 0.34700 0.26970 0.08400
C 	C 	0.48973 0.55310 0.30887 -0.06400
H 	H 	0.46960 0.66930 0.30950 0.05700
H 	H 	0.48930 0.50110 0.27680 0.05500
C 	C 	0.46917 0.40160 0.34291 -0.13300
H 	H 	0.48870 0.28200 0.34010 0.08000
C 	C 	0.47319 0.47370 0.39298 -0.05800
H 	H 	0.46300 0.37060 0.41440 0.04100
H 	H 	0.45140 0.58360 0.39720 0.05200
C 	C 	0.60990 0.97450 0.55833 0.02200
H 	H 	0.59920 0.90140 0.58600 0.01800
H 	H 	0.63340 0.89490 0.54150 0.01800
C 	C 	0.63415 0.16170 0.57471 -0.24500
H 	H 	0.61080 0.23200 0.59470 0.10600
C 	C 	0.64451 0.29170 0.53147 0.02000
H 	H 	0.65520 0.41920 0.54240 -0.00800
H 	H 	0.67070 0.23430 0.51320 0.01500
C 	C 	0.70588 0.57600 0.22835 0.35000
C 	C 	0.41763 0.35130 0.32984 0.33500
C 	C 	0.67960 0.13300 0.60395 0.45800
N 	N 	0.58820 0.94370 0.35011 -0.16600
N 	N 	0.56412 0.88910 0.43060 -0.16600
N 	N 	0.61146 0.16960 0.41004 -0.16700
N 	N 	0.54248 0.67640 0.37142 -0.11700
N 	N 	0.58191 0.12980 0.48557 -0.10900
N 	N 	0.63639 0.21060 0.33262 -0.11500
O 	O 	0.74451 0.56840 0.20479 -0.49900
O 	O 	0.67589 0.71340 0.22120 -0.36100
O 	O 	0.38296 0.40890 0.35208 -0.39200
O 	O 	0.41387 0.24530 0.29110 -0.24600
O 	O 	0.70132 0.28320 0.61845 -0.57200
O 	O 	0.69584 0.96780 0.61035 -0.54300
Sr	Sr	0.71354 0.86426 0.14340 1.52400
C 	C 	0.93418 0.16000 0.88442 0.16800
C 	C 	0.88870 0.89830 0.86543 0.17000
C 	C 	0.91410 0.93900 0.94082 0.16400
C 	C 	0.93320 0.98900 0.02604 -0.10800
H 	H 	0.94610 0.11280 0.01490 0.06800
H 	H 	0.95850 0.92180 0.04350 0.06800
C 	C 	0.89860 0.68270 0.99990 -0.09400
H 	H 	0.92330 0.60890 0.01660 0.05600
H 	H 	0.88930 0.60880 0.97190 0.06200
C 	C 	0.97578 0.46310 0.90610 -0.06000
H 	H 	0.97590 0.40360 0.93740 0.05200
H 	H 	0.95470 0.57660 0.90710 0.05800
C 	C 	0.95852 0.39190 0.82234 -0.06400
H 	H 	0.93750 0.50480 0.81890 0.06400
H 	H 	0.94680 0.28960 0.80140 0.07000
C 	C 	0.85330 0.87420 0.78566 -0.07700
H 	H 	0.88040 0.95510 0.77580 0.07600
H 	H 	0.82480 0.95670 0.78770 0.06600
C 	C 	0.82800 0.64620 0.84945 -0.05300
H 	H 	0.79770 0.71230 0.85630 0.04600
H 	H 	0.83950 0.58700 0.87870 0.05200
C 	C 	0.84489 0.71380 0.74908 -0.04500
H 	H 	0.83620 0.77250 0.71890 0.03100
H 	H 	0.87460 0.64020 0.74460 0.06000
C 	C 	0.81918 0.48620 0.81238 -0.06400
H 	H 	0.84840 0.40920 0.80840 0.06800
H 	H 	0.79370 0.39970 0.82330 0.04300
C 	C 	0.80478 0.57590 0.76483 -0.15200
H 	H 	0.77540 0.65300 0.76970 0.08400
C 	C 	0.01027 0.44690 0.80887 -0.06500
H 	H 	0.03040 0.33070 0.80950 0.05700
H 	H 	0.01070 0.49890 0.77680 0.05500
C 	C 	0.03083 0.59840 0.84291 -0.13300
H 	H 	0.01130 0.71800 0.84010 0.08000
C 	C 	0.02681 0.52630 0.89298 -0.05900
H 	H 	0.03700 0.62940 0.91440 0.04100
H 	H 	0.04860 0.41640 0.89720 0.05200
C 	C 	0.89010 0.02550 0.05833 0.02400
H 	H 	0.90080 0.09860 0.08600 0.01800
H 	H 	0.86660 0.10510 0.04150 0.01800
C 	C 	0.86585 0.83830 0.07471 -0.24500
H 	H 	0.88920 0.76800 0.09470 0.10600
C 	C 	0.85549 0.70830 0.03147 0.01900
H 	H 	0.84480 0.58080 0.04240 -0.00800
H 	H 	0.82930 0.76570 0.01320 0.01500
C 	C 	0.79412 0.42400 0.72835 0.35000
C 	C 	0.08237 0.64870 0.82984 0.33500
C 	C 	0.82040 0.86700 0.10395 0.45800
N 	N 	0.91180 0.05630 0.85011 -0.16600
N 	N 	0.93588 0.11090 0.93060 -0.16600
N 	N 	0.88854 0.83040 0.91004 -0.16700
N 	N 	0.95752 0.32360 0.87142 -0.11700
N 	N 	0.91809 0.87020 0.98557 -0.10800
N 	N 	0.86361 0.78940 0.83262 -0.11500
O 	O 	0.75549 0.43160 0.70479 -0.49900
O 	O 	0.82411 0.28660 0.72120 -0.36100
O 	O 	0.11704 0.59110 0.85208 -0.39200
O 	O 	0.08613 0.75470 0.79110 -0.24600
O 	O 	0.79868 0.71680 0.11845 -0.57200
O 	O 	0.80416 0.03220 0.11035 -0.54300
Sr	Sr	0.78645 0.13574 0.64340 1.52400
C 	C 	0.43418 0.34000 0.11558 0.16900
C 	C 	0.38870 0.60170 0.13457 0.16700
C 	C 	0.41410 0.56100 0.05918 0.16300
C 	C 	0.43320 0.51100 0.97396 -0.09300
H 	H 	0.44610 0.38720 0.98510 0.06200
H 	H 	0.45850 0.57820 0.95650 0.06400
C 	C 	0.39860 0.81730 0.00010 -0.09200
H 	H 	0.42330 0.89110 0.98340 0.05600
H 	H 	0.38930 0.89120 0.02810 0.06200
C 	C 	0.47578 0.03690 0.09390 -0.04000
H 	H 	0.47590 0.09640 0.06260 0.04600
H 	H 	0.45470 0.92340 0.09290 0.05100
C 	C 	0.45852 0.10810 0.17766 -0.05100
H 	H 	0.43750 0.99520 0.18110 0.05700
H 	H 	0.44680 0.21040 0.19860 0.06800
C 	C 	0.35330 0.62580 0.21434 -0.08300
H 	H 	0.38040 0.54490 0.22420 0.07600
H 	H 	0.32480 0.54330 0.21230 0.06700
C 	C 	0.32800 0.85380 0.15055 -0.06600
H 	H 	0.29770 0.78770 0.14370 0.04900
H 	H 	0.33950 0.91300 0.12130 0.05500
C 	C 	0.34489 0.78620 0.25092 -0.03300
H 	H 	0.33620 0.72750 0.28110 0.02600
H 	H 	0.37460 0.85980 0.25540 0.05500
C 	C 	0.31918 0.01380 0.18762 -0.04300
H 	H 	0.34840 0.09080 0.19160 0.06300
H 	H 	0.29370 0.10030 0.17670 0.03800
C 	C 	0.30478 0.92410 0.23517 -0.17200
H 	H 	0.27540 0.84700 0.23030 0.08900
C 	C 	0.51027 0.05310 0.19113 -0.06900
H 	H 	0.53040 0.16930 0.19050 0.05900
H 	H 	0.51070 0.00110 0.22320 0.05900
C 	C 	0.53083 0.90160 0.15709 -0.12700
H 	H 	0.51130 0.78200 0.15990 0.07800
C 	C 	0.52681 0.97370 0.10702 -0.08100
H 	H 	0.53700 0.87060 0.08560 0.04700
H 	H 	0.54860 0.08360 0.10280 0.06100
C 	C 	0.39010 0.47450 0.94167 0.00700
H 	H 	0.40080 0.40140 0.91400 0.02100
H 	H 	0.36660 0.39490 0.95850 0.02100
C 	C 	0.36585 0.66170 0.92529 -0.23700
H 	H 	0.38920 0.73200 0.90530 0.10500
C 	C 	0.35549 0.79170 0.96853 0.01500
H 	H 	0.34480 0.91920 0.95760 -0.00500
H 	H 	0.32930 0.73430 0.98680 0.01700
C 	C 	0.29412 0.07600 0.27165 0.36100
C 	C 	0.58237 0.85130 0.17016 0.33200
C 	C 	0.32040 0.63300 0.89605 0.46300
N 	N 	0.41180 0.44370 0.14989 -0.16400
N 	N 	0.43588 0.38910 0.06940 -0.16600
N 	N 	0.38854 0.66960 0.08996 -0.16700
N 	N 	0.45752 0.17640 0.12858 -0.12000
N 	N 	0.41809 0.62980 0.01443 -0.11000
N 	N 	0.36361 0.71060 0.16738 -0.11300
O 	O 	0.25549 0.06840 0.29521 -0.49900
O 	O 	0.32411 0.21340 0.27880 -0.36100
O 	O 	0.61704 0.90890 0.14792 -0.39400
O 	O 	0.58613 0.74530 0.20890 -0.24800
O 	O 	0.29868 0.78320 0.88155 -0.57100
O 	O 	0.30416 0.46780 0.88965 -0.54900
Sr	Sr	0.28646 0.36426 0.35660 1.52500
C 	C 	0.06582 0.66000 0.61558 0.16900
C 	C 	0.11130 0.39830 0.63457 0.16700
C 	C 	0.08590 0.43900 0.55918 0.16300
C 	C 	0.06680 0.48900 0.47396 -0.09300
H 	H 	0.05390 0.61280 0.48510 0.06200
H 	H 	0.04150 0.42180 0.45650 0.06400
C 	C 	0.10140 0.18270 0.50010 -0.09100
H 	H 	0.07670 0.10890 0.48340 0.05500
H 	H 	0.11070 0.10880 0.52810 0.06100
C 	C 	0.02422 0.96310 0.59390 -0.04100
H 	H 	0.02410 0.90360 0.56260 0.04700
H 	H 	0.04530 0.07660 0.59290 0.05100
C 	C 	0.04148 0.89190 0.67766 -0.05100
H 	H 	0.06250 0.00480 0.68110 0.05700
H 	H 	0.05320 0.78960 0.69860 0.06800
C 	C 	0.14670 0.37420 0.71434 -0.08300
H 	H 	0.11960 0.45510 0.72420 0.07600
H 	H 	0.17520 0.45670 0.71230 0.06700
C 	C 	0.17200 0.14620 0.65055 -0.06700
H 	H 	0.20230 0.21230 0.64370 0.04900
H 	H 	0.16050 0.08700 0.62130 0.05500
C 	C 	0.15511 0.21380 0.75092 -0.03200
H 	H 	0.16380 0.27250 0.78110 0.02600
H 	H 	0.12540 0.14020 0.75540 0.05500
C 	C 	0.18082 0.98620 0.68762 -0.04200
H 	H 	0.15160 0.90920 0.69160 0.06300
H 	H 	0.20630 0.89970 0.67670 0.03800
C 	C 	0.19522 0.07590 0.73517 -0.17300
H 	H 	0.22460 0.15300 0.73030 0.08900
C 	C 	0.98973 0.94690 0.69113 -0.07000
H 	H 	0.96960 0.83070 0.69050 0.05900
H 	H 	0.98930 0.99890 0.72320 0.05900
C 	C 	0.96917 0.09840 0.65709 -0.12700
H 	H 	0.98870 0.21800 0.65990 0.07800
C 	C 	0.97319 0.02630 0.60702 -0.08000
H 	H 	0.96300 0.12940 0.58560 0.04700
H 	H 	0.95140 0.91640 0.60280 0.06100
C 	C 	0.10990 0.52550 0.44167 0.00700
H 	H 	0.09920 0.59860 0.41400 0.02100
H 	H 	0.13340 0.60510 0.45850 0.02100
C 	C 	0.13415 0.33830 0.42529 -0.23700
H 	H 	0.11080 0.26800 0.40530 0.10500
C 	C 	0.14451 0.20830 0.46853 0.01400
H 	H 	0.15520 0.08080 0.45760 -0.00500
H 	H 	0.17070 0.26570 0.48680 0.01700
C 	C 	0.20588 0.92400 0.77165 0.36100
C 	C 	0.91763 0.14870 0.67016 0.33200
C 	C 	0.17960 0.36700 0.39605 0.46300
N 	N 	0.08820 0.55630 0.64989 -0.16400
N 	N 	0.06412 0.61090 0.56940 -0.16600
N 	N 	0.11146 0.33040 0.58996 -0.16700
N 	N 	0.04248 0.82360 0.62858 -0.12000
N 	N 	0.08191 0.37020 0.51443 -0.11000
N 	N 	0.13639 0.28940 0.66738 -0.11300
O 	O 	0.24451 0.93160 0.79521 -0.49900
O 	O 	0.17589 0.78660 0.77880 -0.36100
O 	O 	0.88296 0.09110 0.64792 -0.39400
O 	O 	0.91387 0.25470 0.70890 -0.24800
O 	O 	0.20132 0.21680 0.38155 -0.57100
O 	O 	0.19584 0.53220 0.38965 -0.54900
Sr	Sr	0.21354 0.63574 0.85660 1.52500
C 	C 	0.43418 0.16000 0.61558 0.16800
C 	C 	0.38870 0.89830 0.63457 0.17000
C 	C 	0.41410 0.93900 0.55918 0.16300
C 	C 	0.43320 0.98900 0.47396 -0.10600
H 	H 	0.44610 0.11280 0.48510 0.06700
H 	H 	0.45850 0.92180 0.45650 0.06700
C 	C 	0.39860 0.68270 0.50010 -0.09500
H 	H 	0.42330 0.60890 0.48340 0.05600
H 	H 	0.38930 0.60880 0.52810 0.06200
C 	C 	0.47578 0.46310 0.59390 -0.06000
H 	H 	0.47590 0.40360 0.56260 0.05200
H 	H 	0.45470 0.57660 0.59290 0.05900
C 	C 	0.45852 0.39190 0.67766 -0.06400
H 	H 	0.43750 0.50480 0.68110 0.06400
H 	H 	0.44680 0.28960 0.69860 0.07100
C 	C 	0.35330 0.87420 0.71434 -0.07700
H 	H 	0.38040 0.95510 0.72420 0.07600
H 	H 	0.32480 0.95670 0.71230 0.06600
C 	C 	0.32800 0.64620 0.65055 -0.05300
H 	H 	0.29770 0.71230 0.64370 0.04600
H 	H 	0.33950 0.58700 0.62130 0.05200
C 	C 	0.34489 0.71380 0.75092 -0.04500
H 	H 	0.33620 0.77250 0.78110 0.03100
H 	H 	0.37460 0.64020 0.75540 0.06000
C 	C 	0.31918 0.48620 0.68762 -0.06400
H 	H 	0.34840 0.40920 0.69160 0.06800
H 	H 	0.29370 0.39970 0.67670 0.04300
C 	C 	0.30478 0.57590 0.73517 -0.15200
H 	H 	0.27540 0.65300 0.73030 0.08400
C 	C 	0.51027 0.44690 0.69113 -0.06400
H 	H 	0.53040 0.33070 0.69050 0.05700
H 	H 	0.51070 0.49890 0.72320 0.05500
C 	C 	0.53083 0.59840 0.65709 -0.13300
H 	H 	0.51130 0.71800 0.65990 0.08000
C 	C 	0.52681 0.52630 0.60702 -0.05800
H 	H 	0.53700 0.62940 0.58560 0.04100
H 	H 	0.54860 0.41640 0.60280 0.05200
C 	C 	0.39010 0.02550 0.44167 0.02200
H 	H 	0.40080 0.09860 0.41400 0.01800
H 	H 	0.36660 0.10510 0.45850 0.01800
C 	C 	0.36585 0.83830 0.42529 -0.24500
H 	H 	0.38920 0.76800 0.40530 0.10600
C 	C 	0.35549 0.70830 0.46853 0.02000
H 	H 	0.34480 0.58080 0.45760 -0.00800
H 	H 	0.32930 0.76570 0.48680 0.01500
C 	C 	0.29412 0.42400 0.77165 0.35000
C 	C 	0.58237 0.64870 0.67016 0.33500
C 	C 	0.32040 0.86700 0.39605 0.45800
N 	N 	0.41180 0.05630 0.64989 -0.16600
N 	N 	0.43588 0.11090 0.56940 -0.16600
N 	N 	0.38854 0.83040 0.58996 -0.16700
N 	N 	0.45752 0.32360 0.62858 -0.11700
N 	N 	0.41809 0.87020 0.51443 -0.10900
N 	N 	0.36361 0.78940 0.66738 -0.11500
O 	O 	0.25549 0.43160 0.79521 -0.49900
O 	O 	0.32411 0.28660 0.77880 -0.36100
O 	O 	0.61704 0.59110 0.64792 -0.39200
O 	O 	0.58613 0.75470 0.70890 -0.24600
O 	O 	0.29868 0.71680 0.38155 -0.57200
O 	O 	0.30416 0.03220 0.38965 -0.54300
Sr	Sr	0.28646 0.13574 0.85660 1.52400
C 	C 	0.06582 0.84000 0.11558 0.16800
C 	C 	0.11130 0.10170 0.13457 0.17000
C 	C 	0.08590 0.06100 0.05918 0.16400
C 	C 	0.06680 0.01100 0.97396 -0.10800
H 	H 	0.05390 0.88720 0.98510 0.06800
H 	H 	0.04150 0.07820 0.95650 0.06800
C 	C 	0.10140 0.31730 0.00010 -0.09400
H 	H 	0.07670 0.39110 0.98340 0.05600
H 	H 	0.11070 0.39120 0.02810 0.06200
C 	C 	0.02422 0.53690 0.09390 -0.06000
H 	H 	0.02410 0.59640 0.06260 0.05200
H 	H 	0.04530 0.42340 0.09290 0.05800
C 	C 	0.04148 0.60810 0.17766 -0.06400
H 	H 	0.06250 0.49520 0.18110 0.06400
H 	H 	0.05320 0.71040 0.19860 0.07000
C 	C 	0.14670 0.12580 0.21434 -0.07700
H 	H 	0.11960 0.04490 0.22420 0.07600
H 	H 	0.17520 0.04330 0.21230 0.06600
C 	C 	0.17200 0.35380 0.15055 -0.05300
H 	H 	0.20230 0.28770 0.14370 0.04600
H 	H 	0.16050 0.41300 0.12130 0.05200
C 	C 	0.15511 0.28620 0.25092 -0.04500
H 	H 	0.16380 0.22750 0.28110 0.03100
H 	H 	0.12540 0.35980 0.25540 0.06000
C 	C 	0.18082 0.51380 0.18762 -0.06400
H 	H 	0.15160 0.59080 0.19160 0.06800
H 	H 	0.20630 0.60030 0.17670 0.04300
C 	C 	0.19522 0.42410 0.23517 -0.15200
H 	H 	0.22460 0.34700 0.23030 0.08400
C 	C 	0.98973 0.55310 0.19113 -0.06500
H 	H 	0.96960 0.66930 0.19050 0.05700
H 	H 	0.98930 0.50110 0.22320 0.05500
C 	C 	0.96917 0.40160 0.15709 -0.13300
H 	H 	0.98870 0.28200 0.15990 0.08000
C 	C 	0.97319 0.47370 0.10702 -0.05900
H 	H 	0.96300 0.37060 0.08560 0.04100
H 	H 	0.95140 0.58360 0.10280 0.05200
C 	C 	0.10990 0.97450 0.94167 0.02400
H 	H 	0.09920 0.90140 0.91400 0.01800
H 	H 	0.13340 0.89490 0.95850 0.01800
C 	C 	0.13415 0.16170 0.92529 -0.24500
H 	H 	0.11080 0.23200 0.90530 0.10600
C 	C 	0.14451 0.29170 0.96853 0.01900
H 	H 	0.15520 0.41920 0.95760 -0.00800
H 	H 	0.17070 0.23430 0.98680 0.01500
C 	C 	0.20588 0.57600 0.27165 0.35000
C 	C 	0.91763 0.35130 0.17016 0.33500
C 	C 	0.17960 0.13300 0.89605 0.45800
N 	N 	0.08820 0.94370 0.14989 -0.16600
N 	N 	0.06412 0.88910 0.06940 -0.16600
N 	N 	0.11146 0.16960 0.08996 -0.16700
N 	N 	0.04248 0.67640 0.12858 -0.11700
N 	N 	0.08191 0.12980 0.01443 -0.10800
N 	N 	0.13639 0.21060 0.16738 -0.11500
O 	O 	0.24451 0.56840 0.29521 -0.49900
O 	O 	0.17589 0.71340 0.27880 -0.36100
O 	O 	0.88296 0.40890 0.14792 -0.39200
O 	O 	0.91387 0.24530 0.20890 -0.24600
O 	O 	0.20132 0.28320 0.88155 -0.57200
O 	O 	0.19584 0.96780 0.88965 -0.54300
Sr	Sr	0.21354 0.86426 0.35660 1.52400
C 	C 	0.56582 0.66000 0.88442 0.16900
C 	C 	0.61130 0.39830 0.86543 0.16700
C 	C 	0.58590 0.43900 0.94082 0.16300
C 	C 	0.56680 0.48900 0.02604 -0.09300
H 	H 	0.55390 0.61280 0.01490 0.06200
H 	H 	0.54150 0.42180 0.04350 0.06400
C 	C 	0.60140 0.18270 0.99990 -0.09200
H 	H 	0.57670 0.10890 0.01660 0.05600
H 	H 	0.61070 0.10880 0.97190 0.06200
C 	C 	0.52422 0.96310 0.90610 -0.04000
H 	H 	0.52410 0.90360 0.93740 0.04600
H 	H 	0.54530 0.07660 0.90710 0.05100
C 	C 	0.54148 0.89190 0.82234 -0.05100
H 	H 	0.56250 0.00480 0.81890 0.05700
H 	H 	0.55320 0.78960 0.80140 0.06800
C 	C 	0.64670 0.37420 0.78566 -0.08300
H 	H 	0.61960 0.45510 0.77580 0.07600
H 	H 	0.67520 0.45670 0.78770 0.06700
C 	C 	0.67200 0.14620 0.84945 -0.06600
H 	H 	0.70230 0.21230 0.85630 0.04900
H 	H 	0.66050 0.08700 0.87870 0.05500
C 	C 	0.65511 0.21380 0.74908 -0.03300
H 	H 	0.66380 0.27250 0.71890 0.02600
H 	H 	0.62540 0.14020 0.74460 0.05500
C 	C 	0.68082 0.98620 0.81238 -0.04300
H 	H 	0.65160 0.90920 0.80840 0.06300
H 	H 	0.70630 0.89970 0.82330 0.03800
C 	C 	0.69522 0.07590 0.76483 -0.17200
H 	H 	0.72460 0.15300 0.76970 0.08900
C 	C 	0.48973 0.94690 0.80887 -0.06900
H 	H 	0.46960 0.83070 0.80950 0.05900
H 	H 	0.48930 0.99890 0.77680 0.05900
C 	C 	0.46917 0.09840 0.84291 -0.12700
H 	H 	0.48870 0.21800 0.84010 0.07800
C 	C 	0.47319 0.02630 0.89298 -0.08100
H 	H 	0.46300 0.12940 0.91440 0.04700
H 	H 	0.45140 0.91640 0.89720 0.06100
C 	C 	0.60990 0.52550 0.05833 0.00700
H 	H 	0.59920 0.59860 0.08600 0.02100
H 	H 	0.63340 0.60510 0.04150 0.02100
C 	C 	0.63415 0.33830 0.07471 -0.23700
H 	H 	0.61080 0.26800 0.09470 0.10500
C 	C 	0.64451 0.20830 0.03147 0.01500
H 	H 	0.65520 0.08080 0.04240 -0.00500
H 	H 	0.67070 0.26570 0.01320 0.01700
C 	C 	0.70588 0.92400 0.72835 0.36100
C 	C 	0.41763 0.14870 0.82984 0.33200
C 	C 	0.67960 0.36700 0.10395 0.46300
N 	N 	0.58820 0.55630 0.85011 -0.16400
N 	N 	0.56412 0.61090 0.93060 -0.16600
N 	N 	0.61146 0.33040 0.91004 -0.16700
N 	N 	0.54248 0.82360 0.87142 -0.12000
N 	N 	0.58191 0.37020 0.98557 -0.11000
N 	N 	0.63639 0.28940 0.83262 -0.11300
O 	O 	0.74451 0.93160 0.70479 -0.49900
O 	O 	0.67589 0.78660 0.72120 -0.36100
O 	O 	0.38296 0.09110 0.85208 -0.39400
O 	O 	0.41387 0.25470 0.79110 -0.24800
O 	O 	0.70132 0.21680 0.11845 -0.57100
O 	O 	0.69584 0.53220 0.11035 -0.54900
Sr	Sr	0.71354 0.63574 0.64340 1.52500
C 	C 	0.93418 0.34000 0.38442 0.16900
C 	C 	0.88870 0.60170 0.36543 0.16700
C 	C 	0.91410 0.56100 0.44082 0.16300
C 	C 	0.93320 0.51100 0.52604 -0.09300
H 	H 	0.94610 0.38720 0.51490 0.06200
H 	H 	0.95850 0.57820 0.54350 0.06400
C 	C 	0.89860 0.81730 0.49990 -0.09100
H 	H 	0.92330 0.89110 0.51660 0.05500
H 	H 	0.88930 0.89120 0.47190 0.06100
C 	C 	0.97578 0.03690 0.40610 -0.04100
H 	H 	0.97590 0.09640 0.43740 0.04700
H 	H 	0.95470 0.92340 0.40710 0.05100
C 	C 	0.95852 0.10810 0.32234 -0.05100
H 	H 	0.93750 0.99520 0.31890 0.05700
H 	H 	0.94680 0.21040 0.30140 0.06800
C 	C 	0.85330 0.62580 0.28566 -0.08300
H 	H 	0.88040 0.54490 0.27580 0.07600
H 	H 	0.82480 0.54330 0.28770 0.06700
C 	C 	0.82800 0.85380 0.34945 -0.06700
H 	H 	0.79770 0.78770 0.35630 0.04900
H 	H 	0.83950 0.91300 0.37870 0.05500
C 	C 	0.84489 0.78620 0.24908 -0.03200
H 	H 	0.83620 0.72750 0.21890 0.02600
H 	H 	0.87460 0.85980 0.24460 0.05500
C 	C 	0.81918 0.01380 0.31238 -0.04200
H 	H 	0.84840 0.09080 0.30840 0.06300
H 	H 	0.79370 0.10030 0.32330 0.03800
C 	C 	0.80478 0.92410 0.26483 -0.17300
H 	H 	0.77540 0.84700 0.26970 0.08900
C 	C 	0.01027 0.05310 0.30887 -0.07000
H 	H 	0.03040 0.16930 0.30950 0.05900
H 	H 	0.01070 0.00110 0.27680 0.05900
C 	C 	0.03083 0.90160 0.34291 -0.12700
H 	H 	0.01130 0.78200 0.34010 0.07800
C 	C 	0.02681 0.97370 0.39298 -0.08000
H 	H 	0.03700 0.87060 0.41440 0.04700
H 	H 	0.04860 0.08360 0.39720 0.06100
C 	C 	0.89010 0.47450 0.55833 0.00700
H 	H 	0.90080 0.40140 0.58600 0.02100
H 	H 	0.86660 0.39490 0.54150 0.02100
C 	C 	0.86585 0.66170 0.57471 -0.23700
H 	H 	0.88920 0.73200 0.59470 0.10500
C 	C 	0.85549 0.79170 0.53147 0.01400
H 	H 	0.84480 0.91920 0.54240 -0.00500
H 	H 	0.82930 0.73430 0.51320 0.01700
C 	C 	0.79412 0.07600 0.22835 0.36100
C 	C 	0.08237 0.85130 0.32984 0.33200
C 	C 	0.82040 0.63300 0.60395 0.46300
N 	N 	0.91180 0.44370 0.35011 -0.16400
N 	N 	0.93588 0.38910 0.43060 -0.16600
N 	N 	0.88854 0.66960 0.41004 -0.16700
N 	N 	0.95752 0.17640 0.37142 -0.12000
N 	N 	0.91809 0.62980 0.48557 -0.11000
N 	N 	0.86361 0.71060 0.33262 -0.11300
O 	O 	0.75549 0.06840 0.20479 -0.49900
O 	O 	0.82411 0.21340 0.22120 -0.36100
O 	O 	0.11704 0.90890 0.35208 -0.39400
O 	O 	0.08613 0.74530 0.29110 -0.24800
O 	O 	0.79868 0.78320 0.61845 -0.57100
O 	O 	0.80416 0.46780 0.61035 -0.54900
Sr	Sr	0.78645 0.36426 0.14340 1.52500
