data_crystal

_cell_length_a 15.63990
_cell_length_b 17.98430
_cell_length_c 31.77410
_cell_angle_alpha 95.67420
_cell_angle_beta  104.24700
_cell_angle_gamma 90.00000

_symmetry_space_group_name_	'P 1'
_symmetry_space_group_name_H-M	'P 1'

loop_
_symmetry_equiv_pos_as_xyz
  x,y,z

loop_
_atom_site_label
_atom_site_type_symbol
_atom_site_fract_x
_atom_site_fract_y
_atom_site_fract_z
_atom_site_charge
Cu	Cu	0.90037 0.47612 0.68938 0.93300
Cu	Cu	0.90163 0.36467 0.41424 0.88300
Cu	Cu	0.21099 0.02388 0.31062 0.92300
Cu	Cu	0.48739 0.13533 0.58576 0.88000
Cu	Cu	0.09963 0.52388 0.31062 0.92900
Cu	Cu	0.09837 0.63533 0.58576 0.87800
Cu	Cu	0.78901 0.97612 0.68938 0.93500
Cu	Cu	0.51261 0.86467 0.41424 0.88100
Cu	Cu	-0.00000 0.50000 -0.00000 0.91800
Cu	Cu	-0.00000 0.00000 -0.00000 0.91200
Cu	Cu	0.74704 0.75000 -0.00000 0.93400
Cu	Cu	0.25296 0.25000 1.00000 0.94600
H 	H 	0.93960 0.54050 0.90580 0.05400
H 	H 	0.87670 0.61890 0.01220 0.02000
H 	H 	0.78270 0.71350 0.90660 0.07300
H 	H 	0.97200 0.58920 0.84860 0.11200
H 	H 	0.84230 0.65830 0.73440 0.22500
H 	H 	0.73200 0.69910 0.76500 0.04400
H 	H 	0.73470 0.68260 0.83620 0.19600
H 	H 	0.08070 0.65950 0.84360 0.94800
H 	H 	0.10360 0.69960 0.80600 0.96700
H 	H 	0.17480 0.65210 0.83480 0.93700
H 	H 	0.06100 0.51650 0.83340 0.94500
H 	H 	0.15520 0.50950 0.82460 0.97400
H 	H 	0.07310 0.47320 0.79000 0.94200
H 	H 	0.12660 0.62610 0.74020 0.86300
H 	H 	0.11210 0.53910 0.73360 0.82900
H 	H 	0.19490 0.57520 0.76800 0.82900
H 	H 	0.92270 0.59260 0.53280 0.01500
H 	H 	0.02880 0.56310 0.65420 -0.07100
H 	H 	0.79410 0.47870 0.59940 0.05900
H 	H 	0.85450 0.50650 0.47700 0.12300
H 	H 	0.59970 0.45590 0.41720 0.10700
H 	H 	0.56440 0.48260 0.48340 0.04700
H 	H 	0.67020 0.51340 0.54600 0.19600
H 	H 	0.60430 0.53350 0.37240 0.82100
H 	H 	0.67990 0.57780 0.36040 0.80900
H 	H 	0.60620 0.53520 0.32340 0.85300
H 	H 	0.79120 0.51230 0.32960 0.74500
H 	H 	0.79560 0.42490 0.32640 0.70700
H 	H 	0.72110 0.46340 0.29380 0.71800
H 	H 	0.60500 0.38980 0.36420 0.78400
H 	H 	0.60580 0.38960 0.31500 0.81000
H 	H 	0.68060 0.35000 0.34680 0.76100
H 	H 	0.98260 0.24870 0.67980 0.15900
H 	H 	0.69150 0.46100 0.75120 0.15000
H 	H 	0.90200 0.13920 0.35760 0.14300
H 	H 	0.19090 0.67950 0.02380 0.16700
H 	H 	0.55040 0.89910 0.94740 0.19300
H 	H 	0.03380 0.95950 0.09420 0.04400
H 	H 	0.86450 0.88110 0.98780 0.05400
H 	H 	0.87610 0.78650 0.09340 0.07800
H 	H 	0.12340 0.91080 0.15140 0.10300
H 	H 	0.10790 0.84170 0.26560 0.22800
H 	H 	0.96700 0.80090 0.23500 0.04300
H 	H 	0.89850 0.81740 0.16380 0.19000
H 	H 	0.23710 0.84050 0.15640 0.95400
H 	H 	0.29760 0.80040 0.19400 0.97200
H 	H 	0.34000 0.84790 0.16520 0.94000
H 	H 	0.22760 0.98350 0.16660 0.94500
H 	H 	0.33060 0.99050 0.17540 0.96900
H 	H 	0.28310 0.02680 0.21000 0.92700
H 	H 	0.38640 0.87390 0.25980 0.86900
H 	H 	0.37850 0.96090 0.26640 0.83800
H 	H 	0.42690 0.92480 0.23200 0.83500
H 	H 	0.38990 0.90740 0.46720 0.01400
H 	H 	0.37460 0.93690 0.34580 -0.04900
H 	H 	0.19470 0.02130 0.40060 0.03900
H 	H 	0.37750 0.99350 0.52300 0.11100
H 	H 	0.18250 0.04410 0.58280 0.09000
H 	H 	0.08100 0.01740 0.51660 0.05900
H 	H 	0.12420 0.98660 0.45400 0.17900
H 	H 	0.23190 0.96650 0.62760 0.82200
H 	H 	0.31950 0.92220 0.63960 0.80600
H 	H 	0.28280 0.96480 0.67660 0.85300
H 	H 	0.46160 0.98770 0.67040 0.76400
H 	H 	0.46920 0.07510 0.67360 0.71800
H 	H 	0.42730 0.03660 0.70620 0.72700
H 	H 	0.24080 0.11020 0.63580 0.78200
H 	H 	0.29080 0.11040 0.68500 0.80700
H 	H 	0.33380 0.15000 0.65320 0.76000
H 	H 	0.30280 0.25130 0.32020 0.16300
H 	H 	0.94030 0.03900 0.24880 0.13200
H 	H 	0.54440 0.36080 0.64240 0.13700
H 	H 	0.16710 0.82050 0.97620 0.15400
H 	H 	0.60300 0.60090 0.05260 0.20500
H 	H 	0.06040 0.45950 0.09420 0.04900
H 	H 	0.12330 0.38110 0.98780 0.05000
H 	H 	0.21730 0.28650 0.09340 0.07400
H 	H 	0.02800 0.41080 0.15140 0.09700
H 	H 	0.15770 0.34170 0.26560 0.22200
H 	H 	0.26800 0.30090 0.23500 0.04600
H 	H 	0.26530 0.31740 0.16380 0.19300
H 	H 	0.91930 0.34050 0.15640 0.98100
H 	H 	0.89640 0.30040 0.19400 0.99800
H 	H 	0.82520 0.34790 0.16520 0.96100
H 	H 	0.93900 0.48350 0.16660 0.98400
H 	H 	0.84480 0.49050 0.17540 1.00200
H 	H 	0.92690 0.52680 0.21000 0.97700
H 	H 	0.87340 0.37390 0.25980 0.89100
H 	H 	0.88790 0.46090 0.26640 0.85600
H 	H 	0.80510 0.42480 0.23200 0.85100
H 	H 	0.07730 0.40740 0.46720 0.00900
H 	H 	0.97120 0.43690 0.34580 -0.02900
H 	H 	0.20590 0.52130 0.40060 0.06000
H 	H 	0.14550 0.49350 0.52300 0.11700
H 	H 	0.40030 0.54410 0.58280 0.10600
H 	H 	0.43560 0.51740 0.51660 0.04900
H 	H 	0.32980 0.48660 0.45400 0.19500
H 	H 	0.39570 0.46650 0.62760 0.82000
H 	H 	0.32010 0.42220 0.63960 0.80700
H 	H 	0.39380 0.46480 0.67660 0.85300
H 	H 	0.20880 0.48770 0.67040 0.74300
H 	H 	0.20440 0.57510 0.67360 0.70700
H 	H 	0.27890 0.53660 0.70620 0.71900
H 	H 	0.39500 0.61020 0.63580 0.78400
H 	H 	0.39420 0.61040 0.68500 0.81000
H 	H 	0.31940 0.65000 0.65320 0.76100
H 	H 	0.01740 0.75130 0.32020 0.16700
H 	H 	0.30850 0.53900 0.24880 0.15000
H 	H 	0.09800 0.86080 0.64240 0.13500
H 	H 	0.80910 0.32050 0.97620 0.15500
H 	H 	0.44960 0.10090 0.05260 0.20300
H 	H 	0.96620 0.04050 0.90580 0.07100
H 	H 	0.13550 0.11890 0.01220 0.01500
H 	H 	0.12390 0.21350 0.90660 0.06800
H 	H 	0.87660 0.08920 0.84860 0.11000
H 	H 	0.89210 0.15830 0.73440 0.21700
H 	H 	0.03300 0.19910 0.76500 0.04700
H 	H 	0.10150 0.18260 0.83620 0.20200
H 	H 	0.76290 0.15950 0.84360 0.97000
H 	H 	0.70240 0.19960 0.80600 0.98700
H 	H 	0.66000 0.15210 0.83480 0.95400
H 	H 	0.77240 0.01650 0.83340 0.97600
H 	H 	0.66940 0.00950 0.82460 0.99900
H 	H 	0.71690 0.97320 0.79000 0.97900
H 	H 	0.61360 0.12610 0.74020 0.88000
H 	H 	0.62150 0.03910 0.73360 0.84300
H 	H 	0.57310 0.07520 0.76800 0.84200
H 	H 	0.61010 0.09260 0.53280 0.01100
H 	H 	0.62540 0.06310 0.65420 -0.05200
H 	H 	0.80530 0.97870 0.59940 0.07200
H 	H 	0.62250 0.00650 0.47700 0.12600
H 	H 	0.81750 0.95590 0.41720 0.11700
H 	H 	0.91900 0.98260 0.48340 0.04200
H 	H 	0.87580 0.01340 0.54600 0.20800
H 	H 	0.76810 0.03350 0.37240 0.81900
H 	H 	0.68050 0.07780 0.36040 0.80800
H 	H 	0.71720 0.03520 0.32340 0.85200
H 	H 	0.53840 0.01230 0.32960 0.72300
H 	H 	0.53080 0.92490 0.32640 0.69500
H 	H 	0.57270 0.96340 0.29380 0.70900
H 	H 	0.75920 0.88980 0.36420 0.78500
H 	H 	0.70920 0.88960 0.31500 0.81000
H 	H 	0.66620 0.85000 0.34680 0.76100
H 	H 	0.69720 0.74870 0.67980 0.16200
H 	H 	0.05970 0.96100 0.75120 0.16700
H 	H 	0.45560 0.63920 0.35760 0.13700
H 	H 	0.83290 0.17950 0.02380 0.17000
H 	H 	0.39700 0.39910 0.94740 0.19100
C 	C 	0.90989 0.57520 0.92018 0.10200
C 	C 	0.87276 0.62150 0.98272 0.16100
C 	C 	0.81751 0.67710 0.92082 0.09700
C 	C 	0.86058 0.62790 0.89676 -0.06200
C 	C 	0.85475 0.63480 0.85010 0.25500
C 	C 	0.92298 0.61080 0.83176 -0.26600
C 	C 	0.91834 0.61900 0.78768 0.29400
C 	C 	0.84591 0.65220 0.76342 -0.27700
C 	C 	0.77999 0.67600 0.78178 0.24900
C 	C 	0.78160 0.66720 0.82460 -0.23100
C 	C 	0.08109 0.58660 0.78958 1.92000
C 	C 	0.11302 0.65590 0.82144 -2.80800
C 	C 	0.09379 0.51490 0.81138 -2.83600
C 	C 	0.13357 0.58130 0.75454 -2.61500
C 	C 	0.91981 0.57180 0.55802 0.09400
C 	C 	0.98147 0.55550 0.62974 0.20500
C 	C 	0.84360 0.50580 0.59760 0.10000
C 	C 	0.84513 0.53110 0.55846 -0.07500
C 	C 	0.77385 0.51310 0.51810 0.20300
C 	C 	0.79599 0.50100 0.47818 -0.23400
C 	C 	0.73063 0.48060 0.44006 0.20800
C 	C 	0.64351 0.47150 0.44222 -0.24700
C 	C 	0.62307 0.48610 0.48214 0.21300
C 	C 	0.68580 0.50540 0.51960 -0.21200
C 	C 	0.69695 0.46470 0.35510 1.61900
C 	C 	0.64178 0.53420 0.35256 -2.46900
C 	C 	0.75690 0.46650 0.32320 -2.25000
C 	C 	0.64192 0.39170 0.34424 -2.37400
C 	C 	0.81725 0.24350 0.63970 0.81000
C 	C 	0.87651 0.31100 0.65882 0.02600
C 	C 	0.96528 0.29790 0.67756 -0.01600
C 	C 	0.02775 0.35380 0.69270 -0.00400
C 	C 	0.12180 0.32960 0.70700 0.81800
C 	C 	0.63497 0.54260 0.68594 0.90100
C 	C 	0.72190 0.50730 0.70140 -0.02500
C 	C 	0.73784 0.46770 0.73828 0.00800
C 	C 	0.81701 0.43870 0.75622 0.01100
C 	C 	0.83000 0.39650 0.79660 0.88800
C 	C 	0.00573 0.15130 0.43486 0.75800
C 	C 	0.95819 0.21060 0.40878 0.05400
C 	C 	0.90798 0.18990 0.36736 -0.04100
C 	C 	0.86522 0.24020 0.33884 0.00700
C 	C 	0.81529 0.20980 0.29398 0.82800
C 	C 	0.21378 0.59580 0.95656 0.83800
C 	C 	0.14917 0.58540 0.98494 0.06000
C 	C 	0.15139 0.63920 0.01958 -0.06900
C 	C 	0.09751 0.63620 0.04842 0.04500
C 	C 	0.10620 0.70100 0.08340 0.78000
C 	C 	0.65147 0.86940 0.89194 0.94200
C 	C 	0.65648 0.84710 0.93856 0.09500
C 	C 	0.59650 0.87010 0.96080 -0.16800
C 	C 	0.60050 0.85280 0.00220 0.27300
C 	C 	0.98971 0.92480 0.07982 0.11200
C 	C 	0.89004 0.87850 0.01728 0.10800
C 	C 	0.89669 0.82290 0.07918 0.08800
C 	C 	0.96382 0.87210 0.10324 -0.04500
C 	C 	0.00465 0.86520 0.14990 0.22400
C 	C 	0.09122 0.88920 0.16824 -0.25500
C 	C 	0.13066 0.88100 0.21232 0.29300
C 	C 	0.08249 0.84780 0.23658 -0.29300
C 	C 	0.99821 0.82400 0.21822 0.26100
C 	C 	0.95700 0.83280 0.17540 -0.21000
C 	C 	0.29151 0.91340 0.21042 1.92900
C 	C 	0.29158 0.84410 0.17856 -2.81800
C 	C 	0.28241 0.98510 0.18862 -2.80500
C 	C 	0.37903 0.91870 0.24546 -2.62700
C 	C 	0.36179 0.92820 0.44198 0.09100
C 	C 	0.35173 0.94450 0.37026 0.17500
C 	C 	0.24600 0.99420 0.40240 0.12200
C 	C 	0.28667 0.96890 0.44154 -0.07100
C 	C 	0.25575 0.98690 0.48190 0.17500
C 	C 	0.31781 0.99900 0.52182 -0.19100
C 	C 	0.29057 0.01940 0.55994 0.17000
C 	C 	0.20129 0.02850 0.55778 -0.20800
C 	C 	0.14093 0.01390 0.51786 0.15200
C 	C 	0.16620 0.99460 0.48040 -0.15600
C 	C 	0.34185 0.03530 0.64490 1.61500
C 	C 	0.28922 0.96580 0.64744 -2.45400
C 	C 	0.43370 0.03350 0.67680 -2.28900
C 	C 	0.29768 0.10830 0.65576 -2.37000
C 	C 	0.17755 0.25650 0.36030 0.80600
C 	C 	0.21769 0.18900 0.34118 0.03600
C 	C 	0.28772 0.20210 0.32244 -0.05100
C 	C 	0.33505 0.14620 0.30730 0.02500
C 	C 	0.41480 0.17040 0.29300 0.81100
C 	C 	0.94903 0.95740 0.31406 0.92000
C 	C 	0.02050 0.99270 0.29860 -0.05800
C 	C 	0.99956 0.03230 0.26172 0.06300
C 	C 	0.06079 0.06130 0.24378 -0.02700
C 	C 	0.03340 0.10350 0.20340 0.88400
C 	C 	0.57087 0.34870 0.56514 0.80800
C 	C 	0.54941 0.28940 0.59122 0.02400
C 	C 	0.54062 0.31010 0.63264 -0.02800
C 	C 	0.52638 0.25980 0.66116 -0.00100
C 	C 	0.52131 0.29020 0.70602 0.83000
C 	C 	0.25722 0.90420 0.04344 0.85000
C 	C 	0.16423 0.91460 0.01506 0.01200
C 	C 	0.13181 0.86080 0.98042 -0.00400
C 	C 	0.04909 0.86380 0.95158 0.01300
C 	C 	0.02280 0.79900 0.91660 0.78200
C 	C 	0.75953 0.63060 0.10806 0.93500
C 	C 	0.71792 0.65290 0.06144 0.11300
C 	C 	0.63570 0.62990 0.03920 -0.22400
C 	C 	0.59830 0.64720 0.99780 0.31800
C 	C 	0.09011 0.42480 0.07982 0.09500
C 	C 	0.12724 0.37850 0.01728 0.10300
C 	C 	0.18249 0.32290 0.07918 0.09000
C 	C 	0.13942 0.37210 0.10324 -0.06000
C 	C 	0.14525 0.36520 0.14990 0.24800
C 	C 	0.07702 0.38920 0.16824 -0.26400
C 	C 	0.08166 0.38100 0.21232 0.28600
C 	C 	0.15409 0.34780 0.23658 -0.27300
C 	C 	0.22001 0.32400 0.21822 0.24300
C 	C 	0.21840 0.33280 0.17540 -0.22700
C 	C 	0.91891 0.41340 0.21042 1.99900
C 	C 	0.88698 0.34410 0.17856 -2.89400
C 	C 	0.90621 0.48510 0.18862 -2.93000
C 	C 	0.86643 0.41870 0.24546 -2.69400
C 	C 	0.08019 0.42820 0.44198 0.08800
C 	C 	0.01853 0.44450 0.37026 0.14100
C 	C 	0.15640 0.49420 0.40240 0.09500
C 	C 	0.15487 0.46890 0.44154 -0.07200
C 	C 	0.22615 0.48690 0.48190 0.19800
C 	C 	0.20401 0.49900 0.52182 -0.23100
C 	C 	0.26937 0.51940 0.55994 0.20500
C 	C 	0.35649 0.52850 0.55778 -0.24400
C 	C 	0.37693 0.51390 0.51786 0.20900
C 	C 	0.31420 0.49460 0.48040 -0.20800
C 	C 	0.30305 0.53530 0.64490 1.61700
C 	C 	0.35822 0.46580 0.64744 -2.46600
C 	C 	0.24310 0.53350 0.67680 -2.24800
C 	C 	0.35808 0.60830 0.65576 -2.37300
C 	C 	0.18275 0.75650 0.36030 0.80300
C 	C 	0.12349 0.68900 0.34118 0.04300
C 	C 	0.03472 0.70210 0.32244 -0.07700
C 	C 	0.97225 0.64620 0.30730 0.04600
C 	C 	0.87820 0.67040 0.29300 0.80600
C 	C 	0.36503 0.45740 0.31406 0.90100
C 	C 	0.27810 0.49270 0.29860 -0.02400
C 	C 	0.26216 0.53230 0.26172 0.00700
C 	C 	0.18299 0.56130 0.24378 0.01300
C 	C 	0.17000 0.60350 0.20340 0.88600
C 	C 	0.99427 0.84870 0.56514 0.84100
C 	C 	0.04181 0.78940 0.59122 0.00500
C 	C 	0.09202 0.81010 0.63264 -0.02000
C 	C 	0.13478 0.75980 0.66116 -0.00500
C 	C 	0.18471 0.79020 0.70602 0.83100
C 	C 	0.78622 0.40420 0.04344 0.85000
C 	C 	0.85083 0.41460 0.01506 0.01400
C 	C 	0.84861 0.36080 0.98042 -0.00800
C 	C 	0.90249 0.36380 0.95158 0.02900
C 	C 	0.89380 0.29900 0.91660 0.78900
C 	C 	0.34853 0.13060 0.10806 0.93600
C 	C 	0.34352 0.15290 0.06144 0.11200
C 	C 	0.40350 0.12990 0.03920 -0.22600
C 	C 	0.39950 0.14720 0.99780 0.31600
C 	C 	0.01029 0.07520 0.92018 0.07000
C 	C 	0.10996 0.12150 0.98272 0.15700
C 	C 	0.10331 0.17710 0.92082 0.10100
C 	C 	0.03618 0.12790 0.89676 -0.08300
C 	C 	0.99535 0.13480 0.85010 0.29400
C 	C 	0.90878 0.11080 0.83176 -0.27900
C 	C 	0.86934 0.11900 0.78768 0.28900
C 	C 	0.91751 0.15220 0.76342 -0.24800
C 	C 	0.00179 0.17600 0.78178 0.22400
C 	C 	0.04300 0.16720 0.82460 -0.25900
C 	C 	0.70849 0.08660 0.78958 1.97500
C 	C 	0.70842 0.15590 0.82144 -2.86800
C 	C 	0.71759 0.01490 0.81138 -2.92800
C 	C 	0.62097 0.08130 0.75454 -2.66700
C 	C 	0.63821 0.07180 0.55802 0.09200
C 	C 	0.64827 0.05550 0.62974 0.17300
C 	C 	0.75400 0.00580 0.59760 0.08400
C 	C 	0.71333 0.03110 0.55846 -0.07500
C 	C 	0.74425 0.01310 0.51810 0.21600
C 	C 	0.68219 0.00100 0.47818 -0.25900
C 	C 	0.70943 0.98060 0.44006 0.23100
C 	C 	0.79871 0.97150 0.44222 -0.26800
C 	C 	0.85907 0.98610 0.48214 0.24600
C 	C 	0.83380 0.00540 0.51960 -0.24200
C 	C 	0.65815 0.96470 0.35510 1.61600
C 	C 	0.71078 0.03420 0.35256 -2.47400
C 	C 	0.56630 0.96650 0.32320 -2.20500
C 	C 	0.70232 0.89170 0.34424 -2.37100
C 	C 	0.82245 0.74350 0.63970 0.80700
C 	C 	0.78231 0.81100 0.65882 0.03500
C 	C 	0.71228 0.79790 0.67756 -0.04800
C 	C 	0.66495 0.85380 0.69270 0.02300
C 	C 	0.58520 0.82960 0.70700 0.81200
C 	C 	0.05097 0.04260 0.68594 0.87500
C 	C 	0.97950 0.00730 0.70140 0.01600
C 	C 	0.00044 0.96770 0.73828 -0.03800
C 	C 	0.93921 0.93870 0.75622 0.04100
C 	C 	0.96660 0.89650 0.79660 0.88800
C 	C 	0.42913 0.65130 0.43486 0.80800
C 	C 	0.45059 0.71060 0.40878 0.02400
C 	C 	0.45938 0.68990 0.36736 -0.02800
C 	C 	0.47362 0.74020 0.33884 -0.00100
C 	C 	0.47869 0.70980 0.29398 0.83000
C 	C 	0.74278 0.09580 0.95656 0.83700
C 	C 	0.83577 0.08540 0.98494 0.06600
C 	C 	0.86819 0.13920 0.01958 -0.07800
C 	C 	0.95091 0.13620 0.04842 0.07100
C 	C 	0.97720 0.20100 0.08340 0.78700
C 	C 	0.24047 0.36940 0.89194 0.94300
C 	C 	0.28208 0.34710 0.93856 0.09300
C 	C 	0.36430 0.37010 0.96080 -0.16700
C 	C 	0.40170 0.35280 0.00220 0.27000
N 	N 	0.91657 0.57210 0.96314 -0.19000
N 	N 	0.82376 0.67430 0.96352 -0.17800
N 	N 	0.98601 0.59400 0.76742 -0.33300
N 	N 	0.98904 0.58230 0.59348 -0.21600
N 	N 	0.91045 0.51840 0.63350 -0.20700
N 	N 	0.75740 0.46670 0.40060 -0.29000
N 	N 	0.95343 0.92790 0.03686 -0.18600
N 	N 	0.86024 0.82570 0.03648 -0.17300
N 	N 	0.21859 0.90600 0.23258 -0.34000
N 	N 	0.39556 0.91770 0.40652 -0.21500
N 	N 	0.27695 0.98160 0.36650 -0.20400
N 	N 	0.35680 0.03330 0.59940 -0.28500
N 	N 	0.08343 0.42790 0.03686 -0.19100
N 	N 	0.17624 0.32570 0.03648 -0.17600
N 	N 	0.01399 0.40600 0.23258 -0.35500
N 	N 	0.01096 0.41770 0.40652 -0.21600
N 	N 	0.08955 0.48160 0.36650 -0.20000
N 	N 	0.24260 0.53330 0.59940 -0.28900
N 	N 	0.04657 0.07210 0.96314 -0.19400
N 	N 	0.13976 0.17430 0.96352 -0.18100
N 	N 	0.78141 0.09400 0.76742 -0.34600
N 	N 	0.60444 0.08230 0.59348 -0.21600
N 	N 	0.72305 0.01840 0.63350 -0.20300
N 	N 	0.64320 0.96670 0.40060 -0.29100
O 	O 	0.96220 0.58090 0.72520 -0.17000
O 	O 	0.84106 0.45950 0.40412 -0.26900
O 	O 	0.84029 0.37300 0.65478 -0.17400
O 	O 	0.01882 0.42350 0.69504 -0.29500
O 	O 	0.77507 0.51980 0.67874 -0.17500
O 	O 	0.88725 0.44070 0.74350 -0.25000
O 	O 	0.97223 0.27520 0.42846 -0.23400
O 	O 	0.86631 0.30970 0.34602 -0.27600
O 	O 	0.09986 0.52930 0.97292 -0.22000
O 	O 	0.04145 0.58800 0.04910 -0.20700
O 	O 	0.72389 0.80810 0.95058 -0.24900
O 	O 	0.65888 0.81840 0.02616 -0.28200
O 	O 	0.23700 0.91910 0.27480 -0.17300
O 	O 	0.43694 0.04050 0.59588 -0.27600
O 	O 	0.18551 0.12700 0.34522 -0.18400
O 	O 	0.32378 0.07650 0.30496 -0.29800
O 	O 	0.09633 0.98020 0.32126 -0.16300
O 	O 	0.14375 0.05930 0.25650 -0.24800
O 	O 	0.54377 0.22480 0.57154 -0.23500
O 	O 	0.52029 0.19030 0.65398 -0.27600
O 	O 	0.12694 0.97070 0.02708 -0.20400
O 	O 	0.99235 0.91200 0.95090 -0.17100
O 	O 	0.77331 0.69190 0.04942 -0.26200
O 	O 	0.63272 0.68160 0.97384 -0.28500
O 	O 	0.03780 0.41910 0.27480 -0.18200
O 	O 	0.15894 0.54050 0.59588 -0.27500
O 	O 	0.15971 0.62700 0.34522 -0.18300
O 	O 	0.98118 0.57650 0.30496 -0.29300
O 	O 	0.22493 0.48020 0.32126 -0.17600
O 	O 	0.11275 0.55930 0.25650 -0.25900
O 	O 	0.02777 0.72480 0.57154 -0.23500
O 	O 	0.13369 0.69030 0.65398 -0.27600
O 	O 	0.90014 0.47070 0.02708 -0.20500
O 	O 	0.95855 0.41200 0.95090 -0.18200
O 	O 	0.27611 0.19190 0.04942 -0.26600
O 	O 	0.34112 0.18160 0.97384 -0.28700
O 	O 	0.76300 0.08090 0.72520 -0.17800
O 	O 	0.56306 0.95950 0.40412 -0.26800
O 	O 	0.81449 0.87300 0.65478 -0.17600
O 	O 	0.67622 0.92350 0.69504 -0.29200
O 	O 	0.90367 0.01980 0.67874 -0.18500
O 	O 	0.85625 0.94070 0.74350 -0.26000
O 	O 	0.45623 0.77520 0.42846 -0.23300
O 	O 	0.47971 0.80970 0.34602 -0.27500
O 	O 	0.87306 0.02930 0.97292 -0.21400
O 	O 	0.00765 0.08800 0.04910 -0.22700
O 	O 	0.22669 0.30810 0.95058 -0.25300
O 	O 	0.36728 0.31840 0.02616 -0.28400
F 	F 	0.78690 0.24050 0.59520 -0.42200
F 	F 	0.84360 0.18160 0.65160 -0.49400
F 	F 	0.74420 0.25590 0.66120 -0.39400
F 	F 	0.13464 0.26510 0.72108 -0.46800
F 	F 	0.17360 0.38210 0.73500 -0.48900
F 	F 	0.16160 0.33640 0.67220 -0.47200
F 	F 	0.64120 0.61200 0.68040 -0.47700
F 	F 	0.58160 0.50460 0.65400 -0.49500
F 	F 	0.58440 0.54350 0.71640 -0.45300
F 	F 	0.81370 0.32840 0.78680 -0.48100
F 	F 	0.76730 0.41810 0.81860 -0.41500
F 	F 	0.90600 0.41680 0.82660 -0.45300
F 	F 	0.99505 0.15660 0.47610 -0.42600
F 	F 	0.97870 0.08130 0.42020 -0.44400
F 	F 	0.09500 0.15580 0.44340 -0.41900
F 	F 	0.78627 0.14210 0.28874 -0.50500
F 	F 	0.75640 0.25430 0.27360 -0.50800
F 	F 	0.87470 0.21590 0.26640 -0.41600
F 	F 	0.28410 0.55450 0.96960 -0.42500
F 	F 	0.24200 0.66860 0.95920 -0.43200
F 	F 	0.18940 0.56260 0.91720 -0.48400
F 	F 	0.12563 0.76600 0.07426 -0.50400
F 	F 	0.03401 0.69860 0.10422 -0.39600
F 	F 	0.17460 0.69070 0.11800 -0.40000
F 	F 	0.59780 0.92560 0.88320 -0.47800
F 	F 	0.71610 0.88010 0.88180 -0.54600
F 	F 	0.61240 0.80100 0.86680 -0.42000
F 	F 	0.19170 0.25950 0.40480 -0.42500
F 	F 	0.19200 0.31840 0.34840 -0.49600
F 	F 	0.08300 0.24410 0.33880 -0.39900
F 	F 	0.41356 0.23490 0.27892 -0.46400
F 	F 	0.43860 0.11790 0.26500 -0.49000
F 	F 	0.48940 0.16360 0.32780 -0.46900
F 	F 	0.96080 0.88800 0.31960 -0.47600
F 	F 	0.92760 0.99540 0.34600 -0.49300
F 	F 	0.86800 0.95650 0.28360 -0.45300
F 	F 	0.02690 0.17160 0.21320 -0.48900
F 	F 	0.94870 0.08190 0.18140 -0.40600
F 	F 	0.07940 0.08320 0.17340 -0.46400
F 	F 	0.51895 0.34340 0.52390 -0.44500
F 	F 	0.55850 0.41870 0.57980 -0.46100
F 	F 	0.65160 0.34420 0.55660 -0.41900
F 	F 	0.49753 0.35790 0.71126 -0.50500
F 	F 	0.48280 0.24570 0.72640 -0.50900
F 	F 	0.60830 0.28410 0.73360 -0.41900
F 	F 	0.31450 0.94550 0.03040 -0.43000
F 	F 	0.28280 0.83140 0.04080 -0.44100
F 	F 	0.27220 0.93740 0.08280 -0.48300
F 	F 	0.05137 0.73400 0.92574 -0.50300
F 	F 	0.92979 0.80140 0.89578 -0.38400
F 	F 	0.05660 0.80930 0.88200 -0.40300
F 	F 	0.71460 0.57440 0.11680 -0.48100
F 	F 	0.83430 0.61990 0.11820 -0.54400
F 	F 	0.74560 0.69900 0.13320 -0.41900
F 	F 	0.21310 0.75950 0.40480 -0.42300
F 	F 	0.15640 0.81840 0.34840 -0.49600
F 	F 	0.25580 0.74410 0.33880 -0.39300
F 	F 	0.86536 0.73490 0.27892 -0.46100
F 	F 	0.82640 0.61790 0.26500 -0.48800
F 	F 	0.83840 0.66360 0.32780 -0.46600
F 	F 	0.35880 0.38800 0.31960 -0.47700
F 	F 	0.41840 0.49540 0.34600 -0.49500
F 	F 	0.41560 0.45650 0.28360 -0.45400
F 	F 	0.18630 0.67160 0.21320 -0.48300
F 	F 	0.23270 0.58190 0.18140 -0.41600
F 	F 	0.09400 0.58320 0.17340 -0.46100
F 	F 	0.00495 0.84340 0.52390 -0.45600
F 	F 	0.02130 0.91870 0.57980 -0.46900
F 	F 	0.90500 0.84420 0.55660 -0.41900
F 	F 	0.21373 0.85790 0.71126 -0.50400
F 	F 	0.24360 0.74570 0.72640 -0.50700
F 	F 	0.12530 0.78410 0.73360 -0.42100
F 	F 	0.71590 0.44550 0.03040 -0.43500
F 	F 	0.75800 0.33140 0.04080 -0.44200
F 	F 	0.81060 0.43740 0.08280 -0.48600
F 	F 	0.87437 0.23400 0.92574 -0.49800
F 	F 	0.96599 0.30140 0.89578 -0.38500
F 	F 	0.82540 0.30930 0.88200 -0.40100
F 	F 	0.40220 0.07440 0.11680 -0.48400
F 	F 	0.28390 0.11990 0.11820 -0.54800
F 	F 	0.38760 0.19900 0.13320 -0.42000
F 	F 	0.80830 0.74050 0.59520 -0.42100
F 	F 	0.80800 0.68160 0.65160 -0.49500
F 	F 	0.91700 0.75590 0.66120 -0.38900
F 	F 	0.58644 0.76510 0.72108 -0.46400
F 	F 	0.56140 0.88210 0.73500 -0.48700
F 	F 	0.51060 0.83640 0.67220 -0.46800
F 	F 	0.03920 0.11200 0.68040 -0.48000
F 	F 	0.07240 0.00460 0.65400 -0.49900
F 	F 	0.13200 0.04350 0.71640 -0.45600
F 	F 	0.97310 0.82840 0.78680 -0.47700
F 	F 	0.05130 0.91810 0.81860 -0.42000
F 	F 	0.92060 0.91680 0.82660 -0.45400
F 	F 	0.48105 0.65660 0.47610 -0.44400
F 	F 	0.44150 0.58130 0.42020 -0.46100
F 	F 	0.34840 0.65580 0.44340 -0.41900
F 	F 	0.50247 0.64210 0.28874 -0.50500
F 	F 	0.51720 0.75430 0.27360 -0.50700
F 	F 	0.39170 0.71590 0.26640 -0.41900
F 	F 	0.68550 0.05450 0.96960 -0.42800
F 	F 	0.71720 0.16860 0.95920 -0.43200
F 	F 	0.72780 0.06260 0.91720 -0.48500
F 	F 	0.94863 0.26600 0.07426 -0.49900
F 	F 	0.07021 0.19860 0.10422 -0.40000
F 	F 	0.94340 0.19070 0.11800 -0.39700
F 	F 	0.28540 0.42560 0.88320 -0.48000
F 	F 	0.16570 0.38010 0.88180 -0.55000
F 	F 	0.25440 0.30100 0.86680 -0.42100
