data_crystal

_cell_length_a 25.46270
_cell_length_b 9.88680
_cell_length_c 21.95260
_cell_angle_alpha 90.00000
_cell_angle_beta  130.15680
_cell_angle_gamma 90.00000

_symmetry_space_group_name_	'P 1'
_symmetry_space_group_name_H-M	'P 1'

loop_
_symmetry_equiv_pos_as_xyz
  x,y,z

loop_
_atom_site_label
_atom_site_type_symbol
_atom_site_fract_x
_atom_site_fract_y
_atom_site_fract_z
_atom_site_charge
Cd	Cd	0.73201 0.41064 0.06164 1.22600
H 	H 	0.76200 0.32520 0.22620 -0.00600
H 	H 	0.72930 0.36420 0.30010 0.11300
H 	H 	0.59980 0.64910 0.14040 0.11000
H 	H 	0.64000 0.60740 0.07560 -0.01900
H 	H 	0.49380 0.81580 0.17920 0.10900
H 	H 	0.37900 0.79150 0.07160 -0.02100
H 	H 	0.40070 0.40850 0.05610 -0.02200
H 	H 	0.51510 0.41600 0.16240 0.10500
H 	H 	0.60360 0.24470 0.33860 0.16300
H 	H 	0.62090 0.26740 0.28250 0.16300
H 	H 	0.70900 0.38000 0.44100 0.00200
C 	C 	0.72900 0.39110 0.20890 0.11200
C 	C 	0.70940 0.41340 0.25370 -0.20400
C 	C 	0.65910 0.51130 0.22860 0.17500
C 	C 	0.63310 0.58300 0.15950 -0.20200
C 	C 	0.65690 0.55570 0.12030 0.11000
C 	C 	0.51950 0.61890 0.18220 0.18100
C 	C 	0.47650 0.73210 0.15460 -0.21000
C 	C 	0.40710 0.71580 0.08940 0.11600
C 	C 	0.42020 0.49150 0.08070 0.10800
C 	C 	0.48900 0.49470 0.14440 -0.20500
C 	C 	0.72230 0.61800 0.40490 0.35300
C 	C 	0.67740 0.50150 0.35210 -0.10800
C 	C 	0.67810 0.38470 0.38140 0.13200
C 	C 	0.64080 0.25810 0.33770 -0.41700
C 	C 	0.68740 0.13520 0.37350 0.39800
N 	N 	0.70340 0.45830 0.14210 -0.24000
N 	N 	0.63360 0.52750 0.26830 -0.08900
N 	N 	0.58850 0.63680 0.24440 -0.14200
N 	N 	0.37830 0.60120 0.05100 -0.26300
O 	O 	0.71736 0.72310 0.36920 -0.41800
O 	O 	0.76207 0.60440 0.47960 -0.42200
O 	O 	0.66130 0.02020 0.34720 -0.39500
O 	O 	0.75122 0.15180 0.42950 -0.38400
H 	H 	0.39113 0.73543 0.22431 0.09300
Cd	Cd	0.23201 0.91064 0.06164 1.22500
H 	H 	0.26200 0.82520 0.22620 -0.00700
H 	H 	0.22930 0.86420 0.30010 0.11400
H 	H 	0.09980 0.14910 0.14040 0.11100
H 	H 	0.14000 0.10740 0.07560 -0.02000
H 	H 	0.99380 0.31580 0.17920 0.10900
H 	H 	0.87900 0.29150 0.07160 -0.01900
H 	H 	0.90070 0.90850 0.05610 -0.02100
H 	H 	0.01510 0.91600 0.16240 0.10300
H 	H 	0.10360 0.74470 0.33860 0.16200
H 	H 	0.12090 0.76740 0.28250 0.16200
H 	H 	0.20900 0.88000 0.44100 0.00200
C 	C 	0.22900 0.89110 0.20890 0.11300
C 	C 	0.20940 0.91340 0.25370 -0.20700
C 	C 	0.15910 0.01130 0.22860 0.17800
C 	C 	0.13310 0.08300 0.15950 -0.20400
C 	C 	0.15690 0.05570 0.12030 0.11300
C 	C 	0.01950 0.11890 0.18220 0.17900
C 	C 	0.97650 0.23210 0.15460 -0.20700
C 	C 	0.90710 0.21580 0.08940 0.11500
C 	C 	0.92020 0.99150 0.08070 0.10300
C 	C 	0.98900 0.99470 0.14440 -0.20200
C 	C 	0.22230 0.11800 0.40490 0.35300
C 	C 	0.17740 0.00150 0.35210 -0.10800
C 	C 	0.17810 0.88470 0.38140 0.13100
C 	C 	0.14080 0.75810 0.33770 -0.41700
C 	C 	0.18740 0.63520 0.37350 0.39700
N 	N 	0.20340 0.95830 0.14210 -0.24200
N 	N 	0.13360 0.02750 0.26830 -0.09000
N 	N 	0.08850 0.13680 0.24440 -0.14100
N 	N 	0.87830 0.10120 0.05100 -0.26000
O 	O 	0.21736 0.22310 0.36920 -0.41800
O 	O 	0.26207 0.10440 0.47960 -0.42200
O 	O 	0.16130 0.52020 0.34720 -0.39600
O 	O 	0.25122 0.65180 0.42950 -0.38400
H 	H 	0.89113 0.23543 0.22431 0.09300
Cd	Cd	0.26799 0.41064 0.43836 1.22600
H 	H 	0.23800 0.32520 0.27380 -0.00600
H 	H 	0.27070 0.36420 0.19990 0.11300
H 	H 	0.40020 0.64910 0.35960 0.11000
H 	H 	0.36000 0.60740 0.42440 -0.01900
H 	H 	0.50620 0.81580 0.32080 0.10900
H 	H 	0.62100 0.79150 0.42840 -0.02000
H 	H 	0.59930 0.40850 0.44390 -0.02200
H 	H 	0.48490 0.41600 0.33760 0.10500
H 	H 	0.39640 0.24470 0.16140 0.16300
H 	H 	0.37910 0.26740 0.21750 0.16300
H 	H 	0.29100 0.38000 0.05900 0.00200
C 	C 	0.27100 0.39110 0.29110 0.11100
C 	C 	0.29060 0.41340 0.24630 -0.20400
C 	C 	0.34090 0.51130 0.27140 0.17500
C 	C 	0.36690 0.58300 0.34050 -0.20200
C 	C 	0.34310 0.55570 0.37970 0.10900
C 	C 	0.48050 0.61890 0.31780 0.18100
C 	C 	0.52350 0.73210 0.34540 -0.21000
C 	C 	0.59290 0.71580 0.41060 0.11600
C 	C 	0.57980 0.49150 0.41930 0.10800
C 	C 	0.51100 0.49470 0.35560 -0.20500
C 	C 	0.27770 0.61800 0.09510 0.35300
C 	C 	0.32260 0.50150 0.14790 -0.10800
C 	C 	0.32190 0.38470 0.11860 0.13200
C 	C 	0.35920 0.25810 0.16230 -0.41700
C 	C 	0.31260 0.13520 0.12650 0.39800
N 	N 	0.29660 0.45830 0.35790 -0.24000
N 	N 	0.36640 0.52750 0.23170 -0.08900
N 	N 	0.41150 0.63680 0.25560 -0.14200
N 	N 	0.62170 0.60120 0.44900 -0.26300
O 	O 	0.28264 0.72310 0.13080 -0.41800
O 	O 	0.23793 0.60440 0.02040 -0.42300
O 	O 	0.33870 0.02020 0.15280 -0.39500
O 	O 	0.24878 0.15180 0.07050 -0.38400
H 	H 	0.60887 0.73543 0.27569 0.09300
Cd	Cd	0.76799 0.91064 0.43836 1.22500
H 	H 	0.73800 0.82520 0.27380 -0.00700
H 	H 	0.77070 0.86420 0.19990 0.11400
H 	H 	0.90020 0.14910 0.35960 0.11100
H 	H 	0.86000 0.10740 0.42440 -0.02000
H 	H 	0.00620 0.31580 0.32080 0.11000
H 	H 	0.12100 0.29150 0.42840 -0.02000
H 	H 	0.09930 0.90850 0.44390 -0.02300
H 	H 	0.98490 0.91600 0.33760 0.10500
H 	H 	0.89640 0.74470 0.16140 0.16200
H 	H 	0.87910 0.76740 0.21750 0.16200
H 	H 	0.79100 0.88000 0.05900 0.00300
C 	C 	0.77100 0.89110 0.29110 0.11300
C 	C 	0.79060 0.91340 0.24630 -0.20800
C 	C 	0.84090 0.01130 0.27140 0.17900
C 	C 	0.86690 0.08300 0.34050 -0.20500
C 	C 	0.84310 0.05570 0.37970 0.11200
C 	C 	0.98050 0.11890 0.31780 0.18400
C 	C 	0.02350 0.23210 0.34540 -0.21300
C 	C 	0.09290 0.21580 0.41060 0.11800
C 	C 	0.07980 0.99150 0.41930 0.11000
C 	C 	0.01100 0.99470 0.35560 -0.20800
C 	C 	0.77770 0.11800 0.09510 0.35200
C 	C 	0.82260 0.00150 0.14790 -0.10400
C 	C 	0.82190 0.88470 0.11860 0.12700
C 	C 	0.85920 0.75810 0.16230 -0.41500
C 	C 	0.81260 0.63520 0.12650 0.39700
N 	N 	0.79660 0.95830 0.35790 -0.24100
N 	N 	0.86640 0.02750 0.23170 -0.09000
N 	N 	0.91150 0.13680 0.25560 -0.14200
N 	N 	0.12170 0.10120 0.44900 -0.26400
O 	O 	0.78264 0.22310 0.13080 -0.41700
O 	O 	0.73793 0.10440 0.02040 -0.42000
O 	O 	0.83870 0.52020 0.15280 -0.39600
O 	O 	0.74878 0.65180 0.07050 -0.38400
H 	H 	0.10887 0.23543 0.27569 0.09300
Cd	Cd	0.26799 0.58936 0.93836 1.22600
H 	H 	0.23800 0.67480 0.77380 -0.00600
H 	H 	0.27070 0.63580 0.69990 0.11300
H 	H 	0.40020 0.35090 0.85960 0.11000
H 	H 	0.36000 0.39260 0.92440 -0.01900
H 	H 	0.50620 0.18420 0.82080 0.10900
H 	H 	0.62100 0.20850 0.92840 -0.02100
H 	H 	0.59930 0.59150 0.94390 -0.02200
H 	H 	0.48490 0.58400 0.83760 0.10500
H 	H 	0.39640 0.75530 0.66140 0.16300
H 	H 	0.37910 0.73260 0.71750 0.16300
H 	H 	0.29100 0.62000 0.55900 0.00200
C 	C 	0.27100 0.60890 0.79110 0.11200
C 	C 	0.29060 0.58660 0.74630 -0.20400
C 	C 	0.34090 0.48870 0.77140 0.17500
C 	C 	0.36690 0.41700 0.84050 -0.20200
C 	C 	0.34310 0.44430 0.87970 0.11000
C 	C 	0.48050 0.38110 0.81780 0.18100
C 	C 	0.52350 0.26790 0.84540 -0.21000
C 	C 	0.59290 0.28420 0.91060 0.11600
C 	C 	0.57980 0.50850 0.91930 0.10800
C 	C 	0.51100 0.50530 0.85560 -0.20500
C 	C 	0.27770 0.38200 0.59510 0.35300
C 	C 	0.32260 0.49850 0.64790 -0.10800
C 	C 	0.32190 0.61530 0.61860 0.13200
C 	C 	0.35920 0.74190 0.66230 -0.41700
C 	C 	0.31260 0.86480 0.62650 0.39800
N 	N 	0.29660 0.54170 0.85790 -0.24000
N 	N 	0.36640 0.47250 0.73170 -0.08900
N 	N 	0.41150 0.36320 0.75560 -0.14200
N 	N 	0.62170 0.39880 0.94900 -0.26300
O 	O 	0.28264 0.27690 0.63080 -0.41800
O 	O 	0.23793 0.39560 0.52040 -0.42200
O 	O 	0.33870 0.97980 0.65280 -0.39500
O 	O 	0.24878 0.84820 0.57050 -0.38400
H 	H 	0.60887 0.26457 0.77569 0.09300
Cd	Cd	0.76799 0.08936 0.93836 1.22500
H 	H 	0.73800 0.17480 0.77380 -0.00700
H 	H 	0.77070 0.13580 0.69990 0.11400
H 	H 	0.90020 0.85090 0.85960 0.11100
H 	H 	0.86000 0.89260 0.92440 -0.02000
H 	H 	0.00620 0.68420 0.82080 0.10900
H 	H 	0.12100 0.70850 0.92840 -0.01900
H 	H 	0.09930 0.09150 0.94390 -0.02100
H 	H 	0.98490 0.08400 0.83760 0.10300
H 	H 	0.89640 0.25530 0.66140 0.16200
H 	H 	0.87910 0.23260 0.71750 0.16200
H 	H 	0.79100 0.12000 0.55900 0.00200
C 	C 	0.77100 0.10890 0.79110 0.11300
C 	C 	0.79060 0.08660 0.74630 -0.20700
C 	C 	0.84090 0.98870 0.77140 0.17800
C 	C 	0.86690 0.91700 0.84050 -0.20400
C 	C 	0.84310 0.94430 0.87970 0.11300
C 	C 	0.98050 0.88110 0.81780 0.17900
C 	C 	0.02350 0.76790 0.84540 -0.20700
C 	C 	0.09290 0.78420 0.91060 0.11500
C 	C 	0.07980 0.00850 0.91930 0.10300
C 	C 	0.01100 0.00530 0.85560 -0.20200
C 	C 	0.77770 0.88200 0.59510 0.35300
C 	C 	0.82260 0.99850 0.64790 -0.10800
C 	C 	0.82190 0.11530 0.61860 0.13100
C 	C 	0.85920 0.24190 0.66230 -0.41700
C 	C 	0.81260 0.36480 0.62650 0.39700
N 	N 	0.79660 0.04170 0.85790 -0.24200
N 	N 	0.86640 0.97250 0.73170 -0.09000
N 	N 	0.91150 0.86320 0.75560 -0.14100
N 	N 	0.12170 0.89880 0.94900 -0.26000
O 	O 	0.78264 0.77690 0.63080 -0.41800
O 	O 	0.73793 0.89560 0.52040 -0.42200
O 	O 	0.83870 0.47980 0.65280 -0.39600
O 	O 	0.74878 0.34820 0.57050 -0.38400
H 	H 	0.10887 0.76457 0.77569 0.09300
Cd	Cd	0.73201 0.58936 0.56164 1.22600
H 	H 	0.76200 0.67480 0.72620 -0.00600
H 	H 	0.72930 0.63580 0.80010 0.11300
H 	H 	0.59980 0.35090 0.64040 0.11000
H 	H 	0.64000 0.39260 0.57560 -0.01900
H 	H 	0.49380 0.18420 0.67920 0.10900
H 	H 	0.37900 0.20850 0.57160 -0.02000
H 	H 	0.40070 0.59150 0.55610 -0.02200
H 	H 	0.51510 0.58400 0.66240 0.10500
H 	H 	0.60360 0.75530 0.83860 0.16300
H 	H 	0.62090 0.73260 0.78250 0.16300
H 	H 	0.70900 0.62000 0.94100 0.00200
C 	C 	0.72900 0.60890 0.70890 0.11100
C 	C 	0.70940 0.58660 0.75370 -0.20400
C 	C 	0.65910 0.48870 0.72860 0.17500
C 	C 	0.63310 0.41700 0.65950 -0.20200
C 	C 	0.65690 0.44430 0.62030 0.10900
C 	C 	0.51950 0.38110 0.68220 0.18100
C 	C 	0.47650 0.26790 0.65460 -0.21000
C 	C 	0.40710 0.28420 0.58940 0.11600
C 	C 	0.42020 0.50850 0.58070 0.10800
C 	C 	0.48900 0.50530 0.64440 -0.20500
C 	C 	0.72230 0.38200 0.90490 0.35300
C 	C 	0.67740 0.49850 0.85210 -0.10800
C 	C 	0.67810 0.61530 0.88140 0.13200
C 	C 	0.64080 0.74190 0.83770 -0.41700
C 	C 	0.68740 0.86480 0.87350 0.39800
N 	N 	0.70340 0.54170 0.64210 -0.24000
N 	N 	0.63360 0.47250 0.76830 -0.08900
N 	N 	0.58850 0.36320 0.74440 -0.14200
N 	N 	0.37830 0.39880 0.55100 -0.26300
O 	O 	0.71736 0.27690 0.86920 -0.41800
O 	O 	0.76207 0.39560 0.97960 -0.42300
O 	O 	0.66130 0.97980 0.84720 -0.39500
O 	O 	0.75122 0.84820 0.92950 -0.38400
H 	H 	0.39113 0.26457 0.72431 0.09300
Cd	Cd	0.23201 0.08936 0.56164 1.22500
H 	H 	0.26200 0.17480 0.72620 -0.00700
H 	H 	0.22930 0.13580 0.80010 0.11400
H 	H 	0.09980 0.85090 0.64040 0.11100
H 	H 	0.14000 0.89260 0.57560 -0.02000
H 	H 	0.99380 0.68420 0.67920 0.11000
H 	H 	0.87900 0.70850 0.57160 -0.02000
H 	H 	0.90070 0.09150 0.55610 -0.02300
H 	H 	0.01510 0.08400 0.66240 0.10500
H 	H 	0.10360 0.25530 0.83860 0.16200
H 	H 	0.12090 0.23260 0.78250 0.16200
H 	H 	0.20900 0.12000 0.94100 0.00300
C 	C 	0.22900 0.10890 0.70890 0.11300
C 	C 	0.20940 0.08660 0.75370 -0.20800
C 	C 	0.15910 0.98870 0.72860 0.17900
C 	C 	0.13310 0.91700 0.65950 -0.20500
C 	C 	0.15690 0.94430 0.62030 0.11200
C 	C 	0.01950 0.88110 0.68220 0.18400
C 	C 	0.97650 0.76790 0.65460 -0.21300
C 	C 	0.90710 0.78420 0.58940 0.11800
C 	C 	0.92020 0.00850 0.58070 0.11000
C 	C 	0.98900 0.00530 0.64440 -0.20800
C 	C 	0.22230 0.88200 0.90490 0.35200
C 	C 	0.17740 0.99850 0.85210 -0.10400
C 	C 	0.17810 0.11530 0.88140 0.12700
C 	C 	0.14080 0.24190 0.83770 -0.41500
C 	C 	0.18740 0.36480 0.87350 0.39700
N 	N 	0.20340 0.04170 0.64210 -0.24100
N 	N 	0.13360 0.97250 0.76830 -0.09000
N 	N 	0.08850 0.86320 0.74440 -0.14200
N 	N 	0.87830 0.89880 0.55100 -0.26400
O 	O 	0.21736 0.77690 0.86920 -0.41700
O 	O 	0.26207 0.89560 0.97960 -0.42000
O 	O 	0.16130 0.47980 0.84720 -0.39600
O 	O 	0.25122 0.34820 0.92950 -0.38400
H 	H 	0.89113 0.76457 0.72431 0.09300
