data_crystal

_cell_length_a 7.57810
_cell_length_b 9.81130
_cell_length_c 11.79860
_cell_angle_alpha 114.06000
_cell_angle_beta  108.04500
_cell_angle_gamma 91.34400

_symmetry_space_group_name_	'P 1'
_symmetry_space_group_name_H-M	'P 1'

loop_
_symmetry_equiv_pos_as_xyz
  x,y,z

loop_
_atom_site_label
_atom_site_type_symbol
_atom_site_fract_x
_atom_site_fract_y
_atom_site_fract_z
_atom_site_charge
Cd	Cd	0.24247 0.48197 0.00163 1.21000
O 	O 	0.14000 0.22810 0.84760 -0.31500
O 	O 	0.41090 0.43250 0.85040 -0.43400
O 	O 	0.93590 0.41740 0.85830 -0.45700
O 	O 	0.64300 0.60100 0.83920 -0.32600
C 	C 	0.96400 0.26000 0.80800 0.14400
C 	C 	0.80800 0.14700 0.68800 -0.02200
C 	C 	0.61300 0.17900 0.64950 -0.07500
H 	H 	0.57120 0.26730 0.69940 0.05100
C 	C 	0.50800 0.06900 0.53680 0.02900
C 	C 	0.83600 0.99900 0.62200 -0.02300
H 	H 	0.95300 0.97030 0.65580 0.05400
C 	C 	0.43400 0.52000 0.79800 0.16700
C 	C 	0.30300 0.52200 0.68230 -0.04200
C 	C 	0.35500 0.56400 0.59600 -0.01500
H 	H 	0.48450 0.59550 0.61600 0.05000
C 	C 	0.22600 0.56200 0.48400 -0.07200
H 	H 	0.26600 0.58250 0.42330 0.06600
C 	C 	0.09000 0.48300 0.65760 -0.07000
H 	H 	0.03890 0.46640 0.71620 0.05400
C 	C 	0.00800 0.52400 0.45950 0.02800
C 	C 	0.29900 0.10500 0.48800 -0.06500
H 	H 	0.27120 0.20080 0.53670 0.06500
Cd	Cd	0.75753 0.51803 0.99837 1.20900
O 	O 	0.86000 0.77190 0.15240 -0.31600
O 	O 	0.58910 0.56750 0.14960 -0.43500
O 	O 	0.06410 0.58260 0.14170 -0.45800
O 	O 	0.35700 0.39900 0.16080 -0.32600
C 	C 	0.03600 0.74000 0.19200 0.14400
C 	C 	0.19200 0.85300 0.31200 -0.02200
C 	C 	0.38700 0.82100 0.35050 -0.07500
H 	H 	0.42880 0.73270 0.30060 0.05100
C 	C 	0.49200 0.93100 0.46320 0.02900
C 	C 	0.16400 0.00100 0.37800 -0.02300
H 	H 	0.04700 0.02970 0.34420 0.05400
C 	C 	0.56600 0.48000 0.20200 0.16700
C 	C 	0.69700 0.47800 0.31770 -0.04200
C 	C 	0.64500 0.43600 0.40400 -0.01500
H 	H 	0.51550 0.40450 0.38400 0.05000
C 	C 	0.77400 0.43800 0.51600 -0.07200
H 	H 	0.73400 0.41750 0.57670 0.06600
C 	C 	0.91000 0.51700 0.34240 -0.07000
H 	H 	0.96110 0.53360 0.28380 0.05400
C 	C 	0.99200 0.47600 0.54050 0.02800
C 	C 	0.70100 0.89500 0.51200 -0.06500
H 	H 	0.72880 0.79920 0.46330 0.06500
