data_crystal

_cell_length_a 8.70110
_cell_length_b 20.85700
_cell_length_c 8.28680
_cell_angle_alpha 90.00000
_cell_angle_beta  90.00000
_cell_angle_gamma 90.00000

_symmetry_space_group_name_	'P 1'
_symmetry_space_group_name_H-M	'P 1'

loop_
_symmetry_equiv_pos_as_xyz
  x,y,z

loop_
_atom_site_label
_atom_site_type_symbol
_atom_site_fract_x
_atom_site_fract_y
_atom_site_fract_z
_atom_site_charge
N 	N 	0.61930 0.92720 0.91770 -0.15000
C 	C 	0.68480 0.87370 0.87230 0.06100
H 	H 	0.69860 0.86110 0.76430 0.00900
H 	H 	0.87450 0.77140 0.09590 0.06100
N 	N 	0.11930 0.42720 0.91770 -0.17700
C 	C 	0.18480 0.37370 0.87230 0.04700
H 	H 	0.19860 0.36110 0.76430 -0.01100
H 	H 	0.37450 0.27140 0.09590 0.04300
N 	N 	0.38070 0.07280 0.91770 -0.17600
C 	C 	0.31520 0.12630 0.87230 0.04900
H 	H 	0.30140 0.13890 0.76430 -0.01100
H 	H 	0.12550 0.22860 0.09590 0.02000
N 	N 	0.88070 0.57280 0.91770 -0.14900
C 	C 	0.81520 0.62630 0.87230 0.06300
H 	H 	0.80140 0.63890 0.76430 0.00800
H 	H 	0.62550 0.72860 0.09590 0.03800
N 	N 	0.38070 0.92720 0.58230 -0.14600
C 	C 	0.31520 0.87370 0.62770 0.08400
H 	H 	0.30140 0.86110 0.73570 -0.01400
H 	H 	0.12550 0.77140 0.40410 0.03200
N 	N 	0.88070 0.42720 0.58230 -0.14100
C 	C 	0.81520 0.37370 0.62770 0.09100
H 	H 	0.80140 0.36110 0.73570 -0.00300
H 	H 	0.62550 0.27140 0.40410 0.04500
N 	N 	0.61930 0.07280 0.58230 -0.16400
C 	C 	0.68480 0.12630 0.62770 0.08400
H 	H 	0.69860 0.13890 0.73570 -0.01000
H 	H 	0.87450 0.22860 0.40410 0.06800
N 	N 	0.11930 0.57280 0.58230 -0.16800
C 	C 	0.18480 0.62630 0.62770 0.07700
H 	H 	0.19860 0.63890 0.73570 -0.02000
H 	H 	0.37450 0.72860 0.40410 0.05400
N 	N 	0.38070 0.07280 0.08230 -0.15600
C 	C 	0.31520 0.12630 0.12770 0.08300
H 	H 	0.30140 0.13890 0.23570 -0.01900
H 	H 	0.12550 0.22860 0.90410 -0.00100
N 	N 	0.88070 0.57280 0.08230 -0.12900
C 	C 	0.81520 0.62630 0.12770 0.09700
H 	H 	0.80140 0.63890 0.23570 0.00100
H 	H 	0.62550 0.72860 0.90410 0.01600
N 	N 	0.61930 0.92720 0.08230 -0.12900
C 	C 	0.68480 0.87370 0.12770 0.09600
H 	H 	0.69860 0.86110 0.23570 0.00200
H 	H 	0.87450 0.77140 0.90410 0.04100
N 	N 	0.11930 0.42720 0.08230 -0.15600
C 	C 	0.18480 0.37370 0.12770 0.08300
H 	H 	0.19860 0.36110 0.23570 -0.01700
H 	H 	0.37450 0.27140 0.90410 0.02300
N 	N 	0.61930 0.07280 0.41770 -0.16300
C 	C 	0.68480 0.12630 0.37230 0.08400
H 	H 	0.69860 0.13890 0.26430 -0.00100
H 	H 	0.87450 0.22860 0.59590 0.06500
N 	N 	0.11930 0.57280 0.41770 -0.16700
C 	C 	0.18480 0.62630 0.37230 0.07600
H 	H 	0.19860 0.63890 0.26430 -0.01200
H 	H 	0.37450 0.72860 0.59590 0.05100
N 	N 	0.38070 0.92720 0.41770 -0.14400
C 	C 	0.31520 0.87370 0.37230 0.08400
H 	H 	0.30140 0.86110 0.26430 -0.00500
H 	H 	0.12550 0.77140 0.59590 0.02900
N 	N 	0.88070 0.42720 0.41770 -0.13900
C 	C 	0.81520 0.37370 0.37230 0.09100
H 	H 	0.80140 0.36110 0.26430 0.00500
H 	H 	0.62550 0.27140 0.59590 0.04200
Ag	Ag	0.50000 0.00000 0.75000 0.49600
Ag	Ag	0.00000 0.50000 0.75000 0.49300
Ag	Ag	0.50000 0.00000 0.25000 0.50300
Ag	Ag	0.00000 0.50000 0.25000 0.50000
N 	N 	0.72950 0.83910 -0.00000 -0.11400
C 	C 	0.80930 0.77540 -0.00000 -0.03600
N 	N 	0.22950 0.33910 -0.00000 -0.12000
C 	C 	0.30930 0.27540 -0.00000 -0.03200
N 	N 	0.27050 0.16090 -0.00000 -0.12700
C 	C 	0.19070 0.22460 -0.00000 -0.00400
N 	N 	0.77050 0.66090 -0.00000 -0.12100
C 	C 	0.69070 0.72460 -0.00000 -0.00600
N 	N 	0.27050 0.83910 0.50000 -0.13800
C 	C 	0.19070 0.77540 0.50000 -0.04000
N 	N 	0.77050 0.33910 0.50000 -0.13400
C 	C 	0.69070 0.27540 0.50000 -0.04200
N 	N 	0.72950 0.16090 0.50000 -0.12900
C 	C 	0.80930 0.22460 0.50000 -0.07200
N 	N 	0.22950 0.66090 0.50000 -0.13300
C 	C 	0.30930 0.72460 0.50000 -0.06900
