data_crystal

_cell_length_a 12.72310
_cell_length_b 12.72310
_cell_length_c 16.48120
_cell_angle_alpha 90.00000
_cell_angle_beta  90.00000
_cell_angle_gamma 120.00000

_symmetry_space_group_name_	'P 1'
_symmetry_space_group_name_H-M	'P 1'

loop_
_symmetry_equiv_pos_as_xyz
  x,y,z

loop_
_atom_site_label
_atom_site_type_symbol
_atom_site_fract_x
_atom_site_fract_y
_atom_site_fract_z
_atom_site_charge
O 	O 	0.37700 0.99320 0.17220 -0.40200
O 	O 	0.53360 0.17950 0.17050 -0.40700
N 	N 	0.43480 0.37070 0.84000 -0.21400
N 	N 	0.31240 0.21230 0.91350 -0.20200
H 	H 	0.24700 0.14500 0.92870 0.11600
C 	C 	0.32590 0.27310 0.84480 0.12300
H 	H 	0.26500 0.24920 0.80430 -0.00900
C 	C 	0.49410 0.37160 0.91090 -0.03400
H 	H 	0.57450 0.43160 0.92510 0.04300
C 	C 	0.41980 0.27420 0.95670 0.06700
C 	C 	0.44860 0.23550 0.03250 -0.00700
H 	H 	0.52320 0.29200 0.05730 0.04700
C 	C 	0.38240 0.12910 0.07210 -0.20100
H 	H 	0.30270 0.07280 0.05400 0.10200
C 	C 	0.43410 0.10020 0.14370 0.38100
O 	O 	0.00680 0.38380 0.17220 -0.40300
O 	O 	0.82050 0.35410 0.17050 -0.40800
N 	N 	0.62930 0.06410 0.84000 -0.21500
N 	N 	0.78770 0.10010 0.91350 -0.20300
H 	H 	0.85500 0.10200 0.92870 0.11600
C 	C 	0.72690 0.05280 0.84480 0.12200
H 	H 	0.75080 0.01580 0.80430 -0.00900
C 	C 	0.62840 0.12250 0.91090 -0.03400
H 	H 	0.56840 0.14290 0.92510 0.04300
C 	C 	0.72580 0.14560 0.95670 0.06800
C 	C 	0.76450 0.21310 0.03250 -0.00800
H 	H 	0.70800 0.23120 0.05730 0.04800
C 	C 	0.87090 0.25330 0.07210 -0.20000
H 	H 	0.92720 0.22990 0.05400 0.10100
C 	C 	0.89980 0.33390 0.14370 0.38100
O 	O 	0.61620 0.62300 0.17220 -0.40400
O 	O 	0.64590 0.46640 0.17050 -0.40900
N 	N 	0.93590 0.56520 0.84000 -0.21500
N 	N 	0.89990 0.68760 0.91350 -0.20300
H 	H 	0.89800 0.75300 0.92870 0.11500
C 	C 	0.94720 0.67410 0.84480 0.12200
H 	H 	0.98420 0.73500 0.80430 -0.00900
C 	C 	0.87750 0.50590 0.91090 -0.03400
H 	H 	0.85710 0.42550 0.92510 0.04300
C 	C 	0.85440 0.58020 0.95670 0.06700
C 	C 	0.78690 0.55140 0.03250 -0.00700
H 	H 	0.76880 0.47680 0.05730 0.04700
C 	C 	0.74670 0.61760 0.07210 -0.20100
H 	H 	0.77010 0.69730 0.05400 0.10200
C 	C 	0.66610 0.56590 0.14370 0.38200
O 	O 	0.62300 0.00680 0.67220 -0.40400
O 	O 	0.46640 0.82050 0.67050 -0.40900
N 	N 	0.56520 0.62930 0.34000 -0.21500
N 	N 	0.68760 0.78770 0.41350 -0.20300
H 	H 	0.75300 0.85500 0.42870 0.11500
C 	C 	0.67410 0.72690 0.34480 0.12200
H 	H 	0.73500 0.75080 0.30430 -0.00900
C 	C 	0.50590 0.62840 0.41090 -0.03400
H 	H 	0.42550 0.56840 0.42510 0.04300
C 	C 	0.58020 0.72580 0.45670 0.06600
C 	C 	0.55140 0.76450 0.53250 -0.00600
H 	H 	0.47680 0.70800 0.55730 0.04700
C 	C 	0.61760 0.87090 0.57210 -0.20100
H 	H 	0.69730 0.92720 0.55400 0.10200
C 	C 	0.56590 0.89980 0.64370 0.38200
O 	O 	0.99320 0.61620 0.67220 -0.40400
O 	O 	0.17950 0.64590 0.67050 -0.40900
N 	N 	0.37070 0.93590 0.34000 -0.21500
N 	N 	0.21230 0.89990 0.41350 -0.20300
H 	H 	0.14500 0.89800 0.42870 0.11500
C 	C 	0.27310 0.94720 0.34480 0.12200
H 	H 	0.24920 0.98420 0.30430 -0.00900
C 	C 	0.37160 0.87750 0.41090 -0.03400
H 	H 	0.43160 0.85710 0.42510 0.04300
C 	C 	0.27420 0.85440 0.45670 0.06600
C 	C 	0.23550 0.78690 0.53250 -0.00600
H 	H 	0.29200 0.76880 0.55730 0.04700
C 	C 	0.12910 0.74670 0.57210 -0.20100
H 	H 	0.07280 0.77010 0.55400 0.10200
C 	C 	0.10020 0.66610 0.64370 0.38200
O 	O 	0.38380 0.37700 0.67220 -0.40400
O 	O 	0.35410 0.53360 0.67050 -0.40900
N 	N 	0.06410 0.43480 0.34000 -0.21500
N 	N 	0.10010 0.31240 0.41350 -0.20300
H 	H 	0.10200 0.24700 0.42870 0.11500
C 	C 	0.05280 0.32590 0.34480 0.12200
H 	H 	0.01580 0.26500 0.30430 -0.00900
C 	C 	0.12250 0.49410 0.41090 -0.03400
H 	H 	0.14290 0.57450 0.42510 0.04300
C 	C 	0.14560 0.41980 0.45670 0.06600
C 	C 	0.21310 0.44860 0.53250 -0.00600
H 	H 	0.23120 0.52320 0.55730 0.04700
C 	C 	0.25330 0.38240 0.57210 -0.20100
H 	H 	0.22990 0.30270 0.55400 0.10200
C 	C 	0.33390 0.43410 0.64370 0.38200
O 	O 	0.99320 0.37700 0.82780 -0.40300
O 	O 	0.17950 0.53360 0.82950 -0.40800
N 	N 	0.37070 0.43480 0.16000 -0.21500
N 	N 	0.21230 0.31240 0.08650 -0.20300
H 	H 	0.14500 0.24700 0.07130 0.11500
C 	C 	0.27310 0.32590 0.15520 0.12200
H 	H 	0.24920 0.26500 0.19570 -0.00900
C 	C 	0.37160 0.49410 0.08910 -0.03400
H 	H 	0.43160 0.57450 0.07490 0.04300
C 	C 	0.27420 0.41980 0.04330 0.06700
C 	C 	0.23550 0.44860 0.96750 -0.00700
H 	H 	0.29200 0.52320 0.94270 0.04700
C 	C 	0.12910 0.38240 0.92790 -0.20100
H 	H 	0.07280 0.30270 0.94600 0.10200
C 	C 	0.10020 0.43410 0.85630 0.38100
O 	O 	0.38380 0.00680 0.82780 -0.40300
O 	O 	0.35410 0.82050 0.82950 -0.40800
N 	N 	0.06410 0.62930 0.16000 -0.21500
N 	N 	0.10010 0.78770 0.08650 -0.20300
H 	H 	0.10200 0.85500 0.07130 0.11600
C 	C 	0.05280 0.72690 0.15520 0.12200
H 	H 	0.01580 0.75080 0.19570 -0.00900
C 	C 	0.12250 0.62840 0.08910 -0.03400
H 	H 	0.14290 0.56840 0.07490 0.04300
C 	C 	0.14560 0.72580 0.04330 0.06800
C 	C 	0.21310 0.76450 0.96750 -0.00800
H 	H 	0.23120 0.70800 0.94270 0.04800
C 	C 	0.25330 0.87090 0.92790 -0.20000
H 	H 	0.22990 0.92720 0.94600 0.10100
C 	C 	0.33390 0.89980 0.85630 0.38100
O 	O 	0.62300 0.61620 0.82780 -0.40400
O 	O 	0.46640 0.64590 0.82950 -0.40900
N 	N 	0.56520 0.93590 0.16000 -0.21500
N 	N 	0.68760 0.89990 0.08650 -0.20300
H 	H 	0.75300 0.89800 0.07130 0.11500
C 	C 	0.67410 0.94720 0.15520 0.12200
H 	H 	0.73500 0.98420 0.19570 -0.00900
C 	C 	0.50590 0.87750 0.08910 -0.03400
H 	H 	0.42550 0.85710 0.07490 0.04300
C 	C 	0.58020 0.85440 0.04330 0.06700
C 	C 	0.55140 0.78690 0.96750 -0.00700
H 	H 	0.47680 0.76880 0.94270 0.04700
C 	C 	0.61760 0.74670 0.92790 -0.20100
H 	H 	0.69730 0.77010 0.94600 0.10200
C 	C 	0.56590 0.66610 0.85630 0.38200
O 	O 	0.00680 0.62300 0.32780 -0.40400
O 	O 	0.82050 0.46640 0.32950 -0.40900
N 	N 	0.62930 0.56520 0.66000 -0.21500
N 	N 	0.78770 0.68760 0.58650 -0.20300
H 	H 	0.85500 0.75300 0.57130 0.11500
C 	C 	0.72690 0.67410 0.65520 0.12200
H 	H 	0.75080 0.73500 0.69570 -0.00900
C 	C 	0.62840 0.50590 0.58910 -0.03400
H 	H 	0.56840 0.42550 0.57490 0.04300
C 	C 	0.72580 0.58020 0.54330 0.06600
C 	C 	0.76450 0.55140 0.46750 -0.00600
H 	H 	0.70800 0.47680 0.44270 0.04700
C 	C 	0.87090 0.61760 0.42790 -0.20100
H 	H 	0.92720 0.69730 0.44600 0.10200
C 	C 	0.89980 0.56590 0.35630 0.38200
O 	O 	0.61620 0.99320 0.32780 -0.40400
O 	O 	0.64590 0.17950 0.32950 -0.40900
N 	N 	0.93590 0.37070 0.66000 -0.21500
N 	N 	0.89990 0.21230 0.58650 -0.20300
H 	H 	0.89800 0.14500 0.57130 0.11500
C 	C 	0.94720 0.27310 0.65520 0.12200
H 	H 	0.98420 0.24920 0.69570 -0.00900
C 	C 	0.87750 0.37160 0.58910 -0.03400
H 	H 	0.85710 0.43160 0.57490 0.04300
C 	C 	0.85440 0.27420 0.54330 0.06600
C 	C 	0.78690 0.23550 0.46750 -0.00600
H 	H 	0.76880 0.29200 0.44270 0.04700
C 	C 	0.74670 0.12910 0.42790 -0.20100
H 	H 	0.77010 0.07280 0.44600 0.10200
C 	C 	0.66610 0.10020 0.35630 0.38200
O 	O 	0.37700 0.38380 0.32780 -0.40400
O 	O 	0.53360 0.35410 0.32950 -0.40900
N 	N 	0.43480 0.06410 0.66000 -0.21500
N 	N 	0.31240 0.10010 0.58650 -0.20300
H 	H 	0.24700 0.10200 0.57130 0.11500
C 	C 	0.32590 0.05280 0.65520 0.12200
H 	H 	0.26500 0.01580 0.69570 -0.00900
C 	C 	0.49410 0.12250 0.58910 -0.03400
H 	H 	0.57450 0.14290 0.57490 0.04300
C 	C 	0.41980 0.14560 0.54330 0.06600
C 	C 	0.44860 0.21310 0.46750 -0.00600
H 	H 	0.52320 0.23120 0.44270 0.04700
C 	C 	0.38240 0.25330 0.42790 -0.20100
H 	H 	0.30270 0.22990 0.44600 0.10200
C 	C 	0.43410 0.33390 0.35630 0.38200
Cu	Cu	0.48886 0.97771 0.25000 0.90000
Cu	Cu	0.02229 0.51114 0.25000 0.90000
Cu	Cu	0.48886 0.51114 0.25000 0.90000
Cu	Cu	0.51114 0.02229 0.75000 0.90000
Cu	Cu	0.97771 0.48885 0.75000 0.90000
Cu	Cu	0.51114 0.48885 0.75000 0.90000
Cu	Cu	0.66667 0.33333 0.25000 0.91700
Cu	Cu	0.33333 0.66667 0.75000 0.91700
