data_crystal

_cell_length_a 7.99930
_cell_length_b 11.22410
_cell_length_c 16.23020
_cell_angle_alpha 90.00000
_cell_angle_beta  96.83600
_cell_angle_gamma 90.00000

_symmetry_space_group_name_	'P 1'
_symmetry_space_group_name_H-M	'P 1'

loop_
_symmetry_equiv_pos_as_xyz
  x,y,z

loop_
_atom_site_label
_atom_site_type_symbol
_atom_site_fract_x
_atom_site_fract_y
_atom_site_fract_z
_atom_site_charge
Ag	Ag	0.18565 0.29198 0.14133 0.38400
Ag	Ag	0.25617 0.13327 0.30738 0.32600
Ag	Ag	0.31635 0.38427 0.31839 0.32700
Ag	Ag	0.60485 0.21773 0.35607 0.37600
C 	C 	0.85320 0.26740 0.02040 0.05000
H 	H 	0.93250 0.27290 0.98300 -0.10700
C 	C 	0.79420 0.28040 0.15440 0.01400
H 	H 	0.82830 0.29660 0.21010 -0.10200
C 	C 	0.57970 0.23650 0.04320 0.01900
H 	H 	0.46910 0.21740 0.02330 -0.09600
C 	C 	0.62330 0.25500 0.12810 -0.18600
C 	C 	0.50170 0.24950 0.18490 0.01300
C 	C 	0.41160 0.24690 0.23930 -0.52100
N 	N 	0.90690 0.28150 0.10050 -0.25000
N 	N 	0.69540 0.24600 0.98990 -0.24800
Ag	Ag	0.18565 0.20802 0.64133 0.38400
Ag	Ag	0.25617 0.36673 0.80738 0.32700
Ag	Ag	0.31635 0.11573 0.81839 0.32700
Ag	Ag	0.60485 0.28227 0.85607 0.37600
C 	C 	0.85320 0.23260 0.52040 0.05000
H 	H 	0.93250 0.22710 0.48300 -0.10700
C 	C 	0.79420 0.21960 0.65440 0.01400
H 	H 	0.82830 0.20340 0.71010 -0.10100
C 	C 	0.57970 0.26350 0.54320 0.01800
H 	H 	0.46910 0.28260 0.52330 -0.09600
C 	C 	0.62330 0.24500 0.62810 -0.18600
C 	C 	0.50170 0.25050 0.68490 0.01300
C 	C 	0.41160 0.25310 0.73930 -0.52100
N 	N 	0.90690 0.21850 0.60050 -0.24900
N 	N 	0.69540 0.25400 0.48990 -0.24800
Ag	Ag	0.81435 0.79198 0.35867 0.38400
Ag	Ag	0.74383 0.63327 0.19262 0.32700
Ag	Ag	0.68365 0.88427 0.18161 0.32700
Ag	Ag	0.39515 0.71773 0.14393 0.37600
C 	C 	0.14680 0.76740 0.47960 0.05000
H 	H 	0.06750 0.77290 0.51700 -0.10700
C 	C 	0.20580 0.78040 0.34560 0.01400
H 	H 	0.17170 0.79660 0.28990 -0.10100
C 	C 	0.42030 0.73650 0.45680 0.01800
H 	H 	0.53090 0.71740 0.47670 -0.09600
C 	C 	0.37670 0.75500 0.37190 -0.18600
C 	C 	0.49830 0.74950 0.31510 0.01300
C 	C 	0.58840 0.74690 0.26070 -0.52100
N 	N 	0.09310 0.78150 0.39950 -0.24900
N 	N 	0.30460 0.74600 0.51010 -0.24800
Ag	Ag	0.81435 0.70802 0.85867 0.38400
Ag	Ag	0.74383 0.86673 0.69262 0.32600
Ag	Ag	0.68365 0.61573 0.68161 0.32700
Ag	Ag	0.39515 0.78227 0.64393 0.37600
C 	C 	0.14680 0.73260 0.97960 0.05000
H 	H 	0.06750 0.72710 0.01700 -0.10700
C 	C 	0.20580 0.71960 0.84560 0.01400
H 	H 	0.17170 0.70340 0.78990 -0.10200
C 	C 	0.42030 0.76350 0.95680 0.01900
H 	H 	0.53090 0.78260 0.97670 -0.09600
C 	C 	0.37670 0.74500 0.87190 -0.18600
C 	C 	0.49830 0.75050 0.81510 0.01300
C 	C 	0.58840 0.75310 0.76070 -0.52100
N 	N 	0.09310 0.71850 0.89950 -0.25000
N 	N 	0.30460 0.75400 0.01010 -0.24800
