data_crystal

_cell_length_a 8.06100
_cell_length_b 8.54970
_cell_length_c 19.74000
_cell_angle_alpha 88.25670
_cell_angle_beta  86.30000
_cell_angle_gamma 61.87330

_symmetry_space_group_name_	'P 1'
_symmetry_space_group_name_H-M	'P 1'

loop_
_symmetry_equiv_pos_as_xyz
  x,y,z

loop_
_atom_site_label
_atom_site_type_symbol
_atom_site_fract_x
_atom_site_fract_y
_atom_site_fract_z
_atom_site_charge
Nd	Nd	0.70784 0.07546 0.01188 2.18800
Nd	Nd	0.21670 0.07546 0.48812 2.17300
Nd	Nd	0.29216 0.92454 0.98812 2.18900
Nd	Nd	0.78330 0.92454 0.51188 2.17400
H 	H 	0.80700 0.28600 0.16200 0.15900
H 	H 	0.99500 0.24400 0.19900 0.16400
H 	H 	0.85200 0.54800 0.17500 -0.06500
H 	H 	0.03000 0.45800 0.12200 -0.05800
H 	H 	0.65400 0.55600 0.09100 0.14400
H 	H 	0.83300 0.46800 0.03800 0.14700
H 	H 	0.44400 0.44800 0.20900 0.13800
H 	H 	0.25500 0.46600 0.18000 0.15100
H 	H 	0.31700 0.19000 0.23300 -0.02000
H 	H 	0.90700 0.28600 0.33800 0.16300
H 	H 	0.76100 0.24400 0.30100 0.16700
H 	H 	0.60000 0.54800 0.32500 -0.06400
H 	H 	0.51200 0.45800 0.37800 -0.05500
H 	H 	0.79000 0.55600 0.40900 0.14400
H 	H 	0.69900 0.46800 0.46200 0.14600
H 	H 	0.10800 0.44800 0.29100 0.13600
H 	H 	0.27900 0.46600 0.32000 0.15100
H 	H 	0.49300 0.19000 0.26700 -0.01900
H 	H 	0.19300 0.71400 0.83800 0.15900
H 	H 	0.00500 0.75600 0.80100 0.16400
H 	H 	0.14800 0.45200 0.82500 -0.06500
H 	H 	0.97000 0.54200 0.87800 -0.05800
H 	H 	0.34600 0.44400 0.90900 0.14400
H 	H 	0.16700 0.53200 0.96200 0.14700
H 	H 	0.55600 0.55200 0.79100 0.13800
H 	H 	0.74500 0.53400 0.82000 0.15100
H 	H 	0.68300 0.81000 0.76700 -0.02000
H 	H 	0.09300 0.71400 0.66200 0.16300
H 	H 	0.23900 0.75600 0.69900 0.16700
H 	H 	0.40000 0.45200 0.67500 -0.06400
H 	H 	0.48800 0.54200 0.62200 -0.05500
H 	H 	0.21000 0.44400 0.59100 0.14400
H 	H 	0.30100 0.53200 0.53800 0.14600
H 	H 	0.89200 0.55200 0.70900 0.13600
H 	H 	0.72100 0.53400 0.68000 0.15100
H 	H 	0.50700 0.81000 0.73300 -0.01900
C 	C 	0.04690 0.14860 0.10190 0.50700
C 	C 	0.93130 0.28140 0.15530 -0.50200
C 	C 	0.90640 0.46820 0.13540 0.28000
C 	C 	0.77730 0.54860 0.07790 -0.49600
C 	C 	0.75220 0.72740 0.05730 0.52700
C 	C 	0.49650 0.27440 0.12980 0.42900
C 	C 	0.38340 0.38100 0.19210 -0.43200
C 	C 	0.80450 0.14860 0.39810 0.52700
C 	C 	0.78730 0.28140 0.34470 -0.51600
C 	C 	0.62540 0.46820 0.36460 0.27900
C 	C 	0.67410 0.54860 0.42210 -0.49500
C 	C 	0.52040 0.72740 0.44270 0.52600
C 	C 	0.22910 0.27440 0.37020 0.42800
C 	C 	0.23560 0.38100 0.30790 -0.43200
C 	C 	0.95310 0.85140 0.89810 0.50700
C 	C 	0.06870 0.71860 0.84470 -0.50200
C 	C 	0.09360 0.53180 0.86460 0.28000
C 	C 	0.22270 0.45140 0.92210 -0.49600
C 	C 	0.24780 0.27260 0.94270 0.52700
C 	C 	0.50350 0.72560 0.87020 0.42900
C 	C 	0.61660 0.61900 0.80790 -0.43200
C 	C 	0.19550 0.85140 0.60190 0.52700
C 	C 	0.21270 0.71860 0.65530 -0.51600
C 	C 	0.37460 0.53180 0.63540 0.27900
C 	C 	0.32590 0.45140 0.57790 -0.49500
C 	C 	0.47960 0.27260 0.55730 0.52600
C 	C 	0.77090 0.72560 0.62980 0.42800
C 	C 	0.76440 0.61900 0.69210 -0.43200
C 	C 	0.36690 0.26620 0.25000 0.21400
C 	C 	0.63310 0.73380 0.75000 0.21400
O 	O 	0.96840 0.08980 0.06210 -0.67100
O 	O 	0.78090 0.90160 0.90580 -0.52600
O 	O 	0.59500 0.83960 0.03400 -0.66600
O 	O 	0.88280 0.76720 0.06070 -0.51400
O 	O 	0.59910 0.11040 0.13280 -0.47500
O 	O 	0.49030 0.35480 0.07400 -0.51600
O 	O 	0.94180 0.08980 0.43790 -0.67500
O 	O 	0.31750 0.90160 0.59420 -0.52400
O 	O 	0.56540 0.83960 0.46600 -0.66600
O 	O 	0.35000 0.76720 0.43930 -0.51000
O 	O 	0.29050 0.11040 0.36720 -0.47600
O 	O 	0.15490 0.35480 0.42600 -0.51600
O 	O 	0.03160 0.91020 0.93790 -0.67100
O 	O 	0.21910 0.09840 0.09420 -0.52600
O 	O 	0.40500 0.16040 0.96600 -0.66600
O 	O 	0.11720 0.23280 0.93930 -0.51400
O 	O 	0.40090 0.88960 0.86720 -0.47500
O 	O 	0.50970 0.64520 0.92600 -0.51600
O 	O 	0.05820 0.91020 0.56210 -0.67500
O 	O 	0.68250 0.09840 0.40580 -0.52400
O 	O 	0.43460 0.16040 0.53400 -0.66600
O 	O 	0.65000 0.23280 0.56070 -0.51000
O 	O 	0.70950 0.88960 0.63280 -0.47600
O 	O 	0.84510 0.64520 0.57400 -0.51600
