data_crystal

_cell_length_a 14.61900
_cell_length_b 17.21100
_cell_length_c 21.21500
_cell_angle_alpha 90.00000
_cell_angle_beta  90.00000
_cell_angle_gamma 90.00000

_symmetry_space_group_name_	'P 1'
_symmetry_space_group_name_H-M	'P 1'

loop_
_symmetry_equiv_pos_as_xyz
  x,y,z

loop_
_atom_site_label
_atom_site_type_symbol
_atom_site_fract_x
_atom_site_fract_y
_atom_site_fract_z
_atom_site_charge
O 	O 	0.56690 0.58350 0.94740 -0.69500
O 	O 	0.64540 0.47130 0.87690 -0.69100
O 	O 	0.49390 0.44080 0.94770 -0.70000
O 	O 	0.65870 0.46760 0.00540 -0.75100
N 	N 	0.45530 0.73310 0.75520 -0.27900
O 	O 	0.53390 0.90750 0.68820 -0.54800
O 	O 	0.44390 0.81520 0.64710 -0.51300
O 	O 	0.70870 0.63530 0.85400 -0.56600
O 	O 	0.56980 0.62780 0.81150 -0.55700
C 	C 	0.49880 0.84260 0.68770 0.46000
C 	C 	0.52750 0.78990 0.74030 -0.19100
C 	C 	0.61890 0.75240 0.72300 0.13700
C 	C 	0.67950 0.72460 0.77580 -0.43400
C 	C 	0.64960 0.65390 0.81620 0.53900
N 	N 	0.97690 0.43420 0.83550 -0.27200
O 	O 	0.83670 0.47290 0.90720 -0.52700
O 	O 	0.77370 0.35520 0.90450 -0.54300
O 	O 	0.03660 0.19600 0.98050 -0.56000
O 	O 	0.96620 0.10410 0.92710 -0.57100
C 	C 	0.83540 0.40190 0.89390 0.46200
C 	C 	0.91690 0.36800 0.85660 -0.19000
C 	C 	0.97440 0.31190 0.89660 0.12100
C 	C 	0.92410 0.23370 0.90740 -0.46000
C 	C 	0.97960 0.17410 0.94090 0.54300
N 	N 	0.76910 0.80310 0.97400 -0.27500
O 	O 	0.87720 0.91280 0.09670 -0.52400
O 	O 	0.88610 0.92150 0.99160 -0.52000
O 	O 	0.57860 0.63260 0.07350 -0.54300
O 	O 	0.70280 0.65940 0.01650 -0.52800
C 	C 	0.85120 0.89690 0.04190 0.45200
C 	C 	0.76600 0.84700 0.03560 -0.18300
C 	C 	0.74700 0.79230 0.09100 0.12200
C 	C 	0.65290 0.75280 0.09280 -0.43300
C 	C 	0.64460 0.67560 0.05950 0.50200
H 	H 	0.55190 0.64010 0.94930 0.17600
H 	H 	0.67840 0.45930 0.83680 0.15800
H 	H 	0.43580 0.41030 0.94930 0.16300
H 	H 	0.69860 0.45390 0.04210 0.11900
H 	H 	0.47810 0.69620 0.78170 0.12100
H 	H 	0.43560 0.71010 0.71910 0.10400
H 	H 	0.40770 0.75780 0.77420 0.09300
H 	H 	0.53760 0.82270 0.77860 0.06800
H 	H 	0.60600 0.70750 0.69520 -0.03000
H 	H 	0.65410 0.79050 0.69780 -0.03600
H 	H 	0.68880 0.76890 0.80490 0.13300
H 	H 	0.73990 0.71210 0.75740 0.13000
H 	H 	0.02750 0.41500 0.81600 0.09200
H 	H 	0.99420 0.46280 0.86950 0.10000
H 	H 	0.94540 0.46490 0.80810 0.08800
H 	H 	0.89330 0.33980 0.81880 0.06600
H 	H 	0.98770 0.33630 0.93790 -0.02500
H 	H 	0.03340 0.30200 0.87520 -0.02400
H 	H 	0.86780 0.24370 0.93200 0.13900
H 	H 	0.90540 0.21250 0.86590 0.14300
H 	H 	0.72150 0.76910 0.97220 0.11100
H 	H 	0.82270 0.77660 0.97120 0.09600
H 	H 	0.76490 0.83730 0.94140 0.09800
H 	H 	0.71280 0.88340 0.03300 0.06200
H 	H 	0.75460 0.82220 0.13050 -0.02500
H 	H 	0.79440 0.75120 0.09080 -0.02000
H 	H 	0.63570 0.74520 0.13750 0.13100
H 	H 	0.60780 0.78890 0.07400 0.13100
Er	Er	0.72490 0.56070 0.94260 1.56500
Er	Er	0.62670 0.36070 0.94370 1.56500
Er	Er	0.50140 0.52290 0.86110 1.63000
Er	Er	0.51750 0.51560 0.03790 1.57900
O 	O 	0.93310 0.41650 0.44740 -0.69400
O 	O 	0.85460 0.52870 0.37690 -0.69000
O 	O 	0.00610 0.55920 0.44770 -0.69800
O 	O 	0.84130 0.53240 0.50540 -0.75200
N 	N 	0.04470 0.26690 0.25520 -0.27700
O 	O 	0.96610 0.09250 0.18820 -0.55100
O 	O 	0.05610 0.18480 0.14710 -0.51300
O 	O 	0.79130 0.36470 0.35400 -0.56700
O 	O 	0.93020 0.37220 0.31150 -0.55700
C 	C 	0.00120 0.15740 0.18770 0.46300
C 	C 	0.97250 0.21010 0.24030 -0.19300
C 	C 	0.88110 0.24760 0.22300 0.13800
C 	C 	0.82050 0.27540 0.27580 -0.43500
C 	C 	0.85040 0.34610 0.31620 0.54000
N 	N 	0.52310 0.56580 0.33550 -0.26900
O 	O 	0.66330 0.52710 0.40720 -0.52700
O 	O 	0.72630 0.64480 0.40450 -0.54400
O 	O 	0.46340 0.80400 0.48050 -0.56500
O 	O 	0.53380 0.89590 0.42710 -0.56600
C 	C 	0.66460 0.59810 0.39390 0.46300
C 	C 	0.58310 0.63200 0.35660 -0.19400
C 	C 	0.52560 0.68810 0.39660 0.13300
C 	C 	0.57590 0.76630 0.40740 -0.46700
C 	C 	0.52040 0.82590 0.44090 0.55100
N 	N 	0.73090 0.19690 0.47400 -0.27500
O 	O 	0.62280 0.08720 0.59670 -0.52500
O 	O 	0.61390 0.07850 0.49160 -0.51700
O 	O 	0.92140 0.36740 0.57350 -0.54400
O 	O 	0.79720 0.34060 0.51650 -0.52900
C 	C 	0.64880 0.10310 0.54190 0.44900
C 	C 	0.73400 0.15300 0.53560 -0.18300
C 	C 	0.75300 0.20770 0.59100 0.12200
C 	C 	0.84710 0.24720 0.59280 -0.43300
C 	C 	0.85540 0.32440 0.55950 0.50200
H 	H 	0.94810 0.35990 0.44930 0.17500
H 	H 	0.82160 0.54070 0.33680 0.15800
H 	H 	0.06420 0.58970 0.44930 0.16400
H 	H 	0.80140 0.54610 0.54210 0.11800
H 	H 	0.02190 0.30380 0.28170 0.12200
H 	H 	0.06440 0.28990 0.21910 0.10400
H 	H 	0.09230 0.24220 0.27420 0.09300
H 	H 	0.96240 0.17730 0.27860 0.06800
H 	H 	0.89400 0.29250 0.19520 -0.03000
H 	H 	0.84590 0.20950 0.19780 -0.03600
H 	H 	0.81120 0.23110 0.30490 0.13300
H 	H 	0.76010 0.28790 0.25740 0.13000
H 	H 	0.47250 0.58500 0.31600 0.08900
H 	H 	0.50580 0.53720 0.36950 0.10000
H 	H 	0.55460 0.53510 0.30810 0.08800
H 	H 	0.60670 0.66020 0.31880 0.06800
H 	H 	0.51230 0.66370 0.43790 -0.02700
H 	H 	0.46660 0.69800 0.37520 -0.03100
H 	H 	0.63220 0.75630 0.43200 0.14200
H 	H 	0.59460 0.78750 0.36590 0.14600
H 	H 	0.77850 0.23090 0.47220 0.11100
H 	H 	0.67730 0.22340 0.47120 0.09700
H 	H 	0.73510 0.16270 0.44140 0.09800
H 	H 	0.78720 0.11660 0.53300 0.06100
H 	H 	0.74540 0.17780 0.63050 -0.02500
H 	H 	0.70560 0.24880 0.59080 -0.02000
H 	H 	0.86430 0.25480 0.63750 0.13100
H 	H 	0.89220 0.21110 0.57400 0.13000
Er	Er	0.77510 0.43930 0.44260 1.56800
Er	Er	0.87330 0.63930 0.44370 1.56900
Er	Er	0.99860 0.47710 0.36110 1.63000
Er	Er	0.98250 0.48440 0.53790 1.57500
O 	O 	0.43310 0.08350 0.55260 -0.69300
O 	O 	0.35460 0.97130 0.62310 -0.68800
O 	O 	0.50610 0.94080 0.55230 -0.69700
O 	O 	0.34130 0.96760 0.49460 -0.75000
N 	N 	0.54470 0.23310 0.74480 -0.27700
O 	O 	0.46610 0.40750 0.81180 -0.54900
O 	O 	0.55610 0.31520 0.85290 -0.51200
O 	O 	0.29130 0.13530 0.64600 -0.56600
O 	O 	0.43020 0.12780 0.68850 -0.55700
C 	C 	0.50120 0.34260 0.81230 0.46000
C 	C 	0.47250 0.28990 0.75970 -0.19100
C 	C 	0.38110 0.25240 0.77700 0.13800
C 	C 	0.32050 0.22460 0.72420 -0.43400
C 	C 	0.35040 0.15390 0.68380 0.53900
N 	N 	0.02310 0.93420 0.66450 -0.26900
O 	O 	0.16330 0.97290 0.59280 -0.52500
O 	O 	0.22630 0.85520 0.59550 -0.54400
O 	O 	0.96340 0.69600 0.51950 -0.56600
O 	O 	0.03380 0.60410 0.57290 -0.56700
C 	C 	0.16460 0.90190 0.60610 0.46300
C 	C 	0.08310 0.86800 0.64340 -0.19400
C 	C 	0.02560 0.81190 0.60340 0.13400
C 	C 	0.07590 0.73370 0.59260 -0.46800
C 	C 	0.02040 0.67410 0.55910 0.55300
N 	N 	0.23090 0.30310 0.52600 -0.27500
O 	O 	0.12280 0.41280 0.40330 -0.52400
O 	O 	0.11390 0.42150 0.50840 -0.51600
O 	O 	0.42140 0.13260 0.42650 -0.54300
O 	O 	0.29720 0.15940 0.48350 -0.52900
C 	C 	0.14880 0.39690 0.45810 0.44900
C 	C 	0.23400 0.34700 0.46440 -0.18200
C 	C 	0.25300 0.29230 0.40900 0.12200
C 	C 	0.34710 0.25280 0.40720 -0.43300
C 	C 	0.35540 0.17560 0.44050 0.50200
H 	H 	0.44810 0.14010 0.55070 0.17600
H 	H 	0.32160 0.95930 0.66320 0.15800
H 	H 	0.56420 0.91030 0.55070 0.16400
H 	H 	0.30140 0.95390 0.45790 0.11900
H 	H 	0.52190 0.19620 0.71830 0.12100
H 	H 	0.56440 0.21010 0.78090 0.10400
H 	H 	0.59230 0.25780 0.72580 0.09300
H 	H 	0.46240 0.32270 0.72140 0.06800
H 	H 	0.39400 0.20750 0.80480 -0.03000
H 	H 	0.34590 0.29050 0.80220 -0.03600
H 	H 	0.31120 0.26890 0.69510 0.13300
H 	H 	0.26010 0.21210 0.74260 0.13000
H 	H 	0.97250 0.91500 0.68400 0.08900
H 	H 	0.00580 0.96280 0.63050 0.10100
H 	H 	0.05460 0.96490 0.69190 0.08900
H 	H 	0.10670 0.83980 0.68120 0.06800
H 	H 	0.01230 0.83630 0.56210 -0.02700
H 	H 	0.96660 0.80200 0.62480 -0.03100
H 	H 	0.13220 0.74370 0.56800 0.14300
H 	H 	0.09460 0.71250 0.63410 0.14600
H 	H 	0.27850 0.26910 0.52780 0.11200
H 	H 	0.17730 0.27660 0.52880 0.09700
H 	H 	0.23510 0.33730 0.55860 0.09800
H 	H 	0.28720 0.38340 0.46700 0.06200
H 	H 	0.24540 0.32220 0.36950 -0.02500
H 	H 	0.20560 0.25120 0.40920 -0.02000
H 	H 	0.36430 0.24520 0.36250 0.13100
H 	H 	0.39220 0.28890 0.42600 0.13000
Er	Er	0.27510 0.06070 0.55740 1.56600
Er	Er	0.37330 0.86070 0.55630 1.56900
Er	Er	0.49860 0.02290 0.63890 1.62500
Er	Er	0.48250 0.01560 0.46210 1.57500
O 	O 	0.06690 0.91650 0.05260 -0.69600
O 	O 	0.14540 0.02870 0.12310 -0.69000
O 	O 	0.99390 0.05920 0.05230 -0.70100
O 	O 	0.15870 0.03240 0.99460 -0.75400
N 	N 	0.95530 0.76690 0.24480 -0.27700
O 	O 	0.03390 0.59250 0.31180 -0.55000
O 	O 	0.94390 0.68480 0.35290 -0.51300
O 	O 	0.20870 0.86470 0.14600 -0.56600
O 	O 	0.06980 0.87220 0.18850 -0.55700
C 	C 	0.99880 0.65740 0.31230 0.46200
C 	C 	0.02750 0.71010 0.25970 -0.19200
C 	C 	0.11890 0.74760 0.27700 0.13800
C 	C 	0.17950 0.77540 0.22420 -0.43500
C 	C 	0.14960 0.84610 0.18380 0.54000
N 	N 	0.47690 0.06580 0.16450 -0.26900
O 	O 	0.33670 0.02710 0.09280 -0.52600
O 	O 	0.27370 0.14480 0.09550 -0.54400
O 	O 	0.53660 0.30400 0.01950 -0.56500
O 	O 	0.46620 0.39590 0.07290 -0.56800
C 	C 	0.33540 0.09810 0.10610 0.46300
C 	C 	0.41690 0.13200 0.14340 -0.19300
C 	C 	0.47440 0.18810 0.10340 0.13300
C 	C 	0.42410 0.26630 0.09260 -0.46700
C 	C 	0.47960 0.32590 0.05910 0.55100
N 	N 	0.26910 0.69690 0.02600 -0.27500
O 	O 	0.37720 0.58720 0.90330 -0.52500
O 	O 	0.38610 0.57850 0.00840 -0.51800
O 	O 	0.07860 0.86740 0.92650 -0.54400
O 	O 	0.20280 0.84060 0.98350 -0.52800
C 	C 	0.35120 0.60310 0.95810 0.45000
C 	C 	0.26600 0.65300 0.96440 -0.18200
C 	C 	0.24700 0.70770 0.90900 0.12300
C 	C 	0.15290 0.74720 0.90720 -0.43400
C 	C 	0.14460 0.82440 0.94050 0.50300
H 	H 	0.05190 0.85990 0.05070 0.17500
H 	H 	0.17840 0.04070 0.16320 0.15800
H 	H 	0.93580 0.08970 0.05070 0.16400
H 	H 	0.19860 0.04610 0.95790 0.11800
H 	H 	0.97810 0.80380 0.21830 0.12200
H 	H 	0.93560 0.78990 0.28090 0.10500
H 	H 	0.90770 0.74220 0.22580 0.09300
H 	H 	0.03760 0.67730 0.22140 0.06800
H 	H 	0.10600 0.79250 0.30480 -0.03000
H 	H 	0.15410 0.70950 0.30220 -0.03600
H 	H 	0.18880 0.73110 0.19510 0.13300
H 	H 	0.23990 0.78790 0.24260 0.13000
H 	H 	0.52750 0.08500 0.18400 0.08800
H 	H 	0.49420 0.03720 0.13050 0.10000
H 	H 	0.44540 0.03510 0.19190 0.08800
H 	H 	0.39330 0.16020 0.18120 0.06800
H 	H 	0.48770 0.16370 0.06210 -0.02700
H 	H 	0.53340 0.19800 0.12480 -0.03100
H 	H 	0.36780 0.25630 0.06800 0.14200
H 	H 	0.40540 0.28750 0.13410 0.14500
H 	H 	0.22150 0.73090 0.02780 0.11100
H 	H 	0.32270 0.72340 0.02880 0.09700
H 	H 	0.26490 0.66270 0.05860 0.09800
H 	H 	0.21280 0.61660 0.96700 0.06200
H 	H 	0.25460 0.67780 0.86950 -0.02500
H 	H 	0.29440 0.74880 0.90920 -0.02000
H 	H 	0.13570 0.75480 0.86250 0.13200
H 	H 	0.10780 0.71110 0.92600 0.13100
Er	Er	0.22490 0.93930 0.05740 1.56800
Er	Er	0.12670 0.13930 0.05630 1.56800
Er	Er	0.00140 0.97710 0.13890 1.63000
Er	Er	0.01750 0.98440 0.96210 1.59200
