data_crystal

_cell_length_a 17.11610
_cell_length_b 38.68620
_cell_length_c 25.64670
_cell_angle_alpha 90.00000
_cell_angle_beta  101.44100
_cell_angle_gamma 90.00000

_symmetry_space_group_name_	'P 1'
_symmetry_space_group_name_H-M	'P 1'

loop_
_symmetry_equiv_pos_as_xyz
  x,y,z

loop_
_atom_site_label
_atom_site_type_symbol
_atom_site_fract_x
_atom_site_fract_y
_atom_site_fract_z
_atom_site_charge
Cu	Cu	0.94020 0.26600 0.20506 0.90600
Cu	Cu	0.07217 0.25232 0.27420 0.90600
Cu	Cu	0.00609 0.96601 0.49967 0.90500
O 	O 	0.11504 0.97656 0.49088 -0.41300
O 	O 	0.88430 0.78903 0.26432 -0.41700
O 	O 	0.99500 0.79992 0.32421 -0.40900
O 	O 	0.89470 0.23100 0.24423 -0.41200
O 	O 	0.00880 0.21751 0.30243 -0.39200
O 	O 	0.03870 0.97130 0.57630 -0.41900
O 	O 	0.97900 0.22885 0.16429 -0.41100
O 	O 	0.09170 0.21834 0.22207 -0.41300
O 	O 	0.07790 0.80083 0.24328 -0.40500
O 	O 	0.96740 0.78817 0.18361 -0.41000
C 	C 	0.14140 0.00664 0.48752 0.37300
C 	C 	0.22390 0.00967 0.47529 -0.11800
C 	C 	0.25630 0.04156 0.46990 0.05300
H 	H 	0.22820 0.06170 0.47510 0.02800
C 	C 	0.33250 0.04374 0.45660 -0.13000
H 	H 	0.35510 0.06550 0.45250 0.07700
C 	C 	0.37310 0.01427 0.44960 0.08300
C 	C 	0.34080 0.98260 0.45630 -0.12800
H 	H 	0.36990 0.96240 0.45260 0.07800
C 	C 	0.26490 0.97993 0.46880 0.05500
H 	H 	0.24240 0.95810 0.47270 0.02900
C 	C 	0.45050 0.01649 0.43520 -0.02200
C 	C 	0.51670 0.01629 0.42240 -0.05000
C 	C 	0.59120 0.01511 0.40848 0.12400
C 	C 	0.62670 0.98374 0.40344 -0.17300
H 	H 	0.60120 0.96320 0.41010 0.09600
C 	C 	0.70170 0.98250 0.38819 0.11500
C 	C 	0.74010 0.01274 0.37970 -0.17500
H 	H 	0.79110 0.01190 0.37120 0.10400
C 	C 	0.70370 0.04402 0.38360 0.12200
C 	C 	0.62880 0.04535 0.39817 -0.17700
H 	H 	0.60410 0.06680 0.40090 0.09600
C 	C 	0.73910 0.94935 0.38190 -0.03200
C 	C 	0.77100 0.92336 0.37240 -0.02800
C 	C 	0.80800 0.89286 0.35940 0.09500
C 	C 	0.76590 0.87078 0.32100 -0.14100
H 	H 	0.71160 0.87470 0.30700 0.08200
C 	C 	0.80530 0.84279 0.30380 0.06700
H 	H 	0.77740 0.82840 0.27680 0.02400
C 	C 	0.88250 0.83564 0.32460 -0.13100
C 	C 	0.92250 0.85646 0.36350 0.07000
H 	H 	0.97560 0.85140 0.37940 0.02200
C 	C 	0.88550 0.88521 0.37990 -0.14500
H 	H 	0.91480 0.89980 0.40590 0.08500
C 	C 	0.92320 0.80515 0.30280 0.37700
C 	C 	0.74270 0.07495 0.37150 -0.04500
C 	C 	0.77570 0.09952 0.35960 -0.01600
C 	C 	0.81600 0.12943 0.34290 0.06900
C 	C 	0.89670 0.13352 0.35820 -0.11700
H 	H 	0.92610 0.11710 0.38110 0.07400
C 	C 	0.93650 0.16144 0.34070 0.03700
H 	H 	0.99180 0.16420 0.35230 0.03400
C 	C 	0.89240 0.18521 0.30570 -0.10000
C 	C 	0.81160 0.18177 0.28990 0.03300
H 	H 	0.78270 0.19770 0.26590 0.03500
C 	C 	0.77090 0.15383 0.30990 -0.11200
H 	H 	0.71510 0.15200 0.30100 0.07200
C 	C 	0.93340 0.21407 0.28170 0.34400
C 	C 	0.04250 0.00012 0.59874 0.37200
C 	C 	0.06230 0.99975 0.65900 -0.12800
C 	C 	0.07220 0.96915 0.68710 0.06300
H 	H 	0.06950 0.94810 0.66860 0.02400
C 	C 	0.08590 0.96900 0.74160 -0.13600
H 	H 	0.09280 0.94780 0.75990 0.08200
C 	C 	0.08970 0.99975 0.77010 0.08700
C 	C 	0.08590 0.03011 0.74250 -0.13500
H 	H 	0.09320 0.05110 0.76120 0.08300
C 	C 	0.07130 0.03042 0.68690 0.06000
H 	H 	0.06760 0.05160 0.66860 0.02700
C 	C 	0.09850 0.00008 0.82690 -0.02400
C 	C 	0.10300 0.00073 0.87320 -0.04300
C 	C 	0.10440 0.00226 0.93040 0.12200
C 	C 	0.10260 0.03386 0.95470 -0.18500
H 	H 	0.10130 0.05430 0.93480 0.10000
C 	C 	0.10280 0.03539 0.00840 0.12800
C 	C 	0.10440 0.00551 0.03710 -0.18300
H 	H 	0.10460 0.00670 0.07380 0.10100
C 	C 	0.10580 0.97360 0.01300 0.12500
C 	C 	0.10390 0.97178 0.95950 -0.18300
H 	H 	0.10230 0.95020 0.94240 0.09900
C 	C 	0.10030 0.06868 0.03420 -0.04400
C 	C 	0.09290 0.09545 0.05710 -0.02900
C 	C 	0.08270 0.12562 0.08570 0.09000
C 	C 	0.01840 0.14644 0.07010 -0.14100
H 	H 	0.98220 0.14130 0.03840 0.08100
C 	C 	0.00440 0.17506 0.09950 0.07200
H 	H 	0.95890 0.18880 0.08830 0.02100
C 	C 	0.05830 0.18299 0.14530 -0.13600
C 	C 	0.12490 0.16354 0.16130 0.06500
H 	H 	0.16270 0.16990 0.19160 0.02400
C 	C 	0.13690 0.13391 0.13220 -0.13600
H 	H 	0.18140 0.11970 0.14410 0.08100
C 	C 	0.04270 0.21216 0.17980 0.37800
C 	C 	0.10080 0.94204 0.04410 -0.04200
C 	C 	0.09020 0.91753 0.06870 -0.02500
C 	C 	0.07740 0.88846 0.10000 0.08400
C 	C 	0.01110 0.86871 0.08530 -0.13700
H 	H 	0.97480 0.87370 0.05360 0.08000
C 	C 	0.99660 0.84085 0.11740 0.05900
H 	H 	0.95110 0.82700 0.10670 0.02700
C 	C 	0.04850 0.83392 0.16410 -0.12700
C 	C 	0.11460 0.85290 0.17880 0.05600
H 	H 	0.15020 0.84750 0.21060 0.02800
C 	C 	0.13200 0.88122 0.14690 -0.12900
H 	H 	0.17860 0.89450 0.15720 0.07900
C 	C 	0.03040 0.80502 0.19890 0.36500
O 	O 	0.10507 0.03418 0.49134 -0.41200
O 	O 	0.02957 0.02915 0.57670 -0.41700
Cu	Cu	0.05980 0.76600 0.29494 0.90500
Cu	Cu	0.92783 0.75232 0.22580 0.90500
Cu	Cu	0.99391 0.46601 0.00033 0.90500
O 	O 	0.88496 0.47656 0.00912 -0.41300
O 	O 	0.11570 0.28903 0.23568 -0.41700
O 	O 	0.00500 0.29992 0.17579 -0.40900
O 	O 	0.10530 0.73100 0.25577 -0.41300
O 	O 	0.99120 0.71751 0.19757 -0.39300
O 	O 	0.96130 0.47130 0.92370 -0.41800
O 	O 	0.02100 0.72885 0.33571 -0.41000
O 	O 	0.90830 0.71834 0.27793 -0.41300
O 	O 	0.92210 0.30083 0.25672 -0.40500
O 	O 	0.03260 0.28817 0.31639 -0.40900
C 	C 	0.85860 0.50664 0.01248 0.37300
C 	C 	0.77610 0.50967 0.02471 -0.11900
C 	C 	0.74370 0.54156 0.03010 0.05300
H 	H 	0.77180 0.56170 0.02490 0.02800
C 	C 	0.66750 0.54374 0.04340 -0.13000
H 	H 	0.64490 0.56550 0.04750 0.07700
C 	C 	0.62690 0.51427 0.05040 0.08300
C 	C 	0.65920 0.48260 0.04370 -0.12800
H 	H 	0.63010 0.46240 0.04740 0.07800
C 	C 	0.73510 0.47993 0.03120 0.05500
H 	H 	0.75760 0.45810 0.02730 0.02900
C 	C 	0.54950 0.51649 0.06480 -0.02200
C 	C 	0.48330 0.51629 0.07760 -0.04900
C 	C 	0.40880 0.51511 0.09152 0.12400
C 	C 	0.37330 0.48374 0.09656 -0.17300
H 	H 	0.39880 0.46320 0.08990 0.09600
C 	C 	0.29830 0.48250 0.11181 0.11500
C 	C 	0.25990 0.51274 0.12030 -0.17400
H 	H 	0.20890 0.51190 0.12880 0.10400
C 	C 	0.29630 0.54402 0.11640 0.12200
C 	C 	0.37120 0.54535 0.10183 -0.17700
H 	H 	0.39590 0.56680 0.09910 0.09600
C 	C 	0.26090 0.44935 0.11810 -0.03200
C 	C 	0.22900 0.42336 0.12760 -0.02800
C 	C 	0.19200 0.39286 0.14060 0.09500
C 	C 	0.23410 0.37078 0.17900 -0.14100
H 	H 	0.28840 0.37470 0.19300 0.08200
C 	C 	0.19470 0.34279 0.19620 0.06700
H 	H 	0.22260 0.32840 0.22320 0.02400
C 	C 	0.11750 0.33564 0.17540 -0.13100
C 	C 	0.07750 0.35646 0.13650 0.07000
H 	H 	0.02440 0.35140 0.12060 0.02200
C 	C 	0.11450 0.38521 0.12010 -0.14500
H 	H 	0.08520 0.39980 0.09410 0.08500
C 	C 	0.07680 0.30515 0.19720 0.37700
C 	C 	0.25730 0.57495 0.12850 -0.04500
C 	C 	0.22430 0.59952 0.14040 -0.01600
C 	C 	0.18400 0.62943 0.15710 0.06900
C 	C 	0.10330 0.63352 0.14180 -0.11700
H 	H 	0.07390 0.61710 0.11890 0.07400
C 	C 	0.06350 0.66144 0.15930 0.03800
H 	H 	0.00820 0.66420 0.14770 0.03400
C 	C 	0.10760 0.68521 0.19430 -0.10000
C 	C 	0.18840 0.68177 0.21010 0.03400
H 	H 	0.21730 0.69770 0.23410 0.03500
C 	C 	0.22910 0.65383 0.19010 -0.11200
H 	H 	0.28490 0.65200 0.19900 0.07200
C 	C 	0.06660 0.71407 0.21830 0.34500
C 	C 	0.95750 0.50012 0.90126 0.37200
C 	C 	0.93770 0.49975 0.84100 -0.12800
C 	C 	0.92780 0.46915 0.81290 0.06300
H 	H 	0.93050 0.44810 0.83140 0.02400
C 	C 	0.91410 0.46900 0.75840 -0.13600
H 	H 	0.90720 0.44780 0.74010 0.08200
C 	C 	0.91030 0.49975 0.72990 0.08700
C 	C 	0.91410 0.53011 0.75750 -0.13500
H 	H 	0.90680 0.55110 0.73880 0.08300
C 	C 	0.92870 0.53042 0.81310 0.06000
H 	H 	0.93240 0.55160 0.83140 0.02700
C 	C 	0.90150 0.50008 0.67310 -0.02400
C 	C 	0.89700 0.50073 0.62680 -0.04200
C 	C 	0.89560 0.50226 0.56960 0.12000
C 	C 	0.89740 0.53386 0.54530 -0.18300
H 	H 	0.89870 0.55430 0.56520 0.10000
C 	C 	0.89720 0.53539 0.49160 0.12500
C 	C 	0.89560 0.50551 0.46290 -0.18100
H 	H 	0.89540 0.50670 0.42620 0.10000
C 	C 	0.89420 0.47360 0.48700 0.12300
C 	C 	0.89610 0.47178 0.54050 -0.18000
H 	H 	0.89770 0.45020 0.55760 0.09800
C 	C 	0.89970 0.56868 0.46580 -0.04300
C 	C 	0.90710 0.59545 0.44290 -0.03000
C 	C 	0.91730 0.62562 0.41430 0.09100
C 	C 	0.98160 0.64644 0.42990 -0.14300
H 	H 	0.01780 0.64130 0.46160 0.08200
C 	C 	0.99560 0.67506 0.40050 0.07100
H 	H 	0.04110 0.68880 0.41170 0.02200
C 	C 	0.94170 0.68299 0.35470 -0.13600
C 	C 	0.87510 0.66354 0.33870 0.06500
H 	H 	0.83730 0.66990 0.30840 0.02400
C 	C 	0.86310 0.63391 0.36780 -0.13600
H 	H 	0.81860 0.61970 0.35590 0.08100
C 	C 	0.95730 0.71216 0.32020 0.37700
C 	C 	0.89920 0.44204 0.45590 -0.04000
C 	C 	0.90980 0.41753 0.43130 -0.02700
C 	C 	0.92260 0.38846 0.40000 0.08700
C 	C 	0.98890 0.36871 0.41470 -0.14200
H 	H 	0.02520 0.37370 0.44640 0.08200
C 	C 	0.00340 0.34085 0.38260 0.06400
H 	H 	0.04890 0.32700 0.39330 0.02500
C 	C 	0.95150 0.33392 0.33590 -0.13000
C 	C 	0.88540 0.35290 0.32120 0.05900
H 	H 	0.84980 0.34750 0.28940 0.02700
C 	C 	0.86800 0.38122 0.35310 -0.13100
H 	H 	0.82140 0.39450 0.34280 0.07900
C 	C 	0.96960 0.30502 0.30110 0.36500
O 	O 	0.89493 0.53418 0.00866 -0.41200
O 	O 	0.97043 0.52915 0.92330 -0.41700
Cu	Cu	0.05980 0.73400 0.79494 0.90500
Cu	Cu	0.92783 0.74768 0.72580 0.90500
Cu	Cu	0.99391 0.03399 0.50033 0.90500
O 	O 	0.88496 0.02344 0.50912 -0.41300
O 	O 	0.11570 0.21097 0.73568 -0.41700
O 	O 	0.00500 0.20008 0.67579 -0.40900
O 	O 	0.10530 0.76900 0.75577 -0.41200
O 	O 	0.99120 0.78249 0.69757 -0.39200
O 	O 	0.96130 0.02870 0.42370 -0.41900
O 	O 	0.02100 0.77115 0.83571 -0.41100
O 	O 	0.90830 0.78166 0.77793 -0.41300
O 	O 	0.92210 0.19917 0.75672 -0.40500
O 	O 	0.03260 0.21183 0.81639 -0.41000
C 	C 	0.85860 0.99336 0.51248 0.37300
C 	C 	0.77610 0.99033 0.52471 -0.11800
C 	C 	0.74370 0.95844 0.53010 0.05300
H 	H 	0.77180 0.93830 0.52490 0.02800
C 	C 	0.66750 0.95626 0.54340 -0.13000
H 	H 	0.64490 0.93450 0.54750 0.07700
C 	C 	0.62690 0.98573 0.55040 0.08300
C 	C 	0.65920 0.01740 0.54370 -0.12800
H 	H 	0.63010 0.03760 0.54740 0.07800
C 	C 	0.73510 0.02007 0.53120 0.05500
H 	H 	0.75760 0.04190 0.52730 0.02900
C 	C 	0.54950 0.98351 0.56480 -0.02200
C 	C 	0.48330 0.98371 0.57760 -0.05000
C 	C 	0.40880 0.98489 0.59152 0.12400
C 	C 	0.37330 0.01626 0.59656 -0.17300
H 	H 	0.39880 0.03680 0.58990 0.09600
C 	C 	0.29830 0.01750 0.61181 0.11500
C 	C 	0.25990 0.98726 0.62030 -0.17500
H 	H 	0.20890 0.98810 0.62880 0.10400
C 	C 	0.29630 0.95598 0.61640 0.12200
C 	C 	0.37120 0.95465 0.60183 -0.17700
H 	H 	0.39590 0.93320 0.59910 0.09600
C 	C 	0.26090 0.05065 0.61810 -0.03200
C 	C 	0.22900 0.07664 0.62760 -0.02800
C 	C 	0.19200 0.10714 0.64060 0.09500
C 	C 	0.23410 0.12922 0.67900 -0.14100
H 	H 	0.28840 0.12530 0.69300 0.08200
C 	C 	0.19470 0.15721 0.69620 0.06700
H 	H 	0.22260 0.17160 0.72320 0.02400
C 	C 	0.11750 0.16436 0.67540 -0.13100
C 	C 	0.07750 0.14354 0.63650 0.07000
H 	H 	0.02440 0.14860 0.62060 0.02200
C 	C 	0.11450 0.11479 0.62010 -0.14500
H 	H 	0.08520 0.10020 0.59410 0.08500
C 	C 	0.07680 0.19485 0.69720 0.37700
C 	C 	0.25730 0.92505 0.62850 -0.04500
C 	C 	0.22430 0.90048 0.64040 -0.01600
C 	C 	0.18400 0.87057 0.65710 0.06900
C 	C 	0.10330 0.86648 0.64180 -0.11700
H 	H 	0.07390 0.88290 0.61890 0.07400
C 	C 	0.06350 0.83856 0.65930 0.03700
H 	H 	0.00820 0.83580 0.64770 0.03400
C 	C 	0.10760 0.81479 0.69430 -0.10000
C 	C 	0.18840 0.81823 0.71010 0.03300
H 	H 	0.21730 0.80230 0.73410 0.03500
C 	C 	0.22910 0.84617 0.69010 -0.11200
H 	H 	0.28490 0.84800 0.69900 0.07200
C 	C 	0.06660 0.78593 0.71830 0.34400
C 	C 	0.95750 0.99988 0.40126 0.37200
C 	C 	0.93770 0.00025 0.34100 -0.12800
C 	C 	0.92780 0.03085 0.31290 0.06300
H 	H 	0.93050 0.05190 0.33140 0.02400
C 	C 	0.91410 0.03100 0.25840 -0.13600
H 	H 	0.90720 0.05220 0.24010 0.08200
C 	C 	0.91030 0.00025 0.22990 0.08700
C 	C 	0.91410 0.96989 0.25750 -0.13500
H 	H 	0.90680 0.94890 0.23880 0.08300
C 	C 	0.92870 0.96958 0.31310 0.06000
H 	H 	0.93240 0.94840 0.33140 0.02700
C 	C 	0.90150 0.99992 0.17310 -0.02400
C 	C 	0.89700 0.99927 0.12680 -0.04300
C 	C 	0.89560 0.99774 0.06960 0.12200
C 	C 	0.89740 0.96614 0.04530 -0.18500
H 	H 	0.89870 0.94570 0.06520 0.10000
C 	C 	0.89720 0.96461 0.99160 0.12800
C 	C 	0.89560 0.99449 0.96290 -0.18300
H 	H 	0.89540 0.99330 0.92620 0.10100
C 	C 	0.89420 0.02640 0.98700 0.12500
C 	C 	0.89610 0.02822 0.04050 -0.18300
H 	H 	0.89770 0.04980 0.05760 0.09900
C 	C 	0.89970 0.93132 0.96580 -0.04400
C 	C 	0.90710 0.90455 0.94290 -0.02900
C 	C 	0.91730 0.87438 0.91430 0.09000
C 	C 	0.98160 0.85356 0.92990 -0.14100
H 	H 	0.01780 0.85870 0.96160 0.08100
C 	C 	0.99560 0.82494 0.90050 0.07200
H 	H 	0.04110 0.81120 0.91170 0.02100
C 	C 	0.94170 0.81701 0.85470 -0.13600
C 	C 	0.87510 0.83646 0.83870 0.06500
H 	H 	0.83730 0.83010 0.80840 0.02400
C 	C 	0.86310 0.86609 0.86780 -0.13600
H 	H 	0.81860 0.88030 0.85590 0.08100
C 	C 	0.95730 0.78784 0.82020 0.37800
C 	C 	0.89920 0.05796 0.95590 -0.04200
C 	C 	0.90980 0.08247 0.93130 -0.02500
C 	C 	0.92260 0.11154 0.90000 0.08400
C 	C 	0.98890 0.13129 0.91470 -0.13700
H 	H 	0.02520 0.12630 0.94640 0.08000
C 	C 	0.00340 0.15915 0.88260 0.05900
H 	H 	0.04890 0.17300 0.89330 0.02700
C 	C 	0.95150 0.16608 0.83590 -0.12700
C 	C 	0.88540 0.14710 0.82120 0.05600
H 	H 	0.84980 0.15250 0.78940 0.02800
C 	C 	0.86800 0.11878 0.85310 -0.12900
H 	H 	0.82140 0.10550 0.84280 0.07900
C 	C 	0.96960 0.19498 0.80110 0.36500
O 	O 	0.89493 0.96582 0.50866 -0.41200
O 	O 	0.97043 0.97085 0.42330 -0.41700
Cu	Cu	0.94020 0.23400 0.70506 0.90500
Cu	Cu	0.07217 0.24768 0.77420 0.90500
Cu	Cu	0.00609 0.53399 0.99967 0.90500
O 	O 	0.11504 0.52344 0.99088 -0.41300
O 	O 	0.88430 0.71097 0.76432 -0.41700
O 	O 	0.99500 0.70008 0.82421 -0.40900
O 	O 	0.89470 0.26900 0.74423 -0.41300
O 	O 	0.00880 0.28249 0.80243 -0.39300
O 	O 	0.03870 0.52870 0.07630 -0.41800
O 	O 	0.97900 0.27115 0.66429 -0.41000
O 	O 	0.09170 0.28166 0.72207 -0.41300
O 	O 	0.07790 0.69917 0.74328 -0.40500
O 	O 	0.96740 0.71183 0.68361 -0.40900
C 	C 	0.14140 0.49336 0.98752 0.37300
C 	C 	0.22390 0.49033 0.97529 -0.11900
C 	C 	0.25630 0.45844 0.96990 0.05300
H 	H 	0.22820 0.43830 0.97510 0.02800
C 	C 	0.33250 0.45626 0.95660 -0.13000
H 	H 	0.35510 0.43450 0.95250 0.07700
C 	C 	0.37310 0.48573 0.94960 0.08300
C 	C 	0.34080 0.51740 0.95630 -0.12800
H 	H 	0.36990 0.53760 0.95260 0.07800
C 	C 	0.26490 0.52007 0.96880 0.05500
H 	H 	0.24240 0.54190 0.97270 0.02900
C 	C 	0.45050 0.48351 0.93520 -0.02200
C 	C 	0.51670 0.48371 0.92240 -0.04900
C 	C 	0.59120 0.48489 0.90848 0.12400
C 	C 	0.62670 0.51626 0.90344 -0.17300
H 	H 	0.60120 0.53680 0.91010 0.09600
C 	C 	0.70170 0.51750 0.88819 0.11500
C 	C 	0.74010 0.48726 0.87970 -0.17400
H 	H 	0.79110 0.48810 0.87120 0.10400
C 	C 	0.70370 0.45598 0.88360 0.12200
C 	C 	0.62880 0.45465 0.89817 -0.17700
H 	H 	0.60410 0.43320 0.90090 0.09600
C 	C 	0.73910 0.55065 0.88190 -0.03200
C 	C 	0.77100 0.57664 0.87240 -0.02800
C 	C 	0.80800 0.60714 0.85940 0.09500
C 	C 	0.76590 0.62922 0.82100 -0.14100
H 	H 	0.71160 0.62530 0.80700 0.08200
C 	C 	0.80530 0.65721 0.80380 0.06700
H 	H 	0.77740 0.67160 0.77680 0.02400
C 	C 	0.88250 0.66436 0.82460 -0.13100
C 	C 	0.92250 0.64354 0.86350 0.07000
H 	H 	0.97560 0.64860 0.87940 0.02200
C 	C 	0.88550 0.61479 0.87990 -0.14500
H 	H 	0.91480 0.60020 0.90590 0.08500
C 	C 	0.92320 0.69485 0.80280 0.37700
C 	C 	0.74270 0.42505 0.87150 -0.04500
C 	C 	0.77570 0.40048 0.85960 -0.01600
C 	C 	0.81600 0.37057 0.84290 0.06900
C 	C 	0.89670 0.36648 0.85820 -0.11700
H 	H 	0.92610 0.38290 0.88110 0.07400
C 	C 	0.93650 0.33856 0.84070 0.03800
H 	H 	0.99180 0.33580 0.85230 0.03400
C 	C 	0.89240 0.31479 0.80570 -0.10000
C 	C 	0.81160 0.31823 0.78990 0.03400
H 	H 	0.78270 0.30230 0.76590 0.03500
C 	C 	0.77090 0.34617 0.80990 -0.11200
H 	H 	0.71510 0.34800 0.80100 0.07200
C 	C 	0.93340 0.28593 0.78170 0.34500
C 	C 	0.04250 0.49988 0.09874 0.37200
C 	C 	0.06230 0.50025 0.15900 -0.12800
C 	C 	0.07220 0.53085 0.18710 0.06300
H 	H 	0.06950 0.55190 0.16860 0.02400
C 	C 	0.08590 0.53100 0.24160 -0.13600
H 	H 	0.09280 0.55220 0.25990 0.08200
C 	C 	0.08970 0.50025 0.27010 0.08700
C 	C 	0.08590 0.46989 0.24250 -0.13500
H 	H 	0.09320 0.44890 0.26120 0.08300
C 	C 	0.07130 0.46958 0.18690 0.06000
H 	H 	0.06760 0.44840 0.16860 0.02700
C 	C 	0.09850 0.49992 0.32690 -0.02400
C 	C 	0.10300 0.49927 0.37320 -0.04200
C 	C 	0.10440 0.49774 0.43040 0.12000
C 	C 	0.10260 0.46614 0.45470 -0.18300
H 	H 	0.10130 0.44570 0.43480 0.10000
C 	C 	0.10280 0.46461 0.50840 0.12500
C 	C 	0.10440 0.49449 0.53710 -0.18100
H 	H 	0.10460 0.49330 0.57380 0.10000
C 	C 	0.10580 0.52640 0.51300 0.12300
C 	C 	0.10390 0.52822 0.45950 -0.18000
H 	H 	0.10230 0.54980 0.44240 0.09800
C 	C 	0.10030 0.43132 0.53420 -0.04300
C 	C 	0.09290 0.40455 0.55710 -0.03000
C 	C 	0.08270 0.37438 0.58570 0.09100
C 	C 	0.01840 0.35356 0.57010 -0.14300
H 	H 	0.98220 0.35870 0.53840 0.08200
C 	C 	0.00440 0.32494 0.59950 0.07100
H 	H 	0.95890 0.31120 0.58830 0.02200
C 	C 	0.05830 0.31701 0.64530 -0.13600
C 	C 	0.12490 0.33646 0.66130 0.06500
H 	H 	0.16270 0.33010 0.69160 0.02400
C 	C 	0.13690 0.36609 0.63220 -0.13600
H 	H 	0.18140 0.38030 0.64410 0.08100
C 	C 	0.04270 0.28784 0.67980 0.37700
C 	C 	0.10080 0.55796 0.54410 -0.04000
C 	C 	0.09020 0.58247 0.56870 -0.02700
C 	C 	0.07740 0.61154 0.60000 0.08700
C 	C 	0.01110 0.63129 0.58530 -0.14200
H 	H 	0.97480 0.62630 0.55360 0.08200
C 	C 	0.99660 0.65915 0.61740 0.06400
H 	H 	0.95110 0.67300 0.60670 0.02500
C 	C 	0.04850 0.66608 0.66410 -0.13000
C 	C 	0.11460 0.64710 0.67880 0.05900
H 	H 	0.15020 0.65250 0.71060 0.02700
C 	C 	0.13200 0.61878 0.64690 -0.13100
H 	H 	0.17860 0.60550 0.65720 0.07900
C 	C 	0.03040 0.69498 0.69890 0.36500
O 	O 	0.10507 0.46582 0.99134 -0.41200
O 	O 	0.02957 0.47085 0.07670 -0.41700
