data_crystal

_cell_length_a 19.95300
_cell_length_b 9.49500
_cell_length_c 25.80500
_cell_angle_alpha 90.00000
_cell_angle_beta  91.91500
_cell_angle_gamma 90.00000

_symmetry_space_group_name_	'P 1'
_symmetry_space_group_name_H-M	'P 1'

loop_
_symmetry_equiv_pos_as_xyz
  x,y,z

loop_
_atom_site_label
_atom_site_type_symbol
_atom_site_fract_x
_atom_site_fract_y
_atom_site_fract_z
_atom_site_charge
Zn	Zn	0.08473 0.45196 0.47275 1.23100
O 	O 	0.98763 0.42740 0.44848 -0.47300
O 	O 	0.38160 0.95600 0.09849 -0.46000
O 	O 	0.92117 0.70240 0.47769 -0.50700
O 	O 	0.90482 0.35740 0.49685 -0.45700
O 	O 	0.84362 0.85310 0.49971 -0.50400
O 	O 	0.29270 0.91170 0.04968 -0.52900
C 	C 	0.92090 0.07760 0.46773 0.06900
H 	H 	0.88740 0.09760 0.49080 0.03600
C 	C 	0.93380 0.93970 0.45401 -0.13100
C 	C 	0.98130 0.90950 0.41852 0.01800
H 	H 	0.98950 0.81620 0.40970 0.03700
C 	C 	0.01810 0.01820 0.39525 -0.04000
C 	C 	0.00410 0.15730 0.41155 0.01600
H 	H 	0.02750 0.23180 0.39730 0.02700
C 	C 	0.95780 0.18500 0.44719 -0.13100
C 	C 	0.06830 0.99040 0.35600 0.06400
C 	C 	0.06040 0.88170 0.32030 -0.09700
H 	H 	0.02520 0.81860 0.32360 0.06800
C 	C 	0.10350 0.86470 0.28000 -0.00100
H 	H 	0.09640 0.79110 0.25670 0.03000
C 	C 	0.15710 0.95500 0.27370 -0.04500
C 	C 	0.16600 0.06330 0.31060 -0.00700
H 	H 	0.20190 0.12500 0.30780 0.03200
C 	C 	0.12310 0.07970 0.35040 -0.09500
H 	H 	0.13070 0.15180 0.37430 0.05900
C 	C 	0.19970 0.94660 0.22860 0.11700
C 	C 	0.17330 0.89860 0.18150 -0.18300
H 	H 	0.12910 0.86790 0.17880 0.09600
C 	C 	0.21290 0.89660 0.13860 0.11300
H 	H 	0.19380 0.86850 0.10690 -0.02200
C 	C 	0.27960 0.93460 0.14090 -0.19700
C 	C 	0.30530 0.98240 0.18750 0.11600
H 	H 	0.34990 0.01120 0.19020 0.00500
C 	C 	0.26620 0.98850 0.23050 -0.17800
H 	H 	0.28500 0.02180 0.26160 0.09200
C 	C 	0.89450 0.82180 0.47917 0.43600
C 	C 	0.94900 0.33400 0.46505 0.37700
C 	C 	0.31970 0.93270 0.09390 0.39700
Zn	Zn	0.58473 0.95196 0.47275 1.23200
O 	O 	0.48763 0.92740 0.44848 -0.47000
O 	O 	0.88160 0.45600 0.09849 -0.46200
O 	O 	0.42117 0.20240 0.47769 -0.50700
O 	O 	0.40482 0.85740 0.49685 -0.45600
O 	O 	0.34362 0.35310 0.49971 -0.50400
O 	O 	0.79270 0.41170 0.04968 -0.53000
C 	C 	0.42090 0.57760 0.46773 0.06900
H 	H 	0.38740 0.59760 0.49080 0.03600
C 	C 	0.43380 0.43970 0.45401 -0.13100
C 	C 	0.48130 0.40950 0.41852 0.01700
H 	H 	0.48950 0.31620 0.40970 0.03800
C 	C 	0.51810 0.51820 0.39525 -0.03700
C 	C 	0.50410 0.65730 0.41155 0.01100
H 	H 	0.52750 0.73180 0.39730 0.02800
C 	C 	0.45780 0.68500 0.44719 -0.12600
C 	C 	0.56830 0.49040 0.35600 0.05900
C 	C 	0.56040 0.38170 0.32030 -0.09600
H 	H 	0.52520 0.31860 0.32360 0.06600
C 	C 	0.60350 0.36470 0.28000 -0.00100
H 	H 	0.59640 0.29110 0.25670 0.03000
C 	C 	0.65710 0.45500 0.27370 -0.04700
C 	C 	0.66600 0.56330 0.31060 -0.00600
H 	H 	0.70190 0.62500 0.30780 0.03200
C 	C 	0.62310 0.57970 0.35040 -0.09200
H 	H 	0.63070 0.65180 0.37430 0.05800
C 	C 	0.69970 0.44660 0.22860 0.11800
C 	C 	0.67330 0.39860 0.18150 -0.18400
H 	H 	0.62910 0.36790 0.17880 0.09500
C 	C 	0.71290 0.39660 0.13860 0.11300
H 	H 	0.69380 0.36850 0.10690 -0.02200
C 	C 	0.77960 0.43460 0.14090 -0.19700
C 	C 	0.80530 0.48240 0.18750 0.11500
H 	H 	0.84990 0.51120 0.19020 0.00600
C 	C 	0.76620 0.48850 0.23050 -0.18100
H 	H 	0.78500 0.52180 0.26160 0.09400
C 	C 	0.39450 0.32180 0.47917 0.43600
C 	C 	0.44900 0.83400 0.46505 0.37600
C 	C 	0.81970 0.43270 0.09390 0.39700
Zn	Zn	0.91527 0.45196 0.02725 1.21700
O 	O 	0.01237 0.42740 0.05152 -0.48100
O 	O 	0.61840 0.95600 0.40151 -0.45300
O 	O 	0.07883 0.70240 0.02231 -0.52600
O 	O 	0.09518 0.35740 0.00315 -0.47900
O 	O 	0.15638 0.85310 0.00029 -0.52200
O 	O 	0.70730 0.91170 0.45032 -0.51400
C 	C 	0.07910 0.07760 0.03227 0.07000
H 	H 	0.11260 0.09760 0.00920 0.02600
C 	C 	0.06620 0.93970 0.04599 -0.14400
C 	C 	0.01870 0.90950 0.08148 0.02700
H 	H 	0.01050 0.81620 0.09030 0.03200
C 	C 	0.98190 0.01820 0.10475 -0.05300
C 	C 	0.99590 0.15730 0.08845 0.00800
H 	H 	0.97250 0.23180 0.10270 0.02500
C 	C 	0.04220 0.18500 0.05281 -0.13400
C 	C 	0.93170 0.99040 0.14400 0.06200
C 	C 	0.93960 0.88170 0.17970 -0.09900
H 	H 	0.97480 0.81860 0.17640 0.06500
C 	C 	0.89650 0.86470 0.22000 -0.00200
H 	H 	0.90360 0.79110 0.24330 0.02900
C 	C 	0.84290 0.95500 0.22630 -0.04500
C 	C 	0.83400 0.06330 0.18940 -0.00900
H 	H 	0.79810 0.12500 0.19220 0.03200
C 	C 	0.87690 0.07970 0.14960 -0.09700
H 	H 	0.86930 0.15180 0.12570 0.05500
C 	C 	0.80030 0.94660 0.27140 0.11500
C 	C 	0.82670 0.89860 0.31850 -0.18100
H 	H 	0.87090 0.86790 0.32120 0.09400
C 	C 	0.78710 0.89660 0.36140 0.11100
H 	H 	0.80620 0.86850 0.39310 -0.02000
C 	C 	0.72040 0.93460 0.35910 -0.19300
C 	C 	0.69470 0.98240 0.31250 0.11400
H 	H 	0.65010 0.01120 0.30980 0.00700
C 	C 	0.73380 0.98850 0.26950 -0.17500
H 	H 	0.71500 0.02180 0.23840 0.09100
C 	C 	0.10550 0.82180 0.02083 0.43900
C 	C 	0.05100 0.33400 0.03495 0.37600
C 	C 	0.68030 0.93270 0.40610 0.39600
Zn	Zn	0.41527 0.95196 0.02725 1.21900
O 	O 	0.51237 0.92740 0.05152 -0.48300
O 	O 	0.11840 0.45600 0.40151 -0.45300
O 	O 	0.57883 0.20240 0.02231 -0.52800
O 	O 	0.59518 0.85740 0.00315 -0.48100
O 	O 	0.65638 0.35310 0.00029 -0.52300
O 	O 	0.20730 0.41170 0.45032 -0.51400
C 	C 	0.57910 0.57760 0.03227 0.07300
H 	H 	0.61260 0.59760 0.00920 0.02400
C 	C 	0.56620 0.43970 0.04599 -0.14500
C 	C 	0.51870 0.40950 0.08148 0.01900
H 	H 	0.51050 0.31620 0.09030 0.03300
C 	C 	0.48190 0.51820 0.10475 -0.04500
C 	C 	0.49590 0.65730 0.08845 0.01300
H 	H 	0.47250 0.73180 0.10270 0.02500
C 	C 	0.54220 0.68500 0.05281 -0.13900
C 	C 	0.43170 0.49040 0.14400 0.05700
C 	C 	0.43960 0.38170 0.17970 -0.09600
H 	H 	0.47480 0.31860 0.17640 0.06500
C 	C 	0.39650 0.36470 0.22000 -0.00300
H 	H 	0.40360 0.29110 0.24330 0.03000
C 	C 	0.34290 0.45500 0.22630 -0.04600
C 	C 	0.33400 0.56330 0.18940 -0.00800
H 	H 	0.29810 0.62500 0.19220 0.03200
C 	C 	0.37690 0.57970 0.14960 -0.09300
H 	H 	0.36930 0.65180 0.12570 0.05400
C 	C 	0.30030 0.44660 0.27140 0.11600
C 	C 	0.32670 0.39860 0.31850 -0.18200
H 	H 	0.37090 0.36790 0.32120 0.09500
C 	C 	0.28710 0.39660 0.36140 0.11100
H 	H 	0.30620 0.36850 0.39310 -0.02000
C 	C 	0.22040 0.43460 0.35910 -0.19300
C 	C 	0.19470 0.48240 0.31250 0.11200
H 	H 	0.15010 0.51120 0.30980 0.00900
C 	C 	0.23380 0.48850 0.26950 -0.17800
H 	H 	0.21500 0.52180 0.23840 0.09300
C 	C 	0.60550 0.32180 0.02083 0.43900
C 	C 	0.55100 0.83400 0.03495 0.37800
C 	C 	0.18030 0.43270 0.40610 0.39500
Zn	Zn	0.91527 0.54804 0.52725 1.23200
O 	O 	0.01237 0.57260 0.55152 -0.47000
O 	O 	0.61840 0.04400 0.90151 -0.44600
O 	O 	0.07883 0.29760 0.52231 -0.50600
O 	O 	0.09518 0.64260 0.50315 -0.45600
O 	O 	0.15638 0.14690 0.50029 -0.50400
O 	O 	0.70730 0.08830 0.95032 -0.49400
C 	C 	0.07910 0.92240 0.53227 0.06900
H 	H 	0.11260 0.90240 0.50920 0.03700
C 	C 	0.06620 0.06030 0.54599 -0.13100
C 	C 	0.01870 0.09050 0.58148 0.01800
H 	H 	0.01050 0.18380 0.59030 0.03800
C 	C 	0.98190 0.98180 0.60475 -0.03600
C 	C 	0.99590 0.84270 0.58845 0.00700
H 	H 	0.97250 0.76820 0.60270 0.02900
C 	C 	0.04220 0.81500 0.55281 -0.12300
C 	C 	0.93170 0.00960 0.64400 0.05600
C 	C 	0.93960 0.11830 0.67970 -0.09400
H 	H 	0.97480 0.18140 0.67640 0.06500
C 	C 	0.89650 0.13530 0.72000 -0.00400
H 	H 	0.90360 0.20890 0.74330 0.03100
C 	C 	0.84290 0.04500 0.72630 -0.04500
C 	C 	0.83400 0.93670 0.68940 -0.00900
H 	H 	0.79810 0.87500 0.69220 0.03300
C 	C 	0.87690 0.92030 0.64960 -0.09000
H 	H 	0.86930 0.84820 0.62570 0.05700
C 	C 	0.80030 0.05340 0.77140 0.11400
C 	C 	0.82670 0.10140 0.81850 -0.17900
H 	H 	0.87090 0.13210 0.82120 0.09400
C 	C 	0.78710 0.10340 0.86140 0.10900
H 	H 	0.80620 0.13150 0.89310 -0.01700
C 	C 	0.72040 0.06540 0.85910 -0.18700
C 	C 	0.69470 0.01760 0.81250 0.10800
H 	H 	0.65010 0.98880 0.80980 0.01100
C 	C 	0.73380 0.01150 0.76950 -0.17600
H 	H 	0.71500 0.97820 0.73840 0.09300
C 	C 	0.10550 0.17820 0.52083 0.43600
C 	C 	0.05100 0.66600 0.53495 0.37600
C 	C 	0.68030 0.06730 0.90610 0.39200
Zn	Zn	0.41527 0.04804 0.52725 1.23200
O 	O 	0.51237 0.07260 0.55152 -0.47100
O 	O 	0.11840 0.54400 0.90151 -0.44700
O 	O 	0.57883 0.79760 0.52231 -0.50600
O 	O 	0.59518 0.14260 0.50315 -0.45700
O 	O 	0.65638 0.64690 0.50029 -0.50400
O 	O 	0.20730 0.58830 0.95032 -0.49500
C 	C 	0.57910 0.42240 0.53227 0.06900
H 	H 	0.61260 0.40240 0.50920 0.03600
C 	C 	0.56620 0.56030 0.54599 -0.13100
C 	C 	0.51870 0.59050 0.58148 0.01700
H 	H 	0.51050 0.68380 0.59030 0.03800
C 	C 	0.48190 0.48180 0.60475 -0.03700
C 	C 	0.49590 0.34270 0.58845 0.01100
H 	H 	0.47250 0.26820 0.60270 0.02800
C 	C 	0.54220 0.31500 0.55281 -0.12600
C 	C 	0.43170 0.50960 0.64400 0.05800
C 	C 	0.43960 0.61830 0.67970 -0.09500
H 	H 	0.47480 0.68140 0.67640 0.06600
C 	C 	0.39650 0.63530 0.72000 -0.00300
H 	H 	0.40360 0.70890 0.74330 0.03100
C 	C 	0.34290 0.54500 0.72630 -0.04500
C 	C 	0.33400 0.43670 0.68940 -0.00800
H 	H 	0.29810 0.37500 0.69220 0.03300
C 	C 	0.37690 0.42030 0.64960 -0.09100
H 	H 	0.36930 0.34820 0.62570 0.05700
C 	C 	0.30030 0.55340 0.77140 0.11500
C 	C 	0.32670 0.60140 0.81850 -0.17900
H 	H 	0.37090 0.63210 0.82120 0.09400
C 	C 	0.28710 0.60340 0.86140 0.10900
H 	H 	0.30620 0.63150 0.89310 -0.01700
C 	C 	0.22040 0.56540 0.85910 -0.18800
C 	C 	0.19470 0.51760 0.81250 0.10900
H 	H 	0.15010 0.48880 0.80980 0.01000
C 	C 	0.23380 0.51150 0.76950 -0.17600
H 	H 	0.21500 0.47820 0.73840 0.09300
C 	C 	0.60550 0.67820 0.52083 0.43600
C 	C 	0.55100 0.16600 0.53495 0.37600
C 	C 	0.18030 0.56730 0.90610 0.39300
Zn	Zn	0.08473 0.54804 0.97275 1.24500
O 	O 	0.98763 0.57260 0.94848 -0.45900
O 	O 	0.38160 0.04400 0.59849 -0.45400
O 	O 	0.92117 0.29760 0.97769 -0.48400
O 	O 	0.90482 0.64260 0.99685 -0.43100
O 	O 	0.84362 0.14690 0.99971 -0.47800
O 	O 	0.29270 0.08830 0.54968 -0.51500
C 	C 	0.92090 0.92240 0.96773 0.06400
H 	H 	0.88740 0.90240 0.99080 0.04900
C 	C 	0.93380 0.06030 0.95401 -0.11700
C 	C 	0.98130 0.09050 0.91852 0.01300
H 	H 	0.98950 0.18380 0.90970 0.04300
C 	C 	0.01810 0.98180 0.89525 -0.02700
C 	C 	0.00410 0.84270 0.91155 0.00700
H 	H 	0.02750 0.76820 0.89730 0.03200
C 	C 	0.95780 0.81500 0.94719 -0.11200
C 	C 	0.06830 0.00960 0.85600 0.05800
C 	C 	0.06040 0.11830 0.82030 -0.09300
H 	H 	0.02520 0.18140 0.82360 0.06600
C 	C 	0.10350 0.13530 0.78000 -0.00200
H 	H 	0.09640 0.20890 0.75670 0.03000
C 	C 	0.15710 0.04500 0.77370 -0.04600
C 	C 	0.16600 0.93670 0.81060 -0.00600
H 	H 	0.20190 0.87500 0.80780 0.03300
C 	C 	0.12310 0.92030 0.85040 -0.08900
H 	H 	0.13070 0.84820 0.87430 0.06100
C 	C 	0.19970 0.05340 0.72860 0.11700
C 	C 	0.17330 0.10140 0.68150 -0.18200
H 	H 	0.12910 0.13210 0.67880 0.09500
C 	C 	0.21290 0.10340 0.63860 0.11200
H 	H 	0.19380 0.13150 0.60690 -0.02000
C 	C 	0.27960 0.06540 0.64090 -0.19300
C 	C 	0.30530 0.01760 0.68750 0.11200
H 	H 	0.34990 0.98880 0.69020 0.00900
C 	C 	0.26620 0.01150 0.73050 -0.17900
H 	H 	0.28500 0.97820 0.76160 0.09400
C 	C 	0.89450 0.17820 0.97917 0.43100
C 	C 	0.94900 0.66600 0.96505 0.37400
C 	C 	0.31970 0.06730 0.59390 0.39500
Zn	Zn	0.58473 0.04804 0.97275 1.24600
O 	O 	0.48763 0.07260 0.94848 -0.45900
O 	O 	0.88160 0.54400 0.59849 -0.45400
O 	O 	0.42117 0.79760 0.97769 -0.48400
O 	O 	0.40482 0.14260 0.99685 -0.43200
O 	O 	0.34362 0.64690 0.99971 -0.47900
O 	O 	0.79270 0.58830 0.54968 -0.51500
C 	C 	0.42090 0.42240 0.96773 0.06400
H 	H 	0.38740 0.40240 0.99080 0.04800
C 	C 	0.43380 0.56030 0.95401 -0.11600
C 	C 	0.48130 0.59050 0.91852 0.01500
H 	H 	0.48950 0.68380 0.90970 0.04300
C 	C 	0.51810 0.48180 0.89525 -0.02900
C 	C 	0.50410 0.34270 0.91155 0.00900
H 	H 	0.52750 0.26820 0.89730 0.03100
C 	C 	0.45780 0.31500 0.94719 -0.11200
C 	C 	0.56830 0.50960 0.85600 0.06100
C 	C 	0.56040 0.61830 0.82030 -0.09500
H 	H 	0.52520 0.68140 0.82360 0.06600
C 	C 	0.60350 0.63530 0.78000 -0.00100
H 	H 	0.59640 0.70890 0.75670 0.03000
C 	C 	0.65710 0.54500 0.77370 -0.04600
C 	C 	0.66600 0.43670 0.81060 -0.00600
H 	H 	0.70190 0.37500 0.80780 0.03300
C 	C 	0.62310 0.42030 0.85040 -0.09100
H 	H 	0.63070 0.34820 0.87430 0.06200
C 	C 	0.69970 0.55340 0.72860 0.11700
C 	C 	0.67330 0.60140 0.68150 -0.18300
H 	H 	0.62910 0.63210 0.67880 0.09500
C 	C 	0.71290 0.60340 0.63860 0.11200
H 	H 	0.69380 0.63150 0.60690 -0.02000
C 	C 	0.77960 0.56540 0.64090 -0.19400
C 	C 	0.80530 0.51760 0.68750 0.11300
H 	H 	0.84990 0.48880 0.69020 0.00800
C 	C 	0.76620 0.51150 0.73050 -0.17900
H 	H 	0.78500 0.47820 0.76160 0.09400
C 	C 	0.39450 0.67820 0.97917 0.43200
C 	C 	0.44900 0.16600 0.96505 0.37500
C 	C 	0.81970 0.56730 0.59390 0.39600
Zn	Zn	0.75000 0.75000 0.50000 1.19100
Zn	Zn	0.25000 0.75000 -0.00000 1.17800
Zn	Zn	0.25000 0.25000 0.50000 1.19100
Zn	Zn	0.75000 0.25000 -0.00000 1.17700
