data_crystal

_cell_length_a 8.73830
_cell_length_b 18.16040
_cell_length_c 6.70720
_cell_angle_alpha 90.00000
_cell_angle_beta  90.00000
_cell_angle_gamma 90.00000

_symmetry_space_group_name_	'P 1'
_symmetry_space_group_name_H-M	'P 1'

loop_
_symmetry_equiv_pos_as_xyz
  x,y,z

loop_
_atom_site_label
_atom_site_type_symbol
_atom_site_fract_x
_atom_site_fract_y
_atom_site_fract_z
_atom_site_charge
Dy	Dy	0.74415 0.60554 0.40591 2.14600
O 	O 	0.72150 0.65410 0.73730 -0.43100
O 	O 	0.85410 0.51034 0.22380 -0.49300
O 	O 	0.65410 0.50168 0.59360 -0.54100
O 	O 	0.10311 0.78412 0.40820 -0.51900
C 	C 	0.98670 0.75330 0.34310 0.68300
H 	H 	0.92950 0.77790 0.24720 -0.15800
C 	C 	0.52890 0.47807 0.64670 0.68900
H 	H 	0.44600 0.50170 0.58790 -0.21000
C 	C 	0.98400 0.49590 0.16250 0.63000
H 	H 	0.05530 0.53380 0.17040 -0.14500
C 	C 	0.73810 0.62219 0.90180 0.28900
H 	H 	0.73920 0.57100 0.89960 -0.12900
O 	O 	0.03020 0.43759 0.09250 -0.35700
O 	O 	0.49390 0.42954 0.76200 -0.56000
O 	O 	0.94174 0.69171 0.39780 -0.51700
O 	O 	0.75300 0.65180 0.06560 -0.27900
Dy	Dy	0.25585 0.39446 0.90591 1.84000
O 	O 	0.27850 0.34590 0.23730 -0.34900
O 	O 	0.14590 0.48966 0.72380 -0.54700
O 	O 	0.34590 0.49832 0.09360 -0.41800
O 	O 	0.89689 0.21588 0.90820 -0.51300
C 	C 	0.01330 0.24670 0.84310 0.63200
H 	H 	0.07050 0.22210 0.74720 -0.15800
C 	C 	0.47110 0.52193 0.14670 0.65800
H 	H 	0.55400 0.49830 0.08790 -0.13300
C 	C 	0.01600 0.50410 0.66250 0.61400
H 	H 	0.94470 0.46620 0.67040 -0.17600
C 	C 	0.26190 0.37781 0.40180 0.55000
H 	H 	0.26080 0.42900 0.39960 -0.14300
O 	O 	0.96980 0.56241 0.59250 -0.48300
O 	O 	0.50610 0.57046 0.26200 -0.51500
O 	O 	0.05826 0.30829 0.89780 -0.53200
O 	O 	0.24700 0.34820 0.56560 -0.42800
Dy	Dy	0.24415 0.89446 0.40591 2.14200
O 	O 	0.22150 0.84590 0.73730 -0.42900
O 	O 	0.35410 0.98966 0.22380 -0.49500
O 	O 	0.15410 0.99832 0.59360 -0.52600
O 	O 	0.60311 0.71588 0.40820 -0.51800
C 	C 	0.48670 0.74670 0.34310 0.68200
H 	H 	0.42950 0.72210 0.24720 -0.15600
C 	C 	0.02890 0.02193 0.64670 0.64000
H 	H 	0.94600 0.99830 0.58790 -0.19200
C 	C 	0.48400 0.00410 0.16250 0.63300
H 	H 	0.55530 0.96620 0.17040 -0.14700
C 	C 	0.23810 0.87781 0.90180 0.27900
H 	H 	0.23920 0.92900 0.89960 -0.12700
O 	O 	0.53020 0.06241 0.09250 -0.35900
O 	O 	0.99390 0.07046 0.76200 -0.53700
O 	O 	0.44174 0.80829 0.39780 -0.51600
O 	O 	0.25300 0.84820 0.06560 -0.27300
Dy	Dy	0.75585 0.10554 0.90591 1.85100
O 	O 	0.77850 0.15410 0.23730 -0.35100
O 	O 	0.64590 0.01034 0.72380 -0.55400
O 	O 	0.84590 0.00168 0.09360 -0.41200
O 	O 	0.39689 0.28412 0.90820 -0.52800
C 	C 	0.51330 0.25330 0.84310 0.65500
H 	H 	0.57050 0.27790 0.74720 -0.16200
C 	C 	0.97110 0.97807 0.14670 0.63900
H 	H 	0.05400 0.00170 0.08790 -0.12900
C 	C 	0.51600 0.99590 0.66250 0.64400
H 	H 	0.44470 0.03380 0.67040 -0.19300
C 	C 	0.76190 0.12219 0.40180 0.55300
H 	H 	0.76080 0.07100 0.39960 -0.14400
O 	O 	0.46980 0.93759 0.59250 -0.49600
O 	O 	0.00610 0.92954 0.26200 -0.50800
O 	O 	0.55826 0.19171 0.89780 -0.53500
O 	O 	0.74700 0.15180 0.56560 -0.42800
