data_crystal

_cell_length_a 14.39200
_cell_length_b 15.69900
_cell_length_c 10.74100
_cell_angle_alpha 90.00000
_cell_angle_beta  90.00000
_cell_angle_gamma 90.00000

_symmetry_space_group_name_	'P 1'
_symmetry_space_group_name_H-M	'P 1'

loop_
_symmetry_equiv_pos_as_xyz
  x,y,z

loop_
_atom_site_label
_atom_site_type_symbol
_atom_site_fract_x
_atom_site_fract_y
_atom_site_fract_z
_atom_site_charge
C 	C 	0.86822 0.62066 0.59470 0.53900
O 	O 	0.89813 0.59164 0.48820 -0.42700
O 	O 	0.80545 0.67684 0.59780 -0.58500
O 	O 	0.90138 0.59050 0.69760 -0.47600
O 	O 	0.79832 0.67123 0.88646 -0.67300
H 	H 	0.77010 0.68890 0.96430 0.22500
H 	H 	0.86510 0.67760 0.89440 0.20100
H 	H 	0.81240 0.44900 0.11700 0.33100
H 	H 	0.86310 0.52300 0.09710 0.18400
C 	C 	0.86822 0.12066 0.09470 0.52100
O 	O 	0.89813 0.09164 0.98820 -0.41300
O 	O 	0.80545 0.17684 0.09780 -0.59000
O 	O 	0.90138 0.09050 0.19760 -0.47700
O 	O 	0.79832 0.17123 0.38646 -0.67300
H 	H 	0.77010 0.18890 0.46430 0.21600
H 	H 	0.86510 0.17760 0.39440 0.19600
H 	H 	0.81240 0.94900 0.61700 0.35600
H 	H 	0.86310 0.02300 0.59710 0.17200
C 	C 	0.36822 0.62066 0.09470 0.52400
O 	O 	0.39813 0.59164 0.98820 -0.46300
O 	O 	0.30545 0.67684 0.09780 -0.60400
O 	O 	0.40138 0.59050 0.19760 -0.52800
O 	O 	0.29832 0.67123 0.38646 -0.67300
H 	H 	0.27010 0.68890 0.46430 0.21100
H 	H 	0.36510 0.67760 0.39440 0.17400
H 	H 	0.31240 0.44900 0.61700 0.31400
H 	H 	0.36310 0.52300 0.59710 0.16500
C 	C 	0.36822 0.12066 0.59470 0.54800
O 	O 	0.39813 0.09164 0.48820 -0.48400
O 	O 	0.30545 0.17684 0.59780 -0.60100
O 	O 	0.40138 0.09050 0.69760 -0.53200
O 	O 	0.29832 0.17123 0.88646 -0.67400
H 	H 	0.27010 0.18890 0.96430 0.21700
H 	H 	0.36510 0.17760 0.89440 0.17700
H 	H 	0.31240 0.94900 0.11700 0.33000
H 	H 	0.36310 0.02300 0.09710 0.15100
C 	C 	0.13178 0.37934 0.59470 0.54300
O 	O 	0.10187 0.40836 0.48820 -0.49500
O 	O 	0.19455 0.32316 0.59780 -0.60300
O 	O 	0.09862 0.40950 0.69760 -0.54500
O 	O 	0.20168 0.32877 0.88646 -0.66900
H 	H 	0.22990 0.31110 0.96430 0.21400
H 	H 	0.13490 0.32240 0.89440 0.16100
H 	H 	0.18760 0.55100 0.11700 0.30600
H 	H 	0.13690 0.47700 0.09710 0.15600
C 	C 	0.13178 0.87934 0.09470 0.51500
O 	O 	0.10187 0.90836 0.98820 -0.45900
O 	O 	0.19455 0.82316 0.09780 -0.60600
O 	O 	0.09862 0.90950 0.19760 -0.53200
O 	O 	0.20168 0.82877 0.38646 -0.66600
H 	H 	0.22990 0.81110 0.46430 0.20800
H 	H 	0.13490 0.82240 0.39440 0.15800
H 	H 	0.18760 0.05100 0.61700 0.33800
H 	H 	0.13690 0.97700 0.59710 0.20300
C 	C 	0.63178 0.37934 0.09470 0.52500
O 	O 	0.60187 0.40836 0.98820 -0.46400
O 	O 	0.69455 0.32316 0.09780 -0.59800
O 	O 	0.59862 0.40950 0.19760 -0.52600
O 	O 	0.70168 0.32877 0.38646 -0.66700
H 	H 	0.72990 0.31110 0.46430 0.21200
H 	H 	0.63490 0.32240 0.39440 0.17300
H 	H 	0.68760 0.55100 0.61700 0.31400
H 	H 	0.63690 0.47700 0.59710 0.16500
C 	C 	0.63178 0.87934 0.59470 0.54600
O 	O 	0.60187 0.90836 0.48820 -0.47100
O 	O 	0.69455 0.82316 0.59780 -0.59200
O 	O 	0.59862 0.90950 0.69760 -0.51600
O 	O 	0.70168 0.82877 0.88646 -0.66400
H 	H 	0.72990 0.81110 0.96430 0.22100
H 	H 	0.63490 0.82240 0.89440 0.17900
H 	H 	0.68760 0.05100 0.11700 0.33100
H 	H 	0.63690 0.97700 0.09710 0.19100
C 	C 	0.86822 0.37934 0.59470 0.53900
O 	O 	0.89813 0.40836 0.48820 -0.42600
O 	O 	0.80545 0.32316 0.59780 -0.58500
O 	O 	0.90138 0.40950 0.69760 -0.47600
O 	O 	0.79832 0.32877 0.88646 -0.67300
H 	H 	0.77010 0.31110 0.96430 0.22300
H 	H 	0.86510 0.32240 0.89440 0.20000
H 	H 	0.81240 0.55100 0.11700 0.33100
H 	H 	0.86310 0.47700 0.09710 0.18500
C 	C 	0.86822 0.87934 0.09470 0.50900
O 	O 	0.89813 0.90836 0.98820 -0.39200
O 	O 	0.80545 0.82316 0.09780 -0.58900
O 	O 	0.90138 0.90950 0.19760 -0.46700
O 	O 	0.79832 0.82877 0.38646 -0.67000
H 	H 	0.77010 0.81110 0.46430 0.21600
H 	H 	0.86510 0.82240 0.39440 0.19600
H 	H 	0.81240 0.05100 0.61700 0.35900
H 	H 	0.86310 0.97700 0.59710 0.22400
C 	C 	0.36822 0.37934 0.09470 0.52600
O 	O 	0.39813 0.40836 0.98820 -0.46600
O 	O 	0.30545 0.32316 0.09780 -0.60300
O 	O 	0.40138 0.40950 0.19760 -0.52800
O 	O 	0.29832 0.32877 0.38646 -0.67300
H 	H 	0.27010 0.31110 0.46430 0.21100
H 	H 	0.36510 0.32240 0.39440 0.17400
H 	H 	0.31240 0.55100 0.61700 0.31400
H 	H 	0.36310 0.47700 0.59710 0.16500
C 	C 	0.36822 0.87934 0.59470 0.54700
O 	O 	0.39813 0.90836 0.48820 -0.47200
O 	O 	0.30545 0.82316 0.59780 -0.59700
O 	O 	0.40138 0.90950 0.69760 -0.51700
O 	O 	0.29832 0.82877 0.88646 -0.67000
H 	H 	0.27010 0.81110 0.96430 0.22000
H 	H 	0.36510 0.82240 0.89440 0.18000
H 	H 	0.31240 0.05100 0.11700 0.33300
H 	H 	0.36310 0.97700 0.09710 0.19300
C 	C 	0.13178 0.62066 0.59470 0.54300
O 	O 	0.10187 0.59164 0.48820 -0.49500
O 	O 	0.19455 0.67684 0.59780 -0.60300
O 	O 	0.09862 0.59050 0.69760 -0.54500
O 	O 	0.20168 0.67123 0.88646 -0.66900
H 	H 	0.22990 0.68890 0.96430 0.21600
H 	H 	0.13490 0.67760 0.89440 0.16200
H 	H 	0.18760 0.44900 0.11700 0.30700
H 	H 	0.13690 0.52300 0.09710 0.15600
C 	C 	0.13178 0.12066 0.09470 0.52700
O 	O 	0.10187 0.09164 0.98820 -0.48400
O 	O 	0.19455 0.17684 0.09780 -0.60800
O 	O 	0.09862 0.09050 0.19760 -0.54700
O 	O 	0.20168 0.17123 0.38646 -0.67000
H 	H 	0.22990 0.18890 0.46430 0.20700
H 	H 	0.13490 0.17760 0.39440 0.15600
H 	H 	0.18760 0.94900 0.61700 0.33400
H 	H 	0.13690 0.02300 0.59710 0.13900
C 	C 	0.63178 0.62066 0.09470 0.52300
O 	O 	0.60187 0.59164 0.98820 -0.46100
O 	O 	0.69455 0.67684 0.09780 -0.59900
O 	O 	0.59862 0.59050 0.19760 -0.52600
O 	O 	0.70168 0.67123 0.38646 -0.66700
H 	H 	0.72990 0.68890 0.46430 0.21200
H 	H 	0.63490 0.67760 0.39440 0.17300
H 	H 	0.68760 0.44900 0.61700 0.31400
H 	H 	0.63690 0.52300 0.59710 0.16500
C 	C 	0.63178 0.12066 0.59470 0.54700
O 	O 	0.60187 0.09164 0.48820 -0.48300
O 	O 	0.69455 0.17684 0.59780 -0.59500
O 	O 	0.59862 0.09050 0.69760 -0.53000
O 	O 	0.70168 0.17123 0.88646 -0.66800
H 	H 	0.72990 0.18890 0.96430 0.21800
H 	H 	0.63490 0.17760 0.89440 0.17600
H 	H 	0.68760 0.94900 0.11700 0.32700
H 	H 	0.63690 0.02300 0.09710 0.15100
Ru	Ru	0.00000 0.50000 0.48603 0.88000
Ru	Ru	0.00000 0.50000 0.69584 0.84200
Cl	Cl	0.00000 0.50000 0.25026 -0.67000
Ru	Ru	-0.00000 0.00000 0.98603 0.87000
Ru	Ru	0.00000 0.00000 0.19584 0.82500
Cl	Cl	0.00000 0.00000 0.75026 -0.68800
Ru	Ru	0.50000 0.50000 0.98603 0.94500
Ru	Ru	0.50000 0.50000 0.19584 0.90400
Cl	Cl	0.50000 0.50000 0.75026 -0.58600
Ru	Ru	0.50000 0.00000 0.48603 0.92900
Ru	Ru	0.50000 0.00000 0.69584 0.89900
Cl	Cl	0.50000 0.00000 0.25026 -0.60400
Mg	Mg	0.75000 0.75000 0.74120 1.46000
Mg	Mg	0.75000 0.25000 0.24120 1.45900
Mg	Mg	0.25000 0.25000 0.74120 1.45800
Mg	Mg	0.25000 0.75000 0.24120 1.45800
Mg	Mg	0.75000 0.25000 0.74120 1.46000
Mg	Mg	0.75000 0.75000 0.24120 1.45900
Mg	Mg	0.25000 0.75000 0.74120 1.45800
Mg	Mg	0.25000 0.25000 0.24120 1.45800
K 	K 	0.75552 0.50000 0.84080 0.65500
O 	O 	0.80990 0.50000 0.09050 -1.04300
K 	K 	0.75552 0.00000 0.34080 0.65000
O 	O 	0.80990 0.00000 0.59050 -1.10300
K 	K 	0.25552 0.50000 0.34080 0.65000
O 	O 	0.30990 0.50000 0.59050 -1.00400
K 	K 	0.25552 -0.00000 0.84080 0.64700
O 	O 	0.30990 0.00000 0.09050 -1.05700
K 	K 	0.24448 0.50000 0.84080 0.65100
O 	O 	0.19010 0.50000 0.09050 -0.99900
K 	K 	0.24448 0.00000 0.34080 0.64600
O 	O 	0.19010 0.00000 0.59050 -1.06800
K 	K 	0.74448 0.50000 0.34080 0.65400
O 	O 	0.69010 0.50000 0.59050 -1.00300
K 	K 	0.74448 -0.00000 0.84080 0.65100
O 	O 	0.69010 0.00000 0.09050 -1.05200
