data_crystal

_cell_length_a 19.80700
_cell_length_b 27.71400
_cell_length_c 27.84700
_cell_angle_alpha 90.00000
_cell_angle_beta  90.00000
_cell_angle_gamma 90.00000

_symmetry_space_group_name_	'P 1'
_symmetry_space_group_name_H-M	'P 1'

loop_
_symmetry_equiv_pos_as_xyz
  x,y,z

loop_
_atom_site_label
_atom_site_type_symbol
_atom_site_fract_x
_atom_site_fract_y
_atom_site_fract_z
_atom_site_charge
Zn	Zn	0.31144 0.94237 0.61801 1.21300
Zn	Zn	0.18856 0.55763 0.11801 1.20900
Zn	Zn	0.31144 0.05763 0.61801 1.20900
Zn	Zn	0.18856 0.44237 0.11801 1.21000
Zn	Zn	0.19959 0.00000 0.56206 1.20800
Zn	Zn	0.19876 -0.00000 0.67577 1.20900
Zn	Zn	0.30041 0.50000 0.06206 1.21100
Zn	Zn	0.30124 0.50000 0.17577 1.21300
H 	H 	0.35810 0.85150 0.49900 0.01600
H 	H 	0.36370 0.79560 0.43650 0.08300
H 	H 	0.19470 0.84760 0.38310 0.08800
H 	H 	0.18830 0.90610 0.44370 0.02500
H 	H 	0.18990 0.73590 0.26830 0.08600
H 	H 	0.17730 0.67120 0.21540 0.01500
H 	H 	0.33730 0.60860 0.27220 0.01400
H 	H 	0.34760 0.67250 0.32610 0.08200
H 	H 	0.64200 0.07340 0.62180 0.08000
H 	H 	0.52460 0.07230 0.62210 0.02300
H 	H 	0.14190 0.64850 0.99900 0.01500
H 	H 	0.13630 0.70440 0.93650 0.08500
H 	H 	0.30530 0.65240 0.88310 0.08600
H 	H 	0.31170 0.59390 0.94370 0.01800
H 	H 	0.31010 0.76410 0.76830 0.08500
H 	H 	0.32270 0.82880 0.71540 0.01600
H 	H 	0.16270 0.89140 0.77220 0.01900
H 	H 	0.15240 0.82750 0.82610 0.08300
H 	H 	0.85800 0.42660 0.12180 0.08400
H 	H 	0.97540 0.42770 0.12210 0.02200
H 	H 	0.35810 0.14850 0.49900 0.01400
H 	H 	0.36370 0.20440 0.43650 0.08400
H 	H 	0.19470 0.15240 0.38310 0.08500
H 	H 	0.18830 0.09390 0.44370 0.01800
H 	H 	0.18990 0.26410 0.26830 0.08400
H 	H 	0.17730 0.32880 0.21540 0.01400
H 	H 	0.33730 0.39140 0.27220 0.01400
H 	H 	0.34760 0.32750 0.32610 0.08100
H 	H 	0.64200 0.92660 0.62180 0.07900
H 	H 	0.52460 0.92770 0.62210 0.02000
H 	H 	0.14190 0.35150 0.99900 0.01400
H 	H 	0.13630 0.29560 0.93650 0.08300
H 	H 	0.30530 0.34760 0.88310 0.08500
H 	H 	0.31170 0.40610 0.94370 0.01800
H 	H 	0.31010 0.23590 0.76830 0.08400
H 	H 	0.32270 0.17120 0.71540 0.01400
H 	H 	0.16270 0.10860 0.77220 0.01200
H 	H 	0.15240 0.17250 0.82610 0.08000
H 	H 	0.85800 0.57340 0.12180 0.08400
H 	H 	0.97540 0.57230 0.12210 0.02300
H 	H 	0.99160 0.00000 0.68350 0.02000
H 	H 	0.87360 0.00000 0.68760 0.07500
H 	H 	0.86840 0.00000 0.54340 0.08500
H 	H 	0.98500 -0.00000 0.54140 0.02000
H 	H 	0.50840 0.50000 0.18350 0.02300
H 	H 	0.62640 0.50000 0.18760 0.07700
H 	H 	0.63160 0.50000 0.04340 0.08700
H 	H 	0.51500 0.50000 0.04140 0.02300
C 	C 	0.26600 0.91730 0.52060 0.43500
C 	C 	0.27090 0.88230 0.47980 -0.16400
C 	C 	0.32300 0.85080 0.47580 0.08500
C 	C 	0.32630 0.81700 0.43820 -0.15300
C 	C 	0.27630 0.81450 0.40360 0.11100
C 	C 	0.22870 0.84750 0.40720 -0.15500
C 	C 	0.22350 0.88280 0.44390 0.08300
C 	C 	0.27640 0.77960 0.36900 -0.04400
C 	C 	0.27540 0.74910 0.33880 -0.03200
C 	C 	0.27000 0.71170 0.30200 0.10600
C 	C 	0.22150 0.71020 0.26950 -0.16000
C 	C 	0.21460 0.67220 0.23680 0.08900
C 	C 	0.26020 0.63800 0.23600 -0.15400
C 	C 	0.30780 0.63560 0.27020 0.07800
C 	C 	0.31280 0.67340 0.30260 -0.15100
C 	C 	0.25420 0.59350 0.20420 0.37400
C 	C 	0.61830 0.04360 0.62180 -0.13000
C 	C 	0.54870 0.04270 0.62280 0.06400
C 	C 	0.23400 0.58270 0.02060 0.43700
C 	C 	0.22910 0.61770 0.97980 -0.16900
C 	C 	0.17700 0.64920 0.97580 0.08800
C 	C 	0.17370 0.68300 0.93820 -0.15700
C 	C 	0.22370 0.68550 0.90360 0.11400
C 	C 	0.27130 0.65250 0.90720 -0.16000
C 	C 	0.27650 0.61720 0.94390 0.08600
C 	C 	0.22360 0.72040 0.86900 -0.04700
C 	C 	0.22460 0.75090 0.83880 -0.03000
C 	C 	0.23000 0.78830 0.80200 0.10400
C 	C 	0.27850 0.78980 0.76950 -0.15700
C 	C 	0.28540 0.82780 0.73680 0.08600
C 	C 	0.23980 0.86200 0.73600 -0.14900
C 	C 	0.19220 0.86440 0.77020 0.07600
C 	C 	0.18720 0.82660 0.80260 -0.14800
C 	C 	0.24580 0.90650 0.70420 0.37300
C 	C 	0.88170 0.45640 0.12180 -0.13900
C 	C 	0.95130 0.45730 0.12280 0.06800
C 	C 	0.26600 0.08270 0.52060 0.43700
C 	C 	0.27090 0.11770 0.47980 -0.17000
C 	C 	0.32300 0.14920 0.47580 0.08700
C 	C 	0.32630 0.18300 0.43820 -0.15700
C 	C 	0.27630 0.18550 0.40360 0.11300
C 	C 	0.22870 0.15250 0.40720 -0.16000
C 	C 	0.22350 0.11720 0.44390 0.08500
C 	C 	0.27640 0.22040 0.36900 -0.04700
C 	C 	0.27540 0.25090 0.33880 -0.03200
C 	C 	0.27000 0.28830 0.30200 0.10400
C 	C 	0.22150 0.28980 0.26950 -0.15900
C 	C 	0.21460 0.32780 0.23680 0.08800
C 	C 	0.26020 0.36200 0.23600 -0.15400
C 	C 	0.30780 0.36440 0.27020 0.07700
C 	C 	0.31280 0.32660 0.30260 -0.15100
C 	C 	0.25420 0.40650 0.20420 0.37300
C 	C 	0.61830 0.95640 0.62180 -0.11000
C 	C 	0.54870 0.95730 0.62280 0.08500
C 	C 	0.23400 0.41730 0.02060 0.43700
C 	C 	0.22910 0.38230 0.97980 -0.16900
C 	C 	0.17700 0.35080 0.97580 0.08700
C 	C 	0.17370 0.31700 0.93820 -0.15600
C 	C 	0.22370 0.31450 0.90360 0.11200
C 	C 	0.27130 0.34750 0.90720 -0.15900
C 	C 	0.27650 0.38280 0.94390 0.08500
C 	C 	0.22360 0.27960 0.86900 -0.04700
C 	C 	0.22460 0.24910 0.83880 -0.03300
C 	C 	0.23000 0.21170 0.80200 0.10500
C 	C 	0.27850 0.21020 0.76950 -0.16000
C 	C 	0.28540 0.17220 0.73680 0.08800
C 	C 	0.23980 0.13800 0.73600 -0.15500
C 	C 	0.19220 0.13560 0.77020 0.07800
C 	C 	0.18720 0.17340 0.80260 -0.15200
C 	C 	0.24580 0.09350 0.70420 0.37300
C 	C 	0.88170 0.54360 0.12180 -0.13900
C 	C 	0.95130 0.54270 0.12280 0.06800
C 	C 	0.07550 0.00000 0.61150 0.38900
C 	C 	0.99760 0.00000 0.61120 -0.14300
C 	C 	0.96570 -0.00000 0.65480 0.06200
C 	C 	0.89550 0.00000 0.65730 -0.13900
C 	C 	0.85720 0.00000 0.61490 0.09000
C 	C 	0.89260 0.00000 0.57280 -0.14600
C 	C 	0.96240 0.00000 0.57150 0.07800
C 	C 	0.78490 0.00000 0.61560 -0.04100
C 	C 	0.72530 0.00000 0.61840 -0.02400
C 	C 	0.65300 0.00000 0.62080 0.05900
C 	C 	0.51300 0.00000 0.62480 -0.15600
C 	C 	0.43540 0.00000 0.62360 0.38700
C 	C 	0.42450 0.50000 0.11150 0.38900
C 	C 	0.50240 0.50000 0.11120 -0.13900
C 	C 	0.53430 0.50000 0.15480 0.06100
C 	C 	0.60450 0.50000 0.15730 -0.13400
C 	C 	0.64280 0.50000 0.11490 0.08800
C 	C 	0.60740 0.50000 0.07280 -0.14100
C 	C 	0.53760 0.50000 0.07150 0.07700
C 	C 	0.71510 0.50000 0.11560 -0.03000
C 	C 	0.77470 0.50000 0.11840 -0.02900
C 	C 	0.84700 0.50000 0.12080 0.09000
C 	C 	0.98700 0.50000 0.12480 -0.14000
C 	C 	0.06460 0.50000 0.12360 0.41200
O 	O 	0.31011 0.91543 0.55187 -0.51300
O 	O 	0.21760 0.94576 0.51900 -0.50100
O 	O 	0.20520 0.59990 0.17050 -0.49200
O 	O 	0.29660 0.56180 0.20410 -0.54000
O 	O 	0.40759 0.04037 0.62312 -0.50000
O 	O 	0.18989 0.58457 0.05187 -0.51800
O 	O 	0.28240 0.55424 0.01900 -0.51500
O 	O 	0.29480 0.90010 0.67050 -0.48900
O 	O 	0.20340 0.93820 0.70410 -0.52900
O 	O 	0.09241 0.45963 0.12312 -0.50300
O 	O 	0.31011 0.08457 0.55187 -0.52000
O 	O 	0.21760 0.05424 0.51900 -0.51700
O 	O 	0.20520 0.40010 0.17050 -0.49300
O 	O 	0.29660 0.43820 0.20410 -0.54000
O 	O 	0.40759 0.95963 0.62312 -0.48100
O 	O 	0.18989 0.41543 0.05187 -0.51900
O 	O 	0.28240 0.44576 0.01900 -0.51500
O 	O 	0.29480 0.09990 0.67050 -0.49400
O 	O 	0.20340 0.06180 0.70410 -0.54300
O 	O 	0.09241 0.54037 0.12312 -0.50300
O 	O 	0.25593 0.00000 0.61830 -0.97300
O 	O 	0.10410 0.00000 0.65226 -0.50100
O 	O 	0.10220 0.00000 0.57093 -0.50300
O 	O 	0.24407 0.50000 0.11830 -0.96300
O 	O 	0.39590 0.50000 0.15226 -0.49500
O 	O 	0.39780 0.50000 0.07093 -0.49800
Zn	Zn	0.68856 0.94237 0.38199 1.21400
Zn	Zn	0.81144 0.55763 0.88199 1.21000
Zn	Zn	0.68856 0.05763 0.38199 1.20900
Zn	Zn	0.81144 0.44237 0.88199 1.21000
Zn	Zn	0.80041 0.00000 0.43794 1.20800
Zn	Zn	0.80124 0.00000 0.32423 1.20900
Zn	Zn	0.69959 0.50000 0.93794 1.21100
Zn	Zn	0.69876 0.50000 0.82423 1.21300
H 	H 	0.64190 0.85150 0.50100 0.01600
H 	H 	0.63630 0.79560 0.56350 0.08300
H 	H 	0.80530 0.84760 0.61690 0.08800
H 	H 	0.81170 0.90610 0.55630 0.02500
H 	H 	0.81010 0.73590 0.73170 0.08600
H 	H 	0.82270 0.67120 0.78460 0.01500
H 	H 	0.66270 0.60860 0.72780 0.01400
H 	H 	0.65240 0.67250 0.67390 0.08200
H 	H 	0.35800 0.07340 0.37820 0.08000
H 	H 	0.47540 0.07230 0.37790 0.02300
H 	H 	0.85810 0.64850 0.00100 0.01500
H 	H 	0.86370 0.70440 0.06350 0.08500
H 	H 	0.69470 0.65240 0.11690 0.08600
H 	H 	0.68830 0.59390 0.05630 0.01800
H 	H 	0.68990 0.76410 0.23170 0.08500
H 	H 	0.67730 0.82880 0.28460 0.01600
H 	H 	0.83730 0.89140 0.22780 0.01900
H 	H 	0.84760 0.82750 0.17390 0.08300
H 	H 	0.14200 0.42660 0.87820 0.08400
H 	H 	0.02460 0.42770 0.87790 0.02200
H 	H 	0.64190 0.14850 0.50100 0.01400
H 	H 	0.63630 0.20440 0.56350 0.08400
H 	H 	0.80530 0.15240 0.61690 0.08500
H 	H 	0.81170 0.09390 0.55630 0.01800
H 	H 	0.81010 0.26410 0.73170 0.08400
H 	H 	0.82270 0.32880 0.78460 0.01400
H 	H 	0.66270 0.39140 0.72780 0.01400
H 	H 	0.65240 0.32750 0.67390 0.08100
H 	H 	0.35800 0.92660 0.37820 0.07900
H 	H 	0.47540 0.92770 0.37790 0.02000
H 	H 	0.85810 0.35150 0.00100 0.01400
H 	H 	0.86370 0.29560 0.06350 0.08300
H 	H 	0.69470 0.34760 0.11690 0.08500
H 	H 	0.68830 0.40610 0.05630 0.01800
H 	H 	0.68990 0.23590 0.23170 0.08400
H 	H 	0.67730 0.17120 0.28460 0.01400
H 	H 	0.83730 0.10860 0.22780 0.01200
H 	H 	0.84760 0.17250 0.17390 0.08000
H 	H 	0.14200 0.57340 0.87820 0.08400
H 	H 	0.02460 0.57230 0.87790 0.02300
H 	H 	0.00840 0.00000 0.31650 0.02000
H 	H 	0.12640 0.00000 0.31240 0.07500
H 	H 	0.13160 -0.00000 0.45660 0.08500
H 	H 	0.01500 0.00000 0.45860 0.02000
H 	H 	0.49160 0.50000 0.81650 0.02300
H 	H 	0.37360 0.50000 0.81240 0.07700
H 	H 	0.36840 0.50000 0.95660 0.08700
H 	H 	0.48500 0.50000 0.95860 0.02300
C 	C 	0.73400 0.91730 0.47940 0.43500
C 	C 	0.72910 0.88230 0.52020 -0.16400
C 	C 	0.67700 0.85080 0.52420 0.08500
C 	C 	0.67370 0.81700 0.56180 -0.15300
C 	C 	0.72370 0.81450 0.59640 0.11100
C 	C 	0.77130 0.84750 0.59280 -0.15500
C 	C 	0.77650 0.88280 0.55610 0.08300
C 	C 	0.72360 0.77960 0.63100 -0.04400
C 	C 	0.72460 0.74910 0.66120 -0.03200
C 	C 	0.73000 0.71170 0.69800 0.10600
C 	C 	0.77850 0.71020 0.73050 -0.16000
C 	C 	0.78540 0.67220 0.76320 0.08900
C 	C 	0.73980 0.63800 0.76400 -0.15400
C 	C 	0.69220 0.63560 0.72980 0.07800
C 	C 	0.68720 0.67340 0.69740 -0.15100
C 	C 	0.74580 0.59350 0.79580 0.37400
C 	C 	0.38170 0.04360 0.37820 -0.13000
C 	C 	0.45130 0.04270 0.37720 0.06400
C 	C 	0.76600 0.58270 0.97940 0.43700
C 	C 	0.77090 0.61770 0.02020 -0.16900
C 	C 	0.82300 0.64920 0.02420 0.08800
C 	C 	0.82630 0.68300 0.06180 -0.15700
C 	C 	0.77630 0.68550 0.09640 0.11400
C 	C 	0.72870 0.65250 0.09280 -0.16000
C 	C 	0.72350 0.61720 0.05610 0.08600
C 	C 	0.77640 0.72040 0.13100 -0.04700
C 	C 	0.77540 0.75090 0.16120 -0.03000
C 	C 	0.77000 0.78830 0.19800 0.10400
C 	C 	0.72150 0.78980 0.23050 -0.15700
C 	C 	0.71460 0.82780 0.26320 0.08600
C 	C 	0.76020 0.86200 0.26400 -0.14900
C 	C 	0.80780 0.86440 0.22980 0.07600
C 	C 	0.81280 0.82660 0.19740 -0.14800
C 	C 	0.75420 0.90650 0.29580 0.37300
C 	C 	0.11830 0.45640 0.87820 -0.13900
C 	C 	0.04870 0.45730 0.87720 0.06800
C 	C 	0.73400 0.08270 0.47940 0.43700
C 	C 	0.72910 0.11770 0.52020 -0.17000
C 	C 	0.67700 0.14920 0.52420 0.08700
C 	C 	0.67370 0.18300 0.56180 -0.15700
C 	C 	0.72370 0.18550 0.59640 0.11300
C 	C 	0.77130 0.15250 0.59280 -0.16000
C 	C 	0.77650 0.11720 0.55610 0.08500
C 	C 	0.72360 0.22040 0.63100 -0.04700
C 	C 	0.72460 0.25090 0.66120 -0.03200
C 	C 	0.73000 0.28830 0.69800 0.10400
C 	C 	0.77850 0.28980 0.73050 -0.15900
C 	C 	0.78540 0.32780 0.76320 0.08800
C 	C 	0.73980 0.36200 0.76400 -0.15400
C 	C 	0.69220 0.36440 0.72980 0.07700
C 	C 	0.68720 0.32660 0.69740 -0.15100
C 	C 	0.74580 0.40650 0.79580 0.37300
C 	C 	0.38170 0.95640 0.37820 -0.11000
C 	C 	0.45130 0.95730 0.37720 0.08500
C 	C 	0.76600 0.41730 0.97940 0.43700
C 	C 	0.77090 0.38230 0.02020 -0.16900
C 	C 	0.82300 0.35080 0.02420 0.08700
C 	C 	0.82630 0.31700 0.06180 -0.15600
C 	C 	0.77630 0.31450 0.09640 0.11200
C 	C 	0.72870 0.34750 0.09280 -0.15900
C 	C 	0.72350 0.38280 0.05610 0.08500
C 	C 	0.77640 0.27960 0.13100 -0.04700
C 	C 	0.77540 0.24910 0.16120 -0.03300
C 	C 	0.77000 0.21170 0.19800 0.10500
C 	C 	0.72150 0.21020 0.23050 -0.16000
C 	C 	0.71460 0.17220 0.26320 0.08800
C 	C 	0.76020 0.13800 0.26400 -0.15500
C 	C 	0.80780 0.13560 0.22980 0.07800
C 	C 	0.81280 0.17340 0.19740 -0.15200
C 	C 	0.75420 0.09350 0.29580 0.37300
C 	C 	0.11830 0.54360 0.87820 -0.13900
C 	C 	0.04870 0.54270 0.87720 0.06800
C 	C 	0.92450 -0.00000 0.38850 0.38900
C 	C 	0.00240 0.00000 0.38880 -0.14300
C 	C 	0.03430 0.00000 0.34520 0.06200
C 	C 	0.10450 0.00000 0.34270 -0.13900
C 	C 	0.14280 -0.00000 0.38510 0.09000
C 	C 	0.10740 0.00000 0.42720 -0.14600
C 	C 	0.03760 0.00000 0.42850 0.07800
C 	C 	0.21510 -0.00000 0.38440 -0.04100
C 	C 	0.27470 -0.00000 0.38160 -0.02400
C 	C 	0.34700 0.00000 0.37920 0.05900
C 	C 	0.48700 0.00000 0.37520 -0.15600
C 	C 	0.56460 0.00000 0.37640 0.38700
C 	C 	0.57550 0.50000 0.88850 0.38900
C 	C 	0.49760 0.50000 0.88880 -0.13900
C 	C 	0.46570 0.50000 0.84520 0.06100
C 	C 	0.39550 0.50000 0.84270 -0.13400
C 	C 	0.35720 0.50000 0.88510 0.08800
C 	C 	0.39260 0.50000 0.92720 -0.14100
C 	C 	0.46240 0.50000 0.92850 0.07700
C 	C 	0.28490 0.50000 0.88440 -0.03000
C 	C 	0.22530 0.50000 0.88160 -0.02900
C 	C 	0.15300 0.50000 0.87920 0.09000
C 	C 	0.01300 0.50000 0.87520 -0.14000
C 	C 	0.93540 0.50000 0.87640 0.41200
O 	O 	0.68989 0.91543 0.44813 -0.51300
O 	O 	0.78240 0.94576 0.48100 -0.50100
O 	O 	0.79480 0.59990 0.82950 -0.49200
O 	O 	0.70340 0.56180 0.79590 -0.54000
O 	O 	0.59241 0.04037 0.37688 -0.50000
O 	O 	0.81011 0.58457 0.94813 -0.51800
O 	O 	0.71760 0.55424 0.98100 -0.51500
O 	O 	0.70520 0.90010 0.32950 -0.48900
O 	O 	0.79660 0.93820 0.29590 -0.52900
O 	O 	0.90759 0.45963 0.87688 -0.50300
O 	O 	0.68989 0.08457 0.44813 -0.52000
O 	O 	0.78240 0.05424 0.48100 -0.51700
O 	O 	0.79480 0.40010 0.82950 -0.49300
O 	O 	0.70340 0.43820 0.79590 -0.54000
O 	O 	0.59241 0.95963 0.37688 -0.48100
O 	O 	0.81011 0.41543 0.94813 -0.51900
O 	O 	0.71760 0.44576 0.98100 -0.51500
O 	O 	0.70520 0.09990 0.32950 -0.49400
O 	O 	0.79660 0.06180 0.29590 -0.54300
O 	O 	0.90759 0.54037 0.87688 -0.50300
O 	O 	0.74407 0.00000 0.38170 -0.97300
O 	O 	0.89590 0.00000 0.34774 -0.50100
O 	O 	0.89780 0.00000 0.42907 -0.50300
O 	O 	0.75593 0.50000 0.88170 -0.96300
O 	O 	0.60410 0.50000 0.84774 -0.49500
O 	O 	0.60220 0.50000 0.92907 -0.49800
