data_crystal

_cell_length_a 20.50500
_cell_length_b 10.34820
_cell_length_c 29.52100
_cell_angle_alpha 90.00000
_cell_angle_beta  113.51800
_cell_angle_gamma 90.00000

_symmetry_space_group_name_	'P 1'
_symmetry_space_group_name_H-M	'P 1'

loop_
_symmetry_equiv_pos_as_xyz
  x,y,z

loop_
_atom_site_label
_atom_site_type_symbol
_atom_site_fract_x
_atom_site_fract_y
_atom_site_fract_z
_atom_site_charge
Ni	Ni	0.33655 0.67752 0.16392 1.09600
O 	O 	0.25070 0.79490 0.14907 -0.40200
O 	O 	0.30320 0.98480 0.17180 -0.33400
O 	O 	0.15520 0.16270 0.26472 -0.42600
O 	O 	0.03950 0.19860 0.21910 -0.44300
O 	O 	0.08610 0.66780 0.90060 -0.33800
O 	O 	0.16890 0.81260 0.90705 -0.42600
O 	O 	0.40900 0.83730 0.18528 -0.95600
N 	N 	0.26500 0.52630 0.13960 -0.24900
C 	C 	0.24950 0.91240 0.15690 0.36700
C 	C 	0.17800 0.97060 0.14760 -0.13400
C 	C 	0.17120 0.03290 0.18710 0.07000
H 	H 	0.21050 0.03870 0.21710 0.02200
C 	C 	0.10680 0.08690 0.18290 -0.15400
C 	C 	0.10010 0.15460 0.22580 0.38200
C 	C 	0.04990 0.07890 0.13650 0.06700
H 	H 	0.00700 0.11750 0.13240 -0.00500
C 	C 	0.05490 0.01760 0.09760 -0.14800
H 	H 	0.01550 0.01260 0.06770 0.06900
C 	C 	0.11990 0.96120 0.10250 0.06100
C 	C 	0.12480 0.89680 0.05880 0.05100
C 	C 	0.18130 0.92790 0.04530 -0.12400
H 	H 	0.21740 0.98330 0.06460 0.08300
C 	C 	0.18210 0.87530 0.00310 0.06500
H 	H 	0.22050 0.89450 0.99510 0.02300
C 	C 	0.13000 0.79580 0.97180 -0.13900
C 	C 	0.12890 0.75430 0.92330 0.35300
C 	C 	0.07740 0.76050 0.98740 0.04600
H 	H 	0.04300 0.70110 0.96900 0.01200
C 	C 	0.07460 0.81190 0.02990 -0.12500
H 	H 	0.03780 0.78800 0.03900 0.06200
C 	C 	0.27660 0.41640 0.16380 0.12800
H 	H 	0.31580 0.41160 0.19390 -0.03300
C 	C 	0.23620 0.31170 0.14850 -0.20900
H 	H 	0.24680 0.23520 0.16650 0.11800
C 	C 	0.17880 0.32220 0.10520 0.11700
H 	H 	0.14890 0.25110 0.09390 -0.00900
C 	C 	0.16220 0.43380 0.07690 -0.18300
H 	H 	0.12270 0.44120 0.04720 0.09100
C 	C 	0.21010 0.53270 0.09690 0.11500
H 	H 	0.20320 0.60920 0.07910 0.00300
C 	C 	0.55860 0.95420 0.17990 -0.16500
H 	H 	0.54310 0.87640 0.16330 0.09900
C 	C 	0.59810 0.05400 0.16290 0.18400
H 	H 	0.61740 0.03060 0.14030 -0.02400
C 	C 	0.61500 0.17500 0.22470 0.09000
H 	H 	0.64690 0.23420 0.24570 0.00200
C 	C 	0.57660 0.08530 0.24540 -0.08800
H 	H 	0.57410 0.10210 0.27560 0.05500
C 	C 	0.60540 0.17250 0.17990 -0.02600
H 	H 	0.60360 0.24570 0.16120 0.07900
N 	N 	0.54740 0.98510 0.22030 -0.19900
H 	H 	0.38100 0.89800 0.18600 0.39400
H 	H 	0.40900 0.81700 0.15730 0.37400
C 	C 	0.50850 0.09540 0.19910 0.10900
H 	H 	0.46310 0.10650 0.19840 -0.02700
C 	C 	0.53750 0.18910 0.17890 -0.15500
H 	H 	0.51150 0.26290 0.16470 0.07900
H 	H 	0.62480 0.23530 0.16640 -0.03200
C 	C 	0.64420 0.06220 0.20120 -0.30400
H 	H 	0.68960 0.05110 0.20180 0.14500
C 	C 	0.61520 0.96850 0.22130 0.21200
H 	H 	0.64120 0.89470 0.23550 -0.04200
Ni	Ni	0.83655 0.17752 0.16392 1.09800
O 	O 	0.75070 0.29490 0.14907 -0.40500
O 	O 	0.80320 0.48480 0.17180 -0.33200
O 	O 	0.65520 0.66270 0.26472 -0.42600
O 	O 	0.53950 0.69860 0.21910 -0.42800
O 	O 	0.58610 0.16780 0.90060 -0.32400
O 	O 	0.66890 0.31260 0.90705 -0.42300
O 	O 	0.90900 0.33730 0.18528 -0.94100
N 	N 	0.76500 0.02630 0.13960 -0.25000
C 	C 	0.74950 0.41240 0.15690 0.36400
C 	C 	0.67800 0.47060 0.14760 -0.13500
C 	C 	0.67120 0.53290 0.18710 0.06700
H 	H 	0.71050 0.53870 0.21710 0.02100
C 	C 	0.60680 0.58690 0.18290 -0.14800
C 	C 	0.60010 0.65460 0.22580 0.37900
C 	C 	0.54990 0.57890 0.13650 0.06700
H 	H 	0.50700 0.61750 0.13240 0.01000
C 	C 	0.55490 0.51760 0.09760 -0.14300
H 	H 	0.51550 0.51260 0.06770 0.08100
C 	C 	0.61990 0.46120 0.10250 0.06500
C 	C 	0.62480 0.39680 0.05880 0.05300
C 	C 	0.68130 0.42790 0.04530 -0.12000
H 	H 	0.71740 0.48330 0.06460 0.08400
C 	C 	0.68210 0.37530 0.00310 0.06300
H 	H 	0.72050 0.39450 0.99510 0.02500
C 	C 	0.63000 0.29580 0.97180 -0.13000
C 	C 	0.62890 0.25430 0.92330 0.35300
C 	C 	0.57740 0.26050 0.98740 0.04700
H 	H 	0.54300 0.20110 0.96900 0.02400
C 	C 	0.57460 0.31190 0.02990 -0.12000
H 	H 	0.53780 0.28800 0.03900 0.07100
C 	C 	0.77660 0.91640 0.16380 0.13200
H 	H 	0.81580 0.91160 0.19390 -0.03200
C 	C 	0.73620 0.81170 0.14850 -0.21100
H 	H 	0.74680 0.73520 0.16650 0.11800
C 	C 	0.67880 0.82220 0.10520 0.12000
H 	H 	0.64890 0.75110 0.09390 -0.00600
C 	C 	0.66220 0.93380 0.07690 -0.18600
H 	H 	0.62270 0.94120 0.04720 0.09900
C 	C 	0.71010 0.03270 0.09690 0.11500
H 	H 	0.70320 0.10920 0.07910 0.00300
C 	C 	0.05860 0.45420 0.17990 -0.33400
H 	H 	0.04310 0.37640 0.16330 0.14900
C 	C 	0.09810 0.55400 0.16290 0.43600
H 	H 	0.11740 0.53060 0.14030 -0.11000
C 	C 	0.11500 0.67500 0.22470 0.25800
H 	H 	0.14690 0.73420 0.24570 -0.05500
C 	C 	0.07660 0.58530 0.24540 -0.18000
H 	H 	0.07410 0.60210 0.27560 0.08700
C 	C 	0.10540 0.67250 0.17990 -0.18200
H 	H 	0.10360 0.74570 0.16120 0.22400
N 	N 	0.04740 0.48510 0.22030 -0.17300
H 	H 	0.88100 0.39800 0.18600 0.39300
H 	H 	0.90900 0.31700 0.15730 0.37700
C 	C 	0.00850 0.59540 0.19910 0.04600
H 	H 	0.96310 0.60650 0.19840 0.02800
C 	C 	0.03750 0.68910 0.17890 -0.14000
H 	H 	0.01150 0.76290 0.16470 0.05600
H 	H 	0.12480 0.73530 0.16640 -0.12500
C 	C 	0.14420 0.56220 0.20120 -0.50800
H 	H 	0.18960 0.55110 0.20180 0.22100
C 	C 	0.11520 0.46850 0.22130 0.36300
H 	H 	0.14120 0.39470 0.23550 -0.09400
Ni	Ni	0.66345 0.67752 0.33608 1.09500
O 	O 	0.74930 0.79490 0.35093 -0.40700
O 	O 	0.69680 0.98480 0.32820 -0.33500
O 	O 	0.84480 0.16270 0.23528 -0.42400
O 	O 	0.96050 0.19860 0.28090 -0.40500
O 	O 	0.91390 0.66780 0.59940 -0.30900
O 	O 	0.83110 0.81260 0.59295 -0.41800
O 	O 	0.59100 0.83730 0.31472 -0.95700
N 	N 	0.73500 0.52630 0.36040 -0.25100
C 	C 	0.75050 0.91240 0.34310 0.36500
C 	C 	0.82200 0.97060 0.35240 -0.13500
C 	C 	0.82880 0.03290 0.31290 0.06600
H 	H 	0.78950 0.03870 0.28290 0.02100
C 	C 	0.89320 0.08690 0.31710 -0.14000
C 	C 	0.89990 0.15460 0.27420 0.37400
C 	C 	0.95010 0.07890 0.36350 0.06800
H 	H 	0.99300 0.11750 0.36760 0.02500
C 	C 	0.94510 0.01760 0.40240 -0.13900
H 	H 	0.98450 0.01260 0.43230 0.09300
C 	C 	0.88010 0.96120 0.39750 0.07000
C 	C 	0.87520 0.89680 0.44120 0.05200
C 	C 	0.81870 0.92790 0.45470 -0.11200
H 	H 	0.78260 0.98330 0.43540 0.08000
C 	C 	0.81790 0.87530 0.49690 0.05300
H 	H 	0.77950 0.89450 0.50490 0.03100
C 	C 	0.87000 0.79580 0.52820 -0.11800
C 	C 	0.87110 0.75430 0.57670 0.35100
C 	C 	0.92260 0.76050 0.51260 0.04800
H 	H 	0.95700 0.70110 0.53100 0.03700
C 	C 	0.92540 0.81190 0.47010 -0.11400
H 	H 	0.96220 0.78800 0.46100 0.08000
C 	C 	0.72340 0.41640 0.33620 0.13200
H 	H 	0.68420 0.41160 0.30610 -0.03400
C 	C 	0.76380 0.31170 0.35150 -0.21300
H 	H 	0.75320 0.23520 0.33350 0.11900
C 	C 	0.82120 0.32220 0.39480 0.12200
H 	H 	0.85110 0.25110 0.40610 -0.00300
C 	C 	0.83780 0.43380 0.42310 -0.19000
H 	H 	0.87730 0.44120 0.45280 0.10600
C 	C 	0.78990 0.53270 0.40310 0.11500
H 	H 	0.79680 0.60920 0.42090 0.00300
C 	C 	0.44140 0.95420 0.32010 -0.16800
H 	H 	0.45690 0.87640 0.33670 0.10000
C 	C 	0.40190 0.05400 0.33710 0.18800
H 	H 	0.38260 0.03060 0.35970 -0.02500
C 	C 	0.38500 0.17500 0.27530 0.09200
H 	H 	0.35310 0.23420 0.25430 0.00200
C 	C 	0.42340 0.08530 0.25460 -0.08900
H 	H 	0.42590 0.10210 0.22440 0.05500
C 	C 	0.39460 0.17250 0.32010 -0.02700
H 	H 	0.39640 0.24570 0.33880 0.08200
N 	N 	0.45260 0.98510 0.27970 -0.19900
H 	H 	0.61900 0.89800 0.31400 0.39400
H 	H 	0.59100 0.81700 0.34270 0.37400
C 	C 	0.49150 0.09540 0.30090 0.11000
H 	H 	0.53690 0.10650 0.30160 -0.02700
C 	C 	0.46250 0.18910 0.32110 -0.15600
H 	H 	0.48850 0.26290 0.33530 0.07900
H 	H 	0.37520 0.23530 0.33360 -0.03400
C 	C 	0.35580 0.06220 0.29880 -0.30700
H 	H 	0.31040 0.05110 0.29820 0.14700
C 	C 	0.38480 0.96850 0.27870 0.21400
H 	H 	0.35880 0.89470 0.26450 -0.04100
Ni	Ni	0.16345 0.17752 0.33608 1.09300
O 	O 	0.24930 0.29490 0.35093 -0.40500
O 	O 	0.19680 0.48480 0.32820 -0.33700
O 	O 	0.34480 0.66270 0.23528 -0.42600
O 	O 	0.46050 0.69860 0.28090 -0.42800
O 	O 	0.41390 0.16780 0.59940 -0.32400
O 	O 	0.33110 0.31260 0.59295 -0.42200
O 	O 	0.09100 0.33730 0.31472 -0.96400
N 	N 	0.23500 0.02630 0.36040 -0.25200
C 	C 	0.25050 0.41240 0.34310 0.36700
C 	C 	0.32200 0.47060 0.35240 -0.13600
C 	C 	0.32880 0.53290 0.31290 0.06900
H 	H 	0.28950 0.53870 0.28290 0.02100
C 	C 	0.39320 0.58690 0.31710 -0.14800
C 	C 	0.39990 0.65460 0.27420 0.37900
C 	C 	0.45010 0.57890 0.36350 0.06800
H 	H 	0.49300 0.61750 0.36760 0.00900
C 	C 	0.44510 0.51760 0.40240 -0.14400
H 	H 	0.48450 0.51260 0.43230 0.08100
C 	C 	0.38010 0.46120 0.39750 0.06600
C 	C 	0.37520 0.39680 0.44120 0.05000
C 	C 	0.31870 0.42790 0.45470 -0.11500
H 	H 	0.28260 0.48330 0.43540 0.07900
C 	C 	0.31790 0.37530 0.49690 0.05400
H 	H 	0.27950 0.39450 0.50490 0.02800
C 	C 	0.37000 0.29580 0.52820 -0.12600
C 	C 	0.37110 0.25430 0.57670 0.35100
C 	C 	0.42260 0.26050 0.51260 0.04600
H 	H 	0.45700 0.20110 0.53100 0.02400
C 	C 	0.42540 0.31190 0.47010 -0.11900
H 	H 	0.46220 0.28800 0.46100 0.07100
C 	C 	0.22340 0.91640 0.33620 0.12900
H 	H 	0.18420 0.91160 0.30610 -0.03500
C 	C 	0.26380 0.81170 0.35150 -0.21200
H 	H 	0.25320 0.73520 0.33350 0.11900
C 	C 	0.32120 0.82220 0.39480 0.11900
H 	H 	0.35110 0.75110 0.40610 -0.00600
C 	C 	0.33780 0.93380 0.42310 -0.18600
H 	H 	0.37730 0.94120 0.45280 0.09800
C 	C 	0.28990 0.03270 0.40310 0.11400
H 	H 	0.29680 0.10920 0.42090 0.00300
C 	C 	0.94140 0.45420 0.32010 0.00100
H 	H 	0.95690 0.37640 0.33670 0.05100
C 	C 	0.90190 0.55400 0.33710 -0.06400
H 	H 	0.88260 0.53060 0.35970 0.06200
C 	C 	0.88500 0.67500 0.27530 -0.07600
H 	H 	0.85310 0.73420 0.25430 0.06000
C 	C 	0.92340 0.58530 0.25460 0.00400
H 	H 	0.92590 0.60210 0.22440 0.02400
C 	C 	0.89460 0.67250 0.32010 0.12800
H 	H 	0.89640 0.74570 0.33880 -0.06400
N 	N 	0.95260 0.48510 0.27970 -0.22200
H 	H 	0.11900 0.39800 0.31400 0.39400
H 	H 	0.09100 0.31700 0.34270 0.36900
C 	C 	0.99150 0.59540 0.30090 0.17400
H 	H 	0.03690 0.60650 0.30160 -0.08200
C 	C 	0.96250 0.68910 0.32110 -0.17200
H 	H 	0.98850 0.76290 0.33530 0.10300
H 	H 	0.87520 0.73530 0.33360 0.06100
C 	C 	0.85580 0.56220 0.29880 -0.10100
H 	H 	0.81040 0.55110 0.29820 0.07000
C 	C 	0.88480 0.46850 0.27870 0.06100
H 	H 	0.85880 0.39470 0.26450 0.01200
Ni	Ni	0.66345 0.32248 0.83608 1.09500
O 	O 	0.74930 0.20510 0.85093 -0.40700
O 	O 	0.69680 0.01520 0.82820 -0.33500
O 	O 	0.84480 0.83730 0.73528 -0.42400
O 	O 	0.96050 0.80140 0.78090 -0.40500
O 	O 	0.91390 0.33220 0.09940 -0.30800
O 	O 	0.83110 0.18740 0.09295 -0.41700
O 	O 	0.59100 0.16270 0.81472 -0.95700
N 	N 	0.73500 0.47370 0.86040 -0.25100
C 	C 	0.75050 0.08760 0.84310 0.36500
C 	C 	0.82200 0.02940 0.85240 -0.13500
C 	C 	0.82880 0.96710 0.81290 0.06600
H 	H 	0.78950 0.96130 0.78290 0.02100
C 	C 	0.89320 0.91310 0.81710 -0.14100
C 	C 	0.89990 0.84540 0.77420 0.37400
C 	C 	0.95010 0.92110 0.86350 0.06800
H 	H 	0.99300 0.88250 0.86760 0.02400
C 	C 	0.94510 0.98240 0.90240 -0.13900
H 	H 	0.98450 0.98740 0.93230 0.09300
C 	C 	0.88010 0.03880 0.89750 0.07000
C 	C 	0.87520 0.10320 0.94120 0.05000
C 	C 	0.81870 0.07210 0.95470 -0.10700
H 	H 	0.78260 0.01670 0.93540 0.07900
C 	C 	0.81790 0.12470 0.99690 0.04500
H 	H 	0.77950 0.10550 0.00490 0.03400
C 	C 	0.87000 0.20420 0.02820 -0.11300
C 	C 	0.87110 0.24570 0.07670 0.34900
C 	C 	0.92260 0.23950 0.01260 0.04700
H 	H 	0.95700 0.29890 0.03100 0.03700
C 	C 	0.92540 0.18810 0.97010 -0.11400
H 	H 	0.96220 0.21200 0.96100 0.08000
C 	C 	0.72340 0.58360 0.83620 0.13200
H 	H 	0.68420 0.58840 0.80610 -0.03400
C 	C 	0.76380 0.68830 0.85150 -0.21300
H 	H 	0.75320 0.76480 0.83350 0.11900
C 	C 	0.82120 0.67780 0.89480 0.12200
H 	H 	0.85110 0.74890 0.90610 -0.00300
C 	C 	0.83780 0.56620 0.92310 -0.19000
H 	H 	0.87730 0.55880 0.95280 0.10600
C 	C 	0.78990 0.46730 0.90310 0.11500
H 	H 	0.79680 0.39080 0.92090 0.00300
C 	C 	0.44140 0.04580 0.82010 -0.16800
H 	H 	0.45690 0.12360 0.83670 0.10000
C 	C 	0.40190 0.94600 0.83710 0.18800
H 	H 	0.38260 0.96940 0.85970 -0.02500
C 	C 	0.38500 0.82500 0.77530 0.09200
H 	H 	0.35310 0.76580 0.75430 0.00200
C 	C 	0.42340 0.91470 0.75460 -0.09000
H 	H 	0.42590 0.89790 0.72440 0.05500
C 	C 	0.39460 0.82750 0.82010 -0.02800
H 	H 	0.39640 0.75430 0.83880 0.08300
N 	N 	0.45260 0.01490 0.77970 -0.19900
H 	H 	0.61900 0.10200 0.81400 0.39400
H 	H 	0.59100 0.18300 0.84270 0.37400
C 	C 	0.49150 0.90460 0.80090 0.11000
H 	H 	0.53690 0.89350 0.80160 -0.02700
C 	C 	0.46250 0.81090 0.82110 -0.15700
H 	H 	0.48850 0.73710 0.83530 0.07900
H 	H 	0.37520 0.76470 0.83360 -0.03500
C 	C 	0.35580 0.93780 0.79880 -0.30700
H 	H 	0.31040 0.94890 0.79820 0.14700
C 	C 	0.38480 0.03150 0.77870 0.21400
H 	H 	0.35880 0.10530 0.76450 -0.04100
Ni	Ni	0.16345 0.82248 0.83608 1.09300
O 	O 	0.24930 0.70510 0.85093 -0.40500
O 	O 	0.19680 0.51520 0.82820 -0.33700
O 	O 	0.34480 0.33730 0.73528 -0.42600
O 	O 	0.46050 0.30140 0.78090 -0.42800
O 	O 	0.41390 0.83220 0.09940 -0.32300
O 	O 	0.33110 0.68740 0.09295 -0.42200
O 	O 	0.09100 0.66270 0.81472 -0.96400
N 	N 	0.23500 0.97370 0.86040 -0.25100
C 	C 	0.25050 0.58760 0.84310 0.36700
C 	C 	0.32200 0.52940 0.85240 -0.13700
C 	C 	0.32880 0.46710 0.81290 0.06900
H 	H 	0.28950 0.46130 0.78290 0.02100
C 	C 	0.39320 0.41310 0.81710 -0.14900
C 	C 	0.39990 0.34540 0.77420 0.37900
C 	C 	0.45010 0.42110 0.86350 0.06900
H 	H 	0.49300 0.38250 0.86760 0.00900
C 	C 	0.44510 0.48240 0.90240 -0.14400
H 	H 	0.48450 0.48740 0.93230 0.08100
C 	C 	0.38010 0.53880 0.89750 0.06700
C 	C 	0.37520 0.60320 0.94120 0.04800
C 	C 	0.31870 0.57210 0.95470 -0.11100
H 	H 	0.28260 0.51670 0.93540 0.07800
C 	C 	0.31790 0.62470 0.99690 0.04500
H 	H 	0.27950 0.60550 0.00490 0.03300
C 	C 	0.37000 0.70420 0.02820 -0.12100
C 	C 	0.37110 0.74570 0.07670 0.34900
C 	C 	0.42260 0.73950 0.01260 0.04600
H 	H 	0.45700 0.79890 0.03100 0.02500
C 	C 	0.42540 0.68810 0.97010 -0.12000
H 	H 	0.46220 0.71200 0.96100 0.07000
C 	C 	0.22340 0.08360 0.83620 0.12900
H 	H 	0.18420 0.08840 0.80610 -0.03500
C 	C 	0.26380 0.18830 0.85150 -0.21200
H 	H 	0.25320 0.26480 0.83350 0.11900
C 	C 	0.32120 0.17780 0.89480 0.11900
H 	H 	0.35110 0.24890 0.90610 -0.00600
C 	C 	0.33780 0.06620 0.92310 -0.18600
H 	H 	0.37730 0.05880 0.95280 0.09700
C 	C 	0.28990 0.96730 0.90310 0.11300
H 	H 	0.29680 0.89080 0.92090 0.00300
C 	C 	0.94140 0.54580 0.82010 0.00000
H 	H 	0.95690 0.62360 0.83670 0.05100
C 	C 	0.90190 0.44600 0.83710 -0.06300
H 	H 	0.88260 0.46940 0.85970 0.06100
C 	C 	0.88500 0.32500 0.77530 -0.07600
H 	H 	0.85310 0.26580 0.75430 0.06000
C 	C 	0.92340 0.41470 0.75460 0.00300
H 	H 	0.92590 0.39790 0.72440 0.02500
C 	C 	0.89460 0.32750 0.82010 0.12700
H 	H 	0.89640 0.25430 0.83880 -0.06400
N 	N 	0.95260 0.51490 0.77970 -0.22200
H 	H 	0.11900 0.60200 0.81400 0.39400
H 	H 	0.09100 0.68300 0.84270 0.36900
C 	C 	0.99150 0.40460 0.80090 0.17400
H 	H 	0.03690 0.39350 0.80160 -0.08200
C 	C 	0.96250 0.31090 0.82110 -0.17200
H 	H 	0.98850 0.23710 0.83530 0.10300
H 	H 	0.87520 0.26470 0.83360 0.06000
C 	C 	0.85580 0.43780 0.79880 -0.10200
H 	H 	0.81040 0.44890 0.79820 0.07100
C 	C 	0.88480 0.53150 0.77870 0.06100
H 	H 	0.85880 0.60530 0.76450 0.01200
Ni	Ni	0.33655 0.32248 0.66392 1.09500
O 	O 	0.25070 0.20510 0.64907 -0.40300
O 	O 	0.30320 0.01520 0.67180 -0.33500
O 	O 	0.15520 0.83730 0.76472 -0.42700
O 	O 	0.03950 0.80140 0.71910 -0.44400
O 	O 	0.08610 0.33220 0.40060 -0.33800
O 	O 	0.16890 0.18740 0.40705 -0.42700
O 	O 	0.40900 0.16270 0.68528 -0.95700
N 	N 	0.26500 0.47370 0.63960 -0.25000
C 	C 	0.24950 0.08760 0.65690 0.36600
C 	C 	0.17800 0.02940 0.64760 -0.13500
C 	C 	0.17120 0.96710 0.68710 0.06900
H 	H 	0.21050 0.96130 0.71710 0.02100
C 	C 	0.10680 0.91310 0.68290 -0.15400
C 	C 	0.10010 0.84540 0.72580 0.38200
C 	C 	0.04990 0.92110 0.63650 0.06700
H 	H 	0.00700 0.88250 0.63240 -0.00500
C 	C 	0.05490 0.98240 0.59760 -0.14800
H 	H 	0.01550 0.98740 0.56770 0.06900
C 	C 	0.11990 0.03880 0.60250 0.06200
C 	C 	0.12480 0.10320 0.55880 0.04900
C 	C 	0.18130 0.07210 0.54530 -0.12000
H 	H 	0.21740 0.01670 0.56460 0.08100
C 	C 	0.18210 0.12470 0.50310 0.05500
H 	H 	0.22050 0.10550 0.49510 0.02700
C 	C 	0.13000 0.20420 0.47180 -0.13400
C 	C 	0.12890 0.24570 0.42330 0.35100
C 	C 	0.07740 0.23950 0.48740 0.04500
H 	H 	0.04300 0.29890 0.46900 0.01200
C 	C 	0.07460 0.18810 0.52990 -0.12500
H 	H 	0.03780 0.21200 0.53900 0.06200
C 	C 	0.27660 0.58360 0.66380 0.12800
H 	H 	0.31580 0.58840 0.69390 -0.03300
C 	C 	0.23620 0.68830 0.64850 -0.20900
H 	H 	0.24680 0.76480 0.66650 0.11800
C 	C 	0.17880 0.67780 0.60520 0.11700
H 	H 	0.14890 0.74890 0.59390 -0.00900
C 	C 	0.16220 0.56620 0.57690 -0.18300
H 	H 	0.12270 0.55880 0.54720 0.09000
C 	C 	0.21010 0.46730 0.59690 0.11500
H 	H 	0.20320 0.39080 0.57910 0.00300
C 	C 	0.55860 0.04580 0.67990 -0.16500
H 	H 	0.54310 0.12360 0.66330 0.09900
C 	C 	0.59810 0.94600 0.66290 0.18400
H 	H 	0.61740 0.96940 0.64030 -0.02400
C 	C 	0.61500 0.82500 0.72470 0.08900
H 	H 	0.64690 0.76580 0.74570 0.00200
C 	C 	0.57660 0.91470 0.74540 -0.08800
H 	H 	0.57410 0.89790 0.77560 0.05500
C 	C 	0.60540 0.82750 0.67990 -0.02600
H 	H 	0.60360 0.75430 0.66120 0.07900
N 	N 	0.54740 0.01490 0.72030 -0.19900
H 	H 	0.38100 0.10200 0.68600 0.39400
H 	H 	0.40900 0.18300 0.65730 0.37400
C 	C 	0.50850 0.90460 0.69910 0.10900
H 	H 	0.46310 0.89350 0.69840 -0.02700
C 	C 	0.53750 0.81090 0.67890 -0.15500
H 	H 	0.51150 0.73710 0.66470 0.07900
H 	H 	0.62480 0.76470 0.66640 -0.03200
C 	C 	0.64420 0.93780 0.70120 -0.30400
H 	H 	0.68960 0.94890 0.70180 0.14500
C 	C 	0.61520 0.03150 0.72130 0.21200
H 	H 	0.64120 0.10530 0.73550 -0.04100
Ni	Ni	0.83655 0.82248 0.66392 1.09800
O 	O 	0.75070 0.70510 0.64907 -0.40500
O 	O 	0.80320 0.51520 0.67180 -0.33200
O 	O 	0.65520 0.33730 0.76472 -0.42600
O 	O 	0.53950 0.30140 0.71910 -0.42800
O 	O 	0.58610 0.83220 0.40060 -0.32400
O 	O 	0.66890 0.68740 0.40705 -0.42200
O 	O 	0.90900 0.66270 0.68528 -0.94100
N 	N 	0.76500 0.97370 0.63960 -0.24900
C 	C 	0.74950 0.58760 0.65690 0.36400
C 	C 	0.67800 0.52940 0.64760 -0.13500
C 	C 	0.67120 0.46710 0.68710 0.06700
H 	H 	0.71050 0.46130 0.71710 0.02100
C 	C 	0.60680 0.41310 0.68290 -0.14800
C 	C 	0.60010 0.34540 0.72580 0.37900
C 	C 	0.54990 0.42110 0.63650 0.06800
H 	H 	0.50700 0.38250 0.63240 0.01000
C 	C 	0.55490 0.48240 0.59760 -0.14300
H 	H 	0.51550 0.48740 0.56770 0.08100
C 	C 	0.61990 0.53880 0.60250 0.06500
C 	C 	0.62480 0.60320 0.55880 0.05100
C 	C 	0.68130 0.57210 0.54530 -0.11600
H 	H 	0.71740 0.51670 0.56460 0.08200
C 	C 	0.68210 0.62470 0.50310 0.05400
H 	H 	0.72050 0.60550 0.49510 0.02900
C 	C 	0.63000 0.70420 0.47180 -0.12600
C 	C 	0.62890 0.74570 0.42330 0.35100
C 	C 	0.57740 0.73950 0.48740 0.04700
H 	H 	0.54300 0.79890 0.46900 0.02400
C 	C 	0.57460 0.68810 0.52990 -0.12000
H 	H 	0.53780 0.71200 0.53900 0.07100
C 	C 	0.77660 0.08360 0.66380 0.13100
H 	H 	0.81580 0.08840 0.69390 -0.03200
C 	C 	0.73620 0.18830 0.64850 -0.21100
H 	H 	0.74680 0.26480 0.66650 0.11800
C 	C 	0.67880 0.17780 0.60520 0.12000
H 	H 	0.64890 0.24890 0.59390 -0.00600
C 	C 	0.66220 0.06620 0.57690 -0.18600
H 	H 	0.62270 0.05880 0.54720 0.09800
C 	C 	0.71010 0.96730 0.59690 0.11500
H 	H 	0.70320 0.89080 0.57910 0.00300
C 	C 	0.05860 0.54580 0.67990 -0.33400
H 	H 	0.04310 0.62360 0.66330 0.14900
C 	C 	0.09810 0.44600 0.66290 0.43700
H 	H 	0.11740 0.46940 0.64030 -0.11000
C 	C 	0.11500 0.32500 0.72470 0.25900
H 	H 	0.14690 0.26580 0.74570 -0.05600
C 	C 	0.07660 0.41470 0.74540 -0.18100
H 	H 	0.07410 0.39790 0.77560 0.08700
C 	C 	0.10540 0.32750 0.67990 -0.18200
H 	H 	0.10360 0.25430 0.66120 0.22500
N 	N 	0.04740 0.51490 0.72030 -0.17300
H 	H 	0.88100 0.60200 0.68600 0.39300
H 	H 	0.90900 0.68300 0.65730 0.37700
C 	C 	0.00850 0.40460 0.69910 0.04600
H 	H 	0.96310 0.39350 0.69840 0.02800
C 	C 	0.03750 0.31090 0.67890 -0.14000
H 	H 	0.01150 0.23710 0.66470 0.05500
H 	H 	0.12480 0.26470 0.66640 -0.12500
C 	C 	0.14420 0.43780 0.70120 -0.50900
H 	H 	0.18960 0.44890 0.70180 0.22100
C 	C 	0.11520 0.53150 0.72130 0.36400
H 	H 	0.14120 0.60530 0.73550 -0.09400
Ni	Ni	0.50000 0.84253 0.25000 1.13000
Ni	Ni	-0.00000 0.34253 0.25000 1.11100
Ni	Ni	0.50000 0.15747 0.75000 1.13000
Ni	Ni	0.00000 0.65747 0.75000 1.11100
