data_crystal

_cell_length_a 20.60000
_cell_length_b 10.42710
_cell_length_c 29.64600
_cell_angle_alpha 90.00000
_cell_angle_beta  113.51000
_cell_angle_gamma 90.00000

_symmetry_space_group_name_	'P 1'
_symmetry_space_group_name_H-M	'P 1'

loop_
_symmetry_equiv_pos_as_xyz
  x,y,z

loop_
_atom_site_label
_atom_site_type_symbol
_atom_site_fract_x
_atom_site_fract_y
_atom_site_fract_z
_atom_site_charge
Co	Co	0.16514 0.82583 0.33702 1.15500
O 	O 	0.04020 0.80530 0.21925 -0.45300
O 	O 	0.15520 0.84410 0.26513 -0.43900
O 	O 	0.30220 0.01750 0.17280 -0.33000
O 	O 	0.24960 0.20880 0.14893 -0.40600
O 	O 	0.08500 0.32920 0.90100 -0.34700
O 	O 	0.16940 0.18750 0.90838 -0.43300
O 	O 	0.09040 0.66230 0.31578 -0.95100
N 	N 	0.05030 0.51370 0.22200 -0.31300
N 	N 	0.23850 0.97920 0.36280 -0.25300
C 	C 	0.10060 0.85060 0.22570 0.38500
C 	C 	0.10730 0.91330 0.18320 -0.16300
C 	C 	0.17040 0.96920 0.18710 0.07300
H 	H 	0.20910 0.96480 0.21720 0.02400
C 	C 	0.17860 0.03120 0.14850 -0.13200
C 	C 	0.24920 0.08960 0.15750 0.35100
C 	C 	0.12080 0.03940 0.10260 0.07000
C 	C 	0.05880 0.98170 0.09880 -0.15200
H 	H 	0.02030 0.98290 0.06860 0.06900
C 	C 	0.05120 0.92290 0.13760 0.08000
H 	H 	0.00750 0.88840 0.13340 -0.01000
C 	C 	0.12550 0.10140 0.05890 0.04200
C 	C 	0.18210 0.07160 0.04640 -0.11200
H 	H 	0.21840 0.01860 0.06650 0.07800
C 	C 	0.18400 0.12220 0.00330 0.04800
H 	H 	0.22180 0.10240 0.99500 0.02700
C 	C 	0.12990 0.20210 0.97230 -0.13000
C 	C 	0.12890 0.24470 0.92390 0.35400
C 	C 	0.07710 0.23360 0.98660 0.03600
H 	H 	0.04160 0.28910 0.96710 0.01300
C 	C 	0.07410 0.18550 0.02990 -0.11600
H 	H 	0.03760 0.21010 0.03900 0.05900
C 	C 	0.07280 0.40740 0.24320 0.19900
H 	H 	0.06560 0.38720 0.27140 -0.05800
C 	C 	0.11110 0.31250 0.22400 -0.40000
H 	H 	0.12530 0.23210 0.23810 0.17000
C 	C 	0.12240 0.35130 0.18670 0.44700
H 	H 	0.14800 0.29810 0.17470 -0.11100
C 	C 	0.10100 0.45600 0.16550 -0.49500
H 	H 	0.10690 0.47880 0.13700 0.20900
C 	C 	0.06850 0.53550 0.18650 0.29200
H 	H 	0.05820 0.61730 0.17300 -0.07500
C 	C 	0.29250 0.96950 0.40570 0.10200
H 	H 	0.30050 0.89260 0.42290 0.00300
C 	C 	0.33830 0.07370 0.42580 -0.18600
H 	H 	0.37550 0.06750 0.45650 0.09600
C 	C 	0.32650 0.18560 0.39860 0.12400
H 	H 	0.35830 0.25350 0.40940 -0.00900
C 	C 	0.26940 0.19490 0.35700 -0.21600
H 	H 	0.25740 0.27200 0.34000 0.12100
C 	C 	0.22880 0.08840 0.34000 0.13700
H 	H 	0.19100 0.09420 0.30950 -0.04100
H 	H 	0.08300 0.66800 0.34230 0.37200
H 	H 	0.12300 0.60900 0.31600 0.37200
Co	Co	0.66514 0.32583 0.33702 1.15900
O 	O 	0.54020 0.30530 0.21925 -0.43300
O 	O 	0.65520 0.34410 0.26513 -0.43500
O 	O 	0.80220 0.51750 0.17280 -0.32600
O 	O 	0.74960 0.70880 0.14893 -0.40400
O 	O 	0.58500 0.82920 0.90100 -0.32800
O 	O 	0.66940 0.68750 0.90838 -0.42600
O 	O 	0.59040 0.16230 0.31578 -0.94200
N 	N 	0.55030 0.01370 0.22200 -0.30200
N 	N 	0.73850 0.47920 0.36280 -0.25200
C 	C 	0.60060 0.35060 0.22570 0.38300
C 	C 	0.60730 0.41330 0.18320 -0.15600
C 	C 	0.67040 0.46920 0.18710 0.07200
H 	H 	0.70910 0.46480 0.21720 0.02500
C 	C 	0.67860 0.53120 0.14850 -0.13100
C 	C 	0.74920 0.58960 0.15750 0.35000
C 	C 	0.62080 0.53940 0.10260 0.07200
C 	C 	0.55880 0.48170 0.09880 -0.14800
H 	H 	0.52030 0.48290 0.06860 0.08300
C 	C 	0.55120 0.42290 0.13760 0.08000
H 	H 	0.50750 0.38840 0.13340 0.00700
C 	C 	0.62550 0.60140 0.05890 0.04400
C 	C 	0.68210 0.57160 0.04640 -0.10700
H 	H 	0.71840 0.51860 0.06650 0.07900
C 	C 	0.68400 0.62220 0.00330 0.04700
H 	H 	0.72180 0.60240 0.99500 0.03000
C 	C 	0.62990 0.70210 0.97230 -0.12000
C 	C 	0.62890 0.74470 0.92390 0.35300
C 	C 	0.57710 0.73360 0.98660 0.03700
H 	H 	0.54160 0.78910 0.96710 0.02800
C 	C 	0.57410 0.68550 0.02990 -0.10900
H 	H 	0.53760 0.71010 0.03900 0.06900
C 	C 	0.57280 0.90740 0.24320 0.20100
H 	H 	0.56560 0.88720 0.27140 -0.04500
C 	C 	0.61110 0.81250 0.22400 -0.39000
H 	H 	0.62530 0.73210 0.23810 0.17000
C 	C 	0.62240 0.85130 0.18670 0.44000
H 	H 	0.64800 0.79810 0.17470 -0.10700
C 	C 	0.60100 0.95600 0.16550 -0.48400
H 	H 	0.60690 0.97880 0.13700 0.21000
C 	C 	0.56850 0.03550 0.18650 0.29300
H 	H 	0.55820 0.11730 0.17300 -0.06600
C 	C 	0.79250 0.46950 0.40570 0.10500
H 	H 	0.80050 0.39260 0.42290 0.00300
C 	C 	0.83830 0.57370 0.42580 -0.18600
H 	H 	0.87550 0.56750 0.45650 0.10500
C 	C 	0.82650 0.68560 0.39860 0.12800
H 	H 	0.85830 0.75350 0.40940 -0.00400
C 	C 	0.76940 0.69490 0.35700 -0.21600
H 	H 	0.75740 0.77200 0.34000 0.12300
C 	C 	0.72880 0.58840 0.34000 0.14000
H 	H 	0.69100 0.59420 0.30950 -0.03900
H 	H 	0.58300 0.16800 0.34230 0.38000
H 	H 	0.62300 0.10900 0.31600 0.37100
Co	Co	0.83486 0.82583 0.16298 1.16200
O 	O 	0.95980 0.80530 0.28075 -0.40600
O 	O 	0.84480 0.84410 0.23487 -0.43100
O 	O 	0.69780 0.01750 0.32720 -0.32900
O 	O 	0.75040 0.20880 0.35107 -0.40400
O 	O 	0.91500 0.32920 0.59900 -0.30900
O 	O 	0.83060 0.18750 0.59162 -0.42000
O 	O 	0.90960 0.66230 0.18422 -0.92500
N 	N 	0.94970 0.51370 0.27800 -0.28600
N 	N 	0.76150 0.97920 0.13720 -0.25000
C 	C 	0.89940 0.85060 0.27430 0.37800
C 	C 	0.89270 0.91330 0.31680 -0.14900
C 	C 	0.82960 0.96920 0.31290 0.07000
H 	H 	0.79090 0.96480 0.28280 0.02600
C 	C 	0.82140 0.03120 0.35150 -0.13000
C 	C 	0.75080 0.08960 0.34250 0.35000
C 	C 	0.87920 0.03940 0.39740 0.07600
C 	C 	0.94120 0.98170 0.40120 -0.14400
H 	H 	0.97970 0.98290 0.43140 0.09800
C 	C 	0.94880 0.92290 0.36240 0.07900
H 	H 	0.99250 0.88840 0.36660 0.02500
C 	C 	0.87450 0.10140 0.44110 0.04300
C 	C 	0.81790 0.07160 0.45360 -0.09800
H 	H 	0.78160 0.01860 0.43350 0.07500
C 	C 	0.81600 0.12220 0.49670 0.03500
H 	H 	0.77820 0.10240 0.50500 0.03600
C 	C 	0.87010 0.20210 0.52770 -0.10500
C 	C 	0.87110 0.24470 0.57610 0.35100
C 	C 	0.92290 0.23360 0.51340 0.03800
H 	H 	0.95840 0.28910 0.53290 0.04400
C 	C 	0.92590 0.18550 0.47010 -0.10200
H 	H 	0.96240 0.21010 0.46100 0.07900
C 	C 	0.92720 0.40740 0.25680 0.20100
H 	H 	0.93440 0.38720 0.22860 -0.03000
C 	C 	0.88890 0.31250 0.27600 -0.37400
H 	H 	0.87470 0.23210 0.26190 0.16900
C 	C 	0.87760 0.35130 0.31330 0.42700
H 	H 	0.85200 0.29810 0.32530 -0.10100
C 	C 	0.89900 0.45600 0.33450 -0.46700
H 	H 	0.89310 0.47880 0.36300 0.21000
C 	C 	0.93150 0.53550 0.31350 0.29000
H 	H 	0.94180 0.61730 0.32700 -0.05500
C 	C 	0.70750 0.96950 0.09430 0.10300
H 	H 	0.69950 0.89260 0.07710 0.00400
C 	C 	0.66170 0.07370 0.07420 -0.18400
H 	H 	0.62450 0.06750 0.04350 0.09600
C 	C 	0.67350 0.18560 0.10140 0.12500
H 	H 	0.64170 0.25350 0.09060 -0.00800
C 	C 	0.73060 0.19490 0.14300 -0.21300
H 	H 	0.74260 0.27200 0.16000 0.12200
C 	C 	0.77120 0.08840 0.16000 0.14000
H 	H 	0.80900 0.09420 0.19050 -0.03500
H 	H 	0.91700 0.66800 0.15770 0.38500
H 	H 	0.87700 0.60900 0.18400 0.36900
Co	Co	0.33486 0.32583 0.16298 1.15900
O 	O 	0.45980 0.30530 0.28075 -0.43300
O 	O 	0.34480 0.34410 0.23487 -0.43500
O 	O 	0.19780 0.51750 0.32720 -0.33100
O 	O 	0.25040 0.70880 0.35107 -0.40500
O 	O 	0.41500 0.82920 0.59900 -0.32800
O 	O 	0.33060 0.68750 0.59162 -0.42600
O 	O 	0.40960 0.16230 0.18422 -0.94200
N 	N 	0.44970 0.01370 0.27800 -0.30200
N 	N 	0.26150 0.47920 0.13720 -0.25000
C 	C 	0.39940 0.35060 0.27430 0.38300
C 	C 	0.39270 0.41330 0.31680 -0.15700
C 	C 	0.32960 0.46920 0.31290 0.07200
H 	H 	0.29090 0.46480 0.28280 0.02500
C 	C 	0.32140 0.53120 0.35150 -0.13200
C 	C 	0.25080 0.58960 0.34250 0.35100
C 	C 	0.37920 0.53940 0.39740 0.07300
C 	C 	0.44120 0.48170 0.40120 -0.14800
H 	H 	0.47970 0.48290 0.43140 0.08300
C 	C 	0.44880 0.42290 0.36240 0.08000
H 	H 	0.49250 0.38840 0.36660 0.00700
C 	C 	0.37450 0.60140 0.44110 0.04100
C 	C 	0.31790 0.57160 0.45360 -0.10200
H 	H 	0.28160 0.51860 0.43350 0.07400
C 	C 	0.31600 0.62220 0.49670 0.03600
H 	H 	0.27820 0.60240 0.50500 0.03400
C 	C 	0.37010 0.70210 0.52770 -0.11500
C 	C 	0.37110 0.74470 0.57610 0.35200
C 	C 	0.42290 0.73360 0.51340 0.03700
H 	H 	0.45840 0.78910 0.53290 0.02800
C 	C 	0.42590 0.68550 0.47010 -0.10900
H 	H 	0.46240 0.71010 0.46100 0.06900
C 	C 	0.42720 0.90740 0.25680 0.20100
H 	H 	0.43440 0.88720 0.22860 -0.04500
C 	C 	0.38890 0.81250 0.27600 -0.39000
H 	H 	0.37470 0.73210 0.26190 0.17000
C 	C 	0.37760 0.85130 0.31330 0.44000
H 	H 	0.35200 0.79810 0.32530 -0.10700
C 	C 	0.39900 0.95600 0.33450 -0.48400
H 	H 	0.39310 0.97880 0.36300 0.21000
C 	C 	0.43150 0.03550 0.31350 0.29300
H 	H 	0.44180 0.11730 0.32700 -0.06600
C 	C 	0.20750 0.46950 0.09430 0.10000
H 	H 	0.19950 0.39260 0.07710 0.00300
C 	C 	0.16170 0.57370 0.07420 -0.18500
H 	H 	0.12450 0.56750 0.04350 0.08700
C 	C 	0.17350 0.68560 0.10140 0.12100
H 	H 	0.14170 0.75350 0.09060 -0.01300
C 	C 	0.23060 0.69490 0.14300 -0.21400
H 	H 	0.24260 0.77200 0.16000 0.12100
C 	C 	0.27120 0.58840 0.16000 0.13700
H 	H 	0.30900 0.59420 0.19050 -0.03800
H 	H 	0.41700 0.16800 0.15770 0.38000
H 	H 	0.37700 0.10900 0.18400 0.37100
Co	Co	0.83486 0.17417 0.66298 1.16200
O 	O 	0.95980 0.19470 0.78075 -0.40600
O 	O 	0.84480 0.15590 0.73487 -0.43100
O 	O 	0.69780 0.98250 0.82720 -0.32900
O 	O 	0.75040 0.79120 0.85107 -0.40400
O 	O 	0.91500 0.67080 0.09900 -0.30900
O 	O 	0.83060 0.81250 0.09162 -0.42000
O 	O 	0.90960 0.33770 0.68422 -0.92500
N 	N 	0.94970 0.48630 0.77800 -0.28600
N 	N 	0.76150 0.02080 0.63720 -0.25000
C 	C 	0.89940 0.14940 0.77430 0.37800
C 	C 	0.89270 0.08670 0.81680 -0.14900
C 	C 	0.82960 0.03080 0.81290 0.07000
H 	H 	0.79090 0.03520 0.78280 0.02600
C 	C 	0.82140 0.96880 0.85150 -0.13000
C 	C 	0.75080 0.91040 0.84250 0.35000
C 	C 	0.87920 0.96060 0.89740 0.07700
C 	C 	0.94120 0.01830 0.90120 -0.14400
H 	H 	0.97970 0.01710 0.93140 0.09800
C 	C 	0.94880 0.07710 0.86240 0.07900
H 	H 	0.99250 0.11160 0.86660 0.02500
C 	C 	0.87450 0.89860 0.94110 0.04100
C 	C 	0.81790 0.92840 0.95360 -0.09300
H 	H 	0.78160 0.98140 0.93350 0.07300
C 	C 	0.81600 0.87780 0.99670 0.02600
H 	H 	0.77820 0.89760 0.00500 0.04100
C 	C 	0.87010 0.79790 0.02770 -0.10000
C 	C 	0.87110 0.75530 0.07610 0.35000
C 	C 	0.92290 0.76640 0.01340 0.03800
H 	H 	0.95840 0.71090 0.03290 0.04400
C 	C 	0.92590 0.81450 0.97010 -0.10300
H 	H 	0.96240 0.78990 0.96100 0.07800
C 	C 	0.92720 0.59260 0.75680 0.20000
H 	H 	0.93440 0.61280 0.72860 -0.03000
C 	C 	0.88890 0.68750 0.77600 -0.37400
H 	H 	0.87470 0.76790 0.76190 0.16900
C 	C 	0.87760 0.64870 0.81330 0.42700
H 	H 	0.85200 0.70190 0.82530 -0.10100
C 	C 	0.89900 0.54400 0.83450 -0.46700
H 	H 	0.89310 0.52120 0.86300 0.21000
C 	C 	0.93150 0.46450 0.81350 0.29000
H 	H 	0.94180 0.38270 0.82700 -0.05500
C 	C 	0.70750 0.03050 0.59430 0.10300
H 	H 	0.69950 0.10740 0.57710 0.00300
C 	C 	0.66170 0.92630 0.57420 -0.18400
H 	H 	0.62450 0.93250 0.54350 0.09600
C 	C 	0.67350 0.81440 0.60140 0.12500
H 	H 	0.64170 0.74650 0.59060 -0.00900
C 	C 	0.73060 0.80510 0.64300 -0.21300
H 	H 	0.74260 0.72800 0.66000 0.12200
C 	C 	0.77120 0.91160 0.66000 0.13900
H 	H 	0.80900 0.90580 0.69050 -0.03500
H 	H 	0.91700 0.33200 0.65770 0.38500
H 	H 	0.87700 0.39100 0.68400 0.36900
Co	Co	0.33486 0.67417 0.66298 1.15900
O 	O 	0.45980 0.69470 0.78075 -0.43300
O 	O 	0.34480 0.65590 0.73487 -0.43500
O 	O 	0.19780 0.48250 0.82720 -0.33100
O 	O 	0.25040 0.29120 0.85107 -0.40500
O 	O 	0.41500 0.17080 0.09900 -0.32800
O 	O 	0.33060 0.31250 0.09162 -0.42500
O 	O 	0.40960 0.83770 0.68422 -0.94200
N 	N 	0.44970 0.98630 0.77800 -0.30200
N 	N 	0.26150 0.52080 0.63720 -0.25000
C 	C 	0.39940 0.64940 0.77430 0.38300
C 	C 	0.39270 0.58670 0.81680 -0.15700
C 	C 	0.32960 0.53080 0.81290 0.07300
H 	H 	0.29090 0.53520 0.78280 0.02500
C 	C 	0.32140 0.46880 0.85150 -0.13200
C 	C 	0.25080 0.41040 0.84250 0.35100
C 	C 	0.37920 0.46060 0.89740 0.07400
C 	C 	0.44120 0.51830 0.90120 -0.14900
H 	H 	0.47970 0.51710 0.93140 0.08300
C 	C 	0.44880 0.57710 0.86240 0.08000
H 	H 	0.49250 0.61160 0.86660 0.00700
C 	C 	0.37450 0.39860 0.94110 0.03900
C 	C 	0.31790 0.42840 0.95360 -0.09700
H 	H 	0.28160 0.48140 0.93350 0.07200
C 	C 	0.31600 0.37780 0.99670 0.02600
H 	H 	0.27820 0.39760 0.00500 0.03900
C 	C 	0.37010 0.29790 0.02770 -0.11000
C 	C 	0.37110 0.25530 0.07610 0.35000
C 	C 	0.42290 0.26640 0.01340 0.03700
H 	H 	0.45840 0.21090 0.03290 0.02900
C 	C 	0.42590 0.31450 0.97010 -0.11000
H 	H 	0.46240 0.28990 0.96100 0.06800
C 	C 	0.42720 0.09260 0.75680 0.20100
H 	H 	0.43440 0.11280 0.72860 -0.04500
C 	C 	0.38890 0.18750 0.77600 -0.39000
H 	H 	0.37470 0.26790 0.76190 0.17000
C 	C 	0.37760 0.14870 0.81330 0.44000
H 	H 	0.35200 0.20190 0.82530 -0.10700
C 	C 	0.39900 0.04400 0.83450 -0.48400
H 	H 	0.39310 0.02120 0.86300 0.21000
C 	C 	0.43150 0.96450 0.81350 0.29300
H 	H 	0.44180 0.88270 0.82700 -0.06600
C 	C 	0.20750 0.53050 0.59430 0.10000
H 	H 	0.19950 0.60740 0.57710 0.00300
C 	C 	0.16170 0.42630 0.57420 -0.18500
H 	H 	0.12450 0.43250 0.54350 0.08700
C 	C 	0.17350 0.31440 0.60140 0.12100
H 	H 	0.14170 0.24650 0.59060 -0.01300
C 	C 	0.23060 0.30510 0.64300 -0.21300
H 	H 	0.24260 0.22800 0.66000 0.12100
C 	C 	0.27120 0.41160 0.66000 0.13700
H 	H 	0.30900 0.40580 0.69050 -0.03800
H 	H 	0.41700 0.83200 0.65770 0.38000
H 	H 	0.37700 0.89100 0.68400 0.37100
Co	Co	0.16514 0.17417 0.83702 1.15600
O 	O 	0.04020 0.19470 0.71925 -0.45200
O 	O 	0.15520 0.15590 0.76513 -0.43800
O 	O 	0.30220 0.98250 0.67280 -0.32900
O 	O 	0.24960 0.79120 0.64893 -0.40500
O 	O 	0.08500 0.67080 0.40100 -0.34600
O 	O 	0.16940 0.81250 0.40838 -0.43100
O 	O 	0.09040 0.33770 0.81578 -0.95000
N 	N 	0.05030 0.48630 0.72200 -0.31200
N 	N 	0.23850 0.02080 0.86280 -0.25200
C 	C 	0.10060 0.14940 0.72570 0.38600
C 	C 	0.10730 0.08670 0.68320 -0.16400
C 	C 	0.17040 0.03080 0.68710 0.07400
H 	H 	0.20910 0.03520 0.71720 0.02400
C 	C 	0.17860 0.96880 0.64850 -0.13200
C 	C 	0.24920 0.91040 0.65750 0.35100
C 	C 	0.12080 0.96060 0.60260 0.07000
C 	C 	0.05880 0.01830 0.59880 -0.15200
H 	H 	0.02030 0.01710 0.56860 0.06800
C 	C 	0.05120 0.07710 0.63760 0.08000
H 	H 	0.00750 0.11160 0.63340 -0.01000
C 	C 	0.12550 0.89860 0.55890 0.04000
C 	C 	0.18210 0.92840 0.54640 -0.10700
H 	H 	0.21840 0.98140 0.56650 0.07600
C 	C 	0.18400 0.87780 0.50330 0.03800
H 	H 	0.22180 0.89760 0.49500 0.03200
C 	C 	0.12990 0.79790 0.47230 -0.12500
C 	C 	0.12890 0.75530 0.42390 0.35200
C 	C 	0.07710 0.76640 0.48660 0.03600
H 	H 	0.04160 0.71090 0.46710 0.01300
C 	C 	0.07410 0.81450 0.52990 -0.11700
H 	H 	0.03760 0.78990 0.53900 0.05900
C 	C 	0.07280 0.59260 0.74320 0.19900
H 	H 	0.06560 0.61280 0.77140 -0.05800
C 	C 	0.11110 0.68750 0.72400 -0.40000
H 	H 	0.12530 0.76790 0.73810 0.17000
C 	C 	0.12240 0.64870 0.68670 0.44600
H 	H 	0.14800 0.70190 0.67470 -0.11100
C 	C 	0.10100 0.54400 0.66550 -0.49500
H 	H 	0.10690 0.52120 0.63700 0.20900
C 	C 	0.06850 0.46450 0.68650 0.29200
H 	H 	0.05820 0.38270 0.67300 -0.07500
C 	C 	0.29250 0.03050 0.90570 0.10100
H 	H 	0.30050 0.10740 0.92290 0.00300
C 	C 	0.33830 0.92630 0.92580 -0.18600
H 	H 	0.37550 0.93250 0.95650 0.09500
C 	C 	0.32650 0.81440 0.89860 0.12400
H 	H 	0.35830 0.74650 0.90940 -0.00900
C 	C 	0.26940 0.80510 0.85700 -0.21600
H 	H 	0.25740 0.72800 0.84000 0.12100
C 	C 	0.22880 0.91160 0.84000 0.13700
H 	H 	0.19100 0.90580 0.80950 -0.04100
H 	H 	0.08300 0.33200 0.84230 0.37200
H 	H 	0.12300 0.39100 0.81600 0.37200
Co	Co	0.66514 0.67417 0.83702 1.15900
O 	O 	0.54020 0.69470 0.71925 -0.43300
O 	O 	0.65520 0.65590 0.76513 -0.43500
O 	O 	0.80220 0.48250 0.67280 -0.32600
O 	O 	0.74960 0.29120 0.64893 -0.40400
O 	O 	0.58500 0.17080 0.40100 -0.32800
O 	O 	0.66940 0.31250 0.40838 -0.42600
O 	O 	0.59040 0.83770 0.81578 -0.94200
N 	N 	0.55030 0.98630 0.72200 -0.30200
N 	N 	0.73850 0.52080 0.86280 -0.25100
C 	C 	0.60060 0.64940 0.72570 0.38300
C 	C 	0.60730 0.58670 0.68320 -0.15700
C 	C 	0.67040 0.53080 0.68710 0.07200
H 	H 	0.70910 0.53520 0.71720 0.02500
C 	C 	0.67860 0.46880 0.64850 -0.13100
C 	C 	0.74920 0.41040 0.65750 0.35000
C 	C 	0.62080 0.46060 0.60260 0.07300
C 	C 	0.55880 0.51830 0.59880 -0.14800
H 	H 	0.52030 0.51710 0.56860 0.08300
C 	C 	0.55120 0.57710 0.63760 0.08000
H 	H 	0.50750 0.61160 0.63340 0.00700
C 	C 	0.62550 0.39860 0.55890 0.04200
C 	C 	0.68210 0.42840 0.54640 -0.10300
H 	H 	0.71840 0.48140 0.56650 0.07700
C 	C 	0.68400 0.37780 0.50330 0.03700
H 	H 	0.72180 0.39760 0.49500 0.03500
C 	C 	0.62990 0.29790 0.47230 -0.11500
C 	C 	0.62890 0.25530 0.42390 0.35200
C 	C 	0.57710 0.26640 0.48660 0.03700
H 	H 	0.54160 0.21090 0.46710 0.02800
C 	C 	0.57410 0.31450 0.52990 -0.11000
H 	H 	0.53760 0.28990 0.53900 0.06900
C 	C 	0.57280 0.09260 0.74320 0.20000
H 	H 	0.56560 0.11280 0.77140 -0.04500
C 	C 	0.61110 0.18750 0.72400 -0.39000
H 	H 	0.62530 0.26790 0.73810 0.17000
C 	C 	0.62240 0.14870 0.68670 0.44000
H 	H 	0.64800 0.20190 0.67470 -0.10700
C 	C 	0.60100 0.04400 0.66550 -0.48400
H 	H 	0.60690 0.02120 0.63700 0.21000
C 	C 	0.56850 0.96450 0.68650 0.29300
H 	H 	0.55820 0.88270 0.67300 -0.06600
C 	C 	0.79250 0.53050 0.90570 0.10500
H 	H 	0.80050 0.60740 0.92290 0.00300
C 	C 	0.83830 0.42630 0.92580 -0.18600
H 	H 	0.87550 0.43250 0.95650 0.10400
C 	C 	0.82650 0.31440 0.89860 0.12800
H 	H 	0.85830 0.24650 0.90940 -0.00400
C 	C 	0.76940 0.30510 0.85700 -0.21600
H 	H 	0.75740 0.22800 0.84000 0.12200
C 	C 	0.72880 0.41160 0.84000 0.13900
H 	H 	0.69100 0.40580 0.80950 -0.03900
H 	H 	0.58300 0.83200 0.84230 0.38000
H 	H 	0.62300 0.89100 0.81600 0.37100
Co	Co	0.00000 0.65927 0.25000 1.16800
Co	Co	0.50000 0.15927 0.25000 1.19300
Co	Co	0.00000 0.34073 0.75000 1.16800
Co	Co	0.50000 0.84073 0.75000 1.19300
