data_crystal

_cell_length_a 15.28800
_cell_length_b 15.28800
_cell_length_c 15.66300
_cell_angle_alpha 90.00000
_cell_angle_beta  90.00000
_cell_angle_gamma 120.00000

_symmetry_space_group_name_	'P 1'
_symmetry_space_group_name_H-M	'P 1'

loop_
_symmetry_equiv_pos_as_xyz
  x,y,z

loop_
_atom_site_label
_atom_site_type_symbol
_atom_site_fract_x
_atom_site_fract_y
_atom_site_fract_z
_atom_site_charge
Eu	Eu	0.66667 0.33334 0.75000 1.94300
Eu	Eu	0.33333 0.66666 0.75000 1.96700
Eu	Eu	0.33333 0.66666 0.25000 1.94800
Eu	Eu	0.66667 0.33334 0.25000 1.92300
Mn	Mn	0.50000 0.50000 -0.00000 1.22300
Mn	Mn	1.00000 0.50000 -0.00000 1.17800
Mn	Mn	0.50000 0.00000 -0.00000 1.17900
Mn	Mn	1.00000 0.50000 0.50000 1.24400
Mn	Mn	0.50000 0.50000 0.50000 1.28900
Mn	Mn	0.50000 0.00000 0.50000 1.24400
H 	H 	0.28860 0.05610 0.84290 0.04500
H 	H 	0.76750 0.71140 0.84290 0.06500
H 	H 	0.94390 0.23250 0.84290 0.03300
H 	H 	0.71140 0.94390 0.84290 0.09700
H 	H 	0.23250 0.28860 0.84290 0.07600
H 	H 	0.05610 0.76750 0.84290 0.10800
H 	H 	0.23250 0.94390 0.65710 0.08700
H 	H 	0.05610 0.28860 0.65710 0.07500
H 	H 	0.71140 0.76750 0.65710 0.05400
H 	H 	0.76750 0.05610 0.65710 0.01000
H 	H 	0.94390 0.71140 0.65710 0.02200
H 	H 	0.28860 0.23250 0.65710 0.04300
H 	H 	0.71140 0.94390 0.15710 0.05100
H 	H 	0.23250 0.28860 0.15710 0.02800
H 	H 	0.05610 0.76750 0.15710 0.06300
H 	H 	0.28860 0.05610 0.15710 -0.00400
H 	H 	0.76750 0.71140 0.15710 0.01700
H 	H 	0.94390 0.23250 0.15710 -0.01500
H 	H 	0.76750 0.05610 0.34290 0.00500
H 	H 	0.94390 0.71140 0.34290 0.01700
H 	H 	0.28860 0.23250 0.34290 0.03800
H 	H 	0.23250 0.94390 0.34290 0.08300
H 	H 	0.05610 0.28860 0.34290 0.07100
H 	H 	0.71140 0.76750 0.34290 0.04900
H 	H 	0.20100 0.10050 0.75000 0.03600
H 	H 	0.89950 0.79900 0.75000 0.03600
H 	H 	0.89950 0.10050 0.75000 0.00100
H 	H 	0.79900 0.89950 0.75000 0.05000
H 	H 	0.10050 0.20100 0.75000 0.05000
H 	H 	0.10050 0.89950 0.75000 0.08400
H 	H 	0.79900 0.89950 0.25000 0.04500
H 	H 	0.10050 0.20100 0.25000 0.04500
H 	H 	0.10050 0.89950 0.25000 0.08000
H 	H 	0.20100 0.10050 0.25000 0.03000
H 	H 	0.89950 0.79900 0.25000 0.03000
H 	H 	0.89950 0.10050 0.25000 -0.00500
C 	C 	0.42610 0.16230 0.80330 -0.03600
C 	C 	0.32290 0.10930 0.80490 -0.02800
C 	C 	0.49050 0.35170 0.64000 0.36900
C 	C 	0.73620 0.57390 0.80330 -0.02700
C 	C 	0.78640 0.67710 0.80490 -0.02800
C 	C 	0.86120 0.50950 0.64000 0.37100
C 	C 	0.83770 0.26380 0.80330 -0.04400
C 	C 	0.89070 0.21360 0.80490 -0.03400
C 	C 	0.64830 0.13880 0.64000 0.37000
C 	C 	0.57390 0.83770 0.80330 0.00100
C 	C 	0.67710 0.89070 0.80490 -0.03400
C 	C 	0.50950 0.64830 0.64000 0.37000
C 	C 	0.26380 0.42610 0.80330 -0.00900
C 	C 	0.21360 0.32290 0.80490 -0.03400
C 	C 	0.13880 0.49050 0.64000 0.36300
C 	C 	0.16230 0.73620 0.80330 0.00900
C 	C 	0.10930 0.78640 0.80490 -0.02900
C 	C 	0.35170 0.86120 0.64000 0.36400
C 	C 	0.26380 0.83770 0.69670 -0.00600
C 	C 	0.21360 0.89070 0.69510 -0.02700
C 	C 	0.13880 0.64830 0.86000 0.35700
C 	C 	0.16230 0.42610 0.69670 -0.01500
C 	C 	0.10930 0.32290 0.69510 -0.03200
C 	C 	0.35170 0.49050 0.86000 0.36200
C 	C 	0.57390 0.73620 0.69670 -0.02600
C 	C 	0.67710 0.78640 0.69510 -0.03100
C 	C 	0.50950 0.86120 0.86000 0.35600
C 	C 	0.73620 0.16230 0.69670 -0.06000
C 	C 	0.78640 0.10930 0.69510 -0.03200
C 	C 	0.86120 0.35170 0.86000 0.36300
C 	C 	0.83770 0.57390 0.69670 -0.05300
C 	C 	0.89070 0.67710 0.69510 -0.02500
C 	C 	0.64830 0.50950 0.86000 0.36100
C 	C 	0.42610 0.26380 0.69670 -0.04400
C 	C 	0.32290 0.21360 0.69510 -0.02500
C 	C 	0.49050 0.13880 0.86000 0.36400
C 	C 	0.57390 0.83770 0.19670 -0.03700
C 	C 	0.67710 0.89070 0.19510 -0.01900
C 	C 	0.50950 0.64830 0.36000 0.37200
C 	C 	0.26380 0.42610 0.19670 -0.04800
C 	C 	0.21360 0.32290 0.19510 -0.01700
C 	C 	0.13880 0.49050 0.36000 0.36500
C 	C 	0.16230 0.73620 0.19670 -0.02800
C 	C 	0.10930 0.78640 0.19510 -0.01300
C 	C 	0.35170 0.86120 0.36000 0.36600
C 	C 	0.42610 0.16230 0.19670 -0.07600
C 	C 	0.32290 0.10930 0.19510 -0.01200
C 	C 	0.49050 0.35170 0.36000 0.37100
C 	C 	0.73620 0.57390 0.19670 -0.06700
C 	C 	0.78640 0.67710 0.19510 -0.01100
C 	C 	0.86120 0.50950 0.36000 0.37300
C 	C 	0.83770 0.26380 0.19670 -0.08400
C 	C 	0.89070 0.21360 0.19510 -0.01800
C 	C 	0.64830 0.13880 0.36000 0.37200
C 	C 	0.73620 0.16230 0.30330 -0.07100
C 	C 	0.78640 0.10930 0.30490 -0.01900
C 	C 	0.86120 0.35170 0.14000 0.37300
C 	C 	0.83770 0.57390 0.30330 -0.06300
C 	C 	0.89070 0.67710 0.30490 -0.01300
C 	C 	0.64830 0.50950 0.14000 0.37200
C 	C 	0.42610 0.26380 0.30330 -0.05300
C 	C 	0.32290 0.21360 0.30490 -0.01300
C 	C 	0.49050 0.13880 0.14000 0.37400
C 	C 	0.26380 0.83770 0.30330 -0.01500
C 	C 	0.21360 0.89070 0.30490 -0.01400
C 	C 	0.13880 0.64830 0.14000 0.36700
C 	C 	0.16230 0.42610 0.30330 -0.02400
C 	C 	0.10930 0.32290 0.30490 -0.02000
C 	C 	0.35170 0.49050 0.14000 0.37300
C 	C 	0.57390 0.73620 0.30330 -0.03500
C 	C 	0.67710 0.78640 0.30490 -0.01900
C 	C 	0.50950 0.86120 0.14000 0.36600
C 	C 	0.27120 0.13560 0.75000 -0.05500
C 	C 	0.86440 0.72880 0.75000 -0.05500
C 	C 	0.86440 0.13560 0.75000 -0.06900
C 	C 	0.72880 0.86440 0.75000 -0.01200
C 	C 	0.13560 0.27120 0.75000 -0.01100
C 	C 	0.13560 0.86440 0.75000 0.00400
C 	C 	0.72880 0.86440 0.25000 -0.03900
C 	C 	0.13560 0.27120 0.25000 -0.03900
C 	C 	0.13560 0.86440 0.25000 -0.02300
C 	C 	0.27120 0.13560 0.25000 -0.08400
C 	C 	0.86440 0.72880 0.25000 -0.08400
C 	C 	0.86440 0.13560 0.25000 -0.09800
N 	N 	0.47756 0.23878 0.75000 -0.19000
N 	N 	0.76122 0.52244 0.75000 -0.19000
N 	N 	0.76122 0.23878 0.75000 -0.19000
N 	N 	0.52244 0.76122 0.75000 -0.19400
N 	N 	0.23878 0.47756 0.75000 -0.19400
N 	N 	0.23878 0.76122 0.75000 -0.19400
N 	N 	0.52244 0.76122 0.25000 -0.18800
N 	N 	0.23878 0.47756 0.25000 -0.18800
N 	N 	0.23878 0.76122 0.25000 -0.18900
N 	N 	0.47756 0.23878 0.25000 -0.18400
N 	N 	0.76122 0.52244 0.25000 -0.18400
N 	N 	0.76122 0.23878 0.25000 -0.18400
O 	O 	0.58540 0.38660 0.64365 -0.45500
O 	O 	0.61570 0.55240 0.09380 -0.49400
O 	O 	0.80120 0.41460 0.64365 -0.46700
O 	O 	0.93670 0.38430 0.09380 -0.53100
O 	O 	0.61340 0.19880 0.64365 -0.46800
O 	O 	0.44760 0.06330 0.09380 -0.52700
O 	O 	0.41460 0.61340 0.64365 -0.45400
O 	O 	0.38430 0.44760 0.09380 -0.48900
O 	O 	0.19880 0.58540 0.64365 -0.43800
O 	O 	0.06330 0.61570 0.09380 -0.43200
O 	O 	0.38660 0.80120 0.64365 -0.43700
O 	O 	0.55240 0.93670 0.09380 -0.43700
O 	O 	0.19880 0.61340 0.85635 -0.40400
O 	O 	0.06330 0.44760 0.40620 -0.39500
O 	O 	0.38660 0.58540 0.85635 -0.42100
O 	O 	0.55240 0.61570 0.40620 -0.44600
O 	O 	0.41460 0.80120 0.85635 -0.40500
O 	O 	0.38430 0.93670 0.40620 -0.39100
O 	O 	0.80120 0.38660 0.85635 -0.43300
O 	O 	0.93670 0.55240 0.40620 -0.48400
O 	O 	0.61340 0.41460 0.85635 -0.42100
O 	O 	0.44760 0.38430 0.40620 -0.45000
O 	O 	0.58540 0.19880 0.85635 -0.43200
O 	O 	0.61570 0.06330 0.40620 -0.48800
O 	O 	0.41460 0.61340 0.35635 -0.45200
O 	O 	0.38430 0.44760 0.90620 -0.37600
O 	O 	0.19880 0.58540 0.35635 -0.43600
O 	O 	0.06330 0.61570 0.90620 -0.32500
O 	O 	0.38660 0.80120 0.35635 -0.43500
O 	O 	0.55240 0.93670 0.90620 -0.32900
O 	O 	0.58540 0.38660 0.35635 -0.45300
O 	O 	0.61570 0.55240 0.90620 -0.38100
O 	O 	0.80120 0.41460 0.35635 -0.46500
O 	O 	0.93670 0.38430 0.90620 -0.41700
O 	O 	0.61340 0.19880 0.35635 -0.46600
O 	O 	0.44760 0.06330 0.90620 -0.41300
O 	O 	0.80120 0.38660 0.14365 -0.49200
O 	O 	0.93670 0.55240 0.59380 -0.48300
O 	O 	0.61340 0.41460 0.14365 -0.47900
O 	O 	0.44760 0.38430 0.59380 -0.45000
O 	O 	0.58540 0.19880 0.14365 -0.49100
O 	O 	0.61570 0.06330 0.59380 -0.48800
O 	O 	0.19880 0.61340 0.14365 -0.46000
O 	O 	0.06330 0.44760 0.59380 -0.39500
O 	O 	0.38660 0.58540 0.14365 -0.47800
O 	O 	0.55240 0.61570 0.59380 -0.44500
O 	O 	0.41460 0.80120 0.14365 -0.46100
O 	O 	0.38430 0.93670 0.59380 -0.39100
