data_crystal

_cell_length_a 15.35100
_cell_length_b 15.35100
_cell_length_c 15.81200
_cell_angle_alpha 90.00000
_cell_angle_beta  90.00000
_cell_angle_gamma 120.00000

_symmetry_space_group_name_	'P 1'
_symmetry_space_group_name_H-M	'P 1'

loop_
_symmetry_equiv_pos_as_xyz
  x,y,z

loop_
_atom_site_label
_atom_site_type_symbol
_atom_site_fract_x
_atom_site_fract_y
_atom_site_fract_z
_atom_site_charge
Tb	Tb	0.33333 0.66666 0.75000 1.83400
Tb	Tb	0.66667 0.33334 0.75000 1.83400
Tb	Tb	0.66667 0.33334 0.25000 1.81700
Tb	Tb	0.33333 0.66666 0.25000 1.81700
Mn	Mn	0.50000 0.00000 -0.00000 1.18500
Mn	Mn	0.50000 0.50000 -0.00000 1.22000
Mn	Mn	-0.00000 0.50000 -0.00000 1.18500
Mn	Mn	0.50000 0.00000 0.50000 1.24900
Mn	Mn	0.00000 0.50000 0.50000 1.24900
Mn	Mn	0.50000 0.50000 0.50000 1.28500
H 	H 	0.70870 0.94220 0.84380 0.09800
H 	H 	0.23350 0.29130 0.84380 0.06400
H 	H 	0.05780 0.76650 0.84380 0.05600
H 	H 	0.29130 0.05780 0.84380 0.04800
H 	H 	0.76650 0.70870 0.84380 0.08200
H 	H 	0.94220 0.23350 0.84380 0.08900
H 	H 	0.76650 0.05780 0.65620 0.03400
H 	H 	0.94220 0.70870 0.65620 0.07700
H 	H 	0.29130 0.23350 0.65620 0.04100
H 	H 	0.23350 0.94220 0.65620 0.06800
H 	H 	0.05780 0.29130 0.65620 0.02500
H 	H 	0.70870 0.76650 0.65620 0.06100
H 	H 	0.29130 0.05780 0.15620 0.00100
H 	H 	0.76650 0.70870 0.15620 0.03700
H 	H 	0.94220 0.23350 0.15620 0.04500
H 	H 	0.70870 0.94220 0.15620 0.05400
H 	H 	0.23350 0.29130 0.15620 0.01700
H 	H 	0.05780 0.76650 0.15620 0.01100
H 	H 	0.23350 0.94220 0.34380 0.06400
H 	H 	0.05780 0.29130 0.34380 0.02100
H 	H 	0.70870 0.76650 0.34380 0.05700
H 	H 	0.76650 0.05780 0.34380 0.03100
H 	H 	0.94220 0.70870 0.34380 0.07400
H 	H 	0.29130 0.23350 0.34380 0.03700
H 	H 	0.79750 0.89875 0.75000 0.06900
H 	H 	0.10125 0.20250 0.75000 0.01300
H 	H 	0.10125 0.89875 0.75000 0.04100
H 	H 	0.20250 0.10125 0.75000 0.01300
H 	H 	0.89875 0.79750 0.75000 0.06900
H 	H 	0.89875 0.10125 0.75000 0.04100
H 	H 	0.20250 0.10125 0.25000 0.00700
H 	H 	0.89875 0.79750 0.25000 0.06400
H 	H 	0.89875 0.10125 0.25000 0.03500
H 	H 	0.79750 0.89875 0.25000 0.06400
H 	H 	0.10125 0.20250 0.25000 0.00700
H 	H 	0.10125 0.89875 0.25000 0.03500
C 	C 	0.50615 0.85880 0.86001 0.35000
C 	C 	0.57250 0.83794 0.80261 0.00400
C 	C 	0.67487 0.89000 0.80536 -0.03200
C 	C 	0.35265 0.49385 0.86001 0.35200
C 	C 	0.26544 0.42750 0.80261 -0.01700
C 	C 	0.21513 0.32513 0.80536 -0.04200
C 	C 	0.14120 0.64735 0.86001 0.35500
C 	C 	0.16206 0.73456 0.80261 -0.01900
C 	C 	0.11000 0.78487 0.80536 -0.03800
C 	C 	0.49385 0.14120 0.86001 0.35400
C 	C 	0.42750 0.16206 0.80261 -0.02500
C 	C 	0.32513 0.11000 0.80536 -0.04300
C 	C 	0.64735 0.50615 0.86001 0.35500
C 	C 	0.73456 0.57250 0.80261 -0.00500
C 	C 	0.78487 0.67487 0.80536 -0.03200
C 	C 	0.85880 0.35265 0.86001 0.34900
C 	C 	0.83794 0.26544 0.80261 -0.00200
C 	C 	0.89000 0.21513 0.80536 -0.03800
C 	C 	0.64735 0.14120 0.63999 0.36100
C 	C 	0.73456 0.16206 0.69739 -0.03300
C 	C 	0.78487 0.11000 0.69464 -0.03500
C 	C 	0.85880 0.50615 0.63999 0.35500
C 	C 	0.83794 0.57250 0.69739 -0.01100
C 	C 	0.89000 0.67487 0.69464 -0.03100
C 	C 	0.49385 0.35265 0.63999 0.35800
C 	C 	0.42750 0.26544 0.69739 -0.03200
C 	C 	0.32513 0.21513 0.69464 -0.04000
C 	C 	0.35265 0.85880 0.63999 0.35400
C 	C 	0.26544 0.83794 0.69739 -0.01700
C 	C 	0.21513 0.89000 0.69464 -0.03600
C 	C 	0.14120 0.49385 0.63999 0.35900
C 	C 	0.16206 0.42750 0.69739 -0.04000
C 	C 	0.11000 0.32513 0.69464 -0.04000
C 	C 	0.50615 0.64735 0.63999 0.36000
C 	C 	0.57250 0.73456 0.69739 -0.02000
C 	C 	0.67487 0.78487 0.69464 -0.03000
C 	C 	0.49385 0.14120 0.13999 0.36100
C 	C 	0.42750 0.16206 0.19739 -0.06000
C 	C 	0.32513 0.11000 0.19464 -0.03000
C 	C 	0.64735 0.50615 0.13999 0.36200
C 	C 	0.73456 0.57250 0.19739 -0.04000
C 	C 	0.78487 0.67487 0.19464 -0.01900
C 	C 	0.85880 0.35265 0.13999 0.35500
C 	C 	0.83794 0.26544 0.19739 -0.03700
C 	C 	0.89000 0.21513 0.19464 -0.02500
C 	C 	0.50615 0.85880 0.13999 0.35600
C 	C 	0.57250 0.83794 0.19739 -0.03100
C 	C 	0.67487 0.89000 0.19464 -0.02000
C 	C 	0.35265 0.49385 0.13999 0.35900
C 	C 	0.26544 0.42750 0.19739 -0.05300
C 	C 	0.21513 0.32513 0.19464 -0.03000
C 	C 	0.14120 0.64735 0.13999 0.36200
C 	C 	0.16206 0.73456 0.19739 -0.05400
C 	C 	0.11000 0.78487 0.19464 -0.02500
C 	C 	0.35265 0.85880 0.36001 0.35500
C 	C 	0.26544 0.83794 0.30261 -0.02500
C 	C 	0.21513 0.89000 0.30536 -0.02600
C 	C 	0.14120 0.49385 0.36001 0.36100
C 	C 	0.16206 0.42750 0.30261 -0.04900
C 	C 	0.11000 0.32513 0.30536 -0.03100
C 	C 	0.50615 0.64735 0.36001 0.36200
C 	C 	0.57250 0.73456 0.30261 -0.02800
C 	C 	0.67487 0.78487 0.30536 -0.02000
C 	C 	0.64735 0.14120 0.36001 0.36200
C 	C 	0.73456 0.16206 0.30261 -0.04200
C 	C 	0.78487 0.11000 0.30536 -0.02600
C 	C 	0.85880 0.50615 0.36001 0.35700
C 	C 	0.83794 0.57250 0.30261 -0.01900
C 	C 	0.89000 0.67487 0.30536 -0.02100
C 	C 	0.49385 0.35265 0.36001 0.35900
C 	C 	0.42750 0.26544 0.30261 -0.04100
C 	C 	0.32513 0.21513 0.30536 -0.03100
C 	C 	0.72756 0.86378 0.75000 -0.01600
C 	C 	0.13622 0.27244 0.75000 -0.04000
C 	C 	0.13622 0.86378 0.75000 -0.02800
C 	C 	0.27244 0.13622 0.75000 -0.04000
C 	C 	0.86378 0.72756 0.75000 -0.01600
C 	C 	0.86378 0.13622 0.75000 -0.02800
C 	C 	0.27244 0.13622 0.25000 -0.06500
C 	C 	0.86378 0.72756 0.25000 -0.04000
C 	C 	0.86378 0.13622 0.25000 -0.05200
C 	C 	0.72756 0.86378 0.25000 -0.04000
C 	C 	0.13622 0.27244 0.25000 -0.06500
C 	C 	0.13622 0.86378 0.25000 -0.05200
N 	N 	0.52077 0.76039 0.75000 -0.18700
N 	N 	0.23962 0.47924 0.75000 -0.18700
N 	N 	0.23962 0.76039 0.75000 -0.18700
N 	N 	0.47923 0.23961 0.75000 -0.18700
N 	N 	0.76038 0.52076 0.75000 -0.18700
N 	N 	0.76038 0.23961 0.75000 -0.18700
N 	N 	0.47923 0.23961 0.25000 -0.18300
N 	N 	0.76038 0.52076 0.25000 -0.18200
N 	N 	0.76038 0.23961 0.25000 -0.18300
N 	N 	0.52077 0.76039 0.25000 -0.18200
N 	N 	0.23962 0.47924 0.25000 -0.18300
N 	N 	0.23962 0.76039 0.25000 -0.18300
O 	O 	0.55078 0.93500 0.90669 -0.33000
O 	O 	0.41280 0.80038 0.85542 -0.39500
O 	O 	0.38422 0.44922 0.90669 -0.37400
O 	O 	0.38758 0.58720 0.85542 -0.40900
O 	O 	0.06500 0.61578 0.90669 -0.39800
O 	O 	0.19962 0.61242 0.85542 -0.41700
O 	O 	0.44922 0.06500 0.90669 -0.40100
O 	O 	0.58720 0.19962 0.85542 -0.41800
O 	O 	0.61578 0.55078 0.90669 -0.36800
O 	O 	0.61242 0.41280 0.85542 -0.40700
O 	O 	0.93500 0.38422 0.90669 -0.33300
O 	O 	0.80038 0.38758 0.85542 -0.39600
O 	O 	0.61578 0.06500 0.59331 -0.46600
O 	O 	0.61242 0.19962 0.64458 -0.45000
O 	O 	0.93500 0.55078 0.59331 -0.39500
O 	O 	0.80038 0.41280 0.64458 -0.42700
O 	O 	0.44922 0.38422 0.59331 -0.44300
O 	O 	0.58720 0.38758 0.64458 -0.44100
O 	O 	0.38422 0.93500 0.59331 -0.39900
O 	O 	0.38758 0.80038 0.64458 -0.42800
O 	O 	0.06500 0.44922 0.59331 -0.46900
O 	O 	0.19962 0.58720 0.64458 -0.45100
O 	O 	0.55078 0.61578 0.59331 -0.43500
O 	O 	0.41280 0.61242 0.64458 -0.44000
O 	O 	0.44922 0.06500 0.09331 -0.51200
O 	O 	0.58720 0.19962 0.14458 -0.47400
O 	O 	0.61578 0.55078 0.09331 -0.47800
O 	O 	0.61242 0.41280 0.14458 -0.46300
O 	O 	0.93500 0.38422 0.09331 -0.44000
O 	O 	0.80038 0.38758 0.14458 -0.45000
O 	O 	0.55078 0.93500 0.09331 -0.43700
O 	O 	0.41280 0.80038 0.14458 -0.45000
O 	O 	0.38422 0.44922 0.09331 -0.48600
O 	O 	0.38758 0.58720 0.14458 -0.46500
O 	O 	0.06500 0.61578 0.09331 -0.50800
O 	O 	0.19962 0.61242 0.14458 -0.47300
O 	O 	0.38422 0.93500 0.40669 -0.39900
O 	O 	0.38758 0.80038 0.35542 -0.42600
O 	O 	0.06500 0.44922 0.40669 -0.47000
O 	O 	0.19962 0.58720 0.35542 -0.44900
O 	O 	0.55078 0.61578 0.40669 -0.43600
O 	O 	0.41280 0.61242 0.35542 -0.43800
O 	O 	0.61578 0.06500 0.40669 -0.46600
O 	O 	0.61242 0.19962 0.35542 -0.44800
O 	O 	0.93500 0.55078 0.40669 -0.39500
O 	O 	0.80038 0.41280 0.35542 -0.42500
O 	O 	0.44922 0.38422 0.40669 -0.44300
O 	O 	0.58720 0.38758 0.35542 -0.44000
