data_crystal

_cell_length_a 13.87730
_cell_length_b 21.60800
_cell_length_c 34.92210
_cell_angle_alpha 90.00000
_cell_angle_beta  96.23600
_cell_angle_gamma 90.00000

_symmetry_space_group_name_	'P 1'
_symmetry_space_group_name_H-M	'P 1'

loop_
_symmetry_equiv_pos_as_xyz
  x,y,z

loop_
_atom_site_label
_atom_site_type_symbol
_atom_site_fract_x
_atom_site_fract_y
_atom_site_fract_z
_atom_site_charge
Co	Co	0.47836 0.50654 0.85135 1.17400
Co	Co	0.29978 0.58416 0.81219 1.16400
Co	Co	0.27171 0.43149 0.83774 1.15900
Co	Co	0.97836 0.99346 0.35135 1.17200
Co	Co	0.79978 0.91584 0.31219 1.16400
Co	Co	0.77171 0.06851 0.33774 1.16000
H 	H 	0.74260 0.03390 0.08930 0.15500
H 	H 	0.52280 0.12510 0.93180 0.15600
H 	H 	0.60840 0.90550 0.01240 0.04000
H 	H 	0.59300 0.03530 0.92830 0.04200
H 	H 	0.65800 0.08430 0.03990 0.04600
H 	H 	0.64740 0.85530 0.95890 0.15600
H 	H 	0.10500 0.10660 0.94730 0.16000
H 	H 	0.09370 0.82730 0.98930 0.13600
H 	H 	0.15000 0.01680 0.12060 0.13400
H 	H 	0.08200 0.88690 0.03320 0.03500
H 	H 	0.42540 0.18640 0.89100 0.12000
H 	H 	0.14890 0.01230 0.95460 0.03900
H 	H 	0.39520 0.27910 0.86020 0.00600
H 	H 	0.66000 0.91900 0.14800 0.12500
H 	H 	0.66320 0.92550 0.21330 -0.00300
H 	H 	0.13040 0.06610 0.06480 0.03800
H 	H 	0.63510 0.35130 0.91870 0.00900
H 	H 	0.75640 0.09520 0.14460 0.11300
H 	H 	0.14290 0.00990 0.24980 -0.00500
H 	H 	0.76640 0.10010 0.21170 0.01100
H 	H 	0.64050 0.66440 0.90680 0.00400
H 	H 	0.16530 0.72760 0.99080 0.11200
H 	H 	0.12620 0.82150 0.89120 0.12400
H 	H 	0.69220 0.75720 0.93660 0.12100
H 	H 	0.16310 0.73330 0.85830 0.00300
H 	H 	0.16040 0.23850 0.85800 -0.02400
H 	H 	0.43530 0.83550 0.89670 0.13500
H 	H 	0.39110 0.74310 0.86610 -0.00100
H 	H 	0.66390 0.25880 0.95090 0.13000
H 	H 	0.12340 0.15400 0.89210 0.15600
H 	H 	0.21540 0.23720 0.98940 0.15500
H 	H 	0.20800 0.64110 0.95710 0.01300
H 	H 	0.19490 0.01390 0.18900 0.12000
H 	H 	0.93370 0.95620 0.14230 0.13300
H 	H 	0.24630 0.32630 0.95540 -0.01400
H 	H 	0.88410 0.94890 0.20430 -0.00100
H 	H 	0.24260 0.46610 0.58930 0.15600
H 	H 	0.02280 0.37490 0.43180 0.15700
H 	H 	0.10840 0.59450 0.51240 0.04100
H 	H 	0.09300 0.46470 0.42830 0.04300
H 	H 	0.15800 0.41570 0.53990 0.04700
H 	H 	0.14740 0.64470 0.45890 0.15600
H 	H 	0.60500 0.39340 0.44730 0.16100
H 	H 	0.59370 0.67270 0.48930 0.13600
H 	H 	0.65000 0.48320 0.62060 0.13500
H 	H 	0.58200 0.61310 0.53320 0.03400
H 	H 	0.92540 0.31360 0.39100 0.12000
H 	H 	0.64890 0.48770 0.45460 0.03800
H 	H 	0.89520 0.22090 0.36020 0.00600
H 	H 	0.16000 0.58100 0.64800 0.12500
H 	H 	0.16320 0.57450 0.71330 -0.00300
H 	H 	0.63040 0.43390 0.56480 0.03600
H 	H 	0.13510 0.14870 0.41870 0.00900
H 	H 	0.25640 0.40480 0.64460 0.11200
H 	H 	0.64290 0.49010 0.74980 -0.00200
H 	H 	0.26640 0.39990 0.71170 0.01100
H 	H 	0.14050 0.83560 0.40680 0.00600
H 	H 	0.66530 0.77240 0.49080 0.11200
H 	H 	0.62620 0.67850 0.39120 0.12500
H 	H 	0.19220 0.74280 0.43660 0.12000
H 	H 	0.66310 0.76670 0.35830 0.00300
H 	H 	0.66040 0.26150 0.35800 -0.02300
H 	H 	0.93530 0.66450 0.39670 0.13400
H 	H 	0.89110 0.75690 0.36610 0.00100
H 	H 	0.16390 0.24120 0.45090 0.13000
H 	H 	0.62340 0.34600 0.39210 0.15700
H 	H 	0.71540 0.26280 0.48940 0.15500
H 	H 	0.70800 0.85890 0.45710 0.01300
H 	H 	0.69490 0.48610 0.68900 0.11800
H 	H 	0.43370 0.54380 0.64230 0.13200
H 	H 	0.74630 0.17370 0.45540 -0.01400
H 	H 	0.38410 0.55110 0.70430 -0.00300
C 	C 	0.62560 0.07031 0.98172 -0.07400
C 	C 	0.61350 0.94737 0.00456 0.01000
C 	C 	0.64490 0.97226 0.07350 0.24300
C 	C 	0.60400 0.02445 0.95481 0.01600
C 	C 	0.63630 0.99290 0.03204 -0.06900
C 	C 	0.64230 0.05332 0.02099 0.01300
C 	C 	0.59810 0.96254 0.96544 -0.07200
C 	C 	0.09790 0.92816 0.02681 0.01200
C 	C 	0.56240 0.91646 0.93559 0.24800
C 	C 	0.12790 0.89490 0.95831 0.24500
C 	C 	0.46790 0.22030 0.89710 -0.22500
C 	C 	0.13830 0.00280 0.98034 0.01100
C 	C 	0.11940 0.94280 0.98963 -0.06800
C 	C 	0.16690 0.11410 0.99865 0.24000
C 	C 	0.70530 0.00673 0.13916 0.22500
C 	C 	0.14250 0.05040 0.00736 -0.07800
C 	C 	0.97470 0.97250 0.27219 0.41400
C 	C 	0.56810 0.80494 0.91989 0.22900
C 	C 	0.54810 0.21283 0.92455 0.22500
C 	C 	0.71470 0.01390 0.21951 -0.16700
C 	C 	0.10020 0.97510 0.05438 -0.07300
C 	C 	0.62910 0.13649 0.97158 0.24000
C 	C 	0.13650 0.78270 0.94417 0.21900
C 	C 	0.48540 0.38740 0.86798 0.37700
C 	C 	0.72160 0.01610 0.26275 0.37600
C 	C 	0.44980 0.27560 0.87894 0.13000
C 	C 	0.00880 0.97770 0.23294 -0.19600
C 	C 	0.67990 0.95650 0.16069 -0.22500
C 	C 	0.68300 0.96020 0.19937 0.12600
C 	C 	0.12510 0.03520 0.04538 0.01000
C 	C 	0.59090 0.31800 0.91363 0.12600
C 	C 	0.51160 0.69550 0.88302 -0.18900
C 	C 	0.48020 0.63450 0.86352 0.41700
C 	C 	0.06370 0.95930 0.09188 0.24100
C 	C 	0.16810 0.18690 0.94357 0.31200
C 	C 	0.06940 0.98490 0.16013 0.24600
C 	C 	0.73780 0.06050 0.15874 -0.21200
C 	C 	0.10000 0.99780 0.22800 0.15900
C 	C 	0.50820 0.32650 0.88697 -0.17100
C 	C 	0.74310 0.06350 0.19872 0.11800
C 	C 	0.18490 0.67800 0.90431 -0.16000
C 	C 	0.20900 0.29140 0.90313 -0.23900
C 	C 	0.59930 0.69960 0.90434 0.13900
C 	C 	0.16360 0.72920 0.96353 -0.21200
C 	C 	0.13990 0.78400 0.90490 -0.21800
C 	C 	0.62980 0.75440 0.92252 -0.23000
C 	C 	0.16280 0.73180 0.88542 0.12300
C 	C 	0.17190 0.23930 0.88533 0.21800
C 	C 	0.47820 0.80110 0.89876 -0.23300
C 	C 	0.45280 0.74600 0.88080 0.14700
C 	C 	0.60890 0.26280 0.93235 -0.22300
C 	C 	0.23130 0.34670 0.88066 0.37000
C 	C 	0.15110 0.18910 0.90550 -0.33200
C 	C 	0.20350 0.23740 0.96213 -0.30900
C 	C 	0.18820 0.67770 0.94339 0.11900
C 	C 	0.13070 0.00070 0.19190 -0.25400
C 	C 	0.97740 0.96640 0.16429 -0.24300
C 	C 	0.21820 0.62300 0.88233 0.34800
C 	C 	0.22290 0.29030 0.94177 0.20000
C 	C 	0.94790 0.96250 0.20128 0.14200
C 	C 	0.12560 0.42969 0.48172 -0.07300
C 	C 	0.11350 0.55263 0.50456 0.00900
C 	C 	0.14490 0.52774 0.57350 0.24300
C 	C 	0.10400 0.47555 0.45481 0.01500
C 	C 	0.13630 0.50710 0.53204 -0.06800
C 	C 	0.14230 0.44668 0.52099 0.01200
C 	C 	0.09810 0.53746 0.46544 -0.07100
C 	C 	0.59790 0.57184 0.52681 0.01500
C 	C 	0.06240 0.58354 0.43559 0.24800
C 	C 	0.62790 0.60510 0.45831 0.24600
C 	C 	0.96790 0.27970 0.39710 -0.22500
C 	C 	0.63830 0.49720 0.48034 0.01700
C 	C 	0.61940 0.55720 0.48963 -0.07300
C 	C 	0.66690 0.38590 0.49865 0.24200
C 	C 	0.20530 0.49327 0.63916 0.22300
C 	C 	0.64250 0.44960 0.50736 -0.08200
C 	C 	0.47470 0.52750 0.77219 0.42400
C 	C 	0.06810 0.69506 0.41989 0.22900
C 	C 	0.04810 0.28717 0.42455 0.22500
C 	C 	0.21470 0.48610 0.71951 -0.16800
C 	C 	0.60020 0.52490 0.55438 -0.07700
C 	C 	0.12910 0.36351 0.47158 0.24000
C 	C 	0.63650 0.71730 0.44417 0.21900
C 	C 	0.98540 0.11260 0.36798 0.37700
C 	C 	0.22160 0.48390 0.76275 0.37400
C 	C 	0.94980 0.22440 0.37894 0.13000
C 	C 	0.50880 0.52230 0.73294 -0.20500
C 	C 	0.17990 0.54350 0.66069 -0.22400
C 	C 	0.18300 0.53980 0.69937 0.12700
C 	C 	0.62510 0.46480 0.54538 0.01500
C 	C 	0.09090 0.18200 0.41363 0.12700
C 	C 	0.01160 0.80450 0.38302 -0.17800
C 	C 	0.98020 0.86550 0.36352 0.40800
C 	C 	0.56370 0.54070 0.59188 0.24200
C 	C 	0.66810 0.31310 0.44357 0.31300
C 	C 	0.56940 0.51510 0.66013 0.23800
C 	C 	0.23780 0.43950 0.65874 -0.21200
C 	C 	0.60000 0.50220 0.72800 0.15500
C 	C 	0.00820 0.17350 0.38697 -0.17200
C 	C 	0.24310 0.43650 0.69872 0.11800
C 	C 	0.68490 0.82200 0.40431 -0.16000
C 	C 	0.70900 0.20860 0.40313 -0.23900
C 	C 	0.09930 0.80040 0.40434 0.13300
C 	C 	0.66360 0.77080 0.46353 -0.21200
C 	C 	0.63990 0.71600 0.40490 -0.21800
C 	C 	0.12980 0.74560 0.42252 -0.22700
C 	C 	0.66280 0.76820 0.38542 0.12300
C 	C 	0.67190 0.26070 0.38533 0.21900
C 	C 	0.97820 0.69890 0.39876 -0.23100
C 	C 	0.95280 0.75400 0.38080 0.13900
C 	C 	0.10890 0.23720 0.43235 -0.22300
C 	C 	0.73130 0.15330 0.38066 0.37000
C 	C 	0.65110 0.31090 0.40550 -0.33300
C 	C 	0.70350 0.26260 0.46213 -0.31000
C 	C 	0.68820 0.82230 0.44339 0.11900
C 	C 	0.63070 0.49930 0.69190 -0.24700
C 	C 	0.47740 0.53360 0.66429 -0.23800
C 	C 	0.71820 0.87700 0.38233 0.34800
C 	C 	0.72290 0.20970 0.44177 0.20000
C 	C 	0.44790 0.53750 0.70128 0.14800
N 	N 	0.70300 0.00787 0.09910 -0.25600
N 	N 	0.56210 0.15436 0.94160 -0.25800
N 	N 	0.59880 0.85957 0.94064 -0.26200
N 	N 	0.14220 0.13231 0.96176 -0.27900
N 	N 	0.11610 0.83515 0.96717 -0.24900
N 	N 	0.10210 0.99102 0.12326 -0.25900
N 	N 	0.20300 0.49213 0.59910 -0.25600
N 	N 	0.06210 0.34564 0.44160 -0.25900
N 	N 	0.09880 0.64043 0.44064 -0.26200
N 	N 	0.64220 0.36769 0.46176 -0.28000
N 	N 	0.61610 0.66485 0.46717 -0.24900
N 	N 	0.60210 0.50898 0.62326 -0.25900
O 	O 	0.60130 0.92656 0.08309 -0.25500
O 	O 	0.50120 0.93068 0.90969 -0.23800
O 	O 	0.14840 0.91130 0.92679 -0.25900
O 	O 	0.33710 0.51153 0.85052 -0.61400
O 	O 	0.00030 0.91989 0.09250 -0.26100
O 	O 	0.68590 0.17217 0.98844 -0.24000
O 	O 	0.75720 0.06356 0.27921 -0.43800
O 	O 	0.52440 0.58612 0.87391 -0.45800
O 	O 	0.02470 0.99616 0.30032 -0.46000
O 	O 	0.20830 0.14925 0.02311 -0.25800
O 	O 	0.69520 0.96783 0.27952 -0.44600
O 	O 	0.53150 0.43425 0.88114 -0.43300
O 	O 	0.40400 0.63935 0.84057 -0.45900
O 	O 	0.41880 0.39134 0.84034 -0.43200
O 	O 	0.89510 0.94529 0.27401 -0.47000
O 	O 	0.26560 0.39380 0.89701 -0.38000
O 	O 	0.21890 0.34462 0.84430 -0.41000
O 	O 	0.20260 0.62392 0.84666 -0.40600
O 	O 	0.26010 0.58020 0.90359 -0.26100
O 	O 	0.10130 0.57344 0.58309 -0.25500
O 	O 	0.00120 0.56932 0.40969 -0.23700
O 	O 	0.64840 0.58870 0.42679 -0.25900
O 	O 	0.83710 0.98847 0.35052 -0.61500
O 	O 	0.50030 0.58011 0.59250 -0.26300
O 	O 	0.18590 0.32783 0.48844 -0.24000
O 	O 	0.25720 0.43644 0.77921 -0.43800
O 	O 	0.02440 0.91388 0.37391 -0.45300
O 	O 	0.52470 0.50384 0.80032 -0.46600
O 	O 	0.70830 0.35075 0.52311 -0.25900
O 	O 	0.19520 0.53217 0.77952 -0.44600
O 	O 	0.03150 0.06575 0.38114 -0.43400
O 	O 	0.90400 0.86065 0.34057 -0.45700
O 	O 	0.91880 0.10866 0.34034 -0.43200
O 	O 	0.39510 0.55471 0.77401 -0.47200
O 	O 	0.76560 0.10620 0.39701 -0.37900
O 	O 	0.71890 0.15538 0.34430 -0.40900
O 	O 	0.70260 0.87608 0.34666 -0.40600
O 	O 	0.76010 0.91980 0.40359 -0.26200
Co	Co	0.02164 0.00654 0.64865 1.17300
Co	Co	0.20022 0.08416 0.68781 1.16500
Co	Co	0.22829 0.93149 0.66226 1.16100
Co	Co	0.52164 0.49346 0.14865 1.17500
Co	Co	0.70022 0.41584 0.18781 1.16500
Co	Co	0.72829 0.56851 0.16226 1.16000
H 	H 	0.75740 0.53390 0.41070 0.15600
H 	H 	0.97720 0.62510 0.56820 0.15700
H 	H 	0.89160 0.40550 0.48760 0.04100
H 	H 	0.90700 0.53530 0.57170 0.04300
H 	H 	0.84200 0.58430 0.46010 0.04700
H 	H 	0.85260 0.35530 0.54110 0.15600
H 	H 	0.39500 0.60660 0.55270 0.16100
H 	H 	0.40630 0.32730 0.51070 0.13600
H 	H 	0.35000 0.51680 0.37940 0.13500
H 	H 	0.41800 0.38690 0.46680 0.03400
H 	H 	0.07460 0.68640 0.60900 0.12000
H 	H 	0.35110 0.51230 0.54540 0.03800
H 	H 	0.10480 0.77910 0.63980 0.00600
H 	H 	0.84000 0.41900 0.35200 0.12500
H 	H 	0.83680 0.42550 0.28670 -0.00300
H 	H 	0.36960 0.56610 0.43520 0.03600
H 	H 	0.86490 0.85130 0.58130 0.00900
H 	H 	0.74360 0.59520 0.35540 0.11200
H 	H 	0.35710 0.50990 0.25020 -0.00200
H 	H 	0.73360 0.60010 0.28830 0.01100
H 	H 	0.85950 0.16440 0.59320 0.00600
H 	H 	0.33470 0.22760 0.50920 0.11200
H 	H 	0.37380 0.32150 0.60880 0.12500
H 	H 	0.80780 0.25720 0.56340 0.12000
H 	H 	0.33690 0.23330 0.64170 0.00300
H 	H 	0.33960 0.73850 0.64200 -0.02300
H 	H 	0.06470 0.33550 0.60330 0.13400
H 	H 	0.10890 0.24310 0.63390 0.00100
H 	H 	0.83610 0.75880 0.54910 0.13000
H 	H 	0.37660 0.65400 0.60790 0.15700
H 	H 	0.28460 0.73720 0.51060 0.15500
H 	H 	0.29200 0.14110 0.54290 0.01300
H 	H 	0.30510 0.51390 0.31100 0.11800
H 	H 	0.56630 0.45620 0.35770 0.13200
H 	H 	0.25370 0.82630 0.54460 -0.01400
H 	H 	0.61590 0.44890 0.29570 -0.00300
H 	H 	0.25740 0.96610 0.91070 0.15600
H 	H 	0.47720 0.87490 0.06820 0.15700
H 	H 	0.39160 0.09450 0.98760 0.04100
H 	H 	0.40700 0.96470 0.07170 0.04300
H 	H 	0.34200 0.91570 0.96010 0.04700
H 	H 	0.35260 0.14470 0.04110 0.15700
H 	H 	0.89500 0.89340 0.05270 0.16000
H 	H 	0.90630 0.17270 0.01070 0.13600
H 	H 	0.85000 0.98320 0.87940 0.13400
H 	H 	0.91800 0.11310 0.96680 0.03500
H 	H 	0.57460 0.81360 0.10900 0.12000
H 	H 	0.85110 0.98770 0.04540 0.03900
H 	H 	0.60480 0.72090 0.13980 0.00600
H 	H 	0.34000 0.08100 0.85200 0.12500
H 	H 	0.33680 0.07450 0.78670 -0.00300
H 	H 	0.86960 0.93390 0.93520 0.03800
H 	H 	0.36490 0.64870 0.08130 0.00900
H 	H 	0.24360 0.90480 0.85540 0.11300
H 	H 	0.85710 0.99010 0.75020 -0.00500
H 	H 	0.23360 0.89990 0.78830 0.01100
H 	H 	0.35950 0.33560 0.09320 0.00400
H 	H 	0.83470 0.27240 0.00920 0.11200
H 	H 	0.87380 0.17850 0.10880 0.12400
H 	H 	0.30780 0.24280 0.06340 0.12100
H 	H 	0.83690 0.26670 0.14170 0.00300
H 	H 	0.83960 0.76150 0.14200 -0.02400
H 	H 	0.56470 0.16450 0.10330 0.13500
H 	H 	0.60890 0.25690 0.13390 -0.00100
H 	H 	0.33610 0.74120 0.04910 0.13000
H 	H 	0.87660 0.84600 0.10790 0.15600
H 	H 	0.78460 0.76280 0.01060 0.15500
H 	H 	0.79200 0.35890 0.04290 0.01300
H 	H 	0.80510 0.98610 0.81100 0.12000
H 	H 	0.06630 0.04380 0.85770 0.13300
H 	H 	0.75370 0.67370 0.04460 -0.01400
H 	H 	0.11590 0.05110 0.79570 -0.00100
C 	C 	0.87440 0.57031 0.51828 -0.07300
C 	C 	0.88650 0.44737 0.49544 0.00900
C 	C 	0.85510 0.47226 0.42650 0.24300
C 	C 	0.89600 0.52445 0.54519 0.01500
C 	C 	0.86370 0.49290 0.46796 -0.06800
C 	C 	0.85770 0.55332 0.47901 0.01200
C 	C 	0.90190 0.46254 0.53456 -0.07100
C 	C 	0.40210 0.42816 0.47319 0.01500
C 	C 	0.93760 0.41646 0.56441 0.24800
C 	C 	0.37210 0.39490 0.54169 0.24600
C 	C 	0.03210 0.72030 0.60290 -0.22500
C 	C 	0.36170 0.50280 0.51966 0.01700
C 	C 	0.38060 0.44280 0.51037 -0.07300
C 	C 	0.33310 0.61410 0.50135 0.24200
C 	C 	0.79470 0.50673 0.36084 0.22300
C 	C 	0.35750 0.55040 0.49264 -0.08200
C 	C 	0.52530 0.47250 0.22781 0.42400
C 	C 	0.93190 0.30494 0.58011 0.22900
C 	C 	0.95190 0.71283 0.57545 0.22500
C 	C 	0.78530 0.51390 0.28049 -0.16800
C 	C 	0.39980 0.47510 0.44562 -0.07700
C 	C 	0.87090 0.63649 0.52842 0.24000
C 	C 	0.36350 0.28270 0.55583 0.21900
C 	C 	0.01460 0.88740 0.63202 0.37700
C 	C 	0.77840 0.51610 0.23725 0.37400
C 	C 	0.05020 0.77560 0.62106 0.13000
C 	C 	0.49120 0.47770 0.26706 -0.20500
C 	C 	0.82010 0.45650 0.33931 -0.22400
C 	C 	0.81700 0.46020 0.30063 0.12700
C 	C 	0.37490 0.53520 0.45462 0.01500
C 	C 	0.90910 0.81800 0.58637 0.12700
C 	C 	0.98840 0.19550 0.61698 -0.17800
C 	C 	0.01980 0.13450 0.63648 0.40800
C 	C 	0.43630 0.45930 0.40812 0.24200
C 	C 	0.33190 0.68690 0.55643 0.31300
C 	C 	0.43060 0.48490 0.33987 0.23800
C 	C 	0.76220 0.56050 0.34126 -0.21200
C 	C 	0.40000 0.49780 0.27200 0.15500
C 	C 	0.99180 0.82650 0.61303 -0.17200
C 	C 	0.75690 0.56350 0.30128 0.11800
C 	C 	0.31510 0.17800 0.59569 -0.16000
C 	C 	0.29100 0.79140 0.59687 -0.23900
C 	C 	0.90070 0.19960 0.59566 0.13300
C 	C 	0.33640 0.22920 0.53647 -0.21200
C 	C 	0.36010 0.28400 0.59510 -0.21800
C 	C 	0.87020 0.25440 0.57748 -0.22700
C 	C 	0.33720 0.23180 0.61458 0.12300
C 	C 	0.32810 0.73930 0.61467 0.21900
C 	C 	0.02180 0.30110 0.60124 -0.23100
C 	C 	0.04720 0.24600 0.61920 0.13900
C 	C 	0.89110 0.76280 0.56765 -0.22300
C 	C 	0.26870 0.84670 0.61934 0.37000
C 	C 	0.34890 0.68910 0.59450 -0.33300
C 	C 	0.29650 0.73740 0.53787 -0.31000
C 	C 	0.31180 0.17770 0.55661 0.11900
C 	C 	0.36930 0.50070 0.30810 -0.24700
C 	C 	0.52260 0.46640 0.33571 -0.23800
C 	C 	0.28180 0.12300 0.61767 0.34800
C 	C 	0.27710 0.79030 0.55823 0.20000
C 	C 	0.55210 0.46250 0.29872 0.14800
C 	C 	0.37440 0.92969 0.01828 -0.07400
C 	C 	0.38650 0.05263 0.99544 0.01000
C 	C 	0.35510 0.02774 0.92650 0.24300
C 	C 	0.39600 0.97555 0.04519 0.01600
C 	C 	0.36370 0.00710 0.96796 -0.06900
C 	C 	0.35770 0.94668 0.97901 0.01300
C 	C 	0.40190 0.03746 0.03456 -0.07200
C 	C 	0.90210 0.07184 0.97319 0.01200
C 	C 	0.43760 0.08354 0.06441 0.24800
C 	C 	0.87210 0.10510 0.04169 0.24500
C 	C 	0.53210 0.77970 0.10290 -0.22500
C 	C 	0.86170 0.99720 0.01966 0.01100
C 	C 	0.88060 0.05720 0.01037 -0.06800
C 	C 	0.83310 0.88590 0.00135 0.24000
C 	C 	0.29470 0.99327 0.86084 0.22500
C 	C 	0.85750 0.94960 0.99264 -0.07800
C 	C 	0.02530 0.02750 0.72781 0.41400
C 	C 	0.43190 0.19506 0.08011 0.22900
C 	C 	0.45190 0.78717 0.07545 0.22500
C 	C 	0.28530 0.98610 0.78049 -0.16700
C 	C 	0.89980 0.02490 0.94562 -0.07300
C 	C 	0.37090 0.86351 0.02842 0.24000
C 	C 	0.86350 0.21730 0.05583 0.21900
C 	C 	0.51460 0.61260 0.13202 0.37700
C 	C 	0.27840 0.98390 0.73725 0.37600
C 	C 	0.55020 0.72440 0.12106 0.13000
C 	C 	0.99120 0.02230 0.76706 -0.19600
C 	C 	0.32010 0.04350 0.83931 -0.22500
C 	C 	0.31700 0.03980 0.80063 0.12600
C 	C 	0.87490 0.96480 0.95462 0.01000
C 	C 	0.40910 0.68200 0.08637 0.12600
C 	C 	0.48840 0.30450 0.11698 -0.18900
C 	C 	0.51980 0.36550 0.13648 0.41700
C 	C 	0.93630 0.04070 0.90812 0.24100
C 	C 	0.83190 0.81310 0.05643 0.31200
C 	C 	0.93060 0.01510 0.83987 0.24600
C 	C 	0.26220 0.93950 0.84126 -0.21200
C 	C 	0.90000 0.00220 0.77200 0.15900
C 	C 	0.49180 0.67350 0.11303 -0.17100
C 	C 	0.25690 0.93650 0.80128 0.11800
C 	C 	0.81510 0.32200 0.09569 -0.16000
C 	C 	0.79100 0.70860 0.09687 -0.23900
C 	C 	0.40070 0.30040 0.09566 0.13900
C 	C 	0.83640 0.27080 0.03647 -0.21200
C 	C 	0.86010 0.21600 0.09510 -0.21800
C 	C 	0.37020 0.24560 0.07748 -0.23000
C 	C 	0.83720 0.26820 0.11458 0.12300
C 	C 	0.82810 0.76070 0.11467 0.21800
C 	C 	0.52180 0.19890 0.10124 -0.23300
C 	C 	0.54720 0.25400 0.11920 0.14700
C 	C 	0.39110 0.73720 0.06765 -0.22300
C 	C 	0.76870 0.65330 0.11934 0.37000
C 	C 	0.84890 0.81090 0.09450 -0.33200
C 	C 	0.79650 0.76260 0.03787 -0.30900
C 	C 	0.81180 0.32230 0.05661 0.11900
C 	C 	0.86930 0.99930 0.80810 -0.25400
C 	C 	0.02260 0.03360 0.83571 -0.24300
C 	C 	0.78180 0.37700 0.11767 0.34800
C 	C 	0.77710 0.70970 0.05823 0.20000
C 	C 	0.05210 0.03750 0.79872 0.14200
N 	N 	0.79700 0.50787 0.40090 -0.25600
N 	N 	0.93790 0.65436 0.55840 -0.25900
N 	N 	0.90120 0.35957 0.55936 -0.26200
N 	N 	0.35780 0.63231 0.53824 -0.28000
N 	N 	0.38390 0.33515 0.53283 -0.24900
N 	N 	0.39790 0.49102 0.37674 -0.25900
N 	N 	0.29700 0.99213 0.90090 -0.25600
N 	N 	0.43790 0.84564 0.05840 -0.25800
N 	N 	0.40120 0.14043 0.05936 -0.26200
N 	N 	0.85780 0.86769 0.03824 -0.27900
N 	N 	0.88390 0.16485 0.03283 -0.24900
N 	N 	0.89790 0.00898 0.87674 -0.25900
O 	O 	0.89870 0.42656 0.41691 -0.25500
O 	O 	0.99880 0.43068 0.59031 -0.23700
O 	O 	0.35160 0.41130 0.57321 -0.25900
O 	O 	0.16290 0.01153 0.64948 -0.61500
O 	O 	0.49970 0.41989 0.40750 -0.26300
O 	O 	0.81410 0.67217 0.51156 -0.24000
O 	O 	0.74280 0.56356 0.22079 -0.43800
O 	O 	0.97560 0.08612 0.62609 -0.45300
O 	O 	0.47530 0.49616 0.19968 -0.46600
O 	O 	0.29170 0.64925 0.47689 -0.25900
O 	O 	0.80480 0.46783 0.22048 -0.44600
O 	O 	0.96850 0.93425 0.61886 -0.43400
O 	O 	0.09600 0.13935 0.65943 -0.45700
O 	O 	0.08120 0.89134 0.65966 -0.43200
O 	O 	0.60490 0.44529 0.22599 -0.47200
O 	O 	0.23440 0.89380 0.60299 -0.37900
O 	O 	0.28110 0.84462 0.65570 -0.40900
O 	O 	0.29740 0.12392 0.65334 -0.40600
O 	O 	0.23990 0.08020 0.59641 -0.26200
O 	O 	0.39870 0.07344 0.91691 -0.25500
O 	O 	0.49880 0.06932 0.09031 -0.23800
O 	O 	0.85160 0.08870 0.07321 -0.25900
O 	O 	0.66290 0.48847 0.14948 -0.61400
O 	O 	0.99970 0.08011 0.90750 -0.26100
O 	O 	0.31410 0.82783 0.01156 -0.24000
O 	O 	0.24280 0.93644 0.72079 -0.43800
O 	O 	0.47560 0.41388 0.12609 -0.45800
O 	O 	0.97530 0.00384 0.69968 -0.46000
O 	O 	0.79170 0.85075 0.97689 -0.25800
O 	O 	0.30480 0.03217 0.72048 -0.44600
O 	O 	0.46850 0.56575 0.11886 -0.43300
O 	O 	0.59600 0.36065 0.15943 -0.45900
O 	O 	0.58120 0.60866 0.15966 -0.43200
O 	O 	0.10490 0.05471 0.72599 -0.47000
O 	O 	0.73440 0.60620 0.10299 -0.38000
O 	O 	0.78110 0.65538 0.15570 -0.41000
O 	O 	0.79740 0.37608 0.15334 -0.40600
O 	O 	0.73990 0.41980 0.09641 -0.26100
