data_crystal

_cell_length_a 16.69950
_cell_length_b 16.69950
_cell_length_c 26.75790
_cell_angle_alpha 90.00000
_cell_angle_beta  90.00000
_cell_angle_gamma 90.00000

_symmetry_space_group_name_	'P 1'
_symmetry_space_group_name_H-M	'P 1'

loop_
_symmetry_equiv_pos_as_xyz
  x,y,z

loop_
_atom_site_label
_atom_site_type_symbol
_atom_site_fract_x
_atom_site_fract_y
_atom_site_fract_z
_atom_site_charge
C 	C 	0.50140 0.33670 0.79570 0.05100
C 	C 	0.50280 0.27370 0.75932 0.01400
C 	C 	0.43750 0.26430 0.72720 -0.10400
H 	H 	0.39400 0.29890 0.72940 0.05900
C 	C 	0.43780 0.20300 0.69210 0.01800
H 	H 	0.39480 0.19830 0.67010 0.01100
C 	C 	0.50030 0.14890 0.68877 -0.11100
C 	C 	0.56760 0.16120 0.72090 0.00600
H 	H 	0.61160 0.12730 0.71840 0.02000
C 	C 	0.56870 0.22180 0.75540 -0.09500
H 	H 	0.61290 0.22860 0.77610 0.05700
C 	C 	0.49970 0.07650 0.65353 0.29000
C 	C 	0.57480 0.07610 0.62000 -0.43900
H 	H 	0.57510 0.12360 0.59920 0.16300
H 	H 	0.62240 0.07700 0.64070 0.16200
H 	H 	0.54700 0.00020 0.70750 0.14800
C 	C 	0.42420 0.07500 0.62080 -0.40500
H 	H 	0.42260 0.12250 0.60000 0.15000
H 	H 	0.37700 0.07490 0.64190 0.14900
C 	C 	0.57590 0.00140 0.58692 0.31800
H 	H 	0.50090 0.95310 0.53390 0.14900
C 	C 	0.85380 0.99270 0.46060 0.05100
C 	C 	0.78510 0.99450 0.49320 0.02700
C 	C 	0.71200 0.00590 0.47160 -0.10700
H 	H 	0.70750 0.01230 0.43720 0.05900
C 	C 	0.64430 0.00790 0.50180 0.04600
H 	H 	0.59430 0.01550 0.48740 -0.00100
C 	C 	0.65040 0.99860 0.55380 -0.14800
C 	C 	0.72450 0.99000 0.57370 0.04000
H 	H 	0.72960 0.98620 0.60830 0.00400
C 	C 	0.79310 0.98660 0.54450 -0.10900
H 	H 	0.84320 0.97920 0.55900 0.05700
N 	N 	0.50240 0.38810 0.82376 -0.18900
N 	N 	0.90560 0.98950 0.43230 -0.18700
C 	C 	0.00140 0.83670 0.29570 0.05200
C 	C 	0.00280 0.77370 0.25932 0.01600
C 	C 	0.93750 0.76430 0.22720 -0.10500
H 	H 	0.89400 0.79890 0.22940 0.05700
C 	C 	0.93780 0.70300 0.19210 -0.00200
H 	H 	0.89480 0.69830 0.17010 0.01600
C 	C 	0.00030 0.64890 0.18877 -0.08700
C 	C 	0.06760 0.66120 0.22090 -0.00500
H 	H 	0.11160 0.62730 0.21840 0.02300
C 	C 	0.06870 0.72180 0.25540 -0.08900
H 	H 	0.11290 0.72860 0.27610 0.05300
C 	C 	0.99970 0.57650 0.15353 0.26500
C 	C 	0.07480 0.57610 0.12000 -0.41500
H 	H 	0.07510 0.62360 0.09920 0.15700
H 	H 	0.12240 0.57700 0.14070 0.15300
H 	H 	0.04700 0.50020 0.20750 0.14600
C 	C 	0.92420 0.57500 0.12080 -0.41000
H 	H 	0.92260 0.62250 0.10000 0.15000
H 	H 	0.87700 0.57490 0.14190 0.14900
C 	C 	0.07590 0.50140 0.08692 0.29900
H 	H 	0.00090 0.45310 0.03390 0.15600
C 	C 	0.35380 0.49270 0.96060 0.05400
C 	C 	0.28510 0.49450 0.99320 0.03200
C 	C 	0.21200 0.50590 0.97160 -0.11100
H 	H 	0.20750 0.51230 0.93720 0.05900
C 	C 	0.14430 0.50790 0.00180 0.03200
H 	H 	0.09430 0.51550 0.98740 0.00300
C 	C 	0.15040 0.49860 0.05380 -0.12500
C 	C 	0.22450 0.49000 0.07370 0.03000
H 	H 	0.22960 0.48620 0.10830 0.00900
C 	C 	0.29310 0.48660 0.04450 -0.10400
H 	H 	0.34320 0.47920 0.05900 0.05800
N 	N 	0.00240 0.88810 0.32376 -0.19000
N 	N 	0.40560 0.48950 0.93230 -0.18200
C 	C 	0.49860 0.66330 0.79570 0.05000
C 	C 	0.49720 0.72630 0.75932 0.01300
C 	C 	0.56250 0.73570 0.72720 -0.10500
H 	H 	0.60600 0.70110 0.72940 0.05800
C 	C 	0.56220 0.79700 0.69210 0.01700
H 	H 	0.60520 0.80170 0.67010 0.01000
C 	C 	0.49970 0.85110 0.68877 -0.11200
C 	C 	0.43240 0.83880 0.72090 0.00500
H 	H 	0.38840 0.87270 0.71840 0.01800
C 	C 	0.43130 0.77820 0.75540 -0.09600
H 	H 	0.38710 0.77140 0.77610 0.05600
C 	C 	0.50030 0.92350 0.65353 0.28600
C 	C 	0.42520 0.92390 0.62000 -0.42200
H 	H 	0.42490 0.87640 0.59920 0.15700
H 	H 	0.37760 0.92300 0.64070 0.15200
H 	H 	0.45300 0.99980 0.70750 0.13900
C 	C 	0.57580 0.92500 0.62080 -0.43200
H 	H 	0.57740 0.87750 0.60000 0.15700
H 	H 	0.62300 0.92510 0.64190 0.15400
C 	C 	0.42410 0.99860 0.58692 0.27700
H 	H 	0.49910 0.04690 0.53390 0.15500
C 	C 	0.14620 0.00730 0.46060 0.05800
C 	C 	0.21490 0.00550 0.49320 0.03500
C 	C 	0.28800 0.99410 0.47160 -0.11100
H 	H 	0.29250 0.98770 0.43720 0.05600
C 	C 	0.35570 0.99210 0.50180 0.01100
H 	H 	0.40570 0.98450 0.48740 0.00700
C 	C 	0.34960 0.00140 0.55380 -0.10100
C 	C 	0.27550 0.01000 0.57370 0.01800
H 	H 	0.27040 0.01380 0.60830 0.01500
C 	C 	0.20690 0.01340 0.54450 -0.09700
H 	H 	0.15680 0.02080 0.55900 0.05700
N 	N 	0.49760 0.61190 0.82376 -0.18900
N 	N 	0.09440 0.01050 0.43230 -0.17900
C 	C 	0.99860 0.16330 0.29570 0.04900
C 	C 	0.99720 0.22630 0.25932 0.00800
C 	C 	0.06250 0.23570 0.22720 -0.10300
H 	H 	0.10600 0.20110 0.22940 0.06000
C 	C 	0.06220 0.29700 0.19210 0.03600
H 	H 	0.10520 0.30170 0.17010 0.00400
C 	C 	0.99970 0.35110 0.18877 -0.13700
C 	C 	0.93240 0.33880 0.22090 0.01500
H 	H 	0.88840 0.37270 0.21840 0.01500
C 	C 	0.93130 0.27820 0.25540 -0.10200
H 	H 	0.88710 0.27140 0.27610 0.05700
C 	C 	0.00030 0.42350 0.15353 0.30900
C 	C 	0.92520 0.42390 0.12000 -0.44600
H 	H 	0.92490 0.37640 0.09920 0.16200
H 	H 	0.87760 0.42300 0.14070 0.16100
H 	H 	0.95300 0.49980 0.20750 0.14000
C 	C 	0.07580 0.42500 0.12080 -0.42700
H 	H 	0.07740 0.37750 0.10000 0.15700
H 	H 	0.12300 0.42510 0.14190 0.15400
C 	C 	0.92410 0.49860 0.08692 0.29400
H 	H 	0.99910 0.54690 0.03390 0.14600
C 	C 	0.64620 0.50730 0.96060 0.05500
C 	C 	0.71490 0.50550 0.99320 0.03000
C 	C 	0.78800 0.49410 0.97160 -0.10600
H 	H 	0.79250 0.48770 0.93720 0.05600
C 	C 	0.85570 0.49210 0.00180 0.02500
H 	H 	0.90570 0.48450 0.98740 0.00300
C 	C 	0.84960 0.50140 0.05380 -0.12300
C 	C 	0.77550 0.51000 0.07370 0.02800
H 	H 	0.77040 0.51380 0.10830 0.01000
C 	C 	0.70690 0.51340 0.04450 -0.10300
H 	H 	0.65680 0.52080 0.05900 0.05700
N 	N 	0.99760 0.11190 0.32376 -0.19100
N 	N 	0.59440 0.51050 0.93230 -0.18200
C 	C 	0.50000 0.00000 0.68620 -0.39400
C 	C 	0.50000 -0.00000 0.55520 -0.41700
C 	C 	0.00000 0.50000 0.18620 -0.39300
C 	C 	-0.00000 0.50000 0.05520 -0.41400
Ag	Ag	0.50000 0.50000 0.87186 0.54500
Ag	Ag	0.00000 0.00000 0.37186 0.55300
C 	C 	0.33670 0.49860 0.20430 0.05000
C 	C 	0.27370 0.49720 0.24068 0.01300
C 	C 	0.26430 0.56250 0.27280 -0.10500
H 	H 	0.29890 0.60600 0.27060 0.05800
C 	C 	0.20300 0.56220 0.30790 0.01700
H 	H 	0.19830 0.60520 0.32990 0.01000
C 	C 	0.14890 0.49970 0.31123 -0.11200
C 	C 	0.16120 0.43240 0.27910 0.00500
H 	H 	0.12730 0.38840 0.28160 0.02000
C 	C 	0.22180 0.43130 0.24460 -0.09600
H 	H 	0.22860 0.38710 0.22390 0.05600
C 	C 	0.07650 0.50030 0.34647 0.29000
C 	C 	0.07610 0.42520 0.38000 -0.44000
H 	H 	0.12360 0.42490 0.40080 0.16300
H 	H 	0.07700 0.37760 0.35930 0.16200
H 	H 	0.00020 0.45300 0.29250 0.14900
C 	C 	0.07500 0.57580 0.37920 -0.40500
H 	H 	0.12250 0.57740 0.40000 0.15000
H 	H 	0.07490 0.62300 0.35810 0.14900
C 	C 	0.00140 0.42410 0.41308 0.31900
H 	H 	0.95310 0.49910 0.46610 0.14900
C 	C 	0.99270 0.14620 0.53940 0.05300
C 	C 	0.99450 0.21490 0.50680 0.02800
C 	C 	0.00590 0.28800 0.52840 -0.10700
H 	H 	0.01230 0.29250 0.56280 0.06000
C 	C 	0.00790 0.35570 0.49820 0.04700
H 	H 	0.01550 0.40570 0.51260 -0.00100
C 	C 	0.99860 0.34960 0.44620 -0.14900
C 	C 	0.99000 0.27550 0.42630 0.04200
H 	H 	0.98620 0.27040 0.39170 0.00400
C 	C 	0.98660 0.20690 0.45550 -0.11000
H 	H 	0.97920 0.15680 0.44100 0.05900
N 	N 	0.38810 0.49760 0.17624 -0.18900
N 	N 	0.98950 0.09440 0.56770 -0.18300
C 	C 	0.83670 0.99860 0.70430 0.04800
C 	C 	0.77370 0.99720 0.74068 0.00800
C 	C 	0.76430 0.06250 0.77280 -0.10400
H 	H 	0.79890 0.10600 0.77060 0.05900
C 	C 	0.70300 0.06220 0.80790 0.03500
H 	H 	0.69830 0.10520 0.82990 0.00400
C 	C 	0.64890 0.99970 0.81123 -0.13600
C 	C 	0.66120 0.93240 0.77910 0.01500
H 	H 	0.62730 0.88840 0.78160 0.01500
C 	C 	0.72180 0.93130 0.74460 -0.10200
H 	H 	0.72860 0.88710 0.72390 0.05700
C 	C 	0.57650 0.00030 0.84647 0.30800
C 	C 	0.57610 0.92520 0.88000 -0.44500
H 	H 	0.62360 0.92490 0.90080 0.16200
H 	H 	0.57700 0.87760 0.85930 0.16100
H 	H 	0.50020 0.95300 0.79250 0.14000
C 	C 	0.57500 0.07580 0.87920 -0.42600
H 	H 	0.62250 0.07740 0.90000 0.15700
H 	H 	0.57490 0.12300 0.85810 0.15400
C 	C 	0.50140 0.92410 0.91308 0.29400
H 	H 	0.45310 0.99910 0.96610 0.14600
C 	C 	0.49270 0.64620 0.03940 0.05500
C 	C 	0.49450 0.71490 0.00680 0.03000
C 	C 	0.50590 0.78800 0.02840 -0.10600
H 	H 	0.51230 0.79250 0.06280 0.05600
C 	C 	0.50790 0.85570 0.99820 0.02500
H 	H 	0.51550 0.90570 0.01260 0.00300
C 	C 	0.49860 0.84960 0.94620 -0.12300
C 	C 	0.49000 0.77550 0.92630 0.02800
H 	H 	0.48620 0.77040 0.89170 0.01000
C 	C 	0.48660 0.70690 0.95550 -0.10300
H 	H 	0.47920 0.65680 0.94100 0.05700
N 	N 	0.88810 0.99760 0.67624 -0.19300
N 	N 	0.48950 0.59440 0.06770 -0.18200
C 	C 	0.66330 0.50140 0.20430 0.05000
C 	C 	0.72630 0.50280 0.24068 0.01300
C 	C 	0.73570 0.43750 0.27280 -0.10500
H 	H 	0.70110 0.39400 0.27060 0.05800
C 	C 	0.79700 0.43780 0.30790 0.01700
H 	H 	0.80170 0.39480 0.32990 0.01000
C 	C 	0.85110 0.50030 0.31123 -0.11300
C 	C 	0.83880 0.56760 0.27910 0.00500
H 	H 	0.87270 0.61160 0.28160 0.01800
C 	C 	0.77820 0.56870 0.24460 -0.09700
H 	H 	0.77140 0.61290 0.22390 0.05600
C 	C 	0.92350 0.49970 0.34647 0.28600
C 	C 	0.92390 0.57480 0.38000 -0.42300
H 	H 	0.87640 0.57510 0.40080 0.15700
H 	H 	0.92300 0.62240 0.35930 0.15200
H 	H 	0.99980 0.54700 0.29250 0.13900
C 	C 	0.92500 0.42420 0.37920 -0.43300
H 	H 	0.87750 0.42260 0.40000 0.15800
H 	H 	0.92510 0.37700 0.35810 0.15500
C 	C 	0.99860 0.57590 0.41308 0.27700
H 	H 	0.04690 0.50090 0.46610 0.15500
C 	C 	0.00730 0.85380 0.53940 0.05600
C 	C 	0.00550 0.78510 0.50680 0.03300
C 	C 	0.99410 0.71200 0.52840 -0.10900
H 	H 	0.98770 0.70750 0.56280 0.05500
C 	C 	0.99210 0.64430 0.49820 0.01000
H 	H 	0.98450 0.59430 0.51260 0.00800
C 	C 	0.00140 0.65040 0.44620 -0.10100
C 	C 	0.01000 0.72450 0.42630 0.01700
H 	H 	0.01380 0.72960 0.39170 0.01500
C 	C 	0.01340 0.79310 0.45550 -0.09600
H 	H 	0.02080 0.84320 0.44100 0.05500
N 	N 	0.61190 0.50240 0.17624 -0.18900
N 	N 	0.01050 0.90560 0.56770 -0.18300
C 	C 	0.16330 0.00140 0.70430 0.05400
C 	C 	0.22630 0.00280 0.74068 0.01700
C 	C 	0.23570 0.93750 0.77280 -0.10500
H 	H 	0.20110 0.89400 0.77060 0.05800
C 	C 	0.29700 0.93780 0.80790 -0.00200
H 	H 	0.30170 0.89480 0.82990 0.01600
C 	C 	0.35110 0.00030 0.81123 -0.08700
C 	C 	0.33880 0.06760 0.77910 -0.00500
H 	H 	0.37270 0.11160 0.78160 0.02300
C 	C 	0.27820 0.06870 0.74460 -0.09000
H 	H 	0.27140 0.11290 0.72390 0.05400
C 	C 	0.42350 0.99970 0.84647 0.26500
C 	C 	0.42390 0.07480 0.88000 -0.41500
H 	H 	0.37640 0.07510 0.90080 0.15700
H 	H 	0.42300 0.12240 0.85930 0.15300
H 	H 	0.49980 0.04700 0.79250 0.14600
C 	C 	0.42500 0.92420 0.87920 -0.40900
H 	H 	0.37750 0.92260 0.90000 0.14900
H 	H 	0.42510 0.87700 0.85810 0.14800
C 	C 	0.49860 0.07590 0.91308 0.29800
H 	H 	0.54690 0.00090 0.96610 0.15600
C 	C 	0.50730 0.35380 0.03940 0.05400
C 	C 	0.50550 0.28510 0.00680 0.03100
C 	C 	0.49410 0.21200 0.02840 -0.11100
H 	H 	0.48770 0.20750 0.06280 0.05900
C 	C 	0.49210 0.14430 0.99820 0.03200
H 	H 	0.48450 0.09430 0.01260 0.00300
C 	C 	0.50140 0.15040 0.94620 -0.12500
C 	C 	0.51000 0.22450 0.92630 0.03000
H 	H 	0.51380 0.22960 0.89170 0.00900
C 	C 	0.51340 0.29310 0.95550 -0.10300
H 	H 	0.52080 0.34320 0.94100 0.05700
N 	N 	0.11190 0.00240 0.67624 -0.18600
N 	N 	0.51050 0.40560 0.06770 -0.18200
C 	C 	0.00000 0.50000 0.31380 -0.39400
C 	C 	0.00000 0.50000 0.44480 -0.41800
C 	C 	0.50000 0.00000 0.81380 -0.39200
C 	C 	0.50000 0.00000 0.94480 -0.41400
Ag	Ag	0.50000 0.50000 0.12814 0.54500
Ag	Ag	-0.00000 -0.00000 0.62814 0.55300
C 	C 	0.99860 0.33670 0.95430 0.05000
C 	C 	0.99720 0.27370 0.99068 0.00600
C 	C 	0.06250 0.26430 0.02280 -0.10100
H 	H 	0.10600 0.29890 0.02060 0.05800
C 	C 	0.06220 0.20300 0.05790 0.03100
H 	H 	0.10520 0.19830 0.07990 0.00600
C 	C 	0.99970 0.14890 0.06123 -0.12800
C 	C 	0.93240 0.16120 0.02910 0.00800
H 	H 	0.88840 0.12730 0.03160 0.01800
C 	C 	0.93130 0.22180 0.99460 -0.09500
H 	H 	0.88710 0.22860 0.97390 0.05500
C 	C 	0.00030 0.07650 0.09647 0.29100
C 	C 	0.92520 0.07610 0.13000 -0.43600
H 	H 	0.92490 0.12360 0.15080 0.16000
H 	H 	0.87760 0.07700 0.10930 0.16000
H 	H 	0.95300 0.00020 0.04250 0.13200
C 	C 	0.07580 0.07500 0.12920 -0.39700
H 	H 	0.07740 0.12250 0.15000 0.14900
H 	H 	0.12300 0.07490 0.10810 0.14600
C 	C 	0.92410 0.00140 0.16308 0.29200
H 	H 	0.99910 0.95310 0.21610 0.13100
C 	C 	0.64620 0.99270 0.28940 0.05400
C 	C 	0.71490 0.99450 0.25680 0.02300
C 	C 	0.78800 0.00590 0.27840 -0.10100
H 	H 	0.79250 0.01230 0.31280 0.05700
C 	C 	0.85570 0.00790 0.24820 0.03600
H 	H 	0.90570 0.01550 0.26260 0.00100
C 	C 	0.84960 0.99860 0.19620 -0.13400
C 	C 	0.77550 0.99000 0.17630 0.03100
H 	H 	0.77040 0.98620 0.14170 0.00800
C 	C 	0.70690 0.98660 0.20550 -0.10300
H 	H 	0.65680 0.97920 0.19100 0.05600
N 	N 	0.99760 0.38810 0.92624 -0.19100
N 	N 	0.59440 0.98950 0.31770 -0.18500
C 	C 	0.49860 0.83670 0.45430 0.04800
C 	C 	0.49720 0.77370 0.49068 0.01600
C 	C 	0.56250 0.76430 0.52280 -0.10900
H 	H 	0.60600 0.79890 0.52060 0.05900
C 	C 	0.56220 0.70300 0.55790 0.02400
H 	H 	0.60520 0.69830 0.57990 0.00700
C 	C 	0.49970 0.64890 0.56123 -0.12200
C 	C 	0.43240 0.66120 0.52910 0.01100
H 	H 	0.38840 0.62730 0.53160 0.01600
C 	C 	0.43130 0.72180 0.49460 -0.10100
H 	H 	0.38710 0.72860 0.47390 0.05700
C 	C 	0.50030 0.57650 0.59647 0.30900
C 	C 	0.42520 0.57610 0.63000 -0.45100
H 	H 	0.42490 0.62360 0.65080 0.16600
H 	H 	0.37760 0.57700 0.60930 0.16300
H 	H 	0.45300 0.50020 0.54250 0.15700
C 	C 	0.57580 0.57500 0.62920 -0.43800
H 	H 	0.57740 0.62250 0.65000 0.15900
H 	H 	0.62300 0.57490 0.60810 0.15700
C 	C 	0.42410 0.50140 0.66308 0.32100
H 	H 	0.49910 0.45310 0.71610 0.16600
C 	C 	0.14620 0.49270 0.78940 0.05400
C 	C 	0.21490 0.49450 0.75680 0.03600
C 	C 	0.28800 0.50590 0.77840 -0.11500
H 	H 	0.29250 0.51230 0.81280 0.06000
C 	C 	0.35570 0.50790 0.74820 0.03700
H 	H 	0.40570 0.51550 0.76260 -0.00000
C 	C 	0.34960 0.49860 0.69620 -0.13700
C 	C 	0.27550 0.49000 0.67630 0.03900
H 	H 	0.27040 0.48620 0.64170 0.00600
C 	C 	0.20690 0.48660 0.70550 -0.11000
H 	H 	0.15680 0.47920 0.69100 0.06100
N 	N 	0.49760 0.88810 0.42624 -0.19100
N 	N 	0.09440 0.48950 0.81770 -0.18000
C 	C 	0.00140 0.66330 0.95430 0.05300
C 	C 	0.00280 0.72630 0.99068 0.01300
C 	C 	0.93750 0.73570 0.02280 -0.10000
H 	H 	0.89400 0.70110 0.02060 0.05600
C 	C 	0.93780 0.79700 0.05790 -0.00700
H 	H 	0.89480 0.80170 0.07990 0.01800
C 	C 	0.00030 0.85110 0.06123 -0.08000
C 	C 	0.06760 0.83880 0.02910 -0.00700
H 	H 	0.11160 0.87270 0.03160 0.02400
C 	C 	0.06870 0.77820 0.99460 -0.08900
H 	H 	0.11290 0.77140 0.97390 0.05300
C 	C 	0.99970 0.92350 0.09647 0.24500
C 	C 	0.07480 0.92390 0.13000 -0.39000
H 	H 	0.07510 0.87640 0.15080 0.14900
H 	H 	0.12240 0.92300 0.10930 0.14300
H 	H 	0.04700 0.99980 0.04250 0.13000
C 	C 	0.92420 0.92500 0.12920 -0.40500
H 	H 	0.92260 0.87750 0.15000 0.14800
H 	H 	0.87700 0.92510 0.10810 0.14600
C 	C 	0.07590 0.99860 0.16308 0.25800
H 	H 	0.00090 0.04690 0.21610 0.14600
C 	C 	0.35380 0.00730 0.28940 0.05800
C 	C 	0.28510 0.00550 0.25680 0.03000
C 	C 	0.21200 0.99410 0.27840 -0.10400
H 	H 	0.20750 0.98770 0.31280 0.05400
C 	C 	0.14430 0.99210 0.24820 0.00400
H 	H 	0.09430 0.98450 0.26260 0.01200
C 	C 	0.15040 0.00140 0.19620 -0.09100
C 	C 	0.22450 0.01000 0.17630 0.01000
H 	H 	0.22960 0.01380 0.14170 0.01800
C 	C 	0.29310 0.01340 0.20550 -0.09100
H 	H 	0.34320 0.02080 0.19100 0.05400
N 	N 	0.00240 0.61190 0.92624 -0.18800
N 	N 	0.40560 0.01050 0.31770 -0.18100
C 	C 	0.50140 0.16330 0.45430 0.05000
C 	C 	0.50280 0.22630 0.49068 0.01600
C 	C 	0.43750 0.23570 0.52280 -0.11000
H 	H 	0.39400 0.20110 0.52060 0.06100
C 	C 	0.43780 0.29700 0.55790 0.02400
H 	H 	0.39480 0.30170 0.57990 0.00800
C 	C 	0.50030 0.35110 0.56123 -0.12200
C 	C 	0.56760 0.33880 0.52910 0.01200
H 	H 	0.61160 0.37270 0.53160 0.01600
C 	C 	0.56870 0.27820 0.49460 -0.10100
H 	H 	0.61290 0.27140 0.47390 0.05700
C 	C 	0.49970 0.42350 0.59647 0.30900
C 	C 	0.57480 0.42390 0.63000 -0.45100
H 	H 	0.57510 0.37640 0.65080 0.16600
H 	H 	0.62240 0.42300 0.60930 0.16300
H 	H 	0.54700 0.49980 0.54250 0.15700
C 	C 	0.42420 0.42500 0.62920 -0.43800
H 	H 	0.42260 0.37750 0.65000 0.16000
H 	H 	0.37700 0.42510 0.60810 0.15800
C 	C 	0.57590 0.49860 0.66308 0.32000
H 	H 	0.50090 0.54690 0.71610 0.16600
C 	C 	0.85380 0.50730 0.78940 0.05200
C 	C 	0.78510 0.50550 0.75680 0.03500
C 	C 	0.71200 0.49410 0.77840 -0.11500
H 	H 	0.70750 0.48770 0.81280 0.06000
C 	C 	0.64430 0.49210 0.74820 0.03700
H 	H 	0.59430 0.48450 0.76260 -0.00000
C 	C 	0.65040 0.50140 0.69620 -0.13600
C 	C 	0.72450 0.51000 0.67630 0.03700
H 	H 	0.72960 0.51380 0.64170 0.00600
C 	C 	0.79310 0.51340 0.70550 -0.10900
H 	H 	0.84320 0.52080 0.69100 0.05800
N 	N 	0.50240 0.11190 0.42624 -0.18800
N 	N 	0.90560 0.51050 0.81770 -0.18400
C 	C 	-0.00000 0.00000 0.06380 -0.35700
C 	C 	-0.00000 -0.00000 0.19480 -0.37600
C 	C 	0.50000 0.50000 0.56380 -0.43400
C 	C 	0.50000 0.50000 0.69480 -0.45900
Ag	Ag	-0.00000 0.50000 0.87814 0.54900
Ag	Ag	0.50000 -0.00000 0.37814 0.54900
C 	C 	0.16330 0.49860 0.54570 0.05000
C 	C 	0.22630 0.49720 0.50932 0.01600
C 	C 	0.23570 0.56250 0.47720 -0.11000
H 	H 	0.20110 0.60600 0.47940 0.06000
C 	C 	0.29700 0.56220 0.44210 0.02400
H 	H 	0.30170 0.60520 0.42010 0.00700
C 	C 	0.35110 0.49970 0.43877 -0.12200
C 	C 	0.33880 0.43240 0.47090 0.01200
H 	H 	0.37270 0.38840 0.46840 0.01600
C 	C 	0.27820 0.43130 0.50540 -0.10100
H 	H 	0.27140 0.38710 0.52610 0.05700
C 	C 	0.42350 0.50030 0.40353 0.30900
C 	C 	0.42390 0.42520 0.37000 -0.45100
H 	H 	0.37640 0.42490 0.34920 0.16600
H 	H 	0.42300 0.37760 0.39070 0.16300
H 	H 	0.49980 0.45300 0.45750 0.15700
C 	C 	0.42500 0.57580 0.37080 -0.43800
H 	H 	0.37750 0.57740 0.35000 0.15900
H 	H 	0.42510 0.62300 0.39190 0.15700
C 	C 	0.49860 0.42410 0.33692 0.32100
H 	H 	0.54690 0.49910 0.28390 0.16600
C 	C 	0.50730 0.14620 0.21060 0.05400
C 	C 	0.50550 0.21490 0.24320 0.03600
C 	C 	0.49410 0.28800 0.22160 -0.11500
H 	H 	0.48770 0.29250 0.18720 0.06000
C 	C 	0.49210 0.35570 0.25180 0.03800
H 	H 	0.48450 0.40570 0.23740 -0.00000
C 	C 	0.50140 0.34960 0.30380 -0.13700
C 	C 	0.51000 0.27550 0.32370 0.03900
H 	H 	0.51380 0.27040 0.35830 0.00600
C 	C 	0.51340 0.20690 0.29450 -0.11000
H 	H 	0.52080 0.15680 0.30900 0.06100
N 	N 	0.11190 0.49760 0.57376 -0.18800
N 	N 	0.51050 0.09440 0.18230 -0.18000
C 	C 	0.66330 0.99860 0.04570 0.04900
C 	C 	0.72630 0.99720 0.00932 0.00600
C 	C 	0.73570 0.06250 0.97720 -0.10000
H 	H 	0.70110 0.10600 0.97940 0.05800
C 	C 	0.79700 0.06220 0.94210 0.02900
H 	H 	0.80170 0.10520 0.92010 0.00700
C 	C 	0.85110 0.99970 0.93877 -0.12700
C 	C 	0.83880 0.93240 0.97090 0.00900
H 	H 	0.87270 0.88840 0.96840 0.01700
C 	C 	0.77820 0.93130 0.00540 -0.09700
H 	H 	0.77140 0.88710 0.02610 0.05600
C 	C 	0.92350 0.00030 0.90353 0.28700
C 	C 	0.92390 0.92520 0.87000 -0.42000
H 	H 	0.87640 0.92490 0.84920 0.15400
H 	H 	0.92300 0.87760 0.89070 0.15200
H 	H 	0.99980 0.95300 0.95750 0.12500
C 	C 	0.92500 0.07580 0.87080 -0.42200
H 	H 	0.87750 0.07740 0.85000 0.15600
H 	H 	0.92510 0.12300 0.89190 0.15200
C 	C 	0.99860 0.92410 0.83692 0.25700
H 	H 	0.04690 0.99910 0.78390 0.13600
C 	C 	0.00730 0.64620 0.71060 0.05800
C 	C 	0.00550 0.71490 0.74320 0.03100
C 	C 	0.99410 0.78800 0.72160 -0.10600
H 	H 	0.98770 0.79250 0.68720 0.05400
C 	C 	0.99210 0.85570 0.75180 0.00600
H 	H 	0.98450 0.90570 0.73740 0.00800
C 	C 	0.00140 0.84960 0.80380 -0.09400
C 	C 	0.01000 0.77550 0.82370 0.01200
H 	H 	0.01380 0.77040 0.85830 0.01700
C 	C 	0.01340 0.70690 0.79450 -0.09300
H 	H 	0.02080 0.65680 0.80900 0.05500
N 	N 	0.61190 0.99760 0.07376 -0.19100
N 	N 	0.01050 0.59440 0.68230 -0.18100
C 	C 	0.83670 0.50140 0.54570 0.04800
C 	C 	0.77370 0.50280 0.50932 0.01600
C 	C 	0.76430 0.43750 0.47720 -0.10900
H 	H 	0.79890 0.39400 0.47940 0.05900
C 	C 	0.70300 0.43780 0.44210 0.02400
H 	H 	0.69830 0.39480 0.42010 0.00800
C 	C 	0.64890 0.50030 0.43877 -0.12200
C 	C 	0.66120 0.56760 0.47090 0.01100
H 	H 	0.62730 0.61160 0.46840 0.01600
C 	C 	0.72180 0.56870 0.50540 -0.10100
H 	H 	0.72860 0.61290 0.52610 0.05700
C 	C 	0.57650 0.49970 0.40353 0.30900
C 	C 	0.57610 0.57480 0.37000 -0.45100
H 	H 	0.62360 0.57510 0.34920 0.16600
H 	H 	0.57700 0.62240 0.39070 0.16300
H 	H 	0.50020 0.54700 0.45750 0.15700
C 	C 	0.57500 0.42420 0.37080 -0.43800
H 	H 	0.62250 0.42260 0.35000 0.15900
H 	H 	0.57490 0.37700 0.39190 0.15800
C 	C 	0.50140 0.57590 0.33692 0.32000
H 	H 	0.45310 0.50090 0.28390 0.16600
C 	C 	0.49270 0.85380 0.21060 0.05200
C 	C 	0.49450 0.78510 0.24320 0.03500
C 	C 	0.50590 0.71200 0.22160 -0.11500
H 	H 	0.51230 0.70750 0.18720 0.06000
C 	C 	0.50790 0.64430 0.25180 0.03700
H 	H 	0.51550 0.59430 0.23740 0.00000
C 	C 	0.49860 0.65040 0.30380 -0.13600
C 	C 	0.49000 0.72450 0.32370 0.03700
H 	H 	0.48620 0.72960 0.35830 0.00600
C 	C 	0.48660 0.79310 0.29450 -0.10900
H 	H 	0.47920 0.84320 0.30900 0.05800
N 	N 	0.88810 0.50240 0.57376 -0.19100
N 	N 	0.48950 0.90560 0.18230 -0.18400
C 	C 	0.33670 0.00140 0.04570 0.05400
C 	C 	0.27370 0.00280 0.00932 0.01300
C 	C 	0.26430 0.93750 0.97720 -0.10100
H 	H 	0.29890 0.89400 0.97940 0.05600
C 	C 	0.20300 0.93780 0.94210 -0.00900
H 	H 	0.19830 0.89480 0.92010 0.01900
C 	C 	0.14890 0.00030 0.93877 -0.07700
C 	C 	0.16120 0.06760 0.97090 -0.01100
H 	H 	0.12730 0.11160 0.96840 0.02600
C 	C 	0.22180 0.06870 0.00540 -0.08600
H 	H 	0.22860 0.11290 0.02610 0.05200
C 	C 	0.07650 0.99970 0.90353 0.24700
C 	C 	0.07610 0.07480 0.87000 -0.40500
H 	H 	0.12360 0.07510 0.84920 0.15400
H 	H 	0.07700 0.12240 0.89070 0.15100
H 	H 	0.00020 0.04700 0.95750 0.13900
C 	C 	0.07500 0.92420 0.87080 -0.38100
H 	H 	0.12250 0.92260 0.85000 0.14100
H 	H 	0.07490 0.87700 0.89190 0.14100
C 	C 	0.00140 0.07590 0.83692 0.29600
H 	H 	0.95310 0.00090 0.78390 0.14000
C 	C 	0.99270 0.35380 0.71060 0.05400
C 	C 	0.99450 0.28510 0.74320 0.02200
C 	C 	0.00590 0.21200 0.72160 -0.10000
H 	H 	0.01230 0.20750 0.68720 0.05800
C 	C 	0.00790 0.14430 0.75180 0.03800
H 	H 	0.01550 0.09430 0.73740 0.00400
C 	C 	0.99860 0.15040 0.80380 -0.13500
C 	C 	0.99000 0.22450 0.82370 0.03100
H 	H 	0.98620 0.22960 0.85830 0.00700
C 	C 	0.98660 0.29310 0.79450 -0.10300
H 	H 	0.97920 0.34320 0.80900 0.05600
N 	N 	0.38810 0.00240 0.07376 -0.18800
N 	N 	0.98950 0.40560 0.68230 -0.18500
C 	C 	0.50000 0.50000 0.43620 -0.43400
C 	C 	0.50000 0.50000 0.30520 -0.45900
C 	C 	0.00000 0.00000 0.93620 -0.35700
C 	C 	0.00000 0.00000 0.80520 -0.37600
Ag	Ag	-0.00000 0.50000 0.62186 0.54900
Ag	Ag	0.50000 -0.00000 0.12186 0.54900
