data_crystal

_cell_length_a 13.27760
_cell_length_b 22.12020
_cell_length_c 14.26900
_cell_angle_alpha 90.00000
_cell_angle_beta  112.54000
_cell_angle_gamma 90.00000

_symmetry_space_group_name_	'P 1'
_symmetry_space_group_name_H-M	'P 1'

loop_
_symmetry_equiv_pos_as_xyz
  x,y,z

loop_
_atom_site_label
_atom_site_type_symbol
_atom_site_fract_x
_atom_site_fract_y
_atom_site_fract_z
_atom_site_charge
O 	O 	0.60830 0.71337 0.64480 -0.26900
O 	O 	0.59560 0.78519 0.98260 -0.20300
O 	O 	0.89840 0.93611 0.86910 -0.41000
C 	C 	0.64710 0.79950 0.91850 0.19800
O 	O 	0.87570 0.93652 0.01510 -0.42200
C 	C 	0.76030 0.83680 0.80220 -0.03500
H 	H 	0.79760 0.84960 0.76230 0.07500
C 	C 	0.71760 0.84780 0.94950 -0.12600
H 	H 	0.72690 0.86770 0.00960 0.11100
C 	C 	0.77500 0.86690 0.89100 -0.02400
C 	C 	0.63370 0.76820 0.83040 -0.13500
H 	H 	0.58780 0.73480 0.81100 0.10000
O 	O 	0.73320 0.77590 0.62870 -0.40100
C 	C 	0.52410 0.73530 0.96000 0.01000
H 	H 	0.56350 0.69800 0.96250 0.04000
H 	H 	0.46730 0.73950 0.89290 0.05500
C 	C 	0.69010 0.78770 0.77170 -0.00700
C 	C 	0.67590 0.75620 0.67390 0.31900
C 	C 	0.85500 0.91730 0.92780 0.35400
N 	N 	0.66710 0.81890 0.40790 -0.29400
N 	N 	0.64200 0.82200 0.44010 -0.02500
N 	N 	0.56380 0.90000 0.34560 -0.20000
C 	C 	0.62630 0.85230 0.35620 0.50300
C 	C 	0.65770 0.87340 0.43660 -0.10000
C 	C 	0.60860 0.81590 0.31100 -0.18700
C 	C 	0.56650 0.84500 0.47860 -0.00900
C 	C 	0.56000 0.86990 0.27550 -0.05500
C 	C 	0.50670 0.89120 0.41320 0.05600
C 	C 	0.55280 0.96550 0.35680 0.10900
C 	C 	0.50710 0.93420 0.25290 0.10000
O 	O 	0.10830 0.21337 0.64480 -0.27300
O 	O 	0.09560 0.28519 0.98260 -0.20600
O 	O 	0.39840 0.43611 0.86910 -0.43700
C 	C 	0.14710 0.29950 0.91850 0.19400
O 	O 	0.37570 0.43652 0.01510 -0.44600
C 	C 	0.26030 0.33680 0.80220 -0.03100
H 	H 	0.29760 0.34960 0.76230 0.06900
C 	C 	0.21760 0.34780 0.94950 -0.12700
H 	H 	0.22690 0.36770 0.00960 0.10600
C 	C 	0.27500 0.36690 0.89100 -0.03300
C 	C 	0.13370 0.26820 0.83040 -0.13200
H 	H 	0.08780 0.23480 0.81100 0.09800
O 	O 	0.23320 0.27590 0.62870 -0.40400
C 	C 	0.02410 0.23530 0.96000 0.00900
H 	H 	0.06350 0.19800 0.96250 0.04000
H 	H 	0.96730 0.23950 0.89290 0.05600
C 	C 	0.19010 0.28770 0.77170 -0.01100
C 	C 	0.17590 0.25620 0.67390 0.32100
C 	C 	0.35500 0.41730 0.92780 0.35800
N 	N 	0.16710 0.31890 0.40790 -0.29600
N 	N 	0.14200 0.32200 0.44010 -0.02200
N 	N 	0.06380 0.40000 0.34560 -0.18700
C 	C 	0.12630 0.35230 0.35620 0.50300
C 	C 	0.15770 0.37340 0.43660 -0.11300
C 	C 	0.10860 0.31590 0.31100 -0.18700
C 	C 	0.06650 0.34500 0.47860 -0.01000
C 	C 	0.06000 0.36990 0.27550 -0.06100
C 	C 	0.00670 0.39120 0.41320 0.05400
C 	C 	0.05280 0.46550 0.35680 0.03500
C 	C 	0.00710 0.43420 0.25290 0.06900
O 	O 	0.39170 0.71337 0.35520 -0.27000
O 	O 	0.40440 0.78519 0.01740 -0.20400
O 	O 	0.10160 0.93611 0.13090 -0.41100
C 	C 	0.35290 0.79950 0.08150 0.19700
O 	O 	0.12430 0.93652 0.98490 -0.42300
C 	C 	0.23970 0.83680 0.19780 -0.03600
H 	H 	0.20240 0.84960 0.23770 0.07400
C 	C 	0.28240 0.84780 0.05050 -0.12700
H 	H 	0.27310 0.86770 0.99040 0.11100
C 	C 	0.22500 0.86690 0.10900 -0.02400
C 	C 	0.36630 0.76820 0.16960 -0.13500
H 	H 	0.41220 0.73480 0.18900 0.10000
O 	O 	0.26680 0.77590 0.37130 -0.40100
C 	C 	0.47590 0.73530 0.04000 0.01000
H 	H 	0.43650 0.69800 0.03750 0.04000
H 	H 	0.53270 0.73950 0.10710 0.05500
C 	C 	0.30990 0.78770 0.22830 -0.00700
C 	C 	0.32410 0.75620 0.32610 0.31900
C 	C 	0.14500 0.91730 0.07220 0.35400
N 	N 	0.33290 0.81890 0.59210 -0.29400
N 	N 	0.35800 0.82200 0.55990 -0.02500
N 	N 	0.43620 0.90000 0.65440 -0.20000
C 	C 	0.37370 0.85230 0.64380 0.50300
C 	C 	0.34230 0.87340 0.56340 -0.10000
C 	C 	0.39140 0.81590 0.68900 -0.18700
C 	C 	0.43350 0.84500 0.52140 -0.00900
C 	C 	0.44000 0.86990 0.72450 -0.05500
C 	C 	0.49330 0.89120 0.58680 0.05600
C 	C 	0.44720 0.96550 0.64320 0.10900
C 	C 	0.49290 0.93420 0.74710 0.10000
O 	O 	0.89170 0.21337 0.35520 -0.27300
O 	O 	0.90440 0.28519 0.01740 -0.20600
O 	O 	0.60160 0.43611 0.13090 -0.43700
C 	C 	0.85290 0.29950 0.08150 0.19400
O 	O 	0.62430 0.43652 0.98490 -0.44600
C 	C 	0.73970 0.33680 0.19780 -0.03100
H 	H 	0.70240 0.34960 0.23770 0.06900
C 	C 	0.78240 0.34780 0.05050 -0.12700
H 	H 	0.77310 0.36770 0.99040 0.10600
C 	C 	0.72500 0.36690 0.10900 -0.03300
C 	C 	0.86630 0.26820 0.16960 -0.13200
H 	H 	0.91220 0.23480 0.18900 0.09800
O 	O 	0.76680 0.27590 0.37130 -0.40400
C 	C 	0.97590 0.23530 0.04000 0.00900
H 	H 	0.93650 0.19800 0.03750 0.04000
H 	H 	0.03270 0.23950 0.10710 0.05600
C 	C 	0.80990 0.28770 0.22830 -0.01100
C 	C 	0.82410 0.25620 0.32610 0.32100
C 	C 	0.64500 0.41730 0.07220 0.35800
N 	N 	0.83290 0.31890 0.59210 -0.29600
N 	N 	0.85800 0.32200 0.55990 -0.02200
N 	N 	0.93620 0.40000 0.65440 -0.18700
C 	C 	0.87370 0.35230 0.64380 0.50300
C 	C 	0.84230 0.37340 0.56340 -0.11300
C 	C 	0.89140 0.31590 0.68900 -0.18700
C 	C 	0.93350 0.34500 0.52140 -0.01000
C 	C 	0.94000 0.36990 0.72450 -0.06100
C 	C 	0.99330 0.39120 0.58680 0.05400
C 	C 	0.94720 0.46550 0.64320 0.03500
C 	C 	0.99290 0.43420 0.74710 0.06900
O 	O 	0.39170 0.28663 0.35520 -0.27000
O 	O 	0.40440 0.21481 0.01740 -0.20600
O 	O 	0.10160 0.06389 0.13090 -0.45000
C 	C 	0.35290 0.20050 0.08150 0.19000
O 	O 	0.12430 0.06348 0.98490 -0.46100
C 	C 	0.23970 0.16320 0.19780 -0.02700
H 	H 	0.20240 0.15040 0.23770 0.06500
C 	C 	0.28240 0.15220 0.05050 -0.12000
H 	H 	0.27310 0.13230 0.99040 0.09900
C 	C 	0.22500 0.13310 0.10900 -0.04200
C 	C 	0.36630 0.23180 0.16960 -0.12900
H 	H 	0.41220 0.26520 0.18900 0.09900
O 	O 	0.26680 0.22410 0.37130 -0.40500
C 	C 	0.47590 0.26470 0.04000 0.01000
H 	H 	0.43650 0.30200 0.03750 0.04000
H 	H 	0.53270 0.26050 0.10710 0.05400
C 	C 	0.30990 0.21230 0.22830 -0.01400
C 	C 	0.32410 0.24380 0.32610 0.32100
C 	C 	0.14500 0.08270 0.07220 0.36100
N 	N 	0.33290 0.18110 0.59210 -0.30300
N 	N 	0.35800 0.17800 0.55990 -0.01600
N 	N 	0.43620 0.10000 0.65440 -0.18200
C 	C 	0.37370 0.14770 0.64380 0.52000
C 	C 	0.34230 0.12660 0.56340 -0.12900
C 	C 	0.39140 0.18410 0.68900 -0.19200
C 	C 	0.43350 0.15500 0.52140 -0.01000
C 	C 	0.44000 0.13010 0.72450 -0.07400
C 	C 	0.49330 0.10880 0.58680 0.04600
C 	C 	0.44720 0.03450 0.64320 -0.00500
C 	C 	0.49290 0.06580 0.74710 0.07800
O 	O 	0.89170 0.78663 0.35520 -0.26500
O 	O 	0.90440 0.71481 0.01740 -0.20600
O 	O 	0.60160 0.56389 0.13090 -0.43700
C 	C 	0.85290 0.70050 0.08150 0.19500
O 	O 	0.62430 0.56348 0.98490 -0.44600
C 	C 	0.73970 0.66320 0.19780 -0.03300
H 	H 	0.70240 0.65040 0.23770 0.07000
C 	C 	0.78240 0.65220 0.05050 -0.12800
H 	H 	0.77310 0.63230 0.99040 0.10700
C 	C 	0.72500 0.63310 0.10900 -0.03200
C 	C 	0.86630 0.73180 0.16960 -0.13400
H 	H 	0.91220 0.76520 0.18900 0.10100
O 	O 	0.76680 0.72410 0.37130 -0.40300
C 	C 	0.97590 0.76470 0.04000 0.00800
H 	H 	0.93650 0.80200 0.03750 0.04000
H 	H 	0.03270 0.76050 0.10710 0.05600
C 	C 	0.80990 0.71230 0.22830 -0.00900
C 	C 	0.82410 0.74380 0.32610 0.31900
C 	C 	0.64500 0.58270 0.07220 0.35700
N 	N 	0.83290 0.68110 0.59210 -0.29600
N 	N 	0.85800 0.67800 0.55990 -0.02200
N 	N 	0.93620 0.60000 0.65440 -0.18700
C 	C 	0.87370 0.64770 0.64380 0.50100
C 	C 	0.84230 0.62660 0.56340 -0.11200
C 	C 	0.89140 0.68410 0.68900 -0.18600
C 	C 	0.93350 0.65500 0.52140 -0.01000
C 	C 	0.94000 0.63010 0.72450 -0.06100
C 	C 	0.99330 0.60880 0.58680 0.05400
C 	C 	0.94720 0.53450 0.64320 0.03500
C 	C 	0.99290 0.56580 0.74710 0.06900
O 	O 	0.60830 0.28663 0.64480 -0.27000
O 	O 	0.59560 0.21481 0.98260 -0.20600
O 	O 	0.89840 0.06389 0.86910 -0.45000
C 	C 	0.64710 0.20050 0.91850 0.19000
O 	O 	0.87570 0.06348 0.01510 -0.46100
C 	C 	0.76030 0.16320 0.80220 -0.02700
H 	H 	0.79760 0.15040 0.76230 0.06500
C 	C 	0.71760 0.15220 0.94950 -0.12000
H 	H 	0.72690 0.13230 0.00960 0.09900
C 	C 	0.77500 0.13310 0.89100 -0.04200
C 	C 	0.63370 0.23180 0.83040 -0.12900
H 	H 	0.58780 0.26520 0.81100 0.09900
O 	O 	0.73320 0.22410 0.62870 -0.40500
C 	C 	0.52410 0.26470 0.96000 0.01000
H 	H 	0.56350 0.30200 0.96250 0.04000
H 	H 	0.46730 0.26050 0.89290 0.05400
C 	C 	0.69010 0.21230 0.77170 -0.01400
C 	C 	0.67590 0.24380 0.67390 0.32100
C 	C 	0.85500 0.08270 0.92780 0.36100
N 	N 	0.66710 0.18110 0.40790 -0.30300
N 	N 	0.64200 0.17800 0.44010 -0.01600
N 	N 	0.56380 0.10000 0.34560 -0.18200
C 	C 	0.62630 0.14770 0.35620 0.52000
C 	C 	0.65770 0.12660 0.43660 -0.12900
C 	C 	0.60860 0.18410 0.31100 -0.19200
C 	C 	0.56650 0.15500 0.47860 -0.01000
C 	C 	0.56000 0.13010 0.27550 -0.07400
C 	C 	0.50670 0.10880 0.41320 0.04600
C 	C 	0.55280 0.03450 0.35680 -0.00500
C 	C 	0.50710 0.06580 0.25290 0.07800
O 	O 	0.10830 0.78663 0.64480 -0.26500
O 	O 	0.09560 0.71481 0.98260 -0.20600
O 	O 	0.39840 0.56389 0.86910 -0.43700
C 	C 	0.14710 0.70050 0.91850 0.19500
O 	O 	0.37570 0.56348 0.01510 -0.44600
C 	C 	0.26030 0.66320 0.80220 -0.03300
H 	H 	0.29760 0.65040 0.76230 0.07000
C 	C 	0.21760 0.65220 0.94950 -0.12800
H 	H 	0.22690 0.63230 0.00960 0.10700
C 	C 	0.27500 0.63310 0.89100 -0.03200
C 	C 	0.13370 0.73180 0.83040 -0.13400
H 	H 	0.08780 0.76520 0.81100 0.10100
O 	O 	0.23320 0.72410 0.62870 -0.40300
C 	C 	0.02410 0.76470 0.96000 0.00800
H 	H 	0.06350 0.80200 0.96250 0.04000
H 	H 	0.96730 0.76050 0.89290 0.05600
C 	C 	0.19010 0.71230 0.77170 -0.00900
C 	C 	0.17590 0.74380 0.67390 0.31900
C 	C 	0.35500 0.58270 0.92780 0.35700
N 	N 	0.16710 0.68110 0.40790 -0.29600
N 	N 	0.14200 0.67800 0.44010 -0.02200
N 	N 	0.06380 0.60000 0.34560 -0.18700
C 	C 	0.12630 0.64770 0.35620 0.50100
C 	C 	0.15770 0.62660 0.43660 -0.11200
C 	C 	0.10860 0.68410 0.31100 -0.18600
C 	C 	0.06650 0.65500 0.47860 -0.01000
C 	C 	0.06000 0.63010 0.27550 -0.06100
C 	C 	0.00670 0.60880 0.41320 0.05400
C 	C 	0.05280 0.53450 0.35680 0.03500
C 	C 	0.00710 0.56580 0.25290 0.06900
Ni	Ni	0.75000 0.75000 0.50000 1.09300
Ni	Ni	0.25000 0.75000 0.50000 1.09300
Ni	Ni	0.25000 0.25000 0.50000 1.09200
Ni	Ni	0.75000 0.25000 0.50000 1.09200
Ni	Ni	0.01481 0.00000 0.91185 1.04700
C 	C 	0.56910 0.00000 0.27350 -0.11200
Ni	Ni	0.51481 0.50000 0.91185 1.07000
C 	C 	0.06910 0.50000 0.27350 -0.04300
Ni	Ni	0.98519 0.00000 0.08815 1.04700
C 	C 	0.43090 0.00000 0.72650 -0.11200
Ni	Ni	0.48519 0.50000 0.08815 1.07000
C 	C 	0.93090 0.50000 0.72650 -0.04300
