data_crystal

_cell_length_a 10.88180
_cell_length_b 12.95150
_cell_length_c 12.95150
_cell_angle_alpha 120.00000
_cell_angle_beta  90.00000
_cell_angle_gamma 90.00000

_symmetry_space_group_name_	'P 1'
_symmetry_space_group_name_H-M	'P 1'

loop_
_symmetry_equiv_pos_as_xyz
  x,y,z

loop_
_atom_site_label
_atom_site_type_symbol
_atom_site_fract_x
_atom_site_fract_y
_atom_site_fract_z
_atom_site_charge
Cd	Cd	0.50000 0.66667 0.33334 1.19900
Cd	Cd	0.50000 0.33333 0.66666 1.19900
H 	H 	0.89730 0.56660 0.17890 0.05100
H 	H 	0.89730 0.61230 0.43340 0.04900
H 	H 	0.89730 0.82110 0.38770 0.05100
H 	H 	0.10270 0.61230 0.17890 0.04900
H 	H 	0.10270 0.82110 0.43340 0.05100
H 	H 	0.10270 0.56660 0.38770 0.05000
H 	H 	0.10270 0.43340 0.82110 0.05100
H 	H 	0.10270 0.38770 0.56660 0.05000
H 	H 	0.10270 0.17890 0.61230 0.04900
H 	H 	0.89730 0.38770 0.82110 0.05100
H 	H 	0.89730 0.17890 0.56660 0.05000
H 	H 	0.89730 0.43340 0.61230 0.04900
C 	C 	0.93850 0.53860 0.10490 -0.07000
C 	C 	0.67800 0.48440 0.10610 0.12200
C 	C 	0.93850 0.56630 0.46140 -0.07000
C 	C 	0.67800 0.62170 0.51560 0.12200
C 	C 	0.93850 0.89510 0.43370 -0.07800
C 	C 	0.67800 0.89390 0.37830 0.11200
C 	C 	0.06150 0.56630 0.10490 -0.07000
C 	C 	0.32200 0.62170 0.10610 0.12200
C 	C 	0.06150 0.89510 0.46140 -0.07800
C 	C 	0.32200 0.89390 0.51560 0.11100
C 	C 	0.06150 0.53860 0.43370 -0.07000
C 	C 	0.32200 0.48440 0.37830 0.12300
C 	C 	0.06150 0.46140 0.89510 -0.07800
C 	C 	0.32200 0.51560 0.89390 0.11100
C 	C 	0.06150 0.43370 0.53860 -0.07000
C 	C 	0.32200 0.37830 0.48440 0.12300
C 	C 	0.06150 0.10490 0.56630 -0.07000
C 	C 	0.32200 0.10610 0.62170 0.12200
C 	C 	0.93850 0.43370 0.89510 -0.07800
C 	C 	0.67800 0.37830 0.89390 0.11200
C 	C 	0.93850 0.10490 0.53860 -0.07000
C 	C 	0.67800 0.10610 0.48440 0.12200
C 	C 	0.93850 0.46140 0.56630 -0.07000
C 	C 	0.67800 0.51560 0.62170 0.12200
C 	C 	0.74360 0.44190 -0.00000 -0.13400
C 	C 	0.87420 0.47130 -0.00000 0.07500
C 	C 	0.74360 0.55810 0.55810 -0.14300
C 	C 	0.87420 0.52870 0.52870 0.06700
C 	C 	0.74360 0.00000 0.44190 -0.13400
C 	C 	0.87420 0.00000 0.47130 0.07500
C 	C 	0.25640 0.55810 -0.00000 -0.13400
C 	C 	0.12580 0.52870 -0.00000 0.07400
C 	C 	0.25640 0.00000 0.55810 -0.13400
C 	C 	0.12580 0.00000 0.52870 0.07400
C 	C 	0.25640 0.44190 0.44190 -0.14300
C 	C 	0.12580 0.47130 0.47130 0.06800
N 	N 	0.62420 0.51800 0.19200 -0.26300
N 	N 	0.62420 0.67400 0.48200 -0.26500
N 	N 	0.62420 0.80800 0.32600 -0.26200
N 	N 	0.37580 0.67400 0.19200 -0.26400
N 	N 	0.37580 0.80800 0.48200 -0.26300
N 	N 	0.37580 0.51800 0.32600 -0.26400
N 	N 	0.37580 0.48200 0.80800 -0.26300
N 	N 	0.37580 0.32600 0.51800 -0.26400
N 	N 	0.37580 0.19200 0.67400 -0.26400
N 	N 	0.62420 0.32600 0.80800 -0.26200
N 	N 	0.62420 0.19200 0.51800 -0.26300
N 	N 	0.62420 0.48200 0.67400 -0.26500
