data_crystal

_cell_length_a 12.74470
_cell_length_b 12.74470
_cell_length_c 10.71070
_cell_angle_alpha 90.00000
_cell_angle_beta  90.00000
_cell_angle_gamma 120.00000

_symmetry_space_group_name_	'P 1'
_symmetry_space_group_name_H-M	'P 1'

loop_
_symmetry_equiv_pos_as_xyz
  x,y,z

loop_
_atom_site_label
_atom_site_type_symbol
_atom_site_fract_x
_atom_site_fract_y
_atom_site_fract_z
_atom_site_charge
N 	N 	0.46840 0.66480 0.11550 -0.30500
C 	C 	0.45880 0.56640 0.43580 -0.06700
H 	H 	0.42960 0.61200 0.39300 0.04800
C 	C 	0.50710 0.61430 0.16990 0.09200
N 	N 	0.33520 0.80360 0.11550 -0.30300
C 	C 	0.43360 0.89240 0.43580 -0.07500
H 	H 	0.38800 0.81760 0.39300 0.05000
C 	C 	0.38570 0.89280 0.16990 0.08300
N 	N 	0.19640 0.53160 0.11550 -0.30400
C 	C 	0.10760 0.54120 0.43580 -0.06700
H 	H 	0.18240 0.57040 0.39300 0.04900
C 	C 	0.10720 0.49290 0.16990 0.09300
N 	N 	0.33520 0.53160 0.88450 -0.22600
C 	C 	0.43360 0.54120 0.56420 -0.07600
H 	H 	0.38800 0.57040 0.60700 0.05600
C 	C 	0.38570 0.49290 0.83010 0.17100
N 	N 	0.19640 0.66480 0.88450 -0.22600
C 	C 	0.10760 0.56640 0.56420 -0.07600
H 	H 	0.18240 0.61200 0.60700 0.05600
C 	C 	0.10720 0.61430 0.83010 0.16900
N 	N 	0.46840 0.80360 0.88450 -0.22500
C 	C 	0.45880 0.89240 0.56420 -0.08300
H 	H 	0.42960 0.81760 0.60700 0.05800
C 	C 	0.50710 0.89280 0.83010 0.15900
N 	N 	0.53160 0.33520 0.88450 -0.22600
C 	C 	0.54120 0.43360 0.56420 -0.07600
H 	H 	0.57040 0.38800 0.60700 0.05600
C 	C 	0.49290 0.38570 0.83010 0.17100
N 	N 	0.66480 0.19640 0.88450 -0.22600
C 	C 	0.56640 0.10760 0.56420 -0.07600
H 	H 	0.61200 0.18240 0.60700 0.05600
C 	C 	0.61430 0.10720 0.83010 0.16900
N 	N 	0.80360 0.46840 0.88450 -0.22500
C 	C 	0.89240 0.45880 0.56420 -0.08300
H 	H 	0.81760 0.42960 0.60700 0.05800
C 	C 	0.89280 0.50710 0.83010 0.15900
N 	N 	0.66480 0.46840 0.11550 -0.30500
C 	C 	0.56640 0.45880 0.43580 -0.06700
H 	H 	0.61200 0.42960 0.39300 0.04800
C 	C 	0.61430 0.50710 0.16990 0.09200
N 	N 	0.80360 0.33520 0.11550 -0.30300
C 	C 	0.89240 0.43360 0.43580 -0.07500
H 	H 	0.81760 0.38800 0.39300 0.05000
C 	C 	0.89280 0.38570 0.16990 0.08300
N 	N 	0.53160 0.19640 0.11550 -0.30400
C 	C 	0.54120 0.10760 0.43580 -0.06700
H 	H 	0.57040 0.18240 0.39300 0.04900
C 	C 	0.49290 0.10720 0.16990 0.09300
Zn	Zn	0.33333 0.66667 -0.00000 1.13700
Zn	Zn	0.66667 0.33333 -0.00000 1.13700
C 	C 	0.55260 0.55260 0.23740 -0.14500
C 	C 	0.52550 0.52550 0.37180 0.06100
C 	C 	0.44740 0.00000 0.23740 -0.13600
C 	C 	0.47450 0.00000 0.37180 0.06900
C 	C 	-0.00000 0.44740 0.23740 -0.13600
C 	C 	-0.00000 0.47450 0.37180 0.06900
C 	C 	0.44740 0.44740 0.76260 -0.14400
C 	C 	0.47450 0.47450 0.62820 0.08200
C 	C 	-0.00000 0.55260 0.76260 -0.13600
C 	C 	-0.00000 0.52550 0.62820 0.08800
C 	C 	0.55260 -0.00000 0.76260 -0.13600
C 	C 	0.52550 0.00000 0.62820 0.08800
