data_crystal

_cell_length_a 10.85320
_cell_length_b 13.01580
_cell_length_c 13.01580
_cell_angle_alpha 120.00000
_cell_angle_beta  90.00000
_cell_angle_gamma 90.00000

_symmetry_space_group_name_	'P 1'
_symmetry_space_group_name_H-M	'P 1'

loop_
_symmetry_equiv_pos_as_xyz
  x,y,z

loop_
_atom_site_label
_atom_site_type_symbol
_atom_site_fract_x
_atom_site_fract_y
_atom_site_fract_z
_atom_site_charge
Mn	Mn	0.00000 0.33333 0.66666 1.18300
Mn	Mn	-0.00000 0.66667 0.33334 1.18300
H 	H 	0.60460 0.61000 0.18020 0.05600
H 	H 	0.60460 0.57020 0.39000 0.05600
H 	H 	0.60460 0.81980 0.42980 0.05700
H 	H 	0.39540 0.57020 0.18020 0.04700
H 	H 	0.39540 0.81980 0.39000 0.04800
H 	H 	0.39540 0.61000 0.42980 0.04600
H 	H 	0.39540 0.39000 0.81980 0.04800
H 	H 	0.39540 0.42980 0.61000 0.04600
H 	H 	0.39540 0.18020 0.57020 0.04600
H 	H 	0.60460 0.42980 0.81980 0.05600
H 	H 	0.60460 0.18020 0.61000 0.05500
H 	H 	0.60460 0.39000 0.57020 0.05500
C 	C 	0.82580 0.50350 0.89500 0.15000
C 	C 	0.56230 0.56500 0.10700 -0.07300
C 	C 	0.82580 0.39150 0.49650 0.16100
C 	C 	0.56230 0.54200 0.43500 -0.07300
C 	C 	0.82580 0.10500 0.60850 0.15900
C 	C 	0.56230 0.89300 0.45800 -0.08000
C 	C 	0.17420 0.39150 0.89500 0.07200
C 	C 	0.43770 0.54200 0.10700 -0.06500
C 	C 	0.17420 0.10500 0.49650 0.08200
C 	C 	0.43770 0.89300 0.43500 -0.07200
C 	C 	0.17420 0.50350 0.60850 0.08100
C 	C 	0.43770 0.56500 0.45800 -0.06400
C 	C 	0.17420 0.49650 0.10500 0.08200
C 	C 	0.43770 0.43500 0.89300 -0.07200
C 	C 	0.17420 0.60850 0.50350 0.08100
C 	C 	0.43770 0.45800 0.56500 -0.06400
C 	C 	0.17420 0.89500 0.39150 0.07200
C 	C 	0.43770 0.10700 0.54200 -0.06500
C 	C 	0.82580 0.60850 0.10500 0.15900
C 	C 	0.56230 0.45800 0.89300 -0.08000
C 	C 	0.82580 0.89500 0.50350 0.15000
C 	C 	0.56230 0.10700 0.56500 -0.07300
C 	C 	0.82580 0.49650 0.39150 0.16100
C 	C 	0.56230 0.43500 0.54200 -0.07300
C 	C 	0.76050 0.54600 -0.00000 -0.13000
C 	C 	0.62640 0.52230 -0.00000 0.08000
C 	C 	0.76050 0.45400 0.45400 -0.13700
C 	C 	0.62640 0.47770 0.47770 0.07500
C 	C 	0.76050 -0.00000 0.54600 -0.13000
C 	C 	0.62640 -0.00000 0.52230 0.08000
C 	C 	0.23950 0.45400 -0.00000 -0.13000
C 	C 	0.37360 0.47770 -0.00000 0.06100
C 	C 	0.23950 0.00000 0.45400 -0.13000
C 	C 	0.37360 0.00000 0.47770 0.06100
C 	C 	0.23950 0.54600 0.54600 -0.13900
C 	C 	0.37360 0.52230 0.52230 0.05400
N 	N 	0.88000 0.46760 0.80700 -0.22300
N 	N 	0.88000 0.33940 0.53240 -0.22400
N 	N 	0.88000 0.19300 0.66060 -0.22400
N 	N 	0.12000 0.33940 0.80700 -0.30100
N 	N 	0.12000 0.19300 0.53240 -0.30200
N 	N 	0.12000 0.46760 0.66060 -0.30300
N 	N 	0.12000 0.53240 0.19300 -0.30100
N 	N 	0.12000 0.66060 0.46760 -0.30300
N 	N 	0.12000 0.80700 0.33940 -0.30100
N 	N 	0.88000 0.66060 0.19300 -0.22400
N 	N 	0.88000 0.80700 0.46760 -0.22300
N 	N 	0.88000 0.53240 0.33940 -0.22400
