data_crystal

_cell_length_a 12.88140
_cell_length_b 12.88140
_cell_length_c 22.05910
_cell_angle_alpha 90.00000
_cell_angle_beta  90.00000
_cell_angle_gamma 120.00000

_symmetry_space_group_name_	'P 1'
_symmetry_space_group_name_H-M	'P 1'

loop_
_symmetry_equiv_pos_as_xyz
  x,y,z

loop_
_atom_site_label
_atom_site_type_symbol
_atom_site_fract_x
_atom_site_fract_y
_atom_site_fract_z
_atom_site_charge
Mn	Mn	0.33333 0.66666 0.50000 1.25100
Mn	Mn	0.66667 0.33334 -0.00000 1.21600
Mn	Mn	0.66667 0.33334 0.50000 1.25100
Mn	Mn	0.33333 0.66666 -0.00000 1.21600
H 	H 	0.52470 0.18080 0.30280 0.05100
H 	H 	0.65610 0.47530 0.30280 0.05000
H 	H 	0.81920 0.34390 0.30280 0.05300
H 	H 	0.47530 0.81920 0.80280 0.05500
H 	H 	0.34390 0.52470 0.80280 0.05300
H 	H 	0.18080 0.65610 0.80280 0.05300
H 	H 	0.34390 0.81920 0.19720 0.05100
H 	H 	0.18080 0.52470 0.19720 0.04900
H 	H 	0.47530 0.65610 0.19720 0.04800
H 	H 	0.65610 0.18080 0.69720 0.05100
H 	H 	0.81920 0.47530 0.69720 0.05200
H 	H 	0.52470 0.34390 0.69720 0.05100
H 	H 	0.47530 0.81920 0.69720 0.05200
H 	H 	0.34390 0.52470 0.69720 0.05100
H 	H 	0.18080 0.65610 0.69720 0.05100
H 	H 	0.52470 0.18080 0.19720 0.04900
H 	H 	0.65610 0.47530 0.19720 0.04800
H 	H 	0.81920 0.34390 0.19720 0.05100
H 	H 	0.65610 0.18080 0.80280 0.05300
H 	H 	0.81920 0.47530 0.80280 0.05500
H 	H 	0.52470 0.34390 0.80280 0.05300
H 	H 	0.34390 0.81920 0.30280 0.05300
H 	H 	0.18080 0.52470 0.30280 0.05100
H 	H 	0.47530 0.65610 0.30280 0.05000
C 	C 	0.37480 0.89250 0.41417 0.11800
C 	C 	0.48700 0.10670 0.28165 -0.07400
C 	C 	0.51770 0.62520 0.41417 0.12900
C 	C 	0.61970 0.51300 0.28165 -0.07400
C 	C 	0.10750 0.48230 0.41417 0.13000
C 	C 	0.89330 0.38030 0.28165 -0.08200
C 	C 	0.62520 0.10750 0.91417 0.14800
C 	C 	0.51300 0.89330 0.78165 -0.08100
C 	C 	0.48230 0.37480 0.91417 0.15000
C 	C 	0.38030 0.48700 0.78165 -0.07100
C 	C 	0.89250 0.51770 0.91417 0.13700
C 	C 	0.10670 0.61970 0.78165 -0.07200
C 	C 	0.48230 0.10750 0.08583 0.11100
C 	C 	0.38030 0.89330 0.21835 -0.08000
C 	C 	0.89250 0.37480 0.08583 0.10000
C 	C 	0.10670 0.48700 0.21835 -0.07200
C 	C 	0.62520 0.51770 0.08583 0.11000
C 	C 	0.51300 0.61970 0.21835 -0.07200
C 	C 	0.51770 0.89250 0.58583 0.11800
C 	C 	0.61970 0.10670 0.71835 -0.07000
C 	C 	0.10750 0.62520 0.58583 0.13000
C 	C 	0.89330 0.51300 0.71835 -0.07900
C 	C 	0.37480 0.48230 0.58583 0.13100
C 	C 	0.48700 0.38030 0.71835 -0.06900
C 	C 	0.62520 0.10750 0.58583 0.13000
C 	C 	0.51300 0.89330 0.71835 -0.07900
C 	C 	0.48230 0.37480 0.58583 0.13100
C 	C 	0.38030 0.48700 0.71835 -0.06900
C 	C 	0.89250 0.51770 0.58583 0.11800
C 	C 	0.10670 0.61970 0.71835 -0.07000
C 	C 	0.37480 0.89250 0.08583 0.10000
C 	C 	0.48700 0.10670 0.21835 -0.07200
C 	C 	0.51770 0.62520 0.08583 0.11000
C 	C 	0.61970 0.51300 0.21835 -0.07200
C 	C 	0.10750 0.48230 0.08583 0.11100
C 	C 	0.89330 0.38030 0.21835 -0.08000
C 	C 	0.51770 0.89250 0.91417 0.13700
C 	C 	0.61970 0.10670 0.78165 -0.07200
C 	C 	0.10750 0.62520 0.91417 0.14800
C 	C 	0.89330 0.51300 0.78165 -0.08100
C 	C 	0.37480 0.48230 0.91417 0.15000
C 	C 	0.48700 0.38030 0.78165 -0.07100
C 	C 	0.48230 0.10750 0.41417 0.13000
C 	C 	0.38030 0.89330 0.28165 -0.08200
C 	C 	0.89250 0.37480 0.41417 0.11800
C 	C 	0.10670 0.48700 0.28165 -0.07400
C 	C 	0.62520 0.51770 0.41417 0.12900
C 	C 	0.51300 0.61970 0.28165 -0.07400
C 	C 	0.43260 0.00000 0.31412 0.07700
C 	C 	0.42890 0.00000 0.38070 -0.13800
C 	C 	0.56740 0.56740 0.31412 0.06900
C 	C 	0.57110 0.57110 0.38070 -0.14800
C 	C 	0.00000 0.43260 0.31412 0.07700
C 	C 	0.00000 0.42890 0.38070 -0.13800
C 	C 	0.56740 0.00000 0.81412 0.08100
C 	C 	0.57110 0.00000 0.88070 -0.13500
C 	C 	0.43260 0.43260 0.81412 0.07400
C 	C 	0.42890 0.42890 0.88070 -0.14300
C 	C 	0.00000 0.56740 0.81412 0.08100
C 	C 	0.00000 0.57110 0.88070 -0.13500
C 	C 	0.43260 0.00000 0.18588 0.07300
C 	C 	0.42890 0.00000 0.11930 -0.13800
C 	C 	-0.00000 0.43260 0.18588 0.07300
C 	C 	0.00000 0.42890 0.11930 -0.13800
C 	C 	0.56740 0.56740 0.18588 0.06400
C 	C 	0.57110 0.57110 0.11930 -0.14800
C 	C 	0.56740 0.00000 0.68588 0.07600
C 	C 	0.57110 0.00000 0.61930 -0.13700
C 	C 	0.00000 0.56740 0.68588 0.07600
C 	C 	0.00000 0.57110 0.61930 -0.13700
C 	C 	0.43260 0.43260 0.68588 0.06900
C 	C 	0.42890 0.42890 0.61930 -0.14600
N 	N 	0.33400 0.80700 0.44176 -0.27700
N 	N 	0.47300 0.66600 0.44176 -0.27900
N 	N 	0.19300 0.52700 0.44176 -0.27800
N 	N 	0.66600 0.19300 0.94176 -0.25300
N 	N 	0.52700 0.33400 0.94176 -0.25300
N 	N 	0.80700 0.47300 0.94176 -0.25100
N 	N 	0.52700 0.19300 0.05824 -0.29300
N 	N 	0.80700 0.33400 0.05824 -0.29200
N 	N 	0.66600 0.47300 0.05824 -0.29500
N 	N 	0.47300 0.80700 0.55824 -0.27700
N 	N 	0.19300 0.66600 0.55824 -0.27800
N 	N 	0.33400 0.52700 0.55824 -0.27800
N 	N 	0.66600 0.19300 0.55824 -0.27800
N 	N 	0.52700 0.33400 0.55824 -0.27800
N 	N 	0.80700 0.47300 0.55824 -0.27700
N 	N 	0.33400 0.80700 0.05824 -0.29200
N 	N 	0.47300 0.66600 0.05824 -0.29500
N 	N 	0.19300 0.52700 0.05824 -0.29300
N 	N 	0.47300 0.80700 0.94176 -0.25100
N 	N 	0.19300 0.66600 0.94176 -0.25300
N 	N 	0.33400 0.52700 0.94176 -0.25300
N 	N 	0.52700 0.19300 0.44176 -0.27800
N 	N 	0.80700 0.33400 0.44176 -0.27700
N 	N 	0.66600 0.47300 0.44176 -0.28000
