data_crystal

_cell_length_a 14.53560
_cell_length_b 15.89890
_cell_length_c 17.25540
_cell_angle_alpha 112.54700
_cell_angle_beta  111.54500
_cell_angle_gamma 95.78700

_symmetry_space_group_name_	'P 1'
_symmetry_space_group_name_H-M	'P 1'

loop_
_symmetry_equiv_pos_as_xyz
  x,y,z

loop_
_atom_site_label
_atom_site_type_symbol
_atom_site_fract_x
_atom_site_fract_y
_atom_site_fract_z
_atom_site_charge
C 	C 	0.53480 0.70890 0.63870 0.28500
C 	C 	0.54680 0.85230 0.75600 0.04300
H 	H 	0.50950 0.81440 0.77030 0.03900
C 	C 	0.58360 0.94470 0.80760 0.05200
C 	C 	0.66090 0.00380 0.80810 -0.09900
H 	H 	0.68560 0.98020 0.76370 0.07600
C 	C 	0.70120 0.09780 0.87460 0.01600
H 	H 	0.75300 0.13750 0.87490 0.03700
C 	C 	0.66480 0.13260 0.94040 -0.07300
C 	C 	0.58800 0.07430 0.94030 0.02100
H 	H 	0.56300 0.09850 0.98440 0.03700
C 	C 	0.54760 0.97930 0.87430 -0.10900
H 	H 	0.49680 0.93930 0.87490 0.06800
C 	C 	0.70140 0.24040 0.00750 0.29000
C 	C 	0.38120 0.61210 0.50760 -0.05100
H 	H 	0.42230 0.57700 0.48690 0.07400
C 	C 	0.28600 0.60090 0.44880 0.15900
C 	C 	0.23260 0.66900 0.46010 -0.19800
H 	H 	0.26410 0.72820 0.51210 0.11400
C 	C 	0.13250 0.64910 0.39400 0.12700
H 	H 	0.09770 0.69550 0.40190 -0.01500
C 	C 	0.08370 0.56080 0.31650 -0.22100
C 	C 	0.13790 0.49210 0.30580 0.14700
H 	H 	0.10640 0.43240 0.25440 -0.00600
C 	C 	0.23710 0.51250 0.37080 -0.21400
H 	H 	0.27220 0.46640 0.36270 0.11500
C 	C 	0.97860 0.55280 0.26020 0.45700
C 	C 	0.62900 0.65550 0.75270 -0.04000
H 	H 	0.68740 0.68360 0.75140 0.06000
C 	C 	0.63460 0.61580 0.80330 0.13900
C 	C 	0.73960 0.62310 0.86230 -0.19300
H 	H 	0.79560 0.65470 0.86040 0.09800
C 	C 	0.75300 0.58150 0.92110 0.13600
H 	H 	0.81970 0.58700 0.96100 -0.02300
C 	C 	0.67190 0.53250 0.92270 -0.23400
C 	C 	0.57250 0.52280 0.86860 0.13200
H 	H 	0.51860 0.49130 0.87310 0.00900
C 	C 	0.55270 0.56250 0.80420 -0.17700
H 	H 	0.48530 0.55280 0.76290 0.11800
C 	C 	0.69250 0.49210 0.98620 0.44500
C 	C 	0.59190 0.70610 0.53590 0.00400
H 	H 	0.57680 0.76410 0.55050 0.05000
C 	C 	0.62420 0.66480 0.46340 0.09400
C 	C 	0.63250 0.57420 0.43820 -0.13500
H 	H 	0.61500 0.53950 0.46610 0.10500
C 	C 	0.66690 0.53420 0.37110 0.05700
H 	H 	0.67430 0.47320 0.35540 0.04000
C 	C 	0.69020 0.58410 0.32740 -0.12600
C 	C 	0.68120 0.67480 0.35400 0.07100
H 	H 	0.69830 0.70930 0.32580 -0.00200
C 	C 	0.64770 0.71690 0.42090 -0.15100
H 	H 	0.64110 0.77810 0.43710 0.08100
C 	C 	0.71730 0.54010 0.24650 0.34100
C 	C 	0.71720 0.76700 0.07470 0.00700
C 	C 	0.80340 0.82220 0.08240 -0.07200
H 	H 	0.86900 0.82310 0.11960 0.01100
C 	C 	0.79110 0.87670 0.03370 -0.04800
H 	H 	0.84860 0.91400 0.03870 0.04500
C 	C 	0.69300 0.87460 0.97830 -0.00000
H 	H 	0.68470 0.91050 0.94580 0.03600
C 	C 	0.60760 0.81960 0.97090 -0.11300
H 	H 	0.54210 0.81870 0.93320 0.08400
C 	C 	0.61810 0.76560 0.01890 0.09900
C 	C 	0.60690 0.67480 0.08580 0.09200
H 	H 	0.57690 0.63200 0.10020 0.02600
Cd	Cd	0.76231 0.42209 0.11116 1.25200
Cd	Cd	0.82943 0.66152 0.18644 1.19800
N 	N 	0.70760 0.70690 0.11600 -0.26300
N 	N 	0.55310 0.71290 0.03090 -0.11800
O 	O 	0.56660 0.81510 0.67970 -0.22200
O 	O 	0.78210 0.29180 0.01600 -0.36600
O 	O 	0.64940 0.27510 0.04700 -0.35300
O 	O 	0.42040 0.68150 0.60650 -0.17400
O 	O 	0.93000 0.46110 0.19330 -0.41100
O 	O 	0.93540 0.61000 0.26840 -0.55200
O 	O 	0.52580 0.65590 0.69510 -0.17300
O 	O 	0.62570 0.43390 0.97860 -0.38400
O 	O 	0.78030 0.51660 0.04850 -0.56300
O 	O 	0.58490 0.65170 0.58290 -0.21300
O 	O 	0.73910 0.46280 0.23140 -0.42700
O 	O 	0.70740 0.58860 0.20160 -0.47100
C 	C 	0.46520 0.29110 0.36130 0.28600
C 	C 	0.45320 0.14770 0.24400 0.04400
H 	H 	0.49050 0.18560 0.22970 0.04000
C 	C 	0.41640 0.05530 0.19240 0.05300
C 	C 	0.33910 0.99620 0.19190 -0.09800
H 	H 	0.31440 0.01980 0.23630 0.07700
C 	C 	0.29880 0.90220 0.12540 0.01600
H 	H 	0.24700 0.86250 0.12510 0.03700
C 	C 	0.33520 0.86740 0.05960 -0.07300
C 	C 	0.41200 0.92570 0.05970 0.02100
H 	H 	0.43700 0.90150 0.01560 0.03700
C 	C 	0.45240 0.02070 0.12570 -0.10900
H 	H 	0.50320 0.06070 0.12510 0.06800
C 	C 	0.29860 0.75960 0.99250 0.29000
C 	C 	0.61880 0.38790 0.49240 -0.05100
H 	H 	0.57770 0.42300 0.51310 0.07400
C 	C 	0.71400 0.39910 0.55120 0.15900
C 	C 	0.76740 0.33100 0.53990 -0.19800
H 	H 	0.73590 0.27180 0.48790 0.11400
C 	C 	0.86750 0.35090 0.60600 0.12700
H 	H 	0.90230 0.30450 0.59810 -0.01500
C 	C 	0.91630 0.43920 0.68350 -0.22100
C 	C 	0.86210 0.50790 0.69420 0.14700
H 	H 	0.89360 0.56760 0.74560 -0.00600
C 	C 	0.76290 0.48750 0.62920 -0.21400
H 	H 	0.72780 0.53360 0.63730 0.11500
C 	C 	0.02140 0.44720 0.73980 0.45700
C 	C 	0.37100 0.34450 0.24730 -0.04000
H 	H 	0.31260 0.31640 0.24860 0.06000
C 	C 	0.36540 0.38420 0.19670 0.13900
C 	C 	0.26040 0.37690 0.13770 -0.19300
H 	H 	0.20440 0.34530 0.13960 0.09800
C 	C 	0.24700 0.41850 0.07890 0.13600
H 	H 	0.18030 0.41300 0.03900 -0.02300
C 	C 	0.32810 0.46750 0.07730 -0.23400
C 	C 	0.42750 0.47720 0.13140 0.13200
H 	H 	0.48140 0.50870 0.12690 0.00900
C 	C 	0.44730 0.43750 0.19580 -0.17700
H 	H 	0.51470 0.44720 0.23710 0.11800
C 	C 	0.30750 0.50790 0.01380 0.44500
C 	C 	0.40810 0.29390 0.46410 0.00400
H 	H 	0.42320 0.23590 0.44950 0.05000
C 	C 	0.37580 0.33520 0.53660 0.09400
C 	C 	0.36750 0.42580 0.56180 -0.13500
H 	H 	0.38500 0.46050 0.53390 0.10500
C 	C 	0.33310 0.46580 0.62890 0.05700
H 	H 	0.32570 0.52680 0.64460 0.04000
C 	C 	0.30980 0.41590 0.67260 -0.12600
C 	C 	0.31880 0.32520 0.64600 0.07100
H 	H 	0.30170 0.29070 0.67420 -0.00200
C 	C 	0.35230 0.28310 0.57910 -0.15100
H 	H 	0.35890 0.22190 0.56290 0.08100
C 	C 	0.28270 0.45990 0.75350 0.34100
C 	C 	0.28280 0.23300 0.92530 0.00700
C 	C 	0.19660 0.17780 0.91760 -0.07200
H 	H 	0.13100 0.17690 0.88040 0.01100
C 	C 	0.20890 0.12330 0.96630 -0.04800
H 	H 	0.15140 0.08600 0.96130 0.04500
C 	C 	0.30700 0.12540 0.02170 -0.00000
H 	H 	0.31530 0.08950 0.05420 0.03600
C 	C 	0.39240 0.18040 0.02910 -0.11300
H 	H 	0.45790 0.18130 0.06680 0.08400
C 	C 	0.38190 0.23440 0.98110 0.09900
C 	C 	0.39310 0.32520 0.91420 0.09200
H 	H 	0.42310 0.36800 0.89980 0.02600
Cd	Cd	0.23769 0.57791 0.88884 1.25200
Cd	Cd	0.17057 0.33848 0.81356 1.19800
N 	N 	0.29240 0.29310 0.88400 -0.26300
N 	N 	0.44690 0.28710 0.96910 -0.11800
O 	O 	0.43340 0.18490 0.32030 -0.22200
O 	O 	0.21790 0.70820 0.98400 -0.36600
O 	O 	0.35060 0.72490 0.95300 -0.35300
O 	O 	0.57960 0.31850 0.39350 -0.17400
O 	O 	0.07000 0.53890 0.80670 -0.41100
O 	O 	0.06460 0.39000 0.73160 -0.55200
O 	O 	0.47420 0.34410 0.30490 -0.17300
O 	O 	0.37430 0.56610 0.02140 -0.38400
O 	O 	0.21970 0.48340 0.95150 -0.56300
O 	O 	0.41510 0.34830 0.41710 -0.21300
O 	O 	0.26090 0.53720 0.76860 -0.42700
O 	O 	0.29260 0.41140 0.79840 -0.47100
