data_crystal

_cell_length_a 9.36630
_cell_length_b 34.92760
_cell_length_c 17.18620
_cell_angle_alpha 90.00000
_cell_angle_beta  99.35600
_cell_angle_gamma 90.00000

_symmetry_space_group_name_	'P 1'
_symmetry_space_group_name_H-M	'P 1'

loop_
_symmetry_equiv_pos_as_xyz
  x,y,z

loop_
_atom_site_label
_atom_site_type_symbol
_atom_site_fract_x
_atom_site_fract_y
_atom_site_fract_z
_atom_site_charge
C 	C 	0.32940 0.01798 0.54690 -0.30600
C 	C 	0.23770 0.99475 0.49390 0.37000
C 	C 	0.12930 0.01124 0.43870 -0.30100
C 	C 	0.11320 0.05068 0.43630 0.36300
C 	C 	0.19980 0.07323 0.49120 -0.28900
C 	C 	0.30510 0.05702 0.54800 0.35900
C 	C 	0.39280 0.08270 0.61150 -0.84100
H 	H 	0.44980 0.06690 0.65050 0.27800
H 	H 	0.32770 0.09800 0.63610 0.28300
H 	H 	0.45540 0.09910 0.58740 0.26800
C 	C 	0.45320 0.00001 0.60140 0.18300
H 	H 	0.49580 0.97950 0.57480 -0.03200
H 	H 	0.52740 0.01890 0.61880 -0.03400
C 	C 	0.26090 0.95099 0.49700 -0.86800
H 	H 	0.33230 0.94460 0.54180 0.29100
H 	H 	0.29360 0.94270 0.44960 0.29400
H 	H 	0.17130 0.93850 0.50150 0.29500
C 	C 	0.02890 0.98551 0.38440 0.16600
H 	H 	0.98870 0.96570 0.41400 -0.01300
H 	H 	0.95010 0.00010 0.35480 -0.01900
C 	C 	0.99620 0.06939 0.37480 -0.86100
H 	H 	0.98210 0.09550 0.38960 0.28900
H 	H 	0.90700 0.05550 0.37240 0.28600
H 	H 	0.02640 0.06890 0.32400 0.28900
C 	C 	0.17950 0.11695 0.48870 0.14500
H 	H 	0.26520 0.13050 0.51400 -0.02200
H 	H 	0.15020 0.12650 0.43550 -0.02600
C 	C 	0.47790 0.95989 0.71560 0.34100
C 	C 	0.41290 0.94020 0.77020 -0.35400
H 	H 	0.31610 0.94460 0.77340 0.15400
C 	C 	0.49130 0.91407 0.81980 0.24200
H 	H 	0.44840 0.90200 0.85840 -0.06500
C 	C 	0.63380 0.90550 0.81300 -0.30400
C 	C 	0.69590 0.92456 0.75920 0.24600
H 	H 	0.79090 0.91880 0.75420 -0.05300
C 	C 	0.62140 0.95284 0.71020 -0.35700
H 	H 	0.66750 0.96650 0.67500 0.16300
C 	C 	0.71650 0.87644 0.86430 0.46800
C 	C 	0.05580 0.94147 0.27970 0.31800
C 	C 	0.14930 0.92258 0.23770 -0.31400
H 	H 	0.24780 0.92810 0.24710 0.13400
C 	C 	0.09520 0.89545 0.18150 0.19000
H 	H 	0.15770 0.88270 0.15350 -0.04100
C 	C 	0.94770 0.88728 0.16710 -0.25100
C 	C 	0.85720 0.90584 0.21190 0.20100
H 	H 	0.75920 0.89990 0.20420 -0.04700
C 	C 	0.91150 0.93307 0.26770 -0.33200
H 	H 	0.85000 0.94550 0.29680 0.15000
C 	C 	0.88480 0.85997 0.10280 0.46000
C 	C 	0.00860 0.15547 0.55220 0.29300
C 	C 	0.91890 0.15891 0.60790 -0.31300
H 	H 	0.90790 0.13860 0.64140 0.14500
C 	C 	0.84510 0.19295 0.61360 0.19700
H 	H 	0.78380 0.19530 0.65080 -0.03300
C 	C 	0.86160 0.22352 0.56410 -0.27000
C 	C 	0.96090 0.22080 0.51530 0.22400
H 	H 	0.97890 0.24200 0.48550 -0.07800
C 	C 	0.03610 0.18732 0.50870 -0.32600
H 	H 	0.10480 0.18610 0.47530 0.13600
C 	C 	0.77260 0.25857 0.56810 0.41200
C 	C 	0.24620 0.81499 0.97130 0.06500
H 	H 	0.24460 0.81420 0.02530 -0.04700
C 	C 	0.17440 0.81657 0.84590 0.05100
C 	C 	0.10010 0.81963 0.76730 -0.10600
H 	H 	0.99980 0.82170 0.75690 0.05800
C 	C 	0.18090 0.81952 0.70610 -0.02800
H 	H 	0.13360 0.82070 0.65420 0.03100
C 	C 	0.33690 0.81753 0.72200 -0.02700
H 	H 	0.38920 0.81770 0.68040 0.03400
C 	C 	0.40920 0.81533 0.79930 -0.09900
H 	H 	0.50950 0.81340 0.81040 0.04900
C 	C 	0.32630 0.81611 0.85950 0.05000
Cd	Cd	0.57087 0.83199 0.01467 1.19600
Cd	Cd	0.90322 0.82066 0.94028 1.22200
N 	N 	0.37030 0.81510 0.94063 -0.26700
N 	N 	0.12410 0.81605 0.91680 -0.25100
O 	O 	0.67050 0.86577 0.92475 -0.53600
O 	O 	0.83200 0.86450 0.84792 -0.46500
O 	O 	0.39270 0.98491 0.66920 -0.31000
O 	O 	0.96680 0.84961 0.05701 -0.47500
O 	O 	0.75870 0.84939 0.10320 -0.49800
O 	O 	0.12110 0.96855 0.33098 -0.29000
O 	O 	0.77560 0.28369 0.51548 -0.54900
O 	O 	0.69480 0.26233 0.61875 -0.42300
O 	O 	0.05890 0.11838 0.53646 -0.27700
C 	C 	0.17060 0.51798 0.95310 -0.30600
C 	C 	0.26230 0.49475 0.00610 0.37100
C 	C 	0.37070 0.51124 0.06130 -0.30100
C 	C 	0.38680 0.55068 0.06370 0.36500
C 	C 	0.30020 0.57323 0.00880 -0.28900
C 	C 	0.19490 0.55702 0.95200 0.36100
C 	C 	0.10720 0.58270 0.88850 -0.84200
H 	H 	0.05020 0.56690 0.84950 0.27900
H 	H 	0.17230 0.59800 0.86390 0.28400
H 	H 	0.04460 0.59910 0.91260 0.26900
C 	C 	0.04680 0.50001 0.89860 0.18600
H 	H 	0.00420 0.47950 0.92520 -0.03200
H 	H 	0.97260 0.51890 0.88120 -0.03500
C 	C 	0.23910 0.45099 0.00300 -0.86900
H 	H 	0.16770 0.44460 0.95820 0.29200
H 	H 	0.20640 0.44270 0.05040 0.29400
H 	H 	0.32870 0.43850 0.99850 0.29600
C 	C 	0.47110 0.48551 0.11560 0.16900
H 	H 	0.51130 0.46570 0.08600 -0.01400
H 	H 	0.54990 0.50010 0.14520 -0.02000
C 	C 	0.50380 0.56939 0.12520 -0.86200
H 	H 	0.51790 0.59550 0.11040 0.29000
H 	H 	0.59300 0.55550 0.12760 0.28700
H 	H 	0.47360 0.56890 0.17600 0.28900
C 	C 	0.32050 0.61695 0.01130 0.14300
H 	H 	0.23480 0.63050 0.98600 -0.02100
H 	H 	0.34980 0.62650 0.06450 -0.02500
C 	C 	0.02210 0.45989 0.78440 0.34500
C 	C 	0.08710 0.44020 0.72980 -0.35800
H 	H 	0.18390 0.44460 0.72660 0.15500
C 	C 	0.00870 0.41407 0.68020 0.24600
H 	H 	0.05160 0.40200 0.64160 -0.06700
C 	C 	0.86620 0.40550 0.68700 -0.30800
C 	C 	0.80410 0.42456 0.74080 0.24900
H 	H 	0.70910 0.41880 0.74580 -0.05400
C 	C 	0.87860 0.45284 0.78980 -0.36100
H 	H 	0.83250 0.46650 0.82500 0.16400
C 	C 	0.78350 0.37644 0.63570 0.47000
C 	C 	0.44420 0.44147 0.22030 0.32100
C 	C 	0.35070 0.42258 0.26230 -0.31600
H 	H 	0.25220 0.42810 0.25290 0.13500
C 	C 	0.40480 0.39545 0.31850 0.19400
H 	H 	0.34230 0.38270 0.34650 -0.04200
C 	C 	0.55230 0.38728 0.33290 -0.25400
C 	C 	0.64280 0.40584 0.28810 0.20400
H 	H 	0.74080 0.39990 0.29580 -0.04800
C 	C 	0.58850 0.43307 0.23230 -0.33500
H 	H 	0.65000 0.44550 0.20320 0.15100
C 	C 	0.61520 0.35997 0.39720 0.46100
C 	C 	0.49140 0.65547 0.94780 0.29200
C 	C 	0.58110 0.65891 0.89210 -0.31100
H 	H 	0.59210 0.63860 0.85860 0.14400
C 	C 	0.65490 0.69295 0.88640 0.19700
H 	H 	0.71620 0.69530 0.84920 -0.03200
C 	C 	0.63840 0.72352 0.93590 -0.27100
C 	C 	0.53910 0.72080 0.98470 0.22700
H 	H 	0.52110 0.74200 0.01450 -0.07900
C 	C 	0.46390 0.68732 0.99130 -0.32500
H 	H 	0.39520 0.68610 0.02470 0.13500
C 	C 	0.72740 0.75857 0.93190 0.41200
C 	C 	0.25380 0.31499 0.52870 0.06200
H 	H 	0.25540 0.31420 0.47470 -0.04500
C 	C 	0.32560 0.31657 0.65410 0.05100
C 	C 	0.39990 0.31963 0.73270 -0.10600
H 	H 	0.50020 0.32170 0.74310 0.05800
C 	C 	0.31910 0.31952 0.79390 -0.02700
H 	H 	0.36640 0.32070 0.84580 0.03100
C 	C 	0.16310 0.31753 0.77800 -0.02900
H 	H 	0.11080 0.31770 0.81960 0.03500
C 	C 	0.09080 0.31533 0.70070 -0.09500
H 	H 	0.99050 0.31340 0.68960 0.04700
C 	C 	0.17370 0.31611 0.64050 0.04900
Cd	Cd	0.92913 0.33199 0.48533 1.19600
Cd	Cd	0.59678 0.32066 0.55972 1.22200
N 	N 	0.12970 0.31510 0.55937 -0.26700
N 	N 	0.37590 0.31605 0.58320 -0.25100
O 	O 	0.82950 0.36577 0.57525 -0.53700
O 	O 	0.66800 0.36450 0.65208 -0.46500
O 	O 	0.10730 0.48491 0.83080 -0.31100
O 	O 	0.53320 0.34961 0.44299 -0.47500
O 	O 	0.74130 0.34939 0.39680 -0.49900
O 	O 	0.37890 0.46855 0.16902 -0.29100
O 	O 	0.72440 0.78369 0.98452 -0.54800
O 	O 	0.80520 0.76233 0.88125 -0.42300
O 	O 	0.44110 0.61838 0.96354 -0.27600
C 	C 	0.67060 0.98202 0.45310 -0.30500
C 	C 	0.76230 0.00525 0.50610 0.37100
C 	C 	0.87070 0.98876 0.56130 -0.30000
C 	C 	0.88680 0.94932 0.56370 0.36400
C 	C 	0.80020 0.92677 0.50880 -0.28800
C 	C 	0.69490 0.94298 0.45200 0.36000
C 	C 	0.60720 0.91730 0.38850 -0.84100
H 	H 	0.55020 0.93310 0.34950 0.27800
H 	H 	0.67230 0.90200 0.36390 0.28300
H 	H 	0.54460 0.90090 0.41260 0.26800
C 	C 	0.54680 0.99999 0.39860 0.18300
H 	H 	0.50420 0.02050 0.42520 -0.03200
H 	H 	0.47260 0.98110 0.38120 -0.03400
C 	C 	0.73910 0.04901 0.50300 -0.86800
H 	H 	0.66770 0.05540 0.45820 0.29100
H 	H 	0.70640 0.05730 0.55040 0.29400
H 	H 	0.82870 0.06150 0.49850 0.29500
C 	C 	0.97110 0.01449 0.61560 0.16600
H 	H 	0.01130 0.03430 0.58600 -0.01300
H 	H 	0.04990 0.99990 0.64520 -0.01900
C 	C 	0.00380 0.93061 0.62520 -0.86100
H 	H 	0.01790 0.90450 0.61040 0.28900
H 	H 	0.09300 0.94450 0.62760 0.28600
H 	H 	0.97360 0.93110 0.67600 0.28900
C 	C 	0.82050 0.88305 0.51130 0.14500
H 	H 	0.73480 0.86950 0.48600 -0.02200
H 	H 	0.84980 0.87350 0.56450 -0.02600
C 	C 	0.52210 0.04011 0.28440 0.34100
C 	C 	0.58710 0.05980 0.22980 -0.35400
H 	H 	0.68390 0.05540 0.22660 0.15400
C 	C 	0.50870 0.08593 0.18020 0.24200
H 	H 	0.55160 0.09800 0.14160 -0.06500
C 	C 	0.36620 0.09450 0.18700 -0.30400
C 	C 	0.30410 0.07544 0.24080 0.24600
H 	H 	0.20910 0.08120 0.24580 -0.05300
C 	C 	0.37860 0.04716 0.28980 -0.35700
H 	H 	0.33250 0.03350 0.32500 0.16300
C 	C 	0.28350 0.12356 0.13570 0.46800
C 	C 	0.94420 0.05853 0.72030 0.31800
C 	C 	0.85070 0.07742 0.76230 -0.31400
H 	H 	0.75220 0.07190 0.75290 0.13400
C 	C 	0.90480 0.10455 0.81850 0.19000
H 	H 	0.84230 0.11730 0.84650 -0.04100
C 	C 	0.05230 0.11272 0.83290 -0.25100
C 	C 	0.14280 0.09416 0.78810 0.20100
H 	H 	0.24080 0.10010 0.79580 -0.04700
C 	C 	0.08850 0.06693 0.73230 -0.33200
H 	H 	0.15000 0.05450 0.70320 0.15000
C 	C 	0.11520 0.14003 0.89720 0.46000
C 	C 	0.99140 0.84453 0.44780 0.29300
C 	C 	0.08110 0.84109 0.39210 -0.31300
H 	H 	0.09210 0.86140 0.35860 0.14500
C 	C 	0.15490 0.80705 0.38640 0.19700
H 	H 	0.21620 0.80470 0.34920 -0.03300
C 	C 	0.13840 0.77648 0.43590 -0.27000
C 	C 	0.03910 0.77920 0.48470 0.22400
H 	H 	0.02110 0.75800 0.51450 -0.07800
C 	C 	0.96390 0.81268 0.49130 -0.32600
H 	H 	0.89520 0.81390 0.52470 0.13600
C 	C 	0.22740 0.74143 0.43190 0.41200
C 	C 	0.75380 0.18501 0.02870 0.06500
H 	H 	0.75540 0.18580 0.97470 -0.04700
C 	C 	0.82560 0.18343 0.15410 0.05100
C 	C 	0.89990 0.18037 0.23270 -0.10600
H 	H 	0.00020 0.17830 0.24310 0.05800
C 	C 	0.81910 0.18048 0.29390 -0.02800
H 	H 	0.86640 0.17930 0.34580 0.03100
C 	C 	0.66310 0.18247 0.27800 -0.02700
H 	H 	0.61080 0.18230 0.31960 0.03400
C 	C 	0.59080 0.18467 0.20070 -0.09900
H 	H 	0.49050 0.18660 0.18960 0.04900
C 	C 	0.67370 0.18389 0.14050 0.05000
Cd	Cd	0.42913 0.16801 0.98533 1.19600
Cd	Cd	0.09678 0.17934 0.05972 1.22200
N 	N 	0.62970 0.18490 0.05937 -0.26700
N 	N 	0.87590 0.18395 0.08320 -0.25100
O 	O 	0.32950 0.13423 0.07525 -0.53600
O 	O 	0.16800 0.13550 0.15208 -0.46500
O 	O 	0.60730 0.01509 0.33080 -0.31000
O 	O 	0.03320 0.15039 0.94299 -0.47500
O 	O 	0.24130 0.15061 0.89680 -0.49800
O 	O 	0.87890 0.03145 0.66902 -0.29000
O 	O 	0.22440 0.71631 0.48452 -0.54900
O 	O 	0.30520 0.73767 0.38125 -0.42300
O 	O 	0.94110 0.88162 0.46354 -0.27700
C 	C 	0.82940 0.48202 0.04690 -0.30600
C 	C 	0.73770 0.50525 0.99390 0.37100
C 	C 	0.62930 0.48876 0.93870 -0.30100
C 	C 	0.61320 0.44932 0.93630 0.36500
C 	C 	0.69980 0.42677 0.99120 -0.28900
C 	C 	0.80510 0.44298 0.04800 0.36100
C 	C 	0.89280 0.41730 0.11150 -0.84200
H 	H 	0.94980 0.43310 0.15050 0.27900
H 	H 	0.82770 0.40200 0.13610 0.28400
H 	H 	0.95540 0.40090 0.08740 0.26900
C 	C 	0.95320 0.49999 0.10140 0.18600
H 	H 	0.99580 0.52050 0.07480 -0.03200
H 	H 	0.02740 0.48110 0.11880 -0.03500
C 	C 	0.76090 0.54901 0.99700 -0.86900
H 	H 	0.83230 0.55540 0.04180 0.29200
H 	H 	0.79360 0.55730 0.94960 0.29400
H 	H 	0.67130 0.56150 0.00150 0.29600
C 	C 	0.52890 0.51449 0.88440 0.16900
H 	H 	0.48870 0.53430 0.91400 -0.01400
H 	H 	0.45010 0.49990 0.85480 -0.02000
C 	C 	0.49620 0.43061 0.87480 -0.86200
H 	H 	0.48210 0.40450 0.88960 0.29000
H 	H 	0.40700 0.44450 0.87240 0.28700
H 	H 	0.52640 0.43110 0.82400 0.28900
C 	C 	0.67950 0.38305 0.98870 0.14300
H 	H 	0.76520 0.36950 0.01400 -0.02100
H 	H 	0.65020 0.37350 0.93550 -0.02500
C 	C 	0.97790 0.54011 0.21560 0.34500
C 	C 	0.91290 0.55980 0.27020 -0.35800
H 	H 	0.81610 0.55540 0.27340 0.15500
C 	C 	0.99130 0.58593 0.31980 0.24600
H 	H 	0.94840 0.59800 0.35840 -0.06700
C 	C 	0.13380 0.59450 0.31300 -0.30800
C 	C 	0.19590 0.57544 0.25920 0.24900
H 	H 	0.29090 0.58120 0.25420 -0.05400
C 	C 	0.12140 0.54716 0.21020 -0.36100
H 	H 	0.16750 0.53350 0.17500 0.16400
C 	C 	0.21650 0.62356 0.36430 0.47000
C 	C 	0.55580 0.55853 0.77970 0.32100
C 	C 	0.64930 0.57742 0.73770 -0.31600
H 	H 	0.74780 0.57190 0.74710 0.13500
C 	C 	0.59520 0.60455 0.68150 0.19400
H 	H 	0.65770 0.61730 0.65350 -0.04200
C 	C 	0.44770 0.61272 0.66710 -0.25400
C 	C 	0.35720 0.59416 0.71190 0.20400
H 	H 	0.25920 0.60010 0.70420 -0.04800
C 	C 	0.41150 0.56693 0.76770 -0.33500
H 	H 	0.35000 0.55450 0.79680 0.15100
C 	C 	0.38480 0.64003 0.60280 0.46100
C 	C 	0.50860 0.34453 0.05220 0.29200
C 	C 	0.41890 0.34109 0.10790 -0.31100
H 	H 	0.40790 0.36140 0.14140 0.14400
C 	C 	0.34510 0.30705 0.11360 0.19700
H 	H 	0.28380 0.30470 0.15080 -0.03200
C 	C 	0.36160 0.27648 0.06410 -0.27100
C 	C 	0.46090 0.27920 0.01530 0.22700
H 	H 	0.47890 0.25800 0.98550 -0.07900
C 	C 	0.53610 0.31268 0.00870 -0.32500
H 	H 	0.60480 0.31390 0.97530 0.13500
C 	C 	0.27260 0.24143 0.06810 0.41200
C 	C 	0.74620 0.68501 0.47130 0.06200
H 	H 	0.74460 0.68580 0.52530 -0.04500
C 	C 	0.67440 0.68343 0.34590 0.05100
C 	C 	0.60010 0.68037 0.26730 -0.10600
H 	H 	0.49980 0.67830 0.25690 0.05800
C 	C 	0.68090 0.68048 0.20610 -0.02700
H 	H 	0.63360 0.67930 0.15420 0.03100
C 	C 	0.83690 0.68247 0.22200 -0.02900
H 	H 	0.88920 0.68230 0.18040 0.03500
C 	C 	0.90920 0.68467 0.29930 -0.09500
H 	H 	0.00950 0.68660 0.31040 0.04700
C 	C 	0.82630 0.68389 0.35950 0.04900
Cd	Cd	0.07087 0.66801 0.51467 1.19600
Cd	Cd	0.40322 0.67934 0.44028 1.22200
N 	N 	0.87030 0.68490 0.44063 -0.26700
N 	N 	0.62410 0.68395 0.41680 -0.25100
O 	O 	0.17050 0.63423 0.42475 -0.53700
O 	O 	0.33200 0.63550 0.34792 -0.46500
O 	O 	0.89270 0.51509 0.16920 -0.31100
O 	O 	0.46680 0.65039 0.55701 -0.47500
O 	O 	0.25870 0.65061 0.60320 -0.49900
O 	O 	0.62110 0.53145 0.83098 -0.29100
O 	O 	0.27560 0.21631 0.01548 -0.54800
O 	O 	0.19480 0.23767 0.11875 -0.42300
O 	O 	0.55890 0.38162 0.03646 -0.27600
