data_crystal

_cell_length_a 15.59100
_cell_length_b 15.24100
_cell_length_c 12.12600
_cell_angle_alpha 90.00000
_cell_angle_beta  90.00000
_cell_angle_gamma 90.00000

_symmetry_space_group_name_	'P 1'
_symmetry_space_group_name_H-M	'P 1'

loop_
_symmetry_equiv_pos_as_xyz
  x,y,z

loop_
_atom_site_label
_atom_site_type_symbol
_atom_site_fract_x
_atom_site_fract_y
_atom_site_fract_z
_atom_site_charge
W 	W 	0.01524 0.01810 0.09842 0.26500
Cu	Cu	0.14660 0.98750 0.23700 0.82800
Cu	Cu	0.10940 0.15260 0.02520 0.82200
Cu	Cu	0.88200 0.07090 0.96700 0.81600
Cu	Cu	0.91140 0.88840 0.17200 0.83600
S 	S 	0.96980 0.15640 0.07890 -0.49800
S 	S 	0.15290 0.01120 0.04920 -0.48400
S 	S 	0.00210 0.97450 0.27370 -0.48900
S 	S 	0.93700 0.93060 0.99130 -0.46400
S 	S 	0.24390 0.41630 0.95890 -0.25900
S 	S 	0.88420 0.10370 0.77910 -0.24600
S 	S 	0.19470 0.10860 0.35140 -0.23400
S 	S 	0.40000 0.83730 0.30630 -0.19200
N 	N 	0.23480 0.90710 0.28400 -0.26700
C 	C 	0.30290 0.87800 0.29300 0.08400
N 	N 	0.17870 0.25700 0.03300 -0.27800
C 	C 	0.20850 0.32420 0.00600 0.09400
N 	N 	0.09400 0.25600 0.31900 -0.25700
C 	C 	0.13600 0.19320 0.33200 0.07900
N 	N 	0.71130 0.08800 0.72100 -0.25700
C 	C 	0.78140 0.09300 0.74900 0.09700
W 	W 	0.48476 0.98190 0.59842 0.26600
Cu	Cu	0.35340 0.01250 0.73700 0.82800
Cu	Cu	0.39060 0.84740 0.52520 0.82300
Cu	Cu	0.61800 0.92910 0.46700 0.81900
Cu	Cu	0.58860 0.11160 0.67200 0.83700
S 	S 	0.53020 0.84360 0.57890 -0.50300
S 	S 	0.34710 0.98880 0.54920 -0.48500
S 	S 	0.49790 0.02550 0.77370 -0.48800
S 	S 	0.56300 0.06940 0.49130 -0.46300
S 	S 	0.25610 0.58370 0.45890 -0.26100
S 	S 	0.61580 0.89630 0.27910 -0.24600
S 	S 	0.30530 0.89140 0.85140 -0.23200
S 	S 	0.10000 0.16270 0.80630 -0.19100
N 	N 	0.26520 0.09290 0.78400 -0.26600
C 	C 	0.19710 0.12200 0.79300 0.08500
N 	N 	0.32130 0.74300 0.53300 -0.27800
C 	C 	0.29150 0.67580 0.50600 0.09500
N 	N 	0.40600 0.74400 0.81900 -0.25600
C 	C 	0.36400 0.80680 0.83200 0.08000
N 	N 	0.78870 0.91200 0.22100 -0.25800
C 	C 	0.71860 0.90700 0.24900 0.09600
W 	W 	0.98476 0.51810 0.40158 0.26400
Cu	Cu	0.85340 0.48750 0.26300 0.82900
Cu	Cu	0.89060 0.65260 0.47480 0.82200
Cu	Cu	0.11800 0.57090 0.53300 0.81900
Cu	Cu	0.08860 0.38840 0.32800 0.83700
S 	S 	0.03020 0.65640 0.42110 -0.50300
S 	S 	0.84710 0.51120 0.45080 -0.48600
S 	S 	0.99790 0.47450 0.22630 -0.48700
S 	S 	0.06300 0.43060 0.50870 -0.46400
S 	S 	0.75610 0.91630 0.54110 -0.26100
S 	S 	0.11580 0.60370 0.72090 -0.24300
S 	S 	0.80530 0.60860 0.14860 -0.23500
S 	S 	0.60000 0.33730 0.19370 -0.19000
N 	N 	0.76520 0.40710 0.21600 -0.26600
C 	C 	0.69710 0.37800 0.20700 0.08500
N 	N 	0.82130 0.75700 0.46700 -0.27900
C 	C 	0.79150 0.82420 0.49400 0.09500
N 	N 	0.90600 0.75600 0.18100 -0.25700
C 	C 	0.86400 0.69320 0.16800 0.07900
N 	N 	0.28870 0.58800 0.77900 -0.25700
C 	C 	0.21860 0.59300 0.75100 0.09700
W 	W 	0.51524 0.48190 0.90158 0.26700
Cu	Cu	0.64660 0.51250 0.76300 0.82900
Cu	Cu	0.60940 0.34740 0.97480 0.82200
Cu	Cu	0.38200 0.42910 0.03300 0.81900
Cu	Cu	0.41140 0.61160 0.82800 0.83700
S 	S 	0.46980 0.34360 0.92110 -0.50400
S 	S 	0.65290 0.48880 0.95080 -0.48600
S 	S 	0.50210 0.52550 0.72630 -0.48700
S 	S 	0.43700 0.56940 0.00870 -0.46600
S 	S 	0.74390 0.08370 0.04110 -0.25200
S 	S 	0.38420 0.39630 0.22090 -0.24400
S 	S 	0.69470 0.39140 0.64860 -0.23500
S 	S 	0.90000 0.66270 0.69370 -0.19200
N 	N 	0.73480 0.59290 0.71600 -0.26600
C 	C 	0.80290 0.62200 0.70700 0.08500
N 	N 	0.67870 0.24300 0.96700 -0.27800
C 	C 	0.70850 0.17580 0.99400 0.09000
N 	N 	0.59400 0.24400 0.68100 -0.25600
C 	C 	0.63600 0.30680 0.66800 0.08000
N 	N 	0.21130 0.41200 0.27900 -0.25700
C 	C 	0.28140 0.40700 0.25100 0.09700
