data_crystal

_cell_length_a 13.22900
_cell_length_b 15.39600
_cell_length_c 14.80000
_cell_angle_alpha 90.00000
_cell_angle_beta  95.10000
_cell_angle_gamma 90.00000

_symmetry_space_group_name_	'P 1'
_symmetry_space_group_name_H-M	'P 1'

loop_
_symmetry_equiv_pos_as_xyz
  x,y,z

loop_
_atom_site_label
_atom_site_type_symbol
_atom_site_fract_x
_atom_site_fract_y
_atom_site_fract_z
_atom_site_charge
Ga	Ga	0.61380 0.53980 0.17910 2.01600
Ga	Ga	0.56480 0.60490 0.50090 2.08300
Ga	Ga	0.56880 0.35150 0.49660 2.08600
Ga	Ga	0.32480 0.47400 0.47200 2.08300
Ga	Ga	0.25340 0.37500 0.24790 2.07500
Ga	Ga	0.89340 0.43060 0.31250 2.03200
Ga	Ga	0.94490 0.35020 -0.00000 2.04700
Ga	Ga	0.91830 0.60740 0.00080 2.03100
Ga	Ga	0.17800 0.47720 0.02900 2.07000
Ga	Ga	0.24070 0.57970 0.25240 2.07800
P 	P 	0.67980 0.47980 0.37860 0.72800
P 	P 	0.47910 0.47580 0.63850 0.61500
P 	P 	0.36880 0.27990 0.41370 0.66000
P 	P 	0.63540 0.17080 0.58210 0.66800
P 	P 	0.38590 0.48280 0.12670 0.61900
P 	P 	0.81730 0.46570 0.11620 0.63500
P 	P 	0.02350 0.48430 0.86330 0.61700
P 	P 	0.11940 0.66960 0.08930 0.64800
P 	P 	0.14870 0.28080 0.07590 0.60300
P 	P 	0.11510 0.46830 0.37630 0.58400
O 	O 	0.60760 0.48700 0.29690 -0.67800
O 	O 	0.66360 0.55640 0.44200 -0.66200
O 	O 	0.66470 0.39390 0.42850 -0.66700
O 	O 	0.70830 0.45740 0.14110 -0.68400
O 	O 	0.52500 0.55840 0.60670 -0.61800
O 	O 	0.54370 0.39870 0.60440 -0.62500
O 	O 	0.48870 0.47650 0.73990 -0.17200
O 	O 	0.36530 0.46810 0.59770 -0.54400
O 	O 	0.65270 0.25960 0.54330 -0.58700
O 	O 	0.47980 0.65670 0.41260 -0.68300
O 	O 	0.48270 0.28730 0.41860 -0.67500
O 	O 	0.32460 0.28500 0.31570 -0.56000
O 	O 	0.13860 0.39070 0.31960 -0.63300
O 	O 	0.18900 0.28340 0.17660 -0.55900
O 	O 	0.36610 0.39990 0.17580 -0.59300
O 	O 	0.32570 0.48480 0.03270 -0.58100
O 	O 	0.49880 0.49320 0.11640 -0.65700
O 	O 	0.32580 0.60240 0.47790 -0.59800
O 	O 	0.65520 0.68770 0.54980 -0.57500
O 	O 	0.32420 0.34810 0.47060 -0.60700
O 	O 	0.89540 0.48210 0.20240 -0.72400
O 	O 	0.84080 0.38280 0.06800 -0.69300
O 	O 	0.82030 0.54060 0.05040 -0.75400
O 	O 	0.78870 0.48590 0.35970 -0.73100
O 	O 	0.96210 0.40080 0.88680 -0.52700
O 	O 	0.96680 0.56460 0.89600 -0.56000
O 	O 	0.01630 0.49090 0.76220 -0.18300
O 	O 	0.13290 0.48080 0.90000 -0.45700
O 	O 	0.17930 0.19050 0.03750 -0.66100
O 	O 	0.03040 0.28080 0.06970 -0.72200
O 	O 	0.00480 0.65670 0.09020 -0.68700
O 	O 	0.16500 0.66590 0.18700 -0.56300
O 	O 	0.35450 0.56490 0.17830 -0.62200
O 	O 	0.68310 0.16470 0.67850 -0.57700
O 	O 	0.13410 0.55390 0.32320 -0.59500
O 	O 	0.17550 0.46930 0.46970 -0.50900
O 	O 	0.00070 0.46660 0.39200 -0.59000
O 	O 	0.18740 0.35330 0.01960 -0.66900
O 	O 	0.86230 0.26000 0.94720 -0.47900
O 	O 	0.16550 0.60190 0.02740 -0.65600
O 	O 	0.18150 0.47640 0.16790 -0.84700
F 	F 	0.47360 0.47090 0.45190 -0.86500
O 	O 	0.31400 0.47630 0.32940 -0.84100
F 	F 	0.02570 0.45840 0.05150 -0.88600
Ga	Ga	0.38620 0.03980 0.82090 2.01000
Ga	Ga	0.43520 0.10490 0.49910 2.07900
Ga	Ga	0.43120 0.85150 0.50340 2.08600
Ga	Ga	0.67520 0.97400 0.52800 2.08700
Ga	Ga	0.74660 0.87500 0.75210 2.07400
Ga	Ga	0.10660 0.93060 0.68750 2.04300
Ga	Ga	0.05510 0.85020 -0.00000 2.05000
Ga	Ga	0.08170 0.10740 0.99920 2.10000
Ga	Ga	0.82200 0.97720 0.97100 2.10200
Ga	Ga	0.75930 0.07970 0.74760 2.07200
P 	P 	0.32020 0.97980 0.62140 0.76600
P 	P 	0.52090 0.97580 0.36150 0.65500
P 	P 	0.63120 0.77990 0.58630 0.65900
P 	P 	0.36460 0.67080 0.41790 0.66800
P 	P 	0.61410 0.98280 0.87330 0.65500
P 	P 	0.18270 0.96570 0.88380 0.66800
P 	P 	0.97650 0.98430 0.13670 0.56700
P 	P 	0.88060 0.16960 0.91070 0.64500
P 	P 	0.85130 0.78080 0.92410 0.59700
P 	P 	0.88490 0.96830 0.62370 0.62300
O 	O 	0.39240 0.98700 0.70310 -0.64900
O 	O 	0.33640 0.05640 0.55800 -0.70200
O 	O 	0.33530 0.89390 0.57150 -0.65500
O 	O 	0.29170 0.95740 0.85890 -0.61300
O 	O 	0.47500 0.05840 0.39330 -0.67600
O 	O 	0.45630 0.89870 0.39560 -0.63400
O 	O 	0.51130 0.97650 0.26010 -0.23100
O 	O 	0.63470 0.96810 0.40230 -0.55200
O 	O 	0.34730 0.75960 0.45670 -0.58000
O 	O 	0.52020 0.15670 0.58740 -0.68600
O 	O 	0.51730 0.78730 0.58140 -0.66300
O 	O 	0.67540 0.78500 0.68430 -0.54300
O 	O 	0.86140 0.89070 0.68040 -0.64000
O 	O 	0.81100 0.78340 0.82340 -0.54400
O 	O 	0.63390 0.89990 0.82420 -0.56900
O 	O 	0.67430 0.98480 0.96730 -0.45600
O 	O 	0.50120 0.99320 0.88360 -0.56700
O 	O 	0.67420 0.10240 0.52210 -0.63500
O 	O 	0.34480 0.18770 0.45020 -0.58000
O 	O 	0.67580 0.84810 0.52940 -0.61200
O 	O 	0.10460 0.98210 0.79760 -0.67400
O 	O 	0.15920 0.88280 0.93200 -0.54500
O 	O 	0.17970 0.04060 0.94960 -0.65900
O 	O 	0.21130 0.98590 0.64030 -0.69900
O 	O 	0.03790 0.90080 0.11320 -0.60000
O 	O 	0.03320 0.06460 0.10400 -0.68700
O 	O 	0.98370 0.99090 0.23780 -0.20400
O 	O 	0.86710 0.98080 0.10000 -0.63500
O 	O 	0.82070 0.69050 0.96250 -0.49000
O 	O 	0.96960 0.78080 0.93030 -0.63000
O 	O 	0.99520 0.15670 0.90980 -0.63900
O 	O 	0.83500 0.16590 0.81300 -0.56500
O 	O 	0.64550 0.06490 0.82170 -0.65200
O 	O 	0.31690 0.66470 0.32150 -0.57700
O 	O 	0.86590 0.05390 0.67680 -0.65500
O 	O 	0.82450 0.96930 0.53030 -0.50900
O 	O 	0.99930 0.96660 0.60800 -0.60700
O 	O 	0.81260 0.85330 0.98040 -0.54500
O 	O 	0.13770 0.76000 0.05280 -0.62100
O 	O 	0.83450 0.10190 0.97260 -0.56800
O 	O 	0.81850 0.97640 0.83210 -0.82100
F 	F 	0.52640 0.97090 0.54810 -0.84500
O 	O 	0.68600 0.97630 0.67060 -0.81400
F 	F 	0.97430 0.95840 0.94850 -0.80000
