data_crystal

_cell_length_a 7.41470
_cell_length_b 13.66140
_cell_length_c 13.66140
_cell_angle_alpha 120.00000
_cell_angle_beta  90.00000
_cell_angle_gamma 90.00000

_symmetry_space_group_name_	'P 1'
_symmetry_space_group_name_H-M	'P 1'

loop_
_symmetry_equiv_pos_as_xyz
  x,y,z

loop_
_atom_site_label
_atom_site_type_symbol
_atom_site_fract_x
_atom_site_fract_y
_atom_site_fract_z
_atom_site_charge
Pr	Pr	0.34005 0.66667 0.33334 2.08700
Pr	Pr	0.65995 0.33333 0.66666 2.09100
Cu	Cu	1.00000 1.00000 0.50000 0.96500
Cu	Cu	1.00000 0.50000 -0.00000 0.96600
Cu	Cu	-0.00000 0.50000 0.50000 0.92500
H 	H 	0.85980 0.02920 0.67480 0.14600
H 	H 	0.95240 0.85690 0.65520 0.57300
H 	H 	0.76750 0.81740 0.54770 0.04100
H 	H 	0.63930 0.93260 0.71840 0.29600
H 	H 	0.49420 0.87120 0.62330 0.26600
H 	H 	0.53960 0.99870 0.66800 0.27300
H 	H 	0.00470 0.00610 0.79310 -0.62600
H 	H 	0.20140 0.99180 0.74580 -0.67300
H 	H 	0.11430 0.89620 0.76180 -0.62300
H 	H 	0.85980 0.64560 0.97080 0.14800
H 	H 	0.95240 0.79830 0.14310 0.55400
H 	H 	0.76750 0.73030 0.18260 0.03800
H 	H 	0.63930 0.78580 0.06740 0.28800
H 	H 	0.49420 0.75210 0.12880 0.26000
H 	H 	0.53960 0.66930 0.00130 0.27200
H 	H 	0.00470 0.78700 0.99390 -0.60800
H 	H 	0.20140 0.75400 0.00820 -0.66100
H 	H 	0.11430 0.86560 0.10380 -0.62300
H 	H 	0.85980 0.32520 0.35440 0.13300
H 	H 	0.95240 0.34480 0.20170 0.48400
H 	H 	0.76750 0.45230 0.26970 0.03400
H 	H 	0.63930 0.28160 0.21420 0.29400
H 	H 	0.49420 0.37670 0.24790 0.26300
H 	H 	0.53960 0.33200 0.33070 0.27800
H 	H 	0.00470 0.20690 0.21300 -0.48400
H 	H 	0.20140 0.25420 0.24600 -0.51400
H 	H 	0.11430 0.23820 0.13440 -0.47100
H 	H 	0.14020 0.97080 0.32520 0.07500
H 	H 	0.04760 0.14310 0.34480 0.62100
H 	H 	0.23250 0.18260 0.45230 0.02400
H 	H 	0.36070 0.06740 0.28160 0.27900
H 	H 	0.50580 0.12880 0.37670 0.26600
H 	H 	0.46040 0.00130 0.33200 0.29100
H 	H 	0.99530 0.99390 0.20690 -1.05300
H 	H 	0.79860 0.00820 0.25420 -1.06300
H 	H 	0.88570 0.10380 0.23820 -1.06400
H 	H 	0.14020 0.35440 0.02920 0.07200
H 	H 	0.04760 0.20170 0.85690 0.64800
H 	H 	0.23250 0.26970 0.81740 0.02600
H 	H 	0.36070 0.21420 0.93260 0.28600
H 	H 	0.50580 0.24790 0.87120 0.27200
H 	H 	0.46040 0.33070 0.99870 0.29300
H 	H 	0.99530 0.21300 0.00610 -1.09800
H 	H 	0.79860 0.24600 0.99180 -1.10300
H 	H 	0.88570 0.13440 0.89620 -1.09400
H 	H 	0.14020 0.67480 0.64560 0.08400
H 	H 	0.04760 0.65520 0.79830 0.72700
H 	H 	0.23250 0.54770 0.73030 0.02900
H 	H 	0.36070 0.71840 0.78580 0.28200
H 	H 	0.50580 0.62330 0.75210 0.27100
H 	H 	0.46040 0.66800 0.66930 0.28800
H 	H 	0.99530 0.79310 0.78700 -1.22800
H 	H 	0.79860 0.74580 0.75400 -1.25700
H 	H 	0.88570 0.76180 0.86560 -1.25300
C 	C 	0.13740 0.82064 0.54501 0.83900
C 	C 	0.03330 0.90980 0.64825 -1.70800
C 	C 	0.73090 0.89300 0.56380 0.04700
C 	C 	0.68510 0.87791 0.44856 0.31400
C 	C 	0.58840 0.92690 0.65110 -0.68400
C 	C 	0.09120 0.95300 0.74160 2.44400
C 	C 	0.13740 0.72437 0.17936 0.82700
C 	C 	0.03330 0.73845 0.09020 -1.67000
C 	C 	0.73090 0.67080 0.10700 0.04700
C 	C 	0.68510 0.57065 0.12209 0.31400
C 	C 	0.58840 0.72420 0.07310 -0.67600
C 	C 	0.09120 0.78860 0.04700 2.39300
C 	C 	0.13740 0.45499 0.27563 0.73200
C 	C 	0.03330 0.35175 0.26155 -1.38700
C 	C 	0.73090 0.43620 0.32920 0.06500
C 	C 	0.68510 0.55144 0.42935 0.30700
C 	C 	0.58840 0.34890 0.27580 -0.69200
C 	C 	0.09120 0.25840 0.21140 1.90700
C 	C 	0.86260 0.17936 0.45499 1.07400
C 	C 	0.96670 0.09020 0.35175 -2.28800
C 	C 	0.26910 0.10700 0.43620 0.02900
C 	C 	0.31490 0.12209 0.55144 0.32100
C 	C 	0.41160 0.07310 0.34890 -0.67100
C 	C 	0.90880 0.04700 0.25840 3.85800
C 	C 	0.86260 0.27563 0.82064 1.10300
C 	C 	0.96670 0.26155 0.90980 -2.37500
C 	C 	0.26910 0.32920 0.89300 0.02900
C 	C 	0.31490 0.42935 0.87791 0.32100
C 	C 	0.41160 0.27580 0.92690 -0.67900
C 	C 	0.90880 0.21140 0.95300 4.00700
C 	C 	0.86260 0.54501 0.72437 1.20500
C 	C 	0.96670 0.64825 0.73845 -2.68000
C 	C 	0.26910 0.56380 0.67080 0.01600
C 	C 	0.31490 0.44856 0.57065 0.32500
C 	C 	0.41160 0.65110 0.72420 -0.66800
C 	C 	0.90880 0.74160 0.78860 4.51700
N 	N 	0.89380 0.96333 0.61292 -0.01400
N 	N 	0.89380 0.64959 0.03667 -0.01900
N 	N 	0.89380 0.38708 0.35041 -0.04000
N 	N 	0.10620 0.03667 0.38708 0.07000
N 	N 	0.10620 0.35041 0.96333 0.08200
N 	N 	0.10620 0.61292 0.64959 0.11900
O 	O 	0.24120 0.75571 0.55641 -0.53200
O 	O 	0.12030 0.81903 0.45307 -0.64200
O 	O 	0.78830 0.92156 0.40692 -0.33100
O 	O 	0.55080 0.81948 0.39885 -0.45800
O 	O 	0.24120 0.80070 0.24429 -0.53300
O 	O 	0.12030 0.63404 0.18097 -0.63800
O 	O 	0.78830 0.48536 0.07844 -0.32700
O 	O 	0.55080 0.57937 0.18052 -0.45800
O 	O 	0.24120 0.44359 0.19930 -0.50700
O 	O 	0.12030 0.54693 0.36596 -0.60900
O 	O 	0.78830 0.59308 0.51464 -0.30400
O 	O 	0.55080 0.60115 0.42063 -0.45300
O 	O 	0.75880 0.24429 0.44359 -0.58600
O 	O 	0.87970 0.18097 0.54693 -0.65800
O 	O 	0.21170 0.07844 0.59308 -0.36200
O 	O 	0.44920 0.18052 0.60115 -0.45800
O 	O 	0.75880 0.19930 0.75571 -0.59100
O 	O 	0.87970 0.36596 0.81903 -0.66600
O 	O 	0.21170 0.51464 0.92156 -0.36400
O 	O 	0.44920 0.42063 0.81948 -0.45800
O 	O 	0.75880 0.55641 0.80070 -0.61800
O 	O 	0.87970 0.45307 0.63404 -0.68900
O 	O 	0.21170 0.40692 0.48536 -0.37000
O 	O 	0.44920 0.39885 0.57937 -0.46200
