data_crystal

_cell_length_a 7.38170
_cell_length_b 13.63190
_cell_length_c 13.63190
_cell_angle_alpha 120.00000
_cell_angle_beta  90.00000
_cell_angle_gamma 90.00000

_symmetry_space_group_name_	'P 1'
_symmetry_space_group_name_H-M	'P 1'

loop_
_symmetry_equiv_pos_as_xyz
  x,y,z

loop_
_atom_site_label
_atom_site_type_symbol
_atom_site_fract_x
_atom_site_fract_y
_atom_site_fract_z
_atom_site_charge
Nd	Nd	0.33992 0.33333 0.66666 2.38000
Nd	Nd	0.66008 0.66667 0.33334 2.38200
Cu	Cu	-0.00000 0.50000 0.50000 0.91200
Cu	Cu	-0.00000 0.00000 0.50000 0.77800
Cu	Cu	-0.00000 0.50000 -0.00000 0.76600
H 	H 	0.86020 0.35430 0.32520 0.15100
H 	H 	0.95210 0.20440 0.34920 0.32500
H 	H 	0.76660 0.26950 0.45170 0.02700
H 	H 	0.64240 0.21440 0.28050 0.10300
H 	H 	0.53970 0.33030 0.33090 0.17500
H 	H 	0.49510 0.24620 0.37450 0.11200
H 	H 	0.99740 0.20970 0.20820 -0.25500
H 	H 	0.09460 0.12830 0.24150 -0.60500
H 	H 	0.19950 0.23180 0.24900 -0.43500
H 	H 	0.86020 0.97090 0.64570 0.31900
H 	H 	0.95210 0.14480 0.79560 1.53300
H 	H 	0.76660 0.18220 0.73050 0.11300
H 	H 	0.64240 0.06610 0.78560 0.23100
H 	H 	0.53970 0.00060 0.66970 0.13000
H 	H 	0.49510 0.12830 0.75380 0.25500
H 	H 	0.99740 0.99850 0.79030 -2.16000
H 	H 	0.09460 0.11320 0.87170 -2.39800
H 	H 	0.19950 0.01720 0.76820 -2.49900
H 	H 	0.86020 0.67480 0.02910 -0.13500
H 	H 	0.95210 0.65080 0.85520 -0.36200
H 	H 	0.76660 0.54830 0.81780 -0.02500
H 	H 	0.64240 0.71950 0.93390 0.36300
H 	H 	0.53970 0.66910 0.99940 0.38900
H 	H 	0.49510 0.62550 0.87170 0.29400
H 	H 	0.99740 0.79180 0.00150 0.82400
H 	H 	0.09460 0.75850 0.88680 1.19500
H 	H 	0.19950 0.75100 0.98280 1.15100
H 	H 	0.13980 0.64570 0.67480 0.07200
H 	H 	0.04790 0.79560 0.65080 0.48500
H 	H 	0.23340 0.73050 0.54830 0.03700
H 	H 	0.35760 0.78560 0.71950 0.35200
H 	H 	0.46030 0.66970 0.66910 0.27500
H 	H 	0.50490 0.75380 0.62550 0.31600
H 	H 	0.00260 0.79030 0.79180 -0.80400
H 	H 	0.90540 0.87170 0.75850 -0.49000
H 	H 	0.80050 0.76820 0.75100 -0.68200
H 	H 	0.13980 0.02910 0.35430 -0.08900
H 	H 	0.04790 0.85520 0.20440 -0.73200
H 	H 	0.23340 0.81780 0.26950 -0.05400
H 	H 	0.35760 0.93390 0.21440 0.22800
H 	H 	0.46030 0.99940 0.33030 0.32800
H 	H 	0.50490 0.87170 0.24620 0.18100
H 	H 	0.00260 0.00150 0.20970 1.05700
H 	H 	0.90540 0.88680 0.12830 1.28000
H 	H 	0.80050 0.98280 0.23180 1.35500
H 	H 	0.13980 0.32520 0.97090 0.37000
H 	H 	0.04790 0.34920 0.14480 1.19800
H 	H 	0.23340 0.45170 0.18220 0.08300
H 	H 	0.35760 0.28050 0.06610 0.09700
H 	H 	0.46030 0.33090 0.00060 0.07200
H 	H 	0.50490 0.37450 0.12830 0.14400
H 	H 	0.00260 0.20820 0.99850 -1.97300
H 	H 	0.90540 0.24150 0.11320 -2.38700
H 	H 	0.80050 0.24900 0.01720 -2.35500
C 	C 	0.13830 0.27570 0.45520 0.67400
C 	C 	0.03530 0.26170 0.35190 -1.15000
C 	C 	0.73000 0.32940 0.43600 -0.04900
C 	C 	0.68430 0.42850 0.55150 0.39500
C 	C 	0.58950 0.27530 0.34770 -0.38400
C 	C 	0.08400 0.20540 0.25850 1.47500
C 	C 	0.13830 0.17950 0.72430 2.13400
C 	C 	0.03530 0.09020 0.73830 -5.50800
C 	C 	0.73000 0.10660 0.67060 -0.20800
C 	C 	0.68430 0.12300 0.57150 0.44900
C 	C 	0.58950 0.07240 0.72470 -0.43900
C 	C 	0.08400 0.05310 0.79460 8.60600
C 	C 	0.13830 0.54480 0.82050 -0.34600
C 	C 	0.03530 0.64810 0.90980 1.89500
C 	C 	0.73000 0.56400 0.89340 0.25800
C 	C 	0.68430 0.44850 0.87700 0.29000
C 	C 	0.58950 0.65230 0.92760 -0.86500
C 	C 	0.08400 0.74150 0.94690 -3.48000
C 	C 	0.86170 0.72430 0.54480 0.87000
C 	C 	0.96470 0.73830 0.64810 -1.62400
C 	C 	0.27000 0.67060 0.56400 0.04700
C 	C 	0.31570 0.57150 0.44850 0.35500
C 	C 	0.41050 0.72470 0.65230 -0.72000
C 	C 	0.91600 0.79460 0.74150 2.66800
C 	C 	0.86170 0.82050 0.27570 -0.57600
C 	C 	0.96470 0.90980 0.26170 2.71800
C 	C 	0.27000 0.89340 0.32940 0.22600
C 	C 	0.31570 0.87700 0.42850 0.29300
C 	C 	0.41050 0.92760 0.27530 -0.68700
C 	C 	0.91600 0.94690 0.20540 -4.35600
C 	C 	0.86170 0.45520 0.17950 1.94700
C 	C 	0.96470 0.35190 0.09020 -4.81500
C 	C 	0.27000 0.43600 0.10660 -0.24100
C 	C 	0.31570 0.55150 0.12300 0.45200
C 	C 	0.41050 0.34770 0.07240 -0.26500
C 	C 	0.91600 0.25850 0.05310 7.93700
N 	N 	0.89400 0.35026 0.38732 -0.06800
N 	N 	0.89400 0.03706 0.64974 0.35100
N 	N 	0.89400 0.61268 0.96294 -0.26100
N 	N 	0.10600 0.64974 0.61268 -0.03900
N 	N 	0.10600 0.96294 0.35026 -0.43500
N 	N 	0.10600 0.38732 0.03706 0.19400
O 	O 	0.24280 0.19966 0.44439 -0.55200
O 	O 	0.12110 0.36586 0.54767 -0.61800
O 	O 	0.78730 0.51428 0.59293 -0.34400
O 	O 	0.54960 0.41960 0.60070 -0.52800
O 	O 	0.24280 0.24473 0.80034 -0.83700
O 	O 	0.12110 0.18181 0.63414 -1.01400
O 	O 	0.78730 0.07865 0.48572 -0.57200
O 	O 	0.54960 0.18110 0.58040 -0.58100
O 	O 	0.24280 0.55561 0.75527 -0.22600
O 	O 	0.12110 0.45233 0.81819 -0.31700
O 	O 	0.78730 0.40707 0.92135 -0.11900
O 	O 	0.54960 0.39930 0.81890 -0.43400
O 	O 	0.75720 0.80034 0.55561 -0.48700
O 	O 	0.87890 0.63414 0.45233 -0.63800
O 	O 	0.21270 0.48572 0.40707 -0.40900
O 	O 	0.45040 0.58040 0.39930 -0.50800
O 	O 	0.75720 0.75527 0.19966 -0.20300
O 	O 	0.87890 0.81819 0.36586 -0.21500
O 	O 	0.21270 0.92135 0.51428 -0.13300
O 	O 	0.45040 0.81890 0.41960 -0.45100
O 	O 	0.75720 0.44439 0.24473 -0.83300
O 	O 	0.87890 0.54767 0.18181 -0.91900
O 	O 	0.21270 0.59293 0.07865 -0.58100
O 	O 	0.45040 0.60070 0.18110 -0.59700
