data_crystal

_cell_length_a 7.49350
_cell_length_b 13.62240
_cell_length_c 13.62240
_cell_angle_alpha 120.00000
_cell_angle_beta  90.00000
_cell_angle_gamma 90.00000

_symmetry_space_group_name_	'P 1'
_symmetry_space_group_name_H-M	'P 1'

loop_
_symmetry_equiv_pos_as_xyz
  x,y,z

loop_
_atom_site_label
_atom_site_type_symbol
_atom_site_fract_x
_atom_site_fract_y
_atom_site_fract_z
_atom_site_charge
La	La	0.34102 0.33333 0.66666 1.70700
La	La	0.65898 0.66667 0.33334 1.70600
Cu	Cu	-0.00000 -0.00000 0.50000 0.89300
Cu	Cu	-0.00000 0.50000 -0.00000 0.90000
Cu	Cu	1.00000 0.50000 0.50000 0.91700
H 	H 	0.86010 0.96810 0.64500 0.13400
H 	H 	0.95310 0.14230 0.80290 -0.18800
H 	H 	0.76840 0.18310 0.73120 0.03300
H 	H 	0.64140 0.06550 0.78740 0.11600
H 	H 	0.54110 0.99750 0.66800 0.16800
H 	H 	0.49470 0.12800 0.75260 0.14300
H 	H 	0.01900 0.98990 0.78790 0.48900
H 	H 	0.13760 0.10060 0.86180 0.46200
H 	H 	0.20890 0.00280 0.74170 0.48500
H 	H 	0.86010 0.67690 0.03190 0.09700
H 	H 	0.95310 0.66060 0.85770 -0.06700
H 	H 	0.76840 0.54810 0.81690 0.04900
H 	H 	0.64140 0.72190 0.93450 0.08800
H 	H 	0.54110 0.67050 0.00250 0.09900
H 	H 	0.49470 0.62460 0.87200 0.10500
H 	H 	0.01900 0.79800 0.01010 0.22900
H 	H 	0.13760 0.76120 0.89940 0.23600
H 	H 	0.20890 0.73890 0.99720 0.27600
H 	H 	0.86010 0.35500 0.32310 0.10600
H 	H 	0.95310 0.19710 0.33940 -0.08100
H 	H 	0.76840 0.26880 0.45190 0.04700
H 	H 	0.64140 0.21260 0.27810 0.09000
H 	H 	0.54110 0.33200 0.32950 0.11900
H 	H 	0.49470 0.24740 0.37540 0.11600
H 	H 	0.01900 0.21210 0.20200 0.26800
H 	H 	0.13760 0.13820 0.23880 0.27500
H 	H 	0.20890 0.25830 0.26110 0.30600
H 	H 	0.13990 0.03190 0.35500 0.08600
H 	H 	0.04690 0.85770 0.19710 -0.11600
H 	H 	0.23160 0.81690 0.26880 0.05100
H 	H 	0.35860 0.93450 0.21260 0.07700
H 	H 	0.45890 0.00250 0.33200 0.07500
H 	H 	0.50530 0.87200 0.24740 0.09100
H 	H 	0.98100 0.01010 0.21210 0.30400
H 	H 	0.86240 0.89940 0.13820 0.32400
H 	H 	0.79110 0.99720 0.25830 0.34800
H 	H 	0.13990 0.32310 0.96810 0.12700
H 	H 	0.04690 0.33940 0.14230 -0.23700
H 	H 	0.23160 0.45190 0.18310 0.03500
H 	H 	0.35860 0.27810 0.06550 0.10500
H 	H 	0.45890 0.32950 0.99750 0.14300
H 	H 	0.50530 0.37540 0.12800 0.13000
H 	H 	0.98100 0.20200 0.98990 0.54300
H 	H 	0.86240 0.23880 0.10060 0.54100
H 	H 	0.79110 0.26110 0.00280 0.54600
H 	H 	0.13990 0.64500 0.67690 0.11600
H 	H 	0.04690 0.80290 0.66060 -0.19300
H 	H 	0.23160 0.73120 0.54810 0.03800
H 	H 	0.35860 0.78740 0.72190 0.10400
H 	H 	0.45890 0.66800 0.67050 0.12500
H 	H 	0.50530 0.75260 0.62460 0.11900
H 	H 	0.98100 0.78790 0.79800 0.46100
H 	H 	0.86240 0.86180 0.76120 0.45300
H 	H 	0.79110 0.74170 0.73890 0.47300
C 	C 	0.13650 0.17742 0.72401 0.00500
C 	C 	0.03210 0.08930 0.73910 0.80000
C 	C 	0.73220 0.10560 0.67040 0.00900
C 	C 	0.68710 0.12036 0.57016 0.31900
C 	C 	0.59010 0.07120 0.72420 -0.44800
C 	C 	0.10260 0.04350 0.78470 -1.69200
C 	C 	0.13650 0.54659 0.82258 0.15900
C 	C 	0.03210 0.64980 0.91070 0.34500
C 	C 	0.73220 0.56480 0.89440 -0.05100
C 	C 	0.68710 0.44980 0.87964 0.34700
C 	C 	0.59010 0.65300 0.92880 -0.28200
C 	C 	0.10260 0.74120 0.95650 -0.86400
C 	C 	0.13650 0.27599 0.45341 0.13400
C 	C 	0.03210 0.26090 0.35020 0.41500
C 	C 	0.73220 0.32960 0.43520 -0.03800
C 	C 	0.68710 0.42984 0.55020 0.34000
C 	C 	0.59010 0.27580 0.34700 -0.32900
C 	C 	0.10260 0.21530 0.25880 -1.00800
C 	C 	0.86350 0.82258 0.27599 0.10700
C 	C 	0.96790 0.91070 0.26090 0.52200
C 	C 	0.26780 0.89440 0.32960 -0.06000
C 	C 	0.31290 0.87964 0.42984 0.35000
C 	C 	0.40990 0.92880 0.27580 -0.23300
C 	C 	0.89740 0.95650 0.21530 -1.11900
C 	C 	0.86350 0.45341 0.17742 -0.04100
C 	C 	0.96790 0.35020 0.08930 0.96500
C 	C 	0.26780 0.43520 0.10560 -0.00000
C 	C 	0.31290 0.55020 0.12036 0.32100
C 	C 	0.40990 0.34700 0.07120 -0.40100
C 	C 	0.89740 0.25880 0.04350 -1.90000
C 	C 	0.86350 0.72401 0.54659 0.01400
C 	C 	0.96790 0.73910 0.64980 0.79400
C 	C 	0.26780 0.67040 0.56480 -0.01700
C 	C 	0.31290 0.57016 0.44980 0.33000
C 	C 	0.40990 0.72420 0.65300 -0.35100
C 	C 	0.89740 0.78470 0.74120 -1.60700
N 	N 	0.89410 0.03594 0.64963 -0.37600
N 	N 	0.89410 0.61369 0.96406 -0.27300
N 	N 	0.89410 0.35037 0.38631 -0.29600
N 	N 	0.10590 0.96406 0.35037 -0.29100
N 	N 	0.10590 0.38631 0.03594 -0.40000
N 	N 	0.10590 0.64963 0.61369 -0.36200
O 	O 	0.24190 0.24152 0.79935 -0.29500
O 	O 	0.11730 0.17965 0.63333 -0.36800
O 	O 	0.78860 0.07682 0.48477 -0.40600
O 	O 	0.55190 0.17767 0.57822 -0.41300
O 	O 	0.24190 0.55783 0.75848 -0.33200
O 	O 	0.11730 0.45368 0.82035 -0.40000
O 	O 	0.78860 0.40795 0.92318 -0.40800
O 	O 	0.55190 0.40055 0.82233 -0.41800
O 	O 	0.24190 0.20065 0.44217 -0.32800
O 	O 	0.11730 0.36667 0.54632 -0.39900
O 	O 	0.78860 0.51523 0.59205 -0.41200
O 	O 	0.55190 0.42178 0.59945 -0.41600
O 	O 	0.75810 0.75848 0.20065 -0.31500
O 	O 	0.88270 0.82035 0.36667 -0.38000
O 	O 	0.21140 0.92318 0.51523 -0.40300
O 	O 	0.44810 0.82233 0.42178 -0.41800
O 	O 	0.75810 0.44217 0.24152 -0.27800
O 	O 	0.88270 0.54632 0.17965 -0.34900
O 	O 	0.21140 0.59205 0.07682 -0.40500
O 	O 	0.44810 0.59945 0.17767 -0.41300
O 	O 	0.75810 0.79935 0.55783 -0.29200
O 	O 	0.88270 0.63333 0.45368 -0.36200
O 	O 	0.21140 0.48477 0.40795 -0.40400
O 	O 	0.44810 0.57822 0.40055 -0.41500
