data_crystal

_cell_length_a 18.54620
_cell_length_b 20.08240
_cell_length_c 8.77590
_cell_angle_alpha 90.00000
_cell_angle_beta  101.24400
_cell_angle_gamma 90.00000

_symmetry_space_group_name_	'P 1'
_symmetry_space_group_name_H-M	'P 1'

loop_
_symmetry_equiv_pos_as_xyz
  x,y,z

loop_
_atom_site_label
_atom_site_type_symbol
_atom_site_fract_x
_atom_site_fract_y
_atom_site_fract_z
_atom_site_charge
C 	C 	0.63070 0.23490 0.40360 0.12100
H 	H 	0.63050 0.26200 0.48930 -0.03300
C 	C 	0.58140 0.20610 0.15460 0.11800
H 	H 	0.54600 0.21220 0.06490 -0.03300
C 	C 	0.63160 0.15530 0.15750 -0.20800
H 	H 	0.63060 0.12900 0.07000 0.09600
C 	C 	0.68140 0.18480 0.41570 -0.21800
H 	H 	0.71450 0.17860 0.50880 0.10000
C 	C 	0.68390 0.14350 0.29220 0.15300
C 	C 	0.74070 0.08910 0.30320 -0.17600
H 	H 	0.78890 0.10940 0.33290 0.07900
H 	H 	0.73440 0.05940 0.38690 0.07900
C 	C 	0.74060 0.04890 0.16560 -0.16500
H 	H 	0.74650 0.07810 0.08070 0.07100
H 	H 	0.69320 0.02720 0.13670 0.07000
C 	C 	0.91680 0.95840 0.14780 0.12300
H 	H 	0.95910 0.96650 0.10880 -0.01300
C 	C 	0.84960 0.89080 0.26960 0.11400
H 	H 	0.84440 0.85110 0.32100 -0.02800
C 	C 	0.86390 0.00730 0.13050 -0.20800
H 	H 	0.87120 0.04730 0.08220 0.10400
C 	C 	0.79330 0.93650 0.25250 -0.21500
H 	H 	0.75040 0.92610 0.28730 0.09500
C 	C 	0.79990 0.99670 0.18520 0.15100
C 	C 	0.99730 0.84760 0.88200 0.24000
N 	N 	0.91120 0.90070 0.21620 -0.25400
N 	N 	0.58140 0.24640 0.27310 -0.27000
N 	N 	0.99740 0.83340 0.00380 -0.29000
N 	N 	0.98570 0.87600 0.73700 0.16600
C 	C 	0.13070 0.73490 0.40360 0.11600
H 	H 	0.13050 0.76200 0.48930 -0.03300
C 	C 	0.08140 0.70610 0.15460 0.11600
H 	H 	0.04600 0.71220 0.06490 -0.04700
C 	C 	0.13160 0.65530 0.15750 -0.21200
H 	H 	0.13060 0.62900 0.07000 0.09200
C 	C 	0.18140 0.68480 0.41570 -0.22000
H 	H 	0.21450 0.67860 0.50880 0.10000
C 	C 	0.18390 0.64350 0.29220 0.15200
C 	C 	0.24070 0.58910 0.30320 -0.17900
H 	H 	0.28890 0.60940 0.33290 0.08100
H 	H 	0.23440 0.55940 0.38690 0.07800
C 	C 	0.24060 0.54890 0.16560 -0.16300
H 	H 	0.24650 0.57810 0.08070 0.06900
H 	H 	0.19320 0.52720 0.13670 0.06500
C 	C 	0.41680 0.45840 0.14780 0.12600
H 	H 	0.45910 0.46650 0.10880 -0.02700
C 	C 	0.34960 0.39080 0.26960 0.11400
H 	H 	0.34440 0.35110 0.32100 -0.03100
C 	C 	0.36390 0.50730 0.13050 -0.21300
H 	H 	0.37120 0.54730 0.08220 0.10600
C 	C 	0.29330 0.43650 0.25250 -0.21700
H 	H 	0.25040 0.42610 0.28730 0.09300
C 	C 	0.29990 0.49670 0.18520 0.15300
C 	C 	0.49730 0.34760 0.88200 0.18100
N 	N 	0.41120 0.40070 0.21620 -0.26400
N 	N 	0.08140 0.74640 0.27310 -0.27700
N 	N 	0.49740 0.33340 0.00380 -0.29300
N 	N 	0.48570 0.37600 0.73700 -0.10200
C 	C 	0.36930 0.23490 0.09640 0.11700
H 	H 	0.36950 0.26200 0.01070 -0.03100
C 	C 	0.41860 0.20610 0.34540 0.11700
H 	H 	0.45400 0.21220 0.43510 -0.03400
C 	C 	0.36840 0.15530 0.34250 -0.20600
H 	H 	0.36940 0.12900 0.43000 0.09500
C 	C 	0.31860 0.18480 0.08430 -0.21300
H 	H 	0.28550 0.17860 0.99120 0.09800
C 	C 	0.31610 0.14350 0.20780 0.15100
C 	C 	0.25930 0.08910 0.19680 -0.17500
H 	H 	0.21110 0.10940 0.16710 0.08200
H 	H 	0.26560 0.05940 0.11310 0.07900
C 	C 	0.25940 0.04890 0.33440 -0.16700
H 	H 	0.25350 0.07810 0.41930 0.07100
H 	H 	0.30680 0.02720 0.36330 0.07000
C 	C 	0.08320 0.95840 0.35220 0.12900
H 	H 	0.04090 0.96650 0.39120 -0.04100
C 	C 	0.15040 0.89080 0.23040 0.11500
H 	H 	0.15560 0.85110 0.17900 -0.03300
C 	C 	0.13610 0.00730 0.36950 -0.21800
H 	H 	0.12880 0.04730 0.41780 0.10800
C 	C 	0.20670 0.93650 0.24750 -0.22100
H 	H 	0.24960 0.92610 0.21270 0.09700
C 	C 	0.20010 0.99670 0.31480 0.15800
C 	C 	0.00270 0.84760 0.61800 0.12300
N 	N 	0.08880 0.90070 0.28380 -0.27100
N 	N 	0.41860 0.24640 0.22690 -0.27000
N 	N 	0.00260 0.83340 0.49620 -0.29300
N 	N 	0.01430 0.87600 0.76300 -0.36800
C 	C 	0.86930 0.73490 0.09640 0.11900
H 	H 	0.86950 0.76200 0.01070 -0.02900
C 	C 	0.91860 0.70610 0.34540 0.11800
H 	H 	0.95400 0.71220 0.43510 -0.01900
C 	C 	0.86840 0.65530 0.34250 -0.20000
H 	H 	0.86940 0.62900 0.43000 0.09800
C 	C 	0.81860 0.68480 0.08430 -0.20700
H 	H 	0.78550 0.67860 0.99120 0.09600
C 	C 	0.81610 0.64350 0.20780 0.14800
C 	C 	0.75930 0.58910 0.19680 -0.16800
H 	H 	0.71110 0.60940 0.16710 0.07800
H 	H 	0.76560 0.55940 0.11310 0.07900
C 	C 	0.75940 0.54890 0.33440 -0.17600
H 	H 	0.75350 0.57810 0.41930 0.07400
H 	H 	0.80680 0.52720 0.36330 0.07600
C 	C 	0.58320 0.45840 0.35220 0.12900
H 	H 	0.54090 0.46650 0.39120 -0.02900
C 	C 	0.65040 0.39080 0.23040 0.11800
H 	H 	0.65560 0.35110 0.17900 -0.03100
C 	C 	0.63610 0.50730 0.36950 -0.21900
H 	H 	0.62880 0.54730 0.41780 0.10700
C 	C 	0.70670 0.43650 0.24750 -0.22300
H 	H 	0.74960 0.42610 0.21270 0.10000
C 	C 	0.70010 0.49670 0.31480 0.16200
C 	C 	0.50270 0.34760 0.61800 0.18400
N 	N 	0.58880 0.40070 0.28380 -0.26600
N 	N 	0.91860 0.74640 0.22690 -0.25900
N 	N 	0.50260 0.33340 0.49620 -0.29500
N 	N 	0.51430 0.37600 0.76300 -0.10100
Zn	Zn	0.00000 0.82512 0.25000 1.16700
Zn	Zn	0.50000 0.32512 0.25000 1.18100
C 	C 	0.36930 0.76510 0.59640 0.12000
H 	H 	0.36950 0.73800 0.51070 -0.03300
C 	C 	0.41860 0.79390 0.84540 0.11800
H 	H 	0.45400 0.78780 0.93510 -0.03400
C 	C 	0.36840 0.84470 0.84250 -0.20900
H 	H 	0.36940 0.87100 0.93000 0.09500
C 	C 	0.31860 0.81520 0.58430 -0.21900
H 	H 	0.28550 0.82140 0.49120 0.10100
C 	C 	0.31610 0.85650 0.70780 0.15400
C 	C 	0.25930 0.91090 0.69680 -0.17800
H 	H 	0.21110 0.89060 0.66710 0.08200
H 	H 	0.26560 0.94060 0.61310 0.07900
C 	C 	0.25940 0.95110 0.83440 -0.16500
H 	H 	0.25350 0.92190 0.91930 0.07000
H 	H 	0.30680 0.97280 0.86330 0.06900
C 	C 	0.08320 0.04160 0.85220 0.12700
H 	H 	0.04090 0.03350 0.89120 -0.04100
C 	C 	0.15040 0.10920 0.73040 0.11400
H 	H 	0.15560 0.14890 0.67900 -0.03300
C 	C 	0.13610 0.99270 0.86950 -0.21700
H 	H 	0.12880 0.95270 0.91780 0.10700
C 	C 	0.20670 0.06350 0.74750 -0.22000
H 	H 	0.24960 0.07390 0.71270 0.09600
C 	C 	0.20010 0.00330 0.81480 0.15600
C 	C 	0.00270 0.15240 0.11800 0.12400
N 	N 	0.08880 0.09930 0.78380 -0.27100
N 	N 	0.41860 0.75360 0.72690 -0.27000
N 	N 	0.00260 0.16660 0.99620 -0.29300
N 	N 	0.01430 0.12400 0.26300 -0.37800
C 	C 	0.86930 0.26510 0.59640 0.12300
H 	H 	0.86950 0.23800 0.51070 -0.03100
C 	C 	0.91860 0.29390 0.84540 0.12000
H 	H 	0.95400 0.28780 0.93510 -0.02000
C 	C 	0.86840 0.34470 0.84250 -0.20300
H 	H 	0.86940 0.37100 0.93000 0.09800
C 	C 	0.81860 0.31520 0.58430 -0.21600
H 	H 	0.78550 0.32140 0.49120 0.10100
C 	C 	0.81610 0.35650 0.70780 0.15300
C 	C 	0.75930 0.41090 0.69680 -0.17200
H 	H 	0.71110 0.39060 0.66710 0.07900
H 	H 	0.76560 0.44060 0.61310 0.07900
C 	C 	0.75940 0.45110 0.83440 -0.17200
H 	H 	0.75350 0.42190 0.91930 0.07200
H 	H 	0.80680 0.47280 0.86330 0.07400
C 	C 	0.58320 0.54160 0.85220 0.12800
H 	H 	0.54090 0.53350 0.89120 -0.02900
C 	C 	0.65040 0.60920 0.73040 0.11600
H 	H 	0.65560 0.64890 0.67900 -0.03100
C 	C 	0.63610 0.49270 0.86950 -0.21800
H 	H 	0.62880 0.45270 0.91780 0.10600
C 	C 	0.70670 0.56350 0.74750 -0.22200
H 	H 	0.74960 0.57390 0.71270 0.09800
C 	C 	0.70010 0.50330 0.81480 0.15900
C 	C 	0.50270 0.65240 0.11800 0.18700
N 	N 	0.58880 0.59930 0.78380 -0.26500
N 	N 	0.91860 0.25360 0.72690 -0.26000
N 	N 	0.50260 0.66660 0.99620 -0.29600
N 	N 	0.51430 0.62400 0.26300 -0.10100
C 	C 	0.63070 0.76510 0.90360 0.12300
H 	H 	0.63050 0.73800 0.98930 -0.03400
C 	C 	0.58140 0.79390 0.65460 0.11900
H 	H 	0.54600 0.78780 0.56490 -0.03400
C 	C 	0.63160 0.84470 0.65750 -0.20900
H 	H 	0.63060 0.87100 0.57000 0.09600
C 	C 	0.68140 0.81520 0.91570 -0.22500
H 	H 	0.71450 0.82140 0.00880 0.10400
C 	C 	0.68390 0.85650 0.79220 0.15500
C 	C 	0.74070 0.91090 0.80320 -0.17700
H 	H 	0.78890 0.89060 0.83290 0.07900
H 	H 	0.73440 0.94060 0.88690 0.07800
C 	C 	0.74060 0.95110 0.66560 -0.16500
H 	H 	0.74650 0.92190 0.58070 0.07000
H 	H 	0.69320 0.97280 0.63670 0.06900
C 	C 	0.91680 0.04160 0.64780 0.12300
H 	H 	0.95910 0.03350 0.60880 -0.01400
C 	C 	0.84960 0.10920 0.76960 0.11400
H 	H 	0.84440 0.14890 0.82100 -0.02800
C 	C 	0.86390 0.99270 0.63050 -0.21000
H 	H 	0.87120 0.95270 0.58220 0.10400
C 	C 	0.79330 0.06350 0.75250 -0.21600
H 	H 	0.75040 0.07390 0.78730 0.09400
C 	C 	0.79990 0.00330 0.68520 0.15200
C 	C 	0.99730 0.15240 0.38200 0.24700
N 	N 	0.91120 0.09930 0.71620 -0.25500
N 	N 	0.58140 0.75360 0.77310 -0.27100
N 	N 	0.99740 0.16660 0.50380 -0.29300
N 	N 	0.98570 0.12400 0.23700 0.17500
C 	C 	0.13070 0.26510 0.90360 0.11900
H 	H 	0.13050 0.23800 0.98930 -0.03500
C 	C 	0.08140 0.29390 0.65460 0.11700
H 	H 	0.04600 0.28780 0.56490 -0.04700
C 	C 	0.13160 0.34470 0.65750 -0.21400
H 	H 	0.13060 0.37100 0.57000 0.09200
C 	C 	0.18140 0.31520 0.91570 -0.22500
H 	H 	0.21450 0.32140 0.00880 0.10300
C 	C 	0.18390 0.35650 0.79220 0.15400
C 	C 	0.24070 0.41090 0.80320 -0.18100
H 	H 	0.28890 0.39060 0.83290 0.08100
H 	H 	0.23440 0.44060 0.88690 0.07800
C 	C 	0.24060 0.45110 0.66560 -0.16100
H 	H 	0.24650 0.42190 0.58070 0.06800
H 	H 	0.19320 0.47280 0.63670 0.06400
C 	C 	0.41680 0.54160 0.64780 0.12500
H 	H 	0.45910 0.53350 0.60880 -0.02800
C 	C 	0.34960 0.60920 0.76960 0.11300
H 	H 	0.34440 0.64890 0.82100 -0.03100
C 	C 	0.36390 0.49270 0.63050 -0.21300
H 	H 	0.37120 0.45270 0.58220 0.10500
C 	C 	0.29330 0.56350 0.75250 -0.21600
H 	H 	0.25040 0.57390 0.78730 0.09300
C 	C 	0.29990 0.50330 0.68520 0.15200
C 	C 	0.49730 0.65240 0.38200 0.18400
N 	N 	0.41120 0.59930 0.71620 -0.26400
N 	N 	0.08140 0.25360 0.77310 -0.27700
N 	N 	0.49740 0.66660 0.50380 -0.29500
N 	N 	0.48570 0.62400 0.23700 -0.10200
Zn	Zn	0.00000 0.17488 0.75000 1.16700
Zn	Zn	0.50000 0.67488 0.75000 1.18100
