data_crystal

_cell_length_a 18.78060
_cell_length_b 19.90450
_cell_length_c 8.78710
_cell_angle_alpha 90.00000
_cell_angle_beta  100.98100
_cell_angle_gamma 90.00000

_symmetry_space_group_name_	'P 1'
_symmetry_space_group_name_H-M	'P 1'

loop_
_symmetry_equiv_pos_as_xyz
  x,y,z

loop_
_atom_site_label
_atom_site_type_symbol
_atom_site_fract_x
_atom_site_fract_y
_atom_site_fract_z
_atom_site_charge
C 	C 	0.35100 0.38960 0.27100 0.10000
H 	H 	0.34550 0.34900 0.31970 -0.02500
C 	C 	0.41710 0.45960 0.14800 0.12700
H 	H 	0.45860 0.46810 0.10770 -0.02700
C 	C 	0.36500 0.50850 0.13260 -0.21100
H 	H 	0.37190 0.54890 0.08410 0.10600
C 	C 	0.30250 0.49800 0.18890 0.14800
C 	C 	0.29600 0.43670 0.25630 -0.20300
H 	H 	0.25390 0.42670 0.29280 0.09000
C 	C 	0.24310 0.59060 0.30730 -0.18100
H 	H 	0.29030 0.61180 0.33410 0.08200
H 	H 	0.23770 0.56140 0.39270 0.07900
C 	C 	0.08330 0.70570 0.15720 0.11500
H 	H 	0.04870 0.71180 0.06730 -0.04600
C 	C 	0.13380 0.65530 0.15830 -0.20800
H 	H 	0.13340 0.62890 0.07090 0.09100
C 	C 	0.18130 0.68600 0.41810 -0.21900
H 	H 	0.21360 0.68030 0.51150 0.10000
C 	C 	0.12990 0.73470 0.40510 0.11800
H 	H 	0.12850 0.76170 0.49080 -0.03300
C 	C 	0.99830 0.84790 0.88100 0.20600
C 	C 	0.24230 0.54910 0.17010 -0.15900
H 	H 	0.24600 0.57810 0.08320 0.06800
H 	H 	0.19610 0.52590 0.14550 0.06400
C 	C 	0.18610 0.64460 0.29390 0.14800
N 	N 	0.08110 0.74570 0.27520 -0.27700
N 	N 	0.41240 0.40120 0.21640 -0.26100
N 	N 	0.99760 0.83250 0.00360 -0.27800
N 	N 	0.01400 0.87490 0.75500 -0.39900
C 	C 	0.85100 0.88960 0.27100 0.09900
H 	H 	0.84550 0.84900 0.31970 -0.02300
C 	C 	0.91710 0.95960 0.14800 0.12200
H 	H 	0.95860 0.96810 0.10770 -0.01300
C 	C 	0.86500 0.00850 0.13260 -0.20700
H 	H 	0.87190 0.04890 0.08410 0.10200
C 	C 	0.80250 0.99800 0.18890 0.14500
C 	C 	0.79600 0.93670 0.25630 -0.20200
H 	H 	0.75390 0.92670 0.29280 0.09000
C 	C 	0.74310 0.09060 0.30730 -0.17800
H 	H 	0.79030 0.11180 0.33410 0.08000
H 	H 	0.73770 0.06140 0.39270 0.08000
C 	C 	0.58330 0.20570 0.15720 0.11700
H 	H 	0.54870 0.21180 0.06730 -0.03300
C 	C 	0.63380 0.15530 0.15830 -0.20400
H 	H 	0.63340 0.12890 0.07090 0.09500
C 	C 	0.68130 0.18600 0.41810 -0.21700
H 	H 	0.71360 0.18030 0.51150 0.10000
C 	C 	0.62990 0.23470 0.40510 0.12200
H 	H 	0.62850 0.26170 0.49080 -0.03200
C 	C 	0.49830 0.34790 0.88100 0.18000
C 	C 	0.74230 0.04910 0.17010 -0.16200
H 	H 	0.74600 0.07810 0.08320 0.06900
H 	H 	0.69610 0.02590 0.14550 0.06900
C 	C 	0.68610 0.14460 0.29390 0.14900
N 	N 	0.58110 0.24570 0.27520 -0.27000
N 	N 	0.91240 0.90120 0.21640 -0.25100
N 	N 	0.49760 0.33250 0.00360 -0.29100
N 	N 	0.51400 0.37490 0.75500 -0.10200
C 	C 	0.64900 0.38960 0.22900 0.10200
H 	H 	0.65450 0.34900 0.18030 -0.02600
C 	C 	0.58290 0.45960 0.35200 0.12900
H 	H 	0.54140 0.46810 0.39230 -0.02900
C 	C 	0.63500 0.50850 0.36740 -0.21800
H 	H 	0.62810 0.54890 0.41590 0.10700
C 	C 	0.69750 0.49800 0.31110 0.15500
C 	C 	0.70400 0.43670 0.24370 -0.20900
H 	H 	0.74610 0.42670 0.20720 0.09500
C 	C 	0.75690 0.59060 0.19270 -0.17100
H 	H 	0.70970 0.61180 0.16590 0.07900
H 	H 	0.76230 0.56140 0.10730 0.08000
C 	C 	0.91670 0.70570 0.34280 0.11800
H 	H 	0.95130 0.71180 0.43270 -0.01900
C 	C 	0.86620 0.65530 0.34170 -0.19800
H 	H 	0.86660 0.62890 0.42910 0.09700
C 	C 	0.81870 0.68600 0.08190 -0.20900
H 	H 	0.78640 0.68030 0.98850 0.09700
C 	C 	0.87010 0.73470 0.09490 0.12200
H 	H 	0.87150 0.76170 0.00920 -0.02900
C 	C 	0.00170 0.84790 0.61900 0.15500
C 	C 	0.75770 0.54910 0.32990 -0.17200
H 	H 	0.75400 0.57810 0.41680 0.07300
H 	H 	0.80390 0.52590 0.35450 0.07500
C 	C 	0.81390 0.64460 0.20610 0.14600
N 	N 	0.91890 0.74570 0.22480 -0.26000
N 	N 	0.58760 0.40120 0.28360 -0.26200
N 	N 	0.00240 0.83250 0.49640 -0.30000
N 	N 	0.98600 0.87490 0.74500 0.19500
C 	C 	0.14900 0.88960 0.22900 0.10000
H 	H 	0.15450 0.84900 0.18030 -0.02800
C 	C 	0.08290 0.95960 0.35200 0.12900
H 	H 	0.04140 0.96810 0.39230 -0.04100
C 	C 	0.13500 0.00850 0.36740 -0.21700
H 	H 	0.12810 0.04890 0.41590 0.10800
C 	C 	0.19750 0.99800 0.31110 0.15200
C 	C 	0.20400 0.93670 0.24370 -0.20700
H 	H 	0.24610 0.92670 0.20720 0.09200
C 	C 	0.25690 0.09060 0.19270 -0.17800
H 	H 	0.20970 0.11180 0.16590 0.08300
H 	H 	0.26230 0.06140 0.10730 0.08000
C 	C 	0.41670 0.20570 0.34280 0.11700
H 	H 	0.45130 0.21180 0.43270 -0.03300
C 	C 	0.36620 0.15530 0.34170 -0.20400
H 	H 	0.36660 0.12890 0.42910 0.09400
C 	C 	0.31870 0.18600 0.08190 -0.21500
H 	H 	0.28640 0.18030 0.98850 0.09900
C 	C 	0.37010 0.23470 0.09490 0.12000
H 	H 	0.37150 0.26170 0.00920 -0.03200
C 	C 	0.50170 0.34790 0.61900 0.18200
C 	C 	0.25770 0.04910 0.32990 -0.16300
H 	H 	0.25400 0.07810 0.41680 0.07000
H 	H 	0.30390 0.02590 0.35450 0.06900
C 	C 	0.31390 0.14460 0.20610 0.14800
N 	N 	0.41890 0.24570 0.22480 -0.27000
N 	N 	0.08760 0.90120 0.28360 -0.26800
N 	N 	0.50240 0.33250 0.49640 -0.29200
N 	N 	0.48600 0.37490 0.74500 -0.10200
Zn	Zn	0.00000 0.82488 0.25000 1.16600
Zn	Zn	0.50000 0.32488 0.25000 1.18000
C 	C 	0.64900 0.61040 0.72900 0.10200
H 	H 	0.65450 0.65100 0.68030 -0.02600
C 	C 	0.58290 0.54040 0.85200 0.12800
H 	H 	0.54140 0.53190 0.89230 -0.02900
C 	C 	0.63500 0.49150 0.86740 -0.21700
H 	H 	0.62810 0.45110 0.91590 0.10600
C 	C 	0.69750 0.50200 0.81110 0.15400
C 	C 	0.70400 0.56330 0.74370 -0.20800
H 	H 	0.74610 0.57330 0.70720 0.09400
C 	C 	0.75690 0.40940 0.69270 -0.17400
H 	H 	0.70970 0.38820 0.66590 0.08000
H 	H 	0.76230 0.43860 0.60730 0.08000
C 	C 	0.91670 0.29430 0.84280 0.11800
H 	H 	0.95130 0.28820 0.93270 -0.02000
C 	C 	0.86620 0.34470 0.84170 -0.20000
H 	H 	0.86660 0.37110 0.92910 0.09700
C 	C 	0.81870 0.31400 0.58190 -0.21500
H 	H 	0.78640 0.31970 0.48850 0.10100
C 	C 	0.87010 0.26530 0.59490 0.12500
H 	H 	0.87150 0.23830 0.50920 -0.03100
C 	C 	0.00170 0.15210 0.11900 0.15600
C 	C 	0.75770 0.45090 0.82990 -0.16900
H 	H 	0.75400 0.42190 0.91680 0.07200
H 	H 	0.80390 0.47410 0.85450 0.07400
C 	C 	0.81390 0.35540 0.70610 0.14900
N 	N 	0.91890 0.25430 0.72480 -0.26100
N 	N 	0.58760 0.59880 0.78360 -0.26200
N 	N 	0.00240 0.16750 0.99640 -0.30000
N 	N 	0.98600 0.12510 0.24500 0.20400
C 	C 	0.14900 0.11040 0.72900 0.09900
H 	H 	0.15450 0.15100 0.68030 -0.02700
C 	C 	0.08290 0.04040 0.85200 0.12900
H 	H 	0.04140 0.03190 0.89230 -0.04100
C 	C 	0.13500 0.99150 0.86740 -0.21600
H 	H 	0.12810 0.95110 0.91590 0.10800
C 	C 	0.19750 0.00200 0.81110 0.15000
C 	C 	0.20400 0.06330 0.74370 -0.20600
H 	H 	0.24610 0.07330 0.70720 0.09100
C 	C 	0.25690 0.90940 0.69270 -0.18000
H 	H 	0.20970 0.88820 0.66590 0.08300
H 	H 	0.26230 0.93860 0.60730 0.08000
C 	C 	0.41670 0.79430 0.84280 0.11700
H 	H 	0.45130 0.78820 0.93270 -0.03400
C 	C 	0.36620 0.84470 0.84170 -0.20500
H 	H 	0.36660 0.87110 0.92910 0.09400
C 	C 	0.31870 0.81400 0.58190 -0.21800
H 	H 	0.28640 0.81970 0.48850 0.10100
C 	C 	0.37010 0.76530 0.59490 0.12200
H 	H 	0.37150 0.73830 0.50920 -0.03200
C 	C 	0.50170 0.65210 0.11900 0.18300
C 	C 	0.25770 0.95090 0.82990 -0.16200
H 	H 	0.25400 0.92190 0.91680 0.07000
H 	H 	0.30390 0.97410 0.85450 0.06800
C 	C 	0.31390 0.85540 0.70610 0.15000
N 	N 	0.41890 0.75430 0.72480 -0.27000
N 	N 	0.08760 0.09880 0.78360 -0.26700
N 	N 	0.50240 0.66750 0.99640 -0.29300
N 	N 	0.48600 0.62510 0.24500 -0.10200
C 	C 	0.35100 0.61040 0.77100 0.09900
H 	H 	0.34550 0.65100 0.81970 -0.02600
C 	C 	0.41710 0.54040 0.64800 0.12600
H 	H 	0.45860 0.53190 0.60770 -0.02800
C 	C 	0.36500 0.49150 0.63260 -0.21200
H 	H 	0.37190 0.45110 0.58410 0.10500
C 	C 	0.30250 0.50200 0.68890 0.14700
C 	C 	0.29600 0.56330 0.75630 -0.20300
H 	H 	0.25390 0.57330 0.79280 0.08900
C 	C 	0.24310 0.40940 0.80730 -0.18100
H 	H 	0.29030 0.38820 0.83410 0.08200
H 	H 	0.23770 0.43860 0.89270 0.07900
C 	C 	0.08330 0.29430 0.65720 0.11500
H 	H 	0.04870 0.28820 0.56730 -0.04600
C 	C 	0.13380 0.34470 0.65830 -0.20900
H 	H 	0.13340 0.37110 0.57090 0.09100
C 	C 	0.18130 0.31400 0.91810 -0.22100
H 	H 	0.21360 0.31970 0.01150 0.10100
C 	C 	0.12990 0.26530 0.90510 0.11900
H 	H 	0.12850 0.23830 0.99080 -0.03400
C 	C 	0.99830 0.15210 0.38100 0.21000
C 	C 	0.24230 0.45090 0.67010 -0.15900
H 	H 	0.24600 0.42190 0.58320 0.06700
H 	H 	0.19610 0.47410 0.64550 0.06400
C 	C 	0.18610 0.35540 0.79390 0.14900
N 	N 	0.08110 0.25430 0.77520 -0.27700
N 	N 	0.41240 0.59880 0.71640 -0.26100
N 	N 	0.99760 0.16750 0.50360 -0.28000
N 	N 	0.01400 0.12510 0.25500 -0.40800
C 	C 	0.85100 0.11040 0.77100 0.09900
H 	H 	0.84550 0.15100 0.81970 -0.02400
C 	C 	0.91710 0.04040 0.64800 0.12300
H 	H 	0.95860 0.03190 0.60770 -0.01400
C 	C 	0.86500 0.99150 0.63260 -0.20900
H 	H 	0.87190 0.95110 0.58410 0.10200
C 	C 	0.80250 0.00200 0.68890 0.14600
C 	C 	0.79600 0.06330 0.75630 -0.20300
H 	H 	0.75390 0.07330 0.79280 0.09000
C 	C 	0.74310 0.90940 0.80730 -0.17800
H 	H 	0.79030 0.88820 0.83410 0.07900
H 	H 	0.73770 0.93860 0.89270 0.07900
C 	C 	0.58330 0.79430 0.65720 0.11700
H 	H 	0.54870 0.78820 0.56730 -0.03300
C 	C 	0.63380 0.84470 0.65830 -0.20500
H 	H 	0.63340 0.87110 0.57090 0.09400
C 	C 	0.68130 0.81400 0.91810 -0.22100
H 	H 	0.71360 0.81970 0.01150 0.10200
C 	C 	0.62990 0.76530 0.90510 0.12300
H 	H 	0.62850 0.73830 0.99080 -0.03300
C 	C 	0.49830 0.65210 0.38100 0.18200
C 	C 	0.74230 0.95090 0.67010 -0.16300
H 	H 	0.74600 0.92190 0.58320 0.06900
H 	H 	0.69610 0.97410 0.64550 0.06900
C 	C 	0.68610 0.85540 0.79390 0.15000
N 	N 	0.58110 0.75430 0.77520 -0.27100
N 	N 	0.91240 0.09880 0.71640 -0.25200
N 	N 	0.49760 0.66750 0.50360 -0.29200
N 	N 	0.51400 0.62510 0.25500 -0.10200
Zn	Zn	0.00000 0.17512 0.75000 1.16700
Zn	Zn	0.50000 0.67512 0.75000 1.18000
