data_crystal

_cell_length_a 18.77690
_cell_length_b 19.86860
_cell_length_c 8.77340
_cell_angle_alpha 90.00000
_cell_angle_beta  100.96700
_cell_angle_gamma 90.00000

_symmetry_space_group_name_	'P 1'
_symmetry_space_group_name_H-M	'P 1'

loop_
_symmetry_equiv_pos_as_xyz
  x,y,z

loop_
_atom_site_label
_atom_site_type_symbol
_atom_site_fract_x
_atom_site_fract_y
_atom_site_fract_z
_atom_site_charge
N 	N 	0.08740 0.59900 0.28280 -0.27000
C 	C 	0.20450 0.56330 0.24540 -0.20500
H 	H 	0.24700 0.57320 0.21000 0.09100
N 	N 	0.41870 0.25400 0.22480 -0.27400
C 	C 	0.31510 0.35550 0.20800 0.17300
C 	C 	0.13500 0.49140 0.36580 -0.22200
H 	H 	0.12740 0.45020 0.41040 0.10800
N 	N 	0.99680 0.66770 0.00380 -0.28400
C 	C 	0.14840 0.60990 0.22840 0.10100
H 	H 	0.15340 0.65020 0.17730 -0.02900
C 	C 	0.37040 0.26470 0.09560 0.12800
H 	H 	0.37170 0.23760 0.00980 -0.03400
C 	C 	0.36800 0.34610 0.33780 -0.22700
H 	H 	0.37050 0.37480 0.42250 0.10200
N 	N 	0.98500 0.62480 0.73900 0.12200
C 	C 	0.19700 0.50250 0.31480 0.14700
C 	C 	0.08310 0.54020 0.35240 0.12900
H 	H 	0.04220 0.53180 0.39470 -0.04300
C 	C 	0.31840 0.31430 0.08350 -0.22900
H 	H 	0.28550 0.32010 0.99090 0.10400
C 	C 	0.25850 0.40890 0.19610 -0.20300
H 	H 	0.26420 0.43890 0.11200 0.08700
H 	H 	0.21140 0.38750 0.16700 0.08900
C 	C 	0.41710 0.29480 0.34290 0.12800
H 	H 	0.45090 0.28840 0.43390 -0.03700
C 	C 	0.99750 0.65220 0.88210 0.23400
C 	C 	0.25770 0.44900 0.33120 -0.13900
H 	H 	0.30410 0.47160 0.35890 0.06100
H 	H 	0.25290 0.41920 0.41630 0.06200
N 	N 	0.58740 0.09900 0.28280 -0.26200
C 	C 	0.70450 0.06330 0.24540 -0.20500
H 	H 	0.74700 0.07320 0.21000 0.09400
N 	N 	0.91870 0.75400 0.22480 -0.26200
C 	C 	0.81510 0.85550 0.20800 0.17000
C 	C 	0.63500 0.99140 0.36580 -0.21900
H 	H 	0.62740 0.95020 0.41040 0.10700
N 	N 	0.49680 0.16770 0.00380 -0.29300
C 	C 	0.64840 0.10990 0.22840 0.10300
H 	H 	0.65340 0.15020 0.17730 -0.02600
C 	C 	0.87040 0.76470 0.09560 0.12800
H 	H 	0.87170 0.73760 0.00980 -0.03000
C 	C 	0.86800 0.84610 0.33780 -0.21900
H 	H 	0.87050 0.87480 0.42250 0.10500
N 	N 	0.48500 0.12480 0.73900 -0.10400
C 	C 	0.69700 0.00250 0.31480 0.14800
C 	C 	0.58310 0.04020 0.35240 0.12800
H 	H 	0.54220 0.03180 0.39470 -0.02800
C 	C 	0.81840 0.81430 0.08350 -0.22000
H 	H 	0.78550 0.82010 0.99090 0.10000
C 	C 	0.75850 0.90890 0.19610 -0.19600
H 	H 	0.76420 0.93890 0.11200 0.08700
H 	H 	0.71140 0.88750 0.16700 0.08600
C 	C 	0.91710 0.79480 0.34290 0.13000
H 	H 	0.95090 0.78840 0.43390 -0.02100
C 	C 	0.49750 0.15220 0.88210 0.18300
C 	C 	0.75770 0.94900 0.33120 -0.14500
H 	H 	0.80410 0.97160 0.35890 0.06700
H 	H 	0.75290 0.91920 0.41630 0.06500
N 	N 	0.91260 0.59900 0.21720 -0.25000
C 	C 	0.79550 0.56330 0.25460 -0.20000
H 	H 	0.75300 0.57320 0.29000 0.09000
N 	N 	0.58130 0.25400 0.27520 -0.27500
C 	C 	0.68490 0.35550 0.29200 0.17500
C 	C 	0.86500 0.49140 0.13420 -0.21100
H 	H 	0.87260 0.45020 0.08960 0.10600
N 	N 	0.00320 0.66770 0.49620 -0.29700
C 	C 	0.85160 0.60990 0.27160 0.10200
H 	H 	0.84660 0.65020 0.32270 -0.02200
C 	C 	0.62960 0.26470 0.40440 0.13000
H 	H 	0.62830 0.23760 0.49020 -0.03500
C 	C 	0.63200 0.34610 0.16220 -0.22800
H 	H 	0.62950 0.37480 0.07750 0.10300
N 	N 	0.01500 0.62480 0.76100 -0.32900
C 	C 	0.80300 0.50250 0.18520 0.14200
C 	C 	0.91690 0.54020 0.14760 0.12500
H 	H 	0.95780 0.53180 0.10530 -0.01000
C 	C 	0.68160 0.31430 0.41650 -0.23200
H 	H 	0.71450 0.32010 0.50910 0.10500
C 	C 	0.74150 0.40890 0.30390 -0.20300
H 	H 	0.73580 0.43890 0.38800 0.08700
H 	H 	0.78860 0.38750 0.33300 0.08700
C 	C 	0.58290 0.29480 0.15710 0.12900
H 	H 	0.54910 0.28840 0.06610 -0.03700
C 	C 	0.00250 0.65220 0.61790 0.13000
C 	C 	0.74230 0.44900 0.16880 -0.13700
H 	H 	0.69590 0.47160 0.14110 0.06100
H 	H 	0.74710 0.41920 0.08370 0.06200
N 	N 	0.41260 0.09900 0.21720 -0.26100
C 	C 	0.29550 0.06330 0.25460 -0.19800
H 	H 	0.25300 0.07320 0.29000 0.08700
N 	N 	0.08130 0.75400 0.27520 -0.28200
C 	C 	0.18490 0.85550 0.29200 0.17600
C 	C 	0.36500 0.99140 0.13420 -0.21100
H 	H 	0.37260 0.95020 0.08960 0.10500
N 	N 	0.50320 0.16770 0.49620 -0.29400
C 	C 	0.35160 0.10990 0.27160 0.09900
H 	H 	0.34660 0.15020 0.32270 -0.02500
C 	C 	0.12960 0.76470 0.40440 0.12600
H 	H 	0.12830 0.73760 0.49020 -0.03700
C 	C 	0.13200 0.84610 0.16220 -0.23400
H 	H 	0.12950 0.87480 0.07750 0.09900
N 	N 	0.51500 0.12480 0.76100 -0.10400
C 	C 	0.30300 0.00250 0.18520 0.13700
C 	C 	0.41690 0.04020 0.14760 0.12300
H 	H 	0.45780 0.03180 0.10530 -0.02600
C 	C 	0.18160 0.81430 0.41650 -0.23600
H 	H 	0.21450 0.82010 0.50910 0.10500
C 	C 	0.24150 0.90890 0.30390 -0.21000
H 	H 	0.23580 0.93890 0.38800 0.08700
H 	H 	0.28860 0.88750 0.33300 0.09000
C 	C 	0.08290 0.79480 0.15710 0.12700
H 	H 	0.04910 0.78840 0.06610 -0.05200
C 	C 	0.50250 0.15220 0.61790 0.18500
C 	C 	0.24230 0.94900 0.16880 -0.12900
H 	H 	0.19590 0.97160 0.14110 0.05400
H 	H 	0.24710 0.91920 0.08370 0.05900
Zn	Zn	0.00000 0.67525 0.25000 1.16500
Zn	Zn	0.50000 0.17525 0.25000 1.18100
N 	N 	0.91260 0.40100 0.71720 -0.25000
C 	C 	0.79550 0.43670 0.75460 -0.20000
H 	H 	0.75300 0.42680 0.79000 0.08900
N 	N 	0.58130 0.74600 0.77520 -0.27600
C 	C 	0.68490 0.64450 0.79200 0.17800
C 	C 	0.86500 0.50860 0.63420 -0.21100
H 	H 	0.87260 0.54980 0.58960 0.10500
N 	N 	0.00320 0.33230 0.99620 -0.29700
C 	C 	0.85160 0.39010 0.77160 0.10100
H 	H 	0.84660 0.34980 0.82270 -0.02300
C 	C 	0.62960 0.73530 0.90440 0.13400
H 	H 	0.62830 0.76240 0.99020 -0.03800
C 	C 	0.63200 0.65390 0.66220 -0.23100
H 	H 	0.62950 0.62520 0.57750 0.10300
N 	N 	0.01500 0.37520 0.26100 -0.33500
C 	C 	0.80300 0.49750 0.68520 0.14000
C 	C 	0.91690 0.45980 0.64760 0.12400
H 	H 	0.95780 0.46820 0.60530 -0.01100
C 	C 	0.68160 0.68570 0.91650 -0.24100
H 	H 	0.71450 0.67990 0.00910 0.11000
C 	C 	0.74150 0.59110 0.80390 -0.20700
H 	H 	0.73580 0.56110 0.88800 0.08700
H 	H 	0.78860 0.61250 0.83300 0.08800
C 	C 	0.58290 0.70520 0.65710 0.13100
H 	H 	0.54910 0.71160 0.56610 -0.03800
C 	C 	0.00250 0.34780 0.11790 0.13100
C 	C 	0.74230 0.55100 0.66880 -0.13500
H 	H 	0.69590 0.52840 0.64110 0.05900
H 	H 	0.74710 0.58080 0.58370 0.06100
N 	N 	0.41260 0.90100 0.71720 -0.26100
C 	C 	0.29550 0.93670 0.75460 -0.19900
H 	H 	0.25300 0.92680 0.79000 0.08600
N 	N 	0.08130 0.24600 0.77520 -0.28300
C 	C 	0.18490 0.14450 0.79200 0.17700
C 	C 	0.36500 0.00860 0.63420 -0.21200
H 	H 	0.37260 0.04980 0.58960 0.10500
N 	N 	0.50320 0.83230 0.99620 -0.29600
C 	C 	0.35160 0.89010 0.77160 0.09900
H 	H 	0.34660 0.84980 0.82270 -0.02600
C 	C 	0.12960 0.23530 0.90440 0.12800
H 	H 	0.12830 0.26240 0.99020 -0.03800
C 	C 	0.13200 0.15390 0.66220 -0.23500
H 	H 	0.12950 0.12520 0.57750 0.09900
N 	N 	0.51500 0.87520 0.26100 -0.10400
C 	C 	0.30300 0.99750 0.68520 0.13800
C 	C 	0.41690 0.95980 0.64760 0.12400
H 	H 	0.45780 0.96820 0.60530 -0.02700
C 	C 	0.18160 0.18570 0.91650 -0.23900
H 	H 	0.21450 0.17990 0.00910 0.10700
C 	C 	0.24150 0.09110 0.80390 -0.21100
H 	H 	0.23580 0.06110 0.88800 0.08700
H 	H 	0.28860 0.11250 0.83300 0.09000
C 	C 	0.08290 0.20520 0.65710 0.12800
H 	H 	0.04910 0.21160 0.56610 -0.05300
C 	C 	0.50250 0.84780 0.11790 0.18800
C 	C 	0.24230 0.05100 0.66880 -0.12900
H 	H 	0.19590 0.02840 0.64110 0.05400
H 	H 	0.24710 0.08080 0.58370 0.05800
N 	N 	0.08740 0.40100 0.78280 -0.27000
C 	C 	0.20450 0.43670 0.74540 -0.20500
H 	H 	0.24700 0.42680 0.71000 0.09100
N 	N 	0.41870 0.74600 0.72480 -0.27500
C 	C 	0.31510 0.64450 0.70800 0.17500
C 	C 	0.13500 0.50860 0.86580 -0.22100
H 	H 	0.12740 0.54980 0.91040 0.10700
N 	N 	0.99680 0.33230 0.50380 -0.28800
C 	C 	0.14840 0.39010 0.72840 0.10100
H 	H 	0.15340 0.34980 0.67730 -0.02900
C 	C 	0.37040 0.73530 0.59560 0.13000
H 	H 	0.37170 0.76240 0.50980 -0.03500
C 	C 	0.36800 0.65390 0.83780 -0.22800
H 	H 	0.37050 0.62520 0.92250 0.10200
N 	N 	0.98500 0.37520 0.23900 0.12700
C 	C 	0.19700 0.49750 0.81480 0.14600
C 	C 	0.08310 0.45980 0.85240 0.12900
H 	H 	0.04220 0.46820 0.89470 -0.04300
C 	C 	0.31840 0.68570 0.58350 -0.23300
H 	H 	0.28550 0.67990 0.49090 0.10600
C 	C 	0.25850 0.59110 0.69610 -0.20500
H 	H 	0.26420 0.56110 0.61200 0.08700
H 	H 	0.21140 0.61250 0.66700 0.08900
C 	C 	0.41710 0.70520 0.84290 0.12900
H 	H 	0.45090 0.71160 0.93390 -0.03800
C 	C 	0.99750 0.34780 0.38210 0.24100
C 	C 	0.25770 0.55100 0.83120 -0.13800
H 	H 	0.30410 0.52840 0.85890 0.06000
H 	H 	0.25290 0.58080 0.91630 0.06200
N 	N 	0.58740 0.90100 0.78280 -0.26200
C 	C 	0.70450 0.93670 0.74540 -0.20400
H 	H 	0.74700 0.92680 0.71000 0.09200
N 	N 	0.91870 0.24600 0.72480 -0.26400
C 	C 	0.81510 0.14450 0.70800 0.17500
C 	C 	0.63500 0.00860 0.86580 -0.21700
H 	H 	0.62740 0.04980 0.91040 0.10600
N 	N 	0.49680 0.83230 0.50380 -0.29400
C 	C 	0.64840 0.89010 0.72840 0.10200
H 	H 	0.65340 0.84980 0.67730 -0.02600
C 	C 	0.87040 0.23530 0.59560 0.13300
H 	H 	0.87170 0.26240 0.50980 -0.03300
C 	C 	0.86800 0.15390 0.83780 -0.22300
H 	H 	0.87050 0.12520 0.92250 0.10600
N 	N 	0.48500 0.87520 0.23900 -0.10500
C 	C 	0.69700 0.99750 0.81480 0.14500
C 	C 	0.58310 0.95980 0.85240 0.12600
H 	H 	0.54220 0.96820 0.89470 -0.02800
C 	C 	0.81840 0.18570 0.58350 -0.23000
H 	H 	0.78550 0.17990 0.49090 0.10600
C 	C 	0.75850 0.09110 0.69610 -0.20100
H 	H 	0.76420 0.06110 0.61200 0.08800
H 	H 	0.71140 0.11250 0.66700 0.08700
C 	C 	0.91710 0.20520 0.84290 0.13200
H 	H 	0.95090 0.21160 0.93390 -0.02200
C 	C 	0.49750 0.84780 0.38210 0.18600
C 	C 	0.75770 0.05100 0.83120 -0.14100
H 	H 	0.80410 0.02840 0.85890 0.06500
H 	H 	0.75290 0.08080 0.91630 0.06300
Zn	Zn	0.00000 0.32475 0.75000 1.16500
Zn	Zn	0.50000 0.82475 0.75000 1.18100
