data_crystal

_cell_length_a 18.51140
_cell_length_b 20.01150
_cell_length_c 8.70930
_cell_angle_alpha 90.00000
_cell_angle_beta  100.55500
_cell_angle_gamma 90.00000

_symmetry_space_group_name_	'P 1'
_symmetry_space_group_name_H-M	'P 1'

loop_
_symmetry_equiv_pos_as_xyz
  x,y,z

loop_
_atom_site_label
_atom_site_type_symbol
_atom_site_fract_x
_atom_site_fract_y
_atom_site_fract_z
_atom_site_charge
N 	N 	0.91967 0.25373 0.72440 -0.24800
N 	N 	0.00115 0.16809 0.99250 -0.29100
N 	N 	0.58795 0.60039 0.78450 -0.25300
C 	C 	0.86973 0.26450 0.59500 0.12300
H 	H 	0.86980 0.23670 0.50950 -0.02700
C 	C 	0.91918 0.29613 0.84210 0.11800
H 	H 	0.95450 0.29090 0.93210 -0.01500
C 	C 	0.81820 0.31475 0.58230 -0.21700
H 	H 	0.78490 0.32030 0.48930 0.10200
C 	C 	0.81560 0.35669 0.70600 0.16000
C 	C 	0.64993 0.61052 0.73250 0.10900
H 	H 	0.65580 0.65080 0.68290 -0.02700
C 	C 	0.86910 0.34736 0.83760 -0.20700
H 	H 	0.87120 0.37560 0.92300 0.10000
C 	C 	0.58207 0.54224 0.85690 0.11500
H 	H 	0.54040 0.53470 0.89990 -0.02300
C 	C 	0.69830 0.50257 0.81650 0.15100
C 	C 	0.63510 0.49270 0.87080 -0.21000
H 	H 	0.62730 0.45230 0.91780 0.10400
C 	C 	0.00040 0.15246 0.11640 0.14600
N 	N 	0.01480 0.12530 0.25450 -0.34400
C 	C 	0.75650 0.44910 0.83640 -0.16400
H 	H 	0.80420 0.46990 0.86910 0.07200
H 	H 	0.74840 0.41900 0.91890 0.07100
C 	C 	0.70660 0.56420 0.74820 -0.20900
H 	H 	0.74980 0.57440 0.71320 0.09500
C 	C 	0.75760 0.41000 0.69340 -0.18400
H 	H 	0.76430 0.44060 0.61080 0.08300
H 	H 	0.70990 0.38900 0.66220 0.08300
N 	N 	0.41967 0.75373 0.72440 -0.26000
N 	N 	0.50115 0.66809 0.99250 -0.28600
N 	N 	0.08795 0.10039 0.78450 -0.25900
C 	C 	0.36973 0.76450 0.59500 0.11900
H 	H 	0.36980 0.73670 0.50950 -0.02900
C 	C 	0.41918 0.79613 0.84210 0.11600
H 	H 	0.45450 0.79090 0.93210 -0.03000
C 	C 	0.31820 0.81475 0.58230 -0.22000
H 	H 	0.28490 0.82030 0.48930 0.10200
C 	C 	0.31560 0.85669 0.70600 0.16100
C 	C 	0.14993 0.11052 0.73250 0.10700
H 	H 	0.15580 0.15080 0.68290 -0.02900
C 	C 	0.36910 0.84736 0.83760 -0.21300
H 	H 	0.37120 0.87560 0.92300 0.09700
C 	C 	0.08207 0.04224 0.85690 0.11300
H 	H 	0.04040 0.03470 0.89990 -0.03500
C 	C 	0.19830 0.00257 0.81650 0.14700
C 	C 	0.13510 0.99270 0.87080 -0.20800
H 	H 	0.12730 0.95230 0.91780 0.10400
C 	C 	0.50040 0.65246 0.11640 0.17900
N 	N 	0.51480 0.62530 0.25450 -0.10100
C 	C 	0.25650 0.94910 0.83640 -0.15700
H 	H 	0.30420 0.96990 0.86910 0.06600
H 	H 	0.24840 0.91900 0.91890 0.06900
C 	C 	0.20660 0.06420 0.74820 -0.20700
H 	H 	0.24980 0.07440 0.71320 0.09200
C 	C 	0.25760 0.91000 0.69340 -0.18900
H 	H 	0.26430 0.94060 0.61080 0.08300
H 	H 	0.20990 0.88900 0.66220 0.08600
N 	N 	0.08033 0.25373 0.77560 -0.26700
N 	N 	0.99885 0.16809 0.50750 -0.27200
N 	N 	0.41205 0.60039 0.71550 -0.25300
C 	C 	0.13027 0.26450 0.90500 0.11600
H 	H 	0.13020 0.23670 0.99050 -0.03100
C 	C 	0.08082 0.29613 0.65790 0.11300
H 	H 	0.04550 0.29090 0.56790 -0.04300
C 	C 	0.18180 0.31475 0.91770 -0.22400
H 	H 	0.21510 0.32030 0.01070 0.10200
C 	C 	0.18440 0.35669 0.79400 0.16000
C 	C 	0.35007 0.61052 0.76750 0.10600
H 	H 	0.34420 0.65080 0.81710 -0.02700
C 	C 	0.13090 0.34736 0.66240 -0.21700
H 	H 	0.12880 0.37560 0.57700 0.09300
C 	C 	0.41793 0.54224 0.64310 0.11200
H 	H 	0.45960 0.53470 0.60010 -0.02100
C 	C 	0.30170 0.50257 0.68350 0.14400
C 	C 	0.36490 0.49270 0.62920 -0.20500
H 	H 	0.37270 0.45230 0.58220 0.10300
C 	C 	0.99960 0.15246 0.38360 0.21000
N 	N 	0.98520 0.12530 0.24550 0.14200
C 	C 	0.24350 0.44910 0.66360 -0.15400
H 	H 	0.19580 0.46990 0.63090 0.06200
H 	H 	0.25160 0.41900 0.58110 0.06700
C 	C 	0.29340 0.56420 0.75180 -0.20400
H 	H 	0.25020 0.57440 0.78680 0.08900
C 	C 	0.24240 0.41000 0.80660 -0.19100
H 	H 	0.23570 0.44060 0.88920 0.08200
H 	H 	0.29010 0.38900 0.83780 0.08500
N 	N 	0.58033 0.75373 0.77560 -0.26100
N 	N 	0.49885 0.66809 0.50750 -0.28500
N 	N 	0.91205 0.10039 0.71550 -0.24300
C 	C 	0.63027 0.76450 0.90500 0.12100
H 	H 	0.63020 0.73670 0.99050 -0.03100
C 	C 	0.58082 0.79613 0.65790 0.11600
H 	H 	0.54550 0.79090 0.56790 -0.03000
C 	C 	0.68180 0.81475 0.91770 -0.22400
H 	H 	0.71510 0.82030 0.01070 0.10400
C 	C 	0.68440 0.85669 0.79400 0.16100
C 	C 	0.85007 0.11052 0.76750 0.10700
H 	H 	0.84420 0.15080 0.81710 -0.02400
C 	C 	0.63090 0.84736 0.66240 -0.21300
H 	H 	0.62880 0.87560 0.57700 0.09700
C 	C 	0.91793 0.04224 0.64310 0.11200
H 	H 	0.95960 0.03470 0.60010 -0.00700
C 	C 	0.80170 0.00257 0.68350 0.14400
C 	C 	0.86490 0.99270 0.62920 -0.20300
H 	H 	0.87270 0.95230 0.58220 0.10300
C 	C 	0.49960 0.65246 0.38360 0.17800
N 	N 	0.48520 0.62530 0.24550 -0.10100
C 	C 	0.74350 0.94910 0.66360 -0.15800
H 	H 	0.69580 0.96990 0.63090 0.06600
H 	H 	0.75160 0.91900 0.58110 0.06900
C 	C 	0.79340 0.06420 0.75180 -0.20400
H 	H 	0.75020 0.07440 0.78680 0.09100
C 	C 	0.74240 0.91000 0.80660 -0.18800
H 	H 	0.73570 0.94060 0.88920 0.08200
H 	H 	0.79010 0.88900 0.83780 0.08300
Co	Co	0.00000 0.17504 0.75000 1.10100
Co	Co	0.50000 0.67504 0.75000 1.12200
N 	N 	0.08033 0.74627 0.27560 -0.26700
N 	N 	0.99885 0.83191 0.00750 -0.26900
N 	N 	0.41205 0.39961 0.21550 -0.25300
C 	C 	0.13027 0.73550 0.40500 0.11500
H 	H 	0.13020 0.76330 0.49050 -0.03000
C 	C 	0.08082 0.70387 0.15790 0.11200
H 	H 	0.04550 0.70910 0.06790 -0.04300
C 	C 	0.18180 0.68525 0.41770 -0.22200
H 	H 	0.21510 0.67970 0.51070 0.10100
C 	C 	0.18440 0.64331 0.29400 0.15900
C 	C 	0.35007 0.38948 0.26750 0.10700
H 	H 	0.34420 0.34920 0.31710 -0.02700
C 	C 	0.13090 0.65264 0.16240 -0.21600
H 	H 	0.12880 0.62440 0.07700 0.09300
C 	C 	0.41793 0.45776 0.14310 0.11300
H 	H 	0.45960 0.46530 0.10010 -0.02100
C 	C 	0.30170 0.49743 0.18350 0.14500
C 	C 	0.36490 0.50730 0.12920 -0.20500
H 	H 	0.37270 0.54770 0.08220 0.10300
C 	C 	0.99960 0.84754 0.88360 0.20600
N 	N 	0.98520 0.87470 0.74550 0.13600
C 	C 	0.24350 0.55090 0.16360 -0.15500
H 	H 	0.19580 0.53010 0.13090 0.06200
H 	H 	0.25160 0.58100 0.08110 0.06700
C 	C 	0.29340 0.43580 0.25180 -0.20500
H 	H 	0.25020 0.42560 0.28680 0.08900
C 	C 	0.24240 0.59000 0.30660 -0.19000
H 	H 	0.23570 0.55940 0.38920 0.08200
H 	H 	0.29010 0.61100 0.33780 0.08500
N 	N 	0.58033 0.24627 0.27560 -0.26000
N 	N 	0.49885 0.33191 0.00750 -0.28300
N 	N 	0.91205 0.89961 0.21550 -0.24200
C 	C 	0.63027 0.23550 0.40500 0.11900
H 	H 	0.63020 0.26330 0.49050 -0.03000
C 	C 	0.58082 0.20387 0.15790 0.11600
H 	H 	0.54550 0.20910 0.06790 -0.02900
C 	C 	0.68180 0.18525 0.41770 -0.22000
H 	H 	0.71510 0.17970 0.51070 0.10100
C 	C 	0.68440 0.14331 0.29400 0.16000
C 	C 	0.85007 0.88948 0.26750 0.10700
H 	H 	0.84420 0.84920 0.31710 -0.02300
C 	C 	0.63090 0.15264 0.16240 -0.21200
H 	H 	0.62880 0.12440 0.07700 0.09700
C 	C 	0.91793 0.95776 0.14310 0.11100
H 	H 	0.95960 0.96530 0.10010 -0.00600
C 	C 	0.80170 0.99743 0.18350 0.14300
C 	C 	0.86490 0.00730 0.12920 -0.20100
H 	H 	0.87270 0.04770 0.08220 0.10300
C 	C 	0.49960 0.34754 0.88360 0.17600
N 	N 	0.48520 0.37470 0.74550 -0.10100
C 	C 	0.74350 0.05090 0.16360 -0.15700
H 	H 	0.69580 0.03010 0.13090 0.06700
H 	H 	0.75160 0.08100 0.08110 0.06900
C 	C 	0.79340 0.93580 0.25180 -0.20300
H 	H 	0.75020 0.92560 0.28680 0.09100
C 	C 	0.74240 0.09000 0.30660 -0.18800
H 	H 	0.73570 0.05940 0.38920 0.08300
H 	H 	0.79010 0.11100 0.33780 0.08400
N 	N 	0.91967 0.74627 0.22440 -0.24800
N 	N 	0.00115 0.83191 0.49250 -0.29200
N 	N 	0.58795 0.39961 0.28450 -0.25400
C 	C 	0.86973 0.73550 0.09500 0.11900
H 	H 	0.86980 0.76330 0.00950 -0.02600
C 	C 	0.91918 0.70387 0.34210 0.11700
H 	H 	0.95450 0.70910 0.43210 -0.01400
C 	C 	0.81820 0.68525 0.08230 -0.21100
H 	H 	0.78490 0.67970 0.98930 0.09800
C 	C 	0.81560 0.64331 0.20600 0.15700
C 	C 	0.64993 0.38948 0.23250 0.11000
H 	H 	0.65580 0.34920 0.18290 -0.02700
C 	C 	0.86910 0.65264 0.33760 -0.20500
H 	H 	0.87120 0.62440 0.42300 0.10000
C 	C 	0.58207 0.45776 0.35690 0.11600
H 	H 	0.54040 0.46530 0.39990 -0.02200
C 	C 	0.69830 0.49743 0.31650 0.15300
C 	C 	0.63510 0.50730 0.37080 -0.21100
H 	H 	0.62730 0.54770 0.41780 0.10500
C 	C 	0.00040 0.84754 0.61640 0.14500
N 	N 	0.01480 0.87470 0.75450 -0.33700
C 	C 	0.75650 0.55090 0.33640 -0.16700
H 	H 	0.80420 0.53010 0.36910 0.07300
H 	H 	0.74840 0.58100 0.41890 0.07200
C 	C 	0.70660 0.43580 0.24820 -0.21000
H 	H 	0.74980 0.42560 0.21320 0.09600
C 	C 	0.75760 0.59000 0.19340 -0.18100
H 	H 	0.76430 0.55940 0.11080 0.08300
H 	H 	0.70990 0.61100 0.16220 0.08300
N 	N 	0.41967 0.24627 0.22440 -0.26000
N 	N 	0.50115 0.33191 0.49250 -0.28500
N 	N 	0.08795 0.89961 0.28450 -0.26000
C 	C 	0.36973 0.23550 0.09500 0.11700
H 	H 	0.36980 0.26330 0.00950 -0.02800
C 	C 	0.41918 0.20387 0.34210 0.11500
H 	H 	0.45450 0.20910 0.43210 -0.02900
C 	C 	0.31820 0.18525 0.08230 -0.21600
H 	H 	0.28490 0.17970 0.98930 0.10000
C 	C 	0.31560 0.14331 0.20600 0.15900
C 	C 	0.14993 0.88948 0.23250 0.10700
H 	H 	0.15580 0.84920 0.18290 -0.02900
C 	C 	0.36910 0.15264 0.33760 -0.21100
H 	H 	0.37120 0.12440 0.42300 0.09700
C 	C 	0.08207 0.95776 0.35690 0.11400
H 	H 	0.04040 0.96530 0.39990 -0.03500
C 	C 	0.19830 0.99743 0.31650 0.14900
C 	C 	0.13510 0.00730 0.37080 -0.21000
H 	H 	0.12730 0.04770 0.41780 0.10400
C 	C 	0.50040 0.34754 0.61640 0.17700
N 	N 	0.51480 0.37470 0.75450 -0.10100
C 	C 	0.25650 0.05090 0.33640 -0.15900
H 	H 	0.30420 0.03010 0.36910 0.06700
H 	H 	0.24840 0.08100 0.41890 0.06900
C 	C 	0.20660 0.93580 0.24820 -0.20800
H 	H 	0.24980 0.92560 0.21320 0.09300
C 	C 	0.25760 0.09000 0.19340 -0.18800
H 	H 	0.26430 0.05940 0.11080 0.08300
H 	H 	0.20990 0.11100 0.16220 0.08600
Co	Co	0.00000 0.82496 0.25000 1.10100
Co	Co	0.50000 0.32496 0.25000 1.12200
