data_crystal

_cell_length_a 10.95300
_cell_length_b 19.81100
_cell_length_c 23.05600
_cell_angle_alpha 90.00000
_cell_angle_beta  90.00000
_cell_angle_gamma 99.88000

_symmetry_space_group_name_	'P 1'
_symmetry_space_group_name_H-M	'P 1'

loop_
_symmetry_equiv_pos_as_xyz
  x,y,z

loop_
_atom_site_label
_atom_site_type_symbol
_atom_site_fract_x
_atom_site_fract_y
_atom_site_fract_z
_atom_site_charge
Pr	Pr	0.96065 0.09981 0.64615 1.98900
Pr	Pr	0.14892 0.85230 0.85488 1.92300
Pr	Pr	0.53935 0.40019 0.14615 1.99000
Pr	Pr	0.35108 0.64770 0.35488 1.92400
Pr	Pr	0.03935 0.90019 0.35385 1.98800
Pr	Pr	0.85108 0.14770 0.14512 1.92200
Pr	Pr	0.46065 0.59981 0.85385 1.98900
Pr	Pr	0.64892 0.35230 0.64512 1.92300
Cu	Cu	0.91006 0.10005 0.82258 0.87200
Cu	Cu	0.19739 0.84747 0.67830 0.89000
Cu	Cu	0.58994 0.39995 0.32258 0.87200
Cu	Cu	0.30261 0.65253 0.17830 0.89100
Cu	Cu	0.08994 0.89995 0.17742 0.87200
Cu	Cu	0.80261 0.15253 0.32170 0.89000
Cu	Cu	0.41006 0.60005 0.67742 0.87200
Cu	Cu	0.69739 0.34747 0.82170 0.89100
H 	H 	0.72800 0.75600 0.79420 0.02500
H 	H 	0.62250 0.94170 0.69560 0.05100
H 	H 	0.58210 0.95900 0.41720 0.05800
H 	H 	0.39110 0.19160 0.70050 0.03200
H 	H 	0.48280 0.00720 0.80480 0.00500
H 	H 	0.77200 0.74400 0.29420 0.02500
H 	H 	0.87750 0.55830 0.19560 0.05200
H 	H 	0.91790 0.54100 0.91720 0.05700
H 	H 	0.10890 0.30840 0.20050 0.03200
H 	H 	0.01720 0.49280 0.30480 0.00400
H 	H 	0.27200 0.24400 0.20580 0.02500
H 	H 	0.37750 0.05830 0.30440 0.05100
H 	H 	0.41790 0.04100 0.58280 0.05800
H 	H 	0.60890 0.80840 0.29950 0.03200
H 	H 	0.51720 0.99280 0.19520 0.00500
H 	H 	0.22800 0.25600 0.70580 0.02500
H 	H 	0.12250 0.44170 0.80440 0.05200
H 	H 	0.08210 0.45900 0.08280 0.05700
H 	H 	0.89110 0.69160 0.79950 0.03200
H 	H 	0.98280 0.50720 0.69520 0.00400
C 	C 	0.74820 0.91350 0.75080 -0.08700
C 	C 	0.78080 0.85690 0.78020 -0.06000
C 	C 	0.70770 0.79310 0.77390 -0.00200
C 	C 	0.60440 0.78330 0.73770 -0.11300
C 	C 	0.57260 0.83970 0.70820 -0.04300
C 	C 	0.64420 0.90430 0.71500 -0.01100
C 	C 	0.81690 0.98510 0.76020 0.42200
C 	C 	0.90110 0.86240 0.81220 0.31100
C 	C 	0.53580 0.71220 0.72890 0.39500
C 	C 	0.45510 0.83420 0.67340 0.32900
C 	C 	0.62680 0.99850 0.49630 -0.03300
C 	C 	0.57800 0.02360 0.54650 -0.07400
C 	C 	0.54920 0.97540 0.45050 -0.00900
C 	C 	0.76110 0.99180 0.49020 0.29300
C 	C 	0.65840 0.05290 0.59580 0.35800
C 	C 	0.53680 0.10850 0.79110 -0.06500
C 	C 	0.50860 0.16410 0.75970 -0.08600
C 	C 	0.40830 0.15470 0.72200 -0.01100
C 	C 	0.33320 0.09110 0.71590 -0.02800
C 	C 	0.36110 0.03470 0.74710 -0.10500
C 	C 	0.46350 0.04440 0.78430 0.01900
C 	C 	0.65050 0.11180 0.82880 0.34900
C 	C 	0.57790 0.23580 0.76920 0.39400
C 	C 	0.21270 0.08580 0.68300 0.30200
C 	C 	0.29170 0.96360 0.73910 0.42300
C 	C 	0.75180 0.58650 0.25080 -0.08400
C 	C 	0.71920 0.64310 0.28020 -0.06200
C 	C 	0.79230 0.70690 0.27390 -0.00000
C 	C 	0.89560 0.71670 0.23770 -0.11500
C 	C 	0.92740 0.66030 0.20820 -0.04000
C 	C 	0.85580 0.59570 0.21500 -0.01300
C 	C 	0.68310 0.51490 0.26020 0.41600
C 	C 	0.59890 0.63760 0.31220 0.31200
C 	C 	0.96420 0.78780 0.22890 0.39900
C 	C 	0.04490 0.66580 0.17340 0.32700
C 	C 	0.87320 0.50150 0.99630 -0.03300
C 	C 	0.92200 0.47640 0.04650 -0.07400
C 	C 	0.95080 0.52460 0.95050 -0.00800
C 	C 	0.73890 0.50820 0.99020 0.28800
C 	C 	0.84160 0.44710 0.09580 0.35800
C 	C 	0.96320 0.39150 0.29110 -0.06600
C 	C 	0.99140 0.33590 0.25970 -0.08800
C 	C 	0.09170 0.34530 0.22200 -0.00900
C 	C 	0.16680 0.40890 0.21590 -0.02800
C 	C 	0.13890 0.46530 0.24710 -0.10900
C 	C 	0.03650 0.45560 0.28430 0.02200
C 	C 	0.84950 0.38820 0.32880 0.34900
C 	C 	0.92210 0.26420 0.26920 0.39500
C 	C 	0.28730 0.41420 0.18300 0.30200
C 	C 	0.20830 0.53640 0.23910 0.42600
C 	C 	0.25180 0.08650 0.24920 -0.08700
C 	C 	0.21920 0.14310 0.21980 -0.06000
C 	C 	0.29230 0.20690 0.22610 -0.00200
C 	C 	0.39560 0.21670 0.26230 -0.11300
C 	C 	0.42740 0.16030 0.29180 -0.04300
C 	C 	0.35580 0.09570 0.28500 -0.01100
C 	C 	0.18310 0.01490 0.23980 0.42200
C 	C 	0.09890 0.13760 0.18780 0.31100
C 	C 	0.46420 0.28780 0.27110 0.39500
C 	C 	0.54490 0.16580 0.32660 0.32900
C 	C 	0.37320 0.00150 0.50370 -0.03300
C 	C 	0.42200 0.97640 0.45350 -0.07400
C 	C 	0.45080 0.02460 0.54950 -0.00900
C 	C 	0.23890 0.00820 0.50980 0.29300
C 	C 	0.34160 0.94710 0.40420 0.35800
C 	C 	0.46320 0.89150 0.20890 -0.06500
C 	C 	0.49140 0.83590 0.24030 -0.08600
C 	C 	0.59170 0.84530 0.27800 -0.01100
C 	C 	0.66680 0.90890 0.28410 -0.02800
C 	C 	0.63890 0.96530 0.25290 -0.10500
C 	C 	0.53650 0.95560 0.21570 0.01900
C 	C 	0.34950 0.88820 0.17120 0.34900
C 	C 	0.42210 0.76420 0.23080 0.39400
C 	C 	0.78730 0.91420 0.31700 0.30200
C 	C 	0.70830 0.03640 0.26090 0.42300
C 	C 	0.24820 0.41350 0.74920 -0.08400
C 	C 	0.28080 0.35690 0.71980 -0.06200
C 	C 	0.20770 0.29310 0.72610 -0.00000
C 	C 	0.10440 0.28330 0.76230 -0.11500
C 	C 	0.07260 0.33970 0.79180 -0.04000
C 	C 	0.14420 0.40430 0.78500 -0.01300
C 	C 	0.31690 0.48510 0.73980 0.41600
C 	C 	0.40110 0.36240 0.68780 0.31200
C 	C 	0.03580 0.21220 0.77110 0.39900
C 	C 	0.95510 0.33420 0.82660 0.32700
C 	C 	0.12680 0.49850 0.00370 -0.03300
C 	C 	0.07800 0.52360 0.95350 -0.07400
C 	C 	0.04920 0.47540 0.04950 -0.00800
C 	C 	0.26110 0.49180 0.00980 0.28800
C 	C 	0.15840 0.55290 0.90420 0.35800
C 	C 	0.03680 0.60850 0.70890 -0.06600
C 	C 	0.00860 0.66410 0.74030 -0.08800
C 	C 	0.90830 0.65470 0.77800 -0.00900
C 	C 	0.83320 0.59110 0.78410 -0.02800
C 	C 	0.86110 0.53470 0.75290 -0.10900
C 	C 	0.96350 0.54440 0.71570 0.02200
C 	C 	0.15050 0.61180 0.67120 0.34900
C 	C 	0.07790 0.73580 0.73080 0.39500
C 	C 	0.71270 0.58580 0.81700 0.30200
C 	C 	0.79170 0.46360 0.76090 0.42600
O 	O 	0.85380 0.02087 0.71738 -0.54400
O 	O 	0.82750 0.00496 0.81243 -0.45500
O 	O 	0.99450 0.90131 0.79128 -0.45400
O 	O 	0.90910 0.82610 0.85591 -0.49500
O 	O 	0.52710 0.67187 0.77101 -0.58000
O 	O 	0.49430 0.69592 0.67878 -0.43400
O 	O 	0.35610 0.81994 0.70242 -0.40200
O 	O 	0.46220 0.84820 0.62111 -0.28000
O 	O 	0.83000 0.03770 0.46051 -0.29900
O 	O 	0.79800 0.94110 0.51187 -0.28000
O 	O 	0.77410 0.05900 0.59020 -0.53600
O 	O 	0.60520 0.07040 0.63940 -0.31900
O 	O 	0.75270 0.13188 0.80397 -0.40300
O 	O 	0.63860 0.09160 0.87930 -0.33900
O 	O 	0.61440 0.25179 0.82004 -0.42800
O 	O 	0.59060 0.27667 0.72767 -0.57600
O 	O 	0.20490 0.12140 0.63868 -0.44300
O 	O 	0.11870 0.04757 0.70447 -0.43200
O 	O 	0.26020 0.92823 0.78346 -0.59600
O 	O 	0.27540 0.94280 0.68756 -0.41900
O 	O 	0.64620 0.47913 0.21738 -0.54000
O 	O 	0.67250 0.49504 0.31243 -0.45100
O 	O 	0.50550 0.59869 0.29128 -0.45600
O 	O 	0.59090 0.67390 0.35591 -0.49600
O 	O 	0.97290 0.82813 0.27101 -0.57900
O 	O 	0.00570 0.80408 0.17878 -0.43700
O 	O 	0.14390 0.68006 0.20242 -0.40200
O 	O 	0.03780 0.65180 0.12111 -0.28000
O 	O 	0.67000 0.46230 0.96051 -0.29500
O 	O 	0.70200 0.55890 0.01187 -0.28000
O 	O 	0.72590 0.44100 0.09020 -0.53500
O 	O 	0.89480 0.42960 0.13940 -0.31900
O 	O 	0.74730 0.36812 0.30397 -0.40200
O 	O 	0.86140 0.40840 0.37930 -0.33900
O 	O 	0.88560 0.24821 0.32004 -0.42800
O 	O 	0.90940 0.22333 0.22767 -0.57700
O 	O 	0.29510 0.37860 0.13868 -0.44400
O 	O 	0.38130 0.45243 0.20447 -0.43500
O 	O 	0.23980 0.57177 0.28346 -0.59500
O 	O 	0.22460 0.55720 0.18756 -0.41900
O 	O 	0.14620 0.97913 0.28262 -0.54400
O 	O 	0.17250 0.99504 0.18757 -0.45500
O 	O 	0.00550 0.09869 0.20872 -0.45400
O 	O 	0.09090 0.17390 0.14409 -0.49500
O 	O 	0.47290 0.32813 0.22899 -0.58000
O 	O 	0.50570 0.30408 0.32122 -0.43400
O 	O 	0.64390 0.18006 0.29758 -0.40200
O 	O 	0.53780 0.15180 0.37889 -0.28000
O 	O 	0.17000 0.96230 0.53949 -0.29900
O 	O 	0.20200 0.05890 0.48813 -0.28000
O 	O 	0.22590 0.94100 0.40980 -0.53600
O 	O 	0.39480 0.92960 0.36060 -0.31900
O 	O 	0.24730 0.86812 0.19603 -0.40300
O 	O 	0.36140 0.90840 0.12070 -0.33900
O 	O 	0.38560 0.74821 0.17996 -0.42800
O 	O 	0.40940 0.72333 0.27233 -0.57600
O 	O 	0.79510 0.87860 0.36132 -0.44300
O 	O 	0.88130 0.95243 0.29553 -0.43200
O 	O 	0.73980 0.07177 0.21654 -0.59600
O 	O 	0.72460 0.05720 0.31244 -0.41900
O 	O 	0.35380 0.52087 0.78262 -0.54000
O 	O 	0.32750 0.50496 0.68757 -0.45100
O 	O 	0.49450 0.40131 0.70872 -0.45600
O 	O 	0.40910 0.32610 0.64409 -0.49600
O 	O 	0.02710 0.17187 0.72899 -0.57900
O 	O 	0.99430 0.19592 0.82122 -0.43700
O 	O 	0.85610 0.31994 0.79758 -0.40200
O 	O 	0.96220 0.34820 0.87889 -0.28000
O 	O 	0.33000 0.53770 0.03949 -0.29500
O 	O 	0.29800 0.44110 0.98813 -0.28000
O 	O 	0.27410 0.55900 0.90980 -0.53500
O 	O 	0.10520 0.57040 0.86060 -0.31900
O 	O 	0.25270 0.63188 0.69603 -0.40200
O 	O 	0.13860 0.59160 0.62070 -0.33900
O 	O 	0.11440 0.75179 0.67996 -0.42800
O 	O 	0.09060 0.77667 0.77233 -0.57700
O 	O 	0.70490 0.62140 0.86132 -0.44400
O 	O 	0.61870 0.54757 0.79553 -0.43500
O 	O 	0.76020 0.42823 0.71654 -0.59500
O 	O 	0.77540 0.44280 0.81244 -0.41900
