data_crystal

_cell_length_a 10.90600
_cell_length_b 19.76900
_cell_length_c 20.21200
_cell_angle_alpha 90.00000
_cell_angle_beta  90.00000
_cell_angle_gamma 99.22000

_symmetry_space_group_name_	'P 1'
_symmetry_space_group_name_H-M	'P 1'

loop_
_symmetry_equiv_pos_as_xyz
  x,y,z

loop_
_atom_site_label
_atom_site_type_symbol
_atom_site_fract_x
_atom_site_fract_y
_atom_site_fract_z
_atom_site_charge
Pr	Pr	0.46760 0.65494 0.87369 1.98700
Pr	Pr	0.66696 0.41720 0.62394 1.92000
Pr	Pr	0.03240 0.84506 0.37369 1.98500
Pr	Pr	0.83304 0.08280 0.12394 1.91900
Pr	Pr	0.53240 0.34506 0.12631 1.98700
Pr	Pr	0.33304 0.58280 0.37606 1.92000
Pr	Pr	0.96760 0.15494 0.62631 1.98600
Pr	Pr	0.16696 0.91720 0.87606 1.92000
Cu	Cu	0.42798 0.66828 0.67265 0.87300
Cu	Cu	0.71154 0.41093 0.82535 0.91700
Cu	Cu	0.07202 0.83172 0.17265 0.87100
Cu	Cu	0.78846 0.08907 0.32535 0.91600
Cu	Cu	0.57202 0.33172 0.32735 0.87300
Cu	Cu	0.28846 0.58907 0.17465 0.91700
Cu	Cu	0.92798 0.16828 0.82735 0.87100
Cu	Cu	0.21154 0.91093 0.67465 0.91600
H 	H 	0.23830 0.32350 0.68060 0.02500
H 	H 	0.13600 0.50480 0.80390 0.04600
H 	H 	0.08260 0.43430 0.07820 0.06100
H 	H 	0.90080 0.75290 0.81190 0.03500
H 	H 	0.99330 0.57280 0.68450 0.00100
H 	H 	0.26170 0.17650 0.18060 0.02400
H 	H 	0.36400 0.99520 0.30390 0.04500
H 	H 	0.41740 0.06570 0.57820 0.06100
H 	H 	0.59920 0.74710 0.31190 0.03600
H 	H 	0.50670 0.92720 0.18450 0.00100
H 	H 	0.76170 0.67650 0.31940 0.02500
H 	H 	0.86400 0.49520 0.19610 0.04600
H 	H 	0.91740 0.56570 0.92180 0.06100
H 	H 	0.09920 0.24710 0.18810 0.03500
H 	H 	0.00670 0.42720 0.31550 0.00100
H 	H 	0.73830 0.82350 0.81940 0.02400
H 	H 	0.63600 0.00480 0.69610 0.04500
H 	H 	0.58260 0.93430 0.42180 0.06100
H 	H 	0.40080 0.25290 0.68810 0.03600
H 	H 	0.49330 0.07280 0.81550 0.00100
C 	C 	0.26180 0.47850 0.73900 -0.08200
C 	C 	0.29380 0.42360 0.70280 -0.06500
C 	C 	0.21960 0.35930 0.70650 -0.00100
C 	C 	0.11790 0.34860 0.74880 -0.11700
C 	C 	0.08590 0.40310 0.78560 -0.03600
C 	C 	0.15770 0.46820 0.78010 -0.01500
C 	C 	0.33210 0.55000 0.73170 0.40100
C 	C 	0.41600 0.42840 0.66710 0.30700
C 	C 	0.05150 0.27730 0.75880 0.39900
C 	C 	0.97010 0.39410 0.82780 0.31900
C 	C 	0.12640 0.51290 0.01390 -0.03300
C 	C 	0.07760 0.55220 0.96600 -0.05100
C 	C 	0.04900 0.46070 0.04700 0.00200
C 	C 	0.26170 0.52490 0.03200 0.31400
C 	C 	0.15980 0.60580 0.92590 0.35100
C 	C 	0.05060 0.67350 0.70570 -0.06700
C 	C 	0.02080 0.72820 0.74300 -0.08300
C 	C 	0.91840 0.71700 0.78570 -0.00500
C 	C 	0.84290 0.65380 0.78970 -0.03100
C 	C 	0.87270 0.59920 0.75160 -0.10400
C 	C 	0.97480 0.60910 0.70990 0.01500
C 	C 	0.09040 0.79930 0.73480 0.37400
C 	C 	0.72320 0.64630 0.82840 0.30600
C 	C 	0.80430 0.52720 0.75840 0.41300
C 	C 	0.16820 0.67690 0.66480 0.34500
C 	C 	0.23820 0.02150 0.23900 -0.07900
C 	C 	0.20620 0.07640 0.20280 -0.06800
C 	C 	0.28040 0.14070 0.20650 -0.00000
C 	C 	0.38210 0.15140 0.24880 -0.11700
C 	C 	0.41410 0.09690 0.28560 -0.03800
C 	C 	0.34230 0.03180 0.28010 -0.01300
C 	C 	0.16790 0.95000 0.23170 0.39800
C 	C 	0.08400 0.07160 0.16710 0.31500
C 	C 	0.44850 0.22270 0.25880 0.39900
C 	C 	0.52990 0.10590 0.32780 0.32100
C 	C 	0.37360 0.98710 0.51390 -0.03200
C 	C 	0.42240 0.94780 0.46600 -0.05200
C 	C 	0.45100 0.03930 0.54700 0.00400
C 	C 	0.23830 0.97510 0.53200 0.30800
C 	C 	0.34020 0.89420 0.42590 0.35200
C 	C 	0.44940 0.82650 0.20570 -0.06700
C 	C 	0.47920 0.77180 0.24300 -0.07900
C 	C 	0.58160 0.78300 0.28570 -0.01000
C 	C 	0.65710 0.84620 0.28970 -0.02900
C 	C 	0.62730 0.90080 0.25160 -0.10600
C 	C 	0.52520 0.89090 0.20990 0.01500
C 	C 	0.40960 0.70070 0.23480 0.37300
C 	C 	0.77680 0.85370 0.32840 0.30500
C 	C 	0.69570 0.97280 0.25840 0.41800
C 	C 	0.33180 0.82310 0.16480 0.34500
C 	C 	0.73820 0.52150 0.26100 -0.08200
C 	C 	0.70620 0.57640 0.29720 -0.06500
C 	C 	0.78040 0.64070 0.29350 -0.00100
C 	C 	0.88210 0.65140 0.25120 -0.11700
C 	C 	0.91410 0.59690 0.21440 -0.03600
C 	C 	0.84230 0.53180 0.21990 -0.01500
C 	C 	0.66790 0.45000 0.26830 0.40100
C 	C 	0.58400 0.57160 0.33290 0.30700
C 	C 	0.94850 0.72270 0.24120 0.39900
C 	C 	0.02990 0.60590 0.17220 0.31900
C 	C 	0.87360 0.48710 0.98610 -0.03300
C 	C 	0.92240 0.44780 0.03400 -0.05100
C 	C 	0.95100 0.53930 0.95300 0.00200
C 	C 	0.73830 0.47510 0.96800 0.31400
C 	C 	0.84020 0.39420 0.07410 0.35100
C 	C 	0.94940 0.32650 0.29430 -0.06700
C 	C 	0.97920 0.27180 0.25700 -0.08300
C 	C 	0.08160 0.28300 0.21430 -0.00500
C 	C 	0.15710 0.34620 0.21030 -0.03100
C 	C 	0.12730 0.40080 0.24840 -0.10400
C 	C 	0.02520 0.39090 0.29010 0.01500
C 	C 	0.90960 0.20070 0.26520 0.37400
C 	C 	0.27680 0.35370 0.17160 0.30600
C 	C 	0.19570 0.47280 0.24160 0.41300
C 	C 	0.83180 0.32310 0.33520 0.34500
C 	C 	0.76180 0.97850 0.76100 -0.07900
C 	C 	0.79380 0.92360 0.79720 -0.06800
C 	C 	0.71960 0.85930 0.79350 -0.00000
C 	C 	0.61790 0.84860 0.75120 -0.11700
C 	C 	0.58590 0.90310 0.71440 -0.03800
C 	C 	0.65770 0.96820 0.71990 -0.01300
C 	C 	0.83210 0.05000 0.76830 0.39800
C 	C 	0.91600 0.92840 0.83290 0.31500
C 	C 	0.55150 0.77730 0.74120 0.39900
C 	C 	0.47010 0.89410 0.67220 0.32100
C 	C 	0.62640 0.01290 0.48610 -0.03200
C 	C 	0.57760 0.05220 0.53400 -0.05200
C 	C 	0.54900 0.96070 0.45300 0.00400
C 	C 	0.76170 0.02490 0.46800 0.30800
C 	C 	0.65980 0.10580 0.57410 0.35200
C 	C 	0.55060 0.17350 0.79430 -0.06700
C 	C 	0.52080 0.22820 0.75700 -0.07900
C 	C 	0.41840 0.21700 0.71430 -0.01000
C 	C 	0.34290 0.15380 0.71030 -0.02900
C 	C 	0.37270 0.09920 0.74840 -0.10600
C 	C 	0.47480 0.10910 0.79010 0.01500
C 	C 	0.59040 0.29930 0.76520 0.37300
C 	C 	0.22320 0.14630 0.67160 0.30500
C 	C 	0.30430 0.02720 0.74160 0.41800
C 	C 	0.66820 0.17690 0.83520 0.34500
O 	O 	0.36640 0.58411 0.78272 -0.52700
O 	O 	0.34650 0.57271 0.67311 -0.45800
O 	O 	0.50880 0.46642 0.69207 -0.46500
O 	O 	0.42630 0.39210 0.61708 -0.50700
O 	O 	0.04450 0.23568 0.71191 -0.57500
O 	O 	0.00910 0.26273 0.81599 -0.43000
O 	O 	0.86900 0.38559 0.79349 -0.39400
O 	O 	0.97610 0.39790 0.88818 -0.26000
O 	O 	0.30650 0.57587 0.06637 -0.36100
O 	O 	0.32390 0.47975 0.01214 -0.28800
O 	O 	0.27540 0.60354 0.92554 -0.52400
O 	O 	0.10880 0.64840 0.89420 -0.32400
O 	O 	0.26850 0.69679 0.69662 -0.39900
O 	O 	0.16120 0.65640 0.60700 -0.36300
O 	O 	0.13240 0.81545 0.67725 -0.40800
O 	O 	0.09880 0.83972 0.78310 -0.55800
O 	O 	0.71490 0.67880 0.88107 -0.43900
O 	O 	0.62920 0.60929 0.80260 -0.43500
O 	O 	0.77580 0.49243 0.70695 -0.59200
O 	O 	0.78710 0.50590 0.81714 -0.41100
O 	O 	0.13360 0.91589 0.28272 -0.52800
O 	O 	0.15350 0.92729 0.17311 -0.45900
O 	O 	0.99120 0.03358 0.19207 -0.47200
O 	O 	0.07370 0.10790 0.11708 -0.50800
O 	O 	0.45550 0.26432 0.21191 -0.57700
O 	O 	0.49090 0.23727 0.31599 -0.43300
O 	O 	0.63100 0.11441 0.29349 -0.39500
O 	O 	0.52390 0.10210 0.38818 -0.26000
O 	O 	0.19350 0.92413 0.56637 -0.36100
O 	O 	0.17610 0.02025 0.51214 -0.28300
O 	O 	0.22460 0.89646 0.42554 -0.52500
O 	O 	0.39120 0.85160 0.39420 -0.32400
O 	O 	0.23150 0.80321 0.19662 -0.40000
O 	O 	0.33880 0.84360 0.10700 -0.36300
O 	O 	0.36760 0.68455 0.17725 -0.40700
O 	O 	0.40120 0.66028 0.28310 -0.55600
O 	O 	0.78510 0.82120 0.38107 -0.43700
O 	O 	0.87080 0.89071 0.30260 -0.43200
O 	O 	0.72420 0.00757 0.20695 -0.59500
O 	O 	0.71290 0.99410 0.31714 -0.41000
O 	O 	0.63360 0.41589 0.21728 -0.52700
O 	O 	0.65350 0.42729 0.32689 -0.45800
O 	O 	0.49120 0.53358 0.30793 -0.46500
O 	O 	0.57370 0.60790 0.38292 -0.50700
O 	O 	0.95550 0.76432 0.28809 -0.57500
O 	O 	0.99090 0.73727 0.18401 -0.43000
O 	O 	0.13100 0.61441 0.20651 -0.39400
O 	O 	0.02390 0.60210 0.11182 -0.26000
O 	O 	0.69350 0.42413 0.93363 -0.36100
O 	O 	0.67610 0.52025 0.98786 -0.28800
O 	O 	0.72460 0.39646 0.07446 -0.52400
O 	O 	0.89120 0.35160 0.10580 -0.32400
O 	O 	0.73150 0.30321 0.30338 -0.39900
O 	O 	0.83880 0.34360 0.39300 -0.36300
O 	O 	0.86760 0.18455 0.32275 -0.40800
O 	O 	0.90120 0.16028 0.21690 -0.55800
O 	O 	0.28510 0.32120 0.11893 -0.43900
O 	O 	0.37080 0.39071 0.19740 -0.43500
O 	O 	0.22420 0.50757 0.29305 -0.59200
O 	O 	0.21290 0.49410 0.18286 -0.41100
O 	O 	0.86640 0.08411 0.71728 -0.52800
O 	O 	0.84650 0.07271 0.82689 -0.45900
O 	O 	0.00880 0.96642 0.80793 -0.47200
O 	O 	0.92630 0.89210 0.88292 -0.50800
O 	O 	0.54450 0.73568 0.78809 -0.57700
O 	O 	0.50910 0.76273 0.68401 -0.43300
O 	O 	0.36900 0.88559 0.70651 -0.39500
O 	O 	0.47610 0.89790 0.61182 -0.26000
O 	O 	0.80650 0.07587 0.43363 -0.36100
O 	O 	0.82390 0.97975 0.48786 -0.28300
O 	O 	0.77540 0.10354 0.57446 -0.52500
O 	O 	0.60880 0.14840 0.60580 -0.32400
O 	O 	0.76850 0.19679 0.80338 -0.40000
O 	O 	0.66120 0.15640 0.89300 -0.36300
O 	O 	0.63240 0.31545 0.82275 -0.40700
O 	O 	0.59880 0.33972 0.71690 -0.55600
O 	O 	0.21490 0.17880 0.61893 -0.43700
O 	O 	0.12920 0.10929 0.69740 -0.43200
O 	O 	0.27580 0.99243 0.79305 -0.59500
O 	O 	0.28710 0.00590 0.68286 -0.41000
