data_crystal

_cell_length_a 10.92000
_cell_length_b 19.79200
_cell_length_c 20.36900
_cell_angle_alpha 90.00000
_cell_angle_beta  90.00000
_cell_angle_gamma 99.59000

_symmetry_space_group_name_	'P 1'
_symmetry_space_group_name_H-M	'P 1'

loop_
_symmetry_equiv_pos_as_xyz
  x,y,z

loop_
_atom_site_label
_atom_site_type_symbol
_atom_site_fract_x
_atom_site_fract_y
_atom_site_fract_z
_atom_site_charge
Pr	Pr	0.46276 0.65484 0.87247 1.99100
Pr	Pr	0.66062 0.41876 0.62635 1.92000
Pr	Pr	0.03724 0.84516 0.37247 1.98900
Pr	Pr	0.83938 0.08124 0.12635 1.92000
Pr	Pr	0.53724 0.34516 0.12753 1.99100
Pr	Pr	0.33938 0.58124 0.37365 1.92000
Pr	Pr	0.96276 0.15484 0.62753 1.98900
Pr	Pr	0.16062 0.91876 0.87365 1.92000
Cu	Cu	0.42145 0.66975 0.67338 0.87400
Cu	Cu	0.70493 0.41089 0.82690 0.91500
Cu	Cu	0.07855 0.83025 0.17338 0.87300
Cu	Cu	0.79507 0.08911 0.32690 0.91500
Cu	Cu	0.57855 0.33025 0.32662 0.87500
Cu	Cu	0.29507 0.58911 0.17310 0.91600
Cu	Cu	0.92145 0.16975 0.82662 0.87300
Cu	Cu	0.20493 0.91089 0.67310 0.91500
H 	H 	0.23240 0.32540 0.68150 0.02500
H 	H 	0.13120 0.50590 0.80360 0.04300
H 	H 	0.08280 0.43530 0.07770 0.06100
H 	H 	0.89360 0.75390 0.81140 0.03300
H 	H 	0.98870 0.57330 0.68770 -0.00100
H 	H 	0.26760 0.17460 0.18150 0.02400
H 	H 	0.36880 0.99410 0.30360 0.04200
H 	H 	0.41720 0.06470 0.57770 0.06000
H 	H 	0.60640 0.74610 0.31140 0.03400
H 	H 	0.51130 0.92670 0.18770 -0.00100
H 	H 	0.76760 0.67460 0.31850 0.02500
H 	H 	0.86880 0.49410 0.19640 0.04300
H 	H 	0.91720 0.56470 0.92230 0.06100
H 	H 	0.10640 0.24610 0.18860 0.03300
H 	H 	0.01130 0.42670 0.31230 -0.00100
H 	H 	0.73240 0.82540 0.81850 0.02400
H 	H 	0.63120 0.00590 0.69640 0.04200
H 	H 	0.58280 0.93530 0.42230 0.06000
H 	H 	0.39360 0.25390 0.68860 0.03400
H 	H 	0.48870 0.07330 0.81230 -0.00100
C 	C 	0.25590 0.48002 0.73933 -0.09200
C 	C 	0.28790 0.42505 0.70335 -0.06200
C 	C 	0.21390 0.36119 0.70712 -0.00200
C 	C 	0.11180 0.35026 0.74914 -0.11500
C 	C 	0.07980 0.40463 0.78532 -0.04100
C 	C 	0.15240 0.46946 0.77980 -0.00700
C 	C 	0.32660 0.55121 0.73213 0.41600
C 	C 	0.41040 0.43049 0.66870 0.30500
C 	C 	0.04450 0.27885 0.75860 0.40500
C 	C 	0.96560 0.39507 0.82831 0.32800
C 	C 	0.12700 0.51262 0.01263 -0.03100
C 	C 	0.07730 0.55110 0.96576 -0.05500
C 	C 	0.04940 0.46142 0.04653 0.00300
C 	C 	0.26220 0.52339 0.03017 0.30900
C 	C 	0.15760 0.60420 0.92530 0.35600
C 	C 	0.04420 0.67387 0.70737 -0.07200
C 	C 	0.01450 0.72886 0.74385 -0.08500
C 	C 	0.91210 0.71790 0.78600 -0.00600
C 	C 	0.83740 0.65409 0.79044 -0.03000
C 	C 	0.86710 0.59955 0.75304 -0.11100
C 	C 	0.96940 0.60974 0.71225 0.02200
C 	C 	0.08350 0.79996 0.73419 0.38400
C 	C 	0.71650 0.64676 0.82807 0.31400
C 	C 	0.79820 0.52756 0.76004 0.42700
C 	C 	0.15990 0.67771 0.66653 0.35100
C 	C 	0.24410 0.01998 0.23933 -0.08800
C 	C 	0.21210 0.07495 0.20335 -0.06400
C 	C 	0.28610 0.13881 0.20712 -0.00100
C 	C 	0.38820 0.14974 0.24914 -0.11500
C 	C 	0.42020 0.09537 0.28532 -0.04400
C 	C 	0.34760 0.03054 0.27980 -0.00500
C 	C 	0.17340 0.94879 0.23213 0.41300
C 	C 	0.08960 0.06951 0.16870 0.31300
C 	C 	0.45550 0.22115 0.25860 0.40500
C 	C 	0.53440 0.10493 0.32831 0.33100
C 	C 	0.37300 0.98738 0.51263 -0.03000
C 	C 	0.42270 0.94890 0.46576 -0.05700
C 	C 	0.45060 0.03858 0.54653 0.00500
C 	C 	0.23780 0.97661 0.53017 0.30400
C 	C 	0.34240 0.89580 0.42530 0.35600
C 	C 	0.45580 0.82613 0.20737 -0.07200
C 	C 	0.48550 0.77114 0.24385 -0.08200
C 	C 	0.58790 0.78210 0.28600 -0.01000
C 	C 	0.66260 0.84591 0.29044 -0.02800
C 	C 	0.63290 0.90045 0.25304 -0.11200
C 	C 	0.53060 0.89026 0.21225 0.02200
C 	C 	0.41650 0.70004 0.23419 0.38300
C 	C 	0.78350 0.85324 0.32807 0.31200
C 	C 	0.70180 0.97244 0.26004 0.43200
C 	C 	0.34010 0.82229 0.16653 0.35200
C 	C 	0.74410 0.51998 0.26067 -0.09200
C 	C 	0.71210 0.57495 0.29665 -0.06200
C 	C 	0.78610 0.63881 0.29288 -0.00200
C 	C 	0.88820 0.64974 0.25086 -0.11500
C 	C 	0.92020 0.59537 0.21468 -0.04100
C 	C 	0.84760 0.53054 0.22020 -0.00700
C 	C 	0.67340 0.44879 0.26787 0.41600
C 	C 	0.58960 0.56951 0.33130 0.30500
C 	C 	0.95550 0.72115 0.24140 0.40500
C 	C 	0.03440 0.60493 0.17169 0.32800
C 	C 	0.87300 0.48738 0.98737 -0.03100
C 	C 	0.92270 0.44890 0.03424 -0.05500
C 	C 	0.95060 0.53858 0.95347 0.00300
C 	C 	0.73780 0.47661 0.96983 0.30900
C 	C 	0.84240 0.39580 0.07470 0.35600
C 	C 	0.95580 0.32613 0.29263 -0.07200
C 	C 	0.98550 0.27114 0.25615 -0.08500
C 	C 	0.08790 0.28210 0.21400 -0.00600
C 	C 	0.16260 0.34591 0.20956 -0.03000
C 	C 	0.13290 0.40045 0.24696 -0.11100
C 	C 	0.03060 0.39026 0.28775 0.02200
C 	C 	0.91650 0.20004 0.26581 0.38400
C 	C 	0.28350 0.35324 0.17193 0.31400
C 	C 	0.20180 0.47244 0.23996 0.42700
C 	C 	0.84010 0.32229 0.33347 0.35100
C 	C 	0.75590 0.98002 0.76067 -0.08800
C 	C 	0.78790 0.92505 0.79665 -0.06400
C 	C 	0.71390 0.86119 0.79288 -0.00100
C 	C 	0.61180 0.85026 0.75086 -0.11500
C 	C 	0.57980 0.90463 0.71468 -0.04400
C 	C 	0.65240 0.96946 0.72020 -0.00500
C 	C 	0.82660 0.05121 0.76787 0.41300
C 	C 	0.91040 0.93049 0.83130 0.31300
C 	C 	0.54450 0.77885 0.74140 0.40500
C 	C 	0.46560 0.89507 0.67169 0.33100
C 	C 	0.62700 0.01262 0.48737 -0.03000
C 	C 	0.57730 0.05110 0.53424 -0.05700
C 	C 	0.54940 0.96142 0.45347 0.00500
C 	C 	0.76220 0.02339 0.46983 0.30400
C 	C 	0.65760 0.10420 0.57470 0.35600
C 	C 	0.54420 0.17387 0.79263 -0.07200
C 	C 	0.51450 0.22886 0.75615 -0.08200
C 	C 	0.41210 0.21790 0.71400 -0.01000
C 	C 	0.33740 0.15409 0.70956 -0.02800
C 	C 	0.36710 0.09955 0.74696 -0.11200
C 	C 	0.46940 0.10974 0.78775 0.02200
C 	C 	0.58350 0.29996 0.76581 0.38300
C 	C 	0.21650 0.14676 0.67193 0.31200
C 	C 	0.29820 0.02756 0.73996 0.43200
C 	C 	0.65990 0.17771 0.83347 0.35200
O 	O 	0.36070 0.58560 0.78210 -0.53600
O 	O 	0.34300 0.57359 0.67417 -0.46300
O 	O 	0.50320 0.46838 0.69414 -0.46100
O 	O 	0.42110 0.39481 0.61869 -0.51100
O 	O 	0.03800 0.23777 0.71161 -0.57400
O 	O 	0.00190 0.26385 0.81471 -0.43600
O 	O 	0.86380 0.38669 0.79559 -0.39500
O 	O 	0.97550 0.39822 0.88780 -0.26400
O 	O 	0.30830 0.57480 0.06429 -0.35500
O 	O 	0.32360 0.47831 0.01061 -0.28500
O 	O 	0.27380 0.60360 0.92495 -0.52900
O 	O 	0.10700 0.64570 0.89270 -0.32500
O 	O 	0.26080 0.69632 0.69737 -0.40200
O 	O 	0.15140 0.65907 0.60862 -0.35900
O 	O 	0.12540 0.81496 0.67749 -0.41300
O 	O 	0.09240 0.84136 0.78115 -0.56100
O 	O 	0.70780 0.67760 0.88029 -0.44900
O 	O 	0.62280 0.61105 0.80050 -0.43800
O 	O 	0.77070 0.49272 0.70909 -0.59600
O 	O 	0.77820 0.50650 0.81769 -0.41800
O 	O 	0.13930 0.91440 0.28210 -0.53700
O 	O 	0.15700 0.92641 0.17417 -0.46400
O 	O 	0.99680 0.03162 0.19414 -0.46700
O 	O 	0.07890 0.10519 0.11869 -0.51100
O 	O 	0.46200 0.26223 0.21161 -0.57600
O 	O 	0.49810 0.23615 0.31471 -0.43900
O 	O 	0.63620 0.11331 0.29559 -0.39600
O 	O 	0.52450 0.10178 0.38780 -0.26400
O 	O 	0.19170 0.92520 0.56429 -0.35600
O 	O 	0.17640 0.02169 0.51061 -0.28000
O 	O 	0.22620 0.89640 0.42495 -0.53100
O 	O 	0.39300 0.85430 0.39270 -0.32500
O 	O 	0.23920 0.80368 0.19737 -0.40300
O 	O 	0.34860 0.84093 0.10862 -0.35900
O 	O 	0.37460 0.68504 0.17749 -0.41200
O 	O 	0.40760 0.65864 0.28115 -0.56000
O 	O 	0.79220 0.82240 0.38029 -0.44800
O 	O 	0.87720 0.88895 0.30050 -0.43500
O 	O 	0.72930 0.00728 0.20909 -0.59900
O 	O 	0.72180 0.99350 0.31769 -0.41700
O 	O 	0.63930 0.41440 0.21790 -0.53600
O 	O 	0.65700 0.42641 0.32583 -0.46300
O 	O 	0.49680 0.53162 0.30586 -0.46100
O 	O 	0.57890 0.60519 0.38131 -0.51100
O 	O 	0.96200 0.76223 0.28839 -0.57400
O 	O 	0.99810 0.73615 0.18529 -0.43600
O 	O 	0.13620 0.61331 0.20441 -0.39500
O 	O 	0.02450 0.60178 0.11220 -0.26400
O 	O 	0.69170 0.42520 0.93571 -0.35500
O 	O 	0.67640 0.52169 0.98939 -0.28500
O 	O 	0.72620 0.39640 0.07505 -0.52900
O 	O 	0.89300 0.35430 0.10730 -0.32500
O 	O 	0.73920 0.30368 0.30263 -0.40200
O 	O 	0.84860 0.34093 0.39138 -0.35900
O 	O 	0.87460 0.18504 0.32251 -0.41300
O 	O 	0.90760 0.15864 0.21885 -0.56100
O 	O 	0.29220 0.32240 0.11971 -0.44900
O 	O 	0.37720 0.38895 0.19950 -0.43800
O 	O 	0.22930 0.50728 0.29091 -0.59600
O 	O 	0.22180 0.49350 0.18231 -0.41800
O 	O 	0.86070 0.08560 0.71790 -0.53700
O 	O 	0.84300 0.07359 0.82583 -0.46400
O 	O 	0.00320 0.96838 0.80586 -0.46700
O 	O 	0.92110 0.89481 0.88131 -0.51100
O 	O 	0.53800 0.73777 0.78839 -0.57600
O 	O 	0.50190 0.76385 0.68529 -0.43900
O 	O 	0.36380 0.88669 0.70441 -0.39600
O 	O 	0.47550 0.89822 0.61220 -0.26400
O 	O 	0.80830 0.07480 0.43571 -0.35600
O 	O 	0.82360 0.97831 0.48939 -0.28000
O 	O 	0.77380 0.10360 0.57505 -0.53100
O 	O 	0.60700 0.14570 0.60730 -0.32500
O 	O 	0.76080 0.19632 0.80263 -0.40300
O 	O 	0.65140 0.15907 0.89138 -0.35900
O 	O 	0.62540 0.31496 0.82251 -0.41200
O 	O 	0.59240 0.34136 0.71885 -0.56000
O 	O 	0.20780 0.17760 0.61971 -0.44800
O 	O 	0.12280 0.11105 0.69950 -0.43500
O 	O 	0.27070 0.99272 0.79091 -0.59900
O 	O 	0.27820 0.00650 0.68231 -0.41700
