data_crystal

_cell_length_a 16.66070
_cell_length_b 16.66070
_cell_length_c 16.66070
_cell_angle_alpha 90.00000
_cell_angle_beta  90.00000
_cell_angle_gamma 90.00000

_symmetry_space_group_name_	'P 1'
_symmetry_space_group_name_H-M	'P 1'

loop_
_symmetry_equiv_pos_as_xyz
  x,y,z

loop_
_atom_site_label
_atom_site_type_symbol
_atom_site_fract_x
_atom_site_fract_y
_atom_site_fract_z
_atom_site_charge
O 	O 	0.09070 0.51867 0.80522 -0.37900
O 	O 	0.59070 0.01867 0.30522 -0.44800
O 	O 	0.90930 0.48133 0.80522 -0.17900
O 	O 	0.40930 0.98133 0.30522 -0.16200
O 	O 	0.90930 0.51867 0.19478 -0.21000
O 	O 	0.40930 0.01867 0.69478 -0.43900
O 	O 	0.09070 0.48133 0.19478 -0.41100
O 	O 	0.59070 0.98133 0.69478 -0.13000
O 	O 	0.80522 0.09070 0.51867 -0.37800
O 	O 	0.30522 0.59070 0.01867 -0.44700
O 	O 	0.80522 0.90930 0.48133 -0.17800
O 	O 	0.30522 0.40930 0.98133 -0.16100
O 	O 	0.19478 0.90930 0.51867 -0.20900
O 	O 	0.69478 0.40930 0.01867 -0.43800
O 	O 	0.19478 0.09070 0.48133 -0.41100
O 	O 	0.69478 0.59070 0.98133 -0.13000
O 	O 	0.51867 0.80522 0.09070 -0.37800
O 	O 	0.01867 0.30522 0.59070 -0.44700
O 	O 	0.48133 0.80522 0.90930 -0.17800
O 	O 	0.98133 0.30522 0.40930 -0.16100
O 	O 	0.51867 0.19478 0.90930 -0.20900
O 	O 	0.01867 0.69478 0.40930 -0.43800
O 	O 	0.48133 0.19478 0.09070 -0.41100
O 	O 	0.98133 0.69478 0.59070 -0.13000
O 	O 	0.51867 0.09070 0.80522 -0.37800
O 	O 	0.01867 0.59070 0.30522 -0.44700
O 	O 	0.48133 0.90930 0.80522 -0.17800
O 	O 	0.98133 0.40930 0.30522 -0.16100
O 	O 	0.51867 0.90930 0.19478 -0.20900
O 	O 	0.01867 0.40930 0.69478 -0.43800
O 	O 	0.48133 0.09070 0.19478 -0.41100
O 	O 	0.98133 0.59070 0.69478 -0.13000
O 	O 	0.09070 0.80522 0.51867 -0.37800
O 	O 	0.59070 0.30522 0.01867 -0.44700
O 	O 	0.90930 0.80522 0.48133 -0.17800
O 	O 	0.40930 0.30522 0.98133 -0.16100
O 	O 	0.90930 0.19478 0.51867 -0.20900
O 	O 	0.40930 0.69478 0.01867 -0.43800
O 	O 	0.09070 0.19478 0.48133 -0.41100
O 	O 	0.59070 0.69478 0.98133 -0.13000
O 	O 	0.80522 0.51867 0.09070 -0.37800
O 	O 	0.30522 0.01867 0.59070 -0.44700
O 	O 	0.80522 0.48133 0.90930 -0.17800
O 	O 	0.30522 0.98133 0.40930 -0.16100
O 	O 	0.19478 0.51867 0.90930 -0.20900
O 	O 	0.69478 0.01867 0.40930 -0.43800
O 	O 	0.19478 0.48133 0.09070 -0.41100
O 	O 	0.69478 0.98133 0.59070 -0.13000
Al	Al	0.00000 0.50000 -0.00000 2.35800
Al	Al	0.50000 0.00000 0.50000 2.37700
Al	Al	0.00000 0.00000 0.50000 2.35800
Al	Al	0.50000 0.50000 -0.00000 2.37700
Al	Al	0.50000 0.00000 -0.00000 2.35800
Al	Al	0.00000 0.50000 0.50000 2.37700
Li	Li	0.00000 0.50000 0.75000 0.54300
Li	Li	0.00000 0.50000 0.25000 0.54200
Li	Li	0.75000 0.00000 0.50000 0.54300
Li	Li	0.25000 0.00000 0.50000 0.54200
Li	Li	0.50000 0.75000 -0.00000 0.54300
Li	Li	0.50000 0.25000 -0.00000 0.54200
Li	Li	0.50000 0.00000 0.75000 0.54300
Li	Li	0.50000 0.00000 0.25000 0.54200
Li	Li	0.00000 0.75000 0.50000 0.54300
Li	Li	0.00000 0.25000 0.50000 0.54200
Li	Li	0.75000 0.50000 -0.00000 0.54300
Li	Li	0.25000 0.50000 -0.00000 0.54200
P 	P 	0.12232 0.56584 0.87768 0.58300
O 	O 	0.14416 0.65136 0.85584 -0.13900
O 	O 	0.05691 0.56595 0.94309 -0.68300
P 	P 	0.62232 0.06584 0.37768 0.58900
O 	O 	0.64416 0.15136 0.35584 -0.19200
O 	O 	0.55691 0.06595 0.44309 -0.81200
P 	P 	0.87768 0.43416 0.87768 0.58300
O 	O 	0.85584 0.34864 0.85584 -0.05500
O 	O 	0.94309 0.43405 0.94309 -0.43500
P 	P 	0.37768 0.93416 0.37768 0.57700
O 	O 	0.35584 0.84864 0.35584 -0.15600
O 	O 	0.44309 0.93405 0.44309 -0.58600
P 	P 	0.87768 0.56584 0.12232 0.58300
O 	O 	0.85584 0.65136 0.14416 -0.13900
O 	O 	0.94309 0.56595 0.05691 -0.68300
P 	P 	0.37768 0.06584 0.62232 0.58900
O 	O 	0.35584 0.15136 0.64416 -0.19200
O 	O 	0.44309 0.06595 0.55691 -0.81200
P 	P 	0.12232 0.43416 0.12232 0.58300
O 	O 	0.14416 0.34864 0.14416 -0.31400
O 	O 	0.05691 0.43405 0.05691 -0.97300
P 	P 	0.62232 0.93416 0.62232 0.58000
O 	O 	0.64416 0.84864 0.64416 -0.10900
O 	O 	0.55691 0.93405 0.55691 -0.58600
P 	P 	0.87768 0.12232 0.56584 0.58300
O 	O 	0.85584 0.14416 0.65136 -0.13900
O 	O 	0.94309 0.05691 0.56595 -0.68300
P 	P 	0.37768 0.62232 0.06584 0.58900
O 	O 	0.35584 0.64416 0.15136 -0.19200
O 	O 	0.44309 0.55691 0.06595 -0.81200
P 	P 	0.87768 0.87768 0.43416 0.58300
O 	O 	0.85584 0.85584 0.34864 -0.05500
O 	O 	0.94309 0.94309 0.43405 -0.43500
P 	P 	0.37768 0.37768 0.93416 0.57700
O 	O 	0.35584 0.35584 0.84864 -0.15600
O 	O 	0.44309 0.44309 0.93405 -0.58600
P 	P 	0.12232 0.87768 0.56584 0.58300
O 	O 	0.14416 0.85584 0.65136 -0.13900
O 	O 	0.05691 0.94309 0.56595 -0.68300
P 	P 	0.62232 0.37768 0.06584 0.58900
O 	O 	0.64416 0.35584 0.15136 -0.19200
O 	O 	0.55691 0.44309 0.06595 -0.81200
P 	P 	0.12232 0.12232 0.43416 0.58300
O 	O 	0.14416 0.14416 0.34864 -0.31400
O 	O 	0.05691 0.05691 0.43405 -0.97300
P 	P 	0.62232 0.62232 0.93416 0.58000
O 	O 	0.64416 0.64416 0.84864 -0.10900
O 	O 	0.55691 0.55691 0.93405 -0.58600
P 	P 	0.56584 0.87768 0.12232 0.58300
O 	O 	0.65136 0.85584 0.14416 -0.13900
O 	O 	0.56595 0.94309 0.05691 -0.68300
P 	P 	0.06584 0.37768 0.62232 0.58900
O 	O 	0.15136 0.35584 0.64416 -0.19200
O 	O 	0.06595 0.44309 0.55691 -0.81200
P 	P 	0.43416 0.87768 0.87768 0.58300
O 	O 	0.34864 0.85584 0.85584 -0.05500
O 	O 	0.43405 0.94309 0.94309 -0.43500
P 	P 	0.93416 0.37768 0.37768 0.57700
O 	O 	0.84864 0.35584 0.35584 -0.15600
O 	O 	0.93405 0.44309 0.44309 -0.58600
P 	P 	0.56584 0.12232 0.87768 0.58300
O 	O 	0.65136 0.14416 0.85584 -0.13900
O 	O 	0.56595 0.05691 0.94309 -0.68300
P 	P 	0.06584 0.62232 0.37768 0.58900
O 	O 	0.15136 0.64416 0.35584 -0.19200
O 	O 	0.06595 0.55691 0.44309 -0.81200
P 	P 	0.43416 0.12232 0.12232 0.58300
O 	O 	0.34864 0.14416 0.14416 -0.31400
O 	O 	0.43405 0.05691 0.05691 -0.97300
P 	P 	0.93416 0.62232 0.62232 0.58000
O 	O 	0.84864 0.64416 0.64416 -0.10900
O 	O 	0.93405 0.55691 0.55691 -0.58600
