data_crystal

_cell_length_a 16.83950
_cell_length_b 16.83950
_cell_length_c 16.83950
_cell_angle_alpha 90.00000
_cell_angle_beta  90.00000
_cell_angle_gamma 90.00000

_symmetry_space_group_name_	'P 1'
_symmetry_space_group_name_H-M	'P 1'

loop_
_symmetry_equiv_pos_as_xyz
  x,y,z

loop_
_atom_site_label
_atom_site_type_symbol
_atom_site_fract_x
_atom_site_fract_y
_atom_site_fract_z
_atom_site_charge
O 	O 	0.90749 0.48362 0.19400 -0.21600
O 	O 	0.40749 0.98362 0.69400 -0.15700
O 	O 	0.09251 0.51638 0.19400 -0.39000
O 	O 	0.59251 0.01638 0.69400 -0.40200
O 	O 	0.09251 0.48362 0.80600 -0.35900
O 	O 	0.59251 0.98362 0.30600 -0.16300
O 	O 	0.90749 0.51638 0.80600 -0.19000
O 	O 	0.40749 0.01638 0.30600 -0.43500
O 	O 	0.19400 0.90749 0.48362 -0.21600
O 	O 	0.69400 0.40749 0.98362 -0.15700
O 	O 	0.19400 0.09251 0.51638 -0.39000
O 	O 	0.69400 0.59251 0.01638 -0.40200
O 	O 	0.80600 0.09251 0.48362 -0.35800
O 	O 	0.30600 0.59251 0.98362 -0.16200
O 	O 	0.80600 0.90749 0.51638 -0.18900
O 	O 	0.30600 0.40749 0.01638 -0.43400
O 	O 	0.48362 0.19400 0.90749 -0.21500
O 	O 	0.98362 0.69400 0.40749 -0.15600
O 	O 	0.51638 0.19400 0.09251 -0.38900
O 	O 	0.01638 0.69400 0.59251 -0.40100
O 	O 	0.48362 0.80600 0.09251 -0.35800
O 	O 	0.98362 0.30600 0.59251 -0.16200
O 	O 	0.51638 0.80600 0.90749 -0.18900
O 	O 	0.01638 0.30600 0.40749 -0.43400
O 	O 	0.48362 0.90749 0.19400 -0.21500
O 	O 	0.98362 0.40749 0.69400 -0.15600
O 	O 	0.51638 0.09251 0.19400 -0.38900
O 	O 	0.01638 0.59251 0.69400 -0.40100
O 	O 	0.48362 0.09251 0.80600 -0.35800
O 	O 	0.98362 0.59251 0.30600 -0.16200
O 	O 	0.51638 0.90749 0.80600 -0.18900
O 	O 	0.01638 0.40749 0.30600 -0.43400
O 	O 	0.90749 0.19400 0.48362 -0.21500
O 	O 	0.40749 0.69400 0.98362 -0.15600
O 	O 	0.09251 0.19400 0.51638 -0.38900
O 	O 	0.59251 0.69400 0.01638 -0.40100
O 	O 	0.09251 0.80600 0.48362 -0.35800
O 	O 	0.59251 0.30600 0.98362 -0.16200
O 	O 	0.90749 0.80600 0.51638 -0.18900
O 	O 	0.40749 0.30600 0.01638 -0.43400
O 	O 	0.19400 0.48362 0.90749 -0.21500
O 	O 	0.69400 0.98362 0.40749 -0.15600
O 	O 	0.19400 0.51638 0.09251 -0.38900
O 	O 	0.69400 0.01638 0.59251 -0.40100
O 	O 	0.80600 0.48362 0.09251 -0.35800
O 	O 	0.30600 0.98362 0.59251 -0.16200
O 	O 	0.80600 0.51638 0.90749 -0.18900
O 	O 	0.30600 0.01638 0.40749 -0.43400
Ga	Ga	-0.00000 0.50000 -0.00000 1.97600
Ga	Ga	0.50000 0.00000 0.50000 2.02600
Ga	Ga	0.00000 0.00000 0.50000 1.97600
Ga	Ga	0.50000 0.50000 -0.00000 2.02600
Ga	Ga	0.50000 0.00000 -0.00000 1.97600
Ga	Ga	0.00000 0.50000 0.50000 2.02600
Li	Li	0.00000 0.50000 0.25000 0.54300
Li	Li	-0.00000 0.50000 0.75000 0.54400
Li	Li	0.50000 0.00000 0.25000 0.54300
Li	Li	0.25000 0.00000 0.50000 0.54300
Li	Li	0.75000 0.00000 0.50000 0.54400
Li	Li	0.25000 0.50000 -0.00000 0.54300
Li	Li	0.50000 0.25000 -0.00000 0.54300
Li	Li	0.50000 0.75000 -0.00000 0.54400
Li	Li	0.00000 0.25000 0.50000 0.54300
Li	Li	0.50000 0.00000 0.75000 0.54400
Li	Li	-0.00000 0.75000 0.50000 0.54400
Li	Li	0.75000 0.50000 -0.00000 0.54400
P 	P 	0.87669 0.43504 0.12331 0.55100
O 	O 	0.85338 0.35250 0.14662 -0.18200
O 	O 	0.94176 0.43020 0.05824 -0.58400
P 	P 	0.37669 0.93504 0.62331 0.54900
O 	O 	0.35338 0.85250 0.64662 -0.13700
O 	O 	0.44176 0.93020 0.55824 -0.49500
P 	P 	0.12331 0.56496 0.12331 0.54900
O 	O 	0.14662 0.64750 0.14662 -0.25400
O 	O 	0.05824 0.56980 0.05824 -0.80000
P 	P 	0.62331 0.06496 0.62331 0.55700
O 	O 	0.64662 0.14750 0.64662 -0.16900
O 	O 	0.55824 0.06980 0.55824 -0.68200
P 	P 	0.12331 0.43504 0.87669 0.55100
O 	O 	0.14662 0.35250 0.85338 -0.18200
O 	O 	0.05824 0.43020 0.94176 -0.58400
P 	P 	0.62331 0.93504 0.37669 0.54900
O 	O 	0.64662 0.85250 0.35338 -0.13700
O 	O 	0.55824 0.93020 0.44176 -0.49500
P 	P 	0.87669 0.56496 0.87669 0.55200
O 	O 	0.85338 0.64750 0.85338 -0.03700
O 	O 	0.94176 0.56980 0.94176 -0.34100
P 	P 	0.37669 0.06496 0.37669 0.55500
O 	O 	0.35338 0.14750 0.35338 -0.21400
O 	O 	0.44176 0.06980 0.44176 -0.68400
P 	P 	0.12331 0.87669 0.43504 0.55100
O 	O 	0.14662 0.85338 0.35250 -0.18200
O 	O 	0.05824 0.94176 0.43020 -0.58400
P 	P 	0.62331 0.37669 0.93504 0.54900
O 	O 	0.64662 0.35338 0.85250 -0.13700
O 	O 	0.55824 0.44176 0.93020 -0.49500
P 	P 	0.12331 0.12331 0.56496 0.54900
O 	O 	0.14662 0.14662 0.64750 -0.25400
O 	O 	0.05824 0.05824 0.56980 -0.80000
P 	P 	0.62331 0.62331 0.06496 0.55700
O 	O 	0.64662 0.64662 0.14750 -0.16900
O 	O 	0.55824 0.55824 0.06980 -0.68200
P 	P 	0.87669 0.12331 0.43504 0.55100
O 	O 	0.85338 0.14662 0.35250 -0.18200
O 	O 	0.94176 0.05824 0.43020 -0.58400
P 	P 	0.37669 0.62331 0.93504 0.54900
O 	O 	0.35338 0.64662 0.85250 -0.13700
O 	O 	0.44176 0.55824 0.93020 -0.49500
P 	P 	0.87669 0.87669 0.56496 0.55200
O 	O 	0.85338 0.85338 0.64750 -0.03700
O 	O 	0.94176 0.94176 0.56980 -0.34100
P 	P 	0.37669 0.37669 0.06496 0.55500
O 	O 	0.35338 0.35338 0.14750 -0.21400
O 	O 	0.44176 0.44176 0.06980 -0.68400
P 	P 	0.43504 0.12331 0.87669 0.55100
O 	O 	0.35250 0.14662 0.85338 -0.18200
O 	O 	0.43020 0.05824 0.94176 -0.58400
P 	P 	0.93504 0.62331 0.37669 0.54900
O 	O 	0.85250 0.64662 0.35338 -0.13700
O 	O 	0.93020 0.55824 0.44176 -0.49500
P 	P 	0.56496 0.12331 0.12331 0.54900
O 	O 	0.64750 0.14662 0.14662 -0.25400
O 	O 	0.56980 0.05824 0.05824 -0.80000
P 	P 	0.06496 0.62331 0.62331 0.55700
O 	O 	0.14750 0.64662 0.64662 -0.16900
O 	O 	0.06980 0.55824 0.55824 -0.68200
P 	P 	0.43504 0.87669 0.12331 0.55100
O 	O 	0.35250 0.85338 0.14662 -0.18200
O 	O 	0.43020 0.94176 0.05824 -0.58400
P 	P 	0.93504 0.37669 0.62331 0.54900
O 	O 	0.85250 0.35338 0.64662 -0.13700
O 	O 	0.93020 0.44176 0.55824 -0.49500
P 	P 	0.56496 0.87669 0.87669 0.55200
O 	O 	0.64750 0.85338 0.85338 -0.03700
O 	O 	0.56980 0.94176 0.94176 -0.34100
P 	P 	0.06496 0.37669 0.37669 0.55500
O 	O 	0.14750 0.35338 0.35338 -0.21400
O 	O 	0.06980 0.44176 0.44176 -0.68400
