data_crystal

_cell_length_a 25.15800
_cell_length_b 9.05360
_cell_length_c 10.16600
_cell_angle_alpha 90.00000
_cell_angle_beta  90.00000
_cell_angle_gamma 90.00000

_symmetry_space_group_name_	'P 1'
_symmetry_space_group_name_H-M	'P 1'

loop_
_symmetry_equiv_pos_as_xyz
  x,y,z

loop_
_atom_site_label
_atom_site_type_symbol
_atom_site_fract_x
_atom_site_fract_y
_atom_site_fract_z
_atom_site_charge
Ga	Ga	0.88335 0.12231 0.31131 2.08200
Ga	Ga	0.76735 0.66977 0.51069 2.06800
P 	P 	0.99470 0.11340 0.17840 0.46000
P 	P 	0.83875 0.04568 0.03839 0.65200
P 	P 	0.80216 0.38883 0.32008 0.64700
O 	O 	0.85653 0.30810 0.33130 -0.62400
O 	O 	0.80756 0.52650 0.40370 -0.52900
O 	O 	0.95175 0.16660 0.26870 -0.65500
O 	O 	0.85135 0.01290 0.18350 -0.65500
O 	O 	0.79283 0.43110 0.17460 -0.56000
O 	O 	0.88729 0.99360 0.95800 -0.59900
O 	O 	0.83140 0.21090 0.02070 -0.59300
O 	O 	0.75723 0.28430 0.36240 -0.64200
O 	O 	0.98750 0.18430 0.04160 -0.17200
O 	O 	0.99100 0.94370 0.16770 -0.19800
O 	O 	0.79118 0.96090 0.99380 -0.68400
Ga	Ga	0.61665 0.37769 0.81131 2.08100
Ga	Ga	0.73265 0.83023 0.01069 2.06300
P 	P 	0.50530 0.38660 0.67840 0.46000
P 	P 	0.66125 0.45432 0.53839 0.66700
P 	P 	0.69784 0.11117 0.82008 0.64400
O 	O 	0.64347 0.19190 0.83130 -0.62300
O 	O 	0.69244 0.97350 0.90370 -0.52200
O 	O 	0.54825 0.33340 0.76870 -0.65400
O 	O 	0.64865 0.48710 0.68350 -0.65500
O 	O 	0.70717 0.06890 0.67460 -0.55600
O 	O 	0.61271 0.50640 0.45800 -0.61000
O 	O 	0.66860 0.28910 0.52070 -0.59000
O 	O 	0.74277 0.21570 0.86240 -0.63900
O 	O 	0.51250 0.31570 0.54160 -0.17200
O 	O 	0.50900 0.55630 0.66770 -0.19300
O 	O 	0.70882 0.53910 0.49380 -0.69800
Ga	Ga	0.11665 0.12231 0.18869 2.08100
Ga	Ga	0.23265 0.66977 0.98931 2.06400
P 	P 	0.00530 0.11340 0.32160 0.46300
P 	P 	0.16125 0.04568 0.46161 0.66600
P 	P 	0.19784 0.38883 0.17992 0.64600
O 	O 	0.14347 0.30810 0.16870 -0.62100
O 	O 	0.19244 0.52650 0.09630 -0.52400
O 	O 	0.04825 0.16660 0.23130 -0.65200
O 	O 	0.14865 0.01290 0.31650 -0.65500
O 	O 	0.20717 0.43110 0.32540 -0.55600
O 	O 	0.11271 0.99360 0.54200 -0.61100
O 	O 	0.16860 0.21090 0.47930 -0.59100
O 	O 	0.24277 0.28430 0.13760 -0.63800
O 	O 	0.01250 0.18430 0.45840 -0.17200
O 	O 	0.00900 0.94370 0.33230 -0.19300
O 	O 	0.20882 0.96090 0.50620 -0.69900
Ga	Ga	0.38335 0.37769 0.68869 2.08100
Ga	Ga	0.26735 0.83023 0.48931 2.06700
P 	P 	0.49470 0.38660 0.82160 0.46000
P 	P 	0.33875 0.45432 0.96161 0.65300
P 	P 	0.30216 0.11117 0.67992 0.64600
O 	O 	0.35653 0.19190 0.66870 -0.62400
O 	O 	0.30756 0.97350 0.59630 -0.52900
O 	O 	0.45175 0.33340 0.73130 -0.65500
O 	O 	0.35135 0.48710 0.81650 -0.65500
O 	O 	0.29283 0.06890 0.82540 -0.56100
O 	O 	0.38729 0.50640 0.04200 -0.60200
O 	O 	0.33140 0.28910 0.97930 -0.59500
O 	O 	0.25723 0.21570 0.63760 -0.64200
O 	O 	0.48750 0.31570 0.95840 -0.17200
O 	O 	0.49100 0.55630 0.83230 -0.19300
O 	O 	0.29118 0.53910 0.00620 -0.68600
Ga	Ga	0.11665 0.87769 0.68869 2.08100
Ga	Ga	0.23265 0.33023 0.48931 2.06700
P 	P 	0.00530 0.88660 0.82160 0.45900
P 	P 	0.16125 0.95432 0.96161 0.65100
P 	P 	0.19784 0.61117 0.67992 0.64700
O 	O 	0.14347 0.69190 0.66870 -0.62400
O 	O 	0.19244 0.47350 0.59630 -0.52900
O 	O 	0.04825 0.83340 0.73130 -0.65500
O 	O 	0.14865 0.98710 0.81650 -0.65500
O 	O 	0.20717 0.56890 0.82540 -0.56000
O 	O 	0.11271 0.00640 0.04200 -0.59900
O 	O 	0.16860 0.78910 0.97930 -0.59300
O 	O 	0.24277 0.71570 0.63760 -0.64200
O 	O 	0.01250 0.81570 0.95840 -0.17200
O 	O 	0.00900 0.05630 0.83230 -0.19800
O 	O 	0.20882 0.03910 0.00620 -0.68400
Ga	Ga	0.38335 0.62231 0.18869 2.08100
Ga	Ga	0.26735 0.16977 0.98931 2.06300
P 	P 	0.49470 0.61340 0.32160 0.46000
P 	P 	0.33875 0.54568 0.46161 0.66700
P 	P 	0.30216 0.88883 0.17992 0.64400
O 	O 	0.35653 0.80810 0.16870 -0.62300
O 	O 	0.30756 0.02650 0.09630 -0.52200
O 	O 	0.45175 0.66660 0.23130 -0.65400
O 	O 	0.35135 0.51290 0.31650 -0.65500
O 	O 	0.29283 0.93110 0.32540 -0.55600
O 	O 	0.38729 0.49360 0.54200 -0.61000
O 	O 	0.33140 0.71090 0.47930 -0.59000
O 	O 	0.25723 0.78430 0.13760 -0.63900
O 	O 	0.48750 0.68430 0.45840 -0.17200
O 	O 	0.49100 0.44370 0.33230 -0.19300
O 	O 	0.29118 0.46090 0.50620 -0.69800
Ga	Ga	0.88335 0.87769 0.81131 2.08100
Ga	Ga	0.76735 0.33023 0.01069 2.06400
P 	P 	0.99470 0.88660 0.67840 0.46300
P 	P 	0.83875 0.95432 0.53839 0.66600
P 	P 	0.80216 0.61117 0.82008 0.64600
O 	O 	0.85653 0.69190 0.83130 -0.62100
O 	O 	0.80756 0.47350 0.90370 -0.52400
O 	O 	0.95175 0.83340 0.76870 -0.65200
O 	O 	0.85135 0.98710 0.68350 -0.65500
O 	O 	0.79283 0.56890 0.67460 -0.55600
O 	O 	0.88729 0.00640 0.45800 -0.61100
O 	O 	0.83140 0.78910 0.52070 -0.59100
O 	O 	0.75723 0.71570 0.86240 -0.63800
O 	O 	0.98750 0.81570 0.54160 -0.17200
O 	O 	0.99100 0.05630 0.66770 -0.19300
O 	O 	0.79118 0.03910 0.49380 -0.69900
Ga	Ga	0.61665 0.62231 0.31131 2.08100
Ga	Ga	0.73265 0.16977 0.51069 2.06700
P 	P 	0.50530 0.61340 0.17840 0.46000
P 	P 	0.66125 0.54568 0.03839 0.65300
P 	P 	0.69784 0.88883 0.32008 0.64600
O 	O 	0.64347 0.80810 0.33130 -0.62400
O 	O 	0.69244 0.02650 0.40370 -0.52900
O 	O 	0.54825 0.66660 0.26870 -0.65500
O 	O 	0.64865 0.51290 0.18350 -0.65500
O 	O 	0.70717 0.93110 0.17460 -0.56100
O 	O 	0.61271 0.49360 0.95800 -0.60200
O 	O 	0.66860 0.71090 0.02070 -0.59500
O 	O 	0.74277 0.78430 0.36240 -0.64200
O 	O 	0.51250 0.68430 0.04160 -0.17200
O 	O 	0.50900 0.44370 0.16770 -0.19300
O 	O 	0.70882 0.46090 0.99380 -0.68600
