data_crystal

_cell_length_a 12.36700
_cell_length_b 12.36700
_cell_length_c 5.29340
_cell_angle_alpha 90.00000
_cell_angle_beta  90.00000
_cell_angle_gamma 90.00000

_symmetry_space_group_name_	'P 1'
_symmetry_space_group_name_H-M	'P 1'

loop_
_symmetry_equiv_pos_as_xyz
  x,y,z

loop_
_atom_site_label
_atom_site_type_symbol
_atom_site_fract_x
_atom_site_fract_y
_atom_site_fract_z
_atom_site_charge
Co	Co	0.67880 0.01520 0.53730 1.16100
S 	S 	0.56086 0.69305 0.47320 0.02600
N 	N 	0.61700 0.87360 0.72180 -0.26100
C 	C 	0.65440 0.68150 0.72820 -0.12300
H 	H 	0.61770 0.66040 0.88240 0.08000
H 	H 	0.70970 0.62830 0.69010 0.07800
C 	C 	0.70370 0.79350 0.75490 -0.10100
H 	H 	0.73390 0.80090 0.92510 0.05500
C 	C 	0.79330 0.81340 0.56090 0.31600
C 	C 	0.52600 0.83110 0.56890 -0.14500
H 	H 	0.46060 0.82910 0.67340 0.09200
C 	C 	0.50340 0.89560 0.33440 0.36500
O 	O 	0.86780 0.74290 0.53620 -0.39800
O 	O 	0.79290 0.89980 0.43400 -0.41100
O 	O 	0.57030 0.96780 0.26880 -0.44500
O 	O 	0.41950 0.87230 0.21660 -0.44000
H 	H 	0.59980 0.87730 0.87000 0.15600
Co	Co	0.32120 0.98480 0.03730 1.14800
S 	S 	0.43914 0.30695 0.97320 0.08800
N 	N 	0.38300 0.12640 0.22180 -0.26100
C 	C 	0.34560 0.31850 0.22820 -0.16600
H 	H 	0.38230 0.33960 0.38240 0.08300
H 	H 	0.29030 0.37170 0.19010 0.08300
C 	C 	0.29630 0.20650 0.25490 -0.08200
H 	H 	0.26610 0.19910 0.42510 0.04400
C 	C 	0.20670 0.18660 0.06090 0.27200
C 	C 	0.47400 0.16890 0.06890 -0.20000
H 	H 	0.53940 0.17090 0.17340 0.09700
C 	C 	0.49660 0.10440 0.83440 0.39900
O 	O 	0.13220 0.25710 0.03620 -0.39900
O 	O 	0.20710 0.10020 0.93400 -0.37200
O 	O 	0.42970 0.03220 0.76880 -0.43900
O 	O 	0.58050 0.12770 0.71660 -0.43600
H 	H 	0.40020 0.12270 0.37000 0.14600
Co	Co	0.98480 0.67880 0.78730 1.16400
S 	S 	0.30695 0.56086 0.72320 0.01500
N 	N 	0.12640 0.61700 0.97180 -0.20700
C 	C 	0.31850 0.65440 0.97820 0.01900
H 	H 	0.33960 0.61770 0.13240 0.01100
H 	H 	0.37170 0.70970 0.94010 0.04300
C 	C 	0.20650 0.70370 0.00490 -0.22600
H 	H 	0.19910 0.73390 0.17510 0.08000
C 	C 	0.18660 0.79330 0.81090 0.36900
C 	C 	0.16890 0.52600 0.81890 -0.14700
H 	H 	0.17090 0.46060 0.92340 0.10100
C 	C 	0.10440 0.50340 0.58440 0.36900
O 	O 	0.25710 0.86780 0.78620 -0.40000
O 	O 	0.10020 0.79290 0.68400 -0.42000
O 	O 	0.03220 0.57030 0.51880 -0.43900
O 	O 	0.12770 0.41950 0.46660 -0.43100
H 	H 	0.12270 0.59980 0.12000 0.11200
Co	Co	0.01520 0.32120 0.28730 1.16000
S 	S 	0.69305 0.43914 0.22320 0.00900
N 	N 	0.87360 0.38300 0.47180 -0.26200
C 	C 	0.68150 0.34560 0.47820 -0.11500
H 	H 	0.66040 0.38230 0.63240 0.07300
H 	H 	0.62830 0.29030 0.44010 0.07200
C 	C 	0.79350 0.29630 0.50490 -0.10400
H 	H 	0.80090 0.26610 0.67510 0.05500
C 	C 	0.81340 0.20670 0.31090 0.31700
C 	C 	0.83110 0.47400 0.31890 -0.13100
H 	H 	0.82910 0.53940 0.42340 0.08100
C 	C 	0.89560 0.49660 0.08440 0.33000
O 	O 	0.74290 0.13220 0.28620 -0.40200
O 	O 	0.89980 0.20710 0.18400 -0.41500
O 	O 	0.96780 0.42970 0.01880 -0.44100
O 	O 	0.87230 0.58050 0.96660 -0.40300
H 	H 	0.87730 0.40020 0.62000 0.15300
