data_crystal

_cell_length_a 18.66800
_cell_length_b 18.66800
_cell_length_c 34.82500
_cell_angle_alpha 90.00000
_cell_angle_beta  90.00000
_cell_angle_gamma 90.00000

_symmetry_space_group_name_	'P 1'
_symmetry_space_group_name_H-M	'P 1'

loop_
_symmetry_equiv_pos_as_xyz
  x,y,z

loop_
_atom_site_label
_atom_site_type_symbol
_atom_site_fract_x
_atom_site_fract_y
_atom_site_fract_z
_atom_site_charge
C 	C 	0.02330 0.43190 0.03360 -0.08900
C 	C 	0.04750 0.36370 0.03360 0.01000
H 	H 	0.01500 0.45530 0.05670 0.05800
C 	C 	0.06090 0.32490 0.07210 0.18900
O 	O 	0.10600 0.27400 0.07150 -0.19600
N 	N 	0.00800 0.32900 0.09710 -0.21600
H 	H 	0.97300 0.35700 0.09100 0.12900
C 	C 	0.01350 0.31330 0.14120 0.06900
C 	C 	0.95000 0.30750 0.16050 -0.02000
C 	C 	0.94920 0.28280 0.19740 -0.13500
C 	C 	0.01180 0.26390 0.21510 0.07300
C 	C 	0.07530 0.26980 0.19580 -0.12000
C 	C 	0.07610 0.29450 0.15880 -0.02600
H 	H 	0.90740 0.32030 0.14850 0.05900
H 	H 	0.01120 0.24710 0.24020 0.03400
H 	H 	0.11930 0.29840 0.14570 0.07200
C 	C 	0.88340 0.27670 0.21740 0.42100
O 	O 	0.82280 0.29500 0.20410 -0.45500
O 	O 	0.87650 0.25200 0.25120 -0.43800
C 	C 	0.14010 0.25020 0.21410 0.37700
O 	O 	0.20220 0.26700 0.20240 -0.40400
O 	O 	0.14500 0.21300 0.24450 -0.36700
Cu	Cu	0.73790 0.29680 0.22230 0.94200
C 	C 	0.97670 0.56810 0.03360 -0.08900
C 	C 	0.95250 0.63630 0.03360 0.01000
H 	H 	0.98500 0.54470 0.05670 0.05800
C 	C 	0.93910 0.67510 0.07210 0.18900
O 	O 	0.89400 0.72600 0.07150 -0.19600
N 	N 	0.99200 0.67100 0.09710 -0.21600
H 	H 	0.02700 0.64300 0.09100 0.12900
C 	C 	0.98650 0.68670 0.14120 0.06900
C 	C 	0.05000 0.69250 0.16050 -0.02000
C 	C 	0.05080 0.71720 0.19740 -0.13500
C 	C 	0.98820 0.73610 0.21510 0.07300
C 	C 	0.92470 0.73020 0.19580 -0.12000
C 	C 	0.92390 0.70550 0.15880 -0.02600
H 	H 	0.09260 0.67970 0.14850 0.05900
H 	H 	0.98880 0.75290 0.24020 0.03400
H 	H 	0.88070 0.70160 0.14570 0.07200
C 	C 	0.11660 0.72330 0.21740 0.42100
O 	O 	0.17720 0.70500 0.20410 -0.45500
O 	O 	0.12350 0.74800 0.25120 -0.43800
C 	C 	0.85990 0.74980 0.21410 0.37700
O 	O 	0.79780 0.73300 0.20240 -0.40400
O 	O 	0.85500 0.78700 0.24450 -0.36700
Cu	Cu	0.26210 0.70320 0.22230 0.94200
C 	C 	0.56810 0.02330 0.03360 -0.08900
C 	C 	0.63630 0.04750 0.03360 0.01000
H 	H 	0.54470 0.01500 0.05670 0.05800
C 	C 	0.67510 0.06090 0.07210 0.18900
O 	O 	0.72600 0.10600 0.07150 -0.19600
N 	N 	0.67100 0.00800 0.09710 -0.21600
H 	H 	0.64300 0.97300 0.09100 0.12900
C 	C 	0.68670 0.01350 0.14120 0.06900
C 	C 	0.69250 0.95000 0.16050 -0.02000
C 	C 	0.71720 0.94920 0.19740 -0.13500
C 	C 	0.73610 0.01180 0.21510 0.07300
C 	C 	0.73020 0.07530 0.19580 -0.12000
C 	C 	0.70550 0.07610 0.15880 -0.02600
H 	H 	0.67970 0.90740 0.14850 0.05900
H 	H 	0.75290 0.01120 0.24020 0.03400
H 	H 	0.70160 0.11930 0.14570 0.07200
C 	C 	0.72330 0.88340 0.21740 0.42100
O 	O 	0.70500 0.82280 0.20410 -0.45500
O 	O 	0.74800 0.87650 0.25120 -0.43800
C 	C 	0.74980 0.14010 0.21410 0.37700
O 	O 	0.73300 0.20220 0.20240 -0.40400
O 	O 	0.78700 0.14500 0.24450 -0.36700
Cu	Cu	0.70320 0.73790 0.22230 0.94200
C 	C 	0.43190 0.97670 0.03360 -0.08900
C 	C 	0.36370 0.95250 0.03360 0.01000
H 	H 	0.45530 0.98500 0.05670 0.05800
C 	C 	0.32490 0.93910 0.07210 0.18900
O 	O 	0.27400 0.89400 0.07150 -0.19600
N 	N 	0.32900 0.99200 0.09710 -0.21600
H 	H 	0.35700 0.02700 0.09100 0.12900
C 	C 	0.31330 0.98650 0.14120 0.06900
C 	C 	0.30750 0.05000 0.16050 -0.02000
C 	C 	0.28280 0.05080 0.19740 -0.13500
C 	C 	0.26390 0.98820 0.21510 0.07300
C 	C 	0.26980 0.92470 0.19580 -0.12000
C 	C 	0.29450 0.92390 0.15880 -0.02600
H 	H 	0.32030 0.09260 0.14850 0.05900
H 	H 	0.24710 0.98880 0.24020 0.03400
H 	H 	0.29840 0.88070 0.14570 0.07200
C 	C 	0.27670 0.11660 0.21740 0.42100
O 	O 	0.29500 0.17720 0.20410 -0.45500
O 	O 	0.25200 0.12350 0.25120 -0.43800
C 	C 	0.25020 0.85990 0.21410 0.37700
O 	O 	0.26700 0.79780 0.20240 -0.40400
O 	O 	0.21300 0.85500 0.24450 -0.36700
Cu	Cu	0.29680 0.26210 0.22230 0.94200
C 	C 	0.47670 0.93190 0.46640 -0.08900
C 	C 	0.45250 0.86370 0.46640 0.01000
H 	H 	0.48500 0.95530 0.44330 0.05800
C 	C 	0.43910 0.82490 0.42790 0.18900
O 	O 	0.39400 0.77400 0.42850 -0.19600
N 	N 	0.49200 0.82900 0.40290 -0.21600
H 	H 	0.52700 0.85700 0.40900 0.12900
C 	C 	0.48650 0.81330 0.35880 0.06900
C 	C 	0.55000 0.80750 0.33950 -0.02000
C 	C 	0.55080 0.78280 0.30260 -0.13500
C 	C 	0.48820 0.76390 0.28490 0.07300
C 	C 	0.42470 0.76980 0.30420 -0.12000
C 	C 	0.42390 0.79450 0.34120 -0.02600
H 	H 	0.59260 0.82030 0.35150 0.05900
H 	H 	0.48880 0.74710 0.25980 0.03300
H 	H 	0.38070 0.79840 0.35430 0.07200
C 	C 	0.61660 0.77670 0.28260 0.42100
O 	O 	0.67720 0.79500 0.29590 -0.45400
O 	O 	0.62350 0.75200 0.24880 -0.43800
C 	C 	0.35990 0.75020 0.28590 0.37700
O 	O 	0.29780 0.76700 0.29760 -0.40400
O 	O 	0.35500 0.71300 0.25550 -0.36700
Cu	Cu	0.76210 0.79680 0.27770 0.94200
C 	C 	0.52330 0.06810 0.46640 -0.08900
C 	C 	0.54750 0.13630 0.46640 0.01000
H 	H 	0.51500 0.04470 0.44330 0.05800
C 	C 	0.56090 0.17510 0.42790 0.18900
O 	O 	0.60600 0.22600 0.42850 -0.19600
N 	N 	0.50800 0.17100 0.40290 -0.21600
H 	H 	0.47300 0.14300 0.40900 0.12900
C 	C 	0.51350 0.18670 0.35880 0.06900
C 	C 	0.45000 0.19250 0.33950 -0.02000
C 	C 	0.44920 0.21720 0.30260 -0.13500
C 	C 	0.51180 0.23610 0.28490 0.07300
C 	C 	0.57530 0.23020 0.30420 -0.12000
C 	C 	0.57610 0.20550 0.34120 -0.02600
H 	H 	0.40740 0.17970 0.35150 0.05900
H 	H 	0.51120 0.25290 0.25980 0.03300
H 	H 	0.61930 0.20160 0.35430 0.07200
C 	C 	0.38340 0.22330 0.28260 0.42100
O 	O 	0.32280 0.20500 0.29590 -0.45400
O 	O 	0.37650 0.24800 0.24880 -0.43800
C 	C 	0.64010 0.24980 0.28590 0.37700
O 	O 	0.70220 0.23300 0.29760 -0.40400
O 	O 	0.64500 0.28700 0.25550 -0.36700
Cu	Cu	0.23790 0.20320 0.27770 0.94200
C 	C 	0.93190 0.52330 0.46640 -0.08900
C 	C 	0.86370 0.54750 0.46640 0.01000
H 	H 	0.95530 0.51500 0.44330 0.05800
C 	C 	0.82490 0.56090 0.42790 0.18900
O 	O 	0.77400 0.60600 0.42850 -0.19600
N 	N 	0.82900 0.50800 0.40290 -0.21600
H 	H 	0.85700 0.47300 0.40900 0.12900
C 	C 	0.81330 0.51350 0.35880 0.06900
C 	C 	0.80750 0.45000 0.33950 -0.02000
C 	C 	0.78280 0.44920 0.30260 -0.13500
C 	C 	0.76390 0.51180 0.28490 0.07300
C 	C 	0.76980 0.57530 0.30420 -0.12000
C 	C 	0.79450 0.57610 0.34120 -0.02600
H 	H 	0.82030 0.40740 0.35150 0.05900
H 	H 	0.74710 0.51120 0.25980 0.03300
H 	H 	0.79840 0.61930 0.35430 0.07200
C 	C 	0.77670 0.38340 0.28260 0.42100
O 	O 	0.79500 0.32280 0.29590 -0.45400
O 	O 	0.75200 0.37650 0.24880 -0.43800
C 	C 	0.75020 0.64010 0.28590 0.37700
O 	O 	0.76700 0.70220 0.29760 -0.40400
O 	O 	0.71300 0.64500 0.25550 -0.36700
Cu	Cu	0.79680 0.23790 0.27770 0.94200
C 	C 	0.06810 0.47670 0.46640 -0.08900
C 	C 	0.13630 0.45250 0.46640 0.01000
H 	H 	0.04470 0.48500 0.44330 0.05800
C 	C 	0.17510 0.43910 0.42790 0.18900
O 	O 	0.22600 0.39400 0.42850 -0.19600
N 	N 	0.17100 0.49200 0.40290 -0.21600
H 	H 	0.14300 0.52700 0.40900 0.12900
C 	C 	0.18670 0.48650 0.35880 0.06900
C 	C 	0.19250 0.55000 0.33950 -0.02000
C 	C 	0.21720 0.55080 0.30260 -0.13500
C 	C 	0.23610 0.48820 0.28490 0.07300
C 	C 	0.23020 0.42470 0.30420 -0.12000
C 	C 	0.20550 0.42390 0.34120 -0.02600
H 	H 	0.17970 0.59260 0.35150 0.05900
H 	H 	0.25290 0.48880 0.25980 0.03300
H 	H 	0.20160 0.38070 0.35430 0.07200
C 	C 	0.22330 0.61660 0.28260 0.42100
O 	O 	0.20500 0.67720 0.29590 -0.45400
O 	O 	0.24800 0.62350 0.24880 -0.43800
C 	C 	0.24980 0.35990 0.28590 0.37700
O 	O 	0.23300 0.29780 0.29760 -0.40400
O 	O 	0.28700 0.35500 0.25550 -0.36700
Cu	Cu	0.20320 0.76210 0.27770 0.94200
C 	C 	0.97670 0.56810 0.96640 -0.08700
C 	C 	0.95250 0.63630 0.96640 0.01100
H 	H 	0.98500 0.54470 0.94330 0.05800
C 	C 	0.93910 0.67510 0.92790 0.18900
O 	O 	0.89400 0.72600 0.92850 -0.19500
N 	N 	0.99200 0.67100 0.90290 -0.21600
H 	H 	0.02700 0.64300 0.90900 0.12900
C 	C 	0.98650 0.68670 0.85880 0.07000
C 	C 	0.05000 0.69250 0.83950 -0.02000
C 	C 	0.05080 0.71720 0.80260 -0.13500
C 	C 	0.98820 0.73610 0.78490 0.07300
C 	C 	0.92470 0.73020 0.80420 -0.12000
C 	C 	0.92390 0.70550 0.84120 -0.02600
H 	H 	0.09260 0.67970 0.85150 0.05900
H 	H 	0.98880 0.75290 0.75980 0.03400
H 	H 	0.88070 0.70160 0.85430 0.07300
C 	C 	0.11660 0.72330 0.78260 0.42100
O 	O 	0.17720 0.70500 0.79590 -0.45400
O 	O 	0.12350 0.74800 0.74880 -0.43800
C 	C 	0.85990 0.74980 0.78590 0.37700
O 	O 	0.79780 0.73300 0.79760 -0.40300
O 	O 	0.85500 0.78700 0.75550 -0.36700
Cu	Cu	0.26210 0.70320 0.77770 0.94200
C 	C 	0.02330 0.43190 0.96640 -0.08700
C 	C 	0.04750 0.36370 0.96640 0.01100
H 	H 	0.01500 0.45530 0.94330 0.05800
C 	C 	0.06090 0.32490 0.92790 0.18900
O 	O 	0.10600 0.27400 0.92850 -0.19500
N 	N 	0.00800 0.32900 0.90290 -0.21600
H 	H 	0.97300 0.35700 0.90900 0.12900
C 	C 	0.01350 0.31330 0.85880 0.07000
C 	C 	0.95000 0.30750 0.83950 -0.02000
C 	C 	0.94920 0.28280 0.80260 -0.13500
C 	C 	0.01180 0.26390 0.78490 0.07300
C 	C 	0.07530 0.26980 0.80420 -0.12000
C 	C 	0.07610 0.29450 0.84120 -0.02600
H 	H 	0.90740 0.32030 0.85150 0.05900
H 	H 	0.01120 0.24710 0.75980 0.03400
H 	H 	0.11930 0.29840 0.85430 0.07300
C 	C 	0.88340 0.27670 0.78260 0.42100
O 	O 	0.82280 0.29500 0.79590 -0.45400
O 	O 	0.87650 0.25200 0.74880 -0.43800
C 	C 	0.14010 0.25020 0.78590 0.37700
O 	O 	0.20220 0.26700 0.79760 -0.40300
O 	O 	0.14500 0.21300 0.75550 -0.36700
Cu	Cu	0.73790 0.29680 0.77770 0.94200
C 	C 	0.43190 0.97670 0.96640 -0.08700
C 	C 	0.36370 0.95250 0.96640 0.01100
H 	H 	0.45530 0.98500 0.94330 0.05800
C 	C 	0.32490 0.93910 0.92790 0.18900
O 	O 	0.27400 0.89400 0.92850 -0.19500
N 	N 	0.32900 0.99200 0.90290 -0.21600
H 	H 	0.35700 0.02700 0.90900 0.12900
C 	C 	0.31330 0.98650 0.85880 0.07000
C 	C 	0.30750 0.05000 0.83950 -0.02000
C 	C 	0.28280 0.05080 0.80260 -0.13500
C 	C 	0.26390 0.98820 0.78490 0.07300
C 	C 	0.26980 0.92470 0.80420 -0.12000
C 	C 	0.29450 0.92390 0.84120 -0.02600
H 	H 	0.32030 0.09260 0.85150 0.05900
H 	H 	0.24710 0.98880 0.75980 0.03400
H 	H 	0.29840 0.88070 0.85430 0.07300
C 	C 	0.27670 0.11660 0.78260 0.42100
O 	O 	0.29500 0.17720 0.79590 -0.45400
O 	O 	0.25200 0.12350 0.74880 -0.43800
C 	C 	0.25020 0.85990 0.78590 0.37700
O 	O 	0.26700 0.79780 0.79760 -0.40300
O 	O 	0.21300 0.85500 0.75550 -0.36700
Cu	Cu	0.29680 0.26210 0.77770 0.94200
C 	C 	0.56810 0.02330 0.96640 -0.08700
C 	C 	0.63630 0.04750 0.96640 0.01100
H 	H 	0.54470 0.01500 0.94330 0.05800
C 	C 	0.67510 0.06090 0.92790 0.18900
O 	O 	0.72600 0.10600 0.92850 -0.19500
N 	N 	0.67100 0.00800 0.90290 -0.21600
H 	H 	0.64300 0.97300 0.90900 0.12900
C 	C 	0.68670 0.01350 0.85880 0.07000
C 	C 	0.69250 0.95000 0.83950 -0.02000
C 	C 	0.71720 0.94920 0.80260 -0.13500
C 	C 	0.73610 0.01180 0.78490 0.07300
C 	C 	0.73020 0.07530 0.80420 -0.12000
C 	C 	0.70550 0.07610 0.84120 -0.02600
H 	H 	0.67970 0.90740 0.85150 0.05900
H 	H 	0.75290 0.01120 0.75980 0.03400
H 	H 	0.70160 0.11930 0.85430 0.07300
C 	C 	0.72330 0.88340 0.78260 0.42100
O 	O 	0.70500 0.82280 0.79590 -0.45400
O 	O 	0.74800 0.87650 0.74880 -0.43800
C 	C 	0.74980 0.14010 0.78590 0.37700
O 	O 	0.73300 0.20220 0.79760 -0.40300
O 	O 	0.78700 0.14500 0.75550 -0.36700
Cu	Cu	0.70320 0.73790 0.77770 0.94200
C 	C 	0.52330 0.06810 0.53360 -0.08900
C 	C 	0.54750 0.13630 0.53360 0.01000
H 	H 	0.51500 0.04470 0.55670 0.05800
C 	C 	0.56090 0.17510 0.57210 0.18900
O 	O 	0.60600 0.22600 0.57150 -0.19600
N 	N 	0.50800 0.17100 0.59710 -0.21600
H 	H 	0.47300 0.14300 0.59100 0.12900
C 	C 	0.51350 0.18670 0.64120 0.06900
C 	C 	0.45000 0.19250 0.66050 -0.02000
C 	C 	0.44920 0.21720 0.69740 -0.13500
C 	C 	0.51180 0.23610 0.71510 0.07300
C 	C 	0.57530 0.23020 0.69580 -0.12000
C 	C 	0.57610 0.20550 0.65880 -0.02600
H 	H 	0.40740 0.17970 0.64850 0.05900
H 	H 	0.51120 0.25290 0.74020 0.03400
H 	H 	0.61930 0.20160 0.64570 0.07200
C 	C 	0.38340 0.22330 0.71740 0.42100
O 	O 	0.32280 0.20500 0.70410 -0.45400
O 	O 	0.37650 0.24800 0.75120 -0.43800
C 	C 	0.64010 0.24980 0.71410 0.37700
O 	O 	0.70220 0.23300 0.70240 -0.40400
O 	O 	0.64500 0.28700 0.74450 -0.36700
Cu	Cu	0.23790 0.20320 0.72230 0.94200
C 	C 	0.47670 0.93190 0.53360 -0.08900
C 	C 	0.45250 0.86370 0.53360 0.01000
H 	H 	0.48500 0.95530 0.55670 0.05800
C 	C 	0.43910 0.82490 0.57210 0.18900
O 	O 	0.39400 0.77400 0.57150 -0.19600
N 	N 	0.49200 0.82900 0.59710 -0.21600
H 	H 	0.52700 0.85700 0.59100 0.12900
C 	C 	0.48650 0.81330 0.64120 0.06900
C 	C 	0.55000 0.80750 0.66050 -0.02000
C 	C 	0.55080 0.78280 0.69740 -0.13500
C 	C 	0.48820 0.76390 0.71510 0.07300
C 	C 	0.42470 0.76980 0.69580 -0.12000
C 	C 	0.42390 0.79450 0.65880 -0.02600
H 	H 	0.59260 0.82030 0.64850 0.05900
H 	H 	0.48880 0.74710 0.74020 0.03400
H 	H 	0.38070 0.79840 0.64570 0.07200
C 	C 	0.61660 0.77670 0.71740 0.42100
O 	O 	0.67720 0.79500 0.70410 -0.45400
O 	O 	0.62350 0.75200 0.75120 -0.43800
C 	C 	0.35990 0.75020 0.71410 0.37700
O 	O 	0.29780 0.76700 0.70240 -0.40400
O 	O 	0.35500 0.71300 0.74450 -0.36700
Cu	Cu	0.76210 0.79680 0.72230 0.94200
C 	C 	0.06810 0.47670 0.53360 -0.08900
C 	C 	0.13630 0.45250 0.53360 0.01000
H 	H 	0.04470 0.48500 0.55670 0.05800
C 	C 	0.17510 0.43910 0.57210 0.18900
O 	O 	0.22600 0.39400 0.57150 -0.19600
N 	N 	0.17100 0.49200 0.59710 -0.21600
H 	H 	0.14300 0.52700 0.59100 0.12900
C 	C 	0.18670 0.48650 0.64120 0.06900
C 	C 	0.19250 0.55000 0.66050 -0.02000
C 	C 	0.21720 0.55080 0.69740 -0.13500
C 	C 	0.23610 0.48820 0.71510 0.07300
C 	C 	0.23020 0.42470 0.69580 -0.12000
C 	C 	0.20550 0.42390 0.65880 -0.02600
H 	H 	0.17970 0.59260 0.64850 0.05900
H 	H 	0.25290 0.48880 0.74020 0.03400
H 	H 	0.20160 0.38070 0.64570 0.07200
C 	C 	0.22330 0.61660 0.71740 0.42100
O 	O 	0.20500 0.67720 0.70410 -0.45400
O 	O 	0.24800 0.62350 0.75120 -0.43800
C 	C 	0.24980 0.35990 0.71410 0.37700
O 	O 	0.23300 0.29780 0.70240 -0.40400
O 	O 	0.28700 0.35500 0.74450 -0.36700
Cu	Cu	0.20320 0.76210 0.72230 0.94200
C 	C 	0.93190 0.52330 0.53360 -0.08900
C 	C 	0.86370 0.54750 0.53360 0.01000
H 	H 	0.95530 0.51500 0.55670 0.05800
C 	C 	0.82490 0.56090 0.57210 0.18900
O 	O 	0.77400 0.60600 0.57150 -0.19600
N 	N 	0.82900 0.50800 0.59710 -0.21600
H 	H 	0.85700 0.47300 0.59100 0.12900
C 	C 	0.81330 0.51350 0.64120 0.06900
C 	C 	0.80750 0.45000 0.66050 -0.02000
C 	C 	0.78280 0.44920 0.69740 -0.13500
C 	C 	0.76390 0.51180 0.71510 0.07300
C 	C 	0.76980 0.57530 0.69580 -0.12000
C 	C 	0.79450 0.57610 0.65880 -0.02600
H 	H 	0.82030 0.40740 0.64850 0.05900
H 	H 	0.74710 0.51120 0.74020 0.03400
H 	H 	0.79840 0.61930 0.64570 0.07200
C 	C 	0.77670 0.38340 0.71740 0.42100
O 	O 	0.79500 0.32280 0.70410 -0.45400
O 	O 	0.75200 0.37650 0.75120 -0.43800
C 	C 	0.75020 0.64010 0.71410 0.37700
O 	O 	0.76700 0.70220 0.70240 -0.40400
O 	O 	0.71300 0.64500 0.74450 -0.36700
Cu	Cu	0.79680 0.23790 0.72230 0.94200
C 	C 	0.01120 0.46590 -0.00000 0.03800
C 	C 	0.05950 0.32960 -0.00000 -0.06800
H 	H 	0.07600 0.28260 -0.00000 0.09000
C 	C 	0.98880 0.53410 -0.00000 0.03800
C 	C 	0.94050 0.67040 -0.00000 -0.06800
H 	H 	0.92400 0.71740 -0.00000 0.09000
C 	C 	0.53410 0.01120 -0.00000 0.03800
C 	C 	0.67040 0.05950 -0.00000 -0.06800
H 	H 	0.71740 0.07600 -0.00000 0.09000
C 	C 	0.46590 0.98880 -0.00000 0.03800
C 	C 	0.32960 0.94050 -0.00000 -0.06800
H 	H 	0.28260 0.92400 -0.00000 0.09000
C 	C 	0.48880 0.96590 0.50000 0.03900
C 	C 	0.44050 0.82960 0.50000 -0.06600
H 	H 	0.42400 0.78260 0.50000 0.09000
C 	C 	0.51120 0.03410 0.50000 0.03900
C 	C 	0.55950 0.17040 0.50000 -0.06600
H 	H 	0.57600 0.21740 0.50000 0.09000
C 	C 	0.96590 0.51120 0.50000 0.03900
C 	C 	0.82960 0.55950 0.50000 -0.06600
H 	H 	0.78260 0.57600 0.50000 0.09000
C 	C 	0.03410 0.48880 0.50000 0.03900
C 	C 	0.17040 0.44050 0.50000 -0.06600
H 	H 	0.21740 0.42400 0.50000 0.09000
