data_crystal

_cell_length_a 18.74710
_cell_length_b 18.74710
_cell_length_c 34.83390
_cell_angle_alpha 90.00000
_cell_angle_beta  90.00000
_cell_angle_gamma 90.00000

_symmetry_space_group_name_	'P 1'
_symmetry_space_group_name_H-M	'P 1'

loop_
_symmetry_equiv_pos_as_xyz
  x,y,z

loop_
_atom_site_label
_atom_site_type_symbol
_atom_site_fract_x
_atom_site_fract_y
_atom_site_fract_z
_atom_site_charge
C 	C 	0.02300 0.43130 0.03400 -0.07200
C 	C 	0.05080 0.36370 0.03400 -0.00200
H 	H 	0.01360 0.45430 0.05720 0.05500
C 	C 	0.05620 0.31510 0.07000 0.20600
O 	O 	0.11100 0.27900 0.07580 -0.20400
N 	N 	0.00900 0.33100 0.09680 -0.22100
H 	H 	0.98200 0.36700 0.09220 0.13400
C 	C 	0.01390 0.30380 0.14020 0.08000
C 	C 	0.94850 0.29880 0.16080 -0.03300
C 	C 	0.94890 0.27870 0.20030 -0.11200
C 	C 	0.01470 0.26370 0.21910 0.04900
C 	C 	0.08010 0.26870 0.19840 -0.10000
C 	C 	0.07970 0.28880 0.15900 -0.03600
H 	H 	0.90560 0.30860 0.14860 0.07100
H 	H 	0.01490 0.25050 0.24480 0.05300
H 	H 	0.12240 0.29220 0.14550 0.08700
C 	C 	0.88510 0.27370 0.22040 0.41200
O 	O 	0.82810 0.29500 0.20580 -0.46000
O 	O 	0.88360 0.24770 0.25340 -0.43300
C 	C 	0.14430 0.25410 0.21680 0.38100
O 	O 	0.20230 0.26930 0.20120 -0.39900
O 	O 	0.14500 0.22550 0.24920 -0.38400
Cu	Cu	0.79480 0.24190 0.27400 0.91300
C 	C 	0.97700 0.56870 0.03400 -0.07300
C 	C 	0.94920 0.63630 0.03400 -0.00300
H 	H 	0.98640 0.54570 0.05720 0.05400
C 	C 	0.94380 0.68490 0.07000 0.20500
O 	O 	0.88900 0.72100 0.07580 -0.20500
N 	N 	0.99100 0.66900 0.09680 -0.22200
H 	H 	0.01800 0.63300 0.09220 0.13300
C 	C 	0.98610 0.69620 0.14020 0.07900
C 	C 	0.05150 0.70120 0.16080 -0.03400
C 	C 	0.05110 0.72130 0.20030 -0.11300
C 	C 	0.98530 0.73630 0.21910 0.04800
C 	C 	0.91990 0.73130 0.19840 -0.10100
C 	C 	0.92030 0.71120 0.15900 -0.03700
H 	H 	0.09440 0.69140 0.14860 0.07000
H 	H 	0.98510 0.74950 0.24480 0.05200
H 	H 	0.87760 0.70780 0.14550 0.08600
C 	C 	0.11490 0.72630 0.22040 0.41200
O 	O 	0.17190 0.70500 0.20580 -0.46000
O 	O 	0.11640 0.75230 0.25340 -0.43300
C 	C 	0.85570 0.74590 0.21680 0.38100
O 	O 	0.79770 0.73070 0.20120 -0.39900
O 	O 	0.85500 0.77450 0.24920 -0.38400
Cu	Cu	0.20520 0.75810 0.27400 0.91300
C 	C 	0.56870 0.02300 0.03400 -0.07300
C 	C 	0.63630 0.05080 0.03400 -0.00300
H 	H 	0.54570 0.01360 0.05720 0.05400
C 	C 	0.68490 0.05620 0.07000 0.20500
O 	O 	0.72100 0.11100 0.07580 -0.20500
N 	N 	0.66900 0.00900 0.09680 -0.22200
H 	H 	0.63300 0.98200 0.09220 0.13300
C 	C 	0.69620 0.01390 0.14020 0.07900
C 	C 	0.70120 0.94850 0.16080 -0.03400
C 	C 	0.72130 0.94890 0.20030 -0.11300
C 	C 	0.73630 0.01470 0.21910 0.04800
C 	C 	0.73130 0.08010 0.19840 -0.10100
C 	C 	0.71120 0.07970 0.15900 -0.03700
H 	H 	0.69140 0.90560 0.14860 0.07000
H 	H 	0.74950 0.01490 0.24480 0.05200
H 	H 	0.70780 0.12240 0.14550 0.08600
C 	C 	0.72630 0.88510 0.22040 0.41200
O 	O 	0.70500 0.82810 0.20580 -0.46000
O 	O 	0.75230 0.88360 0.25340 -0.43300
C 	C 	0.74590 0.14430 0.21680 0.38100
O 	O 	0.73070 0.20230 0.20120 -0.39900
O 	O 	0.77450 0.14500 0.24920 -0.38400
Cu	Cu	0.75810 0.79480 0.27400 0.91300
C 	C 	0.43130 0.97700 0.03400 -0.07300
C 	C 	0.36370 0.94920 0.03400 -0.00300
H 	H 	0.45430 0.98640 0.05720 0.05400
C 	C 	0.31510 0.94380 0.07000 0.20500
O 	O 	0.27900 0.88900 0.07580 -0.20500
N 	N 	0.33100 0.99100 0.09680 -0.22200
H 	H 	0.36700 0.01800 0.09220 0.13300
C 	C 	0.30380 0.98610 0.14020 0.07900
C 	C 	0.29880 0.05150 0.16080 -0.03400
C 	C 	0.27870 0.05110 0.20030 -0.11300
C 	C 	0.26370 0.98530 0.21910 0.04800
C 	C 	0.26870 0.91990 0.19840 -0.10100
C 	C 	0.28880 0.92030 0.15900 -0.03700
H 	H 	0.30860 0.09440 0.14860 0.07000
H 	H 	0.25050 0.98510 0.24480 0.05200
H 	H 	0.29220 0.87760 0.14550 0.08600
C 	C 	0.27370 0.11490 0.22040 0.41200
O 	O 	0.29500 0.17190 0.20580 -0.46000
O 	O 	0.24770 0.11640 0.25340 -0.43300
C 	C 	0.25410 0.85570 0.21680 0.38100
O 	O 	0.26930 0.79770 0.20120 -0.39900
O 	O 	0.22550 0.85500 0.24920 -0.38400
Cu	Cu	0.24190 0.20520 0.27400 0.91300
C 	C 	0.47700 0.93130 0.46600 -0.07300
C 	C 	0.44920 0.86370 0.46600 -0.00300
H 	H 	0.48640 0.95430 0.44280 0.05400
C 	C 	0.44380 0.81510 0.43000 0.20500
O 	O 	0.38900 0.77900 0.42420 -0.20400
N 	N 	0.49100 0.83100 0.40320 -0.22200
H 	H 	0.51800 0.86700 0.40780 0.13300
C 	C 	0.48610 0.80380 0.35980 0.07900
C 	C 	0.55150 0.79880 0.33920 -0.03400
C 	C 	0.55110 0.77870 0.29970 -0.11300
C 	C 	0.48530 0.76370 0.28090 0.04800
C 	C 	0.41990 0.76870 0.30160 -0.10000
C 	C 	0.42030 0.78880 0.34100 -0.03700
H 	H 	0.59440 0.80860 0.35140 0.07100
H 	H 	0.48510 0.75050 0.25520 0.05200
H 	H 	0.37760 0.79220 0.35450 0.08600
C 	C 	0.61490 0.77370 0.27960 0.41200
O 	O 	0.67190 0.79500 0.29420 -0.46000
O 	O 	0.61640 0.74770 0.24660 -0.43300
C 	C 	0.35570 0.75410 0.28320 0.38100
O 	O 	0.29770 0.76930 0.29880 -0.39900
O 	O 	0.35500 0.72550 0.25080 -0.38400
Cu	Cu	0.70520 0.74190 0.22600 0.91300
C 	C 	0.52300 0.06870 0.46600 -0.07300
C 	C 	0.55080 0.13630 0.46600 -0.00300
H 	H 	0.51360 0.04570 0.44280 0.05400
C 	C 	0.55620 0.18490 0.43000 0.20500
O 	O 	0.61100 0.22100 0.42420 -0.20400
N 	N 	0.50900 0.16900 0.40320 -0.22200
H 	H 	0.48200 0.13300 0.40780 0.13300
C 	C 	0.51390 0.19620 0.35980 0.07900
C 	C 	0.44850 0.20120 0.33920 -0.03400
C 	C 	0.44890 0.22130 0.29970 -0.11300
C 	C 	0.51470 0.23630 0.28090 0.04800
C 	C 	0.58010 0.23130 0.30160 -0.10000
C 	C 	0.57970 0.21120 0.34100 -0.03700
H 	H 	0.40560 0.19140 0.35140 0.07100
H 	H 	0.51490 0.24950 0.25520 0.05200
H 	H 	0.62240 0.20780 0.35450 0.08600
C 	C 	0.38510 0.22630 0.27960 0.41200
O 	O 	0.32810 0.20500 0.29420 -0.46000
O 	O 	0.38360 0.25230 0.24660 -0.43300
C 	C 	0.64430 0.24590 0.28320 0.38100
O 	O 	0.70230 0.23070 0.29880 -0.39900
O 	O 	0.64500 0.27450 0.25080 -0.38400
Cu	Cu	0.29480 0.25810 0.22600 0.91300
C 	C 	0.93130 0.52300 0.46600 -0.07300
C 	C 	0.86370 0.55080 0.46600 -0.00300
H 	H 	0.95430 0.51360 0.44280 0.05400
C 	C 	0.81510 0.55620 0.43000 0.20500
O 	O 	0.77900 0.61100 0.42420 -0.20400
N 	N 	0.83100 0.50900 0.40320 -0.22200
H 	H 	0.86700 0.48200 0.40780 0.13300
C 	C 	0.80380 0.51390 0.35980 0.07900
C 	C 	0.79880 0.44850 0.33920 -0.03400
C 	C 	0.77870 0.44890 0.29970 -0.11300
C 	C 	0.76370 0.51470 0.28090 0.04800
C 	C 	0.76870 0.58010 0.30160 -0.10000
C 	C 	0.78880 0.57970 0.34100 -0.03700
H 	H 	0.80860 0.40560 0.35140 0.07100
H 	H 	0.75050 0.51490 0.25520 0.05200
H 	H 	0.79220 0.62240 0.35450 0.08600
C 	C 	0.77370 0.38510 0.27960 0.41200
O 	O 	0.79500 0.32810 0.29420 -0.46000
O 	O 	0.74770 0.38360 0.24660 -0.43300
C 	C 	0.75410 0.64430 0.28320 0.38100
O 	O 	0.76930 0.70230 0.29880 -0.39900
O 	O 	0.72550 0.64500 0.25080 -0.38400
Cu	Cu	0.74190 0.29480 0.22600 0.91300
C 	C 	0.06870 0.47700 0.46600 -0.07300
C 	C 	0.13630 0.44920 0.46600 -0.00300
H 	H 	0.04570 0.48640 0.44280 0.05400
C 	C 	0.18490 0.44380 0.43000 0.20500
O 	O 	0.22100 0.38900 0.42420 -0.20400
N 	N 	0.16900 0.49100 0.40320 -0.22200
H 	H 	0.13300 0.51800 0.40780 0.13300
C 	C 	0.19620 0.48610 0.35980 0.07900
C 	C 	0.20120 0.55150 0.33920 -0.03400
C 	C 	0.22130 0.55110 0.29970 -0.11300
C 	C 	0.23630 0.48530 0.28090 0.04800
C 	C 	0.23130 0.41990 0.30160 -0.10000
C 	C 	0.21120 0.42030 0.34100 -0.03700
H 	H 	0.19140 0.59440 0.35140 0.07100
H 	H 	0.24950 0.48510 0.25520 0.05200
H 	H 	0.20780 0.37760 0.35450 0.08600
C 	C 	0.22630 0.61490 0.27960 0.41200
O 	O 	0.20500 0.67190 0.29420 -0.46000
O 	O 	0.25230 0.61640 0.24660 -0.43300
C 	C 	0.24590 0.35570 0.28320 0.38100
O 	O 	0.23070 0.29770 0.29880 -0.39900
O 	O 	0.27450 0.35500 0.25080 -0.38400
Cu	Cu	0.25810 0.70520 0.22600 0.91300
C 	C 	0.97700 0.56870 0.96600 -0.07200
C 	C 	0.94920 0.63630 0.96600 -0.00200
H 	H 	0.98640 0.54570 0.94280 0.05400
C 	C 	0.94380 0.68490 0.93000 0.20500
O 	O 	0.88900 0.72100 0.92420 -0.20400
N 	N 	0.99100 0.66900 0.90320 -0.22200
H 	H 	0.01800 0.63300 0.90780 0.13300
C 	C 	0.98610 0.69620 0.85980 0.08000
C 	C 	0.05150 0.70120 0.83920 -0.03400
C 	C 	0.05110 0.72130 0.79970 -0.11300
C 	C 	0.98530 0.73630 0.78090 0.04800
C 	C 	0.91990 0.73130 0.80160 -0.10000
C 	C 	0.92030 0.71120 0.84100 -0.03700
H 	H 	0.09440 0.69140 0.85140 0.07100
H 	H 	0.98510 0.74950 0.75520 0.05200
H 	H 	0.87760 0.70780 0.85450 0.08600
C 	C 	0.11490 0.72630 0.77960 0.41200
O 	O 	0.17190 0.70500 0.79420 -0.46000
O 	O 	0.11640 0.75230 0.74660 -0.43300
C 	C 	0.85570 0.74590 0.78320 0.38100
O 	O 	0.79770 0.73070 0.79880 -0.39900
O 	O 	0.85500 0.77450 0.75080 -0.38400
Cu	Cu	0.20520 0.75810 0.72600 0.91300
C 	C 	0.02300 0.43130 0.96600 -0.07200
C 	C 	0.05080 0.36370 0.96600 -0.00200
H 	H 	0.01360 0.45430 0.94280 0.05400
C 	C 	0.05620 0.31510 0.93000 0.20500
O 	O 	0.11100 0.27900 0.92420 -0.20400
N 	N 	0.00900 0.33100 0.90320 -0.22200
H 	H 	0.98200 0.36700 0.90780 0.13300
C 	C 	0.01390 0.30380 0.85980 0.08000
C 	C 	0.94850 0.29880 0.83920 -0.03400
C 	C 	0.94890 0.27870 0.79970 -0.11300
C 	C 	0.01470 0.26370 0.78090 0.04800
C 	C 	0.08010 0.26870 0.80160 -0.10000
C 	C 	0.07970 0.28880 0.84100 -0.03700
H 	H 	0.90560 0.30860 0.85140 0.07100
H 	H 	0.01490 0.25050 0.75520 0.05200
H 	H 	0.12240 0.29220 0.85450 0.08600
C 	C 	0.88510 0.27370 0.77960 0.41200
O 	O 	0.82810 0.29500 0.79420 -0.46000
O 	O 	0.88360 0.24770 0.74660 -0.43300
C 	C 	0.14430 0.25410 0.78320 0.38100
O 	O 	0.20230 0.26930 0.79880 -0.39900
O 	O 	0.14500 0.22550 0.75080 -0.38400
Cu	Cu	0.79480 0.24190 0.72600 0.91300
C 	C 	0.43130 0.97700 0.96600 -0.07200
C 	C 	0.36370 0.94920 0.96600 -0.00200
H 	H 	0.45430 0.98640 0.94280 0.05400
C 	C 	0.31510 0.94380 0.93000 0.20500
O 	O 	0.27900 0.88900 0.92420 -0.20400
N 	N 	0.33100 0.99100 0.90320 -0.22200
H 	H 	0.36700 0.01800 0.90780 0.13300
C 	C 	0.30380 0.98610 0.85980 0.08000
C 	C 	0.29880 0.05150 0.83920 -0.03400
C 	C 	0.27870 0.05110 0.79970 -0.11300
C 	C 	0.26370 0.98530 0.78090 0.04800
C 	C 	0.26870 0.91990 0.80160 -0.10000
C 	C 	0.28880 0.92030 0.84100 -0.03700
H 	H 	0.30860 0.09440 0.85140 0.07100
H 	H 	0.25050 0.98510 0.75520 0.05200
H 	H 	0.29220 0.87760 0.85450 0.08600
C 	C 	0.27370 0.11490 0.77960 0.41200
O 	O 	0.29500 0.17190 0.79420 -0.46000
O 	O 	0.24770 0.11640 0.74660 -0.43300
C 	C 	0.25410 0.85570 0.78320 0.38100
O 	O 	0.26930 0.79770 0.79880 -0.39900
O 	O 	0.22550 0.85500 0.75080 -0.38400
Cu	Cu	0.24190 0.20520 0.72600 0.91300
C 	C 	0.56870 0.02300 0.96600 -0.07200
C 	C 	0.63630 0.05080 0.96600 -0.00200
H 	H 	0.54570 0.01360 0.94280 0.05400
C 	C 	0.68490 0.05620 0.93000 0.20500
O 	O 	0.72100 0.11100 0.92420 -0.20400
N 	N 	0.66900 0.00900 0.90320 -0.22200
H 	H 	0.63300 0.98200 0.90780 0.13300
C 	C 	0.69620 0.01390 0.85980 0.08000
C 	C 	0.70120 0.94850 0.83920 -0.03400
C 	C 	0.72130 0.94890 0.79970 -0.11300
C 	C 	0.73630 0.01470 0.78090 0.04800
C 	C 	0.73130 0.08010 0.80160 -0.10000
C 	C 	0.71120 0.07970 0.84100 -0.03700
H 	H 	0.69140 0.90560 0.85140 0.07100
H 	H 	0.74950 0.01490 0.75520 0.05200
H 	H 	0.70780 0.12240 0.85450 0.08600
C 	C 	0.72630 0.88510 0.77960 0.41200
O 	O 	0.70500 0.82810 0.79420 -0.46000
O 	O 	0.75230 0.88360 0.74660 -0.43300
C 	C 	0.74590 0.14430 0.78320 0.38100
O 	O 	0.73070 0.20230 0.79880 -0.39900
O 	O 	0.77450 0.14500 0.75080 -0.38400
Cu	Cu	0.75810 0.79480 0.72600 0.91300
C 	C 	0.52300 0.06870 0.53400 -0.07300
C 	C 	0.55080 0.13630 0.53400 -0.00300
H 	H 	0.51360 0.04570 0.55720 0.05400
C 	C 	0.55620 0.18490 0.57000 0.20500
O 	O 	0.61100 0.22100 0.57580 -0.20400
N 	N 	0.50900 0.16900 0.59680 -0.22200
H 	H 	0.48200 0.13300 0.59220 0.13300
C 	C 	0.51390 0.19620 0.64020 0.07900
C 	C 	0.44850 0.20120 0.66080 -0.03400
C 	C 	0.44890 0.22130 0.70030 -0.11300
C 	C 	0.51470 0.23630 0.71910 0.04800
C 	C 	0.58010 0.23130 0.69840 -0.10000
C 	C 	0.57970 0.21120 0.65900 -0.03700
H 	H 	0.40560 0.19140 0.64860 0.07100
H 	H 	0.51490 0.24950 0.74480 0.05200
H 	H 	0.62240 0.20780 0.64550 0.08600
C 	C 	0.38510 0.22630 0.72040 0.41200
O 	O 	0.32810 0.20500 0.70580 -0.46000
O 	O 	0.38360 0.25230 0.75340 -0.43300
C 	C 	0.64430 0.24590 0.71680 0.38100
O 	O 	0.70230 0.23070 0.70120 -0.39900
O 	O 	0.64500 0.27450 0.74920 -0.38400
Cu	Cu	0.29480 0.25810 0.77400 0.91300
C 	C 	0.47700 0.93130 0.53400 -0.07300
C 	C 	0.44920 0.86370 0.53400 -0.00300
H 	H 	0.48640 0.95430 0.55720 0.05400
C 	C 	0.44380 0.81510 0.57000 0.20500
O 	O 	0.38900 0.77900 0.57580 -0.20400
N 	N 	0.49100 0.83100 0.59680 -0.22200
H 	H 	0.51800 0.86700 0.59220 0.13300
C 	C 	0.48610 0.80380 0.64020 0.07900
C 	C 	0.55150 0.79880 0.66080 -0.03400
C 	C 	0.55110 0.77870 0.70030 -0.11300
C 	C 	0.48530 0.76370 0.71910 0.04800
C 	C 	0.41990 0.76870 0.69840 -0.10000
C 	C 	0.42030 0.78880 0.65900 -0.03700
H 	H 	0.59440 0.80860 0.64860 0.07100
H 	H 	0.48510 0.75050 0.74480 0.05200
H 	H 	0.37760 0.79220 0.64550 0.08600
C 	C 	0.61490 0.77370 0.72040 0.41200
O 	O 	0.67190 0.79500 0.70580 -0.46000
O 	O 	0.61640 0.74770 0.75340 -0.43300
C 	C 	0.35570 0.75410 0.71680 0.38100
O 	O 	0.29770 0.76930 0.70120 -0.39900
O 	O 	0.35500 0.72550 0.74920 -0.38400
Cu	Cu	0.70520 0.74190 0.77400 0.91300
C 	C 	0.06870 0.47700 0.53400 -0.07300
C 	C 	0.13630 0.44920 0.53400 -0.00300
H 	H 	0.04570 0.48640 0.55720 0.05400
C 	C 	0.18490 0.44380 0.57000 0.20500
O 	O 	0.22100 0.38900 0.57580 -0.20400
N 	N 	0.16900 0.49100 0.59680 -0.22200
H 	H 	0.13300 0.51800 0.59220 0.13300
C 	C 	0.19620 0.48610 0.64020 0.07900
C 	C 	0.20120 0.55150 0.66080 -0.03400
C 	C 	0.22130 0.55110 0.70030 -0.11300
C 	C 	0.23630 0.48530 0.71910 0.04800
C 	C 	0.23130 0.41990 0.69840 -0.10000
C 	C 	0.21120 0.42030 0.65900 -0.03700
H 	H 	0.19140 0.59440 0.64860 0.07100
H 	H 	0.24950 0.48510 0.74480 0.05200
H 	H 	0.20780 0.37760 0.64550 0.08600
C 	C 	0.22630 0.61490 0.72040 0.41200
O 	O 	0.20500 0.67190 0.70580 -0.46000
O 	O 	0.25230 0.61640 0.75340 -0.43300
C 	C 	0.24590 0.35570 0.71680 0.38100
O 	O 	0.23070 0.29770 0.70120 -0.39900
O 	O 	0.27450 0.35500 0.74920 -0.38400
Cu	Cu	0.25810 0.70520 0.77400 0.91300
C 	C 	0.93130 0.52300 0.53400 -0.07300
C 	C 	0.86370 0.55080 0.53400 -0.00300
H 	H 	0.95430 0.51360 0.55720 0.05400
C 	C 	0.81510 0.55620 0.57000 0.20500
O 	O 	0.77900 0.61100 0.57580 -0.20400
N 	N 	0.83100 0.50900 0.59680 -0.22200
H 	H 	0.86700 0.48200 0.59220 0.13300
C 	C 	0.80380 0.51390 0.64020 0.07900
C 	C 	0.79880 0.44850 0.66080 -0.03400
C 	C 	0.77870 0.44890 0.70030 -0.11300
C 	C 	0.76370 0.51470 0.71910 0.04800
C 	C 	0.76870 0.58010 0.69840 -0.10000
C 	C 	0.78880 0.57970 0.65900 -0.03700
H 	H 	0.80860 0.40560 0.64860 0.07100
H 	H 	0.75050 0.51490 0.74480 0.05200
H 	H 	0.79220 0.62240 0.64550 0.08600
C 	C 	0.77370 0.38510 0.72040 0.41200
O 	O 	0.79500 0.32810 0.70580 -0.46000
O 	O 	0.74770 0.38360 0.75340 -0.43300
C 	C 	0.75410 0.64430 0.71680 0.38100
O 	O 	0.76930 0.70230 0.70120 -0.39900
O 	O 	0.72550 0.64500 0.74920 -0.38400
Cu	Cu	0.74190 0.29480 0.77400 0.91300
C 	C 	0.00920 0.46510 -0.00000 0.03000
C 	C 	0.06460 0.33000 -0.00000 -0.05700
H 	H 	0.08350 0.28410 -0.00000 0.07900
C 	C 	0.99080 0.53490 -0.00000 0.03000
C 	C 	0.93540 0.67000 -0.00000 -0.05700
H 	H 	0.91650 0.71590 -0.00000 0.07900
C 	C 	0.53490 0.00920 -0.00000 0.03000
C 	C 	0.67000 0.06460 -0.00000 -0.05700
H 	H 	0.71590 0.08350 -0.00000 0.07900
C 	C 	0.46510 0.99080 -0.00000 0.03000
C 	C 	0.33000 0.93540 -0.00000 -0.05700
H 	H 	0.28410 0.91650 -0.00000 0.07900
C 	C 	0.49080 0.96510 0.50000 0.03200
C 	C 	0.43540 0.83000 0.50000 -0.05500
H 	H 	0.41650 0.78410 0.50000 0.07900
C 	C 	0.50920 0.03490 0.50000 0.03200
C 	C 	0.56460 0.17000 0.50000 -0.05500
H 	H 	0.58350 0.21590 0.50000 0.07900
C 	C 	0.96510 0.50920 0.50000 0.03200
C 	C 	0.83000 0.56460 0.50000 -0.05500
H 	H 	0.78410 0.58350 0.50000 0.07900
C 	C 	0.03490 0.49080 0.50000 0.03200
C 	C 	0.17000 0.43540 0.50000 -0.05500
H 	H 	0.21590 0.41650 0.50000 0.07900
