data_crystal

_cell_length_a 9.52850
_cell_length_b 12.76000
_cell_length_c 18.89600
_cell_angle_alpha 106.72000
_cell_angle_beta  98.91000
_cell_angle_gamma 98.59000

_symmetry_space_group_name_	'P 1'
_symmetry_space_group_name_H-M	'P 1'

loop_
_symmetry_equiv_pos_as_xyz
  x,y,z

loop_
_atom_site_label
_atom_site_type_symbol
_atom_site_fract_x
_atom_site_fract_y
_atom_site_fract_z
_atom_site_charge
Pr	Pr	0.76770 0.98611 0.49706 2.05100
O 	O 	0.54530 0.96140 0.41139 -0.59000
O 	O 	0.31230 0.95920 0.38227 -0.52600
O 	O 	0.14370 0.94260 0.60099 -0.51000
O 	O 	0.90400 0.89470 0.57077 -0.53300
O 	O 	0.98850 0.11650 0.57177 -0.56700
O 	O 	0.22330 0.18190 0.60630 -0.48700
N 	N 	0.43250 0.82550 0.13200 -0.12900
N 	N 	0.00960 0.86340 0.82500 -0.12600
N 	N 	0.04250 0.40380 0.81980 -0.12800
C 	C 	0.43160 0.94560 0.36480 0.44500
C 	C 	0.55750 0.84760 0.18290 0.00500
H 	H 	0.64250 0.83560 0.16640 0.02300
C 	C 	0.56050 0.88740 0.25790 -0.02500
H 	H 	0.64730 0.90270 0.29270 0.04700
C 	C 	0.43370 0.90510 0.28260 -0.11600
C 	C 	0.30840 0.88460 0.22970 -0.02400
H 	H 	0.22250 0.89750 0.24490 0.05000
C 	C 	0.31050 0.84500 0.15430 0.00800
H 	H 	0.22570 0.83170 0.11840 0.03100
C 	C 	0.02460 0.91100 0.61320 0.44600
C 	C 	0.89070 0.87540 0.78420 0.00900
H 	H 	0.80620 0.87640 0.80300 0.01100
C 	C 	0.89180 0.88650 0.71420 -0.03600
H 	H 	0.80680 0.89060 0.68440 0.04100
C 	C 	0.01940 0.89170 0.68810 -0.09200
C 	C 	0.14180 0.87990 0.73190 -0.03300
H 	H 	0.22820 0.88120 0.71480 0.04300
C 	C 	0.13600 0.86620 0.80080 0.01700
H 	H 	0.21870 0.85900 0.83080 0.01800
C 	C 	0.09580 0.18350 0.61500 0.41700
C 	C 	0.17020 0.40210 0.80550 0.02600
H 	H 	0.25020 0.44790 0.84160 0.01000
C 	C 	0.19200 0.33470 0.73850 -0.03400
H 	H 	0.28510 0.33630 0.72910 0.04500
C 	C 	0.07510 0.26550 0.68580 -0.10800
C 	C 	0.93960 0.27250 0.70080 -0.01300
H 	H 	0.85770 0.22980 0.66480 0.02000
C 	C 	0.92410 0.34030 0.76690 0.00100
H 	H 	0.83170 0.34370 0.77640 0.02000
C 	C 	0.29430 0.74110 0.99790 -0.28500
C 	C 	0.23120 0.62620 0.97350 0.36600
C 	C 	0.09560 0.58800 0.92240 -0.29400
C 	C 	0.02580 0.66320 0.89580 0.37600
C 	C 	0.09000 0.77640 0.92360 -0.28800
C 	C 	0.22430 0.81630 0.97300 0.33900
C 	C 	0.30670 0.54880 0.00230 -0.87900
H 	H 	0.37220 0.52290 0.97050 0.27100
H 	H 	0.23660 0.48620 0.00190 0.28200
H 	H 	0.36020 0.58710 0.05290 0.28200
C 	C 	0.02270 0.46870 0.89640 0.06900
H 	H 	0.91970 0.46390 0.89510 -0.00200
H 	H 	0.06010 0.43420 0.93290 -0.00400
C 	C 	0.88510 0.62200 0.84030 -0.89600
H 	H 	0.89870 0.57260 0.79400 0.29400
H 	H 	0.85000 0.68430 0.83060 0.29300
H 	H 	0.81580 0.58260 0.86040 0.28100
C 	C 	0.00780 0.86020 0.90350 0.06100
H 	H 	0.90800 0.84140 0.90820 -0.00900
H 	H 	0.05050 0.93400 0.93920 -0.00000
C 	C 	0.29600 0.93950 0.00130 -0.80800
H 	H 	0.32360 0.96210 0.96020 0.25600
H 	H 	0.38050 0.95290 0.04020 0.26600
H 	H 	0.22770 0.98180 0.02130 0.26600
C 	C 	0.43840 0.78430 0.04890 0.06500
H 	H 	0.48950 0.84540 0.03570 -0.00900
H 	H 	0.49380 0.72550 0.04090 -0.00400
Pr	Pr	0.23230 0.01389 0.50294 2.05200
O 	O 	0.45470 0.03860 0.58861 -0.58900
O 	O 	0.68770 0.04080 0.61773 -0.52500
O 	O 	0.85630 0.05740 0.39901 -0.50900
O 	O 	0.09600 0.10530 0.42923 -0.53200
O 	O 	0.01150 0.88350 0.42823 -0.56600
O 	O 	0.77670 0.81810 0.39370 -0.48600
N 	N 	0.56750 0.17450 0.86800 -0.12800
N 	N 	0.99040 0.13660 0.17500 -0.12600
N 	N 	0.95750 0.59620 0.18020 -0.12800
C 	C 	0.56840 0.05440 0.63520 0.44500
C 	C 	0.44250 0.15240 0.81710 0.00500
H 	H 	0.35750 0.16440 0.83360 0.02300
C 	C 	0.43950 0.11260 0.74210 -0.02500
H 	H 	0.35270 0.09730 0.70730 0.04700
C 	C 	0.56630 0.09490 0.71740 -0.11600
C 	C 	0.69160 0.11540 0.77030 -0.02400
H 	H 	0.77750 0.10250 0.75510 0.05000
C 	C 	0.68950 0.15500 0.84570 0.00800
H 	H 	0.77430 0.16830 0.88160 0.03100
C 	C 	0.97540 0.08900 0.38680 0.44600
C 	C 	0.10930 0.12460 0.21580 0.00900
H 	H 	0.19380 0.12360 0.19700 0.01100
C 	C 	0.10820 0.11350 0.28580 -0.03600
H 	H 	0.19320 0.10940 0.31560 0.04100
C 	C 	0.98060 0.10830 0.31190 -0.09200
C 	C 	0.85820 0.12010 0.26810 -0.03300
H 	H 	0.77180 0.11880 0.28520 0.04300
C 	C 	0.86400 0.13380 0.19920 0.01700
H 	H 	0.78130 0.14100 0.16920 0.01800
C 	C 	0.90420 0.81650 0.38500 0.41700
C 	C 	0.82980 0.59790 0.19450 0.02600
H 	H 	0.74980 0.55210 0.15840 0.01000
C 	C 	0.80800 0.66530 0.26150 -0.03400
H 	H 	0.71490 0.66370 0.27090 0.04500
C 	C 	0.92490 0.73450 0.31420 -0.10800
C 	C 	0.06040 0.72750 0.29920 -0.01300
H 	H 	0.14230 0.77020 0.33520 0.02000
C 	C 	0.07590 0.65970 0.23310 0.00100
H 	H 	0.16830 0.65630 0.22360 0.02000
C 	C 	0.70570 0.25890 0.00210 -0.28500
C 	C 	0.76880 0.37380 0.02650 0.36600
C 	C 	0.90440 0.41200 0.07760 -0.29400
C 	C 	0.97420 0.33680 0.10420 0.37600
C 	C 	0.91000 0.22360 0.07640 -0.28800
C 	C 	0.77570 0.18370 0.02700 0.33900
C 	C 	0.69330 0.45120 0.99770 -0.87900
H 	H 	0.62780 0.47710 0.02950 0.27100
H 	H 	0.76340 0.51380 0.99810 0.28200
H 	H 	0.63980 0.41290 0.94710 0.28200
C 	C 	0.97730 0.53130 0.10360 0.06900
H 	H 	0.08030 0.53610 0.10490 -0.00200
H 	H 	0.93990 0.56580 0.06710 -0.00400
C 	C 	0.11490 0.37800 0.15970 -0.89600
H 	H 	0.10130 0.42740 0.20600 0.29400
H 	H 	0.15000 0.31570 0.16940 0.29300
H 	H 	0.18420 0.41740 0.13960 0.28100
C 	C 	0.99220 0.13980 0.09650 0.06100
H 	H 	0.09200 0.15860 0.09180 -0.00900
H 	H 	0.94950 0.06600 0.06080 -0.00000
C 	C 	0.70400 0.06050 0.99870 -0.80800
H 	H 	0.67640 0.03790 0.03980 0.25600
H 	H 	0.61950 0.04710 0.95980 0.26600
H 	H 	0.77230 0.01820 0.97870 0.26600
C 	C 	0.56160 0.21570 0.95110 0.06500
H 	H 	0.51050 0.15460 0.96430 -0.00900
H 	H 	0.50620 0.27450 0.95910 -0.00400
