data_crystal

_cell_length_a 9.47550
_cell_length_b 13.07290
_cell_length_c 18.45820
_cell_angle_alpha 107.50600
_cell_angle_beta  96.57400
_cell_angle_gamma 98.23100

_symmetry_space_group_name_	'P 1'
_symmetry_space_group_name_H-M	'P 1'

loop_
_symmetry_equiv_pos_as_xyz
  x,y,z

loop_
_atom_site_label
_atom_site_type_symbol
_atom_site_fract_x
_atom_site_fract_y
_atom_site_fract_z
_atom_site_charge
Yb	Yb	0.76572 0.49406 0.99720 1.53100
O 	O 	0.56470 0.46320 0.91180 -0.48800
O 	O 	0.32600 0.44530 0.88991 -0.45400
O 	O 	0.13150 0.45090 0.09790 -0.42400
O 	O 	0.88940 0.41680 0.07360 -0.43300
O 	O 	0.19630 0.66110 0.09650 -0.41600
O 	O 	0.95680 0.62420 0.06890 -0.44700
N 	N 	0.44340 0.32910 0.62760 -0.12700
N 	N 	0.99870 0.36040 0.32450 -0.12700
N 	N 	0.04610 0.90700 0.32380 -0.13100
C 	C 	0.44600 0.44080 0.86940 0.40400
C 	C 	0.44630 0.40370 0.78350 -0.07800
C 	C 	0.32000 0.38440 0.73230 -0.04600
H 	H 	0.23450 0.39700 0.75050 0.05700
C 	C 	0.32050 0.34640 0.65390 0.01600
H 	H 	0.23510 0.33280 0.61940 0.02600
C 	C 	0.56800 0.34910 0.67590 0.02000
H 	H 	0.65250 0.33770 0.65610 0.01800
C 	C 	0.57300 0.38630 0.75460 -0.05000
H 	H 	0.66000 0.39950 0.78790 0.06300
C 	C 	0.45020 0.29010 0.54160 0.03800
H 	H 	0.49790 0.35040 0.52750 -0.00100
H 	H 	0.50760 0.23310 0.53100 0.00400
C 	C 	0.30190 0.24670 0.49300 -0.25000
C 	C 	0.22500 0.31880 0.46930 0.33200
C 	C 	0.08790 0.27580 0.42360 -0.27000
C 	C 	0.99750 0.35390 0.40480 0.05800
H 	H 	0.89850 0.33100 0.41040 -0.00600
H 	H 	0.03320 0.42620 0.44180 -0.00300
C 	C 	0.87710 0.36880 0.28450 0.02300
H 	H 	0.79140 0.36280 0.30430 0.01100
C 	C 	0.87600 0.38600 0.21480 -0.04700
H 	H 	0.79030 0.39110 0.18720 0.05200
C 	C 	0.00420 0.39570 0.18590 -0.06700
C 	C 	0.00890 0.42370 0.11210 0.38400
C 	C 	0.13000 0.38570 0.22860 -0.05200
H 	H 	0.21740 0.39190 0.21050 0.05400
C 	C 	0.12350 0.36650 0.29710 0.02600
H 	H 	0.20650 0.35770 0.32500 0.01600
C 	C 	0.02930 0.16440 0.39990 0.35100
C 	C 	0.10750 0.09420 0.42410 -0.25600
C 	C 	0.03490 0.97640 0.40330 0.04200
H 	H 	0.07770 0.94560 0.44030 0.00800
H 	H 	0.93340 0.97350 0.40770 0.00200
C 	C 	0.17440 0.89920 0.30220 0.03200
H 	H 	0.25680 0.94410 0.33480 0.01200
C 	C 	0.18910 0.82760 0.23360 -0.05500
H 	H 	0.27990 0.82210 0.22010 0.05400
C 	C 	0.06440 0.76300 0.18440 -0.06700
C 	C 	0.07380 0.67650 0.11000 0.38100
C 	C 	0.93260 0.77530 0.20600 -0.04900
H 	H 	0.84790 0.73540 0.17300 0.05500
C 	C 	0.92620 0.84700 0.27670 0.03000
H 	H 	0.83680 0.85380 0.29180 0.00800
C 	C 	0.24420 0.13460 0.47130 0.30900
C 	C 	0.33010 0.05910 0.49840 -0.78100
H 	H 	0.33340 0.07420 0.55280 0.25200
H 	H 	0.42670 0.07090 0.48760 0.24600
H 	H 	0.28430 0.98450 0.47180 0.25100
C 	C 	0.88320 0.12250 0.35080 -0.86300
H 	H 	0.84820 0.04960 0.35020 0.28000
H 	H 	0.88990 0.12220 0.29930 0.28800
H 	H 	0.81760 0.16890 0.37150 0.27600
C 	C 	0.28710 0.43890 0.49530 -0.83400
H 	H 	0.32560 0.45730 0.45390 0.26600
H 	H 	0.36290 0.45640 0.53870 0.27200
H 	H 	0.21250 0.47970 0.50980 0.27200
Yb	Yb	0.23428 0.50594 0.00280 1.53200
O 	O 	0.43530 0.53680 0.08820 -0.48700
O 	O 	0.67400 0.55470 0.11009 -0.45300
O 	O 	0.86850 0.54910 0.90210 -0.42300
O 	O 	0.11060 0.58320 0.92640 -0.43300
O 	O 	0.80370 0.33890 0.90350 -0.41600
O 	O 	0.04320 0.37580 0.93110 -0.44700
N 	N 	0.55660 0.67090 0.37240 -0.12700
N 	N 	0.00130 0.63960 0.67550 -0.12700
N 	N 	0.95390 0.09300 0.67620 -0.13100
C 	C 	0.55400 0.55920 0.13060 0.40400
C 	C 	0.55370 0.59630 0.21650 -0.07800
C 	C 	0.68000 0.61560 0.26770 -0.04600
H 	H 	0.76550 0.60300 0.24950 0.05700
C 	C 	0.67950 0.65360 0.34610 0.01600
H 	H 	0.76490 0.66720 0.38060 0.02600
C 	C 	0.43200 0.65090 0.32410 0.02000
H 	H 	0.34750 0.66230 0.34390 0.01800
C 	C 	0.42700 0.61370 0.24540 -0.05000
H 	H 	0.34000 0.60050 0.21210 0.06300
C 	C 	0.54980 0.70990 0.45840 0.03800
H 	H 	0.50210 0.64960 0.47250 -0.00100
H 	H 	0.49240 0.76690 0.46900 0.00400
C 	C 	0.69810 0.75330 0.50700 -0.25000
C 	C 	0.77500 0.68120 0.53070 0.33200
C 	C 	0.91210 0.72420 0.57640 -0.27000
C 	C 	0.00250 0.64610 0.59520 0.05800
H 	H 	0.10150 0.66900 0.58960 -0.00600
H 	H 	0.96680 0.57380 0.55820 -0.00300
C 	C 	0.12290 0.63120 0.71550 0.02300
H 	H 	0.20860 0.63720 0.69570 0.01100
C 	C 	0.12400 0.61400 0.78520 -0.04700
H 	H 	0.20970 0.60890 0.81280 0.05200
C 	C 	0.99580 0.60430 0.81410 -0.06700
C 	C 	0.99110 0.57630 0.88790 0.38400
C 	C 	0.87000 0.61430 0.77140 -0.05200
H 	H 	0.78260 0.60810 0.78950 0.05400
C 	C 	0.87650 0.63350 0.70290 0.02600
H 	H 	0.79350 0.64230 0.67500 0.01600
C 	C 	0.97070 0.83560 0.60010 0.35100
C 	C 	0.89250 0.90580 0.57590 -0.25600
C 	C 	0.96510 0.02360 0.59670 0.04200
H 	H 	0.92230 0.05440 0.55970 0.00800
H 	H 	0.06660 0.02650 0.59230 0.00200
C 	C 	0.82560 0.10080 0.69780 0.03200
H 	H 	0.74320 0.05590 0.66520 0.01200
C 	C 	0.81090 0.17240 0.76640 -0.05500
H 	H 	0.72010 0.17790 0.77990 0.05400
C 	C 	0.93560 0.23700 0.81560 -0.06700
C 	C 	0.92620 0.32350 0.89000 0.38100
C 	C 	0.06740 0.22470 0.79400 -0.04900
H 	H 	0.15210 0.26460 0.82700 0.05500
C 	C 	0.07380 0.15300 0.72330 0.03000
H 	H 	0.16320 0.14620 0.70820 0.00800
C 	C 	0.75580 0.86540 0.52870 0.30900
C 	C 	0.66990 0.94090 0.50160 -0.78100
H 	H 	0.66660 0.92580 0.44720 0.25200
H 	H 	0.57330 0.92910 0.51240 0.24600
H 	H 	0.71570 0.01550 0.52820 0.25100
C 	C 	0.11680 0.87750 0.64920 -0.86300
H 	H 	0.15180 0.95040 0.64980 0.28000
H 	H 	0.11010 0.87780 0.70070 0.28800
H 	H 	0.18240 0.83110 0.62850 0.27600
C 	C 	0.71290 0.56110 0.50470 -0.83400
H 	H 	0.67440 0.54270 0.54610 0.26600
H 	H 	0.63710 0.54360 0.46130 0.27200
H 	H 	0.78750 0.52030 0.49020 0.27200
