data_crystal

_cell_length_a 9.55220
_cell_length_b 12.93300
_cell_length_c 18.76370
_cell_angle_alpha 106.97200
_cell_angle_beta  98.24900
_cell_angle_gamma 97.79400

_symmetry_space_group_name_	'P 1'
_symmetry_space_group_name_H-M	'P 1'

loop_
_symmetry_equiv_pos_as_xyz
  x,y,z

loop_
_atom_site_label
_atom_site_type_symbol
_atom_site_fract_x
_atom_site_fract_y
_atom_site_fract_z
_atom_site_charge
Gd	Gd	0.23407 0.01044 0.50250 1.57300
O 	O 	0.44800 0.03880 0.58799 -0.50300
O 	O 	0.68220 0.04520 0.61450 -0.46400
O 	O 	0.85720 0.05160 0.40078 -0.43500
O 	O 	0.79270 0.82960 0.39834 -0.42800
O 	O 	0.09800 0.09520 0.42950 -0.45000
O 	O 	0.02960 0.88100 0.42938 -0.46900
N 	N 	0.56440 0.17660 0.86957 -0.12500
N 	N 	0.99000 0.13380 0.17500 -0.12500
C 	C 	0.56330 0.05690 0.63230 0.44300
N 	N 	0.95710 0.59340 0.18020 -0.12800
C 	C 	0.56280 0.09720 0.71690 -0.10100
C 	C 	0.93070 0.73600 0.31590 -0.09500
C 	C 	0.98020 0.10150 0.31210 -0.08200
C 	C 	0.90850 0.22260 0.07700 -0.26600
C 	C 	0.68900 0.11890 0.76890 -0.03100
H 	H 	0.77410 0.10540 0.75250 0.05000
C 	C 	0.91780 0.82210 0.38830 0.42100
C 	C 	0.97740 0.08070 0.38740 0.42200
C 	C 	0.77430 0.18350 0.02840 0.33400
C 	C 	0.68850 0.16110 0.84590 0.00800
H 	H 	0.77410 0.17860 0.88110 0.03000
C 	C 	0.90010 0.40890 0.07930 -0.25400
C 	C 	0.85840 0.11420 0.26890 -0.04000
H 	H 	0.77170 0.11120 0.28590 0.04600
C 	C 	0.43620 0.11360 0.74280 -0.03100
H 	H 	0.34940 0.09720 0.70860 0.05400
C 	C 	0.96930 0.33460 0.10430 0.33300
C 	C 	0.70410 0.25940 0.00410 -0.26200
C 	C 	0.10820 0.10700 0.28570 -0.04200
H 	H 	0.19260 0.10170 0.31490 0.04700
C 	C 	0.76610 0.37160 0.02750 0.31600
C 	C 	0.81130 0.66930 0.26470 -0.04000
H 	H 	0.71960 0.67120 0.27570 0.04700
C 	C 	0.06530 0.72470 0.29880 -0.02500
H 	H 	0.14800 0.76510 0.33360 0.03700
C 	C 	0.83040 0.59980 0.19700 0.02600
H 	H 	0.74980 0.55600 0.16200 0.01400
C 	C 	0.44000 0.15430 0.81940 0.00900
H 	H 	0.35550 0.16650 0.83690 0.02100
C 	C 	0.86560 0.13130 0.20070 0.01800
H 	H 	0.78380 0.14130 0.17200 0.01700
C 	C 	0.10880 0.12020 0.21540 0.01300
H 	H 	0.19300 0.11970 0.19600 0.01300
C 	C 	0.99280 0.14060 0.09660 0.04900
H 	H 	0.95400 0.06850 0.05990 0.00300
H 	H 	0.09210 0.16080 0.09230 -0.00100
C 	C 	0.55900 0.21840 0.95240 0.05400
H 	H 	0.50720 0.15950 0.96630 -0.00700
H 	H 	0.50490 0.27770 0.96060 0.00000
C 	C 	0.97550 0.52730 0.10370 0.03900
H 	H 	0.07750 0.52960 0.10390 0.00400
H 	H 	0.93870 0.56090 0.06670 0.00800
C 	C 	0.07630 0.65370 0.23040 0.01100
H 	H 	0.16660 0.64720 0.21860 0.01400
C 	C 	0.11130 0.37450 0.16000 -0.82500
H 	H 	0.09990 0.36060 0.20660 0.27600
H 	H 	0.14140 0.45210 0.16990 0.27100
H 	H 	0.18260 0.33610 0.13890 0.26400
C 	C 	0.70940 0.06360 0.99990 -0.83000
H 	H 	0.77060 0.02370 0.97050 0.27300
H 	H 	0.61630 0.05260 0.96870 0.27000
H 	H 	0.69970 0.03760 0.04220 0.26400
C 	C 	0.68890 0.45030 0.99930 -0.78800
H 	H 	0.73880 0.52440 0.02560 0.25400
H 	H 	0.59230 0.44220 0.00840 0.24600
H 	H 	0.68630 0.43430 0.94580 0.25500
Gd	Gd	0.76593 0.98956 0.49750 1.57300
O 	O 	0.55200 0.96120 0.41201 -0.50300
O 	O 	0.31780 0.95480 0.38550 -0.46400
O 	O 	0.14280 0.94840 0.59922 -0.43500
O 	O 	0.20730 0.17040 0.60166 -0.42800
O 	O 	0.90200 0.90480 0.57050 -0.45000
O 	O 	0.97040 0.11900 0.57062 -0.46900
N 	N 	0.43560 0.82340 0.13043 -0.12500
N 	N 	0.01000 0.86620 0.82500 -0.12500
C 	C 	0.43670 0.94310 0.36770 0.44300
N 	N 	0.04290 0.40660 0.81980 -0.12800
C 	C 	0.43720 0.90280 0.28310 -0.10100
C 	C 	0.06930 0.26400 0.68410 -0.09500
C 	C 	0.01980 0.89850 0.68790 -0.08200
C 	C 	0.09150 0.77740 0.92300 -0.26600
C 	C 	0.31100 0.88110 0.23110 -0.03100
H 	H 	0.22590 0.89460 0.24750 0.05000
C 	C 	0.08220 0.17790 0.61170 0.42100
C 	C 	0.02260 0.91930 0.61260 0.42200
C 	C 	0.22570 0.81650 0.97160 0.33400
C 	C 	0.31150 0.83890 0.15410 0.00800
H 	H 	0.22590 0.82140 0.11890 0.03000
C 	C 	0.09990 0.59110 0.92070 -0.25400
C 	C 	0.14160 0.88580 0.73110 -0.04000
H 	H 	0.22830 0.88880 0.71410 0.04600
C 	C 	0.56380 0.88640 0.25720 -0.03100
H 	H 	0.65060 0.90280 0.29140 0.05400
C 	C 	0.03070 0.66540 0.89570 0.33300
C 	C 	0.29590 0.74060 0.99590 -0.26200
C 	C 	0.89180 0.89300 0.71430 -0.04200
H 	H 	0.80740 0.89830 0.68510 0.04700
C 	C 	0.23390 0.62840 0.97250 0.31600
C 	C 	0.18870 0.33070 0.73530 -0.04000
H 	H 	0.28040 0.32880 0.72430 0.04700
C 	C 	0.93470 0.27530 0.70120 -0.02500
H 	H 	0.85200 0.23490 0.66640 0.03700
C 	C 	0.16960 0.40020 0.80300 0.02600
H 	H 	0.25020 0.44400 0.83800 0.01400
C 	C 	0.56000 0.84570 0.18060 0.00900
H 	H 	0.64450 0.83350 0.16310 0.02100
C 	C 	0.13440 0.86870 0.79930 0.01800
H 	H 	0.21620 0.85870 0.82800 0.01700
C 	C 	0.89120 0.87980 0.78460 0.01300
H 	H 	0.80700 0.88030 0.80400 0.01300
C 	C 	0.00720 0.85940 0.90340 0.04900
H 	H 	0.04600 0.93150 0.94010 0.00300
H 	H 	0.90790 0.83920 0.90770 -0.00100
C 	C 	0.44100 0.78160 0.04760 0.05400
H 	H 	0.49280 0.84050 0.03370 -0.00700
H 	H 	0.49510 0.72230 0.03940 0.00000
C 	C 	0.02450 0.47270 0.89630 0.03900
H 	H 	0.92250 0.47040 0.89610 0.00400
H 	H 	0.06130 0.43910 0.93330 0.00800
C 	C 	0.92370 0.34630 0.76960 0.01100
H 	H 	0.83340 0.35280 0.78140 0.01400
C 	C 	0.88870 0.62550 0.84000 -0.82500
H 	H 	0.90010 0.63940 0.79340 0.27600
H 	H 	0.85860 0.54790 0.83010 0.27100
H 	H 	0.81740 0.66390 0.86110 0.26400
C 	C 	0.29060 0.93640 0.00010 -0.83000
H 	H 	0.22940 0.97630 0.02950 0.27300
H 	H 	0.38370 0.94740 0.03130 0.27000
H 	H 	0.30030 0.96240 0.95780 0.26400
C 	C 	0.31110 0.54970 0.00070 -0.78800
H 	H 	0.26120 0.47560 0.97440 0.25400
H 	H 	0.40770 0.55780 0.99160 0.24600
H 	H 	0.31370 0.56570 0.05420 0.25500
