data_crystal

_cell_length_a 7.24700
_cell_length_b 14.98300
_cell_length_c 22.48900
_cell_angle_alpha 90.00000
_cell_angle_beta  90.90500
_cell_angle_gamma 90.00000

_symmetry_space_group_name_	'P 1'
_symmetry_space_group_name_H-M	'P 1'

loop_
_symmetry_equiv_pos_as_xyz
  x,y,z

loop_
_atom_site_label
_atom_site_type_symbol
_atom_site_fract_x
_atom_site_fract_y
_atom_site_fract_z
_atom_site_charge
Mn	Mn	0.75335 0.52676 0.76677 1.21900
Mn	Mn	0.74665 0.02676 0.73323 1.20100
Mn	Mn	0.24665 0.47324 0.23323 1.21400
Mn	Mn	0.25335 0.97324 0.26677 1.23200
Mn	Mn	0.50000 0.50000 0.50000 1.19300
Mn	Mn	-0.00000 0.00000 -0.00000 1.14800
H 	H 	0.67860 0.48900 0.62970 -0.04400
H 	H 	0.62310 0.70220 0.52990 -0.01600
H 	H 	0.70970 0.79100 0.61030 0.06600
H 	H 	0.75830 0.72270 0.70350 -0.01100
H 	H 	0.82140 0.98900 0.87030 0.02100
H 	H 	0.87690 0.20220 0.97010 0.00200
H 	H 	0.79030 0.29100 0.88970 0.06300
H 	H 	0.74170 0.22270 0.79650 -0.01300
H 	H 	0.32140 0.51100 0.37030 -0.04700
H 	H 	0.37690 0.29780 0.47010 -0.02000
H 	H 	0.29030 0.20900 0.38970 0.04800
H 	H 	0.24170 0.27730 0.29650 -0.02300
H 	H 	0.17860 0.01100 0.12970 -0.11000
H 	H 	0.12310 0.79780 0.02990 -0.03500
H 	H 	0.20970 0.70900 0.11030 0.05100
H 	H 	0.25830 0.77730 0.20350 -0.02100
W 	W 	0.23778 0.28623 0.67820 0.49700
W 	W 	0.26222 0.78623 0.82180 0.51400
W 	W 	0.76222 0.71377 0.32180 0.50600
W 	W 	0.73778 0.21377 0.17820 0.49000
C 	C 	0.45720 0.36940 0.71310 -0.02800
C 	C 	0.45770 0.19130 0.69340 -0.02300
C 	C 	0.07460 0.16900 0.69650 -0.07200
C 	C 	0.08610 0.39720 0.71440 -0.07500
C 	C 	0.31680 0.37920 0.60950 -0.03200
C 	C 	0.27120 0.20950 0.59740 -0.06100
C 	C 	0.98390 0.30250 0.62740 -0.01900
C 	C 	0.24200 0.26590 0.77350 -0.06000
C 	C 	0.67990 0.55220 0.62610 0.09600
C 	C 	0.65040 0.67540 0.56730 0.06600
C 	C 	0.69820 0.72820 0.61470 -0.13500
C 	C 	0.72980 0.68720 0.66960 0.07600
C 	C 	0.04280 0.86940 0.78690 -0.06100
C 	C 	0.04230 0.69130 0.80660 -0.05700
C 	C 	0.42540 0.66900 0.80350 -0.02600
C 	C 	0.41390 0.89720 0.78560 -0.02900
C 	C 	0.18320 0.87920 0.89050 -0.02000
C 	C 	0.22880 0.70950 0.90260 -0.04600
C 	C 	0.51610 0.80250 0.87260 -0.04100
C 	C 	0.25800 0.76590 0.72650 -0.05700
C 	C 	0.82010 0.05220 0.87390 0.01400
C 	C 	0.84960 0.17540 0.93270 0.06100
C 	C 	0.80180 0.22820 0.88530 -0.12400
C 	C 	0.77020 0.18720 0.83040 0.07000
C 	C 	0.54280 0.63060 0.28690 -0.03200
C 	C 	0.54230 0.80870 0.30660 -0.01800
C 	C 	0.92540 0.83100 0.30350 0.01600
C 	C 	0.91390 0.60280 0.28560 0.00100
C 	C 	0.68320 0.62080 0.39050 -0.01900
C 	C 	0.72880 0.79050 0.40260 -0.03900
C 	C 	0.01610 0.69750 0.37260 -0.08000
C 	C 	0.75800 0.73410 0.22650 -0.05100
C 	C 	0.32010 0.44780 0.37390 0.09100
C 	C 	0.34960 0.32460 0.43270 0.05800
C 	C 	0.30180 0.27180 0.38530 -0.13600
C 	C 	0.27020 0.31280 0.33040 0.06800
C 	C 	0.95720 0.13060 0.21310 0.00200
C 	C 	0.95770 0.30870 0.19340 0.01600
C 	C 	0.57460 0.33100 0.19650 -0.02800
C 	C 	0.58610 0.10280 0.21440 -0.04300
C 	C 	0.81680 0.12080 0.10950 -0.03100
C 	C 	0.77120 0.29050 0.09740 -0.05300
C 	C 	0.48390 0.19750 0.12740 -0.05700
C 	C 	0.74200 0.23410 0.27350 -0.05500
C 	C 	0.17990 0.94780 0.12610 0.17500
C 	C 	0.15040 0.82460 0.06730 0.06400
C 	C 	0.19820 0.77180 0.11470 -0.14700
C 	C 	0.22980 0.81280 0.16960 0.07500
N 	N 	0.56860 0.41760 0.73210 -0.24000
N 	N 	0.93310 0.63940 0.79580 -0.21600
N 	N 	0.51320 0.60690 0.79360 -0.24500
N 	N 	0.99720 0.45430 0.73390 -0.21700
N 	N 	0.36240 0.42570 0.57250 -0.25900
N 	N 	0.28720 0.16980 0.55470 -0.11900
N 	N 	0.85040 0.31330 0.60150 -0.12500
N 	N 	0.24740 0.25220 0.82390 -0.11300
N 	N 	0.72090 0.59860 0.67490 -0.24300
N 	N 	0.64130 0.58610 0.57290 -0.26500
N 	N 	0.93140 0.91760 0.76790 -0.20300
N 	N 	0.56690 0.13940 0.70420 -0.25100
N 	N 	0.98680 0.10690 0.70640 -0.22600
N 	N 	0.50280 0.95430 0.76610 -0.23000
N 	N 	0.13760 0.92570 0.92750 -0.23600
N 	N 	0.21280 0.66980 0.94530 -0.10000
N 	N 	0.64960 0.81330 0.89850 -0.10500
N 	N 	0.25260 0.75220 0.67610 -0.11000
N 	N 	0.77910 0.09860 0.82510 -0.23500
N 	N 	0.85870 0.08610 0.92710 -0.24200
N 	N 	0.43140 0.58240 0.26790 -0.24300
N 	N 	0.06690 0.36060 0.20420 -0.27600
N 	N 	0.48680 0.39310 0.20640 -0.24900
N 	N 	0.00280 0.54570 0.26610 -0.27500
N 	N 	0.63760 0.57430 0.42750 -0.25600
N 	N 	0.71280 0.83020 0.44530 -0.10000
N 	N 	0.14960 0.68670 0.39850 -0.11900
N 	N 	0.75260 0.74780 0.17610 -0.10300
N 	N 	0.27910 0.40140 0.32510 -0.24600
N 	N 	0.35870 0.41390 0.42710 -0.26600
N 	N 	0.06860 0.08240 0.23210 -0.28100
N 	N 	0.43310 0.86060 0.29580 -0.24000
N 	N 	0.01320 0.89310 0.29360 -0.26600
N 	N 	0.49720 0.04570 0.23390 -0.26200
N 	N 	0.86240 0.07430 0.07250 -0.26400
N 	N 	0.78720 0.33020 0.05470 -0.11900
N 	N 	0.35040 0.18670 0.10150 -0.13600
N 	N 	0.74740 0.24780 0.32390 -0.10700
N 	N 	0.22090 0.90140 0.17490 -0.25300
N 	N 	0.14130 0.91390 0.07290 -0.27800
