data_crystal

_cell_length_a 15.04180
_cell_length_b 15.04180
_cell_length_c 11.96110
_cell_angle_alpha 90.00000
_cell_angle_beta  90.00000
_cell_angle_gamma 90.00000

_symmetry_space_group_name_	'P 1'
_symmetry_space_group_name_H-M	'P 1'

loop_
_symmetry_equiv_pos_as_xyz
  x,y,z

loop_
_atom_site_label
_atom_site_type_symbol
_atom_site_fract_x
_atom_site_fract_y
_atom_site_fract_z
_atom_site_charge
O 	O 	0.87610 0.13360 0.23610 -0.50900
O 	O 	0.84390 0.03950 0.37290 -0.43800
C 	C 	0.83880 0.11880 0.33180 0.41800
C 	C 	0.79370 0.18760 0.38990 -0.14900
C 	C 	0.74950 0.25330 0.33080 0.09700
C 	C 	0.79380 0.18900 0.50560 0.02800
C 	C 	0.70550 0.32040 0.38750 -0.15200
H 	H 	0.74940 0.25230 0.25310 0.04000
C 	C 	0.74970 0.25610 0.56226 -0.01800
H 	H 	0.82340 0.14490 0.54530 0.03500
C 	C 	0.70560 0.32180 0.50320 0.02800
C 	C 	0.66020 0.38770 0.32690 0.43000
H 	H 	0.67600 0.36680 0.54130 0.03900
O 	O 	0.64270 0.46380 0.37230 -0.53900
O 	O 	0.63520 0.37490 0.22470 -0.47800
O 	O 	0.12390 0.86640 0.73610 -0.51900
O 	O 	0.15610 0.96050 0.87290 -0.52100
C 	C 	0.16120 0.88120 0.83180 0.46000
C 	C 	0.20630 0.81240 0.88990 -0.25600
C 	C 	0.25050 0.74670 0.83080 0.18300
C 	C 	0.20620 0.81100 0.00560 0.14600
C 	C 	0.29450 0.67960 0.88750 -0.25300
H 	H 	0.25060 0.74770 0.75310 0.00600
C 	C 	0.25030 0.74390 0.06226 -0.09000
H 	H 	0.17660 0.85510 0.04530 -0.00300
C 	C 	0.29440 0.67820 0.00320 0.14400
C 	C 	0.33980 0.61230 0.82690 0.46600
H 	H 	0.32400 0.63320 0.04130 0.01000
O 	O 	0.35730 0.53620 0.87230 -0.55400
O 	O 	0.36480 0.62510 0.72470 -0.49100
O 	O 	0.86640 0.87610 0.48610 -0.53500
O 	O 	0.96050 0.84390 0.62290 -0.51400
C 	C 	0.88120 0.83880 0.58180 0.43200
C 	C 	0.81240 0.79370 0.63990 -0.18700
C 	C 	0.74670 0.74950 0.58080 0.11800
C 	C 	0.81100 0.79380 0.75560 0.05700
C 	C 	0.67960 0.70550 0.63750 -0.17700
H 	H 	0.74770 0.74940 0.50310 0.02300
C 	C 	0.74390 0.74970 0.81226 -0.06100
H 	H 	0.85510 0.82340 0.79530 0.00400
C 	C 	0.67820 0.70560 0.75320 0.05300
C 	C 	0.61230 0.66020 0.57690 0.43700
H 	H 	0.63320 0.67600 0.79130 0.02500
O 	O 	0.53620 0.64270 0.62230 -0.54200
O 	O 	0.62510 0.63520 0.47470 -0.48600
O 	O 	0.13360 0.12390 0.98610 -0.52700
O 	O 	0.03950 0.15610 0.12290 -0.43400
C 	C 	0.11880 0.16120 0.08180 0.46600
C 	C 	0.18760 0.20630 0.13990 -0.15600
C 	C 	0.25330 0.25050 0.08080 0.12100
C 	C 	0.18900 0.20620 0.25560 0.04300
C 	C 	0.32040 0.29450 0.13750 -0.16400
H 	H 	0.25230 0.25060 0.00310 0.04800
C 	C 	0.25610 0.25030 0.31226 -0.01700
H 	H 	0.14490 0.17660 0.29530 0.04200
C 	C 	0.32180 0.29440 0.25320 0.04400
C 	C 	0.38770 0.33980 0.07690 0.47500
H 	H 	0.36680 0.32400 0.29130 0.03700
O 	O 	0.46380 0.35730 0.12230 -0.53800
O 	O 	0.37490 0.36480 0.97470 -0.51500
O 	O 	0.12390 0.13360 0.76390 -0.48900
O 	O 	0.15610 0.03950 0.62710 -0.43000
C 	C 	0.16120 0.11880 0.66820 0.41800
C 	C 	0.20630 0.18760 0.61010 -0.13500
C 	C 	0.25050 0.25330 0.66920 0.09500
C 	C 	0.20620 0.18900 0.49440 0.02200
C 	C 	0.29450 0.32040 0.61250 -0.14400
H 	H 	0.25060 0.25230 0.74690 0.03900
C 	C 	0.25030 0.25610 0.43774 -0.00000
H 	H 	0.17660 0.14490 0.45470 0.05000
C 	C 	0.29440 0.32180 0.49680 0.02300
C 	C 	0.33980 0.38770 0.67310 0.43000
H 	H 	0.32400 0.36680 0.45870 0.04500
O 	O 	0.35730 0.46380 0.62770 -0.53400
O 	O 	0.36480 0.37490 0.77530 -0.47900
O 	O 	0.87610 0.86640 0.26390 -0.52500
O 	O 	0.84390 0.96050 0.12710 -0.49900
C 	C 	0.83880 0.88120 0.16820 0.39700
C 	C 	0.79370 0.81240 0.11010 -0.08500
C 	C 	0.74950 0.74670 0.16920 0.03400
C 	C 	0.79380 0.81100 0.99440 -0.06600
C 	C 	0.70550 0.67960 0.11250 -0.07400
H 	H 	0.74940 0.74770 0.24690 0.05300
C 	C 	0.74970 0.74390 0.93774 0.04100
H 	H 	0.82340 0.85510 0.95470 0.04200
C 	C 	0.70560 0.67820 0.99680 -0.07200
C 	C 	0.66020 0.61230 0.17310 0.40200
H 	H 	0.67600 0.63320 0.95870 0.06300
O 	O 	0.64270 0.53620 0.12770 -0.52600
O 	O 	0.63520 0.62510 0.27530 -0.47600
O 	O 	0.13360 0.87610 0.51390 -0.50800
O 	O 	0.03950 0.84390 0.37710 -0.43500
C 	C 	0.11880 0.83880 0.41820 0.41200
C 	C 	0.18760 0.79370 0.36010 -0.13300
C 	C 	0.25330 0.74950 0.41920 0.08100
C 	C 	0.18900 0.79380 0.24440 -0.00000
C 	C 	0.32040 0.70550 0.36250 -0.13500
H 	H 	0.25230 0.74940 0.49690 0.04200
C 	C 	0.25610 0.74970 0.18774 0.02800
H 	H 	0.14490 0.82340 0.20470 0.04900
C 	C 	0.32180 0.70560 0.24680 -0.00000
C 	C 	0.38770 0.66020 0.42310 0.42300
H 	H 	0.36680 0.67600 0.20870 0.05200
O 	O 	0.46380 0.64270 0.37770 -0.53600
O 	O 	0.37490 0.63520 0.52530 -0.47800
O 	O 	0.86640 0.12390 0.01390 -0.47700
O 	O 	0.96050 0.15610 0.87710 -0.50200
C 	C 	0.88120 0.16120 0.91820 0.38600
C 	C 	0.81240 0.20630 0.86010 -0.14000
C 	C 	0.74670 0.25050 0.91920 0.08000
C 	C 	0.81100 0.20620 0.74440 0.01700
C 	C 	0.67960 0.29450 0.86250 -0.13500
H 	H 	0.74770 0.25060 0.99690 0.02900
C 	C 	0.74390 0.25030 0.68774 -0.00600
H 	H 	0.85510 0.17660 0.70470 0.03300
C 	C 	0.67820 0.29440 0.74680 0.01400
C 	C 	0.61230 0.33980 0.92310 0.39000
H 	H 	0.63320 0.32400 0.70870 0.04600
O 	O 	0.53620 0.35730 0.87770 -0.53300
O 	O 	0.62510 0.36480 0.02530 -0.44900
V 	V 	0.93600 0.06400 0.12500 1.81400
V 	V 	0.06400 0.93600 0.62500 1.81500
V 	V 	0.93600 0.93600 0.37500 1.79000
V 	V 	0.06400 0.06400 0.87500 1.83200
O 	O 	0.97660 0.00000 0.25000 -0.65200
O 	O 	0.02340 0.00000 0.75000 -0.60100
O 	O 	-0.00000 0.97660 0.50000 -0.65400
O 	O 	-0.00000 0.02340 -0.00000 -0.57400
V 	V 	0.55600 0.55600 0.37500 1.80300
V 	V 	0.44400 0.44400 0.87500 1.79900
V 	V 	0.44400 0.55600 0.62500 1.80400
V 	V 	0.55600 0.44400 0.12500 1.80400
O 	O 	0.48780 0.50000 0.25000 -0.58900
O 	O 	0.51220 0.50000 0.75000 -0.59600
O 	O 	0.50000 0.48780 0.50000 -0.59000
O 	O 	0.50000 0.51220 -0.00000 -0.57200
