data_crystal

_cell_length_a 15.03930
_cell_length_b 15.03930
_cell_length_c 11.95870
_cell_angle_alpha 90.00000
_cell_angle_beta  90.00000
_cell_angle_gamma 90.00000

_symmetry_space_group_name_	'P 1'
_symmetry_space_group_name_H-M	'P 1'

loop_
_symmetry_equiv_pos_as_xyz
  x,y,z

loop_
_atom_site_label
_atom_site_type_symbol
_atom_site_fract_x
_atom_site_fract_y
_atom_site_fract_z
_atom_site_charge
C 	C 	0.75110 0.25510 0.56201 -0.02400
C 	C 	0.70790 0.32130 0.50330 0.03500
C 	C 	0.70930 0.32120 0.38780 -0.16500
C 	C 	0.75390 0.25480 0.33100 0.10900
C 	C 	0.79710 0.18850 0.38970 -0.16600
C 	C 	0.79570 0.18870 0.50520 0.03700
H 	H 	0.67780 0.36600 0.54150 0.03300
H 	H 	0.75480 0.25470 0.25320 0.03500
H 	H 	0.82480 0.14400 0.54480 0.03500
C 	C 	0.66540 0.38840 0.32820 0.42500
O 	O 	0.65000 0.46620 0.37160 -0.51600
O 	O 	0.63790 0.37700 0.22610 -0.47700
C 	C 	0.84230 0.12110 0.33210 0.42900
O 	O 	0.87700 0.13400 0.23380 -0.50800
O 	O 	0.85230 0.04180 0.37360 -0.45600
C 	C 	0.24890 0.74490 0.06201 -0.09800
C 	C 	0.29210 0.67870 0.00330 0.15500
C 	C 	0.29070 0.67880 0.88780 -0.26900
C 	C 	0.24610 0.74520 0.83100 0.20100
C 	C 	0.20290 0.81150 0.88970 -0.27700
C 	C 	0.20430 0.81130 0.00520 0.16000
H 	H 	0.32220 0.63400 0.04150 0.00300
H 	H 	0.24520 0.74530 0.75320 0.00000
H 	H 	0.17520 0.85600 0.04480 -0.00500
C 	C 	0.33460 0.61160 0.82820 0.46200
O 	O 	0.35000 0.53380 0.87160 -0.53100
O 	O 	0.36210 0.62300 0.72610 -0.49000
C 	C 	0.15770 0.87890 0.83210 0.47300
O 	O 	0.12300 0.86600 0.73380 -0.52000
O 	O 	0.14770 0.95820 0.87360 -0.53800
C 	C 	0.74490 0.75110 0.81201 -0.06700
C 	C 	0.67870 0.70790 0.75330 0.06300
C 	C 	0.67880 0.70930 0.63780 -0.19000
C 	C 	0.74520 0.75390 0.58100 0.13300
C 	C 	0.81150 0.79710 0.63970 -0.20400
C 	C 	0.81130 0.79570 0.75520 0.06800
H 	H 	0.63400 0.67780 0.79150 0.01900
H 	H 	0.74530 0.75480 0.50320 0.01800
H 	H 	0.85600 0.82480 0.79480 0.00400
C 	C 	0.61160 0.66540 0.57820 0.43200
O 	O 	0.53380 0.65000 0.62160 -0.51900
O 	O 	0.62300 0.63790 0.47610 -0.48500
C 	C 	0.87890 0.84230 0.58210 0.44300
O 	O 	0.86600 0.87700 0.48380 -0.53400
O 	O 	0.95820 0.85230 0.62360 -0.53000
C 	C 	0.25510 0.24890 0.31201 -0.02300
C 	C 	0.32130 0.29210 0.25330 0.05300
C 	C 	0.32120 0.29070 0.13780 -0.17800
C 	C 	0.25480 0.24610 0.08100 0.13500
C 	C 	0.18850 0.20290 0.13970 -0.17400
C 	C 	0.18870 0.20430 0.25520 0.05400
H 	H 	0.36600 0.32220 0.29150 0.03200
H 	H 	0.25470 0.24520 0.00320 0.04200
H 	H 	0.14400 0.17520 0.29480 0.04100
C 	C 	0.38840 0.33460 0.07820 0.46900
O 	O 	0.46620 0.35000 0.12160 -0.51400
O 	O 	0.37700 0.36210 0.97610 -0.51300
C 	C 	0.12110 0.15770 0.08210 0.47600
O 	O 	0.13400 0.12300 0.98380 -0.52800
O 	O 	0.04180 0.14770 0.12360 -0.45200
C 	C 	0.24890 0.25510 0.43799 -0.00500
C 	C 	0.29210 0.32130 0.49670 0.03100
C 	C 	0.29070 0.32120 0.61220 -0.15600
C 	C 	0.24610 0.25480 0.66900 0.10800
C 	C 	0.20290 0.18850 0.61030 -0.15100
C 	C 	0.20430 0.18870 0.49480 0.03100
H 	H 	0.32220 0.36600 0.45850 0.03900
H 	H 	0.24520 0.25470 0.74680 0.03400
H 	H 	0.17520 0.14400 0.45520 0.04900
C 	C 	0.33460 0.38840 0.67180 0.42400
O 	O 	0.35000 0.46620 0.62840 -0.51000
O 	O 	0.36210 0.37700 0.77390 -0.47800
C 	C 	0.15770 0.12110 0.66790 0.42900
O 	O 	0.12300 0.13400 0.76620 -0.49100
O 	O 	0.14770 0.04180 0.62640 -0.44800
C 	C 	0.75110 0.74490 0.93799 0.03900
C 	C 	0.70790 0.67870 0.99670 -0.06600
C 	C 	0.70930 0.67880 0.11220 -0.08300
C 	C 	0.75390 0.74520 0.16900 0.04400
C 	C 	0.79710 0.81150 0.11030 -0.09900
C 	C 	0.79570 0.81130 0.99480 -0.05800
H 	H 	0.67780 0.63400 0.95850 0.05800
H 	H 	0.75480 0.74530 0.24680 0.05000
H 	H 	0.82480 0.85600 0.95520 0.04300
C 	C 	0.66540 0.61160 0.17180 0.39400
O 	O 	0.65000 0.53380 0.12840 -0.50300
O 	O 	0.63790 0.62300 0.27390 -0.47400
C 	C 	0.84230 0.87890 0.16790 0.40600
O 	O 	0.87700 0.86600 0.26620 -0.52400
O 	O 	0.85230 0.95820 0.12640 -0.51600
C 	C 	0.25510 0.75110 0.18799 0.02500
C 	C 	0.32130 0.70790 0.24670 0.00600
C 	C 	0.32120 0.70930 0.36220 -0.14600
C 	C 	0.25480 0.75390 0.41900 0.09300
C 	C 	0.18850 0.79710 0.36030 -0.14700
C 	C 	0.18870 0.79570 0.24480 0.00800
H 	H 	0.36600 0.67780 0.20850 0.04700
H 	H 	0.25470 0.75480 0.49680 0.03800
H 	H 	0.14400 0.82480 0.20520 0.04900
C 	C 	0.38840 0.66540 0.42180 0.41700
O 	O 	0.46620 0.65000 0.37840 -0.51300
O 	O 	0.37700 0.63790 0.52390 -0.47700
C 	C 	0.12110 0.84230 0.41790 0.42200
O 	O 	0.13400 0.87700 0.51620 -0.50800
O 	O 	0.04180 0.85230 0.37640 -0.45400
C 	C 	0.74490 0.24890 0.68799 -0.01000
C 	C 	0.67870 0.29210 0.74670 0.02100
C 	C 	0.67880 0.29070 0.86220 -0.14600
C 	C 	0.74520 0.24610 0.91900 0.09300
C 	C 	0.81150 0.20290 0.86030 -0.15500
C 	C 	0.81130 0.20430 0.74480 0.02600
H 	H 	0.63400 0.32220 0.70850 0.04100
H 	H 	0.74530 0.24520 0.99680 0.02500
H 	H 	0.85600 0.17520 0.70520 0.03300
C 	C 	0.61160 0.33460 0.92180 0.38500
O 	O 	0.53380 0.35000 0.87840 -0.51000
O 	O 	0.62300 0.36210 0.02390 -0.44800
C 	C 	0.87890 0.15770 0.91790 0.39700
O 	O 	0.86600 0.12300 0.01620 -0.47900
O 	O 	0.95820 0.14770 0.87640 -0.51800
V 	V 	0.93700 0.06300 0.12500 1.81900
V 	V 	0.06300 0.93700 0.62500 1.82000
V 	V 	0.93700 0.93700 0.37500 1.79600
V 	V 	0.06300 0.06300 0.87500 1.83700
O 	O 	0.98180 0.00000 0.25000 -0.63200
O 	O 	0.01820 0.00000 0.75000 -0.58000
O 	O 	0.00000 0.98180 0.50000 -0.63400
O 	O 	0.00000 0.01820 -0.00000 -0.55300
V 	V 	0.55700 0.55700 0.37500 1.79600
V 	V 	0.44300 0.44300 0.87500 1.79200
V 	V 	0.44300 0.55700 0.62500 1.79600
V 	V 	0.55700 0.44300 0.12500 1.79700
O 	O 	0.49010 0.50000 0.25000 -0.60400
O 	O 	0.50990 0.50000 0.75000 -0.61100
O 	O 	0.50000 0.49010 0.50000 -0.60600
O 	O 	0.50000 0.50990 -0.00000 -0.58800
