data_crystal

_cell_length_a 16.34550
_cell_length_b 16.34550
_cell_length_c 21.86090
_cell_angle_alpha 68.04660
_cell_angle_beta  68.04660
_cell_angle_gamma 60.00000

_symmetry_space_group_name_	'P 1'
_symmetry_space_group_name_H-M	'P 1'

loop_
_symmetry_equiv_pos_as_xyz
  x,y,z

loop_
_atom_site_label
_atom_site_type_symbol
_atom_site_fract_x
_atom_site_fract_y
_atom_site_fract_z
_atom_site_charge
Mn	Mn	0.04530 0.30924 0.78211 1.27500
Mn	Mn	0.30924 0.86335 0.78211 1.27500
Mn	Mn	0.86335 0.04530 0.78211 1.27500
Mn	Mn	0.45470 0.63665 0.71789 1.27500
Mn	Mn	0.19076 0.45470 0.71789 1.27500
Mn	Mn	0.63665 0.19076 0.71789 1.27500
Mn	Mn	0.95470 0.69076 0.21789 1.27500
Mn	Mn	0.69076 0.13665 0.21789 1.27500
Mn	Mn	0.13665 0.95470 0.21789 1.27400
Mn	Mn	0.54530 0.36335 0.28211 1.27400
Mn	Mn	0.80924 0.54530 0.28211 1.27400
Mn	Mn	0.36335 0.80924 0.28211 1.27400
H 	H 	0.30610 0.30580 0.91450 0.03200
H 	H 	0.32010 0.21530 0.03060 0.05400
H 	H 	0.16320 0.09780 0.74470 0.01900
H 	H 	0.19300 0.08500 0.80920 0.01700
H 	H 	0.06770 0.12770 0.91090 0.04400
H 	H 	0.95780 0.16990 0.91120 0.04300
H 	H 	0.30580 0.47360 0.91450 0.03100
H 	H 	0.21530 0.43400 0.03060 0.05400
H 	H 	0.09780 0.99430 0.74470 0.01900
H 	H 	0.08500 0.91280 0.80920 0.01700
H 	H 	0.12770 0.89370 0.91090 0.04400
H 	H 	0.16990 0.96110 0.91120 0.04300
H 	H 	0.47360 0.30610 0.91450 0.03100
H 	H 	0.43400 0.32010 0.03060 0.05400
H 	H 	0.99430 0.16320 0.74470 0.01900
H 	H 	0.91280 0.19300 0.80920 0.01700
H 	H 	0.89370 0.06770 0.91090 0.04500
H 	H 	0.96110 0.95780 0.91120 0.04700
H 	H 	0.19390 0.02640 0.58550 0.03200
H 	H 	0.17990 0.06600 0.46940 0.05300
H 	H 	0.33680 0.50570 0.75530 0.01900
H 	H 	0.30700 0.58720 0.69080 0.01700
H 	H 	0.43230 0.60630 0.58910 0.04400
H 	H 	0.54220 0.53890 0.58880 0.04300
H 	H 	0.19420 0.19390 0.58550 0.03100
H 	H 	0.28470 0.17990 0.46940 0.05400
H 	H 	0.40220 0.33680 0.75530 0.01900
H 	H 	0.41500 0.30700 0.69080 0.01700
H 	H 	0.37230 0.43230 0.58910 0.04400
H 	H 	0.33010 0.54220 0.58880 0.04300
H 	H 	0.02640 0.19420 0.58550 0.03200
H 	H 	0.06600 0.28470 0.46940 0.05300
H 	H 	0.50570 0.40220 0.75530 0.01900
H 	H 	0.58720 0.41500 0.69080 0.01700
H 	H 	0.60630 0.37230 0.58910 0.04400
H 	H 	0.53890 0.33010 0.58880 0.04300
H 	H 	0.69390 0.69420 0.08550 0.03200
H 	H 	0.67990 0.78470 0.96940 0.05400
H 	H 	0.83680 0.90220 0.25530 0.01900
H 	H 	0.80700 0.91500 0.19080 0.01700
H 	H 	0.93230 0.87230 0.08910 0.04400
H 	H 	0.04220 0.83010 0.08880 0.04300
H 	H 	0.69420 0.52640 0.08550 0.03100
H 	H 	0.78470 0.56600 0.96940 0.05400
H 	H 	0.90220 0.00570 0.25530 0.01900
H 	H 	0.91500 0.08720 0.19080 0.01700
H 	H 	0.87230 0.10630 0.08910 0.04400
H 	H 	0.83010 0.03890 0.08880 0.04300
H 	H 	0.52640 0.69390 0.08550 0.03100
H 	H 	0.56600 0.67990 0.96940 0.05400
H 	H 	0.00570 0.83680 0.25530 0.01900
H 	H 	0.08720 0.80700 0.19080 0.01700
H 	H 	0.10630 0.93230 0.08910 0.04500
H 	H 	0.03890 0.04220 0.08880 0.04700
H 	H 	0.80610 0.97360 0.41450 0.03200
H 	H 	0.82010 0.93400 0.53060 0.05300
H 	H 	0.66320 0.49430 0.24470 0.01900
H 	H 	0.69300 0.41280 0.30920 0.01700
H 	H 	0.56770 0.39370 0.41090 0.04400
H 	H 	0.45780 0.46110 0.41120 0.04300
H 	H 	0.80580 0.80610 0.41450 0.03100
H 	H 	0.71530 0.82010 0.53060 0.05400
H 	H 	0.59780 0.66320 0.24470 0.01900
H 	H 	0.58500 0.69300 0.30920 0.01700
H 	H 	0.62770 0.56770 0.41090 0.04400
H 	H 	0.66990 0.45780 0.41120 0.04300
H 	H 	0.97360 0.80580 0.41450 0.03200
H 	H 	0.93400 0.71530 0.53060 0.05300
H 	H 	0.49430 0.59780 0.24470 0.01900
H 	H 	0.41280 0.58500 0.30920 0.01700
H 	H 	0.39370 0.62770 0.41090 0.04400
H 	H 	0.46110 0.66990 0.41120 0.04300
C 	C 	0.19592 0.28847 0.85060 0.40800
C 	C 	0.21901 0.24816 0.91888 -0.11500
C 	C 	0.27570 0.26445 0.94096 0.00500
C 	C 	0.28379 0.21226 0.00813 -0.02300
C 	C 	0.23239 0.15732 0.03576 -0.07900
C 	C 	0.22394 0.09316 0.10578 0.34600
C 	C 	0.14646 0.08144 0.79396 -0.02400
C 	C 	0.02269 0.12466 0.89377 -0.02200
C 	C 	0.28847 0.66501 0.85060 0.40800
C 	C 	0.24816 0.61395 0.91888 -0.11500
C 	C 	0.26445 0.51889 0.94096 0.00600
C 	C 	0.21226 0.49582 0.00813 -0.02400
C 	C 	0.15732 0.57453 0.03576 -0.08100
C 	C 	0.09316 0.57712 0.10578 0.34600
C 	C 	0.08144 0.97814 0.79396 -0.02400
C 	C 	0.12466 0.95888 0.89377 -0.02100
C 	C 	0.66501 0.19592 0.85060 0.40800
C 	C 	0.61395 0.21901 0.91888 -0.11500
C 	C 	0.51889 0.27570 0.94096 0.00700
C 	C 	0.49582 0.28379 0.00813 -0.02500
C 	C 	0.57453 0.23239 0.03576 -0.08100
C 	C 	0.57712 0.22394 0.10578 0.34600
C 	C 	0.97814 0.14646 0.79396 -0.02400
C 	C 	0.95888 0.02269 0.89377 -0.02600
C 	C 	0.30408 0.83499 0.64940 0.40800
C 	C 	0.28099 0.88605 0.58112 -0.11500
C 	C 	0.22430 0.98111 0.55904 0.00500
C 	C 	0.21621 0.00418 0.49187 -0.02200
C 	C 	0.26761 0.92547 0.46424 -0.08300
C 	C 	0.27606 0.92288 0.39422 0.34700
C 	C 	0.35354 0.52186 0.70604 -0.02400
C 	C 	0.47731 0.54112 0.60623 -0.02100
C 	C 	0.21153 0.30408 0.64940 0.40800
C 	C 	0.25184 0.28099 0.58112 -0.11600
C 	C 	0.23555 0.22430 0.55904 0.00800
C 	C 	0.28774 0.21621 0.49187 -0.02600
C 	C 	0.34268 0.26761 0.46424 -0.08100
C 	C 	0.40684 0.27606 0.39422 0.34600
C 	C 	0.41856 0.35354 0.70604 -0.02400
C 	C 	0.37534 0.47731 0.60623 -0.02100
C 	C 	0.83499 0.21153 0.64940 0.40800
C 	C 	0.88605 0.25184 0.58112 -0.11500
C 	C 	0.98111 0.23555 0.55904 0.00500
C 	C 	0.00418 0.28774 0.49187 -0.02300
C 	C 	0.92547 0.34268 0.46424 -0.08200
C 	C 	0.92288 0.40684 0.39422 0.34700
C 	C 	0.52186 0.41856 0.70604 -0.02400
C 	C 	0.54112 0.37534 0.60623 -0.02100
C 	C 	0.80408 0.71153 0.14940 0.40800
C 	C 	0.78099 0.75184 0.08112 -0.11500
C 	C 	0.72430 0.73555 0.05904 0.00500
C 	C 	0.71621 0.78774 0.99187 -0.02300
C 	C 	0.76761 0.84268 0.96424 -0.07900
C 	C 	0.77606 0.90684 0.89422 0.34600
C 	C 	0.85354 0.91856 0.20604 -0.02400
C 	C 	0.97731 0.87534 0.10623 -0.02200
C 	C 	0.71153 0.33499 0.14940 0.40800
C 	C 	0.75184 0.38605 0.08112 -0.11500
C 	C 	0.73555 0.48111 0.05904 0.00600
C 	C 	0.78774 0.50418 0.99187 -0.02400
C 	C 	0.84268 0.42547 0.96424 -0.08100
C 	C 	0.90684 0.42288 0.89422 0.34600
C 	C 	0.91856 0.02186 0.20604 -0.02400
C 	C 	0.87534 0.04112 0.10623 -0.02100
C 	C 	0.33499 0.80408 0.14940 0.40800
C 	C 	0.38605 0.78099 0.08112 -0.11500
C 	C 	0.48111 0.72430 0.05904 0.00700
C 	C 	0.50418 0.71621 0.99187 -0.02500
C 	C 	0.42547 0.76761 0.96424 -0.08100
C 	C 	0.42288 0.77606 0.89422 0.34600
C 	C 	0.02186 0.85354 0.20604 -0.02400
C 	C 	0.04112 0.97731 0.10623 -0.02600
C 	C 	0.69592 0.16501 0.35060 0.40800
C 	C 	0.71901 0.11395 0.41888 -0.11500
C 	C 	0.77570 0.01889 0.44096 0.00500
C 	C 	0.78379 0.99582 0.50813 -0.02200
C 	C 	0.73239 0.07453 0.53576 -0.08300
C 	C 	0.72394 0.07712 0.60578 0.34700
C 	C 	0.64646 0.47814 0.29396 -0.02400
C 	C 	0.52269 0.45888 0.39377 -0.02100
C 	C 	0.78847 0.69592 0.35060 0.40800
C 	C 	0.74816 0.71901 0.41888 -0.11600
C 	C 	0.76445 0.77570 0.44096 0.00800
C 	C 	0.71226 0.78379 0.50813 -0.02600
C 	C 	0.65732 0.73239 0.53576 -0.08100
C 	C 	0.59316 0.72394 0.60578 0.34600
C 	C 	0.58144 0.64646 0.29396 -0.02400
C 	C 	0.62466 0.52269 0.39377 -0.02100
C 	C 	0.16501 0.78847 0.35060 0.40800
C 	C 	0.11395 0.74816 0.41888 -0.11500
C 	C 	0.01889 0.76445 0.44096 0.00500
C 	C 	0.99582 0.71226 0.50813 -0.02300
C 	C 	0.07453 0.65732 0.53576 -0.08200
C 	C 	0.07712 0.59316 0.60578 0.34700
C 	C 	0.47814 0.58144 0.29396 -0.02400
C 	C 	0.45888 0.62466 0.39377 -0.02100
S 	S 	0.17265 0.16982 0.98089 0.06100
S 	S 	0.16982 0.67664 0.98089 0.06300
S 	S 	0.67664 0.17265 0.98089 0.06300
S 	S 	0.32735 0.82336 0.51911 0.06500
S 	S 	0.33018 0.32735 0.51911 0.06500
S 	S 	0.82336 0.33018 0.51911 0.06500
S 	S 	0.82735 0.83018 0.01911 0.06100
S 	S 	0.83018 0.32336 0.01911 0.06300
S 	S 	0.32336 0.82735 0.01911 0.06300
S 	S 	0.67265 0.17664 0.48089 0.06500
S 	S 	0.66982 0.67265 0.48089 0.06500
S 	S 	0.17664 0.66982 0.48089 0.06500
N 	N 	0.04695 0.15440 0.81847 -0.18100
N 	N 	0.15440 0.98018 0.81847 -0.18100
N 	N 	0.98018 0.04695 0.81847 -0.18100
N 	N 	0.45305 0.51982 0.68153 -0.18100
N 	N 	0.34560 0.45305 0.68153 -0.18100
N 	N 	0.51982 0.34560 0.68153 -0.18100
N 	N 	0.95305 0.84560 0.18153 -0.18100
N 	N 	0.84560 0.01982 0.18153 -0.18100
N 	N 	0.01982 0.95305 0.18153 -0.18100
N 	N 	0.54695 0.48018 0.31847 -0.18100
N 	N 	0.65440 0.54695 0.31847 -0.18100
N 	N 	0.48018 0.65440 0.31847 -0.18100
N 	N 	0.02713 0.02713 0.91861 -0.08700
N 	N 	0.47287 0.47287 0.58139 -0.08700
N 	N 	0.97287 0.97287 0.08139 -0.08700
N 	N 	0.52713 0.52713 0.41861 -0.08700
O 	O 	0.22425 0.35232 0.81127 -0.47400
O 	O 	0.14982 0.25495 0.83989 -0.46100
O 	O 	0.28350 0.07430 0.13683 -0.26600
O 	O 	0.15743 0.06498 0.12744 -0.42300
O 	O 	0.35232 0.61216 0.81127 -0.47400
O 	O 	0.25495 0.75534 0.83989 -0.46100
O 	O 	0.07430 0.50537 0.13683 -0.26600
O 	O 	0.06498 0.65015 0.12744 -0.42400
O 	O 	0.61216 0.22425 0.81127 -0.47400
O 	O 	0.75534 0.14982 0.83989 -0.46200
O 	O 	0.50537 0.28350 0.13683 -0.26700
O 	O 	0.65015 0.15743 0.12744 -0.42400
O 	O 	0.27575 0.88784 0.68873 -0.47400
O 	O 	0.35018 0.74466 0.66011 -0.46100
O 	O 	0.21650 0.99463 0.36317 -0.26700
O 	O 	0.34257 0.84985 0.37256 -0.42500
O 	O 	0.14768 0.27575 0.68873 -0.47400
O 	O 	0.24505 0.35018 0.66011 -0.46100
O 	O 	0.42570 0.21650 0.36317 -0.26700
O 	O 	0.43502 0.34257 0.37256 -0.42400
O 	O 	0.88784 0.14768 0.68873 -0.47400
O 	O 	0.74466 0.24505 0.66011 -0.46100
O 	O 	0.99463 0.42570 0.36317 -0.26700
O 	O 	0.84985 0.43502 0.37256 -0.42500
O 	O 	0.77575 0.64768 0.18873 -0.47400
O 	O 	0.85018 0.74505 0.16011 -0.46100
O 	O 	0.71650 0.92570 0.86317 -0.26600
O 	O 	0.84257 0.93502 0.87256 -0.42300
O 	O 	0.64768 0.38784 0.18873 -0.47400
O 	O 	0.74505 0.24466 0.16011 -0.46100
O 	O 	0.92570 0.49463 0.86317 -0.26600
O 	O 	0.93502 0.34985 0.87256 -0.42400
O 	O 	0.38784 0.77575 0.18873 -0.47400
O 	O 	0.24466 0.85018 0.16011 -0.46200
O 	O 	0.49463 0.71650 0.86317 -0.26700
O 	O 	0.34985 0.84257 0.87256 -0.42400
O 	O 	0.72425 0.11216 0.31127 -0.47400
O 	O 	0.64982 0.25534 0.33989 -0.46100
O 	O 	0.78350 0.00537 0.63683 -0.26700
O 	O 	0.65743 0.15015 0.62744 -0.42500
O 	O 	0.85232 0.72425 0.31127 -0.47400
O 	O 	0.75495 0.64982 0.33989 -0.46100
O 	O 	0.57430 0.78350 0.63683 -0.26700
O 	O 	0.56498 0.65743 0.62744 -0.42400
O 	O 	0.11216 0.85232 0.31127 -0.47400
O 	O 	0.25534 0.75495 0.33989 -0.46100
O 	O 	0.00537 0.57430 0.63683 -0.26700
O 	O 	0.15015 0.56498 0.62744 -0.42500
O 	O 	0.04257 0.45743 0.75000 -0.41100
O 	O 	0.45743 0.75000 0.75000 -0.41100
O 	O 	0.75000 0.04257 0.75000 -0.41100
O 	O 	0.95743 0.54257 0.25000 -0.41100
O 	O 	0.54257 0.25000 0.25000 -0.41100
O 	O 	0.25000 0.95743 0.25000 -0.41100
