data_crystal

_cell_length_a 16.36800
_cell_length_b 16.36800
_cell_length_c 22.20610
_cell_angle_alpha 68.37400
_cell_angle_beta  68.37400
_cell_angle_gamma 60.00000

_symmetry_space_group_name_	'P 1'
_symmetry_space_group_name_H-M	'P 1'

loop_
_symmetry_equiv_pos_as_xyz
  x,y,z

loop_
_atom_site_label
_atom_site_type_symbol
_atom_site_fract_x
_atom_site_fract_y
_atom_site_fract_z
_atom_site_charge
Cd	Cd	0.04514 0.30938 0.78134 1.21800
Cd	Cd	0.30938 0.86414 0.78134 1.21800
Cd	Cd	0.86414 0.04514 0.78134 1.21800
Cd	Cd	0.45486 0.63586 0.71866 1.21800
Cd	Cd	0.19062 0.45486 0.71866 1.21800
Cd	Cd	0.63586 0.19062 0.71866 1.21800
Cd	Cd	0.95486 0.69062 0.21866 1.21800
Cd	Cd	0.69062 0.13586 0.21866 1.21800
Cd	Cd	0.13586 0.95486 0.21866 1.21800
Cd	Cd	0.54514 0.36414 0.28134 1.21800
Cd	Cd	0.80938 0.54514 0.28134 1.21700
Cd	Cd	0.36414 0.80938 0.28134 1.21700
H 	H 	0.33300 0.29000 0.90400 0.02800
H 	H 	0.32950 0.21350 0.03150 0.04700
H 	H 	0.96720 0.16320 0.90940 0.06900
H 	H 	0.07080 0.12680 0.90760 0.06000
H 	H 	0.91600 0.18700 0.81100 0.02700
H 	H 	0.99290 0.15590 0.74830 0.02700
H 	H 	0.29000 0.47300 0.90400 0.02800
H 	H 	0.21350 0.42550 0.03150 0.04700
H 	H 	0.16320 0.96020 0.90940 0.06800
H 	H 	0.12680 0.89480 0.90760 0.05900
H 	H 	0.18700 0.08600 0.81100 0.02700
H 	H 	0.15590 0.10290 0.74830 0.02700
H 	H 	0.47300 0.33300 0.90400 0.02800
H 	H 	0.42550 0.32950 0.03150 0.04700
H 	H 	0.96020 0.96720 0.90940 0.07300
H 	H 	0.89480 0.07080 0.90760 0.06100
H 	H 	0.08600 0.91600 0.81100 0.02700
H 	H 	0.10290 0.99290 0.74830 0.02700
H 	H 	0.16700 0.02700 0.59600 0.02900
H 	H 	0.17050 0.07450 0.46850 0.04700
H 	H 	0.53280 0.53980 0.59060 0.06800
H 	H 	0.42920 0.60520 0.59240 0.05900
H 	H 	0.58400 0.41400 0.68900 0.02700
H 	H 	0.50710 0.39710 0.75170 0.02700
H 	H 	0.21000 0.16700 0.59600 0.02800
H 	H 	0.28650 0.17050 0.46850 0.04700
H 	H 	0.33680 0.53280 0.59060 0.06800
H 	H 	0.37320 0.42920 0.59240 0.05900
H 	H 	0.31300 0.58400 0.68900 0.02700
H 	H 	0.34410 0.50710 0.75170 0.02700
H 	H 	0.02700 0.21000 0.59600 0.02900
H 	H 	0.07450 0.28650 0.46850 0.04700
H 	H 	0.53980 0.33680 0.59060 0.06800
H 	H 	0.60520 0.37320 0.59240 0.05900
H 	H 	0.41400 0.31300 0.68900 0.02700
H 	H 	0.39710 0.34410 0.75170 0.02700
H 	H 	0.66700 0.71000 0.09600 0.02800
H 	H 	0.67050 0.78650 0.96850 0.04700
H 	H 	0.03280 0.83680 0.09060 0.06900
H 	H 	0.92920 0.87320 0.09240 0.06000
H 	H 	0.08400 0.81300 0.18900 0.02700
H 	H 	0.00710 0.84410 0.25170 0.02700
H 	H 	0.71000 0.52700 0.09600 0.02800
H 	H 	0.78650 0.57450 0.96850 0.04700
H 	H 	0.83680 0.03980 0.09060 0.06800
H 	H 	0.87320 0.10520 0.09240 0.05900
H 	H 	0.81300 0.91400 0.18900 0.02700
H 	H 	0.84410 0.89710 0.25170 0.02700
H 	H 	0.52700 0.66700 0.09600 0.02800
H 	H 	0.57450 0.67050 0.96850 0.04700
H 	H 	0.03980 0.03280 0.09060 0.07300
H 	H 	0.10520 0.92920 0.09240 0.06100
H 	H 	0.91400 0.08400 0.18900 0.02700
H 	H 	0.89710 0.00710 0.25170 0.02700
H 	H 	0.83300 0.97300 0.40400 0.02900
H 	H 	0.82950 0.92550 0.53150 0.04700
H 	H 	0.46720 0.46020 0.40940 0.06800
H 	H 	0.57080 0.39480 0.40760 0.05900
H 	H 	0.41600 0.58600 0.31100 0.02700
H 	H 	0.49290 0.60290 0.24830 0.02700
H 	H 	0.79000 0.83300 0.40400 0.02800
H 	H 	0.71350 0.82950 0.53150 0.04700
H 	H 	0.66320 0.46720 0.40940 0.06800
H 	H 	0.62680 0.57080 0.40760 0.05900
H 	H 	0.68700 0.41600 0.31100 0.02700
H 	H 	0.65590 0.49290 0.24830 0.02700
H 	H 	0.97300 0.79000 0.40400 0.02900
H 	H 	0.92550 0.71350 0.53150 0.04700
H 	H 	0.46020 0.66320 0.40940 0.06800
H 	H 	0.39480 0.62680 0.40760 0.05900
H 	H 	0.58600 0.68700 0.31100 0.02700
H 	H 	0.60290 0.65590 0.24830 0.02700
C 	C 	0.22498 0.09408 0.10446 0.34300
C 	C 	0.23512 0.15612 0.03564 -0.08300
C 	C 	0.28797 0.20967 0.00819 -0.01200
C 	C 	0.28058 0.26088 0.94156 0.01100
C 	C 	0.22279 0.24549 0.92053 -0.11200
C 	C 	0.19910 0.28590 0.85330 0.39100
C 	C 	0.02311 0.12451 0.89317 -0.07300
C 	C 	0.97810 0.14612 0.79462 -0.04700
C 	C 	0.09408 0.57648 0.10446 0.34400
C 	C 	0.15612 0.57312 0.03564 -0.08400
C 	C 	0.20967 0.49417 0.00819 -0.01300
C 	C 	0.26088 0.51698 0.94156 0.01100
C 	C 	0.24549 0.61119 0.92053 -0.11200
C 	C 	0.28590 0.66170 0.85330 0.39200
C 	C 	0.12451 0.95921 0.89317 -0.07100
C 	C 	0.14612 0.08116 0.79462 -0.04700
C 	C 	0.57648 0.22498 0.10446 0.34400
C 	C 	0.57312 0.23512 0.03564 -0.08400
C 	C 	0.49417 0.28797 0.00819 -0.01300
C 	C 	0.51698 0.28058 0.94156 0.01200
C 	C 	0.61119 0.22279 0.92053 -0.11200
C 	C 	0.66170 0.19910 0.85330 0.39200
C 	C 	0.95921 0.02311 0.89317 -0.07800
C 	C 	0.08116 0.97810 0.79462 -0.04700
C 	C 	0.27502 0.92352 0.39554 0.34400
C 	C 	0.26488 0.92688 0.46436 -0.08600
C 	C 	0.21203 0.00583 0.49181 -0.01200
C 	C 	0.21942 0.98302 0.55844 0.01100
C 	C 	0.27721 0.88881 0.57947 -0.11200
C 	C 	0.30090 0.83830 0.64670 0.39200
C 	C 	0.47689 0.54079 0.60683 -0.07200
C 	C 	0.52190 0.41884 0.70538 -0.04700
C 	C 	0.40592 0.27502 0.39554 0.34400
C 	C 	0.34388 0.26488 0.46436 -0.08500
C 	C 	0.29033 0.21203 0.49181 -0.01300
C 	C 	0.23912 0.21942 0.55844 0.01300
C 	C 	0.25451 0.27721 0.57947 -0.11300
C 	C 	0.21410 0.30090 0.64670 0.39200
C 	C 	0.37549 0.47689 0.60683 -0.07200
C 	C 	0.35388 0.52190 0.70538 -0.04700
C 	C 	0.92352 0.40592 0.39554 0.34400
C 	C 	0.92688 0.34388 0.46436 -0.08500
C 	C 	0.00583 0.29033 0.49181 -0.01200
C 	C 	0.98302 0.23912 0.55844 0.01100
C 	C 	0.88881 0.25451 0.57947 -0.11200
C 	C 	0.83830 0.21410 0.64670 0.39200
C 	C 	0.54079 0.37549 0.60683 -0.07200
C 	C 	0.41884 0.35388 0.70538 -0.04700
C 	C 	0.77502 0.90592 0.89554 0.34300
C 	C 	0.76488 0.84388 0.96436 -0.08300
C 	C 	0.71203 0.79033 0.99181 -0.01200
C 	C 	0.71942 0.73912 0.05844 0.01100
C 	C 	0.77721 0.75451 0.07947 -0.11200
C 	C 	0.80090 0.71410 0.14670 0.39100
C 	C 	0.97689 0.87549 0.10683 -0.07300
C 	C 	0.02190 0.85388 0.20538 -0.04700
C 	C 	0.90592 0.42352 0.89554 0.34400
C 	C 	0.84388 0.42688 0.96436 -0.08400
C 	C 	0.79033 0.50583 0.99181 -0.01300
C 	C 	0.73912 0.48302 0.05844 0.01100
C 	C 	0.75451 0.38881 0.07947 -0.11200
C 	C 	0.71410 0.33830 0.14670 0.39200
C 	C 	0.87549 0.04079 0.10683 -0.07100
C 	C 	0.85388 0.91884 0.20538 -0.04700
C 	C 	0.42352 0.77502 0.89554 0.34400
C 	C 	0.42688 0.76488 0.96436 -0.08400
C 	C 	0.50583 0.71203 0.99181 -0.01300
C 	C 	0.48302 0.71942 0.05844 0.01200
C 	C 	0.38881 0.77721 0.07947 -0.11200
C 	C 	0.33830 0.80090 0.14670 0.39200
C 	C 	0.04079 0.97689 0.10683 -0.07800
C 	C 	0.91884 0.02190 0.20538 -0.04700
C 	C 	0.72498 0.07648 0.60446 0.34400
C 	C 	0.73512 0.07312 0.53564 -0.08600
C 	C 	0.78797 0.99417 0.50819 -0.01200
C 	C 	0.78058 0.01698 0.44156 0.01100
C 	C 	0.72279 0.11119 0.42053 -0.11200
C 	C 	0.69910 0.16170 0.35330 0.39200
C 	C 	0.52311 0.45921 0.39317 -0.07200
C 	C 	0.47810 0.58116 0.29462 -0.04700
C 	C 	0.59408 0.72498 0.60446 0.34400
C 	C 	0.65612 0.73512 0.53564 -0.08500
C 	C 	0.70967 0.78797 0.50819 -0.01300
C 	C 	0.76088 0.78058 0.44156 0.01300
C 	C 	0.74549 0.72279 0.42053 -0.11300
C 	C 	0.78590 0.69910 0.35330 0.39200
C 	C 	0.62451 0.52311 0.39317 -0.07200
C 	C 	0.64612 0.47810 0.29462 -0.04700
C 	C 	0.07648 0.59408 0.60446 0.34400
C 	C 	0.07312 0.65612 0.53564 -0.08500
C 	C 	0.99417 0.70967 0.50819 -0.01200
C 	C 	0.01698 0.76088 0.44156 0.01100
C 	C 	0.11119 0.74549 0.42053 -0.11200
C 	C 	0.16170 0.78590 0.35330 0.39200
C 	C 	0.45921 0.62451 0.39317 -0.07200
C 	C 	0.58116 0.64612 0.29462 -0.04700
S 	S 	0.17589 0.16819 0.98110 0.06100
S 	S 	0.16819 0.67482 0.98110 0.06300
S 	S 	0.67482 0.17589 0.98110 0.06300
S 	S 	0.32411 0.82518 0.51890 0.06400
S 	S 	0.33181 0.32411 0.51890 0.06400
S 	S 	0.82518 0.33181 0.51890 0.06400
S 	S 	0.82411 0.83181 0.01890 0.06100
S 	S 	0.83181 0.32518 0.01890 0.06300
S 	S 	0.32518 0.82411 0.01890 0.06300
S 	S 	0.67589 0.17482 0.48110 0.06400
S 	S 	0.66819 0.67589 0.48110 0.06400
S 	S 	0.17482 0.66819 0.48110 0.06400
N 	N 	0.04750 0.15278 0.81865 -0.16700
N 	N 	0.15278 0.98107 0.81865 -0.16700
N 	N 	0.98107 0.04750 0.81865 -0.16600
N 	N 	0.45250 0.51893 0.68135 -0.16700
N 	N 	0.34722 0.45250 0.68135 -0.16700
N 	N 	0.51893 0.34722 0.68135 -0.16700
N 	N 	0.95250 0.84722 0.18135 -0.16700
N 	N 	0.84722 0.01893 0.18135 -0.16700
N 	N 	0.01893 0.95250 0.18135 -0.16600
N 	N 	0.54750 0.48107 0.31865 -0.16700
N 	N 	0.65278 0.54750 0.31865 -0.16700
N 	N 	0.48107 0.65278 0.31865 -0.16700
N 	N 	0.02754 0.02754 0.91738 -0.06800
N 	N 	0.47246 0.47246 0.58262 -0.06800
N 	N 	0.97246 0.97246 0.08262 -0.06800
N 	N 	0.52754 0.52754 0.41738 -0.06800
O 	O 	0.15825 0.06697 0.12375 -0.40600
O 	O 	0.28236 0.07596 0.13632 -0.26700
O 	O 	0.15565 0.25073 0.84175 -0.44300
O 	O 	0.22626 0.35089 0.81565 -0.45400
O 	O 	0.06697 0.65103 0.12375 -0.40600
O 	O 	0.07596 0.50536 0.13632 -0.26700
O 	O 	0.25073 0.75187 0.84175 -0.44300
O 	O 	0.35089 0.60720 0.81565 -0.45400
O 	O 	0.65103 0.15825 0.12375 -0.40700
O 	O 	0.50536 0.28236 0.13632 -0.26800
O 	O 	0.75187 0.15565 0.84175 -0.44300
O 	O 	0.60720 0.22626 0.81565 -0.45400
O 	O 	0.34175 0.84897 0.37625 -0.40700
O 	O 	0.21764 0.99464 0.36368 -0.26800
O 	O 	0.34435 0.74813 0.65825 -0.44300
O 	O 	0.27374 0.89280 0.68435 -0.45400
O 	O 	0.43303 0.34175 0.37625 -0.40700
O 	O 	0.42404 0.21764 0.36368 -0.26800
O 	O 	0.24927 0.34435 0.65825 -0.44300
O 	O 	0.14911 0.27374 0.68435 -0.45400
O 	O 	0.84897 0.43303 0.37625 -0.40700
O 	O 	0.99464 0.42404 0.36368 -0.26800
O 	O 	0.74813 0.24927 0.65825 -0.44300
O 	O 	0.89280 0.14911 0.68435 -0.45400
O 	O 	0.84175 0.93303 0.87625 -0.40600
O 	O 	0.71764 0.92404 0.86368 -0.26700
O 	O 	0.84435 0.74927 0.15825 -0.44300
O 	O 	0.77374 0.64911 0.18435 -0.45400
O 	O 	0.93303 0.34897 0.87625 -0.40600
O 	O 	0.92404 0.49464 0.86368 -0.26700
O 	O 	0.74927 0.24813 0.15825 -0.44300
O 	O 	0.64911 0.39280 0.18435 -0.45400
O 	O 	0.34897 0.84175 0.87625 -0.40700
O 	O 	0.49464 0.71764 0.86368 -0.26800
O 	O 	0.24813 0.84435 0.15825 -0.44300
O 	O 	0.39280 0.77374 0.18435 -0.45400
O 	O 	0.65825 0.15103 0.62375 -0.40700
O 	O 	0.78236 0.00536 0.63632 -0.26800
O 	O 	0.65565 0.25187 0.34175 -0.44300
O 	O 	0.72626 0.10720 0.31565 -0.45400
O 	O 	0.56697 0.65825 0.62375 -0.40700
O 	O 	0.57596 0.78236 0.63632 -0.26800
O 	O 	0.75073 0.65565 0.34175 -0.44300
O 	O 	0.85089 0.72626 0.31565 -0.45400
O 	O 	0.15103 0.56697 0.62375 -0.40700
O 	O 	0.00536 0.57596 0.63632 -0.26800
O 	O 	0.25187 0.75073 0.34175 -0.44300
O 	O 	0.10720 0.85089 0.31565 -0.45400
O 	O 	0.03418 0.46582 0.75000 -0.39200
O 	O 	0.46582 0.75000 0.75000 -0.39200
O 	O 	0.75000 0.03418 0.75000 -0.39200
O 	O 	0.96582 0.53418 0.25000 -0.39200
O 	O 	0.53418 0.25000 0.25000 -0.39200
O 	O 	0.25000 0.96582 0.25000 -0.39200
