data_crystal

_cell_length_a 20.29960
_cell_length_b 9.40010
_cell_length_c 9.69410
_cell_angle_alpha 90.00000
_cell_angle_beta  111.31000
_cell_angle_gamma 90.00000

_symmetry_space_group_name_	'P 1'
_symmetry_space_group_name_H-M	'P 1'

loop_
_symmetry_equiv_pos_as_xyz
  x,y,z

loop_
_atom_site_label
_atom_site_type_symbol
_atom_site_fract_x
_atom_site_fract_y
_atom_site_fract_z
_atom_site_charge
P 	P 	0.39466 0.41990 0.96426 0.90800
F 	F 	0.31292 0.12274 0.16309 -0.56600
O 	O 	0.44000 0.45586 0.12312 -0.63100
O 	O 	0.43845 0.36620 0.87825 -0.46900
F 	F 	0.55997 0.78084 0.38300 -0.51200
F 	F 	0.26405 0.40722 0.14605 -0.65400
O 	O 	0.33953 0.30780 0.95548 -0.36900
O 	O 	0.35762 0.56260 0.89610 -0.61700
H 	H 	0.33150 0.56400 0.82300 0.55500
P 	P 	0.89466 0.91990 0.96426 0.88900
F 	F 	0.81292 0.62274 0.16309 -0.54000
O 	O 	0.94000 0.95586 0.12312 -0.52200
O 	O 	0.93845 0.86620 0.87825 -0.37700
F 	F 	0.05997 0.28084 0.38300 -0.59200
F 	F 	0.76405 0.90722 0.14605 -0.64000
O 	O 	0.83953 0.80780 0.95548 -0.35400
O 	O 	0.85762 0.06260 0.89610 -0.58700
H 	H 	0.83150 0.06400 0.82300 0.54700
P 	P 	0.60534 0.41990 0.53574 0.76500
F 	F 	0.68708 0.12274 0.33691 -0.53100
O 	O 	0.56000 0.45586 0.37688 -0.49700
O 	O 	0.56155 0.36620 0.62175 -0.48700
F 	F 	0.44003 0.78084 0.11700 -0.57400
F 	F 	0.73595 0.40722 0.35395 -0.59400
O 	O 	0.66047 0.30780 0.54452 -0.43300
O 	O 	0.64238 0.56260 0.60390 -0.68300
H 	H 	0.66850 0.56400 0.67700 0.58700
P 	P 	0.10534 0.91990 0.53574 0.76900
F 	F 	0.18708 0.62274 0.33691 -0.54800
O 	O 	0.06000 0.95586 0.37688 -0.57600
O 	O 	0.06155 0.86620 0.62175 -0.56800
F 	F 	0.94003 0.28084 0.11700 -0.49000
F 	F 	0.23595 0.90722 0.35395 -0.60100
O 	O 	0.16047 0.80780 0.54452 -0.44800
O 	O 	0.14238 0.06260 0.60390 -0.71400
H 	H 	0.16850 0.06400 0.67700 0.59400
P 	P 	0.60534 0.58010 0.03574 0.61600
F 	F 	0.68708 0.87726 0.83691 -0.44200
O 	O 	0.56000 0.54414 0.87688 -0.34300
O 	O 	0.56155 0.63380 0.12175 -0.52200
F 	F 	0.44003 0.21916 0.61700 -0.50300
F 	F 	0.73595 0.59278 0.85395 -0.51500
O 	O 	0.66047 0.69220 0.04452 -0.49400
O 	O 	0.64238 0.43740 0.10390 -0.75400
H 	H 	0.66850 0.43600 0.17700 0.59300
P 	P 	0.10534 0.08010 0.03574 0.60900
F 	F 	0.18708 0.37726 0.83691 -0.46000
O 	O 	0.06000 0.04414 0.87688 -0.42400
O 	O 	0.06155 0.13380 0.12175 -0.60500
F 	F 	0.94003 0.71916 0.61700 -0.41400
F 	F 	0.23595 0.09278 0.85395 -0.52400
O 	O 	0.16047 0.19220 0.04452 -0.51300
O 	O 	0.14238 0.93740 0.10390 -0.76500
H 	H 	0.16850 0.93600 0.17700 0.59600
P 	P 	0.39466 0.58010 0.46426 0.75800
F 	F 	0.31292 0.87726 0.66309 -0.48200
O 	O 	0.44000 0.54414 0.62312 -0.47600
O 	O 	0.43845 0.63380 0.37825 -0.50500
F 	F 	0.55997 0.21916 0.88300 -0.43900
F 	F 	0.26405 0.59278 0.64605 -0.58200
O 	O 	0.33953 0.69220 0.45548 -0.44300
O 	O 	0.35762 0.43740 0.39610 -0.68700
H 	H 	0.33150 0.43600 0.32300 0.56200
P 	P 	0.89466 0.08010 0.46426 0.74700
F 	F 	0.81292 0.37726 0.66309 -0.46100
O 	O 	0.94000 0.04414 0.62312 -0.38500
O 	O 	0.93845 0.13380 0.37825 -0.41400
F 	F 	0.05997 0.71916 0.88300 -0.51700
F 	F 	0.76405 0.09278 0.64605 -0.57400
O 	O 	0.83953 0.19220 0.45548 -0.42600
O 	O 	0.85762 0.93740 0.39610 -0.65100
H 	H 	0.83150 0.93600 0.32300 0.55400
Sc	Sc	0.50000 0.62667 0.25000 2.36000
Sc	Sc	0.00000 0.12667 0.25000 2.33100
Sc	Sc	0.50000 0.37333 0.75000 2.36400
Sc	Sc	-0.00000 0.87333 0.75000 2.33500
Sc	Sc	0.25000 0.25000 -0.00000 2.35000
Sc	Sc	0.75000 0.25000 0.50000 2.37700
Sc	Sc	0.75000 0.75000 -0.00000 2.35200
Sc	Sc	0.25000 0.75000 0.50000 2.37600
