data_crystal

_cell_length_a 8.11730
_cell_length_b 8.60880
_cell_length_c 19.88030
_cell_angle_alpha 88.22740
_cell_angle_beta  86.23810
_cell_angle_gamma 61.87110

_symmetry_space_group_name_	'P 1'
_symmetry_space_group_name_H-M	'P 1'

loop_
_symmetry_equiv_pos_as_xyz
  x,y,z

loop_
_atom_site_label
_atom_site_type_symbol
_atom_site_fract_x
_atom_site_fract_y
_atom_site_fract_z
_atom_site_charge
Nd	Nd	0.28330 0.92460 0.51190 2.14100
Nd	Nd	0.79210 0.92460 0.98810 2.12000
Nd	Nd	0.71670 0.07540 0.48810 2.14100
Nd	Nd	0.20790 0.07540 0.01190 2.12000
H 	H 	0.26280 0.24560 0.30230 0.19100
H 	H 	0.40380 0.28760 0.33820 0.18100
H 	H 	0.09890 0.54320 0.32540 -0.08600
H 	H 	0.01460 0.45620 0.37790 -0.07400
H 	H 	0.20270 0.47060 0.46040 0.16900
H 	H 	0.28530 0.55880 0.40800 0.16200
H 	H 	0.39030 0.55380 0.70770 0.15500
H 	H 	0.22520 0.53480 0.67940 0.16900
H 	H 	0.18150 0.80720 0.76650 -0.03400
H 	H 	0.49160 0.24560 0.19770 0.19100
H 	H 	0.30860 0.28760 0.16180 0.18100
H 	H 	0.35790 0.54320 0.17460 -0.08300
H 	H 	0.52920 0.45620 0.12210 -0.07000
H 	H 	0.32670 0.47060 0.03960 0.16800
H 	H 	0.15590 0.55880 0.09200 0.16000
H 	H 	0.05590 0.55380 0.79230 0.15500
H 	H 	0.24000 0.53480 0.82060 0.17000
H 	H 	0.01130 0.80720 0.73350 -0.03400
H 	H 	0.73720 0.75440 0.69770 0.19200
H 	H 	0.59620 0.71240 0.66180 0.18200
H 	H 	0.90110 0.45680 0.67460 -0.08500
H 	H 	0.98540 0.54380 0.62210 -0.07300
H 	H 	0.79730 0.52940 0.53960 0.16900
H 	H 	0.71470 0.44120 0.59200 0.16200
H 	H 	0.60970 0.44620 0.29230 0.15500
H 	H 	0.77480 0.46520 0.32060 0.16900
H 	H 	0.81850 0.19280 0.23350 -0.03400
H 	H 	0.50840 0.75440 0.80230 0.19100
H 	H 	0.69140 0.71240 0.83820 0.18100
H 	H 	0.64210 0.45680 0.82540 -0.08300
H 	H 	0.47080 0.54380 0.87790 -0.07000
H 	H 	0.67330 0.52940 0.96040 0.16800
H 	H 	0.84410 0.44120 0.90800 0.16000
H 	H 	0.94410 0.44620 0.20770 0.15500
H 	H 	0.76000 0.46520 0.17940 0.17000
H 	H 	0.98870 0.19280 0.26650 -0.03400
C 	C 	0.30560 0.14840 0.39850 0.52200
C 	C 	0.28730 0.28200 0.34460 -0.57300
C 	C 	0.12620 0.46640 0.36440 0.33300
C 	C 	0.17380 0.54880 0.42180 -0.54500
C 	C 	0.97980 0.27180 0.55680 0.52500
C 	C 	0.27130 0.72420 0.62990 0.42200
C 	C 	0.26490 0.61940 0.69200 -0.47900
C 	C 	0.54600 0.14840 0.10150 0.52000
C 	C 	0.43070 0.28200 0.15540 -0.57000
C 	C 	0.40740 0.46640 0.13560 0.32900
C 	C 	0.27740 0.54880 0.07820 -0.54200
C 	C 	0.74840 0.27180 0.94320 0.52300
C 	C 	0.00450 0.72420 0.87010 0.42700
C 	C 	0.11570 0.61940 0.80800 -0.48100
C 	C 	0.69440 0.85160 0.60150 0.52200
C 	C 	0.71270 0.71800 0.65540 -0.57300
C 	C 	0.87380 0.53360 0.63560 0.33300
C 	C 	0.82620 0.45120 0.57820 -0.54500
C 	C 	0.02020 0.72820 0.44320 0.52500
C 	C 	0.72870 0.27580 0.37010 0.42200
C 	C 	0.73510 0.38060 0.30800 -0.47900
C 	C 	0.45400 0.85160 0.89850 0.52000
C 	C 	0.56930 0.71800 0.84460 -0.57000
C 	C 	0.59260 0.53360 0.86440 0.32900
C 	C 	0.72260 0.45120 0.92180 -0.54200
C 	C 	0.25160 0.72820 0.05680 0.52300
C 	C 	0.99550 0.27580 0.12990 0.42700
C 	C 	0.88430 0.38060 0.19200 -0.48100
C 	C 	0.13400 0.73200 0.75000 0.26300
C 	C 	0.86600 0.26800 0.25000 0.26300
O 	O 	0.44100 0.08960 0.43840 -0.66900
O 	O 	0.18230 0.09920 0.40570 -0.51500
O 	O 	0.93530 0.15940 0.53440 -0.65600
O 	O 	0.15030 0.23160 0.55990 -0.50800
O 	O 	0.20850 0.88980 0.63350 -0.45800
O 	O 	0.34570 0.64440 0.57420 -0.50800
O 	O 	0.46940 0.08960 0.06160 -0.66500
O 	O 	0.71850 0.09920 0.09430 -0.50900
O 	O 	0.90530 0.15940 0.96560 -0.65000
O 	O 	0.61810 0.23160 0.94010 -0.50100
O 	O 	0.90170 0.88980 0.86650 -0.46300
O 	O 	0.00990 0.64440 0.92580 -0.50600
O 	O 	0.55900 0.91040 0.56160 -0.66900
O 	O 	0.81770 0.90080 0.59430 -0.51500
O 	O 	0.06470 0.84060 0.46560 -0.65600
O 	O 	0.84970 0.76840 0.44010 -0.50800
O 	O 	0.79150 0.11020 0.36650 -0.45800
O 	O 	0.65430 0.35560 0.42580 -0.50800
O 	O 	0.53060 0.91040 0.93840 -0.66500
O 	O 	0.28150 0.90080 0.90570 -0.50900
O 	O 	0.09470 0.84060 0.03440 -0.65000
O 	O 	0.38190 0.76840 0.05990 -0.50100
O 	O 	0.09830 0.11020 0.13350 -0.46300
O 	O 	0.99010 0.35560 0.07420 -0.50600
