data_crystal

_cell_length_a 6.75070
_cell_length_b 16.97980
_cell_length_c 12.92320
_cell_angle_alpha 90.00000
_cell_angle_beta  90.00000
_cell_angle_gamma 90.00000

_symmetry_space_group_name_	'P 1'
_symmetry_space_group_name_H-M	'P 1'

loop_
_symmetry_equiv_pos_as_xyz
  x,y,z

loop_
_atom_site_label
_atom_site_type_symbol
_atom_site_fract_x
_atom_site_fract_y
_atom_site_fract_z
_atom_site_charge
O 	O 	0.65290 0.16640 0.16430 -0.52900
O 	O 	0.32220 0.16740 0.14650 -0.53500
C 	C 	0.50200 0.06600 0.06370 -0.15800
C 	C 	0.65980 0.01140 0.07090 0.25600
C 	C 	0.34870 0.05220 0.99550 -0.14200
H 	H 	0.24440 0.08790 0.99410 0.08600
C 	C 	0.49250 0.13920 0.12890 0.43500
C 	C 	0.83100 0.01850 0.14650 -0.79300
H 	H 	0.81610 0.06580 0.18640 0.28700
H 	H 	0.95350 0.02050 0.10890 0.26500
H 	H 	0.83150 0.97380 0.19190 0.25700
O 	O 	0.84710 0.83360 0.66430 -0.53100
O 	O 	0.17780 0.83260 0.64650 -0.53600
C 	C 	0.99800 0.93400 0.56370 -0.16100
C 	C 	0.84020 0.98860 0.57090 0.25300
C 	C 	0.15130 0.94780 0.49550 -0.13500
H 	H 	0.25560 0.91210 0.49410 0.08400
C 	C 	0.00750 0.86080 0.62890 0.43600
C 	C 	0.66900 0.98150 0.64650 -0.79300
H 	H 	0.68390 0.93420 0.68640 0.28700
H 	H 	0.54650 0.97950 0.60890 0.26400
H 	H 	0.66850 0.02620 0.69190 0.25700
O 	O 	0.34710 0.66640 0.83570 -0.53100
O 	O 	0.67780 0.66740 0.85350 -0.53600
C 	C 	0.49800 0.56600 0.93630 -0.16000
C 	C 	0.34020 0.51140 0.92910 0.25400
C 	C 	0.65130 0.55220 0.00450 -0.13600
H 	H 	0.75560 0.58790 0.00590 0.08500
C 	C 	0.50750 0.63920 0.87110 0.43500
C 	C 	0.16900 0.51850 0.85350 -0.79800
H 	H 	0.18390 0.56580 0.81360 0.28900
H 	H 	0.04650 0.52050 0.89110 0.26600
H 	H 	0.16850 0.47380 0.80810 0.26000
O 	O 	0.15290 0.33360 0.33570 -0.53100
O 	O 	0.82220 0.33260 0.35350 -0.53600
C 	C 	0.00200 0.43400 0.43630 -0.16100
C 	C 	0.15980 0.48860 0.42910 0.25400
C 	C 	0.84870 0.44780 0.50450 -0.13600
H 	H 	0.74440 0.41210 0.50590 0.08500
C 	C 	0.99250 0.36080 0.37110 0.43600
C 	C 	0.33100 0.48150 0.35350 -0.79700
H 	H 	0.31610 0.43420 0.31360 0.28800
H 	H 	0.45350 0.47950 0.39110 0.26500
H 	H 	0.33150 0.52620 0.30810 0.25900
O 	O 	0.34710 0.83360 0.83570 -0.53000
O 	O 	0.67780 0.83260 0.85350 -0.53600
C 	C 	0.49800 0.93400 0.93630 -0.15800
C 	C 	0.34020 0.98860 0.92910 0.25600
C 	C 	0.65130 0.94780 0.00450 -0.14200
H 	H 	0.75560 0.91210 0.00590 0.08600
C 	C 	0.50750 0.86080 0.87110 0.43500
C 	C 	0.16900 0.98150 0.85350 -0.79300
H 	H 	0.18390 0.93420 0.81360 0.28700
H 	H 	0.04650 0.97950 0.89110 0.26500
H 	H 	0.16850 0.02620 0.80810 0.25700
O 	O 	0.15290 0.16640 0.33570 -0.53100
O 	O 	0.82220 0.16740 0.35350 -0.53600
C 	C 	0.00200 0.06600 0.43630 -0.16100
C 	C 	0.15980 0.01140 0.42910 0.25300
C 	C 	0.84870 0.05220 0.50450 -0.13500
H 	H 	0.74440 0.08790 0.50590 0.08400
C 	C 	0.99250 0.13920 0.37110 0.43600
C 	C 	0.33100 0.01850 0.35350 -0.79300
H 	H 	0.31610 0.06580 0.31360 0.28700
H 	H 	0.45350 0.02050 0.39110 0.26400
H 	H 	0.33150 0.97380 0.30810 0.25700
O 	O 	0.65290 0.33360 0.16430 -0.53100
O 	O 	0.32220 0.33260 0.14650 -0.53600
C 	C 	0.50200 0.43400 0.06370 -0.16000
C 	C 	0.65980 0.48860 0.07090 0.25400
C 	C 	0.34870 0.44780 0.99550 -0.13600
H 	H 	0.24440 0.41210 0.99410 0.08500
C 	C 	0.49250 0.36080 0.12890 0.43500
C 	C 	0.83100 0.48150 0.14650 -0.79800
H 	H 	0.81610 0.43420 0.18640 0.28900
H 	H 	0.95350 0.47950 0.10890 0.26600
H 	H 	0.83150 0.52620 0.19190 0.26000
O 	O 	0.84710 0.66640 0.66430 -0.53100
O 	O 	0.17780 0.66740 0.64650 -0.53600
C 	C 	0.99800 0.56600 0.56370 -0.16100
C 	C 	0.84020 0.51140 0.57090 0.25400
C 	C 	0.15130 0.55220 0.49550 -0.13600
H 	H 	0.25560 0.58790 0.49410 0.08500
C 	C 	0.00750 0.63920 0.62890 0.43600
C 	C 	0.66900 0.51850 0.64650 -0.79700
H 	H 	0.68390 0.56580 0.68640 0.28800
H 	H 	0.54650 0.52050 0.60890 0.26500
H 	H 	0.66850 0.47380 0.69190 0.25900
V 	V 	0.70470 0.25000 0.26655 1.83800
O 	O 	0.48250 0.25000 0.31340 -0.69100
V 	V 	0.79530 0.75000 0.76655 1.83700
O 	O 	0.01750 0.75000 0.81340 -0.69100
V 	V 	0.29530 0.75000 0.73345 1.83800
O 	O 	0.51750 0.75000 0.68660 -0.69100
V 	V 	0.20470 0.25000 0.23345 1.83700
O 	O 	0.98250 0.25000 0.18660 -0.69100
