data_crystal

_cell_length_a 14.92020
_cell_length_b 19.19770
_cell_length_c 31.23330
_cell_angle_alpha 102.45200
_cell_angle_beta  90.00000
_cell_angle_gamma 112.86700

_symmetry_space_group_name_	'P 1'
_symmetry_space_group_name_H-M	'P 1'

loop_
_symmetry_equiv_pos_as_xyz
  x,y,z

loop_
_atom_site_label
_atom_site_type_symbol
_atom_site_fract_x
_atom_site_fract_y
_atom_site_fract_z
_atom_site_charge
Zn	Zn	0.80065 0.83788 0.90642 1.16600
Zn	Zn	0.46981 0.64856 0.71986 1.16400
Zn	Zn	0.52589 0.24840 0.55803 1.16500
Zn	Zn	0.03723 0.83788 0.40642 1.16600
Zn	Zn	0.17875 0.64856 0.21986 1.16400
Zn	Zn	0.72251 0.24840 0.05803 1.16500
H 	H 	0.84920 0.78100 0.98030 -0.00900
H 	H 	0.98050 0.79680 0.02700 0.08100
H 	H 	0.14430 0.98240 0.97970 0.07100
H 	H 	0.00750 0.96280 0.93590 -0.00800
H 	H 	0.97460 0.81620 0.86900 -0.00100
H 	H 	0.01540 0.73620 0.81340 0.09000
H 	H 	0.72800 0.60540 0.77990 0.07900
H 	H 	0.69490 0.68700 0.83740 -0.00800
H 	H 	0.86640 0.39720 0.62870 0.08700
H 	H 	0.73950 0.30380 0.57940 0.00100
H 	H 	0.54490 0.36200 0.64530 -0.00000
H 	H 	0.66580 0.45860 0.69650 0.09000
H 	H 	0.17310 0.69420 0.76460 0.08200
H 	H 	0.33690 0.71600 0.76270 -0.01500
H 	H 	0.27520 0.52300 0.67290 -0.01100
H 	H 	0.10980 0.49660 0.67070 0.08100
H 	H 	0.08680 0.64440 0.13230 -0.01000
H 	H 	0.09920 0.72460 0.08490 0.08200
H 	H 	0.34190 0.88580 0.16040 0.08300
H 	H 	0.31650 0.80400 0.20800 -0.01600
H 	H 	0.37880 0.06180 0.00430 0.07900
H 	H 	0.50360 0.00420 0.09740 0.08100
H 	H 	0.52590 0.16300 0.00420 -0.00700
H 	H 	0.64800 0.10680 0.09420 -0.01400
H 	H 	0.93180 0.78100 0.48030 -0.01000
H 	H 	0.81630 0.79680 0.52700 0.08100
H 	H 	0.83810 0.98240 0.47970 0.07100
H 	H 	0.95530 0.96280 0.43590 -0.00800
H 	H 	0.84160 0.81620 0.36900 -0.00300
H 	H 	0.72080 0.73620 0.31340 0.09000
H 	H 	0.87740 0.60540 0.27990 0.08000
H 	H 	0.99210 0.68700 0.33740 -0.00800
H 	H 	0.53080 0.39720 0.12870 0.08700
H 	H 	0.56430 0.30380 0.07940 0.00100
H 	H 	0.81710 0.36200 0.14530 -0.00000
H 	H 	0.79280 0.45860 0.19650 0.09000
H 	H 	0.52110 0.69420 0.26460 0.08200
H 	H 	0.37910 0.71600 0.26270 -0.01500
H 	H 	0.24780 0.52300 0.17290 -0.01100
H 	H 	0.38680 0.49660 0.17070 0.08100
H 	H 	0.55760 0.64440 0.63230 -0.01000
H 	H 	0.62540 0.72460 0.58490 0.08200
H 	H 	0.54390 0.88580 0.66040 0.08300
H 	H 	0.48750 0.80400 0.70800 -0.01600
H 	H 	0.68300 0.06180 0.50430 0.07800
H 	H 	0.50060 0.00420 0.59740 0.08100
H 	H 	0.63710 0.16300 0.50420 -0.00700
H 	H 	0.45880 0.10680 0.59420 -0.01400
C 	C 	0.91060 0.82220 0.98000 0.06700
C 	C 	0.98850 0.83080 0.00790 -0.11200
C 	C 	0.07810 0.89000 0.00700 0.05000
C 	C 	0.08431 0.94002 0.98010 -0.11600
C 	C 	0.00270 0.92780 0.95400 0.06700
C 	C 	0.92400 0.77220 0.85080 0.07000
C 	C 	0.94870 0.72500 0.81770 -0.11300
C 	C 	0.87629 0.66158 0.79060 0.05700
C 	C 	0.78000 0.64800 0.79810 -0.12500
C 	C 	0.76110 0.69720 0.83230 0.07300
C 	C 	0.90274 0.60968 0.75490 0.10300
C 	C 	0.01748 0.57776 0.71990 0.10200
C 	C 	0.85829 0.50438 0.69850 0.08600
C 	C 	0.78020 0.44000 0.66760 0.04600
C 	C 	0.80110 0.39180 0.63260 -0.11300
C 	C 	0.72500 0.33600 0.60360 0.06900
C 	C 	0.61122 0.37004 0.64200 0.06800
C 	C 	0.68267 0.42774 0.67250 -0.11900
C 	C 	0.12299 0.59278 0.71810 0.05900
C 	C 	0.19220 0.65800 0.74520 -0.12000
C 	C 	0.28970 0.67040 0.74400 0.06700
C 	C 	0.25390 0.55840 0.69160 0.07600
C 	C 	0.15520 0.54200 0.69030 -0.12400
C 	C 	0.13820 0.69460 0.13830 0.07000
C 	C 	0.14600 0.74180 0.10970 -0.11300
C 	C 	0.22223 0.81386 0.11720 0.06200
C 	C 	0.28790 0.83680 0.15430 -0.11600
C 	C 	0.27300 0.78720 0.18210 0.07300
C 	C 	0.23276 0.86432 0.08630 0.10300
C 	C 	0.16601 0.89862 0.03395 0.09200
C 	C 	0.32640 0.96100 0.05550 0.09100
C 	C 	0.42140 0.02460 0.05330 0.05500
C 	C 	0.43230 0.07120 0.02440 -0.12600
C 	C 	0.50540 0.03760 0.07870 -0.12000
C 	C 	0.52050 0.13160 0.02450 0.08000
C 	C 	0.59120 0.09900 0.07670 0.07100
C 	C 	0.91160 0.82220 0.48000 0.06800
C 	C 	0.84230 0.83080 0.50790 -0.11400
C 	C 	0.81190 0.89000 0.50700 0.05200
C 	C 	0.85571 0.94002 0.48010 -0.11700
C 	C 	0.92510 0.92780 0.45400 0.07000
C 	C 	0.84820 0.77220 0.35080 0.07200
C 	C 	0.77630 0.72500 0.31770 -0.11600
C 	C 	0.78529 0.66158 0.29060 0.05800
C 	C 	0.86800 0.64800 0.29810 -0.12600
C 	C 	0.93610 0.69720 0.33230 0.07400
C 	C 	0.70694 0.60968 0.25490 0.10200
C 	C 	0.56028 0.57776 0.21990 0.10300
C 	C 	0.64609 0.50438 0.19850 0.08600
C 	C 	0.65980 0.44000 0.16760 0.04600
C 	C 	0.59070 0.39180 0.13260 -0.11300
C 	C 	0.61100 0.33600 0.10360 0.06900
C 	C 	0.75882 0.37004 0.14200 0.06800
C 	C 	0.74507 0.42774 0.17250 -0.11900
C 	C 	0.46979 0.59278 0.21810 0.05900
C 	C 	0.46580 0.65800 0.24520 -0.12000
C 	C 	0.38070 0.67040 0.24400 0.06700
C 	C 	0.30450 0.55840 0.19160 0.07600
C 	C 	0.38680 0.54200 0.19030 -0.12400
C 	C 	0.55640 0.69460 0.63830 0.07000
C 	C 	0.59580 0.74180 0.60970 -0.11300
C 	C 	0.59163 0.81386 0.61720 0.06200
C 	C 	0.54890 0.83680 0.65430 -0.11600
C 	C 	0.51420 0.78720 0.68210 0.07300
C 	C 	0.63156 0.86432 0.58630 0.10300
C 	C 	0.73261 0.89862 0.53395 0.09200
C 	C 	0.63460 0.96100 0.55550 0.09100
C 	C 	0.60320 0.02460 0.55330 0.05400
C 	C 	0.63890 0.07120 0.52440 -0.12500
C 	C 	0.53220 0.03760 0.57870 -0.11900
C 	C 	0.61110 0.13160 0.52450 0.07900
C 	C 	0.50780 0.09900 0.57670 0.07100
I 	I 	0.82468 0.95072 0.87231 -0.35500
I 	I 	0.65054 0.76068 0.93932 -0.38300
I 	I 	0.54664 0.73824 0.79476 -0.39400
I 	I 	0.49778 0.52482 0.69199 -0.37800
I 	I 	0.36296 0.22514 0.59008 -0.38000
I 	I 	0.57479 0.29866 0.48898 -0.36500
I 	I 	0.12604 0.95072 0.37231 -0.35700
I 	I 	0.11014 0.76068 0.43932 -0.38400
I 	I 	0.19160 0.73824 0.29476 -0.39500
I 	I 	0.02704 0.52482 0.19199 -0.37800
I 	I 	0.86218 0.22514 0.09008 -0.38100
I 	I 	0.72387 0.29866 0.98898 -0.36500
N 	N 	0.91689 0.86838 0.95304 -0.26900
N 	N 	0.83074 0.75808 0.85850 -0.26700
N 	N 	0.99748 0.62876 0.75045 -0.13500
N 	N 	0.95196 0.51532 0.69232 -0.13900
N 	N 	0.83002 0.54844 0.73025 -0.14200
N 	N 	0.32064 0.62168 0.71767 -0.27400
N 	N 	0.63161 0.32502 0.60785 -0.27000
N 	N 	0.20028 0.71696 0.17420 -0.27100
N 	N 	0.15224 0.85168 0.06142 -0.13600
N 	N 	0.25169 0.95238 0.02843 -0.14800
N 	N 	0.32117 0.91974 0.08564 -0.13400
N 	N 	0.59810 0.14800 0.05141 -0.27600
N 	N 	0.95149 0.86838 0.45304 -0.27000
N 	N 	0.92734 0.75808 0.35850 -0.26800
N 	N 	0.63128 0.62876 0.25045 -0.13600
N 	N 	0.56336 0.51532 0.19232 -0.13900
N 	N 	0.71842 0.54844 0.23025 -0.14200
N 	N 	0.30104 0.62168 0.21767 -0.27400
N 	N 	0.69341 0.32502 0.10785 -0.27000
N 	N 	0.51668 0.71696 0.67420 -0.27100
N 	N 	0.69944 0.85168 0.56142 -0.13600
N 	N 	0.70069 0.95238 0.52843 -0.14800
N 	N 	0.59857 0.91974 0.58564 -0.13400
N 	N 	0.54990 0.14800 0.55141 -0.27600
Zn	Zn	0.96277 0.16212 0.59358 1.16500
Zn	Zn	0.82125 0.35144 0.78014 1.16300
Zn	Zn	0.27749 0.75160 0.94197 1.16400
Zn	Zn	0.19935 0.16212 0.09358 1.16500
Zn	Zn	0.53019 0.35144 0.28014 1.16300
Zn	Zn	0.47411 0.75160 0.44197 1.16400
H 	H 	0.06820 0.21900 0.51970 -0.01000
H 	H 	0.18370 0.20320 0.47300 0.08100
H 	H 	0.16190 0.01760 0.52030 0.07100
H 	H 	0.04470 0.03720 0.56410 -0.00800
H 	H 	0.15840 0.18380 0.63100 -0.00300
H 	H 	0.27920 0.26380 0.68660 0.09000
H 	H 	0.12260 0.39460 0.72010 0.08000
H 	H 	0.00790 0.31300 0.66260 -0.00800
H 	H 	0.46920 0.60280 0.87130 0.08700
H 	H 	0.43570 0.69620 0.92060 0.00100
H 	H 	0.18290 0.63800 0.85470 -0.00000
H 	H 	0.20720 0.54140 0.80350 0.09000
H 	H 	0.47890 0.30580 0.73540 0.08200
H 	H 	0.62090 0.28400 0.73730 -0.01500
H 	H 	0.75220 0.47700 0.82710 -0.01100
H 	H 	0.61320 0.50340 0.82930 0.08100
H 	H 	0.44240 0.35560 0.36770 -0.01000
H 	H 	0.37460 0.27540 0.41510 0.08200
H 	H 	0.45610 0.11420 0.33960 0.08300
H 	H 	0.51250 0.19600 0.29200 -0.01600
H 	H 	0.31700 0.93820 0.49570 0.07800
H 	H 	0.49940 0.99580 0.40260 0.08100
H 	H 	0.36290 0.83700 0.49580 -0.00700
H 	H 	0.54120 0.89320 0.40580 -0.01400
H 	H 	0.15080 0.21900 0.01970 -0.01000
H 	H 	0.01950 0.20320 0.97300 0.08000
H 	H 	0.85570 0.01760 0.02030 0.07000
H 	H 	0.99250 0.03720 0.06410 -0.00900
H 	H 	0.02540 0.18380 0.13100 -0.00200
H 	H 	0.98460 0.26380 0.18660 0.08900
H 	H 	0.27200 0.39460 0.22010 0.07900
H 	H 	0.30510 0.31300 0.16260 -0.00800
H 	H 	0.13360 0.60280 0.37130 0.08700
H 	H 	0.26050 0.69620 0.42060 0.00100
H 	H 	0.45510 0.63800 0.35470 -0.00000
H 	H 	0.33420 0.54140 0.30350 0.09000
H 	H 	0.82690 0.30580 0.23540 0.08200
H 	H 	0.66310 0.28400 0.23730 -0.01500
H 	H 	0.72480 0.47700 0.32710 -0.01100
H 	H 	0.89020 0.50340 0.32930 0.08100
H 	H 	0.91320 0.35560 0.86770 -0.01000
H 	H 	0.90080 0.27540 0.91510 0.08200
H 	H 	0.65810 0.11420 0.83960 0.08300
H 	H 	0.68350 0.19600 0.79200 -0.01600
H 	H 	0.62120 0.93820 0.99570 0.07900
H 	H 	0.49640 0.99580 0.90260 0.08100
H 	H 	0.47410 0.83700 0.99580 -0.00700
H 	H 	0.35200 0.89320 0.90580 -0.01400
C 	C 	0.08840 0.17780 0.52000 0.06800
C 	C 	0.15770 0.16920 0.49210 -0.11400
C 	C 	0.18810 0.11000 0.49300 0.05200
C 	C 	0.14429 0.05998 0.51990 -0.11700
C 	C 	0.07490 0.07220 0.54600 0.07000
C 	C 	0.15180 0.22780 0.64920 0.07200
C 	C 	0.22370 0.27500 0.68230 -0.11600
C 	C 	0.21471 0.33842 0.70940 0.05800
C 	C 	0.13200 0.35200 0.70190 -0.12600
C 	C 	0.06390 0.30280 0.66770 0.07400
C 	C 	0.29306 0.39032 0.74510 0.10200
C 	C 	0.43972 0.42224 0.78010 0.10300
C 	C 	0.35391 0.49562 0.80150 0.08600
C 	C 	0.34020 0.56000 0.83240 0.04600
C 	C 	0.40930 0.60820 0.86740 -0.11300
C 	C 	0.38900 0.66400 0.89640 0.06900
C 	C 	0.24118 0.62996 0.85800 0.06800
C 	C 	0.25493 0.57226 0.82750 -0.11900
C 	C 	0.53021 0.40722 0.78190 0.05900
C 	C 	0.53420 0.34200 0.75480 -0.12000
C 	C 	0.61930 0.32960 0.75600 0.06700
C 	C 	0.69550 0.44160 0.80840 0.07600
C 	C 	0.61320 0.45800 0.80970 -0.12400
C 	C 	0.44360 0.30540 0.36170 0.07000
C 	C 	0.40420 0.25820 0.39030 -0.11300
C 	C 	0.40837 0.18614 0.38280 0.06200
C 	C 	0.45110 0.16320 0.34570 -0.11600
C 	C 	0.48580 0.21280 0.31790 0.07300
C 	C 	0.36844 0.13568 0.41370 0.10300
C 	C 	0.26739 0.10138 0.46605 0.09200
C 	C 	0.36540 0.03900 0.44450 0.09100
C 	C 	0.39680 0.97540 0.44670 0.05400
C 	C 	0.36110 0.92880 0.47560 -0.12500
C 	C 	0.46780 0.96240 0.42130 -0.11900
C 	C 	0.38890 0.86840 0.47550 0.07900
C 	C 	0.49220 0.90100 0.42330 0.07100
C 	C 	0.08940 0.17780 0.02000 0.06700
C 	C 	0.01150 0.16920 0.99210 -0.11200
C 	C 	0.92190 0.11000 0.99300 0.05000
C 	C 	0.91569 0.05998 0.01990 -0.11600
C 	C 	0.99730 0.07220 0.04600 0.06700
C 	C 	0.07600 0.22780 0.14920 0.07000
C 	C 	0.05130 0.27500 0.18230 -0.11300
C 	C 	0.12371 0.33842 0.20940 0.05700
C 	C 	0.22000 0.35200 0.20190 -0.12500
C 	C 	0.23890 0.30280 0.16770 0.07300
C 	C 	0.09726 0.39032 0.24510 0.10300
C 	C 	0.98252 0.42224 0.28010 0.10200
C 	C 	0.14171 0.49562 0.30150 0.08600
C 	C 	0.21980 0.56000 0.33240 0.04600
C 	C 	0.19890 0.60820 0.36740 -0.11300
C 	C 	0.27500 0.66400 0.39640 0.06900
C 	C 	0.38878 0.62996 0.35800 0.06800
C 	C 	0.31733 0.57226 0.32750 -0.11900
C 	C 	0.87701 0.40722 0.28190 0.05900
C 	C 	0.80780 0.34200 0.25480 -0.12000
C 	C 	0.71030 0.32960 0.25600 0.06700
C 	C 	0.74610 0.44160 0.30840 0.07600
C 	C 	0.84480 0.45800 0.30970 -0.12400
C 	C 	0.86180 0.30540 0.86170 0.07000
C 	C 	0.85400 0.25820 0.89030 -0.11300
C 	C 	0.77777 0.18614 0.88280 0.06200
C 	C 	0.71210 0.16320 0.84570 -0.11600
C 	C 	0.72700 0.21280 0.81790 0.07300
C 	C 	0.76724 0.13568 0.91370 0.10300
C 	C 	0.83399 0.10138 0.96605 0.09200
C 	C 	0.67360 0.03900 0.94450 0.09100
C 	C 	0.57860 0.97540 0.94670 0.05500
C 	C 	0.56770 0.92880 0.97560 -0.12600
C 	C 	0.49460 0.96240 0.92130 -0.12000
C 	C 	0.47950 0.86840 0.97550 0.08000
C 	C 	0.40880 0.90100 0.92330 0.07100
I 	I 	0.87396 0.04928 0.62769 -0.35700
I 	I 	0.88986 0.23932 0.56068 -0.38400
I 	I 	0.80840 0.26176 0.70524 -0.39500
I 	I 	0.97296 0.47518 0.80801 -0.37800
I 	I 	0.13782 0.77486 0.90992 -0.38100
I 	I 	0.27613 0.70134 0.01102 -0.36500
I 	I 	0.17532 0.04928 0.12769 -0.35500
I 	I 	0.34946 0.23932 0.06068 -0.38300
I 	I 	0.45336 0.26176 0.20524 -0.39400
I 	I 	0.50222 0.47518 0.30801 -0.37800
I 	I 	0.63704 0.77486 0.40992 -0.38000
I 	I 	0.42521 0.70134 0.51102 -0.36500
N 	N 	0.04851 0.13162 0.54696 -0.27000
N 	N 	0.07266 0.24192 0.64150 -0.26800
N 	N 	0.36872 0.37124 0.74955 -0.13600
N 	N 	0.43664 0.48468 0.80768 -0.13900
N 	N 	0.28158 0.45156 0.76975 -0.14200
N 	N 	0.69896 0.37832 0.78233 -0.27400
N 	N 	0.30659 0.67498 0.89215 -0.27000
N 	N 	0.48332 0.28304 0.32580 -0.27100
N 	N 	0.30056 0.14832 0.43858 -0.13600
N 	N 	0.29931 0.04762 0.47157 -0.14800
N 	N 	0.40143 0.08026 0.41436 -0.13400
N 	N 	0.45010 0.85200 0.44859 -0.27600
N 	N 	0.08311 0.13162 0.04696 -0.26900
N 	N 	0.16926 0.24192 0.14150 -0.26700
N 	N 	0.00252 0.37124 0.24955 -0.13500
N 	N 	0.04804 0.48468 0.30768 -0.13900
N 	N 	0.16998 0.45156 0.26975 -0.14200
N 	N 	0.67936 0.37832 0.28233 -0.27400
N 	N 	0.36839 0.67498 0.39215 -0.27000
N 	N 	0.79972 0.28304 0.82580 -0.27100
N 	N 	0.84776 0.14832 0.93858 -0.13600
N 	N 	0.74831 0.04762 0.97157 -0.14800
N 	N 	0.67883 0.08026 0.91436 -0.13400
N 	N 	0.40190 0.85200 0.94859 -0.27600
