data_crystal

_cell_length_a 11.34010
_cell_length_b 25.09350
_cell_length_c 22.87400
_cell_angle_alpha 90.00000
_cell_angle_beta  96.89500
_cell_angle_gamma 90.00000

_symmetry_space_group_name_	'P 1'
_symmetry_space_group_name_H-M	'P 1'

loop_
_symmetry_equiv_pos_as_xyz
  x,y,z

loop_
_atom_site_label
_atom_site_type_symbol
_atom_site_fract_x
_atom_site_fract_y
_atom_site_fract_z
_atom_site_charge
Pb	Pb	0.48840 0.08819 0.29503 1.22500
Pb	Pb	0.16105 0.14145 0.26667 1.24800
Cs	Cs	0.26847 0.03819 0.11361 0.71300
Cs	Cs	0.84871 0.12056 0.34958 0.70600
S 	S 	0.39400 0.34343 0.02171 0.22900
S 	S 	0.54430 0.42135 0.43447 0.32300
S 	S 	0.04780 0.41571 0.49544 0.07700
O 	O 	0.53860 0.15570 0.22650 -0.37100
O 	O 	0.35280 0.12930 0.19780 -0.46400
O 	O 	0.42410 0.56530 0.18750 -0.42400
O 	O 	0.22740 0.54780 0.18240 -0.46300
O 	O 	0.51100 0.34920 0.00070 -0.23800
O 	O 	0.28500 0.33670 0.98250 -0.25800
O 	O 	0.39810 0.17750 0.33000 -0.42900
O 	O 	0.59280 0.16490 0.35350 -0.42100
O 	O 	0.81330 0.55130 0.23000 -0.43100
O 	O 	0.96940 0.52640 0.29350 -0.39300
O 	O 	0.42850 0.44490 0.42440 -0.27800
O 	O 	0.60850 0.42190 0.49240 -0.27400
O 	O 	0.06890 0.18720 0.34470 -0.40500
O 	O 	0.12190 0.24470 0.27920 -0.35500
O 	O 	0.45410 0.35630 0.72220 -0.39700
O 	O 	0.57280 0.39370 0.66410 -0.40100
O 	O 	0.07040 0.46340 0.46420 -0.21100
C 	C 	0.43740 0.16060 0.19320 0.31200
C 	C 	0.42370 0.20580 0.15040 -0.10900
C 	C 	0.52560 0.23820 0.14590 0.01800
H 	H 	0.59720 0.23180 0.16910 0.03800
C 	C 	0.51360 0.28020 0.10490 -0.08600
H 	H 	0.57790 0.30200 0.09980 0.06900
C 	C 	0.40390 0.28850 0.07240 0.02000
C 	C 	0.30680 0.25900 0.07570 -0.09400
H 	H 	0.23490 0.26640 0.05310 0.07400
C 	C 	0.32080 0.21500 0.11660 0.02600
H 	H 	0.25670 0.19250 0.11960 0.01500
C 	C 	0.37500 0.39980 0.06790 0.02600
C 	C 	0.47600 0.42320 0.09290 -0.10300
H 	H 	0.55020 0.41010 0.08670 0.06900
C 	C 	0.46460 0.46950 0.12950 0.02400
H 	H 	0.53110 0.48680 0.14850 0.01100
C 	C 	0.34910 0.48740 0.13520 -0.11800
C 	C 	0.25500 0.46310 0.10540 0.03600
H 	H 	0.17950 0.47640 0.10870 0.00300
C 	C 	0.26600 0.41700 0.06830 -0.11500
H 	H 	0.20160 0.40090 0.04650 0.07100
C 	C 	0.33270 0.53640 0.17310 0.32600
C 	C 	0.50160 0.19260 0.35050 0.33900
C 	C 	0.51160 0.24940 0.37400 -0.07600
C 	C 	0.42100 0.28470 0.35610 -0.00900
H 	H 	0.35370 0.27320 0.33210 0.04700
C 	C 	0.43170 0.33900 0.37490 -0.04500
H 	H 	0.37320 0.36380 0.36210 0.05100
C 	C 	0.52940 0.35370 0.41180 -0.02800
C 	C 	0.61880 0.31790 0.43110 -0.04700
H 	H 	0.68380 0.32860 0.45720 0.05100
C 	C 	0.60930 0.26510 0.41050 -0.01000
H 	H 	0.66970 0.24080 0.42170 0.04700
C 	C 	0.63480 0.45040 0.38620 -0.06000
C 	C 	0.57880 0.47180 0.33210 0.01000
C 	C 	0.65790 0.49660 0.29590 -0.04200
H 	H 	0.62730 0.51160 0.26010 0.04900
C 	C 	0.77940 0.49850 0.31320 -0.05700
C 	C 	0.82680 0.47710 0.36590 -0.02500
H 	H 	0.90820 0.47970 0.37730 0.05600
C 	C 	0.75590 0.45180 0.40240 -0.02000
H 	H 	0.78920 0.43590 0.43730 0.04300
C 	C 	0.85970 0.52720 0.27460 0.31400
C 	C 	0.08590 0.23470 0.32680 0.31500
C 	C 	0.06870 0.27920 0.36830 -0.09800
C 	C 	0.10520 0.33020 0.35380 0.01900
H 	H 	0.13480 0.33620 0.31820 0.03300
C 	C 	0.09690 0.37130 0.39270 -0.08800
H 	H 	0.12240 0.40520 0.38380 0.05400
C 	C 	0.05030 0.36230 0.44550 0.03500
C 	C 	0.01140 0.31370 0.45940 -0.09300
H 	H 	0.97890 0.30850 0.49440 0.06200
C 	C 	0.02070 0.27040 0.42000 0.03000
H 	H 	0.99460 0.23660 0.42910 0.02900
C 	C 	0.17170 0.40380 0.54780 0.04600
C 	C 	0.28160 0.41740 0.53390 -0.09400
H 	H 	0.29020 0.43190 0.49720 0.08000
C 	C 	0.38250 0.40930 0.57620 0.03100
H 	H 	0.45830 0.41850 0.56820 0.03900
C 	C 	0.36350 0.38680 0.63040 -0.10500
C 	C 	0.25280 0.37310 0.64230 0.03800
H 	H 	0.24330 0.35790 0.67850 0.03400
C 	C 	0.15240 0.38160 0.60090 -0.10400
H 	H 	0.07650 0.37260 0.60910 0.06700
C 	C 	0.47000 0.37850 0.67470 0.32300
Pb	Pb	0.01160 0.58819 0.20497 1.22800
Pb	Pb	0.33895 0.64145 0.23333 1.24800
Cs	Cs	0.23153 0.53819 0.38639 0.71300
Cs	Cs	0.65129 0.62056 0.15042 0.70800
S 	S 	0.10600 0.84343 0.47829 0.23400
S 	S 	0.95570 0.92135 0.06553 0.31500
S 	S 	0.45220 0.91571 0.00456 0.31100
O 	O 	0.96140 0.65570 0.27350 -0.37300
O 	O 	0.14720 0.62930 0.30220 -0.46400
O 	O 	0.07590 0.06530 0.31250 -0.42200
O 	O 	0.27260 0.04780 0.31760 -0.46300
O 	O 	0.98900 0.84920 0.49930 -0.24100
O 	O 	0.21500 0.83670 0.51750 -0.26000
O 	O 	0.10190 0.67750 0.17000 -0.42700
O 	O 	0.90720 0.66490 0.14650 -0.42100
O 	O 	0.68670 0.05130 0.27000 -0.43100
O 	O 	0.53060 0.02640 0.20650 -0.39100
O 	O 	0.07150 0.94490 0.07560 -0.27400
O 	O 	0.89150 0.92190 0.00760 -0.26500
O 	O 	0.43110 0.68720 0.15530 -0.40400
O 	O 	0.37810 0.74470 0.22080 -0.35300
O 	O 	0.04590 0.85630 0.77780 -0.39400
O 	O 	0.92720 0.89370 0.83590 -0.40100
O 	O 	0.55710 0.91060 0.97600 -0.26200
O 	O 	0.42960 0.96340 0.03580 -0.25700
C 	C 	0.06260 0.66060 0.30680 0.31500
C 	C 	0.07630 0.70580 0.34960 -0.10700
C 	C 	0.97440 0.73820 0.35410 0.01600
H 	H 	0.90280 0.73180 0.33090 0.03800
C 	C 	0.98640 0.78020 0.39510 -0.09000
H 	H 	0.92210 0.80200 0.40020 0.07000
C 	C 	0.09610 0.78850 0.42760 0.02200
C 	C 	0.19320 0.75900 0.42430 -0.09500
H 	H 	0.26510 0.76640 0.44690 0.07400
C 	C 	0.17920 0.71500 0.38340 0.02600
H 	H 	0.24330 0.69250 0.38040 0.01500
C 	C 	0.12500 0.89980 0.43210 0.02400
C 	C 	0.02400 0.92320 0.40710 -0.09800
H 	H 	0.94980 0.91010 0.41330 0.06600
C 	C 	0.03540 0.96950 0.37050 0.02800
H 	H 	0.96890 0.98680 0.35150 0.00700
C 	C 	0.15090 0.98740 0.36480 -0.11800
C 	C 	0.24500 0.96310 0.39460 0.03600
H 	H 	0.32050 0.97640 0.39130 0.00300
C 	C 	0.23400 0.91700 0.43170 -0.11400
H 	H 	0.29840 0.90090 0.45350 0.07000
C 	C 	0.16730 0.03640 0.32690 0.32700
C 	C 	0.99840 0.69260 0.14950 0.33700
C 	C 	0.98840 0.74940 0.12600 -0.08000
C 	C 	0.07900 0.78470 0.14390 -0.00400
H 	H 	0.14630 0.77320 0.16790 0.04500
C 	C 	0.06830 0.83900 0.12510 -0.04600
H 	H 	0.12680 0.86380 0.13790 0.05200
C 	C 	0.97060 0.85370 0.08820 -0.02500
C 	C 	0.88120 0.81790 0.06890 -0.05300
H 	H 	0.81620 0.82860 0.04280 0.05900
C 	C 	0.89070 0.76510 0.08950 -0.00500
H 	H 	0.83030 0.74080 0.07830 0.04600
C 	C 	0.86520 0.95040 0.11380 -0.05000
C 	C 	0.92120 0.97180 0.16790 0.00500
C 	C 	0.84210 0.99660 0.20410 -0.03600
H 	H 	0.87270 0.01160 0.23990 0.04500
C 	C 	0.72060 0.99850 0.18680 -0.06200
C 	C 	0.67320 0.97710 0.13410 -0.01300
H 	H 	0.59180 0.97970 0.12270 0.05600
C 	C 	0.74410 0.95180 0.09760 -0.03400
H 	H 	0.71080 0.93590 0.06270 0.06500
C 	C 	0.64030 0.02720 0.22540 0.31500
C 	C 	0.41410 0.73470 0.17320 0.30400
C 	C 	0.43130 0.77920 0.13170 -0.07000
C 	C 	0.39480 0.83020 0.14620 -0.01800
H 	H 	0.36520 0.83620 0.18180 0.04500
C 	C 	0.40310 0.87130 0.10730 -0.03700
H 	H 	0.37760 0.90520 0.11620 0.03500
C 	C 	0.44970 0.86230 0.05450 -0.03200
C 	C 	0.48860 0.81370 0.04060 -0.04400
H 	H 	0.52110 0.80850 0.00560 0.05900
C 	C 	0.47930 0.77040 0.08000 -0.01200
H 	H 	0.50540 0.73660 0.07090 0.04700
C 	C 	0.32830 0.90380 0.95220 -0.02300
C 	C 	0.21840 0.91740 0.96610 -0.04500
H 	H 	0.20980 0.93190 0.00280 0.06100
C 	C 	0.11750 0.90930 0.92380 -0.00200
H 	H 	0.04170 0.91850 0.93180 0.05200
C 	C 	0.13650 0.88680 0.86960 -0.08000
C 	C 	0.24720 0.87310 0.85770 0.00400
H 	H 	0.25670 0.85790 0.82150 0.04600
C 	C 	0.34760 0.88160 0.89910 -0.05200
H 	H 	0.42350 0.87260 0.89090 0.06100
C 	C 	0.03000 0.87850 0.82530 0.31800
Pb	Pb	0.51160 0.91181 0.70497 1.22600
Pb	Pb	0.83895 0.85855 0.73333 1.24800
Cs	Cs	0.73153 0.96181 0.88639 0.71300
Cs	Cs	0.15129 0.87944 0.65042 0.70900
S 	S 	0.60600 0.65657 0.97829 0.22900
S 	S 	0.45570 0.57865 0.56553 0.31900
S 	S 	0.95220 0.58429 0.50456 0.30700
O 	O 	0.46140 0.84430 0.77350 -0.37100
O 	O 	0.64720 0.87070 0.80220 -0.46400
O 	O 	0.57590 0.43470 0.81250 -0.42400
O 	O 	0.77260 0.45220 0.81760 -0.46400
O 	O 	0.48900 0.65080 0.99930 -0.23800
O 	O 	0.71500 0.66330 0.01750 -0.25900
O 	O 	0.60190 0.82250 0.67000 -0.43000
O 	O 	0.40720 0.83510 0.64650 -0.42100
O 	O 	0.18670 0.44870 0.77000 -0.43000
O 	O 	0.03060 0.47360 0.70650 -0.39300
O 	O 	0.57150 0.55510 0.57560 -0.27800
O 	O 	0.39150 0.57810 0.50760 -0.26500
O 	O 	0.93110 0.81280 0.65530 -0.40500
O 	O 	0.87810 0.75530 0.72080 -0.35300
O 	O 	0.54590 0.64370 0.27780 -0.39500
O 	O 	0.42720 0.60630 0.33590 -0.39700
O 	O 	0.05710 0.58940 0.47600 -0.26000
O 	O 	0.92960 0.53660 0.53580 -0.27100
C 	C 	0.56260 0.83940 0.80680 0.31200
C 	C 	0.57630 0.79420 0.84960 -0.10900
C 	C 	0.47440 0.76180 0.85410 0.01800
H 	H 	0.40280 0.76820 0.83090 0.03800
C 	C 	0.48640 0.71980 0.89510 -0.08600
H 	H 	0.42210 0.69800 0.90020 0.07000
C 	C 	0.59610 0.71150 0.92760 0.02000
C 	C 	0.69320 0.74100 0.92430 -0.09400
H 	H 	0.76510 0.73360 0.94690 0.07400
C 	C 	0.67920 0.78500 0.88340 0.02600
H 	H 	0.74330 0.80750 0.88040 0.01500
C 	C 	0.62500 0.60020 0.93210 0.02600
C 	C 	0.52400 0.57680 0.90710 -0.10400
H 	H 	0.44980 0.58990 0.91330 0.07000
C 	C 	0.53540 0.53050 0.87050 0.02400
H 	H 	0.46890 0.51320 0.85150 0.01100
C 	C 	0.65090 0.51260 0.86480 -0.11800
C 	C 	0.74500 0.53690 0.89460 0.03600
H 	H 	0.82050 0.52360 0.89130 0.00200
C 	C 	0.73400 0.58300 0.93170 -0.11600
H 	H 	0.79840 0.59910 0.95350 0.07000
C 	C 	0.66730 0.46360 0.82690 0.32600
C 	C 	0.49840 0.80740 0.64950 0.34000
C 	C 	0.48840 0.75060 0.62600 -0.07800
C 	C 	0.57900 0.71530 0.64390 -0.00600
H 	H 	0.64630 0.72680 0.66790 0.04600
C 	C 	0.56830 0.66100 0.62510 -0.04800
H 	H 	0.62680 0.63620 0.63790 0.05200
C 	C 	0.47060 0.64630 0.58820 -0.02300
C 	C 	0.38120 0.68210 0.56890 -0.05200
H 	H 	0.31620 0.67140 0.54280 0.05900
C 	C 	0.39070 0.73490 0.58950 -0.00500
H 	H 	0.33030 0.75920 0.57830 0.04700
C 	C 	0.36520 0.54960 0.61380 -0.05100
C 	C 	0.42120 0.52820 0.66790 0.00600
C 	C 	0.34210 0.50340 0.70410 -0.03700
H 	H 	0.37270 0.48840 0.73990 0.04700
C 	C 	0.22060 0.50150 0.68680 -0.06300
C 	C 	0.17320 0.52290 0.63410 -0.01300
H 	H 	0.09180 0.52030 0.62270 0.05300
C 	C 	0.24410 0.54820 0.59760 -0.03400
H 	H 	0.21080 0.56410 0.56270 0.06500
C 	C 	0.14030 0.47280 0.72540 0.31600
C 	C 	0.91410 0.76530 0.67320 0.30300
C 	C 	0.93130 0.72080 0.63170 -0.06900
C 	C 	0.89480 0.66980 0.64620 -0.01900
H 	H 	0.86520 0.66380 0.68180 0.04500
C 	C 	0.90310 0.62870 0.60730 -0.03800
H 	H 	0.87760 0.59480 0.61620 0.03300
C 	C 	0.94970 0.63770 0.55450 -0.03100
C 	C 	0.98860 0.68630 0.54060 -0.04900
H 	H 	0.02110 0.69150 0.50560 0.06300
C 	C 	0.97930 0.72960 0.58000 -0.01700
H 	H 	0.00540 0.76340 0.57090 0.05100
C 	C 	0.82830 0.59620 0.45220 -0.02400
C 	C 	0.71840 0.58260 0.46610 -0.04500
H 	H 	0.70980 0.56810 0.50280 0.05900
C 	C 	0.61750 0.59070 0.42380 -0.00300
H 	H 	0.54170 0.58150 0.43180 0.05100
C 	C 	0.63650 0.61320 0.36960 -0.07900
C 	C 	0.74720 0.62690 0.35770 0.00200
H 	H 	0.75670 0.64210 0.32150 0.04600
C 	C 	0.84760 0.61840 0.39910 -0.05100
H 	H 	0.92350 0.62740 0.39090 0.06000
C 	C 	0.53000 0.62150 0.32530 0.31300
Pb	Pb	0.98840 0.41181 0.79503 1.22400
Pb	Pb	0.66105 0.35855 0.76667 1.24800
Cs	Cs	0.76847 0.46181 0.61361 0.70500
Cs	Cs	0.34871 0.37944 0.84958 0.70800
S 	S 	0.89400 0.15657 0.52171 0.22400
S 	S 	0.04430 0.07865 0.93447 0.32400
S 	S 	0.54780 0.08429 0.99544 0.31100
O 	O 	0.03860 0.34430 0.72650 -0.36600
O 	O 	0.85280 0.37070 0.69780 -0.46800
O 	O 	0.92410 0.93470 0.68750 -0.42600
O 	O 	0.72740 0.95220 0.68240 -0.46300
O 	O 	0.01100 0.15080 0.50070 -0.23300
O 	O 	0.78500 0.16330 0.48250 -0.25900
O 	O 	0.89810 0.32250 0.83000 -0.43400
O 	O 	0.09280 0.33510 0.85350 -0.42100
O 	O 	0.31330 0.94870 0.73000 -0.43100
O 	O 	0.46940 0.97360 0.79350 -0.39100
O 	O 	0.92850 0.05510 0.92440 -0.28100
O 	O 	0.10850 0.07810 0.99240 -0.26500
O 	O 	0.56890 0.31280 0.84470 -0.40400
O 	O 	0.62190 0.25530 0.77920 -0.35300
O 	O 	0.95410 0.14370 0.22220 -0.39600
O 	O 	0.07280 0.10630 0.16410 -0.39300
O 	O 	0.44290 0.08940 0.02400 -0.26200
O 	O 	0.57040 0.03660 0.96420 -0.25700
C 	C 	0.93740 0.33940 0.69320 0.30400
C 	C 	0.92370 0.29420 0.65040 -0.11700
C 	C 	0.02560 0.26180 0.64590 0.02200
H 	H 	0.09720 0.26820 0.66910 0.03700
C 	C 	0.01360 0.21980 0.60490 -0.08200
H 	H 	0.07790 0.19800 0.59980 0.06900
C 	C 	0.90390 0.21150 0.57240 0.01500
C 	C 	0.80680 0.24100 0.57570 -0.09500
H 	H 	0.73490 0.23360 0.55310 0.07300
C 	C 	0.82080 0.28500 0.61660 0.02200
H 	H 	0.75670 0.30750 0.61960 0.01200
C 	C 	0.87500 0.10020 0.56790 0.03000
C 	C 	0.97600 0.07680 0.59290 -0.11200
H 	H 	0.05020 0.08990 0.58670 0.07500
C 	C 	0.96460 0.03050 0.62950 0.01900
H 	H 	0.03110 0.01320 0.64850 0.01600
C 	C 	0.84910 0.01260 0.63520 -0.11700
C 	C 	0.75500 0.03690 0.60540 0.03700
H 	H 	0.67950 0.02360 0.60870 0.00300
C 	C 	0.76600 0.08300 0.56830 -0.11700
H 	H 	0.70160 0.09910 0.54650 0.07100
C 	C 	0.83270 0.96360 0.67310 0.32600
C 	C 	0.00160 0.30740 0.85050 0.34500
C 	C 	0.01160 0.25060 0.87400 -0.07300
C 	C 	0.92100 0.21530 0.85610 -0.01100
H 	H 	0.85370 0.22680 0.83210 0.04700
C 	C 	0.93170 0.16100 0.87490 -0.05400
H 	H 	0.87320 0.13620 0.86210 0.05300
C 	C 	0.02940 0.14630 0.91180 -0.01700
C 	C 	0.11880 0.18210 0.93110 -0.05300
H 	H 	0.18380 0.17140 0.95720 0.06000
C 	C 	0.10930 0.23490 0.91050 -0.00500
H 	H 	0.16970 0.25920 0.92170 0.04700
C 	C 	0.13480 0.04960 0.88620 -0.05300
C 	C 	0.07880 0.02820 0.83210 0.01000
C 	C 	0.15790 0.00340 0.79590 -0.03800
H 	H 	0.12730 0.98840 0.76010 0.04800
C 	C 	0.27940 0.00150 0.81320 -0.06000
C 	C 	0.32680 0.02290 0.86590 -0.01500
H 	H 	0.40820 0.02030 0.87730 0.05600
C 	C 	0.25590 0.04820 0.90240 -0.03200
H 	H 	0.28920 0.06410 0.93730 0.06400
C 	C 	0.35970 0.97280 0.77460 0.31500
C 	C 	0.58590 0.26530 0.82680 0.30400
C 	C 	0.56870 0.22080 0.86830 -0.07000
C 	C 	0.60520 0.16980 0.85380 -0.01800
H 	H 	0.63480 0.16380 0.81820 0.04500
C 	C 	0.59690 0.12870 0.89270 -0.03800
H 	H 	0.62240 0.09480 0.88380 0.03500
C 	C 	0.55030 0.13770 0.94550 -0.03200
C 	C 	0.51140 0.18630 0.95940 -0.04400
H 	H 	0.47890 0.19150 0.99440 0.05900
C 	C 	0.52070 0.22960 0.92000 -0.01200
H 	H 	0.49460 0.26340 0.92910 0.04700
C 	C 	0.67170 0.09620 0.04780 -0.02400
C 	C 	0.78160 0.08260 0.03390 -0.04500
H 	H 	0.79020 0.06810 0.99720 0.06000
C 	C 	0.88250 0.09070 0.07620 -0.00300
H 	H 	0.95830 0.08150 0.06820 0.05000
C 	C 	0.86350 0.11320 0.13040 -0.07800
C 	C 	0.75280 0.12690 0.14230 0.00200
H 	H 	0.74330 0.14210 0.17850 0.04600
C 	C 	0.65240 0.11840 0.10090 -0.05100
H 	H 	0.57650 0.12740 0.10910 0.06100
C 	C 	0.97000 0.12150 0.17470 0.30900
