data_crystal

_cell_length_a 13.33990
_cell_length_b 13.33990
_cell_length_c 20.77730
_cell_angle_alpha 90.00000
_cell_angle_beta  90.00000
_cell_angle_gamma 108.34200

_symmetry_space_group_name_	'P 1'
_symmetry_space_group_name_H-M	'P 1'

loop_
_symmetry_equiv_pos_as_xyz
  x,y,z

loop_
_atom_site_label
_atom_site_type_symbol
_atom_site_fract_x
_atom_site_fract_y
_atom_site_fract_z
_atom_site_charge
K 	K 	0.12690 0.12690 -0.00000 0.60000
K 	K 	0.87310 0.87310 0.50000 0.60600
K 	K 	0.87310 0.87310 -0.00000 0.60000
K 	K 	0.12690 0.12690 0.50000 0.60700
Nd	Nd	0.62875 0.88165 0.25000 1.19700
Nd	Nd	0.37125 0.11835 0.75000 1.19900
Nd	Nd	0.11835 0.37125 0.25000 1.19700
Nd	Nd	0.88165 0.62875 0.75000 1.19900
Re	Re	0.25655 0.55989 0.95025 0.38200
Re	Re	0.74345 0.44011 0.45025 0.34300
Re	Re	0.44011 0.74345 0.54975 0.34300
Re	Re	0.55989 0.25655 0.04975 0.30600
Re	Re	0.74345 0.44011 0.04975 0.30600
Re	Re	0.25655 0.55989 0.54975 0.34300
Re	Re	0.55989 0.25655 0.45025 0.34300
Re	Re	0.44011 0.74345 0.95025 0.38200
Re	Re	0.29750 0.70250 0.05770 0.32800
Re	Re	0.23464 0.76536 0.93386 0.35800
Re	Re	0.70250 0.29750 0.55770 0.33500
Re	Re	0.76536 0.23464 0.43386 0.33200
Re	Re	0.29750 0.70250 0.44230 0.33500
Re	Re	0.23464 0.76536 0.56614 0.33200
Re	Re	0.70250 0.29750 0.94230 0.34200
Re	Re	0.76536 0.23464 0.06614 0.30800
Te	Te	0.10832 0.62054 0.00806 -0.15000
Te	Te	0.89168 0.37946 0.50806 -0.10300
Te	Te	0.37946 0.89168 0.49194 -0.10100
Te	Te	0.62054 0.10832 0.99194 -0.05700
Te	Te	0.89168 0.37946 0.99194 -0.05700
Te	Te	0.10832 0.62054 0.49194 -0.10100
Te	Te	0.62054 0.10832 0.50806 -0.10300
Te	Te	0.37946 0.89168 0.00806 -0.15000
Te	Te	0.32326 0.67674 0.84744 -0.12000
Te	Te	0.41624 0.58376 0.03031 -0.13900
Te	Te	0.67674 0.32326 0.34744 -0.11200
Te	Te	0.58376 0.41624 0.53031 -0.10200
Te	Te	0.32326 0.67674 0.65256 -0.11100
Te	Te	0.41624 0.58376 0.46969 -0.10200
Te	Te	0.67674 0.32326 0.15256 -0.10300
Te	Te	0.58376 0.41624 0.96969 -0.06500
C 	C 	0.41520 0.76380 0.12840 -0.03800
C 	C 	0.13110 0.47870 0.88950 -0.05800
C 	C 	0.32550 0.45790 0.90250 -0.05600
C 	C 	0.18690 0.41970 0.00190 -0.08900
C 	C 	0.28400 0.89340 0.86910 -0.05800
C 	C 	0.58480 0.23620 0.62840 -0.04000
C 	C 	0.86890 0.52130 0.38950 -0.06400
C 	C 	0.67450 0.54210 0.40250 -0.06200
C 	C 	0.81310 0.58030 0.50190 -0.06400
C 	C 	0.71600 0.10660 0.36910 -0.06000
C 	C 	0.23620 0.58480 0.37160 -0.04000
C 	C 	0.52130 0.86890 0.61050 -0.06300
C 	C 	0.54210 0.67450 0.59750 -0.06200
C 	C 	0.58030 0.81310 0.49810 -0.06300
C 	C 	0.10660 0.71600 0.63090 -0.05900
C 	C 	0.76380 0.41520 0.87160 -0.04200
C 	C 	0.47870 0.13110 0.11050 -0.06800
C 	C 	0.45790 0.32550 0.09750 -0.06700
C 	C 	0.41970 0.18690 0.99810 -0.03800
C 	C 	0.89340 0.28400 0.13090 -0.06100
C 	C 	0.58480 0.23620 0.87160 -0.04200
C 	C 	0.86890 0.52130 0.11050 -0.06800
C 	C 	0.67450 0.54210 0.09750 -0.06700
C 	C 	0.81310 0.58030 0.99810 -0.03800
C 	C 	0.71600 0.10660 0.13090 -0.06100
C 	C 	0.41520 0.76380 0.37160 -0.04000
C 	C 	0.13110 0.47870 0.61050 -0.06300
C 	C 	0.32550 0.45790 0.59750 -0.06200
C 	C 	0.18690 0.41970 0.49810 -0.06300
C 	C 	0.28400 0.89340 0.63090 -0.05900
C 	C 	0.76380 0.41520 0.62840 -0.04000
C 	C 	0.47870 0.13110 0.38950 -0.06400
C 	C 	0.45790 0.32550 0.40250 -0.06200
C 	C 	0.41970 0.18690 0.50190 -0.06400
C 	C 	0.89340 0.28400 0.36910 -0.06000
C 	C 	0.23620 0.58480 0.12840 -0.03800
C 	C 	0.52130 0.86890 0.88950 -0.05800
C 	C 	0.54210 0.67450 0.90250 -0.05600
C 	C 	0.58030 0.81310 0.00190 -0.08900
C 	C 	0.10660 0.71600 0.86910 -0.05800
C 	C 	0.21830 0.78170 0.11620 -0.05900
C 	C 	0.14280 0.85720 0.96920 -0.05800
C 	C 	0.78170 0.21830 0.61620 -0.05800
C 	C 	0.85720 0.14280 0.46920 -0.07300
C 	C 	0.21830 0.78170 0.38380 -0.05800
C 	C 	0.14280 0.85720 0.53080 -0.07200
C 	C 	0.78170 0.21830 0.88380 -0.05800
C 	C 	0.85720 0.14280 0.03080 -0.08500
N 	N 	0.48060 0.79780 0.16570 -0.21600
N 	N 	0.06340 0.43140 0.85790 -0.11400
N 	N 	0.36270 0.40430 0.87530 -0.12900
N 	N 	0.14580 0.34100 0.02640 -0.16900
N 	N 	0.31150 0.96350 0.83430 -0.22000
N 	N 	0.51940 0.20220 0.66570 -0.21600
N 	N 	0.93660 0.56860 0.35790 -0.11600
N 	N 	0.63730 0.59570 0.37530 -0.13000
N 	N 	0.85420 0.65900 0.52640 -0.16900
N 	N 	0.68850 0.03650 0.33430 -0.22100
N 	N 	0.20220 0.51940 0.33430 -0.21500
N 	N 	0.56860 0.93660 0.64210 -0.11500
N 	N 	0.59570 0.63730 0.62470 -0.13000
N 	N 	0.65900 0.85420 0.47360 -0.16900
N 	N 	0.03650 0.68850 0.66570 -0.22100
N 	N 	0.79780 0.48060 0.83430 -0.21500
N 	N 	0.43140 0.06340 0.14210 -0.11700
N 	N 	0.40430 0.36270 0.12470 -0.13100
N 	N 	0.34100 0.14580 0.97360 -0.16700
N 	N 	0.96350 0.31150 0.16570 -0.22200
N 	N 	0.51940 0.20220 0.83430 -0.21500
N 	N 	0.93660 0.56860 0.14210 -0.11700
N 	N 	0.63730 0.59570 0.12470 -0.13100
N 	N 	0.85420 0.65900 0.97360 -0.16700
N 	N 	0.68850 0.03650 0.16570 -0.22200
N 	N 	0.48060 0.79780 0.33430 -0.21500
N 	N 	0.06340 0.43140 0.64210 -0.11500
N 	N 	0.36270 0.40430 0.62470 -0.13000
N 	N 	0.14580 0.34100 0.47360 -0.16900
N 	N 	0.31150 0.96350 0.66570 -0.22100
N 	N 	0.79780 0.48060 0.66570 -0.21600
N 	N 	0.43140 0.06340 0.35790 -0.11600
N 	N 	0.40430 0.36270 0.37530 -0.13000
N 	N 	0.34100 0.14580 0.52640 -0.16900
N 	N 	0.96350 0.31150 0.33430 -0.22100
N 	N 	0.20220 0.51940 0.16570 -0.21600
N 	N 	0.56860 0.93660 0.85790 -0.11400
N 	N 	0.59570 0.63730 0.87530 -0.12900
N 	N 	0.65900 0.85420 0.02640 -0.16900
N 	N 	0.03650 0.68850 0.83430 -0.22000
N 	N 	0.17610 0.82390 0.14850 -0.11800
N 	N 	0.09280 0.90720 0.98420 -0.20500
N 	N 	0.82390 0.17610 0.64850 -0.11600
N 	N 	0.90720 0.09280 0.48420 -0.21500
N 	N 	0.17610 0.82390 0.35150 -0.11600
N 	N 	0.09280 0.90720 0.51580 -0.21400
N 	N 	0.82390 0.17610 0.85150 -0.11400
N 	N 	0.90720 0.09280 0.01580 -0.22000
