data_crystal

_cell_length_a 12.81710
_cell_length_b 17.21310
_cell_length_c 16.94660
_cell_angle_alpha 90.00000
_cell_angle_beta  108.73600
_cell_angle_gamma 90.00000

_symmetry_space_group_name_	'P 1'
_symmetry_space_group_name_H-M	'P 1'

loop_
_symmetry_equiv_pos_as_xyz
  x,y,z

loop_
_atom_site_label
_atom_site_type_symbol
_atom_site_fract_x
_atom_site_fract_y
_atom_site_fract_z
_atom_site_charge
Re	Re	0.69417 0.37919 0.06298 0.33800
Re	Re	0.79556 0.38130 0.93404 0.33100
Re	Re	0.85601 0.26521 0.06272 0.33500
Re	Re	0.64455 0.26043 0.93686 0.33100
Nd	Nd	0.31727 0.30665 0.14879 1.29900
Te	Te	0.82941 0.23472 0.90449 -0.06000
Te	Te	0.67411 0.23165 0.09568 -0.08300
Te	Te	0.58297 0.40699 0.90551 -0.10600
Te	Te	0.90349 0.41427 0.09068 -0.08100
N 	N 	0.45800 0.37600 0.09310 -0.21600
N 	N 	0.76090 0.40090 0.26360 -0.09300
N 	N 	0.67380 0.56420 0.09150 -0.11100
N 	N 	0.79050 0.56660 0.89650 -0.21900
N 	N 	0.72200 0.39920 0.73280 -0.10000
N 	N 	0.03670 0.40060 0.91250 -0.10200
N 	N 	0.11760 0.25830 0.08860 -0.22700
N 	N 	0.89140 0.07900 0.08210 -0.09000
N 	N 	0.96880 0.25680 0.26310 -0.09900
N 	N 	0.62570 0.07200 0.91820 -0.10300
N 	N 	0.51700 0.23870 0.73930 -0.21100
N 	N 	0.38840 0.22930 0.91650 -0.13600
C 	C 	0.53910 0.37990 0.07890 -0.03700
C 	C 	0.73870 0.39050 0.19170 -0.05600
C 	C 	0.67870 0.49970 0.07820 -0.05100
C 	C 	0.79420 0.50280 0.91510 -0.03400
C 	C 	0.74680 0.38940 0.80320 -0.05600
C 	C 	0.95250 0.39220 0.92030 -0.05100
C 	C 	0.02410 0.25990 0.07520 -0.03900
C 	C 	0.87940 0.14510 0.07530 -0.04800
C 	C 	0.92650 0.25970 0.19260 -0.05400
C 	C 	0.63590 0.13650 0.92670 -0.04700
C 	C 	0.57080 0.24870 0.80800 -0.05400
C 	C 	0.47810 0.24370 0.92630 -0.07700
Re	Re	0.30583 0.87919 0.43702 0.33800
Re	Re	0.20444 0.88130 0.56596 0.33100
Re	Re	0.14399 0.76521 0.43728 0.33500
Re	Re	0.35545 0.76043 0.56314 0.33100
Nd	Nd	0.68273 0.80665 0.35121 1.30000
Te	Te	0.17059 0.73472 0.59551 -0.05900
Te	Te	0.32589 0.73165 0.40432 -0.08200
Te	Te	0.41703 0.90699 0.59449 -0.10500
Te	Te	0.09651 0.91427 0.40932 -0.08100
N 	N 	0.54200 0.87600 0.40690 -0.21500
N 	N 	0.23910 0.90090 0.23640 -0.09200
N 	N 	0.32620 0.06420 0.40850 -0.11000
N 	N 	0.20950 0.06660 0.60350 -0.21900
N 	N 	0.27800 0.89920 0.76720 -0.10000
N 	N 	0.96330 0.90060 0.58750 -0.10300
N 	N 	0.88240 0.75830 0.41140 -0.22700
N 	N 	0.10860 0.57900 0.41790 -0.09000
N 	N 	0.03120 0.75680 0.23690 -0.09900
N 	N 	0.37430 0.57200 0.58180 -0.10300
N 	N 	0.48300 0.73870 0.76070 -0.21100
N 	N 	0.61160 0.72930 0.58350 -0.13600
C 	C 	0.46090 0.87990 0.42110 -0.03700
C 	C 	0.26130 0.89050 0.30830 -0.05600
C 	C 	0.32130 0.99970 0.42180 -0.05100
C 	C 	0.20580 0.00280 0.58490 -0.03400
C 	C 	0.25320 0.88940 0.69680 -0.05600
C 	C 	0.04750 0.89220 0.57970 -0.05000
C 	C 	0.97590 0.75990 0.42480 -0.03800
C 	C 	0.12060 0.64510 0.42470 -0.04800
C 	C 	0.07350 0.75970 0.30740 -0.05400
C 	C 	0.36410 0.63650 0.57330 -0.04700
C 	C 	0.42920 0.74870 0.69200 -0.05400
C 	C 	0.52190 0.74370 0.57370 -0.07700
Re	Re	0.30583 0.62081 0.93702 0.33900
Re	Re	0.20444 0.61870 0.06596 0.33200
Re	Re	0.14399 0.73479 0.93728 0.33600
Re	Re	0.35545 0.73957 0.06314 0.33200
Nd	Nd	0.68273 0.69335 0.85121 1.30000
Te	Te	0.17059 0.76528 0.09551 -0.05900
Te	Te	0.32589 0.76835 0.90432 -0.08200
Te	Te	0.41703 0.59301 0.09449 -0.10500
Te	Te	0.09651 0.58573 0.90932 -0.08000
N 	N 	0.54200 0.62400 0.90690 -0.21500
N 	N 	0.23910 0.59910 0.73640 -0.09200
N 	N 	0.32620 0.43580 0.90850 -0.11000
N 	N 	0.20950 0.43340 0.10350 -0.21900
N 	N 	0.27800 0.60080 0.26720 -0.10000
N 	N 	0.96330 0.59940 0.08750 -0.10200
N 	N 	0.88240 0.74170 0.91140 -0.22700
N 	N 	0.10860 0.92100 0.91790 -0.09000
N 	N 	0.03120 0.74320 0.73690 -0.09900
N 	N 	0.37430 0.92800 0.08180 -0.10300
N 	N 	0.48300 0.76130 0.26070 -0.21100
N 	N 	0.61160 0.77070 0.08350 -0.13600
C 	C 	0.46090 0.62010 0.92110 -0.03700
C 	C 	0.26130 0.60950 0.80830 -0.05600
C 	C 	0.32130 0.50030 0.92180 -0.05100
C 	C 	0.20580 0.49720 0.08490 -0.03400
C 	C 	0.25320 0.61060 0.19680 -0.05600
C 	C 	0.04750 0.60780 0.07970 -0.05100
C 	C 	0.97590 0.74010 0.92480 -0.03900
C 	C 	0.12060 0.85490 0.92470 -0.04800
C 	C 	0.07350 0.74030 0.80740 -0.05400
C 	C 	0.36410 0.86350 0.07330 -0.04700
C 	C 	0.42920 0.75130 0.19200 -0.05400
C 	C 	0.52190 0.75630 0.07370 -0.07700
Re	Re	0.69417 0.12081 0.56298 0.33800
Re	Re	0.79556 0.11870 0.43404 0.33100
Re	Re	0.85601 0.23479 0.56272 0.33500
Re	Re	0.64455 0.23957 0.43686 0.33100
Nd	Nd	0.31727 0.19335 0.64879 1.30000
Te	Te	0.82941 0.26528 0.40449 -0.05900
Te	Te	0.67411 0.26835 0.59568 -0.08200
Te	Te	0.58297 0.09301 0.40551 -0.10500
Te	Te	0.90349 0.08573 0.59068 -0.08100
N 	N 	0.45800 0.12400 0.59310 -0.21500
N 	N 	0.76090 0.09910 0.76360 -0.09200
N 	N 	0.67380 0.93580 0.59150 -0.11000
N 	N 	0.79050 0.93340 0.39650 -0.21900
N 	N 	0.72200 0.10080 0.23280 -0.10000
N 	N 	0.03670 0.09940 0.41250 -0.10300
N 	N 	0.11760 0.24170 0.58860 -0.22700
N 	N 	0.89140 0.42100 0.58210 -0.09000
N 	N 	0.96880 0.24320 0.76310 -0.09900
N 	N 	0.62570 0.42800 0.41820 -0.10300
N 	N 	0.51700 0.26130 0.23930 -0.21100
N 	N 	0.38840 0.27070 0.41650 -0.13600
C 	C 	0.53910 0.12010 0.57890 -0.03700
C 	C 	0.73870 0.10950 0.69170 -0.05600
C 	C 	0.67870 0.00030 0.57820 -0.05100
C 	C 	0.79420 0.99720 0.41510 -0.03400
C 	C 	0.74680 0.11060 0.30320 -0.05600
C 	C 	0.95250 0.10780 0.42030 -0.05000
C 	C 	0.02410 0.24010 0.57520 -0.03800
C 	C 	0.87940 0.35490 0.57530 -0.04800
C 	C 	0.92650 0.24030 0.69260 -0.05400
C 	C 	0.63590 0.36350 0.42670 -0.04700
C 	C 	0.57080 0.25130 0.30800 -0.05400
C 	C 	0.47810 0.25630 0.42630 -0.07700
