data_crystal

_cell_length_a 15.37700
_cell_length_b 15.37700
_cell_length_c 9.91500
_cell_angle_alpha 90.00000
_cell_angle_beta  90.00000
_cell_angle_gamma 90.00000

_symmetry_space_group_name_	'P 1'
_symmetry_space_group_name_H-M	'P 1'

loop_
_symmetry_equiv_pos_as_xyz
  x,y,z

loop_
_atom_site_label
_atom_site_type_symbol
_atom_site_fract_x
_atom_site_fract_y
_atom_site_fract_z
_atom_site_charge
O 	O 	0.03106 0.87113 0.12089 -0.43000
C 	C 	0.88646 0.74406 0.87942 0.07200
H 	H 	0.91090 0.76240 0.79850 0.06700
C 	C 	0.81200 0.69346 0.87950 -0.06600
H 	H 	0.78740 0.67630 0.79800 0.08000
O 	O 	0.96894 0.12887 0.12089 -0.42800
C 	C 	0.11354 0.25594 0.87942 0.28500
H 	H 	0.08910 0.23760 0.79850 -0.06900
C 	C 	0.18800 0.30654 0.87950 -0.25000
H 	H 	0.21260 0.32370 0.79800 0.13100
O 	O 	0.12887 0.03106 0.12089 -0.49000
C 	C 	0.25594 0.88646 0.87942 0.06700
H 	H 	0.23760 0.91090 0.79850 0.07000
C 	C 	0.30654 0.81200 0.87950 -0.06600
H 	H 	0.32370 0.78740 0.79800 0.07900
O 	O 	0.87113 0.96894 0.12089 -0.37800
C 	C 	0.74406 0.11354 0.87942 0.27200
H 	H 	0.76240 0.08910 0.79850 -0.06200
C 	C 	0.69346 0.18800 0.87950 -0.23700
H 	H 	0.67630 0.21260 0.79800 0.12800
O 	O 	0.96894 0.87113 0.37911 -0.38400
C 	C 	0.11354 0.74406 0.62058 0.24600
H 	H 	0.08910 0.76240 0.70150 -0.05400
C 	C 	0.18800 0.69346 0.62050 -0.28700
H 	H 	0.21260 0.67630 0.70200 0.14500
O 	O 	0.03106 0.12887 0.37911 -0.49400
C 	C 	0.88646 0.25594 0.62058 0.03300
H 	H 	0.91090 0.23760 0.70150 0.08100
C 	C 	0.81200 0.30654 0.62050 -0.11100
H 	H 	0.78740 0.32370 0.70200 0.09300
O 	O 	0.87113 0.03106 0.37911 -0.43200
C 	C 	0.74406 0.88646 0.62058 0.03600
H 	H 	0.76240 0.91090 0.70150 0.07900
C 	C 	0.69346 0.81200 0.62050 -0.11200
H 	H 	0.67630 0.78740 0.70200 0.09500
O 	O 	0.12887 0.96894 0.37911 -0.43400
C 	C 	0.25594 0.11354 0.62058 0.26200
H 	H 	0.23760 0.08910 0.70150 -0.06200
C 	C 	0.30654 0.18800 0.62050 -0.30000
H 	H 	0.32370 0.21260 0.70200 0.14800
O 	O 	0.96894 0.12887 0.87911 -0.40200
C 	C 	0.11354 0.25594 0.12058 0.25500
H 	H 	0.08910 0.23760 0.20150 -0.06300
C 	C 	0.18800 0.30654 0.12050 -0.28300
H 	H 	0.21260 0.32370 0.20200 0.13500
O 	O 	0.03106 0.87113 0.87911 -0.40300
C 	C 	0.88646 0.74406 0.12058 0.03800
H 	H 	0.91090 0.76240 0.20150 0.07300
C 	C 	0.81200 0.69346 0.12050 -0.10100
H 	H 	0.78740 0.67630 0.20200 0.08300
O 	O 	0.87113 0.96894 0.87911 -0.35000
C 	C 	0.74406 0.11354 0.12058 0.24000
H 	H 	0.76240 0.08910 0.20150 -0.05600
C 	C 	0.69346 0.18800 0.12050 -0.27000
H 	H 	0.67630 0.21260 0.20200 0.13100
O 	O 	0.12887 0.03106 0.87911 -0.46600
C 	C 	0.25594 0.88646 0.12058 0.03500
H 	H 	0.23760 0.91090 0.20150 0.07600
C 	C 	0.30654 0.81200 0.12050 -0.10000
H 	H 	0.32370 0.78740 0.20200 0.08200
O 	O 	0.03106 0.12887 0.62089 -0.49400
C 	C 	0.88646 0.25594 0.37942 0.03100
H 	H 	0.91090 0.23760 0.29850 0.07700
C 	C 	0.81200 0.30654 0.37950 -0.11100
H 	H 	0.78740 0.32370 0.29800 0.08600
O 	O 	0.96894 0.87113 0.62089 -0.38200
C 	C 	0.11354 0.74406 0.37942 0.24400
H 	H 	0.08910 0.76240 0.29850 -0.05800
C 	C 	0.18800 0.69346 0.37950 -0.28700
H 	H 	0.21260 0.67630 0.29800 0.13700
O 	O 	0.12887 0.96894 0.62089 -0.43300
C 	C 	0.25594 0.11354 0.37942 0.26000
H 	H 	0.23760 0.08910 0.29850 -0.06600
C 	C 	0.30654 0.18800 0.37950 -0.30000
H 	H 	0.32370 0.21260 0.29800 0.14000
O 	O 	0.87113 0.03106 0.62089 -0.43200
C 	C 	0.74406 0.88646 0.37942 0.03400
H 	H 	0.76240 0.91090 0.29850 0.07400
C 	C 	0.69346 0.81200 0.37950 -0.11200
H 	H 	0.67630 0.78740 0.29800 0.08700
Sm	Sm	0.00000 0.00000 0.25000 1.69800
Sm	Sm	0.00000 0.00000 0.75000 1.70200
S 	S 	0.02635 0.81898 -0.00000 0.49500
N 	N 	0.53032 0.62897 -0.00000 -0.11500
O 	O 	0.08936 0.75032 -0.00000 -0.30500
C 	C 	0.92388 0.76685 -0.00000 -0.05500
C 	C 	0.77357 0.66802 -0.00000 0.05100
C 	C 	0.68939 0.61760 -0.00000 -0.08900
C 	C 	0.61372 0.66597 -0.00000 0.10900
C 	C 	0.60528 0.75694 -0.00000 -0.09900
H 	H 	0.65110 0.79640 -0.00000 0.09600
C 	C 	0.52193 0.77765 -0.00000 -0.06200
H 	H 	0.49900 0.83360 -0.00000 0.07600
C 	C 	0.47265 0.69739 -0.00000 0.10100
S 	S 	0.97365 0.18102 -0.00000 0.82100
N 	N 	0.46968 0.37103 -0.00000 -0.12000
O 	O 	0.91064 0.24968 -0.00000 -0.32100
C 	C 	0.07612 0.23315 -0.00000 -0.42200
C 	C 	0.22643 0.33198 -0.00000 0.17200
C 	C 	0.31061 0.38240 -0.00000 -0.13900
C 	C 	0.38628 0.33403 -0.00000 0.12900
C 	C 	0.39472 0.24306 -0.00000 -0.12600
H 	H 	0.34890 0.20360 -0.00000 0.08800
C 	C 	0.47807 0.22235 -0.00000 -0.06000
H 	H 	0.50100 0.16640 -0.00000 0.03700
C 	C 	0.52735 0.30261 -0.00000 0.10600
S 	S 	0.18102 0.02635 -0.00000 0.50400
N 	N 	0.37103 0.53032 -0.00000 -0.11700
O 	O 	0.24968 0.08936 -0.00000 -0.31000
C 	C 	0.23315 0.92388 -0.00000 -0.04300
C 	C 	0.33198 0.77357 -0.00000 0.05100
C 	C 	0.38240 0.68939 -0.00000 -0.09100
C 	C 	0.33403 0.61372 -0.00000 0.10800
C 	C 	0.24306 0.60528 -0.00000 -0.11000
H 	H 	0.20360 0.65110 -0.00000 0.08200
C 	C 	0.22235 0.52193 -0.00000 -0.07000
H 	H 	0.16640 0.49900 -0.00000 0.04100
C 	C 	0.30261 0.47265 -0.00000 0.11100
S 	S 	0.81898 0.97365 -0.00000 0.78900
N 	N 	0.62897 0.46968 -0.00000 -0.11700
O 	O 	0.75032 0.91064 -0.00000 -0.31500
C 	C 	0.76685 0.07612 -0.00000 -0.40400
C 	C 	0.66802 0.22643 -0.00000 0.16200
C 	C 	0.61760 0.31061 -0.00000 -0.13200
C 	C 	0.66597 0.38628 -0.00000 0.12800
C 	C 	0.75694 0.39472 -0.00000 -0.11400
H 	H 	0.79640 0.34890 -0.00000 0.10300
C 	C 	0.77765 0.47807 -0.00000 -0.05300
H 	H 	0.83360 0.50100 -0.00000 0.07300
C 	C 	0.69739 0.52735 -0.00000 0.09800
S 	S 	0.97365 0.81898 0.50000 0.83900
N 	N 	0.46968 0.62897 0.50000 -0.11400
O 	O 	0.91064 0.75032 0.50000 -0.31100
C 	C 	0.07612 0.76685 0.50000 -0.38000
C 	C 	0.22643 0.66802 0.50000 0.21000
C 	C 	0.31061 0.61760 0.50000 -0.14100
C 	C 	0.38628 0.66597 0.50000 0.14000
C 	C 	0.39472 0.75694 0.50000 -0.11100
H 	H 	0.34890 0.79640 0.50000 0.10900
C 	C 	0.47807 0.77765 0.50000 -0.05000
H 	H 	0.50100 0.83360 0.50000 0.08100
C 	C 	0.52735 0.69739 0.50000 0.11100
S 	S 	0.02635 0.18102 0.50000 0.53500
N 	N 	0.53032 0.37103 0.50000 -0.11400
O 	O 	0.08936 0.24968 0.50000 -0.30500
C 	C 	0.92388 0.23315 0.50000 -0.00700
C 	C 	0.77357 0.33198 0.50000 0.09600
C 	C 	0.68939 0.38240 0.50000 -0.09800
C 	C 	0.61372 0.33403 0.50000 0.12100
C 	C 	0.60528 0.24306 0.50000 -0.10600
H 	H 	0.65110 0.20360 0.50000 0.08800
C 	C 	0.52193 0.22235 0.50000 -0.06800
H 	H 	0.49900 0.16640 0.50000 0.04800
C 	C 	0.47265 0.30261 0.50000 0.12300
S 	S 	0.81898 0.02635 0.50000 0.52900
N 	N 	0.62897 0.53032 0.50000 -0.11200
O 	O 	0.75032 0.08936 0.50000 -0.30100
C 	C 	0.76685 0.92388 0.50000 -0.01600
C 	C 	0.66802 0.77357 0.50000 0.09800
C 	C 	0.61760 0.68939 0.50000 -0.09600
C 	C 	0.66597 0.61372 0.50000 0.12100
C 	C 	0.75694 0.60528 0.50000 -0.09600
H 	H 	0.79640 0.65110 0.50000 0.10300
C 	C 	0.77765 0.52193 0.50000 -0.05900
H 	H 	0.83360 0.49900 0.50000 0.08400
C 	C 	0.69739 0.47265 0.50000 0.11400
S 	S 	0.18102 0.97365 0.50000 0.86800
N 	N 	0.37103 0.46968 0.50000 -0.11700
O 	O 	0.24968 0.91064 0.50000 -0.31700
C 	C 	0.23315 0.07612 0.50000 -0.40100
C 	C 	0.33198 0.22643 0.50000 0.21900
C 	C 	0.38240 0.31061 0.50000 -0.14700
C 	C 	0.33403 0.38628 0.50000 0.14100
C 	C 	0.24306 0.39472 0.50000 -0.12300
H 	H 	0.20360 0.34890 0.50000 0.09400
C 	C 	0.22235 0.47807 0.50000 -0.05800
H 	H 	0.16640 0.50100 0.50000 0.04400
C 	C 	0.30261 0.52735 0.50000 0.11800
