data_crystal

_cell_length_a 15.44000
_cell_length_b 15.44000
_cell_length_c 10.02100
_cell_angle_alpha 90.00000
_cell_angle_beta  90.00000
_cell_angle_gamma 90.00000

_symmetry_space_group_name_	'P 1'
_symmetry_space_group_name_H-M	'P 1'

loop_
_symmetry_equiv_pos_as_xyz
  x,y,z

loop_
_atom_site_label
_atom_site_type_symbol
_atom_site_fract_x
_atom_site_fract_y
_atom_site_fract_z
_atom_site_charge
O 	O 	0.53163 0.63300 0.11790 -0.43100
C 	C 	0.38640 0.75820 0.88100 0.16700
H 	H 	0.41140 0.74160 0.80040 0.00000
C 	C 	0.31010 0.80630 0.88310 -0.15600
H 	H 	0.28460 0.82200 0.80260 0.10400
O 	O 	0.46837 0.36700 0.11790 -0.43000
C 	C 	0.61360 0.24180 0.88100 0.16800
H 	H 	0.58860 0.25840 0.80040 0.00100
C 	C 	0.68990 0.19370 0.88310 -0.15500
H 	H 	0.71540 0.17800 0.80260 0.10400
O 	O 	0.36700 0.53163 0.11790 -0.43000
C 	C 	0.24180 0.38640 0.88100 0.16800
H 	H 	0.25840 0.41140 0.80040 0.00100
C 	C 	0.19370 0.31010 0.88310 -0.15500
H 	H 	0.17800 0.28460 0.80260 0.10400
O 	O 	0.63300 0.46837 0.11790 -0.43000
C 	C 	0.75820 0.61360 0.88100 0.16800
H 	H 	0.74160 0.58860 0.80040 0.00100
C 	C 	0.80630 0.68990 0.88310 -0.15500
H 	H 	0.82200 0.71540 0.80260 0.10400
O 	O 	0.46837 0.63300 0.38210 -0.43500
C 	C 	0.61360 0.75820 0.61900 0.14200
H 	H 	0.58860 0.74160 0.69960 0.01000
C 	C 	0.68990 0.80630 0.61690 -0.20600
H 	H 	0.71540 0.82200 0.69740 0.12100
O 	O 	0.53163 0.36700 0.38210 -0.43500
C 	C 	0.38640 0.24180 0.61900 0.14200
H 	H 	0.41140 0.25840 0.69960 0.01000
C 	C 	0.31010 0.19370 0.61690 -0.20600
H 	H 	0.28460 0.17800 0.69740 0.12100
O 	O 	0.63300 0.53163 0.38210 -0.43500
C 	C 	0.75820 0.38640 0.61900 0.14200
H 	H 	0.74160 0.41140 0.69960 0.01000
C 	C 	0.80630 0.31010 0.61690 -0.20600
H 	H 	0.82200 0.28460 0.69740 0.12100
O 	O 	0.36700 0.46837 0.38210 -0.43500
C 	C 	0.24180 0.61360 0.61900 0.14200
H 	H 	0.25840 0.58860 0.69960 0.01000
C 	C 	0.19370 0.68990 0.61690 -0.20600
H 	H 	0.17800 0.71540 0.69740 0.12100
O 	O 	0.46837 0.36700 0.88210 -0.40400
C 	C 	0.61360 0.24180 0.11900 0.13700
H 	H 	0.58860 0.25840 0.19960 0.00700
C 	C 	0.68990 0.19370 0.11690 -0.18900
H 	H 	0.71540 0.17800 0.19740 0.10800
O 	O 	0.53163 0.63300 0.88210 -0.40400
C 	C 	0.38640 0.75820 0.11900 0.13700
H 	H 	0.41140 0.74160 0.19960 0.00700
C 	C 	0.31010 0.80630 0.11690 -0.18900
H 	H 	0.28460 0.82200 0.19740 0.10800
O 	O 	0.63300 0.46837 0.88210 -0.40400
C 	C 	0.75820 0.61360 0.11900 0.13700
H 	H 	0.74160 0.58860 0.19960 0.00700
C 	C 	0.80630 0.68990 0.11690 -0.18900
H 	H 	0.82200 0.71540 0.19740 0.10800
O 	O 	0.36700 0.53163 0.88210 -0.40400
C 	C 	0.24180 0.38640 0.11900 0.13700
H 	H 	0.25840 0.41140 0.19960 0.00700
C 	C 	0.19370 0.31010 0.11690 -0.18900
H 	H 	0.17800 0.28460 0.19740 0.10800
O 	O 	0.53163 0.36700 0.61790 -0.43500
C 	C 	0.38640 0.24180 0.38100 0.14100
H 	H 	0.41140 0.25840 0.30040 0.00500
C 	C 	0.31010 0.19370 0.38310 -0.20600
H 	H 	0.28460 0.17800 0.30260 0.11300
O 	O 	0.46837 0.63300 0.61790 -0.43500
C 	C 	0.61360 0.75820 0.38100 0.14100
H 	H 	0.58860 0.74160 0.30040 0.00500
C 	C 	0.68990 0.80630 0.38310 -0.20600
H 	H 	0.71540 0.82200 0.30260 0.11300
O 	O 	0.36700 0.46837 0.61790 -0.43500
C 	C 	0.24180 0.61360 0.38100 0.14100
H 	H 	0.25840 0.58860 0.30040 0.00500
C 	C 	0.19370 0.68990 0.38310 -0.20600
H 	H 	0.17800 0.71540 0.30260 0.11300
O 	O 	0.63300 0.53163 0.61790 -0.43500
C 	C 	0.75820 0.38640 0.38100 0.14100
H 	H 	0.74160 0.41140 0.30040 0.00500
C 	C 	0.80630 0.31010 0.38310 -0.20600
H 	H 	0.82200 0.28460 0.30260 0.11300
La	La	0.50000 0.50000 0.25000 1.77400
La	La	0.50000 0.50000 0.75000 1.78200
S 	S 	0.52633 0.68505 -0.00000 0.63000
N 	N 	0.12900 0.03050 -0.00000 -0.11800
O 	O 	0.58815 0.75351 -0.00000 -0.30700
C 	C 	0.42410 0.73590 -0.00000 -0.23000
C 	C 	0.27120 0.83110 -0.00000 0.11800
C 	C 	0.18980 0.88190 -0.00000 -0.11800
C 	C 	0.19730 0.97190 -0.00000 0.10800
C 	C 	0.27570 0.02030 -0.00000 -0.06700
H 	H 	0.33130 0.99710 -0.00000 0.06000
C 	C 	0.25620 0.10490 -0.00000 -0.10900
H 	H 	0.29570 0.15040 -0.00000 0.09200
C 	C 	0.16520 0.11260 -0.00000 0.12000
S 	S 	0.47367 0.31495 -0.00000 0.63000
N 	N 	0.87100 0.96950 -0.00000 -0.11800
O 	O 	0.41185 0.24649 -0.00000 -0.30700
C 	C 	0.57590 0.26410 -0.00000 -0.23000
C 	C 	0.72880 0.16890 -0.00000 0.11800
C 	C 	0.81020 0.11810 -0.00000 -0.11800
C 	C 	0.80270 0.02810 -0.00000 0.10800
C 	C 	0.72430 0.97970 -0.00000 -0.06700
H 	H 	0.66870 0.00290 -0.00000 0.06000
C 	C 	0.74380 0.89510 -0.00000 -0.10900
H 	H 	0.70430 0.84960 -0.00000 0.09200
C 	C 	0.83480 0.88740 -0.00000 0.12000
S 	S 	0.31495 0.52633 -0.00000 0.63000
N 	N 	0.96950 0.12900 -0.00000 -0.11800
O 	O 	0.24649 0.58815 -0.00000 -0.30700
C 	C 	0.26410 0.42410 -0.00000 -0.23000
C 	C 	0.16890 0.27120 -0.00000 0.11800
C 	C 	0.11810 0.18980 -0.00000 -0.11800
C 	C 	0.02810 0.19730 -0.00000 0.10800
C 	C 	0.97970 0.27570 -0.00000 -0.06700
H 	H 	0.00290 0.33130 -0.00000 0.06000
C 	C 	0.89510 0.25620 -0.00000 -0.10900
H 	H 	0.84960 0.29570 -0.00000 0.09200
C 	C 	0.88740 0.16520 -0.00000 0.12000
S 	S 	0.68505 0.47367 -0.00000 0.63000
N 	N 	0.03050 0.87100 -0.00000 -0.11800
O 	O 	0.75351 0.41185 -0.00000 -0.30700
C 	C 	0.73590 0.57590 -0.00000 -0.23000
C 	C 	0.83110 0.72880 -0.00000 0.11800
C 	C 	0.88190 0.81020 -0.00000 -0.11800
C 	C 	0.97190 0.80270 -0.00000 0.10800
C 	C 	0.02030 0.72430 -0.00000 -0.06700
H 	H 	0.99710 0.66870 -0.00000 0.06000
C 	C 	0.10490 0.74380 -0.00000 -0.10900
H 	H 	0.15040 0.70430 -0.00000 0.09200
C 	C 	0.11260 0.83480 -0.00000 0.12000
S 	S 	0.47367 0.68505 0.50000 0.67100
N 	N 	0.87100 0.03050 0.50000 -0.11600
O 	O 	0.41185 0.75351 0.50000 -0.30300
C 	C 	0.57590 0.73590 0.50000 -0.20400
C 	C 	0.72880 0.83110 0.50000 0.16700
C 	C 	0.81020 0.88190 0.50000 -0.12800
C 	C 	0.80270 0.97190 0.50000 0.12100
C 	C 	0.72430 0.02030 0.50000 -0.06500
H 	H 	0.66870 0.99710 0.50000 0.06800
C 	C 	0.74380 0.10490 0.50000 -0.10600
H 	H 	0.70430 0.15040 0.50000 0.09800
C 	C 	0.83480 0.11260 0.50000 0.13300
S 	S 	0.52633 0.31495 0.50000 0.67100
N 	N 	0.12900 0.96950 0.50000 -0.11600
O 	O 	0.58815 0.24649 0.50000 -0.30300
C 	C 	0.42410 0.26410 0.50000 -0.20400
C 	C 	0.27120 0.16890 0.50000 0.16700
C 	C 	0.18980 0.11810 0.50000 -0.12800
C 	C 	0.19730 0.02810 0.50000 0.12100
C 	C 	0.27570 0.97970 0.50000 -0.06500
H 	H 	0.33130 0.00290 0.50000 0.06800
C 	C 	0.25620 0.89510 0.50000 -0.10600
H 	H 	0.29570 0.84960 0.50000 0.09800
C 	C 	0.16520 0.88740 0.50000 0.13300
S 	S 	0.68505 0.52633 0.50000 0.67100
N 	N 	0.03050 0.12900 0.50000 -0.11600
O 	O 	0.75351 0.58815 0.50000 -0.30300
C 	C 	0.73590 0.42410 0.50000 -0.20400
C 	C 	0.83110 0.27120 0.50000 0.16700
C 	C 	0.88190 0.18980 0.50000 -0.12800
C 	C 	0.97190 0.19730 0.50000 0.12100
C 	C 	0.02030 0.27570 0.50000 -0.06500
H 	H 	0.99710 0.33130 0.50000 0.06800
C 	C 	0.10490 0.25620 0.50000 -0.10600
H 	H 	0.15040 0.29570 0.50000 0.09800
C 	C 	0.11260 0.16520 0.50000 0.13300
S 	S 	0.31495 0.47367 0.50000 0.67100
N 	N 	0.96950 0.87100 0.50000 -0.11600
O 	O 	0.24649 0.41185 0.50000 -0.30300
C 	C 	0.26410 0.57590 0.50000 -0.20400
C 	C 	0.16890 0.72880 0.50000 0.16700
C 	C 	0.11810 0.81020 0.50000 -0.12800
C 	C 	0.02810 0.80270 0.50000 0.12100
C 	C 	0.97970 0.72430 0.50000 -0.06500
H 	H 	0.00290 0.66870 0.50000 0.06800
C 	C 	0.89510 0.74380 0.50000 -0.10600
H 	H 	0.84960 0.70430 0.50000 0.09800
C 	C 	0.88740 0.83480 0.50000 0.13300
