data_crystal

_cell_length_a 15.44600
_cell_length_b 15.44600
_cell_length_c 9.90700
_cell_angle_alpha 90.00000
_cell_angle_beta  90.00000
_cell_angle_gamma 90.00000

_symmetry_space_group_name_	'P 1'
_symmetry_space_group_name_H-M	'P 1'

loop_
_symmetry_equiv_pos_as_xyz
  x,y,z

loop_
_atom_site_label
_atom_site_type_symbol
_atom_site_fract_x
_atom_site_fract_y
_atom_site_fract_z
_atom_site_charge
O 	O 	0.62807 0.47006 0.12190 -0.54900
C 	C 	0.75632 0.61610 0.88010 0.23400
H 	H 	0.73970 0.59080 0.79900 -0.02900
C 	C 	0.80502 0.68993 0.88000 -0.26700
H 	H 	0.82170 0.71460 0.79830 0.13800
O 	O 	0.37193 0.52994 0.12190 -0.54700
C 	C 	0.24368 0.38390 0.88010 0.19200
H 	H 	0.26030 0.40920 0.79900 -0.01600
C 	C 	0.19498 0.31007 0.88000 -0.22000
H 	H 	0.17830 0.28540 0.79830 0.11300
O 	O 	0.52994 0.62807 0.12190 -0.54800
C 	C 	0.38390 0.75632 0.88010 0.23100
H 	H 	0.40920 0.73970 0.79900 -0.02700
C 	C 	0.31007 0.80502 0.88000 -0.26200
H 	H 	0.28540 0.82170 0.79830 0.13500
O 	O 	0.47006 0.37193 0.12190 -0.54700
C 	C 	0.61610 0.24368 0.88010 0.20300
H 	H 	0.59080 0.26030 0.79900 -0.01900
C 	C 	0.68993 0.19498 0.88000 -0.23200
H 	H 	0.71460 0.17830 0.79830 0.11900
O 	O 	0.37193 0.47006 0.37810 -0.54900
C 	C 	0.24368 0.61610 0.61990 0.19200
H 	H 	0.26030 0.59080 0.70100 -0.01600
C 	C 	0.19498 0.68993 0.62000 -0.24700
H 	H 	0.17830 0.71460 0.70170 0.12400
O 	O 	0.62807 0.52994 0.37810 -0.54900
C 	C 	0.75632 0.38390 0.61990 0.22000
H 	H 	0.73970 0.40920 0.70100 -0.02300
C 	C 	0.80502 0.31007 0.62000 -0.27900
H 	H 	0.82170 0.28540 0.70170 0.14100
O 	O 	0.47006 0.62807 0.37810 -0.55000
C 	C 	0.61610 0.75632 0.61990 0.22600
H 	H 	0.59080 0.73970 0.70100 -0.02500
C 	C 	0.68993 0.80502 0.62000 -0.28700
H 	H 	0.71460 0.82170 0.70170 0.14500
O 	O 	0.52994 0.37193 0.37810 -0.54800
C 	C 	0.38390 0.24368 0.61990 0.18000
H 	H 	0.40920 0.26030 0.70100 -0.01200
C 	C 	0.31007 0.19498 0.62000 -0.23100
H 	H 	0.28540 0.17830 0.70170 0.11700
O 	O 	0.37193 0.52994 0.87810 -0.53800
C 	C 	0.24368 0.38390 0.11990 0.18100
H 	H 	0.26030 0.40920 0.20100 -0.01400
C 	C 	0.19498 0.31007 0.12000 -0.23000
H 	H 	0.17830 0.28540 0.20170 0.11400
O 	O 	0.62807 0.47006 0.87810 -0.53900
C 	C 	0.75632 0.61610 0.11990 0.22300
H 	H 	0.73970 0.59080 0.20100 -0.02600
C 	C 	0.80502 0.68993 0.12000 -0.27900
H 	H 	0.82170 0.71460 0.20170 0.13900
O 	O 	0.47006 0.37193 0.87810 -0.53900
C 	C 	0.61610 0.24368 0.11990 0.19200
H 	H 	0.59080 0.26030 0.20100 -0.01700
C 	C 	0.68993 0.19498 0.12000 -0.24300
H 	H 	0.71460 0.17830 0.20170 0.12000
O 	O 	0.52994 0.62807 0.87810 -0.53800
C 	C 	0.38390 0.75632 0.11990 0.21900
H 	H 	0.40920 0.73970 0.20100 -0.02400
C 	C 	0.31007 0.80502 0.12000 -0.27400
H 	H 	0.28540 0.82170 0.20170 0.13600
O 	O 	0.62807 0.52994 0.62190 -0.55000
C 	C 	0.75632 0.38390 0.38010 0.21900
H 	H 	0.73970 0.40920 0.29900 -0.02500
C 	C 	0.80502 0.31007 0.38000 -0.28000
H 	H 	0.82170 0.28540 0.29830 0.13800
O 	O 	0.37193 0.47006 0.62190 -0.54900
C 	C 	0.24368 0.61610 0.38010 0.19100
H 	H 	0.26030 0.59080 0.29900 -0.01700
C 	C 	0.19498 0.68993 0.38000 -0.24700
H 	H 	0.17830 0.71460 0.29830 0.12200
O 	O 	0.52994 0.37193 0.62190 -0.54800
C 	C 	0.38390 0.24368 0.38010 0.18000
H 	H 	0.40920 0.26030 0.29900 -0.01300
C 	C 	0.31007 0.19498 0.38000 -0.23100
H 	H 	0.28540 0.17830 0.29830 0.11400
O 	O 	0.47006 0.62807 0.62190 -0.55000
C 	C 	0.61610 0.75632 0.38010 0.22500
H 	H 	0.59080 0.73970 0.29900 -0.02700
C 	C 	0.68993 0.80502 0.38000 -0.28700
H 	H 	0.71460 0.82170 0.29830 0.14200
Sm	Sm	0.50000 0.50000 0.25000 2.52100
Sm	Sm	0.50000 0.50000 0.75000 2.52500
Zn	Zn	-0.00000 -0.00000 0.96823 0.76300
Zn	Zn	-0.00000 -0.00000 0.53177 0.75600
Zn	Zn	-0.00000 -0.00000 0.03177 0.75200
Zn	Zn	0.00000 0.00000 0.46823 0.75600
S 	S 	0.68047 0.47637 -0.00000 0.75700
N 	N 	0.87112 0.96958 -0.00000 -0.28000
O 	O 	0.74927 0.41352 -0.00000 -0.32600
C 	C 	0.73207 0.57967 -0.00000 -0.28700
C 	C 	0.82984 0.72846 -0.00000 0.21900
C 	C 	0.88352 0.81189 -0.00000 -0.23400
C 	C 	0.83641 0.88959 -0.00000 0.17100
C 	C 	0.74239 0.89506 -0.00000 -0.20200
H 	H 	0.70340 0.84920 -0.00000 0.13000
C 	C 	0.72310 0.98070 -0.00000 0.10100
H 	H 	0.66790 0.00470 -0.00000 -0.02000
C 	C 	0.80434 0.02850 -0.00000 0.00900
S 	S 	0.31953 0.52363 -0.00000 0.74700
N 	N 	0.12888 0.03042 -0.00000 -0.34200
O 	O 	0.25073 0.58648 -0.00000 -0.32700
C 	C 	0.26793 0.42033 -0.00000 -0.25800
C 	C 	0.17016 0.27154 -0.00000 0.15300
C 	C 	0.11648 0.18811 -0.00000 -0.12000
C 	C 	0.16359 0.11041 -0.00000 0.06600
C 	C 	0.25761 0.10494 -0.00000 -0.00100
H 	H 	0.29660 0.15080 -0.00000 0.05100
C 	C 	0.27690 0.01930 -0.00000 -0.26800
H 	H 	0.33210 0.99530 -0.00000 0.15900
C 	C 	0.19566 0.97150 -0.00000 0.23100
S 	S 	0.52363 0.68047 -0.00000 0.75500
N 	N 	0.03042 0.87112 -0.00000 -0.33600
O 	O 	0.58648 0.74927 -0.00000 -0.32600
C 	C 	0.42033 0.73207 -0.00000 -0.28300
C 	C 	0.27154 0.82984 -0.00000 0.21300
C 	C 	0.18811 0.88352 -0.00000 -0.22200
C 	C 	0.11041 0.83641 -0.00000 0.11800
C 	C 	0.10494 0.74239 -0.00000 -0.03700
H 	H 	0.15080 0.70340 -0.00000 0.06400
C 	C 	0.01930 0.72310 -0.00000 -0.23600
H 	H 	0.99530 0.66790 -0.00000 0.14600
C 	C 	0.97150 0.80434 -0.00000 0.22100
S 	S 	0.47637 0.31953 -0.00000 0.74900
N 	N 	0.96958 0.12888 -0.00000 -0.27400
O 	O 	0.41352 0.25073 -0.00000 -0.32700
C 	C 	0.57967 0.26793 -0.00000 -0.26600
C 	C 	0.72846 0.17016 -0.00000 0.17000
C 	C 	0.81189 0.11648 -0.00000 -0.14900
C 	C 	0.88959 0.16359 -0.00000 0.13400
C 	C 	0.89506 0.25761 -0.00000 -0.19500
H 	H 	0.84920 0.29660 -0.00000 0.12800
C 	C 	0.98070 0.27690 -0.00000 0.12000
H 	H 	0.00470 0.33210 -0.00000 -0.03000
C 	C 	0.02850 0.19566 -0.00000 -0.01800
S 	S 	0.31953 0.47637 0.50000 0.76200
N 	N 	0.12888 0.96958 0.50000 -0.27100
O 	O 	0.25073 0.41352 0.50000 -0.32500
C 	C 	0.26793 0.57967 0.50000 -0.25500
C 	C 	0.17016 0.72846 0.50000 0.18400
C 	C 	0.11648 0.81189 0.50000 -0.14900
C 	C 	0.16359 0.88959 0.50000 0.13900
C 	C 	0.25761 0.89506 0.50000 -0.19800
H 	H 	0.29660 0.84920 0.50000 0.13200
C 	C 	0.27690 0.98070 0.50000 0.13200
H 	H 	0.33210 0.00470 0.50000 -0.03300
C 	C 	0.19566 0.02850 0.50000 -0.02200
S 	S 	0.68047 0.52363 0.50000 0.77000
N 	N 	0.87112 0.03042 0.50000 -0.33700
O 	O 	0.74927 0.58648 0.50000 -0.32400
C 	C 	0.73207 0.42033 0.50000 -0.27200
C 	C 	0.82984 0.27154 0.50000 0.23000
C 	C 	0.88352 0.18811 0.50000 -0.22700
C 	C 	0.83641 0.11041 0.50000 0.12200
C 	C 	0.74239 0.10494 0.50000 -0.03000
H 	H 	0.70340 0.15080 0.50000 0.06400
C 	C 	0.72310 0.01930 0.50000 -0.24700
H 	H 	0.66790 0.99530 0.50000 0.15400
C 	C 	0.80434 0.97150 0.50000 0.23300
S 	S 	0.47637 0.68047 0.50000 0.77200
N 	N 	0.96958 0.87112 0.50000 -0.27700
O 	O 	0.41352 0.74927 0.50000 -0.32400
C 	C 	0.57967 0.73207 0.50000 -0.27600
C 	C 	0.72846 0.82984 0.50000 0.24000
C 	C 	0.81189 0.88352 0.50000 -0.24100
C 	C 	0.88959 0.83641 0.50000 0.17900
C 	C 	0.89506 0.74239 0.50000 -0.20700
H 	H 	0.84920 0.70340 0.50000 0.13500
C 	C 	0.98070 0.72310 0.50000 0.11300
H 	H 	0.00470 0.66790 0.50000 -0.02300
C 	C 	0.02850 0.80434 0.50000 0.00700
S 	S 	0.52363 0.31953 0.50000 0.76000
N 	N 	0.03042 0.12888 0.50000 -0.34200
O 	O 	0.58648 0.25073 0.50000 -0.32500
C 	C 	0.42033 0.26793 0.50000 -0.24700
C 	C 	0.27154 0.17016 0.50000 0.16400
C 	C 	0.18811 0.11648 0.50000 -0.11800
C 	C 	0.11041 0.16359 0.50000 0.06600
C 	C 	0.10494 0.25761 0.50000 0.00700
H 	H 	0.15080 0.29660 0.50000 0.05000
C 	C 	0.01930 0.27690 0.50000 -0.27900
H 	H 	0.99530 0.33210 0.50000 0.16800
C 	C 	0.97150 0.19566 0.50000 0.24300
O 	O 	-0.00000 -0.00000 0.75000 -0.49800
O 	O 	-0.00000 0.00000 0.25000 -0.50100
