data_crystal

_cell_length_a 15.43130
_cell_length_b 15.43130
_cell_length_c 9.88840
_cell_angle_alpha 90.00000
_cell_angle_beta  90.00000
_cell_angle_gamma 90.00000

_symmetry_space_group_name_	'P 1'
_symmetry_space_group_name_H-M	'P 1'

loop_
_symmetry_equiv_pos_as_xyz
  x,y,z

loop_
_atom_site_label
_atom_site_type_symbol
_atom_site_fract_x
_atom_site_fract_y
_atom_site_fract_z
_atom_site_charge
O 	O 	0.53020 0.62812 0.12141 -0.52700
C 	C 	0.38575 0.75554 0.87950 0.21000
H 	H 	0.41040 0.73800 0.79810 -0.01600
C 	C 	0.31064 0.80495 0.88080 -0.17500
H 	H 	0.28570 0.82110 0.79890 0.11100
O 	O 	0.46980 0.37188 0.12141 -0.52600
C 	C 	0.61425 0.24446 0.87950 0.21100
H 	H 	0.58960 0.26200 0.79810 -0.01500
C 	C 	0.68936 0.19505 0.88080 -0.17500
H 	H 	0.71430 0.17890 0.79890 0.11100
O 	O 	0.37188 0.53020 0.12141 -0.52600
C 	C 	0.24446 0.38575 0.87950 0.21100
H 	H 	0.26200 0.41040 0.79810 -0.01500
C 	C 	0.19505 0.31064 0.88080 -0.17500
H 	H 	0.17890 0.28570 0.79890 0.11100
O 	O 	0.62812 0.46980 0.12141 -0.52600
C 	C 	0.75554 0.61425 0.87950 0.21100
H 	H 	0.73800 0.58960 0.79810 -0.01500
C 	C 	0.80495 0.68936 0.88080 -0.17500
H 	H 	0.82110 0.71430 0.79890 0.11100
O 	O 	0.46980 0.62812 0.37859 -0.53100
C 	C 	0.61425 0.75554 0.62050 0.17800
H 	H 	0.58960 0.73800 0.70190 -0.00500
C 	C 	0.68936 0.80495 0.61920 -0.22900
H 	H 	0.71430 0.82110 0.70110 0.12900
O 	O 	0.53020 0.37188 0.37859 -0.53100
C 	C 	0.38575 0.24446 0.62050 0.17800
H 	H 	0.41040 0.26200 0.70190 -0.00500
C 	C 	0.31064 0.19505 0.61920 -0.22900
H 	H 	0.28570 0.17890 0.70110 0.12900
O 	O 	0.62812 0.53020 0.37859 -0.53100
C 	C 	0.75554 0.38575 0.62050 0.17800
H 	H 	0.73800 0.41040 0.70190 -0.00500
C 	C 	0.80495 0.31064 0.61920 -0.22900
H 	H 	0.82110 0.28570 0.70110 0.12900
O 	O 	0.37188 0.46980 0.37859 -0.53100
C 	C 	0.24446 0.61425 0.62050 0.17800
H 	H 	0.26200 0.58960 0.70190 -0.00500
C 	C 	0.19505 0.68936 0.61920 -0.22900
H 	H 	0.17890 0.71430 0.70110 0.12900
O 	O 	0.46980 0.37188 0.87859 -0.49800
C 	C 	0.61425 0.24446 0.12050 0.17500
H 	H 	0.58960 0.26200 0.20190 -0.00900
C 	C 	0.68936 0.19505 0.11920 -0.21400
H 	H 	0.71430 0.17890 0.20110 0.11500
O 	O 	0.53020 0.62812 0.87859 -0.49800
C 	C 	0.38575 0.75554 0.12050 0.17500
H 	H 	0.41040 0.73800 0.20190 -0.00900
C 	C 	0.31064 0.80495 0.11920 -0.21400
H 	H 	0.28570 0.82110 0.20110 0.11500
O 	O 	0.62812 0.46980 0.87859 -0.49800
C 	C 	0.75554 0.61425 0.12050 0.17500
H 	H 	0.73800 0.58960 0.20190 -0.00900
C 	C 	0.80495 0.68936 0.11920 -0.21400
H 	H 	0.82110 0.71430 0.20110 0.11500
O 	O 	0.37188 0.53020 0.87859 -0.49800
C 	C 	0.24446 0.38575 0.12050 0.17500
H 	H 	0.26200 0.41040 0.20190 -0.00900
C 	C 	0.19505 0.31064 0.11920 -0.21400
H 	H 	0.17890 0.28570 0.20110 0.11500
O 	O 	0.53020 0.37188 0.62141 -0.53100
C 	C 	0.38575 0.24446 0.37950 0.17600
H 	H 	0.41040 0.26200 0.29810 -0.00900
C 	C 	0.31064 0.19505 0.38080 -0.22900
H 	H 	0.28570 0.17890 0.29890 0.12000
O 	O 	0.46980 0.62812 0.62141 -0.53100
C 	C 	0.61425 0.75554 0.37950 0.17600
H 	H 	0.58960 0.73800 0.29810 -0.00900
C 	C 	0.68936 0.80495 0.38080 -0.22900
H 	H 	0.71430 0.82110 0.29890 0.12000
O 	O 	0.37188 0.46980 0.62141 -0.53100
C 	C 	0.24446 0.61425 0.37950 0.17600
H 	H 	0.26200 0.58960 0.29810 -0.00900
C 	C 	0.19505 0.68936 0.38080 -0.22900
H 	H 	0.17890 0.71430 0.29890 0.12000
O 	O 	0.62812 0.53020 0.62141 -0.53100
C 	C 	0.75554 0.38575 0.37950 0.17600
H 	H 	0.73800 0.41040 0.29810 -0.00900
C 	C 	0.80495 0.31064 0.38080 -0.22900
H 	H 	0.82110 0.28570 0.29890 0.12000
Eu	Eu	0.50000 0.50000 0.25000 2.35300
Eu	Eu	0.50000 0.50000 0.75000 2.36600
S 	S 	0.52493 0.68037 -0.00000 0.72300
N 	N 	0.12913 0.03080 -0.00000 -0.11900
O 	O 	0.58727 0.74880 -0.00000 -0.33200
C 	C 	0.42290 0.73310 -0.00000 -0.27800
C 	C 	0.27170 0.83100 -0.00000 0.12700
C 	C 	0.19040 0.88130 -0.00000 -0.11800
C 	C 	0.19730 0.97340 -0.00000 0.10500
C 	C 	0.27710 0.02100 -0.00000 -0.06500
H 	H 	0.33260 0.99750 -0.00000 0.05800
C 	C 	0.25730 0.10520 -0.00000 -0.11100
H 	H 	0.29650 0.15090 -0.00000 0.09100
C 	C 	0.16600 0.11240 -0.00000 0.11900
S 	S 	0.47507 0.31963 -0.00000 0.72300
N 	N 	0.87087 0.96920 -0.00000 -0.11900
O 	O 	0.41273 0.25120 -0.00000 -0.33200
C 	C 	0.57710 0.26690 -0.00000 -0.27800
C 	C 	0.72830 0.16900 -0.00000 0.12700
C 	C 	0.80960 0.11870 -0.00000 -0.11800
C 	C 	0.80270 0.02660 -0.00000 0.10500
C 	C 	0.72290 0.97900 -0.00000 -0.06500
H 	H 	0.66740 0.00250 -0.00000 0.05800
C 	C 	0.74270 0.89480 -0.00000 -0.11100
H 	H 	0.70350 0.84910 -0.00000 0.09100
C 	C 	0.83400 0.88760 -0.00000 0.11900
S 	S 	0.31963 0.52493 -0.00000 0.72300
N 	N 	0.96920 0.12913 -0.00000 -0.11900
O 	O 	0.25120 0.58727 -0.00000 -0.33200
C 	C 	0.26690 0.42290 -0.00000 -0.27800
C 	C 	0.16900 0.27170 -0.00000 0.12700
C 	C 	0.11870 0.19040 -0.00000 -0.11800
C 	C 	0.02660 0.19730 -0.00000 0.10500
C 	C 	0.97900 0.27710 -0.00000 -0.06500
H 	H 	0.00250 0.33260 -0.00000 0.05800
C 	C 	0.89480 0.25730 -0.00000 -0.11100
H 	H 	0.84910 0.29650 -0.00000 0.09100
C 	C 	0.88760 0.16600 -0.00000 0.11900
S 	S 	0.68037 0.47507 -0.00000 0.72300
N 	N 	0.03080 0.87087 -0.00000 -0.11900
O 	O 	0.74880 0.41273 -0.00000 -0.33200
C 	C 	0.73310 0.57710 -0.00000 -0.27800
C 	C 	0.83100 0.72830 -0.00000 0.12700
C 	C 	0.88130 0.80960 -0.00000 -0.11800
C 	C 	0.97340 0.80270 -0.00000 0.10500
C 	C 	0.02100 0.72290 -0.00000 -0.06500
H 	H 	0.99750 0.66740 -0.00000 0.05800
C 	C 	0.10520 0.74270 -0.00000 -0.11100
H 	H 	0.15090 0.70350 -0.00000 0.09100
C 	C 	0.11240 0.83400 -0.00000 0.11900
S 	S 	0.47507 0.68037 0.50000 0.76700
N 	N 	0.87087 0.03080 0.50000 -0.11600
O 	O 	0.41273 0.74880 0.50000 -0.32700
C 	C 	0.57710 0.73310 0.50000 -0.24400
C 	C 	0.72830 0.83100 0.50000 0.17900
C 	C 	0.80960 0.88130 0.50000 -0.12700
C 	C 	0.80270 0.97340 0.50000 0.11900
C 	C 	0.72290 0.02100 0.50000 -0.06300
H 	H 	0.66740 0.99750 0.50000 0.06600
C 	C 	0.74270 0.10520 0.50000 -0.10700
H 	H 	0.70350 0.15090 0.50000 0.09800
C 	C 	0.83400 0.11240 0.50000 0.13200
S 	S 	0.52493 0.31963 0.50000 0.76700
N 	N 	0.12913 0.96920 0.50000 -0.11600
O 	O 	0.58727 0.25120 0.50000 -0.32700
C 	C 	0.42290 0.26690 0.50000 -0.24400
C 	C 	0.27170 0.16900 0.50000 0.17900
C 	C 	0.19040 0.11870 0.50000 -0.12700
C 	C 	0.19730 0.02660 0.50000 0.11900
C 	C 	0.27710 0.97900 0.50000 -0.06300
H 	H 	0.33260 0.00250 0.50000 0.06600
C 	C 	0.25730 0.89480 0.50000 -0.10700
H 	H 	0.29650 0.84910 0.50000 0.09800
C 	C 	0.16600 0.88760 0.50000 0.13200
S 	S 	0.68037 0.52493 0.50000 0.76700
N 	N 	0.03080 0.12913 0.50000 -0.11600
O 	O 	0.74880 0.58727 0.50000 -0.32700
C 	C 	0.73310 0.42290 0.50000 -0.24400
C 	C 	0.83100 0.27170 0.50000 0.17900
C 	C 	0.88130 0.19040 0.50000 -0.12700
C 	C 	0.97340 0.19730 0.50000 0.11900
C 	C 	0.02100 0.27710 0.50000 -0.06300
H 	H 	0.99750 0.33260 0.50000 0.06600
C 	C 	0.10520 0.25730 0.50000 -0.10700
H 	H 	0.15090 0.29650 0.50000 0.09800
C 	C 	0.11240 0.16600 0.50000 0.13200
S 	S 	0.31963 0.47507 0.50000 0.76700
N 	N 	0.96920 0.87087 0.50000 -0.11600
O 	O 	0.25120 0.41273 0.50000 -0.32700
C 	C 	0.26690 0.57710 0.50000 -0.24400
C 	C 	0.16900 0.72830 0.50000 0.17900
C 	C 	0.11870 0.80960 0.50000 -0.12700
C 	C 	0.02660 0.80270 0.50000 0.11900
C 	C 	0.97900 0.72290 0.50000 -0.06300
H 	H 	0.00250 0.66740 0.50000 0.06600
C 	C 	0.89480 0.74270 0.50000 -0.10700
H 	H 	0.84910 0.70350 0.50000 0.09800
C 	C 	0.88760 0.83400 0.50000 0.13200
