data_crystal

_cell_length_a 11.16370
_cell_length_b 13.42310
_cell_length_c 19.71300
_cell_angle_alpha 71.96400
_cell_angle_beta  74.61300
_cell_angle_gamma 75.76400

_symmetry_space_group_name_	'P 1'
_symmetry_space_group_name_H-M	'P 1'

loop_
_symmetry_equiv_pos_as_xyz
  x,y,z

loop_
_atom_site_label
_atom_site_type_symbol
_atom_site_fract_x
_atom_site_fract_y
_atom_site_fract_z
_atom_site_charge
Tb	Tb	0.49274 0.10327 0.07806 0.56700
Co	Co	0.78619 0.51451 0.42130 1.11300
S 	S 	0.70025 0.32025 0.01753 0.53400
S 	S 	0.46843 0.83002 0.11823 0.45100
S 	S 	0.80489 0.83438 0.78272 0.71200
S 	S 	0.34486 0.99025 0.76084 0.57600
O 	O 	0.66570 0.21270 0.04270 -0.36200
O 	O 	0.60920 0.40340 0.98176 -0.23400
O 	O 	0.82840 0.31530 0.97309 -0.22900
O 	O 	0.47070 0.83650 0.04353 -0.45800
O 	O 	0.57510 0.76250 0.14150 -0.23400
O 	O 	0.45100 0.94400 0.12332 -0.44600
O 	O 	0.85920 0.91620 0.74310 -0.33100
O 	O 	0.87600 0.75730 0.83480 -0.27700
O 	O 	0.67830 0.87290 0.81540 -0.44600
O 	O 	0.38140 0.90740 0.71610 -0.25700
O 	O 	0.21310 0.02670 0.77850 -0.25700
O 	O 	0.40350 0.95300 0.82243 -0.42300
O 	O 	0.67660 0.99680 0.03810 -0.20100
O 	O 	0.40400 0.29820 0.05170 -0.27300
O 	O 	0.30170 0.11090 0.04644 -0.21000
N 	N 	0.70130 0.40700 0.41390 -0.28200
N 	N 	0.85560 0.54490 0.31582 -0.28400
N 	N 	0.88490 0.61120 0.43040 -0.28500
N 	N 	0.70840 0.49100 0.52463 -0.28300
C 	C 	0.74670 0.43370 0.28242 -0.16200
C 	C 	0.82120 0.50930 0.26567 0.11100
C 	C 	0.88790 0.55400 0.19403 -0.06300
H 	H 	0.87980 0.54390 0.15100 0.08500
C 	C 	0.96250 0.61140 0.19960 -0.08500
H 	H 	0.01670 0.64880 0.16110 0.09900
C 	C 	0.94620 0.60690 0.27508 0.11900
C 	C 	0.01260 0.65330 0.30529 -0.17300
C 	C 	0.98250 0.65500 0.37650 0.11600
C 	C 	0.03640 0.71090 0.40620 -0.09500
H 	H 	0.10550 0.74420 0.38210 0.06800
C 	C 	0.97230 0.70930 0.47620 -0.09700
H 	H 	0.98650 0.74260 0.50750 0.06000
C 	C 	0.87770 0.64450 0.49046 0.10600
C 	C 	0.79230 0.62210 0.55724 -0.17300
C 	C 	0.71300 0.55030 0.57152 0.10200
C 	C 	0.63290 0.51360 0.64128 -0.07500
H 	H 	0.61800 0.53980 0.68180 0.06200
C 	C 	0.58550 0.43700 0.63688 -0.09000
H 	H 	0.53020 0.39950 0.67450 0.06400
C 	C 	0.63000 0.41890 0.56674 0.09900
C 	C 	0.60320 0.33870 0.54376 -0.16300
C 	C 	0.63790 0.33320 0.47131 0.10400
C 	C 	0.60230 0.26680 0.44260 -0.08000
H 	H 	0.56020 0.21060 0.46960 0.06700
C 	C 	0.63630 0.29420 0.37190 -0.09100
H 	H 	0.62050 0.26200 0.34040 0.07900
C 	C 	0.70090 0.38070 0.35070 0.11700
C 	C 	0.72850 0.40050 0.21928 0.16200
C 	C 	0.79060 0.30760 0.20256 -0.19700
H 	H 	0.84370 0.26010 0.23210 0.12600
C 	C 	0.77640 0.28290 0.14320 0.12500
H 	H 	0.81870 0.21810 0.13380 0.02700
C 	C 	0.70130 0.35120 0.09718 -0.15400
C 	C 	0.64240 0.44530 0.11190 0.10300
H 	H 	0.59690 0.49530 0.07910 0.04200
C 	C 	0.64780 0.46970 0.17500 -0.18400
H 	H 	0.59850 0.53100 0.18710 0.11400
C 	C 	0.11600 0.70420 0.25434 0.19600
C 	C 	0.22060 0.64500 0.22080 -0.24100
H 	H 	0.21980 0.57330 0.22840 0.12600
C 	C 	0.32290 0.68250 0.17830 0.16400
H 	H 	0.39060 0.63760 0.15760 -0.00400
C 	C 	0.32710 0.78930 0.16520 -0.18500
C 	C 	0.22240 0.85370 0.19730 0.12600
H 	H 	0.22320 0.92560 0.18910 0.02500
C 	C 	0.11520 0.81070 0.24230 -0.21100
H 	H 	0.04560 0.85380 0.26320 0.13400
C 	C 	0.79000 0.67180 0.61422 0.18500
C 	C 	0.89050 0.64580 0.64863 -0.22700
H 	H 	0.95740 0.59300 0.63670 0.07700
C 	C 	0.89670 0.69280 0.69850 0.15600
H 	H 	0.96860 0.67500 0.71810 -0.01300
C 	C 	0.79640 0.76750 0.72050 -0.21900
C 	C 	0.68910 0.78730 0.69300 0.16000
H 	H 	0.61760 0.83290 0.70960 -0.00400
C 	C 	0.68800 0.73920 0.64090 -0.23600
H 	H 	0.61470 0.75320 0.62310 0.12100
C 	C 	0.53670 0.25790 0.59808 0.14200
C 	C 	0.59420 0.18420 0.65190 -0.18800
H 	H 	0.67520 0.18800 0.65390 0.10600
C 	C 	0.53460 0.10510 0.70260 0.11600
H 	H 	0.57670 0.05500 0.73700 0.02100
C 	C 	0.41630 0.10050 0.70210 -0.15200
C 	C 	0.35350 0.17330 0.65290 0.09000
H 	H 	0.27090 0.17030 0.65340 0.01100
C 	C 	0.41350 0.25270 0.60150 -0.18200
H 	H 	0.36920 0.30370 0.56850 0.04600
Tb	Tb	0.49872 0.11545 0.08896 0.63900
Tb	Tb	0.47090 0.15059 0.08564 0.48800
S 	S 	0.41800 0.89480 0.08620 0.27200
Tb	Tb	0.50726 0.89673 0.92194 0.56800
Co	Co	0.21381 0.48549 0.57870 1.11400
S 	S 	0.29975 0.67975 0.98247 0.53500
S 	S 	0.53157 0.16998 0.88177 0.45200
S 	S 	0.19511 0.16562 0.21728 0.71300
S 	S 	0.65514 0.00975 0.23916 0.57700
O 	O 	0.33430 0.78730 0.95730 -0.36100
O 	O 	0.39080 0.59660 0.01824 -0.23300
O 	O 	0.17160 0.68470 0.02691 -0.22800
O 	O 	0.52930 0.16350 0.95647 -0.45700
O 	O 	0.42490 0.23750 0.85850 -0.23400
O 	O 	0.54900 0.05600 0.87668 -0.44600
O 	O 	0.14080 0.08380 0.25690 -0.33100
O 	O 	0.12400 0.24270 0.16520 -0.27700
O 	O 	0.32170 0.12710 0.18460 -0.44600
O 	O 	0.61860 0.09260 0.28390 -0.25700
O 	O 	0.78690 0.97330 0.22150 -0.25700
O 	O 	0.59650 0.04700 0.17757 -0.42300
O 	O 	0.32340 0.00320 0.96190 -0.20100
O 	O 	0.59600 0.70180 0.94830 -0.27300
O 	O 	0.69830 0.88910 0.95356 -0.21000
N 	N 	0.29870 0.59300 0.58610 -0.28200
N 	N 	0.14440 0.45510 0.68418 -0.28400
N 	N 	0.11510 0.38880 0.56960 -0.28500
N 	N 	0.29160 0.50900 0.47537 -0.28300
C 	C 	0.25330 0.56630 0.71758 -0.16200
C 	C 	0.17880 0.49070 0.73433 0.11100
C 	C 	0.11210 0.44600 0.80597 -0.06300
H 	H 	0.12020 0.45610 0.84900 0.08500
C 	C 	0.03750 0.38860 0.80040 -0.08500
H 	H 	0.98330 0.35120 0.83890 0.09900
C 	C 	0.05380 0.39310 0.72492 0.11900
C 	C 	0.98740 0.34670 0.69471 -0.17300
C 	C 	0.01750 0.34500 0.62350 0.11600
C 	C 	0.96360 0.28910 0.59380 -0.09500
H 	H 	0.89450 0.25580 0.61790 0.06800
C 	C 	0.02770 0.29070 0.52380 -0.09700
H 	H 	0.01350 0.25740 0.49250 0.06000
C 	C 	0.12230 0.35550 0.50954 0.10600
C 	C 	0.20770 0.37790 0.44276 -0.17300
C 	C 	0.28700 0.44970 0.42848 0.10200
C 	C 	0.36710 0.48640 0.35872 -0.07500
H 	H 	0.38200 0.46020 0.31820 0.06200
C 	C 	0.41450 0.56300 0.36312 -0.09000
H 	H 	0.46980 0.60050 0.32550 0.06400
C 	C 	0.37000 0.58110 0.43326 0.09900
C 	C 	0.39680 0.66130 0.45624 -0.16300
C 	C 	0.36210 0.66680 0.52869 0.10400
C 	C 	0.39770 0.73320 0.55740 -0.08000
H 	H 	0.43980 0.78940 0.53040 0.06700
C 	C 	0.36370 0.70580 0.62810 -0.09100
H 	H 	0.37950 0.73800 0.65960 0.07900
C 	C 	0.29910 0.61930 0.64930 0.11700
C 	C 	0.27150 0.59950 0.78072 0.16200
C 	C 	0.20940 0.69240 0.79744 -0.19700
H 	H 	0.15630 0.73990 0.76790 0.12600
C 	C 	0.22360 0.71710 0.85680 0.12500
H 	H 	0.18130 0.78190 0.86620 0.02700
C 	C 	0.29870 0.64880 0.90282 -0.15400
C 	C 	0.35760 0.55470 0.88810 0.10300
H 	H 	0.40310 0.50470 0.92090 0.04200
C 	C 	0.35220 0.53030 0.82500 -0.18400
H 	H 	0.40150 0.46900 0.81290 0.11400
C 	C 	0.88400 0.29580 0.74566 0.19600
C 	C 	0.77940 0.35500 0.77920 -0.24100
H 	H 	0.78020 0.42670 0.77160 0.12600
C 	C 	0.67710 0.31750 0.82170 0.16400
H 	H 	0.60940 0.36240 0.84240 -0.00400
C 	C 	0.67290 0.21070 0.83480 -0.18500
C 	C 	0.77760 0.14630 0.80270 0.12600
H 	H 	0.77680 0.07440 0.81090 0.02500
C 	C 	0.88480 0.18930 0.75770 -0.21100
H 	H 	0.95440 0.14620 0.73680 0.13400
C 	C 	0.21000 0.32820 0.38578 0.18500
C 	C 	0.10950 0.35420 0.35137 -0.22700
H 	H 	0.04260 0.40700 0.36330 0.07700
C 	C 	0.10330 0.30720 0.30150 0.15600
H 	H 	0.03140 0.32500 0.28190 -0.01300
C 	C 	0.20360 0.23250 0.27950 -0.21900
C 	C 	0.31090 0.21270 0.30700 0.16000
H 	H 	0.38240 0.16710 0.29040 -0.00400
C 	C 	0.31200 0.26080 0.35910 -0.23600
H 	H 	0.38530 0.24680 0.37690 0.12100
C 	C 	0.46330 0.74210 0.40192 0.14200
C 	C 	0.40580 0.81580 0.34810 -0.18800
H 	H 	0.32480 0.81200 0.34610 0.10600
C 	C 	0.46540 0.89490 0.29740 0.11600
H 	H 	0.42330 0.94500 0.26300 0.02100
C 	C 	0.58370 0.89950 0.29790 -0.15200
C 	C 	0.64650 0.82670 0.34710 0.09000
H 	H 	0.72910 0.82970 0.34660 0.01100
C 	C 	0.58650 0.74730 0.39850 -0.18200
H 	H 	0.63080 0.69630 0.43150 0.04600
Tb	Tb	0.50128 0.88455 0.91104 0.63900
Tb	Tb	0.52910 0.84941 0.91436 0.48800
S 	S 	0.58200 0.10520 0.91380 0.27200
