data_crystal

_cell_length_a 14.00220
_cell_length_b 14.00220
_cell_length_c 14.00220
_cell_angle_alpha 104.64900
_cell_angle_beta  104.64900
_cell_angle_gamma 119.61800

_symmetry_space_group_name_	'P 1'
_symmetry_space_group_name_H-M	'P 1'

loop_
_symmetry_equiv_pos_as_xyz
  x,y,z

loop_
_atom_site_label
_atom_site_type_symbol
_atom_site_fract_x
_atom_site_fract_y
_atom_site_fract_z
_atom_site_charge
Pr	Pr	0.98380 0.83755 0.54875 2.03100
Pr	Pr	0.28880 0.43505 0.45125 2.06000
Pr	Pr	0.68505 0.73380 0.64625 2.05700
Pr	Pr	0.08755 0.03880 0.35375 2.06100
H 	H 	0.68870 0.74020 0.40690 -0.00400
H 	H 	0.36270 0.65800 0.22310 0.10500
H 	H 	0.66270 0.88250 0.19420 0.09600
H 	H 	0.36990 0.02390 0.43820 0.02500
H 	H 	0.33330 0.28180 0.59310 -0.00300
H 	H 	0.43490 0.13960 0.77690 0.09400
H 	H 	0.68830 0.46850 0.80580 0.09000
H 	H 	0.58570 0.93170 0.56180 0.08600
H 	H 	0.53180 0.43870 0.44850 -0.00500
H 	H 	0.38960 0.11270 0.20470 0.09400
H 	H 	0.71850 0.41270 0.28020 0.08500
H 	H 	0.18170 0.11990 0.84600 0.08900
H 	H 	0.99020 0.08330 0.55150 0.02900
H 	H 	0.90800 0.18490 0.79530 0.13700
H 	H 	0.13250 0.43830 0.71980 0.14900
H 	H 	0.27390 0.33570 0.15400 0.08000
H 	H 	0.23080 0.73080 0.50000 0.02600
H 	H 	0.98080 0.98080 -0.00000 -0.01800
C 	C 	0.69640 0.82150 0.30570 -0.08800
C 	C 	0.64170 0.74820 0.35390 0.03400
C 	C 	0.51660 0.68700 0.32300 -0.08200
C 	C 	0.44640 0.69900 0.24380 -0.09000
C 	C 	0.50110 0.77230 0.19560 0.17800
C 	C 	0.62610 0.83350 0.22640 -0.08700
C 	C 	0.82910 0.88850 0.33580 0.40500
C 	C 	0.45500 0.60830 0.37230 0.35700
C 	C 	0.28167 0.87390 0.46297 -0.13100
C 	C 	0.38027 0.97250 0.46297 0.01100
C 	C 	0.15990 0.85330 0.42240 0.48300
C 	C 	0.51580 0.39070 0.69430 -0.08800
C 	C 	0.39430 0.28780 0.64610 0.03400
C 	C 	0.36400 0.19360 0.67700 -0.08600
C 	C 	0.45520 0.20260 0.75620 -0.09200
C 	C 	0.57670 0.30550 0.80440 0.17500
C 	C 	0.60710 0.39970 0.77360 -0.09000
C 	C 	0.55270 0.49330 0.66420 0.40000
C 	C 	0.23600 0.08270 0.62770 0.35700
C 	C 	0.41093 0.81870 0.53703 -0.11700
C 	C 	0.50953 0.91730 0.53703 -0.06800
C 	C 	0.43090 0.73750 0.57760 0.48100
C 	C 	0.64070 0.44640 0.37490 -0.09300
C 	C 	0.53780 0.39170 0.39350 0.03500
C 	C 	0.44360 0.26660 0.32960 -0.08800
C 	C 	0.45260 0.19640 0.24740 -0.09000
C 	C 	0.55550 0.25110 0.22880 0.17200
C 	C 	0.64970 0.37610 0.29260 -0.08800
C 	C 	0.74330 0.57910 0.44060 0.40200
C 	C 	0.33270 0.20500 0.34670 0.36000
C 	C 	0.06870 0.03167 0.90777 -0.04700
C 	C 	0.16730 0.13027 0.90777 -0.08400
C 	C 	0.98750 0.90990 0.80660 0.31800
C 	C 	0.07150 0.26580 0.62510 0.08400
C 	C 	0.99820 0.14430 0.60650 -0.15800
C 	C 	0.93700 0.11400 0.67040 -0.00900
C 	C 	0.94900 0.20520 0.75260 -0.27800
C 	C 	0.02230 0.32670 0.77120 0.34400
C 	C 	0.08350 0.35710 0.70740 -0.21400
C 	C 	0.13850 0.30270 0.55940 0.34600
C 	C 	0.85830 0.98600 0.65330 0.34600
C 	C 	0.12390 0.16093 0.09223 -0.12200
C 	C 	0.22250 0.25953 0.09223 -0.06500
C 	C 	0.10330 0.18090 0.19340 0.48300
C 	C 	0.49450 0.99450 0.50000 0.17900
C 	C 	0.29680 0.79680 0.50000 0.07000
C 	C 	0.24450 0.24450 -0.00000 0.16200
C 	C 	0.04680 0.04680 -0.00000 0.08200
O 	O 	0.89290 0.86590 0.38980 -0.59000
O 	O 	0.87570 0.96990 0.30460 -0.48500
O 	O 	0.51630 0.60590 0.45340 -0.56000
O 	O 	0.33780 0.54160 0.33220 -0.43200
O 	O 	0.43570 0.78530 0.11940 -0.17000
O 	O 	0.08060 0.78860 0.44440 -0.49100
O 	O 	0.14840 0.90570 0.36770 -0.49300
O 	O 	0.47610 0.50310 0.61020 -0.57000
O 	O 	0.66530 0.57110 0.69540 -0.47500
O 	O 	0.15250 0.06290 0.54660 -0.55500
O 	O 	0.20940 0.00560 0.66780 -0.44700
O 	O 	0.66590 0.31630 0.88060 -0.19400
O 	O 	0.34420 0.63620 0.55560 -0.52800
O 	O 	0.53800 0.78070 0.63230 -0.53100
O 	O 	0.75310 0.64290 0.52700 -0.58100
O 	O 	0.82110 0.62570 0.40580 -0.48900
O 	O 	0.31290 0.26630 0.41040 -0.56200
O 	O 	0.25560 0.08780 0.29620 -0.44400
O 	O 	0.56630 0.18570 0.15040 -0.19600
O 	O 	0.88620 0.83060 0.79200 -0.50100
O 	O 	0.03070 0.89840 0.74270 -0.39800
O 	O 	0.11590 0.22610 0.47300 -0.54100
O 	O 	0.21990 0.41530 0.59420 -0.44800
O 	O 	0.85590 0.90250 0.58960 -0.56200
O 	O 	0.79160 0.95940 0.70380 -0.43000
O 	O 	0.03530 0.41590 0.84960 -0.18400
O 	O 	0.03860 0.09420 0.20800 -0.52100
O 	O 	0.15570 0.28800 0.25730 -0.52600
O 	O 	0.58860 0.08860 0.50000 -0.21900
O 	O 	0.33860 0.33860 -0.00000 -0.18400
