data_crystal

_cell_length_a 16.13900
_cell_length_b 16.13900
_cell_length_c 18.24700
_cell_angle_alpha 90.00000
_cell_angle_beta  90.00000
_cell_angle_gamma 90.00000

_symmetry_space_group_name_	'P 1'
_symmetry_space_group_name_H-M	'P 1'

loop_
_symmetry_equiv_pos_as_xyz
  x,y,z

loop_
_atom_site_label
_atom_site_type_symbol
_atom_site_fract_x
_atom_site_fract_y
_atom_site_fract_z
_atom_site_charge
C 	C 	0.13460 0.36790 0.73480 0.25600
C 	C 	0.11230 0.39080 0.65540 0.22400
O 	O 	0.68780 0.81540 0.24750 -0.46900
O 	O 	0.05600 0.44540 0.65090 -0.72100
O 	O 	0.09230 0.40840 0.78160 -0.75200
O 	O 	0.14830 0.35680 0.60370 -0.42400
C 	C 	0.63460 0.86790 0.23480 0.29200
C 	C 	0.61230 0.89080 0.15540 0.23400
O 	O 	0.18780 0.31540 0.74750 -0.54100
O 	O 	0.55600 0.94540 0.15090 -0.39500
O 	O 	0.59230 0.90840 0.28160 -0.52400
O 	O 	0.64830 0.85680 0.10370 -0.34800
C 	C 	0.36540 0.13210 0.23480 0.25100
C 	C 	0.38770 0.10920 0.15540 0.23000
O 	O 	0.81220 0.68460 0.74750 -0.44200
O 	O 	0.44400 0.05460 0.15090 -0.74500
O 	O 	0.40770 0.09160 0.28160 -0.75600
O 	O 	0.35170 0.14320 0.10370 -0.46000
C 	C 	0.86540 0.63210 0.73480 0.29700
C 	C 	0.88770 0.60920 0.65540 0.23400
O 	O 	0.31220 0.18460 0.24750 -0.53100
O 	O 	0.94400 0.55460 0.65090 -0.37500
O 	O 	0.90770 0.59160 0.78160 -0.51000
O 	O 	0.85170 0.64320 0.60370 -0.30200
C 	C 	0.63210 0.63460 0.98480 0.45400
C 	C 	0.60920 0.61230 0.90540 0.20200
O 	O 	0.18460 0.18780 0.49750 -0.55700
O 	O 	0.55460 0.55600 0.90090 -0.52000
O 	O 	0.59160 0.59230 0.03160 -0.79400
O 	O 	0.64320 0.64830 0.85370 -0.33800
C 	C 	0.13210 0.13460 0.48480 0.23700
C 	C 	0.10920 0.11230 0.40540 0.22400
O 	O 	0.68460 0.68780 0.99750 -0.45000
O 	O 	0.05460 0.05600 0.40090 -0.88900
O 	O 	0.09160 0.09230 0.53160 -0.86700
O 	O 	0.14320 0.14830 0.35370 -0.47300
C 	C 	0.86790 0.86540 0.48480 0.31500
C 	C 	0.89080 0.88770 0.40540 0.23000
O 	O 	0.31540 0.31220 0.99750 -0.48800
O 	O 	0.94540 0.94400 0.40090 -0.20300
O 	O 	0.90840 0.90770 0.53160 -0.40700
O 	O 	0.85680 0.85170 0.35370 -0.25500
C 	C 	0.36790 0.36540 0.98480 0.45400
C 	C 	0.39080 0.38770 0.90540 0.19100
O 	O 	0.81540 0.81220 0.49750 -0.43900
O 	O 	0.44540 0.44400 0.90090 -0.52000
O 	O 	0.40840 0.40770 0.03160 -0.81000
O 	O 	0.35680 0.35170 0.85370 -0.35100
C 	C 	0.36540 0.36790 0.51520 0.27600
C 	C 	0.38770 0.39080 0.59460 0.22300
O 	O 	0.81220 0.81540 0.00250 -0.47100
O 	O 	0.44400 0.44540 0.59910 -0.55400
O 	O 	0.40770 0.40840 0.46840 -0.65400
O 	O 	0.35170 0.35680 0.64630 -0.36800
C 	C 	0.86540 0.86790 0.01520 0.15000
C 	C 	0.88770 0.89080 0.09460 0.25900
O 	O 	0.31220 0.31540 0.50250 -0.52000
O 	O 	0.94400 0.94540 0.09910 -0.23000
O 	O 	0.90770 0.90840 0.96840 -0.26300
O 	O 	0.85170 0.85680 0.14630 -0.27200
C 	C 	0.13460 0.13210 0.01520 0.05600
C 	C 	0.11230 0.10920 0.09460 0.25700
O 	O 	0.68780 0.68460 0.50250 -0.47600
O 	O 	0.05600 0.05460 0.09910 -0.91700
O 	O 	0.09230 0.09160 0.96840 -0.69900
O 	O 	0.14830 0.14320 0.14630 -0.49000
C 	C 	0.63460 0.63210 0.51520 0.28000
C 	C 	0.61230 0.60920 0.59460 0.23400
O 	O 	0.18780 0.18460 0.00250 -0.58500
O 	O 	0.55600 0.55460 0.59910 -0.55300
O 	O 	0.59230 0.59160 0.46840 -0.64100
O 	O 	0.64830 0.64320 0.64630 -0.35500
C 	C 	0.86790 0.63460 0.26520 0.29800
C 	C 	0.89080 0.61230 0.34460 0.22800
O 	O 	0.31540 0.18780 0.75250 -0.54600
O 	O 	0.94540 0.55600 0.34910 -0.37300
O 	O 	0.90840 0.59230 0.21840 -0.53400
O 	O 	0.85680 0.64830 0.39630 -0.30700
C 	C 	0.36790 0.13460 0.76520 0.26200
C 	C 	0.39080 0.11230 0.84460 0.21700
O 	O 	0.81540 0.68780 0.25250 -0.47400
O 	O 	0.44540 0.05600 0.84910 -0.69700
O 	O 	0.40840 0.09230 0.71840 -0.76300
O 	O 	0.35680 0.14830 0.89630 -0.38000
C 	C 	0.63210 0.86540 0.76520 0.30200
C 	C 	0.60920 0.88770 0.84460 0.23000
O 	O 	0.18460 0.31220 0.25250 -0.53500
O 	O 	0.55460 0.94400 0.84910 -0.35500
O 	O 	0.59160 0.90770 0.71840 -0.51900
O 	O 	0.64320 0.85170 0.89630 -0.26400
C 	C 	0.13210 0.36540 0.26520 0.25700
C 	C 	0.10920 0.38770 0.34460 0.22500
O 	O 	0.68460 0.81220 0.75250 -0.44600
O 	O 	0.05460 0.44400 0.34910 -0.72300
O 	O 	0.09160 0.40770 0.21840 -0.76700
O 	O 	0.14320 0.35170 0.39630 -0.41800
C 	C 	0.86540 0.13210 0.51520 0.27800
C 	C 	0.88770 0.10920 0.59460 0.23100
O 	O 	0.31220 0.68460 0.00250 -0.51800
O 	O 	0.94400 0.05460 0.59910 -0.53600
O 	O 	0.90770 0.09160 0.46840 -0.62200
O 	O 	0.85170 0.14320 0.64630 -0.35800
C 	C 	0.36540 0.63210 0.01520 0.10000
C 	C 	0.38770 0.60920 0.09460 0.26100
O 	O 	0.81220 0.18460 0.50250 -0.48500
O 	O 	0.44400 0.55460 0.09910 -0.58400
O 	O 	0.40770 0.59160 0.96840 -0.48600
O 	O 	0.35170 0.64320 0.14630 -0.37800
C 	C 	0.63460 0.36790 0.01520 0.10000
C 	C 	0.61230 0.39080 0.09460 0.25900
O 	O 	0.18780 0.81540 0.50250 -0.50800
O 	O 	0.55600 0.44540 0.09910 -0.58400
O 	O 	0.59230 0.40840 0.96840 -0.48800
O 	O 	0.64830 0.35680 0.14630 -0.38400
C 	C 	0.13460 0.86790 0.51520 0.27600
C 	C 	0.11230 0.89080 0.59460 0.22500
O 	O 	0.68780 0.31540 0.00250 -0.53600
O 	O 	0.05600 0.94540 0.59910 -0.53600
O 	O 	0.09230 0.90840 0.46840 -0.63400
O 	O 	0.14830 0.85680 0.64630 -0.36200
C 	C 	0.36790 0.86540 0.26520 0.29700
C 	C 	0.39080 0.88770 0.34460 0.22700
O 	O 	0.81540 0.31220 0.75250 -0.47700
O 	O 	0.44540 0.94400 0.34910 -0.37300
O 	O 	0.40840 0.90770 0.21840 -0.53300
O 	O 	0.35680 0.85170 0.39630 -0.31100
C 	C 	0.86790 0.36540 0.76520 0.30000
C 	C 	0.89080 0.38770 0.84460 0.22200
O 	O 	0.31540 0.81220 0.25250 -0.48400
O 	O 	0.94540 0.44400 0.84910 -0.35400
O 	O 	0.90840 0.40770 0.71840 -0.52900
O 	O 	0.85680 0.35170 0.89630 -0.27000
C 	C 	0.13210 0.63460 0.76520 0.26500
C 	C 	0.10920 0.61230 0.84460 0.22600
O 	O 	0.68460 0.18780 0.25250 -0.52300
O 	O 	0.05460 0.55600 0.84910 -0.69600
O 	O 	0.09160 0.59230 0.71840 -0.75100
O 	O 	0.14320 0.64830 0.89630 -0.37200
C 	C 	0.63210 0.13460 0.26520 0.25900
C 	C 	0.60920 0.11230 0.34460 0.22800
O 	O 	0.18460 0.68780 0.75250 -0.51200
O 	O 	0.55460 0.05600 0.34910 -0.72100
O 	O 	0.59160 0.09230 0.21840 -0.76500
O 	O 	0.64320 0.14830 0.39630 -0.41300
C 	C 	0.63460 0.13210 0.73480 0.25900
C 	C 	0.61230 0.10920 0.65540 0.23200
O 	O 	0.18780 0.68460 0.24750 -0.51900
O 	O 	0.55600 0.05460 0.65090 -0.72100
O 	O 	0.59230 0.09160 0.78160 -0.73900
O 	O 	0.64830 0.14320 0.60370 -0.41400
C 	C 	0.13460 0.63210 0.23480 0.25300
C 	C 	0.11230 0.60920 0.15540 0.23300
O 	O 	0.68780 0.18460 0.74750 -0.50800
O 	O 	0.05600 0.55460 0.15090 -0.74400
O 	O 	0.09230 0.59160 0.28160 -0.75500
O 	O 	0.14830 0.64320 0.10370 -0.45400
C 	C 	0.86540 0.36790 0.23480 0.29100
C 	C 	0.88770 0.39080 0.15540 0.23300
O 	O 	0.31220 0.81540 0.74750 -0.47300
O 	O 	0.94400 0.44540 0.15090 -0.39600
O 	O 	0.90770 0.40840 0.28160 -0.52200
O 	O 	0.85170 0.35680 0.10370 -0.35200
C 	C 	0.36540 0.86790 0.73480 0.29500
C 	C 	0.38770 0.89080 0.65540 0.22700
O 	O 	0.81220 0.31540 0.24750 -0.47900
O 	O 	0.44400 0.94540 0.65090 -0.37400
O 	O 	0.40770 0.90840 0.78160 -0.51900
O 	O 	0.35170 0.85680 0.60370 -0.31000
C 	C 	0.13210 0.86540 0.98480 0.44900
C 	C 	0.10920 0.88770 0.90540 0.20000
O 	O 	0.68460 0.31220 0.49750 -0.48800
O 	O 	0.05460 0.94400 0.90090 -0.50400
O 	O 	0.09160 0.90770 0.03160 -0.77300
O 	O 	0.14320 0.85170 0.85370 -0.34100
C 	C 	0.63210 0.36540 0.48480 0.27700
C 	C 	0.60920 0.38770 0.40540 0.23000
O 	O 	0.18460 0.81220 0.99750 -0.45500
O 	O 	0.55460 0.44400 0.40090 -0.55600
O 	O 	0.59160 0.40770 0.53160 -0.64500
O 	O 	0.64320 0.35170 0.35370 -0.36100
C 	C 	0.36790 0.63460 0.48480 0.27700
C 	C 	0.39080 0.61230 0.40540 0.22700
O 	O 	0.81540 0.18780 0.99750 -0.47700
O 	O 	0.44540 0.55600 0.40090 -0.55500
O 	O 	0.40840 0.59230 0.53160 -0.64800
O 	O 	0.35680 0.64830 0.35370 -0.36700
C 	C 	0.86790 0.13460 0.98480 0.44800
C 	C 	0.89080 0.11230 0.90540 0.19400
O 	O 	0.31540 0.68780 0.49750 -0.50700
O 	O 	0.94540 0.05600 0.90090 -0.50400
O 	O 	0.90840 0.09230 0.03160 -0.78500
O 	O 	0.85680 0.14830 0.85370 -0.34500
Sr	Sr	0.73720 0.75000 0.37500 1.51600
Sr	Sr	0.23720 0.25000 0.87500 1.50100
Sr	Sr	0.76280 0.75000 0.87500 1.53400
Sr	Sr	0.26280 0.25000 0.37500 1.50100
Sr	Sr	0.25000 0.23720 0.62500 1.49200
Sr	Sr	0.75000 0.73720 0.12500 1.50700
Sr	Sr	0.25000 0.26280 0.12500 1.49200
Sr	Sr	0.75000 0.76280 0.62500 1.52600
Sr	Sr	0.26280 0.75000 0.87500 1.52300
Sr	Sr	0.76280 0.25000 0.37500 1.51400
Sr	Sr	0.23720 0.75000 0.37500 1.50400
Sr	Sr	0.73720 0.25000 0.87500 1.51400
Sr	Sr	0.75000 0.26280 0.62500 1.51400
Sr	Sr	0.25000 0.76280 0.12500 1.50500
Sr	Sr	0.75000 0.23720 0.12500 1.49500
Sr	Sr	0.25000 0.73720 0.62500 1.50500
Zr	Zr	0.00000 0.50000 0.75000 3.15200
Zr	Zr	0.50000 0.00000 0.25000 3.15200
Zr	Zr	0.50000 0.50000 -0.00000 3.18400
Zr	Zr	0.00000 0.00000 0.50000 3.10000
Zr	Zr	0.50000 0.50000 0.50000 3.20300
Zr	Zr	-0.00000 0.00000 -0.00000 3.08200
Zr	Zr	0.00000 0.50000 0.25000 3.15200
Zr	Zr	0.50000 0.00000 0.75000 3.15200
