data_crystal

_cell_length_a 9.32780
_cell_length_b 15.55290
_cell_length_c 9.64740
_cell_angle_alpha 90.00000
_cell_angle_beta  93.26600
_cell_angle_gamma 90.00000

_symmetry_space_group_name_	'P 1'
_symmetry_space_group_name_H-M	'P 1'

loop_
_symmetry_equiv_pos_as_xyz
  x,y,z

loop_
_atom_site_label
_atom_site_type_symbol
_atom_site_fract_x
_atom_site_fract_y
_atom_site_fract_z
_atom_site_charge
U 	U 	0.14200 0.01700 0.02900 0.05500
U 	U 	0.23850 0.02280 0.63490 0.04500
U 	U 	0.13370 0.48920 0.00130 0.05500
U 	U 	0.22850 0.47070 0.60550 0.04500
U 	U 	0.71660 0.25120 0.81120 0.03600
P 	P 	0.48000 0.43690 0.83830 0.47100
P 	P 	0.87860 0.47390 0.77500 0.42000
P 	P 	0.48880 0.06380 0.86220 0.48200
P 	P 	0.88640 0.03000 0.79920 0.41500
O 	O 	0.32420 0.05630 0.87800 -0.11400
O 	O 	0.04970 0.04250 0.78350 -0.07000
O 	O 	0.04010 0.46060 0.75520 -0.07100
O 	O 	0.31400 0.44450 0.85370 -0.10900
O 	O 	0.48860 0.46060 0.68150 -0.12200
O 	O 	0.55790 0.50470 0.92800 -0.13100
O 	O 	0.81510 0.53930 0.66500 -0.13900
O 	O 	0.88100 0.51750 0.92020 -0.13300
O 	O 	0.82400 0.96030 0.69860 -0.13700
O 	O 	0.56730 0.00080 0.95690 -0.14000
O 	O 	0.79700 0.39140 0.76890 -0.15200
O 	O 	0.88900 0.99300 0.94930 -0.12700
O 	O 	0.80660 0.11260 0.78290 -0.15300
O 	O 	0.49850 0.03270 0.71050 -0.12800
O 	O 	0.52930 0.34740 0.86810 -0.13200
O 	O 	0.53740 0.15380 0.88350 -0.13600
U 	U 	0.64200 0.98300 0.52900 0.03500
U 	U 	0.73850 0.97720 0.13490 0.02700
U 	U 	0.63370 0.51080 0.50130 0.03100
U 	U 	0.72850 0.52930 0.10550 0.02500
U 	U 	0.21660 0.74880 0.31120 0.05100
P 	P 	0.98000 0.56310 0.33830 0.36700
P 	P 	0.37860 0.52610 0.27500 0.47000
P 	P 	0.98880 0.93620 0.36220 0.37700
P 	P 	0.38640 0.97000 0.29920 0.47600
O 	O 	0.82420 0.94370 0.37800 -0.12400
O 	O 	0.54970 0.95750 0.28350 -0.12800
O 	O 	0.54010 0.53940 0.25520 -0.13100
O 	O 	0.81400 0.55550 0.35370 -0.12200
O 	O 	0.98860 0.53940 0.18150 -0.15200
O 	O 	0.05790 0.49530 0.42800 -0.07600
O 	O 	0.31510 0.46070 0.16500 -0.12400
O 	O 	0.38100 0.48250 0.42020 -0.12200
O 	O 	0.32400 0.03970 0.19860 -0.12900
O 	O 	0.06730 0.99920 0.45690 -0.07900
O 	O 	0.29700 0.60860 0.26890 -0.13900
O 	O 	0.38900 0.00700 0.44930 -0.12500
O 	O 	0.30660 0.88740 0.28290 -0.14000
O 	O 	0.99850 0.96730 0.21050 -0.15300
O 	O 	0.02930 0.65260 0.36810 -0.07100
O 	O 	0.03740 0.84620 0.38350 -0.07400
