data_crystal

_cell_length_a 8.41810
_cell_length_b 15.88850
_cell_length_c 15.88850
_cell_angle_alpha 90.00000
_cell_angle_beta  90.00000
_cell_angle_gamma 90.00000

_symmetry_space_group_name_	'P 1'
_symmetry_space_group_name_H-M	'P 1'

loop_
_symmetry_equiv_pos_as_xyz
  x,y,z

loop_
_atom_site_label
_atom_site_type_symbol
_atom_site_fract_x
_atom_site_fract_y
_atom_site_fract_z
_atom_site_charge
Ca	Ca	0.00220 0.75931 0.38060 1.50300
Ca	Ca	0.00260 0.26036 0.38160 1.50100
Ca	Ca	0.99780 0.24069 0.88060 1.50300
Ca	Ca	0.99740 0.73964 0.88160 1.50100
Ca	Ca	0.50220 0.74069 0.38060 1.50200
Ca	Ca	0.50260 0.23964 0.38160 1.50200
Ca	Ca	0.49780 0.25931 0.88060 1.50300
Ca	Ca	0.49740 0.76036 0.88160 1.50200
Zr	Zr	0.25130 0.50024 0.63100 3.20100
Zr	Zr	0.74870 0.49976 0.13100 3.20100
Zr	Zr	0.75130 0.99976 0.63100 3.20000
Zr	Zr	0.24870 0.00024 0.13100 3.20000
C 	C 	0.05250 0.61450 0.52050 0.18600
C 	C 	0.04520 0.38380 0.73770 0.25600
C 	C 	0.45720 0.38650 0.51810 0.22400
C 	C 	0.44980 0.60900 0.74520 0.25200
C 	C 	0.21340 0.36740 0.76600 0.22800
C 	C 	0.22860 0.64240 0.50020 0.34000
C 	C 	0.27770 0.36280 0.50180 0.31800
C 	C 	0.27670 0.63050 0.76750 0.25000
C 	C 	0.94750 0.38550 0.02050 0.15000
C 	C 	0.95480 0.61620 0.23770 0.25600
C 	C 	0.54280 0.61350 0.01810 0.18000
C 	C 	0.55020 0.39100 0.24520 0.25000
C 	C 	0.78660 0.63260 0.26600 0.22500
C 	C 	0.77140 0.35760 0.00020 0.29000
C 	C 	0.72230 0.63720 0.00180 0.28200
C 	C 	0.72330 0.36950 0.26750 0.24800
C 	C 	0.55250 0.88550 0.52050 0.18500
C 	C 	0.54520 0.11620 0.73770 0.25500
C 	C 	0.95720 0.11350 0.51810 0.23200
C 	C 	0.94980 0.89100 0.74520 0.24300
C 	C 	0.71340 0.13260 0.76600 0.22900
C 	C 	0.72860 0.85760 0.50020 0.34100
C 	C 	0.77770 0.13720 0.50180 0.31700
C 	C 	0.77670 0.86950 0.76750 0.25100
C 	C 	0.44750 0.11450 0.02050 0.14400
C 	C 	0.45480 0.88380 0.23770 0.25300
C 	C 	0.04280 0.88650 0.01810 0.19200
C 	C 	0.05020 0.10900 0.24520 0.24100
C 	C 	0.28660 0.86740 0.26600 0.22600
C 	C 	0.27140 0.14240 0.00020 0.28100
C 	C 	0.22230 0.86280 0.00180 0.27400
C 	C 	0.22330 0.13050 0.26750 0.25000
O 	O 	0.25540 0.30820 0.44950 -0.52600
O 	O 	0.25240 0.69450 0.44820 -0.54800
O 	O 	0.24970 0.68340 0.82690 -0.49100
O 	O 	0.24680 0.31670 0.82540 -0.48100
O 	O 	0.17940 0.60200 0.71490 -0.62200
O 	O 	0.46880 0.43960 0.57810 -0.52700
O 	O 	0.17760 0.40820 0.53780 -0.66300
O 	O 	0.93680 0.63990 0.47290 -0.34300
O 	O 	0.55910 0.65810 0.77490 -0.37900
O 	O 	0.56390 0.35660 0.47490 -0.37200
O 	O 	0.32210 0.58820 0.53310 -0.66100
O 	O 	0.03630 0.56300 0.57980 -0.52000
O 	O 	0.93720 0.34380 0.77560 -0.38800
O 	O 	0.32060 0.39950 0.71820 -0.60400
O 	O 	0.03410 0.44810 0.69410 -0.54600
O 	O 	0.46220 0.54960 0.69640 -0.56900
O 	O 	0.74460 0.69180 0.94950 -0.49200
O 	O 	0.74760 0.30550 0.94820 -0.50500
O 	O 	0.75030 0.31660 0.32690 -0.49400
O 	O 	0.75320 0.68330 0.32540 -0.48400
O 	O 	0.82060 0.39800 0.21490 -0.62400
O 	O 	0.53120 0.56040 0.07810 -0.52500
O 	O 	0.82240 0.59180 0.03780 -0.66200
O 	O 	0.06320 0.36010 0.97290 -0.30400
O 	O 	0.44090 0.34190 0.27490 -0.38400
O 	O 	0.43610 0.64340 0.97490 -0.33200
O 	O 	0.67790 0.41180 0.03310 -0.66000
O 	O 	0.96370 0.43700 0.07980 -0.51700
O 	O 	0.06280 0.65620 0.27560 -0.39400
O 	O 	0.67940 0.60050 0.21820 -0.60700
O 	O 	0.96590 0.55190 0.19410 -0.55000
O 	O 	0.53780 0.45040 0.19640 -0.57500
O 	O 	0.75540 0.19180 0.44950 -0.52400
O 	O 	0.75240 0.80550 0.44820 -0.54800
O 	O 	0.74970 0.81660 0.82690 -0.49400
O 	O 	0.74680 0.18330 0.82540 -0.48100
O 	O 	0.67940 0.89800 0.71490 -0.62400
O 	O 	0.96880 0.06040 0.57810 -0.52400
O 	O 	0.67760 0.09180 0.53780 -0.66000
O 	O 	0.43680 0.86010 0.47290 -0.34200
O 	O 	0.05910 0.84190 0.77490 -0.37200
O 	O 	0.06390 0.14340 0.47490 -0.37800
O 	O 	0.82210 0.91180 0.53310 -0.66300
O 	O 	0.53630 0.93700 0.57980 -0.52000
O 	O 	0.43720 0.15620 0.77560 -0.38600
O 	O 	0.82060 0.10050 0.71820 -0.60100
O 	O 	0.53410 0.05190 0.69410 -0.54300
O 	O 	0.96220 0.95040 0.69640 -0.57200
O 	O 	0.24460 0.80820 0.94950 -0.48700
O 	O 	0.24760 0.19450 0.94820 -0.49600
O 	O 	0.25030 0.18340 0.32690 -0.49600
O 	O 	0.25320 0.81670 0.32540 -0.48400
O 	O 	0.32060 0.10200 0.21490 -0.62600
O 	O 	0.03120 0.93960 0.07810 -0.52300
O 	O 	0.32240 0.90820 0.03780 -0.65800
O 	O 	0.56320 0.13990 0.97290 -0.29900
O 	O 	0.94090 0.15810 0.27490 -0.37500
O 	O 	0.93610 0.85660 0.97490 -0.34400
O 	O 	0.17790 0.08820 0.03310 -0.66200
O 	O 	0.46370 0.06300 0.07980 -0.51900
O 	O 	0.56280 0.84380 0.27560 -0.39100
O 	O 	0.17940 0.89950 0.21820 -0.60400
O 	O 	0.46590 0.94810 0.19410 -0.54700
O 	O 	0.03780 0.04960 0.19640 -0.57600
