data_crystal

_cell_length_a 7.40540
_cell_length_b 18.81100
_cell_length_c 12.00600
_cell_angle_alpha 90.00000
_cell_angle_beta  97.06000
_cell_angle_gamma 90.00000

_symmetry_space_group_name_	'P 1'
_symmetry_space_group_name_H-M	'P 1'

loop_
_symmetry_equiv_pos_as_xyz
  x,y,z

loop_
_atom_site_label
_atom_site_type_symbol
_atom_site_fract_x
_atom_site_fract_y
_atom_site_fract_z
_atom_site_charge
C 	C 	0.03140 0.17640 0.32610 0.42200
C 	C 	0.95970 0.23890 0.25690 -0.25400
C 	C 	0.77730 0.25720 0.25260 0.22700
H 	H 	0.70200 0.23150 0.29430 -0.02500
C 	C 	0.70820 0.31220 0.18820 -0.34500
H 	H 	0.58530 0.32300 0.18610 0.16800
C 	C 	0.81640 0.35370 0.12400 0.34500
C 	C 	0.00000 0.33540 0.12690 -0.29100
C 	C 	0.06930 0.27780 0.19500 0.20600
H 	H 	0.19180 0.26600 0.19800 -0.01100
C 	C 	0.12430 0.37480 0.06140 0.40100
Cu	Cu	0.93761 0.07552 0.49378 0.92100
Cu	Cu	0.31740 0.05901 0.43150 0.89800
O 	O 	0.91110 0.14550 0.37690 -0.42100
O 	O 	0.19510 0.15894 0.33100 -0.37000
O 	O 	0.29490 0.36657 0.08770 -0.39800
O 	O 	0.06650 0.41676 0.98170 -0.48000
O 	O 	0.91970 0.99160 0.58980 -0.52100
O 	O 	0.73690 0.40738 0.06670 -0.47800
C 	C 	0.46860 0.67640 0.17390 0.38700
C 	C 	0.54030 0.73890 0.24310 -0.21700
C 	C 	0.72270 0.75720 0.24740 0.20500
H 	H 	0.79800 0.73150 0.20570 -0.02000
C 	C 	0.79180 0.81220 0.31180 -0.33400
H 	H 	0.91470 0.82300 0.31390 0.16100
C 	C 	0.68360 0.85370 0.37600 0.34800
C 	C 	0.50000 0.83540 0.37310 -0.29300
C 	C 	0.43070 0.77780 0.30500 0.17700
H 	H 	0.30820 0.76600 0.30200 -0.00100
C 	C 	0.37570 0.87480 0.43860 0.40400
Cu	Cu	0.56239 0.57552 0.00622 0.92500
Cu	Cu	0.18260 0.55901 0.06850 0.89800
O 	O 	0.58890 0.64550 0.12310 -0.40500
O 	O 	0.30490 0.65894 0.16900 -0.36200
O 	O 	0.20510 0.86657 0.41230 -0.39600
O 	O 	0.43350 0.91676 0.51830 -0.49100
O 	O 	0.58030 0.49160 0.91020 -0.51500
O 	O 	0.76310 0.90738 0.43330 -0.48000
C 	C 	0.96860 0.82360 0.67390 0.33400
C 	C 	0.04030 0.76110 0.74310 -0.13500
C 	C 	0.22270 0.74280 0.74740 0.14600
H 	H 	0.29800 0.76850 0.70570 0.00200
C 	C 	0.29180 0.68780 0.81180 -0.28300
H 	H 	0.41470 0.67700 0.81390 0.14600
C 	C 	0.18360 0.64630 0.87600 0.31000
C 	C 	0.00000 0.66460 0.87310 -0.21900
C 	C 	0.93070 0.72220 0.80500 0.08100
H 	H 	0.80820 0.73400 0.80200 0.02800
C 	C 	0.87570 0.62520 0.93860 0.36500
Cu	Cu	0.06239 0.92448 0.50622 0.92900
Cu	Cu	0.68260 0.94099 0.56850 0.89700
O 	O 	0.08890 0.85450 0.62310 -0.38300
O 	O 	0.80490 0.84106 0.66900 -0.35300
O 	O 	0.70510 0.63343 0.91230 -0.39000
O 	O 	0.93350 0.58324 0.01830 -0.48500
O 	O 	0.08030 0.00840 0.41020 -0.50800
O 	O 	0.26310 0.59262 0.93330 -0.46400
C 	C 	0.53140 0.32360 0.82610 0.38900
C 	C 	0.45970 0.26110 0.75690 -0.22000
C 	C 	0.27730 0.24280 0.75260 0.21000
H 	H 	0.20200 0.26850 0.79430 -0.01700
C 	C 	0.20820 0.18780 0.68820 -0.33500
H 	H 	0.08530 0.17700 0.68610 0.17000
C 	C 	0.31640 0.14630 0.62400 0.35200
C 	C 	0.50000 0.16460 0.62690 -0.29600
C 	C 	0.56930 0.22220 0.69500 0.18100
H 	H 	0.69180 0.23400 0.69800 -0.00600
C 	C 	0.62430 0.12520 0.56140 0.40700
Cu	Cu	0.43761 0.42448 0.99378 0.92600
Cu	Cu	0.81740 0.44099 0.93150 0.89200
O 	O 	0.41110 0.35450 0.87690 -0.40400
O 	O 	0.69510 0.34106 0.83100 -0.36800
O 	O 	0.79490 0.13343 0.58770 -0.40300
O 	O 	0.56650 0.08324 0.48170 -0.49200
O 	O 	0.41970 0.50840 0.08980 -0.51500
O 	O 	0.23690 0.09262 0.56670 -0.47400
