data_crystal

_cell_length_a 10.25500
_cell_length_b 11.26800
_cell_length_c 22.19400
_cell_angle_alpha 90.00000
_cell_angle_beta  97.06100
_cell_angle_gamma 90.00000

_symmetry_space_group_name_	'P 1'
_symmetry_space_group_name_H-M	'P 1'

loop_
_symmetry_equiv_pos_as_xyz
  x,y,z

loop_
_atom_site_label
_atom_site_type_symbol
_atom_site_fract_x
_atom_site_fract_y
_atom_site_fract_z
_atom_site_charge
Sm	Sm	0.38992 0.18834 0.77449 2.07800
Sm	Sm	0.73977 0.91485 0.93583 1.82300
Sm	Sm	0.11008 0.68834 0.72551 2.07800
Sm	Sm	0.76023 0.41485 0.56417 1.83200
Sm	Sm	0.61008 0.81166 0.22551 2.07800
Sm	Sm	0.26023 0.08515 0.06417 1.82300
Sm	Sm	0.88992 0.31166 0.27449 2.07800
Sm	Sm	0.23977 0.58515 0.43583 1.83200
H 	H 	0.66270 0.97410 0.66500 0.13000
H 	H 	0.88460 0.12070 0.83800 0.13900
H 	H 	0.89050 0.79530 0.59270 0.25200
H 	H 	0.73860 0.81590 0.57910 0.26200
H 	H 	0.83520 0.92400 0.58060 0.24600
H 	H 	0.88270 0.14730 0.72890 0.27000
H 	H 	0.01230 0.09810 0.70740 0.27600
H 	H 	0.99370 0.23510 0.71490 0.26800
H 	H 	0.83730 0.47410 0.83500 0.13100
H 	H 	0.61540 0.62070 0.66200 0.14000
H 	H 	0.60950 0.29530 0.90730 0.25400
H 	H 	0.76140 0.31590 0.92090 0.26300
H 	H 	0.66480 0.42400 0.91940 0.24700
H 	H 	0.61730 0.64730 0.77110 0.27900
H 	H 	0.48770 0.59810 0.79260 0.28800
H 	H 	0.50630 0.73510 0.78510 0.27700
H 	H 	0.33730 0.02590 0.33500 0.13000
H 	H 	0.11540 0.87930 0.16200 0.13900
H 	H 	0.10950 0.20470 0.40730 0.25200
H 	H 	0.26140 0.18410 0.42090 0.26200
H 	H 	0.16480 0.07600 0.41940 0.24600
H 	H 	0.11730 0.85270 0.27110 0.27000
H 	H 	0.98770 0.90190 0.29260 0.27600
H 	H 	0.00630 0.76490 0.28510 0.26800
H 	H 	0.16270 0.52590 0.16500 0.13100
H 	H 	0.38460 0.37930 0.33800 0.14000
H 	H 	0.39050 0.70470 0.09270 0.25400
H 	H 	0.23860 0.68410 0.07910 0.26300
H 	H 	0.33520 0.57600 0.08060 0.24700
H 	H 	0.38270 0.35270 0.22890 0.27900
H 	H 	0.51230 0.40190 0.20740 0.28800
H 	H 	0.49370 0.26490 0.21490 0.27700
C 	C 	0.26520 0.45520 0.78560 0.25500
C 	C 	0.20420 0.40880 0.72250 0.26300
C 	C 	0.66000 0.00730 0.78360 0.42100
C 	C 	0.74050 0.92970 0.74770 -0.04800
C 	C 	0.81190 0.86360 0.66420 0.32100
C 	C 	0.81980 0.84840 0.59830 -0.81700
C 	C 	0.85010 0.85590 0.76180 -0.08600
C 	C 	0.91940 0.81500 0.82030 0.42300
C 	C 	0.99290 0.11470 0.95150 0.43900
C 	C 	0.05090 0.13050 0.89360 -0.03800
C 	C 	0.03550 0.15050 0.79370 0.35700
C 	C 	0.97600 0.15840 0.73090 -0.86600
C 	C 	0.17380 0.14990 0.87700 -0.07800
C 	C 	0.30620 0.15210 0.91270 0.44100
C 	C 	0.23480 0.95520 0.71440 0.25500
C 	C 	0.29580 0.90880 0.77750 0.26300
C 	C 	0.84000 0.50730 0.71640 0.41900
C 	C 	0.75950 0.42970 0.75230 -0.04400
C 	C 	0.68810 0.36360 0.83580 0.32200
C 	C 	0.68020 0.34840 0.90170 -0.81900
C 	C 	0.64990 0.35590 0.73820 -0.08600
C 	C 	0.58060 0.31500 0.67970 0.42500
C 	C 	0.50710 0.61470 0.54850 0.42900
C 	C 	0.44910 0.63050 0.60640 -0.03000
C 	C 	0.46450 0.65050 0.70630 0.37100
C 	C 	0.52400 0.65840 0.76910 -0.90100
C 	C 	0.32620 0.64990 0.62300 -0.08100
C 	C 	0.19380 0.65210 0.58730 0.44300
C 	C 	0.73480 0.54480 0.21440 0.25500
C 	C 	0.79580 0.59120 0.27750 0.26300
C 	C 	0.34000 0.99270 0.21640 0.42100
C 	C 	0.25950 0.07030 0.25230 -0.04800
C 	C 	0.18810 0.13640 0.33580 0.32100
C 	C 	0.18020 0.15160 0.40170 -0.81700
C 	C 	0.14990 0.14410 0.23820 -0.08600
C 	C 	0.08060 0.18500 0.17970 0.42300
C 	C 	0.00710 0.88530 0.04850 0.43900
C 	C 	0.94910 0.86950 0.10640 -0.03800
C 	C 	0.96450 0.84950 0.20630 0.35700
C 	C 	0.02400 0.84160 0.26910 -0.86600
C 	C 	0.82620 0.85010 0.12300 -0.07800
C 	C 	0.69380 0.84790 0.08730 0.44100
C 	C 	0.76520 0.04480 0.28560 0.25500
C 	C 	0.70420 0.09120 0.22250 0.26300
C 	C 	0.16000 0.49270 0.28360 0.41900
C 	C 	0.24050 0.57030 0.24770 -0.04400
C 	C 	0.31190 0.63640 0.16420 0.32200
C 	C 	0.31980 0.65160 0.09830 -0.81900
C 	C 	0.35010 0.64410 0.26180 -0.08600
C 	C 	0.41940 0.68500 0.32030 0.42500
C 	C 	0.49290 0.38530 0.45150 0.42900
C 	C 	0.55090 0.36950 0.39360 -0.03000
C 	C 	0.53550 0.34950 0.29370 0.37100
C 	C 	0.47600 0.34160 0.23090 -0.90100
C 	C 	0.67380 0.35010 0.37700 -0.08100
C 	C 	0.80620 0.34790 0.41270 0.44300
N 	N 	0.89280 0.81710 0.70940 -0.25400
N 	N 	0.72230 0.93340 0.68650 -0.24700
N 	N 	0.16320 0.16150 0.81530 -0.25700
N 	N 	0.96820 0.13120 0.84080 -0.25300
N 	N 	0.60720 0.31710 0.79060 -0.25400
N 	N 	0.77770 0.43340 0.81350 -0.24700
N 	N 	0.33680 0.66150 0.68470 -0.25900
N 	N 	0.53180 0.63120 0.65920 -0.26100
N 	N 	0.10720 0.18290 0.29060 -0.25400
N 	N 	0.27770 0.06660 0.31350 -0.24700
N 	N 	0.83680 0.83850 0.18470 -0.25700
N 	N 	0.03180 0.86880 0.15920 -0.25300
N 	N 	0.39280 0.68290 0.20940 -0.25400
N 	N 	0.22230 0.56660 0.18650 -0.24700
N 	N 	0.66320 0.33850 0.31530 -0.25900
N 	N 	0.46820 0.36880 0.34080 -0.26100
O 	O 	0.34130 0.38820 0.81580 -0.42900
O 	O 	0.22830 0.55730 0.80070 -0.41900
O 	O 	0.23080 0.30590 0.70900 -0.43400
O 	O 	0.13300 0.47920 0.68960 -0.42900
O 	O 	0.57230 0.06210 0.75180 -0.48300
O 	O 	0.68630 0.01540 0.83980 -0.52200
O 	O 	0.87570 0.84030 0.86890 -0.51000
O 	O 	0.02450 0.75810 0.81760 -0.44800
O 	O 	0.06140 0.13410 0.00150 -0.48300
O 	O 	0.87460 0.08860 0.94560 -0.49200
O 	O 	0.32030 0.12790 0.96780 -0.56200
O 	O 	0.40230 0.17740 0.88380 -0.51500
O 	O 	0.15870 0.88820 0.68420 -0.42900
O 	O 	0.27170 0.05730 0.69930 -0.41900
O 	O 	0.26920 0.80590 0.79100 -0.43400
O 	O 	0.36700 0.97920 0.81040 -0.42900
O 	O 	0.92770 0.56210 0.74820 -0.48300
O 	O 	0.81370 0.51540 0.66020 -0.52400
O 	O 	0.62430 0.34030 0.63110 -0.51100
O 	O 	0.47550 0.25810 0.68240 -0.44900
O 	O 	0.43860 0.63410 0.49850 -0.47700
O 	O 	0.62540 0.58860 0.55440 -0.49300
O 	O 	0.17970 0.62790 0.53220 -0.56500
O 	O 	0.09770 0.67740 0.61620 -0.51500
O 	O 	0.65870 0.61180 0.18420 -0.42900
O 	O 	0.77170 0.44270 0.19930 -0.41900
O 	O 	0.76920 0.69410 0.29100 -0.43400
O 	O 	0.86700 0.52080 0.31040 -0.42900
O 	O 	0.42770 0.93790 0.24820 -0.48300
O 	O 	0.31370 0.98460 0.16020 -0.52200
O 	O 	0.12430 0.15970 0.13110 -0.51000
O 	O 	0.97550 0.24190 0.18240 -0.44800
O 	O 	0.93860 0.86590 0.99850 -0.48300
O 	O 	0.12540 0.91140 0.05440 -0.49200
O 	O 	0.67970 0.87210 0.03220 -0.56200
O 	O 	0.59770 0.82260 0.11620 -0.51500
O 	O 	0.84130 0.11180 0.31580 -0.42900
O 	O 	0.72830 0.94270 0.30070 -0.41900
O 	O 	0.73080 0.19410 0.20900 -0.43400
O 	O 	0.63300 0.02080 0.18960 -0.42900
O 	O 	0.07230 0.43790 0.25180 -0.48300
O 	O 	0.18630 0.48460 0.33980 -0.52400
O 	O 	0.37570 0.65970 0.36890 -0.51100
O 	O 	0.52450 0.74190 0.31760 -0.44900
O 	O 	0.56140 0.36590 0.50150 -0.47700
O 	O 	0.37460 0.41140 0.44560 -0.49300
O 	O 	0.82030 0.37210 0.46780 -0.56500
O 	O 	0.90230 0.32260 0.38380 -0.51500
