data_crystal

_cell_length_a 10.32460
_cell_length_b 11.33590
_cell_length_c 22.31600
_cell_angle_alpha 90.00000
_cell_angle_beta  97.29000
_cell_angle_gamma 90.00000

_symmetry_space_group_name_	'P 1'
_symmetry_space_group_name_H-M	'P 1'

loop_
_symmetry_equiv_pos_as_xyz
  x,y,z

loop_
_atom_site_label
_atom_site_type_symbol
_atom_site_fract_x
_atom_site_fract_y
_atom_site_fract_z
_atom_site_charge
Nd	Nd	0.89090 0.30963 0.77457 2.26600
Nd	Nd	0.23839 0.58259 0.93550 1.98200
Nd	Nd	0.60910 0.80963 0.72543 2.26400
Nd	Nd	0.26161 0.08259 0.56450 1.98000
Nd	Nd	0.10910 0.69037 0.22543 2.26600
Nd	Nd	0.76161 0.41741 0.06450 1.98200
Nd	Nd	0.39090 0.19037 0.27457 2.26400
Nd	Nd	0.73839 0.91741 0.43550 1.98000
H 	H 	0.38460 0.37670 0.83830 0.13500
H 	H 	0.16370 0.52280 0.66470 0.12800
H 	H 	0.52060 0.28100 0.71020 0.24400
H 	H 	0.38550 0.31660 0.72990 0.24000
H 	H 	0.48030 0.41430 0.71140 0.24800
H 	H 	0.37840 0.58870 0.58560 0.22600
H 	H 	0.23490 0.63690 0.57610 0.23700
H 	H 	0.35230 0.72440 0.59060 0.22400
H 	H 	0.11540 0.87670 0.66170 0.13500
H 	H 	0.33630 0.02280 0.83530 0.12700
H 	H 	0.97940 0.78100 0.78980 0.23800
H 	H 	0.11450 0.81660 0.77010 0.23500
H 	H 	0.01970 0.91430 0.78860 0.24400
H 	H 	0.12160 0.08870 0.91440 0.22500
H 	H 	0.26510 0.13690 0.92390 0.23600
H 	H 	0.14770 0.22440 0.90940 0.22300
H 	H 	0.61540 0.62330 0.16170 0.13500
H 	H 	0.83630 0.47720 0.33530 0.12800
H 	H 	0.47940 0.71900 0.28980 0.24400
H 	H 	0.61450 0.68340 0.27010 0.24000
H 	H 	0.51970 0.58570 0.28860 0.24800
H 	H 	0.62160 0.41130 0.41440 0.22600
H 	H 	0.76510 0.36310 0.42390 0.23700
H 	H 	0.64770 0.27560 0.40940 0.22400
H 	H 	0.88460 0.12330 0.33830 0.13500
H 	H 	0.66370 0.97720 0.16470 0.12700
H 	H 	0.02060 0.21900 0.21020 0.23800
H 	H 	0.88550 0.18340 0.22990 0.23500
H 	H 	0.98030 0.08570 0.21140 0.24400
H 	H 	0.87840 0.91130 0.08560 0.22500
H 	H 	0.73490 0.86310 0.07610 0.23600
H 	H 	0.85230 0.77560 0.09060 0.22300
C 	C 	0.67380 0.35080 0.87670 -0.08800
C 	C 	0.55150 0.37000 0.89380 -0.03700
C 	C 	0.53730 0.34830 0.79530 0.32400
C 	C 	0.80500 0.34890 0.91280 0.45200
C 	C 	0.49390 0.38380 0.95130 0.43600
C 	C 	0.47530 0.33920 0.73090 -0.78700
C 	C 	0.73560 0.54190 0.71500 0.25100
C 	C 	0.79580 0.58790 0.77690 0.26200
C 	C 	0.34720 0.64120 0.76160 -0.09900
C 	C 	0.24200 0.56820 0.74720 -0.04200
C 	C 	0.31240 0.63350 0.66400 0.30000
C 	C 	0.41820 0.68190 0.81960 0.44100
C 	C 	0.16070 0.48960 0.78200 0.43000
C 	C 	0.32020 0.64710 0.59820 -0.75800
C 	C 	0.82620 0.85080 0.62330 -0.08700
C 	C 	0.94850 0.87000 0.60620 -0.04200
C 	C 	0.96270 0.84830 0.70470 0.31700
C 	C 	0.69500 0.84890 0.58720 0.45100
C 	C 	0.00610 0.88380 0.54870 0.44100
C 	C 	0.02470 0.83920 0.76910 -0.77000
C 	C 	0.76440 0.04190 0.78500 0.25200
C 	C 	0.70420 0.08790 0.72310 0.26200
C 	C 	0.15280 0.14120 0.73840 -0.09800
C 	C 	0.25800 0.06820 0.75280 -0.04400
C 	C 	0.18760 0.13350 0.83600 0.29900
C 	C 	0.08180 0.18190 0.68040 0.43900
C 	C 	0.33930 0.98960 0.71800 0.43100
C 	C 	0.17980 0.14710 0.90180 -0.75600
C 	C 	0.32620 0.64920 0.12330 -0.08800
C 	C 	0.44850 0.63000 0.10620 -0.03700
C 	C 	0.46270 0.65170 0.20470 0.32400
C 	C 	0.19500 0.65110 0.08720 0.45200
C 	C 	0.50610 0.61620 0.04870 0.43600
C 	C 	0.52470 0.66080 0.26910 -0.78700
C 	C 	0.26440 0.45810 0.28500 0.25100
C 	C 	0.20420 0.41210 0.22310 0.26200
C 	C 	0.65280 0.35880 0.23840 -0.09900
C 	C 	0.75800 0.43180 0.25280 -0.04200
C 	C 	0.68760 0.36650 0.33600 0.30000
C 	C 	0.58180 0.31810 0.18040 0.44100
C 	C 	0.83930 0.51040 0.21800 0.43000
C 	C 	0.67980 0.35290 0.40180 -0.75800
C 	C 	0.17380 0.14920 0.37670 -0.08700
C 	C 	0.05150 0.13000 0.39380 -0.04200
C 	C 	0.03730 0.15170 0.29530 0.31700
C 	C 	0.30500 0.15110 0.41280 0.45100
C 	C 	0.99390 0.11620 0.45130 0.44100
C 	C 	0.97530 0.16080 0.23090 -0.77000
C 	C 	0.23560 0.95810 0.21500 0.25200
C 	C 	0.29580 0.91210 0.27690 0.26200
C 	C 	0.84720 0.85880 0.26160 -0.09800
C 	C 	0.74200 0.93180 0.24720 -0.04400
C 	C 	0.81240 0.86650 0.16400 0.29900
C 	C 	0.91820 0.81810 0.31960 0.43900
C 	C 	0.66070 0.01040 0.28200 0.43100
C 	C 	0.82020 0.85290 0.09820 -0.75600
N 	N 	0.66290 0.33700 0.81550 -0.26200
N 	N 	0.46780 0.36750 0.84140 -0.24900
N 	N 	0.39050 0.68120 0.70910 -0.26300
N 	N 	0.22290 0.56350 0.68600 -0.24200
N 	N 	0.83710 0.83700 0.68450 -0.26100
N 	N 	0.03220 0.86750 0.65860 -0.24500
N 	N 	0.10950 0.18120 0.79090 -0.26300
N 	N 	0.27710 0.06350 0.81400 -0.24200
N 	N 	0.33710 0.66300 0.18450 -0.26200
N 	N 	0.53220 0.63250 0.15860 -0.24900
N 	N 	0.60950 0.31880 0.29090 -0.26300
N 	N 	0.77710 0.43650 0.31400 -0.24200
N 	N 	0.16290 0.16300 0.31550 -0.26100
N 	N 	0.96780 0.13250 0.34140 -0.24500
N 	N 	0.89050 0.81880 0.20910 -0.26300
N 	N 	0.72290 0.93650 0.18600 -0.24200
O 	O 	0.90010 0.32110 0.88456 -0.53900
O 	O 	0.81980 0.37480 0.96764 -0.59300
O 	O 	0.56270 0.36570 0.00123 -0.49800
O 	O 	0.37550 0.41050 0.94561 -0.51400
O 	O 	0.76810 0.44140 0.69893 -0.43400
O 	O 	0.65780 0.60920 0.68428 -0.44200
O 	O 	0.86830 0.51880 0.80961 -0.45600
O 	O 	0.76890 0.69140 0.79047 -0.45800
O 	O 	0.52190 0.73770 0.81785 -0.47500
O 	O 	0.37510 0.65870 0.86840 -0.53200
O 	O 	0.18540 0.48120 0.83817 -0.54700
O 	O 	0.07360 0.43560 0.75031 -0.50700
O 	O 	0.59990 0.82110 0.61544 -0.53900
O 	O 	0.68020 0.87480 0.53236 -0.59300
O 	O 	0.93730 0.86570 0.49877 -0.50100
O 	O 	0.12450 0.91050 0.55439 -0.51400
O 	O 	0.73190 0.94140 0.80107 -0.43500
O 	O 	0.84220 0.10920 0.81572 -0.44200
O 	O 	0.63170 0.01880 0.69039 -0.45500
O 	O 	0.73110 0.19140 0.70953 -0.45800
O 	O 	0.97810 0.23770 0.68215 -0.47300
O 	O 	0.12490 0.15870 0.63160 -0.53200
O 	O 	0.31460 0.98120 0.66183 -0.54600
O 	O 	0.42640 0.93560 0.74969 -0.50700
O 	O 	0.09990 0.67890 0.11544 -0.53900
O 	O 	0.18020 0.62520 0.03236 -0.59300
O 	O 	0.43730 0.63430 0.99877 -0.49800
O 	O 	0.62450 0.58950 0.05439 -0.51400
O 	O 	0.23190 0.55860 0.30107 -0.43400
O 	O 	0.34220 0.39080 0.31572 -0.44200
O 	O 	0.13170 0.48120 0.19039 -0.45600
O 	O 	0.23110 0.30860 0.20953 -0.45800
O 	O 	0.47810 0.26230 0.18215 -0.47500
O 	O 	0.62490 0.34130 0.13160 -0.53200
O 	O 	0.81460 0.51880 0.16183 -0.54700
O 	O 	0.92640 0.56440 0.24969 -0.50700
O 	O 	0.40010 0.17890 0.38456 -0.53900
O 	O 	0.31980 0.12520 0.46764 -0.59300
O 	O 	0.06270 0.13430 0.50123 -0.50100
O 	O 	0.87550 0.08950 0.44561 -0.51400
O 	O 	0.26810 0.05860 0.19893 -0.43500
O 	O 	0.15780 0.89080 0.18428 -0.44200
O 	O 	0.36830 0.98120 0.30961 -0.45500
O 	O 	0.26890 0.80860 0.29047 -0.45800
O 	O 	0.02190 0.76230 0.31785 -0.47300
O 	O 	0.87510 0.84130 0.36840 -0.53200
O 	O 	0.68540 0.01880 0.33817 -0.54600
O 	O 	0.57360 0.06440 0.25031 -0.50700
