data_crystal

_cell_length_a 10.41600
_cell_length_b 11.44000
_cell_length_c 22.45700
_cell_angle_alpha 90.00000
_cell_angle_beta  97.69500
_cell_angle_gamma 90.00000

_symmetry_space_group_name_	'P 1'
_symmetry_space_group_name_H-M	'P 1'

loop_
_symmetry_equiv_pos_as_xyz
  x,y,z

loop_
_atom_site_label
_atom_site_type_symbol
_atom_site_fract_x
_atom_site_fract_y
_atom_site_fract_z
_atom_site_charge
Ce	Ce	0.39228 0.30702 0.77481 2.14600
Ce	Ce	0.73688 0.58000 0.93495 2.08600
Ce	Ce	0.10772 0.80702 0.72519 2.14400
Ce	Ce	0.76312 0.08000 0.56505 2.08400
Ce	Ce	0.60772 0.69298 0.22519 2.14500
Ce	Ce	0.26312 0.42000 0.06505 2.08500
Ce	Ce	0.89228 0.19298 0.27481 2.14400
Ce	Ce	0.23688 0.92000 0.43495 2.08400
H 	H 	0.88630 0.37560 0.83790 0.13500
H 	H 	0.66360 0.52120 0.66320 0.13200
H 	H 	0.02300 0.28190 0.71050 0.28200
H 	H 	0.88780 0.31020 0.73040 0.27800
H 	H 	0.97620 0.41190 0.71270 0.28800
H 	H 	0.90560 0.63420 0.59070 0.25700
H 	H 	0.76200 0.59150 0.57560 0.26000
H 	H 	0.79170 0.72450 0.58700 0.25900
H 	H 	0.61370 0.87560 0.66210 0.13500
H 	H 	0.83640 0.02120 0.83680 0.13000
H 	H 	0.47700 0.78190 0.78950 0.27700
H 	H 	0.61220 0.81020 0.76960 0.27500
H 	H 	0.52380 0.91190 0.78730 0.28500
H 	H 	0.59440 0.13420 0.90930 0.25600
H 	H 	0.73800 0.09150 0.92440 0.25800
H 	H 	0.70830 0.22450 0.91300 0.25700
H 	H 	0.11370 0.62440 0.16210 0.13500
H 	H 	0.33640 0.47880 0.33680 0.13200
H 	H 	0.97700 0.71810 0.28950 0.28200
H 	H 	0.11220 0.68980 0.26960 0.27800
H 	H 	0.02380 0.58810 0.28730 0.28800
H 	H 	0.09440 0.36580 0.40930 0.25700
H 	H 	0.23800 0.40850 0.42440 0.26000
H 	H 	0.20830 0.27550 0.41300 0.25900
H 	H 	0.38630 0.12440 0.33790 0.13500
H 	H 	0.16360 0.97880 0.16320 0.13000
H 	H 	0.52300 0.21810 0.21050 0.27700
H 	H 	0.38780 0.18980 0.23040 0.27500
H 	H 	0.47620 0.08810 0.21270 0.28500
H 	H 	0.40560 0.86580 0.09070 0.25600
H 	H 	0.26200 0.90850 0.07560 0.25800
H 	H 	0.29170 0.77550 0.08700 0.25700
C 	C 	0.99580 0.38280 0.95125 0.40000
C 	C 	0.05240 0.36870 0.89424 -0.03400
C 	C 	0.17300 0.35020 0.87750 -0.08900
C 	C 	0.30420 0.34830 0.91304 0.41700
C 	C 	0.03730 0.34550 0.79546 0.35000
C 	C 	0.97560 0.33660 0.73153 -0.89500
C 	C 	0.91660 0.67770 0.81930 0.41500
C 	C 	0.84600 0.63790 0.76076 -0.10100
C 	C 	0.74170 0.56430 0.74685 -0.03200
C 	C 	0.66040 0.48730 0.78051 0.37600
C 	C 	0.81090 0.62950 0.66374 0.31500
C 	C 	0.81820 0.64640 0.59844 -0.84300
C 	C 	0.29610 0.58570 0.77676 0.23600
C 	C 	0.23440 0.53970 0.71416 0.22200
C 	C 	0.50420 0.88280 0.54875 0.40300
C 	C 	0.44760 0.86870 0.60576 -0.03600
C 	C 	0.32700 0.85020 0.62250 -0.08900
C 	C 	0.19580 0.84830 0.58696 0.41600
C 	C 	0.46270 0.84550 0.70454 0.34500
C 	C 	0.52440 0.83660 0.76847 -0.88100
C 	C 	0.58340 0.17770 0.68070 0.41000
C 	C 	0.65400 0.13790 0.73924 -0.09900
C 	C 	0.75830 0.06430 0.75315 -0.03700
C 	C 	0.83960 0.98730 0.71949 0.38000
C 	C 	0.68910 0.12950 0.83626 0.31300
C 	C 	0.68180 0.14640 0.90156 -0.84000
C 	C 	0.20390 0.08570 0.72324 0.23500
C 	C 	0.26560 0.03970 0.78584 0.22600
C 	C 	0.00420 0.61720 0.04875 0.40000
C 	C 	0.94760 0.63130 0.10576 -0.03400
C 	C 	0.82700 0.64980 0.12250 -0.08900
C 	C 	0.69580 0.65170 0.08696 0.41700
C 	C 	0.96270 0.65450 0.20454 0.35000
C 	C 	0.02440 0.66340 0.26847 -0.89500
C 	C 	0.08340 0.32230 0.18070 0.41500
C 	C 	0.15400 0.36210 0.23924 -0.10100
C 	C 	0.25830 0.43570 0.25315 -0.03200
C 	C 	0.33960 0.51270 0.21949 0.37600
C 	C 	0.18910 0.37050 0.33626 0.31500
C 	C 	0.18180 0.35360 0.40156 -0.84300
C 	C 	0.70390 0.41430 0.22324 0.23600
C 	C 	0.76560 0.46030 0.28584 0.22200
C 	C 	0.49580 0.11720 0.45125 0.40300
C 	C 	0.55240 0.13130 0.39424 -0.03600
C 	C 	0.67300 0.14980 0.37750 -0.08900
C 	C 	0.80420 0.15170 0.41304 0.41600
C 	C 	0.53730 0.15450 0.29546 0.34500
C 	C 	0.47560 0.16340 0.23153 -0.88100
C 	C 	0.41660 0.82230 0.31930 0.41000
C 	C 	0.34600 0.86210 0.26076 -0.09900
C 	C 	0.24170 0.93570 0.24685 -0.03700
C 	C 	0.16040 0.01270 0.28051 0.38000
C 	C 	0.31090 0.87050 0.16374 0.31300
C 	C 	0.31820 0.85360 0.09844 -0.84000
C 	C 	0.79610 0.91430 0.27676 0.23500
C 	C 	0.73440 0.96030 0.21416 0.22600
N 	N 	0.96880 0.36590 0.84122 -0.24500
N 	N 	0.16210 0.33600 0.81572 -0.25900
N 	N 	0.88870 0.67780 0.70871 -0.26300
N 	N 	0.72260 0.56090 0.68486 -0.24200
N 	N 	0.53120 0.86590 0.65878 -0.24300
N 	N 	0.33790 0.83600 0.68428 -0.25900
N 	N 	0.61130 0.17780 0.79129 -0.26400
N 	N 	0.77740 0.06090 0.81514 -0.24100
N 	N 	0.03120 0.63410 0.15878 -0.24500
N 	N 	0.83790 0.66400 0.18428 -0.25900
N 	N 	0.11130 0.32220 0.29129 -0.26300
N 	N 	0.27740 0.43910 0.31514 -0.24200
N 	N 	0.46880 0.13410 0.34122 -0.24300
N 	N 	0.66210 0.16400 0.31572 -0.25900
N 	N 	0.38870 0.82220 0.20871 -0.26400
N 	N 	0.22260 0.93910 0.18486 -0.24100
O 	O 	0.87680 0.40730 0.94510 -0.51400
O 	O 	0.06330 0.36620 0.00050 -0.50200
O 	O 	0.39800 0.31934 0.88568 -0.51800
O 	O 	0.31920 0.37710 0.96689 -0.59300
O 	O 	0.02060 0.73160 0.81759 -0.45600
O 	O 	0.87090 0.65880 0.86663 -0.53500
O 	O 	0.68510 0.47830 0.83664 -0.54800
O 	O 	0.57380 0.43300 0.74833 -0.47200
O 	O 	0.36880 0.51650 0.80887 -0.43900
O 	O 	0.26980 0.68765 0.79018 -0.43600
O 	O 	0.15680 0.60636 0.68384 -0.42300
O 	O 	0.26710 0.43910 0.69915 -0.41100
O 	O 	0.62320 0.90730 0.55490 -0.51300
O 	O 	0.43670 0.86620 0.49950 -0.50400
O 	O 	0.10200 0.81934 0.61432 -0.52000
O 	O 	0.18080 0.87710 0.53311 -0.59400
O 	O 	0.47940 0.23160 0.68241 -0.45100
O 	O 	0.62910 0.15880 0.63337 -0.53500
O 	O 	0.81490 0.97830 0.66336 -0.54700
O 	O 	0.92620 0.93300 0.75167 -0.47000
O 	O 	0.13120 0.01650 0.69113 -0.43700
O 	O 	0.23020 0.18765 0.70982 -0.43500
O 	O 	0.34320 0.10636 0.81616 -0.42300
O 	O 	0.23290 0.93910 0.80085 -0.41400
O 	O 	0.12320 0.59270 0.05490 -0.51400
O 	O 	0.93670 0.63380 0.99950 -0.50200
O 	O 	0.60200 0.68066 0.11432 -0.51800
O 	O 	0.68080 0.62290 0.03311 -0.59300
O 	O 	0.97940 0.26840 0.18241 -0.45600
O 	O 	0.12910 0.34120 0.13337 -0.53500
O 	O 	0.31490 0.52170 0.16336 -0.54800
O 	O 	0.42620 0.56700 0.25167 -0.47200
O 	O 	0.63120 0.48350 0.19113 -0.43900
O 	O 	0.73020 0.31235 0.20982 -0.43600
O 	O 	0.84320 0.39364 0.31616 -0.42300
O 	O 	0.73290 0.56090 0.30085 -0.41100
O 	O 	0.37680 0.09270 0.44510 -0.51300
O 	O 	0.56330 0.13380 0.50050 -0.50400
O 	O 	0.89800 0.18066 0.38568 -0.52000
O 	O 	0.81920 0.12290 0.46689 -0.59400
O 	O 	0.52060 0.76840 0.31759 -0.45100
O 	O 	0.37090 0.84120 0.36663 -0.53500
O 	O 	0.18510 0.02170 0.33664 -0.54700
O 	O 	0.07380 0.06700 0.24833 -0.47000
O 	O 	0.86880 0.98350 0.30887 -0.43700
O 	O 	0.76980 0.81235 0.29018 -0.43500
O 	O 	0.65680 0.89364 0.18384 -0.42300
O 	O 	0.76710 0.06090 0.19915 -0.41400
