data_crystal

_cell_length_a 10.22890
_cell_length_b 11.25260
_cell_length_c 22.18770
_cell_angle_alpha 90.00000
_cell_angle_beta  96.96700
_cell_angle_gamma 90.00000

_symmetry_space_group_name_	'P 1'
_symmetry_space_group_name_H-M	'P 1'

loop_
_symmetry_equiv_pos_as_xyz
  x,y,z

loop_
_atom_site_label
_atom_site_type_symbol
_atom_site_fract_x
_atom_site_fract_y
_atom_site_fract_z
_atom_site_charge
Eu	Eu	0.75954 0.41311 0.56396 1.74400
Eu	Eu	0.11046 0.68690 0.72557 1.97200
Eu	Eu	0.74046 0.91311 0.93604 1.73700
Eu	Eu	0.38954 0.18690 0.77443 1.97200
Eu	Eu	0.24046 0.58689 0.43604 1.74400
Eu	Eu	0.88954 0.31310 0.27443 1.97200
Eu	Eu	0.25954 0.08689 0.06396 1.73800
Eu	Eu	0.61046 0.81310 0.22557 1.97300
H 	H 	0.83880 0.47100 0.83500 0.13400
H 	H 	0.61700 0.61890 0.66220 0.14000
H 	H 	0.72640 0.41170 0.92400 0.25500
H 	H 	0.58810 0.35130 0.90940 0.26100
H 	H 	0.71630 0.27370 0.91530 0.26600
H 	H 	0.51890 0.57990 0.78890 0.26800
H 	H 	0.61640 0.67790 0.77130 0.25800
H 	H 	0.48040 0.71450 0.79160 0.26500
H 	H 	0.66120 0.97100 0.66500 0.13300
H 	H 	0.88300 0.11890 0.83780 0.13900
H 	H 	0.77360 0.91170 0.57600 0.25400
H 	H 	0.91190 0.85130 0.59060 0.26000
H 	H 	0.78370 0.77370 0.58470 0.26500
H 	H 	0.98110 0.07990 0.71110 0.26400
H 	H 	0.88360 0.17790 0.72870 0.25300
H 	H 	0.01960 0.21450 0.70840 0.25800
H 	H 	0.16120 0.52900 0.16500 0.13400
H 	H 	0.38300 0.38110 0.33780 0.14000
H 	H 	0.27360 0.58830 0.07600 0.25500
H 	H 	0.41190 0.64870 0.09060 0.26100
H 	H 	0.28370 0.72630 0.08470 0.26600
H 	H 	0.48110 0.42010 0.21110 0.26800
H 	H 	0.38360 0.32210 0.22870 0.25800
H 	H 	0.51960 0.28550 0.20840 0.26500
H 	H 	0.33880 0.02900 0.33500 0.13300
H 	H 	0.11700 0.88110 0.16220 0.13900
H 	H 	0.22640 0.08830 0.42400 0.25400
H 	H 	0.08810 0.14870 0.40940 0.26000
H 	H 	0.21630 0.22630 0.41530 0.26500
H 	H 	0.01890 0.92010 0.28890 0.26400
H 	H 	0.11640 0.82210 0.27130 0.25300
H 	H 	0.98040 0.78550 0.29160 0.25800
C 	C 	0.84060 0.50560 0.71620 0.39500
C 	C 	0.75720 0.42820 0.75160 -0.03300
C 	C 	0.65120 0.35420 0.73790 -0.09100
C 	C 	0.57930 0.31390 0.67940 0.42600
C 	C 	0.68650 0.36360 0.83570 0.32400
C 	C 	0.67860 0.34870 0.90200 -0.82800
C 	C 	0.19380 0.65180 0.58747 0.43300
C 	C 	0.32660 0.64800 0.62310 -0.07700
C 	C 	0.44960 0.62900 0.60600 -0.03100
C 	C 	0.50730 0.61460 0.54810 0.42300
C 	C 	0.46340 0.65040 0.70550 0.34000
C 	C 	0.52530 0.65620 0.77010 -0.83100
C 	C 	0.26310 0.45470 0.78510 0.24700
C 	C 	0.20420 0.40890 0.72180 0.25400
C 	C 	0.65940 0.00560 0.78380 0.39700
C 	C 	0.74280 0.92820 0.74840 -0.03600
C 	C 	0.84880 0.85420 0.76210 -0.09100
C 	C 	0.92070 0.81390 0.82060 0.42400
C 	C 	0.81350 0.86360 0.66430 0.32300
C 	C 	0.82140 0.84870 0.59800 -0.82500
C 	C 	0.30620 0.15180 0.91253 0.43200
C 	C 	0.17340 0.14800 0.87690 -0.07400
C 	C 	0.05040 0.12900 0.89400 -0.03700
C 	C 	0.99270 0.11460 0.95190 0.43100
C 	C 	0.03660 0.15040 0.79450 0.33200
C 	C 	0.97470 0.15620 0.72990 -0.81000
C 	C 	0.23690 0.95470 0.71490 0.24700
C 	C 	0.29580 0.90890 0.77820 0.25400
C 	C 	0.15940 0.49440 0.28380 0.39500
C 	C 	0.24280 0.57180 0.24840 -0.03300
C 	C 	0.34880 0.64580 0.26210 -0.09100
C 	C 	0.42070 0.68610 0.32060 0.42600
C 	C 	0.31350 0.63640 0.16430 0.32400
C 	C 	0.32140 0.65130 0.09800 -0.82800
C 	C 	0.80620 0.34820 0.41253 0.43300
C 	C 	0.67340 0.35200 0.37690 -0.07700
C 	C 	0.55040 0.37100 0.39400 -0.03100
C 	C 	0.49270 0.38540 0.45190 0.42300
C 	C 	0.53660 0.34960 0.29450 0.34000
C 	C 	0.47470 0.34380 0.22990 -0.83100
C 	C 	0.73690 0.54530 0.21490 0.24700
C 	C 	0.79580 0.59110 0.27820 0.25400
C 	C 	0.34060 0.99440 0.21620 0.39700
C 	C 	0.25720 0.07180 0.25160 -0.03600
C 	C 	0.15120 0.14580 0.23790 -0.09100
C 	C 	0.07930 0.18610 0.17940 0.42400
C 	C 	0.18650 0.13640 0.33570 0.32300
C 	C 	0.17860 0.15130 0.40200 -0.82500
C 	C 	0.69380 0.84820 0.08747 0.43200
C 	C 	0.82660 0.85200 0.12310 -0.07400
C 	C 	0.94960 0.87100 0.10600 -0.03700
C 	C 	0.00730 0.88540 0.04810 0.43100
C 	C 	0.96340 0.84960 0.20550 0.33200
C 	C 	0.02530 0.84380 0.27010 -0.81000
C 	C 	0.76310 0.04530 0.28510 0.24700
C 	C 	0.70420 0.09110 0.22180 0.25400
N 	N 	0.60660 0.31510 0.79100 -0.24900
N 	N 	0.77760 0.43170 0.81358 -0.25000
N 	N 	0.33620 0.66080 0.68557 -0.25100
N 	N 	0.53320 0.62980 0.65913 -0.25100
N 	N 	0.89340 0.81510 0.70900 -0.24900
N 	N 	0.72240 0.93170 0.68642 -0.24900
N 	N 	0.16380 0.16080 0.81443 -0.25000
N 	N 	0.96680 0.12980 0.84087 -0.24600
N 	N 	0.39340 0.68490 0.20900 -0.24900
N 	N 	0.22240 0.56830 0.18642 -0.25000
N 	N 	0.66380 0.33920 0.31443 -0.25100
N 	N 	0.46680 0.37020 0.34087 -0.25100
N 	N 	0.10660 0.18490 0.29100 -0.24900
N 	N 	0.27760 0.06830 0.31358 -0.24900
N 	N 	0.83620 0.83920 0.18557 -0.25000
N 	N 	0.03320 0.87020 0.15913 -0.24600
O 	O 	0.81370 0.51410 0.65947 -0.50000
O 	O 	0.92850 0.56150 0.74823 -0.46000
O 	O 	0.62170 0.33850 0.63069 -0.49500
O 	O 	0.47630 0.25500 0.68221 -0.43600
O 	O 	0.09760 0.67660 0.61639 -0.49300
O 	O 	0.17960 0.62860 0.53214 -0.54400
O 	O 	0.43980 0.63540 0.49869 -0.46300
O 	O 	0.62690 0.58610 0.55374 -0.48000
O 	O 	0.34040 0.38610 0.81614 -0.41000
O 	O 	0.22890 0.55650 0.80049 -0.40200
O 	O 	0.23150 0.30420 0.70855 -0.41600
O 	O 	0.13260 0.47890 0.68900 -0.41300
O 	O 	0.68630 0.01410 0.84053 -0.49800
O 	O 	0.57150 0.06150 0.75177 -0.46000
O 	O 	0.87830 0.83850 0.86931 -0.49500
O 	O 	0.02370 0.75500 0.81779 -0.43500
O 	O 	0.40240 0.17660 0.88361 -0.49200
O 	O 	0.32040 0.12860 0.96786 -0.54200
O 	O 	0.06020 0.13540 0.00131 -0.46800
O 	O 	0.87310 0.08610 0.94626 -0.47900
O 	O 	0.15960 0.88610 0.68386 -0.40900
O 	O 	0.27110 0.05650 0.69951 -0.40200
O 	O 	0.26850 0.80420 0.79145 -0.41700
O 	O 	0.36740 0.97890 0.81100 -0.41300
O 	O 	0.18630 0.48590 0.34053 -0.50000
O 	O 	0.07150 0.43850 0.25177 -0.46000
O 	O 	0.37830 0.66150 0.36931 -0.49500
O 	O 	0.52370 0.74500 0.31779 -0.43600
O 	O 	0.90240 0.32340 0.38361 -0.49300
O 	O 	0.82040 0.37140 0.46786 -0.54400
O 	O 	0.56020 0.36460 0.50131 -0.46300
O 	O 	0.37310 0.41390 0.44626 -0.48000
O 	O 	0.65960 0.61390 0.18386 -0.41000
O 	O 	0.77110 0.44350 0.19951 -0.40200
O 	O 	0.76850 0.69580 0.29145 -0.41600
O 	O 	0.86740 0.52110 0.31100 -0.41300
O 	O 	0.31370 0.98590 0.15947 -0.49800
O 	O 	0.42850 0.93850 0.24823 -0.46000
O 	O 	0.12170 0.16150 0.13069 -0.49500
O 	O 	0.97630 0.24500 0.18221 -0.43500
O 	O 	0.59760 0.82340 0.11639 -0.49200
O 	O 	0.67960 0.87140 0.03214 -0.54200
O 	O 	0.93980 0.86460 0.99869 -0.46800
O 	O 	0.12690 0.91390 0.05374 -0.47900
O 	O 	0.84040 0.11390 0.31614 -0.40900
O 	O 	0.72890 0.94350 0.30049 -0.40200
O 	O 	0.73150 0.19580 0.20855 -0.41700
O 	O 	0.63260 0.02110 0.18900 -0.41300
