data_crystal

_cell_length_a 11.57500
_cell_length_b 12.63400
_cell_length_c 14.33500
_cell_angle_alpha 101.36900
_cell_angle_beta  102.93500
_cell_angle_gamma 96.45700

_symmetry_space_group_name_	'P 1'
_symmetry_space_group_name_H-M	'P 1'

loop_
_symmetry_equiv_pos_as_xyz
  x,y,z

loop_
_atom_site_label
_atom_site_type_symbol
_atom_site_fract_x
_atom_site_fract_y
_atom_site_fract_z
_atom_site_charge
Cu	Cu	0.90035 0.93702 0.28558 0.92100
Cu	Cu	0.10615 0.95002 0.48356 0.91400
Cu	Cu	0.09965 0.06298 0.71442 0.92000
Cu	Cu	0.89385 0.04998 0.51644 0.91300
H 	H 	0.56160 0.69500 0.46930 0.05100
H 	H 	0.57230 0.59120 0.71380 0.04900
H 	H 	0.25610 0.56560 0.52320 0.04500
H 	H 	0.18060 0.68290 0.23410 0.13200
H 	H 	0.06780 0.61580 0.25100 0.12800
H 	H 	0.94740 0.71330 0.65620 0.13000
H 	H 	0.94670 0.71190 0.54640 0.12400
H 	H 	0.40770 0.33920 0.82100 0.11900
H 	H 	0.30150 0.40570 0.82060 0.12500
H 	H 	0.33640 0.10620 0.52980 -0.02300
H 	H 	0.52760 0.12120 0.60710 0.15800
H 	H 	0.44860 0.84420 0.69400 0.14000
H 	H 	0.25480 0.83220 0.60810 -0.02500
H 	H 	0.68040 0.94660 0.66200 0.18300
H 	H 	0.68610 0.07090 0.70880 0.16900
H 	H 	0.63050 0.90230 0.79950 -0.03200
H 	H 	0.64190 0.02740 0.84650 -0.03500
H 	H 	0.84350 0.92110 0.81070 0.17000
H 	H 	0.85830 0.04930 0.84380 0.16000
H 	H 	0.84450 0.13130 0.01570 0.13900
H 	H 	0.86270 0.11000 0.17220 -0.02100
H 	H 	0.86530 0.80080 0.08970 -0.02400
H 	H 	0.83280 0.81120 0.93030 0.15100
H 	H 	0.17820 0.60340 0.39550 0.12500
H 	H 	0.74690 0.68390 0.50800 0.14600
H 	H 	0.46800 0.43110 0.71840 0.13700
H 	H 	0.43840 0.30500 0.53070 0.05100
H 	H 	0.42770 0.40880 0.28620 0.04900
H 	H 	0.74390 0.43440 0.47680 0.04500
H 	H 	0.81940 0.31710 0.76590 0.13200
H 	H 	0.93220 0.38420 0.74900 0.12800
H 	H 	0.05260 0.28670 0.34380 0.13000
H 	H 	0.05330 0.28810 0.45360 0.12400
H 	H 	0.59230 0.66080 0.17900 0.11900
H 	H 	0.69850 0.59430 0.17940 0.12500
H 	H 	0.66360 0.89380 0.47020 -0.02300
H 	H 	0.47240 0.87880 0.39290 0.15800
H 	H 	0.55140 0.15580 0.30600 0.14000
H 	H 	0.74520 0.16780 0.39190 -0.02500
H 	H 	0.31960 0.05340 0.33800 0.18300
H 	H 	0.31390 0.92910 0.29120 0.16900
H 	H 	0.36950 0.09770 0.20050 -0.03200
H 	H 	0.35810 0.97260 0.15350 -0.03500
H 	H 	0.15650 0.07890 0.18930 0.17000
H 	H 	0.14170 0.95070 0.15620 0.16000
H 	H 	0.15550 0.86870 0.98430 0.13900
H 	H 	0.13730 0.89000 0.82780 -0.02100
H 	H 	0.13470 0.19920 0.91030 -0.02400
H 	H 	0.16720 0.18880 0.06970 0.15100
H 	H 	0.82180 0.39660 0.60450 0.12500
H 	H 	0.25310 0.31610 0.49200 0.14600
H 	H 	0.53200 0.56890 0.28160 0.13700
C 	C 	0.39700 0.63050 0.47820 -0.04800
C 	C 	0.52230 0.66320 0.50930 -0.01600
C 	C 	0.58750 0.64970 0.59640 -0.05500
C 	C 	0.52810 0.60090 0.65430 -0.01000
C 	C 	0.40760 0.56680 0.62770 -0.05700
C 	C 	0.33940 0.58440 0.54020 -0.01400
C 	C 	0.33110 0.64870 0.38070 0.20800
C 	C 	0.13710 0.67240 0.28290 -0.27100
C 	C 	0.09470 0.77680 0.31950 0.43700
C 	C 	0.71780 0.68370 0.63160 0.20700
C 	C 	0.91100 0.73990 0.59930 -0.24000
C 	C 	0.93710 0.86340 0.62440 0.37400
C 	C 	0.33790 0.50780 0.68450 0.22600
C 	C 	0.34340 0.36360 0.77870 -0.23900
C 	C 	0.25660 0.26420 0.71340 0.39600
C 	C 	0.36020 0.05300 0.56310 0.18600
C 	C 	0.47320 0.06200 0.60910 -0.32700
C 	C 	0.51330 0.98760 0.65940 0.29100
C 	C 	0.42640 0.89720 0.66000 -0.28400
C 	C 	0.31110 0.89160 0.60960 0.16400
C 	C 	0.64690 0.99740 0.70450 -0.45500
C 	C 	0.67210 0.97460 0.80300 0.22200
C 	C 	0.81460 0.98090 0.84770 -0.42800
C 	C 	0.83330 0.97300 0.95260 0.29600
C 	C 	0.84580 0.06200 0.02840 -0.29900
C 	C 	0.86030 0.04920 0.12280 0.16500
C 	C 	0.86000 0.86880 0.07480 0.18200
C 	C 	0.84080 0.87450 0.97870 -0.30900
C 	C 	0.60300 0.36950 0.52180 -0.04800
C 	C 	0.47770 0.33680 0.49070 -0.01600
C 	C 	0.41250 0.35030 0.40360 -0.05500
C 	C 	0.47190 0.39910 0.34570 -0.01000
C 	C 	0.59240 0.43320 0.37230 -0.05700
C 	C 	0.66060 0.41560 0.45980 -0.01400
C 	C 	0.66890 0.35130 0.61930 0.20800
C 	C 	0.86290 0.32760 0.71710 -0.27100
C 	C 	0.90530 0.22320 0.68050 0.43700
C 	C 	0.28220 0.31630 0.36840 0.20700
C 	C 	0.08900 0.26010 0.40070 -0.24000
C 	C 	0.06290 0.13660 0.37560 0.37400
C 	C 	0.66210 0.49220 0.31550 0.22600
C 	C 	0.65660 0.63640 0.22130 -0.23900
C 	C 	0.74340 0.73580 0.28660 0.39600
C 	C 	0.63980 0.94700 0.43690 0.18600
C 	C 	0.52680 0.93800 0.39090 -0.32700
C 	C 	0.48670 0.01240 0.34060 0.29100
C 	C 	0.57360 0.10280 0.34000 -0.28400
C 	C 	0.68890 0.10840 0.39040 0.16400
C 	C 	0.35310 0.00260 0.29550 -0.45500
C 	C 	0.32790 0.02540 0.19700 0.22200
C 	C 	0.18540 0.01910 0.15230 -0.42800
C 	C 	0.16670 0.02700 0.04740 0.29600
C 	C 	0.15420 0.93800 0.97160 -0.29900
C 	C 	0.13970 0.95080 0.87720 0.16500
C 	C 	0.14000 0.13120 0.92520 0.18200
C 	C 	0.15920 0.12550 0.02130 -0.30900
N 	N 	0.21310 0.63640 0.35960 -0.17000
N 	N 	0.78240 0.69890 0.56970 -0.18300
N 	N 	0.39640 0.43570 0.72450 -0.18500
N 	N 	0.27510 0.96690 0.56250 -0.25600
N 	N 	0.87120 0.95330 0.14720 -0.25700
N 	N 	0.78690 0.36360 0.64040 -0.17000
N 	N 	0.21760 0.30110 0.43030 -0.18300
N 	N 	0.60360 0.56430 0.27550 -0.18500
N 	N 	0.72490 0.03310 0.43750 -0.25600
N 	N 	0.12880 0.04670 0.85280 -0.25700
O 	O 	0.38940 0.67500 0.32340 -0.23800
O 	O 	0.12500 0.81220 0.40900 -0.43500
O 	O 	0.03350 0.81650 0.25667 -0.39400
O 	O 	0.76820 0.69690 0.72238 -0.22700
O 	O 	0.85740 0.91900 0.60306 -0.37900
O 	O 	0.04850 0.90320 0.66470 -0.43600
O 	O 	0.23950 0.52190 0.69315 -0.22800
O 	O 	0.21900 0.25860 0.62477 -0.27500
O 	O 	0.23080 0.19260 0.75820 -0.39500
O 	O 	0.93170 0.92770 0.42318 -0.49900
O 	O 	0.61060 0.32500 0.67660 -0.23800
O 	O 	0.87500 0.18780 0.59100 -0.43500
O 	O 	0.96650 0.18350 0.74333 -0.39400
O 	O 	0.23180 0.30310 0.27762 -0.22700
O 	O 	0.14260 0.08100 0.39694 -0.37900
O 	O 	0.95150 0.09680 0.33530 -0.43600
O 	O 	0.76050 0.47810 0.30685 -0.22800
O 	O 	0.78100 0.74140 0.37523 -0.27500
O 	O 	0.76920 0.80740 0.24180 -0.39500
O 	O 	0.06830 0.07230 0.57682 -0.49900
