data_crystal

_cell_length_a 11.35020
_cell_length_b 16.15010
_cell_length_c 11.36580
_cell_angle_alpha 90.00000
_cell_angle_beta  101.93500
_cell_angle_gamma 90.00000

_symmetry_space_group_name_	'P 1'
_symmetry_space_group_name_H-M	'P 1'

loop_
_symmetry_equiv_pos_as_xyz
  x,y,z

loop_
_atom_site_label
_atom_site_type_symbol
_atom_site_fract_x
_atom_site_fract_y
_atom_site_fract_z
_atom_site_charge
Cu	Cu	0.37257 0.58984 0.61627 0.89200
O 	O 	0.41844 0.57168 0.45398 -0.36600
O 	O 	0.39478 0.69272 0.52638 -0.38200
O 	O 	0.59236 0.51885 0.31050 -0.42800
N 	N 	0.34169 0.64671 0.76003 -0.23900
C 	C 	0.46269 0.69039 0.34193 -0.05000
C 	C 	0.46270 0.77696 0.34100 -0.01200
H 	H 	0.43740 0.80590 0.40210 0.03700
C 	C 	0.42264 0.64886 0.44416 0.29000
C 	C 	0.33950 0.72946 0.76480 0.06300
H 	H 	0.36220 0.75950 0.70320 0.00700
C 	C 	0.30500 0.77190 0.85720 -0.11900
H 	H 	0.30500 0.82950 0.85750 0.07200
C 	C 	0.27003 0.72836 0.95004 0.05200
C 	C 	0.27520 0.64253 0.94540 -0.11600
H 	H 	0.25470 0.61100 0.00670 0.06700
C 	C 	0.31060 0.60390 0.85030 0.04400
H 	H 	0.31300 0.54640 0.84860 0.01000
Cu	Cu	0.87257 0.08984 0.61627 0.89500
O 	O 	0.91844 0.07168 0.45398 -0.35500
O 	O 	0.89478 0.19272 0.52638 -0.37600
O 	O 	0.09236 0.01885 0.31050 -0.42500
N 	N 	0.84169 0.14671 0.76003 -0.23800
C 	C 	0.96269 0.19039 0.34193 -0.03900
C 	C 	0.96270 0.27696 0.34100 0.03400
H 	H 	0.93740 0.30590 0.40210 0.02800
C 	C 	0.92264 0.14886 0.44416 0.29200
C 	C 	0.83950 0.22946 0.76480 0.06800
H 	H 	0.86220 0.25950 0.70320 0.00900
C 	C 	0.80500 0.27190 0.85720 -0.11900
H 	H 	0.80500 0.32950 0.85750 0.07500
C 	C 	0.77003 0.22836 0.95004 0.05800
C 	C 	0.77520 0.14253 0.94540 -0.12300
H 	H 	0.75470 0.11100 0.00670 0.07500
C 	C 	0.81060 0.10390 0.85030 0.05300
H 	H 	0.81300 0.04640 0.84860 0.00900
Cu	Cu	0.62743 0.58984 0.88373 0.89400
O 	O 	0.58156 0.57168 0.04602 -0.36300
O 	O 	0.60522 0.69272 0.97362 -0.38000
O 	O 	0.40764 0.51885 0.18950 -0.42900
N 	N 	0.65831 0.64671 0.73997 -0.23800
C 	C 	0.53731 0.69039 0.15807 -0.05000
C 	C 	0.53730 0.77696 0.15900 -0.01200
H 	H 	0.56260 0.80590 0.09790 0.03700
C 	C 	0.57736 0.64886 0.05584 0.29100
C 	C 	0.66050 0.72946 0.73520 0.06400
H 	H 	0.63780 0.75950 0.79680 0.00700
C 	C 	0.69500 0.77190 0.64280 -0.11800
H 	H 	0.69500 0.82950 0.64250 0.07300
C 	C 	0.72997 0.72836 0.54996 0.05600
C 	C 	0.72480 0.64253 0.55460 -0.11300
H 	H 	0.74530 0.61100 0.49330 0.07000
C 	C 	0.68940 0.60390 0.64970 0.04600
H 	H 	0.68700 0.54640 0.65140 0.01300
Cu	Cu	0.12743 0.08984 0.88373 0.88900
O 	O 	0.08156 0.07168 0.04602 -0.37000
O 	O 	0.10522 0.19272 0.97362 -0.39000
O 	O 	0.90764 0.01885 0.18950 -0.40400
N 	N 	0.15831 0.14671 0.73997 -0.24100
C 	C 	0.03731 0.19039 0.15807 -0.06300
C 	C 	0.03730 0.27696 0.15900 0.01000
H 	H 	0.06260 0.30590 0.09790 0.02700
C 	C 	0.07736 0.14886 0.05584 0.29700
C 	C 	0.16050 0.22946 0.73520 0.06000
H 	H 	0.13780 0.25950 0.79680 0.00400
C 	C 	0.19500 0.27190 0.64280 -0.12000
H 	H 	0.19500 0.32950 0.64250 0.07000
C 	C 	0.22997 0.22836 0.54996 0.05000
C 	C 	0.22480 0.14253 0.55460 -0.11500
H 	H 	0.24530 0.11100 0.49330 0.06700
C 	C 	0.18940 0.10390 0.64970 0.04000
H 	H 	0.18700 0.04640 0.65140 0.01100
Cu	Cu	0.62743 0.41016 0.38373 0.89400
O 	O 	0.58156 0.42832 0.54602 -0.36400
O 	O 	0.60522 0.30728 0.47362 -0.38000
O 	O 	0.40764 0.48115 0.68950 -0.43000
N 	N 	0.65831 0.35329 0.23997 -0.23800
C 	C 	0.53731 0.30961 0.65807 -0.04900
C 	C 	0.53730 0.22304 0.65900 -0.01200
H 	H 	0.56260 0.19410 0.59790 0.03700
C 	C 	0.57736 0.35114 0.55584 0.29100
C 	C 	0.66050 0.27054 0.23520 0.06400
H 	H 	0.63780 0.24050 0.29680 0.00700
C 	C 	0.69500 0.22810 0.14280 -0.11700
H 	H 	0.69500 0.17050 0.14250 0.07300
C 	C 	0.72997 0.27164 0.04996 0.05600
C 	C 	0.72480 0.35747 0.05460 -0.10700
H 	H 	0.74530 0.38900 0.99330 0.06600
C 	C 	0.68940 0.39610 0.14970 0.04400
H 	H 	0.68700 0.45360 0.15140 0.01400
Cu	Cu	0.12743 0.91016 0.38373 0.89000
O 	O 	0.08156 0.92832 0.54602 -0.37100
O 	O 	0.10522 0.80728 0.47362 -0.38600
O 	O 	0.90764 0.98115 0.68950 -0.40600
N 	N 	0.15831 0.85329 0.23997 -0.24100
C 	C 	0.03731 0.80961 0.65807 -0.06200
C 	C 	0.03730 0.72304 0.65900 0.00900
H 	H 	0.06260 0.69410 0.59790 0.02600
C 	C 	0.07736 0.85114 0.55584 0.29200
C 	C 	0.16050 0.77054 0.23520 0.06000
H 	H 	0.13780 0.74050 0.29680 0.00400
C 	C 	0.19500 0.72810 0.14280 -0.12100
H 	H 	0.19500 0.67050 0.14250 0.07000
C 	C 	0.22997 0.77164 0.04996 0.05100
C 	C 	0.22480 0.85747 0.05460 -0.12000
H 	H 	0.24530 0.88900 0.99330 0.07000
C 	C 	0.18940 0.89610 0.14970 0.04200
H 	H 	0.18700 0.95360 0.15140 0.01000
Cu	Cu	0.37257 0.41016 0.11627 0.89300
O 	O 	0.41844 0.42832 0.95398 -0.36500
O 	O 	0.39478 0.30728 0.02638 -0.37800
O 	O 	0.59236 0.48115 0.81050 -0.42800
N 	N 	0.34169 0.35329 0.26003 -0.23900
C 	C 	0.46269 0.30961 0.84193 -0.04900
C 	C 	0.46270 0.22304 0.84100 -0.01300
H 	H 	0.43740 0.19410 0.90210 0.03700
C 	C 	0.42264 0.35114 0.94416 0.28700
C 	C 	0.33950 0.27054 0.26480 0.06300
H 	H 	0.36220 0.24050 0.20320 0.00700
C 	C 	0.30500 0.22810 0.35720 -0.11900
H 	H 	0.30500 0.17050 0.35750 0.07200
C 	C 	0.27003 0.27164 0.45004 0.05200
C 	C 	0.27520 0.35747 0.44540 -0.11400
H 	H 	0.25470 0.38900 0.50670 0.06600
C 	C 	0.31060 0.39610 0.35030 0.04300
H 	H 	0.31300 0.45360 0.34860 0.01100
Cu	Cu	0.87257 0.91016 0.11627 0.89400
O 	O 	0.91844 0.92832 0.95398 -0.35500
O 	O 	0.89478 0.80728 0.02638 -0.37800
O 	O 	0.09236 0.98115 0.81050 -0.42500
N 	N 	0.84169 0.85329 0.26003 -0.23700
C 	C 	0.96269 0.80961 0.84193 -0.04000
C 	C 	0.96270 0.72304 0.84100 0.03400
H 	H 	0.93740 0.69410 0.90210 0.02800
C 	C 	0.92264 0.85114 0.94416 0.29300
C 	C 	0.83950 0.77054 0.26480 0.06700
H 	H 	0.86220 0.74050 0.20320 0.01000
C 	C 	0.80500 0.72810 0.35720 -0.11700
H 	H 	0.80500 0.67050 0.35750 0.07500
C 	C 	0.77003 0.77164 0.45004 0.05600
C 	C 	0.77520 0.85747 0.44540 -0.11200
H 	H 	0.75470 0.88900 0.50670 0.06900
C 	C 	0.81060 0.89610 0.35030 0.04700
H 	H 	0.81300 0.95360 0.34860 0.01200
C 	C 	0.50000 0.55214 0.25000 0.39400
C 	C 	0.50000 0.64611 0.25000 -0.04100
C 	C 	0.50000 0.81980 0.25000 -0.05700
H 	H 	0.50000 0.87740 0.25000 0.03900
C 	C 	-0.00000 0.05214 0.25000 0.36500
C 	C 	-0.00000 0.14611 0.25000 -0.05300
C 	C 	-0.00000 0.31980 0.25000 -0.11100
H 	H 	-0.00000 0.37740 0.25000 0.05100
C 	C 	0.50000 0.44786 0.75000 0.39400
C 	C 	0.50000 0.35389 0.75000 -0.04200
C 	C 	0.50000 0.18020 0.75000 -0.05700
H 	H 	0.50000 0.12260 0.75000 0.03900
C 	C 	-0.00000 0.94786 0.75000 0.36600
C 	C 	-0.00000 0.85389 0.75000 -0.05300
C 	C 	-0.00000 0.68020 0.75000 -0.11000
H 	H 	-0.00000 0.62260 0.75000 0.05000
