data_crystal

_cell_length_a 11.92100
_cell_length_b 12.52700
_cell_length_c 12.55200
_cell_angle_alpha 90.00000
_cell_angle_beta  98.87000
_cell_angle_gamma 90.00000

_symmetry_space_group_name_	'P 1'
_symmetry_space_group_name_H-M	'P 1'

loop_
_symmetry_equiv_pos_as_xyz
  x,y,z

loop_
_atom_site_label
_atom_site_type_symbol
_atom_site_fract_x
_atom_site_fract_y
_atom_site_fract_z
_atom_site_charge
C 	C 	0.48420 0.33900 0.49020 -0.00600
C 	C 	0.38870 0.37460 0.53090 -0.20300
H 	H 	0.32660 0.40170 0.48500 0.11100
C 	C 	0.38750 0.36900 0.64070 0.25900
C 	C 	0.48210 0.33330 0.71140 -0.32200
H 	H 	0.48040 0.32890 0.78510 0.15200
C 	C 	0.57880 0.30440 0.66910 0.26500
C 	C 	0.57970 0.30390 0.55960 -0.20300
H 	H 	0.64340 0.28030 0.53210 0.11500
C 	C 	0.48700 0.34120 0.37250 0.43100
C 	C 	0.27950 0.38070 0.78450 0.06700
H 	H 	0.30320 0.30720 0.80300 0.02200
C 	C 	0.35560 0.45700 0.86100 0.45100
C 	C 	0.15550 0.39240 0.79750 -0.49300
H 	H 	0.11060 0.34240 0.75110 0.18400
H 	H 	0.13040 0.46370 0.77840 0.15300
H 	H 	0.14700 0.37850 0.87100 0.17000
C 	C 	0.69140 0.29500 0.84420 0.08900
H 	H 	0.65990 0.36560 0.85520 0.01000
C 	C 	0.63210 0.21340 0.90640 0.42700
C 	C 	0.81850 0.29830 0.88350 -0.52600
H 	H 	0.85280 0.35140 0.84370 0.19600
H 	H 	0.85100 0.22980 0.87270 0.18900
H 	H 	0.83200 0.31580 0.95880 0.17100
C 	C 	0.02080 0.54650 0.09000 0.07300
C 	C 	0.96210 0.54870 0.98770 -0.24700
H 	H 	0.99930 0.53480 0.92930 0.11600
C 	C 	0.84630 0.57170 0.97100 0.29500
C 	C 	0.79040 0.59120 0.05740 -0.34500
H 	H 	0.71310 0.60630 0.04620 0.15000
C 	C 	0.85070 0.58810 0.16160 0.29600
C 	C 	0.96680 0.56630 0.17900 -0.23400
H 	H 	0.00740 0.56500 0.24840 0.12700
C 	C 	0.14590 0.52000 0.10790 0.26100
C 	C 	0.68710 0.57240 0.24980 0.17000
H 	H 	0.63640 0.61880 0.20130 -0.02000
C 	C 	0.67330 0.45750 0.21010 0.31300
C 	C 	0.65870 0.58110 0.36200 -0.61700
H 	H 	0.67500 0.65210 0.38880 0.22500
H 	H 	0.70350 0.53080 0.40810 0.21500
H 	H 	0.57960 0.56600 0.36080 0.20100
C 	C 	0.68170 0.59990 0.83640 0.16600
H 	H 	0.63410 0.55350 0.87360 -0.02400
C 	C 	0.66230 0.71590 0.86420 0.30000
C 	C 	0.65110 0.58510 0.71590 -0.59400
H 	H 	0.66210 0.51180 0.69780 0.21500
H 	H 	0.69870 0.62980 0.67970 0.20500
H 	H 	0.57300 0.60430 0.69370 0.18900
O 	O 	0.56350 0.28610 0.33830 -0.52100
O 	O 	0.41630 0.39760 0.31450 -0.54300
O 	O 	0.28800 0.39810 0.67580 -0.27000
O 	O 	0.37900 0.54450 0.82620 -0.56900
O 	O 	0.38940 0.42080 0.95420 -0.55800
O 	O 	0.67810 0.27490 0.73250 -0.26300
O 	O 	0.62570 0.23770 0.00170 -0.55800
O 	O 	0.59270 0.12870 0.85970 -0.50400
O 	O 	0.19570 0.49670 0.19980 -0.41600
O 	O 	0.19770 0.52170 0.02760 -0.45200
O 	O 	0.79700 0.57000 0.86450 -0.28700
O 	O 	0.74330 0.78080 0.87640 -0.42400
O 	O 	0.56160 0.74560 0.87050 -0.56400
O 	O 	0.80190 0.60590 0.25150 -0.28300
O 	O 	0.75030 0.39150 0.23360 -0.45400
O 	O 	0.57700 0.43170 0.15620 -0.57500
O 	O 	0.76230 0.16560 0.35080 -0.85000
H 	H 	0.77010 0.10890 0.31480 0.29500
H 	H 	0.80300 0.16080 0.41270 0.37000
Sm	Sm	0.37249 0.44591 0.13211 2.22200
Sm	Sm	0.64169 0.22916 0.18787 2.13200
C 	C 	0.51580 0.83900 0.50980 -0.01200
C 	C 	0.61130 0.87460 0.46910 -0.20700
H 	H 	0.67340 0.90170 0.51500 0.10400
C 	C 	0.61250 0.86900 0.35930 0.25600
C 	C 	0.51790 0.83330 0.28860 -0.32700
H 	H 	0.51960 0.82890 0.21490 0.15000
C 	C 	0.42120 0.80440 0.33090 0.25700
C 	C 	0.42030 0.80390 0.44040 -0.20800
H 	H 	0.35660 0.78030 0.46790 0.10800
C 	C 	0.51300 0.84120 0.62750 0.42300
C 	C 	0.72050 0.88070 0.21550 0.07800
H 	H 	0.69680 0.80720 0.19700 0.02000
C 	C 	0.64440 0.95700 0.13900 0.38200
C 	C 	0.84450 0.89240 0.20250 -0.48200
H 	H 	0.88940 0.84240 0.24890 0.17600
H 	H 	0.86960 0.96370 0.22160 0.13200
H 	H 	0.85300 0.87850 0.12900 0.15900
C 	C 	0.30860 0.79500 0.15580 0.07500
H 	H 	0.34010 0.86560 0.14480 0.00200
C 	C 	0.36790 0.71340 0.09360 0.43600
C 	C 	0.18150 0.79830 0.11650 -0.49500
H 	H 	0.14720 0.85140 0.15630 0.17300
H 	H 	0.14900 0.72980 0.12730 0.17500
H 	H 	0.16800 0.81580 0.04120 0.15100
C 	C 	0.97920 0.04650 0.91000 0.07800
C 	C 	0.03790 0.04870 0.01230 -0.24800
H 	H 	0.00070 0.03480 0.07070 0.12700
C 	C 	0.15370 0.07170 0.02900 0.30400
C 	C 	0.20960 0.09120 0.94260 -0.34500
H 	H 	0.28690 0.10630 0.95380 0.15900
C 	C 	0.14930 0.08810 0.83840 0.31600
C 	C 	0.03320 0.06630 0.82100 -0.23700
H 	H 	0.99260 0.06500 0.75160 0.14300
C 	C 	0.85410 0.02000 0.89210 0.32200
C 	C 	0.31290 0.07240 0.75020 0.27600
H 	H 	0.36360 0.11880 0.79870 -0.04500
C 	C 	0.32670 0.95750 0.78990 0.23400
C 	C 	0.34130 0.08110 0.63800 -0.74500
H 	H 	0.32500 0.15210 0.61120 0.26500
H 	H 	0.29650 0.03080 0.59190 0.26900
H 	H 	0.42040 0.06600 0.63920 0.25500
C 	C 	0.31830 0.09990 0.16360 0.17600
H 	H 	0.36590 0.05350 0.12640 -0.01500
C 	C 	0.33770 0.21590 0.13580 0.29700
C 	C 	0.34890 0.08510 0.28410 -0.62500
H 	H 	0.33790 0.01180 0.30220 0.24200
H 	H 	0.30130 0.12980 0.32030 0.21900
H 	H 	0.42700 0.10430 0.30630 0.20400
O 	O 	0.43650 0.78610 0.66170 -0.52200
O 	O 	0.58370 0.89760 0.68550 -0.54300
O 	O 	0.71200 0.89810 0.32420 -0.28400
O 	O 	0.62100 0.04450 0.17380 -0.51500
O 	O 	0.61060 0.92080 0.04580 -0.54300
O 	O 	0.32190 0.77490 0.26750 -0.26900
O 	O 	0.37430 0.73770 0.99830 -0.56500
O 	O 	0.40730 0.62870 0.14030 -0.53600
O 	O 	0.80430 0.99670 0.80020 -0.46900
O 	O 	0.80230 0.02170 0.97240 -0.43200
O 	O 	0.20300 0.07000 0.13550 -0.27900
O 	O 	0.25670 0.28080 0.12360 -0.42500
O 	O 	0.43840 0.24560 0.12950 -0.56800
O 	O 	0.19810 0.10590 0.74850 -0.29800
O 	O 	0.24970 0.89150 0.76640 -0.45200
O 	O 	0.42300 0.93170 0.84380 -0.56300
O 	O 	0.23770 0.66560 0.64920 -0.84500
H 	H 	0.22990 0.60890 0.68520 0.28000
H 	H 	0.19700 0.66080 0.58730 0.35600
Sm	Sm	0.62751 0.94591 0.86789 2.12600
Sm	Sm	0.35831 0.72916 0.81213 2.12100
