data_crystal

_cell_length_a 12.86500
_cell_length_b 24.16200
_cell_length_c 12.36800
_cell_angle_alpha 90.00000
_cell_angle_beta  90.00000
_cell_angle_gamma 90.00000

_symmetry_space_group_name_	'P 1'
_symmetry_space_group_name_H-M	'P 1'

loop_
_symmetry_equiv_pos_as_xyz
  x,y,z

loop_
_atom_site_label
_atom_site_type_symbol
_atom_site_fract_x
_atom_site_fract_y
_atom_site_fract_z
_atom_site_charge
C 	C 	0.72220 0.32990 0.50970 0.27600
C 	C 	0.70030 0.27260 0.51600 -0.22200
H 	H 	0.69520 0.25490 0.58260 0.09900
C 	C 	0.68670 0.24340 0.42070 0.06000
C 	C 	0.69130 0.26950 0.32050 -0.22900
H 	H 	0.68110 0.24940 0.25720 0.11800
C 	C 	0.71150 0.32680 0.31620 0.26800
C 	C 	0.72870 0.35670 0.41040 -0.32300
H 	H 	0.74440 0.39420 0.40710 0.14200
C 	C 	0.76300 0.41180 0.61290 0.13200
H 	H 	0.71490 0.43410 0.56960 -0.01400
C 	C 	0.87290 0.41930 0.56970 0.34700
C 	C 	0.75560 0.42930 0.72890 -0.54900
H 	H 	0.80900 0.41120 0.77000 0.18700
H 	H 	0.68870 0.41920 0.75710 0.20000
H 	H 	0.76440 0.46860 0.73400 0.17200
C 	C 	0.72390 0.40640 0.20000 0.02600
H 	H 	0.78820 0.41870 0.23500 0.02700
C 	C 	0.63390 0.43730 0.24680 0.49500
C 	C 	0.73190 0.41650 0.07970 -0.42900
H 	H 	0.67300 0.40030 0.04400 0.14200
H 	H 	0.79450 0.39990 0.05260 0.16100
H 	H 	0.73320 0.45560 0.06610 0.13500
C 	C 	0.66090 0.18290 0.42530 0.26900
C 	C 	0.52670 0.54760 0.74200 0.22600
C 	C 	0.52660 0.54750 0.85460 -0.14200
H 	H 	0.54440 0.57940 0.89250 0.06600
C 	C 	0.54760 0.60390 0.58220 0.06200
H 	H 	0.48180 0.58840 0.55600 0.01600
C 	C 	0.63900 0.57520 0.52180 0.47600
C 	C 	0.54880 0.66600 0.56030 -0.47100
H 	H 	0.61180 0.68170 0.58840 0.16900
H 	H 	0.49010 0.68300 0.59500 0.17700
H 	H 	0.54520 0.67240 0.48380 0.14400
C 	C 	0.98720 0.54850 0.06850 0.23600
C 	C 	0.98480 0.54940 0.95680 -0.16600
H 	H 	0.97330 0.58230 0.91970 0.09200
C 	C 	0.98520 0.60390 0.23020 -0.01700
H 	H 	0.04940 0.58540 0.25290 0.03300
C 	C 	0.89500 0.57820 0.28550 0.55200
C 	C 	0.99170 0.66490 0.25660 -0.35400
H 	H 	0.92750 0.68260 0.23720 0.12900
H 	H 	0.04780 0.68130 0.21660 0.13500
H 	H 	0.00390 0.66950 0.33260 0.11800
Nd	Nd	0.89729 0.56812 0.56045 2.43900
Nd	Nd	0.37584 0.41814 0.23116 2.32100
O 	O 	0.71310 0.34820 0.21390 -0.26600
O 	O 	0.55550 0.41320 0.27110 -0.60000
O 	O 	0.65320 0.48920 0.25500 -0.59000
O 	O 	0.73190 0.35480 0.60800 -0.27500
O 	O 	0.90180 0.46759 0.54490 -0.61900
O 	O 	0.93370 0.37974 0.56970 -0.46000
O 	O 	0.66740 0.15861 0.51530 -0.44400
O 	O 	0.63820 0.15710 0.34130 -0.44100
O 	O 	0.55290 0.59700 0.69580 -0.25300
O 	O 	0.71430 0.55960 0.57730 -0.57000
O 	O 	0.62980 0.57240 0.42320 -0.56400
O 	O 	0.54300 0.53930 0.07730 -0.60900
O 	O 	0.97500 0.60040 0.11560 -0.24300
O 	O 	0.91360 0.55830 0.37680 -0.62300
O 	O 	0.81120 0.57800 0.24260 -0.57900
O 	O 	0.95370 0.53940 0.73240 -0.57700
O 	O 	0.31030 0.32920 0.30760 -0.85700
H 	H 	0.27940 0.30040 0.33020 0.36400
H 	H 	0.37300 0.32760 0.32890 0.24700
C 	C 	0.27780 0.67010 0.50970 0.27400
C 	C 	0.29970 0.72740 0.51600 -0.22300
H 	H 	0.30480 0.74510 0.58260 0.09700
C 	C 	0.31330 0.75660 0.42070 0.05800
C 	C 	0.30870 0.73050 0.32050 -0.22900
H 	H 	0.31890 0.75060 0.25720 0.11700
C 	C 	0.28850 0.67320 0.31620 0.26800
C 	C 	0.27130 0.64330 0.41040 -0.32300
H 	H 	0.25560 0.60580 0.40710 0.14200
C 	C 	0.23700 0.58820 0.61290 0.12800
H 	H 	0.28510 0.56590 0.56960 -0.01300
C 	C 	0.12710 0.58070 0.56970 0.34800
C 	C 	0.24440 0.57070 0.72890 -0.54100
H 	H 	0.19100 0.58880 0.77000 0.18200
H 	H 	0.31130 0.58080 0.75710 0.19700
H 	H 	0.23560 0.53140 0.73400 0.16800
C 	C 	0.27610 0.59360 0.20000 0.02500
H 	H 	0.21180 0.58130 0.23500 0.02600
C 	C 	0.36610 0.56270 0.24680 0.49500
C 	C 	0.26810 0.58350 0.07970 -0.42600
H 	H 	0.32700 0.59970 0.04400 0.14100
H 	H 	0.20550 0.60010 0.05260 0.15800
H 	H 	0.26680 0.54440 0.06610 0.13400
C 	C 	0.33910 0.81710 0.42530 0.26900
C 	C 	0.47330 0.45240 0.74200 0.22600
C 	C 	0.47340 0.45250 0.85460 -0.14200
H 	H 	0.45560 0.42060 0.89250 0.06600
C 	C 	0.45240 0.39610 0.58220 0.06300
H 	H 	0.51820 0.41160 0.55600 0.01500
C 	C 	0.36100 0.42480 0.52180 0.47400
C 	C 	0.45120 0.33400 0.56030 -0.47200
H 	H 	0.38820 0.31830 0.58840 0.17000
H 	H 	0.50990 0.31700 0.59500 0.17700
H 	H 	0.45480 0.32760 0.48380 0.14500
C 	C 	0.01280 0.45150 0.06850 0.23700
C 	C 	0.01520 0.45060 0.95680 -0.18200
H 	H 	0.02670 0.41770 0.91970 0.09400
C 	C 	0.01480 0.39610 0.23020 0.01300
H 	H 	0.95060 0.41460 0.25290 0.03200
C 	C 	0.10500 0.42180 0.28550 0.53800
C 	C 	0.00830 0.33510 0.25660 -0.48800
H 	H 	0.07250 0.31740 0.23720 0.16600
H 	H 	0.95220 0.31870 0.21660 0.18300
H 	H 	0.99610 0.33050 0.33260 0.16800
Nd	Nd	0.10271 0.43188 0.56045 2.41800
Nd	Nd	0.62416 0.58186 0.23116 2.32300
O 	O 	0.28690 0.65180 0.21390 -0.26500
O 	O 	0.44450 0.58680 0.27110 -0.60000
O 	O 	0.34680 0.51080 0.25500 -0.59000
O 	O 	0.26810 0.64520 0.60800 -0.27500
O 	O 	0.09820 0.53241 0.54490 -0.62300
O 	O 	0.06630 0.62026 0.56970 -0.46900
O 	O 	0.33260 0.84139 0.51530 -0.44600
O 	O 	0.36180 0.84290 0.34130 -0.44300
O 	O 	0.44710 0.40300 0.69580 -0.25300
O 	O 	0.28570 0.44040 0.57730 -0.56700
O 	O 	0.37020 0.42760 0.42320 -0.56300
O 	O 	0.45700 0.46070 0.07730 -0.60800
O 	O 	0.02500 0.39960 0.11560 -0.25300
O 	O 	0.08640 0.44170 0.37680 -0.62200
O 	O 	0.18880 0.42200 0.24260 -0.57500
O 	O 	0.04630 0.46060 0.73240 -0.58300
O 	O 	0.68970 0.67080 0.30760 -0.85700
H 	H 	0.72060 0.69960 0.33020 0.36500
H 	H 	0.62700 0.67240 0.32890 0.24600
C 	C 	0.77780 0.82990 0.49030 0.27600
C 	C 	0.79970 0.77260 0.48400 -0.22400
H 	H 	0.80480 0.75490 0.41740 0.09900
C 	C 	0.81330 0.74340 0.57930 0.06000
C 	C 	0.80870 0.76950 0.67950 -0.23000
H 	H 	0.81890 0.74940 0.74280 0.11800
C 	C 	0.78850 0.82680 0.68380 0.27000
C 	C 	0.77130 0.85670 0.58960 -0.32400
H 	H 	0.75560 0.89420 0.59290 0.14400
C 	C 	0.73700 0.91180 0.38710 0.13600
H 	H 	0.78510 0.93410 0.43040 -0.01200
C 	C 	0.62710 0.91930 0.43030 0.34400
C 	C 	0.74440 0.92930 0.27110 -0.55800
H 	H 	0.69100 0.91120 0.23000 0.18900
H 	H 	0.81130 0.91920 0.24290 0.20500
H 	H 	0.73560 0.96860 0.26600 0.17800
C 	C 	0.77610 0.90640 0.80000 0.03400
H 	H 	0.71180 0.91870 0.76500 0.02500
C 	C 	0.86610 0.93730 0.75320 0.49100
C 	C 	0.76810 0.91650 0.92030 -0.44300
H 	H 	0.82700 0.90030 0.95600 0.15000
H 	H 	0.70550 0.89990 0.94740 0.16600
H 	H 	0.76680 0.95560 0.93390 0.14400
C 	C 	0.83910 0.68290 0.57470 0.26900
C 	C 	0.97330 0.04760 0.25800 0.23500
C 	C 	0.97340 0.04750 0.14540 -0.14300
H 	H 	0.95560 0.07940 0.10750 0.06700
C 	C 	0.95240 0.10390 0.41780 0.06600
H 	H 	0.01820 0.08840 0.44400 0.01000
C 	C 	0.86100 0.07520 0.47820 0.47400
C 	C 	0.95120 0.16600 0.43970 -0.45300
H 	H 	0.88820 0.18170 0.41160 0.16500
H 	H 	0.00990 0.18300 0.40500 0.16700
H 	H 	0.95480 0.17240 0.51620 0.14100
C 	C 	0.51280 0.04850 0.93150 0.24100
C 	C 	0.51520 0.04940 0.04320 -0.18400
H 	H 	0.52670 0.08230 0.08030 0.09500
C 	C 	0.51480 0.10390 0.76980 0.00200
H 	H 	0.45060 0.08540 0.74710 0.03000
C 	C 	0.60500 0.07820 0.71450 0.54200
C 	C 	0.50830 0.16490 0.74340 -0.43100
H 	H 	0.57250 0.18260 0.76280 0.15100
H 	H 	0.45220 0.18130 0.78340 0.16300
H 	H 	0.49610 0.16950 0.66740 0.14700
Nd	Nd	0.60271 0.06812 0.43955 2.41500
Nd	Nd	0.12416 0.91814 0.76884 2.31800
O 	O 	0.78690 0.84820 0.78610 -0.26700
O 	O 	0.94450 0.91320 0.72890 -0.59200
O 	O 	0.84680 0.98920 0.74500 -0.57900
O 	O 	0.76810 0.85480 0.39200 -0.27600
O 	O 	0.59820 0.96759 0.45510 -0.61400
O 	O 	0.56630 0.87974 0.43030 -0.46400
O 	O 	0.83260 0.65861 0.48470 -0.44400
O 	O 	0.86180 0.65710 0.65870 -0.44100
O 	O 	0.94710 0.09700 0.30420 -0.25500
O 	O 	0.78570 0.05960 0.42270 -0.57000
O 	O 	0.87020 0.07240 0.57680 -0.56400
O 	O 	0.95700 0.03930 0.92270 -0.59900
O 	O 	0.52500 0.10040 0.88440 -0.25000
O 	O 	0.58640 0.05830 0.62320 -0.62400
O 	O 	0.68880 0.07800 0.75740 -0.57800
O 	O 	0.54630 0.03940 0.26760 -0.58200
O 	O 	0.18970 0.82920 0.69240 -0.85600
H 	H 	0.22060 0.80040 0.66980 0.36300
H 	H 	0.12700 0.82760 0.67110 0.24400
C 	C 	0.22220 0.17010 0.49030 0.27300
C 	C 	0.20030 0.22740 0.48400 -0.22200
H 	H 	0.19520 0.24510 0.41740 0.09700
C 	C 	0.18670 0.25660 0.57930 0.05700
C 	C 	0.19130 0.23050 0.67950 -0.22900
H 	H 	0.18110 0.25060 0.74280 0.11600
C 	C 	0.21150 0.17320 0.68380 0.26700
C 	C 	0.22870 0.14330 0.58960 -0.32200
H 	H 	0.24440 0.10580 0.59290 0.14100
C 	C 	0.26300 0.08820 0.38710 0.12600
H 	H 	0.21490 0.06590 0.43040 -0.01400
C 	C 	0.37290 0.08070 0.43030 0.35000
C 	C 	0.25560 0.07070 0.27110 -0.53600
H 	H 	0.30900 0.08880 0.23000 0.18100
H 	H 	0.18870 0.08080 0.24290 0.19500
H 	H 	0.26440 0.03140 0.26600 0.16400
C 	C 	0.22390 0.09360 0.80000 0.02200
H 	H 	0.28820 0.08130 0.76500 0.02700
C 	C 	0.13390 0.06270 0.75320 0.49700
C 	C 	0.23190 0.08350 0.92030 -0.42000
H 	H 	0.17300 0.09970 0.95600 0.13800
H 	H 	0.29450 0.10010 0.94740 0.15700
H 	H 	0.23320 0.04440 0.93390 0.13000
C 	C 	0.16090 0.31710 0.57470 0.26800
C 	C 	0.02670 0.95240 0.25800 0.23700
C 	C 	0.02660 0.95250 0.14540 -0.13800
H 	H 	0.04440 0.92060 0.10750 0.06400
C 	C 	0.04760 0.89610 0.41780 0.06100
H 	H 	0.98180 0.91160 0.44400 0.02400
C 	C 	0.13900 0.92480 0.47820 0.47600
C 	C 	0.04880 0.83400 0.43970 -0.50300
H 	H 	0.11180 0.81830 0.41160 0.17800
H 	H 	0.99010 0.81700 0.40500 0.19300
H 	H 	0.04520 0.82760 0.51620 0.15100
C 	C 	0.48720 0.95150 0.93150 0.25000
C 	C 	0.48480 0.95060 0.04320 -0.17400
H 	H 	0.47330 0.91770 0.08030 0.09300
C 	C 	0.48520 0.89610 0.76980 0.00200
H 	H 	0.54940 0.91460 0.74710 0.03300
C 	C 	0.39500 0.92180 0.71450 0.54400
C 	C 	0.49170 0.83510 0.74340 -0.43000
H 	H 	0.42750 0.81740 0.76280 0.15000
H 	H 	0.54780 0.81870 0.78340 0.16300
H 	H 	0.50390 0.83050 0.66740 0.14600
Nd	Nd	0.39729 0.93188 0.43955 2.43900
Nd	Nd	0.87584 0.08186 0.76884 2.31500
O 	O 	0.21310 0.15180 0.78610 -0.26500
O 	O 	0.05550 0.08680 0.72890 -0.60400
O 	O 	0.15320 0.01080 0.74500 -0.59700
O 	O 	0.23190 0.14520 0.39200 -0.27400
O 	O 	0.40180 0.03241 0.45510 -0.62700
O 	O 	0.43370 0.12026 0.43030 -0.46400
O 	O 	0.16740 0.34139 0.48470 -0.44500
O 	O 	0.13820 0.34290 0.65870 -0.44300
O 	O 	0.05290 0.90300 0.30420 -0.25700
O 	O 	0.21430 0.94040 0.42270 -0.56600
O 	O 	0.12980 0.92760 0.57680 -0.56300
O 	O 	0.04300 0.96070 0.92270 -0.59900
O 	O 	0.47500 0.89960 0.88440 -0.25100
O 	O 	0.41360 0.94170 0.62320 -0.62000
O 	O 	0.31120 0.92200 0.75740 -0.57400
O 	O 	0.45370 0.96060 0.26760 -0.57400
O 	O 	0.81030 0.17080 0.69240 -0.85700
H 	H 	0.77940 0.19960 0.66980 0.36500
H 	H 	0.87300 0.17240 0.67110 0.24800
C 	C 	0.50000 0.50000 0.68480 -0.28200
H 	H 	0.50000 0.50000 0.60970 0.13000
C 	C 	0.50000 0.50000 0.90980 -0.08200
C 	C 	0.50000 0.50000 0.03060 0.52000
C 	C 	0.00000 0.00000 0.31520 -0.30500
H 	H 	0.00000 0.00000 0.39030 0.13200
C 	C 	0.00000 0.00000 0.09020 -0.08900
C 	C 	0.00000 0.00000 0.96940 0.49700
C 	C 	0.00000 0.50000 0.12610 -0.31100
H 	H 	0.00000 0.50000 0.20130 0.13800
C 	C 	0.00000 0.50000 0.90100 -0.04000
C 	C 	0.00000 0.50000 0.78020 0.44200
C 	C 	0.50000 0.00000 0.87390 -0.32400
H 	H 	0.50000 0.00000 0.79870 0.14100
C 	C 	0.50000 0.00000 0.09900 -0.03800
C 	C 	0.50000 0.00000 0.21980 0.43700
