data_crystal

_cell_length_a 11.90000
_cell_length_b 12.49400
_cell_length_c 12.53900
_cell_angle_alpha 90.00000
_cell_angle_beta  98.76000
_cell_angle_gamma 90.00000

_symmetry_space_group_name_	'P 1'
_symmetry_space_group_name_H-M	'P 1'

loop_
_symmetry_equiv_pos_as_xyz
  x,y,z

loop_
_atom_site_label
_atom_site_type_symbol
_atom_site_fract_x
_atom_site_fract_y
_atom_site_fract_z
_atom_site_charge
C 	C 	0.51550 0.65980 0.50950 0.00200
C 	C 	0.61120 0.62580 0.47000 -0.20700
H 	H 	0.67410 0.60040 0.51620 0.11400
C 	C 	0.61160 0.63050 0.35980 0.26500
C 	C 	0.51710 0.66590 0.28940 -0.32700
H 	H 	0.51890 0.66950 0.21560 0.15200
C 	C 	0.42020 0.69560 0.33080 0.26900
C 	C 	0.41940 0.69720 0.44140 -0.20500
H 	H 	0.35660 0.72260 0.46960 0.11600
C 	C 	0.51300 0.65900 0.62870 0.43300
C 	C 	0.72100 0.62020 0.21570 0.06600
H 	H 	0.69750 0.69400 0.19760 0.02200
C 	C 	0.64220 0.54390 0.14110 0.45100
C 	C 	0.84410 0.60820 0.20210 -0.49400
H 	H 	0.88910 0.65990 0.24640 0.18500
H 	H 	0.85190 0.61960 0.12790 0.16900
H 	H 	0.86980 0.53740 0.22340 0.15400
C 	C 	0.30780 0.70430 0.15590 0.09000
H 	H 	0.33900 0.63330 0.14510 0.00900
C 	C 	0.36780 0.78510 0.09510 0.41700
C 	C 	0.18110 0.70210 0.11590 -0.52700
H 	H 	0.14550 0.65050 0.15660 0.19700
H 	H 	0.16810 0.68270 0.04090 0.17100
H 	H 	0.14940 0.77160 0.12470 0.19000
C 	C 	0.97920 0.45400 0.90910 0.08200
C 	C 	0.03750 0.45130 0.01230 -0.24900
H 	H 	0.99970 0.46510 0.07050 0.11600
C 	C 	0.15330 0.42800 0.02980 0.29300
C 	C 	0.21000 0.40930 0.94310 -0.33700
H 	H 	0.28770 0.39510 0.95400 0.14700
C 	C 	0.14800 0.41210 0.83770 0.29700
C 	C 	0.03330 0.43390 0.82080 -0.24700
H 	H 	0.99280 0.43520 0.75130 0.13200
C 	C 	0.85510 0.48100 0.89170 0.24300
C 	C 	0.31320 0.42690 0.75120 0.16100
H 	H 	0.36330 0.37970 0.79940 -0.01800
C 	C 	0.32750 0.54200 0.79130 0.31900
C 	C 	0.34170 0.41920 0.63840 -0.60300
H 	H 	0.32470 0.34840 0.61070 0.22100
H 	H 	0.42120 0.43360 0.63980 0.19600
H 	H 	0.29760 0.47050 0.59290 0.21100
C 	C 	0.31800 0.39990 0.16290 0.14100
H 	H 	0.36580 0.44680 0.12610 -0.01600
C 	C 	0.33810 0.28390 0.13570 0.31900
C 	C 	0.34680 0.41430 0.28510 -0.56200
H 	H 	0.32990 0.48640 0.30390 0.20600
H 	H 	0.42610 0.40020 0.30760 0.18000
H 	H 	0.30230 0.36540 0.32050 0.19500
O 	O 	0.43620 0.71430 0.66230 -0.52600
O 	O 	0.58380 0.60230 0.68640 -0.54700
O 	O 	0.71170 0.60190 0.32540 -0.27100
O 	O 	0.62020 0.45490 0.17440 -0.57400
O 	O 	0.60950 0.57890 0.04670 -0.55800
O 	O 	0.32110 0.72500 0.26740 -0.26400
O 	O 	0.37450 0.76270 0.99800 -0.55800
O 	O 	0.40710 0.87140 0.14030 -0.50100
O 	O 	0.80270 0.50340 0.79940 -0.41200
O 	O 	0.80150 0.47830 0.97300 -0.44600
O 	O 	0.20210 0.42970 0.13590 -0.28200
O 	O 	0.25790 0.21820 0.12300 -0.43700
O 	O 	0.43870 0.25460 0.12950 -0.57700
O 	O 	0.19760 0.39430 0.74830 -0.28100
O 	O 	0.25040 0.60890 0.76850 -0.46000
O 	O 	0.42380 0.56890 0.84450 -0.58600
O 	O 	0.23600 0.83210 0.65030 -0.83700
H 	H 	0.22820 0.88910 0.68640 0.28700
H 	H 	0.19510 0.83690 0.58800 0.36200
Sm	Sm	0.62739 0.55430 0.86846 2.24600
Sm	Sm	0.35887 0.77064 0.81305 2.16100
C 	C 	0.48450 0.15980 0.49050 -0.00700
C 	C 	0.38880 0.12580 0.53000 -0.21200
H 	H 	0.32590 0.10040 0.48380 0.10600
C 	C 	0.38840 0.13050 0.64020 0.26100
C 	C 	0.48290 0.16590 0.71060 -0.33300
H 	H 	0.48110 0.16950 0.78440 0.15100
C 	C 	0.57980 0.19560 0.66920 0.26000
C 	C 	0.58060 0.19720 0.55860 -0.21000
H 	H 	0.64340 0.22260 0.53040 0.10900
C 	C 	0.48700 0.15900 0.37130 0.42600
C 	C 	0.27900 0.12020 0.78430 0.07700
H 	H 	0.30250 0.19400 0.80240 0.01900
C 	C 	0.35780 0.04390 0.85890 0.38100
C 	C 	0.15590 0.10820 0.79790 -0.48200
H 	H 	0.11090 0.15990 0.75360 0.17600
H 	H 	0.14810 0.11960 0.87210 0.15700
H 	H 	0.13020 0.03740 0.77660 0.13300
C 	C 	0.69220 0.20430 0.84410 0.07500
H 	H 	0.66100 0.13330 0.85490 0.00100
C 	C 	0.63220 0.28510 0.90490 0.42600
C 	C 	0.81890 0.20210 0.88410 -0.49400
H 	H 	0.85450 0.15050 0.84340 0.17300
H 	H 	0.83190 0.18270 0.95910 0.15100
H 	H 	0.85060 0.27160 0.87530 0.17600
C 	C 	0.02080 0.95400 0.09090 0.08200
C 	C 	0.96250 0.95130 0.98770 -0.24600
H 	H 	0.00030 0.96510 0.92950 0.12700
C 	C 	0.84670 0.92800 0.97020 0.30000
C 	C 	0.79000 0.90930 0.05690 -0.33400
H 	H 	0.71230 0.89510 0.04600 0.15400
C 	C 	0.85200 0.91210 0.16230 0.31400
C 	C 	0.96670 0.93390 0.17920 -0.24400
H 	H 	0.00720 0.93520 0.24870 0.14500
C 	C 	0.14490 0.98100 0.10830 0.30600
C 	C 	0.68680 0.92690 0.24880 0.26900
H 	H 	0.63670 0.87970 0.20060 -0.04300
C 	C 	0.67250 0.04200 0.20870 0.23700
C 	C 	0.65830 0.91920 0.36160 -0.73200
H 	H 	0.67530 0.84840 0.38930 0.26100
H 	H 	0.57880 0.93360 0.36020 0.25100
H 	H 	0.70240 0.97050 0.40710 0.26600
C 	C 	0.68200 0.89990 0.83710 0.15000
H 	H 	0.63420 0.94680 0.87390 -0.00700
C 	C 	0.66190 0.78390 0.86430 0.31600
C 	C 	0.65320 0.91430 0.71490 -0.59100
H 	H 	0.67010 0.98640 0.69610 0.23300
H 	H 	0.57390 0.90020 0.69240 0.19600
H 	H 	0.69770 0.86540 0.67950 0.20800
O 	O 	0.56380 0.21430 0.33770 -0.52800
O 	O 	0.41620 0.10230 0.31360 -0.54800
O 	O 	0.28830 0.10190 0.67460 -0.28500
O 	O 	0.37980 0.95490 0.82560 -0.51900
O 	O 	0.39050 0.07890 0.95330 -0.54300
O 	O 	0.67890 0.22500 0.73260 -0.27000
O 	O 	0.62550 0.26270 0.00200 -0.56500
O 	O 	0.59290 0.37140 0.85970 -0.53400
O 	O 	0.19730 0.00340 0.20060 -0.46600
O 	O 	0.19850 0.97830 0.02700 -0.42500
O 	O 	0.79790 0.92970 0.86410 -0.27200
O 	O 	0.74210 0.71820 0.87700 -0.43900
O 	O 	0.56130 0.75460 0.87050 -0.58100
O 	O 	0.80240 0.89430 0.25170 -0.29600
O 	O 	0.74960 0.10890 0.23150 -0.45800
O 	O 	0.57620 0.06890 0.15550 -0.57300
O 	O 	0.76400 0.33210 0.34970 -0.83200
H 	H 	0.77180 0.38910 0.31360 0.27200
H 	H 	0.80490 0.33690 0.41200 0.34900
Sm	Sm	0.37261 0.05430 0.13154 2.14700
Sm	Sm	0.64113 0.27064 0.18695 2.15000
