data_crystal

_cell_length_a 11.88800
_cell_length_b 12.47500
_cell_length_c 12.54200
_cell_angle_alpha 90.00000
_cell_angle_beta  98.94000
_cell_angle_gamma 90.00000

_symmetry_space_group_name_	'P 1'
_symmetry_space_group_name_H-M	'P 1'

loop_
_symmetry_equiv_pos_as_xyz
  x,y,z

loop_
_atom_site_label
_atom_site_type_symbol
_atom_site_fract_x
_atom_site_fract_y
_atom_site_fract_z
_atom_site_charge
C 	C 	0.48470 0.33970 0.48980 0.00100
C 	C 	0.38870 0.37430 0.52890 -0.20300
H 	H 	0.32600 0.40020 0.48240 0.11300
C 	C 	0.38770 0.36950 0.64070 0.26400
C 	C 	0.48170 0.33380 0.71110 -0.32600
H 	H 	0.47980 0.33020 0.78490 0.15400
C 	C 	0.57920 0.30350 0.66950 0.26800
C 	C 	0.58010 0.30410 0.55880 -0.20400
H 	H 	0.64410 0.28080 0.53120 0.11700
C 	C 	0.48740 0.34140 0.37030 0.43300
C 	C 	0.27940 0.38020 0.78520 0.07100
H 	H 	0.30320 0.30650 0.80430 0.02200
C 	C 	0.35650 0.45790 0.85910 0.44100
C 	C 	0.15580 0.39250 0.79690 -0.50500
H 	H 	0.11100 0.34160 0.75110 0.18900
H 	H 	0.13090 0.46380 0.77640 0.15800
H 	H 	0.14680 0.37990 0.87060 0.17400
C 	C 	0.69290 0.29530 0.84430 0.11900
H 	H 	0.66150 0.36640 0.85520 0.00200
C 	C 	0.63240 0.21280 0.90700 0.41400
C 	C 	0.81870 0.29810 0.88290 -0.57000
H 	H 	0.85310 0.35160 0.84330 0.21000
H 	H 	0.85100 0.22930 0.87160 0.20400
H 	H 	0.83250 0.31530 0.95840 0.18600
C 	C 	0.02210 0.54650 0.09100 0.06900
C 	C 	0.96300 0.54850 0.98740 -0.23900
H 	H 	0.00030 0.53390 0.92920 0.11300
C 	C 	0.84630 0.57250 0.97020 0.29100
C 	C 	0.79040 0.59120 0.05720 -0.33600
H 	H 	0.71280 0.60600 0.04600 0.14900
C 	C 	0.85170 0.58760 0.16300 0.29400
C 	C 	0.96680 0.56670 0.17970 -0.23700
H 	H 	0.00750 0.56590 0.24940 0.12800
C 	C 	0.14590 0.52040 0.10840 0.25500
C 	C 	0.68650 0.57280 0.24780 0.13400
H 	H 	0.63580 0.61990 0.19960 -0.00700
C 	C 	0.67250 0.45860 0.20910 0.31700
C 	C 	0.65950 0.58140 0.36380 -0.56800
H 	H 	0.67390 0.65320 0.38990 0.21100
H 	H 	0.70690 0.53240 0.40970 0.20200
H 	H 	0.58090 0.56380 0.36410 0.18900
C 	C 	0.68180 0.59940 0.83730 0.15400
H 	H 	0.63390 0.55220 0.87380 -0.01800
C 	C 	0.66130 0.71610 0.86420 0.30400
C 	C 	0.65270 0.58620 0.71460 -0.58300
H 	H 	0.66190 0.51250 0.69580 0.21300
H 	H 	0.70260 0.63010 0.68000 0.20400
H 	H 	0.57520 0.60770 0.69120 0.18800
O 	O 	0.56360 0.28520 0.33750 -0.51000
O 	O 	0.41700 0.39750 0.31330 -0.53300
O 	O 	0.28810 0.39790 0.67480 -0.27100
O 	O 	0.37910 0.54550 0.82630 -0.56000
O 	O 	0.39050 0.42110 0.95390 -0.53300
O 	O 	0.67880 0.27460 0.73240 -0.26900
O 	O 	0.62530 0.23840 0.00150 -0.54100
O 	O 	0.59290 0.12810 0.85990 -0.48900
O 	O 	0.19740 0.49690 0.20030 -0.40300
O 	O 	0.19850 0.52210 0.02770 -0.43800
O 	O 	0.79740 0.57040 0.86450 -0.28500
O 	O 	0.74290 0.78170 0.87730 -0.41600
O 	O 	0.56120 0.74520 0.87100 -0.55000
O 	O 	0.80200 0.60610 0.25150 -0.27500
O 	O 	0.75000 0.39120 0.23220 -0.44200
O 	O 	0.57590 0.43150 0.15600 -0.56100
O 	O 	0.76370 0.16770 0.34980 -0.83800
H 	H 	0.77150 0.11100 0.31380 0.29600
H 	H 	0.80440 0.16290 0.41170 0.36800
Eu	Eu	0.37264 0.44573 0.13151 2.12200
Eu	Eu	0.64118 0.22932 0.18708 2.04100
C 	C 	0.51530 0.83970 0.51020 -0.00500
C 	C 	0.61130 0.87430 0.47110 -0.20600
H 	H 	0.67400 0.90020 0.51760 0.10600
C 	C 	0.61230 0.86950 0.35930 0.26000
C 	C 	0.51830 0.83380 0.28890 -0.33100
H 	H 	0.52020 0.83020 0.21510 0.15200
C 	C 	0.42080 0.80350 0.33050 0.26100
C 	C 	0.41990 0.80410 0.44120 -0.20900
H 	H 	0.35590 0.78080 0.46880 0.11000
C 	C 	0.51260 0.84140 0.62970 0.42600
C 	C 	0.72060 0.88020 0.21480 0.08200
H 	H 	0.69680 0.80650 0.19570 0.01900
C 	C 	0.64350 0.95790 0.14090 0.37200
C 	C 	0.84420 0.89250 0.20310 -0.49500
H 	H 	0.88900 0.84160 0.24890 0.18100
H 	H 	0.86910 0.96380 0.22360 0.13900
H 	H 	0.85320 0.87990 0.12940 0.16300
C 	C 	0.30710 0.79530 0.15570 0.10400
H 	H 	0.33850 0.86640 0.14480 -0.00600
C 	C 	0.36760 0.71280 0.09300 0.42200
C 	C 	0.18130 0.79810 0.11710 -0.53700
H 	H 	0.14690 0.85160 0.15670 0.18700
H 	H 	0.14900 0.72930 0.12840 0.19000
H 	H 	0.16750 0.81530 0.04160 0.16600
C 	C 	0.97790 0.04650 0.90900 0.06800
C 	C 	0.03700 0.04850 0.01260 -0.23500
H 	H 	0.99970 0.03390 0.07080 0.12400
C 	C 	0.15370 0.07250 0.02980 0.29800
C 	C 	0.20960 0.09120 0.94280 -0.33300
H 	H 	0.28720 0.10600 0.95400 0.15500
C 	C 	0.14830 0.08760 0.83700 0.31000
C 	C 	0.03320 0.06670 0.82030 -0.23300
H 	H 	0.99250 0.06590 0.75060 0.14000
C 	C 	0.85410 0.02040 0.89160 0.31500
C 	C 	0.31350 0.07280 0.75220 0.23100
H 	H 	0.36420 0.11990 0.80040 -0.03000
C 	C 	0.32750 0.95860 0.79090 0.24000
C 	C 	0.34050 0.08140 0.63620 -0.67700
H 	H 	0.32610 0.15320 0.61010 0.24500
H 	H 	0.29310 0.03240 0.59030 0.25000
H 	H 	0.41910 0.06380 0.63590 0.23700
C 	C 	0.31820 0.09940 0.16270 0.16300
H 	H 	0.36610 0.05220 0.12620 -0.00900
C 	C 	0.33870 0.21610 0.13580 0.30100
C 	C 	0.34730 0.08620 0.28540 -0.61100
H 	H 	0.33810 0.01250 0.30420 0.23800
H 	H 	0.29740 0.13010 0.32000 0.21700
H 	H 	0.42480 0.10770 0.30880 0.20300
O 	O 	0.43640 0.78520 0.66250 -0.51100
O 	O 	0.58300 0.89750 0.68670 -0.53400
O 	O 	0.71190 0.89790 0.32520 -0.28500
O 	O 	0.62090 0.04550 0.17370 -0.50600
O 	O 	0.60950 0.92110 0.04610 -0.52000
O 	O 	0.32120 0.77460 0.26760 -0.27500
O 	O 	0.37470 0.73840 0.99850 -0.54800
O 	O 	0.40710 0.62810 0.14010 -0.52000
O 	O 	0.80260 0.99690 0.79970 -0.45500
O 	O 	0.80150 0.02210 0.97230 -0.41900
O 	O 	0.20260 0.07040 0.13550 -0.27600
O 	O 	0.25710 0.28170 0.12270 -0.41700
O 	O 	0.43880 0.24520 0.12900 -0.55400
O 	O 	0.19800 0.10610 0.74850 -0.28800
O 	O 	0.25000 0.89120 0.76780 -0.44000
O 	O 	0.42410 0.93150 0.84400 -0.54900
O 	O 	0.23630 0.66770 0.65020 -0.83300
H 	H 	0.22850 0.61100 0.68620 0.28200
H 	H 	0.19560 0.66290 0.58830 0.35500
Eu	Eu	0.62736 0.94573 0.86849 2.03300
Eu	Eu	0.35882 0.72932 0.81292 2.03000
