data_crystal

_cell_length_a 11.87800
_cell_length_b 12.41900
_cell_length_c 12.48900
_cell_angle_alpha 90.00000
_cell_angle_beta  98.63000
_cell_angle_gamma 90.00000

_symmetry_space_group_name_	'P 1'
_symmetry_space_group_name_H-M	'P 1'

loop_
_symmetry_equiv_pos_as_xyz
  x,y,z

loop_
_atom_site_label
_atom_site_type_symbol
_atom_site_fract_x
_atom_site_fract_y
_atom_site_fract_z
_atom_site_charge
C 	C 	0.51790 0.66050 0.51170 0.01400
C 	C 	0.61360 0.62520 0.46990 -0.21700
H 	H 	0.67660 0.59890 0.51560 0.12000
C 	C 	0.61320 0.63000 0.35910 0.27900
C 	C 	0.51940 0.66580 0.28940 -0.34000
H 	H 	0.52090 0.66930 0.21520 0.15900
C 	C 	0.42240 0.69640 0.33230 0.28200
C 	C 	0.42240 0.69790 0.44260 -0.21900
H 	H 	0.35950 0.72360 0.47080 0.12300
C 	C 	0.51510 0.65910 0.63090 0.41500
C 	C 	0.72130 0.61890 0.21310 0.08400
H 	H 	0.69780 0.69320 0.19550 0.01800
C 	C 	0.64350 0.54220 0.13740 0.43200
C 	C 	0.84450 0.60650 0.19860 -0.52700
H 	H 	0.88930 0.66100 0.23960 0.19500
H 	H 	0.85130 0.61400 0.12330 0.18200
H 	H 	0.87140 0.53670 0.22360 0.16700
C 	C 	0.30990 0.70520 0.15720 0.10200
H 	H 	0.34220 0.63410 0.14650 0.00700
C 	C 	0.36940 0.78840 0.09390 0.42200
C 	C 	0.18320 0.70110 0.11840 -0.54900
H 	H 	0.14980 0.64450 0.15550 0.20400
H 	H 	0.16980 0.68740 0.04180 0.18000
H 	H 	0.14940 0.76870 0.13300 0.19900
C 	C 	0.97720 0.45320 0.90740 0.08500
C 	C 	0.03540 0.45010 0.01160 -0.25900
H 	H 	0.99730 0.46280 0.07030 0.12100
C 	C 	0.15070 0.42810 0.02810 0.30900
C 	C 	0.20780 0.41020 0.94000 -0.35300
H 	H 	0.28550 0.39600 0.95100 0.15600
C 	C 	0.14770 0.41380 0.83570 0.30400
C 	C 	0.03250 0.43470 0.81820 -0.24900
H 	H 	0.99240 0.43640 0.74820 0.13300
C 	C 	0.85230 0.47970 0.88920 0.24400
C 	C 	0.31370 0.42850 0.75010 0.15200
H 	H 	0.36240 0.37960 0.79820 -0.01100
C 	C 	0.33110 0.54360 0.79130 0.31400
C 	C 	0.34440 0.42140 0.63540 -0.59200
H 	H 	0.32600 0.35090 0.60630 0.21800
H 	H 	0.42440 0.43440 0.63780 0.19800
H 	H 	0.30200 0.47440 0.59010 0.20900
C 	C 	0.31660 0.40040 0.16100 0.18400
H 	H 	0.36390 0.44730 0.12300 -0.02500
C 	C 	0.33640 0.28270 0.13380 0.30100
C 	C 	0.34580 0.41610 0.28140 -0.63000
H 	H 	0.32640 0.48810 0.29980 0.22800
H 	H 	0.42600 0.40480 0.30310 0.20700
H 	H 	0.30380 0.36560 0.31810 0.21800
O 	O 	0.44040 0.71570 0.66470 -0.49400
O 	O 	0.58730 0.60200 0.68810 -0.51500
O 	O 	0.71240 0.59950 0.32330 -0.27700
O 	O 	0.61860 0.45310 0.17180 -0.54000
O 	O 	0.60990 0.57800 0.04470 -0.52700
O 	O 	0.32370 0.72700 0.27060 -0.26900
O 	O 	0.37640 0.76280 0.99880 -0.53400
O 	O 	0.40750 0.87320 0.14060 -0.48500
O 	O 	0.80130 0.50410 0.79770 -0.39200
O 	O 	0.79930 0.47790 0.97140 -0.42600
O 	O 	0.20030 0.42860 0.13340 -0.29600
O 	O 	0.25710 0.21740 0.12140 -0.41300
O 	O 	0.43810 0.25500 0.12800 -0.53200
O 	O 	0.19810 0.39710 0.74470 -0.27800
O 	O 	0.25330 0.61150 0.76840 -0.43700
O 	O 	0.42640 0.56930 0.84440 -0.54800
O 	O 	0.24690 0.83940 0.65340 -0.84300
H 	H 	0.23910 0.89620 0.68950 0.31300
H 	H 	0.20620 0.84410 0.59150 0.37100
Tb	Tb	0.62814 0.55439 0.86800 2.03300
Tb	Tb	0.36193 0.77053 0.81499 1.96000
C 	C 	0.48210 0.16050 0.48830 0.00600
C 	C 	0.38640 0.12520 0.53010 -0.22200
H 	H 	0.32340 0.09890 0.48440 0.11300
C 	C 	0.38680 0.13000 0.64090 0.27500
C 	C 	0.48060 0.16580 0.71060 -0.34500
H 	H 	0.47910 0.16930 0.78480 0.15800
C 	C 	0.57760 0.19640 0.66770 0.27400
C 	C 	0.57760 0.19790 0.55740 -0.22300
H 	H 	0.64050 0.22360 0.52920 0.11600
C 	C 	0.48490 0.15910 0.36910 0.40800
C 	C 	0.27870 0.11890 0.78690 0.09300
H 	H 	0.30220 0.19320 0.80450 0.01600
C 	C 	0.35650 0.04220 0.86260 0.37000
C 	C 	0.15550 0.10650 0.80140 -0.51500
H 	H 	0.11070 0.16100 0.76040 0.18700
H 	H 	0.14870 0.11400 0.87670 0.17100
H 	H 	0.12860 0.03670 0.77640 0.14900
C 	C 	0.69010 0.20520 0.84280 0.08800
H 	H 	0.65780 0.13410 0.85350 0.00000
C 	C 	0.63060 0.28840 0.90610 0.43100
C 	C 	0.81680 0.20110 0.88160 -0.51800
H 	H 	0.85020 0.14450 0.84450 0.18200
H 	H 	0.83020 0.18740 0.95820 0.16300
H 	H 	0.85060 0.26870 0.86700 0.18600
C 	C 	0.02280 0.95320 0.09260 0.08500
C 	C 	0.96460 0.95010 0.98840 -0.25500
H 	H 	0.00270 0.96280 0.92970 0.13100
C 	C 	0.84930 0.92810 0.97190 0.31600
C 	C 	0.79220 0.91020 0.06000 -0.35000
H 	H 	0.71450 0.89600 0.04900 0.16300
C 	C 	0.85230 0.91380 0.16430 0.31900
C 	C 	0.96750 0.93470 0.18180 -0.24600
H 	H 	0.00760 0.93640 0.25180 0.14500
C 	C 	0.14770 0.97970 0.11080 0.30000
C 	C 	0.68630 0.92850 0.24990 0.24200
H 	H 	0.63760 0.87960 0.20180 -0.03200
C 	C 	0.66890 0.04360 0.20870 0.24400
C 	C 	0.65560 0.92140 0.36460 -0.69600
H 	H 	0.67400 0.85090 0.39370 0.25100
H 	H 	0.57560 0.93440 0.36220 0.24400
H 	H 	0.69800 0.97440 0.40990 0.25500
C 	C 	0.68340 0.90040 0.83900 0.19400
H 	H 	0.63610 0.94730 0.87700 -0.01700
C 	C 	0.66360 0.78270 0.86620 0.29800
C 	C 	0.65420 0.91610 0.71860 -0.65900
H 	H 	0.67360 0.98810 0.70020 0.25300
H 	H 	0.57400 0.90480 0.69690 0.22200
H 	H 	0.69620 0.86560 0.68190 0.23000
O 	O 	0.55960 0.21570 0.33530 -0.49600
O 	O 	0.41270 0.10200 0.31190 -0.51600
O 	O 	0.28760 0.09950 0.67670 -0.29000
O 	O 	0.38140 0.95310 0.82820 -0.49200
O 	O 	0.39010 0.07800 0.95530 -0.51400
O 	O 	0.67630 0.22700 0.72940 -0.27400
O 	O 	0.62360 0.26280 0.00120 -0.54100
O 	O 	0.59250 0.37320 0.85940 -0.51400
O 	O 	0.19870 0.00410 0.20230 -0.44000
O 	O 	0.20070 0.97790 0.02860 -0.40700
O 	O 	0.79970 0.92860 0.86660 -0.28800
O 	O 	0.74290 0.71740 0.87860 -0.41300
O 	O 	0.56190 0.75500 0.87200 -0.53500
O 	O 	0.80190 0.89710 0.25530 -0.29000
O 	O 	0.74670 0.11150 0.23160 -0.43700
O 	O 	0.57360 0.06930 0.15560 -0.53800
O 	O 	0.75310 0.33940 0.34660 -0.83800
H 	H 	0.76090 0.39620 0.31050 0.29800
H 	H 	0.79380 0.34410 0.40850 0.35800
Tb	Tb	0.37186 0.05439 0.13200 1.95200
Tb	Tb	0.63807 0.27053 0.18501 1.95000
