data_crystal

_cell_length_a 11.93100
_cell_length_b 12.48500
_cell_length_c 12.54900
_cell_angle_alpha 90.00000
_cell_angle_beta  98.63000
_cell_angle_gamma 90.00000

_symmetry_space_group_name_	'P 1'
_symmetry_space_group_name_H-M	'P 1'

loop_
_symmetry_equiv_pos_as_xyz
  x,y,z

loop_
_atom_site_label
_atom_site_type_symbol
_atom_site_fract_x
_atom_site_fract_y
_atom_site_fract_z
_atom_site_charge
C 	C 	0.51580 0.66080 0.51010 0.00200
C 	C 	0.61260 0.62500 0.46900 -0.21000
H 	H 	0.67510 0.59870 0.51470 0.11500
C 	C 	0.61270 0.62990 0.35890 0.27100
C 	C 	0.51870 0.66640 0.28980 -0.33400
H 	H 	0.52070 0.67140 0.21620 0.15600
C 	C 	0.42240 0.69540 0.33120 0.27200
C 	C 	0.42090 0.69660 0.44130 -0.20700
H 	H 	0.35740 0.72100 0.46880 0.11700
C 	C 	0.51400 0.65870 0.62830 0.41500
C 	C 	0.72090 0.61950 0.21400 0.07600
H 	H 	0.69770 0.69350 0.19670 0.02000
C 	C 	0.64340 0.54410 0.13880 0.42300
C 	C 	0.84440 0.60720 0.20060 -0.51000
H 	H 	0.88930 0.65840 0.24550 0.19000
H 	H 	0.85270 0.61930 0.12670 0.17600
H 	H 	0.86960 0.53610 0.22130 0.16000
C 	C 	0.30970 0.70530 0.15650 0.07400
H 	H 	0.34170 0.63450 0.14580 0.01500
C 	C 	0.36910 0.78700 0.09560 0.43000
C 	C 	0.18150 0.70110 0.11840 -0.51400
H 	H 	0.14860 0.64540 0.15640 0.19300
H 	H 	0.16750 0.68650 0.04240 0.16900
H 	H 	0.14820 0.76860 0.13240 0.18800
C 	C 	0.97850 0.45290 0.90920 0.08200
C 	C 	0.03650 0.45080 0.01210 -0.25200
H 	H 	0.99900 0.46510 0.07040 0.11800
C 	C 	0.15160 0.42720 0.02870 0.29900
C 	C 	0.20930 0.40920 0.94240 -0.34100
H 	H 	0.28690 0.39580 0.95360 0.15000
C 	C 	0.14800 0.41160 0.83780 0.29600
C 	C 	0.03350 0.43440 0.82050 -0.24400
H 	H 	0.99370 0.43730 0.75090 0.13200
C 	C 	0.85450 0.47880 0.89110 0.24100
C 	C 	0.31280 0.42770 0.75180 0.15300
H 	H 	0.36240 0.38020 0.80000 -0.01400
C 	C 	0.32870 0.54230 0.79090 0.30300
C 	C 	0.34190 0.41950 0.63740 -0.59000
H 	H 	0.32250 0.34940 0.60900 0.21700
H 	H 	0.42170 0.43160 0.63900 0.19500
H 	H 	0.29990 0.47240 0.59240 0.20800
C 	C 	0.31690 0.40020 0.16220 0.16500
H 	H 	0.36420 0.44680 0.12450 -0.02200
C 	C 	0.33690 0.28410 0.13540 0.30000
C 	C 	0.34590 0.41650 0.28290 -0.60200
H 	H 	0.32260 0.48680 0.30140 0.21900
H 	H 	0.42620 0.40910 0.30420 0.19600
H 	H 	0.30720 0.36380 0.31960 0.20700
O 	O 	0.43770 0.71360 0.66280 -0.50000
O 	O 	0.58560 0.60240 0.68640 -0.52100
O 	O 	0.71190 0.59990 0.32360 -0.27400
O 	O 	0.61870 0.45460 0.17250 -0.54200
O 	O 	0.61050 0.58000 0.04530 -0.53100
O 	O 	0.32330 0.72660 0.26880 -0.25900
O 	O 	0.37440 0.76260 0.99890 -0.53800
O 	O 	0.40690 0.87110 0.14020 -0.49600
O 	O 	0.80350 0.50240 0.79880 -0.39500
O 	O 	0.80150 0.47740 0.97250 -0.42800
O 	O 	0.20120 0.42880 0.13430 -0.28800
O 	O 	0.25730 0.21810 0.12300 -0.41700
O 	O 	0.43790 0.25480 0.12980 -0.54400
O 	O 	0.19800 0.39510 0.74760 -0.27700
O 	O 	0.25070 0.60890 0.76800 -0.43600
O 	O 	0.42470 0.56940 0.84450 -0.55500
O 	O 	0.24500 0.83890 0.65150 -0.83100
H 	H 	0.23720 0.89590 0.68760 0.29700
H 	H 	0.20420 0.84370 0.58940 0.36100
Eu	Eu	0.62780 0.55415 0.86776 2.10800
Eu	Eu	0.36023 0.77079 0.81338 2.03100
C 	C 	0.48420 0.16080 0.48990 -0.00300
C 	C 	0.38740 0.12500 0.53100 -0.21400
H 	H 	0.32490 0.09870 0.48530 0.10800
C 	C 	0.38730 0.12990 0.64110 0.26700
C 	C 	0.48130 0.16640 0.71020 -0.33900
H 	H 	0.47930 0.17140 0.78380 0.15500
C 	C 	0.57760 0.19540 0.66880 0.26400
C 	C 	0.57910 0.19660 0.55870 -0.21200
H 	H 	0.64260 0.22100 0.53120 0.11000
C 	C 	0.48600 0.15870 0.37170 0.40800
C 	C 	0.27910 0.11950 0.78600 0.08600
H 	H 	0.30230 0.19350 0.80330 0.01800
C 	C 	0.35660 0.04410 0.86120 0.36000
C 	C 	0.15560 0.10720 0.79940 -0.49800
H 	H 	0.11070 0.15840 0.75450 0.18200
H 	H 	0.14730 0.11930 0.87330 0.16500
H 	H 	0.13040 0.03610 0.77870 0.14100
C 	C 	0.69030 0.20530 0.84350 0.06000
H 	H 	0.65830 0.13450 0.85420 0.00800
C 	C 	0.63090 0.28700 0.90440 0.43800
C 	C 	0.81850 0.20110 0.88160 -0.48300
H 	H 	0.85140 0.14540 0.84360 0.17000
H 	H 	0.83250 0.18650 0.95760 0.15100
H 	H 	0.85180 0.26860 0.86760 0.17500
C 	C 	0.02150 0.95290 0.09080 0.08200
C 	C 	0.96350 0.95080 0.98790 -0.24900
H 	H 	0.00100 0.96510 0.92960 0.12800
C 	C 	0.84840 0.92720 0.97130 0.30500
C 	C 	0.79070 0.90920 0.05760 -0.33800
H 	H 	0.71310 0.89580 0.04640 0.15700
C 	C 	0.85200 0.91160 0.16220 0.31100
C 	C 	0.96650 0.93440 0.17950 -0.24100
H 	H 	0.00630 0.93730 0.24910 0.14400
C 	C 	0.14550 0.97880 0.10890 0.29800
C 	C 	0.68720 0.92770 0.24820 0.24700
H 	H 	0.63760 0.88020 0.20000 -0.03500
C 	C 	0.67130 0.04230 0.20910 0.23000
C 	C 	0.65810 0.91950 0.36260 -0.69700
H 	H 	0.67750 0.84940 0.39100 0.25200
H 	H 	0.57830 0.93160 0.36100 0.24200
H 	H 	0.70010 0.97240 0.40760 0.25600
C 	C 	0.68310 0.90020 0.83780 0.17500
H 	H 	0.63580 0.94680 0.87550 -0.01400
C 	C 	0.66310 0.78410 0.86460 0.29700
C 	C 	0.65410 0.91650 0.71710 -0.63100
H 	H 	0.67740 0.98680 0.69860 0.24400
H 	H 	0.57380 0.90910 0.69580 0.21200
H 	H 	0.69280 0.86380 0.68040 0.21900
O 	O 	0.56230 0.21360 0.33720 -0.50200
O 	O 	0.41440 0.10240 0.31360 -0.52200
O 	O 	0.28810 0.09990 0.67640 -0.28800
O 	O 	0.38130 0.95460 0.82750 -0.49400
O 	O 	0.38950 0.08000 0.95470 -0.51900
O 	O 	0.67670 0.22660 0.73120 -0.26600
O 	O 	0.62560 0.26260 0.00110 -0.54500
O 	O 	0.59310 0.37110 0.85980 -0.52600
O 	O 	0.19650 0.00240 0.20120 -0.44500
O 	O 	0.19850 0.97740 0.02750 -0.40900
O 	O 	0.79880 0.92880 0.86570 -0.27900
O 	O 	0.74270 0.71810 0.87700 -0.41700
O 	O 	0.56210 0.75480 0.87020 -0.54700
O 	O 	0.80200 0.89510 0.25240 -0.28900
O 	O 	0.74930 0.10890 0.23200 -0.43600
O 	O 	0.57530 0.06940 0.15550 -0.54400
O 	O 	0.75500 0.33890 0.34850 -0.82600
H 	H 	0.76280 0.39590 0.31240 0.28300
H 	H 	0.79580 0.34370 0.41060 0.34800
Eu	Eu	0.37220 0.05415 0.13224 2.02300
Eu	Eu	0.63977 0.27079 0.18662 2.02100
