data_crystal

_cell_length_a 11.18400
_cell_length_b 11.18400
_cell_length_c 14.59100
_cell_angle_alpha 90.00000
_cell_angle_beta  90.00000
_cell_angle_gamma 120.00000

_symmetry_space_group_name_	'P 1'
_symmetry_space_group_name_H-M	'P 1'

loop_
_symmetry_equiv_pos_as_xyz
  x,y,z

loop_
_atom_site_label
_atom_site_type_symbol
_atom_site_fract_x
_atom_site_fract_y
_atom_site_fract_z
_atom_site_charge
O 	O 	0.89300 0.37000 0.15100 -0.41500
O 	O 	0.88100 0.55900 0.15400 -0.45500
C 	C 	0.91900 0.48200 0.11400 0.40400
C 	C 	0.93500 0.48200 0.01900 -0.06400
O 	O 	0.63000 0.52300 0.15100 -0.41500
O 	O 	0.44100 0.32200 0.15400 -0.45500
C 	C 	0.51800 0.43700 0.11400 0.40400
C 	C 	0.51800 0.45300 0.01900 -0.06400
O 	O 	0.47700 0.10700 0.15100 -0.41400
O 	O 	0.67800 0.11900 0.15400 -0.45400
C 	C 	0.56300 0.08100 0.11400 0.40500
C 	C 	0.54700 0.06500 0.01900 -0.06300
O 	O 	0.89300 0.37000 0.34900 -0.41400
O 	O 	0.88100 0.55900 0.34600 -0.45400
C 	C 	0.91900 0.48200 0.38600 0.40500
C 	C 	0.93500 0.48200 0.48100 -0.06300
O 	O 	0.63000 0.52300 0.34900 -0.41400
O 	O 	0.44100 0.32200 0.34600 -0.45400
C 	C 	0.51800 0.43700 0.38600 0.40500
C 	C 	0.51800 0.45300 0.48100 -0.06300
O 	O 	0.47700 0.10700 0.34900 -0.41400
O 	O 	0.67800 0.11900 0.34600 -0.45400
C 	C 	0.56300 0.08100 0.38600 0.40500
C 	C 	0.54700 0.06500 0.48100 -0.06300
O 	O 	0.37000 0.89300 0.84900 -0.41400
O 	O 	0.55900 0.88100 0.84600 -0.45400
C 	C 	0.48200 0.91900 0.88600 0.40500
C 	C 	0.48200 0.93500 0.98100 -0.06300
O 	O 	0.52300 0.63000 0.84900 -0.41400
O 	O 	0.32200 0.44100 0.84600 -0.45400
C 	C 	0.43700 0.51800 0.88600 0.40500
C 	C 	0.45300 0.51800 0.98100 -0.06300
O 	O 	0.10700 0.47700 0.84900 -0.41400
O 	O 	0.11900 0.67800 0.84600 -0.45400
C 	C 	0.08100 0.56300 0.88600 0.40500
C 	C 	0.06500 0.54700 0.98100 -0.06300
O 	O 	0.37000 0.89300 0.65100 -0.41400
O 	O 	0.55900 0.88100 0.65400 -0.45400
C 	C 	0.48200 0.91900 0.61400 0.40500
C 	C 	0.48200 0.93500 0.51900 -0.06300
O 	O 	0.52300 0.63000 0.65100 -0.41400
O 	O 	0.32200 0.44100 0.65400 -0.45400
C 	C 	0.43700 0.51800 0.61400 0.40500
C 	C 	0.45300 0.51800 0.51900 -0.06300
O 	O 	0.10700 0.47700 0.65100 -0.41400
O 	O 	0.11900 0.67800 0.65400 -0.45400
C 	C 	0.08100 0.56300 0.61400 0.40500
C 	C 	0.06500 0.54700 0.51900 -0.06300
Fe	Fe	0.76900 0.23700 0.25000 1.25800
Fe	Fe	0.76300 0.53200 0.25000 1.25800
Fe	Fe	0.46800 0.23100 0.25000 1.25800
Fe	Fe	0.23700 0.76900 0.75000 1.25800
Fe	Fe	0.53200 0.76300 0.75000 1.25800
Fe	Fe	0.23100 0.46800 0.75000 1.25800
O 	O 	0.66667 0.33333 0.25000 -0.61400
O 	O 	0.33333 0.66667 0.75000 -0.61400
