data_crystal

_cell_length_a 9.13500
_cell_length_b 16.13700
_cell_length_c 19.96800
_cell_angle_alpha 90.00000
_cell_angle_beta  90.00000
_cell_angle_gamma 90.00000

_symmetry_space_group_name_	'P 1'
_symmetry_space_group_name_H-M	'P 1'

loop_
_symmetry_equiv_pos_as_xyz
  x,y,z

loop_
_atom_site_label
_atom_site_type_symbol
_atom_site_fract_x
_atom_site_fract_y
_atom_site_fract_z
_atom_site_charge
Fe	Fe	0.92600 0.66000 0.26300 1.19900
O 	O 	0.86600 0.44500 0.33600 -0.38600
O 	O 	0.97300 0.56900 0.33400 -0.38900
O 	O 	0.78500 0.69000 0.33000 -0.47200
O 	O 	0.58200 0.74800 0.29900 -0.46600
O 	O 	0.51600 0.58400 0.32400 -0.39900
O 	O 	0.58100 0.45200 0.32800 -0.37500
C 	C 	0.92400 0.50900 0.37100 0.32100
C 	C 	0.66300 0.72100 0.34600 0.38700
C 	C 	0.50700 0.51300 0.35100 0.37900
C 	C 	0.53000 0.50700 0.46900 0.03600
C 	C 	0.43700 0.50300 0.41300 -0.10300
C 	C 	0.03800 0.47300 0.41400 -0.06500
C 	C 	0.05000 0.47500 0.48300 0.02100
C 	C 	0.65300 0.76700 0.40800 -0.09100
C 	C 	0.64800 0.72700 0.46900 0.03300
Fe	Fe	0.92600 0.84000 0.73700 1.20000
O 	O 	0.86600 0.05500 0.66400 -0.38300
O 	O 	0.97300 0.93100 0.66600 -0.38800
O 	O 	0.78500 0.81000 0.67000 -0.47100
O 	O 	0.58200 0.75200 0.70100 -0.46500
O 	O 	0.51600 0.91600 0.67600 -0.39800
O 	O 	0.58100 0.04800 0.67200 -0.37400
C 	C 	0.92400 0.99100 0.62900 0.32000
C 	C 	0.66300 0.77900 0.65400 0.38700
C 	C 	0.50700 0.98700 0.64900 0.37800
C 	C 	0.53000 0.99300 0.53100 0.03600
C 	C 	0.43700 0.99700 0.58700 -0.10300
C 	C 	0.03800 0.02700 0.58600 -0.06500
C 	C 	0.05000 0.02500 0.51700 0.02000
C 	C 	0.65300 0.73300 0.59200 -0.09100
C 	C 	0.64800 0.77300 0.53100 0.03300
Fe	Fe	0.57400 0.84000 0.76300 1.20000
O 	O 	0.63400 0.05500 0.83600 -0.38300
O 	O 	0.52700 0.93100 0.83400 -0.38800
O 	O 	0.71500 0.81000 0.83000 -0.47100
O 	O 	0.91800 0.75200 0.79900 -0.46500
O 	O 	0.98400 0.91600 0.82400 -0.39700
O 	O 	0.91900 0.04800 0.82800 -0.37100
C 	C 	0.57600 0.99100 0.87100 0.31900
C 	C 	0.83700 0.77900 0.84600 0.38700
C 	C 	0.99300 0.98700 0.85100 0.37300
C 	C 	0.97000 0.99300 0.96900 0.03300
C 	C 	0.06300 0.99700 0.91300 -0.09900
C 	C 	0.46200 0.02700 0.91400 -0.06300
C 	C 	0.45000 0.02500 0.98300 0.02100
C 	C 	0.84700 0.73300 0.90800 -0.09100
C 	C 	0.85200 0.77300 0.96900 0.03200
Fe	Fe	0.57400 0.66000 0.23700 1.20000
O 	O 	0.63400 0.44500 0.16400 -0.38500
O 	O 	0.52700 0.56900 0.16600 -0.38800
O 	O 	0.71500 0.69000 0.17000 -0.47100
O 	O 	0.91800 0.74800 0.20100 -0.46500
O 	O 	0.98400 0.58400 0.17600 -0.39800
O 	O 	0.91900 0.45200 0.17200 -0.37400
C 	C 	0.57600 0.50900 0.12900 0.32200
C 	C 	0.83700 0.72100 0.15400 0.38700
C 	C 	0.99300 0.51300 0.14900 0.37900
C 	C 	0.97000 0.50700 0.03100 0.03600
C 	C 	0.06300 0.50300 0.08700 -0.10300
C 	C 	0.46200 0.47300 0.08600 -0.06500
C 	C 	0.45000 0.47500 0.01700 0.02100
C 	C 	0.84700 0.76700 0.09200 -0.09200
C 	C 	0.85200 0.72700 0.03100 0.03400
Fe	Fe	0.07400 0.34000 0.73700 1.20000
O 	O 	0.13400 0.55500 0.66400 -0.38500
O 	O 	0.02700 0.43100 0.66600 -0.38800
O 	O 	0.21500 0.31000 0.67000 -0.47100
O 	O 	0.41800 0.25200 0.70100 -0.46500
O 	O 	0.48400 0.41600 0.67600 -0.39800
O 	O 	0.41900 0.54800 0.67200 -0.37400
C 	C 	0.07600 0.49100 0.62900 0.32200
C 	C 	0.33700 0.27900 0.65400 0.38700
C 	C 	0.49300 0.48700 0.64900 0.37900
C 	C 	0.47000 0.49300 0.53100 0.03600
C 	C 	0.56300 0.49700 0.58700 -0.10300
C 	C 	0.96200 0.52700 0.58600 -0.06500
C 	C 	0.95000 0.52500 0.51700 0.02100
C 	C 	0.34700 0.23300 0.59200 -0.09100
C 	C 	0.35200 0.27300 0.53100 0.03300
Fe	Fe	0.07400 0.16000 0.26300 1.20000
O 	O 	0.13400 0.94500 0.33600 -0.38300
O 	O 	0.02700 0.06900 0.33400 -0.38800
O 	O 	0.21500 0.19000 0.33000 -0.47100
O 	O 	0.41800 0.24800 0.29900 -0.46500
O 	O 	0.48400 0.08400 0.32400 -0.39800
O 	O 	0.41900 0.95200 0.32800 -0.37400
C 	C 	0.07600 0.00900 0.37100 0.32000
C 	C 	0.33700 0.22100 0.34600 0.38700
C 	C 	0.49300 0.01300 0.35100 0.37800
C 	C 	0.47000 0.00700 0.46900 0.03600
C 	C 	0.56300 0.00300 0.41300 -0.10300
C 	C 	0.96200 0.97300 0.41400 -0.06500
C 	C 	0.95000 0.97500 0.48300 0.02000
C 	C 	0.34700 0.26700 0.40800 -0.09100
C 	C 	0.35200 0.22700 0.46900 0.03300
Fe	Fe	0.42600 0.16000 0.23700 1.20000
O 	O 	0.36600 0.94500 0.16400 -0.38300
O 	O 	0.47300 0.06900 0.16600 -0.38800
O 	O 	0.28500 0.19000 0.17000 -0.47100
O 	O 	0.08200 0.24800 0.20100 -0.46500
O 	O 	0.01600 0.08400 0.17600 -0.39700
O 	O 	0.08100 0.95200 0.17200 -0.37100
C 	C 	0.42400 0.00900 0.12900 0.31900
C 	C 	0.16300 0.22100 0.15400 0.38700
C 	C 	0.00700 0.01300 0.14900 0.37300
C 	C 	0.03000 0.00700 0.03100 0.03300
C 	C 	0.93700 0.00300 0.08700 -0.09900
C 	C 	0.53800 0.97300 0.08600 -0.06300
C 	C 	0.55000 0.97500 0.01700 0.02100
C 	C 	0.15300 0.26700 0.09200 -0.09100
C 	C 	0.14800 0.22700 0.03100 0.03200
Fe	Fe	0.42600 0.34000 0.76300 1.20000
O 	O 	0.36600 0.55500 0.83600 -0.38500
O 	O 	0.47300 0.43100 0.83400 -0.38800
O 	O 	0.28500 0.31000 0.83000 -0.47100
O 	O 	0.08200 0.25200 0.79900 -0.46500
O 	O 	0.01600 0.41600 0.82400 -0.39800
O 	O 	0.08100 0.54800 0.82800 -0.37400
C 	C 	0.42400 0.49100 0.87100 0.32200
C 	C 	0.16300 0.27900 0.84600 0.38700
C 	C 	0.00700 0.48700 0.85100 0.37900
C 	C 	0.03000 0.49300 0.96900 0.03600
C 	C 	0.93700 0.49700 0.91300 -0.10300
C 	C 	0.53800 0.52700 0.91400 -0.06500
C 	C 	0.55000 0.52500 0.98300 0.02100
C 	C 	0.15300 0.23300 0.90800 -0.09200
C 	C 	0.14800 0.27300 0.96900 0.03400
Fe	Fe	0.75000 0.44100 0.25000 1.18900
O 	O 	0.75000 0.57000 0.25000 -0.46200
Fe	Fe	0.75000 0.05900 0.75000 1.19000
O 	O 	0.75000 0.93000 0.75000 -0.46200
Fe	Fe	0.25000 0.55900 0.75000 1.18900
O 	O 	0.25000 0.43000 0.75000 -0.46200
Fe	Fe	0.25000 0.94100 0.25000 1.19000
O 	O 	0.25000 0.07000 0.25000 -0.46200
