data_crystal

_cell_length_a 14.59330
_cell_length_b 14.59330
_cell_length_c 14.59330
_cell_angle_alpha 109.47120
_cell_angle_beta  109.47120
_cell_angle_gamma 109.47120

_symmetry_space_group_name_	'P 1'
_symmetry_space_group_name_H-M	'P 1'

loop_
_symmetry_equiv_pos_as_xyz
  x,y,z

loop_
_atom_site_label
_atom_site_type_symbol
_atom_site_fract_x
_atom_site_fract_y
_atom_site_fract_z
_atom_site_charge
H 	H 	0.46590 0.56770 0.33480 0.00600
C 	C 	0.51880 0.57520 0.31160 -0.01100
N 	N 	0.55260 0.64700 0.27100 -0.29000
H 	H 	0.23290 0.13110 0.66520 0.00800
C 	C 	0.26360 0.20720 0.68840 -0.01100
N 	N 	0.37600 0.28160 0.72900 -0.29100
H 	H 	0.76710 0.43230 0.89820 0.01200
C 	C 	0.73640 0.42480 0.94360 -0.03500
N 	N 	0.62400 0.35300 0.90560 -0.29400
H 	H 	0.53410 0.86890 0.10180 0.00000
C 	C 	0.48120 0.79280 0.05640 0.01000
N 	N 	0.44740 0.71840 0.09440 -0.29400
H 	H 	0.33480 0.46590 0.56770 0.00700
C 	C 	0.31160 0.51880 0.57520 -0.01200
N 	N 	0.27100 0.55260 0.64700 -0.29200
H 	H 	0.66520 0.23290 0.13110 0.00900
C 	C 	0.68840 0.26360 0.20720 -0.01100
N 	N 	0.72900 0.37600 0.28160 -0.29200
H 	H 	0.89820 0.76710 0.43230 0.00600
C 	C 	0.94360 0.73640 0.42480 -0.02000
N 	N 	0.90560 0.62400 0.35300 -0.29300
H 	H 	0.10180 0.53410 0.86890 0.00200
C 	C 	0.05640 0.48120 0.79280 -0.00600
N 	N 	0.09440 0.44740 0.71840 -0.29300
H 	H 	0.56770 0.33480 0.46590 0.00600
C 	C 	0.57520 0.31160 0.51880 -0.01200
N 	N 	0.64700 0.27100 0.55260 -0.29200
H 	H 	0.13110 0.66520 0.23290 0.00800
C 	C 	0.20720 0.68840 0.26360 -0.01200
N 	N 	0.28160 0.72900 0.37600 -0.29200
H 	H 	0.43230 0.89820 0.76710 0.00700
C 	C 	0.42480 0.94360 0.73640 -0.01900
N 	N 	0.35300 0.90560 0.62400 -0.29200
H 	H 	0.86890 0.10180 0.53410 0.00400
C 	C 	0.79280 0.05640 0.48120 -0.00600
N 	N 	0.71840 0.09440 0.44740 -0.29300
H 	H 	0.56770 0.46590 0.33480 0.00500
C 	C 	0.57520 0.51880 0.31160 -0.01200
N 	N 	0.64700 0.55260 0.27100 -0.29200
H 	H 	0.13110 0.23290 0.66520 0.00700
C 	C 	0.20720 0.26360 0.68840 -0.01200
N 	N 	0.28160 0.37600 0.72900 -0.29200
H 	H 	0.43230 0.76710 0.89820 0.01200
C 	C 	0.42480 0.73640 0.94360 -0.03400
N 	N 	0.35300 0.62400 0.90560 -0.29400
H 	H 	0.86890 0.53410 0.10180 0.00000
C 	C 	0.79280 0.48120 0.05640 0.00900
N 	N 	0.71840 0.44740 0.09440 -0.29500
H 	H 	0.46590 0.33480 0.56770 0.00500
C 	C 	0.51880 0.31160 0.57520 -0.01300
N 	N 	0.55260 0.27100 0.64700 -0.29200
H 	H 	0.23290 0.66520 0.13110 0.00900
C 	C 	0.26360 0.68840 0.20720 -0.01100
N 	N 	0.37600 0.72900 0.28160 -0.29200
H 	H 	0.76710 0.89820 0.43230 0.00800
C 	C 	0.73640 0.94360 0.42480 -0.01900
N 	N 	0.62400 0.90560 0.35300 -0.29200
H 	H 	0.53410 0.10180 0.86890 0.00200
C 	C 	0.48120 0.05640 0.79280 -0.00600
N 	N 	0.44740 0.09440 0.71840 -0.29300
H 	H 	0.33480 0.56770 0.46590 0.00600
C 	C 	0.31160 0.57520 0.51880 -0.01200
N 	N 	0.27100 0.64700 0.55260 -0.29200
H 	H 	0.66520 0.13110 0.23290 0.00800
C 	C 	0.68840 0.20720 0.26360 -0.01200
N 	N 	0.72900 0.28160 0.37600 -0.29200
H 	H 	0.89820 0.43230 0.76710 0.00700
C 	C 	0.94360 0.42480 0.73640 -0.01900
N 	N 	0.90560 0.35300 0.62400 -0.29200
H 	H 	0.10180 0.86890 0.53410 0.00400
C 	C 	0.05640 0.79280 0.48120 -0.00600
N 	N 	0.09440 0.71840 0.44740 -0.29300
Zn	Zn	0.50000 0.75000 0.25000 1.17900
Zn	Zn	0.50000 0.25000 0.75000 1.17900
Zn	Zn	0.25000 0.50000 0.75000 1.17900
Zn	Zn	0.75000 0.50000 0.25000 1.17900
Zn	Zn	0.75000 0.25000 0.50000 1.17900
Zn	Zn	0.25000 0.75000 0.50000 1.17900
C 	C 	0.62930 0.62930 0.24800 0.12400
C 	C 	0.68460 0.68460 0.19700 -0.23700
C 	C 	0.38130 0.38130 0.75200 0.12200
C 	C 	0.48760 0.48760 0.80300 -0.23600
C 	C 	0.61870 0.37070 -0.00000 0.12700
C 	C 	0.51240 0.31540 -0.00000 -0.21000
C 	C 	0.37070 0.61870 -0.00000 0.12900
C 	C 	0.31540 0.51240 -0.00000 -0.21000
C 	C 	0.24800 0.62930 0.62930 0.12200
C 	C 	0.19700 0.68460 0.68460 -0.23500
C 	C 	0.75200 0.38130 0.38130 0.12400
C 	C 	0.80300 0.48760 0.48760 -0.23700
C 	C 	-0.00000 0.61870 0.37070 0.12500
C 	C 	-0.00000 0.51240 0.31540 -0.23200
C 	C 	-0.00000 0.37070 0.61870 0.12600
C 	C 	-0.00000 0.31540 0.51240 -0.23100
C 	C 	0.62930 0.24800 0.62930 0.12200
C 	C 	0.68460 0.19700 0.68460 -0.23500
C 	C 	0.38130 0.75200 0.38130 0.12400
C 	C 	0.48760 0.80300 0.48760 -0.23700
C 	C 	0.37070 0.00000 0.61870 0.12500
C 	C 	0.31540 0.00000 0.51240 -0.23100
C 	C 	0.61870 0.00000 0.37070 0.12500
C 	C 	0.51240 0.00000 0.31540 -0.23200
H 	H 	0.66306 0.61796 0.11267 0.04900
H 	H 	0.77943 0.73432 0.25534 0.04500
H 	H 	0.65359 0.74380 0.18400 0.02900
H 	H 	0.52409 0.47899 0.74466 0.04400
H 	H 	0.55040 0.50530 0.88733 0.04400
H 	H 	0.46959 0.55979 0.81600 0.02700
H 	H 	0.53250 0.31239 0.08107 0.03000
H 	H 	0.31239 0.53250 0.08107 0.03000
H 	H 	0.23256 0.70187 0.77473 0.03500
H 	H 	0.10210 0.62708 0.63671 0.05000
H 	H 	0.21734 0.76713 0.68464 0.03100
H 	H 	0.82518 0.47156 0.56120 0.02800
H 	H 	0.74052 0.51883 0.48272 0.04600
H 	H 	0.88230 0.55368 0.50015 0.04400
H 	H 	0.02247 0.48183 0.37760 0.04900
H 	H 	0.06442 0.52815 0.28650 0.04000
H 	H 	0.07362 0.29930 0.53090 0.03600
H 	H 	0.00833 0.37236 0.47435 0.05000
H 	H 	0.62708 0.10210 0.63671 0.05000
H 	H 	0.70187 0.23256 0.77473 0.03500
H 	H 	0.76713 0.21734 0.68464 0.03100
H 	H 	0.51883 0.74052 0.48272 0.04600
H 	H 	0.47156 0.82518 0.56120 0.02800
H 	H 	0.55368 0.88230 0.50015 0.04400
H 	H 	0.29930 0.07362 0.53090 0.03600
H 	H 	0.37236 0.00833 0.47435 0.05000
H 	H 	0.48183 0.02247 0.37760 0.04900
H 	H 	0.52815 0.06442 0.28650 0.04000
H 	H 	0.91311 0.44594 0.23982 0.02700
H 	H 	0.91805 0.23226 0.45068 0.03000
H 	H 	0.23226 0.91805 0.45068 0.03000
H 	H 	0.44594 0.91311 0.23982 0.02700
H 	H 	0.45641 0.22635 0.92522 0.02500
H 	H 	0.46701 0.36518 0.99371 0.03800
H 	H 	0.22635 0.45641 0.92522 0.02500
H 	H 	0.36518 0.46701 0.99371 0.03900
