data_crystal

_cell_length_a 14.73070
_cell_length_b 14.73070
_cell_length_c 14.73070
_cell_angle_alpha 109.47100
_cell_angle_beta  109.47100
_cell_angle_gamma 109.47100

_symmetry_space_group_name_	'P 1'
_symmetry_space_group_name_H-M	'P 1'

loop_
_symmetry_equiv_pos_as_xyz
  x,y,z

loop_
_atom_site_label
_atom_site_type_symbol
_atom_site_fract_x
_atom_site_fract_y
_atom_site_fract_z
_atom_site_charge
Zn	Zn	0.25000 0.75000 0.50000 1.17600
Zn	Zn	0.75000 0.25000 0.50000 1.17500
Zn	Zn	0.50000 0.75000 0.25000 1.17500
Zn	Zn	0.50000 0.25000 0.75000 1.17500
Zn	Zn	0.75000 0.50000 0.25000 1.17500
Zn	Zn	0.25000 0.50000 0.75000 1.17500
H 	H 	0.10249 0.88103 0.52632 -0.00100
H 	H 	0.35471 0.57617 0.47368 -0.00100
H 	H 	0.64529 0.11897 0.22146 0.00100
H 	H 	0.89751 0.42383 0.77854 -0.00200
H 	H 	0.22146 0.64529 0.11897 -0.00100
H 	H 	0.77854 0.89751 0.42383 0.00100
H 	H 	0.52632 0.10249 0.88103 -0.00300
H 	H 	0.47368 0.35471 0.57617 -0.00000
H 	H 	0.57617 0.47368 0.35471 -0.00100
H 	H 	0.88103 0.52632 0.10249 0.00300
H 	H 	0.42383 0.77854 0.89751 -0.00000
H 	H 	0.11897 0.22146 0.64529 -0.00300
H 	H 	0.57617 0.35471 0.47368 -0.00100
H 	H 	0.88103 0.10249 0.52632 0.00300
H 	H 	0.42383 0.89751 0.77854 -0.00100
H 	H 	0.11897 0.64529 0.22146 -0.00300
H 	H 	0.10249 0.52632 0.88103 -0.00100
H 	H 	0.35471 0.47368 0.57617 -0.00100
H 	H 	0.64529 0.22146 0.11897 0.00300
H 	H 	0.89751 0.77854 0.42383 -0.00300
H 	H 	0.22146 0.11897 0.64529 -0.00200
H 	H 	0.77854 0.42383 0.89751 0.00200
H 	H 	0.52632 0.88103 0.10249 -0.00300
H 	H 	0.47368 0.57617 0.35471 -0.00100
C 	C 	0.05510 0.78730 0.46780 -0.02800
C 	C 	0.31950 0.58730 0.53220 -0.00900
C 	C 	0.68050 0.21270 0.26780 -0.00700
C 	C 	0.94490 0.41270 0.73220 0.01000
C 	C 	0.26780 0.68050 0.21270 -0.00900
C 	C 	0.73220 0.94490 0.41270 -0.01500
C 	C 	0.46780 0.05510 0.78730 -0.00200
C 	C 	0.53220 0.31950 0.58730 -0.00800
C 	C 	0.58730 0.53220 0.31950 -0.00800
C 	C 	0.78730 0.46780 0.05510 0.00600
C 	C 	0.41270 0.73220 0.94490 -0.02100
C 	C 	0.21270 0.26780 0.68050 -0.00900
C 	C 	0.58730 0.31950 0.53220 -0.00900
C 	C 	0.78730 0.05510 0.46780 0.00000
C 	C 	0.41270 0.94490 0.73220 -0.01600
C 	C 	0.21270 0.68050 0.26780 -0.00900
C 	C 	0.05510 0.46780 0.78730 -0.02700
C 	C 	0.31950 0.53220 0.58730 -0.00900
C 	C 	0.68050 0.26780 0.21270 -0.00600
C 	C 	0.94490 0.73220 0.41270 0.01100
C 	C 	0.26780 0.21270 0.68050 -0.00900
C 	C 	0.73220 0.41270 0.94490 -0.02100
C 	C 	0.46780 0.78730 0.05510 0.00300
C 	C 	0.53220 0.58730 0.31950 -0.00800
C 	C 	0.00000 0.61470 0.36810 0.09800
C 	C 	1.00000 0.50770 0.31790 -0.18700
C 	C 	0.24660 0.63190 0.63190 0.12800
C 	C 	0.18980 0.68210 0.68210 -0.23800
C 	C 	0.75340 0.38530 0.38530 0.13200
C 	C 	0.81020 0.49230 0.49230 -0.23900
C 	C 	-0.00000 0.36810 0.61470 0.11900
C 	C 	-0.00000 0.31790 0.50770 -0.25000
C 	C 	0.38530 0.75340 0.38530 0.12900
C 	C 	0.49230 0.81020 0.49230 -0.23900
C 	C 	0.61470 -0.00000 0.36810 0.13400
C 	C 	0.50770 -0.00000 0.31790 -0.23300
C 	C 	0.36810 0.00000 0.61470 0.13300
C 	C 	0.31790 0.00000 0.50770 -0.23300
C 	C 	0.63190 0.24660 0.63190 0.12900
C 	C 	0.68210 0.18980 0.68210 -0.23700
C 	C 	0.63190 0.63190 0.24660 0.13000
C 	C 	0.68210 0.68210 0.18980 -0.23900
C 	C 	0.61470 0.36810 -0.00000 0.13400
C 	C 	0.50770 0.31790 -0.00000 -0.21900
C 	C 	0.36810 0.61470 -0.00000 0.13500
C 	C 	0.31790 0.50770 -0.00000 -0.22800
C 	C 	0.38530 0.38530 0.75340 0.12900
C 	C 	0.49230 0.49230 0.81020 -0.23800
N 	N 	0.09230 0.71360 0.44050 -0.28600
N 	N 	0.27310 0.65180 0.55950 -0.29200
N 	N 	0.72690 0.28640 0.37870 -0.29200
N 	N 	0.90770 0.34820 0.62130 -0.28800
N 	N 	0.37870 0.72690 0.28640 -0.29200
N 	N 	0.62130 0.90770 0.34820 -0.29400
N 	N 	0.44050 0.09230 0.71360 -0.29400
N 	N 	0.55950 0.27310 0.65180 -0.29300
N 	N 	0.65180 0.55950 0.27310 -0.29200
N 	N 	0.71360 0.44050 0.09230 -0.29300
N 	N 	0.34820 0.62130 0.90770 -0.29500
N 	N 	0.28640 0.37870 0.72690 -0.29300
N 	N 	0.65180 0.27310 0.55950 -0.29200
N 	N 	0.71360 0.09230 0.44050 -0.29300
N 	N 	0.34820 0.90770 0.62130 -0.29400
N 	N 	0.28640 0.72690 0.37870 -0.29300
N 	N 	0.09230 0.44050 0.71360 -0.29000
N 	N 	0.27310 0.55950 0.65180 -0.29300
N 	N 	0.72690 0.37870 0.28640 -0.29200
N 	N 	0.90770 0.62130 0.34820 -0.28400
N 	N 	0.37870 0.28640 0.72690 -0.29200
N 	N 	0.62130 0.34820 0.90770 -0.29500
N 	N 	0.44050 0.71360 0.09230 -0.29500
N 	N 	0.55950 0.65180 0.27310 -0.29200
H 	H 	0.02357 0.50305 0.25087 0.03100
H 	H 	0.91357 0.43460 0.27938 0.02600
H 	H 	0.06286 0.50421 0.38534 0.02700
H 	H 	0.13039 0.61918 0.69286 0.03700
H 	H 	0.14112 0.70558 0.62494 0.03400
H 	H 	0.25476 0.75966 0.76661 0.04700
H 	H 	0.85888 0.56445 0.48382 0.03900
H 	H 	0.86961 0.48879 0.56246 0.04300
H 	H 	0.74524 0.50490 0.51186 0.05000
H 	H 	0.05137 0.38696 0.49727 0.04700
H 	H 	0.91099 0.26677 0.43514 0.04100
H 	H 	0.03764 0.26185 0.50945 0.04700
H 	H 	0.56183 0.87202 0.49009 0.04000
H 	H 	0.51355 0.74553 0.50329 0.04900
H 	H 	0.48276 0.85618 0.56477 0.03400
H 	H 	0.50165 0.02058 0.24879 0.04900
H 	H 	0.29874 0.92152 0.43610 0.03300
H 	H 	0.37906 0.07625 0.51299 0.03700
H 	H 	0.23779 0.00222 0.49276 0.04900
H 	H 	0.74120 0.17743 0.65186 0.03000
H 	H 	0.61325 0.10553 0.65597 0.04900
H 	H 	0.72997 0.24331 0.77659 0.04500
H 	H 	0.62094 0.69720 0.13394 0.04000
H 	H 	0.70126 0.62278 0.13736 0.03900
H 	H 	0.76221 0.76443 0.25497 0.05100
H 	H 	0.48645 0.23197 0.98973 0.03900
H 	H 	0.43817 0.31019 0.92826 0.03100
H 	H 	0.51724 0.37342 0.08201 0.03200
H 	H 	0.38675 0.49229 0.04272 0.04800
H 	H 	0.25881 0.43623 0.91067 0.02200
H 	H 	0.27002 0.51334 0.04661 0.04400
H 	H 	0.49835 0.51893 0.74714 0.04800
H 	H 	0.56535 0.47975 0.84742 0.03200
H 	H 	0.49444 0.55946 0.87917 0.04100
H 	H 	0.50556 0.06502 0.38472 0.04300
H 	H 	0.43465 0.91440 0.28207 0.02900
