data_crystal

_cell_length_a 7.14900
_cell_length_b 7.14900
_cell_length_c 13.39200
_cell_angle_alpha 90.00000
_cell_angle_beta  90.00000
_cell_angle_gamma 90.00000

_symmetry_space_group_name_	'P 1'
_symmetry_space_group_name_H-M	'P 1'

loop_
_symmetry_equiv_pos_as_xyz
  x,y,z

loop_
_atom_site_label
_atom_site_type_symbol
_atom_site_fract_x
_atom_site_fract_y
_atom_site_fract_z
_atom_site_charge
Pt	Pt	0.00000 0.00000 0.50000 0.24200
Fe	Fe	0.50000 0.50000 0.50000 1.18400
N 	N 	0.50000 0.50000 0.35030 -0.24800
C 	C 	0.50000 0.50000 0.14600 0.04300
N 	N 	0.50000 0.50000 0.64970 -0.24900
C 	C 	0.50000 0.50000 0.85400 0.04200
N 	N 	0.69040 0.69040 0.50000 -0.25300
C 	C 	0.80480 0.80480 0.50000 0.02900
N 	N 	0.30960 0.30960 0.50000 -0.25000
C 	C 	0.19520 0.19520 0.50000 -0.02400
N 	N 	0.30960 0.69040 0.50000 -0.25200
C 	C 	0.19520 0.80480 0.50000 0.00400
N 	N 	0.69040 0.30960 0.50000 -0.25200
C 	C 	0.80480 0.19520 0.50000 0.00400
C 	C 	0.65700 0.50000 0.29900 0.03200
C 	C 	0.65700 0.50000 0.19650 -0.02200
C 	C 	0.34300 0.50000 0.29900 0.02300
C 	C 	0.34300 0.50000 0.19650 -0.03200
C 	C 	0.50000 0.65700 0.29900 0.03200
C 	C 	0.50000 0.65700 0.19650 -0.02200
C 	C 	0.50000 0.34300 0.29900 0.02300
C 	C 	0.50000 0.34300 0.19650 -0.03200
C 	C 	0.34300 0.50000 0.70100 0.02300
C 	C 	0.34300 0.50000 0.80350 -0.03200
C 	C 	0.65700 0.50000 0.70100 0.03200
C 	C 	0.65700 0.50000 0.80350 -0.02200
C 	C 	0.50000 0.65700 0.70100 0.03200
C 	C 	0.50000 0.65700 0.80350 -0.02200
C 	C 	0.50000 0.34300 0.70100 0.02300
C 	C 	0.50000 0.34300 0.80350 -0.03200
C 	C 	0.50000 0.43000 0.03200 -0.00700
C 	C 	0.50000 0.57000 0.03200 0.00100
C 	C 	0.57000 0.50000 0.03200 0.00100
C 	C 	0.43000 0.50000 0.03200 -0.00700
C 	C 	0.50000 0.43000 0.96800 -0.00700
C 	C 	0.50000 0.57000 0.96800 0.00100
C 	C 	0.43000 0.50000 0.96800 -0.00700
C 	C 	0.57000 0.50000 0.96800 0.00100
