data_crystal

_cell_length_a 7.14500
_cell_length_b 7.14500
_cell_length_c 13.36900
_cell_angle_alpha 90.00000
_cell_angle_beta  90.00000
_cell_angle_gamma 90.00000

_symmetry_space_group_name_	'P 1'
_symmetry_space_group_name_H-M	'P 1'

loop_
_symmetry_equiv_pos_as_xyz
  x,y,z

loop_
_atom_site_label
_atom_site_type_symbol
_atom_site_fract_x
_atom_site_fract_y
_atom_site_fract_z
_atom_site_charge
Pt	Pt	0.00000 0.00000 0.50000 0.23800
Fe	Fe	0.50000 0.50000 0.50000 1.18500
N 	N 	0.50000 0.50000 0.64900 -0.25000
C 	C 	0.50000 0.50000 0.85790 0.04600
C 	C 	0.50000 0.50000 0.96750 -0.01300
N 	N 	0.50000 0.50000 0.35100 -0.25000
C 	C 	0.50000 0.50000 0.14210 0.04600
C 	C 	0.50000 0.50000 0.03250 -0.01300
N 	N 	0.30960 0.69040 0.50000 -0.25300
C 	C 	0.19600 0.80400 0.50000 0.00600
N 	N 	0.69040 0.30960 0.50000 -0.25300
C 	C 	0.80400 0.19600 0.50000 0.00600
N 	N 	0.30960 0.30960 0.50000 -0.25100
C 	C 	0.19600 0.19600 0.50000 -0.02200
N 	N 	0.69040 0.69040 0.50000 -0.25400
C 	C 	0.80400 0.80400 0.50000 0.03200
C 	C 	0.50000 0.65600 0.70160 0.03200
C 	C 	0.50000 0.64800 0.80560 -0.02200
C 	C 	0.50000 0.34400 0.70160 0.02300
C 	C 	0.50000 0.35200 0.80560 -0.03300
C 	C 	0.34400 0.50000 0.70160 0.02300
C 	C 	0.35200 0.50000 0.80560 -0.03300
C 	C 	0.65600 0.50000 0.70160 0.03200
C 	C 	0.64800 0.50000 0.80560 -0.02200
C 	C 	0.50000 0.65600 0.29840 0.03200
C 	C 	0.50000 0.64800 0.19440 -0.02200
C 	C 	0.50000 0.34400 0.29840 0.02300
C 	C 	0.50000 0.35200 0.19440 -0.03300
C 	C 	0.65600 0.50000 0.29840 0.03200
C 	C 	0.64800 0.50000 0.19440 -0.02200
C 	C 	0.34400 0.50000 0.29840 0.02300
C 	C 	0.35200 0.50000 0.19440 -0.03300
