data_crystal

_cell_length_a 12.17200
_cell_length_b 16.39740
_cell_length_c 16.39740
_cell_angle_alpha 65.91060
_cell_angle_beta  75.67400
_cell_angle_gamma 104.32600

_symmetry_space_group_name_	'P 1'
_symmetry_space_group_name_H-M	'P 1'

loop_
_symmetry_equiv_pos_as_xyz
  x,y,z

loop_
_atom_site_label
_atom_site_type_symbol
_atom_site_fract_x
_atom_site_fract_y
_atom_site_fract_z
_atom_site_charge
Co	Co	0.37748 0.40059 0.55276 1.14000
Co	Co	0.60413 0.35322 0.60697 1.13600
Co	Co	0.93024 0.55276 0.04665 1.14000
Co	Co	0.21110 0.60697 0.03981 1.13600
Co	Co	0.97689 0.04665 0.40059 1.14000
Co	Co	0.25091 0.03981 0.35322 1.13700
Co	Co	0.62252 0.59941 0.44724 1.14000
Co	Co	0.39587 0.64678 0.39303 1.13600
Co	Co	0.06976 0.44724 0.95335 1.14000
Co	Co	0.78890 0.39303 0.96019 1.13600
Co	Co	0.02311 0.95335 0.59941 1.14000
Co	Co	0.74909 0.96019 0.64678 1.13700
H 	H 	0.24800 0.56370 0.23050 0.00800
H 	H 	0.43710 0.38610 0.14470 0.09700
H 	H 	0.20250 0.12170 0.59430 0.02800
H 	H 	0.16000 0.85030 0.71260 0.02000
H 	H 	0.43940 0.04380 0.70690 0.00400
H 	H 	0.42200 0.38320 0.29000 0.03300
H 	H 	0.32780 0.88500 0.74970 0.10500
H 	H 	0.35390 0.47530 0.04910 -0.00700
H 	H 	0.47850 0.23050 0.20580 0.00800
H 	H 	0.58180 0.14470 0.46920 0.09700
H 	H 	0.79680 0.59430 0.28400 0.02800
H 	H 	0.87260 0.71260 0.43710 0.02000
H 	H 	0.14630 0.70690 0.24930 0.00400
H 	H 	0.71200 0.29000 0.32680 0.03300
H 	H 	0.07750 0.74970 0.36530 0.10500
H 	H 	0.40300 0.04910 0.47560 -0.00700
H 	H 	0.68430 0.20580 0.56370 0.00800
H 	H 	0.05100 0.46920 0.38610 0.09700
H 	H 	0.08080 0.28400 0.12170 0.02800
H 	H 	0.30970 0.43710 0.85030 0.02000
H 	H 	0.39560 0.24930 0.04380 0.00400
H 	H 	0.03880 0.32680 0.38320 0.03200
H 	H 	0.44280 0.36530 0.88500 0.10500
H 	H 	0.87860 0.47560 0.47530 -0.00700
H 	H 	0.75200 0.43630 0.76950 0.00800
H 	H 	0.56290 0.61390 0.85530 0.09700
H 	H 	0.79750 0.87830 0.40570 0.02800
H 	H 	0.84000 0.14970 0.28740 0.02000
H 	H 	0.56060 0.95620 0.29310 0.00400
H 	H 	0.57800 0.61680 0.71000 0.03300
H 	H 	0.67220 0.11500 0.25030 0.10500
H 	H 	0.64610 0.52470 0.95090 -0.00700
H 	H 	0.52150 0.76950 0.79420 0.00800
H 	H 	0.41820 0.85530 0.53080 0.09700
H 	H 	0.20320 0.40570 0.71600 0.02800
H 	H 	0.12740 0.28740 0.56290 0.02000
H 	H 	0.85370 0.29310 0.75070 0.00400
H 	H 	0.28800 0.71000 0.67320 0.03300
H 	H 	0.92250 0.25030 0.63470 0.10500
H 	H 	0.59700 0.95090 0.52440 -0.00700
H 	H 	0.31570 0.79420 0.43630 0.00800
H 	H 	0.94900 0.53080 0.61390 0.09700
H 	H 	0.91920 0.71600 0.87830 0.02800
H 	H 	0.69030 0.56290 0.14970 0.02000
H 	H 	0.60440 0.75070 0.95620 0.00400
H 	H 	0.96120 0.67320 0.61680 0.03200
H 	H 	0.55720 0.63470 0.11500 0.10500
H 	H 	0.12140 0.52440 0.52470 -0.00700
C 	C 	0.33440 0.47460 0.27430 -0.14100
C 	C 	0.28620 0.52720 0.21320 0.08500
C 	C 	0.33260 0.09960 0.64390 -0.15100
C 	C 	0.39840 0.42150 0.16390 -0.14900
C 	C 	0.23000 0.07390 0.62420 0.09500
C 	C 	0.20440 0.91440 0.69420 0.10700
C 	C 	0.32710 0.48000 0.36640 0.40600
C 	C 	0.37100 0.02880 0.69190 0.09500
C 	C 	0.39030 0.42000 0.24970 0.08700
C 	C 	0.39810 0.20520 0.61300 0.41900
C 	C 	0.30440 0.93460 0.71710 -0.15500
C 	C 	0.34850 0.47550 0.10660 0.09100
C 	C 	0.60870 0.27430 0.25110 -0.14100
C 	C 	0.49940 0.21320 0.25960 0.08500
C 	C 	0.97650 0.64390 0.25650 -0.14900
C 	C 	0.56230 0.16390 0.41460 -0.14900
C 	C 	0.85420 0.62420 0.30190 0.09400
C 	C 	0.89860 0.69420 0.39140 0.10700
C 	C 	0.69350 0.36640 0.15360 0.40600
C 	C 	0.06290 0.69190 0.27930 0.09400
C 	C 	0.64000 0.24970 0.33030 0.08700
C 	C 	0.01110 0.61300 0.18180 0.41600
C 	C 	0.02150 0.71710 0.34830 -0.15600
C 	C 	0.45510 0.10660 0.41790 0.09100
C 	C 	0.85980 0.25110 0.47460 -0.14100
C 	C 	0.75900 0.25960 0.52720 0.08500
C 	C 	0.23300 0.25650 0.09960 -0.15100
C 	C 	0.97690 0.41460 0.42150 -0.14900
C 	C 	0.15610 0.30190 0.07390 0.09500
C 	C 	0.29000 0.39140 0.91440 0.10700
C 	C 	0.84710 0.15360 0.48000 0.40600
C 	C 	0.34220 0.27930 0.02880 0.09500
C 	C 	0.97030 0.33030 0.42000 0.08700
C 	C 	0.19290 0.18180 0.20520 0.41900
C 	C 	0.36980 0.34830 0.93460 -0.15500
C 	C 	0.87300 0.41790 0.47550 0.09100
C 	C 	0.66560 0.52540 0.72570 -0.14100
C 	C 	0.71380 0.47280 0.78680 0.08500
C 	C 	0.66740 0.90040 0.35610 -0.15100
C 	C 	0.60160 0.57850 0.83610 -0.14900
C 	C 	0.77000 0.92610 0.37580 0.09500
C 	C 	0.79560 0.08560 0.30580 0.10700
C 	C 	0.67290 0.52000 0.63360 0.40600
C 	C 	0.62900 0.97120 0.30810 0.09500
C 	C 	0.60970 0.58000 0.75030 0.08700
C 	C 	0.60190 0.79480 0.38700 0.41900
C 	C 	0.69560 0.06540 0.28290 -0.15500
C 	C 	0.65150 0.52450 0.89340 0.09100
C 	C 	0.39130 0.72570 0.74890 -0.14100
C 	C 	0.50060 0.78680 0.74040 0.08500
C 	C 	0.02350 0.35610 0.74350 -0.14900
C 	C 	0.43770 0.83610 0.58540 -0.14900
C 	C 	0.14580 0.37580 0.69810 0.09400
C 	C 	0.10140 0.30580 0.60860 0.10700
C 	C 	0.30650 0.63360 0.84640 0.40600
C 	C 	0.93710 0.30810 0.72070 0.09400
C 	C 	0.36000 0.75030 0.66970 0.08700
C 	C 	0.98890 0.38700 0.81820 0.41600
C 	C 	0.97850 0.28290 0.65170 -0.15600
C 	C 	0.54490 0.89340 0.58210 0.09100
C 	C 	0.14020 0.74890 0.52540 -0.14100
C 	C 	0.24100 0.74040 0.47280 0.08500
C 	C 	0.76700 0.74350 0.90040 -0.15100
C 	C 	0.02310 0.58540 0.57850 -0.14900
C 	C 	0.84390 0.69810 0.92610 0.09500
C 	C 	0.71000 0.60860 0.08560 0.10700
C 	C 	0.15290 0.84640 0.52000 0.40600
C 	C 	0.65780 0.72070 0.97120 0.09500
C 	C 	0.02970 0.66970 0.58000 0.08700
C 	C 	0.80710 0.81820 0.79480 0.41900
C 	C 	0.63020 0.65170 0.06540 -0.15500
C 	C 	0.12700 0.58210 0.52450 0.09100
N 	N 	0.29290 0.52750 0.13040 -0.23700
N 	N 	0.16820 0.98310 0.64590 -0.23300
N 	N 	0.57860 0.44930 0.48210 -0.36700
N 	N 	0.60350 0.43190 0.41460 -0.06200
N 	N 	0.62400 0.41820 0.35260 -0.06000
N 	N 	0.42330 0.13040 0.34210 -0.23700
N 	N 	0.81410 0.64590 0.37100 -0.23300
N 	N 	0.06070 0.48210 0.06860 -0.36700
N 	N 	0.01810 0.41460 0.15350 -0.06300
N 	N 	0.97660 0.35260 0.22920 -0.05900
N 	N 	0.76540 0.34210 0.52750 -0.23700
N 	N 	0.18510 0.37100 0.98310 -0.23200
N 	N 	0.12930 0.06860 0.44930 -0.36600
N 	N 	0.17160 0.15350 0.43190 -0.06200
N 	N 	0.20580 0.22920 0.41820 -0.06000
N 	N 	0.70710 0.47250 0.86960 -0.23700
N 	N 	0.83180 0.01690 0.35410 -0.23300
N 	N 	0.42140 0.55070 0.51790 -0.36700
N 	N 	0.39650 0.56810 0.58540 -0.06200
N 	N 	0.37600 0.58180 0.64740 -0.06000
N 	N 	0.57670 0.86960 0.65790 -0.23700
N 	N 	0.18590 0.35410 0.62900 -0.23300
N 	N 	0.93930 0.51790 0.93140 -0.36700
N 	N 	0.98190 0.58540 0.84650 -0.06300
N 	N 	0.02340 0.64740 0.77080 -0.05900
N 	N 	0.23460 0.65790 0.47250 -0.23700
N 	N 	0.81490 0.62900 0.01690 -0.23200
N 	N 	0.87070 0.93140 0.55070 -0.36600
N 	N 	0.82840 0.84650 0.56810 -0.06200
N 	N 	0.79420 0.77080 0.58180 -0.06000
Cl	Cl	0.41352 0.35615 0.70509 -0.59900
Cl	Cl	0.11861 0.70509 0.93876 -0.59800
Cl	Cl	0.05737 0.93876 0.35615 -0.60000
Cl	Cl	0.58648 0.64385 0.29491 -0.59900
Cl	Cl	0.88139 0.29491 0.06124 -0.59800
Cl	Cl	0.94263 0.06124 0.64385 -0.60000
O 	O 	0.34700 0.26080 0.58130 -0.42900
O 	O 	0.35870 0.42340 0.42320 -0.43300
O 	O 	0.49950 0.22710 0.62080 -0.46200
O 	O 	0.29270 0.54320 0.37500 -0.47100
O 	O 	0.92830 0.58130 0.15790 -0.42800
O 	O 	0.78190 0.42320 0.15340 -0.43300
O 	O 	0.12030 0.62080 0.15210 -0.46200
O 	O 	0.66770 0.37500 0.08180 -0.47000
O 	O 	0.08620 0.15790 0.26080 -0.42900
O 	O 	0.93530 0.15340 0.42340 -0.43300
O 	O 	0.27240 0.15210 0.22710 -0.46200
O 	O 	0.74950 0.08180 0.54320 -0.47100
O 	O 	0.65300 0.73920 0.41870 -0.42900
O 	O 	0.64130 0.57660 0.57680 -0.43300
O 	O 	0.50050 0.77290 0.37920 -0.46200
O 	O 	0.70730 0.45680 0.62500 -0.47100
O 	O 	0.07170 0.41870 0.84210 -0.42800
O 	O 	0.21810 0.57680 0.84660 -0.43300
O 	O 	0.87970 0.37920 0.84790 -0.46200
O 	O 	0.33230 0.62500 0.91820 -0.47000
O 	O 	0.91380 0.84210 0.73920 -0.42900
O 	O 	0.06470 0.84660 0.57660 -0.43300
O 	O 	0.72760 0.84790 0.77290 -0.46200
O 	O 	0.25050 0.91820 0.45680 -0.47100
