data_crystal

_cell_length_a 13.66800
_cell_length_b 17.52500
_cell_length_c 19.05900
_cell_angle_alpha 90.00000
_cell_angle_beta  90.00000
_cell_angle_gamma 90.00000

_symmetry_space_group_name_	'P 1'
_symmetry_space_group_name_H-M	'P 1'

loop_
_symmetry_equiv_pos_as_xyz
  x,y,z

loop_
_atom_site_label
_atom_site_type_symbol
_atom_site_fract_x
_atom_site_fract_y
_atom_site_fract_z
_atom_site_charge
Cu	Cu	0.43001 0.13977 0.60977 0.90000
O 	O 	0.52401 0.11773 0.68530 -0.35700
O 	O 	0.56210 0.99570 0.66380 -0.17700
O 	O 	0.56942 0.04848 0.92371 -0.38700
O 	O 	0.49020 0.01612 0.82526 -0.26900
O 	O 	0.33732 0.31384 0.04337 -0.38000
O 	O 	0.31640 0.21848 0.11941 -0.28300
O 	O 	0.25270 0.02286 0.99433 -0.25600
O 	O 	0.36970 0.11169 0.99723 -0.27400
N 	N 	0.81960 0.10564 0.82728 -0.20600
N 	N 	0.04340 0.18052 0.94702 -0.20800
C 	C 	0.73560 0.08211 0.85602 0.06900
H 	H 	0.73280 0.07760 0.90460 0.03000
C 	C 	0.65250 0.06405 0.81799 -0.08900
C 	C 	0.56180 0.04040 0.85782 0.34500
C 	C 	0.65760 0.06804 0.74465 0.02600
C 	C 	0.57230 0.05680 0.69495 0.24400
C 	C 	0.74660 0.08960 0.71525 -0.08900
H 	H 	0.75320 0.09120 0.66670 0.08200
C 	C 	0.82500 0.10870 0.75688 0.07200
H 	H 	0.88320 0.12400 0.73590 0.04000
C 	C 	0.11870 0.13250 0.95771 0.04200
H 	H 	0.11360 0.08320 0.93990 0.01600
C 	C 	0.20360 0.15170 0.99374 -0.01700
C 	C 	0.28310 0.09120 0.99696 0.30000
C 	C 	0.21100 0.22580 0.02048 -0.04600
C 	C 	0.29660 0.25240 0.06544 0.31000
C 	C 	0.13280 0.27520 0.00949 -0.11100
H 	H 	0.13580 0.32490 0.02640 0.07600
C 	C 	0.05111 0.25105 0.97374 0.05600
H 	H 	0.99930 0.28490 0.96790 0.06500
Cu	Cu	0.06999 0.86023 0.10977 0.89100
O 	O 	0.97599 0.88227 0.18530 -0.36800
O 	O 	0.93790 0.00430 0.16380 -0.30700
O 	O 	0.93058 0.95152 0.42371 -0.36900
O 	O 	0.00980 0.98388 0.32526 -0.28600
O 	O 	0.16268 0.68616 0.54337 -0.37200
O 	O 	0.18360 0.78152 0.61941 -0.25800
O 	O 	0.24730 0.97714 0.49433 -0.22800
O 	O 	0.13030 0.88831 0.49723 -0.28800
N 	N 	0.68040 0.89436 0.32728 -0.20200
N 	N 	0.45660 0.81948 0.44702 -0.20400
C 	C 	0.76440 0.91789 0.35602 0.07100
H 	H 	0.76720 0.92240 0.40460 0.03900
C 	C 	0.84750 0.93595 0.31799 -0.07300
C 	C 	0.93820 0.95960 0.35782 0.38900
C 	C 	0.84240 0.93196 0.24465 0.00200
C 	C 	0.92770 0.94320 0.19495 0.38000
C 	C 	0.75340 0.91040 0.21525 -0.06500
H 	H 	0.74680 0.90880 0.16670 0.07800
C 	C 	0.67500 0.89130 0.25688 0.06900
H 	H 	0.61680 0.87600 0.23590 0.03400
C 	C 	0.38130 0.86750 0.45771 0.05400
H 	H 	0.38640 0.91680 0.43990 0.03100
C 	C 	0.29640 0.84830 0.49374 -0.06700
C 	C 	0.21690 0.90880 0.49696 0.31100
C 	C 	0.28900 0.77420 0.52048 0.01100
C 	C 	0.20340 0.74760 0.56544 0.29900
C 	C 	0.36720 0.72480 0.50949 -0.08500
H 	H 	0.36420 0.67510 0.52640 0.08300
C 	C 	0.44889 0.74895 0.47374 0.06900
H 	H 	0.50070 0.71510 0.46790 0.02400
Cu	Cu	0.56999 0.63977 0.89023 0.90700
O 	O 	0.47599 0.61773 0.81470 -0.36900
O 	O 	0.43790 0.49570 0.83620 -0.24100
O 	O 	0.43058 0.54848 0.57629 -0.39500
O 	O 	0.50980 0.51612 0.67474 -0.25700
O 	O 	0.66268 0.81384 0.45663 -0.35600
O 	O 	0.68360 0.71848 0.38059 -0.25800
O 	O 	0.74730 0.52286 0.50567 -0.25000
O 	O 	0.63030 0.61169 0.50277 -0.29500
N 	N 	0.18040 0.60564 0.67272 -0.21000
N 	N 	0.95660 0.68052 0.55298 -0.21200
C 	C 	0.26440 0.58211 0.64398 0.06700
H 	H 	0.26720 0.57760 0.59540 0.02900
C 	C 	0.34750 0.56405 0.68201 -0.07800
C 	C 	0.43820 0.54040 0.64218 0.34500
C 	C 	0.34240 0.56804 0.75535 0.01100
C 	C 	0.42770 0.55680 0.80505 0.31100
C 	C 	0.25340 0.58960 0.78475 -0.07600
H 	H 	0.24680 0.59120 0.83330 0.08000
C 	C 	0.17500 0.60870 0.74312 0.07000
H 	H 	0.11680 0.62400 0.76410 0.02700
C 	C 	0.88130 0.63250 0.54229 0.06800
H 	H 	0.88640 0.58320 0.56010 0.02100
C 	C 	0.79640 0.65170 0.50626 -0.08300
C 	C 	0.71690 0.59120 0.50304 0.31700
C 	C 	0.78900 0.72580 0.47952 0.03700
C 	C 	0.70340 0.75240 0.43456 0.28900
C 	C 	0.86720 0.77520 0.49051 -0.13500
H 	H 	0.86420 0.82490 0.47360 0.11000
C 	C 	0.94889 0.75105 0.52626 0.16400
H 	H 	0.00070 0.78490 0.53210 -0.03200
Cu	Cu	0.93001 0.36023 0.39023 0.91800
O 	O 	0.02401 0.38227 0.31470 -0.39700
O 	O 	0.06210 0.50430 0.33620 -0.26500
O 	O 	0.06942 0.45152 0.07629 -0.40300
O 	O 	0.99020 0.48388 0.17474 -0.21200
O 	O 	0.83732 0.18616 0.95663 -0.35200
O 	O 	0.81640 0.28152 0.88059 -0.24700
O 	O 	0.75270 0.47714 0.00567 -0.27000
O 	O 	0.86970 0.38831 0.00277 -0.30500
N 	N 	0.31960 0.39436 0.17272 -0.20600
N 	N 	0.54340 0.31948 0.05298 -0.20300
C 	C 	0.23560 0.41789 0.14398 0.05800
H 	H 	0.23280 0.42240 0.09540 0.02600
C 	C 	0.15250 0.43595 0.18201 -0.06700
C 	C 	0.06180 0.45960 0.14218 0.28900
C 	C 	0.15760 0.43196 0.25535 -0.00600
C 	C 	0.07230 0.44320 0.30505 0.31600
C 	C 	0.24660 0.41040 0.28475 -0.06900
H 	H 	0.25320 0.40880 0.33330 0.07500
C 	C 	0.32500 0.39130 0.24312 0.06100
H 	H 	0.38320 0.37600 0.26410 0.03400
C 	C 	0.61870 0.36750 0.04229 0.06300
H 	H 	0.61360 0.41680 0.06010 0.01400
C 	C 	0.70360 0.34830 0.00626 -0.12000
C 	C 	0.78310 0.40880 0.00304 0.32200
C 	C 	0.71100 0.27420 0.97952 0.04600
C 	C 	0.79660 0.24760 0.93456 0.29400
C 	C 	0.63280 0.22480 0.99051 -0.02500
H 	H 	0.63580 0.17510 0.97360 0.06900
C 	C 	0.55111 0.24895 0.02626 -0.00000
H 	H 	0.49930 0.21510 0.03210 0.03000
Cu	Cu	0.56999 0.86023 0.39023 0.90900
O 	O 	0.47599 0.88227 0.31470 -0.38800
O 	O 	0.43790 0.00430 0.33620 -0.31900
O 	O 	0.43058 0.95152 0.07629 -0.38400
O 	O 	0.50980 0.98388 0.17474 -0.24300
O 	O 	0.66268 0.68616 0.95663 -0.35000
O 	O 	0.68360 0.78152 0.88059 -0.24000
O 	O 	0.74730 0.97714 0.00567 -0.24500
O 	O 	0.63030 0.88831 0.00277 -0.30400
N 	N 	0.18040 0.89436 0.17272 -0.20600
N 	N 	0.95660 0.81948 0.05298 -0.20800
C 	C 	0.26440 0.91789 0.14398 0.06300
H 	H 	0.26720 0.92240 0.09540 0.03200
C 	C 	0.34750 0.93595 0.18201 -0.06400
C 	C 	0.43820 0.95960 0.14218 0.33900
C 	C 	0.34240 0.93196 0.25535 -0.01000
C 	C 	0.42770 0.94320 0.30505 0.38300
C 	C 	0.25340 0.91040 0.28475 -0.06000
H 	H 	0.24680 0.90880 0.33330 0.07500
C 	C 	0.17500 0.89130 0.24312 0.06400
H 	H 	0.11680 0.87600 0.26410 0.02700
C 	C 	0.88130 0.86750 0.04229 0.07300
H 	H 	0.88640 0.91680 0.06010 0.02500
C 	C 	0.79640 0.84830 0.00626 -0.12500
C 	C 	0.71690 0.90880 0.00304 0.32400
C 	C 	0.78900 0.77420 0.97952 0.07100
C 	C 	0.70340 0.74760 0.93456 0.28500
C 	C 	0.86720 0.72480 0.99051 -0.08400
H 	H 	0.86420 0.67510 0.97360 0.09800
C 	C 	0.94889 0.74895 0.02626 0.10900
H 	H 	0.00070 0.71510 0.03210 -0.03100
Cu	Cu	0.93001 0.13977 0.89023 0.91500
O 	O 	0.02401 0.11773 0.81470 -0.37600
O 	O 	0.06210 0.99570 0.83620 -0.18700
O 	O 	0.06942 0.04848 0.57629 -0.40400
O 	O 	0.99020 0.01612 0.67474 -0.22700
O 	O 	0.83732 0.31384 0.45663 -0.35800
O 	O 	0.81640 0.21848 0.38059 -0.26400
O 	O 	0.75270 0.02286 0.50567 -0.27400
O 	O 	0.86970 0.11169 0.50277 -0.29200
N 	N 	0.31960 0.10564 0.67272 -0.21000
N 	N 	0.54340 0.18052 0.55298 -0.20900
C 	C 	0.23560 0.08211 0.64398 0.06200
H 	H 	0.23280 0.07760 0.59540 0.02300
C 	C 	0.15250 0.06405 0.68201 -0.08100
C 	C 	0.06180 0.04040 0.64218 0.29600
C 	C 	0.15760 0.06804 0.75535 0.01500
C 	C 	0.07230 0.05680 0.80505 0.24600
C 	C 	0.24660 0.08960 0.78475 -0.08500
H 	H 	0.25320 0.09120 0.83330 0.08000
C 	C 	0.32500 0.10870 0.74312 0.06700
H 	H 	0.38320 0.12400 0.76410 0.03400
C 	C 	0.61870 0.13250 0.54229 0.05900
H 	H 	0.61360 0.08320 0.56010 0.01000
C 	C 	0.70360 0.15170 0.50626 -0.07800
C 	C 	0.78310 0.09120 0.50304 0.31400
C 	C 	0.71100 0.22580 0.47952 0.01400
C 	C 	0.79660 0.25240 0.43456 0.29700
C 	C 	0.63280 0.27520 0.49051 -0.08900
H 	H 	0.63580 0.32490 0.47360 0.08400
C 	C 	0.55111 0.25105 0.52626 0.06900
H 	H 	0.49930 0.28490 0.53210 0.02300
Cu	Cu	0.43001 0.36023 0.10977 0.90100
O 	O 	0.52401 0.38227 0.18530 -0.37700
O 	O 	0.56210 0.50430 0.16380 -0.25500
O 	O 	0.56942 0.45152 0.42371 -0.39500
O 	O 	0.49020 0.48388 0.32526 -0.26000
O 	O 	0.33732 0.18616 0.54337 -0.37300
O 	O 	0.31640 0.28152 0.61941 -0.26400
O 	O 	0.25270 0.47714 0.49433 -0.25500
O 	O 	0.36970 0.38831 0.49723 -0.29400
N 	N 	0.81960 0.39436 0.32728 -0.20200
N 	N 	0.04340 0.31948 0.44702 -0.20100
C 	C 	0.73560 0.41789 0.35602 0.06600
H 	H 	0.73280 0.42240 0.40460 0.03200
C 	C 	0.65250 0.43595 0.31799 -0.07700
C 	C 	0.56180 0.45960 0.35782 0.34300
C 	C 	0.65760 0.43196 0.24465 0.00600
C 	C 	0.57230 0.44320 0.19495 0.31500
C 	C 	0.74660 0.41040 0.21525 -0.07300
H 	H 	0.75320 0.40880 0.16670 0.07800
C 	C 	0.82500 0.39130 0.25688 0.06600
H 	H 	0.88320 0.37600 0.23590 0.04100
C 	C 	0.11870 0.36750 0.45771 0.04500
H 	H 	0.11360 0.41680 0.43990 0.01900
C 	C 	0.20360 0.34830 0.49374 -0.06300
C 	C 	0.28310 0.40880 0.49696 0.30900
C 	C 	0.21100 0.27420 0.52048 -0.01300
C 	C 	0.29660 0.24760 0.56544 0.30700
C 	C 	0.13280 0.22480 0.50949 -0.03700
H 	H 	0.13580 0.17510 0.52640 0.05700
C 	C 	0.05111 0.24895 0.47374 -0.02900
H 	H 	0.99930 0.21510 0.46790 0.08100
Cu	Cu	0.06999 0.63977 0.60977 0.89000
O 	O 	0.97599 0.61773 0.68530 -0.35000
O 	O 	0.93790 0.49570 0.66380 -0.23200
O 	O 	0.93058 0.54848 0.92371 -0.37200
O 	O 	0.00980 0.51612 0.82526 -0.29500
O 	O 	0.16268 0.81384 0.04337 -0.37900
O 	O 	0.18360 0.71848 0.11941 -0.27700
O 	O 	0.24730 0.52286 0.99433 -0.23000
O 	O 	0.13030 0.61169 0.99723 -0.27200
N 	N 	0.68040 0.60564 0.82728 -0.20600
N 	N 	0.45660 0.68052 0.94702 -0.21000
C 	C 	0.76440 0.58211 0.85602 0.07400
H 	H 	0.76720 0.57760 0.90460 0.03600
C 	C 	0.84750 0.56405 0.81799 -0.08500
C 	C 	0.93820 0.54040 0.85782 0.38900
C 	C 	0.84240 0.56804 0.74465 0.02100
C 	C 	0.92770 0.55680 0.69495 0.31000
C 	C 	0.75340 0.58960 0.71525 -0.08000
H 	H 	0.74680 0.59120 0.66670 0.08200
C 	C 	0.67500 0.60870 0.75688 0.07400
H 	H 	0.61680 0.62400 0.73590 0.03400
C 	C 	0.38130 0.63250 0.95771 0.04900
H 	H 	0.38640 0.58320 0.93990 0.02800
C 	C 	0.29640 0.65170 0.99374 -0.02100
C 	C 	0.21690 0.59120 0.99696 0.30200
C 	C 	0.28900 0.72580 0.02048 -0.02500
C 	C 	0.20340 0.75240 0.06544 0.30300
C 	C 	0.36720 0.77520 0.00949 -0.14700
H 	H 	0.36420 0.82490 0.02640 0.09900
C 	C 	0.44889 0.75105 0.97374 0.13800
H 	H 	0.50070 0.78490 0.96790 0.01700
Cu	Cu	0.50000 0.00000 -0.00000 0.85900
Cu	Cu	-0.00000 -0.00000 0.50000 0.86200
Cu	Cu	0.50000 0.50000 0.50000 0.90000
Cu	Cu	-0.00000 0.50000 -0.00000 0.86500
