data_crystal

_cell_length_a 17.53280
_cell_length_b 30.35140
_cell_length_c 49.18180
_cell_angle_alpha 90.00000
_cell_angle_beta  90.00000
_cell_angle_gamma 90.00000

_symmetry_space_group_name_	'P 1'
_symmetry_space_group_name_H-M	'P 1'

loop_
_symmetry_equiv_pos_as_xyz
  x,y,z

loop_
_atom_site_label
_atom_site_type_symbol
_atom_site_fract_x
_atom_site_fract_y
_atom_site_fract_z
_atom_site_charge
Cu	Cu	0.18502 0.72810 0.66665 0.90700
C 	C 	0.34550 0.99530 0.94151 -0.05800
C 	C 	0.32390 0.95410 0.93183 0.05500
C 	C 	0.26840 0.95080 0.91173 -0.00200
C 	C 	0.23470 0.98860 0.90131 0.02500
C 	C 	0.25630 0.02980 0.91100 -0.00600
C 	C 	0.31180 0.03320 0.93110 0.04800
C 	C 	0.17800 0.83270 0.72494 -0.06400
C 	C 	0.22910 0.86350 0.73520 0.05500
C 	C 	0.20660 0.89210 0.75570 -0.00300
C 	C 	0.13290 0.88980 0.76609 0.02400
C 	C 	0.08180 0.85900 0.75590 -0.00400
C 	C 	0.10430 0.83040 0.73530 0.04900
C 	C 	0.20530 0.79570 0.63510 0.33000
C 	C 	0.20360 0.79820 0.70100 0.33000
C 	C 	0.40500 0.99980 0.96707 0.36600
O 	O 	0.42880 0.96170 0.97115 -0.41200
O 	O 	0.15580 0.77300 0.69505 -0.40200
O 	O 	0.15390 0.76490 0.63831 -0.38800
O 	O 	0.26680 0.80730 0.63969 -0.41100
O 	O 	0.22450 0.69167 0.69532 -0.38000
O 	O 	0.41900 0.03780 0.97178 -0.40700
C 	C 	0.20650 0.96800 0.85143 -0.06000
C 	C 	0.19080 0.99580 0.87314 0.07600
C 	C 	0.12460 0.02110 0.87311 -0.02700
C 	C 	0.07420 0.01840 0.85136 -0.00600
C 	C 	0.08990 0.99050 0.82965 0.01800
C 	C 	0.15610 0.96530 0.82968 0.01700
C 	C 	0.17180 0.93740 0.80797 0.04100
C 	C 	0.12140 0.93480 0.78623 -0.07800
C 	C 	0.05520 0.96000 0.78619 0.17700
C 	C 	0.03950 0.98790 0.80790 -0.06400
O 	O 	0.00220 0.95830 0.76590 -0.24200
O 	O 	0.06880 0.01000 0.73200 -0.23200
C 	C 	0.82460 0.94310 0.14120 0.05200
C 	C 	0.84700 0.96920 0.11937 -0.05400
C 	C 	0.91840 0.98910 0.11941 0.12600
C 	C 	0.96750 0.98280 0.14126 0.02200
C 	C 	0.94520 0.95670 0.16306 0.00600
C 	C 	0.87380 0.93680 0.16302 -0.02300
C 	C 	0.85140 0.91070 0.18480 -0.00000
C 	C 	0.90050 0.90450 0.20667 0.02200
C 	C 	0.97200 0.92430 0.20671 0.01400
C 	C 	0.99430 0.95040 0.18490 0.01600
O 	O 	0.97980 0.95950 0.06490 -0.17500
O 	O 	0.93810 0.98120 0.90380 -0.20200
Cu	Cu	0.68502 0.22810 0.66665 0.90700
C 	C 	0.84550 0.49530 0.94151 -0.06300
C 	C 	0.82390 0.45410 0.93183 0.06100
C 	C 	0.76840 0.45080 0.91173 0.00100
C 	C 	0.73470 0.48860 0.90131 0.02000
C 	C 	0.75630 0.52980 0.91100 0.00700
C 	C 	0.81180 0.53320 0.93110 0.05900
C 	C 	0.67800 0.33270 0.72494 -0.06300
C 	C 	0.72910 0.36350 0.73520 0.05900
C 	C 	0.70660 0.39210 0.75570 0.00000
C 	C 	0.63290 0.38980 0.76609 0.02400
C 	C 	0.58180 0.35900 0.75590 0.00000
C 	C 	0.60430 0.33040 0.73530 0.05200
C 	C 	0.70530 0.29570 0.63510 0.33300
C 	C 	0.70360 0.29820 0.70100 0.33000
C 	C 	0.90500 0.49980 0.96707 0.35500
O 	O 	0.92880 0.46170 0.97115 -0.39300
O 	O 	0.65580 0.27300 0.69505 -0.39900
O 	O 	0.65390 0.26490 0.63831 -0.38400
O 	O 	0.76680 0.30730 0.63969 -0.40700
O 	O 	0.72450 0.19167 0.69532 -0.37800
O 	O 	0.91900 0.53780 0.97178 -0.38200
C 	C 	0.70650 0.46800 0.85143 -0.04000
C 	C 	0.69080 0.49580 0.87314 0.04800
C 	C 	0.62460 0.52110 0.87311 0.00100
C 	C 	0.57420 0.51840 0.85136 0.01600
C 	C 	0.58990 0.49050 0.82965 -0.00300
C 	C 	0.65610 0.46530 0.82968 0.02100
C 	C 	0.67180 0.43740 0.80797 0.03100
C 	C 	0.62140 0.43480 0.78623 -0.06100
C 	C 	0.55520 0.46000 0.78619 0.15400
C 	C 	0.53950 0.48790 0.80790 -0.02300
O 	O 	0.50220 0.45830 0.76590 -0.23700
O 	O 	0.56880 0.51000 0.73200 -0.22500
C 	C 	0.32460 0.44310 0.14120 0.06000
C 	C 	0.34700 0.46920 0.11937 -0.06000
C 	C 	0.41840 0.48910 0.11941 0.13200
C 	C 	0.46750 0.48280 0.14126 -0.03000
C 	C 	0.44520 0.45670 0.16306 0.02800
C 	C 	0.37380 0.43680 0.16302 -0.03500
C 	C 	0.35140 0.41070 0.18480 -0.00600
C 	C 	0.40050 0.40450 0.20667 0.03200
C 	C 	0.47200 0.42430 0.20671 0.00200
C 	C 	0.49430 0.45040 0.18490 0.00400
O 	O 	0.47980 0.45950 0.06490 -0.21700
O 	O 	0.43810 0.48120 0.90380 -0.24400
Cu	Cu	0.81498 0.27190 0.66665 0.90900
C 	C 	0.65450 0.00470 0.94151 -0.07100
C 	C 	0.67610 0.04590 0.93183 0.05700
C 	C 	0.73160 0.04920 0.91173 -0.00100
C 	C 	0.76530 0.01140 0.90131 0.01500
C 	C 	0.74370 0.97020 0.91100 0.01300
C 	C 	0.68820 0.96680 0.93110 0.06300
C 	C 	0.82200 0.16730 0.72494 -0.06300
C 	C 	0.77090 0.13650 0.73520 0.05500
C 	C 	0.79340 0.10790 0.75570 -0.00300
C 	C 	0.86710 0.11020 0.76609 0.02400
C 	C 	0.91820 0.14100 0.75590 0.00800
C 	C 	0.89570 0.16960 0.73530 0.05800
C 	C 	0.79470 0.20430 0.63510 0.33600
C 	C 	0.79640 0.20180 0.70100 0.33100
C 	C 	0.59500 0.00020 0.96707 0.34700
O 	O 	0.57120 0.03830 0.97115 -0.40800
O 	O 	0.84420 0.22700 0.69505 -0.39500
O 	O 	0.84610 0.23510 0.63831 -0.37900
O 	O 	0.73320 0.19270 0.63969 -0.41100
O 	O 	0.77550 0.30833 0.69532 -0.37500
O 	O 	0.58100 0.96220 0.97178 -0.39000
C 	C 	0.79350 0.03200 0.85143 -0.02300
C 	C 	0.80920 0.00420 0.87314 0.01400
C 	C 	0.87540 0.97890 0.87311 0.02600
C 	C 	0.92580 0.98160 0.85136 0.03300
C 	C 	0.91010 0.00950 0.82965 -0.02200
C 	C 	0.84390 0.03470 0.82968 0.01900
C 	C 	0.82820 0.06260 0.80797 0.01700
C 	C 	0.87860 0.06520 0.78623 -0.04200
C 	C 	0.94480 0.04000 0.78619 0.12500
C 	C 	0.96050 0.01210 0.80790 0.01800
O 	O 	0.99780 0.04170 0.76590 -0.20400
O 	O 	0.93120 0.99000 0.73200 -0.18400
C 	C 	0.17540 0.05690 0.14120 0.06800
C 	C 	0.15300 0.03080 0.11937 -0.06500
C 	C 	0.08160 0.01090 0.11941 0.13400
C 	C 	0.03250 0.01720 0.14126 -0.08200
C 	C 	0.05480 0.04330 0.16306 0.05200
C 	C 	0.12620 0.06320 0.16302 -0.05000
C 	C 	0.14860 0.08930 0.18480 -0.00700
C 	C 	0.09950 0.09550 0.20667 0.03900
C 	C 	0.02800 0.07570 0.20671 -0.01100
C 	C 	0.00570 0.04960 0.18490 -0.01300
O 	O 	0.02020 0.04050 0.06490 -0.22300
O 	O 	0.06190 0.01880 0.90380 -0.25400
Cu	Cu	0.31498 0.77190 0.66665 0.90800
C 	C 	0.15450 0.50470 0.94151 -0.06800
C 	C 	0.17610 0.54590 0.93183 0.05100
C 	C 	0.23160 0.54920 0.91173 -0.00400
C 	C 	0.26530 0.51140 0.90131 0.02000
C 	C 	0.24370 0.47020 0.91100 0.00100
C 	C 	0.18820 0.46680 0.93110 0.05000
C 	C 	0.32200 0.66730 0.72494 -0.06400
C 	C 	0.27090 0.63650 0.73520 0.05200
C 	C 	0.29340 0.60790 0.75570 -0.00600
C 	C 	0.36710 0.61020 0.76609 0.02400
C 	C 	0.41820 0.64100 0.75590 0.00300
C 	C 	0.39570 0.66960 0.73530 0.05500
C 	C 	0.29470 0.70430 0.63510 0.33200
C 	C 	0.29640 0.70180 0.70100 0.33000
C 	C 	0.09500 0.50020 0.96707 0.35600
O 	O 	0.07120 0.53830 0.97115 -0.41900
O 	O 	0.34420 0.72700 0.69505 -0.39800
O 	O 	0.34610 0.73510 0.63831 -0.38300
O 	O 	0.23320 0.69270 0.63969 -0.41400
O 	O 	0.27550 0.80833 0.69532 -0.37700
O 	O 	0.08100 0.46220 0.97178 -0.40700
C 	C 	0.29350 0.53200 0.85143 -0.04400
C 	C 	0.30920 0.50420 0.87314 0.04200
C 	C 	0.37540 0.47890 0.87311 0.00000
C 	C 	0.42580 0.48160 0.85136 0.01300
C 	C 	0.41010 0.50950 0.82965 -0.00100
C 	C 	0.34390 0.53470 0.82968 0.01600
C 	C 	0.32820 0.56260 0.80797 0.02800
C 	C 	0.37860 0.56520 0.78623 -0.06400
C 	C 	0.44480 0.54000 0.78619 0.15300
C 	C 	0.46050 0.51210 0.80790 -0.02600
O 	O 	0.49780 0.54170 0.76590 -0.23500
O 	O 	0.43120 0.49000 0.73200 -0.22900
C 	C 	0.67540 0.55690 0.14120 0.06400
C 	C 	0.65300 0.53080 0.11937 -0.06400
C 	C 	0.58160 0.51090 0.11941 0.13400
C 	C 	0.53250 0.51720 0.14126 -0.03300
C 	C 	0.55480 0.54330 0.16306 0.03200
C 	C 	0.62620 0.56320 0.16302 -0.04100
C 	C 	0.64860 0.58930 0.18480 -0.00200
C 	C 	0.59950 0.59550 0.20667 0.03000
C 	C 	0.52800 0.57570 0.20671 0.00100
C 	C 	0.50570 0.54960 0.18490 -0.00000
O 	O 	0.52020 0.54050 0.06490 -0.21700
O 	O 	0.56190 0.51880 0.90380 -0.24300
Cu	Cu	0.81498 0.72810 0.33335 0.90900
C 	C 	0.65450 0.99530 0.05849 -0.05900
C 	C 	0.67610 0.95410 0.06817 0.05700
C 	C 	0.73160 0.95080 0.08827 0.00000
C 	C 	0.76530 0.98860 0.09869 0.02600
C 	C 	0.74370 0.02980 0.08900 0.00100
C 	C 	0.68820 0.03320 0.06890 0.05100
C 	C 	0.82200 0.83270 0.27506 -0.06200
C 	C 	0.77090 0.86350 0.26480 0.05700
C 	C 	0.79340 0.89210 0.24430 -0.00000
C 	C 	0.86710 0.88980 0.23391 0.02400
C 	C 	0.91820 0.85900 0.24410 0.00900
C 	C 	0.89570 0.83040 0.26470 0.05900
C 	C 	0.79470 0.79570 0.36490 0.33700
C 	C 	0.79640 0.79820 0.29900 0.33100
C 	C 	0.59500 0.99980 0.03293 0.36700
O 	O 	0.57120 0.96170 0.02885 -0.41200
O 	O 	0.84420 0.77300 0.30495 -0.39400
O 	O 	0.84610 0.76490 0.36169 -0.37800
O 	O 	0.73320 0.80730 0.36031 -0.40900
O 	O 	0.77550 0.69167 0.30468 -0.37400
O 	O 	0.58100 0.03780 0.02822 -0.40600
C 	C 	0.79350 0.96800 0.14857 -0.03400
C 	C 	0.80920 0.99580 0.12686 0.04600
C 	C 	0.87540 0.02110 0.12689 -0.00100
C 	C 	0.92580 0.01840 0.14864 0.01600
C 	C 	0.91010 0.99050 0.17035 -0.00200
C 	C 	0.84390 0.96530 0.17032 0.01600
C 	C 	0.82820 0.93740 0.19203 0.02400
C 	C 	0.87860 0.93480 0.21377 -0.04400
C 	C 	0.94480 0.96000 0.21381 0.12700
C 	C 	0.96050 0.98790 0.19210 0.02300
O 	O 	0.99780 0.95830 0.23410 -0.19900
O 	O 	0.93120 0.01000 0.26800 -0.19300
C 	C 	0.17540 0.94310 0.85880 0.08200
C 	C 	0.15300 0.96920 0.88063 -0.09200
C 	C 	0.08160 0.98910 0.88059 0.17100
C 	C 	0.03250 0.98280 0.85874 -0.07300
C 	C 	0.05480 0.95670 0.83694 0.03900
C 	C 	0.12620 0.93680 0.83698 -0.04900
C 	C 	0.14860 0.91070 0.81520 -0.01200
C 	C 	0.09950 0.90450 0.79333 0.04300
C 	C 	0.02800 0.92430 0.79329 -0.01400
C 	C 	0.00570 0.95040 0.81510 -0.00600
O 	O 	0.02020 0.95950 0.93510 -0.21700
O 	O 	0.06190 0.98120 0.09620 -0.24200
Cu	Cu	0.31498 0.22810 0.33335 0.90800
C 	C 	0.15450 0.49530 0.05849 -0.06800
C 	C 	0.17610 0.45410 0.06817 0.05100
C 	C 	0.23160 0.45080 0.08827 -0.00500
C 	C 	0.26530 0.48860 0.09869 0.01900
C 	C 	0.24370 0.52980 0.08900 0.00100
C 	C 	0.18820 0.53320 0.06890 0.05000
C 	C 	0.32200 0.33270 0.27506 -0.06400
C 	C 	0.27090 0.36350 0.26480 0.05200
C 	C 	0.29340 0.39210 0.24430 -0.00600
C 	C 	0.36710 0.38980 0.23391 0.02400
C 	C 	0.41820 0.35900 0.24410 0.00200
C 	C 	0.39570 0.33040 0.26470 0.05400
C 	C 	0.29470 0.29570 0.36490 0.33200
C 	C 	0.29640 0.29820 0.29900 0.33000
C 	C 	0.09500 0.49980 0.03293 0.35600
O 	O 	0.07120 0.46170 0.02885 -0.42000
O 	O 	0.34420 0.27300 0.30495 -0.39800
O 	O 	0.34610 0.26490 0.36169 -0.38400
O 	O 	0.23320 0.30730 0.36031 -0.41400
O 	O 	0.27550 0.19167 0.30468 -0.37800
O 	O 	0.08100 0.53780 0.02822 -0.40800
C 	C 	0.29350 0.46800 0.14857 -0.04400
C 	C 	0.30920 0.49580 0.12686 0.04300
C 	C 	0.37540 0.52110 0.12689 0.00000
C 	C 	0.42580 0.51840 0.14864 0.01300
C 	C 	0.41010 0.49050 0.17035 -0.00100
C 	C 	0.34390 0.46530 0.17032 0.01600
C 	C 	0.32820 0.43740 0.19203 0.02800
C 	C 	0.37860 0.43480 0.21377 -0.06400
C 	C 	0.44480 0.46000 0.21381 0.15300
C 	C 	0.46050 0.48790 0.19210 -0.02600
O 	O 	0.49780 0.45830 0.23410 -0.23500
O 	O 	0.43120 0.51000 0.26800 -0.22900
C 	C 	0.67540 0.44310 0.85880 0.06400
C 	C 	0.65300 0.46920 0.88063 -0.06400
C 	C 	0.58160 0.48910 0.88059 0.13400
C 	C 	0.53250 0.48280 0.85874 -0.03300
C 	C 	0.55480 0.45670 0.83694 0.03200
C 	C 	0.62620 0.43680 0.83698 -0.04100
C 	C 	0.64860 0.41070 0.81520 -0.00200
C 	C 	0.59950 0.40450 0.79333 0.03000
C 	C 	0.52800 0.42430 0.79329 0.00100
C 	C 	0.50570 0.45040 0.81510 -0.00000
O 	O 	0.52020 0.45950 0.93510 -0.21700
O 	O 	0.56190 0.48120 0.09620 -0.24300
Cu	Cu	0.18502 0.27190 0.33335 0.90600
C 	C 	0.34550 0.00470 0.05849 -0.07200
C 	C 	0.32390 0.04590 0.06817 0.05400
C 	C 	0.26840 0.04920 0.08827 -0.00400
C 	C 	0.23470 0.01140 0.09869 0.01300
C 	C 	0.25630 0.97020 0.08900 0.00600
C 	C 	0.31180 0.96680 0.06890 0.05800
C 	C 	0.17800 0.16730 0.27506 -0.06400
C 	C 	0.22910 0.13650 0.26480 0.05400
C 	C 	0.20660 0.10790 0.24430 -0.00500
C 	C 	0.13290 0.11020 0.23391 0.02400
C 	C 	0.08180 0.14100 0.24410 -0.00600
C 	C 	0.10430 0.16960 0.26470 0.04800
C 	C 	0.20530 0.20430 0.36490 0.32900
C 	C 	0.20360 0.20180 0.29900 0.33000
C 	C 	0.40500 0.00020 0.03293 0.34600
O 	O 	0.42880 0.03830 0.02885 -0.41000
O 	O 	0.15580 0.22700 0.30495 -0.40300
O 	O 	0.15390 0.23510 0.36169 -0.38900
O 	O 	0.26680 0.19270 0.36031 -0.41200
O 	O 	0.22450 0.30833 0.30468 -0.38100
O 	O 	0.41900 0.96220 0.02822 -0.39300
C 	C 	0.20650 0.03200 0.14857 -0.04800
C 	C 	0.19080 0.00420 0.12686 0.04000
C 	C 	0.12460 0.97890 0.12689 0.00300
C 	C 	0.07420 0.98160 0.14864 0.01400
C 	C 	0.08990 0.00950 0.17035 -0.00300
C 	C 	0.15610 0.03470 0.17032 0.02000
C 	C 	0.17180 0.06260 0.19203 0.03400
C 	C 	0.12140 0.06520 0.21377 -0.07600
C 	C 	0.05520 0.04000 0.21381 0.17500
C 	C 	0.03950 0.01210 0.19210 -0.06900
O 	O 	0.00220 0.04170 0.23410 -0.24800
O 	O 	0.06880 0.99000 0.26800 -0.22200
C 	C 	0.82460 0.05690 0.85880 0.04000
C 	C 	0.84700 0.03080 0.88063 -0.02900
C 	C 	0.91840 0.01090 0.88059 0.09200
C 	C 	0.96750 0.01720 0.85874 0.01300
C 	C 	0.94520 0.04330 0.83694 0.01900
C 	C 	0.87380 0.06320 0.83698 -0.02500
C 	C 	0.85140 0.08930 0.81520 0.00500
C 	C 	0.90050 0.09550 0.79333 0.01800
C 	C 	0.97200 0.07570 0.79329 0.01700
C 	C 	0.99430 0.04960 0.81510 0.01000
O 	O 	0.97980 0.04050 0.93510 -0.18000
O 	O 	0.93810 0.01880 0.09620 -0.21300
Cu	Cu	0.68502 0.77190 0.33335 0.90800
C 	C 	0.84550 0.50470 0.05849 -0.06300
C 	C 	0.82390 0.54590 0.06817 0.06000
C 	C 	0.76840 0.54920 0.08827 0.00100
C 	C 	0.73470 0.51140 0.09869 0.02000
C 	C 	0.75630 0.47020 0.08900 0.00600
C 	C 	0.81180 0.46680 0.06890 0.05900
C 	C 	0.67800 0.66730 0.27506 -0.06300
C 	C 	0.72910 0.63650 0.26480 0.05900
C 	C 	0.70660 0.60790 0.24430 0.00000
C 	C 	0.63290 0.61020 0.23391 0.02400
C 	C 	0.58180 0.64100 0.24410 0.00100
C 	C 	0.60430 0.66960 0.26470 0.05300
C 	C 	0.70530 0.70430 0.36490 0.33400
C 	C 	0.70360 0.70180 0.29900 0.33000
C 	C 	0.90500 0.50020 0.03293 0.35500
O 	O 	0.92880 0.53830 0.02885 -0.39400
O 	O 	0.65580 0.72700 0.30495 -0.39900
O 	O 	0.65390 0.73510 0.36169 -0.38300
O 	O 	0.76680 0.69270 0.36031 -0.40700
O 	O 	0.72450 0.80833 0.30468 -0.37700
O 	O 	0.91900 0.46220 0.02822 -0.38300
C 	C 	0.70650 0.53200 0.14857 -0.04000
C 	C 	0.69080 0.50420 0.12686 0.04800
C 	C 	0.62460 0.47890 0.12689 0.00100
C 	C 	0.57420 0.48160 0.14864 0.01600
C 	C 	0.58990 0.50950 0.17035 -0.00300
C 	C 	0.65610 0.53470 0.17032 0.02100
C 	C 	0.67180 0.56260 0.19203 0.03100
C 	C 	0.62140 0.56520 0.21377 -0.06100
C 	C 	0.55520 0.54000 0.21381 0.15400
C 	C 	0.53950 0.51210 0.19210 -0.02300
O 	O 	0.50220 0.54170 0.23410 -0.23700
O 	O 	0.56880 0.49000 0.26800 -0.22500
C 	C 	0.32460 0.55690 0.85880 0.06000
C 	C 	0.34700 0.53080 0.88063 -0.06000
C 	C 	0.41840 0.51090 0.88059 0.13200
C 	C 	0.46750 0.51720 0.85874 -0.03000
C 	C 	0.44520 0.54330 0.83694 0.02800
C 	C 	0.37380 0.56320 0.83698 -0.03500
C 	C 	0.35140 0.58930 0.81520 -0.00600
C 	C 	0.40050 0.59550 0.79333 0.03300
C 	C 	0.47200 0.57570 0.79329 0.00300
C 	C 	0.49430 0.54960 0.81510 0.00400
O 	O 	0.47980 0.54050 0.93510 -0.21700
O 	O 	0.43810 0.51880 0.09620 -0.24400
Cu	Cu	0.50000 0.95628 -0.00000 0.90600
Cu	Cu	-0.00000 0.45628 -0.00000 0.89000
Cu	Cu	0.50000 0.04372 -0.00000 0.90400
Cu	Cu	-0.00000 0.54372 -0.00000 0.89000
P 	P 	-0.00000 0.00000 0.74451 0.46100
P 	P 	0.00000 0.00000 0.07770 0.47800
P 	P 	0.50000 0.50000 0.74451 0.52300
P 	P 	0.50000 0.50000 0.07770 0.54200
P 	P 	-0.00000 0.00000 0.25549 0.46100
P 	P 	0.00000 0.00000 0.92230 0.47700
P 	P 	0.50000 0.50000 0.25549 0.52300
P 	P 	0.50000 0.50000 0.92230 0.54200
