data_crystal

_cell_length_a 10.33250
_cell_length_b 14.64050
_cell_length_c 9.51120
_cell_angle_alpha 90.00000
_cell_angle_beta  90.00000
_cell_angle_gamma 90.00000

_symmetry_space_group_name_	'P 1'
_symmetry_space_group_name_H-M	'P 1'

loop_
_symmetry_equiv_pos_as_xyz
  x,y,z

loop_
_atom_site_label
_atom_site_type_symbol
_atom_site_fract_x
_atom_site_fract_y
_atom_site_fract_z
_atom_site_charge
P 	P 	0.33900 0.77000 0.15700 0.69600
P 	P 	0.14600 0.61200 0.63200 0.66100
P 	P 	0.34300 0.41500 0.36900 0.80200
Al	Al	0.35400 0.60800 0.38700 2.39600
Al	Al	0.36600 0.89600 0.38300 2.39400
Al	Al	0.65100 0.75100 0.13900 2.38800
O 	O 	0.33800 0.69600 0.27200 -0.86100
O 	O 	0.31100 0.86400 0.21800 -0.76800
O 	O 	0.48200 0.75800 0.08600 -0.71600
O 	O 	0.24900 0.76400 0.01800 -0.69200
O 	O 	0.18200 0.63700 0.79000 -0.73500
O 	O 	0.13000 0.51200 0.61900 -0.87000
O 	O 	0.01500 0.66800 0.58800 -0.76300
O 	O 	0.25600 0.64300 0.53400 -0.74200
O 	O 	0.30000 0.50600 0.31700 -0.81300
O 	O 	0.33700 0.34900 0.24200 -0.78600
O 	O 	0.48200 0.41200 0.42500 -0.80700
O 	O 	0.25400 0.38100 0.48800 -0.78300
P 	P 	0.66100 0.23000 0.15700 0.69600
P 	P 	0.85400 0.38800 0.63200 0.66100
P 	P 	0.65700 0.58500 0.36900 0.80200
Al	Al	0.64600 0.39200 0.38700 2.39600
Al	Al	0.63400 0.10400 0.38300 2.39400
Al	Al	0.34900 0.24900 0.13900 2.38800
O 	O 	0.66200 0.30400 0.27200 -0.86100
O 	O 	0.68900 0.13600 0.21800 -0.76800
O 	O 	0.51800 0.24200 0.08600 -0.71600
O 	O 	0.75100 0.23600 0.01800 -0.69200
O 	O 	0.81800 0.36300 0.79000 -0.73500
O 	O 	0.87000 0.48800 0.61900 -0.87000
O 	O 	0.98500 0.33200 0.58800 -0.76300
O 	O 	0.74400 0.35700 0.53400 -0.74200
O 	O 	0.70000 0.49400 0.31700 -0.81300
O 	O 	0.66300 0.65100 0.24200 -0.78600
O 	O 	0.51800 0.58800 0.42500 -0.80700
O 	O 	0.74600 0.61900 0.48800 -0.78300
P 	P 	0.16100 0.27000 0.84300 0.69600
P 	P 	0.35400 0.11200 0.36800 0.66100
P 	P 	0.15700 0.91500 0.63100 0.80300
Al	Al	0.14600 0.10800 0.61300 2.39600
Al	Al	0.13400 0.39600 0.61700 2.39400
Al	Al	0.84900 0.25100 0.86100 2.38800
O 	O 	0.16200 0.19600 0.72800 -0.86200
O 	O 	0.18900 0.36400 0.78200 -0.76800
O 	O 	0.01800 0.25800 0.91400 -0.71700
O 	O 	0.25100 0.26400 0.98200 -0.69200
O 	O 	0.31800 0.13700 0.21000 -0.73600
O 	O 	0.37000 0.01200 0.38100 -0.87000
O 	O 	0.48500 0.16800 0.41200 -0.76300
O 	O 	0.24400 0.14300 0.46600 -0.74300
O 	O 	0.20000 0.00600 0.68300 -0.81400
O 	O 	0.16300 0.84900 0.75800 -0.78500
O 	O 	0.01800 0.91200 0.57500 -0.80600
O 	O 	0.24600 0.88100 0.51200 -0.78300
P 	P 	0.83900 0.73000 0.84300 0.69600
P 	P 	0.64600 0.88800 0.36800 0.66100
P 	P 	0.84300 0.08500 0.63100 0.80300
Al	Al	0.85400 0.89200 0.61300 2.39600
Al	Al	0.86600 0.60400 0.61700 2.39400
Al	Al	0.15100 0.74900 0.86100 2.38800
O 	O 	0.83800 0.80400 0.72800 -0.86200
O 	O 	0.81100 0.63600 0.78200 -0.76800
O 	O 	0.98200 0.74200 0.91400 -0.71700
O 	O 	0.74900 0.73600 0.98200 -0.69200
O 	O 	0.68200 0.86300 0.21000 -0.73600
O 	O 	0.63000 0.98800 0.38100 -0.87000
O 	O 	0.51500 0.83200 0.41200 -0.76300
O 	O 	0.75600 0.85700 0.46600 -0.74300
O 	O 	0.80000 0.99400 0.68300 -0.81400
O 	O 	0.83700 0.15100 0.75800 -0.78500
O 	O 	0.98200 0.08800 0.57500 -0.80600
O 	O 	0.75400 0.11900 0.51200 -0.78300
