data_crystal

_cell_length_a 8.59400
_cell_length_b 49.85000
_cell_length_c 7.41900
_cell_angle_alpha 90.00000
_cell_angle_beta  92.70000
_cell_angle_gamma 90.00000

_symmetry_space_group_name_	'P 1'
_symmetry_space_group_name_H-M	'P 1'

loop_
_symmetry_equiv_pos_as_xyz
  x,y,z

loop_
_atom_site_label
_atom_site_type_symbol
_atom_site_fract_x
_atom_site_fract_y
_atom_site_fract_z
_atom_site_charge
Ag	Ag	0.36561 0.71686 0.87743 0.45300
Ag	Ag	0.26460 0.82126 0.79810 0.25900
Ag	Ag	0.33770 0.82279 0.87010 0.31800
Ag	Ag	0.07941 0.91651 0.67430 0.41600
Ag	Ag	0.19675 0.92568 0.87190 0.43900
Ag	Ag	0.09645 0.51537 0.85340 0.42700
Ag	Ag	0.03634 0.02063 0.83930 0.43800
Ag	Ag	0.74388 0.11249 0.63990 0.41400
Ag	Ag	0.12310 0.62053 0.70720 0.40500
N 	N 	0.61600 0.67030 0.48450 -0.21700
C 	C 	0.74700 0.68490 0.45250 0.09100
C 	C 	0.89400 0.67490 0.50600 -0.25000
C 	C 	0.90010 0.64990 0.59330 0.25200
N 	N 	0.90010 0.85010 0.09330 -0.19900
C 	C 	0.77160 0.63866 0.61410 -0.36200
C 	C 	0.63780 0.64870 0.56850 0.21400
C 	C 	0.61600 0.82970 0.98450 0.15400
C 	C 	0.83360 0.89864 0.56280 -0.03600
C 	C 	0.74440 0.91671 0.47480 -0.01300
C 	C 	0.59590 0.91208 0.43040 -0.13200
C 	C 	0.52550 0.88981 0.47190 0.07300
C 	C 	0.60960 0.87081 0.56500 -0.10900
C 	C 	0.76340 0.87546 0.61400 -0.03700
C 	C 	0.44770 0.93773 0.96850 0.07900
C 	C 	0.57660 0.92369 0.93030 -0.12400
C 	C 	0.72140 0.93361 0.97760 -0.04500
C 	C 	0.73440 0.95780 0.06250 0.02100
C 	C 	0.60660 0.97082 0.09820 -0.06600
C 	C 	0.46510 0.96068 0.05170 -0.10500
N 	N 	0.34880 0.50531 0.95370 -0.13200
C 	C 	0.65120 0.00531 0.54630 0.04100
C 	C 	0.41750 0.48195 0.90620 -0.02900
C 	C 	0.43700 0.52323 0.04740 0.00200
C 	C 	0.33360 0.75887 0.85670 -0.16800
C 	C 	0.31960 0.78105 0.84580 -0.21200
C 	C 	0.23900 0.86182 0.80700 -0.16300
C 	C 	0.20100 0.88293 0.79400 -0.25500
C 	C 	0.06500 0.95944 0.76050 -0.19800
C 	C 	0.03090 0.98011 0.75700 -0.25200
N 	N 	0.10100 0.55753 0.76390 -0.20000
C 	C 	0.89900 0.05753 0.73610 -0.18700
C 	C 	0.13620 0.57789 0.77370 -0.24100
N 	N 	0.86380 0.07789 0.72630 -0.23800
N 	N 	0.25870 0.65647 0.81170 -0.20800
C 	C 	0.74130 0.15647 0.68830 -0.17500
C 	C 	0.29750 0.67725 0.83620 -0.16900
N 	N 	0.70250 0.17725 0.66380 -0.19900
H 	H 	0.50729 0.82465 0.94124 -0.14500
H 	H 	0.72955 0.70176 0.38883 -0.04000
H 	H 	0.97497 0.68744 0.47865 0.06300
H 	H 	0.99541 0.85890 0.13703 -0.02300
H 	H 	0.76518 0.62106 0.66945 0.12200
H 	H 	0.54373 0.63921 0.60644 -0.07500
H 	H 	0.94596 0.90166 0.58809 -0.10600
H 	H 	0.79006 0.93403 0.44880 -0.00700
H 	H 	0.54035 0.92619 0.35983 0.04700
H 	H 	0.41673 0.88700 0.43803 -0.14000
H 	H 	0.56473 0.85364 0.59645 0.02500
H 	H 	0.82297 0.86248 0.68822 0.01700
H 	H 	0.34693 0.93098 0.93689 -0.16600
H 	H 	0.57117 0.90647 0.86913 0.05000
H 	H 	0.81466 0.92374 0.95051 -0.00300
H 	H 	0.83659 0.96518 0.09929 -0.14800
H 	H 	0.61516 0.98802 0.16082 0.02400
H 	H 	0.37442 0.97140 0.06688 0.01900
H 	H 	0.75874 0.00866 0.57420 -0.15600
H 	H 	0.35957 0.46896 0.83552 0.02000
H 	H 	0.39230 0.54031 0.07801 -0.01400
N 	N 	0.16640 0.39864 0.93720 -0.17800
N 	N 	0.66640 0.25887 0.64330 -0.19100
N 	N 	0.76100 0.36182 0.69300 -0.18900
N 	N 	0.93500 0.45944 0.73950 -0.20700
Ag	Ag	0.63439 0.21686 0.62257 0.46300
Ag	Ag	0.73540 0.32126 0.70190 0.26200
Ag	Ag	0.66230 0.32279 0.62990 0.32000
Ag	Ag	0.92059 0.41651 0.82570 0.41400
Ag	Ag	0.80325 0.42568 0.62810 0.44300
Ag	Ag	0.90355 0.01537 0.64660 0.43300
Ag	Ag	0.96366 0.52063 0.66070 0.43800
Ag	Ag	0.25612 0.61249 0.86010 0.41900
Ag	Ag	0.87690 0.12053 0.79280 0.40300
N 	N 	0.38400 0.17030 0.01550 -0.21500
C 	C 	0.25300 0.18490 0.04750 0.06900
C 	C 	0.10600 0.17490 0.99400 -0.21600
C 	C 	0.09990 0.14990 0.90670 0.23000
N 	N 	0.09990 0.35010 0.40670 -0.19800
C 	C 	0.22840 0.13866 0.88590 -0.34600
C 	C 	0.36220 0.14870 0.93150 0.21300
C 	C 	0.38400 0.32970 0.51550 0.16400
C 	C 	0.25560 0.41671 0.02520 0.10500
C 	C 	0.40410 0.41208 0.06960 -0.23300
C 	C 	0.47450 0.38981 0.02810 0.15700
C 	C 	0.39040 0.37081 0.93500 -0.18600
C 	C 	0.23660 0.37546 0.88600 0.06800
C 	C 	0.55230 0.43773 0.53150 0.12200
C 	C 	0.42340 0.42369 0.56970 -0.15900
C 	C 	0.27860 0.43361 0.52240 -0.00900
C 	C 	0.26560 0.45780 0.43750 -0.01600
C 	C 	0.39340 0.47082 0.40180 -0.02700
C 	C 	0.53490 0.46068 0.44830 -0.14800
C 	C 	0.58250 0.98195 0.59380 -0.09400
C 	C 	0.56300 0.02323 0.45260 -0.06700
C 	C 	0.68040 0.28105 0.65420 -0.18700
C 	C 	0.79900 0.38293 0.70600 -0.22700
C 	C 	0.96910 0.48011 0.74300 -0.23400
H 	H 	0.49271 0.32465 0.55876 -0.14700
H 	H 	0.27045 0.20176 0.11117 -0.03500
H 	H 	0.02503 0.18744 0.02135 0.04700
H 	H 	0.00459 0.35890 0.36297 -0.02200
H 	H 	0.23482 0.12106 0.83055 0.11700
H 	H 	0.45627 0.13921 0.89356 -0.07300
H 	H 	0.05404 0.40166 0.91191 -0.05300
H 	H 	0.20994 0.43403 0.05120 -0.04400
H 	H 	0.45965 0.42619 0.14017 0.07800
H 	H 	0.58327 0.38700 0.06197 -0.17000
H 	H 	0.43527 0.35364 0.90355 0.05200
H 	H 	0.17703 0.36248 0.81178 -0.01300
H 	H 	0.65307 0.43098 0.56311 -0.18100
H 	H 	0.42883 0.40647 0.63087 0.06300
H 	H 	0.18534 0.42374 0.54949 -0.01300
H 	H 	0.16341 0.46518 0.40071 -0.13500
H 	H 	0.38484 0.48802 0.33918 0.01400
H 	H 	0.62558 0.47140 0.43312 0.03500
H 	H 	0.24126 0.50866 0.92580 -0.08200
H 	H 	0.64043 0.96896 0.66448 0.03900
H 	H 	0.60770 0.04031 0.42199 0.00600
Ag	Ag	0.63439 0.28314 0.12257 0.45100
Ag	Ag	0.73540 0.17874 0.20190 0.26400
Ag	Ag	0.66230 0.17721 0.12990 0.30300
Ag	Ag	0.92059 0.08349 0.32570 0.41500
Ag	Ag	0.80325 0.07432 0.12810 0.43900
Ag	Ag	0.90355 0.48463 0.14660 0.42700
Ag	Ag	0.96366 0.97937 0.16070 0.43700
Ag	Ag	0.25612 0.88751 0.36010 0.41400
Ag	Ag	0.87690 0.37947 0.29280 0.39000
C 	C 	0.25300 0.31510 0.54750 -0.20500
C 	C 	0.10600 0.32510 0.49400 0.06900
C 	C 	0.22840 0.36134 0.38590 0.14900
C 	C 	0.36220 0.35130 0.43150 -0.25800
C 	C 	0.16640 0.10136 0.43720 -0.03900
C 	C 	0.25560 0.08329 0.52520 -0.01400
C 	C 	0.40410 0.08792 0.56960 -0.13600
C 	C 	0.47450 0.11019 0.52810 0.07600
C 	C 	0.39040 0.12919 0.43500 -0.11200
C 	C 	0.23660 0.12454 0.38600 -0.03600
C 	C 	0.55230 0.06227 0.03150 0.07100
C 	C 	0.42340 0.07631 0.06970 -0.11700
C 	C 	0.27860 0.06639 0.02240 -0.05500
C 	C 	0.26560 0.04220 0.93750 0.02900
C 	C 	0.39340 0.02918 0.90180 -0.07400
C 	C 	0.53490 0.03932 0.94830 -0.09600
N 	N 	0.65120 0.49469 0.04630 -0.13300
C 	C 	0.34880 0.99469 0.45370 0.04300
C 	C 	0.58250 0.51805 0.09380 -0.02800
C 	C 	0.56300 0.47677 0.95260 0.00400
C 	C 	0.66640 0.24113 0.14330 -0.16600
C 	C 	0.68040 0.21895 0.15420 -0.21500
C 	C 	0.76100 0.13818 0.19300 -0.16300
C 	C 	0.79900 0.11707 0.20600 -0.25500
C 	C 	0.93500 0.04056 0.23950 -0.19800
C 	C 	0.96910 0.01989 0.24300 -0.25200
N 	N 	0.89900 0.44247 0.23610 -0.20000
C 	C 	0.10100 0.94247 0.26390 -0.18600
C 	C 	0.86380 0.42211 0.22630 -0.24000
N 	N 	0.13620 0.92211 0.27370 -0.23800
N 	N 	0.74130 0.34353 0.18830 -0.21100
C 	C 	0.25870 0.84353 0.31170 -0.18000
C 	C 	0.70250 0.32275 0.16380 -0.16900
N 	N 	0.29750 0.82275 0.33620 -0.19700
H 	H 	0.49271 0.17535 0.05876 -0.02800
H 	H 	0.27045 0.29824 0.61117 0.05300
H 	H 	0.02503 0.31256 0.52135 -0.03800
H 	H 	0.00459 0.14110 0.86297 -0.16700
H 	H 	0.23482 0.37894 0.33055 -0.04000
H 	H 	0.45627 0.36079 0.39356 0.07100
H 	H 	0.05404 0.09834 0.41191 -0.10600
H 	H 	0.20994 0.06597 0.55120 -0.00800
H 	H 	0.45965 0.07381 0.64017 0.04800
H 	H 	0.58327 0.11300 0.56197 -0.14000
H 	H 	0.43527 0.14636 0.40355 0.02600
H 	H 	0.17703 0.13752 0.31178 0.01600
H 	H 	0.65307 0.06902 0.06311 -0.16300
H 	H 	0.42883 0.09353 0.13087 0.04800
H 	H 	0.18534 0.07626 0.04949 -0.00100
H 	H 	0.16341 0.03482 0.90071 -0.15100
H 	H 	0.38484 0.01198 0.83918 0.02700
H 	H 	0.62558 0.02860 0.93312 0.01700
H 	H 	0.24126 0.99134 0.42580 -0.15600
H 	H 	0.64043 0.53104 0.16448 0.01900
H 	H 	0.60770 0.45969 0.92199 -0.01400
N 	N 	0.83360 0.60136 0.06280 -0.18000
N 	N 	0.33360 0.74113 0.35670 -0.19100
N 	N 	0.23900 0.63818 0.30700 -0.18900
N 	N 	0.06500 0.54056 0.26050 -0.20700
Ag	Ag	0.36561 0.78314 0.37743 0.46300
Ag	Ag	0.26460 0.67874 0.29810 0.26600
Ag	Ag	0.33770 0.67721 0.37010 0.30500
Ag	Ag	0.07941 0.58349 0.17430 0.41300
Ag	Ag	0.19675 0.57432 0.37190 0.44300
Ag	Ag	0.09645 0.98463 0.35340 0.43400
Ag	Ag	0.03634 0.47937 0.33930 0.43700
Ag	Ag	0.74388 0.38751 0.13990 0.41800
Ag	Ag	0.12310 0.87947 0.20720 0.39000
C 	C 	0.74700 0.81510 0.95250 -0.21300
C 	C 	0.89400 0.82510 0.00600 0.08500
C 	C 	0.77160 0.86134 0.11410 0.14300
C 	C 	0.63780 0.85130 0.06850 -0.24400
C 	C 	0.74440 0.58329 0.97480 0.10500
C 	C 	0.59590 0.58792 0.93040 -0.23900
C 	C 	0.52550 0.61019 0.97190 0.16400
C 	C 	0.60960 0.62919 0.06500 -0.19200
C 	C 	0.76340 0.62454 0.11400 0.06900
C 	C 	0.44770 0.56227 0.46850 0.11700
C 	C 	0.57660 0.57631 0.43030 -0.15400
C 	C 	0.72140 0.56639 0.47760 -0.01600
C 	C 	0.73440 0.54220 0.56250 -0.01100
C 	C 	0.60660 0.52918 0.59820 -0.03200
C 	C 	0.46510 0.53932 0.55170 -0.14300
C 	C 	0.41750 0.01805 0.40620 -0.09600
C 	C 	0.43700 0.97677 0.54740 -0.06800
C 	C 	0.31960 0.71895 0.34580 -0.19100
C 	C 	0.20100 0.61707 0.29400 -0.22700
C 	C 	0.03090 0.51989 0.25700 -0.23500
H 	H 	0.50729 0.67535 0.44124 -0.02700
H 	H 	0.72955 0.79824 0.88883 0.05400
H 	H 	0.97497 0.81256 0.97865 -0.04800
H 	H 	0.99541 0.64110 0.63703 -0.17400
H 	H 	0.76518 0.87894 0.16945 -0.03700
H 	H 	0.54373 0.86079 0.10644 0.06800
H 	H 	0.94596 0.59834 0.08809 -0.05300
H 	H 	0.79006 0.56597 0.94880 -0.04400
H 	H 	0.54035 0.57381 0.85983 0.08000
H 	H 	0.41673 0.61300 0.93803 -0.17100
H 	H 	0.56473 0.64636 0.09645 0.05400
H 	H 	0.82297 0.63752 0.18822 -0.01400
H 	H 	0.34693 0.56902 0.43689 -0.17900
H 	H 	0.57117 0.59353 0.36913 0.06100
H 	H 	0.81466 0.57626 0.45051 -0.01100
H 	H 	0.83659 0.53482 0.59929 -0.13700
H 	H 	0.61516 0.51198 0.66082 0.01600
H 	H 	0.37442 0.52860 0.56688 0.03400
H 	H 	0.75874 0.49134 0.07420 -0.08200
H 	H 	0.35957 0.03104 0.33552 0.04000
H 	H 	0.39230 0.95969 0.57801 0.00700
