data_crystal

_cell_length_a 10.91750
_cell_length_b 21.46990
_cell_length_c 21.46990
_cell_angle_alpha 62.81250
_cell_angle_beta  80.24120
_cell_angle_gamma 99.75880

_symmetry_space_group_name_	'P 1'
_symmetry_space_group_name_H-M	'P 1'

loop_
_symmetry_equiv_pos_as_xyz
  x,y,z

loop_
_atom_site_label
_atom_site_type_symbol
_atom_site_fract_x
_atom_site_fract_y
_atom_site_fract_z
_atom_site_charge
Zn	Zn	0.27628 0.00016 0.08622 1.21200
Zn	Zn	0.36250 0.08622 0.91362 1.22000
Zn	Zn	0.27612 0.91362 0.00016 1.21600
Zn	Zn	0.53927 0.00000 -0.00000 1.21800
H 	H 	0.84210 0.00000 0.24350 0.08800
H 	H 	0.48830 0.99350 0.34590 0.09700
H 	H 	0.41170 0.99960 0.24850 0.03000
H 	H 	0.76550 0.00630 0.14600 0.01300
H 	H 	0.68740 0.89630 0.42720 0.11200
H 	H 	0.97110 0.12930 0.44720 0.07500
H 	H 	0.98940 0.24260 0.34720 0.04700
H 	H 	0.78310 0.14060 0.26320 0.05500
H 	H 	0.17770 0.99820 0.57080 0.09700
H 	H 	0.66870 0.00930 0.55670 0.01700
H 	H 	0.55070 0.01140 0.65720 0.10200
H 	H 	0.86220 0.00460 0.73680 0.11800
H 	H 	0.02970 0.88810 0.75620 0.15000
H 	H 	0.15260 0.10910 0.64150 0.16100
H 	H 	0.25240 0.10900 0.72990 -0.07600
H 	H 	0.12960 0.88810 0.84440 -0.07800
H 	H 	0.23470 0.00950 0.39580 -0.03900
H 	H 	0.17710 0.93970 0.47780 -0.03200
H 	H 	0.55790 0.97540 0.39320 0.04300
H 	H 	0.51970 0.08750 0.32290 0.05100
H 	H 	0.35930 0.12340 0.37470 0.05000
H 	H 	0.27540 0.93520 0.56690 0.04000
H 	H 	0.43570 0.89920 0.51530 0.04300
H 	H 	0.91740 0.89550 0.57460 -0.01800
H 	H 	0.98250 0.87420 0.51760 -0.00900
H 	H 	0.02110 0.78260 0.63540 0.01800
H 	H 	0.68750 0.76990 0.57710 0.04500
H 	H 	0.78110 0.74300 0.48930 0.04800
H 	H 	0.99480 0.73610 0.47430 0.03100
H 	H 	0.11470 0.75570 0.54760 0.06300
H 	H 	0.08560 0.24350 0.75650 0.08200
H 	H 	0.83420 0.34590 0.66060 0.08600
H 	H 	0.66020 0.24850 0.75190 0.03700
H 	H 	0.91150 0.14600 0.84770 0.02600
H 	H 	0.11460 0.42720 0.67650 0.11700
H 	H 	0.41830 0.44720 0.42350 0.07200
H 	H 	0.33660 0.34720 0.41020 0.04300
H 	H 	0.04630 0.26320 0.59620 0.05100
H 	H 	0.74850 0.57080 0.43100 0.07100
H 	H 	0.22540 0.55670 0.43400 0.02100
H 	H 	0.20790 0.65720 0.33140 0.10500
H 	H 	0.59900 0.73680 0.25860 0.11800
H 	H 	0.78590 0.75620 0.35570 0.13300
H 	H 	0.79410 0.64150 0.24940 0.14200
H 	H 	0.98230 0.72990 0.16110 -0.06200
H 	H 	0.97400 0.84440 0.26750 -0.05900
H 	H 	0.63050 0.39580 0.59470 0.01600
H 	H 	0.65490 0.47780 0.58250 0.00900
H 	H 	0.95110 0.39320 0.63140 0.07500
H 	H 	0.84260 0.32290 0.58960 0.02400
H 	H 	0.73400 0.37470 0.50190 0.07600
H 	H 	0.84230 0.56690 0.49790 0.06500
H 	H 	0.95100 0.51530 0.58550 0.02000
H 	H 	0.49200 0.57460 0.52990 -0.02900
H 	H 	0.50010 0.51760 0.60820 -0.01600
H 	H 	0.65650 0.63540 0.58200 0.04600
H 	H 	0.26460 0.57710 0.65300 0.05400
H 	H 	0.27040 0.48930 0.76770 0.03300
H 	H 	0.46910 0.47430 0.78960 0.04900
H 	H 	0.66230 0.54760 0.69670 0.04100
H 	H 	0.84210 0.75650 -0.00000 0.08900
H 	H 	0.49480 0.66060 0.99350 0.09800
H 	H 	0.41210 0.75190 0.99960 0.03100
H 	H 	0.75920 0.84770 0.00630 0.01800
H 	H 	0.79110 0.67650 0.89630 0.11000
H 	H 	0.84180 0.42350 0.12930 0.07400
H 	H 	0.74680 0.41020 0.24260 0.04600
H 	H 	0.64250 0.59620 0.14060 0.05500
H 	H 	0.17950 0.43100 0.99820 0.09900
H 	H 	0.65940 0.43400 0.00930 0.01800
H 	H 	0.53930 0.33140 0.01140 0.10100
H 	H 	0.85760 0.25860 0.00460 0.11600
H 	H 	0.14160 0.35570 0.88810 0.15100
H 	H 	0.04350 0.24940 0.10910 0.16100
H 	H 	0.14340 0.16110 0.10900 -0.08100
H 	H 	0.24150 0.26750 0.88810 -0.08200
H 	H 	0.22520 0.59470 0.00950 -0.04000
H 	H 	0.23740 0.58250 0.93970 -0.03100
H 	H 	0.58250 0.63140 0.97540 0.04200
H 	H 	0.43220 0.58960 0.08750 0.05200
H 	H 	0.23590 0.50190 0.12340 0.04900
H 	H 	0.34020 0.49790 0.93520 0.03900
H 	H 	0.53650 0.58550 0.89920 0.04400
H 	H 	0.02190 0.52990 0.89550 -0.01600
H 	H 	0.10830 0.60820 0.87420 -0.00400
H 	H 	0.23850 0.58200 0.78260 0.05100
H 	H 	0.91760 0.65300 0.76990 0.07600
H 	H 	0.03810 0.76770 0.74300 0.02300
H 	H 	0.25870 0.78960 0.73610 0.05600
H 	H 	0.35900 0.69670 0.75570 0.03600
C 	C 	0.75500 0.00000 0.24500 -0.17300
C 	C 	0.67200 0.99600 0.30400 0.11100
C 	C 	0.54460 0.99610 0.30530 -0.16100
C 	C 	0.49910 0.99970 0.24740 0.10300
C 	C 	0.58120 0.00360 0.18800 -0.14300
C 	C 	0.71000 0.00400 0.18600 0.08100
C 	C 	0.50530 0.00100 0.13110 0.44300
C 	C 	0.25400 0.99900 0.84100 0.83400
C 	C 	0.85600 0.00100 0.47400 -0.16400
C 	C 	0.78900 0.93700 0.47900 0.39500
C 	C 	0.73400 0.94100 0.42300 -0.22300
C 	C 	0.74400 0.00800 0.36400 0.01300
C 	C 	0.81100 0.07200 0.35900 -0.02500
C 	C 	0.86640 0.06840 0.41420 0.08900
C 	C 	0.93300 0.13200 0.41000 -0.08600
C 	C 	0.94400 0.19900 0.35100 -0.03400
C 	C 	0.88800 0.20300 0.29500 0.01100
C 	C 	0.82200 0.13900 0.30000 -0.06500
C 	C 	0.90520 0.00420 0.52760 0.03500
C 	C 	0.03320 0.00120 0.52160 0.15200
C 	C 	0.09100 0.00000 0.57500 -0.12400
C 	C 	0.02080 0.00180 0.63440 -0.12600
C 	C 	0.89250 0.00420 0.64070 0.12700
C 	C 	0.83600 0.00600 0.58700 -0.07700
C 	C 	0.70800 0.00900 0.59300 0.04500
C 	C 	0.63800 0.00900 0.65300 -0.17000
C 	C 	0.69500 0.00800 0.70600 0.19600
C 	C 	0.82270 0.00470 0.70060 -0.20800
C 	C 	0.07500 0.93290 0.75090 -0.34600
C 	C 	0.08240 0.99940 0.69020 0.28100
C 	C 	0.14780 0.06480 0.68240 -0.37600
C 	C 	0.20700 0.06420 0.73520 0.34900
C 	C 	0.20000 0.99850 0.79550 -0.57900
C 	C 	0.13450 0.93280 0.80330 0.36600
C 	C 	0.20200 0.99300 0.44800 0.24600
C 	C 	0.49400 0.99100 0.41300 -0.03000
C 	C 	0.47000 0.05600 0.37300 -0.07200
C 	C 	0.37900 0.07900 0.40200 -0.03300
C 	C 	0.30200 0.03300 0.47600 -0.04700
C 	C 	0.32500 0.96600 0.51700 -0.03100
C 	C 	0.42000 0.94500 0.48700 -0.03700
C 	C 	0.89900 0.86700 0.55000 0.24100
C 	C 	0.97000 0.77500 0.60500 0.01500
C 	C 	0.84800 0.77900 0.61500 -0.05400
C 	C 	0.77400 0.76600 0.57200 -0.00600
C 	C 	0.83000 0.75000 0.52000 -0.06300
C 	C 	0.95300 0.74800 0.50900 0.01400
C 	C 	0.02800 0.75900 0.55300 -0.10100
C 	C 	0.00000 0.24500 0.75500 -0.14900
C 	C 	0.97600 0.30400 0.70000 0.07300
C 	C 	0.84990 0.30530 0.69860 -0.13500
C 	C 	0.74650 0.24740 0.75290 0.05600
C 	C 	0.76920 0.18800 0.80840 -0.10700
C 	C 	0.89600 0.18600 0.81000 0.07300
C 	C 	0.63640 0.13110 0.86790 0.46200
C 	C 	0.09500 0.84100 0.16000 0.76800
C 	C 	0.33000 0.47400 0.52500 -0.14100
C 	C 	0.26800 0.47900 0.58400 0.37700
C 	C 	0.15700 0.42300 0.63600 -0.25500
C 	C 	0.10800 0.36400 0.62800 0.04800
C 	C 	0.17000 0.35900 0.56900 -0.03600
C 	C 	0.28060 0.41420 0.51740 0.08600
C 	C 	0.34300 0.41000 0.45800 -0.08800
C 	C 	0.29500 0.35100 0.45000 -0.03200
C 	C 	0.18300 0.29500 0.50200 0.00400
C 	C 	0.12200 0.30000 0.56100 -0.05800
C 	C 	0.43280 0.52760 0.46820 0.02400
C 	C 	0.55480 0.52160 0.47720 0.14600
C 	C 	0.66600 0.57500 0.42500 -0.09900
C 	C 	0.65520 0.63440 0.36380 -0.08300
C 	C 	0.53320 0.64070 0.35510 0.10300
C 	C 	0.42300 0.58700 0.40700 -0.06300
C 	C 	0.30100 0.59300 0.39800 0.04000
C 	C 	0.29100 0.65300 0.33800 -0.16800
C 	C 	0.40100 0.70600 0.28600 0.20500
C 	C 	0.52330 0.70060 0.29470 -0.19700
C 	C 	0.82590 0.75090 0.31620 -0.29900
C 	C 	0.77260 0.69020 0.31040 0.20900
C 	C 	0.83020 0.68240 0.25280 -0.30900
C 	C 	0.94220 0.73520 0.20060 0.32000
C 	C 	0.99550 0.79550 0.20600 -0.53300
C 	C 	0.93780 0.80330 0.26390 0.32100
C 	C 	0.65000 0.44800 0.55900 0.10900
C 	C 	0.90700 0.41300 0.59600 -0.12600
C 	C 	0.84300 0.37300 0.57100 0.02900
C 	C 	0.78100 0.40200 0.51900 -0.10600
C 	C 	0.77800 0.47600 0.49100 0.04600
C 	C 	0.84200 0.51700 0.51700 -0.11500
C 	C 	0.90700 0.48700 0.56800 0.03500
C 	C 	0.44900 0.55000 0.58300 0.23900
C 	C 	0.57500 0.60500 0.62000 -0.05700
C 	C 	0.46300 0.61500 0.60600 -0.02400
C 	C 	0.34600 0.57200 0.66200 -0.04000
C 	C 	0.35000 0.52000 0.73000 -0.02000
C 	C 	0.46200 0.50900 0.74300 -0.04700
C 	C 	0.58100 0.55300 0.68800 -0.02500
C 	C 	0.75500 0.75500 -0.00000 -0.17200
C 	C 	0.67600 0.70000 0.99600 0.11300
C 	C 	0.54850 0.69860 0.99610 -0.16000
C 	C 	0.49940 0.75290 0.99970 0.10300
C 	C 	0.57760 0.80840 0.00360 -0.13900
C 	C 	0.70600 0.81000 0.00400 0.08100
C 	C 	0.50430 0.86790 0.00100 0.44200
C 	C 	0.25500 0.16000 0.99900 0.84200
C 	C 	0.85500 0.52500 0.00100 -0.15500
C 	C 	0.85200 0.58400 0.93700 0.37800
C 	C 	0.79300 0.63600 0.94100 -0.21200
C 	C 	0.73600 0.62800 0.00800 0.00800
C 	C 	0.73900 0.56900 0.07200 -0.02100
C 	C 	0.79800 0.51740 0.06840 0.08400
C 	C 	0.80100 0.45800 0.13200 -0.08400
C 	C 	0.74500 0.45000 0.19900 -0.03500
C 	C 	0.68500 0.50200 0.20300 0.01000
C 	C 	0.68300 0.56100 0.13900 -0.06700
C 	C 	0.90100 0.46820 0.00420 0.03100
C 	C 	0.03200 0.47720 0.00120 0.15600
C 	C 	0.09100 0.42500 -0.00000 -0.12600
C 	C 	0.01900 0.36380 0.00180 -0.12600
C 	C 	0.88830 0.35510 0.00420 0.12400
C 	C 	0.83000 0.40700 0.00600 -0.07400
C 	C 	0.69900 0.39800 0.00900 0.04300
C 	C 	0.62900 0.33800 0.00900 -0.16900
C 	C 	0.68700 0.28600 0.00800 0.19300
C 	C 	0.81800 0.29470 0.00470 -0.20700
C 	C 	0.14210 0.31620 0.93290 -0.35000
C 	C 	0.08300 0.31040 0.99940 0.28400
C 	C 	0.08300 0.25280 0.06480 -0.38100
C 	C 	0.14280 0.20060 0.06420 0.35300
C 	C 	0.20150 0.20600 0.99850 -0.58800
C 	C 	0.20170 0.26390 0.93280 0.37100
C 	C 	0.20900 0.55900 0.99300 0.24900
C 	C 	0.50300 0.59600 0.99100 -0.02700
C 	C 	0.41400 0.57100 0.05600 -0.07500
C 	C 	0.30000 0.51900 0.07900 -0.03000
C 	C 	0.26900 0.49100 0.03300 -0.05000
C 	C 	0.35900 0.51700 0.96600 -0.02800
C 	C 	0.47500 0.56800 0.94500 -0.03900
C 	C 	0.03200 0.58300 0.86700 0.20600
C 	C 	0.19500 0.62000 0.77500 -0.07100
C 	C 	0.06900 0.60600 0.77900 -0.00500
C 	C 	0.00800 0.66200 0.76600 -0.07800
C 	C 	0.08000 0.73000 0.75000 0.00600
C 	C 	0.20500 0.74300 0.74800 -0.06500
C 	C 	0.26900 0.68800 0.75900 -0.01100
Cl	Cl	0.57800 0.99500 0.79500 -0.33000
Cl	Cl	0.37300 0.79500 0.21000 -0.35800
Cl	Cl	0.58300 0.21000 0.99500 -0.33600
O 	O 	0.39820 0.00030 0.14270 -0.53800
O 	O 	0.58540 0.99950 0.08130 -0.47300
O 	O 	0.24930 0.10160 0.05170 -0.61300
O 	O 	0.30180 0.15440 0.94700 -0.59300
O 	O 	0.11600 0.01800 0.46100 -0.30700
O 	O 	0.82900 0.89200 0.51200 -0.40500
O 	O 	0.54090 0.14270 0.85700 -0.53200
O 	O 	0.66670 0.08130 0.91920 -0.49200
O 	O 	0.30100 0.05170 0.84670 -0.60400
O 	O 	0.24880 0.94700 0.89860 -0.58200
O 	O 	0.57700 0.46100 0.52100 -0.25500
O 	O 	0.34100 0.51200 0.59600 -0.40500
O 	O 	0.39790 0.85700 0.00030 -0.53300
O 	O 	0.58590 0.91920 0.99950 -0.45700
O 	O 	0.14770 0.84670 0.10160 -0.57800
O 	O 	0.14740 0.89860 0.15440 -0.57300
O 	O 	0.09800 0.52100 0.01800 -0.30900
O 	O 	0.93700 0.59600 0.89200 -0.38000
O 	O 	0.36467 0.00000 -0.00000 -0.96800
