data_crystal

_cell_length_a 12.10000
_cell_length_b 26.16200
_cell_length_c 26.16200
_cell_angle_alpha 90.00000
_cell_angle_beta  90.00000
_cell_angle_gamma 90.00000

_symmetry_space_group_name_	'P 1'
_symmetry_space_group_name_H-M	'P 1'

loop_
_symmetry_equiv_pos_as_xyz
  x,y,z

loop_
_atom_site_label
_atom_site_type_symbol
_atom_site_fract_x
_atom_site_fract_y
_atom_site_fract_z
_atom_site_charge
Cu	Cu	0.07621 0.99393 0.03557 0.90400
Cu	Cu	0.92379 0.00607 0.53557 0.90400
Cu	Cu	0.92379 0.49393 0.46443 0.90700
Cu	Cu	0.07621 0.50607 0.96443 0.90700
Cu	Cu	0.92379 0.00607 0.96443 0.90300
Cu	Cu	0.07621 0.99393 0.46443 0.90300
Cu	Cu	0.07621 0.50607 0.53557 0.90600
Cu	Cu	0.92379 0.49393 0.03557 0.90600
Cu	Cu	0.01028 0.70493 0.75000 0.91200
Cu	Cu	0.85594 0.77610 0.75000 0.90300
Cu	Cu	0.98972 0.29507 0.25000 0.91200
Cu	Cu	0.14406 0.22390 0.25000 0.90300
Cu	Cu	0.98972 0.20493 0.75000 0.91100
Cu	Cu	0.14406 0.27610 0.75000 0.90300
Cu	Cu	0.01028 0.79507 0.25000 0.91100
Cu	Cu	0.85594 0.72390 0.25000 0.90300
H 	H 	0.90210 0.61150 0.86880 0.07700
H 	H 	0.69940 0.61280 0.98910 0.10900
H 	H 	0.66830 0.72010 0.88070 0.10100
H 	H 	0.58410 0.76030 0.94780 0.05000
H 	H 	0.48810 0.72620 0.92600 0.04900
H 	H 	0.43090 0.67550 0.02390 0.05200
H 	H 	0.33580 0.69580 0.98810 0.05300
H 	H 	0.24570 0.63300 0.02840 0.10100
H 	H 	0.00040 0.62520 0.13100 0.07200
H 	H 	0.21140 0.74270 0.13280 0.11000
H 	H 	0.09790 0.38850 0.36880 0.07700
H 	H 	0.30060 0.38720 0.48910 0.10900
H 	H 	0.33170 0.27990 0.38070 0.10100
H 	H 	0.41590 0.23970 0.44780 0.05100
H 	H 	0.51190 0.27380 0.42600 0.04900
H 	H 	0.56910 0.32450 0.52390 0.05200
H 	H 	0.66420 0.30420 0.48810 0.05300
H 	H 	0.75430 0.36700 0.52840 0.10100
H 	H 	0.99960 0.37480 0.63100 0.07200
H 	H 	0.78860 0.25730 0.63280 0.11000
H 	H 	0.09790 0.11150 0.63120 0.07800
H 	H 	0.30060 0.11280 0.51090 0.10900
H 	H 	0.33170 0.22010 0.61930 0.10100
H 	H 	0.41590 0.26030 0.55220 0.05100
H 	H 	0.51190 0.22620 0.57400 0.04900
H 	H 	0.56910 0.17550 0.47610 0.05200
H 	H 	0.66420 0.19580 0.51190 0.05200
H 	H 	0.75430 0.13300 0.47160 0.10100
H 	H 	0.99960 0.12520 0.36900 0.07100
H 	H 	0.78860 0.24270 0.36720 0.11100
H 	H 	0.90210 0.88850 0.13120 0.07800
H 	H 	0.69940 0.88720 0.01090 0.10900
H 	H 	0.66830 0.77990 0.11930 0.10100
H 	H 	0.58410 0.73970 0.05220 0.05000
H 	H 	0.48810 0.77380 0.07400 0.04900
H 	H 	0.43090 0.82450 0.97610 0.05100
H 	H 	0.33580 0.80420 0.01190 0.05000
H 	H 	0.24570 0.86700 0.97160 0.10200
H 	H 	0.00040 0.87480 0.86900 0.07100
H 	H 	0.21140 0.75730 0.86720 0.11100
H 	H 	0.09790 0.38850 0.13120 0.07700
H 	H 	0.30060 0.38720 0.01090 0.10900
H 	H 	0.33170 0.27990 0.11930 0.10100
H 	H 	0.41590 0.23970 0.05220 0.05100
H 	H 	0.51190 0.27380 0.07400 0.04900
H 	H 	0.56910 0.32450 0.97610 0.05200
H 	H 	0.66420 0.30420 0.01190 0.05200
H 	H 	0.75430 0.36700 0.97160 0.10100
H 	H 	0.99960 0.37480 0.86900 0.07200
H 	H 	0.78860 0.25730 0.86720 0.11100
H 	H 	0.90210 0.61150 0.63120 0.07700
H 	H 	0.69940 0.61280 0.51090 0.10900
H 	H 	0.66830 0.72010 0.61930 0.10100
H 	H 	0.58410 0.76030 0.55220 0.05100
H 	H 	0.48810 0.72620 0.57400 0.04900
H 	H 	0.43090 0.67550 0.47610 0.05200
H 	H 	0.33580 0.69580 0.51190 0.05300
H 	H 	0.24570 0.63300 0.47160 0.10100
H 	H 	0.00040 0.62520 0.36900 0.07200
H 	H 	0.21140 0.74270 0.36720 0.11000
H 	H 	0.90210 0.88850 0.36880 0.07800
H 	H 	0.69940 0.88720 0.48910 0.10900
H 	H 	0.66830 0.77990 0.38070 0.10100
H 	H 	0.58410 0.73970 0.44780 0.05100
H 	H 	0.48810 0.77380 0.42600 0.04900
H 	H 	0.43090 0.82450 0.52390 0.05200
H 	H 	0.33580 0.80420 0.48810 0.05200
H 	H 	0.24570 0.86700 0.52840 0.10100
H 	H 	0.00040 0.87480 0.63100 0.07100
H 	H 	0.21140 0.75730 0.63280 0.11100
H 	H 	0.09790 0.11150 0.86880 0.07800
H 	H 	0.30060 0.11280 0.98910 0.10900
H 	H 	0.33170 0.22010 0.88070 0.10100
H 	H 	0.41590 0.26030 0.94780 0.05100
H 	H 	0.51190 0.22620 0.92600 0.04900
H 	H 	0.56910 0.17550 0.02390 0.05200
H 	H 	0.66420 0.19580 0.98810 0.05200
H 	H 	0.75430 0.13300 0.02840 0.10200
H 	H 	0.99960 0.12520 0.13100 0.07100
H 	H 	0.78860 0.24270 0.13280 0.11100
C 	C 	0.79330 0.66956 0.86871 -0.01200
C 	C 	0.84510 0.62661 0.88725 -0.04100
C 	C 	0.81170 0.60591 0.93374 -0.01000
C 	C 	0.72380 0.62756 0.95877 -0.14200
C 	C 	0.67040 0.67038 0.94056 0.20500
C 	C 	0.70420 0.69178 0.89423 -0.14400
C 	C 	0.83500 0.69352 0.82103 0.32700
C 	C 	0.87720 0.56280 0.95640 0.34000
C 	C 	0.53240 0.73324 0.95609 0.01000
C 	C 	0.38570 0.70500 0.01562 -0.00100
C 	C 	0.24160 0.69302 0.07668 0.20900
C 	C 	0.20750 0.64684 0.05600 -0.14300
C 	C 	0.11710 0.62097 0.07591 -0.01900
C 	C 	0.06150 0.64191 0.11740 -0.03400
C 	C 	0.09660 0.68755 0.13861 -0.01800
C 	C 	0.18710 0.71236 0.11815 -0.14300
C 	C 	0.07830 0.57434 0.05009 0.33600
C 	C 	0.03640 0.71115 0.18116 0.32900
C 	C 	0.20670 0.33044 0.36871 -0.01200
C 	C 	0.15490 0.37339 0.38725 -0.04100
C 	C 	0.18830 0.39409 0.43374 -0.01000
C 	C 	0.27620 0.37244 0.45877 -0.14100
C 	C 	0.32960 0.32962 0.44056 0.20500
C 	C 	0.29580 0.30822 0.39423 -0.14400
C 	C 	0.16500 0.30648 0.32103 0.32700
C 	C 	0.12280 0.43720 0.45640 0.34000
C 	C 	0.46760 0.26676 0.45609 0.00700
C 	C 	0.61430 0.29500 0.51562 -0.00100
C 	C 	0.75840 0.30698 0.57668 0.21000
C 	C 	0.79250 0.35316 0.55600 -0.14300
C 	C 	0.88290 0.37903 0.57591 -0.01900
C 	C 	0.93850 0.35809 0.61740 -0.03400
C 	C 	0.90340 0.31245 0.63861 -0.01700
C 	C 	0.81290 0.28764 0.61815 -0.14300
C 	C 	0.92170 0.42566 0.55009 0.33600
C 	C 	0.96360 0.28885 0.68116 0.32900
C 	C 	0.20670 0.16956 0.63129 -0.01200
C 	C 	0.15490 0.12661 0.61275 -0.04100
C 	C 	0.18830 0.10591 0.56626 -0.00900
C 	C 	0.27620 0.12756 0.54123 -0.14200
C 	C 	0.32960 0.17038 0.55944 0.20500
C 	C 	0.29580 0.19178 0.60577 -0.14400
C 	C 	0.16500 0.19352 0.67897 0.32700
C 	C 	0.12280 0.06280 0.54360 0.34000
C 	C 	0.46760 0.23324 0.54391 0.00700
C 	C 	0.61430 0.20500 0.48438 -0.00100
C 	C 	0.75840 0.19302 0.42332 0.21000
C 	C 	0.79250 0.14684 0.44400 -0.14400
C 	C 	0.88290 0.12097 0.42409 -0.01700
C 	C 	0.93850 0.14191 0.38260 -0.03600
C 	C 	0.90340 0.18755 0.36139 -0.01600
C 	C 	0.81290 0.21236 0.38185 -0.14400
C 	C 	0.92170 0.07434 0.44991 0.33000
C 	C 	0.96360 0.21115 0.31884 0.32800
C 	C 	0.79330 0.83044 0.13129 -0.01200
C 	C 	0.84510 0.87339 0.11275 -0.04100
C 	C 	0.81170 0.89409 0.06626 -0.01000
C 	C 	0.72380 0.87244 0.04123 -0.14200
C 	C 	0.67040 0.82962 0.05944 0.20500
C 	C 	0.70420 0.80822 0.10577 -0.14400
C 	C 	0.83500 0.80648 0.17897 0.32700
C 	C 	0.87720 0.93720 0.04360 0.34000
C 	C 	0.53240 0.76676 0.04391 0.00900
C 	C 	0.38570 0.79500 0.98438 0.00400
C 	C 	0.24160 0.80698 0.92332 0.21100
C 	C 	0.20750 0.85316 0.94400 -0.14500
C 	C 	0.11710 0.87903 0.92409 -0.01600
C 	C 	0.06150 0.85809 0.88260 -0.03600
C 	C 	0.09660 0.81245 0.86139 -0.01600
C 	C 	0.18710 0.78764 0.88185 -0.14400
C 	C 	0.07830 0.92566 0.94991 0.33000
C 	C 	0.03640 0.78885 0.81884 0.32800
C 	C 	0.20670 0.33044 0.13129 -0.01200
C 	C 	0.15490 0.37339 0.11275 -0.04100
C 	C 	0.18830 0.39409 0.06626 -0.01000
C 	C 	0.27620 0.37244 0.04123 -0.14100
C 	C 	0.32960 0.32962 0.05944 0.20500
C 	C 	0.29580 0.30822 0.10577 -0.14400
C 	C 	0.16500 0.30648 0.17897 0.32700
C 	C 	0.12280 0.43720 0.04360 0.34000
C 	C 	0.46760 0.26676 0.04391 0.00800
C 	C 	0.61430 0.29500 0.98438 0.00000
C 	C 	0.75840 0.30698 0.92332 0.21000
C 	C 	0.79250 0.35316 0.94400 -0.14300
C 	C 	0.88290 0.37903 0.92409 -0.01800
C 	C 	0.93850 0.35809 0.88260 -0.03400
C 	C 	0.90340 0.31245 0.86139 -0.01700
C 	C 	0.81290 0.28764 0.88185 -0.14300
C 	C 	0.92170 0.42566 0.94991 0.33600
C 	C 	0.96360 0.28885 0.81884 0.32900
C 	C 	0.79330 0.66956 0.63129 -0.01200
C 	C 	0.84510 0.62661 0.61275 -0.04100
C 	C 	0.81170 0.60591 0.56626 -0.01000
C 	C 	0.72380 0.62756 0.54123 -0.14100
C 	C 	0.67040 0.67038 0.55944 0.20500
C 	C 	0.70420 0.69178 0.60577 -0.14400
C 	C 	0.83500 0.69352 0.67897 0.32700
C 	C 	0.87720 0.56280 0.54360 0.34000
C 	C 	0.53240 0.73324 0.54391 0.00700
C 	C 	0.38570 0.70500 0.48438 -0.00100
C 	C 	0.24160 0.69302 0.42332 0.21000
C 	C 	0.20750 0.64684 0.44400 -0.14300
C 	C 	0.11710 0.62097 0.42409 -0.01900
C 	C 	0.06150 0.64191 0.38260 -0.03400
C 	C 	0.09660 0.68755 0.36139 -0.01700
C 	C 	0.18710 0.71236 0.38185 -0.14300
C 	C 	0.07830 0.57434 0.44991 0.33600
C 	C 	0.03640 0.71115 0.31884 0.32900
C 	C 	0.79330 0.83044 0.36871 -0.01200
C 	C 	0.84510 0.87339 0.38725 -0.04100
C 	C 	0.81170 0.89409 0.43374 -0.00900
C 	C 	0.72380 0.87244 0.45877 -0.14200
C 	C 	0.67040 0.82962 0.44056 0.20500
C 	C 	0.70420 0.80822 0.39423 -0.14400
C 	C 	0.83500 0.80648 0.32103 0.32700
C 	C 	0.87720 0.93720 0.45640 0.34000
C 	C 	0.53240 0.76676 0.45609 0.00700
C 	C 	0.38570 0.79500 0.51562 -0.00100
C 	C 	0.24160 0.80698 0.57668 0.21000
C 	C 	0.20750 0.85316 0.55600 -0.14400
C 	C 	0.11710 0.87903 0.57591 -0.01700
C 	C 	0.06150 0.85809 0.61740 -0.03600
C 	C 	0.09660 0.81245 0.63861 -0.01600
C 	C 	0.18710 0.78764 0.61815 -0.14400
C 	C 	0.07830 0.92566 0.55009 0.33000
C 	C 	0.03640 0.78885 0.68116 0.32800
C 	C 	0.20670 0.16956 0.86871 -0.01200
C 	C 	0.15490 0.12661 0.88725 -0.04100
C 	C 	0.18830 0.10591 0.93374 -0.01000
C 	C 	0.27620 0.12756 0.95877 -0.14200
C 	C 	0.32960 0.17038 0.94056 0.20500
C 	C 	0.29580 0.19178 0.89423 -0.14400
C 	C 	0.16500 0.19352 0.82103 0.32700
C 	C 	0.12280 0.06280 0.95640 0.34000
C 	C 	0.46760 0.23324 0.95609 0.00800
C 	C 	0.61430 0.20500 0.01562 -0.00000
C 	C 	0.75840 0.19302 0.07668 0.21000
C 	C 	0.79250 0.14684 0.05600 -0.14400
C 	C 	0.88290 0.12097 0.07591 -0.01700
C 	C 	0.93850 0.14191 0.11740 -0.03600
C 	C 	0.90340 0.18755 0.13861 -0.01600
C 	C 	0.81290 0.21236 0.11815 -0.14400
C 	C 	0.92170 0.07434 0.05009 0.33000
C 	C 	0.96360 0.21115 0.18116 0.32800
C 	C 	0.45810 0.75000 -0.00000 0.02100
C 	C 	0.54190 0.25000 0.50000 0.02400
C 	C 	0.54190 0.25000 -0.00000 0.02300
C 	C 	0.45810 0.75000 0.50000 0.02400
O 	O 	0.92180 0.67383 0.80208 -0.39900
O 	O 	0.78996 0.73363 0.80410 -0.39400
O 	O 	0.96660 0.55268 0.93567 -0.40700
O 	O 	0.83752 0.54284 0.99622 -0.39900
O 	O 	0.58998 0.68948 0.97037 -0.23200
O 	O 	0.32535 0.72128 0.05925 -0.23100
O 	O 	0.12511 0.56110 0.00994 -0.40400
O 	O 	0.99469 0.55189 0.06948 -0.39300
O 	O 	0.94832 0.69130 0.19733 -0.39100
O 	O 	0.07670 0.75252 0.19821 -0.40000
O 	O 	0.07820 0.32617 0.30208 -0.39900
O 	O 	0.21004 0.26637 0.30410 -0.39400
O 	O 	0.03340 0.44732 0.43567 -0.40800
O 	O 	0.16248 0.45716 0.49622 -0.40000
O 	O 	0.41002 0.31052 0.47037 -0.23200
O 	O 	0.67465 0.27872 0.55925 -0.23100
O 	O 	0.87489 0.43890 0.50994 -0.40400
O 	O 	0.00531 0.44811 0.56948 -0.39200
O 	O 	0.05168 0.30870 0.69733 -0.39100
O 	O 	0.92330 0.24748 0.69821 -0.40000
O 	O 	0.07820 0.17383 0.69792 -0.39800
O 	O 	0.21004 0.23363 0.69590 -0.39400
O 	O 	0.03340 0.05268 0.56433 -0.40500
O 	O 	0.16248 0.04284 0.50378 -0.39800
O 	O 	0.41002 0.18948 0.52963 -0.23200
O 	O 	0.67465 0.22128 0.44075 -0.23100
O 	O 	0.87489 0.06110 0.49006 -0.40400
O 	O 	0.00531 0.05189 0.43052 -0.38700
O 	O 	0.05168 0.19130 0.30267 -0.38900
O 	O 	0.92330 0.25252 0.30179 -0.40000
O 	O 	0.92180 0.82617 0.19792 -0.39800
O 	O 	0.78996 0.76637 0.19590 -0.39400
O 	O 	0.96660 0.94732 0.06433 -0.40600
O 	O 	0.83752 0.95716 0.00378 -0.39900
O 	O 	0.58998 0.81052 0.02963 -0.23300
O 	O 	0.32535 0.77872 0.94075 -0.23200
O 	O 	0.12511 0.93890 0.99006 -0.40300
O 	O 	0.99469 0.94811 0.93052 -0.38700
O 	O 	0.94832 0.80870 0.80267 -0.38900
O 	O 	0.07670 0.74748 0.80179 -0.40000
O 	O 	0.07820 0.32617 0.19792 -0.39900
O 	O 	0.21004 0.26637 0.19590 -0.39400
O 	O 	0.03340 0.44732 0.06433 -0.40800
O 	O 	0.16248 0.45716 0.00378 -0.40000
O 	O 	0.41002 0.31052 0.02963 -0.23200
O 	O 	0.67465 0.27872 0.94075 -0.23100
O 	O 	0.87489 0.43890 0.99006 -0.40400
O 	O 	0.00531 0.44811 0.93052 -0.39200
O 	O 	0.05168 0.30870 0.80267 -0.39100
O 	O 	0.92330 0.24748 0.80179 -0.40000
O 	O 	0.92180 0.67383 0.69792 -0.39900
O 	O 	0.78996 0.73363 0.69590 -0.39400
O 	O 	0.96660 0.55268 0.56433 -0.40800
O 	O 	0.83752 0.54284 0.50378 -0.40000
O 	O 	0.58998 0.68948 0.52963 -0.23200
O 	O 	0.32535 0.72128 0.44075 -0.23100
O 	O 	0.12511 0.56110 0.49006 -0.40400
O 	O 	0.99469 0.55189 0.43052 -0.39200
O 	O 	0.94832 0.69130 0.30267 -0.39100
O 	O 	0.07670 0.75252 0.30179 -0.40000
O 	O 	0.92180 0.82617 0.30208 -0.39800
O 	O 	0.78996 0.76637 0.30410 -0.39400
O 	O 	0.96660 0.94732 0.43567 -0.40500
O 	O 	0.83752 0.95716 0.49622 -0.39800
O 	O 	0.58998 0.81052 0.47037 -0.23200
O 	O 	0.32535 0.77872 0.55925 -0.23100
O 	O 	0.12511 0.93890 0.50994 -0.40400
O 	O 	0.99469 0.94811 0.56948 -0.38700
O 	O 	0.94832 0.80870 0.69733 -0.38900
O 	O 	0.07670 0.74748 0.69821 -0.40000
O 	O 	0.07820 0.17383 0.80208 -0.39800
O 	O 	0.21004 0.23363 0.80410 -0.39400
O 	O 	0.03340 0.05268 0.93567 -0.40500
O 	O 	0.16248 0.04284 0.99622 -0.39800
O 	O 	0.41002 0.18948 0.97037 -0.23200
O 	O 	0.67465 0.22128 0.05925 -0.23100
O 	O 	0.87489 0.06110 0.00994 -0.40400
O 	O 	0.00531 0.05189 0.06948 -0.38700
O 	O 	0.05168 0.19130 0.19733 -0.38900
O 	O 	0.92330 0.25252 0.19821 -0.40000
