data_crystal

_cell_length_a 12.33500
_cell_length_b 12.33500
_cell_length_c 5.26500
_cell_angle_alpha 90.00000
_cell_angle_beta  90.00000
_cell_angle_gamma 90.00000

_symmetry_space_group_name_	'P 1'
_symmetry_space_group_name_H-M	'P 1'

loop_
_symmetry_equiv_pos_as_xyz
  x,y,z

loop_
_atom_site_label
_atom_site_type_symbol
_atom_site_fract_x
_atom_site_fract_y
_atom_site_fract_z
_atom_site_charge
C 	C 	0.29540 0.79430 0.71950 -0.09000
H 	H 	0.26330 0.80320 0.54640 0.04900
C 	C 	0.34480 0.68140 0.73930 -0.10500
H 	H 	0.38240 0.66140 0.58000 0.07100
H 	H 	0.28830 0.62650 0.77610 0.06600
C 	C 	0.47560 0.83060 0.90080 -0.15400
H 	H 	0.54230 0.82850 0.79270 0.08400
C 	C 	0.49840 0.89520 0.14020 0.38300
C 	C 	0.20620 0.81340 0.91840 0.28500
N 	N 	0.38370 0.87410 0.75060 -0.26100
H 	H 	0.40200 0.89700 0.61600 0.13800
O 	O 	0.58324 0.87131 0.25700 -0.42800
O 	O 	0.43148 0.96677 0.21120 -0.43500
O 	O 	0.20776 0.89911 0.04650 -0.37500
O 	O 	0.13228 0.74314 0.94200 -0.40700
S 	S 	0.43970 0.69230 0.99992 0.00500
Co	Co	0.32124 0.01546 0.94137 1.14600
C 	C 	0.70460 0.20570 0.21950 -0.09700
H 	H 	0.73670 0.19680 0.04640 0.05600
C 	C 	0.65520 0.31860 0.23930 -0.10800
H 	H 	0.61760 0.33860 0.08000 0.07700
H 	H 	0.71170 0.37350 0.27610 0.07400
C 	C 	0.52440 0.16940 0.40080 -0.12900
H 	H 	0.45770 0.17150 0.29270 0.08400
C 	C 	0.50160 0.10480 0.64020 0.35400
C 	C 	0.79380 0.18660 0.41840 0.32500
N 	N 	0.61630 0.12590 0.25060 -0.26000
H 	H 	0.59800 0.10300 0.11600 0.14700
O 	O 	0.41676 0.12869 0.75700 -0.44000
O 	O 	0.56852 0.03323 0.71120 -0.44400
O 	O 	0.79224 0.10089 0.54650 -0.41700
O 	O 	0.86772 0.25686 0.44200 -0.40600
S 	S 	0.56030 0.30770 0.49992 0.02000
Co	Co	0.67876 0.98454 0.44137 1.16000
C 	C 	0.20570 0.29540 0.96950 -0.13600
H 	H 	0.19680 0.26330 0.79640 0.05400
C 	C 	0.31860 0.34480 0.98930 -0.18500
H 	H 	0.33860 0.38240 0.83000 0.08400
H 	H 	0.37350 0.28830 0.02610 0.11500
C 	C 	0.16940 0.47560 0.15080 -0.13900
H 	H 	0.17150 0.54230 0.04270 0.09900
C 	C 	0.10480 0.49840 0.39020 0.36000
C 	C 	0.18660 0.20620 0.16840 0.35500
N 	N 	0.12590 0.38370 0.00060 -0.21000
H 	H 	0.10300 0.40200 0.86600 0.10000
O 	O 	0.12869 0.58324 0.50700 -0.42900
O 	O 	0.03323 0.43148 0.46120 -0.43700
O 	O 	0.10089 0.20776 0.29650 -0.41800
O 	O 	0.25686 0.13228 0.19200 -0.40000
S 	S 	0.30770 0.43970 0.24992 0.06500
Co	Co	0.98454 0.32124 0.19137 1.16300
C 	C 	0.79430 0.70460 0.46950 -0.09800
H 	H 	0.80320 0.73670 0.29640 0.05600
C 	C 	0.68140 0.65520 0.48930 -0.10500
H 	H 	0.66140 0.61760 0.33000 0.07500
H 	H 	0.62650 0.71170 0.52610 0.07300
C 	C 	0.83060 0.52440 0.65080 -0.11800
H 	H 	0.82850 0.45770 0.54270 0.07600
C 	C 	0.89520 0.50160 0.89020 0.31900
C 	C 	0.81340 0.79380 0.66840 0.32600
N 	N 	0.87410 0.61630 0.50060 -0.26100
H 	H 	0.89700 0.59800 0.36600 0.14400
O 	O 	0.87131 0.41676 0.00700 -0.39900
O 	O 	0.96677 0.56852 0.96120 -0.43900
O 	O 	0.89911 0.79224 0.79650 -0.42000
O 	O 	0.74314 0.86772 0.69200 -0.40900
S 	S 	0.69230 0.56030 0.74992 0.01200
Co	Co	0.01546 0.67876 0.69137 1.15900
