data_crystal

_cell_length_a 11.83400
_cell_length_b 10.23700
_cell_length_c 6.30900
_cell_angle_alpha 88.46000
_cell_angle_beta  90.77000
_cell_angle_gamma 111.96000

_symmetry_space_group_name_	'P 1'
_symmetry_space_group_name_H-M	'P 1'

loop_
_symmetry_equiv_pos_as_xyz
  x,y,z

loop_
_atom_site_label
_atom_site_type_symbol
_atom_site_fract_x
_atom_site_fract_y
_atom_site_fract_z
_atom_site_charge
Rb	Rb	0.12456 0.05015 0.24779 0.72800
O 	O 	0.27390 0.36340 0.57270 -0.46900
C 	C 	0.22480 0.45850 0.59990 0.25000
C 	C 	0.20710 0.53970 0.42970 -0.22300
C 	C 	0.15130 0.63340 0.45940 0.02800
C 	C 	0.11360 0.64810 0.65860 -0.02000
N 	N 	0.05180 0.74380 0.68910 -0.00800
O 	O 	0.03330 0.80900 0.53500 -0.19000
O 	O 	0.01850 0.75660 0.86880 -0.15100
C 	C 	0.13180 0.57270 0.83120 0.03800
C 	C 	0.18780 0.47820 0.80060 -0.24500
O 	O 	0.14140 0.10390 0.78000 -5.06500
H 	H 	0.23600 0.53400 0.29700 0.09300
H 	H 	0.13900 0.68300 0.34600 0.01000
H 	H 	0.10500 0.58000 0.97800 0.02400
H 	H 	0.20200 0.42900 0.91800 0.07900
H 	H 	0.16300 0.16500 0.74100 3.07500
H 	H 	0.18300 0.06000 0.80000 2.04600
Rb	Rb	0.87544 0.94985 0.75221 0.72800
O 	O 	0.72610 0.63660 0.42730 -0.46900
C 	C 	0.77520 0.54150 0.40010 0.25000
C 	C 	0.79290 0.46030 0.57030 -0.22300
C 	C 	0.84870 0.36660 0.54060 0.02800
C 	C 	0.88640 0.35190 0.34140 -0.02000
N 	N 	0.94820 0.25620 0.31090 -0.00800
O 	O 	0.96670 0.19100 0.46500 -0.19000
O 	O 	0.98150 0.24340 0.13120 -0.15100
C 	C 	0.86820 0.42730 0.16880 0.03800
C 	C 	0.81220 0.52180 0.19940 -0.24500
O 	O 	0.85860 0.89610 0.22000 -5.06500
H 	H 	0.76400 0.46600 0.70300 0.09300
H 	H 	0.86100 0.31700 0.65400 0.01000
H 	H 	0.89500 0.42000 0.02200 0.02400
H 	H 	0.79800 0.57100 0.08200 0.07900
H 	H 	0.83700 0.83500 0.25900 3.07500
H 	H 	0.81700 0.94000 0.20000 2.04600
