data_crystal

_cell_length_a 12.77320
_cell_length_b 12.77320
_cell_length_c 11.64500
_cell_angle_alpha 90.00000
_cell_angle_beta  90.00000
_cell_angle_gamma 90.00000

_symmetry_space_group_name_	'P 1'
_symmetry_space_group_name_H-M	'P 1'

loop_
_symmetry_equiv_pos_as_xyz
  x,y,z

loop_
_atom_site_label
_atom_site_type_symbol
_atom_site_fract_x
_atom_site_fract_y
_atom_site_fract_z
_atom_site_charge
O 	O 	0.38658 0.54880 0.36202 -0.39100
O 	O 	0.48800 0.68840 0.37550 -0.30600
C 	C 	0.42110 0.63380 0.32590 0.29500
C 	C 	0.37580 0.67460 0.21330 -0.01100
C 	C 	0.28370 0.63430 0.16930 -0.08200
H 	H 	0.25010 0.57890 0.20580 0.06100
C 	C 	0.24220 0.67740 0.07070 0.04300
H 	H 	0.17970 0.65150 0.04130 -0.00600
N 	N 	0.29119 0.75660 0.01659 -0.14300
C 	C 	0.38280 0.79360 0.05540 0.04700
H 	H 	0.41740 0.84600 0.01500 0.01100
C 	C 	0.42600 0.75410 0.15510 -0.08100
H 	H 	0.48870 0.78110 0.18290 0.07300
C 	C 	0.24690 0.80140 0.90887 -0.00100
H 	H 	0.26190 0.87580 0.90550 0.06800
H 	H 	0.17150 0.79250 0.90860 0.05200
C 	C 	0.29350 0.74760 0.80490 -0.13900
H 	H 	0.27860 0.67320 0.80830 0.08500
H 	H 	0.36890 0.75670 0.80500 0.08800
O 	O 	0.61342 0.45120 0.36202 -0.38900
O 	O 	0.51200 0.31160 0.37550 -0.31600
C 	C 	0.57890 0.36620 0.32590 0.29600
C 	C 	0.62420 0.32540 0.21330 -0.01400
C 	C 	0.71630 0.36570 0.16930 -0.07700
H 	H 	0.74990 0.42110 0.20580 0.06900
C 	C 	0.75780 0.32260 0.07070 0.04000
H 	H 	0.82030 0.34850 0.04130 0.01600
N 	N 	0.70881 0.24340 0.01659 -0.14300
C 	C 	0.61720 0.20640 0.05540 0.04500
H 	H 	0.58260 0.15400 0.01500 -0.01000
C 	C 	0.57400 0.24590 0.15510 -0.08300
H 	H 	0.51130 0.21890 0.18290 0.05900
C 	C 	0.75310 0.19860 0.90887 -0.00200
H 	H 	0.73810 0.12420 0.90550 0.04800
H 	H 	0.82850 0.20750 0.90860 0.07000
C 	C 	0.70650 0.25240 0.80490 -0.13700
H 	H 	0.72140 0.32680 0.80830 0.09000
H 	H 	0.63110 0.24330 0.80500 0.08200
O 	O 	0.54880 0.61342 0.63798 -0.38800
O 	O 	0.68840 0.51200 0.62450 -0.30800
C 	C 	0.63380 0.57890 0.67410 0.30000
C 	C 	0.67460 0.62420 0.78670 -0.01800
C 	C 	0.63430 0.71630 0.83070 -0.05600
H 	H 	0.57890 0.74990 0.79420 0.06900
C 	C 	0.67740 0.75780 0.92930 0.03600
H 	H 	0.65150 0.82030 0.95870 0.05400
N 	N 	0.75660 0.70881 0.98341 -0.07600
C 	C 	0.79360 0.61720 0.94460 0.04300
H 	H 	0.84600 0.58260 0.98500 0.05100
C 	C 	0.75410 0.57400 0.84490 -0.05800
H 	H 	0.78110 0.51130 0.81710 0.07300
C 	C 	0.80140 0.75310 0.09113 -0.16400
H 	H 	0.87580 0.73810 0.09450 0.09300
H 	H 	0.79250 0.82850 0.09140 0.10100
C 	C 	0.74760 0.70650 0.19510 -0.01600
H 	H 	0.67320 0.72140 0.19170 0.04100
H 	H 	0.75670 0.63110 0.19500 0.03700
O 	O 	0.45120 0.38658 0.63798 -0.39000
O 	O 	0.31160 0.48800 0.62450 -0.31500
C 	C 	0.36620 0.42110 0.67410 0.30200
C 	C 	0.32540 0.37580 0.78670 -0.01700
C 	C 	0.36570 0.28370 0.83070 -0.06100
H 	H 	0.42110 0.25010 0.79420 0.06400
C 	C 	0.32260 0.24220 0.92930 0.04300
H 	H 	0.34850 0.17970 0.95870 0.03500
N 	N 	0.24340 0.29119 0.98341 -0.08700
C 	C 	0.20640 0.38280 0.94460 0.04700
H 	H 	0.15400 0.41740 0.98500 0.03200
C 	C 	0.24590 0.42600 0.84490 -0.06300
H 	H 	0.21890 0.48870 0.81710 0.06300
C 	C 	0.19860 0.24690 0.09113 -0.10000
H 	H 	0.12420 0.26190 0.09450 0.04000
H 	H 	0.20750 0.17150 0.09140 0.04400
C 	C 	0.25240 0.29350 0.19510 -0.10400
H 	H 	0.32680 0.27860 0.19170 0.05900
H 	H 	0.24330 0.36890 0.19500 0.05500
O 	O 	0.88658 0.95120 0.86202 -0.31600
O 	O 	0.98800 0.81160 0.87550 -0.25100
C 	C 	0.92110 0.86620 0.82590 0.28500
C 	C 	0.87580 0.82540 0.71330 0.01800
C 	C 	0.78370 0.86570 0.66930 -0.08100
H 	H 	0.75010 0.92110 0.70580 0.09000
C 	C 	0.74220 0.82260 0.57070 0.06100
H 	H 	0.67970 0.84850 0.54130 0.03000
N 	N 	0.79119 0.74340 0.51659 -0.12000
C 	C 	0.88280 0.70640 0.55540 0.06500
H 	H 	0.91740 0.65400 0.51500 0.03000
C 	C 	0.92600 0.74590 0.65510 -0.08200
H 	H 	0.98870 0.71890 0.68290 0.09400
C 	C 	0.74690 0.69860 0.40887 -0.02300
H 	H 	0.76190 0.62420 0.40550 0.05200
H 	H 	0.67150 0.70750 0.40860 0.05500
C 	C 	0.79350 0.75240 0.30490 -0.17100
H 	H 	0.77860 0.82680 0.30830 0.10900
H 	H 	0.86890 0.74330 0.30500 0.10300
O 	O 	0.11342 0.04880 0.86202 -0.41600
O 	O 	0.01200 0.18840 0.87550 -0.33100
C 	C 	0.07890 0.13380 0.82590 0.30100
C 	C 	0.12420 0.17460 0.71330 -0.03800
C 	C 	0.21630 0.13430 0.66930 -0.06400
H 	H 	0.24990 0.07890 0.70580 0.04700
C 	C 	0.25780 0.17740 0.57070 0.02500
H 	H 	0.32030 0.15150 0.54130 0.01700
N 	N 	0.20881 0.25660 0.51659 -0.11000
C 	C 	0.11720 0.29360 0.55540 0.03100
H 	H 	0.08260 0.34600 0.51500 0.00900
C 	C 	0.07400 0.25410 0.65510 -0.06800
H 	H 	0.01130 0.28110 0.68290 0.04500
C 	C 	0.25310 0.30140 0.40887 -0.08300
H 	H 	0.23810 0.37580 0.40550 0.06200
H 	H 	0.32850 0.29250 0.40860 0.06800
C 	C 	0.20650 0.24760 0.30490 -0.07800
H 	H 	0.22140 0.17320 0.30830 0.04200
H 	H 	0.13110 0.25670 0.30500 0.04000
O 	O 	0.04880 0.88658 0.13798 -0.41100
O 	O 	0.18840 0.98800 0.12450 -0.29500
C 	C 	0.13380 0.92110 0.17410 0.30200
C 	C 	0.17460 0.87580 0.28670 -0.01700
C 	C 	0.13430 0.78370 0.33070 -0.06700
H 	H 	0.07890 0.75010 0.29420 0.04700
C 	C 	0.17740 0.74220 0.42930 0.03500
H 	H 	0.15150 0.67970 0.45870 0.01500
N 	N 	0.25660 0.79119 0.48341 -0.11000
C 	C 	0.29360 0.88280 0.44460 0.04800
H 	H 	0.34600 0.91740 0.48500 0.03600
C 	C 	0.25410 0.92600 0.34490 -0.06700
H 	H 	0.28110 0.98870 0.31710 0.08500
C 	C 	0.30140 0.74690 0.59113 -0.07900
H 	H 	0.37580 0.76190 0.59450 0.06900
H 	H 	0.29250 0.67150 0.59140 0.06800
C 	C 	0.24760 0.79350 0.69510 -0.07500
H 	H 	0.17320 0.77860 0.69170 0.05300
H 	H 	0.25670 0.86890 0.69500 0.07000
O 	O 	0.95120 0.11342 0.13798 -0.37600
O 	O 	0.81160 0.01200 0.12450 -0.34900
C 	C 	0.86620 0.07890 0.17410 0.30100
C 	C 	0.82540 0.12420 0.28670 -0.02000
C 	C 	0.86570 0.21630 0.33070 -0.06400
H 	H 	0.92110 0.24990 0.29420 0.07900
C 	C 	0.82260 0.25780 0.42930 0.04200
H 	H 	0.84850 0.32030 0.45870 0.03500
N 	N 	0.74340 0.20881 0.48341 -0.11000
C 	C 	0.70640 0.11720 0.44460 0.04000
H 	H 	0.65400 0.08260 0.48500 0.00900
C 	C 	0.74590 0.07400 0.34490 -0.06900
H 	H 	0.71890 0.01130 0.31710 0.04500
C 	C 	0.69860 0.25310 0.59113 -0.07600
H 	H 	0.62420 0.23810 0.59450 0.06200
H 	H 	0.70750 0.32850 0.59140 0.07100
C 	C 	0.75240 0.20650 0.69510 -0.07800
H 	H 	0.82680 0.22140 0.69170 0.07400
H 	H 	0.74330 0.13110 0.69500 0.05100
Cd	Cd	0.50000 0.50000 0.50000 1.23800
Cd	Cd	-0.00000 0.00000 -0.00000 1.17300
