data_crystal

_cell_length_a 15.13700
_cell_length_b 15.13700
_cell_length_c 9.61870
_cell_angle_alpha 90.00000
_cell_angle_beta  90.00000
_cell_angle_gamma 90.00000

_symmetry_space_group_name_	'P 1'
_symmetry_space_group_name_H-M	'P 1'

loop_
_symmetry_equiv_pos_as_xyz
  x,y,z

loop_
_atom_site_label
_atom_site_type_symbol
_atom_site_fract_x
_atom_site_fract_y
_atom_site_fract_z
_atom_site_charge
Zn	Zn	0.50000 0.50000 0.65140 1.18600
Zn	Zn	0.50000 0.50000 0.34860 1.18600
O 	O 	0.50000 0.63470 0.62030 -0.47000
C 	C 	0.50000 0.81610 0.62500 0.08700
H 	H 	0.50000 0.78690 0.71220 0.02800
N 	N 	0.50000 0.90540 0.61900 -0.12200
O 	O 	0.50000 0.36530 0.62030 -0.47000
C 	C 	0.50000 0.18390 0.62500 0.08700
H 	H 	0.50000 0.21310 0.71220 0.02800
N 	N 	0.50000 0.09460 0.61900 -0.12200
O 	O 	0.36530 0.50000 0.62030 -0.47000
C 	C 	0.18390 0.50000 0.62500 0.08700
H 	H 	0.21310 0.50000 0.71220 0.02800
N 	N 	0.09460 0.50000 0.61900 -0.12200
O 	O 	0.63470 0.50000 0.62030 -0.47000
C 	C 	0.81610 0.50000 0.62500 0.08700
H 	H 	0.78690 0.50000 0.71220 0.02800
N 	N 	0.90540 0.50000 0.61900 -0.12200
O 	O 	0.50000 0.63470 0.37970 -0.47000
C 	C 	0.50000 0.81610 0.37500 0.08700
H 	H 	0.50000 0.78690 0.28780 0.02800
N 	N 	0.50000 0.90540 0.38100 -0.12200
O 	O 	0.50000 0.36530 0.37970 -0.47000
C 	C 	0.50000 0.18390 0.37500 0.08700
H 	H 	0.50000 0.21310 0.28780 0.02800
N 	N 	0.50000 0.09460 0.38100 -0.12200
O 	O 	0.63470 0.50000 0.37970 -0.47000
C 	C 	0.81610 0.50000 0.37500 0.08700
H 	H 	0.78690 0.50000 0.28780 0.02800
N 	N 	0.90540 0.50000 0.38100 -0.12200
O 	O 	0.36530 0.50000 0.37970 -0.47000
C 	C 	0.18390 0.50000 0.37500 0.08700
H 	H 	0.21310 0.50000 0.28780 0.02800
N 	N 	0.09460 0.50000 0.38100 -0.12200
C 	C 	0.50000 0.66750 0.50000 0.38300
C 	C 	0.50000 0.76630 0.50000 -0.12600
C 	C 	0.50000 0.95190 0.50000 0.10400
C 	C 	0.50000 0.33250 0.50000 0.38300
C 	C 	0.50000 0.23370 0.50000 -0.12600
C 	C 	0.50000 0.04810 0.50000 0.10400
C 	C 	0.33250 0.50000 0.50000 0.38300
C 	C 	0.23370 0.50000 0.50000 -0.12600
C 	C 	0.04810 0.50000 0.50000 0.10400
C 	C 	0.66750 0.50000 0.50000 0.38300
C 	C 	0.76630 0.50000 0.50000 -0.12600
C 	C 	0.95190 0.50000 0.50000 0.10400
