data_crystal

_cell_length_a 14.78570
_cell_length_b 16.52840
_cell_length_c 10.23020
_cell_angle_alpha 90.00000
_cell_angle_beta  119.10400
_cell_angle_gamma 90.00000

_symmetry_space_group_name_	'P 1'
_symmetry_space_group_name_H-M	'P 1'

loop_
_symmetry_equiv_pos_as_xyz
  x,y,z

loop_
_atom_site_label
_atom_site_type_symbol
_atom_site_fract_x
_atom_site_fract_y
_atom_site_fract_z
_atom_site_charge
Zn	Zn	0.04693 0.04566 0.68315 1.19400
C 	C 	0.12350 0.88760 0.83770 -0.09200
C 	C 	0.16820 0.81170 0.88060 0.05100
C 	C 	0.19800 0.81100 0.68490 -0.01400
C 	C 	0.15370 0.88630 0.64060 0.01100
C 	C 	0.08120 0.93390 0.92350 0.35500
N 	N 	0.20600 0.77270 0.80350 -0.12000
N 	N 	0.11540 0.92480 0.71660 -0.20700
O 	O 	0.09630 0.90510 0.04500 -0.47100
O 	O 	0.03470 0.99830 0.86560 -0.47300
N 	N 	0.89420 0.02250 0.51870 -0.29100
N 	N 	0.51340 0.66080 0.73940 -0.29500
C 	C 	0.84690 0.07630 0.40890 0.23900
C 	C 	0.75020 0.06520 0.28810 -0.44300
C 	C 	0.69600 0.99420 0.27930 0.29000
C 	C 	0.74380 0.93950 0.39690 -0.24400
C 	C 	0.84150 0.95500 0.51200 0.16100
C 	C 	0.55310 0.72900 0.71830 0.21100
C 	C 	0.54280 0.80220 0.77250 -0.45500
C 	C 	0.49070 0.80880 0.85180 0.37000
C 	C 	0.44720 0.73890 0.86890 -0.27100
C 	C 	0.45910 0.66690 0.80980 0.15200
C 	C 	0.59050 0.97850 0.14920 -0.36300
C 	C 	0.59220 0.90450 0.06040 0.36200
C 	C 	0.48680 0.88690 0.92550 -0.65300
H 	H 	0.16000 0.78100 0.97000 0.01900
H 	H 	0.21300 0.78100 0.62500 0.03900
H 	H 	0.14900 0.90900 0.55900 0.00200
H 	H 	0.61200 0.85300 0.13300 -0.04900
H 	H 	0.43200 0.88600 0.95300 0.19500
H 	H 	0.64000 0.91200 0.04600 -0.11800
H 	H 	0.53000 0.97500 0.16700 0.11100
H 	H 	0.55400 0.03200 0.07300 0.08300
H 	H 	0.43000 0.61800 0.82000 -0.02700
H 	H 	0.40300 0.73400 0.92500 0.10600
H 	H 	0.45800 0.92500 0.86000 0.24600
H 	H 	0.56200 0.84800 0.76000 0.21200
H 	H 	0.60500 0.72700 0.67800 -0.04600
H 	H 	0.86600 0.92100 0.58500 -0.03900
H 	H 	0.71000 0.88900 0.41200 0.10000
H 	H 	0.72100 0.09900 0.22400 0.22400
H 	H 	0.88400 0.12300 0.40800 -0.06200
Zn	Zn	0.54693 0.54566 0.68315 1.19500
C 	C 	0.62350 0.38760 0.83770 -0.09000
C 	C 	0.66820 0.31170 0.88060 0.05100
C 	C 	0.69800 0.31100 0.68490 -0.01400
C 	C 	0.65370 0.38630 0.64060 0.01200
C 	C 	0.58120 0.43390 0.92350 0.35300
N 	N 	0.70600 0.27270 0.80350 -0.11900
N 	N 	0.61540 0.42480 0.71660 -0.20600
O 	O 	0.59630 0.40510 0.04500 -0.46500
O 	O 	0.53470 0.49830 0.86560 -0.46700
N 	N 	0.39420 0.52250 0.51870 -0.29500
N 	N 	0.01340 0.16080 0.73940 -0.31000
C 	C 	0.34690 0.57630 0.40890 0.23500
C 	C 	0.25020 0.56520 0.28810 -0.43900
C 	C 	0.19600 0.49420 0.27930 0.28200
C 	C 	0.24380 0.43950 0.39690 -0.24200
C 	C 	0.34150 0.45500 0.51200 0.15900
C 	C 	0.05310 0.22900 0.71830 0.22400
C 	C 	0.04280 0.30220 0.77250 -0.49300
C 	C 	0.99070 0.30880 0.85180 0.39600
C 	C 	0.94720 0.23890 0.86890 -0.28500
C 	C 	0.95910 0.16690 0.80980 0.17700
C 	C 	0.09050 0.47850 0.14920 -0.34600
C 	C 	0.09220 0.40450 0.06040 0.32600
C 	C 	0.98680 0.38690 0.92550 -0.63400
H 	H 	0.66000 0.28100 0.97000 0.01900
H 	H 	0.71300 0.28100 0.62500 0.04100
H 	H 	0.64900 0.40900 0.55900 0.00300
H 	H 	0.11200 0.35300 0.13300 -0.04400
H 	H 	0.93200 0.38600 0.95300 0.19300
H 	H 	0.14000 0.41200 0.04600 -0.10400
H 	H 	0.03000 0.47500 0.16700 0.10200
H 	H 	0.05400 0.53200 0.07300 0.07600
H 	H 	0.93000 0.11800 0.82000 -0.03200
H 	H 	0.90300 0.23400 0.92500 0.11100
H 	H 	0.95800 0.42500 0.86000 0.24400
H 	H 	0.06200 0.34800 0.76000 0.22300
H 	H 	0.10500 0.22700 0.67800 -0.05100
H 	H 	0.36600 0.42100 0.58500 -0.04200
H 	H 	0.21000 0.38900 0.41200 0.09800
H 	H 	0.22100 0.59900 0.22400 0.22000
H 	H 	0.38400 0.62300 0.40800 -0.06600
Zn	Zn	0.04693 0.95434 0.18315 1.19300
C 	C 	0.12350 0.11240 0.33770 -0.09300
C 	C 	0.16820 0.18830 0.38060 0.05100
C 	C 	0.19800 0.18900 0.18490 -0.01500
C 	C 	0.15370 0.11370 0.14060 0.01000
C 	C 	0.08120 0.06610 0.42350 0.35700
N 	N 	0.20600 0.22730 0.30350 -0.12000
N 	N 	0.11540 0.07520 0.21660 -0.20700
O 	O 	0.09630 0.09490 0.54500 -0.47300
O 	O 	0.03470 0.00170 0.36560 -0.47300
N 	N 	0.89420 0.97750 0.01870 -0.29200
N 	N 	0.51340 0.33920 0.23940 -0.29400
C 	C 	0.84690 0.92370 0.90890 0.23800
C 	C 	0.75020 0.93480 0.78810 -0.44600
C 	C 	0.69600 0.00580 0.77930 0.29300
C 	C 	0.74380 0.06050 0.89690 -0.25400
C 	C 	0.84150 0.04500 0.01200 0.17400
C 	C 	0.55310 0.27100 0.21830 0.21000
C 	C 	0.54280 0.19780 0.27250 -0.45200
C 	C 	0.49070 0.19120 0.35180 0.36700
C 	C 	0.44720 0.26110 0.36890 -0.26800
C 	C 	0.45910 0.33310 0.30980 0.15100
C 	C 	0.59050 0.02150 0.64920 -0.35900
C 	C 	0.59220 0.09550 0.56040 0.35200
C 	C 	0.48680 0.11310 0.42550 -0.64300
H 	H 	0.16000 0.21900 0.47000 0.01900
H 	H 	0.21300 0.21900 0.12500 0.04000
H 	H 	0.14900 0.09100 0.05900 0.00300
H 	H 	0.61200 0.14700 0.63300 -0.04700
H 	H 	0.43200 0.11400 0.45300 0.19300
H 	H 	0.64000 0.08800 0.54600 -0.11400
H 	H 	0.53000 0.02500 0.66700 0.10900
H 	H 	0.55400 0.96800 0.57300 0.08100
H 	H 	0.43000 0.38200 0.32000 -0.02600
H 	H 	0.40300 0.26600 0.42500 0.10600
H 	H 	0.45800 0.07500 0.36000 0.24300
H 	H 	0.56200 0.15200 0.26000 0.21100
H 	H 	0.60500 0.27300 0.17800 -0.04500
H 	H 	0.86600 0.07900 0.08500 -0.04300
H 	H 	0.71000 0.11100 0.91200 0.10200
H 	H 	0.72100 0.90100 0.72400 0.22400
H 	H 	0.88400 0.87700 0.90800 -0.06300
Zn	Zn	0.54693 0.45434 0.18315 1.19600
C 	C 	0.62350 0.61240 0.33770 -0.09000
C 	C 	0.66820 0.68830 0.38060 0.05200
C 	C 	0.69800 0.68900 0.18490 -0.01400
C 	C 	0.65370 0.61370 0.14060 0.01300
C 	C 	0.58120 0.56610 0.42350 0.35800
N 	N 	0.70600 0.72730 0.30350 -0.11900
N 	N 	0.61540 0.57520 0.21660 -0.20500
O 	O 	0.59630 0.59490 0.54500 -0.46900
O 	O 	0.53470 0.50170 0.36560 -0.46700
N 	N 	0.39420 0.47750 0.01870 -0.29300
N 	N 	0.01340 0.83920 0.23940 -0.30900
C 	C 	0.34690 0.42370 0.90890 0.23000
C 	C 	0.25020 0.43480 0.78810 -0.43500
C 	C 	0.19600 0.50580 0.77930 0.27900
C 	C 	0.24380 0.56050 0.89690 -0.24400
C 	C 	0.34150 0.54500 0.01200 0.16300
C 	C 	0.05310 0.77100 0.21830 0.22200
C 	C 	0.04280 0.69780 0.27250 -0.48800
C 	C 	0.99070 0.69120 0.35180 0.38900
C 	C 	0.94720 0.76110 0.36890 -0.28100
C 	C 	0.95910 0.83310 0.30980 0.17600
C 	C 	0.09050 0.52150 0.64920 -0.33800
C 	C 	0.09220 0.59550 0.56040 0.30600
C 	C 	0.98680 0.61310 0.42550 -0.61600
H 	H 	0.66000 0.71900 0.47000 0.02000
H 	H 	0.71300 0.71900 0.12500 0.04100
H 	H 	0.64900 0.59100 0.05900 0.00400
H 	H 	0.11200 0.64700 0.63300 -0.04000
H 	H 	0.93200 0.61400 0.45300 0.18900
H 	H 	0.14000 0.58800 0.54600 -0.09700
H 	H 	0.03000 0.52500 0.66700 0.10000
H 	H 	0.05400 0.46800 0.57300 0.07300
H 	H 	0.93000 0.88200 0.32000 -0.03100
H 	H 	0.90300 0.76600 0.42500 0.11100
H 	H 	0.95800 0.57500 0.36000 0.23800
H 	H 	0.06200 0.65200 0.26000 0.22100
H 	H 	0.10500 0.77300 0.17800 -0.05000
H 	H 	0.36600 0.57900 0.08500 -0.04200
H 	H 	0.21000 0.61100 0.91200 0.09800
H 	H 	0.22100 0.40100 0.72400 0.21800
H 	H 	0.38400 0.37700 0.90800 -0.06500
