data_crystal

_cell_length_a 7.68380
_cell_length_b 14.95300
_cell_length_c 15.95500
_cell_angle_alpha 90.00000
_cell_angle_beta  90.00000
_cell_angle_gamma 90.00000

_symmetry_space_group_name_	'P 1'
_symmetry_space_group_name_H-M	'P 1'

loop_
_symmetry_equiv_pos_as_xyz
  x,y,z

loop_
_atom_site_label
_atom_site_type_symbol
_atom_site_fract_x
_atom_site_fract_y
_atom_site_fract_z
_atom_site_charge
Co	Co	0.97770 0.69340 0.37210 1.08000
Co	Co	0.02230 0.19340 0.62790 1.07700
Co	Co	0.52230 0.69340 0.87210 1.07900
Co	Co	0.47770 0.19340 0.12790 1.07700
Hg	Hg	0.45170 0.50000 0.56460 -0.02500
Hg	Hg	0.54830 0.00000 0.43540 -0.05000
Hg	Hg	0.04830 0.50000 0.06460 -0.02400
Hg	Hg	0.95170 -0.00000 0.93540 -0.04600
C 	C 	0.31000 0.68390 0.49290 0.11200
C 	C 	0.37000 0.53620 0.75600 0.11600
C 	C 	0.18600 0.34870 0.51160 0.10500
C 	C 	0.82600 0.53580 0.48420 0.11000
C 	C 	0.69000 0.18390 0.50710 0.11000
C 	C 	0.63000 0.03620 0.24400 0.09500
C 	C 	0.81400 0.84870 0.48840 0.10400
C 	C 	0.17400 0.03580 0.51580 0.08700
C 	C 	0.19000 0.68390 0.99290 0.10900
C 	C 	0.13000 0.53620 0.25600 0.11600
C 	C 	0.31400 0.34870 0.01160 0.10600
C 	C 	0.67400 0.53580 0.98420 0.11000
C 	C 	0.81000 0.18390 0.00710 0.10800
C 	C 	0.87000 0.03620 0.74400 0.09600
C 	C 	0.68600 0.84870 0.98840 0.10300
C 	C 	0.32600 0.03580 0.01580 0.08900
S 	S 	0.47200 0.66800 0.55960 -0.09600
S 	S 	0.29870 0.44970 0.69720 -0.10800
S 	S 	0.25060 0.43160 0.45130 -0.08000
S 	S 	0.76050 0.44550 0.54150 -0.09000
S 	S 	0.52800 0.16800 0.44040 -0.09800
S 	S 	0.70130 0.94970 0.30280 -0.08300
S 	S 	0.74940 0.93160 0.54870 -0.06400
S 	S 	0.23950 0.94550 0.45850 -0.06300
S 	S 	0.02800 0.66800 0.05960 -0.09200
S 	S 	0.20130 0.44970 0.19720 -0.10800
S 	S 	0.24940 0.43160 0.95130 -0.08200
S 	S 	0.73950 0.44550 0.04150 -0.09100
S 	S 	0.97200 0.16800 0.94040 -0.09600
S 	S 	0.79870 0.94970 0.80280 -0.08500
S 	S 	0.75060 0.93160 0.04870 -0.06400
S 	S 	0.26050 0.94550 0.95850 -0.06700
N 	N 	0.20300 0.69540 0.44770 -0.27600
N 	N 	0.41300 0.59240 0.79440 -0.28800
N 	N 	0.14100 0.29200 0.55300 -0.28100
N 	N 	0.87000 0.59490 0.44740 -0.27800
N 	N 	0.79700 0.19540 0.55230 -0.27600
N 	N 	0.58700 0.09240 0.20560 -0.28500
N 	N 	0.85900 0.79200 0.44700 -0.28000
N 	N 	0.13000 0.09490 0.55260 -0.27500
N 	N 	0.29700 0.69540 0.94770 -0.27500
N 	N 	0.08700 0.59240 0.29440 -0.28800
N 	N 	0.35900 0.29200 0.05300 -0.28100
N 	N 	0.63000 0.59490 0.94740 -0.27800
N 	N 	0.70300 0.19540 0.05230 -0.27700
N 	N 	0.91300 0.09240 0.70560 -0.28500
N 	N 	0.64100 0.79200 0.94700 -0.27900
N 	N 	0.37000 0.09490 0.05260 -0.27500
