data_crystal

_cell_length_a 7.77030
_cell_length_b 9.14990
_cell_length_c 14.46850
_cell_angle_alpha 89.96500
_cell_angle_beta  87.05000
_cell_angle_gamma 65.33200

_symmetry_space_group_name_	'P 1'
_symmetry_space_group_name_H-M	'P 1'

loop_
_symmetry_equiv_pos_as_xyz
  x,y,z

loop_
_atom_site_label
_atom_site_type_symbol
_atom_site_fract_x
_atom_site_fract_y
_atom_site_fract_z
_atom_site_charge
Zn	Zn	0.21857 0.96890 0.11066 1.23000
Zn	Zn	0.40719 0.93917 0.37925 1.23200
Zn	Zn	0.70314 0.30905 0.23582 1.23400
P 	P 	0.52300 0.67870 0.21007 0.45800
H 	H 	0.69800 0.65300 0.21200 -0.05200
P 	P 	0.13750 0.23630 0.27012 0.45600
H 	H 	0.20900 0.35400 0.27700 -0.00700
P 	P 	0.32210 0.89040 0.59355 0.46400
H 	H 	0.15300 0.93000 0.60210 -0.07100
P 	P 	0.19930 0.99990 0.88901 0.45500
H 	H 	0.29700 0.05300 0.83700 -0.04200
O 	O 	0.45040 0.77790 0.12450 -0.42700
O 	O 	0.22800 0.14650 0.17960 -0.46500
O 	O 	0.22500 0.04410 0.98600 -0.42900
O 	O 	0.99940 0.08010 0.85850 -0.46300
O 	O 	0.41980 0.76680 0.29800 -0.45600
O 	O 	0.19140 0.13330 0.35490 -0.45800
O 	O 	0.38090 0.83970 0.49410 -0.43700
O 	O 	0.35660 0.03600 0.62300 -0.45700
O 	O 	0.41390 0.74550 0.65440 -0.43000
O 	O 	0.92610 0.32990 0.26910 -0.45900
O 	O 	0.51690 0.51440 0.20200 -0.41600
O 	O 	0.28250 0.81770 0.87330 -0.46300
Zn	Zn	0.78143 0.03110 0.88934 1.23100
Zn	Zn	0.59281 0.06083 0.62075 1.23300
Zn	Zn	0.29686 0.69095 0.76418 1.23500
P 	P 	0.47700 0.32130 0.78993 0.45900
H 	H 	0.30200 0.34700 0.78800 -0.05100
P 	P 	0.86250 0.76370 0.72988 0.45700
H 	H 	0.79100 0.64600 0.72300 -0.00700
P 	P 	0.67790 0.10960 0.40645 0.46400
H 	H 	0.84700 0.07000 0.39790 -0.07100
P 	P 	0.80070 0.00010 0.11099 0.45500
H 	H 	0.70300 0.94700 0.16300 -0.04200
O 	O 	0.54960 0.22210 0.87550 -0.42700
O 	O 	0.77200 0.85350 0.82040 -0.46500
O 	O 	0.77500 0.95590 0.01400 -0.42900
O 	O 	0.00060 0.91990 0.14150 -0.46300
O 	O 	0.58020 0.23320 0.70200 -0.45600
O 	O 	0.80860 0.86670 0.64510 -0.45800
O 	O 	0.61910 0.16030 0.50590 -0.43700
O 	O 	0.64340 0.96400 0.37700 -0.45700
O 	O 	0.58610 0.25450 0.34560 -0.43000
O 	O 	0.07390 0.67010 0.73090 -0.45900
O 	O 	0.48310 0.48560 0.79800 -0.41600
O 	O 	0.71750 0.18230 0.12670 -0.46300
