data_crystal

_cell_length_a 10.33970
_cell_length_b 14.76320
_cell_length_c 13.77260
_cell_angle_alpha 90.00000
_cell_angle_beta  100.73400
_cell_angle_gamma 90.00000

_symmetry_space_group_name_	'P 1'
_symmetry_space_group_name_H-M	'P 1'

loop_
_symmetry_equiv_pos_as_xyz
  x,y,z

loop_
_atom_site_label
_atom_site_type_symbol
_atom_site_fract_x
_atom_site_fract_y
_atom_site_fract_z
_atom_site_charge
Zn	Zn	0.05411 0.92103 0.39766 1.21000
P 	P 	0.21080 0.84684 0.23170 0.45200
H 	H 	0.19400 0.75800 0.26100 -0.06400
P 	P 	0.56456 0.62075 0.11604 0.43500
H 	H 	0.66000 0.59920 0.20260 -0.02500
O 	O 	0.18810 0.90620 0.31610 -0.46700
O 	O 	0.45540 0.55201 0.10760 -0.46800
O 	O 	0.10890 0.85800 0.13930 -0.50400
O 	O 	0.63480 0.62050 0.02884 -0.42000
O 	O 	0.51290 0.71497 0.13271 -0.42900
O 	O 	0.34920 0.86151 0.21230 -0.42300
Zn	Zn	0.55411 0.42103 0.39766 1.23100
P 	P 	0.71080 0.34684 0.23170 0.45100
H 	H 	0.69400 0.25800 0.26100 -0.04500
P 	P 	0.06456 0.12075 0.11604 0.36000
H 	H 	0.16000 0.09920 0.20260 -0.03700
O 	O 	0.68810 0.40620 0.31610 -0.44000
O 	O 	0.95540 0.05201 0.10760 -0.38000
O 	O 	0.60890 0.35800 0.13930 -0.44900
O 	O 	0.13480 0.12050 0.02884 -0.43300
O 	O 	0.01290 0.21497 0.13271 -0.46200
O 	O 	0.84920 0.36151 0.21230 -0.37400
Zn	Zn	0.94589 0.92103 0.10234 1.25100
P 	P 	0.78920 0.84684 0.26830 0.45300
H 	H 	0.80600 0.75800 0.23900 -0.03400
P 	P 	0.43544 0.62075 0.38396 0.43400
H 	H 	0.34000 0.59920 0.29740 -0.04100
O 	O 	0.81190 0.90620 0.18390 -0.43500
O 	O 	0.54460 0.55201 0.39240 -0.46000
O 	O 	0.89110 0.85800 0.36070 -0.40800
O 	O 	0.36520 0.62050 0.47116 -0.43900
O 	O 	0.48710 0.71497 0.36729 -0.42500
O 	O 	0.65080 0.86151 0.28770 -0.41700
Zn	Zn	0.44589 0.42103 0.10234 1.23100
P 	P 	0.28920 0.34684 0.26830 0.45200
H 	H 	0.30600 0.25800 0.23900 -0.05200
P 	P 	0.93544 0.12075 0.38396 0.51100
H 	H 	0.84000 0.09920 0.29740 -0.02700
O 	O 	0.31190 0.40620 0.18390 -0.45900
O 	O 	0.04460 0.05201 0.39240 -0.54700
O 	O 	0.39110 0.35800 0.36070 -0.46300
O 	O 	0.86520 0.12050 0.47116 -0.42100
O 	O 	0.98710 0.21497 0.36729 -0.37700
O 	O 	0.15080 0.36151 0.28770 -0.45100
Zn	Zn	0.94589 0.07897 0.60234 1.25200
P 	P 	0.78920 0.15316 0.76830 0.45300
H 	H 	0.80600 0.24200 0.73900 -0.03400
P 	P 	0.43544 0.37925 0.88396 0.43400
H 	H 	0.34000 0.40080 0.79740 -0.04200
O 	O 	0.81190 0.09380 0.68390 -0.43500
O 	O 	0.54460 0.44799 0.89240 -0.46200
O 	O 	0.89110 0.14200 0.86070 -0.41000
O 	O 	0.36520 0.37950 0.97116 -0.44500
O 	O 	0.48710 0.28503 0.86729 -0.42800
O 	O 	0.65080 0.13849 0.78770 -0.41900
Zn	Zn	0.44589 0.57897 0.60234 1.23000
P 	P 	0.28920 0.65316 0.76830 0.45200
H 	H 	0.30600 0.74200 0.73900 -0.05300
P 	P 	0.93544 0.87925 0.88396 0.51200
H 	H 	0.84000 0.90080 0.79740 -0.02700
O 	O 	0.31190 0.59380 0.68390 -0.46100
O 	O 	0.04460 0.94799 0.89240 -0.55000
O 	O 	0.39110 0.64200 0.86070 -0.46500
O 	O 	0.86520 0.87950 0.97116 -0.42300
O 	O 	0.98710 0.78503 0.86729 -0.37700
O 	O 	0.15080 0.63849 0.78770 -0.45300
Zn	Zn	0.05411 0.07897 0.89766 1.20500
P 	P 	0.21080 0.15316 0.73170 0.45100
H 	H 	0.19400 0.24200 0.76100 -0.06700
P 	P 	0.56456 0.37925 0.61604 0.43500
H 	H 	0.66000 0.40080 0.70260 -0.02600
O 	O 	0.18810 0.09380 0.81610 -0.47100
O 	O 	0.45540 0.44799 0.60760 -0.47000
O 	O 	0.10890 0.14200 0.63930 -0.50700
O 	O 	0.63480 0.37950 0.52884 -0.42200
O 	O 	0.51290 0.28503 0.63271 -0.43000
O 	O 	0.34920 0.13849 0.71230 -0.42400
Zn	Zn	0.55411 0.57897 0.89766 1.23000
P 	P 	0.71080 0.65316 0.73170 0.45100
H 	H 	0.69400 0.74200 0.76100 -0.04500
P 	P 	0.06456 0.87925 0.61604 0.35700
H 	H 	0.16000 0.90080 0.70260 -0.03800
O 	O 	0.68810 0.59380 0.81610 -0.44100
O 	O 	0.95540 0.94799 0.60760 -0.37900
O 	O 	0.60890 0.64200 0.63930 -0.45100
O 	O 	0.13480 0.87950 0.52884 -0.44000
O 	O 	0.01290 0.78503 0.63271 -0.46500
O 	O 	0.84920 0.63849 0.71230 -0.37400
Zn	Zn	0.50000 0.78471 0.25000 1.23600
Zn	Zn	0.00000 0.28471 0.25000 1.20300
Zn	Zn	0.50000 0.21529 0.75000 1.23600
Zn	Zn	0.00000 0.71529 0.75000 1.20200
