data_crystal

_cell_length_a 9.02380
_cell_length_b 9.03920
_cell_length_c 13.80710
_cell_angle_alpha 95.96500
_cell_angle_beta  96.04900
_cell_angle_gamma 110.22800

_symmetry_space_group_name_	'P 1'
_symmetry_space_group_name_H-M	'P 1'

loop_
_symmetry_equiv_pos_as_xyz
  x,y,z

loop_
_atom_site_label
_atom_site_type_symbol
_atom_site_fract_x
_atom_site_fract_y
_atom_site_fract_z
_atom_site_charge
Zn	Zn	0.97132 0.13261 0.89652 1.22700
Zn	Zn	0.28221 0.71760 0.75007 1.23700
Zn	Zn	0.86704 0.02871 0.60324 1.23000
P 	P 	0.05630 0.81780 0.88412 0.43700
H 	H 	0.94200 0.74900 0.80000 -0.03600
P 	P 	0.18160 0.94330 0.61577 0.42900
H 	H 	0.25900 0.05700 0.70300 -0.03100
P 	P 	0.05480 0.36620 0.73236 0.47700
H 	H 	0.95600 0.44100 0.75600 -0.06300
P 	P 	0.63340 0.94490 0.76714 0.46600
H 	H 	0.55500 0.04500 0.74200 -0.05600
O 	O 	0.09400 0.99480 0.89200 -0.46500
O 	O 	0.98960 0.74870 0.97240 -0.42700
O 	O 	0.20340 0.77820 0.86680 -0.42800
O 	O 	0.22140 0.79670 0.63340 -0.42800
O 	O 	0.00400 0.90470 0.60750 -0.46500
O 	O 	0.25040 0.01030 0.52720 -0.42600
O 	O 	0.97000 0.25400 0.64020 -0.46700
O 	O 	0.20700 0.48940 0.71460 -0.42200
O 	O 	0.09000 0.28550 0.81810 -0.45100
O 	O 	0.71400 0.91040 0.68130 -0.45000
O 	O 	0.51030 0.79130 0.78500 -0.42000
O 	O 	0.74600 0.03150 0.86010 -0.46800
Zn	Zn	0.02868 0.86739 0.10348 1.22700
Zn	Zn	0.71779 0.28240 0.24993 1.23700
Zn	Zn	0.13296 0.97129 0.39676 1.23000
P 	P 	0.94370 0.18220 0.11588 0.43700
H 	H 	0.05800 0.25100 0.20000 -0.03600
P 	P 	0.81840 0.05670 0.38423 0.42900
H 	H 	0.74100 0.94300 0.29700 -0.03100
P 	P 	0.94520 0.63380 0.26764 0.47700
H 	H 	0.04400 0.55900 0.24400 -0.06300
P 	P 	0.36660 0.05510 0.23286 0.46600
H 	H 	0.44500 0.95500 0.25800 -0.05600
O 	O 	0.90600 0.00520 0.10800 -0.46500
O 	O 	0.01040 0.25130 0.02760 -0.42700
O 	O 	0.79660 0.22180 0.13320 -0.42800
O 	O 	0.77860 0.20330 0.36660 -0.42800
O 	O 	0.99600 0.09530 0.39250 -0.46500
O 	O 	0.74960 0.98970 0.47280 -0.42600
O 	O 	0.03000 0.74600 0.35980 -0.46700
O 	O 	0.79300 0.51060 0.28540 -0.42200
O 	O 	0.91000 0.71450 0.18190 -0.45100
O 	O 	0.28600 0.08960 0.31870 -0.45000
O 	O 	0.48970 0.20870 0.21500 -0.42000
O 	O 	0.25400 0.96850 0.13990 -0.46800
