data_crystal

_cell_length_a 8.14030
_cell_length_b 13.28280
_cell_length_c 17.51750
_cell_angle_alpha 90.00000
_cell_angle_beta  90.00000
_cell_angle_gamma 90.00000

_symmetry_space_group_name_	'P 1'
_symmetry_space_group_name_H-M	'P 1'

loop_
_symmetry_equiv_pos_as_xyz
  x,y,z

loop_
_atom_site_label
_atom_site_type_symbol
_atom_site_fract_x
_atom_site_fract_y
_atom_site_fract_z
_atom_site_charge
Mn	Mn	0.52332 0.79092 0.60412 1.23200
Mn	Mn	0.02332 0.20908 0.39588 1.20300
Mn	Mn	0.52332 0.70908 0.10412 1.23100
Mn	Mn	0.02332 0.29092 0.89588 1.20400
Hg	Hg	0.00259 0.77216 0.33839 -0.05900
Hg	Hg	0.50259 0.22784 0.66161 -0.01700
Hg	Hg	0.00259 0.72784 0.83839 -0.06000
Hg	Hg	0.50259 0.27216 0.16161 -0.01700
H 	H 	0.34710 0.56650 0.63850 -0.01200
H 	H 	0.29150 0.41980 0.39920 -0.01700
H 	H 	0.38340 0.50520 0.29400 0.09700
H 	H 	0.49330 0.66300 0.30830 -0.01100
H 	H 	0.84710 0.43350 0.36150 0.00700
H 	H 	0.79150 0.58020 0.60080 -0.00600
H 	H 	0.88340 0.49480 0.70600 0.11100
H 	H 	0.99330 0.33700 0.69170 0.00900
H 	H 	0.34710 0.93350 0.13850 -0.01100
H 	H 	0.29150 0.08020 0.89920 -0.01000
H 	H 	0.38340 0.99480 0.79400 0.09300
H 	H 	0.49330 0.83700 0.80830 -0.00800
H 	H 	0.84710 0.06650 0.86150 0.00800
H 	H 	0.79150 0.91980 0.10080 -0.00500
H 	H 	0.88340 0.00520 0.20600 0.10900
H 	H 	0.99330 0.16300 0.19170 0.01000
C 	C 	0.42600 0.62190 0.47840 0.18100
C 	C 	0.36040 0.56870 0.58580 0.10000
C 	C 	0.33830 0.48340 0.40340 0.11700
C 	C 	0.39130 0.53360 0.34240 -0.19000
C 	C 	0.45870 0.62900 0.35180 0.12600
C 	C 	0.16600 0.83590 0.69510 0.09700
C 	C 	0.66660 0.66740 0.75690 0.11400
C 	C 	0.88670 0.75840 0.51570 0.20000
C 	C 	0.65920 0.00680 0.67610 0.09900
C 	C 	0.92600 0.37810 0.52160 0.19600
C 	C 	0.86040 0.43130 0.41420 0.11500
C 	C 	0.83830 0.51660 0.59660 0.13300
C 	C 	0.89130 0.46640 0.65760 -0.18400
C 	C 	0.95870 0.37100 0.64820 0.13300
C 	C 	0.66600 0.16410 0.30490 0.10000
C 	C 	0.16660 0.33260 0.24310 0.09400
C 	C 	0.38670 0.24160 0.48430 0.10600
C 	C 	0.15920 0.99320 0.32390 0.08200
C 	C 	0.42600 0.87810 0.97840 0.18900
C 	C 	0.36040 0.93130 0.08580 0.10000
C 	C 	0.33830 0.01660 0.90340 0.09900
C 	C 	0.39130 0.96640 0.84240 -0.17200
C 	C 	0.45870 0.87100 0.85180 0.11900
C 	C 	0.16600 0.66410 0.19510 0.09600
C 	C 	0.66660 0.83260 0.25690 0.11400
C 	C 	0.88670 0.74160 0.01570 0.18600
C 	C 	0.65920 0.49320 0.17610 0.10200
C 	C 	0.92600 0.12190 0.02160 0.18900
C 	C 	0.86040 0.06870 0.91420 0.11400
C 	C 	0.83830 0.98340 0.09660 0.12600
C 	C 	0.89130 0.03360 0.15760 -0.17900
C 	C 	0.95870 0.12900 0.14820 0.13000
C 	C 	0.66600 0.33590 0.80490 0.10000
C 	C 	0.16660 0.16740 0.74310 0.09300
C 	C 	0.38670 0.25840 0.98430 0.11500
C 	C 	0.15920 0.50680 0.82390 0.07800
S 	S 	0.74203 0.61949 0.83612 -0.03700
S 	S 	0.07050 0.74392 0.47646 -0.15500
S 	S 	0.74060 0.11251 0.70844 -0.03300
S 	S 	0.00030 0.86929 0.74399 -0.10900
S 	S 	0.24203 0.38051 0.16388 -0.11100
S 	S 	0.57050 0.25608 0.52354 -0.06900
S 	S 	0.24060 0.88749 0.29156 -0.07300
S 	S 	0.50030 0.13071 0.25601 -0.06400
S 	S 	0.74203 0.88051 0.33612 -0.04100
S 	S 	0.07050 0.75608 0.97646 -0.14100
S 	S 	0.74060 0.38749 0.20844 -0.03400
S 	S 	0.00030 0.63071 0.24399 -0.11200
S 	S 	0.24203 0.11949 0.66388 -0.11200
S 	S 	0.57050 0.24392 0.02354 -0.07900
S 	S 	0.24060 0.61251 0.79156 -0.07300
S 	S 	0.50030 0.36929 0.75601 -0.06300
N 	N 	0.43080 0.64760 0.55130 -0.27200
N 	N 	0.35550 0.52940 0.47150 -0.12700
N 	N 	0.28150 0.81570 0.66050 -0.27300
N 	N 	0.61110 0.70050 0.70210 -0.25900
N 	N 	0.76620 0.76810 0.54630 -0.28500
N 	N 	0.60410 0.93190 0.65500 -0.27300
N 	N 	0.31090 0.49440 0.54200 -0.10100
N 	N 	0.47660 0.67420 0.41790 -0.17400
N 	N 	0.93080 0.35240 0.44870 -0.25500
N 	N 	0.85550 0.47060 0.52850 -0.12300
N 	N 	0.78150 0.18430 0.33950 -0.25300
N 	N 	0.11110 0.29950 0.29790 -0.28200
N 	N 	0.26620 0.23190 0.45370 -0.28200
N 	N 	0.10410 0.06810 0.34500 -0.30000
N 	N 	0.81090 0.50560 0.45800 -0.08100
N 	N 	0.97660 0.32580 0.58210 -0.16100
N 	N 	0.43080 0.85240 0.05130 -0.27800
N 	N 	0.35550 0.97060 0.97150 -0.11900
N 	N 	0.28150 0.68430 0.16050 -0.27400
N 	N 	0.61110 0.79950 0.20210 -0.25900
N 	N 	0.76620 0.73190 0.04630 -0.28400
N 	N 	0.60410 0.56810 0.15500 -0.27600
N 	N 	0.31090 0.00560 0.04200 -0.10600
N 	N 	0.47660 0.82580 0.91790 -0.17300
N 	N 	0.93080 0.14760 0.94870 -0.25000
N 	N 	0.85550 0.02940 0.02850 -0.12400
N 	N 	0.78150 0.31570 0.83950 -0.25200
N 	N 	0.11110 0.20050 0.79790 -0.28300
N 	N 	0.26620 0.26810 0.95370 -0.28300
N 	N 	0.10410 0.43190 0.84500 -0.29600
N 	N 	0.81090 0.99440 0.95800 -0.07500
N 	N 	0.97660 0.17420 0.08210 -0.16000
