data_crystal

_cell_length_a 18.72090
_cell_length_b 18.72090
_cell_length_c 18.72090
_cell_angle_alpha 60.00000
_cell_angle_beta  60.00000
_cell_angle_gamma 60.00000

_symmetry_space_group_name_	'P 1'
_symmetry_space_group_name_H-M	'P 1'

loop_
_symmetry_equiv_pos_as_xyz
  x,y,z

loop_
_atom_site_label
_atom_site_type_symbol
_atom_site_fract_x
_atom_site_fract_y
_atom_site_fract_z
_atom_site_charge
Ca	Ca	0.50000 0.50000 0.50000 1.52600
Ca	Ca	0.00000 0.00000 0.50000 1.45500
Ca	Ca	-0.00000 0.50000 -0.00000 1.45400
Ca	Ca	0.00000 0.50000 0.50000 1.48900
Ca	Ca	0.50000 0.50000 -0.00000 1.49000
Ca	Ca	-0.00000 0.00000 -0.00000 1.41800
Ca	Ca	0.50000 0.00000 0.50000 1.49000
Ca	Ca	0.50000 0.00000 -0.00000 1.45500
Dy	Dy	0.75000 0.25000 0.25000 1.99100
Dy	Dy	0.75000 0.25000 0.75000 2.00900
Dy	Dy	0.75000 0.75000 0.25000 2.00900
Dy	Dy	0.25000 0.25000 0.25000 1.97100
Dy	Dy	0.25000 0.75000 0.75000 2.00600
Dy	Dy	0.25000 0.75000 0.25000 1.98900
Dy	Dy	0.25000 0.25000 0.75000 1.98800
Dy	Dy	0.75000 0.75000 0.75000 2.02400
H 	H 	0.51600 0.41640 0.34480 0.11100
H 	H 	0.57630 0.47410 0.29490 0.10700
H 	H 	0.91640 0.01600 0.72280 0.09500
H 	H 	0.97410 0.07630 0.65470 0.14800
H 	H 	0.84480 0.72280 0.01600 0.05800
H 	H 	0.79490 0.65470 0.07630 0.05600
H 	H 	0.22280 0.34480 0.41640 0.11000
H 	H 	0.15470 0.29490 0.47410 0.07900
H 	H 	0.51600 0.34480 0.72280 0.12100
H 	H 	0.57630 0.29490 0.65470 0.10900
H 	H 	0.91640 0.72280 0.34480 0.18800
H 	H 	0.97410 0.65470 0.29490 0.20500
H 	H 	0.84480 0.01600 0.41640 0.04800
H 	H 	0.79490 0.07630 0.47410 0.05400
H 	H 	0.22280 0.41640 0.01600 0.01200
H 	H 	0.15470 0.47410 0.07630 0.01900
H 	H 	0.51600 0.72280 0.41640 0.12300
H 	H 	0.57630 0.65470 0.47410 0.11700
H 	H 	0.91640 0.34480 0.01600 0.08300
H 	H 	0.97410 0.29490 0.07630 0.13900
H 	H 	0.84480 0.41640 0.72280 0.15200
H 	H 	0.79490 0.47410 0.65470 0.12000
H 	H 	0.22280 0.01600 0.34480 0.00900
H 	H 	0.15470 0.07630 0.29490 0.00900
H 	H 	0.58360 0.48400 0.15520 0.08700
H 	H 	0.52590 0.42370 0.20510 0.10900
H 	H 	0.98400 0.08360 0.77720 0.15300
H 	H 	0.92370 0.02590 0.84530 0.11700
H 	H 	0.27720 0.15520 0.48400 0.07600
H 	H 	0.34530 0.20510 0.42370 0.10700
H 	H 	0.65520 0.77720 0.08360 0.05600
H 	H 	0.70510 0.84530 0.02590 0.05800
H 	H 	0.65520 0.48400 0.77720 0.11900
H 	H 	0.70510 0.42370 0.84530 0.14700
H 	H 	0.27720 0.08360 0.15520 0.00800
H 	H 	0.34530 0.02590 0.20510 0.01100
H 	H 	0.98400 0.15520 0.08360 0.12300
H 	H 	0.92370 0.20510 0.02590 0.08700
H 	H 	0.58360 0.77720 0.48400 0.11700
H 	H 	0.52590 0.84530 0.42370 0.14000
H 	H 	0.27720 0.48400 0.08360 0.04000
H 	H 	0.34530 0.42370 0.02590 0.01600
H 	H 	0.65520 0.08360 0.48400 0.05300
H 	H 	0.70510 0.02590 0.42370 0.02800
H 	H 	0.58360 0.15520 0.77720 0.08900
H 	H 	0.52590 0.20510 0.84530 0.13700
H 	H 	0.98400 0.77720 0.15520 0.18900
H 	H 	0.92370 0.84530 0.20510 0.20400
H 	H 	0.48400 0.58360 0.65520 0.11700
H 	H 	0.42370 0.52590 0.70510 0.12100
H 	H 	0.08360 0.98400 0.27720 0.14000
H 	H 	0.02590 0.92370 0.34530 0.08500
H 	H 	0.15520 0.27720 0.98400 0.17700
H 	H 	0.20510 0.34530 0.92370 0.17700
H 	H 	0.77720 0.65520 0.58360 0.11900
H 	H 	0.84530 0.70510 0.52590 0.14800
H 	H 	0.48400 0.65520 0.27720 0.10800
H 	H 	0.42370 0.70510 0.34530 0.11900
H 	H 	0.08360 0.27720 0.65520 0.04000
H 	H 	0.02590 0.34530 0.70510 0.02400
H 	H 	0.15520 0.98400 0.58360 0.18500
H 	H 	0.20510 0.92370 0.52590 0.17900
H 	H 	0.77720 0.58360 0.98400 0.21100
H 	H 	0.84530 0.52590 0.92370 0.20500
H 	H 	0.48400 0.27720 0.58360 0.10700
H 	H 	0.42370 0.34530 0.52590 0.11100
H 	H 	0.08360 0.65520 0.98400 0.14900
H 	H 	0.02590 0.70510 0.92370 0.09500
H 	H 	0.15520 0.58360 0.27720 0.07600
H 	H 	0.20510 0.52590 0.34530 0.10700
H 	H 	0.77720 0.98400 0.65520 0.21200
H 	H 	0.84530 0.92370 0.70510 0.20900
H 	H 	0.41640 0.51600 0.84480 0.14300
H 	H 	0.47410 0.57630 0.79490 0.11900
H 	H 	0.01600 0.91640 0.22280 0.07800
H 	H 	0.07630 0.97410 0.15470 0.11500
H 	H 	0.72280 0.84480 0.51600 0.15100
H 	H 	0.65470 0.79490 0.57630 0.12100
H 	H 	0.34480 0.22280 0.91640 0.17700
H 	H 	0.29490 0.15470 0.97410 0.17700
H 	H 	0.34480 0.51600 0.22280 0.10900
H 	H 	0.29490 0.57630 0.15470 0.08000
H 	H 	0.72280 0.91640 0.84480 0.21000
H 	H 	0.65470 0.97410 0.79490 0.20900
H 	H 	0.01600 0.84480 0.91640 0.10900
H 	H 	0.07630 0.79490 0.97410 0.14400
H 	H 	0.41640 0.22280 0.51600 0.11100
H 	H 	0.47410 0.15470 0.57630 0.08900
H 	H 	0.72280 0.51600 0.91640 0.18700
H 	H 	0.65470 0.57630 0.97410 0.20900
H 	H 	0.34480 0.91640 0.51600 0.17800
H 	H 	0.29490 0.97410 0.57630 0.20200
H 	H 	0.41640 0.84480 0.22280 0.14200
H 	H 	0.47410 0.79490 0.15470 0.09300
H 	H 	0.01600 0.22280 0.84480 0.04100
H 	H 	0.07630 0.15470 0.79490 0.02400
C 	C 	0.57630 0.41470 0.31810 -0.26300
C 	C 	0.62055 0.35973 0.38547 0.47200
C 	C 	0.91470 0.07630 0.69090 -0.27700
C 	C 	0.85973 0.12055 0.63425 0.47600
C 	C 	0.81810 0.69090 0.07630 -0.19800
C 	C 	0.88547 0.63425 0.12055 0.43500
C 	C 	0.19090 0.31810 0.41470 -0.26100
C 	C 	0.13425 0.38547 0.35973 0.46900
C 	C 	0.57630 0.31810 0.69090 -0.27000
C 	C 	0.62055 0.38547 0.63425 0.47600
C 	C 	0.91470 0.69090 0.31810 -0.34900
C 	C 	0.85973 0.63425 0.38547 0.51500
C 	C 	0.81810 0.07630 0.41470 -0.19100
C 	C 	0.88547 0.12055 0.35973 0.43100
C 	C 	0.19090 0.41470 0.07630 -0.18600
C 	C 	0.13425 0.35973 0.12055 0.42800
C 	C 	0.57630 0.69090 0.41470 -0.27500
C 	C 	0.62055 0.63425 0.35973 0.47900
C 	C 	0.91470 0.31810 0.07630 -0.26500
C 	C 	0.85973 0.38547 0.12055 0.46900
C 	C 	0.81810 0.41470 0.69090 -0.27400
C 	C 	0.88547 0.35973 0.63425 0.47700
C 	C 	0.19090 0.07630 0.31810 -0.17900
C 	C 	0.13425 0.12055 0.38547 0.42400
C 	C 	0.58530 0.42370 0.18190 -0.26800
C 	C 	0.64027 0.37945 0.11453 0.47200
C 	C 	0.92370 0.08530 0.80910 -0.27000
C 	C 	0.87945 0.14027 0.86575 0.47400
C 	C 	0.30910 0.18190 0.42370 -0.26100
C 	C 	0.36575 0.11453 0.37945 0.46700
C 	C 	0.68190 0.80910 0.08530 -0.19800
C 	C 	0.61453 0.86575 0.14027 0.43600
C 	C 	0.68190 0.42370 0.80910 -0.27500
C 	C 	0.61453 0.37945 0.86575 0.47600
C 	C 	0.30910 0.08530 0.18190 -0.17800
C 	C 	0.36575 0.14027 0.11453 0.42500
C 	C 	0.92370 0.18190 0.08530 -0.26800
C 	C 	0.87945 0.11453 0.14027 0.47300
C 	C 	0.58530 0.80910 0.42370 -0.27000
C 	C 	0.64027 0.86575 0.37945 0.47400
C 	C 	0.30910 0.42370 0.08530 -0.18200
C 	C 	0.36575 0.37945 0.14027 0.42800
C 	C 	0.68190 0.08530 0.42370 -0.19700
C 	C 	0.61453 0.14027 0.37945 0.43600
C 	C 	0.58530 0.18190 0.80910 -0.26800
C 	C 	0.64027 0.11453 0.86575 0.47200
C 	C 	0.92370 0.80910 0.18190 -0.34500
C 	C 	0.87945 0.86575 0.11453 0.51200
C 	C 	0.42370 0.58530 0.68190 -0.27600
C 	C 	0.37945 0.64027 0.61453 0.47800
C 	C 	0.08530 0.92370 0.30910 -0.26000
C 	C 	0.14027 0.87945 0.36575 0.47000
C 	C 	0.18190 0.30910 0.92370 -0.34000
C 	C 	0.11453 0.36575 0.87945 0.50900
C 	C 	0.80910 0.68190 0.58530 -0.27400
C 	C 	0.86575 0.61453 0.64027 0.47700
C 	C 	0.42370 0.68190 0.30910 -0.26900
C 	C 	0.37945 0.61453 0.36575 0.47400
C 	C 	0.08530 0.30910 0.68190 -0.18700
C 	C 	0.14027 0.36575 0.61453 0.43200
C 	C 	0.18190 0.92370 0.58530 -0.34500
C 	C 	0.11453 0.87945 0.64027 0.51300
C 	C 	0.80910 0.58530 0.92370 -0.34400
C 	C 	0.86575 0.64027 0.87945 0.51300
C 	C 	0.42370 0.30910 0.58530 -0.26300
C 	C 	0.37945 0.36575 0.64027 0.47100
C 	C 	0.08530 0.68190 0.92370 -0.27100
C 	C 	0.14027 0.61453 0.87945 0.47700
C 	C 	0.18190 0.58530 0.30910 -0.26000
C 	C 	0.11453 0.64027 0.36575 0.46800
C 	C 	0.80910 0.92370 0.68190 -0.34600
C 	C 	0.86575 0.87945 0.61453 0.51500
C 	C 	0.41470 0.57630 0.81810 -0.26900
C 	C 	0.35973 0.62055 0.88547 0.47500
C 	C 	0.07630 0.91470 0.19090 -0.26400
C 	C 	0.12055 0.85973 0.13425 0.46800
C 	C 	0.69090 0.81810 0.57630 -0.27400
C 	C 	0.63425 0.88547 0.62055 0.47900
C 	C 	0.31810 0.19090 0.91470 -0.34000
C 	C 	0.38547 0.13425 0.85973 0.50900
C 	C 	0.31810 0.57630 0.19090 -0.26000
C 	C 	0.38547 0.62055 0.13425 0.47000
C 	C 	0.69090 0.91470 0.81810 -0.34600
C 	C 	0.63425 0.85973 0.88547 0.51400
C 	C 	0.07630 0.81810 0.91470 -0.26500
C 	C 	0.12055 0.88547 0.85973 0.46900
C 	C 	0.41470 0.19090 0.57630 -0.26700
C 	C 	0.35973 0.13425 0.62055 0.47400
C 	C 	0.69090 0.57630 0.91470 -0.35100
C 	C 	0.63425 0.62055 0.85973 0.51700
C 	C 	0.31810 0.91470 0.57630 -0.34100
C 	C 	0.38547 0.85973 0.62055 0.51200
C 	C 	0.41470 0.81810 0.19090 -0.26700
C 	C 	0.35973 0.88547 0.13425 0.47300
C 	C 	0.07630 0.19090 0.81810 -0.18500
C 	C 	0.12055 0.13425 0.88547 0.42800
O 	O 	0.68705 0.29561 0.37195 -0.44800
O 	O 	0.58905 0.38161 0.45071 -0.46400
O 	O 	0.79561 0.18705 0.64539 -0.45600
O 	O 	0.88161 0.08905 0.57863 -0.47400
O 	O 	0.87195 0.64539 0.18705 -0.41700
O 	O 	0.95071 0.57863 0.08905 -0.40500
O 	O 	0.14539 0.37195 0.29561 -0.48800
O 	O 	0.07863 0.45071 0.38161 -0.54800
O 	O 	0.68705 0.37195 0.64539 -0.44800
O 	O 	0.58905 0.45071 0.57863 -0.46300
O 	O 	0.79561 0.64539 0.37195 -0.45400
O 	O 	0.88161 0.57863 0.45071 -0.42000
O 	O 	0.87195 0.18705 0.29561 -0.41600
O 	O 	0.95071 0.08905 0.38161 -0.40600
O 	O 	0.14539 0.29561 0.18705 -0.49100
O 	O 	0.07863 0.38161 0.08905 -0.60800
O 	O 	0.68705 0.64539 0.29561 -0.45100
O 	O 	0.58905 0.57863 0.38161 -0.46600
O 	O 	0.79561 0.37195 0.18705 -0.45300
O 	O 	0.88161 0.45071 0.08905 -0.47300
O 	O 	0.87195 0.29561 0.64539 -0.41700
O 	O 	0.95071 0.38161 0.57863 -0.35300
O 	O 	0.14539 0.18705 0.37195 -0.48800
O 	O 	0.07863 0.08905 0.45071 -0.60400
O 	O 	0.70439 0.31295 0.12805 -0.49000
O 	O 	0.61839 0.41095 0.04929 -0.56600
O 	O 	0.81295 0.20439 0.85461 -0.41200
O 	O 	0.91095 0.11839 0.92137 -0.34300
O 	O 	0.35461 0.12805 0.31295 -0.49100
O 	O 	0.42137 0.04929 0.41095 -0.56900
O 	O 	0.62805 0.85461 0.20439 -0.41500
O 	O 	0.54929 0.92137 0.11839 -0.40800
O 	O 	0.62805 0.31295 0.85461 -0.42200
O 	O 	0.54929 0.41095 0.92137 -0.37900
O 	O 	0.35461 0.20439 0.12805 -0.48400
O 	O 	0.42137 0.11839 0.04929 -0.60100
O 	O 	0.81295 0.12805 0.20439 -0.48300
O 	O 	0.91095 0.04929 0.11839 -0.52900
O 	O 	0.70439 0.85461 0.31295 -0.42000
O 	O 	0.61839 0.92137 0.41095 -0.37700
O 	O 	0.35461 0.31295 0.20439 -0.45200
O 	O 	0.42137 0.41095 0.11839 -0.50100
O 	O 	0.62805 0.20439 0.31295 -0.45500
O 	O 	0.54929 0.11839 0.41095 -0.50300
O 	O 	0.70439 0.12805 0.85461 -0.45000
O 	O 	0.61839 0.04929 0.92137 -0.47100
O 	O 	0.81295 0.85461 0.12805 -0.44900
O 	O 	0.91095 0.92137 0.04929 -0.40800
O 	O 	0.31295 0.70439 0.62805 -0.45600
O 	O 	0.41095 0.61839 0.54929 -0.46700
O 	O 	0.20439 0.81295 0.35461 -0.44500
O 	O 	0.11839 0.91095 0.42137 -0.43000
O 	O 	0.12805 0.35461 0.81295 -0.48300
O 	O 	0.04929 0.42137 0.91095 -0.49800
O 	O 	0.85461 0.62805 0.70439 -0.41600
O 	O 	0.92137 0.54929 0.61839 -0.37300
O 	O 	0.31295 0.62805 0.35461 -0.45500
O 	O 	0.41095 0.54929 0.42137 -0.46800
O 	O 	0.20439 0.35461 0.62805 -0.44800
O 	O 	0.11839 0.42137 0.54929 -0.49900
O 	O 	0.12805 0.81295 0.70439 -0.48300
O 	O 	0.04929 0.91095 0.61839 -0.49600
O 	O 	0.85461 0.70439 0.81295 -0.41400
O 	O 	0.92137 0.61839 0.91095 -0.31400
O 	O 	0.31295 0.35461 0.70439 -0.45300
O 	O 	0.41095 0.42137 0.61839 -0.46600
O 	O 	0.20439 0.62805 0.81295 -0.44800
O 	O 	0.11839 0.54929 0.91095 -0.43100
O 	O 	0.12805 0.70439 0.35461 -0.48400
O 	O 	0.04929 0.61839 0.42137 -0.56500
O 	O 	0.85461 0.81295 0.62805 -0.41500
O 	O 	0.92137 0.91095 0.54929 -0.31400
O 	O 	0.29561 0.68705 0.87195 -0.41200
O 	O 	0.38161 0.58905 0.95071 -0.35300
O 	O 	0.18705 0.79561 0.14539 -0.48800
O 	O 	0.08905 0.88161 0.07863 -0.55500
O 	O 	0.64539 0.87195 0.68705 -0.41300
O 	O 	0.57863 0.95071 0.58905 -0.35300
O 	O 	0.37195 0.14539 0.79561 -0.48500
O 	O 	0.45071 0.07863 0.88161 -0.49600
O 	O 	0.37195 0.68705 0.14539 -0.47900
O 	O 	0.45071 0.58905 0.07863 -0.53900
O 	O 	0.64539 0.79561 0.87195 -0.41900
O 	O 	0.57863 0.88161 0.95071 -0.31800
O 	O 	0.18705 0.87195 0.79561 -0.41800
O 	O 	0.08905 0.95071 0.88161 -0.36800
O 	O 	0.29561 0.14539 0.68705 -0.48300
O 	O 	0.38161 0.07863 0.58905 -0.54300
O 	O 	0.64539 0.68705 0.79561 -0.45100
O 	O 	0.57863 0.58905 0.88161 -0.42000
O 	O 	0.37195 0.79561 0.68705 -0.44800
O 	O 	0.45071 0.88161 0.58905 -0.41800
O 	O 	0.29561 0.87195 0.14539 -0.44900
O 	O 	0.38161 0.95071 0.07863 -0.43100
O 	O 	0.18705 0.14539 0.87195 -0.44900
O 	O 	0.08905 0.07863 0.95071 -0.48700
O 	O 	0.61964 0.38036 0.25000 -0.21400
O 	O 	0.88036 0.11964 0.75000 -0.20200
O 	O 	0.75000 0.75000 0.11964 -0.24200
O 	O 	0.25000 0.25000 0.38036 -0.22000
O 	O 	0.61964 0.25000 0.75000 -0.20900
O 	O 	0.88036 0.75000 0.25000 -0.16300
O 	O 	0.75000 0.11964 0.38036 -0.24700
O 	O 	0.25000 0.38036 0.11964 -0.26100
O 	O 	0.61964 0.75000 0.38036 -0.20300
O 	O 	0.88036 0.25000 0.11964 -0.21300
O 	O 	0.75000 0.38036 0.75000 -0.19700
O 	O 	0.25000 0.11964 0.25000 -0.26900
O 	O 	0.38036 0.61964 0.75000 -0.20200
O 	O 	0.11964 0.88036 0.25000 -0.21500
O 	O 	0.25000 0.25000 0.88036 -0.17300
O 	O 	0.75000 0.75000 0.61964 -0.19800
O 	O 	0.38036 0.75000 0.25000 -0.20700
O 	O 	0.11964 0.25000 0.75000 -0.25600
O 	O 	0.25000 0.88036 0.61964 -0.16800
O 	O 	0.75000 0.61964 0.88036 -0.15900
O 	O 	0.38036 0.25000 0.61964 -0.21300
O 	O 	0.11964 0.75000 0.88036 -0.20300
O 	O 	0.25000 0.61964 0.25000 -0.22100
O 	O 	0.75000 0.88036 0.75000 -0.15500
