data_crystal

_cell_length_a 18.88460
_cell_length_b 18.88460
_cell_length_c 18.88460
_cell_angle_alpha 60.00000
_cell_angle_beta  60.00000
_cell_angle_gamma 60.00000

_symmetry_space_group_name_	'P 1'
_symmetry_space_group_name_H-M	'P 1'

loop_
_symmetry_equiv_pos_as_xyz
  x,y,z

loop_
_atom_site_label
_atom_site_type_symbol
_atom_site_fract_x
_atom_site_fract_y
_atom_site_fract_z
_atom_site_charge
Eu	Eu	0.75000 0.25000 0.25000 2.12200
Eu	Eu	0.75000 0.25000 0.75000 2.14500
Eu	Eu	0.75000 0.75000 0.25000 2.14500
Eu	Eu	0.25000 0.25000 0.25000 2.10000
Eu	Eu	0.25000 0.75000 0.75000 2.14200
Eu	Eu	0.25000 0.75000 0.25000 2.12100
Eu	Eu	0.25000 0.25000 0.75000 2.12000
Eu	Eu	0.75000 0.75000 0.75000 2.16300
Ca	Ca	0.50000 0.50000 0.50000 1.52400
Ca	Ca	0.00000 -0.00000 0.50000 1.45400
Ca	Ca	-0.00000 0.50000 -0.00000 1.45400
Ca	Ca	0.00000 0.50000 0.50000 1.48900
Ca	Ca	0.50000 0.50000 -0.00000 1.49000
Ca	Ca	-0.00000 0.00000 -0.00000 1.41900
Ca	Ca	0.50000 -0.00000 0.50000 1.49000
Ca	Ca	0.50000 0.00000 -0.00000 1.45500
H 	H 	0.51620 0.41580 0.34480 0.11100
H 	H 	0.57450 0.47450 0.29470 0.10600
H 	H 	0.91580 0.01620 0.72320 0.09300
H 	H 	0.97450 0.07450 0.65630 0.14500
H 	H 	0.84480 0.72320 0.01620 0.05900
H 	H 	0.79470 0.65630 0.07450 0.05500
H 	H 	0.22320 0.34480 0.41580 0.10900
H 	H 	0.15630 0.29470 0.47450 0.08000
H 	H 	0.51620 0.34480 0.72320 0.12000
H 	H 	0.57450 0.29470 0.65630 0.10800
H 	H 	0.91580 0.72320 0.34480 0.18500
H 	H 	0.97450 0.65630 0.29470 0.20300
H 	H 	0.84480 0.01620 0.41580 0.04900
H 	H 	0.79470 0.07450 0.47450 0.05300
H 	H 	0.22320 0.41580 0.01620 0.01300
H 	H 	0.15630 0.47450 0.07450 0.01900
H 	H 	0.51620 0.72320 0.41580 0.12200
H 	H 	0.57450 0.65630 0.47450 0.11600
H 	H 	0.91580 0.34480 0.01620 0.08200
H 	H 	0.97450 0.29470 0.07450 0.13600
H 	H 	0.84480 0.41580 0.72320 0.15100
H 	H 	0.79470 0.47450 0.65630 0.11900
H 	H 	0.22320 0.01620 0.34480 0.01000
H 	H 	0.15630 0.07450 0.29470 0.01000
H 	H 	0.58420 0.48380 0.15520 0.08600
H 	H 	0.52550 0.42550 0.20530 0.10800
H 	H 	0.98380 0.08420 0.77680 0.15200
H 	H 	0.92550 0.02550 0.84370 0.11600
H 	H 	0.27680 0.15520 0.48380 0.07500
H 	H 	0.34370 0.20530 0.42550 0.10500
H 	H 	0.65520 0.77680 0.08420 0.05700
H 	H 	0.70530 0.84370 0.02550 0.05700
H 	H 	0.65520 0.48380 0.77680 0.11800
H 	H 	0.70530 0.42550 0.84370 0.14400
H 	H 	0.27680 0.08420 0.15520 0.00900
H 	H 	0.34370 0.02550 0.20530 0.01200
H 	H 	0.98380 0.15520 0.08420 0.12300
H 	H 	0.92550 0.20530 0.02550 0.08700
H 	H 	0.58420 0.77680 0.48380 0.11600
H 	H 	0.52550 0.84370 0.42550 0.13700
H 	H 	0.27680 0.48380 0.08420 0.04100
H 	H 	0.34370 0.42550 0.02550 0.01700
H 	H 	0.65520 0.08420 0.48380 0.05400
H 	H 	0.70530 0.02550 0.42550 0.02900
H 	H 	0.58420 0.15520 0.77680 0.08800
H 	H 	0.52550 0.20530 0.84370 0.13500
H 	H 	0.98380 0.77680 0.15520 0.18600
H 	H 	0.92550 0.84370 0.20530 0.20200
H 	H 	0.48380 0.58420 0.65520 0.11600
H 	H 	0.42550 0.52550 0.70530 0.12000
H 	H 	0.08420 0.98380 0.27680 0.13900
H 	H 	0.02550 0.92550 0.34370 0.08600
H 	H 	0.15520 0.27680 0.98380 0.17400
H 	H 	0.20530 0.34370 0.92550 0.17600
H 	H 	0.77680 0.65520 0.58420 0.11800
H 	H 	0.84370 0.70530 0.52550 0.14500
H 	H 	0.48380 0.65520 0.27680 0.10800
H 	H 	0.42550 0.70530 0.34370 0.11800
H 	H 	0.08420 0.27680 0.65520 0.04100
H 	H 	0.02550 0.34370 0.70530 0.02400
H 	H 	0.15520 0.98380 0.58420 0.18200
H 	H 	0.20530 0.92550 0.52550 0.17700
H 	H 	0.77680 0.58420 0.98380 0.20800
H 	H 	0.84370 0.52550 0.92550 0.20300
H 	H 	0.48380 0.27680 0.58420 0.10600
H 	H 	0.42550 0.34370 0.52550 0.11000
H 	H 	0.08420 0.65520 0.98380 0.14900
H 	H 	0.02550 0.70530 0.92550 0.09500
H 	H 	0.15520 0.58420 0.27680 0.07500
H 	H 	0.20530 0.52550 0.34370 0.10600
H 	H 	0.77680 0.98380 0.65520 0.20900
H 	H 	0.84370 0.92550 0.70530 0.20600
H 	H 	0.41580 0.51620 0.84480 0.14200
H 	H 	0.47450 0.57450 0.79470 0.11800
H 	H 	0.01620 0.91580 0.22320 0.07700
H 	H 	0.07450 0.97450 0.15630 0.11400
H 	H 	0.72320 0.84480 0.51620 0.15000
H 	H 	0.65630 0.79470 0.57450 0.12000
H 	H 	0.34480 0.22320 0.91580 0.17500
H 	H 	0.29470 0.15630 0.97450 0.17600
H 	H 	0.34480 0.51620 0.22320 0.10900
H 	H 	0.29470 0.57450 0.15630 0.08100
H 	H 	0.72320 0.91580 0.84480 0.20800
H 	H 	0.65630 0.97450 0.79470 0.20600
H 	H 	0.01620 0.84480 0.91580 0.10800
H 	H 	0.07450 0.79470 0.97450 0.14200
H 	H 	0.41580 0.22320 0.51620 0.11100
H 	H 	0.47450 0.15630 0.57450 0.09000
H 	H 	0.72320 0.51620 0.91580 0.18400
H 	H 	0.65630 0.57450 0.97450 0.20700
H 	H 	0.34480 0.91580 0.51620 0.17500
H 	H 	0.29470 0.97450 0.57450 0.20000
H 	H 	0.41580 0.84480 0.22320 0.14100
H 	H 	0.47450 0.79470 0.15630 0.09400
H 	H 	0.01620 0.22320 0.84480 0.04200
H 	H 	0.07450 0.15630 0.79470 0.02400
C 	C 	0.57560 0.41520 0.31800 -0.26500
C 	C 	0.61960 0.36240 0.38360 0.46200
C 	C 	0.91520 0.07560 0.69120 -0.27800
C 	C 	0.86240 0.11960 0.63440 0.46600
C 	C 	0.81800 0.69120 0.07560 -0.20100
C 	C 	0.88360 0.63440 0.11960 0.42500
C 	C 	0.19120 0.31800 0.41520 -0.26300
C 	C 	0.13440 0.38360 0.36240 0.45900
C 	C 	0.57560 0.31800 0.69120 -0.27100
C 	C 	0.61960 0.38360 0.63440 0.46600
C 	C 	0.91520 0.69120 0.31800 -0.34900
C 	C 	0.86240 0.63440 0.38360 0.50600
C 	C 	0.81800 0.07560 0.41520 -0.19400
C 	C 	0.88360 0.11960 0.36240 0.42100
C 	C 	0.19120 0.41520 0.07560 -0.18900
C 	C 	0.13440 0.36240 0.11960 0.41800
C 	C 	0.57560 0.69120 0.41520 -0.27700
C 	C 	0.61960 0.63440 0.36240 0.46900
C 	C 	0.91520 0.31800 0.07560 -0.26600
C 	C 	0.86240 0.38360 0.11960 0.45900
C 	C 	0.81800 0.41520 0.69120 -0.27700
C 	C 	0.88360 0.36240 0.63440 0.46800
C 	C 	0.19120 0.07560 0.31800 -0.18200
C 	C 	0.13440 0.11960 0.38360 0.41400
C 	C 	0.58480 0.42440 0.18200 -0.27000
C 	C 	0.63760 0.38040 0.11640 0.46200
C 	C 	0.92440 0.08480 0.80880 -0.27200
C 	C 	0.88040 0.13760 0.86560 0.46400
C 	C 	0.30880 0.18200 0.42440 -0.26300
C 	C 	0.36560 0.11640 0.38040 0.45700
C 	C 	0.68200 0.80880 0.08480 -0.20100
C 	C 	0.61640 0.86560 0.13760 0.42600
C 	C 	0.68200 0.42440 0.80880 -0.27600
C 	C 	0.61640 0.38040 0.86560 0.46600
C 	C 	0.30880 0.08480 0.18200 -0.18100
C 	C 	0.36560 0.13760 0.11640 0.41400
C 	C 	0.92440 0.18200 0.08480 -0.27100
C 	C 	0.88040 0.11640 0.13760 0.46200
C 	C 	0.58480 0.80880 0.42440 -0.27100
C 	C 	0.63760 0.86560 0.38040 0.46400
C 	C 	0.30880 0.42440 0.08480 -0.18600
C 	C 	0.36560 0.38040 0.13760 0.41700
C 	C 	0.68200 0.08480 0.42440 -0.20100
C 	C 	0.61640 0.13760 0.38040 0.42600
C 	C 	0.58480 0.18200 0.80880 -0.26900
C 	C 	0.63760 0.11640 0.86560 0.46200
C 	C 	0.92440 0.80880 0.18200 -0.34600
C 	C 	0.88040 0.86560 0.11640 0.50300
C 	C 	0.42440 0.58480 0.68200 -0.27700
C 	C 	0.38040 0.63760 0.61640 0.46800
C 	C 	0.08480 0.92440 0.30880 -0.26300
C 	C 	0.13760 0.88040 0.36560 0.46000
C 	C 	0.18200 0.30880 0.92440 -0.34100
C 	C 	0.11640 0.36560 0.88040 0.50000
C 	C 	0.80880 0.68200 0.58480 -0.27600
C 	C 	0.86560 0.61640 0.63760 0.46700
C 	C 	0.42440 0.68200 0.30880 -0.27100
C 	C 	0.38040 0.61640 0.36560 0.46400
C 	C 	0.08480 0.30880 0.68200 -0.19000
C 	C 	0.13760 0.36560 0.61640 0.42100
C 	C 	0.18200 0.92440 0.58480 -0.34600
C 	C 	0.11640 0.88040 0.63760 0.50300
C 	C 	0.80880 0.58480 0.92440 -0.34500
C 	C 	0.86560 0.63760 0.88040 0.50400
C 	C 	0.42440 0.30880 0.58480 -0.26500
C 	C 	0.38040 0.36560 0.63760 0.46100
C 	C 	0.08480 0.68200 0.92440 -0.27400
C 	C 	0.13760 0.61640 0.88040 0.46700
C 	C 	0.18200 0.58480 0.30880 -0.26200
C 	C 	0.11640 0.63760 0.36560 0.45800
C 	C 	0.80880 0.92440 0.68200 -0.34700
C 	C 	0.86560 0.88040 0.61640 0.50500
C 	C 	0.41520 0.57560 0.81800 -0.27100
C 	C 	0.36240 0.61960 0.88360 0.46500
C 	C 	0.07560 0.91520 0.19120 -0.26600
C 	C 	0.11960 0.86240 0.13440 0.45800
C 	C 	0.69120 0.81800 0.57560 -0.27600
C 	C 	0.63440 0.88360 0.61960 0.46900
C 	C 	0.31800 0.19120 0.91520 -0.34100
C 	C 	0.38360 0.13440 0.86240 0.49900
C 	C 	0.31800 0.57560 0.19120 -0.26200
C 	C 	0.38360 0.61960 0.13440 0.46000
C 	C 	0.69120 0.91520 0.81800 -0.34700
C 	C 	0.63440 0.86240 0.88360 0.50500
C 	C 	0.07560 0.81800 0.91520 -0.26700
C 	C 	0.11960 0.88360 0.86240 0.45900
C 	C 	0.41520 0.19120 0.57560 -0.26900
C 	C 	0.36240 0.13440 0.61960 0.46400
C 	C 	0.69120 0.57560 0.91520 -0.35100
C 	C 	0.63440 0.61960 0.86240 0.50800
C 	C 	0.31800 0.91520 0.57560 -0.34200
C 	C 	0.38360 0.86240 0.61960 0.50200
C 	C 	0.41520 0.81800 0.19120 -0.27000
C 	C 	0.36240 0.88360 0.13440 0.46300
C 	C 	0.07560 0.19120 0.81800 -0.18800
C 	C 	0.11960 0.13440 0.88360 0.41700
O 	O 	0.68589 0.29773 0.37209 -0.45300
O 	O 	0.58862 0.38384 0.44890 -0.45900
O 	O 	0.79773 0.18589 0.64429 -0.46200
O 	O 	0.88384 0.08862 0.57864 -0.46700
O 	O 	0.87209 0.64429 0.18589 -0.42300
O 	O 	0.94890 0.57864 0.08862 -0.40200
O 	O 	0.14429 0.37209 0.29773 -0.49300
O 	O 	0.07864 0.44890 0.38384 -0.54100
O 	O 	0.68589 0.37209 0.64429 -0.45400
O 	O 	0.58862 0.44890 0.57864 -0.45700
O 	O 	0.79773 0.64429 0.37209 -0.46000
O 	O 	0.88384 0.57864 0.44890 -0.41500
O 	O 	0.87209 0.18589 0.29773 -0.42200
O 	O 	0.94890 0.08862 0.38384 -0.40300
O 	O 	0.14429 0.29773 0.18589 -0.49700
O 	O 	0.07864 0.38384 0.08862 -0.59900
O 	O 	0.68589 0.64429 0.29773 -0.45700
O 	O 	0.58862 0.57864 0.38384 -0.46000
O 	O 	0.79773 0.37209 0.18589 -0.45900
O 	O 	0.88384 0.44890 0.08862 -0.46600
O 	O 	0.87209 0.29773 0.64429 -0.42300
O 	O 	0.94890 0.38384 0.57864 -0.35100
O 	O 	0.14429 0.18589 0.37209 -0.49300
O 	O 	0.07864 0.08862 0.44890 -0.59600
O 	O 	0.70227 0.31411 0.12791 -0.49600
O 	O 	0.61616 0.41138 0.05110 -0.55800
O 	O 	0.81411 0.20227 0.85571 -0.41800
O 	O 	0.91138 0.11616 0.92136 -0.34000
O 	O 	0.35571 0.12791 0.31411 -0.49600
O 	O 	0.42136 0.05110 0.41138 -0.56000
O 	O 	0.62791 0.85571 0.20227 -0.42100
O 	O 	0.55110 0.92136 0.11616 -0.40400
O 	O 	0.62791 0.31411 0.85571 -0.42800
O 	O 	0.55110 0.41138 0.92136 -0.37500
O 	O 	0.35571 0.20227 0.12791 -0.48900
O 	O 	0.42136 0.11616 0.05110 -0.59300
O 	O 	0.81411 0.12791 0.20227 -0.48800
O 	O 	0.91138 0.05110 0.11616 -0.52200
O 	O 	0.70227 0.85571 0.31411 -0.42600
O 	O 	0.61616 0.92136 0.41138 -0.37300
O 	O 	0.35571 0.31411 0.20227 -0.45800
O 	O 	0.42136 0.41138 0.11616 -0.49600
O 	O 	0.62791 0.20227 0.31411 -0.46100
O 	O 	0.55110 0.11616 0.41138 -0.49700
O 	O 	0.70227 0.12791 0.85571 -0.45600
O 	O 	0.61616 0.05110 0.92136 -0.46400
O 	O 	0.81411 0.85571 0.12791 -0.45500
O 	O 	0.91138 0.92136 0.05110 -0.40300
O 	O 	0.31411 0.70227 0.62791 -0.46100
O 	O 	0.41138 0.61616 0.55110 -0.46100
O 	O 	0.20227 0.81411 0.35571 -0.45000
O 	O 	0.11616 0.91138 0.42136 -0.42600
O 	O 	0.12791 0.35571 0.81411 -0.48900
O 	O 	0.05110 0.42136 0.91138 -0.49100
O 	O 	0.85571 0.62791 0.70227 -0.42200
O 	O 	0.92136 0.55110 0.61616 -0.36900
O 	O 	0.31411 0.62791 0.35571 -0.46100
O 	O 	0.41138 0.55110 0.42136 -0.46300
O 	O 	0.20227 0.35571 0.62791 -0.45400
O 	O 	0.11616 0.42136 0.55110 -0.49400
O 	O 	0.12791 0.81411 0.70227 -0.48900
O 	O 	0.05110 0.91138 0.61616 -0.48900
O 	O 	0.85571 0.70227 0.81411 -0.42000
O 	O 	0.92136 0.61616 0.91138 -0.31100
O 	O 	0.31411 0.35571 0.70227 -0.45800
O 	O 	0.41138 0.42136 0.61616 -0.46000
O 	O 	0.20227 0.62791 0.81411 -0.45300
O 	O 	0.11616 0.55110 0.91138 -0.42700
O 	O 	0.12791 0.70227 0.35571 -0.49000
O 	O 	0.05110 0.61616 0.42136 -0.55600
O 	O 	0.85571 0.81411 0.62791 -0.42100
O 	O 	0.92136 0.91138 0.55110 -0.31100
O 	O 	0.29773 0.68589 0.87209 -0.41800
O 	O 	0.38384 0.58862 0.94890 -0.35000
O 	O 	0.18589 0.79773 0.14429 -0.49400
O 	O 	0.08862 0.88384 0.07864 -0.54700
O 	O 	0.64429 0.87209 0.68589 -0.41900
O 	O 	0.57864 0.94890 0.58862 -0.35100
O 	O 	0.37209 0.14429 0.79773 -0.49000
O 	O 	0.44890 0.07864 0.88384 -0.48900
O 	O 	0.37209 0.68589 0.14429 -0.48500
O 	O 	0.44890 0.58862 0.07864 -0.53200
O 	O 	0.64429 0.79773 0.87209 -0.42500
O 	O 	0.57864 0.88384 0.94890 -0.31500
O 	O 	0.18589 0.87209 0.79773 -0.42400
O 	O 	0.08862 0.94890 0.88384 -0.36400
O 	O 	0.29773 0.14429 0.68589 -0.48800
O 	O 	0.38384 0.07864 0.58862 -0.53600
O 	O 	0.64429 0.68589 0.79773 -0.45600
O 	O 	0.57864 0.58862 0.88384 -0.41400
O 	O 	0.37209 0.79773 0.68589 -0.45400
O 	O 	0.44890 0.88384 0.58862 -0.41200
O 	O 	0.29773 0.87209 0.14429 -0.45500
O 	O 	0.38384 0.94890 0.07864 -0.42700
O 	O 	0.18589 0.14429 0.87209 -0.45500
O 	O 	0.08862 0.07864 0.94890 -0.48200
O 	O 	0.61926 0.38074 0.25000 -0.23100
O 	O 	0.88074 0.11926 0.75000 -0.21800
O 	O 	0.75000 0.75000 0.11926 -0.25800
O 	O 	0.25000 0.25000 0.38074 -0.23600
O 	O 	0.61926 0.25000 0.75000 -0.22600
O 	O 	0.88074 0.75000 0.25000 -0.18100
O 	O 	0.75000 0.11926 0.38074 -0.26200
O 	O 	0.25000 0.38074 0.11926 -0.27600
O 	O 	0.61926 0.75000 0.38074 -0.22000
O 	O 	0.88074 0.25000 0.11926 -0.22900
O 	O 	0.75000 0.38074 0.75000 -0.21400
O 	O 	0.25000 0.11926 0.25000 -0.28300
O 	O 	0.38074 0.61926 0.75000 -0.21900
O 	O 	0.11926 0.88074 0.25000 -0.23100
O 	O 	0.25000 0.25000 0.88074 -0.19100
O 	O 	0.75000 0.75000 0.61926 -0.21500
O 	O 	0.38074 0.75000 0.25000 -0.22300
O 	O 	0.11926 0.25000 0.75000 -0.27000
O 	O 	0.25000 0.88074 0.61926 -0.18600
O 	O 	0.75000 0.61926 0.88074 -0.17700
O 	O 	0.38074 0.25000 0.61926 -0.23000
O 	O 	0.11926 0.75000 0.88074 -0.22000
O 	O 	0.25000 0.61926 0.25000 -0.23700
O 	O 	0.75000 0.88074 0.75000 -0.17300
