data_crystal

_cell_length_a 18.73160
_cell_length_b 18.73160
_cell_length_c 18.73160
_cell_angle_alpha 60.00000
_cell_angle_beta  60.00000
_cell_angle_gamma 60.00000

_symmetry_space_group_name_	'P 1'
_symmetry_space_group_name_H-M	'P 1'

loop_
_symmetry_equiv_pos_as_xyz
  x,y,z

loop_
_atom_site_label
_atom_site_type_symbol
_atom_site_fract_x
_atom_site_fract_y
_atom_site_fract_z
_atom_site_charge
Ca	Ca	0.50000 0.50000 0.50000 1.52300
Ca	Ca	-0.00000 0.00000 0.50000 1.45200
Ca	Ca	-0.00000 0.50000 -0.00000 1.45200
Ca	Ca	-0.00000 0.50000 0.50000 1.48900
Ca	Ca	0.50000 0.50000 -0.00000 1.48900
Ca	Ca	-0.00000 0.00000 -0.00000 1.41800
Ca	Ca	0.50000 0.00000 0.50000 1.49000
Ca	Ca	0.50000 0.00000 -0.00000 1.45400
Ho	Ho	0.75000 0.25000 0.25000 1.93100
Ho	Ho	0.75000 0.25000 0.75000 1.94900
Ho	Ho	0.75000 0.75000 0.25000 1.94900
Ho	Ho	0.25000 0.25000 0.25000 1.91300
Ho	Ho	0.25000 0.75000 0.75000 1.94600
Ho	Ho	0.25000 0.75000 0.25000 1.92900
Ho	Ho	0.25000 0.25000 0.75000 1.92900
Ho	Ho	0.75000 0.75000 0.75000 1.96300
H 	H 	0.51570 0.41650 0.34430 0.10900
H 	H 	0.57570 0.47430 0.29470 0.10500
H 	H 	0.91650 0.01570 0.72350 0.09200
H 	H 	0.97430 0.07570 0.65530 0.14500
H 	H 	0.84430 0.72350 0.01570 0.05600
H 	H 	0.79470 0.65530 0.07570 0.05400
H 	H 	0.22350 0.34430 0.41650 0.10700
H 	H 	0.15530 0.29470 0.47430 0.07700
H 	H 	0.51570 0.34430 0.72350 0.11800
H 	H 	0.57570 0.29470 0.65530 0.10700
H 	H 	0.91650 0.72350 0.34430 0.18500
H 	H 	0.97430 0.65530 0.29470 0.20200
H 	H 	0.84430 0.01570 0.41650 0.04600
H 	H 	0.79470 0.07570 0.47430 0.05200
H 	H 	0.22350 0.41650 0.01570 0.01000
H 	H 	0.15530 0.47430 0.07570 0.01700
H 	H 	0.51570 0.72350 0.41650 0.12000
H 	H 	0.57570 0.65530 0.47430 0.11400
H 	H 	0.91650 0.34430 0.01570 0.08100
H 	H 	0.97430 0.29470 0.07570 0.13600
H 	H 	0.84430 0.41650 0.72350 0.15000
H 	H 	0.79470 0.47430 0.65530 0.11800
H 	H 	0.22350 0.01570 0.34430 0.00700
H 	H 	0.15530 0.07570 0.29470 0.00700
H 	H 	0.58350 0.48430 0.15570 0.08400
H 	H 	0.52570 0.42430 0.20530 0.10600
H 	H 	0.98430 0.08350 0.77650 0.15100
H 	H 	0.92430 0.02570 0.84470 0.11400
H 	H 	0.27650 0.15570 0.48430 0.07400
H 	H 	0.34470 0.20530 0.42430 0.10400
H 	H 	0.65570 0.77650 0.08350 0.05400
H 	H 	0.70530 0.84470 0.02570 0.05500
H 	H 	0.65570 0.48430 0.77650 0.11600
H 	H 	0.70530 0.42430 0.84470 0.14400
H 	H 	0.27650 0.08350 0.15570 0.00600
H 	H 	0.34470 0.02570 0.20530 0.01000
H 	H 	0.98430 0.15570 0.08350 0.12100
H 	H 	0.92430 0.20530 0.02570 0.08500
H 	H 	0.58350 0.77650 0.48430 0.11500
H 	H 	0.52570 0.84470 0.42430 0.13700
H 	H 	0.27650 0.48430 0.08350 0.03800
H 	H 	0.34470 0.42430 0.02570 0.01400
H 	H 	0.65570 0.08350 0.48430 0.05100
H 	H 	0.70530 0.02570 0.42430 0.02600
H 	H 	0.58350 0.15570 0.77650 0.08700
H 	H 	0.52570 0.20530 0.84470 0.13400
H 	H 	0.98430 0.77650 0.15570 0.18600
H 	H 	0.92430 0.84470 0.20530 0.20100
H 	H 	0.48430 0.58350 0.65570 0.11500
H 	H 	0.42430 0.52570 0.70530 0.11800
H 	H 	0.08350 0.98430 0.27650 0.13700
H 	H 	0.02570 0.92430 0.34470 0.08300
H 	H 	0.15570 0.27650 0.98430 0.17400
H 	H 	0.20530 0.34470 0.92430 0.17400
H 	H 	0.77650 0.65570 0.58350 0.11600
H 	H 	0.84470 0.70530 0.52570 0.14500
H 	H 	0.48430 0.65570 0.27650 0.10600
H 	H 	0.42430 0.70530 0.34470 0.11600
H 	H 	0.08350 0.27650 0.65570 0.03800
H 	H 	0.02570 0.34470 0.70530 0.02200
H 	H 	0.15570 0.98430 0.58350 0.18200
H 	H 	0.20530 0.92430 0.52570 0.17600
H 	H 	0.77650 0.58350 0.98430 0.20800
H 	H 	0.84470 0.52570 0.92430 0.20200
H 	H 	0.48430 0.27650 0.58350 0.10400
H 	H 	0.42430 0.34470 0.52570 0.10800
H 	H 	0.08350 0.65570 0.98430 0.14700
H 	H 	0.02570 0.70530 0.92430 0.09200
H 	H 	0.15570 0.58350 0.27650 0.07300
H 	H 	0.20530 0.52570 0.34470 0.10500
H 	H 	0.77650 0.98430 0.65570 0.20800
H 	H 	0.84470 0.92430 0.70530 0.20600
H 	H 	0.41650 0.51570 0.84430 0.14100
H 	H 	0.47430 0.57570 0.79470 0.11700
H 	H 	0.01570 0.91650 0.22350 0.07600
H 	H 	0.07570 0.97430 0.15530 0.11300
H 	H 	0.72350 0.84430 0.51570 0.14800
H 	H 	0.65530 0.79470 0.57570 0.11800
H 	H 	0.34430 0.22350 0.91650 0.17400
H 	H 	0.29470 0.15530 0.97430 0.17400
H 	H 	0.34430 0.51570 0.22350 0.10700
H 	H 	0.29470 0.57570 0.15530 0.07800
H 	H 	0.72350 0.91650 0.84430 0.20700
H 	H 	0.65530 0.97430 0.79470 0.20600
H 	H 	0.01570 0.84430 0.91650 0.10600
H 	H 	0.07570 0.79470 0.97430 0.14100
H 	H 	0.41650 0.22350 0.51570 0.10900
H 	H 	0.47430 0.15530 0.57570 0.08700
H 	H 	0.72350 0.51570 0.91650 0.18400
H 	H 	0.65530 0.57570 0.97430 0.20600
H 	H 	0.34430 0.91650 0.51570 0.17500
H 	H 	0.29470 0.97430 0.57570 0.19900
H 	H 	0.41650 0.84430 0.22350 0.13900
H 	H 	0.47430 0.79470 0.15530 0.09100
H 	H 	0.01570 0.22350 0.84430 0.03900
H 	H 	0.07570 0.15530 0.79470 0.02200
C 	C 	0.57581 0.41499 0.31787 -0.25200
C 	C 	0.62062 0.35944 0.38558 0.46200
C 	C 	0.91499 0.07581 0.69133 -0.26600
C 	C 	0.85944 0.12062 0.63436 0.46600
C 	C 	0.81787 0.69133 0.07581 -0.18900
C 	C 	0.88558 0.63436 0.12062 0.42600
C 	C 	0.19133 0.31787 0.41499 -0.25000
C 	C 	0.13436 0.38558 0.35944 0.45900
C 	C 	0.57581 0.31787 0.69133 -0.25900
C 	C 	0.62062 0.38558 0.63436 0.46600
C 	C 	0.91499 0.69133 0.31787 -0.33600
C 	C 	0.85944 0.63436 0.38558 0.50400
C 	C 	0.81787 0.07581 0.41499 -0.18200
C 	C 	0.88558 0.12062 0.35944 0.42200
C 	C 	0.19133 0.41499 0.07581 -0.17800
C 	C 	0.13436 0.35944 0.12062 0.41900
C 	C 	0.57581 0.69133 0.41499 -0.26400
C 	C 	0.62062 0.63436 0.35944 0.46900
C 	C 	0.91499 0.31787 0.07581 -0.25400
C 	C 	0.85944 0.38558 0.12062 0.45800
C 	C 	0.81787 0.41499 0.69133 -0.26400
C 	C 	0.88558 0.35944 0.63436 0.46700
C 	C 	0.19133 0.07581 0.31787 -0.17100
C 	C 	0.13436 0.12062 0.38558 0.41600
C 	C 	0.58501 0.42419 0.18213 -0.25800
C 	C 	0.64056 0.37938 0.11442 0.46200
C 	C 	0.92419 0.08501 0.80867 -0.25900
C 	C 	0.87938 0.14056 0.86564 0.46400
C 	C 	0.30867 0.18213 0.42419 -0.25000
C 	C 	0.36564 0.11442 0.37938 0.45700
C 	C 	0.68213 0.80867 0.08501 -0.18900
C 	C 	0.61442 0.86564 0.14056 0.42700
C 	C 	0.68213 0.42419 0.80867 -0.26400
C 	C 	0.61442 0.37938 0.86564 0.46500
C 	C 	0.30867 0.08501 0.18213 -0.17000
C 	C 	0.36564 0.14056 0.11442 0.41600
C 	C 	0.92419 0.18213 0.08501 -0.25800
C 	C 	0.87938 0.11442 0.14056 0.46300
C 	C 	0.58501 0.80867 0.42419 -0.25900
C 	C 	0.64056 0.86564 0.37938 0.46300
C 	C 	0.30867 0.42419 0.08501 -0.17400
C 	C 	0.36564 0.37938 0.14056 0.41900
C 	C 	0.68213 0.08501 0.42419 -0.18900
C 	C 	0.61442 0.14056 0.37938 0.42700
C 	C 	0.58501 0.18213 0.80867 -0.25700
C 	C 	0.64056 0.11442 0.86564 0.46200
C 	C 	0.92419 0.80867 0.18213 -0.33300
C 	C 	0.87938 0.86564 0.11442 0.50100
C 	C 	0.42419 0.58501 0.68213 -0.26500
C 	C 	0.37938 0.64056 0.61442 0.46800
C 	C 	0.08501 0.92419 0.30867 -0.24900
C 	C 	0.14056 0.87938 0.36564 0.46100
C 	C 	0.18213 0.30867 0.92419 -0.32700
C 	C 	0.11442 0.36564 0.87938 0.49800
C 	C 	0.80867 0.68213 0.58501 -0.26300
C 	C 	0.86564 0.61442 0.64056 0.46700
C 	C 	0.42419 0.68213 0.30867 -0.25800
C 	C 	0.37938 0.61442 0.36564 0.46400
C 	C 	0.08501 0.30867 0.68213 -0.17800
C 	C 	0.14056 0.36564 0.61442 0.42300
C 	C 	0.18213 0.92419 0.58501 -0.33300
C 	C 	0.11442 0.87938 0.64056 0.50200
C 	C 	0.80867 0.58501 0.92419 -0.33100
C 	C 	0.86564 0.64056 0.87938 0.50200
C 	C 	0.42419 0.30867 0.58501 -0.25300
C 	C 	0.37938 0.36564 0.64056 0.46100
C 	C 	0.08501 0.68213 0.92419 -0.26100
C 	C 	0.14056 0.61442 0.87938 0.46700
C 	C 	0.18213 0.58501 0.30867 -0.25000
C 	C 	0.11442 0.64056 0.36564 0.45800
C 	C 	0.80867 0.92419 0.68213 -0.33300
C 	C 	0.86564 0.87938 0.61442 0.50300
C 	C 	0.41499 0.57581 0.81787 -0.25800
C 	C 	0.35944 0.62062 0.88558 0.46500
C 	C 	0.07581 0.91499 0.19133 -0.25400
C 	C 	0.12062 0.85944 0.13436 0.45700
C 	C 	0.69133 0.81787 0.57581 -0.26300
C 	C 	0.63436 0.88558 0.62062 0.46900
C 	C 	0.31787 0.19133 0.91499 -0.32800
C 	C 	0.38558 0.13436 0.85944 0.49800
C 	C 	0.31787 0.57581 0.19133 -0.25000
C 	C 	0.38558 0.62062 0.13436 0.46000
C 	C 	0.69133 0.91499 0.81787 -0.33400
C 	C 	0.63436 0.85944 0.88558 0.50300
C 	C 	0.07581 0.81787 0.91499 -0.25400
C 	C 	0.12062 0.88558 0.85944 0.45900
C 	C 	0.41499 0.19133 0.57581 -0.25600
C 	C 	0.35944 0.13436 0.62062 0.46400
C 	C 	0.69133 0.57581 0.91499 -0.33800
C 	C 	0.63436 0.62062 0.85944 0.50600
C 	C 	0.31787 0.91499 0.57581 -0.32900
C 	C 	0.38558 0.85944 0.62062 0.50000
C 	C 	0.41499 0.81787 0.19133 -0.25600
C 	C 	0.35944 0.88558 0.13436 0.46300
C 	C 	0.07581 0.19133 0.81787 -0.17600
C 	C 	0.12062 0.13436 0.88558 0.41900
O 	O 	0.68745 0.29497 0.37199 -0.43600
O 	O 	0.58941 0.38137 0.45047 -0.46100
O 	O 	0.79497 0.18745 0.64559 -0.44400
O 	O 	0.88137 0.08941 0.57875 -0.47000
O 	O 	0.87199 0.64559 0.18745 -0.40600
O 	O 	0.95047 0.57875 0.08941 -0.40200
O 	O 	0.14559 0.37199 0.29497 -0.47600
O 	O 	0.07875 0.45047 0.38137 -0.54500
O 	O 	0.68745 0.37199 0.64559 -0.43700
O 	O 	0.58941 0.45047 0.57875 -0.46000
O 	O 	0.79497 0.64559 0.37199 -0.44200
O 	O 	0.88137 0.57875 0.45047 -0.41700
O 	O 	0.87199 0.18745 0.29497 -0.40500
O 	O 	0.95047 0.08941 0.38137 -0.40300
O 	O 	0.14559 0.29497 0.18745 -0.48000
O 	O 	0.07875 0.38137 0.08941 -0.60400
O 	O 	0.68745 0.64559 0.29497 -0.43900
O 	O 	0.58941 0.57875 0.38137 -0.46200
O 	O 	0.79497 0.37199 0.18745 -0.44200
O 	O 	0.88137 0.45047 0.08941 -0.46900
O 	O 	0.87199 0.29497 0.64559 -0.40500
O 	O 	0.95047 0.38137 0.57875 -0.35000
O 	O 	0.14559 0.18745 0.37199 -0.47600
O 	O 	0.07875 0.08941 0.45047 -0.60000
O 	O 	0.70503 0.31255 0.12801 -0.47800
O 	O 	0.61863 0.41059 0.04953 -0.56200
O 	O 	0.81255 0.20503 0.85441 -0.40100
O 	O 	0.91059 0.11863 0.92125 -0.34000
O 	O 	0.35441 0.12801 0.31255 -0.47900
O 	O 	0.42125 0.04953 0.41059 -0.56500
O 	O 	0.62801 0.85441 0.20503 -0.40400
O 	O 	0.54953 0.92125 0.11863 -0.40500
O 	O 	0.62801 0.31255 0.85441 -0.41000
O 	O 	0.54953 0.41059 0.92125 -0.37600
O 	O 	0.35441 0.20503 0.12801 -0.47300
O 	O 	0.42125 0.11863 0.04953 -0.59800
O 	O 	0.81255 0.12801 0.20503 -0.47100
O 	O 	0.91059 0.04953 0.11863 -0.52600
O 	O 	0.70503 0.85441 0.31255 -0.40800
O 	O 	0.61863 0.92125 0.41059 -0.37400
O 	O 	0.35441 0.31255 0.20503 -0.44100
O 	O 	0.42125 0.41059 0.11863 -0.49800
O 	O 	0.62801 0.20503 0.31255 -0.44400
O 	O 	0.54953 0.11863 0.41059 -0.50000
O 	O 	0.70503 0.12801 0.85441 -0.43800
O 	O 	0.61863 0.04953 0.92125 -0.46700
O 	O 	0.81255 0.85441 0.12801 -0.43700
O 	O 	0.91059 0.92125 0.04953 -0.40500
O 	O 	0.31255 0.70503 0.62801 -0.44400
O 	O 	0.41059 0.61863 0.54953 -0.46400
O 	O 	0.20503 0.81255 0.35441 -0.43300
O 	O 	0.11863 0.91059 0.42125 -0.42700
O 	O 	0.12801 0.35441 0.81255 -0.47100
O 	O 	0.04953 0.42125 0.91059 -0.49400
O 	O 	0.85441 0.62801 0.70503 -0.40400
O 	O 	0.92125 0.54953 0.61863 -0.37000
O 	O 	0.31255 0.62801 0.35441 -0.44400
O 	O 	0.41059 0.54953 0.42125 -0.46500
O 	O 	0.20503 0.35441 0.62801 -0.43700
O 	O 	0.11863 0.42125 0.54953 -0.49600
O 	O 	0.12801 0.81255 0.70503 -0.47100
O 	O 	0.04953 0.91059 0.61863 -0.49300
O 	O 	0.85441 0.70503 0.81255 -0.40200
O 	O 	0.92125 0.61863 0.91059 -0.31100
O 	O 	0.31255 0.35441 0.70503 -0.44100
O 	O 	0.41059 0.42125 0.61863 -0.46200
O 	O 	0.20503 0.62801 0.81255 -0.43600
O 	O 	0.11863 0.54953 0.91059 -0.42800
O 	O 	0.12801 0.70503 0.35441 -0.47300
O 	O 	0.04953 0.61863 0.42125 -0.56100
O 	O 	0.85441 0.81255 0.62801 -0.40300
O 	O 	0.92125 0.91059 0.54953 -0.31100
O 	O 	0.29497 0.68745 0.87199 -0.40000
O 	O 	0.38137 0.58941 0.95047 -0.35000
O 	O 	0.18745 0.79497 0.14559 -0.47700
O 	O 	0.08941 0.88137 0.07875 -0.55200
O 	O 	0.64559 0.87199 0.68745 -0.40100
O 	O 	0.57875 0.95047 0.58941 -0.35000
O 	O 	0.37199 0.14559 0.79497 -0.47300
O 	O 	0.45047 0.07875 0.88137 -0.49300
O 	O 	0.37199 0.68745 0.14559 -0.46800
O 	O 	0.45047 0.58941 0.07875 -0.53600
O 	O 	0.64559 0.79497 0.87199 -0.40700
O 	O 	0.57875 0.88137 0.95047 -0.31500
O 	O 	0.18745 0.87199 0.79497 -0.40600
O 	O 	0.08941 0.95047 0.88137 -0.36500
O 	O 	0.29497 0.14559 0.68745 -0.47100
O 	O 	0.38137 0.07875 0.58941 -0.54000
O 	O 	0.64559 0.68745 0.79497 -0.43800
O 	O 	0.57875 0.58941 0.88137 -0.41600
O 	O 	0.37199 0.79497 0.68745 -0.43600
O 	O 	0.45047 0.88137 0.58941 -0.41500
O 	O 	0.29497 0.87199 0.14559 -0.43700
O 	O 	0.38137 0.95047 0.07875 -0.42800
O 	O 	0.18745 0.14559 0.87199 -0.43800
O 	O 	0.08941 0.07875 0.95047 -0.48400
O 	O 	0.62012 0.37988 0.25000 -0.21500
O 	O 	0.87988 0.12012 0.75000 -0.20200
O 	O 	0.75000 0.75000 0.12012 -0.24200
O 	O 	0.25000 0.25000 0.37988 -0.22100
O 	O 	0.62012 0.25000 0.75000 -0.21000
O 	O 	0.87988 0.75000 0.25000 -0.16400
O 	O 	0.75000 0.12012 0.37988 -0.24700
O 	O 	0.25000 0.37988 0.12012 -0.26000
O 	O 	0.62012 0.75000 0.37988 -0.20300
O 	O 	0.87988 0.25000 0.12012 -0.21300
O 	O 	0.75000 0.37988 0.75000 -0.19800
O 	O 	0.25000 0.12012 0.25000 -0.26800
O 	O 	0.37988 0.62012 0.75000 -0.20300
O 	O 	0.12012 0.87988 0.25000 -0.21500
O 	O 	0.25000 0.25000 0.87988 -0.17500
O 	O 	0.75000 0.75000 0.62012 -0.19800
O 	O 	0.37988 0.75000 0.25000 -0.20700
O 	O 	0.12012 0.25000 0.75000 -0.25500
O 	O 	0.25000 0.87988 0.62012 -0.17000
O 	O 	0.75000 0.62012 0.87988 -0.16100
O 	O 	0.37988 0.25000 0.62012 -0.21400
O 	O 	0.12012 0.75000 0.87988 -0.20400
O 	O 	0.25000 0.62012 0.25000 -0.22100
O 	O 	0.75000 0.87988 0.75000 -0.15700
