data_crystal

_cell_length_a 18.72690
_cell_length_b 18.72690
_cell_length_c 18.72690
_cell_angle_alpha 60.00000
_cell_angle_beta  60.00000
_cell_angle_gamma 60.00000

_symmetry_space_group_name_	'P 1'
_symmetry_space_group_name_H-M	'P 1'

loop_
_symmetry_equiv_pos_as_xyz
  x,y,z

loop_
_atom_site_label
_atom_site_type_symbol
_atom_site_fract_x
_atom_site_fract_y
_atom_site_fract_z
_atom_site_charge
Ca	Ca	0.50000 0.50000 0.50000 1.52400
Ca	Ca	0.00000 -0.00000 0.50000 1.46900
Ca	Ca	0.00000 0.50000 -0.00000 1.46900
Ca	Ca	1.00000 0.50000 0.50000 1.54600
Ca	Ca	0.50000 0.50000 -0.00000 1.49100
Ca	Ca	-0.00000 0.00000 -0.00000 1.43400
Ca	Ca	0.50000 -0.00000 0.50000 1.49000
Ca	Ca	0.50000 0.00000 -0.00000 1.45700
Er	Er	0.75000 0.25000 0.25000 1.87300
Er	Er	0.75000 0.25000 0.75000 1.88900
Er	Er	0.75000 0.75000 0.25000 1.88900
Er	Er	0.25000 0.25000 0.25000 1.86200
Er	Er	0.25000 0.75000 0.75000 1.89200
Er	Er	0.25000 0.75000 0.25000 1.87700
Er	Er	0.25000 0.25000 0.75000 1.87600
Er	Er	0.75000 0.75000 0.75000 1.90200
H 	H 	0.51660 0.41540 0.34480 0.11200
H 	H 	0.57630 0.47370 0.29490 0.10700
H 	H 	0.91540 0.01660 0.72320 0.07400
H 	H 	0.97370 0.07630 0.65510 0.11300
H 	H 	0.84480 0.72320 0.01660 0.05200
H 	H 	0.79490 0.65510 0.07630 0.05800
H 	H 	0.22320 0.34480 0.41540 0.11100
H 	H 	0.15510 0.29490 0.47370 0.08900
H 	H 	0.51660 0.34480 0.72320 0.12100
H 	H 	0.57630 0.29490 0.65510 0.10900
H 	H 	0.91540 0.72320 0.34480 0.16100
H 	H 	0.97370 0.65510 0.29490 0.16700
H 	H 	0.84480 0.01660 0.41540 0.04300
H 	H 	0.79490 0.07630 0.47370 0.05600
H 	H 	0.22320 0.41540 0.01660 0.01900
H 	H 	0.15510 0.47370 0.07630 0.03300
H 	H 	0.51660 0.72320 0.41540 0.12300
H 	H 	0.57630 0.65510 0.47370 0.11600
H 	H 	0.91540 0.34480 0.01660 0.06400
H 	H 	0.97370 0.29490 0.07630 0.10500
H 	H 	0.84480 0.41540 0.72320 0.14000
H 	H 	0.79490 0.47370 0.65510 0.11800
H 	H 	0.22320 0.01660 0.34480 0.01600
H 	H 	0.15510 0.07630 0.29490 0.02400
H 	H 	0.58460 0.48340 0.15520 0.08900
H 	H 	0.52630 0.42370 0.20510 0.10900
H 	H 	0.98340 0.08460 0.77680 0.11800
H 	H 	0.92370 0.02630 0.84490 0.09400
H 	H 	0.27680 0.15520 0.48340 0.08200
H 	H 	0.34490 0.20510 0.42370 0.10700
H 	H 	0.65520 0.77680 0.08460 0.06000
H 	H 	0.70510 0.84490 0.02630 0.05900
H 	H 	0.65520 0.48340 0.77680 0.11800
H 	H 	0.70510 0.42370 0.84490 0.14200
H 	H 	0.27680 0.08460 0.15520 0.01700
H 	H 	0.34490 0.02630 0.20510 0.01800
H 	H 	0.98340 0.15520 0.08460 0.09000
H 	H 	0.92370 0.20510 0.02630 0.06600
H 	H 	0.58460 0.77680 0.48340 0.11700
H 	H 	0.52630 0.84490 0.42370 0.13800
H 	H 	0.27680 0.48340 0.08460 0.04800
H 	H 	0.34490 0.42370 0.02630 0.02200
H 	H 	0.65520 0.08460 0.48340 0.05700
H 	H 	0.70510 0.02630 0.42370 0.03100
H 	H 	0.58460 0.15520 0.77680 0.09100
H 	H 	0.52630 0.20510 0.84490 0.13500
H 	H 	0.98340 0.77680 0.15520 0.15100
H 	H 	0.92370 0.84490 0.20510 0.17600
H 	H 	0.48340 0.58460 0.65520 0.11700
H 	H 	0.42370 0.52630 0.70510 0.12000
H 	H 	0.08460 0.98340 0.27680 0.16000
H 	H 	0.02630 0.92370 0.34490 0.11800
H 	H 	0.15520 0.27680 0.98340 0.18300
H 	H 	0.20510 0.34490 0.92370 0.17400
H 	H 	0.77680 0.65520 0.58460 0.11800
H 	H 	0.84490 0.70510 0.52630 0.13600
H 	H 	0.48340 0.65520 0.27680 0.10900
H 	H 	0.42370 0.70510 0.34490 0.11800
H 	H 	0.08460 0.27680 0.65520 0.06700
H 	H 	0.02630 0.34490 0.70510 0.06100
H 	H 	0.15520 0.98340 0.58460 0.19000
H 	H 	0.20510 0.92370 0.52630 0.17600
H 	H 	0.77680 0.58460 0.98340 0.20400
H 	H 	0.84490 0.52630 0.92370 0.19000
H 	H 	0.48340 0.27680 0.58460 0.10700
H 	H 	0.42370 0.34490 0.52630 0.11100
H 	H 	0.08460 0.65520 0.98340 0.16900
H 	H 	0.02630 0.70510 0.92370 0.12700
H 	H 	0.15520 0.58460 0.27680 0.08800
H 	H 	0.20510 0.52630 0.34490 0.10800
H 	H 	0.77680 0.98340 0.65520 0.20500
H 	H 	0.84490 0.92370 0.70510 0.19300
H 	H 	0.41540 0.51660 0.84480 0.14200
H 	H 	0.47370 0.57630 0.79490 0.11900
H 	H 	0.01660 0.91540 0.22320 0.11300
H 	H 	0.07630 0.97370 0.15510 0.13700
H 	H 	0.72320 0.84480 0.51660 0.14600
H 	H 	0.65510 0.79490 0.57630 0.12000
H 	H 	0.34480 0.22320 0.91540 0.17400
H 	H 	0.29490 0.15510 0.97370 0.17500
H 	H 	0.34480 0.51660 0.22320 0.11000
H 	H 	0.29490 0.57630 0.15510 0.08500
H 	H 	0.72320 0.91540 0.84480 0.20100
H 	H 	0.65510 0.97370 0.79490 0.20200
H 	H 	0.01660 0.84480 0.91540 0.14200
H 	H 	0.07630 0.79490 0.97370 0.16500
H 	H 	0.41540 0.22320 0.51660 0.11200
H 	H 	0.47370 0.15510 0.57630 0.09000
H 	H 	0.72320 0.51660 0.91540 0.17900
H 	H 	0.65510 0.57630 0.97370 0.20200
H 	H 	0.34480 0.91540 0.51660 0.17500
H 	H 	0.29490 0.97370 0.57630 0.19900
H 	H 	0.41540 0.84480 0.22320 0.14100
H 	H 	0.47370 0.79490 0.15510 0.09400
H 	H 	0.01660 0.22320 0.84480 0.07900
H 	H 	0.07630 0.15510 0.79490 0.05200
C 	C 	0.57670 0.41414 0.31806 -0.26200
C 	C 	0.62120 0.35952 0.38508 0.46200
C 	C 	0.91414 0.07670 0.69110 -0.25000
C 	C 	0.85952 0.12120 0.63420 0.45400
C 	C 	0.81806 0.69110 0.07670 -0.20200
C 	C 	0.88508 0.63420 0.12120 0.42900
C 	C 	0.19110 0.31806 0.41414 -0.26200
C 	C 	0.13420 0.38508 0.35952 0.46200
C 	C 	0.57670 0.31806 0.69110 -0.26900
C 	C 	0.62120 0.38508 0.63420 0.46600
C 	C 	0.91414 0.69110 0.31806 -0.31800
C 	C 	0.85952 0.63420 0.38508 0.49200
C 	C 	0.81806 0.07670 0.41414 -0.19500
C 	C 	0.88508 0.12120 0.35952 0.42400
C 	C 	0.19110 0.41414 0.07670 -0.19100
C 	C 	0.13420 0.35952 0.12120 0.42200
C 	C 	0.57670 0.69110 0.41414 -0.27400
C 	C 	0.62120 0.63420 0.35952 0.46900
C 	C 	0.91414 0.31806 0.07670 -0.23900
C 	C 	0.85952 0.38508 0.12120 0.44700
C 	C 	0.81806 0.41414 0.69110 -0.27500
C 	C 	0.88508 0.35952 0.63420 0.47000
C 	C 	0.19110 0.07670 0.31806 -0.18400
C 	C 	0.13420 0.12120 0.38508 0.41800
C 	C 	0.58586 0.42330 0.18194 -0.26700
C 	C 	0.64048 0.37880 0.11492 0.46300
C 	C 	0.92330 0.08586 0.80890 -0.24300
C 	C 	0.87880 0.14048 0.86580 0.45100
C 	C 	0.30890 0.18194 0.42330 -0.26200
C 	C 	0.36580 0.11492 0.37880 0.45900
C 	C 	0.68194 0.80890 0.08586 -0.20000
C 	C 	0.61492 0.86580 0.14048 0.42800
C 	C 	0.68194 0.42330 0.80890 -0.27200
C 	C 	0.61492 0.37880 0.86580 0.46600
C 	C 	0.30890 0.08586 0.18194 -0.18400
C 	C 	0.36580 0.14048 0.11492 0.41900
C 	C 	0.92330 0.18194 0.08586 -0.24200
C 	C 	0.87880 0.11492 0.14048 0.44900
C 	C 	0.58586 0.80890 0.42330 -0.26900
C 	C 	0.64048 0.86580 0.37880 0.46400
C 	C 	0.30890 0.42330 0.08586 -0.18900
C 	C 	0.36580 0.37880 0.14048 0.42200
C 	C 	0.68194 0.08586 0.42330 -0.19900
C 	C 	0.61492 0.14048 0.37880 0.42800
C 	C 	0.58586 0.18194 0.80890 -0.26700
C 	C 	0.64048 0.11492 0.86580 0.46300
C 	C 	0.92330 0.80890 0.18194 -0.31400
C 	C 	0.87880 0.86580 0.11492 0.48700
C 	C 	0.42330 0.58586 0.68194 -0.27400
C 	C 	0.37880 0.64048 0.61492 0.46800
C 	C 	0.08586 0.92330 0.30890 -0.28600
C 	C 	0.14048 0.87880 0.36580 0.47500
C 	C 	0.18194 0.30890 0.92330 -0.33400
C 	C 	0.11492 0.36580 0.87880 0.49900
C 	C 	0.80890 0.68194 0.58586 -0.27400
C 	C 	0.86580 0.61492 0.64048 0.47000
C 	C 	0.42330 0.68194 0.30890 -0.26800
C 	C 	0.37880 0.61492 0.36580 0.46500
C 	C 	0.08586 0.30890 0.68194 -0.21900
C 	C 	0.14048 0.36580 0.61492 0.44100
C 	C 	0.18194 0.92330 0.58586 -0.34000
C 	C 	0.11492 0.87880 0.64048 0.50200
C 	C 	0.80890 0.58586 0.92330 -0.33800
C 	C 	0.86580 0.64048 0.87880 0.50200
C 	C 	0.42330 0.30890 0.58586 -0.26200
C 	C 	0.37880 0.36580 0.64048 0.46200
C 	C 	0.08586 0.68194 0.92330 -0.29700
C 	C 	0.14048 0.61492 0.87880 0.48100
C 	C 	0.18194 0.58586 0.30890 -0.26200
C 	C 	0.11492 0.64048 0.36580 0.46200
C 	C 	0.80890 0.92330 0.68194 -0.34000
C 	C 	0.86580 0.87880 0.61492 0.50300
C 	C 	0.41414 0.57670 0.81806 -0.26700
C 	C 	0.35952 0.62120 0.88508 0.46600
C 	C 	0.07670 0.91414 0.19110 -0.29000
C 	C 	0.12120 0.85952 0.13420 0.47400
C 	C 	0.69110 0.81806 0.57670 -0.27100
C 	C 	0.63420 0.88508 0.62120 0.46800
C 	C 	0.31806 0.19110 0.91414 -0.33600
C 	C 	0.38508 0.13420 0.85952 0.49800
C 	C 	0.31806 0.57670 0.19110 -0.26100
C 	C 	0.38508 0.62120 0.13420 0.46200
C 	C 	0.69110 0.91414 0.81806 -0.33800
C 	C 	0.63420 0.85952 0.88508 0.50100
C 	C 	0.07670 0.81806 0.91414 -0.29100
C 	C 	0.12120 0.88508 0.85952 0.47500
C 	C 	0.41414 0.19110 0.57670 -0.26500
C 	C 	0.35952 0.13420 0.62120 0.46400
C 	C 	0.69110 0.57670 0.91414 -0.34200
C 	C 	0.63420 0.62120 0.85952 0.50400
C 	C 	0.31806 0.91414 0.57670 -0.33700
C 	C 	0.38508 0.85952 0.62120 0.50100
C 	C 	0.41414 0.81806 0.19110 -0.26600
C 	C 	0.35952 0.88508 0.13420 0.46300
C 	C 	0.07670 0.19110 0.81806 -0.21600
C 	C 	0.12120 0.13420 0.88508 0.43600
O 	O 	0.68759 0.29479 0.37181 -0.43200
O 	O 	0.59022 0.38060 0.45080 -0.46000
O 	O 	0.79479 0.18759 0.64581 -0.43800
O 	O 	0.88060 0.09022 0.57838 -0.48200
O 	O 	0.87181 0.64581 0.18759 -0.41400
O 	O 	0.95080 0.57838 0.09022 -0.44000
O 	O 	0.14581 0.37181 0.29479 -0.45700
O 	O 	0.07838 0.45080 0.38060 -0.51800
O 	O 	0.68759 0.37181 0.64581 -0.43300
O 	O 	0.59022 0.45080 0.57838 -0.45900
O 	O 	0.79479 0.64581 0.37181 -0.43700
O 	O 	0.88060 0.57838 0.45080 -0.44000
O 	O 	0.87181 0.18759 0.29479 -0.41300
O 	O 	0.95080 0.09022 0.38060 -0.44100
O 	O 	0.14581 0.29479 0.18759 -0.46000
O 	O 	0.07838 0.38060 0.09022 -0.56700
O 	O 	0.68759 0.64581 0.29479 -0.43500
O 	O 	0.59022 0.57838 0.38060 -0.46100
O 	O 	0.79479 0.37181 0.18759 -0.43500
O 	O 	0.88060 0.45080 0.09022 -0.48100
O 	O 	0.87181 0.29479 0.64581 -0.41500
O 	O 	0.95080 0.38060 0.57838 -0.39900
O 	O 	0.14581 0.18759 0.37181 -0.45600
O 	O 	0.07838 0.09022 0.45080 -0.56300
O 	O 	0.70521 0.31241 0.12819 -0.47100
O 	O 	0.61940 0.40978 0.04920 -0.55500
O 	O 	0.81241 0.20521 0.85419 -0.39800
O 	O 	0.90978 0.11940 0.92162 -0.36700
O 	O 	0.35419 0.12819 0.31241 -0.47100
O 	O 	0.42162 0.04920 0.40978 -0.55700
O 	O 	0.62819 0.85419 0.20521 -0.40000
O 	O 	0.54920 0.92162 0.11940 -0.40500
O 	O 	0.62819 0.31241 0.85419 -0.40600
O 	O 	0.54920 0.40978 0.92162 -0.37900
O 	O 	0.35419 0.20521 0.12819 -0.46500
O 	O 	0.42162 0.11940 0.04920 -0.58700
O 	O 	0.81241 0.12819 0.20521 -0.46400
O 	O 	0.90978 0.04920 0.11940 -0.54100
O 	O 	0.70521 0.85419 0.31241 -0.40500
O 	O 	0.61940 0.92162 0.40978 -0.37800
O 	O 	0.35419 0.31241 0.20521 -0.43500
O 	O 	0.42162 0.40978 0.11940 -0.49400
O 	O 	0.62819 0.20521 0.31241 -0.43700
O 	O 	0.54920 0.11940 0.40978 -0.49400
O 	O 	0.70521 0.12819 0.85419 -0.43300
O 	O 	0.61940 0.04920 0.92162 -0.46500
O 	O 	0.81241 0.85419 0.12819 -0.43300
O 	O 	0.90978 0.92162 0.04920 -0.42800
O 	O 	0.31241 0.70521 0.62819 -0.43600
O 	O 	0.40978 0.61940 0.54920 -0.46000
O 	O 	0.20521 0.81241 0.35419 -0.42800
O 	O 	0.11940 0.90978 0.42162 -0.41500
O 	O 	0.12819 0.35419 0.81241 -0.45200
O 	O 	0.04920 0.42162 0.90978 -0.45700
O 	O 	0.85419 0.62819 0.70521 -0.41300
O 	O 	0.92162 0.54920 0.61940 -0.41000
O 	O 	0.31241 0.62819 0.35419 -0.43600
O 	O 	0.40978 0.54920 0.42162 -0.46200
O 	O 	0.20521 0.35419 0.62819 -0.43200
O 	O 	0.11940 0.42162 0.54920 -0.48700
O 	O 	0.12819 0.81241 0.70521 -0.45100
O 	O 	0.04920 0.90978 0.61940 -0.45500
O 	O 	0.85419 0.70521 0.81241 -0.41100
O 	O 	0.92162 0.61940 0.90978 -0.34900
O 	O 	0.31241 0.35419 0.70521 -0.43300
O 	O 	0.40978 0.42162 0.61940 -0.45900
O 	O 	0.20521 0.62819 0.81241 -0.43100
O 	O 	0.11940 0.54920 0.90978 -0.41700
O 	O 	0.12819 0.70521 0.35419 -0.45300
O 	O 	0.04920 0.61940 0.42162 -0.52500
O 	O 	0.85419 0.81241 0.62819 -0.41200
O 	O 	0.92162 0.90978 0.54920 -0.34900
O 	O 	0.29479 0.68759 0.87181 -0.39600
O 	O 	0.38060 0.59022 0.95080 -0.35400
O 	O 	0.18759 0.79479 0.14581 -0.46800
O 	O 	0.09022 0.88060 0.07838 -0.52600
O 	O 	0.64581 0.87181 0.68759 -0.39700
O 	O 	0.57838 0.95080 0.59022 -0.35400
O 	O 	0.37181 0.14581 0.79479 -0.46600
O 	O 	0.45080 0.07838 0.88060 -0.48900
O 	O 	0.37181 0.68759 0.14581 -0.46000
O 	O 	0.45080 0.59022 0.07838 -0.53000
O 	O 	0.64581 0.79479 0.87181 -0.40300
O 	O 	0.57838 0.88060 0.95080 -0.32200
O 	O 	0.18759 0.87181 0.79479 -0.40200
O 	O 	0.09022 0.95080 0.88060 -0.35000
O 	O 	0.29479 0.14581 0.68759 -0.46200
O 	O 	0.38060 0.07838 0.59022 -0.53200
O 	O 	0.64581 0.68759 0.79479 -0.43200
O 	O 	0.57838 0.59022 0.88060 -0.41700
O 	O 	0.37181 0.79479 0.68759 -0.43100
O 	O 	0.45080 0.88060 0.59022 -0.41600
O 	O 	0.29479 0.87181 0.14581 -0.43100
O 	O 	0.38060 0.95080 0.07838 -0.42700
O 	O 	0.18759 0.14581 0.87181 -0.43100
O 	O 	0.09022 0.07838 0.95080 -0.46100
O 	O 	0.62036 0.37964 0.25000 -0.20400
O 	O 	0.87964 0.12036 0.75000 -0.20700
O 	O 	0.75000 0.75000 0.12036 -0.23200
O 	O 	0.25000 0.25000 0.37964 -0.20700
O 	O 	0.62036 0.25000 0.75000 -0.19900
O 	O 	0.87964 0.75000 0.25000 -0.17100
O 	O 	0.75000 0.12036 0.37964 -0.23700
O 	O 	0.25000 0.37964 0.12036 -0.24600
O 	O 	0.62036 0.75000 0.37964 -0.19300
O 	O 	0.87964 0.25000 0.12036 -0.21800
O 	O 	0.75000 0.37964 0.75000 -0.19000
O 	O 	0.25000 0.12036 0.25000 -0.25300
O 	O 	0.37964 0.62036 0.75000 -0.19300
O 	O 	0.12036 0.87964 0.25000 -0.18900
O 	O 	0.25000 0.25000 0.87964 -0.16400
O 	O 	0.75000 0.75000 0.62036 -0.19000
O 	O 	0.37964 0.75000 0.25000 -0.19700
O 	O 	0.12036 0.25000 0.75000 -0.22600
O 	O 	0.25000 0.87964 0.62036 -0.15900
O 	O 	0.75000 0.62036 0.87964 -0.15400
O 	O 	0.37964 0.25000 0.62036 -0.20300
O 	O 	0.12036 0.75000 0.87964 -0.17800
O 	O 	0.25000 0.62036 0.25000 -0.20800
O 	O 	0.75000 0.87964 0.75000 -0.15000
