data_crystal

_cell_length_a 18.81820
_cell_length_b 18.81820
_cell_length_c 18.81820
_cell_angle_alpha 60.00000
_cell_angle_beta  60.00000
_cell_angle_gamma 60.00000

_symmetry_space_group_name_	'P 1'
_symmetry_space_group_name_H-M	'P 1'

loop_
_symmetry_equiv_pos_as_xyz
  x,y,z

loop_
_atom_site_label
_atom_site_type_symbol
_atom_site_fract_x
_atom_site_fract_y
_atom_site_fract_z
_atom_site_charge
Tb	Tb	0.75000 0.25000 0.25000 2.02800
Tb	Tb	0.75000 0.25000 0.75000 2.04700
Tb	Tb	0.75000 0.75000 0.25000 2.04700
Tb	Tb	0.25000 0.25000 0.25000 2.00500
Tb	Tb	0.25000 0.75000 0.75000 2.04400
Tb	Tb	0.25000 0.75000 0.25000 2.02400
Tb	Tb	0.25000 0.25000 0.75000 2.02400
Tb	Tb	0.75000 0.75000 0.75000 2.06300
Ca	Ca	0.50000 0.50000 0.50000 1.52400
Ca	Ca	0.00000 0.00000 0.50000 1.45300
Ca	Ca	-0.00000 0.50000 -0.00000 1.45300
Ca	Ca	0.00000 0.50000 0.50000 1.48900
Ca	Ca	0.50000 0.50000 -0.00000 1.49000
Ca	Ca	-0.00000 0.00000 -0.00000 1.41800
Ca	Ca	0.50000 0.00000 0.50000 1.49000
Ca	Ca	0.50000 0.00000 -0.00000 1.45400
H 	H 	0.51620 0.41540 0.34520 0.11100
H 	H 	0.57500 0.47400 0.29520 0.10700
H 	H 	0.91540 0.01620 0.72320 0.09300
H 	H 	0.97400 0.07500 0.65580 0.14600
H 	H 	0.84520 0.72320 0.01620 0.05800
H 	H 	0.79520 0.65580 0.07500 0.05500
H 	H 	0.22320 0.34520 0.41540 0.10900
H 	H 	0.15580 0.29520 0.47400 0.07900
H 	H 	0.51620 0.34520 0.72320 0.12000
H 	H 	0.57500 0.29520 0.65580 0.10900
H 	H 	0.91540 0.72320 0.34520 0.18500
H 	H 	0.97400 0.65580 0.29520 0.20300
H 	H 	0.84520 0.01620 0.41540 0.04900
H 	H 	0.79520 0.07500 0.47400 0.05300
H 	H 	0.22320 0.41540 0.01620 0.01200
H 	H 	0.15580 0.47400 0.07500 0.01900
H 	H 	0.51620 0.72320 0.41540 0.12200
H 	H 	0.57500 0.65580 0.47400 0.11600
H 	H 	0.91540 0.34520 0.01620 0.08200
H 	H 	0.97400 0.29520 0.07500 0.13700
H 	H 	0.84520 0.41540 0.72320 0.15100
H 	H 	0.79520 0.47400 0.65580 0.11900
H 	H 	0.22320 0.01620 0.34520 0.01000
H 	H 	0.15580 0.07500 0.29520 0.01000
H 	H 	0.58460 0.48380 0.15480 0.08600
H 	H 	0.52600 0.42500 0.20480 0.10800
H 	H 	0.98380 0.08460 0.77680 0.15200
H 	H 	0.92500 0.02600 0.84420 0.11600
H 	H 	0.27680 0.15480 0.48380 0.07500
H 	H 	0.34420 0.20480 0.42500 0.10600
H 	H 	0.65480 0.77680 0.08460 0.05600
H 	H 	0.70480 0.84420 0.02600 0.05700
H 	H 	0.65480 0.48380 0.77680 0.11800
H 	H 	0.70480 0.42500 0.84420 0.14500
H 	H 	0.27680 0.08460 0.15480 0.00800
H 	H 	0.34420 0.02600 0.20480 0.01200
H 	H 	0.98380 0.15480 0.08460 0.12300
H 	H 	0.92500 0.20480 0.02600 0.08700
H 	H 	0.58460 0.77680 0.48380 0.11600
H 	H 	0.52600 0.84420 0.42500 0.13800
H 	H 	0.27680 0.48380 0.08460 0.04100
H 	H 	0.34420 0.42500 0.02600 0.01600
H 	H 	0.65480 0.08460 0.48380 0.05400
H 	H 	0.70480 0.02600 0.42500 0.02900
H 	H 	0.58460 0.15480 0.77680 0.08800
H 	H 	0.52600 0.20480 0.84420 0.13500
H 	H 	0.98380 0.77680 0.15480 0.18600
H 	H 	0.92500 0.84420 0.20480 0.20200
H 	H 	0.48380 0.58460 0.65480 0.11600
H 	H 	0.42500 0.52600 0.70480 0.12000
H 	H 	0.08460 0.98380 0.27680 0.13900
H 	H 	0.02600 0.92500 0.34420 0.08500
H 	H 	0.15480 0.27680 0.98380 0.17400
H 	H 	0.20480 0.34420 0.92500 0.17600
H 	H 	0.77680 0.65480 0.58460 0.11800
H 	H 	0.84420 0.70480 0.52600 0.14600
H 	H 	0.48380 0.65480 0.27680 0.10700
H 	H 	0.42500 0.70480 0.34420 0.11800
H 	H 	0.08460 0.27680 0.65480 0.04100
H 	H 	0.02600 0.34420 0.70480 0.02400
H 	H 	0.15480 0.98380 0.58460 0.18300
H 	H 	0.20480 0.92500 0.52600 0.17800
H 	H 	0.77680 0.58460 0.98380 0.20900
H 	H 	0.84420 0.52600 0.92500 0.20300
H 	H 	0.48380 0.27680 0.58460 0.10600
H 	H 	0.42500 0.34420 0.52600 0.11000
H 	H 	0.08460 0.65480 0.98380 0.14900
H 	H 	0.02600 0.70480 0.92500 0.09500
H 	H 	0.15480 0.58460 0.27680 0.07500
H 	H 	0.20480 0.52600 0.34420 0.10600
H 	H 	0.77680 0.98380 0.65480 0.20900
H 	H 	0.84420 0.92500 0.70480 0.20700
H 	H 	0.41540 0.51620 0.84520 0.14200
H 	H 	0.47400 0.57500 0.79520 0.11800
H 	H 	0.01620 0.91540 0.22320 0.07700
H 	H 	0.07500 0.97400 0.15580 0.11400
H 	H 	0.72320 0.84520 0.51620 0.15000
H 	H 	0.65580 0.79520 0.57500 0.12000
H 	H 	0.34520 0.22320 0.91540 0.17500
H 	H 	0.29520 0.15580 0.97400 0.17600
H 	H 	0.34520 0.51620 0.22320 0.10800
H 	H 	0.29520 0.57500 0.15580 0.08100
H 	H 	0.72320 0.91540 0.84520 0.20800
H 	H 	0.65580 0.97400 0.79520 0.20700
H 	H 	0.01620 0.84520 0.91540 0.10800
H 	H 	0.07500 0.79520 0.97400 0.14200
H 	H 	0.41540 0.22320 0.51620 0.11000
H 	H 	0.47400 0.15580 0.57500 0.08900
H 	H 	0.72320 0.51620 0.91540 0.18400
H 	H 	0.65580 0.57500 0.97400 0.20700
H 	H 	0.34520 0.91540 0.51620 0.17600
H 	H 	0.29520 0.97400 0.57500 0.20000
H 	H 	0.41540 0.84520 0.22320 0.14100
H 	H 	0.47400 0.79520 0.15580 0.09300
H 	H 	0.01620 0.22320 0.84520 0.04200
H 	H 	0.07500 0.15580 0.79520 0.02400
C 	C 	0.57596 0.41464 0.31822 -0.26200
C 	C 	0.62040 0.36086 0.38470 0.46700
C 	C 	0.91464 0.07596 0.69118 -0.27500
C 	C 	0.86086 0.12040 0.63404 0.47200
C 	C 	0.81822 0.69118 0.07596 -0.19800
C 	C 	0.88470 0.63404 0.12040 0.43100
C 	C 	0.19118 0.31822 0.41464 -0.26000
C 	C 	0.13404 0.38470 0.36086 0.46400
C 	C 	0.57596 0.31822 0.69118 -0.26800
C 	C 	0.62040 0.38470 0.63404 0.47100
C 	C 	0.91464 0.69118 0.31822 -0.34500
C 	C 	0.86086 0.63404 0.38470 0.51000
C 	C 	0.81822 0.07596 0.41464 -0.19200
C 	C 	0.88470 0.12040 0.36086 0.42700
C 	C 	0.19118 0.41464 0.07596 -0.18700
C 	C 	0.13404 0.36086 0.12040 0.42400
C 	C 	0.57596 0.69118 0.41464 -0.27400
C 	C 	0.62040 0.63404 0.36086 0.47400
C 	C 	0.91464 0.31822 0.07596 -0.26300
C 	C 	0.86086 0.38470 0.12040 0.46500
C 	C 	0.81822 0.41464 0.69118 -0.27300
C 	C 	0.88470 0.36086 0.63404 0.47200
C 	C 	0.19118 0.07596 0.31822 -0.18000
C 	C 	0.13404 0.12040 0.38470 0.42000
C 	C 	0.58536 0.42404 0.18178 -0.26700
C 	C 	0.63914 0.37960 0.11530 0.46700
C 	C 	0.92404 0.08536 0.80882 -0.26900
C 	C 	0.87960 0.13914 0.86596 0.46900
C 	C 	0.30882 0.18178 0.42404 -0.26000
C 	C 	0.36596 0.11530 0.37960 0.46200
C 	C 	0.68178 0.80882 0.08536 -0.19800
C 	C 	0.61530 0.86596 0.13914 0.43200
C 	C 	0.68178 0.42404 0.80882 -0.27300
C 	C 	0.61530 0.37960 0.86596 0.47100
C 	C 	0.30882 0.08536 0.18178 -0.17900
C 	C 	0.36596 0.13914 0.11530 0.42100
C 	C 	0.92404 0.18178 0.08536 -0.26700
C 	C 	0.87960 0.11530 0.13914 0.46700
C 	C 	0.58536 0.80882 0.42404 -0.26800
C 	C 	0.63914 0.86596 0.37960 0.46900
C 	C 	0.30882 0.42404 0.08536 -0.18300
C 	C 	0.36596 0.37960 0.13914 0.42300
C 	C 	0.68178 0.08536 0.42404 -0.19800
C 	C 	0.61530 0.13914 0.37960 0.43200
C 	C 	0.58536 0.18178 0.80882 -0.26600
C 	C 	0.63914 0.11530 0.86596 0.46800
C 	C 	0.92404 0.80882 0.18178 -0.34200
C 	C 	0.87960 0.86596 0.11530 0.50700
C 	C 	0.42404 0.58536 0.68178 -0.27400
C 	C 	0.37960 0.63914 0.61530 0.47300
C 	C 	0.08536 0.92404 0.30882 -0.25900
C 	C 	0.13914 0.87960 0.36596 0.46500
C 	C 	0.18178 0.30882 0.92404 -0.33700
C 	C 	0.11530 0.36596 0.87960 0.50400
C 	C 	0.80882 0.68178 0.58536 -0.27300
C 	C 	0.86596 0.61530 0.63914 0.47200
C 	C 	0.42404 0.68178 0.30882 -0.26800
C 	C 	0.37960 0.61530 0.36596 0.46900
C 	C 	0.08536 0.30882 0.68178 -0.18700
C 	C 	0.13914 0.36596 0.61530 0.42700
C 	C 	0.18178 0.92404 0.58536 -0.34200
C 	C 	0.11530 0.87960 0.63914 0.50700
C 	C 	0.80882 0.58536 0.92404 -0.34000
C 	C 	0.86596 0.63914 0.87960 0.50800
C 	C 	0.42404 0.30882 0.58536 -0.26200
C 	C 	0.37960 0.36596 0.63914 0.46600
C 	C 	0.08536 0.68178 0.92404 -0.27000
C 	C 	0.13914 0.61530 0.87960 0.47100
C 	C 	0.18178 0.58536 0.30882 -0.25900
C 	C 	0.11530 0.63914 0.36596 0.46400
C 	C 	0.80882 0.92404 0.68178 -0.34200
C 	C 	0.86596 0.87960 0.61530 0.50900
C 	C 	0.41464 0.57596 0.81822 -0.26700
C 	C 	0.36086 0.62040 0.88470 0.47000
C 	C 	0.07596 0.91464 0.19118 -0.26300
C 	C 	0.12040 0.86086 0.13404 0.46300
C 	C 	0.69118 0.81822 0.57596 -0.27300
C 	C 	0.63404 0.88470 0.62040 0.47300
C 	C 	0.31822 0.19118 0.91464 -0.33700
C 	C 	0.38470 0.13404 0.86086 0.50300
C 	C 	0.31822 0.57596 0.19118 -0.25900
C 	C 	0.38470 0.62040 0.13404 0.46500
C 	C 	0.69118 0.91464 0.81822 -0.34300
C 	C 	0.63404 0.86086 0.88470 0.50800
C 	C 	0.07596 0.81822 0.91464 -0.26400
C 	C 	0.12040 0.88470 0.86086 0.46400
C 	C 	0.41464 0.19118 0.57596 -0.26600
C 	C 	0.36086 0.13404 0.62040 0.46900
C 	C 	0.69118 0.57596 0.91464 -0.34700
C 	C 	0.63404 0.62040 0.86086 0.51200
C 	C 	0.31822 0.91464 0.57596 -0.33800
C 	C 	0.38470 0.86086 0.62040 0.50600
C 	C 	0.41464 0.81822 0.19118 -0.26600
C 	C 	0.36086 0.88470 0.13404 0.46700
C 	C 	0.07596 0.19118 0.81822 -0.18500
C 	C 	0.12040 0.13404 0.88470 0.42300
O 	O 	0.68638 0.29618 0.37230 -0.44700
O 	O 	0.58905 0.38255 0.44969 -0.46200
O 	O 	0.79618 0.18638 0.64514 -0.45600
O 	O 	0.88255 0.08905 0.57871 -0.47100
O 	O 	0.87230 0.64514 0.18638 -0.41700
O 	O 	0.94969 0.57871 0.08905 -0.40400
O 	O 	0.14514 0.37230 0.29618 -0.48700
O 	O 	0.07871 0.44969 0.38255 -0.54500
O 	O 	0.68638 0.37230 0.64514 -0.44800
O 	O 	0.58905 0.44969 0.57871 -0.46100
O 	O 	0.79618 0.64514 0.37230 -0.45300
O 	O 	0.88255 0.57871 0.44969 -0.41800
O 	O 	0.87230 0.18638 0.29618 -0.41600
O 	O 	0.94969 0.08905 0.38255 -0.40500
O 	O 	0.14514 0.29618 0.18638 -0.49100
O 	O 	0.07871 0.38255 0.08905 -0.60400
O 	O 	0.68638 0.64514 0.29618 -0.45000
O 	O 	0.58905 0.57871 0.38255 -0.46300
O 	O 	0.79618 0.37230 0.18638 -0.45300
O 	O 	0.88255 0.44969 0.08905 -0.47000
O 	O 	0.87230 0.29618 0.64514 -0.41600
O 	O 	0.94969 0.38255 0.57871 -0.35300
O 	O 	0.14514 0.18638 0.37230 -0.48700
O 	O 	0.07871 0.08905 0.44969 -0.60000
O 	O 	0.70382 0.31362 0.12770 -0.49000
O 	O 	0.61745 0.41095 0.05031 -0.56200
O 	O 	0.81362 0.20382 0.85486 -0.41200
O 	O 	0.91095 0.11745 0.92129 -0.34200
O 	O 	0.35486 0.12770 0.31362 -0.49000
O 	O 	0.42129 0.05031 0.41095 -0.56500
O 	O 	0.62770 0.85486 0.20382 -0.41500
O 	O 	0.55031 0.92129 0.11745 -0.40700
O 	O 	0.62770 0.31362 0.85486 -0.42100
O 	O 	0.55031 0.41095 0.92129 -0.37800
O 	O 	0.35486 0.20382 0.12770 -0.48400
O 	O 	0.42129 0.11745 0.05031 -0.59700
O 	O 	0.81362 0.12770 0.20382 -0.48200
O 	O 	0.91095 0.05031 0.11745 -0.52600
O 	O 	0.70382 0.85486 0.31362 -0.41900
O 	O 	0.61745 0.92129 0.41095 -0.37600
O 	O 	0.35486 0.31362 0.20382 -0.45200
O 	O 	0.42129 0.41095 0.11745 -0.49900
O 	O 	0.62770 0.20382 0.31362 -0.45500
O 	O 	0.55031 0.11745 0.41095 -0.50000
O 	O 	0.70382 0.12770 0.85486 -0.45000
O 	O 	0.61745 0.05031 0.92129 -0.46800
O 	O 	0.81362 0.85486 0.12770 -0.44900
O 	O 	0.91095 0.92129 0.05031 -0.40600
O 	O 	0.31362 0.70382 0.62770 -0.45500
O 	O 	0.41095 0.61745 0.55031 -0.46500
O 	O 	0.20382 0.81362 0.35486 -0.44400
O 	O 	0.11745 0.91095 0.42129 -0.42800
O 	O 	0.12770 0.35486 0.81362 -0.48200
O 	O 	0.05031 0.42129 0.91095 -0.49500
O 	O 	0.85486 0.62770 0.70382 -0.41600
O 	O 	0.92129 0.55031 0.61745 -0.37200
O 	O 	0.31362 0.62770 0.35486 -0.45500
O 	O 	0.41095 0.55031 0.42129 -0.46600
O 	O 	0.20382 0.35486 0.62770 -0.44800
O 	O 	0.11745 0.42129 0.55031 -0.49700
O 	O 	0.12770 0.81362 0.70382 -0.48200
O 	O 	0.05031 0.91095 0.61745 -0.49300
O 	O 	0.85486 0.70382 0.81362 -0.41300
O 	O 	0.92129 0.61745 0.91095 -0.31400
O 	O 	0.31362 0.35486 0.70382 -0.45200
O 	O 	0.41095 0.42129 0.61745 -0.46300
O 	O 	0.20382 0.62770 0.81362 -0.44700
O 	O 	0.11745 0.55031 0.91095 -0.42900
O 	O 	0.12770 0.70382 0.35486 -0.48400
O 	O 	0.05031 0.61745 0.42129 -0.56100
O 	O 	0.85486 0.81362 0.62770 -0.41400
O 	O 	0.92129 0.91095 0.55031 -0.31400
O 	O 	0.29618 0.68638 0.87230 -0.41100
O 	O 	0.38255 0.58905 0.94969 -0.35200
O 	O 	0.18638 0.79618 0.14514 -0.48800
O 	O 	0.08905 0.88255 0.07871 -0.55200
O 	O 	0.64514 0.87230 0.68638 -0.41200
O 	O 	0.57871 0.94969 0.58905 -0.35300
O 	O 	0.37230 0.14514 0.79618 -0.48400
O 	O 	0.44969 0.07871 0.88255 -0.49300
O 	O 	0.37230 0.68638 0.14514 -0.47900
O 	O 	0.44969 0.58905 0.07871 -0.53600
O 	O 	0.64514 0.79618 0.87230 -0.41800
O 	O 	0.57871 0.88255 0.94969 -0.31700
O 	O 	0.18638 0.87230 0.79618 -0.41700
O 	O 	0.08905 0.94969 0.88255 -0.36700
O 	O 	0.29618 0.14514 0.68638 -0.48200
O 	O 	0.38255 0.07871 0.58905 -0.54000
O 	O 	0.64514 0.68638 0.79618 -0.45000
O 	O 	0.57871 0.58905 0.88255 -0.41700
O 	O 	0.37230 0.79618 0.68638 -0.44700
O 	O 	0.44969 0.88255 0.58905 -0.41600
O 	O 	0.29618 0.87230 0.14514 -0.44800
O 	O 	0.38255 0.94969 0.07871 -0.42900
O 	O 	0.18638 0.14514 0.87230 -0.44900
O 	O 	0.08905 0.07871 0.94969 -0.48500
O 	O 	0.61970 0.38030 0.25000 -0.22100
O 	O 	0.88030 0.11970 0.75000 -0.20800
O 	O 	0.75000 0.75000 0.11970 -0.24800
O 	O 	0.25000 0.25000 0.38030 -0.22700
O 	O 	0.61970 0.25000 0.75000 -0.21600
O 	O 	0.88030 0.75000 0.25000 -0.17100
O 	O 	0.75000 0.11970 0.38030 -0.25300
O 	O 	0.25000 0.38030 0.11970 -0.26600
O 	O 	0.61970 0.75000 0.38030 -0.21000
O 	O 	0.88030 0.25000 0.11970 -0.21900
O 	O 	0.75000 0.38030 0.75000 -0.20400
O 	O 	0.25000 0.11970 0.25000 -0.27400
O 	O 	0.38030 0.61970 0.75000 -0.20900
O 	O 	0.11970 0.88030 0.25000 -0.22100
O 	O 	0.25000 0.25000 0.88030 -0.18100
O 	O 	0.75000 0.75000 0.61970 -0.20500
O 	O 	0.38030 0.75000 0.25000 -0.21300
O 	O 	0.11970 0.25000 0.75000 -0.26100
O 	O 	0.25000 0.88030 0.61970 -0.17600
O 	O 	0.75000 0.61970 0.88030 -0.16700
O 	O 	0.38030 0.25000 0.61970 -0.22000
O 	O 	0.11970 0.75000 0.88030 -0.21000
O 	O 	0.25000 0.61970 0.25000 -0.22700
O 	O 	0.75000 0.88030 0.75000 -0.16300
