data_crystal

_cell_length_a 18.74470
_cell_length_b 18.74470
_cell_length_c 18.74470
_cell_angle_alpha 60.00000
_cell_angle_beta  60.00000
_cell_angle_gamma 60.00000

_symmetry_space_group_name_	'P 1'
_symmetry_space_group_name_H-M	'P 1'

loop_
_symmetry_equiv_pos_as_xyz
  x,y,z

loop_
_atom_site_label
_atom_site_type_symbol
_atom_site_fract_x
_atom_site_fract_y
_atom_site_fract_z
_atom_site_charge
Ca	Ca	0.50000 0.50000 0.50000 1.52500
Ca	Ca	-0.00000 0.00000 0.50000 1.45300
Ca	Ca	-0.00000 0.50000 -0.00000 1.45300
Ca	Ca	-0.00000 0.50000 0.50000 1.48800
Ca	Ca	0.50000 0.50000 -0.00000 1.48900
Ca	Ca	-0.00000 0.00000 -0.00000 1.41700
Ca	Ca	0.50000 0.00000 0.50000 1.48900
Ca	Ca	0.50000 0.00000 -0.00000 1.45400
Y 	Y 	0.75000 0.25000 0.25000 2.39800
Y 	Y 	0.75000 0.25000 0.75000 2.39800
Y 	Y 	0.75000 0.75000 0.25000 2.39800
Y 	Y 	0.25000 0.25000 0.25000 2.39700
Y 	Y 	0.25000 0.75000 0.75000 2.39800
Y 	Y 	0.25000 0.75000 0.25000 2.39700
Y 	Y 	0.25000 0.25000 0.75000 2.39700
Y 	Y 	0.75000 0.75000 0.75000 2.39900
H 	H 	0.51630 0.41550 0.34530 0.13200
H 	H 	0.57570 0.47390 0.29530 0.12800
H 	H 	0.91550 0.01630 0.72290 0.11600
H 	H 	0.97390 0.07570 0.65510 0.16800
H 	H 	0.84530 0.72290 0.01630 0.07900
H 	H 	0.79530 0.65510 0.07570 0.07700
H 	H 	0.22290 0.34530 0.41550 0.13000
H 	H 	0.15510 0.29530 0.47390 0.10000
H 	H 	0.51630 0.34530 0.72290 0.14200
H 	H 	0.57570 0.29530 0.65510 0.13100
H 	H 	0.91550 0.72290 0.34530 0.20800
H 	H 	0.97390 0.65510 0.29530 0.22700
H 	H 	0.84530 0.01630 0.41550 0.06900
H 	H 	0.79530 0.07570 0.47390 0.07500
H 	H 	0.22290 0.41550 0.01630 0.03300
H 	H 	0.15510 0.47390 0.07570 0.03900
H 	H 	0.51630 0.72290 0.41550 0.14400
H 	H 	0.57570 0.65510 0.47390 0.13800
H 	H 	0.91550 0.34530 0.01630 0.10400
H 	H 	0.97390 0.29530 0.07570 0.15900
H 	H 	0.84530 0.41550 0.72290 0.17300
H 	H 	0.79530 0.47390 0.65510 0.14100
H 	H 	0.22290 0.01630 0.34530 0.03000
H 	H 	0.15510 0.07570 0.29530 0.03000
H 	H 	0.58450 0.48370 0.15470 0.10800
H 	H 	0.52610 0.42430 0.20470 0.13000
H 	H 	0.98370 0.08450 0.77710 0.17500
H 	H 	0.92430 0.02610 0.84490 0.13800
H 	H 	0.27710 0.15470 0.48370 0.09700
H 	H 	0.34490 0.20470 0.42430 0.12700
H 	H 	0.65470 0.77710 0.08450 0.07700
H 	H 	0.70470 0.84490 0.02610 0.07900
H 	H 	0.65470 0.48370 0.77710 0.14000
H 	H 	0.70470 0.42430 0.84490 0.16800
H 	H 	0.27710 0.08450 0.15470 0.02900
H 	H 	0.34490 0.02610 0.20470 0.03200
H 	H 	0.98370 0.15470 0.08450 0.14400
H 	H 	0.92430 0.20470 0.02610 0.10800
H 	H 	0.58450 0.77710 0.48370 0.13900
H 	H 	0.52610 0.84490 0.42430 0.16100
H 	H 	0.27710 0.48370 0.08450 0.06100
H 	H 	0.34490 0.42430 0.02610 0.03700
H 	H 	0.65470 0.08450 0.48370 0.07400
H 	H 	0.70470 0.02610 0.42430 0.04900
H 	H 	0.58450 0.15470 0.77710 0.11000
H 	H 	0.52610 0.20470 0.84490 0.15800
H 	H 	0.98370 0.77710 0.15470 0.20900
H 	H 	0.92430 0.84490 0.20470 0.22600
H 	H 	0.48370 0.58450 0.65470 0.13800
H 	H 	0.42430 0.52610 0.70470 0.14200
H 	H 	0.08450 0.98370 0.27710 0.16100
H 	H 	0.02610 0.92430 0.34490 0.10600
H 	H 	0.15470 0.27710 0.98370 0.19700
H 	H 	0.20470 0.34490 0.92430 0.19800
H 	H 	0.77710 0.65470 0.58450 0.14000
H 	H 	0.84490 0.70470 0.52610 0.16900
H 	H 	0.48370 0.65470 0.27710 0.12900
H 	H 	0.42430 0.70470 0.34490 0.14000
H 	H 	0.08450 0.27710 0.65470 0.06100
H 	H 	0.02610 0.34490 0.70470 0.04400
H 	H 	0.15470 0.98370 0.58450 0.20600
H 	H 	0.20470 0.92430 0.52610 0.20000
H 	H 	0.77710 0.58450 0.98370 0.23200
H 	H 	0.84490 0.52610 0.92430 0.22700
H 	H 	0.48370 0.27710 0.58450 0.12700
H 	H 	0.42430 0.34490 0.52610 0.13200
H 	H 	0.08450 0.65470 0.98370 0.17100
H 	H 	0.02610 0.70470 0.92430 0.11600
H 	H 	0.15470 0.58450 0.27710 0.09600
H 	H 	0.20470 0.52610 0.34490 0.12800
H 	H 	0.77710 0.98370 0.65470 0.23200
H 	H 	0.84490 0.92430 0.70470 0.23000
H 	H 	0.41550 0.51630 0.84530 0.16400
H 	H 	0.47390 0.57570 0.79530 0.14000
H 	H 	0.01630 0.91550 0.22290 0.09900
H 	H 	0.07570 0.97390 0.15510 0.13600
H 	H 	0.72290 0.84530 0.51630 0.17200
H 	H 	0.65510 0.79530 0.57570 0.14200
H 	H 	0.34530 0.22290 0.91550 0.19800
H 	H 	0.29530 0.15510 0.97390 0.19800
H 	H 	0.34530 0.51630 0.22290 0.13000
H 	H 	0.29530 0.57570 0.15510 0.10200
H 	H 	0.72290 0.91550 0.84530 0.23100
H 	H 	0.65510 0.97390 0.79530 0.23000
H 	H 	0.01630 0.84530 0.91550 0.13000
H 	H 	0.07570 0.79530 0.97390 0.16500
H 	H 	0.41550 0.22290 0.51630 0.13200
H 	H 	0.47390 0.15510 0.57570 0.11000
H 	H 	0.72290 0.51630 0.91550 0.20800
H 	H 	0.65510 0.57570 0.97390 0.23100
H 	H 	0.34530 0.91550 0.51630 0.19900
H 	H 	0.29530 0.97390 0.57570 0.22400
H 	H 	0.41550 0.84530 0.22290 0.16300
H 	H 	0.47390 0.79530 0.15510 0.11400
H 	H 	0.01630 0.22290 0.84530 0.06200
H 	H 	0.07570 0.15510 0.79530 0.04400
C 	C 	0.57643 0.41437 0.31837 -0.31500
C 	C 	0.62093 0.36025 0.38457 0.47600
C 	C 	0.91437 0.07643 0.69083 -0.33000
C 	C 	0.86025 0.12093 0.63425 0.48100
C 	C 	0.81837 0.69083 0.07643 -0.25000
C 	C 	0.88457 0.63425 0.12093 0.43800
C 	C 	0.19083 0.31837 0.41437 -0.31200
C 	C 	0.13425 0.38457 0.36025 0.47200
C 	C 	0.57643 0.31837 0.69083 -0.32200
C 	C 	0.62093 0.38457 0.63425 0.48000
C 	C 	0.91437 0.69083 0.31837 -0.40100
C 	C 	0.86025 0.63425 0.38457 0.52000
C 	C 	0.81837 0.07643 0.41437 -0.24300
C 	C 	0.88457 0.12093 0.36025 0.43400
C 	C 	0.19083 0.41437 0.07643 -0.23700
C 	C 	0.13425 0.36025 0.12093 0.43200
C 	C 	0.57643 0.69083 0.41437 -0.32700
C 	C 	0.62093 0.63425 0.36025 0.48300
C 	C 	0.91437 0.31837 0.07643 -0.31700
C 	C 	0.86025 0.38457 0.12093 0.47400
C 	C 	0.81837 0.41437 0.69083 -0.32600
C 	C 	0.88457 0.36025 0.63425 0.48000
C 	C 	0.19083 0.07643 0.31837 -0.23000
C 	C 	0.13425 0.12093 0.38457 0.42800
C 	C 	0.58563 0.42357 0.18163 -0.32000
C 	C 	0.63975 0.37907 0.11543 0.47600
C 	C 	0.92357 0.08563 0.80917 -0.32200
C 	C 	0.87907 0.13975 0.86575 0.47700
C 	C 	0.30917 0.18163 0.42357 -0.31200
C 	C 	0.36575 0.11543 0.37907 0.47200
C 	C 	0.68163 0.80917 0.08563 -0.25000
C 	C 	0.61543 0.86575 0.13975 0.43900
C 	C 	0.68163 0.42357 0.80917 -0.32700
C 	C 	0.61543 0.37907 0.86575 0.48000
C 	C 	0.30917 0.08563 0.18163 -0.22900
C 	C 	0.36575 0.13975 0.11543 0.42800
C 	C 	0.92357 0.18163 0.08563 -0.32000
C 	C 	0.87907 0.11543 0.13975 0.47600
C 	C 	0.58563 0.80917 0.42357 -0.32300
C 	C 	0.63975 0.86575 0.37907 0.47800
C 	C 	0.30917 0.42357 0.08563 -0.23300
C 	C 	0.36575 0.37907 0.13975 0.43100
C 	C 	0.68163 0.08563 0.42357 -0.24900
C 	C 	0.61543 0.13975 0.37907 0.43900
C 	C 	0.58563 0.18163 0.80917 -0.32100
C 	C 	0.63975 0.11543 0.86575 0.47700
C 	C 	0.92357 0.80917 0.18163 -0.39800
C 	C 	0.87907 0.86575 0.11543 0.51700
C 	C 	0.42357 0.58563 0.68163 -0.32700
C 	C 	0.37907 0.63975 0.61543 0.48100
C 	C 	0.08563 0.92357 0.30917 -0.31100
C 	C 	0.13975 0.87907 0.36575 0.47200
C 	C 	0.18163 0.30917 0.92357 -0.39100
C 	C 	0.11543 0.36575 0.87907 0.51300
C 	C 	0.80917 0.68163 0.58563 -0.32700
C 	C 	0.86575 0.61543 0.63975 0.48100
C 	C 	0.42357 0.68163 0.30917 -0.32100
C 	C 	0.37907 0.61543 0.36575 0.47700
C 	C 	0.08563 0.30917 0.68163 -0.23800
C 	C 	0.13975 0.36575 0.61543 0.43400
C 	C 	0.18163 0.92357 0.58563 -0.39800
C 	C 	0.11543 0.87907 0.63975 0.51700
C 	C 	0.80917 0.58563 0.92357 -0.39700
C 	C 	0.86575 0.63975 0.87907 0.51700
C 	C 	0.42357 0.30917 0.58563 -0.31500
C 	C 	0.37907 0.36575 0.63975 0.47400
C 	C 	0.08563 0.68163 0.92357 -0.32300
C 	C 	0.13975 0.61543 0.87907 0.47900
C 	C 	0.18163 0.58563 0.30917 -0.31200
C 	C 	0.11543 0.63975 0.36575 0.47300
C 	C 	0.80917 0.92357 0.68163 -0.39800
C 	C 	0.86575 0.87907 0.61543 0.51800
C 	C 	0.41437 0.57643 0.81837 -0.32000
C 	C 	0.36025 0.62093 0.88457 0.47800
C 	C 	0.07643 0.91437 0.19083 -0.31600
C 	C 	0.12093 0.86025 0.13425 0.47200
C 	C 	0.69083 0.81837 0.57643 -0.32700
C 	C 	0.63425 0.88457 0.62093 0.48100
C 	C 	0.31837 0.19083 0.91437 -0.39200
C 	C 	0.38457 0.13425 0.86025 0.51300
C 	C 	0.31837 0.57643 0.19083 -0.31100
C 	C 	0.38457 0.62093 0.13425 0.47300
C 	C 	0.69083 0.91437 0.81837 -0.39900
C 	C 	0.63425 0.86025 0.88457 0.51800
C 	C 	0.07643 0.81837 0.91437 -0.31700
C 	C 	0.12093 0.88457 0.86025 0.47300
C 	C 	0.41437 0.19083 0.57643 -0.31800
C 	C 	0.36025 0.13425 0.62093 0.47700
C 	C 	0.69083 0.57643 0.91437 -0.40300
C 	C 	0.63425 0.62093 0.86025 0.52200
C 	C 	0.31837 0.91437 0.57643 -0.39400
C 	C 	0.38457 0.86025 0.62093 0.51600
C 	C 	0.41437 0.81837 0.19083 -0.31800
C 	C 	0.36025 0.88457 0.13425 0.47500
C 	C 	0.07643 0.19083 0.81837 -0.23600
C 	C 	0.12093 0.13425 0.88457 0.43000
O 	O 	0.68714 0.29528 0.37182 -0.50000
O 	O 	0.58944 0.38116 0.45050 -0.45800
O 	O 	0.79528 0.18714 0.64576 -0.50700
O 	O 	0.88116 0.08944 0.57890 -0.46800
O 	O 	0.87182 0.64576 0.18714 -0.46800
O 	O 	0.95050 0.57890 0.08944 -0.39900
O 	O 	0.14576 0.37182 0.29528 -0.54200
O 	O 	0.07890 0.45050 0.38116 -0.54200
O 	O 	0.68714 0.37182 0.64576 -0.49900
O 	O 	0.58944 0.45050 0.57890 -0.45700
O 	O 	0.79528 0.64576 0.37182 -0.50500
O 	O 	0.88116 0.57890 0.45050 -0.41500
O 	O 	0.87182 0.18714 0.29528 -0.46900
O 	O 	0.95050 0.08944 0.38116 -0.40000
O 	O 	0.14576 0.29528 0.18714 -0.54500
O 	O 	0.07890 0.38116 0.08944 -0.60100
O 	O 	0.68714 0.64576 0.29528 -0.50100
O 	O 	0.58944 0.57890 0.38116 -0.45900
O 	O 	0.79528 0.37182 0.18714 -0.50600
O 	O 	0.88116 0.45050 0.08944 -0.46700
O 	O 	0.87182 0.29528 0.64576 -0.46700
O 	O 	0.95050 0.38116 0.57890 -0.34700
O 	O 	0.14576 0.18714 0.37182 -0.54200
O 	O 	0.07890 0.08944 0.45050 -0.59700
O 	O 	0.70472 0.31286 0.12818 -0.54300
O 	O 	0.61884 0.41056 0.04950 -0.55900
O 	O 	0.81286 0.20472 0.85424 -0.46300
O 	O 	0.91056 0.11884 0.92110 -0.33700
O 	O 	0.35424 0.12818 0.31286 -0.54500
O 	O 	0.42110 0.04950 0.41056 -0.56300
O 	O 	0.62818 0.85424 0.20472 -0.46600
O 	O 	0.54950 0.92110 0.11884 -0.40100
O 	O 	0.62818 0.31286 0.85424 -0.47300
O 	O 	0.54950 0.41056 0.92110 -0.37300
O 	O 	0.35424 0.20472 0.12818 -0.53800
O 	O 	0.42110 0.11884 0.04950 -0.59400
O 	O 	0.81286 0.12818 0.20472 -0.53500
O 	O 	0.91056 0.04950 0.11884 -0.52200
O 	O 	0.70472 0.85424 0.31286 -0.47100
O 	O 	0.61884 0.92110 0.41056 -0.37200
O 	O 	0.35424 0.31286 0.20472 -0.50600
O 	O 	0.42110 0.41056 0.11884 -0.49500
O 	O 	0.62818 0.20472 0.31286 -0.50800
O 	O 	0.54950 0.11884 0.41056 -0.49600
O 	O 	0.70472 0.12818 0.85424 -0.50100
O 	O 	0.61884 0.04950 0.92110 -0.46500
O 	O 	0.81286 0.85424 0.12818 -0.50000
O 	O 	0.91056 0.92110 0.04950 -0.40200
O 	O 	0.31286 0.70472 0.62818 -0.50600
O 	O 	0.41056 0.61884 0.54950 -0.46000
O 	O 	0.20472 0.81286 0.35424 -0.49700
O 	O 	0.11884 0.91056 0.42110 -0.42300
O 	O 	0.12818 0.35424 0.81286 -0.53600
O 	O 	0.04950 0.42110 0.91056 -0.49200
O 	O 	0.85424 0.62818 0.70472 -0.46500
O 	O 	0.92110 0.54950 0.61884 -0.36700
O 	O 	0.31286 0.62818 0.35424 -0.50800
O 	O 	0.41056 0.54950 0.42110 -0.46200
O 	O 	0.20472 0.35424 0.62818 -0.50100
O 	O 	0.11884 0.42110 0.54950 -0.49200
O 	O 	0.12818 0.81286 0.70472 -0.53400
O 	O 	0.04950 0.91056 0.61884 -0.49000
O 	O 	0.85424 0.70472 0.81286 -0.46300
O 	O 	0.92110 0.61884 0.91056 -0.30900
O 	O 	0.31286 0.35424 0.70472 -0.50500
O 	O 	0.41056 0.42110 0.61884 -0.45900
O 	O 	0.20472 0.62818 0.81286 -0.49800
O 	O 	0.11884 0.54950 0.91056 -0.42400
O 	O 	0.12818 0.70472 0.35424 -0.53700
O 	O 	0.04950 0.61884 0.42110 -0.55800
O 	O 	0.85424 0.81286 0.62818 -0.46400
O 	O 	0.92110 0.91056 0.54950 -0.30900
O 	O 	0.29528 0.68714 0.87182 -0.46300
O 	O 	0.38116 0.58944 0.95050 -0.34700
O 	O 	0.18714 0.79528 0.14576 -0.54100
O 	O 	0.08944 0.88116 0.07890 -0.54900
O 	O 	0.64576 0.87182 0.68714 -0.46200
O 	O 	0.57890 0.95050 0.58944 -0.34700
O 	O 	0.37182 0.14576 0.79528 -0.53800
O 	O 	0.45050 0.07890 0.88116 -0.49000
O 	O 	0.37182 0.68714 0.14576 -0.53200
O 	O 	0.45050 0.58944 0.07890 -0.53200
O 	O 	0.64576 0.79528 0.87182 -0.46800
O 	O 	0.57890 0.88116 0.95050 -0.31200
O 	O 	0.18714 0.87182 0.79528 -0.46900
O 	O 	0.08944 0.95050 0.88116 -0.36300
O 	O 	0.29528 0.14576 0.68714 -0.53500
O 	O 	0.38116 0.07890 0.58944 -0.53600
O 	O 	0.64576 0.68714 0.79528 -0.50000
O 	O 	0.57890 0.58944 0.88116 -0.41400
O 	O 	0.37182 0.79528 0.68714 -0.49900
O 	O 	0.45050 0.88116 0.58944 -0.41200
O 	O 	0.29528 0.87182 0.14576 -0.50100
O 	O 	0.38116 0.95050 0.07890 -0.42400
O 	O 	0.18714 0.14576 0.87182 -0.50200
O 	O 	0.08944 0.07890 0.95050 -0.48000
O 	O 	0.62010 0.37990 0.25000 -0.24400
O 	O 	0.87990 0.12010 0.75000 -0.23000
O 	O 	0.75000 0.75000 0.12010 -0.27000
O 	O 	0.25000 0.25000 0.37990 -0.25200
O 	O 	0.62010 0.25000 0.75000 -0.23700
O 	O 	0.87990 0.75000 0.25000 -0.19100
O 	O 	0.75000 0.12010 0.37990 -0.27700
O 	O 	0.25000 0.37990 0.12010 -0.29300
O 	O 	0.62010 0.75000 0.37990 -0.23100
O 	O 	0.87990 0.25000 0.12010 -0.24300
O 	O 	0.75000 0.37990 0.75000 -0.22500
O 	O 	0.25000 0.12010 0.25000 -0.30000
O 	O 	0.37990 0.62010 0.75000 -0.23000
O 	O 	0.12010 0.87990 0.25000 -0.24500
O 	O 	0.25000 0.25000 0.87990 -0.20400
O 	O 	0.75000 0.75000 0.62010 -0.22400
O 	O 	0.37990 0.75000 0.25000 -0.23700
O 	O 	0.12010 0.25000 0.75000 -0.28500
O 	O 	0.25000 0.87990 0.62010 -0.19700
O 	O 	0.75000 0.62010 0.87990 -0.18600
O 	O 	0.37990 0.25000 0.62010 -0.24400
O 	O 	0.12010 0.75000 0.87990 -0.23200
O 	O 	0.25000 0.62010 0.25000 -0.25100
O 	O 	0.75000 0.87990 0.75000 -0.18200
