data_crystal

_cell_length_a 18.68740
_cell_length_b 18.68740
_cell_length_c 18.68740
_cell_angle_alpha 60.00000
_cell_angle_beta  60.00000
_cell_angle_gamma 60.00000

_symmetry_space_group_name_	'P 1'
_symmetry_space_group_name_H-M	'P 1'

loop_
_symmetry_equiv_pos_as_xyz
  x,y,z

loop_
_atom_site_label
_atom_site_type_symbol
_atom_site_fract_x
_atom_site_fract_y
_atom_site_fract_z
_atom_site_charge
Yb	Yb	0.75000 0.25000 0.75000 1.57800
Yb	Yb	0.75000 0.25000 0.25000 1.57500
Yb	Yb	0.25000 0.25000 0.25000 1.57200
Yb	Yb	0.75000 0.75000 0.25000 1.57900
Yb	Yb	0.25000 0.75000 0.25000 1.57600
Yb	Yb	0.25000 0.75000 0.75000 1.57900
Yb	Yb	0.75000 0.75000 0.75000 1.58200
Yb	Yb	0.25000 0.25000 0.75000 1.57600
Ca	Ca	0.50000 0.50000 0.50000 1.52200
Ca	Ca	-0.00000 0.00000 0.50000 1.45100
Ca	Ca	-0.00000 0.50000 -0.00000 1.45100
Ca	Ca	-0.00000 0.50000 0.50000 1.48700
Ca	Ca	0.50000 0.50000 -0.00000 1.48800
Ca	Ca	-0.00000 0.00000 -0.00000 1.41600
Ca	Ca	0.50000 0.00000 0.50000 1.48800
Ca	Ca	0.50000 0.00000 -0.00000 1.45200
H 	H 	0.51620 0.34480 0.72240 0.13900
H 	H 	0.57690 0.29470 0.65430 0.12800
H 	H 	0.84480 0.01620 0.41660 0.06600
H 	H 	0.79470 0.07690 0.47410 0.07200
H 	H 	0.22240 0.41660 0.01620 0.02900
H 	H 	0.15430 0.47410 0.07690 0.03600
H 	H 	0.91660 0.72240 0.34480 0.20600
H 	H 	0.97410 0.65430 0.29470 0.22400
H 	H 	0.51620 0.72240 0.41660 0.14100
H 	H 	0.57690 0.65430 0.47410 0.13500
H 	H 	0.84480 0.41660 0.72240 0.17000
H 	H 	0.79470 0.47410 0.65430 0.13900
H 	H 	0.22240 0.01620 0.34480 0.02600
H 	H 	0.15430 0.07690 0.29470 0.02700
H 	H 	0.91660 0.34480 0.01620 0.10200
H 	H 	0.97410 0.29470 0.07690 0.15700
H 	H 	0.51620 0.41660 0.34480 0.12900
H 	H 	0.57690 0.47410 0.29470 0.12500
H 	H 	0.84480 0.72240 0.01620 0.07600
H 	H 	0.79470 0.65430 0.07690 0.07500
H 	H 	0.22240 0.34480 0.41660 0.12700
H 	H 	0.15430 0.29470 0.47410 0.09600
H 	H 	0.91660 0.01620 0.72240 0.11300
H 	H 	0.97410 0.07690 0.65430 0.16600
H 	H 	0.65520 0.48380 0.77760 0.13700
H 	H 	0.70530 0.42310 0.84570 0.16600
H 	H 	0.98380 0.15520 0.08340 0.14100
H 	H 	0.92310 0.20530 0.02590 0.10500
H 	H 	0.58340 0.77760 0.48380 0.13600
H 	H 	0.52590 0.84570 0.42310 0.15900
H 	H 	0.27760 0.08340 0.15520 0.02500
H 	H 	0.34570 0.02590 0.20530 0.02900
H 	H 	0.27760 0.48380 0.08340 0.05700
H 	H 	0.34570 0.42310 0.02590 0.03400
H 	H 	0.58340 0.15520 0.77760 0.10800
H 	H 	0.52590 0.20530 0.84570 0.15600
H 	H 	0.98380 0.77760 0.15520 0.20700
H 	H 	0.92310 0.84570 0.20530 0.22300
H 	H 	0.65520 0.08340 0.48380 0.07100
H 	H 	0.70530 0.02590 0.42310 0.04600
H 	H 	0.58340 0.48380 0.15520 0.10500
H 	H 	0.52590 0.42310 0.20530 0.12700
H 	H 	0.27760 0.15520 0.48380 0.09400
H 	H 	0.34570 0.20530 0.42310 0.12400
H 	H 	0.65520 0.77760 0.08340 0.07400
H 	H 	0.70530 0.84570 0.02590 0.07600
H 	H 	0.98380 0.08340 0.77760 0.17200
H 	H 	0.92310 0.02590 0.84570 0.13600
H 	H 	0.48380 0.65520 0.27760 0.12600
H 	H 	0.42310 0.70530 0.34570 0.13700
H 	H 	0.15520 0.98380 0.58340 0.20300
H 	H 	0.20530 0.92310 0.52590 0.19700
H 	H 	0.77760 0.58340 0.98380 0.23000
H 	H 	0.84570 0.52590 0.92310 0.22400
H 	H 	0.08340 0.27760 0.65520 0.05800
H 	H 	0.02590 0.34570 0.70530 0.04200
H 	H 	0.48380 0.27760 0.58340 0.12400
H 	H 	0.42310 0.34570 0.52590 0.12900
H 	H 	0.15520 0.58340 0.27760 0.09300
H 	H 	0.20530 0.52590 0.34570 0.12500
H 	H 	0.77760 0.98380 0.65520 0.23000
H 	H 	0.84570 0.92310 0.70530 0.22800
H 	H 	0.08340 0.65520 0.98380 0.16700
H 	H 	0.02590 0.70530 0.92310 0.11300
H 	H 	0.48380 0.58340 0.65520 0.13500
H 	H 	0.42310 0.52590 0.70530 0.13900
H 	H 	0.15520 0.27760 0.98380 0.19500
H 	H 	0.20530 0.34570 0.92310 0.19500
H 	H 	0.77760 0.65520 0.58340 0.13700
H 	H 	0.84570 0.70530 0.52590 0.16700
H 	H 	0.08340 0.98380 0.27760 0.15700
H 	H 	0.02590 0.92310 0.34570 0.10300
H 	H 	0.34480 0.51620 0.22240 0.12700
H 	H 	0.29470 0.57690 0.15430 0.09800
H 	H 	0.01620 0.84480 0.91660 0.12700
H 	H 	0.07690 0.79470 0.97410 0.16400
H 	H 	0.41660 0.22240 0.51620 0.12900
H 	H 	0.47410 0.15430 0.57690 0.10700
H 	H 	0.72240 0.91660 0.84480 0.22900
H 	H 	0.65430 0.97410 0.79470 0.22800
H 	H 	0.72240 0.51620 0.91660 0.20600
H 	H 	0.65430 0.57690 0.97410 0.22800
H 	H 	0.41660 0.84480 0.22240 0.16000
H 	H 	0.47410 0.79470 0.15430 0.11100
H 	H 	0.01620 0.22240 0.84480 0.05900
H 	H 	0.07690 0.15430 0.79470 0.04200
H 	H 	0.34480 0.91660 0.51620 0.19700
H 	H 	0.29470 0.97410 0.57690 0.22100
H 	H 	0.41660 0.51620 0.84480 0.16200
H 	H 	0.47410 0.57690 0.79470 0.13800
H 	H 	0.72240 0.84480 0.51620 0.16900
H 	H 	0.65430 0.79470 0.57690 0.14000
H 	H 	0.34480 0.22240 0.91660 0.19500
H 	H 	0.29470 0.15430 0.97410 0.19500
H 	H 	0.01620 0.91660 0.22240 0.09600
H 	H 	0.07690 0.97410 0.15430 0.13400
C 	C 	0.57660 0.31800 0.69060 -0.31100
C 	C 	0.62168 0.38488 0.63452 0.44700
C 	C 	0.81800 0.07660 0.41480 -0.23300
C 	C 	0.88488 0.12168 0.35892 0.40300
C 	C 	0.19060 0.41480 0.07660 -0.22700
C 	C 	0.13452 0.35892 0.12168 0.39900
C 	C 	0.91480 0.69060 0.31800 -0.39100
C 	C 	0.85892 0.63452 0.38488 0.48700
C 	C 	0.57660 0.69060 0.41480 -0.31700
C 	C 	0.62168 0.63452 0.35892 0.45000
C 	C 	0.81800 0.41480 0.69060 -0.31600
C 	C 	0.88488 0.35892 0.63452 0.44900
C 	C 	0.19060 0.07660 0.31800 -0.21900
C 	C 	0.13452 0.12168 0.38488 0.39500
C 	C 	0.91480 0.31800 0.07660 -0.30700
C 	C 	0.85892 0.38488 0.12168 0.44100
C 	C 	0.57660 0.41480 0.31800 -0.30400
C 	C 	0.62168 0.35892 0.38488 0.44300
C 	C 	0.81800 0.69060 0.07660 -0.24000
C 	C 	0.88488 0.63452 0.12168 0.40700
C 	C 	0.19060 0.31800 0.41480 -0.30100
C 	C 	0.13452 0.38488 0.35892 0.43900
C 	C 	0.91480 0.07660 0.69060 -0.31900
C 	C 	0.85892 0.12168 0.63452 0.44800
C 	C 	0.68200 0.42340 0.80940 -0.31700
C 	C 	0.61512 0.37832 0.86548 0.44800
C 	C 	0.92340 0.18200 0.08520 -0.30900
C 	C 	0.87832 0.11512 0.14108 0.44300
C 	C 	0.58520 0.80940 0.42340 -0.31200
C 	C 	0.64108 0.86548 0.37832 0.44600
C 	C 	0.30940 0.08520 0.18200 -0.21900
C 	C 	0.36548 0.14108 0.11512 0.39500
C 	C 	0.30940 0.42340 0.08520 -0.22300
C 	C 	0.36548 0.37832 0.14108 0.39900
C 	C 	0.58520 0.18200 0.80940 -0.31000
C 	C 	0.64108 0.11512 0.86548 0.44400
C 	C 	0.92340 0.80940 0.18200 -0.38700
C 	C 	0.87832 0.86548 0.11512 0.48400
C 	C 	0.68200 0.08520 0.42340 -0.23900
C 	C 	0.61512 0.14108 0.37832 0.40700
C 	C 	0.58520 0.42340 0.18200 -0.30900
C 	C 	0.64108 0.37832 0.11512 0.44300
C 	C 	0.30940 0.18200 0.42340 -0.30100
C 	C 	0.36548 0.11512 0.37832 0.43800
C 	C 	0.68200 0.80940 0.08520 -0.24000
C 	C 	0.61512 0.86548 0.14108 0.40800
C 	C 	0.92340 0.08520 0.80940 -0.31200
C 	C 	0.87832 0.14108 0.86548 0.44600
C 	C 	0.42340 0.68200 0.30940 -0.31000
C 	C 	0.37832 0.61512 0.36548 0.44500
C 	C 	0.18200 0.92340 0.58520 -0.38700
C 	C 	0.11512 0.87832 0.64108 0.48400
C 	C 	0.80940 0.58520 0.92340 -0.38600
C 	C 	0.86548 0.64108 0.87832 0.48500
C 	C 	0.08520 0.30940 0.68200 -0.22800
C 	C 	0.14108 0.36548 0.61512 0.40300
C 	C 	0.42340 0.30940 0.58520 -0.30500
C 	C 	0.37832 0.36548 0.64108 0.44200
C 	C 	0.18200 0.58520 0.30940 -0.30100
C 	C 	0.11512 0.64108 0.36548 0.43900
C 	C 	0.80940 0.92340 0.68200 -0.38800
C 	C 	0.86548 0.87832 0.61512 0.48700
C 	C 	0.08520 0.68200 0.92340 -0.31300
C 	C 	0.14108 0.61512 0.87832 0.44800
C 	C 	0.42340 0.58520 0.68200 -0.31700
C 	C 	0.37832 0.64108 0.61512 0.44900
C 	C 	0.18200 0.30940 0.92340 -0.38000
C 	C 	0.11512 0.36548 0.87832 0.48000
C 	C 	0.80940 0.68200 0.58520 -0.31700
C 	C 	0.86548 0.61512 0.64108 0.44900
C 	C 	0.08520 0.92340 0.30940 -0.30100
C 	C 	0.14108 0.87832 0.36548 0.44100
C 	C 	0.31800 0.57660 0.19060 -0.30000
C 	C 	0.38488 0.62168 0.13452 0.44000
C 	C 	0.07660 0.81800 0.91480 -0.30800
C 	C 	0.12168 0.88488 0.85892 0.44100
C 	C 	0.41480 0.19060 0.57660 -0.30700
C 	C 	0.35892 0.13452 0.62168 0.44400
C 	C 	0.69060 0.91480 0.81800 -0.38900
C 	C 	0.63452 0.85892 0.88488 0.48600
C 	C 	0.69060 0.57660 0.91480 -0.39300
C 	C 	0.63452 0.62168 0.85892 0.48900
C 	C 	0.41480 0.81800 0.19060 -0.30800
C 	C 	0.35892 0.88488 0.13452 0.44400
C 	C 	0.07660 0.19060 0.81800 -0.22600
C 	C 	0.12168 0.13452 0.88488 0.39900
C 	C 	0.31800 0.91480 0.57660 -0.38300
C 	C 	0.38488 0.85892 0.62168 0.48300
C 	C 	0.41480 0.57660 0.81800 -0.31000
C 	C 	0.35892 0.62168 0.88488 0.44700
C 	C 	0.69060 0.81800 0.57660 -0.31700
C 	C 	0.63452 0.88488 0.62168 0.45000
C 	C 	0.31800 0.19060 0.91480 -0.38100
C 	C 	0.38488 0.13452 0.85892 0.48000
C 	C 	0.07660 0.91480 0.19060 -0.30500
C 	C 	0.12168 0.85892 0.13452 0.43900
O 	O 	0.68847 0.37119 0.64627 -0.38800
O 	O 	0.59062 0.45118 0.57836 -0.44600
O 	O 	0.87119 0.18847 0.29407 -0.35800
O 	O 	0.95118 0.09062 0.37984 -0.38900
O 	O 	0.14627 0.29407 0.18847 -0.43300
O 	O 	0.07836 0.37984 0.09062 -0.59100
O 	O 	0.79407 0.64627 0.37119 -0.39400
O 	O 	0.87984 0.57836 0.45118 -0.40400
O 	O 	0.68847 0.64627 0.29407 -0.39000
O 	O 	0.59062 0.57836 0.37984 -0.44900
O 	O 	0.87119 0.29407 0.64627 -0.35700
O 	O 	0.95118 0.37984 0.57836 -0.33600
O 	O 	0.14627 0.18847 0.37119 -0.42900
O 	O 	0.07836 0.09062 0.45118 -0.58700
O 	O 	0.79407 0.37119 0.18847 -0.39400
O 	O 	0.87984 0.45118 0.09062 -0.45600
O 	O 	0.68847 0.29407 0.37119 -0.38900
O 	O 	0.59062 0.37984 0.45118 -0.44800
O 	O 	0.87119 0.64627 0.18847 -0.35700
O 	O 	0.95118 0.57836 0.09062 -0.38700
O 	O 	0.14627 0.37119 0.29407 -0.42900
O 	O 	0.07836 0.45118 0.37984 -0.53200
O 	O 	0.79407 0.18847 0.64627 -0.39600
O 	O 	0.87984 0.09062 0.57836 -0.45700
O 	O 	0.62881 0.31153 0.85373 -0.36200
O 	O 	0.54882 0.40938 0.92164 -0.36200
O 	O 	0.81153 0.12881 0.20593 -0.42300
O 	O 	0.90938 0.04882 0.12016 -0.51300
O 	O 	0.70593 0.85373 0.31153 -0.36000
O 	O 	0.62016 0.92164 0.40938 -0.36000
O 	O 	0.35373 0.20593 0.12881 -0.42500
O 	O 	0.42164 0.12016 0.04882 -0.58400
O 	O 	0.35373 0.31153 0.20593 -0.39400
O 	O 	0.42164 0.40938 0.12016 -0.48400
O 	O 	0.70593 0.12881 0.85373 -0.38900
O 	O 	0.62016 0.04882 0.92164 -0.45400
O 	O 	0.81153 0.85373 0.12881 -0.38900
O 	O 	0.90938 0.92164 0.04882 -0.39200
O 	O 	0.62881 0.20593 0.31153 -0.39600
O 	O 	0.54882 0.12016 0.40938 -0.48500
O 	O 	0.70593 0.31153 0.12881 -0.43000
O 	O 	0.62016 0.40938 0.04882 -0.55000
O 	O 	0.35373 0.12881 0.31153 -0.43200
O 	O 	0.42164 0.04882 0.40938 -0.55300
O 	O 	0.62881 0.85373 0.20593 -0.35500
O 	O 	0.54882 0.92164 0.12016 -0.39000
O 	O 	0.81153 0.20593 0.85373 -0.35200
O 	O 	0.90938 0.12016 0.92164 -0.32600
O 	O 	0.31153 0.62881 0.35373 -0.39600
O 	O 	0.40938 0.54882 0.42164 -0.45200
O 	O 	0.12881 0.81153 0.70593 -0.42200
O 	O 	0.04882 0.90938 0.62016 -0.48100
O 	O 	0.85373 0.70593 0.81153 -0.35300
O 	O 	0.92164 0.62016 0.90938 -0.29800
O 	O 	0.20593 0.35373 0.62881 -0.38900
O 	O 	0.12016 0.42164 0.54882 -0.48200
O 	O 	0.31153 0.35373 0.70593 -0.39400
O 	O 	0.40938 0.42164 0.62016 -0.44900
O 	O 	0.12881 0.70593 0.35373 -0.42500
O 	O 	0.04882 0.62016 0.42164 -0.54800
O 	O 	0.85373 0.81153 0.62881 -0.35400
O 	O 	0.92164 0.90938 0.54882 -0.29800
O 	O 	0.20593 0.62881 0.81153 -0.38700
O 	O 	0.12016 0.54882 0.90938 -0.41400
O 	O 	0.31153 0.70593 0.62881 -0.39500
O 	O 	0.40938 0.62016 0.54882 -0.45000
O 	O 	0.12881 0.35373 0.81153 -0.42400
O 	O 	0.04882 0.42164 0.90938 -0.48200
O 	O 	0.85373 0.62881 0.70593 -0.35500
O 	O 	0.92164 0.54882 0.62016 -0.35600
O 	O 	0.20593 0.81153 0.35373 -0.38600
O 	O 	0.12016 0.90938 0.42164 -0.41300
O 	O 	0.37119 0.68847 0.14627 -0.42000
O 	O 	0.45118 0.59062 0.07836 -0.52300
O 	O 	0.18847 0.87119 0.79407 -0.35800
O 	O 	0.09062 0.95118 0.87984 -0.35100
O 	O 	0.29407 0.14627 0.68847 -0.42300
O 	O 	0.37984 0.07836 0.59062 -0.52700
O 	O 	0.64627 0.79407 0.87119 -0.35800
O 	O 	0.57836 0.87984 0.95118 -0.30200
O 	O 	0.64627 0.68847 0.79407 -0.38900
O 	O 	0.57836 0.59062 0.87984 -0.40300
O 	O 	0.29407 0.87119 0.14627 -0.39000
O 	O 	0.37984 0.95118 0.07836 -0.41400
O 	O 	0.18847 0.14627 0.87119 -0.39000
O 	O 	0.09062 0.07836 0.95118 -0.47000
O 	O 	0.37119 0.79407 0.68847 -0.38800
O 	O 	0.45118 0.87984 0.59062 -0.40200
O 	O 	0.29407 0.68847 0.87119 -0.35200
O 	O 	0.37984 0.59062 0.95118 -0.33600
O 	O 	0.64627 0.87119 0.68847 -0.35200
O 	O 	0.57836 0.95118 0.59062 -0.33600
O 	O 	0.37119 0.14627 0.79407 -0.42600
O 	O 	0.45118 0.07836 0.87984 -0.48000
O 	O 	0.18847 0.79407 0.14627 -0.42900
O 	O 	0.09062 0.87984 0.07836 -0.53900
O 	O 	0.62050 0.25000 0.75000 -0.15200
O 	O 	0.75000 0.12050 0.37950 -0.19100
O 	O 	0.25000 0.37950 0.12050 -0.20700
O 	O 	0.87950 0.75000 0.25000 -0.10600
O 	O 	0.62050 0.75000 0.37950 -0.14600
O 	O 	0.75000 0.37950 0.75000 -0.14000
O 	O 	0.25000 0.12050 0.25000 -0.21400
O 	O 	0.87950 0.25000 0.12050 -0.15700
O 	O 	0.62050 0.37950 0.25000 -0.15900
O 	O 	0.75000 0.75000 0.12050 -0.18500
O 	O 	0.25000 0.25000 0.37950 -0.16600
O 	O 	0.87950 0.12050 0.75000 -0.14500
O 	O 	0.37950 0.75000 0.25000 -0.15200
O 	O 	0.25000 0.87950 0.62050 -0.11200
O 	O 	0.75000 0.62050 0.87950 -0.10100
O 	O 	0.12050 0.25000 0.75000 -0.20000
O 	O 	0.37950 0.25000 0.62050 -0.15800
O 	O 	0.25000 0.62050 0.25000 -0.16600
O 	O 	0.75000 0.87950 0.75000 -0.09700
O 	O 	0.12050 0.75000 0.87950 -0.14700
O 	O 	0.37950 0.62050 0.75000 -0.14500
O 	O 	0.25000 0.25000 0.87950 -0.11900
O 	O 	0.75000 0.75000 0.62050 -0.13900
O 	O 	0.12050 0.87950 0.25000 -0.15900
