data_crystal

_cell_length_a 18.62500
_cell_length_b 18.62500
_cell_length_c 18.62500
_cell_angle_alpha 60.00000
_cell_angle_beta  60.00000
_cell_angle_gamma 60.00000

_symmetry_space_group_name_	'P 1'
_symmetry_space_group_name_H-M	'P 1'

loop_
_symmetry_equiv_pos_as_xyz
  x,y,z

loop_
_atom_site_label
_atom_site_type_symbol
_atom_site_fract_x
_atom_site_fract_y
_atom_site_fract_z
_atom_site_charge
Ca	Ca	0.50000 0.50000 0.50000 1.52400
Ca	Ca	-0.00000 0.00000 0.50000 1.45200
Ca	Ca	-0.00000 0.50000 -0.00000 1.45300
Ca	Ca	-0.00000 0.50000 0.50000 1.48700
Ca	Ca	0.50000 0.50000 -0.00000 1.48800
Ca	Ca	-0.00000 0.00000 -0.00000 1.41600
Ca	Ca	0.50000 0.00000 0.50000 1.48800
Ca	Ca	0.50000 0.00000 -0.00000 1.45200
Lu	Lu	0.75000 0.25000 0.25000 1.28100
Lu	Lu	0.75000 0.25000 0.75000 1.28800
Lu	Lu	0.75000 0.75000 0.25000 1.28800
Lu	Lu	0.25000 0.25000 0.25000 1.27300
Lu	Lu	0.25000 0.75000 0.75000 1.28700
Lu	Lu	0.25000 0.75000 0.25000 1.28000
Lu	Lu	0.25000 0.25000 0.75000 1.28000
Lu	Lu	0.75000 0.75000 0.75000 1.29500
H 	H 	0.51630 0.41610 0.34470 0.12400
H 	H 	0.57740 0.47360 0.29460 0.12100
H 	H 	0.91610 0.01630 0.72290 0.10800
H 	H 	0.97360 0.07740 0.65440 0.16200
H 	H 	0.84470 0.72290 0.01630 0.07000
H 	H 	0.79460 0.65440 0.07740 0.07000
H 	H 	0.22290 0.34470 0.41610 0.12200
H 	H 	0.15440 0.29460 0.47360 0.09200
H 	H 	0.51630 0.34470 0.72290 0.13400
H 	H 	0.57740 0.29460 0.65440 0.12300
H 	H 	0.91610 0.72290 0.34470 0.20200
H 	H 	0.97360 0.65440 0.29460 0.22100
H 	H 	0.84470 0.01630 0.41610 0.06000
H 	H 	0.79460 0.07740 0.47360 0.06800
H 	H 	0.22290 0.41610 0.01630 0.02300
H 	H 	0.15440 0.47360 0.07740 0.03100
H 	H 	0.51630 0.72290 0.41610 0.13600
H 	H 	0.57740 0.65440 0.47360 0.13100
H 	H 	0.91610 0.34470 0.01630 0.09700
H 	H 	0.97360 0.29460 0.07740 0.15300
H 	H 	0.84470 0.41610 0.72290 0.16500
H 	H 	0.79460 0.47360 0.65440 0.13400
H 	H 	0.22290 0.01630 0.34470 0.02100
H 	H 	0.15440 0.07740 0.29460 0.02200
H 	H 	0.58390 0.48370 0.15530 0.10000
H 	H 	0.52640 0.42260 0.20540 0.12200
H 	H 	0.98370 0.08390 0.77710 0.16700
H 	H 	0.92260 0.02640 0.84560 0.13100
H 	H 	0.27710 0.15530 0.48370 0.08900
H 	H 	0.34560 0.20540 0.42260 0.12000
H 	H 	0.65530 0.77710 0.08390 0.06800
H 	H 	0.70540 0.84560 0.02640 0.07200
H 	H 	0.65530 0.48370 0.77710 0.13200
H 	H 	0.70540 0.42260 0.84560 0.16200
H 	H 	0.27710 0.08390 0.15530 0.01900
H 	H 	0.34560 0.02640 0.20540 0.02400
H 	H 	0.98370 0.15530 0.08390 0.13600
H 	H 	0.92260 0.20540 0.02640 0.10000
H 	H 	0.58390 0.77710 0.48370 0.13100
H 	H 	0.52640 0.84560 0.42260 0.15500
H 	H 	0.27710 0.48370 0.08390 0.05100
H 	H 	0.34560 0.42260 0.02640 0.02800
H 	H 	0.65530 0.08390 0.48370 0.06500
H 	H 	0.70540 0.02640 0.42260 0.04100
H 	H 	0.58390 0.15530 0.77710 0.10300
H 	H 	0.52640 0.20540 0.84560 0.15200
H 	H 	0.98370 0.77710 0.15530 0.20300
H 	H 	0.92260 0.84560 0.20540 0.21900
H 	H 	0.48370 0.58390 0.65530 0.13000
H 	H 	0.42260 0.52640 0.70540 0.13500
H 	H 	0.08390 0.98370 0.27710 0.15200
H 	H 	0.02640 0.92260 0.34560 0.09800
H 	H 	0.15530 0.27710 0.98370 0.19100
H 	H 	0.20540 0.34560 0.92260 0.19100
H 	H 	0.77710 0.65530 0.58390 0.13200
H 	H 	0.84560 0.70540 0.52640 0.16300
H 	H 	0.48370 0.65530 0.27710 0.12100
H 	H 	0.42260 0.70540 0.34560 0.13200
H 	H 	0.08390 0.27710 0.65530 0.05200
H 	H 	0.02640 0.34560 0.70540 0.03600
H 	H 	0.15530 0.98370 0.58390 0.19900
H 	H 	0.20540 0.92260 0.52640 0.19300
H 	H 	0.77710 0.58390 0.98370 0.22600
H 	H 	0.84560 0.52640 0.92260 0.22100
H 	H 	0.48370 0.27710 0.58390 0.11900
H 	H 	0.42260 0.34560 0.52640 0.12400
H 	H 	0.08390 0.65530 0.98370 0.16200
H 	H 	0.02640 0.70540 0.92260 0.10800
H 	H 	0.15530 0.58390 0.27710 0.08800
H 	H 	0.20540 0.52640 0.34560 0.12100
H 	H 	0.77710 0.98370 0.65530 0.22600
H 	H 	0.84560 0.92260 0.70540 0.22400
H 	H 	0.41610 0.51630 0.84470 0.15700
H 	H 	0.47360 0.57740 0.79460 0.13300
H 	H 	0.01630 0.91610 0.22290 0.09100
H 	H 	0.07740 0.97360 0.15440 0.12900
H 	H 	0.72290 0.84470 0.51630 0.16400
H 	H 	0.65440 0.79460 0.57740 0.13500
H 	H 	0.34470 0.22290 0.91610 0.19100
H 	H 	0.29460 0.15440 0.97360 0.19100
H 	H 	0.34470 0.51630 0.22290 0.12200
H 	H 	0.29460 0.57740 0.15440 0.09300
H 	H 	0.72290 0.91610 0.84470 0.22500
H 	H 	0.65440 0.97360 0.79460 0.22400
H 	H 	0.01630 0.84470 0.91610 0.12200
H 	H 	0.07740 0.79460 0.97360 0.15900
H 	H 	0.41610 0.22290 0.51630 0.12400
H 	H 	0.47360 0.15440 0.57740 0.10200
H 	H 	0.72290 0.51630 0.91610 0.20100
H 	H 	0.65440 0.57740 0.97360 0.22400
H 	H 	0.34470 0.91610 0.51630 0.19300
H 	H 	0.29460 0.97360 0.57740 0.21700
H 	H 	0.41610 0.84470 0.22290 0.15500
H 	H 	0.47360 0.79460 0.15440 0.10600
H 	H 	0.01630 0.22290 0.84470 0.05300
H 	H 	0.07740 0.15440 0.79460 0.03600
C 	C 	0.57704 0.41416 0.31792 -0.29300
C 	C 	0.62192 0.35828 0.38552 0.44700
C 	C 	0.91416 0.07704 0.69088 -0.30900
C 	C 	0.85828 0.12192 0.63428 0.45100
C 	C 	0.81792 0.69088 0.07704 -0.22800
C 	C 	0.88552 0.63428 0.12192 0.41000
C 	C 	0.19088 0.31792 0.41416 -0.29000
C 	C 	0.13428 0.38552 0.35828 0.44300
C 	C 	0.57704 0.31792 0.69088 -0.30100
C 	C 	0.62192 0.38552 0.63428 0.45100
C 	C 	0.91416 0.69088 0.31792 -0.38100
C 	C 	0.85828 0.63428 0.38552 0.49000
C 	C 	0.81792 0.07704 0.41416 -0.22100
C 	C 	0.88552 0.12192 0.35828 0.40500
C 	C 	0.19088 0.41416 0.07704 -0.21400
C 	C 	0.13428 0.35828 0.12192 0.40200
C 	C 	0.57704 0.69088 0.41416 -0.30600
C 	C 	0.62192 0.63428 0.35828 0.45300
C 	C 	0.91416 0.31792 0.07704 -0.29600
C 	C 	0.85828 0.38552 0.12192 0.44400
C 	C 	0.81792 0.41416 0.69088 -0.30500
C 	C 	0.88552 0.35828 0.63428 0.45200
C 	C 	0.19088 0.07704 0.31792 -0.20700
C 	C 	0.13428 0.12192 0.38552 0.39800
C 	C 	0.58584 0.42296 0.18208 -0.29900
C 	C 	0.64172 0.37808 0.11448 0.44600
C 	C 	0.92296 0.08584 0.80912 -0.30100
C 	C 	0.87808 0.14172 0.86572 0.44900
C 	C 	0.30912 0.18208 0.42296 -0.29100
C 	C 	0.36572 0.11448 0.37808 0.44100
C 	C 	0.68208 0.80912 0.08584 -0.22800
C 	C 	0.61448 0.86572 0.14172 0.41000
C 	C 	0.68208 0.42296 0.80912 -0.30700
C 	C 	0.61448 0.37808 0.86572 0.45100
C 	C 	0.30912 0.08584 0.18208 -0.20600
C 	C 	0.36572 0.14172 0.11448 0.39800
C 	C 	0.92296 0.18208 0.08584 -0.29800
C 	C 	0.87808 0.11448 0.14172 0.44600
C 	C 	0.58584 0.80912 0.42296 -0.30200
C 	C 	0.64172 0.86572 0.37808 0.44900
C 	C 	0.30912 0.42296 0.08584 -0.21100
C 	C 	0.36572 0.37808 0.14172 0.40200
C 	C 	0.68208 0.08584 0.42296 -0.22600
C 	C 	0.61448 0.14172 0.37808 0.41000
C 	C 	0.58584 0.18208 0.80912 -0.30000
C 	C 	0.64172 0.11448 0.86572 0.44700
C 	C 	0.92296 0.80912 0.18208 -0.37800
C 	C 	0.87808 0.86572 0.11448 0.48700
C 	C 	0.42296 0.58584 0.68208 -0.30600
C 	C 	0.37808 0.64172 0.61448 0.45200
C 	C 	0.08584 0.92296 0.30912 -0.28900
C 	C 	0.14172 0.87808 0.36572 0.44400
C 	C 	0.18208 0.30912 0.92296 -0.37100
C 	C 	0.11448 0.36572 0.87808 0.48400
C 	C 	0.80912 0.68208 0.58584 -0.30600
C 	C 	0.86572 0.61448 0.64172 0.45200
C 	C 	0.42296 0.68208 0.30912 -0.29900
C 	C 	0.37808 0.61448 0.36572 0.44800
C 	C 	0.08584 0.30912 0.68208 -0.21500
C 	C 	0.14172 0.36572 0.61448 0.40500
C 	C 	0.18208 0.92296 0.58584 -0.37700
C 	C 	0.11448 0.87808 0.64172 0.48800
C 	C 	0.80912 0.58584 0.92296 -0.37700
C 	C 	0.86572 0.64172 0.87808 0.48900
C 	C 	0.42296 0.30912 0.58584 -0.29400
C 	C 	0.37808 0.36572 0.64172 0.44500
C 	C 	0.08584 0.68208 0.92296 -0.30100
C 	C 	0.14172 0.61448 0.87808 0.45100
C 	C 	0.18208 0.58584 0.30912 -0.29100
C 	C 	0.11448 0.64172 0.36572 0.44300
C 	C 	0.80912 0.92296 0.68208 -0.37900
C 	C 	0.86572 0.87808 0.61448 0.49000
C 	C 	0.41416 0.57704 0.81792 -0.29900
C 	C 	0.35828 0.62192 0.88552 0.45000
C 	C 	0.07704 0.91416 0.19088 -0.29500
C 	C 	0.12192 0.85828 0.13428 0.44200
C 	C 	0.69088 0.81792 0.57704 -0.30500
C 	C 	0.63428 0.88552 0.62192 0.45300
C 	C 	0.31792 0.19088 0.91416 -0.37100
C 	C 	0.38552 0.13428 0.85828 0.48400
C 	C 	0.31792 0.57704 0.19088 -0.28900
C 	C 	0.38552 0.62192 0.13428 0.44400
C 	C 	0.69088 0.91416 0.81792 -0.37900
C 	C 	0.63428 0.85828 0.88552 0.48900
C 	C 	0.07704 0.81792 0.91416 -0.29700
C 	C 	0.12192 0.88552 0.85828 0.44400
C 	C 	0.41416 0.19088 0.57704 -0.29600
C 	C 	0.35828 0.13428 0.62192 0.44800
C 	C 	0.69088 0.57704 0.91416 -0.38300
C 	C 	0.63428 0.62192 0.85828 0.49200
C 	C 	0.31792 0.91416 0.57704 -0.37400
C 	C 	0.38552 0.85828 0.62192 0.48700
C 	C 	0.41416 0.81792 0.19088 -0.29600
C 	C 	0.35828 0.88552 0.13428 0.44700
C 	C 	0.07704 0.19088 0.81792 -0.21300
C 	C 	0.12192 0.13428 0.88552 0.40100
O 	O 	0.68872 0.29362 0.37114 -0.35500
O 	O 	0.59087 0.37923 0.45171 -0.45200
O 	O 	0.79362 0.18872 0.64652 -0.36300
O 	O 	0.87923 0.09087 0.57819 -0.46200
O 	O 	0.87114 0.64652 0.18872 -0.32300
O 	O 	0.95171 0.57819 0.09087 -0.39100
O 	O 	0.14652 0.37114 0.29362 -0.39500
O 	O 	0.07819 0.45171 0.37923 -0.53700
O 	O 	0.68872 0.37114 0.64652 -0.35500
O 	O 	0.59087 0.45171 0.57819 -0.45000
O 	O 	0.79362 0.64652 0.37114 -0.36100
O 	O 	0.87923 0.57819 0.45171 -0.40900
O 	O 	0.87114 0.18872 0.29362 -0.32400
O 	O 	0.95171 0.09087 0.37923 -0.39200
O 	O 	0.14652 0.29362 0.18872 -0.39800
O 	O 	0.07819 0.37923 0.09087 -0.59600
O 	O 	0.68872 0.64652 0.29362 -0.35700
O 	O 	0.59087 0.57819 0.37923 -0.45300
O 	O 	0.79362 0.37114 0.18872 -0.36100
O 	O 	0.87923 0.45171 0.09087 -0.46100
O 	O 	0.87114 0.29362 0.64652 -0.32400
O 	O 	0.95171 0.37923 0.57819 -0.34000
O 	O 	0.14652 0.18872 0.37114 -0.39500
O 	O 	0.07819 0.09087 0.45171 -0.59200
O 	O 	0.70638 0.31128 0.12886 -0.39700
O 	O 	0.62077 0.40913 0.04829 -0.55500
O 	O 	0.81128 0.20638 0.85348 -0.31900
O 	O 	0.90913 0.12077 0.92181 -0.32900
O 	O 	0.35348 0.12886 0.31128 -0.39800
O 	O 	0.42181 0.04829 0.40913 -0.55800
O 	O 	0.62886 0.85348 0.20638 -0.32200
O 	O 	0.54829 0.92181 0.12077 -0.39300
O 	O 	0.62886 0.31128 0.85348 -0.32900
O 	O 	0.54829 0.40913 0.92181 -0.36600
O 	O 	0.35348 0.20638 0.12886 -0.39100
O 	O 	0.42181 0.12077 0.04829 -0.58900
O 	O 	0.81128 0.12886 0.20638 -0.38900
O 	O 	0.90913 0.04829 0.12077 -0.51800
O 	O 	0.70638 0.85348 0.31128 -0.32700
O 	O 	0.62077 0.92181 0.40913 -0.36400
O 	O 	0.35348 0.31128 0.20638 -0.36000
O 	O 	0.42181 0.40913 0.12077 -0.48800
O 	O 	0.62886 0.20638 0.31128 -0.36200
O 	O 	0.54829 0.12077 0.40913 -0.49000
O 	O 	0.70638 0.12886 0.85348 -0.35600
O 	O 	0.62077 0.04829 0.92181 -0.45800
O 	O 	0.81128 0.85348 0.12886 -0.35600
O 	O 	0.90913 0.92181 0.04829 -0.39700
O 	O 	0.31128 0.70638 0.62886 -0.36200
O 	O 	0.40913 0.62077 0.54829 -0.45400
O 	O 	0.20638 0.81128 0.35348 -0.35200
O 	O 	0.12077 0.90913 0.42181 -0.41700
O 	O 	0.12886 0.35348 0.81128 -0.39100
O 	O 	0.04829 0.42181 0.90913 -0.48800
O 	O 	0.85348 0.62886 0.70638 -0.32200
O 	O 	0.92181 0.54829 0.62077 -0.35900
O 	O 	0.31128 0.62886 0.35348 -0.36300
O 	O 	0.40913 0.54829 0.42181 -0.45600
O 	O 	0.20638 0.35348 0.62886 -0.35500
O 	O 	0.12077 0.42181 0.54829 -0.48600
O 	O 	0.12886 0.81128 0.70638 -0.39000
O 	O 	0.04829 0.90913 0.62077 -0.48600
O 	O 	0.85348 0.70638 0.81128 -0.32100
O 	O 	0.92181 0.62077 0.90913 -0.30100
O 	O 	0.31128 0.35348 0.70638 -0.36000
O 	O 	0.40913 0.42181 0.62077 -0.45300
O 	O 	0.20638 0.62886 0.81128 -0.35400
O 	O 	0.12077 0.54829 0.90913 -0.41800
O 	O 	0.12886 0.70638 0.35348 -0.39100
O 	O 	0.04829 0.62077 0.42181 -0.55400
O 	O 	0.85348 0.81128 0.62886 -0.32100
O 	O 	0.92181 0.90913 0.54829 -0.30100
O 	O 	0.29362 0.68872 0.87114 -0.31900
O 	O 	0.37923 0.59087 0.95171 -0.33900
O 	O 	0.18872 0.79362 0.14652 -0.39500
O 	O 	0.09087 0.87923 0.07819 -0.54500
O 	O 	0.64652 0.87114 0.68872 -0.31900
O 	O 	0.57819 0.95171 0.59087 -0.33900
O 	O 	0.37114 0.14652 0.79362 -0.39200
O 	O 	0.45171 0.07819 0.87923 -0.48600
O 	O 	0.37114 0.68872 0.14652 -0.38600
O 	O 	0.45171 0.59087 0.07819 -0.52800
O 	O 	0.64652 0.79362 0.87114 -0.32500
O 	O 	0.57819 0.87923 0.95171 -0.30500
O 	O 	0.18872 0.87114 0.79362 -0.32500
O 	O 	0.09087 0.95171 0.87923 -0.35500
O 	O 	0.29362 0.14652 0.68872 -0.38900
O 	O 	0.37923 0.07819 0.59087 -0.53200
O 	O 	0.64652 0.68872 0.79362 -0.35600
O 	O 	0.57819 0.59087 0.87923 -0.40800
O 	O 	0.37114 0.79362 0.68872 -0.35500
O 	O 	0.45171 0.87923 0.59087 -0.40600
O 	O 	0.29362 0.87114 0.14652 -0.35600
O 	O 	0.37923 0.95171 0.07819 -0.41800
O 	O 	0.18872 0.14652 0.87114 -0.35600
O 	O 	0.09087 0.07819 0.95171 -0.47400
O 	O 	0.62074 0.37926 0.25000 -0.12800
O 	O 	0.87926 0.12074 0.75000 -0.11500
O 	O 	0.75000 0.75000 0.12074 -0.15600
O 	O 	0.25000 0.25000 0.37926 -0.13600
O 	O 	0.62074 0.25000 0.75000 -0.12200
O 	O 	0.87926 0.75000 0.25000 -0.07500
O 	O 	0.75000 0.12074 0.37926 -0.16200
O 	O 	0.25000 0.37926 0.12074 -0.17700
O 	O 	0.62074 0.75000 0.37926 -0.11600
O 	O 	0.87926 0.25000 0.12074 -0.12700
O 	O 	0.75000 0.37926 0.75000 -0.11000
O 	O 	0.25000 0.12074 0.25000 -0.18400
O 	O 	0.37926 0.62074 0.75000 -0.11500
O 	O 	0.12074 0.87926 0.25000 -0.12900
O 	O 	0.25000 0.25000 0.87926 -0.08700
O 	O 	0.75000 0.75000 0.62074 -0.11000
O 	O 	0.37926 0.75000 0.25000 -0.12100
O 	O 	0.12074 0.25000 0.75000 -0.17000
O 	O 	0.25000 0.87926 0.62074 -0.08100
O 	O 	0.75000 0.62074 0.87926 -0.07000
O 	O 	0.37926 0.25000 0.62074 -0.12800
O 	O 	0.12074 0.75000 0.87926 -0.11700
O 	O 	0.25000 0.62074 0.25000 -0.13500
O 	O 	0.75000 0.87926 0.75000 -0.06600
