data_crystal

_cell_length_a 18.67590
_cell_length_b 18.67590
_cell_length_c 18.67590
_cell_angle_alpha 60.00000
_cell_angle_beta  60.00000
_cell_angle_gamma 60.00000

_symmetry_space_group_name_	'P 1'
_symmetry_space_group_name_H-M	'P 1'

loop_
_symmetry_equiv_pos_as_xyz
  x,y,z

loop_
_atom_site_label
_atom_site_type_symbol
_atom_site_fract_x
_atom_site_fract_y
_atom_site_fract_z
_atom_site_charge
Ca	Ca	0.50000 0.50000 0.50000 1.52300
Ca	Ca	-0.00000 0.00000 0.50000 1.45200
Ca	Ca	-0.00000 0.50000 -0.00000 1.45200
Ca	Ca	-0.00000 0.50000 0.50000 1.48700
Ca	Ca	0.50000 0.50000 -0.00000 1.48900
Ca	Ca	-0.00000 0.00000 -0.00000 1.41700
Ca	Ca	0.50000 0.00000 0.50000 1.48900
Ca	Ca	0.50000 0.00000 -0.00000 1.45400
Tm	Tm	0.75000 0.25000 0.25000 1.59400
Tm	Tm	0.75000 0.25000 0.75000 1.59800
Tm	Tm	0.75000 0.75000 0.25000 1.59800
Tm	Tm	0.25000 0.25000 0.25000 1.58900
Tm	Tm	0.25000 0.75000 0.75000 1.59700
Tm	Tm	0.25000 0.75000 0.25000 1.59300
Tm	Tm	0.25000 0.25000 0.75000 1.59300
Tm	Tm	0.75000 0.75000 0.75000 1.60200
H 	H 	0.51650 0.41630 0.34410 0.12500
H 	H 	0.57750 0.47350 0.29430 0.12200
H 	H 	0.91630 0.01650 0.72310 0.10900
H 	H 	0.97350 0.07750 0.65470 0.16300
H 	H 	0.84410 0.72310 0.01650 0.07100
H 	H 	0.79430 0.65470 0.07750 0.07100
H 	H 	0.22310 0.34410 0.41630 0.12200
H 	H 	0.15470 0.29430 0.47350 0.09300
H 	H 	0.51650 0.34410 0.72310 0.13400
H 	H 	0.57750 0.29430 0.65470 0.12400
H 	H 	0.91630 0.72310 0.34410 0.20200
H 	H 	0.97350 0.65470 0.29430 0.22100
H 	H 	0.84410 0.01650 0.41630 0.06100
H 	H 	0.79430 0.07750 0.47350 0.06900
H 	H 	0.22310 0.41630 0.01650 0.02400
H 	H 	0.15470 0.47350 0.07750 0.03300
H 	H 	0.51650 0.72310 0.41630 0.13600
H 	H 	0.57750 0.65470 0.47350 0.13200
H 	H 	0.91630 0.34410 0.01650 0.09700
H 	H 	0.97350 0.29430 0.07750 0.15400
H 	H 	0.84410 0.41630 0.72310 0.16600
H 	H 	0.79430 0.47350 0.65470 0.13500
H 	H 	0.22310 0.01650 0.34410 0.02200
H 	H 	0.15470 0.07750 0.29430 0.02300
H 	H 	0.58370 0.48350 0.15590 0.10000
H 	H 	0.52650 0.42250 0.20570 0.12300
H 	H 	0.98350 0.08370 0.77690 0.16700
H 	H 	0.92250 0.02650 0.84530 0.13200
H 	H 	0.27690 0.15590 0.48350 0.09000
H 	H 	0.34530 0.20570 0.42250 0.12100
H 	H 	0.65590 0.77690 0.08370 0.06900
H 	H 	0.70570 0.84530 0.02650 0.07300
H 	H 	0.65590 0.48350 0.77690 0.13300
H 	H 	0.70570 0.42250 0.84530 0.16200
H 	H 	0.27690 0.08370 0.15590 0.02000
H 	H 	0.34530 0.02650 0.20570 0.02500
H 	H 	0.98350 0.15590 0.08370 0.13600
H 	H 	0.92250 0.20570 0.02650 0.10100
H 	H 	0.58370 0.77690 0.48350 0.13100
H 	H 	0.52650 0.84530 0.42250 0.15500
H 	H 	0.27690 0.48350 0.08370 0.05200
H 	H 	0.34530 0.42250 0.02650 0.03000
H 	H 	0.65590 0.08370 0.48350 0.06600
H 	H 	0.70570 0.02650 0.42250 0.04300
H 	H 	0.58370 0.15590 0.77690 0.10300
H 	H 	0.52650 0.20570 0.84530 0.15300
H 	H 	0.98350 0.77690 0.15590 0.20300
H 	H 	0.92250 0.84530 0.20570 0.21900
H 	H 	0.48350 0.58370 0.65590 0.13100
H 	H 	0.42250 0.52650 0.70570 0.13600
H 	H 	0.08370 0.98350 0.27690 0.15300
H 	H 	0.02650 0.92250 0.34530 0.09900
H 	H 	0.15590 0.27690 0.98350 0.19100
H 	H 	0.20570 0.34530 0.92250 0.19100
H 	H 	0.77690 0.65590 0.58370 0.13300
H 	H 	0.84530 0.70570 0.52650 0.16400
H 	H 	0.48350 0.65590 0.27690 0.12200
H 	H 	0.42250 0.70570 0.34530 0.13300
H 	H 	0.08370 0.27690 0.65590 0.05300
H 	H 	0.02650 0.34530 0.70570 0.03800
H 	H 	0.15590 0.98350 0.58370 0.19900
H 	H 	0.20570 0.92250 0.52650 0.19300
H 	H 	0.77690 0.58370 0.98350 0.22600
H 	H 	0.84530 0.52650 0.92250 0.22100
H 	H 	0.48350 0.27690 0.58370 0.12000
H 	H 	0.42250 0.34530 0.52650 0.12500
H 	H 	0.08370 0.65590 0.98350 0.16300
H 	H 	0.02650 0.70570 0.92250 0.10900
H 	H 	0.15590 0.58370 0.27690 0.08900
H 	H 	0.20570 0.52650 0.34530 0.12200
H 	H 	0.77690 0.98350 0.65590 0.22600
H 	H 	0.84530 0.92250 0.70570 0.22500
H 	H 	0.41630 0.51650 0.84410 0.15700
H 	H 	0.47350 0.57750 0.79430 0.13400
H 	H 	0.01650 0.91630 0.22310 0.09200
H 	H 	0.07750 0.97350 0.15470 0.13000
H 	H 	0.72310 0.84410 0.51650 0.16500
H 	H 	0.65470 0.79430 0.57750 0.13600
H 	H 	0.34410 0.22310 0.91630 0.19100
H 	H 	0.29430 0.15470 0.97350 0.19100
H 	H 	0.34410 0.51650 0.22310 0.12200
H 	H 	0.29430 0.57750 0.15470 0.09400
H 	H 	0.72310 0.91630 0.84410 0.22500
H 	H 	0.65470 0.97350 0.79430 0.22500
H 	H 	0.01650 0.84410 0.91630 0.12300
H 	H 	0.07750 0.79430 0.97350 0.16000
H 	H 	0.41630 0.22310 0.51650 0.12400
H 	H 	0.47350 0.15470 0.57750 0.10300
H 	H 	0.72310 0.51650 0.91630 0.20100
H 	H 	0.65470 0.57750 0.97350 0.22500
H 	H 	0.34410 0.91630 0.51650 0.19300
H 	H 	0.29430 0.97350 0.57750 0.21800
H 	H 	0.41630 0.84410 0.22310 0.15500
H 	H 	0.47350 0.79430 0.15470 0.10800
H 	H 	0.01650 0.22310 0.84410 0.05400
H 	H 	0.07750 0.15470 0.79430 0.03800
C 	C 	0.57722 0.41418 0.31748 -0.29400
C 	C 	0.62140 0.35860 0.38560 0.44200
C 	C 	0.91418 0.07722 0.69112 -0.31000
C 	C 	0.85860 0.12140 0.63440 0.44600
C 	C 	0.81748 0.69112 0.07722 -0.23000
C 	C 	0.88560 0.63440 0.12140 0.40600
C 	C 	0.19112 0.31748 0.41418 -0.29100
C 	C 	0.13440 0.38560 0.35860 0.43800
C 	C 	0.57722 0.31748 0.69112 -0.30200
C 	C 	0.62140 0.38560 0.63440 0.44600
C 	C 	0.91418 0.69112 0.31748 -0.38200
C 	C 	0.85860 0.63440 0.38560 0.48500
C 	C 	0.81748 0.07722 0.41418 -0.22200
C 	C 	0.88560 0.12140 0.35860 0.40100
C 	C 	0.19112 0.41418 0.07722 -0.21500
C 	C 	0.13440 0.35860 0.12140 0.39700
C 	C 	0.57722 0.69112 0.41418 -0.30700
C 	C 	0.62140 0.63440 0.35860 0.44900
C 	C 	0.91418 0.31748 0.07722 -0.29700
C 	C 	0.85860 0.38560 0.12140 0.43900
C 	C 	0.81748 0.41418 0.69112 -0.30700
C 	C 	0.88560 0.35860 0.63440 0.44800
C 	C 	0.19112 0.07722 0.31748 -0.20800
C 	C 	0.13440 0.12140 0.38560 0.39300
C 	C 	0.58582 0.42278 0.18252 -0.29900
C 	C 	0.64140 0.37860 0.11440 0.44100
C 	C 	0.92278 0.08582 0.80888 -0.30300
C 	C 	0.87860 0.14140 0.86560 0.44500
C 	C 	0.30888 0.18252 0.42278 -0.29100
C 	C 	0.36560 0.11440 0.37860 0.43600
C 	C 	0.68252 0.80888 0.08582 -0.23000
C 	C 	0.61440 0.86560 0.14140 0.40600
C 	C 	0.68252 0.42278 0.80888 -0.30800
C 	C 	0.61440 0.37860 0.86560 0.44600
C 	C 	0.30888 0.08582 0.18252 -0.20700
C 	C 	0.36560 0.14140 0.11440 0.39400
C 	C 	0.92278 0.18252 0.08582 -0.29900
C 	C 	0.87860 0.11440 0.14140 0.44200
C 	C 	0.58582 0.80888 0.42278 -0.30300
C 	C 	0.64140 0.86560 0.37860 0.44400
C 	C 	0.30888 0.42278 0.08582 -0.21200
C 	C 	0.36560 0.37860 0.14140 0.39800
C 	C 	0.68252 0.08582 0.42278 -0.22800
C 	C 	0.61440 0.14140 0.37860 0.40600
C 	C 	0.58582 0.18252 0.80888 -0.30000
C 	C 	0.64140 0.11440 0.86560 0.44200
C 	C 	0.92278 0.80888 0.18252 -0.37900
C 	C 	0.87860 0.86560 0.11440 0.48200
C 	C 	0.42278 0.58582 0.68252 -0.30800
C 	C 	0.37860 0.64140 0.61440 0.44800
C 	C 	0.08582 0.92278 0.30888 -0.29100
C 	C 	0.14140 0.87860 0.36560 0.44100
C 	C 	0.18252 0.30888 0.92278 -0.37200
C 	C 	0.11440 0.36560 0.87860 0.47900
C 	C 	0.80888 0.68252 0.58582 -0.30800
C 	C 	0.86560 0.61440 0.64140 0.44700
C 	C 	0.42278 0.68252 0.30888 -0.30100
C 	C 	0.37860 0.61440 0.36560 0.44400
C 	C 	0.08582 0.30888 0.68252 -0.21700
C 	C 	0.14140 0.36560 0.61440 0.40100
C 	C 	0.18252 0.92278 0.58582 -0.37800
C 	C 	0.11440 0.87860 0.64140 0.48200
C 	C 	0.80888 0.58582 0.92278 -0.37800
C 	C 	0.86560 0.64140 0.87860 0.48400
C 	C 	0.42278 0.30888 0.58582 -0.29500
C 	C 	0.37860 0.36560 0.64140 0.44100
C 	C 	0.08582 0.68252 0.92278 -0.30300
C 	C 	0.14140 0.61440 0.87860 0.44700
C 	C 	0.18252 0.58582 0.30888 -0.29100
C 	C 	0.11440 0.64140 0.36560 0.43700
C 	C 	0.80888 0.92278 0.68252 -0.38000
C 	C 	0.86560 0.87860 0.61440 0.48500
C 	C 	0.41418 0.57722 0.81748 -0.30100
C 	C 	0.35860 0.62140 0.88560 0.44600
C 	C 	0.07722 0.91418 0.19112 -0.29500
C 	C 	0.12140 0.85860 0.13440 0.43700
C 	C 	0.69112 0.81748 0.57722 -0.30700
C 	C 	0.63440 0.88560 0.62140 0.44900
C 	C 	0.31748 0.19112 0.91418 -0.37200
C 	C 	0.38560 0.13440 0.85860 0.47800
C 	C 	0.31748 0.57722 0.19112 -0.29100
C 	C 	0.38560 0.62140 0.13440 0.43900
C 	C 	0.69112 0.91418 0.81748 -0.38100
C 	C 	0.63440 0.85860 0.88560 0.48500
C 	C 	0.07722 0.81748 0.91418 -0.29800
C 	C 	0.12140 0.88560 0.85860 0.44000
C 	C 	0.41418 0.19112 0.57722 -0.29700
C 	C 	0.35860 0.13440 0.62140 0.44300
C 	C 	0.69112 0.57722 0.91418 -0.38500
C 	C 	0.63440 0.62140 0.85860 0.48700
C 	C 	0.31748 0.91418 0.57722 -0.37500
C 	C 	0.38560 0.85860 0.62140 0.48200
C 	C 	0.41418 0.81748 0.19112 -0.29800
C 	C 	0.35860 0.88560 0.13440 0.44300
C 	C 	0.07722 0.19112 0.81748 -0.21500
C 	C 	0.12140 0.13440 0.88560 0.39700
O 	O 	0.68812 0.29406 0.37178 -0.39000
O 	O 	0.59020 0.38044 0.45134 -0.44900
O 	O 	0.79406 0.18812 0.64604 -0.39700
O 	O 	0.88044 0.09020 0.57802 -0.45900
O 	O 	0.87178 0.64604 0.18812 -0.35800
O 	O 	0.95134 0.57802 0.09020 -0.38900
O 	O 	0.14604 0.37178 0.29406 -0.43100
O 	O 	0.07802 0.45134 0.38044 -0.53400
O 	O 	0.68812 0.37178 0.64604 -0.38900
O 	O 	0.59020 0.45134 0.57802 -0.44800
O 	O 	0.79406 0.64604 0.37178 -0.39500
O 	O 	0.88044 0.57802 0.45134 -0.40600
O 	O 	0.87178 0.18812 0.29406 -0.35900
O 	O 	0.95134 0.09020 0.38044 -0.39000
O 	O 	0.14604 0.29406 0.18812 -0.43400
O 	O 	0.07802 0.38044 0.09020 -0.59300
O 	O 	0.68812 0.64604 0.29406 -0.39100
O 	O 	0.59020 0.57802 0.38044 -0.45100
O 	O 	0.79406 0.37178 0.18812 -0.39600
O 	O 	0.88044 0.45134 0.09020 -0.45800
O 	O 	0.87178 0.29406 0.64604 -0.35800
O 	O 	0.95134 0.38044 0.57802 -0.33800
O 	O 	0.14604 0.18812 0.37178 -0.43100
O 	O 	0.07802 0.09020 0.45134 -0.58900
O 	O 	0.70594 0.31188 0.12822 -0.43200
O 	O 	0.61956 0.40980 0.04866 -0.55200
O 	O 	0.81188 0.20594 0.85396 -0.35400
O 	O 	0.90980 0.11956 0.92198 -0.32700
O 	O 	0.35396 0.12822 0.31188 -0.43400
O 	O 	0.42198 0.04866 0.40980 -0.55500
O 	O 	0.62822 0.85396 0.20594 -0.35600
O 	O 	0.54866 0.92198 0.11956 -0.39200
O 	O 	0.62822 0.31188 0.85396 -0.36300
O 	O 	0.54866 0.40980 0.92198 -0.36300
O 	O 	0.35396 0.20594 0.12822 -0.42700
O 	O 	0.42198 0.11956 0.04866 -0.58600
O 	O 	0.81188 0.12822 0.20594 -0.42500
O 	O 	0.90980 0.04866 0.11956 -0.51500
O 	O 	0.70594 0.85396 0.31188 -0.36100
O 	O 	0.61956 0.92198 0.40980 -0.36200
O 	O 	0.35396 0.31188 0.20594 -0.39600
O 	O 	0.42198 0.40980 0.11956 -0.48700
O 	O 	0.62822 0.20594 0.31188 -0.39700
O 	O 	0.54866 0.11956 0.40980 -0.48800
O 	O 	0.70594 0.12822 0.85396 -0.39100
O 	O 	0.61956 0.04866 0.92198 -0.45500
O 	O 	0.81188 0.85396 0.12822 -0.39000
O 	O 	0.90980 0.92198 0.04866 -0.39300
O 	O 	0.31188 0.70594 0.62822 -0.39600
O 	O 	0.40980 0.61956 0.54866 -0.45200
O 	O 	0.20594 0.81188 0.35396 -0.38700
O 	O 	0.11956 0.90980 0.42198 -0.41500
O 	O 	0.12822 0.35396 0.81188 -0.42600
O 	O 	0.04866 0.42198 0.90980 -0.48400
O 	O 	0.85396 0.62822 0.70594 -0.35600
O 	O 	0.92198 0.54866 0.61956 -0.35700
O 	O 	0.31188 0.62822 0.35396 -0.39800
O 	O 	0.40980 0.54866 0.42198 -0.45400
O 	O 	0.20594 0.35396 0.62822 -0.39100
O 	O 	0.11956 0.42198 0.54866 -0.48400
O 	O 	0.12822 0.81188 0.70594 -0.42400
O 	O 	0.04866 0.90980 0.61956 -0.48200
O 	O 	0.85396 0.70594 0.81188 -0.35500
O 	O 	0.92198 0.61956 0.90980 -0.29900
O 	O 	0.31188 0.35396 0.70594 -0.39500
O 	O 	0.40980 0.42198 0.61956 -0.45100
O 	O 	0.20594 0.62822 0.81188 -0.38900
O 	O 	0.11956 0.54866 0.90980 -0.41600
O 	O 	0.12822 0.70594 0.35396 -0.42600
O 	O 	0.04866 0.61956 0.42198 -0.55000
O 	O 	0.85396 0.81188 0.62822 -0.35500
O 	O 	0.92198 0.90980 0.54866 -0.29900
O 	O 	0.29406 0.68812 0.87178 -0.35300
O 	O 	0.38044 0.59020 0.95134 -0.33800
O 	O 	0.18812 0.79406 0.14604 -0.43000
O 	O 	0.09020 0.88044 0.07802 -0.54100
O 	O 	0.64604 0.87178 0.68812 -0.35300
O 	O 	0.57802 0.95134 0.59020 -0.33800
O 	O 	0.37178 0.14604 0.79406 -0.42700
O 	O 	0.45134 0.07802 0.88044 -0.48200
O 	O 	0.37178 0.68812 0.14604 -0.42100
O 	O 	0.45134 0.59020 0.07802 -0.52500
O 	O 	0.64604 0.79406 0.87178 -0.35900
O 	O 	0.57802 0.88044 0.95134 -0.30300
O 	O 	0.18812 0.87178 0.79406 -0.35900
O 	O 	0.09020 0.95134 0.88044 -0.35200
O 	O 	0.29406 0.14604 0.68812 -0.42500
O 	O 	0.38044 0.07802 0.59020 -0.52900
O 	O 	0.64604 0.68812 0.79406 -0.39000
O 	O 	0.57802 0.59020 0.88044 -0.40500
O 	O 	0.37178 0.79406 0.68812 -0.38900
O 	O 	0.45134 0.88044 0.59020 -0.40300
O 	O 	0.29406 0.87178 0.14604 -0.39200
O 	O 	0.38044 0.95134 0.07802 -0.41600
O 	O 	0.18812 0.14604 0.87178 -0.39100
O 	O 	0.09020 0.07802 0.95134 -0.47200
O 	O 	0.62018 0.37982 0.25000 -0.15900
O 	O 	0.87982 0.12018 0.75000 -0.14500
O 	O 	0.75000 0.75000 0.12018 -0.18600
O 	O 	0.25000 0.25000 0.37982 -0.16700
O 	O 	0.62018 0.25000 0.75000 -0.15300
O 	O 	0.87982 0.75000 0.25000 -0.10500
O 	O 	0.75000 0.12018 0.37982 -0.19300
O 	O 	0.25000 0.37982 0.12018 -0.20900
O 	O 	0.62018 0.75000 0.37982 -0.14600
O 	O 	0.87982 0.25000 0.12018 -0.15800
O 	O 	0.75000 0.37982 0.75000 -0.14000
O 	O 	0.25000 0.12018 0.25000 -0.21600
O 	O 	0.37982 0.62018 0.75000 -0.14600
O 	O 	0.12018 0.87982 0.25000 -0.16000
O 	O 	0.25000 0.25000 0.87982 -0.11800
O 	O 	0.75000 0.75000 0.62018 -0.14000
O 	O 	0.37982 0.75000 0.25000 -0.15200
O 	O 	0.12018 0.25000 0.75000 -0.20200
O 	O 	0.25000 0.87982 0.62018 -0.11100
O 	O 	0.75000 0.62018 0.87982 -0.10000
O 	O 	0.37982 0.25000 0.62018 -0.15900
O 	O 	0.12018 0.75000 0.87982 -0.14700
O 	O 	0.25000 0.62018 0.25000 -0.16600
O 	O 	0.75000 0.87982 0.75000 -0.09600
