data_crystal

_cell_length_a 13.04700
_cell_length_b 11.68930
_cell_length_c 7.82440
_cell_angle_alpha 90.00000
_cell_angle_beta  109.95400
_cell_angle_gamma 90.00000

_symmetry_space_group_name_	'P 1'
_symmetry_space_group_name_H-M	'P 1'

loop_
_symmetry_equiv_pos_as_xyz
  x,y,z

loop_
_atom_site_label
_atom_site_type_symbol
_atom_site_fract_x
_atom_site_fract_y
_atom_site_fract_z
_atom_site_charge
C 	C 	0.13570 0.86620 0.95040 0.32200
O 	O 	0.13110 0.90150 0.79670 -0.42200
O 	O 	0.07290 0.91100 0.02700 -0.51100
C 	C 	0.21640 0.77580 0.05250 -0.15800
H 	H 	0.17680 0.71490 0.08690 0.03200
H 	H 	0.26560 0.80950 0.16360 0.05200
C 	C 	0.63570 0.36620 0.95040 0.36600
O 	O 	0.63110 0.40150 0.79670 -0.42400
O 	O 	0.57290 0.41100 0.02700 -0.52800
C 	C 	0.71640 0.27580 0.05250 -0.19900
H 	H 	0.67680 0.21490 0.08690 0.06700
H 	H 	0.76560 0.30950 0.16360 0.08600
C 	C 	0.86430 0.86620 0.54960 0.36100
O 	O 	0.86890 0.90150 0.70330 -0.32900
O 	O 	0.92710 0.91100 0.47300 -0.37000
C 	C 	0.78360 0.77580 0.44750 -0.20800
H 	H 	0.82320 0.71490 0.41310 0.09800
H 	H 	0.73440 0.80950 0.33640 0.07600
C 	C 	0.36430 0.36620 0.54960 0.38900
O 	O 	0.36890 0.40150 0.70330 -0.44900
O 	O 	0.42710 0.41100 0.47300 -0.54900
C 	C 	0.28360 0.27580 0.44750 -0.24400
H 	H 	0.32320 0.21490 0.41310 0.07300
H 	H 	0.23440 0.30950 0.33640 0.05900
C 	C 	0.86430 0.13380 0.04960 0.39500
O 	O 	0.86890 0.09850 0.20330 -0.33300
O 	O 	0.92710 0.08900 0.97300 -0.38700
C 	C 	0.78360 0.22420 0.94750 -0.26500
H 	H 	0.82320 0.28510 0.91310 0.11100
H 	H 	0.73440 0.19050 0.83640 0.09100
C 	C 	0.36430 0.63380 0.04960 0.42500
O 	O 	0.36890 0.59850 0.20330 -0.45500
O 	O 	0.42710 0.58900 0.97300 -0.56700
C 	C 	0.28360 0.72420 0.94750 -0.30300
H 	H 	0.32320 0.78510 0.91310 0.08600
H 	H 	0.23440 0.69050 0.83640 0.07300
C 	C 	0.13570 0.13380 0.45040 0.35800
O 	O 	0.13110 0.09850 0.29670 -0.42600
O 	O 	0.07290 0.08900 0.52700 -0.52900
C 	C 	0.21640 0.22420 0.55250 -0.21700
H 	H 	0.17680 0.28510 0.58690 0.04600
H 	H 	0.26560 0.19050 0.66360 0.06600
C 	C 	0.63570 0.63380 0.45040 0.40100
O 	O 	0.63110 0.59850 0.29670 -0.43000
O 	O 	0.57290 0.58900 0.52700 -0.54500
C 	C 	0.71640 0.72420 0.55250 -0.25400
H 	H 	0.67680 0.78510 0.58690 0.08000
H 	H 	0.76560 0.69050 0.66360 0.09900
Er	Er	0.00000 0.05540 0.75000 1.03400
Er	Er	0.50000 0.55540 0.75000 1.40100
Er	Er	0.00000 0.94460 0.25000 1.04300
Er	Er	0.50000 0.44460 0.25000 1.41200
