data_crystal

_cell_length_a 22.70530
_cell_length_b 12.35570
_cell_length_c 8.39310
_cell_angle_alpha 90.00000
_cell_angle_beta  93.87800
_cell_angle_gamma 90.00000

_symmetry_space_group_name_	'P 1'
_symmetry_space_group_name_H-M	'P 1'

loop_
_symmetry_equiv_pos_as_xyz
  x,y,z

loop_
_atom_site_label
_atom_site_type_symbol
_atom_site_fract_x
_atom_site_fract_y
_atom_site_fract_z
_atom_site_charge
La	La	0.80996 0.04108 0.46540 1.63600
O 	O 	0.70008 0.08840 0.50650 -0.40300
O 	O 	0.91620 0.08410 0.53860 -0.40600
C 	C 	0.66164 0.16710 0.89740 -0.11200
H 	H 	0.69350 0.12940 0.95940 0.06600
C 	C 	0.70101 0.07440 0.65570 0.33600
C 	C 	0.60921 0.17330 0.00420 -0.17500
H 	H 	0.59550 0.10150 0.02510 0.02200
H 	H 	0.57780 0.21420 0.95090 -0.05700
H 	H 	0.62160 0.20790 0.10320 0.01100
C 	C 	0.64658 0.09800 0.74670 -0.09900
H 	H 	0.63400 0.02760 0.78640 0.04500
C 	C 	0.97440 0.09740 0.77820 -0.13000
H 	H 	0.96880 0.08690 0.89200 0.03200
C 	C 	0.97960 0.01830 0.77520 -0.00300
H 	H 	0.97460 0.02970 0.88910 0.02000
C 	C 	0.59389 0.13990 0.63950 -0.17800
H 	H 	0.55890 0.13780 0.69740 -0.01100
H 	H 	0.58850 0.09510 0.54620 0.02200
H 	H 	0.60140 0.21310 0.60800 -0.01300
H 	H 	0.99710 0.88560 0.86190 0.06100
H 	H 	0.02820 0.85000 0.70920 0.05300
H 	H 	0.96210 0.88770 0.69440 0.06400
H 	H 	0.96940 0.26780 0.75960 0.06000
H 	H 	0.01430 0.21910 0.64510 0.14400
H 	H 	0.03180 0.22940 0.82830 0.13000
O 	O 	0.74725 0.03700 0.73060 -0.47500
C 	C 	0.68462 0.28090 0.86380 0.34300
O 	O 	0.68999 0.34640 0.98060 -0.44500
O 	O 	0.69867 0.30230 0.72410 -0.44200
O 	O 	0.87270 0.01470 0.74180 -0.46500
C 	C 	0.91990 0.03570 0.68200 0.14400
C 	C 	0.91650 0.07310 0.67900 0.12100
La	La	0.30996 0.54108 0.46540 1.60900
O 	O 	0.20008 0.58840 0.50650 -0.38800
O 	O 	0.41620 0.58410 0.53860 -0.43300
C 	C 	0.16164 0.66710 0.89740 -0.06100
H 	H 	0.19350 0.62940 0.95940 0.04500
C 	C 	0.20101 0.57440 0.65570 0.31300
C 	C 	0.10921 0.67330 0.00420 -0.37700
H 	H 	0.09550 0.60150 0.02510 0.12900
H 	H 	0.07780 0.71420 0.95090 0.12100
H 	H 	0.12160 0.70790 0.10320 0.12900
C 	C 	0.14658 0.59800 0.74670 -0.03400
H 	H 	0.13400 0.52760 0.78640 0.03900
C 	C 	0.47440 0.59740 0.77820 0.20000
H 	H 	0.46880 0.58690 0.89200 -0.12400
C 	C 	0.47960 0.51830 0.77520 0.51100
H 	H 	0.47460 0.52970 0.88910 -0.16300
C 	C 	0.09389 0.63990 0.63950 -0.41400
H 	H 	0.05890 0.63780 0.69740 0.13900
H 	H 	0.08850 0.59510 0.54620 0.14300
H 	H 	0.10140 0.71310 0.60800 0.14000
H 	H 	0.49710 0.38560 0.86190 1.02200
H 	H 	0.52820 0.35000 0.70920 0.71000
H 	H 	0.46210 0.38770 0.69440 1.04600
H 	H 	0.46940 0.76780 0.75960 0.63000
H 	H 	0.51430 0.71910 0.64510 0.96200
H 	H 	0.53180 0.72940 0.82830 0.84200
O 	O 	0.24725 0.53700 0.73060 -0.47200
C 	C 	0.18462 0.78090 0.86380 0.35000
O 	O 	0.18999 0.84640 0.98060 -0.43300
O 	O 	0.19867 0.80230 0.72410 -0.43300
O 	O 	0.37270 0.51470 0.74180 -0.45400
C 	C 	0.41990 0.53570 0.68200 0.12200
C 	C 	0.41650 0.57310 0.67900 -0.12000
La	La	0.19004 0.04108 0.03460 1.62100
O 	O 	0.29992 0.08840 0.99350 -0.39700
O 	O 	0.08380 0.08410 0.96140 -0.38600
C 	C 	0.33836 0.16710 0.60260 -0.13800
H 	H 	0.30650 0.12940 0.54060 0.06900
C 	C 	0.29899 0.07440 0.84430 0.33000
C 	C 	0.39079 0.17330 0.49580 -0.12200
H 	H 	0.40450 0.10150 0.47490 0.00900
H 	H 	0.42220 0.21420 0.54910 -0.07700
H 	H 	0.37840 0.20790 0.39680 -0.00400
C 	C 	0.35342 0.09800 0.75330 -0.08400
H 	H 	0.36600 0.02760 0.71360 0.04100
C 	C 	0.02560 0.09740 0.72180 0.10500
H 	H 	0.03120 0.08690 0.60800 -0.04200
C 	C 	0.02040 0.01830 0.72480 -0.03200
H 	H 	0.02540 0.02970 0.61090 0.06700
C 	C 	0.40611 0.13990 0.86050 -0.19600
H 	H 	0.44110 0.13780 0.80260 -0.00500
H 	H 	0.41150 0.09510 0.95380 0.03000
H 	H 	0.39860 0.21310 0.89200 -0.00600
H 	H 	0.00290 0.88560 0.63810 0.13400
H 	H 	0.97180 0.85000 0.79080 0.05600
H 	H 	0.03790 0.88770 0.80560 0.12100
H 	H 	0.03060 0.26780 0.74040 0.07100
H 	H 	0.98570 0.21910 0.85490 0.09800
H 	H 	0.96820 0.22940 0.67170 0.09200
O 	O 	0.25275 0.03700 0.76940 -0.47400
C 	C 	0.31538 0.28090 0.63620 0.35000
O 	O 	0.31001 0.34640 0.51940 -0.44800
O 	O 	0.30133 0.30230 0.77590 -0.44300
O 	O 	0.12730 0.01470 0.75820 -0.45200
C 	C 	0.08010 0.03570 0.81800 0.07600
C 	C 	0.08350 0.07310 0.82100 0.14500
La	La	0.69004 0.54108 0.03460 1.61000
O 	O 	0.79992 0.58840 0.99350 -0.39100
O 	O 	0.58380 0.58410 0.96140 -0.43400
C 	C 	0.83836 0.66710 0.60260 -0.05700
H 	H 	0.80650 0.62940 0.54060 0.04500
C 	C 	0.79899 0.57440 0.84430 0.32100
C 	C 	0.89079 0.67330 0.49580 -0.36500
H 	H 	0.90450 0.60150 0.47490 0.11400
H 	H 	0.92220 0.71420 0.54910 0.10400
H 	H 	0.87840 0.70790 0.39680 0.12400
C 	C 	0.85342 0.59800 0.75330 -0.05800
H 	H 	0.86600 0.52760 0.71360 0.04200
C 	C 	0.52560 0.59740 0.72180 0.20000
H 	H 	0.53120 0.58690 0.60800 -0.12400
C 	C 	0.52040 0.51830 0.72480 0.51000
H 	H 	0.52540 0.52970 0.61090 -0.16400
C 	C 	0.90611 0.63990 0.86050 -0.34600
H 	H 	0.94110 0.63780 0.80260 0.09300
H 	H 	0.91150 0.59510 0.95380 0.11000
H 	H 	0.89860 0.71310 0.89200 0.11300
H 	H 	0.50290 0.38560 0.63810 1.02100
H 	H 	0.47180 0.35000 0.79080 0.71000
H 	H 	0.53790 0.38770 0.80560 1.04600
H 	H 	0.53060 0.76780 0.74040 0.63000
H 	H 	0.48570 0.71910 0.85490 0.96100
H 	H 	0.46820 0.72940 0.67170 0.84300
O 	O 	0.75275 0.53700 0.76940 -0.47400
C 	C 	0.81538 0.78090 0.63620 0.34800
O 	O 	0.81001 0.84640 0.51940 -0.43100
O 	O 	0.80133 0.80230 0.77590 -0.43200
O 	O 	0.62730 0.51470 0.75820 -0.45400
C 	C 	0.58010 0.53570 0.81800 0.12200
C 	C 	0.58350 0.57310 0.82100 -0.12000
La	La	0.19004 0.95892 0.53460 1.63100
O 	O 	0.29992 0.91160 0.49350 -0.40400
O 	O 	0.08380 0.91590 0.46140 -0.39000
C 	C 	0.33836 0.83290 0.10260 -0.11700
H 	H 	0.30650 0.87060 0.04060 0.06500
C 	C 	0.29899 0.92560 0.34430 0.33400
C 	C 	0.39079 0.82670 0.99580 -0.16600
H 	H 	0.40450 0.89850 0.97490 0.01900
H 	H 	0.42220 0.78580 0.04910 -0.06000
H 	H 	0.37840 0.79210 0.89680 0.00800
C 	C 	0.35342 0.90200 0.25330 -0.09700
H 	H 	0.36600 0.97240 0.21360 0.04400
C 	C 	0.02560 0.90260 0.22180 0.10100
H 	H 	0.03120 0.91310 0.10800 -0.03700
C 	C 	0.02040 0.98170 0.22480 -0.02000
H 	H 	0.02540 0.97030 0.11090 0.06200
C 	C 	0.40611 0.86010 0.36050 -0.17900
H 	H 	0.44110 0.86220 0.30260 -0.01100
H 	H 	0.41150 0.90490 0.45380 0.02300
H 	H 	0.39860 0.78690 0.39200 -0.01200
H 	H 	0.00290 0.11440 0.13810 0.14800
H 	H 	0.97180 0.15000 0.29080 0.06800
H 	H 	0.03790 0.11230 0.30560 0.13800
H 	H 	0.03060 0.73220 0.24040 0.07900
H 	H 	0.98570 0.78090 0.35490 0.11100
H 	H 	0.96820 0.77060 0.17170 0.10400
O 	O 	0.25275 0.96300 0.26940 -0.47600
C 	C 	0.31538 0.71910 0.13620 0.34500
O 	O 	0.31001 0.65360 0.01940 -0.44600
O 	O 	0.30133 0.69770 0.27590 -0.44200
O 	O 	0.12730 0.98530 0.25820 -0.45300
C 	C 	0.08010 0.96430 0.31800 0.08200
C 	C 	0.08350 0.92690 0.32100 0.13600
La	La	0.69004 0.45892 0.53460 1.61000
O 	O 	0.79992 0.41160 0.49350 -0.39000
O 	O 	0.58380 0.41590 0.46140 -0.43300
C 	C 	0.83836 0.33290 0.10260 -0.07300
H 	H 	0.80650 0.37060 0.04060 0.04900
C 	C 	0.79899 0.42560 0.34430 0.31800
C 	C 	0.89079 0.32670 0.99580 -0.32800
H 	H 	0.90450 0.39850 0.97490 0.10400
H 	H 	0.92220 0.28580 0.04910 0.09000
H 	H 	0.87840 0.29210 0.89680 0.11500
C 	C 	0.85342 0.40200 0.25330 -0.04900
H 	H 	0.86600 0.47240 0.21360 0.03900
C 	C 	0.52560 0.40260 0.22180 0.19900
H 	H 	0.53120 0.41310 0.10800 -0.12500
C 	C 	0.52040 0.48170 0.22480 0.50900
H 	H 	0.52540 0.47030 0.11090 -0.16300
C 	C 	0.90611 0.36010 0.36050 -0.35600
H 	H 	0.94110 0.36220 0.30260 0.09500
H 	H 	0.91150 0.40490 0.45380 0.11300
H 	H 	0.89860 0.28690 0.39200 0.11700
H 	H 	0.50290 0.61440 0.13810 1.01800
H 	H 	0.47180 0.65000 0.29080 0.70800
H 	H 	0.53790 0.61230 0.30560 1.04300
H 	H 	0.53060 0.23220 0.24040 0.62800
H 	H 	0.48570 0.28090 0.35490 0.95900
H 	H 	0.46820 0.27060 0.17170 0.83900
O 	O 	0.75275 0.46300 0.26940 -0.47300
C 	C 	0.81538 0.21910 0.13620 0.35300
O 	O 	0.81001 0.15360 0.01940 -0.43500
O 	O 	0.80133 0.19770 0.27590 -0.43300
O 	O 	0.62730 0.48530 0.25820 -0.45400
C 	C 	0.58010 0.46430 0.31800 0.12200
C 	C 	0.58350 0.42690 0.32100 -0.11900
La	La	0.80996 0.95892 0.96540 1.62600
O 	O 	0.70008 0.91160 0.00650 -0.39800
O 	O 	0.91620 0.91590 0.03860 -0.40000
C 	C 	0.66164 0.83290 0.39740 -0.13800
H 	H 	0.69350 0.87060 0.45940 0.06900
C 	C 	0.70101 0.92560 0.15570 0.33000
C 	C 	0.60921 0.82670 0.50420 -0.12200
H 	H 	0.59550 0.89850 0.52510 0.00900
H 	H 	0.57780 0.78580 0.45090 -0.07700
H 	H 	0.62160 0.79210 0.60320 -0.00400
C 	C 	0.64658 0.90200 0.24670 -0.08500
H 	H 	0.63400 0.97240 0.28640 0.04000
C 	C 	0.97440 0.90260 0.27820 -0.12300
H 	H 	0.96880 0.91310 0.39200 0.03000
C 	C 	0.97960 0.98170 0.27520 0.00500
H 	H 	0.97460 0.97030 0.38910 0.01500
C 	C 	0.59389 0.86010 0.13950 -0.19400
H 	H 	0.55890 0.86220 0.19740 -0.00600
H 	H 	0.58850 0.90490 0.04620 0.02900
H 	H 	0.60140 0.78690 0.10800 -0.00700
H 	H 	0.99710 0.11440 0.36190 0.07900
H 	H 	0.02820 0.15000 0.20920 0.06500
H 	H 	0.96210 0.11230 0.19440 0.08100
H 	H 	0.96940 0.73220 0.25960 0.06800
H 	H 	0.01430 0.78090 0.14510 0.15800
H 	H 	0.03180 0.77060 0.32830 0.14100
O 	O 	0.74725 0.96300 0.23060 -0.47400
C 	C 	0.68462 0.71910 0.36380 0.35000
O 	O 	0.68999 0.65360 0.48060 -0.44800
O 	O 	0.69867 0.69770 0.22410 -0.44300
O 	O 	0.87270 0.98530 0.24180 -0.46500
C 	C 	0.91990 0.96430 0.18200 0.14100
C 	C 	0.91650 0.92690 0.17900 0.12000
La	La	0.30996 0.45892 0.96540 1.61100
O 	O 	0.20008 0.41160 0.00650 -0.39000
O 	O 	0.41620 0.41590 0.03860 -0.43500
C 	C 	0.16164 0.33290 0.39740 -0.05100
H 	H 	0.19350 0.37060 0.45940 0.04300
C 	C 	0.20101 0.42560 0.15570 0.31500
C 	C 	0.10921 0.32670 0.50420 -0.39900
H 	H 	0.09550 0.39850 0.52510 0.13600
H 	H 	0.07780 0.28580 0.45090 0.12800
H 	H 	0.12160 0.29210 0.60320 0.13600
C 	C 	0.14658 0.40200 0.24670 -0.04100
H 	H 	0.13400 0.47240 0.28640 0.04000
C 	C 	0.47440 0.40260 0.27820 0.19900
H 	H 	0.46880 0.41310 0.39200 -0.12400
C 	C 	0.47960 0.48170 0.27520 0.50800
H 	H 	0.47460 0.47030 0.38910 -0.16300
C 	C 	0.09389 0.36010 0.13950 -0.40500
H 	H 	0.05890 0.36220 0.19740 0.13500
H 	H 	0.08850 0.40490 0.04620 0.14000
H 	H 	0.10140 0.28690 0.10800 0.13500
H 	H 	0.49710 0.61440 0.36190 1.01800
H 	H 	0.52820 0.65000 0.20920 0.70800
H 	H 	0.46210 0.61230 0.19440 1.04300
H 	H 	0.46940 0.23220 0.25960 0.62800
H 	H 	0.51430 0.28090 0.14510 0.95800
H 	H 	0.53180 0.27060 0.32830 0.84000
O 	O 	0.24725 0.46300 0.23060 -0.47200
C 	C 	0.18462 0.21910 0.36380 0.34600
O 	O 	0.18999 0.15360 0.48060 -0.43000
O 	O 	0.19867 0.19770 0.22410 -0.43300
O 	O 	0.37270 0.48530 0.24180 -0.45400
C 	C 	0.41990 0.46430 0.18200 0.12200
C 	C 	0.41650 0.42690 0.17900 -0.11900
C 	C 	0.00000 0.89890 0.75000 -0.42300
C 	C 	0.00000 0.21510 0.75000 -0.52600
C 	C 	0.50000 0.39890 0.75000 -5.13500
C 	C 	0.50000 0.71510 0.75000 -4.43600
C 	C 	0.00000 0.10110 0.25000 -0.50400
C 	C 	0.00000 0.78490 0.25000 -0.58400
C 	C 	0.50000 0.60110 0.25000 -5.11800
C 	C 	0.50000 0.28490 0.25000 -4.42200
