data_crystal

_cell_length_a 12.70200
_cell_length_b 9.36500
_cell_length_c 11.25300
_cell_angle_alpha 90.00000
_cell_angle_beta  90.00000
_cell_angle_gamma 90.00000

_symmetry_space_group_name_	'P 1'
_symmetry_space_group_name_H-M	'P 1'

loop_
_symmetry_equiv_pos_as_xyz
  x,y,z

loop_
_atom_site_label
_atom_site_type_symbol
_atom_site_fract_x
_atom_site_fract_y
_atom_site_fract_z
_atom_site_charge
P 	P 	0.42472 0.51160 0.20056 0.77200
O 	O 	0.23780 0.86820 0.11240 -0.64400
O 	O 	0.51410 0.53060 0.10950 -0.61100
H 	H 	0.56970 0.50320 0.13860 0.25800
O 	O 	0.37320 0.36780 0.17670 -0.82500
O 	O 	0.34490 0.62990 0.17680 -0.83800
O 	O 	0.15340 0.01480 0.95590 -0.64200
O 	O 	0.03100 0.47730 0.32470 -0.96800
P 	P 	0.07528 0.48840 0.20056 0.53600
O 	O 	0.26220 0.13180 0.11240 -0.90200
O 	O 	0.98590 0.46940 0.10950 -0.27700
H 	H 	0.93030 0.49680 0.13860 0.23500
O 	O 	0.12680 0.63220 0.17670 -0.80100
O 	O 	0.15510 0.37010 0.17680 -0.86600
O 	O 	0.34660 0.98520 0.95590 -0.17200
O 	O 	0.46900 0.52270 0.32470 -0.85200
P 	P 	0.07528 0.01160 0.29944 0.30400
O 	O 	0.26220 0.36820 0.38760 -0.88600
O 	O 	0.98590 0.03060 0.39050 -0.19900
H 	H 	0.93030 0.00320 0.36140 0.15600
O 	O 	0.12680 0.86780 0.32330 -0.55200
O 	O 	0.15510 0.12990 0.32320 -0.84000
O 	O 	0.34660 0.51480 0.54410 -0.79600
O 	O 	0.46900 0.97730 0.17530 -0.79200
P 	P 	0.42472 0.98840 0.29944 1.01000
O 	O 	0.23780 0.63180 0.38760 -0.85800
O 	O 	0.51410 0.96940 0.39050 -0.45000
H 	H 	0.56970 0.99680 0.36140 0.35400
O 	O 	0.37320 0.13220 0.32330 -0.96300
O 	O 	0.34490 0.87010 0.32320 -0.75600
O 	O 	0.15340 0.48520 0.54410 -0.89000
O 	O 	0.03100 0.02270 0.17530 -1.12100
P 	P 	0.57528 0.48840 0.79944 0.76800
O 	O 	0.76220 0.13180 0.88760 -0.84000
O 	O 	0.48590 0.46940 0.89050 -0.37600
H 	H 	0.43030 0.49680 0.86140 0.28400
O 	O 	0.62680 0.63220 0.82330 -0.65300
O 	O 	0.65510 0.37010 0.82320 -0.73200
O 	O 	0.84660 0.98520 0.04410 -0.66500
O 	O 	0.96900 0.52270 0.67530 -0.71400
P 	P 	0.92472 0.51160 0.79944 0.98500
O 	O 	0.73780 0.86820 0.88760 -0.61500
O 	O 	0.01410 0.53060 0.89050 -0.69000
H 	H 	0.06970 0.50320 0.86140 0.30500
O 	O 	0.87320 0.36780 0.82330 -0.67100
O 	O 	0.84490 0.62990 0.82320 -0.70800
O 	O 	0.65340 0.01480 0.04410 -1.19600
O 	O 	0.53100 0.47730 0.67530 -0.84300
P 	P 	0.92472 0.98840 0.70056 1.19700
O 	O 	0.73780 0.63180 0.61240 -0.83400
O 	O 	0.01410 0.96940 0.60950 -0.77000
H 	H 	0.06970 0.99680 0.63860 0.38100
O 	O 	0.87320 0.13220 0.67670 -0.90200
O 	O 	0.84490 0.87010 0.67680 -0.72900
O 	O 	0.65340 0.48520 0.45590 -0.80400
O 	O 	0.53100 0.02270 0.82470 -0.86000
P 	P 	0.57528 0.01160 0.70056 0.53800
O 	O 	0.76220 0.36820 0.61240 -0.86100
O 	O 	0.48590 0.03060 0.60950 -0.54500
H 	H 	0.43030 0.00320 0.63860 0.18800
O 	O 	0.62680 0.86780 0.67670 -0.52200
O 	O 	0.65510 0.12990 0.67680 -0.81200
O 	O 	0.84660 0.51480 0.45590 -0.69400
O 	O 	0.96900 0.97730 0.82470 -0.55600
Ti	Ti	0.25799 0.25000 0.25000 3.11200
Ti	Ti	0.24201 0.75000 0.25000 3.11300
Ti	Ti	0.74201 0.75000 0.75000 3.11600
Ti	Ti	0.75799 0.25000 0.75000 3.11500
Ti	Ti	-0.00000 0.00000 -0.00000 2.95700
Ti	Ti	0.50000 0.00000 -0.00000 2.99400
Ti	Ti	0.50000 0.50000 0.50000 3.06600
Ti	Ti	0.00000 0.50000 0.50000 3.02900
P 	P 	0.25000 -0.00000 0.03370 -0.13300
P 	P 	0.25000 0.50000 0.46630 0.80600
P 	P 	0.75000 0.00000 0.96630 0.85800
P 	P 	0.75000 0.50000 0.53370 0.78900
