data_crystal

_cell_length_a 11.25200
_cell_length_b 20.07800
_cell_length_c 20.07800
_cell_angle_alpha 90.00000
_cell_angle_beta  90.00000
_cell_angle_gamma 90.00000

_symmetry_space_group_name_	'P 1'
_symmetry_space_group_name_H-M	'P 1'

loop_
_symmetry_equiv_pos_as_xyz
  x,y,z

loop_
_atom_site_label
_atom_site_type_symbol
_atom_site_fract_x
_atom_site_fract_y
_atom_site_fract_z
_atom_site_charge
Co	Co	0.53643 0.25536 0.75536 1.18600
Co	Co	0.41989 0.37226 0.87226 1.10500
Co	Co	0.53643 0.74464 0.24464 1.18600
Co	Co	0.41989 0.62774 0.12774 1.10500
Co	Co	0.46357 0.75536 0.74464 1.18600
Co	Co	0.58011 0.87226 0.62774 1.10400
Co	Co	0.46357 0.24464 0.25536 1.18500
Co	Co	0.58011 0.12774 0.37226 1.10400
H 	H 	0.34480 0.31930 0.77090 0.39500
H 	H 	0.74790 0.16300 0.90040 0.08000
H 	H 	0.78900 0.12240 0.09500 0.09000
H 	H 	0.55740 0.26400 0.03660 0.04000
H 	H 	0.97010 0.08720 0.05470 0.04100
H 	H 	0.86360 0.03440 0.06200 0.04300
H 	H 	0.34480 0.68070 0.22910 0.39500
H 	H 	0.74790 0.83700 0.09960 0.08000
H 	H 	0.78900 0.87760 0.90500 0.09000
H 	H 	0.55740 0.73600 0.96340 0.04000
H 	H 	0.97010 0.91280 0.94530 0.04000
H 	H 	0.86360 0.96560 0.93800 0.04300
H 	H 	0.65520 0.77090 0.68070 0.39500
H 	H 	0.25210 0.90040 0.83700 0.08000
H 	H 	0.21100 0.09500 0.87760 0.09000
H 	H 	0.44260 0.03660 0.73600 0.04000
H 	H 	0.02990 0.05470 0.91280 0.04000
H 	H 	0.13640 0.06200 0.96560 0.04300
H 	H 	0.65520 0.22910 0.31930 0.39500
H 	H 	0.25210 0.09960 0.16300 0.08000
H 	H 	0.21100 0.90500 0.12240 0.09000
H 	H 	0.44260 0.96340 0.26400 0.04000
H 	H 	0.02990 0.94530 0.08720 0.04000
H 	H 	0.13640 0.93800 0.03440 0.04300
H 	H 	0.65520 0.18070 0.27090 0.39500
H 	H 	0.25210 0.33700 0.40040 0.08000
H 	H 	0.21100 0.37760 0.59500 0.09000
H 	H 	0.44260 0.23600 0.53660 0.04000
H 	H 	0.02990 0.41280 0.55470 0.04000
H 	H 	0.13640 0.46560 0.56200 0.04300
H 	H 	0.65520 0.81930 0.72910 0.39500
H 	H 	0.25210 0.66300 0.59960 0.08000
H 	H 	0.21100 0.62240 0.40500 0.09000
H 	H 	0.44260 0.76400 0.46340 0.04000
H 	H 	0.02990 0.58720 0.44530 0.04000
H 	H 	0.13640 0.53440 0.43800 0.04300
H 	H 	0.34480 0.72910 0.18070 0.39500
H 	H 	0.74790 0.59960 0.33700 0.08000
H 	H 	0.78900 0.40500 0.37760 0.09000
H 	H 	0.55740 0.46340 0.23600 0.04000
H 	H 	0.97010 0.44530 0.41280 0.04100
H 	H 	0.86360 0.43800 0.46560 0.04300
H 	H 	0.34480 0.27090 0.81930 0.39500
H 	H 	0.74790 0.40040 0.66300 0.08000
H 	H 	0.78900 0.59500 0.62240 0.09000
H 	H 	0.55740 0.53660 0.76400 0.04000
H 	H 	0.97010 0.55470 0.58720 0.04100
H 	H 	0.86360 0.56200 0.53440 0.04300
C 	C 	0.59420 0.25920 0.90370 0.39100
C 	C 	0.64690 0.21990 0.95950 -0.06900
C 	C 	0.72750 0.17140 0.94560 -0.09400
C 	C 	0.78300 0.13240 0.99740 0.18200
C 	C 	0.75080 0.14540 0.05970 -0.13600
C 	C 	0.66230 0.19200 0.07480 -0.03300
C 	C 	0.61360 0.23040 0.02580 -0.00800
C 	C 	0.62780 0.20110 0.14820 0.33300
C 	C 	0.92090 0.05440 0.03040 0.01800
C 	C 	0.59420 0.74080 0.09630 0.39100
C 	C 	0.64690 0.78010 0.04050 -0.07000
C 	C 	0.72750 0.82860 0.05440 -0.09400
C 	C 	0.78300 0.86760 0.00260 0.18100
C 	C 	0.75080 0.85460 0.94030 -0.13500
C 	C 	0.66230 0.80800 0.92520 -0.03300
C 	C 	0.61360 0.76960 0.97420 -0.00700
C 	C 	0.62780 0.79890 0.85180 0.33400
C 	C 	0.92090 0.94560 0.96960 0.01800
C 	C 	0.40580 0.90370 0.74080 0.39100
C 	C 	0.35310 0.95950 0.78010 -0.06900
C 	C 	0.27250 0.94560 0.82860 -0.09400
C 	C 	0.21700 0.99740 0.86760 0.18100
C 	C 	0.24920 0.05970 0.85460 -0.13600
C 	C 	0.33770 0.07480 0.80800 -0.03300
C 	C 	0.38640 0.02580 0.76960 -0.00800
C 	C 	0.37220 0.14820 0.79890 0.33300
C 	C 	0.07910 0.03040 0.94560 0.01800
C 	C 	0.40580 0.09630 0.25920 0.39100
C 	C 	0.35310 0.04050 0.21990 -0.07000
C 	C 	0.27250 0.05440 0.17140 -0.09400
C 	C 	0.21700 0.00260 0.13240 0.18100
C 	C 	0.24920 0.94030 0.14540 -0.13500
C 	C 	0.33770 0.92520 0.19200 -0.03300
C 	C 	0.38640 0.97420 0.23040 -0.00700
C 	C 	0.37220 0.85180 0.20110 0.33400
C 	C 	0.07910 0.96960 0.05440 0.01800
C 	C 	0.40580 0.24080 0.40370 0.39100
C 	C 	0.35310 0.28010 0.45950 -0.07000
C 	C 	0.27250 0.32860 0.44560 -0.09400
C 	C 	0.21700 0.36760 0.49740 0.18100
C 	C 	0.24920 0.35460 0.55970 -0.13500
C 	C 	0.33770 0.30800 0.57480 -0.03300
C 	C 	0.38640 0.26960 0.52580 -0.00800
C 	C 	0.37220 0.29890 0.64820 0.33300
C 	C 	0.07910 0.44560 0.53040 0.01800
C 	C 	0.40580 0.75920 0.59630 0.39100
C 	C 	0.35310 0.71990 0.54050 -0.07000
C 	C 	0.27250 0.67140 0.55440 -0.09400
C 	C 	0.21700 0.63240 0.50260 0.18100
C 	C 	0.24920 0.64540 0.44030 -0.13500
C 	C 	0.33770 0.69200 0.42520 -0.03300
C 	C 	0.38640 0.73040 0.47420 -0.00800
C 	C 	0.37220 0.70110 0.35180 0.33300
C 	C 	0.07910 0.55440 0.46960 0.01800
C 	C 	0.59420 0.59630 0.24080 0.39100
C 	C 	0.64690 0.54050 0.28010 -0.07000
C 	C 	0.72750 0.55440 0.32860 -0.09400
C 	C 	0.78300 0.50260 0.36760 0.18100
C 	C 	0.75080 0.44030 0.35460 -0.13500
C 	C 	0.66230 0.42520 0.30800 -0.03300
C 	C 	0.61360 0.47420 0.26960 -0.00800
C 	C 	0.62780 0.35180 0.29890 0.33300
C 	C 	0.92090 0.46960 0.44560 0.01800
C 	C 	0.59420 0.40370 0.75920 0.39100
C 	C 	0.64690 0.45950 0.71990 -0.06900
C 	C 	0.72750 0.44560 0.67140 -0.09400
C 	C 	0.78300 0.49740 0.63240 0.18100
C 	C 	0.75080 0.55970 0.64540 -0.13500
C 	C 	0.66230 0.57480 0.69200 -0.03300
C 	C 	0.61360 0.52580 0.73040 -0.00800
C 	C 	0.62780 0.64820 0.70110 0.33300
C 	C 	0.92090 0.53040 0.55440 0.01800
C 	C 	-0.00000 0.00000 -0.00000 0.00700
C 	C 	0.00000 0.50000 0.50000 0.00700
O 	O 	0.61480 0.24011 0.84640 -0.44600
O 	O 	0.53040 0.30860 0.92054 -0.47500
O 	O 	0.54010 0.23668 0.16167 -0.41400
O 	O 	0.69070 0.17020 0.18990 -0.34100
O 	O 	0.86010 0.08570 0.97798 -0.23200
O 	O 	0.61480 0.75989 0.15360 -0.44600
O 	O 	0.53040 0.69140 0.07946 -0.47500
O 	O 	0.54010 0.76332 0.83833 -0.41400
O 	O 	0.69070 0.82980 0.81010 -0.34100
O 	O 	0.86010 0.91430 0.02202 -0.23200
O 	O 	0.38520 0.84640 0.75989 -0.44600
O 	O 	0.46960 0.92054 0.69140 -0.47500
O 	O 	0.45990 0.16167 0.76332 -0.41400
O 	O 	0.30930 0.18990 0.82980 -0.34100
O 	O 	0.13990 0.97798 0.91430 -0.23300
O 	O 	0.38520 0.15360 0.24011 -0.44600
O 	O 	0.46960 0.07946 0.30860 -0.47500
O 	O 	0.45990 0.83833 0.23668 -0.41400
O 	O 	0.30930 0.81010 0.17020 -0.34100
O 	O 	0.13990 0.02202 0.08570 -0.23300
O 	O 	0.38520 0.25989 0.34640 -0.44600
O 	O 	0.46960 0.19140 0.42054 -0.47500
O 	O 	0.45990 0.26332 0.66167 -0.41400
O 	O 	0.30930 0.32980 0.68990 -0.34100
O 	O 	0.13990 0.41430 0.47798 -0.23300
O 	O 	0.38520 0.74011 0.65360 -0.44600
O 	O 	0.46960 0.80860 0.57946 -0.47500
O 	O 	0.45990 0.73668 0.33833 -0.41400
O 	O 	0.30930 0.67020 0.31010 -0.34100
O 	O 	0.13990 0.58570 0.52202 -0.23300
O 	O 	0.61480 0.65360 0.25989 -0.44600
O 	O 	0.53040 0.57946 0.19140 -0.47500
O 	O 	0.54010 0.33833 0.26332 -0.41400
O 	O 	0.69070 0.31010 0.32980 -0.34100
O 	O 	0.86010 0.52202 0.41430 -0.23200
O 	O 	0.61480 0.34640 0.74011 -0.44600
O 	O 	0.53040 0.42054 0.80860 -0.47500
O 	O 	0.54010 0.66167 0.73668 -0.41400
O 	O 	0.69070 0.68990 0.67020 -0.34100
O 	O 	0.86010 0.47798 0.58570 -0.23200
O 	O 	0.38480 0.30289 0.80289 -1.02100
O 	O 	0.38480 0.69711 0.19711 -1.02100
O 	O 	0.61520 0.80289 0.69711 -1.02100
O 	O 	0.61520 0.19711 0.30289 -1.02100
