data_crystal

_cell_length_a 11.36000
_cell_length_b 11.79900
_cell_length_c 16.35000
_cell_angle_alpha 74.01700
_cell_angle_beta  82.91400
_cell_angle_gamma 63.63400

_symmetry_space_group_name_	'P 1'
_symmetry_space_group_name_H-M	'P 1'

loop_
_symmetry_equiv_pos_as_xyz
  x,y,z

loop_
_atom_site_label
_atom_site_type_symbol
_atom_site_fract_x
_atom_site_fract_y
_atom_site_fract_z
_atom_site_charge
C 	C 	0.07360 0.71100 0.39680 0.38600
C 	C 	0.94560 0.70020 0.39870 -0.12700
C 	C 	0.94850 0.58210 0.40250 0.04100
H 	H 	0.02880 0.50930 0.40490 0.02100
C 	C 	0.83100 0.56970 0.40300 -0.11100
C 	C 	0.71330 0.67900 0.40100 -0.00800
H 	H 	0.63490 0.67210 0.40080 0.03500
C 	C 	0.70950 0.80080 0.39930 -0.00300
C 	C 	0.82670 0.80900 0.39870 -0.00600
H 	H 	0.82630 0.88810 0.39830 0.04300
C 	C 	0.82820 0.44240 0.40770 0.38100
C 	C 	0.57700 0.91220 0.40060 -0.01500
C 	C 	0.47420 0.88240 0.44110 0.01900
H 	H 	0.49120 0.79590 0.46690 0.01600
C 	C 	0.34690 0.98020 0.44340 -0.14100
C 	C 	0.32260 0.10870 0.40500 0.07500
H 	H 	0.23740 0.17430 0.40340 0.02700
C 	C 	0.42340 0.13990 0.36940 -0.12100
C 	C 	0.55000 0.04150 0.36600 0.00200
H 	H 	0.61700 0.06370 0.34000 0.04200
C 	C 	0.40170 0.28080 0.33450 0.40200
C 	C 	0.24240 0.93960 0.48410 0.40900
C 	C 	0.14990 0.83170 0.71350 0.35700
C 	C 	0.16140 0.88220 0.78620 -0.07400
C 	C 	0.26290 0.80020 0.84310 -0.02900
H 	H 	0.32150 0.72000 0.83310 0.06000
C 	C 	0.28040 0.83130 0.91220 0.02900
C 	C 	0.19020 0.95520 0.92810 -0.04100
H 	H 	0.19690 0.97750 0.97710 0.06700
C 	C 	0.09350 0.03980 0.86870 -0.05400
C 	C 	0.07690 0.00280 0.79880 0.01700
H 	H 	0.00870 0.05960 0.76080 0.06100
C 	C 	0.99790 0.17050 0.88190 0.32200
C 	C 	0.39440 0.74050 0.97090 -0.00800
C 	C 	0.51190 0.66450 0.93590 -0.01100
H 	H 	0.51760 0.67560 0.87720 0.05400
C 	C 	0.62050 0.57290 0.98530 -0.08900
C 	C 	0.61010 0.55470 0.07390 0.05500
H 	H 	0.68280 0.49700 0.10810 0.03200
C 	C 	0.49300 0.62180 0.11000 -0.14900
C 	C 	0.38220 0.71800 0.05860 0.00700
H 	H 	0.30350 0.76460 0.08360 0.04600
C 	C 	0.74150 0.48950 0.94190 0.36200
C 	C 	0.47610 0.58790 0.20480 0.46300
Zn	Zn	0.07262 0.83244 0.54857 1.22100
Zn	Zn	0.39331 0.61703 0.64010 1.21100
Zn	Zn	0.20368 0.55884 0.24711 1.22300
O 	O 	0.16830 0.63210 0.36300 -0.39900
O 	O 	0.91750 0.24610 0.82340 -0.39600
O 	O 	0.93660 0.34910 0.39780 -0.42500
O 	O 	0.72240 0.43590 0.42290 -0.47900
O 	O 	0.50290 0.30110 0.31860 -0.45800
O 	O 	0.28570 0.36400 0.32480 -0.43600
O 	O 	0.12430 0.02010 0.47160 -0.48800
O 	O 	0.27320 0.82440 0.52830 -0.49400
O 	O 	0.07950 0.79580 0.42630 -0.40400
O 	O 	0.00830 0.20170 0.94730 -0.22000
O 	O 	0.05330 0.90630 0.66120 -0.38400
O 	O 	0.22950 0.72120 0.70860 -0.44400
O 	O 	0.57960 0.53970 0.24950 -0.60100
H 	H 	0.64230 0.57230 0.23420 0.24000
O 	O 	0.36820 0.60360 0.23600 -0.46000
O 	O 	0.83440 0.40200 0.98930 -0.23600
O 	O 	0.73680 0.51490 0.86370 -0.41200
C 	C 	0.92640 0.28900 0.60320 0.38500
C 	C 	0.05440 0.29980 0.60130 -0.12800
C 	C 	0.05150 0.41790 0.59750 0.04000
H 	H 	0.97120 0.49070 0.59510 0.02000
C 	C 	0.16900 0.43030 0.59700 -0.11200
C 	C 	0.28670 0.32100 0.59900 -0.00900
H 	H 	0.36510 0.32790 0.59920 0.03500
C 	C 	0.29050 0.19920 0.60070 -0.00300
C 	C 	0.17330 0.19100 0.60130 -0.00600
H 	H 	0.17370 0.11190 0.60170 0.04300
C 	C 	0.17180 0.55760 0.59230 0.38100
C 	C 	0.42300 0.08780 0.59940 -0.01500
C 	C 	0.52580 0.11760 0.55890 0.01900
H 	H 	0.50880 0.20410 0.53310 0.01600
C 	C 	0.65310 0.01980 0.55660 -0.14100
C 	C 	0.67740 0.89130 0.59500 0.07500
H 	H 	0.76260 0.82570 0.59660 0.02700
C 	C 	0.57660 0.86010 0.63060 -0.12100
C 	C 	0.45000 0.95850 0.63400 0.00200
H 	H 	0.38300 0.93630 0.66000 0.04200
C 	C 	0.59830 0.71920 0.66550 0.40200
C 	C 	0.75760 0.06040 0.51590 0.40900
C 	C 	0.85010 0.16830 0.28650 0.35700
C 	C 	0.83860 0.11780 0.21380 -0.07400
C 	C 	0.73710 0.19980 0.15690 -0.02900
H 	H 	0.67850 0.28000 0.16690 0.06000
C 	C 	0.71960 0.16870 0.08780 0.02900
C 	C 	0.80980 0.04480 0.07190 -0.04100
H 	H 	0.80310 0.02250 0.02290 0.06700
C 	C 	0.90650 0.96020 0.13130 -0.05400
C 	C 	0.92310 0.99720 0.20120 0.01700
H 	H 	0.99130 0.94040 0.23920 0.06100
C 	C 	0.00210 0.82950 0.11810 0.32200
C 	C 	0.60560 0.25950 0.02910 -0.00800
C 	C 	0.48810 0.33550 0.06410 -0.01100
H 	H 	0.48240 0.32440 0.12280 0.05400
C 	C 	0.37950 0.42710 0.01470 -0.08900
C 	C 	0.38990 0.44530 0.92610 0.05500
H 	H 	0.31720 0.50300 0.89190 0.03200
C 	C 	0.50700 0.37820 0.89000 -0.14900
C 	C 	0.61780 0.28200 0.94140 0.00700
H 	H 	0.69650 0.23540 0.91640 0.04600
C 	C 	0.25850 0.51050 0.05810 0.36200
C 	C 	0.52390 0.41210 0.79520 0.46300
Zn	Zn	0.92738 0.16756 0.45143 1.22100
Zn	Zn	0.60669 0.38297 0.35990 1.21100
Zn	Zn	0.79632 0.44116 0.75289 1.22300
O 	O 	0.83170 0.36790 0.63700 -0.39900
O 	O 	0.08250 0.75390 0.17660 -0.39600
O 	O 	0.06340 0.65090 0.60220 -0.42500
O 	O 	0.27760 0.56410 0.57710 -0.47900
O 	O 	0.49710 0.69890 0.68140 -0.45800
O 	O 	0.71430 0.63600 0.67520 -0.43600
O 	O 	0.87570 0.97990 0.52840 -0.48800
O 	O 	0.72680 0.17560 0.47170 -0.49400
O 	O 	0.92050 0.20420 0.57370 -0.40400
O 	O 	0.99170 0.79830 0.05270 -0.22000
O 	O 	0.94670 0.09370 0.33880 -0.38400
O 	O 	0.77050 0.27880 0.29140 -0.44400
O 	O 	0.42040 0.46030 0.75050 -0.60100
H 	H 	0.35770 0.42770 0.76580 0.24000
O 	O 	0.63180 0.39640 0.76400 -0.46000
O 	O 	0.16560 0.59800 0.01070 -0.23600
O 	O 	0.26320 0.48510 0.13630 -0.41200
