data_crystal

_cell_length_a 12.10900
_cell_length_b 9.20900
_cell_length_c 16.08100
_cell_angle_alpha 90.00000
_cell_angle_beta  92.94000
_cell_angle_gamma 90.00000

_symmetry_space_group_name_	'P 1'
_symmetry_space_group_name_H-M	'P 1'

loop_
_symmetry_equiv_pos_as_xyz
  x,y,z

loop_
_atom_site_label
_atom_site_type_symbol
_atom_site_fract_x
_atom_site_fract_y
_atom_site_fract_z
_atom_site_charge
Zn	Zn	0.00784 0.75695 0.79829 1.23300
Zn	Zn	0.22118 0.75196 0.58678 1.23000
Zn	Zn	0.23040 0.67382 0.99901 1.23100
P 	P 	0.96237 0.83520 0.60530 0.49700
H 	H 	0.96400 0.96000 0.56700 -0.06400
P 	P 	0.85636 0.62580 0.93653 0.45100
H 	H 	0.94200 0.66300 0.98300 -0.07900
P 	P 	0.13742 0.96920 0.93287 0.46100
H 	H 	0.07400 0.07400 0.95900 -0.04700
P 	P 	0.20440 0.52630 0.81517 0.45900
H 	H 	0.27100 0.55000 0.75500 -0.04300
O 	O 	0.06350 0.75480 0.58430 -0.46400
O 	O 	0.94390 0.83930 0.69610 -0.43900
O 	O 	0.08900 0.57610 0.78690 -0.44400
O 	O 	0.08100 0.90960 0.85550 -0.48300
O 	O 	0.87620 0.68750 0.85040 -0.40100
O 	O 	0.75510 0.69810 0.97090 -0.42800
O 	O 	0.19990 0.36470 0.82990 -0.46300
O 	O 	0.24290 0.04550 0.91480 -0.42700
O 	O 	0.15310 0.85810 0.00220 -0.42400
O 	O 	0.86610 0.76260 0.55640 -0.41300
O 	O 	0.84730 0.46210 0.93550 -0.44700
O 	O 	0.25570 0.61090 0.88720 -0.49800
Zn	Zn	0.49216 0.25695 0.70171 1.23700
Zn	Zn	0.27882 0.25196 0.91322 1.23000
Zn	Zn	0.26960 0.17382 0.50099 1.23500
P 	P 	0.53763 0.33520 0.89470 0.49300
H 	H 	0.53600 0.46000 0.93300 -0.06500
P 	P 	0.64364 0.12580 0.56347 0.45100
H 	H 	0.55800 0.16300 0.51700 -0.08300
P 	P 	0.36258 0.46920 0.56713 0.48000
H 	H 	0.42600 0.57400 0.54100 -0.04900
P 	P 	0.29560 0.02630 0.68483 0.46100
H 	H 	0.22900 0.05000 0.74500 -0.04300
O 	O 	0.43650 0.25480 0.91570 -0.46100
O 	O 	0.55610 0.33930 0.80390 -0.44200
O 	O 	0.41100 0.07610 0.71310 -0.44100
O 	O 	0.41900 0.40960 0.64450 -0.48100
O 	O 	0.62380 0.18750 0.64960 -0.40400
O 	O 	0.74490 0.19810 0.52910 -0.43000
O 	O 	0.30010 0.86470 0.67010 -0.46400
O 	O 	0.25710 0.54550 0.58520 -0.43100
O 	O 	0.34690 0.35810 0.49780 -0.43600
O 	O 	0.63390 0.26260 0.94360 -0.41100
O 	O 	0.65270 0.96210 0.56450 -0.45000
O 	O 	0.24430 0.11090 0.61280 -0.49500
Zn	Zn	0.99216 0.24305 0.20171 1.23400
Zn	Zn	0.77882 0.24804 0.41322 1.23100
Zn	Zn	0.76960 0.32618 0.00099 1.23100
P 	P 	0.03763 0.16480 0.39470 0.49700
H 	H 	0.03600 0.04000 0.43300 -0.06400
P 	P 	0.14364 0.37420 0.06347 0.45100
H 	H 	0.05800 0.33700 0.01700 -0.07900
P 	P 	0.86258 0.03080 0.06713 0.46100
H 	H 	0.92600 0.92600 0.04100 -0.04700
P 	P 	0.79560 0.47370 0.18483 0.45900
H 	H 	0.72900 0.45000 0.24500 -0.04300
O 	O 	0.93650 0.24520 0.41570 -0.46400
O 	O 	0.05610 0.16070 0.30390 -0.43900
O 	O 	0.91100 0.42390 0.21310 -0.44400
O 	O 	0.91900 0.09040 0.14450 -0.48300
O 	O 	0.12380 0.31250 0.14960 -0.40100
O 	O 	0.24490 0.30190 0.02910 -0.42800
O 	O 	0.80010 0.63530 0.17010 -0.46300
O 	O 	0.75710 0.95450 0.08520 -0.42700
O 	O 	0.84690 0.14190 0.99780 -0.42400
O 	O 	0.13390 0.23740 0.44360 -0.41300
O 	O 	0.15270 0.53790 0.06450 -0.44700
O 	O 	0.74430 0.38910 0.11280 -0.49800
Zn	Zn	0.50784 0.74305 0.29829 1.23700
Zn	Zn	0.72118 0.74804 0.08678 1.23000
Zn	Zn	0.73040 0.82618 0.49901 1.23500
P 	P 	0.46237 0.66480 0.10530 0.49300
H 	H 	0.46400 0.54000 0.06700 -0.06500
P 	P 	0.35636 0.87420 0.43653 0.45100
H 	H 	0.44200 0.83700 0.48300 -0.08300
P 	P 	0.63742 0.53080 0.43287 0.48000
H 	H 	0.57400 0.42600 0.45900 -0.04900
P 	P 	0.70440 0.97370 0.31517 0.46100
H 	H 	0.77100 0.95000 0.25500 -0.04300
O 	O 	0.56350 0.74520 0.08430 -0.46100
O 	O 	0.44390 0.66070 0.19610 -0.44200
O 	O 	0.58900 0.92390 0.28690 -0.44100
O 	O 	0.58100 0.59040 0.35550 -0.48100
O 	O 	0.37620 0.81250 0.35040 -0.40400
O 	O 	0.25510 0.80190 0.47090 -0.43000
O 	O 	0.69990 0.13530 0.32990 -0.46400
O 	O 	0.74290 0.45450 0.41480 -0.43100
O 	O 	0.65310 0.64190 0.50220 -0.43600
O 	O 	0.36610 0.73740 0.05640 -0.41100
O 	O 	0.34730 0.03790 0.43550 -0.45000
O 	O 	0.75570 0.88910 0.38720 -0.49500
