data_crystal

_cell_length_a 4.71010
_cell_length_b 10.77040
_cell_length_c 20.02890
_cell_angle_alpha 90.00000
_cell_angle_beta  90.00000
_cell_angle_gamma 95.47200

_symmetry_space_group_name_	'P 1'
_symmetry_space_group_name_H-M	'P 1'

loop_
_symmetry_equiv_pos_as_xyz
  x,y,z

loop_
_atom_site_label
_atom_site_type_symbol
_atom_site_fract_x
_atom_site_fract_y
_atom_site_fract_z
_atom_site_charge
Cu	Cu	0.31100 0.46500 0.66360 0.91600
Cu	Cu	0.68900 0.03500 0.16360 0.91600
Cu	Cu	0.68900 0.53500 0.33640 0.91600
Cu	Cu	0.31100 0.96500 0.83640 0.91600
H 	H 	0.23466 0.43135 0.91538 0.05100
H 	H 	0.40361 0.53635 0.81680 0.05200
H 	H 	0.61129 0.35527 0.57496 0.03100
H 	H 	0.17998 0.63198 0.53545 0.04200
H 	H 	0.76534 0.06865 0.41538 0.05100
H 	H 	0.59639 0.96365 0.31680 0.05300
H 	H 	0.38871 0.14473 0.07496 0.03200
H 	H 	0.82002 0.86802 0.03545 0.04100
H 	H 	0.76534 0.56865 0.08462 0.05100
H 	H 	0.59639 0.46365 0.18320 0.05200
H 	H 	0.38871 0.64473 0.42504 0.03100
H 	H 	0.82002 0.36802 0.46455 0.04200
H 	H 	0.23466 0.93135 0.58462 0.05100
H 	H 	0.40361 0.03635 0.68320 0.05300
H 	H 	0.61129 0.85527 0.92504 0.03200
H 	H 	0.17998 0.13198 0.96455 0.04100
C 	C 	0.05900 0.30000 0.75500 0.00400
C 	C 	0.95700 0.24000 0.81300 0.01300
C 	C 	0.18800 0.40000 0.87200 0.02100
C 	C 	0.28900 0.45900 0.81540 0.02600
C 	C 	0.00700 0.24000 0.68500 0.20500
C 	C 	0.78400 0.12000 0.82000 0.29000
C 	C 	0.56700 0.41600 0.54300 0.01800
C 	C 	0.31400 0.57700 0.52100 0.02800
C 	C 	0.94100 0.20000 0.25500 0.00500
C 	C 	0.04300 0.26000 0.31300 0.01200
C 	C 	0.81200 0.10000 0.37200 0.02200
C 	C 	0.71100 0.04100 0.31540 0.02400
C 	C 	0.99300 0.26000 0.18500 0.20600
C 	C 	0.21600 0.38000 0.32000 0.29000
C 	C 	0.43300 0.08400 0.04300 0.01400
C 	C 	0.68600 0.92300 0.02100 0.03300
C 	C 	0.94100 0.70000 0.24500 0.00400
C 	C 	0.04300 0.76000 0.18700 0.01300
C 	C 	0.81200 0.60000 0.12800 0.02100
C 	C 	0.71100 0.54100 0.18460 0.02600
C 	C 	0.99300 0.76000 0.31500 0.20500
C 	C 	0.21600 0.88000 0.18000 0.29000
C 	C 	0.43300 0.58400 0.45700 0.01800
C 	C 	0.68600 0.42300 0.47900 0.02800
C 	C 	0.05900 0.80000 0.74500 0.00500
C 	C 	0.95700 0.74000 0.68700 0.01200
C 	C 	0.18800 0.90000 0.62800 0.02200
C 	C 	0.28900 0.95900 0.68460 0.02400
C 	C 	0.00700 0.74000 0.81500 0.20600
C 	C 	0.78400 0.62000 0.68000 0.29000
C 	C 	0.56700 0.91600 0.95700 0.01400
C 	C 	0.31400 0.07700 0.97900 0.03300
N 	N 	0.22000 0.40400 0.75630 -0.18700
N 	N 	0.02500 0.29000 0.87100 -0.09600
N 	N 	0.38900 0.49300 0.56320 -0.17800
N 	N 	0.78000 0.09600 0.25630 -0.18700
N 	N 	0.97500 0.21000 0.37100 -0.09600
N 	N 	0.61100 0.00700 0.06320 -0.17900
N 	N 	0.78000 0.59600 0.24370 -0.18700
N 	N 	0.97500 0.71000 0.12900 -0.09600
N 	N 	0.61100 0.50700 0.43680 -0.17800
N 	N 	0.22000 0.90400 0.74370 -0.18700
N 	N 	0.02500 0.79000 0.62900 -0.09600
N 	N 	0.38900 0.99300 0.93680 -0.17900
O 	O 	0.12900 0.30500 0.63000 -0.31900
O 	O 	0.87200 0.13600 0.68600 -0.21200
O 	O 	0.49500 0.13600 0.81700 -0.32900
O 	O 	0.88600 0.02700 0.83700 -0.37500
O 	O 	0.87100 0.19500 0.13000 -0.31900
O 	O 	0.12800 0.36400 0.18600 -0.21300
O 	O 	0.50500 0.36400 0.31700 -0.32900
O 	O 	0.11400 0.47300 0.33700 -0.37700
O 	O 	0.87100 0.69500 0.37000 -0.31900
O 	O 	0.12800 0.86400 0.31400 -0.21200
O 	O 	0.50500 0.86400 0.18300 -0.32900
O 	O 	0.11400 0.97300 0.16300 -0.37500
O 	O 	0.12900 0.80500 0.87000 -0.31900
O 	O 	0.87200 0.63600 0.81400 -0.21300
O 	O 	0.49500 0.63600 0.68300 -0.32900
O 	O 	0.88600 0.52700 0.66300 -0.37700
