data_crystal

_cell_length_a 13.91520
_cell_length_b 13.91520
_cell_length_c 13.91520
_cell_angle_alpha 90.00000
_cell_angle_beta  90.00000
_cell_angle_gamma 90.00000

_symmetry_space_group_name_	'P 1'
_symmetry_space_group_name_H-M	'P 1'

loop_
_symmetry_equiv_pos_as_xyz
  x,y,z

loop_
_atom_site_label
_atom_site_type_symbol
_atom_site_fract_x
_atom_site_fract_y
_atom_site_fract_z
_atom_site_charge
C 	C 	0.65430 0.28970 0.20820 -0.42700
C 	C 	0.15430 0.78970 0.70820 -0.50300
C 	C 	0.34570 0.71030 0.20820 -0.43400
C 	C 	0.84570 0.21030 0.70820 -0.53000
C 	C 	0.34570 0.28970 0.79180 -0.44500
C 	C 	0.84570 0.78970 0.29180 -0.54000
C 	C 	0.65430 0.71030 0.79180 -0.58400
C 	C 	0.15430 0.21030 0.29180 -0.37100
C 	C 	0.20820 0.65430 0.28970 -0.42700
C 	C 	0.70820 0.15430 0.78970 -0.50300
C 	C 	0.20820 0.34570 0.71030 -0.43400
C 	C 	0.70820 0.84570 0.21030 -0.53000
C 	C 	0.79180 0.34570 0.28970 -0.44500
C 	C 	0.29180 0.84570 0.78970 -0.54000
C 	C 	0.79180 0.65430 0.71030 -0.58400
C 	C 	0.29180 0.15430 0.21030 -0.37100
C 	C 	0.28970 0.20820 0.65430 -0.42700
C 	C 	0.78970 0.70820 0.15430 -0.50300
C 	C 	0.71030 0.20820 0.34570 -0.43400
C 	C 	0.21030 0.70820 0.84570 -0.53000
C 	C 	0.28970 0.79180 0.34570 -0.44500
C 	C 	0.78970 0.29180 0.84570 -0.54000
C 	C 	0.71030 0.79180 0.65430 -0.58400
C 	C 	0.21030 0.29180 0.15430 -0.37100
C 	C 	0.28970 0.65430 0.79180 -0.51300
C 	C 	0.78970 0.15430 0.29180 -0.44400
C 	C 	0.71030 0.34570 0.79180 -0.51900
C 	C 	0.21030 0.84570 0.29180 -0.47100
C 	C 	0.28970 0.34570 0.20820 -0.35600
C 	C 	0.78970 0.84570 0.70820 -0.59600
C 	C 	0.71030 0.65430 0.20820 -0.50200
C 	C 	0.21030 0.15430 0.70820 -0.43300
C 	C 	0.65430 0.20820 0.71030 -0.50200
C 	C 	0.15430 0.70820 0.21030 -0.43300
C 	C 	0.34570 0.20820 0.28970 -0.35600
C 	C 	0.84570 0.70820 0.78970 -0.59600
C 	C 	0.34570 0.79180 0.71030 -0.51900
C 	C 	0.84570 0.29180 0.21030 -0.47100
C 	C 	0.65430 0.79180 0.28970 -0.51300
C 	C 	0.15430 0.29180 0.78970 -0.44400
C 	C 	0.20820 0.28970 0.34570 -0.35600
C 	C 	0.70820 0.78970 0.84570 -0.59600
C 	C 	0.20820 0.71030 0.65430 -0.50200
C 	C 	0.70820 0.21030 0.15430 -0.43300
C 	C 	0.79180 0.28970 0.65430 -0.51300
C 	C 	0.29180 0.78970 0.15430 -0.44400
C 	C 	0.79180 0.71030 0.34570 -0.51900
C 	C 	0.29180 0.21030 0.84570 -0.47100
C 	C 	0.34570 0.71030 0.79180 -0.51900
C 	C 	0.84570 0.21030 0.29180 -0.47100
C 	C 	0.65430 0.28970 0.79180 -0.51300
C 	C 	0.15430 0.78970 0.29180 -0.44400
C 	C 	0.65430 0.71030 0.20820 -0.50200
C 	C 	0.15430 0.21030 0.70820 -0.43300
C 	C 	0.34570 0.28970 0.20820 -0.35600
C 	C 	0.84570 0.78970 0.70820 -0.59600
C 	C 	0.79180 0.34570 0.71030 -0.51900
C 	C 	0.29180 0.84570 0.21030 -0.47100
C 	C 	0.79180 0.65430 0.28970 -0.51300
C 	C 	0.29180 0.15430 0.78970 -0.44400
C 	C 	0.20820 0.65430 0.71030 -0.50200
C 	C 	0.70820 0.15430 0.21030 -0.43300
C 	C 	0.20820 0.34570 0.28970 -0.35600
C 	C 	0.70820 0.84570 0.78970 -0.59600
C 	C 	0.71030 0.79180 0.34570 -0.51900
C 	C 	0.21030 0.29180 0.84570 -0.47100
C 	C 	0.28970 0.79180 0.65430 -0.51300
C 	C 	0.78970 0.29180 0.15430 -0.44400
C 	C 	0.71030 0.20820 0.65430 -0.50200
C 	C 	0.21030 0.70820 0.15430 -0.43300
C 	C 	0.28970 0.20820 0.34570 -0.35600
C 	C 	0.78970 0.70820 0.84570 -0.59600
C 	C 	0.71030 0.34570 0.20820 -0.43400
C 	C 	0.21030 0.84570 0.70820 -0.53000
C 	C 	0.28970 0.65430 0.20820 -0.42700
C 	C 	0.78970 0.15430 0.70820 -0.50300
C 	C 	0.71030 0.65430 0.79180 -0.58400
C 	C 	0.21030 0.15430 0.29180 -0.37100
C 	C 	0.28970 0.34570 0.79180 -0.44500
C 	C 	0.78970 0.84570 0.29180 -0.54000
C 	C 	0.34570 0.79180 0.28970 -0.44500
C 	C 	0.84570 0.29180 0.78970 -0.54000
C 	C 	0.65430 0.79180 0.71030 -0.58400
C 	C 	0.15430 0.29180 0.21030 -0.37100
C 	C 	0.65430 0.20820 0.28970 -0.42700
C 	C 	0.15430 0.70820 0.78970 -0.50300
C 	C 	0.34570 0.20820 0.71030 -0.43400
C 	C 	0.84570 0.70820 0.21030 -0.53000
C 	C 	0.79180 0.71030 0.65430 -0.58400
C 	C 	0.29180 0.21030 0.15430 -0.37100
C 	C 	0.79180 0.28970 0.34570 -0.44500
C 	C 	0.29180 0.78970 0.84570 -0.54000
C 	C 	0.20820 0.71030 0.34570 -0.43400
C 	C 	0.70820 0.21030 0.84570 -0.53000
C 	C 	0.20820 0.28970 0.65430 -0.42700
C 	C 	0.70820 0.78970 0.15430 -0.50300
I 	I 	0.72216 0.50000 0.50000 -0.84200
I 	I 	0.22216 0.00000 -0.00000 -0.53600
I 	I 	0.27784 0.50000 0.50000 -0.78300
I 	I 	0.77784 0.00000 -0.00000 -0.58800
I 	I 	0.50000 0.72216 0.50000 -0.84200
I 	I 	-0.00000 0.22216 -0.00000 -0.53600
I 	I 	0.50000 0.27784 0.50000 -0.78300
I 	I 	-0.00000 0.77784 -0.00000 -0.58800
I 	I 	0.50000 0.50000 0.72216 -0.84200
I 	I 	0.00000 -0.00000 0.22216 -0.53600
I 	I 	0.50000 0.50000 0.27784 -0.78300
I 	I 	-0.00000 -0.00000 0.77784 -0.58800
Cu	Cu	0.60844 0.39156 0.39156 0.73900
N 	N 	0.69520 0.30480 0.30480 -0.24100
Cu	Cu	0.10844 0.89156 0.89156 0.64000
N 	N 	0.19520 0.80480 0.80480 -0.25100
Cu	Cu	0.39156 0.60844 0.39156 0.73900
N 	N 	0.30480 0.69520 0.30480 -0.24100
Cu	Cu	0.89156 0.10844 0.89156 0.64000
N 	N 	0.80480 0.19520 0.80480 -0.25100
Cu	Cu	0.39156 0.39156 0.60844 0.73900
N 	N 	0.30480 0.30480 0.69520 -0.24100
Cu	Cu	0.89156 0.89156 0.10844 0.64000
N 	N 	0.80480 0.80480 0.19520 -0.25100
Cu	Cu	0.60844 0.60844 0.60844 0.73300
N 	N 	0.69520 0.69520 0.69520 -0.24400
Cu	Cu	0.10844 0.10844 0.10844 0.75200
N 	N 	0.19520 0.19520 0.19520 -0.24300
Cu	Cu	0.39156 0.60844 0.60844 0.73600
N 	N 	0.30480 0.69520 0.69520 -0.24200
Cu	Cu	0.89156 0.10844 0.10844 0.69400
N 	N 	0.80480 0.19520 0.19520 -0.24700
Cu	Cu	0.60844 0.39156 0.60844 0.73600
N 	N 	0.69520 0.30480 0.69520 -0.24200
Cu	Cu	0.10844 0.89156 0.10844 0.69400
N 	N 	0.19520 0.80480 0.19520 -0.24700
Cu	Cu	0.39156 0.39156 0.39156 0.74300
N 	N 	0.30480 0.30480 0.30480 -0.23900
Cu	Cu	0.89156 0.89156 0.89156 0.58800
N 	N 	0.80480 0.80480 0.80480 -0.25400
Cu	Cu	0.60844 0.60844 0.39156 0.73600
N 	N 	0.69520 0.69520 0.30480 -0.24200
Cu	Cu	0.10844 0.10844 0.89156 0.69400
N 	N 	0.19520 0.19520 0.80480 -0.24700
C 	C 	0.75300 0.24700 0.36800 0.90800
C 	C 	0.25300 0.74700 0.86800 1.02900
C 	C 	0.24700 0.75300 0.36800 0.90800
C 	C 	0.74700 0.25300 0.86800 1.02900
C 	C 	0.24700 0.24700 0.63200 0.91300
C 	C 	0.74700 0.74700 0.13200 1.04600
C 	C 	0.75300 0.75300 0.63200 1.18600
C 	C 	0.25300 0.25300 0.13200 0.80300
C 	C 	0.36800 0.75300 0.24700 0.90800
C 	C 	0.86800 0.25300 0.74700 1.02900
C 	C 	0.36800 0.24700 0.75300 0.90800
C 	C 	0.86800 0.74700 0.25300 1.02900
C 	C 	0.63200 0.24700 0.24700 0.91300
C 	C 	0.13200 0.74700 0.74700 1.04600
C 	C 	0.63200 0.75300 0.75300 1.18600
C 	C 	0.13200 0.25300 0.25300 0.80300
C 	C 	0.24700 0.36800 0.75300 0.90800
C 	C 	0.74700 0.86800 0.25300 1.02900
C 	C 	0.75300 0.36800 0.24700 0.90800
C 	C 	0.25300 0.86800 0.74700 1.02900
C 	C 	0.24700 0.63200 0.24700 0.91300
C 	C 	0.74700 0.13200 0.74700 1.04600
C 	C 	0.75300 0.63200 0.75300 1.18600
C 	C 	0.25300 0.13200 0.25300 0.80300
C 	C 	0.24700 0.75300 0.63200 1.05200
C 	C 	0.74700 0.25300 0.13200 0.92700
C 	C 	0.75300 0.24700 0.63200 1.05200
C 	C 	0.25300 0.74700 0.13200 0.92700
C 	C 	0.24700 0.24700 0.36800 0.76300
C 	C 	0.74700 0.74700 0.86800 1.14400
C 	C 	0.75300 0.75300 0.36800 1.04800
C 	C 	0.25300 0.25300 0.86800 0.91000
C 	C 	0.75300 0.36800 0.75300 1.04800
C 	C 	0.25300 0.86800 0.25300 0.91000
C 	C 	0.24700 0.36800 0.24700 0.76300
C 	C 	0.74700 0.86800 0.74700 1.14400
C 	C 	0.24700 0.63200 0.75300 1.05200
C 	C 	0.74700 0.13200 0.25300 0.92700
C 	C 	0.75300 0.63200 0.24700 1.05200
C 	C 	0.25300 0.13200 0.74700 0.92700
C 	C 	0.36800 0.24700 0.24700 0.76300
C 	C 	0.86800 0.74700 0.74700 1.14400
C 	C 	0.36800 0.75300 0.75300 1.04800
C 	C 	0.86800 0.25300 0.25300 0.91000
C 	C 	0.63200 0.24700 0.75300 1.05200
C 	C 	0.13200 0.74700 0.25300 0.92700
C 	C 	0.63200 0.75300 0.24700 1.05200
C 	C 	0.13200 0.25300 0.74700 0.92700
