data_crystal

_cell_length_a 10.16610
_cell_length_b 21.46870
_cell_length_c 20.11300
_cell_angle_alpha 90.00000
_cell_angle_beta  97.09100
_cell_angle_gamma 90.00000

_symmetry_space_group_name_	'P 1'
_symmetry_space_group_name_H-M	'P 1'

loop_
_symmetry_equiv_pos_as_xyz
  x,y,z

loop_
_atom_site_label
_atom_site_type_symbol
_atom_site_fract_x
_atom_site_fract_y
_atom_site_fract_z
_atom_site_charge
K 	K 	0.12642 0.13019 0.85712 0.65100
K 	K 	0.63551 0.11240 0.84982 0.64700
K 	K 	0.06432 0.41052 0.96627 0.65800
C 	C 	0.15850 0.28206 0.74408 0.10500
N 	N 	0.16730 0.23854 0.77706 -0.14800
N 	N 	0.18720 0.43359 0.84497 -0.14100
C 	C 	0.17260 0.41867 0.79005 0.09400
C 	C 	0.13240 0.50144 0.66392 0.06400
N 	N 	0.13280 0.55505 0.66513 -0.17900
C 	C 	0.09730 0.41402 0.53936 0.09000
N 	N 	0.08690 0.42621 0.48383 -0.15800
C 	C 	0.10890 0.27880 0.59177 0.08300
N 	N 	0.09810 0.23329 0.56161 -0.11500
C 	C 	0.14570 0.33526 0.70170 -0.02300
C 	C 	0.15220 0.39808 0.72239 -0.02200
C 	C 	0.13270 0.43540 0.66429 -0.02000
C 	C 	0.11470 0.39574 0.60806 -0.02600
C 	C 	0.12260 0.33399 0.63140 -0.01500
C 	C 	0.93230 0.27247 0.05804 0.09100
N 	N 	0.92520 0.31780 0.02796 -0.15400
C 	C 	0.90180 0.14212 0.99723 0.08200
N 	N 	0.87950 0.13233 0.94116 -0.17900
C 	C 	0.94140 0.04604 0.11410 0.09100
N 	N 	0.93330 0.99322 0.11255 -0.17100
C 	C 	0.00110 0.11909 0.24504 0.09000
N 	N 	0.02320 0.09840 0.29750 -0.12000
C 	C 	0.99560 0.25839 0.21221 0.09700
N 	N 	0.01700 0.29719 0.25111 -0.15400
C 	C 	0.94270 0.21577 0.09487 -0.02200
C 	C 	0.97440 0.14551 0.17965 -0.01500
C 	C 	0.92960 0.15572 0.06674 -0.02100
C 	C 	0.94890 0.11215 0.11950 -0.02700
C 	C 	0.97090 0.20941 0.16461 -0.02200
C 	C 	0.27290 0.29181 0.09864 0.08800
N 	N 	0.25320 0.33473 0.06491 -0.13800
N 	N 	0.22410 0.14337 0.99325 -0.15800
C 	C 	0.25030 0.15713 0.04800 0.09400
N 	N 	0.29660 0.01632 0.16760 -0.16800
C 	C 	0.29930 0.06978 0.16997 0.08700
C 	C 	0.35850 0.15053 0.29645 0.09300
N 	N 	0.38560 0.13156 0.34958 -0.15300
N 	N 	0.36010 0.33291 0.28403 -0.18600
C 	C 	0.34300 0.28932 0.25141 0.07600
C 	C 	0.29350 0.23756 0.13912 -0.02100
C 	C 	0.28140 0.17562 0.11622 -0.02200
C 	C 	0.30290 0.13608 0.17188 -0.02100
C 	C 	0.32820 0.17326 0.22968 -0.02200
C 	C 	0.32280 0.23584 0.20933 -0.02000
N 	N 	0.27960 0.52463 0.00680 0.06100
O 	O 	0.32880 0.47304 0.00538 -0.17000
O 	O 	0.16220 0.53454 0.98820 -0.23300
C 	C 	0.36390 0.57793 0.03230 -0.38600
H 	H 	0.34640 0.58820 0.07790 0.16800
H 	H 	0.34350 0.61410 0.00310 0.17200
H 	H 	0.45750 0.56670 0.03280 0.17800
N 	N 	0.48860 0.24480 0.90270 -0.07600
O 	O 	0.60190 0.25505 0.89480 -0.14600
O 	O 	0.43690 0.19370 0.89690 0.12900
C 	C 	0.40730 0.29860 0.91640 0.27000
H 	H 	0.42170 0.33250 0.88540 0.03700
H 	H 	0.43240 0.31260 0.96260 -0.10200
H 	H 	0.31350 0.28670 0.91030 -1.49100
N 	N 	0.31250 0.26600 0.91080 1.58000
O 	O 	0.35290 0.21480 0.89600 -0.60200
O 	O 	0.19580 0.27690 0.91530 -0.20000
C 	C 	0.40830 0.31410 0.92130 0.26600
H 	H 	0.44310 0.32340 0.87900 -0.10100
H 	H 	0.48100 0.30070 0.95480 -0.01800
H 	H 	0.36710 0.35160 0.93730 0.02500
K 	K 	0.37358 0.63019 0.64288 0.65000
K 	K 	0.86449 0.61240 0.65018 0.64600
K 	K 	0.43568 0.91052 0.53373 0.65800
C 	C 	0.34150 0.78206 0.75592 0.10500
N 	N 	0.33270 0.73854 0.72294 -0.14800
N 	N 	0.31280 0.93359 0.65503 -0.14100
C 	C 	0.32740 0.91867 0.70995 0.09400
C 	C 	0.36760 0.00144 0.83608 0.06400
N 	N 	0.36720 0.05505 0.83487 -0.17900
C 	C 	0.40270 0.91402 0.96064 0.09000
N 	N 	0.41310 0.92621 0.01617 -0.15800
C 	C 	0.39110 0.77880 0.90823 0.08300
N 	N 	0.40190 0.73329 0.93839 -0.11500
C 	C 	0.35430 0.83526 0.79830 -0.02300
C 	C 	0.34780 0.89808 0.77761 -0.02200
C 	C 	0.36730 0.93540 0.83571 -0.01900
C 	C 	0.38530 0.89574 0.89194 -0.02600
C 	C 	0.37740 0.83399 0.86860 -0.01500
C 	C 	0.56770 0.77247 0.44196 0.09100
N 	N 	0.57480 0.81780 0.47204 -0.15400
C 	C 	0.59820 0.64212 0.50277 0.08100
N 	N 	0.62050 0.63233 0.55884 -0.17900
C 	C 	0.55860 0.54604 0.38590 0.09100
N 	N 	0.56670 0.49322 0.38745 -0.17100
C 	C 	0.49890 0.61909 0.25496 0.09000
N 	N 	0.47680 0.59840 0.20250 -0.12000
C 	C 	0.50440 0.75839 0.28779 0.09700
N 	N 	0.48300 0.79719 0.24889 -0.15500
C 	C 	0.55730 0.71577 0.40513 -0.02200
C 	C 	0.52560 0.64551 0.32035 -0.01500
C 	C 	0.57040 0.65572 0.43326 -0.02000
C 	C 	0.55110 0.61215 0.38050 -0.02700
C 	C 	0.52910 0.70941 0.33539 -0.02200
C 	C 	0.22710 0.79181 0.40136 0.08800
N 	N 	0.24680 0.83473 0.43509 -0.13800
N 	N 	0.27590 0.64337 0.50675 -0.15700
C 	C 	0.24970 0.65713 0.45200 0.09300
N 	N 	0.20340 0.51632 0.33240 -0.16800
C 	C 	0.20070 0.56978 0.33003 0.08700
C 	C 	0.14150 0.65053 0.20355 0.09300
N 	N 	0.11440 0.63156 0.15042 -0.15300
N 	N 	0.13990 0.83291 0.21597 -0.18600
C 	C 	0.15700 0.78932 0.24859 0.07700
C 	C 	0.20650 0.73756 0.36088 -0.02100
C 	C 	0.21860 0.67562 0.38378 -0.02200
C 	C 	0.19710 0.63608 0.32812 -0.02100
C 	C 	0.17180 0.67326 0.27032 -0.02200
C 	C 	0.17720 0.73584 0.29067 -0.02000
N 	N 	0.22040 0.02463 0.49320 0.06100
O 	O 	0.17120 0.97304 0.49462 -0.17000
O 	O 	0.33780 0.03454 0.51180 -0.23200
C 	C 	0.13610 0.07793 0.46770 -0.38600
H 	H 	0.15360 0.08820 0.42210 0.16800
H 	H 	0.15650 0.11410 0.49690 0.17200
H 	H 	0.04250 0.06670 0.46720 0.17800
N 	N 	0.01140 0.74480 0.59730 -0.07600
O 	O 	0.89810 0.75505 0.60520 -0.14600
O 	O 	0.06310 0.69370 0.60310 0.12900
C 	C 	0.09270 0.79860 0.58360 0.27000
H 	H 	0.07830 0.83250 0.61460 0.03700
H 	H 	0.06760 0.81260 0.53740 -0.10200
H 	H 	0.18650 0.78670 0.58970 -1.49200
N 	N 	0.18750 0.76600 0.58920 1.58000
O 	O 	0.14710 0.71480 0.60400 -0.60200
O 	O 	0.30420 0.77690 0.58470 -0.20000
C 	C 	0.09170 0.81410 0.57870 0.26600
H 	H 	0.05690 0.82340 0.62100 -0.10100
H 	H 	0.01900 0.80070 0.54520 -0.01800
H 	H 	0.13290 0.85160 0.56270 0.02500
K 	K 	0.87358 0.86981 0.14288 0.65000
K 	K 	0.36449 0.88760 0.15018 0.64600
K 	K 	0.93568 0.58948 0.03373 0.65800
C 	C 	0.84150 0.71794 0.25592 0.10500
N 	N 	0.83270 0.76146 0.22294 -0.14800
N 	N 	0.81280 0.56641 0.15503 -0.14100
C 	C 	0.82740 0.58133 0.20995 0.09400
C 	C 	0.86760 0.49856 0.33608 0.06400
N 	N 	0.86720 0.44495 0.33487 -0.17900
C 	C 	0.90270 0.58598 0.46064 0.09000
N 	N 	0.91310 0.57379 0.51617 -0.15800
C 	C 	0.89110 0.72120 0.40823 0.08300
N 	N 	0.90190 0.76671 0.43839 -0.11500
C 	C 	0.85430 0.66474 0.29830 -0.02300
C 	C 	0.84780 0.60192 0.27761 -0.02200
C 	C 	0.86730 0.56460 0.33571 -0.02000
C 	C 	0.88530 0.60426 0.39194 -0.02600
C 	C 	0.87740 0.66601 0.36860 -0.01500
C 	C 	0.06770 0.72753 0.94196 0.09100
N 	N 	0.07480 0.68220 0.97204 -0.15400
C 	C 	0.09820 0.85788 0.00277 0.08200
N 	N 	0.12050 0.86767 0.05884 -0.17900
C 	C 	0.05860 0.95396 0.88590 0.09100
N 	N 	0.06670 0.00678 0.88745 -0.17100
C 	C 	0.99890 0.88091 0.75496 0.09000
N 	N 	0.97680 0.90160 0.70250 -0.12000
C 	C 	0.00440 0.74161 0.78779 0.09700
N 	N 	0.98300 0.70281 0.74889 -0.15400
C 	C 	0.05730 0.78423 0.90513 -0.02200
C 	C 	0.02560 0.85449 0.82035 -0.01500
C 	C 	0.07040 0.84428 0.93326 -0.02100
C 	C 	0.05110 0.88785 0.88050 -0.02700
C 	C 	0.02910 0.79059 0.83539 -0.02200
C 	C 	0.72710 0.70819 0.90136 0.08800
N 	N 	0.74680 0.66527 0.93509 -0.13800
N 	N 	0.77590 0.85663 0.00675 -0.15800
C 	C 	0.74970 0.84287 0.95200 0.09400
N 	N 	0.70340 0.98368 0.83240 -0.16800
C 	C 	0.70070 0.93022 0.83003 0.08700
C 	C 	0.64150 0.84947 0.70355 0.09300
N 	N 	0.61440 0.86844 0.65042 -0.15300
N 	N 	0.63990 0.66709 0.71597 -0.18600
C 	C 	0.65700 0.71068 0.74859 0.07600
C 	C 	0.70650 0.76244 0.86088 -0.02100
C 	C 	0.71860 0.82438 0.88378 -0.02200
C 	C 	0.69710 0.86392 0.82812 -0.02100
C 	C 	0.67180 0.82674 0.77032 -0.02200
C 	C 	0.67720 0.76416 0.79067 -0.02000
N 	N 	0.72040 0.47537 0.99320 0.06100
O 	O 	0.67120 0.52696 0.99462 -0.17000
O 	O 	0.83780 0.46546 0.01180 -0.23300
C 	C 	0.63610 0.42207 0.96770 -0.38600
H 	H 	0.65360 0.41180 0.92210 0.16800
H 	H 	0.65650 0.38590 0.99690 0.17200
H 	H 	0.54250 0.43330 0.96720 0.17800
N 	N 	0.51140 0.75520 0.09730 -0.07600
O 	O 	0.39810 0.74495 0.10520 -0.14600
O 	O 	0.56310 0.80630 0.10310 0.12900
C 	C 	0.59270 0.70140 0.08360 0.27000
H 	H 	0.57830 0.66750 0.11460 0.03700
H 	H 	0.56760 0.68740 0.03740 -0.10200
H 	H 	0.68650 0.71330 0.08970 -1.49100
N 	N 	0.68750 0.73400 0.08920 1.58000
O 	O 	0.64710 0.78520 0.10400 -0.60200
O 	O 	0.80420 0.72310 0.08470 -0.20000
C 	C 	0.59170 0.68590 0.07870 0.26600
H 	H 	0.55690 0.67660 0.12100 -0.10100
H 	H 	0.51900 0.69930 0.04520 -0.01800
H 	H 	0.63290 0.64840 0.06270 0.02500
K 	K 	0.62642 0.36981 0.35712 0.65000
K 	K 	0.13551 0.38760 0.34982 0.64600
K 	K 	0.56432 0.08948 0.46627 0.65800
C 	C 	0.65850 0.21794 0.24408 0.10500
N 	N 	0.66730 0.26146 0.27706 -0.14800
N 	N 	0.68720 0.06641 0.34497 -0.14100
C 	C 	0.67260 0.08133 0.29005 0.09400
C 	C 	0.63240 0.99856 0.16392 0.06400
N 	N 	0.63280 0.94495 0.16513 -0.17900
C 	C 	0.59730 0.08598 0.03936 0.09000
N 	N 	0.58690 0.07379 0.98383 -0.15800
C 	C 	0.60890 0.22120 0.09177 0.08300
N 	N 	0.59810 0.26671 0.06161 -0.11500
C 	C 	0.64570 0.16474 0.20170 -0.02300
C 	C 	0.65220 0.10192 0.22239 -0.02200
C 	C 	0.63270 0.06460 0.16429 -0.01900
C 	C 	0.61470 0.10426 0.10806 -0.02600
C 	C 	0.62260 0.16601 0.13140 -0.01500
C 	C 	0.43230 0.22753 0.55804 0.09100
N 	N 	0.42520 0.18220 0.52796 -0.15400
C 	C 	0.40180 0.35788 0.49723 0.08100
N 	N 	0.37950 0.36767 0.44116 -0.17900
C 	C 	0.44140 0.45396 0.61410 0.09100
N 	N 	0.43330 0.50678 0.61255 -0.17100
C 	C 	0.50110 0.38091 0.74504 0.09000
N 	N 	0.52320 0.40160 0.79750 -0.12000
C 	C 	0.49560 0.24161 0.71221 0.09700
N 	N 	0.51700 0.20281 0.75111 -0.15500
C 	C 	0.44270 0.28423 0.59487 -0.02200
C 	C 	0.47440 0.35449 0.67965 -0.01500
C 	C 	0.42960 0.34428 0.56674 -0.02000
C 	C 	0.44890 0.38785 0.61950 -0.02700
C 	C 	0.47090 0.29059 0.66461 -0.02200
C 	C 	0.77290 0.20819 0.59864 0.08800
N 	N 	0.75320 0.16527 0.56491 -0.13800
N 	N 	0.72410 0.35663 0.49325 -0.15700
C 	C 	0.75030 0.34287 0.54800 0.09300
N 	N 	0.79660 0.48368 0.66760 -0.16800
C 	C 	0.79930 0.43022 0.66997 0.08700
C 	C 	0.85850 0.34947 0.79645 0.09300
N 	N 	0.88560 0.36844 0.84958 -0.15300
N 	N 	0.86010 0.16709 0.78403 -0.18600
C 	C 	0.84300 0.21068 0.75141 0.07700
C 	C 	0.79350 0.26244 0.63912 -0.02100
C 	C 	0.78140 0.32438 0.61622 -0.02200
C 	C 	0.80290 0.36392 0.67188 -0.02100
C 	C 	0.82820 0.32674 0.72968 -0.02200
C 	C 	0.82280 0.26416 0.70933 -0.02000
N 	N 	0.77960 0.97537 0.50680 0.06100
O 	O 	0.82880 0.02696 0.50538 -0.17000
O 	O 	0.66220 0.96546 0.48820 -0.23200
C 	C 	0.86390 0.92207 0.53230 -0.38600
H 	H 	0.84640 0.91180 0.57790 0.16800
H 	H 	0.84350 0.88590 0.50310 0.17200
H 	H 	0.95750 0.93330 0.53280 0.17800
N 	N 	0.98860 0.25520 0.40270 -0.07600
O 	O 	0.10190 0.24495 0.39480 -0.14600
O 	O 	0.93690 0.30630 0.39690 0.12900
C 	C 	0.90730 0.20140 0.41640 0.27000
H 	H 	0.92170 0.16750 0.38540 0.03700
H 	H 	0.93240 0.18740 0.46260 -0.10200
H 	H 	0.81350 0.21330 0.41030 -1.49200
N 	N 	0.81250 0.23400 0.41080 1.58000
O 	O 	0.85290 0.28520 0.39600 -0.60200
O 	O 	0.69580 0.22310 0.41530 -0.20000
C 	C 	0.90830 0.18590 0.42130 0.26600
H 	H 	0.94310 0.17660 0.37900 -0.10100
H 	H 	0.98100 0.19930 0.45480 -0.01800
H 	H 	0.86710 0.14840 0.43730 0.02500
