data_crystal

_cell_length_a 10.24030
_cell_length_b 20.41700
_cell_length_c 21.73340
_cell_angle_alpha 90.00000
_cell_angle_beta  90.00000
_cell_angle_gamma 95.30100

_symmetry_space_group_name_	'P 1'
_symmetry_space_group_name_H-M	'P 1'

loop_
_symmetry_equiv_pos_as_xyz
  x,y,z

loop_
_atom_site_label
_atom_site_type_symbol
_atom_site_fract_x
_atom_site_fract_y
_atom_site_fract_z
_atom_site_charge
Rb	Rb	0.36772 0.64834 0.88253 0.66700
Rb	Rb	0.42993 0.03580 0.90319 0.67800
Rb	Rb	0.37725 0.14114 0.63603 0.66400
Rb	Rb	0.13228 0.85166 0.38253 0.66700
Rb	Rb	0.07007 0.46420 0.40319 0.67800
Rb	Rb	0.12275 0.35886 0.13603 0.66300
Rb	Rb	0.63228 0.35166 0.11747 0.66600
Rb	Rb	0.57007 0.96420 0.09681 0.67700
Rb	Rb	0.62275 0.85886 0.36397 0.66300
Rb	Rb	0.86772 0.14834 0.61747 0.66600
Rb	Rb	0.92993 0.53580 0.59681 0.67800
Rb	Rb	0.87725 0.64114 0.86397 0.66300
H 	H 	0.11860 0.92040 0.06860 0.19700
H 	H 	0.05750 0.98750 0.07630 0.20600
H 	H 	0.18420 0.97430 0.11300 0.19000
H 	H 	0.38140 0.57960 0.56860 0.19900
H 	H 	0.44250 0.51250 0.57630 0.20700
H 	H 	0.31580 0.52570 0.61300 0.19200
H 	H 	0.88140 0.07960 0.93140 0.19700
H 	H 	0.94250 0.01250 0.92370 0.20600
H 	H 	0.81580 0.02570 0.88700 0.19000
H 	H 	0.61860 0.42040 0.43140 0.19900
H 	H 	0.55750 0.48750 0.42370 0.20700
H 	H 	0.68420 0.47430 0.38700 0.19200
C 	C 	0.22180 0.90076 0.78507 0.07600
C 	C 	0.24320 0.94713 0.65032 0.08300
C 	C 	0.19860 0.82496 0.56689 0.08600
C 	C 	0.14570 0.70322 0.65009 0.07200
C 	C 	0.15640 0.74978 0.78538 0.06200
C 	C 	0.20310 0.85976 0.73193 -0.02200
C 	C 	0.21410 0.88092 0.66997 -0.02600
C 	C 	0.19510 0.82503 0.63250 -0.02100
C 	C 	0.17150 0.76941 0.67031 -0.02400
C 	C 	0.17580 0.79081 0.73162 -0.02400
C 	C 	0.56970 0.93341 0.77068 0.07500
C 	C 	0.59730 0.99729 0.64463 0.06600
C 	C 	0.55220 0.88706 0.54547 0.08600
C 	C 	0.49280 0.75548 0.61368 0.07800
C 	C 	0.50250 0.78280 0.75177 0.08500
C 	C 	0.55500 0.89911 0.71361 -0.02400
C 	C 	0.56750 0.92892 0.65482 -0.02400
C 	C 	0.54720 0.87941 0.61046 -0.02500
C 	C 	0.52150 0.81867 0.64102 -0.01800
C 	C 	0.52600 0.83149 0.70509 -0.02500
C 	C 	0.13780 0.96680 0.07486 -0.48800
C 	C 	0.34210 0.27090 0.78339 0.08300
C 	C 	0.39410 0.42120 0.78718 0.07600
C 	C 	0.40410 0.46473 0.92219 0.08000
C 	C 	0.36660 0.33817 0.00390 0.06400
C 	C 	0.32840 0.21918 0.91702 0.07300
C 	C 	0.35640 0.30947 0.83798 -0.02500
C 	C 	0.37990 0.37852 0.83965 -0.01700
C 	C 	0.38720 0.39833 0.90196 -0.02900
C 	C 	0.36800 0.34098 0.93826 -0.02100
C 	C 	0.34920 0.28630 0.89917 -0.02400
C 	C 	0.27820 0.59924 0.28507 0.07500
C 	C 	0.25680 0.55287 0.15032 0.08300
C 	C 	0.30140 0.67504 0.06689 0.08600
C 	C 	0.35430 0.79678 0.15009 0.07100
C 	C 	0.34360 0.75022 0.28538 0.06200
C 	C 	0.29690 0.64024 0.23193 -0.02200
C 	C 	0.28590 0.61908 0.16997 -0.02600
C 	C 	0.30490 0.67497 0.13250 -0.02100
C 	C 	0.32850 0.73059 0.17031 -0.02500
C 	C 	0.32420 0.70919 0.23162 -0.02400
C 	C 	0.93030 0.56659 0.27068 0.07500
C 	C 	0.90270 0.50271 0.14463 0.06600
C 	C 	0.94780 0.61294 0.04547 0.08600
C 	C 	0.00720 0.74452 0.11368 0.07800
C 	C 	0.99750 0.71720 0.25177 0.08500
C 	C 	0.94500 0.60089 0.21361 -0.02400
C 	C 	0.93250 0.57108 0.15482 -0.02400
C 	C 	0.95280 0.62059 0.11046 -0.02500
C 	C 	0.97850 0.68133 0.14102 -0.01800
C 	C 	0.97400 0.66851 0.20509 -0.02500
C 	C 	0.36220 0.53320 0.57486 -0.49100
C 	C 	0.15790 0.22910 0.28339 0.08300
C 	C 	0.10590 0.07880 0.28718 0.07600
C 	C 	0.09590 0.03527 0.42219 0.08000
C 	C 	0.13340 0.16183 0.50390 0.06300
C 	C 	0.17160 0.28082 0.41702 0.07300
C 	C 	0.14360 0.19053 0.33798 -0.02500
C 	C 	0.12010 0.12148 0.33965 -0.01700
C 	C 	0.11280 0.10167 0.40196 -0.02900
C 	C 	0.13200 0.15902 0.43826 -0.02100
C 	C 	0.15080 0.21370 0.39917 -0.02400
C 	C 	0.77820 0.09924 0.21493 0.07600
C 	C 	0.75680 0.05287 0.34968 0.08300
C 	C 	0.80140 0.17504 0.43311 0.08600
C 	C 	0.85430 0.29678 0.34991 0.07200
C 	C 	0.84360 0.25022 0.21462 0.06200
C 	C 	0.79690 0.14024 0.26807 -0.02200
C 	C 	0.78590 0.11908 0.33003 -0.02600
C 	C 	0.80490 0.17497 0.36750 -0.02100
C 	C 	0.82850 0.23059 0.32969 -0.02400
C 	C 	0.82420 0.20919 0.26838 -0.02400
C 	C 	0.43030 0.06659 0.22932 0.07500
C 	C 	0.40270 0.00271 0.35537 0.06600
C 	C 	0.44780 0.11294 0.45453 0.08600
C 	C 	0.50720 0.24452 0.38632 0.07800
C 	C 	0.49750 0.21720 0.24823 0.08500
C 	C 	0.44500 0.10089 0.28639 -0.02400
C 	C 	0.43250 0.07108 0.34518 -0.02400
C 	C 	0.45280 0.12059 0.38954 -0.02500
C 	C 	0.47850 0.18133 0.35898 -0.01800
C 	C 	0.47400 0.16851 0.29491 -0.02500
C 	C 	0.86220 0.03320 0.92514 -0.48800
C 	C 	0.65790 0.72910 0.21661 0.08300
C 	C 	0.60590 0.57880 0.21282 0.07600
C 	C 	0.59590 0.53527 0.07781 0.08000
C 	C 	0.63340 0.66183 0.99610 0.06400
C 	C 	0.67160 0.78082 0.08298 0.07300
C 	C 	0.64360 0.69053 0.16202 -0.02500
C 	C 	0.62010 0.62148 0.16035 -0.01700
C 	C 	0.61280 0.60167 0.09804 -0.02900
C 	C 	0.63200 0.65902 0.06174 -0.02100
C 	C 	0.65080 0.71370 0.10083 -0.02400
C 	C 	0.72180 0.40076 0.71493 0.07500
C 	C 	0.74320 0.44713 0.84968 0.08300
C 	C 	0.69860 0.32496 0.93311 0.08600
C 	C 	0.64570 0.20322 0.84991 0.07100
C 	C 	0.65640 0.24978 0.71462 0.06200
C 	C 	0.70310 0.35976 0.76807 -0.02200
C 	C 	0.71410 0.38092 0.83003 -0.02600
C 	C 	0.69510 0.32503 0.86750 -0.02100
C 	C 	0.67150 0.26941 0.82969 -0.02500
C 	C 	0.67580 0.29081 0.76838 -0.02400
C 	C 	0.06970 0.43341 0.72932 0.07500
C 	C 	0.09730 0.49729 0.85537 0.06600
C 	C 	0.05220 0.38706 0.95453 0.08600
C 	C 	0.99280 0.25548 0.88632 0.07800
C 	C 	0.00250 0.28280 0.74823 0.08500
C 	C 	0.05500 0.39911 0.78639 -0.02400
C 	C 	0.06750 0.42892 0.84518 -0.02400
C 	C 	0.04720 0.37941 0.88954 -0.02500
C 	C 	0.02150 0.31867 0.85898 -0.01800
C 	C 	0.02600 0.33149 0.79491 -0.02500
C 	C 	0.63780 0.46680 0.42514 -0.49100
C 	C 	0.84210 0.77090 0.71661 0.08300
C 	C 	0.89410 0.92120 0.71282 0.07600
C 	C 	0.90410 0.96473 0.57781 0.08000
C 	C 	0.86660 0.83817 0.49610 0.06300
C 	C 	0.82840 0.71918 0.58298 0.07300
C 	C 	0.85640 0.80947 0.66202 -0.02500
C 	C 	0.87990 0.87852 0.66035 -0.01700
C 	C 	0.88720 0.89833 0.59804 -0.02900
C 	C 	0.86800 0.84098 0.56174 -0.02100
C 	C 	0.84920 0.78630 0.60083 -0.02400
N 	N 	0.23930 0.93353 0.82750 -0.15800
N 	N 	0.26700 0.99986 0.63481 -0.17700
N 	N 	0.20170 0.82461 0.51434 -0.17100
N 	N 	0.12420 0.64990 0.63320 -0.16900
N 	N 	0.14140 0.71806 0.82809 -0.20100
N 	N 	0.58090 0.96129 0.81600 -0.16700
N 	N 	0.62190 0.05263 0.63778 -0.19500
N 	N 	0.55840 0.89113 0.49320 -0.17200
N 	N 	0.46910 0.70464 0.59274 -0.13200
N 	N 	0.48200 0.74338 0.78861 -0.18100
N 	N 	0.21990 0.99492 0.02369 0.07100
N 	N 	0.33190 0.24118 0.73904 -0.17600
N 	N 	0.40460 0.45390 0.74515 -0.13400
N 	N 	0.41640 0.51836 0.93630 -0.16800
N 	N 	0.36460 0.33429 0.05642 -0.20000
N 	N 	0.31260 0.16488 0.93050 -0.15900
N 	N 	0.26070 0.56647 0.32750 -0.15800
N 	N 	0.23300 0.50014 0.13481 -0.17700
N 	N 	0.29830 0.67539 0.01434 -0.17100
N 	N 	0.37580 0.85010 0.13320 -0.16900
N 	N 	0.35860 0.78194 0.32809 -0.20100
N 	N 	0.91910 0.53871 0.31600 -0.16700
N 	N 	0.87810 0.44737 0.13778 -0.19400
N 	N 	0.94160 0.60887 0.99320 -0.17200
N 	N 	0.03090 0.79536 0.09274 -0.13200
N 	N 	0.01800 0.75662 0.28861 -0.18100
N 	N 	0.28010 0.50508 0.52369 0.07400
N 	N 	0.16810 0.25882 0.23904 -0.17600
N 	N 	0.09540 0.04610 0.24515 -0.13400
N 	N 	0.08360 0.98164 0.43630 -0.16800
N 	N 	0.13540 0.16571 0.55642 -0.20000
N 	N 	0.18740 0.33512 0.43050 -0.15800
N 	N 	0.76070 0.06647 0.17250 -0.15800
N 	N 	0.73300 0.00014 0.36519 -0.17700
N 	N 	0.79830 0.17539 0.48566 -0.17100
N 	N 	0.87580 0.35010 0.36680 -0.16900
N 	N 	0.85860 0.28194 0.17191 -0.20100
N 	N 	0.41910 0.03871 0.18400 -0.16700
N 	N 	0.37810 0.94737 0.36222 -0.19500
N 	N 	0.44160 0.10887 0.50680 -0.17200
N 	N 	0.53090 0.29536 0.40726 -0.13200
N 	N 	0.51800 0.25662 0.21139 -0.18100
N 	N 	0.78010 0.00508 0.97631 0.07100
N 	N 	0.66810 0.75882 0.26096 -0.17600
N 	N 	0.59540 0.54610 0.25485 -0.13400
N 	N 	0.58360 0.48164 0.06370 -0.16800
N 	N 	0.63540 0.66571 0.94358 -0.20000
N 	N 	0.68740 0.83512 0.06950 -0.15900
N 	N 	0.73930 0.43353 0.67250 -0.15800
N 	N 	0.76700 0.49986 0.86519 -0.17700
N 	N 	0.70170 0.32461 0.98566 -0.17100
N 	N 	0.62420 0.14990 0.86680 -0.16900
N 	N 	0.64140 0.21806 0.67191 -0.20100
N 	N 	0.08090 0.46129 0.68400 -0.16700
N 	N 	0.12190 0.55263 0.86222 -0.19400
N 	N 	0.05840 0.39113 0.00680 -0.17200
N 	N 	0.96910 0.20464 0.90726 -0.13200
N 	N 	0.98200 0.24338 0.71139 -0.18100
N 	N 	0.71990 0.49492 0.47631 0.07400
N 	N 	0.83190 0.74118 0.76096 -0.17600
N 	N 	0.90460 0.95390 0.75485 -0.13400
N 	N 	0.91640 0.01836 0.56370 -0.16800
N 	N 	0.86460 0.83429 0.44358 -0.20000
N 	N 	0.81260 0.66488 0.56950 -0.15800
O 	O 	0.33440 0.01365 0.03381 -0.23400
O 	O 	0.17000 0.99723 0.97265 -0.18400
O 	O 	0.16560 0.48635 0.53381 -0.23700
O 	O 	0.33000 0.50277 0.47265 -0.18700
O 	O 	0.66560 0.98635 0.96619 -0.23400
O 	O 	0.83000 0.00277 0.02735 -0.18400
O 	O 	0.83440 0.51365 0.46619 -0.23700
O 	O 	0.67000 0.49723 0.52735 -0.18700
