data_crystal

_cell_length_a 5.14740
_cell_length_b 18.23200
_cell_length_c 26.78300
_cell_angle_alpha 90.00000
_cell_angle_beta  90.08000
_cell_angle_gamma 90.00000

_symmetry_space_group_name_	'P 1'
_symmetry_space_group_name_H-M	'P 1'

loop_
_symmetry_equiv_pos_as_xyz
  x,y,z

loop_
_atom_site_label
_atom_site_type_symbol
_atom_site_fract_x
_atom_site_fract_y
_atom_site_fract_z
_atom_site_charge
La	La	0.85220 0.89441 0.52222 1.71400
La	La	0.14780 0.39441 0.97778 1.71500
La	La	0.14780 0.10559 0.47778 1.71400
La	La	0.85220 0.60559 0.02222 1.71500
H 	H 	0.69390 0.67630 0.50520 0.03500
H 	H 	0.47960 0.51440 0.41320 0.04900
H 	H 	0.11910 0.58370 0.38470 0.06300
H 	H 	0.07940 0.70530 0.41530 0.04000
H 	H 	0.03370 0.84050 0.66410 0.02900
H 	H 	0.28490 0.88250 0.80440 0.04600
H 	H 	0.61740 0.95640 0.77060 0.06200
H 	H 	0.64730 0.96620 0.68430 0.03300
H 	H 	0.57620 0.66400 0.88660 0.03800
H 	H 	0.17360 0.65770 0.75800 0.05700
H 	H 	0.87740 0.57070 0.79260 0.05700
H 	H 	0.94440 0.53580 0.87770 0.03500
H 	H 	0.30610 0.17630 0.99480 0.03600
H 	H 	0.52040 0.01440 0.08680 0.05000
H 	H 	0.88090 0.08370 0.11530 0.06400
H 	H 	0.92060 0.20530 0.08470 0.04100
H 	H 	0.96630 0.34050 0.83590 0.02900
H 	H 	0.71510 0.38250 0.69560 0.04600
H 	H 	0.38260 0.45640 0.72940 0.06300
H 	H 	0.35270 0.46620 0.81570 0.03400
H 	H 	0.42380 0.16400 0.61340 0.03800
H 	H 	0.82640 0.15770 0.74200 0.05700
H 	H 	0.12260 0.07070 0.70740 0.05500
H 	H 	0.05560 0.03580 0.62230 0.03300
H 	H 	0.30610 0.32370 0.49480 0.03600
H 	H 	0.52040 0.48560 0.58680 0.05000
H 	H 	0.88090 0.41630 0.61530 0.06400
H 	H 	0.92060 0.29470 0.58470 0.04100
H 	H 	0.96630 0.15950 0.33590 0.02900
H 	H 	0.71510 0.11750 0.19560 0.04600
H 	H 	0.38260 0.04360 0.22940 0.06200
H 	H 	0.35270 0.03380 0.31570 0.03300
H 	H 	0.42380 0.33600 0.11340 0.03800
H 	H 	0.82640 0.34230 0.24200 0.05700
H 	H 	0.12260 0.42930 0.20740 0.05700
H 	H 	0.05560 0.46420 0.12230 0.03500
H 	H 	0.69390 0.82370 0.00520 0.03600
H 	H 	0.47960 0.98560 0.91320 0.05000
H 	H 	0.11910 0.91630 0.88470 0.06400
H 	H 	0.07940 0.79470 0.91530 0.04100
H 	H 	0.03370 0.65950 0.16410 0.02900
H 	H 	0.28490 0.61750 0.30440 0.04600
H 	H 	0.61740 0.54360 0.27060 0.06300
H 	H 	0.64730 0.53380 0.18430 0.03400
H 	H 	0.57620 0.83600 0.38660 0.03800
H 	H 	0.17360 0.84230 0.25800 0.05700
H 	H 	0.87740 0.92930 0.29260 0.05500
H 	H 	0.94440 0.96420 0.37770 0.03300
C 	C 	0.32200 0.77560 0.48620 0.42900
C 	C 	0.37800 0.70330 0.46200 -0.13100
C 	C 	0.57800 0.65850 0.48050 0.02000
C 	C 	0.60300 0.58790 0.46210 -0.02500
C 	C 	0.44800 0.56180 0.42650 -0.01000
C 	C 	0.23900 0.60290 0.40840 -0.06700
C 	C 	0.21600 0.67520 0.42750 0.03900
C 	C 	0.82300 0.54200 0.48240 0.11700
C 	C 	0.39400 0.90840 0.61020 0.46200
C 	C 	0.33700 0.90010 0.66670 -0.13900
C 	C 	0.15200 0.86400 0.68600 0.04800
C 	C 	0.11000 0.85650 0.73730 -0.04000
C 	C 	0.29700 0.88940 0.76930 -0.00300
C 	C 	0.49700 0.93190 0.74950 -0.07700
C 	C 	0.51400 0.93710 0.69860 0.03500
C 	C 	0.91700 0.80850 0.75850 0.11800
C 	C 	0.58100 0.72080 0.79570 0.11300
C 	C 	0.33800 0.56280 0.94160 0.43500
C 	C 	0.27900 0.59300 0.88820 -0.11600
C 	C 	0.43800 0.64380 0.86740 0.01400
C 	C 	0.40100 0.66700 0.81770 -0.02300
C 	C 	0.19800 0.64110 0.79130 -0.02000
C 	C 	0.01900 0.58950 0.81150 -0.05900
C 	C 	0.06400 0.56790 0.86180 0.01800
C 	C 	0.67800 0.27560 0.01380 0.42900
C 	C 	0.62200 0.20330 0.03800 -0.13100
C 	C 	0.42200 0.15850 0.01950 0.02000
C 	C 	0.39700 0.08790 0.03790 -0.02400
C 	C 	0.55200 0.06180 0.07350 -0.01000
C 	C 	0.76100 0.10290 0.09160 -0.06700
C 	C 	0.78400 0.17520 0.07250 0.03900
C 	C 	0.17700 0.04200 0.01760 0.11600
C 	C 	0.60600 0.40840 0.88980 0.46200
C 	C 	0.66300 0.40010 0.83330 -0.14000
C 	C 	0.84800 0.36400 0.81400 0.04800
C 	C 	0.89000 0.35650 0.76270 -0.04100
C 	C 	0.70300 0.38940 0.73070 -0.00200
C 	C 	0.50300 0.43190 0.75050 -0.07700
C 	C 	0.48600 0.43710 0.80140 0.03600
C 	C 	0.08300 0.30850 0.74150 0.11900
C 	C 	0.41900 0.22080 0.70430 0.11300
C 	C 	0.66200 0.06280 0.55840 0.43600
C 	C 	0.72100 0.09300 0.61180 -0.11600
C 	C 	0.56200 0.14380 0.63260 0.01400
C 	C 	0.59900 0.16700 0.68230 -0.02300
C 	C 	0.80200 0.14110 0.70870 -0.02100
C 	C 	0.98100 0.08950 0.68850 -0.05700
C 	C 	0.93600 0.06790 0.63820 0.02100
C 	C 	0.67800 0.22440 0.51380 0.42900
C 	C 	0.62200 0.29670 0.53800 -0.13100
C 	C 	0.42200 0.34150 0.51950 0.02000
C 	C 	0.39700 0.41210 0.53790 -0.02500
C 	C 	0.55200 0.43820 0.57350 -0.01000
C 	C 	0.76100 0.39710 0.59160 -0.06700
C 	C 	0.78400 0.32480 0.57250 0.03900
C 	C 	0.17700 0.45800 0.51760 0.11700
C 	C 	0.60600 0.09160 0.38980 0.46200
C 	C 	0.66300 0.09990 0.33330 -0.13900
C 	C 	0.84800 0.13600 0.31400 0.04800
C 	C 	0.89000 0.14350 0.26270 -0.04000
C 	C 	0.70300 0.11060 0.23070 -0.00300
C 	C 	0.50300 0.06810 0.25050 -0.07700
C 	C 	0.48600 0.06290 0.30140 0.03500
C 	C 	0.08300 0.19150 0.24150 0.11800
C 	C 	0.41900 0.27920 0.20430 0.11300
C 	C 	0.66200 0.43720 0.05840 0.43500
C 	C 	0.72100 0.40700 0.11180 -0.11600
C 	C 	0.56200 0.35620 0.13260 0.01400
C 	C 	0.59900 0.33300 0.18230 -0.02300
C 	C 	0.80200 0.35890 0.20870 -0.02000
C 	C 	0.98100 0.41050 0.18850 -0.05900
C 	C 	0.93600 0.43210 0.13820 0.01800
C 	C 	0.32200 0.72440 0.98620 0.42900
C 	C 	0.37800 0.79670 0.96200 -0.13100
C 	C 	0.57800 0.84150 0.98050 0.02000
C 	C 	0.60300 0.91210 0.96210 -0.02400
C 	C 	0.44800 0.93820 0.92650 -0.01000
C 	C 	0.23900 0.89710 0.90840 -0.06700
C 	C 	0.21600 0.82480 0.92750 0.03900
C 	C 	0.82300 0.95800 0.98240 0.11600
C 	C 	0.39400 0.59160 0.11020 0.46200
C 	C 	0.33700 0.59990 0.16670 -0.14000
C 	C 	0.15200 0.63600 0.18600 0.04800
C 	C 	0.11000 0.64350 0.23730 -0.04100
C 	C 	0.29700 0.61060 0.26930 -0.00200
C 	C 	0.49700 0.56810 0.24950 -0.07700
C 	C 	0.51400 0.56290 0.19860 0.03600
C 	C 	0.91700 0.69150 0.25850 0.11900
C 	C 	0.58100 0.77920 0.29570 0.11300
C 	C 	0.33800 0.93720 0.44160 0.43600
C 	C 	0.27900 0.90700 0.38820 -0.11600
C 	C 	0.43800 0.85620 0.36740 0.01400
C 	C 	0.40100 0.83300 0.31770 -0.02300
C 	C 	0.19800 0.85890 0.29130 -0.02100
C 	C 	0.01900 0.91050 0.31150 -0.05700
C 	C 	0.06400 0.93210 0.36180 0.02100
N 	N 	0.85300 0.47680 0.46030 -0.08900
N 	N 	0.95900 0.56490 0.52090 -0.09300
N 	N 	0.76600 0.76890 0.72880 -0.09200
N 	N 	0.58700 0.72190 0.74640 -0.09100
N 	N 	0.72400 0.76350 0.82700 -0.08700
N 	N 	0.88600 0.80790 0.80750 -0.09400
N 	N 	0.14700 0.97680 0.03970 -0.08800
N 	N 	0.04100 0.06490 0.97910 -0.09400
N 	N 	0.23400 0.26890 0.77120 -0.09300
N 	N 	0.41300 0.22190 0.75360 -0.09100
N 	N 	0.27600 0.26350 0.67300 -0.08700
N 	N 	0.11400 0.30790 0.69250 -0.09400
N 	N 	0.14700 0.52320 0.53970 -0.08900
N 	N 	0.04100 0.43510 0.47910 -0.09300
N 	N 	0.23400 0.23110 0.27120 -0.09200
N 	N 	0.41300 0.27810 0.25360 -0.09100
N 	N 	0.27600 0.23650 0.17300 -0.08700
N 	N 	0.11400 0.19210 0.19250 -0.09400
N 	N 	0.85300 0.02320 0.96030 -0.08800
N 	N 	0.95900 0.93510 0.02090 -0.09400
N 	N 	0.76600 0.73110 0.22880 -0.09300
N 	N 	0.58700 0.77810 0.24640 -0.09100
N 	N 	0.72400 0.73650 0.32700 -0.08700
N 	N 	0.88600 0.69210 0.30750 -0.09400
O 	O 	0.51300 0.80110 0.51100 -0.44900
O 	O 	0.12000 0.80660 0.47780 -0.46200
O 	O 	0.61200 0.91490 0.59840 -0.47900
O 	O 	0.18900 0.90400 0.58360 -0.46800
O 	O 	0.55900 0.56660 0.95520 -0.47700
O 	O 	0.14600 0.53340 0.96300 -0.51900
O 	O 	0.48700 0.30110 0.98900 -0.44900
O 	O 	0.88000 0.30660 0.02220 -0.46300
O 	O 	0.38800 0.41490 0.90160 -0.47900
O 	O 	0.81100 0.40400 0.91640 -0.46900
O 	O 	0.44100 0.06660 0.54480 -0.47700
O 	O 	0.85400 0.03340 0.53700 -0.51900
O 	O 	0.48700 0.19890 0.48900 -0.44900
O 	O 	0.88000 0.19340 0.52220 -0.46200
O 	O 	0.38800 0.08510 0.40160 -0.47900
O 	O 	0.81100 0.09600 0.41640 -0.46800
O 	O 	0.44100 0.43340 0.04480 -0.47700
O 	O 	0.85400 0.46660 0.03700 -0.51900
O 	O 	0.51300 0.69890 0.01100 -0.44900
O 	O 	0.12000 0.69340 0.97780 -0.46300
O 	O 	0.61200 0.58510 0.09840 -0.47900
O 	O 	0.18900 0.59600 0.08360 -0.46900
O 	O 	0.55900 0.93340 0.45520 -0.47700
O 	O 	0.14600 0.96660 0.46300 -0.51900
