data_crystal

_cell_length_a 12.85380
_cell_length_b 19.86870
_cell_length_c 19.86870
_cell_angle_alpha 102.23500
_cell_angle_beta  107.50100
_cell_angle_gamma 72.49930

_symmetry_space_group_name_	'P 1'
_symmetry_space_group_name_H-M	'P 1'

loop_
_symmetry_equiv_pos_as_xyz
  x,y,z

loop_
_atom_site_label
_atom_site_type_symbol
_atom_site_fract_x
_atom_site_fract_y
_atom_site_fract_z
_atom_site_charge
Ni	Ni	0.43910 0.30876 0.18322 1.04100
Ni	Ni	0.56090 0.18322 0.30876 1.04200
Ni	Ni	0.56090 0.69124 0.81678 1.04400
Ni	Ni	0.43910 0.81678 0.69124 1.04300
Ni	Ni	0.07052 0.27843 0.72157 1.03400
Ni	Ni	0.33777 0.28688 0.71312 1.01600
Ni	Ni	0.92948 0.72157 0.27843 1.05100
Ni	Ni	0.66223 0.71312 0.28688 1.01800
Ni	Ni	-0.00000 0.00000 -0.00000 1.05200
H 	H 	0.46170 0.31680 0.93840 0.02300
H 	H 	0.51970 0.32350 0.05950 0.00900
H 	H 	0.22050 0.32560 0.06780 0.00600
H 	H 	0.15800 0.31710 0.94590 0.02100
H 	H 	0.26260 0.15880 0.04580 0.04200
H 	H 	0.15000 0.08370 0.98350 0.03700
H 	H 	0.12130 0.03980 0.15640 0.00300
H 	H 	0.25670 0.09920 0.22440 0.03400
H 	H 	0.53830 0.93840 0.31680 0.02200
H 	H 	0.48030 0.05950 0.32350 0.00800
H 	H 	0.77950 0.06780 0.32560 0.01500
H 	H 	0.84200 0.94590 0.31710 0.03100
H 	H 	0.73740 0.04580 0.15880 0.04300
H 	H 	0.85000 0.98350 0.08370 0.04600
H 	H 	0.87870 0.15640 0.03980 0.01600
H 	H 	0.74330 0.22440 0.09920 0.03900
H 	H 	0.53830 0.68320 0.06160 0.06100
H 	H 	0.48030 0.67650 0.94050 -0.02400
H 	H 	0.77950 0.67440 0.93220 -0.01600
H 	H 	0.84200 0.68290 0.05410 0.06900
H 	H 	0.73740 0.84120 0.95420 0.07800
H 	H 	0.85000 0.91630 0.01650 -0.01800
H 	H 	0.87870 0.96020 0.84360 0.02100
H 	H 	0.74330 0.90080 0.77560 0.05200
H 	H 	0.46170 0.06160 0.68320 0.06400
H 	H 	0.51970 0.94050 0.67650 -0.02400
H 	H 	0.22050 0.93220 0.67440 -0.02600
H 	H 	0.15800 0.05410 0.68290 0.06100
H 	H 	0.26260 0.95420 0.84120 0.08000
H 	H 	0.15000 0.01650 0.91630 -0.03300
H 	H 	0.12130 0.84360 0.96020 0.00900
H 	H 	0.25670 0.77560 0.90080 0.04800
H 	H 	0.08510 0.11500 0.88500 0.07000
H 	H 	0.14570 0.17600 0.82400 0.02500
H 	H 	0.83890 0.26800 0.73200 -0.05400
H 	H 	0.77170 0.20830 0.79170 0.05400
H 	H 	0.91490 0.88500 0.11500 0.04200
H 	H 	0.85430 0.82400 0.17600 0.02400
H 	H 	0.16110 0.73200 0.26800 -0.05200
H 	H 	0.22830 0.79170 0.20830 0.03600
C 	C 	0.26720 0.30430 0.84730 0.44300
C 	C 	0.30420 0.31380 0.92820 -0.13200
C 	C 	0.41120 0.31730 0.96370 0.02800
C 	C 	0.44570 0.32160 0.03680 -0.03300
C 	C 	0.27110 0.32260 0.04160 -0.03300
C 	C 	0.23260 0.31770 0.96810 0.02400
C 	C 	0.35590 0.18100 0.18320 0.39200
C 	C 	0.27130 0.13840 0.14020 -0.07800
C 	C 	0.23800 0.13370 0.07010 -0.02700
C 	C 	0.16600 0.09040 0.03300 -0.01500
C 	C 	0.15200 0.06260 0.13360 0.02400
C 	C 	0.23100 0.09970 0.17550 -0.04800
C 	C 	0.73280 0.84730 0.30430 0.44200
C 	C 	0.69580 0.92820 0.31380 -0.13000
C 	C 	0.58880 0.96370 0.31730 0.03300
C 	C 	0.55430 0.03680 0.32160 -0.03600
C 	C 	0.72890 0.04160 0.32260 -0.03300
C 	C 	0.76740 0.96810 0.31770 0.02800
C 	C 	0.64410 0.18320 0.18100 0.39400
C 	C 	0.72870 0.14020 0.13840 -0.07500
C 	C 	0.76200 0.07010 0.13370 -0.02300
C 	C 	0.83400 0.03300 0.09040 -0.01000
C 	C 	0.84800 0.13360 0.06260 0.02900
C 	C 	0.76900 0.17550 0.09970 -0.04300
C 	C 	0.73280 0.69570 0.15270 0.40600
C 	C 	0.69580 0.68620 0.07180 -0.04000
C 	C 	0.58880 0.68270 0.03630 -0.11200
C 	C 	0.55430 0.67840 0.96320 0.08400
C 	C 	0.72890 0.67740 0.95840 0.08200
C 	C 	0.76740 0.68230 0.03190 -0.11300
C 	C 	0.64410 0.81900 0.81680 0.38300
C 	C 	0.72870 0.86160 0.85980 -0.03700
C 	C 	0.76200 0.86630 0.92990 -0.08400
C 	C 	0.83400 0.90960 0.96700 0.10400
C 	C 	0.84800 0.93740 0.86640 0.04800
C 	C 	0.76900 0.90030 0.82450 -0.06200
C 	C 	0.26720 0.15270 0.69570 0.40600
C 	C 	0.30420 0.07180 0.68620 -0.03900
C 	C 	0.41120 0.03630 0.68270 -0.12100
C 	C 	0.44570 0.96320 0.67840 0.09100
C 	C 	0.27110 0.95840 0.67740 0.08900
C 	C 	0.23260 0.03190 0.68230 -0.12400
C 	C 	0.35590 0.81680 0.81900 0.38100
C 	C 	0.27130 0.85980 0.86160 -0.03700
C 	C 	0.23800 0.92990 0.86630 -0.09400
C 	C 	0.16600 0.96700 0.90960 0.11100
C 	C 	0.15200 0.86640 0.93740 0.04500
C 	C 	0.23100 0.82450 0.90030 -0.06900
C 	C 	0.87800 0.11530 0.88470 0.32000
C 	C 	0.92180 0.15400 0.84600 0.01100
C 	C 	0.03240 0.14570 0.85430 -0.12100
C 	C 	0.06870 0.18280 0.81720 0.01800
C 	C 	0.89030 0.23700 0.76300 0.07000
C 	C 	0.84920 0.20070 0.79930 -0.10400
C 	C 	0.12200 0.88470 0.11530 0.35600
C 	C 	0.07820 0.84600 0.15400 -0.10400
C 	C 	0.96760 0.85430 0.14570 -0.00100
C 	C 	0.93130 0.81720 0.18280 0.03600
C 	C 	0.10970 0.76300 0.23700 0.03200
C 	C 	0.15080 0.79930 0.20070 -0.06000
N 	N 	0.37710 0.32310 0.07630 -0.21700
N 	N 	0.11770 0.05820 0.06200 -0.21500
N 	N 	0.62290 0.07630 0.32310 -0.21500
N 	N 	0.88230 0.06200 0.05820 -0.20100
N 	N 	0.62290 0.67690 0.92370 -0.25100
N 	N 	0.88230 0.94180 0.93800 -0.20700
N 	N 	0.37710 0.92370 0.67690 -0.25400
N 	N 	0.11770 0.93800 0.94180 -0.22100
N 	N 	0.99520 0.22870 0.77130 -0.21500
N 	N 	0.00480 0.77130 0.22870 -0.25300
O 	O 	0.33770 0.30110 0.81690 -0.50300
O 	O 	0.16850 0.30040 0.82060 -0.48700
O 	O 	0.33960 0.23890 0.16210 -0.45800
O 	O 	0.42990 0.15370 0.23230 -0.46100
O 	O 	0.66230 0.81690 0.30110 -0.50100
O 	O 	0.83150 0.82060 0.30040 -0.47500
O 	O 	0.66040 0.16210 0.23890 -0.45300
O 	O 	0.57010 0.23230 0.15370 -0.45900
O 	O 	0.66230 0.69890 0.18310 -0.49400
O 	O 	0.83150 0.69960 0.17940 -0.46900
O 	O 	0.66040 0.76110 0.83790 -0.44700
O 	O 	0.57010 0.84630 0.76770 -0.45100
O 	O 	0.33770 0.18310 0.69890 -0.49600
O 	O 	0.16850 0.17940 0.69960 -0.48100
O 	O 	0.33960 0.83790 0.76110 -0.45100
O 	O 	0.42990 0.76770 0.84630 -0.45300
O 	O 	0.95060 0.07410 0.92590 -0.37300
O 	O 	0.77670 0.12520 0.87480 -0.27200
O 	O 	0.16030 0.32410 0.67590 -0.51100
O 	O 	0.04940 0.92590 0.07410 -0.41200
O 	O 	0.22330 0.87480 0.12520 -0.28400
O 	O 	0.83970 0.67590 0.32410 -0.49500
O 	O 	0.50000 0.29010 0.29010 -0.51100
O 	O 	0.50000 0.70990 0.70990 -0.50900
