data_crystal

_cell_length_a 19.07400
_cell_length_b 19.65200
_cell_length_c 19.65200
_cell_angle_alpha 120.00000
_cell_angle_beta  90.00000
_cell_angle_gamma 90.00000

_symmetry_space_group_name_	'P 1'
_symmetry_space_group_name_H-M	'P 1'

loop_
_symmetry_equiv_pos_as_xyz
  x,y,z

loop_
_atom_site_label
_atom_site_type_symbol
_atom_site_fract_x
_atom_site_fract_y
_atom_site_fract_z
_atom_site_charge
Co	Co	0.60140 0.99957 0.66401 1.10600
Co	Co	0.60140 0.66444 0.00043 1.10600
Co	Co	0.60140 0.33599 0.33556 1.12200
Co	Co	0.10140 0.66444 0.66401 1.12000
Co	Co	0.10140 0.33599 0.00043 1.10300
Co	Co	0.10140 0.99957 0.33556 1.10300
H 	H 	0.56680 0.83020 0.62310 0.00200
H 	H 	0.55360 0.75450 0.68030 0.05900
H 	H 	0.55090 0.81580 0.82100 0.05000
H 	H 	0.60780 0.01910 0.82920 0.06900
H 	H 	0.02780 0.86390 0.35390 -0.05300
H 	H 	0.92220 0.82460 0.37280 0.10600
H 	H 	0.82630 0.90410 0.39970 -0.00700
H 	H 	0.94660 0.04870 0.35970 -0.01200
H 	H 	0.51700 0.14110 0.66400 0.01500
H 	H 	0.53240 0.22100 0.61020 0.05400
H 	H 	0.61330 0.20770 0.52200 0.04300
H 	H 	0.69750 0.03270 0.55090 0.03200
H 	H 	0.68000 0.23910 0.39860 0.01700
H 	H 	0.85890 0.25350 0.25460 0.05600
H 	H 	0.87160 0.15860 0.30150 0.05700
H 	H 	0.75720 0.31350 0.25700 0.02000
H 	H 	0.56680 0.79290 0.16980 0.01000
H 	H 	0.55360 0.92580 0.24550 0.03100
H 	H 	0.55090 0.00520 0.18420 0.10600
H 	H 	0.60780 0.81010 0.98090 0.07400
H 	H 	0.02780 0.49000 0.13610 -0.05200
H 	H 	0.92220 0.54820 0.17540 0.10700
H 	H 	0.82630 0.49560 0.09590 -0.00700
H 	H 	0.94660 0.31100 0.95130 -0.01200
H 	H 	0.51700 0.52290 0.85890 0.01500
H 	H 	0.53240 0.38920 0.77900 0.05400
H 	H 	0.61330 0.31430 0.79230 0.04300
H 	H 	0.69750 0.51820 0.96730 0.03200
H 	H 	0.68000 0.15950 0.76090 0.02100
H 	H 	0.85890 0.00110 0.74650 0.04300
H 	H 	0.87160 0.14290 0.84140 0.07000
H 	H 	0.75720 0.94350 0.68650 0.04700
H 	H 	0.56680 0.37690 0.20710 0.00700
H 	H 	0.55360 0.31970 0.07420 0.03600
H 	H 	0.55090 0.17900 0.99480 0.10200
H 	H 	0.60780 0.17080 0.18990 0.02700
H 	H 	0.02780 0.64610 0.51000 -0.03800
H 	H 	0.92220 0.62720 0.45180 0.08600
H 	H 	0.82630 0.60030 0.50440 0.02400
H 	H 	0.94660 0.64030 0.68900 0.01900
H 	H 	0.51700 0.33600 0.47710 0.01300
H 	H 	0.53240 0.38980 0.61080 0.05400
H 	H 	0.61330 0.47800 0.68570 0.04200
H 	H 	0.69750 0.44910 0.48180 0.02100
H 	H 	0.68000 0.60140 0.84050 0.02000
H 	H 	0.85890 0.74540 0.99890 0.04000
H 	H 	0.87160 0.69850 0.85710 0.06600
H 	H 	0.75720 0.74300 0.05650 0.04400
H 	H 	0.06680 0.79290 0.62310 0.00400
H 	H 	0.05360 0.92580 0.68030 0.03300
H 	H 	0.05090 0.00520 0.82100 0.10200
H 	H 	0.10780 0.81010 0.82920 0.02700
H 	H 	0.52780 0.49000 0.35390 -0.00600
H 	H 	0.42220 0.54820 0.37280 0.07000
H 	H 	0.32630 0.49560 0.39970 0.03100
H 	H 	0.44660 0.31100 0.35970 0.01500
H 	H 	0.01700 0.52290 0.66400 0.00900
H 	H 	0.03240 0.38920 0.61020 0.05100
H 	H 	0.11330 0.31430 0.52200 0.04200
H 	H 	0.19750 0.51820 0.55090 0.02100
H 	H 	0.18000 0.15950 0.39860 0.02000
H 	H 	0.35890 0.00110 0.25460 0.03500
H 	H 	0.37160 0.14290 0.30150 0.06200
H 	H 	0.25720 0.94350 0.25700 0.04400
H 	H 	0.06680 0.37690 0.16980 -0.00100
H 	H 	0.05360 0.31970 0.24550 0.05700
H 	H 	0.05090 0.17900 0.18420 0.04900
H 	H 	0.10780 0.17080 0.98090 0.07100
H 	H 	0.52780 0.64610 0.13610 -0.02000
H 	H 	0.42220 0.62720 0.17540 0.09000
H 	H 	0.32630 0.60030 0.09590 -0.00200
H 	H 	0.44660 0.64030 0.95130 -0.01800
H 	H 	0.01700 0.33600 0.85890 0.01100
H 	H 	0.03240 0.38980 0.77900 0.05100
H 	H 	0.11330 0.47800 0.79230 0.04200
H 	H 	0.19750 0.44910 0.96730 0.03200
H 	H 	0.18000 0.60140 0.76090 0.01700
H 	H 	0.35890 0.74540 0.74650 0.05200
H 	H 	0.37160 0.69850 0.84140 0.05200
H 	H 	0.25720 0.74300 0.68650 0.01900
H 	H 	0.06680 0.83020 0.20710 0.00700
H 	H 	0.05360 0.75450 0.07420 0.02700
H 	H 	0.05090 0.81580 0.99480 0.10700
H 	H 	0.10780 0.01910 0.18990 0.07500
H 	H 	0.52780 0.86390 0.51000 -0.02000
H 	H 	0.42220 0.82460 0.45180 0.09100
H 	H 	0.32630 0.90410 0.50440 -0.00100
H 	H 	0.44660 0.04870 0.68900 -0.01700
H 	H 	0.01700 0.14110 0.47710 0.01000
H 	H 	0.03240 0.22100 0.61080 0.05100
H 	H 	0.11330 0.20770 0.68570 0.04200
H 	H 	0.19750 0.03270 0.48180 0.03200
H 	H 	0.18000 0.23910 0.84050 0.02100
H 	H 	0.35890 0.25350 0.99890 0.03800
H 	H 	0.37160 0.15860 0.85710 0.06700
H 	H 	0.25720 0.31350 0.05650 0.04700
C 	C 	0.69350 0.86580 0.52530 0.09600
C 	C 	0.53490 0.15070 0.81570 0.09300
C 	C 	0.57300 0.85350 0.67830 0.04000
C 	C 	0.56180 0.80930 0.71200 -0.07600
C 	C 	0.56240 0.84520 0.79610 -0.02500
C 	C 	0.57980 0.92240 0.83890 -0.00600
C 	C 	0.59540 0.96520 0.79920 -0.04400
C 	C 	0.98790 0.89490 0.35860 0.16500
C 	C 	0.92630 0.87320 0.37350 -0.22000
C 	C 	0.87030 0.91960 0.38940 0.11900
C 	C 	0.87680 0.99010 0.39070 -0.18000
C 	C 	0.94200 0.00380 0.36560 0.16300
C 	C 	0.55520 0.13350 0.62980 0.02900
C 	C 	0.56530 0.17950 0.59500 -0.06900
C 	C 	0.61310 0.17460 0.54440 -0.00500
C 	C 	0.66390 0.11620 0.52660 -0.03700
C 	C 	0.66100 0.06950 0.56100 0.02400
C 	C 	0.71970 0.10450 0.47210 0.14400
C 	C 	0.58470 0.96280 0.92360 0.08800
C 	C 	0.81760 0.04820 0.40950 0.19800
C 	C 	0.76770 0.19630 0.35840 -0.03700
C 	C 	0.71500 0.23760 0.36350 0.04400
C 	C 	0.77050 0.14060 0.38800 0.11800
C 	C 	0.82000 0.24490 0.27960 -0.05400
C 	C 	0.83160 0.19070 0.31030 -0.02200
C 	C 	0.76010 0.28410 0.28320 0.00800
C 	C 	0.69350 0.65950 0.13420 0.09500
C 	C 	0.53490 0.66500 0.84930 0.09400
C 	C 	0.57300 0.82480 0.14650 0.00800
C 	C 	0.56180 0.90270 0.19070 -0.02400
C 	C 	0.56240 0.95090 0.15480 -0.13000
C 	C 	0.57980 0.91650 0.07760 0.04000
C 	C 	0.59540 0.83400 0.03480 -0.06900
C 	C 	0.98790 0.46370 0.10510 0.16400
C 	C 	0.92630 0.50030 0.12680 -0.21900
C 	C 	0.87030 0.46980 0.08040 0.12000
C 	C 	0.87680 0.40060 0.00990 -0.18000
C 	C 	0.94200 0.36180 0.99620 0.16500
C 	C 	0.55520 0.49630 0.86650 0.02900
C 	C 	0.56530 0.41550 0.82050 -0.06900
C 	C 	0.61310 0.36980 0.82540 -0.00500
C 	C 	0.66390 0.41040 0.88380 -0.03700
C 	C 	0.66100 0.49150 0.93050 0.02400
C 	C 	0.71970 0.36760 0.89550 0.14400
C 	C 	0.58470 0.96080 0.03720 0.03400
C 	C 	0.81760 0.36130 0.95180 0.19900
C 	C 	0.76770 0.16210 0.80370 -0.01900
C 	C 	0.71500 0.12590 0.76240 0.03500
C 	C 	0.77050 0.24740 0.85940 0.11500
C 	C 	0.82000 0.03470 0.75510 0.03100
C 	C 	0.83160 0.11960 0.80930 -0.05200
C 	C 	0.76010 0.99910 0.71590 -0.09000
C 	C 	0.69350 0.47470 0.34050 0.10100
C 	C 	0.53490 0.18430 0.33500 0.09000
C 	C 	0.57300 0.32170 0.17520 0.02000
C 	C 	0.56180 0.28800 0.09730 -0.03800
C 	C 	0.56240 0.20390 0.04910 -0.10600
C 	C 	0.57980 0.16110 0.08350 0.00700
C 	C 	0.59540 0.20080 0.16600 0.00800
C 	C 	0.98790 0.64140 0.53630 0.12900
C 	C 	0.92630 0.62650 0.49970 -0.15500
C 	C 	0.87030 0.61060 0.53020 0.04500
C 	C 	0.87680 0.60930 0.59940 -0.06300
C 	C 	0.94200 0.63440 0.63820 0.04800
C 	C 	0.55520 0.37020 0.50370 0.02600
C 	C 	0.56530 0.40500 0.58450 -0.07000
C 	C 	0.61310 0.45560 0.63020 -0.00600
C 	C 	0.66390 0.47340 0.58960 -0.04000
C 	C 	0.66100 0.43900 0.50850 0.02100
C 	C 	0.71970 0.52790 0.63240 0.14000
C 	C 	0.58470 0.07640 0.03920 0.08300
C 	C 	0.81760 0.59050 0.63870 0.14200
C 	C 	0.76770 0.64160 0.83790 -0.02100
C 	C 	0.71500 0.63650 0.87410 0.03400
C 	C 	0.77050 0.61200 0.75260 0.11100
C 	C 	0.82000 0.72040 0.96530 0.02800
C 	C 	0.83160 0.68970 0.88040 -0.05400
C 	C 	0.76010 0.71680 0.00090 -0.09000
C 	C 	0.19350 0.65950 0.52530 0.10000
C 	C 	0.03490 0.66500 0.81570 0.08800
C 	C 	0.07300 0.82480 0.67830 0.01700
C 	C 	0.06180 0.90270 0.71200 -0.03700
C 	C 	0.06240 0.95090 0.79610 -0.11200
C 	C 	0.07980 0.91650 0.83890 0.00800
C 	C 	0.09540 0.83400 0.79920 0.00500
C 	C 	0.48790 0.46370 0.35860 0.07400
C 	C 	0.42630 0.50030 0.37350 -0.11900
C 	C 	0.37030 0.46980 0.38940 0.02100
C 	C 	0.37680 0.40060 0.39070 -0.05400
C 	C 	0.44200 0.36180 0.36560 0.03900
C 	C 	0.05520 0.49630 0.62980 0.02400
C 	C 	0.06530 0.41550 0.59500 -0.07000
C 	C 	0.11310 0.36980 0.54440 -0.00700
C 	C 	0.16390 0.41040 0.52660 -0.04000
C 	C 	0.16100 0.49150 0.56100 0.02000
C 	C 	0.21970 0.36760 0.47210 0.13900
C 	C 	0.08470 0.96080 0.92360 0.07900
C 	C 	0.31760 0.36130 0.40950 0.13700
C 	C 	0.26770 0.16210 0.35840 -0.02100
C 	C 	0.21500 0.12590 0.36350 0.03300
C 	C 	0.27050 0.24740 0.38800 0.11000
C 	C 	0.32000 0.03470 0.27960 0.03100
C 	C 	0.33160 0.11960 0.31030 -0.05700
C 	C 	0.26010 0.99910 0.28320 -0.09500
C 	C 	0.19350 0.47470 0.13420 0.09500
C 	C 	0.03490 0.18430 0.84930 0.09100
C 	C 	0.07300 0.32170 0.14650 0.03700
C 	C 	0.06180 0.28800 0.19070 -0.07700
C 	C 	0.06240 0.20390 0.15480 -0.02800
C 	C 	0.07980 0.16110 0.07760 -0.00500
C 	C 	0.09540 0.20080 0.03480 -0.04900
C 	C 	0.48790 0.64140 0.10510 0.10800
C 	C 	0.42630 0.62650 0.12680 -0.18600
C 	C 	0.37030 0.61060 0.08040 0.09800
C 	C 	0.37680 0.60930 0.00990 -0.17700
C 	C 	0.44200 0.63440 0.99620 0.16100
C 	C 	0.05520 0.37020 0.86650 0.02700
C 	C 	0.06530 0.40500 0.82050 -0.06900
C 	C 	0.11310 0.45560 0.82540 -0.00700
C 	C 	0.16390 0.47340 0.88380 -0.03700
C 	C 	0.16100 0.43900 0.93050 0.02300
C 	C 	0.21970 0.52790 0.89550 0.14300
C 	C 	0.08470 0.07640 0.03720 0.08400
C 	C 	0.31760 0.59050 0.95180 0.19600
C 	C 	0.26770 0.64160 0.80370 -0.03800
C 	C 	0.21500 0.63650 0.76240 0.04300
C 	C 	0.27050 0.61200 0.85940 0.11700
C 	C 	0.32000 0.72040 0.75510 -0.05500
C 	C 	0.33160 0.68970 0.80930 -0.02300
C 	C 	0.26010 0.71680 0.71590 0.00700
C 	C 	0.19350 0.86580 0.34050 0.09500
C 	C 	0.03490 0.15070 0.33500 0.09200
C 	C 	0.07300 0.85350 0.17520 0.00500
C 	C 	0.06180 0.80930 0.09730 -0.02300
C 	C 	0.06240 0.84520 0.04910 -0.13600
C 	C 	0.07980 0.92240 0.08350 0.04100
C 	C 	0.09540 0.96520 0.16600 -0.07400
C 	C 	0.48790 0.89490 0.53630 0.10900
C 	C 	0.42630 0.87320 0.49970 -0.18600
C 	C 	0.37030 0.91960 0.53020 0.09900
C 	C 	0.37680 0.99010 0.59940 -0.17700
C 	C 	0.44200 0.00380 0.63820 0.16300
C 	C 	0.05520 0.13350 0.50370 0.02700
C 	C 	0.06530 0.17950 0.58450 -0.06900
C 	C 	0.11310 0.17460 0.63020 -0.00700
C 	C 	0.16390 0.11620 0.58960 -0.03700
C 	C 	0.16100 0.06950 0.50850 0.02300
C 	C 	0.21970 0.10450 0.63240 0.14300
C 	C 	0.08470 0.96280 0.03920 0.02900
C 	C 	0.31760 0.04820 0.63870 0.19700
C 	C 	0.26770 0.19630 0.83790 -0.02000
C 	C 	0.21500 0.23760 0.87410 0.03400
C 	C 	0.27050 0.14060 0.75260 0.11400
C 	C 	0.32000 0.24490 0.96530 0.03400
C 	C 	0.33160 0.19070 0.88040 -0.05500
C 	C 	0.26010 0.28410 0.00090 -0.09500
S 	S 	0.74540 0.80200 0.46170 -0.06100
S 	S 	0.51530 0.23620 0.88840 -0.03700
S 	S 	0.74540 0.65970 0.19800 -0.06300
S 	S 	0.51530 0.65220 0.76380 -0.05200
S 	S 	0.74540 0.53830 0.34030 -0.05800
S 	S 	0.51530 0.11160 0.34780 -0.04100
S 	S 	0.24540 0.65970 0.46170 -0.06200
S 	S 	0.01530 0.65220 0.88840 -0.05100
S 	S 	0.24540 0.53830 0.19800 -0.06500
S 	S 	0.01530 0.11160 0.76380 -0.04700
S 	S 	0.24540 0.80200 0.34030 -0.06700
S 	S 	0.01530 0.23620 0.34780 -0.06300
N 	N 	0.65230 0.90790 0.56890 -0.26800
N 	N 	0.55070 0.09020 0.75980 -0.24500
N 	N 	0.59270 0.93030 0.72030 -0.21800
N 	N 	0.99690 0.95710 0.35000 -0.27200
N 	N 	0.60550 0.07540 0.61030 -0.20400
N 	N 	0.71350 0.14980 0.43960 -0.14400
N 	N 	0.58910 0.04260 0.96040 -0.09800
N 	N 	0.82670 0.09370 0.37510 -0.14900
N 	N 	0.76640 0.05000 0.45240 -0.16300
N 	N 	0.69880 0.28000 0.32870 -0.22300
N 	N 	0.65230 0.66100 0.09210 -0.26800
N 	N 	0.55070 0.66960 0.90980 -0.24700
N 	N 	0.59270 0.79000 0.06970 -0.20900
N 	N 	0.99690 0.39290 0.04290 -0.27200
N 	N 	0.60550 0.53490 0.92460 -0.20400
N 	N 	0.71350 0.28980 0.85020 -0.14400
N 	N 	0.58910 0.91780 0.95740 -0.11200
N 	N 	0.82670 0.28140 0.90630 -0.14700
N 	N 	0.76640 0.40240 0.95000 -0.16300
N 	N 	0.69880 0.04870 0.72000 -0.19200
N 	N 	0.65230 0.43110 0.33900 -0.26400
N 	N 	0.55070 0.24020 0.33040 -0.25500
N 	N 	0.59270 0.27970 0.21000 -0.21800
N 	N 	0.99690 0.65000 0.60710 -0.22900
N 	N 	0.60550 0.38970 0.46510 -0.21100
N 	N 	0.71350 0.56040 0.71020 -0.14300
N 	N 	0.58910 0.03960 0.08220 -0.11100
N 	N 	0.82670 0.62490 0.71860 -0.14300
N 	N 	0.76640 0.54760 0.59760 -0.16000
N 	N 	0.69880 0.67130 0.95130 -0.19300
N 	N 	0.15230 0.66100 0.56890 -0.26500
N 	N 	0.05070 0.66960 0.75980 -0.25800
N 	N 	0.09270 0.79000 0.72030 -0.21900
N 	N 	0.49690 0.39290 0.35000 -0.22600
N 	N 	0.10550 0.53490 0.61030 -0.21300
N 	N 	0.21350 0.28980 0.43960 -0.14300
N 	N 	0.08910 0.91780 0.96040 -0.11000
N 	N 	0.32670 0.28140 0.37510 -0.14400
N 	N 	0.26640 0.40240 0.45240 -0.15900
N 	N 	0.19880 0.04870 0.32870 -0.19200
N 	N 	0.15230 0.43110 0.09210 -0.27000
N 	N 	0.05070 0.24020 0.90980 -0.24800
N 	N 	0.09270 0.27970 0.06970 -0.21800
N 	N 	0.49690 0.65000 0.04290 -0.27100
N 	N 	0.10550 0.38970 0.92460 -0.20500
N 	N 	0.21350 0.56040 0.85020 -0.14400
N 	N 	0.08910 0.03960 0.95740 -0.09700
N 	N 	0.32670 0.62490 0.90630 -0.15000
N 	N 	0.26640 0.54760 0.95000 -0.16300
N 	N 	0.19880 0.67130 0.72000 -0.22300
N 	N 	0.15230 0.90790 0.33900 -0.27000
N 	N 	0.05070 0.09020 0.33040 -0.25000
N 	N 	0.09270 0.93030 0.21000 -0.20900
N 	N 	0.49690 0.95710 0.60710 -0.27100
N 	N 	0.10550 0.07540 0.46510 -0.20500
N 	N 	0.21350 0.14980 0.71020 -0.14400
N 	N 	0.08910 0.04260 0.08220 -0.11200
N 	N 	0.32670 0.09370 0.71860 -0.14800
N 	N 	0.26640 0.05000 0.59760 -0.16300
N 	N 	0.19880 0.28000 0.95130 -0.19100
