data_crystal

_cell_length_a 7.31810
_cell_length_b 17.02000
_cell_length_c 10.57890
_cell_angle_alpha 90.00000
_cell_angle_beta  102.65100
_cell_angle_gamma 90.00000

_symmetry_space_group_name_	'P 1'
_symmetry_space_group_name_H-M	'P 1'

loop_
_symmetry_equiv_pos_as_xyz
  x,y,z

loop_
_atom_site_label
_atom_site_type_symbol
_atom_site_fract_x
_atom_site_fract_y
_atom_site_fract_z
_atom_site_charge
In	In	0.69333 0.39814 0.18043 2.00600
In	In	0.20093 0.45343 0.26209 1.99900
O 	O 	0.66910 0.53670 0.08180 -0.36400
O 	O 	0.58600 0.42520 0.98040 -0.47000
O 	O 	0.46200 0.78750 0.87350 -0.45200
O 	O 	0.28250 0.78920 0.67900 -0.39900
O 	O 	0.29720 0.43330 0.50110 -0.36000
O 	O 	0.25410 0.54960 0.40960 -0.42200
O 	O 	0.85550 0.06730 0.85730 -0.40800
O 	O 	0.88890 0.95720 0.96520 -0.47000
O 	O 	0.91600 0.32040 0.11270 -0.47000
O 	O 	0.19320 0.32850 0.25910 -0.52200
O 	O 	0.30000 0.06940 0.53210 -0.20100
O 	O 	0.11670 0.97130 0.45020 -0.22500
O 	O 	0.91970 0.45020 0.29060 -0.66100
O 	O 	0.49560 0.45100 0.26720 -0.64400
C 	C 	0.51220 0.54460 0.86500 -0.06200
C 	C 	0.49600 0.62410 0.86920 0.01000
H 	H 	0.53840 0.65030 0.94720 0.07500
C 	C 	0.41700 0.66660 0.75900 -0.06100
C 	C 	0.34300 0.62690 0.64290 0.01000
H 	H 	0.28130 0.65500 0.57060 0.08000
C 	C 	0.36100 0.54650 0.63530 -0.04900
C 	C 	0.44620 0.50570 0.74740 0.00800
H 	H 	0.45940 0.45150 0.74370 0.07800
C 	C 	0.59800 0.50120 0.98420 0.30100
C 	C 	0.39000 0.75190 0.77220 0.30700
C 	C 	0.29900 0.50620 0.50610 0.32100
C 	C 	0.97570 0.07720 0.08530 -0.08900
C 	C 	0.98100 0.15800 0.08390 0.05200
H 	H 	0.93010 0.18440 0.00730 0.06200
C 	C 	0.05900 0.20080 0.19250 -0.10400
C 	C 	0.13330 0.16070 0.30710 0.04100
H 	H 	0.19330 0.18830 0.38040 0.05600
C 	C 	0.11750 0.07920 0.31150 -0.08600
C 	C 	0.04700 0.03730 0.20340 0.05200
H 	H 	0.04590 0.98270 0.20630 0.04700
C 	C 	0.90200 0.02950 0.96490 0.33500
C 	C 	0.05600 0.28930 0.18900 0.37100
C 	C 	0.18400 0.03780 0.43880 0.31000
In	In	0.30667 0.89814 0.81957 2.00400
In	In	0.79907 0.95343 0.73791 1.99600
O 	O 	0.33090 0.03670 0.91820 -0.36100
O 	O 	0.41400 0.92520 0.01960 -0.48000
O 	O 	0.53800 0.28750 0.12650 -0.45300
O 	O 	0.71750 0.28920 0.32100 -0.40000
O 	O 	0.70280 0.93330 0.49890 -0.37800
O 	O 	0.74590 0.04960 0.59040 -0.42300
O 	O 	0.14450 0.56730 0.14270 -0.40600
O 	O 	0.11110 0.45720 0.03480 -0.44500
O 	O 	0.08400 0.82040 0.88730 -0.47000
O 	O 	0.80680 0.82850 0.74090 -0.52100
O 	O 	0.70000 0.56940 0.46790 -0.20000
O 	O 	0.88330 0.47130 0.54980 -0.20800
O 	O 	0.08030 0.95020 0.70940 -0.66700
O 	O 	0.50440 0.95100 0.73280 -0.65100
C 	C 	0.48780 0.04460 0.13500 -0.08600
C 	C 	0.50400 0.12410 0.13080 0.02800
H 	H 	0.46160 0.15030 0.05280 0.06900
C 	C 	0.58300 0.16660 0.24100 -0.07400
C 	C 	0.65700 0.12690 0.35710 0.02800
H 	H 	0.71870 0.15500 0.42940 0.07400
C 	C 	0.63900 0.04650 0.36470 -0.07400
C 	C 	0.55380 0.00570 0.25260 0.05800
H 	H 	0.54060 0.95150 0.25630 0.05300
C 	C 	0.40200 0.00120 0.01580 0.32100
C 	C 	0.61000 0.25190 0.22780 0.31200
C 	C 	0.70100 0.00620 0.49390 0.35400
C 	C 	0.02430 0.57720 0.91470 -0.06200
C 	C 	0.01900 0.65800 0.91610 0.03000
H 	H 	0.06990 0.68440 0.99270 0.06900
C 	C 	0.94100 0.70080 0.80750 -0.08800
C 	C 	0.86670 0.66070 0.69290 0.02200
H 	H 	0.80670 0.68830 0.61960 0.06300
C 	C 	0.88250 0.57920 0.68850 -0.06000
C 	C 	0.95300 0.53730 0.79660 0.00800
H 	H 	0.95410 0.48270 0.79370 0.07000
C 	C 	0.09800 0.52950 0.03510 0.29700
C 	C 	0.94400 0.78930 0.81100 0.36600
C 	C 	0.81600 0.53780 0.56120 0.28300
