data_crystal

_cell_length_a 13.00600
_cell_length_b 14.27900
_cell_length_c 17.51500
_cell_angle_alpha 96.87200
_cell_angle_beta  90.00000
_cell_angle_gamma 90.00000

_symmetry_space_group_name_	'P 1'
_symmetry_space_group_name_H-M	'P 1'

loop_
_symmetry_equiv_pos_as_xyz
  x,y,z

loop_
_atom_site_label
_atom_site_type_symbol
_atom_site_fract_x
_atom_site_fract_y
_atom_site_fract_z
_atom_site_charge
Co	Co	0.06702 0.99855 0.77396 1.18700
Co	Co	0.27162 0.43054 0.13121 1.08400
Co	Co	0.56702 0.50145 0.72604 1.18900
Co	Co	0.77162 0.06946 0.36879 1.08400
Co	Co	0.93298 0.00145 0.22604 1.18600
Co	Co	0.72838 0.56946 0.86879 1.08300
Co	Co	0.43298 0.49855 0.27396 1.18800
Co	Co	0.22838 0.93054 0.63121 1.08300
H 	H 	0.60180 0.22730 0.22540 0.02400
H 	H 	0.55550 0.30850 0.01460 0.03100
H 	H 	0.79160 0.13530 0.05010 0.04200
H 	H 	0.81790 0.11820 0.93580 0.06100
H 	H 	0.80460 0.23310 0.73590 0.04400
H 	H 	0.64040 0.34720 0.91990 0.03200
H 	H 	0.10180 0.27270 0.27460 0.02500
H 	H 	0.05550 0.19150 0.48540 0.03400
H 	H 	0.29160 0.36470 0.44990 0.04500
H 	H 	0.31790 0.38180 0.56420 0.05900
H 	H 	0.30460 0.26690 0.76410 0.04400
H 	H 	0.14040 0.15280 0.58010 0.03100
H 	H 	0.39820 0.77270 0.77460 0.02400
H 	H 	0.44450 0.69150 0.98540 0.03100
H 	H 	0.20840 0.86470 0.94990 0.04200
H 	H 	0.18210 0.88180 0.06420 0.06100
H 	H 	0.19540 0.76690 0.26410 0.04400
H 	H 	0.35960 0.65280 0.08010 0.03200
H 	H 	0.89820 0.72730 0.72540 0.02500
H 	H 	0.94450 0.80850 0.51460 0.03400
H 	H 	0.70840 0.63530 0.55010 0.04500
H 	H 	0.68210 0.61820 0.43580 0.05900
H 	H 	0.69540 0.73310 0.23590 0.04400
H 	H 	0.85960 0.84720 0.41990 0.03100
C 	C 	0.62100 0.22540 0.17286 0.06000
C 	C 	0.48190 0.34200 0.15660 0.39000
C 	C 	0.56650 0.27750 0.12470 -0.12100
C 	C 	0.59530 0.27530 0.04820 0.00400
C 	C 	0.71960 0.22900 0.93990 0.01200
C 	C 	0.70300 0.17050 0.14470 -0.12400
C 	C 	0.68180 0.22520 0.02000 -0.02800
C 	C 	0.73380 0.17170 0.06890 0.00500
C 	C 	0.79130 0.16470 0.90660 -0.04100
C 	C 	0.90770 0.09960 0.80000 0.29800
C 	C 	0.71660 0.30050 0.82200 -0.10200
C 	C 	0.67500 0.37360 0.77660 0.31600
C 	C 	0.78520 0.23340 0.78820 0.00900
C 	C 	0.68550 0.29950 0.89700 -0.03600
C 	C 	0.82500 0.16660 0.83190 -0.06600
C 	C 	0.76230 0.11170 0.19520 0.40100
C 	C 	0.12100 0.27460 0.32714 0.05600
C 	C 	0.98190 0.15800 0.34340 0.38600
C 	C 	0.06650 0.22250 0.37530 -0.11500
C 	C 	0.09530 0.22470 0.45180 -0.00100
C 	C 	0.21960 0.27100 0.56010 0.00600
C 	C 	0.20300 0.32950 0.35530 -0.12100
C 	C 	0.18180 0.27480 0.48000 -0.02100
C 	C 	0.23380 0.32830 0.43110 0.00100
C 	C 	0.29130 0.33530 0.59340 -0.03800
C 	C 	0.40770 0.40040 0.70000 0.29800
C 	C 	0.21660 0.19950 0.67800 -0.10200
C 	C 	0.17500 0.12640 0.72340 0.31600
C 	C 	0.28520 0.26660 0.71180 0.01000
C 	C 	0.18550 0.20050 0.60300 -0.03400
C 	C 	0.32500 0.33340 0.66810 -0.06700
C 	C 	0.26230 0.38830 0.30480 0.40000
C 	C 	0.37900 0.77460 0.82714 0.06000
C 	C 	0.51810 0.65800 0.84340 0.39000
C 	C 	0.43350 0.72250 0.87530 -0.12100
C 	C 	0.40470 0.72470 0.95180 0.00400
C 	C 	0.28040 0.77100 0.06010 0.01200
C 	C 	0.29700 0.82950 0.85530 -0.12400
C 	C 	0.31820 0.77480 0.98000 -0.02800
C 	C 	0.26620 0.82830 0.93110 0.00500
C 	C 	0.20870 0.83530 0.09340 -0.04100
C 	C 	0.09230 0.90040 0.20000 0.29800
C 	C 	0.28340 0.69950 0.17800 -0.10200
C 	C 	0.32500 0.62640 0.22340 0.31600
C 	C 	0.21480 0.76660 0.21180 0.00900
C 	C 	0.31450 0.70050 0.10300 -0.03600
C 	C 	0.17500 0.83340 0.16810 -0.06600
C 	C 	0.23770 0.88830 0.80480 0.40100
C 	C 	0.87900 0.72540 0.67286 0.05600
C 	C 	0.01810 0.84200 0.65660 0.38600
C 	C 	0.93350 0.77750 0.62470 -0.11500
C 	C 	0.90470 0.77530 0.54820 -0.00100
C 	C 	0.78040 0.72900 0.43990 0.00600
C 	C 	0.79700 0.67050 0.64470 -0.12100
C 	C 	0.81820 0.72520 0.52000 -0.02100
C 	C 	0.76620 0.67170 0.56890 0.00100
C 	C 	0.70870 0.66470 0.40660 -0.03800
C 	C 	0.59230 0.59960 0.30000 0.29800
C 	C 	0.78340 0.80050 0.32200 -0.10200
C 	C 	0.82500 0.87360 0.27660 0.31600
C 	C 	0.71480 0.73340 0.28820 0.01000
C 	C 	0.81450 0.79950 0.39700 -0.03400
C 	C 	0.67500 0.66660 0.33190 -0.06700
C 	C 	0.73770 0.61170 0.69520 0.40000
O 	O 	0.92710 0.08920 0.72976 -0.33200
O 	O 	0.95840 0.05748 0.84720 -0.39100
O 	O 	0.49540 0.37869 0.22530 -0.44800
O 	O 	0.40780 0.35551 0.11409 -0.47400
O 	O 	0.83290 0.06098 0.16287 -0.45100
O 	O 	0.73810 0.11754 0.26415 -0.49300
O 	O 	0.64416 0.45242 0.81414 -0.55200
O 	O 	0.66410 0.35775 0.70637 -0.34500
O 	O 	0.42710 0.41080 0.77024 -0.33100
O 	O 	0.45840 0.44252 0.65280 -0.39200
O 	O 	0.99540 0.12131 0.27470 -0.44900
O 	O 	0.90780 0.14449 0.38591 -0.47400
O 	O 	0.33290 0.43902 0.33713 -0.44900
O 	O 	0.23810 0.38246 0.23585 -0.49200
O 	O 	0.14416 0.04758 0.68586 -0.54900
O 	O 	0.16410 0.14225 0.79363 -0.34300
O 	O 	0.07290 0.91080 0.27024 -0.33200
O 	O 	0.04160 0.94252 0.15280 -0.39100
O 	O 	0.50460 0.62131 0.77470 -0.44800
O 	O 	0.59220 0.64449 0.88591 -0.47400
O 	O 	0.16710 0.93902 0.83713 -0.45100
O 	O 	0.26190 0.88246 0.73585 -0.49300
O 	O 	0.35584 0.54758 0.18586 -0.55200
O 	O 	0.33590 0.64225 0.29363 -0.34500
O 	O 	0.57290 0.58920 0.22976 -0.33100
O 	O 	0.54160 0.55748 0.34720 -0.39200
O 	O 	0.00460 0.87869 0.72530 -0.44900
O 	O 	0.09220 0.85551 0.61409 -0.47400
O 	O 	0.66710 0.56098 0.66287 -0.44900
O 	O 	0.76190 0.61754 0.76415 -0.49200
O 	O 	0.85584 0.95242 0.31414 -0.54900
O 	O 	0.83590 0.85775 0.20637 -0.34300
