data_crystal

_cell_length_a 21.94150
_cell_length_b 7.78780
_cell_length_c 19.66490
_cell_angle_alpha 90.00000
_cell_angle_beta  90.00000
_cell_angle_gamma 90.00000

_symmetry_space_group_name_	'P 1'
_symmetry_space_group_name_H-M	'P 1'

loop_
_symmetry_equiv_pos_as_xyz
  x,y,z

loop_
_atom_site_label
_atom_site_type_symbol
_atom_site_fract_x
_atom_site_fract_y
_atom_site_fract_z
_atom_site_charge
Pr	Pr	0.28128 0.57803 0.05564 2.06800
O 	O 	0.16737 0.55390 0.05631 -0.52900
O 	O 	0.24907 0.83330 0.98071 -0.63700
O 	O 	0.13899 0.28570 0.07558 -0.54200
O 	O 	0.32081 0.66910 0.93922 -0.47500
O 	O 	0.26276 0.69240 0.62526 -0.61400
O 	O 	0.32003 0.50330 0.67525 -0.43700
C 	C 	0.29140 0.80420 0.93710 0.46500
C 	C 	0.12760 0.44040 0.06850 0.52200
C 	C 	0.35380 0.89570 0.83290 0.07600
C 	C 	0.30460 0.94060 0.88510 -0.46000
H 	H 	0.31690 0.04410 0.90880 0.15900
H 	H 	0.26710 0.96630 0.86100 0.17000
C 	C 	0.06175 0.49550 0.07090 -0.43600
H 	H 	0.05910 0.61440 0.08530 0.15400
H 	H 	0.03970 0.42560 0.10350 0.16300
C 	C 	0.29880 0.64930 0.67290 0.40200
C 	C 	0.03345 0.47560 0.00110 0.00300
H 	H 	0.05560 0.54700 0.96910 0.02600
H 	H 	0.03780 0.35720 0.98660 0.03000
C 	C 	0.35020 0.26090 0.28360 -0.17200
C 	C 	0.30910 0.78480 0.78500 0.24800
C 	C 	0.33530 0.78160 0.71380 0.14600
C 	C 	0.29890 0.21100 0.22750 -0.33000
Pr	Pr	0.21872 0.92197 0.55564 2.06700
O 	O 	0.33263 0.94610 0.55631 -0.53100
O 	O 	0.25093 0.66670 0.48071 -0.63800
O 	O 	0.36101 0.21430 0.57558 -0.54200
O 	O 	0.17919 0.83090 0.43922 -0.47500
O 	O 	0.23724 0.80760 0.12526 -0.61300
O 	O 	0.17997 0.99670 0.17525 -0.43600
C 	C 	0.20860 0.69580 0.43710 0.46400
C 	C 	0.37240 0.05960 0.56850 0.52600
C 	C 	0.14620 0.60430 0.33290 0.07600
C 	C 	0.19540 0.55940 0.38510 -0.45500
H 	H 	0.18310 0.45590 0.40880 0.15600
H 	H 	0.23290 0.53370 0.36100 0.17000
C 	C 	0.43825 0.00450 0.57090 -0.44000
H 	H 	0.44090 0.88560 0.58530 0.15500
H 	H 	0.46030 0.07440 0.60350 0.16500
C 	C 	0.20120 0.85070 0.17290 0.40200
C 	C 	0.46655 0.02440 0.50110 0.01500
H 	H 	0.44440 0.95300 0.46910 0.02100
H 	H 	0.46220 0.14280 0.48660 0.02400
C 	C 	0.14980 0.23910 0.78360 -0.16700
C 	C 	0.19090 0.71520 0.28500 0.24400
C 	C 	0.16470 0.71840 0.21380 0.14200
C 	C 	0.20110 0.28900 0.72750 -0.32200
Pr	Pr	0.71872 0.57803 0.44436 2.06700
O 	O 	0.83263 0.55390 0.44369 -0.53000
O 	O 	0.75093 0.83330 0.51929 -0.63800
O 	O 	0.86101 0.28570 0.42442 -0.54200
O 	O 	0.67919 0.66910 0.56078 -0.47500
O 	O 	0.73724 0.69240 0.87474 -0.61400
O 	O 	0.67997 0.50330 0.82475 -0.43700
C 	C 	0.70860 0.80420 0.56290 0.46400
C 	C 	0.87240 0.44040 0.43150 0.52500
C 	C 	0.64620 0.89570 0.66710 0.07600
C 	C 	0.69540 0.94060 0.61490 -0.45700
H 	H 	0.68310 0.04410 0.59120 0.15700
H 	H 	0.73290 0.96630 0.63900 0.17000
C 	C 	0.93825 0.49550 0.42910 -0.44200
H 	H 	0.94090 0.61440 0.41470 0.15700
H 	H 	0.96030 0.42560 0.39650 0.16600
C 	C 	0.70120 0.64930 0.82710 0.40200
C 	C 	0.96655 0.47560 0.49890 0.01600
H 	H 	0.94440 0.54700 0.53090 0.02000
H 	H 	0.96220 0.35720 0.51340 0.02300
C 	C 	0.64980 0.26090 0.21640 -0.17300
C 	C 	0.69090 0.78480 0.71500 0.24700
C 	C 	0.66470 0.78160 0.78620 0.14500
C 	C 	0.70110 0.21100 0.27250 -0.33100
Pr	Pr	0.78128 0.92197 0.94436 2.06500
O 	O 	0.66737 0.94610 0.94369 -0.53300
O 	O 	0.74907 0.66670 0.01929 -0.63600
O 	O 	0.63899 0.21430 0.92442 -0.54200
O 	O 	0.82081 0.83090 0.06078 -0.47400
O 	O 	0.76276 0.80760 0.37474 -0.61300
O 	O 	0.82003 0.99670 0.32475 -0.43600
C 	C 	0.79140 0.69580 0.06290 0.46400
C 	C 	0.62760 0.05960 0.93150 0.52800
C 	C 	0.85380 0.60430 0.16710 0.07600
C 	C 	0.80460 0.55940 0.11490 -0.45500
H 	H 	0.81690 0.45590 0.09120 0.15600
H 	H 	0.76710 0.53370 0.13900 0.17000
C 	C 	0.56175 0.00450 0.92910 -0.43900
H 	H 	0.55910 0.88560 0.91470 0.15400
H 	H 	0.53970 0.07440 0.89650 0.16500
C 	C 	0.79880 0.85070 0.32710 0.40100
C 	C 	0.53345 0.02440 0.99890 0.01700
H 	H 	0.55560 0.95300 0.03090 0.02100
H 	H 	0.53780 0.14280 0.01340 0.02200
C 	C 	0.85020 0.23910 0.71640 -0.17000
C 	C 	0.80910 0.71520 0.21500 0.24100
C 	C 	0.83530 0.71840 0.28620 0.14100
C 	C 	0.79890 0.28900 0.77250 -0.32500
Pr	Pr	0.71872 0.42197 0.94436 2.06700
O 	O 	0.83263 0.44610 0.94369 -0.53000
O 	O 	0.75093 0.16670 0.01929 -0.63800
O 	O 	0.86101 0.71430 0.92442 -0.54300
O 	O 	0.67919 0.33090 0.06078 -0.47500
O 	O 	0.73724 0.30760 0.37474 -0.61400
O 	O 	0.67997 0.49670 0.32475 -0.43700
C 	C 	0.70860 0.19580 0.06290 0.46500
C 	C 	0.87240 0.55960 0.93150 0.52200
C 	C 	0.64620 0.10430 0.16710 0.07600
C 	C 	0.69540 0.05940 0.11490 -0.46000
H 	H 	0.68310 0.95590 0.09120 0.15900
H 	H 	0.73290 0.03370 0.13900 0.17000
C 	C 	0.93825 0.50450 0.92910 -0.43600
H 	H 	0.94090 0.38560 0.91470 0.15400
H 	H 	0.96030 0.57440 0.89650 0.16300
C 	C 	0.70120 0.35070 0.32710 0.40200
C 	C 	0.96655 0.52440 0.99890 0.00300
H 	H 	0.94440 0.45300 0.03090 0.02600
H 	H 	0.96220 0.64280 0.01340 0.03000
C 	C 	0.64980 0.73910 0.71640 -0.17200
C 	C 	0.69090 0.21520 0.21500 0.24800
C 	C 	0.66470 0.21840 0.28620 0.14600
C 	C 	0.70110 0.78900 0.77250 -0.33000
Pr	Pr	0.78128 0.07803 0.44436 2.06700
O 	O 	0.66737 0.05390 0.44369 -0.53100
O 	O 	0.74907 0.33330 0.51929 -0.63800
O 	O 	0.63899 0.78570 0.42442 -0.54200
O 	O 	0.82081 0.16910 0.56078 -0.47500
O 	O 	0.76276 0.19240 0.87474 -0.61300
O 	O 	0.82003 0.00330 0.82475 -0.43600
C 	C 	0.79140 0.30420 0.56290 0.46400
C 	C 	0.62760 0.94040 0.43150 0.52600
C 	C 	0.85380 0.39570 0.66710 0.07600
C 	C 	0.80460 0.44060 0.61490 -0.45500
H 	H 	0.81690 0.54410 0.59120 0.15600
H 	H 	0.76710 0.46630 0.63900 0.17000
C 	C 	0.56175 0.99550 0.42910 -0.44000
H 	H 	0.55910 0.11440 0.41470 0.15500
H 	H 	0.53970 0.92560 0.39650 0.16500
C 	C 	0.79880 0.14930 0.82710 0.40200
C 	C 	0.53345 0.97560 0.49890 0.01500
H 	H 	0.55560 0.04700 0.53090 0.02100
H 	H 	0.53780 0.85720 0.51340 0.02400
C 	C 	0.85020 0.76090 0.21640 -0.16700
C 	C 	0.80910 0.28480 0.71500 0.24400
C 	C 	0.83530 0.28160 0.78620 0.14200
C 	C 	0.79890 0.71100 0.27250 -0.32200
Pr	Pr	0.28128 0.42197 0.55564 2.06700
O 	O 	0.16737 0.44610 0.55631 -0.53000
O 	O 	0.24907 0.16670 0.48071 -0.63800
O 	O 	0.13899 0.71430 0.57558 -0.54200
O 	O 	0.32081 0.33090 0.43922 -0.47500
O 	O 	0.26276 0.30760 0.12526 -0.61400
O 	O 	0.32003 0.49670 0.17525 -0.43700
C 	C 	0.29140 0.19580 0.43710 0.46400
C 	C 	0.12760 0.55960 0.56850 0.52500
C 	C 	0.35380 0.10430 0.33290 0.07600
C 	C 	0.30460 0.05940 0.38510 -0.45700
H 	H 	0.31690 0.95590 0.40880 0.15700
H 	H 	0.26710 0.03370 0.36100 0.17000
C 	C 	0.06175 0.50450 0.57090 -0.44200
H 	H 	0.05910 0.38560 0.58530 0.15700
H 	H 	0.03970 0.57440 0.60350 0.16600
C 	C 	0.29880 0.35070 0.17290 0.40200
C 	C 	0.03345 0.52440 0.50110 0.01600
H 	H 	0.05560 0.45300 0.46910 0.02000
H 	H 	0.03780 0.64280 0.48660 0.02300
C 	C 	0.35020 0.73910 0.78360 -0.17300
C 	C 	0.30910 0.21520 0.28500 0.24700
C 	C 	0.33530 0.21840 0.21380 0.14500
C 	C 	0.29890 0.78900 0.72750 -0.33100
Pr	Pr	0.21872 0.07803 0.05564 2.06500
O 	O 	0.33263 0.05390 0.05631 -0.53300
O 	O 	0.25093 0.33330 0.98071 -0.63600
O 	O 	0.36101 0.78570 0.07558 -0.54200
O 	O 	0.17919 0.16910 0.93922 -0.47400
O 	O 	0.23724 0.19240 0.62526 -0.61300
O 	O 	0.17997 0.00330 0.67525 -0.43600
C 	C 	0.20860 0.30420 0.93710 0.46400
C 	C 	0.37240 0.94040 0.06850 0.52800
C 	C 	0.14620 0.39570 0.83290 0.07600
C 	C 	0.19540 0.44060 0.88510 -0.45500
H 	H 	0.18310 0.54410 0.90880 0.15600
H 	H 	0.23290 0.46630 0.86100 0.17000
C 	C 	0.43825 0.99550 0.07090 -0.43900
H 	H 	0.44090 0.11440 0.08530 0.15400
H 	H 	0.46030 0.92560 0.10350 0.16500
C 	C 	0.20120 0.14930 0.67290 0.40100
C 	C 	0.46655 0.97560 0.00110 0.01700
H 	H 	0.44440 0.04700 0.96910 0.02100
H 	H 	0.46220 0.85720 0.98660 0.02200
C 	C 	0.14980 0.76090 0.28360 -0.17000
C 	C 	0.19090 0.28480 0.78500 0.24100
C 	C 	0.16470 0.28160 0.71380 0.14100
C 	C 	0.20110 0.71100 0.22750 -0.32500
