data_crystal

_cell_length_a 8.65500
_cell_length_b 9.93660
_cell_length_c 11.71700
_cell_angle_alpha 74.71000
_cell_angle_beta  69.79500
_cell_angle_gamma 85.95900

_symmetry_space_group_name_	'P 1'
_symmetry_space_group_name_H-M	'P 1'

loop_
_symmetry_equiv_pos_as_xyz
  x,y,z

loop_
_atom_site_label
_atom_site_type_symbol
_atom_site_fract_x
_atom_site_fract_y
_atom_site_fract_z
_atom_site_charge
Pr	Pr	0.74555 0.97761 0.01192 2.03600
Pr	Pr	0.25445 0.02239 0.98808 2.03600
H 	H 	0.26560 0.97540 0.67210 0.15600
H 	H 	0.24580 0.81350 0.72540 0.13600
H 	H 	0.09510 0.79840 0.60280 0.02200
H 	H 	0.08570 0.96140 0.56040 0.02000
H 	H 	0.37420 0.97290 0.45710 0.02600
H 	H 	0.37620 0.80960 0.49340 0.03000
H 	H 	0.20450 0.95950 0.33650 0.14900
H 	H 	0.23380 0.79870 0.36240 0.13700
H 	H 	0.75490 0.48330 0.21830 0.13200
H 	H 	0.72090 0.46960 0.09880 0.12800
H 	H 	0.03490 0.52250 0.10270 0.03300
H 	H 	0.97670 0.37820 0.09940 0.02900
H 	H 	0.73440 0.02460 0.32790 0.15600
H 	H 	0.75420 0.18650 0.27460 0.13600
H 	H 	0.90490 0.20160 0.39720 0.02200
H 	H 	0.91430 0.03860 0.43960 0.02000
H 	H 	0.62580 0.02710 0.54290 0.02600
H 	H 	0.62380 0.19040 0.50660 0.03000
H 	H 	0.79550 0.04050 0.66350 0.14900
H 	H 	0.76620 0.20130 0.63760 0.13700
H 	H 	0.24510 0.51670 0.78170 0.13200
H 	H 	0.27910 0.53040 0.90120 0.12800
H 	H 	0.96510 0.47750 0.89730 0.03300
H 	H 	0.02330 0.62180 0.90060 0.02900
C 	C 	0.04460 0.91560 0.80680 0.45000
C 	C 	0.18990 0.89700 0.69720 -0.42500
C 	C 	0.15500 0.88530 0.58290 0.02100
C 	C 	0.31090 0.88940 0.47200 0.00200
C 	C 	0.28290 0.88820 0.35120 -0.41400
C 	C 	0.56440 0.08730 0.76330 0.45300
C 	C 	0.76220 0.67150 0.09280 0.41100
C 	C 	0.78940 0.51660 0.12740 -0.36300
C 	C 	0.96720 0.47840 0.07130 -0.01100
C 	C 	0.95540 0.08440 0.19320 0.45000
C 	C 	0.81010 0.10300 0.30280 -0.42500
C 	C 	0.84500 0.11470 0.41710 0.02100
C 	C 	0.68910 0.11060 0.52800 0.00200
C 	C 	0.71710 0.11180 0.64880 -0.41400
C 	C 	0.43560 0.91270 0.23670 0.45300
C 	C 	0.23780 0.32850 0.90720 0.41100
C 	C 	0.21060 0.48340 0.87260 -0.36300
C 	C 	0.03280 0.52160 0.92870 -0.01100
O 	O 	0.57770 0.04480 0.87212 -0.66100
O 	O 	0.57510 0.89270 0.24680 -0.47200
O 	O 	0.86250 0.75300 0.09830 -0.47900
O 	O 	0.64160 0.71860 0.05910 -0.44700
O 	O 	0.90060 0.88360 0.81880 -0.46300
O 	O 	0.06810 0.96470 0.88908 -0.63600
O 	O 	0.42230 0.95520 0.12788 -0.66100
O 	O 	0.42490 0.10730 0.75320 -0.47200
O 	O 	0.13750 0.24700 0.90170 -0.47900
O 	O 	0.35840 0.28140 0.94090 -0.44700
O 	O 	0.09940 0.11640 0.18120 -0.46300
O 	O 	0.93190 0.03530 0.11092 -0.63600
