data_crystal

_cell_length_a 21.87000
_cell_length_b 7.65200
_cell_length_c 19.62400
_cell_angle_alpha 90.00000
_cell_angle_beta  90.00000
_cell_angle_gamma 90.00000

_symmetry_space_group_name_	'P 1'
_symmetry_space_group_name_H-M	'P 1'

loop_
_symmetry_equiv_pos_as_xyz
  x,y,z

loop_
_atom_site_label
_atom_site_type_symbol
_atom_site_fract_x
_atom_site_fract_y
_atom_site_fract_z
_atom_site_charge
Eu	Eu	0.78070 0.92477 0.94608 1.97000
O 	O 	0.75128 0.17020 0.01940 -0.61000
O 	O 	0.68040 0.33920 0.06130 -0.47200
O 	O 	0.68135 0.49890 0.32760 -0.45600
O 	O 	0.73859 0.30680 0.37827 -0.62100
O 	O 	0.66870 0.94650 0.94570 -0.52500
O 	O 	0.63968 0.22190 0.92698 -0.53600
C 	C 	0.70920 0.20080 0.06360 0.46800
C 	C 	0.69510 0.06330 0.11520 -0.38800
H 	H 	0.73290 0.03210 0.13810 0.14000
H 	H 	0.68080 0.96020 0.09130 0.13300
C 	C 	0.64870 0.10990 0.16850 0.00300
H 	H 	0.64340 0.00650 0.19650 -0.00800
H 	H 	0.61040 0.12780 0.14470 0.00200
C 	C 	0.65560 0.26070 0.21670 0.16000
H 	H 	0.61580 0.29420 0.23410 -0.04200
H 	H 	0.67270 0.36010 0.19270 -0.03900
C 	C 	0.69700 0.21210 0.27560 -0.18700
H 	H 	0.68170 0.10540 0.29610 0.15000
H 	H 	0.73750 0.18770 0.25780 0.07700
C 	C 	0.70240 0.35000 0.33020 0.43800
H 	H 	0.63000 0.00720 0.18850 0.02500
H 	H 	0.61730 0.18710 0.15090 0.02100
C 	C 	0.69410 0.20900 0.22160 -0.16000
H 	H 	0.73170 0.14330 0.22670 0.04000
H 	H 	0.70420 0.32440 0.20450 0.07300
C 	C 	0.66250 0.22500 0.28930 -0.12700
H 	H 	0.65990 0.11160 0.31170 -0.05200
H 	H 	0.62150 0.27100 0.28380 0.06600
C 	C 	0.62890 0.06170 0.93370 0.54600
C 	C 	0.56290 0.00540 0.93020 -0.44600
H 	H 	0.56050 0.88440 0.91570 0.14900
H 	H 	0.54130 0.07650 0.89720 0.16000
C 	C 	0.53350 0.02540 0.99960 0.02100
H 	H 	0.53730 0.14610 0.01420 0.01500
H 	H 	0.55540 0.95340 0.03220 0.01300
Eu	Eu	0.71930 0.57523 0.44608 1.97800
O 	O 	0.74872 0.32980 0.51940 -0.61200
O 	O 	0.81960 0.16080 0.56130 -0.47300
O 	O 	0.81865 0.00110 0.82760 -0.45500
O 	O 	0.76141 0.19320 0.87827 -0.62000
O 	O 	0.83130 0.55350 0.44570 -0.52400
O 	O 	0.86032 0.27810 0.42698 -0.53700
C 	C 	0.79080 0.29920 0.56360 0.46600
C 	C 	0.80490 0.43670 0.61520 -0.38300
H 	H 	0.76710 0.46790 0.63810 0.13800
H 	H 	0.81920 0.53980 0.59130 0.12800
C 	C 	0.85130 0.39010 0.66850 -0.00100
H 	H 	0.85660 0.49350 0.69650 -0.00800
H 	H 	0.88960 0.37220 0.64470 0.00300
C 	C 	0.84440 0.23930 0.71670 0.15900
H 	H 	0.88420 0.20580 0.73410 -0.04200
H 	H 	0.82730 0.13990 0.69270 -0.03800
C 	C 	0.80300 0.28790 0.77560 -0.18700
H 	H 	0.81830 0.39460 0.79610 0.15000
H 	H 	0.76250 0.31230 0.75780 0.07700
C 	C 	0.79760 0.15000 0.83020 0.43800
H 	H 	0.87000 0.49280 0.68850 0.02600
H 	H 	0.88270 0.31290 0.65090 0.02100
C 	C 	0.80590 0.29100 0.72160 -0.15700
H 	H 	0.76830 0.35670 0.72670 0.03900
H 	H 	0.79580 0.17560 0.70450 0.07200
C 	C 	0.83750 0.27500 0.78930 -0.12800
H 	H 	0.84010 0.38840 0.81170 -0.05100
H 	H 	0.87850 0.22900 0.78380 0.06700
C 	C 	0.87110 0.43830 0.43370 0.54300
C 	C 	0.93710 0.49460 0.43020 -0.44900
H 	H 	0.93950 0.61560 0.41570 0.15200
H 	H 	0.95870 0.42350 0.39720 0.16000
C 	C 	0.96650 0.47460 0.49960 0.02000
H 	H 	0.96270 0.35390 0.51420 0.01600
H 	H 	0.94460 0.54660 0.53220 0.01300
Eu	Eu	0.21930 0.92477 0.55392 1.97600
O 	O 	0.24872 0.17020 0.48060 -0.61100
O 	O 	0.31960 0.33920 0.43870 -0.47300
O 	O 	0.31865 0.49890 0.17240 -0.45700
O 	O 	0.26141 0.30680 0.12173 -0.62100
O 	O 	0.33130 0.94650 0.55430 -0.52500
O 	O 	0.36032 0.22190 0.57302 -0.53700
C 	C 	0.29080 0.20080 0.43640 0.46700
C 	C 	0.30490 0.06330 0.38480 -0.38500
H 	H 	0.26710 0.03210 0.36190 0.13800
H 	H 	0.31920 0.96020 0.40870 0.12900
C 	C 	0.35130 0.10990 0.33150 0.00000
H 	H 	0.35660 0.00650 0.30350 -0.00800
H 	H 	0.38960 0.12780 0.35530 0.00300
C 	C 	0.34440 0.26070 0.28330 0.16000
H 	H 	0.38420 0.29420 0.26590 -0.04200
H 	H 	0.32730 0.36010 0.30730 -0.03900
C 	C 	0.30300 0.21210 0.22440 -0.18700
H 	H 	0.31830 0.10540 0.20390 0.15000
H 	H 	0.26250 0.18770 0.24220 0.07700
C 	C 	0.29760 0.35000 0.16980 0.43800
H 	H 	0.37000 0.00720 0.31150 0.02500
H 	H 	0.38270 0.18710 0.34910 0.02100
C 	C 	0.30590 0.20900 0.27840 -0.15800
H 	H 	0.26830 0.14330 0.27330 0.03900
H 	H 	0.29580 0.32440 0.29550 0.07200
C 	C 	0.33750 0.22500 0.21070 -0.12800
H 	H 	0.34010 0.11160 0.18830 -0.05100
H 	H 	0.37850 0.27100 0.21620 0.06700
C 	C 	0.37110 0.06170 0.56630 0.54400
C 	C 	0.43710 0.00540 0.56980 -0.44700
H 	H 	0.43950 0.88440 0.58430 0.15100
H 	H 	0.45870 0.07650 0.60280 0.16000
C 	C 	0.46650 0.02540 0.50040 0.01900
H 	H 	0.46270 0.14610 0.48580 0.01700
H 	H 	0.44460 0.95340 0.46780 0.01300
Eu	Eu	0.28070 0.57523 0.05392 1.97700
O 	O 	0.25128 0.32980 0.98060 -0.60900
O 	O 	0.18040 0.16080 0.93870 -0.47000
O 	O 	0.18135 0.00110 0.67240 -0.45600
O 	O 	0.23859 0.19320 0.62173 -0.62100
O 	O 	0.16870 0.55350 0.05430 -0.52400
O 	O 	0.13968 0.27810 0.07302 -0.53700
C 	C 	0.20920 0.29920 0.93640 0.46600
C 	C 	0.19510 0.43670 0.88480 -0.38200
H 	H 	0.23290 0.46790 0.86190 0.13800
H 	H 	0.18080 0.53980 0.90870 0.12800
C 	C 	0.14870 0.39010 0.83150 -0.00200
H 	H 	0.14340 0.49350 0.80350 -0.00700
H 	H 	0.11040 0.37220 0.85530 0.00400
C 	C 	0.15560 0.23930 0.78330 0.16000
H 	H 	0.11580 0.20580 0.76590 -0.04200
H 	H 	0.17270 0.13990 0.80730 -0.03800
C 	C 	0.19700 0.28790 0.72440 -0.18700
H 	H 	0.18170 0.39460 0.70390 0.15000
H 	H 	0.23750 0.31230 0.74220 0.07800
C 	C 	0.20240 0.15000 0.66980 0.43900
H 	H 	0.13000 0.49280 0.81150 0.02600
H 	H 	0.11730 0.31290 0.84910 0.02100
C 	C 	0.19410 0.29100 0.77840 -0.15800
H 	H 	0.23170 0.35670 0.77330 0.03900
H 	H 	0.20420 0.17560 0.79550 0.07200
C 	C 	0.16250 0.27500 0.71070 -0.12800
H 	H 	0.15990 0.38840 0.68830 -0.05100
H 	H 	0.12150 0.22900 0.71620 0.06700
C 	C 	0.12890 0.43830 0.06630 0.54000
C 	C 	0.06290 0.49460 0.06980 -0.44300
H 	H 	0.06050 0.61560 0.08430 0.15000
H 	H 	0.04130 0.42350 0.10280 0.15700
C 	C 	0.03350 0.47460 0.00040 0.00800
H 	H 	0.03730 0.35390 0.98580 0.02300
H 	H 	0.05540 0.54660 0.96780 0.01900
Eu	Eu	0.21930 0.07523 0.05392 1.96900
O 	O 	0.24872 0.82980 0.98060 -0.61100
O 	O 	0.31960 0.66080 0.93870 -0.47300
O 	O 	0.31865 0.50110 0.67240 -0.45700
O 	O 	0.26141 0.69320 0.62173 -0.62200
O 	O 	0.33130 0.05350 0.05430 -0.52600
O 	O 	0.36032 0.77810 0.07302 -0.53700
C 	C 	0.29080 0.79920 0.93640 0.46700
C 	C 	0.30490 0.93670 0.88480 -0.38900
H 	H 	0.26710 0.96790 0.86190 0.13900
H 	H 	0.31920 0.03980 0.90870 0.13200
C 	C 	0.35130 0.89010 0.83150 0.00200
H 	H 	0.35660 0.99350 0.80350 -0.00800
H 	H 	0.38960 0.87220 0.85530 0.00200
C 	C 	0.34440 0.73930 0.78330 0.16000
H 	H 	0.38420 0.70580 0.76590 -0.04200
H 	H 	0.32730 0.63990 0.80730 -0.03900
C 	C 	0.30300 0.78790 0.72440 -0.18700
H 	H 	0.31830 0.89460 0.70390 0.15000
H 	H 	0.26250 0.81230 0.74220 0.07700
C 	C 	0.29760 0.65000 0.66980 0.43800
H 	H 	0.37000 0.99280 0.81150 0.02500
H 	H 	0.38270 0.81290 0.84910 0.02100
C 	C 	0.30590 0.79100 0.77840 -0.16000
H 	H 	0.26830 0.85670 0.77330 0.04000
H 	H 	0.29580 0.67560 0.79550 0.07300
C 	C 	0.33750 0.77500 0.71070 -0.12700
H 	H 	0.34010 0.88840 0.68830 -0.05200
H 	H 	0.37850 0.72900 0.71620 0.06600
C 	C 	0.37110 0.93830 0.06630 0.54600
C 	C 	0.43710 0.99460 0.06980 -0.44600
H 	H 	0.43950 0.11560 0.08430 0.14900
H 	H 	0.45870 0.92350 0.10280 0.16000
C 	C 	0.46650 0.97460 0.00040 0.02100
H 	H 	0.46270 0.85390 0.98580 0.01500
H 	H 	0.44460 0.04660 0.96780 0.01300
Eu	Eu	0.28070 0.42477 0.55392 1.97800
O 	O 	0.25128 0.67020 0.48060 -0.61200
O 	O 	0.18040 0.83920 0.43870 -0.47300
O 	O 	0.18135 0.99890 0.17240 -0.45500
O 	O 	0.23859 0.80680 0.12173 -0.62000
O 	O 	0.16870 0.44650 0.55430 -0.52400
O 	O 	0.13968 0.72190 0.57302 -0.53700
C 	C 	0.20920 0.70080 0.43640 0.46600
C 	C 	0.19510 0.56330 0.38480 -0.38300
H 	H 	0.23290 0.53210 0.36190 0.13800
H 	H 	0.18080 0.46020 0.40870 0.12800
C 	C 	0.14870 0.60990 0.33150 -0.00100
H 	H 	0.14340 0.50650 0.30350 -0.00800
H 	H 	0.11040 0.62780 0.35530 0.00300
C 	C 	0.15560 0.76070 0.28330 0.15900
H 	H 	0.11580 0.79420 0.26590 -0.04200
H 	H 	0.17270 0.86010 0.30730 -0.03800
C 	C 	0.19700 0.71210 0.22440 -0.18700
H 	H 	0.18170 0.60540 0.20390 0.15000
H 	H 	0.23750 0.68770 0.24220 0.07700
C 	C 	0.20240 0.85000 0.16980 0.43800
H 	H 	0.13000 0.50720 0.31150 0.02600
H 	H 	0.11730 0.68710 0.34910 0.02100
C 	C 	0.19410 0.70900 0.27840 -0.15700
H 	H 	0.23170 0.64330 0.27330 0.03900
H 	H 	0.20420 0.82440 0.29550 0.07200
C 	C 	0.16250 0.72500 0.21070 -0.12800
H 	H 	0.15990 0.61160 0.18830 -0.05100
H 	H 	0.12150 0.77100 0.21620 0.06700
C 	C 	0.12890 0.56170 0.56630 0.54300
C 	C 	0.06290 0.50540 0.56980 -0.44900
H 	H 	0.06050 0.38440 0.58430 0.15200
H 	H 	0.04130 0.57650 0.60280 0.16000
C 	C 	0.03350 0.52540 0.50040 0.02000
H 	H 	0.03730 0.64610 0.48580 0.01600
H 	H 	0.05540 0.45340 0.46780 0.01300
Eu	Eu	0.78070 0.07523 0.44608 1.97600
O 	O 	0.75128 0.82980 0.51940 -0.61100
O 	O 	0.68040 0.66080 0.56130 -0.47300
O 	O 	0.68135 0.50110 0.82760 -0.45700
O 	O 	0.73859 0.69320 0.87827 -0.62100
O 	O 	0.66870 0.05350 0.44570 -0.52500
O 	O 	0.63968 0.77810 0.42698 -0.53700
C 	C 	0.70920 0.79920 0.56360 0.46700
C 	C 	0.69510 0.93670 0.61520 -0.38500
H 	H 	0.73290 0.96790 0.63810 0.13800
H 	H 	0.68080 0.03980 0.59130 0.12900
C 	C 	0.64870 0.89010 0.66850 0.00000
H 	H 	0.64340 0.99350 0.69650 -0.00800
H 	H 	0.61040 0.87220 0.64470 0.00300
C 	C 	0.65560 0.73930 0.71670 0.16000
H 	H 	0.61580 0.70580 0.73410 -0.04200
H 	H 	0.67270 0.63990 0.69270 -0.03900
C 	C 	0.69700 0.78790 0.77560 -0.18700
H 	H 	0.68170 0.89460 0.79610 0.15000
H 	H 	0.73750 0.81230 0.75780 0.07700
C 	C 	0.70240 0.65000 0.83020 0.43800
H 	H 	0.63000 0.99280 0.68850 0.02500
H 	H 	0.61730 0.81290 0.65090 0.02100
C 	C 	0.69410 0.79100 0.72160 -0.15800
H 	H 	0.73170 0.85670 0.72670 0.03900
H 	H 	0.70420 0.67560 0.70450 0.07200
C 	C 	0.66250 0.77500 0.78930 -0.12800
H 	H 	0.65990 0.88840 0.81170 -0.05100
H 	H 	0.62150 0.72900 0.78380 0.06700
C 	C 	0.62890 0.93830 0.43370 0.54400
C 	C 	0.56290 0.99460 0.43020 -0.44700
H 	H 	0.56050 0.11560 0.41570 0.15100
H 	H 	0.54130 0.92350 0.39720 0.16000
C 	C 	0.53350 0.97460 0.49960 0.01900
H 	H 	0.53730 0.85390 0.51420 0.01700
H 	H 	0.55540 0.04660 0.53220 0.01300
Eu	Eu	0.71930 0.42477 0.94608 1.97700
O 	O 	0.74872 0.67020 0.01940 -0.60900
O 	O 	0.81960 0.83920 0.06130 -0.47000
O 	O 	0.81865 0.99890 0.32760 -0.45600
O 	O 	0.76141 0.80680 0.37827 -0.62100
O 	O 	0.83130 0.44650 0.94570 -0.52400
O 	O 	0.86032 0.72190 0.92698 -0.53700
C 	C 	0.79080 0.70080 0.06360 0.46600
C 	C 	0.80490 0.56330 0.11520 -0.38200
H 	H 	0.76710 0.53210 0.13810 0.13800
H 	H 	0.81920 0.46020 0.09130 0.12800
C 	C 	0.85130 0.60990 0.16850 -0.00200
H 	H 	0.85660 0.50650 0.19650 -0.00700
H 	H 	0.88960 0.62780 0.14470 0.00400
C 	C 	0.84440 0.76070 0.21670 0.16000
H 	H 	0.88420 0.79420 0.23410 -0.04200
H 	H 	0.82730 0.86010 0.19270 -0.03800
C 	C 	0.80300 0.71210 0.27560 -0.18700
H 	H 	0.81830 0.60540 0.29610 0.15000
H 	H 	0.76250 0.68770 0.25780 0.07800
C 	C 	0.79760 0.85000 0.33020 0.43900
H 	H 	0.87000 0.50720 0.18850 0.02600
H 	H 	0.88270 0.68710 0.15090 0.02100
C 	C 	0.80590 0.70900 0.22160 -0.15800
H 	H 	0.76830 0.64330 0.22670 0.03900
H 	H 	0.79580 0.82440 0.20450 0.07200
C 	C 	0.83750 0.72500 0.28930 -0.12800
H 	H 	0.84010 0.61160 0.31170 -0.05100
H 	H 	0.87850 0.77100 0.28380 0.06700
C 	C 	0.87110 0.56170 0.93370 0.54000
C 	C 	0.93710 0.50540 0.93020 -0.44300
H 	H 	0.93950 0.38440 0.91570 0.15000
H 	H 	0.95870 0.57650 0.89720 0.15700
C 	C 	0.96650 0.52540 0.99960 0.00800
H 	H 	0.96270 0.64610 0.01420 0.02300
H 	H 	0.94460 0.45340 0.03220 0.01900
