data_crystal

_cell_length_a 27.11200
_cell_length_b 17.06970
_cell_length_c 27.56140
_cell_angle_alpha 90.00000
_cell_angle_beta  101.51800
_cell_angle_gamma 90.00000

_symmetry_space_group_name_	'P 1'
_symmetry_space_group_name_H-M	'P 1'

loop_
_symmetry_equiv_pos_as_xyz
  x,y,z

loop_
_atom_site_label
_atom_site_type_symbol
_atom_site_fract_x
_atom_site_fract_y
_atom_site_fract_z
_atom_site_charge
Cu	Cu	0.19521 0.20202 0.62084 0.40900
Cu	Cu	0.37714 0.21262 0.61144 0.58900
Cu	Cu	0.45309 0.97709 0.70650 0.61800
Cu	Cu	0.39503 0.34646 0.45865 0.43600
Cu	Cu	0.60214 0.89967 0.63723 0.37100
Cu	Cu	0.38132 0.58507 0.35398 0.43300
Cu	Cu	0.68982 0.15256 0.62558 0.43000
Cu	Cu	0.87143 0.19638 0.62188 0.37800
Cu	Cu	0.98676 0.02144 0.73042 0.35900
Cu	Cu	0.11188 0.69578 0.54185 0.37900
Cu	Cu	0.10326 0.45047 0.63472 0.44200
Cu	Cu	0.12033 0.94056 0.64026 0.41600
Cu	Cu	0.19060 0.18470 0.62250 0.35200
Cu	Cu	0.37230 0.20160 0.62130 0.19900
Cu	Cu	0.48390 0.01770 0.72720 0.55400
Cu	Cu	0.38730 0.30880 0.45580 0.54800
Cu	Cu	0.38240 0.06620 0.35860 0.68900
Cu	Cu	0.39620 0.55650 0.36290 0.47800
Cu	Cu	0.31010 0.80650 0.37830 0.58700
Cu	Cu	0.12430 0.79540 0.38490 0.36800
Cu	Cu	0.02230 0.98650 0.27890 0.41400
Cu	Cu	0.10990 0.68440 0.54390 0.35800
Cu	Cu	0.10990 0.43620 0.64240 0.33700
Cu	Cu	0.11300 0.92480 0.64110 0.35700
C 	C 	0.30860 0.22310 0.61920 -0.30300
N 	N 	0.26590 0.21720 0.62080 -0.22500
C 	C 	0.13380 0.35220 0.62760 -0.32700
N 	N 	0.15500 0.29360 0.62430 -0.22000
C 	C 	0.41290 0.13150 0.65070 -0.32100
N 	N 	0.42850 0.07540 0.67230 -0.27800
C 	C 	0.39830 0.30600 0.52270 -0.37400
N 	N 	0.39460 0.27440 0.55940 -0.22100
C 	C 	0.51110 0.93550 0.68700 -0.41800
N 	N 	0.54800 0.92010 0.67270 -0.22800
N 	N 	0.38970 0.20040 0.39190 -0.19100
C 	C 	0.38940 0.25830 0.41300 -0.45900
C 	C 	0.39150 0.44150 0.42500 -0.27700
N 	N 	0.38710 0.49710 0.39950 -0.32700
N 	N 	0.40150 0.93730 0.79200 -0.25400
C 	C 	0.41940 0.94930 0.75700 -0.37400
C 	C 	0.34560 0.75150 0.37260 -0.53200
N 	N 	0.36090 0.68900 0.36800 -0.17700
N 	N 	0.66010 0.05260 0.62930 -0.12900
C 	C 	0.63940 0.99200 0.63280 -0.69700
N 	N 	0.80060 0.18800 0.62360 -0.20900
C 	C 	0.75840 0.17400 0.62350 -0.35400
C 	C 	0.92200 0.15260 0.67090 -0.27500
N 	N 	0.95140 0.11450 0.69780 -0.23000
C 	C 	0.11040 0.73180 0.47730 -0.25900
N 	N 	0.11440 0.75720 0.43960 -0.25100
C 	C 	0.10580 0.59670 0.57000 -0.31100
N 	N 	0.10490 0.53870 0.59140 -0.21200
C 	C 	0.12510 0.83950 0.61250 -0.31600
N 	N 	0.12460 0.78190 0.59023 -0.20500
C 	C 	0.03900 0.98090 0.70150 -0.28400
N 	N 	0.07100 0.96090 0.68230 -0.23600
C 	C 	0.15270 0.03450 0.62860 -0.24700
N 	N 	0.16920 0.09540 0.62290 -0.26700
N 	N 	0.06930 0.47330 0.68870 -0.23500
C 	C 	0.04600 0.49040 0.71850 -0.27700
Cu	Cu	0.80479 0.70202 0.87916 0.40800
Cu	Cu	0.62286 0.71262 0.88856 0.58800
Cu	Cu	0.54691 0.47709 0.79350 0.61700
Cu	Cu	0.60497 0.84646 0.04135 0.43500
Cu	Cu	0.39786 0.39967 0.86277 0.37100
Cu	Cu	0.61868 0.08507 0.14602 0.43300
Cu	Cu	0.31018 0.65256 0.87442 0.43000
Cu	Cu	0.12857 0.69638 0.87812 0.37800
Cu	Cu	0.01324 0.52144 0.76958 0.35900
Cu	Cu	0.88812 0.19578 0.95815 0.37900
Cu	Cu	0.89674 0.95047 0.86528 0.44100
Cu	Cu	0.87967 0.44056 0.85974 0.41600
Cu	Cu	0.80940 0.68470 0.87750 0.35200
Cu	Cu	0.62770 0.70160 0.87870 0.20000
Cu	Cu	0.51610 0.51770 0.77280 0.55400
Cu	Cu	0.61270 0.80880 0.04420 0.54800
Cu	Cu	0.61760 0.56620 0.14140 0.69000
Cu	Cu	0.60380 0.05650 0.13710 0.47800
Cu	Cu	0.68990 0.30650 0.12170 0.58700
Cu	Cu	0.87570 0.29540 0.11510 0.36800
Cu	Cu	0.97770 0.48650 0.22110 0.41500
Cu	Cu	0.89010 0.18440 0.95610 0.35800
Cu	Cu	0.89010 0.93620 0.85760 0.33700
Cu	Cu	0.88700 0.42480 0.85890 0.35800
C 	C 	0.69140 0.72310 0.88080 -0.30300
N 	N 	0.73410 0.71720 0.87920 -0.22500
C 	C 	0.86620 0.85220 0.87240 -0.32700
N 	N 	0.84500 0.79360 0.87570 -0.22000
C 	C 	0.58710 0.63150 0.84930 -0.32100
N 	N 	0.57150 0.57540 0.82770 -0.27800
C 	C 	0.60170 0.80600 0.97730 -0.37400
N 	N 	0.60540 0.77440 0.94060 -0.22100
C 	C 	0.48890 0.43550 0.81300 -0.41800
N 	N 	0.45200 0.42010 0.82730 -0.22800
N 	N 	0.61030 0.70040 0.10810 -0.19100
C 	C 	0.61060 0.75830 0.08700 -0.45900
C 	C 	0.60850 0.94150 0.07500 -0.27700
N 	N 	0.61290 0.99710 0.10050 -0.32700
N 	N 	0.59850 0.43730 0.70800 -0.25400
C 	C 	0.58060 0.44930 0.74300 -0.37400
C 	C 	0.65440 0.25150 0.12740 -0.53200
N 	N 	0.63910 0.18900 0.13200 -0.17700
N 	N 	0.33990 0.55260 0.87070 -0.12800
C 	C 	0.36060 0.49200 0.86720 -0.69800
N 	N 	0.19940 0.68800 0.87640 -0.20900
C 	C 	0.24160 0.67400 0.87650 -0.35300
C 	C 	0.07800 0.65260 0.82910 -0.27500
N 	N 	0.04860 0.61450 0.80220 -0.23000
C 	C 	0.88960 0.23180 0.02270 -0.25900
N 	N 	0.88560 0.25720 0.06040 -0.25100
C 	C 	0.89420 0.09670 0.93000 -0.31100
N 	N 	0.89510 0.03870 0.90860 -0.21200
C 	C 	0.87490 0.33950 0.88750 -0.31600
N 	N 	0.87540 0.28190 0.90977 -0.20500
C 	C 	0.96100 0.48090 0.79850 -0.28400
N 	N 	0.92900 0.46090 0.81770 -0.23600
C 	C 	0.84730 0.53450 0.87140 -0.24700
N 	N 	0.83080 0.59540 0.87710 -0.26700
N 	N 	0.93070 0.97330 0.81130 -0.23500
C 	C 	0.95400 0.99040 0.78150 -0.27700
Cu	Cu	0.80479 0.79798 0.37916 0.40800
Cu	Cu	0.62286 0.78738 0.38856 0.58800
Cu	Cu	0.54691 0.02291 0.29350 0.61700
Cu	Cu	0.60497 0.65354 0.54135 0.43500
Cu	Cu	0.39786 0.10033 0.36277 0.37100
Cu	Cu	0.61868 0.41493 0.64602 0.43300
Cu	Cu	0.31018 0.84744 0.37442 0.43000
Cu	Cu	0.12857 0.80362 0.37812 0.37800
Cu	Cu	0.01324 0.97856 0.26958 0.35900
Cu	Cu	0.88812 0.30422 0.45815 0.37900
Cu	Cu	0.89674 0.54953 0.36528 0.44200
Cu	Cu	0.87967 0.05944 0.35974 0.41600
Cu	Cu	0.80940 0.81530 0.37750 0.35200
Cu	Cu	0.62770 0.79840 0.37870 0.19900
Cu	Cu	0.51610 0.98230 0.27280 0.55400
Cu	Cu	0.61270 0.69120 0.54420 0.54800
Cu	Cu	0.61760 0.93380 0.64140 0.68900
Cu	Cu	0.60380 0.44350 0.63710 0.47800
Cu	Cu	0.68990 0.19350 0.62170 0.58700
Cu	Cu	0.87570 0.20460 0.61510 0.36800
Cu	Cu	0.97770 0.01350 0.72110 0.41400
Cu	Cu	0.89010 0.31560 0.45610 0.35800
Cu	Cu	0.89010 0.56380 0.35760 0.33700
Cu	Cu	0.88700 0.07520 0.35890 0.35700
C 	C 	0.69140 0.77690 0.38080 -0.30300
N 	N 	0.73410 0.78280 0.37920 -0.22500
C 	C 	0.86620 0.64780 0.37240 -0.32700
N 	N 	0.84500 0.70640 0.37570 -0.22000
C 	C 	0.58710 0.86850 0.34930 -0.32100
N 	N 	0.57150 0.92460 0.32770 -0.27800
C 	C 	0.60170 0.69400 0.47730 -0.37400
N 	N 	0.60540 0.72560 0.44060 -0.22100
C 	C 	0.48890 0.06450 0.31300 -0.41800
N 	N 	0.45200 0.07990 0.32730 -0.22800
N 	N 	0.61030 0.79960 0.60810 -0.19100
C 	C 	0.61060 0.74170 0.58700 -0.45900
C 	C 	0.60850 0.55850 0.57500 -0.27700
N 	N 	0.61290 0.50290 0.60050 -0.32700
N 	N 	0.59850 0.06270 0.20800 -0.25400
C 	C 	0.58060 0.05070 0.24300 -0.37400
C 	C 	0.65440 0.24850 0.62740 -0.53200
N 	N 	0.63910 0.31100 0.63200 -0.17700
N 	N 	0.33990 0.94740 0.37070 -0.12900
C 	C 	0.36060 0.00800 0.36720 -0.69700
N 	N 	0.19940 0.81200 0.37640 -0.20900
C 	C 	0.24160 0.82600 0.37650 -0.35400
C 	C 	0.07800 0.84740 0.32910 -0.27500
N 	N 	0.04860 0.88550 0.30220 -0.23000
C 	C 	0.88960 0.26820 0.52270 -0.25900
N 	N 	0.88560 0.24280 0.56040 -0.25100
C 	C 	0.89420 0.40330 0.43000 -0.31100
N 	N 	0.89510 0.46130 0.40860 -0.21200
C 	C 	0.87490 0.16050 0.38750 -0.31600
N 	N 	0.87540 0.21810 0.40977 -0.20500
C 	C 	0.96100 0.01910 0.29850 -0.28400
N 	N 	0.92900 0.03910 0.31770 -0.23600
C 	C 	0.84730 0.96550 0.37140 -0.24700
N 	N 	0.83080 0.90460 0.37710 -0.26700
N 	N 	0.93070 0.52670 0.31130 -0.23500
C 	C 	0.95400 0.50960 0.28150 -0.27700
Cu	Cu	0.19521 0.29798 0.12084 0.40800
Cu	Cu	0.37714 0.28738 0.11144 0.58800
Cu	Cu	0.45309 0.52291 0.20650 0.61700
Cu	Cu	0.39503 0.15354 0.95865 0.43500
Cu	Cu	0.60214 0.60033 0.13723 0.37100
Cu	Cu	0.38132 0.91493 0.85398 0.43300
Cu	Cu	0.68982 0.34744 0.12558 0.43000
Cu	Cu	0.87143 0.30362 0.12188 0.37800
Cu	Cu	0.98676 0.47856 0.23042 0.35900
Cu	Cu	0.11188 0.80422 0.04185 0.37900
Cu	Cu	0.10326 0.04953 0.13472 0.44100
Cu	Cu	0.12033 0.55944 0.14026 0.41600
Cu	Cu	0.19060 0.31530 0.12250 0.35200
Cu	Cu	0.37230 0.29840 0.12130 0.20000
Cu	Cu	0.48390 0.48230 0.22720 0.55400
Cu	Cu	0.38730 0.19120 0.95580 0.54800
Cu	Cu	0.38240 0.43380 0.85860 0.69000
Cu	Cu	0.39620 0.94350 0.86290 0.47800
Cu	Cu	0.31010 0.69350 0.87830 0.58700
Cu	Cu	0.12430 0.70460 0.88490 0.36800
Cu	Cu	0.02230 0.51350 0.77890 0.41500
Cu	Cu	0.10990 0.81560 0.04390 0.35800
Cu	Cu	0.10990 0.06380 0.14240 0.33700
Cu	Cu	0.11300 0.57520 0.14110 0.35800
C 	C 	0.30860 0.27690 0.11920 -0.30300
N 	N 	0.26590 0.28280 0.12080 -0.22500
C 	C 	0.13380 0.14780 0.12760 -0.32700
N 	N 	0.15500 0.20640 0.12430 -0.22000
C 	C 	0.41290 0.36850 0.15070 -0.32100
N 	N 	0.42850 0.42460 0.17230 -0.27800
C 	C 	0.39830 0.19400 0.02270 -0.37400
N 	N 	0.39460 0.22560 0.05940 -0.22100
C 	C 	0.51110 0.56450 0.18700 -0.41800
N 	N 	0.54800 0.57990 0.17270 -0.22800
N 	N 	0.38970 0.29960 0.89190 -0.19100
C 	C 	0.38940 0.24170 0.91300 -0.45900
C 	C 	0.39150 0.05850 0.92500 -0.27700
N 	N 	0.38710 0.00290 0.89950 -0.32700
N 	N 	0.40150 0.56270 0.29200 -0.25400
C 	C 	0.41940 0.55070 0.25700 -0.37400
C 	C 	0.34560 0.74850 0.87260 -0.53200
N 	N 	0.36090 0.81100 0.86800 -0.17700
N 	N 	0.66010 0.44740 0.12930 -0.12800
C 	C 	0.63940 0.50800 0.13280 -0.69800
N 	N 	0.80060 0.31200 0.12360 -0.20900
C 	C 	0.75840 0.32600 0.12350 -0.35300
C 	C 	0.92200 0.34740 0.17090 -0.27500
N 	N 	0.95140 0.38550 0.19780 -0.23000
C 	C 	0.11040 0.76820 0.97730 -0.25900
N 	N 	0.11440 0.74280 0.93960 -0.25100
C 	C 	0.10580 0.90330 0.07000 -0.31100
N 	N 	0.10490 0.96130 0.09140 -0.21200
C 	C 	0.12510 0.66050 0.11250 -0.31600
N 	N 	0.12460 0.71810 0.09023 -0.20500
C 	C 	0.03900 0.51910 0.20150 -0.28400
N 	N 	0.07100 0.53910 0.18230 -0.23600
C 	C 	0.15270 0.46550 0.12860 -0.24700
N 	N 	0.16920 0.40460 0.12290 -0.26700
N 	N 	0.06930 0.02670 0.18870 -0.23500
C 	C 	0.04600 0.00960 0.21850 -0.27700
