data_crystal

_cell_length_a 15.97420
_cell_length_b 15.97420
_cell_length_c 19.43830
_cell_angle_alpha 90.00000
_cell_angle_beta  90.00000
_cell_angle_gamma 120.00000

_symmetry_space_group_name_	'P 1'
_symmetry_space_group_name_H-M	'P 1'

loop_
_symmetry_equiv_pos_as_xyz
  x,y,z

loop_
_atom_site_label
_atom_site_type_symbol
_atom_site_fract_x
_atom_site_fract_y
_atom_site_fract_z
_atom_site_charge
C 	C 	0.17260 0.42740 0.32140 0.15300
C 	C 	0.12380 0.35740 0.27050 0.07500
C 	C 	0.16330 0.30630 0.24220 -0.11200
H 	H 	0.13120 0.26210 0.20710 0.06200
C 	C 	0.25230 0.32140 0.26660 -0.01300
H 	H 	0.27870 0.28650 0.24720 0.02600
C 	C 	0.29990 0.38360 0.31640 -0.04800
H 	H 	0.35810 0.39080 0.33210 0.05100
C 	C 	0.26250 0.43980 0.34630 -0.08200
C 	C 	0.31720 0.51120 0.39680 0.09600
H 	H 	0.37510 0.51620 0.41130 0.02900
C 	C 	0.35390 0.65090 0.46740 0.06300
H 	H 	0.40970 0.64550 0.48200 0.03700
C 	C 	0.38980 0.74360 0.42700 -0.17000
H 	H 	0.43020 0.74380 0.38970 0.08400
H 	H 	0.33460 0.74420 0.40680 0.09100
C 	C 	0.44650 0.83430 0.46850 -0.06500
H 	H 	0.46230 0.89010 0.43990 0.05000
H 	H 	0.50650 0.83900 0.48370 0.05300
C 	C 	0.97840 0.27520 0.20380 0.04000
H 	H 	0.01940 0.26870 0.17070 -0.00400
H 	H 	0.93640 0.29300 0.18070 0.04100
H 	H 	0.94020 0.21480 0.22720 0.02500
N 	N 	0.29270 0.56850 0.42360 -0.31400
O 	O 	0.14100 0.48230 0.34262 -0.42100
O 	O 	0.03700 0.34890 0.25310 -0.27600
O 	O 	0.92350 0.47000 0.46000 -0.25200
H 	H 	0.24500 0.55600 0.41500 0.24900
C 	C 	0.57260 0.74520 0.65473 0.16600
C 	C 	0.64260 0.76640 0.60383 0.05200
C 	C 	0.69370 0.85700 0.57553 -0.08700
H 	H 	0.73790 0.86910 0.54043 0.06500
C 	C 	0.67860 0.93090 0.59993 -0.02200
H 	H 	0.71350 0.99220 0.58053 0.04400
C 	C 	0.61640 0.91630 0.64973 -0.03600
H 	H 	0.60920 0.96730 0.66543 0.05700
C 	C 	0.56020 0.82270 0.67963 -0.08300
C 	C 	0.48880 0.80600 0.73013 0.10000
H 	H 	0.48380 0.85890 0.74463 0.03500
C 	C 	0.34910 0.70300 0.80073 0.06300
H 	H 	0.35450 0.76420 0.81533 0.03800
C 	C 	0.25640 0.64620 0.76033 -0.17200
H 	H 	0.25620 0.68640 0.72303 0.08200
H 	H 	0.25580 0.59040 0.74013 0.09100
C 	C 	0.16570 0.61220 0.80183 -0.06300
H 	H 	0.10990 0.57220 0.77323 0.03600
H 	H 	0.16100 0.66750 0.81703 0.04600
C 	C 	0.72480 0.70320 0.53713 -0.21300
H 	H 	0.73130 0.75070 0.50403 0.10300
H 	H 	0.70700 0.64340 0.51403 0.11400
H 	H 	0.78520 0.72540 0.56053 0.10400
N 	N 	0.43150 0.72420 0.75693 -0.31400
O 	O 	0.51770 0.65870 0.67595 -0.42100
O 	O 	0.65110 0.68810 0.58643 -0.20500
O 	O 	0.53000 0.45350 0.79333 -0.27500
H 	H 	0.44400 0.68900 0.74833 0.25000
C 	C 	0.25480 0.82740 0.98807 0.29000
C 	C 	0.23360 0.87620 0.93717 -0.03300
C 	C 	0.14300 0.83670 0.90887 0.01200
H 	H 	0.13090 0.86880 0.87377 0.02200
C 	C 	0.06910 0.74770 0.93327 -0.14200
H 	H 	0.00780 0.72130 0.91387 0.06600
C 	C 	0.08370 0.70010 0.98307 0.10300
H 	H 	0.03270 0.64190 0.99877 0.00200
C 	C 	0.17730 0.73750 0.01297 -0.22200
C 	C 	0.19400 0.68280 0.06347 0.15600
H 	H 	0.14110 0.62490 0.07797 0.00100
C 	C 	0.29700 0.64610 0.13407 0.06400
H 	H 	0.23580 0.59030 0.14867 0.03500
C 	C 	0.35380 0.61020 0.09367 -0.16400
H 	H 	0.31360 0.56980 0.05637 0.07100
H 	H 	0.40960 0.66540 0.07347 0.08300
C 	C 	0.38780 0.55350 0.13517 -0.06600
H 	H 	0.42780 0.53770 0.10657 0.04000
H 	H 	0.33250 0.49350 0.15037 0.04800
C 	C 	0.29680 0.02160 0.87047 -0.42300
H 	H 	0.24930 0.98060 0.83737 0.17900
H 	H 	0.35660 0.06360 0.84737 0.16800
H 	H 	0.27460 0.05980 0.89387 0.15600
N 	N 	0.27580 0.70730 0.09027 -0.33500
O 	O 	0.34130 0.85900 0.00929 -0.47100
O 	O 	0.31190 0.96300 0.91977 -0.12400
O 	O 	0.54650 0.07650 0.12667 -0.28100
H 	H 	0.31100 0.75500 0.08167 0.25700
C 	C 	0.82740 0.57260 0.32140 0.18000
C 	C 	0.87620 0.64260 0.27050 0.02700
C 	C 	0.83670 0.69370 0.24220 -0.06500
H 	H 	0.86880 0.73790 0.20710 0.05300
C 	C 	0.74770 0.67860 0.26660 -0.04200
H 	H 	0.72130 0.71350 0.24720 0.04100
C 	C 	0.70010 0.61640 0.31640 -0.02100
H 	H 	0.64190 0.60920 0.33210 0.04300
C 	C 	0.73750 0.56020 0.34630 -0.09600
C 	C 	0.68280 0.48880 0.39680 0.10600
H 	H 	0.62490 0.48380 0.41130 0.02600
C 	C 	0.64610 0.34910 0.46740 0.06600
H 	H 	0.59030 0.35450 0.48200 0.03600
C 	C 	0.61020 0.25640 0.42700 -0.17400
H 	H 	0.56980 0.25620 0.38970 0.08200
H 	H 	0.66540 0.25580 0.40680 0.09100
C 	C 	0.55350 0.16570 0.46850 -0.05900
H 	H 	0.53770 0.10990 0.43990 0.03400
H 	H 	0.49350 0.16100 0.48370 0.04400
C 	C 	0.02160 0.72480 0.20380 -0.42500
H 	H 	0.98060 0.73130 0.17070 0.18200
H 	H 	0.06360 0.70700 0.18070 0.16800
H 	H 	0.05980 0.78520 0.22720 0.15600
N 	N 	0.70730 0.43150 0.42360 -0.31800
O 	O 	0.85900 0.51770 0.34262 -0.41900
O 	O 	0.96300 0.65110 0.25310 -0.14200
O 	O 	0.07650 0.53000 0.46000 -0.28000
H 	H 	0.75500 0.44400 0.41500 0.25200
C 	C 	0.42740 0.25480 0.65473 0.16600
C 	C 	0.35740 0.23360 0.60383 0.05000
C 	C 	0.30630 0.14300 0.57553 -0.09200
H 	H 	0.26210 0.13090 0.54043 0.05200
C 	C 	0.32140 0.06910 0.59993 -0.03100
H 	H 	0.28650 0.00780 0.58053 0.02200
C 	C 	0.38360 0.08370 0.64973 -0.03800
H 	H 	0.39080 0.03270 0.66543 0.03900
C 	C 	0.43980 0.17730 0.67963 -0.09200
C 	C 	0.51120 0.19400 0.73013 0.10000
H 	H 	0.51620 0.14110 0.74463 0.02500
C 	C 	0.65090 0.29700 0.80073 0.06300
H 	H 	0.64550 0.23580 0.81533 0.03700
C 	C 	0.74360 0.35380 0.76033 -0.16800
H 	H 	0.74380 0.31360 0.72303 0.08200
H 	H 	0.74420 0.40960 0.74013 0.09000
C 	C 	0.83430 0.38780 0.80183 -0.06800
H 	H 	0.89010 0.42780 0.77323 0.05100
H 	H 	0.83900 0.33250 0.81703 0.05400
C 	C 	0.27520 0.29680 0.53713 -0.18200
H 	H 	0.26870 0.24930 0.50403 0.08400
H 	H 	0.29300 0.35660 0.51403 0.10000
H 	H 	0.21480 0.27460 0.56053 0.08200
N 	N 	0.56850 0.27580 0.75693 -0.31600
O 	O 	0.48230 0.34130 0.67595 -0.42200
O 	O 	0.34890 0.31190 0.58643 -0.21300
O 	O 	0.47000 0.54650 0.79333 -0.27500
H 	H 	0.55600 0.31100 0.74833 0.25000
C 	C 	0.74520 0.17260 0.98807 0.28100
C 	C 	0.76640 0.12380 0.93717 0.00300
C 	C 	0.85700 0.16330 0.90887 -0.01600
H 	H 	0.86910 0.13120 0.87377 0.03800
C 	C 	0.93090 0.25230 0.93327 -0.12200
H 	H 	0.99220 0.27870 0.91387 0.07900
C 	C 	0.91630 0.29990 0.98307 0.09800
H 	H 	0.96730 0.35810 0.99877 0.02300
C 	C 	0.82270 0.26250 0.01297 -0.21800
C 	C 	0.80600 0.31720 0.06347 0.15400
H 	H 	0.85890 0.37510 0.07797 0.01100
C 	C 	0.70300 0.35390 0.13407 0.06300
H 	H 	0.76420 0.40970 0.14867 0.03700
C 	C 	0.64620 0.38980 0.09367 -0.16400
H 	H 	0.68640 0.43020 0.05637 0.07300
H 	H 	0.59040 0.33460 0.07347 0.08200
C 	C 	0.61220 0.44650 0.13517 -0.06700
H 	H 	0.57220 0.46230 0.10657 0.04100
H 	H 	0.66750 0.50650 0.15037 0.05000
C 	C 	0.70320 0.97840 0.87047 -0.03500
H 	H 	0.75070 0.01940 0.83737 0.03000
H 	H 	0.64340 0.93640 0.84737 0.06700
H 	H 	0.72540 0.94020 0.89387 0.05900
N 	N 	0.72420 0.29270 0.09027 -0.33200
O 	O 	0.65870 0.14100 0.00929 -0.48200
O 	O 	0.68810 0.03700 0.91977 -0.23500
O 	O 	0.45350 0.92350 0.12667 -0.25100
H 	H 	0.68900 0.24500 0.08167 0.25400
C 	C 	0.42740 0.17260 0.01193 0.02200
C 	C 	0.35740 0.12380 0.06283 0.14800
C 	C 	0.30630 0.16330 0.09113 -0.20900
H 	H 	0.26210 0.13120 0.12623 0.09400
C 	C 	0.32140 0.25230 0.06673 0.10000
H 	H 	0.28650 0.27870 0.08613 -0.01900
C 	C 	0.38360 0.29990 0.01693 -0.19700
H 	H 	0.39080 0.35810 0.00123 0.08900
C 	C 	0.43980 0.26250 0.98703 0.06200
C 	C 	0.51120 0.31720 0.93653 0.03600
H 	H 	0.51620 0.37510 0.92203 0.05500
C 	C 	0.65090 0.35390 0.86593 0.06400
H 	H 	0.64550 0.40970 0.85133 0.03800
C 	C 	0.74360 0.38980 0.90633 -0.17900
H 	H 	0.74380 0.43020 0.94363 0.09600
H 	H 	0.74420 0.33460 0.92653 0.10000
C 	C 	0.83430 0.44650 0.86483 -0.05900
H 	H 	0.89010 0.46230 0.89343 0.05100
H 	H 	0.83900 0.50650 0.84963 0.05300
C 	C 	0.27520 0.97840 0.12953 0.07900
H 	H 	0.26870 0.01940 0.16263 -0.01600
H 	H 	0.29300 0.93640 0.15263 0.03100
H 	H 	0.21480 0.94020 0.10613 0.01000
N 	N 	0.56850 0.29270 0.90973 -0.29400
O 	O 	0.48230 0.14100 0.99071 -0.35600
O 	O 	0.34890 0.03700 0.08023 -0.30700
O 	O 	0.47000 0.92350 0.87333 -0.25100
H 	H 	0.55600 0.24500 0.91833 0.24300
C 	C 	0.74520 0.57260 0.67860 0.16500
C 	C 	0.76640 0.64260 0.72950 0.05200
C 	C 	0.85700 0.69370 0.75780 -0.08700
H 	H 	0.86910 0.73790 0.79290 0.06700
C 	C 	0.93090 0.67860 0.73340 -0.02200
H 	H 	0.99220 0.71350 0.75280 0.04400
C 	C 	0.91630 0.61640 0.68360 -0.03600
H 	H 	0.96730 0.60920 0.66790 0.05800
C 	C 	0.82270 0.56020 0.65370 -0.08300
C 	C 	0.80600 0.48880 0.60320 0.09900
H 	H 	0.85890 0.48380 0.58870 0.03500
C 	C 	0.70300 0.34910 0.53260 0.06400
H 	H 	0.76420 0.35450 0.51800 0.03800
C 	C 	0.64620 0.25640 0.57300 -0.17300
H 	H 	0.68640 0.25620 0.61030 0.08300
H 	H 	0.59040 0.25580 0.59320 0.09100
C 	C 	0.61220 0.16570 0.53150 -0.06000
H 	H 	0.57220 0.10990 0.56010 0.03500
H 	H 	0.66750 0.16100 0.51630 0.04500
C 	C 	0.70320 0.72480 0.79620 -0.21900
H 	H 	0.75070 0.73130 0.82930 0.10700
H 	H 	0.64340 0.70700 0.81930 0.11600
H 	H 	0.72540 0.78520 0.77280 0.10600
N 	N 	0.72420 0.43150 0.57640 -0.31400
O 	O 	0.65870 0.51770 0.65738 -0.42100
O 	O 	0.68810 0.65110 0.74690 -0.20400
O 	O 	0.45350 0.53000 0.54000 -0.27500
H 	H 	0.68900 0.44400 0.58500 0.25000
C 	C 	0.82740 0.25480 0.34527 0.17900
C 	C 	0.87620 0.23360 0.39617 0.02600
C 	C 	0.83670 0.14300 0.42447 -0.06800
H 	H 	0.86880 0.13090 0.45957 0.04800
C 	C 	0.74770 0.06910 0.40007 -0.04600
H 	H 	0.72130 0.00780 0.41947 0.02900
C 	C 	0.70010 0.08370 0.35027 -0.02400
H 	H 	0.64190 0.03270 0.33457 0.03400
C 	C 	0.73750 0.17730 0.32037 -0.09900
C 	C 	0.68280 0.19400 0.26987 0.10500
H 	H 	0.62490 0.14110 0.25537 0.02300
C 	C 	0.64610 0.29700 0.19927 0.06600
H 	H 	0.59030 0.23580 0.18467 0.03500
C 	C 	0.61020 0.35380 0.23967 -0.17400
H 	H 	0.56980 0.31360 0.27697 0.08200
H 	H 	0.66540 0.40960 0.25987 0.09100
C 	C 	0.55350 0.38780 0.19817 -0.05800
H 	H 	0.53770 0.42780 0.22677 0.04100
H 	H 	0.49350 0.33250 0.18297 0.04700
C 	C 	0.02160 0.29680 0.46287 -0.41700
H 	H 	0.98060 0.24930 0.49597 0.17800
H 	H 	0.06360 0.35660 0.48597 0.16500
H 	H 	0.05980 0.27460 0.43947 0.14800
N 	N 	0.70730 0.27580 0.24307 -0.31800
O 	O 	0.85900 0.34130 0.32405 -0.41900
O 	O 	0.96300 0.31190 0.41357 -0.14400
O 	O 	0.07650 0.54650 0.20667 -0.28000
H 	H 	0.75500 0.31100 0.25167 0.25100
C 	C 	0.57260 0.82740 0.01193 0.06600
C 	C 	0.64260 0.87620 0.06283 0.08900
C 	C 	0.69370 0.83670 0.09113 -0.14700
H 	H 	0.73790 0.86880 0.12623 0.08200
C 	C 	0.67860 0.74770 0.06673 0.05700
H 	H 	0.71350 0.72130 0.08613 0.00300
C 	C 	0.61640 0.70010 0.01693 -0.15200
H 	H 	0.60920 0.64190 0.00123 0.07600
C 	C 	0.56020 0.73750 0.98703 0.03100
C 	C 	0.48880 0.68280 0.93653 0.05400
H 	H 	0.48380 0.62490 0.92203 0.04900
C 	C 	0.34910 0.64610 0.86593 0.06600
H 	H 	0.35450 0.59030 0.85133 0.03700
C 	C 	0.25640 0.61020 0.90633 -0.18200
H 	H 	0.25620 0.56980 0.94363 0.09300
H 	H 	0.25580 0.66540 0.92653 0.09900
C 	C 	0.16570 0.55350 0.86483 -0.05400
H 	H 	0.10990 0.53770 0.89343 0.03600
H 	H 	0.16100 0.49350 0.84963 0.04300
C 	C 	0.72480 0.02160 0.12953 -0.41600
H 	H 	0.73130 0.98060 0.16263 0.18100
H 	H 	0.70700 0.06360 0.15263 0.16600
H 	H 	0.78520 0.05980 0.10613 0.14700
N 	N 	0.43150 0.70730 0.90973 -0.30000
O 	O 	0.51770 0.85900 0.99071 -0.36400
O 	O 	0.65110 0.96300 0.08023 -0.16300
O 	O 	0.53000 0.07650 0.87333 -0.27600
H 	H 	0.44400 0.75500 0.91833 0.24700
C 	C 	0.25480 0.42740 0.67860 0.16600
C 	C 	0.23360 0.35740 0.72950 0.05000
C 	C 	0.14300 0.30630 0.75780 -0.09200
H 	H 	0.13090 0.26210 0.79290 0.05400
C 	C 	0.06910 0.32140 0.73340 -0.03100
H 	H 	0.00780 0.28650 0.75280 0.02200
C 	C 	0.08370 0.38360 0.68360 -0.03800
H 	H 	0.03270 0.39080 0.66790 0.03800
C 	C 	0.17730 0.43980 0.65370 -0.09200
C 	C 	0.19400 0.51120 0.60320 0.10000
H 	H 	0.14110 0.51620 0.58870 0.02500
C 	C 	0.29700 0.65090 0.53260 0.06400
H 	H 	0.23580 0.64550 0.51800 0.03600
C 	C 	0.35380 0.74360 0.57300 -0.17000
H 	H 	0.31360 0.74380 0.61030 0.08300
H 	H 	0.40960 0.74420 0.59320 0.09100
C 	C 	0.38780 0.83430 0.53150 -0.06400
H 	H 	0.42780 0.89010 0.56010 0.04900
H 	H 	0.33250 0.83900 0.51630 0.05200
C 	C 	0.29680 0.27520 0.79620 -0.18900
H 	H 	0.24930 0.26870 0.82930 0.08900
H 	H 	0.35660 0.29300 0.81930 0.10400
H 	H 	0.27460 0.21480 0.77280 0.08500
N 	N 	0.27580 0.56850 0.57640 -0.31600
O 	O 	0.34130 0.48230 0.65738 -0.42200
O 	O 	0.31190 0.34890 0.74690 -0.21100
O 	O 	0.54650 0.47000 0.54000 -0.27500
H 	H 	0.31100 0.55600 0.58500 0.25000
C 	C 	0.17260 0.74520 0.34527 0.15100
C 	C 	0.12380 0.76640 0.39617 0.07600
C 	C 	0.16330 0.85700 0.42447 -0.11200
H 	H 	0.13120 0.86910 0.45957 0.06900
C 	C 	0.25230 0.93090 0.40007 -0.00800
H 	H 	0.27870 0.99220 0.41947 0.03600
C 	C 	0.29990 0.91630 0.35027 -0.05000
H 	H 	0.35810 0.96730 0.33457 0.06200
C 	C 	0.26250 0.82270 0.32037 -0.07500
C 	C 	0.31720 0.80600 0.26987 0.09400
H 	H 	0.37510 0.85890 0.25537 0.03700
C 	C 	0.35390 0.70300 0.19927 0.06400
H 	H 	0.40970 0.76420 0.18467 0.03800
C 	C 	0.38980 0.64620 0.23967 -0.17400
H 	H 	0.43020 0.68640 0.27697 0.08500
H 	H 	0.33460 0.59040 0.25987 0.09200
C 	C 	0.44650 0.61220 0.19817 -0.05900
H 	H 	0.46230 0.57220 0.22677 0.04100
H 	H 	0.50650 0.66750 0.18297 0.04800
C 	C 	0.97840 0.70320 0.46287 0.01900
H 	H 	0.01940 0.75070 0.49597 0.01000
H 	H 	0.93640 0.64340 0.48597 0.05100
H 	H 	0.94020 0.72540 0.43947 0.03900
N 	N 	0.29270 0.72420 0.24307 -0.31300
O 	O 	0.14100 0.65870 0.32405 -0.42000
O 	O 	0.03700 0.68810 0.41357 -0.27100
O 	O 	0.92350 0.45350 0.20667 -0.25200
H 	H 	0.24500 0.68900 0.25167 0.24800
Ce	Ce	-0.00000 0.50000 0.33333 2.14500
Ce	Ce	0.50000 0.50000 0.66667 2.15900
Ce	Ce	0.50000 0.00000 -0.00000 2.13100
N 	N 	-0.00000 0.50000 0.49270 0.05200
O 	O 	-0.00000 0.50000 0.55590 -0.15600
N 	N 	0.50000 0.50000 0.82603 0.06700
O 	O 	0.50000 0.50000 0.88923 -0.13800
N 	N 	0.50000 0.00000 0.15937 0.05100
O 	O 	0.50000 0.00000 0.22257 -0.15600
N 	N 	0.50000 0.00000 0.84063 0.05200
O 	O 	0.50000 0.00000 0.77743 -0.15500
N 	N 	0.50000 0.50000 0.50730 0.06700
O 	O 	0.50000 0.50000 0.44410 -0.14200
N 	N 	-0.00000 0.50000 0.17397 0.05200
O 	O 	-0.00000 0.50000 0.11077 -0.15900
