data_crystal

_cell_length_a 13.98700
_cell_length_b 16.15300
_cell_length_c 17.29900
_cell_angle_alpha 70.01000
_cell_angle_beta  79.69000
_cell_angle_gamma 66.10000

_symmetry_space_group_name_	'P 1'
_symmetry_space_group_name_H-M	'P 1'

loop_
_symmetry_equiv_pos_as_xyz
  x,y,z

loop_
_atom_site_label
_atom_site_type_symbol
_atom_site_fract_x
_atom_site_fract_y
_atom_site_fract_z
_atom_site_charge
Ni	Ni	0.71199 0.67213 0.63699 1.05900
C 	C 	0.88220 0.73940 0.64840 0.08000
H 	H 	0.86940 0.72360 0.70520 -0.00100
C 	C 	0.87300 0.75910 0.52450 0.01100
H 	H 	0.85500 0.76000 0.47490 0.01400
C 	C 	0.94190 0.79780 0.53200 -0.01100
H 	H 	0.97750 0.82880 0.48920 0.02700
C 	C 	0.00540 0.81370 0.64880 -0.14000
H 	H 	0.02950 0.86050 0.60790 0.06900
H 	H 	0.06590 0.76030 0.67470 0.07000
C 	C 	0.93120 0.85710 0.71340 0.09500
C 	C 	0.86070 0.95030 0.69030 -0.12700
H 	H 	0.86200 0.98790 0.63600 0.07000
C 	C 	0.78860 0.98750 0.74730 0.01100
H 	H 	0.74040 0.04950 0.73050 0.03000
C 	C 	0.78700 0.93320 0.83030 -0.04800
C 	C 	0.85770 0.84120 0.85090 0.01600
H 	H 	0.85550 0.80310 0.90490 0.03600
C 	C 	0.93210 0.80200 0.79590 -0.12600
H 	H 	0.98130 0.74060 0.81330 0.07300
N 	N 	0.67800 0.06850 0.87170 -0.15900
N 	N 	0.59840 0.05420 0.00370 -0.15300
N 	N 	0.69800 0.91720 0.96390 -0.15000
C 	C 	0.57750 0.20900 0.91030 -0.06500
C 	C 	0.59390 0.26360 0.83120 0.03100
H 	H 	0.63390 0.23500 0.79160 0.02700
C 	C 	0.54930 0.36220 0.81240 -0.15200
H 	H 	0.55910 0.39920 0.75930 0.08800
C 	C 	0.49100 0.40640 0.87030 0.13200
C 	C 	0.47850 0.35080 0.94640 -0.17000
H 	H 	0.43960 0.37910 0.98650 0.08600
C 	C 	0.52110 0.25450 0.96670 0.04300
H 	H 	0.51150 0.21880 0.02040 0.02400
C 	C 	0.44030 0.51220 0.84920 -0.16800
H 	H 	0.36540 0.53050 0.84770 0.07700
H 	H 	0.45240 0.53180 0.89250 0.07900
C 	C 	0.61630 0.90220 0.10020 -0.04100
C 	C 	0.55290 0.94250 0.15690 0.01300
H 	H 	0.52260 0.00820 0.14390 0.04000
C 	C 	0.53250 0.88670 0.23460 -0.12200
H 	H 	0.48820 0.91620 0.27230 0.07400
C 	C 	0.64400 0.74920 0.19760 -0.11900
H 	H 	0.67670 0.68350 0.21090 0.07000
C 	C 	0.66320 0.80490 0.12070 0.01200
H 	H 	0.70810 0.77660 0.08250 0.03400
C 	C 	0.79620 0.46160 0.65220 0.08900
H 	H 	0.73010 0.46830 0.64150 -0.01000
C 	C 	0.92290 0.49170 0.67070 0.00900
H 	H 	0.96190 0.52440 0.67540 0.01700
C 	C 	0.96110 0.39900 0.67490 -0.01100
H 	H 	0.02980 0.35640 0.68410 0.03600
C 	C 	0.88710 0.28980 0.65850 -0.15000
H 	H 	0.94610 0.26840 0.62150 0.07500
H 	H 	0.82440 0.29950 0.63450 0.07400
C 	C 	0.90010 0.21270 0.73890 0.11200
C 	C 	0.85660 0.23250 0.81180 -0.13200
H 	H 	0.82490 0.29520 0.81260 0.08700
C 	C 	0.86020 0.15910 0.88400 0.02500
H 	H 	0.82750 0.17350 0.93210 0.03500
C 	C 	0.91070 0.06610 0.88590 -0.04600
C 	C 	0.95710 0.04510 0.81380 0.02200
H 	H 	0.99150 0.98240 0.81370 0.03400
C 	C 	0.95140 0.11930 0.74140 -0.13500
H 	H 	0.98360 0.10500 0.69320 0.07400
N 	N 	0.85430 0.01020 0.02760 -0.14800
N 	N 	0.89980 0.84690 0.09490 -0.15400
N 	N 	0.96570 0.89950 0.96090 -0.15400
C 	C 	0.00940 0.73180 0.02810 -0.04300
C 	C 	0.97400 0.65960 0.08360 0.00400
H 	H 	0.91710 0.67650 0.11990 0.03300
C 	C 	0.02120 0.56740 0.08460 -0.12700
H 	H 	0.99370 0.52290 0.11870 0.06900
C 	C 	0.14640 0.60570 0.98000 -0.13600
H 	H 	0.20410 0.58750 0.94480 0.07000
C 	C 	0.09700 0.70160 0.97670 0.00700
H 	H 	0.12290 0.74580 0.93970 0.03300
C 	C 	0.79870 0.95720 0.16990 -0.06000
C 	C 	0.76100 0.04420 0.17520 0.03000
H 	H 	0.76700 0.09380 0.12980 0.03000
C 	C 	0.79090 0.88430 0.23820 0.03500
H 	H 	0.81710 0.82260 0.23510 0.02900
C 	C 	0.21820 0.40100 0.18250 0.08600
H 	H 	0.17280 0.45850 0.19060 -0.00200
C 	C 	0.33110 0.26270 0.20280 0.01100
H 	H 	0.38120 0.20380 0.22720 0.02300
C 	C 	0.29680 0.29290 0.12450 -0.01200
H 	H 	0.31910 0.25820 0.08710 0.04000
C 	C 	0.16310 0.43700 0.03720 -0.15700
H 	H 	0.11030 0.41220 0.03800 0.08000
H 	H 	0.20850 0.43150 0.98820 0.07500
C 	C 	0.11150 0.53900 0.03400 0.10600
C 	C 	0.61860 0.72210 0.46910 0.08500
H 	H 	0.55580 0.76560 0.48340 -0.01000
C 	C 	0.77260 0.62640 0.46990 0.01000
H 	H 	0.84090 0.58800 0.48530 0.01700
C 	C 	0.73270 0.63670 0.39960 -0.01300
H 	H 	0.76750 0.60730 0.35930 0.03300
C 	C 	0.55720 0.72600 0.33980 -0.14300
H 	H 	0.48850 0.75820 0.36200 0.07100
H 	H 	0.55650 0.66940 0.33230 0.07300
C 	C 	0.57560 0.79020 0.25670 0.10000
C 	C 	0.56260 0.58910 0.75670 0.08100
H 	H 	0.59900 0.58400 0.79920 -0.00300
C 	C 	0.51800 0.61570 0.64110 0.02600
H 	H 	0.51590 0.63340 0.58410 0.00900
C 	C 	0.44940 0.58070 0.69500 -0.02800
H 	H 	0.39380 0.57090 0.68190 0.03600
C 	C 	0.50050 0.15550 0.38610 0.07600
H 	H 	0.53590 0.19450 0.38280 -0.00500
C 	C 	0.37710 0.10760 0.39180 0.01200
H 	H 	0.31100 0.10610 0.39340 0.01700
C 	C 	0.46780 0.03110 0.39890 -0.01700
H 	H 	0.47520 0.96930 0.40510 0.03800
C 	C 	0.65790 0.01030 0.39840 -0.15000
H 	H 	0.69130 0.04550 0.41190 0.07300
H 	H 	0.67090 0.95060 0.44200 0.07500
C 	C 	0.70680 0.99010 0.31820 0.12100
C 	C 	0.71140 0.06290 0.24950 -0.14300
H 	H 	0.68170 0.12510 0.25170 0.08100
C 	C 	0.74420 0.90250 0.31150 -0.15500
H 	H 	0.73880 0.85270 0.35680 0.08500
N 	N 	0.83630 0.72020 0.59900 -0.23300
N 	N 	0.94710 0.78260 0.61000 -0.10700
N 	N 	0.81770 0.53000 0.65830 -0.23200
N 	N 	0.87960 0.38040 0.66290 -0.10400
N 	N 	0.28040 0.33260 0.23840 -0.22700
N 	N 	0.22610 0.38020 0.11210 -0.10400
N 	N 	0.70060 0.67910 0.51440 -0.23300
N 	N 	0.63410 0.69730 0.39990 -0.10500
N 	N 	0.39560 0.18680 0.38200 -0.22900
N 	N 	0.54770 0.06320 0.39510 -0.09900
N 	N 	0.58790 0.62150 0.67940 -0.23400
N 	N 	0.47850 0.56330 0.77010 -0.10000
C 	C 	0.71410 0.97740 0.89110 0.14200
C 	C 	0.61900 0.10510 0.92940 0.14700
C 	C 	0.63730 0.96230 0.01820 0.13600
C 	C 	0.91220 0.98600 0.96150 0.14500
C 	C 	0.85460 0.93530 0.09360 0.14200
C 	C 	0.95710 0.83090 0.02770 0.13200
Ni	Ni	0.28801 0.32787 0.36301 1.05800
C 	C 	0.11780 0.26060 0.35160 0.07900
H 	H 	0.13060 0.27640 0.29480 -0.00100
C 	C 	0.12700 0.24090 0.47550 0.01100
H 	H 	0.14500 0.24000 0.52510 0.01400
C 	C 	0.05810 0.20220 0.46800 -0.01100
H 	H 	0.02250 0.17120 0.51080 0.02700
C 	C 	0.99460 0.18630 0.35120 -0.14000
H 	H 	0.97050 0.13950 0.39210 0.06900
H 	H 	0.93410 0.23970 0.32530 0.07000
C 	C 	0.06880 0.14290 0.28660 0.09500
C 	C 	0.13930 0.04970 0.30970 -0.12700
H 	H 	0.13800 0.01210 0.36400 0.07000
C 	C 	0.21140 0.01250 0.25270 0.01100
H 	H 	0.25960 0.95050 0.26950 0.03000
C 	C 	0.21300 0.06680 0.16970 -0.04800
C 	C 	0.14230 0.15880 0.14910 0.01600
H 	H 	0.14450 0.19690 0.09510 0.03600
C 	C 	0.06790 0.19800 0.20410 -0.12600
H 	H 	0.01870 0.25940 0.18670 0.07300
N 	N 	0.32200 0.93150 0.12830 -0.15900
N 	N 	0.40160 0.94580 0.99630 -0.15300
N 	N 	0.30200 0.08280 0.03610 -0.15000
C 	C 	0.42250 0.79100 0.08970 -0.06500
C 	C 	0.40610 0.73640 0.16880 0.03100
H 	H 	0.36610 0.76500 0.20840 0.02700
C 	C 	0.45070 0.63780 0.18760 -0.15200
H 	H 	0.44090 0.60080 0.24070 0.08800
C 	C 	0.50900 0.59360 0.12970 0.13200
C 	C 	0.52150 0.64920 0.05360 -0.17000
H 	H 	0.56040 0.62090 0.01350 0.08600
C 	C 	0.47890 0.74550 0.03330 0.04300
H 	H 	0.48850 0.78120 0.97960 0.02400
C 	C 	0.55970 0.48780 0.15080 -0.16800
H 	H 	0.63460 0.46950 0.15230 0.07700
H 	H 	0.54760 0.46820 0.10750 0.07900
C 	C 	0.38370 0.09780 0.89980 -0.04100
C 	C 	0.44710 0.05750 0.84310 0.01300
H 	H 	0.47740 0.99180 0.85610 0.04000
C 	C 	0.46750 0.11330 0.76540 -0.12200
H 	H 	0.51180 0.08380 0.72770 0.07400
C 	C 	0.35600 0.25080 0.80240 -0.11900
H 	H 	0.32330 0.31650 0.78910 0.07000
C 	C 	0.33680 0.19510 0.87930 0.01200
H 	H 	0.29190 0.22340 0.91750 0.03400
C 	C 	0.20380 0.53840 0.34780 0.08900
H 	H 	0.26990 0.53170 0.35850 -0.01000
C 	C 	0.07710 0.50830 0.32930 0.00900
H 	H 	0.03810 0.47560 0.32460 0.01700
C 	C 	0.03890 0.60100 0.32510 -0.01100
H 	H 	0.97020 0.64360 0.31590 0.03600
C 	C 	0.11290 0.71020 0.34150 -0.15000
H 	H 	0.05390 0.73160 0.37850 0.07500
H 	H 	0.17560 0.70050 0.36550 0.07400
C 	C 	0.09990 0.78730 0.26110 0.11200
C 	C 	0.14340 0.76750 0.18820 -0.13200
H 	H 	0.17510 0.70480 0.18740 0.08700
C 	C 	0.13980 0.84090 0.11600 0.02500
H 	H 	0.17250 0.82650 0.06790 0.03500
C 	C 	0.08930 0.93390 0.11410 -0.04600
C 	C 	0.04290 0.95490 0.18620 0.02200
H 	H 	0.00850 0.01760 0.18630 0.03400
C 	C 	0.04860 0.88070 0.25860 -0.13500
H 	H 	0.01640 0.89500 0.30680 0.07400
N 	N 	0.14570 0.98980 0.97240 -0.14800
N 	N 	0.10020 0.15310 0.90510 -0.15400
N 	N 	0.03430 0.10050 0.03910 -0.15400
C 	C 	0.99060 0.26820 0.97190 -0.04300
C 	C 	0.02600 0.34040 0.91640 0.00400
H 	H 	0.08290 0.32350 0.88010 0.03300
C 	C 	0.97880 0.43260 0.91540 -0.12700
H 	H 	0.00630 0.47710 0.88130 0.06900
C 	C 	0.85360 0.39430 0.02000 -0.13600
H 	H 	0.79590 0.41250 0.05520 0.07000
C 	C 	0.90300 0.29840 0.02330 0.00700
H 	H 	0.87710 0.25420 0.06030 0.03300
C 	C 	0.20130 0.04280 0.83010 -0.06000
C 	C 	0.23900 0.95580 0.82480 0.03000
H 	H 	0.23300 0.90620 0.87020 0.03000
C 	C 	0.20910 0.11570 0.76180 0.03500
H 	H 	0.18290 0.17740 0.76490 0.02900
C 	C 	0.78180 0.59900 0.81750 0.08600
H 	H 	0.82720 0.54150 0.80940 -0.00200
C 	C 	0.66890 0.73730 0.79720 0.01100
H 	H 	0.61880 0.79620 0.77280 0.02300
C 	C 	0.70320 0.70710 0.87550 -0.01200
H 	H 	0.68090 0.74180 0.91290 0.04000
C 	C 	0.83690 0.56300 0.96280 -0.15700
H 	H 	0.88970 0.58780 0.96200 0.08000
H 	H 	0.79150 0.56850 0.01180 0.07500
C 	C 	0.88850 0.46100 0.96600 0.10600
C 	C 	0.38140 0.27790 0.53090 0.08500
H 	H 	0.44420 0.23440 0.51660 -0.01000
C 	C 	0.22740 0.37360 0.53010 0.01000
H 	H 	0.15910 0.41200 0.51470 0.01700
C 	C 	0.26730 0.36330 0.60040 -0.01300
H 	H 	0.23250 0.39270 0.64070 0.03300
C 	C 	0.44280 0.27400 0.66020 -0.14300
H 	H 	0.51150 0.24180 0.63800 0.07100
H 	H 	0.44350 0.33060 0.66770 0.07300
C 	C 	0.42440 0.20980 0.74330 0.10000
C 	C 	0.43740 0.41090 0.24330 0.08100
H 	H 	0.40100 0.41600 0.20080 -0.00300
C 	C 	0.48200 0.38430 0.35890 0.02600
H 	H 	0.48410 0.36660 0.41590 0.00900
C 	C 	0.55060 0.41930 0.30500 -0.02800
H 	H 	0.60620 0.42910 0.31810 0.03600
C 	C 	0.49950 0.84450 0.61390 0.07600
H 	H 	0.46410 0.80550 0.61720 -0.00500
C 	C 	0.62290 0.89240 0.60820 0.01200
H 	H 	0.68900 0.89390 0.60660 0.01700
C 	C 	0.53220 0.96890 0.60110 -0.01700
H 	H 	0.52480 0.03070 0.59490 0.03800
C 	C 	0.34210 0.98970 0.60160 -0.15000
H 	H 	0.30870 0.95450 0.58810 0.07300
H 	H 	0.32910 0.04940 0.55800 0.07500
C 	C 	0.29320 0.00990 0.68180 0.12100
C 	C 	0.28860 0.93710 0.75050 -0.14300
H 	H 	0.31830 0.87490 0.74830 0.08100
C 	C 	0.25580 0.09750 0.68850 -0.15500
H 	H 	0.26120 0.14730 0.64320 0.08500
N 	N 	0.16370 0.27980 0.40100 -0.23300
N 	N 	0.05290 0.21740 0.39000 -0.10700
N 	N 	0.18230 0.47000 0.34170 -0.23200
N 	N 	0.12040 0.61960 0.33710 -0.10400
N 	N 	0.71960 0.66740 0.76160 -0.22700
N 	N 	0.77390 0.61980 0.88790 -0.10400
N 	N 	0.29940 0.32090 0.48560 -0.23300
N 	N 	0.36590 0.30270 0.60010 -0.10500
N 	N 	0.60440 0.81320 0.61800 -0.22900
N 	N 	0.45230 0.93680 0.60490 -0.09900
N 	N 	0.41210 0.37850 0.32060 -0.23400
N 	N 	0.52150 0.43670 0.22990 -0.10000
C 	C 	0.28590 0.02260 0.10890 0.14200
C 	C 	0.38100 0.89490 0.07060 0.14700
C 	C 	0.36270 0.03770 0.98180 0.13600
C 	C 	0.08780 0.01400 0.03850 0.14500
C 	C 	0.14540 0.06470 0.90640 0.14200
C 	C 	0.04290 0.16910 0.97230 0.13200
