data_crystal

_cell_length_a 21.92600
_cell_length_b 21.92600
_cell_length_c 10.56430
_cell_angle_alpha 90.00000
_cell_angle_beta  90.00000
_cell_angle_gamma 120.00000

_symmetry_space_group_name_	'P 1'
_symmetry_space_group_name_H-M	'P 1'

loop_
_symmetry_equiv_pos_as_xyz
  x,y,z

loop_
_atom_site_label
_atom_site_type_symbol
_atom_site_fract_x
_atom_site_fract_y
_atom_site_fract_z
_atom_site_charge
Zn	Zn	0.42898 0.14121 0.82714 1.18600
Zn	Zn	0.43050 0.14595 0.16682 1.18500
Zn	Zn	0.28788 0.14027 0.99372 1.17200
Zn	Zn	0.42503 0.28093 0.99324 1.17300
Zn	Zn	0.28833 0.29106 0.99232 1.17200
Zn	Zn	0.42647 0.43184 0.00135 1.17000
Zn	Zn	0.13812 0.14115 0.99344 1.17400
Zn	Zn	0.57647 0.42993 0.00115 1.17400
Zn	Zn	0.56597 0.28388 0.98384 1.17200
O 	O 	0.52814 0.19615 0.10470 -0.90100
H 	H 	0.55000 0.21100 0.17700 0.17300
O 	O 	0.47421 0.24018 0.87470 -0.99500
H 	H 	0.48300 0.25800 0.80600 0.27900
O 	O 	0.33134 0.09135 0.88640 -0.90000
H 	H 	0.30700 0.08100 0.81600 0.17800
O 	O 	0.37804 0.19122 0.10860 -0.92900
H 	H 	0.36800 0.20200 0.17900 0.22300
O 	O 	0.48100 0.09540 0.88640 -0.82400
H 	H 	0.49670 0.08130 0.80830 0.06700
O 	O 	0.33608 0.38288 0.88350 -0.90200
H 	H 	0.34600 0.37300 0.80900 0.18400
O 	O 	0.04646 0.09806 0.88650 -0.94400
H 	H 	0.05200 0.11900 0.81700 0.23000
O 	O 	0.38334 0.33606 0.08460 -0.83100
H 	H 	0.38220 0.33470 0.17920 0.12100
O 	O 	0.19228 0.23867 0.90920 -0.83600
H 	H 	0.19100 0.24010 0.81460 0.12500
O 	O 	0.52025 0.33235 0.07870 -0.83800
H 	H 	0.52030 0.32980 0.17330 0.11500
O 	O 	0.52386 0.47290 0.08950 -0.82800
H 	H 	0.52440 0.47360 0.18410 0.11800
O 	O 	0.18958 0.09686 0.90800 -0.83400
H 	H 	0.18800 0.09420 0.81350 0.12600
O 	O 	0.62191 0.38157 0.90080 -0.83300
H 	H 	0.62040 0.38350 0.80630 0.11300
O 	O 	0.32946 0.23495 0.90620 -0.83800
H 	H 	0.32960 0.23460 0.81160 0.12500
N 	N 	0.01370 0.01950 0.64030 -1.00400
H 	H 	0.99360 0.04600 0.61710 0.12500
H 	H 	0.06110 0.04540 0.62290 0.41900
C 	C 	0.98270 0.95540 0.56610 -1.22800
H 	H 	0.94280 0.91680 0.61230 -0.10000
H 	H 	0.01810 0.94110 0.54850 0.38800
N 	N 	0.44190 0.15940 0.35590 -0.35200
H 	H 	0.46810 0.14000 0.38420 0.03300
H 	H 	0.46730 0.20700 0.37250 0.03400
C 	C 	0.37890 0.13020 0.42650 -0.01700
H 	H 	0.35660 0.07820 0.42550 -0.04700
H 	H 	0.34600 0.14260 0.38520 -0.05700
C 	C 	0.39040 0.15620 0.56770 -0.05500
H 	H 	0.41500 0.20830 0.56930 -0.03300
H 	H 	0.34400 0.13840 0.60920 -0.04300
N 	N 	0.43133 0.13206 0.63750 -0.34500
H 	H 	0.47740 0.15730 0.61090 0.03200
H 	H 	0.41490 0.08550 0.61790 0.03100
Zn	Zn	0.85879 0.28777 0.82714 1.18700
Zn	Zn	0.85405 0.28455 0.16682 1.18500
Zn	Zn	0.85973 0.14761 0.99372 1.16700
Zn	Zn	0.71907 0.14410 0.99324 1.16900
Zn	Zn	0.70894 0.99727 0.99232 1.18300
Zn	Zn	0.56816 0.99463 0.00135 1.17800
Zn	Zn	0.85885 0.99697 0.99344 1.18600
Zn	Zn	0.57007 0.14654 0.00115 1.17300
Zn	Zn	0.71612 0.28209 0.98384 1.17100
O 	O 	0.80385 0.33199 0.10470 -0.90000
H 	H 	0.78900 0.33900 0.17700 0.17300
O 	O 	0.75982 0.23403 0.87470 -0.99700
H 	H 	0.74200 0.22500 0.80600 0.27700
O 	O 	0.90865 0.23999 0.88640 -0.89500
H 	H 	0.91900 0.22600 0.81600 0.18900
O 	O 	0.80878 0.18682 0.10860 -0.92600
H 	H 	0.79800 0.16600 0.17900 0.22000
O 	O 	0.90460 0.38560 0.88640 -0.81600
H 	H 	0.91870 0.41540 0.80830 0.08500
O 	O 	0.61712 0.95320 0.88350 -0.89500
H 	H 	0.62700 0.97300 0.80900 0.19200
O 	O 	0.90194 0.94840 0.88650 -0.89800
H 	H 	0.88100 0.93300 0.81700 0.22500
O 	O 	0.66394 0.04728 0.08460 -0.84700
H 	H 	0.66530 0.04750 0.17920 0.11400
O 	O 	0.76133 0.95361 0.90920 -0.82600
H 	H 	0.75990 0.95090 0.81460 0.13600
O 	O 	0.66765 0.18790 0.07870 -0.83700
H 	H 	0.67020 0.19050 0.17330 0.11400
O 	O 	0.52710 0.05096 0.08950 -0.83900
H 	H 	0.52640 0.05080 0.18410 0.11200
O 	O 	0.90314 0.09272 0.90800 -0.84100
H 	H 	0.90580 0.09380 0.81350 0.14000
O 	O 	0.61843 0.24034 0.90080 -0.83500
H 	H 	0.61650 0.23690 0.80630 0.11200
O 	O 	0.76505 0.09451 0.90620 -0.85300
H 	H 	0.76540 0.09500 0.81160 0.11900
N 	N 	0.98050 0.99420 0.64030 0.30200
H 	H 	0.95400 0.94760 0.61710 0.30400
H 	H 	0.95460 0.01570 0.62290 -0.62000
C 	C 	0.04460 0.02730 0.56610 -0.16200
H 	H 	0.08320 0.02600 0.61230 -0.47100
H 	H 	0.05890 0.07700 0.54850 -0.18300
N 	N 	0.84060 0.28250 0.35590 -0.35000
H 	H 	0.86000 0.32810 0.38420 0.03800
H 	H 	0.79300 0.26030 0.37250 0.03300
C 	C 	0.86980 0.24870 0.42650 -0.02700
H 	H 	0.92180 0.27840 0.42550 -0.02900
H 	H 	0.85740 0.20340 0.38520 -0.05000
C 	C 	0.84380 0.23420 0.56770 -0.04600
H 	H 	0.79170 0.20670 0.56930 -0.03800
H 	H 	0.86160 0.20560 0.60920 -0.04000
N 	N 	0.86794 0.29927 0.63750 -0.34900
H 	H 	0.84270 0.32010 0.61090 0.03700
H 	H 	0.91450 0.32940 0.61790 0.04800
Zn	Zn	0.71223 0.57102 0.82714 1.18700
Zn	Zn	0.71545 0.56950 0.16682 1.18500
Zn	Zn	0.85239 0.71212 0.99372 1.17200
Zn	Zn	0.85590 0.57497 0.99324 1.17300
Zn	Zn	0.00273 0.71167 0.99232 1.16200
Zn	Zn	0.00537 0.57353 0.00135 1.15400
Zn	Zn	0.00303 0.86188 0.99344 1.16400
Zn	Zn	0.85346 0.42353 0.00115 1.17500
Zn	Zn	0.71791 0.43403 0.98384 1.17200
O 	O 	0.66801 0.47186 0.10470 -0.90200
H 	H 	0.66100 0.45000 0.17700 0.17300
O 	O 	0.76597 0.52579 0.87470 -0.99500
H 	H 	0.77500 0.51700 0.80600 0.28000
O 	O 	0.76001 0.66866 0.88640 -0.89500
H 	H 	0.77400 0.69300 0.81600 0.18400
O 	O 	0.81318 0.62196 0.10860 -0.92900
H 	H 	0.83400 0.63200 0.17900 0.22600
O 	O 	0.61440 0.51900 0.88640 -0.81800
H 	H 	0.58460 0.50330 0.80830 0.07700
O 	O 	0.04680 0.66392 0.88350 -0.90500
H 	H 	0.02700 0.65400 0.80900 0.17500
O 	O 	0.05160 0.95354 0.88650 -0.91500
H 	H 	0.06700 0.94800 0.81700 0.21200
O 	O 	0.95272 0.61666 0.08460 -0.81000
H 	H 	0.95250 0.61780 0.17920 0.12900
O 	O 	0.04639 0.80772 0.90920 -0.84000
H 	H 	0.04910 0.80900 0.81460 0.11800
O 	O 	0.81210 0.47975 0.07870 -0.83600
H 	H 	0.80950 0.47970 0.17330 0.11700
O 	O 	0.94904 0.47614 0.08950 -0.81200
H 	H 	0.94920 0.47560 0.18410 0.12400
O 	O 	0.90728 0.81042 0.90800 -0.82100
H 	H 	0.90620 0.81200 0.81350 0.12500
O 	O 	0.75966 0.37809 0.90080 -0.83400
H 	H 	0.76310 0.37960 0.80630 0.11400
O 	O 	0.90549 0.67054 0.90620 -0.82800
H 	H 	0.90500 0.67040 0.81160 0.13100
N 	N 	0.00580 0.98630 0.64030 0.15900
H 	H 	0.05240 0.00640 0.61710 0.38300
H 	H 	0.98430 0.93890 0.62290 0.33600
C 	C 	0.97270 0.01730 0.56610 1.18500
H 	H 	0.97400 0.05720 0.61230 -0.14700
H 	H 	0.92300 0.98190 0.54850 -0.19000
N 	N 	0.71750 0.55810 0.35590 -0.35100
H 	H 	0.67190 0.53190 0.38420 0.03600
H 	H 	0.73970 0.53270 0.37250 0.03500
C 	C 	0.75130 0.62110 0.42650 -0.02100
H 	H 	0.72160 0.64340 0.42550 -0.03800
H 	H 	0.79660 0.65400 0.38520 -0.05100
C 	C 	0.76580 0.60960 0.56770 -0.05300
H 	H 	0.79330 0.58500 0.56930 -0.03100
H 	H 	0.79440 0.65600 0.60920 -0.03900
N 	N 	0.70073 0.56867 0.63750 -0.34600
H 	H 	0.67990 0.52260 0.61090 0.03500
H 	H 	0.67060 0.58510 0.61790 0.04000
Zn	Zn	0.57102 0.85879 0.17286 1.18800
Zn	Zn	0.56950 0.85405 0.83318 1.18500
Zn	Zn	0.71212 0.85973 0.00628 1.17100
Zn	Zn	0.57497 0.71907 0.00676 1.17200
Zn	Zn	0.71167 0.70894 0.00768 1.17100
Zn	Zn	0.57353 0.56816 0.99865 1.16900
Zn	Zn	0.86188 0.85885 0.00656 1.17300
Zn	Zn	0.42353 0.57007 0.99885 1.17300
Zn	Zn	0.43403 0.71612 0.01616 1.17200
O 	O 	0.47186 0.80385 0.89530 -0.90100
H 	H 	0.45000 0.78900 0.82300 0.17400
O 	O 	0.52579 0.75982 0.12530 -0.99500
H 	H 	0.51700 0.74200 0.19400 0.27900
O 	O 	0.66866 0.90865 0.11360 -0.89300
H 	H 	0.69300 0.91900 0.18400 0.18900
O 	O 	0.62196 0.80878 0.89140 -0.92900
H 	H 	0.63200 0.79800 0.82100 0.22400
O 	O 	0.51900 0.90460 0.11360 -0.81500
H 	H 	0.50330 0.91870 0.19170 0.08500
O 	O 	0.66392 0.61712 0.11650 -0.90200
H 	H 	0.65400 0.62700 0.19100 0.18400
O 	O 	0.95354 0.90194 0.11350 -0.89900
H 	H 	0.94800 0.88100 0.18300 0.21500
O 	O 	0.61666 0.66394 0.91540 -0.83100
H 	H 	0.61780 0.66530 0.82080 0.12100
O 	O 	0.80772 0.76133 0.09080 -0.83500
H 	H 	0.80900 0.75990 0.18540 0.12700
O 	O 	0.47975 0.66765 0.92130 -0.83800
H 	H 	0.47970 0.67020 0.82670 0.11600
O 	O 	0.47614 0.52710 0.91050 -0.82800
H 	H 	0.47560 0.52640 0.81590 0.11800
O 	O 	0.81042 0.90314 0.09200 -0.82600
H 	H 	0.81200 0.90580 0.18650 0.13100
O 	O 	0.37809 0.61843 0.09920 -0.83300
H 	H 	0.37960 0.61650 0.19370 0.11300
O 	O 	0.67054 0.76505 0.09380 -0.83800
H 	H 	0.67040 0.76540 0.18840 0.12500
N 	N 	0.98630 0.98050 0.35970 0.41700
H 	H 	0.00640 0.95400 0.38290 0.59800
H 	H 	0.93890 0.95460 0.37710 -0.19700
C 	C 	0.01730 0.04460 0.43390 1.15200
H 	H 	0.05720 0.08320 0.38770 -0.30700
H 	H 	0.98190 0.05890 0.45150 -0.36200
N 	N 	0.55810 0.84060 0.64410 -0.35100
H 	H 	0.53190 0.86000 0.61580 0.03800
H 	H 	0.53270 0.79300 0.62750 0.03400
C 	C 	0.62110 0.86980 0.57350 -0.02600
H 	H 	0.64340 0.92180 0.57450 -0.02900
H 	H 	0.65400 0.85740 0.61480 -0.04900
C 	C 	0.60960 0.84380 0.43230 -0.04700
H 	H 	0.58500 0.79170 0.43070 -0.03500
H 	H 	0.65600 0.86160 0.39080 -0.03900
N 	N 	0.56867 0.86794 0.36250 -0.34800
H 	H 	0.52260 0.84270 0.38910 0.03700
H 	H 	0.58510 0.91450 0.38210 0.04700
Zn	Zn	0.14121 0.71223 0.17286 1.18500
Zn	Zn	0.14595 0.71545 0.83318 1.18500
Zn	Zn	0.14027 0.85239 0.00628 1.17000
Zn	Zn	0.28093 0.85590 0.00676 1.17200
Zn	Zn	0.29106 0.00273 0.00768 1.16100
Zn	Zn	0.43184 0.00537 0.99865 1.15400
Zn	Zn	0.14115 0.00303 0.00656 1.16100
Zn	Zn	0.42993 0.85346 0.99885 1.17500
Zn	Zn	0.28388 0.71791 0.01616 1.17100
O 	O 	0.19615 0.66801 0.89530 -0.90000
H 	H 	0.21100 0.66100 0.82300 0.17300
O 	O 	0.24018 0.76597 0.12530 -0.99700
H 	H 	0.25800 0.77500 0.19400 0.28100
O 	O 	0.09135 0.76001 0.11360 -0.90300
H 	H 	0.08100 0.77400 0.18400 0.17900
O 	O 	0.19122 0.81318 0.89140 -0.92600
H 	H 	0.20200 0.83400 0.82100 0.22500
O 	O 	0.09540 0.61440 0.11360 -0.82500
H 	H 	0.08130 0.58460 0.19170 0.06800
O 	O 	0.38288 0.04680 0.11650 -0.90700
H 	H 	0.37300 0.02700 0.19100 0.17500
O 	O 	0.09806 0.05160 0.11350 -0.94300
H 	H 	0.11900 0.06700 0.18300 0.22100
O 	O 	0.33606 0.95272 0.91540 -0.80800
H 	H 	0.33470 0.95250 0.82080 0.12900
O 	O 	0.23867 0.04639 0.09080 -0.84300
H 	H 	0.24010 0.04910 0.18540 0.11800
O 	O 	0.33235 0.81210 0.92130 -0.83500
H 	H 	0.32980 0.80950 0.82670 0.11600
O 	O 	0.47290 0.94904 0.91050 -0.81200
H 	H 	0.47360 0.94920 0.81590 0.12400
O 	O 	0.09686 0.90728 0.09200 -0.82900
H 	H 	0.09420 0.90620 0.18650 0.12400
O 	O 	0.38157 0.75966 0.09920 -0.83400
H 	H 	0.38350 0.76310 0.19370 0.11400
O 	O 	0.23495 0.90549 0.09380 -0.83000
H 	H 	0.23460 0.90500 0.18840 0.13100
N 	N 	0.01950 0.00580 0.35970 -0.85000
H 	H 	0.04600 0.05240 0.38290 0.21500
H 	H 	0.04540 0.98430 0.37710 0.74800
C 	C 	0.95540 0.97270 0.43390 -0.09600
H 	H 	0.91680 0.97400 0.38770 0.07200
H 	H 	0.94110 0.92300 0.45150 0.18700
N 	N 	0.15940 0.71750 0.64410 -0.35200
H 	H 	0.14000 0.67190 0.61580 0.03300
H 	H 	0.20700 0.73970 0.62750 0.03500
C 	C 	0.13020 0.75130 0.57350 -0.01700
H 	H 	0.07820 0.72160 0.57450 -0.04600
H 	H 	0.14260 0.79660 0.61480 -0.05400
C 	C 	0.15620 0.76580 0.43230 -0.05700
H 	H 	0.20830 0.79330 0.43070 -0.03000
H 	H 	0.13840 0.79440 0.39080 -0.04000
N 	N 	0.13206 0.70073 0.36250 -0.34400
H 	H 	0.15730 0.67990 0.38910 0.03300
H 	H 	0.08550 0.67060 0.38210 0.03100
Zn	Zn	0.28777 0.42898 0.17286 1.18700
Zn	Zn	0.28455 0.43050 0.83318 1.18500
Zn	Zn	0.14761 0.28788 0.00628 1.16900
Zn	Zn	0.14410 0.42503 0.00676 1.17000
Zn	Zn	0.99727 0.28833 0.00768 1.18500
Zn	Zn	0.99463 0.42647 0.99865 1.17800
Zn	Zn	0.99697 0.13812 0.00656 1.18900
Zn	Zn	0.14654 0.57647 0.99885 1.17300
Zn	Zn	0.28209 0.56597 0.01616 1.17200
O 	O 	0.33199 0.52814 0.89530 -0.90200
H 	H 	0.33900 0.55000 0.82300 0.17300
O 	O 	0.23403 0.47421 0.12530 -0.99500
H 	H 	0.22500 0.48300 0.19400 0.27700
O 	O 	0.23999 0.33134 0.11360 -0.89500
H 	H 	0.22600 0.30700 0.18400 0.18400
O 	O 	0.18682 0.37804 0.89140 -0.92900
H 	H 	0.16600 0.36800 0.82100 0.22000
O 	O 	0.38560 0.48100 0.11360 -0.81800
H 	H 	0.41540 0.49670 0.19170 0.07700
O 	O 	0.95320 0.33608 0.11650 -0.89300
H 	H 	0.97300 0.34600 0.19100 0.19200
O 	O 	0.94840 0.04646 0.11350 -0.91600
H 	H 	0.93300 0.05200 0.18300 0.23100
O 	O 	0.04728 0.38334 0.91540 -0.85000
H 	H 	0.04750 0.38220 0.82080 0.11400
O 	O 	0.95361 0.19228 0.09080 -0.82300
H 	H 	0.95090 0.19100 0.18540 0.13500
O 	O 	0.18790 0.52025 0.92130 -0.83800
H 	H 	0.19050 0.52030 0.82670 0.11400
O 	O 	0.05096 0.52386 0.91050 -0.83900
H 	H 	0.05080 0.52440 0.81590 0.11200
O 	O 	0.09272 0.18958 0.09200 -0.84100
H 	H 	0.09380 0.18800 0.18650 0.13500
O 	O 	0.24034 0.62191 0.09920 -0.83500
H 	H 	0.23690 0.62040 0.19370 0.11200
O 	O 	0.09451 0.32946 0.09380 -0.85100
H 	H 	0.09500 0.32960 0.18840 0.11900
N 	N 	0.99420 0.01370 0.35970 -0.11100
H 	H 	0.94760 0.99360 0.38290 -0.00300
H 	H 	0.01570 0.06110 0.37710 -0.41700
C 	C 	0.02730 0.98270 0.43390 -1.25500
H 	H 	0.02600 0.94280 0.38770 -0.48100
H 	H 	0.07700 0.01810 0.45150 0.19000
N 	N 	0.28250 0.44190 0.64410 -0.35100
H 	H 	0.32810 0.46810 0.61580 0.03500
H 	H 	0.26030 0.46730 0.62750 0.03300
C 	C 	0.24870 0.37890 0.57350 -0.02200
H 	H 	0.27840 0.35660 0.57450 -0.03800
H 	H 	0.20340 0.34600 0.61480 -0.05500
C 	C 	0.23420 0.39040 0.43230 -0.05000
H 	H 	0.20670 0.41500 0.43070 -0.03700
H 	H 	0.20560 0.34400 0.39080 -0.04200
N 	N 	0.29927 0.43133 0.36250 -0.34700
H 	H 	0.32010 0.47740 0.38910 0.03500
H 	H 	0.32940 0.41490 0.38210 0.04000
Zn	Zn	-0.00000 0.00000 0.83009 1.16600
Zn	Zn	0.00000 0.00000 0.16991 1.16600
