data_crystal

_cell_length_a 8.28810
_cell_length_b 8.28810
_cell_length_c 10.56600
_cell_angle_alpha 90.00000
_cell_angle_beta  90.00000
_cell_angle_gamma 120.00000

_symmetry_space_group_name_	'P 1'
_symmetry_space_group_name_H-M	'P 1'

loop_
_symmetry_equiv_pos_as_xyz
  x,y,z

loop_
_atom_site_label
_atom_site_type_symbol
_atom_site_fract_x
_atom_site_fract_y
_atom_site_fract_z
_atom_site_charge
Zn	Zn	0.58351 0.86864 0.99537 1.15300
O 	O 	0.75190 0.80860 0.11320 -0.98100
H 	H 	0.68600 0.76500 0.18000 0.19600
O 	O 	0.52220 0.62530 0.91030 -0.95300
H 	H 	0.53800 0.62000 0.83100 0.23800
H 	H 	0.11890 0.09070 0.37850 0.15200
H 	H 	0.92470 0.04800 0.37850 0.70200
C 	C 	0.95500 0.85700 0.44720 3.22200
H 	H 	0.06870 0.85990 0.47930 -1.57000
H 	H 	0.87110 0.73260 0.41020 -0.64000
Zn	Zn	0.13136 0.71487 0.99537 1.19600
O 	O 	0.19140 0.94330 0.11320 -0.92500
H 	H 	0.23500 0.92100 0.18000 0.20500
O 	O 	0.37470 0.89690 0.91030 -0.97700
H 	H 	0.38000 0.91800 0.83100 0.24100
H 	H 	0.90930 0.02820 0.37850 0.69100
H 	H 	0.95200 0.87670 0.37850 -0.61100
C 	C 	0.14300 0.09800 0.44720 -0.52700
H 	H 	0.14010 0.20880 0.47930 1.11900
H 	H 	0.26740 0.13850 0.41020 0.09900
Zn	Zn	0.28513 0.41649 0.99537 1.17700
O 	O 	0.05670 0.24810 0.11320 -0.87400
H 	H 	0.07900 0.31400 0.18000 0.17300
O 	O 	0.10310 0.47780 0.91030 -0.91500
H 	H 	0.08200 0.46200 0.83100 0.23500
H 	H 	0.97180 0.88110 0.37850 -0.62400
H 	H 	0.12330 0.07530 0.37850 0.09400
C 	C 	0.90200 0.04500 0.44720 -3.49900
H 	H 	0.79120 0.93130 0.47930 0.83900
H 	H 	0.86150 0.12890 0.41020 0.40800
Zn	Zn	0.41649 0.13136 0.00463 1.19700
O 	O 	0.24810 0.19140 0.88680 -0.88400
H 	H 	0.31400 0.23500 0.82000 0.18700
O 	O 	0.47780 0.37470 0.08970 -0.93800
H 	H 	0.46200 0.38000 0.16900 0.24000
H 	H 	0.88110 0.90930 0.62150 -0.00900
H 	H 	0.07530 0.95200 0.62150 -0.56600
C 	C 	0.04500 0.14300 0.55280 -3.67900
H 	H 	0.93130 0.14010 0.52070 1.83100
H 	H 	0.12890 0.26740 0.58980 0.53600
Zn	Zn	0.86864 0.28513 0.00463 1.15100
O 	O 	0.80860 0.05670 0.88680 -0.90800
H 	H 	0.76500 0.07900 0.82000 0.17600
O 	O 	0.62530 0.10310 0.08970 -0.92400
H 	H 	0.62000 0.08200 0.16900 0.23500
H 	H 	0.09070 0.97180 0.62150 -0.53200
H 	H 	0.04800 0.12330 0.62150 0.71500
C 	C 	0.85700 0.90200 0.55280 -0.00300
H 	H 	0.85990 0.79120 0.52070 -0.88000
H 	H 	0.73260 0.86150 0.58980 -0.19000
Zn	Zn	0.71487 0.58351 0.00463 1.17700
O 	O 	0.94330 0.75190 0.88680 -0.98800
H 	H 	0.92100 0.68600 0.82000 0.21100
O 	O 	0.89690 0.52220 0.08970 -0.98300
H 	H 	0.91800 0.53800 0.16900 0.24000
H 	H 	0.02820 0.11890 0.62150 0.75500
H 	H 	0.87670 0.92470 0.62150 0.02900
C 	C 	0.09800 0.95500 0.55280 2.90400
H 	H 	0.20880 0.06870 0.52070 -0.56600
H 	H 	0.13850 0.87110 0.58980 -0.48300
Zn	Zn	-0.00000 -0.00000 0.16974 1.23200
N 	N 	0.00000 0.00000 0.35710 -0.28000
Zn	Zn	0.00000 0.00000 0.83026 1.23200
N 	N 	0.00000 0.00000 0.64290 -0.27900
