data_crystal

_cell_length_a 18.19970
_cell_length_b 18.19970
_cell_length_c 20.02040
_cell_angle_alpha 90.00000
_cell_angle_beta  90.00000
_cell_angle_gamma 120.00000

_symmetry_space_group_name_	'P 1'
_symmetry_space_group_name_H-M	'P 1'

loop_
_symmetry_equiv_pos_as_xyz
  x,y,z

loop_
_atom_site_label
_atom_site_type_symbol
_atom_site_fract_x
_atom_site_fract_y
_atom_site_fract_z
_atom_site_charge
O 	O 	0.07260 0.11190 0.19530 -0.63300
O 	O 	0.31380 0.32050 0.07260 -0.54000
O 	O 	0.41900 0.43060 0.11940 -0.45500
O 	O 	0.54840 0.44900 0.00607 -0.49700
O 	O 	0.45710 0.31400 0.00700 -0.50600
C 	C 	0.31040 0.32860 0.18910 -0.19400
C 	C 	0.35200 0.36360 0.12450 0.36700
C 	C 	0.23200 0.25800 0.19130 0.14400
H 	H 	0.20540 0.23370 0.15110 -0.03900
C 	C 	0.58150 0.26780 0.01070 0.08100
C 	C 	0.60360 0.35420 0.01160 -0.14900
C 	C 	0.53110 0.37400 0.00800 0.35000
O 	O 	0.88810 0.96070 0.19530 -0.33200
O 	O 	0.67950 0.99330 0.07260 -0.40300
O 	O 	0.56940 0.98840 0.11940 -0.37200
O 	O 	0.55100 0.09940 0.00607 -0.58000
O 	O 	0.68600 0.14310 0.00700 -0.52200
C 	C 	0.67140 0.98180 0.18910 -0.06900
C 	C 	0.63640 0.98840 0.12450 0.33000
C 	C 	0.74200 0.97400 0.19130 0.06000
H 	H 	0.76630 0.97170 0.15110 0.06500
C 	C 	0.73220 0.31370 0.01070 0.10900
C 	C 	0.64580 0.24940 0.01160 -0.15900
C 	C 	0.62600 0.15710 0.00800 0.35800
O 	O 	0.03930 0.92740 0.19530 -0.46500
O 	O 	0.00670 0.68620 0.07260 -0.57700
O 	O 	0.01160 0.58100 0.11940 -0.52000
O 	O 	0.90060 0.45160 0.00607 -0.43100
O 	O 	0.85690 0.54290 0.00700 -0.42300
C 	C 	0.01820 0.68960 0.18910 -0.20100
C 	C 	0.01160 0.64800 0.12450 0.37500
C 	C 	0.02600 0.76800 0.19130 0.12900
H 	H 	0.02830 0.79460 0.15110 -0.01200
C 	C 	0.68630 0.41850 0.01070 0.11200
C 	C 	0.75060 0.39640 0.01160 -0.13800
C 	C 	0.84290 0.46890 0.00800 0.33900
O 	O 	0.07260 0.11190 0.30470 -0.62000
O 	O 	0.31380 0.32050 0.42740 -0.48200
O 	O 	0.41900 0.43060 0.38060 -0.41900
O 	O 	0.54840 0.44900 0.49393 -0.43700
O 	O 	0.45710 0.31400 0.49300 -0.45400
C 	C 	0.31040 0.32860 0.31090 -0.17900
C 	C 	0.35200 0.36360 0.37550 0.35500
C 	C 	0.23200 0.25800 0.30870 0.13800
H 	H 	0.20540 0.23370 0.34890 -0.02000
C 	C 	0.58150 0.26780 0.48930 0.11400
C 	C 	0.60360 0.35420 0.48840 -0.14000
C 	C 	0.53110 0.37400 0.49200 0.35100
O 	O 	0.88810 0.96070 0.30470 -0.31800
O 	O 	0.67950 0.99330 0.42740 -0.34500
O 	O 	0.56940 0.98840 0.38060 -0.33700
O 	O 	0.55100 0.09940 0.49393 -0.52000
O 	O 	0.68600 0.14310 0.49300 -0.47000
C 	C 	0.67140 0.98180 0.31090 -0.05300
C 	C 	0.63640 0.98840 0.37550 0.32000
C 	C 	0.74200 0.97400 0.30870 0.05400
H 	H 	0.76630 0.97170 0.34890 0.08400
C 	C 	0.73220 0.31370 0.48930 0.14200
C 	C 	0.64580 0.24940 0.48840 -0.15000
C 	C 	0.62600 0.15710 0.49200 0.35900
O 	O 	0.03930 0.92740 0.30470 -0.45200
O 	O 	0.00670 0.68620 0.42740 -0.52100
O 	O 	0.01160 0.58100 0.38060 -0.48400
O 	O 	0.90060 0.45160 0.49393 -0.37000
O 	O 	0.85690 0.54290 0.49300 -0.37000
C 	C 	0.01820 0.68960 0.31090 -0.18500
C 	C 	0.01160 0.64800 0.37550 0.36400
C 	C 	0.02600 0.76800 0.30870 0.12300
H 	H 	0.02830 0.79460 0.34890 0.00600
C 	C 	0.68630 0.41850 0.48930 0.14500
C 	C 	0.75060 0.39640 0.48840 -0.12800
C 	C 	0.84290 0.46890 0.49200 0.33900
O 	O 	0.11190 0.07260 0.80470 -0.59600
O 	O 	0.32050 0.31380 0.92740 -0.40600
O 	O 	0.43060 0.41900 0.88060 -0.36100
O 	O 	0.44900 0.54840 0.99393 -0.36600
O 	O 	0.31400 0.45710 0.99300 -0.39100
C 	C 	0.32860 0.31040 0.81090 -0.13100
C 	C 	0.36360 0.35200 0.87550 0.33500
C 	C 	0.25800 0.23200 0.80870 0.11000
H 	H 	0.23370 0.20540 0.84890 0.01000
C 	C 	0.26780 0.58150 0.98930 0.14500
C 	C 	0.35420 0.60360 0.98840 -0.13000
C 	C 	0.37400 0.53110 0.99200 0.34900
O 	O 	0.96070 0.88810 0.80470 -0.29800
O 	O 	0.99330 0.67950 0.92740 -0.27600
O 	O 	0.98840 0.56940 0.88060 -0.28300
O 	O 	0.09940 0.55100 0.99393 -0.44700
O 	O 	0.14310 0.68600 0.99300 -0.40700
C 	C 	0.98180 0.67140 0.81090 -0.00900
C 	C 	0.98840 0.63640 0.87550 0.30100
C 	C 	0.97400 0.74200 0.80870 0.02800
H 	H 	0.97170 0.76630 0.84890 0.11100
C 	C 	0.31370 0.73220 0.98930 0.17200
C 	C 	0.24940 0.64580 0.98840 -0.14000
C 	C 	0.15710 0.62600 0.99200 0.35700
O 	O 	0.92740 0.03930 0.80470 -0.43300
O 	O 	0.68620 0.00670 0.92740 -0.44800
O 	O 	0.58100 0.01160 0.88060 -0.42700
O 	O 	0.45160 0.90060 0.99393 -0.30100
O 	O 	0.54290 0.85690 0.99300 -0.31000
C 	C 	0.68960 0.01820 0.81090 -0.14000
C 	C 	0.64800 0.01160 0.87550 0.34500
C 	C 	0.76800 0.02600 0.80870 0.09700
H 	H 	0.79460 0.02830 0.84890 0.03400
C 	C 	0.41850 0.68630 0.98930 0.17500
C 	C 	0.39640 0.75060 0.98840 -0.11900
C 	C 	0.46890 0.84290 0.99200 0.33700
O 	O 	0.11190 0.07260 0.69530 -0.61100
O 	O 	0.32050 0.31380 0.57260 -0.47800
O 	O 	0.43060 0.41900 0.61940 -0.40700
O 	O 	0.44900 0.54840 0.50607 -0.43800
O 	O 	0.31400 0.45710 0.50700 -0.45500
C 	C 	0.32860 0.31040 0.68910 -0.14800
C 	C 	0.36360 0.35200 0.62450 0.34800
C 	C 	0.25800 0.23200 0.69130 0.11500
H 	H 	0.23370 0.20540 0.65110 -0.00900
C 	C 	0.26780 0.58150 0.51070 0.11200
C 	C 	0.35420 0.60360 0.51160 -0.14000
C 	C 	0.37400 0.53110 0.50800 0.34900
O 	O 	0.96070 0.88810 0.69530 -0.31000
O 	O 	0.99330 0.67950 0.57260 -0.34200
O 	O 	0.98840 0.56940 0.61940 -0.32600
O 	O 	0.09940 0.55100 0.50607 -0.52000
O 	O 	0.14310 0.68600 0.50700 -0.47000
C 	C 	0.98180 0.67140 0.68910 -0.02500
C 	C 	0.98840 0.63640 0.62450 0.31200
C 	C 	0.97400 0.74200 0.69130 0.03300
H 	H 	0.97170 0.76630 0.65110 0.09300
C 	C 	0.31370 0.73220 0.51070 0.13900
C 	C 	0.24940 0.64580 0.51160 -0.15000
C 	C 	0.15710 0.62600 0.50800 0.35700
O 	O 	0.92740 0.03930 0.69530 -0.44700
O 	O 	0.68620 0.00670 0.57260 -0.51800
O 	O 	0.58100 0.01160 0.61940 -0.47300
O 	O 	0.45160 0.90060 0.50607 -0.37000
O 	O 	0.54290 0.85690 0.50700 -0.37000
C 	C 	0.68960 0.01820 0.68910 -0.15700
C 	C 	0.64800 0.01160 0.62450 0.35700
C 	C 	0.76800 0.02600 0.69130 0.10200
H 	H 	0.79460 0.02830 0.65110 0.01500
C 	C 	0.41850 0.68630 0.51070 0.14200
C 	C 	0.39640 0.75060 0.51160 -0.12900
C 	C 	0.46890 0.84290 0.50800 0.33800
In	In	0.40891 0.40891 -0.00000 1.95300
In	In	0.59109 0.00000 -0.00000 1.90400
In	In	0.00000 0.59109 -0.00000 1.90600
In	In	0.40891 0.40891 0.50000 1.99400
In	In	0.59109 0.00000 0.50000 1.94400
In	In	0.00000 0.59109 0.50000 1.94500
Co	Co	-0.00000 0.00000 0.14704 0.93200
Co	Co	-0.00000 0.00000 0.35296 0.95000
Co	Co	-0.00000 0.00000 0.85296 0.97200
Co	Co	0.00000 0.00000 0.64704 0.95200
C 	C 	0.10310 0.14060 0.25000 0.51100
C 	C 	0.18980 0.22040 0.25000 -0.26600
C 	C 	0.35040 0.36350 0.25000 0.10200
H 	H 	0.40450 0.41080 0.25000 0.03000
C 	C 	0.85940 0.96250 0.25000 0.44200
C 	C 	0.77960 0.96940 0.25000 -0.08600
C 	C 	0.63650 0.98690 0.25000 0.03900
H 	H 	0.58920 0.99370 0.25000 0.08400
C 	C 	0.03750 0.89690 0.25000 0.47000
C 	C 	0.03060 0.81020 0.25000 -0.21500
C 	C 	0.01310 0.64960 0.25000 0.10300
H 	H 	0.00630 0.59550 0.25000 -0.00200
C 	C 	0.14060 0.10310 0.75000 0.49900
C 	C 	0.22040 0.18980 0.75000 -0.22400
C 	C 	0.36350 0.35040 0.75000 0.07500
H 	H 	0.41080 0.40450 0.75000 0.05400
C 	C 	0.96250 0.85940 0.75000 0.43100
C 	C 	0.96940 0.77960 0.75000 -0.04800
C 	C 	0.98690 0.63650 0.75000 0.01400
H 	H 	0.99370 0.58920 0.75000 0.10600
C 	C 	0.89690 0.03750 0.75000 0.45900
C 	C 	0.81020 0.03060 0.75000 -0.17700
C 	C 	0.64960 0.01310 0.75000 0.07800
H 	H 	0.59550 0.00630 0.75000 0.02100
