data_crystal

_cell_length_a 18.78430
_cell_length_b 18.78430
_cell_length_c 25.02670
_cell_angle_alpha 90.00000
_cell_angle_beta  90.00000
_cell_angle_gamma 120.00000

_symmetry_space_group_name_	'P 1'
_symmetry_space_group_name_H-M	'P 1'

loop_
_symmetry_equiv_pos_as_xyz
  x,y,z

loop_
_atom_site_label
_atom_site_type_symbol
_atom_site_fract_x
_atom_site_fract_y
_atom_site_fract_z
_atom_site_charge
O 	O 	0.53379 0.18743 0.68827 -0.56600
O 	O 	0.65360 0.18757 0.68829 -0.56600
O 	O 	0.94250 0.05700 0.70120 -0.46600
C 	C 	0.46340 0.04840 0.54880 0.09600
H 	H 	0.41260 0.03280 0.53350 -0.04900
C 	C 	0.58610 0.04870 0.54910 0.09200
H 	H 	0.62170 0.03330 0.53390 -0.04000
C 	C 	0.48560 0.09390 0.59520 -0.11000
H 	H 	0.45020 0.10950 0.61010 0.06600
C 	C 	0.60810 0.09370 0.59530 -0.10700
H 	H 	0.65900 0.10910 0.61050 0.07000
C 	C 	0.81650 0.18340 0.70750 0.11500
H 	H 	0.80300 0.19870 0.67550 -0.02200
C 	C 	0.55810 0.11630 0.61940 -0.03700
C 	C 	0.51330 0.02620 0.52530 -0.25800
C 	C 	0.58410 0.16800 0.66988 0.40900
C 	C 	0.85950 0.13760 0.70420 -0.16200
H 	H 	0.87220 0.12140 0.67220 0.08900
O 	O 	0.81257 0.34636 0.68827 -0.58400
O 	O 	0.81243 0.46603 0.68829 -0.58400
O 	O 	0.94300 0.88550 0.70120 -0.41000
C 	C 	0.95160 0.41500 0.54880 -0.40500
H 	H 	0.96720 0.37980 0.53350 0.19400
C 	C 	0.95130 0.53740 0.54910 -0.39900
H 	H 	0.96670 0.58840 0.53390 0.19600
C 	C 	0.90610 0.39170 0.59520 0.30400
H 	H 	0.89050 0.34070 0.61010 -0.05800
C 	C 	0.90630 0.51440 0.59530 0.30500
H 	H 	0.89090 0.54990 0.61050 -0.05300
C 	C 	0.81660 0.63310 0.70750 0.13000
H 	H 	0.80130 0.60430 0.67550 -0.02000
C 	C 	0.88370 0.44180 0.61940 -0.32800
C 	C 	0.97380 0.48710 0.52530 0.39700
C 	C 	0.83200 0.41610 0.66988 0.52100
C 	C 	0.86240 0.72190 0.70420 -0.17100
H 	H 	0.87860 0.75080 0.67220 0.11000
O 	O 	0.65364 0.46621 0.68827 -0.57300
O 	O 	0.53397 0.34640 0.68829 -0.57800
O 	O 	0.11450 0.05750 0.70120 -0.53200
C 	C 	0.58500 0.53660 0.54880 -0.15300
H 	H 	0.62020 0.58740 0.53350 0.08200
C 	C 	0.46260 0.41390 0.54910 -0.15400
H 	H 	0.41160 0.37830 0.53390 0.06800
C 	C 	0.60830 0.51440 0.59520 0.09900
H 	H 	0.65930 0.54980 0.61010 0.01100
C 	C 	0.48560 0.39190 0.59530 0.09600
H 	H 	0.45010 0.34100 0.61050 0.00200
C 	C 	0.36690 0.18350 0.70750 0.09900
H 	H 	0.39570 0.19700 0.67550 -0.02600
C 	C 	0.55820 0.44190 0.61940 -0.18200
C 	C 	0.51290 0.48670 0.52530 0.06900
C 	C 	0.58390 0.41590 0.66988 0.46500
C 	C 	0.27810 0.14050 0.70420 -0.15200
H 	H 	0.24920 0.12780 0.67220 0.06800
O 	O 	0.81257 0.46621 0.81173 -0.58200
O 	O 	0.81243 0.34640 0.81171 -0.58600
O 	O 	0.94300 0.05750 0.79880 -0.46700
C 	C 	0.95160 0.53660 0.95120 -0.40100
H 	H 	0.96720 0.58740 0.96650 0.19800
C 	C 	0.95130 0.41390 0.95090 -0.39700
H 	H 	0.96670 0.37830 0.96610 0.19000
C 	C 	0.90610 0.51440 0.90480 0.30300
H 	H 	0.89050 0.54980 0.88990 -0.05300
C 	C 	0.90630 0.39190 0.90470 0.30100
H 	H 	0.89090 0.34100 0.88950 -0.05700
C 	C 	0.81660 0.18350 0.79250 0.11600
H 	H 	0.80130 0.19700 0.82450 -0.02300
C 	C 	0.88370 0.44190 0.88060 -0.32700
C 	C 	0.97380 0.48670 0.97470 0.39400
C 	C 	0.83200 0.41590 0.83012 0.52100
C 	C 	0.86240 0.14050 0.79580 -0.16300
H 	H 	0.87860 0.12780 0.82780 0.09100
O 	O 	0.65364 0.18743 0.81173 -0.56500
O 	O 	0.53397 0.18757 0.81171 -0.56900
O 	O 	0.11450 0.05700 0.79880 -0.53200
C 	C 	0.58500 0.04840 0.95120 0.09300
H 	H 	0.62020 0.03280 0.96650 -0.04000
C 	C 	0.46260 0.04870 0.95090 0.08900
H 	H 	0.41160 0.03330 0.96610 -0.04600
C 	C 	0.60830 0.09390 0.90480 -0.10600
H 	H 	0.65930 0.10950 0.88990 0.07100
C 	C 	0.48560 0.09370 0.90470 -0.10600
H 	H 	0.45010 0.10910 0.88950 0.06500
C 	C 	0.36690 0.18340 0.79250 0.09900
H 	H 	0.39570 0.19870 0.82450 -0.02500
C 	C 	0.55820 0.11630 0.88060 -0.03800
C 	C 	0.51290 0.02620 0.97470 -0.25500
C 	C 	0.58390 0.16800 0.83012 0.41000
C 	C 	0.27810 0.13760 0.79580 -0.15200
H 	H 	0.24920 0.12140 0.82780 0.06800
O 	O 	0.53379 0.34636 0.81173 -0.57600
O 	O 	0.65360 0.46603 0.81171 -0.57500
O 	O 	0.94250 0.88550 0.79880 -0.41100
C 	C 	0.46340 0.41500 0.95120 -0.15500
H 	H 	0.41260 0.37980 0.96650 0.06900
C 	C 	0.58610 0.53740 0.95090 -0.15300
H 	H 	0.62170 0.58840 0.96610 0.08100
C 	C 	0.48560 0.39170 0.90480 0.09600
H 	H 	0.45020 0.34070 0.88990 0.00200
C 	C 	0.60810 0.51440 0.90470 0.10000
H 	H 	0.65900 0.54990 0.88950 0.01100
C 	C 	0.81650 0.63310 0.79250 0.13000
H 	H 	0.80300 0.60430 0.82450 -0.02000
C 	C 	0.55810 0.44180 0.88060 -0.18300
C 	C 	0.51330 0.48710 0.97470 0.06900
C 	C 	0.58410 0.41610 0.83012 0.46500
C 	C 	0.85950 0.72190 0.79580 -0.17100
H 	H 	0.87220 0.75080 0.82780 0.10900
O 	O 	0.46621 0.81257 0.31173 -0.58200
O 	O 	0.34640 0.81243 0.31171 -0.58600
O 	O 	0.05750 0.94300 0.29880 -0.46700
C 	C 	0.53660 0.95160 0.45120 -0.40400
H 	H 	0.58740 0.96720 0.46650 0.19900
C 	C 	0.41390 0.95130 0.45090 -0.40000
H 	H 	0.37830 0.96670 0.46610 0.19100
C 	C 	0.51440 0.90610 0.40480 0.30500
H 	H 	0.54980 0.89050 0.38990 -0.05400
C 	C 	0.39190 0.90630 0.40470 0.30300
H 	H 	0.34100 0.89090 0.38950 -0.05700
C 	C 	0.18350 0.81660 0.29250 0.11600
H 	H 	0.19700 0.80130 0.32450 -0.02300
C 	C 	0.44190 0.88370 0.38060 -0.32800
C 	C 	0.48670 0.97380 0.47470 0.39700
C 	C 	0.41590 0.83200 0.33012 0.52100
C 	C 	0.14050 0.86240 0.29580 -0.16300
H 	H 	0.12780 0.87860 0.32780 0.09100
O 	O 	0.18743 0.65364 0.31173 -0.56500
O 	O 	0.18757 0.53397 0.31171 -0.56900
O 	O 	0.05700 0.11450 0.29880 -0.53200
C 	C 	0.04840 0.58500 0.45120 0.09600
H 	H 	0.03280 0.62020 0.46650 -0.04100
C 	C 	0.04870 0.46260 0.45090 0.09200
H 	H 	0.03330 0.41160 0.46610 -0.04800
C 	C 	0.09390 0.60830 0.40480 -0.10900
H 	H 	0.10950 0.65930 0.38990 0.07100
C 	C 	0.09370 0.48560 0.40470 -0.10900
H 	H 	0.10910 0.45010 0.38950 0.06600
C 	C 	0.18340 0.36690 0.29250 0.09900
H 	H 	0.19870 0.39570 0.32450 -0.02500
C 	C 	0.11630 0.55820 0.38060 -0.03700
C 	C 	0.02620 0.51290 0.47470 -0.25900
C 	C 	0.16800 0.58390 0.33012 0.40900
C 	C 	0.13760 0.27810 0.29580 -0.15200
H 	H 	0.12140 0.24920 0.32780 0.06700
O 	O 	0.34636 0.53379 0.31173 -0.57600
O 	O 	0.46603 0.65360 0.31171 -0.57500
O 	O 	0.88550 0.94250 0.29880 -0.41000
C 	C 	0.41500 0.46340 0.45120 -0.15500
H 	H 	0.37980 0.41260 0.46650 0.06900
C 	C 	0.53740 0.58610 0.45090 -0.15300
H 	H 	0.58840 0.62170 0.46610 0.08200
C 	C 	0.39170 0.48560 0.40480 0.09600
H 	H 	0.34070 0.45020 0.38990 0.00200
C 	C 	0.51440 0.60810 0.40470 0.10000
H 	H 	0.54990 0.65900 0.38950 0.01100
C 	C 	0.63310 0.81650 0.29250 0.13000
H 	H 	0.60430 0.80300 0.32450 -0.02000
C 	C 	0.44180 0.55810 0.38060 -0.18300
C 	C 	0.48710 0.51330 0.47470 0.06900
C 	C 	0.41610 0.58410 0.33012 0.46500
C 	C 	0.72190 0.85950 0.29580 -0.17100
H 	H 	0.75080 0.87220 0.32780 0.10900
O 	O 	0.18743 0.53379 0.18827 -0.56700
O 	O 	0.18757 0.65360 0.18829 -0.56700
O 	O 	0.05700 0.94250 0.20120 -0.46700
C 	C 	0.04840 0.46340 0.04880 0.09300
H 	H 	0.03280 0.41260 0.03350 -0.04700
C 	C 	0.04870 0.58610 0.04910 0.09000
H 	H 	0.03330 0.62170 0.03390 -0.03800
C 	C 	0.09390 0.48560 0.09520 -0.10800
H 	H 	0.10950 0.45020 0.11010 0.06600
C 	C 	0.09370 0.60810 0.09530 -0.10400
H 	H 	0.10910 0.65900 0.11050 0.07000
C 	C 	0.18340 0.81650 0.20750 0.11500
H 	H 	0.19870 0.80300 0.17550 -0.02200
C 	C 	0.11630 0.55810 0.11940 -0.03800
C 	C 	0.02620 0.51330 0.02530 -0.25500
C 	C 	0.16800 0.58410 0.16988 0.41000
C 	C 	0.13760 0.85950 0.20420 -0.16200
H 	H 	0.12140 0.87220 0.17220 0.08900
O 	O 	0.34636 0.81257 0.18827 -0.58300
O 	O 	0.46603 0.81243 0.18829 -0.58400
O 	O 	0.88550 0.94300 0.20120 -0.41100
C 	C 	0.41500 0.95160 0.04880 -0.40200
H 	H 	0.37980 0.96720 0.03350 0.19200
C 	C 	0.53740 0.95130 0.04910 -0.39700
H 	H 	0.58840 0.96670 0.03390 0.19500
C 	C 	0.39170 0.90610 0.09520 0.30200
H 	H 	0.34070 0.89050 0.11010 -0.05700
C 	C 	0.51440 0.90630 0.09530 0.30300
H 	H 	0.54990 0.89090 0.11050 -0.05300
C 	C 	0.63310 0.81660 0.20750 0.13000
H 	H 	0.60430 0.80130 0.17550 -0.02000
C 	C 	0.44180 0.88370 0.11940 -0.32700
C 	C 	0.48710 0.97380 0.02530 0.39400
C 	C 	0.41610 0.83200 0.16988 0.52100
C 	C 	0.72190 0.86240 0.20420 -0.17100
H 	H 	0.75080 0.87860 0.17220 0.10900
O 	O 	0.46621 0.65364 0.18827 -0.57300
O 	O 	0.34640 0.53397 0.18829 -0.57800
O 	O 	0.05750 0.11450 0.20120 -0.53200
C 	C 	0.53660 0.58500 0.04880 -0.15300
H 	H 	0.58740 0.62020 0.03350 0.08200
C 	C 	0.41390 0.46260 0.04910 -0.15400
H 	H 	0.37830 0.41160 0.03390 0.06800
C 	C 	0.51440 0.60830 0.09520 0.09900
H 	H 	0.54980 0.65930 0.11010 0.01100
C 	C 	0.39190 0.48560 0.09530 0.09600
H 	H 	0.34100 0.45010 0.11050 0.00200
C 	C 	0.18350 0.36690 0.20750 0.09900
H 	H 	0.19700 0.39570 0.17550 -0.02600
C 	C 	0.44190 0.55820 0.11940 -0.18200
C 	C 	0.48670 0.51290 0.02530 0.06900
C 	C 	0.41590 0.58390 0.16988 0.46500
C 	C 	0.14050 0.27810 0.20420 -0.15200
H 	H 	0.12780 0.24920 0.17220 0.06800
In	In	0.72901 0.27099 0.75000 2.00200
N 	N 	0.79555 0.20445 0.75000 -0.32500
C 	C 	0.87780 0.12220 0.75000 0.06400
C 	C 	0.92530 0.07470 0.75000 0.25200
In	In	0.72901 0.45802 0.75000 2.00300
N 	N 	0.79555 0.59110 0.75000 -0.32700
C 	C 	0.87780 0.75560 0.75000 0.08900
C 	C 	0.92530 0.85060 0.75000 0.25600
In	In	0.54198 0.27099 0.75000 2.00100
N 	N 	0.40890 0.20445 0.75000 -0.32300
C 	C 	0.24440 0.12220 0.75000 0.03600
C 	C 	0.14940 0.07470 0.75000 0.24800
In	In	0.27099 0.72901 0.25000 2.00200
N 	N 	0.20445 0.79555 0.25000 -0.32500
C 	C 	0.12220 0.87780 0.25000 0.06400
C 	C 	0.07470 0.92530 0.25000 0.25200
In	In	0.27099 0.54198 0.25000 2.00100
N 	N 	0.20445 0.40890 0.25000 -0.32300
C 	C 	0.12220 0.24440 0.25000 0.03600
C 	C 	0.07470 0.14940 0.25000 0.24800
In	In	0.45802 0.72901 0.25000 2.00300
N 	N 	0.59110 0.79555 0.25000 -0.32700
C 	C 	0.75560 0.87780 0.25000 0.08900
C 	C 	0.85060 0.92530 0.25000 0.25600
Zn	Zn	0.00000 0.00000 0.67797 1.12500
Zn	Zn	0.00000 0.00000 0.82203 1.12500
Zn	Zn	-0.00000 -0.00000 0.32203 1.12500
Zn	Zn	0.00000 -0.00000 0.17797 1.12500
O 	O 	0.66667 0.33333 0.75000 -1.03900
O 	O 	0.33333 0.66667 0.25000 -1.03900
