data_crystal

_cell_length_a 20.81310
_cell_length_b 20.81310
_cell_length_c 23.18500
_cell_angle_alpha 90.00000
_cell_angle_beta  90.00000
_cell_angle_gamma 120.00000

_symmetry_space_group_name_	'P 1'
_symmetry_space_group_name_H-M	'P 1'

loop_
_symmetry_equiv_pos_as_xyz
  x,y,z

loop_
_atom_site_label
_atom_site_type_symbol
_atom_site_fract_x
_atom_site_fract_y
_atom_site_fract_z
_atom_site_charge
O 	O 	0.79935 0.45360 0.68419 -0.61200
O 	O 	0.79948 0.34574 0.68415 -0.61000
C 	C 	0.94890 0.41770 0.54826 -0.15800
H 	H 	0.96610 0.38750 0.53360 0.07600
C 	C 	0.94820 0.53060 0.54820 -0.16000
H 	H 	0.96480 0.57780 0.53340 0.07600
C 	C 	0.89860 0.50480 0.59356 0.10700
H 	H 	0.88140 0.53480 0.60860 -0.00500
C 	C 	0.89910 0.39340 0.59338 0.10200
H 	H 	0.88180 0.34610 0.60830 -0.00300
C 	C 	0.97280 0.48620 0.52510 0.06800
C 	C 	0.87496 0.43770 0.61635 -0.19700
C 	C 	0.81855 0.40940 0.66577 0.48800
O 	O 	0.54640 0.34575 0.68419 -0.61100
O 	O 	0.65426 0.45374 0.68415 -0.60900
C 	C 	0.58230 0.53120 0.54826 -0.15700
H 	H 	0.61250 0.57860 0.53360 0.07700
C 	C 	0.46940 0.41760 0.54820 -0.15900
H 	H 	0.42220 0.38700 0.53340 0.07700
C 	C 	0.49520 0.39380 0.59356 0.10800
H 	H 	0.46520 0.34660 0.60860 -0.00400
C 	C 	0.60660 0.50570 0.59338 0.10300
H 	H 	0.65390 0.53570 0.60830 -0.00200
C 	C 	0.51380 0.48660 0.52510 0.06800
C 	C 	0.56230 0.43726 0.61635 -0.19700
C 	C 	0.59060 0.40915 0.66577 0.48800
O 	O 	0.65425 0.20065 0.68419 -0.61100
O 	O 	0.54626 0.20052 0.68415 -0.60900
C 	C 	0.46880 0.05110 0.54826 -0.15700
H 	H 	0.42140 0.03390 0.53360 0.07700
C 	C 	0.58240 0.05180 0.54820 -0.15900
H 	H 	0.61300 0.03520 0.53340 0.07700
C 	C 	0.60620 0.10140 0.59356 0.10800
H 	H 	0.65340 0.11860 0.60860 -0.00400
C 	C 	0.49430 0.10090 0.59338 0.10300
H 	H 	0.46430 0.11820 0.60830 -0.00200
C 	C 	0.51340 0.02720 0.52510 0.06800
C 	C 	0.56274 0.12504 0.61635 -0.19700
C 	C 	0.59085 0.18145 0.66577 0.48800
O 	O 	0.54640 0.20065 0.81581 -0.61100
O 	O 	0.65426 0.20052 0.81585 -0.60900
C 	C 	0.58230 0.05110 0.95174 -0.15700
H 	H 	0.61250 0.03390 0.96640 0.07600
C 	C 	0.46940 0.05180 0.95180 -0.15900
H 	H 	0.42220 0.03520 0.96660 0.07700
C 	C 	0.49520 0.10140 0.90644 0.10800
H 	H 	0.46520 0.11860 0.89140 -0.00400
C 	C 	0.60660 0.10090 0.90662 0.10300
H 	H 	0.65390 0.11820 0.89170 -0.00200
C 	C 	0.51380 0.02720 0.97490 0.06800
C 	C 	0.56230 0.12504 0.88365 -0.19700
C 	C 	0.59060 0.18145 0.83423 0.48800
O 	O 	0.65425 0.45360 0.81581 -0.61100
O 	O 	0.54626 0.34574 0.81585 -0.60900
C 	C 	0.46880 0.41770 0.95174 -0.15700
H 	H 	0.42140 0.38750 0.96640 0.07600
C 	C 	0.58240 0.53060 0.95180 -0.15900
H 	H 	0.61300 0.57780 0.96660 0.07700
C 	C 	0.60620 0.50480 0.90644 0.10800
H 	H 	0.65340 0.53480 0.89140 -0.00400
C 	C 	0.49430 0.39340 0.90662 0.10300
H 	H 	0.46430 0.34610 0.89170 -0.00200
C 	C 	0.51340 0.48620 0.97490 0.06800
C 	C 	0.56274 0.43770 0.88365 -0.19700
C 	C 	0.59085 0.40940 0.83423 0.48800
O 	O 	0.79935 0.34575 0.81581 -0.61100
O 	O 	0.79948 0.45374 0.81585 -0.60900
C 	C 	0.94890 0.53120 0.95174 -0.15700
H 	H 	0.96610 0.57860 0.96640 0.07600
C 	C 	0.94820 0.41760 0.95180 -0.15900
H 	H 	0.96480 0.38700 0.96660 0.07700
C 	C 	0.89860 0.39380 0.90644 0.10800
H 	H 	0.88140 0.34660 0.89140 -0.00400
C 	C 	0.89910 0.50570 0.90662 0.10300
H 	H 	0.88180 0.53570 0.89170 -0.00200
C 	C 	0.97280 0.48660 0.97490 0.06800
C 	C 	0.87496 0.43726 0.88365 -0.19700
C 	C 	0.81855 0.40915 0.83423 0.48800
O 	O 	0.20065 0.54640 0.31581 -0.61100
O 	O 	0.20052 0.65426 0.31585 -0.60900
C 	C 	0.05110 0.58230 0.45174 -0.15700
H 	H 	0.03390 0.61250 0.46640 0.07700
C 	C 	0.05180 0.46940 0.45180 -0.15900
H 	H 	0.03520 0.42220 0.46660 0.07700
C 	C 	0.10140 0.49520 0.40644 0.10800
H 	H 	0.11860 0.46520 0.39140 -0.00400
C 	C 	0.10090 0.60660 0.40662 0.10300
H 	H 	0.11820 0.65390 0.39170 -0.00200
C 	C 	0.02720 0.51380 0.47490 0.06800
C 	C 	0.12504 0.56230 0.38365 -0.19700
C 	C 	0.18145 0.59060 0.33423 0.48800
O 	O 	0.45360 0.65425 0.31581 -0.61100
O 	O 	0.34574 0.54626 0.31585 -0.60900
C 	C 	0.41770 0.46880 0.45174 -0.15700
H 	H 	0.38750 0.42140 0.46640 0.07700
C 	C 	0.53060 0.58240 0.45180 -0.15900
H 	H 	0.57780 0.61300 0.46660 0.07700
C 	C 	0.50480 0.60620 0.40644 0.10800
H 	H 	0.53480 0.65340 0.39140 -0.00400
C 	C 	0.39340 0.49430 0.40662 0.10300
H 	H 	0.34610 0.46430 0.39170 -0.00200
C 	C 	0.48620 0.51340 0.47490 0.06800
C 	C 	0.43770 0.56274 0.38365 -0.19700
C 	C 	0.40940 0.59085 0.33423 0.48800
O 	O 	0.34575 0.79935 0.31581 -0.61100
O 	O 	0.45374 0.79948 0.31585 -0.60900
C 	C 	0.53120 0.94890 0.45174 -0.15700
H 	H 	0.57860 0.96610 0.46640 0.07700
C 	C 	0.41760 0.94820 0.45180 -0.15900
H 	H 	0.38700 0.96480 0.46660 0.07700
C 	C 	0.39380 0.89860 0.40644 0.10800
H 	H 	0.34660 0.88140 0.39140 -0.00400
C 	C 	0.50570 0.89910 0.40662 0.10300
H 	H 	0.53570 0.88180 0.39170 -0.00200
C 	C 	0.48660 0.97280 0.47490 0.06800
C 	C 	0.43726 0.87496 0.38365 -0.19700
C 	C 	0.40915 0.81855 0.33423 0.48800
O 	O 	0.45360 0.79935 0.18419 -0.61100
O 	O 	0.34574 0.79948 0.18415 -0.60900
C 	C 	0.41770 0.94890 0.04826 -0.15700
H 	H 	0.38750 0.96610 0.03360 0.07600
C 	C 	0.53060 0.94820 0.04820 -0.15900
H 	H 	0.57780 0.96480 0.03340 0.07700
C 	C 	0.50480 0.89860 0.09356 0.10800
H 	H 	0.53480 0.88140 0.10860 -0.00400
C 	C 	0.39340 0.89910 0.09338 0.10300
H 	H 	0.34610 0.88180 0.10830 -0.00200
C 	C 	0.48620 0.97280 0.02510 0.06800
C 	C 	0.43770 0.87496 0.11635 -0.19700
C 	C 	0.40940 0.81855 0.16577 0.48800
O 	O 	0.34575 0.54640 0.18419 -0.61100
O 	O 	0.45374 0.65426 0.18415 -0.60900
C 	C 	0.53120 0.58230 0.04826 -0.15700
H 	H 	0.57860 0.61250 0.03360 0.07600
C 	C 	0.41760 0.46940 0.04820 -0.15900
H 	H 	0.38700 0.42220 0.03340 0.07700
C 	C 	0.39380 0.49520 0.09356 0.10800
H 	H 	0.34660 0.46520 0.10860 -0.00400
C 	C 	0.50570 0.60660 0.09338 0.10300
H 	H 	0.53570 0.65390 0.10830 -0.00200
C 	C 	0.48660 0.51380 0.02510 0.06800
C 	C 	0.43726 0.56230 0.11635 -0.19700
C 	C 	0.40915 0.59060 0.16577 0.48800
O 	O 	0.20065 0.65425 0.18419 -0.61100
O 	O 	0.20052 0.54626 0.18415 -0.60900
C 	C 	0.05110 0.46880 0.04826 -0.15700
H 	H 	0.03390 0.42140 0.03360 0.07600
C 	C 	0.05180 0.58240 0.04820 -0.15900
H 	H 	0.03520 0.61300 0.03340 0.07700
C 	C 	0.10140 0.60620 0.09356 0.10800
H 	H 	0.11860 0.65340 0.10860 -0.00400
C 	C 	0.10090 0.49430 0.09338 0.10300
H 	H 	0.11820 0.46430 0.10830 -0.00200
C 	C 	0.02720 0.51340 0.02510 0.06800
C 	C 	0.12504 0.56274 0.11635 -0.19700
C 	C 	0.18145 0.59085 0.16577 0.48800
In	In	0.72308 0.27692 0.75000 1.98500
In	In	0.72308 0.44615 0.75000 1.98500
In	In	0.55385 0.27692 0.75000 1.98500
In	In	0.27692 0.72308 0.25000 1.98500
In	In	0.27692 0.55385 0.25000 1.98500
In	In	0.44615 0.72308 0.25000 1.98500
O 	O 	0.66667 0.33333 0.75000 -1.03900
O 	O 	0.33333 0.66667 0.25000 -1.03900
