data_crystal

_cell_length_a 15.93630
_cell_length_b 15.93630
_cell_length_c 21.33800
_cell_angle_alpha 90.00000
_cell_angle_beta  90.00000
_cell_angle_gamma 120.00000

_symmetry_space_group_name_	'P 1'
_symmetry_space_group_name_H-M	'P 1'

loop_
_symmetry_equiv_pos_as_xyz
  x,y,z

loop_
_atom_site_label
_atom_site_type_symbol
_atom_site_fract_x
_atom_site_fract_y
_atom_site_fract_z
_atom_site_charge
Co	Co	0.55335 0.84637 0.91185 1.16800
Co	Co	0.48288 0.96899 0.80607 1.17000
Co	Co	0.29302 0.44665 0.57852 1.16800
Co	Co	0.48611 0.51712 0.47274 1.17000
Co	Co	0.15363 0.70698 0.24518 1.16800
Co	Co	0.03101 0.51389 0.13940 1.17000
Co	Co	0.44665 0.15363 0.41185 1.16800
Co	Co	0.51712 0.03101 0.30607 1.17000
Co	Co	0.70698 0.55335 0.07852 1.16900
Co	Co	0.51389 0.48288 0.97274 1.16900
Co	Co	0.84637 0.29302 0.74518 1.16800
Co	Co	0.96899 0.48611 0.63940 1.17000
H 	H 	0.47240 0.80620 0.44500 0.04100
H 	H 	0.44620 0.98700 0.56380 0.05400
H 	H 	0.40000 0.73120 0.62440 0.05700
H 	H 	0.38480 0.93270 0.67100 0.06600
H 	H 	0.36870 0.83240 0.69400 0.07500
H 	H 	0.59390 0.89450 0.67650 0.15200
H 	H 	0.50210 0.81370 0.71090 0.13700
H 	H 	0.53630 0.06470 0.66120 0.13300
H 	H 	0.60840 0.02770 0.64490 0.15600
H 	H 	0.70590 0.05220 0.90910 -0.01100
H 	H 	0.87160 0.15430 0.91580 0.08200
H 	H 	0.89800 0.92140 0.95360 0.10800
H 	H 	0.73650 0.82820 0.94380 -0.00400
H 	H 	0.04450 0.08240 0.95250 0.06200
H 	H 	0.02450 0.23430 0.92020 0.05900
H 	H 	0.17050 0.39560 0.93130 0.09300
H 	H 	0.33160 0.49270 0.94590 -0.01000
H 	H 	0.36510 0.26720 0.94540 -0.00500
H 	H 	0.20630 0.16580 0.93330 0.09900
H 	H 	0.33380 0.52760 0.11167 0.04200
H 	H 	0.54080 0.55380 0.23047 0.05400
H 	H 	0.33120 0.60000 0.29107 0.05700
H 	H 	0.54790 0.61520 0.33767 0.06600
H 	H 	0.46370 0.63130 0.36067 0.07500
H 	H 	0.30060 0.40610 0.34317 0.15200
H 	H 	0.31160 0.49790 0.37757 0.13700
H 	H 	0.52840 0.46370 0.32787 0.13300
H 	H 	0.41930 0.39160 0.31157 0.15600
H 	H 	0.34630 0.29410 0.57577 -0.01100
H 	H 	0.28270 0.12840 0.58247 0.08400
H 	H 	0.02340 0.10200 0.62027 0.11100
H 	H 	0.09170 0.26350 0.61047 -0.00300
H 	H 	0.03790 0.95550 0.61917 0.06400
H 	H 	0.20980 0.97550 0.58687 0.05800
H 	H 	0.22510 0.82950 0.59797 0.09300
H 	H 	0.16110 0.66840 0.61257 -0.00900
H 	H 	0.90210 0.63490 0.61207 -0.00400
H 	H 	0.95950 0.79370 0.59997 0.09700
H 	H 	0.19380 0.66620 0.77833 0.03900
H 	H 	0.01300 0.45920 0.89713 0.05200
H 	H 	0.26880 0.66880 0.95773 0.05300
H 	H 	0.06730 0.45210 0.00433 0.06500
H 	H 	0.16760 0.53630 0.02733 0.07300
H 	H 	0.10550 0.69940 0.00983 0.15500
H 	H 	0.18630 0.68840 0.04423 0.13800
H 	H 	0.93530 0.47160 0.99453 0.11500
H 	H 	0.97230 0.58070 0.97823 0.13900
H 	H 	0.94780 0.65370 0.24243 -0.01100
H 	H 	0.84570 0.71730 0.24913 0.08400
H 	H 	0.07860 0.97660 0.28693 0.11100
H 	H 	0.17180 0.90830 0.27713 -0.00300
H 	H 	0.91760 0.96210 0.28583 0.06400
H 	H 	0.76570 0.79020 0.25353 0.05800
H 	H 	0.60440 0.77490 0.26463 0.09300
H 	H 	0.50730 0.83890 0.27923 -0.00900
H 	H 	0.73280 0.09790 0.27873 -0.00400
H 	H 	0.83420 0.04050 0.26663 0.09700
H 	H 	0.52760 0.19380 0.94500 0.04200
H 	H 	0.55380 0.01300 0.06380 0.05200
H 	H 	0.60000 0.26880 0.12440 0.05700
H 	H 	0.61520 0.06730 0.17100 0.06500
H 	H 	0.63130 0.16760 0.19400 0.07400
H 	H 	0.40610 0.10550 0.17650 0.15300
H 	H 	0.49790 0.18630 0.21090 0.13700
H 	H 	0.46370 0.93530 0.16120 0.13400
H 	H 	0.39160 0.97230 0.14490 0.15700
H 	H 	0.29410 0.94780 0.40910 -0.01100
H 	H 	0.12840 0.84570 0.41580 0.08400
H 	H 	0.10200 0.07860 0.45360 0.11000
H 	H 	0.26350 0.17180 0.44380 -0.00300
H 	H 	0.95550 0.91760 0.45250 0.06400
H 	H 	0.97550 0.76570 0.42020 0.05800
H 	H 	0.82950 0.60440 0.43130 0.09400
H 	H 	0.66840 0.50730 0.44590 -0.00900
H 	H 	0.63490 0.73280 0.44540 -0.00500
H 	H 	0.79370 0.83420 0.43330 0.09900
H 	H 	0.66620 0.47240 0.61167 0.04000
H 	H 	0.45920 0.44620 0.73047 0.05400
H 	H 	0.66880 0.40000 0.79107 0.05600
H 	H 	0.45210 0.38480 0.83767 0.06600
H 	H 	0.53630 0.36870 0.86067 0.07400
H 	H 	0.69940 0.59390 0.84317 0.15200
H 	H 	0.68840 0.50210 0.87757 0.13600
H 	H 	0.47160 0.53630 0.82787 0.13300
H 	H 	0.58070 0.60840 0.81157 0.15600
H 	H 	0.65370 0.70590 0.07577 -0.01000
H 	H 	0.71730 0.87160 0.08247 0.08600
H 	H 	0.97660 0.89800 0.12027 0.11200
H 	H 	0.90830 0.73650 0.11047 -0.00300
H 	H 	0.96210 0.04450 0.11917 0.06500
H 	H 	0.79020 0.02450 0.08687 0.05800
H 	H 	0.77490 0.17050 0.09797 0.09400
H 	H 	0.83890 0.33160 0.11257 -0.00900
H 	H 	0.09790 0.36510 0.11207 -0.00300
H 	H 	0.04050 0.20630 0.09997 0.09700
H 	H 	0.80620 0.33380 0.27833 0.04000
H 	H 	0.98700 0.54080 0.39713 0.05400
H 	H 	0.73120 0.33120 0.45773 0.05700
H 	H 	0.93270 0.54790 0.50433 0.06600
H 	H 	0.83240 0.46370 0.52733 0.07500
H 	H 	0.89450 0.30060 0.50983 0.15200
H 	H 	0.81370 0.31160 0.54423 0.13700
H 	H 	0.06470 0.52840 0.49453 0.13300
H 	H 	0.02770 0.41930 0.47823 0.15600
H 	H 	0.05220 0.34630 0.74243 -0.01100
H 	H 	0.15430 0.28270 0.74913 0.08500
H 	H 	0.92140 0.02340 0.78693 0.11100
H 	H 	0.82820 0.09170 0.77713 -0.00300
H 	H 	0.08240 0.03790 0.78583 0.06500
H 	H 	0.23430 0.20980 0.75353 0.05800
H 	H 	0.39560 0.22510 0.76463 0.09300
H 	H 	0.49270 0.16110 0.77923 -0.00900
H 	H 	0.26720 0.90210 0.77873 -0.00400
H 	H 	0.16580 0.95950 0.76663 0.09700
C 	C 	0.43160 0.75230 0.53220 -0.08200
C 	C 	0.45710 0.81950 0.48450 0.02100
C 	C 	0.46000 0.90680 0.49540 -0.08600
C 	C 	0.44350 0.92820 0.55630 -0.05800
C 	C 	0.42360 0.86510 0.60490 0.05700
C 	C 	0.41590 0.77590 0.59210 -0.05500
C 	C 	0.41330 0.89130 0.67190 -0.16100
C 	C 	0.55200 0.88150 0.71250 -0.34700
C 	C 	0.61170 0.89920 0.77230 0.40100
C 	C 	0.57310 0.03690 0.67880 -0.35400
C 	C 	0.64500 0.10670 0.72720 0.42300
C 	C 	0.42050 0.65280 0.52440 0.37600
C 	C 	0.47860 0.97980 0.44410 0.38900
C 	C 	0.74530 0.02600 0.91770 0.09800
C 	C 	0.84480 0.08800 0.92220 -0.17000
C 	C 	0.90440 0.04880 0.93670 0.12600
C 	C 	0.86080 0.94980 0.94440 -0.18900
C 	C 	0.76410 0.89470 0.93850 0.11100
C 	C 	0.00950 0.11230 0.94110 -0.08700
C 	C 	0.05950 0.20420 0.93130 -0.09000
C 	C 	0.16510 0.26750 0.93540 0.12900
C 	C 	0.20900 0.36740 0.93620 -0.18800
C 	C 	0.30600 0.42610 0.94380 0.10600
C 	C 	0.32440 0.29330 0.94380 0.10900
C 	C 	0.22950 0.23200 0.93700 -0.18800
C 	C 	0.32070 0.56840 0.19887 -0.08100
C 	C 	0.36240 0.54290 0.15117 0.02100
C 	C 	0.44680 0.54000 0.16207 -0.08400
C 	C 	0.48470 0.55650 0.22297 -0.05800
C 	C 	0.44150 0.57640 0.27157 0.05700
C 	C 	0.36000 0.58410 0.25877 -0.05600
C 	C 	0.47800 0.58670 0.33857 -0.16100
C 	C 	0.32950 0.44800 0.37917 -0.34700
C 	C 	0.28750 0.38830 0.43897 0.40100
C 	C 	0.46380 0.42690 0.34547 -0.35500
C 	C 	0.46170 0.35500 0.39387 0.42300
C 	C 	0.23230 0.57950 0.19107 0.37600
C 	C 	0.50120 0.52140 0.11077 0.38900
C 	C 	0.28070 0.25470 0.58437 0.09900
C 	C 	0.24320 0.15520 0.58887 -0.17100
C 	C 	0.14440 0.09560 0.60337 0.13000
C 	C 	0.08900 0.13920 0.61107 -0.19000
C 	C 	0.13060 0.23590 0.60517 0.11300
C 	C 	0.10280 0.99050 0.60777 -0.09200
C 	C 	0.14470 0.94050 0.59797 -0.08500
C 	C 	0.10240 0.83490 0.60207 0.12600
C 	C 	0.15840 0.79100 0.60287 -0.18500
C 	C 	0.12010 0.69400 0.61047 0.10500
C 	C 	0.96890 0.67560 0.61047 0.10500
C 	C 	0.00250 0.77050 0.60367 -0.18200
C 	C 	0.24770 0.67930 0.86553 -0.08600
C 	C 	0.18050 0.63760 0.81783 0.02500
C 	C 	0.09320 0.55320 0.82873 -0.08900
C 	C 	0.07180 0.51530 0.88963 -0.05100
C 	C 	0.13490 0.55850 0.93823 0.04600
C 	C 	0.22410 0.64000 0.92543 -0.05000
C 	C 	0.10870 0.52200 0.00523 -0.14900
C 	C 	0.11850 0.67050 0.04583 -0.34700
C 	C 	0.10080 0.71250 0.10563 0.40100
C 	C 	0.96310 0.53620 0.01213 -0.31500
C 	C 	0.89330 0.53830 0.06053 0.41300
C 	C 	0.34720 0.76770 0.85773 0.37700
C 	C 	0.02020 0.49880 0.77743 0.39200
C 	C 	0.97400 0.71930 0.25103 0.10000
C 	C 	0.91200 0.75680 0.25553 -0.17200
C 	C 	0.95120 0.85560 0.27003 0.13000
C 	C 	0.05020 0.91100 0.27773 -0.19000
C 	C 	0.10530 0.86940 0.27183 0.11300
C 	C 	0.88770 0.89720 0.27443 -0.09200
C 	C 	0.79580 0.85530 0.26463 -0.08600
C 	C 	0.73250 0.89760 0.26873 0.12600
C 	C 	0.63260 0.84160 0.26953 -0.18500
C 	C 	0.57390 0.87990 0.27713 0.10600
C 	C 	0.70670 0.03110 0.27713 0.10600
C 	C 	0.76800 0.99750 0.27033 -0.18300
C 	C 	0.56840 0.24770 0.03220 -0.07600
C 	C 	0.54290 0.18050 0.98450 0.01500
C 	C 	0.54000 0.09320 0.99540 -0.09300
C 	C 	0.55650 0.07180 0.05630 -0.04800
C 	C 	0.57640 0.13490 0.10490 0.05400
C 	C 	0.58410 0.22410 0.09210 -0.05500
C 	C 	0.58670 0.10870 0.17190 -0.15900
C 	C 	0.44800 0.11850 0.21250 -0.34700
C 	C 	0.38830 0.10080 0.27230 0.40100
C 	C 	0.42690 0.96310 0.17880 -0.35500
C 	C 	0.35500 0.89330 0.22720 0.42400
C 	C 	0.57950 0.34720 0.02440 0.38300
C 	C 	0.52140 0.02020 0.94410 0.39200
C 	C 	0.25470 0.97400 0.41770 0.09900
C 	C 	0.15520 0.91200 0.42220 -0.17100
C 	C 	0.09560 0.95120 0.43670 0.13000
C 	C 	0.13920 0.05020 0.44440 -0.19000
C 	C 	0.23590 0.10530 0.43850 0.11300
C 	C 	0.99050 0.88770 0.44110 -0.09100
C 	C 	0.94050 0.79580 0.43130 -0.08700
C 	C 	0.83490 0.73250 0.43540 0.12800
C 	C 	0.79100 0.63260 0.43620 -0.18600
C 	C 	0.69400 0.57390 0.44380 0.10700
C 	C 	0.67560 0.70670 0.44380 0.10900
C 	C 	0.77050 0.76800 0.43700 -0.18700
C 	C 	0.67930 0.43160 0.69887 -0.08200
C 	C 	0.63760 0.45710 0.65117 0.02100
C 	C 	0.55320 0.46000 0.66207 -0.08600
C 	C 	0.51530 0.44350 0.72297 -0.05700
C 	C 	0.55850 0.42360 0.77157 0.05700
C 	C 	0.64000 0.41590 0.75877 -0.05500
C 	C 	0.52200 0.41330 0.83857 -0.16100
C 	C 	0.67050 0.55200 0.87917 -0.34700
C 	C 	0.71250 0.61170 0.93897 0.40100
C 	C 	0.53620 0.57310 0.84547 -0.35500
C 	C 	0.53830 0.64500 0.89387 0.42400
C 	C 	0.76770 0.42050 0.69107 0.37600
C 	C 	0.49880 0.47860 0.61077 0.38900
C 	C 	0.71930 0.74530 0.08437 0.10100
C 	C 	0.75680 0.84480 0.08887 -0.17100
C 	C 	0.85560 0.90440 0.10337 0.13300
C 	C 	0.91100 0.86080 0.11107 -0.19100
C 	C 	0.86940 0.76410 0.10517 0.11500
C 	C 	0.89720 0.00950 0.10777 -0.09300
C 	C 	0.85530 0.05950 0.09797 -0.08400
C 	C 	0.89760 0.16510 0.10207 0.12600
C 	C 	0.84160 0.20900 0.10287 -0.18400
C 	C 	0.87990 0.30600 0.11047 0.10600
C 	C 	0.03110 0.32440 0.11047 0.10600
C 	C 	0.99750 0.22950 0.10367 -0.18100
C 	C 	0.75230 0.32070 0.36553 -0.08200
C 	C 	0.81950 0.36240 0.31783 0.02100
C 	C 	0.90680 0.44680 0.32873 -0.08600
C 	C 	0.92820 0.48470 0.38963 -0.05700
C 	C 	0.86510 0.44150 0.43823 0.05700
C 	C 	0.77590 0.36000 0.42543 -0.05500
C 	C 	0.89130 0.47800 0.50523 -0.16100
C 	C 	0.88150 0.32950 0.54583 -0.34700
C 	C 	0.89920 0.28750 0.60563 0.40100
C 	C 	0.03690 0.46380 0.51213 -0.35400
C 	C 	0.10670 0.46170 0.56053 0.42300
C 	C 	0.65280 0.23230 0.35773 0.37600
C 	C 	0.97980 0.50120 0.27743 0.39000
C 	C 	0.02600 0.28070 0.75103 0.10100
C 	C 	0.08800 0.24320 0.75553 -0.17300
C 	C 	0.04880 0.14440 0.77003 0.13200
C 	C 	0.94980 0.08900 0.77773 -0.19200
C 	C 	0.89470 0.13060 0.77183 0.11400
C 	C 	0.11230 0.10280 0.77443 -0.09300
C 	C 	0.20420 0.14470 0.76463 -0.08500
C 	C 	0.26750 0.10240 0.76873 0.12600
C 	C 	0.36740 0.15840 0.76953 -0.18500
C 	C 	0.42610 0.12010 0.77713 0.10600
C 	C 	0.29330 0.96890 0.77713 0.10600
C 	C 	0.23200 0.00250 0.77033 -0.18300
N 	N 	0.50560 0.94150 0.70770 -0.09300
N 	N 	0.70390 0.93000 0.92530 -0.24300
N 	N 	0.36490 0.38960 0.94850 -0.24100
N 	N 	0.43590 0.49440 0.37437 -0.09300
N 	N 	0.22610 0.29610 0.59197 -0.24300
N 	N 	0.02470 0.63510 0.61517 -0.23900
N 	N 	0.05850 0.56410 0.04103 -0.09800
N 	N 	0.07000 0.77390 0.25863 -0.24300
N 	N 	0.61040 0.97530 0.28183 -0.24000
N 	N 	0.49440 0.05850 0.20770 -0.09300
N 	N 	0.29610 0.07000 0.42530 -0.24300
N 	N 	0.63510 0.61040 0.44850 -0.24000
N 	N 	0.56410 0.50560 0.87437 -0.09200
N 	N 	0.77390 0.70390 0.09197 -0.24200
N 	N 	0.97530 0.36490 0.11517 -0.23900
N 	N 	0.94150 0.43590 0.54103 -0.09300
N 	N 	0.93000 0.22610 0.75863 -0.24400
N 	N 	0.38960 0.02470 0.78183 -0.24000
O 	O 	0.57400 0.91260 0.82284 -0.52500
O 	O 	0.68580 0.89480 0.77060 -0.28800
O 	O 	0.61660 0.10190 0.78260 -0.42400
O 	O 	0.72640 0.16630 0.70700 -0.42200
O 	O 	0.36090 0.58980 0.56110 -0.44700
O 	O 	0.46970 0.63990 0.48320 -0.42700
O 	O 	0.51130 0.96990 0.39320 -0.42700
O 	O 	0.45960 0.04470 0.45670 -0.45200
O 	O 	0.33860 0.42600 0.48951 -0.52500
O 	O 	0.20900 0.31420 0.43727 -0.28800
O 	O 	0.48530 0.38340 0.44927 -0.42400
O 	O 	0.43990 0.27360 0.37367 -0.42200
O 	O 	0.22890 0.63910 0.22777 -0.44600
O 	O 	0.17020 0.53030 0.14987 -0.42700
O 	O 	0.45860 0.48870 0.05987 -0.42300
O 	O 	0.58510 0.54040 0.12337 -0.45100
O 	O 	0.08740 0.66140 0.15617 -0.52600
O 	O 	0.10520 0.79100 0.10393 -0.28700
O 	O 	0.89810 0.51470 0.11593 -0.42100
O 	O 	0.83370 0.56010 0.04033 -0.41500
O 	O 	0.41020 0.77110 0.89443 -0.44800
O 	O 	0.36010 0.82980 0.81653 -0.42700
O 	O 	0.03010 0.54140 0.72653 -0.42700
O 	O 	0.95530 0.41490 0.79003 -0.45400
O 	O 	0.42600 0.08740 0.32284 -0.52500
O 	O 	0.31420 0.10520 0.27060 -0.28800
O 	O 	0.38340 0.89810 0.28260 -0.42400
O 	O 	0.27360 0.83370 0.20700 -0.42100
O 	O 	0.63910 0.41020 0.06110 -0.44700
O 	O 	0.53030 0.36010 0.98320 -0.43400
O 	O 	0.48870 0.03010 0.89320 -0.42700
O 	O 	0.54040 0.95530 0.95670 -0.45500
O 	O 	0.66140 0.57400 0.98951 -0.53000
O 	O 	0.79100 0.68580 0.93727 -0.29100
O 	O 	0.51470 0.61660 0.94927 -0.42600
O 	O 	0.56010 0.72640 0.87367 -0.42200
O 	O 	0.77110 0.36090 0.72777 -0.44700
O 	O 	0.82980 0.46970 0.64987 -0.42700
O 	O 	0.54140 0.51130 0.55987 -0.42700
O 	O 	0.41490 0.45960 0.62337 -0.45200
O 	O 	0.91260 0.33860 0.65617 -0.52600
O 	O 	0.89480 0.20900 0.60393 -0.28800
O 	O 	0.10190 0.48530 0.61593 -0.42400
O 	O 	0.16630 0.43990 0.54033 -0.42200
O 	O 	0.58980 0.22890 0.39443 -0.44700
O 	O 	0.63990 0.17020 0.31653 -0.42700
O 	O 	0.96990 0.45860 0.22653 -0.42700
O 	O 	0.04470 0.58510 0.29003 -0.45200
