data_crystal

_cell_length_a 15.88310
_cell_length_b 15.88310
_cell_length_c 21.37910
_cell_angle_alpha 90.00000
_cell_angle_beta  90.00000
_cell_angle_gamma 120.00000

_symmetry_space_group_name_	'P 1'
_symmetry_space_group_name_H-M	'P 1'

loop_
_symmetry_equiv_pos_as_xyz
  x,y,z

loop_
_atom_site_label
_atom_site_type_symbol
_atom_site_fract_x
_atom_site_fract_y
_atom_site_fract_z
_atom_site_charge
Co	Co	0.70475 0.55636 0.96303 1.17000
Co	Co	0.51764 0.48969 0.85842 1.17300
Co	Co	0.85161 0.29525 0.62970 1.17100
Co	Co	0.97205 0.48236 0.52508 1.17300
Co	Co	0.44364 0.14839 0.29637 1.17100
Co	Co	0.51031 0.02795 0.19175 1.17300
Co	Co	0.29525 0.44364 0.46303 1.17100
Co	Co	0.48236 0.51031 0.35842 1.17300
Co	Co	0.14839 0.70475 0.12970 1.17100
Co	Co	0.02795 0.51764 0.02508 1.17500
Co	Co	0.55636 0.85161 0.79637 1.17000
Co	Co	0.48969 0.97205 0.69175 1.17200
H 	H 	0.66620 0.46990 0.49670 0.04400
H 	H 	0.46230 0.45030 0.61660 0.05600
H 	H 	0.67320 0.40480 0.67740 0.06100
H 	H 	0.45820 0.39400 0.72340 0.06700
H 	H 	0.54090 0.37540 0.74680 0.07800
H 	H 	0.70990 0.59830 0.73220 0.15500
H 	H 	0.69430 0.50680 0.76970 0.14000
H 	H 	0.48550 0.54750 0.71020 0.13700
H 	H 	0.59650 0.62090 0.70000 0.15800
H 	H 	0.65520 0.71060 0.96720 -0.01900
H 	H 	0.71880 0.87430 0.97500 0.08900
H 	H 	0.98090 0.90180 0.99840 0.10900
H 	H 	0.90950 0.73590 0.99020 -0.00200
H 	H 	0.96860 0.04970 0.00290 0.07400
H 	H 	0.79230 0.02740 0.97410 0.05700
H 	H 	0.77540 0.17030 0.97690 0.09500
H 	H 	0.84040 0.33440 0.98890 -0.00800
H 	H 	0.09750 0.37070 0.00900 -0.00500
H 	H 	0.04080 0.20870 0.99820 0.09900
H 	H 	0.80370 0.33380 0.16337 0.04500
H 	H 	0.98800 0.53770 0.28327 0.05600
H 	H 	0.73160 0.32680 0.34407 0.06100
H 	H 	0.93580 0.54180 0.39007 0.06700
H 	H 	0.83450 0.45910 0.41347 0.07800
H 	H 	0.88840 0.29010 0.39887 0.15500
H 	H 	0.81250 0.30570 0.43637 0.14000
H 	H 	0.06200 0.51450 0.37687 0.13700
H 	H 	0.02440 0.40350 0.36667 0.15800
H 	H 	0.05540 0.34480 0.63387 -0.01700
H 	H 	0.15550 0.28120 0.64167 0.08900
H 	H 	0.92090 0.01910 0.66507 0.11000
H 	H 	0.82640 0.09050 0.65687 -0.00100
H 	H 	0.08110 0.03140 0.66957 0.06300
H 	H 	0.23510 0.20770 0.64077 0.06000
H 	H 	0.39490 0.22460 0.64357 0.09600
H 	H 	0.49400 0.15960 0.65557 -0.00900
H 	H 	0.27320 0.90250 0.67567 -0.00200
H 	H 	0.16790 0.95920 0.66487 0.09600
H 	H 	0.53010 0.19630 0.83003 0.04500
H 	H 	0.54970 0.01200 0.94993 0.05500
H 	H 	0.59520 0.26840 0.01073 0.07200
H 	H 	0.60600 0.06420 0.05673 0.06800
H 	H 	0.62460 0.16550 0.08013 0.07800
H 	H 	0.40170 0.11160 0.06553 0.15700
H 	H 	0.49320 0.18750 0.10303 0.14100
H 	H 	0.45250 0.93800 0.04353 0.13900
H 	H 	0.37910 0.97560 0.03333 0.16100
H 	H 	0.28940 0.94460 0.30053 -0.01700
H 	H 	0.12570 0.84450 0.30833 0.08900
H 	H 	0.09820 0.07910 0.33173 0.11000
H 	H 	0.26410 0.17360 0.32353 -0.00100
H 	H 	0.95030 0.91890 0.33623 0.06200
H 	H 	0.97260 0.76490 0.30743 0.06000
H 	H 	0.82970 0.60510 0.31023 0.09700
H 	H 	0.66560 0.50600 0.32223 -0.00900
H 	H 	0.62930 0.72680 0.34233 -0.00300
H 	H 	0.79130 0.83210 0.33153 0.09900
H 	H 	0.33380 0.53010 0.99670 0.03300
H 	H 	0.53770 0.54970 0.11660 0.05800
H 	H 	0.32680 0.59520 0.17740 0.06100
H 	H 	0.54180 0.60600 0.22340 0.06800
H 	H 	0.45910 0.62460 0.24680 0.07800
H 	H 	0.29010 0.40170 0.23220 0.15500
H 	H 	0.30570 0.49320 0.26970 0.14000
H 	H 	0.51450 0.45250 0.21020 0.13700
H 	H 	0.40350 0.37910 0.20000 0.15900
H 	H 	0.34480 0.28940 0.46720 -0.01700
H 	H 	0.28120 0.12570 0.47500 0.08900
H 	H 	0.01910 0.09820 0.49840 0.11000
H 	H 	0.09050 0.26410 0.49020 -0.00100
H 	H 	0.03140 0.95030 0.50290 0.06200
H 	H 	0.20770 0.97260 0.47410 0.06000
H 	H 	0.22460 0.82970 0.47690 0.09700
H 	H 	0.15960 0.66560 0.48890 -0.00900
H 	H 	0.90250 0.62930 0.50900 -0.00300
H 	H 	0.95920 0.79130 0.49820 0.09900
H 	H 	0.19630 0.66620 0.66337 0.04400
H 	H 	0.01200 0.46230 0.78327 0.05600
H 	H 	0.26840 0.67320 0.84407 0.06000
H 	H 	0.06420 0.45820 0.89007 0.06600
H 	H 	0.16550 0.54090 0.91347 0.07600
H 	H 	0.11160 0.70990 0.89887 0.15300
H 	H 	0.18750 0.69430 0.93637 0.13700
H 	H 	0.93800 0.48550 0.87687 0.13700
H 	H 	0.97560 0.59650 0.86667 0.15800
H 	H 	0.94460 0.65520 0.13387 -0.01600
H 	H 	0.84450 0.71880 0.14167 0.09000
H 	H 	0.07910 0.98090 0.16507 0.11100
H 	H 	0.17360 0.90950 0.15687 -0.00100
H 	H 	0.91890 0.96860 0.16957 0.06300
H 	H 	0.76490 0.79230 0.14077 0.06000
H 	H 	0.60510 0.77540 0.14357 0.09700
H 	H 	0.50600 0.84040 0.15557 -0.00900
H 	H 	0.72680 0.09750 0.17567 -0.00100
H 	H 	0.83210 0.04080 0.16487 0.09700
H 	H 	0.46990 0.80370 0.33003 0.04400
H 	H 	0.45030 0.98800 0.44993 0.05600
H 	H 	0.40480 0.73160 0.51073 0.06100
H 	H 	0.39400 0.93580 0.55673 0.06700
H 	H 	0.37540 0.83450 0.58013 0.07800
H 	H 	0.59830 0.88840 0.56553 0.15500
H 	H 	0.50680 0.81250 0.60303 0.14000
H 	H 	0.54750 0.06200 0.54353 0.13700
H 	H 	0.62090 0.02440 0.53333 0.15800
H 	H 	0.71060 0.05540 0.80053 -0.01700
H 	H 	0.87430 0.15550 0.80833 0.09000
H 	H 	0.90180 0.92090 0.83173 0.11100
H 	H 	0.73590 0.82640 0.82353 -0.00200
H 	H 	0.04970 0.08110 0.83623 0.06300
H 	H 	0.02740 0.23510 0.80743 0.06000
H 	H 	0.17030 0.39490 0.81023 0.09700
H 	H 	0.33440 0.49400 0.82223 -0.00900
H 	H 	0.37070 0.27320 0.84233 -0.00300
H 	H 	0.20870 0.16790 0.83153 0.09800
C 	C 	0.68460 0.43580 0.58528 -0.07900
C 	C 	0.63980 0.45780 0.53669 0.01400
C 	C 	0.55500 0.46150 0.54848 -0.07900
C 	C 	0.51860 0.44780 0.60901 -0.06200
C 	C 	0.56480 0.43050 0.65835 0.06200
C 	C 	0.64480 0.42130 0.64515 -0.06100
C 	C 	0.52820 0.42120 0.72464 -0.16600
C 	C 	0.67780 0.55790 0.76836 -0.36000
C 	C 	0.71640 0.61950 0.82730 0.42000
C 	C 	0.54770 0.58320 0.73126 -0.36100
C 	C 	0.54290 0.65190 0.77884 0.42900
C 	C 	0.77060 0.42070 0.57729 0.37800
C 	C 	0.49890 0.47620 0.49640 0.38300
C 	C 	0.72160 0.74970 0.97405 0.11100
C 	C 	0.75940 0.84800 0.97840 -0.18600
C 	C 	0.85880 0.90860 0.98787 0.13800
C 	C 	0.91410 0.86430 0.99230 -0.19100
C 	C 	0.87070 0.76430 0.98750 0.11700
C 	C 	0.90280 0.01430 0.99290 -0.10600
C 	C 	0.85790 0.06340 0.98450 -0.08500
C 	C 	0.89890 0.16820 0.98950 0.13400
C 	C 	0.84160 0.20930 0.98480 -0.19100
C 	C 	0.88150 0.30860 0.99160 0.10100
C 	C 	0.03110 0.32970 0.00340 0.11800
C 	C 	0.99760 0.23210 0.99720 -0.19800
C 	C 	0.75120 0.31540 0.25195 -0.07800
C 	C 	0.81800 0.36020 0.20336 0.01400
C 	C 	0.90650 0.44500 0.21515 -0.07800
C 	C 	0.92920 0.48140 0.27568 -0.06200
C 	C 	0.86570 0.43520 0.32502 0.06300
C 	C 	0.77650 0.35520 0.31182 -0.06100
C 	C 	0.89300 0.47180 0.39131 -0.16700
C 	C 	0.88010 0.32220 0.43503 -0.36000
C 	C 	0.90310 0.28360 0.49397 0.41900
C 	C 	0.03550 0.45230 0.39793 -0.36100
C 	C 	0.10900 0.45710 0.44551 0.42900
C 	C 	0.65010 0.22940 0.24396 0.37800
C 	C 	0.97730 0.50110 0.16307 0.38300
C 	C 	0.02810 0.27840 0.64072 0.11000
C 	C 	0.08860 0.24060 0.64507 -0.18300
C 	C 	0.04980 0.14120 0.65454 0.13500
C 	C 	0.95020 0.08590 0.65897 -0.18600
C 	C 	0.89360 0.12930 0.65417 0.11700
C 	C 	0.11150 0.09720 0.65957 -0.09100
C 	C 	0.20550 0.14210 0.65117 -0.09100
C 	C 	0.26930 0.10110 0.65617 0.13400
C 	C 	0.36770 0.15840 0.65147 -0.19200
C 	C 	0.42710 0.11850 0.65827 0.11000
C 	C 	0.29860 0.96890 0.67007 0.10100
C 	C 	0.23450 0.00240 0.66387 -0.18200
C 	C 	0.56420 0.24880 0.91861 -0.07400
C 	C 	0.54220 0.18200 0.87002 0.01200
C 	C 	0.53850 0.09350 0.88181 -0.07900
C 	C 	0.55220 0.07080 0.94234 -0.06200
C 	C 	0.56950 0.13430 0.99168 0.06000
C 	C 	0.57870 0.22350 0.97848 -0.07600
C 	C 	0.57880 0.10700 0.05797 -0.16100
C 	C 	0.44210 0.11990 0.10169 -0.36100
C 	C 	0.38050 0.09690 0.16063 0.42000
C 	C 	0.41680 0.96450 0.06459 -0.36100
C 	C 	0.34810 0.89100 0.11217 0.43000
C 	C 	0.57930 0.34990 0.91062 0.37600
C 	C 	0.52380 0.02270 0.82973 0.38400
C 	C 	0.25030 0.97190 0.30738 0.11100
C 	C 	0.15200 0.91140 0.31173 -0.18300
C 	C 	0.09140 0.95020 0.32120 0.13500
C 	C 	0.13570 0.04980 0.32563 -0.18700
C 	C 	0.23570 0.10640 0.32083 0.11700
C 	C 	0.98570 0.88850 0.32623 -0.09000
C 	C 	0.93660 0.79450 0.31783 -0.09300
C 	C 	0.83180 0.73070 0.32283 0.13700
C 	C 	0.79070 0.63230 0.31813 -0.19400
C 	C 	0.69140 0.57290 0.32493 0.11100
C 	C 	0.67030 0.70140 0.33673 0.10600
C 	C 	0.76790 0.76550 0.33053 -0.18700
C 	C 	0.31540 0.56420 0.08528 -0.08300
C 	C 	0.36020 0.54220 0.03669 0.02900
C 	C 	0.44500 0.53850 0.04848 -0.07200
C 	C 	0.48140 0.55220 0.10901 -0.06400
C 	C 	0.43520 0.56950 0.15835 0.06300
C 	C 	0.35520 0.57870 0.14515 -0.05900
C 	C 	0.47180 0.57880 0.22464 -0.16700
C 	C 	0.32220 0.44210 0.26836 -0.36000
C 	C 	0.28360 0.38050 0.32730 0.42000
C 	C 	0.45230 0.41680 0.23126 -0.36100
C 	C 	0.45710 0.34810 0.27884 0.42900
C 	C 	0.22940 0.57930 0.07729 0.38100
C 	C 	0.50110 0.52380 0.99640 0.36500
C 	C 	0.27840 0.25030 0.47405 0.11100
C 	C 	0.24060 0.15200 0.47840 -0.18300
C 	C 	0.14120 0.09140 0.48787 0.13500
C 	C 	0.08590 0.13570 0.49230 -0.18600
C 	C 	0.12930 0.23570 0.48750 0.11700
C 	C 	0.09720 0.98570 0.49290 -0.09000
C 	C 	0.14210 0.93660 0.48450 -0.09300
C 	C 	0.10110 0.83180 0.48950 0.13800
C 	C 	0.15840 0.79070 0.48480 -0.19500
C 	C 	0.11850 0.69140 0.49160 0.11100
C 	C 	0.96890 0.67030 0.50340 0.10700
C 	C 	0.00240 0.76790 0.49720 -0.18800
C 	C 	0.24880 0.68460 0.75195 -0.07900
C 	C 	0.18200 0.63980 0.70336 0.01500
C 	C 	0.09350 0.55500 0.71515 -0.07900
C 	C 	0.07080 0.51860 0.77568 -0.06100
C 	C 	0.13430 0.56480 0.82502 0.06100
C 	C 	0.22350 0.64480 0.81182 -0.06000
C 	C 	0.10700 0.52820 0.89131 -0.16500
C 	C 	0.11990 0.67780 0.93503 -0.35600
C 	C 	0.09690 0.71640 0.99397 0.40800
C 	C 	0.96450 0.54770 0.89793 -0.36100
C 	C 	0.89100 0.54290 0.94551 0.43000
C 	C 	0.34990 0.77060 0.74396 0.37800
C 	C 	0.02270 0.49890 0.66307 0.38300
C 	C 	0.97190 0.72160 0.14072 0.11200
C 	C 	0.91140 0.75940 0.14507 -0.18300
C 	C 	0.95020 0.85880 0.15454 0.13700
C 	C 	0.04980 0.91410 0.15897 -0.18700
C 	C 	0.10640 0.87070 0.15417 0.11900
C 	C 	0.88850 0.90280 0.15957 -0.09100
C 	C 	0.79450 0.85790 0.15117 -0.09000
C 	C 	0.73070 0.89890 0.15617 0.13500
C 	C 	0.63230 0.84160 0.15147 -0.19200
C 	C 	0.57290 0.88150 0.15827 0.11100
C 	C 	0.70140 0.03110 0.17007 0.10200
C 	C 	0.76550 0.99760 0.16387 -0.18100
C 	C 	0.43580 0.75120 0.41861 -0.07900
C 	C 	0.45780 0.81800 0.37002 0.01400
C 	C 	0.46150 0.90650 0.38181 -0.07900
C 	C 	0.44780 0.92920 0.44234 -0.06200
C 	C 	0.43050 0.86570 0.49168 0.06200
C 	C 	0.42130 0.77650 0.47848 -0.06100
C 	C 	0.42120 0.89300 0.55797 -0.16600
C 	C 	0.55790 0.88010 0.60169 -0.36000
C 	C 	0.61950 0.90310 0.66063 0.41900
C 	C 	0.58320 0.03550 0.56459 -0.36000
C 	C 	0.65190 0.10900 0.61217 0.42900
C 	C 	0.42070 0.65010 0.41062 0.37800
C 	C 	0.47620 0.97730 0.32973 0.38300
C 	C 	0.74970 0.02810 0.80738 0.11400
C 	C 	0.84800 0.08860 0.81173 -0.18500
C 	C 	0.90860 0.04980 0.82120 0.13900
C 	C 	0.86430 0.95020 0.82563 -0.19000
C 	C 	0.76430 0.89360 0.82083 0.11900
C 	C 	0.01430 0.11150 0.82623 -0.09300
C 	C 	0.06340 0.20550 0.81783 -0.09100
C 	C 	0.16820 0.26930 0.82283 0.13600
C 	C 	0.20930 0.36770 0.81813 -0.19400
C 	C 	0.30860 0.42710 0.82493 0.11000
C 	C 	0.32970 0.29860 0.83673 0.10500
C 	C 	0.23210 0.23450 0.83053 -0.18700
N 	N 	0.57182 0.51353 0.76066 -0.08600
N 	N 	0.77570 0.70735 0.97925 -0.24800
N 	N 	0.97480 0.36892 0.00171 -0.23900
N 	N 	0.94171 0.42818 0.42733 -0.08600
N 	N 	0.93165 0.22430 0.64592 -0.24600
N 	N 	0.39412 0.02520 0.66838 -0.24200
N 	N 	0.48647 0.05829 0.09399 -0.08700
N 	N 	0.29265 0.06835 0.31258 -0.24600
N 	N 	0.63108 0.60588 0.33504 -0.24300
N 	N 	0.42818 0.48647 0.26066 -0.08600
N 	N 	0.22430 0.29265 0.47925 -0.24600
N 	N 	0.02520 0.63108 0.50171 -0.24400
N 	N 	0.05829 0.57182 0.92733 -0.08900
N 	N 	0.06835 0.77570 0.14592 -0.24600
N 	N 	0.60588 0.97480 0.16838 -0.24200
N 	N 	0.51353 0.94171 0.59399 -0.08700
N 	N 	0.70735 0.93165 0.81258 -0.24800
N 	N 	0.36892 0.39412 0.83504 -0.24300
O 	O 	0.66219 0.57972 0.87611 -0.54900
O 	O 	0.79169 0.69659 0.82642 -0.29900
O 	O 	0.51433 0.61956 0.83309 -0.42500
O 	O 	0.56413 0.73363 0.75906 -0.43100
O 	O 	0.77533 0.36502 0.61632 -0.44500
O 	O 	0.83027 0.46500 0.53422 -0.42800
O 	O 	0.53757 0.50066 0.44385 -0.42900
O 	O 	0.41571 0.45985 0.51082 -0.44900
O 	O 	0.91753 0.33781 0.54278 -0.54800
O 	O 	0.90490 0.20831 0.49309 -0.29800
O 	O 	0.10523 0.48567 0.49976 -0.42500
O 	O 	0.16950 0.43587 0.42573 -0.43100
O 	O 	0.58969 0.22467 0.28299 -0.44500
O 	O 	0.63473 0.16973 0.20089 -0.42700
O 	O 	0.96309 0.46243 0.11052 -0.42800
O 	O 	0.04414 0.58429 0.17749 -0.44900
O 	O 	0.42028 0.08247 0.20944 -0.54800
O 	O 	0.30341 0.09510 0.15975 -0.29800
O 	O 	0.38044 0.89477 0.16642 -0.42500
O 	O 	0.26637 0.83050 0.09239 -0.43000
O 	O 	0.63498 0.41031 0.94965 -0.44700
O 	O 	0.53500 0.36527 0.86755 -0.42700
O 	O 	0.49934 0.03691 0.77718 -0.42900
O 	O 	0.54015 0.95586 0.84415 -0.45100
O 	O 	0.33781 0.42028 0.37611 -0.54800
O 	O 	0.20831 0.30341 0.32642 -0.29800
O 	O 	0.48567 0.38044 0.33309 -0.42500
O 	O 	0.43587 0.26637 0.25906 -0.43100
O 	O 	0.22467 0.63498 0.11632 -0.44500
O 	O 	0.16973 0.53500 0.03422 -0.42500
O 	O 	0.46243 0.49934 0.94385 -0.42600
O 	O 	0.58429 0.54015 0.01082 -0.43600
O 	O 	0.08247 0.66219 0.04278 -0.54000
O 	O 	0.09510 0.79169 0.99309 -0.29900
O 	O 	0.89477 0.51433 0.99976 -0.43000
O 	O 	0.83050 0.56413 0.92573 -0.43200
O 	O 	0.41031 0.77533 0.78299 -0.44500
O 	O 	0.36527 0.83027 0.70089 -0.42800
O 	O 	0.03691 0.53757 0.61052 -0.42900
O 	O 	0.95586 0.41571 0.67749 -0.44900
O 	O 	0.57972 0.91753 0.70944 -0.54800
O 	O 	0.69659 0.90490 0.65975 -0.29900
O 	O 	0.61956 0.10523 0.66642 -0.42500
O 	O 	0.73363 0.16950 0.59239 -0.43100
O 	O 	0.36502 0.58969 0.44965 -0.44500
O 	O 	0.46500 0.63473 0.36755 -0.42800
O 	O 	0.50066 0.96309 0.27718 -0.42900
O 	O 	0.45985 0.04414 0.34415 -0.44900
