data_crystal

_cell_length_a 15.92880
_cell_length_b 15.92880
_cell_length_c 21.36630
_cell_angle_alpha 90.00000
_cell_angle_beta  90.00000
_cell_angle_gamma 120.00000

_symmetry_space_group_name_	'P 1'
_symmetry_space_group_name_H-M	'P 1'

loop_
_symmetry_equiv_pos_as_xyz
  x,y,z

loop_
_atom_site_label
_atom_site_type_symbol
_atom_site_fract_x
_atom_site_fract_y
_atom_site_fract_z
_atom_site_charge
Co	Co	0.15344 0.70685 0.99184 1.15900
Co	Co	0.03071 0.51376 0.88588 1.17100
Co	Co	0.55341 0.84656 0.65851 1.16800
Co	Co	0.48305 0.96929 0.55255 1.17100
Co	Co	0.29315 0.44659 0.32517 1.16700
Co	Co	0.48624 0.51695 0.21921 1.17200
Co	Co	0.84656 0.29315 0.49184 1.16700
Co	Co	0.96929 0.48624 0.38588 1.17200
Co	Co	0.44659 0.15344 0.15851 1.16700
Co	Co	0.51695 0.03071 0.05255 1.17300
Co	Co	0.70685 0.55341 0.82517 1.16600
Co	Co	0.51376 0.48305 0.71921 1.17200
H 	H 	0.19480 0.66520 0.52470 0.04200
H 	H 	0.01320 0.45950 0.64390 0.05500
H 	H 	0.26890 0.66770 0.70450 0.05800
H 	H 	0.06790 0.45260 0.75060 0.06700
H 	H 	0.16810 0.53710 0.77350 0.07500
H 	H 	0.10380 0.69870 0.75700 0.15500
H 	H 	0.18540 0.68840 0.79080 0.13900
H 	H 	0.93560 0.47130 0.74230 0.13300
H 	H 	0.97260 0.58020 0.72540 0.15700
H 	H 	0.94720 0.65350 0.98890 0.00700
H 	H 	0.84570 0.71560 0.99570 0.04500
H 	H 	0.07640 0.97440 0.03350 0.10100
H 	H 	0.17090 0.90750 0.02430 0.00600
H 	H 	0.91720 0.96280 0.03040 0.05600
H 	H 	0.76350 0.78730 0.00200 0.06700
H 	H 	0.60260 0.77240 0.01140 0.09600
H 	H 	0.50720 0.83890 0.02520 -0.00600
H 	H 	0.73290 0.09850 0.02520 0.00600
H 	H 	0.83420 0.03950 0.01320 0.09100
H 	H 	0.47040 0.80520 0.19137 0.04200
H 	H 	0.44630 0.98680 0.31057 0.05500
H 	H 	0.39880 0.73110 0.37117 0.05800
H 	H 	0.38470 0.93210 0.41727 0.06700
H 	H 	0.36900 0.83190 0.44017 0.07500
H 	H 	0.59490 0.89620 0.42367 0.15500
H 	H 	0.50300 0.81460 0.45747 0.14000
H 	H 	0.53570 0.06440 0.40897 0.13300
H 	H 	0.60760 0.02740 0.39207 0.15700
H 	H 	0.70630 0.05280 0.65557 -0.01600
H 	H 	0.86990 0.15430 0.66237 0.09100
H 	H 	0.89800 0.92360 0.70017 0.11600
H 	H 	0.73660 0.82910 0.69097 -0.00800
H 	H 	0.04560 0.08280 0.69707 0.07000
H 	H 	0.02380 0.23650 0.66867 0.05200
H 	H 	0.16980 0.39740 0.67807 0.09100
H 	H 	0.33170 0.49280 0.69187 -0.00800
H 	H 	0.36560 0.26710 0.69187 0.00100
H 	H 	0.20530 0.16580 0.67987 0.09300
H 	H 	0.33480 0.52960 0.85803 0.04000
H 	H 	0.54050 0.55370 0.97723 0.05800
H 	H 	0.33230 0.60120 0.03783 0.05500
H 	H 	0.54740 0.61530 0.08393 0.07100
H 	H 	0.46290 0.63100 0.10683 0.07700
H 	H 	0.30130 0.40510 0.09033 0.15800
H 	H 	0.31160 0.49700 0.12413 0.14100
H 	H 	0.52870 0.46430 0.07563 0.13700
H 	H 	0.41980 0.39240 0.05873 0.16100
H 	H 	0.34650 0.29370 0.32223 -0.01500
H 	H 	0.28440 0.13010 0.32903 0.08700
H 	H 	0.02560 0.10200 0.36683 0.11300
H 	H 	0.09250 0.26340 0.35763 -0.00600
H 	H 	0.03720 0.95440 0.36373 0.06700
H 	H 	0.21270 0.97620 0.33533 0.05500
H 	H 	0.22760 0.83020 0.34473 0.09100
H 	H 	0.16110 0.66830 0.35853 -0.00800
H 	H 	0.90150 0.63440 0.35853 0.00200
H 	H 	0.96050 0.79470 0.34653 0.09300
H 	H 	0.80520 0.33480 0.02470 0.04500
H 	H 	0.98680 0.54050 0.14390 0.05500
H 	H 	0.73110 0.33230 0.20450 0.05800
H 	H 	0.93210 0.54740 0.25060 0.06700
H 	H 	0.83190 0.46290 0.27350 0.07600
H 	H 	0.89620 0.30130 0.25700 0.15500
H 	H 	0.81460 0.31160 0.29080 0.13900
H 	H 	0.06440 0.52870 0.24230 0.13400
H 	H 	0.02740 0.41980 0.22540 0.15800
H 	H 	0.05280 0.34650 0.48890 -0.01400
H 	H 	0.15430 0.28440 0.49570 0.08700
H 	H 	0.92360 0.02560 0.53350 0.11300
H 	H 	0.82910 0.09250 0.52430 -0.00600
H 	H 	0.08280 0.03720 0.53040 0.06700
H 	H 	0.23650 0.21270 0.50200 0.05500
H 	H 	0.39740 0.22760 0.51140 0.09100
H 	H 	0.49280 0.16110 0.52520 -0.00800
H 	H 	0.26710 0.90150 0.52520 0.00300
H 	H 	0.16580 0.96050 0.51320 0.09100
H 	H 	0.52960 0.19480 0.69137 0.04200
H 	H 	0.55370 0.01320 0.81057 0.05500
H 	H 	0.60120 0.26890 0.87117 0.05600
H 	H 	0.61530 0.06790 0.91727 0.06500
H 	H 	0.63100 0.16810 0.94017 0.07200
H 	H 	0.40510 0.10380 0.92367 0.15900
H 	H 	0.49700 0.18540 0.95747 0.14100
H 	H 	0.46430 0.93560 0.90897 0.12900
H 	H 	0.39240 0.97260 0.89207 0.15400
H 	H 	0.29370 0.94720 0.15557 -0.01600
H 	H 	0.13010 0.84570 0.16237 0.09100
H 	H 	0.10200 0.07640 0.20017 0.11600
H 	H 	0.26340 0.17090 0.19097 -0.00700
H 	H 	0.95440 0.91720 0.19707 0.07000
H 	H 	0.97620 0.76350 0.16867 0.05300
H 	H 	0.83020 0.60260 0.17807 0.09200
H 	H 	0.66830 0.50720 0.19187 -0.00800
H 	H 	0.63440 0.73290 0.19187 0.00100
H 	H 	0.79470 0.83420 0.17987 0.09400
H 	H 	0.66520 0.47040 0.35803 0.04200
H 	H 	0.45950 0.44630 0.47723 0.05500
H 	H 	0.66770 0.39880 0.53783 0.05800
H 	H 	0.45260 0.38470 0.58393 0.06700
H 	H 	0.53710 0.36900 0.60683 0.07600
H 	H 	0.69870 0.59490 0.59033 0.15600
H 	H 	0.68840 0.50300 0.62413 0.14000
H 	H 	0.47130 0.53570 0.57563 0.13300
H 	H 	0.58020 0.60760 0.55873 0.15700
H 	H 	0.65350 0.70630 0.82223 -0.01400
H 	H 	0.71560 0.86990 0.82903 0.08500
H 	H 	0.97440 0.89800 0.86683 0.11000
H 	H 	0.90750 0.73660 0.85763 -0.00500
H 	H 	0.96280 0.04560 0.86373 0.06600
H 	H 	0.78730 0.02380 0.83533 0.05400
H 	H 	0.77240 0.16980 0.84473 0.08900
H 	H 	0.83890 0.33170 0.85853 -0.00700
H 	H 	0.09850 0.36560 0.85853 0.00700
H 	H 	0.03950 0.20530 0.84653 0.08200
C 	C 	0.24710 0.67980 0.61230 -0.07700
C 	C 	0.18080 0.63750 0.56430 0.01500
C 	C 	0.09270 0.55310 0.57560 -0.08000
C 	C 	0.07180 0.51570 0.63630 -0.06200
C 	C 	0.13470 0.55910 0.68470 0.06000
C 	C 	0.22380 0.63970 0.67230 -0.06000
C 	C 	0.10890 0.52250 0.75160 -0.16400
C 	C 	0.11750 0.67020 0.79290 -0.35700
C 	C 	0.10070 0.71250 0.85230 0.41700
C 	C 	0.96320 0.53610 0.75950 -0.35300
C 	C 	0.89270 0.53860 0.80720 0.42800
C 	C 	0.34750 0.76840 0.60380 0.37600
C 	C 	0.02020 0.49920 0.52370 0.38500
C 	C 	0.97330 0.71910 0.99770 0.03400
C 	C 	0.91190 0.75560 0.00220 -0.09000
C 	C 	0.94970 0.85430 0.01660 0.08800
C 	C 	0.04810 0.90870 0.02430 -0.15300
C 	C 	0.10440 0.86820 0.01870 0.09900
C 	C 	0.88720 0.89730 0.02050 -0.06400
C 	C 	0.79370 0.85290 0.01150 -0.09800
C 	C 	0.73150 0.89680 0.01490 0.12600
C 	C 	0.63110 0.83930 0.01590 -0.18200
C 	C 	0.57400 0.87980 0.02330 0.10800
C 	C 	0.70670 0.03170 0.02350 0.08500
C 	C 	0.76790 0.99700 0.01670 -0.16200
C 	C 	0.43270 0.75290 0.27897 -0.07700
C 	C 	0.45670 0.81920 0.23097 0.01600
C 	C 	0.46040 0.90730 0.24227 -0.08100
C 	C 	0.44390 0.92820 0.30297 -0.06100
C 	C 	0.42440 0.86530 0.35137 0.06000
C 	C 	0.41590 0.77620 0.33897 -0.06000
C 	C 	0.41360 0.89110 0.41827 -0.16400
C 	C 	0.55270 0.88250 0.45957 -0.35700
C 	C 	0.61180 0.89930 0.51897 0.41700
C 	C 	0.57290 0.03680 0.42617 -0.35600
C 	C 	0.64590 0.10730 0.47387 0.42800
C 	C 	0.42090 0.65250 0.27047 0.37700
C 	C 	0.47900 0.97980 0.19037 0.38800
C 	C 	0.74580 0.02670 0.66437 0.11500
C 	C 	0.84370 0.08810 0.66887 -0.19000
C 	C 	0.90460 0.05030 0.68327 0.15200
C 	C 	0.86060 0.95190 0.69097 -0.20900
C 	C 	0.76380 0.89560 0.68537 0.12700
C 	C 	0.01010 0.11280 0.68717 -0.11100
C 	C 	0.05920 0.20630 0.67817 -0.07200
C 	C 	0.16530 0.26850 0.68157 0.11500
C 	C 	0.20820 0.36890 0.68257 -0.17800
C 	C 	0.30580 0.42600 0.68997 0.10300
C 	C 	0.32500 0.29330 0.69017 0.09200
C 	C 	0.22910 0.23210 0.68337 -0.17200
C 	C 	0.32020 0.56730 0.94563 -0.09800
C 	C 	0.36250 0.54330 0.89763 0.01900
C 	C 	0.44690 0.53960 0.90893 -0.07800
C 	C 	0.48430 0.55610 0.96963 -0.08600
C 	C 	0.44090 0.57560 0.01803 0.07600
C 	C 	0.36030 0.58410 0.00563 -0.03900
C 	C 	0.47750 0.58640 0.08493 -0.17000
C 	C 	0.32980 0.44730 0.12623 -0.35900
C 	C 	0.28750 0.38820 0.18563 0.41700
C 	C 	0.46390 0.42710 0.09283 -0.36000
C 	C 	0.46140 0.35410 0.14053 0.43000
C 	C 	0.23160 0.57910 0.93713 0.38100
C 	C 	0.50080 0.52100 0.85703 0.38500
C 	C 	0.28090 0.25420 0.33103 0.10900
C 	C 	0.24440 0.15630 0.33553 -0.18200
C 	C 	0.14570 0.09540 0.34993 0.14000
C 	C 	0.09130 0.13940 0.35763 -0.19900
C 	C 	0.13180 0.23620 0.35203 0.12200
C 	C 	0.10270 0.98990 0.35383 -0.10100
C 	C 	0.14710 0.94080 0.34483 -0.07700
C 	C 	0.10320 0.83470 0.34823 0.11700
C 	C 	0.16070 0.79180 0.34923 -0.17900
C 	C 	0.12020 0.69420 0.35663 0.10400
C 	C 	0.96830 0.67500 0.35683 0.09100
C 	C 	0.00300 0.77090 0.35003 -0.17000
C 	C 	0.75290 0.32020 0.11230 -0.07600
C 	C 	0.81920 0.36250 0.06430 0.01600
C 	C 	0.90730 0.44690 0.07560 -0.08000
C 	C 	0.92820 0.48430 0.13630 -0.06100
C 	C 	0.86530 0.44090 0.18470 0.06000
C 	C 	0.77620 0.36030 0.17230 -0.06000
C 	C 	0.89110 0.47750 0.25160 -0.16400
C 	C 	0.88250 0.32980 0.29290 -0.35700
C 	C 	0.89930 0.28750 0.35230 0.41600
C 	C 	0.03680 0.46390 0.25950 -0.35600
C 	C 	0.10730 0.46140 0.30720 0.42900
C 	C 	0.65250 0.23160 0.10380 0.37700
C 	C 	0.97980 0.50080 0.02370 0.39400
C 	C 	0.02670 0.28090 0.49770 0.10700
C 	C 	0.08810 0.24440 0.50220 -0.18100
C 	C 	0.05030 0.14570 0.51660 0.13900
C 	C 	0.95190 0.09130 0.52430 -0.19700
C 	C 	0.89560 0.13180 0.51870 0.12100
C 	C 	0.11280 0.10270 0.52050 -0.10100
C 	C 	0.20630 0.14710 0.51150 -0.07700
C 	C 	0.26850 0.10320 0.51490 0.11600
C 	C 	0.36890 0.16070 0.51590 -0.17800
C 	C 	0.42600 0.12020 0.52330 0.10300
C 	C 	0.29330 0.96830 0.52350 0.08800
C 	C 	0.23210 0.00300 0.51670 -0.16700
C 	C 	0.56730 0.24710 0.77897 -0.07800
C 	C 	0.54330 0.18080 0.73097 0.01700
C 	C 	0.53960 0.09270 0.74227 -0.08200
C 	C 	0.55610 0.07180 0.80297 -0.06000
C 	C 	0.57560 0.13470 0.85137 0.05900
C 	C 	0.58410 0.22380 0.83897 -0.05900
C 	C 	0.58640 0.10890 0.91827 -0.16100
C 	C 	0.44730 0.11750 0.95957 -0.37400
C 	C 	0.38820 0.10070 0.01897 0.43100
C 	C 	0.42710 0.96320 0.92617 -0.35100
C 	C 	0.35410 0.89270 0.97387 0.40100
C 	C 	0.57910 0.34750 0.77047 0.37700
C 	C 	0.52100 0.02020 0.69037 0.39000
C 	C 	0.25420 0.97330 0.16437 0.11400
C 	C 	0.15630 0.91190 0.16887 -0.18800
C 	C 	0.09540 0.94970 0.18327 0.14900
C 	C 	0.13940 0.04810 0.19097 -0.20600
C 	C 	0.23620 0.10440 0.18537 0.12600
C 	C 	0.98990 0.88720 0.18717 -0.10900
C 	C 	0.94080 0.79370 0.17817 -0.07300
C 	C 	0.83470 0.73150 0.18157 0.11700
C 	C 	0.79180 0.63110 0.18257 -0.17800
C 	C 	0.69420 0.57400 0.18997 0.10400
C 	C 	0.67500 0.70670 0.19017 0.09300
C 	C 	0.77090 0.76790 0.18337 -0.17200
C 	C 	0.67980 0.43270 0.44563 -0.07700
C 	C 	0.63750 0.45670 0.39763 0.01500
C 	C 	0.55310 0.46040 0.40893 -0.08000
C 	C 	0.51570 0.44390 0.46963 -0.06200
C 	C 	0.55910 0.42440 0.51803 0.06000
C 	C 	0.63970 0.41590 0.50563 -0.06000
C 	C 	0.52250 0.41360 0.58493 -0.16400
C 	C 	0.67020 0.55270 0.62623 -0.35700
C 	C 	0.71250 0.61180 0.68563 0.41700
C 	C 	0.53610 0.57290 0.59283 -0.35700
C 	C 	0.53860 0.64590 0.64053 0.42800
C 	C 	0.76840 0.42090 0.43713 0.37600
C 	C 	0.49920 0.47900 0.35703 0.38600
C 	C 	0.71910 0.74580 0.83103 0.10600
C 	C 	0.75560 0.84370 0.83553 -0.18000
C 	C 	0.85430 0.90460 0.84993 0.13300
C 	C 	0.90870 0.86060 0.85763 -0.19600
C 	C 	0.86820 0.76380 0.85203 0.11900
C 	C 	0.89730 0.01010 0.85383 -0.09900
C 	C 	0.85290 0.05920 0.84483 -0.07500
C 	C 	0.89680 0.16530 0.84823 0.10700
C 	C 	0.83930 0.20820 0.84923 -0.17300
C 	C 	0.87980 0.30580 0.85663 0.09900
C 	C 	0.03170 0.32500 0.85683 0.07100
C 	C 	0.99700 0.22910 0.85003 -0.14800
N 	N 	0.05820 0.56410 0.78843 -0.09300
N 	N 	0.06950 0.77380 0.00550 -0.21800
N 	N 	0.60890 0.97470 0.02793 -0.23400
N 	N 	0.50590 0.94180 0.45510 -0.09200
N 	N 	0.70430 0.93050 0.67217 -0.24900
N 	N 	0.36580 0.39110 0.69460 -0.23800
N 	N 	0.43590 0.49410 0.12176 -0.09000
N 	N 	0.22620 0.29570 0.33883 -0.24600
N 	N 	0.02530 0.63420 0.36126 -0.23700
N 	N 	0.94180 0.43590 0.28843 -0.09200
N 	N 	0.93050 0.22620 0.50550 -0.24600
N 	N 	0.39110 0.02530 0.52793 -0.23600
N 	N 	0.49410 0.05820 0.95510 -0.09300
N 	N 	0.29570 0.06950 0.17217 -0.24800
N 	N 	0.63420 0.60890 0.19460 -0.23800
N 	N 	0.56410 0.50590 0.62176 -0.09100
N 	N 	0.77380 0.70430 0.83883 -0.24600
N 	N 	0.97470 0.36580 0.86126 -0.23100
O 	O 	0.08770 0.66160 0.90256 -0.53300
O 	O 	0.10470 0.79010 0.85070 -0.30000
O 	O 	0.89880 0.51560 0.86259 -0.42600
O 	O 	0.83450 0.56160 0.78706 -0.42500
O 	O 	0.41010 0.77080 0.64070 -0.44600
O 	O 	0.36040 0.83050 0.56329 -0.43100
O 	O 	0.03040 0.54200 0.47275 -0.42500
O 	O 	0.95540 0.41570 0.53669 -0.45000
O 	O 	0.57390 0.91230 0.56923 -0.52900
O 	O 	0.68540 0.89530 0.51737 -0.29600
O 	O 	0.61680 0.10120 0.52926 -0.42600
O 	O 	0.72710 0.16550 0.45373 -0.42500
O 	O 	0.36070 0.58990 0.30737 -0.44600
O 	O 	0.47010 0.63960 0.22996 -0.43000
O 	O 	0.51160 0.96960 0.13942 -0.42500
O 	O 	0.46030 0.04460 0.20336 -0.45300
O 	O 	0.33840 0.42610 0.23589 -0.52900
O 	O 	0.20990 0.31460 0.18403 -0.29400
O 	O 	0.48440 0.38320 0.19592 -0.42600
O 	O 	0.43840 0.27290 0.12039 -0.42400
O 	O 	0.22920 0.63930 0.97403 -0.45500
O 	O 	0.16950 0.52990 0.89662 -0.43400
O 	O 	0.45800 0.48840 0.80608 -0.42600
O 	O 	0.58430 0.53970 0.87002 -0.45300
O 	O 	0.91230 0.33840 0.40256 -0.52900
O 	O 	0.89530 0.20990 0.35070 -0.29600
O 	O 	0.10120 0.48440 0.36259 -0.42600
O 	O 	0.16550 0.43840 0.28706 -0.42500
O 	O 	0.58990 0.22920 0.14070 -0.44500
O 	O 	0.63960 0.16950 0.06329 -0.42800
O 	O 	0.96960 0.45800 0.97275 -0.43400
O 	O 	0.04460 0.58430 0.03669 -0.44200
O 	O 	0.42610 0.08770 0.06923 -0.53100
O 	O 	0.31460 0.10470 0.01737 -0.29500
O 	O 	0.38320 0.89880 0.02926 -0.40600
O 	O 	0.27290 0.83450 0.95373 -0.42400
O 	O 	0.63930 0.41010 0.80737 -0.44700
O 	O 	0.52990 0.36040 0.72996 -0.43100
O 	O 	0.48840 0.03040 0.63942 -0.42600
O 	O 	0.53970 0.95540 0.70336 -0.45500
O 	O 	0.66160 0.57390 0.73589 -0.52900
O 	O 	0.79010 0.68540 0.68403 -0.29500
O 	O 	0.51560 0.61680 0.69592 -0.42600
O 	O 	0.56160 0.72710 0.62039 -0.42500
O 	O 	0.77080 0.36070 0.47403 -0.44600
O 	O 	0.83050 0.47010 0.39662 -0.43000
O 	O 	0.54200 0.51160 0.30608 -0.42500
O 	O 	0.41570 0.46030 0.37002 -0.45200
