data_crystal

_cell_length_a 8.14050
_cell_length_b 10.50320
_cell_length_c 11.33360
_cell_angle_alpha 62.39560
_cell_angle_beta  84.17320
_cell_angle_gamma 77.34400

_symmetry_space_group_name_	'P 1'
_symmetry_space_group_name_H-M	'P 1'

loop_
_symmetry_equiv_pos_as_xyz
  x,y,z

loop_
_atom_site_label
_atom_site_type_symbol
_atom_site_fract_x
_atom_site_fract_y
_atom_site_fract_z
_atom_site_charge
Ni	Ni	0.81820 0.94826 0.50648 1.03000
Ni	Ni	0.31820 0.45474 0.49352 1.03800
H 	H 	0.73600 0.74600 0.37600 -0.01600
H 	H 	0.09800 0.75700 0.44000 -0.11600
H 	H 	0.76200 0.73900 0.19000 0.06900
H 	H 	0.72700 0.79800 0.96600 0.06200
H 	H 	0.91500 0.15100 0.21600 0.00300
H 	H 	0.73900 0.81000 0.78000 0.08300
H 	H 	0.86800 0.17000 0.99800 0.04900
H 	H 	0.86200 0.12800 0.62200 0.04700
H 	H 	0.90500 0.10300 0.81800 -0.13400
H 	H 	0.23600 0.12200 0.62400 -0.01100
H 	H 	0.59800 0.19700 0.56000 -0.10800
H 	H 	0.26200 0.92900 0.81000 0.02500
H 	H 	0.22700 0.76400 0.03400 0.06500
H 	H 	0.41500 0.36700 0.78400 -0.00700
H 	H 	0.23900 0.59000 0.22000 0.06500
H 	H 	0.36800 0.16800 0.00200 0.06900
H 	H 	0.36200 0.75000 0.37800 0.05900
H 	H 	0.40500 0.92100 0.18200 -0.17000
C 	C 	0.81620 0.95110 0.94060 -0.14300
C 	C 	0.82110 0.94690 0.07360 0.07100
C 	C 	0.78970 0.83540 0.30940 0.05600
C 	C 	0.78620 0.82590 0.19000 -0.12700
C 	C 	0.86120 0.06480 0.08480 -0.06500
C 	C 	0.76400 0.84550 0.92500 -0.03200
C 	C 	0.86150 0.05670 0.20940 0.08300
C 	C 	0.07980 0.68990 0.54180 0.34700
C 	C 	0.86400 0.05980 0.82380 0.28500
C 	C 	0.75900 0.84750 0.80400 -0.11100
C 	C 	0.86230 0.06010 0.70500 -0.10200
C 	C 	0.31620 0.89170 0.05940 -0.15700
C 	C 	0.32110 0.02050 0.92640 0.11600
C 	C 	0.28970 0.14480 0.69060 0.04100
C 	C 	0.28620 0.01590 0.81000 -0.08500
C 	C 	0.36120 0.14960 0.91520 -0.12000
C 	C 	0.26400 0.77050 0.07500 -0.04200
C 	C 	0.36150 0.26610 0.79060 0.06100
C 	C 	0.57980 0.23170 0.45820 0.37900
C 	C 	0.36400 0.88360 0.17620 0.31300
C 	C 	0.25900 0.65150 0.19600 -0.08200
C 	C 	0.36230 0.76510 0.29500 -0.16900
N 	N 	0.82460 0.94550 0.32380 -0.26200
N 	N 	0.81190 0.95370 0.69220 -0.20200
N 	N 	0.32460 0.26930 0.67620 -0.24400
N 	N 	0.31190 0.64590 0.30780 -0.18200
O 	O 	0.96360 0.73800 0.60060 -0.42200
O 	O 	0.16750 0.56430 0.59360 -0.44000
O 	O 	0.46360 0.33860 0.39940 -0.44100
O 	O 	0.66750 0.15790 0.40640 -0.42600
