data_crystal

_cell_length_a 9.66850
_cell_length_b 9.66850
_cell_length_c 14.88790
_cell_angle_alpha 90.00000
_cell_angle_beta  90.00000
_cell_angle_gamma 120.00000

_symmetry_space_group_name_	'P 1'
_symmetry_space_group_name_H-M	'P 1'

loop_
_symmetry_equiv_pos_as_xyz
  x,y,z

loop_
_atom_site_label
_atom_site_type_symbol
_atom_site_fract_x
_atom_site_fract_y
_atom_site_fract_z
_atom_site_charge
P 	P 	0.76137 0.60660 0.92644 0.73800
O 	O 	0.61420 0.47960 0.97310 -0.43600
O 	O 	0.77900 0.77490 0.93960 -0.73300
O 	O 	0.91390 0.62140 0.96160 -0.43000
O 	O 	0.74420 0.56480 0.82480 -0.76800
P 	P 	0.39340 0.15477 0.59311 0.73900
O 	O 	0.52040 0.13460 0.63977 -0.43500
O 	O 	0.22510 0.00410 0.60627 -0.73300
O 	O 	0.37860 0.29250 0.62827 -0.43200
O 	O 	0.43520 0.17940 0.49147 -0.76700
P 	P 	0.84523 0.23863 0.25977 0.73900
O 	O 	0.86540 0.38580 0.30643 -0.43600
O 	O 	0.99590 0.22100 0.27293 -0.73600
O 	O 	0.70750 0.08610 0.29493 -0.43300
O 	O 	0.82060 0.25580 0.15813 -0.76700
P 	P 	0.23863 0.39340 0.42644 0.73900
O 	O 	0.38580 0.52040 0.47310 -0.43500
O 	O 	0.22100 0.22510 0.43960 -0.73400
O 	O 	0.08610 0.37860 0.46160 -0.43200
O 	O 	0.25580 0.43520 0.32480 -0.76800
P 	P 	0.60660 0.84523 0.09311 0.73900
O 	O 	0.47960 0.86540 0.13977 -0.43400
O 	O 	0.77490 0.99590 0.10627 -0.73200
O 	O 	0.62140 0.70750 0.12827 -0.43300
O 	O 	0.56480 0.82060 0.99147 -0.76800
P 	P 	0.15477 0.76137 0.75977 0.73900
O 	O 	0.13460 0.61420 0.80643 -0.43700
O 	O 	0.00410 0.77900 0.77293 -0.73700
O 	O 	0.29250 0.91390 0.79493 -0.43300
O 	O 	0.17940 0.74420 0.65813 -0.76700
P 	P 	0.60660 0.76137 0.74023 0.73900
O 	O 	0.47960 0.61420 0.69357 -0.43500
O 	O 	0.77490 0.77900 0.72707 -0.73500
O 	O 	0.62140 0.91390 0.70507 -0.43300
O 	O 	0.56480 0.74420 0.84187 -0.76700
P 	P 	0.15477 0.39340 0.07356 0.73900
O 	O 	0.13460 0.52040 0.02690 -0.43300
O 	O 	0.00410 0.22510 0.06040 -0.73000
O 	O 	0.29250 0.37860 0.03840 -0.43200
O 	O 	0.17940 0.43520 0.17520 -0.76700
P 	P 	0.23863 0.84523 0.40689 0.73900
O 	O 	0.38580 0.86540 0.36023 -0.43500
O 	O 	0.22100 0.99590 0.39373 -0.73300
O 	O 	0.08610 0.70750 0.37173 -0.43200
O 	O 	0.25580 0.82060 0.50853 -0.76700
P 	P 	0.39340 0.23863 0.24023 0.73900
O 	O 	0.52040 0.38580 0.19357 -0.43600
O 	O 	0.22510 0.22100 0.22707 -0.73400
O 	O 	0.37860 0.08610 0.20507 -0.43300
O 	O 	0.43520 0.25580 0.34187 -0.76700
P 	P 	0.84523 0.60660 0.57356 0.73900
O 	O 	0.86540 0.47960 0.52690 -0.43500
O 	O 	0.99590 0.77490 0.56040 -0.73300
O 	O 	0.70750 0.62140 0.53840 -0.43200
O 	O 	0.82060 0.56480 0.67520 -0.76800
P 	P 	0.76137 0.15477 0.90689 0.74100
O 	O 	0.61420 0.13460 0.86023 -0.43500
O 	O 	0.77900 0.00410 0.89373 -0.73200
O 	O 	0.91390 0.29250 0.87173 -0.43100
O 	O 	0.74420 0.17940 0.00853 -0.76900
Zn	Zn	0.51002 0.48998 0.08333 1.24500
Zn	Zn	0.51002 0.02004 0.75000 1.24500
Zn	Zn	0.97996 0.48998 0.41667 1.24500
Zn	Zn	0.48998 0.51002 0.58333 1.24500
Zn	Zn	0.48998 0.97996 0.25000 1.24500
Zn	Zn	0.02004 0.51002 0.91667 1.24300
B 	B 	0.67050 0.83525 0.91667 2.01300
B 	B 	0.16475 0.83525 0.58333 2.01300
B 	B 	0.16475 0.32950 0.25000 2.01800
B 	B 	0.32950 0.16475 0.41667 2.01400
B 	B 	0.83525 0.16475 0.08333 2.00600
B 	B 	0.83525 0.67050 0.75000 2.01900
