data_crystal

_cell_length_a 11.78770
_cell_length_b 5.20930
_cell_length_c 12.20310
_cell_angle_alpha 90.00000
_cell_angle_beta  98.19800
_cell_angle_gamma 90.00000

_symmetry_space_group_name_	'P 1'
_symmetry_space_group_name_H-M	'P 1'

loop_
_symmetry_equiv_pos_as_xyz
  x,y,z

loop_
_atom_site_label
_atom_site_type_symbol
_atom_site_fract_x
_atom_site_fract_y
_atom_site_fract_z
_atom_site_charge
Zn	Zn	0.39417 0.20143 0.57172 1.23700
P 	P 	0.66271 0.28293 0.56642 0.55900
O 	O 	0.76818 0.21750 0.65303 -0.36100
H 	H 	0.75060 0.22870 0.71550 0.19900
O 	O 	0.55656 0.18800 0.61165 -0.47900
O 	O 	0.67666 0.13820 0.45809 -0.45100
O 	O 	0.66306 0.56990 0.54478 -0.44700
O 	O 	0.34855 0.26890 0.71909 -0.40300
O 	O 	0.19681 0.60130 0.65249 -0.44900
H 	H 	0.24780 0.68330 0.62940 0.30300
Zn	Zn	0.10583 0.20143 0.92828 1.23400
P 	P 	0.83729 0.28293 0.93358 0.56000
O 	O 	0.73182 0.21750 0.84697 -0.36200
H 	H 	0.74940 0.22870 0.78450 0.19900
O 	O 	0.94344 0.18800 0.88835 -0.47500
O 	O 	0.82334 0.13820 0.04191 -0.45200
O 	O 	0.83694 0.56990 0.95522 -0.44400
O 	O 	0.15145 0.26890 0.78091 -0.40500
O 	O 	0.30319 0.60130 0.84751 -0.44800
H 	H 	0.25220 0.68330 0.87060 0.30200
Zn	Zn	0.60583 0.79857 0.42828 1.23700
P 	P 	0.33729 0.71707 0.43358 0.55900
O 	O 	0.23182 0.78250 0.34697 -0.36100
H 	H 	0.24940 0.77130 0.28450 0.19900
O 	O 	0.44344 0.81200 0.38835 -0.47900
O 	O 	0.32334 0.86180 0.54191 -0.45100
O 	O 	0.33694 0.43010 0.45522 -0.44700
O 	O 	0.65145 0.73110 0.28091 -0.40300
O 	O 	0.80319 0.39870 0.34751 -0.44900
H 	H 	0.75220 0.31670 0.37060 0.30300
Zn	Zn	0.89417 0.79857 0.07172 1.23400
P 	P 	0.16271 0.71707 0.06642 0.56000
O 	O 	0.26818 0.78250 0.15303 -0.36200
H 	H 	0.25060 0.77130 0.21550 0.19900
O 	O 	0.05656 0.81200 0.11165 -0.47500
O 	O 	0.17666 0.86180 0.95809 -0.45200
O 	O 	0.16306 0.43010 0.04478 -0.44400
O 	O 	0.84855 0.73110 0.21909 -0.40500
O 	O 	0.69681 0.39870 0.15249 -0.44800
H 	H 	0.74780 0.31670 0.12940 0.30200
P 	P 	0.25000 0.42574 0.75000 0.58300
P 	P 	0.75000 0.57426 0.25000 0.58300
