data_crystal

_cell_length_a 6.54700
_cell_length_b 6.63230
_cell_length_c 6.63230
_cell_angle_alpha 115.20500
_cell_angle_beta  106.37100
_cell_angle_gamma 73.62930

_symmetry_space_group_name_	'P 1'
_symmetry_space_group_name_H-M	'P 1'

loop_
_symmetry_equiv_pos_as_xyz
  x,y,z

loop_
_atom_site_label
_atom_site_type_symbol
_atom_site_fract_x
_atom_site_fract_y
_atom_site_fract_z
_atom_site_charge
Er	Er	-0.00000 0.00000 -0.00000 1.13500
H 	H 	0.11600 0.84300 0.46100 -0.23200
H 	H 	0.88400 0.46100 0.84300 0.02300
H 	H 	0.50000 0.07000 0.07000 -0.22900
C 	C 	0.96660 0.93740 0.46860 0.74800
C 	C 	0.03340 0.46860 0.93740 0.34700
C 	C 	0.50000 0.93440 0.93440 0.65100
O 	O 	0.87920 0.00450 0.31330 -0.47700
O 	O 	0.88490 0.97530 0.63110 -0.38600
O 	O 	0.66510 0.86070 0.84610 -0.35000
O 	O 	0.12080 0.31330 0.00450 -0.48100
O 	O 	0.11510 0.63110 0.97530 -0.35800
O 	O 	0.33490 0.84610 0.86070 -0.39100
