data_crystal

_cell_length_a 29.59370
_cell_length_b 29.59370
_cell_length_c 10.16800
_cell_angle_alpha 90.00000
_cell_angle_beta  90.00000
_cell_angle_gamma 90.00000

_symmetry_space_group_name_	'P 1'
_symmetry_space_group_name_H-M	'P 1'

loop_
_symmetry_equiv_pos_as_xyz
  x,y,z

loop_
_atom_site_label
_atom_site_type_symbol
_atom_site_fract_x
_atom_site_fract_y
_atom_site_fract_z
_atom_site_charge
O 	O 	0.19521 0.19528 0.23930 -0.31700
O 	O 	0.14979 0.14970 0.35020 -0.44700
O 	O 	0.04770 0.04748 0.10900 -0.51300
C 	C 	0.14704 0.14699 0.11660 -0.09300
C 	C 	0.11413 0.11449 0.11730 0.07200
H 	H 	0.10280 0.10390 0.19690 0.03700
C 	C 	0.16591 0.16589 0.24480 0.33200
N 	N 	0.17610 0.45980 0.57020 -0.37500
N 	N 	0.17630 0.54020 0.57220 -0.38200
C 	C 	0.13460 0.26300 0.44610 0.03800
C 	C 	0.12850 0.31070 0.43320 -0.00400
C 	C 	0.18990 0.41540 0.59610 0.09400
C 	C 	0.13440 0.73650 0.44800 0.03900
C 	C 	0.12810 0.68940 0.43210 0.00000
C 	C 	0.19570 0.67910 0.55980 -0.01100
C 	C 	0.20020 0.72690 0.57710 0.02600
C 	C 	0.23610 0.40580 0.66180 0.02400
F 	F 	0.24520 0.50070 0.62980 -0.68300
B 	B 	0.19670 0.50000 0.64270 1.65100
F 	F 	0.19000 0.49980 0.78470 -0.68700
C 	C 	0.19600 0.32010 0.44060 -0.00700
C 	C 	0.20010 0.27310 0.42470 0.02800
C 	C 	0.12230 0.41400 0.55390 -0.00600
C 	C 	0.19040 0.58440 0.40370 0.10000
C 	C 	0.23550 0.59400 0.33820 0.02400
C 	C 	0.07790 0.39960 0.59970 0.00200
O 	O 	0.80479 0.80472 0.23930 -0.31200
O 	O 	0.85021 0.85030 0.35020 -0.42200
O 	O 	0.95230 0.95252 0.10900 -0.39900
C 	C 	0.85296 0.85301 0.11660 -0.06000
C 	C 	0.88587 0.88551 0.11730 0.04800
H 	H 	0.89720 0.89610 0.19690 0.07300
C 	C 	0.83409 0.83411 0.24480 0.32500
N 	N 	0.82390 0.54020 0.57020 -0.37600
N 	N 	0.82370 0.45980 0.57220 -0.38200
C 	C 	0.86540 0.73700 0.44610 0.04800
C 	C 	0.87150 0.68930 0.43320 0.01000
C 	C 	0.81010 0.58460 0.59610 0.09500
C 	C 	0.86560 0.26350 0.44800 0.04700
C 	C 	0.87190 0.31060 0.43210 0.00800
C 	C 	0.80430 0.32090 0.55980 -0.01000
C 	C 	0.79980 0.27310 0.57710 0.02500
C 	C 	0.76390 0.59420 0.66180 0.02400
F 	F 	0.75480 0.49930 0.62980 -0.68400
B 	B 	0.80330 0.50000 0.64270 1.65400
F 	F 	0.81000 0.50020 0.78470 -0.68400
C 	C 	0.80400 0.67990 0.44060 -0.00500
C 	C 	0.79990 0.72690 0.42470 0.02700
C 	C 	0.87770 0.58600 0.55390 -0.01600
C 	C 	0.80960 0.41560 0.40370 0.10200
C 	C 	0.76450 0.40600 0.33820 0.02300
C 	C 	0.92210 0.60040 0.59970 0.05400
O 	O 	0.80472 0.19521 0.23930 -0.31400
O 	O 	0.85030 0.14979 0.35020 -0.43400
O 	O 	0.95252 0.04770 0.10900 -0.45400
C 	C 	0.85301 0.14704 0.11660 -0.07500
C 	C 	0.88551 0.11413 0.11730 0.06000
H 	H 	0.89610 0.10280 0.19690 0.05600
C 	C 	0.83411 0.16591 0.24480 0.32900
N 	N 	0.54020 0.17610 0.57020 -0.37400
N 	N 	0.45980 0.17630 0.57220 -0.38100
C 	C 	0.73700 0.13460 0.44610 0.04000
C 	C 	0.68930 0.12850 0.43320 -0.00300
C 	C 	0.58460 0.18990 0.59610 0.09500
C 	C 	0.26350 0.13440 0.44800 0.04000
C 	C 	0.31060 0.12810 0.43210 0.00100
C 	C 	0.32090 0.19570 0.55980 -0.01000
C 	C 	0.27310 0.20020 0.57710 0.02600
C 	C 	0.59420 0.23610 0.66180 0.02400
F 	F 	0.49930 0.24520 0.62980 -0.68300
B 	B 	0.50000 0.19670 0.64270 1.65100
F 	F 	0.50020 0.19000 0.78470 -0.68700
C 	C 	0.67990 0.19600 0.44060 -0.00700
C 	C 	0.72690 0.20010 0.42470 0.02800
C 	C 	0.58600 0.12230 0.55390 -0.00600
C 	C 	0.41560 0.19040 0.40370 0.10000
C 	C 	0.40600 0.23550 0.33820 0.02400
C 	C 	0.60040 0.07790 0.59970 0.00200
O 	O 	0.19528 0.80479 0.23930 -0.31400
O 	O 	0.14970 0.85021 0.35020 -0.43500
O 	O 	0.04748 0.95230 0.10900 -0.45600
C 	C 	0.14699 0.85296 0.11660 -0.07700
C 	C 	0.11449 0.88587 0.11730 0.06000
H 	H 	0.10390 0.89720 0.19690 0.05500
C 	C 	0.16589 0.83409 0.24480 0.32900
N 	N 	0.45980 0.82390 0.57020 -0.37600
N 	N 	0.54020 0.82370 0.57220 -0.38200
C 	C 	0.26300 0.86540 0.44610 0.04800
C 	C 	0.31070 0.87150 0.43320 0.01000
C 	C 	0.41540 0.81010 0.59610 0.09500
C 	C 	0.73650 0.86560 0.44800 0.04800
C 	C 	0.68940 0.87190 0.43210 0.00800
C 	C 	0.67910 0.80430 0.55980 -0.01100
C 	C 	0.72690 0.79980 0.57710 0.02500
C 	C 	0.40580 0.76390 0.66180 0.02400
F 	F 	0.50070 0.75480 0.62980 -0.68400
B 	B 	0.50000 0.80330 0.64270 1.65400
F 	F 	0.49980 0.81000 0.78470 -0.68400
C 	C 	0.32010 0.80400 0.44060 -0.00500
C 	C 	0.27310 0.79990 0.42470 0.02700
C 	C 	0.41400 0.87770 0.55390 -0.01600
C 	C 	0.58440 0.80960 0.40370 0.10200
C 	C 	0.59400 0.76450 0.33820 0.02300
C 	C 	0.39960 0.92210 0.59970 0.05400
O 	O 	0.80479 0.80472 0.76070 -0.30600
O 	O 	0.85021 0.85030 0.64980 -0.42100
O 	O 	0.95230 0.95252 0.89100 -0.37400
C 	C 	0.85296 0.85301 0.88340 -0.03700
C 	C 	0.88587 0.88551 0.88270 0.07900
H 	H 	0.89720 0.89610 0.80310 0.06700
C 	C 	0.83409 0.83411 0.75520 0.32300
N 	N 	0.82390 0.54020 0.42980 -0.37600
N 	N 	0.82370 0.45980 0.42780 -0.38300
C 	C 	0.86540 0.73700 0.55390 0.04800
C 	C 	0.87150 0.68930 0.56680 0.00800
C 	C 	0.81010 0.58460 0.40390 0.09400
C 	C 	0.86560 0.26350 0.55200 0.04800
C 	C 	0.87190 0.31060 0.56790 0.00500
C 	C 	0.80430 0.32090 0.44020 -0.00700
C 	C 	0.79980 0.27310 0.42290 0.02600
C 	C 	0.76390 0.59420 0.33820 0.02300
F 	F 	0.75480 0.49930 0.37020 -0.68700
B 	B 	0.80330 0.50000 0.35730 1.65400
F 	F 	0.81000 0.50020 0.21530 -0.69600
C 	C 	0.80400 0.67990 0.55940 -0.00800
C 	C 	0.79990 0.72690 0.57530 0.02600
C 	C 	0.87770 0.58600 0.44610 -0.01800
C 	C 	0.80960 0.41560 0.59630 0.10100
C 	C 	0.76450 0.40600 0.66180 0.02400
C 	C 	0.92210 0.60040 0.40030 0.05000
O 	O 	0.19521 0.19528 0.76070 -0.31000
O 	O 	0.14979 0.14970 0.64980 -0.44500
O 	O 	0.04770 0.04748 0.89100 -0.48600
C 	C 	0.14704 0.14699 0.88340 -0.07000
C 	C 	0.11413 0.11449 0.88270 0.10300
H 	H 	0.10280 0.10390 0.80310 0.03200
C 	C 	0.16591 0.16589 0.75520 0.33100
N 	N 	0.17610 0.45980 0.42980 -0.37500
N 	N 	0.17630 0.54020 0.42780 -0.38200
C 	C 	0.13460 0.26300 0.55390 0.03900
C 	C 	0.12850 0.31070 0.56680 -0.00400
C 	C 	0.18990 0.41540 0.40390 0.09500
C 	C 	0.13440 0.73650 0.55200 0.04100
C 	C 	0.12810 0.68940 0.56790 -0.00200
C 	C 	0.19570 0.67910 0.44020 -0.00600
C 	C 	0.20020 0.72690 0.42290 0.02700
C 	C 	0.23610 0.40580 0.33820 0.02300
F 	F 	0.24520 0.50070 0.37020 -0.68600
B 	B 	0.19670 0.50000 0.35730 1.65000
F 	F 	0.19000 0.49980 0.21530 -0.69800
C 	C 	0.19600 0.32010 0.55940 -0.01000
C 	C 	0.20010 0.27310 0.57530 0.02700
C 	C 	0.12230 0.41400 0.44610 -0.00800
C 	C 	0.19040 0.58440 0.59630 0.10000
C 	C 	0.23550 0.59400 0.66180 0.02400
C 	C 	0.07790 0.39960 0.40030 -0.00200
O 	O 	0.19528 0.80479 0.76070 -0.30800
O 	O 	0.14970 0.85021 0.64980 -0.43300
O 	O 	0.04748 0.95230 0.89100 -0.43100
C 	C 	0.14699 0.85296 0.88340 -0.05400
C 	C 	0.11449 0.88587 0.88270 0.09000
H 	H 	0.10390 0.89720 0.80310 0.04900
C 	C 	0.16589 0.83409 0.75520 0.32700
N 	N 	0.45980 0.82390 0.42980 -0.37600
N 	N 	0.54020 0.82370 0.42780 -0.38300
C 	C 	0.26300 0.86540 0.55390 0.04800
C 	C 	0.31070 0.87150 0.56680 0.00900
C 	C 	0.41540 0.81010 0.40390 0.09400
C 	C 	0.73650 0.86560 0.55200 0.04800
C 	C 	0.68940 0.87190 0.56790 0.00500
C 	C 	0.67910 0.80430 0.44020 -0.00700
C 	C 	0.72690 0.79980 0.42290 0.02600
C 	C 	0.40580 0.76390 0.33820 0.02300
F 	F 	0.50070 0.75480 0.37020 -0.68700
B 	B 	0.50000 0.80330 0.35730 1.65400
F 	F 	0.49980 0.81000 0.21530 -0.69600
C 	C 	0.32010 0.80400 0.55940 -0.00800
C 	C 	0.27310 0.79990 0.57530 0.02600
C 	C 	0.41400 0.87770 0.44610 -0.01800
C 	C 	0.58440 0.80960 0.59630 0.10100
C 	C 	0.59400 0.76450 0.66180 0.02400
C 	C 	0.39960 0.92210 0.40030 0.05000
O 	O 	0.80472 0.19521 0.76070 -0.30800
O 	O 	0.85030 0.14979 0.64980 -0.43200
O 	O 	0.95252 0.04770 0.89100 -0.42800
C 	C 	0.85301 0.14704 0.88340 -0.05200
C 	C 	0.88551 0.11413 0.88270 0.09100
H 	H 	0.89610 0.10280 0.80310 0.05000
C 	C 	0.83411 0.16591 0.75520 0.32700
N 	N 	0.54020 0.17610 0.42980 -0.37500
N 	N 	0.45980 0.17630 0.42780 -0.38200
C 	C 	0.73700 0.13460 0.55390 0.04000
C 	C 	0.68930 0.12850 0.56680 -0.00400
C 	C 	0.58460 0.18990 0.40390 0.09500
C 	C 	0.26350 0.13440 0.55200 0.04000
C 	C 	0.31060 0.12810 0.56790 -0.00200
C 	C 	0.32090 0.19570 0.44020 -0.00600
C 	C 	0.27310 0.20020 0.42290 0.02700
C 	C 	0.59420 0.23610 0.33820 0.02300
F 	F 	0.49930 0.24520 0.37020 -0.68600
B 	B 	0.50000 0.19670 0.35730 1.65000
F 	F 	0.50020 0.19000 0.21530 -0.69800
C 	C 	0.67990 0.19600 0.55940 -0.01000
C 	C 	0.72690 0.20010 0.57530 0.02700
C 	C 	0.58600 0.12230 0.44610 -0.00800
C 	C 	0.41560 0.19040 0.59630 0.10000
C 	C 	0.40600 0.23550 0.66180 0.02400
C 	C 	0.60040 0.07790 0.40030 -0.00200
Zn	Zn	0.00000 0.00000 0.14489 1.15100
Zn	Zn	0.00000 0.00000 0.85511 1.15600
Zn	Zn	0.17847 0.17839 0.50000 1.21600
N 	N 	0.16859 0.24615 0.50000 -0.25900
N 	N 	0.16841 0.75377 0.50000 -0.25900
C 	C 	0.16080 0.33840 0.50000 0.01800
C 	C 	0.15630 0.38710 0.50000 -0.02700
C 	C 	0.13440 0.46070 0.50000 0.10600
C 	C 	0.13450 0.53890 0.50000 0.10200
C 	C 	0.12260 0.58620 0.50000 -0.00900
C 	C 	0.15650 0.61390 0.50000 -0.02800
C 	C 	0.16080 0.66140 0.50000 0.01700
Zn	Zn	0.82153 0.82161 0.50000 1.21800
N 	N 	0.83141 0.75385 0.50000 -0.26000
N 	N 	0.83159 0.24623 0.50000 -0.26000
C 	C 	0.83920 0.66160 0.50000 0.00600
C 	C 	0.84370 0.61290 0.50000 -0.01500
C 	C 	0.86560 0.53930 0.50000 0.12500
C 	C 	0.86550 0.46110 0.50000 0.11200
C 	C 	0.87740 0.41380 0.50000 0.01200
C 	C 	0.84350 0.38610 0.50000 -0.03200
C 	C 	0.83920 0.33860 0.50000 0.01800
Zn	Zn	0.82161 0.17847 0.50000 1.21700
N 	N 	0.75385 0.16859 0.50000 -0.25900
N 	N 	0.24623 0.16841 0.50000 -0.25900
C 	C 	0.66160 0.16080 0.50000 0.01800
C 	C 	0.61290 0.15630 0.50000 -0.02700
C 	C 	0.53930 0.13440 0.50000 0.10600
C 	C 	0.46110 0.13450 0.50000 0.10200
C 	C 	0.41380 0.12260 0.50000 -0.00900
C 	C 	0.38610 0.15650 0.50000 -0.02800
C 	C 	0.33860 0.16080 0.50000 0.01700
Zn	Zn	0.17839 0.82153 0.50000 1.21700
N 	N 	0.24615 0.83141 0.50000 -0.26000
N 	N 	0.75377 0.83159 0.50000 -0.26000
C 	C 	0.33840 0.83920 0.50000 0.00600
C 	C 	0.38710 0.84370 0.50000 -0.01500
C 	C 	0.46070 0.86560 0.50000 0.12500
C 	C 	0.53890 0.86550 0.50000 0.11200
C 	C 	0.58620 0.87740 0.50000 0.01200
C 	C 	0.61390 0.84350 0.50000 -0.03200
C 	C 	0.66140 0.83920 0.50000 0.01800
C 	C 	0.16296 0.16312 -0.00000 0.00700
H 	H 	0.18500 0.18550 -0.00000 0.05100
C 	C 	0.09763 0.09735 -0.00000 -0.15600
C 	C 	0.06072 0.06116 -0.00000 0.40100
C 	C 	0.83704 0.83688 -0.00000 -0.01700
H 	H 	0.81500 0.81450 -0.00000 0.05900
C 	C 	0.90237 0.90265 -0.00000 -0.09900
C 	C 	0.93928 0.93884 -0.00000 0.37900
C 	C 	0.83688 0.16296 -0.00000 -0.00500
H 	H 	0.81450 0.18500 -0.00000 0.05500
C 	C 	0.90265 0.09763 -0.00000 -0.12500
C 	C 	0.93884 0.06072 -0.00000 0.38900
C 	C 	0.16312 0.83704 -0.00000 -0.00500
H 	H 	0.18550 0.81500 -0.00000 0.05500
C 	C 	0.09735 0.90237 -0.00000 -0.13000
C 	C 	0.06116 0.93928 -0.00000 0.39000
O 	O 	0.69521 0.69528 0.73930 -0.31200
O 	O 	0.64979 0.64970 0.85020 -0.42300
O 	O 	0.54770 0.54748 0.60900 -0.46900
C 	C 	0.64704 0.64699 0.61660 -0.08900
C 	C 	0.61413 0.61449 0.61730 0.06600
H 	H 	0.60280 0.60390 0.69690 0.05700
C 	C 	0.66591 0.66589 0.74480 0.33300
N 	N 	0.67610 0.95980 0.07020 -0.32600
N 	N 	0.67630 0.04020 0.07220 -0.36200
C 	C 	0.63460 0.76300 0.94610 0.10100
C 	C 	0.62850 0.81070 0.93320 0.02000
C 	C 	0.68990 0.91540 0.09610 0.09700
C 	C 	0.63440 0.23650 0.94800 0.10800
C 	C 	0.62810 0.18940 0.93210 0.02100
C 	C 	0.69570 0.17910 0.05980 -0.03200
C 	C 	0.70020 0.22690 0.07710 0.02300
C 	C 	0.73610 0.90580 0.16180 0.04100
F 	F 	0.74520 0.00070 0.12980 -0.69000
B 	B 	0.69670 0.00000 0.14270 1.47700
F 	F 	0.69000 0.99980 0.28470 -0.60100
C 	C 	0.69600 0.82010 0.94060 0.04200
C 	C 	0.70010 0.77310 0.92470 0.03600
C 	C 	0.62230 0.91400 0.05390 -0.05100
C 	C 	0.69040 0.08440 0.90370 0.11700
C 	C 	0.73550 0.09400 0.83820 0.02200
C 	C 	0.57790 0.89960 0.09970 0.03100
O 	O 	0.30479 0.30472 0.73930 -0.31200
O 	O 	0.35021 0.35030 0.85020 -0.42200
O 	O 	0.45230 0.45252 0.60900 -0.46900
C 	C 	0.35296 0.35301 0.61660 -0.08800
C 	C 	0.38587 0.38551 0.61730 0.06600
H 	H 	0.39720 0.39610 0.69690 0.05700
C 	C 	0.33409 0.33411 0.74480 0.33300
N 	N 	0.32390 0.04020 0.07020 -0.35600
N 	N 	0.32370 0.95980 0.07220 -0.33500
C 	C 	0.36540 0.23700 0.94610 0.10100
C 	C 	0.37150 0.18930 0.93320 0.02000
C 	C 	0.31010 0.08460 0.09610 0.09300
C 	C 	0.36560 0.76350 0.94800 0.10800
C 	C 	0.37190 0.81060 0.93210 0.02400
C 	C 	0.30430 0.82090 0.05980 -0.03200
C 	C 	0.29980 0.77310 0.07710 0.02300
C 	C 	0.26390 0.09420 0.16180 0.00300
F 	F 	0.25480 0.99930 0.12980 -0.60500
B 	B 	0.30330 0.00000 0.14270 1.47200
F 	F 	0.31000 0.00020 0.28470 -0.69300
C 	C 	0.30400 0.17990 0.94060 0.04200
C 	C 	0.29990 0.22690 0.92470 0.03700
C 	C 	0.37770 0.08600 0.05390 -0.04200
C 	C 	0.30960 0.91560 0.90370 0.12000
C 	C 	0.26450 0.90600 0.83820 0.04600
C 	C 	0.42210 0.10040 0.09970 0.00500
O 	O 	0.30472 0.69521 0.73930 -0.31200
O 	O 	0.35030 0.64979 0.85020 -0.42300
O 	O 	0.45252 0.54770 0.60900 -0.46900
C 	C 	0.35301 0.64704 0.61660 -0.08900
C 	C 	0.38551 0.61413 0.61730 0.06600
H 	H 	0.39610 0.60280 0.69690 0.05700
C 	C 	0.33411 0.66591 0.74480 0.33300
N 	N 	0.04020 0.67610 0.07020 -0.35600
N 	N 	0.95980 0.67630 0.07220 -0.33500
C 	C 	0.23700 0.63460 0.94610 0.10100
C 	C 	0.18930 0.62850 0.93320 0.02000
C 	C 	0.08460 0.68990 0.09610 0.09300
C 	C 	0.76350 0.63440 0.94800 0.10800
C 	C 	0.81060 0.62810 0.93210 0.02400
C 	C 	0.82090 0.69570 0.05980 -0.03200
C 	C 	0.77310 0.70020 0.07710 0.02200
C 	C 	0.09420 0.73610 0.16180 0.00300
F 	F 	0.99930 0.74520 0.12980 -0.60500
B 	B 	0.00000 0.69670 0.14270 1.47300
F 	F 	0.00020 0.69000 0.28470 -0.69200
C 	C 	0.17990 0.69600 0.94060 0.04200
C 	C 	0.22690 0.70010 0.92470 0.03700
C 	C 	0.08600 0.62230 0.05390 -0.04200
C 	C 	0.91560 0.69040 0.90370 0.12000
C 	C 	0.90600 0.73550 0.83820 0.04600
C 	C 	0.10040 0.57790 0.09970 0.00500
O 	O 	0.69528 0.30479 0.73930 -0.31200
O 	O 	0.64970 0.35021 0.85020 -0.42300
O 	O 	0.54748 0.45230 0.60900 -0.46900
C 	C 	0.64699 0.35296 0.61660 -0.08800
C 	C 	0.61449 0.38587 0.61730 0.06600
H 	H 	0.60390 0.39720 0.69690 0.05700
C 	C 	0.66589 0.33409 0.74480 0.33300
N 	N 	0.95980 0.32390 0.07020 -0.32500
N 	N 	0.04020 0.32370 0.07220 -0.36200
C 	C 	0.76300 0.36540 0.94610 0.10100
C 	C 	0.81070 0.37150 0.93320 0.02000
C 	C 	0.91540 0.31010 0.09610 0.09700
C 	C 	0.23650 0.36560 0.94800 0.10800
C 	C 	0.18940 0.37190 0.93210 0.02100
C 	C 	0.17910 0.30430 0.05980 -0.03100
C 	C 	0.22690 0.29980 0.07710 0.02300
C 	C 	0.90580 0.26390 0.16180 0.04100
F 	F 	0.00070 0.25480 0.12980 -0.69100
B 	B 	0.00000 0.30330 0.14270 1.47600
F 	F 	0.99980 0.31000 0.28470 -0.60100
C 	C 	0.82010 0.30400 0.94060 0.04200
C 	C 	0.77310 0.29990 0.92470 0.03700
C 	C 	0.91400 0.37770 0.05390 -0.05100
C 	C 	0.08440 0.30960 0.90370 0.11700
C 	C 	0.09400 0.26450 0.83820 0.02200
C 	C 	0.89960 0.42210 0.09970 0.03200
O 	O 	0.30479 0.30472 0.26070 -0.31300
O 	O 	0.35021 0.35030 0.14980 -0.44300
O 	O 	0.45230 0.45252 0.39100 -0.47500
C 	C 	0.35296 0.35301 0.38340 -0.09200
C 	C 	0.38587 0.38551 0.38270 0.06800
H 	H 	0.39720 0.39610 0.30310 0.05000
C 	C 	0.33409 0.33411 0.25520 0.33700
N 	N 	0.32390 0.04020 0.92980 -0.33800
N 	N 	0.32370 0.95980 0.92780 -0.31600
C 	C 	0.36540 0.23700 0.05390 -0.00400
C 	C 	0.37150 0.18930 0.06680 0.00200
C 	C 	0.31010 0.08460 0.90390 0.10700
C 	C 	0.36560 0.76350 0.05200 -0.01300
C 	C 	0.37190 0.81060 0.06790 0.00900
C 	C 	0.30430 0.82090 0.94020 0.04600
C 	C 	0.29980 0.77310 0.92290 0.03300
C 	C 	0.26390 0.09420 0.83820 0.01500
F 	F 	0.25480 0.99930 0.87020 -0.59100
B 	B 	0.30330 0.00000 0.85730 1.48200
F 	F 	0.31000 0.00020 0.71530 -0.69500
C 	C 	0.30400 0.17990 0.05940 -0.03300
C 	C 	0.29990 0.22690 0.07530 0.02400
C 	C 	0.37770 0.08600 0.94610 0.06900
C 	C 	0.30960 0.91560 0.09630 0.09200
C 	C 	0.26450 0.90600 0.16180 0.03600
C 	C 	0.42210 0.10040 0.90030 0.01100
O 	O 	0.69521 0.69528 0.26070 -0.31400
O 	O 	0.64979 0.64970 0.14980 -0.44400
O 	O 	0.54770 0.54748 0.39100 -0.47500
C 	C 	0.64704 0.64699 0.38340 -0.09200
C 	C 	0.61413 0.61449 0.38270 0.06800
H 	H 	0.60280 0.60390 0.30310 0.05000
C 	C 	0.66591 0.66589 0.25520 0.33700
N 	N 	0.67610 0.95980 0.92980 -0.30800
N 	N 	0.67630 0.04020 0.92780 -0.34300
C 	C 	0.63460 0.76300 0.05390 -0.00400
C 	C 	0.62850 0.81070 0.06680 0.00200
C 	C 	0.68990 0.91540 0.90390 0.11000
C 	C 	0.63440 0.23650 0.05200 -0.01300
C 	C 	0.62810 0.18940 0.06790 0.00600
C 	C 	0.69570 0.17910 0.94020 0.04600
C 	C 	0.70020 0.22690 0.92290 0.03400
C 	C 	0.73610 0.90580 0.83820 0.05300
F 	F 	0.74520 0.00070 0.87020 -0.67700
B 	B 	0.69670 0.00000 0.85730 1.48700
F 	F 	0.69000 0.99980 0.71530 -0.60400
C 	C 	0.69600 0.82010 0.05940 -0.03400
C 	C 	0.70010 0.77310 0.07530 0.02300
C 	C 	0.62230 0.91400 0.94610 0.06100
C 	C 	0.69040 0.08440 0.09630 0.08900
C 	C 	0.73550 0.09400 0.16180 0.01200
C 	C 	0.57790 0.89960 0.90030 0.03800
O 	O 	0.69528 0.30479 0.26070 -0.31300
O 	O 	0.64970 0.35021 0.14980 -0.44300
O 	O 	0.54748 0.45230 0.39100 -0.47500
C 	C 	0.64699 0.35296 0.38340 -0.09200
C 	C 	0.61449 0.38587 0.38270 0.06800
H 	H 	0.60390 0.39720 0.30310 0.05000
C 	C 	0.66589 0.33409 0.25520 0.33700
N 	N 	0.95980 0.32390 0.92980 -0.30800
N 	N 	0.04020 0.32370 0.92780 -0.34300
C 	C 	0.76300 0.36540 0.05390 -0.00400
C 	C 	0.81070 0.37150 0.06680 0.00200
C 	C 	0.91540 0.31010 0.90390 0.11000
C 	C 	0.23650 0.36560 0.05200 -0.01200
C 	C 	0.18940 0.37190 0.06790 0.00700
C 	C 	0.17910 0.30430 0.94020 0.04600
C 	C 	0.22690 0.29980 0.92290 0.03400
C 	C 	0.90580 0.26390 0.83820 0.05300
F 	F 	0.00070 0.25480 0.87020 -0.67800
B 	B 	0.00000 0.30330 0.85730 1.48600
F 	F 	0.99980 0.31000 0.71530 -0.60400
C 	C 	0.82010 0.30400 0.05940 -0.03300
C 	C 	0.77310 0.29990 0.07530 0.02400
C 	C 	0.91400 0.37770 0.94610 0.06100
C 	C 	0.08440 0.30960 0.09630 0.08900
C 	C 	0.09400 0.26450 0.16180 0.01200
C 	C 	0.89960 0.42210 0.90030 0.03800
O 	O 	0.30472 0.69521 0.26070 -0.31400
O 	O 	0.35030 0.64979 0.14980 -0.44300
O 	O 	0.45252 0.54770 0.39100 -0.47500
C 	C 	0.35301 0.64704 0.38340 -0.09200
C 	C 	0.38551 0.61413 0.38270 0.06800
H 	H 	0.39610 0.60280 0.30310 0.05000
C 	C 	0.33411 0.66591 0.25520 0.33700
N 	N 	0.04020 0.67610 0.92980 -0.33800
N 	N 	0.95980 0.67630 0.92780 -0.31600
C 	C 	0.23700 0.63460 0.05390 -0.00400
C 	C 	0.18930 0.62850 0.06680 0.00200
C 	C 	0.08460 0.68990 0.90390 0.10700
C 	C 	0.76350 0.63440 0.05200 -0.01300
C 	C 	0.81060 0.62810 0.06790 0.00900
C 	C 	0.82090 0.69570 0.94020 0.04500
C 	C 	0.77310 0.70020 0.92290 0.03300
C 	C 	0.09420 0.73610 0.83820 0.01500
F 	F 	0.99930 0.74520 0.87020 -0.59100
B 	B 	-0.00000 0.69670 0.85730 1.48300
F 	F 	0.00020 0.69000 0.71530 -0.69500
C 	C 	0.17990 0.69600 0.05940 -0.03400
C 	C 	0.22690 0.70010 0.07530 0.02400
C 	C 	0.08600 0.62230 0.94610 0.06900
C 	C 	0.91560 0.69040 0.09630 0.09200
C 	C 	0.90600 0.73550 0.16180 0.03600
C 	C 	0.10040 0.57790 0.90030 0.01100
Zn	Zn	0.50000 0.50000 0.64489 1.20600
Zn	Zn	0.50000 0.50000 0.35511 1.20300
Zn	Zn	0.67847 0.67839 -0.00000 1.20900
N 	N 	0.66859 0.74615 -0.00000 -0.28000
N 	N 	0.66841 0.25377 -0.00000 -0.27800
C 	C 	0.66080 0.83840 -0.00000 -0.02300
C 	C 	0.65630 0.88710 -0.00000 -0.05400
C 	C 	0.63440 0.96070 -0.00000 0.11100
C 	C 	0.63450 0.03890 -0.00000 0.04700
C 	C 	0.62260 0.08620 -0.00000 -0.00900
C 	C 	0.65650 0.11390 -0.00000 -0.03400
C 	C 	0.66080 0.16140 -0.00000 -0.03000
Zn	Zn	0.32153 0.32161 -0.00000 1.21000
N 	N 	0.33141 0.25385 -0.00000 -0.27900
N 	N 	0.33159 0.74623 -0.00000 -0.27800
C 	C 	0.33920 0.16160 -0.00000 -0.02100
C 	C 	0.34370 0.11290 -0.00000 -0.05700
C 	C 	0.36560 0.03930 -0.00000 0.03900
C 	C 	0.36550 0.96110 -0.00000 0.12900
C 	C 	0.37740 0.91380 -0.00000 -0.00800
C 	C 	0.34350 0.88610 -0.00000 -0.03300
C 	C 	0.33920 0.83860 -0.00000 -0.03000
Zn	Zn	0.32161 0.67847 -0.00000 1.20900
N 	N 	0.25385 0.66859 -0.00000 -0.28000
N 	N 	0.74623 0.66841 -0.00000 -0.27800
C 	C 	0.16160 0.66080 -0.00000 -0.02100
C 	C 	0.11290 0.65630 -0.00000 -0.05700
C 	C 	0.03930 0.63440 -0.00000 0.03900
C 	C 	0.96110 0.63450 -0.00000 0.12800
C 	C 	0.91380 0.62260 -0.00000 -0.00800
C 	C 	0.88610 0.65650 -0.00000 -0.03300
C 	C 	0.83860 0.66080 -0.00000 -0.03000
Zn	Zn	0.67839 0.32153 -0.00000 1.20900
N 	N 	0.74615 0.33141 -0.00000 -0.27900
N 	N 	0.25377 0.33159 -0.00000 -0.27800
C 	C 	0.83840 0.33920 -0.00000 -0.02300
C 	C 	0.88710 0.34370 -0.00000 -0.05400
C 	C 	0.96070 0.36560 -0.00000 0.11100
C 	C 	0.03890 0.36550 -0.00000 0.04700
C 	C 	0.08620 0.37740 -0.00000 -0.00900
C 	C 	0.11390 0.34350 -0.00000 -0.03400
C 	C 	0.16140 0.33920 -0.00000 -0.03000
C 	C 	0.66296 0.66312 0.50000 0.04900
H 	H 	0.68500 0.68550 0.50000 0.04800
C 	C 	0.59763 0.59735 0.50000 -0.10700
C 	C 	0.56072 0.56116 0.50000 0.43000
C 	C 	0.33704 0.33688 0.50000 0.04900
H 	H 	0.31500 0.31450 0.50000 0.04900
C 	C 	0.40237 0.40265 0.50000 -0.10700
C 	C 	0.43928 0.43884 0.50000 0.43000
C 	C 	0.33688 0.66296 0.50000 0.04900
H 	H 	0.31450 0.68500 0.50000 0.04800
C 	C 	0.40265 0.59763 0.50000 -0.10700
C 	C 	0.43884 0.56072 0.50000 0.43000
C 	C 	0.66312 0.33704 0.50000 0.04900
H 	H 	0.68550 0.31500 0.50000 0.04800
C 	C 	0.59735 0.40237 0.50000 -0.10700
C 	C 	0.56116 0.43928 0.50000 0.43000
