data_crystal

_cell_length_a 19.89410
_cell_length_b 25.41250
_cell_length_c 25.41250
_cell_angle_alpha 120.00000
_cell_angle_beta  90.00000
_cell_angle_gamma 90.00000

_symmetry_space_group_name_	'P 1'
_symmetry_space_group_name_H-M	'P 1'

loop_
_symmetry_equiv_pos_as_xyz
  x,y,z

loop_
_atom_site_label
_atom_site_type_symbol
_atom_site_fract_x
_atom_site_fract_y
_atom_site_fract_z
_atom_site_charge
B 	B 	0.00000 0.54120 0.09520 1.69000
C 	C 	0.00000 0.41800 0.07600 -0.09600
C 	C 	-0.00000 0.35400 0.07000 -0.13900
F 	F 	-0.00000 0.59470 0.15090 -0.74900
F 	F 	-0.00000 0.58090 0.06260 -0.65900
B 	B 	-0.00000 0.55400 0.45880 1.69500
C 	C 	-0.00000 0.65800 0.58200 -0.09700
C 	C 	0.00000 0.71600 0.64600 -0.13700
F 	F 	-0.00000 0.55620 0.40530 -0.74400
F 	F 	-0.00000 0.48170 0.41910 -0.65700
B 	B 	-0.00000 0.90480 0.44600 1.69100
C 	C 	-0.00000 0.92400 0.34200 -0.09900
C 	C 	0.00000 0.93000 0.28400 -0.12300
F 	F 	0.00000 0.84910 0.44380 -0.74600
F 	F 	0.00000 0.93740 0.51830 -0.66400
H 	H 	0.00000 0.44398 0.12780 0.04400
H 	H 	-0.00000 0.68382 0.55602 0.04400
H 	H 	-0.00000 0.87220 0.31618 0.04400
H 	H 	0.61919 0.57046 0.12624 0.00400
H 	H 	0.74450 0.57453 0.13664 0.05300
H 	H 	0.75072 0.38416 0.00423 0.05000
H 	H 	0.83503 0.57565 0.04838 0.08100
H 	H 	0.89845 0.61801 0.10900 0.13200
H 	H 	0.81067 0.61052 0.12978 0.07500
H 	H 	0.87550 0.33428 0.00600 0.06300
H 	H 	0.79884 0.36590 0.05367 0.06100
H 	H 	0.88041 0.36613 0.08968 0.05900
H 	H 	0.05331 0.34174 0.07645 0.04700
C 	C 	0.65040 0.52770 0.09820 0.07100
C 	C 	0.65240 0.42900 0.02860 0.05500
C 	C 	0.71870 0.53010 0.10330 -0.11400
C 	C 	0.72190 0.42840 0.03230 -0.10500
C 	C 	0.75570 0.48130 0.06990 0.10200
C 	C 	0.83100 0.48160 0.07130 -0.13000
C 	C 	0.87220 0.52720 0.09460 0.20800
C 	C 	0.87190 0.43420 0.06050 0.03500
C 	C 	0.85280 0.58680 0.09550 -0.22200
C 	C 	0.93840 0.44900 0.07000 0.11700
C 	C 	0.85560 0.37100 0.05190 -0.15800
N 	N 	0.61640 0.47856 0.06246 -0.22900
N 	N 	0.93840 0.50740 0.08940 -0.46400
H 	H 	0.61919 0.55578 0.42954 0.00400
H 	H 	0.74450 0.56211 0.42547 0.05500
H 	H 	0.75072 0.62007 0.61584 0.04900
H 	H 	0.88415 0.46905 0.40857 0.10800
H 	H 	0.86281 0.51534 0.37273 0.10400
H 	H 	0.79719 0.49859 0.41452 0.07200
H 	H 	0.81816 0.66631 0.65323 0.05800
H 	H 	0.83288 0.71907 0.62352 0.06200
H 	H 	0.90372 0.69766 0.65694 0.06000
H 	H 	0.97299 0.70599 0.67959 0.06100
C 	C 	0.65040 0.57050 0.47230 0.07200
C 	C 	0.65240 0.59960 0.57100 0.05500
C 	C 	0.71870 0.57320 0.46990 -0.11800
C 	C 	0.72190 0.60390 0.57160 -0.10300
C 	C 	0.75570 0.58860 0.51870 0.10200
C 	C 	0.83100 0.58970 0.51840 -0.13100
C 	C 	0.87220 0.56740 0.47280 0.20700
C 	C 	0.87190 0.62630 0.56580 0.03600
C 	C 	0.85280 0.50870 0.41320 -0.21900
C 	C 	0.93840 0.62100 0.55100 0.11900
C 	C 	0.85560 0.68090 0.62900 -0.15500
N 	N 	0.61640 0.58390 0.52144 -0.22900
N 	N 	0.93840 0.58200 0.49260 -0.46400
H 	H 	0.61919 0.87376 0.44422 0.00400
H 	H 	0.74450 0.86336 0.43789 0.05500
H 	H 	0.75072 0.99577 0.37993 0.05000
H 	H 	0.82512 0.86045 0.47865 0.08300
H 	H 	0.81878 0.94485 0.52054 0.07800
H 	H 	0.90025 0.90754 0.51783 0.13300
H 	H 	0.87399 0.90689 0.27544 0.05900
H 	H 	0.88181 0.99069 0.32520 0.06400
H 	H 	0.79896 0.95308 0.31632 0.06000
H 	H 	0.02701 0.88932 0.24565 0.04600
C 	C 	0.65040 0.90180 0.42950 0.07100
C 	C 	0.65240 0.97140 0.40040 0.05500
C 	C 	0.71870 0.89670 0.42680 -0.11600
C 	C 	0.72190 0.96770 0.39610 -0.10400
C 	C 	0.75570 0.93010 0.41140 0.10300
C 	C 	0.83100 0.92870 0.41030 -0.13100
C 	C 	0.87220 0.90540 0.43260 0.20900
C 	C 	0.87190 0.93950 0.37370 0.03500
C 	C 	0.85280 0.90450 0.49130 -0.22600
C 	C 	0.93840 0.93000 0.37900 0.11900
C 	C 	0.85560 0.94810 0.31910 -0.15900
N 	N 	0.61640 0.93754 0.41610 -0.22900
N 	N 	0.93840 0.91060 0.41800 -0.46400
H 	H 	0.62429 0.61416 0.00443 0.01100
H 	H 	0.62429 0.39027 0.38584 0.01000
H 	H 	0.62429 0.99557 0.60973 0.01000
H 	H 	0.37571 0.61416 0.00443 0.01000
H 	H 	0.37571 0.39027 0.38584 0.01000
H 	H 	0.37571 0.99557 0.60973 0.01000
H 	H 	0.38081 0.57046 0.12624 0.00400
H 	H 	0.25550 0.57453 0.13664 0.05200
H 	H 	0.24928 0.38416 0.00423 0.04900
H 	H 	0.10155 0.61801 0.10900 0.12700
H 	H 	0.16497 0.57565 0.04838 0.08000
H 	H 	0.18933 0.61052 0.12978 0.07400
H 	H 	0.20116 0.36590 0.05367 0.06000
H 	H 	0.12450 0.33428 0.00600 0.06100
H 	H 	0.11959 0.36613 0.08968 0.05500
H 	H 	0.98096 0.31896 0.02299 0.06700
C 	C 	0.34960 0.52770 0.09820 0.07100
C 	C 	0.34760 0.42900 0.02860 0.05500
C 	C 	0.28130 0.53010 0.10330 -0.11400
C 	C 	0.27810 0.42840 0.03230 -0.10500
C 	C 	0.24430 0.48130 0.06990 0.10200
C 	C 	0.16900 0.48160 0.07130 -0.13100
C 	C 	0.12780 0.52720 0.09460 0.20500
C 	C 	0.12810 0.43420 0.06050 0.03800
C 	C 	0.14720 0.58680 0.09550 -0.22200
C 	C 	0.06160 0.44900 0.07000 0.10500
C 	C 	0.14440 0.37100 0.05190 -0.15800
N 	N 	0.38360 0.47856 0.06246 -0.22900
N 	N 	0.06160 0.50740 0.08940 -0.46800
H 	H 	0.38081 0.55578 0.42954 0.00400
H 	H 	0.25550 0.56211 0.42547 0.05400
H 	H 	0.24928 0.62007 0.61584 0.04800
H 	H 	0.13719 0.51534 0.37273 0.10000
H 	H 	0.11585 0.46905 0.40857 0.10400
H 	H 	0.20281 0.49859 0.41452 0.07100
H 	H 	0.16712 0.71907 0.62352 0.06000
H 	H 	0.18184 0.66631 0.65323 0.05600
H 	H 	0.09628 0.69766 0.65694 0.05400
H 	H 	0.97299 0.75435 0.64367 0.06100
C 	C 	0.34960 0.57050 0.47230 0.07200
C 	C 	0.34760 0.59960 0.57100 0.05500
C 	C 	0.28130 0.57320 0.46990 -0.11800
C 	C 	0.27810 0.60390 0.57160 -0.10300
C 	C 	0.24430 0.58860 0.51870 0.10100
C 	C 	0.16900 0.58970 0.51840 -0.13200
C 	C 	0.12780 0.56740 0.47280 0.20500
C 	C 	0.12810 0.62630 0.56580 0.03800
C 	C 	0.14720 0.50870 0.41320 -0.21900
C 	C 	0.06160 0.62100 0.55100 0.10700
C 	C 	0.14440 0.68090 0.62900 -0.15400
N 	N 	0.38360 0.58390 0.52144 -0.22900
N 	N 	0.06160 0.58200 0.49260 -0.46800
H 	H 	0.38081 0.87376 0.44422 0.00400
H 	H 	0.25550 0.86336 0.43789 0.05400
H 	H 	0.24928 0.99577 0.37993 0.04900
H 	H 	0.18122 0.94485 0.52054 0.07700
H 	H 	0.17488 0.86045 0.47865 0.08100
H 	H 	0.09975 0.90754 0.51783 0.12800
H 	H 	0.11819 0.99069 0.32520 0.06000
H 	H 	0.12601 0.90689 0.27544 0.05800
H 	H 	0.20104 0.95308 0.31632 0.05900
H 	H 	0.02701 0.97361 0.29401 0.05100
C 	C 	0.34960 0.90180 0.42950 0.07100
C 	C 	0.34760 0.97140 0.40040 0.05500
C 	C 	0.28130 0.89670 0.42680 -0.11600
C 	C 	0.27810 0.96770 0.39610 -0.10400
C 	C 	0.24430 0.93010 0.41140 0.10200
C 	C 	0.16900 0.92870 0.41030 -0.13200
C 	C 	0.12780 0.90540 0.43260 0.20600
C 	C 	0.12810 0.93950 0.37370 0.03700
C 	C 	0.14720 0.90450 0.49130 -0.22500
C 	C 	0.06160 0.93000 0.37900 0.10600
C 	C 	0.14440 0.94810 0.31910 -0.15800
N 	N 	0.38360 0.93754 0.41610 -0.22900
N 	N 	0.06160 0.91060 0.41800 -0.46900
Cd	Cd	0.50000 0.47355 0.06174 1.22700
H 	H 	0.50000 0.56847 0.28929 0.04600
H 	H 	0.50000 0.37036 0.17491 0.04800
H 	H 	0.50000 0.55713 0.38306 0.03600
H 	H 	0.50000 0.35979 0.26940 0.04200
C 	C 	0.50000 0.47300 0.16920 0.33200
C 	C 	0.50000 0.47040 0.22680 -0.07400
C 	C 	0.50000 0.52120 0.28400 -0.00600
C 	C 	0.50000 0.41300 0.22170 -0.01100
C 	C 	0.50000 0.51500 0.33590 0.00300
C 	C 	0.50000 0.40690 0.27430 0.00700
C 	C 	0.50000 0.45830 0.33030 -0.10700
C 	C 	0.50000 0.45160 0.38540 0.37400
O 	O 	0.50000 0.52360 0.17310 -0.37000
O 	O 	0.50000 0.42600 0.12000 -0.38500
O 	O 	0.50000 0.49740 0.43690 -0.49200
O 	O 	0.50000 0.39870 0.37754 -0.40800
Cd	Cd	0.50000 0.58819 0.52645 1.22700
H 	H 	0.50000 0.72082 0.43153 0.04600
H 	H 	0.50000 0.80454 0.62964 0.04800
H 	H 	0.50000 0.82593 0.44287 0.03600
H 	H 	0.50000 0.90961 0.64021 0.04300
C 	C 	0.50000 0.69620 0.52700 0.33200
C 	C 	0.50000 0.75640 0.52960 -0.07400
C 	C 	0.50000 0.76280 0.47880 -0.00600
C 	C 	0.50000 0.80870 0.58700 -0.01100
C 	C 	0.50000 0.82090 0.48500 0.00300
C 	C 	0.50000 0.86740 0.59310 0.00700
C 	C 	0.50000 0.87200 0.54170 -0.10700
C 	C 	0.50000 0.93380 0.54840 0.37400
O 	O 	0.50000 0.64950 0.47640 -0.37000
O 	O 	0.50000 0.69400 0.57400 -0.38400
O 	O 	0.50000 0.93950 0.50260 -0.49200
O 	O 	0.50000 0.97884 0.60130 -0.40800
Cd	Cd	0.50000 0.93826 0.41181 1.22700
H 	H 	0.50000 0.71071 0.27918 0.04600
H 	H 	0.50000 0.82509 0.19546 0.04800
H 	H 	0.50000 0.61694 0.17407 0.03600
H 	H 	0.50000 0.73060 0.09039 0.04300
C 	C 	0.50000 0.83080 0.30380 0.33200
C 	C 	0.50000 0.77320 0.24360 -0.07400
C 	C 	0.50000 0.71600 0.23720 -0.00600
C 	C 	0.50000 0.77830 0.19130 -0.01100
C 	C 	0.50000 0.66410 0.17910 0.00300
C 	C 	0.50000 0.72570 0.13260 0.00700
C 	C 	0.50000 0.66970 0.12800 -0.10700
C 	C 	0.50000 0.61460 0.06620 0.37400
O 	O 	0.50000 0.82690 0.35050 -0.37000
O 	O 	0.50000 0.88000 0.30600 -0.38500
O 	O 	0.50000 0.56310 0.06050 -0.49200
O 	O 	0.50000 0.62246 0.02116 -0.40800
H 	H 	0.96573 0.35440 0.10615 0.05800
H 	H 	0.05403 0.73017 0.66163 0.04200
H 	H 	0.94597 0.93147 0.26983 0.05500
B 	B 	0.00000 0.45880 0.90480 1.69500
C 	C 	0.00000 0.58200 0.92400 -0.10200
C 	C 	-0.00000 0.64600 0.93000 -0.11900
F 	F 	0.00000 0.40530 0.84910 -0.74400
F 	F 	-0.00000 0.41910 0.93740 -0.65700
B 	B 	-0.00000 0.44600 0.54120 1.69100
C 	C 	0.00000 0.34200 0.41800 -0.10000
C 	C 	0.00000 0.28400 0.35400 -0.12200
F 	F 	0.00000 0.44380 0.59470 -0.74900
F 	F 	-0.00000 0.51830 0.58090 -0.66000
B 	B 	-0.00000 0.09520 0.55400 1.69500
C 	C 	-0.00000 0.07600 0.65800 -0.10200
C 	C 	-0.00000 0.07000 0.71600 -0.11800
F 	F 	0.00000 0.15090 0.55620 -0.74600
F 	F 	0.00000 0.06260 0.48170 -0.65400
H 	H 	-0.00000 0.55602 0.87220 0.04500
H 	H 	0.00000 0.31618 0.44398 0.04400
H 	H 	-0.00000 0.12780 0.68382 0.04500
H 	H 	0.62429 0.38584 0.99557 0.01100
H 	H 	0.62429 0.60973 0.61416 0.01100
H 	H 	0.62429 0.00443 0.39027 0.01100
H 	H 	0.61919 0.42954 0.87376 0.00400
H 	H 	0.74450 0.42547 0.86336 0.05500
H 	H 	0.75072 0.61584 0.99577 0.05000
H 	H 	0.86107 0.37286 0.85694 0.10300
H 	H 	0.79765 0.41523 0.91756 0.07200
H 	H 	0.88543 0.40773 0.93834 0.10900
H 	H 	0.82767 0.62341 0.90643 0.06200
H 	H 	0.90433 0.65503 0.95410 0.05500
H 	H 	0.82276 0.65525 0.99011 0.05800
H 	H 	0.02701 0.64367 0.88932 0.04600
C 	C 	0.65040 0.47230 0.90180 0.07200
C 	C 	0.65240 0.57100 0.97140 0.05600
C 	C 	0.71870 0.46990 0.89670 -0.11800
C 	C 	0.72190 0.57160 0.96770 -0.10300
C 	C 	0.75570 0.51870 0.93010 0.10200
C 	C 	0.83100 0.51840 0.92870 -0.13100
C 	C 	0.87220 0.47280 0.90540 0.20700
C 	C 	0.87190 0.56580 0.93950 0.03400
C 	C 	0.85280 0.41320 0.90450 -0.21900
C 	C 	0.93840 0.55100 0.93000 0.12300
C 	C 	0.85560 0.62900 0.94810 -0.15000
N 	N 	0.61640 0.52144 0.93754 -0.22900
N 	N 	0.93840 0.49260 0.91060 -0.46500
H 	H 	0.61919 0.44422 0.57046 0.00400
H 	H 	0.74450 0.43789 0.57453 0.05300
H 	H 	0.75072 0.37993 0.38416 0.05100
H 	H 	0.81195 0.48039 0.61136 0.07600
H 	H 	0.83329 0.52669 0.57551 0.08000
H 	H 	0.89891 0.50994 0.61731 0.13300
H 	H 	0.88501 0.27762 0.36410 0.05600
H 	H 	0.87030 0.33038 0.33439 0.06300
H 	H 	0.79945 0.30897 0.36782 0.06100
H 	H 	0.02701 0.24565 0.35633 0.04500
C 	C 	0.65040 0.42950 0.52770 0.07100
C 	C 	0.65240 0.40040 0.42900 0.05600
C 	C 	0.71870 0.42680 0.53010 -0.11400
C 	C 	0.72190 0.39610 0.42840 -0.10500
C 	C 	0.75570 0.41140 0.48130 0.10200
C 	C 	0.83100 0.41030 0.48160 -0.13000
C 	C 	0.87220 0.43260 0.52720 0.20800
C 	C 	0.87190 0.37370 0.43420 0.03500
C 	C 	0.85280 0.49130 0.58680 -0.22200
C 	C 	0.93840 0.37900 0.44900 0.12000
C 	C 	0.85560 0.31910 0.37100 -0.15700
N 	N 	0.61640 0.41610 0.47856 -0.22900
N 	N 	0.93840 0.41800 0.50740 -0.46400
H 	H 	0.61919 0.12624 0.55578 0.00400
H 	H 	0.74450 0.13664 0.56211 0.05300
H 	H 	0.75072 0.00423 0.62007 0.05000
H 	H 	0.87098 0.05189 0.46731 0.09600
H 	H 	0.87732 0.13629 0.50919 0.11400
H 	H 	0.79585 0.09898 0.50649 0.07000
H 	H 	0.82918 0.00645 0.66413 0.05800
H 	H 	0.82136 0.09025 0.71389 0.06200
H 	H 	0.90421 0.05264 0.70501 0.05300
H 	H 	0.02701 0.11068 0.75435 0.04600
C 	C 	0.65040 0.09820 0.57050 0.07100
C 	C 	0.65240 0.02860 0.59960 0.05600
C 	C 	0.71870 0.10330 0.57320 -0.11600
C 	C 	0.72190 0.03230 0.60390 -0.10400
C 	C 	0.75570 0.06990 0.58860 0.10100
C 	C 	0.83100 0.07130 0.58970 -0.12900
C 	C 	0.87220 0.09460 0.56740 0.20600
C 	C 	0.87190 0.06050 0.62630 0.03400
C 	C 	0.85280 0.09550 0.50870 -0.21600
C 	C 	0.93840 0.07000 0.62100 0.12300
C 	C 	0.85560 0.05190 0.68090 -0.14900
N 	N 	0.61640 0.06246 0.58390 -0.22900
N 	N 	0.93840 0.08940 0.58200 -0.46400
H 	H 	0.38081 0.42954 0.87376 0.00400
H 	H 	0.25550 0.42547 0.86336 0.05500
H 	H 	0.24928 0.61584 0.99577 0.04900
H 	H 	0.20235 0.41523 0.91756 0.07200
H 	H 	0.13893 0.37286 0.85694 0.09900
H 	H 	0.11457 0.40773 0.93834 0.10600
H 	H 	0.09567 0.65503 0.95410 0.05800
H 	H 	0.17233 0.62341 0.90643 0.06100
H 	H 	0.17724 0.65525 0.99011 0.05700
H 	H 	0.02701 0.67959 0.97361 0.04700
C 	C 	0.34960 0.47230 0.90180 0.07200
C 	C 	0.34760 0.57100 0.97140 0.05600
C 	C 	0.28130 0.46990 0.89670 -0.11800
C 	C 	0.27810 0.57160 0.96770 -0.10300
C 	C 	0.24430 0.51870 0.93010 0.10100
C 	C 	0.16900 0.51840 0.92870 -0.13200
C 	C 	0.12780 0.47280 0.90540 0.20500
C 	C 	0.12810 0.56580 0.93950 0.03800
C 	C 	0.14720 0.41320 0.90450 -0.21900
C 	C 	0.06160 0.55100 0.93000 0.10800
C 	C 	0.14440 0.62900 0.94810 -0.15700
N 	N 	0.38360 0.52144 0.93754 -0.22900
N 	N 	0.06160 0.49260 0.91060 -0.46900
H 	H 	0.38081 0.44422 0.57046 0.00400
H 	H 	0.25550 0.43789 0.57453 0.05200
H 	H 	0.24928 0.37993 0.38416 0.05000
H 	H 	0.16671 0.52669 0.57551 0.08000
H 	H 	0.18805 0.48039 0.61136 0.07400
H 	H 	0.10109 0.50994 0.61731 0.12700
H 	H 	0.12970 0.33038 0.33439 0.06000
H 	H 	0.11499 0.27762 0.36410 0.05800
H 	H 	0.20055 0.30897 0.36782 0.06000
H 	H 	0.02701 0.29401 0.32041 0.05200
C 	C 	0.34960 0.42950 0.52770 0.07100
C 	C 	0.34760 0.40040 0.42900 0.05500
C 	C 	0.28130 0.42680 0.53010 -0.11500
C 	C 	0.27810 0.39610 0.42840 -0.10500
C 	C 	0.24430 0.41140 0.48130 0.10200
C 	C 	0.16900 0.41030 0.48160 -0.13100
C 	C 	0.12780 0.43260 0.52720 0.20500
C 	C 	0.12810 0.37370 0.43420 0.03700
C 	C 	0.14720 0.49130 0.58680 -0.22200
C 	C 	0.06160 0.37900 0.44900 0.10600
C 	C 	0.14440 0.31910 0.37100 -0.15900
N 	N 	0.38360 0.41610 0.47856 -0.22900
N 	N 	0.06160 0.41800 0.50740 -0.46800
H 	H 	0.38081 0.12624 0.55578 0.00400
H 	H 	0.25550 0.13664 0.56211 0.05200
H 	H 	0.24928 0.00423 0.62007 0.04900
H 	H 	0.12268 0.13629 0.50919 0.11000
H 	H 	0.12902 0.05189 0.46731 0.09300
H 	H 	0.20415 0.09898 0.50649 0.07000
H 	H 	0.17864 0.09025 0.71389 0.06100
H 	H 	0.17082 0.00645 0.66413 0.05800
H 	H 	0.09579 0.05264 0.70501 0.05800
H 	H 	0.02701 0.02639 0.70599 0.04800
C 	C 	0.34960 0.09820 0.57050 0.07100
C 	C 	0.34760 0.02860 0.59960 0.05600
C 	C 	0.28130 0.10330 0.57320 -0.11600
C 	C 	0.27810 0.03230 0.60390 -0.10400
C 	C 	0.24430 0.06990 0.58860 0.10100
C 	C 	0.16900 0.07130 0.58970 -0.13100
C 	C 	0.12780 0.09460 0.56740 0.20400
C 	C 	0.12810 0.06050 0.62630 0.03800
C 	C 	0.14720 0.09550 0.50870 -0.21600
C 	C 	0.06160 0.07000 0.62100 0.10700
C 	C 	0.14440 0.05190 0.68090 -0.15800
N 	N 	0.38360 0.06246 0.58390 -0.22900
N 	N 	0.06160 0.08940 0.58200 -0.46900
H 	H 	0.37571 0.38584 0.99557 0.01000
H 	H 	0.37571 0.60973 0.61416 0.01000
H 	H 	0.37571 0.00443 0.39027 0.01000
Cd	Cd	0.50000 0.52645 0.93826 1.22700
H 	H 	0.50000 0.43153 0.71071 0.04600
H 	H 	0.50000 0.62964 0.82509 0.04800
H 	H 	0.50000 0.44287 0.61694 0.03600
H 	H 	0.50000 0.64021 0.73060 0.04300
C 	C 	0.50000 0.52700 0.83080 0.33200
C 	C 	0.50000 0.52960 0.77320 -0.07400
C 	C 	0.50000 0.47880 0.71600 -0.00600
C 	C 	0.50000 0.58700 0.77830 -0.01100
C 	C 	0.50000 0.48500 0.66410 0.00300
C 	C 	0.50000 0.59310 0.72570 0.00700
C 	C 	0.50000 0.54170 0.66970 -0.10700
C 	C 	0.50000 0.54840 0.61460 0.37400
O 	O 	0.50000 0.47640 0.82690 -0.37000
O 	O 	0.50000 0.57400 0.88000 -0.38400
O 	O 	0.50000 0.50260 0.56310 -0.49200
O 	O 	0.50000 0.60130 0.62246 -0.40800
Cd	Cd	0.50000 0.41181 0.47355 1.22700
H 	H 	0.50000 0.27918 0.56847 0.04600
H 	H 	0.50000 0.19546 0.37036 0.04800
H 	H 	0.50000 0.17407 0.55713 0.03600
H 	H 	0.50000 0.09039 0.35979 0.04300
C 	C 	0.50000 0.30380 0.47300 0.33200
C 	C 	0.50000 0.24360 0.47040 -0.07400
C 	C 	0.50000 0.23720 0.52120 -0.00600
C 	C 	0.50000 0.19130 0.41300 -0.01100
C 	C 	0.50000 0.17910 0.51500 0.00300
C 	C 	0.50000 0.13260 0.40690 0.00700
C 	C 	0.50000 0.12800 0.45830 -0.10700
C 	C 	0.50000 0.06620 0.45160 0.37400
O 	O 	0.50000 0.35050 0.52360 -0.37000
O 	O 	0.50000 0.30600 0.42600 -0.38500
O 	O 	0.50000 0.06050 0.49740 -0.49200
O 	O 	0.50000 0.02116 0.39870 -0.40800
Cd	Cd	0.50000 0.06174 0.58819 1.22700
H 	H 	0.50000 0.28929 0.72082 0.04600
H 	H 	0.50000 0.17491 0.80454 0.04800
H 	H 	0.50000 0.38306 0.82593 0.03600
H 	H 	0.50000 0.26940 0.90961 0.04300
C 	C 	0.50000 0.16920 0.69620 0.33200
C 	C 	0.50000 0.22680 0.75640 -0.07400
C 	C 	0.50000 0.28400 0.76280 -0.00600
C 	C 	0.50000 0.22170 0.80870 -0.01100
C 	C 	0.50000 0.33590 0.82090 0.00300
C 	C 	0.50000 0.27430 0.86740 0.00700
C 	C 	0.50000 0.33030 0.87200 -0.10700
C 	C 	0.50000 0.38540 0.93380 0.37400
O 	O 	0.50000 0.17310 0.64950 -0.37000
O 	O 	0.50000 0.12000 0.69400 -0.38400
O 	O 	0.50000 0.43690 0.93950 -0.49200
O 	O 	0.50000 0.37754 0.97884 -0.40800
H 	H 	0.94597 0.66163 0.93147 0.04600
H 	H 	0.94597 0.26983 0.33837 0.05200
H 	H 	0.94597 0.06853 0.73017 0.04400
