data_crystal

_cell_length_a 13.21460
_cell_length_b 14.42650
_cell_length_c 14.42650
_cell_angle_alpha 100.82000
_cell_angle_beta  92.28060
_cell_angle_gamma 92.28060

_symmetry_space_group_name_	'P 1'
_symmetry_space_group_name_H-M	'P 1'

loop_
_symmetry_equiv_pos_as_xyz
  x,y,z

loop_
_atom_site_label
_atom_site_type_symbol
_atom_site_fract_x
_atom_site_fract_y
_atom_site_fract_z
_atom_site_charge
Ni	Ni	0.25499 0.58944 0.02488 1.09600
Ni	Ni	0.24501 0.97512 0.41056 1.12800
Ni	Ni	0.74501 0.41056 0.97512 1.12900
Ni	Ni	0.75499 0.02488 0.58944 1.09800
Ni	Ni	0.50000 0.50000 -0.00000 1.12400
Ni	Ni	-0.00000 0.00000 0.50000 1.10300
H 	H 	0.08020 0.52750 0.14410 0.04100
H 	H 	0.07850 0.54610 0.87890 0.04200
H 	H 	0.38940 0.17570 0.24170 0.04700
H 	H 	0.24610 0.80950 0.06650 0.02400
H 	H 	0.43540 0.29850 0.16670 0.07100
H 	H 	0.16020 0.40270 0.20150 0.04100
H 	H 	0.11260 0.27820 0.27400 0.04300
H 	H 	0.42300 0.31470 0.74450 0.06100
H 	H 	0.13870 0.37760 0.80560 0.05000
H 	H 	0.24050 0.63610 0.24150 0.03200
H 	H 	0.41980 0.85590 0.47250 0.03600
H 	H 	0.42150 0.12110 0.45390 0.05700
H 	H 	0.11060 0.75830 0.82430 0.05900
H 	H 	0.25390 0.93350 0.19050 0.04600
H 	H 	0.06460 0.83330 0.70150 0.06200
H 	H 	0.33980 0.79850 0.59730 0.04700
H 	H 	0.38740 0.72600 0.72180 0.06300
H 	H 	0.07700 0.25550 0.68530 0.04300
H 	H 	0.36130 0.19440 0.62240 0.04700
H 	H 	0.25950 0.75850 0.36390 0.03400
H 	H 	0.91980 0.47250 0.85590 0.01200
H 	H 	0.92150 0.45390 0.12110 0.03100
H 	H 	0.61060 0.82430 0.75830 0.06800
H 	H 	0.75390 0.19050 0.93350 0.05000
H 	H 	0.56460 0.70150 0.83330 0.07800
H 	H 	0.83980 0.59730 0.79850 0.05500
H 	H 	0.88740 0.72180 0.72600 0.07500
H 	H 	0.57700 0.68530 0.25550 0.05600
H 	H 	0.86130 0.62240 0.19440 0.05400
H 	H 	0.75950 0.36390 0.75850 0.03900
H 	H 	0.58020 0.14410 0.52750 0.01600
H 	H 	0.57850 0.87890 0.54610 0.01900
H 	H 	0.88940 0.24170 0.17570 0.05700
H 	H 	0.74610 0.06650 0.80950 0.02900
H 	H 	0.93540 0.16670 0.29850 0.08700
H 	H 	0.66020 0.20150 0.40270 0.04900
H 	H 	0.61260 0.27400 0.27820 0.05600
H 	H 	0.92300 0.74450 0.31470 0.07400
H 	H 	0.63870 0.80560 0.37760 0.05800
H 	H 	0.74050 0.24150 0.63610 0.03800
C 	C 	0.04860 0.51700 0.08400 -0.06800
C 	C 	0.04760 0.52780 0.92980 -0.02200
C 	C 	0.34260 0.21990 0.23230 -0.02300
C 	C 	0.32560 0.43350 0.86910 0.38900
C 	C 	0.33070 0.43650 0.11910 0.36000
C 	C 	0.28610 0.35630 0.78830 -0.06500
C 	C 	0.30220 0.36060 0.17340 -0.07000
C 	C 	0.20970 0.13160 0.30820 0.31600
C 	C 	0.24740 0.79690 0.12750 0.01300
C 	C 	0.37000 0.29390 0.18750 -0.02800
C 	C 	0.24480 0.21280 0.26260 -0.06400
C 	C 	0.20550 0.35640 0.20780 -0.02300
C 	C 	0.17750 0.28190 0.25170 -0.02800
C 	C 	0.35350 0.30270 0.73310 -0.02500
C 	C 	0.18370 0.33980 0.76960 -0.02300
C 	C 	0.24560 0.69690 0.22870 0.00500
C 	C 	0.45140 0.91600 0.48300 -0.00600
C 	C 	0.45240 0.07020 0.47220 -0.06400
C 	C 	0.15740 0.76770 0.78010 -0.03200
C 	C 	0.17440 0.13090 0.56650 0.40100
C 	C 	0.16930 0.88090 0.56350 0.36600
C 	C 	0.21390 0.21170 0.64370 -0.08700
C 	C 	0.19780 0.82660 0.63940 -0.07100
C 	C 	0.29030 0.69180 0.86840 0.30800
C 	C 	0.25260 0.87250 0.20310 0.00700
C 	C 	0.13000 0.81250 0.70610 -0.01000
C 	C 	0.25520 0.73740 0.78720 -0.03700
C 	C 	0.29450 0.79220 0.64360 -0.00400
C 	C 	0.32250 0.74830 0.71810 -0.03500
C 	C 	0.14650 0.26690 0.69730 -0.00800
C 	C 	0.31630 0.23040 0.66020 -0.00500
C 	C 	0.25440 0.77130 0.30310 0.00200
C 	C 	0.95140 0.48300 0.91600 0.09500
C 	C 	0.95240 0.47220 0.07020 0.04300
C 	C 	0.65740 0.78010 0.76770 -0.02800
C 	C 	0.67440 0.56650 0.13090 0.39900
C 	C 	0.66930 0.56350 0.88090 0.36500
C 	C 	0.71390 0.64370 0.21170 -0.08000
C 	C 	0.69780 0.63940 0.82660 -0.06300
C 	C 	0.79030 0.86840 0.69180 0.30600
C 	C 	0.75260 0.20310 0.87250 0.01300
C 	C 	0.63000 0.70610 0.81250 -0.00900
C 	C 	0.75520 0.78720 0.73740 -0.03000
C 	C 	0.79450 0.64360 0.79220 -0.00100
C 	C 	0.82250 0.71810 0.74830 -0.03300
C 	C 	0.64650 0.69730 0.26690 -0.00600
C 	C 	0.81630 0.66020 0.23040 -0.00100
C 	C 	0.75440 0.30310 0.77130 0.00900
C 	C 	0.54860 0.08400 0.51700 0.04000
C 	C 	0.54760 0.92980 0.52780 0.07600
C 	C 	0.84260 0.23230 0.21990 -0.01800
C 	C 	0.82560 0.86910 0.43350 0.38500
C 	C 	0.83070 0.11910 0.43650 0.35700
C 	C 	0.78610 0.78830 0.35630 -0.05700
C 	C 	0.80220 0.17340 0.36060 -0.06000
C 	C 	0.70970 0.30820 0.13160 0.31400
C 	C 	0.74740 0.12750 0.79690 0.01800
C 	C 	0.87000 0.18750 0.29390 -0.02800
C 	C 	0.74480 0.26260 0.21280 -0.05600
C 	C 	0.70550 0.20780 0.35640 -0.02000
C 	C 	0.67750 0.25170 0.28190 -0.02600
C 	C 	0.85350 0.73310 0.30270 -0.02300
C 	C 	0.68370 0.76960 0.33980 -0.02100
C 	C 	0.74560 0.22870 0.69690 0.01100
N 	N 	0.24400 0.70700 0.13820 -0.19800
N 	N 	0.09650 0.54500 0.01480 -0.19800
N 	N 	0.25600 0.86180 0.29300 -0.18900
N 	N 	0.40350 0.98520 0.45500 -0.14200
N 	N 	0.75600 0.29300 0.86180 -0.18600
N 	N 	0.90350 0.45500 0.98520 -0.17200
N 	N 	0.74400 0.13820 0.70700 -0.19500
N 	N 	0.59650 0.01480 0.54500 -0.22500
O 	O 	0.26130 0.47900 0.91480 -0.40200
O 	O 	0.27170 0.50350 0.12110 -0.42200
O 	O 	0.27430 0.07330 0.32410 -0.40300
O 	O 	0.41980 0.44300 0.88120 -0.38800
O 	O 	0.41180 0.62040 0.02320 -0.37900
O 	O 	0.41170 0.42640 0.07620 -0.40300
O 	O 	0.11810 0.12930 0.32650 -0.27900
O 	O 	0.23870 0.08520 0.52100 -0.44800
O 	O 	0.22830 0.87890 0.49650 -0.41300
O 	O 	0.22570 0.67590 0.92670 -0.35000
O 	O 	0.08020 0.11880 0.55700 -0.43100
O 	O 	0.08820 0.97680 0.37960 -0.34500
O 	O 	0.08830 0.92380 0.57360 -0.38200
O 	O 	0.38190 0.67350 0.87070 -0.23000
O 	O 	0.73870 0.52100 0.08520 -0.44400
O 	O 	0.72830 0.49650 0.87890 -0.40700
O 	O 	0.72570 0.92670 0.67590 -0.34600
O 	O 	0.58020 0.55700 0.11880 -0.41400
O 	O 	0.58820 0.37960 0.97680 -0.32700
O 	O 	0.58830 0.57360 0.92380 -0.36400
O 	O 	0.88190 0.87070 0.67350 -0.21400
O 	O 	0.76130 0.91480 0.47900 -0.39800
O 	O 	0.77170 0.12110 0.50350 -0.41500
O 	O 	0.77430 0.32410 0.07330 -0.39700
O 	O 	0.91980 0.88120 0.44300 -0.36500
O 	O 	0.91180 0.02320 0.62040 -0.35500
O 	O 	0.91170 0.07620 0.42640 -0.37700
O 	O 	0.61810 0.32650 0.12930 -0.26200
