data_crystal

_cell_length_a 5.21330
_cell_length_b 18.41400
_cell_length_c 28.51700
_cell_angle_alpha 90.00000
_cell_angle_beta  90.00000
_cell_angle_gamma 90.00000

_symmetry_space_group_name_	'P 1'
_symmetry_space_group_name_H-M	'P 1'

loop_
_symmetry_equiv_pos_as_xyz
  x,y,z

loop_
_atom_site_label
_atom_site_type_symbol
_atom_site_fract_x
_atom_site_fract_y
_atom_site_fract_z
_atom_site_charge
Cd	Cd	0.10212 0.67025 0.65991 1.21200
Cd	Cd	0.60212 0.32975 0.34009 1.21100
Cd	Cd	0.10212 0.17025 0.84009 1.21000
Cd	Cd	0.60212 0.82975 0.15991 1.21100
H 	H 	0.30690 0.32910 0.81810 0.15900
H 	H 	0.56350 0.37150 0.82690 0.16800
H 	H 	0.15540 0.30970 0.73650 0.06600
H 	H 	0.14530 0.35270 0.66070 0.05800
H 	H 	0.78840 0.46350 0.68290 0.07300
H 	H 	0.80700 0.41980 0.75840 0.08000
H 	H 	0.61500 0.45700 0.60370 0.18000
H 	H 	0.37690 0.40700 0.59440 0.16300
H 	H 	0.34450 0.54290 0.73190 0.00500
H 	H 	0.71550 0.64290 0.75660 -0.00200
H 	H 	0.57540 0.56850 0.83360 0.03900
H 	H 	0.76180 0.50480 0.84680 0.03800
H 	H 	0.45570 0.73650 0.87350 0.19200
H 	H 	0.64610 0.73280 0.83100 0.20200
H 	H 	0.46480 0.66700 0.84180 0.20700
H 	H 	0.69240 0.80650 0.90280 0.19600
H 	H 	0.64770 0.79020 0.95610 0.20500
H 	H 	0.91340 0.82000 0.93900 0.20500
H 	H 	0.97830 0.46200 0.90030 0.19500
H 	H 	0.22450 0.49050 0.87470 0.20300
H 	H 	0.22830 0.47820 0.92910 0.18700
H 	H 	0.48370 0.58980 0.97380 0.19400
H 	H 	0.27520 0.59230 0.01340 0.19400
H 	H 	0.29670 0.52400 0.98080 0.17800
H 	H 	0.18350 0.77530 0.98380 0.02900
H 	H 	0.30460 0.70510 0.00570 0.04100
H 	H 	0.96840 0.83180 0.05550 -0.01400
H 	H 	0.58940 0.66650 0.10130 -0.01700
H 	H 	0.80690 0.67090 0.18190 0.16600
H 	H 	0.06350 0.62850 0.17310 0.17800
H 	H 	0.65540 0.69030 0.26350 0.07000
H 	H 	0.64530 0.64730 0.33930 0.05800
H 	H 	0.28840 0.53650 0.31710 0.06800
H 	H 	0.30700 0.58020 0.24160 0.07900
H 	H 	0.11500 0.54300 0.39630 0.18100
H 	H 	0.87690 0.59300 0.40560 0.16300
H 	H 	0.84450 0.45710 0.26810 0.00300
H 	H 	0.21550 0.35710 0.24340 0.00100
H 	H 	0.07540 0.43150 0.16640 0.04500
H 	H 	0.26180 0.49520 0.15320 0.04000
H 	H 	0.95570 0.26350 0.12650 0.17200
H 	H 	0.14610 0.26720 0.16900 0.18500
H 	H 	0.96480 0.33300 0.15820 0.18600
H 	H 	0.19240 0.19350 0.09720 0.20100
H 	H 	0.14770 0.20980 0.04390 0.21000
H 	H 	0.41340 0.18000 0.06100 0.20800
H 	H 	0.47830 0.53800 0.09970 0.18600
H 	H 	0.72450 0.50950 0.12530 0.19700
H 	H 	0.72830 0.52180 0.07090 0.18100
H 	H 	0.98370 0.41020 0.02620 0.19400
H 	H 	0.77520 0.40770 0.98660 0.19500
H 	H 	0.79670 0.47600 0.01920 0.17900
H 	H 	0.68350 0.22470 0.01620 0.02800
H 	H 	0.80460 0.29490 0.99430 0.04100
H 	H 	0.46840 0.16820 0.94450 -0.01300
H 	H 	0.08940 0.33350 0.89870 -0.01800
H 	H 	0.30690 0.82910 0.68190 0.15900
H 	H 	0.56350 0.87150 0.67310 0.16800
H 	H 	0.15540 0.80970 0.76350 0.06700
H 	H 	0.14530 0.85270 0.83930 0.05800
H 	H 	0.78840 0.96350 0.81710 0.07200
H 	H 	0.80700 0.91980 0.74160 0.08000
H 	H 	0.61500 0.95700 0.89630 0.17900
H 	H 	0.37690 0.90700 0.90560 0.16300
H 	H 	0.34450 0.04290 0.76810 0.00500
H 	H 	0.71550 0.14290 0.74340 -0.00300
H 	H 	0.57540 0.06850 0.66640 0.04000
H 	H 	0.76180 0.00480 0.65320 0.03900
H 	H 	0.45570 0.23650 0.62650 0.19100
H 	H 	0.64610 0.23280 0.66900 0.20100
H 	H 	0.46480 0.16700 0.65820 0.20600
H 	H 	0.69240 0.30650 0.59720 0.19700
H 	H 	0.64770 0.29020 0.54390 0.20600
H 	H 	0.91340 0.32000 0.56100 0.20600
H 	H 	0.97830 0.96200 0.59970 0.19200
H 	H 	0.22450 0.99050 0.62530 0.20100
H 	H 	0.22830 0.97820 0.57090 0.18500
H 	H 	0.48370 0.08980 0.52620 0.19500
H 	H 	0.27520 0.09230 0.48660 0.19500
H 	H 	0.29670 0.02400 0.51920 0.17900
H 	H 	0.18350 0.27530 0.51620 0.02800
H 	H 	0.30460 0.20510 0.49430 0.04100
H 	H 	0.96840 0.33180 0.44450 -0.01300
H 	H 	0.58940 0.16650 0.39870 -0.01700
H 	H 	0.80690 0.17090 0.31810 0.16500
H 	H 	0.06350 0.12850 0.32690 0.17700
H 	H 	0.65540 0.19030 0.23650 0.07000
H 	H 	0.64530 0.14730 0.16070 0.05800
H 	H 	0.28840 0.03650 0.18290 0.06900
H 	H 	0.30700 0.08020 0.25840 0.07900
H 	H 	0.11500 0.04300 0.10370 0.18100
H 	H 	0.87690 0.09300 0.09440 0.16300
H 	H 	0.84450 0.95710 0.23190 0.00200
H 	H 	0.21550 0.85710 0.25660 0.00100
H 	H 	0.07540 0.93150 0.33360 0.04500
H 	H 	0.26180 0.99520 0.34680 0.04100
H 	H 	0.95570 0.76350 0.37350 0.17000
H 	H 	0.14610 0.76720 0.33100 0.18300
H 	H 	0.96480 0.83300 0.34180 0.18400
H 	H 	0.19240 0.69350 0.40280 0.20200
H 	H 	0.14770 0.70980 0.45610 0.21000
H 	H 	0.41340 0.68000 0.43900 0.20900
H 	H 	0.47830 0.03800 0.40030 0.18600
H 	H 	0.72450 0.00950 0.37470 0.19600
H 	H 	0.72830 0.02180 0.42910 0.18000
H 	H 	0.98370 0.91020 0.47380 0.19400
H 	H 	0.77520 0.90770 0.51340 0.19500
H 	H 	0.79670 0.97600 0.48080 0.17900
H 	H 	0.68350 0.72470 0.48380 0.02800
H 	H 	0.80460 0.79490 0.50570 0.04100
H 	H 	0.46840 0.66820 0.55550 -0.01300
H 	H 	0.08940 0.83350 0.60130 -0.01800
C 	C 	0.62480 0.26370 0.81190 0.45600
C 	C 	0.48190 0.33530 0.80720 -0.47100
C 	C 	0.47890 0.36210 0.75620 0.15900
C 	C 	0.28290 0.34110 0.72600 -0.11000
C 	C 	0.27760 0.36690 0.68060 -0.11300
C 	C 	0.46730 0.41410 0.66370 0.15900
C 	C 	0.65970 0.43260 0.69350 -0.11100
C 	C 	0.67050 0.40690 0.73920 -0.10800
C 	C 	0.44510 0.44430 0.61490 -0.47300
C 	C 	0.27290 0.51140 0.61220 0.45900
C 	C 	0.19510 0.55790 0.74690 0.09300
C 	C 	0.85720 0.61250 0.75930 0.09500
C 	C 	0.75370 0.55610 0.83900 -0.04300
C 	C 	0.85560 0.60050 0.88010 -0.07600
C 	C 	0.77020 0.67250 0.88730 0.08300
C 	C 	0.56500 0.70520 0.85540 -0.58000
C 	C 	0.86430 0.71290 0.92390 0.10800
C 	C 	0.77100 0.78930 0.93110 -0.60100
C 	C 	0.04270 0.68210 0.95420 -0.08800
C 	C 	0.12430 0.61010 0.94810 0.09000
C 	C 	0.03750 0.57000 0.91050 0.09200
C 	C 	0.12500 0.49330 0.90300 -0.58200
C 	C 	0.31200 0.57590 0.98210 -0.56700
C 	C 	0.14580 0.72660 0.99470 -0.04000
C 	C 	0.90350 0.78520 0.05990 0.08000
C 	C 	0.70110 0.69550 0.08410 0.07500
C 	C 	0.12480 0.73630 0.18810 0.46600
C 	C 	0.98190 0.66470 0.19280 -0.49200
C 	C 	0.97890 0.63790 0.24380 0.15900
C 	C 	0.78290 0.65890 0.27400 -0.11500
C 	C 	0.77760 0.63310 0.31940 -0.10900
C 	C 	0.96730 0.58590 0.33630 0.15100
C 	C 	0.15970 0.56740 0.30650 -0.10200
C 	C 	0.17050 0.59310 0.26080 -0.10700
C 	C 	0.94510 0.55570 0.38510 -0.47500
C 	C 	0.77290 0.48860 0.38780 0.45900
C 	C 	0.69510 0.44210 0.25310 0.09500
C 	C 	0.35720 0.38750 0.24070 0.08700
C 	C 	0.25370 0.44390 0.16100 -0.05000
C 	C 	0.35560 0.39950 0.11990 -0.06600
C 	C 	0.27020 0.32750 0.11270 0.06400
C 	C 	0.06500 0.29480 0.14460 -0.52100
C 	C 	0.36430 0.28710 0.07610 0.11900
C 	C 	0.27100 0.21070 0.06890 -0.61400
C 	C 	0.54270 0.31790 0.04580 -0.09200
C 	C 	0.62430 0.38990 0.05190 0.09600
C 	C 	0.53750 0.43000 0.08950 0.08500
C 	C 	0.62500 0.50670 0.09700 -0.56100
C 	C 	0.81200 0.42410 0.01790 -0.57100
C 	C 	0.64580 0.27340 0.00530 -0.03800
C 	C 	0.40350 0.21480 0.94010 0.08000
C 	C 	0.20110 0.30450 0.91590 0.07600
C 	C 	0.62480 0.76370 0.68810 0.45600
C 	C 	0.48190 0.83530 0.69280 -0.47100
C 	C 	0.47890 0.86210 0.74380 0.15900
C 	C 	0.28290 0.84110 0.77400 -0.11000
C 	C 	0.27760 0.86690 0.81940 -0.11300
C 	C 	0.46730 0.91410 0.83630 0.15900
C 	C 	0.65970 0.93260 0.80650 -0.11100
C 	C 	0.67050 0.90690 0.76080 -0.10800
C 	C 	0.44510 0.94430 0.88510 -0.47300
C 	C 	0.27290 0.01140 0.88780 0.45800
C 	C 	0.19510 0.05790 0.75310 0.09300
C 	C 	0.85720 0.11250 0.74070 0.09600
C 	C 	0.75370 0.05610 0.66100 -0.04400
C 	C 	0.85560 0.10050 0.61990 -0.07300
C 	C 	0.77020 0.17250 0.61270 0.08100
C 	C 	0.56500 0.20520 0.64460 -0.57800
C 	C 	0.86430 0.21290 0.57610 0.11100
C 	C 	0.77100 0.28930 0.56890 -0.60400
C 	C 	0.04270 0.18210 0.54580 -0.09000
C 	C 	0.12430 0.11010 0.55190 0.09300
C 	C 	0.03750 0.07000 0.58950 0.08800
C 	C 	0.12500 0.99330 0.59700 -0.57500
C 	C 	0.31200 0.07590 0.51790 -0.56900
C 	C 	0.14580 0.22660 0.50530 -0.04000
C 	C 	0.90350 0.28520 0.44010 0.08000
C 	C 	0.70110 0.19550 0.41590 0.07500
C 	C 	0.12480 0.23630 0.31190 0.46500
C 	C 	0.98190 0.16470 0.30720 -0.49000
C 	C 	0.97890 0.13790 0.25620 0.15900
C 	C 	0.78290 0.15890 0.22600 -0.11400
C 	C 	0.77760 0.13310 0.18060 -0.10900
C 	C 	0.96730 0.08590 0.16370 0.15100
C 	C 	0.15970 0.06740 0.19350 -0.10300
C 	C 	0.17050 0.09310 0.23920 -0.10800
C 	C 	0.94510 0.05570 0.11490 -0.47400
C 	C 	0.77290 0.98860 0.11220 0.45800
C 	C 	0.69510 0.94210 0.24690 0.09500
C 	C 	0.35720 0.88750 0.25930 0.08700
C 	C 	0.25370 0.94390 0.33900 -0.05100
C 	C 	0.35560 0.89950 0.38010 -0.06500
C 	C 	0.27020 0.82750 0.38730 0.06100
C 	C 	0.06500 0.79480 0.35540 -0.51500
C 	C 	0.36430 0.78710 0.42390 0.12100
C 	C 	0.27100 0.71070 0.43110 -0.61600
C 	C 	0.54270 0.81790 0.45420 -0.09300
C 	C 	0.62430 0.88990 0.44810 0.09700
C 	C 	0.53750 0.93000 0.41050 0.08400
C 	C 	0.62500 0.00670 0.40300 -0.56000
C 	C 	0.81200 0.92410 0.48210 -0.57200
C 	C 	0.64580 0.77340 0.49470 -0.03800
C 	C 	0.40350 0.71480 0.55990 0.08000
C 	C 	0.20110 0.80450 0.58410 0.07600
N 	N 	0.74030 0.76710 0.09378 -0.24300
N 	N 	0.96070 0.73020 0.03380 -0.09900
N 	N 	0.83270 0.67110 0.04890 -0.11200
N 	N 	0.90290 0.56950 0.79590 -0.09300
N 	N 	0.12820 0.53270 0.78794 -0.11000
N 	N 	0.03660 0.60660 0.72749 -0.24500
N 	N 	0.24030 0.23290 0.90622 -0.24300
N 	N 	0.46070 0.26980 0.96620 -0.09900
N 	N 	0.33270 0.32890 0.95110 -0.11200
N 	N 	0.40290 0.43050 0.20410 -0.09300
N 	N 	0.62820 0.46730 0.21206 -0.10800
N 	N 	0.53660 0.39340 0.27251 -0.24100
N 	N 	0.74030 0.26710 0.40622 -0.24300
N 	N 	0.96070 0.23020 0.46620 -0.09900
N 	N 	0.83270 0.17110 0.45110 -0.11200
N 	N 	0.90290 0.06950 0.70410 -0.09300
N 	N 	0.12820 0.03270 0.71206 -0.11000
N 	N 	0.03660 0.10660 0.77251 -0.24600
N 	N 	0.24030 0.73290 0.59378 -0.24300
N 	N 	0.46070 0.76980 0.53380 -0.09900
N 	N 	0.33270 0.82890 0.54890 -0.11200
N 	N 	0.40290 0.93050 0.29590 -0.09300
N 	N 	0.62820 0.96730 0.28794 -0.10800
N 	N 	0.53660 0.89340 0.22749 -0.24100
O 	O 	0.08380 0.50820 0.58620 -0.34500
O 	O 	0.32840 0.56430 0.63747 -0.44400
O 	O 	0.86090 0.26760 0.81900 -0.46500
O 	O 	0.50050 0.20500 0.80820 -0.46200
O 	O 	0.58380 0.49180 0.41380 -0.34400
O 	O 	0.82840 0.43570 0.36253 -0.44500
O 	O 	0.36090 0.73240 0.18100 -0.47200
O 	O 	0.00050 0.79500 0.19180 -0.46200
O 	O 	0.08380 0.00820 0.91380 -0.34500
O 	O 	0.32840 0.06430 0.86253 -0.44400
O 	O 	0.86090 0.76760 0.68100 -0.46600
O 	O 	0.50050 0.70500 0.69180 -0.46200
O 	O 	0.58380 0.99180 0.08620 -0.34300
O 	O 	0.82840 0.93570 0.13747 -0.44500
O 	O 	0.36090 0.23240 0.31900 -0.47200
O 	O 	0.00050 0.29500 0.30820 -0.46200
