data_crystal

_cell_length_a 6.83650
_cell_length_b 15.14440
_cell_length_c 15.14440
_cell_angle_alpha 62.22270
_cell_angle_beta  81.34560
_cell_angle_gamma 98.65440

_symmetry_space_group_name_	'P 1'
_symmetry_space_group_name_H-M	'P 1'

loop_
_symmetry_equiv_pos_as_xyz
  x,y,z

loop_
_atom_site_label
_atom_site_type_symbol
_atom_site_fract_x
_atom_site_fract_y
_atom_site_fract_z
_atom_site_charge
Zn	Zn	0.88926 0.68439 0.57792 1.21200
Zn	Zn	0.46718 0.57792 0.73769 1.21200
Zn	Zn	0.20487 0.73769 0.68439 1.21200
Zn	Zn	0.11074 0.31561 0.42208 1.21200
Zn	Zn	0.53282 0.42208 0.26231 1.21200
Zn	Zn	0.79513 0.26231 0.31561 1.21200
H 	H 	0.66950 0.01810 0.52970 0.07800
H 	H 	0.19920 0.52970 0.45220 0.07800
H 	H 	0.65140 0.45220 0.01810 0.07800
H 	H 	0.33050 0.98190 0.47030 0.07800
H 	H 	0.80080 0.47030 0.54780 0.07800
H 	H 	0.34860 0.54780 0.98190 0.07800
C 	C 	0.64834 0.82388 0.61406 0.41400
C 	C 	0.83502 0.91218 0.55332 -0.18700
C 	C 	0.03588 0.89947 0.53473 0.19500
C 	C 	0.80534 0.01125 0.51763 -0.09900
C 	C 	0.26240 0.61406 0.56206 0.41400
C 	C 	0.38834 0.55332 0.53450 -0.18600
C 	C 	0.57061 0.53473 0.56580 0.19500
C 	C 	0.32297 0.51763 0.47112 -0.10000
C 	C 	0.82446 0.56206 0.82388 0.41400
C 	C 	0.92284 0.53450 0.91218 -0.18400
C 	C 	0.13641 0.56580 0.89947 0.19400
C 	C 	0.79409 0.47112 0.01125 -0.10100
C 	C 	0.35166 0.17612 0.38594 0.41400
C 	C 	0.16498 0.08782 0.44668 -0.18700
C 	C 	0.96412 0.10053 0.46527 0.19500
C 	C 	0.19466 0.98875 0.48237 -0.09900
C 	C 	0.73760 0.38594 0.43794 0.41400
C 	C 	0.61166 0.44668 0.46550 -0.18600
C 	C 	0.42939 0.46527 0.43420 0.19500
C 	C 	0.67703 0.48237 0.52888 -0.10000
C 	C 	0.17554 0.43794 0.17612 0.41400
C 	C 	0.07716 0.46550 0.08782 -0.18400
C 	C 	0.86359 0.43420 0.10053 0.19400
C 	C 	0.20591 0.52888 0.98875 -0.10100
O 	O 	0.67054 0.73308 0.65166 -0.57600
O 	O 	0.47721 0.84395 0.62552 -0.47800
O 	O 	0.08243 0.80824 0.56305 -0.55900
O 	O 	0.32220 0.65166 0.61526 -0.57600
O 	O 	0.10273 0.62552 0.53053 -0.47800
O 	O 	0.64548 0.56305 0.62871 -0.55900
O 	O 	0.93746 0.61526 0.73308 -0.57600
O 	O 	0.63326 0.53053 0.84395 -0.47800
O 	O 	0.27419 0.62871 0.80824 -0.55900
O 	O 	0.32946 0.26692 0.34834 -0.57600
O 	O 	0.52279 0.15605 0.37448 -0.47800
O 	O 	0.91757 0.19176 0.43695 -0.55900
O 	O 	0.67780 0.34834 0.38474 -0.57600
O 	O 	0.89727 0.37448 0.46947 -0.47800
O 	O 	0.35452 0.43695 0.37129 -0.55900
O 	O 	0.06254 0.38474 0.26692 -0.57600
O 	O 	0.36674 0.46947 0.15605 -0.47800
O 	O 	0.72581 0.37129 0.19176 -0.55900
