data_crystal

_cell_length_a 10.65270
_cell_length_b 13.53390
_cell_length_c 14.39940
_cell_angle_alpha 76.94040
_cell_angle_beta  68.29040
_cell_angle_gamma 66.82400

_symmetry_space_group_name_	'P 1'
_symmetry_space_group_name_H-M	'P 1'

loop_
_symmetry_equiv_pos_as_xyz
  x,y,z

loop_
_atom_site_label
_atom_site_type_symbol
_atom_site_fract_x
_atom_site_fract_y
_atom_site_fract_z
_atom_site_charge
Mn	Mn	0.00328 0.96031 0.89137 1.26300
Mn	Mn	0.35496 0.53969 0.60863 1.27000
Mn	Mn	0.99672 0.03969 0.10863 1.26400
Mn	Mn	0.64504 0.46031 0.39137 1.27100
Mn	Mn	0.27979 0.75000 0.75000 1.30800
Mn	Mn	0.72021 0.25000 0.25000 1.30800
H 	H 	0.22436 0.83002 0.15566 0.03300
H 	H 	0.36580 0.68948 0.25656 0.03800
H 	H 	0.40577 0.44573 0.09061 0.04400
H 	H 	0.27921 0.58720 0.98172 0.03200
H 	H 	0.16137 0.82613 0.55683 0.02600
H 	H 	0.83054 0.13484 0.62170 0.03800
H 	H 	0.71004 0.66998 0.34434 0.02900
H 	H 	0.81184 0.81052 0.24344 0.04000
H 	H 	0.44211 0.05427 0.40939 0.04400
H 	H 	0.34813 0.91280 0.51828 0.03400
H 	H 	0.04433 0.67387 0.94317 0.02400
H 	H 	0.08708 0.36516 0.87830 0.03800
H 	H 	0.77564 0.16998 0.84434 0.03300
H 	H 	0.63420 0.31052 0.74344 0.03800
H 	H 	0.59423 0.55427 0.90939 0.04400
H 	H 	0.72079 0.41280 0.01828 0.03200
H 	H 	0.83863 0.17387 0.44317 0.02600
H 	H 	0.16946 0.86516 0.37830 0.03800
H 	H 	0.28996 0.33002 0.65566 0.02900
H 	H 	0.18816 0.18948 0.75656 0.04000
H 	H 	0.55789 0.94573 0.59061 0.04400
H 	H 	0.65187 0.08720 0.48172 0.03400
H 	H 	0.95567 0.32613 0.05683 0.02400
H 	H 	0.91292 0.63484 0.12170 0.03800
C 	C 	0.16735 0.80449 0.99555 0.36300
C 	C 	0.24507 0.71811 0.06065 -0.10200
C 	C 	0.26771 0.74644 0.13950 -0.00700
C 	C 	0.34591 0.66691 0.19707 -0.00600
C 	C 	0.39744 0.55820 0.17930 -0.09000
C 	C 	0.36966 0.52992 0.10308 -0.01000
C 	C 	0.29618 0.60966 0.04262 0.00500
C 	C 	0.48798 0.47432 0.23944 0.37500
C 	C 	0.99420 0.95582 0.70750 0.34100
C 	C 	0.99586 0.97825 0.60031 -0.08700
C 	C 	0.09155 0.90236 0.53172 -0.01400
C 	C 	0.90411 0.07579 0.56875 -0.00700
C 	C 	0.46739 0.69551 0.50445 0.38900
C 	C 	0.52383 0.78189 0.43935 -0.11800
C 	C 	0.65365 0.75356 0.36050 0.00100
C 	C 	0.70989 0.83309 0.30293 -0.01300
C 	C 	0.63494 0.94180 0.32070 -0.08000
C 	C 	0.50266 0.97008 0.39692 -0.01200
C 	C 	0.44846 0.89034 0.45738 0.00600
C 	C 	0.70174 0.02568 0.26056 0.35800
C 	C 	0.15752 0.54418 0.79250 0.34300
C 	C 	0.07442 0.52175 0.89969 -0.08900
C 	C 	0.02563 0.59764 0.96828 -0.01500
C 	C 	0.04865 0.42421 0.93125 -0.00600
C 	C 	0.83265 0.19551 0.00445 0.36300
C 	C 	0.75493 0.28189 0.93935 -0.10200
C 	C 	0.73229 0.25356 0.86050 -0.00700
C 	C 	0.65409 0.33309 0.80293 -0.00600
C 	C 	0.60256 0.44180 0.82070 -0.09000
C 	C 	0.63034 0.47008 0.89692 -0.01000
C 	C 	0.70382 0.39034 0.95738 0.00500
C 	C 	0.51202 0.52568 0.76056 0.37500
C 	C 	0.00580 0.04418 0.29250 0.34100
C 	C 	0.00414 0.02175 0.39969 -0.08700
C 	C 	0.90845 0.09764 0.46828 -0.01400
C 	C 	0.09589 0.92421 0.43125 -0.00700
C 	C 	0.53261 0.30449 0.49555 0.38900
C 	C 	0.47617 0.21811 0.56065 -0.11800
C 	C 	0.34635 0.24644 0.63950 0.00100
C 	C 	0.29011 0.16691 0.69707 -0.01300
C 	C 	0.36506 0.05820 0.67930 -0.08000
C 	C 	0.49734 0.02992 0.60308 -0.01200
C 	C 	0.55154 0.10966 0.54262 0.00600
C 	C 	0.29826 0.97432 0.73944 0.35800
C 	C 	0.84248 0.45582 0.20750 0.34300
C 	C 	0.92558 0.47825 0.10031 -0.08900
C 	C 	0.97437 0.40236 0.03172 -0.01500
C 	C 	0.95135 0.57579 0.06875 -0.00600
O 	O 	0.09632 0.89862 0.02400 -0.54600
O 	O 	0.17002 0.78300 0.91350 -0.51800
O 	O 	0.54349 0.37827 0.21543 -0.44000
O 	O 	0.50375 0.50815 0.30751 -0.46800
O 	O 	0.07564 0.86590 0.73626 -0.50000
O 	O 	0.91137 0.02715 0.76729 -0.41700
O 	O 	0.51894 0.60138 0.47600 -0.56200
O 	O 	0.36652 0.71700 0.58650 -0.52200
O 	O 	0.63719 0.12173 0.28457 -0.43700
O 	O 	0.81941 0.99185 0.19249 -0.45800
O 	O 	0.17780 0.63410 0.76374 -0.49700
O 	O 	0.20581 0.47285 0.73271 -0.42200
O 	O 	0.90368 0.10138 0.97600 -0.54600
O 	O 	0.82998 0.21700 0.08650 -0.51800
O 	O 	0.45651 0.62173 0.78457 -0.44000
O 	O 	0.49625 0.49185 0.69249 -0.46800
O 	O 	0.92436 0.13410 0.26374 -0.50000
O 	O 	0.08863 0.97285 0.23271 -0.41700
O 	O 	0.48106 0.39862 0.52400 -0.56200
O 	O 	0.63348 0.28300 0.41350 -0.52200
O 	O 	0.36281 0.87827 0.71543 -0.43700
O 	O 	0.18059 0.00815 0.80751 -0.45800
O 	O 	0.82220 0.36590 0.23626 -0.49700
O 	O 	0.79419 0.52715 0.26729 -0.42200
