data_crystal

_cell_length_a 10.77680
_cell_length_b 13.50570
_cell_length_c 14.42480
_cell_angle_alpha 76.58720
_cell_angle_beta  68.06520
_cell_angle_gamma 66.48610

_symmetry_space_group_name_	'P 1'
_symmetry_space_group_name_H-M	'P 1'

loop_
_symmetry_equiv_pos_as_xyz
  x,y,z

loop_
_atom_site_label
_atom_site_type_symbol
_atom_site_fract_x
_atom_site_fract_y
_atom_site_fract_z
_atom_site_charge
Mn	Mn	0.85899 0.03856 0.11038 1.26600
Mn	Mn	0.50793 0.46144 0.38962 1.27200
Mn	Mn	0.14101 0.96144 0.88962 1.26700
Mn	Mn	0.49207 0.53856 0.61038 1.27300
Mn	Mn	0.78416 0.25000 0.25000 1.30900
Mn	Mn	0.21584 0.75000 0.75000 1.30900
H 	H 	0.20150 0.18060 0.84720 0.03700
H 	H 	0.29610 0.31290 0.75290 0.04600
H 	H 	0.95500 0.54120 0.90780 0.05000
H 	H 	0.86640 0.40800 0.00900 0.04000
H 	H 	0.54770 0.16030 0.45010 0.03500
H 	H 	0.57850 0.87710 0.38430 0.04600
H 	H 	0.72930 0.31940 0.65280 0.02900
H 	H 	0.86190 0.18710 0.74710 0.05200
H 	H 	0.90400 0.95880 0.59220 0.05600
H 	H 	0.78340 0.09200 0.49100 0.03400
H 	H 	0.65810 0.33970 0.04990 0.03400
H 	H 	0.33990 0.62290 0.11570 0.04600
H 	H 	0.79850 0.81940 0.15280 0.03700
H 	H 	0.70390 0.68710 0.24710 0.04600
H 	H 	0.04500 0.45880 0.09220 0.05000
H 	H 	0.13360 0.59200 0.99100 0.04000
H 	H 	0.45230 0.83970 0.54990 0.03500
H 	H 	0.42150 0.12290 0.61570 0.04600
H 	H 	0.27070 0.68060 0.34720 0.02900
H 	H 	0.13810 0.81290 0.25290 0.05200
H 	H 	0.09600 0.04120 0.40780 0.05600
H 	H 	0.21660 0.90800 0.50900 0.03400
H 	H 	0.34190 0.66030 0.95010 0.03400
H 	H 	0.66010 0.37710 0.88430 0.04600
C 	C 	0.96883 0.19501 0.00393 0.37600
C 	C 	0.02563 0.28097 0.93917 -0.10100
C 	C 	0.15329 0.25266 0.86096 -0.01200
C 	C 	0.20868 0.33240 0.80344 -0.01800
C 	C 	0.13523 0.44046 0.82048 -0.08500
C 	C 	0.00593 0.46865 0.89669 -0.02000
C 	C 	0.95199 0.38875 0.95687 -0.00800
C 	C 	0.19990 0.52516 0.75984 0.38600
C 	C 	0.66311 0.04406 0.29492 0.34800
C 	C 	0.57722 0.02192 0.40104 -0.08500
C 	C 	0.52899 0.09573 0.47009 -0.02100
C 	C 	0.54748 0.92635 0.43069 -0.01700
C 	C 	0.66777 0.30499 0.49607 0.40100
C 	C 	0.74577 0.21903 0.56083 -0.12600
C 	C 	0.76691 0.24734 0.63904 0.00600
C 	C 	0.84452 0.16760 0.69656 -0.03600
C 	C 	0.89617 0.05954 0.67952 -0.06700
C 	C 	0.87127 0.03135 0.60331 -0.03600
C 	C 	0.79761 0.11125 0.54313 0.01000
C 	C 	0.98490 0.97484 0.74016 0.36900
C 	C 	0.50209 0.45594 0.20508 0.35700
C 	C 	0.50018 0.47808 0.09896 -0.08500
C 	C 	0.59481 0.40427 0.02991 -0.02300
C 	C 	0.40452 0.57365 0.06931 -0.01600
C 	C 	0.03117 0.80499 0.99607 0.37600
C 	C 	0.97437 0.71903 0.06083 -0.10100
C 	C 	0.84671 0.74734 0.13904 -0.01200
C 	C 	0.79132 0.66760 0.19656 -0.01800
C 	C 	0.86477 0.55954 0.17952 -0.08500
C 	C 	0.99407 0.53135 0.10331 -0.02000
C 	C 	0.04801 0.61125 0.04313 -0.00800
C 	C 	0.80010 0.47484 0.24016 0.38600
C 	C 	0.33689 0.95594 0.70508 0.34800
C 	C 	0.42278 0.97808 0.59896 -0.08500
C 	C 	0.47101 0.90427 0.52991 -0.02100
C 	C 	0.45252 0.07365 0.56931 -0.01700
C 	C 	0.33223 0.69501 0.50393 0.40100
C 	C 	0.25423 0.78097 0.43917 -0.12600
C 	C 	0.23309 0.75266 0.36096 0.00600
C 	C 	0.15548 0.83240 0.30344 -0.03600
C 	C 	0.10383 0.94046 0.32048 -0.06700
C 	C 	0.12873 0.96865 0.39669 -0.03600
C 	C 	0.20239 0.88875 0.45687 0.01000
C 	C 	0.01510 0.02516 0.25984 0.36900
C 	C 	0.49791 0.54406 0.79492 0.35700
C 	C 	0.49982 0.52192 0.90104 -0.08500
C 	C 	0.40519 0.59573 0.97009 -0.02300
C 	C 	0.59548 0.42635 0.93069 -0.01600
O 	O 	0.01785 0.10123 0.97585 -0.55300
O 	O 	0.87004 0.21623 0.08627 -0.52100
O 	O 	0.13646 0.62091 0.78297 -0.44800
O 	O 	0.31530 0.49143 0.69157 -0.47200
O 	O 	0.68330 0.13346 0.26714 -0.50100
O 	O 	0.71295 0.97263 0.23607 -0.42300
O 	O 	0.59493 0.39877 0.52415 -0.56800
O 	O 	0.67254 0.28377 0.41373 -0.52500
O 	O 	0.04034 0.87909 0.71703 -0.44400
O 	O 	0.99830 0.00857 0.80843 -0.46300
O 	O 	0.58390 0.36654 0.23286 -0.50200
O 	O 	0.42165 0.52737 0.26393 -0.43000
O 	O 	0.98215 0.89877 0.02415 -0.55300
O 	O 	0.12996 0.78377 0.91373 -0.52100
O 	O 	0.86354 0.37909 0.21703 -0.44800
O 	O 	0.68470 0.50857 0.30843 -0.47200
O 	O 	0.31670 0.86654 0.73286 -0.50100
O 	O 	0.28705 0.02737 0.76393 -0.42300
O 	O 	0.40507 0.60123 0.47585 -0.56800
O 	O 	0.32746 0.71623 0.58627 -0.52500
O 	O 	0.95966 0.12091 0.28297 -0.44400
O 	O 	0.00170 0.99143 0.19157 -0.46300
O 	O 	0.41610 0.63346 0.76714 -0.50200
O 	O 	0.57835 0.47263 0.73607 -0.43000
