data_crystal

_cell_length_a 10.58420
_cell_length_b 13.47380
_cell_length_c 14.42000
_cell_angle_alpha 77.22030
_cell_angle_beta  68.46950
_cell_angle_gamma 66.87310

_symmetry_space_group_name_	'P 1'
_symmetry_space_group_name_H-M	'P 1'

loop_
_symmetry_equiv_pos_as_xyz
  x,y,z

loop_
_atom_site_label
_atom_site_type_symbol
_atom_site_fract_x
_atom_site_fract_y
_atom_site_fract_z
_atom_site_charge
Mn	Mn	0.35837 0.03705 0.61135 1.27100
Mn	Mn	0.00677 0.46295 0.88865 1.26800
Mn	Mn	0.64163 0.96295 0.38865 1.27100
Mn	Mn	0.99323 0.53705 0.11135 1.26800
Mn	Mn	0.28161 0.25000 0.75000 1.31000
Mn	Mn	0.71839 0.75000 0.25000 1.31000
H 	H 	0.36100 0.40950 0.51190 0.03600
H 	H 	0.70080 0.18040 0.34700 0.03100
H 	H 	0.45080 0.54240 0.40980 0.05300
H 	H 	0.79370 0.31310 0.24990 0.04700
H 	H 	0.03850 0.16480 0.94680 0.03600
H 	H 	0.08990 0.86990 0.88710 0.03900
H 	H 	0.28240 0.09050 0.98810 0.02500
H 	H 	0.22820 0.31960 0.15300 0.03300
H 	H 	0.40300 0.95760 0.09020 0.04800
H 	H 	0.35670 0.18690 0.25010 0.04800
H 	H 	0.15010 0.33520 0.55320 0.03400
H 	H 	0.84690 0.63010 0.61290 0.04600
H 	H 	0.63900 0.59050 0.48810 0.03600
H 	H 	0.29920 0.81960 0.65300 0.03100
H 	H 	0.54920 0.45760 0.59020 0.05300
H 	H 	0.20630 0.68690 0.75010 0.04700
H 	H 	0.96150 0.83520 0.05320 0.03600
H 	H 	0.91010 0.13010 0.11290 0.03900
H 	H 	0.71760 0.90950 0.01190 0.02500
H 	H 	0.77180 0.68040 0.84700 0.03300
H 	H 	0.59700 0.04240 0.90980 0.04800
H 	H 	0.64330 0.81310 0.74990 0.04800
H 	H 	0.84990 0.66480 0.44680 0.03400
H 	H 	0.15310 0.36990 0.38710 0.04600
C 	C 	0.46700 0.19480 0.50540 0.40600
C 	C 	0.52200 0.28180 0.44040 -0.12300
C 	C 	0.44880 0.38950 0.45830 0.00700
C 	C 	0.65070 0.25390 0.36110 0.00000
C 	C 	0.50360 0.46850 0.39810 -0.02800
C 	C 	0.70540 0.33330 0.30310 -0.02300
C 	C 	0.63400 0.44160 0.32100 -0.08200
C 	C 	0.69750 0.52620 0.25960 0.38600
C 	C 	0.16340 0.04210 0.79470 0.35300
C 	C 	0.07660 0.02140 0.90060 -0.09400
C 	C 	0.02290 0.09750 0.96830 -0.03300
C 	C 	0.05340 0.92320 0.93280 0.00300
C 	C 	0.16720 0.30520 0.99460 0.38400
C 	C 	0.24420 0.21820 0.05960 -0.11300
C 	C 	0.29660 0.11050 0.04170 0.02000
C 	C 	0.26570 0.24610 0.13890 -0.00300
C 	C 	0.37020 0.03150 0.10190 -0.02200
C 	C 	0.34180 0.16670 0.19690 -0.02300
C 	C 	0.39660 0.05840 0.17900 -0.07800
C 	C 	0.48330 0.97380 0.24040 0.37800
C 	C 	0.00020 0.45790 0.70530 0.34800
C 	C 	0.99860 0.47860 0.59940 -0.07900
C 	C 	0.08870 0.40250 0.53170 -0.02100
C 	C 	0.90940 0.57680 0.56720 -0.01800
C 	C 	0.53300 0.80520 0.49460 0.40600
C 	C 	0.47800 0.71820 0.55960 -0.12300
C 	C 	0.55120 0.61050 0.54170 0.00700
C 	C 	0.34930 0.74610 0.63890 0.00000
C 	C 	0.49640 0.53150 0.60190 -0.02800
C 	C 	0.29460 0.66670 0.69690 -0.02300
C 	C 	0.36600 0.55840 0.67900 -0.08200
C 	C 	0.30250 0.47380 0.74040 0.38600
C 	C 	0.83660 0.95790 0.20530 0.35300
C 	C 	0.92340 0.97860 0.09940 -0.09400
C 	C 	0.97710 0.90250 0.03170 -0.03300
C 	C 	0.94660 0.07680 0.06720 0.00300
C 	C 	0.83280 0.69480 0.00540 0.38400
C 	C 	0.75580 0.78180 0.94040 -0.11300
C 	C 	0.70340 0.88950 0.95830 0.02000
C 	C 	0.73430 0.75390 0.86110 -0.00300
C 	C 	0.62980 0.96850 0.89810 -0.02200
C 	C 	0.65820 0.83330 0.80310 -0.02300
C 	C 	0.60340 0.94160 0.82100 -0.07800
C 	C 	0.51670 0.02620 0.75960 0.37800
C 	C 	0.99980 0.54210 0.29470 0.34800
C 	C 	0.00140 0.52140 0.40060 -0.07900
C 	C 	0.91130 0.59750 0.46830 -0.02100
C 	C 	0.09060 0.42320 0.43280 -0.01800
O 	O 	0.36752 0.21535 0.58721 -0.52900
O 	O 	0.51729 0.10181 0.47541 -0.56800
O 	O 	0.81176 0.49178 0.19090 -0.47500
O 	O 	0.63466 0.62208 0.28420 -0.44600
O 	O 	0.21624 0.96892 0.73760 -0.42800
O 	O 	0.18047 0.13296 0.76610 -0.50400
O 	O 	0.17008 0.28465 0.91279 -0.52600
O 	O 	0.09451 0.39819 0.02459 -0.55400
O 	O 	0.49444 0.00822 0.30910 -0.46700
O 	O 	0.54094 0.87792 0.21580 -0.44400
O 	O 	0.92276 0.53108 0.76240 -0.42600
O 	O 	0.07953 0.36704 0.73390 -0.50300
O 	O 	0.63248 0.78465 0.41279 -0.52900
O 	O 	0.48271 0.89819 0.52459 -0.56800
O 	O 	0.18824 0.50822 0.80910 -0.47500
O 	O 	0.36534 0.37792 0.71580 -0.44600
O 	O 	0.78376 0.03108 0.26240 -0.42800
O 	O 	0.81953 0.86704 0.23390 -0.50400
O 	O 	0.82992 0.71535 0.08721 -0.52600
O 	O 	0.90549 0.60181 0.97541 -0.55400
O 	O 	0.50556 0.99178 0.69090 -0.46700
O 	O 	0.45906 0.12208 0.78420 -0.44400
O 	O 	0.07724 0.46892 0.23760 -0.42600
O 	O 	0.92047 0.63296 0.26610 -0.50300
