data_crystal

_cell_length_a 10.67270
_cell_length_b 10.69260
_cell_length_c 15.75330
_cell_angle_alpha 95.86500
_cell_angle_beta  90.00000
_cell_angle_gamma 90.00000

_symmetry_space_group_name_	'P 1'
_symmetry_space_group_name_H-M	'P 1'

loop_
_symmetry_equiv_pos_as_xyz
  x,y,z

loop_
_atom_site_label
_atom_site_type_symbol
_atom_site_fract_x
_atom_site_fract_y
_atom_site_fract_z
_atom_site_charge
Tb	Tb	0.03209 0.74935 0.98150 1.82200
Tb	Tb	0.53209 0.75065 0.51850 1.84700
Tb	Tb	0.96791 0.25065 0.01850 1.82100
Tb	Tb	0.46791 0.24935 0.48150 1.84600
H 	H 	0.80360 0.25390 0.80230 0.00900
H 	H 	0.65440 0.26270 0.68290 0.02900
H 	H 	0.30360 0.24610 0.69770 0.00700
H 	H 	0.15440 0.23730 0.81710 0.02900
H 	H 	0.19640 0.74610 0.19770 0.00900
H 	H 	0.34560 0.73730 0.31710 0.02900
H 	H 	0.69640 0.75390 0.30230 0.00700
H 	H 	0.84560 0.76270 0.18290 0.02900
C 	C 	0.92000 0.47590 0.87480 0.50600
C 	C 	0.82790 0.44490 0.80600 -0.16800
C 	C 	0.78140 0.32900 0.77860 0.01500
C 	C 	0.69570 0.33450 0.71030 0.02100
C 	C 	0.67860 0.45260 0.68810 -0.16900
C 	C 	0.59550 0.49310 0.62110 0.51500
C 	C 	0.42000 0.02410 0.62520 0.51000
C 	C 	0.32790 0.05510 0.69400 -0.16700
C 	C 	0.28140 0.17100 0.72140 0.01600
C 	C 	0.19570 0.16550 0.78970 0.02000
C 	C 	0.17860 0.04740 0.81190 -0.16600
C 	C 	0.09550 0.00690 0.87890 0.51800
C 	C 	0.08000 0.52410 0.12520 0.50600
C 	C 	0.17210 0.55510 0.19400 -0.16800
C 	C 	0.21860 0.67100 0.22140 0.01500
C 	C 	0.30430 0.66550 0.28970 0.02100
C 	C 	0.32140 0.54740 0.31190 -0.16900
C 	C 	0.40450 0.50690 0.37890 0.51500
C 	C 	0.58000 0.97590 0.37480 0.51000
C 	C 	0.67210 0.94490 0.30600 -0.16700
C 	C 	0.71860 0.82900 0.27860 0.01600
C 	C 	0.80430 0.83450 0.21030 0.02000
C 	C 	0.82140 0.95260 0.18810 -0.16600
C 	C 	0.90450 0.99310 0.12110 0.51800
S 	S 	0.76745 0.55975 0.74985 0.11000
S 	S 	0.26745 0.94025 0.75015 0.10300
S 	S 	0.23255 0.44025 0.25015 0.11000
S 	S 	0.73255 0.05975 0.24985 0.10300
N 	N 	0.76040 0.75080 0.96280 0.06600
N 	N 	0.26040 0.74920 0.53720 0.06500
N 	N 	0.23960 0.24920 0.03720 0.06600
N 	N 	0.73960 0.25080 0.46280 0.06500
O 	O 	0.96290 0.58590 0.88320 -0.49500
O 	O 	0.53420 0.40990 0.57690 -0.53600
O 	O 	0.81230 0.68910 0.01790 -0.25900
O 	O 	0.83080 0.81520 0.92070 -0.25900
O 	O 	0.64590 0.74700 0.95160 -0.13200
O 	O 	0.94980 0.39030 0.92020 -0.54300
O 	O 	0.59140 0.60860 0.61260 -0.53200
O 	O 	0.46290 0.91410 0.61680 -0.50300
O 	O 	0.03420 0.09010 0.92310 -0.53400
O 	O 	0.31230 0.81090 0.48210 -0.25800
O 	O 	0.33080 0.68480 0.57930 -0.26500
O 	O 	0.14590 0.75300 0.54840 -0.13400
O 	O 	0.44980 0.10970 0.57980 -0.55200
O 	O 	0.09140 0.89140 0.88740 -0.53500
O 	O 	0.03710 0.41410 0.11680 -0.49500
O 	O 	0.46580 0.59010 0.42310 -0.53600
O 	O 	0.18770 0.31090 0.98210 -0.25900
O 	O 	0.16920 0.18480 0.07930 -0.25900
O 	O 	0.35410 0.25300 0.04840 -0.13200
O 	O 	0.05020 0.60970 0.07980 -0.54300
O 	O 	0.40860 0.39140 0.38740 -0.53200
O 	O 	0.53710 0.08590 0.38320 -0.50300
O 	O 	0.96580 0.90990 0.07690 -0.53400
O 	O 	0.68770 0.18910 0.51790 -0.25800
O 	O 	0.66920 0.31520 0.42070 -0.26500
O 	O 	0.85410 0.24700 0.45160 -0.13400
O 	O 	0.55020 0.89030 0.42020 -0.55200
O 	O 	0.90860 0.10860 0.11260 -0.53500
