data_crystal

_cell_length_a 10.65700
_cell_length_b 13.48300
_cell_length_c 14.36500
_cell_angle_alpha 76.86560
_cell_angle_beta  68.22670
_cell_angle_gamma 66.72150

_symmetry_space_group_name_	'P 1'
_symmetry_space_group_name_H-M	'P 1'

loop_
_symmetry_equiv_pos_as_xyz
  x,y,z

loop_
_atom_site_label
_atom_site_type_symbol
_atom_site_fract_x
_atom_site_fract_y
_atom_site_fract_z
_atom_site_charge
Mn	Mn	0.85624 0.03925 0.10921 1.26400
Mn	Mn	0.50470 0.46075 0.39079 1.27200
Mn	Mn	0.14376 0.96075 0.89079 1.26400
Mn	Mn	0.49530 0.53925 0.60921 1.27200
Mn	Mn	0.78086 0.25000 0.25000 1.31000
Mn	Mn	0.21914 0.75000 0.75000 1.31000
H 	H 	0.20120 0.18170 0.84630 0.04500
H 	H 	0.29730 0.31370 0.75250 0.04100
H 	H 	0.95300 0.54210 0.90770 0.04000
H 	H 	0.86330 0.40910 0.00930 0.05300
H 	H 	0.54320 0.16240 0.44740 0.03500
H 	H 	0.58080 0.87440 0.38540 0.04600
H 	H 	0.72920 0.31830 0.65370 0.03100
H 	H 	0.86350 0.18630 0.74750 0.05100
H 	H 	0.90280 0.95790 0.59230 0.06300
H 	H 	0.78170 0.09090 0.49070 0.03300
H 	H 	0.65300 0.33760 0.05260 0.03300
H 	H 	0.34060 0.62560 0.11460 0.04600
H 	H 	0.79880 0.81830 0.15370 0.04500
H 	H 	0.70270 0.68630 0.24750 0.04100
H 	H 	0.04700 0.45790 0.09230 0.04000
H 	H 	0.13670 0.59090 0.99070 0.05300
H 	H 	0.45680 0.83760 0.55260 0.03500
H 	H 	0.41920 0.12560 0.61460 0.04600
H 	H 	0.27080 0.68170 0.34630 0.03100
H 	H 	0.13650 0.81370 0.25250 0.05100
H 	H 	0.09720 0.04210 0.40770 0.06300
H 	H 	0.21830 0.90910 0.50930 0.03300
H 	H 	0.34700 0.66240 0.94740 0.03300
H 	H 	0.65940 0.37440 0.88540 0.04600
C 	C 	0.96764 0.19552 0.00420 0.36100
C 	C 	0.02417 0.28174 0.93932 -0.07700
C 	C 	0.15282 0.25365 0.86051 -0.03000
C 	C 	0.20906 0.33321 0.80307 -0.00300
C 	C 	0.13488 0.44114 0.82050 -0.09800
C 	C 	0.00435 0.46954 0.89676 0.00600
C 	C 	0.94972 0.38984 0.95712 -0.03900
C 	C 	0.20052 0.52581 0.76055 0.38600
C 	C 	0.65918 0.04388 0.29316 0.34000
C 	C 	0.57513 0.02185 0.40009 -0.08400
C 	C 	0.52612 0.09706 0.46850 -0.02100
C 	C 	0.54866 0.92473 0.43135 -0.01700
C 	C 	0.66736 0.30448 0.49580 0.39900
C 	C 	0.74523 0.21826 0.56068 -0.12600
C 	C 	0.76698 0.24635 0.63949 0.00500
C 	C 	0.84534 0.16679 0.69693 -0.03600
C 	C 	0.89652 0.05886 0.67950 -0.06800
C 	C 	0.87065 0.03046 0.60324 -0.04600
C 	C 	0.79668 0.11016 0.54288 0.01400
C 	C 	0.98688 0.97419 0.73945 0.36800
C 	C 	0.49622 0.45612 0.20684 0.35100
C 	C 	0.49707 0.47815 0.09991 -0.08400
C 	C 	0.59168 0.40294 0.03150 -0.02200
C 	C 	0.40474 0.57527 0.06865 -0.01700
C 	C 	0.03236 0.80448 0.99580 0.36100
C 	C 	0.97583 0.71826 0.06068 -0.07700
C 	C 	0.84718 0.74635 0.13949 -0.03000
C 	C 	0.79094 0.66679 0.19693 -0.00300
C 	C 	0.86512 0.55886 0.17950 -0.09800
C 	C 	0.99565 0.53046 0.10324 0.00600
C 	C 	0.05028 0.61016 0.04288 -0.03900
C 	C 	0.79948 0.47419 0.23945 0.38600
C 	C 	0.34082 0.95612 0.70684 0.34000
C 	C 	0.42487 0.97815 0.59991 -0.08400
C 	C 	0.47388 0.90294 0.53150 -0.02100
C 	C 	0.45134 0.07527 0.56865 -0.01700
C 	C 	0.33264 0.69552 0.50420 0.39900
C 	C 	0.25477 0.78174 0.43932 -0.12600
C 	C 	0.23302 0.75365 0.36051 0.00500
C 	C 	0.15466 0.83321 0.30307 -0.03600
C 	C 	0.10348 0.94114 0.32050 -0.06800
C 	C 	0.12935 0.96954 0.39676 -0.04600
C 	C 	0.20332 0.88984 0.45712 0.01400
C 	C 	0.01312 0.02581 0.26055 0.36800
C 	C 	0.50378 0.54388 0.79316 0.35100
C 	C 	0.50293 0.52185 0.90009 -0.08400
C 	C 	0.40832 0.59706 0.96850 -0.02200
C 	C 	0.59526 0.42473 0.93135 -0.01700
O 	O 	0.01838 0.10121 0.97623 -0.54600
O 	O 	0.86705 0.21685 0.08645 -0.51900
O 	O 	0.13717 0.62180 0.78386 -0.44700
O 	O 	0.31774 0.49184 0.69208 -0.47100
O 	O 	0.67917 0.13377 0.26469 -0.50000
O 	O 	0.70881 0.97211 0.23407 -0.41800
O 	O 	0.59582 0.39879 0.52377 -0.56700
O 	O 	0.67035 0.28315 0.41355 -0.52600
O 	O 	0.04283 0.87820 0.71614 -0.44600
O 	O 	0.00166 0.00816 0.80792 -0.45600
O 	O 	0.57763 0.36623 0.23531 -0.50200
O 	O 	0.41499 0.52789 0.26593 -0.42700
O 	O 	0.98162 0.89879 0.02377 -0.54600
O 	O 	0.13295 0.78315 0.91355 -0.51900
O 	O 	0.86283 0.37820 0.21614 -0.44700
O 	O 	0.68226 0.50816 0.30792 -0.47100
O 	O 	0.32083 0.86623 0.73531 -0.50000
O 	O 	0.29119 0.02789 0.76593 -0.41800
O 	O 	0.40418 0.60121 0.47623 -0.56700
O 	O 	0.32965 0.71685 0.58645 -0.52600
O 	O 	0.95717 0.12180 0.28386 -0.44600
O 	O 	0.99834 0.99184 0.19208 -0.45600
O 	O 	0.42237 0.63377 0.76469 -0.50200
O 	O 	0.58501 0.47211 0.73407 -0.42700
