data_crystal

_cell_length_a 13.68600
_cell_length_b 18.25200
_cell_length_c 14.90600
_cell_angle_alpha 90.00000
_cell_angle_beta  101.07000
_cell_angle_gamma 90.00000

_symmetry_space_group_name_	'P 1'
_symmetry_space_group_name_H-M	'P 1'

loop_
_symmetry_equiv_pos_as_xyz
  x,y,z

loop_
_atom_site_label
_atom_site_type_symbol
_atom_site_fract_x
_atom_site_fract_y
_atom_site_fract_z
_atom_site_charge
Cd	Cd	0.65877 0.79047 0.57456 1.24300
O 	O 	0.80129 0.82130 0.49927 -0.42700
O 	O 	0.65773 0.87914 0.46233 -0.34500
O 	O 	0.50311 0.23507 0.98676 -0.36500
O 	O 	0.48083 0.15527 0.09250 -0.43100
O 	O 	0.61999 0.09049 0.26465 -0.41000
O 	O 	0.72661 0.11252 0.17079 -0.38200
O 	O 	0.09896 0.23726 0.70914 -0.49600
O 	O 	0.25681 0.23101 0.69809 -0.36500
C 	C 	0.74800 0.87126 0.45668 0.30700
C 	C 	0.79200 0.92442 0.39850 -0.03900
C 	C 	0.89310 0.92445 0.39800 -0.07400
H 	H 	0.93600 0.89100 0.43550 0.08000
C 	C 	0.73050 0.97477 0.34480 -0.00600
H 	H 	0.66140 0.97540 0.34610 0.07400
C 	C 	0.93180 0.97341 0.34260 0.09100
H 	H 	0.00110 0.97330 0.34210 -0.03200
C 	C 	0.86930 0.02260 0.28800 -0.07100
H 	H 	0.89600 0.05540 0.24950 0.08300
C 	C 	0.76850 0.02419 0.28927 -0.05000
C 	C 	0.69990 0.08083 0.23579 0.36100
C 	C 	0.44860 0.19303 0.02180 0.32700
C 	C 	0.27570 0.14253 0.01550 0.00700
H 	H 	0.29640 0.12320 0.07530 0.04200
C 	C 	0.34220 0.18236 0.97496 -0.08400
C 	C 	0.17910 0.13091 0.96880 -0.07000
H 	H 	0.13360 0.10430 0.99720 0.05600
C 	C 	0.31140 0.20885 0.88720 0.04200
H 	H 	0.35650 0.23630 0.85940 0.05200
C 	C 	0.14830 0.15783 0.88080 0.02000
H 	H 	0.08190 0.15040 0.84920 0.01700
C 	C 	0.21620 0.19608 0.83924 -0.11500
C 	C 	0.18900 0.22306 0.74344 0.33500
Cd	Cd	0.15877 0.29047 0.57456 1.24100
O 	O 	0.30129 0.32130 0.49927 -0.43600
O 	O 	0.15773 0.37914 0.46233 -0.36100
O 	O 	0.00311 0.73507 0.98676 -0.42500
O 	O 	0.98083 0.65527 0.09250 -0.41800
O 	O 	0.11999 0.59049 0.26465 -0.42900
O 	O 	0.22661 0.61252 0.17079 -0.39500
O 	O 	0.59896 0.73726 0.70914 -0.48000
O 	O 	0.75681 0.73101 0.69809 -0.36000
C 	C 	0.24800 0.37126 0.45668 0.33000
C 	C 	0.29200 0.42442 0.39850 -0.10100
C 	C 	0.39310 0.42445 0.39800 0.03000
H 	H 	0.43600 0.39100 0.43550 0.03000
C 	C 	0.23050 0.47477 0.34480 0.04900
H 	H 	0.16140 0.47540 0.34610 0.04900
C 	C 	0.43180 0.47341 0.34260 -0.09400
H 	H 	0.50110 0.47330 0.34210 0.06700
C 	C 	0.36930 0.52260 0.28800 0.03500
H 	H 	0.39600 0.55540 0.24950 0.03600
C 	C 	0.26850 0.52419 0.28927 -0.11100
C 	C 	0.19990 0.58083 0.23579 0.38200
C 	C 	0.94860 0.69303 0.02180 0.40300
C 	C 	0.77570 0.64253 0.01550 0.04100
H 	H 	0.79640 0.62320 0.07530 0.03400
C 	C 	0.84220 0.68236 0.97496 -0.11600
C 	C 	0.67910 0.63091 0.96880 -0.09000
H 	H 	0.63360 0.60430 0.99720 0.07100
C 	C 	0.81140 0.70885 0.88720 0.06400
H 	H 	0.85650 0.73630 0.85940 0.05600
C 	C 	0.64830 0.65783 0.88080 0.03300
H 	H 	0.58190 0.65040 0.84920 0.02500
C 	C 	0.71620 0.69608 0.83924 -0.12200
C 	C 	0.68900 0.72306 0.74344 0.33400
Cd	Cd	0.34123 0.79047 0.92544 1.24400
O 	O 	0.19871 0.82130 0.00073 -0.44500
O 	O 	0.34227 0.87914 0.03767 -0.35500
O 	O 	0.49689 0.23507 0.51324 -0.37000
O 	O 	0.51917 0.15527 0.40750 -0.43300
O 	O 	0.38001 0.09049 0.23535 -0.42000
O 	O 	0.27339 0.11252 0.32921 -0.39600
O 	O 	0.90104 0.23726 0.79086 -0.45900
O 	O 	0.74319 0.23101 0.80191 -0.36200
C 	C 	0.25200 0.87126 0.04332 0.34700
C 	C 	0.20800 0.92442 0.10150 -0.15200
C 	C 	0.10690 0.92445 0.10200 0.12700
H 	H 	0.06400 0.89100 0.06450 -0.01800
C 	C 	0.26950 0.97477 0.15520 0.09600
H 	H 	0.33860 0.97540 0.15390 0.04100
C 	C 	0.06820 0.97341 0.15740 -0.27200
H 	H 	0.99890 0.97330 0.15790 0.16300
C 	C 	0.13070 0.02260 0.21200 0.13200
H 	H 	0.10400 0.05540 0.25050 -0.00800
C 	C 	0.23150 0.02419 0.21073 -0.16200
C 	C 	0.30010 0.08083 0.26421 0.39900
C 	C 	0.55140 0.19303 0.47820 0.34100
C 	C 	0.72430 0.14253 0.48450 0.03200
H 	H 	0.70360 0.12320 0.42470 0.03600
C 	C 	0.65780 0.18236 0.52504 -0.10200
C 	C 	0.82090 0.13091 0.53120 -0.08200
H 	H 	0.86640 0.10430 0.50280 0.07700
C 	C 	0.68860 0.20885 0.61280 0.04900
H 	H 	0.64350 0.23630 0.64060 0.05000
C 	C 	0.85170 0.15783 0.61920 0.02500
H 	H 	0.91810 0.15040 0.65080 0.04100
C 	C 	0.78380 0.19608 0.66076 -0.11300
C 	C 	0.81100 0.22306 0.75656 0.32700
Cd	Cd	0.84123 0.29047 0.92544 1.24700
O 	O 	0.69871 0.32130 0.00073 -0.43500
O 	O 	0.84227 0.37914 0.03767 -0.33700
O 	O 	0.99689 0.73507 0.51324 -0.30800
O 	O 	0.01917 0.65527 0.40750 -0.44200
O 	O 	0.88001 0.59049 0.23535 -0.39500
O 	O 	0.77339 0.61252 0.32921 -0.38200
O 	O 	0.40104 0.73726 0.79086 -0.48000
O 	O 	0.24319 0.73101 0.80191 -0.36800
C 	C 	0.75200 0.37126 0.04332 0.32300
C 	C 	0.70800 0.42442 0.10150 -0.08900
C 	C 	0.60690 0.42445 0.10200 0.02100
H 	H 	0.56400 0.39100 0.06450 0.03200
C 	C 	0.76950 0.47477 0.15520 0.03900
H 	H 	0.83860 0.47540 0.15390 0.06700
C 	C 	0.56820 0.47341 0.15740 -0.08600
H 	H 	0.49890 0.47330 0.15790 0.06300
C 	C 	0.63070 0.52260 0.21200 0.02700
H 	H 	0.60400 0.55540 0.25050 0.03900
C 	C 	0.73150 0.52419 0.21073 -0.09800
C 	C 	0.80010 0.58083 0.26421 0.37700
C 	C 	0.05140 0.69303 0.47820 0.27100
C 	C 	0.22430 0.64253 0.48450 0.01800
H 	H 	0.20360 0.62320 0.42470 0.04000
C 	C 	0.15780 0.68236 0.52504 -0.08600
C 	C 	0.32090 0.63091 0.53120 -0.07800
H 	H 	0.36640 0.60430 0.50280 0.06600
C 	C 	0.18860 0.70885 0.61280 0.03700
H 	H 	0.14350 0.73630 0.64060 0.04200
C 	C 	0.35170 0.65783 0.61920 0.02100
H 	H 	0.41810 0.65040 0.65080 0.02900
C 	C 	0.28380 0.69608 0.66076 -0.11400
C 	C 	0.31100 0.72306 0.75656 0.33100
Cd	Cd	0.34123 0.20953 0.42544 1.24400
O 	O 	0.19871 0.17870 0.50073 -0.44200
O 	O 	0.34227 0.12086 0.53767 -0.35400
O 	O 	0.49689 0.76493 0.01324 -0.37300
O 	O 	0.51917 0.84473 0.90750 -0.43400
O 	O 	0.38001 0.90951 0.73535 -0.41900
O 	O 	0.27339 0.88748 0.82921 -0.39500
O 	O 	0.90104 0.76274 0.29086 -0.45800
O 	O 	0.74319 0.76899 0.30191 -0.36200
C 	C 	0.25200 0.12874 0.54332 0.34500
C 	C 	0.20800 0.07558 0.60150 -0.14900
C 	C 	0.10690 0.07555 0.60200 0.12200
H 	H 	0.06400 0.10900 0.56450 -0.01600
C 	C 	0.26950 0.02523 0.65520 0.09300
H 	H 	0.33860 0.02460 0.65390 0.04200
C 	C 	0.06820 0.02659 0.65740 -0.26400
H 	H 	0.99890 0.02670 0.65790 0.15900
C 	C 	0.13070 0.97740 0.71200 0.12800
H 	H 	0.10400 0.94460 0.75050 -0.00600
C 	C 	0.23150 0.97581 0.71073 -0.15900
C 	C 	0.30010 0.91917 0.76421 0.39800
C 	C 	0.55140 0.80697 0.97820 0.34700
C 	C 	0.72430 0.85747 0.98450 0.03900
H 	H 	0.70360 0.87680 0.92470 0.03400
C 	C 	0.65780 0.81764 0.02504 -0.11000
C 	C 	0.82090 0.86909 0.03120 -0.08800
H 	H 	0.86640 0.89570 0.00280 0.07900
C 	C 	0.68860 0.79115 0.11280 0.05300
H 	H 	0.64350 0.76370 0.14060 0.04800
C 	C 	0.85170 0.84217 0.11920 0.02900
H 	H 	0.91810 0.84960 0.15080 0.04000
C 	C 	0.78380 0.80392 0.16076 -0.11500
C 	C 	0.81100 0.77694 0.25656 0.32800
Cd	Cd	0.84123 0.70953 0.42544 1.24700
O 	O 	0.69871 0.67870 0.50073 -0.43300
O 	O 	0.84227 0.62086 0.53767 -0.33600
O 	O 	0.99689 0.26493 0.01324 -0.31500
O 	O 	0.01917 0.34473 0.90750 -0.44400
O 	O 	0.88001 0.40951 0.73535 -0.39600
O 	O 	0.77339 0.38748 0.82921 -0.38200
O 	O 	0.40104 0.26274 0.29086 -0.48100
O 	O 	0.24319 0.26899 0.30191 -0.37000
C 	C 	0.75200 0.62874 0.54332 0.32300
C 	C 	0.70800 0.57558 0.60150 -0.08800
C 	C 	0.60690 0.57555 0.60200 0.02100
H 	H 	0.56400 0.60900 0.56450 0.03300
C 	C 	0.76950 0.52523 0.65520 0.03800
H 	H 	0.83860 0.52460 0.65390 0.06700
C 	C 	0.56820 0.52659 0.65740 -0.08500
H 	H 	0.49890 0.52670 0.65790 0.06300
C 	C 	0.63070 0.47740 0.71200 0.02600
H 	H 	0.60400 0.44460 0.75050 0.03900
C 	C 	0.73150 0.47581 0.71073 -0.09800
C 	C 	0.80010 0.41917 0.76421 0.37700
C 	C 	0.05140 0.30697 0.97820 0.28800
C 	C 	0.22430 0.35747 0.98450 0.04600
H 	H 	0.20360 0.37680 0.92470 0.03100
C 	C 	0.15780 0.31764 0.02504 -0.11000
C 	C 	0.32090 0.36909 0.03120 -0.10200
H 	H 	0.36640 0.39570 0.00280 0.07200
C 	C 	0.18860 0.29115 0.11280 0.05300
H 	H 	0.14350 0.26370 0.14060 0.03600
C 	C 	0.35170 0.34217 0.11920 0.03600
H 	H 	0.41810 0.34960 0.15080 0.02400
C 	C 	0.28380 0.30392 0.16076 -0.12600
C 	C 	0.31100 0.27694 0.25656 0.33500
Cd	Cd	0.65877 0.20953 0.07456 1.24300
O 	O 	0.80129 0.17870 0.99927 -0.42500
O 	O 	0.65773 0.12086 0.96233 -0.34300
O 	O 	0.50311 0.76493 0.48676 -0.37000
O 	O 	0.48083 0.84473 0.59250 -0.43300
O 	O 	0.61999 0.90951 0.76465 -0.41000
O 	O 	0.72661 0.88748 0.67079 -0.38200
O 	O 	0.09896 0.76274 0.20914 -0.49800
O 	O 	0.25681 0.76899 0.19809 -0.36700
C 	C 	0.74800 0.12874 0.95668 0.30800
C 	C 	0.79200 0.07558 0.89850 -0.04100
C 	C 	0.89310 0.07555 0.89800 -0.06900
H 	H 	0.93600 0.10900 0.93550 0.07800
C 	C 	0.73050 0.02523 0.84480 -0.00400
H 	H 	0.66140 0.02460 0.84610 0.07400
C 	C 	0.93180 0.02659 0.84260 0.08200
H 	H 	0.00110 0.02670 0.84210 -0.02700
C 	C 	0.86930 0.97740 0.78800 -0.06600
H 	H 	0.89600 0.94460 0.74950 0.08100
C 	C 	0.76850 0.97581 0.78927 -0.05200
C 	C 	0.69990 0.91917 0.73579 0.36200
C 	C 	0.44860 0.80697 0.52180 0.34200
C 	C 	0.27570 0.85747 0.51550 0.03500
H 	H 	0.29640 0.87680 0.57530 0.03400
C 	C 	0.34220 0.81764 0.47496 -0.10700
C 	C 	0.17910 0.86909 0.46880 -0.09300
H 	H 	0.13360 0.89570 0.49720 0.06100
C 	C 	0.31140 0.79115 0.38720 0.05700
H 	H 	0.35650 0.76370 0.35940 0.04700
C 	C 	0.14830 0.84217 0.38080 0.03400
H 	H 	0.08190 0.84960 0.34920 0.01100
C 	C 	0.21620 0.80392 0.33924 -0.12600
C 	C 	0.18900 0.77694 0.24344 0.33900
Cd	Cd	0.15877 0.70953 0.07456 1.23900
O 	O 	0.30129 0.67870 0.99927 -0.43400
O 	O 	0.15773 0.62086 0.96233 -0.35900
O 	O 	0.00311 0.26493 0.48676 -0.43100
O 	O 	0.98083 0.34473 0.59250 -0.42000
O 	O 	0.11999 0.40951 0.76465 -0.42800
O 	O 	0.22661 0.38748 0.67079 -0.39300
O 	O 	0.59896 0.26274 0.20914 -0.48100
O 	O 	0.75681 0.26899 0.19809 -0.36000
C 	C 	0.24800 0.62874 0.95668 0.33000
C 	C 	0.29200 0.57558 0.89850 -0.10000
C 	C 	0.39310 0.57555 0.89800 0.03000
H 	H 	0.43600 0.60900 0.93550 0.03100
C 	C 	0.23050 0.52523 0.84480 0.04800
H 	H 	0.16140 0.52460 0.84610 0.05000
C 	C 	0.43180 0.52659 0.84260 -0.09400
H 	H 	0.50110 0.52670 0.84210 0.06700
C 	C 	0.36930 0.47740 0.78800 0.03500
H 	H 	0.39600 0.44460 0.74950 0.03600
C 	C 	0.26850 0.47581 0.78927 -0.11000
C 	C 	0.19990 0.41917 0.73579 0.38200
C 	C 	0.94860 0.30697 0.52180 0.41000
C 	C 	0.77570 0.35747 0.51550 0.04900
H 	H 	0.79640 0.37680 0.57530 0.03200
C 	C 	0.84220 0.31764 0.47496 -0.12200
C 	C 	0.67910 0.36909 0.46880 -0.09700
H 	H 	0.63360 0.39570 0.49720 0.07200
C 	C 	0.81140 0.29115 0.38720 0.06800
H 	H 	0.85650 0.26370 0.35940 0.05500
C 	C 	0.64830 0.34217 0.38080 0.03700
H 	H 	0.58190 0.34960 0.34920 0.02400
C 	C 	0.71620 0.30392 0.33924 -0.12500
C 	C 	0.68900 0.27694 0.24344 0.33500
Cd	Cd	0.50000 0.17252 0.25000 1.24900
Cd	Cd	0.00000 0.67252 0.25000 1.23000
Cd	Cd	0.50000 0.82748 0.75000 1.24900
Cd	Cd	0.00000 0.32748 0.75000 1.23100
