data_crystal

_cell_length_a 10.69780
_cell_length_b 13.49120
_cell_length_c 14.38430
_cell_angle_alpha 76.77080
_cell_angle_beta  68.16990
_cell_angle_gamma 66.64220

_symmetry_space_group_name_	'P 1'
_symmetry_space_group_name_H-M	'P 1'

loop_
_symmetry_equiv_pos_as_xyz
  x,y,z

loop_
_atom_site_label
_atom_site_type_symbol
_atom_site_fract_x
_atom_site_fract_y
_atom_site_fract_z
_atom_site_charge
Mn	Mn	0.85709 0.03911 0.10951 1.26400
Mn	Mn	0.50571 0.46089 0.39049 1.27300
Mn	Mn	0.14291 0.96089 0.89049 1.26400
Mn	Mn	0.49429 0.53911 0.60951 1.27300
Mn	Mn	0.78202 0.25000 0.25000 1.31000
Mn	Mn	0.21798 0.75000 0.75000 1.31000
H 	H 	0.20120 0.18140 0.84660 0.04400
H 	H 	0.29710 0.31340 0.75260 0.04100
H 	H 	0.95440 0.54160 0.90760 0.04000
H 	H 	0.86460 0.40890 0.00930 0.05200
H 	H 	0.54520 0.16160 0.44820 0.03500
H 	H 	0.57940 0.87530 0.38510 0.04600
H 	H 	0.72920 0.31860 0.65340 0.03000
H 	H 	0.86310 0.18660 0.74740 0.05100
H 	H 	0.90360 0.95840 0.59240 0.06300
H 	H 	0.78280 0.09110 0.49070 0.03200
H 	H 	0.65500 0.33840 0.05180 0.03300
H 	H 	0.33980 0.62470 0.11490 0.04500
H 	H 	0.79880 0.81860 0.15340 0.04400
H 	H 	0.70290 0.68660 0.24740 0.04100
H 	H 	0.04560 0.45840 0.09240 0.04000
H 	H 	0.13540 0.59110 0.99070 0.05200
H 	H 	0.45480 0.83840 0.55180 0.03500
H 	H 	0.42060 0.12470 0.61490 0.04600
H 	H 	0.27080 0.68140 0.34660 0.03000
H 	H 	0.13690 0.81340 0.25260 0.05100
H 	H 	0.09640 0.04160 0.40760 0.06300
H 	H 	0.21720 0.90890 0.50930 0.03200
H 	H 	0.34500 0.66160 0.94820 0.03300
H 	H 	0.66020 0.37530 0.88510 0.04500
C 	C 	0.96810 0.19554 0.00406 0.36100
C 	C 	0.02480 0.28152 0.93908 -0.07800
C 	C 	0.15300 0.25335 0.86065 -0.03000
C 	C 	0.20908 0.33287 0.80317 -0.00400
C 	C 	0.13520 0.44070 0.82050 -0.09800
C 	C 	0.00546 0.46900 0.89668 0.00600
C 	C 	0.95072 0.38954 0.95702 -0.03900
C 	C 	0.20070 0.52544 0.76016 0.38700
C 	C 	0.66048 0.04433 0.29371 0.34400
C 	C 	0.57578 0.02198 0.40026 -0.08500
C 	C 	0.52731 0.09662 0.46896 -0.02100
C 	C 	0.54784 0.92530 0.43122 -0.01600
C 	C 	0.66770 0.30446 0.49594 0.40000
C 	C 	0.74540 0.21848 0.56092 -0.12800
C 	C 	0.76700 0.24665 0.63935 0.00700
C 	C 	0.84512 0.16713 0.69683 -0.03700
C 	C 	0.89640 0.05930 0.67950 -0.06700
C 	C 	0.87114 0.03100 0.60332 -0.04600
C 	C 	0.79728 0.11046 0.54298 0.01500
C 	C 	0.98630 0.97456 0.73984 0.36900
C 	C 	0.49852 0.45567 0.20629 0.35500
C 	C 	0.49802 0.47802 0.09974 -0.08500
C 	C 	0.59289 0.40338 0.03104 -0.02200
C 	C 	0.40436 0.57470 0.06878 -0.01700
C 	C 	0.03190 0.80446 0.99594 0.36100
C 	C 	0.97520 0.71848 0.06092 -0.07800
C 	C 	0.84700 0.74665 0.13935 -0.03000
C 	C 	0.79092 0.66713 0.19683 -0.00400
C 	C 	0.86480 0.55930 0.17950 -0.09800
C 	C 	0.99454 0.53100 0.10332 0.00600
C 	C 	0.04928 0.61046 0.04298 -0.03900
C 	C 	0.79930 0.47456 0.23984 0.38700
C 	C 	0.33952 0.95567 0.70629 0.34400
C 	C 	0.42422 0.97802 0.59974 -0.08500
C 	C 	0.47269 0.90338 0.53104 -0.02100
C 	C 	0.45216 0.07470 0.56878 -0.01600
C 	C 	0.33230 0.69554 0.50406 0.40000
C 	C 	0.25460 0.78152 0.43908 -0.12800
C 	C 	0.23300 0.75335 0.36065 0.00700
C 	C 	0.15488 0.83287 0.30317 -0.03700
C 	C 	0.10360 0.94070 0.32050 -0.06700
C 	C 	0.12886 0.96900 0.39668 -0.04600
C 	C 	0.20272 0.88954 0.45702 0.01500
C 	C 	0.01370 0.02544 0.26016 0.36900
C 	C 	0.50148 0.54433 0.79371 0.35500
C 	C 	0.50198 0.52198 0.90026 -0.08500
C 	C 	0.40711 0.59662 0.96896 -0.02200
C 	C 	0.59564 0.42530 0.93122 -0.01700
O 	O 	0.01819 0.10117 0.97605 -0.54500
O 	O 	0.86820 0.21652 0.08628 -0.51900
O 	O 	0.13710 0.62139 0.78361 -0.44700
O 	O 	0.31743 0.49158 0.69196 -0.47200
O 	O 	0.68073 0.13362 0.26552 -0.50200
O 	O 	0.70983 0.97267 0.23447 -0.41900
O 	O 	0.59541 0.39883 0.52395 -0.56700
O 	O 	0.67100 0.28348 0.41372 -0.52600
O 	O 	0.04210 0.87861 0.71639 -0.44600
O 	O 	0.00097 0.00842 0.80804 -0.45600
O 	O 	0.57987 0.36638 0.23448 -0.50300
O 	O 	0.41697 0.52733 0.26553 -0.42800
O 	O 	0.98181 0.89883 0.02395 -0.54500
O 	O 	0.13180 0.78348 0.91372 -0.51900
O 	O 	0.86290 0.37861 0.21639 -0.44700
O 	O 	0.68257 0.50842 0.30804 -0.47200
O 	O 	0.31927 0.86638 0.73448 -0.50200
O 	O 	0.29017 0.02733 0.76553 -0.41900
O 	O 	0.40459 0.60117 0.47605 -0.56700
O 	O 	0.32900 0.71652 0.58628 -0.52600
O 	O 	0.95790 0.12139 0.28361 -0.44600
O 	O 	0.99903 0.99158 0.19196 -0.45600
O 	O 	0.42013 0.63362 0.76552 -0.50300
O 	O 	0.58303 0.47267 0.73447 -0.42800
