data_crystal

_cell_length_a 29.67740
_cell_length_b 9.62950
_cell_length_c 7.98120
_cell_angle_alpha 90.00000
_cell_angle_beta  97.69000
_cell_angle_gamma 90.00000

_symmetry_space_group_name_	'P 1'
_symmetry_space_group_name_H-M	'P 1'

loop_
_symmetry_equiv_pos_as_xyz
  x,y,z

loop_
_atom_site_label
_atom_site_type_symbol
_atom_site_fract_x
_atom_site_fract_y
_atom_site_fract_z
_atom_site_charge
O 	O 	0.06556 0.93160 0.99190 -0.36000
O 	O 	0.07419 0.78540 0.21300 -0.31600
H 	H 	0.02390 0.86800 0.23800 0.36400
C 	C 	0.13664 0.81980 0.06100 -0.05400
C 	C 	0.16435 0.73480 0.17290 -0.09000
H 	H 	0.15240 0.69560 0.26690 0.07200
C 	C 	0.20863 0.70670 0.15000 0.07700
C 	C 	0.22636 0.76380 0.01340 -0.15600
C 	C 	0.19870 0.84990 0.90030 0.11500
C 	C 	0.15453 0.87630 0.92640 -0.04700
H 	H 	0.13610 0.93490 0.84970 0.07300
C 	C 	0.23530 0.58430 0.24150 -0.06100
H 	H 	0.22420 0.56550 0.35070 0.02200
H 	H 	0.23110 0.49930 0.17120 0.03100
C 	C 	0.24290 0.64750 0.29550 -0.06900
H 	H 	0.25880 0.72410 0.36170 0.03500
H 	H 	0.22680 0.59070 0.37210 0.02900
C 	C 	0.21550 0.87640 0.72930 -0.31800
H 	H 	0.21140 0.79170 0.65870 0.12900
H 	H 	0.19750 0.95220 0.66870 -0.15300
C 	C 	0.22340 0.94090 0.78290 0.19300
H 	H 	0.20100 0.98160 0.69310 0.22500
H 	H 	0.23940 0.01780 0.84820 -0.06100
C 	C 	0.08859 0.84730 0.09060 0.25700
O 	O 	0.56556 0.43160 0.99190 -0.38100
O 	O 	0.57419 0.28540 0.21300 -0.32800
H 	H 	0.52390 0.36800 0.23800 0.36100
C 	C 	0.63664 0.31980 0.06100 -0.06800
C 	C 	0.66435 0.23480 0.17290 -0.09600
H 	H 	0.65240 0.19560 0.26690 0.06600
C 	C 	0.70863 0.20670 0.15000 0.07200
C 	C 	0.72636 0.26380 0.01340 -0.16500
C 	C 	0.69870 0.34990 0.90030 0.10700
C 	C 	0.65453 0.37630 0.92640 -0.04600
H 	H 	0.63610 0.43490 0.84970 0.06200
C 	C 	0.73530 0.08430 0.24150 -0.22600
H 	H 	0.72420 0.06550 0.35070 -0.04100
H 	H 	0.73110 0.99930 0.17120 0.09600
C 	C 	0.74290 0.14750 0.29550 0.07500
H 	H 	0.75880 0.22410 0.36170 -0.00700
H 	H 	0.72680 0.09070 0.37210 0.08900
C 	C 	0.71550 0.37640 0.72930 -0.09400
H 	H 	0.71140 0.29170 0.65870 0.04700
H 	H 	0.69750 0.45220 0.66870 0.01700
C 	C 	0.72340 0.44090 0.78290 -0.04600
H 	H 	0.70100 0.48160 0.69310 0.04400
H 	H 	0.73940 0.51780 0.84820 0.03800
C 	C 	0.58859 0.34730 0.09060 0.25700
O 	O 	0.93444 0.93160 0.50810 -0.41100
O 	O 	0.92581 0.78540 0.28700 -0.32700
H 	H 	0.97610 0.86800 0.26200 0.37200
C 	C 	0.86336 0.81980 0.43900 -0.03600
C 	C 	0.83565 0.73480 0.32710 -0.05900
H 	H 	0.84760 0.69560 0.23310 0.05600
C 	C 	0.79137 0.70670 0.35000 0.02500
C 	C 	0.77364 0.76380 0.48660 -0.01900
C 	C 	0.80130 0.84990 0.59970 0.03700
C 	C 	0.84547 0.87630 0.57360 -0.06400
H 	H 	0.86390 0.93490 0.65030 0.07600
C 	C 	0.76470 0.58430 0.25850 -0.02300
H 	H 	0.77580 0.56550 0.14930 0.01400
H 	H 	0.76890 0.49930 0.32880 0.02400
C 	C 	0.75710 0.64750 0.20450 -0.06300
H 	H 	0.74120 0.72410 0.13830 0.02400
H 	H 	0.77320 0.59070 0.12790 0.01600
C 	C 	0.78450 0.87640 0.77070 -0.27900
H 	H 	0.78860 0.79170 0.84130 0.12300
H 	H 	0.80250 0.95220 0.83130 -0.15200
C 	C 	0.77660 0.94090 0.71710 0.19800
H 	H 	0.79900 0.98160 0.80690 0.22100
H 	H 	0.76060 0.01780 0.65180 -0.07000
C 	C 	0.91141 0.84730 0.40940 0.31300
O 	O 	0.43444 0.43160 0.50810 -0.43500
O 	O 	0.42581 0.28540 0.28700 -0.34200
H 	H 	0.47610 0.36800 0.26200 0.36400
C 	C 	0.36336 0.31980 0.43900 -0.05000
C 	C 	0.33565 0.23480 0.32710 -0.06500
H 	H 	0.34760 0.19560 0.23310 0.05000
C 	C 	0.29137 0.20670 0.35000 0.01900
C 	C 	0.27364 0.26380 0.48660 -0.02700
C 	C 	0.30130 0.34990 0.59970 0.02800
C 	C 	0.34547 0.37630 0.57360 -0.06400
H 	H 	0.36390 0.43490 0.65030 0.06500
C 	C 	0.26470 0.08430 0.25850 -0.19100
H 	H 	0.27580 0.06550 0.14930 -0.05000
H 	H 	0.26890 0.99930 0.32880 0.08900
C 	C 	0.25710 0.14750 0.20450 0.08400
H 	H 	0.24120 0.22410 0.13830 -0.02000
H 	H 	0.27320 0.09070 0.12790 0.07700
C 	C 	0.28450 0.37640 0.77070 -0.05800
H 	H 	0.28860 0.29170 0.84130 0.04200
H 	H 	0.30250 0.45220 0.83130 0.01700
C 	C 	0.27660 0.44090 0.71710 -0.03900
H 	H 	0.29900 0.48160 0.80690 0.04300
H 	H 	0.26060 0.51780 0.65180 0.02800
C 	C 	0.41141 0.34730 0.40940 0.31400
O 	O 	0.93444 0.06840 0.00810 -0.49600
O 	O 	0.92581 0.21460 0.78700 -0.34200
H 	H 	0.97610 0.13200 0.76200 0.38200
C 	C 	0.86336 0.18020 0.93900 -0.03300
C 	C 	0.83565 0.26520 0.82710 -0.04300
H 	H 	0.84760 0.30440 0.73310 0.05400
C 	C 	0.79137 0.29330 0.85000 -0.02500
C 	C 	0.77364 0.23620 0.98660 0.10500
C 	C 	0.80130 0.15010 0.09970 -0.05800
C 	C 	0.84547 0.12370 0.07360 -0.08800
H 	H 	0.86390 0.06510 0.15030 0.05300
C 	C 	0.76470 0.41570 0.75850 -0.01400
H 	H 	0.77580 0.43450 0.64930 0.01600
H 	H 	0.76890 0.50070 0.82880 0.02600
C 	C 	0.75710 0.35250 0.70450 -0.03500
H 	H 	0.74120 0.27590 0.63830 0.02100
H 	H 	0.77320 0.40930 0.62790 0.01800
C 	C 	0.78450 0.12360 0.27070 0.18200
H 	H 	0.78860 0.20830 0.34130 -0.04900
H 	H 	0.80250 0.04780 0.33130 0.18100
C 	C 	0.77660 0.05910 0.21710 -0.25300
H 	H 	0.79900 0.01840 0.30690 -0.14900
H 	H 	0.76060 0.98220 0.15180 0.11200
C 	C 	0.91141 0.15270 0.90940 0.36500
O 	O 	0.43444 0.56840 0.00810 -0.48400
O 	O 	0.42581 0.71460 0.78700 -0.33200
H 	H 	0.47610 0.63200 0.76200 0.37600
C 	C 	0.36336 0.68020 0.93900 -0.02200
C 	C 	0.33565 0.76520 0.82710 -0.03600
H 	H 	0.34760 0.80440 0.73310 0.05900
C 	C 	0.29137 0.79330 0.85000 -0.02000
C 	C 	0.27364 0.73620 0.98660 0.11300
C 	C 	0.30130 0.65010 0.09970 -0.04900
C 	C 	0.34547 0.62370 0.07360 -0.08700
H 	H 	0.36390 0.56510 0.15030 0.06300
C 	C 	0.26470 0.91570 0.75850 0.14900
H 	H 	0.27580 0.93450 0.64930 0.07800
H 	H 	0.26890 0.00070 0.82880 -0.03700
C 	C 	0.25710 0.85250 0.70450 -0.17700
H 	H 	0.24120 0.77590 0.63830 0.06300
H 	H 	0.27320 0.90930 0.62790 -0.04100
C 	C 	0.28450 0.62360 0.27070 -0.04400
H 	H 	0.28860 0.70830 0.34130 0.03300
H 	H 	0.30250 0.54780 0.33130 0.00800
C 	C 	0.27660 0.55910 0.21710 -0.01100
H 	H 	0.29900 0.51840 0.30690 0.03400
H 	H 	0.26060 0.48220 0.15180 0.01100
C 	C 	0.41141 0.65270 0.90940 0.36600
O 	O 	0.06556 0.06840 0.49190 -0.45200
O 	O 	0.07419 0.21460 0.71300 -0.33000
H 	H 	0.02390 0.13200 0.73800 0.37300
C 	C 	0.13664 0.18020 0.56100 -0.05200
C 	C 	0.16435 0.26520 0.67290 -0.07300
H 	H 	0.15240 0.30440 0.76690 0.06900
C 	C 	0.20863 0.29330 0.65000 0.02700
C 	C 	0.22636 0.23620 0.51340 -0.03300
C 	C 	0.19870 0.15010 0.40030 0.02100
C 	C 	0.15453 0.12370 0.42640 -0.07000
H 	H 	0.13610 0.06510 0.34970 0.05000
C 	C 	0.23530 0.41570 0.74150 -0.05200
H 	H 	0.22420 0.43450 0.85070 0.02400
H 	H 	0.23110 0.50070 0.67120 0.03400
C 	C 	0.24290 0.35250 0.79550 -0.04100
H 	H 	0.25880 0.27590 0.86170 0.03200
H 	H 	0.22680 0.40930 0.87210 0.03100
C 	C 	0.21550 0.12360 0.22930 0.14900
H 	H 	0.21140 0.20830 0.15870 -0.04500
H 	H 	0.19750 0.04780 0.16870 0.18400
C 	C 	0.22340 0.05910 0.28290 -0.26500
H 	H 	0.20100 0.01840 0.19310 -0.15100
H 	H 	0.23940 0.98220 0.34820 0.12400
C 	C 	0.08859 0.15270 0.59060 0.31000
O 	O 	0.56556 0.56840 0.49190 -0.43700
O 	O 	0.57419 0.71460 0.71300 -0.31800
H 	H 	0.52390 0.63200 0.73800 0.37200
C 	C 	0.63664 0.68020 0.56100 -0.04100
C 	C 	0.66435 0.76520 0.67290 -0.06700
H 	H 	0.65240 0.80440 0.76690 0.07400
C 	C 	0.70863 0.79330 0.65000 0.03200
C 	C 	0.72636 0.73620 0.51340 -0.02500
C 	C 	0.69870 0.65010 0.40030 0.02900
C 	C 	0.65453 0.62370 0.42640 -0.06900
H 	H 	0.63610 0.56510 0.34970 0.06000
C 	C 	0.73530 0.91570 0.74150 0.10900
H 	H 	0.72420 0.93450 0.85070 0.08500
H 	H 	0.73110 0.00070 0.67120 -0.02800
C 	C 	0.74290 0.85250 0.79550 -0.18200
H 	H 	0.75880 0.77590 0.86170 0.07300
H 	H 	0.72680 0.90930 0.87210 -0.02800
C 	C 	0.71550 0.62360 0.22930 -0.08000
H 	H 	0.71140 0.70830 0.15870 0.03800
H 	H 	0.69750 0.54780 0.16870 0.00900
C 	C 	0.72340 0.55910 0.28290 -0.01800
H 	H 	0.70100 0.51840 0.19310 0.03400
H 	H 	0.73940 0.48220 0.34820 0.02100
C 	C 	0.58859 0.65270 0.59060 0.31000
Co	Co	-0.00000 0.00000 -0.00000 1.09900
Co	Co	0.50000 0.50000 -0.00000 1.11800
Co	Co	0.00000 0.00000 0.50000 1.12000
Co	Co	0.50000 0.50000 0.50000 1.13900
O 	O 	0.00000 0.91500 0.25000 -0.95500
O 	O 	0.50000 0.41500 0.25000 -0.97200
O 	O 	0.00000 0.08500 0.75000 -0.98800
O 	O 	0.50000 0.58500 0.75000 -0.96600
