data_crystal

_cell_length_a 9.82940
_cell_length_b 12.10980
_cell_length_c 14.62790
_cell_angle_alpha 109.75000
_cell_angle_beta  103.61300
_cell_angle_gamma 100.14000

_symmetry_space_group_name_	'P 1'
_symmetry_space_group_name_H-M	'P 1'

loop_
_symmetry_equiv_pos_as_xyz
  x,y,z

loop_
_atom_site_label
_atom_site_type_symbol
_atom_site_fract_x
_atom_site_fract_y
_atom_site_fract_z
_atom_site_charge
Tb	Tb	0.23970 0.97874 0.00469 1.66600
Tb	Tb	0.76030 0.02126 0.99531 1.66600
H 	H 	0.56520 0.87200 0.71980 0.04400
H 	H 	0.20390 0.63980 0.70920 0.04200
H 	H 	0.08430 0.43970 0.55780 0.04700
H 	H 	0.06260 0.31580 0.39550 0.05100
H 	H 	0.15770 0.26600 0.24600 0.05200
H 	H 	0.50670 0.50580 0.25170 0.06200
H 	H 	0.62810 0.70390 0.40390 0.05300
H 	H 	0.64670 0.83100 0.56490 0.05000
H 	H 	0.12630 0.92510 0.73800 0.02800
H 	H 	0.79090 0.07330 0.69670 0.04100
H 	H 	0.24530 0.86600 0.60270 0.05100
H 	H 	0.71480 0.12320 0.54220 0.04700
H 	H 	0.43480 0.12800 0.28020 0.04500
H 	H 	0.79610 0.36020 0.29080 0.04300
H 	H 	0.91570 0.56030 0.44220 0.04700
H 	H 	0.93740 0.68420 0.60450 0.05100
H 	H 	0.84230 0.73400 0.75400 0.05200
H 	H 	0.49330 0.49420 0.74830 0.06200
H 	H 	0.37190 0.29610 0.59610 0.05300
H 	H 	0.35330 0.16900 0.43510 0.05000
H 	H 	0.87370 0.07490 0.26200 0.02800
H 	H 	0.20910 0.92670 0.30330 0.04100
H 	H 	0.75470 0.13400 0.39730 0.05100
H 	H 	0.28520 0.87680 0.45780 0.04700
C 	C 	0.48670 0.79950 0.68320 -0.02200
C 	C 	0.38620 0.76770 0.72970 -0.11200
C 	C 	0.27310 0.65960 0.67740 -0.02000
C 	C 	0.14990 0.46430 0.52530 -0.04700
C 	C 	0.13840 0.39030 0.42960 -0.06500
C 	C 	0.23090 0.34210 0.28040 -0.05600
C 	C 	0.32950 0.37370 0.23370 -0.04800
C 	C 	0.43880 0.48510 0.28400 -0.06100
C 	C 	0.56070 0.68080 0.43570 -0.06400
C 	C 	0.57180 0.75590 0.53100 -0.04600
C 	C 	0.47210 0.72440 0.58250 0.01100
C 	C 	0.35940 0.61280 0.53030 0.00000
C 	C 	0.26020 0.58030 0.57940 0.00900
C 	C 	0.23730 0.42050 0.37760 0.03300
C 	C 	0.34770 0.53470 0.42940 -0.02100
C 	C 	0.44890 0.56650 0.38150 0.03700
C 	C 	0.39930 0.85360 0.83540 0.44500
C 	C 	0.32800 0.28650 0.13030 0.32500
C 	C 	0.95620 0.99950 0.73200 -0.11800
C 	C 	0.06390 0.95480 0.69790 -0.01500
C 	C 	0.08180 0.95290 0.60580 0.01200
C 	C 	0.99080 0.99960 0.54730 -0.01100
C 	C 	0.88130 0.04560 0.58140 0.01200
C 	C 	0.86520 0.04380 0.67360 -0.03000
C 	C 	0.93600 0.99950 0.83060 0.43900
C 	C 	0.18820 0.90280 0.56640 -0.05600
C 	C 	0.79030 0.09380 0.52080 -0.05400
C 	C 	0.51330 0.20050 0.31680 -0.02200
C 	C 	0.61380 0.23230 0.27030 -0.11200
C 	C 	0.72690 0.34040 0.32260 -0.02000
C 	C 	0.85010 0.53570 0.47470 -0.04700
C 	C 	0.86160 0.60970 0.57040 -0.06500
C 	C 	0.76910 0.65790 0.71960 -0.05600
C 	C 	0.67050 0.62630 0.76630 -0.04800
C 	C 	0.56120 0.51490 0.71600 -0.06100
C 	C 	0.43930 0.31920 0.56430 -0.06400
C 	C 	0.42820 0.24410 0.46900 -0.04600
C 	C 	0.52790 0.27560 0.41750 0.01100
C 	C 	0.64060 0.38720 0.46970 0.00000
C 	C 	0.73980 0.41970 0.42060 0.00900
C 	C 	0.76270 0.57950 0.62240 0.03300
C 	C 	0.65230 0.46530 0.57060 -0.02100
C 	C 	0.55110 0.43350 0.61850 0.03700
C 	C 	0.60070 0.14640 0.16460 0.44500
C 	C 	0.67200 0.71350 0.86970 0.32500
C 	C 	0.04380 0.00050 0.26800 -0.11800
C 	C 	0.93610 0.04520 0.30210 -0.01500
C 	C 	0.91820 0.04710 0.39420 0.01200
C 	C 	0.00920 0.00040 0.45270 -0.01100
C 	C 	0.11870 0.95440 0.41860 0.01200
C 	C 	0.13480 0.95620 0.32640 -0.03000
C 	C 	0.06400 0.00050 0.16940 0.43900
C 	C 	0.81180 0.09720 0.43360 -0.05600
C 	C 	0.20970 0.90620 0.47920 -0.05400
O 	O 	0.28760 0.84600 0.86310 -0.49800
O 	O 	0.52020 0.93160 0.88920 -0.51200
O 	O 	0.23060 0.18210 0.09010 -0.41800
O 	O 	0.41640 0.31840 0.08950 -0.28500
O 	O 	0.03560 0.98380 0.89250 -0.51000
O 	O 	0.81800 0.01520 0.84550 -0.48900
O 	O 	0.71240 0.15400 0.13690 -0.49800
O 	O 	0.47980 0.06840 0.11080 -0.51200
O 	O 	0.76940 0.81790 0.90990 -0.41800
O 	O 	0.58360 0.68160 0.91050 -0.28500
O 	O 	0.96440 0.01620 0.10750 -0.51000
O 	O 	0.18200 0.98480 0.15450 -0.48900
