data_crystal

_cell_length_a 10.10230
_cell_length_b 14.41200
_cell_length_c 14.96350
_cell_angle_alpha 70.59000
_cell_angle_beta  72.75200
_cell_angle_gamma 87.14200

_symmetry_space_group_name_	'P 1'
_symmetry_space_group_name_H-M	'P 1'

loop_
_symmetry_equiv_pos_as_xyz
  x,y,z

loop_
_atom_site_label
_atom_site_type_symbol
_atom_site_fract_x
_atom_site_fract_y
_atom_site_fract_z
_atom_site_charge
Cd	Cd	0.31053 0.45357 0.53015 1.20900
Cd	Cd	0.89091 0.38677 0.63754 1.23800
O 	O 	0.10570 0.31786 0.59840 -0.48100
O 	O 	0.31480 0.31438 0.49941 -0.41900
O 	O 	0.11040 0.54972 0.52249 -0.57000
O 	O 	0.93980 0.52262 0.66361 -0.42800
O 	O 	0.20710 0.76924 0.29143 -0.37600
O 	O 	0.15330 0.70459 0.19095 -0.35600
O 	O 	0.53620 0.41163 0.55976 -0.51000
O 	O 	0.65890 0.44409 0.64697 -0.45700
C 	C 	0.05930 0.11210 0.62690 -0.12300
H 	H 	0.98960 0.14080 0.66630 0.08200
C 	C 	0.17150 0.16900 0.55990 -0.01200
C 	C 	0.26730 0.12650 0.50330 -0.11400
H 	H 	0.34690 0.16480 0.45560 0.07800
C 	C 	0.39540 0.96320 0.49060 -0.14200
H 	H 	0.47520 0.00570 0.43980 0.05800
H 	H 	0.42160 0.92870 0.55170 0.06200
C 	C 	0.30430 0.99390 0.41670 -0.14100
H 	H 	0.23020 0.00040 0.38440 0.05700
H 	H 	0.38670 0.03540 0.36820 0.06100
C 	C 	0.34040 0.88880 0.45100 0.04500
C 	C 	0.18380 0.73290 0.52710 -0.00700
H 	H 	0.24760 0.70570 0.48280 0.01900
C 	C 	0.06550 0.67680 0.59480 -0.12400
C 	C 	0.97600 0.71540 0.66200 0.00800
H 	H 	0.89660 0.67680 0.70960 0.03900
C 	C 	0.90170 0.85460 0.73070 0.04600
C 	C 	0.89120 0.96590 0.67070 -0.14700
H 	H 	0.82400 0.99820 0.71260 0.06600
H 	H 	0.86200 0.97220 0.61140 0.06500
C 	C 	0.96240 0.92950 0.75210 -0.15100
H 	H 	0.02980 0.90130 0.78910 0.06700
H 	H 	0.88990 0.96050 0.79210 0.07000
C 	C 	0.04350 0.01300 0.63950 0.11400
C 	C 	0.13780 0.97070 0.58170 -0.09500
C 	C 	0.25160 0.02790 0.51370 0.10000
C 	C 	0.20930 0.82790 0.52360 -0.03500
C 	C 	0.11680 0.86750 0.58950 0.04700
C 	C 	0.00090 0.80940 0.66050 -0.04300
C 	C 	0.19620 0.27400 0.55130 0.31500
C 	C 	0.03620 0.57690 0.59420 0.33700
C 	C 	0.18950 0.89400 0.04080 -0.08100
H 	H 	0.13570 0.84540 0.03470 0.06500
C 	C 	0.23170 0.87400 0.12620 -0.02300
C 	C 	0.30820 0.94570 0.13600 -0.08500
H 	H 	0.33610 0.93220 0.19420 0.06800
C 	C 	0.43030 0.11410 0.07110 -0.12500
H 	H 	0.52990 0.10190 0.04800 0.07300
H 	H 	0.40730 0.10900 0.14170 0.05700
C 	C 	0.40450 0.21820 0.01020 -0.11900
H 	H 	0.31020 0.23580 0.04140 0.06100
H 	H 	0.47230 0.26580 0.00960 0.06200
C 	C 	0.48520 0.30410 0.82360 -0.06300
H 	H 	0.52810 0.35600 0.83280 0.05600
C 	C 	0.49000 0.30860 0.72850 -0.07200
C 	C 	0.42770 0.23220 0.71440 -0.07300
H 	H 	0.42740 0.23710 0.64960 0.05200
C 	C 	0.31000 0.06080 0.78120 -0.12500
H 	H 	0.38440 0.01420 0.77300 0.06200
H 	H 	0.28060 0.08260 0.72020 0.06500
C 	C 	0.18670 0.00820 0.87010 -0.11400
H 	H 	0.10690 0.05110 0.87250 0.06300
H 	H 	0.15870 0.94690 0.86280 0.05400
C 	C 	0.22540 0.98380 0.96530 0.03600
C 	C 	0.30630 0.05510 0.97470 -0.02600
C 	C 	0.34420 0.03660 0.06200 0.04500
C 	C 	0.41830 0.22450 0.90520 0.04400
C 	C 	0.36120 0.14550 0.89050 -0.02700
C 	C 	0.36610 0.14920 0.79460 0.04300
C 	C 	0.19590 0.77630 0.20760 0.27200
C 	C 	0.56520 0.39280 0.64110 0.30400
Cd	Cd	0.68947 0.54643 0.46985 1.20800
Cd	Cd	0.10909 0.61323 0.36246 1.23700
O 	O 	0.89430 0.68214 0.40160 -0.48100
O 	O 	0.68520 0.68562 0.50059 -0.41900
O 	O 	0.88960 0.45028 0.47751 -0.57000
O 	O 	0.06020 0.47738 0.33639 -0.42800
O 	O 	0.79290 0.23076 0.70857 -0.37600
O 	O 	0.84670 0.29541 0.80905 -0.35600
O 	O 	0.46380 0.58837 0.44024 -0.51000
O 	O 	0.34110 0.55591 0.35303 -0.45700
C 	C 	0.94070 0.88790 0.37310 -0.12300
H 	H 	0.01040 0.85920 0.33370 0.08200
C 	C 	0.82850 0.83100 0.44010 -0.01200
C 	C 	0.73270 0.87350 0.49670 -0.11400
H 	H 	0.65310 0.83520 0.54440 0.07800
C 	C 	0.60460 0.03680 0.50940 -0.14200
H 	H 	0.52480 0.99430 0.56020 0.05800
H 	H 	0.57840 0.07130 0.44830 0.06200
C 	C 	0.69570 0.00610 0.58330 -0.14100
H 	H 	0.76980 0.99960 0.61560 0.05700
H 	H 	0.61330 0.96460 0.63180 0.06100
C 	C 	0.65960 0.11120 0.54900 0.04500
C 	C 	0.81620 0.26710 0.47290 -0.00700
H 	H 	0.75240 0.29430 0.51720 0.01900
C 	C 	0.93450 0.32320 0.40520 -0.12400
C 	C 	0.02400 0.28460 0.33800 0.00800
H 	H 	0.10340 0.32320 0.29040 0.03900
C 	C 	0.09830 0.14540 0.26930 0.04600
C 	C 	0.10880 0.03410 0.32930 -0.14700
H 	H 	0.17600 0.00180 0.28740 0.06600
H 	H 	0.13800 0.02780 0.38860 0.06500
C 	C 	0.03760 0.07050 0.24790 -0.15100
H 	H 	0.97020 0.09870 0.21090 0.06700
H 	H 	0.11010 0.03950 0.20790 0.07000
C 	C 	0.95650 0.98700 0.36050 0.11400
C 	C 	0.86220 0.02930 0.41830 -0.09500
C 	C 	0.74840 0.97210 0.48630 0.10000
C 	C 	0.79070 0.17210 0.47640 -0.03500
C 	C 	0.88320 0.13250 0.41050 0.04700
C 	C 	0.99910 0.19060 0.33950 -0.04300
C 	C 	0.80380 0.72600 0.44870 0.31500
C 	C 	0.96380 0.42310 0.40580 0.33700
C 	C 	0.81050 0.10600 0.95920 -0.08100
H 	H 	0.86430 0.15460 0.96530 0.06500
C 	C 	0.76830 0.12600 0.87380 -0.02300
C 	C 	0.69180 0.05430 0.86400 -0.08500
H 	H 	0.66390 0.06780 0.80580 0.06800
C 	C 	0.56970 0.88590 0.92890 -0.12500
H 	H 	0.47010 0.89810 0.95200 0.07300
H 	H 	0.59270 0.89100 0.85830 0.05700
C 	C 	0.59550 0.78180 0.98980 -0.11900
H 	H 	0.68980 0.76420 0.95860 0.06100
H 	H 	0.52770 0.73420 0.99040 0.06200
C 	C 	0.51480 0.69590 0.17640 -0.06300
H 	H 	0.47190 0.64400 0.16720 0.05600
C 	C 	0.51000 0.69140 0.27150 -0.07200
C 	C 	0.57230 0.76780 0.28560 -0.07300
H 	H 	0.57260 0.76290 0.35040 0.05200
C 	C 	0.69000 0.93920 0.21880 -0.12500
H 	H 	0.61560 0.98580 0.22700 0.06200
H 	H 	0.71940 0.91740 0.27980 0.06500
C 	C 	0.81330 0.99180 0.12990 -0.11400
H 	H 	0.89310 0.94890 0.12750 0.06300
H 	H 	0.84130 0.05310 0.13720 0.05400
C 	C 	0.77460 0.01620 0.03470 0.03600
C 	C 	0.69370 0.94490 0.02530 -0.02600
C 	C 	0.65580 0.96340 0.93800 0.04500
C 	C 	0.58170 0.77550 0.09480 0.04400
C 	C 	0.63880 0.85450 0.10950 -0.02700
C 	C 	0.63390 0.85080 0.20540 0.04300
C 	C 	0.80410 0.22370 0.79240 0.27200
C 	C 	0.43480 0.60720 0.35890 0.30400
