data_crystal

_cell_length_a 24.08500
_cell_length_b 14.39300
_cell_length_c 8.71220
_cell_angle_alpha 90.00000
_cell_angle_beta  94.26000
_cell_angle_gamma 90.00000

_symmetry_space_group_name_	'P 1'
_symmetry_space_group_name_H-M	'P 1'

loop_
_symmetry_equiv_pos_as_xyz
  x,y,z

loop_
_atom_site_label
_atom_site_type_symbol
_atom_site_fract_x
_atom_site_fract_y
_atom_site_fract_z
_atom_site_charge
P 	P 	0.33817 0.73198 0.42986 0.81600
P 	P 	0.32603 0.96913 0.93930 0.74000
P 	P 	0.49158 0.17888 0.52626 0.76100
Al	Al	0.27811 0.87641 0.62404 2.39600
Al	Al	0.45019 0.62979 0.50032 2.40100
Al	Al	0.40212 0.88885 0.24087 2.40700
O 	O 	0.32489 0.79180 0.56850 -0.78300
O 	O 	0.35818 0.78820 0.30050 -0.66300
O 	O 	0.38148 0.66110 0.49290 -0.76800
O 	O 	0.28631 0.67610 0.37490 -0.77500
O 	O 	0.34989 0.90790 0.06880 -0.62700
O 	O 	0.36953 0.97060 0.37470 -0.72900
O 	O 	0.27915 0.96960 0.49810 -0.77500
O 	O 	0.29811 0.90500 0.81350 -0.73700
O 	O 	0.46013 0.55540 0.65460 -0.80100
O 	O 	0.46549 0.56530 0.34430 -0.82300
O 	O 	0.44435 0.99050 0.16440 -2.64400
O 	O 	0.46963 0.12580 0.38220 -0.71500
O 	O 	0.49303 0.72326 0.52910 -0.77500
O 	O 	0.44306 0.80610 0.12600 -0.59300
O 	O 	0.45812 0.87160 0.40210 -0.69200
H 	H 	0.43400 0.00100 0.10200 1.66500
P 	P 	0.83817 0.23198 0.42986 0.81700
P 	P 	0.82603 0.46913 0.93930 0.78000
P 	P 	0.99158 0.67888 0.52626 0.97000
Al	Al	0.77811 0.37641 0.62404 2.39700
Al	Al	0.95019 0.12979 0.50032 2.40100
Al	Al	0.90212 0.38885 0.24087 2.40700
O 	O 	0.82489 0.29180 0.56850 -0.77800
O 	O 	0.85818 0.28820 0.30050 -0.66100
O 	O 	0.88148 0.16110 0.49290 -0.76300
O 	O 	0.78631 0.17610 0.37490 -0.77600
O 	O 	0.84989 0.40790 0.06880 -0.64700
O 	O 	0.86953 0.47060 0.37470 -0.72900
O 	O 	0.77915 0.46960 0.49810 -0.77500
O 	O 	0.79811 0.40500 0.81350 -0.73300
O 	O 	0.96013 0.05540 0.65460 -0.67800
O 	O 	0.96549 0.06530 0.34430 -0.70500
O 	O 	0.94435 0.49050 0.16440 -2.62800
O 	O 	0.96963 0.62580 0.38220 -0.67800
O 	O 	0.99303 0.22326 0.52910 -0.64000
O 	O 	0.94306 0.30610 0.12600 -0.59200
O 	O 	0.95812 0.37160 0.40210 -0.57800
H 	H 	0.93400 0.50100 0.10200 1.68700
P 	P 	0.66183 0.73198 0.07014 0.81800
P 	P 	0.67397 0.96913 0.56070 0.76700
P 	P 	0.50842 0.17888 0.97374 0.78800
Al	Al	0.72189 0.87641 0.87596 2.39700
Al	Al	0.54981 0.62979 0.99968 2.40200
Al	Al	0.59788 0.88885 0.25913 2.40700
O 	O 	0.67511 0.79180 0.93150 -0.78400
O 	O 	0.64182 0.78820 0.19950 -0.66200
O 	O 	0.61852 0.66110 0.00710 -0.76900
O 	O 	0.71369 0.67610 0.12510 -0.77600
O 	O 	0.65011 0.90790 0.43120 -0.63600
O 	O 	0.63047 0.97060 0.12530 -0.71500
O 	O 	0.72085 0.96960 0.00190 -0.75900
O 	O 	0.70189 0.90500 0.68650 -0.73700
O 	O 	0.53987 0.55540 0.84540 -0.79900
O 	O 	0.53451 0.56530 0.15570 -0.82500
O 	O 	0.55565 0.99050 0.33560 -2.69500
O 	O 	0.53037 0.12580 0.11780 -0.72900
O 	O 	0.50697 0.72326 0.97090 -0.77600
O 	O 	0.55694 0.80610 0.37400 -0.59300
O 	O 	0.54188 0.87160 0.09790 -0.68900
H 	H 	0.56600 0.00100 0.39800 1.71100
P 	P 	0.16183 0.23198 0.07014 0.80800
P 	P 	0.17397 0.46913 0.56070 0.76900
P 	P 	0.00842 0.67888 0.97374 0.55300
Al	Al	0.22189 0.37641 0.87596 2.39700
Al	Al	0.04981 0.12979 0.99968 2.40200
Al	Al	0.09788 0.38885 0.25913 2.40800
O 	O 	0.17511 0.29180 0.93150 -0.77500
O 	O 	0.14182 0.28820 0.19950 -0.66600
O 	O 	0.11852 0.16110 0.00710 -0.78500
O 	O 	0.21369 0.17610 0.12510 -0.78200
O 	O 	0.15011 0.40790 0.43120 -0.63900
O 	O 	0.13047 0.47060 0.12530 -0.73300
O 	O 	0.22085 0.46960 0.00190 -0.77800
O 	O 	0.20189 0.40500 0.68650 -0.73600
O 	O 	0.03987 0.05540 0.84540 -0.79400
O 	O 	0.03451 0.06530 0.15570 -0.83800
O 	O 	0.05565 0.49050 0.33560 -2.79100
O 	O 	0.03037 0.62580 0.11780 -0.73500
O 	O 	0.00697 0.22326 0.97090 -0.89300
O 	O 	0.05694 0.30610 0.37400 -0.59400
O 	O 	0.04188 0.37160 0.09790 -0.79500
H 	H 	0.06600 0.50100 0.39800 1.76500
P 	P 	0.66183 0.26802 0.57014 0.81700
P 	P 	0.67397 0.03087 0.06070 0.72900
P 	P 	0.50842 0.82112 0.47374 0.76200
Al	Al	0.72189 0.12359 0.37596 2.39700
Al	Al	0.54981 0.37021 0.49968 2.40200
Al	Al	0.59788 0.11115 0.75913 2.40700
O 	O 	0.67511 0.20820 0.43150 -0.78400
O 	O 	0.64182 0.21180 0.69950 -0.66100
O 	O 	0.61852 0.33890 0.50710 -0.76800
O 	O 	0.71369 0.32390 0.62510 -0.77400
O 	O 	0.65011 0.09210 0.93120 -0.61500
O 	O 	0.63047 0.02940 0.62530 -0.72900
O 	O 	0.72085 0.03040 0.50190 -0.77200
O 	O 	0.70189 0.09500 0.18650 -0.73700
O 	O 	0.53987 0.44460 0.34540 -0.80200
O 	O 	0.53451 0.43470 0.65570 -0.82200
O 	O 	0.55565 0.00950 0.83560 -2.64800
O 	O 	0.53037 0.87420 0.61780 -0.71400
O 	O 	0.50697 0.27674 0.47090 -0.77600
O 	O 	0.55694 0.19390 0.87400 -0.59200
O 	O 	0.54188 0.12840 0.59790 -0.69100
H 	H 	0.56600 0.99900 0.89800 1.67300
P 	P 	0.16183 0.76802 0.57014 0.81600
P 	P 	0.17397 0.53087 0.06070 0.76800
P 	P 	0.00842 0.32112 0.47374 0.55600
Al	Al	0.22189 0.62359 0.37596 2.39700
Al	Al	0.04981 0.87021 0.49968 2.40100
Al	Al	0.09788 0.61115 0.75913 2.40800
O 	O 	0.17511 0.70820 0.43150 -0.78600
O 	O 	0.14182 0.71180 0.69950 -0.66700
O 	O 	0.11852 0.83890 0.50710 -0.77700
O 	O 	0.21369 0.82390 0.62510 -0.77800
O 	O 	0.15011 0.59210 0.93120 -0.63600
O 	O 	0.13047 0.52940 0.62530 -0.73100
O 	O 	0.22085 0.53040 0.50190 -0.77400
O 	O 	0.20189 0.59500 0.18650 -0.73700
O 	O 	0.03987 0.94460 0.34540 -0.80100
O 	O 	0.03451 0.93470 0.65570 -0.83200
O 	O 	0.05565 0.50950 0.83560 -2.79400
O 	O 	0.03037 0.37420 0.61780 -0.73700
O 	O 	0.00697 0.77674 0.47090 -0.90900
O 	O 	0.05694 0.69390 0.87400 -0.59400
O 	O 	0.04188 0.62840 0.59790 -0.79900
H 	H 	0.06600 0.49900 0.89800 1.76800
P 	P 	0.33817 0.26802 0.92986 0.82800
P 	P 	0.32603 0.03087 0.43930 0.76600
P 	P 	0.49158 0.82112 0.02626 0.76700
Al	Al	0.27811 0.12359 0.12404 2.39600
Al	Al	0.45019 0.37021 0.00032 2.40100
Al	Al	0.40212 0.11115 0.74087 2.40700
O 	O 	0.32489 0.20820 0.06850 -0.79700
O 	O 	0.35818 0.21180 0.80050 -0.66200
O 	O 	0.38148 0.33890 0.99290 -0.76200
O 	O 	0.28631 0.32390 0.87490 -0.77300
O 	O 	0.34989 0.09210 0.56880 -0.63700
O 	O 	0.36953 0.02940 0.87470 -0.71200
O 	O 	0.27915 0.03040 0.99810 -0.75400
O 	O 	0.29811 0.09500 0.31350 -0.74100
O 	O 	0.46013 0.44460 0.15460 -0.80500
O 	O 	0.46549 0.43470 0.84430 -0.81900
O 	O 	0.44435 0.00950 0.66440 -2.69300
O 	O 	0.46963 0.87420 0.88220 -0.71600
O 	O 	0.49303 0.27674 0.02910 -0.79200
O 	O 	0.44306 0.19390 0.62600 -0.59300
O 	O 	0.45812 0.12840 0.90210 -0.68700
H 	H 	0.43400 0.99900 0.60200 1.71000
P 	P 	0.83817 0.76802 0.92986 0.81900
P 	P 	0.82603 0.53087 0.43930 0.77000
P 	P 	0.99158 0.32112 0.02626 0.94200
Al	Al	0.77811 0.62359 0.12404 2.39700
Al	Al	0.95019 0.87021 0.00032 2.40100
Al	Al	0.90212 0.61115 0.74087 2.40700
O 	O 	0.82489 0.70820 0.06850 -0.78100
O 	O 	0.85818 0.71180 0.80050 -0.65900
O 	O 	0.88148 0.83890 0.99290 -0.76500
O 	O 	0.78631 0.82390 0.87490 -0.77500
O 	O 	0.84989 0.59210 0.56880 -0.63600
O 	O 	0.86953 0.52940 0.87470 -0.72700
O 	O 	0.77915 0.53040 0.99810 -0.77100
O 	O 	0.79811 0.59500 0.31350 -0.73600
O 	O 	0.96013 0.94460 0.15460 -0.68100
O 	O 	0.96549 0.93470 0.84430 -0.70100
O 	O 	0.94435 0.50950 0.66440 -2.62800
O 	O 	0.96963 0.37420 0.88220 -0.66400
O 	O 	0.99303 0.77674 0.02910 -0.64100
O 	O 	0.94306 0.69390 0.62600 -0.59000
O 	O 	0.95812 0.62840 0.90210 -0.57400
H 	H 	0.93400 0.49900 0.60200 1.69000
P 	P 	0.50000 0.49464 0.75000 0.94300
P 	P 	0.00000 0.99464 0.75000 0.71400
P 	P 	0.50000 0.50536 0.25000 0.94300
P 	P 	-0.00000 0.00536 0.25000 0.72100
Al	Al	0.50000 0.05471 0.25000 2.42600
Al	Al	0.00000 0.55471 0.25000 2.41800
Al	Al	0.50000 0.94529 0.75000 2.42600
Al	Al	-0.00000 0.44529 0.75000 2.41800
