data_crystal

_cell_length_a 14.14700
_cell_length_b 18.09400
_cell_length_c 20.45700
_cell_angle_alpha 90.00000
_cell_angle_beta  102.56700
_cell_angle_gamma 90.00000

_symmetry_space_group_name_	'P 1'
_symmetry_space_group_name_H-M	'P 1'

loop_
_symmetry_equiv_pos_as_xyz
  x,y,z

loop_
_atom_site_label
_atom_site_type_symbol
_atom_site_fract_x
_atom_site_fract_y
_atom_site_fract_z
_atom_site_charge
Ag	Ag	0.23590 0.60605 0.46343 0.46000
C 	C 	0.40670 0.58300 0.47670 0.06900
C 	C 	0.38000 0.53010 0.42630 -0.13100
C 	C 	0.37640 0.45560 0.44280 -0.08900
C 	C 	0.39570 0.43340 0.50900 0.01300
C 	C 	0.39940 0.48710 0.55670 -0.02200
C 	C 	0.40490 0.56110 0.54160 -0.15700
C 	C 	0.45790 0.65340 0.46470 -0.32500
C 	C 	0.43110 0.35640 0.52810 -0.03200
C 	C 	0.08510 0.54430 0.44270 0.92100
C 	C 	0.13880 0.49090 0.48390 -0.91000
C 	C 	0.13950 0.48700 0.55150 0.88300
C 	C 	0.08490 0.53610 0.58030 -0.99800
C 	C 	0.04890 0.59790 0.54260 1.18100
C 	C 	0.04790 0.60270 0.47540 -1.04600
C 	C 	0.04450 0.52920 0.36940 -1.79700
C 	C 	0.05250 0.51590 0.64360 1.31600
H 	H 	0.37800 0.55000 0.38400 0.03700
H 	H 	0.36600 0.42700 0.41400 0.05400
H 	H 	0.40800 0.47300 0.60200 0.02800
H 	H 	0.41300 0.59700 0.57300 0.05800
H 	H 	0.43200 0.67300 0.42700 0.11700
H 	H 	0.45100 0.68800 0.49500 0.11000
H 	H 	0.39500 0.32600 0.50100 0.01300
H 	H 	0.41600 0.33700 0.56500 0.01800
H 	H 	0.16900 0.45300 0.46000 0.28600
H 	H 	0.17100 0.45000 0.57400 -0.31300
H 	H 	0.01900 0.62800 0.55800 -0.49400
H 	H 	0.01400 0.64000 0.44400 0.32300
H 	H 	0.08800 0.50400 0.35000 0.57500
H 	H 	0.03600 0.57100 0.34900 0.64700
H 	H 	0.10800 0.49400 0.67300 -0.38500
H 	H 	0.03900 0.55900 0.66200 -0.42300
Ag	Ag	0.76410 0.39395 0.53657 0.45900
C 	C 	0.59330 0.41700 0.52330 0.06800
C 	C 	0.62000 0.46990 0.57370 -0.13100
C 	C 	0.62360 0.54440 0.55720 -0.08900
C 	C 	0.60430 0.56660 0.49100 0.01300
C 	C 	0.60060 0.51290 0.44330 -0.02200
C 	C 	0.59510 0.43890 0.45840 -0.15700
C 	C 	0.54210 0.34660 0.53530 -0.32500
C 	C 	0.56890 0.64360 0.47190 -0.03200
C 	C 	0.91490 0.45570 0.55730 0.92100
C 	C 	0.86120 0.50910 0.51610 -0.91000
C 	C 	0.86050 0.51300 0.44850 0.88300
C 	C 	0.91510 0.46390 0.41970 -0.99800
C 	C 	0.95110 0.40210 0.45740 1.18100
C 	C 	0.95210 0.39730 0.52460 -1.04600
C 	C 	0.95550 0.47080 0.63060 -1.79700
C 	C 	0.94750 0.48410 0.35640 1.31600
H 	H 	0.62200 0.45000 0.61600 0.03700
H 	H 	0.63400 0.57300 0.58600 0.05400
H 	H 	0.59200 0.52700 0.39800 0.02800
H 	H 	0.58700 0.40300 0.42700 0.05800
H 	H 	0.56800 0.32700 0.57300 0.11700
H 	H 	0.54900 0.31200 0.50500 0.11000
H 	H 	0.60500 0.67400 0.49900 0.01300
H 	H 	0.58400 0.66300 0.43500 0.01800
H 	H 	0.83100 0.54700 0.54000 0.28600
H 	H 	0.82900 0.55000 0.42600 -0.31300
H 	H 	0.98100 0.37200 0.44200 -0.49400
H 	H 	0.98600 0.36000 0.55600 0.32300
H 	H 	0.91200 0.49600 0.65000 0.57500
H 	H 	0.96400 0.42900 0.65100 0.64700
H 	H 	0.89200 0.50600 0.32700 -0.38500
H 	H 	0.96100 0.44100 0.33800 -0.42300
Ag	Ag	0.76410 0.10605 0.03657 0.45200
C 	C 	0.59330 0.08300 0.02330 0.05800
C 	C 	0.62000 0.03010 0.07370 -0.13000
C 	C 	0.62360 0.95560 0.05720 -0.09000
C 	C 	0.60430 0.93340 0.99100 0.01700
C 	C 	0.60060 0.98710 0.94330 -0.03000
C 	C 	0.59510 0.06110 0.95840 -0.14700
C 	C 	0.54210 0.15340 0.03530 -0.30500
C 	C 	0.56890 0.85640 0.97190 -0.04900
C 	C 	0.91490 0.04430 0.05730 1.26100
C 	C 	0.86120 0.99090 0.01610 -1.20600
C 	C 	0.86050 0.98700 0.94850 1.24300
C 	C 	0.91510 0.03610 0.91970 -1.39600
C 	C 	0.95110 0.09790 0.95740 1.67500
C 	C 	0.95210 0.10270 0.02460 -1.41000
C 	C 	0.95550 0.02920 0.13060 -2.39100
C 	C 	0.94750 0.01590 0.85640 1.84600
H 	H 	0.62200 0.05000 0.11600 0.03400
H 	H 	0.63400 0.92700 0.08600 0.05400
H 	H 	0.59200 0.97300 0.89800 0.03200
H 	H 	0.58700 0.09700 0.92700 0.05500
H 	H 	0.56800 0.17300 0.07300 0.10900
H 	H 	0.54900 0.18800 0.00500 0.10300
H 	H 	0.60500 0.82600 0.99900 0.01900
H 	H 	0.58400 0.83700 0.93500 0.02400
H 	H 	0.83100 0.95300 0.04000 0.38200
H 	H 	0.82900 0.95000 0.92600 -0.44900
H 	H 	0.98100 0.12800 0.94200 -0.70900
H 	H 	0.98600 0.14000 0.05600 0.43700
H 	H 	0.91200 0.00400 0.15000 0.76700
H 	H 	0.96400 0.07100 0.15100 0.86000
H 	H 	0.89200 0.99400 0.82700 -0.54300
H 	H 	0.96100 0.05900 0.83800 -0.59700
Ag	Ag	0.23590 0.89395 0.96343 0.45200
C 	C 	0.40670 0.91700 0.97670 0.05800
C 	C 	0.38000 0.96990 0.92630 -0.13000
C 	C 	0.37640 0.04440 0.94280 -0.09000
C 	C 	0.39570 0.06660 0.00900 0.01700
C 	C 	0.39940 0.01290 0.05670 -0.03000
C 	C 	0.40490 0.93890 0.04160 -0.14700
C 	C 	0.45790 0.84660 0.96470 -0.30500
C 	C 	0.43110 0.14360 0.02810 -0.04900
C 	C 	0.08510 0.95570 0.94270 1.26100
C 	C 	0.13880 0.00910 0.98390 -1.20600
C 	C 	0.13950 0.01300 0.05150 1.24300
C 	C 	0.08490 0.96390 0.08030 -1.39600
C 	C 	0.04890 0.90210 0.04260 1.67500
C 	C 	0.04790 0.89730 0.97540 -1.41000
C 	C 	0.04450 0.97080 0.86940 -2.39100
C 	C 	0.05250 0.98410 0.14360 1.84600
H 	H 	0.37800 0.95000 0.88400 0.03400
H 	H 	0.36600 0.07300 0.91400 0.05400
H 	H 	0.40800 0.02700 0.10200 0.03200
H 	H 	0.41300 0.90300 0.07300 0.05500
H 	H 	0.43200 0.82700 0.92700 0.10900
H 	H 	0.45100 0.81200 0.99500 0.10300
H 	H 	0.39500 0.17400 0.00100 0.01900
H 	H 	0.41600 0.16300 0.06500 0.02400
H 	H 	0.16900 0.04700 0.96000 0.38200
H 	H 	0.17100 0.05000 0.07400 -0.44900
H 	H 	0.01900 0.87200 0.05800 -0.70900
H 	H 	0.01400 0.86000 0.94400 0.43700
H 	H 	0.08800 0.99600 0.85000 0.76700
H 	H 	0.03600 0.92900 0.84900 0.86000
H 	H 	0.10800 0.00600 0.17300 -0.54300
H 	H 	0.03900 0.94100 0.16200 -0.59700
Ag	Ag	0.24692 0.38691 0.00075 0.48100
C 	C 	0.41560 0.41510 0.01070 0.18900
C 	C 	0.41200 0.46410 0.06270 -0.28100
C 	C 	0.39900 0.53930 0.04920 0.10400
C 	C 	0.38930 0.56610 0.98500 -0.12200
C 	C 	0.37110 0.51630 0.93290 0.13200
C 	C 	0.38350 0.44080 0.94550 -0.36700
C 	C 	0.47380 0.34360 0.02390 -0.35600
C 	C 	0.41650 0.64460 0.97260 0.06900
C 	C 	0.10440 0.45760 0.95780 -0.25400
C 	C 	0.14170 0.51140 0.00520 0.21200
C 	C 	0.11910 0.51180 0.06700 -0.45700
C 	C 	0.05910 0.45800 0.08570 0.35500
C 	C 	0.04070 0.39620 0.04520 -0.32200
C 	C 	0.06200 0.39520 0.98240 0.11700
C 	C 	0.08560 0.47580 0.88420 0.25500
C 	C 	0.00470 0.47290 0.13940 -0.61300
H 	H 	0.42900 0.44700 0.10500 0.10600
H 	H 	0.40100 0.56800 0.08400 -0.02400
H 	H 	0.36300 0.53300 0.88900 -0.02700
H 	H 	0.38000 0.41500 0.91200 0.16100
H 	H 	0.46600 0.32100 0.05900 0.13600
H 	H 	0.45400 0.31200 0.97900 0.08500
H 	H 	0.39300 0.67600 0.00200 -0.01900
H 	H 	0.38400 0.66100 0.92700 -0.01400
H 	H 	0.17300 0.55000 0.99100 -0.06200
H 	H 	0.13500 0.54600 0.09500 0.20400
H 	H 	0.99600 0.36100 0.05900 0.10700
H 	H 	0.03400 0.36100 0.94800 -0.03100
H 	H 	0.14200 0.48800 0.87300 -0.08100
H 	H 	0.06900 0.43000 0.85800 -0.06500
H 	H 	0.04000 0.48500 0.17800 0.21300
H 	H 	0.98700 0.42900 0.15700 0.19200
Ag	Ag	0.75308 0.61309 0.99925 0.48100
C 	C 	0.58440 0.58490 0.98930 0.18900
C 	C 	0.58800 0.53590 0.93730 -0.28100
C 	C 	0.60100 0.46070 0.95080 0.10400
C 	C 	0.61070 0.43390 0.01500 -0.12200
C 	C 	0.62890 0.48370 0.06710 0.13200
C 	C 	0.61650 0.55920 0.05450 -0.36700
C 	C 	0.52620 0.65640 0.97610 -0.35600
C 	C 	0.58350 0.35540 0.02740 0.06900
C 	C 	0.89560 0.54240 0.04220 -0.25400
C 	C 	0.85830 0.48860 0.99480 0.21200
C 	C 	0.88090 0.48820 0.93300 -0.45700
C 	C 	0.94090 0.54200 0.91430 0.35500
C 	C 	0.95930 0.60380 0.95480 -0.32200
C 	C 	0.93800 0.60480 0.01760 0.11700
C 	C 	0.91440 0.52420 0.11580 0.25500
C 	C 	0.99530 0.52710 0.86060 -0.61300
H 	H 	0.57100 0.55300 0.89500 0.10600
H 	H 	0.59900 0.43200 0.91600 -0.02400
H 	H 	0.63700 0.46700 0.11100 -0.02700
H 	H 	0.62000 0.58500 0.08800 0.16100
H 	H 	0.53400 0.67900 0.94100 0.13600
H 	H 	0.54600 0.68800 0.02100 0.08500
H 	H 	0.60700 0.32400 0.99800 -0.01900
H 	H 	0.61600 0.33900 0.07300 -0.01400
H 	H 	0.82700 0.45000 0.00900 -0.06200
H 	H 	0.86500 0.45400 0.90500 0.20400
H 	H 	0.00400 0.63900 0.94100 0.10700
H 	H 	0.96600 0.63900 0.05200 -0.03100
H 	H 	0.85800 0.51200 0.12700 -0.08100
H 	H 	0.93100 0.57000 0.14200 -0.06500
H 	H 	0.96000 0.51500 0.82200 0.21300
H 	H 	0.01300 0.57100 0.84300 0.19200
Ag	Ag	0.75308 0.88691 0.49925 0.48200
C 	C 	0.58440 0.91510 0.48930 0.17900
C 	C 	0.58800 0.96410 0.43730 -0.26800
C 	C 	0.60100 0.03930 0.45080 0.09200
C 	C 	0.61070 0.06610 0.51500 -0.11200
C 	C 	0.62890 0.01630 0.56710 0.11800
C 	C 	0.61650 0.94080 0.55450 -0.35500
C 	C 	0.52620 0.84360 0.47610 -0.34100
C 	C 	0.58350 0.14460 0.52740 0.05600
C 	C 	0.89560 0.95760 0.54220 -0.16000
C 	C 	0.85830 0.01140 0.49480 0.10800
C 	C 	0.88090 0.01180 0.43300 -0.33400
C 	C 	0.94090 0.95800 0.41430 0.24000
C 	C 	0.95930 0.89620 0.45480 -0.21400
C 	C 	0.93800 0.89520 0.51760 0.02300
C 	C 	0.91440 0.97580 0.61580 0.10800
C 	C 	0.99530 0.97290 0.36060 -0.42200
H 	H 	0.57100 0.94700 0.39500 0.10200
H 	H 	0.59900 0.06800 0.41600 -0.02000
H 	H 	0.63700 0.03300 0.61100 -0.02200
H 	H 	0.62000 0.91500 0.58800 0.15500
H 	H 	0.53400 0.82100 0.44100 0.13100
H 	H 	0.54600 0.81200 0.52100 0.08100
H 	H 	0.60700 0.17600 0.49800 -0.01500
H 	H 	0.61600 0.16100 0.57300 -0.01000
H 	H 	0.82700 0.05000 0.50900 -0.02700
H 	H 	0.86500 0.04600 0.40500 0.15100
H 	H 	0.00400 0.86100 0.44100 0.07100
H 	H 	0.96600 0.86100 0.55200 -0.00500
H 	H 	0.85800 0.98800 0.62700 -0.02900
H 	H 	0.93100 0.93000 0.64200 -0.02900
H 	H 	0.96000 0.98500 0.32200 0.14800
H 	H 	0.01300 0.92900 0.34300 0.13300
Ag	Ag	0.24692 0.11309 0.50075 0.48200
C 	C 	0.41560 0.08490 0.51070 0.17900
C 	C 	0.41200 0.03590 0.56270 -0.26800
C 	C 	0.39900 0.96070 0.54920 0.09200
C 	C 	0.38930 0.93390 0.48500 -0.11200
C 	C 	0.37110 0.98370 0.43290 0.11800
C 	C 	0.38350 0.05920 0.44550 -0.35500
C 	C 	0.47380 0.15640 0.52390 -0.34100
C 	C 	0.41650 0.85540 0.47260 0.05600
C 	C 	0.10440 0.04240 0.45780 -0.16000
C 	C 	0.14170 0.98860 0.50520 0.10800
C 	C 	0.11910 0.98820 0.56700 -0.33400
C 	C 	0.05910 0.04200 0.58570 0.24000
C 	C 	0.04070 0.10380 0.54520 -0.21400
C 	C 	0.06200 0.10480 0.48240 0.02300
C 	C 	0.08560 0.02420 0.38420 0.10800
C 	C 	0.00470 0.02710 0.63940 -0.42200
H 	H 	0.42900 0.05300 0.60500 0.10200
H 	H 	0.40100 0.93200 0.58400 -0.02000
H 	H 	0.36300 0.96700 0.38900 -0.02200
H 	H 	0.38000 0.08500 0.41200 0.15500
H 	H 	0.46600 0.17900 0.55900 0.13100
H 	H 	0.45400 0.18800 0.47900 0.08100
H 	H 	0.39300 0.82400 0.50200 -0.01500
H 	H 	0.38400 0.83900 0.42700 -0.01000
H 	H 	0.17300 0.95000 0.49100 -0.02700
H 	H 	0.13500 0.95400 0.59500 0.15100
H 	H 	0.99600 0.13900 0.55900 0.07100
H 	H 	0.03400 0.13900 0.44800 -0.00500
H 	H 	0.14200 0.01200 0.37300 -0.02900
H 	H 	0.06900 0.07000 0.35800 -0.02900
H 	H 	0.04000 0.01500 0.67800 0.14800
H 	H 	0.98700 0.07100 0.65700 0.13300
