data_crystal

_cell_length_a 21.69710
_cell_length_b 19.78860
_cell_length_c 17.50750
_cell_angle_alpha 90.00000
_cell_angle_beta  98.12000
_cell_angle_gamma 90.00000

_symmetry_space_group_name_	'P 1'
_symmetry_space_group_name_H-M	'P 1'

loop_
_symmetry_equiv_pos_as_xyz
  x,y,z

loop_
_atom_site_label
_atom_site_type_symbol
_atom_site_fract_x
_atom_site_fract_y
_atom_site_fract_z
_atom_site_charge
Cu	Cu	0.33270 0.00150 0.99860 0.75100
Cu	Cu	0.34190 0.25200 0.99040 0.82500
Cu	Cu	0.34800 0.36940 0.73610 0.78700
Cu	Cu	0.32250 0.37760 0.23490 0.80900
Cu	Cu	0.32340 0.75210 0.98260 0.81800
Cu	Cu	0.44430 0.00020 0.11160 0.79600
Cu	Cu	0.43480 0.36830 0.62460 0.80200
N 	N 	0.42520 0.93150 0.19260 -0.23600
N 	N 	0.42190 0.06510 0.19350 -0.23700
N 	N 	0.46240 0.32000 0.52910 -0.23800
N 	N 	0.42060 0.44410 0.54720 -0.24800
C 	C 	0.32630 0.84920 0.99210 -0.21600
N 	N 	0.32890 0.90840 0.99550 -0.26600
C 	C 	0.33620 0.09510 0.99880 -0.29200
N 	N 	0.33870 0.15340 0.99710 -0.19200
C 	C 	0.33500 0.29590 0.08700 -0.21700
N 	N 	0.34720 0.29450 0.89310 -0.21900
C 	C 	0.34920 0.32020 0.83330 -0.21400
N 	N 	0.33570 0.68110 0.13950 -0.27100
C 	C 	0.34040 0.46740 0.74280 -0.25200
N 	N 	0.33410 0.52480 0.74280 -0.22100
N 	N 	0.32850 0.32530 0.14200 -0.22000
N 	N 	0.32090 0.67250 0.83080 -0.21600
C 	C 	0.32080 0.70310 0.88790 -0.22200
C 	C 	0.32690 0.71020 0.08280 -0.26000
C 	C 	0.48590 0.00020 0.02590 -0.31100
N 	N 	0.48240 0.36190 0.72170 -0.26200
C 	C 	0.41700 0.13280 0.18890 0.05300
C 	C 	0.40540 0.17260 0.25050 -0.11000
C 	C 	0.39800 0.14260 0.31970 0.00900
C 	C 	0.40260 0.07230 0.32530 -0.09300
C 	C 	0.41430 0.03450 0.26090 -0.00800
C 	C 	0.41740 0.95950 0.26050 0.04900
C 	C 	0.41070 0.92010 0.32500 -0.12600
C 	C 	0.41220 0.85030 0.31860 0.02500
C 	C 	0.41970 0.82130 0.24790 -0.11800
C 	C 	0.42570 0.86360 0.18640 0.05500
C 	C 	0.48420 0.25710 0.52430 0.01500
C 	C 	0.50490 0.23090 0.45910 -0.14000
C 	C 	0.50350 0.27310 0.39600 -0.00900
C 	C 	0.48200 0.34000 0.39940 -0.10500
C 	C 	0.46130 0.36140 0.46710 0.01600
C 	C 	0.43790 0.43010 0.47720 0.03900
C 	C 	0.43450 0.47850 0.41870 -0.12500
C 	C 	0.41450 0.54240 0.43280 0.02400
C 	C 	0.39710 0.55780 0.50480 -0.13000
C 	C 	0.40040 0.50780 0.55980 0.04400
H 	H 	0.42160 0.15380 0.14250 -0.02900
H 	H 	0.40250 0.21930 0.24510 0.04700
H 	H 	0.39020 0.16860 0.36160 -0.00600
H 	H 	0.39780 0.05070 0.37130 -0.00500
H 	H 	0.40520 0.94040 0.37150 0.02500
H 	H 	0.40830 0.82310 0.36100 -0.01100
H 	H 	0.42080 0.77460 0.24220 0.02600
H 	H 	0.43010 0.84450 0.13900 -0.03400
H 	H 	0.48560 0.22930 0.56740 -0.02300
H 	H 	0.51910 0.18660 0.45780 0.03600
H 	H 	0.51690 0.25720 0.35110 0.01000
H 	H 	0.48160 0.36910 0.35770 0.03400
H 	H 	0.44570 0.46750 0.37090 0.04000
H 	H 	0.41250 0.57540 0.39470 -0.02600
H 	H 	0.38350 0.60100 0.51530 0.03400
H 	H 	0.38850 0.51780 0.60750 -0.04600
Cu	Cu	0.66730 0.00150 0.50140 0.74700
Cu	Cu	0.65810 0.25200 0.50960 0.82100
Cu	Cu	0.65200 0.36940 0.76390 0.78900
Cu	Cu	0.67750 0.37760 0.26510 0.81200
Cu	Cu	0.67660 0.75210 0.51740 0.81800
Cu	Cu	0.55570 0.00020 0.38840 0.79500
Cu	Cu	0.56520 0.36830 0.87540 0.80200
N 	N 	0.57480 0.93150 0.30740 -0.23700
N 	N 	0.57810 0.06510 0.30650 -0.23700
N 	N 	0.53760 0.32000 0.97090 -0.23800
N 	N 	0.57940 0.44410 0.95280 -0.24200
C 	C 	0.67370 0.84920 0.50790 -0.21600
N 	N 	0.67110 0.90840 0.50450 -0.26600
C 	C 	0.66380 0.09510 0.50120 -0.29700
N 	N 	0.66130 0.15340 0.50290 -0.19300
C 	C 	0.66500 0.29590 0.41300 -0.21100
N 	N 	0.65280 0.29450 0.60690 -0.22000
C 	C 	0.65080 0.32020 0.66670 -0.21100
N 	N 	0.66430 0.68110 0.36050 -0.27000
C 	C 	0.65960 0.46740 0.75720 -0.24400
N 	N 	0.66590 0.52480 0.75720 -0.21800
N 	N 	0.67150 0.32530 0.35800 -0.21900
N 	N 	0.67910 0.67250 0.66920 -0.21300
C 	C 	0.67920 0.70310 0.61210 -0.21700
C 	C 	0.67310 0.71020 0.41720 -0.25000
C 	C 	0.51410 0.00020 0.47410 -0.29900
N 	N 	0.51760 0.36190 0.77830 -0.26200
C 	C 	0.58300 0.13280 0.31110 0.05300
C 	C 	0.59460 0.17260 0.24950 -0.11000
C 	C 	0.60200 0.14260 0.18030 0.00900
C 	C 	0.59740 0.07230 0.17470 -0.09300
C 	C 	0.58570 0.03450 0.23910 -0.00800
C 	C 	0.58260 0.95950 0.23950 0.04900
C 	C 	0.58930 0.92010 0.17500 -0.12500
C 	C 	0.58780 0.85030 0.18140 0.02500
C 	C 	0.58030 0.82130 0.25210 -0.11800
C 	C 	0.57430 0.86360 0.31360 0.05500
C 	C 	0.51580 0.25710 0.97570 0.03100
C 	C 	0.49510 0.23090 0.04090 -0.15800
C 	C 	0.49650 0.27310 0.10400 -0.00000
C 	C 	0.51800 0.34000 0.10060 -0.11100
C 	C 	0.53870 0.36140 0.03290 0.01500
C 	C 	0.56210 0.43010 0.02280 0.03100
C 	C 	0.56550 0.47850 0.08130 -0.11300
C 	C 	0.58550 0.54240 0.06720 0.00700
C 	C 	0.60290 0.55780 0.99520 -0.11200
C 	C 	0.59960 0.50780 0.94020 0.03900
H 	H 	0.57840 0.15380 0.35750 -0.02800
H 	H 	0.59750 0.21930 0.25490 0.04700
H 	H 	0.60980 0.16860 0.13840 -0.00600
H 	H 	0.60220 0.05070 0.12870 -0.00600
H 	H 	0.59480 0.94040 0.12850 0.02400
H 	H 	0.59170 0.82310 0.13900 -0.01100
H 	H 	0.57920 0.77460 0.25780 0.02600
H 	H 	0.56990 0.84450 0.36100 -0.03300
H 	H 	0.51440 0.22930 0.93260 -0.02700
H 	H 	0.48090 0.18660 0.04220 0.04000
H 	H 	0.48310 0.25720 0.14890 0.00700
H 	H 	0.51840 0.36910 0.14230 0.03600
H 	H 	0.55430 0.46750 0.12910 0.03600
H 	H 	0.58750 0.57540 0.10530 -0.02100
H 	H 	0.61650 0.60100 0.98470 0.03100
H 	H 	0.61150 0.51780 0.89250 -0.04200
Cu	Cu	0.66730 0.99850 0.00140 0.75900
Cu	Cu	0.65810 0.74800 0.00960 0.82000
Cu	Cu	0.65200 0.63060 0.26390 0.78800
Cu	Cu	0.67750 0.62240 0.76510 0.81200
Cu	Cu	0.67660 0.24790 0.01740 0.81500
Cu	Cu	0.55570 0.99980 0.88840 0.80100
Cu	Cu	0.56520 0.63170 0.37540 0.80100
N 	N 	0.57480 0.06850 0.80740 -0.23700
N 	N 	0.57810 0.93490 0.80650 -0.24200
N 	N 	0.53760 0.68000 0.47090 -0.23800
N 	N 	0.57940 0.55590 0.45280 -0.24800
C 	C 	0.67370 0.15080 0.00790 -0.22100
N 	N 	0.67110 0.09160 0.00450 -0.27700
C 	C 	0.66380 0.90490 0.00120 -0.29300
N 	N 	0.66130 0.84660 0.00290 -0.19500
C 	C 	0.66500 0.70410 0.91300 -0.20800
N 	N 	0.65280 0.70550 0.10690 -0.22000
C 	C 	0.65080 0.67980 0.16670 -0.21200
N 	N 	0.66430 0.31890 0.86050 -0.27000
C 	C 	0.65960 0.53260 0.25720 -0.24500
N 	N 	0.66590 0.47520 0.25720 -0.21800
N 	N 	0.67150 0.67470 0.85800 -0.21900
N 	N 	0.67910 0.32750 0.16920 -0.21300
C 	C 	0.67920 0.29690 0.11210 -0.21900
C 	C 	0.67310 0.28980 0.91720 -0.24600
C 	C 	0.51410 0.99980 0.97410 -0.22400
N 	N 	0.51760 0.63810 0.27830 -0.26200
C 	C 	0.58300 0.86720 0.81110 0.06100
C 	C 	0.59460 0.82740 0.74950 -0.12300
C 	C 	0.60200 0.85740 0.68030 0.02800
C 	C 	0.59740 0.92770 0.67470 -0.12000
C 	C 	0.58570 0.96550 0.73910 0.03600
C 	C 	0.58260 0.04050 0.73950 0.00300
C 	C 	0.58930 0.07990 0.67500 -0.10100
C 	C 	0.58780 0.14970 0.68140 0.00600
C 	C 	0.58030 0.17870 0.75210 -0.10500
C 	C 	0.57430 0.13640 0.81360 0.04700
C 	C 	0.51580 0.74290 0.47570 0.01500
C 	C 	0.49510 0.76910 0.54090 -0.14000
C 	C 	0.49650 0.72690 0.60400 -0.00900
C 	C 	0.51800 0.66000 0.60060 -0.10500
C 	C 	0.53870 0.63860 0.53290 0.01600
C 	C 	0.56210 0.56990 0.52280 0.04100
C 	C 	0.56550 0.52150 0.58130 -0.12400
C 	C 	0.58550 0.45760 0.56720 0.02600
C 	C 	0.60290 0.44220 0.49520 -0.12900
C 	C 	0.59960 0.49220 0.44020 0.04600
H 	H 	0.57840 0.84620 0.85750 -0.03000
H 	H 	0.59750 0.78070 0.75490 0.05100
H 	H 	0.60980 0.83140 0.63840 -0.01200
H 	H 	0.60220 0.94930 0.62870 0.01400
H 	H 	0.59480 0.05960 0.62850 0.00700
H 	H 	0.59170 0.17690 0.63900 -0.00500
H 	H 	0.57920 0.22540 0.75780 0.02200
H 	H 	0.56990 0.15550 0.86100 -0.03200
H 	H 	0.51440 0.77070 0.43260 -0.02200
H 	H 	0.48090 0.81340 0.54220 0.03700
H 	H 	0.48310 0.74280 0.64890 0.01000
H 	H 	0.51840 0.63090 0.64230 0.03400
H 	H 	0.55430 0.53250 0.62910 0.04000
H 	H 	0.58750 0.42460 0.60530 -0.02600
H 	H 	0.61650 0.39900 0.48470 0.03500
H 	H 	0.61150 0.48220 0.39250 -0.04500
Cu	Cu	0.33270 0.99850 0.49860 0.76000
Cu	Cu	0.34190 0.74800 0.49040 0.82100
Cu	Cu	0.34800 0.63060 0.23610 0.78600
Cu	Cu	0.32250 0.62240 0.73490 0.80800
Cu	Cu	0.32340 0.24790 0.48260 0.81500
Cu	Cu	0.44430 0.99980 0.61160 0.80200
Cu	Cu	0.43480 0.63170 0.12460 0.80100
N 	N 	0.42520 0.06850 0.69260 -0.23800
N 	N 	0.42190 0.93490 0.69350 -0.24200
N 	N 	0.46240 0.68000 0.02910 -0.23800
N 	N 	0.42060 0.55590 0.04720 -0.25400
C 	C 	0.32630 0.15080 0.49210 -0.22100
N 	N 	0.32890 0.09160 0.49550 -0.27500
C 	C 	0.33620 0.90490 0.49880 -0.29100
N 	N 	0.33870 0.84660 0.49710 -0.19400
C 	C 	0.33500 0.70410 0.58700 -0.21300
N 	N 	0.34720 0.70550 0.39310 -0.22000
C 	C 	0.34920 0.67980 0.33330 -0.21500
N 	N 	0.33570 0.31890 0.63950 -0.27100
C 	C 	0.34040 0.53260 0.24280 -0.25200
N 	N 	0.33410 0.47520 0.24280 -0.22100
N 	N 	0.32850 0.67470 0.64200 -0.22100
N 	N 	0.32090 0.32750 0.33080 -0.21500
C 	C 	0.32080 0.29690 0.38790 -0.22400
C 	C 	0.32690 0.28980 0.58280 -0.25800
C 	C 	0.48590 0.99980 0.52590 -0.23300
N 	N 	0.48240 0.63810 0.22170 -0.26200
C 	C 	0.41700 0.86720 0.68890 0.06100
C 	C 	0.40540 0.82740 0.75050 -0.12300
C 	C 	0.39800 0.85740 0.81970 0.02800
C 	C 	0.40260 0.92770 0.82530 -0.12000
C 	C 	0.41430 0.96550 0.76090 0.03600
C 	C 	0.41740 0.04050 0.76050 0.00300
C 	C 	0.41070 0.07990 0.82500 -0.10100
C 	C 	0.41220 0.14970 0.81860 0.00700
C 	C 	0.41970 0.17870 0.74790 -0.10500
C 	C 	0.42570 0.13640 0.68640 0.04700
C 	C 	0.48420 0.74290 0.02430 0.00500
C 	C 	0.50490 0.76910 0.95910 -0.12900
C 	C 	0.50350 0.72690 0.89600 -0.01500
C 	C 	0.48200 0.66000 0.89940 -0.10100
C 	C 	0.46130 0.63860 0.96710 0.01600
C 	C 	0.43790 0.56990 0.97720 0.04900
C 	C 	0.43450 0.52150 0.91870 -0.13700
C 	C 	0.41450 0.45760 0.93280 0.04500
C 	C 	0.39710 0.44220 0.00480 -0.14900
C 	C 	0.40040 0.49220 0.05980 0.05200
H 	H 	0.42160 0.84620 0.64250 -0.03000
H 	H 	0.40250 0.78070 0.74510 0.05100
H 	H 	0.39020 0.83140 0.86160 -0.01200
H 	H 	0.39780 0.94930 0.87130 0.01400
H 	H 	0.40520 0.05960 0.87150 0.00800
H 	H 	0.40830 0.17690 0.86100 -0.00500
H 	H 	0.42080 0.22540 0.74220 0.02200
H 	H 	0.43010 0.15550 0.63900 -0.03300
H 	H 	0.48560 0.77070 0.06740 -0.01900
H 	H 	0.51910 0.81340 0.95780 0.03400
H 	H 	0.51690 0.74280 0.85110 0.01200
H 	H 	0.48160 0.63090 0.85770 0.03200
H 	H 	0.44570 0.53250 0.87090 0.04400
H 	H 	0.41250 0.42460 0.89470 -0.03200
H 	H 	0.38350 0.39900 0.01530 0.03900
H 	H 	0.38850 0.48220 0.10750 -0.04900
Cu	Cu	0.00870 0.24990 0.00460 0.79700
Cu	Cu	0.11350 0.01470 0.10990 0.79100
Cu	Cu	0.22010 0.98430 0.88490 0.80100
N 	N 	0.09140 0.94490 0.18890 -0.24200
N 	N 	0.09270 0.07850 0.19320 -0.24400
N 	N 	0.24500 0.05260 0.80710 -0.24000
N 	N 	0.23790 0.91950 0.80050 -0.24400
N 	N 	0.00340 0.32730 0.15640 -0.23700
C 	C 	0.00740 0.29720 0.09970 -0.27300
N 	N 	0.00650 0.15220 0.00400 -0.21100
C 	C 	0.00330 0.09330 0.00250 -0.35000
N 	N 	0.00900 0.29160 0.90570 -0.23200
C 	C 	0.00690 0.31960 0.84640 -0.27700
C 	C 	0.15320 0.00450 0.02330 -0.32300
N 	N 	0.18000 0.99530 0.97120 -0.22100
C 	C 	0.09000 0.87660 0.18140 0.04200
C 	C 	0.07840 0.83430 0.24080 -0.13100
C 	C 	0.06920 0.86260 0.31050 0.01500
C 	C 	0.07080 0.93190 0.31910 -0.12600
C 	C 	0.08180 0.97230 0.25740 0.03400
C 	C 	0.08250 0.04760 0.25970 -0.01400
C 	C 	0.07090 0.08450 0.32410 -0.11300
C 	C 	0.06970 0.15500 0.32020 0.00600
C 	C 	0.08040 0.18650 0.25250 -0.13400
C 	C 	0.09170 0.14590 0.19100 0.05800
C 	C 	0.24980 0.12060 0.81500 0.04600
C 	C 	0.26280 0.16310 0.75660 -0.11200
C 	C 	0.27010 0.13460 0.68610 -0.00000
C 	C 	0.26540 0.06530 0.67590 -0.08900
C 	C 	0.24960 0.95010 0.73520 0.04300
C 	C 	0.25290 0.02470 0.73810 -0.01000
C 	C 	0.25880 0.91330 0.66960 -0.13000
C 	C 	0.25660 0.84300 0.67200 0.02400
C 	C 	0.24520 0.81110 0.73970 -0.13100
C 	C 	0.23600 0.85170 0.80220 0.06600
H 	H 	0.09700 0.85760 0.13480 -0.05000
H 	H 	0.07680 0.78770 0.23400 0.02100
H 	H 	0.06200 0.83500 0.35130 -0.01900
H 	H 	0.06460 0.95140 0.36570 0.01200
H 	H 	0.06410 0.06240 0.36910 -0.00800
H 	H 	0.06190 0.18050 0.36240 -0.03800
H 	H 	0.08010 0.23330 0.24830 0.02600
H 	H 	0.09890 0.16710 0.14560 -0.05000
H 	H 	0.24400 0.13960 0.86210 -0.04000
H 	H 	0.26660 0.20950 0.76440 0.03200
H 	H 	0.27820 0.16210 0.64560 -0.00600
H 	H 	0.27040 0.04580 0.62880 -0.01100
H 	H 	0.26630 0.93540 0.62500 0.01900
H 	H 	0.26270 0.81760 0.62900 -0.01800
H 	H 	0.24370 0.76420 0.74300 0.03100
H 	H 	0.22820 0.83080 0.84740 -0.05400
Cu	Cu	0.99130 0.24990 0.49540 0.82300
Cu	Cu	0.88650 0.01470 0.39010 0.80200
Cu	Cu	0.77990 0.98430 0.61510 0.80100
N 	N 	0.90860 0.94490 0.31110 -0.23300
N 	N 	0.90730 0.07850 0.30680 -0.23700
N 	N 	0.75500 0.05260 0.69290 -0.24100
N 	N 	0.76210 0.91950 0.69950 -0.24300
N 	N 	0.99660 0.32730 0.34360 -0.20000
C 	C 	0.99260 0.29720 0.40030 -0.21800
N 	N 	0.99350 0.15220 0.49600 -0.19900
C 	C 	0.99670 0.09330 0.49750 -0.25700
N 	N 	0.99100 0.29160 0.59430 -0.22500
C 	C 	0.99310 0.31960 0.65360 -0.19100
C 	C 	0.84680 0.00450 0.47670 -0.29800
N 	N 	0.82000 0.99530 0.52880 -0.22700
C 	C 	0.91000 0.87660 0.31860 0.06700
C 	C 	0.92160 0.83430 0.25920 -0.12300
C 	C 	0.93080 0.86260 0.18950 0.04000
C 	C 	0.92920 0.93190 0.18090 -0.11800
C 	C 	0.91820 0.97230 0.24260 0.05200
C 	C 	0.91750 0.04760 0.24030 0.00600
C 	C 	0.92910 0.08450 0.17590 -0.09800
C 	C 	0.93030 0.15500 0.17980 0.02300
C 	C 	0.91960 0.18650 0.24750 -0.11900
C 	C 	0.90830 0.14590 0.30900 0.07400
C 	C 	0.75020 0.12060 0.68500 0.04600
C 	C 	0.73720 0.16310 0.74340 -0.11200
C 	C 	0.72990 0.13460 0.81390 0.00200
C 	C 	0.73460 0.06530 0.82410 -0.08900
C 	C 	0.75040 0.95010 0.76480 0.04000
C 	C 	0.74710 0.02470 0.76190 -0.00800
C 	C 	0.74120 0.91330 0.83040 -0.12800
C 	C 	0.74340 0.84300 0.82800 0.02300
C 	C 	0.75480 0.81110 0.76030 -0.13000
C 	C 	0.76400 0.85170 0.69780 0.06400
H 	H 	0.90300 0.85760 0.36520 -0.02800
H 	H 	0.92320 0.78770 0.26600 0.05100
H 	H 	0.93800 0.83500 0.14870 -0.01100
H 	H 	0.93540 0.95140 0.13430 0.02700
H 	H 	0.93590 0.06240 0.13090 0.01700
H 	H 	0.93810 0.18050 0.13760 0.00200
H 	H 	0.91990 0.23330 0.25170 0.04500
H 	H 	0.90110 0.16710 0.35440 -0.04800
H 	H 	0.75600 0.13960 0.63790 -0.04000
H 	H 	0.73340 0.20950 0.73560 0.03500
H 	H 	0.72180 0.16210 0.85440 -0.00200
H 	H 	0.72960 0.04580 0.87120 -0.00800
H 	H 	0.73370 0.93540 0.87500 0.01900
H 	H 	0.73730 0.81760 0.87100 -0.01600
H 	H 	0.75630 0.76420 0.75700 0.03400
H 	H 	0.77180 0.83080 0.65260 -0.04900
Cu	Cu	0.99130 0.75010 0.99540 0.82400
Cu	Cu	0.88650 0.98530 0.89010 0.80900
Cu	Cu	0.77990 0.01570 0.11510 0.79000
N 	N 	0.90860 0.05510 0.81110 -0.23300
N 	N 	0.90730 0.92150 0.80680 -0.24100
N 	N 	0.75500 0.94740 0.19290 -0.24000
N 	N 	0.76210 0.08050 0.19950 -0.24000
N 	N 	0.99660 0.67270 0.84360 -0.20000
C 	C 	0.99260 0.70280 0.90030 -0.21700
N 	N 	0.99350 0.84780 0.99600 -0.20000
C 	C 	0.99670 0.90670 0.99750 -0.24500
N 	N 	0.99100 0.70840 0.09430 -0.22600
C 	C 	0.99310 0.68040 0.15360 -0.19200
C 	C 	0.84680 0.99550 0.97670 -0.25200
N 	N 	0.82000 0.00470 0.02880 -0.26300
C 	C 	0.91000 0.12340 0.81860 0.06000
C 	C 	0.92160 0.16570 0.75920 -0.11100
C 	C 	0.93080 0.13740 0.68950 0.02200
C 	C 	0.92920 0.06810 0.68090 -0.09300
C 	C 	0.91820 0.02770 0.74260 0.00900
C 	C 	0.91750 0.95240 0.74030 0.04600
C 	C 	0.92910 0.91550 0.67590 -0.12200
C 	C 	0.93030 0.84500 0.67980 0.04000
C 	C 	0.91960 0.81350 0.74750 -0.13100
C 	C 	0.90830 0.85410 0.80900 0.08000
C 	C 	0.75020 0.87940 0.18500 0.05400
C 	C 	0.73720 0.83690 0.24340 -0.12400
C 	C 	0.72990 0.86540 0.31390 0.02100
C 	C 	0.73460 0.93470 0.32410 -0.11300
C 	C 	0.75040 0.04990 0.26480 -0.00100
C 	C 	0.74710 0.97530 0.26190 0.03600
C 	C 	0.74120 0.08670 0.33040 -0.10400
C 	C 	0.74340 0.15700 0.32800 0.00600
C 	C 	0.75480 0.18890 0.26030 -0.11900
C 	C 	0.76400 0.14830 0.19780 0.05800
H 	H 	0.90300 0.14240 0.86520 -0.02600
H 	H 	0.92320 0.21230 0.76600 0.04700
H 	H 	0.93800 0.16500 0.64870 -0.00400
H 	H 	0.93540 0.04860 0.63430 0.01100
H 	H 	0.93590 0.93760 0.63090 0.03400
H 	H 	0.93810 0.81950 0.63760 -0.00300
H 	H 	0.91990 0.76670 0.75170 0.04900
H 	H 	0.90110 0.83290 0.85440 -0.04900
H 	H 	0.75600 0.86040 0.13790 -0.04100
H 	H 	0.73340 0.79050 0.23560 0.04000
H 	H 	0.72180 0.83790 0.35440 -0.00900
H 	H 	0.72960 0.95420 0.37120 0.01000
H 	H 	0.73370 0.06460 0.37500 0.00300
H 	H 	0.73730 0.18240 0.37100 -0.01100
H 	H 	0.75630 0.23580 0.25700 0.03000
H 	H 	0.77180 0.16920 0.15260 -0.04800
Cu	Cu	0.00870 0.75010 0.50460 0.80000
Cu	Cu	0.11350 0.98530 0.60990 0.79900
Cu	Cu	0.22010 0.01570 0.38490 0.78900
N 	N 	0.09140 0.05510 0.68890 -0.24400
N 	N 	0.09270 0.92150 0.69320 -0.24800
N 	N 	0.24500 0.94740 0.30710 -0.24000
N 	N 	0.23790 0.08050 0.30050 -0.23900
N 	N 	0.00340 0.67270 0.65640 -0.23700
C 	C 	0.00740 0.70280 0.59970 -0.27100
N 	N 	0.00650 0.84780 0.50400 -0.21200
C 	C 	0.00330 0.90670 0.50250 -0.33400
N 	N 	0.00900 0.70840 0.40570 -0.23400
C 	C 	0.00690 0.68040 0.34640 -0.27900
C 	C 	0.15320 0.99550 0.52330 -0.26900
N 	N 	0.18000 0.00470 0.47120 -0.25900
C 	C 	0.09000 0.12340 0.68140 0.03300
C 	C 	0.07840 0.16570 0.74080 -0.11700
C 	C 	0.06920 0.13740 0.81050 -0.00600
C 	C 	0.07080 0.06810 0.81910 -0.09800
C 	C 	0.08180 0.02770 0.75740 -0.01500
C 	C 	0.08250 0.95240 0.75970 0.03300
C 	C 	0.07090 0.91550 0.82410 -0.14100
C 	C 	0.06970 0.84500 0.82020 0.02500
C 	C 	0.08040 0.81350 0.75250 -0.14700
C 	C 	0.09170 0.85410 0.69100 0.06600
C 	C 	0.24980 0.87940 0.31500 0.05500
C 	C 	0.26280 0.83690 0.25660 -0.12500
C 	C 	0.27010 0.86540 0.18610 0.02000
C 	C 	0.26540 0.93470 0.17590 -0.11500
C 	C 	0.24960 0.04990 0.23520 -0.00200
C 	C 	0.25290 0.97530 0.23810 0.04000
C 	C 	0.25880 0.08670 0.16960 -0.10300
C 	C 	0.25660 0.15700 0.17200 0.00500
C 	C 	0.24520 0.18890 0.23970 -0.11900
C 	C 	0.23600 0.14830 0.30220 0.05900
H 	H 	0.09700 0.14240 0.63480 -0.05000
H 	H 	0.07680 0.21230 0.73400 0.01700
H 	H 	0.06200 0.16500 0.85130 -0.01100
H 	H 	0.06460 0.04860 0.86570 -0.00500
H 	H 	0.06410 0.93760 0.86910 0.01200
H 	H 	0.06190 0.81950 0.86240 -0.04200
H 	H 	0.08010 0.76670 0.74830 0.03100
H 	H 	0.09890 0.83290 0.64560 -0.05200
H 	H 	0.24400 0.86040 0.36210 -0.04100
H 	H 	0.26660 0.79050 0.26440 0.03600
H 	H 	0.27820 0.83790 0.14560 -0.01300
H 	H 	0.27040 0.95420 0.12880 0.01000
H 	H 	0.26630 0.06460 0.12500 0.00100
H 	H 	0.26270 0.18240 0.12900 -0.01300
H 	H 	0.24370 0.23580 0.24300 0.02600
H 	H 	0.22820 0.16920 0.34740 -0.05200
Cu	Cu	-0.00000 0.37910 0.25000 0.77900
Cu	Cu	0.00000 0.63300 0.25000 0.77900
C 	C 	0.00000 0.47710 0.25000 -0.29700
N 	N 	0.00000 0.53490 0.25000 -0.24300
Cu	Cu	0.00000 0.62090 0.75000 0.78000
Cu	Cu	0.00000 0.36700 0.75000 0.77900
C 	C 	0.00000 0.52290 0.75000 -0.29500
N 	N 	0.00000 0.46510 0.75000 -0.24300
Cu	Cu	-0.00000 0.00000 -0.00000 0.71900
Cu	Cu	0.00000 0.00000 0.50000 0.72000
