data_crystal

_cell_length_a 19.67210
_cell_length_b 9.22010
_cell_length_c 9.74780
_cell_angle_alpha 90.00000
_cell_angle_beta  95.60000
_cell_angle_gamma 90.00000

_symmetry_space_group_name_	'P 1'
_symmetry_space_group_name_H-M	'P 1'

loop_
_symmetry_equiv_pos_as_xyz
  x,y,z

loop_
_atom_site_label
_atom_site_type_symbol
_atom_site_fract_x
_atom_site_fract_y
_atom_site_fract_z
_atom_site_charge
P 	P 	0.42050 0.11680 0.07710 0.76200
P 	P 	0.40050 0.83180 0.71420 0.79200
P 	P 	0.16170 0.84480 0.98580 0.76200
P 	P 	0.04790 0.15360 0.28770 0.64400
Al	Al	0.05630 0.08190 0.99130 2.39500
Al	Al	0.53040 0.87220 0.21840 2.39700
Al	Al	0.91960 0.33910 0.26510 2.39800
Al	Al	0.32520 0.86990 0.98770 2.39900
O 	O 	0.07830 0.18390 0.14970 -0.68700
O 	O 	0.97030 0.17450 0.26870 -0.73400
O 	O 	0.13070 0.98980 0.93560 -0.69300
O 	O 	0.35150 0.84730 0.82460 -0.77800
O 	O 	0.23820 0.85610 0.97440 -0.74000
O 	O 	0.36110 0.77540 0.58310 -0.74500
O 	O 	0.47620 0.01020 0.12880 -0.73400
O 	O 	0.13280 0.72000 0.89420 -0.64200
O 	O 	0.43340 0.18180 0.93610 -0.71500
O 	O 	0.42780 0.98210 0.67580 -0.66700
O 	O 	0.06500 0.99820 0.34120 -0.63900
O 	O 	0.02930 0.91890 0.08610 -1.36200
O 	O 	0.41260 0.24050 0.18070 -0.60600
O 	O 	0.15310 0.81600 0.13850 -0.70000
O 	O 	0.35210 0.03580 0.06030 -0.73600
O 	O 	0.45600 0.72230 0.76570 -0.73300
O 	O 	0.08170 0.25890 0.39360 -0.61900
P 	P 	0.57950 0.61680 0.42290 0.75600
P 	P 	0.59950 0.33180 0.78580 0.79100
P 	P 	0.83830 0.34480 0.51420 0.76400
P 	P 	0.95210 0.65360 0.21230 0.64100
Al	Al	0.94370 0.58190 0.50870 2.39600
Al	Al	0.46960 0.37220 0.28160 2.39600
Al	Al	0.08040 0.83910 0.23490 2.39800
Al	Al	0.67480 0.36990 0.51230 2.39900
O 	O 	0.92170 0.68390 0.35030 -0.69400
O 	O 	0.02970 0.67450 0.23130 -0.72900
O 	O 	0.86930 0.48980 0.56440 -0.69600
O 	O 	0.64850 0.34730 0.67540 -0.77800
O 	O 	0.76180 0.35610 0.52560 -0.74100
O 	O 	0.63890 0.27540 0.91690 -0.74400
O 	O 	0.52380 0.51020 0.37120 -0.73500
O 	O 	0.86720 0.22000 0.60580 -0.64100
O 	O 	0.56660 0.68180 0.56390 -0.70900
O 	O 	0.57220 0.48210 0.82420 -0.66700
O 	O 	0.93500 0.49820 0.15880 -0.64500
O 	O 	0.97070 0.41890 0.41390 -1.36700
O 	O 	0.58740 0.74050 0.31930 -0.60800
O 	O 	0.84690 0.31600 0.36150 -0.70200
O 	O 	0.64790 0.53580 0.43970 -0.73900
O 	O 	0.54400 0.22230 0.73430 -0.73500
O 	O 	0.91830 0.75890 0.10640 -0.62700
P 	P 	0.57950 0.88320 0.92290 0.76100
P 	P 	0.59950 0.16820 0.28580 0.79100
P 	P 	0.83830 0.15520 0.01420 0.76100
P 	P 	0.95210 0.84640 0.71230 0.64300
Al	Al	0.94370 0.91810 0.00870 2.39400
Al	Al	0.46960 0.12780 0.78160 2.39600
Al	Al	0.08040 0.66090 0.73490 2.39800
Al	Al	0.67480 0.13010 0.01230 2.39900
O 	O 	0.92170 0.81610 0.85030 -0.68700
O 	O 	0.02970 0.82550 0.73130 -0.73400
O 	O 	0.86930 0.01020 0.06440 -0.69300
O 	O 	0.64850 0.15270 0.17540 -0.77800
O 	O 	0.76180 0.14390 0.02560 -0.74000
O 	O 	0.63890 0.22460 0.41690 -0.74500
O 	O 	0.52380 0.98980 0.87120 -0.73400
O 	O 	0.86720 0.28000 0.10580 -0.64200
O 	O 	0.56660 0.81820 0.06390 -0.71500
O 	O 	0.57220 0.01790 0.32420 -0.66700
O 	O 	0.93500 0.00180 0.65880 -0.63900
O 	O 	0.97070 0.08110 0.91390 -1.36200
O 	O 	0.58740 0.75950 0.81930 -0.60600
O 	O 	0.84690 0.18400 0.86150 -0.70000
O 	O 	0.64790 0.96420 0.93970 -0.73600
O 	O 	0.54400 0.27770 0.23430 -0.73300
O 	O 	0.91830 0.74110 0.60640 -0.61900
P 	P 	0.42050 0.38320 0.57710 0.75600
P 	P 	0.40050 0.66820 0.21420 0.79100
P 	P 	0.16170 0.65520 0.48580 0.76400
P 	P 	0.04790 0.34640 0.78770 0.64100
Al	Al	0.05630 0.41810 0.49130 2.39600
Al	Al	0.53040 0.62780 0.71840 2.39600
Al	Al	0.91960 0.16090 0.76510 2.39800
Al	Al	0.32520 0.63010 0.48770 2.39900
O 	O 	0.07830 0.31610 0.64970 -0.69400
O 	O 	0.97030 0.32550 0.76870 -0.72900
O 	O 	0.13070 0.51020 0.43560 -0.69600
O 	O 	0.35150 0.65270 0.32460 -0.77800
O 	O 	0.23820 0.64390 0.47440 -0.74100
O 	O 	0.36110 0.72460 0.08310 -0.74400
O 	O 	0.47620 0.48980 0.62880 -0.73500
O 	O 	0.13280 0.78000 0.39420 -0.64100
O 	O 	0.43340 0.31820 0.43610 -0.70900
O 	O 	0.42780 0.51790 0.17580 -0.66700
O 	O 	0.06500 0.50180 0.84120 -0.64500
O 	O 	0.02930 0.58110 0.58610 -1.36700
O 	O 	0.41260 0.25950 0.68070 -0.60800
O 	O 	0.15310 0.68400 0.63850 -0.70200
O 	O 	0.35210 0.46420 0.56030 -0.73900
O 	O 	0.45600 0.77770 0.26570 -0.73500
O 	O 	0.08170 0.24110 0.89360 -0.62700
