data_crystal

_cell_length_a 13.86030
_cell_length_b 23.12850
_cell_length_c 8.54200
_cell_angle_alpha 90.00000
_cell_angle_beta  90.00000
_cell_angle_gamma 90.00000

_symmetry_space_group_name_	'P 1'
_symmetry_space_group_name_H-M	'P 1'

loop_
_symmetry_equiv_pos_as_xyz
  x,y,z

loop_
_atom_site_label
_atom_site_type_symbol
_atom_site_fract_x
_atom_site_fract_y
_atom_site_fract_z
_atom_site_charge
P 	P 	0.21100 0.15960 0.30530 0.89700
P 	P 	0.10640 0.06600 0.78930 0.91900
P 	P 	0.39980 0.22410 0.82480 0.90200
Al	Al	0.10090 0.05940 0.15800 2.38500
Al	Al	0.21560 0.17770 0.66930 2.40400
Al	Al	0.10660 0.27230 0.19440 2.38500
O 	O 	0.18990 0.10320 0.22340 -0.91600
O 	O 	0.20500 0.15130 0.48240 -0.75000
O 	O 	0.14010 0.20490 0.24930 -0.98900
O 	O 	0.31360 0.17610 0.26650 -0.88300
O 	O 	0.09620 0.05800 0.96180 -0.61500
O 	O 	0.01050 0.08290 0.73250 -0.80200
O 	O 	0.18420 0.10870 0.75390 -0.63800
O 	O 	0.13500 0.00720 0.72540 -0.76600
O 	O 	0.33050 0.17880 0.76780 -0.65500
O 	O 	0.37840 0.28360 0.76420 -0.74100
O 	O 	0.49770 0.20660 0.77650 -0.71100
O 	O 	0.39590 0.22390 0.99580 -0.58400
P 	P 	0.71100 0.65960 0.30530 0.89600
P 	P 	0.60640 0.56600 0.78930 0.91800
P 	P 	0.89980 0.72410 0.82480 0.90200
Al	Al	0.60090 0.55940 0.15800 2.38500
Al	Al	0.71560 0.67770 0.66930 2.40400
Al	Al	0.60660 0.77230 0.19440 2.38500
O 	O 	0.68990 0.60320 0.22340 -0.91600
O 	O 	0.70500 0.65130 0.48240 -0.74900
O 	O 	0.64010 0.70490 0.24930 -0.98900
O 	O 	0.81360 0.67610 0.26650 -0.88300
O 	O 	0.59620 0.55800 0.96180 -0.61100
O 	O 	0.51050 0.58290 0.73250 -0.79900
O 	O 	0.68420 0.60870 0.75390 -0.63800
O 	O 	0.63500 0.50720 0.72540 -0.76400
O 	O 	0.83050 0.67880 0.76780 -0.65500
O 	O 	0.87840 0.78360 0.76420 -0.74200
O 	O 	0.99770 0.70660 0.77650 -0.71400
O 	O 	0.89590 0.72390 0.99580 -0.58600
P 	P 	0.78900 0.84040 0.30530 0.89600
P 	P 	0.89360 0.93400 0.78930 0.91800
P 	P 	0.60020 0.77590 0.82480 0.90200
Al	Al	0.89910 0.94060 0.15800 2.38500
Al	Al	0.78440 0.82230 0.66930 2.40400
Al	Al	0.89340 0.72770 0.19440 2.38500
O 	O 	0.81010 0.89680 0.22340 -0.91600
O 	O 	0.79500 0.84870 0.48240 -0.75000
O 	O 	0.85990 0.79510 0.24930 -0.98900
O 	O 	0.68640 0.82390 0.26650 -0.88300
O 	O 	0.90380 0.94200 0.96180 -0.61500
O 	O 	0.98950 0.91710 0.73250 -0.80200
O 	O 	0.81580 0.89130 0.75390 -0.63800
O 	O 	0.86500 0.99280 0.72540 -0.76600
O 	O 	0.66950 0.82120 0.76780 -0.65500
O 	O 	0.62160 0.71640 0.76420 -0.74100
O 	O 	0.50230 0.79340 0.77650 -0.71100
O 	O 	0.60410 0.77610 0.99580 -0.58400
P 	P 	0.28900 0.34040 0.30530 0.89600
P 	P 	0.39360 0.43400 0.78930 0.91800
P 	P 	0.10020 0.27590 0.82480 0.90200
Al	Al	0.39910 0.44060 0.15800 2.38500
Al	Al	0.28440 0.32230 0.66930 2.40400
Al	Al	0.39340 0.22770 0.19440 2.38500
O 	O 	0.31010 0.39680 0.22340 -0.91600
O 	O 	0.29500 0.34870 0.48240 -0.74900
O 	O 	0.35990 0.29510 0.24930 -0.98900
O 	O 	0.18640 0.32390 0.26650 -0.88300
O 	O 	0.40380 0.44200 0.96180 -0.61100
O 	O 	0.48950 0.41710 0.73250 -0.79900
O 	O 	0.31580 0.39130 0.75390 -0.63800
O 	O 	0.36500 0.49280 0.72540 -0.76400
O 	O 	0.16950 0.32120 0.76780 -0.65500
O 	O 	0.12160 0.21640 0.76420 -0.74200
O 	O 	0.00230 0.29340 0.77650 -0.71400
O 	O 	0.10410 0.27610 0.99580 -0.58600
P 	P 	0.21100 0.84040 0.80530 0.88800
P 	P 	0.10640 0.93400 0.28930 0.93400
P 	P 	0.39980 0.77590 0.32480 0.93000
Al	Al	0.10090 0.94060 0.65800 2.40300
Al	Al	0.21560 0.82230 0.16930 2.38900
Al	Al	0.10660 0.72770 0.69440 2.40300
O 	O 	0.18990 0.89680 0.72340 -0.74000
O 	O 	0.20500 0.84870 0.98240 -0.47500
O 	O 	0.14010 0.79510 0.74930 -0.81500
O 	O 	0.31360 0.82390 0.76650 -0.70200
O 	O 	0.09620 0.94200 0.46180 -0.85300
O 	O 	0.01050 0.91710 0.23250 -0.95900
O 	O 	0.18420 0.89130 0.25390 -0.81300
O 	O 	0.13500 0.99280 0.22540 -0.93900
O 	O 	0.33050 0.82120 0.26780 -0.80300
O 	O 	0.37840 0.71640 0.26420 -0.87500
O 	O 	0.49770 0.79340 0.27650 -0.88600
O 	O 	0.39590 0.77610 0.49580 -0.84300
P 	P 	0.71100 0.34040 0.80530 0.88700
P 	P 	0.60640 0.43400 0.28930 0.93400
P 	P 	0.89980 0.27590 0.32480 0.93000
Al	Al	0.60090 0.44060 0.65800 2.40300
Al	Al	0.71560 0.32230 0.16930 2.38900
Al	Al	0.60660 0.22770 0.69440 2.40300
O 	O 	0.68990 0.39680 0.72340 -0.74000
O 	O 	0.70500 0.34870 0.98240 -0.47400
O 	O 	0.64010 0.29510 0.74930 -0.81500
O 	O 	0.81360 0.32390 0.76650 -0.70200
O 	O 	0.59620 0.44200 0.46180 -0.85300
O 	O 	0.51050 0.41710 0.23250 -0.96100
O 	O 	0.68420 0.39130 0.25390 -0.81400
O 	O 	0.63500 0.49280 0.22540 -0.94100
O 	O 	0.83050 0.32120 0.26780 -0.80300
O 	O 	0.87840 0.21640 0.26420 -0.87400
O 	O 	0.99770 0.29340 0.27650 -0.88500
O 	O 	0.89590 0.27610 0.49580 -0.84300
P 	P 	0.78900 0.15960 0.80530 0.88800
P 	P 	0.89360 0.06600 0.28930 0.93400
P 	P 	0.60020 0.22410 0.32480 0.93000
Al	Al	0.89910 0.05940 0.65800 2.40300
Al	Al	0.78440 0.17770 0.16930 2.38900
Al	Al	0.89340 0.27230 0.69440 2.40300
O 	O 	0.81010 0.10320 0.72340 -0.74000
O 	O 	0.79500 0.15130 0.98240 -0.47500
O 	O 	0.85990 0.20490 0.74930 -0.81500
O 	O 	0.68640 0.17610 0.76650 -0.70200
O 	O 	0.90380 0.05800 0.46180 -0.85300
O 	O 	0.98950 0.08290 0.23250 -0.95900
O 	O 	0.81580 0.10870 0.25390 -0.81300
O 	O 	0.86500 0.00720 0.22540 -0.93900
O 	O 	0.66950 0.17880 0.26780 -0.80300
O 	O 	0.62160 0.28360 0.26420 -0.87500
O 	O 	0.50230 0.20660 0.27650 -0.88600
O 	O 	0.60410 0.22390 0.49580 -0.84300
P 	P 	0.28900 0.65960 0.80530 0.88700
P 	P 	0.39360 0.56600 0.28930 0.93400
P 	P 	0.10020 0.72410 0.32480 0.93000
Al	Al	0.39910 0.55940 0.65800 2.40300
Al	Al	0.28440 0.67770 0.16930 2.38900
Al	Al	0.39340 0.77230 0.69440 2.40300
O 	O 	0.31010 0.60320 0.72340 -0.74000
O 	O 	0.29500 0.65130 0.98240 -0.47400
O 	O 	0.35990 0.70490 0.74930 -0.81500
O 	O 	0.18640 0.67610 0.76650 -0.70200
O 	O 	0.40380 0.55800 0.46180 -0.85300
O 	O 	0.48950 0.58290 0.23250 -0.96100
O 	O 	0.31580 0.60870 0.25390 -0.81400
O 	O 	0.36500 0.50720 0.22540 -0.94100
O 	O 	0.16950 0.67880 0.26780 -0.80300
O 	O 	0.12160 0.78360 0.26420 -0.87400
O 	O 	0.00230 0.70660 0.27650 -0.88500
O 	O 	0.10410 0.72390 0.49580 -0.84300
F 	F 	0.25000 0.25000 0.58050 -0.97000
F 	F 	0.75000 0.75000 0.58050 -0.97000
F 	F 	0.25000 0.75000 0.08050 -1.20000
F 	F 	0.75000 0.25000 0.08050 -1.20000
