data_crystal

_cell_length_a 7.41060
_cell_length_b 16.62200
_cell_length_c 16.68300
_cell_angle_alpha 104.24000
_cell_angle_beta  101.49000
_cell_angle_gamma 98.67000

_symmetry_space_group_name_	'P 1'
_symmetry_space_group_name_H-M	'P 1'

loop_
_symmetry_equiv_pos_as_xyz
  x,y,z

loop_
_atom_site_label
_atom_site_type_symbol
_atom_site_fract_x
_atom_site_fract_y
_atom_site_fract_z
_atom_site_charge
Cd	Cd	0.48669 0.48300 0.62798 1.22300
Cd	Cd	0.31649 0.95599 0.54158 1.19000
Cd	Cd	0.50972 0.50125 0.88126 1.22400
Cd	Cd	0.51331 0.51700 0.37202 1.22300
Cd	Cd	0.68351 0.04401 0.45842 1.19100
Cd	Cd	0.49028 0.49875 0.11874 1.22500
H 	H 	0.39620 0.65930 0.57450 0.02600
H 	H 	0.49650 0.80450 0.66750 0.02700
H 	H 	0.70260 0.64970 0.79050 -0.00900
H 	H 	0.63910 0.91310 0.78130 0.08400
H 	H 	0.82030 0.02720 0.88850 0.04700
H 	H 	0.02100 0.87070 0.01370 0.04200
H 	H 	0.84870 0.75610 0.90370 0.09400
H 	H 	0.25560 0.31760 0.73130 0.02300
H 	H 	0.22640 0.17660 0.74970 0.04200
H 	H 	0.58240 0.33960 0.95510 -0.01000
H 	H 	0.59890 0.24010 0.02080 0.08600
H 	H 	0.63660 0.13100 0.08040 0.04800
H 	H 	0.32670 0.96480 0.86560 0.05600
H 	H 	0.29280 0.07240 0.80530 0.07700
H 	H 	0.99980 0.51040 0.63040 0.06100
H 	H 	0.24570 0.72290 0.81980 0.10000
H 	H 	0.90860 0.73600 0.60620 0.09400
H 	H 	0.90360 0.85120 0.68120 0.09500
H 	H 	0.02320 0.93310 0.75190 0.10100
H 	H 	0.03800 0.25200 0.92640 0.09300
H 	H 	0.68980 0.24730 0.70640 0.07100
H 	H 	0.97840 0.47040 0.87260 0.05900
H 	H 	0.63330 0.04310 0.73830 0.10300
H 	H 	0.57870 0.12350 0.71530 0.08100
H 	H 	0.60380 0.34070 0.42550 0.02600
H 	H 	0.50350 0.19550 0.33250 0.02700
H 	H 	0.29740 0.35030 0.20950 -0.00900
H 	H 	0.36090 0.08690 0.21870 0.08400
H 	H 	0.17970 0.97280 0.11150 0.04700
H 	H 	0.97900 0.12930 0.98630 0.04200
H 	H 	0.15130 0.24390 0.09630 0.09400
H 	H 	0.74440 0.68240 0.26870 0.02300
H 	H 	0.77360 0.82340 0.25030 0.04200
H 	H 	0.41760 0.66040 0.04490 -0.01000
H 	H 	0.40110 0.75990 0.97920 0.08600
H 	H 	0.36340 0.86900 0.91960 0.04800
H 	H 	0.67330 0.03520 0.13440 0.05600
H 	H 	0.70720 0.92760 0.19470 0.07700
H 	H 	0.00020 0.48960 0.36960 0.06100
H 	H 	0.75430 0.27710 0.18020 0.10000
H 	H 	0.09140 0.26400 0.39380 0.09400
H 	H 	0.09640 0.14880 0.31880 0.09500
H 	H 	0.97680 0.06690 0.24810 0.10100
H 	H 	0.96200 0.74800 0.07360 0.09300
H 	H 	0.31020 0.75270 0.29360 0.07100
H 	H 	0.02160 0.52960 0.12740 0.05900
H 	H 	0.36670 0.95690 0.26170 0.10300
H 	H 	0.42130 0.87650 0.28470 0.08100
C 	C 	0.47100 0.67580 0.63000 0.00100
C 	C 	0.52540 0.75610 0.68100 0.00500
C 	C 	0.63870 0.67000 0.74830 0.10300
C 	C 	0.73160 0.82270 0.82940 0.13100
C 	C 	0.71980 0.90440 0.82740 -0.12500
C 	C 	0.82590 0.97280 0.89250 -0.01100
C 	C 	0.94200 0.96320 0.96470 -0.00300
C 	C 	0.94600 0.87980 0.96630 -0.00400
C 	C 	0.84310 0.81080 0.90040 -0.12600
C 	C 	0.31750 0.30410 0.77890 0.00900
C 	C 	0.30030 0.22640 0.78860 -0.00300
C 	C 	0.49710 0.31700 0.90210 0.09900
C 	C 	0.43970 0.16690 0.90610 0.12400
C 	C 	0.54390 0.18430 0.98900 -0.11700
C 	C 	0.56610 0.11840 0.02440 -0.01500
C 	C 	0.48840 0.03510 0.98040 0.00200
C 	C 	0.38390 0.02030 0.89770 -0.01800
C 	C 	0.36210 0.08500 0.86150 -0.11500
C 	C 	0.25800 0.55970 0.77660 0.28600
C 	C 	0.78550 0.57270 0.52510 0.28200
C 	C 	0.92870 0.61670 0.60670 -0.02400
C 	C 	0.02080 0.56900 0.65250 -0.06600
C 	C 	0.14380 0.60950 0.73130 -0.01800
C 	C 	0.16870 0.69630 0.76550 -0.12900
C 	C 	0.07860 0.74360 0.71860 0.17600
C 	C 	0.96350 0.70400 0.63880 -0.13800
C 	C 	0.03090 0.88090 0.71230 -0.18200
C 	C 	0.14030 0.90230 0.64980 0.34200
C 	C 	0.70830 0.41330 0.73110 0.29600
C 	C 	0.19360 0.41580 0.98650 0.29000
C 	C 	0.03780 0.36810 0.91030 -0.03000
C 	C 	0.98560 0.28050 0.88920 -0.11300
C 	C 	0.85610 0.23470 0.81340 0.16000
C 	C 	0.77270 0.27740 0.75860 -0.10900
C 	C 	0.81540 0.36560 0.78320 -0.03900
C 	C 	0.94870 0.41140 0.85780 -0.04900
C 	C 	0.68220 0.09500 0.72600 -0.22200
C 	C 	0.75270 0.07210 0.64610 0.38900
C 	C 	0.52900 0.32420 0.37000 0.00100
C 	C 	0.47460 0.24390 0.31900 0.00500
C 	C 	0.36130 0.33000 0.25170 0.10300
C 	C 	0.26840 0.17730 0.17060 0.13100
C 	C 	0.28020 0.09560 0.17260 -0.12500
C 	C 	0.17410 0.02720 0.10750 -0.01100
C 	C 	0.05800 0.03680 0.03530 -0.00300
C 	C 	0.05400 0.12020 0.03370 -0.00400
C 	C 	0.15690 0.18920 0.09960 -0.12600
C 	C 	0.68250 0.69590 0.22110 0.00900
C 	C 	0.69970 0.77360 0.21140 -0.00300
C 	C 	0.50290 0.68300 0.09790 0.09900
C 	C 	0.56030 0.83310 0.09390 0.12400
C 	C 	0.45610 0.81570 0.01100 -0.11700
C 	C 	0.43390 0.88160 0.97560 -0.01500
C 	C 	0.51160 0.96490 0.01960 0.00200
C 	C 	0.61610 0.97970 0.10230 -0.01800
C 	C 	0.63790 0.91500 0.13850 -0.11500
C 	C 	0.74200 0.44030 0.22340 0.28600
C 	C 	0.21450 0.42730 0.47490 0.28200
C 	C 	0.07130 0.38330 0.39330 -0.02400
C 	C 	0.97920 0.43100 0.34750 -0.06600
C 	C 	0.85620 0.39050 0.26870 -0.01800
C 	C 	0.83130 0.30370 0.23450 -0.12900
C 	C 	0.92140 0.25640 0.28140 0.17600
C 	C 	0.03650 0.29600 0.36120 -0.13800
C 	C 	0.96910 0.11910 0.28770 -0.18200
C 	C 	0.85970 0.09770 0.35020 0.34200
C 	C 	0.29170 0.58670 0.26890 0.29600
C 	C 	0.80640 0.58420 0.01350 0.29000
C 	C 	0.96220 0.63190 0.08970 -0.03000
C 	C 	0.01440 0.71950 0.11080 -0.11300
C 	C 	0.14390 0.76530 0.18660 0.16000
C 	C 	0.22730 0.72260 0.24140 -0.10900
C 	C 	0.18460 0.63440 0.21680 -0.03900
C 	C 	0.05130 0.58860 0.14220 -0.04900
C 	C 	0.31780 0.90500 0.27400 -0.22200
C 	C 	0.24730 0.92790 0.35390 0.38900
N 	N 	0.54270 0.62200 0.67230 -0.24300
N 	N 	0.63320 0.75230 0.75770 -0.14100
N 	N 	0.44060 0.36180 0.85010 -0.24200
N 	N 	0.41450 0.23440 0.86820 -0.13800
N 	N 	0.45730 0.37800 0.32770 -0.24300
N 	N 	0.36680 0.24770 0.24230 -0.14100
N 	N 	0.55940 0.63820 0.14990 -0.24200
N 	N 	0.58550 0.76560 0.13180 -0.13800
O 	O 	0.69650 0.49970 0.51470 -0.41200
O 	O 	0.75300 0.61260 0.46930 -0.38600
O 	O 	0.27900 0.48880 0.73560 -0.42400
O 	O 	0.33740 0.59420 0.85470 -0.39200
O 	O 	0.11580 0.82930 0.75920 -0.17900
O 	O 	0.31300 0.92610 0.67310 -0.41000
O 	O 	0.04560 0.89790 0.57600 -0.42900
O 	O 	0.68510 0.48510 0.76710 -0.45600
O 	O 	0.64300 0.37940 0.65200 -0.38800
O 	O 	0.23580 0.38390 0.04630 -0.36700
O 	O 	0.28550 0.48690 0.98690 -0.44800
O 	O 	0.82220 0.14840 0.79950 -0.16800
O 	O 	0.91390 0.10030 0.64510 -0.34900
O 	O 	0.62890 0.02280 0.58050 -0.59600
O 	O 	0.30350 0.50030 0.48530 -0.41200
O 	O 	0.24700 0.38740 0.53070 -0.38600
O 	O 	0.72100 0.51120 0.26440 -0.42400
O 	O 	0.66260 0.40580 0.14530 -0.39200
O 	O 	0.88420 0.17070 0.24080 -0.17900
O 	O 	0.68700 0.07390 0.32690 -0.41000
O 	O 	0.95440 0.10210 0.42400 -0.42900
O 	O 	0.31490 0.51490 0.23290 -0.45600
O 	O 	0.35700 0.62060 0.34800 -0.38800
O 	O 	0.76420 0.61610 0.95370 -0.36700
O 	O 	0.71450 0.51310 0.01310 -0.44800
O 	O 	0.17780 0.85160 0.20050 -0.16800
O 	O 	0.08610 0.89970 0.35490 -0.34900
O 	O 	0.37110 0.97720 0.41950 -0.59600
