data_crystal

_cell_length_a 28.76400
_cell_length_b 21.68200
_cell_length_c 10.93300
_cell_angle_alpha 90.00000
_cell_angle_beta  90.00000
_cell_angle_gamma 90.00000

_symmetry_space_group_name_	'P 1'
_symmetry_space_group_name_H-M	'P 1'

loop_
_symmetry_equiv_pos_as_xyz
  x,y,z

loop_
_atom_site_label
_atom_site_type_symbol
_atom_site_fract_x
_atom_site_fract_y
_atom_site_fract_z
_atom_site_charge
C 	C 	0.74510 0.17130 0.39100 0.58900
H 	H 	0.72300 0.20240 0.38240 -0.17400
C 	C 	0.79100 0.17640 0.33500 0.07900
H 	H 	0.79820 0.18780 0.25530 0.02600
C 	C 	0.82620 0.15800 0.44200 -0.67500
H 	H 	0.84970 0.18350 0.47120 0.27300
C 	C 	0.85670 0.06900 0.54810 0.37600
C 	C 	0.81790 0.10140 0.48360 -0.09100
C 	C 	0.77230 0.09280 0.51850 0.10300
H 	H 	0.76610 0.06820 0.58620 0.01200
C 	C 	0.73570 0.11910 0.45730 -0.21300
C 	C 	0.01250 0.15820 0.61300 0.36700
C 	C 	0.98550 0.20650 0.68340 -0.13700
C 	C 	0.93690 0.20710 0.68460 0.06500
H 	H 	0.92070 0.17760 0.63980 0.01500
C 	C 	0.93680 0.03450 0.84580 0.41800
C 	C 	0.95370 0.05830 0.97060 -0.15300
C 	C 	0.94320 0.02560 0.07510 0.09200
H 	H 	0.92490 0.99040 0.06940 0.02000
C 	C 	0.95960 0.04440 0.19000 -0.16000
C 	C 	0.95050 0.00580 0.30160 0.41000
C 	C 	0.98580 0.09790 0.19630 0.07100
H 	H 	0.99610 0.11240 0.27160 -0.00800
C 	C 	0.99670 0.13030 0.08860 -0.15100
H 	H 	0.01480 0.16580 0.09250 0.07000
C 	C 	0.98080 0.10960 0.97870 0.08200
H 	H 	0.98860 0.13090 0.90780 0.01700
C 	C 	0.68700 0.10670 0.49340 0.46400
Co	Co	0.95548 0.03592 0.57479 1.18800
Co	Co	0.90923 0.91013 0.43605 1.17100
Co	Co	0.86638 0.95605 0.71369 1.13200
O 	O 	0.92330 0.94900 0.59410 -0.82600
O 	O 	0.68041 0.08740 0.59630 -0.51500
O 	O 	0.65537 0.11500 0.41620 -0.48400
O 	O 	0.90593 0.99350 0.84900 -0.48100
O 	O 	0.95546 0.05800 0.75540 -0.45600
O 	O 	0.99244 0.11790 0.54930 -0.44800
O 	O 	0.05661 0.16190 0.62170 -0.45100
O 	O 	0.97699 0.01477 0.39310 -0.54100
O 	O 	0.89706 0.07480 0.50610 -0.43900
O 	O 	0.84531 0.03820 0.63940 -0.45500
O 	O 	0.91744 0.96960 0.29910 -0.46200
H 	H 	0.94200 0.92300 0.62100 0.26100
C 	C 	0.74480 0.14590 0.33660 -0.49500
H 	H 	0.72080 0.16310 0.29120 0.17300
C 	C 	0.79050 0.14520 0.29000 -0.29500
H 	H 	0.79640 0.15290 0.20770 0.11300
C 	C 	0.82690 0.13250 0.37200 0.65800
H 	H 	0.85710 0.14460 0.35300 -0.14000
C 	C 	0.75490 0.82870 0.39100 0.58800
H 	H 	0.77700 0.79760 0.38240 -0.17500
C 	C 	0.70900 0.82360 0.33500 0.07800
H 	H 	0.70180 0.81220 0.25530 0.02500
C 	C 	0.67380 0.84200 0.44200 -0.67600
H 	H 	0.65030 0.81650 0.47120 0.27200
C 	C 	0.64330 0.93100 0.54810 0.37500
C 	C 	0.68210 0.89860 0.48360 -0.09200
C 	C 	0.72770 0.90720 0.51850 0.10200
H 	H 	0.73390 0.93180 0.58620 0.01100
C 	C 	0.76430 0.88090 0.45730 -0.21400
C 	C 	0.48750 0.84180 0.61300 0.36800
C 	C 	0.51450 0.79350 0.68340 -0.14100
C 	C 	0.56310 0.79290 0.68460 0.06600
H 	H 	0.57930 0.82240 0.63980 0.01300
C 	C 	0.56320 0.96550 0.84580 0.41600
C 	C 	0.54630 0.94170 0.97060 -0.15300
C 	C 	0.55680 0.97440 0.07510 0.08900
H 	H 	0.57510 0.00960 0.06940 0.02100
C 	C 	0.54040 0.95560 0.19000 -0.15900
C 	C 	0.54950 0.99420 0.30160 0.40900
C 	C 	0.51420 0.90210 0.19630 0.07000
H 	H 	0.50390 0.88760 0.27160 -0.00800
C 	C 	0.50330 0.86970 0.08860 -0.15000
H 	H 	0.48520 0.83420 0.09250 0.07000
C 	C 	0.51920 0.89040 0.97870 0.08100
H 	H 	0.51140 0.86910 0.90780 0.01800
C 	C 	0.81300 0.89330 0.49340 0.46400
Co	Co	0.54452 0.96408 0.57479 1.18800
Co	Co	0.59077 0.08987 0.43605 1.17100
Co	Co	0.63362 0.04395 0.71369 1.13200
O 	O 	0.57670 0.05100 0.59410 -0.82500
O 	O 	0.81959 0.91260 0.59630 -0.51500
O 	O 	0.84463 0.88500 0.41620 -0.48400
O 	O 	0.59407 0.00650 0.84900 -0.48000
O 	O 	0.54454 0.94200 0.75540 -0.45500
O 	O 	0.50756 0.88210 0.54930 -0.44900
O 	O 	0.44339 0.83810 0.62170 -0.45100
O 	O 	0.52301 0.98523 0.39310 -0.54100
O 	O 	0.60294 0.92520 0.50610 -0.43900
O 	O 	0.65469 0.96180 0.63940 -0.45600
O 	O 	0.58256 0.03040 0.29910 -0.46100
H 	H 	0.55800 0.07700 0.62100 0.26100
C 	C 	0.75520 0.85410 0.33660 -0.49500
H 	H 	0.77920 0.83690 0.29120 0.17300
C 	C 	0.70950 0.85480 0.29000 -0.29600
H 	H 	0.70360 0.84710 0.20770 0.11300
C 	C 	0.67310 0.86750 0.37200 0.65800
H 	H 	0.64290 0.85540 0.35300 -0.14000
C 	C 	0.75490 0.67130 0.10900 0.58800
H 	H 	0.77700 0.70240 0.11760 -0.17500
C 	C 	0.70900 0.67640 0.16500 0.07700
H 	H 	0.70180 0.68780 0.24470 0.02500
C 	C 	0.67380 0.65800 0.05800 -0.67500
H 	H 	0.65030 0.68350 0.02880 0.27200
C 	C 	0.64330 0.56900 0.95190 0.37600
C 	C 	0.68210 0.60140 0.01640 -0.09500
C 	C 	0.72770 0.59280 0.98150 0.10600
H 	H 	0.73390 0.56820 0.91380 0.01000
C 	C 	0.76430 0.61910 0.04270 -0.21600
C 	C 	0.48750 0.65820 0.88700 0.36800
C 	C 	0.51450 0.70650 0.81660 -0.14100
C 	C 	0.56310 0.70710 0.81540 0.06600
H 	H 	0.57930 0.67760 0.86020 0.01300
C 	C 	0.56320 0.53450 0.65420 0.41700
C 	C 	0.54630 0.55830 0.52940 -0.15400
C 	C 	0.55680 0.52560 0.42490 0.09000
H 	H 	0.57510 0.49040 0.43060 0.02000
C 	C 	0.54040 0.54440 0.31000 -0.16000
C 	C 	0.54950 0.50580 0.19840 0.40900
C 	C 	0.51420 0.59790 0.30370 0.07100
H 	H 	0.50390 0.61240 0.22840 -0.00800
C 	C 	0.50330 0.63030 0.41140 -0.15000
H 	H 	0.48520 0.66580 0.40750 0.07000
C 	C 	0.51920 0.60960 0.52130 0.08100
H 	H 	0.51140 0.63090 0.59220 0.01800
C 	C 	0.81300 0.60670 0.00660 0.46300
Co	Co	0.54452 0.53592 0.92521 1.18800
Co	Co	0.59077 0.41013 0.06395 1.17100
Co	Co	0.63362 0.45605 0.78631 1.13200
O 	O 	0.57670 0.44900 0.90590 -0.82500
O 	O 	0.81959 0.58740 0.90370 -0.51400
O 	O 	0.84463 0.61500 0.08380 -0.48400
O 	O 	0.59407 0.49350 0.65100 -0.48100
O 	O 	0.54454 0.55800 0.74460 -0.45600
O 	O 	0.50756 0.61790 0.95070 -0.44900
O 	O 	0.44339 0.66190 0.87830 -0.45100
O 	O 	0.52301 0.51477 0.10690 -0.54100
O 	O 	0.60294 0.57480 0.99390 -0.43900
O 	O 	0.65469 0.53820 0.86060 -0.45600
O 	O 	0.58256 0.46960 0.20090 -0.46200
H 	H 	0.55800 0.42300 0.87900 0.26100
C 	C 	0.75520 0.64590 0.16340 -0.49400
H 	H 	0.77920 0.66310 0.20880 0.17300
C 	C 	0.70950 0.64520 0.21000 -0.29500
H 	H 	0.70360 0.65290 0.29230 0.11300
C 	C 	0.67310 0.63250 0.12800 0.65800
H 	H 	0.64290 0.64460 0.14700 -0.14000
C 	C 	0.74510 0.32870 0.10900 0.58700
H 	H 	0.72300 0.29760 0.11760 -0.17500
C 	C 	0.79100 0.32360 0.16500 0.07700
H 	H 	0.79820 0.31220 0.24470 0.02500
C 	C 	0.82620 0.34200 0.05800 -0.67400
H 	H 	0.84970 0.31650 0.02880 0.27200
C 	C 	0.85670 0.43100 0.95190 0.37600
C 	C 	0.81790 0.39860 0.01640 -0.09500
C 	C 	0.77230 0.40720 0.98150 0.10600
H 	H 	0.76610 0.43180 0.91380 0.01000
C 	C 	0.73570 0.38090 0.04270 -0.21600
C 	C 	0.01250 0.34180 0.88700 0.36600
C 	C 	0.98550 0.29350 0.81660 -0.13800
C 	C 	0.93690 0.29290 0.81540 0.06400
H 	H 	0.92070 0.32240 0.86020 0.01400
C 	C 	0.93680 0.46550 0.65420 0.41700
C 	C 	0.95370 0.44170 0.52940 -0.15400
C 	C 	0.94320 0.47440 0.42490 0.09000
H 	H 	0.92490 0.50960 0.43060 0.02000
C 	C 	0.95960 0.45560 0.31000 -0.16000
C 	C 	0.95050 0.49420 0.19840 0.40900
C 	C 	0.98580 0.40210 0.30370 0.07000
H 	H 	0.99610 0.38760 0.22840 -0.00800
C 	C 	0.99670 0.36970 0.41140 -0.15000
H 	H 	0.01480 0.33420 0.40750 0.07000
C 	C 	0.98080 0.39040 0.52130 0.08100
H 	H 	0.98860 0.36910 0.59220 0.01800
C 	C 	0.68700 0.39330 0.00660 0.46400
Co	Co	0.95548 0.46408 0.92521 1.18800
Co	Co	0.90923 0.58987 0.06395 1.17100
Co	Co	0.86638 0.54395 0.78631 1.13200
O 	O 	0.92330 0.55100 0.90590 -0.82500
O 	O 	0.68041 0.41260 0.90370 -0.51400
O 	O 	0.65537 0.38500 0.08380 -0.48400
O 	O 	0.90593 0.50650 0.65100 -0.48100
O 	O 	0.95546 0.44200 0.74460 -0.45600
O 	O 	0.99244 0.38210 0.95070 -0.44800
O 	O 	0.05661 0.33810 0.87830 -0.45100
O 	O 	0.97699 0.48523 0.10690 -0.54100
O 	O 	0.89706 0.42520 0.99390 -0.43900
O 	O 	0.84531 0.46180 0.86060 -0.45600
O 	O 	0.91744 0.53040 0.20090 -0.46200
H 	H 	0.94200 0.57700 0.87900 0.26100
C 	C 	0.74480 0.35410 0.16340 -0.49400
H 	H 	0.72080 0.33690 0.20880 0.17200
C 	C 	0.79050 0.35480 0.21000 -0.29500
H 	H 	0.79640 0.34710 0.29230 0.11300
C 	C 	0.82690 0.36750 0.12800 0.65800
H 	H 	0.85710 0.35540 0.14700 -0.14000
C 	C 	0.25490 0.82870 0.60900 0.58800
H 	H 	0.27700 0.79760 0.61760 -0.17500
C 	C 	0.20900 0.82360 0.66500 0.07800
H 	H 	0.20180 0.81220 0.74470 0.02500
C 	C 	0.17380 0.84200 0.55800 -0.67600
H 	H 	0.15030 0.81650 0.52880 0.27200
C 	C 	0.14330 0.93100 0.45190 0.37500
C 	C 	0.18210 0.89860 0.51640 -0.09200
C 	C 	0.22770 0.90720 0.48150 0.10200
H 	H 	0.23390 0.93180 0.41380 0.01100
C 	C 	0.26430 0.88090 0.54270 -0.21400
C 	C 	0.98750 0.84180 0.38700 0.36600
C 	C 	0.01450 0.79350 0.31660 -0.13800
C 	C 	0.06310 0.79290 0.31540 0.06400
H 	H 	0.07930 0.82240 0.36020 0.01400
C 	C 	0.06320 0.96550 0.15420 0.41700
C 	C 	0.04630 0.94170 0.02940 -0.15400
C 	C 	0.05680 0.97440 0.92490 0.09100
H 	H 	0.07510 0.00960 0.93060 0.02000
C 	C 	0.04040 0.95560 0.81000 -0.16000
C 	C 	0.04950 0.99420 0.69840 0.41000
C 	C 	0.01420 0.90210 0.80370 0.07100
H 	H 	0.00390 0.88760 0.72840 -0.00800
C 	C 	0.00330 0.86970 0.91140 -0.15100
H 	H 	0.98520 0.83420 0.90750 0.07000
C 	C 	0.01920 0.89040 0.02130 0.08200
H 	H 	0.01140 0.86910 0.09220 0.01700
C 	C 	0.31300 0.89330 0.50660 0.46400
Co	Co	0.04452 0.96408 0.42521 1.18800
Co	Co	0.09077 0.08987 0.56395 1.17100
Co	Co	0.13362 0.04395 0.28631 1.13200
O 	O 	0.07670 0.05100 0.40590 -0.82600
O 	O 	0.31959 0.91260 0.40370 -0.51500
O 	O 	0.34463 0.88500 0.58380 -0.48400
O 	O 	0.09407 0.00650 0.15100 -0.48100
O 	O 	0.04454 0.94200 0.24460 -0.45600
O 	O 	0.00756 0.88210 0.45070 -0.44800
O 	O 	0.94339 0.83810 0.37830 -0.45100
O 	O 	0.02301 0.98523 0.60690 -0.54100
O 	O 	0.10294 0.92520 0.49390 -0.43900
O 	O 	0.15469 0.96180 0.36060 -0.45500
O 	O 	0.08256 0.03040 0.70090 -0.46200
H 	H 	0.05800 0.07700 0.37900 0.26100
C 	C 	0.25520 0.85410 0.66340 -0.49500
H 	H 	0.27920 0.83690 0.70880 0.17300
C 	C 	0.20950 0.85480 0.71000 -0.29500
H 	H 	0.20360 0.84710 0.79230 0.11300
C 	C 	0.17310 0.86750 0.62800 0.65800
H 	H 	0.14290 0.85540 0.64700 -0.14000
C 	C 	0.24510 0.17130 0.60900 0.58800
H 	H 	0.22300 0.20240 0.61760 -0.17500
C 	C 	0.29100 0.17640 0.66500 0.07800
H 	H 	0.29820 0.18780 0.74470 0.02500
C 	C 	0.32620 0.15800 0.55800 -0.67600
H 	H 	0.34970 0.18350 0.52880 0.27200
C 	C 	0.35670 0.06900 0.45190 0.37500
C 	C 	0.31790 0.10140 0.51640 -0.09200
C 	C 	0.27230 0.09280 0.48150 0.10200
H 	H 	0.26610 0.06820 0.41380 0.01100
C 	C 	0.23570 0.11910 0.54270 -0.21400
C 	C 	0.51250 0.15820 0.38700 0.36800
C 	C 	0.48550 0.20650 0.31660 -0.14100
C 	C 	0.43690 0.20710 0.31540 0.06600
H 	H 	0.42070 0.17760 0.36020 0.01300
C 	C 	0.43680 0.03450 0.15420 0.41600
C 	C 	0.45370 0.05830 0.02940 -0.15300
C 	C 	0.44320 0.02560 0.92490 0.08900
H 	H 	0.42490 0.99040 0.93060 0.02100
C 	C 	0.45960 0.04440 0.81000 -0.15900
C 	C 	0.45050 0.00580 0.69840 0.40900
C 	C 	0.48580 0.09790 0.80370 0.07000
H 	H 	0.49610 0.11240 0.72840 -0.00800
C 	C 	0.49670 0.13030 0.91140 -0.15000
H 	H 	0.51480 0.16580 0.90750 0.07000
C 	C 	0.48080 0.10960 0.02130 0.08100
H 	H 	0.48860 0.13090 0.09220 0.01800
C 	C 	0.18700 0.10670 0.50660 0.46400
Co	Co	0.45548 0.03592 0.42521 1.18800
Co	Co	0.40923 0.91013 0.56395 1.17100
Co	Co	0.36638 0.95605 0.28631 1.13200
O 	O 	0.42330 0.94900 0.40590 -0.82500
O 	O 	0.18041 0.08740 0.40370 -0.51500
O 	O 	0.15537 0.11500 0.58380 -0.48400
O 	O 	0.40593 0.99350 0.15100 -0.48000
O 	O 	0.45546 0.05800 0.24460 -0.45500
O 	O 	0.49244 0.11790 0.45070 -0.44900
O 	O 	0.55661 0.16190 0.37830 -0.45100
O 	O 	0.47699 0.01477 0.60690 -0.54100
O 	O 	0.39706 0.07480 0.49390 -0.43900
O 	O 	0.34531 0.03820 0.36060 -0.45600
O 	O 	0.41744 0.96960 0.70090 -0.46100
H 	H 	0.44200 0.92300 0.37900 0.26100
C 	C 	0.24480 0.14590 0.66340 -0.49500
H 	H 	0.22080 0.16310 0.70880 0.17300
C 	C 	0.29050 0.14520 0.71000 -0.29600
H 	H 	0.29640 0.15290 0.79230 0.11300
C 	C 	0.32690 0.13250 0.62800 0.65800
H 	H 	0.35710 0.14460 0.64700 -0.14000
C 	C 	0.24510 0.32870 0.89100 0.58800
H 	H 	0.22300 0.29760 0.88240 -0.17500
C 	C 	0.29100 0.32360 0.83500 0.07700
H 	H 	0.29820 0.31220 0.75530 0.02500
C 	C 	0.32620 0.34200 0.94200 -0.67500
H 	H 	0.34970 0.31650 0.97120 0.27200
C 	C 	0.35670 0.43100 0.04810 0.37600
C 	C 	0.31790 0.39860 0.98360 -0.09500
C 	C 	0.27230 0.40720 0.01850 0.10600
H 	H 	0.26610 0.43180 0.08620 0.01000
C 	C 	0.23570 0.38090 0.95730 -0.21600
C 	C 	0.51250 0.34180 0.11300 0.36800
C 	C 	0.48550 0.29350 0.18340 -0.14100
C 	C 	0.43690 0.29290 0.18460 0.06600
H 	H 	0.42070 0.32240 0.13980 0.01300
C 	C 	0.43680 0.46550 0.34580 0.41700
C 	C 	0.45370 0.44170 0.47060 -0.15400
C 	C 	0.44320 0.47440 0.57510 0.09000
H 	H 	0.42490 0.50960 0.56940 0.02000
C 	C 	0.45960 0.45560 0.69000 -0.16000
C 	C 	0.45050 0.49420 0.80160 0.40900
C 	C 	0.48580 0.40210 0.69630 0.07100
H 	H 	0.49610 0.38760 0.77160 -0.00800
C 	C 	0.49670 0.36970 0.58860 -0.15000
H 	H 	0.51480 0.33420 0.59250 0.07000
C 	C 	0.48080 0.39040 0.47870 0.08100
H 	H 	0.48860 0.36910 0.40780 0.01800
C 	C 	0.18700 0.39330 0.99340 0.46300
Co	Co	0.45548 0.46408 0.07479 1.18800
Co	Co	0.40923 0.58987 0.93605 1.17100
Co	Co	0.36638 0.54395 0.21369 1.13200
O 	O 	0.42330 0.55100 0.09410 -0.82500
O 	O 	0.18041 0.41260 0.09630 -0.51400
O 	O 	0.15537 0.38500 0.91620 -0.48400
O 	O 	0.40593 0.50650 0.34900 -0.48100
O 	O 	0.45546 0.44200 0.25540 -0.45600
O 	O 	0.49244 0.38210 0.04930 -0.44900
O 	O 	0.55661 0.33810 0.12170 -0.45100
O 	O 	0.47699 0.48523 0.89310 -0.54100
O 	O 	0.39706 0.42520 0.00610 -0.43900
O 	O 	0.34531 0.46180 0.13940 -0.45600
O 	O 	0.41744 0.53040 0.79910 -0.46200
H 	H 	0.44200 0.57700 0.12100 0.26100
C 	C 	0.24480 0.35410 0.83660 -0.49400
H 	H 	0.22080 0.33690 0.79120 0.17300
C 	C 	0.29050 0.35480 0.79000 -0.29500
H 	H 	0.29640 0.34710 0.70770 0.11300
C 	C 	0.32690 0.36750 0.87200 0.65800
H 	H 	0.35710 0.35540 0.85300 -0.14000
C 	C 	0.25490 0.67130 0.89100 0.58700
H 	H 	0.27700 0.70240 0.88240 -0.17500
C 	C 	0.20900 0.67640 0.83500 0.07700
H 	H 	0.20180 0.68780 0.75530 0.02500
C 	C 	0.17380 0.65800 0.94200 -0.67400
H 	H 	0.15030 0.68350 0.97120 0.27200
C 	C 	0.14330 0.56900 0.04810 0.37600
C 	C 	0.18210 0.60140 0.98360 -0.09500
C 	C 	0.22770 0.59280 0.01850 0.10600
H 	H 	0.23390 0.56820 0.08620 0.01000
C 	C 	0.26430 0.61910 0.95730 -0.21600
C 	C 	0.98750 0.65820 0.11300 0.36600
C 	C 	0.01450 0.70650 0.18340 -0.13800
C 	C 	0.06310 0.70710 0.18460 0.06400
H 	H 	0.07930 0.67760 0.13980 0.01400
C 	C 	0.06320 0.53450 0.34580 0.41700
C 	C 	0.04630 0.55830 0.47060 -0.15400
C 	C 	0.05680 0.52560 0.57510 0.09000
H 	H 	0.07510 0.49040 0.56940 0.02000
C 	C 	0.04040 0.54440 0.69000 -0.16000
C 	C 	0.04950 0.50580 0.80160 0.40900
C 	C 	0.01420 0.59790 0.69630 0.07000
H 	H 	0.00390 0.61240 0.77160 -0.00800
C 	C 	0.00330 0.63030 0.58860 -0.15000
H 	H 	0.98520 0.66580 0.59250 0.07000
C 	C 	0.01920 0.60960 0.47870 0.08100
H 	H 	0.01140 0.63090 0.40780 0.01800
C 	C 	0.31300 0.60670 0.99340 0.46400
Co	Co	0.04452 0.53592 0.07479 1.18800
Co	Co	0.09077 0.41013 0.93605 1.17100
Co	Co	0.13362 0.45605 0.21369 1.13200
O 	O 	0.07670 0.44900 0.09410 -0.82500
O 	O 	0.31959 0.58740 0.09630 -0.51400
O 	O 	0.34463 0.61500 0.91620 -0.48400
O 	O 	0.09407 0.49350 0.34900 -0.48100
O 	O 	0.04454 0.55800 0.25540 -0.45600
O 	O 	0.00756 0.61790 0.04930 -0.44800
O 	O 	0.94339 0.66190 0.12170 -0.45100
O 	O 	0.02301 0.51477 0.89310 -0.54100
O 	O 	0.10294 0.57480 0.00610 -0.43900
O 	O 	0.15469 0.53820 0.13940 -0.45600
O 	O 	0.08256 0.46960 0.79910 -0.46200
H 	H 	0.05800 0.42300 0.12100 0.26100
C 	C 	0.25520 0.64590 0.83660 -0.49400
H 	H 	0.27920 0.66310 0.79120 0.17200
C 	C 	0.20950 0.64520 0.79000 -0.29500
H 	H 	0.20360 0.65290 0.70770 0.11300
C 	C 	0.17310 0.63250 0.87200 0.65800
H 	H 	0.14290 0.64460 0.85300 -0.14000
C 	C 	0.00860 0.25000 0.75000 0.07100
H 	H 	0.04090 0.25000 0.75000 0.03400
C 	C 	0.91280 0.25000 0.75000 -0.13800
H 	H 	0.88050 0.25000 0.75000 0.07600
C 	C 	0.49140 0.75000 0.75000 0.07500
H 	H 	0.45910 0.75000 0.75000 0.03300
C 	C 	0.58720 0.75000 0.75000 -0.14000
H 	H 	0.61950 0.75000 0.75000 0.07600
C 	C 	0.99140 0.75000 0.25000 0.07100
H 	H 	0.95910 0.75000 0.25000 0.03400
C 	C 	0.08720 0.75000 0.25000 -0.13800
H 	H 	0.11950 0.75000 0.25000 0.07600
C 	C 	0.50860 0.25000 0.25000 0.07500
H 	H 	0.54090 0.25000 0.25000 0.03300
C 	C 	0.41280 0.25000 0.25000 -0.14000
H 	H 	0.38050 0.25000 0.25000 0.07600
