data_crystal

_cell_length_a 12.02160
_cell_length_b 13.93790
_cell_length_c 22.76580
_cell_angle_alpha 95.82500
_cell_angle_beta  104.72200
_cell_angle_gamma 104.03600

_symmetry_space_group_name_	'P 1'
_symmetry_space_group_name_H-M	'P 1'

loop_
_symmetry_equiv_pos_as_xyz
  x,y,z

loop_
_atom_site_label
_atom_site_type_symbol
_atom_site_fract_x
_atom_site_fract_y
_atom_site_fract_z
_atom_site_charge
Ag	Ag	0.29140 0.20130 0.84736 0.41200
Ag	Ag	0.18624 0.42535 0.55908 0.49600
Ag	Ag	0.02276 0.84439 0.69686 0.50100
Ag	Ag	0.48499 0.05671 0.91452 0.45400
Ag	Ag	0.13613 0.99746 0.85705 0.45100
Ag	Ag	0.14848 0.66093 0.99892 0.46100
Ag	Ag	0.59678 0.88059 0.82367 0.50100
Ag	Ag	0.68560 0.17265 0.06493 0.44800
Ag	Ag	0.70860 0.79870 0.15264 0.41300
Ag	Ag	0.81376 0.57465 0.44092 0.49700
Ag	Ag	0.97724 0.15561 0.30314 0.50100
Ag	Ag	0.51501 0.94329 0.08548 0.45400
Ag	Ag	0.86387 0.00254 0.14295 0.45100
Ag	Ag	0.85152 0.33907 0.00108 0.46100
Ag	Ag	0.40322 0.11941 0.17633 0.50100
Ag	Ag	0.31440 0.82735 0.93507 0.44800
H 	H 	0.44650 0.46340 0.08610 0.06000
H 	H 	0.27070 0.38030 0.90430 0.02000
H 	H 	0.76670 0.75220 0.91440 0.06000
H 	H 	0.15010 0.63710 0.56900 -0.02000
H 	H 	0.99850 0.95450 0.05740 0.05300
H 	H 	0.40600 0.67500 0.76100 0.04000
H 	H 	0.18800 0.78100 0.63830 0.05200
H 	H 	0.43090 0.77610 0.59800 0.00900
H 	H 	0.79040 0.70290 0.65720 0.04000
H 	H 	0.64780 0.62440 0.56370 -0.00500
H 	H 	0.13120 0.86190 0.05890 -0.03300
H 	H 	0.56080 0.85100 0.69180 0.03700
H 	H 	0.06160 0.03040 0.62280 0.03600
H 	H 	0.18220 0.50360 0.91240 -0.04200
H 	H 	0.16420 0.90590 0.48320 0.06100
H 	H 	0.34660 0.58960 0.08570 -0.04100
H 	H 	0.35060 0.52600 0.68980 -0.03000
H 	H 	0.19840 0.17900 0.62700 -0.02300
H 	H 	0.30310 0.05900 0.49520 0.00700
H 	H 	0.90170 0.66420 0.92100 -0.03500
H 	H 	0.55350 0.53660 0.91390 0.06000
H 	H 	0.72930 0.61970 0.09570 0.02000
H 	H 	0.23330 0.24780 0.08560 0.06000
H 	H 	0.84990 0.36290 0.43100 -0.02000
H 	H 	0.00150 0.04550 0.94260 0.05300
H 	H 	0.59400 0.32500 0.23900 0.04000
H 	H 	0.81200 0.21900 0.36170 0.05200
H 	H 	0.56910 0.22390 0.40200 0.00900
H 	H 	0.20960 0.29710 0.34280 0.04000
H 	H 	0.35220 0.37560 0.43630 -0.00500
H 	H 	0.86880 0.13810 0.94110 -0.03300
H 	H 	0.43920 0.14900 0.30820 0.03700
H 	H 	0.93840 0.96960 0.37720 0.03600
H 	H 	0.81780 0.49640 0.08760 -0.04200
H 	H 	0.83580 0.09410 0.51680 0.06100
H 	H 	0.65340 0.41040 0.91430 -0.04100
H 	H 	0.64940 0.47400 0.31020 -0.03000
H 	H 	0.80160 0.82100 0.37300 -0.02300
H 	H 	0.69690 0.94100 0.50480 0.00700
H 	H 	0.09830 0.33580 0.07900 -0.03500
C 	C 	0.41900 0.32380 0.99340 0.08000
C 	C 	0.39200 0.46990 0.05060 -0.12700
C 	C 	0.28700 0.42070 0.94220 -0.12500
C 	C 	0.69130 0.78500 0.68330 0.01100
C 	C 	0.77730 0.91930 0.98830 0.08300
C 	C 	0.84000 0.77550 0.94500 -0.12800
C 	C 	0.19910 0.64360 0.60880 0.05200
C 	C 	0.97680 0.89520 0.02930 -0.13000
C 	C 	0.35020 0.66690 0.72290 -0.12900
C 	C 	0.86280 0.86330 0.98650 0.02200
C 	C 	0.29560 0.74210 0.70730 0.01500
C 	C 	0.30970 0.82850 0.75500 0.06800
C 	C 	0.22300 0.73050 0.65010 -0.12600
C 	C 	0.36200 0.40480 0.99420 0.03100
C 	C 	0.50330 0.76060 0.61080 0.05500
C 	C 	0.71740 0.71790 0.64600 -0.11300
C 	C 	0.63200 0.67140 0.59000 0.05900
C 	C 	0.01700 0.85290 0.54850 0.08900
C 	C 	0.10000 0.94920 0.55520 0.01800
C 	C 	0.05620 0.83960 0.03000 0.04300
C 	C 	0.58000 0.80620 0.66570 -0.11200
C 	C 	0.11000 0.03420 0.59680 -0.11500
C 	C 	0.77730 0.83920 0.74200 0.07000
C 	C 	0.23700 0.49600 0.94750 0.05500
C 	C 	0.17200 0.95910 0.51360 -0.11200
C 	C 	0.33300 0.54680 0.04890 0.06800
C 	C 	0.31800 0.57830 0.67920 0.06400
C 	C 	0.19200 0.12280 0.59930 0.06100
C 	C 	0.25300 0.05110 0.52070 0.05900
C 	C 	0.92200 0.72370 0.94880 0.07000
C 	C 	0.58100 0.67620 0.00660 0.08000
C 	C 	0.60800 0.53010 0.94940 -0.12700
C 	C 	0.71300 0.57930 0.05780 -0.12500
C 	C 	0.30870 0.21500 0.31670 0.01100
C 	C 	0.22270 0.08070 0.01170 0.08300
C 	C 	0.16000 0.22450 0.05500 -0.12800
C 	C 	0.80090 0.35640 0.39120 0.05200
C 	C 	0.02320 0.10480 0.97070 -0.13000
C 	C 	0.64980 0.33310 0.27710 -0.12900
C 	C 	0.13720 0.13670 0.01350 0.02200
C 	C 	0.70440 0.25790 0.29270 0.01500
C 	C 	0.69030 0.17150 0.24500 0.06800
C 	C 	0.77700 0.26950 0.34990 -0.12600
C 	C 	0.63800 0.59520 0.00580 0.03100
C 	C 	0.49670 0.23940 0.38920 0.05500
C 	C 	0.28260 0.28210 0.35400 -0.11300
C 	C 	0.36800 0.32860 0.41000 0.05900
C 	C 	0.98300 0.14710 0.45150 0.08900
C 	C 	0.90000 0.05080 0.44480 0.01800
C 	C 	0.94380 0.16040 0.97000 0.04300
C 	C 	0.42000 0.19380 0.33430 -0.11200
C 	C 	0.89000 0.96580 0.40320 -0.11500
C 	C 	0.22270 0.16080 0.25800 0.07000
C 	C 	0.76300 0.50400 0.05250 0.05500
C 	C 	0.82800 0.04090 0.48640 -0.11200
C 	C 	0.66700 0.45320 0.95110 0.06800
C 	C 	0.68200 0.42170 0.32080 0.06400
C 	C 	0.80800 0.87720 0.40070 0.06100
C 	C 	0.74700 0.94890 0.47930 0.05900
C 	C 	0.07800 0.27630 0.05120 0.07000
N 	N 	0.97390 0.78660 0.49630 -0.10800
N 	N 	0.75410 0.87810 0.79300 -0.16100
N 	N 	0.21760 0.86880 0.75550 -0.17100
N 	N 	0.02830 0.75210 0.98930 -0.22700
N 	N 	0.94460 0.91400 0.81090 -0.13600
N 	N 	0.37180 0.94160 0.83300 -0.16400
N 	N 	0.97610 0.81430 0.59300 -0.15400
N 	N 	0.26220 0.94070 0.80720 -0.16300
N 	N 	0.89860 0.86050 0.75340 -0.16700
N 	N 	0.78400 0.98170 0.03890 -0.17000
N 	N 	0.24540 0.56750 0.62470 -0.20600
N 	N 	0.68360 0.92080 0.94000 -0.14100
N 	N 	0.47180 0.19560 0.96390 -0.15000
N 	N 	0.40430 0.87190 0.80150 -0.17900
N 	N 	0.63400 0.98510 0.96210 -0.14700
N 	N 	0.52910 0.69260 0.57370 -0.14000
N 	N 	0.69300 0.02440 0.02290 -0.17200
N 	N 	0.85920 0.92440 0.83640 -0.08600
N 	N 	0.53660 0.23360 0.02200 -0.13800
N 	N 	0.39860 0.24990 0.94540 -0.17100
N 	N 	0.89940 0.72140 0.56650 -0.08400
N 	N 	0.50450 0.31200 0.04230 -0.10800
N 	N 	0.26300 0.13030 0.56300 -0.13900
N 	N 	0.90170 0.70830 0.50790 -0.12600
N 	N 	0.25960 0.56190 0.99950 -0.21900
N 	N 	0.02610 0.21340 0.50370 -0.10800
N 	N 	0.24590 0.12190 0.20700 -0.16100
N 	N 	0.78240 0.13120 0.24450 -0.17100
N 	N 	0.97170 0.24790 0.01070 -0.22700
N 	N 	0.05540 0.08600 0.18910 -0.13600
N 	N 	0.62820 0.05840 0.16700 -0.16400
N 	N 	0.02390 0.18570 0.40700 -0.15400
N 	N 	0.73780 0.05930 0.19280 -0.16300
N 	N 	0.10140 0.13950 0.24660 -0.16700
N 	N 	0.21600 0.01830 0.96110 -0.17000
N 	N 	0.75460 0.43250 0.37530 -0.20600
N 	N 	0.31640 0.07920 0.06000 -0.14100
N 	N 	0.52820 0.80440 0.03610 -0.15000
N 	N 	0.59570 0.12810 0.19850 -0.17900
N 	N 	0.36600 0.01490 0.03790 -0.14700
N 	N 	0.47090 0.30740 0.42630 -0.14000
N 	N 	0.30700 0.97560 0.97710 -0.17200
N 	N 	0.14080 0.07560 0.16360 -0.08600
N 	N 	0.46340 0.76640 0.97800 -0.13800
N 	N 	0.60140 0.75010 0.05460 -0.17100
N 	N 	0.10060 0.27860 0.43350 -0.08400
N 	N 	0.49550 0.68800 0.95770 -0.10800
N 	N 	0.73700 0.86970 0.43700 -0.13900
N 	N 	0.09830 0.29170 0.49210 -0.12600
N 	N 	0.74040 0.43810 0.00050 -0.21900
