data_crystal

_cell_length_a 10.56720
_cell_length_b 14.54180
_cell_length_c 17.05740
_cell_angle_alpha 69.38190
_cell_angle_beta  71.95550
_cell_angle_gamma 68.69460

_symmetry_space_group_name_	'P 1'
_symmetry_space_group_name_H-M	'P 1'

loop_
_symmetry_equiv_pos_as_xyz
  x,y,z

loop_
_atom_site_label
_atom_site_type_symbol
_atom_site_fract_x
_atom_site_fract_y
_atom_site_fract_z
_atom_site_charge
La	La	0.23802 0.79808 0.86584 1.64100
La	La	0.94226 0.93126 0.71470 1.65900
La	La	0.90194 0.70192 0.63416 1.63600
La	La	0.58822 0.56874 0.78530 1.67700
La	La	0.76198 0.20192 0.13416 1.64000
La	La	0.05774 0.06874 0.28530 1.65800
La	La	0.09806 0.29808 0.36584 1.63600
La	La	0.41178 0.43126 0.21470 1.67700
H 	H 	0.14590 0.88110 0.98410 0.18500
H 	H 	0.05280 0.87820 0.94260 0.14600
H 	H 	0.44510 0.61440 0.96980 0.30600
H 	H 	0.51820 0.67190 0.93650 0.30600
H 	H 	0.33160 0.18550 0.54130 0.04100
H 	H 	0.54650 0.13480 0.57380 0.07600
H 	H 	0.24720 0.16230 0.76610 0.05600
H 	H 	0.01110 0.61890 0.51590 0.19000
H 	H 	0.87360 0.62180 0.55740 0.14800
H 	H 	0.02930 0.88560 0.53020 0.30900
H 	H 	0.12660 0.82810 0.56350 0.30600
H 	H 	0.05840 0.31450 0.95870 0.04000
H 	H 	0.25510 0.36520 0.92620 0.07600
H 	H 	0.17560 0.33770 0.73390 0.05800
H 	H 	0.85410 0.11890 0.01590 0.18500
H 	H 	0.94720 0.12180 0.05740 0.14600
H 	H 	0.55490 0.38560 0.03020 0.30600
H 	H 	0.48180 0.32810 0.06350 0.30600
H 	H 	0.66840 0.81450 0.45870 0.04100
H 	H 	0.45350 0.86520 0.42620 0.07600
H 	H 	0.75280 0.83770 0.23390 0.05600
H 	H 	0.98890 0.38110 0.48410 0.19000
H 	H 	0.12640 0.37820 0.44260 0.14800
H 	H 	0.97070 0.11440 0.46980 0.30900
H 	H 	0.87340 0.17190 0.43650 0.30600
H 	H 	0.94160 0.68550 0.04130 0.04000
H 	H 	0.74490 0.63480 0.07380 0.07600
H 	H 	0.82440 0.66230 0.26610 0.05800
C 	C 	0.29970 0.04700 0.58280 -0.10900
C 	C 	0.37120 0.11650 0.56610 0.02400
C 	C 	0.50070 0.08610 0.58530 -0.04800
C 	C 	0.56250 0.98350 0.62170 -0.03500
C 	C 	0.49180 0.91220 0.64020 -0.08000
C 	C 	0.35890 0.94380 0.62140 -0.02400
C 	C 	0.16330 0.08370 0.55650 0.41300
C 	C 	0.28640 0.86440 0.64080 0.32600
C 	C 	0.54310 0.80030 0.68190 0.37000
C 	C 	0.70380 0.95520 0.64020 0.31000
C 	C 	0.15580 0.19750 0.76090 -0.01300
C 	C 	0.06480 0.14370 0.77510 -0.06300
C 	C 	0.92940 0.19690 0.76390 -0.02900
C 	C 	0.11480 0.02780 0.80140 0.32000
C 	C 	0.82280 0.13990 0.78670 0.34300
C 	C 	0.92950 0.45300 0.91720 -0.10500
C 	C 	0.05380 0.38350 0.93390 0.02500
C 	C 	0.17210 0.41390 0.91470 -0.04800
C 	C 	0.16770 0.51650 0.87830 -0.03800
C 	C 	0.04420 0.58780 0.85980 -0.07300
C 	C 	0.92410 0.55620 0.87860 -0.03800
C 	C 	0.80350 0.41630 0.94350 0.40800
C 	C 	0.79160 0.63560 0.85920 0.32900
C 	C 	0.02530 0.69970 0.81810 0.37900
C 	C 	0.29920 0.54480 0.85980 0.32100
C 	C 	0.11420 0.30250 0.73910 -0.02000
C 	C 	0.98360 0.35630 0.72490 -0.05500
C 	C 	0.89020 0.30310 0.73610 -0.03800
C 	C 	0.94400 0.47220 0.69860 0.33300
C 	C 	0.74940 0.36010 0.71330 0.34600
C 	C 	0.70030 0.95300 0.41720 -0.10900
C 	C 	0.62880 0.88350 0.43390 0.02400
C 	C 	0.49930 0.91390 0.41470 -0.04800
C 	C 	0.43750 0.01650 0.37830 -0.03500
C 	C 	0.50820 0.08780 0.35980 -0.08000
C 	C 	0.64110 0.05620 0.37860 -0.02400
C 	C 	0.83670 0.91630 0.44350 0.41300
C 	C 	0.71360 0.13560 0.35920 0.32600
C 	C 	0.45690 0.19970 0.31810 0.37000
C 	C 	0.29620 0.04480 0.35980 0.31000
C 	C 	0.84420 0.80250 0.23910 -0.01300
C 	C 	0.93520 0.85630 0.22490 -0.06300
C 	C 	0.07060 0.80310 0.23610 -0.02900
C 	C 	0.88520 0.97220 0.19860 0.32000
C 	C 	0.17720 0.86010 0.21330 0.34300
C 	C 	0.07050 0.54700 0.08280 -0.10500
C 	C 	0.94620 0.61650 0.06610 0.02500
C 	C 	0.82790 0.58610 0.08530 -0.04800
C 	C 	0.83230 0.48350 0.12170 -0.03800
C 	C 	0.95580 0.41220 0.14020 -0.07300
C 	C 	0.07590 0.44380 0.12140 -0.03800
C 	C 	0.19650 0.58370 0.05650 0.40800
C 	C 	0.20840 0.36440 0.14080 0.32900
C 	C 	0.97470 0.30030 0.18190 0.37900
C 	C 	0.70080 0.45520 0.14020 0.32100
C 	C 	0.88580 0.69750 0.26090 -0.02000
C 	C 	0.01640 0.64370 0.27510 -0.05500
C 	C 	0.10980 0.69690 0.26390 -0.03800
C 	C 	0.05600 0.52780 0.30140 0.33300
C 	C 	0.25060 0.63990 0.28670 0.34600
O 	O 	0.07770 0.03280 0.59060 -0.42900
O 	O 	0.14120 0.16540 0.49920 -0.43000
O 	O 	0.19850 0.85200 0.71120 -0.46700
O 	O 	0.31560 0.81430 0.58870 -0.29200
O 	O 	0.46990 0.76710 0.75510 -0.47700
O 	O 	0.64310 0.73980 0.64660 -0.46100
O 	O 	0.75870 0.86470 0.68030 -0.44900
O 	O 	0.76330 0.02310 0.61730 -0.35900
O 	O 	0.23840 0.98570 0.80790 -0.38900
O 	O 	0.03180 0.97560 0.81640 -0.45000
O 	O 	0.81720 0.10160 0.73380 -0.39100
O 	O 	0.74630 0.13750 0.85870 -0.26000
O 	O 	0.06570 0.87590 0.99010 -0.49100
O 	O 	0.47280 0.64800 0.91900 -0.77600
O 	O 	0.70110 0.46720 0.90940 -0.42300
O 	O 	0.80580 0.33460 0.00080 -0.42400
O 	O 	0.76170 0.64800 0.78880 -0.47200
O 	O 	0.71860 0.68570 0.91130 -0.29700
O 	O 	0.99210 0.73290 0.74490 -0.48600
O 	O 	0.02950 0.76020 0.85340 -0.46000
O 	O 	0.30370 0.63530 0.81970 -0.45100
O 	O 	0.40370 0.47690 0.88270 -0.36900
O 	O 	0.03200 0.51430 0.69210 -0.39400
O 	O 	0.82380 0.52440 0.68360 -0.46200
O 	O 	0.65260 0.39840 0.76620 -0.39700
O 	O 	0.74250 0.36250 0.64130 -0.26100
O 	O 	0.93170 0.62410 0.50990 -0.50000
O 	O 	0.03980 0.85200 0.58100 -0.76900
O 	O 	0.92230 0.96720 0.40940 -0.42900
O 	O 	0.85880 0.83460 0.50080 -0.43000
O 	O 	0.80150 0.14800 0.28880 -0.46700
O 	O 	0.68440 0.18570 0.41130 -0.29200
O 	O 	0.53010 0.23290 0.24490 -0.47700
O 	O 	0.35690 0.26020 0.35340 -0.46100
O 	O 	0.24130 0.13530 0.31970 -0.44900
O 	O 	0.23670 0.97690 0.38270 -0.35900
O 	O 	0.76160 0.01430 0.19210 -0.38900
O 	O 	0.96820 0.02440 0.18360 -0.45000
O 	O 	0.18280 0.89840 0.26620 -0.39100
O 	O 	0.25370 0.86250 0.14130 -0.26000
O 	O 	0.93430 0.12410 0.00990 -0.49100
O 	O 	0.52720 0.35200 0.08100 -0.77600
O 	O 	0.29890 0.53280 0.09060 -0.42300
O 	O 	0.19420 0.66540 0.99920 -0.42400
O 	O 	0.23830 0.35200 0.21120 -0.47200
O 	O 	0.28140 0.31430 0.08870 -0.29700
O 	O 	0.00790 0.26710 0.25510 -0.48600
O 	O 	0.97050 0.23980 0.14660 -0.46000
O 	O 	0.69630 0.36470 0.18030 -0.45100
O 	O 	0.59630 0.52310 0.11730 -0.36900
O 	O 	0.96800 0.48570 0.30790 -0.39400
O 	O 	0.17620 0.47560 0.31640 -0.46200
O 	O 	0.34740 0.60160 0.23380 -0.39700
O 	O 	0.25750 0.63750 0.35870 -0.26100
O 	O 	0.06830 0.37590 0.49010 -0.50000
O 	O 	0.96020 0.14800 0.41900 -0.76900
