data_crystal

_cell_length_a 12.04200
_cell_length_b 13.96700
_cell_length_c 22.75400
_cell_angle_alpha 95.80200
_cell_angle_beta  105.21100
_cell_angle_gamma 104.11800

_symmetry_space_group_name_	'P 1'
_symmetry_space_group_name_H-M	'P 1'

loop_
_symmetry_equiv_pos_as_xyz
  x,y,z

loop_
_atom_site_label
_atom_site_type_symbol
_atom_site_fract_x
_atom_site_fract_y
_atom_site_fract_z
_atom_site_charge
Ag	Ag	0.68585 0.92480 0.05973 0.50100
Ag	Ag	0.52685 0.34810 0.19687 0.50800
Ag	Ag	0.18678 0.67053 0.56619 0.45200
Ag	Ag	0.10218 0.38211 0.32532 0.50700
Ag	Ag	0.65217 0.16240 0.49887 0.46600
Ag	Ag	0.64428 0.51387 0.35417 0.48300
Ag	Ag	0.98504 0.55929 0.41801 0.47000
Ag	Ag	0.31415 0.07520 0.94027 0.50100
Ag	Ag	0.47315 0.65190 0.80313 0.50700
Ag	Ag	0.81322 0.32947 0.43381 0.45100
Ag	Ag	0.89782 0.61789 0.67468 0.50600
Ag	Ag	0.34783 0.83760 0.50113 0.46500
Ag	Ag	0.35572 0.48613 0.64583 0.48200
Ag	Ag	0.01496 0.44071 0.58199 0.46900
H 	H 	0.76030 0.86680 0.41200 0.06400
H 	H 	0.67570 0.99660 0.41510 -0.04000
H 	H 	0.95330 0.97500 0.58710 0.07500
H 	H 	0.86090 0.10070 0.58740 -0.03500
H 	H 	0.06010 0.34890 0.19320 0.03500
H 	H 	0.85760 0.02990 0.19200 -0.01900
H 	H 	0.49960 0.45210 0.55930 0.06200
H 	H 	0.64210 0.12900 0.07100 -0.02500
H 	H 	0.63300 0.36320 0.55980 -0.03500
H 	H 	0.20270 0.44150 0.00650 0.00300
H 	H 	0.33210 0.59090 0.01540 0.06900
H 	H 	0.90510 0.17150 0.26480 0.04600
H 	H 	0.15520 0.13000 0.06360 0.00000
H 	H 	0.68590 0.27560 0.13810 0.05700
H 	H 	0.27030 0.25810 0.41200 0.05800
H 	H 	0.29270 0.20510 0.15610 0.03900
H 	H 	0.29700 0.32220 0.87170 -0.01000
H 	H 	0.43120 0.47310 0.87400 0.04000
H 	H 	0.92510 0.26470 0.10080 0.01500
H 	H 	0.40290 0.16610 0.41930 -0.02700
H 	H 	0.23970 0.13320 0.58800 0.06400
H 	H 	0.32430 0.00340 0.58490 -0.04000
H 	H 	0.04670 0.02500 0.41290 0.07500
H 	H 	0.13910 0.89930 0.41260 -0.03500
H 	H 	0.93990 0.65110 0.80680 0.03500
H 	H 	0.14240 0.97010 0.80800 -0.01900
H 	H 	0.50040 0.54790 0.44070 0.06200
H 	H 	0.35790 0.87100 0.92900 -0.02500
H 	H 	0.36700 0.63680 0.44020 -0.03500
H 	H 	0.79730 0.55850 0.99350 0.00300
H 	H 	0.66790 0.40910 0.98460 0.06900
H 	H 	0.09490 0.82850 0.73520 0.04600
H 	H 	0.84480 0.87000 0.93640 0.00000
H 	H 	0.31410 0.72440 0.86190 0.05700
H 	H 	0.72970 0.74190 0.58800 0.05800
H 	H 	0.70730 0.79490 0.84390 0.03900
H 	H 	0.70300 0.67780 0.12830 -0.01000
H 	H 	0.56880 0.52690 0.12600 0.04000
H 	H 	0.07490 0.73530 0.89920 0.01500
H 	H 	0.59710 0.83390 0.58070 -0.02700
C 	C 	0.78230 0.91390 0.44800 -0.14300
C 	C 	0.73270 0.99180 0.45050 0.06700
C 	C 	0.86710 0.90750 0.50140 0.06300
C 	C 	0.89560 0.97760 0.55140 -0.15000
C 	C 	0.84120 0.05420 0.55140 0.08500
C 	C 	0.08010 0.30390 0.16760 -0.10000
C 	C 	0.28370 0.34250 0.24270 0.08700
C 	C 	0.82150 0.08010 0.18170 0.06100
C 	C 	0.47870 0.39350 0.53050 -0.14000
C 	C 	0.69550 0.13760 0.11030 0.06600
C 	C 	0.55780 0.34030 0.53060 0.06700
C 	C 	0.24980 0.44860 0.97980 0.07900
C 	C 	0.36560 0.36100 0.48740 0.03200
C 	C 	0.19160 0.28680 0.18460 0.00100
C 	C 	0.48430 0.64830 0.95170 0.08900
C 	C 	0.28130 0.42190 0.48820 0.08900
C 	C 	0.81300 0.32630 0.25620 0.06000
C 	C 	0.32630 0.53730 0.98580 -0.12800
C 	C 	0.85150 0.16470 0.22580 -0.13100
C 	C 	0.92370 0.82400 0.49900 0.08200
C 	C 	0.39930 0.54850 0.94560 0.03400
C 	C 	0.13620 0.17320 0.09080 0.05400
C 	C 	0.72080 0.22550 0.15050 -0.13400
C 	C 	0.34200 0.27820 0.44400 -0.12200
C 	C 	0.21880 0.21870 0.14500 -0.10500
C 	C 	0.79790 0.23960 0.20930 0.02100
C 	C 	0.30480 0.37800 0.90010 0.05900
C 	C 	0.38620 0.46750 0.90170 -0.11900
C 	C 	0.00030 0.25360 0.11250 0.04700
C 	C 	0.42310 0.22540 0.44740 0.05400
C 	C 	0.21770 0.08610 0.55200 -0.14300
C 	C 	0.26730 0.00820 0.54950 0.06700
C 	C 	0.13290 0.09250 0.49860 0.06300
C 	C 	0.10440 0.02240 0.44860 -0.15000
C 	C 	0.15880 0.94580 0.44860 0.08500
C 	C 	0.91990 0.69610 0.83240 -0.10000
C 	C 	0.71630 0.65750 0.75730 0.08700
C 	C 	0.17850 0.91990 0.81830 0.06100
C 	C 	0.52130 0.60650 0.46950 -0.14000
C 	C 	0.30450 0.86240 0.88970 0.06600
C 	C 	0.44220 0.65970 0.46940 0.06700
C 	C 	0.75020 0.55140 0.02020 0.07900
C 	C 	0.63440 0.63900 0.51260 0.03200
C 	C 	0.80840 0.71320 0.81540 0.00100
C 	C 	0.51570 0.35170 0.04830 0.08900
C 	C 	0.71870 0.57810 0.51180 0.08900
C 	C 	0.18700 0.67370 0.74380 0.06000
C 	C 	0.67370 0.46270 0.01420 -0.12800
C 	C 	0.14850 0.83530 0.77420 -0.13100
C 	C 	0.07630 0.17600 0.50100 0.08200
C 	C 	0.60070 0.45150 0.05440 0.03400
C 	C 	0.86380 0.82680 0.90920 0.05400
C 	C 	0.27920 0.77450 0.84950 -0.13400
C 	C 	0.65800 0.72180 0.55600 -0.12200
C 	C 	0.78120 0.78130 0.85500 -0.10500
C 	C 	0.20210 0.76040 0.79070 0.02100
C 	C 	0.69520 0.62200 0.09990 0.05900
C 	C 	0.61380 0.53250 0.09830 -0.11900
C 	C 	0.99970 0.74640 0.88750 0.04700
C 	C 	0.57690 0.77460 0.55260 0.05400
N 	N 	0.74400 0.06490 0.12500 -0.20700
N 	N 	0.44960 0.41820 0.31110 -0.13000
N 	N 	0.40150 0.36340 0.25310 -0.16900
N 	N 	0.25860 0.37900 0.29240 -0.16200
N 	N 	0.72200 0.36910 0.25670 -0.16100
N 	N 	0.76500 0.44050 0.30670 -0.14700
N 	N 	0.18870 0.42310 0.44060 -0.14500
N 	N 	0.19660 0.52390 0.52130 -0.15900
N 	N 	0.59880 0.77740 0.93350 -0.08000
N 	N 	0.36480 0.42800 0.33510 -0.08300
N 	N 	0.87800 0.44100 0.33490 -0.15600
N 	N 	0.28570 0.48070 0.53950 -0.16200
N 	N 	0.97150 0.69640 0.46900 -0.13800
N 	N 	0.01170 0.81410 0.54890 -0.10900
N 	N 	0.02650 0.18830 0.07450 -0.13500
N 	N 	0.76190 0.06210 0.50120 -0.22000
N 	N 	0.23550 0.36930 0.93880 -0.13800
N 	N 	0.52570 0.68700 0.90710 -0.15400
N 	N 	0.53270 0.25540 0.49010 -0.22100
N 	N 	0.90910 0.37330 0.30420 -0.17000
N 	N 	0.13780 0.49040 0.46320 -0.14800
N 	N 	0.89730 0.75330 0.45120 -0.11800
N 	N 	0.52690 0.71280 0.00480 -0.11000
N 	N 	0.59840 0.79100 0.99170 -0.12400
N 	N 	0.03650 0.73380 0.52580 -0.13500
N 	N 	0.25600 0.93510 0.87500 -0.20700
N 	N 	0.55040 0.58180 0.68890 -0.13000
N 	N 	0.59850 0.63660 0.74690 -0.16900
N 	N 	0.74140 0.62100 0.70760 -0.16200
N 	N 	0.27800 0.63090 0.74330 -0.16100
N 	N 	0.23500 0.55950 0.69330 -0.14700
N 	N 	0.81130 0.57690 0.55940 -0.14500
N 	N 	0.80340 0.47610 0.47870 -0.15900
N 	N 	0.40120 0.22260 0.06650 -0.08000
N 	N 	0.63520 0.57200 0.66490 -0.08300
N 	N 	0.12200 0.55900 0.66510 -0.15600
N 	N 	0.71430 0.51930 0.46050 -0.16200
N 	N 	0.02850 0.30360 0.53100 -0.13800
N 	N 	0.98830 0.18590 0.45110 -0.10900
N 	N 	0.97350 0.81170 0.92550 -0.13500
N 	N 	0.23810 0.93790 0.49880 -0.22000
N 	N 	0.76450 0.63070 0.06120 -0.13800
N 	N 	0.47430 0.31300 0.09290 -0.15400
N 	N 	0.46730 0.74460 0.50990 -0.22100
N 	N 	0.09090 0.62670 0.69580 -0.17000
N 	N 	0.86220 0.50960 0.53680 -0.14800
N 	N 	0.10270 0.24670 0.54880 -0.11800
N 	N 	0.47310 0.28720 0.99520 -0.11000
N 	N 	0.40160 0.20900 0.00830 -0.12400
N 	N 	0.96350 0.26620 0.47420 -0.13500
