data_crystal

_cell_length_a 21.88790
_cell_length_b 7.05730
_cell_length_c 19.24140
_cell_angle_alpha 90.00000
_cell_angle_beta  122.34400
_cell_angle_gamma 90.00000

_symmetry_space_group_name_	'P 1'
_symmetry_space_group_name_H-M	'P 1'

loop_
_symmetry_equiv_pos_as_xyz
  x,y,z

loop_
_atom_site_label
_atom_site_type_symbol
_atom_site_fract_x
_atom_site_fract_y
_atom_site_fract_z
_atom_site_charge
Cd	Cd	0.23585 0.46950 0.22143 1.19300
O 	O 	0.13310 0.39170 0.08840 -0.42200
O 	O 	0.16910 0.16860 0.18100 -0.53800
O 	O 	0.31920 0.37280 0.19640 -0.48900
O 	O 	0.33960 0.08270 0.24420 -0.51400
N 	N 	0.00710 0.35900 0.94620 -0.32600
H 	H 	0.97220 0.39640 0.89870 0.15600
H 	H 	0.04270 0.43410 0.97650 0.17900
N 	N 	0.44100 0.57900 0.24900 -0.28300
H 	H 	0.40210 0.58960 0.24900 0.15100
H 	H 	0.46560 0.67780 0.25270 0.10400
N 	N 	0.44800 0.88700 0.26100 -0.28200
H 	H 	0.41160 0.87670 0.26670 0.14900
H 	H 	0.47290 0.78880 0.26550 0.10200
C 	C 	0.12460 0.23270 0.11010 0.37200
C 	C 	0.05960 0.11560 0.05230 -0.13200
C 	C 	0.00590 0.18200 0.97360 0.14400
C 	C 	0.05170 0.93560 0.07600 -0.07800
H 	H 	0.08710 0.89230 0.12800 0.03800
C 	C 	0.35710 0.23000 0.22450 0.44800
C 	C 	0.43100 0.23390 0.23580 -0.19100
C 	C 	0.46460 0.40150 0.24230 0.10700
C 	C 	0.46580 0.06100 0.24480 0.10300
Cd	Cd	0.73585 0.96950 0.22143 1.19400
O 	O 	0.63310 0.89170 0.08840 -0.42300
O 	O 	0.66910 0.66860 0.18100 -0.53800
O 	O 	0.81920 0.87280 0.19640 -0.48900
O 	O 	0.83960 0.58270 0.24420 -0.51400
N 	N 	0.50710 0.85900 0.94620 -0.32600
H 	H 	0.47220 0.89640 0.89870 0.15800
H 	H 	0.54270 0.93410 0.97650 0.18100
N 	N 	0.94100 0.07900 0.24900 -0.28000
H 	H 	0.90210 0.08960 0.24900 0.15300
H 	H 	0.96560 0.17780 0.25270 0.10400
N 	N 	0.94800 0.38700 0.26100 -0.28100
H 	H 	0.91160 0.37670 0.26670 0.14900
H 	H 	0.97290 0.28880 0.26550 0.10200
C 	C 	0.62460 0.73270 0.11010 0.37300
C 	C 	0.55960 0.61560 0.05230 -0.13700
C 	C 	0.50590 0.68200 0.97360 0.14800
C 	C 	0.55170 0.43560 0.07600 -0.07600
H 	H 	0.58710 0.39230 0.12800 0.03800
C 	C 	0.85710 0.73000 0.22450 0.44800
C 	C 	0.93100 0.73390 0.23580 -0.19000
C 	C 	0.96460 0.90150 0.24230 0.10400
C 	C 	0.96580 0.56100 0.24480 0.10000
Cd	Cd	0.76415 0.46950 0.27857 1.19400
O 	O 	0.86690 0.39170 0.41160 -0.42100
O 	O 	0.83090 0.16860 0.31900 -0.53700
O 	O 	0.68080 0.37280 0.30360 -0.48800
O 	O 	0.66040 0.08270 0.25580 -0.51200
N 	N 	0.99290 0.35900 0.55380 -0.32500
H 	H 	0.02780 0.39640 0.60130 0.15700
H 	H 	0.95730 0.43410 0.52350 0.18000
N 	N 	0.55900 0.57900 0.25100 -0.28200
H 	H 	0.59790 0.58960 0.25100 0.15200
H 	H 	0.53440 0.67780 0.24730 0.10400
N 	N 	0.55200 0.88700 0.23900 -0.28200
H 	H 	0.58840 0.87670 0.23330 0.14900
H 	H 	0.52710 0.78880 0.23450 0.10200
C 	C 	0.87540 0.23270 0.38990 0.37300
C 	C 	0.94040 0.11560 0.44770 -0.13500
C 	C 	0.99410 0.18200 0.52640 0.14800
C 	C 	0.94830 0.93560 0.42400 -0.07800
H 	H 	0.91290 0.89230 0.37200 0.03800
C 	C 	0.64290 0.23000 0.27550 0.44800
C 	C 	0.56900 0.23390 0.26420 -0.19100
C 	C 	0.53540 0.40150 0.25770 0.10700
C 	C 	0.53420 0.06100 0.25520 0.10300
Cd	Cd	0.26415 0.96950 0.27857 1.19400
O 	O 	0.36690 0.89170 0.41160 -0.42200
O 	O 	0.33090 0.66860 0.31900 -0.53800
O 	O 	0.18080 0.87280 0.30360 -0.48900
O 	O 	0.16040 0.58270 0.25580 -0.51400
N 	N 	0.49290 0.85900 0.55380 -0.32500
H 	H 	0.52780 0.89640 0.60130 0.15800
H 	H 	0.45730 0.93410 0.52350 0.18000
N 	N 	0.05900 0.07900 0.25100 -0.28100
H 	H 	0.09790 0.08960 0.25100 0.15300
H 	H 	0.03440 0.17780 0.24730 0.10400
N 	N 	0.05200 0.38700 0.23900 -0.28100
H 	H 	0.08840 0.37670 0.23330 0.14900
H 	H 	0.02710 0.28880 0.23450 0.10200
C 	C 	0.37540 0.73270 0.38990 0.37300
C 	C 	0.44040 0.61560 0.44770 -0.13600
C 	C 	0.49410 0.68200 0.52640 0.14700
C 	C 	0.44830 0.43560 0.42400 -0.07600
H 	H 	0.41290 0.39230 0.37200 0.03800
C 	C 	0.14290 0.73000 0.27550 0.44800
C 	C 	0.06900 0.73390 0.26420 -0.19100
C 	C 	0.03540 0.90150 0.25770 0.10700
C 	C 	0.03420 0.56100 0.25520 0.10200
Cd	Cd	0.76415 0.53050 0.77857 1.19400
O 	O 	0.86690 0.60830 0.91160 -0.42100
O 	O 	0.83090 0.83140 0.81900 -0.53700
O 	O 	0.68080 0.62720 0.80360 -0.48800
O 	O 	0.66040 0.91730 0.75580 -0.51300
N 	N 	0.99290 0.64100 0.05380 -0.32500
H 	H 	0.02780 0.60360 0.10130 0.15700
H 	H 	0.95730 0.56590 0.02350 0.18000
N 	N 	0.55900 0.42100 0.75100 -0.28200
H 	H 	0.59790 0.41040 0.75100 0.15200
H 	H 	0.53440 0.32220 0.74730 0.10400
N 	N 	0.55200 0.11300 0.73900 -0.28200
H 	H 	0.58840 0.12330 0.73330 0.14900
H 	H 	0.52710 0.21120 0.73450 0.10200
C 	C 	0.87540 0.76730 0.88990 0.37200
C 	C 	0.94040 0.88440 0.94770 -0.13200
C 	C 	0.99410 0.81800 0.02640 0.14400
C 	C 	0.94830 0.06440 0.92400 -0.07800
H 	H 	0.91290 0.10770 0.87200 0.03800
C 	C 	0.64290 0.77000 0.77550 0.44800
C 	C 	0.56900 0.76610 0.76420 -0.19100
C 	C 	0.53540 0.59850 0.75770 0.10700
C 	C 	0.53420 0.93900 0.75520 0.10300
Cd	Cd	0.26415 0.03050 0.77857 1.19400
O 	O 	0.36690 0.10830 0.91160 -0.42300
O 	O 	0.33090 0.33140 0.81900 -0.53800
O 	O 	0.18080 0.12720 0.80360 -0.48900
O 	O 	0.16040 0.41730 0.75580 -0.51400
N 	N 	0.49290 0.14100 0.05380 -0.32600
H 	H 	0.52780 0.10360 0.10130 0.15800
H 	H 	0.45730 0.06590 0.02350 0.18100
N 	N 	0.05900 0.92100 0.75100 -0.28000
H 	H 	0.09790 0.91040 0.75100 0.15300
H 	H 	0.03440 0.82220 0.74730 0.10400
N 	N 	0.05200 0.61300 0.73900 -0.28100
H 	H 	0.08840 0.62330 0.73330 0.14900
H 	H 	0.02710 0.71120 0.73450 0.10200
C 	C 	0.37540 0.26730 0.88990 0.37300
C 	C 	0.44040 0.38440 0.94770 -0.13700
C 	C 	0.49410 0.31800 0.02640 0.14800
C 	C 	0.44830 0.56440 0.92400 -0.07600
H 	H 	0.41290 0.60770 0.87200 0.03800
C 	C 	0.14290 0.27000 0.77550 0.44800
C 	C 	0.06900 0.26610 0.76420 -0.19000
C 	C 	0.03540 0.09850 0.75770 0.10400
C 	C 	0.03420 0.43900 0.75520 0.10000
Cd	Cd	0.23585 0.53050 0.72143 1.19400
O 	O 	0.13310 0.60830 0.58840 -0.42100
O 	O 	0.16910 0.83140 0.68100 -0.53700
O 	O 	0.31920 0.62720 0.69640 -0.48800
O 	O 	0.33960 0.91730 0.74420 -0.51200
N 	N 	0.00710 0.64100 0.44620 -0.32500
H 	H 	0.97220 0.60360 0.39870 0.15700
H 	H 	0.04270 0.56590 0.47650 0.18000
N 	N 	0.44100 0.42100 0.74900 -0.28200
H 	H 	0.40210 0.41040 0.74900 0.15200
H 	H 	0.46560 0.32220 0.75270 0.10400
N 	N 	0.44800 0.11300 0.76100 -0.28200
H 	H 	0.41160 0.12330 0.76670 0.14900
H 	H 	0.47290 0.21120 0.76550 0.10200
C 	C 	0.12460 0.76730 0.61010 0.37300
C 	C 	0.05960 0.88440 0.55230 -0.13500
C 	C 	0.00590 0.81800 0.47360 0.14800
C 	C 	0.05170 0.06440 0.57600 -0.07800
H 	H 	0.08710 0.10770 0.62800 0.03800
C 	C 	0.35710 0.77000 0.72450 0.44800
C 	C 	0.43100 0.76610 0.73580 -0.19100
C 	C 	0.46460 0.59850 0.74230 0.10700
C 	C 	0.46580 0.93900 0.74480 0.10300
Cd	Cd	0.73585 0.03050 0.72143 1.19400
O 	O 	0.63310 0.10830 0.58840 -0.42200
O 	O 	0.66910 0.33140 0.68100 -0.53800
O 	O 	0.81920 0.12720 0.69640 -0.48900
O 	O 	0.83960 0.41730 0.74420 -0.51400
N 	N 	0.50710 0.14100 0.44620 -0.32500
H 	H 	0.47220 0.10360 0.39870 0.15800
H 	H 	0.54270 0.06590 0.47650 0.18000
N 	N 	0.94100 0.92100 0.74900 -0.28100
H 	H 	0.90210 0.91040 0.74900 0.15300
H 	H 	0.96560 0.82220 0.75270 0.10400
N 	N 	0.94800 0.61300 0.76100 -0.28100
H 	H 	0.91160 0.62330 0.76670 0.14900
H 	H 	0.97290 0.71120 0.76550 0.10200
C 	C 	0.62460 0.26730 0.61010 0.37300
C 	C 	0.55960 0.38440 0.55230 -0.13600
C 	C 	0.50590 0.31800 0.47360 0.14700
C 	C 	0.55170 0.56440 0.57600 -0.07600
H 	H 	0.58710 0.60770 0.62800 0.03800
C 	C 	0.85710 0.27000 0.72450 0.44800
C 	C 	0.93100 0.26610 0.73580 -0.19100
C 	C 	0.96460 0.09850 0.74230 0.10700
C 	C 	0.96580 0.43900 0.74480 0.10200
