data_crystal

_cell_length_a 7.06880
_cell_length_b 11.46440
_cell_length_c 16.42100
_cell_angle_alpha 82.92000
_cell_angle_beta  77.57060
_cell_angle_gamma 72.04360

_symmetry_space_group_name_	'P 1'
_symmetry_space_group_name_H-M	'P 1'

loop_
_symmetry_equiv_pos_as_xyz
  x,y,z

loop_
_atom_site_label
_atom_site_type_symbol
_atom_site_fract_x
_atom_site_fract_y
_atom_site_fract_z
_atom_site_charge
Cd	Cd	0.27149 0.75069 0.77851 1.19600
Cd	Cd	0.80069 0.74931 0.72149 1.19600
Cd	Cd	0.19931 0.25069 0.27851 1.19700
Cd	Cd	0.72851 0.24931 0.22149 1.19700
H 	H 	0.56840 0.64540 0.23540 0.04400
H 	H 	0.43160 0.35460 0.76460 0.04400
H 	H 	0.00190 0.35570 0.75630 0.04500
H 	H 	0.88610 0.85570 0.25630 0.04400
H 	H 	0.52400 0.54940 0.62800 0.01500
H 	H 	0.47600 0.45060 0.37200 0.01500
H 	H 	0.44920 0.85460 0.26460 0.04600
H 	H 	0.99810 0.64430 0.24370 0.04500
H 	H 	0.19090 0.56390 0.45670 0.05500
H 	H 	0.55080 0.14540 0.73540 0.04600
H 	H 	0.29860 0.04940 0.12800 0.01500
H 	H 	0.78850 0.06390 0.95670 0.05500
H 	H 	0.21150 0.93610 0.04330 0.05500
H 	H 	0.11390 0.14430 0.74370 0.04400
H 	H 	0.70140 0.95060 0.87200 0.01500
H 	H 	0.80910 0.43610 0.54330 0.05500
C 	C 	0.51440 0.52880 0.57640 -0.00600
C 	C 	0.61960 0.97120 0.92360 -0.00800
C 	C 	0.68510 0.46220 0.52560 -0.02400
C 	C 	0.67100 0.43450 0.44750 -0.09200
C 	C 	0.61000 0.13950 0.10850 0.36800
C 	C 	0.08890 0.68750 0.24470 -0.01400
C 	C 	0.35940 0.81300 0.25820 -0.01700
C 	C 	0.56940 0.31300 0.75820 -0.01300
C 	C 	0.08200 0.00980 0.27820 0.39500
C 	C 	0.32710 0.96220 0.02560 -0.02300
C 	C 	0.15730 0.87270 0.26470 -0.08500
C 	C 	0.02110 0.81250 0.25530 -0.01500
C 	C 	0.85800 0.36050 0.39150 0.37000
C 	C 	0.91800 0.99020 0.72180 0.39500
C 	C 	0.70530 0.37270 0.76470 -0.09000
C 	C 	0.44700 0.93450 0.94750 -0.09200
C 	C 	0.37000 0.49020 0.22180 0.40300
C 	C 	0.84270 0.12730 0.73530 -0.08500
C 	C 	0.64060 0.18700 0.74180 -0.01700
C 	C 	0.39000 0.86050 0.89150 0.36800
C 	C 	0.55300 0.06550 0.05250 -0.09200
C 	C 	0.38040 0.02880 0.07640 -0.00800
C 	C 	0.48560 0.47120 0.42360 -0.00600
C 	C 	0.67290 0.03780 0.97440 -0.02300
C 	C 	0.97890 0.18750 0.74470 -0.01500
C 	C 	0.43060 0.68700 0.24180 -0.01300
C 	C 	0.31490 0.53780 0.47440 -0.02400
C 	C 	0.29470 0.62730 0.23530 -0.09000
C 	C 	0.14200 0.63950 0.60850 0.37000
C 	C 	0.32900 0.56550 0.55250 -0.09200
C 	C 	0.91110 0.31250 0.75530 -0.01400
C 	C 	0.63000 0.50980 0.77820 0.40300
O 	O 	0.75980 0.17320 0.08720 -0.41000
O 	O 	0.16210 0.66130 0.68050 -0.52400
O 	O 	0.76050 0.56330 0.76570 -0.48400
O 	O 	0.02020 0.32680 0.41280 -0.41200
O 	O 	0.91050 0.06330 0.26570 -0.48000
O 	O 	0.19570 0.05670 0.30190 -0.46700
O 	O 	0.44570 0.55670 0.80190 -0.46800
O 	O 	0.49610 0.16130 0.18050 -0.52400
O 	O 	0.80430 0.94330 0.69810 -0.46700
O 	O 	0.24020 0.82680 0.91280 -0.41000
O 	O 	0.50390 0.83870 0.81950 -0.52400
O 	O 	0.55430 0.44330 0.19810 -0.46800
O 	O 	0.97980 0.67320 0.58720 -0.41200
O 	O 	0.08950 0.93670 0.73430 -0.48000
O 	O 	0.23950 0.43670 0.23430 -0.48400
O 	O 	0.83790 0.33870 0.31950 -0.52400
