data_crystal

_cell_length_a 21.82100
_cell_length_b 7.08480
_cell_length_c 18.79800
_cell_angle_alpha 90.00000
_cell_angle_beta  121.59000
_cell_angle_gamma 90.00000

_symmetry_space_group_name_	'P 1'
_symmetry_space_group_name_H-M	'P 1'

loop_
_symmetry_equiv_pos_as_xyz
  x,y,z

loop_
_atom_site_label
_atom_site_type_symbol
_atom_site_fract_x
_atom_site_fract_y
_atom_site_fract_z
_atom_site_charge
Cd	Cd	0.23541 0.03643 0.22155 1.06700
C 	C 	0.35610 0.27550 0.22170 0.39900
C 	C 	0.43080 0.27470 0.23580 -0.15400
C 	C 	0.46560 0.44460 0.24330 -0.03500
H 	H 	0.44270 0.55830 0.23930 -0.00300
C 	C 	0.46530 0.10550 0.24240 -0.03700
H 	H 	0.44180 0.99170 0.23650 -0.00400
O 	O 	0.32044 0.12560 0.19790 -0.60800
O 	O 	0.33480 0.42740 0.23380 -0.62600
Cd	Cd	0.73541 0.53643 0.22155 1.06700
C 	C 	0.85610 0.77550 0.22170 0.40000
C 	C 	0.93080 0.77470 0.23580 -0.15700
C 	C 	0.96560 0.94460 0.24330 -0.02800
H 	H 	0.94270 0.05830 0.23930 -0.00800
C 	C 	0.96530 0.60550 0.24240 -0.03300
H 	H 	0.94180 0.49170 0.23650 -0.00700
O 	O 	0.82044 0.62560 0.19790 -0.60700
O 	O 	0.83480 0.92740 0.23380 -0.62400
Cd	Cd	0.76459 0.03643 0.27845 1.06700
C 	C 	0.64390 0.27550 0.27830 0.39900
C 	C 	0.56920 0.27470 0.26420 -0.15400
C 	C 	0.53440 0.44460 0.25670 -0.03500
H 	H 	0.55730 0.55830 0.26070 -0.00400
C 	C 	0.53470 0.10550 0.25760 -0.03600
H 	H 	0.55820 0.99170 0.26350 -0.00400
O 	O 	0.67956 0.12560 0.30210 -0.60700
O 	O 	0.66520 0.42740 0.26620 -0.62600
Cd	Cd	0.26459 0.53643 0.27845 1.06700
C 	C 	0.14390 0.77550 0.27830 0.39900
C 	C 	0.06920 0.77470 0.26420 -0.15400
C 	C 	0.03440 0.94460 0.25670 -0.03400
H 	H 	0.05730 0.05830 0.26070 -0.00600
C 	C 	0.03470 0.60550 0.25760 -0.03700
H 	H 	0.05820 0.49170 0.26350 -0.00600
O 	O 	0.17956 0.62560 0.30210 -0.60700
O 	O 	0.16520 0.92740 0.26620 -0.62400
Cd	Cd	0.76459 0.96357 0.77845 1.06700
C 	C 	0.64390 0.72450 0.77830 0.39900
C 	C 	0.56920 0.72530 0.76420 -0.15400
C 	C 	0.53440 0.55540 0.75670 -0.03500
H 	H 	0.55730 0.44170 0.76070 -0.00300
C 	C 	0.53470 0.89450 0.75760 -0.03700
H 	H 	0.55820 0.00830 0.76350 -0.00400
O 	O 	0.67956 0.87440 0.80210 -0.60800
O 	O 	0.66520 0.57260 0.76620 -0.62600
Cd	Cd	0.26459 0.46357 0.77846 1.06700
C 	C 	0.14390 0.22450 0.77830 0.40000
C 	C 	0.06920 0.22530 0.76420 -0.15700
C 	C 	0.03440 0.05540 0.75670 -0.02800
H 	H 	0.05730 0.94170 0.76070 -0.00800
C 	C 	0.03470 0.39450 0.75760 -0.03300
H 	H 	0.05820 0.50830 0.76350 -0.00700
O 	O 	0.17956 0.37440 0.80210 -0.60700
O 	O 	0.16520 0.07260 0.76620 -0.62400
Cd	Cd	0.23541 0.96357 0.72155 1.06700
C 	C 	0.35610 0.72450 0.72170 0.39900
C 	C 	0.43080 0.72530 0.73580 -0.15400
C 	C 	0.46560 0.55540 0.74330 -0.03500
H 	H 	0.44270 0.44170 0.73930 -0.00400
C 	C 	0.46530 0.89450 0.74240 -0.03600
H 	H 	0.44180 0.00830 0.73650 -0.00400
O 	O 	0.32044 0.87440 0.69790 -0.60700
O 	O 	0.33480 0.57260 0.73380 -0.62600
Cd	Cd	0.73541 0.46357 0.72155 1.06700
C 	C 	0.85610 0.22450 0.72170 0.39900
C 	C 	0.93080 0.22530 0.73580 -0.15400
C 	C 	0.96560 0.05540 0.74330 -0.03400
H 	H 	0.94270 0.94170 0.73930 -0.00600
C 	C 	0.96530 0.39450 0.74240 -0.03700
H 	H 	0.94180 0.50830 0.73650 -0.00600
O 	O 	0.82044 0.37440 0.69790 -0.60700
O 	O 	0.83480 0.07260 0.73380 -0.62400
