data_crystal

_cell_length_a 10.18400
_cell_length_b 10.34800
_cell_length_c 18.09100
_cell_angle_alpha 102.34000
_cell_angle_beta  99.19000
_cell_angle_gamma 93.95000

_symmetry_space_group_name_	'P 1'
_symmetry_space_group_name_H-M	'P 1'

loop_
_symmetry_equiv_pos_as_xyz
  x,y,z

loop_
_atom_site_label
_atom_site_type_symbol
_atom_site_fract_x
_atom_site_fract_y
_atom_site_fract_z
_atom_site_charge
Cd	Cd	0.54726 0.54683 0.81557 1.24700
O 	O 	0.31209 0.56520 0.81962 -0.35000
O 	O 	0.37106 0.48160 0.70866 -0.33100
O 	O 	0.82370 0.53880 0.83483 -0.27800
O 	O 	0.67690 0.49560 0.72659 -0.35700
O 	O 	0.11000 0.22400 0.49828 -0.21200
O 	O 	0.88840 0.01390 0.10837 -0.20200
O 	O 	0.60700 0.74243 0.90308 -0.35800
O 	O 	0.54770 0.79970 0.79355 -0.30300
O 	O 	0.52150 0.29270 0.80387 -0.30300
O 	O 	0.59450 0.43670 0.91254 -0.34400
N 	N 	0.93800 0.34800 0.51504 -0.23600
H 	H 	0.85740 0.36700 0.49510 0.12900
N 	N 	0.73970 0.16810 0.10732 -0.23900
H 	H 	0.72800 0.25190 0.12810 0.14800
C 	C 	0.28320 0.51210 0.74889 0.27100
C 	C 	0.13870 0.48180 0.71052 0.01400
C 	C 	0.10690 0.42990 0.63174 -0.13500
H 	H 	0.17480 0.41570 0.60310 0.11800
C 	C 	0.97410 0.39890 0.59552 0.16600
C 	C 	0.87350 0.42260 0.63895 -0.13800
H 	H 	0.78440 0.40220 0.61500 0.10500
C 	C 	0.90440 0.47640 0.71756 0.01500
C 	C 	0.03780 0.50420 0.75386 -0.06400
H 	H 	0.05940 0.53760 0.80680 0.08700
C 	C 	0.79530 0.50610 0.76369 0.27500
C 	C 	0.00800 0.26700 0.47180 0.22300
C 	C 	0.95730 0.23270 0.38652 -0.03400
C 	C 	0.82130 0.21560 0.35480 -0.02100
H 	H 	0.75760 0.22890 0.38650 0.05000
C 	C 	0.78170 0.17830 0.27470 -0.03800
H 	H 	0.69130 0.16770 0.25320 0.06600
C 	C 	0.87530 0.15720 0.22764 -0.02400
C 	C 	0.01160 0.17620 0.25981 -0.03100
H 	H 	0.07520 0.16420 0.22800 0.06600
C 	C 	0.05150 0.21250 0.33808 -0.02300
H 	H 	0.14220 0.22380 0.35910 0.06400
C 	C 	0.83520 0.10720 0.14253 0.21900
C 	C 	0.68700 0.13520 0.02761 0.16600
C 	C 	0.65380 0.23720 0.99125 -0.13200
H 	H 	0.66710 0.32500 0.01920 0.10900
C 	C 	0.60060 0.20750 0.91286 0.01500
C 	C 	0.57970 0.07550 0.87099 -0.05700
H 	H 	0.54460 0.05580 0.81870 0.08600
C 	C 	0.61160 0.97320 0.90760 0.00700
C 	C 	0.66420 0.00400 0.98617 -0.12400
H 	H 	0.68410 0.93590 0.01100 0.11900
C 	C 	0.58780 0.82960 0.86465 0.28200
C 	C 	0.56910 0.31920 0.87311 0.28400
Cd	Cd	0.45274 0.45317 0.18443 1.24800
O 	O 	0.68791 0.43480 0.18038 -0.34900
O 	O 	0.62894 0.51840 0.29134 -0.33000
O 	O 	0.17630 0.46120 0.16517 -0.27700
O 	O 	0.32310 0.50440 0.27341 -0.35600
O 	O 	0.89000 0.77600 0.50172 -0.21100
O 	O 	0.11160 0.98610 0.89163 -0.20200
O 	O 	0.39300 0.25757 0.09692 -0.35800
O 	O 	0.45230 0.20030 0.20645 -0.30300
O 	O 	0.47850 0.70730 0.19613 -0.30300
O 	O 	0.40550 0.56330 0.08746 -0.34400
N 	N 	0.06200 0.65200 0.48496 -0.23600
H 	H 	0.14260 0.63300 0.50490 0.12900
N 	N 	0.26030 0.83190 0.89268 -0.23900
H 	H 	0.27200 0.74810 0.87190 0.14800
C 	C 	0.71680 0.48790 0.25111 0.27100
C 	C 	0.86130 0.51820 0.28948 0.01400
C 	C 	0.89310 0.57010 0.36826 -0.13500
H 	H 	0.82520 0.58430 0.39690 0.11800
C 	C 	0.02590 0.60110 0.40448 0.16600
C 	C 	0.12650 0.57740 0.36105 -0.13800
H 	H 	0.21560 0.59780 0.38500 0.10500
C 	C 	0.09560 0.52360 0.28244 0.01500
C 	C 	0.96220 0.49580 0.24614 -0.06400
H 	H 	0.94060 0.46240 0.19320 0.08700
C 	C 	0.20470 0.49390 0.23631 0.27500
C 	C 	0.99200 0.73300 0.52820 0.22300
C 	C 	0.04270 0.76730 0.61348 -0.03400
C 	C 	0.17870 0.78440 0.64520 -0.02100
H 	H 	0.24240 0.77110 0.61350 0.05000
C 	C 	0.21830 0.82170 0.72530 -0.03800
H 	H 	0.30870 0.83230 0.74680 0.06600
C 	C 	0.12470 0.84280 0.77236 -0.02400
C 	C 	0.98840 0.82380 0.74019 -0.03100
H 	H 	0.92480 0.83580 0.77200 0.06600
C 	C 	0.94850 0.78750 0.66192 -0.02300
H 	H 	0.85780 0.77620 0.64090 0.06400
C 	C 	0.16480 0.89280 0.85747 0.21900
C 	C 	0.31300 0.86480 0.97239 0.16600
C 	C 	0.34620 0.76280 0.00875 -0.13200
H 	H 	0.33290 0.67500 0.98080 0.10900
C 	C 	0.39940 0.79250 0.08714 0.01500
C 	C 	0.42030 0.92450 0.12901 -0.05700
H 	H 	0.45540 0.94420 0.18130 0.08600
C 	C 	0.38840 0.02680 0.09240 0.00700
C 	C 	0.33580 0.99600 0.01383 -0.12400
H 	H 	0.31590 0.06410 0.98900 0.11900
C 	C 	0.41220 0.17040 0.13535 0.28200
C 	C 	0.43090 0.68080 0.12689 0.28400
