data_crystal

_cell_length_a 9.25220
_cell_length_b 9.25560
_cell_length_c 9.47810
_cell_angle_alpha 90.00000
_cell_angle_beta  118.41900
_cell_angle_gamma 90.00000

_symmetry_space_group_name_	'P 1'
_symmetry_space_group_name_H-M	'P 1'

loop_
_symmetry_equiv_pos_as_xyz
  x,y,z

loop_
_atom_site_label
_atom_site_type_symbol
_atom_site_fract_x
_atom_site_fract_y
_atom_site_fract_z
_atom_site_charge
Zn	Zn	0.27889 0.62679 0.86336 1.18900
N 	N 	0.10530 0.62680 0.93620 -0.37700
H 	H 	0.09750 0.71820 0.97010 0.11600
H 	H 	0.00530 0.60400 0.85040 0.10200
O 	O 	0.16740 0.67770 0.63690 -0.47100
N 	N 	0.63510 0.92860 0.13190 -0.27400
C 	C 	0.11720 0.80530 0.58710 0.31500
O 	O 	0.16280 0.91420 0.67010 -0.31200
C 	C 	0.98250 0.81440 0.41220 0.00400
H 	H 	0.00230 0.90150 0.36130 0.03900
C 	C 	0.50610 0.87810 0.99860 0.06600
H 	H 	0.45730 0.92670 0.89820 -0.01500
C 	C 	0.67360 0.82620 0.24840 0.12900
N 	N 	0.97690 0.68810 0.32040 -0.23800
H 	H 	0.92200 0.61250 0.32550 0.15500
N 	N 	0.45450 0.74910 0.02530 -0.26100
C 	C 	0.56470 0.71530 0.18510 -0.06800
H 	H 	0.56370 0.62960 0.23990 0.04200
C 	C 	0.14170 0.52370 0.06710 0.08200
H 	H 	0.25640 0.53830 0.15220 -0.01800
H 	H 	0.13290 0.42420 0.02540 -0.01500
C 	C 	0.81710 0.83230 0.41280 -0.23500
H 	H 	0.80610 0.75490 0.47920 0.09400
H 	H 	0.81650 0.92610 0.46260 0.10700
C 	C 	0.04790 0.67880 0.23020 0.28900
C 	C 	0.02670 0.53890 0.14060 -0.31100
H 	H 	0.91160 0.53200 0.05400 0.11400
H 	H 	0.04650 0.45730 0.21520 0.11000
O 	O 	0.12600 0.78010 0.21120 -0.26100
Zn	Zn	0.72111 0.12679 0.13664 1.18000
N 	N 	0.89470 0.12680 0.06380 -0.37500
H 	H 	0.90250 0.21820 0.02990 0.11300
H 	H 	0.99470 0.10400 0.14960 0.08900
O 	O 	0.83260 0.17770 0.36310 -0.49100
N 	N 	0.36490 0.42860 0.86810 -0.28700
C 	C 	0.88280 0.30530 0.41290 0.32600
O 	O 	0.83720 0.41420 0.32990 -0.33400
C 	C 	0.01750 0.31440 0.58780 -0.01400
H 	H 	0.99770 0.40150 0.63870 0.03400
C 	C 	0.49390 0.37810 0.00140 0.06100
H 	H 	0.54270 0.42670 0.10180 -0.02800
C 	C 	0.32640 0.32620 0.75160 0.11500
N 	N 	0.02310 0.18810 0.67960 -0.24000
H 	H 	0.07800 0.11250 0.67450 0.13900
N 	N 	0.54550 0.24910 0.97470 -0.26700
C 	C 	0.43530 0.21530 0.81490 -0.06700
H 	H 	0.43630 0.12960 0.76010 0.02800
C 	C 	0.85830 0.02370 0.93290 0.03600
H 	H 	0.74360 0.03830 0.84780 -0.01800
H 	H 	0.86710 0.92420 0.97460 0.02500
C 	C 	0.18290 0.33230 0.58720 -0.22100
H 	H 	0.19390 0.25490 0.52080 0.08300
H 	H 	0.18350 0.42610 0.53740 0.08900
C 	C 	0.95210 0.17880 0.76980 0.29800
C 	C 	0.97330 0.03890 0.85940 -0.36700
H 	H 	0.08840 0.03200 0.94600 0.11500
H 	H 	0.95350 0.95730 0.78480 0.15500
O 	O 	0.87400 0.28010 0.78880 -0.27400
