data_crystal

_cell_length_a 10.02400
_cell_length_b 18.72500
_cell_length_c 24.81300
_cell_angle_alpha 90.00000
_cell_angle_beta  90.00000
_cell_angle_gamma 90.00000

_symmetry_space_group_name_	'P 1'
_symmetry_space_group_name_H-M	'P 1'

loop_
_symmetry_equiv_pos_as_xyz
  x,y,z

loop_
_atom_site_label
_atom_site_type_symbol
_atom_site_fract_x
_atom_site_fract_y
_atom_site_fract_z
_atom_site_charge
Rh	Rh	0.30612 0.17106 0.11315 0.85700
Ag	Ag	0.37512 0.21471 0.96284 0.48100
S 	S 	0.32003 0.26256 0.05059 -0.35200
S 	S 	0.29342 0.08266 0.04771 -0.36300
S 	S 	0.53499 0.16002 0.11771 -0.30800
O 	O 	0.84550 0.22890 0.08950 -0.16100
O 	O 	0.89650 0.34430 0.09270 -0.18600
O 	O 	0.22500 0.96840 0.22820 -0.20000
O 	O 	0.12970 0.91170 0.16290 -0.23200
H 	H 	0.12780 0.87830 0.18550 0.23400
O 	O 	0.37020 0.30400 0.27590 -0.52900
O 	O 	0.58900 0.31230 0.26320 0.14800
H 	H 	0.64590 0.29440 0.24230 0.08300
N 	N 	0.09940 0.18940 0.11081 -0.29200
H 	H 	0.06050 0.16010 0.08560 0.11000
H 	H 	0.06240 0.17930 0.14390 0.14500
N 	N 	0.27700 0.08750 0.16821 -0.28600
H 	H 	0.35830 0.07270 0.18130 0.11800
H 	H 	0.22730 0.10380 0.19680 0.11500
N 	N 	0.32790 0.24300 0.17712 -0.29000
H 	H 	0.32680 0.28890 0.16380 0.10700
H 	H 	0.25680 0.23810 0.20030 0.13600
C 	C 	0.14270 0.28090 0.04360 -0.04700
H 	H 	0.12890 0.33160 0.03370 0.04800
H 	H 	0.10430 0.25070 0.01470 0.01700
C 	C 	0.07420 0.26490 0.09680 -0.10500
H 	H 	0.11290 0.29620 0.12540 0.07200
C 	C 	0.92530 0.27980 0.09210 0.33700
C 	C 	0.28560 0.00560 0.09357 -0.03600
H 	H 	0.24090 0.96500 0.07550 0.02800
H 	H 	0.37690 0.99060 0.10380 0.00900
C 	C 	0.20860 0.02710 0.14300 -0.11900
H 	H 	0.11630 0.04180 0.13240 0.07600
C 	C 	0.20090 0.96460 0.18210 0.40300
C 	C 	0.56720 0.22930 0.16790 -0.05600
H 	H 	0.65130 0.21880 0.18730 0.07800
H 	H 	0.57670 0.27620 0.14990 0.02800
C 	C 	0.45270 0.23150 0.20720 -0.12800
H 	H 	0.44670 0.18330 0.22440 0.07800
C 	C 	0.46990 0.28570 0.25210 0.40400
O 	O 	0.84050 0.24110 0.10130 -0.13500
O 	O 	0.90520 0.35010 0.07650 -0.19400
H 	H 	0.82300 0.35820 0.07400 0.19500
O 	O 	0.29310 0.95480 0.21640 -0.12100
O 	O 	0.10920 0.92410 0.17610 -0.19900
O 	O 	0.36840 0.32490 0.26090 0.17400
H 	H 	0.38520 0.35340 0.28610 0.08400
O 	O 	0.57580 0.29180 0.27700 -0.50700
Rh	Rh	0.80612 0.67106 0.61315 0.86100
Ag	Ag	0.87512 0.71471 0.46284 0.47600
S 	S 	0.82003 0.76256 0.55059 -0.33000
S 	S 	0.79342 0.58266 0.54771 -0.34300
S 	S 	0.03499 0.66002 0.61771 -0.31900
O 	O 	0.34550 0.72890 0.58950 -0.15800
O 	O 	0.39650 0.84430 0.59270 -0.18600
O 	O 	0.72500 0.46840 0.72820 -0.19600
O 	O 	0.62970 0.41170 0.66290 -0.22700
H 	H 	0.62780 0.37830 0.68550 0.23200
O 	O 	0.87020 0.80400 0.77590 -0.52700
O 	O 	0.08900 0.81230 0.76320 0.12800
H 	H 	0.14590 0.79440 0.74230 0.08700
N 	N 	0.59940 0.68940 0.61081 -0.29800
H 	H 	0.56050 0.66010 0.58560 0.11700
H 	H 	0.56240 0.67930 0.64390 0.15000
N 	N 	0.77700 0.58750 0.66821 -0.28800
H 	H 	0.85830 0.57270 0.68130 0.12200
H 	H 	0.72730 0.60380 0.69680 0.11700
N 	N 	0.82790 0.74300 0.67712 -0.29100
H 	H 	0.82680 0.78890 0.66380 0.11000
H 	H 	0.75680 0.73810 0.70030 0.13700
C 	C 	0.64270 0.78090 0.54360 -0.06500
H 	H 	0.62890 0.83160 0.53370 0.06200
H 	H 	0.60430 0.75070 0.51470 0.03300
C 	C 	0.57420 0.76490 0.59680 -0.08200
H 	H 	0.61290 0.79620 0.62540 0.06900
C 	C 	0.42530 0.77980 0.59210 0.32100
C 	C 	0.78560 0.50560 0.59357 -0.04300
H 	H 	0.74090 0.46500 0.57550 0.03500
H 	H 	0.87690 0.49060 0.60380 0.01500
C 	C 	0.70860 0.52710 0.64300 -0.11500
H 	H 	0.61630 0.54180 0.63240 0.07900
C 	C 	0.70090 0.46460 0.68210 0.40100
C 	C 	0.06720 0.72930 0.66790 -0.07100
H 	H 	0.15130 0.71880 0.68730 0.08000
H 	H 	0.07670 0.77620 0.64990 0.02800
C 	C 	0.95270 0.73150 0.70720 -0.11800
H 	H 	0.94670 0.68330 0.72440 0.07900
C 	C 	0.96990 0.78570 0.75210 0.42000
O 	O 	0.34050 0.74110 0.60130 -0.13400
O 	O 	0.40520 0.85010 0.57650 -0.19300
H 	H 	0.32300 0.85820 0.57400 0.19600
O 	O 	0.79310 0.45480 0.71640 -0.11800
O 	O 	0.60920 0.42410 0.67610 -0.19700
O 	O 	0.86840 0.82490 0.76090 0.16900
H 	H 	0.88520 0.85340 0.78610 0.09000
O 	O 	0.07580 0.79180 0.77700 -0.50300
Rh	Rh	0.69388 0.82894 0.11315 0.85800
Ag	Ag	0.62488 0.78529 0.96284 0.48200
S 	S 	0.67997 0.73744 0.05059 -0.34700
S 	S 	0.70658 0.91734 0.04771 -0.35800
S 	S 	0.46501 0.83998 0.11771 -0.31000
O 	O 	0.15450 0.77110 0.08950 -0.15100
O 	O 	0.10350 0.65570 0.09270 -0.20000
O 	O 	0.77500 0.03160 0.22820 -0.19300
O 	O 	0.87030 0.08830 0.16290 -0.22200
H 	H 	0.87220 0.12170 0.18550 0.23100
O 	O 	0.62980 0.69600 0.27590 -0.52200
O 	O 	0.41100 0.68770 0.26320 0.14700
H 	H 	0.35410 0.70560 0.24230 0.08300
N 	N 	0.90060 0.81060 0.11081 -0.30000
H 	H 	0.93950 0.83990 0.08560 0.11900
H 	H 	0.93760 0.82070 0.14390 0.15500
N 	N 	0.72300 0.91250 0.16821 -0.28700
H 	H 	0.64170 0.92730 0.18130 0.11800
H 	H 	0.77270 0.89620 0.19680 0.11700
N 	N 	0.67210 0.75700 0.17712 -0.29100
H 	H 	0.67320 0.71110 0.16380 0.10900
H 	H 	0.74320 0.76190 0.20030 0.13800
C 	C 	0.85730 0.71910 0.04360 -0.06400
H 	H 	0.87110 0.66840 0.03370 0.06000
H 	H 	0.89570 0.74930 0.01470 0.03000
C 	C 	0.92580 0.73510 0.09680 -0.06900
H 	H 	0.88710 0.70380 0.12540 0.06800
C 	C 	0.07470 0.72020 0.09210 0.30800
C 	C 	0.71440 0.99440 0.09357 -0.03700
H 	H 	0.75910 0.03500 0.07550 0.03200
H 	H 	0.62310 0.00940 0.10380 0.00900
C 	C 	0.79140 0.97290 0.14300 -0.11800
H 	H 	0.88370 0.95820 0.13240 0.08300
C 	C 	0.79910 0.03540 0.18210 0.40200
C 	C 	0.43280 0.77070 0.16790 -0.05600
H 	H 	0.34870 0.78120 0.18730 0.07700
H 	H 	0.42330 0.72380 0.14990 0.02800
C 	C 	0.54730 0.76850 0.20720 -0.12800
H 	H 	0.55330 0.81670 0.22440 0.07800
C 	C 	0.53010 0.71430 0.25210 0.40300
O 	O 	0.15950 0.75890 0.10130 -0.14300
O 	O 	0.09480 0.64990 0.07650 -0.18200
H 	H 	0.17700 0.64180 0.07400 0.19200
O 	O 	0.70690 0.04520 0.21640 -0.12400
O 	O 	0.89080 0.07590 0.17610 -0.19700
O 	O 	0.63160 0.67510 0.26090 0.16900
H 	H 	0.61480 0.64660 0.28610 0.08500
O 	O 	0.42420 0.70820 0.27700 -0.50600
Rh	Rh	0.19388 0.32894 0.61315 0.85400
Ag	Ag	0.12488 0.28529 0.46284 0.46900
S 	S 	0.17997 0.23744 0.55059 -0.34600
S 	S 	0.20658 0.41734 0.54771 -0.35500
S 	S 	0.96501 0.33998 0.61771 -0.29500
O 	O 	0.65450 0.27110 0.58950 -0.15800
O 	O 	0.60350 0.15570 0.59270 -0.18800
O 	O 	0.27500 0.53160 0.72820 -0.19500
O 	O 	0.37030 0.58830 0.66290 -0.22800
H 	H 	0.37220 0.62170 0.68550 0.23200
O 	O 	0.12980 0.19600 0.77590 -0.51800
O 	O 	0.91100 0.18770 0.76320 0.16500
H 	H 	0.85410 0.20560 0.74230 0.08000
N 	N 	0.40060 0.31060 0.61081 -0.29700
H 	H 	0.43950 0.33990 0.58560 0.11700
H 	H 	0.43760 0.32070 0.64390 0.15000
N 	N 	0.22300 0.41250 0.66821 -0.28600
H 	H 	0.14170 0.42730 0.68130 0.11500
H 	H 	0.27270 0.39620 0.69680 0.11600
N 	N 	0.17210 0.25700 0.67712 -0.29000
H 	H 	0.17320 0.21110 0.66380 0.10600
H 	H 	0.24320 0.26190 0.70030 0.13700
C 	C 	0.35730 0.21910 0.54360 -0.06000
H 	H 	0.37110 0.16840 0.53370 0.05900
H 	H 	0.39570 0.24930 0.51470 0.03200
C 	C 	0.42580 0.23510 0.59680 -0.08400
H 	H 	0.38710 0.20380 0.62540 0.06900
C 	C 	0.57470 0.22020 0.59210 0.32300
C 	C 	0.21440 0.49440 0.59357 -0.03700
H 	H 	0.25910 0.53500 0.57550 0.03300
H 	H 	0.12310 0.50940 0.60380 0.00700
C 	C 	0.29140 0.47290 0.64300 -0.11900
H 	H 	0.38370 0.45820 0.63240 0.08000
C 	C 	0.29910 0.53540 0.68210 0.40300
C 	C 	0.93280 0.27070 0.66790 -0.04400
H 	H 	0.84870 0.28120 0.68730 0.07600
H 	H 	0.92330 0.22380 0.64990 0.02900
C 	C 	0.04730 0.26850 0.70720 -0.13700
H 	H 	0.05330 0.31670 0.72440 0.07600
C 	C 	0.03010 0.21430 0.75210 0.38600
O 	O 	0.65950 0.25890 0.60130 -0.13400
O 	O 	0.59480 0.14990 0.57650 -0.19200
H 	H 	0.67700 0.14180 0.57400 0.19800
O 	O 	0.20690 0.54520 0.71640 -0.12700
O 	O 	0.39080 0.57590 0.67610 -0.19700
O 	O 	0.13160 0.17510 0.76090 0.17000
H 	H 	0.11480 0.14660 0.78610 0.08000
O 	O 	0.92420 0.20820 0.77700 -0.50800
Rh	Rh	0.69388 0.17106 0.88685 0.85700
Ag	Ag	0.62488 0.21471 0.03716 0.46500
S 	S 	0.67997 0.26256 0.94941 -0.32400
S 	S 	0.70658 0.08266 0.95229 -0.33400
S 	S 	0.46501 0.16002 0.88229 -0.30500
O 	O 	0.15450 0.22890 0.91050 -0.15500
O 	O 	0.10350 0.34430 0.90730 -0.18800
O 	O 	0.77500 0.96840 0.77180 -0.19300
O 	O 	0.87030 0.91170 0.83710 -0.22300
H 	H 	0.87220 0.87830 0.81450 0.23100
O 	O 	0.62980 0.30400 0.72410 -0.51700
O 	O 	0.41100 0.31230 0.73680 0.14500
H 	H 	0.35410 0.29440 0.75770 0.08400
N 	N 	0.90060 0.18940 0.88919 -0.30200
H 	H 	0.93950 0.16010 0.91440 0.12400
H 	H 	0.93760 0.17930 0.85610 0.15500
N 	N 	0.72300 0.08750 0.83179 -0.28700
H 	H 	0.64170 0.07270 0.81870 0.11800
H 	H 	0.77270 0.10380 0.80320 0.11700
N 	N 	0.67210 0.24300 0.82288 -0.29100
H 	H 	0.67320 0.28890 0.83620 0.11000
H 	H 	0.74320 0.23810 0.79970 0.13800
C 	C 	0.85730 0.28090 0.95640 -0.07900
H 	H 	0.87110 0.33160 0.96630 0.07400
H 	H 	0.89570 0.25070 0.98530 0.04800
C 	C 	0.92580 0.26490 0.90320 -0.06100
H 	H 	0.88710 0.29620 0.87460 0.06600
C 	C 	0.07470 0.27980 0.90790 0.30700
C 	C 	0.71440 0.00560 0.90643 -0.04500
H 	H 	0.75910 0.96500 0.92450 0.04100
H 	H 	0.62310 0.99060 0.89620 0.01300
C 	C 	0.79140 0.02710 0.85700 -0.11500
H 	H 	0.88370 0.04180 0.86760 0.08300
C 	C 	0.79910 0.96460 0.81790 0.40100
C 	C 	0.43280 0.22930 0.83210 -0.05900
H 	H 	0.34870 0.21880 0.81270 0.07800
H 	H 	0.42330 0.27620 0.85010 0.02900
C 	C 	0.54730 0.23150 0.79280 -0.12600
H 	H 	0.55330 0.18330 0.77560 0.07700
C 	C 	0.53010 0.28570 0.74790 0.40300
O 	O 	0.15950 0.24110 0.89870 -0.13300
O 	O 	0.09480 0.35010 0.92350 -0.19100
H 	H 	0.17700 0.35820 0.92600 0.19900
O 	O 	0.70690 0.95480 0.78360 -0.12400
O 	O 	0.89080 0.92410 0.82390 -0.19500
O 	O 	0.63160 0.32490 0.73910 0.16400
H 	H 	0.61480 0.35340 0.71390 0.08700
O 	O 	0.42420 0.29180 0.72300 -0.50400
Rh	Rh	0.19388 0.67106 0.38685 0.85400
Ag	Ag	0.12488 0.71471 0.53716 0.46900
S 	S 	0.17997 0.76256 0.44941 -0.34600
S 	S 	0.20658 0.58266 0.45229 -0.35500
S 	S 	0.96501 0.66002 0.38229 -0.29500
O 	O 	0.65450 0.72890 0.41050 -0.15800
O 	O 	0.60350 0.84430 0.40730 -0.18800
O 	O 	0.27500 0.46840 0.27180 -0.19600
O 	O 	0.37030 0.41170 0.33710 -0.22900
H 	H 	0.37220 0.37830 0.31450 0.23300
O 	O 	0.12980 0.80400 0.22410 -0.51900
O 	O 	0.91100 0.81230 0.23680 0.16500
H 	H 	0.85410 0.79440 0.25770 0.08000
N 	N 	0.40060 0.68940 0.38919 -0.29700
H 	H 	0.43950 0.66010 0.41440 0.11700
H 	H 	0.43760 0.67930 0.35610 0.15000
N 	N 	0.22300 0.58750 0.33179 -0.28600
H 	H 	0.14170 0.57270 0.31870 0.11400
H 	H 	0.27270 0.60380 0.30320 0.11500
N 	N 	0.17210 0.74300 0.32288 -0.29000
H 	H 	0.17320 0.78890 0.33620 0.10600
H 	H 	0.24320 0.73810 0.29970 0.13700
C 	C 	0.35730 0.78090 0.45640 -0.06000
H 	H 	0.37110 0.83160 0.46630 0.05900
H 	H 	0.39570 0.75070 0.48530 0.03200
C 	C 	0.42580 0.76490 0.40320 -0.08400
H 	H 	0.38710 0.79620 0.37460 0.06900
C 	C 	0.57470 0.77980 0.40790 0.32300
C 	C 	0.21440 0.50560 0.40643 -0.03700
H 	H 	0.25910 0.46500 0.42450 0.03300
H 	H 	0.12310 0.49060 0.39620 0.00600
C 	C 	0.29140 0.52710 0.35700 -0.12000
H 	H 	0.38370 0.54180 0.36760 0.08000
C 	C 	0.29910 0.46460 0.31790 0.40300
C 	C 	0.93280 0.72930 0.33210 -0.04400
H 	H 	0.84870 0.71880 0.31270 0.07600
H 	H 	0.92330 0.77620 0.35010 0.02900
C 	C 	0.04730 0.73150 0.29280 -0.13700
H 	H 	0.05330 0.68330 0.27560 0.07600
C 	C 	0.03010 0.78570 0.24790 0.38600
O 	O 	0.65950 0.74110 0.39870 -0.13400
O 	O 	0.59480 0.85010 0.42350 -0.19200
H 	H 	0.67700 0.85820 0.42600 0.19800
O 	O 	0.20690 0.45480 0.28360 -0.12700
O 	O 	0.39080 0.42410 0.32390 -0.19700
O 	O 	0.13160 0.82490 0.23910 0.17000
H 	H 	0.11480 0.85340 0.21390 0.08000
O 	O 	0.92420 0.79180 0.22300 -0.50800
Rh	Rh	0.30612 0.82894 0.88685 0.85700
Ag	Ag	0.37512 0.78529 0.03716 0.46400
S 	S 	0.32003 0.73744 0.94941 -0.32800
S 	S 	0.29342 0.91734 0.95229 -0.33800
S 	S 	0.53499 0.83998 0.88229 -0.30400
O 	O 	0.84550 0.77110 0.91050 -0.16500
O 	O 	0.89650 0.65570 0.90730 -0.17300
O 	O 	0.22500 0.03160 0.77180 -0.20000
O 	O 	0.12970 0.08830 0.83710 -0.23400
H 	H 	0.12780 0.12170 0.81450 0.23400
O 	O 	0.37020 0.69600 0.72410 -0.52300
O 	O 	0.58900 0.68770 0.73680 0.14500
H 	H 	0.64590 0.70560 0.75770 0.08400
N 	N 	0.09940 0.81060 0.88919 -0.29500
H 	H 	0.06050 0.83990 0.91440 0.11400
H 	H 	0.06240 0.82070 0.85610 0.14500
N 	N 	0.27700 0.91250 0.83179 -0.28700
H 	H 	0.35830 0.92730 0.81870 0.11800
H 	H 	0.22730 0.89620 0.80320 0.11500
N 	N 	0.32790 0.75700 0.82288 -0.29000
H 	H 	0.32680 0.71110 0.83620 0.10800
H 	H 	0.25680 0.76190 0.79970 0.13600
C 	C 	0.14270 0.71910 0.95640 -0.06100
H 	H 	0.12890 0.66840 0.96630 0.06200
H 	H 	0.10430 0.74930 0.98530 0.03500
C 	C 	0.07420 0.73510 0.90320 -0.09600
H 	H 	0.11290 0.70380 0.87460 0.07000
C 	C 	0.92530 0.72020 0.90790 0.33700
C 	C 	0.28560 0.99440 0.90643 -0.04400
H 	H 	0.24090 0.03500 0.92450 0.03700
H 	H 	0.37690 0.00940 0.89620 0.01300
C 	C 	0.20860 0.97290 0.85700 -0.11700
H 	H 	0.11630 0.95820 0.86760 0.07600
C 	C 	0.20090 0.03540 0.81790 0.40200
C 	C 	0.56720 0.77070 0.83210 -0.05900
H 	H 	0.65130 0.78120 0.81270 0.07900
H 	H 	0.57670 0.72380 0.85010 0.03000
C 	C 	0.45270 0.76850 0.79280 -0.12700
H 	H 	0.44670 0.81670 0.77560 0.07700
C 	C 	0.46990 0.71430 0.74790 0.40300
O 	O 	0.84050 0.75890 0.89870 -0.12500
O 	O 	0.90520 0.64990 0.92350 -0.20300
H 	H 	0.82300 0.64180 0.92600 0.20200
O 	O 	0.29310 0.04520 0.78360 -0.12100
O 	O 	0.10920 0.07590 0.82390 -0.19700
O 	O 	0.36840 0.67510 0.73910 0.16900
H 	H 	0.38520 0.64660 0.71390 0.08500
O 	O 	0.57580 0.70820 0.72300 -0.50500
Rh	Rh	0.80612 0.32894 0.38685 0.86100
Ag	Ag	0.87512 0.28529 0.53716 0.47600
S 	S 	0.82003 0.23744 0.44941 -0.33000
S 	S 	0.79342 0.41734 0.45229 -0.34300
S 	S 	0.03499 0.33998 0.38229 -0.31900
O 	O 	0.34550 0.27110 0.41050 -0.15800
O 	O 	0.39650 0.15570 0.40730 -0.18600
O 	O 	0.72500 0.53160 0.27180 -0.19800
O 	O 	0.62970 0.58830 0.33710 -0.22700
H 	H 	0.62780 0.62170 0.31450 0.23300
O 	O 	0.87020 0.19600 0.22410 -0.52700
O 	O 	0.08900 0.18770 0.23680 0.12800
H 	H 	0.14590 0.20560 0.25770 0.08700
N 	N 	0.59940 0.31060 0.38919 -0.29800
H 	H 	0.56050 0.33990 0.41440 0.11700
H 	H 	0.56240 0.32070 0.35610 0.15000
N 	N 	0.77700 0.41250 0.33179 -0.28800
H 	H 	0.85830 0.42730 0.31870 0.12200
H 	H 	0.72730 0.39620 0.30320 0.11700
N 	N 	0.82790 0.25700 0.32288 -0.29100
H 	H 	0.82680 0.21110 0.33620 0.11000
H 	H 	0.75680 0.26190 0.29970 0.13700
C 	C 	0.64270 0.21910 0.45640 -0.06500
H 	H 	0.62890 0.16840 0.46630 0.06200
H 	H 	0.60430 0.24930 0.48530 0.03300
C 	C 	0.57420 0.23510 0.40320 -0.08200
H 	H 	0.61290 0.20380 0.37460 0.06900
C 	C 	0.42530 0.22020 0.40790 0.32100
C 	C 	0.78560 0.49440 0.40643 -0.04300
H 	H 	0.74090 0.53500 0.42450 0.03500
H 	H 	0.87690 0.50940 0.39620 0.01500
C 	C 	0.70860 0.47290 0.35700 -0.11500
H 	H 	0.61630 0.45820 0.36760 0.07900
C 	C 	0.70090 0.53540 0.31790 0.40100
C 	C 	0.06720 0.27070 0.33210 -0.07100
H 	H 	0.15130 0.28120 0.31270 0.08000
H 	H 	0.07670 0.22380 0.35010 0.02800
C 	C 	0.95270 0.26850 0.29280 -0.11800
H 	H 	0.94670 0.31670 0.27560 0.07900
C 	C 	0.96990 0.21430 0.24790 0.42000
O 	O 	0.34050 0.25890 0.39870 -0.13400
O 	O 	0.40520 0.14990 0.42350 -0.19300
H 	H 	0.32300 0.14180 0.42600 0.19600
O 	O 	0.79310 0.54520 0.28360 -0.11800
O 	O 	0.60920 0.57590 0.32390 -0.19700
O 	O 	0.86840 0.17510 0.23910 0.16900
H 	H 	0.88520 0.14660 0.21390 0.09000
O 	O 	0.07580 0.20820 0.22300 -0.50300
Ag	Ag	0.50000 0.07838 -0.00000 0.42100
Ag	Ag	-0.00000 0.57838 0.50000 0.42200
Ag	Ag	0.50000 0.92162 -0.00000 0.42100
Ag	Ag	0.00000 0.42162 0.50000 0.42200
