data_crystal

_cell_length_a 9.83350
_cell_length_b 11.27270
_cell_length_c 14.42490
_cell_angle_alpha 91.24200
_cell_angle_beta  90.00000
_cell_angle_gamma 90.00000

_symmetry_space_group_name_	'P 1'
_symmetry_space_group_name_H-M	'P 1'

loop_
_symmetry_equiv_pos_as_xyz
  x,y,z

loop_
_atom_site_label
_atom_site_type_symbol
_atom_site_fract_x
_atom_site_fract_y
_atom_site_fract_z
_atom_site_charge
Co	Co	0.91933 0.75532 0.63285 1.23800
Co	Co	0.60929 0.76008 0.68877 1.21100
Co	Co	0.41933 0.74468 0.86715 1.20200
Co	Co	0.10929 0.73992 0.81123 1.18900
Co	Co	0.08067 0.24468 0.36715 1.15100
Co	Co	0.39071 0.23992 0.31123 1.20200
Co	Co	0.58067 0.25532 0.13285 1.18700
Co	Co	0.89071 0.26008 0.18877 1.22400
Co	Co	-0.00000 0.50000 0.50000 1.17200
Co	Co	0.50000 0.00000 -0.00000 1.13800
Co	Co	-0.00000 0.00000 0.50000 1.14100
Co	Co	0.50000 0.50000 -0.00000 1.16300
H 	H 	0.16400 0.70100 0.43200 -0.11800
H 	H 	0.71400 0.98900 0.50400 -0.05800
H 	H 	0.75800 0.85900 0.86500 -0.10900
H 	H 	0.62300 0.55400 0.54100 -0.11800
H 	H 	0.18900 0.98200 0.74400 -0.08500
H 	H 	0.03900 0.48400 0.75800 -0.16000
H 	H 	0.66400 0.79900 0.06800 -0.05600
H 	H 	0.21400 0.51100 0.99600 -0.06400
H 	H 	0.25800 0.64100 0.63500 -0.14200
H 	H 	0.12300 0.94600 0.95900 -0.16700
H 	H 	0.68900 0.51800 0.75600 -0.05200
H 	H 	0.53900 0.01600 0.74200 -0.43800
H 	H 	0.83600 0.29900 0.56800 -0.10400
H 	H 	0.28600 0.01100 0.49600 -0.11200
H 	H 	0.24200 0.14100 0.13500 -0.17400
H 	H 	0.37700 0.44600 0.45900 -0.12200
H 	H 	0.81100 0.01800 0.25600 -0.05500
H 	H 	0.96100 0.51600 0.24200 -0.36400
H 	H 	0.33600 0.20100 0.93200 -0.17400
H 	H 	0.78600 0.48900 0.00400 -0.10800
H 	H 	0.74200 0.35900 0.36500 -0.13800
H 	H 	0.87700 0.05400 0.04100 -0.05900
H 	H 	0.31100 0.48200 0.24400 -0.08700
H 	H 	0.46100 0.98400 0.25800 -0.03400
C 	C 	0.10860 0.74240 0.47130 0.52200
C 	C 	0.72050 0.92660 0.54780 0.45400
C 	C 	0.82760 0.83220 0.83010 0.52600
C 	C 	0.71130 0.57500 0.54750 0.52400
C 	C 	0.12560 0.95590 0.68910 0.51200
C 	C 	0.01340 0.51670 0.71230 0.47000
C 	C 	0.60860 0.75760 0.02870 0.32600
C 	C 	0.22050 0.57340 0.95220 0.46600
C 	C 	0.32760 0.66780 0.66990 0.54000
C 	C 	0.21130 0.92500 0.95250 0.70000
C 	C 	0.62560 0.54410 0.81090 0.42000
C 	C 	0.51340 0.98330 0.78770 1.08300
C 	C 	0.89140 0.25760 0.52870 0.50800
C 	C 	0.27950 0.07340 0.45220 0.48200
C 	C 	0.17240 0.16780 0.16990 0.55400
C 	C 	0.28870 0.42500 0.45250 0.53000
C 	C 	0.87440 0.04410 0.31090 0.33500
C 	C 	0.98660 0.48330 0.28770 1.04100
C 	C 	0.39140 0.24240 0.97130 0.73100
C 	C 	0.77950 0.42660 0.04780 0.47200
C 	C 	0.67240 0.33220 0.33010 0.53900
C 	C 	0.78870 0.07500 0.04750 0.30200
C 	C 	0.37440 0.45590 0.18910 0.42700
C 	C 	0.48660 0.01670 0.21230 0.33000
O 	O 	0.02750 0.68500 0.52351 -0.59700
O 	O 	0.11690 0.85120 0.46780 -0.44300
O 	O 	0.84430 0.89630 0.55865 -0.48900
O 	O 	0.62130 0.88660 0.58990 -0.40000
O 	O 	0.79900 0.81050 0.74521 -0.53600
O 	O 	0.93830 0.81630 0.86798 -0.35500
O 	O 	0.74200 0.65290 0.60880 -0.54700
O 	O 	0.79170 0.51760 0.49830 -0.40600
O 	O 	0.08320 0.85030 0.69528 -0.58600
O 	O 	0.09930 0.02530 0.62600 -0.50300
O 	O 	0.00310 0.62870 0.71948 -0.59900
O 	O 	0.99800 0.45690 0.64070 -0.32400
O 	O 	0.52750 0.81500 0.97649 -0.42200
O 	O 	0.61690 0.64880 0.03220 -0.41800
O 	O 	0.34430 0.60370 0.94135 -0.51300
O 	O 	0.12130 0.61340 0.91010 -0.43400
O 	O 	0.29900 0.68950 0.75479 -0.56500
O 	O 	0.43830 0.68370 0.63202 -0.44400
O 	O 	0.24200 0.84710 0.89120 -0.60200
O 	O 	0.29170 0.98240 0.00170 -0.53500
O 	O 	0.58320 0.64970 0.80472 -0.51700
O 	O 	0.59930 0.47470 0.87400 -0.35900
O 	O 	0.50310 0.87130 0.78052 -0.69900
O 	O 	0.49800 0.04310 0.85930 -0.59100
O 	O 	0.97250 0.31500 0.47649 -0.49800
O 	O 	0.88310 0.14880 0.53220 -0.41400
O 	O 	0.15570 0.10370 0.44135 -0.58900
O 	O 	0.37870 0.11340 0.41010 -0.45100
O 	O 	0.20100 0.18950 0.25479 -0.60100
O 	O 	0.06170 0.18370 0.13202 -0.54200
O 	O 	0.25800 0.34710 0.39120 -0.58000
O 	O 	0.20830 0.48240 0.50170 -0.45600
O 	O 	0.91680 0.14970 0.30472 -0.47700
O 	O 	0.90070 0.97470 0.37400 -0.29600
O 	O 	0.99690 0.37130 0.28052 -0.65200
O 	O 	0.00200 0.54310 0.35930 -0.66100
O 	O 	0.47250 0.18500 0.02351 -0.68700
O 	O 	0.38310 0.35120 0.96780 -0.45400
O 	O 	0.65570 0.39630 0.05865 -0.57100
O 	O 	0.87870 0.38660 0.08990 -0.41700
O 	O 	0.70100 0.31050 0.24521 -0.57100
O 	O 	0.56170 0.31630 0.36798 -0.45000
O 	O 	0.75800 0.15290 0.10880 -0.51200
O 	O 	0.70830 0.01760 0.99830 -0.28000
O 	O 	0.41680 0.35030 0.19528 -0.55000
O 	O 	0.40070 0.52530 0.12600 -0.44500
O 	O 	0.49690 0.12870 0.21948 -0.52800
O 	O 	0.50200 0.95690 0.14070 -0.34800
