data_crystal

_cell_length_a 6.71800
_cell_length_b 13.50700
_cell_length_c 15.22900
_cell_angle_alpha 90.00000
_cell_angle_beta  90.00000
_cell_angle_gamma 90.00000

_symmetry_space_group_name_	'P 1'
_symmetry_space_group_name_H-M	'P 1'

loop_
_symmetry_equiv_pos_as_xyz
  x,y,z

loop_
_atom_site_label
_atom_site_type_symbol
_atom_site_fract_x
_atom_site_fract_y
_atom_site_fract_z
_atom_site_charge
Cd	Cd	0.63223 0.19377 0.46847 1.22000
Cd	Cd	0.13223 0.30623 0.53153 1.21800
Cd	Cd	0.86777 0.80623 0.96847 1.21800
Cd	Cd	0.36777 0.69377 0.03153 1.21800
H 	H 	0.37140 0.18620 0.04870 0.03300
H 	H 	0.84310 0.23820 0.20720 0.07000
H 	H 	0.15690 0.73820 0.29280 0.06800
H 	H 	0.34200 0.83920 0.75310 0.03900
H 	H 	0.65800 0.33920 0.74690 0.03900
H 	H 	0.85950 0.19260 0.06220 0.03500
H 	H 	0.87140 0.31380 0.95130 0.03500
H 	H 	0.34310 0.26180 0.79280 0.06900
H 	H 	0.12860 0.81380 0.54870 0.03600
H 	H 	0.13080 0.97920 0.51310 0.06700
H 	H 	0.64050 0.80740 0.56220 0.03400
H 	H 	0.63170 0.45910 0.85760 0.04000
H 	H 	0.62860 0.68620 0.45130 0.03600
H 	H 	0.36830 0.95910 0.64240 0.04000
H 	H 	0.86920 0.47920 0.98690 0.06400
H 	H 	0.14050 0.69260 0.43780 0.03500
H 	H 	0.15800 0.16080 0.25310 0.03800
H 	H 	0.63080 0.52080 0.48690 0.06600
H 	H 	0.13170 0.04090 0.14240 0.04000
H 	H 	0.84200 0.66080 0.24690 0.04000
H 	H 	0.65690 0.76180 0.70720 0.06900
H 	H 	0.35950 0.30740 0.93780 0.03600
H 	H 	0.36920 0.02080 0.01310 0.06300
H 	H 	0.86830 0.54090 0.35760 0.04000
C 	C 	0.85930 0.26080 0.07750 -0.02700
C 	C 	0.63350 0.56880 0.53250 -0.08700
C 	C 	0.85200 0.28800 0.16340 -0.08100
C 	C 	0.35660 0.93510 0.85490 -0.11900
C 	C 	0.35780 0.07890 0.72160 -0.10200
C 	C 	0.64260 0.61040 0.68960 0.04300
C 	C 	0.86650 0.43120 0.03250 -0.08500
C 	C 	0.14420 0.85090 0.14350 0.37200
C 	C 	0.13350 0.93120 0.46750 -0.08900
C 	C 	0.63740 0.53660 0.62160 0.03300
C 	C 	0.85780 0.42110 0.27840 -0.10300
C 	C 	0.86030 0.52060 0.29800 -0.01500
C 	C 	0.64420 0.64910 0.85650 0.37300
C 	C 	0.85960 0.64640 0.07760 0.32600
C 	C 	0.85740 0.38960 0.18960 0.04300
C 	C 	0.14800 0.78800 0.33660 -0.08000
C 	C 	0.13350 0.83330 0.48880 -0.02600
C 	C 	0.64040 0.35360 0.57760 0.32600
C 	C 	0.64340 0.43510 0.64510 -0.11800
C 	C 	0.14040 0.14640 0.42240 0.32600
C 	C 	0.35200 0.21200 0.83660 -0.08000
C 	C 	0.13740 0.96340 0.37840 0.03600
C 	C 	0.64070 0.73920 0.57750 -0.02700
C 	C 	0.36650 0.16670 0.98880 -0.02300
C 	C 	0.36030 0.97940 0.70200 -0.01700
C 	C 	0.85150 0.59270 0.23170 -0.01900
C 	C 	0.14070 0.76080 0.42250 -0.02800
C 	C 	0.35740 0.11040 0.81040 0.04200
C 	C 	0.86260 0.46340 0.12160 0.03300
C 	C 	0.85580 0.35090 0.35650 0.37300
C 	C 	0.64220 0.57890 0.77840 -0.10300
C 	C 	0.14220 0.92110 0.22160 -0.10000
C 	C 	0.35580 0.14910 0.64350 0.37200
C 	C 	0.14260 0.88960 0.31040 0.04100
C 	C 	0.63350 0.66670 0.51120 -0.02700
C 	C 	0.14850 0.09270 0.26830 -0.01700
C 	C 	0.35150 0.90730 0.76830 -0.01800
C 	C 	0.35930 0.23920 0.92250 -0.02900
C 	C 	0.86650 0.33330 0.01120 -0.02600
C 	C 	0.64800 0.71200 0.66340 -0.08100
C 	C 	0.36260 0.03660 0.87840 0.03400
C 	C 	0.85660 0.56490 0.14510 -0.11800
C 	C 	0.63970 0.47940 0.79800 -0.01600
C 	C 	0.35960 0.85360 0.92240 0.32600
C 	C 	0.64850 0.40730 0.73170 -0.01900
C 	C 	0.36650 0.06880 0.96750 -0.08500
C 	C 	0.14340 0.06490 0.35490 -0.12100
C 	C 	0.13970 0.02060 0.20200 -0.01900
O 	O 	0.72810 0.71380 0.08460 -0.46400
O 	O 	0.00830 0.14780 0.48110 -0.46000
O 	O 	0.24840 0.77380 0.14920 -0.43500
O 	O 	0.95290 0.37880 0.42320 -0.44200
O 	O 	0.25160 0.22620 0.64920 -0.43500
O 	O 	0.04710 0.87880 0.07680 -0.44300
O 	O 	0.27190 0.21380 0.41540 -0.46500
O 	O 	0.49170 0.85220 0.98110 -0.45900
O 	O 	0.74840 0.72620 0.85080 -0.43500
O 	O 	0.22810 0.78620 0.91540 -0.46400
O 	O 	0.77190 0.28620 0.58460 -0.46400
O 	O 	0.75160 0.27380 0.35080 -0.43400
O 	O 	0.99170 0.64780 0.01890 -0.45700
O 	O 	0.45290 0.12120 0.57680 -0.44200
O 	O 	0.50830 0.35220 0.51890 -0.45900
O 	O 	0.54710 0.62120 0.92320 -0.44200
