data_crystal

_cell_length_a 11.34070
_cell_length_b 9.78560
_cell_length_c 14.43340
_cell_angle_alpha 90.00000
_cell_angle_beta  91.44900
_cell_angle_gamma 90.00000

_symmetry_space_group_name_	'P 1'
_symmetry_space_group_name_H-M	'P 1'

loop_
_symmetry_equiv_pos_as_xyz
  x,y,z

loop_
_atom_site_label
_atom_site_type_symbol
_atom_site_fract_x
_atom_site_fract_y
_atom_site_fract_z
_atom_site_charge
Zn	Zn	0.24321 0.08135 0.36880 1.20300
Zn	Zn	0.24008 0.39482 0.31394 1.24900
O 	O 	0.31540 0.97350 0.47709 -0.52100
C 	C 	0.25680 0.89450 0.52960 0.57200
H 	H 	0.29900 0.84600 0.57000 -0.11800
O 	O 	0.14970 0.88730 0.53343 -0.43500
O 	O 	0.10170 0.15730 0.44056 -0.63300
C 	C 	0.06940 0.28070 0.44890 0.50400
H 	H 	0.00000 0.28900 0.48700 -0.11700
O 	O 	0.11120 0.38060 0.40887 -0.47700
O 	O 	0.18990 0.20270 0.25450 -0.60700
C 	C 	0.16900 0.17550 0.16970 0.47200
H 	H 	0.13600 0.25000 0.12900 -0.11900
O 	O 	0.18520 0.06480 0.13054 -0.55800
O 	O 	0.34610 0.25930 0.39118 -0.61200
C 	C 	0.42410 0.28960 0.45210 0.53500
H 	H 	0.43100 0.38500 0.45500 -0.11600
O 	O 	0.48160 0.21000 0.50073 -0.47900
O 	O 	0.14910 0.91890 0.30478 -0.50600
C 	C 	0.04510 0.87410 0.31130 0.40100
H 	H 	0.02400 0.80900 0.26700 -0.09800
O 	O 	0.97630 0.89910 0.37430 -0.30500
O 	O 	0.37000 0.99730 0.28065 -0.52700
C 	C 	0.48030 0.98730 0.28780 0.50400
H 	H 	0.51700 0.96600 0.23100 -0.08100
O 	O 	0.54060 0.99970 0.35956 -0.36800
Zn	Zn	0.25679 0.58135 0.13120 1.24000
Zn	Zn	0.25992 0.89482 0.18606 1.26400
O 	O 	0.18460 0.47350 0.02291 -0.74700
C 	C 	0.24320 0.39450 0.97040 0.83300
H 	H 	0.20100 0.34600 0.93000 -0.22600
O 	O 	0.35030 0.38730 0.96657 -0.50300
O 	O 	0.39830 0.65730 0.05944 -0.60200
C 	C 	0.43060 0.78070 0.05110 0.48500
H 	H 	0.50000 0.78900 0.01300 -0.10200
O 	O 	0.38880 0.88060 0.09113 -0.43600
O 	O 	0.31010 0.70270 0.24550 -0.56800
C 	C 	0.33100 0.67550 0.33030 0.46300
H 	H 	0.36400 0.75000 0.37100 -0.08000
O 	O 	0.31480 0.56480 0.36946 -0.44400
O 	O 	0.15390 0.75930 0.10882 -0.53300
C 	C 	0.07590 0.78960 0.04790 0.29900
H 	H 	0.06900 0.88500 0.04500 -0.04500
O 	O 	0.01840 0.71000 0.99927 -0.29500
O 	O 	0.35090 0.41890 0.19522 -0.59800
C 	C 	0.45490 0.37410 0.18870 0.54200
H 	H 	0.47600 0.30900 0.23300 -0.15600
O 	O 	0.52370 0.39910 0.12570 -0.49400
O 	O 	0.13000 0.49730 0.21935 -0.52800
C 	C 	0.01970 0.48730 0.21220 0.25000
H 	H 	0.98300 0.46600 0.26900 0.02800
O 	O 	0.95940 0.49970 0.14044 -0.33100
Zn	Zn	0.75679 0.91865 0.63120 1.28900
Zn	Zn	0.75992 0.60518 0.68606 1.25500
O 	O 	0.68460 0.02650 0.52291 -0.66000
C 	C 	0.74320 0.10550 0.47040 0.60000
H 	H 	0.70100 0.15400 0.43000 -0.17400
O 	O 	0.85030 0.11270 0.46657 -0.49200
O 	O 	0.89830 0.84270 0.55944 -0.53300
C 	C 	0.93060 0.71930 0.55110 0.59100
H 	H 	-0.00000 0.71100 0.51300 -0.15600
O 	O 	0.88880 0.61940 0.59113 -0.45300
O 	O 	0.81010 0.79730 0.74550 -0.52300
C 	C 	0.83100 0.82450 0.83030 0.45500
H 	H 	0.86400 0.75000 0.87100 -0.04700
O 	O 	0.81480 0.93520 0.86946 -0.33000
O 	O 	0.65390 0.74070 0.60882 -0.56100
C 	C 	0.57590 0.71040 0.54790 0.53800
H 	H 	0.56900 0.61500 0.54500 -0.11500
O 	O 	0.51840 0.79000 0.49927 -0.42300
O 	O 	0.85090 0.08110 0.69522 -0.64400
C 	C 	0.95490 0.12590 0.68870 0.65300
H 	H 	0.97600 0.19100 0.73300 -0.15700
O 	O 	0.02370 0.10090 0.62570 -0.56800
O 	O 	0.63000 0.00270 0.71935 -0.64200
C 	C 	0.51970 0.01270 0.71220 0.54100
H 	H 	0.48300 0.03400 0.76900 -0.13300
O 	O 	0.45940 0.00030 0.64044 -0.50900
Zn	Zn	0.74321 0.41865 0.86880 1.25000
Zn	Zn	0.74008 0.10518 0.81394 1.23900
O 	O 	0.81540 0.52650 0.97709 -0.45300
C 	C 	0.75680 0.60550 0.02960 0.37200
H 	H 	0.79900 0.65400 0.07000 -0.07900
O 	O 	0.64970 0.61270 0.03343 -0.45200
O 	O 	0.60170 0.34270 0.94056 -0.54300
C 	C 	0.56940 0.21930 0.94890 0.48800
H 	H 	0.50000 0.21100 0.98700 -0.06800
O 	O 	0.61120 0.11940 0.90887 -0.46400
O 	O 	0.68990 0.29730 0.75450 -0.56000
C 	C 	0.66900 0.32450 0.66970 0.46400
H 	H 	0.63600 0.25000 0.62900 -0.08000
O 	O 	0.68520 0.43520 0.63054 -0.43700
O 	O 	0.84610 0.24070 0.89118 -0.63000
C 	C 	0.92410 0.21040 0.95210 0.73000
H 	H 	0.93100 0.11500 0.95500 -0.17600
O 	O 	0.98160 0.29000 0.00073 -0.56700
O 	O 	0.64910 0.58110 0.80478 -0.55700
C 	C 	0.54510 0.62590 0.81130 0.51300
H 	H 	0.52400 0.69100 0.76700 -0.09800
O 	O 	0.47630 0.60090 0.87430 -0.39200
O 	O 	0.87000 0.50270 0.78065 -0.62900
C 	C 	0.98030 0.51270 0.78780 0.74300
H 	H 	0.01700 0.53400 0.73100 -0.21500
O 	O 	0.04060 0.50030 0.85956 -0.51500
Zn	Zn	0.50000 0.00000 0.50000 1.21800
Zn	Zn	0.00000 0.50000 -0.00000 1.19800
Zn	Zn	0.00000 0.00000 0.50000 1.19700
Zn	Zn	0.50000 0.50000 -0.00000 1.22200
