data_crystal

_cell_length_a 15.69800
_cell_length_b 15.69800
_cell_length_c 18.55700
_cell_angle_alpha 90.00000
_cell_angle_beta  90.00000
_cell_angle_gamma 120.00000

_symmetry_space_group_name_	'P 1'
_symmetry_space_group_name_H-M	'P 1'

loop_
_symmetry_equiv_pos_as_xyz
  x,y,z

loop_
_atom_site_label
_atom_site_type_symbol
_atom_site_fract_x
_atom_site_fract_y
_atom_site_fract_z
_atom_site_charge
Ni	Ni	0.00000 0.82207 0.83333 1.07300
Ni	Ni	0.82207 0.00000 0.50000 1.07400
Ni	Ni	0.17793 0.17793 0.16667 1.07800
H 	H 	0.49560 0.93410 0.59600 0.09500
H 	H 	0.80500 0.65440 0.88627 0.05100
H 	H 	0.60200 0.70230 0.34907 0.10400
H 	H 	0.10030 0.39800 0.01573 0.10100
H 	H 	0.49990 0.54060 0.60973 0.12800
H 	H 	0.04570 0.15030 0.91453 0.08700
H 	H 	0.29770 0.89970 0.68240 0.10300
H 	H 	0.95930 0.45940 0.39027 0.11700
H 	H 	0.93410 0.49560 0.73733 0.09500
H 	H 	0.50440 0.43850 0.07067 0.10200
H 	H 	0.70230 0.60200 0.98427 0.10400
H 	H 	0.93510 0.64080 0.73983 0.01800
H 	H 	0.04070 0.50010 0.27640 0.14300
H 	H 	0.10370 0.10890 0.01373 0.01000
H 	H 	0.15060 0.34560 0.11373 0.05100
H 	H 	0.99480 0.89110 0.98627 0.03100
H 	H 	0.35920 0.29430 0.07317 0.01700
H 	H 	0.64080 0.93510 0.59350 0.01800
H 	H 	0.06590 0.56150 0.92933 0.09500
H 	H 	0.10460 0.95430 0.58120 0.09400
H 	H 	0.89540 0.84970 0.08547 0.10000
H 	H 	0.95430 0.10460 0.75213 0.09400
H 	H 	0.19500 0.84940 0.78040 0.05000
H 	H 	0.89110 0.99480 0.34707 0.03100
H 	H 	0.45940 0.95930 0.94307 0.11800
H 	H 	0.56150 0.06590 0.40400 0.09600
H 	H 	0.29430 0.35920 0.26017 0.01700
H 	H 	0.84940 0.19500 0.55293 0.05000
H 	H 	0.15030 0.04570 0.41880 0.08700
H 	H 	0.84970 0.89540 0.24787 0.10100
H 	H 	0.00520 0.89630 0.68040 0.01000
H 	H 	0.70570 0.06490 0.40650 0.01800
H 	H 	0.50010 0.04070 0.05693 0.14100
H 	H 	0.34560 0.15060 0.21960 0.05000
H 	H 	0.89630 0.00520 0.65293 0.01000
H 	H 	0.89970 0.29770 0.65093 0.10400
H 	H 	0.06490 0.70570 0.92683 0.01700
H 	H 	0.10890 0.10370 0.31960 0.01100
H 	H 	0.43850 0.50440 0.26267 0.10200
H 	H 	0.39800 0.10030 0.31760 0.10100
H 	H 	0.54060 0.49990 0.72360 0.12800
H 	H 	0.65440 0.80500 0.44707 0.05200
C 	C 	0.96200 0.62450 0.77849 0.10800
C 	C 	0.02180 0.44020 0.29870 -0.20200
C 	C 	0.33300 0.96460 0.93207 0.37700
C 	C 	0.26510 0.98170 0.96520 -0.11500
C 	C 	0.21030 0.03640 0.07714 0.39300
C 	C 	0.13050 0.30660 0.07255 0.07400
C 	C 	0.10220 0.16740 0.01426 0.08100
C 	C 	0.71660 0.73490 0.63186 -0.13600
C 	C 	0.01830 0.28340 0.29853 -0.17000
C 	C 	0.53750 0.96100 0.55670 -0.10500
C 	C 	0.23870 0.90010 0.68086 -0.11000
C 	C 	0.93160 0.12380 0.71258 -0.12000
C 	C 	0.03330 0.31070 0.88857 0.10600
C 	C 	0.66250 0.03800 0.44516 0.08300
C 	C 	0.82390 0.69340 0.92745 0.08200
C 	C 	0.03900 0.57650 0.89003 -0.12600
C 	C 	0.93480 0.83260 0.98574 0.07900
C 	C 	0.89780 0.06520 0.65240 0.08000
C 	C 	0.51180 0.00000 0.50000 0.04900
C 	C 	0.96100 0.53750 0.77663 -0.10500
C 	C 	0.03800 0.66250 0.88817 0.08300
C 	C 	0.17390 0.96360 0.92286 0.42800
C 	C 	0.66700 0.63160 0.73460 0.39500
C 	C 	0.96670 0.27740 0.77809 0.12900
C 	C 	-0.00000 0.51180 0.83333 0.04900
C 	C 	0.42350 0.46250 0.22337 -0.13700
C 	C 	0.06520 0.89780 0.68093 0.08000
C 	C 	0.09990 0.33860 0.01419 -0.10800
C 	C 	0.57650 0.03900 0.44330 -0.12600
C 	C 	0.12380 0.93160 0.62075 -0.11900
C 	C 	0.31070 0.03330 0.44476 0.10600
C 	C 	0.37550 0.33750 0.11183 0.09500
C 	C 	0.06840 0.19220 0.95408 -0.12500
C 	C 	0.90010 0.23870 0.65247 -0.11000
C 	C 	0.41840 0.97820 0.96537 -0.10200
C 	C 	0.17610 0.86950 0.73922 0.07700
C 	C 	0.78970 0.82610 0.58952 0.40900
C 	C 	0.30660 0.13050 0.26078 0.07500
C 	C 	0.98170 0.26510 0.36814 -0.10900
C 	C 	0.21140 0.93140 0.61994 0.06100
C 	C 	0.87620 0.80780 0.04592 -0.11300
C 	C 	-0.00000 0.41690 0.83333 0.09400
C 	C 	0.27740 0.96670 0.55524 0.12900
C 	C 	0.33750 0.37550 0.22151 0.09500
C 	C 	0.68930 0.72260 0.22191 0.11300
C 	C 	0.48820 0.48820 0.16667 0.08000
C 	C 	0.36840 0.03540 0.06793 0.41300
C 	C 	0.78860 0.72000 0.04673 0.06900
C 	C 	0.63160 0.66700 0.59873 0.39500
C 	C 	0.62450 0.96200 0.55484 0.10800
C 	C 	0.97820 0.41840 0.36797 -0.09500
C 	C 	0.28000 0.06860 0.38006 0.06100
C 	C 	0.66140 0.76130 0.34753 -0.11100
C 	C 	0.96360 0.17390 0.41048 0.42800
C 	C 	0.80780 0.87620 0.28742 -0.11700
C 	C 	0.58310 0.58310 0.16667 0.10700
C 	C 	0.93140 0.21140 0.71339 0.06100
C 	C 	0.72260 0.68930 0.11143 0.11300
C 	C 	0.28340 0.01830 0.03480 -0.16500
C 	C 	0.73490 0.71660 0.70147 -0.13600
C 	C 	0.83260 0.93480 0.34760 0.08400
C 	C 	0.33860 0.09990 0.31914 -0.11300
C 	C 	0.46250 0.42350 0.10997 -0.13700
C 	C 	0.69340 0.82390 0.40589 0.08100
C 	C 	0.19220 0.06840 0.37925 -0.12200
C 	C 	0.03540 0.36840 0.26540 0.41700
C 	C 	0.82610 0.78970 0.74381 0.40900
C 	C 	0.96460 0.33300 0.40127 0.37400
C 	C 	0.41690 0.00000 0.50000 0.09400
C 	C 	0.76130 0.66140 0.98581 -0.11500
C 	C 	0.72000 0.78860 0.28661 0.06700
C 	C 	0.06860 0.28000 0.95327 0.05800
C 	C 	0.16740 0.10220 0.31907 0.07700
C 	C 	0.03640 0.21030 0.25619 0.39800
C 	C 	0.55980 0.58160 0.63203 -0.14900
C 	C 	0.86950 0.17610 0.59411 0.07700
C 	C 	0.44020 0.02180 0.03463 -0.19600
C 	C 	0.58160 0.55980 0.70130 -0.14900
N 	N 	-0.00000 0.68810 0.83333 -0.23500
N 	N 	0.08994 0.86699 0.74018 -0.22700
N 	N 	0.77705 0.91006 0.40685 -0.21700
N 	N 	0.91006 0.77705 0.92649 -0.21700
N 	N 	0.31190 0.31190 0.16667 -0.22400
N 	N 	0.86699 0.08994 0.59315 -0.22700
N 	N 	0.39548 0.03504 0.44180 -0.13600
N 	N 	0.36044 0.96496 0.55820 -0.12700
N 	N 	0.68810 0.00000 0.50000 -0.23500
N 	N 	-0.00000 0.24760 0.83333 -0.15200
N 	N 	0.96496 0.36044 0.77513 -0.12700
N 	N 	0.63956 0.60452 0.10847 -0.13500
N 	N 	0.22295 0.13301 0.25982 -0.22600
N 	N 	0.75240 0.75240 0.16667 -0.13500
N 	N 	0.60452 0.63956 0.22487 -0.13600
N 	N 	0.24760 0.00000 0.50000 -0.15200
N 	N 	0.03504 0.39548 0.89153 -0.13700
N 	N 	0.13301 0.22295 0.07351 -0.22600
O 	O 	0.12049 0.24403 0.23039 -0.40600
O 	O 	0.87440 0.84430 0.58513 -0.28300
O 	O 	0.12560 0.96990 0.08153 -0.28100
O 	O 	0.03010 0.15570 0.41487 -0.32200
O 	O 	0.87951 0.12354 0.43628 -0.41400
O 	O 	0.96990 0.12560 0.25180 -0.28700
O 	O 	0.15570 0.03010 0.91847 -0.32300
O 	O 	0.87646 0.75597 0.76961 -0.39600
O 	O 	0.75597 0.87646 0.56372 -0.39600
O 	O 	0.24403 0.12049 0.10294 -0.40500
O 	O 	0.84430 0.87440 0.74820 -0.28300
O 	O 	0.12354 0.87951 0.89706 -0.41500
F 	F 	0.39210 0.06580 0.13453 -0.48200
F 	F 	0.60790 0.67370 0.53213 -0.47500
F 	F 	0.67370 0.60790 0.80120 -0.47500
F 	F 	0.06580 0.39210 0.19880 -0.48200
F 	F 	0.32630 0.93420 0.86547 -0.47000
F 	F 	0.93420 0.32630 0.46787 -0.46900
