data_crystal

_cell_length_a 15.68800
_cell_length_b 15.68800
_cell_length_c 18.67800
_cell_angle_alpha 90.00000
_cell_angle_beta  90.00000
_cell_angle_gamma 120.00000

_symmetry_space_group_name_	'P 1'
_symmetry_space_group_name_H-M	'P 1'

loop_
_symmetry_equiv_pos_as_xyz
  x,y,z

loop_
_atom_site_label
_atom_site_type_symbol
_atom_site_fract_x
_atom_site_fract_y
_atom_site_fract_z
_atom_site_charge
Ni	Ni	0.82365 -0.00000 0.50000 1.06800
Ni	Ni	0.17635 0.17635 0.83333 1.07300
Ni	Ni	0.00000 0.82365 0.16667 1.06900
H 	H 	0.31820 0.93370 0.11790 0.13300
H 	H 	0.68180 0.61550 0.21543 0.12700
H 	H 	0.70090 0.60450 0.01533 0.10300
H 	H 	0.93890 0.64440 0.25927 0.01700
H 	H 	0.38450 0.06630 0.88210 0.12000
H 	H 	0.09640 0.39550 0.98467 0.10000
H 	H 	0.61550 0.68180 0.45123 0.12700
H 	H 	0.19500 0.85140 0.21970 0.00500
H 	H 	0.93370 0.31820 0.54877 0.13400
H 	H 	0.14960 0.04700 0.58190 0.09100
H 	H 	0.06110 0.70550 0.07407 0.01600
H 	H 	0.89740 0.00410 0.34847 0.00700
H 	H 	0.34360 0.14860 0.78030 0.00600
H 	H 	0.95300 0.10260 0.24857 0.09800
H 	H 	0.29910 0.90360 0.31800 0.10300
H 	H 	0.60450 0.70090 0.65133 0.10300
H 	H 	0.43790 0.50480 0.73683 0.10000
H 	H 	0.99590 0.89330 0.01513 0.02800
H 	H 	0.56210 0.06690 0.59650 0.09600
H 	H 	0.04700 0.14960 0.08477 0.09200
H 	H 	0.10260 0.95300 0.41810 0.09900
H 	H 	0.85140 0.19500 0.44697 0.00500
H 	H 	0.50480 0.43790 0.92983 0.10100
H 	H 	0.00410 0.89740 0.31820 0.00700
H 	H 	0.10670 0.10260 0.68180 0.00800
H 	H 	0.65640 0.80500 0.55303 0.00700
H 	H 	0.93310 0.49520 0.26317 0.09500
H 	H 	0.89740 0.85040 0.91523 0.10400
H 	H 	0.06630 0.38450 0.78457 0.11900
H 	H 	0.70550 0.06110 0.59260 0.01700
H 	H 	0.49520 0.93310 0.40350 0.09500
H 	H 	0.64440 0.93890 0.40740 0.01700
H 	H 	0.85040 0.89740 0.75143 0.10500
H 	H 	0.29450 0.35560 0.74073 0.01600
H 	H 	0.06690 0.56210 0.07017 0.09500
H 	H 	0.89330 0.99590 0.65153 0.02800
H 	H 	0.14860 0.34360 0.88637 0.00600
H 	H 	0.10260 0.10670 0.98487 0.00700
H 	H 	0.35560 0.29450 0.92593 0.01600
H 	H 	0.80500 0.65640 0.11363 0.00700
H 	H 	0.39550 0.09640 0.68200 0.10100
H 	H 	0.90360 0.29910 0.34867 0.10300
C 	C 	0.46330 0.42400 0.89063 -0.12400
C 	C 	0.57600 0.03930 0.55730 -0.11700
C 	C 	0.21120 0.03580 0.92300 0.31500
C 	C 	0.17540 0.96420 0.07700 0.35200
C 	C 	0.66280 0.03590 0.55380 0.07800
C 	C 	0.01620 0.43590 0.70417 0.24800
C 	C 	0.26410 0.97830 0.03470 0.01200
C 	C 	0.93570 0.83500 0.01537 0.08400
C 	C 	0.56410 0.58030 0.37083 0.28000
C 	C 	0.93460 0.21180 0.28771 0.07500
C 	C 	0.53670 0.96070 0.44270 -0.09700
C 	C 	0.19060 0.06770 0.62180 -0.12600
C 	C 	0.37310 0.33720 0.88713 0.08800
C 	C 	0.06430 0.89930 0.31796 0.08400
C 	C 	0.02170 0.28580 0.70137 -0.03400
C 	C 	0.10070 0.16500 0.98463 0.08400
C 	C 	0.72370 0.69100 0.88958 0.11100
C 	C 	0.96410 0.62690 0.22047 0.10500
C 	C 	0.69100 0.72370 0.77708 0.11100
C 	C 	0.78880 0.82460 0.41033 0.33200
C 	C 	0.16500 0.10070 0.68204 0.08100
C 	C 	0.66370 0.76020 0.65255 -0.13100
C 	C 	0.27720 0.06540 0.62104 0.07500
C 	C 	0.51030 -0.00000 0.50000 0.04300
C 	C 	0.62690 0.96410 0.44620 0.10500
C 	C 	-0.00000 0.41610 0.16667 0.09900
C 	C 	0.30900 0.03270 0.55625 0.10400
C 	C 	0.28580 0.02170 0.96530 -0.03000
C 	C 	0.87710 0.80940 0.95513 -0.11700
C 	C 	0.17620 0.87200 0.26040 0.09400
C 	C 	0.33720 0.37310 0.77953 0.08800
C 	C 	0.33630 0.09650 0.68078 -0.13300
C 	C 	0.96420 0.17540 0.58967 0.35200
C 	C 	0.98380 0.41970 0.62917 0.31200
C 	C 	0.96070 0.53670 0.22397 -0.09700
C 	C 	0.73590 0.71420 0.29863 -0.00600
C 	C 	-0.00000 0.51030 0.16667 0.04300
C 	C 	0.82380 0.69580 0.07293 0.09800
C 	C 	0.97830 0.26410 0.63197 0.01600
C 	C 	0.03590 0.66280 0.11287 0.07800
C 	C 	0.21180 0.93460 0.37896 0.07500
C 	C 	0.33180 0.96030 0.07200 -0.16600
C 	C 	0.42400 0.46330 0.77603 -0.12400
C 	C 	0.82460 0.78880 0.25633 0.33200
C 	C 	0.37150 0.03970 0.92800 -0.13700
C 	C 	0.93230 0.12290 0.28847 -0.12300
C 	C 	0.03930 0.57600 0.10937 -0.11700
C 	C 	0.23980 0.90350 0.31922 -0.13100
C 	C 	0.06540 0.27720 0.04563 0.07200
C 	C 	0.80940 0.87710 0.71153 -0.12100
C 	C 	0.12290 0.93230 0.37820 -0.12300
C 	C 	0.83500 0.93570 0.65129 0.08900
C 	C 	0.69580 0.82380 0.59373 0.09800
C 	C 	0.58030 0.56410 0.29583 0.28000
C 	C 	0.78820 0.72280 0.95437 0.08300
C 	C 	0.27630 0.96730 0.44375 0.12600
C 	C 	0.62850 0.66820 0.40533 -0.15200
C 	C 	0.30420 0.12800 0.73960 0.09200
C 	C 	0.66820 0.62850 0.26133 -0.15200
C 	C 	0.90350 0.23980 0.34745 -0.13100
C 	C 	0.58390 0.58390 0.83333 0.11300
C 	C 	0.03970 0.37150 0.73867 -0.13400
C 	C 	0.76020 0.66370 0.01411 -0.13500
C 	C 	0.03580 0.21120 0.74367 0.31900
C 	C 	0.87200 0.17620 0.40627 0.09400
C 	C 	0.06770 0.19060 0.04487 -0.12800
C 	C 	0.03270 0.30900 0.11042 0.10400
C 	C 	0.89930 0.06430 0.34871 0.08400
C 	C 	0.71420 0.73590 0.36803 -0.00500
C 	C 	0.72280 0.78820 0.71229 0.08100
C 	C 	0.12800 0.30420 0.92707 0.09100
C 	C 	0.41970 0.98380 0.03750 0.30900
C 	C 	0.48970 0.48970 0.83333 0.07000
C 	C 	0.96730 0.27630 0.22292 0.12600
C 	C 	0.96030 0.33180 0.59467 -0.16800
C 	C 	0.09650 0.33630 0.98589 -0.12900
C 	C 	0.43590 0.01620 0.96250 0.25100
C 	C 	0.41610 -0.00000 0.50000 0.09900
N 	N 	0.24630 -0.00000 0.50000 -0.14400
N 	N 	0.96660 0.36120 0.22584 -0.12200
N 	N 	0.22120 0.13020 0.74059 -0.23200
N 	N 	0.86980 0.09100 0.40726 -0.23200
N 	N 	0.39460 0.03340 0.55917 -0.13200
N 	N 	0.36120 0.96660 0.44083 -0.12200
N 	N 	0.77880 0.90900 0.59274 -0.22300
N 	N 	0.31020 0.31020 0.83333 -0.22700
N 	N 	0.75370 0.75370 0.83333 -0.12700
N 	N 	0.00000 0.24630 0.16667 -0.14400
N 	N 	0.03340 0.39460 0.10750 -0.13200
N 	N 	0.68980 -0.00000 0.50000 -0.24000
N 	N 	0.09100 0.86980 0.25941 -0.23200
N 	N 	0.90900 0.77880 0.07392 -0.22300
N 	N 	0.63880 0.60540 0.89250 -0.13100
N 	N 	0.60540 0.63880 0.77416 -0.13100
N 	N 	0.13020 0.22120 0.92608 -0.23200
N 	N 	-0.00000 0.68980 0.16667 -0.24000
O 	O 	0.87462 0.75544 0.22980 -0.39200
O 	O 	0.24456 0.11918 0.89647 -0.40100
O 	O 	0.12538 0.88082 0.10353 -0.41100
O 	O 	0.03280 0.15880 0.58497 -0.29900
O 	O 	0.88082 0.12538 0.56314 -0.41100
O 	O 	0.15880 0.03280 0.08170 -0.29900
O 	O 	0.84120 0.87400 0.25163 -0.26000
O 	O 	0.87400 0.84120 0.41503 -0.26000
O 	O 	0.11918 0.24456 0.77020 -0.40200
O 	O 	0.75544 0.87462 0.43686 -0.39200
O 	O 	0.12600 0.96720 0.91830 -0.25800
O 	O 	0.96720 0.12600 0.74837 -0.26300
F 	F 	0.03920 0.52250 0.73217 -0.40100
F 	F 	0.48330 0.96080 0.06550 -0.39900
F 	F 	0.96080 0.48330 0.60117 -0.39900
F 	F 	0.52250 0.03920 0.93450 -0.40200
F 	F 	0.51670 0.47750 0.26783 -0.40300
F 	F 	0.47750 0.51670 0.39883 -0.40300
