data_crystal

_cell_length_a 13.84880
_cell_length_b 15.52150
_cell_length_c 15.52150
_cell_angle_alpha 120.00000
_cell_angle_beta  90.00000
_cell_angle_gamma 90.00000

_symmetry_space_group_name_	'P 1'
_symmetry_space_group_name_H-M	'P 1'

loop_
_symmetry_equiv_pos_as_xyz
  x,y,z

loop_
_atom_site_label
_atom_site_type_symbol
_atom_site_fract_x
_atom_site_fract_y
_atom_site_fract_z
_atom_site_charge
Ce	Ce	0.46618 0.33333 0.66666 2.15800
Ce	Ce	0.96618 0.66667 0.33334 2.15800
Ce	Ce	0.03382 0.33333 0.66666 2.15800
Ce	Ce	0.53382 0.66667 0.33334 2.15800
Cu	Cu	0.75000 0.50177 0.97569 0.94500
Cu	Cu	0.75000 0.47392 0.49823 0.94600
Cu	Cu	0.75000 0.02431 0.52608 0.94500
Cu	Cu	0.25000 0.52608 0.02431 0.94500
Cu	Cu	0.25000 0.49823 0.47392 0.94600
Cu	Cu	0.25000 0.97569 0.50177 0.94500
H 	H 	0.51010 0.39320 0.08800 0.11600
H 	H 	0.75000 0.72630 0.34860 0.93700
H 	H 	0.58850 0.78190 0.13860 0.10900
H 	H 	0.75000 0.65140 0.37770 0.93700
H 	H 	0.58850 0.86140 0.64330 0.11000
H 	H 	0.01010 0.30520 0.91200 0.11600
H 	H 	0.01010 0.60680 0.69480 0.11600
H 	H 	0.48990 0.08800 0.39320 0.11600
H 	H 	0.49600 0.38460 0.28570 0.12000
H 	H 	0.51010 0.91200 0.30520 0.11600
H 	H 	0.57200 0.14490 0.37220 0.11700
H 	H 	0.92800 0.62780 0.77270 0.11700
H 	H 	0.49600 0.71430 0.09890 0.11900
H 	H 	0.57200 0.22730 0.85510 0.11700
H 	H 	0.91150 0.86140 0.64330 0.11000
H 	H 	0.50400 0.61540 0.90110 0.12000
H 	H 	0.50400 0.28570 0.38460 0.12000
H 	H 	0.00400 0.38460 0.28570 0.12000
H 	H 	0.99600 0.61540 0.90110 0.12000
H 	H 	0.91150 0.35670 0.21810 0.11000
H 	H 	0.50400 0.09890 0.71430 0.11900
H 	H 	0.01010 0.08800 0.39320 0.11600
H 	H 	0.48990 0.30520 0.91200 0.11600
H 	H 	0.98990 0.91200 0.30520 0.11600
H 	H 	0.98990 0.69480 0.60680 0.11600
H 	H 	0.58850 0.35670 0.21810 0.11000
H 	H 	0.07200 0.85510 0.22730 0.11700
H 	H 	0.08850 0.13860 0.78190 0.10900
H 	H 	0.08850 0.64330 0.86140 0.11000
H 	H 	0.25000 0.34860 0.72630 0.93700
H 	H 	0.07200 0.77270 0.62780 0.11700
H 	H 	0.00400 0.71430 0.09890 0.12000
H 	H 	0.57200 0.62780 0.77270 0.11700
H 	H 	0.42800 0.37220 0.14490 0.11700
H 	H 	0.75000 0.62230 0.27370 0.93700
H 	H 	0.99600 0.09890 0.71430 0.12000
H 	H 	0.41150 0.21810 0.35670 0.11000
H 	H 	0.92800 0.14490 0.37220 0.11700
H 	H 	0.49600 0.90110 0.61540 0.12000
H 	H 	0.00400 0.90110 0.61540 0.12000
H 	H 	0.91150 0.78190 0.13860 0.10900
H 	H 	0.98990 0.39320 0.08800 0.11600
H 	H 	0.08850 0.21810 0.35670 0.11000
H 	H 	0.99600 0.28570 0.38460 0.12000
H 	H 	0.51010 0.69480 0.60680 0.11600
H 	H 	0.07200 0.37220 0.14490 0.11700
H 	H 	0.48990 0.60680 0.69480 0.11600
H 	H 	0.42800 0.77270 0.62780 0.11700
H 	H 	0.92800 0.22730 0.85510 0.11700
H 	H 	0.25000 0.27370 0.62230 0.93700
H 	H 	0.41150 0.64330 0.86140 0.11000
H 	H 	0.41150 0.13860 0.78190 0.10900
H 	H 	0.42800 0.85510 0.22730 0.11700
H 	H 	0.25000 0.37770 0.65140 0.93700
C 	C 	0.11370 0.52810 0.88930 0.41700
C 	C 	0.59820 0.36180 0.86480 0.42100
C 	C 	0.90180 0.50300 0.63820 0.42100
C 	C 	0.53340 0.27960 0.85550 -0.25200
C 	C 	0.94860 0.85740 0.58840 -0.24800
C 	C 	0.05140 0.14260 0.73100 -0.24800
C 	C 	0.46660 0.42410 0.14450 -0.25200
C 	C 	0.40180 0.49700 0.13520 0.42100
C 	C 	0.05140 0.58840 0.85740 -0.24800
C 	C 	0.11370 0.11070 0.63880 0.41700
C 	C 	0.88630 0.63880 0.11070 0.41700
C 	C 	0.53340 0.14450 0.42410 -0.25200
C 	C 	0.53340 0.57590 0.72040 -0.25200
C 	C 	0.55140 0.73100 0.14260 -0.24800
C 	C 	0.38630 0.11070 0.63880 0.41700
C 	C 	0.44860 0.58840 0.85740 -0.24800
C 	C 	0.09820 0.49700 0.13520 0.42100
C 	C 	0.90180 0.36180 0.86480 0.42100
C 	C 	0.03340 0.42410 0.14450 -0.25200
C 	C 	0.94860 0.41160 0.26900 -0.24800
C 	C 	0.38630 0.36120 0.47190 0.41700
C 	C 	0.61370 0.63880 0.11070 0.41700
C 	C 	0.11370 0.36120 0.47190 0.41700
C 	C 	0.96660 0.57590 0.72040 -0.25200
C 	C 	0.44860 0.14260 0.73100 -0.24800
C 	C 	0.96660 0.27960 0.85550 -0.25300
C 	C 	0.09820 0.86480 0.36180 0.42100
C 	C 	0.03340 0.85550 0.27960 -0.25300
C 	C 	0.05140 0.26900 0.41160 -0.24800
C 	C 	0.03340 0.72040 0.57590 -0.25200
C 	C 	0.09820 0.63820 0.50300 0.42100
C 	C 	0.55140 0.85740 0.58840 -0.24800
C 	C 	0.90180 0.13520 0.49700 0.42100
C 	C 	0.96660 0.14450 0.42410 -0.25200
C 	C 	0.55140 0.41160 0.26900 -0.24800
C 	C 	0.94860 0.73100 0.14260 -0.24800
C 	C 	0.59820 0.50300 0.63820 0.42100
C 	C 	0.40180 0.63820 0.50300 0.42100
C 	C 	0.46660 0.72040 0.57590 -0.25200
C 	C 	0.44860 0.26900 0.41160 -0.24800
C 	C 	0.88630 0.88930 0.52810 0.41700
C 	C 	0.61370 0.88930 0.52810 0.41700
C 	C 	0.46660 0.85550 0.27960 -0.25200
C 	C 	0.88630 0.47190 0.36120 0.41700
C 	C 	0.61370 0.47190 0.36120 0.41700
C 	C 	0.40180 0.86480 0.36180 0.42100
C 	C 	0.59820 0.13520 0.49700 0.42100
C 	C 	0.38630 0.52810 0.88930 0.41700
O 	O 	0.65215 0.60470 0.02750 -0.42000
O 	O 	0.37914 0.39511 0.56392 -0.52000
O 	O 	0.59534 0.38428 0.79826 -0.45700
O 	O 	0.84870 0.39891 0.93994 -0.40800
O 	O 	0.84785 0.42280 0.39530 -0.42000
O 	O 	0.62086 0.56392 0.39511 -0.52000
O 	O 	0.65130 0.39891 0.93994 -0.40800
O 	O 	0.34785 0.39530 0.42280 -0.42000
O 	O 	0.65130 0.54103 0.60109 -0.40800
O 	O 	0.90466 0.20174 0.58602 -0.45700
O 	O 	0.97937 0.75949 0.52599 -0.23400
O 	O 	0.87914 0.83119 0.43608 -0.52000
O 	O 	0.02063 0.52599 0.75949 -0.23400
O 	O 	0.84870 0.06006 0.45897 -0.40800
O 	O 	0.34785 0.02750 0.60470 -0.42000
O 	O 	0.52063 0.76650 0.24051 -0.23400
O 	O 	0.65215 0.97250 0.57720 -0.42000
O 	O 	0.90466 0.41398 0.61572 -0.45700
O 	O 	0.15215 0.02750 0.60470 -0.42000
O 	O 	0.47937 0.52599 0.75949 -0.23400
O 	O 	0.87914 0.56392 0.39511 -0.52000
O 	O 	0.52063 0.47401 0.23350 -0.23400
O 	O 	0.59534 0.20174 0.58602 -0.45700
O 	O 	0.65215 0.42280 0.39530 -0.42000
O 	O 	0.25000 0.33333 0.66666 -2.53100
O 	O 	0.84870 0.54103 0.60109 -0.40800
O 	O 	0.97937 0.76650 0.24051 -0.23400
O 	O 	0.34870 0.60109 0.54103 -0.40800
O 	O 	0.09534 0.58602 0.20174 -0.45700
O 	O 	0.37914 0.16881 0.60489 -0.52000
O 	O 	0.34870 0.93994 0.39891 -0.40800
O 	O 	0.34870 0.45897 0.06006 -0.40800
O 	O 	0.84785 0.97250 0.57720 -0.42000
O 	O 	0.52063 0.75949 0.52599 -0.23400
O 	O 	0.75000 0.66667 0.33334 -2.53100
O 	O 	0.47937 0.23350 0.47401 -0.23400
O 	O 	0.40466 0.61572 0.41398 -0.45700
O 	O 	0.90466 0.38428 0.79826 -0.45700
O 	O 	0.15215 0.39530 0.42280 -0.42000
O 	O 	0.37914 0.43608 0.83119 -0.52000
O 	O 	0.40466 0.79826 0.38428 -0.45700
O 	O 	0.02063 0.24051 0.76650 -0.23400
O 	O 	0.62086 0.83119 0.43608 -0.52000
O 	O 	0.87914 0.60489 0.16881 -0.52000
O 	O 	0.65130 0.06006 0.45897 -0.40800
O 	O 	0.47937 0.24051 0.76650 -0.23400
O 	O 	0.09534 0.79826 0.38428 -0.45700
O 	O 	0.12086 0.43608 0.83119 -0.52000
O 	O 	0.12086 0.39511 0.56392 -0.52000
O 	O 	0.34785 0.57720 0.97250 -0.42000
O 	O 	0.59534 0.41398 0.61572 -0.45700
O 	O 	0.15215 0.57720 0.97250 -0.42000
O 	O 	0.09534 0.61572 0.41398 -0.45700
O 	O 	0.02063 0.23350 0.47401 -0.23400
O 	O 	0.97937 0.47401 0.23350 -0.23400
O 	O 	0.15130 0.45897 0.06006 -0.40800
O 	O 	0.62086 0.60489 0.16881 -0.52000
O 	O 	0.15130 0.93994 0.39891 -0.40800
O 	O 	0.12086 0.16881 0.60489 -0.52000
O 	O 	0.40466 0.58602 0.20174 -0.45700
O 	O 	0.15130 0.60109 0.54103 -0.40800
O 	O 	0.84785 0.60470 0.02750 -0.42000
