data_crystal

_cell_length_a 19.40170
_cell_length_b 19.40170
_cell_length_c 19.40170
_cell_angle_alpha 84.98690
_cell_angle_beta  84.98690
_cell_angle_gamma 84.98690

_symmetry_space_group_name_	'P 1'
_symmetry_space_group_name_H-M	'P 1'

loop_
_symmetry_equiv_pos_as_xyz
  x,y,z

loop_
_atom_site_label
_atom_site_type_symbol
_atom_site_fract_x
_atom_site_fract_y
_atom_site_fract_z
_atom_site_charge
Cu	Cu	0.36536 0.77219 0.77219 0.91600
Cu	Cu	0.48975 0.80025 0.80025 0.90800
Cu	Cu	0.80025 0.80025 0.48975 0.90800
Cu	Cu	0.80025 0.48975 0.80025 0.90900
Cu	Cu	0.77219 0.77219 0.36536 0.91700
Cu	Cu	0.77219 0.36536 0.77219 0.91700
H 	H 	0.77530 0.39230 0.24290 0.07400
H 	H 	0.80320 0.45630 0.01780 0.04200
H 	H 	0.24290 0.77530 0.39230 0.07400
H 	H 	0.10240 0.24270 0.72400 0.06000
H 	H 	0.80170 0.59660 0.59660 0.07600
H 	H 	0.76230 0.19630 0.19630 0.06700
H 	H 	0.41500 0.13360 0.80520 0.06100
H 	H 	0.80520 0.41500 0.13360 0.06100
H 	H 	0.45630 0.80320 0.01780 0.04200
H 	H 	0.27310 0.75020 0.97860 0.05200
H 	H 	0.97860 0.27310 0.75020 0.05200
H 	H 	0.72400 0.24270 0.10240 0.06000
H 	H 	0.13360 0.80520 0.41500 0.06100
H 	H 	0.10240 0.72400 0.24270 0.06000
H 	H 	0.59660 0.59660 0.80170 0.07600
H 	H 	0.77530 0.24290 0.39230 0.07400
H 	H 	0.39230 0.24290 0.77530 0.07400
H 	H 	0.24290 0.39230 0.77530 0.07400
H 	H 	0.24270 0.72400 0.10240 0.06000
H 	H 	0.54870 0.77540 0.39570 0.07900
H 	H 	0.01780 0.45630 0.80320 0.04200
H 	H 	0.77540 0.39570 0.54870 0.07900
H 	H 	0.72400 0.10240 0.24270 0.06000
H 	H 	0.39570 0.77540 0.54870 0.07900
H 	H 	0.77540 0.54870 0.39570 0.07900
H 	H 	0.19630 0.76230 0.19630 0.06700
H 	H 	0.59660 0.80170 0.59660 0.07600
H 	H 	0.01780 0.80320 0.45630 0.04200
H 	H 	0.80320 0.01780 0.45630 0.04200
H 	H 	0.27310 0.97860 0.75020 0.05200
H 	H 	0.13360 0.41500 0.80520 0.06100
H 	H 	0.19630 0.19630 0.76230 0.06700
H 	H 	0.75020 0.27310 0.97860 0.05200
H 	H 	0.80520 0.13360 0.41500 0.06100
H 	H 	0.39570 0.54870 0.77540 0.07900
H 	H 	0.75020 0.97860 0.27310 0.05200
H 	H 	0.24270 0.10240 0.72400 0.06000
H 	H 	0.97860 0.75020 0.27310 0.05200
H 	H 	0.45630 0.01780 0.80320 0.04200
H 	H 	0.41500 0.80520 0.13360 0.06100
H 	H 	0.39230 0.77530 0.24290 0.07400
H 	H 	0.54870 0.39570 0.77540 0.07900
C 	C 	0.53410 0.44210 0.78020 -0.08500
C 	C 	0.38680 0.10200 0.79090 -0.08800
C 	C 	0.78020 0.53410 0.44210 -0.08500
C 	C 	0.20580 0.77080 0.29980 0.04600
C 	C 	0.79190 0.03340 0.41180 0.00800
C 	C 	0.53410 0.78020 0.44210 -0.08500
C 	C 	0.22820 0.22820 0.76720 -0.10700
C 	C 	0.78790 0.49090 0.58230 -0.01200
C 	C 	0.75660 0.01150 0.30370 -0.00400
C 	C 	0.08560 0.74600 0.28220 -0.08800
C 	C 	0.78180 0.91310 0.38710 0.32800
C 	C 	0.28220 0.74600 0.08560 -0.08800
C 	C 	0.91310 0.38710 0.78180 0.32800
C 	C 	0.10200 0.79090 0.38680 -0.08800
C 	C 	0.77450 0.42000 0.42000 -0.02800
C 	C 	0.91310 0.78180 0.38710 0.32800
C 	C 	0.38220 0.77210 0.38220 -0.02200
C 	C 	0.77020 0.32330 0.12650 0.03700
C 	C 	0.77220 0.32890 0.32890 0.06900
C 	C 	0.79020 0.46000 0.66070 0.30200
C 	C 	0.46500 0.46500 0.77990 0.06500
C 	C 	0.79020 0.66070 0.46000 0.30200
C 	C 	0.46000 0.79020 0.66070 0.30200
C 	C 	0.78020 0.44210 0.53410 -0.08500
C 	C 	0.77300 0.25770 0.34560 -0.11800
C 	C 	0.49090 0.58230 0.78790 -0.01200
C 	C 	0.29980 0.20580 0.77080 0.04600
C 	C 	0.28220 0.08560 0.74600 -0.08800
C 	C 	0.38680 0.79090 0.10200 -0.08800
C 	C 	0.77990 0.46500 0.46500 0.06500
C 	C 	0.79190 0.41180 0.03340 0.00800
C 	C 	0.76720 0.22820 0.22820 -0.10700
C 	C 	0.56500 0.79440 0.56500 -0.03900
C 	C 	0.77080 0.20580 0.29980 0.04600
C 	C 	0.42000 0.77450 0.42000 -0.02800
C 	C 	0.41180 0.79190 0.03340 0.00800
C 	C 	0.56500 0.56500 0.79440 -0.03900
C 	C 	0.25770 0.34560 0.77300 -0.11800
C 	C 	0.42000 0.42000 0.77450 -0.02800
C 	C 	0.38710 0.78180 0.91310 0.32800
C 	C 	0.32890 0.77220 0.32890 0.06900
C 	C 	0.79090 0.10200 0.38680 -0.08800
C 	C 	0.99140 0.77510 0.36620 -0.06600
C 	C 	0.46000 0.66070 0.79020 0.30200
C 	C 	0.01150 0.75660 0.30370 -0.00400
C 	C 	0.44210 0.53410 0.78020 -0.08500
C 	C 	0.08560 0.28220 0.74600 -0.08800
C 	C 	0.79440 0.56500 0.56500 -0.03900
C 	C 	0.03340 0.41180 0.79190 0.00800
C 	C 	0.58230 0.49090 0.78790 -0.01200
C 	C 	0.74600 0.28220 0.08560 -0.08800
C 	C 	0.99140 0.36620 0.77510 -0.06600
C 	C 	0.34560 0.25770 0.77300 -0.11800
C 	C 	0.32890 0.32890 0.77220 0.06900
C 	C 	0.22820 0.76720 0.22820 -0.10700
C 	C 	0.32330 0.77020 0.12650 0.03700
C 	C 	0.36620 0.77510 0.99140 -0.06600
C 	C 	0.30370 0.01150 0.75660 -0.00400
C 	C 	0.20580 0.29980 0.77080 0.04600
C 	C 	0.79090 0.38680 0.10200 -0.08800
C 	C 	0.38220 0.38220 0.77210 -0.02200
C 	C 	0.66070 0.46000 0.79020 0.30200
C 	C 	0.25770 0.77300 0.34560 -0.11800
C 	C 	0.30370 0.75660 0.01150 -0.00400
C 	C 	0.77080 0.29980 0.20580 0.04600
C 	C 	0.34560 0.77300 0.25770 -0.11800
C 	C 	0.10200 0.38680 0.79090 -0.08800
C 	C 	0.66070 0.79020 0.46000 0.30200
C 	C 	0.77210 0.38220 0.38220 -0.02200
C 	C 	0.41180 0.03340 0.79190 0.00800
C 	C 	0.29980 0.77080 0.20580 0.04600
C 	C 	0.36620 0.99140 0.77510 -0.06600
C 	C 	0.44210 0.78020 0.53410 -0.08500
C 	C 	0.46500 0.77990 0.46500 0.06500
C 	C 	0.49090 0.78790 0.58230 -0.01200
C 	C 	0.01150 0.30370 0.75660 -0.00400
C 	C 	0.12650 0.32330 0.77020 0.03700
C 	C 	0.77510 0.36620 0.99140 -0.06600
C 	C 	0.78180 0.38710 0.91310 0.32800
C 	C 	0.74600 0.08560 0.28220 -0.08800
C 	C 	0.77510 0.99140 0.36620 -0.06600
C 	C 	0.77020 0.12650 0.32330 0.03700
C 	C 	0.32330 0.12650 0.77020 0.03700
C 	C 	0.77300 0.34560 0.25770 -0.11800
C 	C 	0.38710 0.91310 0.78180 0.32800
C 	C 	0.58230 0.78790 0.49090 -0.01200
C 	C 	0.12650 0.77020 0.32330 0.03700
C 	C 	0.78790 0.58230 0.49090 -0.01200
C 	C 	0.75660 0.30370 0.01150 -0.00400
C 	C 	0.03340 0.79190 0.41180 0.00800
O 	O 	0.87162 0.76832 0.34492 -0.40100
O 	O 	0.87162 0.34492 0.76832 -0.40100
O 	O 	0.34492 0.87162 0.76832 -0.40100
O 	O 	0.40070 0.77830 0.67880 -0.41200
O 	O 	0.70056 0.80456 0.51096 -0.37300
O 	O 	0.79343 0.45163 0.89433 -0.39500
O 	O 	0.67880 0.40070 0.77830 -0.41200
O 	O 	0.70056 0.51096 0.80456 -0.37300
O 	O 	0.34492 0.76832 0.87162 -0.40100
O 	O 	0.76832 0.34492 0.87162 -0.40100
O 	O 	0.45163 0.79343 0.89433 -0.39500
O 	O 	0.80456 0.70056 0.51096 -0.37300
O 	O 	0.79343 0.89433 0.45163 -0.39500
O 	O 	0.76832 0.87162 0.34492 -0.40100
O 	O 	0.51096 0.70056 0.80456 -0.37300
O 	O 	0.67880 0.77830 0.40070 -0.41200
O 	O 	0.89433 0.45163 0.79343 -0.39500
O 	O 	0.51096 0.80456 0.70056 -0.37300
O 	O 	0.40070 0.67880 0.77830 -0.41200
O 	O 	0.77830 0.67880 0.40070 -0.41200
O 	O 	0.89433 0.79343 0.45163 -0.39500
O 	O 	0.77830 0.40070 0.67880 -0.41200
O 	O 	0.80456 0.51096 0.70056 -0.37300
O 	O 	0.45163 0.89433 0.79343 -0.39500
