data_crystal

_cell_length_a 22.40220
_cell_length_b 22.40220
_cell_length_c 9.16370
_cell_angle_alpha 90.00000
_cell_angle_beta  90.00000
_cell_angle_gamma 120.00000

_symmetry_space_group_name_	'P 1'
_symmetry_space_group_name_H-M	'P 1'

loop_
_symmetry_equiv_pos_as_xyz
  x,y,z

loop_
_atom_site_label
_atom_site_type_symbol
_atom_site_fract_x
_atom_site_fract_y
_atom_site_fract_z
_atom_site_charge
O 	O 	0.33920 0.61440 0.49080 -0.63800
O 	O 	0.57650 0.37680 0.48480 -0.44400
C 	C 	0.47540 0.59300 0.62550 0.36500
C 	C 	0.51310 0.55620 0.58800 -0.64300
C 	C 	0.57490 0.57470 0.65860 0.23500
C 	C 	0.60410 0.53280 0.64770 -0.42700
C 	C 	0.57150 0.47240 0.56630 0.26200
C 	C 	0.50970 0.45390 0.49570 -0.54300
C 	C 	0.48050 0.49580 0.50660 0.66500
H 	H 	0.59510 0.61770 0.72090 -0.04700
H 	H 	0.64460 0.54690 0.70560 0.10400
H 	H 	0.48720 0.41420 0.44320 0.37600
H 	H 	0.43780 0.48500 0.45850 -0.10200
H 	H 	0.39060 0.53930 0.53890 -0.00100
H 	H 	0.50020 0.63600 0.69520 -0.06500
O 	O 	0.38560 0.72480 0.15747 -0.63800
O 	O 	0.62320 0.19970 0.15147 -0.44400
C 	C 	0.40700 0.88240 0.29217 0.36300
C 	C 	0.44380 0.95690 0.25467 -0.64200
C 	C 	0.42530 0.00020 0.32527 0.23600
C 	C 	0.46720 0.07130 0.31437 -0.43200
C 	C 	0.52760 0.09910 0.23297 0.26600
C 	C 	0.54610 0.05580 0.16237 -0.54400
C 	C 	0.50420 0.98470 0.17327 0.66800
H 	H 	0.38230 0.97740 0.38757 -0.04800
H 	H 	0.45310 0.09770 0.37227 0.10500
H 	H 	0.58580 0.07300 0.10987 0.37400
H 	H 	0.51500 0.95280 0.12517 -0.10200
H 	H 	0.46070 0.85130 0.20557 -0.00200
H 	H 	0.36400 0.86420 0.36187 -0.06400
O 	O 	0.27520 0.66080 0.82413 -0.63800
O 	O 	0.80030 0.42350 0.81813 -0.44400
C 	C 	0.11760 0.52460 0.95883 0.37500
C 	C 	0.04310 0.48690 0.92133 -0.64600
C 	C 	0.99980 0.42510 0.99193 0.22900
C 	C 	0.92870 0.39590 0.98103 -0.40900
C 	C 	0.90090 0.42850 0.89963 0.24900
C 	C 	0.94420 0.49030 0.82903 -0.54000
C 	C 	0.01530 0.51950 0.83993 0.66400
H 	H 	0.02260 0.40490 0.05423 -0.04500
H 	H 	0.90230 0.35540 0.03893 0.09800
H 	H 	0.92700 0.51280 0.77653 0.38100
H 	H 	0.04720 0.56220 0.79183 -0.10200
H 	H 	0.14870 0.60940 0.87223 0.00000
H 	H 	0.13580 0.49980 0.02853 -0.06400
O 	O 	0.66080 0.38560 0.99080 -0.63700
O 	O 	0.42350 0.62320 0.98480 -0.44500
C 	C 	0.52460 0.40700 0.12550 0.36400
C 	C 	0.48690 0.44380 0.08800 -0.64400
C 	C 	0.42510 0.42530 0.15860 0.23600
C 	C 	0.39590 0.46720 0.14770 -0.43000
C 	C 	0.42850 0.52760 0.06630 0.26500
C 	C 	0.49030 0.54610 0.99570 -0.54300
C 	C 	0.51950 0.50420 0.00660 0.66600
H 	H 	0.40490 0.38230 0.22090 -0.04800
H 	H 	0.35540 0.45310 0.20560 0.10500
H 	H 	0.51280 0.58580 0.94320 0.37400
H 	H 	0.56220 0.51500 0.95850 -0.10200
H 	H 	0.60940 0.46070 0.03890 -0.00500
H 	H 	0.49980 0.36400 0.19520 -0.06400
O 	O 	0.61440 0.27520 0.65747 -0.63900
O 	O 	0.37680 0.80030 0.65147 -0.44400
C 	C 	0.59300 0.11760 0.79217 0.36700
C 	C 	0.55620 0.04310 0.75467 -0.64200
C 	C 	0.57470 0.99980 0.82527 0.23000
C 	C 	0.53280 0.92870 0.81437 -0.41800
C 	C 	0.47240 0.90090 0.73297 0.25600
C 	C 	0.45390 0.94420 0.66237 -0.54100
C 	C 	0.49580 0.01530 0.67327 0.66300
H 	H 	0.61770 0.02260 0.88757 -0.04500
H 	H 	0.54690 0.90230 0.87227 0.10100
H 	H 	0.41420 0.92700 0.60987 0.37800
H 	H 	0.48500 0.04720 0.62517 -0.10200
H 	H 	0.53930 0.14870 0.70557 0.00100
H 	H 	0.63600 0.13580 0.86187 -0.06400
O 	O 	0.72480 0.33920 0.32413 -0.63900
O 	O 	0.19970 0.57650 0.31813 -0.44400
C 	C 	0.88240 0.47540 0.45883 0.36700
C 	C 	0.95690 0.51310 0.42133 -0.64200
C 	C 	0.00020 0.57490 0.49193 0.23300
C 	C 	0.07130 0.60410 0.48103 -0.42200
C 	C 	0.09910 0.57150 0.39963 0.25800
C 	C 	0.05580 0.50970 0.32903 -0.54000
C 	C 	0.98470 0.48050 0.33993 0.66300
H 	H 	0.97740 0.59510 0.55423 -0.04700
H 	H 	0.09770 0.64460 0.53893 0.10300
H 	H 	0.07300 0.48720 0.27653 0.37700
H 	H 	0.95280 0.43780 0.29183 -0.10100
H 	H 	0.85130 0.39060 0.37223 -0.00000
H 	H 	0.86420 0.50020 0.52853 -0.06500
O 	O 	0.61440 0.33920 0.17587 -0.63800
O 	O 	0.37680 0.57650 0.18187 -0.44400
C 	C 	0.59300 0.47540 0.04117 0.36900
C 	C 	0.55620 0.51310 0.07867 -0.64400
C 	C 	0.57470 0.57490 0.00807 0.23200
C 	C 	0.53280 0.60410 0.01897 -0.42200
C 	C 	0.47240 0.57150 0.10037 0.25900
C 	C 	0.45390 0.50970 0.17097 -0.54200
C 	C 	0.49580 0.48050 0.16007 0.66600
H 	H 	0.61770 0.59510 0.94577 -0.04700
H 	H 	0.54690 0.64460 0.96107 0.10200
H 	H 	0.41420 0.48720 0.22347 0.37700
H 	H 	0.48500 0.43780 0.20817 -0.10200
H 	H 	0.53930 0.39060 0.12777 -0.00100
H 	H 	0.63600 0.50020 0.97147 -0.06400
O 	O 	0.72480 0.38560 0.50920 -0.63900
O 	O 	0.19970 0.62320 0.51520 -0.44400
C 	C 	0.88240 0.40700 0.37450 0.36300
C 	C 	0.95690 0.44380 0.41200 -0.64300
C 	C 	0.00020 0.42530 0.34140 0.23800
C 	C 	0.07130 0.46720 0.35230 -0.43400
C 	C 	0.09910 0.52760 0.43370 0.26600
C 	C 	0.05580 0.54610 0.50430 -0.54400
C 	C 	0.98470 0.50420 0.49340 0.66700
H 	H 	0.97740 0.38230 0.27910 -0.04900
H 	H 	0.09770 0.45310 0.29440 0.10600
H 	H 	0.07300 0.58580 0.55680 0.37500
H 	H 	0.95280 0.51500 0.54150 -0.10300
H 	H 	0.85130 0.46070 0.46110 -0.00200
H 	H 	0.86420 0.36400 0.30480 -0.06400
O 	O 	0.66080 0.27520 0.84253 -0.63800
O 	O 	0.42350 0.80030 0.84853 -0.44400
C 	C 	0.52460 0.11760 0.70783 0.36200
C 	C 	0.48690 0.04310 0.74533 -0.64300
C 	C 	0.42510 0.99980 0.67473 0.23700
C 	C 	0.39590 0.92870 0.68563 -0.43400
C 	C 	0.42850 0.90090 0.76703 0.26700
C 	C 	0.49030 0.94420 0.83763 -0.54500
C 	C 	0.51950 0.01530 0.82673 0.66800
H 	H 	0.40490 0.02260 0.61243 -0.04800
H 	H 	0.35540 0.90230 0.62773 0.10600
H 	H 	0.51280 0.92700 0.89013 0.37300
H 	H 	0.56220 0.04720 0.87483 -0.10200
H 	H 	0.60940 0.14870 0.79443 -0.00200
H 	H 	0.49980 0.13580 0.63813 -0.06400
O 	O 	0.38560 0.66080 0.67587 -0.63900
O 	O 	0.62320 0.42350 0.68187 -0.44400
C 	C 	0.40700 0.52460 0.54117 0.36500
C 	C 	0.44380 0.48690 0.57867 -0.64300
C 	C 	0.42530 0.42510 0.50807 0.23500
C 	C 	0.46720 0.39590 0.51897 -0.42800
C 	C 	0.52760 0.42850 0.60037 0.26200
C 	C 	0.54610 0.49030 0.67097 -0.54300
C 	C 	0.50420 0.51950 0.66007 0.66500
H 	H 	0.38230 0.40490 0.44577 -0.04800
H 	H 	0.45310 0.35540 0.46107 0.10400
H 	H 	0.58580 0.51280 0.72347 0.37600
H 	H 	0.51500 0.56220 0.70817 -0.10200
H 	H 	0.46070 0.60940 0.62777 -0.00100
H 	H 	0.36400 0.49980 0.47147 -0.06500
O 	O 	0.27520 0.61440 0.00920 -0.63600
O 	O 	0.80030 0.37680 0.01520 -0.44500
C 	C 	0.11760 0.59300 0.87450 0.36000
C 	C 	0.04310 0.55620 0.91200 -0.64500
C 	C 	0.99980 0.57470 0.84140 0.24300
C 	C 	0.92870 0.53280 0.85230 -0.44400
C 	C 	0.90090 0.47240 0.93370 0.27500
C 	C 	0.94420 0.45390 0.00430 -0.54600
C 	C 	0.01530 0.49580 0.99340 0.66800
H 	H 	0.02260 0.61770 0.77910 -0.05000
H 	H 	0.90230 0.54690 0.79440 0.10800
H 	H 	0.92700 0.41420 0.05680 0.37100
H 	H 	0.04720 0.48500 0.04150 -0.10100
H 	H 	0.14870 0.53930 0.96110 -0.01000
H 	H 	0.13580 0.63600 0.80480 -0.06400
O 	O 	0.33920 0.72480 0.34253 -0.63900
O 	O 	0.57650 0.19970 0.34853 -0.44400
C 	C 	0.47540 0.88240 0.20783 0.36600
C 	C 	0.51310 0.95690 0.24533 -0.64200
C 	C 	0.57490 0.00020 0.17473 0.23000
C 	C 	0.60410 0.07130 0.18563 -0.42000
C 	C 	0.57150 0.09910 0.26703 0.25700
C 	C 	0.50970 0.05580 0.33763 -0.54100
C 	C 	0.48050 0.98470 0.32673 0.66400
H 	H 	0.59510 0.97740 0.11243 -0.04600
H 	H 	0.64460 0.09770 0.12773 0.10200
H 	H 	0.48720 0.07300 0.39013 0.37700
H 	H 	0.43780 0.95280 0.37483 -0.10200
H 	H 	0.39060 0.85130 0.29443 0.00000
H 	H 	0.50020 0.86420 0.13813 -0.06400
Cd	Cd	0.30385 0.69615 0.58333 1.25100
C 	C 	0.37744 0.62256 0.58333 0.77500
C 	C 	0.58620 0.41380 0.58333 0.28200
C 	C 	0.41570 0.58430 0.58333 -0.50100
Cd	Cd	0.30385 0.60770 0.25000 1.25100
C 	C 	0.37744 0.75488 0.25000 0.77500
C 	C 	0.58620 0.17240 0.25000 0.28200
C 	C 	0.41570 0.83140 0.25000 -0.50100
Cd	Cd	0.39230 0.69615 0.91667 1.25100
C 	C 	0.24512 0.62256 0.91667 0.77000
C 	C 	0.82760 0.41380 0.91667 0.28300
C 	C 	0.16860 0.58430 0.91667 -0.49700
Cd	Cd	0.69615 0.30385 0.08333 1.25100
C 	C 	0.62256 0.37744 0.08333 0.77200
C 	C 	0.41380 0.58620 0.08333 0.28300
C 	C 	0.58430 0.41570 0.08333 -0.49900
Cd	Cd	0.69615 0.39230 0.75000 1.25100
C 	C 	0.62256 0.24512 0.75000 0.77500
C 	C 	0.41380 0.82760 0.75000 0.28200
C 	C 	0.58430 0.16860 0.75000 -0.50100
Cd	Cd	0.60770 0.30385 0.41667 1.25100
C 	C 	0.75488 0.37744 0.41667 0.77500
C 	C 	0.17240 0.58620 0.41667 0.28200
C 	C 	0.83140 0.41570 0.41667 -0.50100
