data_crystal

_cell_length_a 23.99500
_cell_length_b 23.99500
_cell_length_c 3.94980
_cell_angle_alpha 90.00000
_cell_angle_beta  90.00000
_cell_angle_gamma 90.00000

_symmetry_space_group_name_	'P 1'
_symmetry_space_group_name_H-M	'P 1'

loop_
_symmetry_equiv_pos_as_xyz
  x,y,z

loop_
_atom_site_label
_atom_site_type_symbol
_atom_site_fract_x
_atom_site_fract_y
_atom_site_fract_z
_atom_site_charge
O 	O 	0.44664 0.42893 0.56140 -0.42400
N 	N 	0.44706 0.38055 0.72270 -0.03900
C 	C 	0.39812 0.35438 0.78010 0.03800
H 	H 	0.36420 0.37150 0.71330 0.02900
C 	C 	0.39714 0.30305 0.93470 -0.09400
H 	H 	0.36250 0.28470 0.96830 0.05900
C 	C 	0.49496 0.35783 0.82590 0.00700
H 	H 	0.52910 0.37710 0.79060 0.02700
C 	C 	0.49505 0.30651 0.98370 -0.08000
H 	H 	0.52940 0.29060 0.05370 0.05700
C 	C 	0.44581 0.27764 0.04210 0.04100
O 	O 	0.94664 0.92893 0.06140 -0.40600
N 	N 	0.94706 0.88055 0.22270 -0.04700
C 	C 	0.89812 0.85438 0.28010 0.03300
H 	H 	0.86420 0.87150 0.21330 0.03000
C 	C 	0.89714 0.80305 0.43470 -0.07900
H 	H 	0.86250 0.78470 0.46830 0.05200
C 	C 	0.99496 0.85783 0.32590 0.07200
H 	H 	0.02910 0.87710 0.29060 -0.03300
C 	C 	0.99505 0.80651 0.48370 0.00100
H 	H 	0.02940 0.79060 0.55370 -0.00300
C 	C 	0.94581 0.77764 0.54210 0.01400
O 	O 	0.55336 0.57107 0.56140 -0.42300
N 	N 	0.55294 0.61945 0.72270 -0.03800
C 	C 	0.60188 0.64562 0.78010 0.03900
H 	H 	0.63580 0.62850 0.71330 0.03100
C 	C 	0.60286 0.69695 0.93470 -0.09300
H 	H 	0.63750 0.71530 0.96830 0.06000
C 	C 	0.50504 0.64217 0.82590 0.00700
H 	H 	0.47090 0.62290 0.79060 0.02700
C 	C 	0.50495 0.69349 0.98370 -0.07900
H 	H 	0.47060 0.70940 0.05370 0.05700
C 	C 	0.55419 0.72236 0.04210 0.04100
O 	O 	0.05336 0.07107 0.06140 -0.46800
N 	N 	0.05294 0.11945 0.22270 -0.02500
C 	C 	0.10188 0.14562 0.28010 0.03200
H 	H 	0.13580 0.12850 0.21330 0.02500
C 	C 	0.10286 0.19695 0.43470 -0.08300
H 	H 	0.13750 0.21530 0.46830 0.05200
C 	C 	0.00504 0.14217 0.32590 -0.06700
H 	H 	0.97090 0.12290 0.29060 0.07900
C 	C 	0.00495 0.19349 0.48370 -0.13300
H 	H 	0.97060 0.20940 0.55370 0.10900
C 	C 	0.05419 0.22236 0.54210 0.03300
O 	O 	0.42893 0.55336 0.43860 -0.42200
N 	N 	0.38055 0.55294 0.27730 -0.04000
C 	C 	0.35438 0.60188 0.21990 0.04600
H 	H 	0.37150 0.63580 0.28670 0.02900
C 	C 	0.30305 0.60286 0.06530 -0.10500
H 	H 	0.28470 0.63750 0.03170 0.05700
C 	C 	0.35783 0.50504 0.17410 0.01700
H 	H 	0.37710 0.47090 0.20940 0.02600
C 	C 	0.30651 0.50495 0.01630 -0.09500
H 	H 	0.29060 0.47060 0.94630 0.06200
C 	C 	0.27764 0.55419 0.95790 0.05400
O 	O 	0.92893 0.05336 0.93860 -0.37800
N 	N 	0.88055 0.05294 0.77730 -0.02900
C 	C 	0.85438 0.10188 0.71990 0.04600
H 	H 	0.87150 0.13580 0.78670 0.03900
C 	C 	0.80305 0.10286 0.56530 -0.09900
H 	H 	0.78470 0.13750 0.53170 0.05900
C 	C 	0.85783 0.00504 0.67410 -0.05000
H 	H 	0.87710 0.97090 0.70940 0.09700
C 	C 	0.80651 0.00495 0.51630 -0.14700
H 	H 	0.79060 0.97060 0.44630 0.11200
C 	C 	0.77764 0.05419 0.45790 0.05400
O 	O 	0.57107 0.44664 0.43860 -0.42200
N 	N 	0.61945 0.44706 0.27730 -0.04000
C 	C 	0.64562 0.39812 0.21990 0.04500
H 	H 	0.62850 0.36420 0.28670 0.02900
C 	C 	0.69695 0.39714 0.06530 -0.10200
H 	H 	0.71530 0.36250 0.03170 0.05600
C 	C 	0.64217 0.49496 0.17410 0.01500
H 	H 	0.62290 0.52910 0.20940 0.02600
C 	C 	0.69349 0.49505 0.01630 -0.09100
H 	H 	0.70940 0.52940 0.94630 0.06100
C 	C 	0.72236 0.44581 0.95790 0.05000
O 	O 	0.07107 0.94664 0.93860 -0.37300
N 	N 	0.11945 0.94706 0.77730 -0.04800
C 	C 	0.14562 0.89812 0.71990 0.04200
H 	H 	0.12850 0.86420 0.78670 0.03400
C 	C 	0.19695 0.89714 0.56530 -0.09200
H 	H 	0.21530 0.86250 0.53170 0.05700
C 	C 	0.14217 0.99496 0.67410 0.07800
H 	H 	0.12290 0.02910 0.70940 -0.01600
C 	C 	0.19349 0.99505 0.51630 -0.00800
H 	H 	0.20940 0.02940 0.44630 -0.00200
C 	C 	0.22236 0.94581 0.45790 0.03000
O 	O 	0.05336 0.42893 0.18860 -0.43600
N 	N 	0.05294 0.38055 0.02730 -0.07100
C 	C 	0.10188 0.35438 0.96990 0.12900
H 	H 	0.13580 0.37150 0.03670 -0.01500
C 	C 	0.10286 0.30305 0.81530 -0.14600
H 	H 	0.13750 0.28470 0.78170 0.07900
C 	C 	0.00504 0.35783 0.92410 -0.01200
H 	H 	0.97090 0.37710 0.95940 0.07900
C 	C 	0.00495 0.30651 0.76630 -0.17700
H 	H 	0.97060 0.29060 0.69630 0.12400
C 	C 	0.05419 0.27764 0.70790 0.08400
O 	O 	0.55336 0.92893 0.68860 -0.40000
N 	N 	0.55294 0.88055 0.52730 -0.03700
C 	C 	0.60188 0.85438 0.46990 0.03900
H 	H 	0.63580 0.87150 0.53670 0.03600
C 	C 	0.60286 0.80305 0.31530 -0.08900
H 	H 	0.63750 0.78470 0.28170 0.05500
C 	C 	0.50504 0.85783 0.42410 0.00800
H 	H 	0.47090 0.87710 0.45940 0.03100
C 	C 	0.50495 0.80651 0.26630 -0.07300
H 	H 	0.47060 0.79060 0.19630 0.05400
C 	C 	0.55419 0.77764 0.20790 0.03500
O 	O 	0.94664 0.57107 0.18860 -0.40300
N 	N 	0.94706 0.61945 0.02730 -0.08900
C 	C 	0.89812 0.64562 0.96990 0.12300
H 	H 	0.86420 0.62850 0.03670 -0.01200
C 	C 	0.89714 0.69695 0.81530 -0.13700
H 	H 	0.86250 0.71530 0.78170 0.07700
C 	C 	0.99496 0.64217 0.92410 0.11800
H 	H 	0.02910 0.62290 0.95940 -0.03100
C 	C 	0.99505 0.69349 0.76630 -0.03700
H 	H 	0.02940 0.70940 0.69630 0.01000
C 	C 	0.94581 0.72236 0.70790 0.05900
O 	O 	0.44664 0.07107 0.68860 -0.42800
N 	N 	0.44706 0.11945 0.52730 -0.03600
C 	C 	0.39812 0.14562 0.46990 0.03600
H 	H 	0.36420 0.12850 0.53670 0.03000
C 	C 	0.39714 0.19695 0.31530 -0.08800
H 	H 	0.36250 0.21530 0.28170 0.05400
C 	C 	0.49496 0.14217 0.42410 0.00400
H 	H 	0.52910 0.12290 0.45940 0.03000
C 	C 	0.49505 0.19349 0.26630 -0.07100
H 	H 	0.52940 0.20940 0.19630 0.05300
C 	C 	0.44581 0.22236 0.20790 0.03400
O 	O 	0.07107 0.55336 0.31140 -0.43800
N 	N 	0.11945 0.55294 0.47270 -0.03600
C 	C 	0.14562 0.60188 0.53010 0.03700
H 	H 	0.12850 0.63580 0.46330 0.02600
C 	C 	0.19695 0.60286 0.68470 -0.08600
H 	H 	0.21530 0.63750 0.71830 0.05700
C 	C 	0.14217 0.50504 0.57590 0.00500
H 	H 	0.12290 0.47090 0.54060 0.03100
C 	C 	0.19349 0.50495 0.73370 -0.06800
H 	H 	0.20940 0.47060 0.80370 0.05500
C 	C 	0.22236 0.55419 0.79210 0.03200
O 	O 	0.57107 0.05336 0.81140 -0.43200
N 	N 	0.61945 0.05294 0.97270 -0.01100
C 	C 	0.64562 0.10188 0.03010 0.00600
H 	H 	0.62850 0.13580 0.96330 0.04900
C 	C 	0.69695 0.10286 0.18470 -0.07500
H 	H 	0.71530 0.13750 0.21830 0.04700
C 	C 	0.64217 0.00504 0.07590 -0.07500
H 	H 	0.62290 0.97090 0.04060 0.09000
C 	C 	0.69349 0.00495 0.23370 -0.13000
H 	H 	0.70940 0.97060 0.30370 0.10600
C 	C 	0.72236 0.05419 0.29210 0.03400
O 	O 	0.92893 0.44664 0.31140 -0.40900
N 	N 	0.88055 0.44706 0.47270 -0.03800
C 	C 	0.85438 0.39812 0.53010 0.04000
H 	H 	0.87150 0.36420 0.46330 0.03100
C 	C 	0.80305 0.39714 0.68470 -0.08800
H 	H 	0.78470 0.36250 0.71830 0.05800
C 	C 	0.85783 0.49496 0.57590 0.01000
H 	H 	0.87710 0.52910 0.54060 0.03200
C 	C 	0.80651 0.49505 0.73370 -0.07100
H 	H 	0.79060 0.52940 0.80370 0.05600
C 	C 	0.77764 0.44581 0.79210 0.03500
O 	O 	0.42893 0.94664 0.81140 -0.39900
N 	N 	0.38055 0.94706 0.97270 -0.03000
C 	C 	0.35438 0.89812 0.03010 0.00200
H 	H 	0.37150 0.86420 0.96330 0.05000
C 	C 	0.30305 0.89714 0.18470 -0.06800
H 	H 	0.28470 0.86250 0.21830 0.04500
C 	C 	0.35783 0.99496 0.07590 0.05800
H 	H 	0.37710 0.02910 0.04060 -0.02300
C 	C 	0.30651 0.99505 0.23370 0.00700
H 	H 	0.29060 0.02940 0.30370 -0.00700
C 	C 	0.27764 0.94581 0.29210 0.01100
Sc	Sc	0.50000 0.50000 0.50000 2.34300
Sc	Sc	-0.00000 0.00000 -0.00000 2.32700
Sc	Sc	-0.00000 0.50000 0.25000 2.33700
Sc	Sc	0.50000 0.00000 0.75000 2.33900
O 	O 	0.50000 0.50000 -0.00000 -0.86100
O 	O 	-0.00000 -0.00000 0.50000 -0.92300
O 	O 	0.00000 0.50000 0.75000 -0.88500
O 	O 	0.50000 -0.00000 0.25000 -0.89600
