data_crystal

_cell_length_a 10.24810
_cell_length_b 15.06970
_cell_length_c 22.39100
_cell_angle_alpha 90.00000
_cell_angle_beta  90.00000
_cell_angle_gamma 108.02000

_symmetry_space_group_name_	'P 1'
_symmetry_space_group_name_H-M	'P 1'

loop_
_symmetry_equiv_pos_as_xyz
  x,y,z

loop_
_atom_site_label
_atom_site_type_symbol
_atom_site_fract_x
_atom_site_fract_y
_atom_site_fract_z
_atom_site_charge
Gd	Gd	0.03392 0.50113 0.14153 1.56000
Gd	Gd	0.42225 0.25061 0.15503 1.59600
Gd	Gd	0.24278 0.90998 0.01341 1.30600
Gd	Gd	0.46608 0.99887 0.64153 1.56200
Gd	Gd	0.07775 0.24939 0.65503 1.59600
Gd	Gd	0.25722 0.59002 0.51341 1.30600
Gd	Gd	0.96608 0.49887 0.85847 1.56000
Gd	Gd	0.57775 0.74939 0.84497 1.59600
Gd	Gd	0.75722 0.09002 0.98659 1.30600
Gd	Gd	0.53392 0.00113 0.35847 1.56200
Gd	Gd	0.92225 0.75061 0.34497 1.59600
Gd	Gd	0.74278 0.40998 0.48659 1.30600
P 	P 	0.45460 0.15792 0.00694 0.55100
P 	P 	0.04540 0.34208 0.50694 0.55000
P 	P 	0.54540 0.84208 0.99306 0.55100
P 	P 	0.95460 0.65792 0.49306 0.55000
H 	H 	0.35870 0.31290 0.00950 0.10500
H 	H 	0.26810 0.17650 0.95580 0.11000
H 	H 	0.39990 0.21250 0.91650 0.11500
H 	H 	0.58280 0.33940 0.97350 0.15500
H 	H 	0.53300 0.36270 0.91100 0.14200
H 	H 	0.53720 0.42880 0.96550 0.15300
H 	H 	0.18780 0.31640 0.94780 0.15700
H 	H 	0.30180 0.41370 0.95090 0.17200
H 	H 	0.29600 0.34750 0.89630 0.17200
H 	H 	0.14130 0.18710 0.50950 0.10500
H 	H 	0.23190 0.32350 0.45580 0.11000
H 	H 	0.10010 0.28750 0.41650 0.11400
H 	H 	0.91720 0.16060 0.47350 0.15500
H 	H 	0.96700 0.13730 0.41100 0.14200
H 	H 	0.96280 0.07120 0.46550 0.15300
H 	H 	0.31220 0.18360 0.44780 0.15700
H 	H 	0.19820 0.08630 0.45090 0.17100
H 	H 	0.20400 0.15250 0.39630 0.17200
H 	H 	0.64130 0.68710 0.99050 0.10500
H 	H 	0.73190 0.82350 0.04420 0.11000
H 	H 	0.60010 0.78750 0.08350 0.11500
H 	H 	0.41720 0.66060 0.02650 0.15500
H 	H 	0.46700 0.63730 0.08900 0.14200
H 	H 	0.46280 0.57120 0.03450 0.15300
H 	H 	0.81220 0.68360 0.05220 0.15700
H 	H 	0.69820 0.58630 0.04910 0.17200
H 	H 	0.70400 0.65250 0.10370 0.17200
H 	H 	0.85870 0.81290 0.49050 0.10500
H 	H 	0.76810 0.67650 0.54420 0.11000
H 	H 	0.89990 0.71250 0.58350 0.11400
H 	H 	0.08280 0.83940 0.52650 0.15500
H 	H 	0.03300 0.86270 0.58900 0.14200
H 	H 	0.03720 0.92880 0.53450 0.15300
H 	H 	0.68780 0.81640 0.55220 0.15700
H 	H 	0.80180 0.91370 0.54910 0.17100
H 	H 	0.79600 0.84750 0.60370 0.17200
C 	C 	0.22530 0.37440 0.18020 0.25400
C 	C 	0.24780 0.38600 0.11230 0.23900
C 	C 	0.98180 0.66760 0.22010 0.25100
C 	C 	0.95840 0.58440 0.26430 0.26400
C 	C 	0.75170 0.33350 0.16260 0.23700
C 	C 	0.70690 0.42150 0.15060 0.26700
C 	C 	0.95730 0.44740 0.00030 0.25700
C 	C 	0.99330 0.00160 0.03470 0.24200
C 	C 	0.36390 0.21390 0.95640 -0.25600
C 	C 	0.52000 0.36510 0.95330 -0.38100
C 	C 	0.28200 0.34990 0.93860 -0.41100
C 	C 	0.27470 0.12560 0.68020 0.25400
C 	C 	0.25220 0.11400 0.61230 0.23900
C 	C 	0.51820 0.83240 0.72010 0.25100
C 	C 	0.54160 0.91560 0.76430 0.26400
C 	C 	0.74830 0.16650 0.66260 0.23700
C 	C 	0.79310 0.07850 0.65060 0.26700
C 	C 	0.54270 0.05260 0.50030 0.25500
C 	C 	0.50670 0.49840 0.53470 0.23900
C 	C 	0.13610 0.28610 0.45640 -0.25600
C 	C 	0.98000 0.13490 0.45330 -0.38000
C 	C 	0.21800 0.15010 0.43860 -0.40900
C 	C 	0.77470 0.62560 0.81980 0.25400
C 	C 	0.75220 0.61400 0.88770 0.23900
C 	C 	0.01820 0.33240 0.77990 0.25100
C 	C 	0.04160 0.41560 0.73570 0.26400
C 	C 	0.24830 0.66650 0.83740 0.23700
C 	C 	0.29310 0.57850 0.84940 0.26700
C 	C 	0.04270 0.55260 0.99970 0.25700
C 	C 	0.00670 0.99840 0.96530 0.24200
C 	C 	0.63610 0.78610 0.04360 -0.25600
C 	C 	0.48000 0.63490 0.04670 -0.38100
C 	C 	0.71800 0.65010 0.06140 -0.41100
C 	C 	0.72530 0.87440 0.31980 0.25400
C 	C 	0.74780 0.88600 0.38770 0.23900
C 	C 	0.48180 0.16760 0.27990 0.25100
C 	C 	0.45840 0.08440 0.23570 0.26400
C 	C 	0.25170 0.83350 0.33740 0.23700
C 	C 	0.20690 0.92150 0.34940 0.26700
C 	C 	0.45730 0.94740 0.49970 0.25500
C 	C 	0.49330 0.50160 0.46530 0.23900
C 	C 	0.86390 0.71390 0.54360 -0.25600
C 	C 	0.02000 0.86510 0.54670 -0.38000
C 	C 	0.78200 0.84990 0.56140 -0.40900
N 	N 	0.37060 0.30790 0.96950 -0.03800
N 	N 	0.12940 0.19210 0.46950 -0.03900
N 	N 	0.62940 0.69210 0.03050 -0.03800
N 	N 	0.87060 0.80790 0.53050 -0.03900
O 	O 	0.28300 0.32490 0.20700 -0.37700
O 	O 	0.14890 0.41640 0.20300 -0.35100
O 	O 	0.19290 0.43860 0.08620 -0.37100
O 	O 	0.32050 0.34150 0.08940 -0.37100
O 	O 	0.95760 0.73870 0.23860 -0.35800
O 	O 	0.02130 0.65550 0.16870 -0.36800
O 	O 	0.92260 0.59790 0.31620 -0.39100
O 	O 	0.98130 0.51330 0.24580 -0.35600
O 	O 	0.57660 0.40550 0.15260 -0.37000
O 	O 	0.79540 0.49590 0.14150 -0.37100
O 	O 	0.66050 0.25600 0.16640 -0.35300
O 	O 	0.87980 0.34740 0.16770 -0.33200
O 	O 	0.92390 0.41040 0.04920 -0.34800
O 	O 	0.92940 0.40860 0.94950 -0.38500
O 	O 	0.07210 0.96760 0.06460 -0.36500
O 	O 	0.91020 0.03840 0.05480 -0.36700
O 	O 	0.35770 0.06280 0.01530 -0.46700
O 	O 	0.58970 0.16010 0.98040 -0.46100
O 	O 	0.47190 0.21470 0.06350 -0.45700
O 	O 	0.21700 0.17510 0.70700 -0.37700
O 	O 	0.35110 0.08360 0.70300 -0.35100
O 	O 	0.30710 0.06140 0.58620 -0.37100
O 	O 	0.17950 0.15850 0.58940 -0.37100
O 	O 	0.54240 0.76130 0.73860 -0.35700
O 	O 	0.47870 0.84450 0.66870 -0.36800
O 	O 	0.57740 0.90210 0.81620 -0.39100
O 	O 	0.51870 0.98670 0.74580 -0.35700
O 	O 	0.92340 0.09450 0.65260 -0.36900
O 	O 	0.70460 0.00410 0.64150 -0.37100
O 	O 	0.83950 0.24400 0.66640 -0.35300
O 	O 	0.62020 0.15260 0.66770 -0.33300
O 	O 	0.57610 0.08960 0.54920 -0.34800
O 	O 	0.57060 0.09140 0.44950 -0.38400
O 	O 	0.42790 0.53240 0.56460 -0.36300
O 	O 	0.58980 0.46160 0.55480 -0.36800
O 	O 	0.14230 0.43720 0.51530 -0.46600
O 	O 	0.91030 0.33990 0.48040 -0.46000
O 	O 	0.02810 0.28530 0.56350 -0.45700
O 	O 	0.71700 0.67510 0.79300 -0.37700
O 	O 	0.85110 0.58360 0.79700 -0.35100
O 	O 	0.80710 0.56140 0.91380 -0.37100
O 	O 	0.67950 0.65850 0.91060 -0.37100
O 	O 	0.04240 0.26130 0.76140 -0.35800
O 	O 	0.97870 0.34450 0.83130 -0.36800
O 	O 	0.07740 0.40210 0.68380 -0.39100
O 	O 	0.01870 0.48670 0.75420 -0.35600
O 	O 	0.42340 0.59450 0.84740 -0.37000
O 	O 	0.20460 0.50410 0.85850 -0.37100
O 	O 	0.33950 0.74400 0.83360 -0.35300
O 	O 	0.12020 0.65260 0.83230 -0.33200
O 	O 	0.07610 0.58960 0.95080 -0.34800
O 	O 	0.07060 0.59140 0.05050 -0.38500
O 	O 	0.92790 0.03240 0.93540 -0.36500
O 	O 	0.08980 0.96160 0.94520 -0.36700
O 	O 	0.64230 0.93720 0.98470 -0.46700
O 	O 	0.41030 0.83990 0.01960 -0.46100
O 	O 	0.52810 0.78530 0.93650 -0.45700
O 	O 	0.78300 0.82490 0.29300 -0.37700
O 	O 	0.64890 0.91640 0.29700 -0.35100
O 	O 	0.69290 0.93860 0.41380 -0.37100
O 	O 	0.82050 0.84150 0.41060 -0.37100
O 	O 	0.45760 0.23870 0.26140 -0.35700
O 	O 	0.52130 0.15550 0.33130 -0.36800
O 	O 	0.42260 0.09790 0.18380 -0.39100
O 	O 	0.48130 0.01330 0.25420 -0.35700
O 	O 	0.07660 0.90550 0.34740 -0.36900
O 	O 	0.29540 0.99590 0.35850 -0.37100
O 	O 	0.16050 0.75600 0.33360 -0.35300
O 	O 	0.37980 0.84740 0.33230 -0.33300
O 	O 	0.42390 0.91040 0.45080 -0.34800
O 	O 	0.42940 0.90860 0.55050 -0.38400
O 	O 	0.57210 0.46760 0.43540 -0.36300
O 	O 	0.41020 0.53840 0.44520 -0.36800
O 	O 	0.85770 0.56280 0.48470 -0.46600
O 	O 	0.08970 0.66010 0.51960 -0.46000
O 	O 	0.97190 0.71470 0.43650 -0.45700
