data_crystal

_cell_length_a 8.12170
_cell_length_b 8.96010
_cell_length_c 10.46110
_cell_angle_alpha 111.93000
_cell_angle_beta  103.65500
_cell_angle_gamma 101.90300

_symmetry_space_group_name_	'P 1'
_symmetry_space_group_name_H-M	'P 1'

loop_
_symmetry_equiv_pos_as_xyz
  x,y,z

loop_
_atom_site_label
_atom_site_type_symbol
_atom_site_fract_x
_atom_site_fract_y
_atom_site_fract_z
_atom_site_charge
Ga	Ga	0.19859 0.35167 0.36296 2.08900
Ga	Ga	0.72345 0.00093 0.44691 2.05300
P 	P 	0.45080 0.72570 0.48356 0.67200
P 	P 	0.99090 0.97020 0.29119 0.86500
F 	F 	0.14490 0.22700 0.15800 -1.01200
O 	O 	0.96810 0.40860 0.31390 -0.46100
O 	O 	0.32160 0.55710 0.35830 -0.56000
O 	O 	0.79060 0.51650 0.42970 -0.49100
O 	O 	0.58980 0.70550 0.59350 -0.56800
O 	O 	0.05310 0.16150 0.37440 -0.83800
O 	O 	0.80610 0.90110 0.30010 -0.62100
O 	O 	0.34970 0.82590 0.57200 -0.59300
O 	O 	0.52870 0.82670 0.40880 -0.65300
O 	O 	0.97820 0.89960 0.13210 -0.58700
O 	O 	0.12030 0.89890 0.36660 -0.70900
C 	C 	0.93070 0.47780 0.42550 0.32000
Ga	Ga	0.80141 0.64833 0.63704 2.10100
Ga	Ga	0.27655 0.99907 0.55309 2.09900
P 	P 	0.54920 0.27430 0.51644 0.67200
P 	P 	0.00910 0.02980 0.70881 0.43900
F 	F 	0.85510 0.77300 0.84200 -0.76400
O 	O 	0.03190 0.59140 0.68610 -0.43100
O 	O 	0.67840 0.44290 0.64170 -0.48000
O 	O 	0.20940 0.48350 0.57030 -0.43000
O 	O 	0.41020 0.29450 0.40650 -0.63700
O 	O 	0.94690 0.83850 0.62560 -0.51000
O 	O 	0.19390 0.09890 0.69990 -0.62100
O 	O 	0.65030 0.17410 0.42800 -0.67700
O 	O 	0.47130 0.17330 0.59120 -0.70200
O 	O 	0.02180 0.10040 0.86790 -0.50100
O 	O 	0.87970 0.10110 0.63340 -0.58200
C 	C 	0.06930 0.52220 0.57450 0.14200
Ga	Ga	-0.00000 0.00000 -0.00000 1.97600
