data_crystal

_cell_length_a 21.55990
_cell_length_b 21.55990
_cell_length_c 12.89740
_cell_angle_alpha 90.00000
_cell_angle_beta  90.00000
_cell_angle_gamma 90.00000

_symmetry_space_group_name_	'P 1'
_symmetry_space_group_name_H-M	'P 1'

loop_
_symmetry_equiv_pos_as_xyz
  x,y,z

loop_
_atom_site_label
_atom_site_type_symbol
_atom_site_fract_x
_atom_site_fract_y
_atom_site_fract_z
_atom_site_charge
Cu	Cu	0.05812 0.31314 0.68584 0.89700
O 	O 	0.14595 0.26221 0.56020 -0.47100
O 	O 	0.05305 0.30172 0.53160 -0.38300
O 	O 	0.09439 0.39404 0.66540 -0.36400
N 	N 	0.16338 0.22898 0.36520 -0.21200
H 	H 	0.16320 0.19350 0.32430 0.07500
N 	N 	0.09811 0.31818 0.82610 -0.23200
H 	H 	0.12130 0.28200 0.83270 0.06900
C 	C 	0.09960 0.27183 0.50210 0.33600
C 	C 	0.09797 0.24310 0.39570 -0.16500
H 	H 	0.07930 0.27300 0.34520 0.09500
C 	C 	0.05970 0.18430 0.39890 0.00300
C 	C 	0.19123 0.28050 0.30380 -0.10200
H 	H 	0.23530 0.27080 0.28940 0.02100
H 	H 	0.19000 0.31910 0.34550 0.04100
C 	C 	0.15759 0.29140 0.20200 0.03700
C 	C 	0.15410 0.24610 0.12720 -0.07000
H 	H 	0.17510 0.20790 0.13790 0.03400
C 	C 	0.12130 0.25450 0.03800 -0.06900
H 	H 	0.11920 0.22180 0.98870 0.03400
C 	C 	0.09101 0.30950 0.01790 0.03600
C 	C 	0.09590 0.35620 0.09230 -0.06800
H 	H 	0.07610 0.39490 0.08070 0.04400
C 	C 	0.12850 0.34700 0.18140 -0.07300
H 	H 	0.13130 0.37980 0.23050 0.05100
C 	C 	0.12908 0.41378 0.73680 0.31700
C 	C 	0.14388 0.36931 0.82600 -0.01200
H 	H 	0.14120 0.39230 0.89320 0.03400
C 	C 	0.20992 0.34300 0.81300 -0.41400
H 	H 	0.21280 0.30400 0.85340 0.13300
H 	H 	0.21590 0.33210 0.73910 0.13000
C 	C 	0.26250 0.38460 0.84560 0.56500
H 	H 	0.25770 0.42480 0.80780 -0.14900
C 	C 	0.26270 0.39870 0.95940 -0.86100
H 	H 	0.29790 0.42590 0.97570 0.25300
H 	H 	0.26660 0.36000 0.99870 0.25300
H 	H 	0.22390 0.41950 0.97830 0.27200
C 	C 	0.32340 0.35650 0.81250 -0.84800
H 	H 	0.35750 0.38370 0.83390 0.24800
H 	H 	0.32390 0.35190 0.73690 0.24500
H 	H 	0.32840 0.31580 0.84510 0.24700
C 	C 	0.05630 0.31930 0.91750 -0.10600
H 	H 	0.02460 0.28650 0.90980 0.03500
H 	H 	0.03470 0.35980 0.92000 0.05600
O 	O 	0.15396 0.46528 0.73810 -0.35700
C 	C 	0.02420 0.16670 0.30350 -0.24100
H 	H 	0.05640 0.15090 0.25440 0.08500
C 	C 	0.98920 0.21620 0.24180 0.13700
H 	H 	0.96010 0.23780 0.28770 -0.19100
H 	H 	0.96630 0.19650 0.18510 0.02400
H 	H 	0.01890 0.24610 0.21320 -0.02200
C 	C 	0.98100 0.11150 0.32070 0.24900
H 	H 	0.00270 0.07950 0.36080 0.04200
H 	H 	0.96840 0.09430 0.25350 -0.10600
H 	H 	0.94410 0.12510 0.35890 0.19600
C 	C 	0.99340 0.18380 0.39350 0.12200
H 	H 	0.97850 0.20560 0.45730 -0.02200
C 	C 	0.97060 0.11600 0.40300 -0.80700
H 	H 	0.98390 0.09240 0.34200 0.02500
H 	H 	0.92520 0.11540 0.40750 0.12700
H 	H 	0.98820 0.09720 0.46560 0.25200
C 	C 	0.97100 0.22290 0.30170 0.21900
H 	H 	0.99580 0.26100 0.29740 -0.00500
H 	H 	0.92730 0.23370 0.31150 0.01800
H 	H 	0.97580 0.19920 0.23740 -0.12900
Cu	Cu	0.94188 0.68686 0.68584 0.89600
O 	O 	0.85405 0.73779 0.56020 -0.47200
O 	O 	0.94695 0.69828 0.53160 -0.38400
O 	O 	0.90561 0.60596 0.66540 -0.36500
N 	N 	0.83662 0.77102 0.36520 -0.21300
H 	H 	0.83680 0.80650 0.32430 0.07400
N 	N 	0.90189 0.68182 0.82610 -0.23300
H 	H 	0.87870 0.71800 0.83270 0.06800
C 	C 	0.90040 0.72817 0.50210 0.33500
C 	C 	0.90203 0.75690 0.39570 -0.16600
H 	H 	0.92070 0.72700 0.34520 0.09400
C 	C 	0.94030 0.81570 0.39890 0.00200
C 	C 	0.80877 0.71950 0.30380 -0.10300
H 	H 	0.76470 0.72920 0.28940 0.02000
H 	H 	0.81000 0.68090 0.34550 0.04000
C 	C 	0.84241 0.70860 0.20200 0.03600
C 	C 	0.84590 0.75390 0.12720 -0.07100
H 	H 	0.82490 0.79210 0.13790 0.03300
C 	C 	0.87870 0.74550 0.03800 -0.07000
H 	H 	0.88080 0.77820 0.98870 0.03300
C 	C 	0.90899 0.69050 0.01790 0.03600
C 	C 	0.90410 0.64380 0.09230 -0.06800
H 	H 	0.92390 0.60510 0.08070 0.04400
C 	C 	0.87150 0.65300 0.18140 -0.07300
H 	H 	0.86870 0.62020 0.23050 0.05100
C 	C 	0.87092 0.58622 0.73680 0.31700
C 	C 	0.85612 0.63069 0.82600 -0.01200
H 	H 	0.85880 0.60770 0.89320 0.03400
C 	C 	0.79008 0.65700 0.81300 -0.41400
H 	H 	0.78720 0.69600 0.85340 0.13300
H 	H 	0.78410 0.66790 0.73910 0.13000
C 	C 	0.73750 0.61540 0.84560 0.56500
H 	H 	0.74230 0.57520 0.80780 -0.14900
C 	C 	0.73730 0.60130 0.95940 -0.86100
H 	H 	0.70210 0.57410 0.97570 0.25300
H 	H 	0.73340 0.64000 0.99870 0.25300
H 	H 	0.77610 0.58050 0.97830 0.27200
C 	C 	0.67660 0.64350 0.81250 -0.84800
H 	H 	0.64250 0.61630 0.83390 0.24800
H 	H 	0.67610 0.64810 0.73690 0.24500
H 	H 	0.67160 0.68420 0.84510 0.24700
C 	C 	0.94370 0.68070 0.91750 -0.10600
H 	H 	0.97540 0.71350 0.90980 0.03500
H 	H 	0.96530 0.64020 0.92000 0.05600
O 	O 	0.84604 0.53472 0.73810 -0.35700
C 	C 	0.97580 0.83330 0.30350 -0.24100
H 	H 	0.94360 0.84910 0.25440 0.08500
C 	C 	0.01080 0.78380 0.24180 0.13700
H 	H 	0.03990 0.76220 0.28770 -0.19100
H 	H 	0.03370 0.80350 0.18510 0.02400
H 	H 	0.98110 0.75390 0.21320 -0.02200
C 	C 	0.01900 0.88850 0.32070 0.24900
H 	H 	0.99730 0.92050 0.36080 0.04200
H 	H 	0.03160 0.90570 0.25350 -0.10600
H 	H 	0.05590 0.87490 0.35890 0.19600
C 	C 	0.00660 0.81620 0.39350 0.12200
H 	H 	0.02150 0.79440 0.45730 -0.02200
C 	C 	0.02940 0.88400 0.40300 -0.80700
H 	H 	0.01610 0.90760 0.34200 0.02500
H 	H 	0.07480 0.88460 0.40750 0.12700
H 	H 	0.01180 0.90280 0.46560 0.25200
C 	C 	0.02900 0.77710 0.30170 0.21900
H 	H 	0.00420 0.73900 0.29740 -0.00500
H 	H 	0.07270 0.76630 0.31150 0.01800
H 	H 	0.02420 0.80080 0.23740 -0.12900
Cu	Cu	0.18686 0.55812 0.68584 0.89600
O 	O 	0.23779 0.64595 0.56020 -0.47200
O 	O 	0.19828 0.55305 0.53160 -0.38400
O 	O 	0.10596 0.59439 0.66540 -0.36500
N 	N 	0.27102 0.66338 0.36520 -0.21300
H 	H 	0.30650 0.66320 0.32430 0.07400
N 	N 	0.18182 0.59811 0.82610 -0.23300
H 	H 	0.21800 0.62130 0.83270 0.06800
C 	C 	0.22817 0.59960 0.50210 0.33500
C 	C 	0.25690 0.59797 0.39570 -0.16600
H 	H 	0.22700 0.57930 0.34520 0.09400
C 	C 	0.31570 0.55970 0.39890 0.00200
C 	C 	0.21950 0.69123 0.30380 -0.10300
H 	H 	0.22920 0.73530 0.28940 0.02000
H 	H 	0.18090 0.69000 0.34550 0.04000
C 	C 	0.20860 0.65759 0.20200 0.03600
C 	C 	0.25390 0.65410 0.12720 -0.07100
H 	H 	0.29210 0.67510 0.13790 0.03300
C 	C 	0.24550 0.62130 0.03800 -0.07000
H 	H 	0.27820 0.61920 0.98870 0.03300
C 	C 	0.19050 0.59101 0.01790 0.03600
C 	C 	0.14380 0.59590 0.09230 -0.06800
H 	H 	0.10510 0.57610 0.08070 0.04400
C 	C 	0.15300 0.62850 0.18140 -0.07300
H 	H 	0.12020 0.63130 0.23050 0.05100
C 	C 	0.08622 0.62908 0.73680 0.31700
C 	C 	0.13069 0.64388 0.82600 -0.01200
H 	H 	0.10770 0.64120 0.89320 0.03400
C 	C 	0.15700 0.70992 0.81300 -0.41400
H 	H 	0.19600 0.71280 0.85340 0.13300
H 	H 	0.16790 0.71590 0.73910 0.13000
C 	C 	0.11540 0.76250 0.84560 0.56500
H 	H 	0.07520 0.75770 0.80780 -0.14900
C 	C 	0.10130 0.76270 0.95940 -0.86100
H 	H 	0.07410 0.79790 0.97570 0.25300
H 	H 	0.14000 0.76660 0.99870 0.25300
H 	H 	0.08050 0.72390 0.97830 0.27100
C 	C 	0.14350 0.82340 0.81250 -0.84700
H 	H 	0.11630 0.85750 0.83390 0.24800
H 	H 	0.14810 0.82390 0.73690 0.24500
H 	H 	0.18420 0.82840 0.84510 0.24700
C 	C 	0.18070 0.55630 0.91750 -0.10600
H 	H 	0.21350 0.52460 0.90980 0.03500
H 	H 	0.14020 0.53470 0.92000 0.05600
O 	O 	0.03472 0.65396 0.73810 -0.35700
C 	C 	0.33330 0.52420 0.30350 -0.24100
H 	H 	0.34910 0.55640 0.25440 0.08500
C 	C 	0.28380 0.48920 0.24180 0.13700
H 	H 	0.26220 0.46010 0.28770 -0.19100
H 	H 	0.30350 0.46630 0.18510 0.02400
H 	H 	0.25390 0.51890 0.21320 -0.02200
C 	C 	0.38850 0.48100 0.32070 0.24900
H 	H 	0.42050 0.50270 0.36080 0.04200
H 	H 	0.40570 0.46840 0.25350 -0.10600
H 	H 	0.37490 0.44410 0.35890 0.19600
C 	C 	0.31620 0.49340 0.39350 0.12200
H 	H 	0.29440 0.47850 0.45730 -0.02200
C 	C 	0.38400 0.47060 0.40300 -0.80700
H 	H 	0.40760 0.48390 0.34200 0.02500
H 	H 	0.38460 0.42520 0.40750 0.12700
H 	H 	0.40280 0.48820 0.46560 0.25200
C 	C 	0.27710 0.47100 0.30170 0.21900
H 	H 	0.23900 0.49580 0.29740 -0.00500
H 	H 	0.26630 0.42730 0.31150 0.01800
H 	H 	0.30080 0.47580 0.23740 -0.12900
Cu	Cu	0.81314 0.44188 0.68584 0.89600
O 	O 	0.76221 0.35405 0.56020 -0.47200
O 	O 	0.80172 0.44695 0.53160 -0.38400
O 	O 	0.89404 0.40561 0.66540 -0.36500
N 	N 	0.72898 0.33662 0.36520 -0.21300
H 	H 	0.69350 0.33680 0.32430 0.07400
N 	N 	0.81818 0.40189 0.82610 -0.23300
H 	H 	0.78200 0.37870 0.83270 0.06800
C 	C 	0.77183 0.40040 0.50210 0.33500
C 	C 	0.74310 0.40203 0.39570 -0.16600
H 	H 	0.77300 0.42070 0.34520 0.09400
C 	C 	0.68430 0.44030 0.39890 0.00200
C 	C 	0.78050 0.30877 0.30380 -0.10300
H 	H 	0.77080 0.26470 0.28940 0.02000
H 	H 	0.81910 0.31000 0.34550 0.04000
C 	C 	0.79140 0.34241 0.20200 0.03600
C 	C 	0.74610 0.34590 0.12720 -0.07100
H 	H 	0.70790 0.32490 0.13790 0.03300
C 	C 	0.75450 0.37870 0.03800 -0.07000
H 	H 	0.72180 0.38080 0.98870 0.03300
C 	C 	0.80950 0.40899 0.01790 0.03600
C 	C 	0.85620 0.40410 0.09230 -0.06800
H 	H 	0.89490 0.42390 0.08070 0.04400
C 	C 	0.84700 0.37150 0.18140 -0.07300
H 	H 	0.87980 0.36870 0.23050 0.05100
C 	C 	0.91378 0.37092 0.73680 0.31700
C 	C 	0.86931 0.35612 0.82600 -0.01200
H 	H 	0.89230 0.35880 0.89320 0.03400
C 	C 	0.84300 0.29008 0.81300 -0.41400
H 	H 	0.80400 0.28720 0.85340 0.13300
H 	H 	0.83210 0.28410 0.73910 0.13000
C 	C 	0.88460 0.23750 0.84560 0.56500
H 	H 	0.92480 0.24230 0.80780 -0.14900
C 	C 	0.89870 0.23730 0.95940 -0.86100
H 	H 	0.92590 0.20210 0.97570 0.25300
H 	H 	0.86000 0.23340 0.99870 0.25300
H 	H 	0.91950 0.27610 0.97830 0.27100
C 	C 	0.85650 0.17660 0.81250 -0.84700
H 	H 	0.88370 0.14250 0.83390 0.24800
H 	H 	0.85190 0.17610 0.73690 0.24500
H 	H 	0.81580 0.17160 0.84510 0.24700
C 	C 	0.81930 0.44370 0.91750 -0.10600
H 	H 	0.78650 0.47540 0.90980 0.03500
H 	H 	0.85980 0.46530 0.92000 0.05600
O 	O 	0.96528 0.34604 0.73810 -0.35700
C 	C 	0.66670 0.47580 0.30350 -0.24100
H 	H 	0.65090 0.44360 0.25440 0.08500
C 	C 	0.71620 0.51080 0.24180 0.13700
H 	H 	0.73780 0.53990 0.28770 -0.19100
H 	H 	0.69650 0.53370 0.18510 0.02400
H 	H 	0.74610 0.48110 0.21320 -0.02200
C 	C 	0.61150 0.51900 0.32070 0.24900
H 	H 	0.57950 0.49730 0.36080 0.04200
H 	H 	0.59430 0.53160 0.25350 -0.10600
H 	H 	0.62510 0.55590 0.35890 0.19600
C 	C 	0.68380 0.50660 0.39350 0.12200
H 	H 	0.70560 0.52150 0.45730 -0.02200
C 	C 	0.61600 0.52940 0.40300 -0.80700
H 	H 	0.59240 0.51610 0.34200 0.02500
H 	H 	0.61540 0.57480 0.40750 0.12700
H 	H 	0.59720 0.51180 0.46560 0.25200
C 	C 	0.72290 0.52900 0.30170 0.21900
H 	H 	0.76100 0.50420 0.29740 -0.00500
H 	H 	0.73370 0.57270 0.31150 0.01800
H 	H 	0.69920 0.52420 0.23740 -0.12900
Cu	Cu	0.44188 0.81314 0.31416 0.89600
O 	O 	0.35405 0.76221 0.43980 -0.47200
O 	O 	0.44695 0.80172 0.46840 -0.38400
O 	O 	0.40561 0.89404 0.33460 -0.36500
N 	N 	0.33662 0.72898 0.63480 -0.21300
H 	H 	0.33680 0.69350 0.67570 0.07400
N 	N 	0.40189 0.81818 0.17390 -0.23300
H 	H 	0.37870 0.78200 0.16730 0.06800
C 	C 	0.40040 0.77183 0.49790 0.33500
C 	C 	0.40203 0.74310 0.60430 -0.16600
H 	H 	0.42070 0.77300 0.65480 0.09400
C 	C 	0.44030 0.68430 0.60110 0.00200
C 	C 	0.30877 0.78050 0.69620 -0.10300
H 	H 	0.26470 0.77080 0.71060 0.02000
H 	H 	0.31000 0.81910 0.65450 0.04000
C 	C 	0.34241 0.79140 0.79800 0.03600
C 	C 	0.34590 0.74610 0.87280 -0.07100
H 	H 	0.32490 0.70790 0.86210 0.03300
C 	C 	0.37870 0.75450 0.96200 -0.07000
H 	H 	0.38080 0.72180 0.01130 0.03300
C 	C 	0.40899 0.80950 0.98210 0.03600
C 	C 	0.40410 0.85620 0.90770 -0.06800
H 	H 	0.42390 0.89490 0.91930 0.04400
C 	C 	0.37150 0.84700 0.81860 -0.07300
H 	H 	0.36870 0.87980 0.76950 0.05100
C 	C 	0.37092 0.91378 0.26320 0.31700
C 	C 	0.35612 0.86931 0.17400 -0.01200
H 	H 	0.35880 0.89230 0.10680 0.03400
C 	C 	0.29008 0.84300 0.18700 -0.41400
H 	H 	0.28720 0.80400 0.14660 0.13300
H 	H 	0.28410 0.83210 0.26090 0.13000
C 	C 	0.23750 0.88460 0.15440 0.56500
H 	H 	0.24230 0.92480 0.19220 -0.14900
C 	C 	0.23730 0.89870 0.04060 -0.86100
H 	H 	0.20210 0.92590 0.02430 0.25300
H 	H 	0.23340 0.86000 0.00130 0.25300
H 	H 	0.27610 0.91950 0.02170 0.27100
C 	C 	0.17660 0.85650 0.18750 -0.84700
H 	H 	0.14250 0.88370 0.16610 0.24800
H 	H 	0.17610 0.85190 0.26310 0.24500
H 	H 	0.17160 0.81580 0.15490 0.24700
C 	C 	0.44370 0.81930 0.08250 -0.10600
H 	H 	0.47540 0.78650 0.09020 0.03500
H 	H 	0.46530 0.85980 0.08000 0.05600
O 	O 	0.34604 0.96528 0.26190 -0.35700
C 	C 	0.47580 0.66670 0.69650 -0.24100
H 	H 	0.44360 0.65090 0.74560 0.08500
C 	C 	0.51080 0.71620 0.75820 0.13700
H 	H 	0.53990 0.73780 0.71230 -0.19100
H 	H 	0.53370 0.69650 0.81490 0.02400
H 	H 	0.48110 0.74610 0.78680 -0.02200
C 	C 	0.51900 0.61150 0.67930 0.24900
H 	H 	0.49730 0.57950 0.63920 0.04200
H 	H 	0.53160 0.59430 0.74650 -0.10600
H 	H 	0.55590 0.62510 0.64110 0.19600
C 	C 	0.50660 0.68380 0.60650 0.12200
H 	H 	0.52150 0.70560 0.54270 -0.02200
C 	C 	0.52940 0.61600 0.59700 -0.80700
H 	H 	0.51610 0.59240 0.65800 0.02500
H 	H 	0.57480 0.61540 0.59250 0.12700
H 	H 	0.51180 0.59720 0.53440 0.25200
C 	C 	0.52900 0.72290 0.69830 0.21900
H 	H 	0.50420 0.76100 0.70260 -0.00500
H 	H 	0.57270 0.73370 0.68850 0.01800
H 	H 	0.52420 0.69920 0.76260 -0.12900
Cu	Cu	0.55812 0.18686 0.31416 0.89600
O 	O 	0.64595 0.23779 0.43980 -0.47200
O 	O 	0.55305 0.19828 0.46840 -0.38400
O 	O 	0.59439 0.10596 0.33460 -0.36500
N 	N 	0.66338 0.27102 0.63480 -0.21300
H 	H 	0.66320 0.30650 0.67570 0.07400
N 	N 	0.59811 0.18182 0.17390 -0.23300
H 	H 	0.62130 0.21800 0.16730 0.06800
C 	C 	0.59960 0.22817 0.49790 0.33500
C 	C 	0.59797 0.25690 0.60430 -0.16600
H 	H 	0.57930 0.22700 0.65480 0.09400
C 	C 	0.55970 0.31570 0.60110 0.00200
C 	C 	0.69123 0.21950 0.69620 -0.10300
H 	H 	0.73530 0.22920 0.71060 0.02000
H 	H 	0.69000 0.18090 0.65450 0.04000
C 	C 	0.65759 0.20860 0.79800 0.03600
C 	C 	0.65410 0.25390 0.87280 -0.07100
H 	H 	0.67510 0.29210 0.86210 0.03300
C 	C 	0.62130 0.24550 0.96200 -0.07000
H 	H 	0.61920 0.27820 0.01130 0.03300
C 	C 	0.59101 0.19050 0.98210 0.03600
C 	C 	0.59590 0.14380 0.90770 -0.06800
H 	H 	0.57610 0.10510 0.91930 0.04400
C 	C 	0.62850 0.15300 0.81860 -0.07300
H 	H 	0.63130 0.12020 0.76950 0.05100
C 	C 	0.62908 0.08622 0.26320 0.31700
C 	C 	0.64388 0.13069 0.17400 -0.01200
H 	H 	0.64120 0.10770 0.10680 0.03400
C 	C 	0.70992 0.15700 0.18700 -0.41400
H 	H 	0.71280 0.19600 0.14660 0.13300
H 	H 	0.71590 0.16790 0.26090 0.13000
C 	C 	0.76250 0.11540 0.15440 0.56500
H 	H 	0.75770 0.07520 0.19220 -0.14900
C 	C 	0.76270 0.10130 0.04060 -0.86100
H 	H 	0.79790 0.07410 0.02430 0.25300
H 	H 	0.76660 0.14000 0.00130 0.25300
H 	H 	0.72390 0.08050 0.02170 0.27100
C 	C 	0.82340 0.14350 0.18750 -0.84700
H 	H 	0.85750 0.11630 0.16610 0.24800
H 	H 	0.82390 0.14810 0.26310 0.24500
H 	H 	0.82840 0.18420 0.15490 0.24700
C 	C 	0.55630 0.18070 0.08250 -0.10600
H 	H 	0.52460 0.21350 0.09020 0.03500
H 	H 	0.53470 0.14020 0.08000 0.05600
O 	O 	0.65396 0.03472 0.26190 -0.35700
C 	C 	0.52420 0.33330 0.69650 -0.24100
H 	H 	0.55640 0.34910 0.74560 0.08500
C 	C 	0.48920 0.28380 0.75820 0.13700
H 	H 	0.46010 0.26220 0.71230 -0.19100
H 	H 	0.46630 0.30350 0.81490 0.02400
H 	H 	0.51890 0.25390 0.78680 -0.02200
C 	C 	0.48100 0.38850 0.67930 0.24900
H 	H 	0.50270 0.42050 0.63920 0.04200
H 	H 	0.46840 0.40570 0.74650 -0.10600
H 	H 	0.44410 0.37490 0.64110 0.19600
C 	C 	0.49340 0.31620 0.60650 0.12200
H 	H 	0.47850 0.29440 0.54270 -0.02200
C 	C 	0.47060 0.38400 0.59700 -0.80700
H 	H 	0.48390 0.40760 0.65800 0.02500
H 	H 	0.42520 0.38460 0.59250 0.12700
H 	H 	0.48820 0.40280 0.53440 0.25200
C 	C 	0.47100 0.27710 0.69830 0.21900
H 	H 	0.49580 0.23900 0.70260 -0.00500
H 	H 	0.42730 0.26630 0.68850 0.01800
H 	H 	0.47580 0.30080 0.76260 -0.12900
Cu	Cu	0.31314 0.05812 0.31416 0.89600
O 	O 	0.26221 0.14595 0.43980 -0.47200
O 	O 	0.30172 0.05305 0.46840 -0.38400
O 	O 	0.39404 0.09439 0.33460 -0.36500
N 	N 	0.22898 0.16338 0.63480 -0.21300
H 	H 	0.19350 0.16320 0.67570 0.07400
N 	N 	0.31818 0.09811 0.17390 -0.23300
H 	H 	0.28200 0.12130 0.16730 0.06800
C 	C 	0.27183 0.09960 0.49790 0.33500
C 	C 	0.24310 0.09797 0.60430 -0.16600
H 	H 	0.27300 0.07930 0.65480 0.09400
C 	C 	0.18430 0.05970 0.60110 0.00200
C 	C 	0.28050 0.19123 0.69620 -0.10300
H 	H 	0.27080 0.23530 0.71060 0.02000
H 	H 	0.31910 0.19000 0.65450 0.04000
C 	C 	0.29140 0.15759 0.79800 0.03600
C 	C 	0.24610 0.15410 0.87280 -0.07100
H 	H 	0.20790 0.17510 0.86210 0.03300
C 	C 	0.25450 0.12130 0.96200 -0.07000
H 	H 	0.22180 0.11920 0.01130 0.03300
C 	C 	0.30950 0.09101 0.98210 0.03600
C 	C 	0.35620 0.09590 0.90770 -0.06800
H 	H 	0.39490 0.07610 0.91930 0.04400
C 	C 	0.34700 0.12850 0.81860 -0.07300
H 	H 	0.37980 0.13130 0.76950 0.05100
C 	C 	0.41378 0.12908 0.26320 0.31700
C 	C 	0.36931 0.14388 0.17400 -0.01200
H 	H 	0.39230 0.14120 0.10680 0.03400
C 	C 	0.34300 0.20992 0.18700 -0.41400
H 	H 	0.30400 0.21280 0.14660 0.13300
H 	H 	0.33210 0.21590 0.26090 0.13000
C 	C 	0.38460 0.26250 0.15440 0.56500
H 	H 	0.42480 0.25770 0.19220 -0.14900
C 	C 	0.39870 0.26270 0.04060 -0.86100
H 	H 	0.42590 0.29790 0.02430 0.25300
H 	H 	0.36000 0.26660 0.00130 0.25300
H 	H 	0.41950 0.22390 0.02170 0.27200
C 	C 	0.35650 0.32340 0.18750 -0.84800
H 	H 	0.38370 0.35750 0.16610 0.24800
H 	H 	0.35190 0.32390 0.26310 0.24500
H 	H 	0.31580 0.32840 0.15490 0.24700
C 	C 	0.31930 0.05630 0.08250 -0.10600
H 	H 	0.28650 0.02460 0.09020 0.03500
H 	H 	0.35980 0.03470 0.08000 0.05600
O 	O 	0.46528 0.15396 0.26190 -0.35700
C 	C 	0.16670 0.02420 0.69650 -0.24100
H 	H 	0.15090 0.05640 0.74560 0.08500
C 	C 	0.21620 0.98920 0.75820 0.13700
H 	H 	0.23780 0.96010 0.71230 -0.19100
H 	H 	0.19650 0.96630 0.81490 0.02400
H 	H 	0.24610 0.01890 0.78680 -0.02200
C 	C 	0.11150 0.98100 0.67930 0.24900
H 	H 	0.07950 0.00270 0.63920 0.04200
H 	H 	0.09430 0.96840 0.74650 -0.10600
H 	H 	0.12510 0.94410 0.64110 0.19600
C 	C 	0.18380 0.99340 0.60650 0.12200
H 	H 	0.20560 0.97850 0.54270 -0.02200
C 	C 	0.11600 0.97060 0.59700 -0.80700
H 	H 	0.09240 0.98390 0.65800 0.02500
H 	H 	0.11540 0.92520 0.59250 0.12700
H 	H 	0.09720 0.98820 0.53440 0.25200
C 	C 	0.22290 0.97100 0.69830 0.21900
H 	H 	0.26100 0.99580 0.70260 -0.00500
H 	H 	0.23370 0.92730 0.68850 0.01800
H 	H 	0.19920 0.97580 0.76260 -0.12900
Cu	Cu	0.68686 0.94188 0.31416 0.89600
O 	O 	0.73779 0.85405 0.43980 -0.47200
O 	O 	0.69828 0.94695 0.46840 -0.38400
O 	O 	0.60596 0.90561 0.33460 -0.36500
N 	N 	0.77102 0.83662 0.63480 -0.21300
H 	H 	0.80650 0.83680 0.67570 0.07400
N 	N 	0.68182 0.90189 0.17390 -0.23300
H 	H 	0.71800 0.87870 0.16730 0.06800
C 	C 	0.72817 0.90040 0.49790 0.33500
C 	C 	0.75690 0.90203 0.60430 -0.16600
H 	H 	0.72700 0.92070 0.65480 0.09400
C 	C 	0.81570 0.94030 0.60110 0.00200
C 	C 	0.71950 0.80877 0.69620 -0.10300
H 	H 	0.72920 0.76470 0.71060 0.02000
H 	H 	0.68090 0.81000 0.65450 0.04000
C 	C 	0.70860 0.84241 0.79800 0.03600
C 	C 	0.75390 0.84590 0.87280 -0.07100
H 	H 	0.79210 0.82490 0.86210 0.03300
C 	C 	0.74550 0.87870 0.96200 -0.07000
H 	H 	0.77820 0.88080 0.01130 0.03300
C 	C 	0.69050 0.90899 0.98210 0.03600
C 	C 	0.64380 0.90410 0.90770 -0.06800
H 	H 	0.60510 0.92390 0.91930 0.04400
C 	C 	0.65300 0.87150 0.81860 -0.07300
H 	H 	0.62020 0.86870 0.76950 0.05100
C 	C 	0.58622 0.87092 0.26320 0.31700
C 	C 	0.63069 0.85612 0.17400 -0.01200
H 	H 	0.60770 0.85880 0.10680 0.03400
C 	C 	0.65700 0.79008 0.18700 -0.41400
H 	H 	0.69600 0.78720 0.14660 0.13300
H 	H 	0.66790 0.78410 0.26090 0.13000
C 	C 	0.61540 0.73750 0.15440 0.56500
H 	H 	0.57520 0.74230 0.19220 -0.14900
C 	C 	0.60130 0.73730 0.04060 -0.86100
H 	H 	0.57410 0.70210 0.02430 0.25300
H 	H 	0.64000 0.73340 0.00130 0.25300
H 	H 	0.58050 0.77610 0.02170 0.27200
C 	C 	0.64350 0.67660 0.18750 -0.84800
H 	H 	0.61630 0.64250 0.16610 0.24800
H 	H 	0.64810 0.67610 0.26310 0.24500
H 	H 	0.68420 0.67160 0.15490 0.24700
C 	C 	0.68070 0.94370 0.08250 -0.10600
H 	H 	0.71350 0.97540 0.09020 0.03500
H 	H 	0.64020 0.96530 0.08000 0.05600
O 	O 	0.53472 0.84604 0.26190 -0.35700
C 	C 	0.83330 0.97580 0.69650 -0.24100
H 	H 	0.84910 0.94360 0.74560 0.08500
C 	C 	0.78380 0.01080 0.75820 0.13700
H 	H 	0.76220 0.03990 0.71230 -0.19100
H 	H 	0.80350 0.03370 0.81490 0.02400
H 	H 	0.75390 0.98110 0.78680 -0.02200
C 	C 	0.88850 0.01900 0.67930 0.24900
H 	H 	0.92050 0.99730 0.63920 0.04200
H 	H 	0.90570 0.03160 0.74650 -0.10600
H 	H 	0.87490 0.05590 0.64110 0.19600
C 	C 	0.81620 0.00660 0.60650 0.12200
H 	H 	0.79440 0.02150 0.54270 -0.02200
C 	C 	0.88400 0.02940 0.59700 -0.80700
H 	H 	0.90760 0.01610 0.65800 0.02500
H 	H 	0.88460 0.07480 0.59250 0.12700
H 	H 	0.90280 0.01180 0.53440 0.25200
C 	C 	0.77710 0.02900 0.69830 0.21900
H 	H 	0.73900 0.00420 0.70260 -0.00500
H 	H 	0.76630 0.07270 0.68850 0.01800
H 	H 	0.80080 0.02420 0.76260 -0.12900
Cu	Cu	0.20947 0.20947 0.50000 0.87900
Cu	Cu	0.79053 0.79053 0.50000 0.87900
Cu	Cu	0.29053 0.70947 0.50000 0.87900
Cu	Cu	0.70947 0.29053 0.50000 0.87900
