data_crystal

_cell_length_a 11.07800
_cell_length_b 16.01200
_cell_length_c 23.80400
_cell_angle_alpha 90.00000
_cell_angle_beta  95.33300
_cell_angle_gamma 90.00000

_symmetry_space_group_name_	'P 1'
_symmetry_space_group_name_H-M	'P 1'

loop_
_symmetry_equiv_pos_as_xyz
  x,y,z

loop_
_atom_site_label
_atom_site_type_symbol
_atom_site_fract_x
_atom_site_fract_y
_atom_site_fract_z
_atom_site_charge
Zn	Zn	0.95270 0.48228 0.15296 1.24300
Zn	Zn	0.15349 0.34211 0.24084 1.17700
O 	O 	0.15260 0.16860 0.65738 -0.51100
O 	O 	0.07520 0.06160 0.60483 -0.45800
O 	O 	0.03640 0.84640 0.26529 -0.50300
O 	O 	0.15000 0.88600 0.34180 -0.47400
O 	O 	0.18010 0.46710 0.24693 -0.53100
O 	O 	0.03810 0.55190 0.20811 -0.51100
O 	O 	0.13140 0.05210 0.40342 -0.46500
O 	O 	0.19990 0.16040 0.36220 -0.34100
C 	C 	0.30100 0.49320 0.43810 -0.05100
H 	H 	0.23110 0.50490 0.41470 0.04300
C 	C 	0.30800 0.42160 0.46570 -0.05600
H 	H 	0.24420 0.38400 0.46000 0.04600
C 	C 	0.41030 0.39980 0.50410 -0.00100
C 	C 	0.49740 0.53930 0.48410 -0.00200
C 	C 	0.39860 0.55470 0.44289 -0.00500
C 	C 	0.39590 0.62940 0.41210 0.02100
C 	C 	0.48740 0.68660 0.42490 -0.09600
H 	H 	0.48590 0.73590 0.40410 0.06500
C 	C 	0.41800 0.32480 0.53290 0.01800
C 	C 	0.32940 0.25620 0.52320 -0.02300
C 	C 	0.29750 0.22370 0.47020 -0.00000
H 	H 	0.32890 0.24720 0.43890 0.03300
C 	C 	0.21800 0.15550 0.46300 -0.11800
C 	C 	0.16630 0.12370 0.50940 0.06300
H 	H 	0.11160 0.07960 0.50480 0.04100
C 	C 	0.19540 0.15680 0.56150 -0.12900
C 	C 	0.27700 0.22320 0.56830 0.00700
H 	H 	0.29630 0.24560 0.60410 0.02900
C 	C 	0.30000 0.64760 0.36480 -0.03300
C 	C 	0.25250 0.72680 0.35800 0.01100
H 	H 	0.27620 0.76820 0.38410 0.04300
C 	C 	0.16780 0.74560 0.31160 -0.14500
C 	C 	0.12940 0.68470 0.27550 0.08300
H 	H 	0.06980 0.69640 0.24640 0.00100
C 	C 	0.17650 0.60500 0.28070 -0.15200
C 	C 	0.26600 0.58720 0.32480 0.01500
H 	H 	0.30260 0.53490 0.32710 0.02400
C 	C 	0.12890 0.53490 0.24220 0.44700
C 	C 	0.13610 0.12780 0.61180 0.41000
C 	C 	0.11480 0.83200 0.30540 0.39200
C 	C 	0.18440 0.12050 0.40440 0.40200
Zn	Zn	0.04730 0.98228 0.34704 1.24100
Zn	Zn	0.84651 0.84211 0.25916 1.17600
O 	O 	0.84740 0.66860 0.84262 -0.51200
O 	O 	0.92480 0.56160 0.89517 -0.46000
O 	O 	0.96360 0.34640 0.23471 -0.50400
O 	O 	0.85000 0.38600 0.15820 -0.47500
O 	O 	0.81990 0.96710 0.25307 -0.53000
O 	O 	0.96190 0.05190 0.29189 -0.51100
O 	O 	0.86860 0.55210 0.09658 -0.46600
O 	O 	0.80010 0.66040 0.13780 -0.34200
C 	C 	0.69900 0.99320 0.06190 -0.04600
H 	H 	0.76890 0.00490 0.08530 0.04100
C 	C 	0.69200 0.92160 0.03430 -0.05900
H 	H 	0.75580 0.88400 0.04000 0.04700
C 	C 	0.58970 0.89980 0.99590 0.00000
C 	C 	0.50260 0.03930 0.01590 -0.00200
C 	C 	0.60140 0.05470 0.05711 -0.00700
C 	C 	0.60410 0.12940 0.08790 0.02200
C 	C 	0.51260 0.18660 0.07510 -0.09600
H 	H 	0.51410 0.23590 0.09590 0.06500
C 	C 	0.58200 0.82480 0.96710 0.01700
C 	C 	0.67060 0.75620 0.97680 -0.02300
C 	C 	0.70250 0.72370 0.02980 -0.00100
H 	H 	0.67110 0.74720 0.06110 0.03300
C 	C 	0.78200 0.65550 0.03700 -0.11900
C 	C 	0.83370 0.62370 0.99060 0.06400
H 	H 	0.88840 0.57960 0.99520 0.04000
C 	C 	0.80460 0.65680 0.93850 -0.12900
C 	C 	0.72300 0.72320 0.93170 0.00700
H 	H 	0.70370 0.74560 0.89590 0.02900
C 	C 	0.70000 0.14760 0.13520 -0.03300
C 	C 	0.74750 0.22680 0.14200 0.01100
H 	H 	0.72380 0.26820 0.11590 0.04300
C 	C 	0.83220 0.24560 0.18840 -0.14500
C 	C 	0.87060 0.18470 0.22450 0.08200
H 	H 	0.93020 0.19640 0.25360 0.00100
C 	C 	0.82350 0.10500 0.21930 -0.15200
C 	C 	0.73400 0.08720 0.17520 0.01500
H 	H 	0.69740 0.03490 0.17290 0.02400
C 	C 	0.87110 0.03490 0.25780 0.44500
C 	C 	0.86390 0.62780 0.88820 0.41000
C 	C 	0.88520 0.33200 0.19460 0.39100
C 	C 	0.81560 0.62050 0.09560 0.40200
Zn	Zn	0.04730 0.51772 0.84704 1.24200
Zn	Zn	0.84651 0.65789 0.75916 1.17600
O 	O 	0.84740 0.83140 0.34262 -0.51200
O 	O 	0.92480 0.93840 0.39517 -0.45900
O 	O 	0.96360 0.15360 0.73471 -0.50400
O 	O 	0.85000 0.11400 0.65820 -0.47500
O 	O 	0.81990 0.53290 0.75307 -0.53100
O 	O 	0.96190 0.44810 0.79189 -0.51100
O 	O 	0.86860 0.94790 0.59658 -0.46500
O 	O 	0.80010 0.83960 0.63780 -0.34100
C 	C 	0.69900 0.50680 0.56190 -0.05100
H 	H 	0.76890 0.49510 0.58530 0.04300
C 	C 	0.69200 0.57840 0.53430 -0.05600
H 	H 	0.75580 0.61600 0.54000 0.04600
C 	C 	0.58970 0.60020 0.49590 -0.00100
C 	C 	0.50260 0.46070 0.51590 -0.00200
C 	C 	0.60140 0.44530 0.55711 -0.00500
C 	C 	0.60410 0.37060 0.58790 0.02100
C 	C 	0.51260 0.31340 0.57510 -0.09600
H 	H 	0.51410 0.26410 0.59590 0.06500
C 	C 	0.58200 0.67520 0.46710 0.01800
C 	C 	0.67060 0.74380 0.47680 -0.02300
C 	C 	0.70250 0.77630 0.52980 -0.00000
H 	H 	0.67110 0.75280 0.56110 0.03300
C 	C 	0.78200 0.84450 0.53700 -0.11800
C 	C 	0.83370 0.87630 0.49060 0.06300
H 	H 	0.88840 0.92040 0.49520 0.04100
C 	C 	0.80460 0.84320 0.43850 -0.12900
C 	C 	0.72300 0.77680 0.43170 0.00700
H 	H 	0.70370 0.75440 0.39590 0.02900
C 	C 	0.70000 0.35240 0.63520 -0.03300
C 	C 	0.74750 0.27320 0.64200 0.01100
H 	H 	0.72380 0.23180 0.61590 0.04300
C 	C 	0.83220 0.25440 0.68840 -0.14500
C 	C 	0.87060 0.31530 0.72450 0.08300
H 	H 	0.93020 0.30360 0.75360 0.00100
C 	C 	0.82350 0.39500 0.71930 -0.15200
C 	C 	0.73400 0.41280 0.67520 0.01500
H 	H 	0.69740 0.46510 0.67290 0.02400
C 	C 	0.87110 0.46510 0.75780 0.44700
C 	C 	0.86390 0.87220 0.38820 0.41000
C 	C 	0.88520 0.16800 0.69460 0.39200
C 	C 	0.81560 0.87950 0.59560 0.40200
Zn	Zn	0.95270 0.01772 0.65296 1.24100
Zn	Zn	0.15349 0.15789 0.74084 1.17600
O 	O 	0.15260 0.33140 0.15738 -0.51200
O 	O 	0.07520 0.43840 0.10483 -0.46000
O 	O 	0.03640 0.65360 0.76529 -0.50400
O 	O 	0.15000 0.61400 0.84180 -0.47500
O 	O 	0.18010 0.03290 0.74693 -0.53000
O 	O 	0.03810 0.94810 0.70811 -0.51100
O 	O 	0.13140 0.44790 0.90342 -0.46600
O 	O 	0.19990 0.33960 0.86220 -0.34200
C 	C 	0.30100 0.00680 0.93810 -0.04600
H 	H 	0.23110 0.99510 0.91470 0.04100
C 	C 	0.30800 0.07840 0.96570 -0.05900
H 	H 	0.24420 0.11600 0.96000 0.04700
C 	C 	0.41030 0.10020 0.00410 0.00000
C 	C 	0.49740 0.96070 0.98410 -0.00200
C 	C 	0.39860 0.94530 0.94289 -0.00700
C 	C 	0.39590 0.87060 0.91210 0.02200
C 	C 	0.48740 0.81340 0.92490 -0.09600
H 	H 	0.48590 0.76410 0.90410 0.06500
C 	C 	0.41800 0.17520 0.03290 0.01700
C 	C 	0.32940 0.24380 0.02320 -0.02300
C 	C 	0.29750 0.27630 0.97020 -0.00100
H 	H 	0.32890 0.25280 0.93890 0.03300
C 	C 	0.21800 0.34450 0.96300 -0.11900
C 	C 	0.16630 0.37630 0.00940 0.06400
H 	H 	0.11160 0.42040 0.00480 0.04000
C 	C 	0.19540 0.34320 0.06150 -0.12900
C 	C 	0.27700 0.27680 0.06830 0.00700
H 	H 	0.29630 0.25440 0.10410 0.02900
C 	C 	0.30000 0.85240 0.86480 -0.03300
C 	C 	0.25250 0.77320 0.85800 0.01100
H 	H 	0.27620 0.73180 0.88410 0.04300
C 	C 	0.16780 0.75440 0.81160 -0.14500
C 	C 	0.12940 0.81530 0.77550 0.08200
H 	H 	0.06980 0.80360 0.74640 0.00100
C 	C 	0.17650 0.89500 0.78070 -0.15200
C 	C 	0.26600 0.91280 0.82480 0.01500
H 	H 	0.30260 0.96510 0.82710 0.02400
C 	C 	0.12890 0.96510 0.74220 0.44500
C 	C 	0.13610 0.37220 0.11180 0.41000
C 	C 	0.11480 0.66800 0.80540 0.39100
C 	C 	0.18440 0.37950 0.90440 0.40200
