data_crystal

_cell_length_a 17.53700
_cell_length_b 12.93800
_cell_length_c 13.32800
_cell_angle_alpha 90.00000
_cell_angle_beta  93.78000
_cell_angle_gamma 90.00000

_symmetry_space_group_name_	'P 1'
_symmetry_space_group_name_H-M	'P 1'

loop_
_symmetry_equiv_pos_as_xyz
  x,y,z

loop_
_atom_site_label
_atom_site_type_symbol
_atom_site_fract_x
_atom_site_fract_y
_atom_site_fract_z
_atom_site_charge
S 	S 	0.23060 0.31566 0.27952 -0.05800
N 	N 	0.04939 0.13030 0.06260 -0.23700
N 	N 	0.10612 0.23650 0.17140 -0.14500
N 	N 	0.39338 0.44790 0.51230 -0.23000
N 	N 	0.27863 0.39080 0.46370 -0.13200
C 	C 	0.07282 0.14320 0.15720 0.08300
H 	H 	0.06720 0.09470 0.20770 -0.04900
C 	C 	0.06950 0.21760 0.01280 -0.10600
H 	H 	0.06110 0.22890 0.94410 0.05600
C 	C 	0.10340 0.28450 0.07870 0.03100
H 	H 	0.12150 0.35010 0.06470 0.00300
C 	C 	0.13580 0.27850 0.26450 0.06300
C 	C 	0.09900 0.28890 0.34880 -0.08400
H 	H 	0.04780 0.27230 0.35340 0.04100
C 	C 	0.14680 0.32800 0.43080 -0.08000
H 	H 	0.13090 0.33960 0.49500 0.05100
C 	C 	0.21790 0.34590 0.40300 0.07400
C 	C 	0.35183 0.39810 0.43980 0.09300
H 	H 	0.37080 0.37210 0.38130 -0.02400
C 	C 	0.34350 0.47310 0.58460 0.00500
H 	H 	0.35640 0.50940 0.64350 0.01200
C 	C 	0.27240 0.43650 0.55620 0.00300
H 	H 	0.22870 0.44140 0.59190 0.02900
S 	S 	0.26940 0.81566 0.22048 -0.04300
N 	N 	0.45061 0.63030 0.43740 -0.23000
N 	N 	0.39388 0.73650 0.32860 -0.13500
N 	N 	0.10662 0.94790 0.98770 -0.20900
N 	N 	0.22137 0.89080 0.03630 -0.13800
C 	C 	0.42718 0.64320 0.34280 0.10000
H 	H 	0.43280 0.59470 0.29230 -0.02900
C 	C 	0.43050 0.71760 0.48720 0.00700
H 	H 	0.43890 0.72890 0.55590 0.01300
C 	C 	0.39660 0.78450 0.42130 -0.00300
H 	H 	0.37850 0.85010 0.43530 0.04500
C 	C 	0.36420 0.77850 0.23550 0.07800
C 	C 	0.40100 0.78890 0.15120 -0.09000
H 	H 	0.45220 0.77230 0.14660 0.06800
C 	C 	0.35320 0.82800 0.06920 -0.06800
H 	H 	0.36910 0.83960 0.00500 0.04600
C 	C 	0.28210 0.84590 0.09700 0.06600
C 	C 	0.14817 0.89810 0.06020 0.05100
H 	H 	0.12920 0.87210 0.11870 -0.01400
C 	C 	0.15650 0.97310 0.91540 0.11400
H 	H 	0.14360 0.00940 0.85650 -0.06500
C 	C 	0.22760 0.93650 0.94380 -0.00400
H 	H 	0.27130 0.94140 0.90810 0.05700
S 	S 	0.76940 0.68434 0.72048 -0.03500
N 	N 	0.95061 0.86970 0.93740 -0.20300
N 	N 	0.89388 0.76350 0.82860 -0.12500
N 	N 	0.60662 0.55210 0.48770 -0.23100
N 	N 	0.72137 0.60920 0.53630 -0.13000
C 	C 	0.92718 0.85680 0.84280 0.11500
H 	H 	0.93280 0.90530 0.79230 -0.00200
C 	C 	0.93050 0.78240 0.98720 0.10700
H 	H 	0.93890 0.77110 0.05590 -0.03000
C 	C 	0.89660 0.71550 0.92130 -0.03400
H 	H 	0.87850 0.64990 0.93530 0.06400
C 	C 	0.86420 0.72150 0.73550 0.08600
C 	C 	0.90100 0.71110 0.65120 -0.09100
H 	H 	0.95220 0.72770 0.64660 0.09300
C 	C 	0.85320 0.67200 0.56920 -0.06000
H 	H 	0.86910 0.66040 0.50500 0.06300
C 	C 	0.78210 0.65410 0.59700 0.07000
C 	C 	0.64817 0.60190 0.56020 0.09300
H 	H 	0.62920 0.62790 0.61870 -0.01900
C 	C 	0.65650 0.52690 0.41540 0.00700
H 	H 	0.64360 0.49060 0.35650 0.00900
C 	C 	0.72760 0.56350 0.44380 0.00100
H 	H 	0.77130 0.55860 0.40810 0.03600
S 	S 	0.73060 0.18434 0.77952 -0.04900
N 	N 	0.54939 0.36970 0.56260 -0.22900
N 	N 	0.60612 0.26350 0.67140 -0.13600
N 	N 	0.89338 0.05210 0.01230 -0.23100
N 	N 	0.77863 0.10920 0.96370 -0.12500
C 	C 	0.57282 0.35680 0.65720 0.09900
H 	H 	0.56720 0.40530 0.70770 -0.02700
C 	C 	0.56950 0.28240 0.51280 0.00300
H 	H 	0.56110 0.27110 0.44410 0.00400
C 	C 	0.60340 0.21550 0.57870 -0.00500
H 	H 	0.62150 0.14990 0.56470 0.02500
C 	C 	0.63580 0.22150 0.76450 0.07100
C 	C 	0.59900 0.21110 0.84880 -0.08500
H 	H 	0.54780 0.22770 0.85340 0.06600
C 	C 	0.64680 0.17200 0.93080 -0.07300
H 	H 	0.63090 0.16040 0.99500 0.06700
C 	C 	0.71790 0.15410 0.90300 0.07800
C 	C 	0.85183 0.10190 0.93980 0.13300
H 	H 	0.87080 0.12790 0.88130 -0.02200
C 	C 	0.84350 0.02690 0.08460 -0.09300
H 	H 	0.85640 0.99060 0.14350 0.08400
C 	C 	0.77240 0.06350 0.05620 0.00600
H 	H 	0.72870 0.05860 0.09190 0.00900
Cu	Cu	-0.00000 0.00000 -0.00000 0.78100
Cu	Cu	0.50000 0.50000 0.50000 0.84800
S 	S 	0.73060 0.81566 0.27952 -0.03600
N 	N 	0.54939 0.63030 0.06260 -0.22100
N 	N 	0.60612 0.73650 0.17140 -0.14100
N 	N 	0.89338 0.94790 0.51230 -0.21800
N 	N 	0.77863 0.89080 0.46370 -0.12200
C 	C 	0.57282 0.64320 0.15720 0.09900
H 	H 	0.56720 0.59470 0.20770 -0.02900
C 	C 	0.56950 0.71760 0.01280 -0.09000
H 	H 	0.56110 0.72890 0.94410 0.07200
C 	C 	0.60340 0.78450 0.07870 0.04200
H 	H 	0.62150 0.85010 0.06470 0.01900
C 	C 	0.63580 0.77850 0.26450 0.07600
C 	C 	0.59900 0.78890 0.34880 -0.08400
H 	H 	0.54780 0.77230 0.35340 0.06800
C 	C 	0.64680 0.82800 0.43080 -0.06800
H 	H 	0.63090 0.83960 0.49500 0.06200
C 	C 	0.71790 0.84590 0.40300 0.07500
C 	C 	0.85183 0.89810 0.43980 0.09900
H 	H 	0.87080 0.87210 0.38130 -0.00700
C 	C 	0.84350 0.97310 0.58460 0.11700
H 	H 	0.85640 0.00940 0.64350 -0.05400
C 	C 	0.77240 0.93650 0.55620 -0.04400
H 	H 	0.72870 0.94140 0.59190 0.06200
S 	S 	0.76940 0.31566 0.22048 -0.05500
N 	N 	0.95061 0.13030 0.43740 -0.21600
N 	N 	0.89388 0.23650 0.32860 -0.13500
N 	N 	0.60662 0.44790 0.98770 -0.19800
N 	N 	0.72137 0.39080 0.03630 -0.14600
C 	C 	0.92718 0.14320 0.34280 0.10800
H 	H 	0.93280 0.09470 0.29230 -0.02500
C 	C 	0.93050 0.21760 0.48720 0.01000
H 	H 	0.93890 0.22890 0.55590 0.02200
C 	C 	0.89660 0.28450 0.42130 0.00500
H 	H 	0.87850 0.35010 0.43530 0.03900
C 	C 	0.86420 0.27850 0.23550 0.08600
C 	C 	0.90100 0.28890 0.15120 -0.09700
H 	H 	0.95220 0.27230 0.14660 0.09400
C 	C 	0.85320 0.32800 0.06920 -0.06200
H 	H 	0.86910 0.33960 0.00500 0.04900
C 	C 	0.78210 0.34590 0.09700 0.06400
C 	C 	0.64817 0.39810 0.06020 0.04700
H 	H 	0.62920 0.37210 0.11870 -0.01300
C 	C 	0.65650 0.47310 0.91540 -0.00500
H 	H 	0.64360 0.50940 0.85650 0.01900
C 	C 	0.72760 0.43650 0.94380 0.04800
H 	H 	0.77130 0.44140 0.90810 0.02900
S 	S 	0.26940 0.18434 0.72048 -0.05700
N 	N 	0.45061 0.36970 0.93740 -0.23400
N 	N 	0.39388 0.26350 0.82860 -0.12900
N 	N 	0.10662 0.05210 0.48770 -0.22700
N 	N 	0.22137 0.10920 0.53630 -0.14200
C 	C 	0.42718 0.35680 0.84280 0.10000
H 	H 	0.43280 0.40530 0.79230 -0.02600
C 	C 	0.43050 0.28240 0.98720 0.10200
H 	H 	0.43890 0.27110 0.05590 -0.05600
C 	C 	0.39660 0.21550 0.92130 -0.05100
H 	H 	0.37850 0.14990 0.93530 0.05100
C 	C 	0.36420 0.22150 0.73550 0.07300
C 	C 	0.40100 0.21110 0.65120 -0.09100
H 	H 	0.45220 0.22770 0.64660 0.06500
C 	C 	0.35320 0.17200 0.56920 -0.07200
H 	H 	0.36910 0.16040 0.50500 0.05100
C 	C 	0.28210 0.15410 0.59700 0.06900
C 	C 	0.14817 0.10190 0.56020 0.08600
H 	H 	0.12920 0.12790 0.61870 -0.03200
C 	C 	0.15650 0.02690 0.41540 -0.11900
H 	H 	0.14360 0.99060 0.35650 0.08600
C 	C 	0.22760 0.06350 0.44380 0.05500
H 	H 	0.27130 0.05860 0.40810 -0.00100
S 	S 	0.23060 0.68434 0.77952 -0.03900
N 	N 	0.04939 0.86970 0.56260 -0.22700
N 	N 	0.10612 0.76350 0.67140 -0.13500
N 	N 	0.39338 0.55210 0.01230 -0.25900
N 	N 	0.27863 0.60920 0.96370 -0.11600
C 	C 	0.07282 0.85680 0.65720 0.09200
H 	H 	0.06720 0.90530 0.70770 -0.02400
C 	C 	0.06950 0.78240 0.51280 0.00100
H 	H 	0.06110 0.77110 0.44410 -0.00100
C 	C 	0.10340 0.71550 0.57870 -0.01200
H 	H 	0.12150 0.64990 0.56470 0.03000
C 	C 	0.13580 0.72150 0.76450 0.06500
C 	C 	0.09900 0.71110 0.84880 -0.07800
H 	H 	0.04780 0.72770 0.85340 0.04400
C 	C 	0.14680 0.67200 0.93080 -0.07800
H 	H 	0.13090 0.66040 0.99500 0.06500
C 	C 	0.21790 0.65410 0.90300 0.08000
C 	C 	0.35183 0.60190 0.93980 0.13900
H 	H 	0.37080 0.62790 0.88130 -0.02900
C 	C 	0.34350 0.52690 0.08460 0.01600
H 	H 	0.35640 0.49060 0.14350 0.00200
C 	C 	0.27240 0.56350 0.05620 -0.04500
H 	H 	0.22870 0.55860 0.09190 0.03600
Cu	Cu	0.50000 0.50000 -0.00000 0.83100
Cu	Cu	0.00000 0.00000 0.50000 0.79700
