data_crystal

_cell_length_a 10.55610
_cell_length_b 10.53780
_cell_length_c 16.89620
_cell_angle_alpha 83.20500
_cell_angle_beta  76.42500
_cell_angle_gamma 69.97100

_symmetry_space_group_name_	'P 1'
_symmetry_space_group_name_H-M	'P 1'

loop_
_symmetry_equiv_pos_as_xyz
  x,y,z

loop_
_atom_site_label
_atom_site_type_symbol
_atom_site_fract_x
_atom_site_fract_y
_atom_site_fract_z
_atom_site_charge
Nd	Nd	0.37227 0.39760 0.48162 2.15900
O 	O 	0.41370 0.60630 0.43769 -0.60800
O 	O 	0.52310 0.21630 0.55784 -0.49100
O 	O 	0.59490 0.33750 0.39126 -0.53500
O 	O 	0.29490 0.51370 0.60928 -0.52800
O 	O 	0.31370 0.41180 0.34296 -0.55000
O 	O 	0.22200 0.29080 0.57916 -0.50400
C 	C 	0.28950 0.39310 0.27870 0.54400
C 	C 	0.39320 0.30120 0.21610 -0.21700
O 	O 	0.17260 0.45320 0.25720 -0.62800
C 	C 	0.35220 0.26980 0.15050 0.10700
C 	C 	0.53010 0.24530 0.22360 0.10500
H 	H 	0.11800 0.50200 0.29000 0.38800
H 	H 	0.25870 0.30760 0.14540 0.01500
C 	C 	0.44770 0.18320 0.09260 -0.15900
H 	H 	0.55810 0.26470 0.26910 -0.00400
C 	C 	0.62600 0.16090 0.16440 -0.15800
H 	H 	0.41860 0.16190 0.04820 0.08700
C 	C 	0.58630 0.12670 0.09850 0.09200
H 	H 	0.71990 0.12580 0.16870 0.09000
C 	C 	0.68650 0.04310 0.03160 -0.02500
C 	C 	0.79090 0.91960 0.04290 -0.00900
C 	C 	0.67740 0.09170 0.95200 -0.05100
C 	C 	0.81030 0.85530 0.12450 0.07400
C 	C 	0.88020 0.85650 0.97380 -0.06400
C 	C 	0.76580 0.02740 0.88310 -0.02300
H 	H 	0.60630 0.17390 0.94440 0.04800
C 	C 	0.70110 0.84000 0.18540 -0.13900
C 	C 	0.94140 0.80840 0.14170 -0.13400
C 	C 	0.87260 0.90670 0.89400 -0.01200
H 	H 	0.95090 0.77390 0.98120 0.05200
C 	C 	0.73530 0.08810 0.80240 0.08800
H 	H 	0.61090 0.86920 0.17460 0.08300
C 	C 	0.72180 0.78290 0.26130 0.07800
C 	C 	0.96310 0.74780 0.21690 0.06900
H 	H 	0.01740 0.81810 0.10120 0.07700
C 	C 	0.98050 0.83150 0.82590 0.07200
C 	C 	0.72940 0.01090 0.74310 -0.15500
C 	C 	0.69680 0.22820 0.78860 -0.15700
C 	C 	0.85420 0.73500 0.27810 -0.16200
H 	H 	0.64540 0.77620 0.30240 0.01300
H 	H 	0.05410 0.71450 0.22670 0.01500
C 	C 	0.05040 0.90050 0.76480 -0.14200
C 	C 	0.01850 0.69110 0.82340 -0.13200
C 	C 	0.68260 0.07080 0.67330 0.09100
H 	H 	0.75790 0.91520 0.75050 0.08600
H 	H 	0.70070 0.28270 0.82840 0.08600
C 	C 	0.65320 0.28940 0.71800 0.09600
C 	C 	0.87610 0.67580 0.36100 0.42200
H 	H 	0.02420 0.99620 0.76440 0.08200
C 	C 	0.15680 0.83000 0.70510 0.08000
H 	H 	0.97350 0.64260 0.86480 0.08200
C 	C 	0.12180 0.62190 0.76090 0.08500
C 	C 	0.64420 0.21140 0.66020 -0.19300
H 	H 	0.67650 0.01640 0.63420 -0.00300
H 	H 	0.62950 0.38460 0.70930 -0.00200
O 	O 	0.99450 0.59600 0.36627 -0.35900
C 	C 	0.19200 0.69010 0.70190 -0.18200
H 	H 	0.20660 0.87720 0.66580 0.00500
H 	H 	0.14440 0.52680 0.75880 0.01500
C 	C 	0.58260 0.27680 0.58840 0.45700
C 	C 	0.30720 0.61570 0.63470 0.48200
Nd	Nd	0.62773 0.60240 0.51838 2.16000
O 	O 	0.58630 0.39370 0.56231 -0.60700
O 	O 	0.47690 0.78370 0.44216 -0.49100
O 	O 	0.40510 0.66250 0.60874 -0.53500
O 	O 	0.70510 0.48630 0.39072 -0.52800
O 	O 	0.68630 0.58820 0.65704 -0.55000
O 	O 	0.77800 0.70920 0.42084 -0.50400
C 	C 	0.71050 0.60690 0.72130 0.54400
C 	C 	0.60680 0.69880 0.78390 -0.21700
O 	O 	0.82740 0.54680 0.74280 -0.62800
C 	C 	0.64780 0.73020 0.84950 0.10700
C 	C 	0.46990 0.75470 0.77640 0.10500
H 	H 	0.88200 0.49800 0.71000 0.38800
H 	H 	0.74130 0.69240 0.85460 0.01500
C 	C 	0.55230 0.81680 0.90740 -0.15900
H 	H 	0.44190 0.73530 0.73090 -0.00400
C 	C 	0.37400 0.83910 0.83560 -0.15800
H 	H 	0.58140 0.83810 0.95180 0.08700
C 	C 	0.41370 0.87330 0.90150 0.09200
H 	H 	0.28010 0.87420 0.83130 0.09000
C 	C 	0.31350 0.95690 0.96840 -0.02500
C 	C 	0.20910 0.08040 0.95710 -0.00900
C 	C 	0.32260 0.90830 0.04800 -0.05100
C 	C 	0.18970 0.14470 0.87550 0.07400
C 	C 	0.11980 0.14350 0.02620 -0.06400
C 	C 	0.23420 0.97260 0.11690 -0.02300
H 	H 	0.39370 0.82610 0.05560 0.04800
C 	C 	0.29890 0.16000 0.81460 -0.13900
C 	C 	0.05860 0.19160 0.85830 -0.13400
C 	C 	0.12740 0.09330 0.10600 -0.01200
H 	H 	0.04910 0.22610 0.01880 0.05200
C 	C 	0.26470 0.91190 0.19760 0.08800
H 	H 	0.38910 0.13080 0.82540 0.08300
C 	C 	0.27820 0.21710 0.73870 0.07800
C 	C 	0.03690 0.25220 0.78310 0.06900
H 	H 	0.98260 0.18190 0.89880 0.07700
C 	C 	0.01950 0.16850 0.17410 0.07200
C 	C 	0.27060 0.98910 0.25690 -0.15500
C 	C 	0.30320 0.77180 0.21140 -0.15700
C 	C 	0.14580 0.26500 0.72190 -0.16200
H 	H 	0.35460 0.22380 0.69760 0.01300
H 	H 	0.94590 0.28550 0.77330 0.01500
C 	C 	0.94960 0.09950 0.23520 -0.14200
C 	C 	0.98150 0.30890 0.17660 -0.13200
C 	C 	0.31740 0.92920 0.32670 0.09100
H 	H 	0.24210 0.08480 0.24950 0.08600
H 	H 	0.29930 0.71730 0.17160 0.08600
C 	C 	0.34680 0.71060 0.28200 0.09600
C 	C 	0.12390 0.32420 0.63900 0.42200
H 	H 	0.97580 0.00380 0.23560 0.08200
C 	C 	0.84320 0.17000 0.29490 0.08000
H 	H 	0.02650 0.35740 0.13520 0.08200
C 	C 	0.87820 0.37810 0.23910 0.08500
C 	C 	0.35580 0.78860 0.33980 -0.19300
H 	H 	0.32350 0.98360 0.36580 -0.00300
H 	H 	0.37050 0.61540 0.29070 -0.00200
O 	O 	0.00550 0.40400 0.63373 -0.35900
C 	C 	0.80800 0.30990 0.29810 -0.18200
H 	H 	0.79340 0.12280 0.33420 0.00500
H 	H 	0.85560 0.47320 0.24120 0.01500
C 	C 	0.41740 0.72320 0.41160 0.45700
C 	C 	0.69280 0.38430 0.36530 0.48200
