data_crystal

_cell_length_a 9.52560
_cell_length_b 12.12720
_cell_length_c 15.88860
_cell_angle_alpha 88.50800
_cell_angle_beta  74.67700
_cell_angle_gamma 70.37900

_symmetry_space_group_name_	'P 1'
_symmetry_space_group_name_H-M	'P 1'

loop_
_symmetry_equiv_pos_as_xyz
  x,y,z

loop_
_atom_site_label
_atom_site_type_symbol
_atom_site_fract_x
_atom_site_fract_y
_atom_site_fract_z
_atom_site_charge
Nd	Nd	0.29541 0.97580 0.01839 2.39300
O 	O 	0.13110 0.88290 0.11647 -0.54400
O 	O 	0.01270 0.75880 0.09793 -0.51700
H 	H 	0.98740 0.80480 0.05980 0.29400
O 	O 	0.23680 0.06540 0.16480 -0.49000
O 	O 	0.44710 0.09530 0.08481 -0.62400
O 	O 	0.53570 0.16660 0.91133 -0.56500
O 	O 	0.31810 0.12710 0.92602 -0.58400
O 	O 	0.20800 0.89220 0.91378 -0.53800
O 	O 	0.96900 0.88180 0.96142 -0.50900
C 	C 	0.22420 0.55090 0.44030 -0.01700
C 	C 	0.27310 0.42750 0.44130 -0.01600
C 	C 	0.30250 0.37650 0.51690 -0.05400
H 	H 	0.33690 0.29340 0.51670 0.04700
C 	C 	0.28430 0.44090 0.59350 -0.02000
C 	C 	0.23280 0.56410 0.59300 -0.01600
C 	C 	0.20700 0.61520 0.51630 -0.05500
H 	H 	0.17610 0.69830 0.51570 0.04500
C 	C 	0.18640 0.61500 0.36340 0.08000
C 	C 	0.21950 0.71850 0.34330 -0.14900
H 	H 	0.26460 0.74840 0.38000 0.08000
C 	C 	0.18800 0.77800 0.27130 0.09200
H 	H 	0.21200 0.84760 0.25880 0.00900
C 	C 	0.12050 0.73560 0.21690 -0.19300
C 	C 	0.08560 0.63350 0.23660 0.08900
H 	H 	0.04110 0.60360 0.19960 0.02100
C 	C 	0.11530 0.57550 0.30930 -0.14700
H 	H 	0.08710 0.50770 0.32300 0.08400
C 	C 	0.09000 0.79850 0.13940 0.49600
C 	C 	0.29440 0.34580 0.36680 0.07800
C 	C 	0.40440 0.33680 0.28720 -0.14700
H 	H 	0.46590 0.38580 0.27870 0.08100
C 	C 	0.42510 0.25660 0.21990 0.08700
H 	H 	0.50450 0.24810 0.16710 -0.00600
C 	C 	0.32950 0.18890 0.22990 -0.17600
C 	C 	0.21940 0.19850 0.30870 0.08000
H 	H 	0.15350 0.15310 0.31580 0.02100
C 	C 	0.20400 0.27350 0.37730 -0.14400
H 	H 	0.13160 0.27600 0.43200 0.08000
C 	C 	0.33880 0.11140 0.15580 0.44000
C 	C 	0.32080 0.37450 0.66950 0.08700
C 	C 	0.27650 0.27560 0.68940 -0.15600
H 	H 	0.22570 0.25110 0.65330 0.08500
C 	C 	0.30560 0.21330 0.76050 0.10800
H 	H 	0.27200 0.14780 0.77370 0.00300
C 	C 	0.38390 0.24550 0.81320 -0.19700
C 	C 	0.43320 0.34140 0.79200 0.09900
H 	H 	0.49010 0.36270 0.82570 0.00500
C 	C 	0.39970 0.40530 0.72220 -0.15200
H 	H 	0.43110 0.47190 0.70990 0.08400
C 	C 	0.41520 0.17540 0.88960 0.52200
C 	C 	0.19420 0.64330 0.67240 0.07900
C 	C 	0.09620 0.63030 0.75110 -0.14100
H 	H 	0.05370 0.56930 0.75450 0.08000
C 	C 	0.05890 0.70450 0.82490 0.08100
H 	H 	0.98820 0.69620 0.87740 0.01000
C 	C 	0.12570 0.79070 0.82160 -0.18500
C 	C 	0.22180 0.80630 0.74330 0.08900
H 	H 	0.26610 0.86620 0.74060 0.00500
C 	C 	0.25410 0.73450 0.66840 -0.14800
H 	H 	0.31680 0.74770 0.61450 0.08000
C 	C 	0.09870 0.86170 0.90380 0.47400
Nd	Nd	0.70459 0.02420 0.98161 2.39400
O 	O 	0.86890 0.11710 0.88353 -0.54300
O 	O 	0.98730 0.24120 0.90207 -0.51600
H 	H 	0.01260 0.19520 0.94020 0.29500
O 	O 	0.76320 0.93460 0.83520 -0.49000
O 	O 	0.55290 0.90470 0.91519 -0.62400
O 	O 	0.46430 0.83340 0.08867 -0.56500
O 	O 	0.68190 0.87290 0.07398 -0.58400
O 	O 	0.79200 0.10780 0.08622 -0.53800
O 	O 	0.03100 0.11820 0.03858 -0.50900
C 	C 	0.77580 0.44910 0.55970 -0.01700
C 	C 	0.72690 0.57250 0.55870 -0.01600
C 	C 	0.69750 0.62350 0.48310 -0.05400
H 	H 	0.66310 0.70660 0.48330 0.04700
C 	C 	0.71570 0.55910 0.40650 -0.02000
C 	C 	0.76720 0.43590 0.40700 -0.01600
C 	C 	0.79300 0.38480 0.48370 -0.05500
H 	H 	0.82390 0.30170 0.48430 0.04500
C 	C 	0.81360 0.38500 0.63660 0.08000
C 	C 	0.78050 0.28150 0.65670 -0.14900
H 	H 	0.73540 0.25160 0.62000 0.08000
C 	C 	0.81200 0.22200 0.72870 0.09200
H 	H 	0.78800 0.15240 0.74120 0.00900
C 	C 	0.87950 0.26440 0.78310 -0.19300
C 	C 	0.91440 0.36650 0.76340 0.08900
H 	H 	0.95890 0.39640 0.80040 0.02100
C 	C 	0.88470 0.42450 0.69070 -0.14700
H 	H 	0.91290 0.49230 0.67700 0.08400
C 	C 	0.91000 0.20150 0.86060 0.49600
C 	C 	0.70560 0.65420 0.63320 0.07800
C 	C 	0.59560 0.66320 0.71280 -0.14700
H 	H 	0.53410 0.61420 0.72130 0.08100
C 	C 	0.57490 0.74340 0.78010 0.08700
H 	H 	0.49550 0.75190 0.83290 -0.00600
C 	C 	0.67050 0.81110 0.77010 -0.17600
C 	C 	0.78060 0.80150 0.69130 0.08000
H 	H 	0.84650 0.84690 0.68420 0.02100
C 	C 	0.79600 0.72650 0.62270 -0.14400
H 	H 	0.86840 0.72400 0.56800 0.08000
C 	C 	0.66120 0.88860 0.84420 0.44000
C 	C 	0.67920 0.62550 0.33050 0.08700
C 	C 	0.72350 0.72440 0.31060 -0.15600
H 	H 	0.77430 0.74890 0.34670 0.08500
C 	C 	0.69440 0.78670 0.23950 0.10800
H 	H 	0.72800 0.85220 0.22630 0.00300
C 	C 	0.61610 0.75450 0.18680 -0.19700
C 	C 	0.56680 0.65860 0.20800 0.09900
H 	H 	0.50990 0.63730 0.17430 0.00500
C 	C 	0.60030 0.59470 0.27780 -0.15200
H 	H 	0.56890 0.52810 0.29010 0.08400
C 	C 	0.58480 0.82460 0.11040 0.52200
C 	C 	0.80580 0.35670 0.32760 0.07900
C 	C 	0.90380 0.36970 0.24890 -0.14100
H 	H 	0.94630 0.43070 0.24550 0.08000
C 	C 	0.94110 0.29550 0.17510 0.08100
H 	H 	0.01180 0.30380 0.12260 0.01000
C 	C 	0.87430 0.20930 0.17840 -0.18500
C 	C 	0.77820 0.19370 0.25670 0.08900
H 	H 	0.73390 0.13380 0.25940 0.00500
C 	C 	0.74590 0.26550 0.33160 -0.14800
H 	H 	0.68320 0.25230 0.38550 0.08000
C 	C 	0.90130 0.13830 0.09620 0.47400
