data_crystal

_cell_length_a 14.62460
_cell_length_b 12.95050
_cell_length_c 14.81490
_cell_angle_alpha 90.00000
_cell_angle_beta  108.62200
_cell_angle_gamma 90.00000

_symmetry_space_group_name_	'P 1'
_symmetry_space_group_name_H-M	'P 1'

loop_
_symmetry_equiv_pos_as_xyz
  x,y,z

loop_
_atom_site_label
_atom_site_type_symbol
_atom_site_fract_x
_atom_site_fract_y
_atom_site_fract_z
_atom_site_charge
O 	O 	0.01880 0.41370 0.14900 -0.35200
O 	O 	0.88750 0.42540 0.02460 -0.41000
O 	O 	0.62230 0.17050 0.00390 -0.38800
O 	O 	0.60080 0.11810 0.13630 -0.36900
O 	O 	0.80320 0.26020 0.44510 -0.18500
O 	O 	0.79260 0.50470 0.55490 -0.18000
O 	O 	0.86260 0.35680 0.61630 -0.16600
C 	C 	0.93060 0.39360 0.10620 0.34300
C 	C 	0.64690 0.16790 0.09120 0.29500
C 	C 	0.87440 0.33010 0.15440 -0.04400
C 	C 	0.78890 0.28170 0.10400 -0.01600
H 	H 	0.76750 0.28590 0.03780 0.05200
C 	C 	0.73550 0.22840 0.14820 -0.04000
C 	C 	0.76470 0.22650 0.24620 -0.07700
H 	H 	0.72660 0.19270 0.27660 0.09100
C 	C 	0.84920 0.27350 0.30080 0.07200
C 	C 	0.90480 0.32450 0.25430 -0.07900
H 	H 	0.96260 0.35530 0.28960 0.10600
C 	C 	0.88280 0.26880 0.40780 -0.06700
H 	H 	0.92520 0.20990 0.42870 0.08000
H 	H 	0.91940 0.33060 0.43310 0.07400
C 	C 	0.75980 0.35730 0.45300 0.21000
H 	H 	0.76070 0.40310 0.40070 -0.01500
C 	C 	0.81020 0.40770 0.54770 0.18600
C 	C 	0.65610 0.33150 0.44670 -0.70700
H 	H 	0.62320 0.30210 0.38550 0.25400
H 	H 	0.62360 0.39330 0.45510 0.25100
H 	H 	0.65640 0.28270 0.49560 0.26500
O 	O 	0.51880 0.91370 0.14900 -0.29100
O 	O 	0.38750 0.92540 0.02460 -0.39600
O 	O 	0.12230 0.67050 0.00390 -0.39200
O 	O 	0.10080 0.61810 0.13630 -0.37000
O 	O 	0.30320 0.76020 0.44510 -0.18500
O 	O 	0.29260 0.00470 0.55490 -0.22000
O 	O 	0.36260 0.85680 0.61630 -0.18300
C 	C 	0.43060 0.89360 0.10620 0.28500
C 	C 	0.14690 0.66790 0.09120 0.29400
C 	C 	0.37440 0.83010 0.15440 -0.02900
C 	C 	0.28890 0.78170 0.10400 -0.02600
H 	H 	0.26750 0.78590 0.03780 0.05500
C 	C 	0.23550 0.72840 0.14820 -0.03700
C 	C 	0.26470 0.72650 0.24620 -0.07900
H 	H 	0.22660 0.69270 0.27660 0.09100
C 	C 	0.34920 0.77350 0.30080 0.07000
C 	C 	0.40480 0.82450 0.25430 -0.08700
H 	H 	0.46260 0.85530 0.28960 0.09700
C 	C 	0.38280 0.76880 0.40780 -0.06000
H 	H 	0.42520 0.70990 0.42870 0.06800
H 	H 	0.41940 0.83060 0.43310 0.06400
C 	C 	0.25980 0.85730 0.45300 0.18800
H 	H 	0.26070 0.90310 0.40070 -0.00700
C 	C 	0.31020 0.90770 0.54770 0.22100
C 	C 	0.15610 0.83150 0.44670 -0.67600
H 	H 	0.12320 0.80210 0.38550 0.24100
H 	H 	0.12360 0.89330 0.45510 0.24000
H 	H 	0.15640 0.78270 0.49560 0.25300
O 	O 	0.98120 0.41370 0.85100 -0.19600
O 	O 	0.11250 0.42540 0.97540 -0.27900
O 	O 	0.37770 0.17050 0.99610 -0.26300
O 	O 	0.39920 0.11810 0.86370 -0.30500
O 	O 	0.19680 0.26020 0.55490 -0.19400
O 	O 	0.20740 0.50470 0.44510 -0.19400
O 	O 	0.13740 0.35680 0.38370 -0.20500
C 	C 	0.06940 0.39360 0.89380 0.21400
C 	C 	0.35310 0.16790 0.90880 0.27600
C 	C 	0.12560 0.33010 0.84560 0.03300
C 	C 	0.21110 0.28170 0.89600 -0.06600
H 	H 	0.23250 0.28590 0.96220 0.11500
C 	C 	0.26450 0.22840 0.85180 0.02200
C 	C 	0.23530 0.22650 0.75380 -0.10300
H 	H 	0.27340 0.19270 0.72340 0.10500
C 	C 	0.15080 0.27350 0.69920 0.08900
C 	C 	0.09520 0.32450 0.74570 -0.11400
H 	H 	0.03740 0.35530 0.71040 0.09500
C 	C 	0.11720 0.26880 0.59220 -0.05700
H 	H 	0.07480 0.20990 0.57130 0.05500
H 	H 	0.08060 0.33060 0.56690 0.05100
C 	C 	0.24020 0.35730 0.54700 0.20800
H 	H 	0.23930 0.40310 0.59930 -0.01000
C 	C 	0.18980 0.40770 0.45230 0.18600
C 	C 	0.34390 0.33150 0.55330 -0.71300
H 	H 	0.37680 0.30210 0.61450 0.26700
H 	H 	0.37640 0.39330 0.54490 0.25600
H 	H 	0.34360 0.28270 0.50440 0.26100
O 	O 	0.48120 0.91370 0.85100 -0.23500
O 	O 	0.61250 0.92540 0.97540 -0.27300
O 	O 	0.87770 0.67050 0.99610 -0.24000
O 	O 	0.89920 0.61810 0.86370 -0.28200
O 	O 	0.69680 0.76020 0.55490 -0.18500
O 	O 	0.70740 0.00470 0.44510 -0.21600
O 	O 	0.63740 0.85680 0.38370 -0.19100
C 	C 	0.56940 0.89360 0.89380 0.26600
C 	C 	0.85310 0.66790 0.90880 0.27300
C 	C 	0.62560 0.83010 0.84560 0.03600
C 	C 	0.71110 0.78170 0.89600 -0.06500
H 	H 	0.73250 0.78590 0.96220 0.12200
C 	C 	0.76450 0.72840 0.85180 0.03600
C 	C 	0.73530 0.72650 0.75380 -0.11000
H 	H 	0.77340 0.69270 0.72340 0.11400
C 	C 	0.65080 0.77350 0.69920 0.10800
C 	C 	0.59520 0.82450 0.74570 -0.11400
H 	H 	0.53740 0.85530 0.71040 0.11300
C 	C 	0.61720 0.76880 0.59220 -0.07700
H 	H 	0.57480 0.70990 0.57130 0.07600
H 	H 	0.58060 0.83060 0.56690 0.07000
C 	C 	0.74020 0.85730 0.54700 0.21200
H 	H 	0.73930 0.90310 0.59930 -0.00300
C 	C 	0.68980 0.90770 0.45230 0.21600
C 	C 	0.84390 0.83150 0.55330 -0.75000
H 	H 	0.87680 0.80210 0.61450 0.28900
H 	H 	0.87640 0.89330 0.54490 0.28300
H 	H 	0.84360 0.78270 0.50440 0.28300
Cd	Cd	0.00000 0.53504 -0.00000 1.19600
Cd	Cd	0.50000 0.03504 -0.00000 1.20100
