data_crystal

_cell_length_a 9.95160
_cell_length_b 15.78180
_cell_length_c 16.55090
_cell_angle_alpha 110.42100
_cell_angle_beta  101.58200
_cell_angle_gamma 90.02900

_symmetry_space_group_name_	'P 1'
_symmetry_space_group_name_H-M	'P 1'

loop_
_symmetry_equiv_pos_as_xyz
  x,y,z

loop_
_atom_site_label
_atom_site_type_symbol
_atom_site_fract_x
_atom_site_fract_y
_atom_site_fract_z
_atom_site_charge
Cd	Cd	0.95979 0.77521 0.56704 1.21400
N 	N 	0.30860 0.40030 0.92350 -0.22100
N 	N 	0.15390 0.85620 0.67490 -0.23200
N 	N 	0.41390 0.60750 0.93450 -0.21500
N 	N 	0.99360 0.67130 0.63730 -0.23700
N 	N 	0.76900 0.67930 0.46980 -0.22900
O 	O 	0.60520 0.41530 0.88780 -0.40200
O 	O 	0.73840 0.50080 0.84910 -0.30400
O 	O 	0.84790 0.34170 0.54140 -0.33200
O 	O 	0.93870 0.21250 0.53510 -0.41800
O 	O 	0.63350 0.02700 0.65070 -0.43400
O 	O 	0.83780 0.90040 0.55800 -0.33200
O 	O 	0.79430 0.85580 0.65970 -0.30400
O 	O 	0.10700 0.11600 0.71050 -0.42200
H 	H 	0.12170 0.08110 0.66370 0.24500
O 	O 	0.14880 0.10130 0.87970 -0.42800
H 	H 	0.07520 0.09480 0.84470 0.25400
O 	O 	0.08730 0.82360 0.89860 -0.44900
H 	H 	0.13310 0.86740 0.93760 0.26900
O 	O 	0.99300 0.60050 0.89840 -0.44000
H 	H 	0.92180 0.56710 0.87890 0.28600
O 	O 	0.33930 0.51710 0.43670 -0.44100
H 	H 	0.30020 0.56200 0.43380 0.27800
C 	C 	0.68510 0.42590 0.84200 0.34600
C 	C 	0.86670 0.27600 0.56700 0.32700
C 	C 	0.71700 0.34090 0.77180 -0.10600
C 	C 	0.77040 0.34730 0.70250 0.03100
H 	H 	0.78210 0.40360 0.69760 0.03200
C 	C 	0.80620 0.27090 0.64080 -0.10500
C 	C 	0.78880 0.18690 0.64920 0.00900
H 	H 	0.81480 0.13550 0.60870 0.04800
C 	C 	0.73360 0.17880 0.71680 -0.05500
C 	C 	0.69780 0.25650 0.77760 0.00000
H 	H 	0.66020 0.25180 0.82310 0.02200
C 	C 	0.72170 0.08730 0.72630 0.15700
H 	H 	0.81180 0.06400 0.73350 -0.00900
H 	H 	0.68570 0.09330 0.77810 -0.02600
C 	C 	0.64070 0.95270 0.61110 0.58000
H 	H 	0.61670 0.93410 0.65740 -0.08600
C 	C 	0.76770 0.90080 0.61130 0.09400
C 	C 	0.52130 0.89810 0.54630 -1.14200
H 	H 	0.44200 0.93280 0.55010 0.37500
H 	H 	0.50460 0.84430 0.55840 0.36900
H 	H 	0.53900 0.88160 0.48810 0.36700
C 	C 	0.18200 0.42580 0.92470 0.08300
H 	H 	0.17120 0.48490 0.95960 0.01300
C 	C 	0.06770 0.37050 0.87790 -0.12300
H 	H 	0.98070 0.39160 0.87950 0.08500
C 	C 	0.08340 0.28030 0.82670 0.03000
H 	H 	0.00650 0.24050 0.79450 0.04000
C 	C 	0.21520 0.25140 0.82470 -0.08500
C 	C 	0.32400 0.31410 0.87350 0.04100
H 	H 	0.41270 0.29620 0.87180 -0.00300
C 	C 	0.23560 0.15310 0.77130 0.23600
C 	C 	0.34970 0.14740 0.72300 -0.75000
H 	H 	0.35230 0.08590 0.68480 0.24900
H 	H 	0.43580 0.16700 0.76480 0.24500
H 	H 	0.33390 0.18570 0.68850 0.25500
C 	C 	0.26390 0.09640 0.83320 0.31700
C 	C 	0.39340 0.13320 0.89520 -0.87200
H 	H 	0.38820 0.19650 0.92720 0.30200
H 	H 	0.46630 0.12600 0.86370 0.28000
H 	H 	0.41140 0.10150 0.93590 0.30800
C 	C 	0.27110 0.99620 0.77910 -0.14200
C 	C 	0.39370 0.95590 0.77690 0.06900
H 	H 	0.47590 0.98960 0.80960 -0.00300
C 	C 	0.39460 0.86540 0.72610 -0.15900
H 	H 	0.47640 0.83690 0.72680 0.07600
C 	C 	0.27480 0.81870 0.67530 0.08100
H 	H 	0.27650 0.75850 0.63940 -0.02600
C 	C 	0.15380 0.94200 0.72750 0.08500
H 	H 	0.06950 0.96710 0.72970 0.00100
C 	C 	0.47870 0.62720 0.88010 0.06000
H 	H 	0.55980 0.60040 0.86980 0.00200
C 	C 	0.42970 0.68630 0.83800 -0.12600
H 	H 	0.47730 0.69910 0.80020 0.06000
C 	C 	0.30880 0.72630 0.85320 0.04500
H 	H 	0.27440 0.76610 0.82520 0.02900
C 	C 	0.23940 0.70710 0.90980 -0.11800
C 	C 	0.29800 0.64800 0.94970 0.07300
H 	H 	0.25440 0.63560 0.98950 0.02000
C 	C 	0.10040 0.74490 0.92540 0.36000
C 	C 	0.09530 0.76890 0.02010 -0.96800
H 	H 	0.17700 0.80580 0.05650 0.29900
H 	H 	0.08950 0.71450 0.03310 0.32000
H 	H 	0.01600 0.80190 0.03160 0.31400
C 	C 	0.97940 0.67290 0.86550 0.25800
C 	C 	0.83830 0.71050 0.87250 -0.77600
H 	H 	0.76740 0.66610 0.83190 0.27000
H 	H 	0.83400 0.76470 0.85850 0.27600
H 	H 	0.82530 0.72430 0.93160 0.28200
C 	C 	0.99610 0.63990 0.76940 -0.09800
C 	C 	0.04770 0.55800 0.73230 0.05200
H 	H 	0.06790 0.51960 0.76410 0.02800
C 	C 	0.06920 0.53310 0.64860 -0.13100
H 	H 	0.10080 0.47680 0.62200 0.07900
C 	C 	0.04390 0.59220 0.60390 0.07900
H 	H 	0.06280 0.57580 0.54790 -0.00300
C 	C 	0.96840 0.69420 0.71990 0.05800
H 	H 	0.93080 0.74890 0.74380 0.00700
C 	C 	0.73540 0.66600 0.38370 0.05700
H 	H 	0.79150 0.69410 0.36030 -0.00200
C 	C 	0.62090 0.61250 0.32860 -0.12500
H 	H 	0.60080 0.60400 0.26880 0.07200
C 	C 	0.53630 0.57170 0.36300 0.02900
H 	H 	0.45880 0.53490 0.32650 0.02800
C 	C 	0.56730 0.58580 0.45240 -0.10300
C 	C 	0.68520 0.63810 0.50140 0.05700
H 	H 	0.70920 0.64580 0.56100 0.00400
C 	C 	0.47230 0.54490 0.49460 0.26500
C 	C 	0.45790 0.61410 0.58380 -0.74500
H 	H 	0.44430 0.67230 0.57850 0.24500
H 	H 	0.53990 0.61840 0.62740 0.26000
H 	H 	0.38040 0.59490 0.60130 0.26200
Cd	Cd	0.04021 0.22479 0.43296 1.21600
N 	N 	0.69140 0.59970 0.07650 -0.23900
N 	N 	0.84610 0.14380 0.32510 -0.22900
N 	N 	0.58610 0.39250 0.06550 -0.22700
N 	N 	0.00640 0.32870 0.36270 -0.23700
N 	N 	0.23100 0.32070 0.53020 -0.22800
O 	O 	0.39480 0.58470 0.11220 -0.43400
O 	O 	0.26160 0.49920 0.15090 -0.32000
O 	O 	0.15210 0.65830 0.45860 -0.33200
O 	O 	0.06130 0.78750 0.46490 -0.41900
O 	O 	0.36650 0.97300 0.34930 -0.44700
O 	O 	0.16220 0.09960 0.44200 -0.33000
O 	O 	0.20570 0.14420 0.34030 -0.30500
O 	O 	0.89300 0.88400 0.28950 -0.42600
H 	H 	0.87830 0.91890 0.33630 0.24600
O 	O 	0.85120 0.89870 0.12030 -0.44400
H 	H 	0.92480 0.90520 0.15530 0.25200
O 	O 	0.91270 0.17640 0.10140 -0.41800
H 	H 	0.86690 0.13260 0.06240 0.22900
O 	O 	0.00700 0.39950 0.10160 -0.46500
H 	H 	0.07820 0.43290 0.12110 0.28500
O 	O 	0.66070 0.48290 0.56330 -0.44100
H 	H 	0.69980 0.43800 0.56620 0.27800
C 	C 	0.31490 0.57410 0.15800 0.34900
C 	C 	0.13330 0.72400 0.43300 0.32900
C 	C 	0.28300 0.65910 0.22820 -0.11700
C 	C 	0.22960 0.65270 0.29750 0.03800
H 	H 	0.21790 0.59640 0.30240 0.03000
C 	C 	0.19380 0.72910 0.35920 -0.11000
C 	C 	0.21120 0.81310 0.35080 0.01800
H 	H 	0.18520 0.86450 0.39130 0.04500
C 	C 	0.26640 0.82120 0.28320 -0.06700
C 	C 	0.30220 0.74350 0.22240 0.01000
H 	H 	0.33980 0.74820 0.17690 0.00900
C 	C 	0.27830 0.91270 0.27370 0.17300
H 	H 	0.18820 0.93600 0.26650 -0.01700
H 	H 	0.31430 0.90670 0.22190 -0.03700
C 	C 	0.35930 0.04730 0.38890 0.60000
H 	H 	0.38330 0.06590 0.34260 -0.09100
C 	C 	0.23230 0.09920 0.38870 0.08800
C 	C 	0.47870 0.10190 0.45370 -1.16300
H 	H 	0.55800 0.06720 0.44990 0.38300
H 	H 	0.49540 0.15570 0.44160 0.37500
H 	H 	0.46100 0.11840 0.51190 0.37400
C 	C 	0.81800 0.57420 0.07530 0.07700
H 	H 	0.82880 0.51510 0.04040 -0.01100
C 	C 	0.93230 0.62950 0.12210 -0.13700
H 	H 	0.01930 0.60840 0.12050 0.07700
C 	C 	0.91660 0.71970 0.17330 0.02900
H 	H 	0.99350 0.75950 0.20550 0.03800
C 	C 	0.78480 0.74860 0.17530 -0.09300
C 	C 	0.67600 0.68590 0.12650 0.03700
H 	H 	0.58730 0.70380 0.12820 -0.01100
C 	C 	0.76440 0.84690 0.22870 0.24900
C 	C 	0.65030 0.85260 0.27700 -0.76200
H 	H 	0.64770 0.91410 0.31520 0.25200
H 	H 	0.56420 0.83300 0.23520 0.24900
H 	H 	0.66610 0.81430 0.31150 0.25800
C 	C 	0.73610 0.90360 0.16680 0.28000
C 	C 	0.60660 0.86680 0.10480 -0.77400
H 	H 	0.61180 0.80350 0.07280 0.25000
H 	H 	0.53370 0.87400 0.13630 0.24000
H 	H 	0.58860 0.89850 0.06410 0.25300
C 	C 	0.72890 0.00380 0.22090 -0.12600
C 	C 	0.60630 0.04410 0.22310 0.05500
H 	H 	0.52410 0.01040 0.19040 -0.00400
C 	C 	0.60540 0.13460 0.27390 -0.15400
H 	H 	0.52360 0.16310 0.27320 0.07000
C 	C 	0.72520 0.18130 0.32470 0.07500
H 	H 	0.72350 0.24150 0.36060 -0.02500
C 	C 	0.84620 0.05800 0.27250 0.07500
H 	H 	0.93050 0.03290 0.27030 0.00400
C 	C 	0.52130 0.37280 0.11990 0.03900
H 	H 	0.44020 0.39960 0.13020 -0.00100
C 	C 	0.57030 0.31370 0.16200 -0.11400
H 	H 	0.52270 0.30090 0.19980 0.05100
C 	C 	0.69120 0.27370 0.14680 0.01100
H 	H 	0.72560 0.23390 0.17480 0.03600
C 	C 	0.76060 0.29290 0.09020 -0.08800
C 	C 	0.70200 0.35200 0.05030 0.04200
H 	H 	0.74560 0.36440 0.01050 -0.00400
C 	C 	0.89960 0.25510 0.07460 0.22000
C 	C 	0.90470 0.23110 0.97990 -0.70500
H 	H 	0.82300 0.19420 0.94350 0.24500
H 	H 	0.91050 0.28550 0.96690 0.27400
H 	H 	0.98400 0.19810 0.96840 0.26500
C 	C 	0.02060 0.32710 0.13450 0.28200
C 	C 	0.16170 0.28950 0.12750 -0.76500
H 	H 	0.23260 0.33390 0.16810 0.26200
H 	H 	0.16600 0.23530 0.14150 0.26200
H 	H 	0.17470 0.27570 0.06840 0.24800
C 	C 	0.00390 0.36010 0.23060 -0.10400
C 	C 	0.95230 0.44200 0.26770 0.05600
H 	H 	0.93210 0.48040 0.23590 0.02700
C 	C 	0.93080 0.46690 0.35140 -0.13300
H 	H 	0.89920 0.52320 0.37800 0.07900
C 	C 	0.95610 0.40780 0.39610 0.07900
H 	H 	0.93720 0.42420 0.45210 -0.00400
C 	C 	0.03160 0.30580 0.28010 0.06300
H 	H 	0.06920 0.25110 0.25620 0.00300
C 	C 	0.26460 0.33400 0.61630 0.05700
H 	H 	0.20850 0.30590 0.63970 -0.00200
C 	C 	0.37910 0.38750 0.67140 -0.12500
H 	H 	0.39920 0.39600 0.73120 0.07200
C 	C 	0.46370 0.42830 0.63700 0.02900
H 	H 	0.54120 0.46510 0.67350 0.02700
C 	C 	0.43270 0.41420 0.54760 -0.10400
C 	C 	0.31480 0.36190 0.49860 0.05700
H 	H 	0.29080 0.35420 0.43900 0.00300
C 	C 	0.52770 0.45510 0.50540 0.26500
C 	C 	0.54210 0.38590 0.41620 -0.74400
H 	H 	0.55570 0.32770 0.42150 0.24500
H 	H 	0.46010 0.38160 0.37260 0.25900
H 	H 	0.61960 0.40510 0.39870 0.26200
Cd	Cd	0.50000 0.50000 -0.00000 1.19600
