data_crystal

_cell_length_a 14.65950
_cell_length_b 14.55750
_cell_length_c 28.11400
_cell_angle_alpha 90.00000
_cell_angle_beta  90.00000
_cell_angle_gamma 90.00000

_symmetry_space_group_name_	'P 1'
_symmetry_space_group_name_H-M	'P 1'

loop_
_symmetry_equiv_pos_as_xyz
  x,y,z

loop_
_atom_site_label
_atom_site_type_symbol
_atom_site_fract_x
_atom_site_fract_y
_atom_site_fract_z
_atom_site_charge
Zn	Zn	0.53194 0.02257 0.03437 1.23100
Zn	Zn	0.48421 0.38625 0.08520 1.23800
Zn	Zn	0.45438 0.51868 0.89354 1.24100
Zn	Zn	0.59111 0.14623 0.83562 1.24900
Zn	Zn	0.40005 0.00855 0.15009 1.24000
Zn	Zn	0.49597 0.88809 0.84443 1.25600
Zn	Zn	0.38527 0.64972 0.09104 1.24700
Zn	Zn	0.41299 0.49594 0.27892 1.24200
P 	P 	0.46870 0.84777 0.08804 0.55000
P 	P 	0.43591 0.50717 0.17335 0.57900
P 	P 	0.50738 0.34111 0.83935 0.55400
P 	P 	0.44476 0.52128 0.00386 0.50500
P 	P 	0.55263 0.00755 0.75653 0.51900
P 	P 	0.52870 0.02242 0.92619 0.53300
P 	P 	0.53970 0.67975 0.83673 0.55800
P 	P 	0.43479 0.18209 0.08813 0.55400
P 	P 	0.28351 0.47281 0.82866 0.55200
P 	P 	0.72290 0.98027 0.08246 0.52700
P 	P 	0.69180 0.44737 0.10321 0.55100
P 	P 	0.78596 0.04570 0.84320 0.35700
P 	P 	0.29242 0.93950 0.82563 0.22100
O 	O 	0.63730 0.03630 0.07555 -0.42200
O 	O 	0.47650 0.90390 0.13382 -0.43400
O 	O 	0.36880 0.50320 0.21461 -0.39900
O 	O 	0.59100 0.27990 0.83958 -0.39800
O 	O 	0.58410 0.03280 0.97155 -0.36700
O 	O 	0.46460 0.90890 0.04433 -0.43700
O 	O 	0.54000 0.10590 0.77539 -0.39900
O 	O 	0.50280 0.40600 0.79617 -0.45500
O 	O 	0.38840 0.78200 0.08846 -0.40500
O 	O 	0.34160 0.53880 0.85698 -0.40500
O 	O 	0.62260 0.00180 0.71775 -0.39600
O 	O 	0.49790 0.39460 0.88502 -0.43300
O 	O 	0.39870 0.52380 0.95618 -0.35700
O 	O 	0.43920 0.13090 0.13476 -0.44700
O 	O 	0.55440 0.93130 0.90205 -0.39500
O 	O 	0.43630 0.59730 0.14780 -0.45200
O 	O 	0.41650 0.43510 0.03070 -0.43000
O 	O 	0.53030 0.62230 0.88137 -0.44300
O 	O 	0.47380 0.76000 0.83547 -0.40200
O 	O 	0.33980 0.23400 0.08472 -0.40900
H 	H 	0.30000 0.18900 0.08600 0.26900
O 	O 	0.55620 0.78640 0.08536 -0.40100
H 	H 	0.60700 0.82100 0.08900 0.26100
O 	O 	0.50570 0.25690 0.08486 -0.43000
O 	O 	0.42580 0.01610 0.94297 -0.18600
O 	O 	0.28050 0.37820 0.85199 -0.29100
O 	O 	0.45840 0.97950 0.73419 -0.21200
O 	O 	0.75330 0.36820 0.09160 -0.42500
O 	O 	0.42370 0.27400 0.83359 -0.40000
H 	H 	0.37100 0.30000 0.84200 0.26800
O 	O 	0.57670 0.94270 0.79703 -0.41200
O 	O 	0.73830 0.53970 0.08690 -0.35700
H 	H 	0.79500 0.53800 0.09700 0.20300
O 	O 	0.54960 0.51450 0.99278 -0.32900
H 	H 	0.58800 0.49200 0.01470 0.20000
O 	O 	0.78160 0.02020 0.12103 -0.40200
O 	O 	0.70450 0.87910 0.09190 -0.29600
O 	O 	0.52890 0.62260 0.79144 -0.42800
O 	O 	0.41700 0.42770 0.14002 -0.45300
O 	O 	0.53780 0.10220 0.89351 -0.42600
O 	O 	0.53120 0.49590 0.19779 -0.45000
H 	H 	0.58300 0.48400 0.18200 0.28900
O 	O 	0.60400 0.44380 0.07446 -0.43900
O 	O 	0.44010 0.11570 0.04644 -0.44300
O 	O 	0.77750 0.98480 0.03342 -0.21000
O 	O 	0.67400 0.45460 0.15607 -0.27100
O 	O 	0.32970 0.46070 0.77743 -0.37100
H 	H 	0.38940 0.45500 0.78000 0.23500
O 	O 	0.63710 0.72510 0.83794 -0.39700
H 	H 	0.68600 0.68900 0.84400 0.26300
O 	O 	0.19080 0.51290 0.81995 -0.42200
O 	O 	0.42920 0.60790 0.03154 -0.44600
O 	O 	0.75050 0.95440 0.83080 -0.18100
O 	O 	0.72130 0.12450 0.83430 -0.41000
O 	O 	0.87450 0.06260 0.85950 -0.25000
O 	O 	0.38120 0.94380 0.82240 -0.25600
O 	O 	0.82120 0.07170 0.77610 -0.11200
O 	O 	0.29420 0.95750 0.89850 -0.10700
Zn	Zn	0.46806 0.97743 0.53437 1.24100
Zn	Zn	0.51579 0.61375 0.58520 1.24000
Zn	Zn	0.54562 0.48132 0.39354 1.24200
Zn	Zn	0.40889 0.85377 0.33562 1.24900
Zn	Zn	0.59995 0.99145 0.65009 1.24000
Zn	Zn	0.50403 0.11191 0.34443 1.25500
Zn	Zn	0.61473 0.35028 0.59104 1.24800
Zn	Zn	0.58701 0.50406 0.77892 1.24200
P 	P 	0.53130 0.15223 0.58804 0.54900
P 	P 	0.56409 0.49283 0.67335 0.57800
P 	P 	0.49262 0.65889 0.33935 0.55300
P 	P 	0.55524 0.47872 0.50386 0.58000
P 	P 	0.44737 0.99245 0.25653 0.51900
P 	P 	0.47130 0.97758 0.42619 0.53400
P 	P 	0.46030 0.32025 0.33673 0.55800
P 	P 	0.56521 0.81791 0.58813 0.55400
P 	P 	0.71649 0.52719 0.32866 0.55200
P 	P 	0.27710 0.01973 0.58246 0.52700
P 	P 	0.30820 0.55263 0.60321 0.55100
P 	P 	0.21404 0.95430 0.34320 0.35600
P 	P 	0.70758 0.06050 0.32563 0.22300
O 	O 	0.36270 0.96370 0.57555 -0.41500
O 	O 	0.52350 0.09610 0.63382 -0.43400
O 	O 	0.63120 0.49680 0.71461 -0.39900
O 	O 	0.40900 0.72010 0.33958 -0.40100
O 	O 	0.41590 0.96720 0.47155 -0.39400
O 	O 	0.53540 0.09110 0.54433 -0.42400
O 	O 	0.46000 0.89410 0.27539 -0.39900
O 	O 	0.49720 0.59400 0.29617 -0.45500
O 	O 	0.61160 0.21800 0.58846 -0.40000
O 	O 	0.65840 0.46120 0.35698 -0.40700
O 	O 	0.37740 0.99820 0.21775 -0.39600
O 	O 	0.50210 0.60540 0.38502 -0.43900
O 	O 	0.60130 0.47620 0.45618 -0.39700
O 	O 	0.56080 0.86910 0.63476 -0.44700
O 	O 	0.44560 0.06870 0.40205 -0.40100
O 	O 	0.56370 0.40270 0.64780 -0.45200
O 	O 	0.58350 0.56490 0.53070 -0.42800
O 	O 	0.46970 0.37770 0.38137 -0.44800
O 	O 	0.52620 0.24000 0.33547 -0.40400
O 	O 	0.66020 0.76600 0.58472 -0.40400
H 	H 	0.70000 0.81100 0.58600 0.26900
O 	O 	0.44380 0.21360 0.58536 -0.39500
H 	H 	0.39300 0.17900 0.58900 0.26200
O 	O 	0.49430 0.74310 0.58486 -0.42400
O 	O 	0.57420 0.98390 0.44297 -0.20300
O 	O 	0.71950 0.62180 0.35199 -0.29400
O 	O 	0.54160 0.02050 0.23419 -0.21200
O 	O 	0.24670 0.63180 0.59160 -0.42000
O 	O 	0.57630 0.72600 0.33359 -0.40200
H 	H 	0.62900 0.70000 0.34200 0.26700
O 	O 	0.42330 0.05730 0.29703 -0.41200
O 	O 	0.26170 0.46030 0.58690 -0.35300
H 	H 	0.20500 0.46200 0.59700 0.20200
O 	O 	0.45040 0.48550 0.49278 -0.42200
H 	H 	0.41200 0.50800 0.51470 0.25700
O 	O 	0.21840 0.97980 0.62103 -0.40200
O 	O 	0.29550 0.12090 0.59190 -0.29300
O 	O 	0.47110 0.37740 0.29144 -0.42800
O 	O 	0.58300 0.57230 0.64002 -0.45300
O 	O 	0.46220 0.89780 0.39351 -0.43100
O 	O 	0.46880 0.50410 0.69779 -0.45000
H 	H 	0.41700 0.51600 0.68200 0.28900
O 	O 	0.39600 0.55620 0.57446 -0.43700
O 	O 	0.55990 0.88430 0.54644 -0.43000
O 	O 	0.22250 0.01520 0.53342 -0.19300
O 	O 	0.32600 0.54540 0.65607 -0.27100
O 	O 	0.67030 0.53930 0.27743 -0.37100
H 	H 	0.61060 0.54500 0.28000 0.23500
O 	O 	0.36290 0.27490 0.33794 -0.39900
H 	H 	0.31400 0.31100 0.34400 0.26200
O 	O 	0.80920 0.48710 0.31995 -0.42300
O 	O 	0.57080 0.39210 0.53154 -0.44400
O 	O 	0.24950 0.04560 0.33080 -0.18300
O 	O 	0.27870 0.87550 0.33430 -0.41200
O 	O 	0.12550 0.93740 0.35950 -0.25200
O 	O 	0.61880 0.05620 0.32240 -0.25600
O 	O 	0.17880 0.92830 0.27610 -0.11300
O 	O 	0.70580 0.04250 0.39850 -0.11500
Zn	Zn	0.03194 0.97743 0.03437 1.23200
Zn	Zn	0.98421 0.61375 0.08520 1.24000
Zn	Zn	0.95438 0.48132 0.89354 1.24200
Zn	Zn	0.09111 0.85377 0.83562 1.24900
Zn	Zn	0.90005 0.99145 0.15009 1.24100
Zn	Zn	0.99597 0.11191 0.84443 1.25600
Zn	Zn	0.88527 0.35028 0.09104 1.24700
Zn	Zn	0.91299 0.50406 0.27892 1.24200
P 	P 	0.96870 0.15223 0.08804 0.55000
P 	P 	0.93591 0.49283 0.17335 0.57900
P 	P 	0.00738 0.65889 0.83935 0.55100
P 	P 	0.94476 0.47872 0.00386 0.50700
P 	P 	0.05263 0.99245 0.75653 0.51700
P 	P 	0.02870 0.97758 0.92619 0.53000
P 	P 	0.03970 0.32025 0.83673 0.55800
P 	P 	0.93479 0.81791 0.08813 0.55500
P 	P 	0.78351 0.52719 0.82866 0.55200
P 	P 	0.22290 0.01973 0.08246 0.52700
P 	P 	0.19180 0.55263 0.10321 0.55100
P 	P 	0.28596 0.95430 0.84320 0.35700
P 	P 	0.79242 0.06050 0.82563 0.22100
O 	O 	0.13730 0.96370 0.07555 -0.42300
O 	O 	0.97650 0.09610 0.13382 -0.43400
O 	O 	0.86880 0.49680 0.21461 -0.39900
O 	O 	0.09100 0.72010 0.83958 -0.39800
O 	O 	0.08410 0.96720 0.97155 -0.36700
O 	O 	0.96460 0.09110 0.04433 -0.43700
O 	O 	0.04000 0.89410 0.77539 -0.40000
O 	O 	0.00280 0.59400 0.79617 -0.45600
O 	O 	0.88840 0.21800 0.08846 -0.40500
O 	O 	0.84160 0.46120 0.85698 -0.40400
O 	O 	0.12260 0.99820 0.71775 -0.39600
O 	O 	0.99790 0.60540 0.88502 -0.43100
O 	O 	0.89870 0.47620 0.95618 -0.35700
O 	O 	0.93920 0.86910 0.13476 -0.44600
O 	O 	0.05440 0.06870 0.90205 -0.39400
O 	O 	0.93630 0.40270 0.14780 -0.45200
O 	O 	0.91650 0.56490 0.03070 -0.43000
O 	O 	0.03030 0.37770 0.88137 -0.44300
O 	O 	0.97380 0.24000 0.83547 -0.40100
O 	O 	0.83980 0.76600 0.08472 -0.40900
H 	H 	0.80000 0.81100 0.08600 0.26900
O 	O 	0.05620 0.21360 0.08536 -0.40000
H 	H 	0.10700 0.17900 0.08900 0.26100
O 	O 	0.00570 0.74310 0.08486 -0.43100
O 	O 	0.92580 0.98390 0.94297 -0.18400
O 	O 	0.78050 0.62180 0.85199 -0.29100
O 	O 	0.95840 0.02050 0.73419 -0.21100
O 	O 	0.25330 0.63180 0.09160 -0.42500
O 	O 	0.92370 0.72600 0.83359 -0.39800
H 	H 	0.87100 0.70000 0.84200 0.26800
O 	O 	0.07670 0.05730 0.79703 -0.41100
O 	O 	0.23830 0.46030 0.08690 -0.35700
H 	H 	0.29500 0.46200 0.09700 0.20300
O 	O 	0.04960 0.48550 0.99278 -0.33100
H 	H 	0.08800 0.50800 0.01470 0.20100
O 	O 	0.28160 0.97980 0.12103 -0.40200
O 	O 	0.20450 0.12090 0.09190 -0.29600
O 	O 	0.02890 0.37740 0.79144 -0.42800
O 	O 	0.91700 0.57230 0.14002 -0.45300
O 	O 	0.03780 0.89780 0.89351 -0.42600
O 	O 	0.03120 0.50410 0.19779 -0.45100
H 	H 	0.08300 0.51600 0.18200 0.28900
O 	O 	0.10400 0.55620 0.07446 -0.43900
O 	O 	0.94010 0.88430 0.04644 -0.44200
O 	O 	0.27750 0.01520 0.03342 -0.21000
O 	O 	0.17400 0.54540 0.15607 -0.27100
O 	O 	0.82970 0.53930 0.77743 -0.37100
H 	H 	0.88940 0.54500 0.78000 0.23500
O 	O 	0.13710 0.27490 0.83794 -0.39700
H 	H 	0.18600 0.31100 0.84400 0.26300
O 	O 	0.69080 0.48710 0.81995 -0.42200
O 	O 	0.92920 0.39210 0.03154 -0.44600
O 	O 	0.25050 0.04560 0.83080 -0.18200
O 	O 	0.22130 0.87550 0.83430 -0.41000
O 	O 	0.37450 0.93740 0.85950 -0.25000
O 	O 	0.88120 0.05620 0.82240 -0.25600
O 	O 	0.32120 0.92830 0.77610 -0.11200
O 	O 	0.79420 0.04250 0.89850 -0.10700
Zn	Zn	0.96806 0.02257 0.53437 1.24100
Zn	Zn	0.01579 0.38625 0.58520 1.24000
Zn	Zn	0.04562 0.51868 0.39354 1.24100
Zn	Zn	0.90889 0.14623 0.33562 1.24900
Zn	Zn	0.09995 0.00855 0.65009 1.24100
Zn	Zn	0.00403 0.88809 0.34443 1.25500
Zn	Zn	0.11473 0.64972 0.59104 1.24800
Zn	Zn	0.08701 0.49594 0.77892 1.24200
P 	P 	0.03130 0.84777 0.58804 0.54800
P 	P 	0.06409 0.50717 0.67335 0.57700
P 	P 	0.99262 0.34111 0.33935 0.55500
P 	P 	0.05524 0.52128 0.50386 0.57900
P 	P 	0.94737 0.00755 0.25653 0.51900
P 	P 	0.97130 0.02242 0.42619 0.53300
P 	P 	0.96030 0.67975 0.33673 0.56000
P 	P 	0.06521 0.18209 0.58813 0.55300
P 	P 	0.21649 0.47281 0.32866 0.55200
P 	P 	0.77710 0.98027 0.58246 0.52800
P 	P 	0.80820 0.44737 0.60321 0.55100
P 	P 	0.71404 0.04570 0.34320 0.35600
P 	P 	0.20758 0.93950 0.32563 0.22300
O 	O 	0.86270 0.03630 0.57555 -0.41600
O 	O 	0.02350 0.90390 0.63382 -0.43500
O 	O 	0.13120 0.50320 0.71461 -0.39900
O 	O 	0.90900 0.27990 0.33958 -0.40000
O 	O 	0.91590 0.03280 0.47155 -0.39300
O 	O 	0.03540 0.90890 0.54433 -0.42500
O 	O 	0.96000 0.10590 0.27539 -0.39900
O 	O 	0.99720 0.40600 0.29617 -0.45500
O 	O 	0.11160 0.78200 0.58846 -0.40000
O 	O 	0.15840 0.53880 0.35698 -0.40700
O 	O 	0.87740 0.00180 0.21775 -0.39600
O 	O 	0.00210 0.39460 0.38502 -0.44000
O 	O 	0.10130 0.52380 0.45618 -0.39700
O 	O 	0.06080 0.13090 0.63476 -0.44700
O 	O 	0.94560 0.93130 0.40205 -0.39900
O 	O 	0.06370 0.59730 0.64780 -0.45300
O 	O 	0.08350 0.43510 0.53070 -0.42800
O 	O 	0.96970 0.62230 0.38137 -0.44700
O 	O 	0.02620 0.76000 0.33547 -0.40600
O 	O 	0.16020 0.23400 0.58472 -0.40500
H 	H 	0.20000 0.18900 0.58600 0.26900
O 	O 	0.94380 0.78640 0.58536 -0.39300
H 	H 	0.89300 0.82100 0.58900 0.26200
O 	O 	0.99430 0.25690 0.58486 -0.42300
O 	O 	0.07420 0.01610 0.44297 -0.20300
O 	O 	0.21950 0.37820 0.35199 -0.29400
O 	O 	0.04160 0.97950 0.23419 -0.21200
O 	O 	0.74670 0.36820 0.59160 -0.42000
O 	O 	0.07630 0.27400 0.33359 -0.40200
H 	H 	0.12900 0.30000 0.34200 0.26700
O 	O 	0.92330 0.94270 0.29703 -0.41000
O 	O 	0.76170 0.53970 0.58690 -0.35200
H 	H 	0.70500 0.53800 0.59700 0.20200
O 	O 	0.95040 0.51450 0.49278 -0.42000
H 	H 	0.91200 0.49200 0.51470 0.25700
O 	O 	0.71840 0.02020 0.62103 -0.40200
O 	O 	0.79550 0.87910 0.59190 -0.29200
O 	O 	0.97110 0.62260 0.29144 -0.42700
O 	O 	0.08300 0.42770 0.64002 -0.45300
O 	O 	0.96220 0.10220 0.39351 -0.43000
O 	O 	0.96880 0.49590 0.69779 -0.44800
H 	H 	0.91700 0.48400 0.68200 0.28900
O 	O 	0.89600 0.44380 0.57446 -0.43700
O 	O 	0.05990 0.11570 0.54644 -0.43000
O 	O 	0.72250 0.98480 0.53342 -0.19300
O 	O 	0.82600 0.45460 0.65607 -0.27100
O 	O 	0.17030 0.46070 0.27743 -0.37100
H 	H 	0.11060 0.45500 0.28000 0.23500
O 	O 	0.86290 0.72510 0.33794 -0.39900
H 	H 	0.81400 0.68900 0.34400 0.26200
O 	O 	0.30920 0.51290 0.31995 -0.42400
O 	O 	0.07080 0.60790 0.53154 -0.44400
O 	O 	0.74950 0.95440 0.33080 -0.18300
O 	O 	0.77870 0.12450 0.33430 -0.41200
O 	O 	0.62550 0.06260 0.35950 -0.25100
O 	O 	0.11880 0.94380 0.32240 -0.25600
O 	O 	0.67880 0.07170 0.27610 -0.11200
O 	O 	0.20580 0.95750 0.39850 -0.11500
