data_crystal

_cell_length_a 8.48800
_cell_length_b 17.72100
_cell_length_c 9.02400
_cell_angle_alpha 90.00000
_cell_angle_beta  106.96000
_cell_angle_gamma 90.00000

_symmetry_space_group_name_	'P 1'
_symmetry_space_group_name_H-M	'P 1'

loop_
_symmetry_equiv_pos_as_xyz
  x,y,z

loop_
_atom_site_label
_atom_site_type_symbol
_atom_site_fract_x
_atom_site_fract_y
_atom_site_fract_z
_atom_site_charge
Al	Al	0.98326 0.17661 0.80777 2.39700
Al	Al	0.92775 0.29447 0.20718 2.39900
Al	Al	0.37140 0.39251 0.82961 2.39700
P 	P 	0.20442 0.28997 0.02454 0.77400
P 	P 	0.73364 0.16925 0.00012 0.73700
P 	P 	0.15737 0.07138 0.63749 0.81500
O 	O 	0.16310 0.22330 0.91110 -0.79600
O 	O 	0.23940 0.35908 0.94280 -0.70000
O 	O 	0.05980 0.30650 0.08460 -0.74600
O 	O 	0.35760 0.26890 0.15700 -0.78400
O 	O 	0.87410 0.14730 0.93170 -0.79400
O 	O 	0.56920 0.15880 0.87960 -0.62900
O 	O 	0.74340 0.11410 0.13170 -0.66800
O 	O 	0.75370 0.25038 0.05660 -0.74300
O 	O 	0.04440 0.09440 0.73660 -0.78700
O 	O 	0.06560 0.08370 0.46880 -0.73700
O 	O 	0.31300 0.11870 0.68290 -0.69100
O 	O 	0.20880 0.99073 0.67000 -0.62700
O 	O 	0.96610 0.20340 0.30990 -1.22100
H 	H 	0.06280 0.20450 0.37260 0.41000
Al	Al	0.51674 0.67661 0.69223 2.39600
Al	Al	0.57225 0.79447 0.29282 2.39800
Al	Al	0.12860 0.89251 0.67039 2.39700
P 	P 	0.29558 0.78997 0.47546 0.78100
P 	P 	0.76636 0.66925 0.49988 0.74200
P 	P 	0.34263 0.57138 0.86251 0.80900
O 	O 	0.33690 0.72330 0.58890 -0.80300
O 	O 	0.26060 0.85908 0.55720 -0.70600
O 	O 	0.44020 0.80650 0.41540 -0.75000
O 	O 	0.14240 0.76890 0.34300 -0.78700
O 	O 	0.62590 0.64730 0.56830 -0.79300
O 	O 	0.93080 0.65880 0.62040 -0.62800
O 	O 	0.75660 0.61410 0.36830 -0.66500
O 	O 	0.74630 0.75038 0.44340 -0.74100
O 	O 	0.45560 0.59440 0.76340 -0.79400
O 	O 	0.43440 0.58370 0.03120 -0.74200
O 	O 	0.18700 0.61870 0.81710 -0.69200
O 	O 	0.29120 0.49073 0.83000 -0.61900
O 	O 	0.53390 0.70340 0.19010 -1.20800
H 	H 	0.43720 0.70450 0.12740 0.40000
Al	Al	0.01674 0.82339 0.19223 2.39600
Al	Al	0.07225 0.70553 0.79282 2.39800
Al	Al	0.62860 0.60749 0.17039 2.39700
P 	P 	0.79558 0.71003 0.97546 0.77400
P 	P 	0.26636 0.83075 0.99988 0.73700
P 	P 	0.84263 0.92862 0.36251 0.81500
O 	O 	0.83690 0.77670 0.08890 -0.79600
O 	O 	0.76060 0.64092 0.05720 -0.70000
O 	O 	0.94020 0.69350 0.91540 -0.74600
O 	O 	0.64240 0.73110 0.84300 -0.78400
O 	O 	0.12590 0.85270 0.06830 -0.79400
O 	O 	0.43080 0.84120 0.12040 -0.62900
O 	O 	0.25660 0.88590 0.86830 -0.66800
O 	O 	0.24630 0.74962 0.94340 -0.74300
O 	O 	0.95560 0.90560 0.26340 -0.78700
O 	O 	0.93440 0.91630 0.53120 -0.73700
O 	O 	0.68700 0.88130 0.31710 -0.69100
O 	O 	0.79120 0.00927 0.33000 -0.62700
O 	O 	0.03390 0.79660 0.69010 -1.22100
H 	H 	0.93720 0.79550 0.62740 0.41000
Al	Al	0.48326 0.32339 0.30777 2.39600
Al	Al	0.42775 0.20553 0.70718 2.39800
Al	Al	0.87140 0.10749 0.32961 2.39700
P 	P 	0.70442 0.21003 0.52454 0.78100
P 	P 	0.23364 0.33075 0.50012 0.74200
P 	P 	0.65737 0.42862 0.13749 0.80900
O 	O 	0.66310 0.27670 0.41110 -0.80300
O 	O 	0.73940 0.14092 0.44280 -0.70600
O 	O 	0.55980 0.19350 0.58460 -0.75000
O 	O 	0.85760 0.23110 0.65700 -0.78700
O 	O 	0.37410 0.35270 0.43170 -0.79300
O 	O 	0.06920 0.34120 0.37960 -0.62800
O 	O 	0.24340 0.38590 0.63170 -0.66500
O 	O 	0.25370 0.24962 0.55660 -0.74100
O 	O 	0.54440 0.40560 0.23660 -0.79400
O 	O 	0.56560 0.41630 0.96880 -0.74200
O 	O 	0.81300 0.38130 0.18290 -0.69200
O 	O 	0.70880 0.50927 0.17000 -0.61900
O 	O 	0.46610 0.29660 0.80990 -1.20800
H 	H 	0.56280 0.29550 0.87260 0.40000
