data_crystal

_cell_length_a 9.74410
_cell_length_b 12.33180
_cell_length_c 15.77370
_cell_angle_alpha 88.97900
_cell_angle_beta  77.39900
_cell_angle_gamma 69.49800

_symmetry_space_group_name_	'P 1'
_symmetry_space_group_name_H-M	'P 1'

loop_
_symmetry_equiv_pos_as_xyz
  x,y,z

loop_
_atom_site_label
_atom_site_type_symbol
_atom_site_fract_x
_atom_site_fract_y
_atom_site_fract_z
_atom_site_charge
Ce	Ce	0.79883 0.47203 0.01559 2.16100
O 	O 	0.65670 0.36570 0.10780 -0.50200
O 	O 	0.51480 0.26200 0.09370 -0.49800
H 	H 	0.49290 0.30750 0.05440 0.29300
O 	O 	0.75410 0.55210 0.16610 -0.45900
O 	O 	0.95350 0.58460 0.09140 -0.58200
O 	O 	0.01610 0.67670 0.92260 -0.50600
O 	O 	0.80630 0.63490 0.93360 -0.51200
O 	O 	0.69530 0.40360 0.90820 -0.49700
O 	O 	0.46890 0.38730 0.95580 -0.47600
C 	C 	0.72840 0.04420 0.43790 -0.01700
C 	C 	0.76940 0.92410 0.44260 -0.01700
C 	C 	0.79170 0.87570 0.52190 -0.05600
H 	H 	0.82220 0.79380 0.52450 0.03700
C 	C 	0.77110 0.94300 0.59750 -0.01700
C 	C 	0.72590 0.06340 0.59350 -0.01700
C 	C 	0.70770 0.11130 0.51320 -0.05500
H 	H 	0.68010 0.19290 0.51020 0.03800
C 	C 	0.69890 0.10580 0.35740 0.07400
C 	C 	0.62090 0.07290 0.30440 -0.13900
H 	H 	0.58790 0.00950 0.31870 0.08100
C 	C 	0.59130 0.13160 0.23130 0.07600
H 	H 	0.53730 0.10880 0.19610 0.02900
C 	C 	0.63960 0.22340 0.20890 -0.16600
C 	C 	0.71800 0.25730 0.26110 0.06700
H 	H 	0.75080 0.32070 0.24660 0.01900
C 	C 	0.74770 0.19760 0.33440 -0.14000
H 	H 	0.80230 0.22010 0.36940 0.07200
C 	C 	0.60420 0.29060 0.13250 0.46000
C 	C 	0.79340 0.84100 0.36840 0.07000
C 	C 	0.90160 0.83000 0.29200 -0.13600
H 	H 	0.96020 0.87840 0.28510 0.07700
C 	C 	0.92450 0.74810 0.22570 0.06700
H 	H 	0.00210 0.73860 0.17500 0.00200
C 	C 	0.83590 0.68060 0.23270 -0.16000
C 	C 	0.72660 0.69220 0.30890 0.06300
H 	H 	0.66420 0.64690 0.31430 0.01700
C 	C 	0.70820 0.76910 0.37670 -0.14100
H 	H 	0.63700 0.77320 0.42950 0.06800
C 	C 	0.84940 0.60040 0.15980 0.39300
C 	C 	0.80240 0.87890 0.67660 0.06900
C 	C 	0.75810 0.78390 0.69600 -0.13200
H 	H 	0.70750 0.76090 0.65860 0.06900
C 	C 	0.78580 0.72230 0.76800 0.06800
H 	H 	0.75110 0.65960 0.78100 0.02000
C 	C 	0.86510 0.75230 0.82190 -0.14400
C 	C 	0.91400 0.84450 0.80200 0.06600
H 	H 	0.97030 0.86430 0.83720 0.02200
C 	C 	0.88130 0.90810 0.73090 -0.12800
H 	H 	0.91310 0.97250 0.71910 0.07600
C 	C 	0.89920 0.68290 0.89930 0.43400
C 	C 	0.68750 0.14460 0.67120 0.07300
C 	C 	0.58750 0.13790 0.74720 -0.13300
H 	H 	0.54360 0.07980 0.75030 0.08000
C 	C 	0.55130 0.21500 0.81820 0.07600
H 	H 	0.47910 0.21180 0.86870 0.01400
C 	C 	0.61920 0.29650 0.81640 -0.16200
C 	C 	0.71690 0.30540 0.74250 0.07200
H 	H 	0.76320 0.36190 0.74100 0.00900
C 	C 	0.74900 0.23140 0.66870 -0.14100
H 	H 	0.81330 0.24040 0.61650 0.06800
C 	C 	0.59290 0.36890 0.89840 0.41800
Ce	Ce	0.20117 0.52797 0.98441 2.16200
O 	O 	0.34330 0.63430 0.89220 -0.50100
O 	O 	0.48520 0.73800 0.90630 -0.49700
H 	H 	0.50710 0.69250 0.94560 0.29400
O 	O 	0.24590 0.44790 0.83390 -0.45900
O 	O 	0.04650 0.41540 0.90860 -0.58200
O 	O 	0.98390 0.32330 0.07740 -0.50600
O 	O 	0.19370 0.36510 0.06640 -0.51200
O 	O 	0.30470 0.59640 0.09180 -0.49700
O 	O 	0.53110 0.61270 0.04420 -0.47600
C 	C 	0.27160 0.95580 0.56210 -0.01700
C 	C 	0.23060 0.07590 0.55740 -0.01700
C 	C 	0.20830 0.12430 0.47810 -0.05600
H 	H 	0.17780 0.20620 0.47550 0.03700
C 	C 	0.22890 0.05700 0.40250 -0.01700
C 	C 	0.27410 0.93660 0.40650 -0.01700
C 	C 	0.29230 0.88870 0.48680 -0.05500
H 	H 	0.31990 0.80710 0.48980 0.03800
C 	C 	0.30110 0.89420 0.64260 0.07400
C 	C 	0.37910 0.92710 0.69560 -0.13900
H 	H 	0.41210 0.99050 0.68130 0.08100
C 	C 	0.40870 0.86840 0.76870 0.07600
H 	H 	0.46270 0.89120 0.80390 0.02900
C 	C 	0.36040 0.77660 0.79110 -0.16600
C 	C 	0.28200 0.74270 0.73890 0.06700
H 	H 	0.24920 0.67930 0.75340 0.01900
C 	C 	0.25230 0.80240 0.66560 -0.14000
H 	H 	0.19770 0.77990 0.63060 0.07200
C 	C 	0.39580 0.70940 0.86750 0.46000
C 	C 	0.20660 0.15900 0.63160 0.07000
C 	C 	0.09840 0.17000 0.70800 -0.13600
H 	H 	0.03980 0.12160 0.71490 0.07700
C 	C 	0.07550 0.25190 0.77430 0.06700
H 	H 	0.99790 0.26140 0.82500 0.00200
C 	C 	0.16410 0.31940 0.76730 -0.16000
C 	C 	0.27340 0.30780 0.69110 0.06300
H 	H 	0.33580 0.35310 0.68570 0.01700
C 	C 	0.29180 0.23090 0.62330 -0.14100
H 	H 	0.36300 0.22680 0.57050 0.06800
C 	C 	0.15060 0.39960 0.84020 0.39300
C 	C 	0.19760 0.12110 0.32340 0.06900
C 	C 	0.24190 0.21610 0.30400 -0.13200
H 	H 	0.29250 0.23910 0.34140 0.06900
C 	C 	0.21420 0.27770 0.23200 0.06800
H 	H 	0.24890 0.34040 0.21900 0.02000
C 	C 	0.13490 0.24770 0.17810 -0.14400
C 	C 	0.08600 0.15550 0.19800 0.06600
H 	H 	0.02970 0.13570 0.16280 0.02200
C 	C 	0.11870 0.09190 0.26910 -0.12800
H 	H 	0.08690 0.02750 0.28090 0.07600
C 	C 	0.10080 0.31710 0.10070 0.43400
C 	C 	0.31250 0.85540 0.32880 0.07300
C 	C 	0.41250 0.86210 0.25280 -0.13300
H 	H 	0.45640 0.92020 0.24970 0.08000
C 	C 	0.44870 0.78500 0.18180 0.07600
H 	H 	0.52090 0.78820 0.13130 0.01400
C 	C 	0.38080 0.70350 0.18360 -0.16200
C 	C 	0.28310 0.69460 0.25750 0.07200
H 	H 	0.23680 0.63810 0.25900 0.00900
C 	C 	0.25100 0.76860 0.33130 -0.14100
H 	H 	0.18670 0.75960 0.38350 0.06800
C 	C 	0.40710 0.63110 0.10160 0.41800
C 	C 	0.70300 0.49900 0.54400 -0.12000
C 	C 	0.74000 0.46200 0.45650 -0.06600
H 	H 	0.66860 0.44640 0.43100 -0.06300
C 	C 	0.88300 0.44700 0.40630 0.13500
H 	H 	0.90820 0.42150 0.34650 -0.03600
C 	C 	0.98800 0.46900 0.44360 -0.08400
H 	H 	0.08480 0.45910 0.40940 0.04400
C 	C 	0.95000 0.50600 0.53110 -0.04800
C 	C 	0.80800 0.52100 0.58130 0.09400
H 	H 	0.78220 0.54640 0.64110 0.00400
C 	C 	0.53800 0.51600 0.59600 -0.08900
H 	H 	0.46530 0.57520 0.57050 0.13100
H 	H 	0.52640 0.54010 0.65720 0.00200
H 	H 	0.52100 0.44230 0.59400 0.07600
C 	C 	0.09300 0.52800 0.55200 -0.16700
H 	H 	0.17790 0.45470 0.54530 0.11500
H 	H 	0.06720 0.56120 0.61220 0.01000
H 	H 	0.12050 0.58280 0.51200 0.11400
C 	C 	0.79700 0.48000 0.47290 -0.16100
C 	C 	0.75600 0.50900 0.56180 -0.00900
H 	H 	0.82770 0.51620 0.59150 -0.07900
C 	C 	0.60900 0.52900 0.60740 0.16400
H 	H 	0.58100 0.54870 0.66820 -0.06100
C 	C 	0.50400 0.51900 0.56400 -0.10500
H 	H 	0.40390 0.53200 0.59510 0.00200
C 	C 	0.54500 0.49000 0.47500 0.05800
C 	C 	0.69200 0.47000 0.42940 0.10700
H 	H 	0.72020 0.45030 0.36860 -0.00400
C 	C 	0.96300 0.46700 0.42500 -0.08800
H 	H 	0.97740 0.54140 0.43090 0.09300
H 	H 	0.97940 0.44570 0.36300 0.02600
H 	H 	0.03480 0.40710 0.45080 0.09100
C 	C 	0.39800 0.48400 0.44700 -0.39800
H 	H 	0.36980 0.42180 0.47710 0.15500
H 	H 	0.42070 0.46750 0.38420 0.08700
H 	H 	0.31540 0.55800 0.46380 0.20300
C 	C 	0.29700 0.50100 0.45600 -0.12000
C 	C 	0.26000 0.53800 0.54350 -0.06600
H 	H 	0.33140 0.55360 0.56900 -0.06300
C 	C 	0.11700 0.55300 0.59370 0.13500
H 	H 	0.09180 0.57850 0.65350 -0.03600
C 	C 	0.01200 0.53100 0.55640 -0.08400
H 	H 	0.91520 0.54090 0.59060 0.04400
C 	C 	0.05000 0.49400 0.46890 -0.04800
C 	C 	0.19200 0.47900 0.41870 0.09400
H 	H 	0.21780 0.45360 0.35890 0.00400
C 	C 	0.46200 0.48400 0.40400 -0.08900
H 	H 	0.53470 0.42480 0.42950 0.13100
H 	H 	0.47360 0.45990 0.34280 0.00200
H 	H 	0.47900 0.55770 0.40600 0.07600
C 	C 	0.90700 0.47200 0.44800 -0.16700
H 	H 	0.82210 0.54530 0.45470 0.11500
H 	H 	0.93280 0.43880 0.38780 0.01000
H 	H 	0.87950 0.41720 0.48800 0.11400
C 	C 	0.20300 0.52000 0.52710 -0.16100
C 	C 	0.24400 0.49100 0.43820 -0.00900
H 	H 	0.17230 0.48380 0.40850 -0.07900
C 	C 	0.39100 0.47100 0.39260 0.16400
H 	H 	0.41900 0.45130 0.33180 -0.06100
C 	C 	0.49600 0.48100 0.43600 -0.10500
H 	H 	0.59610 0.46800 0.40490 0.00200
C 	C 	0.45500 0.51000 0.52500 0.05800
C 	C 	0.30800 0.53000 0.57060 0.10700
H 	H 	0.27980 0.54970 0.63140 -0.00400
C 	C 	0.03700 0.53300 0.57500 -0.08800
H 	H 	0.02260 0.45860 0.56910 0.09300
H 	H 	0.02060 0.55430 0.63700 0.02600
H 	H 	0.96520 0.59290 0.54920 0.09100
C 	C 	0.60200 0.51600 0.55300 -0.39800
H 	H 	0.63020 0.57820 0.52290 0.15500
H 	H 	0.57930 0.53250 0.61580 0.08700
H 	H 	0.68460 0.44200 0.53620 0.20300
