data_crystal

_cell_length_a 9.56030
_cell_length_b 12.13860
_cell_length_c 15.94580
_cell_angle_alpha 88.45500
_cell_angle_beta  74.41700
_cell_angle_gamma 70.23300

_symmetry_space_group_name_	'P 1'
_symmetry_space_group_name_H-M	'P 1'

loop_
_symmetry_equiv_pos_as_xyz
  x,y,z

loop_
_atom_site_label
_atom_site_type_symbol
_atom_site_fract_x
_atom_site_fract_y
_atom_site_fract_z
_atom_site_charge
Ce	Ce	0.29554 0.97447 0.01829 2.15500
O 	O 	0.12540 0.88350 0.11778 -0.50100
O 	O 	0.01090 0.75750 0.09946 -0.49600
H 	H 	0.99180 0.79980 0.05850 0.29400
O 	O 	0.23690 0.06280 0.16735 -0.43800
O 	O 	0.44120 0.09820 0.08460 -0.57900
O 	O 	0.53420 0.16920 0.90960 -0.50600
O 	O 	0.32130 0.12400 0.92131 -0.51600
O 	O 	0.20630 0.89060 0.91296 -0.48600
O 	O 	0.96970 0.87830 0.96102 -0.46600
C 	C 	0.22380 0.55110 0.43960 -0.01500
C 	C 	0.27300 0.42810 0.44050 -0.01300
C 	C 	0.30440 0.37640 0.51550 -0.05800
H 	H 	0.33980 0.29320 0.51490 0.05000
C 	C 	0.28670 0.44050 0.59170 -0.01500
C 	C 	0.23320 0.56440 0.59210 -0.01300
C 	C 	0.20740 0.61500 0.51550 -0.05700
H 	H 	0.17690 0.69800 0.51490 0.04700
C 	C 	0.18390 0.61610 0.36360 0.07100
C 	C 	0.11270 0.57600 0.31060 -0.13500
H 	H 	0.08510 0.50820 0.32460 0.08100
C 	C 	0.08230 0.63380 0.23840 0.07400
H 	H 	0.03730 0.60390 0.20210 0.02800
C 	C 	0.11710 0.73540 0.21810 -0.16400
C 	C 	0.18390 0.77890 0.27150 0.06700
H 	H 	0.20700 0.84880 0.25860 0.02200
C 	C 	0.21620 0.71960 0.34320 -0.13100
H 	H 	0.26120 0.74960 0.37950 0.07500
C 	C 	0.08600 0.79890 0.14080 0.45300
C 	C 	0.29400 0.34630 0.36610 0.06900
C 	C 	0.40270 0.33710 0.28670 -0.13100
H 	H 	0.46470 0.38550 0.27770 0.07700
C 	C 	0.42150 0.25730 0.22000 0.06600
H 	H 	0.49970 0.24900 0.16680 0.00600
C 	C 	0.32760 0.19010 0.23020 -0.14800
C 	C 	0.21820 0.19910 0.31020 0.06200
H 	H 	0.15350 0.15280 0.31810 0.02900
C 	C 	0.20300 0.27440 0.37790 -0.13100
H 	H 	0.13060 0.27770 0.43270 0.07600
C 	C 	0.33650 0.11220 0.15750 0.37600
C 	C 	0.32220 0.37410 0.66790 0.07300
C 	C 	0.27990 0.27520 0.68730 -0.13200
H 	H 	0.23010 0.25040 0.65110 0.07800
C 	C 	0.30860 0.21270 0.75780 0.07500
H 	H 	0.27490 0.14740 0.77110 0.02100
C 	C 	0.38710 0.24450 0.80990 -0.14700
C 	C 	0.43470 0.34070 0.78980 0.06700
H 	H 	0.49030 0.36230 0.82380 0.02100
C 	C 	0.40110 0.40530 0.71970 -0.12700
H 	H 	0.43250 0.47170 0.70700 0.07700
C 	C 	0.41700 0.17510 0.88640 0.43200
C 	C 	0.19520 0.64300 0.67130 0.06700
C 	C 	0.09640 0.62950 0.74950 -0.11900
H 	H 	0.05330 0.56910 0.75250 0.07400
C 	C 	0.06000 0.70320 0.82320 0.05200
H 	H 	0.98940 0.69470 0.87550 0.02700
C 	C 	0.12660 0.78950 0.82060 -0.15000
C 	C 	0.22410 0.80430 0.74280 0.06700
H 	H 	0.26980 0.86300 0.74060 0.01800
C 	C 	0.25560 0.73370 0.66800 -0.13000
H 	H 	0.31850 0.74720 0.61440 0.07500
C 	C 	0.09920 0.85910 0.90250 0.40400
Ce	Ce	0.70446 0.02553 0.98171 2.15400
O 	O 	0.87460 0.11650 0.88222 -0.50200
O 	O 	0.98910 0.24250 0.90054 -0.49700
H 	H 	0.00820 0.20020 0.94150 0.29300
O 	O 	0.76310 0.93720 0.83265 -0.43800
O 	O 	0.55880 0.90180 0.91540 -0.57900
O 	O 	0.46580 0.83080 0.09040 -0.50600
O 	O 	0.67870 0.87600 0.07869 -0.51600
O 	O 	0.79370 0.10940 0.08704 -0.48600
O 	O 	0.03030 0.12170 0.03898 -0.46600
C 	C 	0.77620 0.44890 0.56040 -0.01500
C 	C 	0.72700 0.57190 0.55950 -0.01300
C 	C 	0.69560 0.62360 0.48450 -0.05800
H 	H 	0.66020 0.70680 0.48510 0.05000
C 	C 	0.71330 0.55950 0.40830 -0.01500
C 	C 	0.76680 0.43560 0.40790 -0.01300
C 	C 	0.79260 0.38500 0.48450 -0.05700
H 	H 	0.82310 0.30200 0.48510 0.04700
C 	C 	0.81610 0.38390 0.63640 0.07100
C 	C 	0.88730 0.42400 0.68940 -0.13500
H 	H 	0.91490 0.49180 0.67540 0.08100
C 	C 	0.91770 0.36620 0.76160 0.07400
H 	H 	0.96270 0.39610 0.79790 0.02800
C 	C 	0.88290 0.26460 0.78190 -0.16400
C 	C 	0.81610 0.22110 0.72850 0.06700
H 	H 	0.79300 0.15120 0.74140 0.02200
C 	C 	0.78380 0.28040 0.65680 -0.13100
H 	H 	0.73880 0.25040 0.62050 0.07500
C 	C 	0.91400 0.20110 0.85920 0.45300
C 	C 	0.70600 0.65370 0.63390 0.06900
C 	C 	0.59730 0.66290 0.71330 -0.13100
H 	H 	0.53530 0.61450 0.72230 0.07700
C 	C 	0.57850 0.74270 0.78000 0.06600
H 	H 	0.50030 0.75100 0.83320 0.00600
C 	C 	0.67240 0.80990 0.76980 -0.14800
C 	C 	0.78180 0.80090 0.68980 0.06200
H 	H 	0.84650 0.84720 0.68190 0.02900
C 	C 	0.79700 0.72560 0.62210 -0.13100
H 	H 	0.86940 0.72230 0.56730 0.07600
C 	C 	0.66350 0.88780 0.84250 0.37600
C 	C 	0.67780 0.62590 0.33210 0.07300
C 	C 	0.72010 0.72480 0.31270 -0.13200
H 	H 	0.76990 0.74960 0.34890 0.07800
C 	C 	0.69140 0.78730 0.24220 0.07500
H 	H 	0.72510 0.85260 0.22890 0.02100
C 	C 	0.61290 0.75550 0.19010 -0.14700
C 	C 	0.56530 0.65930 0.21020 0.06700
H 	H 	0.50970 0.63770 0.17620 0.02100
C 	C 	0.59890 0.59470 0.28030 -0.12700
H 	H 	0.56750 0.52830 0.29300 0.07700
C 	C 	0.58300 0.82490 0.11360 0.43200
C 	C 	0.80480 0.35700 0.32870 0.06700
C 	C 	0.90360 0.37050 0.25050 -0.11900
H 	H 	0.94670 0.43090 0.24750 0.07400
C 	C 	0.94000 0.29680 0.17680 0.05200
H 	H 	0.01060 0.30530 0.12450 0.02700
C 	C 	0.87340 0.21050 0.17940 -0.15000
C 	C 	0.77590 0.19570 0.25720 0.06700
H 	H 	0.73020 0.13700 0.25940 0.01800
C 	C 	0.74440 0.26630 0.33200 -0.13000
H 	H 	0.68150 0.25280 0.38560 0.07500
C 	C 	0.90080 0.14090 0.09750 0.40400
