data_crystal

_cell_length_a 10.57830
_cell_length_b 10.42710
_cell_length_c 16.92100
_cell_angle_alpha 83.15800
_cell_angle_beta  76.31400
_cell_angle_gamma 70.02300

_symmetry_space_group_name_	'P 1'
_symmetry_space_group_name_H-M	'P 1'

loop_
_symmetry_equiv_pos_as_xyz
  x,y,z

loop_
_atom_site_label
_atom_site_type_symbol
_atom_site_fract_x
_atom_site_fract_y
_atom_site_fract_z
_atom_site_charge
Ce	Ce	0.37416 0.89457 0.98179 2.15700
O 	O 	0.16630 0.95590 0.75827 -1.35600
H 	H 	0.12800 0.99600 0.78500 0.95600
O 	O 	0.30760 0.91150 0.84407 -0.63800
O 	O 	0.77930 0.22060 0.92440 -0.48200
O 	O 	0.99280 0.10140 0.86819 -0.43900
O 	O 	0.40350 0.15590 0.11215 -0.51200
O 	O 	0.29440 0.00560 0.11323 -0.49600
O 	O 	0.58690 0.88940 0.06084 -0.58200
O 	O 	0.53040 0.70650 0.05623 -0.46700
C 	C 	0.68510 0.54660 0.53180 -0.04300
C 	C 	0.78800 0.42200 0.54450 -0.00400
C 	C 	0.87830 0.35590 0.47610 -0.07600
H 	H 	0.94680 0.27440 0.48410 0.05800
C 	C 	0.87190 0.40500 0.39610 0.00200
C 	C 	0.76650 0.52730 0.38370 -0.03300
C 	C 	0.67670 0.59420 0.45220 -0.04200
H 	H 	0.60740 0.67510 0.44410 0.04700
C 	C 	0.58440 0.63290 0.59780 0.13700
C 	C 	0.62290 0.67030 0.66320 -0.21800
H 	H 	0.71480 0.63750 0.66720 0.11400
C 	C 	0.52710 0.75460 0.72150 0.17700
H 	H 	0.55430 0.77700 0.76500 -0.02900
C 	C 	0.38900 0.80640 0.71550 -0.31100
C 	C 	0.34910 0.77250 0.65020 0.19500
H 	H 	0.25770 0.80820 0.64520 0.00800
C 	C 	0.44540 0.68590 0.59280 -0.22300
H 	H 	0.41750 0.66220 0.55000 0.11300
C 	C 	0.28460 0.89640 0.77890 0.78400
C 	C 	0.80780 0.35910 0.62680 0.08000
C 	C 	0.69810 0.35000 0.68930 -0.14500
H 	H 	0.60940 0.38050 0.67960 0.08800
C 	C 	0.71950 0.29600 0.76560 0.07800
H 	H 	0.64470 0.29440 0.80730 0.01500
C 	C 	0.85210 0.24390 0.78060 -0.15800
C 	C 	0.96200 0.25010 0.71800 0.06800
H 	H 	0.05120 0.21510 0.72690 0.01900
C 	C 	0.93940 0.30810 0.64260 -0.15100
H 	H 	0.01390 0.31300 0.60160 0.09200
C 	C 	0.87610 0.18400 0.86320 0.40500
C 	C 	0.98030 0.32850 0.32844 0.04900
C 	C 	0.01880 0.18610 0.32710 -0.09600
H 	H 	0.97520 0.13860 0.36830 0.07800
C 	C 	0.12060 0.11550 0.26530 0.05700
H 	H 	0.14140 0.02160 0.26340 0.03000
C 	C 	0.19250 0.18400 0.20570 -0.15100
C 	C 	0.15750 0.32460 0.20770 0.06200
H 	H 	0.20580 0.37100 0.16870 0.02000
C 	C 	0.05090 0.39650 0.26760 -0.12200
H 	H 	0.02620 0.49120 0.26720 0.07900
C 	C 	0.30590 0.10870 0.13871 0.42700
C 	C 	0.73580 0.58700 0.30260 0.09700
C 	C 	0.73450 0.50630 0.24250 -0.17000
H 	H 	0.76540 0.41170 0.24970 0.09900
C 	C 	0.68820 0.56490 0.17300 0.09700
H 	H 	0.68430 0.50960 0.13500 0.00100
C 	C 	0.64670 0.70710 0.15890 -0.18500
C 	C 	0.65320 0.78790 0.21740 0.08600
H 	H 	0.62890 0.88210 0.20840 0.00300
C 	C 	0.69530 0.72880 0.28820 -0.16600
H 	H 	0.69670 0.78400 0.32700 0.09600
C 	C 	0.58600 0.77070 0.08710 0.41300
O 	O 	0.13230 0.06730 0.98932 -1.22800
H 	H 	0.12000 0.15000 0.96900 0.49600
H 	H 	0.06600 0.06600 0.03100 0.64200
O 	O 	0.13000 0.35310 0.01520 -0.04300
H 	H 	0.09700 0.06600 0.94800 0.34400
C 	C 	0.03290 0.17090 0.04120 -0.88600
H 	H 	0.04650 0.14820 0.09650 0.26500
H 	H 	0.94160 0.17020 0.04060 0.20400
C 	C 	0.03870 0.31070 0.01820 0.41200
H 	H 	0.12700 0.31390 0.02130 -0.46800
H 	H 	0.96800 0.37420 0.05480 -0.13300
H 	H 	0.02480 0.33460 0.96360 -0.11500
H 	H 	0.14580 0.27040 0.01550 0.39400
C 	C 	0.02540 0.41380 0.98660 -0.04000
H 	H 	0.94900 0.38150 0.01250 -0.01400
H 	H 	0.04360 0.40600 0.92810 -0.00200
C 	C 	-0.00000 0.56200 0.01000 -0.16900
H 	H 	0.98490 0.62340 0.96360 0.10600
H 	H 	0.07890 0.56540 0.02730 0.11200
H 	H 	0.92060 0.58850 0.05350 0.13600
Ce	Ce	0.62584 0.10543 0.01821 2.15600
O 	O 	0.83370 0.04410 0.24173 -1.35700
H 	H 	0.87200 0.00400 0.21500 0.95200
O 	O 	0.69240 0.08850 0.15593 -0.63900
O 	O 	0.22070 0.77940 0.07560 -0.48300
O 	O 	0.00720 0.89860 0.13181 -0.43300
O 	O 	0.59650 0.84410 0.88785 -0.51500
O 	O 	0.70560 0.99440 0.88677 -0.50000
O 	O 	0.41310 0.11060 0.93916 -0.58100
O 	O 	0.46960 0.29350 0.94377 -0.46700
C 	C 	0.31490 0.45340 0.46820 -0.03900
C 	C 	0.21200 0.57800 0.45550 -0.00700
C 	C 	0.12170 0.64410 0.52390 -0.06400
H 	H 	0.05320 0.72560 0.51590 0.05600
C 	C 	0.12810 0.59500 0.60390 -0.01800
C 	C 	0.23350 0.47270 0.61630 -0.02300
C 	C 	0.32330 0.40580 0.54780 -0.04800
H 	H 	0.39260 0.32490 0.55590 0.05000
C 	C 	0.41560 0.36710 0.40220 0.13600
C 	C 	0.37710 0.32970 0.33680 -0.21700
H 	H 	0.28520 0.36250 0.33280 0.11400
C 	C 	0.47290 0.24540 0.27850 0.17700
H 	H 	0.44570 0.22300 0.23500 -0.02900
C 	C 	0.61100 0.19360 0.28450 -0.31100
C 	C 	0.65090 0.22750 0.34980 0.19400
H 	H 	0.74230 0.19180 0.35480 0.00800
C 	C 	0.55460 0.31410 0.40720 -0.22200
H 	H 	0.58250 0.33780 0.45000 0.11200
C 	C 	0.71540 0.10360 0.22110 0.78300
C 	C 	0.19220 0.64090 0.37320 0.07800
C 	C 	0.30190 0.65000 0.31070 -0.14500
H 	H 	0.39060 0.61950 0.32040 0.08800
C 	C 	0.28050 0.70400 0.23440 0.07900
H 	H 	0.35530 0.70560 0.19270 0.01400
C 	C 	0.14790 0.75610 0.21940 -0.16200
C 	C 	0.03800 0.74990 0.28200 0.08100
H 	H 	0.94880 0.78490 0.27310 0.00800
C 	C 	0.06060 0.69190 0.35740 -0.13900
H 	H 	0.98610 0.68700 0.39840 0.08100
C 	C 	0.12390 0.81600 0.13680 0.40600
C 	C 	0.01970 0.67150 0.67156 0.10400
C 	C 	0.98120 0.81390 0.67290 -0.16600
H 	H 	0.02480 0.86140 0.63170 0.10800
C 	C 	0.87940 0.88450 0.73470 0.10200
H 	H 	0.85860 0.97840 0.73660 0.01300
C 	C 	0.80750 0.81600 0.79430 -0.18100
C 	C 	0.84250 0.67540 0.79230 0.09700
H 	H 	0.79420 0.62900 0.83130 0.00700
C 	C 	0.94910 0.60350 0.73240 -0.17200
H 	H 	0.97380 0.50880 0.73280 0.09300
C 	C 	0.69410 0.89130 0.86129 0.43700
C 	C 	0.26420 0.41300 0.69740 0.09300
C 	C 	0.26550 0.49370 0.75750 -0.16600
H 	H 	0.23460 0.58830 0.75030 0.09900
C 	C 	0.31180 0.43510 0.82700 0.09500
H 	H 	0.31570 0.49040 0.86500 0.00200
C 	C 	0.35330 0.29290 0.84110 -0.18300
C 	C 	0.34680 0.21210 0.78260 0.08400
H 	H 	0.37110 0.11790 0.79160 0.00400
C 	C 	0.30470 0.27120 0.71180 -0.16200
H 	H 	0.30330 0.21600 0.67300 0.09500
C 	C 	0.41400 0.22930 0.91290 0.41300
O 	O 	0.86770 0.93270 0.01068 -1.22300
H 	H 	0.88000 0.85000 0.03100 0.49500
H 	H 	0.93400 0.93400 0.96900 0.63800
O 	O 	0.87000 0.64690 0.98480 -0.03900
H 	H 	0.90300 0.93400 0.05200 0.33900
C 	C 	0.96710 0.82910 0.95880 -0.89000
H 	H 	0.95350 0.85180 0.90350 0.26400
H 	H 	0.05840 0.82980 0.95940 0.21100
C 	C 	0.96130 0.68930 0.98180 0.38200
H 	H 	0.87300 0.68610 0.97870 -0.46900
H 	H 	0.03200 0.62580 0.94520 -0.11800
H 	H 	0.97520 0.66540 0.03640 -0.10600
H 	H 	0.85420 0.72960 0.98450 0.40000
C 	C 	0.97460 0.58620 0.01340 -0.04300
H 	H 	0.05100 0.61850 0.98750 -0.00500
H 	H 	0.95640 0.59400 0.07190 -0.01500
C 	C 	-0.00000 0.43800 0.99000 -0.15200
H 	H 	0.01510 0.37660 0.03640 0.10900
H 	H 	0.92110 0.43460 0.97270 0.10500
H 	H 	0.07940 0.41150 0.94650 0.12200
