data_crystal

_cell_length_a 18.95220
_cell_length_b 15.96440
_cell_length_c 9.00280
_cell_angle_alpha 90.00000
_cell_angle_beta  97.92700
_cell_angle_gamma 90.00000

_symmetry_space_group_name_	'P 1'
_symmetry_space_group_name_H-M	'P 1'

loop_
_symmetry_equiv_pos_as_xyz
  x,y,z

loop_
_atom_site_label
_atom_site_type_symbol
_atom_site_fract_x
_atom_site_fract_y
_atom_site_fract_z
_atom_site_charge
Ga	Ga	0.23686 0.38119 0.92241 2.07400
Ga	Ga	0.17235 0.13109 0.60289 2.09400
P 	P 	0.14485 0.22424 0.90789 0.61700
P 	P 	0.27649 0.52195 0.16057 0.65300
F 	F 	0.07292 0.12620 0.58980 -0.75600
O 	O 	0.06510 0.21250 0.88230 -0.38300
O 	O 	0.16040 0.31720 0.95080 -0.61400
O 	O 	0.17560 0.16930 0.04350 -0.62700
O 	O 	0.18340 0.20310 0.77520 -0.64300
O 	O 	0.22660 0.46990 0.04660 -0.63800
O 	O 	0.22710 0.58520 0.22630 -0.60900
O 	O 	0.33220 0.56810 0.08330 -0.51000
O 	O 	0.31570 0.47030 0.28660 -0.61400
O 	O 	0.27610 0.15680 0.59580 -0.45600
O 	O 	0.34200 0.26320 0.52530 -0.40600
O 	O 	0.05010 0.03170 0.91750 -0.12500
O 	O 	0.03200 0.00100 0.84600 -0.13900
C 	C 	0.28440 0.22640 0.53510 0.22600
Ga	Ga	0.73686 0.88119 0.92241 2.07500
Ga	Ga	0.67235 0.63109 0.60289 2.09500
P 	P 	0.64485 0.72424 0.90789 0.61400
P 	P 	0.77649 0.02195 0.16057 0.64800
F 	F 	0.57292 0.62620 0.58980 -0.72900
O 	O 	0.56510 0.71250 0.88230 -0.34600
O 	O 	0.66040 0.81720 0.95080 -0.60100
O 	O 	0.67560 0.66930 0.04350 -0.61700
O 	O 	0.68340 0.70310 0.77520 -0.63900
O 	O 	0.72660 0.96990 0.04660 -0.62500
O 	O 	0.72710 0.08520 0.22630 -0.60100
O 	O 	0.83220 0.06810 0.08330 -0.50500
O 	O 	0.81570 0.97030 0.28660 -0.60600
O 	O 	0.77610 0.65680 0.59580 -0.44800
O 	O 	0.84200 0.76320 0.52530 -0.39000
O 	O 	0.55010 0.53170 0.91750 -0.12000
O 	O 	0.53200 0.50100 0.84600 -0.08000
C 	C 	0.78440 0.72640 0.53510 0.22500
Ga	Ga	0.76314 0.38119 0.57759 2.07600
Ga	Ga	0.82765 0.13109 0.89711 2.09600
P 	P 	0.85515 0.22424 0.59211 0.61200
P 	P 	0.72351 0.52195 0.33943 0.65200
F 	F 	0.92708 0.12620 0.91020 -0.69000
O 	O 	0.93490 0.21250 0.61770 -0.29300
O 	O 	0.83960 0.31720 0.54920 -0.58500
O 	O 	0.82440 0.16930 0.45650 -0.60900
O 	O 	0.81660 0.20310 0.72480 -0.63500
O 	O 	0.77340 0.46990 0.45340 -0.61900
O 	O 	0.77290 0.58520 0.27370 -0.59300
O 	O 	0.66780 0.56810 0.41670 -0.51000
O 	O 	0.68430 0.47030 0.21340 -0.61200
O 	O 	0.72390 0.15680 0.90420 -0.45700
O 	O 	0.65800 0.26320 0.97470 -0.40600
O 	O 	0.94990 0.03170 0.58250 -0.10700
O 	O 	0.96800 0.00100 0.65400 -0.01400
C 	C 	0.71560 0.22640 0.96490 0.23100
Ga	Ga	0.26314 0.88119 0.57759 2.07500
Ga	Ga	0.32765 0.63109 0.89711 2.09500
P 	P 	0.35515 0.72424 0.59211 0.61400
P 	P 	0.22351 0.02195 0.33943 0.65100
F 	F 	0.42708 0.62620 0.91020 -0.72900
O 	O 	0.43490 0.71250 0.61770 -0.34600
O 	O 	0.33960 0.81720 0.54920 -0.60000
O 	O 	0.32440 0.66930 0.45650 -0.61700
O 	O 	0.31660 0.70310 0.72480 -0.64100
O 	O 	0.27340 0.96990 0.45340 -0.62800
O 	O 	0.27290 0.08520 0.27370 -0.60300
O 	O 	0.16780 0.06810 0.41670 -0.51700
O 	O 	0.18430 0.97030 0.21340 -0.61500
O 	O 	0.22390 0.65680 0.90420 -0.46600
O 	O 	0.15800 0.76320 0.97470 -0.42300
O 	O 	0.44990 0.53170 0.58250 -0.12000
O 	O 	0.46800 0.50100 0.65400 -0.08000
C 	C 	0.21560 0.72640 0.96490 0.23000
Ga	Ga	0.76314 0.61881 0.07759 2.07600
Ga	Ga	0.82765 0.86891 0.39711 2.09500
P 	P 	0.85515 0.77576 0.09211 0.61400
P 	P 	0.72351 0.47805 0.83943 0.65200
F 	F 	0.92708 0.87380 0.41020 -0.69000
O 	O 	0.93490 0.78750 0.11770 -0.29200
O 	O 	0.83960 0.68280 0.04920 -0.58500
O 	O 	0.82440 0.83070 0.95650 -0.61200
O 	O 	0.81660 0.79690 0.22480 -0.63500
O 	O 	0.77340 0.53010 0.95340 -0.61900
O 	O 	0.77290 0.41480 0.77370 -0.59300
O 	O 	0.66780 0.43190 0.91670 -0.50900
O 	O 	0.68430 0.52970 0.71340 -0.61200
O 	O 	0.72390 0.84320 0.40420 -0.45800
O 	O 	0.65800 0.73680 0.47470 -0.40700
O 	O 	0.94990 0.96830 0.08250 -0.10600
O 	O 	0.96800 0.99900 0.15400 -0.01300
C 	C 	0.71560 0.77360 0.46490 0.22900
Ga	Ga	0.26314 0.11881 0.07759 2.07500
Ga	Ga	0.32765 0.36891 0.39711 2.09500
P 	P 	0.35515 0.27576 0.09211 0.61300
P 	P 	0.22351 0.97805 0.83943 0.64900
F 	F 	0.42708 0.37380 0.41020 -0.72900
O 	O 	0.43490 0.28750 0.11770 -0.34600
O 	O 	0.33960 0.18280 0.04920 -0.60200
O 	O 	0.32440 0.33070 0.95650 -0.61500
O 	O 	0.31660 0.29690 0.22480 -0.64100
O 	O 	0.27340 0.03010 0.95340 -0.62400
O 	O 	0.27290 0.91480 0.77370 -0.60300
O 	O 	0.16780 0.93190 0.91670 -0.51700
O 	O 	0.18430 0.02970 0.71340 -0.61500
O 	O 	0.22390 0.34320 0.40420 -0.46600
O 	O 	0.15800 0.23680 0.47470 -0.42300
O 	O 	0.44990 0.46830 0.08250 -0.12100
O 	O 	0.46800 0.49900 0.15400 -0.08000
C 	C 	0.21560 0.27360 0.46490 0.23000
Ga	Ga	0.23686 0.61881 0.42241 2.07500
Ga	Ga	0.17235 0.86891 0.10289 2.09500
P 	P 	0.14485 0.77576 0.40789 0.61600
P 	P 	0.27649 0.47805 0.66057 0.65300
F 	F 	0.07292 0.87380 0.08980 -0.75500
O 	O 	0.06510 0.78750 0.38230 -0.38400
O 	O 	0.16040 0.68280 0.45080 -0.61500
O 	O 	0.17560 0.83070 0.54350 -0.62500
O 	O 	0.18340 0.79690 0.27520 -0.64300
O 	O 	0.22660 0.53010 0.54660 -0.63700
O 	O 	0.22710 0.41480 0.72630 -0.60900
O 	O 	0.33220 0.43190 0.58330 -0.51000
O 	O 	0.31570 0.52970 0.78660 -0.61400
O 	O 	0.27610 0.84320 0.09580 -0.45600
O 	O 	0.34200 0.73680 0.02530 -0.40600
O 	O 	0.05010 0.96830 0.41750 -0.12700
O 	O 	0.03200 0.99900 0.34600 -0.13900
C 	C 	0.28440 0.77360 0.03510 0.22800
Ga	Ga	0.73686 0.11881 0.42241 2.07500
Ga	Ga	0.67235 0.36891 0.10289 2.09500
P 	P 	0.64485 0.27576 0.40789 0.61400
P 	P 	0.77649 0.97805 0.66057 0.65000
F 	F 	0.57292 0.37380 0.08980 -0.72900
O 	O 	0.56510 0.28750 0.38230 -0.34600
O 	O 	0.66040 0.18280 0.45080 -0.60100
O 	O 	0.67560 0.33070 0.54350 -0.61700
O 	O 	0.68340 0.29690 0.27520 -0.64000
O 	O 	0.72660 0.03010 0.54660 -0.62800
O 	O 	0.72710 0.91480 0.72630 -0.60100
O 	O 	0.83220 0.93190 0.58330 -0.50300
O 	O 	0.81570 0.02970 0.78660 -0.60700
O 	O 	0.77610 0.34320 0.09580 -0.44800
O 	O 	0.84200 0.23680 0.02530 -0.39000
O 	O 	0.55010 0.46830 0.41750 -0.12000
O 	O 	0.53200 0.49900 0.34600 -0.08000
C 	C 	0.78440 0.27360 0.03510 0.22300
Mn	Mn	0.00000 0.12520 0.75000 1.32200
Mn	Mn	0.50000 0.62520 0.75000 1.36800
Mn	Mn	0.00000 0.87480 0.25000 1.32200
Mn	Mn	0.50000 0.37480 0.25000 1.36800
