data_crystal

_cell_length_a 8.14520
_cell_length_b 8.90290
_cell_length_c 10.44520
_cell_angle_alpha 111.43700
_cell_angle_beta  103.73400
_cell_angle_gamma 102.09600

_symmetry_space_group_name_	'P 1'
_symmetry_space_group_name_H-M	'P 1'

loop_
_symmetry_equiv_pos_as_xyz
  x,y,z

loop_
_atom_site_label
_atom_site_type_symbol
_atom_site_fract_x
_atom_site_fract_y
_atom_site_fract_z
_atom_site_charge
Ga	Ga	0.23199 0.94593 0.94719 2.07400
Ga	Ga	0.31196 0.49083 0.14081 2.09600
P 	P 	0.16393 0.18126 0.21716 0.61900
P 	P 	0.53704 0.25796 0.99019 0.68300
O 	O 	0.23350 0.04030 0.13340 -0.64900
O 	O 	0.03140 0.90760 0.80090 -0.61500
O 	O 	0.15350 0.30280 0.14650 -0.64400
O 	O 	0.27720 0.26480 0.37740 -0.36900
O 	O 	0.48110 0.37460 0.10550 -0.60700
O 	O 	0.40170 0.07640 0.90970 -0.66800
O 	O 	0.28340 0.74880 0.92530 -0.63300
O 	O 	0.44590 0.68470 0.12700 -0.53300
O 	O 	0.14410 0.39740 0.93260 -0.45700
O 	O 	0.13170 0.61350 0.18440 -0.41400
F 	F 	0.43320 0.59520 0.34390 -0.76500
C 	C 	0.00380 0.43790 0.92710 0.22300
Ga	Ga	0.76801 0.05407 0.05281 2.07300
Ga	Ga	0.68804 0.50917 0.85919 2.09500
P 	P 	0.83607 0.81874 0.78284 0.61900
P 	P 	0.46296 0.74204 0.00981 0.68300
O 	O 	0.76650 0.95970 0.86660 -0.64900
O 	O 	0.96860 0.09240 0.19910 -0.61500
O 	O 	0.84650 0.69720 0.85350 -0.64400
O 	O 	0.72280 0.73520 0.62260 -0.36900
O 	O 	0.51890 0.62540 0.89450 -0.60700
O 	O 	0.59830 0.92360 0.09030 -0.66800
O 	O 	0.71660 0.25120 0.07470 -0.63300
O 	O 	0.55410 0.31530 0.87300 -0.53300
O 	O 	0.85590 0.60260 0.06740 -0.45700
O 	O 	0.86830 0.38650 0.81560 -0.41400
F 	F 	0.56680 0.40480 0.65610 -0.76500
C 	C 	0.99620 0.56210 0.07290 0.22300
Mn	Mn	0.50000 0.50000 0.50000 1.32000
