data_crystal

_cell_length_a 9.52860
_cell_length_b 10.14510
_cell_length_c 12.57960
_cell_angle_alpha 86.42900
_cell_angle_beta  69.60600
_cell_angle_gamma 62.33800

_symmetry_space_group_name_	'P 1'
_symmetry_space_group_name_H-M	'P 1'

loop_
_symmetry_equiv_pos_as_xyz
  x,y,z

loop_
_atom_site_label
_atom_site_type_symbol
_atom_site_fract_x
_atom_site_fract_y
_atom_site_fract_z
_atom_site_charge
Ga	Ga	0.86659 0.91790 0.16374 2.07700
Ga	Ga	0.89701 0.85395 0.66321 2.07500
Mn	Mn	0.74674 0.76426 0.43414 1.31000
P 	P 	0.99558 0.84261 0.88724 0.63000
P 	P 	0.88839 0.96537 0.41554 0.58400
P 	P 	0.48560 0.01369 0.31756 0.57700
O 	O 	0.88360 0.92250 0.00700 -0.54900
O 	O 	0.12500 0.89720 0.82610 -0.51300
O 	O 	0.88160 0.85580 0.82240 -0.51000
O 	O 	0.11140 0.66930 0.88890 -0.42900
O 	O 	0.04450 0.98470 0.35930 -0.51000
O 	O 	0.90610 0.85150 0.50240 -0.61200
O 	O 	0.84360 0.90470 0.32950 -0.64700
O 	O 	0.73490 0.12230 0.47580 -0.38700
O 	O 	0.62360 0.01360 0.20800 -0.48600
O 	O 	0.34410 0.02020 0.27970 -0.50400
O 	O 	0.42340 0.15040 0.39940 -0.41900
O 	O 	0.54570 0.86860 0.37310 -0.42700
O 	O 	0.85280 0.67330 0.67530 -0.45000
O 	O 	0.14010 0.68490 0.61160 -0.41900
O 	O 	0.11680 0.78630 0.12620 -0.43900
O 	O 	0.87350 0.71440 0.16320 -0.49300
O 	O 	0.28980 0.43820 0.55760 -0.29600
O 	O 	0.99380 0.42440 0.62850 -0.33700
O 	O 	0.06230 0.47170 0.11020 -0.21300
O 	O 	0.31020 0.54640 0.09950 -0.12200
C 	C 	0.02140 0.60450 0.13020 0.26100
C 	C 	0.16390 0.64640 0.11590 0.23100
C 	C 	0.98550 0.54900 0.63650 0.22500
C 	C 	0.15370 0.55640 0.59690 0.22800
H 	H 	0.63940 0.11880 0.51730 0.24100
H 	H 	0.08470 0.60260 0.88910 0.32200
Ga	Ga	0.13341 0.08210 0.83626 2.07800
Ga	Ga	0.10299 0.14605 0.33679 2.07600
Mn	Mn	0.25326 0.23574 0.56586 1.31000
P 	P 	0.00442 0.15739 0.11276 0.63000
P 	P 	0.11161 0.03463 0.58446 0.58400
P 	P 	0.51440 0.98631 0.68244 0.57700
O 	O 	0.11640 0.07750 0.99300 -0.54900
O 	O 	0.87500 0.10280 0.17390 -0.51300
O 	O 	0.11840 0.14420 0.17760 -0.51000
O 	O 	0.88860 0.33070 0.11110 -0.42900
O 	O 	0.95550 0.01530 0.64070 -0.51000
O 	O 	0.09390 0.14850 0.49760 -0.61200
O 	O 	0.15640 0.09530 0.67050 -0.64700
O 	O 	0.26510 0.87770 0.52420 -0.38700
O 	O 	0.37640 0.98640 0.79200 -0.48600
O 	O 	0.65590 0.97980 0.72030 -0.50400
O 	O 	0.57660 0.84960 0.60060 -0.41900
O 	O 	0.45430 0.13140 0.62690 -0.42700
O 	O 	0.14720 0.32670 0.32470 -0.45000
O 	O 	0.85990 0.31510 0.38840 -0.41900
O 	O 	0.88320 0.21370 0.87380 -0.43900
O 	O 	0.12650 0.28560 0.83680 -0.49300
O 	O 	0.71020 0.56180 0.44240 -0.29600
O 	O 	0.00620 0.57560 0.37150 -0.33700
O 	O 	0.93770 0.52830 0.88980 -0.21300
O 	O 	0.68980 0.45360 0.90050 -0.12200
C 	C 	0.97860 0.39550 0.86980 0.26100
C 	C 	0.83610 0.35360 0.88410 0.23100
C 	C 	0.01450 0.45100 0.36350 0.22500
C 	C 	0.84630 0.44360 0.40310 0.22800
H 	H 	0.36060 0.88120 0.48270 0.24100
H 	H 	0.91530 0.39740 0.11090 0.32200
