data_crystal

_cell_length_a 9.14270
_cell_length_b 24.50300
_cell_length_c 24.58800
_cell_angle_alpha 90.00000
_cell_angle_beta  91.08900
_cell_angle_gamma 90.00000

_symmetry_space_group_name_	'P 1'
_symmetry_space_group_name_H-M	'P 1'

loop_
_symmetry_equiv_pos_as_xyz
  x,y,z

loop_
_atom_site_label
_atom_site_type_symbol
_atom_site_fract_x
_atom_site_fract_y
_atom_site_fract_z
_atom_site_charge
C 	C 	0.14950 0.84810 0.01640 0.16200
C 	C 	0.19320 0.82290 0.10270 0.17600
C 	C 	0.10350 0.76130 0.04360 0.16800
C 	C 	0.14540 0.86880 0.91660 0.03700
H 	H 	0.24270 0.86180 0.90330 0.01900
H 	H 	0.08950 0.83530 0.91390 0.01700
C 	C 	0.07480 0.91100 0.88330 -0.21600
H 	H 	0.97370 0.91580 0.89490 0.10900
C 	C 	0.15770 0.96510 0.89060 0.00700
H 	H 	0.25560 0.96150 0.87640 0.03300
H 	H 	0.10750 0.99370 0.87040 0.02000
C 	C 	0.16630 0.97980 0.94950 -0.13300
H 	H 	0.22320 0.01300 0.95360 0.05400
H 	H 	0.06830 0.98740 0.96200 0.07300
C 	C 	0.23070 0.93820 0.98380 -0.01900
H 	H 	0.22330 0.94870 0.02170 0.04500
H 	H 	0.33360 0.93420 0.97560 0.05200
C 	C 	0.07440 0.89250 0.82390 0.39200
C 	C 	0.29180 0.89310 0.16640 0.03800
H 	H 	0.38850 0.89570 0.18320 0.02800
H 	H 	0.28830 0.91640 0.13460 0.02800
C 	C 	0.17850 0.90970 0.20550 -0.23300
H 	H 	0.08360 0.90650 0.18660 0.11000
C 	C 	0.17320 0.87420 0.25410 0.05500
H 	H 	0.09300 0.88570 0.27670 0.00100
H 	H 	0.26330 0.87830 0.27520 0.01700
C 	C 	0.15310 0.81510 0.23900 -0.19700
H 	H 	0.05410 0.80950 0.22520 0.08200
H 	H 	0.16690 0.79260 0.27110 0.07800
C 	C 	0.26110 0.79770 0.19590 0.02000
H 	H 	0.35890 0.79630 0.21190 0.02500
H 	H 	0.23620 0.76150 0.18290 0.02900
C 	C 	0.19910 0.97000 0.22000 0.44400
C 	C 	0.01240 0.67150 0.07710 -0.02400
H 	H 	0.90780 0.66790 0.08210 0.04700
H 	H 	0.05710 0.68330 0.11120 0.04100
C 	C 	0.07680 0.61780 0.05960 -0.14500
H 	H 	0.05600 0.59030 0.08670 0.06400
H 	H 	0.18220 0.62140 0.05760 0.08100
C 	C 	0.01620 0.59900 0.00460 -0.01900
H 	H 	0.06150 0.56480 0.99460 0.03600
H 	H 	0.91160 0.59320 0.00680 0.03900
C 	C 	0.04680 0.64180 0.96190 -0.16300
H 	H 	0.15330 0.64620 0.96160 0.08600
C 	C 	0.98310 0.69810 0.97840 0.01000
H 	H 	0.01080 0.72570 0.95230 0.03700
H 	H 	0.87720 0.69630 0.97910 0.04000
C 	C 	0.00000 0.62710 0.90400 0.32600
C 	C 	0.45550 0.15510 0.90290 0.18300
C 	C 	0.39150 0.22200 0.95770 0.17500
C 	C 	0.50570 0.14920 0.99480 0.18400
C 	C 	0.54490 0.08250 0.84370 0.00700
H 	H 	0.57720 0.06650 0.87790 0.04200
H 	H 	0.63070 0.09050 0.82250 0.03300
C 	C 	0.44720 0.04230 0.81280 -0.17400
H 	H 	0.35800 0.03600 0.83340 0.08300
C 	C 	0.40640 0.06980 0.75810 -0.00600
H 	H 	0.34340 0.04570 0.73690 0.02900
H 	H 	0.49440 0.07630 0.73770 0.03300
C 	C 	0.32610 0.12510 0.76790 -0.17500
H 	H 	0.31180 0.14410 0.73360 0.07000
H 	H 	0.23080 0.11830 0.78320 0.07600
C 	C 	0.41390 0.15870 0.80530 0.02600
H 	H 	0.49860 0.17180 0.78600 0.02200
H 	H 	0.35630 0.19040 0.81500 0.02500
C 	C 	0.52680 0.98850 0.80550 0.34200
C 	C 	0.26360 0.30190 0.91610 0.00500
H 	H 	0.29070 0.28310 0.88310 0.03400
H 	H 	0.15780 0.30210 0.91800 0.03500
C 	C 	0.31860 0.35770 0.91530 -0.16900
H 	H 	0.27240 0.37700 0.88500 0.07200
H 	H 	0.42300 0.35690 0.90890 0.08600
C 	C 	0.29130 0.38970 0.96790 0.01600
H 	H 	0.18740 0.39180 0.97480 0.03000
H 	H 	0.32980 0.42650 0.96520 0.02900
C 	C 	0.37120 0.35810 0.01410 -0.22500
H 	H 	0.47610 0.35640 0.00690 0.11100
C 	C 	0.30660 0.29990 0.01500 0.04100
H 	H 	0.35350 0.27900 0.04400 0.02000
H 	H 	0.20280 0.30180 0.02230 0.02900
C 	C 	0.34560 0.39040 0.06750 0.49300
C 	C 	0.51870 0.13220 0.08910 0.08800
H 	H 	0.48570 0.16980 0.08970 0.00200
H 	H 	0.60650 0.13010 0.11180 -0.00100
C 	C 	0.40410 0.09790 0.11490 -0.27100
H 	H 	0.30830 0.10890 0.10020 0.11800
C 	C 	0.42890 0.03640 0.10100 0.09500
H 	H 	0.50270 0.02170 0.12580 0.00100
H 	H 	0.33870 0.01660 0.10680 -0.00500
C 	C 	0.47530 0.02750 0.04500 -0.26400
H 	H 	0.39210 0.03340 0.02060 0.11100
H 	H 	0.50520 0.98970 0.04120 0.11900
C 	C 	0.59880 0.06370 0.02780 0.06400
H 	H 	0.68590 0.05570 0.04950 0.01200
H 	H 	0.62050 0.05700 0.98990 0.02100
C 	C 	0.39900 0.09980 0.17680 0.45800
C 	C 	0.56500 0.81180 0.49810 0.16700
C 	C 	0.63730 0.73090 0.46330 0.17900
C 	C 	0.61020 0.80430 0.41010 0.17600
C 	C 	0.50430 0.90290 0.53310 0.01700
H 	H 	0.47530 0.91150 0.49600 0.03800
H 	H 	0.42970 0.91670 0.55700 0.03000
C 	C 	0.64520 0.92920 0.54640 -0.19200
H 	H 	0.63720 0.96840 0.54180 0.09500
H 	H 	0.72030 0.91590 0.52240 0.09500
C 	C 	0.68650 0.91500 0.60740 0.03700
H 	H 	0.78360 0.92910 0.61570 0.02300
H 	H 	0.61850 0.93340 0.63100 0.02300
C 	C 	0.68410 0.85360 0.62000 -0.26100
H 	H 	0.76880 0.83610 0.60340 0.11500
C 	C 	0.53900 0.82680 0.59620 0.05300
H 	H 	0.54600 0.78730 0.59870 0.01000
H 	H 	0.45620 0.83850 0.61730 0.00900
C 	C 	0.69950 0.85050 0.67840 0.45300
C 	C 	0.67110 0.64950 0.52290 0.08000
H 	H 	0.76440 0.63280 0.53240 0.01800
H 	H 	0.64720 0.67520 0.55140 0.01100
C 	C 	0.55930 0.60770 0.51950 -0.28300
H 	H 	0.46430 0.62570 0.51470 0.12400
C 	C 	0.58140 0.56860 0.47000 0.04300
H 	H 	0.49770 0.54450 0.46610 0.02700
H 	H 	0.66790 0.54640 0.47630 0.02200
C 	C 	0.59910 0.60300 0.41670 -0.19100
H 	H 	0.62440 0.57920 0.38680 0.08000
H 	H 	0.50760 0.62110 0.40740 0.09400
C 	C 	0.71930 0.64540 0.42580 0.02300
H 	H 	0.81170 0.62710 0.43330 0.03400
H 	H 	0.72990 0.66730 0.39330 0.03100
C 	C 	0.55270 0.57170 0.56990 0.56500
C 	C 	0.65170 0.79560 0.31380 0.01600
H 	H 	0.56120 0.78680 0.29460 0.02500
H 	H 	0.69870 0.76170 0.32460 0.03000
C 	C 	0.75200 0.82760 0.27620 -0.17400
H 	H 	0.84680 0.83250 0.29390 0.08000
H 	H 	0.76630 0.80690 0.24310 0.07100
C 	C 	0.68740 0.88260 0.26230 0.01300
H 	H 	0.59640 0.87760 0.24200 0.03000
H 	H 	0.75430 0.90250 0.23940 0.02600
C 	C 	0.65820 0.91620 0.31370 -0.19300
H 	H 	0.75180 0.92360 0.33230 0.09400
C 	C 	0.56160 0.88100 0.35200 0.00900
H 	H 	0.55470 0.89900 0.38690 0.04700
H 	H 	0.46360 0.87820 0.33640 0.03700
C 	C 	0.58440 0.96880 0.30180 0.38200
C 	C 	0.90830 0.10490 0.51040 0.18200
C 	C 	0.92200 0.19150 0.53670 0.18000
C 	C 	0.85260 0.12600 0.59570 0.17600
C 	C 	0.92620 0.08540 0.41290 0.06900
H 	H 	0.82980 0.08190 0.39600 0.01300
H 	H 	0.95510 0.12340 0.41100 0.01200
C 	C 	0.03130 0.05160 0.38330 -0.25200
H 	H 	0.12880 0.05700 0.39960 0.11300
C 	C 	0.99070 0.98910 0.38700 0.05600
H 	H 	0.89600 0.98250 0.36980 0.01700
H 	H 	0.06330 0.96720 0.36880 0.00100
C 	C 	0.98680 0.97490 0.44610 -0.17100
H 	H 	0.95420 0.93750 0.44990 0.07600
H 	H 	0.08500 0.97740 0.46160 0.08300
C 	C 	0.88870 0.01110 0.47670 0.00000
H 	H 	0.78850 0.00440 0.46480 0.04400
H 	H 	0.89620 0.00200 0.51510 0.03600
C 	C 	0.03790 0.06450 0.32200 0.42000
C 	C 	0.99150 0.26280 0.47310 0.01500
H 	H 	0.98580 0.23240 0.44800 0.04200
H 	H 	0.08970 0.27770 0.47230 0.03200
C 	C 	0.88210 0.30600 0.45650 -0.15900
H 	H 	0.78550 0.28870 0.45520 0.08300
C 	C 	0.87480 0.35100 0.49540 0.00100
H 	H 	0.79620 0.37560 0.48490 0.03200
H 	H 	0.96580 0.37130 0.49530 0.03400
C 	C 	0.84740 0.32820 0.55410 -0.17900
H 	H 	0.85600 0.35780 0.58020 0.07500
H 	H 	0.74880 0.31380 0.55570 0.09000
C 	C 	0.95360 0.28450 0.56890 0.03000
H 	H 	0.04990 0.30040 0.57440 0.02500
H 	H 	0.92490 0.26760 0.60270 0.02800
C 	C 	0.91510 0.32670 0.39700 0.34500
C 	C 	0.78840 0.05390 0.66110 0.04700
H 	H 	0.79070 0.03040 0.62940 0.02000
H 	H 	0.69620 0.04800 0.67910 0.02300
C 	C 	0.91190 0.03980 0.69890 -0.24400
H 	H 	0.00520 0.04530 0.68070 0.10700
C 	C 	0.90240 0.07800 0.74830 0.04700
H 	H 	0.81100 0.07170 0.76670 0.01900
H 	H 	0.98190 0.06990 0.77380 0.00600
C 	C 	0.91100 0.13600 0.73130 -0.18400
H 	H 	0.00730 0.14360 0.71730 0.07600
H 	H 	0.89590 0.15950 0.76250 0.07500
C 	C 	0.79420 0.14790 0.68740 0.02400
H 	H 	0.69830 0.14600 0.70340 0.02200
H 	H 	0.80770 0.18470 0.67390 0.02800
C 	C 	0.89560 0.98140 0.71420 0.44800
Gd	Gd	0.08031 0.85996 0.70944 1.33800
Gd	Gd	0.69650 0.88953 0.79039 1.44400
Gd	Gd	0.40866 0.06615 0.28767 1.44300
Gd	Gd	0.01872 0.09213 0.20519 1.33600
N 	N 	0.19210 0.86430 0.06560 -0.16500
N 	N 	0.14990 0.77300 0.09510 -0.16900
N 	N 	0.10760 0.79640 0.00150 -0.16300
N 	N 	0.15550 0.88640 0.97470 -0.13100
N 	N 	0.25910 0.83520 0.15090 -0.14100
N 	N 	0.04260 0.71190 0.03310 -0.13000
N 	N 	0.39210 0.20190 0.90810 -0.17500
N 	N 	0.44490 0.19870 0.00360 -0.16900
N 	N 	0.50790 0.12460 0.94650 -0.16900
N 	N 	0.46360 0.13320 0.85400 -0.14500
N 	N 	0.32750 0.27300 0.96440 -0.13600
N 	N 	0.55790 0.11950 0.03490 -0.16400
N 	N 	0.59660 0.75860 0.50780 -0.16700
N 	N 	0.65440 0.75090 0.41350 -0.16700
N 	N 	0.56900 0.83610 0.44810 -0.17100
N 	N 	0.51680 0.84280 0.53940 -0.14300
N 	N 	0.68390 0.67930 0.47000 -0.14500
N 	N 	0.62120 0.82650 0.35990 -0.13900
N 	N 	0.93110 0.15700 0.49650 -0.17300
N 	N 	0.88060 0.17930 0.58790 -0.16700
N 	N 	0.86950 0.08670 0.55840 -0.17100
N 	N 	0.92060 0.06800 0.47010 -0.14300
N 	N 	0.95930 0.24450 0.52760 -0.13800
N 	N 	0.79990 0.11160 0.64410 -0.14700
O 	O 	0.94640 0.88890 0.80040 -0.50700
O 	O 	0.18920 0.88300 0.80110 -0.43700
O 	O 	0.10240 0.00310 0.20320 -0.44700
O 	O 	0.31300 0.98460 0.24520 -0.40500
O 	O 	0.99090 0.57630 0.89240 -0.37700
O 	O 	0.97530 0.66150 0.86960 -0.41300
O 	O 	0.62850 0.97370 0.83760 -0.40600
O 	O 	0.49450 0.95630 0.76570 -0.35600
O 	O 	0.40410 0.43710 0.06620 -0.57800
H 	H 	0.38890 0.45320 0.09480 0.32700
O 	O 	0.27850 0.37310 0.10490 -0.46600
O 	O 	0.27500 0.09980 0.19830 -0.52600
O 	O 	0.50890 0.09640 0.20420 -0.48500
O 	O 	0.58860 0.85330 0.70840 -0.46100
O 	O 	0.81910 0.85110 0.70210 -0.51900
O 	O 	0.60990 0.58470 0.61040 -0.50700
O 	O 	0.47950 0.52840 0.56530 -0.60500
H 	H 	0.48220 0.51180 0.59430 0.34100
O 	O 	0.61180 0.99690 0.26340 -0.37000
O 	O 	0.50010 0.98940 0.33820 -0.41600
O 	O 	0.15690 0.07120 0.29920 -0.52900
O 	O 	0.91960 0.06880 0.29640 -0.43100
O 	O 	0.94180 0.29090 0.36310 -0.42000
O 	O 	0.91300 0.37520 0.38650 -0.40300
O 	O 	0.78600 0.96450 0.73910 -0.41000
O 	O 	0.00060 0.94920 0.70160 -0.43100
C 	C 	0.85050 0.34810 0.98360 0.16500
C 	C 	0.80680 0.32290 0.89730 0.17900
C 	C 	0.89650 0.26130 0.95640 0.17100
C 	C 	0.85460 0.36880 0.08340 0.03800
H 	H 	0.75730 0.36180 0.09670 0.02000
H 	H 	0.91050 0.33530 0.08610 0.02000
C 	C 	0.92520 0.41100 0.11670 -0.21100
H 	H 	0.02630 0.41580 0.10510 0.10100
C 	C 	0.84230 0.46510 0.10940 0.03100
H 	H 	0.74440 0.46150 0.12360 0.02400
H 	H 	0.89250 0.49370 0.12960 0.01200
C 	C 	0.83370 0.47980 0.05050 -0.18000
H 	H 	0.77680 0.51300 0.04640 0.07700
H 	H 	0.93170 0.48740 0.03800 0.08600
C 	C 	0.76930 0.43820 0.01620 0.00800
H 	H 	0.77670 0.44870 0.97830 0.03500
H 	H 	0.66640 0.43420 0.02440 0.04200
C 	C 	0.92560 0.39250 0.17610 0.40200
C 	C 	0.70820 0.39310 0.83360 0.03700
H 	H 	0.61150 0.39570 0.81680 0.02700
H 	H 	0.71170 0.41640 0.86540 0.02700
C 	C 	0.82150 0.40970 0.79450 -0.22900
H 	H 	0.91640 0.40650 0.81340 0.10900
C 	C 	0.82680 0.37420 0.74590 0.05400
H 	H 	0.90700 0.38570 0.72330 0.00200
H 	H 	0.73670 0.37830 0.72480 0.01800
C 	C 	0.84690 0.31510 0.76100 -0.19800
H 	H 	0.94590 0.30950 0.77480 0.08500
H 	H 	0.83310 0.29260 0.72890 0.07900
C 	C 	0.73890 0.29770 0.80410 0.02000
H 	H 	0.64110 0.29630 0.78810 0.02500
H 	H 	0.76380 0.26150 0.81710 0.03000
C 	C 	0.80090 0.47000 0.78000 0.43200
C 	C 	0.98760 0.17150 0.92290 0.00800
H 	H 	0.09220 0.16790 0.91790 0.03000
H 	H 	0.94290 0.18330 0.88880 0.03300
C 	C 	0.92320 0.11780 0.94040 -0.17000
H 	H 	0.94400 0.09030 0.91330 0.07300
H 	H 	0.81780 0.12140 0.94240 0.08800
C 	C 	0.98380 0.09900 0.99540 0.00800
H 	H 	0.93850 0.06480 0.00540 0.03000
H 	H 	0.08840 0.09320 0.99320 0.02400
C 	C 	0.95320 0.14180 0.03810 -0.14700
H 	H 	0.84670 0.14620 0.03840 0.08200
C 	C 	0.01690 0.19810 0.02160 -0.03500
H 	H 	0.98920 0.22570 0.04770 0.05800
H 	H 	0.12280 0.19630 0.02090 0.05100
C 	C 	0.00000 0.12710 0.09600 0.32900
C 	C 	0.54450 0.65510 0.09710 0.18300
C 	C 	0.60850 0.72200 0.04230 0.17600
C 	C 	0.49430 0.64920 0.00520 0.18400
C 	C 	0.45510 0.58250 0.15630 -0.00000
H 	H 	0.42280 0.56650 0.12210 0.04600
H 	H 	0.36930 0.59050 0.17750 0.03700
C 	C 	0.55280 0.54230 0.18720 -0.15900
H 	H 	0.64200 0.53600 0.16660 0.08200
C 	C 	0.59360 0.56980 0.24190 -0.01400
H 	H 	0.65660 0.54570 0.26310 0.03500
H 	H 	0.50560 0.57630 0.26230 0.03700
C 	C 	0.67390 0.62510 0.23210 -0.17100
H 	H 	0.68820 0.64410 0.26640 0.06900
H 	H 	0.76920 0.61830 0.21680 0.07700
C 	C 	0.58610 0.65870 0.19470 0.02300
H 	H 	0.50140 0.67180 0.21400 0.02300
H 	H 	0.64370 0.69040 0.18500 0.02600
C 	C 	0.47320 0.48850 0.19450 0.33000
C 	C 	0.73640 0.80190 0.08390 0.00100
H 	H 	0.70930 0.78310 0.11690 0.03600
H 	H 	0.84220 0.80210 0.08200 0.04000
C 	C 	0.68140 0.85770 0.08470 -0.16500
H 	H 	0.72760 0.87700 0.11500 0.07300
H 	H 	0.57700 0.85690 0.09110 0.08500
C 	C 	0.70870 0.88970 0.03210 0.01100
H 	H 	0.81260 0.89180 0.02520 0.03500
H 	H 	0.67020 0.92650 0.03480 0.03200
C 	C 	0.62880 0.85810 0.98590 -0.22100
H 	H 	0.52390 0.85640 0.99310 0.10900
C 	C 	0.69340 0.79990 0.98500 0.03800
H 	H 	0.64650 0.77900 0.95600 0.02200
H 	H 	0.79720 0.80180 0.97770 0.03200
C 	C 	0.65440 0.89040 0.93250 0.49200
C 	C 	0.48130 0.63220 0.91090 0.08100
H 	H 	0.51430 0.66980 0.91030 0.00400
H 	H 	0.39350 0.63010 0.88820 0.00000
C 	C 	0.59590 0.59790 0.88510 -0.25900
H 	H 	0.69170 0.60890 0.89980 0.11500
C 	C 	0.57110 0.53640 0.89900 0.06300
H 	H 	0.49730 0.52170 0.87420 0.01300
H 	H 	0.66130 0.51660 0.89320 0.00900
C 	C 	0.52470 0.52750 0.95500 -0.21600
H 	H 	0.60790 0.53340 0.97940 0.09900
H 	H 	0.49480 0.48970 0.95880 0.09700
C 	C 	0.40120 0.56370 0.97220 0.03900
H 	H 	0.31410 0.55570 0.95050 0.02000
H 	H 	0.37950 0.55700 0.01010 0.03100
C 	C 	0.60100 0.59980 0.82320 0.45500
C 	C 	0.43500 0.31180 0.50190 0.16700
C 	C 	0.36270 0.23090 0.53670 0.17800
C 	C 	0.38980 0.30430 0.58990 0.17600
C 	C 	0.49570 0.40290 0.46690 0.01700
H 	H 	0.52470 0.41150 0.50400 0.03700
H 	H 	0.57030 0.41670 0.44300 0.02800
C 	C 	0.35480 0.42920 0.45360 -0.19100
H 	H 	0.36280 0.46840 0.45820 0.09100
H 	H 	0.27970 0.41590 0.47760 0.09300
C 	C 	0.31350 0.41500 0.39260 0.03800
H 	H 	0.21640 0.42910 0.38430 0.01900
H 	H 	0.38150 0.43340 0.36900 0.02100
C 	C 	0.31590 0.35360 0.38000 -0.26200
H 	H 	0.23120 0.33610 0.39660 0.11300
C 	C 	0.46100 0.32680 0.40380 0.05300
H 	H 	0.45400 0.28730 0.40130 0.00900
H 	H 	0.54380 0.33850 0.38270 0.00800
C 	C 	0.30050 0.35050 0.32160 0.45400
C 	C 	0.32890 0.14950 0.47710 0.08300
H 	H 	0.23560 0.13280 0.46760 0.01500
H 	H 	0.35280 0.17520 0.44860 0.00900
C 	C 	0.44070 0.10770 0.48050 -0.28600
H 	H 	0.53570 0.12570 0.48530 0.12500
C 	C 	0.41860 0.06860 0.53000 0.04800
H 	H 	0.50230 0.04450 0.53390 0.02300
H 	H 	0.33210 0.04640 0.52370 0.01700
C 	C 	0.40090 0.10300 0.58330 -0.19500
H 	H 	0.37560 0.07920 0.61320 0.08000
H 	H 	0.49240 0.12110 0.59260 0.09400
C 	C 	0.28070 0.14540 0.57420 0.02600
H 	H 	0.18830 0.12710 0.56670 0.02900
H 	H 	0.27010 0.16730 0.60670 0.02900
C 	C 	0.44730 0.07170 0.43010 0.56400
C 	C 	0.34830 0.29560 0.68620 0.01500
H 	H 	0.43880 0.28680 0.70540 0.02500
H 	H 	0.30130 0.26170 0.67540 0.02900
C 	C 	0.24800 0.32760 0.72380 -0.17300
H 	H 	0.15320 0.33250 0.70610 0.07700
H 	H 	0.23370 0.30690 0.75690 0.06900
C 	C 	0.31260 0.38260 0.73770 0.01400
H 	H 	0.40360 0.37760 0.75800 0.02900
H 	H 	0.24570 0.40250 0.76060 0.02300
C 	C 	0.34180 0.41620 0.68630 -0.19500
H 	H 	0.24820 0.42360 0.66770 0.09200
C 	C 	0.43840 0.38100 0.64800 0.01000
H 	H 	0.44530 0.39900 0.61310 0.04500
H 	H 	0.53640 0.37820 0.66360 0.03600
C 	C 	0.41560 0.46880 0.69820 0.38400
C 	C 	0.09170 0.60490 0.48960 0.17900
C 	C 	0.07800 0.69150 0.46330 0.17700
C 	C 	0.14740 0.62600 0.40430 0.17500
C 	C 	0.07380 0.58540 0.58710 0.04200
H 	H 	0.17020 0.58190 0.60400 0.02100
H 	H 	0.04490 0.62340 0.58900 0.01700
C 	C 	0.96870 0.55160 0.61670 -0.21200
H 	H 	0.87120 0.55700 0.60040 0.10500
C 	C 	0.00930 0.48910 0.61300 0.00900
H 	H 	0.10400 0.48250 0.63020 0.02700
H 	H 	0.93670 0.46720 0.63120 0.01800
C 	C 	0.01320 0.47490 0.55390 -0.17900
H 	H 	0.04580 0.43750 0.55010 0.07400
H 	H 	0.91500 0.47740 0.53840 0.08700
C 	C 	0.11130 0.51110 0.52330 0.00800
H 	H 	0.21150 0.50440 0.53520 0.04600
H 	H 	0.10380 0.50200 0.48490 0.03500
C 	C 	0.96210 0.56450 0.67800 0.42500
C 	C 	0.00850 0.76280 0.52690 -0.01300
H 	H 	0.01420 0.73240 0.55200 0.04800
H 	H 	0.91030 0.77770 0.52770 0.04700
C 	C 	0.11790 0.80600 0.54350 -0.14500
H 	H 	0.21450 0.78870 0.54480 0.08000
C 	C 	0.12520 0.85100 0.50460 -0.01600
H 	H 	0.20380 0.87560 0.51510 0.03800
H 	H 	0.03420 0.87130 0.50470 0.03600
C 	C 	0.15260 0.82820 0.44590 -0.15700
H 	H 	0.14400 0.85780 0.41980 0.06700
H 	H 	0.25120 0.81380 0.44430 0.08400
C 	C 	0.04640 0.78450 0.43110 -0.00300
H 	H 	0.95010 0.80040 0.42560 0.04100
H 	H 	0.07510 0.76760 0.39730 0.03600
C 	C 	0.08490 0.82670 0.60300 0.33900
C 	C 	0.21160 0.55390 0.33890 0.05100
H 	H 	0.20930 0.53040 0.37060 0.02100
H 	H 	0.30380 0.54800 0.32090 0.02400
C 	C 	0.08810 0.53980 0.30110 -0.25600
H 	H 	0.99480 0.54530 0.31930 0.12000
C 	C 	0.09760 0.57800 0.25170 0.07100
H 	H 	0.18900 0.57170 0.23330 0.01400
H 	H 	0.01810 0.56990 0.22620 -0.00300
C 	C 	0.08900 0.63600 0.26870 -0.22500
H 	H 	0.99270 0.64360 0.28270 0.09500
H 	H 	0.10410 0.65950 0.23750 0.08600
C 	C 	0.20580 0.64790 0.31260 0.04300
H 	H 	0.30170 0.64600 0.29660 0.01700
H 	H 	0.19230 0.68470 0.32610 0.02100
C 	C 	0.10440 0.48140 0.28580 0.43400
Gd	Gd	0.91969 0.35996 0.29056 1.34800
Gd	Gd	0.30350 0.38953 0.20961 1.44200
Gd	Gd	0.59134 0.56615 0.71233 1.45500
Gd	Gd	0.98128 0.59213 0.79481 1.35000
N 	N 	0.80790 0.36430 0.93440 -0.16600
N 	N 	0.85010 0.27300 0.90490 -0.16800
N 	N 	0.89240 0.29640 0.99850 -0.16200
N 	N 	0.84450 0.38640 0.02530 -0.13400
N 	N 	0.74090 0.33520 0.84910 -0.14100
N 	N 	0.95740 0.21190 0.96690 -0.12500
N 	N 	0.60790 0.70190 0.09190 -0.17500
N 	N 	0.55510 0.69870 0.99640 -0.16900
N 	N 	0.49210 0.62460 0.05350 -0.16800
N 	N 	0.53640 0.63320 0.14600 -0.14300
N 	N 	0.67250 0.77300 0.03560 -0.13500
N 	N 	0.44210 0.61950 0.96510 -0.16000
N 	N 	0.40340 0.25860 0.49220 -0.16700
N 	N 	0.34560 0.25090 0.58650 -0.16700
N 	N 	0.43100 0.33610 0.55190 -0.17100
N 	N 	0.48320 0.34280 0.46060 -0.14400
N 	N 	0.31610 0.17930 0.53000 -0.14700
N 	N 	0.37880 0.32650 0.64010 -0.13900
N 	N 	0.06890 0.65700 0.50350 -0.17300
N 	N 	0.11940 0.67930 0.41210 -0.16800
N 	N 	0.13050 0.58670 0.44160 -0.17100
N 	N 	0.07940 0.56800 0.52990 -0.14000
N 	N 	0.04070 0.74450 0.47240 -0.13100
N 	N 	0.20010 0.61160 0.35590 -0.15100
O 	O 	0.05360 0.38890 0.19960 -0.51800
O 	O 	0.81080 0.38300 0.19890 -0.44000
O 	O 	0.89760 0.50310 0.79680 -0.43500
O 	O 	0.68700 0.48460 0.75480 -0.40800
O 	O 	0.00910 0.07630 0.10760 -0.38400
O 	O 	0.02470 0.16150 0.13040 -0.41900
O 	O 	0.37150 0.47370 0.16240 -0.40600
O 	O 	0.50550 0.45630 0.23430 -0.35600
O 	O 	0.59590 0.93710 0.93380 -0.57700
H 	H 	0.61110 0.95320 0.90520 0.32900
O 	O 	0.72150 0.87310 0.89510 -0.46400
O 	O 	0.72500 0.59980 0.80170 -0.52600
O 	O 	0.49110 0.59640 0.79580 -0.48500
O 	O 	0.41140 0.35330 0.29160 -0.46100
O 	O 	0.18090 0.35110 0.29790 -0.52400
O 	O 	0.39010 0.08470 0.38960 -0.50800
O 	O 	0.52050 0.02840 0.43470 -0.60600
H 	H 	0.51780 0.01180 0.40570 0.33700
O 	O 	0.38820 0.49690 0.73660 -0.37800
O 	O 	0.49990 0.48940 0.66180 -0.42400
O 	O 	0.84310 0.57120 0.70080 -0.52900
O 	O 	0.08040 0.56880 0.70360 -0.44000
O 	O 	0.05820 0.79090 0.63690 -0.42100
O 	O 	0.08700 0.87520 0.61350 -0.40200
O 	O 	0.21400 0.46450 0.26090 -0.40900
O 	O 	0.99940 0.44920 0.29840 -0.42400
