data_crystal

_cell_length_a 16.49180
_cell_length_b 16.83820
_cell_length_c 18.48830
_cell_angle_alpha 69.53900
_cell_angle_beta  66.78600
_cell_angle_gamma 63.79200

_symmetry_space_group_name_	'P 1'
_symmetry_space_group_name_H-M	'P 1'

loop_
_symmetry_equiv_pos_as_xyz
  x,y,z

loop_
_atom_site_label
_atom_site_type_symbol
_atom_site_fract_x
_atom_site_fract_y
_atom_site_fract_z
_atom_site_charge
Cd	Cd	0.52168 0.22466 0.54501 1.22300
Cd	Cd	0.44475 0.29490 0.74787 1.20100
Cd	Cd	0.37417 0.37397 0.93916 1.22500
O 	O 	0.57910 0.34380 0.50400 -0.39900
O 	O 	0.56170 0.26990 0.62970 -0.52700
O 	O 	0.33590 0.35030 0.68520 -0.48900
O 	O 	0.36730 0.27280 0.59530 -0.47000
O 	O 	0.65340 0.09380 0.56370 -0.37000
O 	O 	0.53480 0.07800 0.54960 -0.37900
O 	O 	0.55200 0.23070 0.81520 -0.46900
O 	O 	0.52830 0.33430 0.87730 -0.45500
O 	O 	0.32420 0.32620 0.86660 -0.53200
O 	O 	0.30520 0.25990 0.99440 -0.38600
O 	O 	0.23950 0.50170 0.95980 -0.37800
O 	O 	0.37080 0.52360 0.88130 -0.38300
N 	N 	0.52890 0.25700 0.40930 -0.22300
N 	N 	0.40880 0.34650 0.05480 -0.23900
C 	C 	0.50580 0.34090 0.36560 0.06300
H 	H 	0.50400 0.38790 0.38400 0.00100
C 	C 	0.48410 0.36300 0.29370 -0.11900
H 	H 	0.46720 0.42400 0.26470 0.07500
C 	C 	0.48710 0.29650 0.26470 0.04300
C 	C 	0.51800 0.20770 0.30760 -0.11100
H 	H 	0.52610 0.15890 0.28770 0.06700
C 	C 	0.53690 0.19080 0.37940 0.05100
H 	H 	0.55630 0.13000 0.40860 0.01200
C 	C 	0.45920 0.31660 0.19220 0.05900
C 	C 	0.48030 0.38090 0.12390 -0.13800
H 	H 	0.51240 0.41640 0.12300 0.09000
C 	C 	0.45480 0.39300 0.05750 0.08100
H 	H 	0.47070 0.43690 0.01110 -0.00900
C 	C 	0.38890 0.28410 0.11950 0.07600
H 	H 	0.35780 0.24930 0.11740 -0.00200
C 	C 	0.41050 0.26680 0.18890 -0.13100
H 	H 	0.39330 0.22240 0.23410 0.07600
C 	C 	0.58850 0.33000 0.57060 0.33900
C 	C 	0.63910 0.37740 0.58170 -0.13700
C 	C 	0.68320 0.33950 0.64360 0.02900
H 	H 	0.67950 0.28390 0.67920 0.02300
C 	C 	0.73170 0.38270 0.65310 -0.10400
H 	H 	0.76180 0.35650 0.69470 0.06900
C 	C 	0.73630 0.46490 0.60130 0.04100
C 	C 	0.69100 0.50270 0.54030 -0.11100
H 	H 	0.69330 0.55910 0.50540 0.06700
C 	C 	0.64340 0.45930 0.53050 0.04500
H 	H 	0.61370 0.48530 0.48870 0.02000
C 	C 	0.79030 0.51350 0.60550 0.04000
C 	C 	0.88080 0.46740 0.61680 -0.09900
H 	H 	0.90670 0.40320 0.62630 0.06400
C 	C 	0.93290 0.51590 0.61400 0.03800
C 	C 	0.89220 0.60920 0.60170 -0.10300
H 	H 	0.92780 0.64230 0.59890 0.06300
C 	C 	0.80200 0.65690 0.59320 0.04300
C 	C 	0.75290 0.60630 0.59500 -0.10200
H 	H 	0.69130 0.63730 0.58860 0.06600
C 	C 	0.02880 0.46610 0.62270 0.04600
C 	C 	0.08410 0.38220 0.60220 -0.11300
H 	H 	0.05920 0.35540 0.58260 0.07000
C 	C 	0.17420 0.33690 0.60980 0.05600
H 	H 	0.20980 0.27960 0.59550 0.02100
C 	C 	0.21380 0.37300 0.63770 -0.14700
C 	C 	0.15930 0.45590 0.66120 0.05000
H 	H 	0.18420 0.48060 0.68300 0.02300
C 	C 	0.06860 0.50240 0.65280 -0.10800
H 	H 	0.03290 0.55950 0.66760 0.06700
C 	C 	0.31370 0.32850 0.64070 0.40800
C 	C 	0.75740 0.75770 0.58230 0.02500
C 	C 	0.78470 0.80600 0.60930 -0.08500
H 	H 	0.83370 0.77510 0.63470 0.05700
C 	C 	0.74120 0.89920 0.59970 0.00700
H 	H 	0.76190 0.93210 0.61700 0.04000
C 	C 	0.66690 0.94500 0.56490 -0.07600
C 	C 	0.63990 0.89640 0.53780 0.00500
H 	H 	0.58920 0.92650 0.51440 0.04900
C 	C 	0.68640 0.80440 0.54470 -0.08100
H 	H 	0.66930 0.77230 0.52330 0.05800
C 	C 	0.61530 0.04550 0.55880 0.28700
C 	C 	0.57820 0.26450 0.84940 0.37500
C 	C 	0.67690 0.21590 0.85720 -0.13300
C 	C 	0.70620 0.24500 0.90140 0.04600
H 	H 	0.66450 0.29500 0.92630 0.02500
C 	C 	0.79620 0.20050 0.90850 -0.11500
H 	H 	0.81570 0.21950 0.93960 0.07200
C 	C 	0.85980 0.12790 0.87130 0.04800
C 	C 	0.82930 0.10140 0.82650 -0.11600
H 	H 	0.87130 0.05270 0.80000 0.06900
C 	C 	0.73890 0.14490 0.81990 0.04900
H 	H 	0.71900 0.12560 0.78920 0.02300
C 	C 	0.95690 0.08030 0.87960 0.02800
C 	C 	0.00640 0.12610 0.88540 -0.09200
H 	H 	0.97740 0.18960 0.88230 0.06200
C 	C 	0.09560 0.08290 0.89550 0.03000
C 	C 	0.13850 0.98730 0.89960 -0.09400
H 	H 	0.19970 0.95580 0.90690 0.06200
C 	C 	0.09140 0.93970 0.89300 0.03500
C 	C 	0.00030 0.98640 0.88370 -0.09100
H 	H 	0.96760 0.95410 0.88010 0.06000
C 	C 	0.14640 0.13190 0.90210 0.04000
C 	C 	0.14890 0.21350 0.85150 -0.10600
H 	H 	0.11700 0.23920 0.81110 0.06800
C 	C 	0.19760 0.25920 0.85840 0.02800
H 	H 	0.20080 0.31430 0.82150 0.02700
C 	C 	0.24160 0.22400 0.91930 -0.13700
C 	C 	0.23870 0.14140 0.97130 0.04100
H 	H 	0.26880 0.11680 0.01270 0.02300
C 	C 	0.19250 0.09520 0.96330 -0.11300
H 	H 	0.19170 0.03870 0.99860 0.06800
C 	C 	0.29230 0.27210 0.92780 0.33500
C 	C 	0.13890 0.84150 0.89560 0.03400
C 	C 	0.23350 0.80590 0.85610 -0.09000
H 	H 	0.26710 0.84590 0.82400 0.06100
C 	C 	0.28100 0.71260 0.86210 0.01600
H 	H 	0.34640 0.68940 0.83530 0.03900
C 	C 	0.23140 0.65370 0.90800 -0.09200
C 	C 	0.13580 0.68920 0.94430 0.02100
H 	H 	0.10120 0.64960 0.97390 0.04000
C 	C 	0.08950 0.78220 0.93800 -0.09500
H 	H 	0.02360 0.80550 0.96290 0.06600
C 	C 	0.28320 0.55460 0.91600 0.30300
Cd	Cd	0.47832 0.77534 0.45499 1.22200
Cd	Cd	0.55525 0.70510 0.25213 1.20000
Cd	Cd	0.62583 0.62603 0.06084 1.22400
O 	O 	0.42090 0.65620 0.49600 -0.40000
O 	O 	0.43830 0.73010 0.37030 -0.52800
O 	O 	0.66410 0.64970 0.31480 -0.49000
O 	O 	0.63270 0.72720 0.40470 -0.47100
O 	O 	0.34660 0.90620 0.43630 -0.37100
O 	O 	0.46520 0.92200 0.45040 -0.37900
O 	O 	0.44800 0.76930 0.18480 -0.46900
O 	O 	0.47170 0.66570 0.12270 -0.45500
O 	O 	0.67580 0.67380 0.13340 -0.53200
O 	O 	0.69480 0.74010 0.00560 -0.38600
O 	O 	0.76050 0.49830 0.04020 -0.37800
O 	O 	0.62920 0.47640 0.11870 -0.38300
N 	N 	0.47110 0.74300 0.59070 -0.22300
N 	N 	0.59120 0.65350 0.94520 -0.23900
C 	C 	0.49420 0.65910 0.63440 0.06300
H 	H 	0.49600 0.61210 0.61600 0.00100
C 	C 	0.51590 0.63700 0.70630 -0.11900
H 	H 	0.53280 0.57600 0.73530 0.07500
C 	C 	0.51290 0.70350 0.73530 0.04300
C 	C 	0.48200 0.79230 0.69240 -0.11100
H 	H 	0.47390 0.84110 0.71230 0.06700
C 	C 	0.46310 0.80920 0.62060 0.05100
H 	H 	0.44370 0.87000 0.59140 0.01200
C 	C 	0.54080 0.68340 0.80780 0.05900
C 	C 	0.51970 0.61910 0.87610 -0.13800
H 	H 	0.48760 0.58360 0.87700 0.09000
C 	C 	0.54520 0.60700 0.94250 0.08100
H 	H 	0.52930 0.56310 0.98890 -0.00900
C 	C 	0.61110 0.71590 0.88050 0.07600
H 	H 	0.64220 0.75070 0.88260 -0.00200
C 	C 	0.58950 0.73320 0.81110 -0.13100
H 	H 	0.60670 0.77760 0.76590 0.07600
C 	C 	0.41150 0.67000 0.42940 0.33900
C 	C 	0.36090 0.62260 0.41830 -0.13700
C 	C 	0.31680 0.66050 0.35640 0.02900
H 	H 	0.32050 0.71610 0.32080 0.02300
C 	C 	0.26830 0.61730 0.34690 -0.10400
H 	H 	0.23820 0.64350 0.30530 0.06900
C 	C 	0.26370 0.53510 0.39870 0.04100
C 	C 	0.30900 0.49730 0.45970 -0.11100
H 	H 	0.30670 0.44090 0.49460 0.06700
C 	C 	0.35660 0.54070 0.46950 0.04500
H 	H 	0.38630 0.51470 0.51130 0.02000
C 	C 	0.20970 0.48650 0.39450 0.04000
C 	C 	0.11920 0.53260 0.38320 -0.09900
H 	H 	0.09330 0.59680 0.37370 0.06400
C 	C 	0.06710 0.48410 0.38600 0.03800
C 	C 	0.10780 0.39080 0.39830 -0.10300
H 	H 	0.07220 0.35770 0.40110 0.06300
C 	C 	0.19800 0.34310 0.40680 0.04300
C 	C 	0.24710 0.39370 0.40500 -0.10200
H 	H 	0.30870 0.36270 0.41140 0.06600
C 	C 	0.97120 0.53390 0.37730 0.04600
C 	C 	0.91590 0.61780 0.39780 -0.11300
H 	H 	0.94080 0.64460 0.41740 0.07000
C 	C 	0.82580 0.66310 0.39020 0.05600
H 	H 	0.79020 0.72040 0.40450 0.02100
C 	C 	0.78620 0.62700 0.36230 -0.14700
C 	C 	0.84070 0.54410 0.33880 0.05000
H 	H 	0.81580 0.51940 0.31700 0.02300
C 	C 	0.93140 0.49760 0.34720 -0.10800
H 	H 	0.96710 0.44050 0.33240 0.06700
C 	C 	0.68630 0.67150 0.35930 0.40800
C 	C 	0.24260 0.24230 0.41770 0.02500
C 	C 	0.21530 0.19400 0.39070 -0.08500
H 	H 	0.16630 0.22490 0.36530 0.05700
C 	C 	0.25880 0.10080 0.40030 0.00700
H 	H 	0.23810 0.06790 0.38300 0.04000
C 	C 	0.33310 0.05500 0.43510 -0.07600
C 	C 	0.36010 0.10360 0.46220 0.00500
H 	H 	0.41080 0.07350 0.48560 0.04900
C 	C 	0.31360 0.19560 0.45530 -0.08100
H 	H 	0.33070 0.22770 0.47670 0.05800
C 	C 	0.38470 0.95450 0.44120 0.28700
C 	C 	0.42180 0.73550 0.15060 0.37500
C 	C 	0.32310 0.78410 0.14280 -0.13300
C 	C 	0.29380 0.75500 0.09860 0.04600
H 	H 	0.33550 0.70500 0.07370 0.02500
C 	C 	0.20380 0.79950 0.09150 -0.11500
H 	H 	0.18430 0.78050 0.06040 0.07200
C 	C 	0.14020 0.87210 0.12870 0.04800
C 	C 	0.17070 0.89860 0.17350 -0.11600
H 	H 	0.12870 0.94730 0.20000 0.06900
C 	C 	0.26110 0.85510 0.18010 0.04900
H 	H 	0.28100 0.87440 0.21080 0.02300
C 	C 	0.04310 0.91970 0.12040 0.02800
C 	C 	0.99360 0.87390 0.11460 -0.09200
H 	H 	0.02260 0.81040 0.11770 0.06200
C 	C 	0.90440 0.91710 0.10450 0.03000
C 	C 	0.86150 0.01270 0.10040 -0.09400
H 	H 	0.80030 0.04420 0.09310 0.06200
C 	C 	0.90860 0.06030 0.10700 0.03500
C 	C 	0.99970 0.01360 0.11630 -0.09100
H 	H 	0.03240 0.04590 0.11990 0.06000
C 	C 	0.85360 0.86810 0.09790 0.04000
C 	C 	0.85110 0.78650 0.14850 -0.10600
H 	H 	0.88300 0.76080 0.18890 0.06800
C 	C 	0.80240 0.74080 0.14160 0.02800
H 	H 	0.79920 0.68570 0.17850 0.02700
C 	C 	0.75840 0.77600 0.08070 -0.13700
C 	C 	0.76130 0.85860 0.02870 0.04100
H 	H 	0.73120 0.88320 0.98730 0.02300
C 	C 	0.80750 0.90480 0.03670 -0.11300
H 	H 	0.80830 0.96130 0.00140 0.06800
C 	C 	0.70770 0.72790 0.07220 0.33500
C 	C 	0.86110 0.15850 0.10440 0.03400
C 	C 	0.76650 0.19410 0.14390 -0.09000
H 	H 	0.73290 0.15410 0.17600 0.06100
C 	C 	0.71900 0.28740 0.13790 0.01600
H 	H 	0.65360 0.31060 0.16470 0.03900
C 	C 	0.76860 0.34630 0.09200 -0.09200
C 	C 	0.86420 0.31080 0.05570 0.02100
H 	H 	0.89880 0.35040 0.02610 0.04000
C 	C 	0.91050 0.21780 0.06200 -0.09500
H 	H 	0.97640 0.19450 0.03710 0.06600
C 	C 	0.71680 0.44540 0.08400 0.30300
