data_crystal

_cell_length_a 16.61100
_cell_length_b 16.72300
_cell_length_c 19.28800
_cell_angle_alpha 78.53700
_cell_angle_beta  65.24300
_cell_angle_gamma 62.35100

_symmetry_space_group_name_	'P 1'
_symmetry_space_group_name_H-M	'P 1'

loop_
_symmetry_equiv_pos_as_xyz
  x,y,z

loop_
_atom_site_label
_atom_site_type_symbol
_atom_site_fract_x
_atom_site_fract_y
_atom_site_fract_z
_atom_site_charge
Cd	Cd	0.12298 0.71219 0.44014 1.25000
Cd	Cd	0.20507 0.84098 0.25575 1.20300
Cd	Cd	0.28922 0.95560 0.06328 1.22600
O 	O 	0.14110 0.81980 0.48860 -0.38800
O 	O 	0.22480 0.78190 0.37000 -0.53000
O 	O 	0.04310 0.88860 0.32010 -0.45700
O 	O 	0.02820 0.76200 0.37170 -0.43500
O 	O 	0.36660 0.79490 0.19900 -0.47200
O 	O 	0.39710 0.90220 0.11860 -0.47000
O 	O 	0.18160 0.89210 0.14250 -0.53300
O 	O 	0.26170 0.85180 0.02220 -0.40100
O 	O 	0.21730 0.08570 0.13250 -0.39000
O 	O 	0.18310 0.09430 0.03180 -0.37700
N 	N 	0.97990 0.74920 0.54560 -0.23900
N 	N 	0.72570 0.81680 0.74430 -0.10200
N 	N 	0.65480 0.88710 0.73940 -0.10500
N 	N 	0.41420 0.94360 0.94660 -0.24800
C 	C 	0.95670 0.68760 0.59160 0.10700
H 	H 	0.99840 0.62610 0.57760 0.00300
C 	C 	0.87510 0.70620 0.65950 -0.18500
H 	H 	0.86280 0.65980 0.69320 0.09800
C 	C 	0.81160 0.79900 0.67490 0.17000
C 	C 	0.83510 0.86130 0.62550 -0.21000
H 	H 	0.79190 0.92360 0.63450 0.10800
C 	C 	0.91870 0.83620 0.56420 0.12100
H 	H 	0.93550 0.88170 0.53230 -0.02000
C 	C 	0.57410 0.90590 0.81190 0.19300
C 	C 	0.58560 0.89960 0.87780 -0.20300
H 	H 	0.64830 0.88410 0.87790 0.11700
C 	C 	0.50460 0.91600 0.94620 0.09800
H 	H 	0.51320 0.90760 0.99320 -0.01000
C 	C 	0.40470 0.95560 0.88030 0.12700
H 	H 	0.34070 0.97750 0.88030 -0.02000
C 	C 	0.48190 0.93820 0.81150 -0.21500
H 	H 	0.47190 0.94810 0.76490 0.11200
C 	C 	0.20880 0.81990 0.42720 0.36100
C 	C 	0.26940 0.86610 0.42160 -0.15100
C 	C 	0.24010 0.92610 0.47690 0.05900
H 	H 	0.18050 0.93730 0.51980 0.02400
C 	C 	0.29580 0.97020 0.47130 -0.13200
H 	H 	0.27390 0.01200 0.50930 0.08100
C 	C 	0.38250 0.95280 0.41030 0.06200
C 	C 	0.41420 0.89210 0.35510 -0.12100
H 	H 	0.47570 0.87840 0.31380 0.07500
C 	C 	0.35560 0.85100 0.36020 0.04600
H 	H 	0.37560 0.81200 0.32070 0.01900
C 	C 	0.43870 0.00450 0.40270 0.02100
C 	C 	0.39260 0.09610 0.40920 -0.07000
H 	H 	0.32460 0.12620 0.41850 0.05600
C 	C 	0.44210 0.14670 0.40270 -0.01700
C 	C 	0.54020 0.10300 0.38920 -0.07200
H 	H 	0.57370 0.13690 0.38750 0.05300
C 	C 	0.59280 0.00900 0.37790 0.02100
C 	C 	0.54010 0.96150 0.38530 -0.08900
H 	H 	0.57350 0.89790 0.37850 0.06000
C 	C 	0.38700 0.24820 0.40860 0.15400
C 	C 	0.40020 0.29600 0.45080 -0.14800
H 	H 	0.44560 0.26460 0.47530 0.08000
C 	C 	0.34890 0.38750 0.45750 0.10700
H 	H 	0.35780 0.41970 0.48710 0.01100
C 	C 	0.28290 0.43340 0.42030 -0.31800
C 	C 	0.27050 0.38890 0.37580 0.01400
H 	H 	0.22550 0.42010 0.35090 0.03900
C 	C 	0.32630 0.29660 0.36870 -0.03100
H 	H 	0.32280 0.26520 0.33490 0.04600
C 	C 	0.22930 0.53470 0.42450 0.71300
O 	O 	0.14300 0.56940 0.43050 -0.38000
O 	O 	0.24550 0.57620 0.46030 -0.27600
C 	C 	0.69700 0.96400 0.36570 0.04500
C 	C 	0.75780 0.00940 0.32870 -0.10800
H 	H 	0.73230 0.06790 0.30770 0.06700
C 	C 	0.85300 0.96940 0.32310 0.03800
H 	H 	0.89300 0.00100 0.29950 0.02900
C 	C 	0.89150 0.88370 0.35130 -0.12200
C 	C 	0.83410 0.83800 0.38610 0.04000
H 	H 	0.86020 0.77920 0.40640 0.02700
C 	C 	0.73960 0.87730 0.39120 -0.11400
H 	H 	0.70140 0.84390 0.41310 0.06800
C 	C 	0.99720 0.84050 0.34680 0.36800
C 	C 	0.42020 0.83300 0.15670 0.40900
C 	C 	0.55820 0.70820 0.19150 0.06600
H 	H 	0.51630 0.67930 0.21940 0.02000
C 	C 	0.65390 0.66690 0.18640 -0.13300
H 	H 	0.67690 0.61060 0.21120 0.07600
C 	C 	0.71570 0.70620 0.14600 0.06500
C 	C 	0.68200 0.79020 0.11250 -0.13000
H 	H 	0.72390 0.81970 0.08710 0.07900
C 	C 	0.58530 0.83060 0.11700 0.06100
H 	H 	0.56240 0.88700 0.09210 0.01900
C 	C 	0.52160 0.79030 0.15710 -0.15000
C 	C 	0.82190 0.65710 0.13440 0.02700
C 	C 	0.87390 0.70270 0.13350 -0.09600
H 	H 	0.84140 0.76600 0.14220 0.06600
C 	C 	0.97200 0.65690 0.12030 0.03400
C 	C 	0.01960 0.56490 0.11220 -0.09600
H 	H 	0.08780 0.53490 0.10240 0.06200
C 	C 	0.96910 0.51410 0.11820 0.02700
C 	C 	0.86910 0.56280 0.12820 -0.08900
H 	H 	0.83320 0.53100 0.13080 0.06000
C 	C 	0.01820 0.41640 0.11210 0.05000
C 	C 	0.08270 0.36780 0.14640 -0.10500
H 	H 	0.09570 0.39760 0.17480 0.06700
C 	C 	0.12950 0.27590 0.14040 0.03100
H 	H 	0.17240 0.24270 0.16690 0.03700
C 	C 	0.11630 0.22930 0.09660 -0.10100
C 	C 	0.05110 0.27950 0.06060 0.03700
H 	H 	0.04210 0.25060 0.02850 0.03500
C 	C 	0.99950 0.37090 0.07130 -0.10600
H 	H 	0.95020 0.40400 0.05060 0.06700
C 	C 	0.17600 0.13140 0.08690 0.30300
C 	C 	0.03160 0.70720 0.11340 0.05000
C 	C 	0.99410 0.77770 0.16320 -0.11700
H 	H 	0.93060 0.79530 0.20230 0.07500
C 	C 	0.04970 0.82040 0.15470 0.05100
H 	H 	0.02480 0.86680 0.18960 0.01600
C 	C 	0.14180 0.79920 0.09700 -0.14700
C 	C 	0.17660 0.73190 0.04530 0.05000
H 	H 	0.23770 0.71830 0.00370 0.02400
C 	C 	0.12250 0.68460 0.05430 -0.11400
H 	H 	0.14770 0.63720 0.02030 0.06700
C 	C 	0.20040 0.84820 0.08600 0.34500
C 	C 	0.42540 0.30510 0.35520 -0.16500
H 	H 	0.48400 0.28000 0.31180 0.08500
C 	C 	0.37820 0.39600 0.36610 0.13400
H 	H 	0.40980 0.43350 0.33710 -0.00600
C 	C 	0.23290 0.38220 0.45130 0.17000
H 	H 	0.16370 0.40880 0.47720 -0.01000
C 	C 	0.28590 0.29010 0.44420 -0.19400
H 	H 	0.25140 0.25330 0.46480 0.09300
O 	O 	0.23730 0.58420 0.36770 -0.41200
O 	O 	0.18870 0.57130 0.48760 -0.24600
Cd	Cd	0.87702 0.28781 0.55986 1.25100
Cd	Cd	0.79493 0.15902 0.74425 1.20400
Cd	Cd	0.71078 0.04440 0.93672 1.22600
O 	O 	0.85890 0.18020 0.51140 -0.38800
O 	O 	0.77520 0.21810 0.63000 -0.53000
O 	O 	0.95690 0.11140 0.67990 -0.45700
O 	O 	0.97180 0.23800 0.62830 -0.43500
O 	O 	0.63340 0.20510 0.80100 -0.47200
O 	O 	0.60290 0.09780 0.88140 -0.47000
O 	O 	0.81840 0.10790 0.85750 -0.53300
O 	O 	0.73830 0.14820 0.97780 -0.40100
O 	O 	0.78270 0.91430 0.86750 -0.39000
O 	O 	0.81690 0.90570 0.96820 -0.37700
N 	N 	0.02010 0.25080 0.45440 -0.23900
N 	N 	0.27430 0.18320 0.25570 -0.10200
N 	N 	0.34520 0.11290 0.26060 -0.10500
N 	N 	0.58580 0.05640 0.05340 -0.24800
C 	C 	0.04330 0.31240 0.40840 0.10700
H 	H 	0.00160 0.37390 0.42240 0.00300
C 	C 	0.12490 0.29380 0.34050 -0.18500
H 	H 	0.13720 0.34020 0.30680 0.09800
C 	C 	0.18840 0.20100 0.32510 0.17000
C 	C 	0.16490 0.13870 0.37450 -0.21000
H 	H 	0.20810 0.07640 0.36550 0.10800
C 	C 	0.08130 0.16380 0.43580 0.12100
H 	H 	0.06450 0.11830 0.46770 -0.02000
C 	C 	0.42590 0.09410 0.18810 0.19300
C 	C 	0.41440 0.10040 0.12220 -0.20300
H 	H 	0.35170 0.11590 0.12210 0.11700
C 	C 	0.49540 0.08400 0.05380 0.09800
H 	H 	0.48680 0.09240 0.00680 -0.01000
C 	C 	0.59530 0.04440 0.11970 0.12700
H 	H 	0.65930 0.02250 0.11970 -0.02000
C 	C 	0.51810 0.06180 0.18850 -0.21500
H 	H 	0.52810 0.05190 0.23510 0.11200
C 	C 	0.79120 0.18010 0.57280 0.36100
C 	C 	0.73060 0.13390 0.57840 -0.15100
C 	C 	0.75990 0.07390 0.52310 0.05900
H 	H 	0.81950 0.06270 0.48020 0.02400
C 	C 	0.70420 0.02980 0.52870 -0.13200
H 	H 	0.72610 0.98800 0.49070 0.08100
C 	C 	0.61750 0.04720 0.58970 0.06200
C 	C 	0.58580 0.10790 0.64490 -0.12100
H 	H 	0.52430 0.12160 0.68620 0.07500
C 	C 	0.64440 0.14900 0.63980 0.04600
H 	H 	0.62440 0.18800 0.67930 0.01900
C 	C 	0.56130 0.99550 0.59730 0.02100
C 	C 	0.60740 0.90390 0.59080 -0.07000
H 	H 	0.67540 0.87380 0.58150 0.05600
C 	C 	0.55790 0.85330 0.59730 -0.01700
C 	C 	0.45980 0.89700 0.61080 -0.07200
H 	H 	0.42630 0.86310 0.61250 0.05300
C 	C 	0.40720 0.99100 0.62210 0.02100
C 	C 	0.45990 0.03850 0.61470 -0.08900
H 	H 	0.42650 0.10210 0.62150 0.06000
C 	C 	0.61300 0.75180 0.59140 0.15400
C 	C 	0.59980 0.70400 0.54920 -0.14800
H 	H 	0.55440 0.73540 0.52470 0.08000
C 	C 	0.65110 0.61250 0.54250 0.10700
H 	H 	0.64220 0.58030 0.51290 0.01100
C 	C 	0.71710 0.56660 0.57970 -0.31800
C 	C 	0.72950 0.61110 0.62420 0.01400
H 	H 	0.77450 0.57990 0.64910 0.03900
C 	C 	0.67370 0.70340 0.63130 -0.03100
H 	H 	0.67720 0.73480 0.66510 0.04600
C 	C 	0.77070 0.46530 0.57550 0.71300
O 	O 	0.85700 0.43060 0.56950 -0.38000
O 	O 	0.75450 0.42380 0.53970 -0.27600
C 	C 	0.30300 0.03600 0.63430 0.04500
C 	C 	0.24220 0.99060 0.67130 -0.10800
H 	H 	0.26770 0.93210 0.69230 0.06700
C 	C 	0.14700 0.03060 0.67690 0.03800
H 	H 	0.10700 0.99900 0.70050 0.02900
C 	C 	0.10850 0.11630 0.64870 -0.12200
C 	C 	0.16590 0.16200 0.61390 0.04000
H 	H 	0.13980 0.22080 0.59360 0.02700
C 	C 	0.26040 0.12270 0.60880 -0.11400
H 	H 	0.29860 0.15610 0.58690 0.06800
C 	C 	0.00280 0.15950 0.65320 0.36800
C 	C 	0.57980 0.16700 0.84330 0.40900
C 	C 	0.44180 0.29180 0.80850 0.06600
H 	H 	0.48370 0.32070 0.78060 0.02000
C 	C 	0.34610 0.33310 0.81360 -0.13300
H 	H 	0.32310 0.38940 0.78880 0.07600
C 	C 	0.28430 0.29380 0.85400 0.06500
C 	C 	0.31800 0.20980 0.88750 -0.13000
H 	H 	0.27610 0.18030 0.91290 0.07900
C 	C 	0.41470 0.16940 0.88300 0.06100
H 	H 	0.43760 0.11300 0.90790 0.01900
C 	C 	0.47840 0.20970 0.84290 -0.15000
C 	C 	0.17810 0.34290 0.86560 0.02700
C 	C 	0.12610 0.29730 0.86650 -0.09600
H 	H 	0.15860 0.23400 0.85780 0.06600
C 	C 	0.02800 0.34310 0.87970 0.03400
C 	C 	0.98040 0.43510 0.88780 -0.09600
H 	H 	0.91220 0.46510 0.89760 0.06200
C 	C 	0.03090 0.48590 0.88180 0.02700
C 	C 	0.13090 0.43720 0.87180 -0.08900
H 	H 	0.16680 0.46900 0.86920 0.06000
C 	C 	0.98180 0.58360 0.88790 0.05000
C 	C 	0.91730 0.63220 0.85360 -0.10500
H 	H 	0.90430 0.60240 0.82520 0.06700
C 	C 	0.87050 0.72410 0.85960 0.03100
H 	H 	0.82760 0.75730 0.83310 0.03700
C 	C 	0.88370 0.77070 0.90340 -0.10100
C 	C 	0.94890 0.72050 0.93940 0.03700
H 	H 	0.95790 0.74940 0.97150 0.03500
C 	C 	0.00050 0.62910 0.92870 -0.10600
H 	H 	0.04980 0.59600 0.94940 0.06700
C 	C 	0.82400 0.86860 0.91310 0.30300
C 	C 	0.96840 0.29280 0.88660 0.05000
C 	C 	0.00590 0.22230 0.83680 -0.11700
H 	H 	0.06940 0.20470 0.79770 0.07500
C 	C 	0.95030 0.17960 0.84530 0.05100
H 	H 	0.97520 0.13320 0.81040 0.01600
C 	C 	0.85820 0.20080 0.90300 -0.14700
C 	C 	0.82340 0.26810 0.95470 0.05000
H 	H 	0.76230 0.28170 0.99630 0.02400
C 	C 	0.87750 0.31540 0.94570 -0.11400
H 	H 	0.85230 0.36280 0.97970 0.06700
C 	C 	0.79960 0.15180 0.91400 0.34500
C 	C 	0.57460 0.69490 0.64480 -0.16500
H 	H 	0.51600 0.72000 0.68820 0.08500
C 	C 	0.62180 0.60400 0.63390 0.13400
H 	H 	0.59020 0.56650 0.66290 -0.00600
C 	C 	0.76710 0.61780 0.54870 0.17000
H 	H 	0.83630 0.59120 0.52280 -0.01000
C 	C 	0.71410 0.70990 0.55580 -0.19400
H 	H 	0.74860 0.74670 0.53520 0.09300
O 	O 	0.76270 0.41580 0.63230 -0.41200
O 	O 	0.81130 0.42870 0.51240 -0.24600
