data_crystal

_cell_length_a 16.31870
_cell_length_b 17.03650
_cell_length_c 18.94260
_cell_angle_alpha 88.41200
_cell_angle_beta  70.68100
_cell_angle_gamma 62.59200

_symmetry_space_group_name_	'P 1'
_symmetry_space_group_name_H-M	'P 1'

loop_
_symmetry_equiv_pos_as_xyz
  x,y,z

loop_
_atom_site_label
_atom_site_type_symbol
_atom_site_fract_x
_atom_site_fract_y
_atom_site_fract_z
_atom_site_charge
Cd	Cd	0.67246 0.63001 0.44488 1.22500
Cd	Cd	0.76104 0.71682 0.26259 1.20000
Cd	Cd	0.85101 0.80512 0.07699 1.22600
O 	O 	0.77840 0.68220 0.37820 -0.54100
O 	O 	0.69380 0.74190 0.49940 -0.37200
O 	O 	0.59640 0.78030 0.31300 -0.46900
O 	O 	0.57400 0.67780 0.37930 -0.47300
O 	O 	0.71360 0.48650 0.39200 -0.37200
O 	O 	0.78560 0.49850 0.46850 -0.38200
O 	O 	0.74360 0.75120 0.14760 -0.53400
O 	O 	0.83130 0.69240 0.03090 -0.42200
O 	O 	0.84500 0.94210 0.04630 -0.41700
O 	O 	0.71950 0.94250 0.11740 -0.45600
O 	O 	0.92560 0.65850 0.20550 -0.45600
O 	O 	0.93720 0.77500 0.15530 -0.44100
N 	N 	0.54680 0.65410 0.55310 -0.26100
N 	N 	1.00000 0.74450 0.97700 -0.24100
C 	C 	0.51380 0.59520 0.57060 0.10500
H 	H 	0.54500 0.54160 0.53620 -0.01500
C 	C 	0.43650 0.60790 0.63610 -0.18200
H 	H 	0.41550 0.56380 0.64640 0.10100
C 	C 	0.39060 0.68500 0.68590 0.13100
C 	C 	0.42850 0.74370 0.66970 -0.19600
H 	H 	0.40300 0.79620 0.70380 0.09600
C 	C 	0.50430 0.72280 0.60250 0.12800
H 	H 	0.52810 0.76480 0.59110 -0.02200
C 	C 	0.30470 0.70770 0.75760 -0.08000
H 	H 	0.27810 0.76390 0.78710 0.05700
C 	C 	0.26290 0.65980 0.78380 -0.09500
H 	H 	0.29210 0.60180 0.75660 0.06500
C 	C 	0.17360 0.68620 0.85230 0.13700
C 	C 	0.13670 0.63260 0.88020 -0.19500
H 	H 	0.17030 0.57170 0.85800 0.08800
C 	C 	0.04810 0.66550 0.94240 0.12100
H 	H 	0.02250 0.62570 0.95990 -0.01800
C 	C 	0.03610 0.80150 0.95170 0.07300
H 	H 	0.00270 0.86140 0.97630 0.01200
C 	C 	0.12260 0.77080 0.88930 -0.16600
H 	H 	0.14740 0.81110 0.87150 0.08700
C 	C 	0.75950 0.73330 0.43480 0.31900
C 	C 	0.81390 0.78440 0.42950 -0.12700
C 	C 	0.90560 0.75470 0.37030 0.02200
H 	H 	0.93070 0.70410 0.33410 0.02400
C 	C 	0.95930 0.79980 0.36500 -0.10100
H 	H 	0.02380 0.77650 0.32790 0.06800
C 	C 	0.92080 0.87730 0.41250 0.03800
C 	C 	0.82740 0.90890 0.47040 -0.10900
H 	H 	0.80000 0.96240 0.50390 0.06700
C 	C 	0.77560 0.86130 0.47820 0.03800
H 	H 	0.71310 0.88220 0.51760 0.02600
C 	C 	0.97780 0.92650 0.40610 0.03600
C 	C 	0.07850 0.88230 0.39140 -0.09800
H 	H 	0.11240 0.81890 0.38480 0.06500
C 	C 	0.13120 0.92870 0.38590 0.03300
C 	C 	0.08090 0.02180 0.39220 -0.09300
H 	H 	0.11610 0.05410 0.38930 0.06100
C 	C 	0.98020 0.06900 0.40280 0.03400
C 	C 	0.92870 0.01990 0.41130 -0.09700
H 	H 	0.85970 0.05050 0.42070 0.06300
C 	C 	0.23780 0.88180 0.37580 0.04700
C 	C 	0.27390 0.80880 0.41210 -0.11300
H 	H 	0.23010 0.78930 0.44350 0.07200
C 	C 	0.37360 0.76350 0.40320 0.04200
H 	H 	0.39830 0.71220 0.42690 0.02500
C 	C 	0.43710 0.79500 0.35850 -0.13400
C 	C 	0.40090 0.86840 0.32450 0.04800
H 	H 	0.44380 0.88970 0.29490 0.02600
C 	C 	0.30130 0.91240 0.33290 -0.11400
H 	H 	0.27680 0.96370 0.30900 0.06800
C 	C 	0.54520 0.74660 0.34970 0.39500
C 	C 	0.92800 0.16630 0.40900 0.03900
C 	C 	0.95420 0.21990 0.44140 -0.10000
H 	H 	0.00890 0.19210 0.45770 0.06700
C 	C 	0.90350 0.31120 0.45010 0.02500
H 	H 	0.91940 0.34600 0.47620 0.03800
C 	C 	0.82790 0.35350 0.42060 -0.09600
C 	C 	0.80310 0.29970 0.38820 0.02400
H 	H 	0.75060 0.32670 0.36940 0.03600
C 	C 	0.85290 0.20760 0.38260 -0.09900
H 	H 	0.83420 0.17260 0.35990 0.06400
C 	C 	0.77170 0.45100 0.42990 0.29400
C 	C 	0.76790 0.69920 0.08990 0.37300
C 	C 	0.71010 0.64960 0.09490 -0.15700
C 	C 	0.74780 0.57700 0.04110 0.05600
H 	H 	0.80930 0.55870 0.00100 0.02100
C 	C 	0.69480 0.53030 0.04580 -0.12500
H 	H 	0.72360 0.47760 0.01100 0.07600
C 	C 	0.60360 0.55870 0.09900 0.05500
C 	C 	0.56550 0.63360 0.15260 -0.12500
H 	H 	0.50270 0.65360 0.19160 0.07400
C 	C 	0.61740 0.67700 0.14900 0.05300
H 	H 	0.58920 0.72850 0.18510 0.01600
C 	C 	0.54790 0.50840 0.10050 0.03500
C 	C 	0.59570 0.41680 0.09020 -0.09800
H 	H 	0.66500 0.38570 0.07920 0.06400
C 	C 	0.54610 0.36790 0.09530 0.03300
C 	C 	0.44710 0.41420 0.10740 -0.09700
H 	H 	0.41270 0.38130 0.10970 0.06300
C 	C 	0.39480 0.50640 0.11620 0.03600
C 	C 	0.44800 0.55360 0.11310 -0.09500
H 	H 	0.41450 0.61710 0.11990 0.06400
C 	C 	0.59890 0.26870 0.09220 0.05600
C 	C 	0.69730 0.21810 0.04640 -0.12000
H 	H 	0.73060 0.24590 0.01360 0.06800
C 	C 	0.74820 0.12540 0.04800 0.05900
H 	H 	0.81730 0.09240 0.02070 0.02400
C 	C 	0.69970 0.08360 0.08800 -0.15300
C 	C 	0.60280 0.13300 0.13370 0.06900
H 	H 	0.56810 0.10430 0.16300 0.01800
C 	C 	0.55650 0.22310 0.13710 -0.12900
H 	H 	0.49100 0.25640 0.17250 0.07300
C 	C 	0.75630 0.98240 0.08260 0.42400
C 	C 	0.28680 0.55670 0.13150 0.03900
C 	C 	0.22610 0.51830 0.16290 -0.10600
H 	H 	0.25430 0.45970 0.17550 0.06500
C 	C 	0.12810 0.56270 0.17580 0.04000
H 	H 	0.08860 0.53490 0.19750 0.02800
C 	C 	0.08460 0.64810 0.15790 -0.11800
C 	C 	0.14220 0.68760 0.12540 0.03500
H 	H 	0.11340 0.74540 0.11140 0.02600
C 	C 	0.24100 0.64340 0.11340 -0.10600
H 	H 	0.27980 0.67180 0.09210 0.06300
C 	C 	0.97400 0.69710 0.17320 0.35000
Cd	Cd	0.32754 0.36999 0.55512 1.22600
Cd	Cd	0.23896 0.28318 0.73741 1.20100
Cd	Cd	0.14899 0.19488 0.92301 1.22700
O 	O 	0.22160 0.31780 0.62180 -0.54000
O 	O 	0.30620 0.25810 0.50060 -0.37100
O 	O 	0.40360 0.21970 0.68700 -0.46800
O 	O 	0.42600 0.32220 0.62070 -0.47200
O 	O 	0.28640 0.51350 0.60800 -0.37100
O 	O 	0.21440 0.50150 0.53150 -0.38200
O 	O 	0.25640 0.24880 0.85240 -0.53400
O 	O 	0.16870 0.30760 0.96910 -0.42200
O 	O 	0.15500 0.05790 0.95370 -0.41700
O 	O 	0.28050 0.05750 0.88260 -0.45600
O 	O 	0.07440 0.34150 0.79450 -0.45600
O 	O 	0.06280 0.22500 0.84470 -0.44100
N 	N 	0.45320 0.34590 0.44690 -0.26100
N 	N 	0.00000 0.25550 0.02300 -0.24100
C 	C 	0.48620 0.40480 0.42940 0.10500
H 	H 	0.45500 0.45840 0.46380 -0.01500
C 	C 	0.56350 0.39210 0.36390 -0.18200
H 	H 	0.58450 0.43620 0.35360 0.10100
C 	C 	0.60940 0.31500 0.31410 0.13100
C 	C 	0.57150 0.25630 0.33030 -0.19600
H 	H 	0.59700 0.20380 0.29620 0.09600
C 	C 	0.49570 0.27720 0.39750 0.12800
H 	H 	0.47190 0.23520 0.40890 -0.02200
C 	C 	0.69530 0.29230 0.24240 -0.08000
H 	H 	0.72190 0.23610 0.21290 0.05700
C 	C 	0.73710 0.34020 0.21620 -0.09500
H 	H 	0.70790 0.39820 0.24340 0.06500
C 	C 	0.82640 0.31380 0.14770 0.13700
C 	C 	0.86330 0.36740 0.11980 -0.19500
H 	H 	0.82970 0.42830 0.14200 0.08800
C 	C 	0.95190 0.33450 0.05760 0.12100
H 	H 	0.97750 0.37430 0.04010 -0.01800
C 	C 	0.96390 0.19850 0.04830 0.07300
H 	H 	0.99730 0.13860 0.02370 0.01200
C 	C 	0.87740 0.22920 0.11070 -0.16600
H 	H 	0.85260 0.18890 0.12850 0.08700
C 	C 	0.24050 0.26670 0.56520 0.31900
C 	C 	0.18610 0.21560 0.57050 -0.12700
C 	C 	0.09440 0.24530 0.62970 0.02200
H 	H 	0.06930 0.29590 0.66590 0.02400
C 	C 	0.04070 0.20020 0.63500 -0.10100
H 	H 	0.97620 0.22350 0.67210 0.06800
C 	C 	0.07920 0.12270 0.58750 0.03800
C 	C 	0.17260 0.09110 0.52960 -0.10900
H 	H 	0.20000 0.03760 0.49610 0.06700
C 	C 	0.22440 0.13870 0.52180 0.03800
H 	H 	0.28690 0.11780 0.48240 0.02600
C 	C 	0.02220 0.07350 0.59390 0.03600
C 	C 	0.92150 0.11770 0.60860 -0.09800
H 	H 	0.88760 0.18110 0.61520 0.06500
C 	C 	0.86880 0.07130 0.61410 0.03300
C 	C 	0.91910 0.97820 0.60780 -0.09300
H 	H 	0.88390 0.94590 0.61070 0.06100
C 	C 	0.01980 0.93100 0.59720 0.03400
C 	C 	0.07130 0.98010 0.58870 -0.09700
H 	H 	0.14030 0.94950 0.57930 0.06300
C 	C 	0.76220 0.11820 0.62420 0.04700
C 	C 	0.72610 0.19120 0.58790 -0.11300
H 	H 	0.76990 0.21070 0.55650 0.07200
C 	C 	0.62640 0.23650 0.59680 0.04200
H 	H 	0.60170 0.28780 0.57310 0.02500
C 	C 	0.56290 0.20500 0.64150 -0.13400
C 	C 	0.59910 0.13160 0.67550 0.04800
H 	H 	0.55620 0.11030 0.70510 0.02600
C 	C 	0.69870 0.08760 0.66710 -0.11400
H 	H 	0.72320 0.03630 0.69100 0.06800
C 	C 	0.45480 0.25340 0.65030 0.39500
C 	C 	0.07200 0.83370 0.59100 0.03900
C 	C 	0.04580 0.78010 0.55860 -0.10000
H 	H 	0.99110 0.80790 0.54230 0.06700
C 	C 	0.09650 0.68880 0.54990 0.02500
H 	H 	0.08060 0.65400 0.52380 0.03800
C 	C 	0.17210 0.64650 0.57940 -0.09600
C 	C 	0.19690 0.70030 0.61180 0.02400
H 	H 	0.24940 0.67330 0.63060 0.03600
C 	C 	0.14710 0.79240 0.61740 -0.09900
H 	H 	0.16580 0.82740 0.64010 0.06400
C 	C 	0.22830 0.54900 0.57010 0.29400
C 	C 	0.23210 0.30080 0.91010 0.37300
C 	C 	0.28990 0.35040 0.90510 -0.15700
C 	C 	0.25220 0.42300 0.95890 0.05600
H 	H 	0.19070 0.44130 0.99900 0.02100
C 	C 	0.30520 0.46970 0.95420 -0.12500
H 	H 	0.27640 0.52240 0.98900 0.07600
C 	C 	0.39640 0.44130 0.90100 0.05500
C 	C 	0.43450 0.36640 0.84740 -0.12500
H 	H 	0.49730 0.34640 0.80840 0.07400
C 	C 	0.38260 0.32300 0.85100 0.05300
H 	H 	0.41080 0.27150 0.81490 0.01600
C 	C 	0.45210 0.49160 0.89950 0.03500
C 	C 	0.40430 0.58320 0.90980 -0.09800
H 	H 	0.33500 0.61430 0.92080 0.06400
C 	C 	0.45390 0.63210 0.90470 0.03300
C 	C 	0.55290 0.58580 0.89260 -0.09700
H 	H 	0.58730 0.61870 0.89030 0.06300
C 	C 	0.60520 0.49360 0.88380 0.03600
C 	C 	0.55200 0.44640 0.88690 -0.09500
H 	H 	0.58550 0.38290 0.88010 0.06400
C 	C 	0.40110 0.73130 0.90780 0.05600
C 	C 	0.30270 0.78190 0.95360 -0.12000
H 	H 	0.26940 0.75410 0.98640 0.06800
C 	C 	0.25180 0.87460 0.95200 0.05900
H 	H 	0.18270 0.90760 0.97930 0.02400
C 	C 	0.30030 0.91640 0.91200 -0.15300
C 	C 	0.39720 0.86700 0.86630 0.06900
H 	H 	0.43190 0.89570 0.83700 0.01800
C 	C 	0.44350 0.77690 0.86290 -0.12900
H 	H 	0.50900 0.74360 0.82750 0.07300
C 	C 	0.24370 0.01760 0.91740 0.42400
C 	C 	0.71320 0.44330 0.86850 0.03900
C 	C 	0.77390 0.48170 0.83710 -0.10600
H 	H 	0.74570 0.54030 0.82450 0.06500
C 	C 	0.87190 0.43730 0.82420 0.04000
H 	H 	0.91140 0.46510 0.80250 0.02800
C 	C 	0.91540 0.35190 0.84210 -0.11800
C 	C 	0.85780 0.31240 0.87460 0.03500
H 	H 	0.88660 0.25460 0.88860 0.02600
C 	C 	0.75900 0.35660 0.88660 -0.10600
H 	H 	0.72020 0.32820 0.90790 0.06300
C 	C 	0.02600 0.30290 0.82680 0.35000
