data_crystal

_cell_length_a 8.07690
_cell_length_b 10.87230
_cell_length_c 12.90900
_cell_angle_alpha 101.51100
_cell_angle_beta  96.39900
_cell_angle_gamma 109.81700

_symmetry_space_group_name_	'P 1'
_symmetry_space_group_name_H-M	'P 1'

loop_
_symmetry_equiv_pos_as_xyz
  x,y,z

loop_
_atom_site_label
_atom_site_type_symbol
_atom_site_fract_x
_atom_site_fract_y
_atom_site_fract_z
_atom_site_charge
Zn	Zn	0.51291 0.64882 0.49816 1.23200
Zn	Zn	0.10138 0.36887 0.47758 1.23300
O 	O 	0.32900 0.45190 0.43680 -0.86000
H 	H 	0.31100 0.41900 0.37000 0.29900
Cl	Cl	0.43630 0.90550 0.01390 -0.73200
N 	N 	0.64090 0.98920 0.41110 -0.24300
H 	H 	0.74400 0.04700 0.39900 0.11900
H 	H 	0.68200 0.96400 0.46900 0.11900
N 	N 	0.36230 0.75540 0.42800 -0.32500
H 	H 	0.24200 0.71900 0.42200 0.11500
H 	H 	0.39600 0.82200 0.49000 0.11000
C 	C 	0.52000 0.89970 0.31880 0.01800
C 	C 	0.37890 0.78600 0.32660 0.05200
C 	C 	0.25640 0.69950 0.23410 -0.02600
H 	H 	0.16290 0.62090 0.23950 0.05500
C 	C 	0.26990 0.72710 0.13470 -0.11800
H 	H 	0.18540 0.66830 0.07210 0.43800
C 	C 	0.40630 0.84020 0.12690 -0.27600
C 	C 	0.53310 0.92670 0.21830 0.07500
H 	H 	0.62800 0.00370 0.21170 0.04300
O 	O 	0.01710 0.17380 0.39410 -0.55200
O 	O 	0.28780 0.16080 0.42710 -0.53600
C 	C 	0.12610 0.11170 0.38290 0.62300
C 	C 	0.05240 0.96830 0.31750 -0.94200
H 	H 	0.07300 0.96520 0.24380 0.32300
H 	H 	0.92330 0.92900 0.31610 0.29900
H 	H 	0.11270 0.91660 0.34980 0.31100
O 	O 	0.86780 0.38560 0.44060 -0.62200
O 	O 	0.58810 0.32300 0.35580 -0.51300
C 	C 	0.74860 0.33990 0.35380 0.67200
C 	C 	0.80670 0.31040 0.24820 -1.10600
H 	H 	0.70410 0.28290 0.18900 0.41000
H 	H 	0.85260 0.23730 0.24510 0.36800
H 	H 	0.90140 0.39170 0.24160 0.36100
O 	O 	0.10700 0.36170 0.62950 -0.57200
O 	O 	0.38830 0.37020 0.64540 -0.56400
C 	C 	0.25200 0.36650 0.68210 0.68000
C 	C 	0.26000 0.37030 0.79930 -1.06100
H 	H 	0.35500 0.34010 0.82450 0.36100
H 	H 	0.14450 0.31040 0.80940 0.35800
H 	H 	0.28580 0.46290 0.84060 0.37100
Cl	Cl	0.10900 0.59490 0.02200 -0.60400
H 	H 	0.41450 0.85980 0.05880 0.60600
Zn	Zn	0.48709 0.35118 0.50184 1.23300
Zn	Zn	0.89862 0.63113 0.52242 1.23400
O 	O 	0.67100 0.54810 0.56320 -0.86000
H 	H 	0.68900 0.58100 0.63000 0.29900
Cl	Cl	0.56370 0.09450 0.98610 -0.73200
N 	N 	0.35910 0.01080 0.58890 -0.24300
H 	H 	0.25600 0.95300 0.60100 0.11900
H 	H 	0.31800 0.03600 0.53100 0.11900
N 	N 	0.63770 0.24460 0.57200 -0.32500
H 	H 	0.75800 0.28100 0.57800 0.11500
H 	H 	0.60400 0.17800 0.51000 0.11000
C 	C 	0.48000 0.10030 0.68120 0.01800
C 	C 	0.62110 0.21400 0.67340 0.05200
C 	C 	0.74360 0.30050 0.76590 -0.02600
H 	H 	0.83710 0.37910 0.76050 0.05500
C 	C 	0.73010 0.27290 0.86530 -0.11800
H 	H 	0.81460 0.33170 0.92790 0.43800
C 	C 	0.59370 0.15980 0.87310 -0.27600
C 	C 	0.46690 0.07330 0.78170 0.07500
H 	H 	0.37200 0.99630 0.78830 0.04300
O 	O 	0.98290 0.82620 0.60590 -0.55200
O 	O 	0.71220 0.83920 0.57290 -0.53600
C 	C 	0.87390 0.88830 0.61710 0.62300
C 	C 	0.94760 0.03170 0.68250 -0.94200
H 	H 	0.92700 0.03480 0.75620 0.32300
H 	H 	0.07670 0.07100 0.68390 0.29900
H 	H 	0.88730 0.08340 0.65020 0.31100
O 	O 	0.13220 0.61440 0.55940 -0.62200
O 	O 	0.41190 0.67700 0.64420 -0.51300
C 	C 	0.25140 0.66010 0.64620 0.67200
C 	C 	0.19330 0.68960 0.75180 -1.10600
H 	H 	0.29590 0.71710 0.81100 0.41000
H 	H 	0.14740 0.76270 0.75490 0.36800
H 	H 	0.09860 0.60830 0.75840 0.36100
O 	O 	0.89300 0.63830 0.37050 -0.57200
O 	O 	0.61170 0.62980 0.35460 -0.56400
C 	C 	0.74800 0.63350 0.31790 0.68000
C 	C 	0.74000 0.62970 0.20070 -1.06100
H 	H 	0.64500 0.65990 0.17550 0.36100
H 	H 	0.85550 0.68960 0.19060 0.35800
H 	H 	0.71420 0.53710 0.15940 0.37100
Cl	Cl	0.89100 0.40510 0.97800 -0.60400
H 	H 	0.58550 0.14020 0.94120 0.60600
