data_crystal

_cell_length_a 7.33320
_cell_length_b 7.70880
_cell_length_c 12.07000
_cell_angle_alpha 90.00000
_cell_angle_beta  91.42000
_cell_angle_gamma 90.00000

_symmetry_space_group_name_	'P 1'
_symmetry_space_group_name_H-M	'P 1'

loop_
_symmetry_equiv_pos_as_xyz
  x,y,z

loop_
_atom_site_label
_atom_site_type_symbol
_atom_site_fract_x
_atom_site_fract_y
_atom_site_fract_z
_atom_site_charge
Mg	Mg	0.00000 0.50000 0.50000 1.45500
Mg	Mg	0.50000 0.00000 0.50000 1.45300
H 	H 	0.44100 0.60740 0.70490 0.09200
H 	H 	0.53960 0.78290 0.73510 0.11300
H 	H 	0.34440 0.68480 0.87930 0.07600
H 	H 	0.77940 0.39070 0.95280 0.08000
H 	H 	0.05900 0.10740 0.29510 -0.05300
H 	H 	0.96040 0.28290 0.26490 0.06600
H 	H 	0.15560 0.18480 0.12070 0.07100
H 	H 	0.72060 0.89070 0.04720 0.06100
H 	H 	0.55900 0.39260 0.29510 0.11300
H 	H 	0.46040 0.21710 0.26490 0.08500
H 	H 	0.65560 0.31520 0.12070 0.07400
H 	H 	0.22060 0.60930 0.04720 0.06200
H 	H 	0.94100 0.89260 0.70490 0.25400
H 	H 	0.03960 0.71710 0.73510 0.12900
H 	H 	0.84440 0.81520 0.87930 0.07900
H 	H 	0.27940 0.10930 0.95280 0.08200
C 	C 	0.66440 0.65260 0.60810 0.46200
C 	C 	0.55910 0.66260 0.71510 -0.25200
C 	C 	0.57430 0.54240 0.89900 0.12800
C 	C 	0.40700 0.61020 0.92740 -0.10000
C 	C 	0.66620 0.43460 0.97160 -0.09100
C 	C 	0.83560 0.15260 0.39190 0.41200
C 	C 	0.94090 0.16260 0.28490 -0.02000
C 	C 	0.92570 0.04240 0.10100 0.09800
C 	C 	0.09300 0.11020 0.07260 -0.16400
C 	C 	0.83380 0.93460 0.02840 0.06200
C 	C 	0.33560 0.34740 0.39190 0.47800
C 	C 	0.44090 0.33740 0.28490 -0.26000
C 	C 	0.42570 0.45760 0.10100 0.12700
C 	C 	0.59300 0.38980 0.07260 -0.09800
C 	C 	0.33380 0.56540 0.02840 -0.08400
C 	C 	0.16440 0.84740 0.60810 0.52600
C 	C 	0.05910 0.83740 0.71510 -0.48200
C 	C 	0.07430 0.95760 0.89900 0.16600
C 	C 	0.90700 0.88980 0.92740 -0.03700
C 	C 	0.16620 0.06540 0.97160 -0.24400
O 	O 	0.78930 0.54360 0.60280 -0.50300
O 	O 	0.61620 0.75370 0.53087 -0.49200
O 	O 	0.66040 0.57750 0.80032 -0.15900
O 	O 	0.71070 0.04360 0.39720 -0.55800
O 	O 	0.88380 0.25370 0.46913 -0.50600
O 	O 	0.83960 0.07750 0.19968 -0.21500
O 	O 	0.21070 0.45640 0.39720 -0.55600
O 	O 	0.38380 0.24630 0.46913 -0.58400
O 	O 	0.33960 0.42250 0.19968 -0.16600
O 	O 	0.28930 0.95640 0.60280 -0.49900
O 	O 	0.11620 0.74630 0.53087 -0.56800
O 	O 	0.16040 0.92250 0.80032 -0.11300
