data_crystal

_cell_length_a 7.76700
_cell_length_b 16.24400
_cell_length_c 15.30430
_cell_angle_alpha 90.00000
_cell_angle_beta  90.00000
_cell_angle_gamma 90.00000

_symmetry_space_group_name_	'P 1'
_symmetry_space_group_name_H-M	'P 1'

loop_
_symmetry_equiv_pos_as_xyz
  x,y,z

loop_
_atom_site_label
_atom_site_type_symbol
_atom_site_fract_x
_atom_site_fract_y
_atom_site_fract_z
_atom_site_charge
Cd	Cd	0.49298 0.37922 0.75983 1.15800
Cd	Cd	0.50702 0.62078 0.25983 1.16100
Cd	Cd	0.00702 0.87922 0.75983 1.15500
Cd	Cd	0.99298 0.12078 0.25983 1.16000
Hg	Hg	0.95951 0.57107 0.56483 -0.02600
Hg	Hg	0.04049 0.42893 0.06483 -0.02200
Hg	Hg	0.54049 0.07107 0.56483 -0.02900
Hg	Hg	0.45951 0.92893 0.06483 -0.02200
C 	C 	0.33000 0.49790 0.59580 0.10200
C 	C 	0.85100 0.75520 0.59530 0.09400
C 	C 	0.70100 0.50690 0.42150 0.10100
C 	C 	0.84460 0.50300 0.75310 0.08600
C 	C 	0.67000 0.50210 0.09580 0.10200
C 	C 	0.14900 0.24480 0.09530 0.09300
C 	C 	0.29900 0.49310 0.92150 0.04300
C 	C 	0.15540 0.49700 0.25310 0.09100
C 	C 	0.17000 0.99790 0.59580 0.10200
C 	C 	0.64900 0.25520 0.59530 0.09300
C 	C 	0.79900 0.00690 0.42150 0.09500
C 	C 	0.65540 0.00300 0.75310 0.08100
C 	C 	0.83000 0.00210 0.09580 0.09500
C 	C 	0.35100 0.74480 0.09530 0.09300
C 	C 	0.20100 0.99310 0.92150 0.04500
C 	C 	0.34460 0.99700 0.25310 0.09200
S 	S 	0.26560 0.55330 0.51190 -0.11100
S 	S 	0.77020 0.45350 0.50560 -0.09100
S 	S 	0.98640 0.57400 0.72960 -0.11600
S 	S 	0.79520 0.69580 0.51270 -0.11300
S 	S 	0.73440 0.44670 0.01190 -0.08900
S 	S 	0.22980 0.54650 0.00560 -0.04400
S 	S 	0.01360 0.42600 0.22960 -0.10600
S 	S 	0.20480 0.30420 0.01270 -0.09100
S 	S 	0.23440 0.05330 0.51190 -0.10900
S 	S 	0.72980 0.95350 0.50560 -0.08400
S 	S 	0.51360 0.07400 0.72960 -0.11800
S 	S 	0.70480 0.19580 0.51270 -0.11400
S 	S 	0.76560 0.94670 0.01190 -0.08200
S 	S 	0.27020 0.04650 0.00560 -0.04500
S 	S 	0.48640 0.92600 0.22960 -0.10600
S 	S 	0.29520 0.80420 0.01270 -0.09200
N 	N 	0.37700 0.46220 0.65510 -0.27800
N 	N 	0.88020 0.79560 0.65430 -0.27900
N 	N 	0.65200 0.54690 0.36650 -0.27900
N 	N 	0.74200 0.45380 0.76720 -0.28000
N 	N 	0.62300 0.53780 0.15510 -0.27500
N 	N 	0.11980 0.20440 0.15430 -0.27600
N 	N 	0.34800 0.45310 0.86650 -0.27500
N 	N 	0.25800 0.54620 0.26720 -0.27400
N 	N 	0.12300 0.96220 0.65510 -0.27900
N 	N 	0.61980 0.29560 0.65430 -0.28100
N 	N 	0.84800 0.04690 0.36650 -0.27800
N 	N 	0.75800 0.95380 0.76720 -0.27600
N 	N 	0.87700 0.03780 0.15510 -0.27500
N 	N 	0.38020 0.70440 0.15430 -0.27700
N 	N 	0.15200 0.95310 0.86650 -0.27600
N 	N 	0.24200 0.04620 0.26720 -0.27400
