data_crystal

_cell_length_a 6.88000
_cell_length_b 14.36000
_cell_length_c 15.80000
_cell_angle_alpha 90.00000
_cell_angle_beta  101.69000
_cell_angle_gamma 90.00000

_symmetry_space_group_name_	'P 1'
_symmetry_space_group_name_H-M	'P 1'

loop_
_symmetry_equiv_pos_as_xyz
  x,y,z

loop_
_atom_site_label
_atom_site_type_symbol
_atom_site_fract_x
_atom_site_fract_y
_atom_site_fract_z
_atom_site_charge
Sr	Sr	0.76629 0.91528 0.54858 1.51600
Sr	Sr	0.23371 0.41528 0.95142 1.51600
Sr	Sr	0.23371 0.08472 0.45142 1.51600
Sr	Sr	0.76629 0.58472 0.04858 1.51600
Co	Co	0.77507 0.73730 0.79696 1.15600
Co	Co	0.22493 0.23730 0.70304 1.15600
Co	Co	0.22493 0.26270 0.20304 1.15600
Co	Co	0.77507 0.76270 0.29696 1.15600
H 	H 	0.16450 0.93680 0.84740 0.24200
H 	H 	0.29230 0.88410 0.79250 0.24600
H 	H 	0.30980 0.54100 0.76660 0.24500
H 	H 	0.51050 0.53800 0.73520 0.22800
H 	H 	0.83550 0.43680 0.65260 0.24000
H 	H 	0.70770 0.38410 0.70750 0.24600
H 	H 	0.69020 0.04100 0.73340 0.24600
H 	H 	0.48950 0.03800 0.76480 0.22700
H 	H 	0.83550 0.06320 0.15260 0.24200
H 	H 	0.70770 0.11590 0.20750 0.24600
H 	H 	0.69020 0.45900 0.23340 0.24500
H 	H 	0.48950 0.46200 0.26480 0.22800
H 	H 	0.16450 0.56320 0.34740 0.24000
H 	H 	0.29230 0.61590 0.29250 0.24600
H 	H 	0.30980 0.95900 0.26660 0.24600
H 	H 	0.51050 0.96200 0.23520 0.22700
C 	C 	0.00560 0.89140 0.73460 0.55200
C 	C 	0.16900 0.88110 0.81320 -0.75200
C 	C 	0.19090 0.80150 0.87520 0.55100
C 	C 	0.37460 0.66390 0.71510 0.53400
C 	C 	0.43090 0.57540 0.76630 -0.75100
C 	C 	0.54320 0.58350 0.85920 0.58000
C 	C 	0.99440 0.39140 0.76540 0.54900
C 	C 	0.83100 0.38110 0.68680 -0.75000
C 	C 	0.80910 0.30150 0.62480 0.55000
C 	C 	0.62540 0.16390 0.78490 0.53400
C 	C 	0.56910 0.07540 0.73370 -0.75000
C 	C 	0.45680 0.08350 0.64080 0.58000
C 	C 	0.99440 0.10860 0.26540 0.55200
C 	C 	0.83100 0.11890 0.18680 -0.75200
C 	C 	0.80910 0.19850 0.12480 0.55100
C 	C 	0.62540 0.33610 0.28490 0.53400
C 	C 	0.56910 0.42460 0.23370 -0.75100
C 	C 	0.45680 0.41650 0.14080 0.58000
C 	C 	0.00560 0.60860 0.23460 0.54900
C 	C 	0.16900 0.61890 0.31320 -0.75000
C 	C 	0.19090 0.69850 0.37520 0.55000
C 	C 	0.37460 0.83610 0.21510 0.53400
C 	C 	0.43090 0.92460 0.26630 -0.75000
C 	C 	0.54320 0.91650 0.35920 0.58000
O 	O 	0.88620 0.08440 0.51230 -0.37600
O 	O 	0.86320 0.83590 0.71700 -0.59900
O 	O 	0.02220 0.95940 0.68720 -0.48500
O 	O 	0.05170 0.74420 0.87460 -0.48200
O 	O 	0.35070 0.79840 0.92790 -0.36700
O 	O 	0.49530 0.73070 0.72160 -0.50200
O 	O 	0.20890 0.66620 0.66590 -0.35300
O 	O 	0.68520 0.63930 0.87910 -0.59300
O 	O 	0.49110 0.53020 0.91270 -0.58700
O 	O 	0.11380 0.58440 0.98770 -0.37800
O 	O 	0.13680 0.33590 0.78300 -0.59700
O 	O 	0.97780 0.45940 0.81280 -0.48700
O 	O 	0.94830 0.24420 0.62540 -0.48200
O 	O 	0.64930 0.29840 0.57210 -0.36700
O 	O 	0.50470 0.23070 0.77840 -0.50200
O 	O 	0.79110 0.16620 0.83410 -0.35200
O 	O 	0.31480 0.13930 0.62090 -0.59400
O 	O 	0.50890 0.03020 0.58730 -0.58800
O 	O 	0.11380 0.91560 0.48770 -0.37600
O 	O 	0.13680 0.16410 0.28300 -0.59900
O 	O 	0.97780 0.04060 0.31280 -0.48500
O 	O 	0.94830 0.25580 0.12540 -0.48200
O 	O 	0.64930 0.20160 0.07210 -0.36700
O 	O 	0.50470 0.26930 0.27840 -0.50200
O 	O 	0.79110 0.33380 0.33410 -0.35300
O 	O 	0.31480 0.36070 0.12090 -0.59300
O 	O 	0.50890 0.46980 0.08730 -0.58700
O 	O 	0.88620 0.41560 0.01230 -0.37800
O 	O 	0.86320 0.66410 0.21700 -0.59700
O 	O 	0.02220 0.54060 0.18720 -0.48700
O 	O 	0.05170 0.75580 0.37460 -0.48200
O 	O 	0.35070 0.70160 0.42790 -0.36700
O 	O 	0.49530 0.76930 0.22160 -0.50200
O 	O 	0.20890 0.83380 0.16590 -0.35200
O 	O 	0.68520 0.86070 0.37910 -0.59400
O 	O 	0.49110 0.96980 0.41270 -0.58800
