data_crystal

_cell_length_a 10.12500
_cell_length_b 10.76640
_cell_length_c 13.29280
_cell_angle_alpha 86.52100
_cell_angle_beta  73.15100
_cell_angle_gamma 85.31700

_symmetry_space_group_name_	'P 1'
_symmetry_space_group_name_H-M	'P 1'

loop_
_symmetry_equiv_pos_as_xyz
  x,y,z

loop_
_atom_site_label
_atom_site_type_symbol
_atom_site_fract_x
_atom_site_fract_y
_atom_site_fract_z
_atom_site_charge
Mn	Mn	0.86159 0.59120 0.30786 1.26000
C 	C 	0.12050 0.25010 0.07230 0.38900
C 	C 	0.19990 0.22600 0.15220 -0.17000
C 	C 	0.25380 0.32190 0.19080 0.06400
H 	H 	0.23490 0.40460 0.17220 0.00500
C 	C 	0.33570 0.29220 0.25680 -0.12800
H 	H 	0.37180 0.35610 0.28240 0.07600
C 	C 	0.36530 0.17050 0.28570 0.03100
H 	H 	0.42280 0.15270 0.32880 0.00700
C 	C 	0.30890 0.07450 0.25010 -0.11700
C 	C 	0.22540 0.10430 0.18430 0.05800
H 	H 	0.18580 0.04070 0.16120 -0.03400
C 	C 	0.33390 0.94020 0.27770 0.10800
C 	C 	0.46220 0.88690 0.28240 -0.09400
H 	H 	0.53600 0.93690 0.27260 0.08600
C 	C 	0.48010 0.75820 0.30210 -0.04100
C 	C 	0.62050 0.69980 0.29970 0.29100
C 	C 	0.37010 0.68290 0.31900 -0.02200
H 	H 	0.38240 0.59760 0.33250 0.05200
C 	C 	0.24150 0.73600 0.31570 -0.04700
C 	C 	0.11990 0.65760 0.32990 0.30600
C 	C 	0.22530 0.86190 0.29400 -0.08300
H 	H 	0.13950 0.89600 0.29000 0.07100
C 	C 	0.82780 0.30470 0.26860 0.00700
H 	H 	0.78560 0.32680 0.21600 0.02100
C 	C 	0.85180 0.18850 0.30200 0.01300
H 	H 	0.83080 0.11580 0.27720 0.00800
C 	C 	0.92680 0.31790 0.38920 0.11500
H 	H 	0.96740 0.34910 0.43600 0.00300
C 	C 	0.57440 0.15490 0.03380 0.04500
H 	H 	0.48090 0.14510 0.04420 0.00600
C 	C 	0.67260 0.06440 0.03800 -0.12300
H 	H 	0.65710 0.98050 0.05280 0.08300
C 	C 	0.77440 0.23460 0.00120 0.00900
H 	H 	0.84180 0.29220 0.98520 0.06900
C 	C 	0.57150 0.38600 0.00360 -0.03000
C 	C 	0.47120 0.39870 0.95110 0.06800
H 	H 	0.45190 0.33100 0.91880 0.02900
C 	C 	0.60090 0.48500 0.05270 0.02700
H 	H 	0.66810 0.47480 0.08820 0.02400
C 	C 	0.95870 0.09600 0.44110 0.14300
C 	C 	0.89380 0.98490 0.45640 -0.08500
H 	H 	0.82270 0.97550 0.42680 0.08100
C 	C 	0.06450 0.11152 0.48419 -0.17600
H 	H 	0.10740 0.18630 0.47330 0.06700
N 	N 	0.87443 0.38720 0.32318 -0.24600
N 	N 	0.91399 0.19707 0.38036 -0.14400
N 	N 	0.79952 0.11385 0.01711 -0.21300
N 	N 	0.63930 0.26439 0.01111 -0.11600
O 	O 	0.09533 0.36148 0.04575 -0.34000
O 	O 	0.08750 0.15768 0.03482 -0.52500
O 	O 	0.72158 0.76600 0.28249 -0.38400
O 	O 	0.63660 0.58449 0.31350 -0.40600
O 	O 	0.11590 0.55269 0.37449 -0.35400
O 	O 	0.02340 0.70710 0.29301 -0.48100
Mn	Mn	0.13841 0.40880 0.69214 1.22900
C 	C 	0.87950 0.74990 0.92770 0.34500
C 	C 	0.80010 0.77400 0.84780 -0.03700
C 	C 	0.74620 0.67810 0.80920 -0.04500
H 	H 	0.76510 0.59540 0.82780 0.06400
C 	C 	0.66430 0.70780 0.74320 0.01500
H 	H 	0.62820 0.64390 0.71760 0.03200
C 	C 	0.63470 0.82950 0.71430 -0.12400
H 	H 	0.57720 0.84730 0.67120 0.08200
C 	C 	0.69110 0.92550 0.74990 0.10900
C 	C 	0.77460 0.89570 0.81570 -0.08100
H 	H 	0.81420 0.95930 0.83880 0.07600
C 	C 	0.66610 0.05980 0.72230 -0.08200
C 	C 	0.53780 0.11310 0.71760 0.01400
H 	H 	0.46400 0.06310 0.72740 0.02000
C 	C 	0.51990 0.24180 0.69790 -0.10000
C 	C 	0.37950 0.30020 0.70030 0.31900
C 	C 	0.62990 0.31710 0.68100 0.02700
H 	H 	0.61760 0.40240 0.66750 0.03900
C 	C 	0.75850 0.26400 0.68430 -0.08600
C 	C 	0.88010 0.34240 0.67010 0.31600
C 	C 	0.77470 0.13810 0.70600 0.01300
H 	H 	0.86050 0.10400 0.71000 0.04000
C 	C 	0.17220 0.69530 0.73140 -0.00000
H 	H 	0.21440 0.67320 0.78400 0.01500
C 	C 	0.14820 0.81150 0.69800 -0.00400
H 	H 	0.16920 0.88420 0.72280 0.02500
C 	C 	0.07320 0.68210 0.61080 0.08900
H 	H 	0.03260 0.65090 0.56400 -0.02500
C 	C 	0.42560 0.84510 0.96620 -0.03300
H 	H 	0.51910 0.85490 0.95580 0.06500
C 	C 	0.32740 0.93560 0.96200 0.10700
H 	H 	0.34290 0.01950 0.94720 -0.03100
C 	C 	0.22560 0.76540 0.99880 0.17800
H 	H 	0.15820 0.70780 0.01480 -0.08100
C 	C 	0.42850 0.61400 0.99640 0.20300
C 	C 	0.52880 0.60130 0.04890 -0.21700
H 	H 	0.54810 0.66900 0.08120 0.10600
C 	C 	0.39910 0.51500 0.94730 -0.17400
H 	H 	0.33190 0.52520 0.91180 0.10100
C 	C 	0.04130 0.90400 0.55890 0.04600
C 	C 	0.10620 0.01510 0.54360 -0.08600
H 	H 	0.17730 0.02450 0.57320 0.04200
C 	C 	0.93550 0.88848 0.51581 0.02500
H 	H 	0.89260 0.81370 0.52670 0.03700
N 	N 	0.12557 0.61280 0.67682 -0.26000
N 	N 	0.08601 0.80293 0.61964 -0.13200
N 	N 	0.20048 0.88615 0.98289 -0.25600
N 	N 	0.36070 0.73561 0.98889 -0.15500
O 	O 	0.90467 0.63852 0.95425 -0.24600
O 	O 	0.91250 0.84232 0.96518 -0.41200
O 	O 	0.27842 0.23400 0.71751 -0.41500
O 	O 	0.36340 0.41551 0.68650 -0.41600
O 	O 	0.88410 0.44731 0.62551 -0.31500
O 	O 	0.97660 0.29290 0.70699 -0.41700
Mn	Mn	-0.00000 0.00000 -0.00000 1.18800
