data_crystal

_cell_length_a 6.77450
_cell_length_b 14.22000
_cell_length_c 15.62900
_cell_angle_alpha 90.00000
_cell_angle_beta  101.10000
_cell_angle_gamma 90.00000

_symmetry_space_group_name_	'P 1'
_symmetry_space_group_name_H-M	'P 1'

loop_
_symmetry_equiv_pos_as_xyz
  x,y,z

loop_
_atom_site_label
_atom_site_type_symbol
_atom_site_fract_x
_atom_site_fract_y
_atom_site_fract_z
_atom_site_charge
Sr	Sr	0.23083 0.58473 0.45173 1.52100
Sr	Sr	0.76917 0.08473 0.04827 1.51700
Sr	Sr	0.76917 0.41527 0.54827 1.52100
Sr	Sr	0.23083 0.91527 0.95173 1.51700
Ni	Ni	0.22202 0.73529 0.70571 1.09700
Ni	Ni	0.77798 0.23529 0.79429 1.09700
Ni	Ni	0.77798 0.26471 0.29429 1.09600
Ni	Ni	0.22202 0.76471 0.20571 1.09600
H 	H 	0.49110 0.53700 0.76800 0.23200
H 	H 	0.69430 0.54160 0.73500 0.24900
H 	H 	0.71440 0.60000 0.19580 0.24600
H 	H 	0.87250 0.56390 0.14350 0.23900
H 	H 	0.08140 0.37770 0.44560 0.35900
H 	H 	0.22490 0.40140 0.52130 0.31400
H 	H 	0.50890 0.03700 0.73200 0.23400
H 	H 	0.30570 0.04160 0.76500 0.25200
H 	H 	0.28560 0.10000 0.30420 0.24500
H 	H 	0.12750 0.06390 0.35650 0.23900
H 	H 	0.91860 0.87770 0.05440 0.35300
H 	H 	0.77510 0.90140 0.97870 0.29600
H 	H 	0.50890 0.46300 0.23200 0.23200
H 	H 	0.30570 0.45840 0.26500 0.24900
H 	H 	0.28560 0.40000 0.80420 0.24600
H 	H 	0.12750 0.43610 0.85650 0.23900
H 	H 	0.91860 0.62230 0.55440 0.35900
H 	H 	0.77510 0.59860 0.47870 0.31400
H 	H 	0.49110 0.96300 0.26800 0.23400
H 	H 	0.69430 0.95840 0.23500 0.25200
H 	H 	0.71440 0.90000 0.69580 0.24500
H 	H 	0.87250 0.93610 0.64350 0.23900
H 	H 	0.08140 0.12230 0.94560 0.35300
H 	H 	0.22490 0.09860 0.02130 0.29600
C 	C 	0.45690 0.58360 0.64370 0.58100
C 	C 	0.57030 0.57540 0.73590 -0.77000
C 	C 	0.62350 0.66550 0.78640 0.54700
C 	C 	0.99650 0.60730 0.26370 0.54800
C 	C 	0.84350 0.61450 0.18090 -0.75700
C 	C 	0.81250 0.70120 0.12520 0.56400
C 	C 	0.54310 0.08360 0.85630 0.58200
C 	C 	0.42970 0.07540 0.76410 -0.77100
C 	C 	0.37650 0.16550 0.71360 0.54700
C 	C 	0.00350 0.10730 0.23630 0.55200
C 	C 	0.15650 0.11450 0.31910 -0.76000
C 	C 	0.18750 0.20120 0.37480 0.56500
C 	C 	0.54310 0.41640 0.35630 0.58100
C 	C 	0.42970 0.42460 0.26410 -0.77000
C 	C 	0.37650 0.33450 0.21360 0.54700
C 	C 	0.00350 0.39270 0.73630 0.54800
C 	C 	0.15650 0.38550 0.81910 -0.75700
C 	C 	0.18750 0.29880 0.87480 0.56400
C 	C 	0.45690 0.91640 0.14370 0.58200
C 	C 	0.57030 0.92460 0.23590 -0.77100
C 	C 	0.62350 0.83450 0.28640 0.54700
C 	C 	0.99650 0.89270 0.76370 0.55200
C 	C 	0.84350 0.88550 0.68090 -0.76000
C 	C 	0.81250 0.79880 0.62520 0.56500
O 	O 	0.30990 0.64013 0.62355 -0.59400
O 	O 	0.50630 0.53042 0.58789 -0.61000
O 	O 	0.79100 0.66560 0.83750 -0.36200
O 	O 	0.50060 0.73100 0.78045 -0.51100
O 	O 	0.13540 0.66635 0.28471 -0.59400
O 	O 	0.97900 0.53826 0.31083 -0.49000
O 	O 	0.94610 0.76060 0.12803 -0.52800
O 	O 	0.64710 0.70650 0.07290 -0.38100
O 	O 	0.11450 0.41616 0.48759 -0.89800
O 	O 	0.69010 0.14013 0.87645 -0.59300
O 	O 	0.49370 0.03042 0.91211 -0.60500
O 	O 	0.20900 0.16560 0.66250 -0.36000
O 	O 	0.49940 0.23100 0.71955 -0.51000
O 	O 	0.86460 0.16635 0.21529 -0.59900
O 	O 	0.02100 0.03826 0.18917 -0.49500
O 	O 	0.05390 0.26060 0.37197 -0.53100
O 	O 	0.35290 0.20650 0.42710 -0.38300
O 	O 	0.88550 0.91616 0.01241 -0.87300
O 	O 	0.69010 0.35987 0.37645 -0.59400
O 	O 	0.49370 0.46958 0.41211 -0.61000
O 	O 	0.20900 0.33440 0.16250 -0.36200
O 	O 	0.49940 0.26900 0.21955 -0.51100
O 	O 	0.86460 0.33365 0.71529 -0.59400
O 	O 	0.02100 0.46174 0.68917 -0.49000
O 	O 	0.05390 0.23940 0.87197 -0.52800
O 	O 	0.35290 0.29350 0.92710 -0.38100
O 	O 	0.88550 0.58384 0.51241 -0.89800
O 	O 	0.30990 0.85987 0.12355 -0.59300
O 	O 	0.50630 0.96958 0.08789 -0.60500
O 	O 	0.79100 0.83440 0.33750 -0.36000
O 	O 	0.50060 0.76900 0.28045 -0.51000
O 	O 	0.13540 0.83365 0.78471 -0.59900
O 	O 	0.97900 0.96174 0.81083 -0.49500
O 	O 	0.94610 0.73940 0.62803 -0.53100
O 	O 	0.64710 0.79350 0.57290 -0.38300
O 	O 	0.11450 0.08384 0.98759 -0.87300
