data_crystal

_cell_length_a 10.18700
_cell_length_b 13.37700
_cell_length_c 17.24100
_cell_angle_alpha 101.12900
_cell_angle_beta  100.06300
_cell_angle_gamma 93.50600

_symmetry_space_group_name_	'P 1'
_symmetry_space_group_name_H-M	'P 1'

loop_
_symmetry_equiv_pos_as_xyz
  x,y,z

loop_
_atom_site_label
_atom_site_type_symbol
_atom_site_fract_x
_atom_site_fract_y
_atom_site_fract_z
_atom_site_charge
Cd	Cd	0.72178 0.92000 0.85012 1.13300
N 	N 	0.09450 0.34330 0.44790 -0.09000
N 	N 	0.13750 0.27880 0.38640 -0.11600
N 	N 	0.30680 0.39190 0.46180 -0.29900
N 	N 	0.73560 0.95410 0.60290 -0.08200
N 	N 	0.60810 0.97410 0.59870 -0.10200
N 	N 	0.69710 0.95780 0.72260 -0.28100
N 	N 	0.80110 0.24830 0.97710 -0.08600
N 	N 	0.92400 0.21450 0.99800 -0.11000
N 	N 	0.77650 0.08610 0.91920 -0.27200
N 	N 	0.70950 0.75020 0.04370 -0.08200
N 	N 	0.62720 0.82130 0.06830 -0.11000
N 	N 	0.72720 0.86870 0.97290 -0.27100
C 	C 	0.91540 0.23230 0.47510 0.01700
C 	C 	0.83950 0.15510 0.41720 -0.05000
H 	H 	0.81350 0.16520 0.36450 0.02300
C 	C 	0.80060 0.06180 0.43600 -0.10000
H 	H 	0.74870 0.00990 0.39570 0.05300
C 	C 	0.83750 0.04520 0.51280 0.08100
C 	C 	0.91600 0.12180 0.57110 -0.09600
H 	H 	0.94400 0.11080 0.62340 0.05900
C 	C 	0.95320 0.21390 0.55280 -0.04800
H 	H 	0.00510 0.26550 0.59330 0.03200
C 	C 	0.95610 0.33300 0.45480 -0.08200
H 	H 	0.90020 0.33880 0.40380 0.03300
H 	H 	0.94000 0.38900 0.49680 0.03300
C 	C 	0.80040 0.94350 0.53260 -0.13300
H 	H 	0.73970 0.90080 0.48600 0.06900
H 	H 	0.88150 0.90860 0.54300 0.07800
C 	C 	0.26560 0.31490 0.39850 0.08400
H 	H 	0.32340 0.28790 0.36460 -0.06600
C 	C 	0.19440 0.40870 0.49170 0.05500
H 	H 	0.18840 0.45920 0.53680 -0.04200
C 	C 	0.59000 0.97660 0.67340 0.07900
H 	H 	0.50860 0.99040 0.69000 -0.03500
C 	C 	0.78670 0.94450 0.67590 0.07500
H 	H 	0.87510 0.93010 0.69270 -0.03100
C 	C 	0.89510 0.42990 0.00470 0.05400
C 	C 	0.00520 0.45600 0.06530 -0.07000
H 	H 	0.00910 0.42650 0.11080 0.03700
C 	C 	0.11060 0.52380 0.06230 -0.07000
H 	H 	0.18560 0.53900 0.10450 0.04100
C 	C 	0.78140 0.35440 0.00930 -0.11600
H 	H 	0.77190 0.36130 0.06560 0.05500
H 	H 	0.69790 0.37140 0.97910 0.06700
C 	C 	0.90240 0.11760 0.96170 0.07200
H 	H 	0.96990 0.07280 0.96490 -0.04400
C 	C 	0.71650 0.17110 0.93120 0.07600
H 	H 	0.62630 0.17630 0.91000 -0.01500
C 	C 	0.60290 0.57710 0.03620 0.05200
C 	C 	0.54630 0.51960 0.08190 -0.08100
H 	H 	0.57780 0.53210 0.13780 0.03400
C 	C 	0.44250 0.44290 0.04640 -0.06900
H 	H 	0.40340 0.40480 0.07840 0.03300
C 	C 	0.71980 0.65760 0.07500 -0.11600
H 	H 	0.72340 0.67430 0.13320 0.06100
H 	H 	0.80350 0.62920 0.06560 0.06700
C 	C 	0.64230 0.89180 0.02460 0.06900
H 	H 	0.59830 0.95180 0.02920 -0.04000
C 	C 	0.76660 0.77950 0.98730 0.05400
H 	H 	0.82700 0.74230 0.96080 -0.01900
Cd	Cd	0.27822 0.08000 0.14988 1.13200
N 	N 	0.90550 0.65670 0.55210 -0.09100
N 	N 	0.86250 0.72120 0.61360 -0.11700
N 	N 	0.69320 0.60810 0.53820 -0.30000
N 	N 	0.26440 0.04590 0.39710 -0.08300
N 	N 	0.39190 0.02590 0.40130 -0.10300
N 	N 	0.30290 0.04220 0.27740 -0.28200
N 	N 	0.19890 0.75170 0.02290 -0.08700
N 	N 	0.07600 0.78550 0.00200 -0.11100
N 	N 	0.22350 0.91390 0.08080 -0.27200
N 	N 	0.29050 0.24980 0.95630 -0.08200
N 	N 	0.37280 0.17870 0.93170 -0.11000
N 	N 	0.27280 0.13130 0.02710 -0.27100
C 	C 	0.08460 0.76770 0.52490 0.01700
C 	C 	0.16050 0.84490 0.58280 -0.05000
H 	H 	0.18650 0.83480 0.63550 0.02300
C 	C 	0.19940 0.93820 0.56400 -0.10000
H 	H 	0.25130 0.99010 0.60430 0.05300
C 	C 	0.16250 0.95480 0.48720 0.08100
C 	C 	0.08400 0.87820 0.42890 -0.09600
H 	H 	0.05600 0.88920 0.37660 0.05900
C 	C 	0.04680 0.78610 0.44720 -0.04800
H 	H 	0.99490 0.73450 0.40670 0.03200
C 	C 	0.04390 0.66700 0.54520 -0.08200
H 	H 	0.09980 0.66120 0.59620 0.03300
H 	H 	0.06000 0.61100 0.50320 0.03300
C 	C 	0.19960 0.05650 0.46740 -0.13300
H 	H 	0.26030 0.09920 0.51400 0.06900
H 	H 	0.11850 0.09140 0.45700 0.07800
C 	C 	0.73440 0.68510 0.60150 0.08400
H 	H 	0.67660 0.71210 0.63540 -0.06600
C 	C 	0.80560 0.59130 0.50830 0.05500
H 	H 	0.81160 0.54080 0.46320 -0.04200
C 	C 	0.41000 0.02340 0.32660 0.07900
H 	H 	0.49140 0.00960 0.31000 -0.03500
C 	C 	0.21330 0.05550 0.32410 0.07500
H 	H 	0.12490 0.06990 0.30730 -0.03100
C 	C 	0.10490 0.57010 0.99530 0.05400
C 	C 	0.99480 0.54400 0.93470 -0.07000
H 	H 	0.99090 0.57350 0.88920 0.03700
C 	C 	0.88940 0.47620 0.93770 -0.07000
H 	H 	0.81440 0.46100 0.89550 0.04100
C 	C 	0.21860 0.64560 0.99070 -0.11600
H 	H 	0.22810 0.63870 0.93440 0.05500
H 	H 	0.30210 0.62860 0.02090 0.06700
C 	C 	0.09760 0.88240 0.03830 0.07200
H 	H 	0.03010 0.92720 0.03510 -0.04400
C 	C 	0.28350 0.82890 0.06880 0.07600
H 	H 	0.37370 0.82370 0.09000 -0.01500
C 	C 	0.39710 0.42290 0.96380 0.05200
C 	C 	0.45370 0.48040 0.91810 -0.08100
H 	H 	0.42220 0.46790 0.86220 0.03400
C 	C 	0.55750 0.55710 0.95360 -0.06900
H 	H 	0.59660 0.59520 0.92160 0.03300
C 	C 	0.28020 0.34240 0.92500 -0.11600
H 	H 	0.27660 0.32570 0.86680 0.06100
H 	H 	0.19650 0.37080 0.93440 0.06700
C 	C 	0.35770 0.10820 0.97540 0.06900
H 	H 	0.40170 0.04820 0.97080 -0.04000
C 	C 	0.23340 0.22050 0.01270 0.05400
H 	H 	0.17300 0.25770 0.03920 -0.01900
Cd	Cd	0.50000 0.50000 0.50000 1.10500
