data_crystal

_cell_length_a 36.99100
_cell_length_b 8.39400
_cell_length_c 36.94000
_cell_angle_alpha 90.00000
_cell_angle_beta  116.75000
_cell_angle_gamma 90.00000

_symmetry_space_group_name_	'P 1'
_symmetry_space_group_name_H-M	'P 1'

loop_
_symmetry_equiv_pos_as_xyz
  x,y,z

loop_
_atom_site_label
_atom_site_type_symbol
_atom_site_fract_x
_atom_site_fract_y
_atom_site_fract_z
_atom_site_charge
Zn	Zn	0.83075 0.03267 0.17702 1.20500
O 	O 	0.59234 0.19700 0.02214 -0.28700
O 	O 	0.41362 0.04650 0.87831 -0.30200
O 	O 	0.42730 0.32090 0.02048 -0.30800
O 	O 	0.76270 0.87630 0.13257 -0.30800
O 	O 	0.77862 0.13200 0.14470 -0.44700
O 	O 	0.34648 0.63750 0.71711 -0.50500
O 	O 	0.32210 0.51190 0.75030 -0.35000
O 	O 	0.35552 0.45970 0.14270 -0.46300
O 	O 	0.36360 0.71830 0.12770 -0.41800
C 	C 	0.50161 0.15370 0.94336 0.40300
C 	C 	0.46296 0.21970 0.92191 -0.34800
C 	C 	0.44450 0.30550 0.94164 0.42500
C 	C 	0.46558 0.32700 0.98378 -0.35700
C 	C 	0.50302 0.25380 0.00574 0.41900
C 	C 	0.52061 0.16220 0.98485 -0.32500
C 	C 	0.52260 0.07680 0.92050 -0.88900
H 	H 	0.50500 0.08050 0.89190 0.29300
H 	H 	0.52900 0.96790 0.92900 0.28600
H 	H 	0.54720 0.13360 0.92630 0.29100
C 	C 	0.40203 0.36980 0.91849 -0.95700
H 	H 	0.39200 0.34530 0.89020 0.32600
H 	H 	0.40230 0.48320 0.92200 0.30900
H 	H 	0.38480 0.32170 0.92860 0.32300
C 	C 	0.52452 0.26960 0.05139 -0.94700
H 	H 	0.54970 0.21300 0.06180 0.32400
H 	H 	0.50790 0.22570 0.06270 0.31100
H 	H 	0.52960 0.38010 0.05860 0.31000
C 	C 	0.56014 0.07690 0.00913 0.16700
H 	H 	0.55990 0.02530 0.03250 -0.01700
H 	H 	0.56440 0.99630 0.99260 -0.01200
C 	C 	0.63061 0.14380 0.04721 0.26700
C 	C 	0.65991 0.26290 0.06288 -0.26100
H 	H 	0.65290 0.36910 0.05630 0.12700
C 	C 	0.69953 0.22090 0.08839 0.13900
H 	H 	0.71930 0.29960 0.09850 0.00500
C 	C 	0.71007 0.06400 0.09905 -0.17600
C 	C 	0.68069 0.94700 0.08166 0.16000
H 	H 	0.68790 0.84060 0.08780 -0.01100
C 	C 	0.64167 0.98460 0.05589 -0.26800
H 	H 	0.62250 0.90450 0.04420 0.12800
C 	C 	0.75348 0.01490 0.12749 0.33400
C 	C 	0.43883 0.17680 0.87780 0.23200
H 	H 	0.45650 0.14390 0.86610 -0.06300
H 	H 	0.42250 0.26610 0.86240 -0.05100
C 	C 	0.39647 0.94900 0.84462 0.32600
C 	C 	0.37590 0.81740 0.84930 -0.33800
H 	H 	0.37320 0.80300 0.87290 0.15100
C 	C 	0.35980 0.71060 0.81820 0.22800
H 	H 	0.34760 0.61900 0.82160 -0.03800
C 	C 	0.36119 0.73360 0.78223 -0.27300
C 	C 	0.38010 0.86460 0.77765 0.23200
H 	H 	0.38130 0.88090 0.75330 -0.04100
C 	C 	0.39760 0.97410 0.80850 -0.35600
H 	H 	0.41020 0.06440 0.80480 0.15000
C 	C 	0.34370 0.61430 0.74780 0.46100
C 	C 	0.44799 0.42510 0.00534 0.22700
H 	H 	0.46930 0.48200 0.02760 -0.04100
H 	H 	0.42920 0.50240 0.98690 -0.03200
C 	C 	0.41323 0.39050 0.04511 0.29700
C 	C 	0.41233 0.55240 0.05169 -0.30100
H 	H 	0.42250 0.62410 0.03930 0.14200
C 	C 	0.39620 0.60730 0.07690 0.16400
H 	H 	0.39450 0.71630 0.08040 -0.03900
C 	C 	0.38240 0.49960 0.09710 -0.20700
C 	C 	0.38280 0.34210 0.09020 0.16100
H 	H 	0.37230 0.27100 0.10240 -0.00700
C 	C 	0.39890 0.28440 0.06460 -0.27900
H 	H 	0.39990 0.17530 0.06070 0.12900
C 	C 	0.36620 0.56330 0.12540 0.38100
H 	H 	0.37900 0.80330 0.12140 0.16900
Zn	Zn	0.33075 0.53267 0.17702 1.21300
O 	O 	0.09234 0.69700 0.02214 -0.28900
O 	O 	0.91362 0.54650 0.87831 -0.30600
O 	O 	0.92730 0.82090 0.02048 -0.30600
O 	O 	0.26270 0.37630 0.13257 -0.32000
O 	O 	0.27862 0.63200 0.14470 -0.44500
O 	O 	0.84648 0.13750 0.71711 -0.50000
O 	O 	0.82210 0.01190 0.75030 -0.34300
O 	O 	0.85552 0.95970 0.14270 -0.44000
O 	O 	0.86360 0.21830 0.12770 -0.40800
C 	C 	0.00161 0.65370 0.94336 0.40800
C 	C 	0.96296 0.71970 0.92191 -0.35400
C 	C 	0.94450 0.80550 0.94164 0.42600
C 	C 	0.96558 0.82700 0.98378 -0.36200
C 	C 	0.00302 0.75380 0.00574 0.42600
C 	C 	0.02061 0.66220 0.98485 -0.33200
C 	C 	0.02260 0.57680 0.92050 -0.89700
H 	H 	0.00500 0.58050 0.89190 0.29500
H 	H 	0.02900 0.46790 0.92900 0.29000
H 	H 	0.04720 0.63360 0.92630 0.29400
C 	C 	0.90203 0.86980 0.91849 -0.95600
H 	H 	0.89200 0.84530 0.89020 0.32300
H 	H 	0.90230 0.98320 0.92200 0.30700
H 	H 	0.88480 0.82170 0.92860 0.32200
C 	C 	0.02452 0.76960 0.05139 -0.95900
H 	H 	0.04970 0.71300 0.06180 0.32900
H 	H 	0.00790 0.72570 0.06270 0.31600
H 	H 	0.02960 0.88010 0.05860 0.31500
C 	C 	0.06014 0.57690 0.00913 0.17700
H 	H 	0.05990 0.52530 0.03250 -0.01800
H 	H 	0.06440 0.49630 0.99260 -0.01700
C 	C 	0.13061 0.64380 0.04721 0.27600
C 	C 	0.15991 0.76290 0.06288 -0.26300
H 	H 	0.15290 0.86910 0.05630 0.12800
C 	C 	0.19953 0.72090 0.08839 0.13900
H 	H 	0.21930 0.79960 0.09850 0.00500
C 	C 	0.21007 0.56400 0.09905 -0.16800
C 	C 	0.18069 0.44700 0.08166 0.14900
H 	H 	0.18790 0.34060 0.08780 -0.00900
C 	C 	0.14167 0.48460 0.05589 -0.27600
H 	H 	0.12250 0.40450 0.04420 0.13000
C 	C 	0.25348 0.51490 0.12749 0.35000
C 	C 	0.93883 0.67680 0.87780 0.23700
H 	H 	0.95650 0.64390 0.86610 -0.06600
H 	H 	0.92250 0.76610 0.86240 -0.05500
C 	C 	0.89647 0.44900 0.84462 0.32500
C 	C 	0.87590 0.31740 0.84930 -0.33300
H 	H 	0.87320 0.30300 0.87290 0.15200
C 	C 	0.85980 0.21060 0.81820 0.22300
H 	H 	0.84760 0.11900 0.82160 -0.03400
C 	C 	0.86119 0.23360 0.78223 -0.26500
C 	C 	0.88010 0.36460 0.77765 0.22100
H 	H 	0.88130 0.38090 0.75330 -0.03600
C 	C 	0.89760 0.47410 0.80850 -0.33900
H 	H 	0.91020 0.56440 0.80480 0.13900
C 	C 	0.84370 0.11430 0.74780 0.45800
C 	C 	0.94799 0.92510 0.00534 0.23300
H 	H 	0.96930 0.98200 0.02760 -0.04100
H 	H 	0.92920 0.00240 0.98690 -0.03500
C 	C 	0.91323 0.89050 0.04511 0.29400
C 	C 	0.91233 0.05240 0.05169 -0.29100
H 	H 	0.92250 0.12410 0.03930 0.13800
C 	C 	0.89620 0.10730 0.07690 0.12500
H 	H 	0.89450 0.21630 0.08040 -0.02600
C 	C 	0.88240 0.99960 0.09710 -0.15700
C 	C 	0.88280 0.84210 0.09020 0.13200
H 	H 	0.87230 0.77100 0.10240 0.00300
C 	C 	0.89890 0.78440 0.06460 -0.26200
H 	H 	0.89990 0.67530 0.06070 0.12300
C 	C 	0.86620 0.06330 0.12540 0.33700
H 	H 	0.87900 0.30330 0.12140 0.16500
Zn	Zn	0.83075 0.96733 0.67702 1.20600
O 	O 	0.59234 0.80300 0.52214 -0.28700
O 	O 	0.41362 0.95350 0.37831 -0.30100
O 	O 	0.42730 0.67910 0.52048 -0.30700
O 	O 	0.76270 0.12370 0.63257 -0.30700
O 	O 	0.77862 0.86800 0.64470 -0.44600
O 	O 	0.34648 0.36250 0.21711 -0.50500
O 	O 	0.32210 0.48810 0.25030 -0.35000
O 	O 	0.35552 0.54030 0.64270 -0.46300
O 	O 	0.36360 0.28170 0.62770 -0.41800
C 	C 	0.50161 0.84630 0.44336 0.40400
C 	C 	0.46296 0.78030 0.42191 -0.34900
C 	C 	0.44450 0.69450 0.44164 0.42500
C 	C 	0.46558 0.67300 0.48378 -0.35800
C 	C 	0.50302 0.74620 0.50574 0.42100
C 	C 	0.52061 0.83780 0.48485 -0.32600
C 	C 	0.52260 0.92320 0.42050 -0.89200
H 	H 	0.50500 0.91950 0.39190 0.29400
H 	H 	0.52900 0.03210 0.42900 0.28700
H 	H 	0.54720 0.86640 0.42630 0.29200
C 	C 	0.40203 0.63020 0.41849 -0.95800
H 	H 	0.39200 0.65470 0.39020 0.32600
H 	H 	0.40230 0.51680 0.42200 0.30900
H 	H 	0.38480 0.67830 0.42860 0.32300
C 	C 	0.52452 0.73040 0.55139 -0.94900
H 	H 	0.54970 0.78700 0.56180 0.32500
H 	H 	0.50790 0.77430 0.56270 0.31200
H 	H 	0.52960 0.61990 0.55860 0.31100
C 	C 	0.56014 0.92310 0.50913 0.16800
H 	H 	0.55990 0.97470 0.53250 -0.01700
H 	H 	0.56440 0.00370 0.49260 -0.01200
C 	C 	0.63061 0.85620 0.54721 0.26800
C 	C 	0.65991 0.73710 0.56288 -0.26200
H 	H 	0.65290 0.63090 0.55630 0.12700
C 	C 	0.69953 0.77910 0.58839 0.13900
H 	H 	0.71930 0.70040 0.59850 0.00500
C 	C 	0.71007 0.93600 0.59905 -0.17600
C 	C 	0.68069 0.05300 0.58166 0.16000
H 	H 	0.68790 0.15940 0.58780 -0.01100
C 	C 	0.64167 0.01540 0.55589 -0.26900
H 	H 	0.62250 0.09550 0.54420 0.12800
C 	C 	0.75348 0.98510 0.62749 0.33400
C 	C 	0.43883 0.82320 0.37780 0.23300
H 	H 	0.45650 0.85610 0.36610 -0.06300
H 	H 	0.42250 0.73390 0.36240 -0.05200
C 	C 	0.39647 0.05100 0.34462 0.32600
C 	C 	0.37590 0.18260 0.34930 -0.33800
H 	H 	0.37320 0.19700 0.37290 0.15200
C 	C 	0.35980 0.28940 0.31820 0.22800
H 	H 	0.34760 0.38100 0.32160 -0.03800
C 	C 	0.36119 0.26640 0.28223 -0.27300
C 	C 	0.38010 0.13540 0.27765 0.23200
H 	H 	0.38130 0.11910 0.25330 -0.04100
C 	C 	0.39760 0.02590 0.30850 -0.35600
H 	H 	0.41020 0.93560 0.30480 0.15000
C 	C 	0.34370 0.38570 0.24780 0.46100
C 	C 	0.44799 0.57490 0.50534 0.22800
H 	H 	0.46930 0.51800 0.52760 -0.04100
H 	H 	0.42920 0.49760 0.48690 -0.03300
C 	C 	0.41323 0.60950 0.54511 0.29700
C 	C 	0.41233 0.44760 0.55169 -0.30100
H 	H 	0.42250 0.37590 0.53930 0.14200
C 	C 	0.39620 0.39270 0.57690 0.16400
H 	H 	0.39450 0.28370 0.58040 -0.03900
C 	C 	0.38240 0.50040 0.59710 -0.20700
C 	C 	0.38280 0.65790 0.59020 0.16100
H 	H 	0.37230 0.72900 0.60240 -0.00700
C 	C 	0.39890 0.71560 0.56460 -0.27900
H 	H 	0.39990 0.82470 0.56070 0.12900
C 	C 	0.36620 0.43670 0.62540 0.38100
H 	H 	0.37900 0.19670 0.62140 0.16900
Zn	Zn	0.33075 0.46733 0.67702 1.21300
O 	O 	0.09234 0.30300 0.52214 -0.28900
O 	O 	0.91362 0.45350 0.37831 -0.30600
O 	O 	0.92730 0.17910 0.52048 -0.30600
O 	O 	0.26270 0.62370 0.63257 -0.32000
O 	O 	0.27862 0.36800 0.64470 -0.44500
O 	O 	0.84648 0.86250 0.21711 -0.50000
O 	O 	0.82210 0.98810 0.25030 -0.34300
O 	O 	0.85552 0.04030 0.64270 -0.44000
O 	O 	0.86360 0.78170 0.62770 -0.40800
C 	C 	0.00161 0.34630 0.44336 0.40700
C 	C 	0.96296 0.28030 0.42191 -0.35300
C 	C 	0.94450 0.19450 0.44164 0.42600
C 	C 	0.96558 0.17300 0.48378 -0.36100
C 	C 	0.00302 0.24620 0.50574 0.42500
C 	C 	0.02061 0.33780 0.48485 -0.33100
C 	C 	0.02260 0.42320 0.42050 -0.89700
H 	H 	0.00500 0.41950 0.39190 0.29500
H 	H 	0.02900 0.53210 0.42900 0.29000
H 	H 	0.04720 0.36640 0.42630 0.29300
C 	C 	0.90203 0.13020 0.41849 -0.95500
H 	H 	0.89200 0.15470 0.39020 0.32300
H 	H 	0.90230 0.01680 0.42200 0.30700
H 	H 	0.88480 0.17830 0.42860 0.32200
C 	C 	0.02452 0.23040 0.55139 -0.95700
H 	H 	0.04970 0.28700 0.56180 0.32800
H 	H 	0.00790 0.27430 0.56270 0.31500
H 	H 	0.02960 0.11990 0.55860 0.31500
C 	C 	0.06014 0.42310 0.50913 0.17700
H 	H 	0.05990 0.47470 0.53250 -0.01800
H 	H 	0.06440 0.50370 0.49260 -0.01700
C 	C 	0.13061 0.35620 0.54721 0.27600
C 	C 	0.15991 0.23710 0.56288 -0.26300
H 	H 	0.15290 0.13090 0.55630 0.12800
C 	C 	0.19953 0.27910 0.58839 0.13800
H 	H 	0.21930 0.20040 0.59850 0.00500
C 	C 	0.21007 0.43600 0.59905 -0.16800
C 	C 	0.18069 0.55300 0.58166 0.14900
H 	H 	0.18790 0.65940 0.58780 -0.00900
C 	C 	0.14167 0.51540 0.55589 -0.27600
H 	H 	0.12250 0.59550 0.54420 0.13000
C 	C 	0.25348 0.48510 0.62749 0.35000
C 	C 	0.93883 0.32320 0.37780 0.23700
H 	H 	0.95650 0.35610 0.36610 -0.06600
H 	H 	0.92250 0.23390 0.36240 -0.05500
C 	C 	0.89647 0.55100 0.34462 0.32500
C 	C 	0.87590 0.68260 0.34930 -0.33300
H 	H 	0.87320 0.69700 0.37290 0.15200
C 	C 	0.85980 0.78940 0.31820 0.22300
H 	H 	0.84760 0.88100 0.32160 -0.03400
C 	C 	0.86119 0.76640 0.28223 -0.26500
C 	C 	0.88010 0.63540 0.27765 0.22100
H 	H 	0.88130 0.61910 0.25330 -0.03600
C 	C 	0.89760 0.52590 0.30850 -0.33900
H 	H 	0.91020 0.43560 0.30480 0.13900
C 	C 	0.84370 0.88570 0.24780 0.45800
C 	C 	0.94799 0.07490 0.50534 0.23200
H 	H 	0.96930 0.01800 0.52760 -0.04000
H 	H 	0.92920 0.99760 0.48690 -0.03500
C 	C 	0.91323 0.10950 0.54511 0.29400
C 	C 	0.91233 0.94760 0.55169 -0.29100
H 	H 	0.92250 0.87590 0.53930 0.13800
C 	C 	0.89620 0.89270 0.57690 0.12600
H 	H 	0.89450 0.78370 0.58040 -0.02600
C 	C 	0.88240 0.00040 0.59710 -0.15800
C 	C 	0.88280 0.15790 0.59020 0.13200
H 	H 	0.87230 0.22900 0.60240 0.00300
C 	C 	0.89890 0.21560 0.56460 -0.26200
H 	H 	0.89990 0.32470 0.56070 0.12300
C 	C 	0.86620 0.93670 0.62540 0.33800
H 	H 	0.87900 0.69670 0.62140 0.16500
Zn	Zn	0.16925 0.03267 0.32298 1.20600
O 	O 	0.40766 0.19700 0.47786 -0.28700
O 	O 	0.58638 0.04650 0.62169 -0.30100
O 	O 	0.57270 0.32090 0.47952 -0.30700
O 	O 	0.23730 0.87630 0.36743 -0.30700
O 	O 	0.22138 0.13200 0.35530 -0.44600
O 	O 	0.65352 0.63750 0.78289 -0.50500
O 	O 	0.67790 0.51190 0.74970 -0.35000
O 	O 	0.64448 0.45970 0.35730 -0.46300
O 	O 	0.63640 0.71830 0.37230 -0.41800
C 	C 	0.49839 0.15370 0.55664 0.40400
C 	C 	0.53704 0.21970 0.57809 -0.34900
C 	C 	0.55550 0.30550 0.55836 0.42500
C 	C 	0.53442 0.32700 0.51622 -0.35800
C 	C 	0.49698 0.25380 0.49426 0.42100
C 	C 	0.47939 0.16220 0.51515 -0.32600
C 	C 	0.47740 0.07680 0.57950 -0.89200
H 	H 	0.49500 0.08050 0.60810 0.29400
H 	H 	0.47100 0.96790 0.57100 0.28700
H 	H 	0.45280 0.13360 0.57370 0.29200
C 	C 	0.59797 0.36980 0.58151 -0.95800
H 	H 	0.60800 0.34530 0.60980 0.32600
H 	H 	0.59770 0.48320 0.57800 0.30900
H 	H 	0.61520 0.32170 0.57140 0.32300
C 	C 	0.47548 0.26960 0.44861 -0.94900
H 	H 	0.45030 0.21300 0.43820 0.32500
H 	H 	0.49210 0.22570 0.43730 0.31200
H 	H 	0.47040 0.38010 0.44140 0.31100
C 	C 	0.43986 0.07690 0.49087 0.16800
H 	H 	0.44010 0.02530 0.46750 -0.01700
H 	H 	0.43560 0.99630 0.50740 -0.01200
C 	C 	0.36939 0.14380 0.45279 0.26800
C 	C 	0.34009 0.26290 0.43712 -0.26200
H 	H 	0.34710 0.36910 0.44370 0.12700
C 	C 	0.30047 0.22090 0.41161 0.13900
H 	H 	0.28070 0.29960 0.40150 0.00500
C 	C 	0.28993 0.06400 0.40095 -0.17600
C 	C 	0.31931 0.94700 0.41834 0.16000
H 	H 	0.31210 0.84060 0.41220 -0.01100
C 	C 	0.35833 0.98460 0.44411 -0.26900
H 	H 	0.37750 0.90450 0.45580 0.12800
C 	C 	0.24652 0.01490 0.37251 0.33400
C 	C 	0.56117 0.17680 0.62220 0.23300
H 	H 	0.54350 0.14390 0.63390 -0.06300
H 	H 	0.57750 0.26610 0.63760 -0.05200
C 	C 	0.60353 0.94900 0.65538 0.32600
C 	C 	0.62410 0.81740 0.65070 -0.33800
H 	H 	0.62680 0.80300 0.62710 0.15200
C 	C 	0.64020 0.71060 0.68180 0.22800
H 	H 	0.65240 0.61900 0.67840 -0.03800
C 	C 	0.63881 0.73360 0.71777 -0.27300
C 	C 	0.61990 0.86460 0.72235 0.23200
H 	H 	0.61870 0.88090 0.74670 -0.04100
C 	C 	0.60240 0.97410 0.69150 -0.35600
H 	H 	0.58980 0.06440 0.69520 0.15000
C 	C 	0.65630 0.61430 0.75220 0.46100
C 	C 	0.55201 0.42510 0.49466 0.22800
H 	H 	0.53070 0.48200 0.47240 -0.04100
H 	H 	0.57080 0.50240 0.51310 -0.03300
C 	C 	0.58677 0.39050 0.45489 0.29700
C 	C 	0.58767 0.55240 0.44831 -0.30100
H 	H 	0.57750 0.62410 0.46070 0.14200
C 	C 	0.60380 0.60730 0.42310 0.16400
H 	H 	0.60550 0.71630 0.41960 -0.03900
C 	C 	0.61760 0.49960 0.40290 -0.20700
C 	C 	0.61720 0.34210 0.40980 0.16100
H 	H 	0.62770 0.27100 0.39760 -0.00700
C 	C 	0.60110 0.28440 0.43540 -0.27900
H 	H 	0.60010 0.17530 0.43930 0.12900
C 	C 	0.63380 0.56330 0.37460 0.38100
H 	H 	0.62100 0.80330 0.37860 0.16900
Zn	Zn	0.66925 0.53267 0.32298 1.21300
O 	O 	0.90766 0.69700 0.47786 -0.28900
O 	O 	0.08638 0.54650 0.62169 -0.30600
O 	O 	0.07270 0.82090 0.47952 -0.30600
O 	O 	0.73730 0.37630 0.36743 -0.32000
O 	O 	0.72138 0.63200 0.35530 -0.44500
O 	O 	0.15352 0.13750 0.78289 -0.50000
O 	O 	0.17790 0.01190 0.74970 -0.34300
O 	O 	0.14448 0.95970 0.35730 -0.44000
O 	O 	0.13640 0.21830 0.37230 -0.40800
C 	C 	0.99839 0.65370 0.55664 0.40700
C 	C 	0.03704 0.71970 0.57809 -0.35300
C 	C 	0.05550 0.80550 0.55836 0.42600
C 	C 	0.03442 0.82700 0.51622 -0.36100
C 	C 	0.99698 0.75380 0.49426 0.42500
C 	C 	0.97939 0.66220 0.51515 -0.33100
C 	C 	0.97740 0.57680 0.57950 -0.89700
H 	H 	0.99500 0.58050 0.60810 0.29500
H 	H 	0.97100 0.46790 0.57100 0.29000
H 	H 	0.95280 0.63360 0.57370 0.29300
C 	C 	0.09797 0.86980 0.58151 -0.95500
H 	H 	0.10800 0.84530 0.60980 0.32300
H 	H 	0.09770 0.98320 0.57800 0.30700
H 	H 	0.11520 0.82170 0.57140 0.32200
C 	C 	0.97548 0.76960 0.44861 -0.95700
H 	H 	0.95030 0.71300 0.43820 0.32800
H 	H 	0.99210 0.72570 0.43730 0.31500
H 	H 	0.97040 0.88010 0.44140 0.31500
C 	C 	0.93986 0.57690 0.49087 0.17700
H 	H 	0.94010 0.52530 0.46750 -0.01800
H 	H 	0.93560 0.49630 0.50740 -0.01700
C 	C 	0.86939 0.64380 0.45279 0.27600
C 	C 	0.84009 0.76290 0.43712 -0.26300
H 	H 	0.84710 0.86910 0.44370 0.12800
C 	C 	0.80047 0.72090 0.41161 0.13800
H 	H 	0.78070 0.79960 0.40150 0.00500
C 	C 	0.78993 0.56400 0.40095 -0.16800
C 	C 	0.81931 0.44700 0.41834 0.14900
H 	H 	0.81210 0.34060 0.41220 -0.00900
C 	C 	0.85833 0.48460 0.44411 -0.27600
H 	H 	0.87750 0.40450 0.45580 0.13000
C 	C 	0.74652 0.51490 0.37251 0.35000
C 	C 	0.06117 0.67680 0.62220 0.23700
H 	H 	0.04350 0.64390 0.63390 -0.06600
H 	H 	0.07750 0.76610 0.63760 -0.05500
C 	C 	0.10353 0.44900 0.65538 0.32500
C 	C 	0.12410 0.31740 0.65070 -0.33300
H 	H 	0.12680 0.30300 0.62710 0.15200
C 	C 	0.14020 0.21060 0.68180 0.22300
H 	H 	0.15240 0.11900 0.67840 -0.03400
C 	C 	0.13881 0.23360 0.71777 -0.26500
C 	C 	0.11990 0.36460 0.72235 0.22100
H 	H 	0.11870 0.38090 0.74670 -0.03600
C 	C 	0.10240 0.47410 0.69150 -0.33900
H 	H 	0.08980 0.56440 0.69520 0.13900
C 	C 	0.15630 0.11430 0.75220 0.45800
C 	C 	0.05201 0.92510 0.49466 0.23200
H 	H 	0.03070 0.98200 0.47240 -0.04000
H 	H 	0.07080 0.00240 0.51310 -0.03500
C 	C 	0.08677 0.89050 0.45489 0.29400
C 	C 	0.08767 0.05240 0.44831 -0.29100
H 	H 	0.07750 0.12410 0.46070 0.13800
C 	C 	0.10380 0.10730 0.42310 0.12600
H 	H 	0.10550 0.21630 0.41960 -0.02600
C 	C 	0.11760 0.99960 0.40290 -0.15800
C 	C 	0.11720 0.84210 0.40980 0.13200
H 	H 	0.12770 0.77100 0.39760 0.00300
C 	C 	0.10110 0.78440 0.43540 -0.26200
H 	H 	0.10010 0.67530 0.43930 0.12300
C 	C 	0.13380 0.06330 0.37460 0.33800
H 	H 	0.12100 0.30330 0.37860 0.16500
Zn	Zn	0.16925 0.96733 0.82298 1.20600
O 	O 	0.40766 0.80300 0.97786 -0.28600
O 	O 	0.58638 0.95350 0.12169 -0.30100
O 	O 	0.57270 0.67910 0.97952 -0.30700
O 	O 	0.23730 0.12370 0.86743 -0.30700
O 	O 	0.22138 0.86800 0.85530 -0.44600
O 	O 	0.65352 0.36250 0.28289 -0.50500
O 	O 	0.67790 0.48810 0.24970 -0.35000
O 	O 	0.64448 0.54030 0.85730 -0.46300
O 	O 	0.63640 0.28170 0.87230 -0.41800
C 	C 	0.49839 0.84630 0.05664 0.40300
C 	C 	0.53704 0.78030 0.07809 -0.34800
C 	C 	0.55550 0.69450 0.05836 0.42500
C 	C 	0.53442 0.67300 0.01622 -0.35700
C 	C 	0.49698 0.74620 0.99426 0.41900
C 	C 	0.47939 0.83780 0.01515 -0.32500
C 	C 	0.47740 0.92320 0.07950 -0.88900
H 	H 	0.49500 0.91950 0.10810 0.29300
H 	H 	0.47100 0.03210 0.07100 0.28600
H 	H 	0.45280 0.86640 0.07370 0.29100
C 	C 	0.59797 0.63020 0.08151 -0.95700
H 	H 	0.60800 0.65470 0.10980 0.32600
H 	H 	0.59770 0.51680 0.07800 0.30900
H 	H 	0.61520 0.67830 0.07140 0.32300
C 	C 	0.47548 0.73040 0.94861 -0.94700
H 	H 	0.45030 0.78700 0.93820 0.32400
H 	H 	0.49210 0.77430 0.93730 0.31100
H 	H 	0.47040 0.61990 0.94140 0.31000
C 	C 	0.43986 0.92310 0.99087 0.16700
H 	H 	0.44010 0.97470 0.96750 -0.01700
H 	H 	0.43560 0.00370 0.00740 -0.01200
C 	C 	0.36939 0.85620 0.95279 0.26700
C 	C 	0.34009 0.73710 0.93712 -0.26100
H 	H 	0.34710 0.63090 0.94370 0.12700
C 	C 	0.30047 0.77910 0.91161 0.13900
H 	H 	0.28070 0.70040 0.90150 0.00500
C 	C 	0.28993 0.93600 0.90095 -0.17600
C 	C 	0.31931 0.05300 0.91834 0.16000
H 	H 	0.31210 0.15940 0.91220 -0.01100
C 	C 	0.35833 0.01540 0.94411 -0.26800
H 	H 	0.37750 0.09550 0.95580 0.12800
C 	C 	0.24652 0.98510 0.87251 0.33400
C 	C 	0.56117 0.82320 0.12220 0.23200
H 	H 	0.54350 0.85610 0.13390 -0.06300
H 	H 	0.57750 0.73390 0.13760 -0.05100
C 	C 	0.60353 0.05100 0.15538 0.32600
C 	C 	0.62410 0.18260 0.15070 -0.33800
H 	H 	0.62680 0.19700 0.12710 0.15100
C 	C 	0.64020 0.28940 0.18180 0.22800
H 	H 	0.65240 0.38100 0.17840 -0.03800
C 	C 	0.63881 0.26640 0.21777 -0.27300
C 	C 	0.61990 0.13540 0.22235 0.23200
H 	H 	0.61870 0.11910 0.24670 -0.04100
C 	C 	0.60240 0.02590 0.19150 -0.35600
H 	H 	0.58980 0.93560 0.19520 0.15000
C 	C 	0.65630 0.38570 0.25220 0.46100
C 	C 	0.55201 0.57490 0.99466 0.22700
H 	H 	0.53070 0.51800 0.97240 -0.04100
H 	H 	0.57080 0.49760 0.01310 -0.03200
C 	C 	0.58677 0.60950 0.95489 0.29700
C 	C 	0.58767 0.44760 0.94831 -0.30100
H 	H 	0.57750 0.37590 0.96070 0.14200
C 	C 	0.60380 0.39270 0.92310 0.16400
H 	H 	0.60550 0.28370 0.91960 -0.03900
C 	C 	0.61760 0.50040 0.90290 -0.20700
C 	C 	0.61720 0.65790 0.90980 0.16100
H 	H 	0.62770 0.72900 0.89760 -0.00700
C 	C 	0.60110 0.71560 0.93540 -0.27900
H 	H 	0.60010 0.82470 0.93930 0.12900
C 	C 	0.63380 0.43670 0.87460 0.38100
H 	H 	0.62100 0.19670 0.87860 0.16900
Zn	Zn	0.66925 0.46733 0.82298 1.21300
O 	O 	0.90766 0.30300 0.97786 -0.28900
O 	O 	0.08638 0.45350 0.12169 -0.30600
O 	O 	0.07270 0.17910 0.97952 -0.30600
O 	O 	0.73730 0.62370 0.86743 -0.32000
O 	O 	0.72138 0.36800 0.85530 -0.44500
O 	O 	0.15352 0.86250 0.28289 -0.50000
O 	O 	0.17790 0.98810 0.24970 -0.34300
O 	O 	0.14448 0.04030 0.85730 -0.44000
O 	O 	0.13640 0.78170 0.87230 -0.40800
C 	C 	0.99839 0.34630 0.05664 0.40800
C 	C 	0.03704 0.28030 0.07809 -0.35400
C 	C 	0.05550 0.19450 0.05836 0.42600
C 	C 	0.03442 0.17300 0.01622 -0.36200
C 	C 	0.99698 0.24620 0.99426 0.42600
C 	C 	0.97939 0.33780 0.01515 -0.33200
C 	C 	0.97740 0.42320 0.07950 -0.89700
H 	H 	0.99500 0.41950 0.10810 0.29500
H 	H 	0.97100 0.53210 0.07100 0.29000
H 	H 	0.95280 0.36640 0.07370 0.29400
C 	C 	0.09797 0.13020 0.08151 -0.95600
H 	H 	0.10800 0.15470 0.10980 0.32300
H 	H 	0.09770 0.01680 0.07800 0.30700
H 	H 	0.11520 0.17830 0.07140 0.32200
C 	C 	0.97548 0.23040 0.94861 -0.95900
H 	H 	0.95030 0.28700 0.93820 0.32900
H 	H 	0.99210 0.27430 0.93730 0.31600
H 	H 	0.97040 0.11990 0.94140 0.31500
C 	C 	0.93986 0.42310 0.99087 0.17700
H 	H 	0.94010 0.47470 0.96750 -0.01800
H 	H 	0.93560 0.50370 0.00740 -0.01700
C 	C 	0.86939 0.35620 0.95279 0.27600
C 	C 	0.84009 0.23710 0.93712 -0.26300
H 	H 	0.84710 0.13090 0.94370 0.12800
C 	C 	0.80047 0.27910 0.91161 0.13900
H 	H 	0.78070 0.20040 0.90150 0.00500
C 	C 	0.78993 0.43600 0.90095 -0.16800
C 	C 	0.81931 0.55300 0.91834 0.14900
H 	H 	0.81210 0.65940 0.91220 -0.00900
C 	C 	0.85833 0.51540 0.94411 -0.27600
H 	H 	0.87750 0.59550 0.95580 0.13000
C 	C 	0.74652 0.48510 0.87251 0.35000
C 	C 	0.06117 0.32320 0.12220 0.23700
H 	H 	0.04350 0.35610 0.13390 -0.06600
H 	H 	0.07750 0.23390 0.13760 -0.05500
C 	C 	0.10353 0.55100 0.15538 0.32500
C 	C 	0.12410 0.68260 0.15070 -0.33300
H 	H 	0.12680 0.69700 0.12710 0.15200
C 	C 	0.14020 0.78940 0.18180 0.22300
H 	H 	0.15240 0.88100 0.17840 -0.03400
C 	C 	0.13881 0.76640 0.21777 -0.26500
C 	C 	0.11990 0.63540 0.22235 0.22100
H 	H 	0.11870 0.61910 0.24670 -0.03600
C 	C 	0.10240 0.52590 0.19150 -0.33900
H 	H 	0.08980 0.43560 0.19520 0.13900
C 	C 	0.15630 0.88570 0.25220 0.45800
C 	C 	0.05201 0.07490 0.99466 0.23300
H 	H 	0.03070 0.01800 0.97240 -0.04100
H 	H 	0.07080 0.99760 0.01310 -0.03500
C 	C 	0.08677 0.10950 0.95489 0.29400
C 	C 	0.08767 0.94760 0.94831 -0.29100
H 	H 	0.07750 0.87590 0.96070 0.13800
C 	C 	0.10380 0.89270 0.92310 0.12500
H 	H 	0.10550 0.78370 0.91960 -0.02600
C 	C 	0.11760 0.00040 0.90290 -0.15700
C 	C 	0.11720 0.15790 0.90980 0.13200
H 	H 	0.12770 0.22900 0.89760 0.00300
C 	C 	0.10110 0.21560 0.93540 -0.26200
H 	H 	0.10010 0.32470 0.93930 0.12300
C 	C 	0.13380 0.93670 0.87460 0.33700
H 	H 	0.12100 0.69670 0.87860 0.16500
