data_crystal

_cell_length_a 7.60330
_cell_length_b 9.35200
_cell_length_c 15.19300
_cell_angle_alpha 89.33000
_cell_angle_beta  80.57000
_cell_angle_gamma 85.89700

_symmetry_space_group_name_	'P 1'
_symmetry_space_group_name_H-M	'P 1'

loop_
_symmetry_equiv_pos_as_xyz
  x,y,z

loop_
_atom_site_label
_atom_site_type_symbol
_atom_site_fract_x
_atom_site_fract_y
_atom_site_fract_z
_atom_site_charge
Zn	Zn	0.10546 0.37983 0.23670 1.21400
O 	O 	0.25550 0.13770 0.21360 -0.34200
O 	O 	0.25680 0.31450 0.11860 -0.42600
O 	O 	0.26060 0.45420 0.31260 -0.45100
O 	O 	0.14310 0.32000 0.42220 -0.30900
N 	N 	0.00300 0.56170 0.18270 -0.22900
N 	N 	0.84740 0.63060 0.22870 -0.11100
N 	N 	0.95620 0.76370 0.11480 -0.15400
N 	N 	0.87730 0.28590 0.28290 -0.23100
N 	N 	0.73650 0.28410 0.23560 -0.10500
N 	N 	0.67550 0.16270 0.36040 -0.14800
C 	C 	0.98000 0.88310 0.05480 0.09700
C 	C 	0.05890 0.86490 0.96820 -0.07400
H 	H 	0.09900 0.77370 0.94660 0.06200
C 	C 	0.92080 0.01740 0.08750 -0.07600
H 	H 	0.86730 0.02910 0.14680 0.06900
C 	C 	0.06310 0.64350 0.11680 0.11900
H 	H 	0.16680 0.62170 0.07620 -0.00800
C 	C 	0.82400 0.74920 0.18550 0.10500
H 	H 	0.72790 0.81640 0.20110 0.00400
C 	C 	0.58310 0.07970 0.43300 0.10100
C 	C 	0.48920 0.96840 0.41170 -0.07200
H 	H 	0.48250 0.94790 0.35260 0.07000
C 	C 	0.59590 0.11280 0.51840 -0.07700
H 	H 	0.66070 0.18890 0.53020 0.07400
C 	C 	0.83610 0.21370 0.35720 0.10500
H 	H 	0.90780 0.20020 0.40110 0.01200
C 	C 	0.61840 0.20750 0.28390 0.09500
H 	H 	0.51020 0.18660 0.26780 0.01800
C 	C 	0.40350 0.09090 0.06560 -0.05000
C 	C 	0.46090 0.14170 0.98150 -0.02500
H 	H 	0.43520 0.23740 0.96810 0.05800
C 	C 	0.55690 0.05150 0.91630 -0.02700
H 	H 	0.59500 0.08750 0.85950 0.05600
C 	C 	0.29760 0.18900 0.13780 0.31200
C 	C 	0.37870 0.45760 0.44790 -0.06200
C 	C 	0.34250 0.44420 0.53900 -0.02000
H 	H 	0.23650 0.40700 0.56580 0.05100
C 	C 	0.46310 0.48570 0.59140 -0.02300
H 	H 	0.43800 0.47570 0.65300 0.05900
C 	C 	0.24860 0.40620 0.39220 0.34000
Zn	Zn	0.89454 0.62017 0.76330 1.21300
O 	O 	0.74450 0.86230 0.78640 -0.34300
O 	O 	0.74320 0.68550 0.88140 -0.42600
O 	O 	0.73940 0.54580 0.68740 -0.45100
O 	O 	0.85690 0.68000 0.57780 -0.30900
N 	N 	0.99700 0.43830 0.81730 -0.22900
N 	N 	0.15260 0.36940 0.77130 -0.11100
N 	N 	0.04380 0.23630 0.88520 -0.15400
N 	N 	0.12270 0.71410 0.71710 -0.23100
N 	N 	0.26350 0.71590 0.76440 -0.10500
N 	N 	0.32450 0.83730 0.63960 -0.14800
C 	C 	0.02000 0.11690 0.94520 0.09700
C 	C 	0.94110 0.13510 0.03180 -0.07400
H 	H 	0.90100 0.22630 0.05340 0.06200
C 	C 	0.07920 0.98260 0.91250 -0.07600
H 	H 	0.13270 0.97090 0.85320 0.06900
C 	C 	0.93690 0.35650 0.88320 0.11900
H 	H 	0.83320 0.37830 0.92380 -0.00800
C 	C 	0.17600 0.25080 0.81450 0.10500
H 	H 	0.27210 0.18360 0.79890 0.00400
C 	C 	0.41690 0.92030 0.56700 0.10100
C 	C 	0.51080 0.03160 0.58830 -0.07200
H 	H 	0.51750 0.05210 0.64740 0.07000
C 	C 	0.40410 0.88720 0.48160 -0.07700
H 	H 	0.33930 0.81110 0.46980 0.07400
C 	C 	0.16390 0.78630 0.64280 0.10500
H 	H 	0.09220 0.79980 0.59890 0.01200
C 	C 	0.38160 0.79250 0.71610 0.09500
H 	H 	0.48980 0.81340 0.73220 0.01800
C 	C 	0.59650 0.90910 0.93440 -0.05000
C 	C 	0.53910 0.85830 0.01850 -0.02500
H 	H 	0.56480 0.76260 0.03190 0.05800
C 	C 	0.44310 0.94850 0.08370 -0.02700
H 	H 	0.40500 0.91250 0.14050 0.05600
C 	C 	0.70240 0.81100 0.86220 0.31200
C 	C 	0.62130 0.54240 0.55210 -0.06200
C 	C 	0.65750 0.55580 0.46100 -0.02000
H 	H 	0.76350 0.59300 0.43420 0.05100
C 	C 	0.53690 0.51430 0.40860 -0.02300
H 	H 	0.56200 0.52430 0.34700 0.05900
C 	C 	0.75140 0.59380 0.60780 0.34000
