data_crystal

_cell_length_a 11.48840
_cell_length_b 13.65130
_cell_length_c 12.79910
_cell_angle_alpha 90.00000
_cell_angle_beta  100.92000
_cell_angle_gamma 90.00000

_symmetry_space_group_name_	'P 1'
_symmetry_space_group_name_H-M	'P 1'

loop_
_symmetry_equiv_pos_as_xyz
  x,y,z

loop_
_atom_site_label
_atom_site_type_symbol
_atom_site_fract_x
_atom_site_fract_y
_atom_site_fract_z
_atom_site_charge
C 	C 	0.96740 0.99470 0.69750 -0.04100
C 	C 	0.16020 0.92080 0.66110 -0.01600
C 	C 	0.21560 0.09570 0.59720 -0.01700
C 	C 	0.02620 0.16510 0.63910 -0.03700
C 	C 	0.15010 0.96540 0.86900 -0.04200
C 	C 	0.32230 0.02720 0.78240 -0.06100
C 	C 	0.22550 0.19780 0.79250 -0.03100
C 	C 	0.03140 0.12760 0.83860 -0.03100
C 	C 	0.46710 0.95240 0.50150 0.21200
Co	Co	0.69825 0.91562 0.62231 1.11400
Co	Co	0.84265 0.21534 0.96639 1.07000
N 	N 	0.87360 0.96490 0.67880 -0.24000
N 	N 	0.17110 0.85010 0.62100 -0.24600
N 	N 	0.25420 0.11220 0.52680 -0.22300
N 	N 	0.96850 0.21700 0.58240 -0.24100
N 	N 	0.15650 0.91250 0.94230 -0.24800
N 	N 	0.42350 0.00860 0.80030 -0.12200
N 	N 	0.26630 0.27270 0.82230 -0.23900
N 	N 	0.97400 0.16070 0.89210 -0.25200
O 	O 	0.36590 0.94610 0.44470 -0.40000
O 	O 	0.51830 0.88430 0.55760 -0.39400
W 	W 	0.13932 0.06166 0.73581 0.48600
C 	C 	0.03260 0.49470 0.80250 -0.03700
C 	C 	0.83980 0.42080 0.83890 -0.02200
C 	C 	0.78440 0.59570 0.90280 -0.01800
C 	C 	0.97380 0.66510 0.86090 -0.04200
C 	C 	0.84990 0.46540 0.63100 -0.04800
C 	C 	0.67770 0.52720 0.71760 -0.06000
C 	C 	0.77450 0.69780 0.70750 -0.03100
C 	C 	0.96860 0.62760 0.66140 -0.03400
C 	C 	0.53290 0.45240 0.99850 0.21200
Co	Co	0.30175 0.41562 0.87769 1.11400
Co	Co	0.15735 0.71534 0.53361 1.07200
N 	N 	0.12640 0.46490 0.82120 -0.24000
N 	N 	0.82890 0.35010 0.87900 -0.24600
N 	N 	0.74580 0.61220 0.97320 -0.22300
N 	N 	0.03150 0.71700 0.91760 -0.23600
N 	N 	0.84350 0.41250 0.55770 -0.25000
N 	N 	0.57650 0.50860 0.69970 -0.12100
N 	N 	0.73370 0.77270 0.67770 -0.23900
N 	N 	0.02600 0.66070 0.60790 -0.24800
O 	O 	0.63410 0.44610 0.05530 -0.39800
O 	O 	0.48170 0.38430 0.94240 -0.39500
W 	W 	0.86068 0.56166 0.76419 0.49100
C 	C 	0.03260 0.00530 0.30250 -0.04200
C 	C 	0.83980 0.07920 0.33890 -0.01700
C 	C 	0.78440 0.90430 0.40280 -0.01800
C 	C 	0.97380 0.83490 0.36090 -0.03800
C 	C 	0.84990 0.03460 0.13100 -0.04200
C 	C 	0.67770 0.97280 0.21760 -0.06100
C 	C 	0.77450 0.80220 0.20750 -0.03100
C 	C 	0.96860 0.87240 0.16140 -0.03100
C 	C 	0.53290 0.04760 0.49850 0.21200
Co	Co	0.30175 0.08438 0.37769 1.11400
Co	Co	0.15735 0.78466 0.03361 1.07000
N 	N 	0.12640 0.03510 0.32120 -0.24000
N 	N 	0.82890 0.14990 0.37900 -0.24600
N 	N 	0.74580 0.88780 0.47320 -0.22300
N 	N 	0.03150 0.78300 0.41760 -0.24100
N 	N 	0.84350 0.08750 0.05770 -0.24800
N 	N 	0.57650 0.99140 0.19970 -0.12200
N 	N 	0.73370 0.72730 0.17770 -0.23900
N 	N 	0.02600 0.83930 0.10790 -0.25200
O 	O 	0.63410 0.05390 0.55530 -0.40000
O 	O 	0.48170 0.11570 0.44240 -0.39400
W 	W 	0.86068 0.93834 0.26419 0.48600
C 	C 	0.96740 0.50530 0.19750 -0.03700
C 	C 	0.16020 0.57920 0.16110 -0.02200
C 	C 	0.21560 0.40430 0.09720 -0.01800
C 	C 	0.02620 0.33490 0.13910 -0.04200
C 	C 	0.15010 0.53460 0.36900 -0.04800
C 	C 	0.32230 0.47280 0.28240 -0.06000
C 	C 	0.22550 0.30220 0.29250 -0.03100
C 	C 	0.03140 0.37240 0.33860 -0.03400
C 	C 	0.46710 0.54760 0.00150 0.21200
Co	Co	0.69825 0.58438 0.12231 1.11400
Co	Co	0.84265 0.28466 0.46639 1.07200
N 	N 	0.87360 0.53510 0.17880 -0.24000
N 	N 	0.17110 0.64990 0.12100 -0.24600
N 	N 	0.25420 0.38780 0.02680 -0.22300
N 	N 	0.96850 0.28300 0.08240 -0.23600
N 	N 	0.15650 0.58750 0.44230 -0.25000
N 	N 	0.42350 0.49140 0.30030 -0.12100
N 	N 	0.26630 0.22730 0.32230 -0.23900
N 	N 	0.97400 0.33930 0.39210 -0.24800
O 	O 	0.36590 0.55390 0.94470 -0.39800
O 	O 	0.51830 0.61570 0.05760 -0.39500
W 	W 	0.13932 0.43834 0.23581 0.49100
