data_crystal

_cell_length_a 10.31630
_cell_length_b 10.31630
_cell_length_c 33.09500
_cell_angle_alpha 90.00000
_cell_angle_beta  90.00000
_cell_angle_gamma 90.00000

_symmetry_space_group_name_	'P 1'
_symmetry_space_group_name_H-M	'P 1'

loop_
_symmetry_equiv_pos_as_xyz
  x,y,z

loop_
_atom_site_label
_atom_site_type_symbol
_atom_site_fract_x
_atom_site_fract_y
_atom_site_fract_z
_atom_site_charge
C 	C 	0.14840 0.59140 0.07360 -0.08500
H 	H 	0.21510 0.60330 0.05370 0.04700
C 	C 	0.17520 0.61850 0.11322 0.18500
C 	C 	0.08000 0.60040 0.14212 -0.20200
H 	H 	0.09740 0.61690 0.17020 0.10500
C 	C 	0.96150 0.55780 0.12977 0.06300
H 	H 	0.89310 0.54430 0.14900 0.02700
C 	C 	0.94000 0.53370 0.08937 0.02800
H 	H 	0.85580 0.50560 0.08070 0.02000
C 	C 	0.38820 0.70160 0.09844 -0.03600
H 	H 	0.41560 0.63040 0.08180 0.05600
H 	H 	0.35590 0.76980 0.08140 0.06000
N 	N 	0.03220 0.54930 0.06146 -0.22800
N 	N 	0.86570 0.35150 0.01968 -0.18400
N 	N 	0.85510 0.24310 0.01082 -0.04400
N 	N 	0.83980 0.13340 0.00187 -0.19800
O 	O 	0.29120 0.66120 0.12682 -0.21600
C 	C 	0.64840 0.09140 0.57360 -0.07500
H 	H 	0.71510 0.10330 0.55370 0.04300
C 	C 	0.67520 0.11850 0.61322 0.16100
C 	C 	0.58000 0.10040 0.64212 -0.13200
H 	H 	0.59740 0.11690 0.67020 0.08000
C 	C 	0.46150 0.05780 0.62977 -0.01100
H 	H 	0.39310 0.04430 0.64900 0.03000
C 	C 	0.44000 0.03370 0.58937 0.00500
H 	H 	0.35580 0.00560 0.58070 0.00900
C 	C 	0.88820 0.20160 0.59844 0.05600
H 	H 	0.91560 0.13040 0.58180 0.03500
H 	H 	0.85590 0.26980 0.58140 0.03800
N 	N 	0.53220 0.04930 0.56146 -0.21200
N 	N 	0.36570 0.85150 0.51968 -0.17200
N 	N 	0.35510 0.74310 0.51082 -0.04300
N 	N 	0.33980 0.63340 0.50187 -0.18800
O 	O 	0.79120 0.16120 0.62682 -0.22900
C 	C 	0.35160 0.40860 0.57360 -0.06600
H 	H 	0.28490 0.39670 0.55370 0.04400
C 	C 	0.32480 0.38150 0.61322 0.16300
C 	C 	0.42000 0.39960 0.64212 -0.12300
H 	H 	0.40260 0.38310 0.67020 0.08500
C 	C 	0.53850 0.44220 0.62977 -0.00700
H 	H 	0.60690 0.45570 0.64900 0.04300
C 	C 	0.56000 0.46630 0.58937 0.01300
H 	H 	0.64420 0.49440 0.58070 0.02400
C 	C 	0.11180 0.29840 0.59844 0.03100
H 	H 	0.08440 0.36960 0.58180 0.02900
H 	H 	0.14410 0.23020 0.58140 0.03500
N 	N 	0.46780 0.45070 0.56146 -0.20500
N 	N 	0.63430 0.64850 0.51968 -0.18500
N 	N 	0.64490 0.75690 0.51082 -0.04000
N 	N 	0.66020 0.86660 0.50187 -0.16900
O 	O 	0.20880 0.33880 0.62682 -0.22400
C 	C 	0.85160 0.90860 0.07360 -0.03700
H 	H 	0.78490 0.89670 0.05370 0.04400
C 	C 	0.82480 0.88150 0.11322 0.13700
C 	C 	0.92000 0.89960 0.14212 -0.03300
H 	H 	0.90260 0.88310 0.17020 0.07900
C 	C 	0.03850 0.94220 0.12977 -0.07700
H 	H 	0.10690 0.95570 0.14900 0.07500
C 	C 	0.06000 0.96630 0.08937 0.00500
H 	H 	0.14420 0.99440 0.08070 0.03600
C 	C 	0.61180 0.79840 0.09844 -0.04700
H 	H 	0.58440 0.86960 0.08180 0.06900
H 	H 	0.64410 0.73020 0.08140 0.06300
N 	N 	0.96780 0.95070 0.06146 -0.17300
N 	N 	0.13430 0.14850 0.01968 -0.21200
N 	N 	0.14490 0.25690 0.01082 -0.05300
N 	N 	0.16020 0.36660 0.00187 -0.20200
O 	O 	0.70880 0.83880 0.12682 -0.19400
C 	C 	0.15860 0.39840 0.32360 -0.06600
H 	H 	0.14670 0.46510 0.30370 0.04000
C 	C 	0.13150 0.42520 0.36322 0.14900
C 	C 	0.14960 0.33000 0.39212 -0.12200
H 	H 	0.13310 0.34740 0.42020 0.07800
C 	C 	0.19220 0.21150 0.37977 -0.01700
H 	H 	0.20570 0.14310 0.39900 0.02800
C 	C 	0.21630 0.19000 0.33937 0.00800
H 	H 	0.24440 0.10580 0.33070 0.00700
C 	C 	0.04840 0.63820 0.34844 -0.07800
H 	H 	0.11960 0.66560 0.33180 0.07000
H 	H 	0.98020 0.60590 0.33140 0.10000
N 	N 	0.20070 0.28220 0.31146 -0.21000
N 	N 	0.39850 0.11570 0.26968 -0.19800
N 	N 	0.50690 0.10510 0.26082 -0.05000
N 	N 	0.61660 0.08980 0.25187 -0.19800
O 	O 	0.08880 0.54120 0.37682 -0.20800
C 	C 	0.65860 0.89840 0.82360 -0.09300
H 	H 	0.64670 0.96510 0.80370 0.07300
C 	C 	0.63150 0.92520 0.86322 0.24200
C 	C 	0.64960 0.83000 0.89212 -0.15900
H 	H 	0.63310 0.84740 0.92020 0.11500
C 	C 	0.69220 0.71150 0.87977 0.02200
H 	H 	0.70570 0.64310 0.89900 0.03800
C 	C 	0.71630 0.69000 0.83937 0.00300
H 	H 	0.74440 0.60580 0.83070 0.02800
C 	C 	0.54840 0.13820 0.84844 0.00500
H 	H 	0.61960 0.16560 0.83180 0.03800
H 	H 	0.48020 0.10590 0.83140 0.03300
N 	N 	0.70070 0.78220 0.81146 -0.19500
N 	N 	0.89850 0.61570 0.76968 -0.16700
N 	N 	0.00690 0.60510 0.76082 -0.06900
N 	N 	0.11660 0.58980 0.75187 -0.19100
O 	O 	0.58880 0.04120 0.87682 -0.26600
C 	C 	0.34140 0.60160 0.82360 -0.06600
H 	H 	0.35330 0.53490 0.80370 0.04400
C 	C 	0.36850 0.57480 0.86322 0.16000
C 	C 	0.35040 0.67000 0.89212 -0.12100
H 	H 	0.36690 0.65260 0.92020 0.09000
C 	C 	0.30780 0.78850 0.87977 -0.00800
H 	H 	0.29430 0.85690 0.89900 0.05700
C 	C 	0.28370 0.81000 0.83937 0.01300
H 	H 	0.25560 0.89420 0.83070 0.03400
C 	C 	0.45160 0.36180 0.84844 -0.02000
H 	H 	0.38040 0.33440 0.83180 0.05100
H 	H 	0.51980 0.39410 0.83140 0.05500
N 	N 	0.29930 0.71780 0.81146 -0.20600
N 	N 	0.10150 0.88430 0.76968 -0.20100
N 	N 	0.99310 0.89490 0.76082 -0.01300
N 	N 	0.88340 0.91020 0.75187 -0.17500
O 	O 	0.41120 0.45880 0.87682 -0.21200
C 	C 	0.84140 0.10160 0.32360 -0.03700
H 	H 	0.85330 0.03490 0.30370 0.02700
C 	C 	0.86850 0.07480 0.36322 0.09300
C 	C 	0.85040 0.17000 0.39212 -0.08600
H 	H 	0.86690 0.15260 0.42020 0.06900
C 	C 	0.80780 0.28850 0.37977 -0.03000
H 	H 	0.79430 0.35690 0.39900 0.05300
C 	C 	0.78370 0.31000 0.33937 0.02700
H 	H 	0.75560 0.39420 0.33070 0.02000
C 	C 	0.95160 0.86180 0.34844 0.07900
H 	H 	0.88040 0.83440 0.33180 0.04000
H 	H 	0.01980 0.89410 0.33140 0.01900
N 	N 	0.79930 0.21780 0.31146 -0.21300
N 	N 	0.60150 0.38430 0.26968 -0.18800
N 	N 	0.49310 0.39490 0.26082 -0.04400
N 	N 	0.38340 0.41020 0.25187 -0.18800
O 	O 	0.91120 0.95880 0.37682 -0.17000
C 	C 	0.85160 0.40860 0.92640 -0.04300
H 	H 	0.78490 0.39670 0.94630 0.04700
C 	C 	0.82480 0.38150 0.88678 0.13400
C 	C 	0.92000 0.39960 0.85788 -0.04100
H 	H 	0.90260 0.38310 0.82980 0.06800
C 	C 	0.03850 0.44220 0.87023 -0.08000
H 	H 	0.10690 0.45570 0.85100 0.06000
C 	C 	0.06000 0.46630 0.91063 -0.00000
H 	H 	0.14420 0.49440 0.91930 0.02600
C 	C 	0.61180 0.29840 0.90156 -0.02700
H 	H 	0.58440 0.36960 0.91820 0.05900
H 	H 	0.64410 0.23020 0.91860 0.06000
N 	N 	0.96780 0.45070 0.93854 -0.17600
N 	N 	0.13430 0.64850 0.98032 -0.18400
N 	N 	0.14490 0.75690 0.98918 -0.04200
N 	N 	0.16020 0.86660 0.99813 -0.16500
O 	O 	0.70880 0.33880 0.87318 -0.20400
C 	C 	0.35160 0.90860 0.42640 -0.05900
H 	H 	0.28490 0.89670 0.44630 0.05200
C 	C 	0.32480 0.88150 0.38678 0.16800
C 	C 	0.42000 0.89960 0.35788 -0.11500
H 	H 	0.40260 0.88310 0.32980 0.09600
C 	C 	0.53850 0.94220 0.37023 -0.00200
H 	H 	0.60690 0.95570 0.35100 0.05800
C 	C 	0.56000 0.96630 0.41063 0.02000
H 	H 	0.64420 0.99440 0.41930 0.03800
C 	C 	0.11180 0.79840 0.40156 0.00100
H 	H 	0.08440 0.86960 0.41820 0.04700
H 	H 	0.14410 0.73020 0.41860 0.04700
N 	N 	0.46780 0.95070 0.43854 -0.19300
N 	N 	0.63430 0.14850 0.48032 -0.19900
N 	N 	0.64490 0.25690 0.48918 -0.04400
N 	N 	0.66020 0.36660 0.49813 -0.18700
O 	O 	0.20880 0.83880 0.37318 -0.21100
C 	C 	0.64840 0.59140 0.42640 -0.06800
H 	H 	0.71510 0.60330 0.44630 0.05000
C 	C 	0.67520 0.61850 0.38678 0.16500
C 	C 	0.58000 0.60040 0.35788 -0.12500
H 	H 	0.59740 0.61690 0.32980 0.09100
C 	C 	0.46150 0.55780 0.37023 -0.00700
H 	H 	0.39310 0.54430 0.35100 0.04300
C 	C 	0.44000 0.53370 0.41063 0.01100
H 	H 	0.35580 0.50560 0.41930 0.02200
C 	C 	0.88820 0.70160 0.40156 0.02500
H 	H 	0.91560 0.63040 0.41820 0.05300
H 	H 	0.85590 0.76980 0.41860 0.05000
N 	N 	0.53220 0.54930 0.43854 -0.20500
N 	N 	0.36570 0.35150 0.48032 -0.19100
N 	N 	0.35510 0.24310 0.48918 -0.04600
N 	N 	0.33980 0.13340 0.49813 -0.20100
O 	O 	0.79120 0.66120 0.37318 -0.21600
C 	C 	0.14840 0.09140 0.92640 -0.09100
H 	H 	0.21510 0.10330 0.94630 0.05100
C 	C 	0.17520 0.11850 0.88678 0.18200
C 	C 	0.08000 0.10040 0.85788 -0.20800
H 	H 	0.09740 0.11690 0.82980 0.09400
C 	C 	0.96150 0.05780 0.87023 0.05900
H 	H 	0.89310 0.04430 0.85100 0.01400
C 	C 	0.94000 0.03370 0.91063 0.02200
H 	H 	0.85580 0.00560 0.91930 0.01200
C 	C 	0.38820 0.20160 0.90156 -0.01600
H 	H 	0.41560 0.13040 0.91820 0.04700
H 	H 	0.35590 0.26980 0.91860 0.05600
N 	N 	0.03220 0.04930 0.93854 -0.22500
N 	N 	0.86570 0.85150 0.98032 -0.15200
N 	N 	0.85510 0.74310 0.98918 -0.03400
N 	N 	0.83980 0.63340 0.99813 -0.16700
O 	O 	0.29120 0.16120 0.87318 -0.22700
C 	C 	0.84140 0.60160 0.67640 -0.06800
H 	H 	0.85330 0.53490 0.69630 0.05400
C 	C 	0.86850 0.57480 0.63678 0.17900
C 	C 	0.85040 0.67000 0.60788 -0.12500
H 	H 	0.86690 0.65260 0.57980 0.09700
C 	C 	0.80780 0.78850 0.62023 0.00200
H 	H 	0.79430 0.85690 0.60100 0.05900
C 	C 	0.78370 0.81000 0.66063 0.01600
H 	H 	0.75560 0.89420 0.66930 0.03800
C 	C 	0.95160 0.36180 0.65156 0.13400
H 	H 	0.88040 0.33440 0.66820 0.01100
H 	H 	0.01980 0.39410 0.66860 -0.01500
N 	N 	0.79930 0.71780 0.68854 -0.20100
N 	N 	0.60150 0.88430 0.73032 -0.17900
N 	N 	0.49310 0.89490 0.73918 -0.03800
N 	N 	0.38340 0.91020 0.74813 -0.17800
O 	O 	0.91120 0.45880 0.62318 -0.23200
C 	C 	0.34140 0.10160 0.17640 -0.03400
H 	H 	0.35330 0.03490 0.19630 0.01700
C 	C 	0.36850 0.07480 0.13678 0.07200
C 	C 	0.35040 0.17000 0.10788 -0.08000
H 	H 	0.36690 0.15260 0.07980 0.05700
C 	C 	0.30780 0.28850 0.12023 -0.04200
H 	H 	0.29430 0.35690 0.10100 0.05000
C 	C 	0.28370 0.31000 0.16063 0.02400
H 	H 	0.25560 0.39420 0.16930 0.01600
C 	C 	0.45160 0.86180 0.15156 -0.06900
H 	H 	0.38040 0.83440 0.16820 0.07800
H 	H 	0.51980 0.89410 0.16860 0.08700
N 	N 	0.29930 0.21780 0.18854 -0.21800
N 	N 	0.10150 0.38430 0.23032 -0.21000
N 	N 	0.99310 0.39490 0.23918 -0.01800
N 	N 	0.88340 0.41020 0.24813 -0.18400
O 	O 	0.41120 0.95880 0.12318 -0.15100
C 	C 	0.65860 0.39840 0.17640 -0.06300
H 	H 	0.64670 0.46510 0.19630 0.04700
C 	C 	0.63150 0.42520 0.13678 0.15800
C 	C 	0.64960 0.33000 0.10788 -0.12000
H 	H 	0.63310 0.34740 0.07980 0.08200
C 	C 	0.69220 0.21150 0.12023 -0.01100
H 	H 	0.70570 0.14310 0.10100 0.03100
C 	C 	0.71630 0.19000 0.16063 0.01400
H 	H 	0.74440 0.10580 0.16930 0.01000
C 	C 	0.54840 0.63820 0.15156 -0.04300
H 	H 	0.61960 0.66560 0.16820 0.06500
H 	H 	0.48020 0.60590 0.16860 0.06400
N 	N 	0.70070 0.28220 0.18854 -0.20600
N 	N 	0.89850 0.11570 0.23032 -0.17500
N 	N 	0.00690 0.10510 0.23918 -0.07600
N 	N 	0.11660 0.08980 0.24813 -0.20200
O 	O 	0.58880 0.54120 0.12318 -0.20900
C 	C 	0.15860 0.89840 0.67640 -0.09700
H 	H 	0.14670 0.96510 0.69630 0.06600
C 	C 	0.13150 0.92520 0.63678 0.23300
C 	C 	0.14960 0.83000 0.60788 -0.16000
H 	H 	0.13310 0.84740 0.57980 0.10600
C 	C 	0.19220 0.71150 0.62023 0.01500
H 	H 	0.20570 0.64310 0.60100 0.03400
C 	C 	0.21630 0.69000 0.66063 -0.00200
H 	H 	0.24440 0.60580 0.66930 0.02600
C 	C 	0.04840 0.13820 0.65156 -0.02400
H 	H 	0.11960 0.16560 0.66820 0.04200
H 	H 	0.98020 0.10590 0.66860 0.06700
N 	N 	0.20070 0.78220 0.68854 -0.19800
N 	N 	0.39850 0.61570 0.73032 -0.18900
N 	N 	0.50690 0.60510 0.73918 -0.04400
N 	N 	0.61660 0.58980 0.74813 -0.18800
O 	O 	0.08880 0.04120 0.62318 -0.26800
C 	C 	0.50000 0.75000 0.12500 0.07500
C 	C 	-0.00000 0.25000 0.62500 -0.05100
C 	C 	-0.00000 0.75000 0.37500 -0.01100
C 	C 	0.50000 0.25000 0.87500 0.04300
Co	Co	-0.00000 0.50000 -0.00000 1.09200
Co	Co	0.50000 0.00000 0.50000 1.09900
Co	Co	0.50000 0.50000 0.50000 1.12200
Co	Co	-0.00000 0.00000 -0.00000 1.07000
Co	Co	0.25000 0.25000 0.25000 1.11900
Co	Co	0.75000 0.75000 0.75000 1.12400
Co	Co	0.25000 0.75000 0.75000 1.12100
Co	Co	0.75000 0.25000 0.25000 1.12200
