data_crystal

_cell_length_a 24.87180
_cell_length_b 13.75910
_cell_length_c 13.68320
_cell_angle_alpha 90.00000
_cell_angle_beta  98.94900
_cell_angle_gamma 90.00000

_symmetry_space_group_name_	'P 1'
_symmetry_space_group_name_H-M	'P 1'

loop_
_symmetry_equiv_pos_as_xyz
  x,y,z

loop_
_atom_site_label
_atom_site_type_symbol
_atom_site_fract_x
_atom_site_fract_y
_atom_site_fract_z
_atom_site_charge
Nd	Nd	0.16993 0.21598 0.46114 1.97100
C 	C 	0.07445 0.28171 0.53794 0.33100
C 	C 	0.02339 0.31325 0.57545 -0.12700
C 	C 	0.98491 0.24410 0.59280 0.05300
H 	H 	0.99210 0.17800 0.58800 0.01200
C 	C 	0.93579 0.27560 0.61740 -0.14700
H 	H 	0.90990 0.22960 0.62790 0.07700
C 	C 	0.92389 0.37343 0.62696 0.09700
C 	C 	0.96297 0.44110 0.61123 -0.14600
H 	H 	0.95620 0.50720 0.61690 0.07400
C 	C 	0.01210 0.40952 0.58702 0.05600
H 	H 	0.03840 0.45540 0.57830 0.01800
C 	C 	0.86872 0.40076 0.64894 -0.08100
C 	C 	0.84673 0.34646 0.71905 0.05000
H 	H 	0.86780 0.29910 0.75530 0.02400
C 	C 	0.79315 0.36262 0.73541 -0.17600
C 	C 	0.76212 0.43227 0.67891 0.10000
H 	H 	0.72570 0.44020 0.68520 0.00400
C 	C 	0.78493 0.49013 0.61314 -0.18100
C 	C 	0.83883 0.47531 0.59998 0.04300
H 	H 	0.85460 0.51590 0.55810 0.01200
C 	C 	0.77148 0.30586 0.81514 0.47500
C 	C 	0.75045 0.56796 0.55919 0.43400
O 	O 	0.10647 0.34469 0.51580 -0.43000
O 	O 	0.08320 0.19170 0.52801 -0.45600
O 	O 	0.77221 0.64288 0.52902 -0.59600
O 	O 	0.69943 0.55746 0.54456 -0.46700
O 	O 	0.72277 0.32574 0.82768 -0.52400
O 	O 	0.80151 0.24627 0.86159 -0.49900
Nd	Nd	0.66993 0.71598 0.46114 1.97000
C 	C 	0.57445 0.78171 0.53794 0.33000
C 	C 	0.52339 0.81325 0.57545 -0.12700
C 	C 	0.48491 0.74410 0.59280 0.05300
H 	H 	0.49210 0.67800 0.58800 0.01200
C 	C 	0.43579 0.77560 0.61740 -0.14800
H 	H 	0.40990 0.72960 0.62790 0.07700
C 	C 	0.42389 0.87343 0.62696 0.09800
C 	C 	0.46297 0.94110 0.61123 -0.14700
H 	H 	0.45620 0.00720 0.61690 0.07400
C 	C 	0.51210 0.90952 0.58702 0.05700
H 	H 	0.53840 0.95540 0.57830 0.01800
C 	C 	0.36872 0.90076 0.64894 -0.08100
C 	C 	0.34673 0.84646 0.71905 0.05000
H 	H 	0.36780 0.79910 0.75530 0.02400
C 	C 	0.29315 0.86262 0.73541 -0.17600
C 	C 	0.26212 0.93227 0.67891 0.10000
H 	H 	0.22570 0.94020 0.68520 0.00400
C 	C 	0.28493 0.99013 0.61314 -0.18100
C 	C 	0.33883 0.97531 0.59998 0.04300
H 	H 	0.35460 0.01590 0.55810 0.01200
C 	C 	0.27148 0.80586 0.81514 0.47500
C 	C 	0.25045 0.06796 0.55919 0.43500
O 	O 	0.60647 0.84469 0.51580 -0.43000
O 	O 	0.58320 0.69170 0.52801 -0.45600
O 	O 	0.27221 0.14288 0.52902 -0.59600
O 	O 	0.19943 0.05746 0.54456 -0.46700
O 	O 	0.22277 0.82574 0.82768 -0.52400
O 	O 	0.30151 0.74627 0.86159 -0.50000
Nd	Nd	0.83007 0.21598 0.03886 1.96500
C 	C 	0.92555 0.28171 0.96206 0.33000
C 	C 	0.97661 0.31325 0.92455 -0.12500
C 	C 	0.01509 0.24410 0.90720 0.05100
H 	H 	0.00790 0.17800 0.91200 0.01200
C 	C 	0.06421 0.27560 0.88260 -0.14700
H 	H 	0.09010 0.22960 0.87210 0.07700
C 	C 	0.07611 0.37343 0.87304 0.09800
C 	C 	0.03703 0.44110 0.88877 -0.14900
H 	H 	0.04380 0.50720 0.88310 0.07400
C 	C 	0.98790 0.40952 0.91298 0.05800
H 	H 	0.96160 0.45540 0.92170 0.01800
C 	C 	0.13128 0.40076 0.85106 -0.08200
C 	C 	0.15327 0.34646 0.78095 0.05000
H 	H 	0.13220 0.29910 0.74470 0.02400
C 	C 	0.20685 0.36262 0.76459 -0.17600
C 	C 	0.23788 0.43227 0.82109 0.10000
H 	H 	0.27430 0.44020 0.81480 0.00400
C 	C 	0.21507 0.49013 0.88686 -0.18100
C 	C 	0.16117 0.47531 0.90002 0.04300
H 	H 	0.14540 0.51590 0.94190 0.01200
C 	C 	0.22852 0.30586 0.68486 0.47500
C 	C 	0.24955 0.56796 0.94081 0.43400
O 	O 	0.89353 0.34469 0.98420 -0.42900
O 	O 	0.91680 0.19170 0.97199 -0.45400
O 	O 	0.22779 0.64288 0.97098 -0.59600
O 	O 	0.30057 0.55746 0.95544 -0.46700
O 	O 	0.27723 0.32574 0.67232 -0.52400
O 	O 	0.19849 0.24627 0.63841 -0.49900
Nd	Nd	0.33007 0.71598 0.03886 1.97300
C 	C 	0.42555 0.78171 0.96206 0.33000
C 	C 	0.47661 0.81325 0.92455 -0.12700
C 	C 	0.51509 0.74410 0.90720 0.05400
H 	H 	0.50790 0.67800 0.91200 0.01200
C 	C 	0.56421 0.77560 0.88260 -0.14800
H 	H 	0.59010 0.72960 0.87210 0.07700
C 	C 	0.57611 0.87343 0.87304 0.09800
C 	C 	0.53703 0.94110 0.88877 -0.14800
H 	H 	0.54380 0.00720 0.88310 0.07500
C 	C 	0.48790 0.90952 0.91298 0.05700
H 	H 	0.46160 0.95540 0.92170 0.01800
C 	C 	0.63128 0.90076 0.85106 -0.08100
C 	C 	0.65327 0.84646 0.78095 0.05000
H 	H 	0.63220 0.79910 0.74470 0.02400
C 	C 	0.70685 0.86262 0.76459 -0.17600
C 	C 	0.73788 0.93227 0.82109 0.10000
H 	H 	0.77430 0.94020 0.81480 0.00400
C 	C 	0.71507 0.99013 0.88686 -0.18100
C 	C 	0.66117 0.97531 0.90002 0.04200
H 	H 	0.64540 0.01590 0.94190 0.01300
C 	C 	0.72852 0.80586 0.68486 0.47500
C 	C 	0.74955 0.06796 0.94081 0.43500
O 	O 	0.39353 0.84469 0.98420 -0.43100
O 	O 	0.41680 0.69170 0.97199 -0.45600
O 	O 	0.72779 0.14288 0.97098 -0.59500
O 	O 	0.80057 0.05746 0.95544 -0.46600
O 	O 	0.77723 0.82574 0.67232 -0.52400
O 	O 	0.69849 0.74627 0.63841 -0.49900
Nd	Nd	0.83007 0.78402 0.53886 1.97000
C 	C 	0.92555 0.71829 0.46206 0.33000
C 	C 	0.97661 0.68675 0.42455 -0.12700
C 	C 	0.01509 0.75590 0.40720 0.05300
H 	H 	0.00790 0.82200 0.41200 0.01200
C 	C 	0.06421 0.72440 0.38260 -0.14700
H 	H 	0.09010 0.77040 0.37210 0.07700
C 	C 	0.07611 0.62657 0.37304 0.09700
C 	C 	0.03703 0.55890 0.38877 -0.14600
H 	H 	0.04380 0.49280 0.38310 0.07400
C 	C 	0.98790 0.59048 0.41298 0.05600
H 	H 	0.96160 0.54460 0.42170 0.01800
C 	C 	0.13128 0.59924 0.35106 -0.08100
C 	C 	0.15327 0.65354 0.28095 0.05000
H 	H 	0.13220 0.70090 0.24470 0.02400
C 	C 	0.20685 0.63738 0.26459 -0.17600
C 	C 	0.23788 0.56773 0.32109 0.10000
H 	H 	0.27430 0.55980 0.31480 0.00400
C 	C 	0.21507 0.50987 0.38686 -0.18100
C 	C 	0.16117 0.52469 0.40002 0.04300
H 	H 	0.14540 0.48410 0.44190 0.01200
C 	C 	0.22852 0.69414 0.18486 0.47500
C 	C 	0.24955 0.43204 0.44081 0.43400
O 	O 	0.89353 0.65531 0.48420 -0.43000
O 	O 	0.91680 0.80830 0.47199 -0.45600
O 	O 	0.22779 0.35712 0.47098 -0.59600
O 	O 	0.30057 0.44254 0.45544 -0.46700
O 	O 	0.27723 0.67426 0.17232 -0.52400
O 	O 	0.19849 0.75373 0.13841 -0.49900
Nd	Nd	0.33007 0.28402 0.53886 1.97000
C 	C 	0.42555 0.21829 0.46206 0.33000
C 	C 	0.47661 0.18675 0.42455 -0.12700
C 	C 	0.51509 0.25590 0.40720 0.05300
H 	H 	0.50790 0.32200 0.41200 0.01200
C 	C 	0.56421 0.22440 0.38260 -0.14800
H 	H 	0.59010 0.27040 0.37210 0.07700
C 	C 	0.57611 0.12657 0.37304 0.09800
C 	C 	0.53703 0.05890 0.38877 -0.14700
H 	H 	0.54380 0.99280 0.38310 0.07400
C 	C 	0.48790 0.09048 0.41298 0.05700
H 	H 	0.46160 0.04460 0.42170 0.01800
C 	C 	0.63128 0.09924 0.35106 -0.08100
C 	C 	0.65327 0.15354 0.28095 0.05000
H 	H 	0.63220 0.20090 0.24470 0.02400
C 	C 	0.70685 0.13738 0.26459 -0.17600
C 	C 	0.73788 0.06773 0.32109 0.10000
H 	H 	0.77430 0.05980 0.31480 0.00400
C 	C 	0.71507 0.00987 0.38686 -0.18100
C 	C 	0.66117 0.02469 0.40002 0.04300
H 	H 	0.64540 0.98410 0.44190 0.01200
C 	C 	0.72852 0.19414 0.18486 0.47500
C 	C 	0.74955 0.93204 0.44081 0.43500
O 	O 	0.39353 0.15531 0.48420 -0.43000
O 	O 	0.41680 0.30830 0.47199 -0.45600
O 	O 	0.72779 0.85712 0.47098 -0.59600
O 	O 	0.80057 0.94254 0.45544 -0.46700
O 	O 	0.77723 0.17426 0.17232 -0.52400
O 	O 	0.69849 0.25373 0.13841 -0.50000
Nd	Nd	0.16993 0.78402 0.96114 1.96500
C 	C 	0.07445 0.71829 0.03794 0.33000
C 	C 	0.02339 0.68675 0.07545 -0.12500
C 	C 	0.98491 0.75590 0.09280 0.05100
H 	H 	0.99210 0.82200 0.08800 0.01200
C 	C 	0.93579 0.72440 0.11740 -0.14700
H 	H 	0.90990 0.77040 0.12790 0.07700
C 	C 	0.92389 0.62657 0.12696 0.09800
C 	C 	0.96297 0.55890 0.11123 -0.14900
H 	H 	0.95620 0.49280 0.11690 0.07400
C 	C 	0.01210 0.59048 0.08702 0.05800
H 	H 	0.03840 0.54460 0.07830 0.01800
C 	C 	0.86872 0.59924 0.14894 -0.08200
C 	C 	0.84673 0.65354 0.21905 0.05000
H 	H 	0.86780 0.70090 0.25530 0.02400
C 	C 	0.79315 0.63738 0.23541 -0.17600
C 	C 	0.76212 0.56773 0.17891 0.10000
H 	H 	0.72570 0.55980 0.18520 0.00400
C 	C 	0.78493 0.50987 0.11314 -0.18100
C 	C 	0.83883 0.52469 0.09998 0.04300
H 	H 	0.85460 0.48410 0.05810 0.01200
C 	C 	0.77148 0.69414 0.31514 0.47500
C 	C 	0.75045 0.43204 0.05919 0.43400
O 	O 	0.10647 0.65531 0.01580 -0.42900
O 	O 	0.08320 0.80830 0.02801 -0.45400
O 	O 	0.77221 0.35712 0.02902 -0.59600
O 	O 	0.69943 0.44254 0.04456 -0.46700
O 	O 	0.72277 0.67426 0.32768 -0.52400
O 	O 	0.80151 0.75373 0.36159 -0.49900
Nd	Nd	0.66993 0.28402 0.96114 1.97300
C 	C 	0.57445 0.21829 0.03794 0.33000
C 	C 	0.52339 0.18675 0.07545 -0.12700
C 	C 	0.48491 0.25590 0.09280 0.05400
H 	H 	0.49210 0.32200 0.08800 0.01200
C 	C 	0.43579 0.22440 0.11740 -0.14800
H 	H 	0.40990 0.27040 0.12790 0.07700
C 	C 	0.42389 0.12657 0.12696 0.09800
C 	C 	0.46297 0.05890 0.11123 -0.14800
H 	H 	0.45620 0.99280 0.11690 0.07500
C 	C 	0.51210 0.09048 0.08702 0.05700
H 	H 	0.53840 0.04460 0.07830 0.01800
C 	C 	0.36872 0.09924 0.14894 -0.08100
C 	C 	0.34673 0.15354 0.21905 0.05000
H 	H 	0.36780 0.20090 0.25530 0.02400
C 	C 	0.29315 0.13738 0.23541 -0.17600
C 	C 	0.26212 0.06773 0.17891 0.10000
H 	H 	0.22570 0.05980 0.18520 0.00400
C 	C 	0.28493 0.00987 0.11314 -0.18100
C 	C 	0.33883 0.02469 0.09998 0.04200
H 	H 	0.35460 0.98410 0.05810 0.01300
C 	C 	0.27148 0.19414 0.31514 0.47500
C 	C 	0.25045 0.93204 0.05919 0.43500
O 	O 	0.60647 0.15531 0.01580 -0.43100
O 	O 	0.58320 0.30830 0.02801 -0.45600
O 	O 	0.27221 0.85712 0.02902 -0.59500
O 	O 	0.19943 0.94254 0.04456 -0.46600
O 	O 	0.22277 0.17426 0.32768 -0.52400
O 	O 	0.30151 0.25373 0.36159 -0.49900
