data_crystal

_cell_length_a 13.39200
_cell_length_b 13.87200
_cell_length_c 22.21100
_cell_angle_alpha 74.97700
_cell_angle_beta  89.01600
_cell_angle_gamma 76.27600

_symmetry_space_group_name_	'P 1'
_symmetry_space_group_name_H-M	'P 1'

loop_
_symmetry_equiv_pos_as_xyz
  x,y,z

loop_
_atom_site_label
_atom_site_type_symbol
_atom_site_fract_x
_atom_site_fract_y
_atom_site_fract_z
_atom_site_charge
Pr	Pr	0.78266 0.37302 0.74185 2.06800
O 	O 	0.63670 0.51770 0.69650 -0.53800
C 	C 	0.60200 0.60170 0.70570 0.46900
Pr	Pr	0.81226 0.69439 0.72399 2.04400
O 	O 	0.64360 0.66640 0.71360 -0.57200
C 	C 	0.48480 0.63350 0.70750 -0.12800
Pr	Pr	0.86854 0.09806 0.67511 2.06600
O 	O 	0.90280 0.39030 0.82330 -0.45600
C 	C 	0.42310 0.56200 0.70620 0.02400
H 	H 	0.45640 0.49400 0.70500 0.03000
O 	O 	0.83500 0.55950 0.81240 -0.57300
C 	C 	0.31630 0.58930 0.70660 -0.10200
H 	H 	0.27760 0.54160 0.70330 0.06500
O 	O 	0.63600 0.28910 0.74150 -0.63500
C 	C 	0.26580 0.68780 0.71200 0.03400
O 	O 	0.84650 0.52170 0.68370 -0.57500
C 	C 	0.15800 0.71570 0.71610 -0.04700
H 	H 	0.11800 0.66880 0.71350 0.06100
O 	O 	0.95620 0.29280 0.72120 -0.49300
C 	C 	0.11010 0.81270 0.72400 -0.10300
O 	O 	0.01450 0.16600 0.67280 -0.53500
C 	C 	0.16770 0.88550 0.72580 0.00700
H 	H 	0.13350 0.95280 0.72780 0.02000
O 	O 	0.81830 0.21740 0.82580 -0.49400
C 	C 	0.27360 0.85810 0.72470 -0.08200
H 	H 	0.31240 0.90500 0.72950 0.05400
C 	C 	0.32500 0.76140 0.71640 0.00700
O 	O 	0.89590 0.08270 0.78110 -0.47200
C 	C 	0.43430 0.73130 0.71320 -0.01400
H 	H 	0.47400 0.77900 0.71490 0.04000
O 	O 	0.98010 0.58430 0.69920 -0.42600
C 	C 	0.89080 0.47100 0.84160 0.38800
O 	O 	0.77560 0.33000 0.64120 -0.53800
C 	C 	0.94090 0.46510 0.90120 -0.12200
O 	O 	0.80280 0.22790 0.57790 -0.48300
C 	C 	0.92140 0.55080 0.92530 -0.01400
H 	H 	0.87700 0.61380 0.90290 0.02300
O 	O 	0.71710 0.86860 0.68170 -0.54900
C 	C 	0.96780 0.54290 0.98250 0.01600
O 	O 	0.69860 0.14970 0.71090 -0.52200
C 	C 	0.05100 0.36770 0.99210 -0.09200
H 	H 	0.09450 0.30460 0.01500 0.05600
O 	O 	0.77080 0.00690 0.63020 -0.53200
C 	C 	0.00730 0.37340 0.93650 0.03000
H 	H 	0.02160 0.31430 0.92080 0.03200
O 	O 	0.94970 0.76440 0.73970 -0.56400
C 	C 	0.62750 0.22640 0.72870 0.58900
O 	O 	0.95320 0.92560 0.73190 -0.53600
C 	C 	0.52020 0.20260 0.71870 -0.14700
C 	C 	0.43960 0.26780 0.73950 0.00100
H 	H 	0.45220 0.31820 0.75830 0.03900
C 	C 	0.33380 0.25690 0.73160 0.00000
C 	C 	0.25140 0.32350 0.75090 -0.06700
H 	H 	0.26330 0.37380 0.77000 0.05300
C 	C 	0.15250 0.31470 0.74170 -0.00200
H 	H 	0.09580 0.35860 0.75510 0.05200
C 	C 	0.13560 0.24020 0.71210 -0.06700
C 	C 	0.21750 0.17420 0.69340 -0.05100
H 	H 	0.20520 0.12360 0.67460 0.05300
C 	C 	0.31890 0.18200 0.70220 0.04500
C 	C 	0.40520 0.11530 0.68480 -0.11800
H 	H 	0.39480 0.06220 0.66760 0.06800
C 	C 	0.50150 0.12530 0.69200 0.05900
H 	H 	0.55780 0.08020 0.67910 0.02100
C 	C 	0.93480 0.53720 0.66960 0.29300
C 	C 	0.97930 0.51570 0.61000 -0.08500
C 	C 	0.07920 0.53120 0.59360 0.00300
H 	H 	0.12140 0.54560 0.62250 0.03600
C 	C 	0.11370 0.52500 0.53570 -0.08700
H 	H 	0.18130 0.53170 0.52530 0.06200
C 	C 	0.95100 0.49100 0.50830 0.02200
C 	C 	0.91930 0.49540 0.56820 -0.04800
H 	H 	0.85370 0.48380 0.58010 0.04700
C 	C 	0.02420 0.23770 0.69340 0.39800
C 	C 	0.87420 0.13370 0.82750 0.36000
C 	C 	0.92250 0.06490 0.88980 -0.07200
C 	C 	0.93560 0.11020 0.93750 -0.04200
H 	H 	0.91100 0.18250 0.93030 0.05700
C 	C 	0.98220 0.05460 0.99400 0.02700
C 	C 	0.00690 0.90160 0.95770 -0.08600
H 	H 	0.03140 0.82920 0.96500 0.05800
C 	C 	0.96270 0.95700 0.89980 0.00900
H 	H 	0.95910 0.92430 0.86760 0.04400
C 	C 	0.75270 0.30910 0.59190 0.38000
C 	C 	0.66330 0.37450 0.55110 -0.11600
C 	C 	0.59420 0.45260 0.56710 -0.02600
H 	H 	0.60500 0.46660 0.60580 0.05000
C 	C 	0.50790 0.51280 0.52870 0.02400
C 	C 	0.56660 0.40840 0.45470 -0.09700
H 	H 	0.55890 0.39450 0.41550 0.06700
C 	C 	0.64830 0.35280 0.49340 0.02800
H 	H 	0.69610 0.29870 0.48200 0.02900
C 	C 	0.71260 0.94660 0.63640 0.43000
C 	C 	0.63030 0.97420 0.58600 -0.13400
C 	C 	0.62740 0.08180 0.53940 0.01200
H 	H 	0.67090 0.12450 0.54450 0.03200
C 	C 	0.55720 0.10780 0.49140 -0.08900
H 	H 	0.54510 0.17500 0.46410 0.05800
C 	C 	0.49470 0.95510 0.51910 0.01600
C 	C 	0.56910 0.91790 0.57960 -0.01100
H 	H 	0.56870 0.85600 0.61030 0.02700
C 	C 	0.98660 0.83900 0.72670 0.45700
Pr	Pr	0.21734 0.62698 0.25815 2.06900
O 	O 	0.36330 0.48230 0.30350 -0.53700
C 	C 	0.39800 0.39830 0.29430 0.47000
Pr	Pr	0.18774 0.30561 0.27601 2.04500
O 	O 	0.35640 0.33360 0.28640 -0.57200
C 	C 	0.51520 0.36650 0.29250 -0.12800
Pr	Pr	0.13146 0.90194 0.32489 2.06600
O 	O 	0.09720 0.60970 0.17670 -0.45600
C 	C 	0.57690 0.43800 0.29380 0.02400
H 	H 	0.54360 0.50600 0.29500 0.03000
O 	O 	0.16500 0.44050 0.18760 -0.57300
C 	C 	0.68370 0.41070 0.29340 -0.10200
H 	H 	0.72240 0.45840 0.29670 0.06500
O 	O 	0.36400 0.71090 0.25850 -0.63500
C 	C 	0.73420 0.31220 0.28800 0.03400
O 	O 	0.15350 0.47830 0.31630 -0.57500
C 	C 	0.84200 0.28430 0.28390 -0.04700
H 	H 	0.88200 0.33120 0.28650 0.06100
O 	O 	0.04380 0.70720 0.27880 -0.49300
C 	C 	0.88990 0.18730 0.27600 -0.10300
O 	O 	0.98550 0.83400 0.32720 -0.53500
C 	C 	0.83230 0.11450 0.27420 0.00700
H 	H 	0.86650 0.04720 0.27220 0.02000
O 	O 	0.18170 0.78260 0.17420 -0.49400
C 	C 	0.72640 0.14190 0.27530 -0.08200
H 	H 	0.68760 0.09500 0.27050 0.05400
C 	C 	0.67500 0.23860 0.28360 0.00700
O 	O 	0.10410 0.91730 0.21890 -0.47200
C 	C 	0.56570 0.26870 0.28680 -0.01400
H 	H 	0.52600 0.22100 0.28510 0.04000
O 	O 	0.01990 0.41570 0.30080 -0.42600
C 	C 	0.10920 0.52900 0.15840 0.38800
O 	O 	0.22440 0.67000 0.35880 -0.53800
C 	C 	0.05910 0.53490 0.09880 -0.12200
O 	O 	0.19720 0.77210 0.42210 -0.48300
C 	C 	0.07860 0.44920 0.07470 -0.01400
H 	H 	0.12300 0.38620 0.09710 0.02300
O 	O 	0.28290 0.13140 0.31830 -0.54900
C 	C 	0.03220 0.45710 0.01750 0.01600
O 	O 	0.30140 0.85030 0.28910 -0.52200
C 	C 	0.94900 0.63230 0.00790 -0.09200
H 	H 	0.90550 0.69540 0.98500 0.05600
O 	O 	0.22920 0.99310 0.36980 -0.53200
C 	C 	0.99270 0.62660 0.06350 0.03000
H 	H 	0.97840 0.68570 0.07920 0.03200
O 	O 	0.05030 0.23560 0.26030 -0.56400
C 	C 	0.37250 0.77360 0.27130 0.58900
O 	O 	0.04680 0.07440 0.26810 -0.53600
C 	C 	0.47980 0.79740 0.28130 -0.14700
C 	C 	0.56040 0.73220 0.26050 0.00100
H 	H 	0.54780 0.68180 0.24170 0.03900
C 	C 	0.66620 0.74310 0.26840 0.00000
C 	C 	0.74860 0.67650 0.24910 -0.06700
H 	H 	0.73670 0.62620 0.23000 0.05300
C 	C 	0.84750 0.68530 0.25830 -0.00200
H 	H 	0.90420 0.64140 0.24490 0.05200
C 	C 	0.86440 0.75980 0.28790 -0.06700
C 	C 	0.78250 0.82580 0.30660 -0.05100
H 	H 	0.79480 0.87640 0.32540 0.05300
C 	C 	0.68110 0.81800 0.29780 0.04500
C 	C 	0.59480 0.88470 0.31520 -0.11800
H 	H 	0.60520 0.93780 0.33240 0.06800
C 	C 	0.49850 0.87470 0.30800 0.05900
H 	H 	0.44220 0.91980 0.32090 0.02100
C 	C 	0.06520 0.46280 0.33040 0.29300
C 	C 	0.02070 0.48430 0.39000 -0.08500
C 	C 	0.92080 0.46880 0.40640 0.00300
H 	H 	0.87860 0.45440 0.37750 0.03600
C 	C 	0.88630 0.47500 0.46430 -0.08700
H 	H 	0.81870 0.46830 0.47470 0.06200
C 	C 	0.04900 0.50900 0.49170 0.02200
C 	C 	0.08070 0.50460 0.43180 -0.04800
H 	H 	0.14630 0.51620 0.41990 0.04700
C 	C 	0.97580 0.76230 0.30660 0.39800
C 	C 	0.12580 0.86630 0.17250 0.36000
C 	C 	0.07750 0.93510 0.11020 -0.07200
C 	C 	0.06440 0.88980 0.06250 -0.04200
H 	H 	0.08900 0.81750 0.06970 0.05700
C 	C 	0.01780 0.94540 0.00600 0.02700
C 	C 	0.99310 0.09840 0.04230 -0.08600
H 	H 	0.96860 0.17080 0.03500 0.05800
C 	C 	0.03730 0.04300 0.10020 0.00900
H 	H 	0.04090 0.07570 0.13240 0.04400
C 	C 	0.24730 0.69090 0.40810 0.38000
C 	C 	0.33670 0.62550 0.44890 -0.11600
C 	C 	0.40580 0.54740 0.43290 -0.02600
H 	H 	0.39500 0.53340 0.39420 0.05000
C 	C 	0.49210 0.48720 0.47130 0.02400
C 	C 	0.43340 0.59160 0.54530 -0.09700
H 	H 	0.44110 0.60550 0.58450 0.06700
C 	C 	0.35170 0.64720 0.50660 0.02800
H 	H 	0.30390 0.70130 0.51800 0.02900
C 	C 	0.28740 0.05340 0.36360 0.43000
C 	C 	0.36970 0.02580 0.41400 -0.13400
C 	C 	0.37260 0.91820 0.46060 0.01200
H 	H 	0.32910 0.87550 0.45550 0.03200
C 	C 	0.44280 0.89220 0.50860 -0.08900
H 	H 	0.45490 0.82500 0.53590 0.05800
C 	C 	0.50530 0.04490 0.48090 0.01600
C 	C 	0.43090 0.08210 0.42040 -0.01100
H 	H 	0.43130 0.14400 0.38970 0.02700
C 	C 	0.01340 0.16100 0.27330 0.45700
