data_crystal

_cell_length_a 14.83300
_cell_length_b 8.47660
_cell_length_c 17.32600
_cell_angle_alpha 90.00000
_cell_angle_beta  108.46000
_cell_angle_gamma 90.00000

_symmetry_space_group_name_	'P 1'
_symmetry_space_group_name_H-M	'P 1'

loop_
_symmetry_equiv_pos_as_xyz
  x,y,z

loop_
_atom_site_label
_atom_site_type_symbol
_atom_site_fract_x
_atom_site_fract_y
_atom_site_fract_z
_atom_site_charge
C 	C 	0.50860 0.14890 0.67770 -0.14600
C 	C 	0.49080 0.45650 0.68990 -0.16100
C 	C 	0.63490 0.42980 0.81620 -0.14000
C 	C 	0.63520 0.13040 0.81110 -0.14600
C 	C 	0.36030 0.26790 0.72110 -0.15100
C 	C 	0.45010 0.47650 0.82850 -0.13000
C 	C 	0.55840 0.27110 0.91440 -0.13800
C 	C 	0.45950 0.06150 0.81670 -0.18600
Mn	Mn	0.13801 0.29184 0.60882 1.18800
Mo	Mo	0.51153 0.28088 0.78389 1.07100
N 	N 	0.50800 0.07460 0.62150 -0.28100
N 	N 	0.48010 0.55860 0.64210 -0.11900
N 	N 	0.70330 0.50590 0.83690 -0.09500
N 	N 	0.69950 0.04890 0.82190 -0.09500
N 	N 	0.28160 0.26190 0.68740 -0.26800
N 	N 	0.41600 0.58140 0.85020 -0.23800
N 	N 	0.58340 0.26610 0.98390 -0.24900
N 	N 	0.43420 0.94770 0.83590 -0.22000
C 	C 	0.99140 0.64890 0.82230 -0.10500
C 	C 	0.00920 0.95650 0.81010 -0.14500
C 	C 	0.86510 0.92980 0.68380 -0.08900
C 	C 	0.86480 0.63040 0.68890 -0.13800
C 	C 	0.13970 0.76790 0.77890 -0.15700
C 	C 	0.04990 0.97650 0.67150 -0.11900
C 	C 	0.94160 0.77110 0.58560 -0.11900
C 	C 	0.04050 0.56150 0.68330 -0.18000
Mn	Mn	0.36199 0.79184 0.89118 1.21100
Mo	Mo	0.98847 0.78088 0.71611 1.08700
N 	N 	0.99200 0.57460 0.87850 -0.24400
N 	N 	0.01990 0.05860 0.85790 -0.15500
N 	N 	0.79670 0.00590 0.66310 -0.14300
N 	N 	0.80050 0.54890 0.67810 -0.09200
N 	N 	0.21840 0.76190 0.81260 -0.25300
N 	N 	0.08400 0.08140 0.64980 -0.28400
N 	N 	0.91660 0.76610 0.51610 -0.26400
N 	N 	0.06580 0.44770 0.66410 -0.26500
C 	C 	0.49140 0.85110 0.32230 -0.13600
C 	C 	0.50920 0.54350 0.31010 -0.16300
C 	C 	0.36510 0.57020 0.18380 -0.15700
C 	C 	0.36480 0.86960 0.18890 -0.15100
C 	C 	0.63970 0.73210 0.27890 -0.14700
C 	C 	0.54990 0.52350 0.17150 -0.14700
C 	C 	0.44160 0.72890 0.08560 -0.15700
C 	C 	0.54050 0.93850 0.18330 -0.10200
Mn	Mn	0.86199 0.70816 0.39118 1.20100
Mo	Mo	0.48847 0.71912 0.21611 1.06700
N 	N 	0.49200 0.92540 0.37850 -0.26100
N 	N 	0.51990 0.44140 0.35790 -0.12700
N 	N 	0.29670 0.49410 0.16310 -0.12200
N 	N 	0.30050 0.95110 0.17810 -0.09400
N 	N 	0.71840 0.73810 0.31260 -0.26000
N 	N 	0.58400 0.41860 0.14980 -0.25500
N 	N 	0.41660 0.73390 0.01610 -0.29300
N 	N 	0.56580 0.05230 0.16410 -0.30900
C 	C 	0.00860 0.35110 0.17770 -0.18000
C 	C 	0.99080 0.04350 0.18990 -0.17000
C 	C 	0.13490 0.07020 0.31620 -0.21500
C 	C 	0.13520 0.36960 0.31110 -0.16100
C 	C 	0.86030 0.23210 0.22110 -0.13800
C 	C 	0.95010 0.02350 0.32850 -0.15200
C 	C 	0.05840 0.22890 0.41440 -0.17800
C 	C 	0.95950 0.43850 0.31670 -0.10500
Mn	Mn	0.63801 0.20816 0.10882 1.17700
Mo	Mo	0.01153 0.21912 0.28389 1.04700
N 	N 	0.00800 0.42540 0.12150 -0.29000
N 	N 	0.98010 0.94140 0.14210 -0.08900
N 	N 	0.20330 0.99410 0.33690 -0.07000
N 	N 	0.19950 0.45110 0.32190 -0.09800
N 	N 	0.78160 0.23810 0.18740 -0.27500
N 	N 	0.91600 0.91860 0.35020 -0.21200
N 	N 	0.08340 0.23390 0.48390 -0.27900
N 	N 	0.93420 0.55230 0.33590 -0.26200
Mn	Mn	0.50000 0.00000 0.50000 1.12300
Mn	Mn	-0.00000 0.50000 -0.00000 1.09800
