data_crystal

_cell_length_a 7.89270
_cell_length_b 10.32600
_cell_length_c 12.79900
_cell_angle_alpha 111.00800
_cell_angle_beta  95.35100
_cell_angle_gamma 106.17700

_symmetry_space_group_name_	'P 1'
_symmetry_space_group_name_H-M	'P 1'

loop_
_symmetry_equiv_pos_as_xyz
  x,y,z

loop_
_atom_site_label
_atom_site_type_symbol
_atom_site_fract_x
_atom_site_fract_y
_atom_site_fract_z
_atom_site_charge
Cd	Cd	0.31759 0.57797 0.44917 1.21900
Cd	Cd	0.61205 0.71078 0.02624 1.17400
O 	O 	0.50270 0.55529 0.11940 -0.57800
O 	O 	0.17320 0.34055 0.38065 -0.46000
O 	O 	0.05330 0.62237 0.36684 -0.37100
O 	O 	0.29580 0.80800 0.47757 -0.38900
O 	O 	0.69570 0.96711 0.06776 -0.43600
N 	N 	0.63940 0.86634 0.23734 -0.08400
O 	O 	0.38560 0.53160 0.26570 -0.46700
C 	C 	0.82590 0.91510 0.29495 0.02600
C 	C 	0.12200 0.10330 0.37836 -0.09200
C 	C 	0.94260 0.05860 0.32332 -0.04900
H 	H 	0.89940 0.12460 0.30500 0.05800
C 	C 	0.23990 0.26060 0.41225 0.39100
C 	C 	0.89410 0.81790 0.32306 -0.07400
H 	H 	0.81900 0.72190 0.30390 0.05100
C 	C 	0.14460 0.75910 0.41130 0.28300
O 	O 	0.39310 0.30210 0.47220 -0.50000
O 	O 	0.65420 0.17707 0.16879 -0.32900
C 	C 	0.07360 0.86330 0.37953 -0.06200
C 	C 	0.18890 0.00620 0.40706 -0.00100
H 	H 	0.30890 0.03620 0.44410 0.04700
C 	C 	0.51560 0.77240 0.28118 -0.49400
C 	C 	0.57550 0.98630 0.23448 -0.35100
H 	H 	0.61180 0.06500 0.31050 0.14900
H 	H 	0.44460 0.94990 0.21350 0.11500
C 	C 	0.46760 0.60780 0.21666 0.46200
C 	C 	0.64910 0.04770 0.15041 0.38700
H 	H 	0.55700 0.79500 0.35600 0.21100
H 	H 	0.39800 0.78000 0.27100 0.16600
Cd	Cd	0.68241 0.42203 0.55083 1.21800
Cd	Cd	0.38795 0.28922 0.97376 1.17300
O 	O 	0.49730 0.44471 0.88060 -0.57900
O 	O 	0.82680 0.65945 0.61935 -0.46100
O 	O 	0.94670 0.37763 0.63316 -0.37100
O 	O 	0.70420 0.19200 0.52243 -0.38900
O 	O 	0.30430 0.03289 0.93224 -0.43600
N 	N 	0.36060 0.13366 0.76266 -0.08400
O 	O 	0.61440 0.46840 0.73430 -0.46700
C 	C 	0.17410 0.08490 0.70505 0.02600
C 	C 	0.87800 0.89670 0.62164 -0.09200
C 	C 	0.05740 0.94140 0.67668 -0.04900
H 	H 	0.10060 0.87540 0.69500 0.05800
C 	C 	0.76010 0.73940 0.58775 0.39100
C 	C 	0.10590 0.18210 0.67694 -0.07400
H 	H 	0.18100 0.27810 0.69610 0.05100
C 	C 	0.85540 0.24090 0.58870 0.28300
O 	O 	0.60690 0.69790 0.52780 -0.50000
O 	O 	0.34580 0.82293 0.83121 -0.32900
C 	C 	0.92640 0.13670 0.62047 -0.06200
C 	C 	0.81110 0.99380 0.59294 -0.00100
H 	H 	0.69110 0.96380 0.55590 0.04700
C 	C 	0.48440 0.22760 0.71882 -0.49400
C 	C 	0.42450 0.01370 0.76552 -0.35100
H 	H 	0.38820 0.93500 0.68950 0.14900
H 	H 	0.55540 0.05010 0.78650 0.11500
C 	C 	0.53240 0.39220 0.78334 0.46200
C 	C 	0.35090 0.95230 0.84959 0.38700
H 	H 	0.44300 0.20500 0.64400 0.21100
H 	H 	0.60200 0.22000 0.72900 0.16600
