data_crystal

_cell_length_a 17.61670
_cell_length_b 9.19460
_cell_length_c 10.70050
_cell_angle_alpha 90.00000
_cell_angle_beta  90.00000
_cell_angle_gamma 90.00000

_symmetry_space_group_name_	'P 1'
_symmetry_space_group_name_H-M	'P 1'

loop_
_symmetry_equiv_pos_as_xyz
  x,y,z

loop_
_atom_site_label
_atom_site_type_symbol
_atom_site_fract_x
_atom_site_fract_y
_atom_site_fract_z
_atom_site_charge
Cd	Cd	0.50104 0.78615 0.23900 1.24300
Mg	Mg	0.47099 0.62670 0.70723 1.47300
C 	C 	0.67470 0.55970 0.43330 -0.05900
O 	O 	0.93050 0.44760 0.62220 -0.34000
C 	C 	0.80840 0.43670 0.52600 -0.04600
O 	O 	0.93440 0.51530 0.34220 -0.31000
O 	O 	0.87560 0.23390 0.60440 -0.31800
C 	C 	0.87630 0.36690 0.58600 0.30600
C 	C 	0.67070 0.45210 0.52280 -0.07700
O 	O 	0.56450 0.51370 0.64030 -0.52100
C 	C 	0.74470 0.60730 0.39200 -0.00900
H 	H 	0.74670 0.68070 0.33230 0.05800
C 	C 	0.81250 0.54860 0.43730 -0.02800
C 	C 	0.73730 0.38830 0.56540 0.00700
H 	H 	0.73440 0.31140 0.62170 0.05000
C 	C 	0.88500 0.60330 0.37990 0.29200
O 	O 	0.89160 0.73840 0.36280 -0.34300
O 	O 	0.50830 0.80390 0.60600 -0.54300
H 	H 	0.54970 0.78540 0.57470 0.29200
C 	C 	0.59650 0.41250 0.58610 0.40700
O 	O 	0.59710 0.76440 0.38620 -0.38200
C 	C 	0.60460 0.62910 0.37670 0.34700
O 	O 	0.57500 0.28380 0.58270 -0.41700
O 	O 	0.55640 0.55110 0.31920 -0.54800
O 	O 	0.41100 0.54970 0.55450 -0.54500
H 	H 	0.43830 0.49560 0.51330 0.27400
O 	O 	0.52890 0.71960 0.85590 -0.54200
H 	H 	0.57260 0.68890 0.85730 0.27900
Cd	Cd	0.49896 0.21385 0.73900 1.24400
Mg	Mg	0.52901 0.37330 0.20723 1.47300
C 	C 	0.32530 0.44030 0.93330 -0.05100
O 	O 	0.06950 0.55240 0.12220 -0.34200
C 	C 	0.19160 0.56330 0.02600 -0.05600
O 	O 	0.06560 0.48470 0.84220 -0.30800
O 	O 	0.12440 0.76610 0.10440 -0.32000
C 	C 	0.12370 0.63310 0.08600 0.30900
C 	C 	0.32930 0.54790 0.02280 -0.08500
O 	O 	0.43550 0.48630 0.14030 -0.52200
C 	C 	0.25530 0.39270 0.89200 -0.01600
H 	H 	0.25330 0.31930 0.83230 0.06000
C 	C 	0.18750 0.45140 0.93730 -0.01800
C 	C 	0.26270 0.61170 0.06540 0.01400
H 	H 	0.26560 0.68860 0.12170 0.04700
C 	C 	0.11500 0.39670 0.87990 0.28900
O 	O 	0.10840 0.26160 0.86280 -0.34000
O 	O 	0.49170 0.19610 0.10600 -0.54300
H 	H 	0.45030 0.21460 0.07470 0.29100
C 	C 	0.40350 0.58750 0.08610 0.40900
O 	O 	0.40290 0.23560 0.88620 -0.38100
C 	C 	0.39540 0.37090 0.87670 0.34500
O 	O 	0.42500 0.71620 0.08270 -0.41900
O 	O 	0.44360 0.44890 0.81920 -0.54700
O 	O 	0.58900 0.45030 0.05450 -0.54500
H 	H 	0.56170 0.50440 0.01330 0.27300
O 	O 	0.47110 0.28040 0.35590 -0.54300
H 	H 	0.42740 0.31110 0.35730 0.27900
Cd	Cd	0.00104 0.71385 0.23900 1.24300
Mg	Mg	0.97099 0.87330 0.70723 1.47200
C 	C 	0.17470 0.94030 0.43330 -0.05500
O 	O 	0.43050 0.05240 0.62220 -0.33900
C 	C 	0.30840 0.06330 0.52600 -0.04900
O 	O 	0.43440 0.98470 0.34220 -0.31100
O 	O 	0.37560 0.26610 0.60440 -0.31800
C 	C 	0.37630 0.13310 0.58600 0.30700
C 	C 	0.17070 0.04790 0.52280 -0.08100
O 	O 	0.06450 0.98630 0.64030 -0.51500
C 	C 	0.24470 0.89270 0.39200 -0.01200
H 	H 	0.24670 0.81930 0.33230 0.05900
C 	C 	0.31250 0.95140 0.43730 -0.02500
C 	C 	0.23730 0.11170 0.56540 0.00900
H 	H 	0.23440 0.18860 0.62170 0.04900
C 	C 	0.38500 0.89670 0.37990 0.29100
O 	O 	0.39160 0.76160 0.36280 -0.34200
O 	O 	0.00830 0.69610 0.60600 -0.54000
H 	H 	0.04970 0.71460 0.57470 0.29100
C 	C 	0.09650 0.08750 0.58610 0.40200
O 	O 	0.09710 0.73560 0.38620 -0.38100
C 	C 	0.10460 0.87090 0.37670 0.34600
O 	O 	0.07500 0.21620 0.58270 -0.41700
O 	O 	0.05640 0.94890 0.31920 -0.54700
O 	O 	0.91100 0.95030 0.55450 -0.55200
H 	H 	0.93830 0.00440 0.51330 0.27900
O 	O 	0.02890 0.78040 0.85590 -0.53800
H 	H 	0.07260 0.81110 0.85730 0.28000
Cd	Cd	0.99896 0.28615 0.73900 1.24300
Mg	Mg	0.02901 0.12670 0.20723 1.47200
C 	C 	0.82530 0.05970 0.93330 -0.06400
O 	O 	0.56950 0.94760 0.12220 -0.33900
C 	C 	0.69160 0.93670 0.02600 -0.04400
O 	O 	0.56560 0.01530 0.84220 -0.31100
O 	O 	0.62440 0.73390 0.10440 -0.31800
C 	C 	0.62370 0.86690 0.08600 0.30500
C 	C 	0.82930 0.95210 0.02280 -0.07300
O 	O 	0.93550 0.01370 0.14030 -0.51400
C 	C 	0.75530 0.10730 0.89200 -0.00600
H 	H 	0.75330 0.18070 0.83230 0.05700
C 	C 	0.68750 0.04860 0.93730 -0.03100
C 	C 	0.76270 0.88830 0.06540 0.00400
H 	H 	0.76560 0.81140 0.12170 0.05100
C 	C 	0.61500 0.10330 0.87990 0.29300
O 	O 	0.60840 0.23840 0.86280 -0.34300
O 	O 	0.99170 0.30390 0.10600 -0.53900
H 	H 	0.95030 0.28540 0.07470 0.29300
C 	C 	0.90350 0.91250 0.08610 0.40000
O 	O 	0.90290 0.26440 0.88620 -0.38400
C 	C 	0.89540 0.12910 0.87670 0.34800
O 	O 	0.92500 0.78380 0.08270 -0.41500
O 	O 	0.94360 0.05110 0.81920 -0.54900
O 	O 	0.08900 0.04970 0.05450 -0.55300
H 	H 	0.06170 0.99560 0.01330 0.27600
O 	O 	0.97110 0.21960 0.35590 -0.54100
H 	H 	0.92740 0.18890 0.35730 0.27900
