data_crystal

_cell_length_a 6.57160
_cell_length_b 20.21930
_cell_length_c 27.93500
_cell_angle_alpha 90.00000
_cell_angle_beta  90.00000
_cell_angle_gamma 90.00000

_symmetry_space_group_name_	'P 1'
_symmetry_space_group_name_H-M	'P 1'

loop_
_symmetry_equiv_pos_as_xyz
  x,y,z

loop_
_atom_site_label
_atom_site_type_symbol
_atom_site_fract_x
_atom_site_fract_y
_atom_site_fract_z
_atom_site_charge
Zn	Zn	0.51403 0.77868 0.83225 1.18400
Zn	Zn	0.18965 0.87669 0.87149 1.22600
Zn	Zn	0.31035 0.37669 0.12851 1.22900
Zn	Zn	0.31035 0.87669 0.37149 1.22900
Zn	Zn	0.98597 0.77868 0.33225 1.18000
Zn	Zn	0.68965 0.62331 0.87149 1.23000
Zn	Zn	0.18965 0.37669 0.62851 1.22700
Zn	Zn	0.68965 0.12331 0.62851 1.23000
Zn	Zn	0.48597 0.72132 0.33225 1.18500
Zn	Zn	0.48597 0.22132 0.16775 1.18500
Zn	Zn	0.51403 0.27868 0.66775 1.18500
Zn	Zn	0.81035 0.12331 0.12851 1.22700
Zn	Zn	0.01403 0.72132 0.83225 1.18000
Zn	Zn	0.01403 0.22132 0.66775 1.18000
Zn	Zn	0.98597 0.27868 0.16775 1.18000
Zn	Zn	0.81035 0.62331 0.37149 1.22700
H 	H 	0.28640 0.25630 0.60840 0.15000
H 	H 	0.46510 0.00550 0.15910 0.07600
H 	H 	0.82630 0.37200 0.02000 0.02300
H 	H 	0.03490 0.00550 0.65910 0.07100
H 	H 	0.03490 0.50550 0.84090 0.07100
H 	H 	0.92690 0.53670 0.23640 0.02300
H 	H 	0.67370 0.37200 0.52000 0.02400
H 	H 	0.42690 0.96330 0.23640 0.02600
H 	H 	0.20150 0.05280 0.45790 0.07200
H 	H 	0.32010 0.90810 0.55050 0.07000
H 	H 	0.92690 0.03670 0.26360 0.02300
H 	H 	0.78640 0.74370 0.89160 0.15200
H 	H 	0.29850 0.55280 0.54210 0.06900
H 	H 	0.88910 0.88520 0.19840 -0.00700
H 	H 	0.11090 0.61480 0.69840 -0.00700
H 	H 	0.20150 0.55280 0.04210 0.07200
H 	H 	0.88910 0.38520 0.30160 -0.00700
H 	H 	0.82010 0.59190 0.55050 0.07100
H 	H 	0.38910 0.61480 0.19840 0.01600
H 	H 	0.70150 0.44720 0.45790 0.06900
H 	H 	0.71360 0.74370 0.39160 0.15000
H 	H 	0.07200 0.07300 0.87780 0.06900
H 	H 	0.53490 0.99450 0.84090 0.07600
H 	H 	0.78640 0.24370 0.60840 0.15200
H 	H 	0.67990 0.09190 0.44950 0.07000
H 	H 	0.17990 0.90810 0.05050 0.07100
H 	H 	0.67370 0.87200 0.98000 0.02400
H 	H 	0.42690 0.46330 0.26360 0.02600
H 	H 	0.57200 0.92700 0.62220 0.08200
H 	H 	0.71360 0.24370 0.10840 0.14900
H 	H 	0.11090 0.11480 0.80160 -0.00700
H 	H 	0.53490 0.49450 0.65910 0.07600
H 	H 	0.17370 0.62800 0.98000 0.02300
H 	H 	0.32630 0.62800 0.48000 0.02400
H 	H 	0.07310 0.46330 0.76360 0.02300
H 	H 	0.92800 0.42700 0.37780 0.07000
H 	H 	0.96510 0.99450 0.34090 0.07100
H 	H 	0.38910 0.11480 0.30160 0.01600
H 	H 	0.82630 0.87200 0.48000 0.02300
H 	H 	0.61090 0.88520 0.69840 0.01600
H 	H 	0.07200 0.57300 0.62220 0.07000
H 	H 	0.79850 0.94720 0.54210 0.07200
H 	H 	0.96510 0.49450 0.15910 0.07100
H 	H 	0.57310 0.53670 0.73640 0.02600
H 	H 	0.28640 0.75630 0.89160 0.14900
H 	H 	0.17370 0.12800 0.52000 0.02300
H 	H 	0.07310 0.96330 0.73640 0.02300
H 	H 	0.46510 0.50550 0.34090 0.07600
H 	H 	0.32010 0.40810 0.94950 0.07000
H 	H 	0.21360 0.25630 0.10840 0.15200
H 	H 	0.21360 0.75630 0.39160 0.15200
H 	H 	0.57200 0.42700 0.87780 0.08200
H 	H 	0.29850 0.05280 0.95790 0.07000
H 	H 	0.79850 0.44720 0.95790 0.07200
H 	H 	0.17990 0.40810 0.44950 0.07100
H 	H 	0.42800 0.57300 0.12220 0.08200
H 	H 	0.82010 0.09190 0.94950 0.07100
H 	H 	0.67990 0.59190 0.05050 0.07000
H 	H 	0.92800 0.92700 0.12220 0.06900
H 	H 	0.32630 0.12800 0.02000 0.02400
H 	H 	0.70150 0.94720 0.04210 0.07000
H 	H 	0.61090 0.38520 0.80160 0.01600
H 	H 	0.57310 0.03670 0.76360 0.02600
H 	H 	0.42800 0.07300 0.37780 0.08200
C 	C 	0.50530 0.59080 0.19060 0.06100
C 	C 	0.65660 0.58060 0.22501 -0.14400
C 	C 	0.72250 0.38600 0.61248 0.41800
C 	C 	0.70890 0.04760 0.45553 -0.07600
C 	C 	0.82660 0.04430 0.28664 0.05000
C 	C 	0.13760 0.88750 0.27352 0.40200
C 	C 	0.72050 0.96130 0.01072 -0.06400
C 	C 	0.20890 0.45240 0.45553 -0.07400
C 	C 	0.30250 0.47150 0.86704 0.05000
C 	C 	0.20370 0.58400 0.97360 0.03900
C 	C 	0.17340 0.95570 0.71336 0.05000
C 	C 	0.36240 0.38750 0.72648 0.39700
C 	C 	0.76470 0.02660 0.00213 -0.02000
C 	C 	0.76750 0.43750 0.07368 -0.15300
C 	C 	0.73250 0.43750 0.57368 -0.14900
C 	C 	0.70890 0.54760 0.04447 -0.07600
C 	C 	0.71680 0.07490 0.54246 0.29900
C 	C 	0.77510 0.00350 0.91737 0.05500
C 	C 	0.17340 0.45570 0.78664 0.05000
C 	C 	0.27950 0.03870 0.98928 -0.06400
C 	C 	0.80250 0.02850 0.86704 0.05100
C 	C 	0.29110 0.95240 0.54447 -0.07600
C 	C 	0.00530 0.90920 0.19060 0.09200
C 	C 	0.77950 0.96130 0.51072 -0.06500
C 	C 	0.27750 0.61400 0.38752 0.41800
C 	C 	0.15660 0.91940 0.22501 -0.15100
C 	C 	0.22250 0.61400 0.88752 0.42000
C 	C 	0.30250 0.97150 0.63296 0.05000
C 	C 	0.15100 0.48160 0.83293 -0.11600
C 	C 	0.00530 0.40920 0.30940 0.09200
C 	C 	0.72250 0.88600 0.88752 0.41800
C 	C 	0.20370 0.08400 0.52640 0.04000
C 	C 	0.77750 0.38600 0.11248 0.42000
C 	C 	0.70370 0.41600 0.52640 0.03800
C 	C 	0.84340 0.08060 0.77499 -0.15100
C 	C 	0.23250 0.56250 0.92632 -0.15300
C 	C 	0.32660 0.45570 0.28664 0.05700
C 	C 	0.52820 0.56530 0.14508 -0.12800
C 	C 	0.77750 0.88600 0.38752 0.42000
C 	C 	0.71680 0.57490 0.95754 0.29900
C 	C 	0.86240 0.11250 0.72648 0.40200
C 	C 	0.26470 0.97340 0.49787 -0.01800
C 	C 	0.22050 0.53870 0.01072 -0.06400
C 	C 	0.20890 0.95240 0.04447 -0.07400
C 	C 	0.79110 0.04760 0.95553 -0.07400
C 	C 	0.73530 0.52660 0.99787 -0.01800
C 	C 	0.23530 0.47340 0.50213 -0.02000
C 	C 	0.02820 0.93470 0.14508 -0.11900
C 	C 	0.29630 0.08400 0.02640 0.03900
C 	C 	0.21680 0.42510 0.54246 0.30000
C 	C 	0.50530 0.09080 0.30940 0.06100
C 	C 	0.27950 0.53870 0.51072 -0.06300
C 	C 	0.52820 0.06530 0.35492 -0.12800
C 	C 	0.02820 0.43470 0.35492 -0.12000
C 	C 	0.77510 0.50350 0.58263 0.05500
C 	C 	0.49470 0.90920 0.69060 0.06100
C 	C 	0.27510 0.49650 0.91737 0.05300
C 	C 	0.27750 0.11400 0.11248 0.41800
C 	C 	0.63760 0.11250 0.22648 0.39700
C 	C 	0.34340 0.41940 0.77499 -0.14400
C 	C 	0.84900 0.51840 0.16707 -0.11600
C 	C 	0.34340 0.91940 0.72501 -0.14400
C 	C 	0.22490 0.99650 0.08263 0.05500
C 	C 	0.19750 0.97150 0.13296 0.05100
C 	C 	0.28320 0.92510 0.45754 0.29900
C 	C 	0.23250 0.06250 0.57368 -0.15300
C 	C 	0.22490 0.49650 0.41737 0.05500
C 	C 	0.15100 0.98160 0.66707 -0.11600
C 	C 	0.73250 0.93750 0.92632 -0.14900
C 	C 	0.34900 0.48160 0.33293 -0.11700
C 	C 	0.79110 0.54760 0.54447 -0.07400
C 	C 	0.72490 0.00350 0.41737 0.05300
C 	C 	0.15660 0.41940 0.27499 -0.15100
C 	C 	0.47180 0.43470 0.85492 -0.12800
C 	C 	0.65660 0.08060 0.27499 -0.14400
C 	C 	0.76470 0.52660 0.49787 -0.02000
C 	C 	0.70370 0.91600 0.97360 0.03900
C 	C 	0.26750 0.56250 0.42632 -0.14900
C 	C 	0.47180 0.93470 0.64508 -0.12800
C 	C 	0.32660 0.95570 0.21336 0.05700
C 	C 	0.69750 0.52850 0.13296 0.05000
C 	C 	0.67340 0.54430 0.71336 0.05700
C 	C 	0.69750 0.02850 0.36704 0.05000
C 	C 	0.29110 0.45240 0.95553 -0.07600
C 	C 	0.99470 0.09080 0.80940 0.09200
C 	C 	0.80250 0.52850 0.63296 0.05100
C 	C 	0.19750 0.47150 0.36704 0.05100
C 	C 	0.26750 0.06250 0.07368 -0.14900
C 	C 	0.86240 0.61250 0.77352 0.40200
C 	C 	0.84340 0.58060 0.72501 -0.15100
C 	C 	0.65100 0.01840 0.83293 -0.11700
C 	C 	0.22050 0.03870 0.48928 -0.06500
C 	C 	0.34900 0.98160 0.16707 -0.11700
C 	C 	0.72050 0.46130 0.48928 -0.06300
C 	C 	0.23530 0.97340 0.99787 -0.02000
C 	C 	0.22250 0.11400 0.61248 0.42000
C 	C 	0.73530 0.02660 0.50213 -0.01800
C 	C 	0.77950 0.46130 0.98928 -0.06400
C 	C 	0.82660 0.54430 0.21336 0.05000
C 	C 	0.28320 0.42510 0.04246 0.29900
C 	C 	0.72490 0.50350 0.08263 0.05300
C 	C 	0.49470 0.40920 0.80940 0.06100
C 	C 	0.63760 0.61250 0.27352 0.39700
C 	C 	0.13760 0.38750 0.22648 0.40200
C 	C 	0.97180 0.56530 0.64508 -0.12000
C 	C 	0.78320 0.07490 0.04246 0.29900
C 	C 	0.84900 0.01840 0.33293 -0.11600
C 	C 	0.21680 0.92510 0.95754 0.29900
C 	C 	0.99470 0.59080 0.69060 0.09200
C 	C 	0.36240 0.88750 0.77352 0.39700
C 	C 	0.78320 0.57490 0.45754 0.30000
C 	C 	0.26470 0.47340 0.00213 -0.01800
C 	C 	0.79630 0.41600 0.02640 0.03900
C 	C 	0.65100 0.51840 0.66707 -0.11700
C 	C 	0.76750 0.93750 0.42632 -0.15300
C 	C 	0.29630 0.58400 0.47360 0.03800
C 	C 	0.27510 0.99650 0.58263 0.05300
C 	C 	0.97180 0.06530 0.85492 -0.11900
C 	C 	0.79630 0.91600 0.47360 0.04000
C 	C 	0.67340 0.04430 0.78664 0.05700
O 	O 	0.73180 0.55090 0.91548 -0.43000
O 	O 	0.50830 0.15818 0.22201 -0.52500
O 	O 	0.22620 0.77828 0.86304 -0.79100
O 	O 	0.38010 0.12538 0.63777 -0.50800
O 	O 	0.18790 0.36530 0.53492 -0.32700
O 	O 	0.61990 0.37462 0.13777 -0.50800
O 	O 	0.81210 0.13470 0.03492 -0.32800
O 	O 	0.72620 0.72172 0.86304 -0.78500
O 	O 	0.11990 0.12538 0.13777 -0.49900
O 	O 	0.72620 0.22172 0.63696 -0.78500
O 	O 	0.31210 0.36530 0.03492 -0.32500
O 	O 	0.25550 0.90807 0.30587 -0.49100
O 	O 	0.75550 0.09193 0.19413 -0.49700
O 	O 	0.75550 0.59193 0.30587 -0.49700
O 	O 	0.26820 0.44910 0.08452 -0.43000
O 	O 	0.11990 0.62538 0.36223 -0.49900
O 	O 	0.18790 0.86530 0.96508 -0.32800
O 	O 	0.06080 0.14550 0.61791 -0.53800
O 	O 	0.88010 0.37462 0.63777 -0.49900
O 	O 	0.68790 0.63470 0.96508 -0.32500
O 	O 	0.74450 0.09193 0.69413 -0.49100
O 	O 	0.93920 0.85450 0.38209 -0.53800
O 	O 	0.27380 0.27828 0.13696 -0.78500
O 	O 	0.68790 0.13470 0.53492 -0.32500
O 	O 	0.61990 0.87462 0.36223 -0.50800
O 	O 	0.77380 0.22172 0.13696 -0.79100
O 	O 	0.93920 0.35450 0.11791 -0.53800
O 	O 	0.99170 0.15818 0.72201 -0.51600
O 	O 	0.06080 0.64550 0.88209 -0.53800
O 	O 	0.74450 0.59193 0.80587 -0.49100
O 	O 	0.24450 0.40807 0.69413 -0.49700
O 	O 	0.23180 0.94910 0.91548 -0.43500
O 	O 	0.50830 0.65818 0.27799 -0.52500
O 	O 	0.73180 0.05090 0.58452 -0.43000
O 	O 	0.81210 0.63470 0.46508 -0.32700
O 	O 	0.00830 0.84182 0.27799 -0.51600
O 	O 	0.43920 0.64550 0.38209 -0.53000
O 	O 	0.56080 0.85450 0.88209 -0.53000
O 	O 	0.49170 0.84182 0.77799 -0.52500
O 	O 	0.00830 0.34182 0.22201 -0.51600
O 	O 	0.56080 0.35450 0.61791 -0.53000
O 	O 	0.77380 0.72172 0.36304 -0.79100
O 	O 	0.31210 0.86530 0.46508 -0.32500
O 	O 	0.38010 0.62538 0.86223 -0.50800
O 	O 	0.76820 0.05090 0.08452 -0.43500
O 	O 	0.99170 0.65818 0.77799 -0.51600
O 	O 	0.26820 0.94910 0.41548 -0.43000
O 	O 	0.88010 0.87462 0.86223 -0.49900
O 	O 	0.76820 0.55090 0.41548 -0.43500
O 	O 	0.23180 0.44910 0.58452 -0.43500
O 	O 	0.24450 0.90807 0.80587 -0.49700
O 	O 	0.25550 0.40807 0.19413 -0.49100
O 	O 	0.22620 0.27828 0.63696 -0.79100
O 	O 	0.27380 0.77828 0.36304 -0.78500
O 	O 	0.43920 0.14550 0.11791 -0.53000
O 	O 	0.49170 0.34182 0.72201 -0.52500
