data_crystal

_cell_length_a 10.82810
_cell_length_b 10.82810
_cell_length_c 19.04300
_cell_angle_alpha 90.00000
_cell_angle_beta  90.00000
_cell_angle_gamma 90.00000

_symmetry_space_group_name_	'P 1'
_symmetry_space_group_name_H-M	'P 1'

loop_
_symmetry_equiv_pos_as_xyz
  x,y,z

loop_
_atom_site_label
_atom_site_type_symbol
_atom_site_fract_x
_atom_site_fract_y
_atom_site_fract_z
_atom_site_charge
Na	Na	0.48160 0.18270 0.05610 0.57300
Na	Na	0.51840 0.81730 0.55610 0.57100
Na	Na	0.81730 0.48160 0.30610 0.57100
Na	Na	0.18270 0.51840 0.80610 0.57100
Mn	Mn	0.39729 0.02290 0.89477 1.28300
Mn	Mn	0.60271 0.97710 0.39477 1.28300
Mn	Mn	0.97710 0.39729 0.14477 1.28300
Mn	Mn	0.02290 0.60271 0.64477 1.28400
H 	H 	0.14380 0.20490 0.73340 0.05400
H 	H 	0.00720 0.08430 0.67120 0.01300
H 	H 	0.99120 0.87700 0.69390 0.01500
H 	H 	0.11510 0.78480 0.77690 0.02100
H 	H 	0.56300 0.27340 0.83320 0.26400
H 	H 	0.50620 0.40610 0.83920 0.26600
H 	H 	0.58780 0.35350 0.90030 0.28100
H 	H 	0.41490 0.38590 0.98780 0.26300
H 	H 	0.33990 0.44630 0.92630 0.26500
H 	H 	0.28250 0.33710 0.96940 0.28100
H 	H 	0.57050 0.69520 0.95320 0.26100
H 	H 	0.48250 0.62210 0.90270 0.25500
H 	H 	0.54770 0.74280 0.87650 0.24700
H 	H 	0.28160 0.77930 0.02410 0.26200
H 	H 	0.30790 0.64620 0.99530 0.23600
H 	H 	0.40670 0.71340 0.04180 0.25800
H 	H 	0.85620 0.79510 0.23340 0.05300
H 	H 	0.99280 0.91570 0.17120 0.01400
H 	H 	0.00880 0.12300 0.19390 0.01900
H 	H 	0.88490 0.21520 0.27690 0.02000
H 	H 	0.43700 0.72660 0.33320 0.26700
H 	H 	0.49380 0.59390 0.33920 0.26900
H 	H 	0.41220 0.64650 0.40030 0.28600
H 	H 	0.58510 0.61410 0.48780 0.27200
H 	H 	0.66010 0.55370 0.42630 0.26900
H 	H 	0.71750 0.66290 0.46940 0.29100
H 	H 	0.42950 0.30480 0.45320 0.28700
H 	H 	0.51750 0.37790 0.40270 0.27700
H 	H 	0.45230 0.25720 0.37650 0.26900
H 	H 	0.71840 0.22070 0.52410 0.30100
H 	H 	0.69210 0.35380 0.49530 0.29000
H 	H 	0.59330 0.28660 0.54180 0.29800
H 	H 	0.79510 0.14380 0.98340 0.06900
H 	H 	0.91570 0.00720 0.92120 -0.00800
H 	H 	0.12300 0.99120 0.94390 0.03800
H 	H 	0.21520 0.11510 0.02690 0.00500
H 	H 	0.72660 0.56300 0.08320 0.27400
H 	H 	0.59390 0.50620 0.08920 0.27700
H 	H 	0.64650 0.58780 0.15030 0.29100
H 	H 	0.61410 0.41490 0.23780 0.27500
H 	H 	0.55370 0.33990 0.17630 0.27200
H 	H 	0.66290 0.28250 0.21940 0.29300
H 	H 	0.30480 0.57050 0.20320 0.29100
H 	H 	0.37790 0.48250 0.15270 0.28200
H 	H 	0.25720 0.54770 0.12650 0.27600
H 	H 	0.22070 0.28160 0.27410 0.30400
H 	H 	0.35380 0.30790 0.24530 0.29300
H 	H 	0.28660 0.40670 0.29180 0.30000
H 	H 	0.20490 0.85620 0.48340 0.05600
H 	H 	0.08430 0.99280 0.42120 0.00900
H 	H 	0.87700 0.00880 0.44390 0.02100
H 	H 	0.78480 0.88490 0.52690 0.01800
H 	H 	0.27340 0.43700 0.58320 0.26700
H 	H 	0.40610 0.49380 0.58920 0.26900
H 	H 	0.35350 0.41220 0.65030 0.28600
H 	H 	0.38590 0.58510 0.73780 0.27300
H 	H 	0.44630 0.66010 0.67630 0.26900
H 	H 	0.33710 0.71750 0.71940 0.29100
H 	H 	0.69520 0.42950 0.70320 0.28600
H 	H 	0.62210 0.51750 0.65270 0.27700
H 	H 	0.74280 0.45230 0.62650 0.26800
H 	H 	0.77930 0.71840 0.77410 0.30100
H 	H 	0.64620 0.69210 0.74530 0.29100
H 	H 	0.71340 0.59330 0.79180 0.29800
C 	C 	0.20880 0.93800 0.80375 0.00700
C 	C 	0.21590 0.06590 0.79158 0.02700
C 	C 	0.13930 0.12040 0.74180 -0.09800
C 	C 	0.05720 0.04850 0.70520 -0.02300
C 	C 	0.04830 0.92430 0.71850 -0.05800
C 	C 	0.12280 0.86880 0.76790 -0.07700
C 	C 	0.31920 0.24800 0.84342 0.01200
C 	C 	0.41330 0.27890 0.89940 0.49900
C 	C 	0.52820 0.33300 0.86480 -0.93100
C 	C 	0.35760 0.37040 0.95040 -0.93700
C 	C 	0.30450 0.78400 0.88304 0.02400
C 	C 	0.40120 0.77910 0.94205 0.46800
C 	C 	0.51060 0.70270 0.91620 -0.88800
C 	C 	0.34420 0.72460 0.00660 -0.84800
C 	C 	0.79120 0.06200 0.30375 0.01100
C 	C 	0.78410 0.93410 0.29158 0.02300
C 	C 	0.86070 0.87960 0.24180 -0.09500
C 	C 	0.94280 0.95150 0.20520 -0.02700
C 	C 	0.95170 0.07570 0.21850 -0.06000
C 	C 	0.87720 0.13120 0.26790 -0.07600
C 	C 	0.68080 0.75200 0.34342 0.01000
C 	C 	0.58670 0.72110 0.39940 0.50600
C 	C 	0.47180 0.66700 0.36480 -0.94000
C 	C 	0.64240 0.62960 0.45040 -0.95200
C 	C 	0.69550 0.21600 0.38304 0.00700
C 	C 	0.59880 0.22090 0.44205 0.53500
C 	C 	0.48940 0.29730 0.41620 -0.95900
C 	C 	0.65580 0.27540 0.50660 -0.99800
C 	C 	0.06200 0.20880 0.05375 -0.01500
C 	C 	0.93410 0.21590 0.04158 0.06100
C 	C 	0.87960 0.13930 0.99180 -0.15400
C 	C 	0.95150 0.05720 0.95520 0.03200
C 	C 	0.07570 0.04830 0.96850 -0.13100
C 	C 	0.13120 0.12280 0.01790 -0.01000
C 	C 	0.75200 0.31920 0.09342 0.01100
C 	C 	0.72110 0.41330 0.14940 0.51200
C 	C 	0.66700 0.52820 0.11480 -0.95400
C 	C 	0.62960 0.35760 0.20040 -0.96000
C 	C 	0.21600 0.30450 0.13304 0.00500
C 	C 	0.22090 0.40120 0.19205 0.54000
C 	C 	0.29730 0.51060 0.16620 -0.97100
C 	C 	0.27540 0.34420 0.25660 -1.00500
C 	C 	0.93800 0.79120 0.55375 0.00300
C 	C 	0.06590 0.78410 0.54158 0.03200
C 	C 	0.12040 0.86070 0.49180 -0.10400
C 	C 	0.04850 0.94280 0.45520 -0.01300
C 	C 	0.92430 0.95170 0.46850 -0.07200
C 	C 	0.86880 0.87720 0.51790 -0.06800
C 	C 	0.24800 0.68080 0.59342 0.01000
C 	C 	0.27890 0.58670 0.64940 0.50600
C 	C 	0.33300 0.47180 0.61480 -0.94000
C 	C 	0.37040 0.64240 0.70040 -0.95300
C 	C 	0.78400 0.69550 0.63304 0.00600
C 	C 	0.77910 0.59880 0.69205 0.53500
C 	C 	0.70270 0.48940 0.66620 -0.95900
C 	C 	0.72460 0.65580 0.75660 -0.99800
N 	N 	0.30240 0.12690 0.83467 -0.28500
N 	N 	0.29230 0.89720 0.85557 -0.28500
N 	N 	0.69760 0.87310 0.33467 -0.28400
N 	N 	0.70770 0.10280 0.35557 -0.28100
N 	N 	0.87310 0.30240 0.08467 -0.28800
N 	N 	0.10280 0.29230 0.10557 -0.27500
N 	N 	0.12690 0.69760 0.58467 -0.28500
N 	N 	0.89720 0.70770 0.60557 -0.28100
O 	O 	0.44670 0.16985 0.93727 -0.59400
O 	O 	0.26660 0.33140 0.81007 -0.29900
O 	O 	0.44310 0.90023 0.95774 -0.54900
O 	O 	0.24800 0.68962 0.86488 -0.31200
O 	O 	0.55330 0.83015 0.43727 -0.59100
O 	O 	0.73340 0.66860 0.31007 -0.29800
O 	O 	0.55690 0.09977 0.45774 -0.55500
O 	O 	0.75200 0.31038 0.36488 -0.30700
O 	O 	0.83015 0.44670 0.18727 -0.59200
O 	O 	0.66860 0.26660 0.06007 -0.29200
O 	O 	0.09977 0.44310 0.20774 -0.55500
O 	O 	0.31038 0.24800 0.11488 -0.30200
O 	O 	0.16985 0.55330 0.68727 -0.59100
O 	O 	0.33140 0.73340 0.56007 -0.29800
O 	O 	0.90023 0.55690 0.70774 -0.55700
O 	O 	0.68962 0.75200 0.61488 -0.30700
