data_crystal

_cell_length_a 15.32480
_cell_length_b 32.71500
_cell_length_c 10.05650
_cell_angle_alpha 90.00000
_cell_angle_beta  107.14300
_cell_angle_gamma 90.00000

_symmetry_space_group_name_	'P 1'
_symmetry_space_group_name_H-M	'P 1'

loop_
_symmetry_equiv_pos_as_xyz
  x,y,z

loop_
_atom_site_label
_atom_site_type_symbol
_atom_site_fract_x
_atom_site_fract_y
_atom_site_fract_z
_atom_site_charge
Cu	Cu	0.83487 0.77455 0.53219 0.93500
Cu	Cu	0.98277 0.71722 0.51079 0.93900
Cu	Cu	0.90931 0.71617 0.76875 0.93200
O 	O 	0.87250 0.71822 0.56800 -0.74400
H 	H 	0.83240 0.70070 0.52790 0.29100
O 	O 	0.95850 0.65696 0.76070 -0.36500
O 	O 	0.01920 0.66232 0.58140 -0.37800
O 	O 	0.78410 0.72738 0.78040 -0.45400
O 	O 	0.72650 0.76667 0.59130 -0.40000
O 	O 	0.94510 0.72493 0.96640 -0.70000
H 	H 	0.98520 0.70800 0.01060 0.26800
O 	O 	0.46680 0.84700 0.62300 -0.03000
O 	O 	0.34380 0.80730 0.58990 -0.08100
O 	O 	0.48730 0.81100 0.96770 -0.09300
O 	O 	0.37900 0.84230 0.01300 -0.09500
O 	O 	0.26030 0.50700 0.70530 -0.04100
O 	O 	0.19150 0.54080 0.50760 -0.06900
O 	O 	0.23240 0.51200 0.98400 -0.03500
O 	O 	0.17820 0.47180 0.12740 -0.07800
O 	O 	0.08870 0.77835 0.94720 -0.40100
O 	O 	0.03520 0.73946 0.75890 -0.44700
O 	O 	0.10760 0.31916 0.73700 -0.36900
O 	O 	0.17430 0.33264 0.95870 -0.38100
C 	C 	0.99950 0.64353 0.67800 0.34000
C 	C 	0.02940 0.59980 0.69800 -0.05500
C 	C 	0.98450 0.57260 0.76050 0.01500
H 	H 	0.93560 0.58150 0.79000 0.06000
C 	C 	0.01230 0.53240 0.77920 -0.07300
H 	H 	0.98020 0.51430 0.81860 0.09200
C 	C 	0.08670 0.51800 0.74090 0.02700
C 	C 	0.12800 0.54520 0.67770 0.07400
C 	C 	0.10010 0.58530 0.65370 -0.04900
H 	H 	0.12930 0.60270 0.60730 0.09300
C 	C 	0.10960 0.47350 0.76500 0.02000
C 	C 	0.15250 0.45670 0.89350 0.08000
C 	C 	0.16430 0.41520 0.91670 -0.06800
H 	H 	0.19450 0.40530 0.00500 0.10600
C 	C 	0.13130 0.38910 0.80910 -0.04200
C 	C 	0.08550 0.40420 0.68200 -0.00700
H 	H 	0.06000 0.38640 0.60880 0.05600
C 	C 	0.07640 0.44610 0.66070 -0.05200
H 	H 	0.04670 0.45580 0.57190 0.07300
C 	C 	0.13750 0.34360 0.83210 0.32700
C 	C 	0.71990 0.74722 0.69520 0.36100
C 	C 	0.62940 0.74780 0.72220 -0.07800
C 	C 	0.57090 0.78000 0.66920 -0.03300
H 	H 	0.58880 0.80070 0.61920 0.08200
C 	C 	0.48570 0.78150 0.69070 0.07200
C 	C 	0.45770 0.75210 0.77010 0.03000
C 	C 	0.51790 0.71930 0.81910 -0.07200
H 	H 	0.50110 0.69860 0.86990 0.09200
C 	C 	0.60080 0.71720 0.79370 0.03000
H 	H 	0.63840 0.69470 0.82530 0.04900
C 	C 	0.36800 0.75320 0.80260 0.03300
C 	C 	0.30640 0.72300 0.75070 -0.07300
H 	H 	0.32380 0.70090 0.70590 0.08900
C 	C 	0.21790 0.72390 0.76240 0.02900
H 	H 	0.17640 0.70350 0.72120 0.04500
C 	C 	0.19230 0.75490 0.83460 -0.08100
C 	C 	0.25550 0.78460 0.89620 -0.03100
H 	H 	0.23970 0.80520 0.94850 0.08400
C 	C 	0.34260 0.78380 0.88020 0.07400
C 	C 	0.09780 0.75778 0.84720 0.37800
N 	N 	0.21100 0.53320 0.63210 0.01400
N 	N 	0.42590 0.81510 0.62480 0.00600
N 	N 	0.40610 0.81500 0.95320 -0.00200
N 	N 	0.18900 0.48420 0.01840 0.00300
O 	O 	0.44840 0.83830 0.54560 -0.07100
O 	O 	0.36630 0.83010 0.66670 -0.03600
O 	O 	0.22830 0.49700 0.62200 -0.05200
O 	O 	0.25260 0.55990 0.59000 -0.05100
O 	O 	0.19750 0.52090 0.00400 -0.04900
O 	O 	0.23840 0.46860 0.12460 -0.03500
Cu	Cu	0.16513 0.27455 0.96781 0.93100
Cu	Cu	0.01723 0.21722 0.98921 0.93200
Cu	Cu	0.09069 0.21617 0.73125 0.93000
O 	O 	0.12750 0.21822 0.93200 -0.74800
H 	H 	0.16760 0.20070 0.97210 0.28800
O 	O 	0.04150 0.15696 0.73930 -0.36400
O 	O 	0.98080 0.16232 0.91860 -0.37200
O 	O 	0.21590 0.22738 0.71960 -0.45800
O 	O 	0.27350 0.26667 0.90870 -0.40400
O 	O 	0.05490 0.22493 0.53360 -0.72100
H 	H 	0.01480 0.20800 0.48940 0.28300
O 	O 	0.53320 0.34700 0.87700 -0.03000
O 	O 	0.65620 0.30730 0.91010 -0.08200
O 	O 	0.51270 0.31100 0.53230 -0.09500
O 	O 	0.62100 0.34230 0.48700 -0.08900
O 	O 	0.73970 0.00700 0.79470 -0.04000
O 	O 	0.80850 0.04080 0.99240 -0.06900
O 	O 	0.76760 0.01200 0.51600 -0.02600
O 	O 	0.82180 0.97180 0.37260 -0.07800
O 	O 	0.91130 0.27835 0.55280 -0.40200
O 	O 	0.96480 0.23946 0.74110 -0.44500
O 	O 	0.89240 0.81916 0.76300 -0.36700
O 	O 	0.82570 0.83264 0.54130 -0.37800
C 	C 	0.00050 0.14353 0.82200 0.31700
C 	C 	0.97060 0.09980 0.80200 -0.02000
C 	C 	0.01550 0.07260 0.73950 -0.03500
H 	H 	0.06440 0.08150 0.71000 0.07500
C 	C 	0.98770 0.03240 0.72080 -0.02400
H 	H 	0.01980 0.01430 0.68140 0.07100
C 	C 	0.91330 0.01800 0.75910 0.00300
C 	C 	0.87200 0.04520 0.82230 0.09000
C 	C 	0.89990 0.08530 0.84630 -0.07300
H 	H 	0.87070 0.10270 0.89270 0.10100
C 	C 	0.89040 0.97350 0.73500 0.03300
C 	C 	0.84750 0.95670 0.60650 0.07200
C 	C 	0.83570 0.91520 0.58330 -0.04600
H 	H 	0.80550 0.90530 0.49500 0.09300
C 	C 	0.86870 0.88910 0.69090 -0.05200
C 	C 	0.91450 0.90420 0.81800 0.00400
H 	H 	0.94000 0.88640 0.89120 0.05500
C 	C 	0.92360 0.94610 0.83930 -0.06300
H 	H 	0.95330 0.95580 0.92810 0.07800
C 	C 	0.86250 0.84360 0.66790 0.33000
C 	C 	0.28010 0.24722 0.80480 0.36100
C 	C 	0.37060 0.24780 0.77780 -0.08100
C 	C 	0.42910 0.28000 0.83080 -0.03300
H 	H 	0.41120 0.30070 0.88080 0.08000
C 	C 	0.51430 0.28150 0.80930 0.07100
C 	C 	0.54230 0.25210 0.72990 0.03000
C 	C 	0.48210 0.21930 0.68090 -0.07400
H 	H 	0.49890 0.19860 0.63010 0.09100
C 	C 	0.39920 0.21720 0.70630 0.03000
H 	H 	0.36160 0.19470 0.67470 0.04700
C 	C 	0.63200 0.25320 0.69740 0.03200
C 	C 	0.69360 0.22300 0.74930 -0.07400
H 	H 	0.67620 0.20090 0.79410 0.08800
C 	C 	0.78210 0.22390 0.73760 0.02900
H 	H 	0.82360 0.20350 0.77880 0.04500
C 	C 	0.80770 0.25490 0.66540 -0.08200
C 	C 	0.74450 0.28460 0.60380 -0.03200
H 	H 	0.76030 0.30520 0.55150 0.08300
C 	C 	0.65740 0.28380 0.61980 0.07300
C 	C 	0.90220 0.25778 0.65280 0.37800
N 	N 	0.78900 0.03320 0.86790 0.01200
N 	N 	0.57410 0.31510 0.87520 0.00700
N 	N 	0.59390 0.31500 0.54680 -0.00400
N 	N 	0.81100 0.98420 0.48160 0.00300
O 	O 	0.55160 0.33830 0.95440 -0.07400
O 	O 	0.63370 0.33010 0.83330 -0.03600
O 	O 	0.77170 0.99700 0.87800 -0.05200
O 	O 	0.74740 0.05990 0.91000 -0.05200
O 	O 	0.80250 0.02090 0.49600 -0.05600
O 	O 	0.76160 0.96860 0.37540 -0.03700
Cu	Cu	0.16513 0.22545 0.46781 0.93400
Cu	Cu	0.01723 0.28278 0.48921 0.93800
Cu	Cu	0.09069 0.28383 0.23125 0.93100
O 	O 	0.12750 0.28178 0.43200 -0.74500
H 	H 	0.16760 0.29930 0.47210 0.29000
O 	O 	0.04150 0.34304 0.23930 -0.36600
O 	O 	0.98080 0.33768 0.41860 -0.37900
O 	O 	0.21590 0.27262 0.21960 -0.45500
O 	O 	0.27350 0.23333 0.40870 -0.40100
O 	O 	0.05490 0.27507 0.03360 -0.70100
H 	H 	0.01480 0.29200 0.98940 0.26700
O 	O 	0.53320 0.15300 0.37700 -0.03100
O 	O 	0.65620 0.19270 0.41010 -0.08100
O 	O 	0.51270 0.18900 0.03230 -0.09300
O 	O 	0.62100 0.15770 0.98700 -0.09500
O 	O 	0.73970 0.49300 0.29470 -0.04100
O 	O 	0.80850 0.45920 0.49240 -0.06900
O 	O 	0.76760 0.48800 0.01600 -0.03500
O 	O 	0.82180 0.52820 0.87260 -0.07800
O 	O 	0.91130 0.22165 0.05280 -0.40100
O 	O 	0.96480 0.26054 0.24110 -0.44700
O 	O 	0.89240 0.68084 0.26300 -0.36900
O 	O 	0.82570 0.66736 0.04130 -0.38100
C 	C 	0.00050 0.35647 0.32200 0.34000
C 	C 	0.97060 0.40020 0.30200 -0.05500
C 	C 	0.01550 0.42740 0.23950 0.01500
H 	H 	0.06440 0.41850 0.21000 0.06000
C 	C 	0.98770 0.46760 0.22080 -0.07300
H 	H 	0.01980 0.48570 0.18140 0.09200
C 	C 	0.91330 0.48200 0.25910 0.02700
C 	C 	0.87200 0.45480 0.32230 0.07400
C 	C 	0.89990 0.41470 0.34630 -0.04900
H 	H 	0.87070 0.39730 0.39270 0.09300
C 	C 	0.89040 0.52650 0.23500 0.02000
C 	C 	0.84750 0.54330 0.10650 0.08000
C 	C 	0.83570 0.58480 0.08330 -0.06800
H 	H 	0.80550 0.59470 0.99500 0.10600
C 	C 	0.86870 0.61090 0.19090 -0.04200
C 	C 	0.91450 0.59580 0.31800 -0.00700
H 	H 	0.94000 0.61360 0.39120 0.05600
C 	C 	0.92360 0.55390 0.33930 -0.05200
H 	H 	0.95330 0.54420 0.42810 0.07300
C 	C 	0.86250 0.65640 0.16790 0.32700
C 	C 	0.28010 0.25278 0.30480 0.36100
C 	C 	0.37060 0.25220 0.27780 -0.07800
C 	C 	0.42910 0.22000 0.33080 -0.03300
H 	H 	0.41120 0.19930 0.38080 0.08200
C 	C 	0.51430 0.21850 0.30930 0.07200
C 	C 	0.54230 0.24790 0.22990 0.03000
C 	C 	0.48210 0.28070 0.18090 -0.07200
H 	H 	0.49890 0.30140 0.13010 0.09200
C 	C 	0.39920 0.28280 0.20630 0.03000
H 	H 	0.36160 0.30530 0.17470 0.04900
C 	C 	0.63200 0.24680 0.19740 0.03300
C 	C 	0.69360 0.27700 0.24930 -0.07300
H 	H 	0.67620 0.29910 0.29410 0.08900
C 	C 	0.78210 0.27610 0.23760 0.02900
H 	H 	0.82360 0.29650 0.27880 0.04500
C 	C 	0.80770 0.24510 0.16540 -0.08100
C 	C 	0.74450 0.21540 0.10380 -0.03100
H 	H 	0.76030 0.19480 0.05150 0.08400
C 	C 	0.65740 0.21620 0.11980 0.07400
C 	C 	0.90220 0.24222 0.15280 0.37800
N 	N 	0.78900 0.46680 0.36790 0.01400
N 	N 	0.57410 0.18490 0.37520 0.00600
N 	N 	0.59390 0.18500 0.04680 -0.00200
N 	N 	0.81100 0.51580 0.98160 0.00300
O 	O 	0.55160 0.16170 0.45440 -0.07100
O 	O 	0.63370 0.16990 0.33330 -0.03600
O 	O 	0.77170 0.50300 0.37800 -0.05200
O 	O 	0.74740 0.44010 0.41000 -0.05100
O 	O 	0.80250 0.47910 0.99600 -0.04900
O 	O 	0.76160 0.53140 0.87540 -0.03500
Cu	Cu	0.83487 0.72545 0.03219 0.93100
Cu	Cu	0.98277 0.78278 0.01079 0.93200
Cu	Cu	0.90931 0.78383 0.26875 0.93000
O 	O 	0.87250 0.78178 0.06800 -0.74800
H 	H 	0.83240 0.79930 0.02790 0.28800
O 	O 	0.95850 0.84304 0.26070 -0.36400
O 	O 	0.01920 0.83768 0.08140 -0.37200
O 	O 	0.78410 0.77262 0.28040 -0.45800
O 	O 	0.72650 0.73333 0.09130 -0.40400
O 	O 	0.94510 0.77507 0.46640 -0.72100
H 	H 	0.98520 0.79200 0.51060 0.28300
O 	O 	0.46680 0.65300 0.12300 -0.03000
O 	O 	0.34380 0.69270 0.08990 -0.08200
O 	O 	0.48730 0.68900 0.46770 -0.09500
O 	O 	0.37900 0.65770 0.51300 -0.08900
O 	O 	0.26030 0.99300 0.20530 -0.04000
O 	O 	0.19150 0.95920 0.00760 -0.06900
O 	O 	0.23240 0.98800 0.48400 -0.02600
O 	O 	0.17820 0.02820 0.62740 -0.07800
O 	O 	0.08870 0.72165 0.44720 -0.40200
O 	O 	0.03520 0.76054 0.25890 -0.44500
O 	O 	0.10760 0.18084 0.23700 -0.36700
O 	O 	0.17430 0.16736 0.45870 -0.37800
C 	C 	0.99950 0.85647 0.17800 0.31700
C 	C 	0.02940 0.90020 0.19800 -0.02000
C 	C 	0.98450 0.92740 0.26050 -0.03500
H 	H 	0.93560 0.91850 0.29000 0.07500
C 	C 	0.01230 0.96760 0.27920 -0.02400
H 	H 	0.98020 0.98570 0.31860 0.07100
C 	C 	0.08670 0.98200 0.24090 0.00300
C 	C 	0.12800 0.95480 0.17770 0.09000
C 	C 	0.10010 0.91470 0.15370 -0.07300
H 	H 	0.12930 0.89730 0.10730 0.10100
C 	C 	0.10960 0.02650 0.26500 0.03300
C 	C 	0.15250 0.04330 0.39350 0.07200
C 	C 	0.16430 0.08480 0.41670 -0.04600
H 	H 	0.19450 0.09470 0.50500 0.09300
C 	C 	0.13130 0.11090 0.30910 -0.05200
C 	C 	0.08550 0.09580 0.18200 0.00400
H 	H 	0.06000 0.11360 0.10880 0.05500
C 	C 	0.07640 0.05390 0.16070 -0.06300
H 	H 	0.04670 0.04420 0.07190 0.07800
C 	C 	0.13750 0.15640 0.33210 0.33000
C 	C 	0.71990 0.75278 0.19520 0.36100
C 	C 	0.62940 0.75220 0.22220 -0.08100
C 	C 	0.57090 0.72000 0.16920 -0.03300
H 	H 	0.58880 0.69930 0.11920 0.08000
C 	C 	0.48570 0.71850 0.19070 0.07100
C 	C 	0.45770 0.74790 0.27010 0.03000
C 	C 	0.51790 0.78070 0.31910 -0.07400
H 	H 	0.50110 0.80140 0.36990 0.09100
C 	C 	0.60080 0.78280 0.29370 0.03000
H 	H 	0.63840 0.80530 0.32530 0.04700
C 	C 	0.36800 0.74680 0.30260 0.03200
C 	C 	0.30640 0.77700 0.25070 -0.07400
H 	H 	0.32380 0.79910 0.20590 0.08800
C 	C 	0.21790 0.77610 0.26240 0.02900
H 	H 	0.17640 0.79650 0.22120 0.04500
C 	C 	0.19230 0.74510 0.33460 -0.08200
C 	C 	0.25550 0.71540 0.39620 -0.03200
H 	H 	0.23970 0.69480 0.44850 0.08300
C 	C 	0.34260 0.71620 0.38020 0.07300
C 	C 	0.09780 0.74222 0.34720 0.37800
N 	N 	0.21100 0.96680 0.13210 0.01200
N 	N 	0.42590 0.68490 0.12480 0.00700
N 	N 	0.40610 0.68500 0.45320 -0.00400
N 	N 	0.18900 0.01580 0.51840 0.00300
O 	O 	0.44840 0.66170 0.04560 -0.07400
O 	O 	0.36630 0.66990 0.16670 -0.03600
O 	O 	0.22830 0.00300 0.12200 -0.05200
O 	O 	0.25260 0.94010 0.09000 -0.05200
O 	O 	0.19750 0.97910 0.50400 -0.05600
O 	O 	0.23840 0.03140 0.62460 -0.03700
