data_crystal

_cell_length_a 15.30860
_cell_length_b 32.44700
_cell_length_c 10.00750
_cell_angle_alpha 90.00000
_cell_angle_beta  107.56300
_cell_angle_gamma 90.00000

_symmetry_space_group_name_	'P 1'
_symmetry_space_group_name_H-M	'P 1'

loop_
_symmetry_equiv_pos_as_xyz
  x,y,z

loop_
_atom_site_label
_atom_site_type_symbol
_atom_site_fract_x
_atom_site_fract_y
_atom_site_fract_z
_atom_site_charge
Cu	Cu	0.65659 0.72676 0.00097 0.92500
Cu	Cu	0.51068 0.78568 0.02646 0.93700
Cu	Cu	0.58266 0.78383 0.76429 0.93100
O 	O 	0.62112 0.78450 0.96790 -0.71600
H 	H 	0.66210 0.80210 0.00690 0.27700
O 	O 	0.53200 0.84272 0.76380 -0.37500
O 	O 	0.46823 0.83957 0.93950 -0.37300
O 	O 	0.70981 0.77399 0.75470 -0.45300
O 	O 	0.76668 0.73468 0.94590 -0.39200
O 	O 	0.54649 0.72613 0.06590 -0.71900
H 	H 	0.50550 0.70950 0.01980 0.28100
O 	O 	0.14449 0.68800 0.95070 -0.08200
O 	O 	0.03119 0.65389 0.96400 -0.08600
O 	O 	0.00831 0.68867 0.54750 -0.20600
O 	O 	0.11050 0.65776 0.50420 -0.06400
O 	O 	0.24420 0.00207 0.83550 -0.08000
O 	O 	0.25590 0.94981 0.95740 -0.04200
O 	O 	0.33620 0.02490 0.37940 -0.08500
O 	O 	0.29480 0.98030 0.49090 -0.05300
O 	O 	0.40441 0.71830 0.58830 -0.39700
O 	O 	0.45852 0.75920 0.77670 -0.44000
O 	O 	0.39860 0.18468 0.74410 -0.38800
O 	O 	0.33674 0.16844 0.51920 -0.38200
C 	C 	0.48920 0.85727 0.84110 0.34800
C 	C 	0.45910 0.90112 0.81380 -0.05600
C 	C 	0.49990 0.92620 0.73880 0.01000
H 	H 	0.54460 0.91560 0.70300 0.06100
C 	C 	0.47450 0.96697 0.71660 -0.06300
H 	H 	0.50630 0.98380 0.67220 0.08900
C 	C 	0.40390 0.98393 0.75760 0.02400
C 	C 	0.36620 0.95834 0.83450 0.07400
C 	C 	0.39160 0.91781 0.86350 -0.04900
H 	H 	0.36370 0.90180 0.91600 0.09500
C 	C 	0.38300 0.02849 0.73090 0.02600
C 	C 	0.34260 0.04471 0.59830 0.07400
C 	C 	0.33600 0.08632 0.57210 -0.04600
H 	H 	0.30820 0.09580 0.48150 0.09300
C 	C 	0.37010 0.11392 0.67800 -0.05900
C 	C 	0.40920 0.09864 0.81000 0.00900
H 	H 	0.43190 0.11680 0.88430 0.04300
C 	C 	0.41540 0.05667 0.83460 -0.06500
H 	H 	0.44270 0.04740 0.92550 0.07600
C 	C 	0.36900 0.15924 0.64870 0.33600
C 	C 	0.77350 0.75367 0.83930 0.36000
C 	C 	0.86350 0.75126 0.81310 -0.07800
C 	C 	0.91950 0.71809 0.86520 -0.03000
H 	H 	0.90050 0.69770 0.91560 0.08200
C 	C 	0.00410 0.71521 0.84250 0.06900
C 	C 	0.03550 0.74446 0.76600 0.03400
C 	C 	0.97800 0.77843 0.71870 -0.06900
H 	H 	0.99730 0.79940 0.67100 0.09000
C 	C 	0.89360 0.78167 0.74080 0.03300
H 	H 	0.85670 0.80450 0.70700 0.04800
C 	C 	0.12480 0.74261 0.73630 0.02600
C 	C 	0.18750 0.77354 0.78850 -0.06300
H 	H 	0.17040 0.79560 0.83440 0.08800
C 	C 	0.27610 0.77318 0.77530 0.01500
H 	H 	0.31740 0.79410 0.81420 0.05200
C 	C 	0.30100 0.74120 0.70370 -0.06600
C 	C 	0.23780 0.71079 0.64350 -0.04500
H 	H 	0.25380 0.68980 0.59210 0.08900
C 	C 	0.15210 0.71150 0.65920 0.08200
C 	C 	0.39600 0.73949 0.68930 0.36000
N 	N 	0.29150 0.97287 0.89419 0.00600
N 	N 	0.06230 0.68118 0.90620 0.00700
N 	N 	0.08790 0.67917 0.58620 0.00300
N 	N 	0.30807 0.01687 0.47620 -0.00200
O 	O 	0.10200 0.65911 0.84450 -0.05200
O 	O 	0.00970 0.67700 0.59150 0.11100
O 	O 	0.12330 0.64673 0.57610 -0.03700
O 	O 	0.31460 0.96770 0.01979 -0.07400
O 	O 	0.28650 0.02990 0.35660 -0.02000
O 	O 	0.26326 0.98888 0.50430 -0.02800
Cu	Cu	0.34341 0.22676 0.49903 0.93200
Cu	Cu	0.48932 0.28568 0.47354 0.94100
Cu	Cu	0.41734 0.28383 0.73571 0.93000
O 	O 	0.37888 0.28450 0.53210 -0.73700
H 	H 	0.33790 0.30210 0.49310 0.29200
O 	O 	0.46800 0.34272 0.73620 -0.37800
O 	O 	0.53177 0.33957 0.56050 -0.38000
O 	O 	0.29019 0.27399 0.74530 -0.45700
O 	O 	0.23332 0.23468 0.55410 -0.39900
O 	O 	0.45351 0.22613 0.43410 -0.71600
H 	H 	0.49450 0.20950 0.48020 0.28300
O 	O 	0.85551 0.18800 0.54930 -0.08600
O 	O 	0.96881 0.15389 0.53600 -0.08800
O 	O 	0.99169 0.18867 0.95250 -0.22800
O 	O 	0.88950 0.15776 0.99580 -0.06700
O 	O 	0.75580 0.50207 0.66450 -0.07800
O 	O 	0.74410 0.44981 0.54260 -0.04500
O 	O 	0.66380 0.52490 0.12060 -0.08500
O 	O 	0.70520 0.48030 0.00910 -0.04800
O 	O 	0.59559 0.21830 0.91170 -0.40100
O 	O 	0.54148 0.25920 0.72330 -0.44200
O 	O 	0.60140 0.68468 0.75590 -0.38600
O 	O 	0.66326 0.66844 0.98080 -0.37600
C 	C 	0.51080 0.35727 0.65890 0.34900
C 	C 	0.54090 0.40112 0.68620 -0.05900
C 	C 	0.50010 0.42620 0.76120 0.01000
H 	H 	0.45540 0.41560 0.79700 0.06000
C 	C 	0.52550 0.46697 0.78340 -0.06400
H 	H 	0.49370 0.48380 0.82780 0.08800
C 	C 	0.59610 0.48393 0.74240 0.02200
C 	C 	0.63380 0.45834 0.66550 0.07400
C 	C 	0.60840 0.41781 0.63650 -0.04900
H 	H 	0.63630 0.40180 0.58400 0.09300
C 	C 	0.61700 0.52849 0.76910 0.03000
C 	C 	0.65740 0.54471 0.90170 0.06900
C 	C 	0.66400 0.58632 0.92790 -0.02700
H 	H 	0.69180 0.59580 0.01850 0.08100
C 	C 	0.62990 0.61392 0.82200 -0.06500
C 	C 	0.59080 0.59864 0.69000 0.01500
H 	H 	0.56810 0.61680 0.61570 0.04400
C 	C 	0.58460 0.55667 0.66540 -0.06900
H 	H 	0.55730 0.54740 0.57450 0.07900
C 	C 	0.63100 0.65924 0.85130 0.33800
C 	C 	0.22650 0.25367 0.66070 0.36000
C 	C 	0.13650 0.25126 0.68690 -0.08100
C 	C 	0.08050 0.21809 0.63480 -0.03200
H 	H 	0.09950 0.19770 0.58440 0.08000
C 	C 	0.99590 0.21521 0.65750 0.06800
C 	C 	0.96450 0.24446 0.73400 0.03500
C 	C 	0.02200 0.27843 0.78130 -0.07500
H 	H 	0.00270 0.29940 0.82900 0.08800
C 	C 	0.10640 0.28167 0.75920 0.03300
H 	H 	0.14330 0.30450 0.79300 0.04500
C 	C 	0.87520 0.24261 0.76370 0.02500
C 	C 	0.81250 0.27354 0.71150 -0.06400
H 	H 	0.82960 0.29560 0.66560 0.08500
C 	C 	0.72390 0.27318 0.72470 0.01300
H 	H 	0.68260 0.29410 0.68580 0.05000
C 	C 	0.69900 0.24120 0.79630 -0.06800
C 	C 	0.76220 0.21079 0.85650 -0.04600
H 	H 	0.74620 0.18980 0.90790 0.08700
C 	C 	0.84790 0.21150 0.84080 0.08100
C 	C 	0.60400 0.23949 0.81070 0.36100
N 	N 	0.70850 0.47287 0.60581 0.00500
N 	N 	0.93770 0.18118 0.59380 0.00700
N 	N 	0.91210 0.17917 0.91380 0.00400
N 	N 	0.69193 0.51687 0.02380 -0.00200
O 	O 	0.89800 0.15911 0.65550 -0.05300
O 	O 	0.99030 0.17700 0.90850 0.12900
O 	O 	0.87670 0.14673 0.92390 -0.03700
O 	O 	0.68540 0.46770 0.48021 -0.07000
O 	O 	0.71350 0.52990 0.14340 -0.02100
O 	O 	0.73674 0.48888 0.99570 -0.03200
Cu	Cu	0.34341 0.27324 0.99903 0.92400
Cu	Cu	0.48932 0.21432 0.97354 0.93600
Cu	Cu	0.41734 0.21617 0.23571 0.93000
O 	O 	0.37888 0.21550 0.03210 -0.71700
H 	H 	0.33790 0.19790 0.99310 0.27600
O 	O 	0.46800 0.15728 0.23620 -0.37600
O 	O 	0.53177 0.16043 0.06050 -0.37400
O 	O 	0.29019 0.22601 0.24530 -0.45400
O 	O 	0.23332 0.26532 0.05410 -0.39200
O 	O 	0.45351 0.27387 0.93410 -0.71900
H 	H 	0.49450 0.29050 0.98020 0.28100
O 	O 	0.85551 0.31200 0.04930 -0.08200
O 	O 	0.96881 0.34611 0.03600 -0.08600
O 	O 	0.99169 0.31133 0.45250 -0.20600
O 	O 	0.88950 0.34224 0.49580 -0.06400
O 	O 	0.75580 0.99793 0.16450 -0.08000
O 	O 	0.74410 0.05019 0.04260 -0.04200
O 	O 	0.66380 0.97510 0.62060 -0.08500
O 	O 	0.70520 0.01970 0.50910 -0.05300
O 	O 	0.59559 0.28170 0.41170 -0.39700
O 	O 	0.54148 0.24080 0.22330 -0.44000
O 	O 	0.60140 0.81532 0.25590 -0.38800
O 	O 	0.66326 0.83156 0.48080 -0.38200
C 	C 	0.51080 0.14273 0.15890 0.34800
C 	C 	0.54090 0.09888 0.18620 -0.05600
C 	C 	0.50010 0.07380 0.26120 0.01000
H 	H 	0.45540 0.08440 0.29700 0.06100
C 	C 	0.52550 0.03303 0.28340 -0.06300
H 	H 	0.49370 0.01620 0.32780 0.08900
C 	C 	0.59610 0.01607 0.24240 0.02400
C 	C 	0.63380 0.04166 0.16550 0.07400
C 	C 	0.60840 0.08219 0.13650 -0.04900
H 	H 	0.63630 0.09820 0.08400 0.09500
C 	C 	0.61700 0.97151 0.26910 0.02600
C 	C 	0.65740 0.95529 0.40170 0.07400
C 	C 	0.66400 0.91368 0.42790 -0.04600
H 	H 	0.69180 0.90420 0.51850 0.09300
C 	C 	0.62990 0.88608 0.32200 -0.05900
C 	C 	0.59080 0.90136 0.19000 0.00900
H 	H 	0.56810 0.88320 0.11570 0.04300
C 	C 	0.58460 0.94333 0.16540 -0.06500
H 	H 	0.55730 0.95260 0.07450 0.07600
C 	C 	0.63100 0.84076 0.35130 0.33600
C 	C 	0.22650 0.24633 0.16070 0.36000
C 	C 	0.13650 0.24874 0.18690 -0.07800
C 	C 	0.08050 0.28191 0.13480 -0.03000
H 	H 	0.09950 0.30230 0.08440 0.08200
C 	C 	0.99590 0.28479 0.15750 0.06900
C 	C 	0.96450 0.25554 0.23400 0.03400
C 	C 	0.02200 0.22157 0.28130 -0.06900
H 	H 	0.00270 0.20060 0.32900 0.09000
C 	C 	0.10640 0.21833 0.25920 0.03300
H 	H 	0.14330 0.19550 0.29300 0.04800
C 	C 	0.87520 0.25739 0.26370 0.02600
C 	C 	0.81250 0.22646 0.21150 -0.06300
H 	H 	0.82960 0.20440 0.16560 0.08800
C 	C 	0.72390 0.22682 0.22470 0.01500
H 	H 	0.68260 0.20590 0.18580 0.05200
C 	C 	0.69900 0.25880 0.29630 -0.06600
C 	C 	0.76220 0.28921 0.35650 -0.04500
H 	H 	0.74620 0.31020 0.40790 0.08900
C 	C 	0.84790 0.28850 0.34080 0.08200
C 	C 	0.60400 0.26051 0.31070 0.36000
N 	N 	0.70850 0.02713 0.10581 0.00600
N 	N 	0.93770 0.31882 0.09380 0.00700
N 	N 	0.91210 0.32083 0.41380 0.00300
N 	N 	0.69193 0.98313 0.52380 -0.00200
O 	O 	0.89800 0.34089 0.15550 -0.05200
O 	O 	0.99030 0.32300 0.40850 0.11100
O 	O 	0.87670 0.35327 0.42390 -0.03700
O 	O 	0.68540 0.03230 0.98021 -0.07400
O 	O 	0.71350 0.97010 0.64340 -0.02000
O 	O 	0.73674 0.01112 0.49570 -0.02800
Cu	Cu	0.65659 0.77324 0.50097 0.93200
Cu	Cu	0.51068 0.71432 0.52646 0.94100
Cu	Cu	0.58266 0.71617 0.26429 0.93000
O 	O 	0.62112 0.71550 0.46790 -0.73700
H 	H 	0.66210 0.69790 0.50690 0.29200
O 	O 	0.53200 0.65728 0.26380 -0.37800
O 	O 	0.46823 0.66043 0.43950 -0.38000
O 	O 	0.70981 0.72601 0.25470 -0.45700
O 	O 	0.76668 0.76532 0.44590 -0.39900
O 	O 	0.54649 0.77387 0.56590 -0.71600
H 	H 	0.50550 0.79050 0.51980 0.28300
O 	O 	0.14449 0.81200 0.45070 -0.08600
O 	O 	0.03119 0.84611 0.46400 -0.08800
O 	O 	0.00831 0.81133 0.04750 -0.22800
O 	O 	0.11050 0.84224 0.00420 -0.06700
O 	O 	0.24420 0.49793 0.33550 -0.07800
O 	O 	0.25590 0.55019 0.45740 -0.04500
O 	O 	0.33620 0.47510 0.87940 -0.08500
O 	O 	0.29480 0.51970 0.99090 -0.04800
O 	O 	0.40441 0.78170 0.08830 -0.40100
O 	O 	0.45852 0.74080 0.27670 -0.44200
O 	O 	0.39860 0.31532 0.24410 -0.38600
O 	O 	0.33674 0.33156 0.01920 -0.37600
C 	C 	0.48920 0.64273 0.34110 0.34900
C 	C 	0.45910 0.59888 0.31380 -0.05900
C 	C 	0.49990 0.57380 0.23880 0.01000
H 	H 	0.54460 0.58440 0.20300 0.06000
C 	C 	0.47450 0.53303 0.21660 -0.06400
H 	H 	0.50630 0.51620 0.17220 0.08800
C 	C 	0.40390 0.51607 0.25760 0.02200
C 	C 	0.36620 0.54166 0.33450 0.07400
C 	C 	0.39160 0.58219 0.36350 -0.04900
H 	H 	0.36370 0.59820 0.41600 0.09300
C 	C 	0.38300 0.47151 0.23090 0.03000
C 	C 	0.34260 0.45529 0.09830 0.06900
C 	C 	0.33600 0.41368 0.07210 -0.02700
H 	H 	0.30820 0.40420 0.98150 0.08100
C 	C 	0.37010 0.38608 0.17800 -0.06500
C 	C 	0.40920 0.40136 0.31000 0.01500
H 	H 	0.43190 0.38320 0.38430 0.04400
C 	C 	0.41540 0.44333 0.33460 -0.06900
H 	H 	0.44270 0.45260 0.42550 0.07900
C 	C 	0.36900 0.34076 0.14870 0.33800
C 	C 	0.77350 0.74633 0.33930 0.36000
C 	C 	0.86350 0.74874 0.31310 -0.08100
C 	C 	0.91950 0.78191 0.36520 -0.03200
H 	H 	0.90050 0.80230 0.41560 0.08000
C 	C 	0.00410 0.78479 0.34250 0.06800
C 	C 	0.03550 0.75554 0.26600 0.03500
C 	C 	0.97800 0.72157 0.21870 -0.07500
H 	H 	0.99730 0.70060 0.17100 0.08800
C 	C 	0.89360 0.71833 0.24080 0.03300
H 	H 	0.85670 0.69550 0.20700 0.04500
C 	C 	0.12480 0.75739 0.23630 0.02500
C 	C 	0.18750 0.72646 0.28850 -0.06400
H 	H 	0.17040 0.70440 0.33440 0.08500
C 	C 	0.27610 0.72682 0.27530 0.01300
H 	H 	0.31740 0.70590 0.31420 0.05000
C 	C 	0.30100 0.75880 0.20370 -0.06800
C 	C 	0.23780 0.78921 0.14350 -0.04600
H 	H 	0.25380 0.81020 0.09210 0.08700
C 	C 	0.15210 0.78850 0.15920 0.08100
C 	C 	0.39600 0.76051 0.18930 0.36100
N 	N 	0.29150 0.52713 0.39419 0.00500
N 	N 	0.06230 0.81882 0.40620 0.00700
N 	N 	0.08790 0.82083 0.08620 0.00400
N 	N 	0.30807 0.48313 0.97620 -0.00200
O 	O 	0.10200 0.84089 0.34450 -0.05300
O 	O 	0.00970 0.82300 0.09150 0.12900
O 	O 	0.12330 0.85327 0.07610 -0.03700
O 	O 	0.31460 0.53230 0.51979 -0.07000
O 	O 	0.28650 0.47010 0.85660 -0.02100
O 	O 	0.26326 0.51112 0.00430 -0.03200
