data_crystal

_cell_length_a 15.33100
_cell_length_b 32.50000
_cell_length_c 10.05000
_cell_angle_alpha 90.00000
_cell_angle_beta  107.45100
_cell_angle_gamma 90.00000

_symmetry_space_group_name_	'P 1'
_symmetry_space_group_name_H-M	'P 1'

loop_
_symmetry_equiv_pos_as_xyz
  x,y,z

loop_
_atom_site_label
_atom_site_type_symbol
_atom_site_fract_x
_atom_site_fract_y
_atom_site_fract_z
_atom_site_charge
Cu	Cu	0.41706 0.71618 0.73480 0.92000
Cu	Cu	0.48896 0.71437 0.47274 0.93200
Cu	Cu	0.34304 0.77326 0.49804 0.92400
O 	O 	0.37873 0.71549 0.53100 -0.63900
H 	H 	0.33160 0.69530 0.48640 0.19500
O 	O 	0.46820 0.65718 0.73560 -0.37400
O 	O 	0.53138 0.66040 0.55900 -0.37600
O 	O 	0.28992 0.72606 0.74470 -0.45400
O 	O 	0.23321 0.76516 0.55260 -0.39700
O 	O 	0.45313 0.72600 0.93340 -0.62200
H 	H 	0.50020 0.70680 0.98620 0.18500
O 	O 	0.96610 0.84460 0.53160 -0.08600
O 	O 	0.85430 0.81160 0.54580 -0.08900
O 	O 	0.99230 0.81626 0.93310 -0.09400
O 	O 	0.88250 0.84809 0.96890 -0.08700
O 	O 	0.77420 0.50510 0.71740 -0.03600
O 	O 	0.69020 0.53530 0.47340 -0.06900
O 	O 	0.72690 0.51624 0.99800 -0.06700
O 	O 	0.67770 0.47230 0.13870 -0.08300
O 	O 	0.59540 0.78182 0.91110 -0.39600
O 	O 	0.54154 0.74079 0.72250 -0.44300
O 	O 	0.60190 0.31531 0.75660 -0.38000
O 	O 	0.66420 0.33136 0.98200 -0.37000
C 	C 	0.51110 0.64287 0.65870 0.34200
C 	C 	0.54160 0.59885 0.68530 -0.04900
C 	C 	0.50070 0.57399 0.76100 0.00100
H 	H 	0.45620 0.58470 0.79670 0.06300
C 	C 	0.52610 0.53305 0.78360 -0.05600
H 	H 	0.49520 0.51640 0.82980 0.08400
C 	C 	0.59560 0.51613 0.74000 0.01600
C 	C 	0.63290 0.54145 0.66520 0.08200
C 	C 	0.60780 0.58192 0.63590 -0.05600
H 	H 	0.63560 0.59770 0.58280 0.09700
C 	C 	0.61720 0.47156 0.76860 0.03100
C 	C 	0.65800 0.45538 0.90090 0.07500
C 	C 	0.66400 0.41353 0.92840 -0.03300
H 	H 	0.69130 0.40400 0.01860 0.08700
C 	C 	0.62960 0.38620 0.82170 -0.05600
C 	C 	0.59130 0.40146 0.68990 0.01000
H 	H 	0.56950 0.38330 0.61580 0.04700
C 	C 	0.58440 0.44351 0.66550 -0.06500
H 	H 	0.55640 0.45280 0.57530 0.07800
C 	C 	0.63170 0.34080 0.85220 0.32700
C 	C 	0.22610 0.74637 0.65890 0.35300
C 	C 	0.13610 0.74888 0.68550 -0.07300
C 	C 	0.07900 0.78216 0.63310 -0.04300
H 	H 	0.09730 0.80240 0.58180 0.08500
C 	C 	0.99660 0.78515 0.65690 0.07600
C 	C 	0.96430 0.75626 0.73310 0.03000
C 	C 	0.02120 0.72226 0.78050 -0.07200
H 	H 	0.00180 0.70150 0.82870 0.08600
C 	C 	0.10610 0.71862 0.75740 0.02300
H 	H 	0.14260 0.69570 0.79060 0.04900
C 	C 	0.87430 0.75767 0.76250 0.02600
C 	C 	0.81250 0.72680 0.71100 -0.06500
H 	H 	0.83020 0.70480 0.66580 0.08400
C 	C 	0.72440 0.72701 0.72330 0.01400
H 	H 	0.68350 0.70610 0.68390 0.05000
C 	C 	0.69870 0.75867 0.79470 -0.06500
C 	C 	0.76120 0.78924 0.85640 -0.04500
H 	H 	0.74500 0.81020 0.90750 0.08700
C 	C 	0.84750 0.78816 0.84090 0.07800
C 	C 	0.60350 0.76052 0.80910 0.35600
N 	N 	0.70790 0.52720 0.61280 -0.00200
N 	N 	0.93790 0.82003 0.59190 0.01000
N 	N 	0.91180 0.82016 0.91180 -0.00300
N 	N 	0.69050 0.48340 0.02240 -0.00100
O 	O 	0.90300 0.84470 0.66810 -0.04900
O 	O 	0.74450 0.49480 0.63500 -0.04600
O 	O 	0.75800 0.55260 0.57040 -0.04600
O 	O 	0.76510 0.47120 0.10500 -0.04900
Cu	Cu	0.58294 0.21618 0.76520 0.92100
Cu	Cu	0.51104 0.21437 0.02726 0.92800
Cu	Cu	0.65696 0.27326 0.00196 0.91800
O 	O 	0.62127 0.21549 0.96900 -0.62400
H 	H 	0.66840 0.19530 0.01360 0.18500
O 	O 	0.53180 0.15718 0.76440 -0.37100
O 	O 	0.46862 0.16040 0.94100 -0.37000
O 	O 	0.71008 0.22606 0.75530 -0.45100
O 	O 	0.76679 0.26516 0.94740 -0.39000
O 	O 	0.54687 0.22600 0.56660 -0.61900
H 	H 	0.49980 0.20680 0.51380 0.18800
O 	O 	0.03390 0.34460 0.96840 -0.08400
O 	O 	0.14570 0.31160 0.95420 -0.08600
O 	O 	0.00770 0.31626 0.56690 -0.09100
O 	O 	0.11750 0.34809 0.53110 -0.08400
O 	O 	0.22580 0.00510 0.78260 -0.03500
O 	O 	0.30980 0.03530 0.02660 -0.07100
O 	O 	0.27310 0.01624 0.50200 -0.06700
O 	O 	0.32230 0.97230 0.36130 -0.08300
O 	O 	0.40460 0.28182 0.58890 -0.39200
O 	O 	0.45846 0.24079 0.77750 -0.44000
O 	O 	0.39810 0.81531 0.74340 -0.38200
O 	O 	0.33580 0.83136 0.51800 -0.37600
C 	C 	0.48890 0.14287 0.84130 0.34100
C 	C 	0.45840 0.09885 0.81470 -0.04700
C 	C 	0.49930 0.07399 0.73900 0.00100
H 	H 	0.54380 0.08470 0.70330 0.06500
C 	C 	0.47390 0.03305 0.71640 -0.05600
H 	H 	0.50480 0.01640 0.67020 0.08400
C 	C 	0.40440 0.01613 0.76000 0.01700
C 	C 	0.36710 0.04145 0.83480 0.08200
C 	C 	0.39220 0.08192 0.86410 -0.05600
H 	H 	0.36440 0.09770 0.91720 0.09900
C 	C 	0.38280 0.97156 0.73140 0.02700
C 	C 	0.34200 0.95538 0.59910 0.07900
C 	C 	0.33600 0.91353 0.57160 -0.05000
H 	H 	0.30870 0.90400 0.48140 0.09800
C 	C 	0.37040 0.88620 0.67830 -0.05000
C 	C 	0.40870 0.90146 0.81010 0.00500
H 	H 	0.43050 0.88330 0.88420 0.04600
C 	C 	0.41560 0.94351 0.83450 -0.06200
H 	H 	0.44360 0.95280 0.92470 0.07600
C 	C 	0.36830 0.84080 0.64780 0.32500
C 	C 	0.77390 0.24637 0.84110 0.35200
C 	C 	0.86390 0.24888 0.81450 -0.07000
C 	C 	0.92100 0.28216 0.86690 -0.04000
H 	H 	0.90270 0.30240 0.91820 0.08700
C 	C 	0.00340 0.28515 0.84310 0.07600
C 	C 	0.03570 0.25626 0.76690 0.02900
C 	C 	0.97880 0.22226 0.71950 -0.06700
H 	H 	0.99820 0.20150 0.67130 0.08800
C 	C 	0.89390 0.21862 0.74260 0.02300
H 	H 	0.85740 0.19570 0.70940 0.05200
C 	C 	0.12570 0.25767 0.73750 0.02700
C 	C 	0.18750 0.22680 0.78900 -0.06400
H 	H 	0.16980 0.20480 0.83420 0.08600
C 	C 	0.27560 0.22701 0.77670 0.01500
H 	H 	0.31650 0.20610 0.81610 0.05200
C 	C 	0.30130 0.25867 0.70530 -0.06200
C 	C 	0.23880 0.28924 0.64360 -0.04500
H 	H 	0.25500 0.31020 0.59250 0.08900
C 	C 	0.15250 0.28816 0.65910 0.07900
C 	C 	0.39650 0.26052 0.69090 0.35600
N 	N 	0.29210 0.02720 0.88720 -0.00100
N 	N 	0.06210 0.32003 0.90810 0.01000
N 	N 	0.08820 0.32016 0.58820 -0.00300
N 	N 	0.30950 0.98340 0.47760 -0.00100
O 	O 	0.09700 0.34470 0.83190 -0.04900
O 	O 	0.25550 0.99480 0.86500 -0.04800
O 	O 	0.24200 0.05260 0.92960 -0.04300
O 	O 	0.23490 0.97120 0.39500 -0.04800
Cu	Cu	0.58294 0.28382 0.26520 0.92100
Cu	Cu	0.51104 0.28563 0.52726 0.93300
Cu	Cu	0.65696 0.22674 0.50196 0.92500
O 	O 	0.62127 0.28451 0.46900 -0.63800
H 	H 	0.66840 0.30470 0.51360 0.19600
O 	O 	0.53180 0.34282 0.26440 -0.37300
O 	O 	0.46862 0.33960 0.44100 -0.37500
O 	O 	0.71008 0.27394 0.25530 -0.45300
O 	O 	0.76679 0.23484 0.44740 -0.39600
O 	O 	0.54687 0.27400 0.06660 -0.62100
H 	H 	0.49980 0.29320 0.01380 0.18500
O 	O 	0.03390 0.15540 0.46840 -0.08600
O 	O 	0.14570 0.18840 0.45420 -0.08900
O 	O 	0.00770 0.18374 0.06690 -0.09400
O 	O 	0.11750 0.15191 0.03110 -0.08700
O 	O 	0.22580 0.49490 0.28260 -0.03600
O 	O 	0.30980 0.46470 0.52660 -0.06900
O 	O 	0.27310 0.48376 0.00200 -0.06700
O 	O 	0.32230 0.52770 0.86130 -0.08300
O 	O 	0.40460 0.21818 0.08890 -0.39600
O 	O 	0.45846 0.25921 0.27750 -0.44300
O 	O 	0.39810 0.68469 0.24340 -0.38000
O 	O 	0.33580 0.66864 0.01800 -0.37000
C 	C 	0.48890 0.35713 0.34130 0.34200
C 	C 	0.45840 0.40115 0.31470 -0.04900
C 	C 	0.49930 0.42601 0.23900 0.00100
H 	H 	0.54380 0.41530 0.20330 0.06300
C 	C 	0.47390 0.46695 0.21640 -0.05600
H 	H 	0.50480 0.48360 0.17020 0.08400
C 	C 	0.40440 0.48387 0.26000 0.01600
C 	C 	0.36710 0.45855 0.33480 0.08200
C 	C 	0.39220 0.41808 0.36410 -0.05600
H 	H 	0.36440 0.40230 0.41720 0.09700
C 	C 	0.38280 0.52844 0.23140 0.03100
C 	C 	0.34200 0.54462 0.09910 0.07500
C 	C 	0.33600 0.58647 0.07160 -0.03300
H 	H 	0.30870 0.59600 0.98140 0.08700
C 	C 	0.37040 0.61380 0.17830 -0.05600
C 	C 	0.40870 0.59854 0.31010 0.01000
H 	H 	0.43050 0.61670 0.38420 0.04700
C 	C 	0.41560 0.55649 0.33450 -0.06500
H 	H 	0.44360 0.54720 0.42470 0.07800
C 	C 	0.36830 0.65920 0.14780 0.32700
C 	C 	0.77390 0.25363 0.34110 0.35300
C 	C 	0.86390 0.25112 0.31450 -0.07300
C 	C 	0.92100 0.21784 0.36690 -0.04300
H 	H 	0.90270 0.19760 0.41820 0.08500
C 	C 	0.00340 0.21485 0.34310 0.07600
C 	C 	0.03570 0.24374 0.26690 0.03000
C 	C 	0.97880 0.27774 0.21950 -0.07200
H 	H 	0.99820 0.29850 0.17130 0.08600
C 	C 	0.89390 0.28138 0.24260 0.02300
H 	H 	0.85740 0.30430 0.20940 0.04900
C 	C 	0.12570 0.24233 0.23750 0.02600
C 	C 	0.18750 0.27320 0.28900 -0.06500
H 	H 	0.16980 0.29520 0.33420 0.08400
C 	C 	0.27560 0.27299 0.27670 0.01400
H 	H 	0.31650 0.29390 0.31610 0.05000
C 	C 	0.30130 0.24133 0.20530 -0.06500
C 	C 	0.23880 0.21076 0.14360 -0.04500
H 	H 	0.25500 0.18980 0.09250 0.08700
C 	C 	0.15250 0.21184 0.15910 0.07800
C 	C 	0.39650 0.23948 0.19090 0.35600
N 	N 	0.29210 0.47280 0.38720 -0.00200
N 	N 	0.06210 0.17997 0.40810 0.01000
N 	N 	0.08820 0.17984 0.08820 -0.00300
N 	N 	0.30950 0.51660 0.97760 -0.00100
O 	O 	0.09700 0.15530 0.33190 -0.04900
O 	O 	0.25550 0.50520 0.36500 -0.04600
O 	O 	0.24200 0.44740 0.42960 -0.04600
O 	O 	0.23490 0.52880 0.89500 -0.04900
Cu	Cu	0.41706 0.78382 0.23480 0.92100
Cu	Cu	0.48896 0.78563 0.97274 0.92800
Cu	Cu	0.34304 0.72674 0.99804 0.91800
O 	O 	0.37873 0.78451 0.03100 -0.62400
H 	H 	0.33160 0.80470 0.98640 0.18500
O 	O 	0.46820 0.84282 0.23560 -0.37100
O 	O 	0.53138 0.83960 0.05900 -0.37000
O 	O 	0.28992 0.77394 0.24470 -0.45100
O 	O 	0.23321 0.73484 0.05260 -0.39000
O 	O 	0.45313 0.77400 0.43340 -0.61900
H 	H 	0.50020 0.79320 0.48620 0.18800
O 	O 	0.96610 0.65540 0.03160 -0.08400
O 	O 	0.85430 0.68840 0.04580 -0.08600
O 	O 	0.99230 0.68374 0.43310 -0.09100
O 	O 	0.88250 0.65191 0.46890 -0.08400
O 	O 	0.77420 0.99490 0.21740 -0.03500
O 	O 	0.69020 0.96470 0.97340 -0.07100
O 	O 	0.72690 0.98376 0.49800 -0.06700
O 	O 	0.67770 0.02770 0.63870 -0.08300
O 	O 	0.59540 0.71818 0.41110 -0.39200
O 	O 	0.54154 0.75921 0.22250 -0.44000
O 	O 	0.60190 0.18469 0.25660 -0.38200
O 	O 	0.66420 0.16864 0.48200 -0.37600
C 	C 	0.51110 0.85713 0.15870 0.34100
C 	C 	0.54160 0.90115 0.18530 -0.04700
C 	C 	0.50070 0.92601 0.26100 0.00100
H 	H 	0.45620 0.91530 0.29670 0.06500
C 	C 	0.52610 0.96695 0.28360 -0.05600
H 	H 	0.49520 0.98360 0.32980 0.08400
C 	C 	0.59560 0.98387 0.24000 0.01700
C 	C 	0.63290 0.95855 0.16520 0.08200
C 	C 	0.60780 0.91808 0.13590 -0.05600
H 	H 	0.63560 0.90230 0.08280 0.09900
C 	C 	0.61720 0.02844 0.26860 0.02700
C 	C 	0.65800 0.04462 0.40090 0.07900
C 	C 	0.66400 0.08647 0.42840 -0.05000
H 	H 	0.69130 0.09600 0.51860 0.09800
C 	C 	0.62960 0.11380 0.32170 -0.05000
C 	C 	0.59130 0.09854 0.18990 0.00500
H 	H 	0.56950 0.11670 0.11580 0.04600
C 	C 	0.58440 0.05649 0.16550 -0.06200
H 	H 	0.55640 0.04720 0.07530 0.07600
C 	C 	0.63170 0.15920 0.35220 0.32500
C 	C 	0.22610 0.75363 0.15890 0.35200
C 	C 	0.13610 0.75112 0.18550 -0.07000
C 	C 	0.07900 0.71784 0.13310 -0.04000
H 	H 	0.09730 0.69760 0.08180 0.08700
C 	C 	0.99660 0.71485 0.15690 0.07600
C 	C 	0.96430 0.74374 0.23310 0.02900
C 	C 	0.02120 0.77774 0.28050 -0.06700
H 	H 	0.00180 0.79850 0.32870 0.08800
C 	C 	0.10610 0.78138 0.25740 0.02300
H 	H 	0.14260 0.80430 0.29060 0.05200
C 	C 	0.87430 0.74233 0.26250 0.02700
C 	C 	0.81250 0.77320 0.21100 -0.06400
H 	H 	0.83020 0.79520 0.16580 0.08600
C 	C 	0.72440 0.77299 0.22330 0.01500
H 	H 	0.68350 0.79390 0.18390 0.05200
C 	C 	0.69870 0.74133 0.29470 -0.06200
C 	C 	0.76120 0.71076 0.35640 -0.04500
H 	H 	0.74500 0.68980 0.40750 0.08900
C 	C 	0.84750 0.71184 0.34090 0.07900
C 	C 	0.60350 0.73948 0.30910 0.35600
N 	N 	0.70790 0.97280 0.11280 -0.00100
N 	N 	0.93790 0.67997 0.09190 0.01000
N 	N 	0.91180 0.67984 0.41180 -0.00300
N 	N 	0.69050 0.01660 0.52240 -0.00100
O 	O 	0.90300 0.65530 0.16810 -0.04900
O 	O 	0.74450 0.00520 0.13500 -0.04800
O 	O 	0.75800 0.94740 0.07040 -0.04300
O 	O 	0.76510 0.02880 0.60500 -0.04800
