data_crystal

_cell_length_a 15.28600
_cell_length_b 32.62600
_cell_length_c 10.05300
_cell_angle_alpha 90.00000
_cell_angle_beta  107.20000
_cell_angle_gamma 90.00000

_symmetry_space_group_name_	'P 1'
_symmetry_space_group_name_H-M	'P 1'

loop_
_symmetry_equiv_pos_as_xyz
  x,y,z

loop_
_atom_site_label
_atom_site_type_symbol
_atom_site_fract_x
_atom_site_fract_y
_atom_site_fract_z
_atom_site_charge
Cu	Cu	0.40849 0.71624 0.26962 0.93100
Cu	Cu	0.48204 0.71743 0.01209 0.93500
Cu	Cu	0.33414 0.77476 0.03323 0.93200
O 	O 	0.37090 0.71792 0.06890 -0.74700
H 	H 	0.33070 0.70040 0.02880 0.29100
O 	O 	0.45640 0.65713 0.26030 -0.36800
O 	O 	0.51830 0.66253 0.08160 -0.38200
O 	O 	0.28330 0.72763 0.28180 -0.46000
O 	O 	0.22530 0.76676 0.09230 -0.40400
O 	O 	0.44480 0.72434 0.46790 -0.72000
H 	H 	0.48500 0.70730 0.51190 0.28500
O 	O 	0.96510 0.84790 0.11680 -0.02900
O 	O 	0.84310 0.80830 0.09180 -0.08300
O 	O 	0.98560 0.81170 0.46990 -0.09600
O 	O 	0.87780 0.84210 0.51640 -0.09000
O 	O 	0.75980 0.50910 0.20740 -0.04500
O 	O 	0.74840 0.56090 0.08200 -0.04900
O 	O 	0.73230 0.51310 0.48360 -0.03300
O 	O 	0.72030 0.46980 0.63560 -0.02000
O 	O 	0.58800 0.77811 0.44950 -0.40300
O 	O 	0.53430 0.73909 0.25950 -0.44800
O 	O 	0.60740 0.31922 0.23720 -0.36600
O 	O 	0.67480 0.33306 0.45880 -0.38400
C 	C 	0.49850 0.64355 0.17880 0.34000
C 	C 	0.52710 0.59985 0.19610 -0.05700
C 	C 	0.48150 0.57210 0.25670 0.01200
H 	H 	0.43080 0.58060 0.28260 0.06100
C 	C 	0.51030 0.53280 0.27830 -0.06800
H 	H 	0.47920 0.51510 0.32090 0.09100
C 	C 	0.58320 0.51800 0.24010 0.02600
C 	C 	0.62670 0.54590 0.17640 0.07500
C 	C 	0.59950 0.58560 0.15390 -0.05100
H 	H 	0.62990 0.60330 0.10990 0.09300
C 	C 	0.60990 0.47370 0.26550 0.02400
C 	C 	0.65210 0.45760 0.39130 0.07400
C 	C 	0.66540 0.41580 0.41450 -0.04300
H 	H 	0.69690 0.40630 0.50300 0.09200
C 	C 	0.63260 0.38851 0.30840 -0.05800
C 	C 	0.58560 0.40410 0.18140 0.00700
H 	H 	0.56020 0.38630 0.10780 0.05500
C 	C 	0.57510 0.44580 0.16050 -0.05900
H 	H 	0.54350 0.45540 0.07230 0.07600
C 	C 	0.63940 0.34370 0.33430 0.33700
C 	C 	0.21910 0.74732 0.19660 0.36400
C 	C 	0.12790 0.74840 0.22310 -0.08300
C 	C 	0.07110 0.78100 0.17120 -0.03400
H 	H 	0.09020 0.80180 0.12330 0.08000
C 	C 	0.98530 0.78250 0.19050 0.07100
C 	C 	0.95720 0.75280 0.27240 0.03300
C 	C 	0.01880 0.71970 0.32120 -0.07800
H 	H 	0.00290 0.69890 0.37300 0.09200
C 	C 	0.09990 0.71800 0.29360 0.03500
H 	H 	0.13760 0.69540 0.32360 0.04500
C 	C 	0.86650 0.75380 0.30230 0.03000
C 	C 	0.80690 0.72271 0.25300 -0.07300
H 	H 	0.82570 0.70020 0.21160 0.08800
C 	C 	0.71780 0.72370 0.26290 0.02600
H 	H 	0.67620 0.70340 0.22060 0.04500
C 	C 	0.69140 0.75490 0.33530 -0.08000
C 	C 	0.75610 0.78450 0.39850 -0.03400
H 	H 	0.74200 0.80440 0.45530 0.08400
C 	C 	0.84110 0.78440 0.37660 0.07500
C 	C 	0.59710 0.75761 0.34870 0.37300
N 	N 	0.71030 0.53460 0.13140 0.01300
N 	N 	0.92520 0.81610 0.12710 0.00900
N 	N 	0.90480 0.81530 0.45510 -0.00300
N 	N 	0.69210 0.48400 0.51860 0.00200
O 	O 	0.94520 0.83810 0.04240 -0.07400
O 	O 	0.87060 0.83320 0.17560 -0.04100
O 	O 	0.73140 0.49930 0.12100 -0.04900
O 	O 	0.69100 0.54300 0.00720 -0.06800
O 	O 	0.69430 0.52070 0.50350 -0.05300
O 	O 	0.66890 0.47250 0.61920 -0.08900
Cu	Cu	0.59151 0.21624 0.23038 0.93200
Cu	Cu	0.51796 0.21743 0.48791 0.93900
Cu	Cu	0.66586 0.27476 0.46677 0.93400
O 	O 	0.62910 0.21792 0.43110 -0.74500
H 	H 	0.66930 0.20040 0.47120 0.29300
O 	O 	0.54360 0.15713 0.23970 -0.36700
O 	O 	0.48170 0.16253 0.41840 -0.38000
O 	O 	0.71670 0.22763 0.21820 -0.45900
O 	O 	0.77470 0.26676 0.40770 -0.40200
O 	O 	0.55520 0.22434 0.03210 -0.70800
H 	H 	0.51500 0.20730 0.98810 0.27600
O 	O 	0.03490 0.34790 0.38320 -0.03000
O 	O 	0.15690 0.30830 0.40820 -0.08100
O 	O 	0.01440 0.31170 0.03010 -0.09300
O 	O 	0.12220 0.34210 0.98360 -0.09500
O 	O 	0.24020 0.00910 0.29260 -0.04400
O 	O 	0.25160 0.06090 0.41800 -0.04900
O 	O 	0.26770 0.01310 0.01640 -0.03000
O 	O 	0.27970 0.96980 0.86440 -0.02000
O 	O 	0.41200 0.27811 0.05050 -0.39900
O 	O 	0.46570 0.23909 0.24050 -0.44700
O 	O 	0.39260 0.81922 0.26280 -0.36800
O 	O 	0.32520 0.83306 0.04120 -0.38700
C 	C 	0.50150 0.14355 0.32120 0.33900
C 	C 	0.47290 0.09985 0.30390 -0.05600
C 	C 	0.51850 0.07210 0.24330 0.01200
H 	H 	0.56920 0.08060 0.21740 0.06100
C 	C 	0.48970 0.03280 0.22170 -0.06800
H 	H 	0.52080 0.01510 0.17910 0.09100
C 	C 	0.41680 0.01800 0.25990 0.02600
C 	C 	0.37330 0.04590 0.32360 0.07500
C 	C 	0.40050 0.08560 0.34610 -0.05100
H 	H 	0.37010 0.10330 0.39010 0.09400
C 	C 	0.39010 0.97370 0.23450 0.02100
C 	C 	0.34790 0.95760 0.10870 0.07700
C 	C 	0.33460 0.91580 0.08550 -0.05400
H 	H 	0.30310 0.90630 0.99700 0.09900
C 	C 	0.36740 0.88851 0.19160 -0.05400
C 	C 	0.41440 0.90410 0.31860 0.00300
H 	H 	0.43980 0.88630 0.39220 0.05400
C 	C 	0.42490 0.94580 0.33950 -0.05700
H 	H 	0.45650 0.95540 0.42770 0.07400
C 	C 	0.36060 0.84370 0.16570 0.33600
C 	C 	0.78090 0.24732 0.30340 0.36400
C 	C 	0.87210 0.24840 0.27690 -0.08100
C 	C 	0.92890 0.28100 0.32880 -0.03300
H 	H 	0.90980 0.30180 0.37670 0.08100
C 	C 	0.01470 0.28250 0.30950 0.07200
C 	C 	0.04280 0.25280 0.22760 0.03300
C 	C 	0.98120 0.21970 0.17880 -0.07600
H 	H 	0.99710 0.19890 0.12700 0.09300
C 	C 	0.90010 0.21800 0.20640 0.03500
H 	H 	0.86240 0.19540 0.17640 0.04700
C 	C 	0.13350 0.25380 0.19770 0.03000
C 	C 	0.19310 0.22271 0.24700 -0.07100
H 	H 	0.17430 0.20020 0.28840 0.08900
C 	C 	0.28220 0.22370 0.23710 0.02700
H 	H 	0.32380 0.20340 0.27940 0.04600
C 	C 	0.30860 0.25490 0.16470 -0.07800
C 	C 	0.24390 0.28450 0.10150 -0.03400
H 	H 	0.25800 0.30440 0.04470 0.08600
C 	C 	0.15890 0.28440 0.12340 0.07600
C 	C 	0.40290 0.25761 0.15130 0.37200
N 	N 	0.28970 0.03460 0.36860 0.01300
N 	N 	0.07480 0.31610 0.37290 0.00800
N 	N 	0.09520 0.31530 0.04490 -0.00000
N 	N 	0.30790 0.98400 0.98140 0.00200
O 	O 	0.05480 0.33810 0.45760 -0.07100
O 	O 	0.12940 0.33320 0.32440 -0.04000
O 	O 	0.26860 0.99930 0.37900 -0.05000
O 	O 	0.30900 0.04300 0.49280 -0.06800
O 	O 	0.30570 0.02070 0.99650 -0.05700
O 	O 	0.33110 0.97250 0.88080 -0.08800
Cu	Cu	0.59151 0.28376 0.73038 0.93200
Cu	Cu	0.51796 0.28257 0.98791 0.93600
Cu	Cu	0.66586 0.22524 0.96677 0.93200
O 	O 	0.62910 0.28208 0.93110 -0.74700
H 	H 	0.66930 0.29960 0.97120 0.29100
O 	O 	0.54360 0.34287 0.73970 -0.36800
O 	O 	0.48170 0.33747 0.91840 -0.38200
O 	O 	0.71670 0.27237 0.71820 -0.46000
O 	O 	0.77470 0.23324 0.90770 -0.40400
O 	O 	0.55520 0.27566 0.53210 -0.72000
H 	H 	0.51500 0.29270 0.48810 0.28500
O 	O 	0.03490 0.15210 0.88320 -0.02900
O 	O 	0.15690 0.19170 0.90820 -0.08300
O 	O 	0.01440 0.18830 0.53010 -0.09600
O 	O 	0.12220 0.15790 0.48360 -0.09000
O 	O 	0.24020 0.49090 0.79260 -0.04500
O 	O 	0.25160 0.43910 0.91800 -0.04900
O 	O 	0.26770 0.48690 0.51640 -0.03300
O 	O 	0.27970 0.53020 0.36440 -0.02000
O 	O 	0.41200 0.22189 0.55050 -0.40300
O 	O 	0.46570 0.26091 0.74050 -0.44800
O 	O 	0.39260 0.68078 0.76280 -0.36600
O 	O 	0.32520 0.66694 0.54120 -0.38400
C 	C 	0.50150 0.35645 0.82120 0.34000
C 	C 	0.47290 0.40015 0.80390 -0.05700
C 	C 	0.51850 0.42790 0.74330 0.01200
H 	H 	0.56920 0.41940 0.71740 0.06100
C 	C 	0.48970 0.46720 0.72170 -0.06800
H 	H 	0.52080 0.48490 0.67910 0.09100
C 	C 	0.41680 0.48200 0.75990 0.02600
C 	C 	0.37330 0.45410 0.82360 0.07500
C 	C 	0.40050 0.41440 0.84610 -0.05100
H 	H 	0.37010 0.39670 0.89010 0.09300
C 	C 	0.39010 0.52630 0.73450 0.02400
C 	C 	0.34790 0.54240 0.60870 0.07400
C 	C 	0.33460 0.58420 0.58550 -0.04300
H 	H 	0.30310 0.59370 0.49700 0.09200
C 	C 	0.36740 0.61149 0.69160 -0.05800
C 	C 	0.41440 0.59590 0.81860 0.00700
H 	H 	0.43980 0.61370 0.89220 0.05500
C 	C 	0.42490 0.55420 0.83950 -0.05900
H 	H 	0.45650 0.54460 0.92770 0.07600
C 	C 	0.36060 0.65630 0.66570 0.33700
C 	C 	0.78090 0.25268 0.80340 0.36400
C 	C 	0.87210 0.25160 0.77690 -0.08300
C 	C 	0.92890 0.21900 0.82880 -0.03400
H 	H 	0.90980 0.19820 0.87670 0.08000
C 	C 	0.01470 0.21750 0.80950 0.07100
C 	C 	0.04280 0.24720 0.72760 0.03300
C 	C 	0.98120 0.28030 0.67880 -0.07800
H 	H 	0.99710 0.30110 0.62700 0.09200
C 	C 	0.90010 0.28200 0.70640 0.03500
H 	H 	0.86240 0.30460 0.67640 0.04500
C 	C 	0.13350 0.24620 0.69770 0.03000
C 	C 	0.19310 0.27729 0.74700 -0.07300
H 	H 	0.17430 0.29980 0.78840 0.08800
C 	C 	0.28220 0.27630 0.73710 0.02600
H 	H 	0.32380 0.29660 0.77940 0.04500
C 	C 	0.30860 0.24510 0.66470 -0.08000
C 	C 	0.24390 0.21550 0.60150 -0.03400
H 	H 	0.25800 0.19560 0.54470 0.08400
C 	C 	0.15890 0.21560 0.62340 0.07500
C 	C 	0.40290 0.24239 0.65130 0.37300
N 	N 	0.28970 0.46540 0.86860 0.01300
N 	N 	0.07480 0.18390 0.87290 0.00900
N 	N 	0.09520 0.18470 0.54490 -0.00300
N 	N 	0.30790 0.51600 0.48140 0.00200
O 	O 	0.05480 0.16190 0.95760 -0.07400
O 	O 	0.12940 0.16680 0.82440 -0.04100
O 	O 	0.26860 0.50070 0.87900 -0.04900
O 	O 	0.30900 0.45700 0.99280 -0.06800
O 	O 	0.30570 0.47930 0.49650 -0.05300
O 	O 	0.33110 0.52750 0.38080 -0.08900
Cu	Cu	0.40849 0.78376 0.76962 0.93200
Cu	Cu	0.48204 0.78257 0.51209 0.93900
Cu	Cu	0.33414 0.72524 0.53323 0.93400
O 	O 	0.37090 0.78208 0.56890 -0.74500
H 	H 	0.33070 0.79960 0.52880 0.29300
O 	O 	0.45640 0.84287 0.76030 -0.36700
O 	O 	0.51830 0.83747 0.58160 -0.38000
O 	O 	0.28330 0.77237 0.78180 -0.45900
O 	O 	0.22530 0.73324 0.59230 -0.40200
O 	O 	0.44480 0.77566 0.96790 -0.70800
H 	H 	0.48500 0.79270 0.01190 0.27600
O 	O 	0.96510 0.65210 0.61680 -0.03000
O 	O 	0.84310 0.69170 0.59180 -0.08100
O 	O 	0.98560 0.68830 0.96990 -0.09300
O 	O 	0.87780 0.65790 0.01640 -0.09500
O 	O 	0.75980 0.99090 0.70740 -0.04400
O 	O 	0.74840 0.93910 0.58200 -0.04900
O 	O 	0.73230 0.98690 0.98360 -0.03000
O 	O 	0.72030 0.03020 0.13560 -0.02000
O 	O 	0.58800 0.72189 0.94950 -0.39900
O 	O 	0.53430 0.76091 0.75950 -0.44700
O 	O 	0.60740 0.18078 0.73720 -0.36800
O 	O 	0.67480 0.16694 0.95880 -0.38700
C 	C 	0.49850 0.85645 0.67880 0.33900
C 	C 	0.52710 0.90015 0.69610 -0.05600
C 	C 	0.48150 0.92790 0.75670 0.01200
H 	H 	0.43080 0.91940 0.78260 0.06100
C 	C 	0.51030 0.96720 0.77830 -0.06800
H 	H 	0.47920 0.98490 0.82090 0.09100
C 	C 	0.58320 0.98200 0.74010 0.02600
C 	C 	0.62670 0.95410 0.67640 0.07500
C 	C 	0.59950 0.91440 0.65390 -0.05100
H 	H 	0.62990 0.89670 0.60990 0.09400
C 	C 	0.60990 0.02630 0.76550 0.02100
C 	C 	0.65210 0.04240 0.89130 0.07700
C 	C 	0.66540 0.08420 0.91450 -0.05400
H 	H 	0.69690 0.09370 0.00300 0.09900
C 	C 	0.63260 0.11149 0.80840 -0.05400
C 	C 	0.58560 0.09590 0.68140 0.00300
H 	H 	0.56020 0.11370 0.60780 0.05400
C 	C 	0.57510 0.05420 0.66050 -0.05700
H 	H 	0.54350 0.04460 0.57230 0.07400
C 	C 	0.63940 0.15630 0.83430 0.33600
C 	C 	0.21910 0.75268 0.69660 0.36400
C 	C 	0.12790 0.75160 0.72310 -0.08100
C 	C 	0.07110 0.71900 0.67120 -0.03300
H 	H 	0.09020 0.69820 0.62330 0.08100
C 	C 	0.98530 0.71750 0.69050 0.07200
C 	C 	0.95720 0.74720 0.77240 0.03300
C 	C 	0.01880 0.78030 0.82120 -0.07600
H 	H 	0.00290 0.80110 0.87300 0.09300
C 	C 	0.09990 0.78200 0.79360 0.03500
H 	H 	0.13760 0.80460 0.82360 0.04700
C 	C 	0.86650 0.74620 0.80230 0.03000
C 	C 	0.80690 0.77729 0.75300 -0.07100
H 	H 	0.82570 0.79980 0.71160 0.08900
C 	C 	0.71780 0.77630 0.76290 0.02700
H 	H 	0.67620 0.79660 0.72060 0.04600
C 	C 	0.69140 0.74510 0.83530 -0.07800
C 	C 	0.75610 0.71550 0.89850 -0.03400
H 	H 	0.74200 0.69560 0.95530 0.08600
C 	C 	0.84110 0.71560 0.87660 0.07600
C 	C 	0.59710 0.74239 0.84870 0.37200
N 	N 	0.71030 0.96540 0.63140 0.01300
N 	N 	0.92520 0.68390 0.62710 0.00800
N 	N 	0.90480 0.68470 0.95510 -0.00000
N 	N 	0.69210 0.01600 0.01860 0.00200
O 	O 	0.94520 0.66190 0.54240 -0.07100
O 	O 	0.87060 0.66680 0.67560 -0.04000
O 	O 	0.73140 0.00070 0.62100 -0.05000
O 	O 	0.69100 0.95700 0.50720 -0.06800
O 	O 	0.69430 0.97930 0.00350 -0.05700
O 	O 	0.66890 0.02750 0.11920 -0.08800
