data_crystal

_cell_length_a 15.31900
_cell_length_b 32.72000
_cell_length_c 10.06650
_cell_angle_alpha 90.00000
_cell_angle_beta  107.13700
_cell_angle_gamma 90.00000

_symmetry_space_group_name_	'P 1'
_symmetry_space_group_name_H-M	'P 1'

loop_
_symmetry_equiv_pos_as_xyz
  x,y,z

loop_
_atom_site_label
_atom_site_type_symbol
_atom_site_fract_x
_atom_site_fract_y
_atom_site_fract_z
_atom_site_charge
Cu	Cu	0.33453 0.77466 0.03314 0.93000
Cu	Cu	0.48231 0.71722 0.01178 0.93400
Cu	Cu	0.40889 0.71625 0.26955 0.92900
O 	O 	0.37110 0.71775 0.06790 -0.74400
H 	H 	0.33090 0.70030 0.02790 0.29000
O 	O 	0.45770 0.65707 0.26190 -0.36700
O 	O 	0.51850 0.66249 0.08190 -0.38000
O 	O 	0.28340 0.72735 0.28140 -0.45500
O 	O 	0.22590 0.76656 0.09170 -0.40300
O 	O 	0.44480 0.72465 0.46700 -0.72100
H 	H 	0.48500 0.70770 0.51090 0.28300
O 	O 	0.96720 0.84810 0.12400 -0.03200
O 	O 	0.84430 0.80910 0.09540 -0.08500
O 	O 	0.98690 0.81100 0.46900 -0.09400
O 	O 	0.87780 0.84260 0.51530 -0.08900
O 	O 	0.75740 0.50660 0.20210 -0.04400
O 	O 	0.69250 0.54250 0.01090 -0.06800
O 	O 	0.72980 0.51260 0.48390 -0.03400
O 	O 	0.72420 0.46900 0.63190 -0.02200
O 	O 	0.58820 0.77849 0.44810 -0.40300
O 	O 	0.53440 0.73946 0.26010 -0.45200
O 	O 	0.60760 0.31939 0.23660 -0.37100
O 	O 	0.67400 0.33276 0.45830 -0.38100
C 	C 	0.49850 0.64337 0.17960 0.33300
C 	C 	0.52820 0.59961 0.19860 -0.05100
C 	C 	0.48340 0.57250 0.26060 0.00600
H 	H 	0.43480 0.58120 0.29090 0.06200
C 	C 	0.51110 0.53230 0.27740 -0.06300
H 	H 	0.47800 0.51420 0.31480 0.08900
C 	C 	0.58540 0.51760 0.24170 0.02300
C 	C 	0.62770 0.54520 0.17760 0.07600
C 	C 	0.59950 0.58550 0.15430 -0.05300
H 	H 	0.62890 0.60300 0.10850 0.09300
C 	C 	0.60940 0.47360 0.26450 0.02500
C 	C 	0.65330 0.45710 0.39540 0.07700
C 	C 	0.66440 0.41540 0.41600 -0.04900
H 	H 	0.69450 0.40550 0.50410 0.09400
C 	C 	0.63190 0.38883 0.30890 -0.05000
C 	C 	0.58650 0.40460 0.18090 0.00300
H 	H 	0.56360 0.38690 0.10650 0.05500
C 	C 	0.57400 0.44600 0.15970 -0.05800
H 	H 	0.54080 0.45550 0.07240 0.07500
C 	C 	0.63790 0.34328 0.33200 0.33700
C 	C 	0.21920 0.74749 0.19610 0.35500
C 	C 	0.12870 0.74830 0.22370 -0.07600
C 	C 	0.07010 0.78060 0.17100 -0.03800
H 	H 	0.08760 0.80130 0.12070 0.08200
C 	C 	0.98600 0.78190 0.19370 0.07400
C 	C 	0.95740 0.75270 0.27180 0.02700
C 	C 	0.01800 0.71960 0.32110 -0.06900
H 	H 	0.00150 0.69900 0.37250 0.08900
C 	C 	0.10140 0.71750 0.29430 0.02500
H 	H 	0.13910 0.69500 0.32440 0.04900
C 	C 	0.86720 0.75340 0.30170 0.03300
C 	C 	0.80660 0.72280 0.25100 -0.07400
H 	H 	0.82460 0.70070 0.20750 0.08900
C 	C 	0.71740 0.72380 0.26250 0.02600
H 	H 	0.67590 0.70340 0.22130 0.04500
C 	C 	0.69180 0.75513 0.33540 -0.08100
C 	C 	0.75460 0.78460 0.39840 -0.03100
H 	H 	0.73960 0.80460 0.45350 0.08300
C 	C 	0.84150 0.78410 0.37850 0.07400
C 	C 	0.59690 0.75765 0.34800 0.37800
N 	N 	0.70910 0.53330 0.13330 0.01200
N 	N 	0.92690 0.81610 0.13180 0.00900
N 	N 	0.90480 0.81520 0.45370 -0.00500
N 	N 	0.68950 0.48390 0.51720 -0.00000
O 	O 	0.94520 0.83820 0.04480 -0.07200
O 	O 	0.87900 0.83530 0.18920 -0.04300
O 	O 	0.72790 0.49800 0.11500 -0.04800
O 	O 	0.75040 0.55980 0.09100 -0.04900
O 	O 	0.69140 0.52100 0.50500 -0.05300
O 	O 	0.67290 0.47200 0.62220 -0.08500
Cu	Cu	0.66547 0.27466 0.46686 0.93300
Cu	Cu	0.51769 0.21722 0.48822 0.93800
Cu	Cu	0.59111 0.21625 0.23045 0.93000
O 	O 	0.62890 0.21775 0.43210 -0.74200
H 	H 	0.66910 0.20030 0.47210 0.29200
O 	O 	0.54230 0.15707 0.23810 -0.36500
O 	O 	0.48150 0.16249 0.41810 -0.37700
O 	O 	0.71660 0.22735 0.21860 -0.45200
O 	O 	0.77410 0.26656 0.40830 -0.40000
O 	O 	0.55520 0.22465 0.03300 -0.70800
H 	H 	0.51500 0.20770 0.98910 0.27500
O 	O 	0.03280 0.34810 0.37600 -0.03200
O 	O 	0.15570 0.30910 0.40460 -0.08300
O 	O 	0.01310 0.31100 0.03100 -0.09200
O 	O 	0.12220 0.34260 0.98470 -0.09400
O 	O 	0.24260 0.00660 0.29790 -0.04400
O 	O 	0.30750 0.04250 0.48910 -0.06700
O 	O 	0.27020 0.01260 0.01610 -0.03100
O 	O 	0.27580 0.96900 0.86810 -0.02200
O 	O 	0.41180 0.27849 0.05190 -0.39900
O 	O 	0.46560 0.23946 0.23990 -0.45100
O 	O 	0.39240 0.81939 0.26340 -0.37200
O 	O 	0.32600 0.83276 0.04170 -0.38400
C 	C 	0.50150 0.14337 0.32040 0.33300
C 	C 	0.47180 0.09961 0.30140 -0.05000
C 	C 	0.51660 0.07250 0.23940 0.00600
H 	H 	0.56520 0.08120 0.20910 0.06300
C 	C 	0.48890 0.03230 0.22260 -0.06300
H 	H 	0.52200 0.01420 0.18520 0.08900
C 	C 	0.41460 0.01760 0.25830 0.02300
C 	C 	0.37230 0.04520 0.32240 0.07700
C 	C 	0.40050 0.08550 0.34570 -0.05300
H 	H 	0.37110 0.10300 0.39150 0.09400
C 	C 	0.39060 0.97360 0.23550 0.02300
C 	C 	0.34670 0.95710 0.10460 0.08000
C 	C 	0.33560 0.91540 0.08400 -0.06000
H 	H 	0.30550 0.90550 0.99590 0.10100
C 	C 	0.36810 0.88883 0.19110 -0.04700
C 	C 	0.41350 0.90460 0.31910 -0.00000
H 	H 	0.43640 0.88690 0.39350 0.05500
C 	C 	0.42600 0.94600 0.34030 -0.05600
H 	H 	0.45920 0.95550 0.42760 0.07400
C 	C 	0.36210 0.84328 0.16800 0.33600
C 	C 	0.78080 0.24749 0.30390 0.35500
C 	C 	0.87130 0.24830 0.27630 -0.07400
C 	C 	0.92990 0.28060 0.32900 -0.03700
H 	H 	0.91240 0.30130 0.37930 0.08300
C 	C 	0.01400 0.28190 0.30630 0.07400
C 	C 	0.04260 0.25270 0.22820 0.02800
C 	C 	0.98200 0.21960 0.17890 -0.06700
H 	H 	0.99850 0.19900 0.12750 0.09000
C 	C 	0.89860 0.21750 0.20570 0.02500
H 	H 	0.86090 0.19500 0.17560 0.05000
C 	C 	0.13280 0.25340 0.19830 0.03300
C 	C 	0.19340 0.22280 0.24900 -0.07300
H 	H 	0.17540 0.20070 0.29250 0.08900
C 	C 	0.28260 0.22380 0.23750 0.02600
H 	H 	0.32410 0.20340 0.27870 0.04600
C 	C 	0.30820 0.25513 0.16460 -0.07900
C 	C 	0.24540 0.28460 0.10160 -0.03100
H 	H 	0.26040 0.30460 0.04650 0.08500
C 	C 	0.15850 0.28410 0.12150 0.07500
C 	C 	0.40310 0.25765 0.15200 0.37800
N 	N 	0.29090 0.03330 0.36670 0.01200
N 	N 	0.07310 0.31610 0.36820 0.00900
N 	N 	0.09520 0.31520 0.04630 -0.00200
N 	N 	0.31050 0.98390 0.98280 0.00000
O 	O 	0.05480 0.33820 0.45520 -0.07000
O 	O 	0.12100 0.33530 0.31080 -0.04200
O 	O 	0.27210 0.99800 0.38500 -0.04900
O 	O 	0.24960 0.05980 0.40900 -0.04900
O 	O 	0.30860 0.02100 0.99500 -0.05600
O 	O 	0.32710 0.97200 0.87780 -0.08400
Cu	Cu	0.66547 0.22534 0.96686 0.93100
Cu	Cu	0.51769 0.28278 0.98822 0.93500
Cu	Cu	0.59111 0.28375 0.73045 0.93000
O 	O 	0.62890 0.28225 0.93210 -0.74300
H 	H 	0.66910 0.29970 0.97210 0.29100
O 	O 	0.54230 0.34293 0.73810 -0.36600
O 	O 	0.48150 0.33751 0.91810 -0.37900
O 	O 	0.71660 0.27265 0.71860 -0.45400
O 	O 	0.77410 0.23344 0.90830 -0.40200
O 	O 	0.55520 0.27535 0.53300 -0.72000
H 	H 	0.51500 0.29230 0.48910 0.28400
O 	O 	0.03280 0.15190 0.87600 -0.03100
O 	O 	0.15570 0.19090 0.90460 -0.08500
O 	O 	0.01310 0.18900 0.53100 -0.09400
O 	O 	0.12220 0.15740 0.48470 -0.08900
O 	O 	0.24260 0.49340 0.79790 -0.04400
O 	O 	0.30750 0.45750 0.98910 -0.06800
O 	O 	0.27020 0.48740 0.51610 -0.03400
O 	O 	0.27580 0.53100 0.36810 -0.02200
O 	O 	0.41180 0.22151 0.55190 -0.40300
O 	O 	0.46560 0.26054 0.73990 -0.45200
O 	O 	0.39240 0.68061 0.76340 -0.37100
O 	O 	0.32600 0.66724 0.54170 -0.38100
C 	C 	0.50150 0.35663 0.82040 0.33300
C 	C 	0.47180 0.40039 0.80140 -0.05100
C 	C 	0.51660 0.42750 0.73940 0.00600
H 	H 	0.56520 0.41880 0.70910 0.06200
C 	C 	0.48890 0.46770 0.72260 -0.06300
H 	H 	0.52200 0.48580 0.68520 0.08900
C 	C 	0.41460 0.48240 0.75830 0.02300
C 	C 	0.37230 0.45480 0.82240 0.07600
C 	C 	0.40050 0.41450 0.84570 -0.05300
H 	H 	0.37110 0.39700 0.89150 0.09300
C 	C 	0.39060 0.52640 0.73550 0.02500
C 	C 	0.34670 0.54290 0.60460 0.07700
C 	C 	0.33560 0.58460 0.58400 -0.04900
H 	H 	0.30550 0.59450 0.49590 0.09400
C 	C 	0.36810 0.61117 0.69110 -0.05000
C 	C 	0.41350 0.59540 0.81910 0.00300
H 	H 	0.43640 0.61310 0.89350 0.05500
C 	C 	0.42600 0.55400 0.84030 -0.05800
H 	H 	0.45920 0.54450 0.92760 0.07500
C 	C 	0.36210 0.65672 0.66800 0.33700
C 	C 	0.78080 0.25251 0.80390 0.35500
C 	C 	0.87130 0.25170 0.77630 -0.07600
C 	C 	0.92990 0.21940 0.82900 -0.03800
H 	H 	0.91240 0.19870 0.87930 0.08200
C 	C 	0.01400 0.21810 0.80630 0.07400
C 	C 	0.04260 0.24730 0.72820 0.02700
C 	C 	0.98200 0.28040 0.67890 -0.06900
H 	H 	0.99850 0.30100 0.62750 0.08900
C 	C 	0.89860 0.28250 0.70570 0.02500
H 	H 	0.86090 0.30500 0.67560 0.04900
C 	C 	0.13280 0.24660 0.69830 0.03300
C 	C 	0.19340 0.27720 0.74900 -0.07400
H 	H 	0.17540 0.29930 0.79250 0.08900
C 	C 	0.28260 0.27620 0.73750 0.02600
H 	H 	0.32410 0.29660 0.77870 0.04500
C 	C 	0.30820 0.24487 0.66460 -0.08100
C 	C 	0.24540 0.21540 0.60160 -0.03100
H 	H 	0.26040 0.19540 0.54650 0.08300
C 	C 	0.15850 0.21590 0.62150 0.07400
C 	C 	0.40310 0.24235 0.65200 0.37800
N 	N 	0.29090 0.46670 0.86670 0.01200
N 	N 	0.07310 0.18390 0.86820 0.00900
N 	N 	0.09520 0.18480 0.54630 -0.00500
N 	N 	0.31050 0.51610 0.48280 -0.00000
O 	O 	0.05480 0.16180 0.95520 -0.07200
O 	O 	0.12100 0.16470 0.81080 -0.04300
O 	O 	0.27210 0.50200 0.88500 -0.04800
O 	O 	0.24960 0.44020 0.90900 -0.04900
O 	O 	0.30860 0.47900 0.49500 -0.05300
O 	O 	0.32710 0.52800 0.37780 -0.08500
Cu	Cu	0.33453 0.72534 0.53314 0.93300
Cu	Cu	0.48231 0.78278 0.51178 0.93800
Cu	Cu	0.40889 0.78375 0.76955 0.93000
O 	O 	0.37110 0.78225 0.56790 -0.74200
H 	H 	0.33090 0.79970 0.52790 0.29200
O 	O 	0.45770 0.84293 0.76190 -0.36500
O 	O 	0.51850 0.83751 0.58190 -0.37700
O 	O 	0.28340 0.77265 0.78140 -0.45200
O 	O 	0.22590 0.73344 0.59170 -0.40000
O 	O 	0.44480 0.77535 0.96700 -0.70800
H 	H 	0.48500 0.79230 0.01090 0.27500
O 	O 	0.96720 0.65190 0.62400 -0.03200
O 	O 	0.84430 0.69090 0.59540 -0.08300
O 	O 	0.98690 0.68900 0.96900 -0.09200
O 	O 	0.87780 0.65740 0.01530 -0.09400
O 	O 	0.75740 0.99340 0.70210 -0.04400
O 	O 	0.69250 0.95750 0.51090 -0.06700
O 	O 	0.72980 0.98740 0.98390 -0.03100
O 	O 	0.72420 0.03100 0.13190 -0.02200
O 	O 	0.58820 0.72151 0.94810 -0.39900
O 	O 	0.53440 0.76054 0.76010 -0.45100
O 	O 	0.60760 0.18061 0.73660 -0.37200
O 	O 	0.67400 0.16724 0.95830 -0.38400
C 	C 	0.49850 0.85663 0.67960 0.33300
C 	C 	0.52820 0.90039 0.69860 -0.05000
C 	C 	0.48340 0.92750 0.76060 0.00600
H 	H 	0.43480 0.91880 0.79090 0.06300
C 	C 	0.51110 0.96770 0.77740 -0.06300
H 	H 	0.47800 0.98580 0.81480 0.08900
C 	C 	0.58540 0.98240 0.74170 0.02300
C 	C 	0.62770 0.95480 0.67760 0.07700
C 	C 	0.59950 0.91450 0.65430 -0.05300
H 	H 	0.62890 0.89700 0.60850 0.09400
C 	C 	0.60940 0.02640 0.76450 0.02300
C 	C 	0.65330 0.04290 0.89540 0.08000
C 	C 	0.66440 0.08460 0.91600 -0.06000
H 	H 	0.69450 0.09450 0.00410 0.10100
C 	C 	0.63190 0.11117 0.80890 -0.04700
C 	C 	0.58650 0.09540 0.68090 -0.00000
H 	H 	0.56360 0.11310 0.60650 0.05500
C 	C 	0.57400 0.05400 0.65970 -0.05600
H 	H 	0.54080 0.04450 0.57240 0.07400
C 	C 	0.63790 0.15672 0.83200 0.33600
C 	C 	0.21920 0.75251 0.69610 0.35500
C 	C 	0.12870 0.75170 0.72370 -0.07400
C 	C 	0.07010 0.71940 0.67100 -0.03700
H 	H 	0.08760 0.69870 0.62070 0.08300
C 	C 	0.98600 0.71810 0.69370 0.07400
C 	C 	0.95740 0.74730 0.77180 0.02800
C 	C 	0.01800 0.78040 0.82110 -0.06700
H 	H 	0.00150 0.80100 0.87250 0.09000
C 	C 	0.10140 0.78250 0.79430 0.02500
H 	H 	0.13910 0.80500 0.82440 0.05000
C 	C 	0.86720 0.74660 0.80170 0.03300
C 	C 	0.80660 0.77720 0.75100 -0.07300
H 	H 	0.82460 0.79930 0.70750 0.08900
C 	C 	0.71740 0.77620 0.76250 0.02600
H 	H 	0.67590 0.79660 0.72130 0.04600
C 	C 	0.69180 0.74487 0.83540 -0.07900
C 	C 	0.75460 0.71540 0.89840 -0.03100
H 	H 	0.73960 0.69540 0.95350 0.08500
C 	C 	0.84150 0.71590 0.87850 0.07500
C 	C 	0.59690 0.74235 0.84800 0.37800
N 	N 	0.70910 0.96670 0.63330 0.01200
N 	N 	0.92690 0.68390 0.63180 0.00900
N 	N 	0.90480 0.68480 0.95370 -0.00200
N 	N 	0.68950 0.01610 0.01720 0.00000
O 	O 	0.94520 0.66180 0.54480 -0.07000
O 	O 	0.87900 0.66470 0.68920 -0.04200
O 	O 	0.72790 0.00200 0.61500 -0.04900
O 	O 	0.75040 0.94020 0.59100 -0.04900
O 	O 	0.69140 0.97900 0.00500 -0.05600
O 	O 	0.67290 0.02800 0.12220 -0.08400
