data_crystal

_cell_length_a 15.31700
_cell_length_b 32.46700
_cell_length_c 10.01500
_cell_angle_alpha 90.00000
_cell_angle_beta  107.51000
_cell_angle_gamma 90.00000

_symmetry_space_group_name_	'P 1'
_symmetry_space_group_name_H-M	'P 1'

loop_
_symmetry_equiv_pos_as_xyz
  x,y,z

loop_
_atom_site_label
_atom_site_type_symbol
_atom_site_fract_x
_atom_site_fract_y
_atom_site_fract_z
_atom_site_charge
Cu	Cu	0.65443 0.72672 0.00032 0.92500
Cu	Cu	0.50863 0.78565 0.02590 0.93500
Cu	Cu	0.58059 0.78382 0.76377 0.93000
O 	O 	0.61860 0.78446 0.96650 -0.71900
H 	H 	0.65960 0.80200 0.00530 0.27700
O 	O 	0.52950 0.84270 0.76320 -0.37400
O 	O 	0.46580 0.83957 0.93920 -0.37200
O 	O 	0.70820 0.77411 0.75400 -0.45200
O 	O 	0.76460 0.73478 0.94520 -0.39400
O 	O 	0.54480 0.72619 0.06580 -0.72100
H 	H 	0.50390 0.70960 0.01980 0.28100
O 	O 	0.09580 0.65790 0.84300 -0.04600
O 	O 	0.02770 0.65440 0.96070 -0.08400
O 	O 	0.10940 0.65660 0.50540 -0.07800
O 	O 	0.00450 0.68440 0.56370 -0.09300
O 	O 	0.31340 0.96810 0.01110 -0.07300
O 	O 	0.23380 0.99700 0.80690 -0.03800
O 	O 	0.33090 0.02710 0.37220 -0.07800
O 	O 	0.29020 0.98100 0.48710 -0.05700
O 	O 	0.40220 0.71842 0.58760 -0.39500
O 	O 	0.45610 0.75955 0.77560 -0.43700
O 	O 	0.40020 0.18477 0.74420 -0.38900
O 	O 	0.33800 0.16861 0.51990 -0.38100
C 	C 	0.48670 0.85720 0.84050 0.34600
C 	C 	0.45740 0.90124 0.81380 -0.05400
C 	C 	0.49810 0.92630 0.73840 0.00900
H 	H 	0.54240 0.91550 0.70200 0.06200
C 	C 	0.47350 0.96690 0.71710 -0.06200
H 	H 	0.50520 0.98360 0.67230 0.08700
C 	C 	0.40410 0.98384 0.75920 0.02100
C 	C 	0.36470 0.95890 0.83610 0.07800
C 	C 	0.39010 0.91796 0.86390 -0.05000
H 	H 	0.36210 0.90180 0.91590 0.09600
C 	C 	0.38300 0.02898 0.73250 0.03100
C 	C 	0.34430 0.04497 0.59950 0.07100
C 	C 	0.33640 0.08666 0.57290 -0.04300
H 	H 	0.30770 0.09620 0.48290 0.09400
C 	C 	0.37130 0.11384 0.68030 -0.06100
C 	C 	0.40950 0.09860 0.80900 0.01400
H 	H 	0.43290 0.11670 0.88320 0.04100
C 	C 	0.41490 0.05650 0.83460 -0.07000
H 	H 	0.44150 0.04720 0.92560 0.07900
C 	C 	0.37030 0.15934 0.64980 0.33600
C 	C 	0.77130 0.75340 0.83870 0.36300
C 	C 	0.86010 0.75134 0.81230 -0.08200
C 	C 	0.91730 0.71770 0.86510 -0.03300
H 	H 	0.89830 0.69720 0.91480 0.08400
C 	C 	0.00160 0.71510 0.84320 0.07200
C 	C 	0.03300 0.74440 0.76530 0.03400
C 	C 	0.97630 0.77790 0.71800 -0.07500
H 	H 	0.99580 0.79850 0.66940 0.09000
C 	C 	0.89190 0.78187 0.73990 0.03300
H 	H 	0.85610 0.80500 0.70650 0.04900
C 	C 	0.12320 0.74270 0.73530 0.02600
C 	C 	0.18600 0.77350 0.78850 -0.06400
H 	H 	0.16880 0.79550 0.83450 0.08700
C 	C 	0.27350 0.77290 0.77620 0.01500
H 	H 	0.31500 0.79360 0.81630 0.05200
C 	C 	0.29850 0.74106 0.70350 -0.06400
C 	C 	0.23580 0.71104 0.64290 -0.04700
H 	H 	0.25220 0.69010 0.59160 0.08900
C 	C 	0.15020 0.71150 0.65690 0.08100
C 	C 	0.39360 0.73946 0.68880 0.35600
N 	N 	0.28740 0.97350 0.88340 0.00900
N 	N 	0.06020 0.68150 0.90630 0.00700
N 	N 	0.08590 0.67950 0.58570 -0.00200
N 	N 	0.30870 0.01700 0.47500 0.00400
O 	O 	0.14250 0.68790 0.95050 -0.08400
O 	O 	0.11980 0.64590 0.57500 -0.01600
O 	O 	0.25080 0.94950 0.94500 -0.04300
O 	O 	0.25840 0.00830 0.87670 -0.04700
O 	O 	0.26320 0.03220 0.36530 -0.04000
O 	O 	0.26200 0.99050 0.50500 -0.02100
Cu	Cu	0.34557 0.22672 0.49968 0.93200
Cu	Cu	0.49137 0.28565 0.47410 0.94000
Cu	Cu	0.41941 0.28382 0.73623 0.93000
O 	O 	0.38140 0.28446 0.53350 -0.73900
H 	H 	0.34040 0.30200 0.49470 0.29300
O 	O 	0.47050 0.34270 0.73680 -0.37700
O 	O 	0.53420 0.33957 0.56080 -0.37800
O 	O 	0.29180 0.27411 0.74600 -0.45500
O 	O 	0.23540 0.23478 0.55480 -0.40000
O 	O 	0.45520 0.22619 0.43420 -0.71900
H 	H 	0.49610 0.20960 0.48020 0.28400
O 	O 	0.90420 0.15790 0.65700 -0.04600
O 	O 	0.97230 0.15440 0.53930 -0.08600
O 	O 	0.89060 0.15660 0.99460 -0.08300
O 	O 	0.99550 0.18440 0.93630 -0.09600
O 	O 	0.68660 0.46810 0.48890 -0.07000
O 	O 	0.76620 0.49700 0.69310 -0.04000
O 	O 	0.66910 0.52710 0.12780 -0.07800
O 	O 	0.70980 0.48100 0.01290 -0.05300
O 	O 	0.59780 0.21842 0.91240 -0.39900
O 	O 	0.54390 0.25955 0.72440 -0.43900
O 	O 	0.59980 0.68477 0.75580 -0.38800
O 	O 	0.66200 0.66861 0.98010 -0.37500
C 	C 	0.51330 0.35720 0.65950 0.34700
C 	C 	0.54260 0.40124 0.68620 -0.05700
C 	C 	0.50190 0.42630 0.76160 0.00900
H 	H 	0.45760 0.41550 0.79800 0.06000
C 	C 	0.52650 0.46690 0.78290 -0.06200
H 	H 	0.49480 0.48360 0.82770 0.08700
C 	C 	0.59590 0.48384 0.74080 0.01900
C 	C 	0.63530 0.45890 0.66390 0.07700
C 	C 	0.60990 0.41796 0.63610 -0.05000
H 	H 	0.63790 0.40180 0.58410 0.09400
C 	C 	0.61700 0.52898 0.76750 0.03500
C 	C 	0.65570 0.54497 0.90050 0.06500
C 	C 	0.66360 0.58666 0.92710 -0.02400
H 	H 	0.69230 0.59620 0.01710 0.08200
C 	C 	0.62870 0.61384 0.81970 -0.06800
C 	C 	0.59050 0.59860 0.69100 0.02100
H 	H 	0.56710 0.61670 0.61680 0.04200
C 	C 	0.58510 0.55650 0.66540 -0.07500
H 	H 	0.55850 0.54720 0.57440 0.08100
C 	C 	0.62970 0.65934 0.85020 0.33900
C 	C 	0.22870 0.25340 0.66130 0.36400
C 	C 	0.13990 0.25134 0.68770 -0.08500
C 	C 	0.08270 0.21770 0.63490 -0.03500
H 	H 	0.10170 0.19720 0.58520 0.08200
C 	C 	0.99840 0.21510 0.65680 0.07200
C 	C 	0.96700 0.24440 0.73470 0.03500
C 	C 	0.02370 0.27790 0.78200 -0.08000
H 	H 	0.00420 0.29850 0.83060 0.08800
C 	C 	0.10810 0.28187 0.76010 0.03300
H 	H 	0.14390 0.30500 0.79350 0.04600
C 	C 	0.87680 0.24270 0.76470 0.02400
C 	C 	0.81400 0.27350 0.71150 -0.06500
H 	H 	0.83120 0.29550 0.66550 0.08500
C 	C 	0.72650 0.27290 0.72380 0.01300
H 	H 	0.68500 0.29360 0.68370 0.05000
C 	C 	0.70150 0.24106 0.79650 -0.06600
C 	C 	0.76420 0.21104 0.85710 -0.04700
H 	H 	0.74780 0.19010 0.90840 0.08700
C 	C 	0.84980 0.21150 0.84310 0.07800
C 	C 	0.60640 0.23946 0.81120 0.35600
N 	N 	0.71260 0.47350 0.61660 0.00800
N 	N 	0.93980 0.18150 0.59370 0.00800
N 	N 	0.91410 0.17950 0.91430 -0.00100
N 	N 	0.69130 0.51700 0.02500 0.00400
O 	O 	0.85750 0.18790 0.54950 -0.08800
O 	O 	0.88020 0.14590 0.92500 -0.01500
O 	O 	0.74920 0.44950 0.55500 -0.04600
O 	O 	0.74160 0.50830 0.62330 -0.04500
O 	O 	0.73680 0.53220 0.13470 -0.04100
O 	O 	0.73800 0.49050 0.99500 -0.02400
Cu	Cu	0.34557 0.27328 0.99968 0.92500
Cu	Cu	0.49137 0.21435 0.97410 0.93500
Cu	Cu	0.41941 0.21618 0.23623 0.93000
O 	O 	0.38140 0.21554 0.03350 -0.71900
H 	H 	0.34040 0.19800 0.99470 0.27700
O 	O 	0.47050 0.15730 0.23680 -0.37400
O 	O 	0.53420 0.16043 0.06080 -0.37200
O 	O 	0.29180 0.22589 0.24600 -0.45200
O 	O 	0.23540 0.26522 0.05480 -0.39400
O 	O 	0.45520 0.27381 0.93420 -0.72100
H 	H 	0.49610 0.29040 0.98020 0.28100
O 	O 	0.90420 0.34210 0.15700 -0.04600
O 	O 	0.97230 0.34560 0.03930 -0.08400
O 	O 	0.89060 0.34340 0.49460 -0.07800
O 	O 	0.99550 0.31560 0.43630 -0.09300
O 	O 	0.68660 0.03190 0.98890 -0.07300
O 	O 	0.76620 0.00300 0.19310 -0.03800
O 	O 	0.66910 0.97290 0.62780 -0.07800
O 	O 	0.70980 0.01900 0.51290 -0.05700
O 	O 	0.59780 0.28158 0.41240 -0.39500
O 	O 	0.54390 0.24045 0.22440 -0.43700
O 	O 	0.59980 0.81523 0.25580 -0.38900
O 	O 	0.66200 0.83139 0.48010 -0.38100
C 	C 	0.51330 0.14280 0.15950 0.34600
C 	C 	0.54260 0.09876 0.18620 -0.05400
C 	C 	0.50190 0.07370 0.26160 0.00900
H 	H 	0.45760 0.08450 0.29800 0.06200
C 	C 	0.52650 0.03310 0.28290 -0.06200
H 	H 	0.49480 0.01640 0.32770 0.08700
C 	C 	0.59590 0.01616 0.24080 0.02100
C 	C 	0.63530 0.04110 0.16390 0.07800
C 	C 	0.60990 0.08204 0.13610 -0.05000
H 	H 	0.63790 0.09820 0.08410 0.09600
C 	C 	0.61700 0.97102 0.26750 0.03100
C 	C 	0.65570 0.95503 0.40050 0.07100
C 	C 	0.66360 0.91334 0.42710 -0.04300
H 	H 	0.69230 0.90380 0.51710 0.09400
C 	C 	0.62870 0.88616 0.31970 -0.06100
C 	C 	0.59050 0.90140 0.19100 0.01400
H 	H 	0.56710 0.88330 0.11680 0.04100
C 	C 	0.58510 0.94350 0.16540 -0.07000
H 	H 	0.55850 0.95280 0.07440 0.07900
C 	C 	0.62970 0.84066 0.35020 0.33600
C 	C 	0.22870 0.24660 0.16130 0.36300
C 	C 	0.13990 0.24866 0.18770 -0.08200
C 	C 	0.08270 0.28230 0.13490 -0.03300
H 	H 	0.10170 0.30280 0.08520 0.08400
C 	C 	0.99840 0.28490 0.15680 0.07200
C 	C 	0.96700 0.25560 0.23470 0.03400
C 	C 	0.02370 0.22210 0.28200 -0.07500
H 	H 	0.00420 0.20150 0.33060 0.09000
C 	C 	0.10810 0.21813 0.26010 0.03300
H 	H 	0.14390 0.19500 0.29350 0.04900
C 	C 	0.87680 0.25730 0.26470 0.02600
C 	C 	0.81400 0.22650 0.21150 -0.06400
H 	H 	0.83120 0.20450 0.16550 0.08700
C 	C 	0.72650 0.22710 0.22380 0.01500
H 	H 	0.68500 0.20640 0.18370 0.05200
C 	C 	0.70150 0.25894 0.29650 -0.06400
C 	C 	0.76420 0.28896 0.35710 -0.04700
H 	H 	0.74780 0.30990 0.40840 0.08900
C 	C 	0.84980 0.28850 0.34310 0.08100
C 	C 	0.60640 0.26054 0.31120 0.35600
N 	N 	0.71260 0.02650 0.11660 0.00900
N 	N 	0.93980 0.31850 0.09370 0.00700
N 	N 	0.91410 0.32050 0.41430 -0.00200
N 	N 	0.69130 0.98300 0.52500 0.00400
O 	O 	0.85750 0.31210 0.04950 -0.08400
O 	O 	0.88020 0.35410 0.42500 -0.01600
O 	O 	0.74920 0.05050 0.05500 -0.04300
O 	O 	0.74160 0.99170 0.12330 -0.04700
O 	O 	0.73680 0.96780 0.63470 -0.04000
O 	O 	0.73800 0.00950 0.49500 -0.02100
Cu	Cu	0.65443 0.77328 0.50032 0.93200
Cu	Cu	0.50863 0.71435 0.52590 0.94000
Cu	Cu	0.58059 0.71618 0.26377 0.93000
O 	O 	0.61860 0.71554 0.46650 -0.73900
H 	H 	0.65960 0.69800 0.50530 0.29300
O 	O 	0.52950 0.65730 0.26320 -0.37700
O 	O 	0.46580 0.66043 0.43920 -0.37800
O 	O 	0.70820 0.72589 0.25400 -0.45500
O 	O 	0.76460 0.76522 0.44520 -0.40000
O 	O 	0.54480 0.77381 0.56580 -0.71900
H 	H 	0.50390 0.79040 0.51980 0.28400
O 	O 	0.09580 0.84210 0.34300 -0.04600
O 	O 	0.02770 0.84560 0.46070 -0.08600
O 	O 	0.10940 0.84340 0.00540 -0.08300
O 	O 	0.00450 0.81560 0.06370 -0.09600
O 	O 	0.31340 0.53190 0.51110 -0.07000
O 	O 	0.23380 0.50300 0.30690 -0.04000
O 	O 	0.33090 0.47290 0.87220 -0.07800
O 	O 	0.29020 0.51900 0.98710 -0.05300
O 	O 	0.40220 0.78158 0.08760 -0.39900
O 	O 	0.45610 0.74045 0.27560 -0.43900
O 	O 	0.40020 0.31523 0.24420 -0.38800
O 	O 	0.33800 0.33139 0.01990 -0.37500
C 	C 	0.48670 0.64280 0.34050 0.34700
C 	C 	0.45740 0.59876 0.31380 -0.05700
C 	C 	0.49810 0.57370 0.23840 0.00900
H 	H 	0.54240 0.58450 0.20200 0.06000
C 	C 	0.47350 0.53310 0.21710 -0.06200
H 	H 	0.50520 0.51640 0.17230 0.08700
C 	C 	0.40410 0.51616 0.25920 0.01900
C 	C 	0.36470 0.54110 0.33610 0.07700
C 	C 	0.39010 0.58204 0.36390 -0.05000
H 	H 	0.36210 0.59820 0.41590 0.09400
C 	C 	0.38300 0.47102 0.23250 0.03500
C 	C 	0.34430 0.45503 0.09950 0.06500
C 	C 	0.33640 0.41334 0.07290 -0.02400
H 	H 	0.30770 0.40380 0.98290 0.08200
C 	C 	0.37130 0.38616 0.18030 -0.06800
C 	C 	0.40950 0.40140 0.30900 0.02100
H 	H 	0.43290 0.38330 0.38320 0.04200
C 	C 	0.41490 0.44350 0.33460 -0.07500
H 	H 	0.44150 0.45280 0.42560 0.08100
C 	C 	0.37030 0.34066 0.14980 0.33900
C 	C 	0.77130 0.74660 0.33870 0.36400
C 	C 	0.86010 0.74866 0.31230 -0.08500
C 	C 	0.91730 0.78230 0.36510 -0.03500
H 	H 	0.89830 0.80280 0.41480 0.08200
C 	C 	0.00160 0.78490 0.34320 0.07200
C 	C 	0.03300 0.75560 0.26530 0.03500
C 	C 	0.97630 0.72210 0.21800 -0.08000
H 	H 	0.99580 0.70150 0.16940 0.08800
C 	C 	0.89190 0.71813 0.23990 0.03300
H 	H 	0.85610 0.69500 0.20650 0.04600
C 	C 	0.12320 0.75730 0.23530 0.02400
C 	C 	0.18600 0.72650 0.28850 -0.06500
H 	H 	0.16880 0.70450 0.33450 0.08500
C 	C 	0.27350 0.72710 0.27620 0.01300
H 	H 	0.31500 0.70640 0.31630 0.05000
C 	C 	0.29850 0.75894 0.20350 -0.06600
C 	C 	0.23580 0.78896 0.14290 -0.04700
H 	H 	0.25220 0.80990 0.09160 0.08700
C 	C 	0.15020 0.78850 0.15690 0.07800
C 	C 	0.39360 0.76054 0.18880 0.35600
N 	N 	0.28740 0.52650 0.38340 0.00800
N 	N 	0.06020 0.81850 0.40630 0.00800
N 	N 	0.08590 0.82050 0.08570 -0.00100
N 	N 	0.30870 0.48300 0.97500 0.00400
O 	O 	0.14250 0.81210 0.45050 -0.08800
O 	O 	0.11980 0.85410 0.07500 -0.01500
O 	O 	0.25080 0.55050 0.44500 -0.04600
O 	O 	0.25840 0.49170 0.37670 -0.04500
O 	O 	0.26320 0.46780 0.86530 -0.04100
O 	O 	0.26200 0.50950 0.00500 -0.02400
