data_crystal

_cell_length_a 15.33320
_cell_length_b 32.85200
_cell_length_c 10.10750
_cell_angle_alpha 90.00000
_cell_angle_beta  106.56500
_cell_angle_gamma 90.00000

_symmetry_space_group_name_	'P 1'
_symmetry_space_group_name_H-M	'P 1'

loop_
_symmetry_equiv_pos_as_xyz
  x,y,z

loop_
_atom_site_label
_atom_site_type_symbol
_atom_site_fract_x
_atom_site_fract_y
_atom_site_fract_z
_atom_site_charge
Cu	Cu	0.57981 0.21666 0.22383 0.92900
Cu	Cu	0.50667 0.21733 0.48218 0.93600
Cu	Cu	0.65344 0.27473 0.45904 0.93200
O 	O 	0.61720 0.21805 0.42370 -0.74100
H 	H 	0.65730 0.20060 0.46280 0.29000
O 	O 	0.53190 0.15800 0.23350 -0.36800
O 	O 	0.47150 0.16262 0.41340 -0.37800
O 	O 	0.70490 0.22826 0.21050 -0.45600
O 	O 	0.76190 0.26697 0.39870 -0.40500
O 	O 	0.54370 0.27520 0.52670 -0.72000
H 	H 	0.50360 0.29210 0.48390 0.28300
O 	O 	0.04660 0.33450 0.45690 -0.07500
O 	O 	0.09680 0.33690 0.29120 -0.05700
O 	O 	0.00340 0.30450 0.00090 -0.01300
O 	O 	0.11740 0.34570 0.00470 0.12800
O 	O 	0.27420 0.99640 0.38700 -0.04700
O 	O 	0.27700 0.05090 0.47500 -0.05400
O 	O 	0.29410 0.01840 0.00800 -0.06900
O 	O 	0.29410 0.96970 0.87160 -0.00000
O 	O 	0.40120 0.27866 0.04780 -0.40000
O 	O 	0.45400 0.23979 0.23460 -0.45600
O 	O 	0.40130 0.81978 0.27020 -0.36800
O 	O 	0.33700 0.83251 0.04730 -0.37600
C 	C 	0.49240 0.14380 0.31670 0.33600
C 	C 	0.46520 0.10000 0.29890 -0.05100
C 	C 	0.51100 0.07370 0.23670 0.00500
H 	H 	0.55810 0.08350 0.20440 0.06300
C 	C 	0.48790 0.03260 0.22140 -0.06000
H 	H 	0.52200 0.01500 0.18360 0.08900
C 	C 	0.41430 0.01730 0.26170 0.01900
C 	C 	0.36990 0.04450 0.32520 0.08300
C 	C 	0.39510 0.08490 0.34600 -0.05700
H 	H 	0.36490 0.10200 0.39170 0.09600
C 	C 	0.39330 0.97320 0.24020 0.02500
C 	C 	0.35140 0.95640 0.11280 0.07600
C 	C 	0.34270 0.91500 0.08880 -0.05000
H 	H 	0.31360 0.90500 0.00120 0.09200
C 	C 	0.37790 0.88870 0.19710 -0.04800
C 	C 	0.42100 0.90470 0.32430 -0.00000
H 	H 	0.44530 0.88730 0.39800 0.05400
C 	C 	0.42910 0.94610 0.34480 -0.05800
H 	H 	0.45960 0.95600 0.43190 0.07400
C 	C 	0.37320 0.84330 0.17530 0.32500
C 	C 	0.76830 0.24786 0.29590 0.36600
C 	C 	0.85880 0.24830 0.26810 -0.07800
C 	C 	0.91690 0.28060 0.32170 -0.03500
H 	H 	0.89960 0.30090 0.37320 0.08300
C 	C 	0.00030 0.28190 0.29690 0.07200
C 	C 	0.03060 0.25210 0.21940 0.03400
C 	C 	0.97270 0.21930 0.17500 -0.07200
H 	H 	0.99180 0.19770 0.13070 0.09500
C 	C 	0.88640 0.21800 0.19510 0.02900
H 	H 	0.84740 0.19650 0.15910 0.04800
C 	C 	0.12070 0.25350 0.19070 0.03200
C 	C 	0.18450 0.22300 0.24530 -0.07200
H 	H 	0.16720 0.20120 0.29110 0.09300
C 	C 	0.27090 0.22390 0.23390 0.02700
H 	H 	0.31210 0.20370 0.27530 0.04600
C 	C 	0.29760 0.25510 0.16030 -0.07600
C 	C 	0.23340 0.28440 0.09590 -0.03500
H 	H 	0.24900 0.30470 0.04280 0.08600
C 	C 	0.14680 0.28310 0.11120 0.07500
C 	C 	0.39350 0.25801 0.14930 0.38200
N 	N 	0.31420 0.02870 0.41110 -0.02900
N 	N 	0.06100 0.31570 0.36090 0.01500
N 	N 	0.08350 0.31480 0.03600 -0.00300
N 	N 	0.31140 0.98300 0.98920 -0.00200
O 	O 	0.02540 0.34590 0.39290 -0.02300
O 	O 	0.14230 0.30710 0.39950 -0.08600
O 	O 	0.00440 0.31430 0.03770 -0.07500
O 	O 	0.10580 0.33640 0.95250 -0.22200
O 	O 	0.24090 0.00260 0.29600 -0.04600
O 	O 	0.22580 0.05870 0.36600 -0.05000
O 	O 	0.26490 0.00960 0.02100 -0.01000
O 	O 	0.33870 0.97340 0.89090 -0.10500
N 	N 	0.27930 0.03400 0.34400 0.02100
Cu	Cu	0.42019 0.71666 0.27617 0.93000
Cu	Cu	0.49333 0.71733 0.01782 0.93400
Cu	Cu	0.34656 0.77473 0.04096 0.93000
O 	O 	0.38280 0.71805 0.07630 -0.74200
H 	H 	0.34270 0.70060 0.03720 0.28800
O 	O 	0.46810 0.65800 0.26650 -0.37000
O 	O 	0.52850 0.66262 0.08660 -0.38000
O 	O 	0.29510 0.72826 0.28950 -0.45800
O 	O 	0.23810 0.76697 0.10130 -0.40700
O 	O 	0.45630 0.77520 0.97330 -0.70800
H 	H 	0.49640 0.79210 0.01610 0.27400
O 	O 	0.95340 0.83450 0.04310 -0.07900
O 	O 	0.90320 0.83690 0.20880 -0.05500
O 	O 	0.99660 0.80450 0.49910 0.00700
O 	O 	0.88260 0.84570 0.49530 0.06800
O 	O 	0.72580 0.49640 0.11300 -0.04600
O 	O 	0.72300 0.55090 0.02500 -0.05500
O 	O 	0.70590 0.51840 0.49200 -0.07300
O 	O 	0.70590 0.46970 0.62840 -0.00200
O 	O 	0.59880 0.77866 0.45220 -0.40300
O 	O 	0.54600 0.73979 0.26540 -0.45700
O 	O 	0.59870 0.31978 0.22980 -0.36700
O 	O 	0.66300 0.33251 0.45270 -0.37400
C 	C 	0.50760 0.64380 0.18330 0.33700
C 	C 	0.53480 0.60000 0.20110 -0.05200
C 	C 	0.48900 0.57370 0.26330 0.00500
H 	H 	0.44190 0.58350 0.29560 0.06200
C 	C 	0.51210 0.53260 0.27860 -0.06100
H 	H 	0.47800 0.51500 0.31640 0.08900
C 	C 	0.58570 0.51730 0.23830 0.02000
C 	C 	0.63010 0.54450 0.17480 0.08200
C 	C 	0.60490 0.58490 0.15400 -0.05600
H 	H 	0.63510 0.60200 0.10830 0.09400
C 	C 	0.60670 0.47320 0.25980 0.02400
C 	C 	0.64860 0.45640 0.38720 0.07800
C 	C 	0.65730 0.41500 0.41120 -0.05200
H 	H 	0.68640 0.40500 0.49880 0.09400
C 	C 	0.62210 0.38870 0.30290 -0.04500
C 	C 	0.57900 0.40470 0.17570 -0.00200
H 	H 	0.55470 0.38730 0.10200 0.05600
C 	C 	0.57090 0.44610 0.15520 -0.05600
H 	H 	0.54040 0.45600 0.06810 0.07400
C 	C 	0.62680 0.34330 0.32470 0.32400
C 	C 	0.23170 0.74786 0.20410 0.36700
C 	C 	0.14120 0.74830 0.23190 -0.07900
C 	C 	0.08310 0.78060 0.17830 -0.03600
H 	H 	0.10040 0.80090 0.12680 0.08200
C 	C 	0.99970 0.78190 0.20310 0.07300
C 	C 	0.96940 0.75210 0.28060 0.03400
C 	C 	0.02730 0.71930 0.32500 -0.07400
H 	H 	0.00820 0.69770 0.36930 0.09400
C 	C 	0.11360 0.71800 0.30490 0.03000
H 	H 	0.15260 0.69650 0.34090 0.04600
C 	C 	0.87930 0.75350 0.30930 0.03200
C 	C 	0.81550 0.72300 0.25470 -0.07500
H 	H 	0.83280 0.70120 0.20890 0.09500
C 	C 	0.72910 0.72390 0.26610 0.02800
H 	H 	0.68790 0.70370 0.22470 0.04400
C 	C 	0.70240 0.75510 0.33970 -0.07800
C 	C 	0.76660 0.78440 0.40410 -0.03400
H 	H 	0.75100 0.80470 0.45720 0.08400
C 	C 	0.85320 0.78310 0.38880 0.07300
C 	C 	0.60650 0.75801 0.35070 0.38300
N 	N 	0.68580 0.52870 0.08890 -0.02900
N 	N 	0.93900 0.81570 0.13910 0.01500
N 	N 	0.91650 0.81480 0.46400 -0.00300
N 	N 	0.68860 0.48300 0.51080 -0.00300
O 	O 	0.97460 0.84590 0.10710 -0.02100
O 	O 	0.85770 0.80710 0.10050 -0.08700
O 	O 	0.99560 0.81430 0.46230 -0.09800
O 	O 	0.89420 0.83640 0.54750 -0.16000
O 	O 	0.75910 0.50260 0.20400 -0.04600
O 	O 	0.77420 0.55870 0.13400 -0.05100
O 	O 	0.73510 0.50960 0.47900 -0.00700
O 	O 	0.66130 0.47340 0.60910 -0.10400
N 	N 	0.72070 0.53400 0.15600 0.02100
Cu	Cu	0.42019 0.78334 0.77617 0.93000
Cu	Cu	0.49333 0.78267 0.51782 0.93700
Cu	Cu	0.34656 0.72527 0.54096 0.93200
O 	O 	0.38280 0.78195 0.57630 -0.74100
H 	H 	0.34270 0.79940 0.53720 0.29000
O 	O 	0.46810 0.84200 0.76650 -0.36800
O 	O 	0.52850 0.83738 0.58660 -0.37800
O 	O 	0.29510 0.77174 0.78950 -0.45600
O 	O 	0.23810 0.73303 0.60130 -0.40500
O 	O 	0.45630 0.72480 0.47330 -0.72000
H 	H 	0.49640 0.70790 0.51610 0.28300
O 	O 	0.95340 0.66550 0.54310 -0.07500
O 	O 	0.90320 0.66310 0.70880 -0.05700
O 	O 	0.99660 0.69550 0.99910 -0.01300
O 	O 	0.88260 0.65430 0.99530 0.12800
O 	O 	0.72580 0.00360 0.61300 -0.04700
O 	O 	0.72300 0.94910 0.52500 -0.05400
O 	O 	0.70590 0.98160 0.99200 -0.06900
O 	O 	0.70590 0.03030 0.12840 -0.00000
O 	O 	0.59880 0.72134 0.95220 -0.40000
O 	O 	0.54600 0.76021 0.76540 -0.45600
O 	O 	0.59870 0.18022 0.72980 -0.36800
O 	O 	0.66300 0.16749 0.95270 -0.37600
C 	C 	0.50760 0.85620 0.68330 0.33600
C 	C 	0.53480 0.90000 0.70110 -0.05100
C 	C 	0.48900 0.92630 0.76330 0.00500
H 	H 	0.44190 0.91650 0.79560 0.06300
C 	C 	0.51210 0.96740 0.77860 -0.06000
H 	H 	0.47800 0.98500 0.81640 0.08900
C 	C 	0.58570 0.98270 0.73830 0.01900
C 	C 	0.63010 0.95550 0.67480 0.08300
C 	C 	0.60490 0.91510 0.65400 -0.05700
H 	H 	0.63510 0.89800 0.60830 0.09600
C 	C 	0.60670 0.02680 0.75980 0.02500
C 	C 	0.64860 0.04360 0.88720 0.07600
C 	C 	0.65730 0.08500 0.91120 -0.05000
H 	H 	0.68640 0.09500 0.99880 0.09200
C 	C 	0.62210 0.11130 0.80290 -0.04800
C 	C 	0.57900 0.09530 0.67570 -0.00000
H 	H 	0.55470 0.11270 0.60200 0.05400
C 	C 	0.57090 0.05390 0.65520 -0.05800
H 	H 	0.54040 0.04400 0.56810 0.07400
C 	C 	0.62680 0.15670 0.82470 0.32500
C 	C 	0.23170 0.75214 0.70410 0.36600
C 	C 	0.14120 0.75170 0.73190 -0.07800
C 	C 	0.08310 0.71940 0.67830 -0.03500
H 	H 	0.10040 0.69910 0.62680 0.08300
C 	C 	0.99970 0.71810 0.70310 0.07200
C 	C 	0.96940 0.74790 0.78060 0.03400
C 	C 	0.02730 0.78070 0.82500 -0.07200
H 	H 	0.00820 0.80230 0.86930 0.09500
C 	C 	0.11360 0.78200 0.80490 0.02900
H 	H 	0.15260 0.80350 0.84090 0.04800
C 	C 	0.87930 0.74650 0.80930 0.03200
C 	C 	0.81550 0.77700 0.75470 -0.07200
H 	H 	0.83280 0.79880 0.70890 0.09300
C 	C 	0.72910 0.77610 0.76610 0.02700
H 	H 	0.68790 0.79630 0.72470 0.04600
C 	C 	0.70240 0.74490 0.83970 -0.07600
C 	C 	0.76660 0.71560 0.90410 -0.03500
H 	H 	0.75100 0.69530 0.95720 0.08600
C 	C 	0.85320 0.71690 0.88880 0.07500
C 	C 	0.60650 0.74199 0.85070 0.38200
N 	N 	0.68580 0.97130 0.58890 -0.02900
N 	N 	0.93900 0.68430 0.63910 0.01500
N 	N 	0.91650 0.68520 0.96400 -0.00300
N 	N 	0.68860 0.01700 0.01080 -0.00200
O 	O 	0.97460 0.65410 0.60710 -0.02300
O 	O 	0.85770 0.69290 0.60050 -0.08600
O 	O 	0.99560 0.68570 0.96230 -0.07500
O 	O 	0.89420 0.66360 0.04750 -0.22200
O 	O 	0.75910 0.99740 0.70400 -0.04600
O 	O 	0.77420 0.94130 0.63400 -0.05000
O 	O 	0.73510 0.99040 0.97900 -0.01000
O 	O 	0.66130 0.02660 0.10910 -0.10500
N 	N 	0.72070 0.96600 0.65600 0.02100
Cu	Cu	0.57981 0.28334 0.72383 0.93000
Cu	Cu	0.50667 0.28267 0.98218 0.93400
Cu	Cu	0.65344 0.22527 0.95904 0.93000
O 	O 	0.61720 0.28195 0.92370 -0.74200
H 	H 	0.65730 0.29940 0.96280 0.28800
O 	O 	0.53190 0.34200 0.73350 -0.37000
O 	O 	0.47150 0.33738 0.91340 -0.38000
O 	O 	0.70490 0.27174 0.71050 -0.45800
O 	O 	0.76190 0.23303 0.89870 -0.40700
O 	O 	0.54370 0.22480 0.02670 -0.70800
H 	H 	0.50360 0.20790 0.98390 0.27400
O 	O 	0.04660 0.16550 0.95690 -0.07900
O 	O 	0.09680 0.16310 0.79120 -0.05500
O 	O 	0.00340 0.19550 0.50090 0.00700
O 	O 	0.11740 0.15430 0.50470 0.06800
O 	O 	0.27420 0.50360 0.88700 -0.04600
O 	O 	0.27700 0.44910 0.97500 -0.05500
O 	O 	0.29410 0.48160 0.50800 -0.07300
O 	O 	0.29410 0.53030 0.37160 -0.00200
O 	O 	0.40120 0.22134 0.54780 -0.40300
O 	O 	0.45400 0.26021 0.73460 -0.45700
O 	O 	0.40130 0.68022 0.77020 -0.36700
O 	O 	0.33700 0.66749 0.54730 -0.37400
C 	C 	0.49240 0.35620 0.81670 0.33700
C 	C 	0.46520 0.40000 0.79890 -0.05200
C 	C 	0.51100 0.42630 0.73670 0.00500
H 	H 	0.55810 0.41650 0.70440 0.06200
C 	C 	0.48790 0.46740 0.72140 -0.06100
H 	H 	0.52200 0.48500 0.68360 0.08900
C 	C 	0.41430 0.48270 0.76170 0.02000
C 	C 	0.36990 0.45550 0.82520 0.08200
C 	C 	0.39510 0.41510 0.84600 -0.05600
H 	H 	0.36490 0.39800 0.89170 0.09400
C 	C 	0.39330 0.52680 0.74020 0.02400
C 	C 	0.35140 0.54360 0.61280 0.07800
C 	C 	0.34270 0.58500 0.58880 -0.05200
H 	H 	0.31360 0.59500 0.50120 0.09400
C 	C 	0.37790 0.61130 0.69710 -0.04500
C 	C 	0.42100 0.59530 0.82430 -0.00200
H 	H 	0.44530 0.61270 0.89800 0.05600
C 	C 	0.42910 0.55390 0.84480 -0.05600
H 	H 	0.45960 0.54400 0.93190 0.07400
C 	C 	0.37320 0.65670 0.67530 0.32400
C 	C 	0.76830 0.25214 0.79590 0.36700
C 	C 	0.85880 0.25170 0.76810 -0.07900
C 	C 	0.91690 0.21940 0.82170 -0.03600
H 	H 	0.89960 0.19910 0.87320 0.08200
C 	C 	0.00030 0.21810 0.79690 0.07300
C 	C 	0.03060 0.24790 0.71940 0.03400
C 	C 	0.97270 0.28070 0.67500 -0.07400
H 	H 	0.99180 0.30230 0.63070 0.09400
C 	C 	0.88640 0.28200 0.69510 0.03000
H 	H 	0.84740 0.30350 0.65910 0.04600
C 	C 	0.12070 0.24650 0.69070 0.03200
C 	C 	0.18450 0.27700 0.74530 -0.07500
H 	H 	0.16720 0.29880 0.79110 0.09500
C 	C 	0.27090 0.27610 0.73390 0.02800
H 	H 	0.31210 0.29630 0.77530 0.04400
C 	C 	0.29760 0.24490 0.66030 -0.07800
C 	C 	0.23340 0.21560 0.59590 -0.03400
H 	H 	0.24900 0.19530 0.54280 0.08400
C 	C 	0.14680 0.21690 0.61120 0.07300
C 	C 	0.39350 0.24199 0.64930 0.38300
N 	N 	0.31420 0.47130 0.91110 -0.02900
N 	N 	0.06100 0.18430 0.86090 0.01500
N 	N 	0.08350 0.18520 0.53600 -0.00300
N 	N 	0.31140 0.51700 0.48920 -0.00300
O 	O 	0.02540 0.15410 0.89290 -0.02100
O 	O 	0.14230 0.19290 0.89950 -0.08700
O 	O 	0.00440 0.18570 0.53770 -0.09800
O 	O 	0.10580 0.16360 0.45250 -0.16000
O 	O 	0.24090 0.49740 0.79600 -0.04600
O 	O 	0.22580 0.44130 0.86600 -0.05100
O 	O 	0.26490 0.49040 0.52100 -0.00700
O 	O 	0.33870 0.52660 0.39090 -0.10400
N 	N 	0.27930 0.46600 0.84400 0.02100
