data_crystal

_cell_length_a 15.34800
_cell_length_b 32.86600
_cell_length_c 10.11220
_cell_angle_alpha 90.00000
_cell_angle_beta  106.64200
_cell_angle_gamma 90.00000

_symmetry_space_group_name_	'P 1'
_symmetry_space_group_name_H-M	'P 1'

loop_
_symmetry_equiv_pos_as_xyz
  x,y,z

loop_
_atom_site_label
_atom_site_type_symbol
_atom_site_fract_x
_atom_site_fract_y
_atom_site_fract_z
_atom_site_charge
Cu	Cu	0.15488 0.27467 0.46082 0.93100
Cu	Cu	0.00823 0.21721 0.48399 0.93500
Cu	Cu	0.08122 0.21667 0.22564 0.93000
O 	O 	0.11870 0.21828 0.42540 -0.74200
H 	H 	0.15890 0.20090 0.46450 0.29000
O 	O 	0.03300 0.15784 0.23530 -0.37000
O 	O 	0.97310 0.16248 0.41500 -0.37700
O 	O 	0.20670 0.22830 0.21320 -0.45800
O 	O 	0.26360 0.26713 0.40120 -0.40000
O 	O 	0.04530 0.22509 0.02890 -0.69900
H 	H 	0.00520 0.20820 0.98590 0.26600
O 	O 	0.53860 0.34040 0.42910 -0.08900
O 	O 	0.64570 0.30780 0.40140 -0.08700
O 	O 	0.50360 0.30970 0.01900 -0.09200
O 	O 	0.61180 0.34080 0.97700 -0.09600
O 	O 	0.75790 0.99990 0.34220 -0.07800
O 	O 	0.80100 0.04010 0.49080 -0.07100
O 	O 	0.77990 0.01540 0.01840 -0.07900
O 	O 	0.81430 0.97140 0.88060 -0.09800
O 	O 	0.90230 0.27869 0.04880 -0.39500
O 	O 	0.95560 0.23974 0.23670 -0.44700
O 	O 	0.90050 0.81948 0.26830 -0.36500
O 	O 	0.83610 0.83267 0.04650 -0.38400
C 	C 	0.99290 0.14377 0.31700 0.34100
C 	C 	0.96610 0.09978 0.30000 -0.05500
C 	C 	0.01090 0.07320 0.23690 0.01300
H 	H 	0.05800 0.08280 0.20450 0.05900
C 	C 	0.98730 0.03270 0.22070 -0.07200
H 	H 	0.02040 0.01530 0.18100 0.09000
C 	C 	0.91550 0.01740 0.26220 0.02600
C 	C 	0.87070 0.04490 0.32510 0.07500
C 	C 	0.89670 0.08480 0.34550 -0.05200
H 	H 	0.86670 0.10190 0.39110 0.09400
C 	C 	0.89290 0.97300 0.23980 0.02000
C 	C 	0.85070 0.95640 0.11040 0.07500
C 	C 	0.84200 0.91510 0.08820 -0.05300
H 	H 	0.81300 0.90520 0.00050 0.09200
C 	C 	0.87610 0.88860 0.19470 -0.04700
C 	C 	0.92160 0.90430 0.32380 -0.00400
H 	H 	0.94700 0.88660 0.39660 0.05600
C 	C 	0.92960 0.94610 0.34520 -0.05500
H 	H 	0.96020 0.95600 0.43230 0.07200
C 	C 	0.87100 0.84330 0.17100 0.32800
C 	C 	0.26950 0.24767 0.29670 0.36500
C 	C 	0.36060 0.24830 0.27040 -0.07700
C 	C 	0.41820 0.28050 0.32290 -0.03400
H 	H 	0.40060 0.30080 0.37370 0.08200
C 	C 	0.50230 0.28200 0.29880 0.07100
C 	C 	0.53170 0.25220 0.22180 0.03400
C 	C 	0.47330 0.21980 0.17600 -0.07400
H 	H 	0.49130 0.19870 0.12860 0.09300
C 	C 	0.38880 0.21810 0.19890 0.03100
H 	H 	0.35060 0.19620 0.16520 0.04800
C 	C 	0.62150 0.25340 0.19070 0.02800
C 	C 	0.68520 0.22350 0.24700 -0.06800
H 	H 	0.66840 0.20200 0.29420 0.08700
C 	C 	0.77260 0.22450 0.23540 0.02200
H 	H 	0.81400 0.20450 0.27760 0.04700
C 	C 	0.79880 0.25520 0.16130 -0.07200
C 	C 	0.73400 0.28440 0.09710 -0.03900
H 	H 	0.74960 0.30460 0.04380 0.08700
C 	C 	0.64820 0.28340 0.11160 0.07900
C 	C 	0.89380 0.25794 0.14970 0.36900
N 	N 	0.79170 0.03260 0.37040 0.01000
N 	N 	0.56370 0.31530 0.36280 0.01200
N 	N 	0.58430 0.31410 0.03790 -0.00100
N 	N 	0.81230 0.98350 0.99300 -0.00500
O 	O 	0.59730 0.33730 0.29500 -0.05000
O 	O 	0.73910 0.05830 0.38900 -0.05400
Cu	Cu	0.84512 0.77467 0.03918 0.92800
Cu	Cu	0.99177 0.71721 0.01601 0.93000
Cu	Cu	0.91878 0.71667 0.27436 0.92900
O 	O 	0.88130 0.71828 0.07460 -0.74500
H 	H 	0.84110 0.70090 0.03550 0.28800
O 	O 	0.96700 0.65784 0.26470 -0.37500
O 	O 	0.02690 0.66248 0.08500 -0.37800
O 	O 	0.79330 0.72830 0.28680 -0.46000
O 	O 	0.73640 0.76713 0.09880 -0.40300
O 	O 	0.95470 0.72509 0.47110 -0.72000
H 	H 	0.99480 0.70820 0.51410 0.28200
O 	O 	0.46140 0.84040 0.07090 -0.09200
O 	O 	0.35430 0.80780 0.09860 -0.08900
O 	O 	0.49640 0.80970 0.48100 -0.09500
O 	O 	0.38820 0.84080 0.52300 -0.09000
O 	O 	0.24210 0.49990 0.15780 -0.07600
O 	O 	0.19900 0.54010 0.00920 -0.07100
O 	O 	0.22010 0.51540 0.48160 -0.07800
O 	O 	0.18570 0.47140 0.61940 -0.10000
O 	O 	0.09770 0.77869 0.45120 -0.39600
O 	O 	0.04440 0.73974 0.26330 -0.44500
O 	O 	0.09950 0.31948 0.23170 -0.36200
O 	O 	0.16390 0.33267 0.45350 -0.38000
C 	C 	0.00710 0.64377 0.18300 0.34100
C 	C 	0.03390 0.59978 0.20000 -0.04300
C 	C 	0.98910 0.57320 0.26310 -0.01200
H 	H 	0.94200 0.58280 0.29550 0.06600
C 	C 	0.01270 0.53270 0.27930 -0.04600
H 	H 	0.97960 0.51530 0.31900 0.07800
C 	C 	0.08450 0.51740 0.23780 0.01400
C 	C 	0.12930 0.54490 0.17490 0.08200
C 	C 	0.10330 0.58480 0.15450 -0.06100
H 	H 	0.13330 0.60190 0.10890 0.09600
C 	C 	0.10710 0.47300 0.26020 0.02500
C 	C 	0.14930 0.45640 0.38960 0.07800
C 	C 	0.15800 0.41510 0.41180 -0.05400
H 	H 	0.18700 0.40520 0.49950 0.09500
C 	C 	0.12390 0.38860 0.30530 -0.04400
C 	C 	0.07840 0.40430 0.17620 -0.00300
H 	H 	0.05300 0.38660 0.10340 0.05800
C 	C 	0.07040 0.44610 0.15480 -0.05600
H 	H 	0.03980 0.45600 0.06770 0.07400
C 	C 	0.12900 0.34330 0.32900 0.32700
C 	C 	0.73050 0.74767 0.20330 0.36500
C 	C 	0.63940 0.74830 0.22960 -0.08100
C 	C 	0.58180 0.78050 0.17710 -0.03300
H 	H 	0.59940 0.80080 0.12630 0.08000
C 	C 	0.49770 0.78200 0.20120 0.06900
C 	C 	0.46830 0.75220 0.27820 0.03400
C 	C 	0.52670 0.71980 0.32400 -0.07600
H 	H 	0.50870 0.69870 0.37140 0.09100
C 	C 	0.61120 0.71810 0.30110 0.03100
H 	H 	0.64940 0.69620 0.33480 0.04600
C 	C 	0.37850 0.75340 0.30930 0.02700
C 	C 	0.31480 0.72350 0.25300 -0.06800
H 	H 	0.33160 0.70200 0.20580 0.08600
C 	C 	0.22740 0.72450 0.26460 0.02100
H 	H 	0.18600 0.70450 0.22240 0.04600
C 	C 	0.20120 0.75520 0.33870 -0.07300
C 	C 	0.26600 0.78440 0.40290 -0.04000
H 	H 	0.25040 0.80460 0.45620 0.08600
C 	C 	0.35180 0.78340 0.38840 0.07800
C 	C 	0.10620 0.75794 0.35030 0.36900
N 	N 	0.20830 0.53260 0.12960 0.00900
N 	N 	0.43630 0.81530 0.13720 0.01300
N 	N 	0.41570 0.81410 0.46210 -0.00400
N 	N 	0.18770 0.48350 0.50700 -0.00700
O 	O 	0.40270 0.83730 0.20500 -0.05100
O 	O 	0.26090 0.55830 0.11100 -0.05500
Cu	Cu	0.84512 0.72533 0.53918 0.93200
Cu	Cu	0.99177 0.78279 0.51601 0.93600
Cu	Cu	0.91878 0.78333 0.77436 0.93000
O 	O 	0.88130 0.78172 0.57460 -0.74200
H 	H 	0.84110 0.79910 0.53550 0.29000
O 	O 	0.96700 0.84216 0.76470 -0.37000
O 	O 	0.02690 0.83752 0.58500 -0.37700
O 	O 	0.79330 0.77170 0.78680 -0.45800
O 	O 	0.73640 0.73287 0.59880 -0.40000
O 	O 	0.95470 0.77491 0.97110 -0.69900
H 	H 	0.99480 0.79180 0.01410 0.26600
O 	O 	0.46140 0.65960 0.57090 -0.08900
O 	O 	0.35430 0.69220 0.59860 -0.08700
O 	O 	0.49640 0.69030 0.98100 -0.09200
O 	O 	0.38820 0.65920 0.02300 -0.09600
O 	O 	0.24210 0.00010 0.65780 -0.07800
O 	O 	0.19900 0.95990 0.50920 -0.07100
O 	O 	0.22010 0.98460 0.98160 -0.07900
O 	O 	0.18570 0.02860 0.11940 -0.09800
O 	O 	0.09770 0.72131 0.95120 -0.39500
O 	O 	0.04440 0.76026 0.76330 -0.44700
O 	O 	0.09950 0.18052 0.73170 -0.36500
O 	O 	0.16390 0.16733 0.95350 -0.38400
C 	C 	0.00710 0.85623 0.68300 0.34100
C 	C 	0.03390 0.90022 0.70000 -0.05500
C 	C 	0.98910 0.92680 0.76310 0.01300
H 	H 	0.94200 0.91720 0.79550 0.05900
C 	C 	0.01270 0.96730 0.77930 -0.07200
H 	H 	0.97960 0.98470 0.81900 0.09000
C 	C 	0.08450 0.98260 0.73780 0.02600
C 	C 	0.12930 0.95510 0.67490 0.07500
C 	C 	0.10330 0.91520 0.65450 -0.05200
H 	H 	0.13330 0.89810 0.60890 0.09400
C 	C 	0.10710 0.02700 0.76020 0.02000
C 	C 	0.14930 0.04360 0.88960 0.07500
C 	C 	0.15800 0.08490 0.91180 -0.05300
H 	H 	0.18700 0.09480 0.99950 0.09200
C 	C 	0.12390 0.11140 0.80530 -0.04700
C 	C 	0.07840 0.09570 0.67620 -0.00400
H 	H 	0.05300 0.11340 0.60340 0.05600
C 	C 	0.07040 0.05390 0.65480 -0.05500
H 	H 	0.03980 0.04400 0.56770 0.07200
C 	C 	0.12900 0.15670 0.82900 0.32800
C 	C 	0.73050 0.75233 0.70330 0.36500
C 	C 	0.63940 0.75170 0.72960 -0.07700
C 	C 	0.58180 0.71950 0.67710 -0.03400
H 	H 	0.59940 0.69920 0.62630 0.08200
C 	C 	0.49770 0.71800 0.70120 0.07100
C 	C 	0.46830 0.74780 0.77820 0.03400
C 	C 	0.52670 0.78020 0.82400 -0.07400
H 	H 	0.50870 0.80130 0.87140 0.09300
C 	C 	0.61120 0.78190 0.80110 0.03100
H 	H 	0.64940 0.80380 0.83480 0.04800
C 	C 	0.37850 0.74660 0.80930 0.02800
C 	C 	0.31480 0.77650 0.75300 -0.06800
H 	H 	0.33160 0.79800 0.70580 0.08700
C 	C 	0.22740 0.77550 0.76460 0.02200
H 	H 	0.18600 0.79550 0.72240 0.04700
C 	C 	0.20120 0.74480 0.83870 -0.07200
C 	C 	0.26600 0.71560 0.90290 -0.03900
H 	H 	0.25040 0.69540 0.95620 0.08700
C 	C 	0.35180 0.71660 0.88840 0.07900
C 	C 	0.10620 0.74206 0.85030 0.36900
N 	N 	0.20830 0.96740 0.62960 0.01000
N 	N 	0.43630 0.68470 0.63720 0.01200
N 	N 	0.41570 0.68590 0.96210 -0.00100
N 	N 	0.18770 0.01650 0.00700 -0.00500
O 	O 	0.40270 0.66270 0.70500 -0.05000
O 	O 	0.26090 0.94170 0.61100 -0.05400
Cu	Cu	0.15488 0.22533 0.96082 0.92800
Cu	Cu	0.00823 0.28279 0.98399 0.93000
Cu	Cu	0.08122 0.28333 0.72564 0.92900
O 	O 	0.11870 0.28172 0.92540 -0.74500
H 	H 	0.15890 0.29910 0.96450 0.28800
O 	O 	0.03300 0.34216 0.73530 -0.37500
O 	O 	0.97310 0.33752 0.91500 -0.37800
O 	O 	0.20670 0.27170 0.71320 -0.46000
O 	O 	0.26360 0.23287 0.90120 -0.40300
O 	O 	0.04530 0.27491 0.52890 -0.72000
H 	H 	0.00520 0.29180 0.48590 0.28200
O 	O 	0.53860 0.15960 0.92910 -0.09200
O 	O 	0.64570 0.19220 0.90140 -0.08900
O 	O 	0.50360 0.19030 0.51900 -0.09500
O 	O 	0.61180 0.15920 0.47700 -0.09000
O 	O 	0.75790 0.50010 0.84220 -0.07600
O 	O 	0.80100 0.45990 0.99080 -0.07100
O 	O 	0.77990 0.48460 0.51840 -0.07800
O 	O 	0.81430 0.52860 0.38060 -0.10000
O 	O 	0.90230 0.22131 0.54880 -0.39600
O 	O 	0.95560 0.26026 0.73670 -0.44500
O 	O 	0.90050 0.68052 0.76830 -0.36200
O 	O 	0.83610 0.66733 0.54650 -0.38000
C 	C 	0.99290 0.35623 0.81700 0.34100
C 	C 	0.96610 0.40022 0.80000 -0.04300
C 	C 	0.01090 0.42680 0.73690 -0.01200
H 	H 	0.05800 0.41720 0.70450 0.06600
C 	C 	0.98730 0.46730 0.72070 -0.04600
H 	H 	0.02040 0.48470 0.68100 0.07800
C 	C 	0.91550 0.48260 0.76220 0.01400
C 	C 	0.87070 0.45510 0.82510 0.08200
C 	C 	0.89670 0.41520 0.84550 -0.06100
H 	H 	0.86670 0.39810 0.89110 0.09600
C 	C 	0.89290 0.52700 0.73980 0.02500
C 	C 	0.85070 0.54360 0.61040 0.07800
C 	C 	0.84200 0.58490 0.58820 -0.05400
H 	H 	0.81300 0.59480 0.50050 0.09500
C 	C 	0.87610 0.61140 0.69470 -0.04400
C 	C 	0.92160 0.59570 0.82380 -0.00300
H 	H 	0.94700 0.61340 0.89660 0.05800
C 	C 	0.92960 0.55390 0.84520 -0.05600
H 	H 	0.96020 0.54400 0.93230 0.07400
C 	C 	0.87100 0.65670 0.67100 0.32700
C 	C 	0.26950 0.25233 0.79670 0.36500
C 	C 	0.36060 0.25170 0.77040 -0.08100
C 	C 	0.41820 0.21950 0.82290 -0.03300
H 	H 	0.40060 0.19920 0.87370 0.08000
C 	C 	0.50230 0.21800 0.79880 0.06900
C 	C 	0.53170 0.24780 0.72180 0.03400
C 	C 	0.47330 0.28020 0.67600 -0.07600
H 	H 	0.49130 0.30130 0.62860 0.09100
C 	C 	0.38880 0.28190 0.69890 0.03100
H 	H 	0.35060 0.30380 0.66520 0.04600
C 	C 	0.62150 0.24660 0.69070 0.02700
C 	C 	0.68520 0.27650 0.74700 -0.06800
H 	H 	0.66840 0.29800 0.79420 0.08600
C 	C 	0.77260 0.27550 0.73540 0.02100
H 	H 	0.81400 0.29550 0.77760 0.04600
C 	C 	0.79880 0.24480 0.66130 -0.07300
C 	C 	0.73400 0.21560 0.59710 -0.04000
H 	H 	0.74960 0.19540 0.54380 0.08600
C 	C 	0.64820 0.21660 0.61160 0.07800
C 	C 	0.89380 0.24206 0.64970 0.36900
N 	N 	0.79170 0.46740 0.87040 0.00900
N 	N 	0.56370 0.18470 0.86280 0.01300
N 	N 	0.58430 0.18590 0.53790 -0.00400
N 	N 	0.81230 0.51650 0.49300 -0.00700
O 	O 	0.59730 0.16270 0.79500 -0.05100
O 	O 	0.73910 0.44170 0.88900 -0.05500
