data_crystal

_cell_length_a 15.33700
_cell_length_b 32.83200
_cell_length_c 10.10570
_cell_angle_alpha 90.00000
_cell_angle_beta  106.54900
_cell_angle_gamma 90.00000

_symmetry_space_group_name_	'P 1'
_symmetry_space_group_name_H-M	'P 1'

loop_
_symmetry_equiv_pos_as_xyz
  x,y,z

loop_
_atom_site_label
_atom_site_type_symbol
_atom_site_fract_x
_atom_site_fract_y
_atom_site_fract_z
_atom_site_charge
Cu	Cu	0.58029 0.21663 0.22464 0.92800
Cu	Cu	0.50722 0.21726 0.48308 0.93700
Cu	Cu	0.65408 0.27467 0.45990 0.93100
O 	O 	0.61770 0.21803 0.42480 -0.74300
H 	H 	0.65770 0.20060 0.46390 0.29100
O 	O 	0.53240 0.15784 0.23470 -0.36900
O 	O 	0.47200 0.16264 0.41410 -0.38200
O 	O 	0.70510 0.22832 0.21090 -0.45300
O 	O 	0.76260 0.26671 0.40010 -0.40200
O 	O 	0.54430 0.27519 0.52720 -0.71900
H 	H 	0.50420 0.29210 0.48440 0.28200
O 	O 	0.04790 0.33450 0.46010 -0.07500
O 	O 	0.09830 0.33660 0.29410 -0.05100
O 	O 	0.00350 0.30480 0.99940 0.20000
O 	O 	0.11900 0.34560 0.00490 0.21200
O 	O 	0.27540 0.99600 0.39320 -0.04800
O 	O 	0.27580 0.05180 0.47280 -0.05500
O 	O 	0.29420 0.01869 0.00530 -0.05000
O 	O 	0.29480 0.97000 0.87190 0.00800
O 	O 	0.40180 0.27874 0.04870 -0.40000
O 	O 	0.45430 0.23979 0.23540 -0.45400
O 	O 	0.40110 0.81982 0.27010 -0.36500
O 	O 	0.33600 0.83249 0.04630 -0.37600
C 	C 	0.49230 0.14391 0.31790 0.34000
C 	C 	0.46550 0.09983 0.29930 -0.05000
C 	C 	0.51130 0.07360 0.23810 0.00500
H 	H 	0.55850 0.08330 0.20610 0.06300
C 	C 	0.48820 0.03250 0.22270 -0.06200
H 	H 	0.52260 0.01490 0.18590 0.08900
C 	C 	0.41370 0.01730 0.26190 0.02000
C 	C 	0.36980 0.04470 0.32520 0.08300
C 	C 	0.39510 0.08483 0.34670 -0.05800
H 	H 	0.36520 0.10190 0.39280 0.09600
C 	C 	0.39320 0.97310 0.24000 0.02300
C 	C 	0.35150 0.95660 0.11320 0.07700
C 	C 	0.34210 0.91490 0.08830 -0.05200
H 	H 	0.31270 0.90500 0.00070 0.09200
C 	C 	0.37740 0.88869 0.19630 -0.04500
C 	C 	0.42120 0.90470 0.32420 -0.00300
H 	H 	0.44620 0.88730 0.39760 0.05500
C 	C 	0.42850 0.94580 0.34460 -0.05600
H 	H 	0.45840 0.95560 0.43210 0.07300
C 	C 	0.37240 0.84328 0.17370 0.32000
C 	C 	0.76940 0.24775 0.29660 0.36200
C 	C 	0.85920 0.24832 0.26890 -0.07900
C 	C 	0.91730 0.28050 0.32230 -0.03600
H 	H 	0.89980 0.30070 0.37400 0.08400
C 	C 	0.00110 0.28230 0.29790 0.07700
C 	C 	0.03050 0.25210 0.22030 0.03300
C 	C 	0.97280 0.21940 0.17540 -0.07500
H 	H 	0.99190 0.19800 0.13010 0.09500
C 	C 	0.88730 0.21770 0.19600 0.02900
H 	H 	0.84880 0.19600 0.16080 0.04800
C 	C 	0.12100 0.25340 0.19030 0.03500
C 	C 	0.18470 0.22300 0.24660 -0.07500
H 	H 	0.16760 0.20150 0.29360 0.09500
C 	C 	0.27160 0.22400 0.23480 0.03000
H 	H 	0.31290 0.20380 0.27640 0.04500
C 	C 	0.29810 0.25510 0.16060 -0.07900
C 	C 	0.23410 0.28430 0.09790 -0.03100
H 	H 	0.25010 0.30500 0.04630 0.08300
C 	C 	0.14730 0.28298 0.11120 0.06900
C 	C 	0.39360 0.25803 0.14930 0.38200
N 	N 	0.31250 0.02910 0.40970 -0.02600
N 	N 	0.06160 0.31570 0.36330 0.01500
N 	N 	0.08380 0.31499 0.03620 0.00200
N 	N 	0.31110 0.98303 0.98970 -0.00300
O 	O 	0.02550 0.34570 0.39570 -0.02200
O 	O 	0.14280 0.30690 0.40120 -0.08600
O 	O 	0.00520 0.31450 0.04100 -0.29200
O 	O 	0.10550 0.33670 0.95260 -0.30700
O 	O 	0.24250 0.00240 0.30210 -0.04400
O 	O 	0.22470 0.05950 0.36310 -0.04900
O 	O 	0.26510 0.00970 0.02210 -0.02900
O 	O 	0.33850 0.97360 0.89130 -0.11200
N 	N 	0.27890 0.03470 0.34340 0.01800
Cu	Cu	0.41971 0.71663 0.27536 0.92900
Cu	Cu	0.49278 0.71726 0.01692 0.93400
Cu	Cu	0.34592 0.77467 0.04010 0.93000
O 	O 	0.38230 0.71803 0.07520 -0.74400
H 	H 	0.34230 0.70060 0.03610 0.29000
O 	O 	0.46760 0.65784 0.26530 -0.37000
O 	O 	0.52800 0.66264 0.08590 -0.38400
O 	O 	0.29490 0.72832 0.28910 -0.45500
O 	O 	0.23740 0.76671 0.09990 -0.40500
O 	O 	0.45570 0.77519 0.97280 -0.70600
H 	H 	0.49580 0.79210 0.01560 0.27300
O 	O 	0.95210 0.83450 0.03990 -0.07900
O 	O 	0.90170 0.83660 0.20590 -0.05200
O 	O 	0.99650 0.80480 0.50060 0.06800
O 	O 	0.88100 0.84560 0.49510 0.08400
O 	O 	0.72460 0.49600 0.10680 -0.04700
O 	O 	0.72420 0.55180 0.02720 -0.05600
O 	O 	0.70580 0.51869 0.49470 -0.05300
O 	O 	0.70520 0.47000 0.62810 0.00700
O 	O 	0.59820 0.77874 0.45130 -0.40400
O 	O 	0.54570 0.73979 0.26460 -0.45500
O 	O 	0.59890 0.31982 0.22990 -0.36300
O 	O 	0.66400 0.33249 0.45370 -0.37300
C 	C 	0.50770 0.64391 0.18210 0.34100
C 	C 	0.53450 0.59983 0.20070 -0.05300
C 	C 	0.48870 0.57360 0.26190 0.00700
H 	H 	0.44150 0.58330 0.29390 0.06200
C 	C 	0.51180 0.53250 0.27730 -0.06300
H 	H 	0.47740 0.51490 0.31410 0.09000
C 	C 	0.58630 0.51730 0.23810 0.02100
C 	C 	0.63020 0.54470 0.17480 0.08200
C 	C 	0.60490 0.58483 0.15330 -0.05700
H 	H 	0.63480 0.60190 0.10720 0.09500
C 	C 	0.60680 0.47310 0.26000 0.02200
C 	C 	0.64850 0.45660 0.38680 0.07900
C 	C 	0.65790 0.41490 0.41170 -0.05300
H 	H 	0.68730 0.40500 0.49930 0.09400
C 	C 	0.62260 0.38869 0.30370 -0.04200
C 	C 	0.57880 0.40470 0.17580 -0.00500
H 	H 	0.55380 0.38730 0.10240 0.05800
C 	C 	0.57150 0.44580 0.15540 -0.05400
H 	H 	0.54160 0.45560 0.06790 0.07300
C 	C 	0.62760 0.34328 0.32630 0.31900
C 	C 	0.23060 0.74775 0.20340 0.36200
C 	C 	0.14080 0.74832 0.23110 -0.08200
C 	C 	0.08270 0.78050 0.17770 -0.03700
H 	H 	0.10020 0.80070 0.12600 0.08200
C 	C 	0.99890 0.78230 0.20210 0.07200
C 	C 	0.96950 0.75210 0.27970 0.03300
C 	C 	0.02720 0.71940 0.32460 -0.07600
H 	H 	0.00810 0.69800 0.36990 0.09500
C 	C 	0.11270 0.71770 0.30400 0.02800
H 	H 	0.15120 0.69600 0.33920 0.04700
C 	C 	0.87900 0.75340 0.30970 0.03500
C 	C 	0.81530 0.72300 0.25340 -0.07900
H 	H 	0.83240 0.70150 0.20640 0.09800
C 	C 	0.72840 0.72400 0.26520 0.03100
H 	H 	0.68710 0.70380 0.22360 0.04300
C 	C 	0.70190 0.75510 0.33940 -0.08100
C 	C 	0.76590 0.78430 0.40210 -0.03100
H 	H 	0.74990 0.80500 0.45370 0.08200
C 	C 	0.85270 0.78298 0.38880 0.07000
C 	C 	0.60640 0.75803 0.35070 0.38300
N 	N 	0.68750 0.52910 0.09030 -0.02600
N 	N 	0.93840 0.81570 0.13670 0.01500
N 	N 	0.91620 0.81499 0.46380 -0.00200
N 	N 	0.68890 0.48303 0.51030 -0.00300
O 	O 	0.97450 0.84570 0.10430 -0.02200
O 	O 	0.85720 0.80690 0.09880 -0.08800
O 	O 	0.99480 0.81450 0.45900 -0.16000
O 	O 	0.89450 0.83670 0.54740 -0.17600
O 	O 	0.75750 0.50240 0.19790 -0.04400
O 	O 	0.77530 0.55950 0.13690 -0.05000
O 	O 	0.73490 0.50970 0.47790 -0.02700
O 	O 	0.66150 0.47360 0.60870 -0.11200
N 	N 	0.72110 0.53470 0.15660 0.01800
Cu	Cu	0.41971 0.78336 0.77536 0.92900
Cu	Cu	0.49278 0.78274 0.51692 0.93800
Cu	Cu	0.34592 0.72533 0.54010 0.93200
O 	O 	0.38230 0.78197 0.57520 -0.74200
H 	H 	0.34230 0.79940 0.53610 0.29200
O 	O 	0.46760 0.84216 0.76530 -0.36800
O 	O 	0.52800 0.83736 0.58590 -0.38200
O 	O 	0.29490 0.77168 0.78910 -0.45300
O 	O 	0.23740 0.73329 0.59990 -0.40200
O 	O 	0.45570 0.72481 0.47280 -0.71900
H 	H 	0.49580 0.70790 0.51560 0.28200
O 	O 	0.95210 0.66550 0.53990 -0.07500
O 	O 	0.90170 0.66340 0.70590 -0.05100
O 	O 	0.99650 0.69520 0.00060 0.20000
O 	O 	0.88100 0.65440 0.99510 0.21200
O 	O 	0.72460 0.00400 0.60680 -0.04800
O 	O 	0.72420 0.94820 0.52720 -0.05500
O 	O 	0.70580 0.98131 0.99470 -0.05000
O 	O 	0.70520 0.03000 0.12810 0.00800
O 	O 	0.59820 0.72126 0.95130 -0.40000
O 	O 	0.54570 0.76021 0.76460 -0.45400
O 	O 	0.59890 0.18018 0.72990 -0.36500
O 	O 	0.66400 0.16751 0.95370 -0.37600
C 	C 	0.50770 0.85609 0.68210 0.34000
C 	C 	0.53450 0.90017 0.70070 -0.05000
C 	C 	0.48870 0.92640 0.76190 0.00500
H 	H 	0.44150 0.91670 0.79390 0.06300
C 	C 	0.51180 0.96750 0.77730 -0.06200
H 	H 	0.47740 0.98510 0.81410 0.08900
C 	C 	0.58630 0.98270 0.73810 0.02000
C 	C 	0.63020 0.95530 0.67480 0.08300
C 	C 	0.60490 0.91517 0.65330 -0.05800
H 	H 	0.63480 0.89810 0.60720 0.09600
C 	C 	0.60680 0.02690 0.76000 0.02300
C 	C 	0.64850 0.04340 0.88680 0.07700
C 	C 	0.65790 0.08510 0.91170 -0.05200
H 	H 	0.68730 0.09500 0.99930 0.09200
C 	C 	0.62260 0.11131 0.80370 -0.04500
C 	C 	0.57880 0.09530 0.67580 -0.00300
H 	H 	0.55380 0.11270 0.60240 0.05500
C 	C 	0.57150 0.05420 0.65540 -0.05600
H 	H 	0.54160 0.04440 0.56790 0.07300
C 	C 	0.62760 0.15672 0.82630 0.32000
C 	C 	0.23060 0.75225 0.70340 0.36200
C 	C 	0.14080 0.75168 0.73110 -0.07900
C 	C 	0.08270 0.71950 0.67770 -0.03600
H 	H 	0.10020 0.69930 0.62600 0.08400
C 	C 	0.99890 0.71770 0.70210 0.07700
C 	C 	0.96950 0.74790 0.77970 0.03300
C 	C 	0.02720 0.78060 0.82460 -0.07500
H 	H 	0.00810 0.80200 0.86990 0.09500
C 	C 	0.11270 0.78230 0.80400 0.02900
H 	H 	0.15120 0.80400 0.83920 0.04800
C 	C 	0.87900 0.74660 0.80970 0.03500
C 	C 	0.81530 0.77700 0.75340 -0.07500
H 	H 	0.83240 0.79850 0.70640 0.09500
C 	C 	0.72840 0.77600 0.76520 0.03000
H 	H 	0.68710 0.79620 0.72360 0.04500
C 	C 	0.70190 0.74490 0.83940 -0.07900
C 	C 	0.76590 0.71570 0.90210 -0.03100
H 	H 	0.74990 0.69500 0.95370 0.08300
C 	C 	0.85270 0.71702 0.88880 0.06900
C 	C 	0.60640 0.74197 0.85070 0.38200
N 	N 	0.68750 0.97090 0.59030 -0.02600
N 	N 	0.93840 0.68430 0.63670 0.01500
N 	N 	0.91620 0.68501 0.96380 0.00200
N 	N 	0.68890 0.01697 0.01030 -0.00300
O 	O 	0.97450 0.65430 0.60430 -0.02200
O 	O 	0.85720 0.69310 0.59880 -0.08600
O 	O 	0.99480 0.68550 0.95900 -0.29200
O 	O 	0.89450 0.66330 0.04740 -0.30700
O 	O 	0.75750 0.99760 0.69790 -0.04400
O 	O 	0.77530 0.94050 0.63690 -0.04900
O 	O 	0.73490 0.99030 0.97790 -0.02900
O 	O 	0.66150 0.02640 0.10870 -0.11200
N 	N 	0.72110 0.96530 0.65660 0.01800
Cu	Cu	0.58029 0.28337 0.72464 0.92900
Cu	Cu	0.50722 0.28274 0.98308 0.93400
Cu	Cu	0.65408 0.22533 0.95990 0.93000
O 	O 	0.61770 0.28197 0.92480 -0.74400
H 	H 	0.65770 0.29940 0.96390 0.29000
O 	O 	0.53240 0.34216 0.73470 -0.37000
O 	O 	0.47200 0.33736 0.91410 -0.38400
O 	O 	0.70510 0.27168 0.71090 -0.45500
O 	O 	0.76260 0.23329 0.90010 -0.40500
O 	O 	0.54430 0.22481 0.02720 -0.70600
H 	H 	0.50420 0.20790 0.98440 0.27300
O 	O 	0.04790 0.16550 0.96010 -0.07900
O 	O 	0.09830 0.16340 0.79410 -0.05200
O 	O 	0.00350 0.19520 0.49940 0.06800
O 	O 	0.11900 0.15440 0.50490 0.08400
O 	O 	0.27540 0.50400 0.89320 -0.04700
O 	O 	0.27580 0.44820 0.97280 -0.05600
O 	O 	0.29420 0.48131 0.50530 -0.05300
O 	O 	0.29480 0.53000 0.37190 0.00700
O 	O 	0.40180 0.22126 0.54870 -0.40400
O 	O 	0.45430 0.26021 0.73540 -0.45500
O 	O 	0.40110 0.68018 0.77010 -0.36300
O 	O 	0.33600 0.66751 0.54630 -0.37300
C 	C 	0.49230 0.35609 0.81790 0.34100
C 	C 	0.46550 0.40017 0.79930 -0.05300
C 	C 	0.51130 0.42640 0.73810 0.00700
H 	H 	0.55850 0.41670 0.70610 0.06200
C 	C 	0.48820 0.46750 0.72270 -0.06300
H 	H 	0.52260 0.48510 0.68590 0.09000
C 	C 	0.41370 0.48270 0.76190 0.02100
C 	C 	0.36980 0.45530 0.82520 0.08200
C 	C 	0.39510 0.41517 0.84670 -0.05700
H 	H 	0.36520 0.39810 0.89280 0.09500
C 	C 	0.39320 0.52690 0.74000 0.02200
C 	C 	0.35150 0.54340 0.61320 0.07900
C 	C 	0.34210 0.58510 0.58830 -0.05300
H 	H 	0.31270 0.59500 0.50070 0.09400
C 	C 	0.37740 0.61131 0.69630 -0.04200
C 	C 	0.42120 0.59530 0.82420 -0.00500
H 	H 	0.44620 0.61270 0.89760 0.05800
C 	C 	0.42850 0.55420 0.84460 -0.05400
H 	H 	0.45840 0.54440 0.93210 0.07300
C 	C 	0.37240 0.65672 0.67370 0.31900
C 	C 	0.76940 0.25225 0.79660 0.36200
C 	C 	0.85920 0.25168 0.76890 -0.08200
C 	C 	0.91730 0.21950 0.82230 -0.03700
H 	H 	0.89980 0.19930 0.87400 0.08200
C 	C 	0.00110 0.21770 0.79790 0.07200
C 	C 	0.03050 0.24790 0.72030 0.03300
C 	C 	0.97280 0.28060 0.67540 -0.07600
H 	H 	0.99190 0.30200 0.63010 0.09500
C 	C 	0.88730 0.28230 0.69600 0.02800
H 	H 	0.84880 0.30400 0.66080 0.04700
C 	C 	0.12100 0.24660 0.69030 0.03500
C 	C 	0.18470 0.27700 0.74660 -0.07900
H 	H 	0.16760 0.29850 0.79360 0.09800
C 	C 	0.27160 0.27600 0.73480 0.03100
H 	H 	0.31290 0.29620 0.77640 0.04300
C 	C 	0.29810 0.24490 0.66060 -0.08100
C 	C 	0.23410 0.21570 0.59790 -0.03100
H 	H 	0.25010 0.19500 0.54630 0.08200
C 	C 	0.14730 0.21702 0.61120 0.07000
C 	C 	0.39360 0.24197 0.64930 0.38300
N 	N 	0.31250 0.47090 0.90970 -0.02600
N 	N 	0.06160 0.18430 0.86330 0.01500
N 	N 	0.08380 0.18501 0.53620 -0.00200
N 	N 	0.31110 0.51697 0.48970 -0.00300
O 	O 	0.02550 0.15430 0.89570 -0.02200
O 	O 	0.14280 0.19310 0.90120 -0.08800
O 	O 	0.00520 0.18550 0.54100 -0.16000
O 	O 	0.10550 0.16330 0.45260 -0.17600
O 	O 	0.24250 0.49760 0.80210 -0.04400
O 	O 	0.22470 0.44050 0.86310 -0.05000
O 	O 	0.26510 0.49030 0.52210 -0.02700
O 	O 	0.33850 0.52640 0.39130 -0.11200
N 	N 	0.27890 0.46530 0.84340 0.01800
