data_crystal

_cell_length_a 8.01350
_cell_length_b 17.65800
_cell_length_c 13.88410
_cell_angle_alpha 90.00000
_cell_angle_beta  90.00000
_cell_angle_gamma 90.00000

_symmetry_space_group_name_	'P 1'
_symmetry_space_group_name_H-M	'P 1'

loop_
_symmetry_equiv_pos_as_xyz
  x,y,z

loop_
_atom_site_label
_atom_site_type_symbol
_atom_site_fract_x
_atom_site_fract_y
_atom_site_fract_z
_atom_site_charge
H 	H 	0.06460 0.20520 0.85440 0.05400
H 	H 	0.77240 0.20490 0.83220 0.05800
C 	C 	0.91640 0.31040 0.65810 0.07900
H 	H 	0.90760 0.36110 0.67810 0.00500
N 	N 	0.96270 0.28890 0.57170 -0.09800
C 	C 	0.09980 0.39513 0.36400 0.09300
H 	H 	0.21160 0.40870 0.37510 -0.01400
N 	N 	0.05200 0.33498 0.31578 -0.22300
N 	N 	0.87810 0.33564 0.31542 -0.21800
C 	C 	0.83160 0.39616 0.36360 0.09300
H 	H 	0.72020 0.41050 0.37430 -0.01300
N 	N 	0.96620 0.43494 0.39549 -0.13000
C 	C 	0.96730 0.50669 0.44900 -0.05400
H 	H 	0.85390 0.52740 0.45190 0.05100
H 	H 	0.03860 0.54350 0.41580 0.05300
H 	H 	0.43540 0.79480 0.35440 0.05600
H 	H 	0.72760 0.79510 0.33220 0.05700
C 	C 	0.58360 0.68960 0.15810 0.07900
H 	H 	0.59240 0.63890 0.17810 0.00500
N 	N 	0.53730 0.71110 0.07170 -0.09800
C 	C 	0.40020 0.60487 0.86400 0.09300
H 	H 	0.28840 0.59130 0.87510 -0.01400
N 	N 	0.44800 0.66502 0.81578 -0.22300
N 	N 	0.62190 0.66436 0.81542 -0.21800
C 	C 	0.66840 0.60384 0.86360 0.09300
H 	H 	0.77980 0.58950 0.87430 -0.01300
N 	N 	0.53380 0.56506 0.89549 -0.13000
C 	C 	0.53270 0.49331 0.94900 -0.05400
H 	H 	0.64610 0.47260 0.95190 0.05100
H 	H 	0.46140 0.45650 0.91580 0.05300
H 	H 	0.93540 0.70520 0.14560 0.05400
H 	H 	0.22760 0.70490 0.16780 0.05800
C 	C 	0.08360 0.81040 0.34190 0.07900
H 	H 	0.09240 0.86110 0.32190 0.00500
N 	N 	0.03730 0.78890 0.42830 -0.09800
C 	C 	0.90020 0.89513 0.63600 0.09200
H 	H 	0.78840 0.90870 0.62490 -0.01400
N 	N 	0.94800 0.83498 0.68422 -0.22300
N 	N 	0.12190 0.83564 0.68458 -0.21700
C 	C 	0.16840 0.89616 0.63640 0.09300
H 	H 	0.27980 0.91050 0.62570 -0.01300
N 	N 	0.03380 0.93494 0.60451 -0.13000
C 	C 	0.03270 0.00669 0.55100 -0.05600
H 	H 	0.14610 0.02740 0.54810 0.05200
H 	H 	0.96140 0.04350 0.58420 0.05400
H 	H 	0.56460 0.29480 0.64560 0.05600
H 	H 	0.27240 0.29510 0.66780 0.05700
C 	C 	0.41640 0.18960 0.84190 0.07900
H 	H 	0.40760 0.13890 0.82190 0.00500
N 	N 	0.46270 0.21110 0.92830 -0.09800
C 	C 	0.59980 0.10487 0.13600 0.09300
H 	H 	0.71160 0.09130 0.12490 -0.01400
N 	N 	0.55200 0.16502 0.18422 -0.22300
N 	N 	0.37810 0.16436 0.18458 -0.21800
C 	C 	0.33160 0.10384 0.13640 0.09300
H 	H 	0.22020 0.08950 0.12570 -0.01300
N 	N 	0.46620 0.06506 0.10451 -0.13100
C 	C 	0.46730 0.99331 0.05100 -0.05400
H 	H 	0.35390 0.97260 0.04810 0.05200
H 	H 	0.53860 0.95650 0.08420 0.05300
H 	H 	0.93540 0.79480 0.14560 0.05400
H 	H 	0.22760 0.79510 0.16780 0.05800
C 	C 	0.08360 0.68960 0.34190 0.07900
H 	H 	0.09240 0.63890 0.32190 0.00500
N 	N 	0.03730 0.71110 0.42830 -0.09800
C 	C 	0.90020 0.60487 0.63600 0.09300
H 	H 	0.78840 0.59130 0.62490 -0.01400
N 	N 	0.94800 0.66502 0.68422 -0.22300
N 	N 	0.12190 0.66436 0.68458 -0.21800
C 	C 	0.16840 0.60384 0.63640 0.09300
H 	H 	0.27980 0.58950 0.62570 -0.01300
N 	N 	0.03380 0.56506 0.60451 -0.13000
C 	C 	0.03270 0.49331 0.55100 -0.05400
H 	H 	0.14610 0.47260 0.54810 0.05100
H 	H 	0.96140 0.45650 0.58420 0.05300
H 	H 	0.56460 0.20520 0.64560 0.05600
H 	H 	0.27240 0.20490 0.66780 0.05700
C 	C 	0.41640 0.31040 0.84190 0.07900
H 	H 	0.40760 0.36110 0.82190 0.00500
N 	N 	0.46270 0.28890 0.92830 -0.09800
C 	C 	0.59980 0.39513 0.13600 0.09300
H 	H 	0.71160 0.40870 0.12490 -0.01400
N 	N 	0.55200 0.33498 0.18422 -0.22300
N 	N 	0.37810 0.33564 0.18458 -0.21800
C 	C 	0.33160 0.39616 0.13640 0.09300
H 	H 	0.22020 0.41050 0.12570 -0.01300
N 	N 	0.46620 0.43494 0.10451 -0.13000
C 	C 	0.46730 0.50669 0.05100 -0.05400
H 	H 	0.35390 0.52740 0.04810 0.05100
H 	H 	0.53860 0.54350 0.08420 0.05300
H 	H 	0.06460 0.29480 0.85440 0.05400
H 	H 	0.77240 0.29510 0.83220 0.05800
C 	C 	0.91640 0.18960 0.65810 0.07900
H 	H 	0.90760 0.13890 0.67810 0.00500
N 	N 	0.96270 0.21110 0.57170 -0.09800
C 	C 	0.09980 0.10487 0.36400 0.09200
H 	H 	0.21160 0.09130 0.37510 -0.01400
N 	N 	0.05200 0.16502 0.31578 -0.22300
N 	N 	0.87810 0.16436 0.31542 -0.21700
C 	C 	0.83160 0.10384 0.36360 0.09300
H 	H 	0.72020 0.08950 0.37430 -0.01300
N 	N 	0.96620 0.06506 0.39549 -0.13000
C 	C 	0.96730 0.99331 0.44900 -0.05600
H 	H 	0.85390 0.97260 0.45190 0.05200
H 	H 	0.03860 0.95650 0.41580 0.05400
H 	H 	0.43540 0.70520 0.35440 0.05600
H 	H 	0.72760 0.70490 0.33220 0.05700
C 	C 	0.58360 0.81040 0.15810 0.07900
H 	H 	0.59240 0.86110 0.17810 0.00500
N 	N 	0.53730 0.78890 0.07170 -0.09800
C 	C 	0.40020 0.89513 0.86400 0.09300
H 	H 	0.28840 0.90870 0.87510 -0.01400
N 	N 	0.44800 0.83498 0.81578 -0.22300
N 	N 	0.62190 0.83564 0.81542 -0.21800
C 	C 	0.66840 0.89616 0.86360 0.09300
H 	H 	0.77980 0.91050 0.87430 -0.01300
N 	N 	0.53380 0.93494 0.89549 -0.13100
C 	C 	0.53270 0.00669 0.94900 -0.05400
H 	H 	0.64610 0.02740 0.95190 0.05200
H 	H 	0.46140 0.04350 0.91580 0.05300
Zn	Zn	0.21439 0.25000 0.25202 1.17000
C 	C 	0.10470 0.25000 0.04050 0.08900
H 	H 	0.21790 0.25000 0.02270 0.00100
N 	N 	0.05150 0.25000 0.12810 -0.22900
N 	N 	0.87640 0.25000 0.12370 -0.22600
C 	C 	0.83720 0.25000 0.03270 0.09000
H 	H 	0.72760 0.25000 0.00870 0.00300
N 	N 	0.97640 0.25000 0.97780 -0.12900
C 	C 	0.99970 0.25000 0.87260 -0.04900
C 	C 	0.83840 0.25000 0.81660 -0.06200
N 	N 	0.88320 0.25000 0.71440 -0.12900
Zn	Zn	0.28561 0.75000 0.75202 1.17000
C 	C 	0.39530 0.75000 0.54050 0.09000
H 	H 	0.28210 0.75000 0.52270 0.00100
N 	N 	0.44850 0.75000 0.62810 -0.22900
N 	N 	0.62360 0.75000 0.62370 -0.22600
C 	C 	0.66280 0.75000 0.53270 0.09000
H 	H 	0.77240 0.75000 0.50870 0.00200
N 	N 	0.52360 0.75000 0.47780 -0.12900
C 	C 	0.50030 0.75000 0.37260 -0.05400
C 	C 	0.66160 0.75000 0.31660 -0.06000
N 	N 	0.61680 0.75000 0.21440 -0.13000
Zn	Zn	0.78561 0.75000 0.74798 1.17000
C 	C 	0.89530 0.75000 0.95950 0.08900
H 	H 	0.78210 0.75000 0.97730 0.00100
N 	N 	0.94850 0.75000 0.87190 -0.22900
N 	N 	0.12360 0.75000 0.87630 -0.22600
C 	C 	0.16280 0.75000 0.96730 0.09000
H 	H 	0.27240 0.75000 0.99130 0.00300
N 	N 	0.02360 0.75000 0.02220 -0.12900
C 	C 	0.00030 0.75000 0.12740 -0.04900
C 	C 	0.16160 0.75000 0.18340 -0.06200
N 	N 	0.11680 0.75000 0.28560 -0.12900
Zn	Zn	0.71439 0.25000 0.24798 1.17000
C 	C 	0.60470 0.25000 0.45950 0.09000
H 	H 	0.71790 0.25000 0.47730 0.00100
N 	N 	0.55150 0.25000 0.37190 -0.22900
N 	N 	0.37640 0.25000 0.37630 -0.22600
C 	C 	0.33720 0.25000 0.46730 0.09000
H 	H 	0.22760 0.25000 0.49130 0.00200
N 	N 	0.47640 0.25000 0.52220 -0.12900
C 	C 	0.49970 0.25000 0.62740 -0.05400
C 	C 	0.33840 0.25000 0.68340 -0.06000
N 	N 	0.38320 0.25000 0.78560 -0.13000
