data_crystal

_cell_length_a 8.23350
_cell_length_b 17.87510
_cell_length_c 14.20610
_cell_angle_alpha 90.00000
_cell_angle_beta  90.00000
_cell_angle_gamma 90.00000

_symmetry_space_group_name_	'P 1'
_symmetry_space_group_name_H-M	'P 1'

loop_
_symmetry_equiv_pos_as_xyz
  x,y,z

loop_
_atom_site_label
_atom_site_type_symbol
_atom_site_fract_x
_atom_site_fract_y
_atom_site_fract_z
_atom_site_charge
H 	H 	0.05370 0.20570 0.84990 0.05200
H 	H 	0.76930 0.20550 0.82860 0.05600
C 	C 	0.90880 0.30961 0.65730 0.08100
H 	H 	0.89780 0.35970 0.67650 0.00300
N 	N 	0.95660 0.28915 0.57411 -0.10200
C 	C 	0.08970 0.40023 0.36380 0.09300
H 	H 	0.19870 0.41390 0.37320 -0.01900
N 	N 	0.04230 0.34082 0.31806 -0.22200
N 	N 	0.87310 0.34122 0.32020 -0.21700
C 	C 	0.82890 0.40098 0.36780 0.09100
H 	H 	0.72090 0.41480 0.38040 -0.01600
N 	N 	0.96070 0.43927 0.39575 -0.13200
C 	C 	0.96530 0.50842 0.45152 -0.05400
H 	H 	0.85530 0.52880 0.45780 0.05100
H 	H 	0.03290 0.54580 0.41970 0.05300
H 	H 	0.44630 0.79430 0.34990 0.05500
H 	H 	0.73070 0.79450 0.32860 0.05600
C 	C 	0.59120 0.69039 0.15730 0.08100
H 	H 	0.60220 0.64030 0.17650 0.00400
N 	N 	0.54340 0.71085 0.07411 -0.10100
C 	C 	0.41030 0.59977 0.86380 0.09400
H 	H 	0.30130 0.58610 0.87320 -0.01800
N 	N 	0.45770 0.65918 0.81806 -0.22100
N 	N 	0.62690 0.65878 0.82020 -0.21600
C 	C 	0.67110 0.59902 0.86780 0.09300
H 	H 	0.77910 0.58520 0.88040 -0.01600
N 	N 	0.53930 0.56073 0.89575 -0.13200
C 	C 	0.53470 0.49158 0.95152 -0.05400
H 	H 	0.64470 0.47120 0.95780 0.05100
H 	H 	0.46710 0.45420 0.91970 0.05300
H 	H 	0.94630 0.70570 0.15010 0.05300
H 	H 	0.23070 0.70550 0.17140 0.05700
C 	C 	0.09120 0.80961 0.34270 0.08200
H 	H 	0.10220 0.85970 0.32350 0.00400
N 	N 	0.04340 0.78915 0.42589 -0.10100
C 	C 	0.91030 0.90023 0.63620 0.09300
H 	H 	0.80130 0.91390 0.62680 -0.01800
N 	N 	0.95770 0.84082 0.68194 -0.22100
N 	N 	0.12690 0.84122 0.67980 -0.21600
C 	C 	0.17110 0.90098 0.63220 0.09200
H 	H 	0.27910 0.91480 0.61960 -0.01500
N 	N 	0.03930 0.93927 0.60425 -0.13100
C 	C 	0.03470 0.00842 0.54848 -0.05600
H 	H 	0.14470 0.02880 0.54220 0.05100
H 	H 	0.96710 0.04580 0.58030 0.05400
H 	H 	0.55370 0.29430 0.65010 0.05500
H 	H 	0.26930 0.29450 0.67140 0.05600
C 	C 	0.40880 0.19039 0.84270 0.08100
H 	H 	0.39780 0.14030 0.82350 0.00400
N 	N 	0.45660 0.21085 0.92589 -0.10100
C 	C 	0.58970 0.09977 0.13620 0.09400
H 	H 	0.69870 0.08610 0.12680 -0.01800
N 	N 	0.54230 0.15918 0.18194 -0.22100
N 	N 	0.37310 0.15878 0.17980 -0.21600
C 	C 	0.32890 0.09902 0.13220 0.09200
H 	H 	0.22090 0.08520 0.11960 -0.01600
N 	N 	0.46070 0.06073 0.10425 -0.13200
C 	C 	0.46530 0.99158 0.04848 -0.05400
H 	H 	0.35530 0.97120 0.04220 0.05100
H 	H 	0.53290 0.95420 0.08030 0.05300
H 	H 	0.94630 0.79430 0.15010 0.05300
H 	H 	0.23070 0.79450 0.17140 0.05700
C 	C 	0.09120 0.69039 0.34270 0.08200
H 	H 	0.10220 0.64030 0.32350 0.00400
N 	N 	0.04340 0.71085 0.42589 -0.10100
C 	C 	0.91030 0.59977 0.63620 0.09400
H 	H 	0.80130 0.58610 0.62680 -0.01800
N 	N 	0.95770 0.65918 0.68194 -0.22100
N 	N 	0.12690 0.65878 0.67980 -0.21600
C 	C 	0.17110 0.59902 0.63220 0.09200
H 	H 	0.27910 0.58520 0.61960 -0.01600
N 	N 	0.03930 0.56073 0.60425 -0.13200
C 	C 	0.03470 0.49158 0.54848 -0.05400
H 	H 	0.14470 0.47120 0.54220 0.05100
H 	H 	0.96710 0.45420 0.58030 0.05300
H 	H 	0.55370 0.20570 0.65010 0.05500
H 	H 	0.26930 0.20550 0.67140 0.05600
C 	C 	0.40880 0.30961 0.84270 0.08100
H 	H 	0.39780 0.35970 0.82350 0.00400
N 	N 	0.45660 0.28915 0.92589 -0.10100
C 	C 	0.58970 0.40023 0.13620 0.09400
H 	H 	0.69870 0.41390 0.12680 -0.01800
N 	N 	0.54230 0.34082 0.18194 -0.22100
N 	N 	0.37310 0.34122 0.17980 -0.21600
C 	C 	0.32890 0.40098 0.13220 0.09300
H 	H 	0.22090 0.41480 0.11960 -0.01600
N 	N 	0.46070 0.43927 0.10425 -0.13200
C 	C 	0.46530 0.50842 0.04848 -0.05400
H 	H 	0.35530 0.52880 0.04220 0.05100
H 	H 	0.53290 0.54580 0.08030 0.05300
H 	H 	0.05370 0.29430 0.84990 0.05300
H 	H 	0.76930 0.29450 0.82860 0.05700
C 	C 	0.90880 0.19039 0.65730 0.08200
H 	H 	0.89780 0.14030 0.67650 0.00400
N 	N 	0.95660 0.21085 0.57411 -0.10100
C 	C 	0.08970 0.09977 0.36380 0.09300
H 	H 	0.19870 0.08610 0.37320 -0.01800
N 	N 	0.04230 0.15918 0.31806 -0.22100
N 	N 	0.87310 0.15878 0.32020 -0.21600
C 	C 	0.82890 0.09902 0.36780 0.09200
H 	H 	0.72090 0.08520 0.38040 -0.01500
N 	N 	0.96070 0.06073 0.39575 -0.13100
C 	C 	0.96530 0.99158 0.45152 -0.05600
H 	H 	0.85530 0.97120 0.45780 0.05100
H 	H 	0.03290 0.95420 0.41970 0.05400
H 	H 	0.44630 0.70570 0.34990 0.05500
H 	H 	0.73070 0.70550 0.32860 0.05600
C 	C 	0.59120 0.80961 0.15730 0.08100
H 	H 	0.60220 0.85970 0.17650 0.00400
N 	N 	0.54340 0.78915 0.07411 -0.10100
C 	C 	0.41030 0.90023 0.86380 0.09400
H 	H 	0.30130 0.91390 0.87320 -0.01800
N 	N 	0.45770 0.84082 0.81806 -0.22100
N 	N 	0.62690 0.84122 0.82020 -0.21600
C 	C 	0.67110 0.90098 0.86780 0.09200
H 	H 	0.77910 0.91480 0.88040 -0.01600
N 	N 	0.53930 0.93927 0.89575 -0.13200
C 	C 	0.53470 0.00842 0.95152 -0.05400
H 	H 	0.64470 0.02880 0.95780 0.05100
H 	H 	0.46710 0.04580 0.91970 0.05300
Cd	Cd	0.20828 0.25000 0.25092 1.18000
C 	C 	0.09180 0.25000 0.03160 0.08200
H 	H 	0.20220 0.25000 0.01460 0.00000
N 	N 	0.03840 0.25000 0.11850 -0.21900
N 	N 	0.87160 0.25000 0.11320 -0.21300
C 	C 	0.83300 0.25000 0.02320 0.08200
H 	H 	0.72640 0.25000 0.99950 0.00500
N 	N 	0.96860 0.25000 0.97000 -0.12800
C 	C 	0.99060 0.25000 0.86780 -0.04800
C 	C 	0.83350 0.25000 0.81320 -0.06300
N 	N 	0.87660 0.25000 0.71310 -0.13000
Cd	Cd	0.29172 0.75000 0.75092 1.18000
C 	C 	0.40820 0.75000 0.53160 0.08200
H 	H 	0.29780 0.75000 0.51460 0.00000
N 	N 	0.46160 0.75000 0.61850 -0.21900
N 	N 	0.62840 0.75000 0.61320 -0.21300
C 	C 	0.66700 0.75000 0.52320 0.08300
H 	H 	0.77360 0.75000 0.49950 0.00400
N 	N 	0.53140 0.75000 0.47000 -0.12900
C 	C 	0.50940 0.75000 0.36780 -0.05300
C 	C 	0.66650 0.75000 0.31320 -0.06100
N 	N 	0.62340 0.75000 0.21310 -0.13000
Cd	Cd	0.79172 0.75000 0.74908 1.18000
C 	C 	0.90820 0.75000 0.96840 0.08200
H 	H 	0.79780 0.75000 0.98540 0.00000
N 	N 	0.96160 0.75000 0.88150 -0.21900
N 	N 	0.12840 0.75000 0.88680 -0.21300
C 	C 	0.16700 0.75000 0.97680 0.08200
H 	H 	0.27360 0.75000 0.00050 0.00500
N 	N 	0.03140 0.75000 0.03000 -0.12800
C 	C 	0.00940 0.75000 0.13220 -0.04800
C 	C 	0.16650 0.75000 0.18680 -0.06300
N 	N 	0.12340 0.75000 0.28690 -0.13000
Cd	Cd	0.70828 0.25000 0.24908 1.18000
C 	C 	0.59180 0.25000 0.46840 0.08200
H 	H 	0.70220 0.25000 0.48540 0.00000
N 	N 	0.53840 0.25000 0.38150 -0.21900
N 	N 	0.37160 0.25000 0.38680 -0.21300
C 	C 	0.33300 0.25000 0.47680 0.08300
H 	H 	0.22640 0.25000 0.50050 0.00400
N 	N 	0.46860 0.25000 0.53000 -0.12900
C 	C 	0.49060 0.25000 0.63220 -0.05300
C 	C 	0.33350 0.25000 0.68680 -0.06100
N 	N 	0.37660 0.25000 0.78690 -0.13000
