data_crystal

_cell_length_a 19.73900
_cell_length_b 19.73900
_cell_length_c 7.47680
_cell_angle_alpha 90.00000
_cell_angle_beta  90.00000
_cell_angle_gamma 90.00000

_symmetry_space_group_name_	'P 1'
_symmetry_space_group_name_H-M	'P 1'

loop_
_symmetry_equiv_pos_as_xyz
  x,y,z

loop_
_atom_site_label
_atom_site_type_symbol
_atom_site_fract_x
_atom_site_fract_y
_atom_site_fract_z
_atom_site_charge
Zn	Zn	-0.00000 0.00000 -0.00000 1.24000
Si	Si	0.00000 0.00000 0.50000 2.91000
F 	F 	0.00000 -0.00000 0.27150 -0.91300
F 	F 	0.00000 -0.00000 0.72850 -0.90500
F 	F 	0.05982 0.05982 0.50000 -0.74400
F 	F 	0.94018 0.94018 0.50000 -0.62400
F 	F 	0.94018 0.05982 0.50000 -0.68000
F 	F 	0.05982 0.94018 0.50000 -0.68000
O 	O 	0.32170 0.11490 -0.00000 -0.20300
C 	C 	0.35460 0.06250 -0.00000 0.19900
C 	C 	0.42970 0.06280 -0.00000 -0.03900
C 	C 	0.46420 0.12110 -0.00000 -0.02600
H 	H 	0.44040 0.16290 -0.00000 0.06600
O 	O 	0.67830 0.88510 -0.00000 -0.18200
C 	C 	0.64540 0.93750 -0.00000 0.27000
C 	C 	0.57030 0.93720 -0.00000 0.03600
C 	C 	0.53580 0.87890 -0.00000 -0.02900
H 	H 	0.55960 0.83710 -0.00000 0.07700
O 	O 	0.88510 0.32170 -0.00000 -0.18900
C 	C 	0.93750 0.35460 -0.00000 0.27400
C 	C 	0.93720 0.42970 -0.00000 0.03300
C 	C 	0.87890 0.46420 -0.00000 -0.02700
H 	H 	0.83710 0.44040 -0.00000 0.07500
O 	O 	0.11490 0.67830 -0.00000 -0.19600
C 	C 	0.06250 0.64540 -0.00000 0.19800
C 	C 	0.06280 0.57030 -0.00000 -0.03600
C 	C 	0.12110 0.53580 -0.00000 -0.02900
H 	H 	0.16290 0.55960 -0.00000 0.06900
O 	O 	0.67830 0.11490 -0.00000 -0.19600
C 	C 	0.64540 0.06250 -0.00000 0.19800
C 	C 	0.57030 0.06280 -0.00000 -0.03600
C 	C 	0.53580 0.12110 -0.00000 -0.02900
H 	H 	0.55960 0.16290 -0.00000 0.06900
O 	O 	0.32170 0.88510 -0.00000 -0.18900
C 	C 	0.35460 0.93750 -0.00000 0.27400
C 	C 	0.42970 0.93720 -0.00000 0.03300
C 	C 	0.46420 0.87890 -0.00000 -0.02700
H 	H 	0.44040 0.83710 -0.00000 0.07500
O 	O 	0.11490 0.32170 -0.00000 -0.20300
C 	C 	0.06250 0.35460 -0.00000 0.19900
C 	C 	0.06280 0.42970 -0.00000 -0.03900
C 	C 	0.12110 0.46420 -0.00000 -0.02600
H 	H 	0.16290 0.44040 -0.00000 0.06600
O 	O 	0.88510 0.67830 -0.00000 -0.18200
C 	C 	0.93750 0.64540 -0.00000 0.27000
C 	C 	0.93720 0.57030 -0.00000 0.03600
C 	C 	0.87890 0.53580 -0.00000 -0.02900
H 	H 	0.83710 0.55960 -0.00000 0.07700
N 	N 	0.10960 0.00000 -0.00000 -0.26500
N 	N 	0.32260 0.00000 -0.00000 -0.23200
C 	C 	0.24910 0.00000 -0.00000 0.20300
C 	C 	0.46430 0.00000 -0.00000 -0.04400
N 	N 	0.89040 0.00000 -0.00000 -0.23700
N 	N 	0.67740 0.00000 -0.00000 -0.23000
C 	C 	0.75090 0.00000 -0.00000 0.20500
C 	C 	0.53570 0.00000 -0.00000 -0.04500
N 	N 	0.00000 0.10960 -0.00000 -0.26500
N 	N 	0.00000 0.32260 -0.00000 -0.23200
C 	C 	-0.00000 0.24910 -0.00000 0.20300
C 	C 	-0.00000 0.46430 -0.00000 -0.04400
N 	N 	0.00000 0.89040 -0.00000 -0.23700
N 	N 	-0.00000 0.67740 -0.00000 -0.23000
C 	C 	-0.00000 0.75090 -0.00000 0.20500
C 	C 	-0.00000 0.53570 -0.00000 -0.04500
C 	C 	0.14450 0.00000 0.85380 0.17000
H 	H 	0.12050 -0.00000 0.74370 0.03300
C 	C 	0.21410 0.00000 0.84720 -0.19600
H 	H 	0.23690 0.00000 0.73540 0.12200
C 	C 	0.85550 0.00000 0.85380 0.17900
H 	H 	0.87950 -0.00000 0.74370 0.05100
C 	C 	0.78590 0.00000 0.84720 -0.19000
H 	H 	0.76310 0.00000 0.73540 0.12500
C 	C 	0.00000 0.14450 0.85380 0.17000
H 	H 	-0.00000 0.12050 0.74370 0.03300
C 	C 	0.00000 0.21410 0.84720 -0.19600
H 	H 	0.00000 0.23690 0.73540 0.12200
C 	C 	0.00000 0.85550 0.85380 0.17900
H 	H 	0.00000 0.87950 0.74370 0.05100
C 	C 	0.00000 0.78590 0.84720 -0.19000
H 	H 	0.00000 0.76310 0.73540 0.12500
C 	C 	0.85550 0.00000 0.14620 0.15200
H 	H 	0.87950 0.00000 0.25630 0.05600
C 	C 	0.78590 -0.00000 0.15280 -0.21400
H 	H 	0.76310 0.00000 0.26460 0.12800
C 	C 	0.14450 0.00000 0.14620 0.14300
H 	H 	0.12050 0.00000 0.25630 0.03800
C 	C 	0.21410 -0.00000 0.15280 -0.21900
H 	H 	0.23690 0.00000 0.26460 0.12400
C 	C 	0.00000 0.14450 0.14620 0.14300
H 	H 	0.00000 0.12050 0.25630 0.03800
C 	C 	0.00000 0.21410 0.15280 -0.21900
H 	H 	0.00000 0.23690 0.26460 0.12400
C 	C 	0.00000 0.85550 0.14620 0.15200
H 	H 	0.00000 0.87950 0.25630 0.05600
C 	C 	-0.00000 0.78590 0.15280 -0.21400
H 	H 	0.00000 0.76310 0.26460 0.12800
