data_crystal

_cell_length_a 30.86300
_cell_length_b 15.74250
_cell_length_c 22.19200
_cell_angle_alpha 90.00000
_cell_angle_beta  133.17300
_cell_angle_gamma 90.00000

_symmetry_space_group_name_	'P 1'
_symmetry_space_group_name_H-M	'P 1'

loop_
_symmetry_equiv_pos_as_xyz
  x,y,z

loop_
_atom_site_label
_atom_site_type_symbol
_atom_site_fract_x
_atom_site_fract_y
_atom_site_fract_z
_atom_site_charge
La	La	0.89008 0.86284 0.32831 1.46700
La	La	0.83052 0.12895 0.48594 1.46900
N 	N 	0.83790 0.00410 0.24190 -0.16100
N 	N 	0.13320 0.73080 0.53590 -0.16500
O 	O 	0.87570 0.88580 0.20330 -0.45400
O 	O 	0.84090 0.95490 0.09110 -0.47700
O 	O 	0.86630 0.97390 0.38280 -0.47300
O 	O 	0.82530 0.09840 0.37240 -0.44100
O 	O 	0.05960 0.85210 0.43160 -0.45700
O 	O 	0.98080 0.78080 0.38980 -0.47700
O 	O 	0.24710 0.76450 0.62670 -0.45300
O 	O 	0.27610 0.65040 0.70580 -0.40900
C 	C 	0.84980 0.94780 0.15480 0.36600
C 	C 	0.82520 0.01320 0.17190 -0.08800
C 	C 	0.78650 0.07570 0.11670 0.00200
H 	H 	0.77870 0.08280 0.06840 0.00700
C 	C 	0.75880 0.12870 0.13260 -0.08600
H 	H 	0.73070 0.16880 0.09430 0.03200
C 	C 	0.77500 0.11880 0.20740 -0.00500
H 	H 	0.75900 0.15420 0.22150 0.01600
C 	C 	0.81480 0.05680 0.26110 -0.06800
C 	C 	0.83720 0.04250 0.34570 0.33800
C 	C 	0.03500 0.78870 0.43100 0.35900
C 	C 	0.07620 0.71840 0.48920 -0.07700
C 	C 	0.05400 0.64500 0.49690 -0.02000
H 	H 	0.01340 0.63770 0.46450 0.01400
C 	C 	0.09440 0.58410 0.55410 -0.06700
H 	H 	0.08100 0.53350 0.55830 0.02900
C 	C 	0.15560 0.59930 0.60590 -0.02600
H 	H 	0.18380 0.56110 0.64710 0.03100
C 	C 	0.17230 0.67400 0.59280 -0.06100
C 	C 	0.23610 0.69720 0.64510 0.32900
La	La	0.39008 0.36284 0.32831 1.46800
La	La	0.33052 0.62895 0.48594 1.47000
N 	N 	0.33790 0.50410 0.24190 -0.16000
N 	N 	0.63320 0.23080 0.53590 -0.16400
O 	O 	0.37570 0.38580 0.20330 -0.45400
O 	O 	0.34090 0.45490 0.09110 -0.47700
O 	O 	0.36630 0.47390 0.38280 -0.47400
O 	O 	0.32530 0.59840 0.37240 -0.44100
O 	O 	0.55960 0.35210 0.43160 -0.45600
O 	O 	0.48080 0.28080 0.38980 -0.47700
O 	O 	0.74710 0.26450 0.62670 -0.45300
O 	O 	0.77610 0.15040 0.70580 -0.40900
C 	C 	0.34980 0.44780 0.15480 0.36500
C 	C 	0.32520 0.51320 0.17190 -0.08600
C 	C 	0.28650 0.57570 0.11670 0.00100
H 	H 	0.27870 0.58280 0.06840 0.00800
C 	C 	0.25880 0.62870 0.13260 -0.08500
H 	H 	0.23070 0.66880 0.09430 0.03200
C 	C 	0.27500 0.61880 0.20740 -0.00500
H 	H 	0.25900 0.65420 0.22150 0.01600
C 	C 	0.31480 0.55680 0.26110 -0.06800
C 	C 	0.33720 0.54250 0.34570 0.33900
C 	C 	0.53500 0.28870 0.43100 0.35900
C 	C 	0.57620 0.21840 0.48920 -0.07600
C 	C 	0.55400 0.14500 0.49690 -0.02000
H 	H 	0.51340 0.13770 0.46450 0.01400
C 	C 	0.59440 0.08410 0.55410 -0.06700
H 	H 	0.58100 0.03350 0.55830 0.02900
C 	C 	0.65560 0.09930 0.60590 -0.02600
H 	H 	0.68380 0.06110 0.64710 0.03200
C 	C 	0.67230 0.17400 0.59280 -0.06100
C 	C 	0.73610 0.19720 0.64510 0.32900
La	La	0.10992 0.86284 0.17169 1.46800
La	La	0.16948 0.12895 0.01406 1.46900
N 	N 	0.16210 0.00410 0.25810 -0.16000
N 	N 	0.86680 0.73080 0.96410 -0.16500
O 	O 	0.12430 0.88580 0.29670 -0.45400
O 	O 	0.15910 0.95490 0.40890 -0.47800
O 	O 	0.13370 0.97390 0.11720 -0.47300
O 	O 	0.17470 0.09840 0.12760 -0.44100
O 	O 	0.94040 0.85210 0.06840 -0.45600
O 	O 	0.01920 0.78080 0.11020 -0.47700
O 	O 	0.75290 0.76450 0.87330 -0.45300
O 	O 	0.72390 0.65040 0.79420 -0.40900
C 	C 	0.15020 0.94780 0.34520 0.36500
C 	C 	0.17480 0.01320 0.32810 -0.08700
C 	C 	0.21350 0.07570 0.38330 0.00100
H 	H 	0.22130 0.08280 0.43160 0.00700
C 	C 	0.24120 0.12870 0.36740 -0.08600
H 	H 	0.26930 0.16880 0.40570 0.03100
C 	C 	0.22500 0.11880 0.29260 -0.00500
H 	H 	0.24100 0.15420 0.27850 0.01600
C 	C 	0.18520 0.05680 0.23890 -0.06800
C 	C 	0.16280 0.04250 0.15430 0.33700
C 	C 	0.96500 0.78870 0.06900 0.36000
C 	C 	0.92380 0.71840 0.01080 -0.07600
C 	C 	0.94600 0.64500 0.00310 -0.01800
H 	H 	0.98660 0.63770 0.03550 0.01400
C 	C 	0.90560 0.58410 0.94590 -0.06900
H 	H 	0.91900 0.53350 0.94170 0.03000
C 	C 	0.84440 0.59930 0.89410 -0.02600
H 	H 	0.81620 0.56110 0.85290 0.03100
C 	C 	0.82770 0.67400 0.90720 -0.06100
C 	C 	0.76390 0.69720 0.85490 0.32900
La	La	0.60992 0.36284 0.17169 1.46800
La	La	0.66948 0.62895 0.01406 1.47200
N 	N 	0.66210 0.50410 0.25810 -0.16000
N 	N 	0.36680 0.23080 0.96410 -0.16400
O 	O 	0.62430 0.38580 0.29670 -0.45400
O 	O 	0.65910 0.45490 0.40890 -0.47700
O 	O 	0.63370 0.47390 0.11720 -0.47400
O 	O 	0.67470 0.59840 0.12760 -0.44100
O 	O 	0.44040 0.35210 0.06840 -0.45600
O 	O 	0.51920 0.28080 0.11020 -0.47700
O 	O 	0.25290 0.26450 0.87330 -0.45300
O 	O 	0.22390 0.15040 0.79420 -0.40900
C 	C 	0.65020 0.44780 0.34520 0.36500
C 	C 	0.67480 0.51320 0.32810 -0.08600
C 	C 	0.71350 0.57570 0.38330 0.00100
H 	H 	0.72130 0.58280 0.43160 0.00800
C 	C 	0.74120 0.62870 0.36740 -0.08500
H 	H 	0.76930 0.66880 0.40570 0.03100
C 	C 	0.72500 0.61880 0.29260 -0.00500
H 	H 	0.74100 0.65420 0.27850 0.01600
C 	C 	0.68520 0.55680 0.23890 -0.06800
C 	C 	0.66280 0.54250 0.15430 0.33900
C 	C 	0.46500 0.28870 0.06900 0.35900
C 	C 	0.42380 0.21840 0.01080 -0.07600
C 	C 	0.44600 0.14500 0.00310 -0.02200
H 	H 	0.48660 0.13770 0.03550 0.01500
C 	C 	0.40560 0.08410 0.94590 -0.06400
H 	H 	0.41900 0.03350 0.94170 0.02900
C 	C 	0.34440 0.09930 0.89410 -0.02800
H 	H 	0.31620 0.06110 0.85290 0.03200
C 	C 	0.32770 0.17400 0.90720 -0.06000
C 	C 	0.26390 0.19720 0.85490 0.32900
La	La	0.10992 0.13716 0.67169 1.46800
La	La	0.16948 0.87105 0.51406 1.47000
N 	N 	0.16210 0.99590 0.75810 -0.16000
N 	N 	0.86680 0.26920 0.46410 -0.16400
O 	O 	0.12430 0.11420 0.79670 -0.45400
O 	O 	0.15910 0.04510 0.90890 -0.47700
O 	O 	0.13370 0.02610 0.61720 -0.47300
O 	O 	0.17470 0.90160 0.62760 -0.44100
O 	O 	0.94040 0.14790 0.56840 -0.45700
O 	O 	0.01920 0.21920 0.61020 -0.47700
O 	O 	0.75290 0.23550 0.37330 -0.45300
O 	O 	0.72390 0.34960 0.29420 -0.40900
C 	C 	0.15020 0.05220 0.84520 0.36600
C 	C 	0.17480 0.98680 0.82810 -0.08800
C 	C 	0.21350 0.92430 0.88330 0.00200
H 	H 	0.22130 0.91720 0.93160 0.00700
C 	C 	0.24120 0.87130 0.86740 -0.08600
H 	H 	0.26930 0.83120 0.90570 0.03200
C 	C 	0.22500 0.88120 0.79260 -0.00500
H 	H 	0.24100 0.84580 0.77850 0.01600
C 	C 	0.18520 0.94320 0.73890 -0.06800
C 	C 	0.16280 0.95750 0.65430 0.33800
C 	C 	0.96500 0.21130 0.56900 0.35900
C 	C 	0.92380 0.28160 0.51080 -0.07700
C 	C 	0.94600 0.35500 0.50310 -0.02000
H 	H 	0.98660 0.36230 0.53550 0.01400
C 	C 	0.90560 0.41590 0.44590 -0.06700
H 	H 	0.91900 0.46650 0.44170 0.02900
C 	C 	0.84440 0.40070 0.39410 -0.02600
H 	H 	0.81620 0.43890 0.35290 0.03100
C 	C 	0.82770 0.32600 0.40720 -0.06100
C 	C 	0.76390 0.30280 0.35490 0.32900
La	La	0.60992 0.63716 0.67169 1.46800
La	La	0.66948 0.37105 0.51406 1.47000
N 	N 	0.66210 0.49590 0.75810 -0.16000
N 	N 	0.36680 0.76920 0.46410 -0.16400
O 	O 	0.62430 0.61420 0.79670 -0.45400
O 	O 	0.65910 0.54510 0.90890 -0.47700
O 	O 	0.63370 0.52610 0.61720 -0.47400
O 	O 	0.67470 0.40160 0.62760 -0.44100
O 	O 	0.44040 0.64790 0.56840 -0.45600
O 	O 	0.51920 0.71920 0.61020 -0.47700
O 	O 	0.25290 0.73550 0.37330 -0.45300
O 	O 	0.22390 0.84960 0.29420 -0.40900
C 	C 	0.65020 0.55220 0.84520 0.36500
C 	C 	0.67480 0.48680 0.82810 -0.08600
C 	C 	0.71350 0.42430 0.88330 0.00100
H 	H 	0.72130 0.41720 0.93160 0.00800
C 	C 	0.74120 0.37130 0.86740 -0.08500
H 	H 	0.76930 0.33120 0.90570 0.03200
C 	C 	0.72500 0.38120 0.79260 -0.00500
H 	H 	0.74100 0.34580 0.77850 0.01600
C 	C 	0.68520 0.44320 0.73890 -0.06800
C 	C 	0.66280 0.45750 0.65430 0.33900
C 	C 	0.46500 0.71130 0.56900 0.35900
C 	C 	0.42380 0.78160 0.51080 -0.07600
C 	C 	0.44600 0.85500 0.50310 -0.02000
H 	H 	0.48660 0.86230 0.53550 0.01400
C 	C 	0.40560 0.91590 0.44590 -0.06700
H 	H 	0.41900 0.96650 0.44170 0.02900
C 	C 	0.34440 0.90070 0.39410 -0.02600
H 	H 	0.31620 0.93890 0.35290 0.03200
C 	C 	0.32770 0.82600 0.40720 -0.06100
C 	C 	0.26390 0.80280 0.35490 0.32900
La	La	0.89008 0.13716 0.82831 1.46800
La	La	0.83052 0.87105 0.98594 1.46900
N 	N 	0.83790 0.99590 0.74190 -0.16000
N 	N 	0.13320 0.26920 0.03590 -0.16500
O 	O 	0.87570 0.11420 0.70330 -0.45400
O 	O 	0.84090 0.04510 0.59110 -0.47800
O 	O 	0.86630 0.02610 0.88280 -0.47300
O 	O 	0.82530 0.90160 0.87240 -0.44100
O 	O 	0.05960 0.14790 0.93160 -0.45600
O 	O 	0.98080 0.21920 0.88980 -0.47700
O 	O 	0.24710 0.23550 0.12670 -0.45300
O 	O 	0.27610 0.34960 0.20580 -0.40900
C 	C 	0.84980 0.05220 0.65480 0.36500
C 	C 	0.82520 0.98680 0.67190 -0.08700
C 	C 	0.78650 0.92430 0.61670 0.00100
H 	H 	0.77870 0.91720 0.56840 0.00700
C 	C 	0.75880 0.87130 0.63260 -0.08600
H 	H 	0.73070 0.83120 0.59430 0.03100
C 	C 	0.77500 0.88120 0.70740 -0.00500
H 	H 	0.75900 0.84580 0.72150 0.01600
C 	C 	0.81480 0.94320 0.76110 -0.06800
C 	C 	0.83720 0.95750 0.84570 0.33700
C 	C 	0.03500 0.21130 0.93100 0.36000
C 	C 	0.07620 0.28160 0.98920 -0.07600
C 	C 	0.05400 0.35500 0.99690 -0.01800
H 	H 	0.01340 0.36230 0.96450 0.01400
C 	C 	0.09440 0.41590 0.05410 -0.06900
H 	H 	0.08100 0.46650 0.05830 0.03000
C 	C 	0.15560 0.40070 0.10590 -0.02600
H 	H 	0.18380 0.43890 0.14710 0.03100
C 	C 	0.17230 0.32600 0.09280 -0.06100
C 	C 	0.23610 0.30280 0.14510 0.32900
La	La	0.39008 0.63716 0.82831 1.46800
La	La	0.33052 0.37105 0.98594 1.47200
N 	N 	0.33790 0.49590 0.74190 -0.16000
N 	N 	0.63320 0.76920 0.03590 -0.16400
O 	O 	0.37570 0.61420 0.70330 -0.45400
O 	O 	0.34090 0.54510 0.59110 -0.47700
O 	O 	0.36630 0.52610 0.88280 -0.47400
O 	O 	0.32530 0.40160 0.87240 -0.44100
O 	O 	0.55960 0.64790 0.93160 -0.45600
O 	O 	0.48080 0.71920 0.88980 -0.47700
O 	O 	0.74710 0.73550 0.12670 -0.45300
O 	O 	0.77610 0.84960 0.20580 -0.40900
C 	C 	0.34980 0.55220 0.65480 0.36500
C 	C 	0.32520 0.48680 0.67190 -0.08600
C 	C 	0.28650 0.42430 0.61670 0.00100
H 	H 	0.27870 0.41720 0.56840 0.00800
C 	C 	0.25880 0.37130 0.63260 -0.08500
H 	H 	0.23070 0.33120 0.59430 0.03100
C 	C 	0.27500 0.38120 0.70740 -0.00500
H 	H 	0.25900 0.34580 0.72150 0.01600
C 	C 	0.31480 0.44320 0.76110 -0.06800
C 	C 	0.33720 0.45750 0.84570 0.33900
C 	C 	0.53500 0.71130 0.93100 0.35900
C 	C 	0.57620 0.78160 0.98920 -0.07600
C 	C 	0.55400 0.85500 0.99690 -0.02200
H 	H 	0.51340 0.86230 0.96450 0.01500
C 	C 	0.59440 0.91590 0.05410 -0.06400
H 	H 	0.58100 0.96650 0.05830 0.02900
C 	C 	0.65560 0.90070 0.10590 -0.02800
H 	H 	0.68380 0.93890 0.14710 0.03200
C 	C 	0.67230 0.82600 0.09280 -0.06000
C 	C 	0.73610 0.80280 0.14510 0.32900
