data_crystal

_cell_length_a 30.84600
_cell_length_b 15.77300
_cell_length_c 22.18900
_cell_angle_alpha 90.00000
_cell_angle_beta  133.13400
_cell_angle_gamma 90.00000

_symmetry_space_group_name_	'P 1'
_symmetry_space_group_name_H-M	'P 1'

loop_
_symmetry_equiv_pos_as_xyz
  x,y,z

loop_
_atom_site_label
_atom_site_type_symbol
_atom_site_fract_x
_atom_site_fract_y
_atom_site_fract_z
_atom_site_charge
La	La	0.62790 0.36364 0.89285 1.48300
La	La	0.68660 0.62839 0.73405 1.47700
La	La	0.84739 0.12942 0.20544 1.47000
La	La	0.90824 0.13748 0.54918 1.52800
N 	N 	0.68010 0.50500 0.97690 -0.15700
N 	N 	0.65040 0.76860 0.75610 -0.16500
N 	N 	0.88310 0.26910 0.18270 -0.16300
N 	N 	0.85780 0.99700 0.46320 -0.16300
O 	O 	0.65050 0.47600 0.83780 -0.46600
O 	O 	0.68930 0.59620 0.84460 -0.44900
O 	O 	0.64400 0.38750 0.02050 -0.48800
O 	O 	0.67610 0.45620 0.12780 -0.50100
O 	O 	0.76440 0.73430 0.84770 -0.46500
O 	O 	0.79150 0.84890 0.92370 -0.41300
O 	O 	0.57720 0.64850 0.65140 -0.44300
O 	O 	0.49770 0.71850 0.61050 -0.45100
O 	O 	0.77020 0.23460 0.09270 -0.45500
O 	O 	0.74010 0.34960 0.01300 -0.43100
O 	O 	0.95740 0.14530 0.28820 -0.44000
O 	O 	0.03550 0.21940 0.33170 -0.46800
O 	O 	0.89670 0.11500 0.42770 -0.43200
O 	O 	0.85830 0.04590 0.30920 -0.46500
O 	O 	0.88380 0.02570 0.60250 -0.46400
O 	O 	0.84080 0.90120 0.59000 -0.43000
O 	O 	0.98520 0.12910 0.70940 -0.68800
H 	H 	0.98120 0.17840 0.72050 0.24600
H 	H 	0.96140 0.09670 0.70570 0.24500
C 	C 	0.68060 0.54300 0.87490 0.36200
C 	C 	0.70240 0.55510 0.95990 -0.02500
C 	C 	0.74210 0.62120 0.01290 -0.07800
H 	H 	0.75470 0.66000 0.99600 0.05000
C 	C 	0.76140 0.62660 0.08970 -0.04600
H 	H 	0.79310 0.66120 0.13080 0.01700
C 	C 	0.73150 0.57840 0.10280 -0.01300
H 	H 	0.73660 0.58900 0.14850 0.01300
C 	C 	0.69380 0.51400 0.04860 -0.09600
C 	C 	0.66750 0.44740 0.06620 0.42600
C 	C 	0.75390 0.80050 0.86600 0.35400
C 	C 	0.68900 0.82740 0.81040 -0.06300
C 	C 	0.67190 0.89960 0.82370 -0.01800
H 	H 	0.70030 0.93830 0.86360 0.03200
C 	C 	0.61190 0.91490 0.77720 -0.07100
H 	H 	0.59930 0.96320 0.78550 0.03300
C 	C 	0.57230 0.85620 0.71900 -0.01400
H 	H 	0.53170 0.86440 0.68610 0.01600
C 	C 	0.59340 0.78200 0.70880 -0.06700
C 	C 	0.55220 0.71210 0.64900 0.36100
C 	C 	0.77950 0.30400 0.07260 0.33700
C 	C 	0.84340 0.32500 0.12200 -0.06800
C 	C 	0.86220 0.40070 0.11460 -0.01400
H 	H 	0.83540 0.44110 0.07520 0.02300
C 	C 	0.92250 0.41310 0.16810 -0.08000
H 	H 	0.93590 0.46390 0.16440 0.03400
C 	C 	0.96470 0.35490 0.22740 0.00200
H 	H 	0.00530 0.36460 0.26220 0.00400
C 	C 	0.94200 0.28140 0.23090 -0.09100
C 	C 	0.98140 0.21150 0.28730 0.35200
C 	C 	0.86790 0.05230 0.37430 0.31700
C 	C 	0.84220 0.98810 0.39020 -0.06600
C 	C 	0.80350 0.92540 0.33540 -0.01100
H 	H 	0.79240 0.92030 0.28460 0.01100
C 	C 	0.78140 0.86930 0.35820 -0.07800
H 	H 	0.75920 0.82230 0.32570 0.03000
C 	C 	0.79310 0.88500 0.43050 -0.00200
H 	H 	0.77380 0.85430 0.44200 0.01700
C 	C 	0.83240 0.94470 0.48230 -0.07400
C 	C 	0.85490 0.95820 0.56530 0.33700
La	La	0.12790 0.86364 0.89285 1.48100
La	La	0.18660 0.12839 0.73405 1.47700
La	La	0.34739 0.62942 0.20544 1.47100
La	La	0.40824 0.63748 0.54918 1.52900
N 	N 	0.18010 0.00500 0.97690 -0.15700
N 	N 	0.15040 0.26860 0.75610 -0.16400
N 	N 	0.38310 0.76910 0.18270 -0.16500
N 	N 	0.35780 0.49700 0.46320 -0.16300
O 	O 	0.15050 0.97600 0.83780 -0.46800
O 	O 	0.18930 0.09620 0.84460 -0.45000
O 	O 	0.14400 0.88750 0.02050 -0.48800
O 	O 	0.17610 0.95620 0.12780 -0.50200
O 	O 	0.26440 0.23430 0.84770 -0.46500
O 	O 	0.29150 0.34890 0.92370 -0.41300
O 	O 	0.07720 0.14850 0.65140 -0.44300
O 	O 	0.99770 0.21850 0.61050 -0.44500
O 	O 	0.27020 0.73460 0.09270 -0.45500
O 	O 	0.24010 0.84960 0.01300 -0.43000
O 	O 	0.45740 0.64530 0.28820 -0.43900
O 	O 	0.53550 0.71940 0.33170 -0.46300
O 	O 	0.39670 0.61500 0.42770 -0.43300
O 	O 	0.35830 0.54590 0.30920 -0.46600
O 	O 	0.38380 0.52570 0.60250 -0.46400
O 	O 	0.34080 0.40120 0.59000 -0.43000
O 	O 	0.48520 0.62910 0.70940 -0.69000
H 	H 	0.48120 0.67840 0.72050 0.24500
H 	H 	0.46140 0.59670 0.70570 0.24500
C 	C 	0.18060 0.04300 0.87490 0.36300
C 	C 	0.20240 0.05510 0.95990 -0.02800
C 	C 	0.24210 0.12120 0.01290 -0.07300
H 	H 	0.25470 0.16000 0.99600 0.04800
C 	C 	0.26140 0.12660 0.08970 -0.04900
H 	H 	0.29310 0.16120 0.13080 0.01700
C 	C 	0.23150 0.07840 0.10280 -0.01200
H 	H 	0.23660 0.08900 0.14850 0.01200
C 	C 	0.19380 0.01400 0.04860 -0.09600
C 	C 	0.16750 0.94740 0.06620 0.42700
C 	C 	0.25390 0.30050 0.86600 0.35300
C 	C 	0.18900 0.32740 0.81040 -0.06300
C 	C 	0.17190 0.39960 0.82370 -0.01900
H 	H 	0.20030 0.43830 0.86360 0.03200
C 	C 	0.11190 0.41490 0.77720 -0.07100
H 	H 	0.09930 0.46320 0.78550 0.03200
C 	C 	0.07230 0.35620 0.71900 -0.01500
H 	H 	0.03170 0.36440 0.68610 0.01400
C 	C 	0.09340 0.28200 0.70880 -0.06600
C 	C 	0.05220 0.21210 0.64900 0.35400
C 	C 	0.27950 0.80400 0.07260 0.33600
C 	C 	0.34340 0.82500 0.12200 -0.06500
C 	C 	0.36220 0.90070 0.11460 -0.02000
H 	H 	0.33540 0.94110 0.07520 0.02600
C 	C 	0.42250 0.91310 0.16810 -0.07000
H 	H 	0.43590 0.96390 0.16440 0.03000
C 	C 	0.46470 0.85490 0.22740 -0.01400
H 	H 	0.50530 0.86460 0.26220 0.01200
C 	C 	0.44200 0.78140 0.23090 -0.08400
C 	C 	0.48140 0.71150 0.28730 0.34300
C 	C 	0.36790 0.55230 0.37430 0.31700
C 	C 	0.34220 0.48810 0.39020 -0.06600
C 	C 	0.30350 0.42540 0.33540 -0.01100
H 	H 	0.29240 0.42030 0.28460 0.01100
C 	C 	0.28140 0.36930 0.35820 -0.07900
H 	H 	0.25920 0.32230 0.32570 0.03000
C 	C 	0.29310 0.38500 0.43050 -0.00200
H 	H 	0.27380 0.35430 0.44200 0.01600
C 	C 	0.33240 0.44470 0.48230 -0.07500
C 	C 	0.35490 0.45820 0.56530 0.33700
La	La	0.62790 0.63636 0.39285 1.47400
La	La	0.68660 0.37161 0.23405 1.47500
La	La	0.84739 0.87058 0.70544 1.47500
La	La	0.90824 0.86252 0.04918 1.51600
N 	N 	0.68010 0.49500 0.47690 -0.15700
N 	N 	0.65040 0.23140 0.25610 -0.16300
N 	N 	0.88310 0.73090 0.68270 -0.16200
N 	N 	0.85780 0.00300 0.96320 -0.16300
O 	O 	0.65050 0.52400 0.33780 -0.47100
O 	O 	0.68930 0.40380 0.34460 -0.45300
O 	O 	0.64400 0.61250 0.52050 -0.48200
O 	O 	0.67610 0.54380 0.62780 -0.49900
O 	O 	0.76440 0.26570 0.34770 -0.46700
O 	O 	0.79150 0.15110 0.42370 -0.41800
O 	O 	0.57720 0.35150 0.15140 -0.44500
O 	O 	0.49770 0.28150 0.11050 -0.45300
O 	O 	0.77020 0.76540 0.59270 -0.45200
O 	O 	0.74010 0.65040 0.51300 -0.42300
O 	O 	0.95740 0.85470 0.78820 -0.43800
O 	O 	0.03550 0.78060 0.83170 -0.46800
O 	O 	0.89670 0.88500 0.92770 -0.42600
O 	O 	0.85830 0.95410 0.80920 -0.46300
O 	O 	0.88380 0.97430 0.10250 -0.46200
O 	O 	0.84080 0.09880 0.09000 -0.43000
O 	O 	0.98520 0.87090 0.20940 -0.68800
H 	H 	0.98120 0.82160 0.22050 0.24500
H 	H 	0.96140 0.90330 0.20570 0.24400
C 	C 	0.68060 0.45700 0.37490 0.37200
C 	C 	0.70240 0.44490 0.45990 -0.05900
C 	C 	0.74210 0.37880 0.51290 -0.01300
H 	H 	0.75470 0.34000 0.49600 0.01900
C 	C 	0.76140 0.37340 0.58970 -0.08300
H 	H 	0.79310 0.33880 0.63080 0.03200
C 	C 	0.73150 0.42160 0.60280 0.00600
H 	H 	0.73660 0.41100 0.64850 0.00800
C 	C 	0.69380 0.48600 0.54860 -0.09300
C 	C 	0.66750 0.55260 0.56620 0.42700
C 	C 	0.75390 0.19950 0.36600 0.35500
C 	C 	0.68900 0.17260 0.31040 -0.06500
C 	C 	0.67190 0.10040 0.32370 -0.01800
H 	H 	0.70030 0.06170 0.36360 0.03000
C 	C 	0.61190 0.08510 0.27720 -0.07300
H 	H 	0.59930 0.03680 0.28550 0.03100
C 	C 	0.57230 0.14380 0.21900 -0.01400
H 	H 	0.53170 0.13560 0.18610 0.01400
C 	C 	0.59340 0.21800 0.20880 -0.06900
C 	C 	0.55220 0.28790 0.14900 0.36100
C 	C 	0.77950 0.69600 0.57260 0.33600
C 	C 	0.84340 0.67500 0.62200 -0.06600
C 	C 	0.86220 0.59930 0.61460 -0.01300
H 	H 	0.83540 0.55890 0.57520 0.02600
C 	C 	0.92250 0.58690 0.66810 -0.08000
H 	H 	0.93590 0.53610 0.66440 0.03700
C 	C 	0.96470 0.64510 0.72740 0.00700
H 	H 	0.00530 0.63540 0.76220 0.00300
C 	C 	0.94200 0.71860 0.73090 -0.09100
C 	C 	0.98140 0.78850 0.78730 0.35400
C 	C 	0.86790 0.94770 0.87430 0.31600
C 	C 	0.84220 0.01190 0.89020 -0.06200
C 	C 	0.80350 0.07460 0.83540 -0.01600
H 	H 	0.79240 0.07970 0.78460 0.01400
C 	C 	0.78140 0.13070 0.85820 -0.06900
H 	H 	0.75920 0.17770 0.82570 0.02900
C 	C 	0.79310 0.11500 0.93050 -0.01300
H 	H 	0.77380 0.14570 0.94200 0.02500
C 	C 	0.83240 0.05530 0.98230 -0.05500
C 	C 	0.85490 0.04180 0.06530 0.32000
La	La	0.12790 0.13636 0.39285 1.47300
La	La	0.18660 0.87161 0.23405 1.47500
La	La	0.34739 0.37058 0.70544 1.47400
La	La	0.40824 0.36252 0.04918 1.51600
N 	N 	0.18010 0.99500 0.47690 -0.15700
N 	N 	0.15040 0.73140 0.25610 -0.16400
N 	N 	0.38310 0.23090 0.68270 -0.16500
N 	N 	0.35780 0.50300 0.96320 -0.16300
O 	O 	0.15050 0.02400 0.33780 -0.47200
O 	O 	0.18930 0.90380 0.34460 -0.45400
O 	O 	0.14400 0.11250 0.52050 -0.48200
O 	O 	0.17610 0.04380 0.62780 -0.50000
O 	O 	0.26440 0.76570 0.34770 -0.46700
O 	O 	0.29150 0.65110 0.42370 -0.41800
O 	O 	0.07720 0.85150 0.15140 -0.44500
O 	O 	0.99770 0.78150 0.11050 -0.44900
O 	O 	0.27020 0.26540 0.59270 -0.45200
O 	O 	0.24010 0.15040 0.51300 -0.42300
O 	O 	0.45740 0.35470 0.78820 -0.43700
O 	O 	0.53550 0.28060 0.83170 -0.46000
O 	O 	0.39670 0.38500 0.92770 -0.42700
O 	O 	0.35830 0.45410 0.80920 -0.46400
O 	O 	0.38380 0.47430 0.10250 -0.46300
O 	O 	0.34080 0.59880 0.09000 -0.43000
O 	O 	0.48520 0.37090 0.20940 -0.69000
H 	H 	0.48120 0.32160 0.22050 0.24400
H 	H 	0.46140 0.40330 0.20570 0.24400
C 	C 	0.18060 0.95700 0.37490 0.37200
C 	C 	0.20240 0.94490 0.45990 -0.05900
C 	C 	0.24210 0.87880 0.51290 -0.01300
H 	H 	0.25470 0.84000 0.49600 0.01900
C 	C 	0.26140 0.87340 0.58970 -0.08300
H 	H 	0.29310 0.83880 0.63080 0.03200
C 	C 	0.23150 0.92160 0.60280 0.00600
H 	H 	0.23660 0.91100 0.64850 0.00700
C 	C 	0.19380 0.98600 0.54860 -0.09400
C 	C 	0.16750 0.05260 0.56620 0.42600
C 	C 	0.25390 0.69950 0.36600 0.35500
C 	C 	0.18900 0.67260 0.31040 -0.06500
C 	C 	0.17190 0.60040 0.32370 -0.01800
H 	H 	0.20030 0.56170 0.36360 0.03000
C 	C 	0.11190 0.58510 0.27720 -0.07300
H 	H 	0.09930 0.53680 0.28550 0.03100
C 	C 	0.07230 0.64380 0.21900 -0.01500
H 	H 	0.03170 0.63560 0.18610 0.01300
C 	C 	0.09340 0.71800 0.20880 -0.06800
C 	C 	0.05220 0.78790 0.14900 0.35500
C 	C 	0.27950 0.19600 0.57260 0.33500
C 	C 	0.34340 0.17500 0.62200 -0.06300
C 	C 	0.36220 0.09930 0.61460 -0.02100
H 	H 	0.33540 0.05890 0.57520 0.02800
C 	C 	0.42250 0.08690 0.66810 -0.06800
H 	H 	0.43590 0.03610 0.66440 0.03100
C 	C 	0.46470 0.14510 0.72740 -0.01400
H 	H 	0.50530 0.13540 0.76220 0.01400
C 	C 	0.44200 0.21860 0.73090 -0.08200
C 	C 	0.48140 0.28850 0.78730 0.34300
C 	C 	0.36790 0.44770 0.87430 0.31600
C 	C 	0.34220 0.51190 0.89020 -0.06200
C 	C 	0.30350 0.57460 0.83540 -0.01600
H 	H 	0.29240 0.57970 0.78460 0.01400
C 	C 	0.28140 0.63070 0.85820 -0.07100
H 	H 	0.25920 0.67770 0.82570 0.02900
C 	C 	0.29310 0.61500 0.93050 -0.01200
H 	H 	0.27380 0.64570 0.94200 0.02400
C 	C 	0.33240 0.55530 0.98230 -0.05700
C 	C 	0.35490 0.54180 0.06530 0.32200
