data_crystal

_cell_length_a 30.72700
_cell_length_b 15.76900
_cell_length_c 22.11000
_cell_angle_alpha 90.00000
_cell_angle_beta  133.08000
_cell_angle_gamma 90.00000

_symmetry_space_group_name_	'P 1'
_symmetry_space_group_name_H-M	'P 1'

loop_
_symmetry_equiv_pos_as_xyz
  x,y,z

loop_
_atom_site_label
_atom_site_type_symbol
_atom_site_fract_x
_atom_site_fract_y
_atom_site_fract_z
_atom_site_charge
Ce	Ce	0.66945 0.37180 0.01442 2.03800
Ce	Ce	0.88997 0.13689 0.32709 2.03700
N 	N 	0.63290 0.23260 0.03560 -0.19700
N 	N 	0.66250 0.49760 0.25920 -0.19600
O 	O 	0.55970 0.35360 0.93120 -0.59200
O 	O 	0.48080 0.28210 0.88830 -0.60500
O 	O 	0.74700 0.26640 0.12700 -0.58600
O 	O 	0.77650 0.15030 0.20510 -0.51800
O 	O 	0.63360 0.52860 0.11710 -0.60800
O 	O 	0.67370 0.40340 0.12680 -0.55600
O 	O 	0.62420 0.61550 0.29600 -0.58000
O 	O 	0.65900 0.54710 0.40960 -0.60500
C 	C 	0.53530 0.29190 0.93070 0.41600
C 	C 	0.57590 0.22010 0.98870 -0.12900
C 	C 	0.55400 0.14670 0.99620 0.01400
H 	H 	0.51330 0.13930 0.96310 -0.01400
C 	C 	0.59410 0.08500 0.05380 -0.10800
H 	H 	0.58080 0.03480 0.05850 0.03100
C 	C 	0.65590 0.10110 0.10510 0.00800
H 	H 	0.68400 0.06210 0.14530 0.01100
C 	C 	0.67360 0.17620 0.09420 -0.11200
C 	C 	0.73780 0.19970 0.14730 0.38800
C 	C 	0.66220 0.45980 0.15340 0.37900
C 	C 	0.68400 0.44400 0.23800 -0.11400
C 	C 	0.72590 0.38300 0.29290 0.03500
H 	H 	0.74380 0.34950 0.28040 -0.01400
C 	C 	0.74000 0.37410 0.36570 -0.13100
H 	H 	0.76730 0.33280 0.40330 0.03100
C 	C 	0.71470 0.42460 0.38440 0.04000
H 	H 	0.72360 0.41700 0.43350 -0.02400
C 	C 	0.67550 0.48760 0.32930 -0.13100
C 	C 	0.65010 0.55360 0.34540 0.40000
Ce	Ce	0.16945 0.87180 0.01442 2.03600
Ce	Ce	0.38997 0.63689 0.32709 2.03600
N 	N 	0.13290 0.73260 0.03560 -0.20000
N 	N 	0.16250 0.99760 0.25920 -0.19700
O 	O 	0.05970 0.85360 0.93120 -0.59100
O 	O 	0.98080 0.78210 0.88830 -0.60600
O 	O 	0.24700 0.76640 0.12700 -0.58700
O 	O 	0.27650 0.65030 0.20510 -0.51900
O 	O 	0.13360 0.02860 0.11710 -0.60700
O 	O 	0.17370 0.90340 0.12680 -0.55600
O 	O 	0.12420 0.11550 0.29600 -0.58000
O 	O 	0.15900 0.04710 0.40960 -0.60500
C 	C 	0.03530 0.79190 0.93070 0.41700
C 	C 	0.07590 0.72010 0.98870 -0.12800
C 	C 	0.05400 0.64670 0.99620 0.01900
H 	H 	0.01330 0.63930 0.96310 -0.01500
C 	C 	0.09410 0.58500 0.05380 -0.11500
H 	H 	0.08080 0.53480 0.05850 0.03200
C 	C 	0.15590 0.60110 0.10510 0.01100
H 	H 	0.18400 0.56210 0.14530 0.01000
C 	C 	0.17360 0.67620 0.09420 -0.11400
C 	C 	0.23780 0.69970 0.14730 0.38800
C 	C 	0.16220 0.95980 0.15340 0.37700
C 	C 	0.18400 0.94400 0.23800 -0.11400
C 	C 	0.22590 0.88300 0.29290 0.03500
H 	H 	0.24380 0.84950 0.28040 -0.01400
C 	C 	0.24000 0.87410 0.36570 -0.13100
H 	H 	0.26730 0.83280 0.40330 0.03100
C 	C 	0.21470 0.92460 0.38440 0.04000
H 	H 	0.22360 0.91700 0.43350 -0.02400
C 	C 	0.17550 0.98760 0.32930 -0.13200
C 	C 	0.15010 0.05360 0.34540 0.40100
Ce	Ce	0.33055 0.37180 0.48558 2.03600
Ce	Ce	0.11003 0.13689 0.17291 2.03600
N 	N 	0.36710 0.23260 0.46440 -0.19900
N 	N 	0.33750 0.49760 0.24080 -0.19700
O 	O 	0.44030 0.35360 0.56880 -0.59200
O 	O 	0.51920 0.28210 0.61170 -0.60500
O 	O 	0.25300 0.26640 0.37300 -0.58700
O 	O 	0.22350 0.15030 0.29490 -0.51800
O 	O 	0.36640 0.52860 0.38290 -0.60800
O 	O 	0.32630 0.40340 0.37320 -0.55600
O 	O 	0.37580 0.61550 0.20400 -0.58000
O 	O 	0.34100 0.54710 0.09040 -0.60400
C 	C 	0.46470 0.29190 0.56930 0.41600
C 	C 	0.42410 0.22010 0.51130 -0.12900
C 	C 	0.44600 0.14670 0.50380 0.01700
H 	H 	0.48670 0.13930 0.53690 -0.01500
C 	C 	0.40590 0.08500 0.44620 -0.11300
H 	H 	0.41920 0.03480 0.44150 0.03100
C 	C 	0.34410 0.10110 0.39490 0.01000
H 	H 	0.31600 0.06210 0.35470 0.01000
C 	C 	0.32640 0.17620 0.40580 -0.11300
C 	C 	0.26220 0.19970 0.35270 0.38800
C 	C 	0.33780 0.45980 0.34660 0.37900
C 	C 	0.31600 0.44400 0.26200 -0.11400
C 	C 	0.27410 0.38300 0.20710 0.03500
H 	H 	0.25620 0.34950 0.21960 -0.01400
C 	C 	0.26000 0.37410 0.13430 -0.13100
H 	H 	0.23270 0.33280 0.09670 0.03200
C 	C 	0.28530 0.42460 0.11560 0.04000
H 	H 	0.27640 0.41700 0.06650 -0.02300
C 	C 	0.32450 0.48760 0.17070 -0.13000
C 	C 	0.34990 0.55360 0.15460 0.40000
Ce	Ce	0.83055 0.87180 0.48558 2.03600
Ce	Ce	0.61003 0.63689 0.17291 2.03600
N 	N 	0.86710 0.73260 0.46440 -0.19900
N 	N 	0.83750 0.99760 0.24080 -0.19700
O 	O 	0.94030 0.85360 0.56880 -0.59200
O 	O 	0.01920 0.78210 0.61170 -0.60500
O 	O 	0.75300 0.76640 0.37300 -0.58700
O 	O 	0.72350 0.65030 0.29490 -0.51900
O 	O 	0.86640 0.02860 0.38290 -0.60800
O 	O 	0.82630 0.90340 0.37320 -0.55600
O 	O 	0.87580 0.11550 0.20400 -0.58000
O 	O 	0.84100 0.04710 0.09040 -0.60400
C 	C 	0.96470 0.79190 0.56930 0.41600
C 	C 	0.92410 0.72010 0.51130 -0.12900
C 	C 	0.94600 0.64670 0.50380 0.01700
H 	H 	0.98670 0.63930 0.53690 -0.01500
C 	C 	0.90590 0.58500 0.44620 -0.11300
H 	H 	0.91920 0.53480 0.44150 0.03100
C 	C 	0.84410 0.60110 0.39490 0.01000
H 	H 	0.81600 0.56210 0.35470 0.01000
C 	C 	0.82640 0.67620 0.40580 -0.11300
C 	C 	0.76220 0.69970 0.35270 0.38800
C 	C 	0.83780 0.95980 0.34660 0.37800
C 	C 	0.81600 0.94400 0.26200 -0.11500
C 	C 	0.77410 0.88300 0.20710 0.03500
H 	H 	0.75620 0.84950 0.21960 -0.01500
C 	C 	0.76000 0.87410 0.13430 -0.13200
H 	H 	0.73270 0.83280 0.09670 0.03200
C 	C 	0.78530 0.92460 0.11560 0.04100
H 	H 	0.77640 0.91700 0.06650 -0.02500
C 	C 	0.82450 0.98760 0.17070 -0.13400
C 	C 	0.84990 0.05360 0.15460 0.40200
Ce	Ce	0.33055 0.62820 0.98558 2.03700
Ce	Ce	0.11003 0.86311 0.67291 2.03600
N 	N 	0.36710 0.76740 0.96440 -0.19800
N 	N 	0.33750 0.50240 0.74080 -0.19700
O 	O 	0.44030 0.64640 0.06880 -0.59200
O 	O 	0.51920 0.71790 0.11170 -0.60500
O 	O 	0.25300 0.73360 0.87300 -0.58600
O 	O 	0.22350 0.84970 0.79490 -0.51800
O 	O 	0.36640 0.47140 0.88290 -0.60800
O 	O 	0.32630 0.59660 0.87320 -0.55600
O 	O 	0.37580 0.38450 0.70400 -0.58000
O 	O 	0.34100 0.45290 0.59040 -0.60500
C 	C 	0.46470 0.70810 0.06930 0.41600
C 	C 	0.42410 0.77990 0.01130 -0.12900
C 	C 	0.44600 0.85330 0.00380 0.01400
H 	H 	0.48670 0.86070 0.03690 -0.01400
C 	C 	0.40590 0.91500 0.94620 -0.10800
H 	H 	0.41920 0.96520 0.94150 0.03100
C 	C 	0.34410 0.89890 0.89490 0.00800
H 	H 	0.31600 0.93790 0.85470 0.01100
C 	C 	0.32640 0.82380 0.90580 -0.11200
C 	C 	0.26220 0.80030 0.85270 0.38800
C 	C 	0.33780 0.54020 0.84660 0.37900
C 	C 	0.31600 0.55600 0.76200 -0.11400
C 	C 	0.27410 0.61700 0.70710 0.03500
H 	H 	0.25620 0.65050 0.71960 -0.01400
C 	C 	0.26000 0.62590 0.63430 -0.13100
H 	H 	0.23270 0.66720 0.59670 0.03100
C 	C 	0.28530 0.57540 0.61560 0.04000
H 	H 	0.27640 0.58300 0.56650 -0.02400
C 	C 	0.32450 0.51240 0.67070 -0.13100
C 	C 	0.34990 0.44640 0.65460 0.40000
Ce	Ce	0.83055 0.12820 0.98558 2.03600
Ce	Ce	0.61003 0.36311 0.67291 2.03600
N 	N 	0.86710 0.26740 0.96440 -0.20000
N 	N 	0.83750 0.00240 0.74080 -0.19700
O 	O 	0.94030 0.14640 0.06880 -0.59100
O 	O 	0.01920 0.21790 0.11170 -0.60600
O 	O 	0.75300 0.23360 0.87300 -0.58700
O 	O 	0.72350 0.34970 0.79490 -0.51900
O 	O 	0.86640 0.97140 0.88290 -0.60700
O 	O 	0.82630 0.09660 0.87320 -0.55600
O 	O 	0.87580 0.88450 0.70400 -0.58000
O 	O 	0.84100 0.95290 0.59040 -0.60500
C 	C 	0.96470 0.20810 0.06930 0.41700
C 	C 	0.92410 0.27990 0.01130 -0.12800
C 	C 	0.94600 0.35330 0.00380 0.01900
H 	H 	0.98670 0.36070 0.03690 -0.01500
C 	C 	0.90590 0.41500 0.94620 -0.11500
H 	H 	0.91920 0.46520 0.94150 0.03200
C 	C 	0.84410 0.39890 0.89490 0.01100
H 	H 	0.81600 0.43790 0.85470 0.01000
C 	C 	0.82640 0.32380 0.90580 -0.11400
C 	C 	0.76220 0.30030 0.85270 0.38800
C 	C 	0.83780 0.04020 0.84660 0.37700
C 	C 	0.81600 0.05600 0.76200 -0.11400
C 	C 	0.77410 0.11700 0.70710 0.03500
H 	H 	0.75620 0.15050 0.71960 -0.01400
C 	C 	0.76000 0.12590 0.63430 -0.13100
H 	H 	0.73270 0.16720 0.59670 0.03100
C 	C 	0.78530 0.07540 0.61560 0.04000
H 	H 	0.77640 0.08300 0.56650 -0.02400
C 	C 	0.82450 0.01240 0.67070 -0.13200
C 	C 	0.84990 0.94640 0.65460 0.40100
Ce	Ce	0.66945 0.62820 0.51442 2.03600
Ce	Ce	0.88997 0.86311 0.82709 2.03600
N 	N 	0.63290 0.76740 0.53560 -0.19900
N 	N 	0.66250 0.50240 0.75920 -0.19700
O 	O 	0.55970 0.64640 0.43120 -0.59200
O 	O 	0.48080 0.71790 0.38830 -0.60500
O 	O 	0.74700 0.73360 0.62700 -0.58700
O 	O 	0.77650 0.84970 0.70510 -0.51800
O 	O 	0.63360 0.47140 0.61710 -0.60800
O 	O 	0.67370 0.59660 0.62680 -0.55600
O 	O 	0.62420 0.38450 0.79600 -0.58000
O 	O 	0.65900 0.45290 0.90960 -0.60400
C 	C 	0.53530 0.70810 0.43070 0.41600
C 	C 	0.57590 0.77990 0.48870 -0.12900
C 	C 	0.55400 0.85330 0.49620 0.01700
H 	H 	0.51330 0.86070 0.46310 -0.01500
C 	C 	0.59410 0.91500 0.55380 -0.11300
H 	H 	0.58080 0.96520 0.55850 0.03100
C 	C 	0.65590 0.89890 0.60510 0.01000
H 	H 	0.68400 0.93790 0.64530 0.01000
C 	C 	0.67360 0.82380 0.59420 -0.11300
C 	C 	0.73780 0.80030 0.64730 0.38800
C 	C 	0.66220 0.54020 0.65340 0.37900
C 	C 	0.68400 0.55600 0.73800 -0.11400
C 	C 	0.72590 0.61700 0.79290 0.03500
H 	H 	0.74380 0.65050 0.78040 -0.01400
C 	C 	0.74000 0.62590 0.86570 -0.13100
H 	H 	0.76730 0.66720 0.90330 0.03200
C 	C 	0.71470 0.57540 0.88440 0.04000
H 	H 	0.72360 0.58300 0.93350 -0.02300
C 	C 	0.67550 0.51240 0.82930 -0.13000
C 	C 	0.65010 0.44640 0.84540 0.40000
Ce	Ce	0.16945 0.12820 0.51442 2.03600
Ce	Ce	0.38997 0.36311 0.82709 2.03600
N 	N 	0.13290 0.26740 0.53560 -0.19900
N 	N 	0.16250 0.00240 0.75920 -0.19700
O 	O 	0.05970 0.14640 0.43120 -0.59200
O 	O 	0.98080 0.21790 0.38830 -0.60500
O 	O 	0.24700 0.23360 0.62700 -0.58700
O 	O 	0.27650 0.34970 0.70510 -0.51900
O 	O 	0.13360 0.97140 0.61710 -0.60800
O 	O 	0.17370 0.09660 0.62680 -0.55600
O 	O 	0.12420 0.88450 0.79600 -0.58000
O 	O 	0.15900 0.95290 0.90960 -0.60400
C 	C 	0.03530 0.20810 0.43070 0.41600
C 	C 	0.07590 0.27990 0.48870 -0.12900
C 	C 	0.05400 0.35330 0.49620 0.01700
H 	H 	0.01330 0.36070 0.46310 -0.01500
C 	C 	0.09410 0.41500 0.55380 -0.11300
H 	H 	0.08080 0.46520 0.55850 0.03100
C 	C 	0.15590 0.39890 0.60510 0.01000
H 	H 	0.18400 0.43790 0.64530 0.01000
C 	C 	0.17360 0.32380 0.59420 -0.11300
C 	C 	0.23780 0.30030 0.64730 0.38800
C 	C 	0.16220 0.04020 0.65340 0.37800
C 	C 	0.18400 0.05600 0.73800 -0.11500
C 	C 	0.22590 0.11700 0.79290 0.03500
H 	H 	0.24380 0.15050 0.78040 -0.01500
C 	C 	0.24000 0.12590 0.86570 -0.13200
H 	H 	0.26730 0.16720 0.90330 0.03200
C 	C 	0.21470 0.07540 0.88440 0.04100
H 	H 	0.22360 0.08300 0.93350 -0.02500
C 	C 	0.17550 0.01240 0.82930 -0.13400
C 	C 	0.15010 0.94640 0.84540 0.40200
