data_crystal

_cell_length_a 39.29290
_cell_length_b 39.29290
_cell_length_c 39.29290
_cell_angle_alpha 60.00000
_cell_angle_beta  60.00000
_cell_angle_gamma 60.00000

_symmetry_space_group_name_	'P 1'
_symmetry_space_group_name_H-M	'P 1'

loop_
_symmetry_equiv_pos_as_xyz
  x,y,z

loop_
_atom_site_label
_atom_site_type_symbol
_atom_site_fract_x
_atom_site_fract_y
_atom_site_fract_z
_atom_site_charge
Zr	Zr	0.33088 0.95016 0.85948 3.17200
Zr	Zr	0.80010 0.89100 0.89100 3.16900
Zr	Zr	0.89100 0.89100 0.41790 3.16900
Zr	Zr	0.89100 0.41790 0.80010 3.16800
Zr	Zr	0.89100 0.80010 0.41790 3.16800
Zr	Zr	0.33088 0.85948 0.85948 3.17100
Zr	Zr	0.41790 0.80010 0.89100 3.16800
Zr	Zr	0.89100 0.89100 0.80010 3.16800
Zr	Zr	0.89100 0.41790 0.89100 3.16800
Zr	Zr	0.41790 0.89100 0.89100 3.16800
Zr	Zr	0.85948 0.85948 0.33088 3.17100
Zr	Zr	0.85948 0.33088 0.85948 3.17100
Zr	Zr	0.85948 0.33088 0.95016 3.17100
Zr	Zr	0.89100 0.80010 0.89100 3.16800
Zr	Zr	0.85948 0.95016 0.85948 3.17100
Zr	Zr	0.85948 0.95016 0.33088 3.17100
Zr	Zr	0.95016 0.33088 0.85948 3.17100
Zr	Zr	0.41790 0.89100 0.80010 3.16800
Zr	Zr	0.95016 0.85948 0.33088 3.17100
Zr	Zr	0.80010 0.89100 0.41790 3.16800
Zr	Zr	0.33088 0.85948 0.95016 3.17100
Zr	Zr	0.95016 0.85948 0.85948 3.17100
Zr	Zr	0.80010 0.41790 0.89100 3.16800
Zr	Zr	0.85948 0.85948 0.95016 3.17100
H 	H 	0.60317 0.68021 0.92595 0.02800
H 	H 	0.95818 0.82844 0.14474 0.02800
H 	H 	0.53518 0.82948 0.91632 -0.01700
H 	H 	0.02983 0.21273 0.91937 -0.01700
H 	H 	0.68021 0.79067 0.60317 0.02800
H 	H 	0.82844 0.95818 0.06864 0.02900
H 	H 	0.83807 0.21273 0.02983 -0.01700
H 	H 	0.21273 0.83807 0.02983 -0.01700
H 	H 	0.91632 0.71902 0.82948 -0.01700
H 	H 	0.71902 0.53518 0.91632 -0.01700
H 	H 	0.71902 0.53518 0.82948 -0.01700
H 	H 	0.82948 0.91632 0.53518 -0.01700
H 	H 	0.14474 0.06864 0.82844 0.02800
H 	H 	0.82844 0.06864 0.95818 0.02900
H 	H 	0.21273 0.02983 0.83807 -0.01700
H 	H 	0.92595 0.68021 0.79067 0.02800
H 	H 	0.92595 0.79067 0.68021 0.02800
H 	H 	0.91937 0.83807 0.02983 -0.01800
H 	H 	0.95818 0.06864 0.14474 0.02900
H 	H 	0.14474 0.82844 0.06864 0.02800
H 	H 	0.91632 0.53518 0.71902 -0.01700
H 	H 	0.91632 0.71902 0.53518 -0.01700
H 	H 	0.91632 0.82948 0.71902 -0.01700
H 	H 	0.68021 0.60317 0.79067 0.02800
H 	H 	0.21273 0.91937 0.02983 -0.01700
H 	H 	0.91632 0.53518 0.82948 -0.01700
H 	H 	0.53518 0.71902 0.91632 -0.01700
H 	H 	0.06864 0.95818 0.82844 0.02900
H 	H 	0.92595 0.68021 0.60317 0.02800
H 	H 	0.68021 0.79067 0.92595 0.02800
H 	H 	0.60317 0.92595 0.79067 0.02800
H 	H 	0.14474 0.95818 0.82844 0.02800
H 	H 	0.14474 0.95818 0.06864 0.02900
H 	H 	0.02983 0.83807 0.91937 -0.01800
H 	H 	0.91937 0.02983 0.21273 -0.01700
H 	H 	0.71902 0.82948 0.91632 -0.01700
H 	H 	0.83807 0.21273 0.91937 -0.01700
H 	H 	0.95818 0.14474 0.06864 0.02900
H 	H 	0.83807 0.02983 0.91937 -0.01800
H 	H 	0.53518 0.91632 0.71902 -0.01700
H 	H 	0.83807 0.91937 0.02983 -0.01800
H 	H 	0.53518 0.71902 0.82948 -0.01700
H 	H 	0.68021 0.92595 0.60317 0.02800
H 	H 	0.91937 0.21273 0.83807 -0.01700
H 	H 	0.79067 0.60317 0.92595 0.02800
H 	H 	0.79067 0.92595 0.68021 0.02800
H 	H 	0.95818 0.14474 0.82844 0.02800
H 	H 	0.92595 0.60317 0.68021 0.02800
H 	H 	0.53518 0.91632 0.82948 -0.01700
H 	H 	0.71902 0.91632 0.53518 -0.01700
H 	H 	0.82948 0.53518 0.71902 -0.01700
H 	H 	0.21273 0.83807 0.91937 -0.01700
H 	H 	0.91632 0.82948 0.53518 -0.01700
H 	H 	0.95818 0.82844 0.06864 0.02900
H 	H 	0.68021 0.92595 0.79067 0.02800
H 	H 	0.60317 0.92595 0.68021 0.02800
H 	H 	0.82948 0.91632 0.71902 -0.01700
H 	H 	0.92595 0.79067 0.60317 0.02800
H 	H 	0.95818 0.06864 0.82844 0.02900
H 	H 	0.02983 0.91937 0.21273 -0.01700
H 	H 	0.82844 0.06864 0.14474 0.02800
H 	H 	0.79067 0.60317 0.68021 0.02800
H 	H 	0.82844 0.95818 0.14474 0.02800
H 	H 	0.06864 0.82844 0.95818 0.02900
H 	H 	0.79067 0.92595 0.60317 0.02800
H 	H 	0.83807 0.02983 0.21273 -0.01700
H 	H 	0.71902 0.91632 0.82948 -0.01700
H 	H 	0.79067 0.68021 0.60317 0.02800
H 	H 	0.91937 0.83807 0.21273 -0.01700
H 	H 	0.14474 0.06864 0.95818 0.02900
H 	H 	0.91937 0.21273 0.02983 -0.01700
H 	H 	0.02983 0.83807 0.21273 -0.01700
H 	H 	0.02983 0.91937 0.83807 -0.01800
H 	H 	0.60317 0.79067 0.68021 0.02800
H 	H 	0.92595 0.60317 0.79067 0.02800
H 	H 	0.91937 0.02983 0.83807 -0.01800
H 	H 	0.21273 0.91937 0.83807 -0.01700
H 	H 	0.06864 0.14474 0.82844 0.02800
H 	H 	0.06864 0.82844 0.14474 0.02800
H 	H 	0.82948 0.71902 0.53518 -0.01700
H 	H 	0.79067 0.68021 0.92595 0.02800
H 	H 	0.06864 0.95818 0.14474 0.02900
H 	H 	0.71902 0.82948 0.53518 -0.01700
H 	H 	0.53518 0.82948 0.71902 -0.01700
H 	H 	0.82948 0.53518 0.91632 -0.01700
H 	H 	0.83807 0.91937 0.21273 -0.01700
H 	H 	0.68021 0.60317 0.92595 0.02800
H 	H 	0.06864 0.14474 0.95818 0.02900
H 	H 	0.60317 0.79067 0.92595 0.02800
H 	H 	0.82844 0.14474 0.06864 0.02800
H 	H 	0.82948 0.71902 0.91632 -0.01700
H 	H 	0.14474 0.82844 0.95818 0.02800
H 	H 	0.60317 0.68021 0.79067 0.02800
H 	H 	0.02983 0.21273 0.83807 -0.01700
H 	H 	0.21273 0.02983 0.91937 -0.01700
H 	H 	0.82844 0.14474 0.95818 0.02800
C 	C 	0.91882 0.79680 0.73494 0.04000
C 	C 	0.82794 0.01650 0.01650 0.00200
C 	C 	0.97139 0.83899 0.21823 -0.19800
C 	C 	0.82794 0.13906 0.01650 -0.00300
C 	C 	0.94676 0.94676 0.84862 0.53200
C 	C 	0.71267 0.92429 0.58853 -0.08200
C 	C 	0.91540 0.52968 0.77746 -0.19600
C 	C 	0.97434 0.03618 0.15938 -0.08700
C 	C 	0.70965 0.92899 0.65171 0.11300
C 	C 	0.73235 0.60885 0.92645 -0.00400
C 	C 	0.54944 0.73494 0.91882 0.04000
C 	C 	0.83557 0.95205 0.01391 0.04700
C 	C 	0.49005 0.80209 0.80209 0.53000
C 	C 	0.97434 0.03618 0.83010 -0.08800
C 	C 	0.79680 0.54944 0.73494 0.04000
C 	C 	0.01391 0.83557 0.19847 0.04400
C 	C 	0.82540 0.03920 0.09620 0.12300
C 	C 	0.19847 0.01391 0.83557 0.04400
C 	C 	0.77746 0.77746 0.91540 -0.19600
C 	C 	0.58853 0.92429 0.77451 -0.08200
C 	C 	0.01391 0.19847 0.83557 0.04400
C 	C 	0.97139 0.21823 0.83899 -0.19800
C 	C 	0.19847 0.95205 0.83557 0.04100
C 	C 	0.92429 0.71267 0.58853 -0.08200
C 	C 	0.97139 0.83899 0.97139 -0.20300
C 	C 	0.91882 0.73494 0.54944 0.04000
C 	C 	0.71267 0.77451 0.92429 -0.08200
C 	C 	0.15938 0.97434 0.83010 -0.08500
C 	C 	0.71267 0.77451 0.58853 -0.08200
C 	C 	0.73235 0.73235 0.92645 -0.00400
C 	C 	0.82794 0.01650 0.13906 -0.00300
C 	C 	0.19847 0.83557 0.01391 0.04400
C 	C 	0.73494 0.79680 0.54944 0.04000
C 	C 	0.95205 0.83557 0.19847 0.04100
C 	C 	0.03920 0.09620 0.82540 0.12300
C 	C 	0.65171 0.70965 0.70965 0.11300
C 	C 	0.03618 0.83010 0.15938 -0.08200
C 	C 	0.97434 0.83010 0.15938 -0.08500
C 	C 	0.80209 0.80209 0.49005 0.53000
C 	C 	0.73494 0.91882 0.79680 0.04000
C 	C 	0.91882 0.73494 0.79680 0.04000
C 	C 	0.90577 0.80209 0.49005 0.53000
C 	C 	0.73494 0.54944 0.79680 0.04000
C 	C 	0.25786 0.94676 0.94676 0.53200
C 	C 	0.58853 0.77451 0.71267 -0.08200
C 	C 	0.82540 0.09620 0.03920 0.12300
C 	C 	0.83010 0.15938 0.97434 -0.08500
C 	C 	0.13906 0.01650 0.01650 0.00100
C 	C 	0.21823 0.97139 0.83899 -0.19800
C 	C 	0.54944 0.79680 0.91882 0.04000
C 	C 	0.15938 0.83010 0.03618 -0.08200
C 	C 	0.77451 0.58853 0.92429 -0.08200
C 	C 	0.97434 0.15938 0.83010 -0.08500
C 	C 	0.03618 0.15938 0.97434 -0.08700
C 	C 	0.60885 0.73235 0.92645 -0.00400
C 	C 	0.52968 0.77746 0.91540 -0.19600
C 	C 	0.97434 0.15938 0.03618 -0.08700
C 	C 	0.52968 0.91540 0.77746 -0.19600
C 	C 	0.92429 0.58853 0.77451 -0.08200
C 	C 	0.01650 0.13906 0.01650 0.00100
C 	C 	0.82540 0.03920 0.03920 0.12200
C 	C 	0.95205 0.01391 0.19847 0.04600
C 	C 	0.21823 0.97139 0.97139 -0.20200
C 	C 	0.79680 0.73494 0.91882 0.04000
C 	C 	0.49005 0.80209 0.90577 0.53000
C 	C 	0.80209 0.90577 0.49005 0.53000
C 	C 	0.83557 0.01391 0.95205 0.04700
C 	C 	0.58853 0.92429 0.71267 -0.08200
C 	C 	0.54944 0.91882 0.79680 0.04000
C 	C 	0.83557 0.01391 0.19847 0.04400
C 	C 	0.92645 0.60885 0.73235 -0.00400
C 	C 	0.83899 0.97139 0.21823 -0.19800
C 	C 	0.77451 0.71267 0.92429 -0.08200
C 	C 	0.15938 0.03618 0.83010 -0.08200
C 	C 	0.94676 0.84862 0.25786 0.53100
C 	C 	0.80209 0.49005 0.80209 0.53000
C 	C 	0.80209 0.80209 0.90577 0.53000
C 	C 	0.03618 0.83010 0.97434 -0.08800
C 	C 	0.79680 0.91882 0.54944 0.04000
C 	C 	0.54944 0.91882 0.73494 0.04000
C 	C 	0.83899 0.97139 0.97139 -0.20300
C 	C 	0.01650 0.01650 0.13906 0.00100
C 	C 	0.83010 0.03618 0.15938 -0.08200
C 	C 	0.73235 0.92645 0.73235 -0.00400
C 	C 	0.79680 0.54944 0.91882 0.04000
C 	C 	0.01391 0.83557 0.95205 0.04700
C 	C 	0.65171 0.70965 0.92899 0.11300
C 	C 	0.92429 0.58853 0.71267 -0.08200
C 	C 	0.70965 0.65171 0.70965 0.11300
C 	C 	0.79680 0.91882 0.73494 0.04000
C 	C 	0.71267 0.58853 0.77451 -0.08200
C 	C 	0.97139 0.97139 0.21823 -0.20200
C 	C 	0.60885 0.73235 0.73235 -0.00400
C 	C 	0.01650 0.82794 0.01650 0.00200
C 	C 	0.77746 0.52968 0.77746 -0.19600
C 	C 	0.01650 0.01650 0.82794 0.00200
C 	C 	0.70965 0.65171 0.92899 0.11300
C 	C 	0.83010 0.97434 0.03618 -0.08800
C 	C 	0.09620 0.03920 0.82540 0.12300
C 	C 	0.84862 0.94676 0.94676 0.53200
C 	C 	0.77451 0.58853 0.71267 -0.08200
C 	C 	0.90577 0.49005 0.80209 0.53000
C 	C 	0.13906 0.01650 0.82794 -0.00300
C 	C 	0.77451 0.92429 0.71267 -0.08200
C 	C 	0.19847 0.01391 0.95205 0.04600
C 	C 	0.92899 0.70965 0.65171 0.11300
C 	C 	0.84862 0.94676 0.25786 0.53100
C 	C 	0.65171 0.92899 0.70965 0.11300
C 	C 	0.91540 0.77746 0.77746 -0.19600
C 	C 	0.80209 0.90577 0.80209 0.53000
C 	C 	0.73235 0.92645 0.60885 -0.00400
C 	C 	0.58853 0.71267 0.92429 -0.08200
C 	C 	0.01391 0.95205 0.19847 0.04600
C 	C 	0.01650 0.13906 0.82794 -0.00300
C 	C 	0.03920 0.03920 0.82540 0.12200
C 	C 	0.25786 0.84862 0.94676 0.53100
C 	C 	0.77451 0.92429 0.58853 -0.08200
C 	C 	0.92899 0.70965 0.70965 0.11300
C 	C 	0.83557 0.95205 0.19847 0.04100
C 	C 	0.01391 0.19847 0.95205 0.04600
C 	C 	0.73494 0.91882 0.54944 0.04000
C 	C 	0.92899 0.65171 0.70965 0.11300
C 	C 	0.49005 0.90577 0.80209 0.53000
C 	C 	0.83557 0.19847 0.95205 0.04100
C 	C 	0.60885 0.92645 0.73235 -0.00400
C 	C 	0.03618 0.15938 0.83010 -0.08200
C 	C 	0.19847 0.83557 0.95205 0.04100
C 	C 	0.83899 0.21823 0.97139 -0.19800
C 	C 	0.94676 0.84862 0.94676 0.53200
C 	C 	0.92645 0.73235 0.60885 -0.00400
C 	C 	0.09620 0.03920 0.03920 0.12200
C 	C 	0.95205 0.83557 0.01391 0.04700
C 	C 	0.77451 0.71267 0.58853 -0.08200
C 	C 	0.03618 0.97434 0.15938 -0.08700
C 	C 	0.03920 0.82540 0.09620 0.12300
C 	C 	0.15938 0.97434 0.03618 -0.08700
C 	C 	0.80209 0.49005 0.90577 0.53000
C 	C 	0.71267 0.92429 0.77451 -0.08200
C 	C 	0.91882 0.79680 0.54944 0.04000
C 	C 	0.70965 0.92899 0.70965 0.11300
C 	C 	0.95205 0.19847 0.83557 0.04100
C 	C 	0.97434 0.83010 0.03618 -0.08800
C 	C 	0.97139 0.21823 0.97139 -0.20200
C 	C 	0.54944 0.73494 0.79680 0.04000
C 	C 	0.90577 0.80209 0.80209 0.53000
C 	C 	0.92429 0.71267 0.77451 -0.08200
C 	C 	0.94676 0.94676 0.25786 0.53200
C 	C 	0.13906 0.82794 0.01650 -0.00300
C 	C 	0.95205 0.01391 0.83557 0.04700
C 	C 	0.25786 0.94676 0.84862 0.53100
C 	C 	0.77746 0.52968 0.91540 -0.19600
C 	C 	0.92645 0.73235 0.73235 -0.00400
C 	C 	0.09620 0.82540 0.03920 0.12300
C 	C 	0.92429 0.77451 0.71267 -0.08200
C 	C 	0.94676 0.25786 0.84862 0.53100
C 	C 	0.73494 0.54944 0.91882 0.04000
C 	C 	0.77746 0.91540 0.77746 -0.19600
C 	C 	0.79680 0.73494 0.54944 0.04000
C 	C 	0.91882 0.54944 0.79680 0.04000
C 	C 	0.15938 0.03618 0.97434 -0.08700
C 	C 	0.83010 0.97434 0.15938 -0.08500
C 	C 	0.84862 0.25786 0.94676 0.53100
C 	C 	0.91882 0.54944 0.73494 0.04000
C 	C 	0.73494 0.79680 0.91882 0.04000
C 	C 	0.94676 0.25786 0.94676 0.53200
C 	C 	0.58853 0.77451 0.92429 -0.08200
C 	C 	0.97139 0.97139 0.83899 -0.20300
C 	C 	0.73235 0.60885 0.73235 -0.00400
C 	C 	0.52968 0.77746 0.77746 -0.19600
C 	C 	0.03920 0.82540 0.03920 0.12200
C 	C 	0.91540 0.77746 0.52968 -0.19600
C 	C 	0.01650 0.82794 0.13906 -0.00300
C 	C 	0.15938 0.83010 0.97434 -0.08500
C 	C 	0.92429 0.77451 0.58853 -0.08200
C 	C 	0.83010 0.15938 0.03618 -0.08200
C 	C 	0.21823 0.83899 0.97139 -0.19800
C 	C 	0.19847 0.95205 0.01391 0.04600
C 	C 	0.03920 0.03920 0.09620 0.12200
C 	C 	0.03618 0.97434 0.83010 -0.08800
C 	C 	0.95205 0.19847 0.01391 0.04600
C 	C 	0.70965 0.70965 0.65171 0.11300
C 	C 	0.71267 0.58853 0.92429 -0.08200
C 	C 	0.83010 0.03618 0.97434 -0.08800
C 	C 	0.83557 0.19847 0.01391 0.04400
C 	C 	0.58853 0.71267 0.77451 -0.08200
C 	C 	0.77746 0.77746 0.52968 -0.19600
C 	C 	0.01391 0.95205 0.83557 0.04700
C 	C 	0.03920 0.09620 0.03920 0.12200
C 	C 	0.54944 0.79680 0.73494 0.04000
C 	C 	0.73235 0.73235 0.60885 -0.00400
C 	C 	0.77746 0.91540 0.52968 -0.19600
C 	C 	0.70965 0.70965 0.92899 0.11300
N 	N 	0.07757 0.82379 0.02107 -0.16400
N 	N 	0.67081 0.72825 0.93013 -0.15900
N 	N 	0.07757 0.82379 0.07757 -0.16500
N 	N 	0.72825 0.67081 0.93013 -0.15900
N 	N 	0.93013 0.67081 0.67081 -0.15900
N 	N 	0.02107 0.07757 0.07757 -0.16400
N 	N 	0.07757 0.07757 0.02107 -0.16400
N 	N 	0.67081 0.67081 0.72825 -0.15900
N 	N 	0.67081 0.72825 0.67081 -0.15900
N 	N 	0.67081 0.93013 0.67081 -0.15900
N 	N 	0.72825 0.93013 0.67081 -0.15900
N 	N 	0.67081 0.93013 0.72825 -0.15900
N 	N 	0.07757 0.07757 0.82379 -0.16500
N 	N 	0.93013 0.72825 0.67081 -0.15900
N 	N 	0.82379 0.07757 0.07757 -0.16500
N 	N 	0.07757 0.02107 0.07757 -0.16400
N 	N 	0.67081 0.67081 0.93013 -0.15900
N 	N 	0.02107 0.07757 0.82379 -0.16400
N 	N 	0.02107 0.82379 0.07757 -0.16400
N 	N 	0.82379 0.02107 0.07757 -0.16400
N 	N 	0.07757 0.02107 0.82379 -0.16400
N 	N 	0.72825 0.67081 0.67081 -0.15900
N 	N 	0.93013 0.67081 0.72825 -0.15900
N 	N 	0.82379 0.07757 0.02107 -0.16400
O 	O 	0.83727 0.83727 0.39777 -1.50500
O 	O 	0.92769 0.83727 0.39777 -1.50500
O 	O 	0.90756 0.27356 0.85318 -0.74500
O 	O 	0.78315 0.47435 0.90121 -0.75500
O 	O 	0.89682 0.89682 0.30954 -1.14900
O 	O 	0.85318 0.96570 0.27356 -0.74600
O 	O 	0.85318 0.90756 0.27356 -0.74500
O 	O 	0.47435 0.78315 0.84129 -0.75500
O 	O 	0.84129 0.90121 0.78315 -0.75600
O 	O 	0.85318 0.27356 0.96570 -0.74600
O 	O 	0.30954 0.89682 0.89682 -1.14900
O 	O 	0.85355 0.43935 0.85355 -1.17300
O 	O 	0.47435 0.84129 0.90121 -0.75600
O 	O 	0.91316 0.35052 0.82316 -1.50900
O 	O 	0.96570 0.27356 0.90756 -0.74600
O 	O 	0.47435 0.90121 0.78315 -0.75500
O 	O 	0.47435 0.78315 0.90121 -0.75500
O 	O 	0.39777 0.83727 0.92769 -1.50500
O 	O 	0.90756 0.27356 0.96570 -0.74600
O 	O 	0.91316 0.82316 0.91316 -1.50900
O 	O 	0.96570 0.90756 0.85318 -0.74600
O 	O 	0.84129 0.47435 0.90121 -0.75600
O 	O 	0.43935 0.85355 0.85355 -1.17300
O 	O 	0.83727 0.92769 0.83727 -1.50500
O 	O 	0.96570 0.27356 0.85318 -0.74600
O 	O 	0.78315 0.90121 0.84129 -0.75600
O 	O 	0.96570 0.85318 0.27356 -0.74600
O 	O 	0.90756 0.96570 0.85318 -0.74600
O 	O 	0.92769 0.39777 0.83727 -1.50500
O 	O 	0.27356 0.96570 0.85318 -0.74600
O 	O 	0.89682 0.89682 0.89682 -1.14900
O 	O 	0.35052 0.82316 0.91316 -1.50900
O 	O 	0.90121 0.84129 0.47435 -0.75600
O 	O 	0.84129 0.90121 0.47435 -0.75600
O 	O 	0.27356 0.85318 0.96570 -0.74600
O 	O 	0.84129 0.78315 0.47435 -0.75500
O 	O 	0.83727 0.92769 0.39777 -1.50500
O 	O 	0.47435 0.84129 0.78315 -0.75500
O 	O 	0.83727 0.83727 0.92769 -1.50500
O 	O 	0.35052 0.91316 0.91316 -1.50900
O 	O 	0.90121 0.84129 0.78315 -0.75600
O 	O 	0.82316 0.91316 0.35052 -1.50900
O 	O 	0.90121 0.78315 0.47435 -0.75500
O 	O 	0.91316 0.35052 0.91316 -1.50900
O 	O 	0.85318 0.96570 0.90756 -0.74600
O 	O 	0.89682 0.30954 0.89682 -1.14900
O 	O 	0.78315 0.84129 0.47435 -0.75500
O 	O 	0.85318 0.27356 0.90756 -0.74500
O 	O 	0.83727 0.39777 0.92769 -1.50500
O 	O 	0.78315 0.84129 0.90121 -0.75600
O 	O 	0.27356 0.85318 0.90756 -0.74500
O 	O 	0.85355 0.85355 0.43935 -1.17300
O 	O 	0.84129 0.47435 0.78315 -0.75500
O 	O 	0.91316 0.91316 0.35052 -1.50900
O 	O 	0.90121 0.78315 0.84129 -0.75600
O 	O 	0.78315 0.47435 0.84129 -0.75500
O 	O 	0.39777 0.83727 0.83727 -1.50500
O 	O 	0.82316 0.35052 0.91316 -1.50900
O 	O 	0.84129 0.78315 0.90121 -0.75600
O 	O 	0.90121 0.47435 0.84129 -0.75600
O 	O 	0.92769 0.83727 0.83727 -1.50500
O 	O 	0.91316 0.91316 0.82316 -1.50900
O 	O 	0.90756 0.85318 0.27356 -0.74500
O 	O 	0.96570 0.90756 0.27356 -0.74600
O 	O 	0.78315 0.90121 0.47435 -0.75500
O 	O 	0.35052 0.91316 0.82316 -1.50900
O 	O 	0.27356 0.96570 0.90756 -0.74600
O 	O 	0.96570 0.85318 0.90756 -0.74600
O 	O 	0.47435 0.90121 0.84129 -0.75600
O 	O 	0.27356 0.90756 0.96570 -0.74600
O 	O 	0.90756 0.96570 0.27356 -0.74600
O 	O 	0.83727 0.39777 0.83727 -1.50500
O 	O 	0.27356 0.90756 0.85318 -0.74500
O 	O 	0.91316 0.82316 0.35052 -1.50900
O 	O 	0.85355 0.85355 0.85355 -1.17300
O 	O 	0.82316 0.91316 0.91316 -1.50900
O 	O 	0.85318 0.90756 0.96570 -0.74600
O 	O 	0.90121 0.47435 0.78315 -0.75500
O 	O 	0.39777 0.92769 0.83727 -1.50500
O 	O 	0.90756 0.85318 0.96570 -0.74600
