data_crystal

_cell_length_a 24.54200
_cell_length_b 12.64100
_cell_length_c 15.44600
_cell_angle_alpha 90.00000
_cell_angle_beta  90.00000
_cell_angle_gamma 90.00000

_symmetry_space_group_name_	'P 1'
_symmetry_space_group_name_H-M	'P 1'

loop_
_symmetry_equiv_pos_as_xyz
  x,y,z

loop_
_atom_site_label
_atom_site_type_symbol
_atom_site_fract_x
_atom_site_fract_y
_atom_site_fract_z
_atom_site_charge
C 	C 	0.62560 0.53540 0.02630 0.05600
H 	H 	0.61280 0.51720 0.97170 0.02500
C 	C 	0.59080 0.57570 0.08650 -0.11300
H 	H 	0.55420 0.58540 0.07320 0.07100
C 	C 	0.61060 0.60220 0.16810 0.04800
H 	H 	0.58710 0.63090 0.20910 0.02900
C 	C 	0.66410 0.58680 0.18890 -0.10300
C 	C 	0.69850 0.54560 0.12630 0.09900
C 	C 	0.75770 0.52420 0.13920 0.08900
C 	C 	0.80060 0.58840 0.11280 -0.09300
C 	C 	0.85290 0.55740 0.13010 0.04000
H 	H 	0.88220 0.59900 0.11230 0.03200
C 	C 	0.86210 0.46240 0.17490 -0.10800
H 	H 	0.89740 0.44240 0.18930 0.06800
C 	C 	0.81960 0.40000 0.19710 0.05800
H 	H 	0.82580 0.33560 0.22440 0.03000
C 	C 	0.68520 0.61800 0.27750 0.33800
C 	C 	0.78800 0.68720 0.06040 0.30500
C 	C 	0.84300 0.52290 0.41120 0.14500
H 	H 	0.81720 0.47660 0.38840 -0.02300
C 	C 	0.89620 0.49030 0.41220 -0.23000
H 	H 	0.90580 0.42520 0.38870 0.11500
C 	C 	0.93490 0.55410 0.44790 0.17200
C 	C 	0.91790 0.65210 0.47860 -0.20800
H 	H 	0.94290 0.69990 0.50110 0.10300
C 	C 	0.86300 0.67720 0.47530 0.11100
H 	H 	0.85180 0.74120 0.49910 -0.00600
C 	C 	0.99360 0.52350 0.45460 -0.18800
H 	H 	0.01620 0.58520 0.44470 0.08700
H 	H 	0.00210 0.47160 0.41040 0.08300
Cd	Cd	0.73548 0.67365 0.43249 1.21800
N 	N 	0.82540 0.61510 0.44010 -0.24700
N 	N 	0.76790 0.43100 0.17980 -0.07800
N 	N 	0.67800 0.52220 0.04570 -0.06900
O 	O 	0.73300 0.59210 0.29640 -0.37500
O 	O 	0.65580 0.66870 0.32650 -0.36000
O 	O 	0.82731 0.73070 0.02050 -0.35900
O 	O 	0.73989 0.71850 0.05510 -0.35300
O 	O 	0.71210 0.49270 0.98430 -0.26400
O 	O 	0.72660 0.37090 0.20370 -0.12800
C 	C 	0.87440 0.96460 0.52630 0.05400
H 	H 	0.88720 0.98280 0.47170 0.02400
C 	C 	0.90920 0.92430 0.58650 -0.11400
H 	H 	0.94580 0.91460 0.57320 0.06900
C 	C 	0.88940 0.89780 0.66810 0.04700
H 	H 	0.91290 0.86910 0.70910 0.02700
C 	C 	0.83590 0.91320 0.68890 -0.10400
C 	C 	0.80150 0.95440 0.62630 0.09800
C 	C 	0.74230 0.97580 0.63920 0.08700
C 	C 	0.69940 0.91160 0.61280 -0.09400
C 	C 	0.64710 0.94260 0.63010 0.03900
H 	H 	0.61780 0.90100 0.61230 0.03100
C 	C 	0.63790 0.03760 0.67490 -0.10900
H 	H 	0.60260 0.05760 0.68930 0.06700
C 	C 	0.68040 0.10000 0.69710 0.05700
H 	H 	0.67420 0.16440 0.72440 0.02900
C 	C 	0.81480 0.88200 0.77750 0.33800
C 	C 	0.71200 0.81280 0.56040 0.30500
C 	C 	0.65700 0.97710 0.91120 0.14300
H 	H 	0.68280 0.02340 0.88840 -0.02200
C 	C 	0.60380 0.00970 0.91220 -0.22800
H 	H 	0.59420 0.07480 0.88870 0.11400
C 	C 	0.56510 0.94590 0.94790 0.17100
C 	C 	0.58210 0.84790 0.97860 -0.20800
H 	H 	0.55710 0.80010 0.00110 0.10400
C 	C 	0.63700 0.82280 0.97530 0.11100
H 	H 	0.64820 0.75880 0.99910 -0.00700
C 	C 	0.50640 0.97650 0.95460 -0.18900
H 	H 	0.48380 0.91480 0.94470 0.08700
H 	H 	0.49790 0.02840 0.91040 0.08400
Cd	Cd	0.76452 0.82635 0.93249 1.21800
N 	N 	0.67460 0.88490 0.94010 -0.24700
N 	N 	0.73210 0.06900 0.67980 -0.07800
N 	N 	0.82200 0.97780 0.54570 -0.06900
O 	O 	0.76700 0.90790 0.79640 -0.37500
O 	O 	0.84420 0.83130 0.82650 -0.36000
O 	O 	0.67269 0.76930 0.52050 -0.35900
O 	O 	0.76011 0.78150 0.55510 -0.35300
O 	O 	0.78790 0.00730 0.48430 -0.26400
O 	O 	0.77340 0.12910 0.70370 -0.12800
C 	C 	0.37440 0.53540 0.47370 0.05400
H 	H 	0.38720 0.51720 0.52830 0.02400
C 	C 	0.40920 0.57570 0.41350 -0.11400
H 	H 	0.44580 0.58540 0.42680 0.06900
C 	C 	0.38940 0.60220 0.33190 0.04700
H 	H 	0.41290 0.63090 0.29090 0.02800
C 	C 	0.33590 0.58680 0.31110 -0.10400
C 	C 	0.30150 0.54560 0.37370 0.09800
C 	C 	0.24230 0.52420 0.36080 0.08800
C 	C 	0.19940 0.58840 0.38720 -0.09400
C 	C 	0.14710 0.55740 0.36990 0.03900
H 	H 	0.11780 0.59900 0.38770 0.03100
C 	C 	0.13790 0.46240 0.32510 -0.10900
H 	H 	0.10260 0.44240 0.31070 0.06700
C 	C 	0.18040 0.40000 0.30290 0.05700
H 	H 	0.17420 0.33560 0.27560 0.02900
C 	C 	0.31480 0.61800 0.22250 0.33800
C 	C 	0.21200 0.68720 0.43960 0.30500
C 	C 	0.15700 0.52290 0.08880 0.14500
H 	H 	0.18280 0.47660 0.11160 -0.02300
C 	C 	0.10380 0.49030 0.08780 -0.23100
H 	H 	0.09420 0.42520 0.11130 0.11500
C 	C 	0.06510 0.55410 0.05210 0.17300
C 	C 	0.08210 0.65210 0.02140 -0.21000
H 	H 	0.05710 0.69990 0.99890 0.10400
C 	C 	0.13700 0.67720 0.02470 0.11200
H 	H 	0.14820 0.74120 0.00090 -0.00700
C 	C 	0.00640 0.52350 0.04540 -0.19100
H 	H 	0.98380 0.58520 0.05530 0.08800
H 	H 	0.99790 0.47160 0.08960 0.08500
Cd	Cd	0.26452 0.67365 0.06751 1.21800
N 	N 	0.17460 0.61510 0.05990 -0.24800
N 	N 	0.23210 0.43100 0.32020 -0.07800
N 	N 	0.32200 0.52220 0.45430 -0.06900
O 	O 	0.26700 0.59210 0.20360 -0.37500
O 	O 	0.34420 0.66870 0.17350 -0.36000
O 	O 	0.17269 0.73070 0.47950 -0.35900
O 	O 	0.26011 0.71850 0.44490 -0.35300
O 	O 	0.28790 0.49270 0.51570 -0.26400
O 	O 	0.27340 0.37090 0.29630 -0.12800
C 	C 	0.12560 0.96460 0.97370 0.05400
H 	H 	0.11280 0.98280 0.02830 0.02400
C 	C 	0.09080 0.92430 0.91350 -0.11400
H 	H 	0.05420 0.91460 0.92680 0.07000
C 	C 	0.11060 0.89780 0.83190 0.04700
H 	H 	0.08710 0.86910 0.79090 0.02800
C 	C 	0.16410 0.91320 0.81110 -0.10400
C 	C 	0.19850 0.95440 0.87370 0.09800
C 	C 	0.25770 0.97580 0.86080 0.08700
C 	C 	0.30060 0.91160 0.88720 -0.09400
C 	C 	0.35290 0.94260 0.86990 0.03800
H 	H 	0.38220 0.90100 0.88770 0.03100
C 	C 	0.36210 0.03760 0.82510 -0.10800
H 	H 	0.39740 0.05760 0.81070 0.06700
C 	C 	0.31960 0.10000 0.80290 0.05700
H 	H 	0.32580 0.16440 0.77560 0.02900
C 	C 	0.18520 0.88200 0.72250 0.33800
C 	C 	0.28800 0.81280 0.93960 0.30500
C 	C 	0.34300 0.97710 0.58880 0.14400
H 	H 	0.31720 0.02340 0.61160 -0.02200
C 	C 	0.39620 0.00970 0.58780 -0.23000
H 	H 	0.40580 0.07480 0.61130 0.11500
C 	C 	0.43490 0.94590 0.55210 0.17200
C 	C 	0.41790 0.84790 0.52140 -0.20800
H 	H 	0.44290 0.80010 0.49890 0.10300
C 	C 	0.36300 0.82280 0.52470 0.11100
H 	H 	0.35180 0.75880 0.50090 -0.00600
C 	C 	0.49360 0.97650 0.54540 -0.18800
H 	H 	0.51620 0.91480 0.55530 0.08700
H 	H 	0.50210 0.02840 0.58960 0.08300
Cd	Cd	0.23548 0.82635 0.56751 1.21800
N 	N 	0.32540 0.88490 0.55990 -0.24700
N 	N 	0.26790 0.06900 0.82020 -0.07800
N 	N 	0.17800 0.97780 0.95430 -0.06900
O 	O 	0.23300 0.90790 0.70360 -0.37500
O 	O 	0.15580 0.83130 0.67350 -0.36000
O 	O 	0.32731 0.76930 0.97950 -0.35900
O 	O 	0.23989 0.78150 0.94490 -0.35300
O 	O 	0.21210 0.00730 0.01570 -0.26500
O 	O 	0.22660 0.12910 0.79630 -0.12800
C 	C 	0.37440 0.46460 0.97370 0.05500
H 	H 	0.38720 0.48280 0.02830 0.02400
C 	C 	0.40920 0.42430 0.91350 -0.11400
H 	H 	0.44580 0.41460 0.92680 0.07000
C 	C 	0.38940 0.39780 0.83190 0.04700
H 	H 	0.41290 0.36910 0.79090 0.02800
C 	C 	0.33590 0.41320 0.81110 -0.10400
C 	C 	0.30150 0.45440 0.87370 0.09800
C 	C 	0.24230 0.47580 0.86080 0.08800
C 	C 	0.19940 0.41160 0.88720 -0.09400
C 	C 	0.14710 0.44260 0.86990 0.03900
H 	H 	0.11780 0.40100 0.88770 0.03100
C 	C 	0.13790 0.53760 0.82510 -0.10900
H 	H 	0.10260 0.55760 0.81070 0.06700
C 	C 	0.18040 0.60000 0.80290 0.05700
H 	H 	0.17420 0.66440 0.77560 0.02900
C 	C 	0.31480 0.38200 0.72250 0.33800
C 	C 	0.21200 0.31280 0.93960 0.30500
C 	C 	0.15700 0.47710 0.58880 0.14500
H 	H 	0.18280 0.52340 0.61160 -0.02300
C 	C 	0.10380 0.50970 0.58780 -0.23000
H 	H 	0.09420 0.57480 0.61130 0.11500
C 	C 	0.06510 0.44590 0.55210 0.17200
C 	C 	0.08210 0.34790 0.52140 -0.20800
H 	H 	0.05710 0.30010 0.49890 0.10300
C 	C 	0.13700 0.32280 0.52470 0.11100
H 	H 	0.14820 0.25880 0.50090 -0.00600
C 	C 	0.00640 0.47650 0.54540 -0.18800
H 	H 	0.98380 0.41480 0.55530 0.08700
H 	H 	0.99790 0.52840 0.58960 0.08300
Cd	Cd	0.26452 0.32635 0.56751 1.21800
N 	N 	0.17460 0.38490 0.55990 -0.24700
N 	N 	0.23210 0.56900 0.82020 -0.07800
N 	N 	0.32200 0.47780 0.95430 -0.06900
O 	O 	0.26700 0.40790 0.70360 -0.37500
O 	O 	0.34420 0.33130 0.67350 -0.36000
O 	O 	0.17269 0.26930 0.97950 -0.35900
O 	O 	0.26011 0.28150 0.94490 -0.35300
O 	O 	0.28790 0.50730 0.01570 -0.26400
O 	O 	0.27340 0.62910 0.79630 -0.12800
C 	C 	0.12560 0.03540 0.47370 0.05400
H 	H 	0.11280 0.01720 0.52830 0.02400
C 	C 	0.09080 0.07570 0.41350 -0.11400
H 	H 	0.05420 0.08540 0.42680 0.06900
C 	C 	0.11060 0.10220 0.33190 0.04700
H 	H 	0.08710 0.13090 0.29090 0.02700
C 	C 	0.16410 0.08680 0.31110 -0.10400
C 	C 	0.19850 0.04560 0.37370 0.09800
C 	C 	0.25770 0.02420 0.36080 0.08700
C 	C 	0.30060 0.08840 0.38720 -0.09400
C 	C 	0.35290 0.05740 0.36990 0.03900
H 	H 	0.38220 0.09900 0.38770 0.03100
C 	C 	0.36210 0.96240 0.32510 -0.10900
H 	H 	0.39740 0.94240 0.31070 0.06700
C 	C 	0.31960 0.90000 0.30290 0.05700
H 	H 	0.32580 0.83560 0.27560 0.02900
C 	C 	0.18520 0.11800 0.22250 0.33800
C 	C 	0.28800 0.18720 0.43960 0.30500
C 	C 	0.34300 0.02290 0.08880 0.14300
H 	H 	0.31720 0.97660 0.11160 -0.02200
C 	C 	0.39620 0.99030 0.08780 -0.22800
H 	H 	0.40580 0.92520 0.11130 0.11400
C 	C 	0.43490 0.05410 0.05210 0.17100
C 	C 	0.41790 0.15210 0.02140 -0.20800
H 	H 	0.44290 0.19990 0.99890 0.10400
C 	C 	0.36300 0.17720 0.02470 0.11100
H 	H 	0.35180 0.24120 0.00090 -0.00700
C 	C 	0.49360 0.02350 0.04540 -0.18900
H 	H 	0.51620 0.08520 0.05530 0.08700
H 	H 	0.50210 0.97160 0.08960 0.08400
Cd	Cd	0.23548 0.17365 0.06751 1.21800
N 	N 	0.32540 0.11510 0.05990 -0.24700
N 	N 	0.26790 0.93100 0.32020 -0.07800
N 	N 	0.17800 0.02220 0.45430 -0.06900
O 	O 	0.23300 0.09210 0.20360 -0.37500
O 	O 	0.15580 0.16870 0.17350 -0.36000
O 	O 	0.32731 0.23070 0.47950 -0.35900
O 	O 	0.23989 0.21850 0.44490 -0.35300
O 	O 	0.21210 0.99270 0.51570 -0.26400
O 	O 	0.22660 0.87090 0.29630 -0.12800
C 	C 	0.62560 0.46460 0.52630 0.05400
H 	H 	0.61280 0.48280 0.47170 0.02400
C 	C 	0.59080 0.42430 0.58650 -0.11400
H 	H 	0.55420 0.41460 0.57320 0.06900
C 	C 	0.61060 0.39780 0.66810 0.04700
H 	H 	0.58710 0.36910 0.70910 0.02800
C 	C 	0.66410 0.41320 0.68890 -0.10400
C 	C 	0.69850 0.45440 0.62630 0.09800
C 	C 	0.75770 0.47580 0.63920 0.08800
C 	C 	0.80060 0.41160 0.61280 -0.09400
C 	C 	0.85290 0.44260 0.63010 0.03900
H 	H 	0.88220 0.40100 0.61230 0.03100
C 	C 	0.86210 0.53760 0.67490 -0.10900
H 	H 	0.89740 0.55760 0.68930 0.06700
C 	C 	0.81960 0.60000 0.69710 0.05700
H 	H 	0.82580 0.66440 0.72440 0.02900
C 	C 	0.68520 0.38200 0.77750 0.33800
C 	C 	0.78800 0.31280 0.56040 0.30500
C 	C 	0.84300 0.47710 0.91120 0.14500
H 	H 	0.81720 0.52340 0.88840 -0.02300
C 	C 	0.89620 0.50970 0.91220 -0.23100
H 	H 	0.90580 0.57480 0.88870 0.11500
C 	C 	0.93490 0.44590 0.94790 0.17300
C 	C 	0.91790 0.34790 0.97860 -0.21000
H 	H 	0.94290 0.30010 0.00110 0.10400
C 	C 	0.86300 0.32280 0.97530 0.11200
H 	H 	0.85180 0.25880 0.99910 -0.00700
C 	C 	0.99360 0.47650 0.95460 -0.19100
H 	H 	0.01620 0.41480 0.94470 0.08800
H 	H 	0.00210 0.52840 0.91040 0.08500
Cd	Cd	0.73548 0.32635 0.93249 1.21800
N 	N 	0.82540 0.38490 0.94010 -0.24800
N 	N 	0.76790 0.56900 0.67980 -0.07800
N 	N 	0.67800 0.47780 0.54570 -0.06900
O 	O 	0.73300 0.40790 0.79640 -0.37500
O 	O 	0.65580 0.33130 0.82650 -0.36000
O 	O 	0.82731 0.26930 0.52050 -0.35900
O 	O 	0.73989 0.28150 0.55510 -0.35300
O 	O 	0.71210 0.50730 0.48430 -0.26400
O 	O 	0.72660 0.62910 0.70370 -0.12800
C 	C 	0.87440 0.03540 0.02630 0.05400
H 	H 	0.88720 0.01720 0.97170 0.02400
C 	C 	0.90920 0.07570 0.08650 -0.11400
H 	H 	0.94580 0.08540 0.07320 0.07000
C 	C 	0.88940 0.10220 0.16810 0.04700
H 	H 	0.91290 0.13090 0.20910 0.02800
C 	C 	0.83590 0.08680 0.18890 -0.10400
C 	C 	0.80150 0.04560 0.12630 0.09800
C 	C 	0.74230 0.02420 0.13920 0.08700
C 	C 	0.69940 0.08840 0.11280 -0.09400
C 	C 	0.64710 0.05740 0.13010 0.03800
H 	H 	0.61780 0.09900 0.11230 0.03100
C 	C 	0.63790 0.96240 0.17490 -0.10800
H 	H 	0.60260 0.94240 0.18930 0.06700
C 	C 	0.68040 0.90000 0.19710 0.05700
H 	H 	0.67420 0.83560 0.22440 0.02900
C 	C 	0.81480 0.11800 0.27750 0.33800
C 	C 	0.71200 0.18720 0.06040 0.30500
C 	C 	0.65700 0.02290 0.41120 0.14400
H 	H 	0.68280 0.97660 0.38840 -0.02200
C 	C 	0.60380 0.99030 0.41220 -0.23000
H 	H 	0.59420 0.92520 0.38870 0.11500
C 	C 	0.56510 0.05410 0.44790 0.17200
C 	C 	0.58210 0.15210 0.47860 -0.20800
H 	H 	0.55710 0.19990 0.50110 0.10300
C 	C 	0.63700 0.17720 0.47530 0.11100
H 	H 	0.64820 0.24120 0.49910 -0.00600
C 	C 	0.50640 0.02350 0.45460 -0.18800
H 	H 	0.48380 0.08520 0.44470 0.08700
H 	H 	0.49790 0.97160 0.41040 0.08300
Cd	Cd	0.76452 0.17365 0.43249 1.21800
N 	N 	0.67460 0.11510 0.44010 -0.24700
N 	N 	0.73210 0.93100 0.17980 -0.07800
N 	N 	0.82200 0.02220 0.04570 -0.06900
O 	O 	0.76700 0.09210 0.29640 -0.37500
O 	O 	0.84420 0.16870 0.32650 -0.36000
O 	O 	0.67269 0.23070 0.02050 -0.35900
O 	O 	0.76011 0.21850 0.05510 -0.35300
O 	O 	0.78790 0.99270 0.98430 -0.26500
O 	O 	0.77340 0.87090 0.20370 -0.12800
