data_crystal

_cell_length_a 24.64100
_cell_length_b 12.46800
_cell_length_c 15.42700
_cell_angle_alpha 90.00000
_cell_angle_beta  90.00000
_cell_angle_gamma 90.00000

_symmetry_space_group_name_	'P 1'
_symmetry_space_group_name_H-M	'P 1'

loop_
_symmetry_equiv_pos_as_xyz
  x,y,z

loop_
_atom_site_label
_atom_site_type_symbol
_atom_site_fract_x
_atom_site_fract_y
_atom_site_fract_z
_atom_site_charge
Cd	Cd	0.23602 0.82527 0.57756 1.21900
N 	N 	0.23210 0.43140 0.32500 -0.08000
N 	N 	0.32080 0.51990 0.46250 -0.07200
N 	N 	0.32532 0.88350 0.57270 -0.23800
O 	O 	0.17381 0.73510 0.48380 -0.36300
O 	O 	0.26063 0.72050 0.45320 -0.35900
O 	O 	0.34820 0.66640 0.18210 -0.35200
O 	O 	0.27020 0.59790 0.21130 -0.40000
O 	O 	0.27370 0.36810 0.30480 -0.12800
O 	O 	0.28452 0.49280 0.52420 -0.26600
C 	C 	0.18070 0.40170 0.30680 0.06000
H 	H 	0.17410 0.33590 0.28060 0.02700
C 	C 	0.13910 0.46700 0.32660 -0.10900
H 	H 	0.10400 0.44820 0.31010 0.07100
C 	C 	0.14790 0.56410 0.37210 0.04000
H 	H 	0.11890 0.60760 0.38830 0.03600
C 	C 	0.20030 0.59220 0.39170 -0.09700
C 	C 	0.24280 0.52480 0.36650 0.09000
C 	C 	0.30130 0.54520 0.38230 0.10000
C 	C 	0.33790 0.58380 0.32050 -0.10400
C 	C 	0.39190 0.59540 0.34270 0.04600
H 	H 	0.41630 0.62310 0.30250 0.02800
C 	C 	0.40990 0.56590 0.42440 -0.11000
H 	H 	0.44650 0.57120 0.43870 0.07000
C 	C 	0.37290 0.52890 0.48410 0.05300
H 	H 	0.38430 0.51010 0.53950 0.02600
C 	C 	0.21280 0.69140 0.44490 0.32000
C 	C 	0.31700 0.61720 0.23080 0.35700
C 	C 	0.36340 0.82390 0.53420 0.09700
H 	H 	0.35450 0.75500 0.51580 -0.00100
C 	C 	0.41570 0.86110 0.52080 -0.17600
H 	H 	0.44150 0.81700 0.49510 0.09400
C 	C 	0.42930 0.96440 0.54600 0.13300
C 	C 	0.39060 0.02450 0.58530 -0.19600
H 	H 	0.39840 0.09380 0.60360 0.10600
C 	C 	0.34000 0.98210 0.59780 0.12000
H 	H 	0.31410 0.02450 0.62540 -0.01600
C 	C 	0.48340 0.01600 0.52520 -0.08500
H 	H 	0.49170 0.07900 0.55460 0.06100
Cd	Cd	0.26398 0.67473 0.07756 1.22000
N 	N 	0.26790 0.06860 0.82500 -0.07900
N 	N 	0.17920 0.98010 0.96250 -0.07200
N 	N 	0.17468 0.61650 0.07270 -0.23900
O 	O 	0.32619 0.76490 0.98380 -0.36300
O 	O 	0.23937 0.77950 0.95320 -0.35900
O 	O 	0.15180 0.83360 0.68210 -0.35200
O 	O 	0.22980 0.90210 0.71130 -0.40000
O 	O 	0.22630 0.13190 0.80480 -0.12800
O 	O 	0.21548 0.00720 0.02420 -0.26800
C 	C 	0.31930 0.09830 0.80680 0.05900
H 	H 	0.32590 0.16410 0.78060 0.02700
C 	C 	0.36090 0.03300 0.82660 -0.10700
H 	H 	0.39600 0.05180 0.81010 0.07000
C 	C 	0.35210 0.93590 0.87210 0.03800
H 	H 	0.38110 0.89240 0.88830 0.03600
C 	C 	0.29970 0.90780 0.89170 -0.09600
C 	C 	0.25720 0.97520 0.86650 0.09000
C 	C 	0.19870 0.95480 0.88230 0.10000
C 	C 	0.16210 0.91620 0.82050 -0.10500
C 	C 	0.10810 0.90460 0.84270 0.04600
H 	H 	0.08370 0.87690 0.80250 0.02800
C 	C 	0.09010 0.93410 0.92440 -0.11100
H 	H 	0.05350 0.92880 0.93870 0.07000
C 	C 	0.12710 0.97110 0.98410 0.05300
H 	H 	0.11570 0.98990 0.03950 0.02600
C 	C 	0.28720 0.80860 0.94490 0.32000
C 	C 	0.18300 0.88280 0.73080 0.35700
C 	C 	0.13660 0.67610 0.03420 0.09800
H 	H 	0.14550 0.74500 0.01580 -0.00200
C 	C 	0.08430 0.63890 0.02080 -0.17900
H 	H 	0.05850 0.68300 0.99510 0.09600
C 	C 	0.07070 0.53560 0.04600 0.13400
C 	C 	0.10940 0.47550 0.08530 -0.19800
H 	H 	0.10160 0.40620 0.10360 0.10700
C 	C 	0.16000 0.51790 0.09780 0.12200
H 	H 	0.18590 0.47550 0.12540 -0.01700
C 	C 	0.01660 0.48400 0.02520 -0.08600
H 	H 	0.00830 0.42100 0.05460 0.06000
Cd	Cd	0.76398 0.82527 0.92244 1.22000
N 	N 	0.76790 0.43140 0.17500 -0.07900
N 	N 	0.67920 0.51990 0.03750 -0.07200
N 	N 	0.67468 0.88350 0.92730 -0.23800
O 	O 	0.82619 0.73510 0.01620 -0.36200
O 	O 	0.73937 0.72050 0.04680 -0.35800
O 	O 	0.65180 0.66640 0.31790 -0.35200
O 	O 	0.72980 0.59790 0.28870 -0.40000
O 	O 	0.72630 0.36810 0.19520 -0.12800
O 	O 	0.71548 0.49280 0.97580 -0.26700
C 	C 	0.81930 0.40170 0.19320 0.06000
H 	H 	0.82590 0.33590 0.21940 0.02700
C 	C 	0.86090 0.46700 0.17340 -0.10900
H 	H 	0.89600 0.44820 0.18990 0.07100
C 	C 	0.85210 0.56410 0.12790 0.04000
H 	H 	0.88110 0.60760 0.11170 0.03600
C 	C 	0.79970 0.59220 0.10830 -0.09700
C 	C 	0.75720 0.52480 0.13350 0.09000
C 	C 	0.69870 0.54520 0.11770 0.10000
C 	C 	0.66210 0.58380 0.17950 -0.10500
C 	C 	0.60810 0.59540 0.15730 0.04600
H 	H 	0.58370 0.62310 0.19750 0.02800
C 	C 	0.59010 0.56590 0.07560 -0.11100
H 	H 	0.55350 0.57120 0.06130 0.07000
C 	C 	0.62710 0.52890 0.01590 0.05400
H 	H 	0.61570 0.51010 0.96050 0.02500
C 	C 	0.78720 0.69140 0.05510 0.32000
C 	C 	0.68300 0.61720 0.26920 0.35700
C 	C 	0.63660 0.82390 0.96580 0.09700
H 	H 	0.64550 0.75500 0.98420 -0.00200
C 	C 	0.58430 0.86110 0.97920 -0.17700
H 	H 	0.55850 0.81700 0.00490 0.09500
C 	C 	0.57070 0.96440 0.95400 0.13000
C 	C 	0.60940 0.02450 0.91470 -0.19200
H 	H 	0.60160 0.09380 0.89640 0.10500
C 	C 	0.66000 0.98210 0.90220 0.11700
H 	H 	0.68590 0.02450 0.87460 -0.01500
C 	C 	0.51660 0.01600 0.97480 -0.08400
H 	H 	0.50830 0.07900 0.94540 0.06000
Cd	Cd	0.73602 0.67473 0.42244 1.22000
N 	N 	0.73210 0.06860 0.67500 -0.07900
N 	N 	0.82080 0.98010 0.53750 -0.07200
N 	N 	0.82532 0.61650 0.42730 -0.23800
O 	O 	0.67381 0.76490 0.51620 -0.36300
O 	O 	0.76063 0.77950 0.54680 -0.35900
O 	O 	0.84820 0.83360 0.81790 -0.35200
O 	O 	0.77020 0.90210 0.78870 -0.40000
O 	O 	0.77370 0.13190 0.69520 -0.12800
O 	O 	0.78452 0.00720 0.47580 -0.26700
C 	C 	0.68070 0.09830 0.69320 0.06000
H 	H 	0.67410 0.16410 0.71940 0.02700
C 	C 	0.63910 0.03300 0.67340 -0.10800
H 	H 	0.60400 0.05180 0.68990 0.07100
C 	C 	0.64790 0.93590 0.62790 0.03900
H 	H 	0.61890 0.89240 0.61170 0.03600
C 	C 	0.70030 0.90780 0.60830 -0.09600
C 	C 	0.74280 0.97520 0.63350 0.09000
C 	C 	0.80130 0.95480 0.61770 0.10000
C 	C 	0.83790 0.91620 0.67950 -0.10500
C 	C 	0.89190 0.90460 0.65730 0.04600
H 	H 	0.91630 0.87690 0.69750 0.02800
C 	C 	0.90990 0.93410 0.57560 -0.11100
H 	H 	0.94650 0.92880 0.56130 0.07000
C 	C 	0.87290 0.97110 0.51590 0.05300
H 	H 	0.88430 0.98990 0.46050 0.02600
C 	C 	0.71280 0.80860 0.55510 0.32000
C 	C 	0.81700 0.88280 0.76920 0.35700
C 	C 	0.86340 0.67610 0.46580 0.09700
H 	H 	0.85450 0.74500 0.48420 -0.00100
C 	C 	0.91570 0.63890 0.47920 -0.17700
H 	H 	0.94150 0.68300 0.50490 0.09400
C 	C 	0.92930 0.53560 0.45400 0.13300
C 	C 	0.89060 0.47550 0.41470 -0.19700
H 	H 	0.89840 0.40620 0.39640 0.10700
C 	C 	0.84000 0.51790 0.40220 0.12100
H 	H 	0.81410 0.47550 0.37460 -0.01700
C 	C 	0.98340 0.48400 0.47480 -0.08500
H 	H 	0.99170 0.42100 0.44540 0.06100
Cd	Cd	0.76398 0.17473 0.42244 1.22000
N 	N 	0.76790 0.56860 0.67500 -0.07900
N 	N 	0.67920 0.48010 0.53750 -0.07200
N 	N 	0.67468 0.11650 0.42730 -0.23800
O 	O 	0.82619 0.26490 0.51620 -0.36300
O 	O 	0.73937 0.27950 0.54680 -0.35900
O 	O 	0.65180 0.33360 0.81790 -0.35200
O 	O 	0.72980 0.40210 0.78870 -0.40000
O 	O 	0.72630 0.63190 0.69520 -0.12800
O 	O 	0.71548 0.50720 0.47580 -0.26600
C 	C 	0.81930 0.59830 0.69320 0.06000
H 	H 	0.82590 0.66410 0.71940 0.02700
C 	C 	0.86090 0.53300 0.67340 -0.10900
H 	H 	0.89600 0.55180 0.68990 0.07100
C 	C 	0.85210 0.43590 0.62790 0.04000
H 	H 	0.88110 0.39240 0.61170 0.03600
C 	C 	0.79970 0.40780 0.60830 -0.09700
C 	C 	0.75720 0.47520 0.63350 0.09000
C 	C 	0.69870 0.45480 0.61770 0.10000
C 	C 	0.66210 0.41620 0.67950 -0.10400
C 	C 	0.60810 0.40460 0.65730 0.04600
H 	H 	0.58370 0.37690 0.69750 0.02800
C 	C 	0.59010 0.43410 0.57560 -0.11000
H 	H 	0.55350 0.42880 0.56130 0.07000
C 	C 	0.62710 0.47110 0.51590 0.05300
H 	H 	0.61570 0.48990 0.46050 0.02600
C 	C 	0.78720 0.30860 0.55510 0.32000
C 	C 	0.68300 0.38280 0.76920 0.35700
C 	C 	0.63660 0.17610 0.46580 0.09700
H 	H 	0.64550 0.24500 0.48420 -0.00100
C 	C 	0.58430 0.13890 0.47920 -0.17600
H 	H 	0.55850 0.18300 0.50490 0.09400
C 	C 	0.57070 0.03560 0.45400 0.13300
C 	C 	0.60940 0.97550 0.41470 -0.19600
H 	H 	0.60160 0.90620 0.39640 0.10600
C 	C 	0.66000 0.01790 0.40220 0.12000
H 	H 	0.68590 0.97550 0.37460 -0.01600
C 	C 	0.51660 0.98400 0.47480 -0.08500
H 	H 	0.50830 0.92100 0.44540 0.06100
Cd	Cd	0.73602 0.32527 0.92244 1.22000
N 	N 	0.73210 0.93140 0.17500 -0.07900
N 	N 	0.82080 0.01990 0.03750 -0.07200
N 	N 	0.82532 0.38350 0.92730 -0.23900
O 	O 	0.67381 0.23510 0.01620 -0.36300
O 	O 	0.76063 0.22050 0.04680 -0.35900
O 	O 	0.84820 0.16640 0.31790 -0.35200
O 	O 	0.77020 0.09790 0.28870 -0.40000
O 	O 	0.77370 0.86810 0.19520 -0.12800
O 	O 	0.78452 0.99280 0.97580 -0.26800
C 	C 	0.68070 0.90170 0.19320 0.05900
H 	H 	0.67410 0.83590 0.21940 0.02700
C 	C 	0.63910 0.96700 0.17340 -0.10700
H 	H 	0.60400 0.94820 0.18990 0.07000
C 	C 	0.64790 0.06410 0.12790 0.03800
H 	H 	0.61890 0.10760 0.11170 0.03600
C 	C 	0.70030 0.09220 0.10830 -0.09600
C 	C 	0.74280 0.02480 0.13350 0.09000
C 	C 	0.80130 0.04520 0.11770 0.10000
C 	C 	0.83790 0.08380 0.17950 -0.10500
C 	C 	0.89190 0.09540 0.15730 0.04600
H 	H 	0.91630 0.12310 0.19750 0.02800
C 	C 	0.90990 0.06590 0.07560 -0.11100
H 	H 	0.94650 0.07120 0.06130 0.07000
C 	C 	0.87290 0.02890 0.01590 0.05300
H 	H 	0.88430 0.01010 0.96050 0.02600
C 	C 	0.71280 0.19140 0.05510 0.32000
C 	C 	0.81700 0.11720 0.26920 0.35700
C 	C 	0.86340 0.32390 0.96580 0.09800
H 	H 	0.85450 0.25500 0.98420 -0.00200
C 	C 	0.91570 0.36110 0.97920 -0.17900
H 	H 	0.94150 0.31700 0.00490 0.09600
C 	C 	0.92930 0.46440 0.95400 0.13400
C 	C 	0.89060 0.52450 0.91470 -0.19800
H 	H 	0.89840 0.59380 0.89640 0.10700
C 	C 	0.84000 0.48210 0.90220 0.12200
H 	H 	0.81410 0.52450 0.87460 -0.01700
C 	C 	0.98340 0.51600 0.97480 -0.08600
H 	H 	0.99170 0.57900 0.94540 0.06000
Cd	Cd	0.23602 0.17473 0.07756 1.22000
N 	N 	0.23210 0.56860 0.82500 -0.07900
N 	N 	0.32080 0.48010 0.96250 -0.07200
N 	N 	0.32532 0.11650 0.07270 -0.23800
O 	O 	0.17381 0.26490 0.98380 -0.36200
O 	O 	0.26063 0.27950 0.95320 -0.35800
O 	O 	0.34820 0.33360 0.68210 -0.35200
O 	O 	0.27020 0.40210 0.71130 -0.40000
O 	O 	0.27370 0.63190 0.80480 -0.12800
O 	O 	0.28452 0.50720 0.02420 -0.26700
C 	C 	0.18070 0.59830 0.80680 0.06000
H 	H 	0.17410 0.66410 0.78060 0.02700
C 	C 	0.13910 0.53300 0.82660 -0.10900
H 	H 	0.10400 0.55180 0.81010 0.07100
C 	C 	0.14790 0.43590 0.87210 0.04000
H 	H 	0.11890 0.39240 0.88830 0.03600
C 	C 	0.20030 0.40780 0.89170 -0.09700
C 	C 	0.24280 0.47520 0.86650 0.09000
C 	C 	0.30130 0.45480 0.88230 0.10000
C 	C 	0.33790 0.41620 0.82050 -0.10500
C 	C 	0.39190 0.40460 0.84270 0.04600
H 	H 	0.41630 0.37690 0.80250 0.02800
C 	C 	0.40990 0.43410 0.92440 -0.11100
H 	H 	0.44650 0.42880 0.93870 0.07000
C 	C 	0.37290 0.47110 0.98410 0.05400
H 	H 	0.38430 0.48990 0.03950 0.02500
C 	C 	0.21280 0.30860 0.94490 0.32000
C 	C 	0.31700 0.38280 0.73080 0.35700
C 	C 	0.36340 0.17610 0.03420 0.09700
H 	H 	0.35450 0.24500 0.01580 -0.00200
C 	C 	0.41570 0.13890 0.02080 -0.17700
H 	H 	0.44150 0.18300 0.99510 0.09500
C 	C 	0.42930 0.03560 0.04600 0.13000
C 	C 	0.39060 0.97550 0.08530 -0.19200
H 	H 	0.39840 0.90620 0.10360 0.10500
C 	C 	0.34000 0.01790 0.09780 0.11700
H 	H 	0.31410 0.97550 0.12540 -0.01500
C 	C 	0.48340 0.98400 0.02520 -0.08400
H 	H 	0.49170 0.92100 0.05460 0.06000
Cd	Cd	0.26398 0.32527 0.57756 1.22000
N 	N 	0.26790 0.93140 0.32500 -0.07900
N 	N 	0.17920 0.01990 0.46250 -0.07200
N 	N 	0.17468 0.38350 0.57270 -0.23800
O 	O 	0.32619 0.23510 0.48380 -0.36300
O 	O 	0.23937 0.22050 0.45320 -0.35900
O 	O 	0.15180 0.16640 0.18210 -0.35200
O 	O 	0.22980 0.09790 0.21130 -0.40000
O 	O 	0.22630 0.86810 0.30480 -0.12800
O 	O 	0.21548 0.99280 0.52420 -0.26700
C 	C 	0.31930 0.90170 0.30680 0.06000
H 	H 	0.32590 0.83590 0.28060 0.02700
C 	C 	0.36090 0.96700 0.32660 -0.10800
H 	H 	0.39600 0.94820 0.31010 0.07100
C 	C 	0.35210 0.06410 0.37210 0.03900
H 	H 	0.38110 0.10760 0.38830 0.03600
C 	C 	0.29970 0.09220 0.39170 -0.09600
C 	C 	0.25720 0.02480 0.36650 0.09000
C 	C 	0.19870 0.04520 0.38230 0.10000
C 	C 	0.16210 0.08380 0.32050 -0.10500
C 	C 	0.10810 0.09540 0.34270 0.04600
H 	H 	0.08370 0.12310 0.30250 0.02800
C 	C 	0.09010 0.06590 0.42440 -0.11100
H 	H 	0.05350 0.07120 0.43870 0.07000
C 	C 	0.12710 0.02890 0.48410 0.05300
H 	H 	0.11570 0.01010 0.53950 0.02600
C 	C 	0.28720 0.19140 0.44490 0.32000
C 	C 	0.18300 0.11720 0.23080 0.35700
C 	C 	0.13660 0.32390 0.53420 0.09700
H 	H 	0.14550 0.25500 0.51580 -0.00100
C 	C 	0.08430 0.36110 0.52080 -0.17700
H 	H 	0.05850 0.31700 0.49510 0.09400
C 	C 	0.07070 0.46440 0.54600 0.13300
C 	C 	0.10940 0.52450 0.58530 -0.19700
H 	H 	0.10160 0.59380 0.60360 0.10700
C 	C 	0.16000 0.48210 0.59780 0.12100
H 	H 	0.18590 0.52450 0.62540 -0.01700
C 	C 	0.01660 0.51600 0.52520 -0.08500
H 	H 	0.00830 0.57900 0.55460 0.06100
