data_crystal

_cell_length_a 16.43740
_cell_length_b 18.10410
_cell_length_c 18.10410
_cell_angle_alpha 90.00000
_cell_angle_beta  90.00000
_cell_angle_gamma 90.00000

_symmetry_space_group_name_	'P 1'
_symmetry_space_group_name_H-M	'P 1'

loop_
_symmetry_equiv_pos_as_xyz
  x,y,z

loop_
_atom_site_label
_atom_site_type_symbol
_atom_site_fract_x
_atom_site_fract_y
_atom_site_fract_z
_atom_site_charge
Nd	Nd	0.00000 0.78336 0.78336 2.24400
Nd	Nd	0.25000 0.71664 0.28336 2.33600
Nd	Nd	0.50000 0.21664 0.21664 2.33700
Nd	Nd	0.75000 0.28336 0.71664 2.33900
H 	H 	0.17060 0.03660 0.51330 0.12100
H 	H 	0.02740 0.82140 0.13690 0.05000
H 	H 	0.61530 0.13770 0.64280 0.13900
H 	H 	0.88970 0.66370 0.58390 0.10000
H 	H 	0.00380 0.19430 0.94820 0.05700
H 	H 	0.63590 0.34870 0.88380 0.16800
H 	H 	0.63910 0.58380 0.13580 0.10500
H 	H 	0.38910 0.63580 0.91620 0.10500
H 	H 	0.36530 0.14280 0.36230 0.14000
H 	H 	0.43860 0.59930 0.02870 -0.02600
H 	H 	0.47260 0.86310 0.17860 0.05000
H 	H 	0.06750 0.70850 0.46730 0.04300
H 	H 	0.81980 0.09550 0.95450 0.08600
H 	H 	0.56350 0.98260 0.92920 0.05600
H 	H 	0.88470 0.35720 0.86230 0.14600
H 	H 	0.65070 0.38850 0.48590 0.06000
H 	H 	0.52740 0.17860 0.86310 0.04900
H 	H 	0.61410 0.15130 0.38380 0.16600
H 	H 	0.40840 0.11500 0.88650 0.09000
H 	H 	0.21280 0.38890 0.21470 0.01400
H 	H 	0.04810 0.14510 0.00720 0.05200
H 	H 	0.11410 0.84870 0.61620 0.16400
H 	H 	0.77740 0.63690 0.67860 0.05200
H 	H 	0.45190 0.99280 0.85490 0.04300
H 	H 	0.82870 0.51960 0.90930 -0.03600
H 	H 	0.11530 0.86230 0.35720 0.13500
H 	H 	0.86090 0.86420 0.41620 0.08900
H 	H 	0.28720 0.78530 0.61110 0.01500
H 	H 	0.65840 0.61350 0.61500 0.08700
H 	H 	0.75380 0.44820 0.30570 0.05700
H 	H 	0.92060 0.01330 0.46340 0.12800
H 	H 	0.55260 0.95520 0.07550 0.10800
H 	H 	0.31980 0.90450 0.04550 0.08000
H 	H 	0.71280 0.61110 0.78530 0.01600
H 	H 	0.21650 0.09000 0.28480 0.02200
H 	H 	0.13970 0.91610 0.16370 0.07600
H 	H 	0.57940 0.53660 0.98670 0.12200
H 	H 	0.67130 0.09070 0.48040 -0.03700
H 	H 	0.24620 0.30570 0.44820 0.05400
H 	H 	0.11030 0.58390 0.66370 0.08300
H 	H 	0.72260 0.32140 0.36310 0.05000
H 	H 	0.85580 0.10080 0.39810 -0.01000
H 	H 	0.16080 0.46780 0.65300 0.05100
H 	H 	0.19740 0.45520 0.42450 0.10400
H 	H 	0.09160 0.11350 0.88500 0.09700
H 	H 	0.39420 0.39920 0.89810 -0.01400
H 	H 	0.81140 0.90070 0.52870 -0.01000
H 	H 	0.13910 0.41620 0.86420 0.11900
H 	H 	0.07940 0.46340 0.01330 0.11600
H 	H 	0.82940 0.51330 0.03660 0.11900
H 	H 	0.41080 0.84700 0.96780 0.04800
H 	H 	0.96280 0.71470 0.11110 0.02700
H 	H 	0.06140 0.97130 0.40070 -0.03600
H 	H 	0.79810 0.50720 0.35490 0.04700
H 	H 	0.71650 0.91000 0.71520 0.02300
H 	H 	0.15070 0.61150 0.51410 0.06100
H 	H 	0.84930 0.51410 0.61150 0.05800
H 	H 	0.13470 0.63770 0.85720 0.15000
H 	H 	0.61030 0.41610 0.33630 0.09100
H 	H 	0.18250 0.79150 0.96730 0.02400
H 	H 	0.95190 0.00720 0.14510 0.02600
H 	H 	0.27740 0.36310 0.32140 0.05000
H 	H 	0.59160 0.88650 0.11500 0.09000
H 	H 	0.05260 0.04480 0.92450 0.11100
H 	H 	0.83920 0.65300 0.46780 0.04800
H 	H 	0.68250 0.20850 0.03270 0.02500
H 	H 	0.33920 0.34700 0.53220 0.04900
H 	H 	0.32940 0.48670 0.96340 0.12300
H 	H 	0.68020 0.04550 0.90450 0.07600
H 	H 	0.56140 0.02870 0.59930 -0.02500
H 	H 	0.25380 0.55180 0.69430 0.05300
H 	H 	0.11090 0.08380 0.36420 0.09900
H 	H 	0.53720 0.88890 0.28530 0.01700
H 	H 	0.38970 0.33630 0.41610 0.09200
H 	H 	0.68650 0.51740 0.42920 0.05300
H 	H 	0.64420 0.60190 0.89920 -0.01400
H 	H 	0.29810 0.49280 0.64510 0.04100
H 	H 	0.84160 0.38500 0.38650 0.09500
H 	H 	0.97260 0.13690 0.82140 0.04700
H 	H 	0.10580 0.10190 0.60080 -0.01800
H 	H 	0.08920 0.03220 0.15300 0.07000
H 	H 	0.67060 0.96340 0.48670 0.11800
H 	H 	0.06980 0.54550 0.59550 0.06400
H 	H 	0.03350 0.41000 0.78480 -0.00400
H 	H 	0.93650 0.07080 0.01740 0.04000
H 	H 	0.38470 0.64280 0.13770 0.14000
H 	H 	0.86030 0.16370 0.91610 0.10100
H 	H 	0.93020 0.59550 0.54550 0.09400
H 	H 	0.49620 0.05180 0.80570 0.05300
H 	H 	0.81750 0.96730 0.79150 0.03200
H 	H 	0.50380 0.80570 0.05180 0.05600
H 	H 	0.88590 0.61620 0.84870 0.17000
H 	H 	0.38590 0.38380 0.15130 0.16800
H 	H 	0.43250 0.53270 0.29150 0.02500
H 	H 	0.56980 0.45450 0.40450 0.07800
H 	H 	0.44740 0.07550 0.95520 0.10800
H 	H 	0.68860 0.47130 0.09930 -0.02600
H 	H 	0.42060 0.98670 0.53660 0.12200
H 	H 	0.36030 0.83630 0.08390 0.09200
H 	H 	0.58920 0.96780 0.84700 0.05400
H 	H 	0.60580 0.89810 0.39920 -0.01100
H 	H 	0.63470 0.36230 0.14280 0.14000
H 	H 	0.90070 0.01410 0.88850 0.07000
H 	H 	0.63970 0.08390 0.83630 0.08900
H 	H 	0.28350 0.71520 0.91000 0.02200
H 	H 	0.46280 0.28530 0.88890 0.01500
H 	H 	0.36090 0.13580 0.58380 0.10500
H 	H 	0.07870 0.59070 0.01960 -0.04800
H 	H 	0.31350 0.42920 0.51740 0.05100
H 	H 	0.93250 0.46730 0.70850 0.01000
H 	H 	0.31750 0.03270 0.20850 0.02400
H 	H 	0.88910 0.36420 0.08380 0.11100
H 	H 	0.34930 0.48590 0.38850 0.05900
H 	H 	0.43650 0.92920 0.98260 0.05000
H 	H 	0.78350 0.28480 0.09000 0.02400
H 	H 	0.14420 0.39810 0.10080 -0.01700
H 	H 	0.81350 0.57080 0.48260 0.04900
H 	H 	0.43020 0.40450 0.45450 0.07900
H 	H 	0.66080 0.53220 0.34700 0.05100
H 	H 	0.59930 0.11150 0.98590 0.06100
H 	H 	0.22260 0.67860 0.63690 0.04800
H 	H 	0.53350 0.59000 0.21520 0.02300
H 	H 	0.54810 0.85490 0.99280 0.04500
H 	H 	0.96650 0.78480 0.41000 0.05200
H 	H 	0.18860 0.52870 0.90070 -0.03900
H 	H 	0.61090 0.91620 0.63580 0.10400
H 	H 	0.30260 0.57550 0.54480 0.11000
H 	H 	0.89420 0.60080 0.10190 -0.00600
H 	H 	0.94740 0.92450 0.04480 0.11300
H 	H 	0.42130 0.98040 0.40930 -0.04000
H 	H 	0.34160 0.61500 0.61350 0.09100
H 	H 	0.86410 0.11620 0.65130 0.17100
H 	H 	0.56750 0.29150 0.53270 0.02500
H 	H 	0.57870 0.40930 0.98040 -0.04000
H 	H 	0.32870 0.48040 0.09070 -0.04000
H 	H 	0.35580 0.89920 0.60190 -0.01400
H 	H 	0.69740 0.54480 0.57550 0.10500
H 	H 	0.78720 0.21470 0.38890 0.01700
H 	H 	0.06350 0.01740 0.07080 0.07000
H 	H 	0.91080 0.15300 0.03220 0.03700
H 	H 	0.46650 0.21520 0.59000 0.02200
H 	H 	0.92130 0.01960 0.59070 -0.03200
H 	H 	0.90840 0.88500 0.11350 0.08800
H 	H 	0.40070 0.98590 0.11150 0.06000
H 	H 	0.31140 0.09930 0.47130 -0.02600
H 	H 	0.74620 0.69430 0.55180 0.05900
H 	H 	0.86530 0.85720 0.63770 0.13000
H 	H 	0.09930 0.88850 0.01410 0.05700
H 	H 	0.18650 0.48260 0.57080 0.05400
H 	H 	0.17130 0.90930 0.51960 -0.04000
H 	H 	0.80260 0.42450 0.45520 0.11100
H 	H 	0.15840 0.38650 0.38500 0.08300
H 	H 	0.20190 0.35490 0.50720 0.04200
H 	H 	0.99620 0.94820 0.19430 0.04700
H 	H 	0.70190 0.64510 0.49280 0.04800
H 	H 	0.36410 0.88380 0.34870 0.16800
H 	H 	0.03720 0.11110 0.71470 0.00600
H 	H 	0.13590 0.65130 0.11620 0.16500
H 	H 	0.93860 0.40070 0.97130 -0.01700
H 	H 	0.18020 0.95450 0.09550 0.06600
C 	C 	0.35240 0.43480 0.37100 0.02100
C 	C 	0.85350 0.55700 0.93640 0.20700
C 	C 	0.49080 0.03300 0.85570 -0.05600
C 	C 	0.87060 0.11440 0.93480 -0.16400
C 	C 	0.10350 0.56360 0.05700 0.21300
C 	C 	0.14760 0.62900 0.56520 0.00700
C 	C 	0.77160 0.58770 0.65660 0.04300
C 	C 	0.53810 0.93950 0.27670 0.09900
C 	C 	0.42680 0.32680 0.06380 0.36400
C 	C 	0.92680 0.67320 0.93620 0.35600
C 	C 	0.04950 0.72050 0.51450 0.00900
C 	C 	0.99080 0.96700 0.14430 0.01600
C 	C 	0.89510 0.36790 0.97300 0.15900
C 	C 	0.35490 0.13210 0.47300 0.15600
C 	C 	0.20870 0.40650 0.40470 -0.16500
C 	C 	0.63820 0.40000 0.88470 -0.34700
C 	C 	0.51410 0.47920 0.22750 -0.15500
C 	C 	0.71190 0.56050 0.77670 0.10200
C 	C 	0.85440 0.55260 0.01260 -0.24600
C 	C 	0.07320 0.93620 0.67320 0.35700
C 	C 	0.63760 0.09280 0.65760 -0.29400
C 	C 	0.10870 0.05080 0.60490 0.13900
C 	C 	0.73590 0.02080 0.72750 -0.15300
C 	C 	0.85870 0.10490 0.44920 0.14300
C 	C 	0.96190 0.72330 0.06050 0.09800
C 	C 	0.63450 0.95930 0.65360 -0.20300
C 	C 	0.64510 0.47300 0.13210 0.15700
C 	C 	0.94740 0.79980 0.45600 0.03200
C 	C 	0.27160 0.41230 0.34340 0.04800
C 	C 	0.86550 0.34640 0.04070 -0.20500
C 	C 	0.54950 0.27950 0.48550 0.08600
C 	C 	0.46190 0.27670 0.93950 0.10200
C 	C 	0.38450 0.15360 0.54070 -0.20700
C 	C 	0.22840 0.65660 0.58770 0.05600
C 	C 	0.11240 0.59280 0.84240 -0.32900
C 	C 	0.56970 0.00530 0.88100 -0.07900
C 	C 	0.70050 0.22050 0.98550 0.08600
C 	C 	0.79130 0.40470 0.40650 -0.17300
C 	C 	0.88820 0.61530 0.90000 -0.33300
C 	C 	0.85490 0.86790 0.52700 0.11500
C 	C 	0.45870 0.09530 0.90650 -0.17300
C 	C 	0.24080 0.35570 0.46700 -0.06400
C 	C 	0.26410 0.72750 0.02080 -0.15500
C 	C 	0.06970 0.99470 0.11900 -0.15700
C 	C 	0.60440 0.51260 0.94740 -0.25900
C 	C 	0.05260 0.45600 0.79980 0.13500
C 	C 	0.89130 0.60490 0.05080 0.13300
C 	C 	0.82320 0.17320 0.56380 0.36500
C 	C 	0.60490 0.02700 0.63210 0.15200
C 	C 	0.04130 0.09350 0.90470 -0.20500
C 	C 	0.70460 0.09160 0.70610 0.32500
C 	C 	0.35440 0.44740 0.98740 -0.26000
C 	C 	0.82350 0.16690 0.48410 -0.17500
C 	C 	0.64130 0.55080 0.89510 0.14100
C 	C 	0.36550 0.65360 0.95930 -0.20700
C 	C 	0.20050 0.77950 0.01450 0.08500
C 	C 	0.14560 0.01260 0.55260 -0.26000
C 	C 	0.87940 0.61440 0.56520 -0.15800
C 	C 	0.60350 0.43640 0.94300 0.21400
C 	C 	0.54540 0.40840 0.20610 0.32600
C 	C 	0.10440 0.48740 0.05260 -0.26300
C 	C 	0.98590 0.77250 0.52080 -0.07300
C 	C 	0.00920 0.14430 0.96700 -0.10900
C 	C 	0.39130 0.39510 0.94920 0.14200
C 	C 	0.75920 0.46700 0.35570 -0.06000
C 	C 	0.64760 0.37100 0.43480 0.01800
C 	C 	0.12060 0.56520 0.61440 -0.12500
C 	C 	0.76410 0.27250 0.97920 -0.15500
C 	C 	0.13450 0.04070 0.34640 -0.20800
C 	C 	0.18030 0.50530 0.61900 -0.08100
C 	C 	0.95460 0.79390 0.59160 0.28900
C 	C 	0.45460 0.20610 0.40840 0.32600
C 	C 	0.38820 0.38470 0.10000 -0.34800
C 	C 	0.80260 0.29980 0.04400 0.08800
C 	C 	0.17680 0.56380 0.17320 0.36300
C 	C 	0.85240 0.56520 0.62900 0.03200
C 	C 	0.62060 0.43480 0.38560 -0.13900
C 	C 	0.78810 0.22330 0.43950 0.10300
C 	C 	0.89760 0.06520 0.87100 0.01200
C 	C 	0.42650 0.33310 0.98410 -0.17800
C 	C 	0.93030 0.11900 0.99470 -0.00300
C 	C 	0.95870 0.90470 0.09350 -0.14900
C 	C 	0.32350 0.83310 0.51590 -0.17800
C 	C 	0.64650 0.06360 0.44300 0.20400
C 	C 	0.02160 0.84340 0.08770 -0.00000
C 	C 	0.70870 0.59350 0.59530 -0.16100
C 	C 	0.88760 0.84240 0.59280 -0.25400
C 	C 	0.57320 0.06380 0.32680 0.35800
C 	C 	0.61240 0.40720 0.15760 -0.29600
C 	C 	0.86240 0.34240 0.90720 -0.29400
C 	C 	0.11550 0.45930 0.84640 -0.25200
C 	C 	0.01410 0.52080 0.77250 -0.22800
C 	C 	0.35870 0.89510 0.55080 0.14100
C 	C 	0.23590 0.97920 0.27250 -0.15500
C 	C 	0.04540 0.59160 0.79390 0.35200
C 	C 	0.43030 0.88100 0.00530 -0.06200
C 	C 	0.30260 0.70020 0.95600 0.08600
C 	C 	0.79540 0.29390 0.90840 0.32700
C 	C 	0.20460 0.90840 0.29390 0.32600
C 	C 	0.88450 0.84640 0.45930 -0.15300
C 	C 	0.74080 0.64430 0.53300 -0.07300
C 	C 	0.61550 0.54070 0.15360 -0.20700
C 	C 	0.32320 0.82680 0.43620 0.36400
C 	C 	0.29540 0.70610 0.09160 0.32600
C 	C 	0.50920 0.85570 0.03300 -0.06400
C 	C 	0.14130 0.44920 0.10490 0.14000
C 	C 	0.89560 0.05260 0.48740 -0.25500
C 	C 	0.36180 0.88470 0.40000 -0.34700
C 	C 	0.52160 0.15660 0.91230 0.05200
C 	C 	0.14510 0.52700 0.86790 0.19100
C 	C 	0.55260 0.54400 0.20020 0.08700
C 	C 	0.60870 0.94920 0.39510 0.13300
C 	C 	0.39650 0.94300 0.43640 0.21500
C 	C 	0.29130 0.59530 0.59350 -0.17600
C 	C 	0.36240 0.65760 0.09280 -0.29600
C 	C 	0.79950 0.01450 0.77950 0.08200
C 	C 	0.45050 0.48550 0.27950 0.08600
C 	C 	0.31970 0.38100 0.49470 -0.06600
C 	C 	0.64560 0.98740 0.44740 -0.24800
C 	C 	0.11180 0.90000 0.61530 -0.34900
C 	C 	0.97840 0.08770 0.84340 0.10800
C 	C 	0.67650 0.51590 0.83310 -0.17700
C 	C 	0.86180 0.11530 0.60000 -0.34300
C 	C 	0.17650 0.48410 0.16690 -0.18000
C 	C 	0.44740 0.20020 0.54400 0.08700
C 	C 	0.25920 0.53300 0.64430 -0.05200
C 	C 	0.89650 0.05700 0.56360 0.21600
C 	C 	0.67680 0.43620 0.82680 0.36400
C 	C 	0.39760 0.93480 0.12900 0.02100
C 	C 	0.62940 0.06520 0.88560 -0.13300
C 	C 	0.37940 0.38560 0.43480 -0.14200
C 	C 	0.03810 0.06050 0.72330 0.10200
C 	C 	0.72840 0.34340 0.41230 0.05200
C 	C 	0.13760 0.90720 0.34240 -0.29900
C 	C 	0.54130 0.90650 0.09530 -0.16800
C 	C 	0.10490 0.97300 0.36790 0.15400
C 	C 	0.60240 0.12900 0.93480 0.01600
C 	C 	0.37060 0.88560 0.06520 -0.14400
C 	C 	0.21190 0.43950 0.22330 0.10000
C 	C 	0.61180 0.10000 0.38470 -0.34000
C 	C 	0.57350 0.98410 0.33310 -0.17100
C 	C 	0.28810 0.77670 0.56050 0.10200
C 	C 	0.14650 0.93640 0.55700 0.21000
C 	C 	0.38760 0.15760 0.40720 -0.29700
C 	C 	0.19740 0.04400 0.29980 0.08500
C 	C 	0.47840 0.91230 0.15660 0.04900
C 	C 	0.12940 0.93480 0.11440 -0.10000
C 	C 	0.48590 0.22750 0.47920 -0.15500
C 	C 	0.10240 0.87100 0.06520 0.01700
C 	C 	0.81970 0.61900 0.50530 -0.05400
C 	C 	0.07350 0.01590 0.66690 -0.18200
C 	C 	0.68030 0.49470 0.38100 -0.06900
C 	C 	0.95050 0.51450 0.72050 0.15800
C 	C 	0.69740 0.95600 0.70020 0.08600
C 	C 	0.35350 0.44300 0.06360 0.21500
C 	C 	0.29950 0.98550 0.22050 0.08800
C 	C 	0.39510 0.63210 0.02700 0.15700
C 	C 	0.39560 0.94740 0.51260 -0.25900
C 	C 	0.13820 0.60000 0.11530 -0.35200
C 	C 	0.92650 0.66690 0.01590 -0.16200
N 	N 	0.75710 0.28550 0.46190 -0.11200
N 	N 	0.74290 0.53810 0.71450 -0.11100
N 	N 	0.83460 0.07010 0.81180 -0.10900
N 	N 	0.68230 0.23530 0.22220 0.05900
N 	N 	0.00710 0.03810 0.78550 -0.13400
N 	N 	0.56770 0.26470 0.72220 0.05900
N 	N 	0.16540 0.81180 0.07010 -0.11400
N 	N 	0.81770 0.77780 0.76470 0.05700
N 	N 	0.08460 0.68820 0.57010 -0.10500
N 	N 	0.33460 0.92990 0.18820 -0.11300
N 	N 	0.41540 0.42990 0.31180 -0.11300
N 	N 	0.06770 0.73530 0.27780 0.04200
N 	N 	0.31770 0.22220 0.23530 0.05900
N 	N 	0.50710 0.96190 0.21450 -0.11100
N 	N 	0.99290 0.78550 0.03810 -0.08500
N 	N 	0.91540 0.57010 0.68820 -0.11900
N 	N 	0.93230 0.27780 0.73530 0.07500
N 	N 	0.49290 0.21450 0.96190 -0.11200
N 	N 	0.25710 0.71450 0.53810 -0.11300
N 	N 	0.58460 0.31180 0.42990 -0.11300
N 	N 	0.66540 0.18820 0.92990 -0.11200
N 	N 	0.43230 0.72220 0.26470 0.05900
N 	N 	0.18230 0.76470 0.77780 0.05900
N 	N 	0.24290 0.46190 0.28550 -0.11200
Cl	Cl	0.50000 0.10581 0.10581 -0.49800
Cl	Cl	-0.00000 0.89419 0.89419 -0.51900
Cl	Cl	0.25000 0.60581 0.39419 -0.50000
Cl	Cl	0.75000 0.39419 0.60581 -0.49500
O 	O 	0.64100 0.24100 0.27890 -0.27700
O 	O 	0.76370 0.26770 0.84849 -0.45700
O 	O 	0.74300 0.77480 0.73520 -0.13100
O 	O 	0.48630 0.23230 0.34849 -0.45700
O 	O 	0.45910 0.27120 0.09690 -0.44700
O 	O 	0.20910 0.59690 0.22880 -0.44900
O 	O 	0.24300 0.22520 0.26480 -0.13600
O 	O 	0.73630 0.15151 0.73230 -0.45600
O 	O 	0.35900 0.27890 0.24100 -0.27800
O 	O 	0.35520 0.16270 0.22140 -0.30300
O 	O 	0.25700 0.73520 0.77480 -0.13200
O 	O 	0.95910 0.72880 0.90310 -0.41700
O 	O 	0.85900 0.72110 0.75900 -0.26400
O 	O 	0.39480 0.66270 0.27860 -0.30200
O 	O 	0.89480 0.33730 0.72140 -0.29400
O 	O 	0.26370 0.73230 0.15151 -0.45700
O 	O 	0.04090 0.90310 0.72880 -0.44700
O 	O 	0.39100 0.77890 0.25900 -0.27800
O 	O 	0.14100 0.75900 0.72110 -0.27600
O 	O 	0.01370 0.65151 0.76770 -0.47400
O 	O 	0.85520 0.83730 0.77860 -0.28400
O 	O 	0.10520 0.72140 0.33730 -0.31000
O 	O 	0.51370 0.34849 0.23230 -0.45700
O 	O 	0.54090 0.09690 0.27120 -0.44600
O 	O 	0.98630 0.76770 0.65151 -0.41400
O 	O 	0.10900 0.74100 0.22110 -0.28300
O 	O 	0.49300 0.23520 0.72520 -0.13200
O 	O 	0.50700 0.72520 0.23520 -0.13200
O 	O 	0.00700 0.27480 0.76480 -0.15800
O 	O 	0.75700 0.26480 0.22520 -0.12900
O 	O 	0.14480 0.77860 0.83730 -0.29800
O 	O 	0.89100 0.22110 0.74100 -0.27200
O 	O 	0.60900 0.25900 0.77890 -0.27800
O 	O 	0.60520 0.27860 0.66270 -0.30200
O 	O 	0.23630 0.84849 0.26770 -0.45700
O 	O 	0.64480 0.22140 0.16270 -0.30200
O 	O 	0.29090 0.77120 0.40310 -0.44700
O 	O 	0.99300 0.76480 0.27480 -0.10400
O 	O 	0.79090 0.22880 0.59690 -0.44600
O 	O 	0.70910 0.40310 0.77120 -0.44700
