data_crystal

_cell_length_a 16.41740
_cell_length_b 18.17980
_cell_length_c 18.17980
_cell_angle_alpha 90.00000
_cell_angle_beta  90.00000
_cell_angle_gamma 90.00000

_symmetry_space_group_name_	'P 1'
_symmetry_space_group_name_H-M	'P 1'

loop_
_symmetry_equiv_pos_as_xyz
  x,y,z

loop_
_atom_site_label
_atom_site_type_symbol
_atom_site_fract_x
_atom_site_fract_y
_atom_site_fract_z
_atom_site_charge
La	La	0.25000 0.71520 0.28480 1.72000
La	La	0.75000 0.28480 0.71520 1.72100
La	La	0.50000 0.21520 0.21520 1.72100
La	La	0.00000 0.78480 0.78480 1.69400
H 	H 	0.09900 0.88700 0.01600 0.05600
H 	H 	0.28370 0.71740 0.91040 0.02000
H 	H 	0.81130 0.89750 0.52920 -0.02800
H 	H 	0.49960 0.05130 0.80560 0.05600
H 	H 	0.43650 0.92870 0.98110 0.05100
H 	H 	0.38860 0.63540 0.91730 0.11500
H 	H 	0.36710 0.14070 0.36550 0.15600
H 	H 	0.18140 0.95300 0.09410 0.07500
H 	H 	0.56810 0.29210 0.53160 0.03000
H 	H 	0.85790 0.16330 0.91610 0.10200
H 	H 	0.79660 0.50690 0.35370 0.04800
H 	H 	0.27770 0.36110 0.32050 0.05200
H 	H 	0.63290 0.36550 0.14070 0.15600
H 	H 	0.06350 0.01890 0.07130 0.06400
H 	H 	0.68140 0.04700 0.90590 0.08100
H 	H 	0.14520 0.39620 0.10260 0.00300
H 	H 	0.93870 0.39750 0.97080 -0.03500
H 	H 	0.65860 0.61500 0.61520 0.08800
H 	H 	0.31350 0.42870 0.51890 0.05200
H 	H 	0.29660 0.49310 0.64630 0.04400
H 	H 	0.68190 0.20790 0.03160 0.03000
H 	H 	0.13860 0.41730 0.86460 0.12700
H 	H 	0.53370 0.58960 0.21740 0.02000
H 	H 	0.60790 0.41610 0.33670 0.09600
H 	H 	0.99960 0.94870 0.19440 0.05200
H 	H 	0.89520 0.60260 0.10380 0.01100
H 	H 	0.03500 0.11270 0.71500 0.01700
H 	H 	0.46500 0.28500 0.88730 0.02500
H 	H 	0.61140 0.91730 0.63540 0.11400
H 	H 	0.70340 0.64630 0.49310 0.04900
H 	H 	0.81350 0.57130 0.48110 0.05100
H 	H 	0.36140 0.13540 0.58270 0.11500
H 	H 	0.77770 0.63890 0.67950 0.05400
H 	H 	0.21630 0.08960 0.28260 0.01900
H 	H 	0.11530 0.85160 0.61800 0.14400
H 	H 	0.75040 0.44870 0.30560 0.05800
H 	H 	0.59900 0.11300 0.98400 0.05900
H 	H 	0.31130 0.10250 0.47080 -0.04200
H 	H 	0.39520 0.39740 0.89620 0.00600
H 	H 	0.45340 0.99310 0.85370 0.04600
H 	H 	0.06860 0.54700 0.59410 0.07200
H 	H 	0.18870 0.52920 0.89750 -0.05400
H 	H 	0.66000 0.53330 0.34690 0.05100
H 	H 	0.41790 0.98630 0.54060 0.09900
H 	H 	0.59000 0.96670 0.84690 0.05300
H 	H 	0.86710 0.85930 0.63450 0.14600
H 	H 	0.71500 0.61270 0.78500 0.02500
H 	H 	0.09140 0.11500 0.88480 0.09500
H 	H 	0.59140 0.88500 0.11520 0.09000
H 	H 	0.16890 0.91330 0.51690 -0.01300
H 	H 	0.64520 0.60380 0.89740 0.00600
H 	H 	0.61710 0.13450 0.64070 0.15500
H 	H 	0.10790 0.58390 0.66330 0.09000
H 	H 	0.06130 0.97080 0.39750 -0.04900
H 	H 	0.46630 0.21740 0.58960 0.02000
H 	H 	0.40100 0.98400 0.11300 0.05900
H 	H 	0.97230 0.13890 0.82050 0.05000
H 	H 	0.86140 0.86460 0.41730 0.10200
H 	H 	0.78500 0.21500 0.38730 0.02600
H 	H 	0.53500 0.88730 0.28500 0.02500
H 	H 	0.08110 0.58670 0.01690 -0.01800
H 	H 	0.54660 0.85370 0.99310 0.04700
H 	H 	0.19760 0.45440 0.42260 0.10500
H 	H 	0.44760 0.07740 0.95440 0.10800
H 	H 	0.31810 0.03160 0.20790 0.02900
H 	H 	0.58210 0.54060 0.98630 0.09900
H 	H 	0.88470 0.61800 0.85160 0.14800
H 	H 	0.10480 0.10380 0.60260 0.00200
H 	H 	0.81810 0.96840 0.79210 0.03500
H 	H 	0.96630 0.78260 0.41040 0.04200
H 	H 	0.13470 0.64840 0.11800 0.14400
H 	H 	0.91890 0.01690 0.58670 -0.00700
H 	H 	0.94760 0.92260 0.04560 0.11100
H 	H 	0.63860 0.58270 0.13540 0.11500
H 	H 	0.35790 0.83670 0.08390 0.09700
H 	H 	0.38470 0.38200 0.14840 0.14700
H 	H 	0.16790 0.04060 0.51370 0.09900
H 	H 	0.02770 0.82050 0.13890 0.05300
H 	H 	0.89210 0.66330 0.58390 0.10200
H 	H 	0.72230 0.32050 0.36110 0.05200
H 	H 	0.68870 0.47080 0.10250 -0.04100
H 	H 	0.69760 0.54560 0.57740 0.10600
H 	H 	0.33210 0.48630 0.95940 0.10000
H 	H 	0.65100 0.38700 0.48400 0.05900
H 	H 	0.21500 0.38730 0.21500 0.02400
H 	H 	0.61530 0.14840 0.38200 0.14500
H 	H 	0.03370 0.41040 0.78260 -0.00100
H 	H 	0.86530 0.11800 0.64840 0.14900
H 	H 	0.43870 0.60250 0.02920 -0.04200
H 	H 	0.39210 0.33670 0.41610 0.09600
H 	H 	0.83210 0.51370 0.04060 0.09800
H 	H 	0.84140 0.38480 0.38500 0.09400
H 	H 	0.90860 0.88480 0.11500 0.08800
H 	H 	0.74960 0.69440 0.55130 0.05900
H 	H 	0.24960 0.30560 0.44870 0.05600
H 	H 	0.38290 0.64070 0.13450 0.15600
H 	H 	0.34900 0.48400 0.38700 0.05900
H 	H 	0.56130 0.02920 0.60250 -0.04100
H 	H 	0.56350 0.98110 0.92870 0.05500
H 	H 	0.41890 0.98310 0.41330 -0.01200
H 	H 	0.15100 0.61300 0.51600 0.06000
H 	H 	0.30240 0.57740 0.54560 0.10900
H 	H 	0.63470 0.35160 0.88200 0.14600
H 	H 	0.34000 0.34690 0.53330 0.05000
H 	H 	0.85480 0.10260 0.39620 0.00800
H 	H 	0.22230 0.67950 0.63890 0.05100
H 	H 	0.64210 0.08390 0.83670 0.09500
H 	H 	0.04660 0.14630 0.00690 0.05100
H 	H 	0.50040 0.80560 0.05130 0.05800
H 	H 	0.14210 0.91610 0.16330 0.08700
H 	H 	0.60480 0.89620 0.39740 0.00800
H 	H 	0.08210 0.45940 0.01370 0.09500
H 	H 	0.47230 0.86110 0.17950 0.05300
H 	H 	0.95340 0.00690 0.14630 0.03300
H 	H 	0.31860 0.90590 0.04700 0.08300
H 	H 	0.93190 0.46840 0.70790 0.01800
H 	H 	0.05240 0.04560 0.92260 0.11100
H 	H 	0.90100 0.01600 0.88700 0.06700
H 	H 	0.66890 0.08670 0.48310 -0.01000
H 	H 	0.88860 0.36460 0.08270 0.11900
H 	H 	0.15860 0.38500 0.38480 0.08500
H 	H 	0.66790 0.95940 0.48630 0.09700
H 	H 	0.16000 0.46670 0.65310 0.05100
H 	H 	0.43140 0.40590 0.45300 0.08300
H 	H 	0.55240 0.95440 0.07740 0.10800
H 	H 	0.84900 0.51600 0.61300 0.05800
H 	H 	0.25040 0.55130 0.69440 0.05500
H 	H 	0.80240 0.42260 0.45440 0.11000
H 	H 	0.18650 0.48110 0.57130 0.05300
H 	H 	0.84000 0.65310 0.46670 0.04900
H 	H 	0.68650 0.51890 0.42870 0.05300
H 	H 	0.91790 0.01370 0.45940 0.10300
H 	H 	0.18190 0.79210 0.96840 0.02800
H 	H 	0.13290 0.63450 0.85930 0.16500
H 	H 	0.43190 0.53160 0.29210 0.03000
H 	H 	0.91000 0.15310 0.03330 0.04200
H 	H 	0.83110 0.51690 0.91330 -0.00900
H 	H 	0.93650 0.07130 0.01890 0.04500
H 	H 	0.41000 0.84690 0.96670 0.04900
H 	H 	0.33110 0.48310 0.08670 -0.01200
H 	H 	0.71630 0.91040 0.71740 0.02100
H 	H 	0.35480 0.89740 0.60380 0.00600
H 	H 	0.34140 0.61520 0.61500 0.09100
H 	H 	0.58110 0.41330 0.98310 -0.01200
H 	H 	0.56860 0.45300 0.40590 0.08200
H 	H 	0.81860 0.09410 0.95300 0.08600
H 	H 	0.06810 0.70790 0.46840 0.04200
H 	H 	0.00040 0.19440 0.94870 0.05700
H 	H 	0.78370 0.28260 0.08960 0.02100
H 	H 	0.28500 0.78500 0.61270 0.02500
H 	H 	0.11710 0.86550 0.35930 0.15200
H 	H 	0.11140 0.08270 0.36460 0.11100
H 	H 	0.96500 0.71500 0.11270 0.03300
H 	H 	0.20340 0.35370 0.50690 0.04500
H 	H 	0.09000 0.03330 0.15310 0.06400
H 	H 	0.93140 0.59410 0.54700 0.09300
H 	H 	0.36530 0.88200 0.35160 0.14600
H 	H 	0.52770 0.17950 0.86110 0.05200
H 	H 	0.88290 0.35930 0.86550 0.15900
H 	H 	0.40860 0.11520 0.88500 0.09000
C 	C 	0.03730 0.06240 0.72360 0.08000
C 	C 	0.47790 0.91010 0.15760 0.04400
C 	C 	0.42670 0.33260 0.98100 -0.13100
C 	C 	0.57420 0.06030 0.32720 0.27600
C 	C 	0.63090 0.06590 0.88590 -0.14600
C 	C 	0.61130 0.40980 0.15730 -0.32700
C 	C 	0.52210 0.15760 0.91010 0.04500
C 	C 	0.98590 0.77200 0.52060 -0.08600
C 	C 	0.35450 0.44480 0.06020 0.14100
C 	C 	0.02210 0.84240 0.08990 0.00700
C 	C 	0.94780 0.79830 0.45610 0.05500
C 	C 	0.50710 0.85530 0.03270 -0.06700
C 	C 	0.89380 0.05270 0.48430 -0.19000
C 	C 	0.13090 0.93410 0.11410 -0.12600
C 	C 	0.45000 0.48470 0.27970 0.07800
C 	C 	0.85450 0.55520 0.93980 0.13700
C 	C 	0.64720 0.37020 0.43290 0.02500
C 	C 	0.29520 0.70590 0.09150 0.30500
C 	C 	0.46270 0.27640 0.93760 0.07900
C 	C 	0.92670 0.66740 0.01900 -0.12000
C 	C 	0.71270 0.56240 0.77640 0.07900
C 	C 	0.78730 0.22360 0.43760 0.08000
C 	C 	0.39720 0.93290 0.12980 0.02600
C 	C 	0.21270 0.43760 0.22360 0.07800
C 	C 	0.85590 0.86610 0.52710 0.16800
C 	C 	0.51410 0.47940 0.22800 -0.14600
C 	C 	0.70480 0.09150 0.70590 0.30300
C 	C 	0.10590 0.97290 0.36610 0.20400
C 	C 	0.49290 0.03270 0.85530 -0.06200
C 	C 	0.26410 0.72800 0.02060 -0.14600
C 	C 	0.39550 0.94480 0.43980 0.14100
C 	C 	0.17580 0.56030 0.17280 0.27900
C 	C 	0.20480 0.90850 0.29410 0.30400
C 	C 	0.86910 0.11410 0.93410 -0.16100
C 	C 	0.95890 0.90370 0.09440 -0.15000
C 	C 	0.11530 0.46000 0.84590 -0.27300
C 	C 	0.75710 0.46730 0.35530 -0.06400
C 	C 	0.88800 0.61600 0.90260 -0.26400
C 	C 	0.39410 0.63390 0.02710 0.20600
C 	C 	0.99290 0.96730 0.14470 -0.01100
C 	C 	0.82030 0.61920 0.50380 -0.05800
C 	C 	0.61910 0.43410 0.38590 -0.14900
C 	C 	0.72790 0.34240 0.41010 0.04600
C 	C 	0.64250 0.55280 0.89380 0.08800
C 	C 	0.30000 0.98470 0.22030 0.07900
C 	C 	0.82420 0.17280 0.56030 0.28100
C 	C 	0.38090 0.38590 0.43410 -0.15000
C 	C 	0.20890 0.40560 0.40370 -0.16400
C 	C 	0.35750 0.89380 0.55280 0.08800
C 	C 	0.54520 0.40850 0.20590 0.30400
C 	C 	0.35620 0.44730 0.98430 -0.19300
C 	C 	0.97790 0.08990 0.84240 0.08600
C 	C 	0.14250 0.44720 0.10620 0.08700
C 	C 	0.54110 0.90560 0.09630 -0.16600
C 	C 	0.13470 0.04000 0.34590 -0.23400
C 	C 	0.10750 0.05280 0.60620 0.08800
C 	C 	0.60590 0.02710 0.63390 0.20200
C 	C 	0.89410 0.36610 0.97290 0.20700
C 	C 	0.79520 0.29410 0.90850 0.30500
C 	C 	0.45890 0.09630 0.90560 -0.16800
C 	C 	0.28730 0.77640 0.56240 0.07900
C 	C 	0.10620 0.48430 0.05270 -0.19500
C 	C 	0.67580 0.43970 0.82720 0.28000
C 	C 	0.70000 0.22030 0.98470 0.07800
C 	C 	0.01410 0.52060 0.77200 -0.20200
C 	C 	0.45480 0.20590 0.40850 0.30400
C 	C 	0.29110 0.59630 0.59440 -0.17100
C 	C 	0.38870 0.15730 0.40980 -0.32700
C 	C 	0.92970 0.11920 0.99620 -0.02500
C 	C 	0.42970 0.88080 0.00380 -0.06300
C 	C 	0.89550 0.05520 0.56020 0.14200
C 	C 	0.11200 0.90260 0.61600 -0.27500
C 	C 	0.20000 0.77970 0.01530 0.07800
C 	C 	0.17670 0.48100 0.16740 -0.13300
C 	C 	0.80000 0.01530 0.77970 0.07500
C 	C 	0.55000 0.27970 0.48470 0.07800
C 	C 	0.88090 0.61410 0.56590 -0.16000
C 	C 	0.63470 0.96000 0.65410 -0.22900
C 	C 	0.57030 0.00380 0.88080 -0.07300
C 	C 	0.79110 0.40370 0.40560 -0.16900
C 	C 	0.86200 0.11600 0.59740 -0.27000
C 	C 	0.07420 0.93970 0.67280 0.27700
C 	C 	0.73590 0.02060 0.72800 -0.14500
C 	C 	0.14720 0.62980 0.56710 0.01700
C 	C 	0.22790 0.65760 0.58990 0.04900
C 	C 	0.07330 0.01900 0.66740 -0.13500
C 	C 	0.30220 0.70170 0.95610 0.09700
C 	C 	0.39380 0.94730 0.51570 -0.19200
C 	C 	0.86130 0.34270 0.90980 -0.32500
C 	C 	0.86530 0.34590 0.04000 -0.23100
C 	C 	0.38800 0.38400 0.09740 -0.27300
C 	C 	0.69780 0.95610 0.70170 0.09700
C 	C 	0.64410 0.47290 0.13390 0.20600
C 	C 	0.44780 0.20170 0.54390 0.09700
C 	C 	0.13800 0.59740 0.11600 -0.27500
C 	C 	0.74290 0.64470 0.53270 -0.07200
C 	C 	0.32420 0.82720 0.43970 0.28000
C 	C 	0.55220 0.54390 0.20170 0.09700
C 	C 	0.36910 0.88590 0.06590 -0.15200
C 	C 	0.10450 0.56020 0.05520 0.13900
C 	C 	0.19780 0.04390 0.29830 0.09600
C 	C 	0.82330 0.16740 0.48100 -0.12900
C 	C 	0.85280 0.56710 0.62980 0.03400
C 	C 	0.32030 0.38080 0.49620 -0.06600
C 	C 	0.39250 0.39380 0.94720 0.08900
C 	C 	0.11130 0.59020 0.84270 -0.35900
C 	C 	0.14410 0.52710 0.86610 0.24000
C 	C 	0.61200 0.09740 0.38400 -0.26800
C 	C 	0.95000 0.51530 0.72030 0.13100
C 	C 	0.42580 0.32720 0.06030 0.28000
C 	C 	0.63800 0.40260 0.88400 -0.27200
C 	C 	0.53730 0.93760 0.27640 0.07800
C 	C 	0.67970 0.49620 0.38080 -0.06800
C 	C 	0.64380 0.98430 0.44730 -0.18500
C 	C 	0.61530 0.54000 0.15410 -0.23300
C 	C 	0.11910 0.56590 0.61410 -0.13900
C 	C 	0.04520 0.59150 0.79410 0.32900
C 	C 	0.17970 0.50380 0.61920 -0.07500
C 	C 	0.85620 0.55270 0.01570 -0.18400
C 	C 	0.67670 0.51900 0.83260 -0.13000
C 	C 	0.63870 0.09020 0.65730 -0.32500
C 	C 	0.04110 0.09440 0.90370 -0.19400
C 	C 	0.95480 0.79410 0.59150 0.27600
C 	C 	0.24290 0.35530 0.46730 -0.06600
C 	C 	0.36200 0.88400 0.40260 -0.27200
C 	C 	0.60620 0.51570 0.94730 -0.19200
C 	C 	0.60450 0.43980 0.94480 0.14100
C 	C 	0.27210 0.41010 0.34240 0.04300
C 	C 	0.96270 0.72360 0.06240 0.07700
C 	C 	0.25710 0.53270 0.64470 -0.05900
C 	C 	0.00710 0.14470 0.96730 -0.09800
C 	C 	0.77210 0.58990 0.65760 0.04000
C 	C 	0.85750 0.10620 0.44720 0.08900
C 	C 	0.89720 0.06710 0.87020 0.01900
C 	C 	0.32330 0.83260 0.51900 -0.13100
C 	C 	0.36530 0.65410 0.96000 -0.23300
C 	C 	0.23590 0.97940 0.27200 -0.14600
C 	C 	0.35280 0.43290 0.37020 0.02600
C 	C 	0.10280 0.87020 0.06710 0.02500
C 	C 	0.57330 0.98100 0.33260 -0.12600
C 	C 	0.38470 0.15410 0.54000 -0.23300
C 	C 	0.07030 0.99620 0.11920 -0.12800
C 	C 	0.60280 0.12980 0.93290 0.02400
C 	C 	0.13870 0.90980 0.34270 -0.32900
C 	C 	0.64550 0.06020 0.44480 0.13400
C 	C 	0.88870 0.84270 0.59020 -0.29000
C 	C 	0.70890 0.59440 0.59630 -0.16200
C 	C 	0.35590 0.13390 0.47290 0.20500
C 	C 	0.88470 0.84590 0.46000 -0.18900
C 	C 	0.60750 0.94720 0.39380 0.08300
C 	C 	0.76410 0.27200 0.97940 -0.14600
C 	C 	0.05220 0.45610 0.79830 0.13700
C 	C 	0.89250 0.60620 0.05280 0.08400
C 	C 	0.92580 0.67280 0.93970 0.27700
C 	C 	0.14550 0.93980 0.55520 0.13900
C 	C 	0.14380 0.01570 0.55270 -0.19400
C 	C 	0.80220 0.29830 0.04390 0.09800
C 	C 	0.48590 0.22800 0.47940 -0.14600
C 	C 	0.36130 0.65730 0.09020 -0.32700
C 	C 	0.05000 0.72030 0.51530 0.02300
N 	N 	0.66450 0.18880 0.92920 -0.11000
N 	N 	0.91450 0.57080 0.68880 -0.11600
N 	N 	0.41450 0.42920 0.31120 -0.11100
N 	N 	0.56480 0.26580 0.72240 0.04500
N 	N 	0.68520 0.23420 0.22240 0.04500
N 	N 	0.16450 0.81120 0.07080 -0.11200
N 	N 	0.06480 0.73420 0.27760 0.03300
N 	N 	0.74260 0.53980 0.71440 -0.10500
N 	N 	0.81480 0.77760 0.76580 0.04400
N 	N 	0.43520 0.72240 0.26580 0.04500
N 	N 	0.24260 0.46020 0.28560 -0.10600
N 	N 	0.08550 0.68880 0.57080 -0.10500
N 	N 	0.49260 0.21440 0.96020 -0.10600
N 	N 	0.58550 0.31120 0.42920 -0.11100
N 	N 	0.99260 0.78560 0.03980 -0.08600
N 	N 	0.18520 0.76580 0.77760 0.04600
N 	N 	0.75740 0.28560 0.46020 -0.10500
N 	N 	0.00740 0.03980 0.78560 -0.12200
N 	N 	0.33550 0.92920 0.18880 -0.11100
N 	N 	0.93520 0.27760 0.73420 0.05700
N 	N 	0.25740 0.71440 0.53980 -0.10600
N 	N 	0.31480 0.22240 0.23420 0.04500
N 	N 	0.50740 0.96020 0.21440 -0.10500
N 	N 	0.83550 0.07080 0.81120 -0.10800
Cl	Cl	0.50000 0.10338 0.10338 -0.43200
Cl	Cl	0.25000 0.60338 0.39662 -0.43300
Cl	Cl	0.00000 0.89662 0.89662 -0.45100
Cl	Cl	0.75000 0.39662 0.60338 -0.43000
O 	O 	0.64400 0.23970 0.27900 -0.22100
O 	O 	0.26470 0.73210 0.15094 -0.37000
O 	O 	0.29060 0.77110 0.40610 -0.34500
O 	O 	0.99130 0.76260 0.27570 -0.11000
O 	O 	0.60130 0.27930 0.66250 -0.23800
O 	O 	0.75870 0.26260 0.22430 -0.12700
O 	O 	0.70940 0.40610 0.77110 -0.34400
O 	O 	0.04060 0.90610 0.72890 -0.35000
O 	O 	0.39870 0.66250 0.27930 -0.23800
O 	O 	0.98530 0.76790 0.65094 -0.34400
O 	O 	0.60600 0.26030 0.77900 -0.22100
O 	O 	0.24130 0.22430 0.26260 -0.13300
O 	O 	0.95940 0.72890 0.90610 -0.32800
O 	O 	0.45940 0.27110 0.09390 -0.34400
O 	O 	0.14870 0.77930 0.83750 -0.23900
O 	O 	0.10130 0.72070 0.33750 -0.24400
O 	O 	0.51470 0.34906 0.23210 -0.37000
O 	O 	0.73530 0.15094 0.73210 -0.36900
O 	O 	0.85130 0.83750 0.77930 -0.22900
O 	O 	0.89400 0.22100 0.73970 -0.21700
O 	O 	0.00870 0.27570 0.76260 -0.14900
O 	O 	0.50870 0.72430 0.23740 -0.13000
O 	O 	0.74130 0.77570 0.73740 -0.13000
O 	O 	0.89870 0.33750 0.72070 -0.23200
O 	O 	0.64870 0.22070 0.16250 -0.23800
O 	O 	0.01470 0.65094 0.76790 -0.38900
O 	O 	0.25870 0.73740 0.77570 -0.13000
O 	O 	0.49130 0.23740 0.72430 -0.13000
O 	O 	0.39400 0.77900 0.26030 -0.22100
O 	O 	0.35130 0.16250 0.22070 -0.23900
O 	O 	0.10600 0.73970 0.22100 -0.22600
O 	O 	0.54060 0.09390 0.27110 -0.34300
O 	O 	0.35600 0.27900 0.23970 -0.22200
O 	O 	0.23530 0.84906 0.26790 -0.37000
O 	O 	0.76470 0.26790 0.84906 -0.37000
O 	O 	0.85600 0.72100 0.76030 -0.21500
O 	O 	0.20940 0.59390 0.22890 -0.34500
O 	O 	0.48530 0.23210 0.34906 -0.37000
O 	O 	0.14400 0.76030 0.72100 -0.22300
O 	O 	0.79060 0.22890 0.59390 -0.34300
