data_crystal

_cell_length_a 6.75670
_cell_length_b 16.23100
_cell_length_c 16.35620
_cell_angle_alpha 90.00000
_cell_angle_beta  97.49500
_cell_angle_gamma 90.00000

_symmetry_space_group_name_	'P 1'
_symmetry_space_group_name_H-M	'P 1'

loop_
_symmetry_equiv_pos_as_xyz
  x,y,z

loop_
_atom_site_label
_atom_site_type_symbol
_atom_site_fract_x
_atom_site_fract_y
_atom_site_fract_z
_atom_site_charge
Mg	Mg	0.44386 0.52570 0.41191 1.46200
O 	O 	0.33550 0.41165 0.37594 -0.54100
O 	O 	0.02370 0.41292 0.40750 -0.53200
O 	O 	0.04560 0.10304 0.07986 -0.59200
O 	O 	0.79970 0.07903 0.15441 -0.57800
O 	O 	0.69046 0.47426 0.48059 -1.00100
H 	H 	0.68560 0.42580 0.46640 0.33500
N 	N 	0.56170 0.52710 0.28728 -0.26700
C 	C 	0.15800 0.38733 0.36852 0.44700
C 	C 	0.10320 0.31961 0.30642 -0.15700
C 	C 	0.06800 0.24208 0.33310 0.04600
H 	H 	0.07710 0.23170 0.38940 -0.00000
C 	C 	0.01840 0.17793 0.27709 -0.09900
H 	H 	0.99250 0.12580 0.29670 0.09900
C 	C 	0.00730 0.19055 0.19415 -0.16200
C 	C 	0.03950 0.27082 0.16334 0.04000
C 	C 	0.01550 0.28970 0.07798 -0.12800
H 	H 	0.98310 0.24790 0.03960 0.09300
C 	C 	0.03900 0.36823 0.05132 -0.14900
H 	H 	0.02160 0.37940 0.99510 0.09600
C 	C 	0.08930 0.43243 0.10779 0.03700
H 	H 	0.10600 0.48570 0.08880 -0.00500
C 	C 	0.11360 0.41694 0.19018 -0.13400
H 	H 	0.14670 0.45990 0.22710 0.08200
C 	C 	0.08910 0.33625 0.22066 0.06900
C 	C 	0.94670 0.11889 0.13830 0.51300
C 	C 	0.62180 0.45840 0.25405 0.15100
H 	H 	0.66680 0.41540 0.28920 -0.01400
C 	C 	0.62130 0.44700 0.17118 -0.24100
H 	H 	0.66540 0.39730 0.15170 0.12600
C 	C 	0.55730 0.50740 0.11753 0.20300
C 	C 	0.50510 0.58190 0.15100 -0.22200
H 	H 	0.46850 0.62670 0.11690 0.09600
C 	C 	0.50830 0.58870 0.23553 0.12900
H 	H 	0.47150 0.63860 0.25710 -0.03500
C 	C 	0.54730 0.47780 0.02970 -0.13800
H 	H 	0.60760 0.42850 0.01790 0.01900
C 	C 	0.50880 0.53270 0.02460 -0.13100
H 	H 	0.49410 0.58690 0.00610 0.01100
Mg	Mg	0.55614 0.02570 0.08809 1.45900
O 	O 	0.66450 0.91165 0.12406 -0.53500
O 	O 	0.97630 0.91292 0.09250 -0.48600
O 	O 	0.95440 0.60304 0.42014 -0.43500
O 	O 	0.20030 0.57903 0.34559 -0.52300
O 	O 	0.30954 0.97426 0.01941 -1.01100
H 	H 	0.31440 0.92580 0.03360 0.31300
N 	N 	0.43830 0.02710 0.21272 -0.26500
C 	C 	0.84200 0.88733 0.13148 0.43500
C 	C 	0.89680 0.81961 0.19358 -0.13000
C 	C 	0.93200 0.74208 0.16690 -0.02000
H 	H 	0.92290 0.73170 0.11060 0.03700
C 	C 	0.98160 0.67793 0.22291 0.05800
H 	H 	0.00750 0.62580 0.20330 -0.01900
C 	C 	0.99270 0.69055 0.30585 -0.05700
C 	C 	0.96050 0.77082 0.33666 -0.04400
C 	C 	0.98450 0.78970 0.42202 0.10600
H 	H 	0.01690 0.74790 0.46040 -0.05200
C 	C 	0.96100 0.86823 0.44868 -0.15900
H 	H 	0.97840 0.87940 0.50490 0.09900
C 	C 	0.91070 0.93243 0.39221 0.08100
H 	H 	0.89400 0.98570 0.41120 0.02500
C 	C 	0.88640 0.91694 0.30982 -0.15300
H 	H 	0.85330 0.95990 0.27290 0.11000
C 	C 	0.91090 0.83625 0.27934 0.10700
C 	C 	0.05330 0.61889 0.36170 0.30600
C 	C 	0.37820 0.95840 0.24595 0.09500
H 	H 	0.33320 0.91540 0.21080 -0.01500
C 	C 	0.37870 0.94700 0.32882 -0.08000
H 	H 	0.33460 0.89730 0.34830 0.05000
C 	C 	0.44270 0.00740 0.38247 -0.03800
C 	C 	0.49490 0.08190 0.34900 -0.08300
H 	H 	0.53150 0.12670 0.38310 0.05600
C 	C 	0.49170 0.08870 0.26447 0.04500
H 	H 	0.52850 0.13860 0.24290 0.00200
C 	C 	0.45270 0.97780 0.47030 0.24600
H 	H 	0.39240 0.92850 0.48210 -0.07800
C 	C 	0.49120 0.03270 0.47540 -0.15700
H 	H 	0.50590 0.08690 0.49390 0.06200
Mg	Mg	0.55614 0.47430 0.58809 1.46400
O 	O 	0.66450 0.58835 0.62406 -0.53400
O 	O 	0.97630 0.58708 0.59250 -0.48200
O 	O 	0.95440 0.89696 0.92014 -0.41900
O 	O 	0.20030 0.92097 0.84559 -0.51200
O 	O 	0.30954 0.52574 0.51941 -1.01200
H 	H 	0.31440 0.57420 0.53360 0.32100
N 	N 	0.43830 0.47290 0.71272 -0.24800
C 	C 	0.84200 0.61267 0.63148 0.42500
C 	C 	0.89680 0.68039 0.69358 -0.09600
C 	C 	0.93200 0.75792 0.66690 -0.05100
H 	H 	0.92290 0.76830 0.61060 0.05500
C 	C 	0.98160 0.82207 0.72291 0.08900
H 	H 	0.00750 0.87420 0.70330 -0.02600
C 	C 	0.99270 0.80945 0.80585 -0.08800
C 	C 	0.96050 0.72918 0.83666 0.02600
C 	C 	0.98450 0.71030 0.92202 -0.02200
H 	H 	0.01690 0.75210 0.96040 0.00700
C 	C 	0.96100 0.63177 0.94868 0.04300
H 	H 	0.97840 0.62060 0.00490 -0.00700
C 	C 	0.91070 0.56757 0.89221 -0.05500
H 	H 	0.89400 0.51430 0.91120 0.06900
C 	C 	0.88640 0.58306 0.80982 -0.06000
H 	H 	0.85330 0.54010 0.77290 0.06700
C 	C 	0.91090 0.66375 0.77934 0.04400
C 	C 	0.05330 0.88111 0.86170 0.31700
C 	C 	0.37820 0.54160 0.74595 0.08200
H 	H 	0.33320 0.58460 0.71080 -0.01300
C 	C 	0.37870 0.55300 0.82882 -0.13700
H 	H 	0.33460 0.60270 0.84830 0.06900
C 	C 	0.44270 0.49260 0.88247 0.04000
C 	C 	0.49490 0.41810 0.84900 -0.13000
H 	H 	0.53150 0.37330 0.88310 0.07900
C 	C 	0.49170 0.41130 0.76447 0.07800
H 	H 	0.52850 0.36140 0.74290 -0.00500
C 	C 	0.45270 0.52220 0.97030 0.07000
H 	H 	0.39240 0.57150 0.98210 0.03500
C 	C 	0.49120 0.46730 0.97540 0.03400
H 	H 	0.50590 0.41310 0.99390 0.05200
Mg	Mg	0.44386 0.97430 0.91191 1.46600
O 	O 	0.33550 0.08835 0.87594 -0.53200
O 	O 	0.02370 0.08708 0.90750 -0.51400
O 	O 	0.04560 0.39696 0.57986 -0.56900
O 	O 	0.79970 0.42097 0.65441 -0.56000
O 	O 	0.69046 0.02574 0.98059 -0.98500
H 	H 	0.68560 0.07420 0.96640 0.34200
N 	N 	0.56170 0.97290 0.78728 -0.26000
C 	C 	0.15800 0.11267 0.86852 0.43500
C 	C 	0.10320 0.18039 0.80642 -0.11600
C 	C 	0.06800 0.25792 0.83310 0.01100
H 	H 	0.07710 0.26830 0.88940 0.02200
C 	C 	0.01840 0.32207 0.77709 -0.06500
H 	H 	0.99250 0.37420 0.79670 0.09400
C 	C 	0.00730 0.30945 0.69415 -0.19700
C 	C 	0.03950 0.22918 0.66334 0.12100
C 	C 	0.01550 0.21030 0.57798 -0.27200
H 	H 	0.98310 0.25210 0.53960 0.16200
C 	C 	0.03900 0.13177 0.55132 0.08300
H 	H 	0.02160 0.12060 0.49510 -0.02500
C 	C 	0.08930 0.06757 0.60779 -0.11700
H 	H 	0.10600 0.01430 0.58880 0.04800
C 	C 	0.11360 0.08306 0.69018 -0.02700
H 	H 	0.14670 0.04010 0.72710 0.04000
C 	C 	0.08910 0.16375 0.72066 -0.00100
C 	C 	0.94670 0.38111 0.63830 0.52600
C 	C 	0.62180 0.04160 0.75405 0.15200
H 	H 	0.66680 0.08460 0.78920 -0.01600
C 	C 	0.62130 0.05300 0.67118 -0.29300
H 	H 	0.66540 0.10270 0.65170 0.14400
C 	C 	0.55730 0.99260 0.61753 0.27300
C 	C 	0.50510 0.91810 0.65100 -0.26900
H 	H 	0.46850 0.87330 0.61690 0.11700
C 	C 	0.50830 0.91130 0.73553 0.16100
H 	H 	0.47150 0.86140 0.75710 -0.04300
C 	C 	0.54730 0.02220 0.52970 -0.31900
H 	H 	0.60760 0.07150 0.51790 0.13800
C 	C 	0.50880 0.96730 0.52460 0.06700
H 	H 	0.49410 0.91310 0.50610 -0.00600
Mg	Mg	0.00000 0.50000 0.50000 1.47200
Mg	Mg	-0.00000 0.00000 -0.00000 1.46300
