data_crystal

_cell_length_a 9.02600
_cell_length_b 12.94200
_cell_length_c 18.45700
_cell_angle_alpha 81.71800
_cell_angle_beta  84.77000
_cell_angle_gamma 72.44300

_symmetry_space_group_name_	'P 1'
_symmetry_space_group_name_H-M	'P 1'

loop_
_symmetry_equiv_pos_as_xyz
  x,y,z

loop_
_atom_site_label
_atom_site_type_symbol
_atom_site_fract_x
_atom_site_fract_y
_atom_site_fract_z
_atom_site_charge
Cu	Cu	0.42033 0.30359 0.34712 0.84800
N 	N 	0.27150 0.74249 0.89628 -0.10500
N 	N 	0.16710 0.87937 0.95911 -0.22400
N 	N 	0.22870 0.20651 0.88234 -0.10200
N 	N 	0.07840 0.11082 0.93589 -0.24700
N 	N 	0.22520 0.44730 0.14954 -0.11000
N 	N 	0.33490 0.39482 0.25503 -0.23400
N 	N 	0.12990 0.56899 0.44245 -0.11900
N 	N 	0.30220 0.42376 0.40654 -0.23200
N 	N 	0.72970 0.04472 0.25364 -0.10700
N 	N 	0.53490 0.17838 0.29008 -0.23400
N 	N 	0.36060 0.90710 0.47766 -0.11400
N 	N 	0.51200 0.79725 0.56052 -0.23200
C 	C 	0.27860 0.54860 0.90291 0.11200
C 	C 	0.32710 0.45210 0.87129 -0.17600
C 	C 	0.31620 0.35490 0.91022 0.10300
C 	C 	0.25540 0.35440 0.98248 -0.09500
C 	C 	0.20450 0.44990 0.01502 0.05300
C 	C 	0.21710 0.54740 0.97487 -0.13500
C 	C 	0.28290 0.65260 0.85473 -0.12900
C 	C 	0.13960 0.81620 0.91507 0.08400
C 	C 	0.32290 0.84440 0.96870 0.01700
C 	C 	0.38870 0.75930 0.92970 -0.01000
C 	C 	0.35980 0.25240 0.87320 -0.13300
C 	C 	0.22000 0.11940 0.92959 0.08300
C 	C 	0.98990 0.19860 0.89095 0.05500
C 	C 	0.08300 0.25750 0.85784 -0.05600
C 	C 	0.12540 0.44910 0.09079 -0.11100
C 	C 	0.26190 0.36690 0.20574 0.07900
C 	C 	0.34390 0.49850 0.22965 -0.00200
C 	C 	0.27640 0.53140 0.16429 -0.01000
C 	C 	0.01820 0.77000 0.40735 0.07100
C 	C 	0.94640 0.82210 0.34250 -0.14100
C 	C 	0.96790 0.92090 0.30995 0.12000
C 	C 	0.06040 0.96740 0.34190 -0.15200
C 	C 	0.13120 0.91730 0.40719 0.08800
C 	C 	0.10930 0.81860 0.43891 -0.15100
C 	C 	0.99060 0.66430 0.44377 -0.08600
C 	C 	0.16910 0.49980 0.39197 0.08100
C 	C 	0.34890 0.44660 0.46977 -0.00600
C 	C 	0.24320 0.53610 0.49268 -0.00600
C 	C 	0.88970 0.97780 0.23952 -0.10100
C 	C 	0.68680 0.14240 0.27857 0.09000
C 	C 	0.47750 0.09940 0.27127 0.02600
C 	C 	0.59660 0.01630 0.24869 -0.05300
C 	C 	0.21880 0.97700 0.44365 -0.05500
C 	C 	0.36800 0.85130 0.54497 0.09000
C 	C 	0.60260 0.82080 0.50011 0.00800
C 	C 	0.50950 0.88800 0.44870 -0.00300
H 	H 	0.36850 0.45290 0.82210 0.07700
H 	H 	0.24880 0.28770 0.00980 0.04200
H 	H 	0.18340 0.61320 0.99680 0.08800
H 	H 	0.38120 0.63830 0.82420 0.06300
H 	H 	0.19590 0.67440 0.82140 0.05400
H 	H 	0.03990 0.82230 0.89900 -0.02500
H 	H 	0.37660 0.87460 0.99800 0.01000
H 	H 	0.49580 0.71940 0.92630 0.04300
H 	H 	0.38530 0.26970 0.82040 0.06400
H 	H 	0.45250 0.19860 0.89530 0.06500
H 	H 	0.30530 0.07030 0.95510 -0.01700
H 	H 	0.88170 0.21460 0.88450 -0.00200
H 	H 	0.05320 0.32200 0.82410 0.04100
H 	H 	0.03410 0.51480 0.09130 0.05800
H 	H 	0.08680 0.38430 0.10110 0.05200
H 	H 	0.23840 0.29950 0.20940 -0.02100
H 	H 	0.38990 0.54000 0.25400 0.00700
H 	H 	0.26660 0.59920 0.13460 0.02800
H 	H 	0.88270 0.79000 0.32050 0.07800
H 	H 	0.07610 0.03420 0.31920 0.05000
H 	H 	0.15790 0.78380 0.48320 0.07500
H 	H 	0.95370 0.67270 0.49540 0.05400
H 	H 	0.90720 0.65050 0.41880 0.05800
H 	H 	0.10950 0.50440 0.35110 -0.01500
H 	H 	0.44120 0.40580 0.49370 0.01500
H 	H 	0.24670 0.56940 0.53490 0.01600
H 	H 	0.95050 0.02470 0.21270 0.04600
H 	H 	0.88900 0.92220 0.20800 0.06900
H 	H 	0.75710 0.18080 0.28690 -0.02100
H 	H 	0.37070 0.10250 0.27370 -0.00800
H 	H 	0.58950 0.95150 0.23270 0.05700
H 	H 	0.24650 0.03230 0.40650 0.02500
H 	H 	0.14860 0.01630 0.48170 0.02800
H 	H 	0.28000 0.85100 0.57740 -0.01800
H 	H 	0.71280 0.79420 0.49530 0.01200
H 	H 	0.54160 0.91640 0.40160 0.03900
Cu	Cu	0.57967 0.69641 0.65288 0.85000
N 	N 	0.72850 0.25751 0.10372 -0.09600
N 	N 	0.83290 0.12063 0.04089 -0.23200
N 	N 	0.77130 0.79349 0.11766 -0.10600
N 	N 	0.92160 0.88918 0.06411 -0.21100
N 	N 	0.77480 0.55270 0.85046 -0.09300
N 	N 	0.66510 0.60518 0.74497 -0.23300
N 	N 	0.87010 0.43101 0.55755 -0.08600
N 	N 	0.69780 0.57624 0.59346 -0.23000
N 	N 	0.27030 0.95528 0.74636 -0.09100
N 	N 	0.46510 0.82162 0.70992 -0.22800
N 	N 	0.63940 0.09290 0.52234 -0.09300
N 	N 	0.48800 0.20275 0.43948 -0.23100
C 	C 	0.72140 0.45140 0.09709 0.20400
C 	C 	0.67290 0.54790 0.12871 -0.26700
C 	C 	0.68380 0.64510 0.08978 0.21100
C 	C 	0.74460 0.64560 0.01752 -0.31300
C 	C 	0.79550 0.55010 0.98498 0.25100
C 	C 	0.78290 0.45260 0.02513 -0.28300
C 	C 	0.71710 0.34740 0.14527 -0.17900
C 	C 	0.86040 0.18380 0.08493 0.07700
C 	C 	0.67710 0.15560 0.03130 0.01300
C 	C 	0.61130 0.24070 0.07030 -0.01900
C 	C 	0.64020 0.74760 0.12680 -0.18600
C 	C 	0.78000 0.88060 0.07041 0.08100
C 	C 	0.01010 0.80140 0.10905 -0.06200
C 	C 	0.91700 0.74250 0.14216 0.03200
C 	C 	0.87460 0.55090 0.90921 -0.21200
C 	C 	0.73810 0.63310 0.79426 0.07800
C 	C 	0.65610 0.50150 0.77035 0.00400
C 	C 	0.72360 0.46860 0.83571 -0.01300
C 	C 	0.98180 0.23000 0.59265 0.23600
C 	C 	0.05360 0.17790 0.65750 -0.28600
C 	C 	0.03210 0.07910 0.69005 0.18400
C 	C 	0.93960 0.03260 0.65810 -0.25700
C 	C 	0.86880 0.08270 0.59281 0.20400
C 	C 	0.89070 0.18140 0.56109 -0.26500
C 	C 	0.00940 0.33570 0.55623 -0.22900
C 	C 	0.83090 0.50020 0.60803 0.07700
C 	C 	0.65110 0.55340 0.53023 -0.00100
C 	C 	0.75680 0.46390 0.50732 -0.01200
C 	C 	0.11030 0.02220 0.76048 -0.21700
C 	C 	0.31320 0.85760 0.72143 0.08600
C 	C 	0.52250 0.90060 0.72873 -0.00200
C 	C 	0.40340 0.98370 0.75131 0.01600
C 	C 	0.78120 0.02300 0.55635 -0.23100
C 	C 	0.63200 0.14870 0.45503 0.07600
C 	C 	0.39740 0.17920 0.49989 0.01100
C 	C 	0.49050 0.11200 0.55130 -0.01900
H 	H 	0.63150 0.54710 0.17790 0.10700
H 	H 	0.75120 0.71230 0.99020 0.14400
H 	H 	0.81660 0.38680 0.00320 0.12800
H 	H 	0.61880 0.36170 0.17580 0.07600
H 	H 	0.80410 0.32560 0.17860 0.07600
H 	H 	0.96010 0.17770 0.10100 -0.01600
H 	H 	0.62340 0.12540 0.00200 -0.00500
H 	H 	0.50420 0.28060 0.07370 0.04000
H 	H 	0.61470 0.73030 0.17960 0.07900
H 	H 	0.54750 0.80140 0.10470 0.07400
H 	H 	0.69470 0.92970 0.04490 -0.01400
H 	H 	0.11830 0.78540 0.11550 0.02500
H 	H 	0.94680 0.67800 0.17590 0.02600
H 	H 	0.96590 0.48520 0.90870 0.10500
H 	H 	0.91320 0.61570 0.89890 0.09400
H 	H 	0.76160 0.70050 0.79060 -0.01400
H 	H 	0.61010 0.46000 0.74600 0.00800
H 	H 	0.73340 0.40080 0.86540 0.03800
H 	H 	0.11730 0.21000 0.67950 0.11900
H 	H 	0.92390 0.96580 0.68080 0.11500
H 	H 	0.84210 0.21620 0.51680 0.12100
H 	H 	0.04630 0.32730 0.50460 0.08200
H 	H 	0.09280 0.34950 0.58120 0.08900
H 	H 	0.89050 0.49560 0.64890 -0.00300
H 	H 	0.55880 0.59420 0.50630 0.01300
H 	H 	0.75330 0.43060 0.46510 0.02400
H 	H 	0.04950 0.97530 0.78730 0.08900
H 	H 	0.11100 0.07780 0.79200 0.08900
H 	H 	0.24290 0.81920 0.71310 -0.02200
H 	H 	0.62930 0.89750 0.72630 0.00900
H 	H 	0.41050 0.04850 0.76730 0.01600
H 	H 	0.75350 0.96770 0.59350 0.09700
H 	H 	0.85140 0.98370 0.51830 0.10900
H 	H 	0.72000 0.14900 0.42260 -0.01300
H 	H 	0.28720 0.20580 0.50470 0.00400
H 	H 	0.45840 0.08360 0.59840 0.03500
Cu	Cu	-0.00000 0.00000 -0.00000 0.82400
