data_crystal

_cell_length_a 16.34820
_cell_length_b 16.34820
_cell_length_c 19.50110
_cell_angle_alpha 90.00000
_cell_angle_beta  90.00000
_cell_angle_gamma 120.00000

_symmetry_space_group_name_	'P 1'
_symmetry_space_group_name_H-M	'P 1'

loop_
_symmetry_equiv_pos_as_xyz
  x,y,z

loop_
_atom_site_label
_atom_site_type_symbol
_atom_site_fract_x
_atom_site_fract_y
_atom_site_fract_z
_atom_site_charge
C 	C 	0.29980 0.70570 0.13770 -0.02000
H 	H 	0.24190 0.66380 0.15980 0.03200
Fe	Fe	0.50048 0.78314 0.11677 1.14500
Cl	Cl	0.94523 0.11878 0.26345 -0.37800
Cl	Cl	0.12710 0.88100 0.06778 -0.38300
N 	N 	0.36860 0.68940 0.14618 -0.21100
N 	N 	0.55750 0.74820 0.19539 -0.20500
O 	O 	0.44920 0.82090 0.04437 -0.41800
O 	O 	0.62040 0.87930 0.09031 -0.41600
C 	C 	0.30210 0.78030 0.09836 -0.05700
C 	C 	0.22560 0.79520 0.10170 -0.15600
H 	H 	0.17560 0.75970 0.13300 0.09200
C 	C 	0.22200 0.86080 0.06020 0.20400
C 	C 	0.29190 0.91180 0.01380 -0.13100
H 	H 	0.28840 0.95720 0.98530 0.09500
C 	C 	0.36680 0.89690 0.00870 -0.08000
H 	H 	0.41440 0.93120 0.97550 0.04900
C 	C 	0.37550 0.83280 0.05101 0.13600
C 	C 	0.34740 0.59970 0.17950 -0.31700
H 	H 	0.35840 0.56050 0.14620 0.08800
H 	H 	0.27980 0.56480 0.19240 0.11800
C 	C 	0.40690 0.61370 0.24330 0.45200
C 	C 	0.39550 0.67750 0.29410 -0.76100
H 	H 	0.32830 0.65140 0.30460 0.24300
H 	H 	0.42080 0.74060 0.27420 0.22000
H 	H 	0.42980 0.68170 0.33630 0.23800
C 	C 	0.37170 0.51640 0.27390 -0.78500
H 	H 	0.41290 0.52090 0.31190 0.25000
H 	H 	0.37220 0.47390 0.23870 0.24200
H 	H 	0.30710 0.49160 0.29100 0.25600
C 	C 	0.51020 0.65270 0.22470 -0.31900
H 	H 	0.54480 0.65300 0.26640 0.12100
H 	H 	0.51440 0.60930 0.19130 0.09100
C 	C 	0.63780 0.81000 0.22167 -0.02400
H 	H 	0.65660 0.79130 0.26200 0.05200
C 	C 	0.70020 0.90160 0.19720 -0.03600
C 	C 	0.78180 0.96130 0.23730 -0.17100
H 	H 	0.79060 0.93990 0.28050 0.12800
C 	C 	0.84620 0.04710 0.21450 0.22000
C 	C 	0.83380 0.08090 0.15240 -0.12700
H 	H 	0.87880 0.14280 0.13770 0.10800
C 	C 	0.75650 0.02500 0.11200 -0.07900
H 	H 	0.74880 0.04850 0.06930 0.07600
C 	C 	0.68920 0.93390 0.13317 0.14200
C 	C 	0.29430 0.59410 0.47103 -0.02100
H 	H 	0.33620 0.57810 0.49313 0.03100
Fe	Fe	0.21686 0.71734 0.45010 1.14500
Cl	Cl	0.88122 0.82645 0.59678 -0.37500
Cl	Cl	0.11900 0.24610 0.40111 -0.38400
N 	N 	0.31060 0.67920 0.47951 -0.21100
N 	N 	0.25180 0.80930 0.52872 -0.20600
O 	O 	0.17910 0.62830 0.37770 -0.41900
O 	O 	0.12070 0.74110 0.42364 -0.41700
C 	C 	0.21970 0.52180 0.43169 -0.05700
C 	C 	0.20480 0.43040 0.43503 -0.15800
H 	H 	0.24030 0.41590 0.46633 0.09200
C 	C 	0.13920 0.36120 0.39353 0.20700
C 	C 	0.08820 0.38010 0.34713 -0.14000
H 	H 	0.04280 0.33120 0.31863 0.10500
C 	C 	0.10310 0.46990 0.34203 -0.08700
H 	H 	0.06880 0.48320 0.30883 0.05700
C 	C 	0.16720 0.54270 0.38434 0.13800
C 	C 	0.40030 0.74770 0.51283 -0.31500
H 	H 	0.43950 0.79790 0.47953 0.08700
H 	H 	0.43520 0.71500 0.52573 0.11700
C 	C 	0.38630 0.79320 0.57663 0.45000
C 	C 	0.32250 0.71800 0.62743 -0.76000
H 	H 	0.34860 0.67690 0.63793 0.24200
H 	H 	0.25940 0.68020 0.60753 0.21900
H 	H 	0.31830 0.74810 0.66963 0.23800
C 	C 	0.48360 0.85530 0.60723 -0.78300
H 	H 	0.47910 0.89200 0.64523 0.24800
H 	H 	0.52610 0.89830 0.57203 0.24100
H 	H 	0.50840 0.81550 0.62433 0.25500
C 	C 	0.34730 0.85750 0.55803 -0.31700
H 	H 	0.34700 0.89180 0.59973 0.12000
H 	H 	0.39070 0.90510 0.52463 0.09000
C 	C 	0.19000 0.82780 0.55500 -0.02000
H 	H 	0.20870 0.86530 0.59533 0.05000
C 	C 	0.09840 0.79860 0.53053 -0.04200
C 	C 	0.03870 0.82050 0.57063 -0.16100
H 	H 	0.06010 0.85070 0.61383 0.12500
C 	C 	0.95290 0.79910 0.54783 0.21100
C 	C 	0.91910 0.75290 0.48573 -0.11900
H 	H 	0.85720 0.73600 0.47103 0.10600
C 	C 	0.97500 0.73150 0.44533 -0.09000
H 	H 	0.95150 0.70030 0.40263 0.07800
C 	C 	0.06610 0.75530 0.46650 0.15100
C 	C 	0.40590 0.70020 0.80437 -0.02100
H 	H 	0.42190 0.75810 0.82647 0.03000
Fe	Fe	0.28266 0.49952 0.78344 1.14500
Cl	Cl	0.17355 0.05477 0.93012 -0.37300
Cl	Cl	0.75390 0.87290 0.73445 -0.38900
N 	N 	0.32080 0.63140 0.81285 -0.21100
N 	N 	0.19070 0.44250 0.86206 -0.20500
O 	O 	0.37170 0.55080 0.71104 -0.42000
O 	O 	0.25890 0.37960 0.75698 -0.41600
C 	C 	0.47820 0.69790 0.76503 -0.05800
C 	C 	0.56960 0.77440 0.76837 -0.15800
H 	H 	0.58410 0.82440 0.79967 0.09100
C 	C 	0.63880 0.77800 0.72687 0.20700
C 	C 	0.61990 0.70810 0.68047 -0.14100
H 	H 	0.66880 0.71160 0.65197 0.10400
C 	C 	0.53010 0.63320 0.67537 -0.08700
H 	H 	0.51680 0.58560 0.64217 0.05600
C 	C 	0.45730 0.62450 0.71768 0.13800
C 	C 	0.25230 0.65260 0.84617 -0.31900
H 	H 	0.20210 0.64160 0.81287 0.08800
H 	H 	0.28500 0.72020 0.85907 0.11800
C 	C 	0.20680 0.59310 0.90997 0.45700
C 	C 	0.28200 0.60450 0.96077 -0.78100
H 	H 	0.32310 0.67170 0.97127 0.24600
H 	H 	0.31980 0.57920 0.94087 0.22400
H 	H 	0.25190 0.57020 0.00297 0.24800
C 	C 	0.14470 0.62830 0.94057 -0.78900
H 	H 	0.10800 0.58710 0.97857 0.24900
H 	H 	0.10170 0.62780 0.90537 0.24300
H 	H 	0.18450 0.69290 0.95767 0.25500
C 	C 	0.14250 0.48980 0.89137 -0.32200
H 	H 	0.10820 0.45520 0.93307 0.12100
H 	H 	0.09490 0.48560 0.85797 0.09200
C 	C 	0.17220 0.36220 0.88834 -0.02300
H 	H 	0.13470 0.34340 0.92867 0.05100
C 	C 	0.20140 0.29980 0.86387 -0.03800
C 	C 	0.17950 0.21820 0.90397 -0.16700
H 	H 	0.14930 0.20940 0.94717 0.12600
C 	C 	0.20090 0.15380 0.88117 0.21700
C 	C 	0.24710 0.16620 0.81907 -0.12400
H 	H 	0.26400 0.12120 0.80437 0.10900
C 	C 	0.26850 0.24350 0.77867 -0.08200
H 	H 	0.29970 0.25120 0.73597 0.07700
C 	C 	0.24470 0.31080 0.79984 0.14500
C 	C 	0.70570 0.29980 0.86230 -0.02100
H 	H 	0.66380 0.24190 0.84020 0.03100
Fe	Fe	0.78314 0.50048 0.88323 1.14500
Cl	Cl	0.11878 0.94523 0.73655 -0.37800
Cl	Cl	0.88100 0.12710 0.93222 -0.38700
N 	N 	0.68940 0.36860 0.85382 -0.21100
N 	N 	0.74820 0.55750 0.80461 -0.20500
O 	O 	0.82090 0.44920 0.95563 -0.42100
O 	O 	0.87930 0.62040 0.90969 -0.41600
C 	C 	0.78030 0.30210 0.90164 -0.05800
C 	C 	0.79520 0.22560 0.89830 -0.15800
H 	H 	0.75970 0.17560 0.86700 0.09200
C 	C 	0.86080 0.22200 0.93980 0.20700
C 	C 	0.91180 0.29190 0.98620 -0.14200
H 	H 	0.95720 0.28840 0.01470 0.10400
C 	C 	0.89690 0.36680 0.99130 -0.09100
H 	H 	0.93120 0.41440 0.02450 0.05900
C 	C 	0.83280 0.37550 0.94899 0.13900
C 	C 	0.59970 0.34740 0.82050 -0.31600
H 	H 	0.56050 0.35840 0.85380 0.08700
H 	H 	0.56480 0.27980 0.80760 0.11800
C 	C 	0.61370 0.40690 0.75670 0.45100
C 	C 	0.67750 0.39550 0.70590 -0.76100
H 	H 	0.65140 0.32830 0.69540 0.24300
H 	H 	0.74060 0.42080 0.72580 0.21900
H 	H 	0.68170 0.42980 0.66370 0.23800
C 	C 	0.51640 0.37170 0.72610 -0.78500
H 	H 	0.52090 0.41290 0.68810 0.24900
H 	H 	0.47390 0.37220 0.76130 0.24200
H 	H 	0.49160 0.30710 0.70900 0.25600
C 	C 	0.65270 0.51020 0.77530 -0.31900
H 	H 	0.65300 0.54480 0.73360 0.12100
H 	H 	0.60930 0.51440 0.80870 0.09100
C 	C 	0.81000 0.63780 0.77833 -0.02400
H 	H 	0.79130 0.65660 0.73800 0.05200
C 	C 	0.90160 0.70020 0.80280 -0.03500
C 	C 	0.96130 0.78180 0.76270 -0.17200
H 	H 	0.93990 0.79060 0.71950 0.12800
C 	C 	0.04710 0.84620 0.78550 0.22100
C 	C 	0.08090 0.83380 0.84760 -0.12800
H 	H 	0.14280 0.87880 0.86230 0.10800
C 	C 	0.02500 0.75650 0.88800 -0.07800
H 	H 	0.04850 0.74880 0.93070 0.07400
C 	C 	0.93390 0.68920 0.86683 0.14100
C 	C 	0.59410 0.29430 0.52897 -0.02100
H 	H 	0.57810 0.33620 0.50687 0.03100
Fe	Fe	0.71734 0.21686 0.54990 1.14500
Cl	Cl	0.82645 0.88122 0.40322 -0.37500
Cl	Cl	0.24610 0.11900 0.59889 -0.38400
N 	N 	0.67920 0.31060 0.52049 -0.21100
N 	N 	0.80930 0.25180 0.47128 -0.20600
O 	O 	0.62830 0.17910 0.62230 -0.41900
O 	O 	0.74110 0.12070 0.57636 -0.41700
C 	C 	0.52180 0.21970 0.56831 -0.05700
C 	C 	0.43040 0.20480 0.56497 -0.15800
H 	H 	0.41590 0.24030 0.53367 0.09200
C 	C 	0.36120 0.13920 0.60647 0.20700
C 	C 	0.38010 0.08820 0.65287 -0.14000
H 	H 	0.33120 0.04280 0.68137 0.10500
C 	C 	0.46990 0.10310 0.65797 -0.08700
H 	H 	0.48320 0.06880 0.69117 0.05700
C 	C 	0.54270 0.16720 0.61566 0.13800
C 	C 	0.74770 0.40030 0.48717 -0.31500
H 	H 	0.79790 0.43950 0.52047 0.08700
H 	H 	0.71500 0.43520 0.47427 0.11700
C 	C 	0.79320 0.38630 0.42337 0.45000
C 	C 	0.71800 0.32250 0.37257 -0.76000
H 	H 	0.67690 0.34860 0.36207 0.24300
H 	H 	0.68020 0.25940 0.39247 0.22000
H 	H 	0.74810 0.31830 0.33037 0.23800
C 	C 	0.85530 0.48360 0.39277 -0.78300
H 	H 	0.89200 0.47910 0.35477 0.24800
H 	H 	0.89830 0.52610 0.42797 0.24100
H 	H 	0.81550 0.50840 0.37567 0.25500
C 	C 	0.85750 0.34730 0.44197 -0.31700
H 	H 	0.89180 0.34700 0.40027 0.12000
H 	H 	0.90510 0.39070 0.47537 0.09000
C 	C 	0.82780 0.19000 0.44500 -0.02000
H 	H 	0.86530 0.20870 0.40467 0.05000
C 	C 	0.79860 0.09840 0.46947 -0.04200
C 	C 	0.82050 0.03870 0.42937 -0.16100
H 	H 	0.85070 0.06010 0.38617 0.12500
C 	C 	0.79910 0.95290 0.45217 0.21100
C 	C 	0.75290 0.91910 0.51427 -0.11900
H 	H 	0.73600 0.85720 0.52897 0.10600
C 	C 	0.73150 0.97500 0.55467 -0.09000
H 	H 	0.70030 0.95150 0.59737 0.07800
C 	C 	0.75530 0.06610 0.53350 0.15100
C 	C 	0.70020 0.40590 0.19563 -0.02100
H 	H 	0.75810 0.42190 0.17353 0.03100
Fe	Fe	0.49952 0.28266 0.21656 1.14500
Cl	Cl	0.05477 0.17355 0.06988 -0.37000
Cl	Cl	0.87290 0.75390 0.26555 -0.38900
N 	N 	0.63140 0.32080 0.18715 -0.21100
N 	N 	0.44250 0.19070 0.13794 -0.20500
O 	O 	0.55080 0.37170 0.28896 -0.42000
O 	O 	0.37960 0.25890 0.24302 -0.41600
C 	C 	0.69790 0.47820 0.23497 -0.05700
C 	C 	0.77440 0.56960 0.23163 -0.15800
H 	H 	0.82440 0.58410 0.20033 0.09100
C 	C 	0.77800 0.63880 0.27313 0.20700
C 	C 	0.70810 0.61990 0.31953 -0.14100
H 	H 	0.71160 0.66880 0.34803 0.10400
C 	C 	0.63320 0.53010 0.32463 -0.08700
H 	H 	0.58560 0.51680 0.35783 0.05600
C 	C 	0.62450 0.45730 0.28232 0.13800
C 	C 	0.65260 0.25230 0.15383 -0.31500
H 	H 	0.64160 0.20210 0.18713 0.08700
H 	H 	0.72020 0.28500 0.14093 0.11700
C 	C 	0.59310 0.20680 0.09003 0.44900
C 	C 	0.60450 0.28200 0.03923 -0.75200
H 	H 	0.67170 0.32310 0.02873 0.24100
H 	H 	0.57920 0.31980 0.05913 0.21800
H 	H 	0.57020 0.25190 0.99703 0.23300
C 	C 	0.62830 0.14470 0.05943 -0.78400
H 	H 	0.58710 0.10800 0.02143 0.25100
H 	H 	0.62780 0.10170 0.09463 0.24200
H 	H 	0.69290 0.18450 0.04233 0.25600
C 	C 	0.48980 0.14250 0.10863 -0.31800
H 	H 	0.45520 0.10820 0.06693 0.12100
H 	H 	0.48560 0.09490 0.14203 0.09100
C 	C 	0.36220 0.17220 0.11166 -0.02200
H 	H 	0.34340 0.13470 0.07133 0.05200
C 	C 	0.29980 0.20140 0.13613 -0.03700
C 	C 	0.21820 0.17950 0.09603 -0.16700
H 	H 	0.20940 0.14930 0.05283 0.12800
C 	C 	0.15380 0.20090 0.11883 0.21700
C 	C 	0.16620 0.24710 0.18093 -0.12400
H 	H 	0.12120 0.26400 0.19563 0.10900
C 	C 	0.24350 0.26850 0.22133 -0.08200
H 	H 	0.25120 0.29970 0.26403 0.07700
C 	C 	0.31080 0.24470 0.20016 0.14500
C 	C 	0.68200 0.73480 0.91070 -0.53800
H 	H 	0.71920 0.76730 0.86990 0.19600
H 	H 	0.61590 0.71700 0.90320 0.16700
H 	H 	0.68620 0.67790 0.91920 0.16500
C 	C 	0.71900 0.79760 0.97000 0.16200
H 	H 	0.67060 0.77240 0.00660 -0.03500
H 	H 	0.72840 0.86020 0.95660 -0.01300
C 	C 	0.84260 0.88640 0.05440 0.26300
H 	H 	0.85050 0.94470 0.03270 -0.02200
H 	H 	0.79070 0.86540 0.08820 -0.03900
C 	C 	0.92850 0.91050 0.09140 -0.71600
H 	H 	0.92560 0.85270 0.10830 0.26000
H 	H 	0.93510 0.95140 0.13030 0.25600
H 	H 	0.98280 0.94380 0.06070 0.27400
C 	C 	0.73480 0.68200 0.08930 -0.56400
H 	H 	0.76730 0.71920 0.13010 0.20300
H 	H 	0.71700 0.61590 0.09680 0.17600
H 	H 	0.67790 0.68620 0.08080 0.17300
C 	C 	0.79760 0.71900 0.03000 0.19100
H 	H 	0.77240 0.67060 0.99340 -0.04800
H 	H 	0.86020 0.72840 0.04340 -0.01800
C 	C 	0.88640 0.84260 0.94560 0.25700
H 	H 	0.94470 0.85050 0.96730 -0.02300
H 	H 	0.86540 0.79070 0.91180 -0.03700
C 	C 	0.91050 0.92850 0.90860 -0.70900
H 	H 	0.85270 0.92560 0.89170 0.25700
H 	H 	0.95140 0.93510 0.86970 0.25400
H 	H 	0.94380 0.98280 0.93930 0.27000
N 	N 	0.81190 0.81190 -0.00000 -0.21400
C 	C 	0.26520 0.94720 0.24403 -0.56200
H 	H 	0.23270 0.95190 0.20323 0.20200
H 	H 	0.28300 0.89890 0.23653 0.17400
H 	H 	0.32210 0.00830 0.25253 0.17400
C 	C 	0.20240 0.92140 0.30333 0.18000
H 	H 	0.22760 0.89820 0.33993 -0.04300
H 	H 	0.13980 0.86820 0.28993 -0.01600
C 	C 	0.11360 0.95620 0.38773 0.24600
H 	H 	0.05530 0.90580 0.36603 -0.01700
H 	H 	0.13460 0.92530 0.42153 -0.03400
C 	C 	0.08950 0.01800 0.42473 -0.69000
H 	H 	0.14730 0.07290 0.44163 0.25400
H 	H 	0.04860 0.98370 0.46363 0.24900
H 	H 	0.05620 0.03900 0.39403 0.26900
C 	C 	0.31800 0.05280 0.42263 -0.54100
H 	H 	0.28080 0.04810 0.46343 0.19800
H 	H 	0.38410 0.10110 0.43013 0.16900
H 	H 	0.31380 0.99170 0.41413 0.16400
C 	C 	0.28100 0.07860 0.36333 0.17400
H 	H 	0.32940 0.10180 0.32673 -0.04100
H 	H 	0.27160 0.13180 0.37673 -0.01400
C 	C 	0.15740 0.04380 0.27893 0.28100
H 	H 	0.14950 0.09420 0.30063 -0.02700
H 	H 	0.20930 0.07470 0.24513 -0.04300
C 	C 	0.07150 0.98200 0.24193 -0.74800
H 	H 	0.07440 0.92710 0.22503 0.27000
H 	H 	0.06490 0.01630 0.20303 0.27000
H 	H 	0.01720 0.96100 0.27263 0.28400
N 	N 	0.18810 0.00000 0.33333 -0.21600
C 	C 	0.05280 0.31800 0.57737 -0.54100
H 	H 	0.04810 0.28080 0.53657 0.19800
H 	H 	0.10110 0.38410 0.56987 0.16900
H 	H 	0.99170 0.31380 0.58587 0.16400
C 	C 	0.07860 0.28100 0.63667 0.17400
H 	H 	0.10180 0.32940 0.67327 -0.04100
H 	H 	0.13180 0.27160 0.62327 -0.01400
C 	C 	0.04380 0.15740 0.72107 0.28200
H 	H 	0.09420 0.14950 0.69937 -0.02700
H 	H 	0.07470 0.20930 0.75487 -0.04400
C 	C 	0.98200 0.07150 0.75807 -0.74900
H 	H 	0.92710 0.07440 0.77497 0.27000
H 	H 	0.01630 0.06490 0.79697 0.27000
H 	H 	0.96100 0.01720 0.72737 0.28500
C 	C 	0.94720 0.26520 0.75597 -0.56200
H 	H 	0.95190 0.23270 0.79677 0.20200
H 	H 	0.89890 0.28300 0.76347 0.17400
H 	H 	0.00830 0.32210 0.74747 0.17400
C 	C 	0.92140 0.20240 0.69667 0.18000
H 	H 	0.89820 0.22760 0.66007 -0.04300
H 	H 	0.86820 0.13980 0.71007 -0.01600
C 	C 	0.95620 0.11360 0.61227 0.24600
H 	H 	0.90580 0.05530 0.63397 -0.01800
H 	H 	0.92530 0.13460 0.57847 -0.03400
C 	C 	0.01800 0.08950 0.57527 -0.69000
H 	H 	0.07290 0.14730 0.55837 0.25400
H 	H 	0.98370 0.04860 0.53637 0.24900
H 	H 	0.03900 0.05620 0.60597 0.26900
N 	N 	0.00000 0.18810 0.66667 -0.21600
