data_crystal

_cell_length_a 16.84460
_cell_length_b 15.16380
_cell_length_c 8.37020
_cell_angle_alpha 90.00000
_cell_angle_beta  116.29000
_cell_angle_gamma 90.00000

_symmetry_space_group_name_	'P 1'
_symmetry_space_group_name_H-M	'P 1'

loop_
_symmetry_equiv_pos_as_xyz
  x,y,z

loop_
_atom_site_label
_atom_site_type_symbol
_atom_site_fract_x
_atom_site_fract_y
_atom_site_fract_z
_atom_site_charge
C 	C 	0.12487 0.94120 0.58960 0.36600
C 	C 	0.20569 0.89270 0.72340 -0.13600
C 	C 	0.23000 0.81110 0.68500 0.06700
H 	H 	0.19770 0.78610 0.57320 0.01900
C 	C 	0.30200 0.76650 0.81160 -0.14300
H 	H 	0.31740 0.71170 0.78430 0.09000
C 	C 	0.35163 0.80289 0.97960 0.08200
C 	C 	0.32640 0.88470 0.01630 -0.13000
H 	H 	0.35870 0.91000 0.12790 0.07900
C 	C 	0.25430 0.92910 0.89000 0.05200
H 	H 	0.23840 0.98380 0.91730 0.02100
C 	C 	0.43352 0.66472 0.12230 0.02300
H 	H 	0.38810 0.63350 0.03240 0.01900
C 	C 	0.42978 0.75636 0.11890 -0.02700
O 	O 	0.08836 0.90945 0.43350 -0.47200
O 	O 	0.10011 0.00924 0.63740 -0.44800
C 	C 	0.62487 0.44120 0.58960 0.35900
C 	C 	0.70569 0.39270 0.72340 -0.11700
C 	C 	0.73000 0.31110 0.68500 0.04800
H 	H 	0.69770 0.28610 0.57320 0.03200
C 	C 	0.80200 0.26650 0.81160 -0.10900
H 	H 	0.81740 0.21170 0.78430 0.08300
C 	C 	0.85163 0.30289 0.97960 0.04900
C 	C 	0.82640 0.38470 0.01630 -0.09700
H 	H 	0.85870 0.41000 0.12790 0.08600
C 	C 	0.75430 0.42910 0.89000 0.03500
H 	H 	0.73840 0.48380 0.91730 0.03100
C 	C 	0.93352 0.16472 0.12230 0.07400
H 	H 	0.88810 0.13350 0.03240 0.01100
C 	C 	0.92978 0.25636 0.11890 0.08300
O 	O 	0.58836 0.40945 0.43350 -0.45000
O 	O 	0.60011 0.50924 0.63740 -0.43200
C 	C 	0.87513 0.94120 0.91040 0.35400
C 	C 	0.79431 0.89270 0.77660 -0.12500
C 	C 	0.77000 0.81110 0.81500 0.06300
H 	H 	0.80230 0.78610 0.92680 0.03100
C 	C 	0.69800 0.76650 0.68840 -0.14000
H 	H 	0.68260 0.71170 0.71570 0.09100
C 	C 	0.64837 0.80289 0.52040 0.08600
C 	C 	0.67360 0.88470 0.48370 -0.13500
H 	H 	0.64130 0.91000 0.37210 0.08000
C 	C 	0.74570 0.92910 0.61000 0.05200
H 	H 	0.76160 0.98380 0.58270 0.02300
C 	C 	0.56648 0.66472 0.37770 0.02400
H 	H 	0.61190 0.63350 0.46760 0.01800
C 	C 	0.57022 0.75636 0.38110 -0.02900
O 	O 	0.91164 0.90945 0.06650 -0.41000
O 	O 	0.89989 0.00924 0.86260 -0.40100
C 	C 	0.37513 0.44120 0.91040 0.35900
C 	C 	0.29431 0.39270 0.77660 -0.12500
C 	C 	0.27000 0.31110 0.81500 0.05100
H 	H 	0.30230 0.28610 0.92680 0.02800
C 	C 	0.19800 0.26650 0.68840 -0.12500
H 	H 	0.18260 0.21170 0.71570 0.08000
C 	C 	0.14837 0.30289 0.52040 0.05400
C 	C 	0.17360 0.38470 0.48370 -0.11800
H 	H 	0.14130 0.41000 0.37210 0.06600
C 	C 	0.24570 0.42910 0.61000 0.03900
H 	H 	0.26160 0.48380 0.58270 0.02400
C 	C 	0.06648 0.16472 0.37770 -0.01700
H 	H 	0.11190 0.13350 0.46760 0.02800
C 	C 	0.07022 0.25636 0.38110 0.01800
O 	O 	0.41164 0.40945 0.06650 -0.45000
O 	O 	0.39989 0.50924 0.86260 -0.43400
Zn	Zn	0.00000 0.98363 0.25000 1.20100
Zn	Zn	0.50000 0.48363 0.25000 1.22300
C 	C 	0.50000 0.80130 0.25000 -0.03600
H 	H 	0.50000 0.86270 0.25000 0.04300
N 	N 	0.50000 0.61930 0.25000 -0.23900
C 	C 	0.00000 0.30130 0.25000 -0.18600
H 	H 	0.00000 0.36270 0.25000 0.06700
N 	N 	0.00000 0.11930 0.25000 -0.28200
C 	C 	0.87513 0.05880 0.41040 0.36100
C 	C 	0.79431 0.10730 0.27660 -0.12900
C 	C 	0.77000 0.18890 0.31500 0.06700
H 	H 	0.80230 0.21390 0.42680 0.03100
C 	C 	0.69800 0.23350 0.18840 -0.14400
H 	H 	0.68260 0.28830 0.21570 0.09300
C 	C 	0.64837 0.19711 0.02040 0.09100
C 	C 	0.67360 0.11530 0.98370 -0.14200
H 	H 	0.64130 0.09000 0.87210 0.08300
C 	C 	0.74570 0.07090 0.11000 0.05800
H 	H 	0.76160 0.01620 0.08270 0.02100
C 	C 	0.56648 0.33528 0.87770 0.02600
H 	H 	0.61190 0.36650 0.96760 0.01700
C 	C 	0.57022 0.24364 0.88110 -0.03400
O 	O 	0.91164 0.09055 0.56650 -0.41500
O 	O 	0.89989 0.99076 0.36260 -0.40200
C 	C 	0.37513 0.55880 0.41040 0.36200
C 	C 	0.29431 0.60730 0.27660 -0.13000
C 	C 	0.27000 0.68890 0.31500 0.05800
H 	H 	0.30230 0.71390 0.42680 0.02600
C 	C 	0.19800 0.73350 0.18840 -0.13200
H 	H 	0.18260 0.78830 0.21570 0.08300
C 	C 	0.14837 0.69711 0.02040 0.06400
C 	C 	0.17360 0.61530 0.98370 -0.12900
H 	H 	0.14130 0.59000 0.87210 0.06900
C 	C 	0.24570 0.57090 0.11000 0.04800
H 	H 	0.26160 0.51620 0.08270 0.02100
C 	C 	0.06648 0.83528 0.87770 -0.01400
H 	H 	0.11190 0.86650 0.96760 0.02600
C 	C 	0.07022 0.74364 0.88110 0.01000
O 	O 	0.41164 0.59055 0.56650 -0.45200
O 	O 	0.39989 0.49076 0.36260 -0.43400
C 	C 	0.12487 0.05880 0.08960 0.36800
C 	C 	0.20569 0.10730 0.22340 -0.14300
C 	C 	0.23000 0.18890 0.18500 0.07500
H 	H 	0.19770 0.21390 0.07320 0.01600
C 	C 	0.30200 0.23350 0.31160 -0.15100
H 	H 	0.31740 0.28830 0.28430 0.09300
C 	C 	0.35163 0.19711 0.47960 0.09400
C 	C 	0.32640 0.11530 0.51630 -0.14400
H 	H 	0.35870 0.09000 0.62790 0.08400
C 	C 	0.25430 0.07090 0.39000 0.06400
H 	H 	0.23840 0.01620 0.41730 0.01800
C 	C 	0.43352 0.33528 0.62230 0.02700
H 	H 	0.38810 0.36650 0.53240 0.01700
C 	C 	0.42978 0.24364 0.61890 -0.03400
O 	O 	0.08836 0.09055 0.93350 -0.47200
O 	O 	0.10011 0.99076 0.13740 -0.44800
C 	C 	0.62487 0.55880 0.08960 0.36300
C 	C 	0.70569 0.60730 0.22340 -0.12400
C 	C 	0.73000 0.68890 0.18500 0.05600
H 	H 	0.69770 0.71390 0.07320 0.02900
C 	C 	0.80200 0.73350 0.31160 -0.11900
H 	H 	0.81740 0.78830 0.28430 0.08700
C 	C 	0.85163 0.69711 0.47960 0.06200
C 	C 	0.82640 0.61530 0.51630 -0.11100
H 	H 	0.85870 0.59000 0.62790 0.09000
C 	C 	0.75430 0.57090 0.39000 0.04700
H 	H 	0.73840 0.51620 0.41730 0.02800
C 	C 	0.93352 0.83528 0.62230 0.07800
H 	H 	0.88810 0.86650 0.53240 0.00900
C 	C 	0.92978 0.74364 0.61890 0.07400
O 	O 	0.58836 0.59055 0.93350 -0.45200
O 	O 	0.60011 0.49076 0.13740 -0.43300
Zn	Zn	0.00000 0.01637 0.75000 1.20100
Zn	Zn	0.50000 0.51637 0.75000 1.22300
C 	C 	0.50000 0.19870 0.75000 -0.03100
H 	H 	0.50000 0.13730 0.75000 0.04100
N 	N 	0.50000 0.38070 0.75000 -0.24000
C 	C 	-0.00000 0.69870 0.75000 -0.17900
H 	H 	-0.00000 0.63730 0.75000 0.06400
N 	N 	-0.00000 0.88070 0.75000 -0.28400
