data_crystal

_cell_length_a 10.28900
_cell_length_b 15.76300
_cell_length_c 24.79600
_cell_angle_alpha 90.00000
_cell_angle_beta  112.65000
_cell_angle_gamma 90.00000

_symmetry_space_group_name_	'P 1'
_symmetry_space_group_name_H-M	'P 1'

loop_
_symmetry_equiv_pos_as_xyz
  x,y,z

loop_
_atom_site_label
_atom_site_type_symbol
_atom_site_fract_x
_atom_site_fract_y
_atom_site_fract_z
_atom_site_charge
Zn	Zn	0.74215 0.85377 0.73507 1.16700
Zn	Zn	0.70840 0.98206 0.85549 1.23800
O 	O 	0.61840 0.82370 0.78411 -0.51400
O 	O 	0.59730 0.88460 0.86039 -0.48000
O 	O 	0.38000 0.55040 0.71395 -0.48800
O 	O 	0.27960 0.48320 0.76621 -0.52600
O 	O 	0.92060 0.84500 0.80929 -0.50100
O 	O 	0.89770 0.94100 0.87092 -0.48400
O 	O 	0.23250 0.95270 0.07295 -0.43900
O 	O 	0.43000 0.87880 0.09971 -0.31000
O 	O 	0.34240 0.67293 0.93451 -0.26200
C 	C 	0.38290 0.67800 0.88714 0.16400
C 	C 	0.45780 0.74680 0.88043 -0.10700
H 	H 	0.48060 0.79130 0.90710 0.09000
C 	C 	0.49870 0.74880 0.83327 -0.08000
C 	C 	0.46610 0.68180 0.79408 0.01600
H 	H 	0.49470 0.68320 0.76280 0.03300
C 	C 	0.39110 0.61280 0.80121 -0.09200
C 	C 	0.34950 0.61070 0.84863 -0.10000
H 	H 	0.29990 0.56440 0.85420 0.06700
C 	C 	0.57900 0.82440 0.82495 0.40800
C 	C 	0.34760 0.54230 0.75803 0.40400
C 	C 	0.27240 0.74470 0.94218 0.17900
C 	C 	0.15770 0.77590 0.89677 -0.12000
H 	H 	0.12800 0.75060 0.86010 0.08300
C 	C 	0.08600 0.84590 0.90600 -0.06100
C 	C 	0.13400 0.88340 0.96135 -0.02000
H 	H 	0.08610 0.92970 0.96800 0.06600
C 	C 	0.25290 0.85230 0.00669 -0.02900
C 	C 	0.32250 0.78160 0.99760 -0.13000
H 	H 	0.40070 0.75930 0.02770 0.08600
C 	C 	0.95770 0.87910 0.85759 0.40800
C 	C 	0.31240 0.89680 0.06531 0.32900
Zn	Zn	0.25785 0.35377 0.76493 1.16800
Zn	Zn	0.29160 0.48206 0.64451 1.24000
O 	O 	0.38160 0.32370 0.71589 -0.51300
O 	O 	0.40270 0.38460 0.63961 -0.47900
O 	O 	0.62000 0.05040 0.78605 -0.48800
O 	O 	0.72040 0.98320 0.73379 -0.52700
O 	O 	0.07940 0.34500 0.69071 -0.50200
O 	O 	0.10230 0.44100 0.62908 -0.48300
O 	O 	0.76750 0.45270 0.42705 -0.44000
O 	O 	0.57000 0.37880 0.40029 -0.31100
O 	O 	0.65760 0.17293 0.56549 -0.26100
C 	C 	0.61710 0.17800 0.61286 0.16400
C 	C 	0.54220 0.24680 0.61957 -0.10700
H 	H 	0.51940 0.29130 0.59290 0.09000
C 	C 	0.50130 0.24880 0.66673 -0.08000
C 	C 	0.53390 0.18180 0.70592 0.01600
H 	H 	0.50530 0.18320 0.73720 0.03300
C 	C 	0.60890 0.11280 0.69879 -0.09200
C 	C 	0.65050 0.11070 0.65137 -0.09900
H 	H 	0.70010 0.06440 0.64580 0.06800
C 	C 	0.42100 0.32440 0.67505 0.40800
C 	C 	0.65240 0.04230 0.74197 0.40600
C 	C 	0.72760 0.24470 0.55782 0.17700
C 	C 	0.84230 0.27590 0.60323 -0.11800
H 	H 	0.87200 0.25060 0.63990 0.08200
C 	C 	0.91400 0.34590 0.59400 -0.06300
C 	C 	0.86600 0.38340 0.53865 -0.01600
H 	H 	0.91390 0.42970 0.53200 0.06500
C 	C 	0.74710 0.35230 0.49331 -0.03400
C 	C 	0.67750 0.28160 0.50240 -0.12400
H 	H 	0.59930 0.25930 0.47230 0.08300
C 	C 	0.04230 0.37910 0.64241 0.40900
C 	C 	0.68760 0.39680 0.43469 0.33100
Zn	Zn	0.25785 0.14623 0.26493 1.16800
Zn	Zn	0.29160 0.01794 0.14451 1.23900
O 	O 	0.38160 0.17630 0.21589 -0.51300
O 	O 	0.40270 0.11540 0.13961 -0.47900
O 	O 	0.62000 0.44960 0.28605 -0.48800
O 	O 	0.72040 0.51680 0.23379 -0.52600
O 	O 	0.07940 0.15500 0.19071 -0.50100
O 	O 	0.10230 0.05900 0.12908 -0.48400
O 	O 	0.76750 0.04730 0.92705 -0.43900
O 	O 	0.57000 0.12120 0.90029 -0.31000
O 	O 	0.65760 0.32707 0.06549 -0.26200
C 	C 	0.61710 0.32200 0.11286 0.16400
C 	C 	0.54220 0.25320 0.11957 -0.10700
H 	H 	0.51940 0.20870 0.09290 0.09000
C 	C 	0.50130 0.25120 0.16673 -0.08000
C 	C 	0.53390 0.31820 0.20592 0.01600
H 	H 	0.50530 0.31680 0.23720 0.03300
C 	C 	0.60890 0.38720 0.19879 -0.09200
C 	C 	0.65050 0.38930 0.15137 -0.10000
H 	H 	0.70010 0.43560 0.14580 0.06700
C 	C 	0.42100 0.17560 0.17505 0.40800
C 	C 	0.65240 0.45770 0.24197 0.40400
C 	C 	0.72760 0.25530 0.05782 0.17900
C 	C 	0.84230 0.22410 0.10323 -0.12000
H 	H 	0.87200 0.24940 0.13990 0.08300
C 	C 	0.91400 0.15410 0.09400 -0.06100
C 	C 	0.86600 0.11660 0.03865 -0.02000
H 	H 	0.91390 0.07030 0.03200 0.06600
C 	C 	0.74710 0.14770 0.99331 -0.02900
C 	C 	0.67750 0.21840 0.00240 -0.13000
H 	H 	0.59930 0.24070 0.97230 0.08600
C 	C 	0.04230 0.12090 0.14241 0.40800
C 	C 	0.68760 0.10320 0.93469 0.32900
Zn	Zn	0.74215 0.64623 0.23507 1.16800
Zn	Zn	0.70840 0.51794 0.35549 1.24000
O 	O 	0.61840 0.67630 0.28411 -0.51300
O 	O 	0.59730 0.61540 0.36039 -0.47900
O 	O 	0.38000 0.94960 0.21395 -0.48800
O 	O 	0.27960 0.01680 0.26621 -0.52700
O 	O 	0.92060 0.65500 0.30929 -0.50200
O 	O 	0.89770 0.55900 0.37092 -0.48300
O 	O 	0.23250 0.54730 0.57295 -0.44000
O 	O 	0.43000 0.62120 0.59971 -0.31100
O 	O 	0.34240 0.82707 0.43451 -0.26100
C 	C 	0.38290 0.82200 0.38714 0.16400
C 	C 	0.45780 0.75320 0.38043 -0.10700
H 	H 	0.48060 0.70870 0.40710 0.09000
C 	C 	0.49870 0.75120 0.33327 -0.08000
C 	C 	0.46610 0.81820 0.29408 0.01600
H 	H 	0.49470 0.81680 0.26280 0.03300
C 	C 	0.39110 0.88720 0.30121 -0.09200
C 	C 	0.34950 0.88930 0.34863 -0.09900
H 	H 	0.29990 0.93560 0.35420 0.06800
C 	C 	0.57900 0.67560 0.32495 0.40800
C 	C 	0.34760 0.95770 0.25803 0.40600
C 	C 	0.27240 0.75530 0.44218 0.17700
C 	C 	0.15770 0.72410 0.39677 -0.11800
H 	H 	0.12800 0.74940 0.36010 0.08200
C 	C 	0.08600 0.65410 0.40600 -0.06300
C 	C 	0.13400 0.61660 0.46135 -0.01600
H 	H 	0.08610 0.57030 0.46800 0.06500
C 	C 	0.25290 0.64770 0.50669 -0.03400
C 	C 	0.32250 0.71840 0.49760 -0.12400
H 	H 	0.40070 0.74070 0.52770 0.08300
C 	C 	0.95770 0.62090 0.35759 0.40900
C 	C 	0.31240 0.60320 0.56531 0.33100
