data_crystal

_cell_length_a 21.81800
_cell_length_b 14.70400
_cell_length_c 26.28200
_cell_angle_alpha 90.00000
_cell_angle_beta  126.84000
_cell_angle_gamma 90.00000

_symmetry_space_group_name_	'P 1'
_symmetry_space_group_name_H-M	'P 1'

loop_
_symmetry_equiv_pos_as_xyz
  x,y,z

loop_
_atom_site_label
_atom_site_type_symbol
_atom_site_fract_x
_atom_site_fract_y
_atom_site_fract_z
_atom_site_charge
Co	Co	0.35252 0.35684 0.85780 1.08600
Co	Co	0.44070 0.34273 0.78265 1.18800
Co	Co	0.92629 0.31097 0.65916 1.18800
Co	Co	0.82037 0.32545 0.49178 1.09200
O 	O 	0.38700 0.48770 0.85530 -0.45700
O 	O 	0.41910 0.47330 0.78870 -0.44400
O 	O 	0.52170 0.72530 0.74200 -0.35700
O 	O 	0.52690 0.86080 0.77760 -0.36600
O 	O 	0.55020 0.70130 0.13320 -0.52100
O 	O 	0.44860 0.66590 0.12740 -0.38200
O 	O 	0.18500 0.77390 0.93540 -0.52100
O 	O 	0.17720 0.81140 0.85100 -0.38100
O 	O 	0.44230 0.82720 0.91470 -0.26800
O 	O 	0.33300 0.30150 0.71560 -0.43800
O 	O 	0.27580 0.33660 0.76030 -0.47800
O 	O 	0.00060 0.27580 0.64020 -0.45100
O 	O 	0.92910 0.27320 0.53470 -0.46900
O 	O 	0.99820 0.16840 0.25930 -0.36000
O 	O 	0.95990 0.30490 0.22220 -0.36000
O 	O 	0.08210 0.55830 0.36520 -0.45800
O 	O 	0.13570 0.54760 0.46860 -0.47600
O 	O 	0.12420 0.20290 0.49490 -0.26100
C 	C 	0.44610 0.76630 0.87770 0.20600
C 	C 	0.42640 0.67350 0.87250 -0.15300
H 	H 	0.40830 0.65050 0.89420 0.09000
C 	C 	0.43440 0.61760 0.83470 -0.02200
C 	C 	0.46340 0.65040 0.80350 -0.06100
H 	H 	0.46960 0.61130 0.77910 0.07600
C 	C 	0.48270 0.73920 0.80860 0.00200
C 	C 	0.47520 0.79790 0.84700 -0.16200
H 	H 	0.49010 0.85840 0.85160 0.11300
C 	C 	0.41260 0.51710 0.82600 0.35000
C 	C 	0.51290 0.77650 0.77430 0.27600
C 	C 	0.41140 0.79610 0.94570 0.17400
C 	C 	0.45980 0.76610 0.00740 -0.11400
H 	H 	0.51250 0.76570 0.02860 0.04600
C 	C 	0.42900 0.73670 0.03780 -0.07200
C 	C 	0.34770 0.74420 0.00530 -0.01500
H 	H 	0.32610 0.72520 0.02510 0.01900
C 	C 	0.30220 0.77930 0.94520 -0.05400
C 	C 	0.33370 0.80540 0.91440 -0.12500
H 	H 	0.30280 0.82870 0.87330 0.10000
C 	C 	0.47680 0.69960 0.10110 0.31100
C 	C 	0.21610 0.78850 0.90790 0.31700
C 	C 	0.12630 0.23570 0.54550 0.17500
C 	C 	0.19800 0.25760 0.60250 -0.11600
H 	H 	0.24270 0.25460 0.60560 0.09500
C 	C 	0.19920 0.28430 0.65450 -0.05700
C 	C 	0.13430 0.28830 0.65010 -0.00700
H 	H 	0.13680 0.30670 0.68520 0.04900
C 	C 	0.06400 0.26520 0.59410 -0.05300
C 	C 	0.05940 0.24240 0.54080 -0.11600
H 	H 	0.01200 0.23160 0.50220 0.08600
C 	C 	0.27540 0.31110 0.71530 0.37900
C 	C 	0.99150 0.27390 0.59000 0.39100
C 	C 	0.10010 0.26390 0.44650 0.19200
C 	C 	0.06240 0.22980 0.38520 -0.14700
H 	H 	0.05390 0.16750 0.37810 0.10700
C 	C 	0.03750 0.28760 0.33440 -0.00800
C 	C 	0.04930 0.37970 0.34430 -0.04300
H 	H 	0.03190 0.41830 0.31010 0.07600
C 	C 	0.08720 0.41580 0.40520 -0.04000
C 	C 	0.11220 0.35750 0.45750 -0.13500
H 	H 	0.13610 0.38110 0.49810 0.08800
C 	C 	0.99550 0.25300 0.26750 0.28500
C 	C 	0.10280 0.51770 0.41380 0.39400
Co	Co	0.64748 0.85684 0.64220 1.08600
Co	Co	0.55930 0.84273 0.71735 1.18800
Co	Co	0.07371 0.81097 0.84084 1.18900
Co	Co	0.17963 0.82545 0.00822 1.09000
O 	O 	0.61300 0.98770 0.64470 -0.45500
O 	O 	0.58090 0.97330 0.71130 -0.44300
O 	O 	0.47830 0.22530 0.75800 -0.35800
O 	O 	0.47310 0.36080 0.72240 -0.36600
O 	O 	0.44980 0.20130 0.36680 -0.52100
O 	O 	0.55140 0.16590 0.37260 -0.38200
O 	O 	0.81500 0.27390 0.56460 -0.52300
O 	O 	0.82280 0.31140 0.64900 -0.38200
O 	O 	0.55770 0.32720 0.58530 -0.26700
O 	O 	0.66700 0.80150 0.78440 -0.43800
O 	O 	0.72420 0.83660 0.73970 -0.47800
O 	O 	0.99940 0.77580 0.85980 -0.45600
O 	O 	0.07090 0.77320 0.96530 -0.46900
O 	O 	0.00180 0.66840 0.24070 -0.36000
O 	O 	0.04010 0.80490 0.27780 -0.36100
O 	O 	0.91790 0.05830 0.13480 -0.45800
O 	O 	0.86430 0.04760 0.03140 -0.47400
O 	O 	0.87580 0.70290 0.00510 -0.26000
C 	C 	0.55390 0.26630 0.62230 0.20500
C 	C 	0.57360 0.17350 0.62750 -0.15300
H 	H 	0.59170 0.15050 0.60580 0.09000
C 	C 	0.56560 0.11760 0.66530 -0.02100
C 	C 	0.53660 0.15040 0.69650 -0.06100
H 	H 	0.53040 0.11130 0.72090 0.07600
C 	C 	0.51730 0.23920 0.69140 0.00200
C 	C 	0.52480 0.29790 0.65300 -0.16200
H 	H 	0.50990 0.35840 0.64840 0.11300
C 	C 	0.58740 0.01710 0.67400 0.34600
C 	C 	0.48710 0.27650 0.72570 0.27600
C 	C 	0.58860 0.29610 0.55430 0.16800
C 	C 	0.54020 0.26610 0.49260 -0.10800
H 	H 	0.48750 0.26570 0.47140 0.04500
C 	C 	0.57100 0.23670 0.46220 -0.07600
C 	C 	0.65230 0.24420 0.49470 -0.00800
H 	H 	0.67390 0.22520 0.47490 0.01700
C 	C 	0.69780 0.27930 0.55480 -0.06000
C 	C 	0.66630 0.30540 0.58560 -0.12000
H 	H 	0.69720 0.32870 0.62670 0.09800
C 	C 	0.52320 0.19960 0.39890 0.31300
C 	C 	0.78390 0.28850 0.59210 0.31900
C 	C 	0.87370 0.73570 0.95450 0.17200
C 	C 	0.80200 0.75760 0.89750 -0.11400
H 	H 	0.75730 0.75460 0.89440 0.09400
C 	C 	0.80080 0.78430 0.84550 -0.06000
C 	C 	0.86570 0.78830 0.84990 -0.00300
H 	H 	0.86320 0.80670 0.81480 0.04700
C 	C 	0.93600 0.76520 0.90590 -0.05900
C 	C 	0.94060 0.74240 0.95920 -0.11200
H 	H 	0.98800 0.73160 0.99780 0.08300
C 	C 	0.72460 0.81110 0.78470 0.38000
C 	C 	0.00850 0.77390 0.91000 0.39900
C 	C 	0.89990 0.76390 0.05350 0.19400
C 	C 	0.93760 0.72980 0.11480 -0.14900
H 	H 	0.94610 0.66750 0.12190 0.10800
C 	C 	0.96250 0.78760 0.16560 -0.00300
C 	C 	0.95070 0.87970 0.15570 -0.04500
H 	H 	0.96810 0.91830 0.18990 0.07700
C 	C 	0.91280 0.91580 0.09480 -0.03900
C 	C 	0.88780 0.85750 0.04250 -0.13600
H 	H 	0.86390 0.88110 0.00190 0.08900
C 	C 	0.00450 0.75300 0.23250 0.28000
C 	C 	0.89720 0.01770 0.08620 0.39300
Co	Co	0.64748 0.64316 0.14220 1.08600
Co	Co	0.55930 0.65727 0.21735 1.18800
Co	Co	0.07371 0.68903 0.34084 1.18800
Co	Co	0.17963 0.67455 0.50822 1.09200
O 	O 	0.61300 0.51230 0.14470 -0.45700
O 	O 	0.58090 0.52670 0.21130 -0.44400
O 	O 	0.47830 0.27470 0.25800 -0.35700
O 	O 	0.47310 0.13920 0.22240 -0.36600
O 	O 	0.44980 0.29870 0.86680 -0.52100
O 	O 	0.55140 0.33410 0.87260 -0.38200
O 	O 	0.81500 0.22610 0.06460 -0.52100
O 	O 	0.82280 0.18860 0.14900 -0.38100
O 	O 	0.55770 0.17280 0.08530 -0.26800
O 	O 	0.66700 0.69850 0.28440 -0.43800
O 	O 	0.72420 0.66340 0.23970 -0.47800
O 	O 	0.99940 0.72420 0.35980 -0.45100
O 	O 	0.07090 0.72680 0.46530 -0.46900
O 	O 	0.00180 0.83160 0.74070 -0.36000
O 	O 	0.04010 0.69510 0.77780 -0.36000
O 	O 	0.91790 0.44170 0.63480 -0.45800
O 	O 	0.86430 0.45240 0.53140 -0.47600
O 	O 	0.87580 0.79710 0.50510 -0.26100
C 	C 	0.55390 0.23370 0.12230 0.20600
C 	C 	0.57360 0.32650 0.12750 -0.15300
H 	H 	0.59170 0.34950 0.10580 0.09000
C 	C 	0.56560 0.38240 0.16530 -0.02200
C 	C 	0.53660 0.34960 0.19650 -0.06100
H 	H 	0.53040 0.38870 0.22090 0.07600
C 	C 	0.51730 0.26080 0.19140 0.00200
C 	C 	0.52480 0.20210 0.15300 -0.16200
H 	H 	0.50990 0.14160 0.14840 0.11300
C 	C 	0.58740 0.48290 0.17400 0.35000
C 	C 	0.48710 0.22350 0.22570 0.27600
C 	C 	0.58860 0.20390 0.05430 0.17400
C 	C 	0.54020 0.23390 0.99260 -0.11400
H 	H 	0.48750 0.23430 0.97140 0.04600
C 	C 	0.57100 0.26330 0.96220 -0.07200
C 	C 	0.65230 0.25580 0.99470 -0.01500
H 	H 	0.67390 0.27480 0.97490 0.01900
C 	C 	0.69780 0.22070 0.05480 -0.05400
C 	C 	0.66630 0.19460 0.08560 -0.12500
H 	H 	0.69720 0.17130 0.12670 0.10000
C 	C 	0.52320 0.30040 0.89890 0.31100
C 	C 	0.78390 0.21150 0.09210 0.31700
C 	C 	0.87370 0.76430 0.45450 0.17500
C 	C 	0.80200 0.74240 0.39750 -0.11600
H 	H 	0.75730 0.74540 0.39440 0.09500
C 	C 	0.80080 0.71570 0.34550 -0.05700
C 	C 	0.86570 0.71170 0.34990 -0.00700
H 	H 	0.86320 0.69330 0.31480 0.04900
C 	C 	0.93600 0.73480 0.40590 -0.05300
C 	C 	0.94060 0.75760 0.45920 -0.11600
H 	H 	0.98800 0.76840 0.49780 0.08600
C 	C 	0.72460 0.68890 0.28470 0.37900
C 	C 	0.00850 0.72610 0.41000 0.39100
C 	C 	0.89990 0.73610 0.55350 0.19200
C 	C 	0.93760 0.77020 0.61480 -0.14700
H 	H 	0.94610 0.83250 0.62190 0.10700
C 	C 	0.96250 0.71240 0.66560 -0.00800
C 	C 	0.95070 0.62030 0.65570 -0.04300
H 	H 	0.96810 0.58170 0.68990 0.07600
C 	C 	0.91280 0.58420 0.59480 -0.04000
C 	C 	0.88780 0.64250 0.54250 -0.13500
H 	H 	0.86390 0.61890 0.50190 0.08800
C 	C 	0.00450 0.74700 0.73250 0.28500
C 	C 	0.89720 0.48230 0.58620 0.39400
Co	Co	0.35252 0.14316 0.35780 1.08600
Co	Co	0.44070 0.15727 0.28265 1.18800
Co	Co	0.92629 0.18903 0.15916 1.18900
Co	Co	0.82037 0.17455 0.99178 1.09000
O 	O 	0.38700 0.01230 0.35530 -0.45500
O 	O 	0.41910 0.02670 0.28870 -0.44300
O 	O 	0.52170 0.77470 0.24200 -0.35800
O 	O 	0.52690 0.63920 0.27760 -0.36600
O 	O 	0.55020 0.79870 0.63320 -0.52100
O 	O 	0.44860 0.83410 0.62740 -0.38200
O 	O 	0.18500 0.72610 0.43540 -0.52300
O 	O 	0.17720 0.68860 0.35100 -0.38200
O 	O 	0.44230 0.67280 0.41470 -0.26700
O 	O 	0.33300 0.19850 0.21560 -0.43800
O 	O 	0.27580 0.16340 0.26030 -0.47800
O 	O 	0.00060 0.22420 0.14020 -0.45600
O 	O 	0.92910 0.22680 0.03470 -0.46900
O 	O 	0.99820 0.33160 0.75930 -0.36000
O 	O 	0.95990 0.19510 0.72220 -0.36100
O 	O 	0.08210 0.94170 0.86520 -0.45800
O 	O 	0.13570 0.95240 0.96860 -0.47400
O 	O 	0.12420 0.29710 0.99490 -0.26000
C 	C 	0.44610 0.73370 0.37770 0.20500
C 	C 	0.42640 0.82650 0.37250 -0.15300
H 	H 	0.40830 0.84950 0.39420 0.09000
C 	C 	0.43440 0.88240 0.33470 -0.02100
C 	C 	0.46340 0.84960 0.30350 -0.06100
H 	H 	0.46960 0.88870 0.27910 0.07600
C 	C 	0.48270 0.76080 0.30860 0.00200
C 	C 	0.47520 0.70210 0.34700 -0.16200
H 	H 	0.49010 0.64160 0.35160 0.11300
C 	C 	0.41260 0.98290 0.32600 0.34600
C 	C 	0.51290 0.72350 0.27430 0.27600
C 	C 	0.41140 0.70390 0.44570 0.16800
C 	C 	0.45980 0.73390 0.50740 -0.10800
H 	H 	0.51250 0.73430 0.52860 0.04500
C 	C 	0.42900 0.76330 0.53780 -0.07600
C 	C 	0.34770 0.75580 0.50530 -0.00800
H 	H 	0.32610 0.77480 0.52510 0.01700
C 	C 	0.30220 0.72070 0.44520 -0.06000
C 	C 	0.33370 0.69460 0.41440 -0.12000
H 	H 	0.30280 0.67130 0.37330 0.09800
C 	C 	0.47680 0.80040 0.60110 0.31300
C 	C 	0.21610 0.71150 0.40790 0.31900
C 	C 	0.12630 0.26430 0.04550 0.17200
C 	C 	0.19800 0.24240 0.10250 -0.11400
H 	H 	0.24270 0.24540 0.10560 0.09400
C 	C 	0.19920 0.21570 0.15450 -0.06000
C 	C 	0.13430 0.21170 0.15010 -0.00300
H 	H 	0.13680 0.19330 0.18520 0.04700
C 	C 	0.06400 0.23480 0.09410 -0.05900
C 	C 	0.05940 0.25760 0.04080 -0.11200
H 	H 	0.01200 0.26840 0.00220 0.08300
C 	C 	0.27540 0.18890 0.21530 0.38000
C 	C 	0.99150 0.22610 0.09000 0.39900
C 	C 	0.10010 0.23610 0.94650 0.19400
C 	C 	0.06240 0.27020 0.88520 -0.14900
H 	H 	0.05390 0.33250 0.87810 0.10800
C 	C 	0.03750 0.21240 0.83440 -0.00300
C 	C 	0.04930 0.12030 0.84430 -0.04500
H 	H 	0.03190 0.08170 0.81010 0.07700
C 	C 	0.08720 0.08420 0.90520 -0.03900
C 	C 	0.11220 0.14250 0.95750 -0.13600
H 	H 	0.13610 0.11890 0.99810 0.08900
C 	C 	0.99550 0.24700 0.76750 0.28000
C 	C 	0.10280 0.98230 0.91380 0.39300
