data_crystal

_cell_length_a 10.11700
_cell_length_b 16.76700
_cell_length_c 22.41500
_cell_angle_alpha 90.00000
_cell_angle_beta  90.00000
_cell_angle_gamma 90.00000

_symmetry_space_group_name_	'P 1'
_symmetry_space_group_name_H-M	'P 1'

loop_
_symmetry_equiv_pos_as_xyz
  x,y,z

loop_
_atom_site_label
_atom_site_type_symbol
_atom_site_fract_x
_atom_site_fract_y
_atom_site_fract_z
_atom_site_charge
Co	Co	0.98150 0.88472 0.63937 1.18800
Co	Co	0.76740 0.83612 0.75616 1.09100
O 	O 	0.00130 0.97760 0.95080 -0.27700
O 	O 	0.95030 0.89250 0.73680 -0.52700
O 	O 	0.01550 0.99440 0.68730 -0.38200
O 	O 	0.15650 0.23870 0.78630 -0.46900
O 	O 	0.05000 0.26990 0.87110 -0.43600
O 	O 	0.38980 0.07900 0.06920 -0.36100
O 	O 	0.30470 0.13350 0.14910 -0.35700
O 	O 	0.69100 0.07740 0.10400 -0.42000
O 	O 	0.81800 0.11800 0.18110 -0.49300
C 	C 	0.01500 0.01880 0.89820 0.19000
C 	C 	0.99700 0.97610 0.84710 -0.12800
H 	H 	0.97200 0.92290 0.85020 0.05600
C 	C 	0.01350 0.00740 0.79320 -0.05900
C 	C 	0.05170 0.08650 0.78880 -0.02100
H 	H 	0.06780 0.10860 0.75150 0.05200
C 	C 	0.06630 0.13320 0.84000 -0.04100
C 	C 	0.04300 0.09860 0.89460 -0.13900
H 	H 	0.04620 0.12940 0.92900 0.09700
C 	C 	0.01700 0.01920 0.00280 0.19800
C 	C 	0.90770 0.03880 0.03790 -0.14100
H 	H 	0.82370 0.02760 0.02330 0.10200
C 	C 	0.91820 0.07280 0.09130 -0.01800
C 	C 	0.04500 0.09410 0.11300 -0.06000
H 	H 	0.05440 0.11920 0.14980 0.06400
C 	C 	0.15660 0.07610 0.07770 0.01200
C 	C 	0.14360 0.03830 0.02570 -0.16000
H 	H 	0.21870 0.02430 0.00410 0.10800
C 	C 	0.99020 0.96380 0.73590 0.32500
C 	C 	0.09260 0.22070 0.83230 0.36300
C 	C 	0.80150 0.09160 0.13150 0.36400
C 	C 	0.29290 0.09780 0.10170 0.27700
Co	Co	0.51850 0.11528 0.13937 1.18900
Co	Co	0.73260 0.16388 0.25616 1.09100
O 	O 	0.49870 0.02240 0.45080 -0.28100
O 	O 	0.54970 0.10750 0.23680 -0.52800
O 	O 	0.48450 0.00560 0.18730 -0.38500
O 	O 	0.34350 0.76130 0.28630 -0.46900
O 	O 	0.45000 0.73010 0.37110 -0.43600
O 	O 	0.11020 0.92100 0.56920 -0.36000
O 	O 	0.19530 0.86650 0.64910 -0.35600
O 	O 	0.80900 0.92260 0.60400 -0.42100
O 	O 	0.68200 0.88200 0.68110 -0.49300
C 	C 	0.48500 0.98120 0.39820 0.19100
C 	C 	0.50300 0.02390 0.34710 -0.12600
H 	H 	0.52800 0.07710 0.35020 0.05600
C 	C 	0.48650 0.99260 0.29320 -0.06200
C 	C 	0.44830 0.91350 0.28880 -0.01900
H 	H 	0.43220 0.89140 0.25150 0.05200
C 	C 	0.43370 0.86680 0.34000 -0.04100
C 	C 	0.45700 0.90140 0.39460 -0.13900
H 	H 	0.45380 0.87060 0.42900 0.09800
C 	C 	0.48300 0.98080 0.50280 0.20300
C 	C 	0.59230 0.96120 0.53790 -0.14600
H 	H 	0.67630 0.97240 0.52330 0.10300
C 	C 	0.58180 0.92720 0.59130 -0.02000
C 	C 	0.45500 0.90590 0.61300 -0.05800
H 	H 	0.44560 0.88080 0.64980 0.06400
C 	C 	0.34340 0.92390 0.57770 0.01200
C 	C 	0.35640 0.96170 0.52570 -0.16200
H 	H 	0.28130 0.97570 0.50410 0.10900
C 	C 	0.50980 0.03620 0.23590 0.33000
C 	C 	0.40740 0.77930 0.33230 0.36300
C 	C 	0.69850 0.90840 0.63150 0.36400
C 	C 	0.20710 0.90220 0.60170 0.27600
Co	Co	0.01850 0.38472 0.86063 1.18900
Co	Co	0.23260 0.33612 0.74384 1.09100
O 	O 	0.99870 0.47760 0.54920 -0.28200
O 	O 	0.04970 0.39250 0.76320 -0.52700
O 	O 	0.98450 0.49440 0.81270 -0.38400
O 	O 	0.84350 0.73870 0.71370 -0.46900
O 	O 	0.95000 0.76990 0.62890 -0.43600
O 	O 	0.61020 0.57900 0.43080 -0.36100
O 	O 	0.69530 0.63350 0.35090 -0.35700
O 	O 	0.30900 0.57740 0.39600 -0.42000
O 	O 	0.18200 0.61800 0.31890 -0.49300
C 	C 	0.98500 0.51880 0.60180 0.19500
C 	C 	0.00300 0.47610 0.65290 -0.13100
H 	H 	0.02800 0.42290 0.64980 0.05700
C 	C 	0.98650 0.50740 0.70680 -0.05700
C 	C 	0.94830 0.58650 0.71120 -0.02200
H 	H 	0.93220 0.60860 0.74850 0.05300
C 	C 	0.93370 0.63320 0.66000 -0.03900
C 	C 	0.95700 0.59860 0.60540 -0.14200
H 	H 	0.95380 0.62940 0.57100 0.09900
C 	C 	0.98300 0.51920 0.49720 0.20400
C 	C 	0.09230 0.53880 0.46210 -0.14600
H 	H 	0.17630 0.52760 0.47670 0.10400
C 	C 	0.08180 0.57280 0.40870 -0.01800
C 	C 	0.95500 0.59410 0.38700 -0.05900
H 	H 	0.94560 0.61920 0.35020 0.06400
C 	C 	0.84340 0.57610 0.42230 0.01300
C 	C 	0.85640 0.53830 0.47430 -0.16300
H 	H 	0.78130 0.52430 0.49590 0.10900
C 	C 	0.00980 0.46380 0.76410 0.32700
C 	C 	0.90740 0.72070 0.66770 0.36200
C 	C 	0.19850 0.59160 0.36850 0.36300
C 	C 	0.70710 0.59780 0.39830 0.27600
Co	Co	0.48150 0.61528 0.36063 1.18900
Co	Co	0.26740 0.66388 0.24384 1.09100
O 	O 	0.50130 0.52240 0.04920 -0.28200
O 	O 	0.45030 0.60750 0.26320 -0.52700
O 	O 	0.51550 0.50560 0.31270 -0.38500
O 	O 	0.65650 0.26130 0.21370 -0.46800
O 	O 	0.55000 0.23010 0.12890 -0.43500
O 	O 	0.88980 0.42100 0.93080 -0.36100
O 	O 	0.80470 0.36650 0.85090 -0.35700
O 	O 	0.19100 0.42260 0.89600 -0.42000
O 	O 	0.31800 0.38200 0.81890 -0.49300
C 	C 	0.51500 0.48120 0.10180 0.19500
C 	C 	0.49700 0.52390 0.15290 -0.13100
H 	H 	0.47200 0.57710 0.14980 0.05700
C 	C 	0.51350 0.49260 0.20680 -0.05700
C 	C 	0.55170 0.41350 0.21120 -0.02200
H 	H 	0.56780 0.39140 0.24850 0.05300
C 	C 	0.56630 0.36680 0.16000 -0.03900
C 	C 	0.54300 0.40140 0.10540 -0.14200
H 	H 	0.54620 0.37060 0.07100 0.09900
C 	C 	0.51700 0.48080 0.99720 0.20400
C 	C 	0.40770 0.46120 0.96210 -0.14600
H 	H 	0.32370 0.47240 0.97670 0.10400
C 	C 	0.41820 0.42720 0.90870 -0.01900
C 	C 	0.54500 0.40590 0.88700 -0.05800
H 	H 	0.55440 0.38080 0.85020 0.06400
C 	C 	0.65660 0.42390 0.92230 0.01300
C 	C 	0.64360 0.46170 0.97430 -0.16300
H 	H 	0.71870 0.47570 0.99590 0.10900
C 	C 	0.49020 0.53620 0.26410 0.32800
C 	C 	0.59260 0.27930 0.16770 0.36200
C 	C 	0.30150 0.40840 0.86850 0.36400
C 	C 	0.79290 0.40220 0.89830 0.27600
