data_crystal

_cell_length_a 8.96800
_cell_length_b 15.96400
_cell_length_c 19.73700
_cell_angle_alpha 77.56000
_cell_angle_beta  85.31000
_cell_angle_gamma 81.57000

_symmetry_space_group_name_	'P 1'
_symmetry_space_group_name_H-M	'P 1'

loop_
_symmetry_equiv_pos_as_xyz
  x,y,z

loop_
_atom_site_label
_atom_site_type_symbol
_atom_site_fract_x
_atom_site_fract_y
_atom_site_fract_z
_atom_site_charge
Cu	Cu	0.16269 0.91718 0.01937 0.84200
Cu	Cu	0.30519 0.44284 0.67416 0.85800
Cl	Cl	0.32715 0.96608 0.41715 -0.38900
N 	N 	0.07660 0.96831 0.92425 -0.21700
N 	N 	0.92730 0.00676 0.91350 -0.21600
N 	N 	0.03950 0.99189 0.81315 -0.10600
N 	N 	0.05390 0.00121 0.74026 -0.08300
N 	N 	0.38320 0.87546 0.00409 -0.22800
N 	N 	0.74180 0.69357 0.88807 -0.08100
N 	N 	0.74500 0.63020 0.84733 -0.08200
N 	N 	0.08690 0.48051 0.69952 -0.22300
N 	N 	0.05320 0.80614 0.05888 -0.21300
N 	N 	0.98320 0.52642 0.02456 -0.07800
N 	N 	0.45480 0.52455 0.62931 -0.22500
N 	N 	0.94940 0.52318 0.52130 -0.09500
N 	N 	0.40120 0.39394 0.77065 -0.21300
N 	N 	0.51630 0.46598 0.98179 -0.08200
N 	N 	0.32110 0.34190 0.62876 -0.31700
C 	C 	0.17800 0.96424 0.71758 0.02500
H 	H 	0.25050 0.93340 0.74960 0.03100
C 	C 	0.21060 0.96864 0.64308 -0.03800
C 	C 	0.33670 0.91620 0.62298 0.04200
H 	H 	0.39850 0.88000 0.65750 0.02500
C 	C 	0.37380 0.91550 0.55383 -0.18200
H 	H 	0.45960 0.87900 0.54060 0.10600
C 	C 	0.28460 0.96862 0.50457 0.24800
C 	C 	0.16230 0.02416 0.52236 -0.19000
H 	H 	0.10460 0.06270 0.48750 0.11500
C 	C 	0.12500 0.02278 0.59235 0.03200
H 	H 	0.03930 0.05960 0.60530 0.03900
C 	C 	0.90890 0.01912 0.84683 0.08800
H 	H 	0.81730 0.04360 0.82510 -0.00200
C 	C 	0.14000 0.96099 0.86341 0.08500
H 	H 	0.24180 0.93740 0.85550 -0.00900
C 	C 	0.49310 0.90222 0.03333 0.03000
H 	H 	0.46530 0.94050 0.06440 -0.00600
C 	C 	0.64460 0.87631 0.02014 -0.07400
H 	H 	0.71900 0.89820 0.04060 0.02900
C 	C 	0.68680 0.81871 0.97723 -0.02900
H 	H 	0.79050 0.80090 0.96720 0.04900
C 	C 	0.57540 0.78674 0.94851 -0.00400
C 	C 	0.42630 0.81863 0.96235 0.00900
H 	H 	0.35000 0.79930 0.94120 0.00500
C 	C 	0.60700 0.72087 0.90590 0.01800
H 	H 	0.52560 0.69820 0.89140 0.03900
C 	C 	0.87490 0.61496 0.81778 0.01700
H 	H 	0.95380 0.64550 0.82460 0.03800
C 	C 	0.90450 0.55133 0.77358 -0.00600
C 	C 	0.79910 0.49922 0.76472 -0.02500
H 	H 	0.70150 0.50450 0.78730 0.05000
C 	C 	0.83790 0.43984 0.72278 -0.07100
H 	H 	0.76650 0.40450 0.71560 0.05200
C 	C 	0.98190 0.43191 0.69113 0.03700
H 	H 	0.00730 0.39060 0.66250 0.00200
C 	C 	0.04520 0.53998 0.73946 0.00900
H 	H 	0.11690 0.57630 0.74450 0.00700
C 	C 	0.97540 0.79312 0.12058 0.03100
H 	H 	0.96270 0.83770 0.14640 0.00700
C 	C 	0.91300 0.71803 0.14846 -0.06800
H 	H 	0.85840 0.71180 0.19220 0.04300
C 	C 	0.93110 0.65233 0.11200 -0.02600
H 	H 	0.89040 0.59990 0.13050 0.04900
C 	C 	0.01050 0.66408 0.04697 -0.00200
C 	C 	0.06700 0.74235 0.02340 0.00500
H 	H 	0.11900 0.75130 0.97910 0.01100
C 	C 	0.03360 0.59917 0.00370 0.01700
H 	H 	0.08660 0.61100 0.95970 0.04100
C 	C 	0.46700 0.59600 0.65266 0.04700
H 	H 	0.38830 0.61540 0.68320 -0.00800
C 	C 	0.58640 0.64295 0.63510 -0.08800
H 	H 	0.58880 0.69370 0.65260 0.06100
C 	C 	0.70300 0.61502 0.59152 -0.02000
H 	H 	0.78750 0.64570 0.57910 0.03900
C 	C 	0.69420 0.54092 0.56611 -0.01600
C 	C 	0.56660 0.49854 0.58566 0.00700
H 	H 	0.55860 0.44910 0.56730 0.00600
C 	C 	0.81660 0.50261 0.52361 0.00600
H 	H 	0.79680 0.46220 0.49760 0.02200
C 	C 	0.48240 0.31561 0.78687 0.03700
H 	H 	0.48250 0.27650 0.75680 0.00100
C 	C 	0.56600 0.28901 0.84539 -0.07200
H 	H 	0.62530 0.23370 0.85390 0.04200
C 	C 	0.56270 0.34347 0.89140 -0.02400
H 	H 	0.61990 0.32660 0.93170 0.04600
C 	C 	0.47320 0.42393 0.87730 -0.00700
C 	C 	0.39820 0.44586 0.81584 0.01200
H 	H 	0.34080 0.50160 0.80510 0.00600
C 	C 	0.45570 0.48530 0.92389 0.02300
H 	H 	0.39800 0.54050 0.91030 0.03700
C 	C 	0.33010 0.28263 0.60501 0.28700
C 	C 	0.34420 0.20620 0.57445 -0.72500
H 	H 	0.44710 0.19520 0.55450 0.25100
H 	H 	0.27230 0.21590 0.53780 0.23500
H 	H 	0.32270 0.15610 0.61050 0.24700
Cu	Cu	0.83731 0.08282 0.98063 0.84100
Cu	Cu	0.69481 0.55716 0.32584 0.85700
Cl	Cl	0.67285 0.03392 0.58285 -0.39000
N 	N 	0.92340 0.03169 0.07575 -0.21800
N 	N 	0.07270 0.99324 0.08650 -0.21700
N 	N 	0.96050 0.00811 0.18685 -0.10700
N 	N 	0.94610 0.99879 0.25974 -0.08300
N 	N 	0.61680 0.12454 0.99591 -0.22800
N 	N 	0.25820 0.30643 0.11193 -0.08100
N 	N 	0.25500 0.36980 0.15267 -0.08200
N 	N 	0.91310 0.51949 0.30048 -0.22300
N 	N 	0.94680 0.19386 0.94112 -0.21300
N 	N 	0.01680 0.47358 0.97544 -0.07800
N 	N 	0.54520 0.47545 0.37069 -0.22500
N 	N 	0.05060 0.47682 0.47870 -0.09500
N 	N 	0.59880 0.60606 0.22935 -0.21300
N 	N 	0.48370 0.53402 0.01821 -0.08200
N 	N 	0.67890 0.65810 0.37124 -0.31700
C 	C 	0.82200 0.03576 0.28242 0.02500
H 	H 	0.74950 0.06660 0.25040 0.03100
C 	C 	0.78940 0.03136 0.35692 -0.03800
C 	C 	0.66330 0.08380 0.37702 0.04200
H 	H 	0.60150 0.12000 0.34250 0.02500
C 	C 	0.62620 0.08450 0.44617 -0.18200
H 	H 	0.54040 0.12100 0.45940 0.10600
C 	C 	0.71540 0.03138 0.49543 0.24800
C 	C 	0.83770 0.97584 0.47764 -0.19000
H 	H 	0.89540 0.93730 0.51250 0.11500
C 	C 	0.87500 0.97722 0.40765 0.03200
H 	H 	0.96070 0.94040 0.39470 0.03900
C 	C 	0.09110 0.98088 0.15317 0.08800
H 	H 	0.18270 0.95640 0.17490 -0.00200
C 	C 	0.86000 0.03901 0.13659 0.08500
H 	H 	0.75820 0.06260 0.14450 -0.00900
C 	C 	0.50690 0.09778 0.96667 0.03000
H 	H 	0.53470 0.05950 0.93560 -0.00600
C 	C 	0.35540 0.12369 0.97986 -0.07400
H 	H 	0.28100 0.10180 0.95940 0.02900
C 	C 	0.31320 0.18129 0.02277 -0.02900
H 	H 	0.20950 0.19910 0.03280 0.04900
C 	C 	0.42460 0.21326 0.05149 -0.00400
C 	C 	0.57370 0.18137 0.03765 0.00900
H 	H 	0.65000 0.20070 0.05880 0.00500
C 	C 	0.39300 0.27913 0.09410 0.01800
H 	H 	0.47440 0.30180 0.10860 0.03900
C 	C 	0.12510 0.38504 0.18222 0.01700
H 	H 	0.04620 0.35450 0.17540 0.03800
C 	C 	0.09550 0.44867 0.22642 -0.00600
C 	C 	0.20090 0.50078 0.23528 -0.02500
H 	H 	0.29850 0.49550 0.21270 0.05000
C 	C 	0.16210 0.56016 0.27722 -0.07100
H 	H 	0.23350 0.59550 0.28440 0.05200
C 	C 	0.01810 0.56809 0.30887 0.03700
H 	H 	0.99270 0.60940 0.33750 0.00200
C 	C 	0.95480 0.46002 0.26054 0.00900
H 	H 	0.88310 0.42370 0.25550 0.00700
C 	C 	0.02460 0.20688 0.87942 0.03100
H 	H 	0.03730 0.16230 0.85360 0.00700
C 	C 	0.08700 0.28197 0.85154 -0.06800
H 	H 	0.14160 0.28820 0.80780 0.04300
C 	C 	0.06890 0.34767 0.88800 -0.02600
H 	H 	0.10960 0.40010 0.86950 0.04900
C 	C 	0.98950 0.33592 0.95303 -0.00200
C 	C 	0.93300 0.25765 0.97660 0.00500
H 	H 	0.88100 0.24870 0.02090 0.01100
C 	C 	0.96640 0.40083 0.99630 0.01700
H 	H 	0.91340 0.38900 0.04030 0.04100
C 	C 	0.53300 0.40400 0.34734 0.04700
H 	H 	0.61170 0.38460 0.31680 -0.00800
C 	C 	0.41360 0.35705 0.36490 -0.08800
H 	H 	0.41120 0.30630 0.34740 0.06100
C 	C 	0.29700 0.38498 0.40848 -0.02000
H 	H 	0.21250 0.35430 0.42090 0.03900
C 	C 	0.30580 0.45908 0.43389 -0.01600
C 	C 	0.43340 0.50146 0.41434 0.00700
H 	H 	0.44140 0.55090 0.43270 0.00600
C 	C 	0.18340 0.49739 0.47639 0.00600
H 	H 	0.20320 0.53780 0.50240 0.02200
C 	C 	0.51760 0.68439 0.21313 0.03700
H 	H 	0.51750 0.72350 0.24320 0.00100
C 	C 	0.43400 0.71099 0.15461 -0.07200
H 	H 	0.37470 0.76630 0.14610 0.04200
C 	C 	0.43730 0.65653 0.10860 -0.02400
H 	H 	0.38010 0.67340 0.06830 0.04600
C 	C 	0.52680 0.57607 0.12270 -0.00700
C 	C 	0.60180 0.55414 0.18416 0.01200
H 	H 	0.65920 0.49840 0.19490 0.00600
C 	C 	0.54430 0.51470 0.07611 0.02300
H 	H 	0.60200 0.45950 0.08970 0.03700
C 	C 	0.66990 0.71737 0.39499 0.28700
C 	C 	0.65580 0.79380 0.42555 -0.72500
H 	H 	0.55290 0.80480 0.44550 0.25100
H 	H 	0.72770 0.78410 0.46220 0.23500
H 	H 	0.67730 0.84390 0.38950 0.24700
