data_crystal

_cell_length_a 11.61640
_cell_length_b 16.34160
_cell_length_c 24.19800
_cell_angle_alpha 90.00000
_cell_angle_beta  99.02000
_cell_angle_gamma 90.00000

_symmetry_space_group_name_	'P 1'
_symmetry_space_group_name_H-M	'P 1'

loop_
_symmetry_equiv_pos_as_xyz
  x,y,z

loop_
_atom_site_label
_atom_site_type_symbol
_atom_site_fract_x
_atom_site_fract_y
_atom_site_fract_z
_atom_site_charge
Co	Co	0.75508 0.64948 0.26112 1.14700
Co	Co	0.62700 0.50288 0.48782 1.09000
C 	C 	0.04330 0.51390 0.34230 -0.01000
H 	H 	0.12360 0.50700 0.35050 0.03800
C 	C 	0.96140 0.46370 0.35911 0.05700
C 	C 	0.85440 0.49950 0.33690 -0.02000
H 	H 	0.78200 0.47890 0.34170 0.04000
C 	C 	0.98080 0.38480 0.39120 -0.24400
H 	H 	0.05980 0.38350 0.41140 0.10800
H 	H 	0.92770 0.38190 0.41830 0.11000
C 	C 	0.96160 0.31240 0.35260 0.06300
C 	C 	0.04010 0.27150 0.32750 -0.00800
H 	H 	0.12030 0.28000 0.33350 0.03600
C 	C 	0.85620 0.28030 0.32720 -0.01900
H 	H 	0.78420 0.29840 0.33440 0.04900
C 	C 	0.78590 0.79710 0.34610 -0.01400
H 	H 	0.85260 0.81660 0.33380 0.03400
C 	C 	0.73000 0.83620 0.38630 0.05000
C 	C 	0.63780 0.78700 0.39150 -0.00000
H 	H 	0.58280 0.79630 0.41480 0.03500
C 	C 	0.76490 0.91460 0.41760 -0.22100
H 	H 	0.84840 0.91410 0.43000 0.09100
H 	H 	0.72720 0.91690 0.45060 0.09500
C 	C 	0.73320 0.99050 0.38290 0.05700
C 	C 	0.75820 0.00890 0.32930 -0.01900
H 	H 	0.79650 0.97330 0.30830 0.04200
C 	C 	0.67740 0.05930 0.39700 -0.00500
H 	H 	0.64910 0.06760 0.43040 0.03800
C 	C 	0.81320 0.28050 0.48600 -0.00600
H 	H 	0.81750 0.22550 0.47680 0.03600
C 	C 	0.89100 0.32240 0.52450 0.04500
C 	C 	0.84750 0.40170 0.52250 -0.02300
H 	H 	0.88270 0.44470 0.54400 0.03000
C 	C 	0.00340 0.29060 0.55820 -0.21700
H 	H 	0.00860 0.30840 0.59670 0.09600
H 	H 	0.00280 0.23120 0.55780 0.09100
C 	C 	0.10790 0.32120 0.53450 0.04900
C 	C 	0.16330 0.39620 0.54340 -0.01900
H 	H 	0.14190 0.43640 0.56700 0.02800
C 	C 	0.16690 0.28220 0.49690 -0.00500
H 	H 	0.15100 0.23010 0.48220 0.03300
C 	C 	0.52410 0.55550 0.29020 0.30000
C 	C 	0.46010 0.47340 0.28830 -0.07300
H 	H 	0.40750 0.47350 0.25240 0.05800
C 	C 	0.53720 0.39770 0.28600 -0.07800
H 	H 	0.59110 0.39240 0.32070 0.08000
H 	H 	0.58200 0.40300 0.25550 0.06300
C 	C 	0.45800 0.32160 0.27680 -0.09500
H 	H 	0.40040 0.33370 0.24370 0.06500
C 	C 	0.38850 0.31160 0.32490 -0.10600
H 	H 	0.33620 0.26490 0.31540 0.07700
C 	C 	0.31030 0.38700 0.32720 -0.04600
H 	H 	0.26840 0.38150 0.35870 0.05300
H 	H 	0.25310 0.38890 0.29340 0.04600
C 	C 	0.37880 0.46830 0.33290 -0.13400
H 	H 	0.32090 0.51170 0.32380 0.08600
C 	C 	0.46650 0.28980 0.38000 0.31400
C 	C 	0.43310 0.48200 0.39380 0.38400
C 	C 	0.51510 0.24110 0.26400 0.33700
O 	O 	0.62360 0.55850 0.27578 -0.38900
O 	O 	0.44830 0.17870 0.26018 -0.27700
O 	O 	0.61790 0.23886 0.25623 -0.40500
O 	O 	0.54190 0.48702 0.40718 -0.47400
O 	O 	0.35930 0.48730 0.42672 -0.48700
O 	O 	0.42450 0.29770 0.42464 -0.28700
O 	O 	0.56790 0.26520 0.37831 -0.27100
N 	N 	0.86990 0.56690 0.30812 -0.17800
N 	N 	0.98760 0.57490 0.31190 -0.16000
H 	H 	0.02170 0.61390 0.29690 0.13400
N 	N 	0.86930 0.22080 0.29120 -0.16900
N 	N 	0.98190 0.21600 0.29190 -0.15300
H 	H 	0.01490 0.18190 0.27230 0.12400
N 	N 	0.73090 0.72860 0.32796 -0.17600
N 	N 	0.64000 0.72290 0.35707 -0.15600
H 	H 	0.59050 0.68340 0.35380 0.12400
N 	N 	0.72090 0.08240 0.31218 -0.16700
N 	N 	0.67030 0.11320 0.35425 -0.15400
H 	H 	0.63800 0.16060 0.35390 0.14000
N 	N 	0.74940 0.40880 0.48609 -0.19200
N 	N 	0.72980 0.33320 0.46396 -0.16100
H 	H 	0.67140 0.32050 0.43900 0.13000
N 	N 	0.25130 0.40410 0.51408 -0.19400
N 	N 	0.25140 0.33250 0.48537 -0.16200
H 	H 	0.29940 0.32100 0.46280 0.12800
O 	O 	0.47480 0.61960 0.30920 -0.17800
O 	O 	0.46040 0.61670 0.29110 -0.08200
Co	Co	0.74492 0.14948 0.23888 1.14700
Co	Co	0.87300 0.00288 0.01218 1.08800
C 	C 	0.45670 0.01390 0.15770 -0.01400
H 	H 	0.37640 0.00700 0.14950 0.04000
C 	C 	0.53860 0.96370 0.14089 0.06200
C 	C 	0.64560 0.99950 0.16310 -0.01600
H 	H 	0.71800 0.97890 0.15830 0.04100
C 	C 	0.51920 0.88480 0.10880 -0.24700
H 	H 	0.44020 0.88350 0.08860 0.10900
H 	H 	0.57230 0.88190 0.08170 0.11200
C 	C 	0.53840 0.81240 0.14740 0.06800
C 	C 	0.45990 0.77150 0.17250 -0.01400
H 	H 	0.37970 0.78000 0.16650 0.03800
C 	C 	0.64380 0.78030 0.17280 -0.02100
H 	H 	0.71580 0.79840 0.16560 0.05000
C 	C 	0.71410 0.29710 0.15390 -0.01300
H 	H 	0.64740 0.31660 0.16620 0.03300
C 	C 	0.77000 0.33620 0.11370 0.04700
C 	C 	0.86220 0.28700 0.10850 0.00100
H 	H 	0.91720 0.29630 0.08520 0.03400
C 	C 	0.73510 0.41460 0.08240 -0.21300
H 	H 	0.65160 0.41410 0.07000 0.08800
H 	H 	0.77280 0.41690 0.04940 0.09200
C 	C 	0.76680 0.49050 0.11710 0.04500
C 	C 	0.74180 0.50890 0.17070 -0.00500
H 	H 	0.70350 0.47330 0.19170 0.03500
C 	C 	0.82260 0.55930 0.10300 0.00200
H 	H 	0.85090 0.56760 0.06960 0.03600
C 	C 	0.68680 0.78050 0.01400 -0.00200
H 	H 	0.68250 0.72550 0.02320 0.03600
C 	C 	0.60900 0.82240 0.97550 0.04300
C 	C 	0.65250 0.90170 0.97750 -0.02600
H 	H 	0.61730 0.94470 0.95600 0.03000
C 	C 	0.49660 0.79060 0.94180 -0.21500
H 	H 	0.49140 0.80840 0.90330 0.09500
H 	H 	0.49720 0.73120 0.94220 0.08900
C 	C 	0.39210 0.82120 0.96550 0.04400
C 	C 	0.33670 0.89620 0.95660 -0.01700
H 	H 	0.35810 0.93640 0.93300 0.02700
C 	C 	0.33310 0.78220 0.00310 -0.00000
H 	H 	0.34900 0.73010 0.01780 0.03200
C 	C 	0.97590 0.05550 0.20980 0.29400
C 	C 	0.03990 0.97340 0.21170 -0.07500
H 	H 	0.09250 0.97350 0.24760 0.05800
C 	C 	0.96280 0.89770 0.21400 -0.07100
H 	H 	0.90890 0.89240 0.17930 0.07800
H 	H 	0.91800 0.90300 0.24450 0.06200
C 	C 	0.04200 0.82160 0.22320 -0.10200
H 	H 	0.09960 0.83370 0.25630 0.06600
C 	C 	0.11150 0.81160 0.17510 -0.10300
H 	H 	0.16380 0.76490 0.18460 0.07600
C 	C 	0.18970 0.88700 0.17280 -0.04900
H 	H 	0.23160 0.88150 0.14130 0.05400
H 	H 	0.24690 0.88890 0.20660 0.04700
C 	C 	0.12120 0.96830 0.16710 -0.13100
H 	H 	0.17910 0.01170 0.17620 0.08500
C 	C 	0.03350 0.78980 0.12000 0.31100
C 	C 	0.06690 0.98200 0.10620 0.37900
C 	C 	0.98490 0.74110 0.23600 0.34100
O 	O 	0.87640 0.05850 0.22422 -0.39000
O 	O 	0.05170 0.67870 0.23982 -0.27800
O 	O 	0.88210 0.73886 0.24377 -0.40500
O 	O 	0.95810 0.98702 0.09282 -0.46800
O 	O 	0.14070 0.98730 0.07328 -0.48400
O 	O 	0.07550 0.79770 0.07536 -0.28600
O 	O 	0.93210 0.76520 0.12169 -0.26900
N 	N 	0.63010 0.06690 0.19188 -0.18000
N 	N 	0.51240 0.07490 0.18810 -0.15900
H 	H 	0.47830 0.11390 0.20310 0.13500
N 	N 	0.63070 0.72080 0.20880 -0.16900
N 	N 	0.51810 0.71600 0.20810 -0.14900
H 	H 	0.48510 0.68190 0.22770 0.12200
N 	N 	0.76910 0.22860 0.17204 -0.17700
N 	N 	0.86000 0.22290 0.14293 -0.15600
H 	H 	0.90950 0.18340 0.14620 0.12300
N 	N 	0.77910 0.58240 0.18782 -0.16900
N 	N 	0.82970 0.61320 0.14575 -0.15600
H 	H 	0.86200 0.66060 0.14610 0.14000
N 	N 	0.75060 0.90880 0.01391 -0.18900
N 	N 	0.77020 0.83320 0.03604 -0.16100
H 	H 	0.82860 0.82050 0.06100 0.13100
N 	N 	0.24870 0.90410 0.98592 -0.19700
N 	N 	0.24860 0.83250 0.01463 -0.16100
H 	H 	0.20060 0.82100 0.03720 0.12800
O 	O 	0.02520 0.11960 0.19080 -0.17600
O 	O 	0.03960 0.11670 0.20890 -0.08100
Co	Co	0.24492 0.35052 0.73888 1.14800
Co	Co	0.37300 0.49712 0.51218 1.09100
C 	C 	0.95670 0.48610 0.65770 -0.00900
H 	H 	0.87640 0.49300 0.64950 0.03900
C 	C 	0.03860 0.53630 0.64089 0.05800
C 	C 	0.14560 0.50050 0.66310 -0.01900
H 	H 	0.21800 0.52110 0.65830 0.04000
C 	C 	0.01920 0.61520 0.60880 -0.24400
H 	H 	0.94020 0.61650 0.58860 0.10800
H 	H 	0.07230 0.61810 0.58170 0.11000
C 	C 	0.03840 0.68760 0.64740 0.06300
C 	C 	0.95990 0.72850 0.67250 -0.00800
H 	H 	0.87970 0.72000 0.66650 0.03600
C 	C 	0.14380 0.71970 0.67280 -0.01900
H 	H 	0.21580 0.70160 0.66560 0.04900
C 	C 	0.21410 0.20290 0.65390 -0.01400
H 	H 	0.14740 0.18340 0.66620 0.03400
C 	C 	0.27000 0.16380 0.61370 0.05000
C 	C 	0.36220 0.21300 0.60850 -0.00000
H 	H 	0.41720 0.20370 0.58520 0.03500
C 	C 	0.23510 0.08540 0.58240 -0.22100
H 	H 	0.15160 0.08590 0.57000 0.09100
H 	H 	0.27280 0.08310 0.54940 0.09500
C 	C 	0.26680 0.00950 0.61710 0.05700
C 	C 	0.24180 0.99110 0.67070 -0.01900
H 	H 	0.20350 0.02670 0.69170 0.04200
C 	C 	0.32260 0.94070 0.60300 -0.00500
H 	H 	0.35090 0.93240 0.56960 0.03800
C 	C 	0.18680 0.71950 0.51400 -0.00600
H 	H 	0.18250 0.77450 0.52320 0.03600
C 	C 	0.10900 0.67760 0.47550 0.04500
C 	C 	0.15250 0.59830 0.47750 -0.02300
H 	H 	0.11730 0.55530 0.45600 0.03000
C 	C 	0.99660 0.70940 0.44180 -0.21700
H 	H 	0.99140 0.69160 0.40330 0.09600
H 	H 	0.99720 0.76880 0.44220 0.09100
C 	C 	0.89210 0.67880 0.46550 0.04900
C 	C 	0.83670 0.60380 0.45660 -0.01900
H 	H 	0.85810 0.56360 0.43300 0.02800
C 	C 	0.83310 0.71780 0.50310 -0.00500
H 	H 	0.84900 0.76990 0.51780 0.03300
C 	C 	0.47590 0.44450 0.70980 0.30000
C 	C 	0.53990 0.52660 0.71170 -0.07300
H 	H 	0.59250 0.52650 0.74760 0.05800
C 	C 	0.46280 0.60230 0.71400 -0.07800
H 	H 	0.40890 0.60760 0.67930 0.08000
H 	H 	0.41800 0.59700 0.74450 0.06300
C 	C 	0.54200 0.67840 0.72320 -0.09500
H 	H 	0.59960 0.66630 0.75630 0.06500
C 	C 	0.61150 0.68840 0.67510 -0.10600
H 	H 	0.66380 0.73510 0.68460 0.07700
C 	C 	0.68970 0.61300 0.67280 -0.04600
H 	H 	0.73160 0.61850 0.64130 0.05300
H 	H 	0.74690 0.61110 0.70660 0.04600
C 	C 	0.62120 0.53170 0.66710 -0.13400
H 	H 	0.67910 0.48830 0.67620 0.08600
C 	C 	0.53350 0.71020 0.62000 0.31400
C 	C 	0.56690 0.51800 0.60620 0.38400
C 	C 	0.48490 0.75890 0.73600 0.33700
O 	O 	0.37640 0.44150 0.72422 -0.38900
O 	O 	0.55170 0.82130 0.73982 -0.27700
O 	O 	0.38210 0.76114 0.74377 -0.40500
O 	O 	0.45810 0.51298 0.59282 -0.47400
O 	O 	0.64070 0.51270 0.57328 -0.48700
O 	O 	0.57550 0.70230 0.57536 -0.28700
O 	O 	0.43210 0.73480 0.62169 -0.27100
N 	N 	0.13010 0.43310 0.69188 -0.17800
N 	N 	0.01240 0.42510 0.68810 -0.16000
H 	H 	0.97830 0.38610 0.70310 0.13400
N 	N 	0.13070 0.77920 0.70880 -0.16900
N 	N 	0.01810 0.78400 0.70810 -0.15300
H 	H 	0.98510 0.81810 0.72770 0.12400
N 	N 	0.26910 0.27140 0.67204 -0.17600
N 	N 	0.36000 0.27710 0.64293 -0.15600
H 	H 	0.40950 0.31660 0.64620 0.12400
N 	N 	0.27910 0.91760 0.68782 -0.16700
N 	N 	0.32970 0.88680 0.64575 -0.15400
H 	H 	0.36200 0.83940 0.64610 0.14000
N 	N 	0.25060 0.59120 0.51391 -0.19200
N 	N 	0.27020 0.66680 0.53604 -0.16100
H 	H 	0.32860 0.67950 0.56100 0.13000
N 	N 	0.74870 0.59590 0.48592 -0.19400
N 	N 	0.74860 0.66750 0.51463 -0.16200
H 	H 	0.70060 0.67900 0.53720 0.12800
O 	O 	0.52520 0.38040 0.69080 -0.17800
O 	O 	0.53960 0.38330 0.70890 -0.08200
Co	Co	0.25508 0.85052 0.76112 1.14700
Co	Co	0.12700 0.99712 0.98782 1.08800
C 	C 	0.54330 0.98610 0.84230 -0.01400
H 	H 	0.62360 0.99300 0.85050 0.04000
C 	C 	0.46140 0.03630 0.85911 0.06200
C 	C 	0.35440 0.00050 0.83690 -0.01600
H 	H 	0.28200 0.02110 0.84170 0.04100
C 	C 	0.48080 0.11520 0.89120 -0.24700
H 	H 	0.55980 0.11650 0.91140 0.10900
H 	H 	0.42770 0.11810 0.91830 0.11200
C 	C 	0.46160 0.18760 0.85260 0.06800
C 	C 	0.54010 0.22850 0.82750 -0.01400
H 	H 	0.62030 0.22000 0.83350 0.03800
C 	C 	0.35620 0.21970 0.82720 -0.02100
H 	H 	0.28420 0.20160 0.83440 0.05000
C 	C 	0.28590 0.70290 0.84610 -0.01300
H 	H 	0.35260 0.68340 0.83380 0.03300
C 	C 	0.23000 0.66380 0.88630 0.04700
C 	C 	0.13780 0.71300 0.89150 0.00100
H 	H 	0.08280 0.70370 0.91480 0.03400
C 	C 	0.26490 0.58540 0.91760 -0.21300
H 	H 	0.34840 0.58590 0.93000 0.08800
H 	H 	0.22720 0.58310 0.95060 0.09200
C 	C 	0.23320 0.50950 0.88290 0.04500
C 	C 	0.25820 0.49110 0.82930 -0.00500
H 	H 	0.29650 0.52670 0.80830 0.03500
C 	C 	0.17740 0.44070 0.89700 0.00200
H 	H 	0.14910 0.43240 0.93040 0.03600
C 	C 	0.31320 0.21950 0.98600 -0.00200
H 	H 	0.31750 0.27450 0.97680 0.03600
C 	C 	0.39100 0.17760 0.02450 0.04300
C 	C 	0.34750 0.09830 0.02250 -0.02600
H 	H 	0.38270 0.05530 0.04400 0.03000
C 	C 	0.50340 0.20940 0.05820 -0.21500
H 	H 	0.50860 0.19160 0.09670 0.09500
H 	H 	0.50280 0.26880 0.05780 0.08900
C 	C 	0.60790 0.17880 0.03450 0.04400
C 	C 	0.66330 0.10380 0.04340 -0.01700
H 	H 	0.64190 0.06360 0.06700 0.02700
C 	C 	0.66690 0.21780 0.99690 -0.00000
H 	H 	0.65100 0.26990 0.98220 0.03200
C 	C 	0.02410 0.94450 0.79020 0.29400
C 	C 	0.96010 0.02660 0.78830 -0.07500
H 	H 	0.90750 0.02650 0.75240 0.05800
C 	C 	0.03720 0.10230 0.78600 -0.07100
H 	H 	0.09110 0.10760 0.82070 0.07800
H 	H 	0.08200 0.09700 0.75550 0.06200
C 	C 	0.95800 0.17840 0.77680 -0.10200
H 	H 	0.90040 0.16630 0.74370 0.06600
C 	C 	0.88850 0.18840 0.82490 -0.10300
H 	H 	0.83620 0.23510 0.81540 0.07600
C 	C 	0.81030 0.11300 0.82720 -0.04900
H 	H 	0.76840 0.11850 0.85870 0.05400
H 	H 	0.75310 0.11110 0.79340 0.04700
C 	C 	0.87880 0.03170 0.83290 -0.13100
H 	H 	0.82090 0.98830 0.82380 0.08500
C 	C 	0.96650 0.21020 0.88000 0.31100
C 	C 	0.93310 0.01800 0.89380 0.37900
C 	C 	0.01510 0.25890 0.76400 0.34100
O 	O 	0.12360 0.94150 0.77578 -0.39000
O 	O 	0.94830 0.32130 0.76018 -0.27800
O 	O 	0.11790 0.26114 0.75623 -0.40500
O 	O 	0.04190 0.01298 0.90718 -0.46800
O 	O 	0.85930 0.01270 0.92672 -0.48400
O 	O 	0.92450 0.20230 0.92464 -0.28600
O 	O 	0.06790 0.23480 0.87831 -0.26900
N 	N 	0.36990 0.93310 0.80812 -0.18000
N 	N 	0.48760 0.92510 0.81190 -0.15900
H 	H 	0.52170 0.88610 0.79690 0.13500
N 	N 	0.36930 0.27920 0.79120 -0.16900
N 	N 	0.48190 0.28400 0.79190 -0.14900
H 	H 	0.51490 0.31810 0.77230 0.12200
N 	N 	0.23090 0.77140 0.82796 -0.17700
N 	N 	0.14000 0.77710 0.85707 -0.15600
H 	H 	0.09050 0.81660 0.85380 0.12300
N 	N 	0.22090 0.41760 0.81218 -0.16900
N 	N 	0.17030 0.38680 0.85425 -0.15600
H 	H 	0.13800 0.33940 0.85390 0.14000
N 	N 	0.24940 0.09120 0.98609 -0.18900
N 	N 	0.22980 0.16680 0.96396 -0.16100
H 	H 	0.17140 0.17950 0.93900 0.13100
N 	N 	0.75130 0.09590 0.01408 -0.19700
N 	N 	0.75140 0.16750 0.98537 -0.16100
H 	H 	0.79940 0.17900 0.96280 0.12800
O 	O 	0.97480 0.88040 0.80920 -0.17600
O 	O 	0.96040 0.88330 0.79110 -0.08100
