data_crystal

_cell_length_a 15.11530
_cell_length_b 14.87860
_cell_length_c 21.86130
_cell_angle_alpha 90.00000
_cell_angle_beta  90.89500
_cell_angle_gamma 90.00000

_symmetry_space_group_name_	'P 1'
_symmetry_space_group_name_H-M	'P 1'

loop_
_symmetry_equiv_pos_as_xyz
  x,y,z

loop_
_atom_site_label
_atom_site_type_symbol
_atom_site_fract_x
_atom_site_fract_y
_atom_site_fract_z
_atom_site_charge
Zn	Zn	0.27393 0.31487 0.37613 1.23300
Na	Na	0.25283 0.37308 0.51787 0.58200
C 	C 	0.48110 0.26550 0.50509 -0.16200
C 	C 	0.47490 0.26000 0.56897 0.02700
C 	C 	0.54950 0.27530 0.60501 -0.12800
H 	H 	0.54560 0.27090 0.64730 0.10000
C 	C 	0.62880 0.29700 0.57940 0.10800
H 	H 	0.67780 0.30840 0.60440 0.00300
C 	C 	0.63620 0.30200 0.51690 -0.23800
H 	H 	0.68990 0.31660 0.49930 0.12300
C 	C 	0.56260 0.28490 0.48057 0.24900
C 	C 	0.40440 0.24980 0.46126 0.37900
C 	C 	0.38980 0.23560 0.59998 0.29600
C 	C 	0.61070 0.22750 0.38422 0.22200
C 	C 	0.63620 0.14550 0.40848 -0.16100
H 	H 	0.62530 0.13210 0.44920 0.11100
C 	C 	0.67850 0.08290 0.37134 -0.00100
C 	C 	0.69420 0.10400 0.31076 -0.05700
H 	H 	0.72260 0.06240 0.28600 0.08600
C 	C 	0.66830 0.18620 0.28642 0.01200
C 	C 	0.62690 0.24860 0.32379 -0.15700
H 	H 	0.61030 0.30440 0.30820 0.12200
C 	C 	0.70800 0.99370 0.39727 0.34100
C 	C 	0.68870 0.20840 0.22065 0.30200
O 	O 	0.38610 0.17284 0.44485 -0.34600
O 	O 	0.36543 0.32183 0.44342 -0.48100
O 	O 	0.31769 0.24174 0.56981 -0.49600
O 	O 	0.39250 0.20950 0.65381 -0.30100
O 	O 	0.56704 0.29337 0.41714 -0.27100
O 	O 	0.74778 0.94266 0.36082 -0.43300
O 	O 	0.69250 0.97630 0.45103 -0.34800
O 	O 	0.71250 0.14840 0.18594 -0.29600
O 	O 	0.68000 0.29021 0.20503 -0.41800
Zn	Zn	0.77393 0.81487 0.37613 1.23300
Na	Na	0.75283 0.87308 0.51787 0.58200
C 	C 	0.98110 0.76550 0.50509 -0.16200
C 	C 	0.97490 0.76000 0.56897 0.02700
C 	C 	0.04950 0.77530 0.60501 -0.12900
H 	H 	0.04560 0.77090 0.64730 0.10000
C 	C 	0.12880 0.79700 0.57940 0.10800
H 	H 	0.17780 0.80840 0.60440 0.00300
C 	C 	0.13620 0.80200 0.51690 -0.23800
H 	H 	0.18990 0.81660 0.49930 0.12300
C 	C 	0.06260 0.78490 0.48057 0.24900
C 	C 	0.90440 0.74980 0.46126 0.37900
C 	C 	0.88980 0.73560 0.59998 0.29600
C 	C 	0.11070 0.72750 0.38422 0.22200
C 	C 	0.13620 0.64550 0.40848 -0.16100
H 	H 	0.12530 0.63210 0.44920 0.11100
C 	C 	0.17850 0.58290 0.37134 -0.00100
C 	C 	0.19420 0.60400 0.31076 -0.05700
H 	H 	0.22260 0.56240 0.28600 0.08600
C 	C 	0.16830 0.68620 0.28642 0.01200
C 	C 	0.12690 0.74860 0.32379 -0.15700
H 	H 	0.11030 0.80440 0.30820 0.12200
C 	C 	0.20800 0.49370 0.39727 0.34000
C 	C 	0.18870 0.70840 0.22065 0.30200
O 	O 	0.88610 0.67284 0.44485 -0.34600
O 	O 	0.86543 0.82183 0.44342 -0.48200
O 	O 	0.81769 0.74174 0.56981 -0.49700
O 	O 	0.89250 0.70950 0.65381 -0.30200
O 	O 	0.06704 0.79337 0.41714 -0.27200
O 	O 	0.24778 0.44266 0.36082 -0.43300
O 	O 	0.19250 0.47630 0.45103 -0.34800
O 	O 	0.21250 0.64840 0.18594 -0.29600
O 	O 	0.18000 0.79021 0.20503 -0.41800
Zn	Zn	0.72607 0.31487 0.12387 1.23200
Na	Na	0.74717 0.37308 0.98213 0.58200
C 	C 	0.51890 0.26550 0.99491 -0.16000
C 	C 	0.52510 0.26000 0.93103 0.02600
C 	C 	0.45050 0.27530 0.89499 -0.12700
H 	H 	0.45440 0.27090 0.85270 0.10000
C 	C 	0.37120 0.29700 0.92060 0.10600
H 	H 	0.32220 0.30840 0.89560 0.00400
C 	C 	0.36380 0.30200 0.98310 -0.23500
H 	H 	0.31010 0.31660 0.00070 0.12300
C 	C 	0.43740 0.28490 0.01943 0.24700
C 	C 	0.59560 0.24980 0.03874 0.37900
C 	C 	0.61020 0.23560 0.90002 0.29600
C 	C 	0.38930 0.22750 0.11578 0.22200
C 	C 	0.36380 0.14550 0.09152 -0.16000
H 	H 	0.37470 0.13210 0.05080 0.11100
C 	C 	0.32150 0.08290 0.12866 -0.00200
C 	C 	0.30580 0.10400 0.18924 -0.05700
H 	H 	0.27740 0.06240 0.21400 0.08600
C 	C 	0.33170 0.18620 0.21358 0.01200
C 	C 	0.37310 0.24860 0.17621 -0.15700
H 	H 	0.38970 0.30440 0.19180 0.12100
C 	C 	0.29200 0.99370 0.10273 0.34100
C 	C 	0.31130 0.20840 0.27935 0.30200
O 	O 	0.61390 0.17284 0.05515 -0.34500
O 	O 	0.63457 0.32183 0.05658 -0.48100
O 	O 	0.68231 0.24174 0.93019 -0.49600
O 	O 	0.60750 0.20950 0.84619 -0.30200
O 	O 	0.43296 0.29337 0.08286 -0.27100
O 	O 	0.25222 0.94266 0.13918 -0.43300
O 	O 	0.30750 0.97630 0.04897 -0.34800
O 	O 	0.28750 0.14840 0.31406 -0.29600
O 	O 	0.32000 0.29021 0.29497 -0.41800
Zn	Zn	0.22607 0.81487 0.12387 1.23300
Na	Na	0.24717 0.87308 0.98213 0.58200
C 	C 	0.01890 0.76550 0.99491 -0.16400
C 	C 	0.02510 0.76000 0.93103 0.02800
C 	C 	0.95050 0.77530 0.89499 -0.13000
H 	H 	0.95440 0.77090 0.85270 0.10000
C 	C 	0.87120 0.79700 0.92060 0.10900
H 	H 	0.82220 0.80840 0.89560 0.00300
C 	C 	0.86380 0.80200 0.98310 -0.24000
H 	H 	0.81010 0.81660 0.00070 0.12500
C 	C 	0.93740 0.78490 0.01943 0.25100
C 	C 	0.09560 0.74980 0.03874 0.38100
C 	C 	0.11020 0.73560 0.90002 0.29500
C 	C 	0.88930 0.72750 0.11578 0.22200
C 	C 	0.86380 0.64550 0.09152 -0.16100
H 	H 	0.87470 0.63210 0.05080 0.11200
C 	C 	0.82150 0.58290 0.12866 -0.00000
C 	C 	0.80580 0.60400 0.18924 -0.05700
H 	H 	0.77740 0.56240 0.21400 0.08600
C 	C 	0.83170 0.68620 0.21358 0.01200
C 	C 	0.87310 0.74860 0.17621 -0.15800
H 	H 	0.88970 0.80440 0.19180 0.12200
C 	C 	0.79200 0.49370 0.10273 0.34000
C 	C 	0.81130 0.70840 0.27935 0.30200
O 	O 	0.11390 0.67284 0.05515 -0.34600
O 	O 	0.13457 0.82183 0.05658 -0.48100
O 	O 	0.18231 0.74174 0.93019 -0.49700
O 	O 	0.10750 0.70950 0.84619 -0.30200
O 	O 	0.93296 0.79337 0.08286 -0.27200
O 	O 	0.75222 0.44266 0.13918 -0.43300
O 	O 	0.80750 0.47630 0.04897 -0.34800
O 	O 	0.78750 0.64840 0.31406 -0.29600
O 	O 	0.82000 0.79021 0.29497 -0.41800
Zn	Zn	0.72607 0.68513 0.62387 1.23300
Na	Na	0.74717 0.62692 0.48213 0.58200
C 	C 	0.51890 0.73450 0.49491 -0.16200
C 	C 	0.52510 0.74000 0.43103 0.02700
C 	C 	0.45050 0.72470 0.39499 -0.12800
H 	H 	0.45440 0.72910 0.35270 0.10000
C 	C 	0.37120 0.70300 0.42060 0.10800
H 	H 	0.32220 0.69160 0.39560 0.00300
C 	C 	0.36380 0.69800 0.48310 -0.23800
H 	H 	0.31010 0.68340 0.50070 0.12300
C 	C 	0.43740 0.71510 0.51943 0.24900
C 	C 	0.59560 0.75020 0.53874 0.37900
C 	C 	0.61020 0.76440 0.40002 0.29600
C 	C 	0.38930 0.77250 0.61578 0.22200
C 	C 	0.36380 0.85450 0.59152 -0.16100
H 	H 	0.37470 0.86790 0.55080 0.11100
C 	C 	0.32150 0.91710 0.62866 -0.00100
C 	C 	0.30580 0.89600 0.68924 -0.05700
H 	H 	0.27740 0.93760 0.71400 0.08600
C 	C 	0.33170 0.81380 0.71358 0.01200
C 	C 	0.37310 0.75140 0.67621 -0.15700
H 	H 	0.38970 0.69560 0.69180 0.12200
C 	C 	0.29200 0.00630 0.60273 0.34100
C 	C 	0.31130 0.79160 0.77935 0.30200
O 	O 	0.61390 0.82716 0.55515 -0.34600
O 	O 	0.63457 0.67817 0.55658 -0.48100
O 	O 	0.68231 0.75826 0.43019 -0.49600
O 	O 	0.60750 0.79050 0.34619 -0.30100
O 	O 	0.43296 0.70663 0.58286 -0.27100
O 	O 	0.25222 0.05734 0.63918 -0.43300
O 	O 	0.30750 0.02370 0.54897 -0.34800
O 	O 	0.28750 0.85160 0.81406 -0.29600
O 	O 	0.32000 0.70979 0.79497 -0.41800
Zn	Zn	0.22607 0.18513 0.62387 1.23300
Na	Na	0.24717 0.12692 0.48213 0.58200
C 	C 	0.01890 0.23450 0.49491 -0.16200
C 	C 	0.02510 0.24000 0.43103 0.02700
C 	C 	0.95050 0.22470 0.39499 -0.12900
H 	H 	0.95440 0.22910 0.35270 0.10000
C 	C 	0.87120 0.20300 0.42060 0.10800
H 	H 	0.82220 0.19160 0.39560 0.00300
C 	C 	0.86380 0.19800 0.48310 -0.23800
H 	H 	0.81010 0.18340 0.50070 0.12300
C 	C 	0.93740 0.21510 0.51943 0.24900
C 	C 	0.09560 0.25020 0.53874 0.37900
C 	C 	0.11020 0.26440 0.40002 0.29600
C 	C 	0.88930 0.27250 0.61578 0.22200
C 	C 	0.86380 0.35450 0.59152 -0.16100
H 	H 	0.87470 0.36790 0.55080 0.11100
C 	C 	0.82150 0.41710 0.62866 -0.00100
C 	C 	0.80580 0.39600 0.68924 -0.05700
H 	H 	0.77740 0.43760 0.71400 0.08600
C 	C 	0.83170 0.31380 0.71358 0.01200
C 	C 	0.87310 0.25140 0.67621 -0.15700
H 	H 	0.88970 0.19560 0.69180 0.12200
C 	C 	0.79200 0.50630 0.60273 0.34000
C 	C 	0.81130 0.29160 0.77935 0.30200
O 	O 	0.11390 0.32716 0.55515 -0.34600
O 	O 	0.13457 0.17817 0.55658 -0.48200
O 	O 	0.18231 0.25826 0.43019 -0.49700
O 	O 	0.10750 0.29050 0.34619 -0.30200
O 	O 	0.93296 0.20663 0.58286 -0.27200
O 	O 	0.75222 0.55734 0.63918 -0.43300
O 	O 	0.80750 0.52370 0.54897 -0.34800
O 	O 	0.78750 0.35160 0.81406 -0.29600
O 	O 	0.82000 0.20979 0.79497 -0.41800
Zn	Zn	0.27393 0.68513 0.87613 1.23200
Na	Na	0.25283 0.62692 0.01787 0.58200
C 	C 	0.48110 0.73450 0.00509 -0.16000
C 	C 	0.47490 0.74000 0.06897 0.02600
C 	C 	0.54950 0.72470 0.10501 -0.12700
H 	H 	0.54560 0.72910 0.14730 0.10000
C 	C 	0.62880 0.70300 0.07940 0.10600
H 	H 	0.67780 0.69160 0.10440 0.00400
C 	C 	0.63620 0.69800 0.01690 -0.23500
H 	H 	0.68990 0.68340 0.99930 0.12300
C 	C 	0.56260 0.71510 0.98057 0.24700
C 	C 	0.40440 0.75020 0.96126 0.37900
C 	C 	0.38980 0.76440 0.09998 0.29600
C 	C 	0.61070 0.77250 0.88422 0.22200
C 	C 	0.63620 0.85450 0.90848 -0.16000
H 	H 	0.62530 0.86790 0.94920 0.11100
C 	C 	0.67850 0.91710 0.87134 -0.00200
C 	C 	0.69420 0.89600 0.81076 -0.05700
H 	H 	0.72260 0.93760 0.78600 0.08600
C 	C 	0.66830 0.81380 0.78642 0.01200
C 	C 	0.62690 0.75140 0.82379 -0.15700
H 	H 	0.61030 0.69560 0.80820 0.12100
C 	C 	0.70800 0.00630 0.89727 0.34100
C 	C 	0.68870 0.79160 0.72065 0.30200
O 	O 	0.38610 0.82716 0.94485 -0.34500
O 	O 	0.36543 0.67817 0.94342 -0.48100
O 	O 	0.31769 0.75826 0.06981 -0.49600
O 	O 	0.39250 0.79050 0.15381 -0.30200
O 	O 	0.56704 0.70663 0.91714 -0.27100
O 	O 	0.74778 0.05734 0.86082 -0.43300
O 	O 	0.69250 0.02370 0.95103 -0.34800
O 	O 	0.71250 0.85160 0.68594 -0.29600
O 	O 	0.68000 0.70979 0.70503 -0.41800
Zn	Zn	0.77393 0.18513 0.87613 1.23300
Na	Na	0.75283 0.12692 0.01787 0.58200
C 	C 	0.98110 0.23450 0.00509 -0.16400
C 	C 	0.97490 0.24000 0.06897 0.02800
C 	C 	0.04950 0.22470 0.10501 -0.13000
H 	H 	0.04560 0.22910 0.14730 0.10000
C 	C 	0.12880 0.20300 0.07940 0.10900
H 	H 	0.17780 0.19160 0.10440 0.00300
C 	C 	0.13620 0.19800 0.01690 -0.24000
H 	H 	0.18990 0.18340 0.99930 0.12500
C 	C 	0.06260 0.21510 0.98057 0.25100
C 	C 	0.90440 0.25020 0.96126 0.38100
C 	C 	0.88980 0.26440 0.09998 0.29500
C 	C 	0.11070 0.27250 0.88422 0.22200
C 	C 	0.13620 0.35450 0.90848 -0.16100
H 	H 	0.12530 0.36790 0.94920 0.11200
C 	C 	0.17850 0.41710 0.87134 -0.00000
C 	C 	0.19420 0.39600 0.81076 -0.05700
H 	H 	0.22260 0.43760 0.78600 0.08600
C 	C 	0.16830 0.31380 0.78642 0.01200
C 	C 	0.12690 0.25140 0.82379 -0.15800
H 	H 	0.11030 0.19560 0.80820 0.12200
C 	C 	0.20800 0.50630 0.89727 0.34000
C 	C 	0.18870 0.29160 0.72065 0.30200
O 	O 	0.88610 0.32716 0.94485 -0.34600
O 	O 	0.86543 0.17817 0.94342 -0.48100
O 	O 	0.81769 0.25826 0.06981 -0.49700
O 	O 	0.89250 0.29050 0.15381 -0.30200
O 	O 	0.06704 0.20663 0.91714 -0.27200
O 	O 	0.24778 0.55734 0.86082 -0.43300
O 	O 	0.19250 0.52370 0.95103 -0.34800
O 	O 	0.21250 0.35160 0.68594 -0.29600
O 	O 	0.18000 0.20979 0.70503 -0.41800
