data_crystal

_cell_length_a 12.82100
_cell_length_b 11.09440
_cell_length_c 19.20420
_cell_angle_alpha 90.00000
_cell_angle_beta  103.32500
_cell_angle_gamma 90.00000

_symmetry_space_group_name_	'P 1'
_symmetry_space_group_name_H-M	'P 1'

loop_
_symmetry_equiv_pos_as_xyz
  x,y,z

loop_
_atom_site_label
_atom_site_type_symbol
_atom_site_fract_x
_atom_site_fract_y
_atom_site_fract_z
_atom_site_charge
Zn	Zn	0.16322 0.82062 0.97169 1.20900
Ba	Ba	0.87084 0.95736 0.88732 1.69300
O 	O 	0.01797 0.86220 0.01030 -0.57800
O 	O 	0.07605 0.67530 0.01603 -0.39200
O 	O 	0.70975 0.84940 0.13134 -0.27400
O 	O 	0.65138 0.74660 0.37561 -0.45900
O 	O 	0.47319 0.74060 0.35948 -0.49900
O 	O 	0.24508 0.84230 0.11748 -0.51800
O 	O 	0.31278 0.78380 0.02647 -0.44900
O 	O 	0.93361 0.97790 0.12720 -0.48500
O 	O 	0.81239 0.99420 0.02395 -0.55700
C 	C 	0.00870 0.74990 0.02565 0.28500
C 	C 	0.91530 0.71340 0.05548 -0.01500
C 	C 	0.89630 0.59040 0.06254 -0.12800
H 	H 	0.94010 0.53370 0.04780 0.08600
C 	C 	0.81260 0.55310 0.09140 0.07900
H 	H 	0.79980 0.47120 0.09560 0.00500
C 	C 	0.74710 0.63740 0.11416 -0.23100
H 	H 	0.69100 0.61210 0.13390 0.11300
C 	C 	0.76630 0.75960 0.10718 0.23900
C 	C 	0.84960 0.79890 0.07704 -0.20200
C 	C 	0.62120 0.82020 0.15898 0.17200
C 	C 	0.63430 0.80410 0.23138 -0.11700
H 	H 	0.70240 0.80530 0.26140 0.09100
C 	C 	0.54460 0.78600 0.25940 -0.08100
C 	C 	0.44280 0.78990 0.21377 0.00300
H 	H 	0.38240 0.78320 0.23260 -0.01200
C 	C 	0.43080 0.80370 0.14072 -0.08800
C 	C 	0.52130 0.81620 0.11296 -0.11800
H 	H 	0.51450 0.82190 0.06380 0.08300
C 	C 	0.55590 0.75650 0.33739 0.36700
C 	C 	0.32110 0.80990 0.09172 0.35600
C 	C 	0.86770 0.93440 0.07630 0.42400
Zn	Zn	0.33678 0.32062 0.52831 1.21300
Ba	Ba	0.62916 0.45736 0.61268 1.72500
O 	O 	0.48203 0.36220 0.48970 -0.58700
O 	O 	0.42395 0.17530 0.48397 -0.39400
O 	O 	0.79025 0.34940 0.36866 -0.27500
O 	O 	0.84862 0.24660 0.12439 -0.46200
O 	O 	0.02681 0.24060 0.14052 -0.49800
O 	O 	0.25492 0.34230 0.38252 -0.52400
O 	O 	0.18722 0.28380 0.47353 -0.45300
O 	O 	0.56639 0.47790 0.37280 -0.49100
O 	O 	0.68761 0.49420 0.47605 -0.56400
C 	C 	0.49130 0.24990 0.47435 0.28500
C 	C 	0.58470 0.21340 0.44452 -0.01600
C 	C 	0.60370 0.09040 0.43746 -0.12500
H 	H 	0.55990 0.03370 0.45220 0.08600
C 	C 	0.68740 0.05310 0.40860 0.07300
H 	H 	0.70020 0.97120 0.40440 0.01000
C 	C 	0.75290 0.13740 0.38584 -0.22800
H 	H 	0.80900 0.11210 0.36610 0.11200
C 	C 	0.73370 0.25960 0.39282 0.23800
C 	C 	0.65040 0.29890 0.42296 -0.20400
C 	C 	0.87880 0.32020 0.34102 0.17100
C 	C 	0.86570 0.30410 0.26862 -0.11600
H 	H 	0.79760 0.30530 0.23860 0.09000
C 	C 	0.95540 0.28600 0.24060 -0.08300
C 	C 	0.05720 0.28990 0.28623 0.00400
H 	H 	0.11760 0.28320 0.26740 -0.01300
C 	C 	0.06920 0.30370 0.35928 -0.09000
C 	C 	0.97870 0.31620 0.38704 -0.11700
H 	H 	0.98550 0.32190 0.43620 0.08200
C 	C 	0.94410 0.25650 0.16261 0.36500
C 	C 	0.17890 0.30990 0.40828 0.35700
C 	C 	0.63230 0.43440 0.42370 0.42600
Zn	Zn	0.83678 0.17938 0.02831 1.21000
Ba	Ba	0.12916 0.04264 0.11268 1.69400
O 	O 	0.98203 0.13780 0.98970 -0.57800
O 	O 	0.92395 0.32470 0.98397 -0.39200
O 	O 	0.29025 0.15060 0.86866 -0.27400
O 	O 	0.34862 0.25340 0.62439 -0.45900
O 	O 	0.52681 0.25940 0.64052 -0.49900
O 	O 	0.75492 0.15770 0.88252 -0.51800
O 	O 	0.68722 0.21620 0.97353 -0.44900
O 	O 	0.06639 0.02210 0.87280 -0.48500
O 	O 	0.18761 0.00580 0.97605 -0.55700
C 	C 	0.99130 0.25010 0.97435 0.28500
C 	C 	0.08470 0.28660 0.94452 -0.01500
C 	C 	0.10370 0.40960 0.93746 -0.12800
H 	H 	0.05990 0.46630 0.95220 0.08600
C 	C 	0.18740 0.44690 0.90860 0.07900
H 	H 	0.20020 0.52880 0.90440 0.00500
C 	C 	0.25290 0.36260 0.88584 -0.23100
H 	H 	0.30900 0.38790 0.86610 0.11300
C 	C 	0.23370 0.24040 0.89282 0.23900
C 	C 	0.15040 0.20110 0.92296 -0.20200
C 	C 	0.37880 0.17980 0.84102 0.17200
C 	C 	0.36570 0.19590 0.76862 -0.11700
H 	H 	0.29760 0.19470 0.73860 0.09100
C 	C 	0.45540 0.21400 0.74060 -0.08100
C 	C 	0.55720 0.21010 0.78623 0.00300
H 	H 	0.61760 0.21680 0.76740 -0.01200
C 	C 	0.56920 0.19630 0.85928 -0.08800
C 	C 	0.47870 0.18380 0.88704 -0.11800
H 	H 	0.48550 0.17810 0.93620 0.08300
C 	C 	0.44410 0.24350 0.66261 0.36700
C 	C 	0.67890 0.19010 0.90828 0.35600
C 	C 	0.13230 0.06560 0.92370 0.42400
Zn	Zn	0.66322 0.67938 0.47169 1.21300
Ba	Ba	0.37084 0.54264 0.38732 1.72500
O 	O 	0.51797 0.63780 0.51030 -0.58700
O 	O 	0.57605 0.82470 0.51603 -0.39400
O 	O 	0.20975 0.65060 0.63134 -0.27500
O 	O 	0.15138 0.75340 0.87561 -0.46200
O 	O 	0.97319 0.75940 0.85948 -0.49800
O 	O 	0.74508 0.65770 0.61748 -0.52400
O 	O 	0.81278 0.71620 0.52647 -0.45300
O 	O 	0.43361 0.52210 0.62720 -0.49100
O 	O 	0.31239 0.50580 0.52395 -0.56400
C 	C 	0.50870 0.75010 0.52565 0.28500
C 	C 	0.41530 0.78660 0.55548 -0.01600
C 	C 	0.39630 0.90960 0.56254 -0.12500
H 	H 	0.44010 0.96630 0.54780 0.08600
C 	C 	0.31260 0.94690 0.59140 0.07300
H 	H 	0.29980 0.02880 0.59560 0.01000
C 	C 	0.24710 0.86260 0.61416 -0.22800
H 	H 	0.19100 0.88790 0.63390 0.11200
C 	C 	0.26630 0.74040 0.60718 0.23800
C 	C 	0.34960 0.70110 0.57704 -0.20400
C 	C 	0.12120 0.67980 0.65898 0.17100
C 	C 	0.13430 0.69590 0.73138 -0.11600
H 	H 	0.20240 0.69470 0.76140 0.09000
C 	C 	0.04460 0.71400 0.75940 -0.08300
C 	C 	0.94280 0.71010 0.71377 0.00400
H 	H 	0.88240 0.71680 0.73260 -0.01300
C 	C 	0.93080 0.69630 0.64072 -0.09000
C 	C 	0.02130 0.68380 0.61296 -0.11700
H 	H 	0.01450 0.67810 0.56380 0.08200
C 	C 	0.05590 0.74350 0.83739 0.36500
C 	C 	0.82110 0.69010 0.59172 0.35700
C 	C 	0.36770 0.56560 0.57630 0.42600
