data_crystal

_cell_length_a 6.63740
_cell_length_b 9.57140
_cell_length_c 19.89000
_cell_angle_alpha 85.19000
_cell_angle_beta  82.97100
_cell_angle_gamma 88.01600

_symmetry_space_group_name_	'P 1'
_symmetry_space_group_name_H-M	'P 1'

loop_
_symmetry_equiv_pos_as_xyz
  x,y,z

loop_
_atom_site_label
_atom_site_type_symbol
_atom_site_fract_x
_atom_site_fract_y
_atom_site_fract_z
_atom_site_charge
C 	C 	0.25700 0.43410 0.02687 0.20100
C 	C 	0.38150 0.33170 0.93172 0.19800
C 	C 	0.36380 0.20990 0.03473 0.19100
C 	C 	0.12360 0.58710 0.12037 0.19300
C 	C 	0.12270 0.49140 0.17759 -0.19000
H 	H 	0.15660 0.39540 0.17220 0.11200
C 	C 	0.07270 0.53620 0.24194 0.09900
H 	H 	0.07390 0.47060 0.28050 0.01100
C 	C 	0.02030 0.67640 0.25123 -0.15400
C 	C 	0.01950 0.77140 0.19362 0.10100
H 	H 	0.98270 0.86700 0.19910 0.00500
C 	C 	0.07130 0.72840 0.12929 -0.19600
H 	H 	0.07160 0.79440 0.09080 0.09500
C 	C 	0.96750 0.72680 0.32034 0.35300
C 	C 	0.41680 0.44030 0.81161 0.20200
C 	C 	0.35960 0.57840 0.82269 -0.20600
H 	H 	0.33040 0.60600 0.86770 0.11700
C 	C 	0.34520 0.67600 0.76747 0.11700
H 	H 	0.30050 0.76930 0.77520 0.00500
C 	C 	0.39510 0.63940 0.70102 -0.18600
C 	C 	0.45920 0.50260 0.68988 0.12500
H 	H 	0.49760 0.47700 0.64490 -0.02000
C 	C 	0.46700 0.40300 0.74483 -0.21000
H 	H 	0.50680 0.30890 0.73700 0.10400
C 	C 	0.37370 0.74920 0.64413 0.41000
C 	C 	0.37690 0.07090 0.14538 0.18700
C 	C 	0.52870 0.99670 0.17699 -0.20400
H 	H 	0.64800 0.96540 0.15050 0.09800
C 	C 	0.50600 0.96840 0.24713 0.10100
H 	H 	0.60870 0.91610 0.26820 0.00800
C 	C 	0.33360 0.01620 0.28681 -0.18500
C 	C 	0.18600 0.09460 0.25515 0.10600
H 	H 	0.07090 0.13110 0.28190 -0.00400
C 	C 	0.20530 0.11990 0.18496 -0.19700
H 	H 	0.10130 0.17070 0.16380 0.10400
C 	C 	0.30690 0.97990 0.36226 0.40500
N 	N 	0.30410 0.44740 0.95891 -0.17700
N 	N 	0.41800 0.20680 0.96769 -0.18400
N 	N 	0.27940 0.31760 0.06759 -0.17600
N 	N 	0.18090 0.55400 0.05349 -0.24100
H 	H 	0.16460 0.62400 0.02280 0.13300
N 	N 	0.43350 0.33270 0.86361 -0.24300
H 	H 	0.48620 0.25310 0.84960 0.13400
N 	N 	0.40400 0.08960 0.07362 -0.24300
H 	H 	0.45120 0.01680 0.05180 0.13400
O 	O 	0.48470 0.74180 0.58804 -0.47700
O 	O 	0.24130 0.84390 0.65671 -0.47700
O 	O 	0.45230 0.91530 0.38781 -0.50400
O 	O 	0.14080 0.01500 0.39699 -0.50900
O 	O 	0.88540 0.84880 0.32159 -0.45100
O 	O 	0.00250 0.65210 0.37280 -0.32600
O 	O 	0.70360 0.96900 0.48234 -0.85300
H 	H 	0.78700 0.95600 0.51060 0.28700
Co	Co	0.45159 0.84145 0.49075 1.11000
Co	Co	0.84424 0.98186 0.39089 1.17000
C 	C 	0.74300 0.56590 0.97313 0.20000
C 	C 	0.61850 0.66830 0.06828 0.19700
C 	C 	0.63620 0.79010 0.96527 0.19000
C 	C 	0.87640 0.41290 0.87963 0.19200
C 	C 	0.87730 0.50860 0.82241 -0.19100
H 	H 	0.84340 0.60460 0.82780 0.11100
C 	C 	0.92730 0.46380 0.75806 0.09900
H 	H 	0.92610 0.52940 0.71950 0.01100
C 	C 	0.97970 0.32360 0.74877 -0.15400
C 	C 	0.98050 0.22860 0.80638 0.10100
H 	H 	0.01730 0.13300 0.80090 0.00500
C 	C 	0.92870 0.27160 0.87071 -0.19600
H 	H 	0.92840 0.20560 0.90920 0.09500
C 	C 	0.03250 0.27320 0.67966 0.35300
C 	C 	0.58320 0.55970 0.18839 0.20200
C 	C 	0.64040 0.42160 0.17731 -0.20600
H 	H 	0.66960 0.39400 0.13230 0.11700
C 	C 	0.65480 0.32400 0.23253 0.11700
H 	H 	0.69950 0.23070 0.22480 0.00500
C 	C 	0.60490 0.36060 0.29898 -0.18600
C 	C 	0.54080 0.49740 0.31012 0.12500
H 	H 	0.50240 0.52300 0.35510 -0.02000
C 	C 	0.53300 0.59700 0.25517 -0.21000
H 	H 	0.49320 0.69110 0.26300 0.10400
C 	C 	0.62630 0.25080 0.35587 0.41000
C 	C 	0.62310 0.92910 0.85462 0.18700
C 	C 	0.47130 0.00330 0.82301 -0.20400
H 	H 	0.35200 0.03460 0.84950 0.09800
C 	C 	0.49400 0.03160 0.75287 0.10100
H 	H 	0.39130 0.08390 0.73180 0.00800
C 	C 	0.66640 0.98380 0.71319 -0.18500
C 	C 	0.81400 0.90540 0.74485 0.10600
H 	H 	0.92910 0.86890 0.71810 -0.00400
C 	C 	0.79470 0.88010 0.81504 -0.19700
H 	H 	0.89870 0.82930 0.83620 0.10400
C 	C 	0.69310 0.02010 0.63774 0.40500
N 	N 	0.69590 0.55260 0.04109 -0.17700
N 	N 	0.58200 0.79320 0.03231 -0.18400
N 	N 	0.72060 0.68240 0.93241 -0.17600
N 	N 	0.81910 0.44600 0.94651 -0.24100
H 	H 	0.83540 0.37600 0.97720 0.13300
N 	N 	0.56650 0.66730 0.13639 -0.24300
H 	H 	0.51380 0.74690 0.15040 0.13400
N 	N 	0.59600 0.91040 0.92638 -0.24300
H 	H 	0.54880 0.98320 0.94820 0.13400
O 	O 	0.51530 0.25820 0.41196 -0.47700
O 	O 	0.75870 0.15610 0.34329 -0.47700
O 	O 	0.54770 0.08470 0.61219 -0.50400
O 	O 	0.85920 0.98500 0.60301 -0.50900
O 	O 	0.11460 0.15120 0.67841 -0.45100
O 	O 	0.99750 0.34790 0.62720 -0.32600
O 	O 	0.29640 0.03100 0.51766 -0.85300
H 	H 	0.21300 0.04400 0.48940 0.28700
Co	Co	0.54841 0.15855 0.50925 1.11000
Co	Co	0.15576 0.01814 0.60911 1.17000
