data_crystal

_cell_length_a 11.22700
_cell_length_b 17.43400
_cell_length_c 17.98000
_cell_angle_alpha 90.00000
_cell_angle_beta  90.00000
_cell_angle_gamma 90.00000

_symmetry_space_group_name_	'P 1'
_symmetry_space_group_name_H-M	'P 1'

loop_
_symmetry_equiv_pos_as_xyz
  x,y,z

loop_
_atom_site_label
_atom_site_type_symbol
_atom_site_fract_x
_atom_site_fract_y
_atom_site_fract_z
_atom_site_charge
La	La	0.14260 0.18420 0.48034 1.67300
La	La	0.31851 0.96719 0.47990 1.67000
La	La	0.85740 0.81580 0.98034 1.45500
La	La	0.68149 0.03281 0.97990 1.46900
La	La	0.35740 0.68420 0.48034 1.67200
La	La	0.18149 0.46719 0.47990 1.67000
La	La	0.64260 0.31580 0.98034 1.45100
La	La	0.81851 0.53281 0.97990 1.46600
H 	H 	0.08560 0.88200 0.66910 0.05500
H 	H 	0.98630 0.86370 0.78980 0.02500
H 	H 	0.95010 0.20860 0.67300 0.03800
H 	H 	0.86280 0.22430 0.79820 0.04100
H 	H 	0.02980 0.46600 0.28860 0.03800
H 	H 	0.92990 0.48100 0.16860 0.04600
H 	H 	0.15300 0.82100 0.46100 0.27700
H 	H 	0.91440 0.11800 0.16910 0.07700
H 	H 	0.01370 0.13630 0.28980 0.02900
H 	H 	0.04990 0.79140 0.17300 0.05600
H 	H 	0.13720 0.77570 0.29820 0.04200
H 	H 	0.97020 0.53400 0.78860 0.03700
H 	H 	0.07010 0.51900 0.66860 0.02900
H 	H 	0.84700 0.17900 0.96100 0.27600
H 	H 	0.41440 0.38200 0.66910 0.05600
H 	H 	0.51370 0.36370 0.78980 0.02500
H 	H 	0.54990 0.70860 0.67300 0.03800
H 	H 	0.63720 0.72430 0.79820 0.04100
H 	H 	0.47020 0.96600 0.28860 0.03600
H 	H 	0.57010 0.98100 0.16860 0.04600
H 	H 	0.34700 0.32100 0.46100 0.27700
H 	H 	0.58560 0.61800 0.16910 0.07700
H 	H 	0.48630 0.63630 0.28980 0.02800
H 	H 	0.45010 0.29140 0.17300 0.05600
H 	H 	0.36280 0.27570 0.29820 0.04300
H 	H 	0.52980 0.03400 0.78860 0.03800
H 	H 	0.42990 0.01900 0.66860 0.03000
H 	H 	0.65300 0.67900 0.96100 0.27500
C 	C 	0.03370 0.99580 0.66810 -0.09900
C 	C 	0.04450 0.92100 0.69440 -0.02100
C 	C 	0.98650 0.91030 0.76350 -0.00100
C 	C 	0.93070 0.97570 0.78800 -0.13100
C 	C 	0.08140 0.02530 0.59470 0.38400
C 	C 	0.86210 0.98690 0.85680 0.37300
C 	C 	0.02070 0.31670 0.67950 -0.11600
C 	C 	0.95810 0.25330 0.70190 -0.00400
C 	C 	0.90680 0.26250 0.77350 -0.01100
C 	C 	0.92930 0.33430 0.80220 -0.11800
C 	C 	0.07540 0.33130 0.60520 0.40300
C 	C 	0.88550 0.36520 0.87390 0.37700
C 	C 	0.01280 0.35050 0.28160 -0.12500
C 	C 	0.00120 0.42460 0.26030 0.00600
C 	C 	0.94260 0.43360 0.19230 -0.01300
C 	C 	0.90630 0.36430 0.16480 -0.08900
C 	C 	0.06070 0.32400 0.35450 0.39300
C 	C 	0.83520 0.35340 0.09700 0.34000
C 	C 	0.96630 0.00420 0.16810 -0.06400
C 	C 	0.95550 0.07900 0.19440 -0.02600
C 	C 	0.01350 0.08970 0.26350 0.00900
C 	C 	0.06930 0.02430 0.28800 -0.12400
C 	C 	0.91860 0.97470 0.09470 0.34800
C 	C 	0.13790 0.01310 0.35680 0.38000
C 	C 	0.97930 0.68330 0.17950 -0.09100
C 	C 	0.04190 0.74670 0.20190 -0.01400
C 	C 	0.09320 0.73750 0.27350 0.00500
C 	C 	0.07070 0.66570 0.30220 -0.11800
C 	C 	0.92460 0.66870 0.10520 0.38100
C 	C 	0.11450 0.63480 0.37390 0.38800
C 	C 	0.98720 0.64950 0.78160 -0.12300
C 	C 	0.99880 0.57540 0.76030 -0.00600
C 	C 	0.05740 0.56640 0.69230 -0.01100
C 	C 	0.09370 0.63570 0.66480 -0.11700
C 	C 	0.93930 0.67600 0.85450 0.38300
C 	C 	0.16480 0.64660 0.59700 0.35900
C 	C 	0.46630 0.49580 0.66810 -0.09900
C 	C 	0.45550 0.42100 0.69440 -0.02400
C 	C 	0.51350 0.41030 0.76350 0.00000
C 	C 	0.56930 0.47570 0.78800 -0.13100
C 	C 	0.41860 0.52530 0.59470 0.38200
C 	C 	0.63790 0.48690 0.85680 0.37200
C 	C 	0.47930 0.81670 0.67950 -0.11600
C 	C 	0.54190 0.75330 0.70190 -0.00400
C 	C 	0.59320 0.76250 0.77350 -0.01200
C 	C 	0.57070 0.83430 0.80220 -0.11700
C 	C 	0.42460 0.83130 0.60520 0.40300
C 	C 	0.61450 0.86520 0.87390 0.37700
C 	C 	0.48720 0.85050 0.28160 -0.12300
C 	C 	0.49880 0.92460 0.26030 0.01100
C 	C 	0.55740 0.93360 0.19230 -0.01800
C 	C 	0.59370 0.86430 0.16480 -0.08800
C 	C 	0.43930 0.82400 0.35450 0.39300
C 	C 	0.66480 0.85340 0.09700 0.34000
C 	C 	0.53370 0.50420 0.16810 -0.07300
C 	C 	0.54450 0.57900 0.19440 -0.02800
C 	C 	0.48650 0.58970 0.26350 0.01500
C 	C 	0.43070 0.52430 0.28800 -0.12700
C 	C 	0.58140 0.47470 0.09470 0.35800
C 	C 	0.36210 0.51310 0.35680 0.38000
C 	C 	0.52070 0.18330 0.17950 -0.09400
C 	C 	0.45810 0.24670 0.20190 -0.00800
C 	C 	0.40680 0.23750 0.27350 0.00300
C 	C 	0.42930 0.16570 0.30220 -0.11500
C 	C 	0.57540 0.16870 0.10520 0.38200
C 	C 	0.38550 0.13480 0.37390 0.38700
C 	C 	0.51280 0.14950 0.78160 -0.12200
C 	C 	0.50120 0.07540 0.76030 -0.00600
C 	C 	0.44260 0.06640 0.69230 -0.01200
C 	C 	0.40630 0.13570 0.66480 -0.11600
C 	C 	0.56070 0.17600 0.85450 0.38300
C 	C 	0.33520 0.14660 0.59700 0.35900
S 	S 	0.95370 0.05115 0.72778 0.05900
S 	S 	0.01650 0.38792 0.74520 0.04900
S 	S 	0.94720 0.28931 0.21972 0.09000
S 	S 	0.04630 0.94885 0.22778 0.07000
S 	S 	0.98350 0.61208 0.24520 0.06900
S 	S 	0.05280 0.71069 0.71972 0.06100
S 	S 	0.54630 0.55115 0.72778 0.05800
S 	S 	0.48350 0.88792 0.74520 0.04800
S 	S 	0.55280 0.78931 0.21972 0.08700
S 	S 	0.45370 0.44885 0.22778 0.08000
S 	S 	0.51650 0.11208 0.24520 0.06900
S 	S 	0.44720 0.21069 0.71972 0.06000
O 	O 	0.13440 0.97750 0.55450 -0.41700
O 	O 	0.06240 0.09440 0.58150 -0.42000
O 	O 	0.85770 0.93600 0.90530 -0.51600
O 	O 	0.81040 0.05140 0.86550 -0.39400
O 	O 	0.05300 0.28170 0.55620 -0.45100
O 	O 	0.13060 0.39260 0.59700 -0.41300
O 	O 	0.82740 0.31940 0.91420 -0.46700
O 	O 	0.90660 0.43480 0.88850 -0.43800
O 	O 	0.08230 0.25330 0.36430 -0.42100
O 	O 	0.07520 0.37460 0.40370 -0.44600
O 	O 	0.78840 0.28790 0.08590 -0.27000
O 	O 	0.81790 0.40870 0.05370 -0.34900
O 	O 	0.21080 0.83050 0.48530 -0.50000
O 	O 	0.86560 0.02250 0.05450 -0.29100
O 	O 	0.93760 0.90560 0.08150 -0.33300
O 	O 	0.14230 0.06400 0.40530 -0.48700
O 	O 	0.18960 0.94860 0.36550 -0.38800
O 	O 	0.94700 0.71830 0.05620 -0.32700
O 	O 	0.86940 0.60740 0.09700 -0.32600
O 	O 	0.17260 0.68060 0.41420 -0.43800
O 	O 	0.09340 0.56520 0.38850 -0.41600
O 	O 	0.91770 0.74670 0.86430 -0.42800
O 	O 	0.92480 0.62540 0.90370 -0.47100
O 	O 	0.21160 0.71210 0.58590 -0.36200
O 	O 	0.18210 0.59130 0.55370 -0.47200
O 	O 	0.78920 0.16950 0.98530 -0.59700
O 	O 	0.36560 0.47750 0.55450 -0.41600
O 	O 	0.43760 0.59440 0.58150 -0.42000
O 	O 	0.64230 0.43600 0.90530 -0.51700
O 	O 	0.68960 0.55140 0.86550 -0.39400
O 	O 	0.44700 0.78170 0.55620 -0.45100
O 	O 	0.36940 0.89260 0.59700 -0.41300
O 	O 	0.67260 0.81940 0.91420 -0.46700
O 	O 	0.59340 0.93480 0.88850 -0.43700
O 	O 	0.41770 0.75330 0.36430 -0.42000
O 	O 	0.42480 0.87460 0.40370 -0.44600
O 	O 	0.71160 0.78790 0.08590 -0.27100
O 	O 	0.68210 0.90870 0.05370 -0.35200
O 	O 	0.28920 0.33050 0.48530 -0.50000
O 	O 	0.63440 0.52250 0.05450 -0.29600
O 	O 	0.56240 0.40560 0.08150 -0.33400
O 	O 	0.35770 0.56400 0.40530 -0.48700
O 	O 	0.31040 0.44860 0.36550 -0.38700
O 	O 	0.55300 0.21830 0.05620 -0.32600
O 	O 	0.63060 0.10740 0.09700 -0.32500
O 	O 	0.32740 0.18060 0.41420 -0.43800
O 	O 	0.40660 0.06520 0.38850 -0.41400
O 	O 	0.58230 0.24670 0.86430 -0.42800
O 	O 	0.57520 0.12540 0.90370 -0.47100
O 	O 	0.28840 0.21210 0.58590 -0.36200
O 	O 	0.31790 0.09130 0.55370 -0.47100
O 	O 	0.71080 0.66950 0.98530 -0.59600
