data_crystal

_cell_length_a 9.90500
_cell_length_b 10.33300
_cell_length_c 13.56200
_cell_angle_alpha 82.00000
_cell_angle_beta  86.62000
_cell_angle_gamma 65.76000

_symmetry_space_group_name_	'P 1'
_symmetry_space_group_name_H-M	'P 1'

loop_
_symmetry_equiv_pos_as_xyz
  x,y,z

loop_
_atom_site_label
_atom_site_type_symbol
_atom_site_fract_x
_atom_site_fract_y
_atom_site_fract_z
_atom_site_charge
Sm	Sm	0.16645 0.28325 0.81630 1.16700
Mo	Mo	0.75600 0.87660 0.75886 1.06800
Cs	Cs	0.64854 0.05038 0.38411 0.66100
O 	O 	0.14740 0.05240 0.81510 -0.46500
H 	H 	0.10780 0.03940 0.75690 0.12800
N 	N 	0.42070 0.08510 0.82830 -0.20100
N 	N 	0.59610 0.16050 0.59340 -0.15200
N 	N 	0.75000 0.76410 0.54210 -0.15800
N 	N 	0.06750 0.89090 0.66660 -0.14500
N 	N 	0.82160 0.12660 0.84930 -0.10500
N 	N 	0.01490 0.54610 0.78920 -0.22700
N 	N 	0.20660 0.21920 0.99920 -0.19700
N 	N 	0.55440 0.68520 0.79550 -0.11700
C 	C 	0.53940 0.00910 0.80890 -0.15600
C 	C 	0.65640 0.06200 0.64860 -0.20100
C 	C 	0.75370 0.79980 0.61750 -0.20100
C 	C 	0.95750 0.88530 0.69510 -0.15700
C 	C 	0.79690 0.03990 0.81990 -0.13600
C 	C 	0.92700 0.66160 0.77920 -0.13400
C 	C 	0.21780 0.18630 0.08350 -0.13100
C 	C 	0.62760 0.74860 0.78420 -0.19000
C 	C 	0.19100 0.93640 0.89440 0.07500
H 	H 	0.28770 0.92080 0.92000 -0.00800
H 	H 	0.19760 0.84940 0.86960 -0.01600
H 	H 	0.11750 0.95980 0.94810 -0.00100
Sm	Sm	0.83355 0.71675 0.18370 1.16600
Mo	Mo	0.24400 0.12340 0.24114 1.06700
Cs	Cs	0.35146 0.94962 0.61589 0.66100
O 	O 	0.85260 0.94760 0.18490 -0.46500
H 	H 	0.89220 0.96060 0.24310 0.12800
N 	N 	0.57930 0.91490 0.17170 -0.20100
N 	N 	0.40390 0.83950 0.40660 -0.15200
N 	N 	0.25000 0.23590 0.45790 -0.15800
N 	N 	0.93250 0.10910 0.33340 -0.14500
N 	N 	0.17840 0.87340 0.15070 -0.10500
N 	N 	0.98510 0.45390 0.21080 -0.22700
N 	N 	0.79340 0.78080 0.00080 -0.19700
N 	N 	0.44560 0.31480 0.20450 -0.11700
C 	C 	0.46060 0.99090 0.19110 -0.15600
C 	C 	0.34360 0.93800 0.35140 -0.20100
C 	C 	0.24630 0.20020 0.38250 -0.20100
C 	C 	0.04250 0.11470 0.30490 -0.15700
C 	C 	0.20310 0.96010 0.18010 -0.13600
C 	C 	0.07300 0.33840 0.22080 -0.13400
C 	C 	0.78220 0.81370 0.91650 -0.13100
C 	C 	0.37240 0.25140 0.21580 -0.19000
C 	C 	0.80900 0.06360 0.10560 0.07500
H 	H 	0.71230 0.07920 0.08000 -0.00800
H 	H 	0.80240 0.15060 0.13040 -0.01600
H 	H 	0.88250 0.04020 0.05190 -0.00100
