data_crystal

_cell_length_a 10.74400
_cell_length_b 11.97100
_cell_length_c 13.30400
_cell_angle_alpha 91.51200
_cell_angle_beta  111.41800
_cell_angle_gamma 106.33400

_symmetry_space_group_name_	'P 1'
_symmetry_space_group_name_H-M	'P 1'

loop_
_symmetry_equiv_pos_as_xyz
  x,y,z

loop_
_atom_site_label
_atom_site_type_symbol
_atom_site_fract_x
_atom_site_fract_y
_atom_site_fract_z
_atom_site_charge
N 	N 	0.75770 0.05510 0.67930 -0.07900
O 	O 	0.59620 0.86990 0.97790 -0.37600
O 	O 	0.81890 0.98240 0.02590 -0.44800
N 	N 	0.19630 0.92970 0.66990 -0.14800
N 	N 	0.34690 0.93050 0.83510 -0.21200
N 	N 	0.76380 0.29760 0.92820 -0.16200
N 	N 	0.87520 0.82820 0.91830 -0.17600
C 	C 	0.96340 0.88280 0.52200 0.18300
C 	C 	0.71810 0.88930 0.98150 0.38600
C 	C 	0.74790 0.79470 0.92330 -0.03600
C 	C 	0.25300 0.97690 0.77570 0.20400
H 	H 	0.22830 0.03570 0.80340 -0.06400
N 	N 	0.91270 0.06140 0.84540 -0.19900
N 	N 	0.61130 0.13360 0.93190 -0.23800
C 	C 	0.85450 0.57420 0.73330 0.29300
C 	C 	0.77990 0.01990 0.77740 -0.02900
H 	H 	0.70920 0.97150 0.79560 0.07200
C 	C 	0.09390 0.96440 0.58210 0.07900
C 	C 	0.99130 0.40910 0.92950 -0.26000
H 	H 	0.98310 0.34630 0.88230 0.14900
C 	C 	0.88380 0.40320 0.96600 0.17500
C 	C 	0.72230 0.22110 0.98960 0.25600
H 	H 	0.76750 0.22930 0.06500 -0.09300
C 	C 	0.11050 0.50740 0.96250 0.38100
C 	C 	0.62530 0.02440 0.58690 -0.15700
C 	C 	0.25850 0.84500 0.66160 -0.00400
H 	H 	0.24080 0.79690 0.59860 0.02300
C 	C 	0.54900 0.90840 0.54850 0.38400
C 	C 	0.88420 0.12860 0.68620 -0.06400
H 	H 	0.90180 0.16910 0.63160 0.06500
C 	C 	0.41990 0.88490 0.45830 -0.33700
H 	H 	0.36480 0.80740 0.42910 0.15200
O 	O 	0.97970 0.61030 0.74430 -0.25200
C 	C 	0.98000 0.13130 0.78810 0.10600
H 	H 	0.07540 0.17360 0.81470 -0.03500
C 	C 	0.65080 0.68650 0.87450 -0.04900
H 	H 	0.56460 0.66340 0.88170 0.04900
C 	C 	0.87000 0.92110 0.43830 -0.08200
H 	H 	0.78200 0.86890 0.39550 0.06900
C 	C 	0.81090 0.64730 0.80400 -0.08000
C 	C 	0.90640 0.75610 0.85880 0.05900
H 	H 	0.99410 0.77960 0.85420 0.04000
C 	C 	0.57820 0.15700 0.82580 0.00600
H 	H 	0.50220 0.11040 0.76540 0.01300
C 	C 	0.67280 0.25760 0.82270 0.00400
H 	H 	0.67510 0.29220 0.76130 0.04600
C 	C 	0.34960 0.84630 0.76300 0.00300
H 	H 	0.40610 0.79770 0.78210 0.02300
O 	O 	0.75790 0.48400 0.67420 -0.25300
C 	C 	0.22590 0.51160 0.92550 -0.95000
H 	H 	0.22790 0.43310 0.91160 0.31500
H 	H 	0.31410 0.55750 0.98120 0.34000
H 	H 	0.21050 0.54670 0.85980 0.31700
C 	C 	0.68550 0.61220 0.81350 -0.00100
H 	H 	0.62190 0.53840 0.77950 0.03700
C 	C 	0.59430 0.80500 0.59490 -0.89500
H 	H 	0.69420 0.82320 0.61630 0.30700
H 	H 	0.54680 0.73650 0.54040 0.29300
H 	H 	0.57070 0.79000 0.65730 0.29800
C 	C 	0.91650 0.75610 0.54140 -0.69600
H 	H 	0.97840 0.71620 0.53210 0.25600
H 	H 	0.82220 0.71740 0.49020 0.23200
H 	H 	0.91930 0.75480 0.61430 0.25200
N 	N 	0.24230 0.94490 0.32070 -0.17600
O 	O 	0.40380 0.13010 0.02210 -0.41700
O 	O 	0.18110 0.01760 0.97410 -0.37000
N 	N 	0.80370 0.07030 0.33010 -0.09700
N 	N 	0.65310 0.06950 0.16490 -0.21400
N 	N 	0.23620 0.70240 0.07180 -0.08700
N 	N 	0.12480 0.17180 0.08170 -0.24200
C 	C 	0.03660 0.11720 0.47800 0.19000
C 	C 	0.28190 0.11070 0.01850 0.22200
C 	C 	0.25210 0.20530 0.07670 -0.03100
C 	C 	0.74700 0.02310 0.22430 -0.03400
H 	H 	0.77170 0.96430 0.19660 0.08400
N 	N 	0.08730 0.93860 0.15460 -0.22500
N 	N 	0.38870 0.86640 0.06810 -0.19200
C 	C 	0.14550 0.42580 0.26670 0.29800
C 	C 	0.22010 0.98010 0.22260 0.23700
H 	H 	0.29080 0.02850 0.20440 -0.10500
C 	C 	0.90610 0.03560 0.41790 -0.03400
C 	C 	0.00870 0.59090 0.07050 -0.11900
H 	H 	0.01690 0.65370 0.11770 0.06800
C 	C 	0.11620 0.59680 0.03400 -0.13500
C 	C 	0.27770 0.77890 0.01040 -0.05400
H 	H 	0.23250 0.77070 0.93500 0.08500
C 	C 	0.88950 0.49260 0.03750 0.08900
C 	C 	0.37470 0.97560 0.41310 0.20900
C 	C 	0.74150 0.15500 0.33840 -0.00900
H 	H 	0.75920 0.20310 0.40140 0.03700
C 	C 	0.45100 0.09160 0.45150 -0.02300
C 	C 	0.11580 0.87140 0.31380 0.05800
H 	H 	0.09820 0.83090 0.36840 0.00200
C 	C 	0.58010 0.11510 0.54170 -0.02000
H 	H 	0.63520 0.19260 0.57090 0.05000
O 	O 	0.02030 0.38970 0.25570 -0.29000
C 	C 	0.02000 0.86870 0.21190 -0.09100
H 	H 	0.92460 0.82640 0.18530 0.07200
C 	C 	0.34920 0.31350 0.12550 -0.08600
H 	H 	0.43540 0.33660 0.11830 0.04500
C 	C 	0.13000 0.07890 0.56170 -0.28500
H 	H 	0.21800 0.13110 0.60450 0.11800
C 	C 	0.18910 0.35270 0.19600 -0.10600
C 	C 	0.09360 0.24390 0.14120 0.03800
H 	H 	0.00590 0.22040 0.14580 -0.00800
C 	C 	0.42180 0.84300 0.17420 0.01200
H 	H 	0.49780 0.88960 0.23460 0.04000
C 	C 	0.32720 0.74240 0.17730 -0.02000
H 	H 	0.32490 0.70780 0.23870 0.04900
C 	C 	0.65040 0.15370 0.23700 0.00500
H 	H 	0.59390 0.20230 0.21790 0.02200
O 	O 	0.24210 0.51600 0.32580 -0.26600
C 	C 	0.77410 0.48840 0.07450 -0.56800
H 	H 	0.77210 0.56690 0.08840 0.18800
H 	H 	0.68590 0.44250 0.01880 0.17100
H 	H 	0.78950 0.45330 0.14020 0.21200
C 	C 	0.31450 0.38780 0.18650 0.00200
H 	H 	0.37810 0.46160 0.22050 0.02700
C 	C 	0.40570 0.19500 0.40510 -0.46500
H 	H 	0.30580 0.17680 0.38370 0.15600
H 	H 	0.45320 0.26350 0.45960 0.16800
H 	H 	0.42930 0.21000 0.34270 0.16700
C 	C 	0.08350 0.24390 0.45860 -0.71000
H 	H 	0.02160 0.28380 0.46790 0.23400
H 	H 	0.17780 0.28260 0.50980 0.23300
H 	H 	0.08070 0.24520 0.38570 0.24400
Co	Co	0.50000 0.00000 -0.00000 1.08500
Co	Co	-0.00000 0.00000 -0.00000 1.07000
