data_crystal

_cell_length_a 10.24100
_cell_length_b 13.76900
_cell_length_c 13.32600
_cell_angle_alpha 90.00000
_cell_angle_beta  90.76800
_cell_angle_gamma 90.00000

_symmetry_space_group_name_	'P 1'
_symmetry_space_group_name_H-M	'P 1'

loop_
_symmetry_equiv_pos_as_xyz
  x,y,z

loop_
_atom_site_label
_atom_site_type_symbol
_atom_site_fract_x
_atom_site_fract_y
_atom_site_fract_z
_atom_site_charge
Cd	Cd	0.14404 0.42412 0.06183 1.23100
O 	O 	0.62268 0.54692 0.92271 -0.33900
O 	O 	0.71302 0.65649 0.82574 -0.35500
O 	O 	0.01745 0.64862 0.85162 -0.39800
O 	O 	0.43765 0.83245 0.57318 -0.37400
O 	O 	0.12753 0.54545 0.94673 -0.46800
O 	O 	0.23048 0.79380 0.55910 -0.29900
C 	C 	0.34970 0.73074 0.69893 -0.08500
C 	C 	0.24620 0.64335 0.83316 -0.10800
C 	C 	0.48110 0.64542 0.82233 -0.07700
C 	C 	0.12160 0.61041 0.88138 0.38300
C 	C 	0.23730 0.70098 0.74706 0.03900
H 	H 	0.15590 0.71940 0.72200 0.05500
C 	C 	0.61410 0.61455 0.85938 0.30600
C 	C 	0.36810 0.61487 0.86970 0.03800
H 	H 	0.37410 0.57520 0.92610 0.05200
C 	C 	0.47110 0.70474 0.73775 0.02700
H 	H 	0.54640 0.72710 0.70710 0.05500
C 	C 	0.33780 0.79026 0.60425 0.31800
Cd	Cd	0.35597 0.92412 0.43817 1.23200
O 	O 	0.87732 0.04692 0.57729 -0.33900
O 	O 	0.78698 0.15649 0.67426 -0.35300
O 	O 	0.48255 0.14862 0.64838 -0.40000
O 	O 	0.06235 0.33245 0.92682 -0.37200
O 	O 	0.37247 0.04545 0.55327 -0.47100
O 	O 	0.26952 0.29380 0.94090 -0.29800
C 	C 	0.15030 0.23074 0.80107 -0.08900
C 	C 	0.25380 0.14335 0.66684 -0.11100
C 	C 	0.01890 0.14542 0.67767 -0.07900
C 	C 	0.37840 0.11041 0.61862 0.38400
C 	C 	0.26270 0.20098 0.75294 0.04200
H 	H 	0.34410 0.21940 0.77800 0.05400
C 	C 	0.88590 0.11455 0.64062 0.30500
C 	C 	0.13190 0.11487 0.63030 0.04000
H 	H 	0.12590 0.07520 0.57390 0.05100
C 	C 	0.02890 0.20474 0.76225 0.03800
H 	H 	0.95360 0.22710 0.79290 0.04700
C 	C 	0.16220 0.29026 0.89575 0.31900
Cd	Cd	0.85597 0.57588 0.93817 1.23000
O 	O 	0.37732 0.45308 0.07729 -0.34000
O 	O 	0.28698 0.34351 0.17426 -0.35500
O 	O 	0.98255 0.35138 0.14838 -0.39800
O 	O 	0.56235 0.16755 0.42682 -0.37400
O 	O 	0.87247 0.45455 0.05327 -0.46800
O 	O 	0.76952 0.20620 0.44090 -0.29900
C 	C 	0.65030 0.26926 0.30107 -0.08500
C 	C 	0.75380 0.35665 0.16684 -0.10800
C 	C 	0.51890 0.35458 0.17767 -0.07700
C 	C 	0.87840 0.38959 0.11862 0.38300
C 	C 	0.76270 0.29902 0.25294 0.03900
H 	H 	0.84410 0.28060 0.27800 0.05500
C 	C 	0.38590 0.38545 0.14062 0.30600
C 	C 	0.63190 0.38513 0.13030 0.03800
H 	H 	0.62590 0.42480 0.07390 0.05200
C 	C 	0.52890 0.29526 0.26225 0.02700
H 	H 	0.45360 0.27290 0.29290 0.05500
C 	C 	0.66220 0.20974 0.39575 0.31800
Cd	Cd	0.64404 0.07588 0.56183 1.23200
O 	O 	0.12268 0.95308 0.42271 -0.33900
O 	O 	0.21302 0.84351 0.32574 -0.35300
O 	O 	0.51745 0.85138 0.35162 -0.40000
O 	O 	0.93765 0.66755 0.07318 -0.37200
O 	O 	0.62753 0.95455 0.44673 -0.47100
O 	O 	0.73048 0.70620 0.05910 -0.29800
C 	C 	0.84970 0.76926 0.19893 -0.08900
C 	C 	0.74620 0.85665 0.33316 -0.11100
C 	C 	0.98110 0.85458 0.32233 -0.07900
C 	C 	0.62160 0.88959 0.38138 0.38400
C 	C 	0.73730 0.79902 0.24706 0.04200
H 	H 	0.65590 0.78060 0.22200 0.05400
C 	C 	0.11410 0.88545 0.35938 0.30500
C 	C 	0.86810 0.88513 0.36970 0.04000
H 	H 	0.87410 0.92480 0.42610 0.05100
C 	C 	0.97110 0.79526 0.23775 0.03800
H 	H 	0.04640 0.77290 0.20710 0.04700
C 	C 	0.83780 0.70974 0.10425 0.31900
