data_crystal

_cell_length_a 25.64770
_cell_length_b 25.64770
_cell_length_c 25.64770
_cell_angle_alpha 60.00000
_cell_angle_beta  60.00000
_cell_angle_gamma 60.00000

_symmetry_space_group_name_	'P 1'
_symmetry_space_group_name_H-M	'P 1'

loop_
_symmetry_equiv_pos_as_xyz
  x,y,z

loop_
_atom_site_label
_atom_site_type_symbol
_atom_site_fract_x
_atom_site_fract_y
_atom_site_fract_z
_atom_site_charge
Cu	Cu	0.67322 0.25000 0.75000 0.85600
Cu	Cu	0.75000 0.17322 0.32678 0.85600
Cu	Cu	0.25000 0.32678 0.17322 0.85600
Cu	Cu	0.82678 0.75000 0.25000 0.85600
Cu	Cu	0.67322 0.75000 0.32678 0.85600
Cu	Cu	0.75000 0.32678 0.75000 0.85600
Cu	Cu	0.25000 0.17322 0.25000 0.85600
Cu	Cu	0.82678 0.25000 0.17322 0.85600
Cu	Cu	0.67322 0.32678 0.25000 0.85600
Cu	Cu	0.75000 0.75000 0.17322 0.85600
Cu	Cu	0.25000 0.25000 0.32678 0.85600
Cu	Cu	0.82678 0.17322 0.75000 0.85600
Cu	Cu	0.32678 0.75000 0.25000 0.85600
Cu	Cu	0.25000 0.82678 0.67322 0.85600
Cu	Cu	0.75000 0.67322 0.82678 0.85600
Cu	Cu	0.17322 0.25000 0.75000 0.85600
Cu	Cu	0.32678 0.25000 0.67322 0.85600
Cu	Cu	0.25000 0.67322 0.25000 0.85600
Cu	Cu	0.75000 0.82678 0.75000 0.85600
Cu	Cu	0.17322 0.75000 0.82678 0.85600
Cu	Cu	0.32678 0.67322 0.75000 0.85600
Cu	Cu	0.25000 0.25000 0.82678 0.85600
Cu	Cu	0.75000 0.75000 0.67322 0.85600
Cu	Cu	0.17322 0.82678 0.25000 0.85600
H 	H 	0.55290 0.54810 0.73270 0.07400
H 	H 	0.46050 0.63690 0.73450 -0.02400
H 	H 	0.04810 0.05290 0.16630 0.07300
H 	H 	0.13690 0.96050 0.16810 -0.02400
H 	H 	0.23270 0.16630 0.05290 0.07300
H 	H 	0.23450 0.16810 0.96050 -0.02400
H 	H 	0.66630 0.73270 0.54810 0.07400
H 	H 	0.66810 0.73450 0.63690 -0.02400
H 	H 	0.55290 0.73270 0.16630 0.07300
H 	H 	0.46050 0.73450 0.16810 -0.02400
H 	H 	0.04810 0.16630 0.73270 0.07300
H 	H 	0.13690 0.16810 0.73450 -0.02400
H 	H 	0.23270 0.05290 0.54810 0.07400
H 	H 	0.23450 0.96050 0.63690 -0.02300
H 	H 	0.66630 0.54810 0.05290 0.07500
H 	H 	0.66810 0.63690 0.96050 -0.02300
H 	H 	0.55290 0.16630 0.54810 0.07400
H 	H 	0.46050 0.16810 0.63690 -0.02300
H 	H 	0.04810 0.73270 0.05290 0.07400
H 	H 	0.13690 0.73450 0.96050 -0.02300
H 	H 	0.23270 0.54810 0.16630 0.07500
H 	H 	0.23450 0.63690 0.16810 -0.02300
H 	H 	0.66630 0.05290 0.73270 0.07500
H 	H 	0.66810 0.96050 0.73450 -0.02300
H 	H 	0.45190 0.44710 0.76730 0.07500
H 	H 	0.36310 0.53950 0.76550 -0.02300
H 	H 	0.94710 0.95190 0.33370 0.07400
H 	H 	0.03950 0.86310 0.33190 -0.02300
H 	H 	0.83370 0.76730 0.44710 0.07400
H 	H 	0.83190 0.76550 0.53950 -0.02300
H 	H 	0.26730 0.33370 0.95190 0.07400
H 	H 	0.26550 0.33190 0.86310 -0.02300
H 	H 	0.26730 0.44710 0.33370 0.07500
H 	H 	0.26550 0.53950 0.33190 -0.02300
H 	H 	0.83370 0.95190 0.76730 0.07400
H 	H 	0.83190 0.86310 0.76550 -0.02300
H 	H 	0.94710 0.76730 0.95190 0.07400
H 	H 	0.03950 0.76550 0.86310 -0.02300
H 	H 	0.45190 0.33370 0.44710 0.07500
H 	H 	0.36310 0.33190 0.53950 -0.02300
H 	H 	0.83370 0.44710 0.95190 0.07400
H 	H 	0.83190 0.53950 0.86310 -0.02300
H 	H 	0.26730 0.95190 0.44710 0.07400
H 	H 	0.26550 0.86310 0.53950 -0.02300
H 	H 	0.45190 0.76730 0.33370 0.07500
H 	H 	0.36310 0.76550 0.33190 -0.02300
H 	H 	0.94710 0.33370 0.76730 0.07400
H 	H 	0.03950 0.33190 0.76550 -0.02300
H 	H 	0.44710 0.45190 0.26730 0.07500
H 	H 	0.53950 0.36310 0.26550 -0.02300
H 	H 	0.95190 0.94710 0.83370 0.07400
H 	H 	0.86310 0.03950 0.83190 -0.02300
H 	H 	0.76730 0.83370 0.94710 0.07400
H 	H 	0.76550 0.83190 0.03950 -0.02300
H 	H 	0.33370 0.26730 0.45190 0.07500
H 	H 	0.33190 0.26550 0.36310 -0.02300
H 	H 	0.44710 0.26730 0.83370 0.07400
H 	H 	0.53950 0.26550 0.83190 -0.02300
H 	H 	0.95190 0.83370 0.26730 0.07400
H 	H 	0.86310 0.83190 0.26550 -0.02300
H 	H 	0.76730 0.94710 0.45190 0.07400
H 	H 	0.76550 0.03950 0.36310 -0.02300
H 	H 	0.33370 0.45190 0.94710 0.07500
H 	H 	0.33190 0.36310 0.03950 -0.02300
H 	H 	0.44710 0.83370 0.45190 0.07400
H 	H 	0.53950 0.83190 0.36310 -0.02300
H 	H 	0.95190 0.26730 0.94710 0.07400
H 	H 	0.86310 0.26550 0.03950 -0.02300
H 	H 	0.76730 0.45190 0.83370 0.07500
H 	H 	0.76550 0.36310 0.83190 -0.02300
H 	H 	0.33370 0.94710 0.26730 0.07500
H 	H 	0.33190 0.03950 0.26550 -0.02300
H 	H 	0.54810 0.55290 0.23270 0.07500
H 	H 	0.63690 0.46050 0.23450 -0.02300
H 	H 	0.05290 0.04810 0.66630 0.07400
H 	H 	0.96050 0.13690 0.66810 -0.02300
H 	H 	0.16630 0.23270 0.55290 0.07400
H 	H 	0.16810 0.23450 0.46050 -0.02300
H 	H 	0.73270 0.66630 0.04810 0.07400
H 	H 	0.73450 0.66810 0.13690 -0.02300
H 	H 	0.73270 0.55290 0.66630 0.07500
H 	H 	0.73450 0.46050 0.66810 -0.02300
H 	H 	0.16630 0.04810 0.23270 0.07400
H 	H 	0.16810 0.13690 0.23450 -0.02300
H 	H 	0.05290 0.23270 0.04810 0.07400
H 	H 	0.96050 0.23450 0.13690 -0.02300
H 	H 	0.54810 0.66630 0.55290 0.07500
H 	H 	0.63690 0.66810 0.46050 -0.02300
H 	H 	0.16630 0.55290 0.04810 0.07400
H 	H 	0.16810 0.46050 0.13690 -0.02300
H 	H 	0.73270 0.04810 0.55290 0.07400
H 	H 	0.73450 0.13690 0.46050 -0.02300
H 	H 	0.54810 0.23270 0.66630 0.07500
H 	H 	0.63690 0.23450 0.66810 -0.02300
H 	H 	0.05290 0.66630 0.23270 0.07400
H 	H 	0.96050 0.66810 0.23450 -0.02300
C 	C 	0.51422 0.54506 0.74002 -0.13100
C 	C 	0.45923 0.59775 0.74077 0.07900
C 	C 	0.04506 0.01422 0.20070 -0.13000
C 	C 	0.09775 0.95923 0.20225 0.07800
C 	C 	0.24002 0.20070 0.01422 -0.13100
C 	C 	0.24077 0.20225 0.95923 0.07900
C 	C 	0.70070 0.74002 0.54506 -0.13100
C 	C 	0.70225 0.74077 0.59775 0.07900
C 	C 	0.51422 0.74002 0.20070 -0.13100
C 	C 	0.45923 0.74077 0.20225 0.07900
C 	C 	0.04506 0.20070 0.74002 -0.13100
C 	C 	0.09775 0.20225 0.74077 0.07900
C 	C 	0.24002 0.01422 0.54506 -0.13100
C 	C 	0.24077 0.95923 0.59775 0.07900
C 	C 	0.70070 0.54506 0.01422 -0.13100
C 	C 	0.70225 0.59775 0.95923 0.07900
C 	C 	0.51422 0.20070 0.54506 -0.13100
C 	C 	0.45923 0.20225 0.59775 0.07900
C 	C 	0.04506 0.74002 0.01422 -0.13000
C 	C 	0.09775 0.74077 0.95923 0.07800
C 	C 	0.24002 0.54506 0.20070 -0.13100
C 	C 	0.24077 0.59775 0.20225 0.07900
C 	C 	0.70070 0.01422 0.74002 -0.13100
C 	C 	0.70225 0.95923 0.74077 0.07900
C 	C 	0.45494 0.48578 0.75998 -0.13100
C 	C 	0.40225 0.54077 0.75923 0.07900
C 	C 	0.98578 0.95494 0.29930 -0.13000
C 	C 	0.04077 0.90225 0.29775 0.07800
C 	C 	0.79930 0.75998 0.48578 -0.13100
C 	C 	0.79775 0.75923 0.54077 0.07900
C 	C 	0.25998 0.29930 0.95494 -0.13100
C 	C 	0.25923 0.29775 0.90225 0.07900
C 	C 	0.25998 0.48578 0.29930 -0.13100
C 	C 	0.25923 0.54077 0.29775 0.07900
C 	C 	0.79930 0.95494 0.75998 -0.13100
C 	C 	0.79775 0.90225 0.75923 0.07900
C 	C 	0.98578 0.75998 0.95494 -0.13000
C 	C 	0.04077 0.75923 0.90225 0.07800
C 	C 	0.45494 0.29930 0.48578 -0.13100
C 	C 	0.40225 0.29775 0.54077 0.07900
C 	C 	0.79930 0.48578 0.95494 -0.13100
C 	C 	0.79775 0.54077 0.90225 0.07900
C 	C 	0.25998 0.95494 0.48578 -0.13100
C 	C 	0.25923 0.90225 0.54077 0.07900
C 	C 	0.45494 0.75998 0.29930 -0.13100
C 	C 	0.40225 0.75923 0.29775 0.07900
C 	C 	0.98578 0.29930 0.75998 -0.13100
C 	C 	0.04077 0.29775 0.75923 0.07900
C 	C 	0.48578 0.45494 0.25998 -0.13100
C 	C 	0.54077 0.40225 0.25923 0.07900
C 	C 	0.95494 0.98578 0.79930 -0.13000
C 	C 	0.90225 0.04077 0.79775 0.07800
C 	C 	0.75998 0.79930 0.98578 -0.13100
C 	C 	0.75923 0.79775 0.04077 0.07900
C 	C 	0.29930 0.25998 0.45494 -0.13100
C 	C 	0.29775 0.25923 0.40225 0.07900
C 	C 	0.48578 0.25998 0.79930 -0.13100
C 	C 	0.54077 0.25923 0.79775 0.07900
C 	C 	0.95494 0.79930 0.25998 -0.13100
C 	C 	0.90225 0.79775 0.25923 0.07900
C 	C 	0.75998 0.98578 0.45494 -0.13100
C 	C 	0.75923 0.04077 0.40225 0.07900
C 	C 	0.29930 0.45494 0.98578 -0.13100
C 	C 	0.29775 0.40225 0.04077 0.07900
C 	C 	0.48578 0.79930 0.45494 -0.13100
C 	C 	0.54077 0.79775 0.40225 0.07900
C 	C 	0.95494 0.25998 0.98578 -0.13000
C 	C 	0.90225 0.25923 0.04077 0.07800
C 	C 	0.75998 0.45494 0.79930 -0.13100
C 	C 	0.75923 0.40225 0.79775 0.07900
C 	C 	0.29930 0.98578 0.25998 -0.13100
C 	C 	0.29775 0.04077 0.25923 0.07900
C 	C 	0.54506 0.51422 0.24002 -0.13100
C 	C 	0.59775 0.45923 0.24077 0.07900
C 	C 	0.01422 0.04506 0.70070 -0.13000
C 	C 	0.95923 0.09775 0.70225 0.07800
C 	C 	0.20070 0.24002 0.51422 -0.13100
C 	C 	0.20225 0.24077 0.45923 0.07900
C 	C 	0.74002 0.70070 0.04506 -0.13100
C 	C 	0.74077 0.70225 0.09775 0.07900
C 	C 	0.74002 0.51422 0.70070 -0.13100
C 	C 	0.74077 0.45923 0.70225 0.07900
C 	C 	0.20070 0.04506 0.24002 -0.13100
C 	C 	0.20225 0.09775 0.24077 0.07900
C 	C 	0.01422 0.24002 0.04506 -0.13000
C 	C 	0.95923 0.24077 0.09775 0.07800
C 	C 	0.54506 0.70070 0.51422 -0.13100
C 	C 	0.59775 0.70225 0.45923 0.07900
C 	C 	0.20070 0.51422 0.04506 -0.13100
C 	C 	0.20225 0.45923 0.09775 0.07900
C 	C 	0.74002 0.04506 0.51422 -0.13100
C 	C 	0.74077 0.09775 0.45923 0.07900
C 	C 	0.54506 0.24002 0.70070 -0.13100
C 	C 	0.59775 0.24077 0.70225 0.07900
C 	C 	0.01422 0.70070 0.24002 -0.13100
C 	C 	0.95923 0.70225 0.24077 0.07900
C 	C 	0.56912 0.43088 0.75000 0.08600
C 	C 	0.51216 0.48784 0.75000 0.05200
C 	C 	0.93088 0.06912 0.25000 0.08600
C 	C 	0.98784 0.01216 0.25000 0.05000
C 	C 	0.25000 0.25000 0.06912 0.08600
C 	C 	0.25000 0.25000 0.01216 0.05200
C 	C 	0.75000 0.75000 0.43088 0.08600
C 	C 	0.75000 0.75000 0.48784 0.05200
C 	C 	0.56912 0.75000 0.25000 0.08600
C 	C 	0.51216 0.75000 0.25000 0.05200
C 	C 	0.93088 0.25000 0.75000 0.08600
C 	C 	0.98784 0.25000 0.75000 0.05200
C 	C 	0.25000 0.06912 0.43088 0.08600
C 	C 	0.25000 0.01216 0.48784 0.05200
C 	C 	0.75000 0.43088 0.06912 0.08600
C 	C 	0.75000 0.48784 0.01216 0.05200
C 	C 	0.56912 0.25000 0.43088 0.08600
C 	C 	0.51216 0.25000 0.48784 0.05200
C 	C 	0.93088 0.75000 0.06912 0.08600
C 	C 	0.98784 0.75000 0.01216 0.05100
C 	C 	0.25000 0.43088 0.25000 0.08600
C 	C 	0.25000 0.48784 0.25000 0.05200
C 	C 	0.75000 0.06912 0.75000 0.08600
C 	C 	0.75000 0.01216 0.75000 0.05200
C 	C 	0.43088 0.56912 0.25000 0.08600
C 	C 	0.48784 0.51216 0.25000 0.05200
C 	C 	0.06912 0.93088 0.75000 0.08600
C 	C 	0.01216 0.98784 0.75000 0.05000
C 	C 	0.75000 0.75000 0.93088 0.08600
C 	C 	0.75000 0.75000 0.98784 0.05200
C 	C 	0.25000 0.25000 0.56912 0.08600
C 	C 	0.25000 0.25000 0.51216 0.05200
C 	C 	0.43088 0.25000 0.75000 0.08600
C 	C 	0.48784 0.25000 0.75000 0.05200
C 	C 	0.06912 0.75000 0.25000 0.08600
C 	C 	0.01216 0.75000 0.25000 0.05200
C 	C 	0.75000 0.93088 0.56912 0.08600
C 	C 	0.75000 0.98784 0.51216 0.05200
C 	C 	0.25000 0.56912 0.93088 0.08600
C 	C 	0.25000 0.51216 0.98784 0.05200
C 	C 	0.43088 0.75000 0.56912 0.08600
C 	C 	0.48784 0.75000 0.51216 0.05200
C 	C 	0.06912 0.25000 0.93088 0.08600
C 	C 	0.01216 0.25000 0.98784 0.05100
C 	C 	0.75000 0.56912 0.75000 0.08600
C 	C 	0.75000 0.51216 0.75000 0.05200
C 	C 	0.25000 0.93088 0.25000 0.08600
C 	C 	0.25000 0.98784 0.25000 0.05200
N 	N 	0.63182 0.33938 0.74886 -0.17200
N 	N 	0.57347 0.37799 0.74821 -0.10300
N 	N 	0.83938 0.13182 0.27994 -0.17200
N 	N 	0.87799 0.07347 0.30033 -0.10300
N 	N 	0.24886 0.27994 0.13182 -0.17200
N 	N 	0.24821 0.30033 0.07347 -0.10300
N 	N 	0.77994 0.74886 0.33938 -0.17200
N 	N 	0.80033 0.74821 0.37799 -0.10300
N 	N 	0.63182 0.74886 0.27994 -0.17200
N 	N 	0.57347 0.74821 0.30033 -0.10300
N 	N 	0.83938 0.27994 0.74886 -0.17200
N 	N 	0.87799 0.30033 0.74821 -0.10300
N 	N 	0.24886 0.13182 0.33938 -0.17200
N 	N 	0.24821 0.07347 0.37799 -0.10300
N 	N 	0.77994 0.33938 0.13182 -0.17200
N 	N 	0.80033 0.37799 0.07347 -0.10300
N 	N 	0.63182 0.27994 0.33938 -0.17200
N 	N 	0.57347 0.30033 0.37799 -0.10300
N 	N 	0.83938 0.74886 0.13182 -0.17200
N 	N 	0.87799 0.74821 0.07347 -0.10300
N 	N 	0.24886 0.33938 0.27994 -0.17200
N 	N 	0.24821 0.37799 0.30033 -0.10300
N 	N 	0.77994 0.13182 0.74886 -0.17200
N 	N 	0.80033 0.07347 0.74821 -0.10300
N 	N 	0.66062 0.36818 0.75114 -0.17200
N 	N 	0.62201 0.42653 0.75179 -0.10300
N 	N 	0.86818 0.16062 0.22006 -0.17200
N 	N 	0.92653 0.12201 0.19967 -0.10300
N 	N 	0.72006 0.75114 0.36818 -0.17200
N 	N 	0.69967 0.75179 0.42653 -0.10300
N 	N 	0.25114 0.22006 0.16062 -0.17200
N 	N 	0.25179 0.19967 0.12201 -0.10300
N 	N 	0.25114 0.36818 0.22006 -0.17200
N 	N 	0.25179 0.42653 0.19967 -0.10300
N 	N 	0.72006 0.16062 0.75114 -0.17200
N 	N 	0.69967 0.12201 0.75179 -0.10300
N 	N 	0.86818 0.75114 0.16062 -0.17200
N 	N 	0.92653 0.75179 0.12201 -0.10300
N 	N 	0.66062 0.22006 0.36818 -0.17200
N 	N 	0.62201 0.19967 0.42653 -0.10300
N 	N 	0.72006 0.36818 0.16062 -0.17200
N 	N 	0.69967 0.42653 0.12201 -0.10300
N 	N 	0.25114 0.16062 0.36818 -0.17200
N 	N 	0.25179 0.12201 0.42653 -0.10300
N 	N 	0.66062 0.75114 0.22006 -0.17200
N 	N 	0.62201 0.75179 0.19967 -0.10300
N 	N 	0.86818 0.22006 0.75114 -0.17200
N 	N 	0.92653 0.19967 0.75179 -0.10300
N 	N 	0.36818 0.66062 0.25114 -0.17200
N 	N 	0.42653 0.62201 0.25179 -0.10300
N 	N 	0.16062 0.86818 0.72006 -0.17200
N 	N 	0.12201 0.92653 0.69967 -0.10300
N 	N 	0.75114 0.72006 0.86818 -0.17200
N 	N 	0.75179 0.69967 0.92653 -0.10300
N 	N 	0.22006 0.25114 0.66062 -0.17200
N 	N 	0.19967 0.25179 0.62201 -0.10300
N 	N 	0.36818 0.25114 0.72006 -0.17200
N 	N 	0.42653 0.25179 0.69967 -0.10300
N 	N 	0.16062 0.72006 0.25114 -0.17200
N 	N 	0.12201 0.69967 0.25179 -0.10300
N 	N 	0.75114 0.86818 0.66062 -0.17200
N 	N 	0.75179 0.92653 0.62201 -0.10300
N 	N 	0.22006 0.66062 0.86818 -0.17200
N 	N 	0.19967 0.62201 0.92653 -0.10300
N 	N 	0.36818 0.72006 0.66062 -0.17200
N 	N 	0.42653 0.69967 0.62201 -0.10300
N 	N 	0.16062 0.25114 0.86818 -0.17200
N 	N 	0.12201 0.25179 0.92653 -0.10300
N 	N 	0.75114 0.66062 0.72006 -0.17200
N 	N 	0.75179 0.62201 0.69967 -0.10300
N 	N 	0.22006 0.86818 0.25114 -0.17200
N 	N 	0.19967 0.92653 0.25179 -0.10300
N 	N 	0.33938 0.63182 0.24886 -0.17200
N 	N 	0.37799 0.57347 0.24821 -0.10300
N 	N 	0.13182 0.83938 0.77994 -0.17200
N 	N 	0.07347 0.87799 0.80033 -0.10300
N 	N 	0.27994 0.24886 0.63182 -0.17200
N 	N 	0.30033 0.24821 0.57347 -0.10300
N 	N 	0.74886 0.77994 0.83938 -0.17200
N 	N 	0.74821 0.80033 0.87799 -0.10300
N 	N 	0.74886 0.63182 0.77994 -0.17200
N 	N 	0.74821 0.57347 0.80033 -0.10300
N 	N 	0.27994 0.83938 0.24886 -0.17200
N 	N 	0.30033 0.87799 0.24821 -0.10300
N 	N 	0.13182 0.24886 0.83938 -0.17200
N 	N 	0.07347 0.24821 0.87799 -0.10300
N 	N 	0.33938 0.77994 0.63182 -0.17200
N 	N 	0.37799 0.80033 0.57347 -0.10300
N 	N 	0.27994 0.63182 0.83938 -0.17200
N 	N 	0.30033 0.57347 0.87799 -0.10300
N 	N 	0.74886 0.83938 0.63182 -0.17200
N 	N 	0.74821 0.87799 0.57347 -0.10300
N 	N 	0.33938 0.24886 0.77994 -0.17200
N 	N 	0.37799 0.24821 0.80033 -0.10300
N 	N 	0.13182 0.77994 0.24886 -0.17200
N 	N 	0.07347 0.80033 0.24821 -0.10300
N 	N 	0.40472 0.59528 0.75000 -0.24100
N 	N 	0.09528 0.90472 0.25000 -0.24100
N 	N 	0.25000 0.25000 0.90472 -0.24100
N 	N 	0.75000 0.75000 0.59528 -0.24100
N 	N 	0.40472 0.75000 0.25000 -0.24100
N 	N 	0.09528 0.25000 0.75000 -0.24100
N 	N 	0.25000 0.90472 0.59528 -0.24100
N 	N 	0.75000 0.59528 0.90472 -0.24100
N 	N 	0.40472 0.25000 0.59528 -0.24100
N 	N 	0.09528 0.75000 0.90472 -0.24100
N 	N 	0.25000 0.59528 0.25000 -0.24100
N 	N 	0.75000 0.90472 0.75000 -0.24100
N 	N 	0.59528 0.40472 0.25000 -0.24100
N 	N 	0.90472 0.09528 0.75000 -0.24100
N 	N 	0.75000 0.75000 0.09528 -0.24100
N 	N 	0.25000 0.25000 0.40472 -0.24100
N 	N 	0.59528 0.25000 0.75000 -0.24100
N 	N 	0.90472 0.75000 0.25000 -0.24100
N 	N 	0.75000 0.09528 0.40472 -0.24100
N 	N 	0.25000 0.40472 0.09528 -0.24100
N 	N 	0.59528 0.75000 0.40472 -0.24100
N 	N 	0.90472 0.25000 0.09528 -0.24100
N 	N 	0.75000 0.40472 0.75000 -0.24100
N 	N 	0.25000 0.09528 0.25000 -0.24100
O 	O 	0.75000 0.25000 0.75000 -0.60300
O 	O 	0.75000 0.25000 0.25000 -0.60300
O 	O 	0.25000 0.25000 0.25000 -0.60300
O 	O 	0.75000 0.75000 0.25000 -0.60300
O 	O 	0.25000 0.75000 0.25000 -0.60300
O 	O 	0.25000 0.75000 0.75000 -0.60300
O 	O 	0.75000 0.75000 0.75000 -0.60300
O 	O 	0.25000 0.25000 0.75000 -0.60300
