data_crystal

_cell_length_a 10.10000
_cell_length_b 30.13810
_cell_length_c 12.66790
_cell_angle_alpha 90.00000
_cell_angle_beta  126.59700
_cell_angle_gamma 90.00000

_symmetry_space_group_name_	'P 1'
_symmetry_space_group_name_H-M	'P 1'

loop_
_symmetry_equiv_pos_as_xyz
  x,y,z

loop_
_atom_site_label
_atom_site_type_symbol
_atom_site_fract_x
_atom_site_fract_y
_atom_site_fract_z
_atom_site_charge
Cd	Cd	0.12821 0.30677 0.07976 1.20100
Cd	Cd	0.96967 0.40848 0.89017 1.23000
S 	S 	0.47021 0.40497 0.40271 0.03400
S 	S 	0.56018 0.31498 0.00382 0.06300
C 	C 	0.16770 0.41320 0.16290 0.33700
C 	C 	0.27530 0.42590 0.30350 -0.10500
C 	C 	0.24390 0.45357 0.37050 -0.00700
H 	H 	0.14420 0.46830 0.33260 0.03700
C 	C 	0.37870 0.45747 0.50330 -0.02300
H 	H 	0.37710 0.47500 0.56300 0.04000
C 	C 	0.51130 0.43335 0.53620 -0.07700
C 	C 	0.67530 0.42806 0.66360 0.30400
C 	C 	0.24620 0.33762 0.92180 0.37700
C 	C 	0.38140 0.34459 0.90830 -0.11700
C 	C 	0.38790 0.37355 0.82980 -0.00400
H 	H 	0.30220 0.39270 0.77170 0.03500
C 	C 	0.53710 0.37168 0.84500 -0.02200
H 	H 	0.56040 0.38930 0.79760 0.04600
C 	C 	0.64370 0.34153 0.93610 -0.10900
C 	C 	0.81170 0.33012 0.98150 0.34400
C 	C 	0.01160 0.21750 0.89840 0.15900
H 	H 	0.01980 0.23630 0.84440 -0.03900
C 	C 	0.95410 0.17520 0.85540 -0.29500
H 	H 	0.92530 0.16590 0.77420 0.14400
C 	C 	0.93890 0.14634 0.93280 0.28000
C 	C 	0.98550 0.16219 0.05140 -0.28900
H 	H 	0.97770 0.14410 0.10700 0.15100
C 	C 	0.04380 0.20475 0.08900 0.16000
H 	H 	0.07630 0.21430 0.17110 -0.04500
C 	C 	0.86890 0.10036 0.88510 -0.45000
H 	H 	0.94670 0.08280 0.88160 0.16200
H 	H 	0.85720 0.08650 0.94830 0.16400
C 	C 	0.70510 0.09952 0.75230 0.24800
H 	H 	0.71950 0.11110 0.68830 -0.04200
H 	H 	0.63070 0.11940 0.75400 -0.04300
C 	C 	0.62440 0.05431 0.70650 -0.45100
H 	H 	0.61610 0.04170 0.77280 0.16300
H 	H 	0.51330 0.05790 0.62650 0.16500
C 	C 	0.71730 0.02229 0.68050 0.28600
C 	C 	0.81750 0.98993 0.77110 -0.30000
H 	H 	0.82910 0.98750 0.84940 0.12500
C 	C 	0.89960 0.96157 0.74410 0.15900
H 	H 	0.96570 0.93970 0.80550 -0.03800
C 	C 	0.79610 0.99529 0.54970 0.17200
H 	H 	0.78910 0.99790 0.47340 -0.02800
C 	C 	0.70850 0.02465 0.56940 -0.30300
H 	H 	0.64300 0.04620 0.50650 0.14200
O 	O 	0.21390 0.38167 0.12670 -0.48000
O 	O 	0.03920 0.43480 0.08540 -0.41100
O 	O 	0.77920 0.40514 0.66360 -0.37600
O 	O 	0.70170 0.44527 0.76380 -0.36200
O 	O 	0.27400 0.30776 0.00270 -0.44800
O 	O 	0.12040 0.36053 0.85340 -0.43600
O 	O 	0.90050 0.30746 0.08200 -0.41500
O 	O 	0.86090 0.34336 0.91490 -0.48600
N 	N 	0.05650 0.23317 0.01490 -0.27200
N 	N 	0.89000 0.96350 0.63450 -0.26200
Cd	Cd	0.87179 0.80677 0.42024 1.20200
Cd	Cd	0.03033 0.90848 0.60983 1.23200
S 	S 	0.52979 0.90497 0.09729 0.03100
S 	S 	0.43982 0.81498 0.49618 0.05800
C 	C 	0.83230 0.91320 0.33710 0.33700
C 	C 	0.72470 0.92590 0.19650 -0.10400
C 	C 	0.75610 0.95357 0.12950 -0.00700
H 	H 	0.85580 0.96830 0.16740 0.03800
C 	C 	0.62130 0.95747 0.99670 -0.02400
H 	H 	0.62290 0.97500 0.93700 0.04000
C 	C 	0.48870 0.93335 0.96380 -0.07500
C 	C 	0.32470 0.92806 0.83640 0.30400
C 	C 	0.75380 0.83762 0.57820 0.37800
C 	C 	0.61860 0.84459 0.59170 -0.11400
C 	C 	0.61210 0.87355 0.67020 -0.00400
H 	H 	0.69780 0.89270 0.72830 0.03500
C 	C 	0.46290 0.87168 0.65500 -0.02200
H 	H 	0.43960 0.88930 0.70240 0.04600
C 	C 	0.35630 0.84153 0.56390 -0.10700
C 	C 	0.18830 0.83012 0.51850 0.35000
C 	C 	0.98840 0.71750 0.60160 0.16000
H 	H 	0.98020 0.73630 0.65560 -0.04000
C 	C 	0.04590 0.67520 0.64460 -0.29900
H 	H 	0.07470 0.66590 0.72580 0.14700
C 	C 	0.06110 0.64634 0.56720 0.29600
C 	C 	0.01450 0.66219 0.44860 -0.31000
H 	H 	0.02230 0.64410 0.39300 0.15600
C 	C 	0.95620 0.70475 0.41100 0.17300
H 	H 	0.92370 0.71430 0.32890 -0.04900
C 	C 	0.13110 0.60036 0.61490 -0.46300
H 	H 	0.05330 0.58280 0.61840 0.16700
H 	H 	0.14280 0.58650 0.55170 0.16900
C 	C 	0.29490 0.59952 0.74770 0.25800
H 	H 	0.28050 0.61110 0.81170 -0.04500
H 	H 	0.36930 0.61940 0.74600 -0.04600
C 	C 	0.37560 0.55431 0.79350 -0.45800
H 	H 	0.38390 0.54170 0.72720 0.16500
H 	H 	0.48670 0.55790 0.87350 0.16700
C 	C 	0.28270 0.52229 0.81950 0.29100
C 	C 	0.18250 0.48993 0.72890 -0.30400
H 	H 	0.17090 0.48750 0.65060 0.12600
C 	C 	0.10040 0.46157 0.75590 0.16100
H 	H 	0.03430 0.43970 0.69450 -0.03800
C 	C 	0.20390 0.49529 0.95030 0.17800
H 	H 	0.21090 0.49790 0.02660 -0.03200
C 	C 	0.29150 0.52465 0.93060 -0.30800
H 	H 	0.35700 0.54620 0.99350 0.14400
O 	O 	0.78610 0.88167 0.37330 -0.48000
O 	O 	0.96080 0.93480 0.41460 -0.41000
O 	O 	0.22080 0.90514 0.83640 -0.37400
O 	O 	0.29830 0.94527 0.73620 -0.36100
O 	O 	0.72600 0.80776 0.49730 -0.44900
O 	O 	0.87960 0.86053 0.64660 -0.43700
O 	O 	0.09950 0.80746 0.41800 -0.42100
O 	O 	0.13910 0.84336 0.58510 -0.48500
N 	N 	0.94350 0.73317 0.48510 -0.27400
N 	N 	0.11000 0.46350 0.86550 -0.26300
Cd	Cd	0.87179 0.69323 0.92024 1.20200
Cd	Cd	0.03033 0.59152 0.10983 1.23100
S 	S 	0.52979 0.59503 0.59729 0.03400
S 	S 	0.43982 0.68502 0.99618 0.06300
C 	C 	0.83230 0.58680 0.83710 0.33700
C 	C 	0.72470 0.57410 0.69650 -0.10500
C 	C 	0.75610 0.54643 0.62950 -0.00700
H 	H 	0.85580 0.53170 0.66740 0.03700
C 	C 	0.62130 0.54253 0.49670 -0.02300
H 	H 	0.62290 0.52500 0.43700 0.04000
C 	C 	0.48870 0.56665 0.46380 -0.07700
C 	C 	0.32470 0.57194 0.33640 0.30400
C 	C 	0.75380 0.66238 0.07820 0.37700
C 	C 	0.61860 0.65541 0.09170 -0.11700
C 	C 	0.61210 0.62645 0.17020 -0.00400
H 	H 	0.69780 0.60730 0.22830 0.03500
C 	C 	0.46290 0.62832 0.15500 -0.02200
H 	H 	0.43960 0.61070 0.20240 0.04600
C 	C 	0.35630 0.65847 0.06390 -0.10900
C 	C 	0.18830 0.66988 0.01850 0.34400
C 	C 	0.98840 0.78250 0.10160 0.15900
H 	H 	0.98020 0.76370 0.15560 -0.03900
C 	C 	0.04590 0.82480 0.14460 -0.29500
H 	H 	0.07470 0.83410 0.22580 0.14400
C 	C 	0.06110 0.85366 0.06720 0.28000
C 	C 	0.01450 0.83781 0.94860 -0.28900
H 	H 	0.02230 0.85590 0.89300 0.15100
C 	C 	0.95620 0.79525 0.91100 0.16000
H 	H 	0.92370 0.78570 0.82890 -0.04500
C 	C 	0.13110 0.89964 0.11490 -0.45000
H 	H 	0.05330 0.91720 0.11840 0.16200
H 	H 	0.14280 0.91350 0.05170 0.16400
C 	C 	0.29490 0.90048 0.24770 0.24800
H 	H 	0.28050 0.88890 0.31170 -0.04200
H 	H 	0.36930 0.88060 0.24600 -0.04300
C 	C 	0.37560 0.94569 0.29350 -0.45100
H 	H 	0.38390 0.95830 0.22720 0.16300
H 	H 	0.48670 0.94210 0.37350 0.16500
C 	C 	0.28270 0.97771 0.31950 0.28600
C 	C 	0.18250 0.01007 0.22890 -0.30000
H 	H 	0.17090 0.01250 0.15060 0.12500
C 	C 	0.10040 0.03843 0.25590 0.15900
H 	H 	0.03430 0.06030 0.19450 -0.03800
C 	C 	0.20390 0.00471 0.45030 0.17200
H 	H 	0.21090 0.00210 0.52660 -0.02800
C 	C 	0.29150 0.97535 0.43060 -0.30300
H 	H 	0.35700 0.95380 0.49350 0.14200
O 	O 	0.78610 0.61833 0.87330 -0.48000
O 	O 	0.96080 0.56520 0.91460 -0.41100
O 	O 	0.22080 0.59486 0.33640 -0.37600
O 	O 	0.29830 0.55473 0.23620 -0.36200
O 	O 	0.72600 0.69224 0.99730 -0.44800
O 	O 	0.87960 0.63947 0.14660 -0.43600
O 	O 	0.09950 0.69254 0.91800 -0.41500
O 	O 	0.13910 0.65664 0.08510 -0.48600
N 	N 	0.94350 0.76683 0.98510 -0.27200
N 	N 	0.11000 0.03650 0.36550 -0.26200
Cd	Cd	0.12821 0.19323 0.57976 1.20200
Cd	Cd	0.96967 0.09152 0.39017 1.23200
S 	S 	0.47021 0.09503 0.90271 0.03100
S 	S 	0.56018 0.18502 0.50382 0.05800
C 	C 	0.16770 0.08680 0.66290 0.33700
C 	C 	0.27530 0.07410 0.80350 -0.10400
C 	C 	0.24390 0.04643 0.87050 -0.00700
H 	H 	0.14420 0.03170 0.83260 0.03800
C 	C 	0.37870 0.04253 0.00330 -0.02400
H 	H 	0.37710 0.02500 0.06300 0.04000
C 	C 	0.51130 0.06665 0.03620 -0.07500
C 	C 	0.67530 0.07194 0.16360 0.30400
C 	C 	0.24620 0.16238 0.42180 0.37800
C 	C 	0.38140 0.15541 0.40830 -0.11400
C 	C 	0.38790 0.12645 0.32980 -0.00400
H 	H 	0.30220 0.10730 0.27170 0.03500
C 	C 	0.53710 0.12832 0.34500 -0.02200
H 	H 	0.56040 0.11070 0.29760 0.04600
C 	C 	0.64370 0.15847 0.43610 -0.10700
C 	C 	0.81170 0.16988 0.48150 0.35000
C 	C 	0.01160 0.28250 0.39840 0.16000
H 	H 	0.01980 0.26370 0.34440 -0.04000
C 	C 	0.95410 0.32480 0.35540 -0.29900
H 	H 	0.92530 0.33410 0.27420 0.14700
C 	C 	0.93890 0.35366 0.43280 0.29600
C 	C 	0.98550 0.33781 0.55140 -0.31000
H 	H 	0.97770 0.35590 0.60700 0.15600
C 	C 	0.04380 0.29525 0.58900 0.17300
H 	H 	0.07630 0.28570 0.67110 -0.04900
C 	C 	0.86890 0.39964 0.38510 -0.46300
H 	H 	0.94670 0.41720 0.38160 0.16700
H 	H 	0.85720 0.41350 0.44830 0.16900
C 	C 	0.70510 0.40048 0.25230 0.25800
H 	H 	0.71950 0.38890 0.18830 -0.04500
H 	H 	0.63070 0.38060 0.25400 -0.04600
C 	C 	0.62440 0.44569 0.20650 -0.45800
H 	H 	0.61610 0.45830 0.27280 0.16500
H 	H 	0.51330 0.44210 0.12650 0.16700
C 	C 	0.71730 0.47771 0.18050 0.29100
C 	C 	0.81750 0.51007 0.27110 -0.30400
H 	H 	0.82910 0.51250 0.34940 0.12600
C 	C 	0.89960 0.53843 0.24410 0.16100
H 	H 	0.96570 0.56030 0.30550 -0.03800
C 	C 	0.79610 0.50471 0.04970 0.17800
H 	H 	0.78910 0.50210 0.97340 -0.03200
C 	C 	0.70850 0.47535 0.06940 -0.30800
H 	H 	0.64300 0.45380 0.00650 0.14400
O 	O 	0.21390 0.11833 0.62670 -0.48000
O 	O 	0.03920 0.06520 0.58540 -0.41000
O 	O 	0.77920 0.09486 0.16360 -0.37400
O 	O 	0.70170 0.05473 0.26380 -0.36100
O 	O 	0.27400 0.19224 0.50270 -0.44900
O 	O 	0.12040 0.13947 0.35340 -0.43700
O 	O 	0.90050 0.19254 0.58200 -0.42100
O 	O 	0.86090 0.15664 0.41490 -0.48500
N 	N 	0.05650 0.26683 0.51490 -0.27400
N 	N 	0.89000 0.53650 0.13450 -0.26300
