data_crystal

_cell_length_a 9.13370
_cell_length_b 14.46350
_cell_length_c 18.03430
_cell_angle_alpha 93.35300
_cell_angle_beta  102.98800
_cell_angle_gamma 91.06800

_symmetry_space_group_name_	'P 1'
_symmetry_space_group_name_H-M	'P 1'

loop_
_symmetry_equiv_pos_as_xyz
  x,y,z

loop_
_atom_site_label
_atom_site_type_symbol
_atom_site_fract_x
_atom_site_fract_y
_atom_site_fract_z
_atom_site_charge
Zn	Zn	0.16031 0.73439 0.59942 1.21200
Zn	Zn	0.85378 0.27461 0.92466 1.21600
C 	C 	0.71650 0.12960 0.82970 0.36200
C 	C 	0.59230 0.06020 0.80380 -0.10100
C 	C 	0.47930 0.03940 0.83730 -0.00500
H 	H 	0.46900 0.06760 0.88340 0.04300
C 	C 	0.38060 0.97220 0.79630 -0.01200
H 	H 	0.29690 0.95030 0.81220 0.04600
C 	C 	0.41680 0.94070 0.73060 -0.09300
C 	C 	0.34200 0.86980 0.67220 0.33400
C 	C 	0.76110 0.24970 0.07270 0.01300
H 	H 	0.69090 0.20250 0.05150 0.02000
C 	C 	0.79580 0.27990 0.14610 -0.01200
H 	H 	0.75360 0.25900 0.18470 0.04500
C 	C 	0.92910 0.35660 0.08510 0.09100
H 	H 	0.99790 0.39920 0.07450 -0.00200
C 	C 	0.98560 0.39940 0.22330 -0.04000
H 	H 	0.09230 0.38880 0.23060 0.05300
H 	H 	0.95260 0.37670 0.26660 0.04200
C 	C 	0.96110 0.50130 0.22100 -0.09900
H 	H 	0.85560 0.51320 0.21740 0.06600
H 	H 	0.98950 0.52440 0.17660 0.06600
C 	C 	0.05620 0.55040 0.29350 -0.12200
H 	H 	0.02620 0.52740 0.33740 0.07900
H 	H 	0.16100 0.53640 0.29740 0.07300
C 	C 	0.04020 0.65090 0.29430 -0.03300
H 	H 	0.93430 0.66480 0.28390 0.04600
H 	H 	0.08250 0.67530 0.25440 0.04700
C 	C 	0.22550 0.76220 0.38130 -0.01200
H 	H 	0.27120 0.78720 0.34540 0.05400
C 	C 	0.25500 0.78520 0.45560 0.01700
H 	H 	0.32580 0.83030 0.48050 0.02700
C 	C 	0.08450 0.68100 0.43420 0.09100
H 	H 	0.01170 0.63830 0.44060 -0.00400
C 	C 	0.13120 0.23170 0.86680 0.00700
H 	H 	0.08310 0.18770 0.82910 0.02800
C 	C 	0.27630 0.25990 0.87930 -0.00800
H 	H 	0.34610 0.23880 0.85240 0.03700
C 	C 	0.17410 0.33270 0.96080 0.08800
H 	H 	0.16160 0.37190 0.00140 -0.00500
C 	C 	0.44250 0.37150 0.97590 -0.03300
H 	H 	0.52030 0.35240 0.95000 0.03600
H 	H 	0.47140 0.35360 0.02810 0.04700
C 	C 	0.42990 0.47590 0.97590 -0.11100
H 	H 	0.41460 0.49470 0.92400 0.06900
H 	H 	0.34360 0.49420 0.99560 0.07200
C 	C 	0.86040 0.77500 0.63520 0.01400
H 	H 	0.89960 0.82740 0.66610 0.02300
C 	C 	0.71650 0.74640 0.61920 -0.01500
H 	H 	0.63880 0.77440 0.63670 0.05900
C 	C 	0.84400 0.65250 0.56200 0.08700
H 	H 	0.86780 0.60290 0.53220 0.00400
C 	C 	0.56360 0.62140 0.53070 -0.03100
H 	H 	0.48430 0.63760 0.55650 0.04300
H 	H 	0.53630 0.64310 0.47970 0.04500
C 	C 	0.57480 0.52220 0.52560 -0.11800
H 	H 	0.59180 0.49900 0.57610 0.07000
H 	H 	0.65900 0.50550 0.50350 0.07600
C 	C 	0.70950 0.44120 0.84930 0.41300
C 	C 	0.57750 0.44840 0.78470 -0.12400
C 	C 	0.49840 0.37700 0.74090 0.00400
H 	H 	0.52060 0.31520 0.74750 0.03900
C 	C 	0.38010 0.40620 0.68490 -0.02100
H 	H 	0.31490 0.36580 0.65020 0.04200
C 	C 	0.37060 0.49860 0.68660 -0.09900
C 	C 	0.26060 0.55580 0.63710 0.35300
O 	O 	0.72890 0.16420 0.89674 -0.47300
O 	O 	0.79800 0.14920 0.78740 -0.31900
O 	O 	0.21340 0.84010 0.67654 -0.44400
O 	O 	0.40500 0.84240 0.62159 -0.33500
O 	O 	0.74520 0.35930 0.86000 -0.50800
O 	O 	0.76910 0.51010 0.88510 -0.32200
O 	O 	0.16330 0.51950 0.58468 -0.31700
O 	O 	0.27880 0.64150 0.65498 -0.46800
N 	N 	0.84430 0.29850 0.03375 -0.26900
N 	N 	0.90470 0.34710 0.15360 -0.11700
N 	N 	0.11640 0.69580 0.36802 -0.11800
N 	N 	0.16810 0.73390 0.48986 -0.27200
N 	N 	0.06640 0.27780 0.91820 -0.27300
N 	N 	0.30180 0.32480 0.93840 -0.11900
N 	N 	0.94160 0.71630 0.59971 -0.26400
N 	N 	0.70580 0.66860 0.57230 -0.11600
S 	S 	0.57634 0.99578 0.71972 0.06800
S 	S 	0.50739 0.55187 0.75769 0.07100
Zn	Zn	0.83969 0.26561 0.40058 1.21100
Zn	Zn	0.14622 0.72539 0.07534 1.21500
C 	C 	0.28350 0.87040 0.17030 0.36100
C 	C 	0.40770 0.93980 0.19620 -0.10200
C 	C 	0.52070 0.96060 0.16270 -0.00600
H 	H 	0.53100 0.93240 0.11660 0.04200
C 	C 	0.61940 0.02780 0.20370 -0.01300
H 	H 	0.70310 0.04970 0.18780 0.04500
C 	C 	0.58320 0.05930 0.26940 -0.09300
C 	C 	0.65800 0.13020 0.32780 0.33400
C 	C 	0.23890 0.75030 0.92730 0.01300
H 	H 	0.30910 0.79750 0.94850 0.02000
C 	C 	0.20420 0.72010 0.85390 -0.01200
H 	H 	0.24640 0.74100 0.81530 0.04500
C 	C 	0.07090 0.64340 0.91490 0.09100
H 	H 	0.00210 0.60080 0.92550 -0.00200
C 	C 	0.01440 0.60060 0.77670 -0.04000
H 	H 	0.90770 0.61120 0.76940 0.05300
H 	H 	0.04740 0.62330 0.73340 0.04200
C 	C 	0.03890 0.49870 0.77900 -0.09900
H 	H 	0.14440 0.48680 0.78260 0.06600
H 	H 	0.01050 0.47560 0.82340 0.06600
C 	C 	0.94380 0.44960 0.70650 -0.12200
H 	H 	0.97380 0.47260 0.66260 0.07900
H 	H 	0.83900 0.46360 0.70260 0.07300
C 	C 	0.95980 0.34910 0.70570 -0.03300
H 	H 	0.06570 0.33520 0.71610 0.04600
H 	H 	0.91750 0.32470 0.74560 0.04700
C 	C 	0.77450 0.23780 0.61870 -0.01200
H 	H 	0.72880 0.21280 0.65460 0.05400
C 	C 	0.74500 0.21480 0.54440 0.01700
H 	H 	0.67420 0.16970 0.51950 0.02700
C 	C 	0.91550 0.31900 0.56580 0.09100
H 	H 	0.98830 0.36170 0.55940 -0.00400
C 	C 	0.86880 0.76830 0.13320 0.00700
H 	H 	0.91690 0.81230 0.17090 0.02800
C 	C 	0.72370 0.74010 0.12070 -0.00800
H 	H 	0.65390 0.76120 0.14760 0.03700
C 	C 	0.82590 0.66730 0.03920 0.08800
H 	H 	0.83840 0.62810 0.99860 -0.00500
C 	C 	0.55750 0.62850 0.02410 -0.03300
H 	H 	0.47970 0.64760 0.05000 0.03600
H 	H 	0.52860 0.64640 0.97190 0.04700
C 	C 	0.57010 0.52410 0.02410 -0.11100
H 	H 	0.58540 0.50530 0.07600 0.06900
H 	H 	0.65640 0.50580 0.00440 0.07200
C 	C 	0.13960 0.22500 0.36480 0.01400
H 	H 	0.10040 0.17260 0.33390 0.02300
C 	C 	0.28350 0.25360 0.38080 -0.01500
H 	H 	0.36120 0.22560 0.36330 0.05900
C 	C 	0.15600 0.34750 0.43800 0.08700
H 	H 	0.13220 0.39710 0.46780 0.00400
C 	C 	0.43640 0.37860 0.46930 -0.03100
H 	H 	0.51570 0.36240 0.44350 0.04300
H 	H 	0.46370 0.35690 0.52030 0.04500
C 	C 	0.42520 0.47780 0.47440 -0.11800
H 	H 	0.40820 0.50100 0.42390 0.07000
H 	H 	0.34100 0.49450 0.49650 0.07600
C 	C 	0.29050 0.55880 0.15070 0.41300
C 	C 	0.42250 0.55160 0.21530 -0.12400
C 	C 	0.50160 0.62300 0.25910 0.00400
H 	H 	0.47940 0.68480 0.25250 0.03900
C 	C 	0.61990 0.59380 0.31510 -0.02100
H 	H 	0.68510 0.63420 0.34980 0.04200
C 	C 	0.62940 0.50140 0.31340 -0.09900
C 	C 	0.73940 0.44420 0.36290 0.35300
O 	O 	0.27110 0.83580 0.10326 -0.47300
O 	O 	0.20200 0.85080 0.21260 -0.31900
O 	O 	0.78660 0.15990 0.32346 -0.44400
O 	O 	0.59500 0.15760 0.37841 -0.33500
O 	O 	0.25480 0.64070 0.14000 -0.50800
O 	O 	0.23090 0.48990 0.11490 -0.32200
O 	O 	0.83670 0.48050 0.41532 -0.31700
O 	O 	0.72120 0.35850 0.34502 -0.46800
N 	N 	0.15570 0.70150 0.96625 -0.26900
N 	N 	0.09530 0.65290 0.84640 -0.11700
N 	N 	0.88360 0.30420 0.63198 -0.11800
N 	N 	0.83190 0.26610 0.51014 -0.27200
N 	N 	0.93360 0.72220 0.08180 -0.27300
N 	N 	0.69820 0.67520 0.06160 -0.11900
N 	N 	0.05840 0.28370 0.40029 -0.26400
N 	N 	0.29420 0.33140 0.42770 -0.11600
S 	S 	0.42366 0.00422 0.28028 0.06800
S 	S 	0.49261 0.44813 0.24231 0.07100
