data_crystal

_cell_length_a 34.53830
_cell_length_b 34.53830
_cell_length_c 8.51690
_cell_angle_alpha 90.00000
_cell_angle_beta  90.00000
_cell_angle_gamma 120.00000

_symmetry_space_group_name_	'P 1'
_symmetry_space_group_name_H-M	'P 1'

loop_
_symmetry_equiv_pos_as_xyz
  x,y,z

loop_
_atom_site_label
_atom_site_type_symbol
_atom_site_fract_x
_atom_site_fract_y
_atom_site_fract_z
_atom_site_charge
Ag	Ag	0.31747 0.14605 0.49392 0.55300
O 	O 	0.99413 0.66687 0.57603 -0.19300
N 	N 	0.33689 0.20506 0.34390 -0.17200
N 	N 	0.19644 0.27611 0.39630 -0.17100
C 	C 	0.37203 0.21878 0.24920 0.06400
H 	H 	0.38690 0.20250 0.24700 0.02900
C 	C 	0.05401 0.58906 0.48813 -0.10900
H 	H 	0.74533 0.93087 0.75667 0.13000
C 	C 	0.03258 0.61346 0.49053 0.03000
H 	H 	0.04267 0.63893 0.42863 0.07600
C 	C 	0.99559 0.59959 0.58663 -0.04300
C 	C 	0.31562 0.22850 0.34500 0.03600
H 	H 	0.29090 0.21910 0.41000 0.05300
C 	C 	0.97279 0.62667 0.59493 0.17200
C 	C 	0.25721 0.27044 0.28880 -0.04400
C 	C 	0.89466 0.56254 0.55983 0.03700
H 	H 	0.90517 0.54663 0.50303 0.07400
C 	C 	0.18291 0.21206 0.25000 -0.06700
H 	H 	0.16240 0.18440 0.20800 0.14500
C 	C 	0.16854 0.23595 0.33580 0.07900
H 	H 	0.13800 0.22370 0.35280 0.06900
C 	C 	0.23995 0.29275 0.37200 0.06400
H 	H 	0.25980 0.32080 0.41300 0.04100
C 	C 	0.40761 0.15207 0.53190 0.12400
O 	O 	0.72128 0.82131 0.31297 -0.24700
O 	O 	0.39493 0.14393 0.39620 -0.19200
C 	C 	0.78817 0.82787 0.23197 0.83800
F 	F 	0.47290 0.15048 0.45050 -0.47000
F 	F 	0.81516 0.86997 0.26397 -0.45600
F 	F 	0.78777 0.80225 0.35337 -0.46800
Ag	Ag	0.98414 0.47938 0.82725 0.55400
O 	O 	0.66079 0.00021 0.90937 -0.19200
N 	N 	0.00356 0.53839 0.67723 -0.17100
N 	N 	0.86311 0.60944 0.72963 -0.17000
C 	C 	0.03870 0.55211 0.58253 0.06400
H 	H 	0.05357 0.53583 0.58033 0.03000
C 	C 	0.72067 0.92240 0.82147 -0.10800
H 	H 	0.41200 0.26420 0.09000 0.13200
C 	C 	0.69924 0.94680 0.82387 0.03000
H 	H 	0.70933 0.97227 0.76197 0.07700
C 	C 	0.66225 0.93293 0.91997 -0.04000
C 	C 	0.98229 0.56183 0.67833 0.03700
H 	H 	0.95757 0.55243 0.74333 0.05300
C 	C 	0.63945 0.96001 0.92827 0.17200
C 	C 	0.92388 0.60377 0.62213 -0.04300
C 	C 	0.56132 0.89588 0.89317 0.03400
H 	H 	0.57183 0.87997 0.83637 0.07700
C 	C 	0.84958 0.54539 0.58333 -0.06600
H 	H 	0.82907 0.51773 0.54133 0.14500
C 	C 	0.83521 0.56928 0.66913 0.07900
H 	H 	0.80467 0.55703 0.68613 0.06900
C 	C 	0.90662 0.62608 0.70533 0.06400
H 	H 	0.92647 0.65413 0.74633 0.04100
C 	C 	0.07428 0.48540 0.86523 0.12400
O 	O 	0.38795 0.15464 0.64630 -0.24700
O 	O 	0.06160 0.47726 0.72953 -0.19200
C 	C 	0.45484 0.16120 0.56530 0.83800
F 	F 	0.13957 0.48381 0.78383 -0.47000
F 	F 	0.48183 0.20330 0.59730 -0.45600
F 	F 	0.45444 0.13558 0.68670 -0.46800
Ag	Ag	0.65081 0.81271 0.16058 0.55400
O 	O 	0.32746 0.33354 0.24270 -0.19200
N 	N 	0.67022 0.87173 0.01057 -0.17100
N 	N 	0.52977 0.94278 0.06297 -0.16900
C 	C 	0.70536 0.88545 0.91587 0.06500
H 	H 	0.72023 0.86917 0.91367 0.03000
C 	C 	0.38734 0.25573 0.15480 -0.10800
H 	H 	0.07867 0.59753 0.42333 0.13100
C 	C 	0.36591 0.28013 0.15720 0.03100
H 	H 	0.37600 0.30560 0.09530 0.07700
C 	C 	0.32892 0.26626 0.25330 -0.04200
C 	C 	0.64895 0.89517 0.01167 0.03500
H 	H 	0.62423 0.88577 0.07667 0.05400
C 	C 	0.30612 0.29334 0.26160 0.17300
C 	C 	0.59054 0.93711 0.95547 -0.03900
C 	C 	0.22799 0.22921 0.22650 0.03800
H 	H 	0.23850 0.21330 0.16970 0.07600
C 	C 	0.51624 0.87873 0.91667 -0.06000
H 	H 	0.49573 0.85107 0.87467 0.14400
C 	C 	0.50187 0.90262 0.00247 0.07400
H 	H 	0.47133 0.89037 0.01947 0.07000
C 	C 	0.57328 0.95942 0.03867 0.06100
H 	H 	0.59313 0.98747 0.07967 0.04200
C 	C 	0.74094 0.81874 0.19857 0.12400
O 	O 	0.05462 0.48797 0.97963 -0.24700
O 	O 	0.72826 0.81060 0.06287 -0.19200
C 	C 	0.12151 0.49453 0.89863 0.83800
F 	F 	0.80623 0.81715 0.11717 -0.47000
F 	F 	0.14850 0.53663 0.93063 -0.45500
F 	F 	0.12111 0.46891 1.02003 -0.46700
Ag	Ag	0.85395 0.17143 0.49392 0.55400
O 	O 	0.33313 0.32725 0.57603 -0.19200
N 	N 	0.79494 0.13183 0.34390 -0.17100
N 	N 	0.72389 0.92033 0.39630 -0.17000
C 	C 	0.78122 0.15325 0.24920 0.06500
H 	H 	0.79750 0.18440 0.24700 0.03000
C 	C 	0.41094 0.46494 0.48813 -0.10800
H 	H 	0.06913 0.81447 0.75667 0.13100
C 	C 	0.38654 0.41911 0.49053 0.03100
H 	H 	0.36107 0.40373 0.42863 0.07700
C 	C 	0.40041 0.39599 0.58663 -0.04200
C 	C 	0.77150 0.08712 0.34500 0.03700
H 	H 	0.78090 0.07180 0.41000 0.05400
C 	C 	0.37333 0.34611 0.59493 0.17300
C 	C 	0.72956 0.98677 0.28880 -0.04300
C 	C 	0.43746 0.33211 0.55983 0.03800
H 	H 	0.45337 0.35853 0.50303 0.07500
C 	C 	0.78794 0.97085 0.25000 -0.06600
H 	H 	0.81560 0.97800 0.20800 0.14500
C 	C 	0.76405 0.93259 0.33580 0.07900
H 	H 	0.77630 0.91430 0.35280 0.06900
C 	C 	0.70725 0.94720 0.37200 0.06400
H 	H 	0.67920 0.93900 0.41300 0.04100
C 	C 	0.84793 0.25554 0.53190 0.12400
O 	O 	0.17869 0.89998 0.31297 -0.24700
O 	O 	0.85607 0.25100 0.39620 -0.19200
C 	C 	0.17213 0.96031 0.23197 0.83800
F 	F 	0.84952 0.32242 0.45050 -0.47000
F 	F 	0.13003 0.94520 0.26397 -0.45600
F 	F 	0.19775 0.98553 0.35337 -0.46800
Ag	Ag	0.52062 0.50476 0.82725 0.55400
O 	O 	0.99979 0.66059 0.90937 -0.19200
N 	N 	0.46161 0.46516 0.67723 -0.17100
N 	N 	0.39056 0.25366 0.72963 -0.17000
C 	C 	0.44789 0.48658 0.58253 0.06400
H 	H 	0.46417 0.51773 0.58033 0.03000
C 	C 	0.07760 0.79828 0.82147 -0.10800
H 	H 	0.73580 0.14780 0.09000 0.13200
C 	C 	0.05320 0.75245 0.82387 0.03000
H 	H 	0.02773 0.73707 0.76197 0.07700
C 	C 	0.06707 0.72933 0.91997 -0.04000
C 	C 	0.43817 0.42045 0.67833 0.03700
H 	H 	0.44757 0.40513 0.74333 0.05300
C 	C 	0.03999 0.67945 0.92827 0.17200
C 	C 	0.39623 0.32010 0.62213 -0.04300
C 	C 	0.10412 0.66545 0.89317 0.03400
H 	H 	0.12003 0.69187 0.83637 0.07700
C 	C 	0.45461 0.30418 0.58333 -0.06600
H 	H 	0.48227 0.31133 0.54133 0.14500
C 	C 	0.43072 0.26592 0.66913 0.07900
H 	H 	0.44297 0.24763 0.68613 0.06900
C 	C 	0.37392 0.28053 0.70533 0.06400
H 	H 	0.34587 0.27233 0.74633 0.04100
C 	C 	0.51460 0.58887 0.86523 0.12400
O 	O 	0.84536 0.23331 0.64630 -0.24700
O 	O 	0.52274 0.58433 0.72953 -0.19200
C 	C 	0.83880 0.29364 0.56530 0.83800
F 	F 	0.51619 0.65575 0.78383 -0.47000
F 	F 	0.79670 0.27853 0.59730 -0.45600
F 	F 	0.86442 0.31886 0.68670 -0.46800
Ag	Ag	0.18729 0.83809 0.16058 0.55400
O 	O 	0.66646 0.99392 0.24270 -0.19200
N 	N 	0.12827 0.79850 0.01057 -0.17100
N 	N 	0.05722 0.58700 0.06297 -0.16900
C 	C 	0.11455 0.81992 0.91587 0.06600
H 	H 	0.13083 0.85107 0.91367 0.03000
C 	C 	0.74427 0.13161 0.15480 -0.10800
H 	H 	0.40247 0.48113 0.42333 0.13100
C 	C 	0.71987 0.08578 0.15720 0.03100
H 	H 	0.69440 0.07040 0.09530 0.07700
C 	C 	0.73374 0.06266 0.25330 -0.04200
C 	C 	0.10483 0.75379 0.01167 0.03500
H 	H 	0.11423 0.73847 0.07667 0.05400
C 	C 	0.70666 0.01278 0.26160 0.17300
C 	C 	0.06289 0.65344 0.95547 -0.03900
C 	C 	0.77079 0.99878 0.22650 0.03800
H 	H 	0.78670 0.02520 0.16970 0.07600
C 	C 	0.12127 0.63752 0.91667 -0.05900
H 	H 	0.14893 0.64467 0.87467 0.14400
C 	C 	0.09738 0.59926 0.00247 0.07400
H 	H 	0.10963 0.58097 0.01947 0.07000
C 	C 	0.04058 0.61387 0.03867 0.06100
H 	H 	0.01253 0.60567 0.07967 0.04200
C 	C 	0.18126 0.92221 0.19857 0.12400
O 	O 	0.51203 0.56664 0.97963 -0.24700
O 	O 	0.18940 0.91767 0.06287 -0.19200
C 	C 	0.50547 0.62697 0.89863 0.83800
F 	F 	0.18285 0.98909 0.11717 -0.47000
F 	F 	0.46337 0.61186 0.93063 -0.45500
F 	F 	0.53109 0.65219 1.02003 -0.46700
Ag	Ag	0.82857 0.68253 0.49392 0.55400
O 	O 	0.67275 0.00587 0.57603 -0.19200
N 	N 	0.86817 0.66311 0.34390 -0.17100
N 	N 	0.07967 0.80356 0.39630 -0.17000
C 	C 	0.84675 0.62797 0.24920 0.06500
H 	H 	0.81560 0.61310 0.24700 0.03000
C 	C 	0.53506 0.94599 0.48813 -0.10800
H 	H 	0.18553 0.25467 0.75667 0.13100
C 	C 	0.58089 0.96742 0.49053 0.03100
H 	H 	0.59627 0.95733 0.42863 0.07700
C 	C 	0.60401 0.00441 0.58663 -0.04300
C 	C 	0.91288 0.68438 0.34500 0.03700
H 	H 	0.92820 0.70910 0.41000 0.05400
C 	C 	0.65389 0.02721 0.59493 0.17300
C 	C 	0.01323 0.74279 0.28880 -0.04300
C 	C 	0.66789 0.10534 0.55983 0.03800
H 	H 	0.64147 0.09483 0.50303 0.07500
C 	C 	0.02915 0.81709 0.25000 -0.06500
H 	H 	0.02200 0.83760 0.20800 0.14500
C 	C 	0.06741 0.83146 0.33580 0.07900
H 	H 	0.08570 0.86200 0.35280 0.06900
C 	C 	0.05280 0.76005 0.37200 0.06400
H 	H 	0.06100 0.74020 0.41300 0.04100
C 	C 	0.74446 0.59239 0.53190 0.12400
O 	O 	0.10002 0.27872 0.31297 -0.24700
O 	O 	0.74900 0.60507 0.39620 -0.19200
C 	C 	0.03969 0.21183 0.23197 0.83800
F 	F 	0.67758 0.52710 0.45050 -0.47000
F 	F 	0.05480 0.18484 0.26397 -0.45600
F 	F 	0.01447 0.21223 0.35337 -0.46800
Ag	Ag	0.49524 0.01586 0.82725 0.55400
O 	O 	0.33941 0.33921 0.90937 -0.19200
N 	N 	0.53484 0.99644 0.67723 -0.17100
N 	N 	0.74634 0.13689 0.72963 -0.17000
C 	C 	0.51342 0.96130 0.58253 0.06500
H 	H 	0.48227 0.94643 0.58033 0.03000
C 	C 	0.20172 0.27933 0.82147 -0.10800
H 	H 	0.85220 0.58800 0.09000 0.13200
C 	C 	0.24755 0.30076 0.82387 0.03000
H 	H 	0.26293 0.29067 0.76197 0.07700
C 	C 	0.27067 0.33775 0.91997 -0.04000
C 	C 	0.57955 0.01771 0.67833 0.03700
H 	H 	0.59487 0.04243 0.74333 0.05300
C 	C 	0.32055 0.36055 0.92827 0.17200
C 	C 	0.67990 0.07612 0.62213 -0.04300
C 	C 	0.33455 0.43868 0.89317 0.03400
H 	H 	0.30813 0.42817 0.83637 0.07700
C 	C 	0.69582 0.15042 0.58333 -0.06600
H 	H 	0.68867 0.17093 0.54133 0.14500
C 	C 	0.73408 0.16479 0.66913 0.07900
H 	H 	0.75237 0.19533 0.68613 0.06900
C 	C 	0.71947 0.09338 0.70533 0.06400
H 	H 	0.72767 0.07353 0.74633 0.04100
C 	C 	0.41113 0.92572 0.86523 0.12400
O 	O 	0.76669 0.61205 0.64630 -0.24700
O 	O 	0.41567 0.93840 0.72953 -0.19200
C 	C 	0.70636 0.54516 0.56530 0.83800
F 	F 	0.34425 0.86043 0.78383 -0.47000
F 	F 	0.72147 0.51817 0.59730 -0.45600
F 	F 	0.68114 0.54556 0.68670 -0.46800
Ag	Ag	0.16191 0.34919 0.16058 0.55400
O 	O 	0.00608 0.67254 0.24270 -0.19200
N 	N 	0.20150 0.32978 0.01057 -0.17100
N 	N 	0.41300 0.47023 0.06297 -0.16900
C 	C 	0.18008 0.29464 0.91587 0.06500
H 	H 	0.14893 0.27977 0.91367 0.03000
C 	C 	0.86839 0.61266 0.15480 -0.10800
H 	H 	0.51887 0.92133 0.42333 0.13100
C 	C 	0.91422 0.63409 0.15720 0.03100
H 	H 	0.92960 0.62400 0.09530 0.07700
C 	C 	0.93734 0.67108 0.25330 -0.04200
C 	C 	0.24621 0.35105 0.01167 0.03500
H 	H 	0.26153 0.37577 0.07667 0.05400
C 	C 	0.98722 0.69388 0.26160 0.17300
C 	C 	0.34656 0.40946 0.95547 -0.03900
C 	C 	0.00122 0.77201 0.22650 0.03800
H 	H 	0.97480 0.76150 0.16970 0.07600
C 	C 	0.36248 0.48376 0.91667 -0.06000
H 	H 	0.35533 0.50427 0.87467 0.14400
C 	C 	0.40074 0.49813 0.00247 0.07400
H 	H 	0.41903 0.52867 0.01947 0.07000
C 	C 	0.38613 0.42672 0.03867 0.06100
H 	H 	0.39433 0.40687 0.07967 0.04200
C 	C 	0.07779 0.25906 0.19857 0.12400
O 	O 	0.43336 0.94538 0.97963 -0.24700
O 	O 	0.08233 0.27174 0.06287 -0.19200
C 	C 	0.37303 0.87849 0.89863 0.83800
F 	F 	0.01091 0.19377 0.11717 -0.47000
F 	F 	0.38814 0.85150 0.93063 -0.45500
F 	F 	0.34781 0.87889 1.02003 -0.46700
Ag	Ag	0.68253 0.85395 0.50608 0.55400
O 	O 	0.00587 0.33313 0.42397 -0.19200
N 	N 	0.66311 0.79494 0.65610 -0.17100
N 	N 	0.80356 0.72389 0.60370 -0.17000
C 	C 	0.62797 0.78122 0.75080 0.06500
H 	H 	0.61310 0.79750 0.75300 0.03000
C 	C 	0.94599 0.41094 0.51187 -0.10800
H 	H 	0.25467 0.06913 0.24333 0.13100
C 	C 	0.96742 0.38654 0.50947 0.03100
H 	H 	0.95733 0.36107 0.57137 0.07700
C 	C 	0.00441 0.40041 0.41337 -0.04200
C 	C 	0.68438 0.77150 0.65500 0.03700
H 	H 	0.70910 0.78090 0.59000 0.05400
C 	C 	0.02721 0.37333 0.40507 0.17300
C 	C 	0.74279 0.72956 0.71120 -0.04300
C 	C 	0.10534 0.43746 0.44017 0.03800
H 	H 	0.09483 0.45337 0.49697 0.07500
C 	C 	0.81709 0.78794 0.75000 -0.06600
H 	H 	0.83760 0.81560 0.79200 0.14500
C 	C 	0.83146 0.76405 0.66420 0.07900
H 	H 	0.86200 0.77630 0.64720 0.06900
C 	C 	0.76005 0.70725 0.62800 0.06400
H 	H 	0.74020 0.67920 0.58700 0.04100
C 	C 	0.59239 0.84793 0.46810 0.12400
O 	O 	0.27872 0.17869 0.68703 -0.24700
O 	O 	0.60507 0.85607 0.60380 -0.19200
C 	C 	0.21183 0.17213 0.76803 0.83800
F 	F 	0.52710 0.84952 0.54950 -0.47000
F 	F 	0.18484 0.13003 0.73603 -0.45600
F 	F 	0.21223 0.19775 0.64663 -0.46800
Ag	Ag	0.34919 0.18729 0.83942 0.55400
O 	O 	0.67254 0.66646 0.75730 -0.19200
N 	N 	0.32978 0.12827 0.98943 -0.17100
N 	N 	0.47023 0.05722 0.93703 -0.16900
C 	C 	0.29464 0.11455 0.08413 0.06500
H 	H 	0.27977 0.13083 0.08633 0.03000
C 	C 	0.61266 0.74427 0.84520 -0.10800
H 	H 	0.92133 0.40247 0.57667 0.13100
C 	C 	0.63409 0.71987 0.84280 0.03100
H 	H 	0.62400 0.69440 0.90470 0.07700
C 	C 	0.67108 0.73374 0.74670 -0.04200
C 	C 	0.35105 0.10483 0.98833 0.03500
H 	H 	0.37577 0.11423 0.92333 0.05400
C 	C 	0.69388 0.70666 0.73840 0.17300
C 	C 	0.40946 0.06289 0.04453 -0.03900
C 	C 	0.77201 0.77079 0.77350 0.03800
H 	H 	0.76150 0.78670 0.83030 0.07600
C 	C 	0.48376 0.12127 0.08333 -0.06000
H 	H 	0.50427 0.14893 0.12533 0.14400
C 	C 	0.49813 0.09738 0.99753 0.07400
H 	H 	0.52867 0.10963 0.98053 0.07000
C 	C 	0.42672 0.04058 0.96133 0.06100
H 	H 	0.40687 0.01253 0.92033 0.04200
C 	C 	0.25906 0.18126 0.80143 0.12400
O 	O 	0.94538 0.51203 0.02037 -0.24700
O 	O 	0.27174 0.18940 0.93713 -0.19200
C 	C 	0.87849 0.50547 0.10137 0.83800
F 	F 	0.19377 0.18285 0.88283 -0.47000
F 	F 	0.85150 0.46337 0.06937 -0.45500
F 	F 	0.87889 0.53109 -0.02003 -0.46700
Ag	Ag	0.01586 0.52062 0.17275 0.55400
O 	O 	0.33921 0.99979 0.09063 -0.19200
N 	N 	0.99644 0.46161 0.32277 -0.17100
N 	N 	0.13689 0.39056 0.27037 -0.17000
C 	C 	0.96130 0.44789 0.41747 0.06400
H 	H 	0.94643 0.46417 0.41967 0.03000
C 	C 	0.27933 0.07760 0.17853 -0.10800
H 	H 	0.58800 0.73580 0.91000 0.13200
C 	C 	0.30076 0.05320 0.17613 0.03000
H 	H 	0.29067 0.02773 0.23803 0.07700
C 	C 	0.33775 0.06707 0.08003 -0.04000
C 	C 	0.01771 0.43817 0.32167 0.03700
H 	H 	0.04243 0.44757 0.25667 0.05300
C 	C 	0.36055 0.03999 0.07173 0.17200
C 	C 	0.07612 0.39623 0.37787 -0.04300
C 	C 	0.43868 0.10412 0.10683 0.03400
H 	H 	0.42817 0.12003 0.16363 0.07700
C 	C 	0.15042 0.45461 0.41667 -0.06600
H 	H 	0.17093 0.48227 0.45867 0.14500
C 	C 	0.16479 0.43072 0.33087 0.07900
H 	H 	0.19533 0.44297 0.31387 0.06900
C 	C 	0.09338 0.37392 0.29467 0.06400
H 	H 	0.07353 0.34587 0.25367 0.04100
C 	C 	0.92572 0.51460 0.13477 0.12400
O 	O 	0.61205 0.84536 0.35370 -0.24700
O 	O 	0.93840 0.52274 0.27047 -0.19200
C 	C 	0.54516 0.83880 0.43470 0.83800
F 	F 	0.86043 0.51619 0.21617 -0.47000
F 	F 	0.51817 0.79670 0.40270 -0.45600
F 	F 	0.54556 0.86442 0.31330 -0.46800
Ag	Ag	0.14605 0.82857 0.50608 0.55400
O 	O 	0.66687 0.67275 0.42397 -0.19200
N 	N 	0.20506 0.86817 0.65610 -0.17100
N 	N 	0.27611 0.07967 0.60370 -0.17000
C 	C 	0.21878 0.84675 0.75080 0.06500
H 	H 	0.20250 0.81560 0.75300 0.03000
C 	C 	0.58906 0.53506 0.51187 -0.10800
H 	H 	0.93087 0.18553 0.24333 0.13100
C 	C 	0.61346 0.58089 0.50947 0.03100
H 	H 	0.63893 0.59627 0.57137 0.07700
C 	C 	0.59959 0.60401 0.41337 -0.04200
C 	C 	0.22850 0.91288 0.65500 0.03700
H 	H 	0.21910 0.92820 0.59000 0.05400
C 	C 	0.62667 0.65389 0.40507 0.17300
C 	C 	0.27044 0.01323 0.71120 -0.04300
C 	C 	0.56254 0.66789 0.44017 0.03800
H 	H 	0.54663 0.64147 0.49697 0.07500
C 	C 	0.21206 0.02915 0.75000 -0.06600
H 	H 	0.18440 0.02200 0.79200 0.14500
C 	C 	0.23595 0.06741 0.66420 0.07900
H 	H 	0.22370 0.08570 0.64720 0.06900
C 	C 	0.29275 0.05280 0.62800 0.06400
H 	H 	0.32080 0.06100 0.58700 0.04100
C 	C 	0.15207 0.74446 0.46810 0.12400
O 	O 	0.82131 0.10002 0.68703 -0.24700
O 	O 	0.14393 0.74900 0.60380 -0.19200
C 	C 	0.82787 0.03969 0.76803 0.83800
F 	F 	0.15048 0.67758 0.54950 -0.47000
F 	F 	0.86997 0.05480 0.73603 -0.45600
F 	F 	0.80225 0.01447 0.64663 -0.46800
Ag	Ag	0.81271 0.16191 0.83942 0.55400
O 	O 	0.33354 0.00608 0.75730 -0.19200
N 	N 	0.87173 0.20150 0.98943 -0.17100
N 	N 	0.94278 0.41300 0.93703 -0.16900
C 	C 	0.88545 0.18008 0.08413 0.06600
H 	H 	0.86917 0.14893 0.08633 0.03000
C 	C 	0.25573 0.86839 0.84520 -0.10800
H 	H 	0.59753 0.51887 0.57667 0.13100
C 	C 	0.28013 0.91422 0.84280 0.03100
H 	H 	0.30560 0.92960 0.90470 0.07700
C 	C 	0.26626 0.93734 0.74670 -0.04200
C 	C 	0.89517 0.24621 0.98833 0.03500
H 	H 	0.88577 0.26153 0.92333 0.05400
C 	C 	0.29334 0.98722 0.73840 0.17300
C 	C 	0.93711 0.34656 0.04453 -0.03900
C 	C 	0.22921 0.00122 0.77350 0.03800
H 	H 	0.21330 0.97480 0.83030 0.07600
C 	C 	0.87873 0.36248 0.08333 -0.05900
H 	H 	0.85107 0.35533 0.12533 0.14400
C 	C 	0.90262 0.40074 0.99753 0.07400
H 	H 	0.89037 0.41903 0.98053 0.07000
C 	C 	0.95942 0.38613 0.96133 0.06100
H 	H 	0.98747 0.39433 0.92033 0.04200
C 	C 	0.81874 0.07779 0.80143 0.12400
O 	O 	0.48797 0.43336 0.02037 -0.24700
O 	O 	0.81060 0.08233 0.93713 -0.19200
C 	C 	0.49453 0.37303 0.10137 0.83800
F 	F 	0.81715 0.01091 0.88283 -0.47000
F 	F 	0.53663 0.38814 0.06937 -0.45500
F 	F 	0.46891 0.34781 -0.02003 -0.46700
Ag	Ag	0.47938 0.49524 0.17275 0.55400
O 	O 	0.00021 0.33941 0.09063 -0.19200
N 	N 	0.53839 0.53484 0.32277 -0.17100
N 	N 	0.60944 0.74634 0.27037 -0.17000
C 	C 	0.55211 0.51342 0.41747 0.06400
H 	H 	0.53583 0.48227 0.41967 0.03000
C 	C 	0.92240 0.20172 0.17853 -0.10800
H 	H 	0.26420 0.85220 0.91000 0.13200
C 	C 	0.94680 0.24755 0.17613 0.03000
H 	H 	0.97227 0.26293 0.23803 0.07700
C 	C 	0.93293 0.27067 0.08003 -0.04000
C 	C 	0.56183 0.57955 0.32167 0.03700
H 	H 	0.55243 0.59487 0.25667 0.05300
C 	C 	0.96001 0.32055 0.07173 0.17200
C 	C 	0.60377 0.67990 0.37787 -0.04300
C 	C 	0.89588 0.33455 0.10683 0.03400
H 	H 	0.87997 0.30813 0.16363 0.07700
C 	C 	0.54539 0.69582 0.41667 -0.06600
H 	H 	0.51773 0.68867 0.45867 0.14500
C 	C 	0.56928 0.73408 0.33087 0.07900
H 	H 	0.55703 0.75237 0.31387 0.06900
C 	C 	0.62608 0.71947 0.29467 0.06400
H 	H 	0.65413 0.72767 0.25367 0.04100
C 	C 	0.48540 0.41113 0.13477 0.12400
O 	O 	0.15464 0.76669 0.35370 -0.24700
O 	O 	0.47726 0.41567 0.27047 -0.19200
C 	C 	0.16120 0.70636 0.43470 0.83800
F 	F 	0.48381 0.34425 0.21617 -0.47000
F 	F 	0.20330 0.72147 0.40270 -0.45600
F 	F 	0.13558 0.68114 0.31330 -0.46800
Ag	Ag	0.17143 0.31747 0.50608 0.55400
O 	O 	0.32725 0.99413 0.42397 -0.19200
N 	N 	0.13183 0.33689 0.65610 -0.17100
N 	N 	0.92033 0.19644 0.60370 -0.17000
C 	C 	0.15325 0.37203 0.75080 0.06500
H 	H 	0.18440 0.38690 0.75300 0.03000
C 	C 	0.46494 0.05401 0.51187 -0.10800
H 	H 	0.81447 0.74533 0.24333 0.13100
C 	C 	0.41911 0.03258 0.50947 0.03100
H 	H 	0.40373 0.04267 0.57137 0.07700
C 	C 	0.39599 0.99559 0.41337 -0.04300
C 	C 	0.08712 0.31562 0.65500 0.03700
H 	H 	0.07180 0.29090 0.59000 0.05400
C 	C 	0.34611 0.97279 0.40507 0.17300
C 	C 	0.98677 0.25721 0.71120 -0.04300
C 	C 	0.33211 0.89466 0.44017 0.03800
H 	H 	0.35853 0.90517 0.49697 0.07500
C 	C 	0.97085 0.18291 0.75000 -0.06500
H 	H 	0.97800 0.16240 0.79200 0.14500
C 	C 	0.93259 0.16854 0.66420 0.07900
H 	H 	0.91430 0.13800 0.64720 0.06900
C 	C 	0.94720 0.23995 0.62800 0.06400
H 	H 	0.93900 0.25980 0.58700 0.04100
C 	C 	0.25554 0.40761 0.46810 0.12400
O 	O 	0.89998 0.72128 0.68703 -0.24700
O 	O 	0.25100 0.39493 0.60380 -0.19200
C 	C 	0.96031 0.78817 0.76803 0.83800
F 	F 	0.32242 0.47290 0.54950 -0.47000
F 	F 	0.94520 0.81516 0.73603 -0.45600
F 	F 	0.98553 0.78777 0.64663 -0.46800
Ag	Ag	0.83809 0.65081 0.83942 0.55400
O 	O 	0.99392 0.32746 0.75730 -0.19200
N 	N 	0.79850 0.67022 0.98943 -0.17100
N 	N 	0.58700 0.52977 0.93703 -0.16900
C 	C 	0.81992 0.70536 0.08413 0.06500
H 	H 	0.85107 0.72023 0.08633 0.03000
C 	C 	0.13161 0.38734 0.84520 -0.10800
H 	H 	0.48113 0.07867 0.57667 0.13100
C 	C 	0.08578 0.36591 0.84280 0.03100
H 	H 	0.07040 0.37600 0.90470 0.07700
C 	C 	0.06266 0.32892 0.74670 -0.04200
C 	C 	0.75379 0.64895 0.98833 0.03500
H 	H 	0.73847 0.62423 0.92333 0.05400
C 	C 	0.01278 0.30612 0.73840 0.17300
C 	C 	0.65344 0.59054 0.04453 -0.03900
C 	C 	0.99878 0.22799 0.77350 0.03800
H 	H 	0.02520 0.23850 0.83030 0.07600
C 	C 	0.63752 0.51624 0.08333 -0.06000
H 	H 	0.64467 0.49573 0.12533 0.14400
C 	C 	0.59926 0.50187 0.99753 0.07400
H 	H 	0.58097 0.47133 0.98053 0.07000
C 	C 	0.61387 0.57328 0.96133 0.06100
H 	H 	0.60567 0.59313 0.92033 0.04200
C 	C 	0.92221 0.74094 0.80143 0.12400
O 	O 	0.56664 0.05462 0.02037 -0.24700
O 	O 	0.91767 0.72826 0.93713 -0.19200
C 	C 	0.62697 0.12151 0.10137 0.83800
F 	F 	0.98909 0.80623 0.88283 -0.47000
F 	F 	0.61186 0.14850 0.06937 -0.45500
F 	F 	0.65219 0.12111 -0.02003 -0.46700
Ag	Ag	0.50476 0.98414 0.17275 0.55400
O 	O 	0.66059 0.66079 0.09063 -0.19200
N 	N 	0.46516 0.00356 0.32277 -0.17100
N 	N 	0.25366 0.86311 0.27037 -0.17000
C 	C 	0.48658 0.03870 0.41747 0.06500
H 	H 	0.51773 0.05357 0.41967 0.03000
C 	C 	0.79828 0.72067 0.17853 -0.10800
H 	H 	0.14780 0.41200 0.91000 0.13200
C 	C 	0.75245 0.69924 0.17613 0.03000
H 	H 	0.73707 0.70933 0.23803 0.07700
C 	C 	0.72933 0.66225 0.08003 -0.04000
C 	C 	0.42045 0.98229 0.32167 0.03700
H 	H 	0.40513 0.95757 0.25667 0.05300
C 	C 	0.67945 0.63945 0.07173 0.17200
C 	C 	0.32010 0.92388 0.37787 -0.04300
C 	C 	0.66545 0.56132 0.10683 0.03400
H 	H 	0.69187 0.57183 0.16363 0.07700
C 	C 	0.30418 0.84958 0.41667 -0.06600
H 	H 	0.31133 0.82907 0.45867 0.14500
C 	C 	0.26592 0.83521 0.33087 0.07900
H 	H 	0.24763 0.80467 0.31387 0.06900
C 	C 	0.28053 0.90662 0.29467 0.06400
H 	H 	0.27233 0.92647 0.25367 0.04100
C 	C 	0.58887 0.07428 0.13477 0.12400
O 	O 	0.23331 0.38795 0.35370 -0.24700
O 	O 	0.58433 0.06160 0.27047 -0.19200
C 	C 	0.29364 0.45484 0.43470 0.83800
F 	F 	0.65575 0.13957 0.21617 -0.47000
F 	F 	0.27853 0.48183 0.40270 -0.45600
F 	F 	0.31886 0.45444 0.31330 -0.46800
