data_crystal

_cell_length_a 19.81450
_cell_length_b 19.81450
_cell_length_c 19.81450
_cell_angle_alpha 118.04690
_cell_angle_beta  118.04690
_cell_angle_gamma 118.04690

_symmetry_space_group_name_	'P 1'
_symmetry_space_group_name_H-M	'P 1'

loop_
_symmetry_equiv_pos_as_xyz
  x,y,z

loop_
_atom_site_label
_atom_site_type_symbol
_atom_site_fract_x
_atom_site_fract_y
_atom_site_fract_z
_atom_site_charge
Ag	Ag	0.34663 0.81511 0.32106 0.55000
O 	O 	0.88242 0.54488 0.22400 -0.19400
N 	N 	0.13071 0.67696 0.20333 -0.17100
N 	N 	0.10894 0.58281 0.46865 -0.16900
C 	C 	0.01939 0.61503 0.08348 0.06100
H 	H 	0.03650 0.63160 0.05190 0.03500
C 	C 	0.88115 0.52830 0.00395 -0.10900
H 	H 	0.80460 0.48570 0.91910 0.13500
C 	C 	0.85611 0.50463 0.04996 0.02500
H 	H 	0.76350 0.44780 0.99930 0.07500
C 	C 	0.96859 0.56531 0.17170 -0.04300
C 	C 	0.10492 0.65138 0.24600 0.03700
H 	H 	0.18210 0.69320 0.32950 0.05300
C 	C 	0.94693 0.54730 0.22817 0.16700
C 	C 	0.00312 0.53063 0.28765 -0.03100
C 	C 	0.98778 0.44197 0.21705 0.02000
H 	H 	0.94650 0.39390 0.13120 0.08100
C 	C 	0.03417 0.42520 0.27473 -0.03900
H 	H 	0.02500 0.36500 0.22890 0.14200
C 	C 	0.09377 0.49703 0.39950 0.06700
H 	H 	0.12580 0.48530 0.43860 0.07700
C 	C 	0.06292 0.59770 0.41188 0.05400
H 	H 	0.07150 0.65680 0.45850 0.04300
C 	C 	0.38613 -0.04885 0.28152 0.12500
O 	O 	0.50661 0.04902 0.42197 -0.24500
O 	O 	0.24953 -0.20161 0.14638 -0.19500
C 	C 	0.41292 0.03688 0.28000 0.80800
F 	F 	0.30243 -0.06376 0.13083 -0.45700
F 	F 	0.56243 0.16436 0.38131 -0.46900
F 	F 	0.40131 0.09643 0.32986 -0.43300
Ag	Ag	0.32106 0.34663 0.81511 0.55000
O 	O 	0.22400 0.88242 0.54488 -0.19400
N 	N 	0.20333 0.13071 0.67696 -0.17100
N 	N 	0.46865 0.10894 0.58281 -0.16900
C 	C 	0.08348 0.01939 0.61503 0.06100
H 	H 	0.05190 0.03650 0.63160 0.03500
C 	C 	0.00395 0.88115 0.52830 -0.10900
H 	H 	0.91910 0.80460 0.48570 0.13500
C 	C 	0.04996 0.85611 0.50463 0.02500
H 	H 	0.99930 0.76350 0.44780 0.07500
C 	C 	0.17170 0.96859 0.56531 -0.04300
C 	C 	0.24600 0.10492 0.65138 0.03700
H 	H 	0.32950 0.18210 0.69320 0.05300
C 	C 	0.22817 0.94693 0.54730 0.16700
C 	C 	0.28765 0.00312 0.53063 -0.03100
C 	C 	0.21705 0.98778 0.44197 0.02000
H 	H 	0.13120 0.94650 0.39390 0.08100
C 	C 	0.27473 0.03417 0.42520 -0.03900
H 	H 	0.22890 0.02500 0.36500 0.14200
C 	C 	0.39950 0.09377 0.49703 0.06700
H 	H 	0.43860 0.12580 0.48530 0.07700
C 	C 	0.41188 0.06292 0.59770 0.05400
H 	H 	0.45850 0.07150 0.65680 0.04300
C 	C 	0.28152 0.38613 -0.04885 0.12500
O 	O 	0.42197 0.50661 0.04902 -0.24500
O 	O 	0.14638 0.24953 -0.20161 -0.19500
C 	C 	0.28000 0.41292 0.03688 0.80800
F 	F 	0.13083 0.30243 -0.06376 -0.45700
F 	F 	0.38131 0.56243 0.16436 -0.46900
F 	F 	0.32986 0.40131 0.09643 -0.43300
Ag	Ag	0.81511 0.32106 0.34663 0.55000
O 	O 	0.54488 0.22400 0.88242 -0.19400
N 	N 	0.67696 0.20333 0.13071 -0.17100
N 	N 	0.58281 0.46865 0.10894 -0.16900
C 	C 	0.61503 0.08348 0.01939 0.06100
H 	H 	0.63160 0.05190 0.03650 0.03500
C 	C 	0.52830 0.00395 0.88115 -0.10900
H 	H 	0.48570 0.91910 0.80460 0.13500
C 	C 	0.50463 0.04996 0.85611 0.02500
H 	H 	0.44780 0.99930 0.76350 0.07500
C 	C 	0.56531 0.17170 0.96859 -0.04300
C 	C 	0.65138 0.24600 0.10492 0.03700
H 	H 	0.69320 0.32950 0.18210 0.05300
C 	C 	0.54730 0.22817 0.94693 0.16700
C 	C 	0.53063 0.28765 0.00312 -0.03100
C 	C 	0.44197 0.21705 0.98778 0.02000
H 	H 	0.39390 0.13120 0.94650 0.08100
C 	C 	0.42520 0.27473 0.03417 -0.03900
H 	H 	0.36500 0.22890 0.02500 0.14200
C 	C 	0.49703 0.39950 0.09377 0.06700
H 	H 	0.48530 0.43860 0.12580 0.07700
C 	C 	0.59770 0.41188 0.06292 0.05400
H 	H 	0.65680 0.45850 0.07150 0.04300
C 	C 	-0.04885 0.28152 0.38613 0.12500
O 	O 	0.04902 0.42197 0.50661 -0.24500
O 	O 	-0.20161 0.14638 0.24953 -0.19500
C 	C 	0.03688 0.28000 0.41292 0.80800
F 	F 	-0.06376 0.13083 0.30243 -0.45700
F 	F 	0.16436 0.38131 0.56243 -0.46900
F 	F 	0.09643 0.32986 0.40131 -0.43300
Ag	Ag	0.65337 0.18489 0.67894 0.55000
O 	O 	0.11758 0.45512 0.77600 -0.19400
N 	N 	0.86929 0.32304 0.79667 -0.17100
N 	N 	0.89106 0.41719 0.53135 -0.16900
C 	C 	0.98061 0.38497 0.91652 0.06100
H 	H 	0.96350 0.36840 0.94810 0.03500
C 	C 	0.11885 0.47170 0.99605 -0.10900
H 	H 	0.19540 0.51430 0.08090 0.13500
C 	C 	0.14389 0.49537 0.95004 0.02500
H 	H 	0.23650 0.55220 0.00070 0.07500
C 	C 	0.03141 0.43469 0.82830 -0.04300
C 	C 	0.89508 0.34862 0.75400 0.03700
H 	H 	0.81790 0.30680 0.67050 0.05300
C 	C 	0.05307 0.45270 0.77183 0.16700
C 	C 	0.99688 0.46937 0.71235 -0.03100
C 	C 	0.01222 0.55803 0.78295 0.02000
H 	H 	0.05350 0.60610 0.86880 0.08100
C 	C 	0.96583 0.57480 0.72527 -0.03900
H 	H 	0.97500 0.63500 0.77110 0.14200
C 	C 	0.90623 0.50297 0.60050 0.06700
H 	H 	0.87420 0.51470 0.56140 0.07700
C 	C 	0.93708 0.40230 0.58812 0.05400
H 	H 	0.92850 0.34320 0.54150 0.04300
C 	C 	0.61387 1.04885 0.71848 0.12500
O 	O 	0.49339 0.95098 0.57803 -0.24500
O 	O 	0.75047 1.20161 0.85362 -0.19500
C 	C 	0.58708 0.96312 0.72000 0.80800
F 	F 	0.69757 1.06376 0.86917 -0.45700
F 	F 	0.43757 0.83564 0.61869 -0.46900
F 	F 	0.59869 0.90357 0.67014 -0.43300
Ag	Ag	0.67894 0.65337 0.18489 0.55000
O 	O 	0.77600 0.11758 0.45512 -0.19400
N 	N 	0.79667 0.86929 0.32304 -0.17100
N 	N 	0.53135 0.89106 0.41719 -0.16900
C 	C 	0.91652 0.98061 0.38497 0.06100
H 	H 	0.94810 0.96350 0.36840 0.03500
C 	C 	0.99605 0.11885 0.47170 -0.10900
H 	H 	0.08090 0.19540 0.51430 0.13500
C 	C 	0.95004 0.14389 0.49537 0.02500
H 	H 	0.00070 0.23650 0.55220 0.07500
C 	C 	0.82830 0.03141 0.43469 -0.04300
C 	C 	0.75400 0.89508 0.34862 0.03700
H 	H 	0.67050 0.81790 0.30680 0.05300
C 	C 	0.77183 0.05307 0.45270 0.16700
C 	C 	0.71235 0.99688 0.46937 -0.03100
C 	C 	0.78295 0.01222 0.55803 0.02000
H 	H 	0.86880 0.05350 0.60610 0.08100
C 	C 	0.72527 0.96583 0.57480 -0.03900
H 	H 	0.77110 0.97500 0.63500 0.14200
C 	C 	0.60050 0.90623 0.50297 0.06700
H 	H 	0.56140 0.87420 0.51470 0.07700
C 	C 	0.58812 0.93708 0.40230 0.05400
H 	H 	0.54150 0.92850 0.34320 0.04300
C 	C 	0.71848 0.61387 1.04885 0.12500
O 	O 	0.57803 0.49339 0.95098 -0.24500
O 	O 	0.85362 0.75047 1.20161 -0.19500
C 	C 	0.72000 0.58708 0.96312 0.80800
F 	F 	0.86917 0.69757 1.06376 -0.45700
F 	F 	0.61869 0.43757 0.83564 -0.46900
F 	F 	0.67014 0.59869 0.90357 -0.43300
Ag	Ag	0.18489 0.67894 0.65337 0.55000
O 	O 	0.45512 0.77600 0.11758 -0.19400
N 	N 	0.32304 0.79667 0.86929 -0.17100
N 	N 	0.41719 0.53135 0.89106 -0.16900
C 	C 	0.38497 0.91652 0.98061 0.06100
H 	H 	0.36840 0.94810 0.96350 0.03500
C 	C 	0.47170 0.99605 0.11885 -0.10900
H 	H 	0.51430 0.08090 0.19540 0.13500
C 	C 	0.49537 0.95004 0.14389 0.02500
H 	H 	0.55220 0.00070 0.23650 0.07500
C 	C 	0.43469 0.82830 0.03141 -0.04300
C 	C 	0.34862 0.75400 0.89508 0.03700
H 	H 	0.30680 0.67050 0.81790 0.05300
C 	C 	0.45270 0.77183 0.05307 0.16700
C 	C 	0.46937 0.71235 0.99688 -0.03100
C 	C 	0.55803 0.78295 0.01222 0.02000
H 	H 	0.60610 0.86880 0.05350 0.08100
C 	C 	0.57480 0.72527 0.96583 -0.03900
H 	H 	0.63500 0.77110 0.97500 0.14200
C 	C 	0.50297 0.60050 0.90623 0.06700
H 	H 	0.51470 0.56140 0.87420 0.07700
C 	C 	0.40230 0.58812 0.93708 0.05400
H 	H 	0.34320 0.54150 0.92850 0.04300
C 	C 	1.04885 0.71848 0.61387 0.12500
O 	O 	0.95098 0.57803 0.49339 -0.24500
O 	O 	1.20161 0.85362 0.75047 -0.19500
C 	C 	0.96312 0.72000 0.58708 0.80800
F 	F 	1.06376 0.86917 0.69757 -0.45700
F 	F 	0.83564 0.61869 0.43757 -0.46900
F 	F 	0.90357 0.67014 0.59869 -0.43300
