data_crystal

_cell_length_a 34.63800
_cell_length_b 34.63800
_cell_length_c 8.39540
_cell_angle_alpha 90.00000
_cell_angle_beta  90.00000
_cell_angle_gamma 120.00000

_symmetry_space_group_name_	'P 1'
_symmetry_space_group_name_H-M	'P 1'

loop_
_symmetry_equiv_pos_as_xyz
  x,y,z

loop_
_atom_site_label
_atom_site_type_symbol
_atom_site_fract_x
_atom_site_fract_y
_atom_site_fract_z
_atom_site_charge
Ag	Ag	0.85684 0.68245 0.49030 0.48200
O 	O 	0.66450 0.66460 0.28580 -0.21500
N 	N 	0.79650 0.66140 0.34500 -0.19700
N 	N 	0.72180 0.79910 0.39800 -0.19900
C 	C 	0.78270 0.62610 0.24900 0.04200
H 	H 	0.80020 0.61200 0.24170 -0.01700
C 	C 	0.74410 0.60940 0.15970 -0.12300
H 	H 	0.73550 0.58460 0.09150 0.04800
C 	C 	0.71830 0.62900 0.17040 0.01100
H 	H 	0.69120 0.61750 0.11290 0.04000
C 	C 	0.73280 0.66620 0.26740 -0.06800
C 	C 	0.77200 0.68120 0.35090 0.03800
H 	H 	0.78210 0.70690 0.41600 -0.00500
C 	C 	0.70470 0.68750 0.28630 0.17600
C 	C 	0.72670 0.73670 0.29890 -0.06800
C 	C 	0.76570 0.76510 0.21870 0.01300
H 	H 	0.78140 0.75390 0.15950 0.01600
C 	C 	0.78100 0.81020 0.22740 -0.10800
H 	H 	0.80670 0.83040 0.16850 0.05300
C 	C 	0.75970 0.82620 0.31990 0.04700
H 	H 	0.77200 0.85750 0.32920 -0.02100
C 	C 	0.70590 0.75570 0.38660 0.04400
H 	H 	0.67900 0.73630 0.44080 0.01600
Ag	Ag	0.31755 0.17439 0.49030 0.48100
O 	O 	0.33540 0.99990 0.28580 -0.21600
N 	N 	0.33860 0.13510 0.34500 -0.19800
N 	N 	0.20090 0.92270 0.39800 -0.20100
C 	C 	0.37390 0.15660 0.24900 0.04100
H 	H 	0.38800 0.18820 0.24170 -0.01800
C 	C 	0.39060 0.13470 0.15970 -0.12300
H 	H 	0.41540 0.15090 0.09150 0.04800
C 	C 	0.37100 0.08930 0.17040 0.01100
H 	H 	0.38250 0.07370 0.11290 0.04000
C 	C 	0.33380 0.06660 0.26740 -0.06800
C 	C 	0.31880 0.09080 0.35090 0.03800
H 	H 	0.29310 0.07520 0.41600 -0.00500
C 	C 	0.31250 0.01720 0.28630 0.17600
C 	C 	0.26330 0.99000 0.29890 -0.06800
C 	C 	0.23490 0.00060 0.21870 0.01300
H 	H 	0.24610 0.02750 0.15950 0.01600
C 	C 	0.18980 0.97080 0.22740 -0.10800
H 	H 	0.16960 0.97630 0.16850 0.05300
C 	C 	0.17380 0.93350 0.31990 0.04800
H 	H 	0.14250 0.91450 0.32920 -0.02100
C 	C 	0.24430 0.95020 0.38660 0.04400
H 	H 	0.26370 0.94270 0.44080 0.01600
Ag	Ag	0.82561 0.14316 0.49030 0.48100
O 	O 	0.00010 0.33550 0.28580 -0.21600
N 	N 	0.86490 0.20350 0.34500 -0.19800
N 	N 	0.07730 0.27820 0.39800 -0.20000
C 	C 	0.84340 0.21730 0.24900 0.04100
H 	H 	0.81180 0.19980 0.24170 -0.01800
C 	C 	0.86530 0.25590 0.15970 -0.12300
H 	H 	0.84910 0.26450 0.09150 0.04800
C 	C 	0.91070 0.28170 0.17040 0.01100
H 	H 	0.92630 0.30880 0.11290 0.04100
C 	C 	0.93340 0.26720 0.26740 -0.06800
C 	C 	0.90920 0.22800 0.35090 0.03800
H 	H 	0.92480 0.21790 0.41600 -0.00500
C 	C 	0.98280 0.29530 0.28630 0.17600
C 	C 	0.01000 0.27330 0.29890 -0.06800
C 	C 	0.99940 0.23430 0.21870 0.01300
H 	H 	0.97250 0.21860 0.15950 0.01600
C 	C 	0.02920 0.21900 0.22740 -0.10800
H 	H 	0.02370 0.19330 0.16850 0.05200
C 	C 	0.06650 0.24030 0.31990 0.04700
H 	H 	0.08550 0.22800 0.32920 -0.02000
C 	C 	0.04980 0.29410 0.38660 0.04400
H 	H 	0.05730 0.32100 0.44080 0.01600
Ag	Ag	0.14316 0.31755 0.50970 0.48100
O 	O 	0.33550 0.33540 0.71420 -0.21600
N 	N 	0.20350 0.33860 0.65500 -0.19800
N 	N 	0.27820 0.20090 0.60200 -0.20000
C 	C 	0.21730 0.37390 0.75100 0.04100
H 	H 	0.19980 0.38800 0.75830 -0.01800
C 	C 	0.25590 0.39060 0.84030 -0.12300
H 	H 	0.26450 0.41540 0.90850 0.04800
C 	C 	0.28170 0.37100 0.82960 0.01100
H 	H 	0.30880 0.38250 0.88710 0.04000
C 	C 	0.26720 0.33380 0.73260 -0.06800
C 	C 	0.22800 0.31880 0.64910 0.03800
H 	H 	0.21790 0.29310 0.58400 -0.00500
C 	C 	0.29530 0.31250 0.71370 0.17600
C 	C 	0.27330 0.26330 0.70110 -0.06800
C 	C 	0.23430 0.23490 0.78130 0.01300
H 	H 	0.21860 0.24610 0.84050 0.01600
C 	C 	0.21900 0.18980 0.77260 -0.10800
H 	H 	0.19330 0.16960 0.83150 0.05300
C 	C 	0.24030 0.17380 0.68010 0.04700
H 	H 	0.22800 0.14250 0.67080 -0.02100
C 	C 	0.29410 0.24430 0.61340 0.04400
H 	H 	0.32100 0.26370 0.55920 0.01600
Ag	Ag	0.68245 0.82561 0.50970 0.48100
O 	O 	0.66460 0.00010 0.71420 -0.21600
N 	N 	0.66140 0.86490 0.65500 -0.19800
N 	N 	0.79910 0.07730 0.60200 -0.20100
C 	C 	0.62610 0.84340 0.75100 0.04100
H 	H 	0.61200 0.81180 0.75830 -0.01800
C 	C 	0.60940 0.86530 0.84030 -0.12300
H 	H 	0.58460 0.84910 0.90850 0.04800
C 	C 	0.62900 0.91070 0.82960 0.01100
H 	H 	0.61750 0.92630 0.88710 0.04000
C 	C 	0.66620 0.93340 0.73260 -0.06800
C 	C 	0.68120 0.90920 0.64910 0.03800
H 	H 	0.70690 0.92480 0.58400 -0.00500
C 	C 	0.68750 0.98280 0.71370 0.17600
C 	C 	0.73670 0.01000 0.70110 -0.06800
C 	C 	0.76510 0.99940 0.78130 0.01300
H 	H 	0.75390 0.97250 0.84050 0.01600
C 	C 	0.81020 0.02920 0.77260 -0.10800
H 	H 	0.83040 0.02370 0.83150 0.05300
C 	C 	0.82620 0.06650 0.68010 0.04800
H 	H 	0.85750 0.08550 0.67080 -0.02100
C 	C 	0.75570 0.04980 0.61340 0.04400
H 	H 	0.73630 0.05730 0.55920 0.01600
Ag	Ag	0.17439 0.85684 0.50970 0.48100
O 	O 	0.99990 0.66450 0.71420 -0.21600
N 	N 	0.13510 0.79650 0.65500 -0.19800
N 	N 	0.92270 0.72180 0.60200 -0.20000
C 	C 	0.15660 0.78270 0.75100 0.04100
H 	H 	0.18820 0.80020 0.75830 -0.01800
C 	C 	0.13470 0.74410 0.84030 -0.12300
H 	H 	0.15090 0.73550 0.90850 0.04800
C 	C 	0.08930 0.71830 0.82960 0.01100
H 	H 	0.07370 0.69120 0.88710 0.04100
C 	C 	0.06660 0.73280 0.73260 -0.06800
C 	C 	0.09080 0.77200 0.64910 0.03800
H 	H 	0.07520 0.78210 0.58400 -0.00500
C 	C 	0.01720 0.70470 0.71370 0.17600
C 	C 	0.99000 0.72670 0.70110 -0.06800
C 	C 	0.00060 0.76570 0.78130 0.01300
H 	H 	0.02750 0.78140 0.84050 0.01600
C 	C 	0.97080 0.78100 0.77260 -0.10800
H 	H 	0.97630 0.80670 0.83150 0.05200
C 	C 	0.93350 0.75970 0.68010 0.04700
H 	H 	0.91450 0.77200 0.67080 -0.02000
C 	C 	0.95020 0.70590 0.61340 0.04400
H 	H 	0.94270 0.67900 0.55920 0.01600
Ag	Ag	0.52351 0.01578 0.82363 0.48100
O 	O 	0.33117 0.99793 0.61913 -0.21600
N 	N 	0.46317 0.99473 0.67833 -0.19800
N 	N 	0.38847 0.13243 0.73133 -0.20100
C 	C 	0.44937 0.95943 0.58233 0.04100
H 	H 	0.46687 0.94533 0.57503 -0.01800
C 	C 	0.41077 0.94273 0.49303 -0.12300
H 	H 	0.40217 0.91793 0.42483 0.04800
C 	C 	0.38497 0.96233 0.50373 0.01100
H 	H 	0.35787 0.95083 0.44623 0.04000
C 	C 	0.39947 0.99953 0.60073 -0.06800
C 	C 	0.43867 0.01453 0.68423 0.03800
H 	H 	0.44877 0.04023 0.74933 -0.00500
C 	C 	0.37137 0.02083 0.61963 0.17600
C 	C 	0.39337 0.07003 0.63223 -0.06800
C 	C 	0.43237 0.09843 0.55203 0.01300
H 	H 	0.44807 0.08723 0.49283 0.01600
C 	C 	0.44767 0.14353 0.56073 -0.10800
H 	H 	0.47337 0.16373 0.50183 0.05300
C 	C 	0.42637 0.15953 0.65323 0.04800
H 	H 	0.43867 0.19083 0.66253 -0.02100
C 	C 	0.37257 0.08903 0.71993 0.04400
H 	H 	0.34567 0.06963 0.77413 0.01600
Ag	Ag	0.98422 0.50772 0.82363 0.48100
O 	O 	0.00207 0.33323 0.61913 -0.21600
N 	N 	0.00527 0.46843 0.67833 -0.19800
N 	N 	0.86757 0.25603 0.73133 -0.20100
C 	C 	0.04057 0.48993 0.58233 0.04100
H 	H 	0.05467 0.52153 0.57503 -0.01800
C 	C 	0.05727 0.46803 0.49303 -0.12300
H 	H 	0.08207 0.48423 0.42483 0.04800
C 	C 	0.03767 0.42263 0.50373 0.01100
H 	H 	0.04917 0.40703 0.44623 0.04000
C 	C 	0.00047 0.39993 0.60073 -0.06800
C 	C 	0.98547 0.42413 0.68423 0.03800
H 	H 	0.95977 0.40853 0.74933 -0.00500
C 	C 	0.97917 0.35053 0.61963 0.17600
C 	C 	0.92997 0.32333 0.63223 -0.06800
C 	C 	0.90157 0.33393 0.55203 0.01300
H 	H 	0.91277 0.36083 0.49283 0.01600
C 	C 	0.85647 0.30413 0.56073 -0.10800
H 	H 	0.83627 0.30963 0.50183 0.05300
C 	C 	0.84047 0.26683 0.65323 0.04800
H 	H 	0.80917 0.24783 0.66253 -0.02100
C 	C 	0.91097 0.28353 0.71993 0.04400
H 	H 	0.93037 0.27603 0.77413 0.01600
Ag	Ag	0.49228 0.47649 0.82363 0.48100
O 	O 	0.66677 0.66883 0.61913 -0.21600
N 	N 	0.53157 0.53683 0.67833 -0.19800
N 	N 	0.74397 0.61153 0.73133 -0.20100
C 	C 	0.51007 0.55063 0.58233 0.04100
H 	H 	0.47847 0.53313 0.57503 -0.01800
C 	C 	0.53197 0.58923 0.49303 -0.12300
H 	H 	0.51577 0.59783 0.42483 0.04800
C 	C 	0.57737 0.61503 0.50373 0.01100
H 	H 	0.59297 0.64213 0.44623 0.04000
C 	C 	0.60007 0.60053 0.60073 -0.06800
C 	C 	0.57587 0.56133 0.68423 0.03800
H 	H 	0.59147 0.55123 0.74933 -0.00500
C 	C 	0.64947 0.62863 0.61963 0.17600
C 	C 	0.67667 0.60663 0.63223 -0.06800
C 	C 	0.66607 0.56763 0.55203 0.01300
H 	H 	0.63917 0.55193 0.49283 0.01600
C 	C 	0.69587 0.55233 0.56073 -0.10800
H 	H 	0.69037 0.52663 0.50183 0.05300
C 	C 	0.73317 0.57363 0.65323 0.04800
H 	H 	0.75217 0.56133 0.66253 -0.02100
C 	C 	0.71647 0.62743 0.71993 0.04400
H 	H 	0.72397 0.65433 0.77413 0.01600
Ag	Ag	0.80983 0.65088 0.84303 0.48100
O 	O 	0.00217 0.66873 0.04753 -0.21600
N 	N 	0.87017 0.67193 0.98833 -0.19800
N 	N 	0.94487 0.53423 0.93533 -0.20100
C 	C 	0.88397 0.70723 0.08433 0.04100
H 	H 	0.86647 0.72133 0.09163 -0.01800
C 	C 	0.92257 0.72393 0.17363 -0.12300
H 	H 	0.93117 0.74873 0.24183 0.04800
C 	C 	0.94837 0.70433 0.16293 0.01100
H 	H 	0.97547 0.71583 0.22043 0.04000
C 	C 	0.93387 0.66713 0.06593 -0.06800
C 	C 	0.89467 0.65213 0.98243 0.03800
H 	H 	0.88457 0.62643 0.91733 -0.00500
C 	C 	0.96197 0.64583 0.04703 0.17600
C 	C 	0.93997 0.59663 0.03443 -0.06800
C 	C 	0.90097 0.56823 0.11463 0.01300
H 	H 	0.88527 0.57943 0.17383 0.01600
C 	C 	0.88567 0.52313 0.10593 -0.10800
H 	H 	0.85997 0.50293 0.16483 0.05300
C 	C 	0.90697 0.50713 0.01343 0.04800
H 	H 	0.89467 0.47583 0.00413 -0.02000
C 	C 	0.96077 0.57763 0.94673 0.04400
H 	H 	0.98767 0.59703 0.89253 0.01600
Ag	Ag	0.34912 0.15894 0.84303 0.48100
O 	O 	0.33127 0.33343 0.04753 -0.21600
N 	N 	0.32807 0.19823 0.98833 -0.19800
N 	N 	0.46577 0.41063 0.93533 -0.20100
C 	C 	0.29277 0.17673 0.08433 0.04100
H 	H 	0.27867 0.14513 0.09163 -0.01800
C 	C 	0.27607 0.19863 0.17363 -0.12300
H 	H 	0.25127 0.18243 0.24183 0.04800
C 	C 	0.29567 0.24403 0.16293 0.01100
H 	H 	0.28417 0.25963 0.22043 0.04100
C 	C 	0.33287 0.26673 0.06593 -0.06800
C 	C 	0.34787 0.24253 0.98243 0.03800
H 	H 	0.37357 0.25813 0.91733 -0.00500
C 	C 	0.35417 0.31613 0.04703 0.17600
C 	C 	0.40337 0.34333 0.03443 -0.06800
C 	C 	0.43177 0.33273 0.11463 0.01300
H 	H 	0.42057 0.30583 0.17383 0.01600
C 	C 	0.47687 0.36253 0.10593 -0.10800
H 	H 	0.49707 0.35703 0.16483 0.05300
C 	C 	0.49287 0.39983 0.01343 0.04800
H 	H 	0.52417 0.41883 0.00413 -0.02000
C 	C 	0.42237 0.38313 0.94673 0.04400
H 	H 	0.40297 0.39063 0.89253 0.01600
Ag	Ag	0.84106 0.19017 0.84303 0.48100
O 	O 	0.66657 0.99783 0.04753 -0.21600
N 	N 	0.80177 0.12983 0.98833 -0.19800
N 	N 	0.58937 0.05513 0.93533 -0.20100
C 	C 	0.82327 0.11603 0.08433 0.04100
H 	H 	0.85487 0.13353 0.09163 -0.01800
C 	C 	0.80137 0.07743 0.17363 -0.12300
H 	H 	0.81757 0.06883 0.24183 0.04800
C 	C 	0.75597 0.05163 0.16293 0.01100
H 	H 	0.74037 0.02453 0.22043 0.04000
C 	C 	0.73327 0.06613 0.06593 -0.06700
C 	C 	0.75747 0.10533 0.98243 0.03800
H 	H 	0.74187 0.11543 0.91733 -0.00500
C 	C 	0.68387 0.03803 0.04703 0.17600
C 	C 	0.65667 0.06003 0.03443 -0.06800
C 	C 	0.66727 0.09903 0.11463 0.01300
H 	H 	0.69417 0.11473 0.17383 0.01600
C 	C 	0.63747 0.11433 0.10593 -0.10800
H 	H 	0.64297 0.14003 0.16483 0.05300
C 	C 	0.60017 0.09303 0.01343 0.04800
H 	H 	0.58117 0.10533 0.00413 -0.02000
C 	C 	0.61687 0.03923 0.94673 0.04400
H 	H 	0.60937 0.01233 0.89253 0.01600
Ag	Ag	0.19017 0.34912 0.15697 0.48100
O 	O 	0.99783 0.33127 0.95247 -0.21600
N 	N 	0.12983 0.32807 0.01167 -0.19800
N 	N 	0.05513 0.46577 0.06467 -0.20100
C 	C 	0.11603 0.29277 0.91567 0.04100
H 	H 	0.13353 0.27867 0.90837 -0.01800
C 	C 	0.07743 0.27607 0.82637 -0.12300
H 	H 	0.06883 0.25127 0.75817 0.04800
C 	C 	0.05163 0.29567 0.83707 0.01100
H 	H 	0.02453 0.28417 0.77957 0.04000
C 	C 	0.06613 0.33287 0.93407 -0.06800
C 	C 	0.10533 0.34787 0.01757 0.03800
H 	H 	0.11543 0.37357 0.08267 -0.00500
C 	C 	0.03803 0.35417 0.95297 0.17600
C 	C 	0.06003 0.40337 0.96557 -0.06800
C 	C 	0.09903 0.43177 0.88537 0.01300
H 	H 	0.11473 0.42057 0.82617 0.01600
C 	C 	0.11433 0.47687 0.89407 -0.10800
H 	H 	0.14003 0.49707 0.83517 0.05300
C 	C 	0.09303 0.49287 0.98657 0.04800
H 	H 	0.10533 0.52417 0.99587 -0.02000
C 	C 	0.03923 0.42237 0.05327 0.04400
H 	H 	0.01233 0.40297 0.10747 0.01600
Ag	Ag	0.65088 0.84106 0.15697 0.48100
O 	O 	0.66873 0.66657 0.95247 -0.21600
N 	N 	0.67193 0.80177 0.01167 -0.19800
N 	N 	0.53423 0.58937 0.06467 -0.20100
C 	C 	0.70723 0.82327 0.91567 0.04100
H 	H 	0.72133 0.85487 0.90837 -0.01800
C 	C 	0.72393 0.80137 0.82637 -0.12300
H 	H 	0.74873 0.81757 0.75817 0.04800
C 	C 	0.70433 0.75597 0.83707 0.01100
H 	H 	0.71583 0.74037 0.77957 0.04100
C 	C 	0.66713 0.73327 0.93407 -0.06800
C 	C 	0.65213 0.75747 0.01757 0.03800
H 	H 	0.62643 0.74187 0.08267 -0.00500
C 	C 	0.64583 0.68387 0.95297 0.17600
C 	C 	0.59663 0.65667 0.96557 -0.06800
C 	C 	0.56823 0.66727 0.88537 0.01300
H 	H 	0.57943 0.69417 0.82617 0.01600
C 	C 	0.52313 0.63747 0.89407 -0.10800
H 	H 	0.50293 0.64297 0.83517 0.05300
C 	C 	0.50713 0.60017 0.98657 0.04800
H 	H 	0.47583 0.58117 0.99587 -0.02000
C 	C 	0.57763 0.61687 0.05327 0.04400
H 	H 	0.59703 0.60937 0.10747 0.01600
Ag	Ag	0.15894 0.80983 0.15697 0.48100
O 	O 	0.33343 0.00217 0.95247 -0.21600
N 	N 	0.19823 0.87017 0.01167 -0.19800
N 	N 	0.41063 0.94487 0.06467 -0.20100
C 	C 	0.17673 0.88397 0.91567 0.04100
H 	H 	0.14513 0.86647 0.90837 -0.01800
C 	C 	0.19863 0.92257 0.82637 -0.12300
H 	H 	0.18243 0.93117 0.75817 0.04800
C 	C 	0.24403 0.94837 0.83707 0.01100
H 	H 	0.25963 0.97547 0.77957 0.04000
C 	C 	0.26673 0.93387 0.93407 -0.06700
C 	C 	0.24253 0.89467 0.01757 0.03800
H 	H 	0.25813 0.88457 0.08267 -0.00500
C 	C 	0.31613 0.96197 0.95297 0.17600
C 	C 	0.34333 0.93997 0.96557 -0.06800
C 	C 	0.33273 0.90097 0.88537 0.01300
H 	H 	0.30583 0.88527 0.82617 0.01600
C 	C 	0.36253 0.88567 0.89407 -0.10800
H 	H 	0.35703 0.85997 0.83517 0.05300
C 	C 	0.39983 0.90697 0.98657 0.04800
H 	H 	0.41883 0.89467 0.99587 -0.02000
C 	C 	0.38313 0.96077 0.05327 0.04400
H 	H 	0.39063 0.98767 0.10747 0.01600
Ag	Ag	0.47649 0.98422 0.17637 0.48100
O 	O 	0.66883 0.00207 0.38087 -0.21600
N 	N 	0.53683 0.00527 0.32167 -0.19800
N 	N 	0.61153 0.86757 0.26867 -0.20100
C 	C 	0.55063 0.04057 0.41767 0.04100
H 	H 	0.53313 0.05467 0.42497 -0.01800
C 	C 	0.58923 0.05727 0.50697 -0.12300
H 	H 	0.59783 0.08207 0.57517 0.04800
C 	C 	0.61503 0.03767 0.49627 0.01100
H 	H 	0.64213 0.04917 0.55377 0.04000
C 	C 	0.60053 0.00047 0.39927 -0.06800
C 	C 	0.56133 0.98547 0.31577 0.03800
H 	H 	0.55123 0.95977 0.25067 -0.00500
C 	C 	0.62863 0.97917 0.38037 0.17600
C 	C 	0.60663 0.92997 0.36777 -0.06800
C 	C 	0.56763 0.90157 0.44797 0.01300
H 	H 	0.55193 0.91277 0.50717 0.01600
C 	C 	0.55233 0.85647 0.43927 -0.10800
H 	H 	0.52663 0.83627 0.49817 0.05300
C 	C 	0.57363 0.84047 0.34677 0.04800
H 	H 	0.56133 0.80917 0.33747 -0.02100
C 	C 	0.62743 0.91097 0.28007 0.04400
H 	H 	0.65433 0.93037 0.22587 0.01600
Ag	Ag	0.01578 0.49228 0.17637 0.48100
O 	O 	0.99793 0.66677 0.38087 -0.21600
N 	N 	0.99473 0.53157 0.32167 -0.19800
N 	N 	0.13243 0.74397 0.26867 -0.20100
C 	C 	0.95943 0.51007 0.41767 0.04100
H 	H 	0.94533 0.47847 0.42497 -0.01800
C 	C 	0.94273 0.53197 0.50697 -0.12300
H 	H 	0.91793 0.51577 0.57517 0.04800
C 	C 	0.96233 0.57737 0.49627 0.01100
H 	H 	0.95083 0.59297 0.55377 0.04000
C 	C 	0.99953 0.60007 0.39927 -0.06800
C 	C 	0.01453 0.57587 0.31577 0.03800
H 	H 	0.04023 0.59147 0.25067 -0.00500
C 	C 	0.02083 0.64947 0.38037 0.17600
C 	C 	0.07003 0.67667 0.36777 -0.06800
C 	C 	0.09843 0.66607 0.44797 0.01300
H 	H 	0.08723 0.63917 0.50717 0.01600
C 	C 	0.14353 0.69587 0.43927 -0.10800
H 	H 	0.16373 0.69037 0.49817 0.05300
C 	C 	0.15953 0.73317 0.34677 0.04800
H 	H 	0.19083 0.75217 0.33747 -0.02100
C 	C 	0.08903 0.71647 0.28007 0.04400
H 	H 	0.06963 0.72397 0.22587 0.01600
Ag	Ag	0.50772 0.52351 0.17637 0.48100
O 	O 	0.33323 0.33117 0.38087 -0.21600
N 	N 	0.46843 0.46317 0.32167 -0.19800
N 	N 	0.25603 0.38847 0.26867 -0.20100
C 	C 	0.48993 0.44937 0.41767 0.04100
H 	H 	0.52153 0.46687 0.42497 -0.01800
C 	C 	0.46803 0.41077 0.50697 -0.12300
H 	H 	0.48423 0.40217 0.57517 0.04800
C 	C 	0.42263 0.38497 0.49627 0.01100
H 	H 	0.40703 0.35787 0.55377 0.04000
C 	C 	0.39993 0.39947 0.39927 -0.06800
C 	C 	0.42413 0.43867 0.31577 0.03800
H 	H 	0.40853 0.44877 0.25067 -0.00500
C 	C 	0.35053 0.37137 0.38037 0.17600
C 	C 	0.32333 0.39337 0.36777 -0.06800
C 	C 	0.33393 0.43237 0.44797 0.01300
H 	H 	0.36083 0.44807 0.50717 0.01600
C 	C 	0.30413 0.44767 0.43927 -0.10800
H 	H 	0.30963 0.47337 0.49817 0.05300
C 	C 	0.26683 0.42637 0.34677 0.04800
H 	H 	0.24783 0.43867 0.33747 -0.02100
C 	C 	0.28353 0.37257 0.28007 0.04400
H 	H 	0.27603 0.34567 0.22587 0.01600
