data_crystal

_cell_length_a 33.49680
_cell_length_b 33.49680
_cell_length_c 8.51640
_cell_angle_alpha 90.00000
_cell_angle_beta  90.00000
_cell_angle_gamma 120.00000

_symmetry_space_group_name_	'P 1'
_symmetry_space_group_name_H-M	'P 1'

loop_
_symmetry_equiv_pos_as_xyz
  x,y,z

loop_
_atom_site_label
_atom_site_type_symbol
_atom_site_fract_x
_atom_site_fract_y
_atom_site_fract_z
_atom_site_charge
Ag	Ag	0.14725 0.32307 0.50308 0.48200
O 	O 	0.33676 0.33306 0.78490 -0.21300
N 	N 	0.20678 0.34446 0.65880 -0.19200
N 	N 	0.28152 0.19960 0.62170 -0.20200
C 	C 	0.21791 0.37884 0.76250 0.04000
H 	H 	0.20070 0.39430 0.76190 -0.01200
C 	C 	0.25350 0.39251 0.87000 -0.11700
H 	H 	0.26020 0.41660 0.94250 0.04600
C 	C 	0.27891 0.37043 0.86970 -0.00100
H 	H 	0.30410 0.37970 0.93970 0.04500
C 	C 	0.26700 0.33432 0.76490 -0.06100
C 	C 	0.23083 0.32234 0.66310 0.03700
H 	H 	0.22260 0.29740 0.59290 0.00000
C 	C 	0.29514 0.31102 0.76020 0.16900
C 	C 	0.27219 0.26080 0.72830 -0.06200
C 	C 	0.22840 0.22990 0.77750 0.01000
H 	H 	0.21000 0.24010 0.82950 0.01700
C 	C 	0.21140 0.18330 0.74990 -0.10500
H 	H 	0.18150 0.16120 0.78480 0.05200
C 	C 	0.23830 0.16965 0.67200 0.04300
H 	H 	0.22600 0.13770 0.65230 -0.01900
C 	C 	0.29763 0.24404 0.65090 0.04400
H 	H 	0.32800 0.26550 0.61740 0.01600
Ag	Ag	0.81392 0.65640 0.83641 0.48100
O 	O 	0.00343 0.66639 0.11823 -0.21400
N 	N 	0.87345 0.67779 0.99213 -0.19300
N 	N 	0.94819 0.53293 0.95503 -0.20300
C 	C 	0.88458 0.71217 0.09583 0.03900
H 	H 	0.86737 0.72763 0.09523 -0.01300
C 	C 	0.92017 0.72584 0.20333 -0.11800
H 	H 	0.92687 0.74993 0.27583 0.04500
C 	C 	0.94558 0.70376 0.20303 -0.00200
H 	H 	0.97077 0.71303 0.27303 0.04400
C 	C 	0.93367 0.66765 0.09823 -0.06200
C 	C 	0.89750 0.65567 0.99643 0.03500
H 	H 	0.88927 0.63073 0.92623 -0.00100
C 	C 	0.96181 0.64435 0.09353 0.16800
C 	C 	0.93886 0.59413 0.06163 -0.06300
C 	C 	0.89507 0.56323 0.11083 0.00900
H 	H 	0.87667 0.57343 0.16283 0.01600
C 	C 	0.87807 0.51663 0.08323 -0.10600
H 	H 	0.84817 0.49453 0.11813 0.05200
C 	C 	0.90497 0.50298 0.00533 0.04400
H 	H 	0.89267 0.47103 0.98563 -0.01900
C 	C 	0.96430 0.57737 0.98423 0.04400
H 	H 	0.99467 0.59883 0.95073 0.01600
Ag	Ag	0.48059 0.98973 0.16975 0.48100
O 	O 	0.67009 0.99973 0.45157 -0.21400
N 	N 	0.54011 0.01113 0.32547 -0.19300
N 	N 	0.61485 0.86627 0.28837 -0.20300
C 	C 	0.55124 0.04551 0.42917 0.03900
H 	H 	0.53403 0.06097 0.42857 -0.01300
C 	C 	0.58683 0.05918 0.53667 -0.11800
H 	H 	0.59353 0.08327 0.60917 0.04500
C 	C 	0.61224 0.03710 0.53637 -0.00200
H 	H 	0.63743 0.04637 0.60637 0.04400
C 	C 	0.60033 0.00099 0.43157 -0.06200
C 	C 	0.56416 0.98901 0.32977 0.03600
H 	H 	0.55593 0.96407 0.25957 -0.00100
C 	C 	0.62847 0.97769 0.42687 0.16800
C 	C 	0.60552 0.92747 0.39497 -0.06300
C 	C 	0.56173 0.89657 0.44417 0.00900
H 	H 	0.54333 0.90677 0.49617 0.01600
C 	C 	0.54473 0.84997 0.41657 -0.10600
H 	H 	0.51483 0.82787 0.45147 0.05200
C 	C 	0.57163 0.83632 0.33867 0.04300
H 	H 	0.55933 0.80437 0.31897 -0.01900
C 	C 	0.63096 0.91071 0.31757 0.04400
H 	H 	0.66133 0.93217 0.28407 0.01600
Ag	Ag	0.67693 0.82419 0.50308 0.48100
O 	O 	0.66694 0.00370 0.78490 -0.21400
N 	N 	0.65554 0.86232 0.65880 -0.19300
N 	N 	0.80040 0.08192 0.62170 -0.20300
C 	C 	0.62116 0.83907 0.76250 0.03900
H 	H 	0.60570 0.80640 0.76190 -0.01300
C 	C 	0.60749 0.86099 0.87000 -0.11800
H 	H 	0.58340 0.84360 0.94250 0.04500
C 	C 	0.62957 0.90848 0.86970 -0.00200
H 	H 	0.62030 0.92440 0.93970 0.04400
C 	C 	0.66568 0.93268 0.76490 -0.06200
C 	C 	0.67766 0.90849 0.66310 0.03600
H 	H 	0.70260 0.92520 0.59290 -0.00100
C 	C 	0.68898 0.98412 0.76020 0.16800
C 	C 	0.73920 0.01139 0.72830 -0.06300
C 	C 	0.77010 0.99850 0.77750 0.00900
H 	H 	0.75990 0.96990 0.82950 0.01600
C 	C 	0.81670 0.02810 0.74990 -0.10600
H 	H 	0.83880 0.02030 0.78480 0.05200
C 	C 	0.83035 0.06865 0.67200 0.04300
H 	H 	0.86230 0.08830 0.65230 -0.01900
C 	C 	0.75596 0.05359 0.65090 0.04400
H 	H 	0.73450 0.06250 0.61740 0.01600
Ag	Ag	0.34360 0.15752 0.83641 0.48100
O 	O 	0.33361 0.33703 0.11823 -0.21400
N 	N 	0.32221 0.19565 0.99213 -0.19300
N 	N 	0.46707 0.41525 0.95503 -0.20300
C 	C 	0.28783 0.17240 0.09583 0.03900
H 	H 	0.27237 0.13973 0.09523 -0.01300
C 	C 	0.27416 0.19432 0.20333 -0.11800
H 	H 	0.25007 0.17693 0.27583 0.04500
C 	C 	0.29624 0.24181 0.20303 -0.00200
H 	H 	0.28697 0.25773 0.27303 0.04400
C 	C 	0.33235 0.26601 0.09823 -0.06200
C 	C 	0.34433 0.24182 0.99643 0.03500
H 	H 	0.36927 0.25853 0.92623 -0.00100
C 	C 	0.35565 0.31745 0.09353 0.16800
C 	C 	0.40587 0.34472 0.06163 -0.06300
C 	C 	0.43677 0.33183 0.11083 0.00900
H 	H 	0.42657 0.30323 0.16283 0.01600
C 	C 	0.48337 0.36143 0.08323 -0.10600
H 	H 	0.50547 0.35363 0.11813 0.05200
C 	C 	0.49702 0.40198 0.00533 0.04400
H 	H 	0.52897 0.42163 0.98563 -0.01900
C 	C 	0.42263 0.38692 0.98423 0.04400
H 	H 	0.40117 0.39583 0.95073 0.01600
Ag	Ag	0.01027 0.49085 0.16975 0.48100
O 	O 	0.00027 0.67037 0.45157 -0.21400
N 	N 	0.98887 0.52899 0.32547 -0.19300
N 	N 	0.13373 0.74859 0.28837 -0.20300
C 	C 	0.95449 0.50574 0.42917 0.03900
H 	H 	0.93903 0.47307 0.42857 -0.01300
C 	C 	0.94082 0.52766 0.53667 -0.11800
H 	H 	0.91673 0.51027 0.60917 0.04500
C 	C 	0.96290 0.57515 0.53637 -0.00200
H 	H 	0.95363 0.59107 0.60637 0.04400
C 	C 	0.99901 0.59935 0.43157 -0.06200
C 	C 	0.01099 0.57516 0.32977 0.03600
H 	H 	0.03593 0.59187 0.25957 -0.00100
C 	C 	0.02231 0.65079 0.42687 0.16800
C 	C 	0.07253 0.67806 0.39497 -0.06300
C 	C 	0.10343 0.66517 0.44417 0.00900
H 	H 	0.09323 0.63657 0.49617 0.01600
C 	C 	0.15003 0.69477 0.41657 -0.10600
H 	H 	0.17213 0.68697 0.45147 0.05200
C 	C 	0.16368 0.73532 0.33867 0.04300
H 	H 	0.19563 0.75497 0.31897 -0.01900
C 	C 	0.08929 0.72026 0.31757 0.04400
H 	H 	0.06783 0.72917 0.28407 0.01600
Ag	Ag	0.17581 0.85275 0.50308 0.48100
O 	O 	0.99630 0.66324 0.78490 -0.21400
N 	N 	0.13768 0.79322 0.65880 -0.19300
N 	N 	0.91808 0.71848 0.62170 -0.20300
C 	C 	0.16093 0.78209 0.76250 0.03900
H 	H 	0.19360 0.79930 0.76190 -0.01300
C 	C 	0.13901 0.74650 0.87000 -0.11800
H 	H 	0.15640 0.73980 0.94250 0.04500
C 	C 	0.09152 0.72109 0.86970 -0.00200
H 	H 	0.07560 0.69590 0.93970 0.04400
C 	C 	0.06732 0.73300 0.76490 -0.06200
C 	C 	0.09151 0.76917 0.66310 0.03600
H 	H 	0.07480 0.77740 0.59290 -0.00100
C 	C 	0.01588 0.70486 0.76020 0.16700
C 	C 	0.98861 0.72781 0.72830 -0.06300
C 	C 	0.00150 0.77160 0.77750 0.00800
H 	H 	0.03010 0.79000 0.82950 0.01600
C 	C 	0.97190 0.78860 0.74990 -0.10500
H 	H 	0.97970 0.81850 0.78480 0.05200
C 	C 	0.93135 0.76170 0.67200 0.04300
H 	H 	0.91170 0.77400 0.65230 -0.01900
C 	C 	0.94641 0.70237 0.65090 0.04400
H 	H 	0.93750 0.67200 0.61740 0.01600
Ag	Ag	0.84248 0.18608 0.83641 0.48100
O 	O 	0.66297 0.99657 0.11823 -0.21400
N 	N 	0.80435 0.12655 0.99213 -0.19300
N 	N 	0.58475 0.05181 0.95503 -0.20300
C 	C 	0.82760 0.11542 0.09583 0.03900
H 	H 	0.86027 0.13263 0.09523 -0.01300
C 	C 	0.80568 0.07983 0.20333 -0.11800
H 	H 	0.82307 0.07313 0.27583 0.04500
C 	C 	0.75819 0.05442 0.20303 -0.00200
H 	H 	0.74227 0.02923 0.27303 0.04400
C 	C 	0.73399 0.06633 0.09823 -0.06200
C 	C 	0.75818 0.10250 0.99643 0.03600
H 	H 	0.74147 0.11073 0.92623 -0.00100
C 	C 	0.68255 0.03819 0.09353 0.16800
C 	C 	0.65528 0.06114 0.06163 -0.06300
C 	C 	0.66817 0.10493 0.11083 0.00900
H 	H 	0.69677 0.12333 0.16283 0.01600
C 	C 	0.63857 0.12193 0.08323 -0.10600
H 	H 	0.64637 0.15183 0.11813 0.05200
C 	C 	0.59802 0.09503 0.00533 0.04400
H 	H 	0.57837 0.10733 0.98563 -0.01900
C 	C 	0.61308 0.03570 0.98423 0.04400
H 	H 	0.60417 0.00533 0.95073 0.01600
Ag	Ag	0.50915 0.51941 0.16975 0.48100
O 	O 	0.32963 0.32991 0.45157 -0.21400
N 	N 	0.47101 0.45989 0.32547 -0.19300
N 	N 	0.25141 0.38515 0.28837 -0.20300
C 	C 	0.49426 0.44876 0.42917 0.03900
H 	H 	0.52693 0.46597 0.42857 -0.01300
C 	C 	0.47234 0.41317 0.53667 -0.11800
H 	H 	0.48973 0.40647 0.60917 0.04500
C 	C 	0.42485 0.38776 0.53637 -0.00200
H 	H 	0.40893 0.36257 0.60637 0.04400
C 	C 	0.40065 0.39967 0.43157 -0.06200
C 	C 	0.42484 0.43584 0.32977 0.03600
H 	H 	0.40813 0.44407 0.25957 -0.00100
C 	C 	0.34921 0.37153 0.42687 0.16800
C 	C 	0.32194 0.39448 0.39497 -0.06300
C 	C 	0.33483 0.43827 0.44417 0.00900
H 	H 	0.36343 0.45667 0.49617 0.01600
C 	C 	0.30523 0.45527 0.41657 -0.10600
H 	H 	0.31303 0.48517 0.45147 0.05200
C 	C 	0.26468 0.42837 0.33867 0.04300
H 	H 	0.24503 0.44067 0.31897 -0.01900
C 	C 	0.27974 0.36904 0.31757 0.04400
H 	H 	0.27083 0.33867 0.28407 0.01600
Ag	Ag	0.85274 0.67693 0.49692 0.48100
O 	O 	0.66324 0.66694 0.21510 -0.21400
N 	N 	0.79322 0.65554 0.34120 -0.19300
N 	N 	0.71848 0.80040 0.37830 -0.20300
C 	C 	0.78209 0.62116 0.23750 0.03900
H 	H 	0.79930 0.60570 0.23810 -0.01300
C 	C 	0.74650 0.60749 0.13000 -0.11800
H 	H 	0.73980 0.58340 0.05750 0.04500
C 	C 	0.72109 0.62957 0.13030 -0.00200
H 	H 	0.69590 0.62030 0.06030 0.04400
C 	C 	0.73300 0.66568 0.23510 -0.06200
C 	C 	0.76917 0.67766 0.33690 0.03600
H 	H 	0.77740 0.70260 0.40710 -0.00100
C 	C 	0.70486 0.68898 0.23980 0.16800
C 	C 	0.72781 0.73920 0.27170 -0.06300
C 	C 	0.77160 0.77010 0.22250 0.00900
H 	H 	0.79000 0.75990 0.17050 0.01600
C 	C 	0.78860 0.81670 0.25010 -0.10600
H 	H 	0.81850 0.83880 0.21520 0.05200
C 	C 	0.76170 0.83035 0.32800 0.04300
H 	H 	0.77400 0.86230 0.34770 -0.01900
C 	C 	0.70237 0.75596 0.34910 0.04400
H 	H 	0.67200 0.73450 0.38260 0.01600
Ag	Ag	0.51941 0.01027 0.83025 0.48100
O 	O 	0.32991 0.00027 0.54843 -0.21400
N 	N 	0.45989 0.98887 0.67453 -0.19300
N 	N 	0.38515 0.13373 0.71163 -0.20300
C 	C 	0.44876 0.95449 0.57083 0.03900
H 	H 	0.46597 0.93903 0.57143 -0.01300
C 	C 	0.41317 0.94082 0.46333 -0.11800
H 	H 	0.40647 0.91673 0.39083 0.04500
C 	C 	0.38776 0.96290 0.46363 -0.00200
H 	H 	0.36257 0.95363 0.39363 0.04400
C 	C 	0.39967 0.99901 0.56843 -0.06200
C 	C 	0.43584 0.01099 0.67023 0.03600
H 	H 	0.44407 0.03593 0.74043 -0.00100
C 	C 	0.37153 0.02231 0.57313 0.16800
C 	C 	0.39448 0.07253 0.60503 -0.06300
C 	C 	0.43827 0.10343 0.55583 0.00900
H 	H 	0.45667 0.09323 0.50383 0.01600
C 	C 	0.45527 0.15003 0.58343 -0.10600
H 	H 	0.48517 0.17213 0.54853 0.05200
C 	C 	0.42837 0.16368 0.66133 0.04300
H 	H 	0.44067 0.19563 0.68103 -0.01900
C 	C 	0.36904 0.08929 0.68243 0.04400
H 	H 	0.33867 0.06783 0.71593 0.01600
Ag	Ag	0.18608 0.34360 0.16359 0.48100
O 	O 	0.99657 0.33361 0.88177 -0.21400
N 	N 	0.12655 0.32221 0.00787 -0.19300
N 	N 	0.05181 0.46707 0.04497 -0.20300
C 	C 	0.11542 0.28783 0.90417 0.03900
H 	H 	0.13263 0.27237 0.90477 -0.01300
C 	C 	0.07983 0.27416 0.79667 -0.11800
H 	H 	0.07313 0.25007 0.72417 0.04500
C 	C 	0.05442 0.29624 0.79697 -0.00200
H 	H 	0.02923 0.28697 0.72697 0.04400
C 	C 	0.06633 0.33235 0.90177 -0.06200
C 	C 	0.10250 0.34433 0.00357 0.03500
H 	H 	0.11073 0.36927 0.07377 -0.00100
C 	C 	0.03819 0.35565 0.90647 0.16800
C 	C 	0.06114 0.40587 0.93837 -0.06300
C 	C 	0.10493 0.43677 0.88917 0.00900
H 	H 	0.12333 0.42657 0.83717 0.01600
C 	C 	0.12193 0.48337 0.91677 -0.10600
H 	H 	0.15183 0.50547 0.88187 0.05200
C 	C 	0.09503 0.49702 0.99467 0.04400
H 	H 	0.10733 0.52897 0.01437 -0.01900
C 	C 	0.03570 0.42263 0.01577 0.04400
H 	H 	0.00533 0.40117 0.04927 0.01600
Ag	Ag	0.32307 0.17581 0.49692 0.48100
O 	O 	0.33306 0.99630 0.21510 -0.21400
N 	N 	0.34446 0.13768 0.34120 -0.19300
N 	N 	0.19960 0.91808 0.37830 -0.20300
C 	C 	0.37884 0.16093 0.23750 0.03900
H 	H 	0.39430 0.19360 0.23810 -0.01300
C 	C 	0.39251 0.13901 0.13000 -0.11800
H 	H 	0.41660 0.15640 0.05750 0.04500
C 	C 	0.37043 0.09152 0.13030 -0.00200
H 	H 	0.37970 0.07560 0.06030 0.04400
C 	C 	0.33432 0.06732 0.23510 -0.06200
C 	C 	0.32234 0.09151 0.33690 0.03600
H 	H 	0.29740 0.07480 0.40710 -0.00100
C 	C 	0.31102 0.01588 0.23980 0.16800
C 	C 	0.26080 0.98861 0.27170 -0.06300
C 	C 	0.22990 0.00150 0.22250 0.00900
H 	H 	0.24010 0.03010 0.17050 0.01600
C 	C 	0.18330 0.97190 0.25010 -0.10600
H 	H 	0.16120 0.97970 0.21520 0.05200
C 	C 	0.16965 0.93135 0.32800 0.04300
H 	H 	0.13770 0.91170 0.34770 -0.01900
C 	C 	0.24404 0.94641 0.34910 0.04400
H 	H 	0.26550 0.93750 0.38260 0.01600
Ag	Ag	0.98973 0.50915 0.83025 0.48100
O 	O 	0.99973 0.32963 0.54843 -0.21400
N 	N 	0.01113 0.47101 0.67453 -0.19300
N 	N 	0.86627 0.25141 0.71163 -0.20300
C 	C 	0.04551 0.49426 0.57083 0.03900
H 	H 	0.06097 0.52693 0.57143 -0.01300
C 	C 	0.05918 0.47234 0.46333 -0.11800
H 	H 	0.08327 0.48973 0.39083 0.04500
C 	C 	0.03710 0.42485 0.46363 -0.00200
H 	H 	0.04637 0.40893 0.39363 0.04400
C 	C 	0.00099 0.40065 0.56843 -0.06200
C 	C 	0.98901 0.42484 0.67023 0.03600
H 	H 	0.96407 0.40813 0.74043 -0.00100
C 	C 	0.97769 0.34921 0.57313 0.16800
C 	C 	0.92747 0.32194 0.60503 -0.06300
C 	C 	0.89657 0.33483 0.55583 0.00900
H 	H 	0.90677 0.36343 0.50383 0.01600
C 	C 	0.84997 0.30523 0.58343 -0.10600
H 	H 	0.82787 0.31303 0.54853 0.05200
C 	C 	0.83632 0.26468 0.66133 0.04300
H 	H 	0.80437 0.24503 0.68103 -0.01900
C 	C 	0.91071 0.27974 0.68243 0.04400
H 	H 	0.93217 0.27083 0.71593 0.01600
Ag	Ag	0.65640 0.84248 0.16359 0.48100
O 	O 	0.66639 0.66297 0.88177 -0.21400
N 	N 	0.67779 0.80435 0.00787 -0.19300
N 	N 	0.53293 0.58475 0.04497 -0.20300
C 	C 	0.71217 0.82760 0.90417 0.03900
H 	H 	0.72763 0.86027 0.90477 -0.01300
C 	C 	0.72584 0.80568 0.79667 -0.11800
H 	H 	0.74993 0.82307 0.72417 0.04500
C 	C 	0.70376 0.75819 0.79697 -0.00200
H 	H 	0.71303 0.74227 0.72697 0.04400
C 	C 	0.66765 0.73399 0.90177 -0.06200
C 	C 	0.65567 0.75818 0.00357 0.03500
H 	H 	0.63073 0.74147 0.07377 -0.00100
C 	C 	0.64435 0.68255 0.90647 0.16800
C 	C 	0.59413 0.65528 0.93837 -0.06300
C 	C 	0.56323 0.66817 0.88917 0.00900
H 	H 	0.57343 0.69677 0.83717 0.01600
C 	C 	0.51663 0.63857 0.91677 -0.10600
H 	H 	0.49453 0.64637 0.88187 0.05200
C 	C 	0.50298 0.59802 0.99467 0.04400
H 	H 	0.47103 0.57837 0.01437 -0.01900
C 	C 	0.57737 0.61308 0.01577 0.04400
H 	H 	0.59883 0.60417 0.04927 0.01600
Ag	Ag	0.82419 0.14725 0.49692 0.48100
O 	O 	0.00370 0.33676 0.21510 -0.21400
N 	N 	0.86232 0.20678 0.34120 -0.19300
N 	N 	0.08192 0.28152 0.37830 -0.20300
C 	C 	0.83907 0.21791 0.23750 0.03900
H 	H 	0.80640 0.20070 0.23810 -0.01300
C 	C 	0.86099 0.25350 0.13000 -0.11800
H 	H 	0.84360 0.26020 0.05750 0.04500
C 	C 	0.90848 0.27891 0.13030 -0.00200
H 	H 	0.92440 0.30410 0.06030 0.04400
C 	C 	0.93268 0.26700 0.23510 -0.06200
C 	C 	0.90849 0.23083 0.33690 0.03600
H 	H 	0.92520 0.22260 0.40710 -0.00100
C 	C 	0.98412 0.29514 0.23980 0.16700
C 	C 	0.01139 0.27219 0.27170 -0.06300
C 	C 	0.99850 0.22840 0.22250 0.00800
H 	H 	0.96990 0.21000 0.17050 0.01600
C 	C 	0.02810 0.21140 0.25010 -0.10500
H 	H 	0.02030 0.18150 0.21520 0.05200
C 	C 	0.06865 0.23830 0.32800 0.04300
H 	H 	0.08830 0.22600 0.34770 -0.01900
C 	C 	0.05359 0.29763 0.34910 0.04400
H 	H 	0.06250 0.32800 0.38260 0.01600
Ag	Ag	0.49085 0.48059 0.83025 0.48100
O 	O 	0.67037 0.67009 0.54843 -0.21400
N 	N 	0.52899 0.54011 0.67453 -0.19300
N 	N 	0.74859 0.61485 0.71163 -0.20300
C 	C 	0.50574 0.55124 0.57083 0.03900
H 	H 	0.47307 0.53403 0.57143 -0.01300
C 	C 	0.52766 0.58683 0.46333 -0.11800
H 	H 	0.51027 0.59353 0.39083 0.04500
C 	C 	0.57515 0.61224 0.46363 -0.00200
H 	H 	0.59107 0.63743 0.39363 0.04400
C 	C 	0.59935 0.60033 0.56843 -0.06200
C 	C 	0.57516 0.56416 0.67023 0.03600
H 	H 	0.59187 0.55593 0.74043 -0.00100
C 	C 	0.65079 0.62847 0.57313 0.16800
C 	C 	0.67806 0.60552 0.60503 -0.06300
C 	C 	0.66517 0.56173 0.55583 0.00900
H 	H 	0.63657 0.54333 0.50383 0.01600
C 	C 	0.69477 0.54473 0.58343 -0.10600
H 	H 	0.68697 0.51483 0.54853 0.05200
C 	C 	0.73532 0.57163 0.66133 0.04300
H 	H 	0.75497 0.55933 0.68103 -0.01900
C 	C 	0.72026 0.63096 0.68243 0.04400
H 	H 	0.72917 0.66133 0.71593 0.01600
Ag	Ag	0.15752 0.81392 0.16359 0.48100
O 	O 	0.33703 0.00343 0.88177 -0.21400
N 	N 	0.19565 0.87345 0.00787 -0.19300
N 	N 	0.41525 0.94819 0.04497 -0.20300
C 	C 	0.17240 0.88458 0.90417 0.03900
H 	H 	0.13973 0.86737 0.90477 -0.01300
C 	C 	0.19432 0.92017 0.79667 -0.11800
H 	H 	0.17693 0.92687 0.72417 0.04500
C 	C 	0.24181 0.94558 0.79697 -0.00200
H 	H 	0.25773 0.97077 0.72697 0.04400
C 	C 	0.26601 0.93367 0.90177 -0.06200
C 	C 	0.24182 0.89750 0.00357 0.03600
H 	H 	0.25853 0.88927 0.07377 -0.00100
C 	C 	0.31745 0.96181 0.90647 0.16800
C 	C 	0.34472 0.93886 0.93837 -0.06300
C 	C 	0.33183 0.89507 0.88917 0.00900
H 	H 	0.30323 0.87667 0.83717 0.01600
C 	C 	0.36143 0.87807 0.91677 -0.10600
H 	H 	0.35363 0.84817 0.88187 0.05200
C 	C 	0.40198 0.90497 0.99467 0.04400
H 	H 	0.42163 0.89267 0.01437 -0.01900
C 	C 	0.38692 0.96430 0.01577 0.04400
H 	H 	0.39583 0.99467 0.04927 0.01600
