data_crystal

_cell_length_a 33.78600
_cell_length_b 33.78600
_cell_length_c 8.41700
_cell_angle_alpha 90.00000
_cell_angle_beta  90.00000
_cell_angle_gamma 120.00000

_symmetry_space_group_name_	'P 1'
_symmetry_space_group_name_H-M	'P 1'

loop_
_symmetry_equiv_pos_as_xyz
  x,y,z

loop_
_atom_site_label
_atom_site_type_symbol
_atom_site_fract_x
_atom_site_fract_y
_atom_site_fract_z
_atom_site_charge
Ag	Ag	0.14745 0.32186 0.50460 0.48100
O 	O 	0.33579 0.33034 0.78520 -0.21200
N 	N 	0.20642 0.34187 0.66210 -0.19200
N 	N 	0.27930 0.19753 0.61630 -0.20000
C 	C 	0.21927 0.37744 0.76100 0.03900
H 	H 	0.20270 0.39330 0.75980 -0.01300
C 	C 	0.25576 0.39191 0.86480 -0.11500
H 	H 	0.26360 0.41700 0.93410 0.04700
C 	C 	0.28063 0.36950 0.86640 -0.00200
H 	H 	0.30640 0.37940 0.93410 0.04600
C 	C 	0.26681 0.33200 0.76590 -0.06000
C 	C 	0.23000 0.31953 0.66650 0.03300
H 	H 	0.22090 0.29400 0.59820 0.00000
C 	C 	0.29469 0.30859 0.76130 0.16800
C 	C 	0.27161 0.25873 0.72800 -0.06000
C 	C 	0.22809 0.22797 0.78380 0.00400
H 	H 	0.21060 0.23830 0.84060 0.01700
C 	C 	0.21080 0.18161 0.75400 -0.10300
H 	H 	0.18130 0.15960 0.79140 0.05100
C 	C 	0.23695 0.16820 0.66980 0.04300
H 	H 	0.22450 0.13660 0.64830 -0.01800
C 	C 	0.29613 0.24195 0.64640 0.04000
H 	H 	0.32610 0.26300 0.61080 0.01500
Ag	Ag	0.81412 0.65519 0.83793 0.48000
O 	O 	0.00246 0.66367 0.11853 -0.21300
N 	N 	0.87309 0.67520 0.99543 -0.19300
N 	N 	0.94597 0.53086 0.94963 -0.20100
C 	C 	0.88594 0.71077 0.09433 0.03800
H 	H 	0.86937 0.72663 0.09313 -0.01400
C 	C 	0.92243 0.72524 0.19813 -0.11600
H 	H 	0.93027 0.75033 0.26743 0.04600
C 	C 	0.94730 0.70283 0.19973 -0.00300
H 	H 	0.97307 0.71273 0.26743 0.04500
C 	C 	0.93348 0.66533 0.09923 -0.06000
C 	C 	0.89667 0.65286 0.99983 0.03300
H 	H 	0.88757 0.62733 0.93153 0.00100
C 	C 	0.96136 0.64192 0.09463 0.16800
C 	C 	0.93828 0.59206 0.06133 -0.06000
C 	C 	0.89476 0.56130 0.11713 0.00400
H 	H 	0.87727 0.57163 0.17393 0.01700
C 	C 	0.87747 0.51494 0.08733 -0.10300
H 	H 	0.84797 0.49293 0.12473 0.05100
C 	C 	0.90362 0.50153 0.00313 0.04300
H 	H 	0.89117 0.46993 0.98163 -0.01800
C 	C 	0.96280 0.57528 0.97973 0.04000
H 	H 	0.99277 0.59633 0.94413 0.01500
Ag	Ag	0.48079 0.98852 0.17127 0.48000
O 	O 	0.66912 0.99701 0.45187 -0.21300
N 	N 	0.53975 0.00854 0.32877 -0.19300
N 	N 	0.61263 0.86420 0.28297 -0.20100
C 	C 	0.55260 0.04411 0.42767 0.03800
H 	H 	0.53603 0.05997 0.42647 -0.01400
C 	C 	0.58909 0.05858 0.53147 -0.11600
H 	H 	0.59693 0.08367 0.60077 0.04600
C 	C 	0.61396 0.03617 0.53307 -0.00300
H 	H 	0.63973 0.04607 0.60077 0.04500
C 	C 	0.60014 0.99867 0.43257 -0.06000
C 	C 	0.56333 0.98620 0.33317 0.03300
H 	H 	0.55423 0.96067 0.26487 0.00000
C 	C 	0.62802 0.97526 0.42797 0.16800
C 	C 	0.60494 0.92540 0.39467 -0.06000
C 	C 	0.56142 0.89464 0.45047 0.00400
H 	H 	0.54393 0.90497 0.50727 0.01700
C 	C 	0.54413 0.84828 0.42067 -0.10300
H 	H 	0.51463 0.82627 0.45807 0.05100
C 	C 	0.57028 0.83487 0.33647 0.04300
H 	H 	0.55783 0.80327 0.31497 -0.01800
C 	C 	0.62946 0.90862 0.31307 0.04000
H 	H 	0.65943 0.92967 0.27747 0.01500
Ag	Ag	0.67814 0.82560 0.50460 0.48000
O 	O 	0.66966 0.00545 0.78520 -0.21300
N 	N 	0.65813 0.86455 0.66210 -0.19300
N 	N 	0.80247 0.08177 0.61630 -0.20100
C 	C 	0.62256 0.84183 0.76100 0.03800
H 	H 	0.60670 0.80940 0.75980 -0.01400
C 	C 	0.60809 0.86385 0.86480 -0.11600
H 	H 	0.58300 0.84660 0.93410 0.04600
C 	C 	0.63050 0.91113 0.86640 -0.00300
H 	H 	0.62060 0.92700 0.93410 0.04500
C 	C 	0.66800 0.93481 0.76590 -0.06000
C 	C 	0.68047 0.91047 0.66650 0.03300
H 	H 	0.70600 0.92690 0.59820 0.00000
C 	C 	0.69141 0.98610 0.76130 0.16800
C 	C 	0.74127 0.01288 0.72800 -0.06000
C 	C 	0.77203 0.00012 0.78380 0.00400
H 	H 	0.76170 0.97230 0.84060 0.01700
C 	C 	0.81839 0.02919 0.75400 -0.10300
H 	H 	0.84040 0.02170 0.79140 0.05100
C 	C 	0.83180 0.06875 0.66980 0.04300
H 	H 	0.86340 0.08790 0.64830 -0.01800
C 	C 	0.75805 0.05418 0.64640 0.04000
H 	H 	0.73700 0.06310 0.61080 0.01500
Ag	Ag	0.34481 0.15893 0.83793 0.48000
O 	O 	0.33633 0.33878 0.11853 -0.21300
N 	N 	0.32480 0.19788 0.99543 -0.19300
N 	N 	0.46914 0.41510 0.94963 -0.20100
C 	C 	0.28923 0.17516 0.09433 0.03800
H 	H 	0.27337 0.14273 0.09313 -0.01400
C 	C 	0.27476 0.19718 0.19813 -0.11600
H 	H 	0.24967 0.17993 0.26743 0.04600
C 	C 	0.29717 0.24446 0.19973 -0.00300
H 	H 	0.28727 0.26033 0.26743 0.04500
C 	C 	0.33467 0.26814 0.09923 -0.06000
C 	C 	0.34714 0.24380 0.99983 0.03300
H 	H 	0.37267 0.26023 0.93153 0.00100
C 	C 	0.35808 0.31943 0.09463 0.16800
C 	C 	0.40794 0.34621 0.06133 -0.06000
C 	C 	0.43870 0.33345 0.11713 0.00400
H 	H 	0.42837 0.30563 0.17393 0.01700
C 	C 	0.48506 0.36252 0.08733 -0.10300
H 	H 	0.50707 0.35503 0.12473 0.05100
C 	C 	0.49847 0.40208 0.00313 0.04300
H 	H 	0.53007 0.42123 0.98163 -0.01800
C 	C 	0.42472 0.38751 0.97973 0.04000
H 	H 	0.40367 0.39643 0.94413 0.01500
Ag	Ag	0.01148 0.49226 0.17127 0.48000
O 	O 	0.00299 0.67212 0.45187 -0.21300
N 	N 	0.99146 0.53122 0.32877 -0.19300
N 	N 	0.13580 0.74844 0.28297 -0.20100
C 	C 	0.95589 0.50850 0.42767 0.03800
H 	H 	0.94003 0.47607 0.42647 -0.01400
C 	C 	0.94142 0.53052 0.53147 -0.11600
H 	H 	0.91633 0.51327 0.60077 0.04600
C 	C 	0.96383 0.57780 0.53307 -0.00300
H 	H 	0.95393 0.59367 0.60077 0.04500
C 	C 	0.00133 0.60148 0.43257 -0.06000
C 	C 	0.01380 0.57714 0.33317 0.03300
H 	H 	0.03933 0.59357 0.26487 0.00100
C 	C 	0.02474 0.65277 0.42797 0.16800
C 	C 	0.07460 0.67955 0.39467 -0.06000
C 	C 	0.10536 0.66679 0.45047 0.00400
H 	H 	0.09503 0.63897 0.50727 0.01700
C 	C 	0.15172 0.69586 0.42067 -0.10300
H 	H 	0.17373 0.68837 0.45807 0.05100
C 	C 	0.16513 0.73542 0.33647 0.04300
H 	H 	0.19673 0.75457 0.31497 -0.01800
C 	C 	0.09138 0.72085 0.31307 0.04000
H 	H 	0.07033 0.72977 0.27747 0.01500
Ag	Ag	0.17440 0.85255 0.50460 0.48000
O 	O 	0.99455 0.66421 0.78520 -0.21300
N 	N 	0.13545 0.79358 0.66210 -0.19300
N 	N 	0.91823 0.72070 0.61630 -0.20100
C 	C 	0.15817 0.78073 0.76100 0.03800
H 	H 	0.19060 0.79730 0.75980 -0.01400
C 	C 	0.13615 0.74424 0.86480 -0.11600
H 	H 	0.15340 0.73640 0.93410 0.04600
C 	C 	0.08887 0.71937 0.86640 -0.00300
H 	H 	0.07300 0.69360 0.93410 0.04500
C 	C 	0.06519 0.73319 0.76590 -0.06000
C 	C 	0.08953 0.77000 0.66650 0.03300
H 	H 	0.07310 0.77910 0.59820 0.00000
C 	C 	0.01390 0.70531 0.76130 0.16700
C 	C 	0.98712 0.72839 0.72800 -0.06000
C 	C 	0.99988 0.77191 0.78380 0.00400
H 	H 	0.02770 0.78940 0.84060 0.01700
C 	C 	0.97081 0.78920 0.75400 -0.10300
H 	H 	0.97830 0.81870 0.79140 0.05100
C 	C 	0.93125 0.76305 0.66980 0.04300
H 	H 	0.91210 0.77550 0.64830 -0.01800
C 	C 	0.94582 0.70387 0.64640 0.04000
H 	H 	0.93690 0.67390 0.61080 0.01500
Ag	Ag	0.84107 0.18588 0.83793 0.48000
O 	O 	0.66122 0.99754 0.11853 -0.21300
N 	N 	0.80212 0.12691 0.99543 -0.19300
N 	N 	0.58490 0.05403 0.94963 -0.20100
C 	C 	0.82484 0.11406 0.09433 0.03800
H 	H 	0.85727 0.13063 0.09313 -0.01400
C 	C 	0.80282 0.07757 0.19813 -0.11600
H 	H 	0.82007 0.06973 0.26743 0.04600
C 	C 	0.75554 0.05270 0.19973 -0.00300
H 	H 	0.73967 0.02693 0.26743 0.04500
C 	C 	0.73186 0.06652 0.09923 -0.06000
C 	C 	0.75620 0.10333 0.99983 0.03300
H 	H 	0.73977 0.11243 0.93153 0.00100
C 	C 	0.68057 0.03864 0.09463 0.16800
C 	C 	0.65379 0.06172 0.06133 -0.06000
C 	C 	0.66655 0.10524 0.11713 0.00400
H 	H 	0.69437 0.12273 0.17393 0.01700
C 	C 	0.63748 0.12253 0.08733 -0.10300
H 	H 	0.64497 0.15203 0.12473 0.05100
C 	C 	0.59792 0.09638 0.00313 0.04300
H 	H 	0.57877 0.10883 0.98163 -0.01800
C 	C 	0.61249 0.03720 0.97973 0.04000
H 	H 	0.60357 0.00723 0.94413 0.01500
Ag	Ag	0.50774 0.51921 0.17127 0.48000
O 	O 	0.32788 0.33088 0.45187 -0.21300
N 	N 	0.46878 0.46025 0.32877 -0.19300
N 	N 	0.25156 0.38737 0.28297 -0.20100
C 	C 	0.49150 0.44740 0.42767 0.03800
H 	H 	0.52393 0.46397 0.42647 -0.01400
C 	C 	0.46948 0.41091 0.53147 -0.11600
H 	H 	0.48673 0.40307 0.60077 0.04600
C 	C 	0.42220 0.38604 0.53307 -0.00300
H 	H 	0.40633 0.36027 0.60077 0.04500
C 	C 	0.39852 0.39986 0.43257 -0.06000
C 	C 	0.42286 0.43667 0.33317 0.03300
H 	H 	0.40643 0.44577 0.26487 0.00100
C 	C 	0.34723 0.37198 0.42797 0.16800
C 	C 	0.32045 0.39506 0.39467 -0.06000
C 	C 	0.33321 0.43858 0.45047 0.00400
H 	H 	0.36103 0.45607 0.50727 0.01700
C 	C 	0.30414 0.45587 0.42067 -0.10300
H 	H 	0.31163 0.48537 0.45807 0.05100
C 	C 	0.26458 0.42972 0.33647 0.04300
H 	H 	0.24543 0.44217 0.31497 -0.01800
C 	C 	0.27915 0.37054 0.31307 0.04000
H 	H 	0.27023 0.34057 0.27747 0.01500
Ag	Ag	0.85255 0.67814 0.49540 0.48000
O 	O 	0.66421 0.66966 0.21480 -0.21300
N 	N 	0.79358 0.65813 0.33790 -0.19300
N 	N 	0.72070 0.80247 0.38370 -0.20100
C 	C 	0.78073 0.62256 0.23900 0.03800
H 	H 	0.79730 0.60670 0.24020 -0.01400
C 	C 	0.74424 0.60809 0.13520 -0.11600
H 	H 	0.73640 0.58300 0.06590 0.04600
C 	C 	0.71937 0.63050 0.13360 -0.00300
H 	H 	0.69360 0.62060 0.06590 0.04500
C 	C 	0.73319 0.66800 0.23410 -0.06000
C 	C 	0.77000 0.68047 0.33350 0.03300
H 	H 	0.77910 0.70600 0.40180 0.00000
C 	C 	0.70531 0.69141 0.23870 0.16800
C 	C 	0.72839 0.74127 0.27200 -0.06000
C 	C 	0.77191 0.77203 0.21620 0.00400
H 	H 	0.78940 0.76170 0.15940 0.01700
C 	C 	0.78920 0.81839 0.24600 -0.10300
H 	H 	0.81870 0.84040 0.20860 0.05100
C 	C 	0.76305 0.83180 0.33020 0.04300
H 	H 	0.77550 0.86340 0.35170 -0.01800
C 	C 	0.70387 0.75805 0.35360 0.04000
H 	H 	0.67390 0.73700 0.38920 0.01500
Ag	Ag	0.51921 0.01148 0.82873 0.48000
O 	O 	0.33088 0.00299 0.54813 -0.21300
N 	N 	0.46025 0.99146 0.67123 -0.19300
N 	N 	0.38737 0.13580 0.71703 -0.20100
C 	C 	0.44740 0.95589 0.57233 0.03800
H 	H 	0.46397 0.94003 0.57353 -0.01400
C 	C 	0.41091 0.94142 0.46853 -0.11600
H 	H 	0.40307 0.91633 0.39923 0.04600
C 	C 	0.38604 0.96383 0.46693 -0.00300
H 	H 	0.36027 0.95393 0.39923 0.04500
C 	C 	0.39986 0.00133 0.56743 -0.06000
C 	C 	0.43667 0.01380 0.66683 0.03300
H 	H 	0.44577 0.03933 0.73513 0.00000
C 	C 	0.37198 0.02474 0.57203 0.16800
C 	C 	0.39506 0.07460 0.60533 -0.06000
C 	C 	0.43858 0.10536 0.54953 0.00400
H 	H 	0.45607 0.09503 0.49273 0.01700
C 	C 	0.45587 0.15172 0.57933 -0.10300
H 	H 	0.48537 0.17373 0.54193 0.05100
C 	C 	0.42972 0.16513 0.66353 0.04300
H 	H 	0.44217 0.19673 0.68503 -0.01800
C 	C 	0.37054 0.09138 0.68693 0.04000
H 	H 	0.34057 0.07033 0.72253 0.01500
Ag	Ag	0.18588 0.34481 0.16207 0.48000
O 	O 	0.99754 0.33633 0.88147 -0.21300
N 	N 	0.12691 0.32480 0.00457 -0.19300
N 	N 	0.05403 0.46914 0.05037 -0.20100
C 	C 	0.11406 0.28923 0.90567 0.03800
H 	H 	0.13063 0.27337 0.90687 -0.01400
C 	C 	0.07757 0.27476 0.80187 -0.11600
H 	H 	0.06973 0.24967 0.73257 0.04600
C 	C 	0.05270 0.29717 0.80027 -0.00300
H 	H 	0.02693 0.28727 0.73257 0.04500
C 	C 	0.06652 0.33467 0.90077 -0.06000
C 	C 	0.10333 0.34714 0.00017 0.03300
H 	H 	0.11243 0.37267 0.06847 0.00100
C 	C 	0.03864 0.35808 0.90537 0.16800
C 	C 	0.06172 0.40794 0.93867 -0.06000
C 	C 	0.10524 0.43870 0.88287 0.00400
H 	H 	0.12273 0.42837 0.82607 0.01700
C 	C 	0.12253 0.48506 0.91267 -0.10300
H 	H 	0.15203 0.50707 0.87527 0.05100
C 	C 	0.09638 0.49847 0.99687 0.04300
H 	H 	0.10883 0.53007 0.01837 -0.01800
C 	C 	0.03720 0.42472 0.02027 0.04000
H 	H 	0.00723 0.40367 0.05587 0.01500
Ag	Ag	0.32186 0.17440 0.49540 0.48000
O 	O 	0.33034 0.99455 0.21480 -0.21300
N 	N 	0.34187 0.13545 0.33790 -0.19300
N 	N 	0.19753 0.91823 0.38370 -0.20100
C 	C 	0.37744 0.15817 0.23900 0.03800
H 	H 	0.39330 0.19060 0.24020 -0.01400
C 	C 	0.39191 0.13615 0.13520 -0.11600
H 	H 	0.41700 0.15340 0.06590 0.04600
C 	C 	0.36950 0.08887 0.13360 -0.00300
H 	H 	0.37940 0.07300 0.06590 0.04500
C 	C 	0.33200 0.06519 0.23410 -0.06000
C 	C 	0.31953 0.08953 0.33350 0.03300
H 	H 	0.29400 0.07310 0.40180 0.00000
C 	C 	0.30859 0.01390 0.23870 0.16800
C 	C 	0.25873 0.98712 0.27200 -0.06000
C 	C 	0.22797 0.99988 0.21620 0.00400
H 	H 	0.23830 0.02770 0.15940 0.01700
C 	C 	0.18161 0.97081 0.24600 -0.10300
H 	H 	0.15960 0.97830 0.20860 0.05100
C 	C 	0.16820 0.93125 0.33020 0.04300
H 	H 	0.13660 0.91210 0.35170 -0.01800
C 	C 	0.24195 0.94582 0.35360 0.04000
H 	H 	0.26300 0.93690 0.38920 0.01500
Ag	Ag	0.98852 0.50774 0.82873 0.48000
O 	O 	0.99701 0.32788 0.54813 -0.21300
N 	N 	0.00854 0.46878 0.67123 -0.19300
N 	N 	0.86420 0.25156 0.71703 -0.20100
C 	C 	0.04411 0.49150 0.57233 0.03800
H 	H 	0.05997 0.52393 0.57353 -0.01400
C 	C 	0.05858 0.46948 0.46853 -0.11600
H 	H 	0.08367 0.48673 0.39923 0.04600
C 	C 	0.03617 0.42220 0.46693 -0.00300
H 	H 	0.04607 0.40633 0.39923 0.04500
C 	C 	0.99867 0.39852 0.56743 -0.06000
C 	C 	0.98620 0.42286 0.66683 0.03300
H 	H 	0.96067 0.40643 0.73513 0.00100
C 	C 	0.97526 0.34723 0.57203 0.16800
C 	C 	0.92540 0.32045 0.60533 -0.06000
C 	C 	0.89464 0.33321 0.54953 0.00400
H 	H 	0.90497 0.36103 0.49273 0.01700
C 	C 	0.84828 0.30414 0.57933 -0.10300
H 	H 	0.82627 0.31163 0.54193 0.05100
C 	C 	0.83487 0.26458 0.66353 0.04300
H 	H 	0.80327 0.24543 0.68503 -0.01800
C 	C 	0.90862 0.27915 0.68693 0.04000
H 	H 	0.92967 0.27023 0.72253 0.01500
Ag	Ag	0.65519 0.84107 0.16207 0.48000
O 	O 	0.66367 0.66122 0.88147 -0.21300
N 	N 	0.67520 0.80212 0.00457 -0.19300
N 	N 	0.53086 0.58490 0.05037 -0.20100
C 	C 	0.71077 0.82484 0.90567 0.03800
H 	H 	0.72663 0.85727 0.90687 -0.01400
C 	C 	0.72524 0.80282 0.80187 -0.11600
H 	H 	0.75033 0.82007 0.73257 0.04600
C 	C 	0.70283 0.75554 0.80027 -0.00300
H 	H 	0.71273 0.73967 0.73257 0.04500
C 	C 	0.66533 0.73186 0.90077 -0.06000
C 	C 	0.65286 0.75620 0.00017 0.03300
H 	H 	0.62733 0.73977 0.06847 0.00100
C 	C 	0.64192 0.68057 0.90537 0.16800
C 	C 	0.59206 0.65379 0.93867 -0.06000
C 	C 	0.56130 0.66655 0.88287 0.00400
H 	H 	0.57163 0.69437 0.82607 0.01700
C 	C 	0.51494 0.63748 0.91267 -0.10300
H 	H 	0.49293 0.64497 0.87527 0.05100
C 	C 	0.50153 0.59792 0.99687 0.04300
H 	H 	0.46993 0.57877 0.01837 -0.01800
C 	C 	0.57528 0.61249 0.02027 0.04000
H 	H 	0.59633 0.60357 0.05587 0.01500
Ag	Ag	0.82560 0.14745 0.49540 0.48000
O 	O 	0.00545 0.33579 0.21480 -0.21300
N 	N 	0.86455 0.20642 0.33790 -0.19300
N 	N 	0.08177 0.27930 0.38370 -0.20100
C 	C 	0.84183 0.21927 0.23900 0.03800
H 	H 	0.80940 0.20270 0.24020 -0.01400
C 	C 	0.86385 0.25576 0.13520 -0.11600
H 	H 	0.84660 0.26360 0.06590 0.04600
C 	C 	0.91113 0.28063 0.13360 -0.00300
H 	H 	0.92700 0.30640 0.06590 0.04500
C 	C 	0.93481 0.26681 0.23410 -0.06000
C 	C 	0.91047 0.23000 0.33350 0.03300
H 	H 	0.92690 0.22090 0.40180 0.00000
C 	C 	0.98610 0.29469 0.23870 0.16700
C 	C 	0.01288 0.27161 0.27200 -0.06000
C 	C 	0.00012 0.22809 0.21620 0.00400
H 	H 	0.97230 0.21060 0.15940 0.01700
C 	C 	0.02919 0.21080 0.24600 -0.10300
H 	H 	0.02170 0.18130 0.20860 0.05100
C 	C 	0.06875 0.23695 0.33020 0.04300
H 	H 	0.08790 0.22450 0.35170 -0.01800
C 	C 	0.05418 0.29613 0.35360 0.04000
H 	H 	0.06310 0.32610 0.38920 0.01500
Ag	Ag	0.49226 0.48079 0.82873 0.48000
O 	O 	0.67212 0.66912 0.54813 -0.21300
N 	N 	0.53122 0.53975 0.67123 -0.19300
N 	N 	0.74844 0.61263 0.71703 -0.20100
C 	C 	0.50850 0.55260 0.57233 0.03800
H 	H 	0.47607 0.53603 0.57353 -0.01400
C 	C 	0.53052 0.58909 0.46853 -0.11600
H 	H 	0.51327 0.59693 0.39923 0.04600
C 	C 	0.57780 0.61396 0.46693 -0.00300
H 	H 	0.59367 0.63973 0.39923 0.04500
C 	C 	0.60148 0.60014 0.56743 -0.06000
C 	C 	0.57714 0.56333 0.66683 0.03300
H 	H 	0.59357 0.55423 0.73513 0.00100
C 	C 	0.65277 0.62802 0.57203 0.16800
C 	C 	0.67955 0.60494 0.60533 -0.06000
C 	C 	0.66679 0.56142 0.54953 0.00400
H 	H 	0.63897 0.54393 0.49273 0.01700
C 	C 	0.69586 0.54413 0.57933 -0.10300
H 	H 	0.68837 0.51463 0.54193 0.05100
C 	C 	0.73542 0.57028 0.66353 0.04300
H 	H 	0.75457 0.55783 0.68503 -0.01800
C 	C 	0.72085 0.62946 0.68693 0.04000
H 	H 	0.72977 0.65943 0.72253 0.01500
Ag	Ag	0.15893 0.81412 0.16207 0.48000
O 	O 	0.33878 0.00246 0.88147 -0.21300
N 	N 	0.19788 0.87309 0.00457 -0.19300
N 	N 	0.41510 0.94597 0.05037 -0.20100
C 	C 	0.17516 0.88594 0.90567 0.03800
H 	H 	0.14273 0.86937 0.90687 -0.01400
C 	C 	0.19718 0.92243 0.80187 -0.11600
H 	H 	0.17993 0.93027 0.73257 0.04600
C 	C 	0.24446 0.94730 0.80027 -0.00300
H 	H 	0.26033 0.97307 0.73257 0.04500
C 	C 	0.26814 0.93348 0.90077 -0.06000
C 	C 	0.24380 0.89667 0.00017 0.03300
H 	H 	0.26023 0.88757 0.06847 0.00100
C 	C 	0.31943 0.96136 0.90537 0.16800
C 	C 	0.34621 0.93828 0.93867 -0.06000
C 	C 	0.33345 0.89476 0.88287 0.00400
H 	H 	0.30563 0.87727 0.82607 0.01700
C 	C 	0.36252 0.87747 0.91267 -0.10300
H 	H 	0.35503 0.84797 0.87527 0.05100
C 	C 	0.40208 0.90362 0.99687 0.04300
H 	H 	0.42123 0.89117 0.01837 -0.01800
C 	C 	0.38751 0.96280 0.02027 0.04000
H 	H 	0.39643 0.99277 0.05587 0.01500
