data_crystal

_cell_length_a 34.67110
_cell_length_b 34.67110
_cell_length_c 8.42730
_cell_angle_alpha 90.00000
_cell_angle_beta  90.00000
_cell_angle_gamma 120.00000

_symmetry_space_group_name_	'P 1'
_symmetry_space_group_name_H-M	'P 1'

loop_
_symmetry_equiv_pos_as_xyz
  x,y,z

loop_
_atom_site_label
_atom_site_type_symbol
_atom_site_fract_x
_atom_site_fract_y
_atom_site_fract_z
_atom_site_charge
Ag	Ag	0.14648 0.31740 0.50825 0.48000
O 	O 	0.33431 0.32790 0.75380 -0.21100
N 	N 	0.20503 0.33641 0.65900 -0.19300
N 	N 	0.27698 0.19613 0.60700 -0.19800
C 	C 	0.21861 0.37150 0.75730 0.03500
H 	H 	0.20180 0.38630 0.76190 -0.01500
C 	C 	0.25614 0.38686 0.85200 -0.11300
H 	H 	0.26470 0.41160 0.92020 0.04700
C 	C 	0.28093 0.36583 0.84620 0.00100
H 	H 	0.30720 0.37630 0.90830 0.04700
C 	C 	0.26676 0.32891 0.74760 -0.05800
C 	C 	0.22857 0.31526 0.65580 0.03200
H 	H 	0.21890 0.29010 0.58850 0.00100
C 	C 	0.29405 0.30658 0.73770 0.16900
C 	C 	0.27114 0.25732 0.71240 -0.06000
C 	C 	0.23044 0.22813 0.78130 0.00600
H 	H 	0.21440 0.23900 0.83970 0.01900
C 	C 	0.21370 0.18281 0.76290 -0.10200
H 	H 	0.18610 0.16200 0.81010 0.05100
C 	C 	0.23748 0.16826 0.67530 0.04200
H 	H 	0.22550 0.13710 0.66230 -0.01600
C 	C 	0.29334 0.23987 0.62690 0.03900
H 	H 	0.32130 0.25990 0.58070 0.01700
Ag	Ag	0.68260 0.82907 0.50825 0.48000
O 	O 	0.67210 0.00641 0.75380 -0.21100
N 	N 	0.66359 0.86862 0.65900 -0.19300
N 	N 	0.80387 0.08085 0.60700 -0.19800
C 	C 	0.62850 0.84711 0.75730 0.03500
H 	H 	0.61370 0.81550 0.76190 -0.01500
C 	C 	0.61314 0.86928 0.85200 -0.11300
H 	H 	0.58840 0.85310 0.92020 0.04700
C 	C 	0.63417 0.91510 0.84620 0.00100
H 	H 	0.62370 0.93090 0.90830 0.04700
C 	C 	0.67109 0.93785 0.74760 -0.05800
C 	C 	0.68474 0.91331 0.65580 0.03100
H 	H 	0.70990 0.92880 0.58850 -0.00000
C 	C 	0.69342 0.98747 0.73770 0.16800
C 	C 	0.74268 0.01382 0.71240 -0.06100
C 	C 	0.77187 0.00231 0.78130 0.00500
H 	H 	0.76100 0.97540 0.83970 0.01800
C 	C 	0.81719 0.03089 0.76290 -0.10300
H 	H 	0.83800 0.02410 0.81010 0.05000
C 	C 	0.83174 0.06922 0.67530 0.04100
H 	H 	0.86290 0.08840 0.66230 -0.01700
C 	C 	0.76013 0.05347 0.62690 0.03800
H 	H 	0.74010 0.06140 0.58070 0.01600
Ag	Ag	0.17093 0.85352 0.50825 0.47900
O 	O 	0.99359 0.66569 0.75380 -0.21200
N 	N 	0.13138 0.79497 0.65900 -0.19400
N 	N 	0.91915 0.72302 0.60700 -0.19900
C 	C 	0.15289 0.78139 0.75730 0.03400
H 	H 	0.18450 0.79820 0.76190 -0.01600
C 	C 	0.13072 0.74386 0.85200 -0.11400
H 	H 	0.14690 0.73530 0.92020 0.04600
C 	C 	0.08490 0.71907 0.84620 0.00000
H 	H 	0.06910 0.69280 0.90830 0.04600
C 	C 	0.06215 0.73324 0.74760 -0.05900
C 	C 	0.08669 0.77143 0.65580 0.03100
H 	H 	0.07120 0.78110 0.58850 -0.00000
C 	C 	0.01253 0.70595 0.73770 0.16700
C 	C 	0.98618 0.72886 0.71240 -0.06000
C 	C 	0.99769 0.76956 0.78130 0.00500
H 	H 	0.02460 0.78560 0.83970 0.01800
C 	C 	0.96911 0.78630 0.76290 -0.10300
H 	H 	0.97590 0.81390 0.81010 0.05000
C 	C 	0.93078 0.76252 0.67530 0.04100
H 	H 	0.91160 0.77450 0.66230 -0.01700
C 	C 	0.94653 0.70666 0.62690 0.03800
H 	H 	0.93860 0.67870 0.58070 0.01600
Ag	Ag	0.85352 0.68260 0.49175 0.47900
O 	O 	0.66569 0.67210 0.24620 -0.21200
N 	N 	0.79497 0.66359 0.34100 -0.19400
N 	N 	0.72302 0.80387 0.39300 -0.19900
C 	C 	0.78139 0.62850 0.24270 0.03400
H 	H 	0.79820 0.61370 0.23810 -0.01600
C 	C 	0.74386 0.61314 0.14800 -0.11400
H 	H 	0.73530 0.58840 0.07980 0.04600
C 	C 	0.71907 0.63417 0.15380 0.00000
H 	H 	0.69280 0.62370 0.09170 0.04600
C 	C 	0.73324 0.67109 0.25240 -0.05900
C 	C 	0.77143 0.68474 0.34420 0.03100
H 	H 	0.78110 0.70990 0.41150 -0.00000
C 	C 	0.70595 0.69342 0.26230 0.16800
C 	C 	0.72886 0.74268 0.28760 -0.06100
C 	C 	0.76956 0.77187 0.21870 0.00500
H 	H 	0.78560 0.76100 0.16030 0.01800
C 	C 	0.78630 0.81719 0.23710 -0.10300
H 	H 	0.81390 0.83800 0.18990 0.05000
C 	C 	0.76252 0.83174 0.32470 0.04100
H 	H 	0.77450 0.86290 0.33770 -0.01700
C 	C 	0.70666 0.76013 0.37310 0.03800
H 	H 	0.67870 0.74010 0.41930 0.01600
Ag	Ag	0.31740 0.17093 0.49175 0.47900
O 	O 	0.32790 0.99359 0.24620 -0.21200
N 	N 	0.33641 0.13138 0.34100 -0.19400
N 	N 	0.19613 0.91915 0.39300 -0.19900
C 	C 	0.37150 0.15289 0.24270 0.03400
H 	H 	0.38630 0.18450 0.23810 -0.01600
C 	C 	0.38686 0.13072 0.14800 -0.11400
H 	H 	0.41160 0.14690 0.07980 0.04600
C 	C 	0.36583 0.08490 0.15380 0.00000
H 	H 	0.37630 0.06910 0.09170 0.04600
C 	C 	0.32891 0.06215 0.25240 -0.05900
C 	C 	0.31526 0.08669 0.34420 0.03100
H 	H 	0.29010 0.07120 0.41150 -0.00000
C 	C 	0.30658 0.01253 0.26230 0.16800
C 	C 	0.25732 0.98618 0.28760 -0.06100
C 	C 	0.22813 0.99769 0.21870 0.00500
H 	H 	0.23900 0.02460 0.16030 0.01800
C 	C 	0.18281 0.96911 0.23710 -0.10300
H 	H 	0.16200 0.97590 0.18990 0.05000
C 	C 	0.16826 0.93078 0.32470 0.04100
H 	H 	0.13710 0.91160 0.33770 -0.01700
C 	C 	0.23987 0.94653 0.37310 0.03800
H 	H 	0.25990 0.93860 0.41930 0.01600
Ag	Ag	0.82907 0.14648 0.49175 0.47900
O 	O 	0.00641 0.33431 0.24620 -0.21200
N 	N 	0.86862 0.20503 0.34100 -0.19400
N 	N 	0.08085 0.27698 0.39300 -0.19900
C 	C 	0.84711 0.21861 0.24270 0.03400
H 	H 	0.81550 0.20180 0.23810 -0.01600
C 	C 	0.86928 0.25614 0.14800 -0.11400
H 	H 	0.85310 0.26470 0.07980 0.04600
C 	C 	0.91510 0.28093 0.15380 0.00000
H 	H 	0.93090 0.30720 0.09170 0.04600
C 	C 	0.93785 0.26676 0.25240 -0.05900
C 	C 	0.91331 0.22857 0.34420 0.03100
H 	H 	0.92880 0.21890 0.41150 -0.00000
C 	C 	0.98747 0.29405 0.26230 0.16700
C 	C 	0.01382 0.27114 0.28760 -0.06000
C 	C 	0.00231 0.23044 0.21870 0.00500
H 	H 	0.97540 0.21440 0.16030 0.01800
C 	C 	0.03089 0.21370 0.23710 -0.10300
H 	H 	0.02410 0.18610 0.18990 0.05000
C 	C 	0.06922 0.23748 0.32470 0.04100
H 	H 	0.08840 0.22550 0.33770 -0.01700
C 	C 	0.05347 0.29334 0.37310 0.03800
H 	H 	0.06140 0.32130 0.41930 0.01600
Ag	Ag	0.81314 0.65074 0.84158 0.47900
O 	O 	0.00098 0.66123 0.08713 -0.21200
N 	N 	0.87170 0.66974 0.99233 -0.19400
N 	N 	0.94365 0.52946 0.94033 -0.19900
C 	C 	0.88528 0.70483 0.09063 0.03400
H 	H 	0.86847 0.71963 0.09523 -0.01600
C 	C 	0.92281 0.72019 0.18533 -0.11400
H 	H 	0.93137 0.74493 0.25353 0.04600
C 	C 	0.94760 0.69916 0.17953 0.00000
H 	H 	0.97387 0.70963 0.24163 0.04600
C 	C 	0.93343 0.66224 0.08093 -0.05900
C 	C 	0.89524 0.64859 0.98913 0.03100
H 	H 	0.88557 0.62343 0.92183 -0.00000
C 	C 	0.96072 0.63991 0.07103 0.16800
C 	C 	0.93781 0.59065 0.04573 -0.06000
C 	C 	0.89711 0.56146 0.11463 0.00500
H 	H 	0.88107 0.57233 0.17303 0.01800
C 	C 	0.88037 0.51614 0.09623 -0.10300
H 	H 	0.85277 0.49533 0.14343 0.05100
C 	C 	0.90415 0.50159 0.00863 0.04200
H 	H 	0.89217 0.47043 0.99563 -0.01800
C 	C 	0.96001 0.57320 0.96023 0.03800
H 	H 	0.98797 0.59323 0.91403 0.01600
Ag	Ag	0.34926 0.16241 0.84158 0.47900
O 	O 	0.33877 0.33974 0.08713 -0.21200
N 	N 	0.33026 0.20195 0.99233 -0.19400
N 	N 	0.47054 0.41418 0.94033 -0.19900
C 	C 	0.29517 0.18044 0.09063 0.03400
H 	H 	0.28037 0.14883 0.09523 -0.01600
C 	C 	0.27981 0.20261 0.18533 -0.11400
H 	H 	0.25507 0.18643 0.25353 0.04600
C 	C 	0.30084 0.24843 0.17953 0.00000
H 	H 	0.29037 0.26423 0.24163 0.04600
C 	C 	0.33776 0.27118 0.08093 -0.05900
C 	C 	0.35141 0.24664 0.98913 0.03100
H 	H 	0.37657 0.26213 0.92183 -0.00000
C 	C 	0.36009 0.32080 0.07103 0.16700
C 	C 	0.40935 0.34715 0.04573 -0.06000
C 	C 	0.43854 0.33564 0.11463 0.00500
H 	H 	0.42767 0.30873 0.17303 0.01800
C 	C 	0.48386 0.36422 0.09623 -0.10300
H 	H 	0.50467 0.35743 0.14343 0.05100
C 	C 	0.49841 0.40255 0.00863 0.04200
H 	H 	0.52957 0.42173 0.99563 -0.01800
C 	C 	0.42680 0.38680 0.96023 0.03800
H 	H 	0.40677 0.39473 0.91403 0.01600
Ag	Ag	0.83759 0.18686 0.84158 0.47900
O 	O 	0.66026 0.99902 0.08713 -0.21200
N 	N 	0.79805 0.12830 0.99233 -0.19400
N 	N 	0.58582 0.05635 0.94033 -0.19900
C 	C 	0.81956 0.11472 0.09063 0.03400
H 	H 	0.85117 0.13153 0.09523 -0.01600
C 	C 	0.79739 0.07719 0.18533 -0.11400
H 	H 	0.81357 0.06863 0.25353 0.04600
C 	C 	0.75157 0.05240 0.17953 0.00000
H 	H 	0.73577 0.02613 0.24163 0.04600
C 	C 	0.72882 0.06657 0.08093 -0.05900
C 	C 	0.75336 0.10476 0.98913 0.03100
H 	H 	0.73787 0.11443 0.92183 -0.00000
C 	C 	0.67920 0.03928 0.07103 0.16700
C 	C 	0.65285 0.06219 0.04573 -0.06000
C 	C 	0.66436 0.10289 0.11463 0.00500
H 	H 	0.69127 0.11893 0.17303 0.01800
C 	C 	0.63578 0.11963 0.09623 -0.10300
H 	H 	0.64257 0.14723 0.14343 0.05100
C 	C 	0.59745 0.09585 0.00863 0.04200
H 	H 	0.57827 0.10783 0.99563 -0.01800
C 	C 	0.61320 0.03999 0.96023 0.03800
H 	H 	0.60527 0.01203 0.91403 0.01600
Ag	Ag	0.52019 0.01593 0.82508 0.47900
O 	O 	0.33236 0.00543 0.57953 -0.21200
N 	N 	0.46164 0.99692 0.67433 -0.19400
N 	N 	0.38969 0.13720 0.72633 -0.19900
C 	C 	0.44806 0.96183 0.57603 0.03400
H 	H 	0.46487 0.94703 0.57143 -0.01600
C 	C 	0.41053 0.94647 0.48133 -0.11400
H 	H 	0.40197 0.92173 0.41313 0.04600
C 	C 	0.38574 0.96750 0.48713 0.00000
H 	H 	0.35947 0.95703 0.42503 0.04600
C 	C 	0.39991 0.00442 0.58573 -0.05900
C 	C 	0.43810 0.01807 0.67753 0.03100
H 	H 	0.44777 0.04323 0.74483 -0.00000
C 	C 	0.37262 0.02675 0.59563 0.16800
C 	C 	0.39553 0.07601 0.62093 -0.06100
C 	C 	0.43623 0.10520 0.55203 0.00500
H 	H 	0.45227 0.09433 0.49363 0.01800
C 	C 	0.45297 0.15052 0.57043 -0.10300
H 	H 	0.48057 0.17133 0.52323 0.05100
C 	C 	0.42919 0.16507 0.65803 0.04200
H 	H 	0.44117 0.19623 0.67103 -0.01700
C 	C 	0.37333 0.09346 0.70643 0.03800
H 	H 	0.34537 0.07343 0.75263 0.01600
Ag	Ag	0.98407 0.50426 0.82508 0.47900
O 	O 	0.99457 0.32692 0.57953 -0.21200
N 	N 	0.00308 0.46471 0.67433 -0.19400
N 	N 	0.86280 0.25248 0.72633 -0.19900
C 	C 	0.03817 0.48622 0.57603 0.03400
H 	H 	0.05297 0.51783 0.57143 -0.01600
C 	C 	0.05353 0.46405 0.48133 -0.11400
H 	H 	0.07827 0.48023 0.41313 0.04600
C 	C 	0.03250 0.41823 0.48713 0.00000
H 	H 	0.04297 0.40243 0.42503 0.04600
C 	C 	0.99558 0.39548 0.58573 -0.05900
C 	C 	0.98193 0.42002 0.67753 0.03100
H 	H 	0.95677 0.40453 0.74483 -0.00000
C 	C 	0.97325 0.34586 0.59563 0.16800
C 	C 	0.92399 0.31951 0.62093 -0.06100
C 	C 	0.89480 0.33102 0.55203 0.00500
H 	H 	0.90567 0.35793 0.49363 0.01800
C 	C 	0.84948 0.30244 0.57043 -0.10300
H 	H 	0.82867 0.30923 0.52323 0.05100
C 	C 	0.83493 0.26411 0.65803 0.04200
H 	H 	0.80377 0.24493 0.67103 -0.01700
C 	C 	0.90654 0.27986 0.70643 0.03800
H 	H 	0.92657 0.27193 0.75263 0.01600
Ag	Ag	0.49574 0.47981 0.82508 0.47900
O 	O 	0.67308 0.66764 0.57953 -0.21200
N 	N 	0.53529 0.53836 0.67433 -0.19400
N 	N 	0.74752 0.61031 0.72633 -0.19900
C 	C 	0.51378 0.55194 0.57603 0.03400
H 	H 	0.48217 0.53513 0.57143 -0.01600
C 	C 	0.53595 0.58947 0.48133 -0.11400
H 	H 	0.51977 0.59803 0.41313 0.04600
C 	C 	0.58177 0.61426 0.48713 0.00000
H 	H 	0.59757 0.64053 0.42503 0.04600
C 	C 	0.60452 0.60009 0.58573 -0.05900
C 	C 	0.57998 0.56190 0.67753 0.03100
H 	H 	0.59547 0.55223 0.74483 -0.00000
C 	C 	0.65414 0.62738 0.59563 0.16800
C 	C 	0.68049 0.60447 0.62093 -0.06100
C 	C 	0.66898 0.56377 0.55203 0.00500
H 	H 	0.64207 0.54773 0.49363 0.01800
C 	C 	0.69756 0.54703 0.57043 -0.10300
H 	H 	0.69077 0.51943 0.52323 0.05100
C 	C 	0.73589 0.57081 0.65803 0.04200
H 	H 	0.75507 0.55883 0.67103 -0.01700
C 	C 	0.72014 0.62667 0.70643 0.03800
H 	H 	0.72807 0.65463 0.75263 0.01600
Ag	Ag	0.47981 0.98407 0.17492 0.47900
O 	O 	0.66764 0.99457 0.42047 -0.21200
N 	N 	0.53836 0.00308 0.32567 -0.19400
N 	N 	0.61031 0.86280 0.27367 -0.19900
C 	C 	0.55194 0.03817 0.42397 0.03400
H 	H 	0.53513 0.05297 0.42857 -0.01600
C 	C 	0.58947 0.05353 0.51867 -0.11400
H 	H 	0.59803 0.07827 0.58687 0.04600
C 	C 	0.61426 0.03250 0.51287 0.00000
H 	H 	0.64053 0.04297 0.57497 0.04600
C 	C 	0.60009 0.99558 0.41427 -0.05900
C 	C 	0.56190 0.98193 0.32247 0.03100
H 	H 	0.55223 0.95677 0.25517 -0.00000
C 	C 	0.62738 0.97325 0.40437 0.16800
C 	C 	0.60447 0.92399 0.37907 -0.06100
C 	C 	0.56377 0.89480 0.44797 0.00500
H 	H 	0.54773 0.90567 0.50637 0.01800
C 	C 	0.54703 0.84948 0.42957 -0.10300
H 	H 	0.51943 0.82867 0.47677 0.05100
C 	C 	0.57081 0.83493 0.34197 0.04200
H 	H 	0.55883 0.80377 0.32897 -0.01700
C 	C 	0.62667 0.90654 0.29357 0.03800
H 	H 	0.65463 0.92657 0.24737 0.01600
Ag	Ag	0.01593 0.49574 0.17492 0.47900
O 	O 	0.00543 0.67308 0.42047 -0.21200
N 	N 	0.99692 0.53529 0.32567 -0.19400
N 	N 	0.13720 0.74752 0.27367 -0.19900
C 	C 	0.96183 0.51378 0.42397 0.03400
H 	H 	0.94703 0.48217 0.42857 -0.01600
C 	C 	0.94647 0.53595 0.51867 -0.11400
H 	H 	0.92173 0.51977 0.58687 0.04600
C 	C 	0.96750 0.58177 0.51287 0.00000
H 	H 	0.95703 0.59757 0.57497 0.04600
C 	C 	0.00442 0.60452 0.41427 -0.05900
C 	C 	0.01807 0.57998 0.32247 0.03100
H 	H 	0.04323 0.59547 0.25517 -0.00000
C 	C 	0.02675 0.65414 0.40437 0.16800
C 	C 	0.07601 0.68049 0.37907 -0.06100
C 	C 	0.10520 0.66898 0.44797 0.00500
H 	H 	0.09433 0.64207 0.50637 0.01800
C 	C 	0.15052 0.69756 0.42957 -0.10300
H 	H 	0.17133 0.69077 0.47677 0.05100
C 	C 	0.16507 0.73589 0.34197 0.04200
H 	H 	0.19623 0.75507 0.32897 -0.01700
C 	C 	0.09346 0.72014 0.29357 0.03800
H 	H 	0.07343 0.72807 0.24737 0.01600
Ag	Ag	0.50426 0.52019 0.17492 0.47900
O 	O 	0.32692 0.33236 0.42047 -0.21200
N 	N 	0.46471 0.46164 0.32567 -0.19400
N 	N 	0.25248 0.38969 0.27367 -0.19900
C 	C 	0.48622 0.44806 0.42397 0.03400
H 	H 	0.51783 0.46487 0.42857 -0.01600
C 	C 	0.46405 0.41053 0.51867 -0.11400
H 	H 	0.48023 0.40197 0.58687 0.04600
C 	C 	0.41823 0.38574 0.51287 0.00000
H 	H 	0.40243 0.35947 0.57497 0.04600
C 	C 	0.39548 0.39991 0.41427 -0.05900
C 	C 	0.42002 0.43810 0.32247 0.03100
H 	H 	0.40453 0.44777 0.25517 -0.00000
C 	C 	0.34586 0.37262 0.40437 0.16800
C 	C 	0.31951 0.39553 0.37907 -0.06100
C 	C 	0.33102 0.43623 0.44797 0.00500
H 	H 	0.35793 0.45227 0.50637 0.01800
C 	C 	0.30244 0.45297 0.42957 -0.10300
H 	H 	0.30923 0.48057 0.47677 0.05100
C 	C 	0.26411 0.42919 0.34197 0.04200
H 	H 	0.24493 0.44117 0.32897 -0.01700
C 	C 	0.27986 0.37333 0.29357 0.03800
H 	H 	0.27193 0.34537 0.24737 0.01600
Ag	Ag	0.18686 0.34926 0.15842 0.47900
O 	O 	0.99902 0.33877 0.91287 -0.21200
N 	N 	0.12830 0.33026 0.00767 -0.19400
N 	N 	0.05635 0.47054 0.05967 -0.19900
C 	C 	0.11472 0.29517 0.90937 0.03400
H 	H 	0.13153 0.28037 0.90477 -0.01600
C 	C 	0.07719 0.27981 0.81467 -0.11400
H 	H 	0.06863 0.25507 0.74647 0.04600
C 	C 	0.05240 0.30084 0.82047 0.00000
H 	H 	0.02613 0.29037 0.75837 0.04600
C 	C 	0.06657 0.33776 0.91907 -0.05900
C 	C 	0.10476 0.35141 0.01087 0.03100
H 	H 	0.11443 0.37657 0.07817 -0.00000
C 	C 	0.03928 0.36009 0.92897 0.16800
C 	C 	0.06219 0.40935 0.95427 -0.06000
C 	C 	0.10289 0.43854 0.88537 0.00500
H 	H 	0.11893 0.42767 0.82697 0.01800
C 	C 	0.11963 0.48386 0.90377 -0.10300
H 	H 	0.14723 0.50467 0.85657 0.05100
C 	C 	0.09585 0.49841 0.99137 0.04200
H 	H 	0.10783 0.52957 0.00437 -0.01800
C 	C 	0.03999 0.42680 0.03977 0.03800
H 	H 	0.01203 0.40677 0.08597 0.01600
Ag	Ag	0.65074 0.83759 0.15842 0.47900
O 	O 	0.66123 0.66026 0.91287 -0.21200
N 	N 	0.66974 0.79805 0.00767 -0.19400
N 	N 	0.52946 0.58582 0.05967 -0.19900
C 	C 	0.70483 0.81956 0.90937 0.03400
H 	H 	0.71963 0.85117 0.90477 -0.01600
C 	C 	0.72019 0.79739 0.81467 -0.11400
H 	H 	0.74493 0.81357 0.74647 0.04600
C 	C 	0.69916 0.75157 0.82047 0.00000
H 	H 	0.70963 0.73577 0.75837 0.04600
C 	C 	0.66224 0.72882 0.91907 -0.05900
C 	C 	0.64859 0.75336 0.01087 0.03100
H 	H 	0.62343 0.73787 0.07817 -0.00000
C 	C 	0.63991 0.67920 0.92897 0.16700
C 	C 	0.59065 0.65285 0.95427 -0.06000
C 	C 	0.56146 0.66436 0.88537 0.00500
H 	H 	0.57233 0.69127 0.82697 0.01800
C 	C 	0.51614 0.63578 0.90377 -0.10300
H 	H 	0.49533 0.64257 0.85657 0.05100
C 	C 	0.50159 0.59745 0.99137 0.04200
H 	H 	0.47043 0.57827 0.00437 -0.01800
C 	C 	0.57320 0.61320 0.03977 0.03800
H 	H 	0.59323 0.60527 0.08597 0.01600
Ag	Ag	0.16241 0.81314 0.15842 0.47900
O 	O 	0.33974 0.00098 0.91287 -0.21200
N 	N 	0.20195 0.87170 0.00767 -0.19400
N 	N 	0.41418 0.94365 0.05967 -0.19900
C 	C 	0.18044 0.88528 0.90937 0.03400
H 	H 	0.14883 0.86847 0.90477 -0.01600
C 	C 	0.20261 0.92281 0.81467 -0.11400
H 	H 	0.18643 0.93137 0.74647 0.04600
C 	C 	0.24843 0.94760 0.82047 0.00000
H 	H 	0.26423 0.97387 0.75837 0.04600
C 	C 	0.27118 0.93343 0.91907 -0.05900
C 	C 	0.24664 0.89524 0.01087 0.03100
H 	H 	0.26213 0.88557 0.07817 -0.00000
C 	C 	0.32080 0.96072 0.92897 0.16700
C 	C 	0.34715 0.93781 0.95427 -0.06000
C 	C 	0.33564 0.89711 0.88537 0.00500
H 	H 	0.30873 0.88107 0.82697 0.01800
C 	C 	0.36422 0.88037 0.90377 -0.10300
H 	H 	0.35743 0.85277 0.85657 0.05100
C 	C 	0.40255 0.90415 0.99137 0.04200
H 	H 	0.42173 0.89217 0.00437 -0.01800
C 	C 	0.38680 0.96001 0.03977 0.03800
H 	H 	0.39473 0.98797 0.08597 0.01600
