data_crystal

_cell_length_a 10.01500
_cell_length_b 6.61240
_cell_length_c 12.47210
_cell_angle_alpha 90.00000
_cell_angle_beta  109.41200
_cell_angle_gamma 90.00000

_symmetry_space_group_name_	'P 1'
_symmetry_space_group_name_H-M	'P 1'

loop_
_symmetry_equiv_pos_as_xyz
  x,y,z

loop_
_atom_site_label
_atom_site_type_symbol
_atom_site_fract_x
_atom_site_fract_y
_atom_site_fract_z
_atom_site_charge
N 	N 	0.87510 0.91800 0.24840 -0.13100
N 	N 	0.93050 0.84890 0.35440 -0.12100
N 	N 	0.12490 0.41800 0.75160 -0.17700
N 	N 	0.06950 0.34890 0.64560 -0.18500
N 	N 	0.12490 0.08200 0.75160 -0.19600
N 	N 	0.06950 0.15110 0.64560 -0.19300
N 	N 	0.87510 0.58200 0.24840 -0.15100
N 	N 	0.93050 0.65110 0.35440 -0.13500
Cu	Cu	0.13580 0.75000 0.76730 0.90800
C 	C 	0.39140 0.75000 0.85470 0.29500
C 	C 	0.55070 0.75000 0.89980 -0.05300
C 	C 	0.62940 0.75000 0.82920 0.01600
H 	H 	0.58160 0.75000 0.75120 0.05800
C 	C 	0.77790 0.75000 0.86670 -0.05400
C 	C 	0.84670 0.75000 0.98480 -0.00300
H 	H 	0.94510 0.75000 0.01370 0.09500
C 	C 	0.76910 0.75000 0.05910 -0.01100
C 	C 	0.62670 0.75000 0.01700 -0.00400
H 	H 	0.57640 0.75000 0.06770 0.06400
C 	C 	0.86210 0.75000 0.79020 0.32900
C 	C 	0.83880 0.75000 0.18720 0.15100
O 	O 	0.32660 0.75000 0.92520 -0.31600
O 	O 	0.32650 0.75000 0.74840 -0.36700
O 	O 	0.79990 0.75000 0.68370 -0.28400
O 	O 	0.99640 0.75000 0.83680 -0.32100
O 	O 	0.00500 0.75000 0.58350 -0.82300
H 	H 	0.92210 0.75000 0.58790 0.36100
Cu	Cu	0.86420 0.25000 0.23270 0.93300
C 	C 	0.60860 0.25000 0.14530 0.29300
C 	C 	0.44930 0.25000 0.10020 -0.09100
C 	C 	0.37060 0.25000 0.17080 0.04100
H 	H 	0.41840 0.25000 0.24880 0.03600
C 	C 	0.22210 0.25000 0.13330 -0.12600
C 	C 	0.15330 0.25000 0.01520 0.03100
H 	H 	0.05490 0.25000 0.98630 0.00400
C 	C 	0.23090 0.25000 0.94090 -0.08100
C 	C 	0.37330 0.25000 0.98300 0.01600
H 	H 	0.42360 0.25000 0.93230 0.03900
C 	C 	0.13790 0.25000 0.20980 0.34000
C 	C 	0.16120 0.25000 0.81280 0.12500
O 	O 	0.67340 0.25000 0.07480 -0.32300
O 	O 	0.67350 0.25000 0.25160 -0.38900
O 	O 	0.20010 0.25000 0.31630 -0.33500
O 	O 	0.00360 0.25000 0.16320 -0.47500
O 	O 	0.99500 0.25000 0.41650 -0.55400
H 	H 	0.07790 0.25000 0.41210 0.12600
Cu	Cu	0.00000 0.00000 0.50000 0.80600
Cu	Cu	-0.00000 0.50000 0.50000 0.83200
