data_crystal

_cell_length_a 10.17920
_cell_length_b 6.72790
_cell_length_c 12.81580
_cell_angle_alpha 90.00000
_cell_angle_beta  111.69800
_cell_angle_gamma 90.00000

_symmetry_space_group_name_	'P 1'
_symmetry_space_group_name_H-M	'P 1'

loop_
_symmetry_equiv_pos_as_xyz
  x,y,z

loop_
_atom_site_label
_atom_site_type_symbol
_atom_site_fract_x
_atom_site_fract_y
_atom_site_fract_z
_atom_site_charge
N 	N 	0.87510 0.41420 0.74262 -0.17400
N 	N 	0.93490 0.34590 0.84777 -0.13500
N 	N 	0.12490 0.91420 0.25738 -0.16900
N 	N 	0.06510 0.84590 0.15223 -0.20900
N 	N 	0.12490 0.58580 0.25738 -0.19900
N 	N 	0.06510 0.65410 0.15223 -0.23100
N 	N 	0.87510 0.08580 0.74262 -0.20200
N 	N 	0.93490 0.15410 0.84777 -0.14700
Co	Co	0.13120 0.25000 0.26600 1.12400
C 	C 	0.39370 0.25000 0.34160 0.31900
C 	C 	0.55210 0.25000 0.39150 -0.11500
C 	C 	0.63020 0.25000 0.32280 0.04500
H 	H 	0.58420 0.25000 0.24520 0.00700
C 	C 	0.77730 0.25000 0.37000 -0.11300
C 	C 	0.84570 0.25000 0.48640 0.02200
H 	H 	0.94390 0.25000 0.51810 0.05900
C 	C 	0.76760 0.25000 0.55540 -0.06800
C 	C 	0.62070 0.25000 0.50800 0.01900
H 	H 	0.56830 0.25000 0.55400 0.03300
C 	C 	0.86300 0.25000 0.29530 0.37000
C 	C 	0.83960 0.25000 0.67930 0.14500
O 	O 	0.33060 0.25000 0.23630 -0.45000
O 	O 	0.32460 0.25000 0.40460 -0.41800
O 	O 	0.80080 0.25000 0.19240 -0.40000
O 	O 	0.99400 0.25000 0.34400 -0.40900
O 	O 	0.00520 0.25000 0.09537 -1.21700
H 	H 	0.93900 0.25000 0.10800 0.54000
Co	Co	0.86880 0.75000 0.73400 1.19100
C 	C 	0.60630 0.75000 0.65840 0.29900
C 	C 	0.44790 0.75000 0.60850 -0.05600
C 	C 	0.36980 0.75000 0.67720 0.01700
H 	H 	0.41580 0.75000 0.75480 0.07200
C 	C 	0.22270 0.75000 0.63000 -0.08200
C 	C 	0.15430 0.75000 0.51360 0.00400
H 	H 	0.05610 0.75000 0.48190 0.03400
C 	C 	0.23240 0.75000 0.44460 -0.04500
C 	C 	0.37930 0.75000 0.49200 0.00400
H 	H 	0.43170 0.75000 0.44600 0.06100
C 	C 	0.13700 0.75000 0.70470 0.35800
C 	C 	0.16040 0.75000 0.32070 0.12500
O 	O 	0.66940 0.75000 0.76370 -0.35300
O 	O 	0.67540 0.75000 0.59540 -0.35200
O 	O 	0.19920 0.75000 0.80760 -0.31300
O 	O 	0.00600 0.75000 0.65600 -0.47600
O 	O 	0.99480 0.75000 0.90463 -0.67700
H 	H 	0.06100 0.75000 0.89200 0.25000
Co	Co	-0.00000 0.50000 -0.00000 0.97600
Co	Co	-0.00000 0.00000 -0.00000 0.93600
