data_crystal

_cell_length_a 33.45300
_cell_length_b 33.45300
_cell_length_c 8.42750
_cell_angle_alpha 90.00000
_cell_angle_beta  90.00000
_cell_angle_gamma 120.00000

_symmetry_space_group_name_	'P 1'
_symmetry_space_group_name_H-M	'P 1'

loop_
_symmetry_equiv_pos_as_xyz
  x,y,z

loop_
_atom_site_label
_atom_site_type_symbol
_atom_site_fract_x
_atom_site_fract_y
_atom_site_fract_z
_atom_site_charge
Ag	Ag	0.14706 0.32181 0.50263 0.48100
O 	O 	0.33491 0.33006 0.79240 -0.21600
N 	N 	0.20605 0.34242 0.66150 -0.19600
N 	N 	0.27857 0.19738 0.61820 -0.20400
C 	C 	0.21847 0.37789 0.76020 0.04800
H 	H 	0.20180 0.39400 0.75720 -0.01500
C 	C 	0.25446 0.39209 0.86640 -0.12500
H 	H 	0.26210 0.41720 0.93600 0.05000
C 	C 	0.27909 0.36936 0.87000 0.00700
H 	H 	0.30450 0.37900 0.94040 0.04200
C 	C 	0.26631 0.33225 0.76970 -0.06800
C 	C 	0.22944 0.31975 0.66750 0.04000
H 	H 	0.22050 0.29410 0.59910 -0.00100
C 	C 	0.29388 0.30853 0.76650 0.17900
C 	C 	0.27083 0.25845 0.73210 -0.06800
C 	C 	0.22695 0.22745 0.78580 0.01400
H 	H 	0.20920 0.23770 0.84300 0.01500
C 	C 	0.20962 0.18099 0.75360 -0.11100
H 	H 	0.17970 0.15870 0.78910 0.05500
C 	C 	0.23600 0.16772 0.67040 0.05100
H 	H 	0.22360 0.13580 0.64850 -0.02000
C 	C 	0.29543 0.24189 0.65090 0.04700
H 	H 	0.32590 0.26330 0.61680 0.01300
Ag	Ag	0.81372 0.65514 0.83596 0.48100
O 	O 	0.00158 0.66339 0.12573 -0.21700
N 	N 	0.87272 0.67575 0.99483 -0.19700
N 	N 	0.94524 0.53071 0.95153 -0.20500
C 	C 	0.88514 0.71122 0.09353 0.04700
H 	H 	0.86847 0.72733 0.09053 -0.01600
C 	C 	0.92113 0.72542 0.19973 -0.12600
H 	H 	0.92877 0.75053 0.26933 0.04900
C 	C 	0.94576 0.70269 0.20333 0.00600
H 	H 	0.97117 0.71233 0.27373 0.04100
C 	C 	0.93298 0.66558 0.10303 -0.06900
C 	C 	0.89611 0.65308 0.00083 0.03900
H 	H 	0.88717 0.62743 0.93243 -0.00200
C 	C 	0.96055 0.64186 0.09983 0.17800
C 	C 	0.93750 0.59178 0.06543 -0.06900
C 	C 	0.89362 0.56078 0.11913 0.01300
H 	H 	0.87587 0.57103 0.17633 0.01400
C 	C 	0.87629 0.51432 0.08693 -0.11100
H 	H 	0.84637 0.49203 0.12243 0.05400
C 	C 	0.90267 0.50105 0.00373 0.05000
H 	H 	0.89027 0.46913 0.98183 -0.02000
C 	C 	0.96210 0.57522 0.98423 0.04700
H 	H 	0.99257 0.59663 0.95013 0.01300
Ag	Ag	0.48039 0.98848 0.16930 0.48000
O 	O 	0.66824 0.99673 0.45907 -0.21700
N 	N 	0.53938 0.00909 0.32817 -0.19700
N 	N 	0.61190 0.86405 0.28487 -0.20500
C 	C 	0.55180 0.04456 0.42687 0.04700
H 	H 	0.53513 0.06067 0.42387 -0.01600
C 	C 	0.58779 0.05876 0.53307 -0.12600
H 	H 	0.59543 0.08387 0.60267 0.04900
C 	C 	0.61242 0.03603 0.53667 0.00600
H 	H 	0.63783 0.04567 0.60707 0.04100
C 	C 	0.59964 0.99892 0.43637 -0.06900
C 	C 	0.56277 0.98642 0.33417 0.03900
H 	H 	0.55383 0.96077 0.26577 -0.00200
C 	C 	0.62721 0.97520 0.43317 0.17800
C 	C 	0.60416 0.92512 0.39877 -0.06900
C 	C 	0.56028 0.89412 0.45247 0.01300
H 	H 	0.54253 0.90437 0.50967 0.01400
C 	C 	0.54295 0.84766 0.42027 -0.11200
H 	H 	0.51303 0.82537 0.45577 0.05400
C 	C 	0.56933 0.83439 0.33707 0.05000
H 	H 	0.55693 0.80247 0.31517 -0.02000
C 	C 	0.62876 0.90856 0.31757 0.04700
H 	H 	0.65923 0.92997 0.28347 0.01300
Ag	Ag	0.67819 0.82525 0.50263 0.48000
O 	O 	0.66994 0.00485 0.79240 -0.21700
N 	N 	0.65758 0.86363 0.66150 -0.19700
N 	N 	0.80262 0.08119 0.61820 -0.20500
C 	C 	0.62211 0.84058 0.76020 0.04700
H 	H 	0.60600 0.80780 0.75720 -0.01600
C 	C 	0.60791 0.86237 0.86640 -0.12600
H 	H 	0.58280 0.84490 0.93600 0.04900
C 	C 	0.63064 0.90973 0.87000 0.00600
H 	H 	0.62100 0.92550 0.94040 0.04100
C 	C 	0.66775 0.93406 0.76970 -0.06900
C 	C 	0.68025 0.90969 0.66750 0.03900
H 	H 	0.70590 0.92640 0.59910 -0.00200
C 	C 	0.69147 0.98535 0.76650 0.17800
C 	C 	0.74155 0.01238 0.73210 -0.06900
C 	C 	0.77255 0.99950 0.78580 0.01300
H 	H 	0.76230 0.97150 0.84300 0.01400
C 	C 	0.81901 0.02863 0.75360 -0.11200
H 	H 	0.84130 0.02100 0.78910 0.05400
C 	C 	0.83228 0.06828 0.67040 0.05000
H 	H 	0.86420 0.08780 0.64850 -0.02000
C 	C 	0.75811 0.05354 0.65090 0.04700
H 	H 	0.73670 0.06260 0.61680 0.01300
Ag	Ag	0.34486 0.15858 0.83596 0.48100
O 	O 	0.33661 0.33818 0.12573 -0.21700
N 	N 	0.32425 0.19696 0.99483 -0.19700
N 	N 	0.46929 0.41452 0.95153 -0.20500
C 	C 	0.28878 0.17391 0.09353 0.04700
H 	H 	0.27267 0.14113 0.09053 -0.01600
C 	C 	0.27458 0.19570 0.19973 -0.12600
H 	H 	0.24947 0.17823 0.26933 0.04900
C 	C 	0.29731 0.24306 0.20333 0.00600
H 	H 	0.28767 0.25883 0.27373 0.04100
C 	C 	0.33442 0.26739 0.10303 -0.06900
C 	C 	0.34692 0.24302 0.00083 0.03900
H 	H 	0.37257 0.25973 0.93243 -0.00200
C 	C 	0.35814 0.31868 0.09983 0.17800
C 	C 	0.40822 0.34571 0.06543 -0.06900
C 	C 	0.43922 0.33283 0.11913 0.01300
H 	H 	0.42897 0.30483 0.17633 0.01400
C 	C 	0.48568 0.36196 0.08693 -0.11100
H 	H 	0.50797 0.35433 0.12243 0.05400
C 	C 	0.49895 0.40161 0.00373 0.05000
H 	H 	0.53087 0.42113 0.98183 -0.02000
C 	C 	0.42478 0.38687 0.98423 0.04700
H 	H 	0.40337 0.39593 0.95013 0.01300
Ag	Ag	0.01152 0.49191 0.16930 0.48000
O 	O 	0.00327 0.67152 0.45907 -0.21700
N 	N 	0.99091 0.53030 0.32817 -0.19700
N 	N 	0.13595 0.74786 0.28487 -0.20500
C 	C 	0.95544 0.50725 0.42687 0.04700
H 	H 	0.93933 0.47447 0.42387 -0.01600
C 	C 	0.94124 0.52904 0.53307 -0.12600
H 	H 	0.91613 0.51157 0.60267 0.04900
C 	C 	0.96397 0.57640 0.53667 0.00600
H 	H 	0.95433 0.59217 0.60707 0.04100
C 	C 	0.00108 0.60073 0.43637 -0.06900
C 	C 	0.01358 0.57636 0.33417 0.03900
H 	H 	0.03923 0.59307 0.26577 -0.00200
C 	C 	0.02480 0.65202 0.43317 0.17800
C 	C 	0.07488 0.67905 0.39877 -0.06900
C 	C 	0.10588 0.66617 0.45247 0.01300
H 	H 	0.09563 0.63817 0.50967 0.01400
C 	C 	0.15234 0.69530 0.42027 -0.11200
H 	H 	0.17463 0.68767 0.45577 0.05400
C 	C 	0.16561 0.73495 0.33707 0.05000
H 	H 	0.19753 0.75447 0.31517 -0.02000
C 	C 	0.09144 0.72021 0.31757 0.04700
H 	H 	0.07003 0.72927 0.28347 0.01300
Ag	Ag	0.17475 0.85294 0.50263 0.48000
O 	O 	0.99515 0.66509 0.79240 -0.21700
N 	N 	0.13637 0.79395 0.66150 -0.19700
N 	N 	0.91881 0.72143 0.61820 -0.20500
C 	C 	0.15942 0.78153 0.76020 0.04700
H 	H 	0.19220 0.79820 0.75720 -0.01600
C 	C 	0.13763 0.74554 0.86640 -0.12600
H 	H 	0.15510 0.73790 0.93600 0.04900
C 	C 	0.09027 0.72091 0.87000 0.00600
H 	H 	0.07450 0.69550 0.94040 0.04100
C 	C 	0.06594 0.73369 0.76970 -0.06900
C 	C 	0.09031 0.77056 0.66750 0.03900
H 	H 	0.07360 0.77950 0.59910 -0.00200
C 	C 	0.01465 0.70612 0.76650 0.17700
C 	C 	0.98762 0.72917 0.73210 -0.06900
C 	C 	0.00050 0.77305 0.78580 0.01300
H 	H 	0.02850 0.79080 0.84300 0.01500
C 	C 	0.97137 0.79038 0.75360 -0.11100
H 	H 	0.97900 0.82030 0.78910 0.05400
C 	C 	0.93172 0.76400 0.67040 0.05000
H 	H 	0.91220 0.77640 0.64850 -0.02000
C 	C 	0.94646 0.70457 0.65090 0.04700
H 	H 	0.93740 0.67410 0.61680 0.01300
Ag	Ag	0.84142 0.18628 0.83596 0.48100
O 	O 	0.66182 0.99842 0.12573 -0.21700
N 	N 	0.80304 0.12728 0.99483 -0.19600
N 	N 	0.58548 0.05476 0.95153 -0.20500
C 	C 	0.82609 0.11486 0.09353 0.04700
H 	H 	0.85887 0.13153 0.09053 -0.01600
C 	C 	0.80430 0.07887 0.19973 -0.12600
H 	H 	0.82177 0.07123 0.26933 0.04900
C 	C 	0.75694 0.05424 0.20333 0.00600
H 	H 	0.74117 0.02883 0.27373 0.04100
C 	C 	0.73261 0.06702 0.10303 -0.06900
C 	C 	0.75698 0.10389 0.00083 0.03900
H 	H 	0.74027 0.11283 0.93243 -0.00200
C 	C 	0.68132 0.03945 0.09983 0.17800
C 	C 	0.65429 0.06250 0.06543 -0.06900
C 	C 	0.66717 0.10638 0.11913 0.01300
H 	H 	0.69517 0.12413 0.17633 0.01400
C 	C 	0.63804 0.12371 0.08693 -0.11100
H 	H 	0.64567 0.15363 0.12243 0.05400
C 	C 	0.59839 0.09733 0.00373 0.05000
H 	H 	0.57887 0.10973 0.98183 -0.02000
C 	C 	0.61313 0.03790 0.98423 0.04700
H 	H 	0.60407 0.00743 0.95013 0.01300
Ag	Ag	0.50809 0.51961 0.16930 0.48000
O 	O 	0.32848 0.33176 0.45907 -0.21700
N 	N 	0.46970 0.46062 0.32817 -0.19700
N 	N 	0.25214 0.38810 0.28487 -0.20500
C 	C 	0.49275 0.44820 0.42687 0.04700
H 	H 	0.52553 0.46487 0.42387 -0.01600
C 	C 	0.47096 0.41221 0.53307 -0.12600
H 	H 	0.48843 0.40457 0.60267 0.04900
C 	C 	0.42360 0.38758 0.53667 0.00600
H 	H 	0.40783 0.36217 0.60707 0.04100
C 	C 	0.39927 0.40036 0.43637 -0.06900
C 	C 	0.42364 0.43723 0.33417 0.03900
H 	H 	0.40693 0.44617 0.26577 -0.00200
C 	C 	0.34798 0.37279 0.43317 0.17800
C 	C 	0.32095 0.39584 0.39877 -0.06900
C 	C 	0.33383 0.43972 0.45247 0.01300
H 	H 	0.36183 0.45747 0.50967 0.01400
C 	C 	0.30470 0.45705 0.42027 -0.11200
H 	H 	0.31233 0.48697 0.45577 0.05400
C 	C 	0.26505 0.43067 0.33707 0.05000
H 	H 	0.24553 0.44307 0.31517 -0.02000
C 	C 	0.27979 0.37124 0.31757 0.04700
H 	H 	0.27073 0.34077 0.28347 0.01300
Ag	Ag	0.85294 0.67819 0.49737 0.48000
O 	O 	0.66509 0.66994 0.20760 -0.21700
N 	N 	0.79395 0.65758 0.33850 -0.19700
N 	N 	0.72143 0.80262 0.38180 -0.20500
C 	C 	0.78153 0.62211 0.23980 0.04700
H 	H 	0.79820 0.60600 0.24280 -0.01600
C 	C 	0.74554 0.60791 0.13360 -0.12600
H 	H 	0.73790 0.58280 0.06400 0.04900
C 	C 	0.72091 0.63064 0.13000 0.00600
H 	H 	0.69550 0.62100 0.05960 0.04100
C 	C 	0.73369 0.66775 0.23030 -0.06900
C 	C 	0.77056 0.68025 0.33250 0.03900
H 	H 	0.77950 0.70590 0.40090 -0.00200
C 	C 	0.70612 0.69147 0.23350 0.17800
C 	C 	0.72917 0.74155 0.26790 -0.06900
C 	C 	0.77305 0.77255 0.21420 0.01300
H 	H 	0.79080 0.76230 0.15700 0.01400
C 	C 	0.79038 0.81901 0.24640 -0.11200
H 	H 	0.82030 0.84130 0.21090 0.05400
C 	C 	0.76400 0.83228 0.32960 0.05000
H 	H 	0.77640 0.86420 0.35150 -0.02000
C 	C 	0.70457 0.75811 0.34910 0.04700
H 	H 	0.67410 0.73670 0.38320 0.01300
Ag	Ag	0.51961 0.01152 0.83070 0.48000
O 	O 	0.33176 0.00327 0.54093 -0.21700
N 	N 	0.46062 0.99091 0.67183 -0.19700
N 	N 	0.38810 0.13595 0.71513 -0.20500
C 	C 	0.44820 0.95544 0.57313 0.04700
H 	H 	0.46487 0.93933 0.57613 -0.01600
C 	C 	0.41221 0.94124 0.46693 -0.12600
H 	H 	0.40457 0.91613 0.39733 0.04900
C 	C 	0.38758 0.96397 0.46333 0.00600
H 	H 	0.36217 0.95433 0.39293 0.04100
C 	C 	0.40036 0.00108 0.56363 -0.06900
C 	C 	0.43723 0.01358 0.66583 0.03900
H 	H 	0.44617 0.03923 0.73423 -0.00200
C 	C 	0.37279 0.02480 0.56683 0.17800
C 	C 	0.39584 0.07488 0.60123 -0.06900
C 	C 	0.43972 0.10588 0.54753 0.01300
H 	H 	0.45747 0.09563 0.49033 0.01400
C 	C 	0.45705 0.15234 0.57973 -0.11200
H 	H 	0.48697 0.17463 0.54423 0.05400
C 	C 	0.43067 0.16561 0.66293 0.05000
H 	H 	0.44307 0.19753 0.68483 -0.02000
C 	C 	0.37124 0.09144 0.68243 0.04700
H 	H 	0.34077 0.07003 0.71653 0.01300
Ag	Ag	0.18628 0.34486 0.16404 0.48100
O 	O 	0.99842 0.33661 0.87427 -0.21700
N 	N 	0.12728 0.32425 0.00517 -0.19700
N 	N 	0.05476 0.46929 0.04847 -0.20500
C 	C 	0.11486 0.28878 0.90647 0.04700
H 	H 	0.13153 0.27267 0.90947 -0.01600
C 	C 	0.07887 0.27458 0.80027 -0.12600
H 	H 	0.07123 0.24947 0.73067 0.04900
C 	C 	0.05424 0.29731 0.79667 0.00600
H 	H 	0.02883 0.28767 0.72627 0.04100
C 	C 	0.06702 0.33442 0.89697 -0.06900
C 	C 	0.10389 0.34692 0.99917 0.03900
H 	H 	0.11283 0.37257 0.06757 -0.00200
C 	C 	0.03945 0.35814 0.90017 0.17800
C 	C 	0.06250 0.40822 0.93457 -0.06900
C 	C 	0.10638 0.43922 0.88087 0.01300
H 	H 	0.12413 0.42897 0.82367 0.01400
C 	C 	0.12371 0.48568 0.91307 -0.11100
H 	H 	0.15363 0.50797 0.87757 0.05400
C 	C 	0.09733 0.49895 0.99627 0.05000
H 	H 	0.10973 0.53087 0.01817 -0.02000
C 	C 	0.03790 0.42478 0.01577 0.04700
H 	H 	0.00743 0.40337 0.04987 0.01300
Ag	Ag	0.32181 0.17475 0.49737 0.48000
O 	O 	0.33006 0.99515 0.20760 -0.21700
N 	N 	0.34242 0.13637 0.33850 -0.19700
N 	N 	0.19738 0.91881 0.38180 -0.20500
C 	C 	0.37789 0.15942 0.23980 0.04700
H 	H 	0.39400 0.19220 0.24280 -0.01600
C 	C 	0.39209 0.13763 0.13360 -0.12600
H 	H 	0.41720 0.15510 0.06400 0.04900
C 	C 	0.36936 0.09027 0.13000 0.00600
H 	H 	0.37900 0.07450 0.05960 0.04100
C 	C 	0.33225 0.06594 0.23030 -0.06900
C 	C 	0.31975 0.09031 0.33250 0.03900
H 	H 	0.29410 0.07360 0.40090 -0.00200
C 	C 	0.30853 0.01465 0.23350 0.17800
C 	C 	0.25845 0.98762 0.26790 -0.06900
C 	C 	0.22745 0.00050 0.21420 0.01300
H 	H 	0.23770 0.02850 0.15700 0.01400
C 	C 	0.18099 0.97137 0.24640 -0.11200
H 	H 	0.15870 0.97900 0.21090 0.05400
C 	C 	0.16772 0.93172 0.32960 0.05000
H 	H 	0.13580 0.91220 0.35150 -0.02000
C 	C 	0.24189 0.94646 0.34910 0.04700
H 	H 	0.26330 0.93740 0.38320 0.01300
Ag	Ag	0.98848 0.50809 0.83070 0.48000
O 	O 	0.99673 0.32848 0.54093 -0.21700
N 	N 	0.00909 0.46970 0.67183 -0.19700
N 	N 	0.86405 0.25214 0.71513 -0.20500
C 	C 	0.04456 0.49275 0.57313 0.04700
H 	H 	0.06067 0.52553 0.57613 -0.01600
C 	C 	0.05876 0.47096 0.46693 -0.12600
H 	H 	0.08387 0.48843 0.39733 0.04900
C 	C 	0.03603 0.42360 0.46333 0.00600
H 	H 	0.04567 0.40783 0.39293 0.04100
C 	C 	0.99892 0.39927 0.56363 -0.06900
C 	C 	0.98642 0.42364 0.66583 0.03900
H 	H 	0.96077 0.40693 0.73423 -0.00200
C 	C 	0.97520 0.34798 0.56683 0.17800
C 	C 	0.92512 0.32095 0.60123 -0.06900
C 	C 	0.89412 0.33383 0.54753 0.01300
H 	H 	0.90437 0.36183 0.49033 0.01400
C 	C 	0.84766 0.30470 0.57973 -0.11200
H 	H 	0.82537 0.31233 0.54423 0.05400
C 	C 	0.83439 0.26505 0.66293 0.05000
H 	H 	0.80247 0.24553 0.68483 -0.02000
C 	C 	0.90856 0.27979 0.68243 0.04700
H 	H 	0.92997 0.27073 0.71653 0.01300
Ag	Ag	0.65514 0.84142 0.16404 0.48100
O 	O 	0.66339 0.66182 0.87427 -0.21700
N 	N 	0.67575 0.80304 0.00517 -0.19700
N 	N 	0.53071 0.58548 0.04847 -0.20500
C 	C 	0.71122 0.82609 0.90647 0.04700
H 	H 	0.72733 0.85887 0.90947 -0.01600
C 	C 	0.72542 0.80430 0.80027 -0.12600
H 	H 	0.75053 0.82177 0.73067 0.04900
C 	C 	0.70269 0.75694 0.79667 0.00600
H 	H 	0.71233 0.74117 0.72627 0.04100
C 	C 	0.66558 0.73261 0.89697 -0.06900
C 	C 	0.65308 0.75698 0.99917 0.03900
H 	H 	0.62743 0.74027 0.06757 -0.00200
C 	C 	0.64186 0.68132 0.90017 0.17800
C 	C 	0.59178 0.65429 0.93457 -0.06900
C 	C 	0.56078 0.66717 0.88087 0.01300
H 	H 	0.57103 0.69517 0.82367 0.01400
C 	C 	0.51432 0.63804 0.91307 -0.11100
H 	H 	0.49203 0.64567 0.87757 0.05400
C 	C 	0.50105 0.59839 0.99627 0.05000
H 	H 	0.46913 0.57887 0.01817 -0.02000
C 	C 	0.57522 0.61313 0.01577 0.04700
H 	H 	0.59663 0.60407 0.04987 0.01300
Ag	Ag	0.82525 0.14706 0.49737 0.48000
O 	O 	0.00485 0.33491 0.20760 -0.21700
N 	N 	0.86363 0.20605 0.33850 -0.19700
N 	N 	0.08119 0.27857 0.38180 -0.20500
C 	C 	0.84058 0.21847 0.23980 0.04700
H 	H 	0.80780 0.20180 0.24280 -0.01600
C 	C 	0.86237 0.25446 0.13360 -0.12600
H 	H 	0.84490 0.26210 0.06400 0.04900
C 	C 	0.90973 0.27909 0.13000 0.00600
H 	H 	0.92550 0.30450 0.05960 0.04100
C 	C 	0.93406 0.26631 0.23030 -0.06900
C 	C 	0.90969 0.22944 0.33250 0.03900
H 	H 	0.92640 0.22050 0.40090 -0.00200
C 	C 	0.98535 0.29388 0.23350 0.17700
C 	C 	0.01238 0.27083 0.26790 -0.06900
C 	C 	0.99950 0.22695 0.21420 0.01300
H 	H 	0.97150 0.20920 0.15700 0.01500
C 	C 	0.02863 0.20962 0.24640 -0.11100
H 	H 	0.02100 0.17970 0.21090 0.05400
C 	C 	0.06828 0.23600 0.32960 0.05000
H 	H 	0.08780 0.22360 0.35150 -0.02000
C 	C 	0.05354 0.29543 0.34910 0.04700
H 	H 	0.06260 0.32590 0.38320 0.01300
Ag	Ag	0.49191 0.48039 0.83070 0.48000
O 	O 	0.67152 0.66824 0.54093 -0.21700
N 	N 	0.53030 0.53938 0.67183 -0.19700
N 	N 	0.74786 0.61190 0.71513 -0.20500
C 	C 	0.50725 0.55180 0.57313 0.04700
H 	H 	0.47447 0.53513 0.57613 -0.01600
C 	C 	0.52904 0.58779 0.46693 -0.12600
H 	H 	0.51157 0.59543 0.39733 0.04900
C 	C 	0.57640 0.61242 0.46333 0.00600
H 	H 	0.59217 0.63783 0.39293 0.04100
C 	C 	0.60073 0.59964 0.56363 -0.06900
C 	C 	0.57636 0.56277 0.66583 0.03900
H 	H 	0.59307 0.55383 0.73423 -0.00200
C 	C 	0.65202 0.62721 0.56683 0.17800
C 	C 	0.67905 0.60416 0.60123 -0.06900
C 	C 	0.66617 0.56028 0.54753 0.01300
H 	H 	0.63817 0.54253 0.49033 0.01400
C 	C 	0.69530 0.54295 0.57973 -0.11200
H 	H 	0.68767 0.51303 0.54423 0.05400
C 	C 	0.73495 0.56933 0.66293 0.05000
H 	H 	0.75447 0.55693 0.68483 -0.02000
C 	C 	0.72021 0.62876 0.68243 0.04700
H 	H 	0.72927 0.65923 0.71653 0.01300
Ag	Ag	0.15858 0.81372 0.16404 0.48100
O 	O 	0.33818 0.00158 0.87427 -0.21700
N 	N 	0.19696 0.87272 0.00517 -0.19600
N 	N 	0.41452 0.94524 0.04847 -0.20500
C 	C 	0.17391 0.88514 0.90647 0.04700
H 	H 	0.14113 0.86847 0.90947 -0.01600
C 	C 	0.19570 0.92113 0.80027 -0.12600
H 	H 	0.17823 0.92877 0.73067 0.04900
C 	C 	0.24306 0.94576 0.79667 0.00600
H 	H 	0.25883 0.97117 0.72627 0.04100
C 	C 	0.26739 0.93298 0.89697 -0.06900
C 	C 	0.24302 0.89611 0.99917 0.03900
H 	H 	0.25973 0.88717 0.06757 -0.00200
C 	C 	0.31868 0.96055 0.90017 0.17800
C 	C 	0.34571 0.93750 0.93457 -0.06900
C 	C 	0.33283 0.89362 0.88087 0.01300
H 	H 	0.30483 0.87587 0.82367 0.01400
C 	C 	0.36196 0.87629 0.91307 -0.11100
H 	H 	0.35433 0.84637 0.87757 0.05400
C 	C 	0.40161 0.90267 0.99627 0.05000
H 	H 	0.42113 0.89027 0.01817 -0.02000
C 	C 	0.38687 0.96210 0.01577 0.04700
H 	H 	0.39593 0.99257 0.04987 0.01300
