data_crystal

_cell_length_a 34.56190
_cell_length_b 34.56190
_cell_length_c 8.33430
_cell_angle_alpha 90.00000
_cell_angle_beta  90.00000
_cell_angle_gamma 120.00000

_symmetry_space_group_name_	'P 1'
_symmetry_space_group_name_H-M	'P 1'

loop_
_symmetry_equiv_pos_as_xyz
  x,y,z

loop_
_atom_site_label
_atom_site_type_symbol
_atom_site_fract_x
_atom_site_fract_y
_atom_site_fract_z
_atom_site_charge
Ag	Ag	0.80738 0.15060 0.83647 0.48100
O 	O 	0.00200 0.32394 0.01960 -0.21800
N 	N 	0.86756 0.19000 0.98140 -0.19900
N 	N 	0.95121 0.40832 0.93960 -0.19800
C 	C 	0.89270 0.23500 0.96940 0.02800
H 	H 	0.88300 0.25050 0.90120 -0.00700
C 	C 	0.93220 0.25890 0.05410 -0.06300
C 	C 	0.94600 0.23670 0.15770 0.00500
H 	H 	0.97330 0.25250 0.21510 0.03800
C 	C 	0.91890 0.19090 0.17510 -0.12300
H 	H 	0.92670 0.17480 0.24800 0.04700
C 	C 	0.88040 0.16910 0.08440 0.04300
H 	H 	0.86210 0.13760 0.09600 -0.01600
C 	C 	0.96200 0.30850 0.03070 0.17200
C 	C 	0.96500 0.37840 0.94430 0.04000
H 	H 	0.99210 0.38540 0.89120 0.02400
C 	C 	0.94180 0.33760 0.02300 -0.06300
C 	C 	0.90210 0.32720 0.10090 0.01100
H 	H 	0.88540 0.29970 0.15630 0.01700
C 	C 	0.88760 0.35730 0.09640 -0.10300
H 	H 	0.86070 0.35100 0.14930 0.05200
C 	C 	0.91210 0.39710 0.01480 0.04400
H 	H 	0.90110 0.41740 0.01100 -0.02000
Ag	Ag	0.84940 0.65678 0.83647 0.48200
O 	O 	0.67606 0.67806 0.01960 -0.21700
N 	N 	0.81000 0.67756 0.98140 -0.19800
N 	N 	0.59168 0.54289 0.93960 -0.19700
C 	C 	0.76500 0.65770 0.96940 0.02900
H 	H 	0.74950 0.63250 0.90120 -0.00600
C 	C 	0.74110 0.67330 0.05410 -0.06200
C 	C 	0.76330 0.70930 0.15770 0.00600
H 	H 	0.74750 0.72080 0.21510 0.03800
C 	C 	0.80910 0.72800 0.17510 -0.12300
H 	H 	0.82520 0.75190 0.24800 0.04700
C 	C 	0.83090 0.71130 0.08440 0.04300
H 	H 	0.86240 0.72450 0.09600 -0.01600
C 	C 	0.69150 0.65350 0.03070 0.17200
C 	C 	0.62160 0.58660 0.94430 0.04000
H 	H 	0.61460 0.60670 0.89120 0.02400
C 	C 	0.66240 0.60420 0.02300 -0.06300
C 	C 	0.67280 0.57490 0.10090 0.01100
H 	H 	0.70030 0.58570 0.15630 0.01700
C 	C 	0.64270 0.53030 0.09640 -0.10300
H 	H 	0.64900 0.50970 0.14930 0.05200
C 	C 	0.60290 0.51500 0.01480 0.04400
H 	H 	0.58260 0.48370 0.01100 -0.02000
Ag	Ag	0.34322 0.19262 0.83647 0.48200
O 	O 	0.32194 0.99800 0.01960 -0.21700
N 	N 	0.32244 0.13244 0.98140 -0.19800
N 	N 	0.45711 0.04879 0.93960 -0.19700
C 	C 	0.34230 0.10730 0.96940 0.02900
H 	H 	0.36750 0.11700 0.90120 -0.00600
C 	C 	0.32670 0.06780 0.05410 -0.06200
C 	C 	0.29070 0.05400 0.15770 0.00600
H 	H 	0.27920 0.02670 0.21510 0.03800
C 	C 	0.27200 0.08110 0.17510 -0.12300
H 	H 	0.24810 0.07330 0.24800 0.04700
C 	C 	0.28870 0.11960 0.08440 0.04300
H 	H 	0.27550 0.13790 0.09600 -0.01600
C 	C 	0.34650 0.03800 0.03070 0.17200
C 	C 	0.41340 0.03500 0.94430 0.04000
H 	H 	0.39330 0.00790 0.89120 0.02400
C 	C 	0.39580 0.05820 0.02300 -0.06300
C 	C 	0.42510 0.09790 0.10090 0.01100
H 	H 	0.41430 0.11460 0.15630 0.01700
C 	C 	0.46970 0.11240 0.09640 -0.10300
H 	H 	0.49030 0.13930 0.14930 0.05200
C 	C 	0.48500 0.08790 0.01480 0.04400
H 	H 	0.51630 0.09890 0.01100 -0.02000
Ag	Ag	0.52596 0.51606 0.83020 0.48200
O 	O 	0.33133 0.34273 0.64707 -0.21700
N 	N 	0.46577 0.47667 0.68527 -0.19800
N 	N 	0.38212 0.25835 0.72707 -0.19700
C 	C 	0.44063 0.43167 0.69727 0.02900
H 	H 	0.45033 0.41617 0.76547 -0.00600
C 	C 	0.40113 0.40777 0.61257 -0.06200
C 	C 	0.38733 0.42997 0.50897 0.00600
H 	H 	0.36003 0.41417 0.45157 0.03800
C 	C 	0.41443 0.47577 0.49157 -0.12200
H 	H 	0.40663 0.49187 0.41867 0.04700
C 	C 	0.45293 0.49757 0.58227 0.04300
H 	H 	0.47123 0.52907 0.57067 -0.01600
C 	C 	0.37133 0.35817 0.63597 0.17200
C 	C 	0.36833 0.28827 0.72237 0.04000
H 	H 	0.34123 0.28127 0.77547 0.02400
C 	C 	0.39153 0.32907 0.64367 -0.06300
C 	C 	0.43123 0.33947 0.56577 0.01100
H 	H 	0.44793 0.36697 0.51037 0.01700
C 	C 	0.44573 0.30937 0.57027 -0.10300
H 	H 	0.47263 0.31567 0.51737 0.05200
C 	C 	0.42123 0.26957 0.65187 0.04400
H 	H 	0.43223 0.24927 0.65567 -0.02000
Ag	Ag	0.48394 0.00989 0.83020 0.48200
O 	O 	0.65727 0.98861 0.64707 -0.21700
N 	N 	0.52333 0.98911 0.68527 -0.19800
N 	N 	0.74165 0.12378 0.72707 -0.19700
C 	C 	0.56833 0.00897 0.69727 0.02900
H 	H 	0.58383 0.03417 0.76547 -0.00600
C 	C 	0.59223 0.99337 0.61257 -0.06200
C 	C 	0.57003 0.95737 0.50897 0.00600
H 	H 	0.58583 0.94587 0.45157 0.03800
C 	C 	0.52423 0.93867 0.49157 -0.12200
H 	H 	0.50813 0.91477 0.41867 0.04700
C 	C 	0.50243 0.95537 0.58227 0.04300
H 	H 	0.47093 0.94217 0.57067 -0.01600
C 	C 	0.64183 0.01317 0.63597 0.17200
C 	C 	0.71173 0.08007 0.72237 0.04000
H 	H 	0.71873 0.05997 0.77547 0.02400
C 	C 	0.67093 0.06247 0.64367 -0.06300
C 	C 	0.66053 0.09177 0.56577 0.01100
H 	H 	0.63303 0.08097 0.51037 0.01700
C 	C 	0.69063 0.13637 0.57027 -0.10300
H 	H 	0.68433 0.15697 0.51737 0.05200
C 	C 	0.73043 0.15167 0.65187 0.04400
H 	H 	0.75073 0.18297 0.65567 -0.02000
Ag	Ag	0.99011 0.47404 0.83020 0.48200
O 	O 	0.01139 0.66867 0.64707 -0.21700
N 	N 	0.01089 0.53423 0.68527 -0.19800
N 	N 	0.87622 0.61788 0.72707 -0.19700
C 	C 	0.99103 0.55937 0.69727 0.02900
H 	H 	0.96583 0.54967 0.76547 -0.00600
C 	C 	0.00663 0.59887 0.61257 -0.06200
C 	C 	0.04263 0.61267 0.50897 0.00600
H 	H 	0.05413 0.63997 0.45157 0.03800
C 	C 	0.06133 0.58557 0.49157 -0.12200
H 	H 	0.08523 0.59337 0.41867 0.04700
C 	C 	0.04463 0.54707 0.58227 0.04300
H 	H 	0.05783 0.52877 0.57067 -0.01600
C 	C 	0.98683 0.62867 0.63597 0.17200
C 	C 	0.91993 0.63167 0.72237 0.04000
H 	H 	0.94003 0.65877 0.77547 0.02400
C 	C 	0.93753 0.60847 0.64367 -0.06300
C 	C 	0.90823 0.56877 0.56577 0.01100
H 	H 	0.91903 0.55207 0.51037 0.01700
C 	C 	0.86363 0.55427 0.57027 -0.10300
H 	H 	0.84303 0.52737 0.51737 0.05200
C 	C 	0.84833 0.57877 0.65187 0.04400
H 	H 	0.81703 0.56777 0.65567 -0.02000
Ag	Ag	0.47404 0.48394 0.16980 0.48200
O 	O 	0.66867 0.65727 0.35293 -0.21700
N 	N 	0.53423 0.52333 0.31473 -0.19800
N 	N 	0.61788 0.74165 0.27293 -0.19700
C 	C 	0.55937 0.56833 0.30273 0.02900
H 	H 	0.54967 0.58383 0.23453 -0.00600
C 	C 	0.59887 0.59223 0.38743 -0.06200
C 	C 	0.61267 0.57003 0.49103 0.00600
H 	H 	0.63997 0.58583 0.54843 0.03800
C 	C 	0.58557 0.52423 0.50843 -0.12200
H 	H 	0.59337 0.50813 0.58133 0.04700
C 	C 	0.54707 0.50243 0.41773 0.04300
H 	H 	0.52877 0.47093 0.42933 -0.01600
C 	C 	0.62867 0.64183 0.36403 0.17200
C 	C 	0.63167 0.71173 0.27763 0.04000
H 	H 	0.65877 0.71873 0.22453 0.02400
C 	C 	0.60847 0.67093 0.35633 -0.06300
C 	C 	0.56877 0.66053 0.43423 0.01100
H 	H 	0.55207 0.63303 0.48963 0.01700
C 	C 	0.55427 0.69063 0.42973 -0.10300
H 	H 	0.52737 0.68433 0.48263 0.05200
C 	C 	0.57877 0.73043 0.34813 0.04400
H 	H 	0.56777 0.75073 0.34433 -0.02000
Ag	Ag	0.51606 0.99011 0.16980 0.48200
O 	O 	0.34273 0.01139 0.35293 -0.21700
N 	N 	0.47667 0.01089 0.31473 -0.19800
N 	N 	0.25835 0.87622 0.27293 -0.19700
C 	C 	0.43167 0.99103 0.30273 0.02900
H 	H 	0.41617 0.96583 0.23453 -0.00600
C 	C 	0.40777 0.00663 0.38743 -0.06200
C 	C 	0.42997 0.04263 0.49103 0.00600
H 	H 	0.41417 0.05413 0.54843 0.03800
C 	C 	0.47577 0.06133 0.50843 -0.12200
H 	H 	0.49187 0.08523 0.58133 0.04700
C 	C 	0.49757 0.04463 0.41773 0.04300
H 	H 	0.52907 0.05783 0.42933 -0.01600
C 	C 	0.35817 0.98683 0.36403 0.17200
C 	C 	0.28827 0.91993 0.27763 0.04000
H 	H 	0.28127 0.94003 0.22453 0.02400
C 	C 	0.32907 0.93753 0.35633 -0.06300
C 	C 	0.33947 0.90823 0.43423 0.01100
H 	H 	0.36697 0.91903 0.48963 0.01700
C 	C 	0.30937 0.86363 0.42973 -0.10300
H 	H 	0.31567 0.84303 0.48263 0.05200
C 	C 	0.26957 0.84833 0.34813 0.04400
H 	H 	0.24927 0.81703 0.34433 -0.02000
Ag	Ag	0.00989 0.52596 0.16980 0.48200
O 	O 	0.98861 0.33133 0.35293 -0.21700
N 	N 	0.98911 0.46577 0.31473 -0.19800
N 	N 	0.12378 0.38212 0.27293 -0.19700
C 	C 	0.00897 0.44063 0.30273 0.02900
H 	H 	0.03417 0.45033 0.23453 -0.00600
C 	C 	0.99337 0.40113 0.38743 -0.06200
C 	C 	0.95737 0.38733 0.49103 0.00600
H 	H 	0.94587 0.36003 0.54843 0.03800
C 	C 	0.93867 0.41443 0.50843 -0.12200
H 	H 	0.91477 0.40663 0.58133 0.04700
C 	C 	0.95537 0.45293 0.41773 0.04300
H 	H 	0.94217 0.47123 0.42933 -0.01600
C 	C 	0.01317 0.37133 0.36403 0.17200
C 	C 	0.08007 0.36833 0.27763 0.04000
H 	H 	0.05997 0.34123 0.22453 0.02400
C 	C 	0.06247 0.39153 0.35633 -0.06300
C 	C 	0.09177 0.43123 0.43423 0.01100
H 	H 	0.08097 0.44793 0.48963 0.01700
C 	C 	0.13637 0.44573 0.42973 -0.10300
H 	H 	0.15697 0.47263 0.48263 0.05200
C 	C 	0.15167 0.42123 0.34813 0.04400
H 	H 	0.18297 0.43223 0.34433 -0.02000
Ag	Ag	0.19262 0.84940 0.16353 0.48200
O 	O 	0.99800 0.67606 0.98040 -0.21700
N 	N 	0.13244 0.81000 0.01860 -0.19800
N 	N 	0.04879 0.59168 0.06040 -0.19700
C 	C 	0.10730 0.76500 0.03060 0.02900
H 	H 	0.11700 0.74950 0.09880 -0.00600
C 	C 	0.06780 0.74110 0.94590 -0.06200
C 	C 	0.05400 0.76330 0.84230 0.00600
H 	H 	0.02670 0.74750 0.78490 0.03800
C 	C 	0.08110 0.80910 0.82490 -0.12300
H 	H 	0.07330 0.82520 0.75200 0.04700
C 	C 	0.11960 0.83090 0.91560 0.04300
H 	H 	0.13790 0.86240 0.90400 -0.01600
C 	C 	0.03800 0.69150 0.96930 0.17200
C 	C 	0.03500 0.62160 0.05570 0.04000
H 	H 	0.00790 0.61460 0.10880 0.02400
C 	C 	0.05820 0.66240 0.97700 -0.06300
C 	C 	0.09790 0.67280 0.89910 0.01100
H 	H 	0.11460 0.70030 0.84370 0.01700
C 	C 	0.11240 0.64270 0.90360 -0.10300
H 	H 	0.13930 0.64900 0.85070 0.05200
C 	C 	0.08790 0.60290 0.98520 0.04400
H 	H 	0.09890 0.58260 0.98900 -0.02000
Ag	Ag	0.15060 0.34322 0.16353 0.48200
O 	O 	0.32394 0.32194 0.98040 -0.21700
N 	N 	0.19000 0.32244 0.01860 -0.19800
N 	N 	0.40832 0.45711 0.06040 -0.19700
C 	C 	0.23500 0.34230 0.03060 0.02900
H 	H 	0.25050 0.36750 0.09880 -0.00600
C 	C 	0.25890 0.32670 0.94590 -0.06200
C 	C 	0.23670 0.29070 0.84230 0.00600
H 	H 	0.25250 0.27920 0.78490 0.03800
C 	C 	0.19090 0.27200 0.82490 -0.12300
H 	H 	0.17480 0.24810 0.75200 0.04700
C 	C 	0.16910 0.28870 0.91560 0.04300
H 	H 	0.13760 0.27550 0.90400 -0.01600
C 	C 	0.30850 0.34650 0.96930 0.17200
C 	C 	0.37840 0.41340 0.05570 0.04000
H 	H 	0.38540 0.39330 0.10880 0.02400
C 	C 	0.33760 0.39580 0.97700 -0.06300
C 	C 	0.32720 0.42510 0.89910 0.01100
H 	H 	0.29970 0.41430 0.84370 0.01700
C 	C 	0.35730 0.46970 0.90360 -0.10300
H 	H 	0.35100 0.49030 0.85070 0.05200
C 	C 	0.39710 0.48500 0.98520 0.04400
H 	H 	0.41740 0.51630 0.98900 -0.02000
Ag	Ag	0.65678 0.80738 0.16353 0.48200
O 	O 	0.67806 0.00200 0.98040 -0.21700
N 	N 	0.67756 0.86756 0.01860 -0.19800
N 	N 	0.54289 0.95121 0.06040 -0.19700
C 	C 	0.65770 0.89270 0.03060 0.02900
H 	H 	0.63250 0.88300 0.09880 -0.00600
C 	C 	0.67330 0.93220 0.94590 -0.06200
C 	C 	0.70930 0.94600 0.84230 0.00600
H 	H 	0.72080 0.97330 0.78490 0.03800
C 	C 	0.72800 0.91890 0.82490 -0.12300
H 	H 	0.75190 0.92670 0.75200 0.04700
C 	C 	0.71130 0.88040 0.91560 0.04300
H 	H 	0.72450 0.86210 0.90400 -0.01600
C 	C 	0.65350 0.96200 0.96930 0.17200
C 	C 	0.58660 0.96500 0.05570 0.04000
H 	H 	0.60670 0.99210 0.10880 0.02400
C 	C 	0.60420 0.94180 0.97700 -0.06300
C 	C 	0.57490 0.90210 0.89910 0.01100
H 	H 	0.58570 0.88540 0.84370 0.01700
C 	C 	0.53030 0.88760 0.90360 -0.10300
H 	H 	0.50970 0.86070 0.85070 0.05200
C 	C 	0.51500 0.91210 0.98520 0.04400
H 	H 	0.48370 0.90110 0.98900 -0.02000
Ag	Ag	0.14071 0.81727 0.50314 0.48200
O 	O 	0.33533 0.99061 0.68627 -0.21700
N 	N 	0.20089 0.85667 0.64807 -0.19800
N 	N 	0.28454 0.07499 0.60627 -0.19700
C 	C 	0.22603 0.90167 0.63607 0.02900
H 	H 	0.21633 0.91717 0.56787 -0.00600
C 	C 	0.26553 0.92557 0.72077 -0.06200
C 	C 	0.27933 0.90337 0.82437 0.00600
H 	H 	0.30663 0.91917 0.88177 0.03800
C 	C 	0.25223 0.85757 0.84177 -0.12200
H 	H 	0.26003 0.84147 0.91467 0.04700
C 	C 	0.21373 0.83577 0.75107 0.04300
H 	H 	0.19543 0.80427 0.76267 -0.01600
C 	C 	0.29533 0.97517 0.69737 0.17200
C 	C 	0.29833 0.04507 0.61097 0.04000
H 	H 	0.32543 0.05207 0.55787 0.02400
C 	C 	0.27513 0.00427 0.68967 -0.06300
C 	C 	0.23543 0.99387 0.76757 0.01200
H 	H 	0.21873 0.96637 0.82297 0.01700
C 	C 	0.22093 0.02397 0.76307 -0.10300
H 	H 	0.19403 0.01767 0.81597 0.05100
C 	C 	0.24543 0.06377 0.68147 0.04400
H 	H 	0.23443 0.08407 0.67767 -0.02000
Ag	Ag	0.18273 0.32344 0.50314 0.48200
O 	O 	0.00939 0.34473 0.68627 -0.21700
N 	N 	0.14333 0.34423 0.64807 -0.19800
N 	N 	0.92501 0.20956 0.60627 -0.19700
C 	C 	0.09833 0.32437 0.63607 0.02900
H 	H 	0.08283 0.29917 0.56787 -0.00600
C 	C 	0.07443 0.33997 0.72077 -0.06200
C 	C 	0.09663 0.37597 0.82437 0.00600
H 	H 	0.08083 0.38747 0.88177 0.03800
C 	C 	0.14243 0.39467 0.84177 -0.12300
H 	H 	0.15853 0.41857 0.91467 0.04700
C 	C 	0.16423 0.37797 0.75107 0.04300
H 	H 	0.19573 0.39117 0.76267 -0.01600
C 	C 	0.02483 0.32017 0.69737 0.17300
C 	C 	0.95493 0.25327 0.61097 0.04000
H 	H 	0.94793 0.27337 0.55787 0.02400
C 	C 	0.99573 0.27087 0.68967 -0.06400
C 	C 	0.00613 0.24157 0.76757 0.01200
H 	H 	0.03363 0.25237 0.82297 0.01700
C 	C 	0.97603 0.19697 0.76307 -0.10300
H 	H 	0.98233 0.17637 0.81597 0.05100
C 	C 	0.93623 0.18167 0.68147 0.04400
H 	H 	0.91593 0.15037 0.67767 -0.02000
Ag	Ag	0.67656 0.85929 0.50314 0.48300
O 	O 	0.65527 0.66467 0.68627 -0.21700
N 	N 	0.65577 0.79911 0.64807 -0.19800
N 	N 	0.79044 0.71546 0.60627 -0.19700
C 	C 	0.67563 0.77397 0.63607 0.02900
H 	H 	0.70083 0.78367 0.56787 -0.00600
C 	C 	0.66003 0.73447 0.72077 -0.06200
C 	C 	0.62403 0.72067 0.82437 0.00600
H 	H 	0.61253 0.69337 0.88177 0.03800
C 	C 	0.60533 0.74777 0.84177 -0.12300
H 	H 	0.58143 0.73997 0.91467 0.04700
C 	C 	0.62203 0.78627 0.75107 0.04300
H 	H 	0.60883 0.80457 0.76267 -0.01600
C 	C 	0.67983 0.70467 0.69737 0.17200
C 	C 	0.74673 0.70167 0.61097 0.04000
H 	H 	0.72663 0.67457 0.55787 0.02400
C 	C 	0.72913 0.72487 0.68967 -0.06300
C 	C 	0.75843 0.76457 0.76757 0.01100
H 	H 	0.74763 0.78127 0.82297 0.01700
C 	C 	0.80303 0.77907 0.76307 -0.10300
H 	H 	0.82363 0.80597 0.81597 0.05100
C 	C 	0.81833 0.75457 0.68147 0.04400
H 	H 	0.84963 0.76557 0.67767 -0.02000
Ag	Ag	0.85929 0.18273 0.49686 0.48200
O 	O 	0.66467 0.00939 0.31373 -0.21700
N 	N 	0.79911 0.14333 0.35193 -0.19800
N 	N 	0.71546 0.92501 0.39373 -0.19700
C 	C 	0.77397 0.09833 0.36393 0.02900
H 	H 	0.78367 0.08283 0.43213 -0.00600
C 	C 	0.73447 0.07443 0.27923 -0.06200
C 	C 	0.72067 0.09663 0.17563 0.00600
H 	H 	0.69337 0.08083 0.11823 0.03800
C 	C 	0.74777 0.14243 0.15823 -0.12200
H 	H 	0.73997 0.15853 0.08533 0.04700
C 	C 	0.78627 0.16423 0.24893 0.04300
H 	H 	0.80457 0.19573 0.23733 -0.01600
C 	C 	0.70467 0.02483 0.30263 0.17200
C 	C 	0.70167 0.95493 0.38903 0.04000
H 	H 	0.67457 0.94793 0.44213 0.02400
C 	C 	0.72487 0.99573 0.31033 -0.06300
C 	C 	0.76457 0.00613 0.23243 0.01200
H 	H 	0.78127 0.03363 0.17703 0.01700
C 	C 	0.77907 0.97603 0.23693 -0.10300
H 	H 	0.80597 0.98233 0.18403 0.05100
C 	C 	0.75457 0.93623 0.31853 0.04400
H 	H 	0.76557 0.91593 0.32233 -0.02000
Ag	Ag	0.81727 0.67656 0.49686 0.48200
O 	O 	0.99061 0.65527 0.31373 -0.21700
N 	N 	0.85667 0.65577 0.35193 -0.19800
N 	N 	0.07499 0.79044 0.39373 -0.19700
C 	C 	0.90167 0.67563 0.36393 0.02900
H 	H 	0.91717 0.70083 0.43213 -0.00600
C 	C 	0.92557 0.66003 0.27923 -0.06200
C 	C 	0.90337 0.62403 0.17563 0.00600
H 	H 	0.91917 0.61253 0.11823 0.03800
C 	C 	0.85757 0.60533 0.15823 -0.12300
H 	H 	0.84147 0.58143 0.08533 0.04700
C 	C 	0.83577 0.62203 0.24893 0.04300
H 	H 	0.80427 0.60883 0.23733 -0.01600
C 	C 	0.97517 0.67983 0.30263 0.17300
C 	C 	0.04507 0.74673 0.38903 0.04000
H 	H 	0.05207 0.72663 0.44213 0.02400
C 	C 	0.00427 0.72913 0.31033 -0.06400
C 	C 	0.99387 0.75843 0.23243 0.01200
H 	H 	0.96637 0.74763 0.17703 0.01700
C 	C 	0.02397 0.80303 0.23693 -0.10300
H 	H 	0.01767 0.82363 0.18403 0.05100
C 	C 	0.06377 0.81833 0.31853 0.04400
H 	H 	0.08407 0.84963 0.32233 -0.02000
Ag	Ag	0.32344 0.14071 0.49686 0.48300
O 	O 	0.34473 0.33533 0.31373 -0.21700
N 	N 	0.34423 0.20089 0.35193 -0.19800
N 	N 	0.20956 0.28454 0.39373 -0.19700
C 	C 	0.32437 0.22603 0.36393 0.02900
H 	H 	0.29917 0.21633 0.43213 -0.00600
C 	C 	0.33997 0.26553 0.27923 -0.06200
C 	C 	0.37597 0.27933 0.17563 0.00600
H 	H 	0.38747 0.30663 0.11823 0.03800
C 	C 	0.39467 0.25223 0.15823 -0.12300
H 	H 	0.41857 0.26003 0.08533 0.04700
C 	C 	0.37797 0.21373 0.24893 0.04300
H 	H 	0.39117 0.19543 0.23733 -0.01600
C 	C 	0.32017 0.29533 0.30263 0.17200
C 	C 	0.25327 0.29833 0.38903 0.04000
H 	H 	0.27337 0.32543 0.44213 0.02400
C 	C 	0.27087 0.27513 0.31033 -0.06300
C 	C 	0.24157 0.23543 0.23243 0.01100
H 	H 	0.25237 0.21873 0.17703 0.01700
C 	C 	0.19697 0.22093 0.23693 -0.10300
H 	H 	0.17637 0.19403 0.18403 0.05100
C 	C 	0.18167 0.24543 0.31853 0.04400
H 	H 	0.15037 0.23443 0.32233 -0.02000
