data_crystal

_cell_length_a 34.53300
_cell_length_b 34.53300
_cell_length_c 8.47300
_cell_angle_alpha 90.00000
_cell_angle_beta  90.00000
_cell_angle_gamma 120.00000

_symmetry_space_group_name_	'P 1'
_symmetry_space_group_name_H-M	'P 1'

loop_
_symmetry_equiv_pos_as_xyz
  x,y,z

loop_
_atom_site_label
_atom_site_type_symbol
_atom_site_fract_x
_atom_site_fract_y
_atom_site_fract_z
_atom_site_charge
Ag	Ag	0.14518 0.31774 0.50581 0.47800
O 	O 	0.33328 0.32880 0.75160 -0.21300
N 	N 	0.20470 0.33780 0.65470 -0.20100
N 	N 	0.27650 0.19750 0.60360 -0.20200
C 	C 	0.21810 0.37280 0.75080 0.04900
H 	H 	0.20150 0.38740 0.75420 -0.02100
C 	C 	0.25550 0.38840 0.84560 -0.13400
H 	H 	0.26380 0.41280 0.91180 0.05300
C 	C 	0.28000 0.36750 0.84080 0.01400
H 	H 	0.30570 0.37790 0.90160 0.04000
C 	C 	0.26600 0.33010 0.74380 -0.07100
C 	C 	0.22800 0.31710 0.65280 0.04500
H 	H 	0.21840 0.29240 0.58710 -0.00600
C 	C 	0.29280 0.30740 0.73440 0.17300
C 	C 	0.27050 0.25850 0.70860 -0.06700
C 	C 	0.22840 0.22880 0.77440 0.01100
H 	H 	0.21250 0.23920 0.83170 0.01600
C 	C 	0.21180 0.18400 0.75080 -0.11400
H 	H 	0.18400 0.16330 0.79160 0.05600
C 	C 	0.23650 0.16940 0.66620 0.05000
H 	H 	0.22470 0.13890 0.65210 -0.02000
C 	C 	0.29330 0.24120 0.62860 0.04300
H 	H 	0.32170 0.26090 0.59020 0.01400
Ag	Ag	0.68226 0.82744 0.50581 0.47900
O 	O 	0.67120 0.00448 0.75160 -0.21200
N 	N 	0.66220 0.86690 0.65470 -0.20100
N 	N 	0.80250 0.07900 0.60360 -0.20100
C 	C 	0.62720 0.84530 0.75080 0.05000
H 	H 	0.61260 0.81410 0.75420 -0.02000
C 	C 	0.61160 0.86710 0.84560 -0.13300
H 	H 	0.58720 0.85100 0.91180 0.05400
C 	C 	0.63250 0.91250 0.84080 0.01500
H 	H 	0.62210 0.92780 0.90160 0.04000
C 	C 	0.66990 0.93590 0.74380 -0.07100
C 	C 	0.68290 0.91090 0.65280 0.04500
H 	H 	0.70760 0.92600 0.58710 -0.00600
C 	C 	0.69260 0.98540 0.73440 0.17300
C 	C 	0.74150 0.01200 0.70860 -0.06700
C 	C 	0.77120 0.99960 0.77440 0.01200
H 	H 	0.76080 0.97330 0.83170 0.01600
C 	C 	0.81600 0.02780 0.75080 -0.11400
H 	H 	0.83670 0.02070 0.79160 0.05600
C 	C 	0.83060 0.06710 0.66620 0.05000
H 	H 	0.86110 0.08580 0.65210 -0.02100
C 	C 	0.75880 0.05210 0.62860 0.04400
H 	H 	0.73910 0.06080 0.59020 0.01400
Ag	Ag	0.17256 0.85482 0.50581 0.47900
O 	O 	0.99552 0.66672 0.75160 -0.21200
N 	N 	0.13310 0.79530 0.65470 -0.20000
N 	N 	0.92100 0.72350 0.60360 -0.20100
C 	C 	0.15470 0.78190 0.75080 0.05000
H 	H 	0.18590 0.79850 0.75420 -0.02000
C 	C 	0.13290 0.74450 0.84560 -0.13300
H 	H 	0.14900 0.73620 0.91180 0.05500
C 	C 	0.08750 0.72000 0.84080 0.01400
H 	H 	0.07220 0.69430 0.90160 0.04000
C 	C 	0.06410 0.73400 0.74380 -0.07100
C 	C 	0.08910 0.77200 0.65280 0.04500
H 	H 	0.07400 0.78160 0.58710 -0.00600
C 	C 	0.01460 0.70720 0.73440 0.17300
C 	C 	0.98800 0.72950 0.70860 -0.06700
C 	C 	0.00040 0.77160 0.77440 0.01100
H 	H 	0.02670 0.78750 0.83170 0.01600
C 	C 	0.97220 0.78820 0.75080 -0.11400
H 	H 	0.97930 0.81600 0.79160 0.05600
C 	C 	0.93290 0.76350 0.66620 0.05000
H 	H 	0.91420 0.77530 0.65210 -0.02000
C 	C 	0.94790 0.70670 0.62860 0.04400
H 	H 	0.93920 0.67830 0.59020 0.01400
Ag	Ag	0.85482 0.68226 0.49419 0.47900
O 	O 	0.66672 0.67120 0.24840 -0.21200
N 	N 	0.79530 0.66220 0.34530 -0.20000
N 	N 	0.72350 0.80250 0.39640 -0.20100
C 	C 	0.78190 0.62720 0.24920 0.05000
H 	H 	0.79850 0.61260 0.24580 -0.02000
C 	C 	0.74450 0.61160 0.15440 -0.13300
H 	H 	0.73620 0.58720 0.08820 0.05400
C 	C 	0.72000 0.63250 0.15920 0.01400
H 	H 	0.69430 0.62210 0.09840 0.04000
C 	C 	0.73400 0.66990 0.25620 -0.07100
C 	C 	0.77200 0.68290 0.34720 0.04500
H 	H 	0.78160 0.70760 0.41290 -0.00600
C 	C 	0.70720 0.69260 0.26560 0.17300
C 	C 	0.72950 0.74150 0.29140 -0.06700
C 	C 	0.77160 0.77120 0.22560 0.01100
H 	H 	0.78750 0.76080 0.16830 0.01600
C 	C 	0.78820 0.81600 0.24920 -0.11400
H 	H 	0.81600 0.83670 0.20840 0.05600
C 	C 	0.76350 0.83060 0.33380 0.05000
H 	H 	0.77530 0.86110 0.34790 -0.02000
C 	C 	0.70670 0.75880 0.37140 0.04300
H 	H 	0.67830 0.73910 0.40980 0.01400
Ag	Ag	0.31774 0.17256 0.49419 0.47900
O 	O 	0.32880 0.99552 0.24840 -0.21200
N 	N 	0.33780 0.13310 0.34530 -0.20100
N 	N 	0.19750 0.92100 0.39640 -0.20100
C 	C 	0.37280 0.15470 0.24920 0.05000
H 	H 	0.38740 0.18590 0.24580 -0.02000
C 	C 	0.38840 0.13290 0.15440 -0.13300
H 	H 	0.41280 0.14900 0.08820 0.05400
C 	C 	0.36750 0.08750 0.15920 0.01500
H 	H 	0.37790 0.07220 0.09840 0.04000
C 	C 	0.33010 0.06410 0.25620 -0.07100
C 	C 	0.31710 0.08910 0.34720 0.04500
H 	H 	0.29240 0.07400 0.41290 -0.00600
C 	C 	0.30740 0.01460 0.26560 0.17300
C 	C 	0.25850 0.98800 0.29140 -0.06700
C 	C 	0.22880 0.00040 0.22560 0.01200
H 	H 	0.23920 0.02670 0.16830 0.01600
C 	C 	0.18400 0.97220 0.24920 -0.11400
H 	H 	0.16330 0.97930 0.20840 0.05600
C 	C 	0.16940 0.93290 0.33380 0.05000
H 	H 	0.13890 0.91420 0.34790 -0.02100
C 	C 	0.24120 0.94790 0.37140 0.04400
H 	H 	0.26090 0.93920 0.40980 0.01400
Ag	Ag	0.82744 0.14518 0.49419 0.47900
O 	O 	0.00448 0.33328 0.24840 -0.21200
N 	N 	0.86690 0.20470 0.34530 -0.20000
N 	N 	0.07900 0.27650 0.39640 -0.20100
C 	C 	0.84530 0.21810 0.24920 0.05000
H 	H 	0.81410 0.20150 0.24580 -0.02000
C 	C 	0.86710 0.25550 0.15440 -0.13300
H 	H 	0.85100 0.26380 0.08820 0.05500
C 	C 	0.91250 0.28000 0.15920 0.01400
H 	H 	0.92780 0.30570 0.09840 0.04000
C 	C 	0.93590 0.26600 0.25620 -0.07100
C 	C 	0.91090 0.22800 0.34720 0.04500
H 	H 	0.92600 0.21840 0.41290 -0.00600
C 	C 	0.98540 0.29280 0.26560 0.17300
C 	C 	0.01200 0.27050 0.29140 -0.06700
C 	C 	0.99960 0.22840 0.22560 0.01100
H 	H 	0.97330 0.21250 0.16830 0.01600
C 	C 	0.02780 0.21180 0.24920 -0.11400
H 	H 	0.02070 0.18400 0.20840 0.05600
C 	C 	0.06710 0.23650 0.33380 0.05000
H 	H 	0.08580 0.22470 0.34790 -0.02000
C 	C 	0.05210 0.29330 0.37140 0.04400
H 	H 	0.06080 0.32170 0.40980 0.01400
Ag	Ag	0.81185 0.65107 0.83914 0.47900
O 	O 	0.99995 0.66213 0.08493 -0.21200
N 	N 	0.87137 0.67113 0.98803 -0.20100
N 	N 	0.94317 0.53083 0.93693 -0.20100
C 	C 	0.88477 0.70613 0.08413 0.05000
H 	H 	0.86817 0.72073 0.08753 -0.02100
C 	C 	0.92217 0.72173 0.17893 -0.13300
H 	H 	0.93047 0.74613 0.24513 0.05400
C 	C 	0.94667 0.70083 0.17413 0.01400
H 	H 	0.97237 0.71123 0.23493 0.04000
C 	C 	0.93267 0.66343 0.07713 -0.07100
C 	C 	0.89467 0.65043 0.98613 0.04400
H 	H 	0.88507 0.62573 0.92043 -0.00600
C 	C 	0.95947 0.64073 0.06773 0.17300
C 	C 	0.93717 0.59183 0.04193 -0.06600
C 	C 	0.89507 0.56213 0.10773 0.01000
H 	H 	0.87917 0.57253 0.16503 0.01600
C 	C 	0.87847 0.51733 0.08413 -0.11200
H 	H 	0.85067 0.49663 0.12493 0.05600
C 	C 	0.90317 0.50273 0.99953 0.04800
H 	H 	0.89137 0.47223 0.98543 -0.02000
C 	C 	0.95997 0.57453 0.96193 0.04300
H 	H 	0.98837 0.59423 0.92353 0.01400
Ag	Ag	0.34893 0.16077 0.83914 0.47900
O 	O 	0.33787 0.33781 0.08493 -0.21200
N 	N 	0.32887 0.20023 0.98803 -0.20100
N 	N 	0.46917 0.41233 0.93693 -0.20100
C 	C 	0.29387 0.17863 0.08413 0.05000
H 	H 	0.27927 0.14743 0.08753 -0.02100
C 	C 	0.27827 0.20043 0.17893 -0.13300
H 	H 	0.25387 0.18433 0.24513 0.05400
C 	C 	0.29917 0.24583 0.17413 0.01400
H 	H 	0.28877 0.26113 0.23493 0.04000
C 	C 	0.33657 0.26923 0.07713 -0.07100
C 	C 	0.34957 0.24423 0.98613 0.04400
H 	H 	0.37427 0.25933 0.92043 -0.00600
C 	C 	0.35927 0.31873 0.06773 0.17300
C 	C 	0.40817 0.34533 0.04193 -0.06600
C 	C 	0.43787 0.33293 0.10773 0.01100
H 	H 	0.42747 0.30663 0.16503 0.01600
C 	C 	0.48267 0.36113 0.08413 -0.11300
H 	H 	0.50337 0.35403 0.12493 0.05600
C 	C 	0.49727 0.40043 0.99953 0.04900
H 	H 	0.52777 0.41913 0.98543 -0.02000
C 	C 	0.42547 0.38543 0.96193 0.04300
H 	H 	0.40577 0.39413 0.92353 0.01400
Ag	Ag	0.83923 0.18815 0.83914 0.47900
O 	O 	0.66219 0.00005 0.08493 -0.21200
N 	N 	0.79977 0.12863 0.98803 -0.20100
N 	N 	0.58767 0.05683 0.93693 -0.20100
C 	C 	0.82137 0.11523 0.08413 0.05000
H 	H 	0.85257 0.13183 0.08753 -0.02100
C 	C 	0.79957 0.07783 0.17893 -0.13300
H 	H 	0.81567 0.06953 0.24513 0.05400
C 	C 	0.75417 0.05333 0.17413 0.01400
H 	H 	0.73887 0.02763 0.23493 0.04000
C 	C 	0.73077 0.06733 0.07713 -0.07100
C 	C 	0.75577 0.10533 0.98613 0.04400
H 	H 	0.74067 0.11493 0.92043 -0.00600
C 	C 	0.68127 0.04053 0.06773 0.17300
C 	C 	0.65467 0.06283 0.04193 -0.06600
C 	C 	0.66707 0.10493 0.10773 0.01000
H 	H 	0.69337 0.12083 0.16503 0.01600
C 	C 	0.63887 0.12153 0.08413 -0.11200
H 	H 	0.64597 0.14933 0.12493 0.05600
C 	C 	0.59957 0.09683 0.99953 0.04800
H 	H 	0.58087 0.10863 0.98543 -0.02000
C 	C 	0.61457 0.04003 0.96193 0.04300
H 	H 	0.60587 0.01163 0.92353 0.01400
Ag	Ag	0.52149 0.01559 0.82752 0.47900
O 	O 	0.33339 0.00453 0.58173 -0.21200
N 	N 	0.46197 0.99553 0.67863 -0.20000
N 	N 	0.39017 0.13583 0.72973 -0.20100
C 	C 	0.44857 0.96053 0.58253 0.05000
H 	H 	0.46517 0.94593 0.57913 -0.02000
C 	C 	0.41117 0.94493 0.48773 -0.13300
H 	H 	0.40287 0.92053 0.42153 0.05400
C 	C 	0.38667 0.96583 0.49253 0.01400
H 	H 	0.36097 0.95543 0.43173 0.04000
C 	C 	0.40067 0.00323 0.58953 -0.07100
C 	C 	0.43867 0.01623 0.68053 0.04500
H 	H 	0.44827 0.04093 0.74623 -0.00600
C 	C 	0.37387 0.02593 0.59893 0.17300
C 	C 	0.39617 0.07483 0.62473 -0.06700
C 	C 	0.43827 0.10453 0.55893 0.01100
H 	H 	0.45417 0.09413 0.50163 0.01600
C 	C 	0.45487 0.14933 0.58253 -0.11400
H 	H 	0.48267 0.17003 0.54173 0.05600
C 	C 	0.43017 0.16393 0.66713 0.05000
H 	H 	0.44197 0.19443 0.68123 -0.02000
C 	C 	0.37337 0.09213 0.70473 0.04300
H 	H 	0.34497 0.07243 0.74313 0.01400
Ag	Ag	0.98441 0.50589 0.82752 0.47900
O 	O 	0.99547 0.32885 0.58173 -0.21200
N 	N 	0.00447 0.46643 0.67863 -0.20000
N 	N 	0.86417 0.25433 0.72973 -0.20100
C 	C 	0.03947 0.48803 0.58253 0.05000
H 	H 	0.05407 0.51923 0.57913 -0.02000
C 	C 	0.05507 0.46623 0.48773 -0.13300
H 	H 	0.07947 0.48233 0.42153 0.05400
C 	C 	0.03417 0.42083 0.49253 0.01400
H 	H 	0.04457 0.40553 0.43173 0.04000
C 	C 	0.99677 0.39743 0.58953 -0.07100
C 	C 	0.98377 0.42243 0.68053 0.04500
H 	H 	0.95907 0.40733 0.74623 -0.00600
C 	C 	0.97407 0.34793 0.59893 0.17300
C 	C 	0.92517 0.32133 0.62473 -0.06700
C 	C 	0.89547 0.33373 0.55893 0.01100
H 	H 	0.90587 0.36003 0.50163 0.01600
C 	C 	0.85067 0.30553 0.58253 -0.11400
H 	H 	0.82997 0.31263 0.54173 0.05600
C 	C 	0.83607 0.26623 0.66713 0.05000
H 	H 	0.80557 0.24753 0.68123 -0.02000
C 	C 	0.90787 0.28123 0.70473 0.04300
H 	H 	0.92757 0.27253 0.74313 0.01400
Ag	Ag	0.49411 0.47851 0.82752 0.47900
O 	O 	0.67115 0.66661 0.58173 -0.21200
N 	N 	0.53357 0.53803 0.67863 -0.20000
N 	N 	0.74567 0.60983 0.72973 -0.20100
C 	C 	0.51197 0.55143 0.58253 0.05000
H 	H 	0.48077 0.53483 0.57913 -0.02000
C 	C 	0.53377 0.58883 0.48773 -0.13300
H 	H 	0.51767 0.59713 0.42153 0.05400
C 	C 	0.57917 0.61333 0.49253 0.01400
H 	H 	0.59447 0.63903 0.43173 0.04000
C 	C 	0.60257 0.59933 0.58953 -0.07100
C 	C 	0.57757 0.56133 0.68053 0.04500
H 	H 	0.59267 0.55173 0.74623 -0.00600
C 	C 	0.65207 0.62613 0.59893 0.17300
C 	C 	0.67867 0.60383 0.62473 -0.06700
C 	C 	0.66627 0.56173 0.55893 0.01100
H 	H 	0.63997 0.54583 0.50163 0.01600
C 	C 	0.69447 0.54513 0.58253 -0.11400
H 	H 	0.68737 0.51733 0.54173 0.05600
C 	C 	0.73377 0.56983 0.66713 0.05000
H 	H 	0.75247 0.55803 0.68123 -0.02000
C 	C 	0.71877 0.62663 0.70473 0.04300
H 	H 	0.72747 0.65503 0.74313 0.01400
Ag	Ag	0.47851 0.98441 0.17248 0.47900
O 	O 	0.66661 0.99547 0.41827 -0.21200
N 	N 	0.53803 0.00447 0.32137 -0.20000
N 	N 	0.60983 0.86417 0.27027 -0.20100
C 	C 	0.55143 0.03947 0.41747 0.05000
H 	H 	0.53483 0.05407 0.42087 -0.02000
C 	C 	0.58883 0.05507 0.51227 -0.13300
H 	H 	0.59713 0.07947 0.57847 0.05400
C 	C 	0.61333 0.03417 0.50747 0.01400
H 	H 	0.63903 0.04457 0.56827 0.04000
C 	C 	0.59933 0.99677 0.41047 -0.07100
C 	C 	0.56133 0.98377 0.31947 0.04500
H 	H 	0.55173 0.95907 0.25377 -0.00600
C 	C 	0.62613 0.97407 0.40107 0.17300
C 	C 	0.60383 0.92517 0.37527 -0.06700
C 	C 	0.56173 0.89547 0.44107 0.01100
H 	H 	0.54583 0.90587 0.49837 0.01600
C 	C 	0.54513 0.85067 0.41747 -0.11400
H 	H 	0.51733 0.82997 0.45827 0.05600
C 	C 	0.56983 0.83607 0.33287 0.05000
H 	H 	0.55803 0.80557 0.31877 -0.02000
C 	C 	0.62663 0.90787 0.29527 0.04300
H 	H 	0.65503 0.92757 0.25687 0.01400
Ag	Ag	0.01559 0.49411 0.17248 0.47900
O 	O 	0.00453 0.67115 0.41827 -0.21200
N 	N 	0.99553 0.53357 0.32137 -0.20000
N 	N 	0.13583 0.74567 0.27027 -0.20100
C 	C 	0.96053 0.51197 0.41747 0.05000
H 	H 	0.94593 0.48077 0.42087 -0.02000
C 	C 	0.94493 0.53377 0.51227 -0.13300
H 	H 	0.92053 0.51767 0.57847 0.05400
C 	C 	0.96583 0.57917 0.50747 0.01400
H 	H 	0.95543 0.59447 0.56827 0.04000
C 	C 	0.00323 0.60257 0.41047 -0.07100
C 	C 	0.01623 0.57757 0.31947 0.04500
H 	H 	0.04093 0.59267 0.25377 -0.00600
C 	C 	0.02593 0.65207 0.40107 0.17300
C 	C 	0.07483 0.67867 0.37527 -0.06700
C 	C 	0.10453 0.66627 0.44107 0.01100
H 	H 	0.09413 0.63997 0.49837 0.01600
C 	C 	0.14933 0.69447 0.41747 -0.11400
H 	H 	0.17003 0.68737 0.45827 0.05600
C 	C 	0.16393 0.73377 0.33287 0.05000
H 	H 	0.19443 0.75247 0.31877 -0.02000
C 	C 	0.09213 0.71877 0.29527 0.04300
H 	H 	0.07243 0.72747 0.25687 0.01400
Ag	Ag	0.50589 0.52149 0.17248 0.47900
O 	O 	0.32885 0.33339 0.41827 -0.21200
N 	N 	0.46643 0.46197 0.32137 -0.20000
N 	N 	0.25433 0.39017 0.27027 -0.20100
C 	C 	0.48803 0.44857 0.41747 0.05000
H 	H 	0.51923 0.46517 0.42087 -0.02000
C 	C 	0.46623 0.41117 0.51227 -0.13300
H 	H 	0.48233 0.40287 0.57847 0.05400
C 	C 	0.42083 0.38667 0.50747 0.01400
H 	H 	0.40553 0.36097 0.56827 0.04000
C 	C 	0.39743 0.40067 0.41047 -0.07100
C 	C 	0.42243 0.43867 0.31947 0.04500
H 	H 	0.40733 0.44827 0.25377 -0.00600
C 	C 	0.34793 0.37387 0.40107 0.17300
C 	C 	0.32133 0.39617 0.37527 -0.06700
C 	C 	0.33373 0.43827 0.44107 0.01100
H 	H 	0.36003 0.45417 0.49837 0.01600
C 	C 	0.30553 0.45487 0.41747 -0.11400
H 	H 	0.31263 0.48267 0.45827 0.05600
C 	C 	0.26623 0.43017 0.33287 0.05000
H 	H 	0.24753 0.44197 0.31877 -0.02000
C 	C 	0.28123 0.37337 0.29527 0.04300
H 	H 	0.27253 0.34497 0.25687 0.01400
Ag	Ag	0.18815 0.34893 0.16086 0.47900
O 	O 	0.00005 0.33787 0.91507 -0.21200
N 	N 	0.12863 0.32887 0.01197 -0.20100
N 	N 	0.05683 0.46917 0.06307 -0.20100
C 	C 	0.11523 0.29387 0.91587 0.05000
H 	H 	0.13183 0.27927 0.91247 -0.02100
C 	C 	0.07783 0.27827 0.82107 -0.13300
H 	H 	0.06953 0.25387 0.75487 0.05400
C 	C 	0.05333 0.29917 0.82587 0.01400
H 	H 	0.02763 0.28877 0.76507 0.04000
C 	C 	0.06733 0.33657 0.92287 -0.07100
C 	C 	0.10533 0.34957 0.01387 0.04400
H 	H 	0.11493 0.37427 0.07957 -0.00600
C 	C 	0.04053 0.35927 0.93227 0.17300
C 	C 	0.06283 0.40817 0.95807 -0.06600
C 	C 	0.10493 0.43787 0.89227 0.01000
H 	H 	0.12083 0.42747 0.83497 0.01600
C 	C 	0.12153 0.48267 0.91587 -0.11200
H 	H 	0.14933 0.50337 0.87507 0.05600
C 	C 	0.09683 0.49727 0.00047 0.04800
H 	H 	0.10863 0.52777 0.01457 -0.02000
C 	C 	0.04003 0.42547 0.03807 0.04300
H 	H 	0.01163 0.40577 0.07647 0.01400
Ag	Ag	0.65107 0.83923 0.16086 0.47900
O 	O 	0.66213 0.66219 0.91507 -0.21200
N 	N 	0.67113 0.79977 0.01197 -0.20100
N 	N 	0.53083 0.58767 0.06307 -0.20100
C 	C 	0.70613 0.82137 0.91587 0.05000
H 	H 	0.72073 0.85257 0.91247 -0.02100
C 	C 	0.72173 0.79957 0.82107 -0.13300
H 	H 	0.74613 0.81567 0.75487 0.05400
C 	C 	0.70083 0.75417 0.82587 0.01400
H 	H 	0.71123 0.73887 0.76507 0.04000
C 	C 	0.66343 0.73077 0.92287 -0.07100
C 	C 	0.65043 0.75577 0.01387 0.04400
H 	H 	0.62573 0.74067 0.07957 -0.00600
C 	C 	0.64073 0.68127 0.93227 0.17300
C 	C 	0.59183 0.65467 0.95807 -0.06600
C 	C 	0.56213 0.66707 0.89227 0.01100
H 	H 	0.57253 0.69337 0.83497 0.01600
C 	C 	0.51733 0.63887 0.91587 -0.11300
H 	H 	0.49663 0.64597 0.87507 0.05600
C 	C 	0.50273 0.59957 0.00047 0.04900
H 	H 	0.47223 0.58087 0.01457 -0.02000
C 	C 	0.57453 0.61457 0.03807 0.04300
H 	H 	0.59423 0.60587 0.07647 0.01400
Ag	Ag	0.16077 0.81185 0.16086 0.47900
O 	O 	0.33781 0.99995 0.91507 -0.21200
N 	N 	0.20023 0.87137 0.01197 -0.20100
N 	N 	0.41233 0.94317 0.06307 -0.20100
C 	C 	0.17863 0.88477 0.91587 0.05000
H 	H 	0.14743 0.86817 0.91247 -0.02100
C 	C 	0.20043 0.92217 0.82107 -0.13300
H 	H 	0.18433 0.93047 0.75487 0.05400
C 	C 	0.24583 0.94667 0.82587 0.01400
H 	H 	0.26113 0.97237 0.76507 0.04000
C 	C 	0.26923 0.93267 0.92287 -0.07100
C 	C 	0.24423 0.89467 0.01387 0.04400
H 	H 	0.25933 0.88507 0.07957 -0.00600
C 	C 	0.31873 0.95947 0.93227 0.17300
C 	C 	0.34533 0.93717 0.95807 -0.06600
C 	C 	0.33293 0.89507 0.89227 0.01000
H 	H 	0.30663 0.87917 0.83497 0.01600
C 	C 	0.36113 0.87847 0.91587 -0.11200
H 	H 	0.35403 0.85067 0.87507 0.05600
C 	C 	0.40043 0.90317 0.00047 0.04800
H 	H 	0.41913 0.89137 0.01457 -0.02000
C 	C 	0.38543 0.95997 0.03807 0.04300
H 	H 	0.39413 0.98837 0.07647 0.01400
