data_crystal

_cell_length_a 12.79300
_cell_length_b 14.74000
_cell_length_c 15.18300
_cell_angle_alpha 90.00000
_cell_angle_beta  90.00000
_cell_angle_gamma 90.00000

_symmetry_space_group_name_	'P 1'
_symmetry_space_group_name_H-M	'P 1'

loop_
_symmetry_equiv_pos_as_xyz
  x,y,z

loop_
_atom_site_label
_atom_site_type_symbol
_atom_site_fract_x
_atom_site_fract_y
_atom_site_fract_z
_atom_site_charge
Mn	Mn	0.25747 0.71786 0.77420 1.30000
Mn	Mn	0.06008 0.58675 0.91327 1.21700
Mn	Mn	0.24253 0.28214 0.27420 1.30000
Mn	Mn	0.43992 0.41325 0.41327 1.21700
Mn	Mn	0.74253 0.21786 0.72580 1.30100
Mn	Mn	0.93992 0.08675 0.58673 1.21800
Mn	Mn	0.75747 0.78214 0.22580 1.30100
Mn	Mn	0.56008 0.91325 0.08673 1.21800
H 	H 	0.45870 0.70440 0.00550 -0.02500
H 	H 	0.51080 0.56150 0.22510 -0.01900
H 	H 	0.28530 0.48320 0.05960 -0.00600
H 	H 	0.04130 0.29560 0.50550 -0.02500
H 	H 	0.98920 0.43850 0.72510 -0.01900
H 	H 	0.21470 0.51680 0.55960 -0.00600
H 	H 	0.54130 0.20440 0.49450 -0.02500
H 	H 	0.48920 0.06150 0.27490 -0.01800
H 	H 	0.71470 0.98320 0.44040 -0.00600
H 	H 	0.95870 0.79560 0.99450 -0.02400
H 	H 	0.01080 0.93850 0.77490 -0.02200
H 	H 	0.78530 0.01680 0.94040 -0.00900
C 	C 	0.30280 0.60790 0.93400 0.42100
C 	C 	0.36340 0.59530 0.01740 -0.20500
C 	C 	0.44260 0.65550 0.04180 0.13400
C 	C 	0.49680 0.64320 0.11890 -0.21600
C 	C 	0.47330 0.57030 0.17340 0.13900
C 	C 	0.39390 0.51040 0.15060 -0.21400
C 	C 	0.33910 0.52290 0.07410 0.13500
C 	C 	0.58420 0.70640 0.14350 0.40800
C 	C 	0.37040 0.43140 0.21080 0.45400
C 	C 	0.19720 0.39210 0.43400 0.42100
C 	C 	0.13660 0.40470 0.51740 -0.20500
C 	C 	0.05740 0.34450 0.54180 0.13400
C 	C 	0.00320 0.35680 0.61890 -0.21500
C 	C 	0.02670 0.42970 0.67340 0.13900
C 	C 	0.10610 0.48960 0.65060 -0.21400
C 	C 	0.16090 0.47710 0.57410 0.13500
C 	C 	0.91580 0.29360 0.64350 0.40700
C 	C 	0.12960 0.56860 0.71080 0.45400
C 	C 	0.69720 0.10790 0.56600 0.42100
C 	C 	0.63660 0.09530 0.48260 -0.20500
C 	C 	0.55740 0.15550 0.45820 0.13400
C 	C 	0.50320 0.14320 0.38110 -0.21600
C 	C 	0.52670 0.07030 0.32660 0.13900
C 	C 	0.60610 0.01040 0.34940 -0.21300
C 	C 	0.66090 0.02290 0.42590 0.13400
C 	C 	0.41580 0.20640 0.35650 0.40800
C 	C 	0.62960 0.93140 0.28920 0.45300
C 	C 	0.80280 0.89210 0.06600 0.41900
C 	C 	0.86340 0.90470 0.98260 -0.20500
C 	C 	0.94260 0.84450 0.95820 0.13400
C 	C 	0.99680 0.85680 0.88110 -0.21600
C 	C 	0.97330 0.92970 0.82660 0.14400
C 	C 	0.89390 0.98960 0.84940 -0.21500
C 	C 	0.83910 0.97710 0.92590 0.13900
C 	C 	0.08420 0.79360 0.85650 0.40600
C 	C 	0.87040 0.06860 0.78920 0.45300
Cl	Cl	0.38735 0.79591 0.69597 -0.52600
Cl	Cl	0.11265 0.20409 0.19597 -0.52400
Cl	Cl	0.61265 0.29591 0.80403 -0.52600
Cl	Cl	0.88735 0.70409 0.30403 -0.52700
O 	O 	0.33630 0.66780 0.88119 -0.48000
O 	O 	0.22510 0.55858 0.92130 -0.50000
O 	O 	0.60380 0.77157 0.09320 -0.52700
O 	O 	0.63540 0.69000 0.21140 -0.47400
O 	O 	0.42950 0.41690 0.27292 -0.53100
O 	O 	0.29190 0.38480 0.19200 -0.48500
O 	O 	0.16370 0.33220 0.38119 -0.48000
O 	O 	0.27490 0.44142 0.42130 -0.49900
O 	O 	0.89620 0.22843 0.59320 -0.52700
O 	O 	0.86460 0.31000 0.71140 -0.47400
O 	O 	0.07050 0.58310 0.77292 -0.53100
O 	O 	0.20810 0.61520 0.69200 -0.48600
O 	O 	0.66370 0.16780 0.61881 -0.48000
O 	O 	0.77490 0.05858 0.57870 -0.50000
O 	O 	0.39620 0.27157 0.40680 -0.52700
O 	O 	0.36460 0.19000 0.28860 -0.47400
O 	O 	0.57050 0.91690 0.22708 -0.53100
O 	O 	0.70810 0.88480 0.30800 -0.48500
O 	O 	0.83630 0.83220 0.11881 -0.48100
O 	O 	0.72510 0.94142 0.07870 -0.50000
O 	O 	0.10380 0.72843 0.90680 -0.52700
O 	O 	0.13540 0.81000 0.78860 -0.47400
O 	O 	0.92950 0.08310 0.72708 -0.53200
O 	O 	0.79190 0.11520 0.80800 -0.48600
