data_crystal

_cell_length_a 16.54130
_cell_length_b 16.59570
_cell_length_c 16.59570
_cell_angle_alpha 70.46250
_cell_angle_beta  70.59510
_cell_angle_gamma 109.40500

_symmetry_space_group_name_	'P 1'
_symmetry_space_group_name_H-M	'P 1'

loop_
_symmetry_equiv_pos_as_xyz
  x,y,z

loop_
_atom_site_label
_atom_site_type_symbol
_atom_site_fract_x
_atom_site_fract_y
_atom_site_fract_z
_atom_site_charge
Fe	Fe	0.07241 0.59857 0.40143 1.14400
Fe	Fe	0.47384 0.40143 -0.00000 1.13200
Fe	Fe	0.47384 1.00000 0.59857 1.14000
Fe	Fe	0.52616 0.00000 0.40143 1.13900
Fe	Fe	0.52616 0.59857 -0.00000 1.13100
Fe	Fe	0.92759 0.40143 0.59857 1.13500
H 	H 	0.96910 0.50360 0.23250 0.01300
H 	H 	0.04000 0.36230 0.17400 -0.11400
H 	H 	0.17040 0.35010 0.07300 0.31400
H 	H 	0.20160 0.23250 0.26390 0.03700
H 	H 	0.21400 0.17400 0.46370 0.05100
H 	H 	0.24340 0.07300 0.57690 0.05000
H 	H 	0.46550 0.26390 0.50360 0.04300
H 	H 	0.67770 0.46370 0.36230 0.06400
H 	H 	0.82030 0.57690 0.35010 0.03400
H 	H 	0.79840 0.26390 0.23250 0.01400
H 	H 	0.78600 0.46370 0.17400 -0.11300
H 	H 	0.75660 0.57690 0.07300 0.30300
H 	H 	0.53450 0.50360 0.26390 0.03900
H 	H 	0.32230 0.36230 0.46370 0.06100
H 	H 	0.17970 0.35010 0.57690 0.03700
H 	H 	0.03090 0.23250 0.50360 0.04200
H 	H 	0.96000 0.17400 0.36230 0.04100
H 	H 	0.82960 0.07300 0.35010 0.06100
H 	H 	0.03090 0.49640 0.76750 0.07000
H 	H 	0.96000 0.63770 0.82600 0.22300
H 	H 	0.82960 0.64990 0.92700 -0.22100
H 	H 	0.79840 0.76750 0.73610 0.04700
H 	H 	0.78600 0.82600 0.53630 0.07200
H 	H 	0.75660 0.92700 0.42310 0.02000
H 	H 	0.53450 0.73610 0.49640 0.04100
H 	H 	0.32230 0.53630 0.63770 0.05200
H 	H 	0.17970 0.42310 0.64990 0.04800
H 	H 	0.20160 0.73610 0.76750 0.06900
H 	H 	0.21400 0.53630 0.82600 0.23400
H 	H 	0.24340 0.42310 0.92700 -0.23000
H 	H 	0.46550 0.49640 0.73610 0.04600
H 	H 	0.67770 0.63770 0.53630 0.05400
H 	H 	0.82030 0.64990 0.42310 0.04600
H 	H 	0.96910 0.76750 0.49640 0.04100
H 	H 	0.04000 0.82600 0.63770 0.06600
H 	H 	0.17040 0.92700 0.64990 0.03600
H 	H 	0.75460 0.25460 0.49080 0.02300
H 	H 	0.24540 0.49080 0.25460 0.03100
H 	H 	0.50000 0.25460 0.25460 0.03200
H 	H 	0.24540 0.74540 0.50920 0.04300
H 	H 	0.75460 0.50920 0.74540 0.03600
H 	H 	0.50000 0.74540 0.74540 0.03500
C 	C 	0.90490 0.43080 0.42340 0.39800
C 	C 	0.87090 0.38500 0.36920 -0.15100
C 	C 	0.91820 0.43660 0.26720 0.06100
C 	C 	0.03450 0.44650 0.05360 -0.34100
C 	C 	0.06830 0.39360 0.10420 0.44600
C 	C 	0.14910 0.39110 0.04170 -0.86100
C 	C 	0.32830 0.42340 0.14580 0.38600
C 	C 	0.24010 0.36920 0.24580 -0.12000
C 	C 	0.18540 0.26720 0.29620 -0.00100
C 	C 	0.08810 0.05360 0.49990 -0.00500
C 	C 	0.17250 0.10420 0.50220 -0.04800
C 	C 	0.19080 0.04170 0.56720 -0.04700
C 	C 	0.47410 0.14580 0.43080 0.38500
C 	C 	0.48590 0.24580 0.38500 -0.11400
C 	C 	0.48160 0.29620 0.43660 -0.00900
C 	C 	0.58800 0.49990 0.44650 0.02200
C 	C 	0.67470 0.50220 0.39360 -0.08000
C 	C 	0.75800 0.56720 0.39110 -0.01000
C 	C 	0.67170 0.14580 0.42340 0.39800
C 	C 	0.75990 0.24580 0.36920 -0.15000
C 	C 	0.81460 0.29620 0.26720 0.06100
C 	C 	0.91190 0.49990 0.05360 -0.34100
C 	C 	0.82750 0.50220 0.10420 0.43000
C 	C 	0.80920 0.56720 0.04170 -0.83300
C 	C 	0.52590 0.43080 0.14580 0.38500
C 	C 	0.51410 0.38500 0.24580 -0.11700
C 	C 	0.51840 0.43660 0.29620 -0.00900
C 	C 	0.41200 0.44650 0.49990 0.02200
C 	C 	0.32530 0.39360 0.50220 -0.07800
C 	C 	0.24200 0.39110 0.56720 -0.00900
C 	C 	0.09510 0.42340 0.43080 0.38600
C 	C 	0.12910 0.36920 0.38500 -0.11700
C 	C 	0.08180 0.26720 0.43660 -0.00000
C 	C 	0.96550 0.05360 0.44650 -0.02800
C 	C 	0.93170 0.10420 0.39360 -0.02600
C 	C 	0.85090 0.04170 0.39110 -0.09000
C 	C 	0.09510 0.56920 0.57660 0.37100
C 	C 	0.12910 0.61500 0.63080 -0.07800
C 	C 	0.08180 0.56340 0.73280 -0.07900
C 	C 	0.96550 0.55350 0.94640 0.36000
C 	C 	0.93170 0.60640 0.89580 -0.56400
C 	C 	0.85090 0.60890 0.95830 0.77800
C 	C 	0.67170 0.57660 0.85420 0.38200
C 	C 	0.75990 0.63080 0.75420 -0.10800
C 	C 	0.81460 0.73280 0.70380 -0.01800
C 	C 	0.91190 0.94640 0.50010 0.04600
C 	C 	0.82750 0.89580 0.49780 -0.11000
C 	C 	0.80920 0.95830 0.43280 0.03500
C 	C 	0.52590 0.85420 0.56920 0.38400
C 	C 	0.51410 0.75420 0.61500 -0.11500
C 	C 	0.51840 0.70380 0.56340 -0.00900
C 	C 	0.41200 0.50010 0.55350 0.00700
C 	C 	0.32530 0.49780 0.60640 -0.05500
C 	C 	0.24200 0.43280 0.60890 -0.04400
C 	C 	0.32830 0.85420 0.57660 0.37100
C 	C 	0.24010 0.75420 0.63080 -0.07900
C 	C 	0.18540 0.70380 0.73280 -0.07900
C 	C 	0.08810 0.50010 0.94640 0.37900
C 	C 	0.17250 0.49780 0.89580 -0.58200
C 	C 	0.19080 0.43280 0.95830 0.81000
C 	C 	0.47410 0.56920 0.85420 0.38300
C 	C 	0.48590 0.61500 0.75420 -0.11100
C 	C 	0.48160 0.56340 0.70380 -0.01000
C 	C 	0.58800 0.55350 0.50010 0.00700
C 	C 	0.67470 0.60640 0.49780 -0.05700
C 	C 	0.75800 0.60890 0.43280 -0.04400
C 	C 	0.90490 0.57660 0.56920 0.38300
C 	C 	0.87090 0.63080 0.61500 -0.11200
C 	C 	0.91820 0.73280 0.56340 -0.01800
C 	C 	0.03450 0.94640 0.55350 0.04200
C 	C 	0.06830 0.89580 0.60640 -0.08600
C 	C 	0.14910 0.95830 0.60890 -0.00500
C 	C 	0.78960 0.28960 0.42080 0.08000
C 	C 	0.89310 0.39310 0.21380 -0.11300
C 	C 	0.94850 0.44850 0.10300 0.21000
C 	C 	0.21040 0.42080 0.28960 0.05200
C 	C 	0.10690 0.21380 0.39310 -0.01300
C 	C 	0.05150 0.10300 0.44850 0.00200
C 	C 	0.50000 0.28960 0.28960 0.04800
C 	C 	0.50000 0.39310 0.39310 -0.00200
C 	C 	0.50000 0.44850 0.44850 -0.03400
C 	C 	0.21040 0.71040 0.57920 0.01200
C 	C 	0.10690 0.60690 0.78620 0.10600
C 	C 	0.05150 0.55150 0.89700 -0.26700
C 	C 	0.78960 0.57920 0.71040 0.04000
C 	C 	0.89310 0.78620 0.60690 0.00600
C 	C 	0.94850 0.89700 0.55150 -0.05800
C 	C 	0.50000 0.71040 0.71040 0.04300
C 	C 	0.50000 0.60690 0.60690 -0.00500
C 	C 	0.50000 0.55150 0.55150 -0.02300
O 	O 	0.97077 0.51909 0.37438 -0.47500
O 	O 	0.86260 0.37680 0.51640 -0.45300
O 	O 	0.34515 0.37438 0.10653 -0.47300
O 	O 	0.37900 0.51640 0.10680 -0.45300
O 	O 	0.45168 0.10653 0.51909 -0.46500
O 	O 	0.48580 0.10680 0.37680 -0.45000
O 	O 	0.65485 0.10653 0.37438 -0.47100
O 	O 	0.62100 0.10680 0.51640 -0.45100
O 	O 	0.54832 0.51909 0.10653 -0.47300
O 	O 	0.51420 0.37680 0.10680 -0.45300
O 	O 	0.02923 0.37438 0.51909 -0.46100
O 	O 	0.13740 0.51640 0.37680 -0.44900
O 	O 	0.02923 0.48091 0.62562 -0.45800
O 	O 	0.13740 0.62320 0.48360 -0.44500
O 	O 	0.65485 0.62562 0.89347 -0.45500
O 	O 	0.62100 0.48360 0.89320 -0.44100
O 	O 	0.54832 0.89347 0.48091 -0.46700
O 	O 	0.51420 0.89320 0.62320 -0.44800
O 	O 	0.34515 0.89347 0.62562 -0.46200
O 	O 	0.37900 0.89320 0.48360 -0.44700
O 	O 	0.45168 0.48091 0.89347 -0.45400
O 	O 	0.48580 0.62320 0.89320 -0.44100
O 	O 	0.97077 0.62562 0.48091 -0.47100
O 	O 	0.86260 0.48360 0.62320 -0.45000
