data_crystal

_cell_length_a 6.72000
_cell_length_b 9.49400
_cell_length_c 10.68200
_cell_angle_alpha 111.97900
_cell_angle_beta  96.87900
_cell_angle_gamma 106.67800

_symmetry_space_group_name_	'P 1'
_symmetry_space_group_name_H-M	'P 1'

loop_
_symmetry_equiv_pos_as_xyz
  x,y,z

loop_
_atom_site_label
_atom_site_type_symbol
_atom_site_fract_x
_atom_site_fract_y
_atom_site_fract_z
_atom_site_charge
Cu	Cu	0.16819 0.39624 0.29210 0.77000
Cu	Cu	0.01050 0.14908 0.76927 0.76500
C 	C 	0.14420 0.72260 0.30980 -0.38000
C 	C 	0.27550 0.11630 0.33140 -0.35400
C 	C 	0.05590 0.23250 0.96860 -0.27200
C 	C 	0.22350 0.08860 0.67220 -0.23900
C 	C 	0.11890 0.59480 0.29720 -0.23100
C 	C 	0.09190 0.28910 0.08780 -0.22400
C 	C 	0.24770 0.21780 0.30920 -0.24200
C 	C 	0.35210 0.05680 0.62000 -0.37200
Cu	Cu	0.35954 0.96358 0.39001 0.73500
N 	N 	0.85580 0.27740 0.69020 -0.29500
N 	N 	0.72450 0.88370 0.66860 -0.28600
N 	N 	0.64790 0.94320 0.38000 -0.29100
Cu	Cu	0.83181 0.60376 0.70790 0.77200
Cu	Cu	0.98950 0.85092 0.23073 0.77300
C 	C 	0.94410 0.76750 0.03140 -0.27300
C 	C 	0.77650 0.91140 0.32780 -0.29000
C 	C 	0.88110 0.40520 0.70280 -0.28200
C 	C 	0.90810 0.71090 0.91220 -0.22600
C 	C 	0.75230 0.78220 0.69080 -0.28800
Cu	Cu	0.64046 0.03642 0.60999 0.73000
