data_crystal

_cell_length_a 9.50900
_cell_length_b 15.18000
_cell_length_c 12.24600
_cell_angle_alpha 90.00000
_cell_angle_beta  93.83500
_cell_angle_gamma 90.00000

_symmetry_space_group_name_	'P 1'
_symmetry_space_group_name_H-M	'P 1'

loop_
_symmetry_equiv_pos_as_xyz
  x,y,z

loop_
_atom_site_label
_atom_site_type_symbol
_atom_site_fract_x
_atom_site_fract_y
_atom_site_fract_z
_atom_site_charge
Zn	Zn	0.14215 0.07827 0.44761 1.24100
O 	O 	0.97616 0.07106 0.34236 -0.45100
O 	O 	0.31380 0.06654 0.37070 -0.41300
O 	O 	0.82106 0.02645 0.45990 -0.47600
O 	O 	0.58776 0.32560 0.04185 -0.42800
C 	C 	0.51920 0.20645 0.20338 0.03600
H 	H 	0.44690 0.24000 0.16940 0.05800
C 	C 	0.34050 0.13600 0.31792 0.32900
O 	O 	0.25548 0.19676 0.29921 -0.27900
C 	C 	0.48800 0.14399 0.28116 -0.08200
C 	C 	0.73560 0.10802 0.30724 -0.11200
C 	C 	0.59620 0.09459 0.33271 0.05100
H 	H 	0.57570 0.05240 0.38440 0.05500
C 	C 	0.65760 0.21942 0.17573 -0.08500
C 	C 	0.85300 0.06370 0.37421 0.40800
O 	O 	0.81628 0.31415 0.08961 -0.27800
C 	C 	0.76540 0.16964 0.22781 0.04800
H 	H 	0.85780 0.17760 0.20940 0.05600
C 	C 	0.69190 0.29087 0.09680 0.32900
Zn	Zn	0.35785 0.57827 0.05239 1.24100
O 	O 	0.52384 0.57106 0.15764 -0.45400
O 	O 	0.18620 0.56654 0.12930 -0.41400
O 	O 	0.67894 0.52645 0.04010 -0.47800
O 	O 	0.91224 0.82560 0.45815 -0.43000
C 	C 	0.98080 0.70645 0.29662 0.03300
H 	H 	0.05310 0.74000 0.33060 0.06000
C 	C 	0.15950 0.63600 0.18208 0.32900
O 	O 	0.24452 0.69676 0.20079 -0.27800
C 	C 	0.01200 0.64399 0.21884 -0.08100
C 	C 	0.76440 0.60802 0.19276 -0.11300
C 	C 	0.90380 0.59459 0.16729 0.05000
H 	H 	0.92430 0.55240 0.11560 0.05500
C 	C 	0.84240 0.71942 0.32427 -0.08400
C 	C 	0.64700 0.56370 0.12579 0.40800
O 	O 	0.68372 0.81415 0.41039 -0.27900
C 	C 	0.73460 0.66964 0.27219 0.04700
H 	H 	0.64220 0.67760 0.29060 0.05500
C 	C 	0.80810 0.79087 0.40320 0.32800
Zn	Zn	0.85785 0.92173 0.55239 1.24000
O 	O 	0.02384 0.92894 0.65764 -0.45200
O 	O 	0.68620 0.93346 0.62930 -0.41400
O 	O 	0.17894 0.97355 0.54010 -0.47700
O 	O 	0.41224 0.67440 0.95815 -0.42800
C 	C 	0.48080 0.79355 0.79662 0.03600
H 	H 	0.55310 0.76000 0.83060 0.05800
C 	C 	0.65950 0.86400 0.68208 0.32900
O 	O 	0.74452 0.80324 0.70079 -0.27900
C 	C 	0.51200 0.85601 0.71884 -0.08200
C 	C 	0.26440 0.89198 0.69276 -0.11200
C 	C 	0.40380 0.90541 0.66729 0.05100
H 	H 	0.42430 0.94760 0.61560 0.05500
C 	C 	0.34240 0.78058 0.82427 -0.08500
C 	C 	0.14700 0.93630 0.62579 0.40800
O 	O 	0.18372 0.68585 0.91039 -0.27800
C 	C 	0.23460 0.83036 0.77219 0.04800
H 	H 	0.14220 0.82240 0.79060 0.05600
C 	C 	0.30810 0.70913 0.90320 0.32900
Zn	Zn	0.64215 0.42173 0.94761 1.24100
O 	O 	0.47616 0.42894 0.84236 -0.45400
O 	O 	0.81380 0.43346 0.87070 -0.41400
O 	O 	0.32106 0.47355 0.95990 -0.47800
O 	O 	0.08776 0.17440 0.54185 -0.43000
C 	C 	0.01920 0.29355 0.70338 0.03300
H 	H 	0.94690 0.26000 0.66940 0.06000
C 	C 	0.84050 0.36400 0.81792 0.32900
O 	O 	0.75548 0.30324 0.79921 -0.27800
C 	C 	0.98800 0.35601 0.78116 -0.08100
C 	C 	0.23560 0.39198 0.80724 -0.11300
C 	C 	0.09620 0.40541 0.83271 0.05000
H 	H 	0.07570 0.44760 0.88440 0.05500
C 	C 	0.15760 0.28058 0.67573 -0.08400
C 	C 	0.35300 0.43630 0.87421 0.40800
O 	O 	0.31628 0.18585 0.58961 -0.27900
C 	C 	0.26540 0.33036 0.72781 0.04700
H 	H 	0.35780 0.32240 0.70940 0.05500
C 	C 	0.19190 0.20913 0.59680 0.32800
