data_crystal

_cell_length_a 9.46000
_cell_length_b 15.98000
_cell_length_c 11.57400
_cell_angle_alpha 90.00000
_cell_angle_beta  93.89000
_cell_angle_gamma 90.00000

_symmetry_space_group_name_	'P 1'
_symmetry_space_group_name_H-M	'P 1'

loop_
_symmetry_equiv_pos_as_xyz
  x,y,z

loop_
_atom_site_label
_atom_site_type_symbol
_atom_site_fract_x
_atom_site_fract_y
_atom_site_fract_z
_atom_site_charge
Zn	Zn	0.14276 0.91881 0.45022 1.24200
O 	O 	0.98030 0.93190 0.33500 -0.44700
O 	O 	0.25550 0.81400 0.29250 -0.27700
O 	O 	0.31650 0.93540 0.37060 -0.41500
C 	C 	0.59870 0.91240 0.32320 0.06200
H 	H 	0.57890 0.95620 0.37250 0.05000
O 	O 	0.58720 0.67260 0.04590 -0.42800
C 	C 	0.34560 0.87190 0.31380 0.33400
O 	O 	0.82170 0.98380 0.45070 -0.47500
C 	C 	0.76710 0.83630 0.22060 0.06600
H 	H 	0.86030 0.82760 0.20280 0.04900
C 	C 	0.52190 0.80080 0.19750 0.05100
H 	H 	0.44890 0.76730 0.16570 0.05500
C 	C 	0.49060 0.86260 0.27400 -0.09700
C 	C 	0.73920 0.89540 0.29710 -0.12800
C 	C 	0.69330 0.71760 0.08700 0.33000
C 	C 	0.65920 0.78670 0.16590 -0.09900
C 	C 	0.85450 0.94180 0.36430 0.40600
O 	O 	0.81670 0.70320 0.06460 -0.27800
Zn	Zn	0.35724 0.41881 0.04978 1.24400
O 	O 	0.51970 0.43190 0.16500 -0.44900
O 	O 	0.24450 0.31400 0.20750 -0.27500
O 	O 	0.18350 0.43540 0.12940 -0.41400
C 	C 	0.90130 0.41240 0.17680 0.06200
H 	H 	0.92110 0.45620 0.12750 0.05000
O 	O 	0.91280 0.17260 0.45410 -0.43000
C 	C 	0.15440 0.37190 0.18620 0.33400
O 	O 	0.67830 0.48380 0.04930 -0.47600
C 	C 	0.73290 0.33630 0.27940 0.06600
H 	H 	0.63970 0.32760 0.29720 0.04800
C 	C 	0.97810 0.30080 0.30250 0.04900
H 	H 	0.05110 0.26730 0.33430 0.05600
C 	C 	0.00940 0.36260 0.22600 -0.09700
C 	C 	0.76080 0.39540 0.20290 -0.12800
C 	C 	0.80670 0.21760 0.41300 0.33000
C 	C 	0.84080 0.28670 0.33410 -0.09900
C 	C 	0.64550 0.44180 0.13570 0.40600
O 	O 	0.68330 0.20320 0.43540 -0.28000
Zn	Zn	0.85724 0.08119 0.54978 1.24300
O 	O 	0.01970 0.06810 0.66500 -0.44600
O 	O 	0.74450 0.18600 0.70750 -0.27600
O 	O 	0.68350 0.06460 0.62940 -0.41400
C 	C 	0.40130 0.08760 0.67680 0.06200
H 	H 	0.42110 0.04380 0.62750 0.05000
O 	O 	0.41280 0.32740 0.95410 -0.42800
C 	C 	0.65440 0.12810 0.68620 0.33400
O 	O 	0.17830 0.01620 0.54930 -0.47500
C 	C 	0.23290 0.16370 0.77940 0.06600
H 	H 	0.13970 0.17240 0.79720 0.04900
C 	C 	0.47810 0.19920 0.80250 0.05100
H 	H 	0.55110 0.23270 0.83430 0.05500
C 	C 	0.50940 0.13740 0.72600 -0.09700
C 	C 	0.26080 0.10460 0.70290 -0.12800
C 	C 	0.30670 0.28240 0.91300 0.33000
C 	C 	0.34080 0.21330 0.83410 -0.09900
C 	C 	0.14550 0.05820 0.63570 0.40600
O 	O 	0.18330 0.29680 0.93540 -0.27800
Zn	Zn	0.64276 0.58119 0.95022 1.24400
O 	O 	0.48030 0.56810 0.83500 -0.44900
O 	O 	0.75550 0.68600 0.79250 -0.27500
O 	O 	0.81650 0.56460 0.87060 -0.41400
C 	C 	0.09870 0.58760 0.82320 0.06200
H 	H 	0.07890 0.54380 0.87250 0.05000
O 	O 	0.08720 0.82740 0.54590 -0.43000
C 	C 	0.84560 0.62810 0.81380 0.33400
O 	O 	0.32170 0.51620 0.95070 -0.47600
C 	C 	0.26710 0.66370 0.72060 0.06600
H 	H 	0.36030 0.67240 0.70280 0.04800
C 	C 	0.02190 0.69920 0.69750 0.04900
H 	H 	0.94890 0.73270 0.66570 0.05600
C 	C 	0.99060 0.63740 0.77400 -0.09700
C 	C 	0.23920 0.60460 0.79710 -0.12800
C 	C 	0.19330 0.78240 0.58700 0.33000
C 	C 	0.15920 0.71330 0.66590 -0.09900
C 	C 	0.35450 0.55820 0.86430 0.40600
O 	O 	0.31670 0.79680 0.56460 -0.28000
