data_crystal

_cell_length_a 12.36600
_cell_length_b 13.43900
_cell_length_c 26.96900
_cell_angle_alpha 90.00000
_cell_angle_beta  95.46300
_cell_angle_gamma 90.00000

_symmetry_space_group_name_	'P 1'
_symmetry_space_group_name_H-M	'P 1'

loop_
_symmetry_equiv_pos_as_xyz
  x,y,z

loop_
_atom_site_label
_atom_site_type_symbol
_atom_site_fract_x
_atom_site_fract_y
_atom_site_fract_z
_atom_site_charge
Zn	Zn	0.07929 0.93274 0.03004 1.19900
Zn	Zn	0.10874 0.03650 0.63385 1.23600
Zn	Zn	0.97224 0.18017 0.71611 1.20200
O 	O 	0.13350 0.96310 0.69680 -0.49100
O 	O 	0.00740 0.04130 0.73570 -0.51900
O 	O 	0.10010 0.90520 0.95670 -0.48900
O 	O 	0.17430 0.05680 0.02870 -0.46600
O 	O 	0.36330 0.70980 0.79380 -0.47200
O 	O 	0.31090 0.66190 0.86690 -0.47100
O 	O 	0.41830 0.27300 0.14810 -0.48400
O 	O 	0.45390 0.42660 0.12110 -0.48100
O 	O 	0.39630 0.47650 0.93230 -0.44900
O 	O 	0.23290 0.43710 0.89940 -0.34400
O 	O 	0.98680 0.00610 0.91190 -0.49000
O 	O 	0.05750 0.15290 0.98020 -0.47400
N 	N 	0.99300 0.25370 0.78110 -0.27000
N 	N 	0.06780 0.33330 0.84590 -0.22800
H 	H 	0.10780 0.37560 0.86310 0.16600
C 	C 	0.22080 0.22310 0.01400 -0.13000
C 	C 	0.22770 0.29050 0.97600 0.05400
H 	H 	0.18310 0.28280 0.94650 0.03500
C 	C 	0.29900 0.36870 0.98090 -0.09500
C 	C 	0.36030 0.38430 0.02610 0.05000
H 	H 	0.40740 0.43830 0.02970 0.04700
C 	C 	0.35180 0.31990 0.06590 -0.13200
C 	C 	0.28410 0.23590 0.05940 0.06600
H 	H 	0.28140 0.18960 0.08490 0.02800
C 	C 	0.14330 0.13750 0.00740 0.39700
C 	C 	0.06060 0.94210 0.91640 0.43600
C 	C 	0.10580 0.90730 0.87000 -0.17500
C 	C 	0.18000 0.82880 0.87060 0.10800
H 	H 	0.20030 0.79540 0.90020 0.02100
C 	C 	0.22350 0.80040 0.82730 -0.17200
C 	C 	0.19480 0.84930 0.78340 0.11000
H 	H 	0.22620 0.83080 0.75470 0.01700
C 	C 	0.11890 0.92660 0.78120 -0.18200
C 	C 	0.07470 0.95470 0.82490 0.10900
H 	H 	0.02380 0.00580 0.82390 0.01200
C 	C 	0.08440 0.98090 0.73410 0.44100
C 	C 	0.30630 0.71850 0.82930 0.40800
C 	C 	0.41210 0.33880 0.11480 0.36500
C 	C 	0.31140 0.43320 0.93160 0.34800
C 	C 	0.06150 0.32310 0.79630 0.15000
H 	H 	0.10100 0.36080 0.77540 -0.02300
C 	C 	0.00080 0.26610 0.86460 0.06700
H 	H 	0.98960 0.25680 0.89790 -0.00200
C 	C 	0.95360 0.21540 0.82490 -0.04900
H 	H 	0.90360 0.16390 0.82620 0.02000
Zn	Zn	0.42071 0.43274 0.46996 1.19900
Zn	Zn	0.39126 0.53650 0.86615 1.23400
Zn	Zn	0.52776 0.68017 0.78389 1.20100
O 	O 	0.36650 0.46310 0.80320 -0.49200
O 	O 	0.49260 0.54130 0.76430 -0.52100
O 	O 	0.39990 0.40520 0.54330 -0.48900
O 	O 	0.32570 0.55680 0.47130 -0.46700
O 	O 	0.13670 0.20980 0.70620 -0.47200
O 	O 	0.18910 0.16190 0.63310 -0.47100
O 	O 	0.08170 0.77300 0.35190 -0.48400
O 	O 	0.04610 0.92660 0.37890 -0.48200
O 	O 	0.10370 0.97650 0.56770 -0.44900
O 	O 	0.26710 0.93710 0.60060 -0.34400
O 	O 	0.51320 0.50610 0.58810 -0.48700
O 	O 	0.44250 0.65290 0.51980 -0.47600
N 	N 	0.50700 0.75370 0.71890 -0.26900
N 	N 	0.43220 0.83330 0.65410 -0.22600
H 	H 	0.39220 0.87560 0.63690 0.16500
C 	C 	0.27920 0.72310 0.48600 -0.13000
C 	C 	0.27230 0.79050 0.52400 0.05400
H 	H 	0.31690 0.78280 0.55350 0.03500
C 	C 	0.20100 0.86870 0.51910 -0.09500
C 	C 	0.13970 0.88430 0.47390 0.05100
H 	H 	0.09260 0.93830 0.47030 0.04600
C 	C 	0.14820 0.81990 0.43410 -0.13200
C 	C 	0.21590 0.73590 0.44060 0.06600
H 	H 	0.21860 0.68960 0.41510 0.02800
C 	C 	0.35670 0.63750 0.49260 0.39900
C 	C 	0.43940 0.44210 0.58360 0.43300
C 	C 	0.39420 0.40730 0.63000 -0.17400
C 	C 	0.32000 0.32880 0.62940 0.10700
H 	H 	0.29970 0.29540 0.59980 0.02100
C 	C 	0.27650 0.30040 0.67270 -0.17200
C 	C 	0.30520 0.34930 0.71660 0.11100
H 	H 	0.27380 0.33080 0.74530 0.01700
C 	C 	0.38110 0.42660 0.71880 -0.18300
C 	C 	0.42530 0.45470 0.67510 0.11000
H 	H 	0.47620 0.50580 0.67610 0.01100
C 	C 	0.41560 0.48090 0.76590 0.44200
C 	C 	0.19370 0.21850 0.67070 0.40800
C 	C 	0.08790 0.83880 0.38520 0.36500
C 	C 	0.18860 0.93320 0.56840 0.34800
C 	C 	0.43850 0.82310 0.70370 0.14700
H 	H 	0.39900 0.86080 0.72460 -0.02200
C 	C 	0.49920 0.76610 0.63540 0.05700
H 	H 	0.51040 0.75680 0.60210 0.00400
C 	C 	0.54640 0.71540 0.67510 -0.04200
H 	H 	0.59640 0.66390 0.67380 0.01800
Zn	Zn	0.92071 0.06726 0.96996 1.19800
Zn	Zn	0.89126 0.96350 0.36615 1.23500
Zn	Zn	0.02776 0.81983 0.28389 1.20100
O 	O 	0.86650 0.03690 0.30320 -0.49200
O 	O 	0.99260 0.95870 0.26430 -0.51900
O 	O 	0.89990 0.09480 0.04330 -0.48900
O 	O 	0.82570 0.94320 0.97130 -0.46600
O 	O 	0.63670 0.29020 0.20620 -0.47200
O 	O 	0.68910 0.33810 0.13310 -0.47100
O 	O 	0.58170 0.72700 0.85190 -0.48400
O 	O 	0.54610 0.57340 0.87890 -0.48100
O 	O 	0.60370 0.52350 0.06770 -0.44900
O 	O 	0.76710 0.56290 0.10060 -0.34400
O 	O 	0.01320 0.99390 0.08810 -0.49000
O 	O 	0.94250 0.84710 0.01980 -0.47400
N 	N 	0.00700 0.74630 0.21890 -0.27000
N 	N 	0.93220 0.66670 0.15410 -0.22800
H 	H 	0.89220 0.62440 0.13690 0.16600
C 	C 	0.77920 0.77690 0.98600 -0.13000
C 	C 	0.77230 0.70950 0.02400 0.05400
H 	H 	0.81690 0.71720 0.05350 0.03500
C 	C 	0.70100 0.63130 0.01910 -0.09500
C 	C 	0.63970 0.61570 0.97390 0.05000
H 	H 	0.59260 0.56170 0.97030 0.04700
C 	C 	0.64820 0.68010 0.93410 -0.13200
C 	C 	0.71590 0.76410 0.94060 0.06600
H 	H 	0.71860 0.81040 0.91510 0.02800
C 	C 	0.85670 0.86250 0.99260 0.39700
C 	C 	0.93940 0.05790 0.08360 0.43600
C 	C 	0.89420 0.09270 0.13000 -0.17500
C 	C 	0.82000 0.17120 0.12940 0.10800
H 	H 	0.79970 0.20460 0.09980 0.02100
C 	C 	0.77650 0.19960 0.17270 -0.17200
C 	C 	0.80520 0.15070 0.21660 0.11000
H 	H 	0.77380 0.16920 0.24530 0.01700
C 	C 	0.88110 0.07340 0.21880 -0.18200
C 	C 	0.92530 0.04530 0.17510 0.10900
H 	H 	0.97620 0.99420 0.17610 0.01200
C 	C 	0.91560 0.01910 0.26590 0.44100
C 	C 	0.69370 0.28150 0.17070 0.40800
C 	C 	0.58790 0.66120 0.88520 0.36500
C 	C 	0.68860 0.56680 0.06840 0.34800
C 	C 	0.93850 0.67690 0.20370 0.15000
H 	H 	0.89900 0.63920 0.22460 -0.02300
C 	C 	0.99920 0.73390 0.13540 0.06700
H 	H 	0.01040 0.74320 0.10210 -0.00200
C 	C 	0.04640 0.78460 0.17510 -0.04900
H 	H 	0.09640 0.83610 0.17380 0.02000
Zn	Zn	0.57929 0.56726 0.53004 1.19900
Zn	Zn	0.60874 0.46350 0.13385 1.23400
Zn	Zn	0.47224 0.31983 0.21611 1.20100
O 	O 	0.63350 0.53690 0.19680 -0.49200
O 	O 	0.50740 0.45870 0.23570 -0.52100
O 	O 	0.60010 0.59480 0.45670 -0.48900
O 	O 	0.67430 0.44320 0.52870 -0.46700
O 	O 	0.86330 0.79020 0.29380 -0.47200
O 	O 	0.81090 0.83810 0.36690 -0.47100
O 	O 	0.91830 0.22700 0.64810 -0.48400
O 	O 	0.95390 0.07340 0.62110 -0.48200
O 	O 	0.89630 0.02350 0.43230 -0.44900
O 	O 	0.73290 0.06290 0.39940 -0.34400
O 	O 	0.48680 0.49390 0.41190 -0.48700
O 	O 	0.55750 0.34710 0.48020 -0.47600
N 	N 	0.49300 0.24630 0.28110 -0.26900
N 	N 	0.56780 0.16670 0.34590 -0.22600
H 	H 	0.60780 0.12440 0.36310 0.16500
C 	C 	0.72080 0.27690 0.51400 -0.13000
C 	C 	0.72770 0.20950 0.47600 0.05400
H 	H 	0.68310 0.21720 0.44650 0.03500
C 	C 	0.79900 0.13130 0.48090 -0.09500
C 	C 	0.86030 0.11570 0.52610 0.05100
H 	H 	0.90740 0.06170 0.52970 0.04600
C 	C 	0.85180 0.18010 0.56590 -0.13200
C 	C 	0.78410 0.26410 0.55940 0.06600
H 	H 	0.78140 0.31040 0.58490 0.02800
C 	C 	0.64330 0.36250 0.50740 0.39900
C 	C 	0.56060 0.55790 0.41640 0.43300
C 	C 	0.60580 0.59270 0.37000 -0.17400
C 	C 	0.68000 0.67120 0.37060 0.10700
H 	H 	0.70030 0.70460 0.40020 0.02100
C 	C 	0.72350 0.69960 0.32730 -0.17200
C 	C 	0.69480 0.65070 0.28340 0.11100
H 	H 	0.72620 0.66920 0.25470 0.01700
C 	C 	0.61890 0.57340 0.28120 -0.18300
C 	C 	0.57470 0.54530 0.32490 0.11000
H 	H 	0.52380 0.49420 0.32390 0.01100
C 	C 	0.58440 0.51910 0.23410 0.44200
C 	C 	0.80630 0.78150 0.32930 0.40800
C 	C 	0.91210 0.16120 0.61480 0.36500
C 	C 	0.81140 0.06680 0.43160 0.34800
C 	C 	0.56150 0.17690 0.29630 0.14700
H 	H 	0.60100 0.13920 0.27540 -0.02200
C 	C 	0.50080 0.23390 0.36460 0.05700
H 	H 	0.48960 0.24320 0.39790 0.00400
C 	C 	0.45360 0.28460 0.32490 -0.04200
H 	H 	0.40360 0.33610 0.32620 0.01800
