data_crystal

_cell_length_a 23.31000
_cell_length_b 18.95200
_cell_length_c 26.57000
_cell_angle_alpha 90.00000
_cell_angle_beta  94.75700
_cell_angle_gamma 90.00000

_symmetry_space_group_name_	'P 1'
_symmetry_space_group_name_H-M	'P 1'

loop_
_symmetry_equiv_pos_as_xyz
  x,y,z

loop_
_atom_site_label
_atom_site_type_symbol
_atom_site_fract_x
_atom_site_fract_y
_atom_site_fract_z
_atom_site_charge
Zn	Zn	0.95932 0.27808 0.19323 1.23600
Zn	Zn	0.03422 0.26088 0.31804 1.23800
Zn	Zn	0.86825 0.77568 0.31884 1.25000
Zn	Zn	0.12953 0.76305 0.17881 1.24500
Zn	Zn	0.72263 0.40989 0.50160 1.24700
O 	O 	0.92220 0.22410 0.13900 -0.41500
O 	O 	0.92270 0.30880 0.07980 -0.25700
O 	O 	0.89850 0.39350 0.20790 -0.30300
O 	O 	0.98870 0.37520 0.19350 -0.43500
O 	O 	0.91460 0.24970 0.25040 -0.45500
O 	O 	0.95890 0.30870 0.31570 -0.45700
O 	O 	0.03580 0.23100 0.20060 -0.45500
O 	O 	0.08330 0.28810 0.26540 -0.45500
O 	O 	0.93480 0.72430 0.61210 -0.41700
O 	O 	0.01130 0.16230 0.31310 -0.43100
O 	O 	0.90570 0.61900 0.63530 -0.26800
O 	O 	0.10450 0.14190 0.30690 -0.27600
O 	O 	0.08760 0.84140 0.20580 -0.42100
O 	O 	0.16170 0.90350 0.24190 -0.24300
O 	O 	0.87140 0.95150 0.30210 -0.24900
O 	O 	0.92260 0.85250 0.31410 -0.42100
O 	O 	0.91470 0.79440 0.43070 -0.25400
O 	O 	0.84000 0.75040 0.38320 -0.41900
O 	O 	0.91790 0.69840 0.30210 -0.41800
O 	O 	0.84550 0.62230 0.28550 -0.25000
O 	O 	0.87290 0.23120 0.89640 -0.40100
O 	O 	0.82910 0.12860 0.88500 -0.27300
O 	O 	0.07200 0.68820 0.18320 -0.40000
O 	O 	0.12520 0.58800 0.19220 -0.23700
O 	O 	0.65290 0.28830 0.28670 -0.27800
O 	O 	0.70460 0.28890 0.21950 -0.40600
O 	O 	0.34110 0.22570 0.21870 -0.28200
O 	O 	0.29450 0.24380 0.28730 -0.40500
O 	O 	0.77290 0.48980 0.51760 -0.40500
O 	O 	0.75780 0.52120 0.43600 -0.26800
O 	O 	0.85410 0.94740 0.01740 -0.40900
O 	O 	0.89250 0.98050 0.09360 -0.23500
O 	O 	0.22550 0.13480 0.06770 -0.41900
O 	O 	0.14260 0.19050 0.04600 -0.25700
O 	O 	0.84370 0.35240 0.46410 -0.25800
O 	O 	0.74850 0.34670 0.45100 -0.43100
C 	C 	0.91440 0.24790 0.09220 0.31900
C 	C 	0.89350 0.19100 0.05390 -0.06600
C 	C 	0.91500 0.28260 0.29120 0.38500
C 	C 	0.88280 0.21090 0.00180 0.02600
H 	H 	0.88860 0.25700 0.99130 0.06600
C 	C 	0.86340 0.15810 0.96750 -0.08200
C 	C 	0.85670 0.09010 0.98430 0.04100
H 	H 	0.84230 0.05630 0.96120 0.04400
C 	C 	0.87030 0.06930 0.03410 -0.09300
C 	C 	0.88890 0.12310 0.06920 0.03300
H 	H 	0.89800 0.11160 0.10300 0.06600
C 	C 	0.94870 0.41150 0.20630 0.33300
C 	C 	0.85810 0.29130 0.31260 -0.10300
C 	C 	0.85540 0.30830 0.36390 0.05000
H 	H 	0.88890 0.31050 0.38540 0.05200
C 	C 	0.08110 0.25620 0.22370 0.38300
C 	C 	0.13690 0.24150 0.20080 -0.10800
C 	C 	0.13700 0.22300 0.15030 0.05500
H 	H 	0.10290 0.22500 0.12960 0.04800
C 	C 	0.18760 0.24640 0.22880 0.06500
H 	H 	0.18770 0.26260 0.26190 0.05600
C 	C 	0.91010 0.66560 0.60330 0.33600
C 	C 	0.05290 0.12320 0.30510 0.32900
C 	C 	0.03880 0.04670 0.29200 -0.07200
C 	C 	0.98410 0.01990 0.29890 0.03100
H 	H 	0.95630 0.04890 0.31130 0.06300
C 	C 	0.97140 0.95100 0.28720 -0.07500
C 	C 	0.01220 0.90860 0.26500 0.04100
H 	H 	0.00260 0.86280 0.25480 0.05800
C 	C 	0.06640 0.93500 0.25830 -0.08300
C 	C 	0.07950 0.00190 0.27380 0.03400
H 	H 	0.11690 0.01820 0.27220 0.06200
C 	C 	0.91620 0.91750 0.30210 0.35400
C 	C 	0.29680 0.23190 0.23860 0.33600
C 	C 	0.10870 0.89060 0.23360 0.34400
C 	C 	0.87340 0.75320 0.42290 0.33700
C 	C 	0.23690 0.20500 0.16070 0.04200
H 	H 	0.27070 0.19070 0.14740 0.06300
C 	C 	0.86380 0.70170 0.46410 -0.07600
C 	C 	0.89120 0.70810 0.51250 0.03200
H 	H 	0.91670 0.74520 0.51930 0.06500
C 	C 	0.88160 0.66120 0.55090 -0.07400
C 	C 	0.84510 0.60470 0.53960 0.02100
H 	H 	0.83900 0.57200 0.56470 0.07100
C 	C 	0.81670 0.59500 0.49100 -0.06600
C 	C 	0.82670 0.64390 0.45430 0.02300
H 	H 	0.80840 0.63850 0.42200 0.06500
C 	C 	0.77930 0.53240 0.47970 0.30500
C 	C 	0.69870 0.29250 0.26810 0.32200
C 	C 	0.75440 0.29950 0.30090 -0.07800
C 	C 	0.80770 0.28940 0.28260 0.05500
H 	H 	0.80920 0.28080 0.24830 0.05800
C 	C 	0.89630 0.64330 0.28220 0.32900
C 	C 	0.93780 0.60240 0.25230 -0.06200
C 	C 	0.92310 0.53260 0.23990 0.01100
H 	H 	0.88740 0.51450 0.24660 0.07100
C 	C 	0.96320 0.49060 0.21740 -0.05100
C 	C 	0.01530 0.51870 0.20530 0.01500
H 	H 	0.04260 0.49010 0.19180 0.07000
C 	C 	0.02650 0.59030 0.21370 -0.06200
C 	C 	0.98800 0.63050 0.23780 0.02900
H 	H 	0.99630 0.67780 0.24450 0.06300
C 	C 	0.08010 0.62200 0.19510 0.32400
C 	C 	0.87200 0.99380 0.05160 0.35000
C 	C 	0.79930 0.34270 0.43710 0.35800
C 	C 	0.80180 0.32180 0.38260 -0.09000
C 	C 	0.75240 0.31760 0.35110 0.04300
H 	H 	0.71710 0.32690 0.36360 0.06200
C 	C 	0.18440 0.17440 0.07670 0.33400
C 	C 	0.85330 0.17310 0.91280 0.33000
C 	C 	0.23930 0.22850 0.21060 -0.08800
C 	C 	0.18610 0.20220 0.13060 -0.08400
Zn	Zn	0.54068 0.77808 0.30677 1.23700
Zn	Zn	0.46578 0.76088 0.18196 1.23900
Zn	Zn	0.63175 0.27568 0.18116 1.25000
Zn	Zn	0.37047 0.26305 0.32119 1.24500
Zn	Zn	0.77737 0.90989 0.99840 1.24600
O 	O 	0.57780 0.72410 0.36100 -0.41500
O 	O 	0.57730 0.80880 0.42020 -0.25700
O 	O 	0.60150 0.89350 0.29210 -0.30300
O 	O 	0.51130 0.87520 0.30650 -0.43500
O 	O 	0.58540 0.74970 0.24960 -0.45500
O 	O 	0.54110 0.80870 0.18430 -0.45600
O 	O 	0.46420 0.73100 0.29940 -0.45500
O 	O 	0.41670 0.78810 0.23460 -0.45500
O 	O 	0.56520 0.22430 0.88790 -0.41700
O 	O 	0.48870 0.66230 0.18690 -0.43100
O 	O 	0.59430 0.11900 0.86470 -0.26800
O 	O 	0.39550 0.64190 0.19310 -0.27700
O 	O 	0.41240 0.34140 0.29420 -0.42100
O 	O 	0.33830 0.40350 0.25810 -0.24300
O 	O 	0.62860 0.45150 0.19790 -0.24900
O 	O 	0.57740 0.35250 0.18590 -0.42100
O 	O 	0.58530 0.29440 0.06930 -0.25400
O 	O 	0.66000 0.25040 0.11680 -0.41900
O 	O 	0.58210 0.19840 0.19790 -0.41800
O 	O 	0.65450 0.12230 0.21450 -0.25000
O 	O 	0.62710 0.73120 0.60360 -0.40100
O 	O 	0.67090 0.62860 0.61500 -0.27300
O 	O 	0.42800 0.18820 0.31680 -0.40000
O 	O 	0.37480 0.08800 0.30780 -0.23700
O 	O 	0.84710 0.78830 0.21330 -0.27800
O 	O 	0.79540 0.78890 0.28050 -0.40600
O 	O 	0.15890 0.72570 0.28130 -0.28200
O 	O 	0.20550 0.74380 0.21270 -0.40500
O 	O 	0.72710 0.98980 0.98240 -0.40600
O 	O 	0.74220 0.02120 0.06400 -0.26900
O 	O 	0.64590 0.44740 0.48260 -0.41000
O 	O 	0.60750 0.48050 0.40640 -0.23500
O 	O 	0.27450 0.63480 0.43230 -0.41900
O 	O 	0.35740 0.69050 0.45400 -0.25700
O 	O 	0.65630 0.85240 0.03590 -0.25800
O 	O 	0.75150 0.84670 0.04900 -0.43100
C 	C 	0.58560 0.74790 0.40780 0.31900
C 	C 	0.60650 0.69100 0.44610 -0.06500
C 	C 	0.58500 0.78260 0.20880 0.38500
C 	C 	0.61720 0.71090 0.49820 0.02500
H 	H 	0.61140 0.75700 0.50870 0.06600
C 	C 	0.63660 0.65810 0.53250 -0.08100
C 	C 	0.64330 0.59010 0.51570 0.04000
H 	H 	0.65770 0.55630 0.53880 0.04400
C 	C 	0.62970 0.56930 0.46590 -0.09100
C 	C 	0.61110 0.62310 0.43080 0.03200
H 	H 	0.60200 0.61160 0.39700 0.06600
C 	C 	0.55130 0.91150 0.29370 0.33300
C 	C 	0.64190 0.79130 0.18740 -0.10300
C 	C 	0.64460 0.80830 0.13610 0.05000
H 	H 	0.61110 0.81050 0.11460 0.05200
C 	C 	0.41890 0.75620 0.27630 0.38300
C 	C 	0.36310 0.74150 0.29920 -0.10800
C 	C 	0.36300 0.72300 0.34970 0.05500
H 	H 	0.39710 0.72500 0.37040 0.04800
C 	C 	0.31240 0.74640 0.27120 0.06500
H 	H 	0.31230 0.76260 0.23810 0.05700
C 	C 	0.58990 0.16560 0.89670 0.33600
C 	C 	0.44710 0.62320 0.19490 0.32900
C 	C 	0.46120 0.54670 0.20800 -0.07300
C 	C 	0.51590 0.51990 0.20110 0.03400
H 	H 	0.54370 0.54890 0.18870 0.06200
C 	C 	0.52860 0.45100 0.21280 -0.07800
C 	C 	0.48780 0.40860 0.23500 0.04300
H 	H 	0.49740 0.36280 0.24520 0.05700
C 	C 	0.43360 0.43500 0.24170 -0.08400
C 	C 	0.42050 0.50190 0.22620 0.03600
H 	H 	0.38310 0.51820 0.22780 0.06200
C 	C 	0.58380 0.41750 0.19790 0.35400
C 	C 	0.20320 0.73190 0.26140 0.33600
C 	C 	0.39130 0.39060 0.26640 0.34500
C 	C 	0.62660 0.25320 0.07710 0.33800
C 	C 	0.26310 0.70500 0.33930 0.04200
H 	H 	0.22930 0.69070 0.35260 0.06300
C 	C 	0.63620 0.20170 0.03590 -0.07800
C 	C 	0.60880 0.20810 0.98750 0.03400
H 	H 	0.58330 0.24520 0.98070 0.06500
C 	C 	0.61840 0.16120 0.94910 -0.07500
C 	C 	0.65490 0.10470 0.96040 0.02200
H 	H 	0.66100 0.07200 0.93530 0.07100
C 	C 	0.68330 0.09500 0.00900 -0.06700
C 	C 	0.67330 0.14390 0.04570 0.02400
H 	H 	0.69160 0.13850 0.07800 0.06500
C 	C 	0.72070 0.03240 0.02030 0.30500
C 	C 	0.80130 0.79250 0.23190 0.32200
C 	C 	0.74560 0.79950 0.19910 -0.07800
C 	C 	0.69230 0.78940 0.21740 0.05500
H 	H 	0.69080 0.78080 0.25170 0.05800
C 	C 	0.60370 0.14330 0.21780 0.32900
C 	C 	0.56220 0.10240 0.24770 -0.06100
C 	C 	0.57690 0.03260 0.26010 0.01000
H 	H 	0.61260 0.01450 0.25340 0.07100
C 	C 	0.53680 0.99060 0.28260 -0.05000
C 	C 	0.48470 0.01870 0.29470 0.01300
H 	H 	0.45740 0.99010 0.30820 0.07100
C 	C 	0.47350 0.09030 0.28630 -0.06000
C 	C 	0.51200 0.13050 0.26220 0.02700
H 	H 	0.50370 0.17780 0.25550 0.06400
C 	C 	0.41990 0.12200 0.30490 0.32400
C 	C 	0.62800 0.49380 0.44840 0.34900
C 	C 	0.70070 0.84270 0.06290 0.35800
C 	C 	0.69820 0.82180 0.11740 -0.08900
C 	C 	0.74760 0.81760 0.14890 0.04300
H 	H 	0.78290 0.82690 0.13640 0.06200
C 	C 	0.31560 0.67440 0.42330 0.33400
C 	C 	0.64670 0.67310 0.58720 0.33000
C 	C 	0.26070 0.72850 0.28940 -0.08800
C 	C 	0.31390 0.70220 0.36940 -0.08400
Zn	Zn	0.04068 0.72192 0.80677 1.23700
Zn	Zn	0.96578 0.73912 0.68196 1.23900
Zn	Zn	0.13175 0.22432 0.68116 1.25000
Zn	Zn	0.87047 0.23695 0.82119 1.24500
Zn	Zn	0.27737 0.59011 0.49840 1.24700
O 	O 	0.07780 0.77590 0.86100 -0.41500
O 	O 	0.07730 0.69120 0.92020 -0.25700
O 	O 	0.10150 0.60650 0.79210 -0.30300
O 	O 	0.01130 0.62480 0.80650 -0.43500
O 	O 	0.08540 0.75030 0.74960 -0.45500
O 	O 	0.04110 0.69130 0.68430 -0.45700
O 	O 	0.96420 0.76900 0.79940 -0.45500
O 	O 	0.91670 0.71190 0.73460 -0.45500
O 	O 	0.06520 0.27570 0.38790 -0.41700
O 	O 	0.98870 0.83770 0.68690 -0.43100
O 	O 	0.09430 0.38100 0.36470 -0.26800
O 	O 	0.89550 0.85810 0.69310 -0.27600
O 	O 	0.91240 0.15860 0.79420 -0.42100
O 	O 	0.83830 0.09650 0.75810 -0.24300
O 	O 	0.12860 0.04850 0.69790 -0.24900
O 	O 	0.07740 0.14750 0.68590 -0.42100
O 	O 	0.08530 0.20560 0.56930 -0.25400
O 	O 	0.16000 0.24960 0.61680 -0.41900
O 	O 	0.08210 0.30160 0.69790 -0.41800
O 	O 	0.15450 0.37770 0.71450 -0.25000
O 	O 	0.12710 0.76880 0.10360 -0.40100
O 	O 	0.17090 0.87140 0.11500 -0.27300
O 	O 	0.92800 0.31180 0.81680 -0.40000
O 	O 	0.87480 0.41200 0.80780 -0.23700
O 	O 	0.34710 0.71170 0.71330 -0.27800
O 	O 	0.29540 0.71110 0.78050 -0.40600
O 	O 	0.65890 0.77430 0.78130 -0.28200
O 	O 	0.70550 0.75620 0.71270 -0.40500
O 	O 	0.22710 0.51020 0.48240 -0.40500
O 	O 	0.24220 0.47880 0.56400 -0.26800
O 	O 	0.14590 0.05260 0.98260 -0.40900
O 	O 	0.10750 0.01950 0.90640 -0.23500
O 	O 	0.77450 0.86520 0.93230 -0.41900
O 	O 	0.85740 0.80950 0.95400 -0.25700
O 	O 	0.15630 0.64760 0.53590 -0.25800
O 	O 	0.25150 0.65330 0.54900 -0.43100
C 	C 	0.08560 0.75210 0.90780 0.31900
C 	C 	0.10650 0.80900 0.94610 -0.06600
C 	C 	0.08500 0.71740 0.70880 0.38500
C 	C 	0.11720 0.78910 0.99820 0.02600
H 	H 	0.11140 0.74300 0.00870 0.06600
C 	C 	0.13660 0.84190 0.03250 -0.08200
C 	C 	0.14330 0.90990 0.01570 0.04100
H 	H 	0.15770 0.94370 0.03880 0.04400
C 	C 	0.12970 0.93070 0.96590 -0.09300
C 	C 	0.11110 0.87690 0.93080 0.03300
H 	H 	0.10200 0.88840 0.89700 0.06600
C 	C 	0.05130 0.58850 0.79370 0.33300
C 	C 	0.14190 0.70870 0.68740 -0.10300
C 	C 	0.14460 0.69170 0.63610 0.05000
H 	H 	0.11110 0.68950 0.61460 0.05200
C 	C 	0.91890 0.74380 0.77630 0.38300
C 	C 	0.86310 0.75850 0.79920 -0.10800
C 	C 	0.86300 0.77700 0.84970 0.05500
H 	H 	0.89710 0.77500 0.87040 0.04800
C 	C 	0.81240 0.75360 0.77120 0.06500
H 	H 	0.81230 0.73740 0.73810 0.05600
C 	C 	0.08990 0.33440 0.39670 0.33600
C 	C 	0.94710 0.87680 0.69490 0.32900
C 	C 	0.96120 0.95330 0.70800 -0.07200
C 	C 	0.01590 0.98010 0.70110 0.03100
H 	H 	0.04370 0.95110 0.68870 0.06300
C 	C 	0.02860 0.04900 0.71280 -0.07500
C 	C 	0.98780 0.09140 0.73500 0.04100
H 	H 	0.99740 0.13720 0.74520 0.05800
C 	C 	0.93360 0.06500 0.74170 -0.08300
C 	C 	0.92050 0.99810 0.72620 0.03400
H 	H 	0.88310 0.98180 0.72780 0.06200
C 	C 	0.08380 0.08250 0.69790 0.35400
C 	C 	0.70320 0.76810 0.76140 0.33600
C 	C 	0.89130 0.10940 0.76640 0.34400
C 	C 	0.12660 0.24680 0.57710 0.33700
C 	C 	0.76310 0.79500 0.83930 0.04200
H 	H 	0.72930 0.80930 0.85260 0.06300
C 	C 	0.13620 0.29830 0.53590 -0.07600
C 	C 	0.10880 0.29190 0.48750 0.03200
H 	H 	0.08330 0.25480 0.48070 0.06500
C 	C 	0.11840 0.33880 0.44910 -0.07400
C 	C 	0.15490 0.39530 0.46040 0.02100
H 	H 	0.16100 0.42800 0.43530 0.07100
C 	C 	0.18330 0.40500 0.50900 -0.06600
C 	C 	0.17330 0.35610 0.54570 0.02300
H 	H 	0.19160 0.36150 0.57800 0.06500
C 	C 	0.22070 0.46760 0.52030 0.30500
C 	C 	0.30130 0.70750 0.73190 0.32200
C 	C 	0.24560 0.70050 0.69910 -0.07800
C 	C 	0.19230 0.71060 0.71740 0.05500
H 	H 	0.19080 0.71920 0.75170 0.05800
C 	C 	0.10370 0.35670 0.71780 0.32900
C 	C 	0.06220 0.39760 0.74770 -0.06200
C 	C 	0.07690 0.46740 0.76010 0.01100
H 	H 	0.11260 0.48550 0.75340 0.07100
C 	C 	0.03680 0.50940 0.78260 -0.05100
C 	C 	0.98470 0.48130 0.79470 0.01500
H 	H 	0.95740 0.50990 0.80820 0.07000
C 	C 	0.97350 0.40970 0.78630 -0.06200
C 	C 	0.01200 0.36950 0.76220 0.02900
H 	H 	0.00370 0.32220 0.75550 0.06300
C 	C 	0.91990 0.37800 0.80490 0.32400
C 	C 	0.12800 0.00620 0.94840 0.35000
C 	C 	0.20070 0.65730 0.56290 0.35800
C 	C 	0.19820 0.67820 0.61740 -0.09000
C 	C 	0.24760 0.68240 0.64890 0.04300
H 	H 	0.28290 0.67310 0.63640 0.06200
C 	C 	0.81560 0.82560 0.92330 0.33400
C 	C 	0.14670 0.82690 0.08720 0.33000
C 	C 	0.76070 0.77150 0.78940 -0.08800
C 	C 	0.81390 0.79780 0.86940 -0.08400
Zn	Zn	0.45932 0.22192 0.69323 1.23700
Zn	Zn	0.53422 0.23912 0.81804 1.23900
Zn	Zn	0.36825 0.72432 0.81884 1.25000
Zn	Zn	0.62953 0.73695 0.67881 1.24500
Zn	Zn	0.22263 0.09011 0.00160 1.24600
O 	O 	0.42220 0.27590 0.63900 -0.41500
O 	O 	0.42270 0.19120 0.57980 -0.25700
O 	O 	0.39850 0.10650 0.70790 -0.30300
O 	O 	0.48870 0.12480 0.69350 -0.43500
O 	O 	0.41460 0.25030 0.75040 -0.45500
O 	O 	0.45890 0.19130 0.81570 -0.45600
O 	O 	0.53580 0.26900 0.70060 -0.45500
O 	O 	0.58330 0.21190 0.76540 -0.45500
O 	O 	0.43480 0.77570 0.11210 -0.41700
O 	O 	0.51130 0.33770 0.81310 -0.43100
O 	O 	0.40570 0.88100 0.13530 -0.26800
O 	O 	0.60450 0.35810 0.80690 -0.27700
O 	O 	0.58760 0.65860 0.70580 -0.42100
O 	O 	0.66170 0.59650 0.74190 -0.24300
O 	O 	0.37140 0.54850 0.80210 -0.24900
O 	O 	0.42260 0.64750 0.81410 -0.42100
O 	O 	0.41470 0.70560 0.93070 -0.25400
O 	O 	0.34000 0.74960 0.88320 -0.41900
O 	O 	0.41790 0.80160 0.80210 -0.41800
O 	O 	0.34550 0.87770 0.78550 -0.25000
O 	O 	0.37290 0.26880 0.39640 -0.40100
O 	O 	0.32910 0.37140 0.38500 -0.27300
O 	O 	0.57200 0.81180 0.68320 -0.40000
O 	O 	0.62520 0.91200 0.69220 -0.23700
O 	O 	0.15290 0.21170 0.78670 -0.27800
O 	O 	0.20460 0.21110 0.71950 -0.40600
O 	O 	0.84110 0.27430 0.71870 -0.28200
O 	O 	0.79450 0.25620 0.78730 -0.40500
O 	O 	0.27290 0.01020 0.01760 -0.40600
O 	O 	0.25780 0.97880 0.93600 -0.26900
O 	O 	0.35410 0.55260 0.51740 -0.41000
O 	O 	0.39250 0.51950 0.59360 -0.23500
O 	O 	0.72550 0.36520 0.56770 -0.41900
O 	O 	0.64260 0.30950 0.54600 -0.25700
O 	O 	0.34370 0.14760 0.96410 -0.25800
O 	O 	0.24850 0.15330 0.95100 -0.43100
C 	C 	0.41440 0.25210 0.59220 0.31900
C 	C 	0.39350 0.30900 0.55390 -0.06500
C 	C 	0.41500 0.21740 0.79120 0.38500
C 	C 	0.38280 0.28910 0.50180 0.02500
H 	H 	0.38860 0.24300 0.49130 0.06600
C 	C 	0.36340 0.34190 0.46750 -0.08100
C 	C 	0.35670 0.40990 0.48430 0.04000
H 	H 	0.34230 0.44370 0.46120 0.04400
C 	C 	0.37030 0.43070 0.53410 -0.09100
C 	C 	0.38890 0.37690 0.56920 0.03200
H 	H 	0.39800 0.38840 0.60300 0.06600
C 	C 	0.44870 0.08850 0.70630 0.33300
C 	C 	0.35810 0.20870 0.81260 -0.10300
C 	C 	0.35540 0.19170 0.86390 0.05000
H 	H 	0.38890 0.18950 0.88540 0.05200
C 	C 	0.58110 0.24380 0.72370 0.38300
C 	C 	0.63690 0.25850 0.70080 -0.10800
C 	C 	0.63700 0.27700 0.65030 0.05500
H 	H 	0.60290 0.27500 0.62960 0.04800
C 	C 	0.68760 0.25360 0.72880 0.06500
H 	H 	0.68770 0.23740 0.76190 0.05700
C 	C 	0.41010 0.83440 0.10330 0.33600
C 	C 	0.55290 0.37680 0.80510 0.32900
C 	C 	0.53880 0.45330 0.79200 -0.07300
C 	C 	0.48410 0.48010 0.79890 0.03400
H 	H 	0.45630 0.45110 0.81130 0.06200
C 	C 	0.47140 0.54900 0.78720 -0.07800
C 	C 	0.51220 0.59140 0.76500 0.04300
H 	H 	0.50260 0.63720 0.75480 0.05700
C 	C 	0.56640 0.56500 0.75830 -0.08400
C 	C 	0.57950 0.49810 0.77380 0.03600
H 	H 	0.61690 0.48180 0.77220 0.06200
C 	C 	0.41620 0.58250 0.80210 0.35400
C 	C 	0.79680 0.26810 0.73860 0.33600
C 	C 	0.60870 0.60940 0.73360 0.34500
C 	C 	0.37340 0.74680 0.92290 0.33800
C 	C 	0.73690 0.29500 0.66070 0.04200
H 	H 	0.77070 0.30930 0.64740 0.06300
C 	C 	0.36380 0.79830 0.96410 -0.07800
C 	C 	0.39120 0.79190 0.01250 0.03400
H 	H 	0.41670 0.75480 0.01930 0.06500
C 	C 	0.38160 0.83880 0.05090 -0.07500
C 	C 	0.34510 0.89530 0.03960 0.02200
H 	H 	0.33900 0.92800 0.06470 0.07100
C 	C 	0.31670 0.90500 0.99100 -0.06700
C 	C 	0.32670 0.85610 0.95430 0.02400
H 	H 	0.30840 0.86150 0.92200 0.06500
C 	C 	0.27930 0.96760 0.97970 0.30500
C 	C 	0.19870 0.20750 0.76810 0.32200
C 	C 	0.25440 0.20050 0.80090 -0.07800
C 	C 	0.30770 0.21060 0.78260 0.05500
H 	H 	0.30920 0.21920 0.74830 0.05800
C 	C 	0.39630 0.85670 0.78220 0.32900
C 	C 	0.43780 0.89760 0.75230 -0.06100
C 	C 	0.42310 0.96740 0.73990 0.01000
H 	H 	0.38740 0.98550 0.74660 0.07100
C 	C 	0.46320 0.00940 0.71740 -0.05000
C 	C 	0.51530 0.98130 0.70530 0.01300
H 	H 	0.54260 0.00990 0.69180 0.07100
C 	C 	0.52650 0.90970 0.71370 -0.06000
C 	C 	0.48800 0.86950 0.73780 0.02700
H 	H 	0.49630 0.82220 0.74450 0.06400
C 	C 	0.58010 0.87800 0.69510 0.32400
C 	C 	0.37200 0.50620 0.55160 0.34900
C 	C 	0.29930 0.15730 0.93710 0.35800
C 	C 	0.30180 0.17820 0.88260 -0.08900
C 	C 	0.25240 0.18240 0.85110 0.04300
H 	H 	0.21710 0.17310 0.86360 0.06200
C 	C 	0.68440 0.32560 0.57670 0.33400
C 	C 	0.35330 0.32690 0.41280 0.33000
C 	C 	0.73930 0.27150 0.71060 -0.08800
C 	C 	0.68610 0.29780 0.63060 -0.08400
