data_crystal

_cell_length_a 32.40700
_cell_length_b 9.57500
_cell_length_c 12.19300
_cell_angle_alpha 90.00000
_cell_angle_beta  90.00000
_cell_angle_gamma 90.00000

_symmetry_space_group_name_	'P 1'
_symmetry_space_group_name_H-M	'P 1'

loop_
_symmetry_equiv_pos_as_xyz
  x,y,z

loop_
_atom_site_label
_atom_site_type_symbol
_atom_site_fract_x
_atom_site_fract_y
_atom_site_fract_z
_atom_site_charge
Zn	Zn	0.33180 0.45653 0.39104 1.24500
Zn	Zn	0.41776 0.75620 0.43638 1.24100
O 	O 	0.16300 0.77790 0.81620 -0.43300
O 	O 	0.14160 0.27640 0.89560 -0.47100
O 	O 	0.17230 0.11490 0.78950 -0.45000
O 	O 	0.38830 0.44600 0.44830 -0.48800
C 	C 	0.20130 0.59870 0.73280 -0.10600
O 	O 	0.29090 0.49610 0.50120 -0.43800
O 	O 	0.51850 0.44590 0.83730 -0.29000
O 	O 	0.42250 0.60530 0.54410 -0.46200
C 	C 	0.18670 0.35320 0.75610 -0.12700
C 	C 	0.23720 0.42700 0.62360 -0.09700
O 	O 	0.42330 0.94490 0.49350 -0.42400
C 	C 	0.52220 0.33320 0.78890 0.35700
C 	C 	0.46680 0.39790 0.65450 0.06900
H 	H 	0.46820 0.48870 0.68120 0.04500
C 	C 	0.22970 0.56440 0.65290 0.05100
H 	H 	0.24420 0.63540 0.61790 0.05300
O 	O 	0.48480 0.89400 0.56040 -0.28000
C 	C 	0.48770 0.16070 0.66220 0.05300
H 	H 	0.50360 0.09040 0.69370 0.04800
C 	C 	0.45690 0.97710 0.54150 0.34300
C 	C 	0.21490 0.32270 0.67540 0.05900
H 	H 	0.21910 0.23010 0.65500 0.05200
C 	C 	0.17970 0.49080 0.78120 0.06600
H 	H 	0.15960 0.51230 0.83300 0.04300
C 	C 	0.27060 0.39160 0.53950 0.34700
C 	C 	0.41530 0.48030 0.51510 0.42400
C 	C 	0.16440 0.24010 0.81720 0.39300
C 	C 	0.43940 0.36750 0.57030 -0.13300
C 	C 	0.43570 0.23100 0.53330 0.06700
H 	H 	0.41690 0.20910 0.47830 0.04700
O 	O 	0.27610 0.27070 0.51530 -0.28400
C 	C 	0.49180 0.29630 0.69940 -0.10700
O 	O 	0.55000 0.24370 0.80450 -0.45500
C 	C 	0.46020 0.12750 0.57850 -0.09900
O 	O 	0.22290 0.83290 0.75040 -0.30500
C 	C 	0.19560 0.74870 0.76790 0.36500
Zn	Zn	0.66820 0.54347 0.89104 1.24000
Zn	Zn	0.58224 0.24380 0.93638 1.23600
O 	O 	0.83700 0.22210 0.31620 -0.42600
O 	O 	0.85840 0.72360 0.39560 -0.46300
O 	O 	0.82770 0.88510 0.28950 -0.44400
O 	O 	0.61170 0.55400 0.94830 -0.53300
C 	C 	0.79870 0.40130 0.23280 -0.09600
O 	O 	0.70910 0.50390 0.00120 -0.41700
O 	O 	0.48150 0.55410 0.33730 -0.27800
O 	O 	0.57750 0.39470 0.04410 -0.45900
C 	C 	0.81330 0.64680 0.25610 -0.11800
C 	C 	0.76280 0.57300 0.12360 -0.08500
O 	O 	0.57670 0.05510 0.99350 -0.46600
C 	C 	0.47780 0.66680 0.28890 0.36800
C 	C 	0.53320 0.60210 0.15450 0.11600
H 	H 	0.53180 0.51130 0.18120 0.03500
C 	C 	0.77030 0.43560 0.15290 0.04600
H 	H 	0.75580 0.36460 0.11790 0.06100
O 	O 	0.51520 0.10600 0.06040 -0.28300
C 	C 	0.51230 0.83930 0.16220 0.09900
H 	H 	0.49640 0.90960 0.19370 0.03700
C 	C 	0.54310 0.02290 0.04150 0.41100
C 	C 	0.78510 0.67730 0.17540 0.05500
H 	H 	0.78090 0.76990 0.15500 0.05800
C 	C 	0.82030 0.50920 0.28120 0.06300
H 	H 	0.84040 0.48770 0.33300 0.04800
C 	C 	0.72940 0.60840 0.03950 0.34400
C 	C 	0.58470 0.51970 0.01510 0.49500
C 	C 	0.83560 0.75990 0.31720 0.39200
C 	C 	0.56060 0.63250 0.07030 -0.19300
C 	C 	0.56430 0.76900 0.03330 0.19300
H 	H 	0.58310 0.79090 0.97830 -0.02000
O 	O 	0.72390 0.72930 0.01530 -0.26500
C 	C 	0.50820 0.70370 0.19940 -0.13400
O 	O 	0.45000 0.75630 0.30450 -0.45100
C 	C 	0.53980 0.87250 0.07850 -0.15900
O 	O 	0.77710 0.16710 0.25040 -0.29300
C 	C 	0.80440 0.25130 0.26790 0.36500
Zn	Zn	0.83180 0.04347 0.39104 1.24500
Zn	Zn	0.91776 0.74380 0.43638 1.24200
O 	O 	0.66300 0.72210 0.81620 -0.43200
O 	O 	0.64160 0.22360 0.89560 -0.47200
O 	O 	0.67230 0.38510 0.78950 -0.45200
O 	O 	0.88830 0.05400 0.44830 -0.48900
C 	C 	0.70130 0.90130 0.73280 -0.10200
O 	O 	0.79090 0.00390 0.50120 -0.44000
O 	O 	0.01850 0.05410 0.83730 -0.28900
O 	O 	0.92250 0.89470 0.54410 -0.46100
C 	C 	0.68670 0.14680 0.75610 -0.12500
C 	C 	0.73720 0.07300 0.62360 -0.09900
O 	O 	0.92330 0.55510 0.49350 -0.42300
C 	C 	0.02220 0.16680 0.78890 0.35700
C 	C 	0.96680 0.10210 0.65450 0.06900
H 	H 	0.96820 0.01130 0.68120 0.04600
C 	C 	0.72970 0.93560 0.65290 0.05300
H 	H 	0.74420 0.86460 0.61790 0.05300
O 	O 	0.98480 0.60600 0.56040 -0.28000
C 	C 	0.98770 0.33930 0.66220 0.05400
H 	H 	0.00360 0.40960 0.69370 0.04800
C 	C 	0.95690 0.52290 0.54150 0.34500
C 	C 	0.71490 0.17730 0.67540 0.05900
H 	H 	0.71910 0.26990 0.65500 0.05200
C 	C 	0.67970 0.00920 0.78120 0.05900
H 	H 	0.65960 0.98770 0.83300 0.04700
C 	C 	0.77060 0.10840 0.53950 0.34800
C 	C 	0.91530 0.01970 0.51510 0.42400
C 	C 	0.66440 0.25990 0.81720 0.39200
C 	C 	0.93940 0.13250 0.57030 -0.13300
C 	C 	0.93570 0.26900 0.53330 0.06800
H 	H 	0.91690 0.29090 0.47830 0.04700
O 	O 	0.77610 0.22930 0.51530 -0.28500
C 	C 	0.99180 0.20370 0.69940 -0.10700
O 	O 	0.05000 0.25630 0.80450 -0.45500
C 	C 	0.96020 0.37250 0.57850 -0.10100
O 	O 	0.72290 0.66710 0.75040 -0.30300
C 	C 	0.69560 0.75130 0.76790 0.36300
Zn	Zn	0.16820 0.95653 0.89104 1.23900
Zn	Zn	0.08224 0.25620 0.93638 1.23600
O 	O 	0.33700 0.27790 0.31620 -0.42500
O 	O 	0.35840 0.77640 0.39560 -0.46300
O 	O 	0.32770 0.61490 0.28950 -0.44400
O 	O 	0.11170 0.94600 0.94830 -0.53200
C 	C 	0.29870 0.09870 0.23280 -0.08800
O 	O 	0.20910 0.99610 0.00120 -0.41900
O 	O 	0.98150 0.94590 0.33730 -0.27800
O 	O 	0.07750 0.10530 0.04410 -0.45600
C 	C 	0.31330 0.85320 0.25610 -0.11300
C 	C 	0.26280 0.92700 0.12360 -0.08800
O 	O 	0.07670 0.44490 0.99350 -0.46600
C 	C 	0.97780 0.83320 0.28890 0.36900
C 	C 	0.03320 0.89790 0.15450 0.11500
H 	H 	0.03180 0.98870 0.18120 0.03500
C 	C 	0.27030 0.06440 0.15290 0.04800
H 	H 	0.25580 0.13540 0.11790 0.06100
O 	O 	0.01520 0.39400 0.06040 -0.28300
C 	C 	0.01230 0.66070 0.16220 0.09900
H 	H 	0.99640 0.59040 0.19370 0.03800
C 	C 	0.04310 0.47710 0.04150 0.41200
C 	C 	0.28510 0.82270 0.17540 0.05300
H 	H 	0.28090 0.73010 0.15500 0.05900
C 	C 	0.32030 0.99080 0.28120 0.04900
H 	H 	0.34040 0.01230 0.33300 0.05500
C 	C 	0.22940 0.89160 0.03950 0.34400
C 	C 	0.08470 0.98030 0.01510 0.49100
C 	C 	0.33560 0.74010 0.31720 0.39000
C 	C 	0.06060 0.86750 0.07030 -0.19200
C 	C 	0.06430 0.73100 0.03330 0.19200
H 	H 	0.08310 0.70910 0.97830 -0.02000
O 	O 	0.22390 0.77070 0.01530 -0.26600
C 	C 	0.00820 0.79630 0.19940 -0.13400
O 	O 	0.95000 0.74370 0.30450 -0.45100
C 	C 	0.03980 0.62750 0.07850 -0.15900
O 	O 	0.27710 0.33290 0.25040 -0.29100
C 	C 	0.30440 0.24870 0.26790 0.36200
