data_crystal

_cell_length_a 19.44760
_cell_length_b 19.44760
_cell_length_c 24.12990
_cell_angle_alpha 90.00000
_cell_angle_beta  90.00000
_cell_angle_gamma 90.00000

_symmetry_space_group_name_	'P 1'
_symmetry_space_group_name_H-M	'P 1'

loop_
_symmetry_equiv_pos_as_xyz
  x,y,z

loop_
_atom_site_label
_atom_site_type_symbol
_atom_site_fract_x
_atom_site_fract_y
_atom_site_fract_z
_atom_site_charge
Cu	Cu	0.23190 0.22359 0.29834 0.90900
O 	O 	0.21130 0.31840 0.31580 -0.43600
O 	O 	0.94310 0.07010 0.05840 -0.39100
O 	O 	0.23970 0.36430 0.23580 -0.41700
O 	O 	0.14230 0.21320 0.26310 -0.40700
O 	O 	0.17220 0.25960 0.18130 -0.41400
C 	C 	0.15440 0.43880 0.35120 0.11300
H 	H 	0.13880 0.39630 0.36600 0.02800
C 	C 	0.13100 0.22810 0.21300 0.40200
C 	C 	0.19520 0.43790 0.30570 -0.19300
C 	C 	0.21940 0.36720 0.28430 0.43200
C 	C 	0.06120 0.16490 0.14630 0.13400
H 	H 	0.10320 0.14900 0.13080 0.00600
C 	C 	0.06330 0.20990 0.18920 -0.20100
O 	O 	0.07000 0.44020 0.44310 -0.40100
H 	H 	0.22370 0.54460 0.16380 0.02300
H 	H 	0.16900 0.49190 0.18930 0.03600
H 	H 	0.23590 0.46350 0.15820 0.04600
Cu	Cu	0.73190 0.72359 0.79834 0.91400
O 	O 	0.71130 0.81840 0.81580 -0.42200
O 	O 	0.44310 0.57010 0.55840 -0.41000
O 	O 	0.73970 0.86430 0.73580 -0.39600
O 	O 	0.64230 0.71320 0.76310 -0.39400
O 	O 	0.67220 0.75960 0.68130 -0.39900
C 	C 	0.65440 0.93880 0.85120 0.14900
H 	H 	0.63880 0.89630 0.86600 0.03300
C 	C 	0.63100 0.72810 0.71300 0.39900
C 	C 	0.69520 0.93790 0.80570 -0.13400
C 	C 	0.71940 0.86720 0.78430 0.42100
C 	C 	0.56120 0.66490 0.64630 0.12200
H 	H 	0.60320 0.64900 0.63080 0.02100
C 	C 	0.56330 0.70990 0.68920 -0.18700
O 	O 	0.57000 0.94020 0.94310 -0.31900
H 	H 	0.72370 0.04460 0.66380 0.06300
H 	H 	0.66900 0.99190 0.68930 -0.12500
H 	H 	0.73590 0.96350 0.65820 0.10500
Cu	Cu	0.76810 0.77641 0.29834 0.91300
O 	O 	0.78870 0.68160 0.31580 -0.42700
O 	O 	0.05690 0.92990 0.05840 -0.39700
O 	O 	0.76030 0.63570 0.23580 -0.41200
O 	O 	0.85770 0.78680 0.26310 -0.38200
O 	O 	0.82780 0.74040 0.18130 -0.40300
C 	C 	0.84560 0.56120 0.35120 0.10900
H 	H 	0.86120 0.60370 0.36600 0.04100
C 	C 	0.86900 0.77190 0.21300 0.39600
C 	C 	0.80480 0.56210 0.30570 -0.18200
C 	C 	0.78060 0.63280 0.28430 0.43000
C 	C 	0.93880 0.83510 0.14630 0.17600
H 	H 	0.89680 0.85100 0.13080 0.00900
C 	C 	0.93670 0.79010 0.18920 -0.15300
O 	O 	0.93000 0.55980 0.44310 -0.36600
H 	H 	0.77630 0.45540 0.16380 0.02500
H 	H 	0.83100 0.50810 0.18930 0.04300
H 	H 	0.76410 0.53650 0.15820 0.05200
Cu	Cu	0.26810 0.27641 0.79834 0.91300
O 	O 	0.28870 0.18160 0.81580 -0.42800
O 	O 	0.55690 0.42990 0.55840 -0.41100
O 	O 	0.26030 0.13570 0.73580 -0.41900
O 	O 	0.35770 0.28680 0.76310 -0.39500
O 	O 	0.32780 0.24040 0.68130 -0.41000
C 	C 	0.34560 0.06120 0.85120 0.10600
H 	H 	0.36120 0.10370 0.86600 0.03900
C 	C 	0.36900 0.27190 0.71300 0.40100
C 	C 	0.30480 0.06210 0.80570 -0.17800
C 	C 	0.28060 0.13280 0.78430 0.42400
C 	C 	0.43880 0.33510 0.64630 0.12300
H 	H 	0.39680 0.35100 0.63080 0.01800
C 	C 	0.43670 0.29010 0.68920 -0.19300
O 	O 	0.43000 0.05980 0.94310 -0.35500
H 	H 	0.27630 0.95540 0.66380 0.06500
H 	H 	0.33100 0.00810 0.68930 0.27200
H 	H 	0.26410 0.03650 0.65820 0.05700
Cu	Cu	0.76810 0.22359 0.70166 0.91000
O 	O 	0.78870 0.31840 0.68420 -0.43000
O 	O 	0.05690 0.07010 0.94160 -0.38500
O 	O 	0.76030 0.36430 0.76420 -0.40700
O 	O 	0.85770 0.21320 0.73690 -0.38900
O 	O 	0.82780 0.25960 0.81870 -0.39100
C 	C 	0.84560 0.43880 0.64880 0.10800
H 	H 	0.86120 0.39630 0.63400 0.04000
C 	C 	0.86900 0.22810 0.78700 0.39400
C 	C 	0.80480 0.43790 0.69430 -0.18000
C 	C 	0.78060 0.36720 0.71570 0.43000
C 	C 	0.93880 0.16490 0.85370 0.17300
H 	H 	0.89680 0.14900 0.86920 0.01300
C 	C 	0.93670 0.20990 0.81080 -0.15000
O 	O 	0.93000 0.44020 0.55690 -0.36700
H 	H 	0.77630 0.54460 0.83620 0.04100
H 	H 	0.83100 0.49190 0.81070 0.04900
H 	H 	0.76410 0.46350 0.84180 0.05600
Cu	Cu	0.26810 0.72359 0.20166 0.90800
O 	O 	0.28870 0.81840 0.18420 -0.43400
O 	O 	0.55690 0.57010 0.44160 -0.41000
O 	O 	0.26030 0.86430 0.26420 -0.40000
O 	O 	0.35770 0.71320 0.23690 -0.40100
O 	O 	0.32780 0.75960 0.31870 -0.40200
C 	C 	0.34560 0.93880 0.14880 0.16000
H 	H 	0.36120 0.89630 0.13400 0.01900
C 	C 	0.36900 0.72810 0.28700 0.40200
C 	C 	0.30480 0.93790 0.19430 -0.14500
C 	C 	0.28060 0.86720 0.21570 0.42500
C 	C 	0.43880 0.66490 0.35370 0.12300
H 	H 	0.39680 0.64900 0.36920 0.02000
C 	C 	0.43670 0.70990 0.31080 -0.19100
O 	O 	0.43000 0.94020 0.05690 -0.36400
H 	H 	0.27630 0.04460 0.33620 0.05500
H 	H 	0.33100 0.99190 0.31070 -0.13000
H 	H 	0.26410 0.96350 0.34180 0.10800
Cu	Cu	0.23190 0.77641 0.70166 0.91100
O 	O 	0.21130 0.68160 0.68420 -0.43300
O 	O 	0.94310 0.92990 0.94160 -0.31400
O 	O 	0.23970 0.63570 0.76420 -0.41100
O 	O 	0.14230 0.78680 0.73690 -0.39700
O 	O 	0.17220 0.74040 0.81870 -0.39900
C 	C 	0.15440 0.56120 0.64880 0.11200
H 	H 	0.13880 0.60370 0.63400 0.03100
C 	C 	0.13100 0.77190 0.78700 0.39700
C 	C 	0.19520 0.56210 0.69430 -0.18900
C 	C 	0.21940 0.63280 0.71570 0.43000
C 	C 	0.06120 0.83510 0.85370 0.12200
H 	H 	0.10320 0.85100 0.86920 0.02900
C 	C 	0.06330 0.79010 0.81080 -0.18000
O 	O 	0.07000 0.55980 0.55690 -0.39900
H 	H 	0.22370 0.45540 0.83620 0.03900
H 	H 	0.16900 0.50810 0.81070 0.04200
H 	H 	0.23590 0.53650 0.84180 0.04900
Cu	Cu	0.73190 0.27641 0.20166 0.90900
O 	O 	0.71130 0.18160 0.18420 -0.43700
O 	O 	0.44310 0.42990 0.44160 -0.41200
O 	O 	0.73970 0.13570 0.26420 -0.41700
O 	O 	0.64230 0.28680 0.23690 -0.40300
O 	O 	0.67220 0.24040 0.31870 -0.40900
C 	C 	0.65440 0.06120 0.14880 0.11300
H 	H 	0.63880 0.10370 0.13400 0.02700
C 	C 	0.63100 0.27190 0.28700 0.40200
C 	C 	0.69520 0.06210 0.19430 -0.18400
C 	C 	0.71940 0.13280 0.21570 0.42700
C 	C 	0.56120 0.33510 0.35370 0.12400
H 	H 	0.60320 0.35100 0.36920 0.01800
C 	C 	0.56330 0.29010 0.31080 -0.19600
O 	O 	0.57000 0.05980 0.05690 -0.40100
H 	H 	0.72370 0.95540 0.33620 0.07400
H 	H 	0.66900 0.00810 0.31070 0.27800
H 	H 	0.73590 0.03650 0.34180 0.05600
Cu	Cu	0.76810 0.77641 0.70166 0.91300
O 	O 	0.78870 0.68160 0.68420 -0.42700
O 	O 	0.05690 0.92990 0.94160 -0.35400
O 	O 	0.76030 0.63570 0.76420 -0.40700
O 	O 	0.85770 0.78680 0.73690 -0.38100
O 	O 	0.82780 0.74040 0.81870 -0.38900
C 	C 	0.84560 0.56120 0.64880 0.10800
H 	H 	0.86120 0.60370 0.63400 0.04200
C 	C 	0.86900 0.77190 0.78700 0.39200
C 	C 	0.80480 0.56210 0.69430 -0.17900
C 	C 	0.78060 0.63280 0.71570 0.42900
C 	C 	0.93880 0.83510 0.85370 0.16900
H 	H 	0.89680 0.85100 0.86920 0.02200
C 	C 	0.93670 0.79010 0.81080 -0.14100
O 	O 	0.93000 0.55980 0.55690 -0.36500
H 	H 	0.77630 0.45540 0.83620 0.04100
H 	H 	0.83100 0.50810 0.81070 0.04900
H 	H 	0.76410 0.53650 0.84180 0.05600
Cu	Cu	0.26810 0.27641 0.20166 0.90800
O 	O 	0.28870 0.18160 0.18420 -0.43900
O 	O 	0.55690 0.42990 0.44160 -0.41100
O 	O 	0.26030 0.13570 0.26420 -0.42000
O 	O 	0.35770 0.28680 0.23690 -0.40300
O 	O 	0.32780 0.24040 0.31870 -0.41000
C 	C 	0.34560 0.06120 0.14880 0.11400
H 	H 	0.36120 0.10370 0.13400 0.02600
C 	C 	0.36900 0.27190 0.28700 0.40300
C 	C 	0.30480 0.06210 0.19430 -0.18700
C 	C 	0.28060 0.13280 0.21570 0.42700
C 	C 	0.43880 0.33510 0.35370 0.12400
H 	H 	0.39680 0.35100 0.36920 0.01800
C 	C 	0.43670 0.29010 0.31080 -0.19600
O 	O 	0.43000 0.05980 0.05690 -0.40100
H 	H 	0.27630 0.95540 0.33620 0.06500
H 	H 	0.33100 0.00810 0.31070 0.27700
H 	H 	0.26410 0.03650 0.34180 0.05700
Cu	Cu	0.23190 0.22359 0.70166 0.90800
O 	O 	0.21130 0.31840 0.68420 -0.43600
O 	O 	0.94310 0.07010 0.94160 -0.34600
O 	O 	0.23970 0.36430 0.76420 -0.41100
O 	O 	0.14230 0.21320 0.73690 -0.40600
O 	O 	0.17220 0.25960 0.81870 -0.40000
C 	C 	0.15440 0.43880 0.64880 0.11200
H 	H 	0.13880 0.39630 0.63400 0.02900
C 	C 	0.13100 0.22810 0.78700 0.39800
C 	C 	0.19520 0.43790 0.69430 -0.19000
C 	C 	0.21940 0.36720 0.71570 0.43100
C 	C 	0.06120 0.16490 0.85370 0.12600
H 	H 	0.10320 0.14900 0.86920 0.02000
C 	C 	0.06330 0.20990 0.81080 -0.18800
O 	O 	0.07000 0.44020 0.55690 -0.40100
H 	H 	0.22370 0.54460 0.83620 0.03900
H 	H 	0.16900 0.49190 0.81070 0.04200
H 	H 	0.23590 0.46350 0.84180 0.04900
Cu	Cu	0.73190 0.72359 0.20166 0.90900
O 	O 	0.71130 0.81840 0.18420 -0.43200
O 	O 	0.44310 0.57010 0.44160 -0.41000
O 	O 	0.73970 0.86430 0.26420 -0.39600
O 	O 	0.64230 0.71320 0.23690 -0.40100
O 	O 	0.67220 0.75960 0.31870 -0.40000
C 	C 	0.65440 0.93880 0.14880 0.15900
H 	H 	0.63880 0.89630 0.13400 0.02000
C 	C 	0.63100 0.72810 0.28700 0.40100
C 	C 	0.69520 0.93790 0.19430 -0.14200
C 	C 	0.71940 0.86720 0.21570 0.42400
C 	C 	0.56120 0.66490 0.35370 0.12300
H 	H 	0.60320 0.64900 0.36920 0.02100
C 	C 	0.56330 0.70990 0.31080 -0.19000
O 	O 	0.57000 0.94020 0.05690 -0.36300
H 	H 	0.72370 0.04460 0.33620 0.06400
H 	H 	0.66900 0.99190 0.31070 -0.12900
H 	H 	0.73590 0.96350 0.34180 0.10600
Cu	Cu	0.23190 0.77641 0.29834 0.91100
O 	O 	0.21130 0.68160 0.31580 -0.43400
O 	O 	0.94310 0.92990 0.05840 -0.35800
O 	O 	0.23970 0.63570 0.23580 -0.41600
O 	O 	0.14230 0.78680 0.26310 -0.39900
O 	O 	0.17220 0.74040 0.18130 -0.41200
C 	C 	0.15440 0.56120 0.35120 0.11300
H 	H 	0.13880 0.60370 0.36600 0.03000
C 	C 	0.13100 0.77190 0.21300 0.40100
C 	C 	0.19520 0.56210 0.30570 -0.19200
C 	C 	0.21940 0.63280 0.28430 0.43100
C 	C 	0.06120 0.83510 0.14630 0.12900
H 	H 	0.10320 0.85100 0.13080 0.01600
C 	C 	0.06330 0.79010 0.18920 -0.19200
O 	O 	0.07000 0.55980 0.44310 -0.39900
H 	H 	0.22370 0.45540 0.16380 0.02300
H 	H 	0.16900 0.50810 0.18930 0.03600
H 	H 	0.23590 0.53650 0.15820 0.04600
Cu	Cu	0.73190 0.27641 0.79834 0.91300
O 	O 	0.71130 0.18160 0.81580 -0.42600
O 	O 	0.44310 0.42990 0.55840 -0.41200
O 	O 	0.73970 0.13570 0.73580 -0.41600
O 	O 	0.64230 0.28680 0.76310 -0.39500
O 	O 	0.67220 0.24040 0.68130 -0.40800
C 	C 	0.65440 0.06120 0.85120 0.10500
H 	H 	0.63880 0.10370 0.86600 0.04000
C 	C 	0.63100 0.27190 0.71300 0.40000
C 	C 	0.69520 0.06210 0.80570 -0.17500
C 	C 	0.71940 0.13280 0.78430 0.42300
C 	C 	0.56120 0.33510 0.64630 0.12300
H 	H 	0.60320 0.35100 0.63080 0.01900
C 	C 	0.56330 0.29010 0.68920 -0.19200
O 	O 	0.57000 0.05980 0.94310 -0.35400
H 	H 	0.72370 0.95540 0.66380 0.07300
H 	H 	0.66900 0.00810 0.68930 0.27300
H 	H 	0.73590 0.03650 0.65820 0.05600
Cu	Cu	0.76810 0.22359 0.29834 0.91000
O 	O 	0.78870 0.31840 0.31580 -0.43000
O 	O 	0.05690 0.07010 0.05840 -0.43100
O 	O 	0.76030 0.36430 0.23580 -0.41300
O 	O 	0.85770 0.21320 0.26310 -0.39000
O 	O 	0.82780 0.25960 0.18130 -0.40400
C 	C 	0.84560 0.43880 0.35120 0.11000
H 	H 	0.86120 0.39630 0.36600 0.03900
C 	C 	0.86900 0.22810 0.21300 0.39800
C 	C 	0.80480 0.43790 0.30570 -0.18300
C 	C 	0.78060 0.36720 0.28430 0.43100
C 	C 	0.93880 0.16490 0.14630 0.18100
H 	H 	0.89680 0.14900 0.13080 -0.00100
C 	C 	0.93670 0.20990 0.18920 -0.16200
O 	O 	0.93000 0.44020 0.44310 -0.36800
H 	H 	0.77630 0.54460 0.16380 0.02500
H 	H 	0.83100 0.49190 0.18930 0.04300
H 	H 	0.76410 0.46350 0.15820 0.05200
Cu	Cu	0.26810 0.72359 0.79834 0.91300
O 	O 	0.28870 0.81840 0.81580 -0.42300
O 	O 	0.55690 0.57010 0.55840 -0.41000
O 	O 	0.26030 0.86430 0.73580 -0.39900
O 	O 	0.35770 0.71320 0.76310 -0.39400
O 	O 	0.32780 0.75960 0.68130 -0.40100
C 	C 	0.34560 0.93880 0.85120 0.15000
H 	H 	0.36120 0.89630 0.86600 0.03200
C 	C 	0.36900 0.72810 0.71300 0.40000
C 	C 	0.30480 0.93790 0.80570 -0.13700
C 	C 	0.28060 0.86720 0.78430 0.42100
C 	C 	0.43880 0.66490 0.64630 0.12200
H 	H 	0.39680 0.64900 0.63080 0.02100
C 	C 	0.43670 0.70990 0.68920 -0.18700
O 	O 	0.43000 0.94020 0.94310 -0.32000
H 	H 	0.27630 0.04460 0.66380 0.05500
H 	H 	0.33100 0.99190 0.68930 -0.12600
H 	H 	0.26410 0.96350 0.65820 0.10600
Cu	Cu	0.93251 0.00000 -0.00000 0.86200
Cu	Cu	0.43251 0.50000 0.50000 0.90600
Cu	Cu	0.06749 0.00000 -0.00000 0.85000
Cu	Cu	0.56749 0.50000 0.50000 0.90600
C 	C 	-0.00000 0.08980 0.07580 0.34600
O 	O 	-0.00000 0.28290 0.25210 -0.20000
C 	C 	0.00000 0.14160 0.12440 -0.21800
C 	C 	-0.00000 0.23550 0.21110 0.20500
C 	C 	0.50000 0.58980 0.57580 0.39400
O 	O 	0.50000 0.78290 0.75210 -0.17600
C 	C 	0.50000 0.64160 0.62440 -0.15200
C 	C 	0.50000 0.73550 0.71110 0.25000
C 	C 	-0.00000 0.91020 0.07580 0.34100
O 	O 	-0.00000 0.71710 0.25210 -0.19700
C 	C 	-0.00000 0.85840 0.12440 -0.20100
C 	C 	-0.00000 0.76450 0.21110 0.20300
C 	C 	0.50000 0.41020 0.57580 0.39400
O 	O 	0.50000 0.21710 0.75210 -0.18700
C 	C 	0.50000 0.35840 0.62440 -0.15700
C 	C 	0.50000 0.26450 0.71110 0.25000
C 	C 	0.00000 0.08980 0.92420 0.33800
O 	O 	-0.00000 0.28290 0.74790 -0.19600
C 	C 	0.00000 0.14160 0.87560 -0.19600
C 	C 	0.00000 0.23550 0.78890 0.20200
C 	C 	0.50000 0.58980 0.42420 0.39400
O 	O 	0.50000 0.78290 0.24790 -0.18200
C 	C 	0.50000 0.64160 0.37560 -0.15400
C 	C 	0.50000 0.73550 0.28890 0.25000
C 	C 	0.00000 0.91020 0.92420 0.33300
O 	O 	-0.00000 0.71710 0.74790 -0.19300
C 	C 	0.00000 0.85840 0.87560 -0.18100
C 	C 	-0.00000 0.76450 0.78890 0.20000
C 	C 	0.50000 0.41020 0.42420 0.39400
O 	O 	0.50000 0.21710 0.24790 -0.19200
C 	C 	0.50000 0.35840 0.37560 -0.15800
C 	C 	0.50000 0.26450 0.28890 0.25000
O 	O 	0.25650 0.50000 0.23590 -0.19500
C 	C 	0.21990 0.50000 0.28080 0.25000
C 	C 	0.08790 0.50000 0.42430 0.33800
C 	C 	0.13460 0.50000 0.37710 -0.15200
C 	C 	0.21800 0.50000 0.18200 -0.10400
O 	O 	0.75650 0.00000 0.73590 -0.15600
C 	C 	0.71990 0.00000 0.78080 0.18200
C 	C 	0.58790 0.00000 0.92430 0.29100
C 	C 	0.63460 -0.00000 0.87710 -0.17100
C 	C 	0.71800 0.00000 0.68200 -0.32200
O 	O 	0.74350 0.50000 0.23590 -0.19100
C 	C 	0.78010 0.50000 0.28080 0.24700
C 	C 	0.91210 0.50000 0.42430 0.33700
C 	C 	0.86540 0.50000 0.37710 -0.13600
C 	C 	0.78200 0.50000 0.18200 -0.11600
O 	O 	0.24350 0.00000 0.73590 -0.16400
C 	C 	0.28010 0.00000 0.78080 0.18400
C 	C 	0.41210 0.00000 0.92430 0.29200
C 	C 	0.36540 -0.00000 0.87710 -0.17300
C 	C 	0.28200 0.00000 0.68200 -0.31500
O 	O 	0.74350 0.50000 0.76410 -0.18200
C 	C 	0.78010 0.50000 0.71920 0.24400
C 	C 	0.91210 0.50000 0.57570 0.33700
C 	C 	0.86540 0.50000 0.62290 -0.13500
C 	C 	0.78200 0.50000 0.81800 -0.13600
O 	O 	0.24350 0.00000 0.26410 -0.16500
C 	C 	0.28010 0.00000 0.21920 0.18600
C 	C 	0.41210 -0.00000 0.07570 0.29500
C 	C 	0.36540 0.00000 0.12290 -0.19500
C 	C 	0.28200 0.00000 0.31800 -0.31800
O 	O 	0.25650 0.50000 0.76410 -0.18600
C 	C 	0.21990 0.50000 0.71920 0.24700
C 	C 	0.08790 0.50000 0.57570 0.33800
C 	C 	0.13460 0.50000 0.62290 -0.15000
C 	C 	0.21800 0.50000 0.81800 -0.12400
O 	O 	0.75650 0.00000 0.26410 -0.15700
C 	C 	0.71990 0.00000 0.21920 0.18400
C 	C 	0.58790 -0.00000 0.07570 0.29500
C 	C 	0.63460 0.00000 0.12290 -0.19300
C 	C 	0.71800 0.00000 0.31800 -0.32500
Cu	Cu	0.00000 0.43195 0.50000 0.88500
Cu	Cu	0.50000 0.93195 -0.00000 0.88400
Cu	Cu	-0.00000 0.56805 0.50000 0.88700
Cu	Cu	0.50000 0.06805 -0.00000 0.87100
