data_crystal

_cell_length_a 9.48800
_cell_length_b 12.56200
_cell_length_c 15.47700
_cell_angle_alpha 90.00000
_cell_angle_beta  106.09900
_cell_angle_gamma 90.00000

_symmetry_space_group_name_	'P 1'
_symmetry_space_group_name_H-M	'P 1'

loop_
_symmetry_equiv_pos_as_xyz
  x,y,z

loop_
_atom_site_label
_atom_site_type_symbol
_atom_site_fract_x
_atom_site_fract_y
_atom_site_fract_z
_atom_site_charge
Zn	Zn	0.68389 0.05301 0.08518 1.24200
O 	O 	0.67000 0.94820 0.98860 -0.48200
O 	O 	0.74110 0.53130 0.69360 -0.43300
O 	O 	0.51880 0.55720 0.71400 -0.27000
O 	O 	0.47400 0.84470 0.92980 -0.47000
O 	O 	0.13360 0.88540 0.92770 -0.41400
C 	C 	0.60820 0.86950 0.94590 0.41600
O 	O 	0.15450 0.76030 0.83080 -0.27400
C 	C 	0.63880 0.71680 0.84670 0.04800
H 	H 	0.54070 0.69950 0.83880 0.05500
C 	C 	0.70150 0.79820 0.90470 -0.11100
C 	C 	0.84860 0.82330 0.91850 0.04800
H 	H 	0.89150 0.87640 0.95910 0.05600
C 	C 	0.72050 0.66060 0.80020 -0.08700
C 	C 	0.65160 0.57640 0.73100 0.33500
C 	C 	0.86670 0.68810 0.81340 0.03400
H 	H 	0.92230 0.65130 0.78230 0.06000
C 	C 	0.93180 0.76910 0.87160 -0.08200
C 	C 	0.08590 0.80570 0.87720 0.32800
Zn	Zn	0.31611 0.55301 0.41482 1.24200
O 	O 	0.33000 0.44820 0.51140 -0.48300
O 	O 	0.25890 0.03130 0.80640 -0.43200
O 	O 	0.48120 0.05720 0.78600 -0.27000
O 	O 	0.52600 0.34470 0.57020 -0.47000
O 	O 	0.86640 0.38540 0.57230 -0.41300
C 	C 	0.39180 0.36950 0.55410 0.41600
O 	O 	0.84550 0.26030 0.66920 -0.27300
C 	C 	0.36120 0.21680 0.65330 0.04900
H 	H 	0.45930 0.19950 0.66120 0.05500
C 	C 	0.29850 0.29820 0.59530 -0.11200
C 	C 	0.15140 0.32330 0.58150 0.04900
H 	H 	0.10850 0.37640 0.54090 0.05500
C 	C 	0.27950 0.16060 0.69980 -0.08600
C 	C 	0.34840 0.07640 0.76900 0.33500
C 	C 	0.13330 0.18810 0.68660 0.03500
H 	H 	0.07770 0.15130 0.71770 0.06000
C 	C 	0.06820 0.26910 0.62840 -0.08400
C 	C 	0.91410 0.30570 0.62280 0.33000
Zn	Zn	0.31611 0.94699 0.91482 1.24100
O 	O 	0.33000 0.05180 0.01140 -0.48300
O 	O 	0.25890 0.46870 0.30640 -0.43400
O 	O 	0.48120 0.44280 0.28600 -0.27100
O 	O 	0.52600 0.15530 0.07020 -0.47000
O 	O 	0.86640 0.11460 0.07230 -0.41400
C 	C 	0.39180 0.13050 0.05410 0.41600
O 	O 	0.84550 0.23970 0.16920 -0.27400
C 	C 	0.36120 0.28320 0.15330 0.04800
H 	H 	0.45930 0.30050 0.16120 0.05500
C 	C 	0.29850 0.20180 0.09530 -0.11100
C 	C 	0.15140 0.17670 0.08150 0.04800
H 	H 	0.10850 0.12360 0.04090 0.05600
C 	C 	0.27950 0.33940 0.19980 -0.08700
C 	C 	0.34840 0.42360 0.26900 0.33500
C 	C 	0.13330 0.31190 0.18660 0.03400
H 	H 	0.07770 0.34870 0.21770 0.06000
C 	C 	0.06820 0.23090 0.12840 -0.08200
C 	C 	0.91410 0.19430 0.12280 0.32800
Zn	Zn	0.68389 0.44699 0.58518 1.24200
O 	O 	0.67000 0.55180 0.48860 -0.48300
O 	O 	0.74110 0.96870 0.19360 -0.43200
O 	O 	0.51880 0.94280 0.21400 -0.27000
O 	O 	0.47400 0.65530 0.42980 -0.47000
O 	O 	0.13360 0.61460 0.42770 -0.41300
C 	C 	0.60820 0.63050 0.44590 0.41600
O 	O 	0.15450 0.73970 0.33080 -0.27300
C 	C 	0.63880 0.78320 0.34670 0.04900
H 	H 	0.54070 0.80050 0.33880 0.05500
C 	C 	0.70150 0.70180 0.40470 -0.11200
C 	C 	0.84860 0.67670 0.41850 0.04900
H 	H 	0.89150 0.62360 0.45910 0.05500
C 	C 	0.72050 0.83940 0.30020 -0.08600
C 	C 	0.65160 0.92360 0.23100 0.33500
C 	C 	0.86670 0.81190 0.31340 0.03500
H 	H 	0.92230 0.84870 0.28230 0.06000
C 	C 	0.93180 0.73090 0.37160 -0.08400
C 	C 	0.08590 0.69430 0.37720 0.33000
