data_crystal

_cell_length_a 26.08200
_cell_length_b 26.08200
_cell_length_c 5.05300
_cell_angle_alpha 90.00000
_cell_angle_beta  90.00000
_cell_angle_gamma 90.00000

_symmetry_space_group_name_	'P 1'
_symmetry_space_group_name_H-M	'P 1'

loop_
_symmetry_equiv_pos_as_xyz
  x,y,z

loop_
_atom_site_label
_atom_site_type_symbol
_atom_site_fract_x
_atom_site_fract_y
_atom_site_fract_z
_atom_site_charge
Zn	Zn	0.27581 0.21562 0.84260 1.23000
O 	O 	0.21860 0.25090 0.01100 -0.78100
H 	H 	0.19750 0.26210 0.89640 0.28900
N 	N 	0.26070 0.14600 0.86200 -0.30200
C 	C 	0.27150 0.10650 0.01100 0.14100
H 	H 	0.29810 0.10890 0.13260 -0.02500
N 	N 	0.24460 0.06200 0.99300 -0.17700
C 	C 	0.21540 0.11980 0.71100 -0.00200
O 	O 	0.27440 0.83670 0.45100 -0.51900
C 	C 	0.18560 0.14160 0.51500 -0.08900
H 	H 	0.19140 0.17510 0.46030 0.02300
O 	O 	0.32680 0.88220 0.67200 -0.22300
C 	C 	0.14690 0.11260 0.40200 0.01400
C 	C 	0.11720 0.13460 0.20700 -0.06200
H 	H 	0.12410 0.16820 0.15580 0.04900
C 	C 	0.07760 0.10850 0.08300 -0.04500
H 	H 	0.05750 0.12320 0.95110 0.03600
C 	C 	0.07030 0.05860 0.17100 -0.00600
H 	H 	0.04430 0.03920 0.09450 0.02600
C 	C 	0.09980 0.03640 0.36800 -0.11400
H 	H 	0.09280 0.00290 0.41910 0.06900
C 	C 	0.13950 0.06260 0.49100 0.07200
C 	C 	0.16920 0.04070 0.68700 -0.15200
H 	H 	0.16260 0.00760 0.74740 0.08200
C 	C 	0.20910 0.06930 0.79100 0.09700
C 	C 	0.25320 0.01450 0.11100 0.14800
C 	C 	0.27750 0.93030 0.40500 -0.11300
C 	C 	0.27880 0.01990 0.34900 -0.09000
H 	H 	0.28770 0.05250 0.40730 0.06600
C 	C 	0.29140 0.97790 0.50000 0.03200
H 	H 	0.30850 0.98150 0.66050 0.02800
C 	C 	0.25180 0.92330 0.17000 -0.00000
H 	H 	0.24270 0.89070 0.11150 0.03200
C 	C 	0.24010 0.96630 0.02400 -0.01400
H 	H 	0.22300 0.96270 0.86360 0.03800
C 	C 	0.28640 0.87860 0.53200 0.36900
O 	O 	0.30700 0.87500 0.86000 -0.13200
C 	C 	0.30090 0.01100 0.22400 -0.07100
H 	H 	0.32440 0.03740 0.19960 0.06000
C 	C 	0.31480 0.96840 0.37600 0.00300
H 	H 	0.34700 0.96560 0.45340 0.04100
C 	C 	0.22830 0.93010 0.29700 0.03100
H 	H 	0.20480 0.90370 0.32020 0.01400
C 	C 	0.21860 0.97440 0.15000 -0.14500
H 	H 	0.18640 0.97750 0.07230 0.07300
Zn	Zn	0.77581 0.71562 0.34260 1.23400
O 	O 	0.71860 0.75090 0.51100 -0.80300
H 	H 	0.69750 0.76210 0.39640 0.30500
N 	N 	0.76070 0.64600 0.36200 -0.29200
C 	C 	0.77150 0.60650 0.51100 0.12600
H 	H 	0.79810 0.60890 0.63260 -0.02200
N 	N 	0.74460 0.56200 0.49300 -0.17100
C 	C 	0.71540 0.61980 0.21100 -0.02000
O 	O 	0.77440 0.33670 0.95100 -0.49900
C 	C 	0.68560 0.64160 0.01500 -0.03200
H 	H 	0.69140 0.67510 0.96030 -0.00500
O 	O 	0.82680 0.38220 0.17200 -0.21800
C 	C 	0.64690 0.61260 0.90200 -0.03300
C 	C 	0.61720 0.63460 0.70700 -0.02200
H 	H 	0.62410 0.66820 0.65580 0.03200
C 	C 	0.57760 0.60850 0.58300 -0.08500
H 	H 	0.55750 0.62320 0.45110 0.05300
C 	C 	0.57030 0.55860 0.67100 0.02500
H 	H 	0.54430 0.53920 0.59450 0.01600
C 	C 	0.59980 0.53640 0.86800 -0.14200
H 	H 	0.59280 0.50290 0.91910 0.07900
C 	C 	0.63950 0.56260 0.99100 0.09900
C 	C 	0.66920 0.54070 0.18700 -0.16900
H 	H 	0.66260 0.50760 0.24740 0.08700
C 	C 	0.70910 0.56930 0.29100 0.11100
C 	C 	0.75320 0.51450 0.61100 0.13500
C 	C 	0.77750 0.43030 0.90500 -0.08600
C 	C 	0.77880 0.51990 0.84900 -0.10100
H 	H 	0.78770 0.55250 0.90730 0.06800
C 	C 	0.79140 0.47790 -0.00000 0.02300
H 	H 	0.80850 0.48150 0.16050 0.03000
C 	C 	0.75180 0.42330 0.67000 0.00100
H 	H 	0.74270 0.39070 0.61150 0.03600
C 	C 	0.74010 0.46630 0.52400 -0.00900
H 	H 	0.72300 0.46270 0.36360 0.03300
C 	C 	0.78640 0.37860 0.03200 0.33800
O 	O 	0.80700 0.37500 0.36000 -0.13800
C 	C 	0.80090 0.51100 0.72400 -0.04500
H 	H 	0.82440 0.53740 0.69960 0.05100
C 	C 	0.81480 0.46840 0.87600 -0.00900
H 	H 	0.84700 0.46560 0.95340 0.04700
C 	C 	0.72830 0.43010 0.79700 0.01300
H 	H 	0.70480 0.40370 0.82020 0.02300
C 	C 	0.71860 0.47440 0.65000 -0.13300
H 	H 	0.68640 0.47750 0.57230 0.06900
Zn	Zn	0.72419 0.78438 0.84260 1.23000
O 	O 	0.78140 0.74910 0.01100 -0.78100
H 	H 	0.80250 0.73790 0.89640 0.28900
N 	N 	0.73930 0.85400 0.86200 -0.30200
C 	C 	0.72850 0.89350 0.01100 0.14100
H 	H 	0.70190 0.89110 0.13260 -0.02500
N 	N 	0.75540 0.93800 0.99300 -0.17700
C 	C 	0.78460 0.88020 0.71100 -0.00200
O 	O 	0.72560 0.16330 0.45100 -0.51900
C 	C 	0.81440 0.85840 0.51500 -0.08900
H 	H 	0.80860 0.82490 0.46030 0.02300
O 	O 	0.67320 0.11780 0.67200 -0.22300
C 	C 	0.85310 0.88740 0.40200 0.01400
C 	C 	0.88280 0.86540 0.20700 -0.06200
H 	H 	0.87590 0.83180 0.15580 0.04900
C 	C 	0.92240 0.89150 0.08300 -0.04500
H 	H 	0.94250 0.87680 0.95110 0.03600
C 	C 	0.92970 0.94140 0.17100 -0.00600
H 	H 	0.95570 0.96080 0.09450 0.02600
C 	C 	0.90020 0.96360 0.36800 -0.11400
H 	H 	0.90720 0.99710 0.41910 0.06900
C 	C 	0.86050 0.93740 0.49100 0.07200
C 	C 	0.83080 0.95930 0.68700 -0.15200
H 	H 	0.83740 0.99240 0.74740 0.08200
C 	C 	0.79090 0.93070 0.79100 0.09700
C 	C 	0.74680 0.98550 0.11100 0.14800
C 	C 	0.72250 0.06970 0.40500 -0.11300
C 	C 	0.72120 0.98010 0.34900 -0.09000
H 	H 	0.71230 0.94750 0.40730 0.06600
C 	C 	0.70860 0.02210 0.50000 0.03200
H 	H 	0.69150 0.01850 0.66050 0.02800
C 	C 	0.74820 0.07670 0.17000 -0.00000
H 	H 	0.75730 0.10930 0.11150 0.03200
C 	C 	0.75990 0.03370 0.02400 -0.01400
H 	H 	0.77700 0.03730 0.86360 0.03800
C 	C 	0.71360 0.12140 0.53200 0.36900
O 	O 	0.69300 0.12500 0.86000 -0.13200
C 	C 	0.69910 0.98900 0.22400 -0.07100
H 	H 	0.67560 0.96260 0.19960 0.06000
C 	C 	0.68520 0.03160 0.37600 0.00300
H 	H 	0.65300 0.03440 0.45340 0.04100
C 	C 	0.77170 0.06990 0.29700 0.03100
H 	H 	0.79520 0.09630 0.32020 0.01400
C 	C 	0.78140 0.02560 0.15000 -0.14500
H 	H 	0.81360 0.02250 0.07230 0.07300
Zn	Zn	0.22419 0.28438 0.34260 1.23400
O 	O 	0.28140 0.24910 0.51100 -0.80300
H 	H 	0.30250 0.23790 0.39640 0.30500
N 	N 	0.23930 0.35400 0.36200 -0.29200
C 	C 	0.22850 0.39350 0.51100 0.12600
H 	H 	0.20190 0.39110 0.63260 -0.02200
N 	N 	0.25540 0.43800 0.49300 -0.17100
C 	C 	0.28460 0.38020 0.21100 -0.02000
O 	O 	0.22560 0.66330 0.95100 -0.49900
C 	C 	0.31440 0.35840 0.01500 -0.03200
H 	H 	0.30860 0.32490 0.96030 -0.00500
O 	O 	0.17320 0.61780 0.17200 -0.21800
C 	C 	0.35310 0.38740 0.90200 -0.03300
C 	C 	0.38280 0.36540 0.70700 -0.02200
H 	H 	0.37590 0.33180 0.65580 0.03200
C 	C 	0.42240 0.39150 0.58300 -0.08500
H 	H 	0.44250 0.37680 0.45110 0.05300
C 	C 	0.42970 0.44140 0.67100 0.02500
H 	H 	0.45570 0.46080 0.59450 0.01600
C 	C 	0.40020 0.46360 0.86800 -0.14200
H 	H 	0.40720 0.49710 0.91910 0.07900
C 	C 	0.36050 0.43740 0.99100 0.09900
C 	C 	0.33080 0.45930 0.18700 -0.16900
H 	H 	0.33740 0.49240 0.24740 0.08700
C 	C 	0.29090 0.43070 0.29100 0.11100
C 	C 	0.24680 0.48550 0.61100 0.13500
C 	C 	0.22250 0.56970 0.90500 -0.08600
C 	C 	0.22120 0.48010 0.84900 -0.10100
H 	H 	0.21230 0.44750 0.90730 0.06800
C 	C 	0.20860 0.52210 -0.00000 0.02300
H 	H 	0.19150 0.51850 0.16050 0.03000
C 	C 	0.24820 0.57670 0.67000 0.00100
H 	H 	0.25730 0.60930 0.61150 0.03600
C 	C 	0.25990 0.53370 0.52400 -0.00900
H 	H 	0.27700 0.53730 0.36360 0.03300
C 	C 	0.21360 0.62140 0.03200 0.33800
O 	O 	0.19300 0.62500 0.36000 -0.13800
C 	C 	0.19910 0.48900 0.72400 -0.04500
H 	H 	0.17560 0.46260 0.69960 0.05100
C 	C 	0.18520 0.53160 0.87600 -0.00900
H 	H 	0.15300 0.53440 0.95340 0.04700
C 	C 	0.27170 0.56990 0.79700 0.01300
H 	H 	0.29520 0.59630 0.82020 0.02300
C 	C 	0.28140 0.52560 0.65000 -0.13300
H 	H 	0.31360 0.52250 0.57230 0.06900
Zn	Zn	0.21562 0.72419 0.15740 1.23000
O 	O 	0.25090 0.78140 0.98900 -0.77900
H 	H 	0.26210 0.80250 0.10360 0.28700
N 	N 	0.14600 0.73930 0.13800 -0.30300
C 	C 	0.10650 0.72850 0.98900 0.14400
H 	H 	0.10890 0.70190 0.86740 -0.02600
N 	N 	0.06200 0.75540 0.00700 -0.17800
C 	C 	0.11980 0.78460 0.28900 -0.00200
O 	O 	0.83670 0.72560 0.54900 -0.51900
C 	C 	0.14160 0.81440 0.48500 -0.09000
H 	H 	0.17510 0.80860 0.53970 0.02300
O 	O 	0.88220 0.67320 0.32800 -0.22300
C 	C 	0.11260 0.85310 0.59800 0.01600
C 	C 	0.13460 0.88280 0.79300 -0.06400
H 	H 	0.16820 0.87590 0.84420 0.05000
C 	C 	0.10850 0.92240 0.91700 -0.04100
H 	H 	0.12320 0.94250 0.04890 0.03400
C 	C 	0.05860 0.92970 0.82900 -0.00800
H 	H 	0.03920 0.95570 0.90550 0.02700
C 	C 	0.03640 0.90020 0.63200 -0.11200
H 	H 	0.00290 0.90720 0.58090 0.06800
C 	C 	0.06260 0.86050 0.50900 0.07000
C 	C 	0.04070 0.83080 0.31300 -0.15100
H 	H 	0.00760 0.83740 0.25260 0.08100
C 	C 	0.06930 0.79090 0.20900 0.09600
C 	C 	0.01450 0.74680 0.88900 0.14900
C 	C 	0.93030 0.72250 0.59500 -0.11300
C 	C 	0.01990 0.72120 0.65100 -0.09000
H 	H 	0.05250 0.71230 0.59270 0.06600
C 	C 	0.97790 0.70860 0.50000 0.03200
H 	H 	0.98150 0.69150 0.33950 0.02800
C 	C 	0.92330 0.74820 0.83000 0.00300
H 	H 	0.89070 0.75730 0.88850 0.03100
C 	C 	0.96630 0.75990 0.97600 -0.01400
H 	H 	0.96270 0.77700 0.13640 0.03700
C 	C 	0.87860 0.71360 0.46800 0.36900
O 	O 	0.87500 0.69300 0.14000 -0.13300
C 	C 	0.01100 0.69910 0.77600 -0.07100
H 	H 	0.03740 0.67560 0.80040 0.06100
C 	C 	0.96840 0.68520 0.62400 0.00400
H 	H 	0.96560 0.65300 0.54660 0.04100
C 	C 	0.93010 0.77170 0.70300 0.02800
H 	H 	0.90370 0.79520 0.67980 0.01500
C 	C 	0.97440 0.78140 0.85000 -0.14400
H 	H 	0.97750 0.81360 0.92770 0.07300
Zn	Zn	0.71562 0.22419 0.65740 1.23400
O 	O 	0.75090 0.28140 0.48900 -0.80300
H 	H 	0.76210 0.30250 0.60360 0.30500
N 	N 	0.64600 0.23930 0.63800 -0.29200
C 	C 	0.60650 0.22850 0.48900 0.12600
H 	H 	0.60890 0.20190 0.36740 -0.02200
N 	N 	0.56200 0.25540 0.50700 -0.17200
C 	C 	0.61980 0.28460 0.78900 -0.02200
O 	O 	0.33670 0.22560 0.04900 -0.50200
C 	C 	0.64160 0.31440 0.98500 -0.02500
H 	H 	0.67510 0.30860 0.03970 -0.00800
O 	O 	0.38220 0.17320 0.82800 -0.21900
C 	C 	0.61260 0.35310 0.09800 -0.03700
C 	C 	0.63460 0.38280 0.29300 -0.02000
H 	H 	0.66820 0.37590 0.34420 0.03100
C 	C 	0.60850 0.42240 0.41700 -0.08700
H 	H 	0.62320 0.44250 0.54890 0.05400
C 	C 	0.55860 0.42970 0.32900 0.02600
H 	H 	0.53920 0.45570 0.40550 0.01500
C 	C 	0.53640 0.40020 0.13200 -0.14300
H 	H 	0.50290 0.40720 0.08090 0.07900
C 	C 	0.56260 0.36050 0.00900 0.09900
C 	C 	0.54070 0.33080 0.81300 -0.16800
H 	H 	0.50760 0.33740 0.75260 0.08700
C 	C 	0.56930 0.29090 0.70900 0.11100
C 	C 	0.51450 0.24680 0.38900 0.13800
C 	C 	0.43030 0.22250 0.09500 -0.09300
C 	C 	0.51990 0.22120 0.15100 -0.08100
H 	H 	0.55250 0.21230 0.09270 0.06100
C 	C 	0.47790 0.20860 -0.00000 0.02500
H 	H 	0.48150 0.19150 0.83950 0.03000
C 	C 	0.42330 0.24820 0.33000 0.00800
H 	H 	0.39070 0.25730 0.38850 0.03400
C 	C 	0.46630 0.25990 0.47600 -0.01000
H 	H 	0.46270 0.27700 0.63640 0.03300
C 	C 	0.37860 0.21360 0.96800 0.34300
O 	O 	0.37500 0.19300 0.64000 -0.13800
C 	C 	0.51100 0.19910 0.27600 -0.07100
H 	H 	0.53740 0.17560 0.30040 0.06000
C 	C 	0.46840 0.18520 0.12400 -0.00100
H 	H 	0.46560 0.15300 0.04660 0.04400
C 	C 	0.43010 0.27170 0.20300 0.01000
H 	H 	0.40370 0.29520 0.17980 0.02400
C 	C 	0.47440 0.28140 0.35000 -0.13600
H 	H 	0.47750 0.31360 0.42770 0.07000
Zn	Zn	0.78438 0.27581 0.15740 1.23000
O 	O 	0.74910 0.21860 0.98900 -0.77900
H 	H 	0.73790 0.19750 0.10360 0.28700
N 	N 	0.85400 0.26070 0.13800 -0.30300
C 	C 	0.89350 0.27150 0.98900 0.14400
H 	H 	0.89110 0.29810 0.86740 -0.02600
N 	N 	0.93800 0.24460 0.00700 -0.17800
C 	C 	0.88020 0.21540 0.28900 -0.00200
O 	O 	0.16330 0.27440 0.54900 -0.51900
C 	C 	0.85840 0.18560 0.48500 -0.09000
H 	H 	0.82490 0.19140 0.53970 0.02300
O 	O 	0.11780 0.32680 0.32800 -0.22300
C 	C 	0.88740 0.14690 0.59800 0.01600
C 	C 	0.86540 0.11720 0.79300 -0.06400
H 	H 	0.83180 0.12410 0.84420 0.05000
C 	C 	0.89150 0.07760 0.91700 -0.04100
H 	H 	0.87680 0.05750 0.04890 0.03400
C 	C 	0.94140 0.07030 0.82900 -0.00800
H 	H 	0.96080 0.04430 0.90550 0.02700
C 	C 	0.96360 0.09980 0.63200 -0.11200
H 	H 	0.99710 0.09280 0.58090 0.06800
C 	C 	0.93740 0.13950 0.50900 0.07000
C 	C 	0.95930 0.16920 0.31300 -0.15100
H 	H 	0.99240 0.16260 0.25260 0.08100
C 	C 	0.93070 0.20910 0.20900 0.09600
C 	C 	0.98550 0.25320 0.88900 0.14900
C 	C 	0.06970 0.27750 0.59500 -0.11300
C 	C 	0.98010 0.27880 0.65100 -0.09000
H 	H 	0.94750 0.28770 0.59270 0.06600
C 	C 	0.02210 0.29140 0.50000 0.03200
H 	H 	0.01850 0.30850 0.33950 0.02800
C 	C 	0.07670 0.25180 0.83000 0.00300
H 	H 	0.10930 0.24270 0.88850 0.03100
C 	C 	0.03370 0.24010 0.97600 -0.01400
H 	H 	0.03730 0.22300 0.13640 0.03700
C 	C 	0.12140 0.28640 0.46800 0.36900
O 	O 	0.12500 0.30700 0.14000 -0.13300
C 	C 	0.98900 0.30090 0.77600 -0.07100
H 	H 	0.96260 0.32440 0.80040 0.06100
C 	C 	0.03160 0.31480 0.62400 0.00400
H 	H 	0.03440 0.34700 0.54660 0.04100
C 	C 	0.06990 0.22830 0.70300 0.02800
H 	H 	0.09630 0.20480 0.67980 0.01500
C 	C 	0.02560 0.21860 0.85000 -0.14400
H 	H 	0.02250 0.18640 0.92770 0.07300
Zn	Zn	0.28438 0.77581 0.65740 1.23400
O 	O 	0.24910 0.71860 0.48900 -0.80300
H 	H 	0.23790 0.69750 0.60360 0.30500
N 	N 	0.35400 0.76070 0.63800 -0.29200
C 	C 	0.39350 0.77150 0.48900 0.12600
H 	H 	0.39110 0.79810 0.36740 -0.02200
N 	N 	0.43800 0.74460 0.50700 -0.17200
C 	C 	0.38020 0.71540 0.78900 -0.02200
O 	O 	0.66330 0.77440 0.04900 -0.50200
C 	C 	0.35840 0.68560 0.98500 -0.02500
H 	H 	0.32490 0.69140 0.03970 -0.00800
O 	O 	0.61780 0.82680 0.82800 -0.21900
C 	C 	0.38740 0.64690 0.09800 -0.03700
C 	C 	0.36540 0.61720 0.29300 -0.02000
H 	H 	0.33180 0.62410 0.34420 0.03100
C 	C 	0.39150 0.57760 0.41700 -0.08700
H 	H 	0.37680 0.55750 0.54890 0.05400
C 	C 	0.44140 0.57030 0.32900 0.02600
H 	H 	0.46080 0.54430 0.40550 0.01500
C 	C 	0.46360 0.59980 0.13200 -0.14300
H 	H 	0.49710 0.59280 0.08090 0.07900
C 	C 	0.43740 0.63950 0.00900 0.09900
C 	C 	0.45930 0.66920 0.81300 -0.16800
H 	H 	0.49240 0.66260 0.75260 0.08700
C 	C 	0.43070 0.70910 0.70900 0.11100
C 	C 	0.48550 0.75320 0.38900 0.13800
C 	C 	0.56970 0.77750 0.09500 -0.09300
C 	C 	0.48010 0.77880 0.15100 -0.08100
H 	H 	0.44750 0.78770 0.09270 0.06100
C 	C 	0.52210 0.79140 -0.00000 0.02500
H 	H 	0.51850 0.80850 0.83950 0.03000
C 	C 	0.57670 0.75180 0.33000 0.00800
H 	H 	0.60930 0.74270 0.38850 0.03400
C 	C 	0.53370 0.74010 0.47600 -0.01000
H 	H 	0.53730 0.72300 0.63640 0.03300
C 	C 	0.62140 0.78640 0.96800 0.34300
O 	O 	0.62500 0.80700 0.64000 -0.13800
C 	C 	0.48900 0.80090 0.27600 -0.07100
H 	H 	0.46260 0.82440 0.30040 0.06000
C 	C 	0.53160 0.81480 0.12400 -0.00100
H 	H 	0.53440 0.84700 0.04660 0.04400
C 	C 	0.56990 0.72830 0.20300 0.01000
H 	H 	0.59630 0.70480 0.17980 0.02400
C 	C 	0.52560 0.71860 0.35000 -0.13600
H 	H 	0.52250 0.68640 0.42770 0.07000
