data_crystal

_cell_length_a 26.54710
_cell_length_b 26.54710
_cell_length_c 5.13520
_cell_angle_alpha 90.00000
_cell_angle_beta  90.00000
_cell_angle_gamma 90.00000

_symmetry_space_group_name_	'P 1'
_symmetry_space_group_name_H-M	'P 1'

loop_
_symmetry_equiv_pos_as_xyz
  x,y,z

loop_
_atom_site_label
_atom_site_type_symbol
_atom_site_fract_x
_atom_site_fract_y
_atom_site_fract_z
_atom_site_charge
Zn	Zn	0.27280 0.21416 0.91481 1.21800
O 	O 	0.22110 0.25270 0.08540 -0.78300
H 	H 	0.20030 0.26370 0.97310 0.28800
N 	N 	0.25140 0.14140 0.89700 -0.28700
C 	C 	0.26780 0.10469 0.04340 0.13400
H 	H 	0.29320 0.10840 0.16670 -0.02200
N 	N 	0.24370 0.06050 0.99590 -0.18300
C 	C 	0.21311 0.12120 0.74160 0.04200
O 	O 	0.27710 0.83330 0.37180 -0.52800
C 	C 	0.18360 0.14430 0.55500 -0.13800
H 	H 	0.18760 0.17830 0.51590 0.04100
O 	O 	0.31550 0.87120 0.68400 -0.22900
C 	C 	0.14760 0.11520 0.42690 0.04500
C 	C 	0.11740 0.13590 0.23540 -0.09600
H 	H 	0.12140 0.16970 0.19230 0.06100
C 	C 	0.08110 0.10760 0.10530 -0.01500
H 	H 	0.06080 0.12210 0.97820 0.03200
C 	C 	0.07580 0.05660 0.17060 -0.03200
H 	H 	0.05190 0.03710 0.08490 0.03700
C 	C 	0.10570 0.03490 0.36090 -0.08000
H 	H 	0.10150 0.00100 0.40240 0.05800
C 	C 	0.14240 0.06350 0.49210 0.04100
C 	C 	0.17190 0.04030 0.68250 -0.13100
H 	H 	0.16770 0.00650 0.72510 0.07500
C 	C 	0.20780 0.07000 0.80490 0.07200
C 	C 	0.25748 0.01320 0.10390 0.20300
C 	C 	0.28490 0.92180 0.32220 -0.21200
C 	C 	0.27750 0.01080 0.35200 -0.65600
H 	H 	0.28170 0.04050 0.44530 0.26300
C 	C 	0.29140 0.96590 0.46620 0.52900
H 	H 	0.30460 0.96500 0.63370 -0.14200
C 	C 	0.26470 0.92220 0.07490 0.64100
H 	H 	0.26000 0.89240 0.98270 -0.17700
C 	C 	0.25150 0.96790 0.96790 -0.71600
H 	H 	0.23830 0.96870 0.80030 0.28200
C 	C 	0.29820 0.87210 0.44800 0.45400
O 	O 	0.34500 0.87000 0.53200 -0.21300
C 	C 	0.30720 0.00480 0.16350 0.39200
H 	H 	0.33100 0.02970 0.13090 -0.09100
C 	C 	0.32230 0.95850 0.27400 -0.39500
H 	H 	0.35590 0.95230 0.31380 0.18400
C 	C 	0.23370 0.92830 0.26100 -0.52400
H 	H 	0.20960 0.90350 0.28910 0.21300
C 	C 	0.22240 0.97570 0.15500 0.46700
H 	H 	0.18890 0.98250 0.11480 -0.13300
Zn	Zn	0.77280 0.71416 0.41481 1.22800
O 	O 	0.72110 0.75270 0.58540 -0.81100
H 	H 	0.70030 0.76370 0.47310 0.27500
N 	N 	0.75140 0.64140 0.39700 -0.26800
C 	C 	0.76780 0.60469 0.54340 0.11500
H 	H 	0.79320 0.60840 0.66670 -0.01300
N 	N 	0.74370 0.56050 0.49590 -0.15000
C 	C 	0.71311 0.62120 0.24160 0.04900
O 	O 	0.77710 0.33330 0.87180 -0.49800
C 	C 	0.68360 0.64430 0.05500 -0.08700
H 	H 	0.68760 0.67830 0.01590 0.04400
O 	O 	0.81550 0.37120 0.18400 -0.28800
C 	C 	0.64760 0.61520 0.92690 0.02800
C 	C 	0.61740 0.63590 0.73540 -0.05800
H 	H 	0.62140 0.66970 0.69230 0.04300
C 	C 	0.58110 0.60760 0.60530 -0.02000
H 	H 	0.56080 0.62210 0.47820 -0.00600
C 	C 	0.57580 0.55660 0.67060 -0.03200
H 	H 	0.55190 0.53710 0.58490 0.03000
C 	C 	0.60570 0.53490 0.86090 -0.12200
H 	H 	0.60150 0.50100 0.90240 0.05900
C 	C 	0.64240 0.56350 0.99210 0.05500
C 	C 	0.67190 0.54030 0.18250 -0.13700
H 	H 	0.66770 0.50650 0.22510 0.07500
C 	C 	0.70780 0.57000 0.30490 0.09800
C 	C 	0.75748 0.51320 0.60390 0.09200
C 	C 	0.78490 0.42180 0.82220 0.17200
C 	C 	0.77750 0.51080 0.85200 3.85800
H 	H 	0.78170 0.54050 0.94530 -1.29300
C 	C 	0.79140 0.46590 0.96620 -3.53800
H 	H 	0.80460 0.46500 0.13370 1.27400
C 	C 	0.76470 0.42220 0.57490 -4.11900
H 	H 	0.76000 0.39240 0.48270 1.45900
C 	C 	0.75150 0.46790 0.46790 4.15700
H 	H 	0.73830 0.46870 0.30030 -1.43000
C 	C 	0.79820 0.37210 0.94800 0.32300
O 	O 	0.84500 0.37000 0.03200 -0.15500
C 	C 	0.80720 0.50480 0.66350 -3.85100
H 	H 	0.83100 0.52970 0.63090 1.38400
C 	C 	0.82230 0.45850 0.77400 3.31900
H 	H 	0.85590 0.45230 0.81380 -1.11300
C 	C 	0.73370 0.42830 0.76100 3.89500
H 	H 	0.70960 0.40350 0.78910 -1.34900
C 	C 	0.72240 0.47570 0.65500 -4.15800
H 	H 	0.68890 0.48250 0.61480 1.46900
Zn	Zn	0.72720 0.78584 0.91481 1.21900
O 	O 	0.77890 0.74730 0.08540 -0.78200
H 	H 	0.79970 0.73630 0.97310 0.28900
N 	N 	0.74860 0.85860 0.89700 -0.28600
C 	C 	0.73220 0.89531 0.04340 0.13500
H 	H 	0.70680 0.89160 0.16670 -0.02100
N 	N 	0.75630 0.93950 0.99590 -0.18200
C 	C 	0.78689 0.87880 0.74160 0.04300
O 	O 	0.72290 0.16670 0.37180 -0.52800
C 	C 	0.81640 0.85570 0.55500 -0.13800
H 	H 	0.81240 0.82170 0.51590 0.04100
O 	O 	0.68450 0.12880 0.68400 -0.22900
C 	C 	0.85240 0.88480 0.42690 0.04500
C 	C 	0.88260 0.86410 0.23540 -0.09600
H 	H 	0.87860 0.83030 0.19230 0.06100
C 	C 	0.91890 0.89240 0.10530 -0.01500
H 	H 	0.93920 0.87790 0.97820 0.03200
C 	C 	0.92420 0.94340 0.17060 -0.03200
H 	H 	0.94810 0.96290 0.08490 0.03700
C 	C 	0.89430 0.96510 0.36090 -0.08000
H 	H 	0.89850 0.99900 0.40240 0.05800
C 	C 	0.85760 0.93650 0.49210 0.04100
C 	C 	0.82810 0.95970 0.68250 -0.13100
H 	H 	0.83230 0.99350 0.72510 0.07500
C 	C 	0.79220 0.93000 0.80490 0.07200
C 	C 	0.74252 0.98680 0.10390 0.20300
C 	C 	0.71510 0.07820 0.32220 -0.21200
C 	C 	0.72250 0.98920 0.35200 -0.65600
H 	H 	0.71830 0.95950 0.44530 0.26300
C 	C 	0.70860 0.03410 0.46620 0.52900
H 	H 	0.69540 0.03500 0.63370 -0.14200
C 	C 	0.73530 0.07780 0.07490 0.64100
H 	H 	0.74000 0.10760 0.98270 -0.17700
C 	C 	0.74850 0.03210 0.96790 -0.71600
H 	H 	0.76170 0.03130 0.80030 0.28200
C 	C 	0.70180 0.12790 0.44800 0.45400
O 	O 	0.65500 0.13000 0.53200 -0.21300
C 	C 	0.69280 0.99520 0.16350 0.39200
H 	H 	0.66900 0.97030 0.13090 -0.09100
C 	C 	0.67770 0.04150 0.27400 -0.39500
H 	H 	0.64410 0.04770 0.31380 0.18400
C 	C 	0.76630 0.07170 0.26100 -0.52400
H 	H 	0.79040 0.09650 0.28910 0.21300
C 	C 	0.77760 0.02430 0.15500 0.46700
H 	H 	0.81110 0.01750 0.11480 -0.13300
Zn	Zn	0.22720 0.28584 0.41481 1.22800
O 	O 	0.27890 0.24730 0.58540 -0.81100
H 	H 	0.29970 0.23630 0.47310 0.27500
N 	N 	0.24860 0.35860 0.39700 -0.26800
C 	C 	0.23220 0.39531 0.54340 0.11500
H 	H 	0.20680 0.39160 0.66670 -0.01300
N 	N 	0.25630 0.43950 0.49590 -0.15000
C 	C 	0.28689 0.37880 0.24160 0.04900
O 	O 	0.22290 0.66670 0.87180 -0.49800
C 	C 	0.31640 0.35570 0.05500 -0.08700
H 	H 	0.31240 0.32170 0.01590 0.04400
O 	O 	0.18450 0.62880 0.18400 -0.28800
C 	C 	0.35240 0.38480 0.92690 0.02800
C 	C 	0.38260 0.36410 0.73540 -0.05800
H 	H 	0.37860 0.33030 0.69230 0.04300
C 	C 	0.41890 0.39240 0.60530 -0.02000
H 	H 	0.43920 0.37790 0.47820 -0.00600
C 	C 	0.42420 0.44340 0.67060 -0.03200
H 	H 	0.44810 0.46290 0.58490 0.03000
C 	C 	0.39430 0.46510 0.86090 -0.12200
H 	H 	0.39850 0.49900 0.90240 0.05900
C 	C 	0.35760 0.43650 0.99210 0.05500
C 	C 	0.32810 0.45970 0.18250 -0.13700
H 	H 	0.33230 0.49350 0.22510 0.07500
C 	C 	0.29220 0.43000 0.30490 0.09800
C 	C 	0.24252 0.48680 0.60390 0.09200
C 	C 	0.21510 0.57820 0.82220 0.17200
C 	C 	0.22250 0.48920 0.85200 3.85800
H 	H 	0.21830 0.45950 0.94530 -1.29300
C 	C 	0.20860 0.53410 0.96620 -3.53800
H 	H 	0.19540 0.53500 0.13370 1.27400
C 	C 	0.23530 0.57780 0.57490 -4.11900
H 	H 	0.24000 0.60760 0.48270 1.45900
C 	C 	0.24850 0.53210 0.46790 4.15700
H 	H 	0.26170 0.53130 0.30030 -1.43000
C 	C 	0.20180 0.62790 0.94800 0.32300
O 	O 	0.15500 0.63000 0.03200 -0.15500
C 	C 	0.19280 0.49520 0.66350 -3.85100
H 	H 	0.16900 0.47030 0.63090 1.38400
C 	C 	0.17770 0.54150 0.77400 3.31900
H 	H 	0.14410 0.54770 0.81380 -1.11300
C 	C 	0.26630 0.57170 0.76100 3.89500
H 	H 	0.29040 0.59650 0.78910 -1.34900
C 	C 	0.27760 0.52430 0.65500 -4.15800
H 	H 	0.31110 0.51750 0.61480 1.46900
Zn	Zn	0.21416 0.72720 0.08519 1.21900
O 	O 	0.25270 0.77890 0.91460 -0.78200
H 	H 	0.26370 0.79970 0.02690 0.28900
N 	N 	0.14140 0.74860 0.10300 -0.28600
C 	C 	0.10469 0.73220 0.95660 0.13500
H 	H 	0.10840 0.70680 0.83330 -0.02100
N 	N 	0.06050 0.75630 0.00410 -0.18200
C 	C 	0.12120 0.78689 0.25840 0.04300
O 	O 	0.83330 0.72290 0.62820 -0.52800
C 	C 	0.14430 0.81640 0.44500 -0.13800
H 	H 	0.17830 0.81240 0.48410 0.04100
O 	O 	0.87120 0.68450 0.31600 -0.22900
C 	C 	0.11520 0.85240 0.57310 0.04500
C 	C 	0.13590 0.88260 0.76460 -0.09600
H 	H 	0.16970 0.87860 0.80770 0.06100
C 	C 	0.10760 0.91890 0.89470 -0.01500
H 	H 	0.12210 0.93920 0.02180 0.03200
C 	C 	0.05660 0.92420 0.82940 -0.03200
H 	H 	0.03710 0.94810 0.91510 0.03700
C 	C 	0.03490 0.89430 0.63910 -0.08000
H 	H 	0.00100 0.89850 0.59760 0.05800
C 	C 	0.06350 0.85760 0.50790 0.04100
C 	C 	0.04030 0.82810 0.31750 -0.13100
H 	H 	0.00650 0.83230 0.27490 0.07500
C 	C 	0.07000 0.79220 0.19510 0.07200
C 	C 	0.01320 0.74252 0.89610 0.20300
C 	C 	0.92180 0.71510 0.67780 -0.21200
C 	C 	0.01080 0.72250 0.64800 -0.65600
H 	H 	0.04050 0.71830 0.55470 0.26300
C 	C 	0.96590 0.70860 0.53380 0.52900
H 	H 	0.96500 0.69540 0.36630 -0.14200
C 	C 	0.92220 0.73530 0.92510 0.64100
H 	H 	0.89240 0.74000 0.01730 -0.17700
C 	C 	0.96790 0.74850 0.03210 -0.71600
H 	H 	0.96870 0.76170 0.19970 0.28200
C 	C 	0.87210 0.70180 0.55200 0.45400
O 	O 	0.87000 0.65500 0.46800 -0.21300
C 	C 	0.00480 0.69280 0.83650 0.39200
H 	H 	0.02970 0.66900 0.86910 -0.09100
C 	C 	0.95850 0.67770 0.72600 -0.39500
H 	H 	0.95230 0.64410 0.68620 0.18400
C 	C 	0.92830 0.76630 0.73900 -0.52400
H 	H 	0.90350 0.79040 0.71090 0.21300
C 	C 	0.97570 0.77760 0.84500 0.46700
H 	H 	0.98250 0.81110 0.88520 -0.13300
Zn	Zn	0.71416 0.22720 0.58519 1.22800
O 	O 	0.75270 0.27890 0.41460 -0.81100
H 	H 	0.76370 0.29970 0.52690 0.27500
N 	N 	0.64140 0.24860 0.60300 -0.26800
C 	C 	0.60469 0.23220 0.45660 0.11500
H 	H 	0.60840 0.20680 0.33330 -0.01300
N 	N 	0.56050 0.25630 0.50410 -0.15000
C 	C 	0.62120 0.28689 0.75840 0.04900
O 	O 	0.33330 0.22290 0.12820 -0.49800
C 	C 	0.64430 0.31640 0.94500 -0.08700
H 	H 	0.67830 0.31240 0.98410 0.04400
O 	O 	0.37120 0.18450 0.81600 -0.28800
C 	C 	0.61520 0.35240 0.07310 0.02800
C 	C 	0.63590 0.38260 0.26460 -0.05800
H 	H 	0.66970 0.37860 0.30770 0.04300
C 	C 	0.60760 0.41890 0.39470 -0.02000
H 	H 	0.62210 0.43920 0.52180 -0.00600
C 	C 	0.55660 0.42420 0.32940 -0.03200
H 	H 	0.53710 0.44810 0.41510 0.03000
C 	C 	0.53490 0.39430 0.13910 -0.12200
H 	H 	0.50100 0.39850 0.09760 0.05900
C 	C 	0.56350 0.35760 0.00790 0.05500
C 	C 	0.54030 0.32810 0.81750 -0.13700
H 	H 	0.50650 0.33230 0.77490 0.07500
C 	C 	0.57000 0.29220 0.69510 0.09800
C 	C 	0.51320 0.24252 0.39610 0.09200
C 	C 	0.42180 0.21510 0.17780 0.17200
C 	C 	0.51080 0.22250 0.14800 3.85800
H 	H 	0.54050 0.21830 0.05470 -1.29300
C 	C 	0.46590 0.20860 0.03380 -3.53800
H 	H 	0.46500 0.19540 0.86630 1.27400
C 	C 	0.42220 0.23530 0.42510 -4.11900
H 	H 	0.39240 0.24000 0.51730 1.45900
C 	C 	0.46790 0.24850 0.53210 4.15700
H 	H 	0.46870 0.26170 0.69970 -1.43000
C 	C 	0.37210 0.20180 0.05200 0.32300
O 	O 	0.37000 0.15500 0.96800 -0.15500
C 	C 	0.50480 0.19280 0.33650 -3.85100
H 	H 	0.52970 0.16900 0.36910 1.38400
C 	C 	0.45850 0.17770 0.22600 3.31900
H 	H 	0.45230 0.14410 0.18620 -1.11300
C 	C 	0.42830 0.26630 0.23900 3.89500
H 	H 	0.40350 0.29040 0.21090 -1.34900
C 	C 	0.47570 0.27760 0.34500 -4.15800
H 	H 	0.48250 0.31110 0.38520 1.46900
Zn	Zn	0.78584 0.27280 0.08519 1.21900
O 	O 	0.74730 0.22110 0.91460 -0.78200
H 	H 	0.73630 0.20030 0.02690 0.28900
N 	N 	0.85860 0.25140 0.10300 -0.28600
C 	C 	0.89531 0.26780 0.95660 0.13500
H 	H 	0.89160 0.29320 0.83330 -0.02100
N 	N 	0.93950 0.24370 0.00410 -0.18200
C 	C 	0.87880 0.21311 0.25840 0.04300
O 	O 	0.16670 0.27710 0.62820 -0.52800
C 	C 	0.85570 0.18360 0.44500 -0.13800
H 	H 	0.82170 0.18760 0.48410 0.04100
O 	O 	0.12880 0.31550 0.31600 -0.22900
C 	C 	0.88480 0.14760 0.57310 0.04500
C 	C 	0.86410 0.11740 0.76460 -0.09600
H 	H 	0.83030 0.12140 0.80770 0.06100
C 	C 	0.89240 0.08110 0.89470 -0.01500
H 	H 	0.87790 0.06080 0.02180 0.03200
C 	C 	0.94340 0.07580 0.82940 -0.03200
H 	H 	0.96290 0.05190 0.91510 0.03700
C 	C 	0.96510 0.10570 0.63910 -0.08000
H 	H 	0.99900 0.10150 0.59760 0.05800
C 	C 	0.93650 0.14240 0.50790 0.04100
C 	C 	0.95970 0.17190 0.31750 -0.13100
H 	H 	0.99350 0.16770 0.27490 0.07500
C 	C 	0.93000 0.20780 0.19510 0.07200
C 	C 	0.98680 0.25748 0.89610 0.20300
C 	C 	0.07820 0.28490 0.67780 -0.21200
C 	C 	0.98920 0.27750 0.64800 -0.65600
H 	H 	0.95950 0.28170 0.55470 0.26300
C 	C 	0.03410 0.29140 0.53380 0.52900
H 	H 	0.03500 0.30460 0.36630 -0.14200
C 	C 	0.07780 0.26470 0.92510 0.64100
H 	H 	0.10760 0.26000 0.01730 -0.17700
C 	C 	0.03210 0.25150 0.03210 -0.71600
H 	H 	0.03130 0.23830 0.19970 0.28200
C 	C 	0.12790 0.29820 0.55200 0.45400
O 	O 	0.13000 0.34500 0.46800 -0.21300
C 	C 	0.99520 0.30720 0.83650 0.39200
H 	H 	0.97030 0.33100 0.86910 -0.09100
C 	C 	0.04150 0.32230 0.72600 -0.39500
H 	H 	0.04770 0.35590 0.68620 0.18400
C 	C 	0.07170 0.23370 0.73900 -0.52400
H 	H 	0.09650 0.20960 0.71090 0.21300
C 	C 	0.02430 0.22240 0.84500 0.46700
H 	H 	0.01750 0.18890 0.88520 -0.13300
Zn	Zn	0.28584 0.77280 0.58519 1.22800
O 	O 	0.24730 0.72110 0.41460 -0.81100
H 	H 	0.23630 0.70030 0.52690 0.27500
N 	N 	0.35860 0.75140 0.60300 -0.26800
C 	C 	0.39531 0.76780 0.45660 0.11500
H 	H 	0.39160 0.79320 0.33330 -0.01300
N 	N 	0.43950 0.74370 0.50410 -0.15000
C 	C 	0.37880 0.71311 0.75840 0.04900
O 	O 	0.66670 0.77710 0.12820 -0.49800
C 	C 	0.35570 0.68360 0.94500 -0.08700
H 	H 	0.32170 0.68760 0.98410 0.04400
O 	O 	0.62880 0.81550 0.81600 -0.28800
C 	C 	0.38480 0.64760 0.07310 0.02800
C 	C 	0.36410 0.61740 0.26460 -0.05800
H 	H 	0.33030 0.62140 0.30770 0.04300
C 	C 	0.39240 0.58110 0.39470 -0.02000
H 	H 	0.37790 0.56080 0.52180 -0.00600
C 	C 	0.44340 0.57580 0.32940 -0.03200
H 	H 	0.46290 0.55190 0.41510 0.03000
C 	C 	0.46510 0.60570 0.13910 -0.12200
H 	H 	0.49900 0.60150 0.09760 0.05900
C 	C 	0.43650 0.64240 0.00790 0.05500
C 	C 	0.45970 0.67190 0.81750 -0.13700
H 	H 	0.49350 0.66770 0.77490 0.07500
C 	C 	0.43000 0.70780 0.69510 0.09800
C 	C 	0.48680 0.75748 0.39610 0.09200
C 	C 	0.57820 0.78490 0.17780 0.17200
C 	C 	0.48920 0.77750 0.14800 3.85800
H 	H 	0.45950 0.78170 0.05470 -1.29300
C 	C 	0.53410 0.79140 0.03380 -3.53800
H 	H 	0.53500 0.80460 0.86630 1.27400
C 	C 	0.57780 0.76470 0.42510 -4.11900
H 	H 	0.60760 0.76000 0.51730 1.45900
C 	C 	0.53210 0.75150 0.53210 4.15700
H 	H 	0.53130 0.73830 0.69970 -1.43000
C 	C 	0.62790 0.79820 0.05200 0.32300
O 	O 	0.63000 0.84500 0.96800 -0.15500
C 	C 	0.49520 0.80720 0.33650 -3.85100
H 	H 	0.47030 0.83100 0.36910 1.38400
C 	C 	0.54150 0.82230 0.22600 3.31900
H 	H 	0.54770 0.85590 0.18620 -1.11300
C 	C 	0.57170 0.73370 0.23900 3.89500
H 	H 	0.59650 0.70960 0.21090 -1.34900
C 	C 	0.52430 0.72240 0.34500 -4.15800
H 	H 	0.51750 0.68890 0.38520 1.46900
