data_crystal

_cell_length_a 26.56340
_cell_length_b 26.56340
_cell_length_c 5.19540
_cell_angle_alpha 90.00000
_cell_angle_beta  90.00000
_cell_angle_gamma 90.00000

_symmetry_space_group_name_	'P 1'
_symmetry_space_group_name_H-M	'P 1'

loop_
_symmetry_equiv_pos_as_xyz
  x,y,z

loop_
_atom_site_label
_atom_site_type_symbol
_atom_site_fract_x
_atom_site_fract_y
_atom_site_fract_z
_atom_site_charge
Zn	Zn	0.27245 0.21432 0.92230 1.22900
O 	O 	0.22280 0.25380 0.09450 -0.78800
H 	H 	0.20200 0.26480 0.98230 0.28100
N 	N 	0.25420 0.14310 0.90700 -0.28100
C 	C 	0.26810 0.10420 0.04260 0.12000
H 	H 	0.29340 0.10650 0.16570 -0.01300
N 	N 	0.24370 0.06020 0.99560 -0.16700
C 	C 	0.21390 0.12050 0.74570 0.02300
O 	O 	0.27850 0.83260 0.36500 -0.50600
C 	C 	0.18450 0.14370 0.56110 -0.11200
H 	H 	0.18860 0.17770 0.52390 0.03400
O 	O 	0.32030 0.87370 0.66500 -0.23400
C 	C 	0.14870 0.11510 0.43240 0.02900
C 	C 	0.11850 0.13610 0.24450 -0.07800
H 	H 	0.12240 0.17000 0.20420 0.05200
C 	C 	0.08230 0.10810 0.11380 -0.02800
H 	H 	0.06230 0.12290 0.98830 0.03000
C 	C 	0.07690 0.05740 0.17460 -0.02200
H 	H 	0.05300 0.03790 0.08990 0.03200
C 	C 	0.10730 0.03610 0.36220 -0.09700
H 	H 	0.10350 0.00220 0.40160 0.06200
C 	C 	0.14330 0.06420 0.49320 0.05500
C 	C 	0.17240 0.04040 0.68040 -0.14100
H 	H 	0.16820 0.00650 0.71900 0.07900
C 	C 	0.20790 0.06980 0.80700 0.08600
C 	C 	0.25800 0.01230 0.10300 0.16100
C 	C 	0.28570 0.92230 0.31700 -0.12600
C 	C 	0.30760 0.00430 0.16400 -0.28100
H 	H 	0.33120 0.02940 0.13220 0.13700
C 	C 	0.32300 0.95860 0.27300 0.19300
H 	H 	0.35660 0.95270 0.31470 -0.01900
C 	C 	0.23430 0.92760 0.25800 0.17600
H 	H 	0.21050 0.90260 0.28720 -0.03600
C 	C 	0.22310 0.97460 0.15100 -0.27300
H 	H 	0.18970 0.98100 0.10890 0.12200
C 	C 	0.29870 0.87270 0.44300 0.39200
O 	O 	0.34800 0.86800 0.50200 -0.17400
C 	C 	0.27690 0.01040 0.35000 0.07900
H 	H 	0.28020 0.04010 0.44350 0.00900
C 	C 	0.29110 0.96560 0.46200 -0.13700
H 	H 	0.30380 0.96450 0.62880 0.09200
C 	C 	0.26690 0.92230 0.07000 -0.14100
H 	H 	0.26350 0.89260 0.97730 0.09200
C 	C 	0.25340 0.96790 0.96500 0.08900
H 	H 	0.24090 0.96890 0.79830 -0.00100
Zn	Zn	0.77245 0.71432 0.42230 1.23100
O 	O 	0.72280 0.75380 0.59450 -0.80400
H 	H 	0.70200 0.76480 0.48230 0.29600
N 	N 	0.75420 0.64310 0.40700 -0.27800
C 	C 	0.76810 0.60420 0.54260 0.11700
H 	H 	0.79340 0.60650 0.66570 -0.01300
N 	N 	0.74370 0.56020 0.49560 -0.17200
C 	C 	0.71390 0.62050 0.24570 0.01900
O 	O 	0.77850 0.33260 0.86500 -0.50700
C 	C 	0.68450 0.64370 0.06110 -0.09800
H 	H 	0.68860 0.67770 0.02390 0.03100
O 	O 	0.82030 0.37370 0.16500 -0.23500
C 	C 	0.64870 0.61510 0.93240 0.01100
C 	C 	0.61850 0.63610 0.74450 -0.06400
H 	H 	0.62240 0.67000 0.70420 0.04500
C 	C 	0.58230 0.60810 0.61380 -0.04800
H 	H 	0.56230 0.62290 0.48830 0.04300
C 	C 	0.57690 0.55740 0.67460 -0.00800
H 	H 	0.55300 0.53790 0.58990 0.02800
C 	C 	0.60730 0.53610 0.86220 -0.10500
H 	H 	0.60350 0.50220 0.90160 0.06600
C 	C 	0.64330 0.56420 0.99320 0.06000
C 	C 	0.67240 0.54040 0.18040 -0.14200
H 	H 	0.66820 0.50650 0.21900 0.07900
C 	C 	0.70790 0.56980 0.30700 0.08800
C 	C 	0.75800 0.51230 0.60300 0.18800
C 	C 	0.78570 0.42230 0.81700 -0.16600
C 	C 	0.80760 0.50430 0.66400 -0.01200
H 	H 	0.83120 0.52940 0.63220 0.04400
C 	C 	0.82300 0.45860 0.77300 -0.03900
H 	H 	0.85660 0.45270 0.81470 0.06200
C 	C 	0.73430 0.42760 0.75800 -0.12100
H 	H 	0.71050 0.40260 0.78720 0.07100
C 	C 	0.72310 0.47460 0.65100 0.04400
H 	H 	0.68970 0.48100 0.60890 0.01300
C 	C 	0.79870 0.37270 0.94300 0.41100
O 	O 	0.84800 0.36800 0.00200 -0.17900
C 	C 	0.77690 0.51040 0.85000 -0.22000
H 	H 	0.78020 0.54010 0.94350 0.11000
C 	C 	0.79110 0.46560 0.96200 0.12500
H 	H 	0.80380 0.46450 0.12880 0.00200
C 	C 	0.76690 0.42230 0.57000 0.21200
H 	H 	0.76350 0.39260 0.47730 -0.03600
C 	C 	0.75340 0.46790 0.46500 -0.27600
H 	H 	0.74090 0.46890 0.29830 0.12800
Zn	Zn	0.72755 0.78568 0.92230 1.22900
O 	O 	0.77720 0.74620 0.09450 -0.78800
H 	H 	0.79800 0.73520 0.98230 0.28100
N 	N 	0.74580 0.85690 0.90700 -0.28100
C 	C 	0.73190 0.89580 0.04260 0.12000
H 	H 	0.70660 0.89350 0.16570 -0.01300
N 	N 	0.75630 0.93980 0.99560 -0.16700
C 	C 	0.78610 0.87950 0.74570 0.02300
O 	O 	0.72150 0.16740 0.36500 -0.50600
C 	C 	0.81550 0.85630 0.56110 -0.11200
H 	H 	0.81140 0.82230 0.52390 0.03400
O 	O 	0.67970 0.12630 0.66500 -0.23400
C 	C 	0.85130 0.88490 0.43240 0.02900
C 	C 	0.88150 0.86390 0.24450 -0.07800
H 	H 	0.87760 0.83000 0.20420 0.05200
C 	C 	0.91770 0.89190 0.11380 -0.02800
H 	H 	0.93770 0.87710 0.98830 0.03000
C 	C 	0.92310 0.94260 0.17460 -0.02200
H 	H 	0.94700 0.96210 0.08990 0.03200
C 	C 	0.89270 0.96390 0.36220 -0.09700
H 	H 	0.89650 0.99780 0.40160 0.06200
C 	C 	0.85670 0.93580 0.49320 0.05500
C 	C 	0.82760 0.95960 0.68040 -0.14100
H 	H 	0.83180 0.99350 0.71900 0.07900
C 	C 	0.79210 0.93020 0.80700 0.08600
C 	C 	0.74200 0.98770 0.10300 0.16100
C 	C 	0.71430 0.07770 0.31700 -0.12600
C 	C 	0.69240 0.99570 0.16400 -0.28100
H 	H 	0.66880 0.97060 0.13220 0.13700
C 	C 	0.67700 0.04140 0.27300 0.19300
H 	H 	0.64340 0.04730 0.31470 -0.01900
C 	C 	0.76570 0.07240 0.25800 0.17600
H 	H 	0.78950 0.09740 0.28720 -0.03600
C 	C 	0.77690 0.02540 0.15100 -0.27300
H 	H 	0.81030 0.01900 0.10890 0.12200
C 	C 	0.70130 0.12730 0.44300 0.39200
O 	O 	0.65200 0.13200 0.50200 -0.17400
C 	C 	0.72310 0.98960 0.35000 0.07900
H 	H 	0.71980 0.95990 0.44350 0.00900
C 	C 	0.70890 0.03440 0.46200 -0.13700
H 	H 	0.69620 0.03550 0.62880 0.09200
C 	C 	0.73310 0.07770 0.07000 -0.14100
H 	H 	0.73650 0.10740 0.97730 0.09200
C 	C 	0.74660 0.03210 0.96500 0.08900
H 	H 	0.75910 0.03110 0.79830 -0.00100
Zn	Zn	0.22755 0.28568 0.42230 1.23100
O 	O 	0.27720 0.24620 0.59450 -0.80400
H 	H 	0.29800 0.23520 0.48230 0.29600
N 	N 	0.24580 0.35690 0.40700 -0.27800
C 	C 	0.23190 0.39580 0.54260 0.11700
H 	H 	0.20660 0.39350 0.66570 -0.01300
N 	N 	0.25630 0.43980 0.49560 -0.17200
C 	C 	0.28610 0.37950 0.24570 0.01900
O 	O 	0.22150 0.66740 0.86500 -0.50700
C 	C 	0.31550 0.35630 0.06110 -0.09800
H 	H 	0.31140 0.32230 0.02390 0.03100
O 	O 	0.17970 0.62630 0.16500 -0.23500
C 	C 	0.35130 0.38490 0.93240 0.01100
C 	C 	0.38150 0.36390 0.74450 -0.06400
H 	H 	0.37760 0.33000 0.70420 0.04500
C 	C 	0.41770 0.39190 0.61380 -0.04800
H 	H 	0.43770 0.37710 0.48830 0.04300
C 	C 	0.42310 0.44260 0.67460 -0.00800
H 	H 	0.44700 0.46210 0.58990 0.02800
C 	C 	0.39270 0.46390 0.86220 -0.10500
H 	H 	0.39650 0.49780 0.90160 0.06600
C 	C 	0.35670 0.43580 0.99320 0.06000
C 	C 	0.32760 0.45960 0.18040 -0.14200
H 	H 	0.33180 0.49350 0.21900 0.07900
C 	C 	0.29210 0.43020 0.30700 0.08800
C 	C 	0.24200 0.48770 0.60300 0.18800
C 	C 	0.21430 0.57770 0.81700 -0.16600
C 	C 	0.19240 0.49570 0.66400 -0.01200
H 	H 	0.16880 0.47060 0.63220 0.04400
C 	C 	0.17700 0.54140 0.77300 -0.03900
H 	H 	0.14340 0.54730 0.81470 0.06200
C 	C 	0.26570 0.57240 0.75800 -0.12100
H 	H 	0.28950 0.59740 0.78720 0.07100
C 	C 	0.27690 0.52540 0.65100 0.04400
H 	H 	0.31030 0.51900 0.60890 0.01300
C 	C 	0.20130 0.62730 0.94300 0.41100
O 	O 	0.15200 0.63200 0.00200 -0.17900
C 	C 	0.22310 0.48960 0.85000 -0.22000
H 	H 	0.21980 0.45990 0.94350 0.11000
C 	C 	0.20890 0.53440 0.96200 0.12500
H 	H 	0.19620 0.53550 0.12880 0.00200
C 	C 	0.23310 0.57770 0.57000 0.21200
H 	H 	0.23650 0.60740 0.47730 -0.03600
C 	C 	0.24660 0.53210 0.46500 -0.27600
H 	H 	0.25910 0.53110 0.29830 0.12800
Zn	Zn	0.21432 0.72755 0.07770 1.22900
O 	O 	0.25380 0.77720 0.90550 -0.78800
H 	H 	0.26480 0.79800 0.01770 0.28100
N 	N 	0.14310 0.74580 0.09300 -0.28100
C 	C 	0.10420 0.73190 0.95740 0.12000
H 	H 	0.10650 0.70660 0.83430 -0.01300
N 	N 	0.06020 0.75630 0.00440 -0.16700
C 	C 	0.12050 0.78610 0.25430 0.02300
O 	O 	0.83260 0.72150 0.63500 -0.50600
C 	C 	0.14370 0.81550 0.43890 -0.11200
H 	H 	0.17770 0.81140 0.47610 0.03400
O 	O 	0.87370 0.67970 0.33500 -0.23400
C 	C 	0.11510 0.85130 0.56760 0.02900
C 	C 	0.13610 0.88150 0.75550 -0.07800
H 	H 	0.17000 0.87760 0.79580 0.05200
C 	C 	0.10810 0.91770 0.88620 -0.02800
H 	H 	0.12290 0.93770 0.01170 0.03000
C 	C 	0.05740 0.92310 0.82540 -0.02200
H 	H 	0.03790 0.94700 0.91010 0.03200
C 	C 	0.03610 0.89270 0.63780 -0.09700
H 	H 	0.00220 0.89650 0.59840 0.06200
C 	C 	0.06420 0.85670 0.50680 0.05500
C 	C 	0.04040 0.82760 0.31960 -0.14100
H 	H 	0.00650 0.83180 0.28100 0.07900
C 	C 	0.06980 0.79210 0.19300 0.08600
C 	C 	0.01230 0.74200 0.89700 0.16100
C 	C 	0.92230 0.71430 0.68300 -0.12600
C 	C 	0.00430 0.69240 0.83600 -0.28100
H 	H 	0.02940 0.66880 0.86780 0.13700
C 	C 	0.95860 0.67700 0.72700 0.19300
H 	H 	0.95270 0.64340 0.68530 -0.01900
C 	C 	0.92760 0.76570 0.74200 0.17600
H 	H 	0.90260 0.78950 0.71280 -0.03600
C 	C 	0.97460 0.77690 0.84900 -0.27300
H 	H 	0.98100 0.81030 0.89110 0.12200
C 	C 	0.87270 0.70130 0.55700 0.39200
O 	O 	0.86800 0.65200 0.49800 -0.17400
C 	C 	0.01040 0.72310 0.65000 0.07900
H 	H 	0.04010 0.71980 0.55650 0.00900
C 	C 	0.96560 0.70890 0.53800 -0.13700
H 	H 	0.96450 0.69620 0.37120 0.09200
C 	C 	0.92230 0.73310 0.93000 -0.14100
H 	H 	0.89260 0.73650 0.02270 0.09200
C 	C 	0.96790 0.74660 0.03500 0.08900
H 	H 	0.96890 0.75910 0.20170 -0.00100
Zn	Zn	0.71432 0.22755 0.57770 1.23100
O 	O 	0.75380 0.27720 0.40550 -0.80400
H 	H 	0.76480 0.29800 0.51770 0.29600
N 	N 	0.64310 0.24580 0.59300 -0.27800
C 	C 	0.60420 0.23190 0.45740 0.11700
H 	H 	0.60650 0.20660 0.33430 -0.01300
N 	N 	0.56020 0.25630 0.50440 -0.17200
C 	C 	0.62050 0.28610 0.75430 0.01900
O 	O 	0.33260 0.22150 0.13500 -0.50700
C 	C 	0.64370 0.31550 0.93890 -0.09800
H 	H 	0.67770 0.31140 0.97610 0.03100
O 	O 	0.37370 0.17970 0.83500 -0.23500
C 	C 	0.61510 0.35130 0.06760 0.01100
C 	C 	0.63610 0.38150 0.25550 -0.06400
H 	H 	0.67000 0.37760 0.29580 0.04500
C 	C 	0.60810 0.41770 0.38620 -0.04800
H 	H 	0.62290 0.43770 0.51170 0.04300
C 	C 	0.55740 0.42310 0.32540 -0.00800
H 	H 	0.53790 0.44700 0.41010 0.02800
C 	C 	0.53610 0.39270 0.13780 -0.10500
H 	H 	0.50220 0.39650 0.09840 0.06600
C 	C 	0.56420 0.35670 0.00680 0.06000
C 	C 	0.54040 0.32760 0.81960 -0.14200
H 	H 	0.50650 0.33180 0.78100 0.07900
C 	C 	0.56980 0.29210 0.69300 0.08800
C 	C 	0.51230 0.24200 0.39700 0.18800
C 	C 	0.42230 0.21430 0.18300 -0.16600
C 	C 	0.50430 0.19240 0.33600 -0.01200
H 	H 	0.52940 0.16880 0.36780 0.04400
C 	C 	0.45860 0.17700 0.22700 -0.03900
H 	H 	0.45270 0.14340 0.18530 0.06200
C 	C 	0.42760 0.26570 0.24200 -0.12100
H 	H 	0.40260 0.28950 0.21280 0.07100
C 	C 	0.47460 0.27690 0.34900 0.04400
H 	H 	0.48100 0.31030 0.39110 0.01300
C 	C 	0.37270 0.20130 0.05700 0.41100
O 	O 	0.36800 0.15200 0.99800 -0.17900
C 	C 	0.51040 0.22310 0.15000 -0.22000
H 	H 	0.54010 0.21980 0.05650 0.11000
C 	C 	0.46560 0.20890 0.03800 0.12500
H 	H 	0.46450 0.19620 0.87120 0.00200
C 	C 	0.42230 0.23310 0.43000 0.21200
H 	H 	0.39260 0.23650 0.52270 -0.03600
C 	C 	0.46790 0.24660 0.53500 -0.27600
H 	H 	0.46890 0.25910 0.70170 0.12800
Zn	Zn	0.78568 0.27245 0.07770 1.22900
O 	O 	0.74620 0.22280 0.90550 -0.78800
H 	H 	0.73520 0.20200 0.01770 0.28100
N 	N 	0.85690 0.25420 0.09300 -0.28100
C 	C 	0.89580 0.26810 0.95740 0.12000
H 	H 	0.89350 0.29340 0.83430 -0.01300
N 	N 	0.93980 0.24370 0.00440 -0.16700
C 	C 	0.87950 0.21390 0.25430 0.02300
O 	O 	0.16740 0.27850 0.63500 -0.50600
C 	C 	0.85630 0.18450 0.43890 -0.11200
H 	H 	0.82230 0.18860 0.47610 0.03400
O 	O 	0.12630 0.32030 0.33500 -0.23400
C 	C 	0.88490 0.14870 0.56760 0.02900
C 	C 	0.86390 0.11850 0.75550 -0.07800
H 	H 	0.83000 0.12240 0.79580 0.05200
C 	C 	0.89190 0.08230 0.88620 -0.02800
H 	H 	0.87710 0.06230 0.01170 0.03000
C 	C 	0.94260 0.07690 0.82540 -0.02200
H 	H 	0.96210 0.05300 0.91010 0.03200
C 	C 	0.96390 0.10730 0.63780 -0.09700
H 	H 	0.99780 0.10350 0.59840 0.06200
C 	C 	0.93580 0.14330 0.50680 0.05500
C 	C 	0.95960 0.17240 0.31960 -0.14100
H 	H 	0.99350 0.16820 0.28100 0.07900
C 	C 	0.93020 0.20790 0.19300 0.08600
C 	C 	0.98770 0.25800 0.89700 0.16100
C 	C 	0.07770 0.28570 0.68300 -0.12600
C 	C 	0.99570 0.30760 0.83600 -0.28100
H 	H 	0.97060 0.33120 0.86780 0.13700
C 	C 	0.04140 0.32300 0.72700 0.19300
H 	H 	0.04730 0.35660 0.68530 -0.01900
C 	C 	0.07240 0.23430 0.74200 0.17600
H 	H 	0.09740 0.21050 0.71280 -0.03600
C 	C 	0.02540 0.22310 0.84900 -0.27300
H 	H 	0.01900 0.18970 0.89110 0.12200
C 	C 	0.12730 0.29870 0.55700 0.39200
O 	O 	0.13200 0.34800 0.49800 -0.17400
C 	C 	0.98960 0.27690 0.65000 0.07900
H 	H 	0.95990 0.28020 0.55650 0.00900
C 	C 	0.03440 0.29110 0.53800 -0.13700
H 	H 	0.03550 0.30380 0.37120 0.09200
C 	C 	0.07770 0.26690 0.93000 -0.14100
H 	H 	0.10740 0.26350 0.02270 0.09200
C 	C 	0.03210 0.25340 0.03500 0.08900
H 	H 	0.03110 0.24090 0.20170 -0.00100
Zn	Zn	0.28568 0.77245 0.57770 1.23100
O 	O 	0.24620 0.72280 0.40550 -0.80400
H 	H 	0.23520 0.70200 0.51770 0.29600
N 	N 	0.35690 0.75420 0.59300 -0.27800
C 	C 	0.39580 0.76810 0.45740 0.11700
H 	H 	0.39350 0.79340 0.33430 -0.01300
N 	N 	0.43980 0.74370 0.50440 -0.17200
C 	C 	0.37950 0.71390 0.75430 0.01900
O 	O 	0.66740 0.77850 0.13500 -0.50700
C 	C 	0.35630 0.68450 0.93890 -0.09800
H 	H 	0.32230 0.68860 0.97610 0.03100
O 	O 	0.62630 0.82030 0.83500 -0.23500
C 	C 	0.38490 0.64870 0.06760 0.01100
C 	C 	0.36390 0.61850 0.25550 -0.06400
H 	H 	0.33000 0.62240 0.29580 0.04500
C 	C 	0.39190 0.58230 0.38620 -0.04800
H 	H 	0.37710 0.56230 0.51170 0.04300
C 	C 	0.44260 0.57690 0.32540 -0.00800
H 	H 	0.46210 0.55300 0.41010 0.02800
C 	C 	0.46390 0.60730 0.13780 -0.10500
H 	H 	0.49780 0.60350 0.09840 0.06600
C 	C 	0.43580 0.64330 0.00680 0.06000
C 	C 	0.45960 0.67240 0.81960 -0.14200
H 	H 	0.49350 0.66820 0.78100 0.07900
C 	C 	0.43020 0.70790 0.69300 0.08800
C 	C 	0.48770 0.75800 0.39700 0.18800
C 	C 	0.57770 0.78570 0.18300 -0.16600
C 	C 	0.49570 0.80760 0.33600 -0.01200
H 	H 	0.47060 0.83120 0.36780 0.04400
C 	C 	0.54140 0.82300 0.22700 -0.03900
H 	H 	0.54730 0.85660 0.18530 0.06200
C 	C 	0.57240 0.73430 0.24200 -0.12100
H 	H 	0.59740 0.71050 0.21280 0.07100
C 	C 	0.52540 0.72310 0.34900 0.04400
H 	H 	0.51900 0.68970 0.39110 0.01300
C 	C 	0.62730 0.79870 0.05700 0.41100
O 	O 	0.63200 0.84800 0.99800 -0.17900
C 	C 	0.48960 0.77690 0.15000 -0.22000
H 	H 	0.45990 0.78020 0.05650 0.11000
C 	C 	0.53440 0.79110 0.03800 0.12500
H 	H 	0.53550 0.80380 0.87120 0.00200
C 	C 	0.57770 0.76690 0.43000 0.21200
H 	H 	0.60740 0.76350 0.52270 -0.03600
C 	C 	0.53210 0.75340 0.53500 -0.27600
H 	H 	0.53110 0.74090 0.70170 0.12800
