data_crystal

_cell_length_a 27.25300
_cell_length_b 27.25300
_cell_length_c 4.14750
_cell_angle_alpha 90.00000
_cell_angle_beta  90.00000
_cell_angle_gamma 90.00000

_symmetry_space_group_name_	'P 1'
_symmetry_space_group_name_H-M	'P 1'

loop_
_symmetry_equiv_pos_as_xyz
  x,y,z

loop_
_atom_site_label
_atom_site_type_symbol
_atom_site_fract_x
_atom_site_fract_y
_atom_site_fract_z
_atom_site_charge
Zn	Zn	0.28048 0.21397 0.86510 1.21000
O 	O 	0.21490 0.24310 0.98500 -0.84600
H 	H 	0.19370 0.25430 0.87120 0.34800
N 	N 	0.24870 0.14570 0.80500 -0.29700
C 	C 	0.27030 0.11260 0.98300 0.08900
H 	H 	0.29890 0.11890 0.09790 -0.03000
N 	N 	0.24760 0.06820 0.98800 -0.14800
C 	C 	0.21310 0.12430 0.69600 0.14900
O 	O 	0.27280 0.84500 0.42800 -0.54100
C 	C 	0.17980 0.14650 0.49200 -0.20500
H 	H 	0.18390 0.17910 0.43170 0.08000
O 	O 	0.31220 0.86980 0.78500 -0.24900
C 	C 	0.14060 0.12000 0.37800 0.10300
C 	C 	0.10830 0.14400 0.17500 -0.13100
H 	H 	0.11440 0.17670 0.12460 0.07700
C 	C 	0.06760 0.12180 0.04300 0.00800
H 	H 	0.04600 0.13770 0.90450 0.02000
C 	C 	0.06210 0.07340 0.13600 -0.05800
H 	H 	0.03520 0.05610 0.05840 0.04300
C 	C 	0.09430 0.04950 0.33800 -0.05500
H 	H 	0.08830 0.01680 0.38760 0.04600
C 	C 	0.13500 0.07180 0.47000 -0.00200
C 	C 	0.16790 0.04960 0.67300 -0.08400
H 	H 	0.16360 0.01690 0.73260 0.05600
C 	C 	0.20730 0.07590 0.78800 0.02100
C 	C 	0.26220 0.02010 0.13500 0.15500
C 	C 	0.28080 0.92740 0.33300 -0.16900
C 	C 	0.30980 0.00350 0.14000 -0.17000
H 	H 	0.33500 0.02430 0.07620 0.09000
C 	C 	0.32080 0.95600 0.24000 0.09800
H 	H 	0.35280 0.94420 0.24500 0.00800
C 	C 	0.23140 0.94050 0.33600 0.01200
H 	H 	0.20600 0.91970 0.39950 0.02700
C 	C 	0.22490 0.98860 0.23200 -0.09600
H 	H 	0.19300 0.00070 0.22740 0.06300
C 	C 	0.29700 0.88060 0.49600 0.47900
O 	O 	0.34130 0.87580 0.60900 -0.21200
C 	C 	0.29210 0.01190 0.39900 -0.03200
H 	H 	0.30580 0.03840 0.50720 0.04800
C 	C 	0.30190 0.96500 0.50300 -0.02700
H 	H 	0.32190 0.95900 0.68090 0.05500
C 	C 	0.25080 0.93360 0.07100 0.07300
H 	H 	0.23700 0.90700 0.96400 0.01100
C 	C 	0.24200 0.98110 0.97500 -0.10500
H 	H 	0.22190 0.98680 0.79780 0.07200
Zn	Zn	0.78048 0.71397 0.36510 1.21000
O 	O 	0.71490 0.74310 0.48500 -0.84700
H 	H 	0.69370 0.75430 0.37120 0.34900
N 	N 	0.74870 0.64570 0.30500 -0.29400
C 	C 	0.77030 0.61260 0.48300 0.07900
H 	H 	0.79890 0.61890 0.59790 -0.02200
N 	N 	0.74760 0.56820 0.48800 -0.15000
C 	C 	0.71310 0.62430 0.19600 0.14600
O 	O 	0.77280 0.34500 0.92800 -0.54000
C 	C 	0.67980 0.64650 0.99200 -0.19800
H 	H 	0.68390 0.67910 0.93170 0.08100
O 	O 	0.81220 0.36980 0.28500 -0.24600
C 	C 	0.64060 0.62000 0.87800 0.10100
C 	C 	0.60830 0.64400 0.67500 -0.12300
H 	H 	0.61440 0.67670 0.62460 0.07600
C 	C 	0.56760 0.62180 0.54300 0.00500
H 	H 	0.54600 0.63770 0.40450 0.02100
C 	C 	0.56210 0.57340 0.63600 -0.05400
H 	H 	0.53520 0.55610 0.55840 0.04200
C 	C 	0.59430 0.54950 0.83800 -0.05800
H 	H 	0.58830 0.51680 0.88760 0.04600
C 	C 	0.63500 0.57180 0.97000 0.00100
C 	C 	0.66790 0.54960 0.17300 -0.08800
H 	H 	0.66360 0.51690 0.23260 0.05800
C 	C 	0.70730 0.57590 0.28800 0.02400
C 	C 	0.76220 0.52010 0.63500 0.16500
C 	C 	0.78080 0.42740 0.83300 -0.17300
C 	C 	0.80980 0.50350 0.64000 -0.25700
H 	H 	0.83500 0.52430 0.57620 0.12200
C 	C 	0.82080 0.45600 0.74000 0.17500
H 	H 	0.85280 0.44420 0.74500 -0.01900
C 	C 	0.73140 0.44050 0.83600 0.11800
H 	H 	0.70600 0.41970 0.89950 -0.01200
C 	C 	0.72490 0.48860 0.73200 -0.20900
H 	H 	0.69300 0.50070 0.72740 0.10200
C 	C 	0.79700 0.38060 0.99600 0.47100
O 	O 	0.84130 0.37580 0.10900 -0.20600
C 	C 	0.79210 0.51190 0.89900 0.04100
H 	H 	0.80580 0.53840 0.00720 0.02400
C 	C 	0.80190 0.46500 0.00300 -0.09200
H 	H 	0.82190 0.45900 0.18090 0.07800
C 	C 	0.75080 0.43360 0.57100 -0.02400
H 	H 	0.73700 0.40700 0.46400 0.04500
C 	C 	0.74200 0.48110 0.47500 0.00200
H 	H 	0.72190 0.48680 0.29780 0.03400
Zn	Zn	0.71952 0.78603 0.86510 1.21100
O 	O 	0.78510 0.75690 0.98500 -0.84500
H 	H 	0.80630 0.74570 0.87120 0.34900
N 	N 	0.75130 0.85430 0.80500 -0.29600
C 	C 	0.72970 0.88740 0.98300 0.09000
H 	H 	0.70110 0.88110 0.09790 -0.02900
N 	N 	0.75240 0.93180 0.98800 -0.14700
C 	C 	0.78690 0.87570 0.69600 0.15000
O 	O 	0.72720 0.15500 0.42800 -0.54000
C 	C 	0.82020 0.85350 0.49200 -0.20400
H 	H 	0.81610 0.82090 0.43170 0.08100
O 	O 	0.68780 0.13020 0.78500 -0.24800
C 	C 	0.85940 0.88000 0.37800 0.10400
C 	C 	0.89170 0.85600 0.17500 -0.13000
H 	H 	0.88560 0.82330 0.12460 0.07800
C 	C 	0.93240 0.87820 0.04300 0.00900
H 	H 	0.95400 0.86230 0.90450 0.02000
C 	C 	0.93790 0.92660 0.13600 -0.05800
H 	H 	0.96480 0.94390 0.05840 0.04300
C 	C 	0.90570 0.95050 0.33800 -0.05500
H 	H 	0.91170 0.98320 0.38760 0.04600
C 	C 	0.86500 0.92820 0.47000 -0.00200
C 	C 	0.83210 0.95040 0.67300 -0.08400
H 	H 	0.83640 0.98310 0.73260 0.05600
C 	C 	0.79270 0.92410 0.78800 0.02100
C 	C 	0.73780 0.97990 0.13500 0.15500
C 	C 	0.71920 0.07260 0.33300 -0.16900
C 	C 	0.69020 0.99650 0.14000 -0.17000
H 	H 	0.66500 0.97570 0.07620 0.09000
C 	C 	0.67920 0.04400 0.24000 0.09800
H 	H 	0.64720 0.05580 0.24500 0.00800
C 	C 	0.76860 0.05950 0.33600 0.01200
H 	H 	0.79400 0.08030 0.39950 0.02700
C 	C 	0.77510 0.01140 0.23200 -0.09600
H 	H 	0.80700 0.99930 0.22740 0.06300
C 	C 	0.70300 0.11940 0.49600 0.47900
O 	O 	0.65870 0.12420 0.60900 -0.21200
C 	C 	0.70790 0.98810 0.39900 -0.03200
H 	H 	0.69420 0.96160 0.50720 0.04800
C 	C 	0.69810 0.03500 0.50300 -0.02700
H 	H 	0.67810 0.04100 0.68090 0.05500
C 	C 	0.74920 0.06640 0.07100 0.07300
H 	H 	0.76300 0.09300 0.96400 0.01100
C 	C 	0.75800 0.01890 0.97500 -0.10500
H 	H 	0.77810 0.01320 0.79780 0.07200
Zn	Zn	0.21952 0.28603 0.36510 1.21000
O 	O 	0.28510 0.25690 0.48500 -0.84700
H 	H 	0.30630 0.24570 0.37120 0.34900
N 	N 	0.25130 0.35430 0.30500 -0.29400
C 	C 	0.22970 0.38740 0.48300 0.07900
H 	H 	0.20110 0.38110 0.59790 -0.02200
N 	N 	0.25240 0.43180 0.48800 -0.15000
C 	C 	0.28690 0.37570 0.19600 0.14600
O 	O 	0.22720 0.65500 0.92800 -0.54000
C 	C 	0.32020 0.35350 0.99200 -0.19800
H 	H 	0.31610 0.32090 0.93170 0.08100
O 	O 	0.18780 0.63020 0.28500 -0.24600
C 	C 	0.35940 0.38000 0.87800 0.10100
C 	C 	0.39170 0.35600 0.67500 -0.12300
H 	H 	0.38560 0.32330 0.62460 0.07600
C 	C 	0.43240 0.37820 0.54300 0.00500
H 	H 	0.45400 0.36230 0.40450 0.02100
C 	C 	0.43790 0.42660 0.63600 -0.05400
H 	H 	0.46480 0.44390 0.55840 0.04200
C 	C 	0.40570 0.45050 0.83800 -0.05800
H 	H 	0.41170 0.48320 0.88760 0.04600
C 	C 	0.36500 0.42820 0.97000 0.00100
C 	C 	0.33210 0.45040 0.17300 -0.08800
H 	H 	0.33640 0.48310 0.23260 0.05800
C 	C 	0.29270 0.42410 0.28800 0.02400
C 	C 	0.23780 0.47990 0.63500 0.16500
C 	C 	0.21920 0.57260 0.83300 -0.17300
C 	C 	0.19020 0.49650 0.64000 -0.25700
H 	H 	0.16500 0.47570 0.57620 0.12200
C 	C 	0.17920 0.54400 0.74000 0.17500
H 	H 	0.14720 0.55580 0.74500 -0.01900
C 	C 	0.26860 0.55950 0.83600 0.11800
H 	H 	0.29400 0.58030 0.89950 -0.01200
C 	C 	0.27510 0.51140 0.73200 -0.20900
H 	H 	0.30700 0.49930 0.72740 0.10200
C 	C 	0.20300 0.61940 0.99600 0.47100
O 	O 	0.15870 0.62420 0.10900 -0.20600
C 	C 	0.20790 0.48810 0.89900 0.04100
H 	H 	0.19420 0.46160 0.00720 0.02400
C 	C 	0.19810 0.53500 0.00300 -0.09200
H 	H 	0.17810 0.54100 0.18090 0.07800
C 	C 	0.24920 0.56640 0.57100 -0.02400
H 	H 	0.26300 0.59300 0.46400 0.04500
C 	C 	0.25800 0.51890 0.47500 0.00200
H 	H 	0.27810 0.51320 0.29780 0.03400
Zn	Zn	0.21397 0.71952 0.13490 1.21100
O 	O 	0.24310 0.78510 0.01500 -0.84500
H 	H 	0.25430 0.80630 0.12880 0.34900
N 	N 	0.14570 0.75130 0.19500 -0.29600
C 	C 	0.11260 0.72970 0.01700 0.09000
H 	H 	0.11890 0.70110 0.90210 -0.02900
N 	N 	0.06820 0.75240 0.01200 -0.14700
C 	C 	0.12430 0.78690 0.30400 0.15000
O 	O 	0.84500 0.72720 0.57200 -0.54000
C 	C 	0.14650 0.82020 0.50800 -0.20400
H 	H 	0.17910 0.81610 0.56830 0.08100
O 	O 	0.86980 0.68780 0.21500 -0.24800
C 	C 	0.12000 0.85940 0.62200 0.10400
C 	C 	0.14400 0.89170 0.82500 -0.13000
H 	H 	0.17670 0.88560 0.87540 0.07800
C 	C 	0.12180 0.93240 0.95700 0.00900
H 	H 	0.13770 0.95400 0.09550 0.02000
C 	C 	0.07340 0.93790 0.86400 -0.05800
H 	H 	0.05610 0.96480 0.94160 0.04300
C 	C 	0.04950 0.90570 0.66200 -0.05500
H 	H 	0.01680 0.91170 0.61240 0.04600
C 	C 	0.07180 0.86500 0.53000 -0.00200
C 	C 	0.04960 0.83210 0.32700 -0.08400
H 	H 	0.01690 0.83640 0.26740 0.05600
C 	C 	0.07590 0.79270 0.21200 0.02100
C 	C 	0.02010 0.73780 0.86500 0.15500
C 	C 	0.92740 0.71920 0.66700 -0.16900
C 	C 	0.00350 0.69020 0.86000 -0.17000
H 	H 	0.02430 0.66500 0.92380 0.09000
C 	C 	0.95600 0.67920 0.76000 0.09800
H 	H 	0.94420 0.64720 0.75500 0.00800
C 	C 	0.94050 0.76860 0.66400 0.01200
H 	H 	0.91970 0.79400 0.60050 0.02700
C 	C 	0.98860 0.77510 0.76800 -0.09600
H 	H 	0.00070 0.80700 0.77260 0.06300
C 	C 	0.88060 0.70300 0.50400 0.47900
O 	O 	0.87580 0.65870 0.39100 -0.21200
C 	C 	0.01190 0.70790 0.60100 -0.03200
H 	H 	0.03840 0.69420 0.49280 0.04800
C 	C 	0.96500 0.69810 0.49700 -0.02700
H 	H 	0.95900 0.67810 0.31910 0.05500
C 	C 	0.93360 0.74920 0.92900 0.07300
H 	H 	0.90700 0.76300 0.03600 0.01100
C 	C 	0.98110 0.75800 0.02500 -0.10500
H 	H 	0.98680 0.77810 0.20220 0.07200
Zn	Zn	0.71397 0.21952 0.63490 1.21000
O 	O 	0.74310 0.28510 0.51500 -0.84700
H 	H 	0.75430 0.30630 0.62880 0.34900
N 	N 	0.64570 0.25130 0.69500 -0.29400
C 	C 	0.61260 0.22970 0.51700 0.07900
H 	H 	0.61890 0.20110 0.40210 -0.02200
N 	N 	0.56820 0.25240 0.51200 -0.15000
C 	C 	0.62430 0.28690 0.80400 0.14600
O 	O 	0.34500 0.22720 0.07200 -0.54000
C 	C 	0.64650 0.32020 0.00800 -0.19800
H 	H 	0.67910 0.31610 0.06830 0.08100
O 	O 	0.36980 0.18780 0.71500 -0.24600
C 	C 	0.62000 0.35940 0.12200 0.10100
C 	C 	0.64400 0.39170 0.32500 -0.12300
H 	H 	0.67670 0.38560 0.37540 0.07600
C 	C 	0.62180 0.43240 0.45700 0.00500
H 	H 	0.63770 0.45400 0.59550 0.02100
C 	C 	0.57340 0.43790 0.36400 -0.05400
H 	H 	0.55610 0.46480 0.44160 0.04200
C 	C 	0.54950 0.40570 0.16200 -0.05800
H 	H 	0.51680 0.41170 0.11240 0.04600
C 	C 	0.57180 0.36500 0.03000 0.00100
C 	C 	0.54960 0.33210 0.82700 -0.08800
H 	H 	0.51690 0.33640 0.76740 0.05800
C 	C 	0.57590 0.29270 0.71200 0.02400
C 	C 	0.52010 0.23780 0.36500 0.16500
C 	C 	0.42740 0.21920 0.16700 -0.17300
C 	C 	0.50350 0.19020 0.36000 -0.25700
H 	H 	0.52430 0.16500 0.42380 0.12200
C 	C 	0.45600 0.17920 0.26000 0.17500
H 	H 	0.44420 0.14720 0.25500 -0.01900
C 	C 	0.44050 0.26860 0.16400 0.11800
H 	H 	0.41970 0.29400 0.10050 -0.01200
C 	C 	0.48860 0.27510 0.26800 -0.20900
H 	H 	0.50070 0.30700 0.27260 0.10200
C 	C 	0.38060 0.20300 0.00400 0.47100
O 	O 	0.37580 0.15870 0.89100 -0.20600
C 	C 	0.51190 0.20790 0.10100 0.04100
H 	H 	0.53840 0.19420 0.99280 0.02400
C 	C 	0.46500 0.19810 0.99700 -0.09200
H 	H 	0.45900 0.17810 0.81910 0.07800
C 	C 	0.43360 0.24920 0.42900 -0.02400
H 	H 	0.40700 0.26300 0.53600 0.04500
C 	C 	0.48110 0.25800 0.52500 0.00200
H 	H 	0.48680 0.27810 0.70220 0.03400
Zn	Zn	0.78603 0.28048 0.13490 1.21100
O 	O 	0.75690 0.21490 0.01500 -0.84500
H 	H 	0.74570 0.19370 0.12880 0.34900
N 	N 	0.85430 0.24870 0.19500 -0.29600
C 	C 	0.88740 0.27030 0.01700 0.09000
H 	H 	0.88110 0.29890 0.90210 -0.02900
N 	N 	0.93180 0.24760 0.01200 -0.14700
C 	C 	0.87570 0.21310 0.30400 0.15000
O 	O 	0.15500 0.27280 0.57200 -0.54000
C 	C 	0.85350 0.17980 0.50800 -0.20400
H 	H 	0.82090 0.18390 0.56830 0.08100
O 	O 	0.13020 0.31220 0.21500 -0.24800
C 	C 	0.88000 0.14060 0.62200 0.10400
C 	C 	0.85600 0.10830 0.82500 -0.13000
H 	H 	0.82330 0.11440 0.87540 0.07800
C 	C 	0.87820 0.06760 0.95700 0.00900
H 	H 	0.86230 0.04600 0.09550 0.02000
C 	C 	0.92660 0.06210 0.86400 -0.05800
H 	H 	0.94390 0.03520 0.94160 0.04300
C 	C 	0.95050 0.09430 0.66200 -0.05500
H 	H 	0.98320 0.08830 0.61240 0.04600
C 	C 	0.92820 0.13500 0.53000 -0.00200
C 	C 	0.95040 0.16790 0.32700 -0.08400
H 	H 	0.98310 0.16360 0.26740 0.05600
C 	C 	0.92410 0.20730 0.21200 0.02100
C 	C 	0.97990 0.26220 0.86500 0.15500
C 	C 	0.07260 0.28080 0.66700 -0.16900
C 	C 	0.99650 0.30980 0.86000 -0.17000
H 	H 	0.97570 0.33500 0.92380 0.09000
C 	C 	0.04400 0.32080 0.76000 0.09800
H 	H 	0.05580 0.35280 0.75500 0.00800
C 	C 	0.05950 0.23140 0.66400 0.01200
H 	H 	0.08030 0.20600 0.60050 0.02700
C 	C 	0.01140 0.22490 0.76800 -0.09600
H 	H 	0.99930 0.19300 0.77260 0.06300
C 	C 	0.11940 0.29700 0.50400 0.47900
O 	O 	0.12420 0.34130 0.39100 -0.21200
C 	C 	0.98810 0.29210 0.60100 -0.03200
H 	H 	0.96160 0.30580 0.49280 0.04800
C 	C 	0.03500 0.30190 0.49700 -0.02700
H 	H 	0.04100 0.32190 0.31910 0.05500
C 	C 	0.06640 0.25080 0.92900 0.07300
H 	H 	0.09300 0.23700 0.03600 0.01100
C 	C 	0.01890 0.24200 0.02500 -0.10500
H 	H 	0.01320 0.22190 0.20220 0.07200
Zn	Zn	0.28603 0.78048 0.63490 1.21000
O 	O 	0.25690 0.71490 0.51500 -0.84700
H 	H 	0.24570 0.69370 0.62880 0.34900
N 	N 	0.35430 0.74870 0.69500 -0.29400
C 	C 	0.38740 0.77030 0.51700 0.07900
H 	H 	0.38110 0.79890 0.40210 -0.02200
N 	N 	0.43180 0.74760 0.51200 -0.15000
C 	C 	0.37570 0.71310 0.80400 0.14600
O 	O 	0.65500 0.77280 0.07200 -0.54000
C 	C 	0.35350 0.67980 0.00800 -0.19800
H 	H 	0.32090 0.68390 0.06830 0.08100
O 	O 	0.63020 0.81220 0.71500 -0.24600
C 	C 	0.38000 0.64060 0.12200 0.10100
C 	C 	0.35600 0.60830 0.32500 -0.12300
H 	H 	0.32330 0.61440 0.37540 0.07600
C 	C 	0.37820 0.56760 0.45700 0.00500
H 	H 	0.36230 0.54600 0.59550 0.02100
C 	C 	0.42660 0.56210 0.36400 -0.05400
H 	H 	0.44390 0.53520 0.44160 0.04200
C 	C 	0.45050 0.59430 0.16200 -0.05800
H 	H 	0.48320 0.58830 0.11240 0.04600
C 	C 	0.42820 0.63500 0.03000 0.00100
C 	C 	0.45040 0.66790 0.82700 -0.08800
H 	H 	0.48310 0.66360 0.76740 0.05800
C 	C 	0.42410 0.70730 0.71200 0.02400
C 	C 	0.47990 0.76220 0.36500 0.16500
C 	C 	0.57260 0.78080 0.16700 -0.17300
C 	C 	0.49650 0.80980 0.36000 -0.25700
H 	H 	0.47570 0.83500 0.42380 0.12200
C 	C 	0.54400 0.82080 0.26000 0.17500
H 	H 	0.55580 0.85280 0.25500 -0.01900
C 	C 	0.55950 0.73140 0.16400 0.11800
H 	H 	0.58030 0.70600 0.10050 -0.01200
C 	C 	0.51140 0.72490 0.26800 -0.20900
H 	H 	0.49930 0.69300 0.27260 0.10200
C 	C 	0.61940 0.79700 0.00400 0.47100
O 	O 	0.62420 0.84130 0.89100 -0.20600
C 	C 	0.48810 0.79210 0.10100 0.04100
H 	H 	0.46160 0.80580 0.99280 0.02400
C 	C 	0.53500 0.80190 0.99700 -0.09200
H 	H 	0.54100 0.82190 0.81910 0.07800
C 	C 	0.56640 0.75080 0.42900 -0.02400
H 	H 	0.59300 0.73700 0.53600 0.04500
C 	C 	0.51890 0.74200 0.52500 0.00200
H 	H 	0.51320 0.72190 0.70220 0.03400
