data_crystal

_cell_length_a 26.26200
_cell_length_b 26.26200
_cell_length_c 5.07100
_cell_angle_alpha 90.00000
_cell_angle_beta  90.00000
_cell_angle_gamma 90.00000

_symmetry_space_group_name_	'P 1'
_symmetry_space_group_name_H-M	'P 1'

loop_
_symmetry_equiv_pos_as_xyz
  x,y,z

loop_
_atom_site_label
_atom_site_type_symbol
_atom_site_fract_x
_atom_site_fract_y
_atom_site_fract_z
_atom_site_charge
Zn	Zn	0.27419 0.21467 0.87220 1.22600
O 	O 	0.22000 0.24990 0.04100 -0.78800
H 	H 	0.19890 0.26110 0.92770 0.28400
N 	N 	0.25520 0.14260 0.86900 -0.28400
C 	C 	0.27120 0.10650 0.02500 0.10900
H 	H 	0.29760 0.11030 0.14630 -0.01300
N 	N 	0.24480 0.06260 0.99000 -0.15700
C 	C 	0.21500 0.11920 0.72400 0.04200
O 	O 	0.27270 0.83400 0.42000 -0.51300
C 	C 	0.18550 0.14190 0.53100 -0.12700
H 	H 	0.19070 0.17570 0.48460 0.03900
O 	O 	0.32080 0.87620 0.71500 -0.21300
C 	C 	0.14800 0.11340 0.40900 0.04100
C 	C 	0.11740 0.13410 0.21500 -0.08800
H 	H 	0.12230 0.16790 0.16700 0.05800
C 	C 	0.07950 0.10630 0.09000 -0.02000
H 	H 	0.05940 0.12100 0.95990 0.02800
C 	C 	0.07250 0.05590 0.16500 -0.02900
H 	H 	0.04740 0.03630 0.08520 0.03400
C 	C 	0.10320 0.03510 0.36000 -0.09200
H 	H 	0.09820 0.00140 0.40880 0.06100
C 	C 	0.14100 0.06310 0.48400 0.05000
C 	C 	0.17010 0.04030 0.67700 -0.13300
H 	H 	0.16570 0.00610 0.71870 0.07600
C 	C 	0.20610 0.06960 0.80600 0.07600
C 	C 	0.25760 0.01450 0.11100 0.13100
C 	C 	0.28240 0.92470 0.34800 -0.10300
C 	C 	0.28110 0.01430 0.35500 -0.19100
H 	H 	0.28830 0.04510 0.43750 0.10200
C 	C 	0.29390 0.96940 0.47800 0.12200
H 	H 	0.30970 0.96920 0.64270 0.00200
C 	C 	0.25900 0.92310 0.10600 -0.06200
H 	H 	0.25150 0.89230 0.02410 0.04700
C 	C 	0.24690 0.96880 0.99000 0.04700
H 	H 	0.23120 0.96890 0.82530 0.01400
C 	C 	0.28920 0.87510 0.49400 0.34700
O 	O 	0.34600 0.87500 0.51900 -0.15300
C 	C 	0.30680 0.00650 0.19200 0.02400
H 	H 	0.33110 0.03170 0.16440 0.02900
C 	C 	0.32100 0.96090 0.31400 -0.09000
H 	H 	0.35420 0.95490 0.36860 0.08200
C 	C 	0.23140 0.92950 0.27200 0.08200
H 	H 	0.20690 0.90440 0.29800 -0.00200
C 	C 	0.22170 0.97640 0.15300 -0.19400
H 	H 	0.18850 0.98260 0.09770 0.09400
Zn	Zn	0.77419 0.71467 0.37220 1.23000
O 	O 	0.72000 0.74990 0.54100 -0.80600
H 	H 	0.69890 0.76110 0.42770 0.29900
N 	N 	0.75520 0.64260 0.36900 -0.27700
C 	C 	0.77120 0.60650 0.52500 0.10700
H 	H 	0.79760 0.61030 0.64630 -0.01400
N 	N 	0.74480 0.56260 0.49000 -0.16000
C 	C 	0.71500 0.61920 0.22400 0.02600
O 	O 	0.77270 0.33400 0.92000 -0.50700
C 	C 	0.68550 0.64190 0.03100 -0.07500
H 	H 	0.69070 0.67570 0.98460 0.01500
O 	O 	0.82080 0.37620 0.21500 -0.21700
C 	C 	0.64800 0.61340 0.90900 0.00100
C 	C 	0.61740 0.63410 0.71500 -0.05100
H 	H 	0.62230 0.66790 0.66700 0.04200
C 	C 	0.57950 0.60630 0.59000 -0.05500
H 	H 	0.55940 0.62100 0.45990 0.04100
C 	C 	0.57250 0.55590 0.66500 -0.00200
H 	H 	0.54740 0.53630 0.58520 0.02500
C 	C 	0.60320 0.53510 0.86000 -0.11500
H 	H 	0.59820 0.50140 0.90880 0.06900
C 	C 	0.64100 0.56310 0.98400 0.07000
C 	C 	0.67010 0.54030 0.17700 -0.14100
H 	H 	0.66570 0.50610 0.21870 0.08000
C 	C 	0.70610 0.56960 0.30600 0.08700
C 	C 	0.75760 0.51450 0.61100 0.13300
C 	C 	0.78240 0.42470 0.84800 -0.09900
C 	C 	0.78110 0.51430 0.85500 -0.36600
H 	H 	0.78830 0.54510 0.93750 0.15700
C 	C 	0.79390 0.46940 0.97800 0.28100
H 	H 	0.80970 0.46920 0.14270 -0.05400
C 	C 	0.75900 0.42310 0.60600 -0.25800
H 	H 	0.75150 0.39230 0.52410 0.11800
C 	C 	0.74690 0.46880 0.49000 0.25100
H 	H 	0.73120 0.46890 0.32530 -0.06000
C 	C 	0.78920 0.37510 0.99400 0.34000
O 	O 	0.84600 0.37500 0.01900 -0.14900
C 	C 	0.80680 0.50650 0.69200 0.20100
H 	H 	0.83110 0.53170 0.66440 -0.03000
C 	C 	0.82100 0.46090 0.81400 -0.25000
H 	H 	0.85420 0.45490 0.86860 0.13700
C 	C 	0.73140 0.42950 0.77200 0.28400
H 	H 	0.70690 0.40440 0.79800 -0.07200
C 	C 	0.72170 0.47640 0.65300 -0.39700
H 	H 	0.68850 0.48260 0.59770 0.16300
Zn	Zn	0.72581 0.78533 0.87220 1.22700
O 	O 	0.78000 0.75010 0.04100 -0.78700
H 	H 	0.80110 0.73890 0.92770 0.28500
N 	N 	0.74480 0.85740 0.86900 -0.28300
C 	C 	0.72880 0.89350 0.02500 0.10900
H 	H 	0.70240 0.88970 0.14630 -0.01300
N 	N 	0.75520 0.93740 0.99000 -0.15700
C 	C 	0.78500 0.88080 0.72400 0.04200
O 	O 	0.72730 0.16600 0.42000 -0.51300
C 	C 	0.81450 0.85810 0.53100 -0.12700
H 	H 	0.80930 0.82430 0.48460 0.03900
O 	O 	0.67920 0.12380 0.71500 -0.21300
C 	C 	0.85200 0.88660 0.40900 0.04100
C 	C 	0.88260 0.86590 0.21500 -0.08800
H 	H 	0.87770 0.83210 0.16700 0.05800
C 	C 	0.92050 0.89370 0.09000 -0.02000
H 	H 	0.94060 0.87900 0.95990 0.02800
C 	C 	0.92750 0.94410 0.16500 -0.02900
H 	H 	0.95260 0.96370 0.08520 0.03400
C 	C 	0.89680 0.96490 0.36000 -0.09200
H 	H 	0.90180 0.99860 0.40880 0.06100
C 	C 	0.85900 0.93690 0.48400 0.05000
C 	C 	0.82990 0.95970 0.67700 -0.13300
H 	H 	0.83430 0.99390 0.71870 0.07600
C 	C 	0.79390 0.93040 0.80600 0.07600
C 	C 	0.74240 0.98550 0.11100 0.13100
C 	C 	0.71760 0.07530 0.34800 -0.10300
C 	C 	0.71890 0.98570 0.35500 -0.19100
H 	H 	0.71170 0.95490 0.43750 0.10200
C 	C 	0.70610 0.03060 0.47800 0.12200
H 	H 	0.69030 0.03080 0.64270 0.00200
C 	C 	0.74100 0.07690 0.10600 -0.06200
H 	H 	0.74850 0.10770 0.02410 0.04700
C 	C 	0.75310 0.03120 0.99000 0.04700
H 	H 	0.76880 0.03110 0.82530 0.01400
C 	C 	0.71080 0.12490 0.49400 0.34700
O 	O 	0.65400 0.12500 0.51900 -0.15300
C 	C 	0.69320 0.99350 0.19200 0.02400
H 	H 	0.66890 0.96830 0.16440 0.02900
C 	C 	0.67900 0.03910 0.31400 -0.09000
H 	H 	0.64580 0.04510 0.36860 0.08200
C 	C 	0.76860 0.07050 0.27200 0.08200
H 	H 	0.79310 0.09560 0.29800 -0.00200
C 	C 	0.77830 0.02360 0.15300 -0.19400
H 	H 	0.81150 0.01740 0.09770 0.09400
Zn	Zn	0.22581 0.28533 0.37220 1.23000
O 	O 	0.28000 0.25010 0.54100 -0.80600
H 	H 	0.30110 0.23890 0.42770 0.29900
N 	N 	0.24480 0.35740 0.36900 -0.27700
C 	C 	0.22880 0.39350 0.52500 0.10700
H 	H 	0.20240 0.38970 0.64630 -0.01400
N 	N 	0.25520 0.43740 0.49000 -0.16000
C 	C 	0.28500 0.38080 0.22400 0.02600
O 	O 	0.22730 0.66600 0.92000 -0.50700
C 	C 	0.31450 0.35810 0.03100 -0.07500
H 	H 	0.30930 0.32430 0.98460 0.01500
O 	O 	0.17920 0.62380 0.21500 -0.21700
C 	C 	0.35200 0.38660 0.90900 0.00100
C 	C 	0.38260 0.36590 0.71500 -0.05100
H 	H 	0.37770 0.33210 0.66700 0.04200
C 	C 	0.42050 0.39370 0.59000 -0.05500
H 	H 	0.44060 0.37900 0.45990 0.04100
C 	C 	0.42750 0.44410 0.66500 -0.00200
H 	H 	0.45260 0.46370 0.58520 0.02500
C 	C 	0.39680 0.46490 0.86000 -0.11500
H 	H 	0.40180 0.49860 0.90880 0.06900
C 	C 	0.35900 0.43690 0.98400 0.07000
C 	C 	0.32990 0.45970 0.17700 -0.14100
H 	H 	0.33430 0.49390 0.21870 0.08000
C 	C 	0.29390 0.43040 0.30600 0.08700
C 	C 	0.24240 0.48550 0.61100 0.13300
C 	C 	0.21760 0.57530 0.84800 -0.09900
C 	C 	0.21890 0.48570 0.85500 -0.36600
H 	H 	0.21170 0.45490 0.93750 0.15700
C 	C 	0.20610 0.53060 0.97800 0.28100
H 	H 	0.19030 0.53080 0.14270 -0.05400
C 	C 	0.24100 0.57690 0.60600 -0.25800
H 	H 	0.24850 0.60770 0.52410 0.11800
C 	C 	0.25310 0.53120 0.49000 0.25100
H 	H 	0.26880 0.53110 0.32530 -0.06000
C 	C 	0.21080 0.62490 0.99400 0.34000
O 	O 	0.15400 0.62500 0.01900 -0.14900
C 	C 	0.19320 0.49350 0.69200 0.20100
H 	H 	0.16890 0.46830 0.66440 -0.03000
C 	C 	0.17900 0.53910 0.81400 -0.25000
H 	H 	0.14580 0.54510 0.86860 0.13700
C 	C 	0.26860 0.57050 0.77200 0.28400
H 	H 	0.29310 0.59560 0.79800 -0.07200
C 	C 	0.27830 0.52360 0.65300 -0.39700
H 	H 	0.31150 0.51740 0.59770 0.16300
Zn	Zn	0.21467 0.72581 0.12780 1.22700
O 	O 	0.24990 0.78000 0.95900 -0.78700
H 	H 	0.26110 0.80110 0.07230 0.28500
N 	N 	0.14260 0.74480 0.13100 -0.28300
C 	C 	0.10650 0.72880 0.97500 0.10900
H 	H 	0.11030 0.70240 0.85370 -0.01300
N 	N 	0.06260 0.75520 0.01000 -0.15700
C 	C 	0.11920 0.78500 0.27600 0.04200
O 	O 	0.83400 0.72730 0.58000 -0.51300
C 	C 	0.14190 0.81450 0.46900 -0.12700
H 	H 	0.17570 0.80930 0.51540 0.03900
O 	O 	0.87620 0.67920 0.28500 -0.21300
C 	C 	0.11340 0.85200 0.59100 0.04100
C 	C 	0.13410 0.88260 0.78500 -0.08800
H 	H 	0.16790 0.87770 0.83300 0.05800
C 	C 	0.10630 0.92050 0.91000 -0.02000
H 	H 	0.12100 0.94060 0.04010 0.02800
C 	C 	0.05590 0.92750 0.83500 -0.02900
H 	H 	0.03630 0.95260 0.91480 0.03400
C 	C 	0.03510 0.89680 0.64000 -0.09200
H 	H 	0.00140 0.90180 0.59120 0.06100
C 	C 	0.06310 0.85900 0.51600 0.05000
C 	C 	0.04030 0.82990 0.32300 -0.13300
H 	H 	0.00610 0.83430 0.28130 0.07600
C 	C 	0.06960 0.79390 0.19400 0.07600
C 	C 	0.01450 0.74240 0.88900 0.13100
C 	C 	0.92470 0.71760 0.65200 -0.10300
C 	C 	0.01430 0.71890 0.64500 -0.19100
H 	H 	0.04510 0.71170 0.56250 0.10200
C 	C 	0.96940 0.70610 0.52200 0.12200
H 	H 	0.96920 0.69030 0.35730 0.00200
C 	C 	0.92310 0.74100 0.89400 -0.06200
H 	H 	0.89230 0.74850 0.97590 0.04700
C 	C 	0.96880 0.75310 0.01000 0.04700
H 	H 	0.96890 0.76880 0.17470 0.01400
C 	C 	0.87510 0.71080 0.50600 0.34700
O 	O 	0.87500 0.65400 0.48100 -0.15300
C 	C 	0.00650 0.69320 0.80800 0.02400
H 	H 	0.03170 0.66890 0.83560 0.02900
C 	C 	0.96090 0.67900 0.68600 -0.09000
H 	H 	0.95490 0.64580 0.63140 0.08200
C 	C 	0.92950 0.76860 0.72800 0.08200
H 	H 	0.90440 0.79310 0.70200 -0.00200
C 	C 	0.97640 0.77830 0.84700 -0.19400
H 	H 	0.98260 0.81150 0.90230 0.09400
Zn	Zn	0.71467 0.22581 0.62780 1.23000
O 	O 	0.74990 0.28000 0.45900 -0.80600
H 	H 	0.76110 0.30110 0.57230 0.29900
N 	N 	0.64260 0.24480 0.63100 -0.27700
C 	C 	0.60650 0.22880 0.47500 0.10700
H 	H 	0.61030 0.20240 0.35370 -0.01400
N 	N 	0.56260 0.25520 0.51000 -0.16000
C 	C 	0.61920 0.28500 0.77600 0.02600
O 	O 	0.33400 0.22730 0.08000 -0.50700
C 	C 	0.64190 0.31450 0.96900 -0.07500
H 	H 	0.67570 0.30930 0.01540 0.01500
O 	O 	0.37620 0.17920 0.78500 -0.21700
C 	C 	0.61340 0.35200 0.09100 0.00100
C 	C 	0.63410 0.38260 0.28500 -0.05100
H 	H 	0.66790 0.37770 0.33300 0.04200
C 	C 	0.60630 0.42050 0.41000 -0.05500
H 	H 	0.62100 0.44060 0.54010 0.04100
C 	C 	0.55590 0.42750 0.33500 -0.00200
H 	H 	0.53630 0.45260 0.41480 0.02500
C 	C 	0.53510 0.39680 0.14000 -0.11500
H 	H 	0.50140 0.40180 0.09120 0.06900
C 	C 	0.56310 0.35900 0.01600 0.07000
C 	C 	0.54030 0.32990 0.82300 -0.14100
H 	H 	0.50610 0.33430 0.78130 0.08000
C 	C 	0.56960 0.29390 0.69400 0.08700
C 	C 	0.51450 0.24240 0.38900 0.13300
C 	C 	0.42470 0.21760 0.15200 -0.09900
C 	C 	0.51430 0.21890 0.14500 -0.36600
H 	H 	0.54510 0.21170 0.06250 0.15700
C 	C 	0.46940 0.20610 0.02200 0.28100
H 	H 	0.46920 0.19030 0.85730 -0.05400
C 	C 	0.42310 0.24100 0.39400 -0.25800
H 	H 	0.39230 0.24850 0.47590 0.11800
C 	C 	0.46880 0.25310 0.51000 0.25100
H 	H 	0.46890 0.26880 0.67470 -0.06000
C 	C 	0.37510 0.21080 0.00600 0.34000
O 	O 	0.37500 0.15400 0.98100 -0.14900
C 	C 	0.50650 0.19320 0.30800 0.20100
H 	H 	0.53170 0.16890 0.33560 -0.03000
C 	C 	0.46090 0.17900 0.18600 -0.25000
H 	H 	0.45490 0.14580 0.13140 0.13700
C 	C 	0.42950 0.26860 0.22800 0.28400
H 	H 	0.40440 0.29310 0.20200 -0.07200
C 	C 	0.47640 0.27830 0.34700 -0.39700
H 	H 	0.48260 0.31150 0.40230 0.16300
Zn	Zn	0.78533 0.27419 0.12780 1.22700
O 	O 	0.75010 0.22000 0.95900 -0.78700
H 	H 	0.73890 0.19890 0.07230 0.28500
N 	N 	0.85740 0.25520 0.13100 -0.28300
C 	C 	0.89350 0.27120 0.97500 0.10900
H 	H 	0.88970 0.29760 0.85370 -0.01300
N 	N 	0.93740 0.24480 0.01000 -0.15700
C 	C 	0.88080 0.21500 0.27600 0.04200
O 	O 	0.16600 0.27270 0.58000 -0.51300
C 	C 	0.85810 0.18550 0.46900 -0.12700
H 	H 	0.82430 0.19070 0.51540 0.03900
O 	O 	0.12380 0.32080 0.28500 -0.21300
C 	C 	0.88660 0.14800 0.59100 0.04100
C 	C 	0.86590 0.11740 0.78500 -0.08800
H 	H 	0.83210 0.12230 0.83300 0.05800
C 	C 	0.89370 0.07950 0.91000 -0.02000
H 	H 	0.87900 0.05940 0.04010 0.02800
C 	C 	0.94410 0.07250 0.83500 -0.02900
H 	H 	0.96370 0.04740 0.91480 0.03400
C 	C 	0.96490 0.10320 0.64000 -0.09200
H 	H 	0.99860 0.09820 0.59120 0.06100
C 	C 	0.93690 0.14100 0.51600 0.05000
C 	C 	0.95970 0.17010 0.32300 -0.13300
H 	H 	0.99390 0.16570 0.28130 0.07600
C 	C 	0.93040 0.20610 0.19400 0.07600
C 	C 	0.98550 0.25760 0.88900 0.13100
C 	C 	0.07530 0.28240 0.65200 -0.10300
C 	C 	0.98570 0.28110 0.64500 -0.19100
H 	H 	0.95490 0.28830 0.56250 0.10200
C 	C 	0.03060 0.29390 0.52200 0.12200
H 	H 	0.03080 0.30970 0.35730 0.00200
C 	C 	0.07690 0.25900 0.89400 -0.06200
H 	H 	0.10770 0.25150 0.97590 0.04700
C 	C 	0.03120 0.24690 0.01000 0.04700
H 	H 	0.03110 0.23120 0.17470 0.01400
C 	C 	0.12490 0.28920 0.50600 0.34700
O 	O 	0.12500 0.34600 0.48100 -0.15300
C 	C 	0.99350 0.30680 0.80800 0.02400
H 	H 	0.96830 0.33110 0.83560 0.02900
C 	C 	0.03910 0.32100 0.68600 -0.09000
H 	H 	0.04510 0.35420 0.63140 0.08200
C 	C 	0.07050 0.23140 0.72800 0.08200
H 	H 	0.09560 0.20690 0.70200 -0.00200
C 	C 	0.02360 0.22170 0.84700 -0.19400
H 	H 	0.01740 0.18850 0.90230 0.09400
Zn	Zn	0.28533 0.77419 0.62780 1.23000
O 	O 	0.25010 0.72000 0.45900 -0.80600
H 	H 	0.23890 0.69890 0.57230 0.29900
N 	N 	0.35740 0.75520 0.63100 -0.27700
C 	C 	0.39350 0.77120 0.47500 0.10700
H 	H 	0.38970 0.79760 0.35370 -0.01400
N 	N 	0.43740 0.74480 0.51000 -0.16000
C 	C 	0.38080 0.71500 0.77600 0.02600
O 	O 	0.66600 0.77270 0.08000 -0.50700
C 	C 	0.35810 0.68550 0.96900 -0.07500
H 	H 	0.32430 0.69070 0.01540 0.01500
O 	O 	0.62380 0.82080 0.78500 -0.21700
C 	C 	0.38660 0.64800 0.09100 0.00100
C 	C 	0.36590 0.61740 0.28500 -0.05100
H 	H 	0.33210 0.62230 0.33300 0.04200
C 	C 	0.39370 0.57950 0.41000 -0.05500
H 	H 	0.37900 0.55940 0.54010 0.04100
C 	C 	0.44410 0.57250 0.33500 -0.00200
H 	H 	0.46370 0.54740 0.41480 0.02500
C 	C 	0.46490 0.60320 0.14000 -0.11500
H 	H 	0.49860 0.59820 0.09120 0.06900
C 	C 	0.43690 0.64100 0.01600 0.07000
C 	C 	0.45970 0.67010 0.82300 -0.14100
H 	H 	0.49390 0.66570 0.78130 0.08000
C 	C 	0.43040 0.70610 0.69400 0.08700
C 	C 	0.48550 0.75760 0.38900 0.13300
C 	C 	0.57530 0.78240 0.15200 -0.09900
C 	C 	0.48570 0.78110 0.14500 -0.36600
H 	H 	0.45490 0.78830 0.06250 0.15700
C 	C 	0.53060 0.79390 0.02200 0.28100
H 	H 	0.53080 0.80970 0.85730 -0.05400
C 	C 	0.57690 0.75900 0.39400 -0.25800
H 	H 	0.60770 0.75150 0.47590 0.11800
C 	C 	0.53120 0.74690 0.51000 0.25100
H 	H 	0.53110 0.73120 0.67470 -0.06000
C 	C 	0.62490 0.78920 0.00600 0.34000
O 	O 	0.62500 0.84600 0.98100 -0.14900
C 	C 	0.49350 0.80680 0.30800 0.20100
H 	H 	0.46830 0.83110 0.33560 -0.03000
C 	C 	0.53910 0.82100 0.18600 -0.25000
H 	H 	0.54510 0.85420 0.13140 0.13700
C 	C 	0.57050 0.73140 0.22800 0.28400
H 	H 	0.59560 0.70690 0.20200 -0.07200
C 	C 	0.52360 0.72170 0.34700 -0.39700
H 	H 	0.51740 0.68850 0.40230 0.16300
