data_crystal

_cell_length_a 26.42300
_cell_length_b 26.42300
_cell_length_c 5.08450
_cell_angle_alpha 90.00000
_cell_angle_beta  90.00000
_cell_angle_gamma 90.00000

_symmetry_space_group_name_	'P 1'
_symmetry_space_group_name_H-M	'P 1'

loop_
_symmetry_equiv_pos_as_xyz
  x,y,z

loop_
_atom_site_label
_atom_site_type_symbol
_atom_site_fract_x
_atom_site_fract_y
_atom_site_fract_z
_atom_site_charge
Zn	Zn	0.27328 0.21436 0.89840 1.22600
O 	O 	0.22020 0.25210 0.07070 -0.79200
H 	H 	0.19930 0.26320 0.95770 0.28800
N 	N 	0.25320 0.14210 0.88100 -0.28100
C 	C 	0.26980 0.10610 0.03400 0.10700
H 	H 	0.29570 0.10980 0.15630 -0.01300
N 	N 	0.24400 0.06250 0.98960 -0.15800
C 	C 	0.21480 0.12090 0.73330 0.05200
O 	O 	0.27640 0.83410 0.38800 -0.53000
C 	C 	0.18480 0.14290 0.54240 -0.13800
H 	H 	0.18910 0.17680 0.49730 0.04200
O 	O 	0.31630 0.87500 0.69600 -0.21600
C 	C 	0.14830 0.11380 0.41970 0.04900
C 	C 	0.11800 0.13480 0.22700 -0.09500
H 	H 	0.12270 0.16860 0.18170 0.06000
C 	C 	0.08070 0.10730 0.09800 -0.01300
H 	H 	0.06070 0.12250 0.97030 0.02600
C 	C 	0.07370 0.05670 0.16400 -0.03400
H 	H 	0.04900 0.03750 0.07930 0.03600
C 	C 	0.10400 0.03540 0.35600 -0.08500
H 	H 	0.09940 0.00160 0.40100 0.05800
C 	C 	0.14120 0.06320 0.48470 0.04200
C 	C 	0.17080 0.04090 0.67670 -0.12900
H 	H 	0.16680 0.00700 0.72030 0.07500
C 	C 	0.20650 0.07070 0.80200 0.07100
C 	C 	0.25760 0.01400 0.10600 0.14900
C 	C 	0.28370 0.92360 0.33300 -0.15300
C 	C 	0.27910 0.01280 0.35400 -0.18900
H 	H 	0.28460 0.04300 0.44340 0.10200
C 	C 	0.29250 0.96780 0.47200 0.11600
H 	H 	0.30690 0.96710 0.63880 0.00500
C 	C 	0.26230 0.92320 0.08600 0.08400
H 	H 	0.25650 0.89300 0.99670 0.01600
C 	C 	0.24960 0.96900 0.97500 -0.13900
H 	H 	0.23530 0.96970 0.80800 0.08000
C 	C 	0.29760 0.87340 0.45700 0.44500
O 	O 	0.34270 0.86840 0.53400 -0.21700
C 	C 	0.30710 0.00560 0.17600 -0.00800
H 	H 	0.33120 0.03060 0.14600 0.04000
C 	C 	0.32170 0.95970 0.29100 -0.04800
H 	H 	0.35520 0.95360 0.33870 0.06300
C 	C 	0.23250 0.92900 0.26500 -0.04200
H 	H 	0.20820 0.90410 0.29250 0.04100
C 	C 	0.22200 0.97620 0.15300 -0.03700
H 	H 	0.18870 0.98290 0.10560 0.04100
Zn	Zn	0.77328 0.71436 0.39840 1.22900
O 	O 	0.72020 0.75210 0.57070 -0.81100
H 	H 	0.69930 0.76320 0.45770 0.30600
N 	N 	0.75320 0.64210 0.38100 -0.27400
C 	C 	0.76980 0.60610 0.53400 0.10700
H 	H 	0.79570 0.60980 0.65630 -0.01500
N 	N 	0.74400 0.56250 0.48960 -0.16300
C 	C 	0.71480 0.62090 0.23330 0.03600
O 	O 	0.77640 0.33410 0.88800 -0.52600
C 	C 	0.68480 0.64290 0.04240 -0.08800
H 	H 	0.68910 0.67680 0.99730 0.01800
O 	O 	0.81630 0.37500 0.19600 -0.22100
C 	C 	0.64830 0.61380 0.91970 0.00700
C 	C 	0.61800 0.63480 0.72700 -0.06000
H 	H 	0.62270 0.66860 0.68170 0.04600
C 	C 	0.58070 0.60730 0.59800 -0.05000
H 	H 	0.56070 0.62250 0.47030 0.04200
C 	C 	0.57370 0.55670 0.66400 -0.00600
H 	H 	0.54900 0.53750 0.57930 0.02700
C 	C 	0.60400 0.53540 0.85600 -0.10800
H 	H 	0.59940 0.50160 0.90100 0.06600
C 	C 	0.64120 0.56320 0.98470 0.06100
C 	C 	0.67080 0.54090 0.17670 -0.14100
H 	H 	0.66680 0.50700 0.22030 0.07800
C 	C 	0.70650 0.57070 0.30200 0.08300
C 	C 	0.75760 0.51400 0.60600 0.16600
C 	C 	0.78370 0.42360 0.83300 -0.15900
C 	C 	0.77910 0.51280 0.85400 0.00700
H 	H 	0.78460 0.54300 0.94340 0.03100
C 	C 	0.79250 0.46780 0.97200 -0.08200
H 	H 	0.80690 0.46710 0.13880 0.07700
C 	C 	0.76230 0.42320 0.58600 0.08700
H 	H 	0.75650 0.39300 0.49670 0.00600
C 	C 	0.74960 0.46900 0.47500 -0.13600
H 	H 	0.73530 0.46970 0.30800 0.08000
C 	C 	0.79760 0.37340 0.95700 0.44800
O 	O 	0.84270 0.36840 0.03400 -0.21500
C 	C 	0.80710 0.50560 0.67600 -0.20800
H 	H 	0.83120 0.53060 0.64600 0.11100
C 	C 	0.82170 0.45970 0.79100 0.14400
H 	H 	0.85520 0.45360 0.83870 -0.00500
C 	C 	0.73250 0.42900 0.76500 -0.01200
H 	H 	0.70820 0.40410 0.79250 0.03400
C 	C 	0.72200 0.47620 0.65300 -0.06900
H 	H 	0.68870 0.48290 0.60560 0.05200
Zn	Zn	0.72672 0.78564 0.89840 1.22700
O 	O 	0.77980 0.74790 0.07070 -0.79100
H 	H 	0.80070 0.73680 0.95770 0.28900
N 	N 	0.74680 0.85790 0.88100 -0.28000
C 	C 	0.73020 0.89390 0.03400 0.10700
H 	H 	0.70430 0.89020 0.15630 -0.01300
N 	N 	0.75600 0.93750 0.98960 -0.15800
C 	C 	0.78520 0.87910 0.73330 0.05200
O 	O 	0.72360 0.16590 0.38800 -0.53000
C 	C 	0.81520 0.85710 0.54240 -0.13800
H 	H 	0.81090 0.82320 0.49730 0.04200
O 	O 	0.68370 0.12500 0.69600 -0.21600
C 	C 	0.85170 0.88620 0.41970 0.04900
C 	C 	0.88200 0.86520 0.22700 -0.09500
H 	H 	0.87730 0.83140 0.18170 0.06000
C 	C 	0.91930 0.89270 0.09800 -0.01300
H 	H 	0.93930 0.87750 0.97030 0.02600
C 	C 	0.92630 0.94330 0.16400 -0.03400
H 	H 	0.95100 0.96250 0.07930 0.03600
C 	C 	0.89600 0.96460 0.35600 -0.08500
H 	H 	0.90060 0.99840 0.40100 0.05800
C 	C 	0.85880 0.93680 0.48470 0.04200
C 	C 	0.82920 0.95910 0.67670 -0.12900
H 	H 	0.83320 0.99300 0.72030 0.07500
C 	C 	0.79350 0.92930 0.80200 0.07100
C 	C 	0.74240 0.98600 0.10600 0.14900
C 	C 	0.71630 0.07640 0.33300 -0.15300
C 	C 	0.72090 0.98720 0.35400 -0.18900
H 	H 	0.71540 0.95700 0.44340 0.10200
C 	C 	0.70750 0.03220 0.47200 0.11600
H 	H 	0.69310 0.03290 0.63880 0.00500
C 	C 	0.73770 0.07680 0.08600 0.08400
H 	H 	0.74350 0.10700 0.99670 0.01600
C 	C 	0.75040 0.03100 0.97500 -0.13900
H 	H 	0.76470 0.03030 0.80800 0.08000
C 	C 	0.70240 0.12660 0.45700 0.44500
O 	O 	0.65730 0.13160 0.53400 -0.21700
C 	C 	0.69290 0.99440 0.17600 -0.00800
H 	H 	0.66880 0.96940 0.14600 0.04000
C 	C 	0.67830 0.04030 0.29100 -0.04800
H 	H 	0.64480 0.04640 0.33870 0.06300
C 	C 	0.76750 0.07100 0.26500 -0.04200
H 	H 	0.79180 0.09590 0.29250 0.04100
C 	C 	0.77800 0.02380 0.15300 -0.03700
H 	H 	0.81130 0.01710 0.10560 0.04100
Zn	Zn	0.22672 0.28564 0.39840 1.22900
O 	O 	0.27980 0.24790 0.57070 -0.81100
H 	H 	0.30070 0.23680 0.45770 0.30600
N 	N 	0.24680 0.35790 0.38100 -0.27400
C 	C 	0.23020 0.39390 0.53400 0.10700
H 	H 	0.20430 0.39020 0.65630 -0.01500
N 	N 	0.25600 0.43750 0.48960 -0.16300
C 	C 	0.28520 0.37910 0.23330 0.03600
O 	O 	0.22360 0.66590 0.88800 -0.52600
C 	C 	0.31520 0.35710 0.04240 -0.08800
H 	H 	0.31090 0.32320 0.99730 0.01800
O 	O 	0.18370 0.62500 0.19600 -0.22100
C 	C 	0.35170 0.38620 0.91970 0.00700
C 	C 	0.38200 0.36520 0.72700 -0.06000
H 	H 	0.37730 0.33140 0.68170 0.04600
C 	C 	0.41930 0.39270 0.59800 -0.05000
H 	H 	0.43930 0.37750 0.47030 0.04200
C 	C 	0.42630 0.44330 0.66400 -0.00600
H 	H 	0.45100 0.46250 0.57930 0.02700
C 	C 	0.39600 0.46460 0.85600 -0.10800
H 	H 	0.40060 0.49840 0.90100 0.06600
C 	C 	0.35880 0.43680 0.98470 0.06100
C 	C 	0.32920 0.45910 0.17670 -0.14100
H 	H 	0.33320 0.49300 0.22030 0.07800
C 	C 	0.29350 0.42930 0.30200 0.08300
C 	C 	0.24240 0.48600 0.60600 0.16600
C 	C 	0.21630 0.57640 0.83300 -0.15900
C 	C 	0.22090 0.48720 0.85400 0.00700
H 	H 	0.21540 0.45700 0.94340 0.03100
C 	C 	0.20750 0.53220 0.97200 -0.08200
H 	H 	0.19310 0.53290 0.13880 0.07700
C 	C 	0.23770 0.57680 0.58600 0.08700
H 	H 	0.24350 0.60700 0.49670 0.00600
C 	C 	0.25040 0.53100 0.47500 -0.13600
H 	H 	0.26470 0.53030 0.30800 0.08000
C 	C 	0.20240 0.62660 0.95700 0.44800
O 	O 	0.15730 0.63160 0.03400 -0.21500
C 	C 	0.19290 0.49440 0.67600 -0.20800
H 	H 	0.16880 0.46940 0.64600 0.11100
C 	C 	0.17830 0.54030 0.79100 0.14400
H 	H 	0.14480 0.54640 0.83870 -0.00500
C 	C 	0.26750 0.57100 0.76500 -0.01200
H 	H 	0.29180 0.59590 0.79250 0.03400
C 	C 	0.27800 0.52380 0.65300 -0.06900
H 	H 	0.31130 0.51710 0.60560 0.05200
Zn	Zn	0.21436 0.72672 0.10160 1.22700
O 	O 	0.25210 0.77980 0.92930 -0.79100
H 	H 	0.26320 0.80070 0.04230 0.28900
N 	N 	0.14210 0.74680 0.11900 -0.28000
C 	C 	0.10610 0.73020 0.96600 0.10700
H 	H 	0.10980 0.70430 0.84370 -0.01300
N 	N 	0.06250 0.75600 0.01040 -0.15800
C 	C 	0.12090 0.78520 0.26670 0.05200
O 	O 	0.83410 0.72360 0.61200 -0.53000
C 	C 	0.14290 0.81520 0.45760 -0.13800
H 	H 	0.17680 0.81090 0.50270 0.04200
O 	O 	0.87500 0.68370 0.30400 -0.21600
C 	C 	0.11380 0.85170 0.58030 0.04900
C 	C 	0.13480 0.88200 0.77300 -0.09500
H 	H 	0.16860 0.87730 0.81830 0.06000
C 	C 	0.10730 0.91930 0.90200 -0.01300
H 	H 	0.12250 0.93930 0.02970 0.02600
C 	C 	0.05670 0.92630 0.83600 -0.03400
H 	H 	0.03750 0.95100 0.92070 0.03600
C 	C 	0.03540 0.89600 0.64400 -0.08500
H 	H 	0.00160 0.90060 0.59900 0.05800
C 	C 	0.06320 0.85880 0.51530 0.04200
C 	C 	0.04090 0.82920 0.32330 -0.12900
H 	H 	0.00700 0.83320 0.27970 0.07500
C 	C 	0.07070 0.79350 0.19800 0.07100
C 	C 	0.01400 0.74240 0.89400 0.14900
C 	C 	0.92360 0.71630 0.66700 -0.15300
C 	C 	0.01280 0.72090 0.64600 -0.18900
H 	H 	0.04300 0.71540 0.55660 0.10200
C 	C 	0.96780 0.70750 0.52800 0.11600
H 	H 	0.96710 0.69310 0.36120 0.00500
C 	C 	0.92320 0.73770 0.91400 0.08400
H 	H 	0.89300 0.74350 0.00330 0.01600
C 	C 	0.96900 0.75040 0.02500 -0.13900
H 	H 	0.96970 0.76470 0.19200 0.08000
C 	C 	0.87340 0.70240 0.54300 0.44500
O 	O 	0.86840 0.65730 0.46600 -0.21700
C 	C 	0.00560 0.69290 0.82400 -0.00800
H 	H 	0.03060 0.66880 0.85400 0.04000
C 	C 	0.95970 0.67830 0.70900 -0.04800
H 	H 	0.95360 0.64480 0.66130 0.06300
C 	C 	0.92900 0.76750 0.73500 -0.04200
H 	H 	0.90410 0.79180 0.70750 0.04100
C 	C 	0.97620 0.77800 0.84700 -0.03700
H 	H 	0.98290 0.81130 0.89440 0.04100
Zn	Zn	0.71436 0.22672 0.60160 1.22900
O 	O 	0.75210 0.27980 0.42930 -0.81100
H 	H 	0.76320 0.30070 0.54230 0.30600
N 	N 	0.64210 0.24680 0.61900 -0.27400
C 	C 	0.60610 0.23020 0.46600 0.10700
H 	H 	0.60980 0.20430 0.34370 -0.01500
N 	N 	0.56250 0.25600 0.51040 -0.16300
C 	C 	0.62090 0.28520 0.76670 0.03600
O 	O 	0.33410 0.22360 0.11200 -0.52600
C 	C 	0.64290 0.31520 0.95760 -0.08800
H 	H 	0.67680 0.31090 0.00270 0.01800
O 	O 	0.37500 0.18370 0.80400 -0.22100
C 	C 	0.61380 0.35170 0.08030 0.00700
C 	C 	0.63480 0.38200 0.27300 -0.06000
H 	H 	0.66860 0.37730 0.31830 0.04600
C 	C 	0.60730 0.41930 0.40200 -0.05000
H 	H 	0.62250 0.43930 0.52970 0.04200
C 	C 	0.55670 0.42630 0.33600 -0.00600
H 	H 	0.53750 0.45100 0.42070 0.02700
C 	C 	0.53540 0.39600 0.14400 -0.10800
H 	H 	0.50160 0.40060 0.09900 0.06600
C 	C 	0.56320 0.35880 0.01530 0.06100
C 	C 	0.54090 0.32920 0.82330 -0.14100
H 	H 	0.50700 0.33320 0.77970 0.07800
C 	C 	0.57070 0.29350 0.69800 0.08300
C 	C 	0.51400 0.24240 0.39400 0.16600
C 	C 	0.42360 0.21630 0.16700 -0.15900
C 	C 	0.51280 0.22090 0.14600 0.00700
H 	H 	0.54300 0.21540 0.05660 0.03100
C 	C 	0.46780 0.20750 0.02800 -0.08200
H 	H 	0.46710 0.19310 0.86120 0.07700
C 	C 	0.42320 0.23770 0.41400 0.08700
H 	H 	0.39300 0.24350 0.50330 0.00600
C 	C 	0.46900 0.25040 0.52500 -0.13600
H 	H 	0.46970 0.26470 0.69200 0.08000
C 	C 	0.37340 0.20240 0.04300 0.44800
O 	O 	0.36840 0.15730 0.96600 -0.21500
C 	C 	0.50560 0.19290 0.32400 -0.20800
H 	H 	0.53060 0.16880 0.35400 0.11100
C 	C 	0.45970 0.17830 0.20900 0.14400
H 	H 	0.45360 0.14480 0.16130 -0.00500
C 	C 	0.42900 0.26750 0.23500 -0.01200
H 	H 	0.40410 0.29180 0.20750 0.03400
C 	C 	0.47620 0.27800 0.34700 -0.06900
H 	H 	0.48290 0.31130 0.39440 0.05200
Zn	Zn	0.78564 0.27328 0.10160 1.22700
O 	O 	0.74790 0.22020 0.92930 -0.79100
H 	H 	0.73680 0.19930 0.04230 0.28900
N 	N 	0.85790 0.25320 0.11900 -0.28000
C 	C 	0.89390 0.26980 0.96600 0.10700
H 	H 	0.89020 0.29570 0.84370 -0.01300
N 	N 	0.93750 0.24400 0.01040 -0.15800
C 	C 	0.87910 0.21480 0.26670 0.05200
O 	O 	0.16590 0.27640 0.61200 -0.53000
C 	C 	0.85710 0.18480 0.45760 -0.13800
H 	H 	0.82320 0.18910 0.50270 0.04200
O 	O 	0.12500 0.31630 0.30400 -0.21600
C 	C 	0.88620 0.14830 0.58030 0.04900
C 	C 	0.86520 0.11800 0.77300 -0.09500
H 	H 	0.83140 0.12270 0.81830 0.06000
C 	C 	0.89270 0.08070 0.90200 -0.01300
H 	H 	0.87750 0.06070 0.02970 0.02600
C 	C 	0.94330 0.07370 0.83600 -0.03400
H 	H 	0.96250 0.04900 0.92070 0.03600
C 	C 	0.96460 0.10400 0.64400 -0.08500
H 	H 	0.99840 0.09940 0.59900 0.05800
C 	C 	0.93680 0.14120 0.51530 0.04200
C 	C 	0.95910 0.17080 0.32330 -0.12900
H 	H 	0.99300 0.16680 0.27970 0.07500
C 	C 	0.92930 0.20650 0.19800 0.07100
C 	C 	0.98600 0.25760 0.89400 0.14900
C 	C 	0.07640 0.28370 0.66700 -0.15300
C 	C 	0.98720 0.27910 0.64600 -0.18900
H 	H 	0.95700 0.28460 0.55660 0.10200
C 	C 	0.03220 0.29250 0.52800 0.11600
H 	H 	0.03290 0.30690 0.36120 0.00500
C 	C 	0.07680 0.26230 0.91400 0.08400
H 	H 	0.10700 0.25650 0.00330 0.01600
C 	C 	0.03100 0.24960 0.02500 -0.13900
H 	H 	0.03030 0.23530 0.19200 0.08000
C 	C 	0.12660 0.29760 0.54300 0.44500
O 	O 	0.13160 0.34270 0.46600 -0.21700
C 	C 	0.99440 0.30710 0.82400 -0.00800
H 	H 	0.96940 0.33120 0.85400 0.04000
C 	C 	0.04030 0.32170 0.70900 -0.04800
H 	H 	0.04640 0.35520 0.66130 0.06300
C 	C 	0.07100 0.23250 0.73500 -0.04200
H 	H 	0.09590 0.20820 0.70750 0.04100
C 	C 	0.02380 0.22200 0.84700 -0.03700
H 	H 	0.01710 0.18870 0.89440 0.04100
Zn	Zn	0.28564 0.77328 0.60160 1.22900
O 	O 	0.24790 0.72020 0.42930 -0.81100
H 	H 	0.23680 0.69930 0.54230 0.30600
N 	N 	0.35790 0.75320 0.61900 -0.27400
C 	C 	0.39390 0.76980 0.46600 0.10700
H 	H 	0.39020 0.79570 0.34370 -0.01500
N 	N 	0.43750 0.74400 0.51040 -0.16300
C 	C 	0.37910 0.71480 0.76670 0.03600
O 	O 	0.66590 0.77640 0.11200 -0.52600
C 	C 	0.35710 0.68480 0.95760 -0.08800
H 	H 	0.32320 0.68910 0.00270 0.01800
O 	O 	0.62500 0.81630 0.80400 -0.22100
C 	C 	0.38620 0.64830 0.08030 0.00700
C 	C 	0.36520 0.61800 0.27300 -0.06000
H 	H 	0.33140 0.62270 0.31830 0.04600
C 	C 	0.39270 0.58070 0.40200 -0.05000
H 	H 	0.37750 0.56070 0.52970 0.04200
C 	C 	0.44330 0.57370 0.33600 -0.00600
H 	H 	0.46250 0.54900 0.42070 0.02700
C 	C 	0.46460 0.60400 0.14400 -0.10800
H 	H 	0.49840 0.59940 0.09900 0.06600
C 	C 	0.43680 0.64120 0.01530 0.06100
C 	C 	0.45910 0.67080 0.82330 -0.14100
H 	H 	0.49300 0.66680 0.77970 0.07800
C 	C 	0.42930 0.70650 0.69800 0.08300
C 	C 	0.48600 0.75760 0.39400 0.16600
C 	C 	0.57640 0.78370 0.16700 -0.15900
C 	C 	0.48720 0.77910 0.14600 0.00700
H 	H 	0.45700 0.78460 0.05660 0.03100
C 	C 	0.53220 0.79250 0.02800 -0.08200
H 	H 	0.53290 0.80690 0.86120 0.07700
C 	C 	0.57680 0.76230 0.41400 0.08700
H 	H 	0.60700 0.75650 0.50330 0.00600
C 	C 	0.53100 0.74960 0.52500 -0.13600
H 	H 	0.53030 0.73530 0.69200 0.08000
C 	C 	0.62660 0.79760 0.04300 0.44800
O 	O 	0.63160 0.84270 0.96600 -0.21500
C 	C 	0.49440 0.80710 0.32400 -0.20800
H 	H 	0.46940 0.83120 0.35400 0.11100
C 	C 	0.54030 0.82170 0.20900 0.14400
H 	H 	0.54640 0.85520 0.16130 -0.00500
C 	C 	0.57100 0.73250 0.23500 -0.01200
H 	H 	0.59590 0.70820 0.20750 0.03400
C 	C 	0.52380 0.72200 0.34700 -0.06900
H 	H 	0.51710 0.68870 0.39440 0.05200
