data_crystal

_cell_length_a 26.50860
_cell_length_b 26.50860
_cell_length_c 5.19030
_cell_angle_alpha 90.00000
_cell_angle_beta  90.00000
_cell_angle_gamma 90.00000

_symmetry_space_group_name_	'P 1'
_symmetry_space_group_name_H-M	'P 1'

loop_
_symmetry_equiv_pos_as_xyz
  x,y,z

loop_
_atom_site_label
_atom_site_type_symbol
_atom_site_fract_x
_atom_site_fract_y
_atom_site_fract_z
_atom_site_charge
Zn	Zn	0.27260 0.21425 0.92088 1.22900
O 	O 	0.22163 0.25317 0.09520 -0.80500
H 	H 	0.20090 0.26410 0.98340 0.29900
N 	N 	0.25079 0.14162 0.90400 -0.26000
C 	C 	0.26753 0.10427 0.04000 0.06500
H 	H 	0.29350 0.10760 0.15930 0.00500
N 	N 	0.24392 0.06010 0.99310 -0.12200
C 	C 	0.21236 0.12213 0.75050 0.03900
O 	O 	0.27774 0.83342 0.36840 -0.53700
C 	C 	0.18351 0.14400 0.56590 -0.11600
H 	H 	0.18750 0.17800 0.52650 0.03600
O 	O 	0.32000 0.87140 0.66900 -0.21500
C 	C 	0.14797 0.11521 0.43650 0.01100
C 	C 	0.11790 0.13597 0.23520 -0.03900
H 	H 	0.12160 0.16980 0.19080 0.03700
C 	C 	0.08352 0.10660 0.10600 -0.09800
H 	H 	0.06460 0.12020 0.97190 0.06800
C 	C 	0.07710 0.05650 0.17640 0.02800
H 	H 	0.05280 0.03730 0.09230 0.00800
C 	C 	0.10508 0.03502 0.36390 -0.12400
H 	H 	0.09970 0.00130 0.40580 0.07500
C 	C 	0.14240 0.06266 0.49800 0.07600
C 	C 	0.17215 0.04042 0.68420 -0.14700
H 	H 	0.16830 0.00650 0.72540 0.08900
C 	C 	0.20763 0.06968 0.80750 0.08200
C 	C 	0.25733 0.01244 0.10280 0.03500
C 	C 	0.28450 0.92112 0.31730 -0.14400
C 	C 	0.30560 0.00480 0.17100 0.65500
H 	H 	0.32850 0.03130 0.15790 -0.18600
C 	C 	0.32170 0.95900 0.25700 -0.64300
H 	H 	0.35600 0.95240 0.27750 0.27100
C 	C 	0.23740 0.93020 0.25000 -0.96100
H 	H 	0.21350 0.90460 0.26420 0.34900
C 	C 	0.22280 0.97730 0.15940 0.74700
H 	H 	0.18870 0.98450 0.13780 -0.23700
C 	C 	0.29840 0.87120 0.44030 0.44100
O 	O 	0.34620 0.86740 0.50000 -0.20700
C 	C 	0.27400 0.01220 0.34800 -0.77600
H 	H 	0.27590 0.04200 0.44230 0.31300
C 	C 	0.28880 0.96510 0.45900 0.62700
H 	H 	0.30120 0.96400 0.62680 -0.17400
C 	C 	0.26550 0.92240 0.08400 0.94500
H 	H 	0.26020 0.89220 0.99700 -0.26800
C 	C 	0.25290 0.96720 0.96500 -0.78800
H 	H 	0.24170 0.96730 0.79470 0.31500
Zn	Zn	0.77260 0.71425 0.42088 1.22900
O 	O 	0.72163 0.75317 0.59520 -0.80400
H 	H 	0.70090 0.76410 0.48340 0.30100
N 	N 	0.75079 0.64162 0.40400 -0.27500
C 	C 	0.76753 0.60427 0.54000 0.11800
H 	H 	0.79350 0.60760 0.65930 -0.01600
N 	N 	0.74392 0.56010 0.49310 -0.18000
C 	C 	0.71236 0.62213 0.25050 0.04400
O 	O 	0.77774 0.33342 0.86840 -0.54200
C 	C 	0.68351 0.64400 0.06590 -0.12800
H 	H 	0.68750 0.67800 0.02650 0.04000
O 	O 	0.82000 0.37140 0.16900 -0.24300
C 	C 	0.64797 0.61521 0.93650 0.02800
C 	C 	0.61790 0.63597 0.73520 -0.07000
H 	H 	0.62160 0.66980 0.69080 0.05000
C 	C 	0.58352 0.60660 0.60600 -0.04400
H 	H 	0.56460 0.62020 0.47190 0.04100
C 	C 	0.57710 0.55650 0.67640 -0.00500
H 	H 	0.55280 0.53730 0.59230 0.02700
C 	C 	0.60508 0.53502 0.86390 -0.10800
H 	H 	0.59970 0.50130 0.90580 0.06800
C 	C 	0.64240 0.56266 0.99800 0.06300
C 	C 	0.67215 0.54042 0.18420 -0.15200
H 	H 	0.66830 0.50650 0.22540 0.08100
C 	C 	0.70763 0.56968 0.30750 0.08500
C 	C 	0.75733 0.51244 0.60280 0.23300
C 	C 	0.78450 0.42112 0.81730 -0.22800
C 	C 	0.80560 0.50480 0.67100 -0.14200
H 	H 	0.82850 0.53130 0.65790 0.09000
C 	C 	0.82170 0.45900 0.75700 0.06900
H 	H 	0.85600 0.45240 0.77750 0.02700
C 	C 	0.73740 0.43020 0.75000 0.03100
H 	H 	0.71350 0.40460 0.76420 0.01900
C 	C 	0.72280 0.47730 0.65940 -0.12000
H 	H 	0.68870 0.48450 0.63780 0.07100
C 	C 	0.79840 0.37120 0.94030 0.49300
O 	O 	0.84620 0.36740 -0.00000 -0.21300
C 	C 	0.77400 0.51220 0.84800 -0.13900
H 	H 	0.77590 0.54200 0.94230 0.08300
C 	C 	0.78880 0.46510 0.95900 0.07700
H 	H 	0.80120 0.46400 0.12680 0.01500
C 	C 	0.76550 0.42240 0.58400 0.12500
H 	H 	0.76020 0.39220 0.49700 -0.00800
C 	C 	0.75290 0.46720 0.46500 -0.16700
H 	H 	0.74170 0.46730 0.29470 0.08700
Zn	Zn	0.72740 0.78575 0.92088 1.23000
O 	O 	0.77837 0.74683 0.09520 -0.80400
H 	H 	0.79910 0.73590 0.98340 0.30000
N 	N 	0.74921 0.85838 0.90400 -0.25900
C 	C 	0.73247 0.89573 0.04000 0.06500
H 	H 	0.70650 0.89240 0.15930 0.00500
N 	N 	0.75608 0.93990 0.99310 -0.12200
C 	C 	0.78764 0.87787 0.75050 0.03900
O 	O 	0.72226 0.16658 0.36840 -0.53700
C 	C 	0.81649 0.85600 0.56590 -0.11600
H 	H 	0.81250 0.82200 0.52650 0.03600
O 	O 	0.68000 0.12860 0.66900 -0.21500
C 	C 	0.85203 0.88479 0.43650 0.01100
C 	C 	0.88210 0.86403 0.23520 -0.03900
H 	H 	0.87840 0.83020 0.19080 0.03700
C 	C 	0.91648 0.89340 0.10600 -0.09800
H 	H 	0.93540 0.87980 0.97190 0.06800
C 	C 	0.92290 0.94350 0.17640 0.02800
H 	H 	0.94720 0.96270 0.09230 0.00800
C 	C 	0.89492 0.96498 0.36390 -0.12400
H 	H 	0.90030 0.99870 0.40580 0.07500
C 	C 	0.85760 0.93734 0.49800 0.07600
C 	C 	0.82785 0.95958 0.68420 -0.14700
H 	H 	0.83170 0.99350 0.72540 0.08900
C 	C 	0.79237 0.93032 0.80750 0.08200
C 	C 	0.74267 0.98756 0.10280 0.03500
C 	C 	0.71550 0.07888 0.31730 -0.14400
C 	C 	0.69440 0.99520 0.17100 0.65500
H 	H 	0.67150 0.96870 0.15790 -0.18600
C 	C 	0.67830 0.04100 0.25700 -0.64300
H 	H 	0.64400 0.04760 0.27750 0.27100
C 	C 	0.76260 0.06980 0.25000 -0.96100
H 	H 	0.78650 0.09540 0.26420 0.34900
C 	C 	0.77720 0.02270 0.15940 0.74700
H 	H 	0.81130 0.01550 0.13780 -0.23700
C 	C 	0.70160 0.12880 0.44030 0.44100
O 	O 	0.65380 0.13260 0.50000 -0.20700
C 	C 	0.72600 0.98780 0.34800 -0.77600
H 	H 	0.72410 0.95800 0.44230 0.31300
C 	C 	0.71120 0.03490 0.45900 0.62700
H 	H 	0.69880 0.03600 0.62680 -0.17400
C 	C 	0.73450 0.07760 0.08400 0.94500
H 	H 	0.73980 0.10780 0.99700 -0.26800
C 	C 	0.74710 0.03280 0.96500 -0.78800
H 	H 	0.75830 0.03270 0.79470 0.31500
Zn	Zn	0.22740 0.28575 0.42088 1.22900
O 	O 	0.27837 0.24683 0.59520 -0.80400
H 	H 	0.29910 0.23590 0.48340 0.30100
N 	N 	0.24921 0.35838 0.40400 -0.27500
C 	C 	0.23247 0.39573 0.54000 0.11800
H 	H 	0.20650 0.39240 0.65930 -0.01600
N 	N 	0.25608 0.43990 0.49310 -0.18000
C 	C 	0.28764 0.37787 0.25050 0.04400
O 	O 	0.22226 0.66658 0.86840 -0.54200
C 	C 	0.31649 0.35600 0.06590 -0.12800
H 	H 	0.31250 0.32200 0.02650 0.04000
O 	O 	0.18000 0.62860 0.16900 -0.24300
C 	C 	0.35203 0.38479 0.93650 0.02800
C 	C 	0.38210 0.36403 0.73520 -0.07000
H 	H 	0.37840 0.33020 0.69080 0.05000
C 	C 	0.41648 0.39340 0.60600 -0.04400
H 	H 	0.43540 0.37980 0.47190 0.04100
C 	C 	0.42290 0.44350 0.67640 -0.00500
H 	H 	0.44720 0.46270 0.59230 0.02700
C 	C 	0.39492 0.46498 0.86390 -0.10800
H 	H 	0.40030 0.49870 0.90580 0.06800
C 	C 	0.35760 0.43734 0.99800 0.06300
C 	C 	0.32785 0.45958 0.18420 -0.15200
H 	H 	0.33170 0.49350 0.22540 0.08100
C 	C 	0.29237 0.43032 0.30750 0.08500
C 	C 	0.24267 0.48756 0.60280 0.23300
C 	C 	0.21550 0.57888 0.81730 -0.22800
C 	C 	0.19440 0.49520 0.67100 -0.14200
H 	H 	0.17150 0.46870 0.65790 0.09000
C 	C 	0.17830 0.54100 0.75700 0.06900
H 	H 	0.14400 0.54760 0.77750 0.02700
C 	C 	0.26260 0.56980 0.75000 0.03100
H 	H 	0.28650 0.59540 0.76420 0.01900
C 	C 	0.27720 0.52270 0.65940 -0.12000
H 	H 	0.31130 0.51550 0.63780 0.07100
C 	C 	0.20160 0.62880 0.94030 0.49300
O 	O 	0.15380 0.63260 -0.00000 -0.21300
C 	C 	0.22600 0.48780 0.84800 -0.13900
H 	H 	0.22410 0.45800 0.94230 0.08300
C 	C 	0.21120 0.53490 0.95900 0.07700
H 	H 	0.19880 0.53600 0.12680 0.01500
C 	C 	0.23450 0.57760 0.58400 0.12500
H 	H 	0.23980 0.60780 0.49700 -0.00800
C 	C 	0.24710 0.53280 0.46500 -0.16700
H 	H 	0.25830 0.53270 0.29470 0.08700
Zn	Zn	0.21425 0.72740 0.07912 1.22100
O 	O 	0.25317 0.77837 0.90480 -0.75900
H 	H 	0.26410 0.79910 0.01660 0.26500
N 	N 	0.14162 0.74921 0.09600 -0.29200
C 	C 	0.10427 0.73247 0.96000 0.15100
H 	H 	0.10760 0.70650 0.84070 -0.02500
N 	N 	0.06010 0.75608 0.00690 -0.19200
C 	C 	0.12213 0.78764 0.24950 0.05500
O 	O 	0.83342 0.72226 0.63160 -0.54400
C 	C 	0.14400 0.81649 0.43410 -0.16100
H 	H 	0.17800 0.81250 0.47350 0.04700
O 	O 	0.87140 0.68000 0.33100 -0.23700
C 	C 	0.11521 0.85203 0.56350 0.07200
C 	C 	0.13597 0.88210 0.76480 -0.14600
H 	H 	0.16980 0.87840 0.80920 0.08100
C 	C 	0.10660 0.91648 0.89400 0.07100
H 	H 	0.12020 0.93540 0.02810 -0.01100
C 	C 	0.05650 0.92290 0.82360 -0.08900
H 	H 	0.03730 0.94720 0.90770 0.06300
C 	C 	0.03502 0.89492 0.63610 -0.04500
H 	H 	0.00130 0.90030 0.59420 0.04400
C 	C 	0.06266 0.85760 0.50200 0.01500
C 	C 	0.04042 0.82785 0.31580 -0.12200
H 	H 	0.00650 0.83170 0.27460 0.06900
C 	C 	0.06968 0.79237 0.19250 0.06600
C 	C 	0.01244 0.74267 0.89720 0.25000
C 	C 	0.92112 0.71550 0.68270 -0.22700
C 	C 	0.00480 0.69440 0.82900 -0.16200
H 	H 	0.03130 0.67150 0.84210 0.09700
C 	C 	0.95900 0.67830 0.74300 0.08500
H 	H 	0.95240 0.64400 0.72250 0.02000
C 	C 	0.93020 0.76260 0.75000 0.04300
H 	H 	0.90460 0.78650 0.73580 0.01400
C 	C 	0.97730 0.77720 0.84060 -0.13000
H 	H 	0.98450 0.81130 0.86220 0.07700
C 	C 	0.87120 0.70160 0.55970 0.47800
O 	O 	0.86740 0.65380 0.50000 -0.20400
C 	C 	0.01220 0.72600 0.65200 -0.13000
H 	H 	0.04200 0.72410 0.55770 0.08000
C 	C 	0.96510 0.71120 0.54100 0.06000
H 	H 	0.96400 0.69880 0.37320 0.02200
C 	C 	0.92240 0.73450 0.91600 0.11600
H 	H 	0.89220 0.73980 0.00300 -0.00200
C 	C 	0.96720 0.74710 0.03500 -0.17000
H 	H 	0.96730 0.75830 0.20530 0.08900
Zn	Zn	0.71425 0.22740 0.57912 1.22800
O 	O 	0.75317 0.27837 0.40480 -0.81000
H 	H 	0.76410 0.29910 0.51660 0.30200
N 	N 	0.64162 0.24921 0.59600 -0.27400
C 	C 	0.60427 0.23247 0.46000 0.11800
H 	H 	0.60760 0.20650 0.34070 -0.01900
N 	N 	0.56010 0.25608 0.50690 -0.17400
C 	C 	0.62213 0.28764 0.74950 0.04100
O 	O 	0.33342 0.22226 0.13160 -0.53900
C 	C 	0.64400 0.31649 0.93410 -0.09600
H 	H 	0.67800 0.31250 0.97350 0.03600
O 	O 	0.37140 0.18000 0.83100 -0.21600
C 	C 	0.61521 0.35203 0.06350 0.00500
C 	C 	0.63597 0.38210 0.26480 -0.06300
H 	H 	0.66980 0.37840 0.30920 0.04400
C 	C 	0.60660 0.41648 0.39400 -0.04600
H 	H 	0.62020 0.43540 0.52810 0.04200
C 	C 	0.55650 0.42290 0.32360 -0.01200
H 	H 	0.53730 0.44720 0.40770 0.02900
C 	C 	0.53502 0.39492 0.13610 -0.09700
H 	H 	0.50130 0.40030 0.09420 0.05900
C 	C 	0.56266 0.35760 0.00200 0.04000
C 	C 	0.54042 0.32785 0.81580 -0.12100
H 	H 	0.50650 0.33170 0.77460 0.07500
C 	C 	0.56968 0.29237 0.69250 0.08100
C 	C 	0.51244 0.24267 0.39720 0.20800
C 	C 	0.42112 0.21550 0.18270 -0.19700
C 	C 	0.50480 0.19440 0.32900 -0.07200
H 	H 	0.53130 0.17150 0.34210 0.06400
C 	C 	0.45900 0.17830 0.24300 0.01600
H 	H 	0.45240 0.14400 0.22250 0.04100
C 	C 	0.43020 0.26260 0.25000 -0.12600
H 	H 	0.40460 0.28650 0.23580 0.07000
C 	C 	0.47730 0.27720 0.34060 0.01500
H 	H 	0.48450 0.31130 0.36220 0.02300
C 	C 	0.37120 0.20160 0.05970 0.45600
O 	O 	0.36740 0.15380 -0.00000 -0.21500
C 	C 	0.51220 0.22600 0.15200 -0.17500
H 	H 	0.54200 0.22410 0.05770 0.08700
C 	C 	0.46510 0.21120 0.04100 0.06400
H 	H 	0.46400 0.19880 0.87320 0.03400
C 	C 	0.42240 0.23450 0.41600 0.25800
H 	H 	0.39220 0.23980 0.50300 -0.05300
C 	C 	0.46720 0.24710 0.53500 -0.27600
H 	H 	0.46730 0.25830 0.70530 0.13100
Zn	Zn	0.78575 0.27260 0.07912 1.22100
O 	O 	0.74683 0.22163 0.90480 -0.75900
H 	H 	0.73590 0.20090 0.01660 0.26500
N 	N 	0.85838 0.25079 0.09600 -0.29200
C 	C 	0.89573 0.26753 0.96000 0.15100
H 	H 	0.89240 0.29350 0.84070 -0.02500
N 	N 	0.93990 0.24392 0.00690 -0.19200
C 	C 	0.87787 0.21236 0.24950 0.05500
O 	O 	0.16658 0.27774 0.63160 -0.54400
C 	C 	0.85600 0.18351 0.43410 -0.16100
H 	H 	0.82200 0.18750 0.47350 0.04700
O 	O 	0.12860 0.32000 0.33100 -0.23700
C 	C 	0.88479 0.14797 0.56350 0.07200
C 	C 	0.86403 0.11790 0.76480 -0.14600
H 	H 	0.83020 0.12160 0.80920 0.08100
C 	C 	0.89340 0.08352 0.89400 0.07100
H 	H 	0.87980 0.06460 0.02810 -0.01100
C 	C 	0.94350 0.07710 0.82360 -0.08900
H 	H 	0.96270 0.05280 0.90770 0.06300
C 	C 	0.96498 0.10508 0.63610 -0.04500
H 	H 	0.99870 0.09970 0.59420 0.04400
C 	C 	0.93734 0.14240 0.50200 0.01500
C 	C 	0.95958 0.17215 0.31580 -0.12200
H 	H 	0.99350 0.16830 0.27460 0.06900
C 	C 	0.93032 0.20763 0.19250 0.06600
C 	C 	0.98756 0.25733 0.89720 0.25000
C 	C 	0.07888 0.28450 0.68270 -0.22700
C 	C 	0.99520 0.30560 0.82900 -0.16200
H 	H 	0.96870 0.32850 0.84210 0.09700
C 	C 	0.04100 0.32170 0.74300 0.08500
H 	H 	0.04760 0.35600 0.72250 0.02000
C 	C 	0.06980 0.23740 0.75000 0.04300
H 	H 	0.09540 0.21350 0.73580 0.01400
C 	C 	0.02270 0.22280 0.84060 -0.13000
H 	H 	0.01550 0.18870 0.86220 0.07700
C 	C 	0.12880 0.29840 0.55970 0.47800
O 	O 	0.13260 0.34620 0.50000 -0.20400
C 	C 	0.98780 0.27400 0.65200 -0.13000
H 	H 	0.95800 0.27590 0.55770 0.08000
C 	C 	0.03490 0.28880 0.54100 0.06000
H 	H 	0.03600 0.30120 0.37320 0.02200
C 	C 	0.07760 0.26550 0.91600 0.11600
H 	H 	0.10780 0.26020 0.00300 -0.00200
C 	C 	0.03280 0.25290 0.03500 -0.17000
H 	H 	0.03270 0.24170 0.20530 0.08900
Zn	Zn	0.28575 0.77260 0.57912 1.22800
O 	O 	0.24683 0.72163 0.40480 -0.81000
H 	H 	0.23590 0.70090 0.51660 0.30200
N 	N 	0.35838 0.75079 0.59600 -0.27400
C 	C 	0.39573 0.76753 0.46000 0.11800
H 	H 	0.39240 0.79350 0.34070 -0.01900
N 	N 	0.43990 0.74392 0.50690 -0.17400
C 	C 	0.37787 0.71236 0.74950 0.04100
O 	O 	0.66658 0.77774 0.13160 -0.53900
C 	C 	0.35600 0.68351 0.93410 -0.09600
H 	H 	0.32200 0.68750 0.97350 0.03600
O 	O 	0.62860 0.82000 0.83100 -0.21600
C 	C 	0.38479 0.64797 0.06350 0.00500
C 	C 	0.36403 0.61790 0.26480 -0.06300
H 	H 	0.33020 0.62160 0.30920 0.04400
C 	C 	0.39340 0.58352 0.39400 -0.04600
H 	H 	0.37980 0.56460 0.52810 0.04200
C 	C 	0.44350 0.57710 0.32360 -0.01200
H 	H 	0.46270 0.55280 0.40770 0.02900
C 	C 	0.46498 0.60508 0.13610 -0.09700
H 	H 	0.49870 0.59970 0.09420 0.05900
C 	C 	0.43734 0.64240 0.00200 0.04000
C 	C 	0.45958 0.67215 0.81580 -0.12100
H 	H 	0.49350 0.66830 0.77460 0.07500
C 	C 	0.43032 0.70763 0.69250 0.08100
C 	C 	0.48756 0.75733 0.39720 0.20800
C 	C 	0.57888 0.78450 0.18270 -0.19700
C 	C 	0.49520 0.80560 0.32900 -0.07200
H 	H 	0.46870 0.82850 0.34210 0.06400
C 	C 	0.54100 0.82170 0.24300 0.01600
H 	H 	0.54760 0.85600 0.22250 0.04100
C 	C 	0.56980 0.73740 0.25000 -0.12600
H 	H 	0.59540 0.71350 0.23580 0.07000
C 	C 	0.52270 0.72280 0.34060 0.01500
H 	H 	0.51550 0.68870 0.36220 0.02300
C 	C 	0.62880 0.79840 0.05970 0.45600
O 	O 	0.63260 0.84620 -0.00000 -0.21500
C 	C 	0.48780 0.77400 0.15200 -0.17500
H 	H 	0.45800 0.77590 0.05770 0.08700
C 	C 	0.53490 0.78880 0.04100 0.06400
H 	H 	0.53600 0.80120 0.87320 0.03400
C 	C 	0.57760 0.76550 0.41600 0.25800
H 	H 	0.60780 0.76020 0.50300 -0.05300
C 	C 	0.53280 0.75290 0.53500 -0.27600
H 	H 	0.53270 0.74170 0.70530 0.13100
