data_crystal

_cell_length_a 27.81140
_cell_length_b 27.81140
_cell_length_c 3.68990
_cell_angle_alpha 90.00000
_cell_angle_beta  90.00000
_cell_angle_gamma 90.00000

_symmetry_space_group_name_	'P 1'
_symmetry_space_group_name_H-M	'P 1'

loop_
_symmetry_equiv_pos_as_xyz
  x,y,z

loop_
_atom_site_label
_atom_site_type_symbol
_atom_site_fract_x
_atom_site_fract_y
_atom_site_fract_z
_atom_site_charge
Zn	Zn	0.28362 0.21399 0.86440 1.20100
N 	N 	0.25990 0.14500 0.80400 -0.27700
C 	C 	0.28010 0.10800 0.95800 0.10900
H 	H 	0.31000 0.10940 0.07170 0.00400
N 	N 	0.25330 0.06730 0.93800 -0.17000
C 	C 	0.21450 0.12920 0.66210 0.03300
O 	O 	0.27620 0.85870 0.60000 -0.53400
C 	C 	0.17830 0.15270 0.47600 -0.12200
H 	H 	0.18110 0.18520 0.42030 0.04700
O 	O 	0.34200 0.86600 0.28300 -0.25100
C 	C 	0.13790 0.12690 0.37400 0.04700
C 	C 	0.10120 0.14900 0.18400 -0.08800
H 	H 	0.10410 0.18140 0.12570 0.07200
C 	C 	0.06010 0.12440 0.07700 -0.02500
H 	H 	0.03550 0.13960 0.95030 0.03100
C 	C 	0.05770 0.07590 0.17000 -0.02600
H 	H 	0.03070 0.05820 0.10370 0.03200
C 	C 	0.09450 0.05340 0.35900 -0.09000
H 	H 	0.09180 0.02090 0.41400 0.05800
C 	C 	0.13550 0.07860 0.46670 0.05000
C 	C 	0.17140 0.05450 0.65200 -0.13900
H 	H 	0.16880 0.02190 0.70430 0.07700
C 	C 	0.21150 0.08070 0.75800 0.09100
C 	C 	0.24510 0.94460 0.30500 0.14600
H 	H 	0.22170 0.92330 0.38720 -0.00900
C 	C 	0.29320 0.93110 0.30600 -0.21000
C 	C 	0.32810 0.96300 0.18400 0.16700
H 	H 	0.36030 0.95390 0.18420 0.00600
C 	C 	0.31500 0.00840 0.06100 -0.24200
H 	H 	0.33830 0.02970 0.97930 0.13700
C 	C 	0.26680 0.02190 0.06050 0.21000
C 	C 	0.23190 0.99000 0.18300 -0.22800
H 	H 	0.19970 0.99910 0.18230 0.11100
C 	C 	0.30260 0.88080 0.44600 0.55800
O 	O 	0.28570 0.24660 0.38100 -0.74100
H 	H 	0.30850 0.23450 0.25820 0.15900
O 	O 	0.34410 0.87650 0.61200 -0.20800
Zn	Zn	0.71638 0.78601 0.86440 1.20200
N 	N 	0.74010 0.85500 0.80400 -0.27600
C 	C 	0.71990 0.89200 0.95800 0.11000
H 	H 	0.69000 0.89060 0.07170 0.00500
N 	N 	0.74670 0.93270 0.93800 -0.16900
C 	C 	0.78550 0.87080 0.66210 0.03400
O 	O 	0.72380 0.14130 0.60000 -0.53300
C 	C 	0.82170 0.84730 0.47600 -0.12100
H 	H 	0.81890 0.81480 0.42030 0.04700
O 	O 	0.65800 0.13400 0.28300 -0.25100
C 	C 	0.86210 0.87310 0.37400 0.04700
C 	C 	0.89880 0.85100 0.18400 -0.08800
H 	H 	0.89590 0.81860 0.12570 0.07200
C 	C 	0.93990 0.87560 0.07700 -0.02500
H 	H 	0.96450 0.86040 0.95030 0.03100
C 	C 	0.94230 0.92410 0.17000 -0.02600
H 	H 	0.96930 0.94180 0.10370 0.03200
C 	C 	0.90550 0.94660 0.35900 -0.09000
H 	H 	0.90820 0.97910 0.41400 0.05800
C 	C 	0.86450 0.92140 0.46670 0.05000
C 	C 	0.82860 0.94550 0.65200 -0.13900
H 	H 	0.83120 0.97810 0.70430 0.07700
C 	C 	0.78850 0.91930 0.75800 0.09100
C 	C 	0.75490 0.05540 0.30500 0.14600
H 	H 	0.77830 0.07670 0.38720 -0.00900
C 	C 	0.70680 0.06890 0.30600 -0.21000
C 	C 	0.67190 0.03700 0.18400 0.16700
H 	H 	0.63970 0.04610 0.18420 0.00600
C 	C 	0.68500 0.99160 0.06100 -0.24200
H 	H 	0.66170 0.97030 0.97930 0.13700
C 	C 	0.73320 0.97810 0.06050 0.21000
C 	C 	0.76810 0.01000 0.18300 -0.22800
H 	H 	0.80030 0.00090 0.18230 0.11100
C 	C 	0.69740 0.11920 0.44600 0.55800
O 	O 	0.71430 0.75340 0.38100 -0.74100
H 	H 	0.69150 0.76550 0.25820 0.15900
O 	O 	0.65590 0.12350 0.61200 -0.20800
Zn	Zn	0.71399 0.21638 0.63560 1.19900
N 	N 	0.64500 0.24010 0.69600 -0.27400
C 	C 	0.60800 0.21990 0.54200 0.09700
H 	H 	0.60940 0.19000 0.42830 0.01400
N 	N 	0.56730 0.24670 0.56200 -0.16800
C 	C 	0.62920 0.28550 0.83790 0.02400
O 	O 	0.35870 0.22380 0.90000 -0.51500
C 	C 	0.65270 0.32170 0.02400 -0.10900
H 	H 	0.68520 0.31890 0.07970 0.04600
O 	O 	0.36600 0.15800 0.21700 -0.25300
C 	C 	0.62690 0.36210 0.12600 0.04200
C 	C 	0.64900 0.39880 0.31600 -0.08400
H 	H 	0.68140 0.39590 0.37430 0.07200
C 	C 	0.62440 0.43990 0.42300 -0.02600
H 	H 	0.63960 0.46450 0.54970 0.03100
C 	C 	0.57590 0.44230 0.33000 -0.02400
H 	H 	0.55820 0.46930 0.39630 0.03200
C 	C 	0.55340 0.40550 0.14100 -0.09300
H 	H 	0.52090 0.40820 0.08600 0.05900
C 	C 	0.57860 0.36450 0.03330 0.05600
C 	C 	0.55450 0.32860 0.84800 -0.14500
H 	H 	0.52190 0.33120 0.79570 0.08000
C 	C 	0.58070 0.28850 0.74200 0.09600
C 	C 	0.44460 0.25490 0.19500 0.13800
H 	H 	0.42330 0.27830 0.11280 -0.00900
C 	C 	0.43110 0.20680 0.19400 -0.20000
C 	C 	0.46300 0.17190 0.31600 0.15600
H 	H 	0.45390 0.13970 0.31580 0.01000
C 	C 	0.50840 0.18500 0.43900 -0.23000
H 	H 	0.52970 0.16170 0.52070 0.13100
C 	C 	0.52190 0.23320 0.43950 0.20700
C 	C 	0.49000 0.26810 0.31700 -0.22300
H 	H 	0.49910 0.30030 0.31770 0.10900
C 	C 	0.38080 0.19740 0.05400 0.53100
O 	O 	0.74660 0.21430 0.11900 -0.73600
H 	H 	0.73450 0.19150 0.24180 0.16100
O 	O 	0.37650 0.15590 0.88800 -0.19400
Zn	Zn	0.28601 0.78362 0.63560 1.19900
N 	N 	0.35500 0.75990 0.69600 -0.27400
C 	C 	0.39200 0.78010 0.54200 0.09700
H 	H 	0.39060 0.81000 0.42830 0.01400
N 	N 	0.43270 0.75330 0.56200 -0.16800
C 	C 	0.37080 0.71450 0.83790 0.02400
O 	O 	0.64130 0.77620 0.90000 -0.51500
C 	C 	0.34730 0.67830 0.02400 -0.10900
H 	H 	0.31480 0.68110 0.07970 0.04600
O 	O 	0.63400 0.84200 0.21700 -0.25300
C 	C 	0.37310 0.63790 0.12600 0.04200
C 	C 	0.35100 0.60120 0.31600 -0.08400
H 	H 	0.31860 0.60410 0.37430 0.07200
C 	C 	0.37560 0.56010 0.42300 -0.02600
H 	H 	0.36040 0.53550 0.54970 0.03100
C 	C 	0.42410 0.55770 0.33000 -0.02400
H 	H 	0.44180 0.53070 0.39630 0.03200
C 	C 	0.44660 0.59450 0.14100 -0.09300
H 	H 	0.47910 0.59180 0.08600 0.05900
C 	C 	0.42140 0.63550 0.03330 0.05600
C 	C 	0.44550 0.67140 0.84800 -0.14500
H 	H 	0.47810 0.66880 0.79570 0.08000
C 	C 	0.41930 0.71150 0.74200 0.09600
C 	C 	0.55540 0.74510 0.19500 0.13800
H 	H 	0.57670 0.72170 0.11280 -0.00900
C 	C 	0.56890 0.79320 0.19400 -0.20000
C 	C 	0.53700 0.82810 0.31600 0.15600
H 	H 	0.54610 0.86030 0.31580 0.01000
C 	C 	0.49160 0.81500 0.43900 -0.23000
H 	H 	0.47030 0.83830 0.52070 0.13100
C 	C 	0.47810 0.76680 0.43950 0.20700
C 	C 	0.51000 0.73190 0.31700 -0.22300
H 	H 	0.50090 0.69970 0.31770 0.10900
C 	C 	0.61920 0.80260 0.05400 0.53100
O 	O 	0.25340 0.78570 0.11900 -0.73600
H 	H 	0.26550 0.80850 0.24180 0.16100
O 	O 	0.62350 0.84410 0.88800 -0.19400
Zn	Zn	0.78362 0.71399 0.36440 1.19900
N 	N 	0.75990 0.64500 0.30400 -0.27400
C 	C 	0.78010 0.60800 0.45800 0.09700
H 	H 	0.81000 0.60940 0.57170 0.01400
N 	N 	0.75330 0.56730 0.43800 -0.16800
C 	C 	0.71450 0.62920 0.16210 0.02400
O 	O 	0.77620 0.35870 0.10000 -0.51500
C 	C 	0.67830 0.65270 0.97600 -0.10900
H 	H 	0.68110 0.68520 0.92030 0.04600
O 	O 	0.84200 0.36600 0.78300 -0.25300
C 	C 	0.63790 0.62690 0.87400 0.04200
C 	C 	0.60120 0.64900 0.68400 -0.08400
H 	H 	0.60410 0.68140 0.62570 0.07200
C 	C 	0.56010 0.62440 0.57700 -0.02600
H 	H 	0.53550 0.63960 0.45030 0.03100
C 	C 	0.55770 0.57590 0.67000 -0.02400
H 	H 	0.53070 0.55820 0.60370 0.03200
C 	C 	0.59450 0.55340 0.85900 -0.09300
H 	H 	0.59180 0.52090 0.91400 0.05900
C 	C 	0.63550 0.57860 0.96670 0.05600
C 	C 	0.67140 0.55450 0.15200 -0.14500
H 	H 	0.66880 0.52190 0.20430 0.08000
C 	C 	0.71150 0.58070 0.25800 0.09600
C 	C 	0.74510 0.44460 0.80500 0.13800
H 	H 	0.72170 0.42330 0.88720 -0.00900
C 	C 	0.79320 0.43110 0.80600 -0.20000
C 	C 	0.82810 0.46300 0.68400 0.15600
H 	H 	0.86030 0.45390 0.68420 0.01000
C 	C 	0.81500 0.50840 0.56100 -0.23000
H 	H 	0.83830 0.52970 0.47930 0.13100
C 	C 	0.76680 0.52190 0.56050 0.20700
C 	C 	0.73190 0.49000 0.68300 -0.22300
H 	H 	0.69970 0.49910 0.68230 0.10900
C 	C 	0.80260 0.38080 0.94600 0.53100
O 	O 	0.78570 0.74660 0.88100 -0.73600
H 	H 	0.80850 0.73450 0.75820 0.16100
O 	O 	0.84410 0.37650 0.11200 -0.19400
Zn	Zn	0.21638 0.28601 0.36440 1.19900
N 	N 	0.24010 0.35500 0.30400 -0.27400
C 	C 	0.21990 0.39200 0.45800 0.09700
H 	H 	0.19000 0.39060 0.57170 0.01400
N 	N 	0.24670 0.43270 0.43800 -0.16800
C 	C 	0.28550 0.37080 0.16210 0.02400
O 	O 	0.22380 0.64130 0.10000 -0.51500
C 	C 	0.32170 0.34730 0.97600 -0.10900
H 	H 	0.31890 0.31480 0.92030 0.04600
O 	O 	0.15800 0.63400 0.78300 -0.25300
C 	C 	0.36210 0.37310 0.87400 0.04200
C 	C 	0.39880 0.35100 0.68400 -0.08400
H 	H 	0.39590 0.31860 0.62570 0.07200
C 	C 	0.43990 0.37560 0.57700 -0.02600
H 	H 	0.46450 0.36040 0.45030 0.03100
C 	C 	0.44230 0.42410 0.67000 -0.02400
H 	H 	0.46930 0.44180 0.60370 0.03200
C 	C 	0.40550 0.44660 0.85900 -0.09300
H 	H 	0.40820 0.47910 0.91400 0.05900
C 	C 	0.36450 0.42140 0.96670 0.05600
C 	C 	0.32860 0.44550 0.15200 -0.14500
H 	H 	0.33120 0.47810 0.20430 0.08000
C 	C 	0.28850 0.41930 0.25800 0.09600
C 	C 	0.25490 0.55540 0.80500 0.13800
H 	H 	0.27830 0.57670 0.88720 -0.00900
C 	C 	0.20680 0.56890 0.80600 -0.20000
C 	C 	0.17190 0.53700 0.68400 0.15600
H 	H 	0.13970 0.54610 0.68420 0.01000
C 	C 	0.18500 0.49160 0.56100 -0.23000
H 	H 	0.16170 0.47030 0.47930 0.13100
C 	C 	0.23320 0.47810 0.56050 0.20700
C 	C 	0.26810 0.51000 0.68300 -0.22300
H 	H 	0.30030 0.50090 0.68230 0.10900
C 	C 	0.19740 0.61920 0.94600 0.53100
O 	O 	0.21430 0.25340 0.88100 -0.73600
H 	H 	0.19150 0.26550 0.75820 0.16100
O 	O 	0.15590 0.62350 0.11200 -0.19400
Zn	Zn	0.21399 0.71638 0.13560 1.20200
N 	N 	0.14500 0.74010 0.19600 -0.27600
C 	C 	0.10800 0.71990 0.04200 0.11000
H 	H 	0.10940 0.69000 0.92830 0.00500
N 	N 	0.06730 0.74670 0.06200 -0.16900
C 	C 	0.12920 0.78550 0.33790 0.03400
O 	O 	0.85870 0.72380 0.40000 -0.53300
C 	C 	0.15270 0.82170 0.52400 -0.12100
H 	H 	0.18520 0.81890 0.57970 0.04700
O 	O 	0.86600 0.65800 0.71700 -0.25100
C 	C 	0.12690 0.86210 0.62600 0.04700
C 	C 	0.14900 0.89880 0.81600 -0.08800
H 	H 	0.18140 0.89590 0.87430 0.07200
C 	C 	0.12440 0.93990 0.92300 -0.02500
H 	H 	0.13960 0.96450 0.04970 0.03100
C 	C 	0.07590 0.94230 0.83000 -0.02600
H 	H 	0.05820 0.96930 0.89630 0.03200
C 	C 	0.05340 0.90550 0.64100 -0.09000
H 	H 	0.02090 0.90820 0.58600 0.05800
C 	C 	0.07860 0.86450 0.53330 0.05000
C 	C 	0.05450 0.82860 0.34800 -0.13900
H 	H 	0.02190 0.83120 0.29570 0.07700
C 	C 	0.08070 0.78850 0.24200 0.09100
C 	C 	0.94460 0.75490 0.69500 0.14600
H 	H 	0.92330 0.77830 0.61280 -0.00900
C 	C 	0.93110 0.70680 0.69400 -0.21000
C 	C 	0.96300 0.67190 0.81600 0.16700
H 	H 	0.95390 0.63970 0.81580 0.00600
C 	C 	0.00840 0.68500 0.93900 -0.24200
H 	H 	0.02970 0.66170 0.02070 0.13700
C 	C 	0.02190 0.73320 0.93950 0.21000
C 	C 	0.99000 0.76810 0.81700 -0.22800
H 	H 	0.99910 0.80030 0.81770 0.11100
C 	C 	0.88080 0.69740 0.55400 0.55800
O 	O 	0.24660 0.71430 0.61900 -0.74100
H 	H 	0.23450 0.69150 0.74180 0.15900
O 	O 	0.87650 0.65590 0.38800 -0.20800
Zn	Zn	0.78601 0.28362 0.13560 1.20200
N 	N 	0.85500 0.25990 0.19600 -0.27600
C 	C 	0.89200 0.28010 0.04200 0.11000
H 	H 	0.89060 0.31000 0.92830 0.00500
N 	N 	0.93270 0.25330 0.06200 -0.16900
C 	C 	0.87080 0.21450 0.33790 0.03400
O 	O 	0.14130 0.27620 0.40000 -0.53300
C 	C 	0.84730 0.17830 0.52400 -0.12100
H 	H 	0.81480 0.18110 0.57970 0.04700
O 	O 	0.13400 0.34200 0.71700 -0.25100
C 	C 	0.87310 0.13790 0.62600 0.04700
C 	C 	0.85100 0.10120 0.81600 -0.08800
H 	H 	0.81860 0.10410 0.87430 0.07200
C 	C 	0.87560 0.06010 0.92300 -0.02500
H 	H 	0.86040 0.03550 0.04970 0.03100
C 	C 	0.92410 0.05770 0.83000 -0.02600
H 	H 	0.94180 0.03070 0.89630 0.03200
C 	C 	0.94660 0.09450 0.64100 -0.09000
H 	H 	0.97910 0.09180 0.58600 0.05800
C 	C 	0.92140 0.13550 0.53330 0.05000
C 	C 	0.94550 0.17140 0.34800 -0.13900
H 	H 	0.97810 0.16880 0.29570 0.07700
C 	C 	0.91930 0.21150 0.24200 0.09100
C 	C 	0.05540 0.24510 0.69500 0.14600
H 	H 	0.07670 0.22170 0.61280 -0.00900
C 	C 	0.06890 0.29320 0.69400 -0.21000
C 	C 	0.03700 0.32810 0.81600 0.16700
H 	H 	0.04610 0.36030 0.81580 0.00600
C 	C 	0.99160 0.31500 0.93900 -0.24200
H 	H 	0.97030 0.33830 0.02070 0.13700
C 	C 	0.97810 0.26680 0.93950 0.21000
C 	C 	0.01000 0.23190 0.81700 -0.22800
H 	H 	0.00090 0.19970 0.81770 0.11100
C 	C 	0.11920 0.30260 0.55400 0.55800
O 	O 	0.75340 0.28570 0.61900 -0.74100
H 	H 	0.76550 0.30850 0.74180 0.15900
O 	O 	0.12350 0.34410 0.38800 -0.20800
