data_crystal

_cell_length_a 26.52200
_cell_length_b 26.52200
_cell_length_c 4.93440
_cell_angle_alpha 90.00000
_cell_angle_beta  90.00000
_cell_angle_gamma 90.00000

_symmetry_space_group_name_	'P 1'
_symmetry_space_group_name_H-M	'P 1'

loop_
_symmetry_equiv_pos_as_xyz
  x,y,z

loop_
_atom_site_label
_atom_site_type_symbol
_atom_site_fract_x
_atom_site_fract_y
_atom_site_fract_z
_atom_site_charge
Zn	Zn	0.27369 0.21377 0.89560 1.22500
O 	O 	0.21820 0.25020 0.06000 -0.77900
H 	H 	0.19710 0.26140 0.94550 0.29000
N 	N 	0.25210 0.14400 0.88000 -0.28900
C 	C 	0.26790 0.10660 0.03000 0.10500
H 	H 	0.29400 0.10980 0.15410 -0.01800
N 	N 	0.24290 0.06260 0.98700 -0.16000
C 	C 	0.21300 0.12250 0.72900 0.04900
O 	O 	0.27430 0.83640 0.39900 -0.53900
C 	C 	0.18230 0.14460 0.53600 -0.14300
H 	H 	0.18620 0.17840 0.49080 0.04500
O 	O 	0.31140 0.86310 0.70800 -0.25900
C 	C 	0.14590 0.11550 0.41000 0.05300
C 	C 	0.11530 0.13760 0.21700 -0.10400
H 	H 	0.12000 0.17150 0.17670 0.06400
C 	C 	0.07790 0.11130 0.08200 -0.00500
H 	H 	0.05770 0.12700 0.95330 0.02400
C 	C 	0.07170 0.06090 0.14600 -0.03900
H 	H 	0.04710 0.04190 0.05850 0.03800
C 	C 	0.10220 0.03880 0.33900 -0.08000
H 	H 	0.09740 0.00500 0.38040 0.05700
C 	C 	0.13960 0.06510 0.47400 0.03800
C 	C 	0.17010 0.04270 0.66700 -0.12500
H 	H 	0.16630 0.00880 0.71130 0.07400
C 	C 	0.20650 0.07200 0.79100 0.07000
C 	C 	0.25710 0.01410 0.10200 0.16100
C 	C 	0.28490 0.92580 0.33400 -0.18000
C 	C 	0.27990 0.01390 0.35400 -0.40700
H 	H 	0.28570 0.04430 0.44250 0.17800
C 	C 	0.29430 0.96950 0.47500 0.31600
H 	H 	0.30980 0.96900 0.64440 -0.06400
C 	C 	0.26250 0.92400 0.08400 0.26300
H 	H 	0.25690 0.89350 0.99580 -0.03900
C 	C 	0.24860 0.96920 0.97100 -0.33800
H 	H 	0.23320 0.96950 0.80140 0.14800
C 	C 	0.29180 0.87550 0.47400 0.47900
O 	O 	0.33920 0.87820 0.55000 -0.19200
C 	C 	0.30710 0.00540 0.15700 0.18500
H 	H 	0.33080 0.03000 0.11350 -0.02900
C 	C 	0.32290 0.96050 0.27600 -0.21900
H 	H 	0.35660 0.95410 0.31420 0.12300
C 	C 	0.23330 0.93060 0.28700 -0.21700
H 	H 	0.20950 0.90610 0.32980 0.10200
C 	C 	0.22200 0.97690 0.16800 0.14900
H 	H 	0.18830 0.98360 0.12980 -0.02400
Zn	Zn	0.77369 0.71377 0.39560 1.22900
O 	O 	0.71820 0.75020 0.56000 -0.80300
H 	H 	0.69710 0.76140 0.44550 0.31000
N 	N 	0.75210 0.64400 0.38000 -0.28200
C 	C 	0.76790 0.60660 0.53000 0.11000
H 	H 	0.79400 0.60980 0.65410 -0.02000
N 	N 	0.74290 0.56260 0.48700 -0.16600
C 	C 	0.71300 0.62250 0.22900 0.03100
O 	O 	0.77430 0.33640 0.89900 -0.53200
C 	C 	0.68230 0.64460 0.03600 -0.07800
H 	H 	0.68620 0.67840 0.99080 0.01800
O 	O 	0.81140 0.36310 0.20800 -0.26700
C 	C 	0.64590 0.61550 0.91000 0.00200
C 	C 	0.61530 0.63760 0.71700 -0.05500
H 	H 	0.62000 0.67150 0.67670 0.04600
C 	C 	0.57790 0.61130 0.58200 -0.05400
H 	H 	0.55770 0.62700 0.45330 0.04200
C 	C 	0.57170 0.56090 0.64600 -0.00200
H 	H 	0.54710 0.54190 0.55850 0.02500
C 	C 	0.60220 0.53880 0.83900 -0.11300
H 	H 	0.59740 0.50500 0.88040 0.06700
C 	C 	0.63960 0.56510 0.97400 0.06400
C 	C 	0.67010 0.54270 0.16700 -0.14100
H 	H 	0.66630 0.50880 0.21130 0.07900
C 	C 	0.70650 0.57200 0.29100 0.08700
C 	C 	0.75710 0.51410 0.60200 0.17300
C 	C 	0.78490 0.42580 0.83400 -0.17200
C 	C 	0.77990 0.51390 0.85400 0.03600
H 	H 	0.78570 0.54430 0.94250 0.01900
C 	C 	0.79430 0.46950 0.97500 -0.10900
H 	H 	0.80980 0.46900 0.14440 0.08700
C 	C 	0.76250 0.42400 0.58400 0.03800
H 	H 	0.75690 0.39350 0.49580 0.02700
C 	C 	0.74860 0.46920 0.47100 -0.08200
H 	H 	0.73320 0.46950 0.30140 0.06100
C 	C 	0.79180 0.37550 0.97400 0.47400
O 	O 	0.83920 0.37820 0.05000 -0.18600
C 	C 	0.80710 0.50540 0.65700 -0.25100
H 	H 	0.83080 0.53000 0.61350 0.12400
C 	C 	0.82290 0.46050 0.77600 0.18900
H 	H 	0.85660 0.45410 0.81420 -0.02200
C 	C 	0.73330 0.43060 0.78700 0.04300
H 	H 	0.70950 0.40610 0.82980 0.01300
C 	C 	0.72200 0.47690 0.66800 -0.13000
H 	H 	0.68830 0.48360 0.62980 0.07200
Zn	Zn	0.72631 0.78623 0.89560 1.22600
O 	O 	0.78180 0.74980 0.06000 -0.77800
H 	H 	0.80290 0.73860 0.94550 0.29100
N 	N 	0.74790 0.85600 0.88000 -0.28800
C 	C 	0.73210 0.89340 0.03000 0.10600
H 	H 	0.70600 0.89020 0.15410 -0.01700
N 	N 	0.75710 0.93740 0.98700 -0.15900
C 	C 	0.78700 0.87750 0.72900 0.05000
O 	O 	0.72570 0.16360 0.39900 -0.53800
C 	C 	0.81770 0.85540 0.53600 -0.14200
H 	H 	0.81380 0.82160 0.49080 0.04600
O 	O 	0.68860 0.13690 0.70800 -0.25800
C 	C 	0.85410 0.88450 0.41000 0.05400
C 	C 	0.88470 0.86240 0.21700 -0.10300
H 	H 	0.88000 0.82850 0.17670 0.06500
C 	C 	0.92210 0.88870 0.08200 -0.00400
H 	H 	0.94230 0.87300 0.95330 0.02400
C 	C 	0.92830 0.93910 0.14600 -0.03900
H 	H 	0.95290 0.95810 0.05850 0.03800
C 	C 	0.89780 0.96120 0.33900 -0.08000
H 	H 	0.90260 0.99500 0.38040 0.05700
C 	C 	0.86040 0.93490 0.47400 0.03800
C 	C 	0.82990 0.95730 0.66700 -0.12500
H 	H 	0.83370 0.99120 0.71130 0.07400
C 	C 	0.79350 0.92800 0.79100 0.07000
C 	C 	0.74290 0.98590 0.10200 0.16100
C 	C 	0.71510 0.07420 0.33400 -0.18000
C 	C 	0.72010 0.98610 0.35400 -0.40700
H 	H 	0.71430 0.95570 0.44250 0.17800
C 	C 	0.70570 0.03050 0.47500 0.31600
H 	H 	0.69020 0.03100 0.64440 -0.06400
C 	C 	0.73750 0.07600 0.08400 0.26300
H 	H 	0.74310 0.10650 0.99580 -0.03900
C 	C 	0.75140 0.03080 0.97100 -0.33800
H 	H 	0.76680 0.03050 0.80140 0.14800
C 	C 	0.70820 0.12450 0.47400 0.47900
O 	O 	0.66080 0.12180 0.55000 -0.19200
C 	C 	0.69290 0.99460 0.15700 0.18500
H 	H 	0.66920 0.97000 0.11350 -0.02900
C 	C 	0.67710 0.03950 0.27600 -0.21900
H 	H 	0.64340 0.04590 0.31420 0.12300
C 	C 	0.76670 0.06940 0.28700 -0.21700
H 	H 	0.79050 0.09390 0.32980 0.10200
C 	C 	0.77800 0.02310 0.16800 0.14900
H 	H 	0.81170 0.01640 0.12980 -0.02400
Zn	Zn	0.22631 0.28623 0.39560 1.22900
O 	O 	0.28180 0.24980 0.56000 -0.80300
H 	H 	0.30290 0.23860 0.44550 0.31000
N 	N 	0.24790 0.35600 0.38000 -0.28200
C 	C 	0.23210 0.39340 0.53000 0.11000
H 	H 	0.20600 0.39020 0.65410 -0.02000
N 	N 	0.25710 0.43740 0.48700 -0.16600
C 	C 	0.28700 0.37750 0.22900 0.03100
O 	O 	0.22570 0.66360 0.89900 -0.53200
C 	C 	0.31770 0.35540 0.03600 -0.07800
H 	H 	0.31380 0.32160 0.99080 0.01800
O 	O 	0.18860 0.63690 0.20800 -0.26700
C 	C 	0.35410 0.38450 0.91000 0.00200
C 	C 	0.38470 0.36240 0.71700 -0.05500
H 	H 	0.38000 0.32850 0.67670 0.04600
C 	C 	0.42210 0.38870 0.58200 -0.05400
H 	H 	0.44230 0.37300 0.45330 0.04200
C 	C 	0.42830 0.43910 0.64600 -0.00200
H 	H 	0.45290 0.45810 0.55850 0.02500
C 	C 	0.39780 0.46120 0.83900 -0.11300
H 	H 	0.40260 0.49500 0.88040 0.06700
C 	C 	0.36040 0.43490 0.97400 0.06400
C 	C 	0.32990 0.45730 0.16700 -0.14100
H 	H 	0.33370 0.49120 0.21130 0.07900
C 	C 	0.29350 0.42800 0.29100 0.08700
C 	C 	0.24290 0.48590 0.60200 0.17300
C 	C 	0.21510 0.57420 0.83400 -0.17200
C 	C 	0.22010 0.48610 0.85400 0.03600
H 	H 	0.21430 0.45570 0.94250 0.01900
C 	C 	0.20570 0.53050 0.97500 -0.10900
H 	H 	0.19020 0.53100 0.14440 0.08700
C 	C 	0.23750 0.57600 0.58400 0.03800
H 	H 	0.24310 0.60650 0.49580 0.02700
C 	C 	0.25140 0.53080 0.47100 -0.08200
H 	H 	0.26680 0.53050 0.30140 0.06100
C 	C 	0.20820 0.62450 0.97400 0.47400
O 	O 	0.16080 0.62180 0.05000 -0.18600
C 	C 	0.19290 0.49460 0.65700 -0.25100
H 	H 	0.16920 0.47000 0.61350 0.12400
C 	C 	0.17710 0.53950 0.77600 0.18900
H 	H 	0.14340 0.54590 0.81420 -0.02200
C 	C 	0.26670 0.56940 0.78700 0.04300
H 	H 	0.29050 0.59390 0.82980 0.01300
C 	C 	0.27800 0.52310 0.66800 -0.13000
H 	H 	0.31170 0.51640 0.62980 0.07200
Zn	Zn	0.21377 0.72631 0.10440 1.22600
O 	O 	0.25020 0.78180 0.94000 -0.77800
H 	H 	0.26140 0.80290 0.05450 0.29100
N 	N 	0.14400 0.74790 0.12000 -0.28800
C 	C 	0.10660 0.73210 0.97000 0.10600
H 	H 	0.10980 0.70600 0.84590 -0.01700
N 	N 	0.06260 0.75710 0.01300 -0.15900
C 	C 	0.12250 0.78700 0.27100 0.05000
O 	O 	0.83640 0.72570 0.60100 -0.53800
C 	C 	0.14460 0.81770 0.46400 -0.14200
H 	H 	0.17840 0.81380 0.50920 0.04600
O 	O 	0.86310 0.68860 0.29200 -0.25800
C 	C 	0.11550 0.85410 0.59000 0.05400
C 	C 	0.13760 0.88470 0.78300 -0.10300
H 	H 	0.17150 0.88000 0.82330 0.06500
C 	C 	0.11130 0.92210 0.91800 -0.00400
H 	H 	0.12700 0.94230 0.04670 0.02400
C 	C 	0.06090 0.92830 0.85400 -0.03900
H 	H 	0.04190 0.95290 0.94150 0.03800
C 	C 	0.03880 0.89780 0.66100 -0.08000
H 	H 	0.00500 0.90260 0.61960 0.05700
C 	C 	0.06510 0.86040 0.52600 0.03800
C 	C 	0.04270 0.82990 0.33300 -0.12500
H 	H 	0.00880 0.83370 0.28870 0.07400
C 	C 	0.07200 0.79350 0.20900 0.07000
C 	C 	0.01410 0.74290 0.89800 0.16100
C 	C 	0.92580 0.71510 0.66600 -0.18000
C 	C 	0.01390 0.72010 0.64600 -0.40700
H 	H 	0.04430 0.71430 0.55750 0.17800
C 	C 	0.96950 0.70570 0.52500 0.31600
H 	H 	0.96900 0.69020 0.35560 -0.06400
C 	C 	0.92400 0.73750 0.91600 0.26300
H 	H 	0.89350 0.74310 0.00420 -0.03900
C 	C 	0.96920 0.75140 0.02900 -0.33800
H 	H 	0.96950 0.76680 0.19860 0.14800
C 	C 	0.87550 0.70820 0.52600 0.47900
O 	O 	0.87820 0.66080 0.45000 -0.19200
C 	C 	0.00540 0.69290 0.84300 0.18500
H 	H 	0.03000 0.66920 0.88650 -0.02900
C 	C 	0.96050 0.67710 0.72400 -0.21900
H 	H 	0.95410 0.64340 0.68580 0.12300
C 	C 	0.93060 0.76670 0.71300 -0.21700
H 	H 	0.90610 0.79050 0.67020 0.10200
C 	C 	0.97690 0.77800 0.83200 0.14900
H 	H 	0.98360 0.81170 0.87020 -0.02400
Zn	Zn	0.71377 0.22631 0.60440 1.22900
O 	O 	0.75020 0.28180 0.44000 -0.80300
H 	H 	0.76140 0.30290 0.55450 0.31000
N 	N 	0.64400 0.24790 0.62000 -0.28200
C 	C 	0.60660 0.23210 0.47000 0.11000
H 	H 	0.60980 0.20600 0.34590 -0.02000
N 	N 	0.56260 0.25710 0.51300 -0.16600
C 	C 	0.62250 0.28700 0.77100 0.03100
O 	O 	0.33640 0.22570 0.10100 -0.53200
C 	C 	0.64460 0.31770 0.96400 -0.07800
H 	H 	0.67840 0.31380 0.00920 0.01800
O 	O 	0.36310 0.18860 0.79200 -0.26700
C 	C 	0.61550 0.35410 0.09000 0.00200
C 	C 	0.63760 0.38470 0.28300 -0.05500
H 	H 	0.67150 0.38000 0.32330 0.04600
C 	C 	0.61130 0.42210 0.41800 -0.05400
H 	H 	0.62700 0.44230 0.54670 0.04200
C 	C 	0.56090 0.42830 0.35400 -0.00200
H 	H 	0.54190 0.45290 0.44150 0.02500
C 	C 	0.53880 0.39780 0.16100 -0.11300
H 	H 	0.50500 0.40260 0.11960 0.06700
C 	C 	0.56510 0.36040 0.02600 0.06400
C 	C 	0.54270 0.32990 0.83300 -0.14100
H 	H 	0.50880 0.33370 0.78870 0.07900
C 	C 	0.57200 0.29350 0.70900 0.08700
C 	C 	0.51410 0.24290 0.39800 0.17300
C 	C 	0.42580 0.21510 0.16600 -0.17200
C 	C 	0.51390 0.22010 0.14600 0.03600
H 	H 	0.54430 0.21430 0.05750 0.01900
C 	C 	0.46950 0.20570 0.02500 -0.10900
H 	H 	0.46900 0.19020 0.85560 0.08700
C 	C 	0.42400 0.23750 0.41600 0.03800
H 	H 	0.39350 0.24310 0.50420 0.02700
C 	C 	0.46920 0.25140 0.52900 -0.08200
H 	H 	0.46950 0.26680 0.69860 0.06100
C 	C 	0.37550 0.20820 0.02600 0.47400
O 	O 	0.37820 0.16080 0.95000 -0.18600
C 	C 	0.50540 0.19290 0.34300 -0.25100
H 	H 	0.53000 0.16920 0.38650 0.12400
C 	C 	0.46050 0.17710 0.22400 0.18900
H 	H 	0.45410 0.14340 0.18580 -0.02200
C 	C 	0.43060 0.26670 0.21300 0.04300
H 	H 	0.40610 0.29050 0.17020 0.01300
C 	C 	0.47690 0.27800 0.33200 -0.13000
H 	H 	0.48360 0.31170 0.37020 0.07200
Zn	Zn	0.78623 0.27369 0.10440 1.22600
O 	O 	0.74980 0.21820 0.94000 -0.77800
H 	H 	0.73860 0.19710 0.05450 0.29100
N 	N 	0.85600 0.25210 0.12000 -0.28800
C 	C 	0.89340 0.26790 0.97000 0.10600
H 	H 	0.89020 0.29400 0.84590 -0.01700
N 	N 	0.93740 0.24290 0.01300 -0.15900
C 	C 	0.87750 0.21300 0.27100 0.05000
O 	O 	0.16360 0.27430 0.60100 -0.53800
C 	C 	0.85540 0.18230 0.46400 -0.14200
H 	H 	0.82160 0.18620 0.50920 0.04600
O 	O 	0.13690 0.31140 0.29200 -0.25800
C 	C 	0.88450 0.14590 0.59000 0.05400
C 	C 	0.86240 0.11530 0.78300 -0.10300
H 	H 	0.82850 0.12000 0.82330 0.06500
C 	C 	0.88870 0.07790 0.91800 -0.00400
H 	H 	0.87300 0.05770 0.04670 0.02400
C 	C 	0.93910 0.07170 0.85400 -0.03900
H 	H 	0.95810 0.04710 0.94150 0.03800
C 	C 	0.96120 0.10220 0.66100 -0.08000
H 	H 	0.99500 0.09740 0.61960 0.05700
C 	C 	0.93490 0.13960 0.52600 0.03800
C 	C 	0.95730 0.17010 0.33300 -0.12500
H 	H 	0.99120 0.16630 0.28870 0.07400
C 	C 	0.92800 0.20650 0.20900 0.07000
C 	C 	0.98590 0.25710 0.89800 0.16100
C 	C 	0.07420 0.28490 0.66600 -0.18000
C 	C 	0.98610 0.27990 0.64600 -0.40700
H 	H 	0.95570 0.28570 0.55750 0.17800
C 	C 	0.03050 0.29430 0.52500 0.31600
H 	H 	0.03100 0.30980 0.35560 -0.06400
C 	C 	0.07600 0.26250 0.91600 0.26300
H 	H 	0.10650 0.25690 0.00420 -0.03900
C 	C 	0.03080 0.24860 0.02900 -0.33800
H 	H 	0.03050 0.23320 0.19860 0.14800
C 	C 	0.12450 0.29180 0.52600 0.47900
O 	O 	0.12180 0.33920 0.45000 -0.19200
C 	C 	0.99460 0.30710 0.84300 0.18500
H 	H 	0.97000 0.33080 0.88650 -0.02900
C 	C 	0.03950 0.32290 0.72400 -0.21900
H 	H 	0.04590 0.35660 0.68580 0.12300
C 	C 	0.06940 0.23330 0.71300 -0.21700
H 	H 	0.09390 0.20950 0.67020 0.10200
C 	C 	0.02310 0.22200 0.83200 0.14900
H 	H 	0.01640 0.18830 0.87020 -0.02400
Zn	Zn	0.28623 0.77369 0.60440 1.22900
O 	O 	0.24980 0.71820 0.44000 -0.80300
H 	H 	0.23860 0.69710 0.55450 0.31000
N 	N 	0.35600 0.75210 0.62000 -0.28200
C 	C 	0.39340 0.76790 0.47000 0.11000
H 	H 	0.39020 0.79400 0.34590 -0.02000
N 	N 	0.43740 0.74290 0.51300 -0.16600
C 	C 	0.37750 0.71300 0.77100 0.03100
O 	O 	0.66360 0.77430 0.10100 -0.53200
C 	C 	0.35540 0.68230 0.96400 -0.07800
H 	H 	0.32160 0.68620 0.00920 0.01800
O 	O 	0.63690 0.81140 0.79200 -0.26700
C 	C 	0.38450 0.64590 0.09000 0.00200
C 	C 	0.36240 0.61530 0.28300 -0.05500
H 	H 	0.32850 0.62000 0.32330 0.04600
C 	C 	0.38870 0.57790 0.41800 -0.05400
H 	H 	0.37300 0.55770 0.54670 0.04200
C 	C 	0.43910 0.57170 0.35400 -0.00200
H 	H 	0.45810 0.54710 0.44150 0.02500
C 	C 	0.46120 0.60220 0.16100 -0.11300
H 	H 	0.49500 0.59740 0.11960 0.06700
C 	C 	0.43490 0.63960 0.02600 0.06400
C 	C 	0.45730 0.67010 0.83300 -0.14100
H 	H 	0.49120 0.66630 0.78870 0.07900
C 	C 	0.42800 0.70650 0.70900 0.08700
C 	C 	0.48590 0.75710 0.39800 0.17300
C 	C 	0.57420 0.78490 0.16600 -0.17200
C 	C 	0.48610 0.77990 0.14600 0.03600
H 	H 	0.45570 0.78570 0.05750 0.01900
C 	C 	0.53050 0.79430 0.02500 -0.10900
H 	H 	0.53100 0.80980 0.85560 0.08700
C 	C 	0.57600 0.76250 0.41600 0.03800
H 	H 	0.60650 0.75690 0.50420 0.02700
C 	C 	0.53080 0.74860 0.52900 -0.08200
H 	H 	0.53050 0.73320 0.69860 0.06100
C 	C 	0.62450 0.79180 0.02600 0.47400
O 	O 	0.62180 0.83920 0.95000 -0.18600
C 	C 	0.49460 0.80710 0.34300 -0.25100
H 	H 	0.47000 0.83080 0.38650 0.12400
C 	C 	0.53950 0.82290 0.22400 0.18900
H 	H 	0.54590 0.85660 0.18580 -0.02200
C 	C 	0.56940 0.73330 0.21300 0.04300
H 	H 	0.59390 0.70950 0.17020 0.01300
C 	C 	0.52310 0.72200 0.33200 -0.13000
H 	H 	0.51640 0.68830 0.37020 0.07200
