data_crystal

_cell_length_a 26.63300
_cell_length_b 26.63300
_cell_length_c 5.13050
_cell_angle_alpha 90.00000
_cell_angle_beta  90.00000
_cell_angle_gamma 90.00000

_symmetry_space_group_name_	'P 1'
_symmetry_space_group_name_H-M	'P 1'

loop_
_symmetry_equiv_pos_as_xyz
  x,y,z

loop_
_atom_site_label
_atom_site_type_symbol
_atom_site_fract_x
_atom_site_fract_y
_atom_site_fract_z
_atom_site_charge
Zn	Zn	0.27287 0.21413 0.91490 1.22600
O 	O 	0.22110 0.25330 0.08800 -0.78400
H 	H 	0.20040 0.26430 0.97560 0.28900
N 	N 	0.25410 0.14250 0.90100 -0.28300
C 	C 	0.26800 0.10410 0.04200 0.13100
H 	H 	0.29330 0.10660 0.16610 -0.01300
N 	N 	0.24330 0.06040 0.99690 -0.17300
C 	C 	0.21400 0.12180 0.73870 0.02400
O 	O 	0.27630 0.83280 0.37000 -0.51700
C 	C 	0.18440 0.14350 0.54850 -0.11700
H 	H 	0.18820 0.17720 0.50540 0.03800
O 	O 	0.32090 0.86940 0.66500 -0.24300
C 	C 	0.14890 0.11420 0.42340 0.03500
C 	C 	0.11950 0.13650 0.23380 -0.08200
H 	H 	0.12430 0.17030 0.19500 0.05500
C 	C 	0.08280 0.10940 0.09900 -0.02500
H 	H 	0.06300 0.12430 0.97130 0.03100
C 	C 	0.07740 0.05880 0.16590 -0.02400
H 	H 	0.05330 0.03960 0.08030 0.03300
C 	C 	0.10700 0.03650 0.35700 -0.09300
H 	H 	0.10230 0.00270 0.39720 0.06100
C 	C 	0.14350 0.06370 0.48990 0.05100
C 	C 	0.17290 0.04110 0.68150 -0.13800
H 	H 	0.16900 0.00740 0.72550 0.07700
C 	C 	0.20850 0.07130 0.80350 0.08300
C 	C 	0.25810 0.01260 0.10300 0.17700
C 	C 	0.28680 0.92300 0.32100 -0.15500
C 	C 	0.27860 0.01100 0.35100 -0.19600
H 	H 	0.28250 0.04090 0.44310 0.10400
C 	C 	0.29320 0.96670 0.46400 0.11500
H 	H 	0.30690 0.96600 0.63120 0.00400
C 	C 	0.26670 0.92250 0.07400 0.13100
H 	H 	0.26290 0.89270 0.98260 -0.00300
C 	C 	0.25250 0.96790 0.96800 -0.20000
H 	H 	0.23870 0.96850 0.80140 0.10000
C 	C 	0.29910 0.87190 0.43600 0.43000
O 	O 	0.34830 0.86990 0.46700 -0.20600
C 	C 	0.30810 0.00440 0.16400 -0.02500
H 	H 	0.33160 0.02950 0.12970 0.05100
C 	C 	0.32400 0.95910 0.27500 -0.03200
H 	H 	0.35750 0.95330 0.31570 0.06200
C 	C 	0.23560 0.92770 0.26600 -0.07000
H 	H 	0.21200 0.90270 0.29750 0.05200
C 	C 	0.22400 0.97440 0.15600 -0.00600
H 	H 	0.19050 0.98040 0.11550 0.03000
Zn	Zn	0.77287 0.71413 0.41490 1.22900
O 	O 	0.72110 0.75330 0.58800 -0.80700
H 	H 	0.70040 0.76430 0.47560 0.29700
N 	N 	0.75410 0.64250 0.40100 -0.27300
C 	C 	0.76800 0.60410 0.54200 0.11400
H 	H 	0.79330 0.60660 0.66610 -0.00900
N 	N 	0.74330 0.56040 0.49690 -0.16000
C 	C 	0.71400 0.62180 0.23870 0.02300
O 	O 	0.77630 0.33280 0.87000 -0.50900
C 	C 	0.68440 0.64350 0.04850 -0.09400
H 	H 	0.68820 0.67720 0.00540 0.03700
O 	O 	0.82090 0.36940 0.16500 -0.26500
C 	C 	0.64890 0.61420 0.92340 0.01500
C 	C 	0.61950 0.63650 0.73380 -0.06100
H 	H 	0.62430 0.67030 0.69500 0.04500
C 	C 	0.58280 0.60940 0.59900 -0.04200
H 	H 	0.56300 0.62430 0.47130 0.03000
C 	C 	0.57740 0.55880 0.66590 -0.01400
H 	H 	0.55330 0.53960 0.58030 0.02800
C 	C 	0.60700 0.53650 0.85700 -0.10900
H 	H 	0.60230 0.50270 0.89720 0.06400
C 	C 	0.64350 0.56370 0.98990 0.05900
C 	C 	0.67290 0.54110 0.18150 -0.14000
H 	H 	0.66900 0.50740 0.22550 0.07800
C 	C 	0.70850 0.57130 0.30350 0.09200
C 	C 	0.75810 0.51260 0.60300 0.12200
C 	C 	0.78680 0.42300 0.82100 -0.08300
C 	C 	0.77860 0.51100 0.85100 0.96600
H 	H 	0.78250 0.54090 0.94310 -0.29700
C 	C 	0.79320 0.46670 0.96400 -0.92300
H 	H 	0.80690 0.46600 0.13120 0.36000
C 	C 	0.76670 0.42250 0.57400 -0.91000
H 	H 	0.76290 0.39270 0.48260 0.35200
C 	C 	0.75250 0.46790 0.46800 0.93100
H 	H 	0.73870 0.46850 0.30140 -0.29600
C 	C 	0.79910 0.37190 0.93600 0.40400
O 	O 	0.84830 0.36990 0.96700 -0.18400
C 	C 	0.80810 0.50440 0.66400 -1.10300
H 	H 	0.83160 0.52950 0.62970 0.42200
C 	C 	0.82400 0.45910 0.77500 0.94300
H 	H 	0.85750 0.45330 0.81570 -0.28100
C 	C 	0.73560 0.42770 0.76600 0.91900
H 	H 	0.71200 0.40270 0.79750 -0.29700
C 	C 	0.72400 0.47440 0.65600 -1.06500
H 	H 	0.69050 0.48040 0.61550 0.39600
Zn	Zn	0.72713 0.78587 0.91490 1.22500
O 	O 	0.77890 0.74670 0.08800 -0.78500
H 	H 	0.79960 0.73570 0.97560 0.28800
N 	N 	0.74590 0.85750 0.90100 -0.28400
C 	C 	0.73200 0.89590 0.04200 0.13000
H 	H 	0.70670 0.89340 0.16610 -0.01400
N 	N 	0.75670 0.93960 0.99690 -0.17400
C 	C 	0.78600 0.87820 0.73870 0.02300
O 	O 	0.72370 0.16720 0.37000 -0.51800
C 	C 	0.81560 0.85650 0.54850 -0.11800
H 	H 	0.81180 0.82280 0.50540 0.03700
O 	O 	0.67910 0.13060 0.66500 -0.24400
C 	C 	0.85110 0.88580 0.42340 0.03500
C 	C 	0.88050 0.86350 0.23380 -0.08200
H 	H 	0.87570 0.82970 0.19500 0.05500
C 	C 	0.91720 0.89060 0.09900 -0.02500
H 	H 	0.93700 0.87570 0.97130 0.03100
C 	C 	0.92260 0.94120 0.16590 -0.02400
H 	H 	0.94670 0.96040 0.08030 0.03300
C 	C 	0.89300 0.96350 0.35700 -0.09300
H 	H 	0.89770 0.99730 0.39720 0.06100
C 	C 	0.85650 0.93630 0.48990 0.05100
C 	C 	0.82710 0.95890 0.68150 -0.13800
H 	H 	0.83100 0.99260 0.72550 0.07700
C 	C 	0.79150 0.92870 0.80350 0.08300
C 	C 	0.74190 0.98740 0.10300 0.17700
C 	C 	0.71320 0.07700 0.32100 -0.15500
C 	C 	0.72140 0.98900 0.35100 -0.19600
H 	H 	0.71750 0.95910 0.44310 0.10400
C 	C 	0.70680 0.03330 0.46400 0.11500
H 	H 	0.69310 0.03400 0.63120 0.00400
C 	C 	0.73330 0.07750 0.07400 0.13100
H 	H 	0.73710 0.10730 0.98260 -0.00300
C 	C 	0.74750 0.03210 0.96800 -0.20000
H 	H 	0.76130 0.03150 0.80140 0.10000
C 	C 	0.70090 0.12810 0.43600 0.43000
O 	O 	0.65170 0.13010 0.46700 -0.20600
C 	C 	0.69190 0.99560 0.16400 -0.02500
H 	H 	0.66840 0.97050 0.12970 0.05100
C 	C 	0.67600 0.04090 0.27500 -0.03200
H 	H 	0.64250 0.04670 0.31570 0.06200
C 	C 	0.76440 0.07230 0.26600 -0.07000
H 	H 	0.78800 0.09730 0.29750 0.05200
C 	C 	0.77600 0.02560 0.15600 -0.00600
H 	H 	0.80950 0.01960 0.11550 0.03000
Zn	Zn	0.22713 0.28587 0.41490 1.22900
O 	O 	0.27890 0.24670 0.58800 -0.80700
H 	H 	0.29960 0.23570 0.47560 0.29700
N 	N 	0.24590 0.35750 0.40100 -0.27300
C 	C 	0.23200 0.39590 0.54200 0.11400
H 	H 	0.20670 0.39340 0.66610 -0.00900
N 	N 	0.25670 0.43960 0.49690 -0.16000
C 	C 	0.28600 0.37820 0.23870 0.02300
O 	O 	0.22370 0.66720 0.87000 -0.50900
C 	C 	0.31560 0.35650 0.04850 -0.09400
H 	H 	0.31180 0.32280 0.00540 0.03700
O 	O 	0.17910 0.63060 0.16500 -0.26500
C 	C 	0.35110 0.38580 0.92340 0.01500
C 	C 	0.38050 0.36350 0.73380 -0.06100
H 	H 	0.37570 0.32970 0.69500 0.04500
C 	C 	0.41720 0.39060 0.59900 -0.04200
H 	H 	0.43700 0.37570 0.47130 0.03000
C 	C 	0.42260 0.44120 0.66590 -0.01400
H 	H 	0.44670 0.46040 0.58030 0.02800
C 	C 	0.39300 0.46350 0.85700 -0.10900
H 	H 	0.39770 0.49730 0.89720 0.06400
C 	C 	0.35650 0.43630 0.98990 0.05900
C 	C 	0.32710 0.45890 0.18150 -0.14000
H 	H 	0.33100 0.49260 0.22550 0.07800
C 	C 	0.29150 0.42870 0.30350 0.09200
C 	C 	0.24190 0.48740 0.60300 0.12200
C 	C 	0.21320 0.57700 0.82100 -0.08300
C 	C 	0.22140 0.48900 0.85100 0.96600
H 	H 	0.21750 0.45910 0.94310 -0.29700
C 	C 	0.20680 0.53330 0.96400 -0.92300
H 	H 	0.19310 0.53400 0.13120 0.36000
C 	C 	0.23330 0.57750 0.57400 -0.91000
H 	H 	0.23710 0.60730 0.48260 0.35200
C 	C 	0.24750 0.53210 0.46800 0.93100
H 	H 	0.26130 0.53150 0.30140 -0.29600
C 	C 	0.20090 0.62810 0.93600 0.40400
O 	O 	0.15170 0.63010 0.96700 -0.18400
C 	C 	0.19190 0.49560 0.66400 -1.10300
H 	H 	0.16840 0.47050 0.62970 0.42200
C 	C 	0.17600 0.54090 0.77500 0.94300
H 	H 	0.14250 0.54670 0.81570 -0.28100
C 	C 	0.26440 0.57230 0.76600 0.91900
H 	H 	0.28800 0.59730 0.79750 -0.29700
C 	C 	0.27600 0.52560 0.65600 -1.06500
H 	H 	0.30950 0.51960 0.61550 0.39600
Zn	Zn	0.21413 0.72713 0.08510 1.22500
O 	O 	0.25330 0.77890 0.91200 -0.78500
H 	H 	0.26430 0.79960 0.02440 0.28800
N 	N 	0.14250 0.74590 0.09900 -0.28400
C 	C 	0.10410 0.73200 0.95800 0.13000
H 	H 	0.10660 0.70670 0.83390 -0.01400
N 	N 	0.06040 0.75670 0.00310 -0.17400
C 	C 	0.12180 0.78600 0.26130 0.02300
O 	O 	0.83280 0.72370 0.63000 -0.51800
C 	C 	0.14350 0.81560 0.45150 -0.11800
H 	H 	0.17720 0.81180 0.49460 0.03700
O 	O 	0.86940 0.67910 0.33500 -0.24400
C 	C 	0.11420 0.85110 0.57660 0.03500
C 	C 	0.13650 0.88050 0.76620 -0.08200
H 	H 	0.17030 0.87570 0.80500 0.05500
C 	C 	0.10940 0.91720 0.90100 -0.02500
H 	H 	0.12430 0.93700 0.02870 0.03100
C 	C 	0.05880 0.92260 0.83410 -0.02400
H 	H 	0.03960 0.94670 0.91970 0.03300
C 	C 	0.03650 0.89300 0.64300 -0.09300
H 	H 	0.00270 0.89770 0.60280 0.06100
C 	C 	0.06370 0.85650 0.51010 0.05100
C 	C 	0.04110 0.82710 0.31850 -0.13800
H 	H 	0.00740 0.83100 0.27450 0.07700
C 	C 	0.07130 0.79150 0.19650 0.08300
C 	C 	0.01260 0.74190 0.89700 0.17700
C 	C 	0.92300 0.71320 0.67900 -0.15500
C 	C 	0.01100 0.72140 0.64900 -0.19600
H 	H 	0.04090 0.71750 0.55690 0.10400
C 	C 	0.96670 0.70680 0.53600 0.11500
H 	H 	0.96600 0.69310 0.36880 0.00400
C 	C 	0.92250 0.73330 0.92600 0.13100
H 	H 	0.89270 0.73710 0.01740 -0.00300
C 	C 	0.96790 0.74750 0.03200 -0.20000
H 	H 	0.96850 0.76130 0.19860 0.10000
C 	C 	0.87190 0.70090 0.56400 0.43000
O 	O 	0.86990 0.65170 0.53300 -0.20600
C 	C 	0.00440 0.69190 0.83600 -0.02500
H 	H 	0.02950 0.66840 0.87030 0.05100
C 	C 	0.95910 0.67600 0.72500 -0.03200
H 	H 	0.95330 0.64250 0.68430 0.06200
C 	C 	0.92770 0.76440 0.73400 -0.07000
H 	H 	0.90270 0.78800 0.70250 0.05200
C 	C 	0.97440 0.77600 0.84400 -0.00600
H 	H 	0.98040 0.80950 0.88450 0.03000
Zn	Zn	0.71413 0.22713 0.58510 1.22900
O 	O 	0.75330 0.27890 0.41200 -0.80700
H 	H 	0.76430 0.29960 0.52440 0.29700
N 	N 	0.64250 0.24590 0.59900 -0.27300
C 	C 	0.60410 0.23200 0.45800 0.11400
H 	H 	0.60660 0.20670 0.33390 -0.00900
N 	N 	0.56040 0.25670 0.50310 -0.16000
C 	C 	0.62180 0.28600 0.76130 0.02300
O 	O 	0.33280 0.22370 0.13000 -0.50900
C 	C 	0.64350 0.31560 0.95150 -0.09400
H 	H 	0.67720 0.31180 0.99460 0.03700
O 	O 	0.36940 0.17910 0.83500 -0.26500
C 	C 	0.61420 0.35110 0.07660 0.01500
C 	C 	0.63650 0.38050 0.26620 -0.06100
H 	H 	0.67030 0.37570 0.30500 0.04500
C 	C 	0.60940 0.41720 0.40100 -0.04200
H 	H 	0.62430 0.43700 0.52870 0.03000
C 	C 	0.55880 0.42260 0.33410 -0.01400
H 	H 	0.53960 0.44670 0.41970 0.02800
C 	C 	0.53650 0.39300 0.14300 -0.10900
H 	H 	0.50270 0.39770 0.10280 0.06400
C 	C 	0.56370 0.35650 0.01010 0.05900
C 	C 	0.54110 0.32710 0.81850 -0.14000
H 	H 	0.50740 0.33100 0.77450 0.07800
C 	C 	0.57130 0.29150 0.69650 0.09200
C 	C 	0.51260 0.24190 0.39700 0.12200
C 	C 	0.42300 0.21320 0.17900 -0.08300
C 	C 	0.51100 0.22140 0.14900 0.96600
H 	H 	0.54090 0.21750 0.05690 -0.29700
C 	C 	0.46670 0.20680 0.03600 -0.92300
H 	H 	0.46600 0.19310 0.86880 0.36000
C 	C 	0.42250 0.23330 0.42600 -0.91000
H 	H 	0.39270 0.23710 0.51740 0.35200
C 	C 	0.46790 0.24750 0.53200 0.93100
H 	H 	0.46850 0.26130 0.69860 -0.29600
C 	C 	0.37190 0.20090 0.06400 0.40400
O 	O 	0.36990 0.15170 0.03300 -0.18400
C 	C 	0.50440 0.19190 0.33600 -1.10300
H 	H 	0.52950 0.16840 0.37030 0.42200
C 	C 	0.45910 0.17600 0.22500 0.94300
H 	H 	0.45330 0.14250 0.18430 -0.28100
C 	C 	0.42770 0.26440 0.23400 0.91900
H 	H 	0.40270 0.28800 0.20250 -0.29700
C 	C 	0.47440 0.27600 0.34400 -1.06500
H 	H 	0.48040 0.30950 0.38450 0.39600
Zn	Zn	0.78587 0.27287 0.08510 1.22500
O 	O 	0.74670 0.22110 0.91200 -0.78500
H 	H 	0.73570 0.20040 0.02440 0.28800
N 	N 	0.85750 0.25410 0.09900 -0.28400
C 	C 	0.89590 0.26800 0.95800 0.13000
H 	H 	0.89340 0.29330 0.83390 -0.01400
N 	N 	0.93960 0.24330 0.00310 -0.17400
C 	C 	0.87820 0.21400 0.26130 0.02300
O 	O 	0.16720 0.27630 0.63000 -0.51800
C 	C 	0.85650 0.18440 0.45150 -0.11800
H 	H 	0.82280 0.18820 0.49460 0.03700
O 	O 	0.13060 0.32090 0.33500 -0.24400
C 	C 	0.88580 0.14890 0.57660 0.03500
C 	C 	0.86350 0.11950 0.76620 -0.08200
H 	H 	0.82970 0.12430 0.80500 0.05500
C 	C 	0.89060 0.08280 0.90100 -0.02500
H 	H 	0.87570 0.06300 0.02870 0.03100
C 	C 	0.94120 0.07740 0.83410 -0.02400
H 	H 	0.96040 0.05330 0.91970 0.03300
C 	C 	0.96350 0.10700 0.64300 -0.09300
H 	H 	0.99730 0.10230 0.60280 0.06100
C 	C 	0.93630 0.14350 0.51010 0.05100
C 	C 	0.95890 0.17290 0.31850 -0.13800
H 	H 	0.99260 0.16900 0.27450 0.07700
C 	C 	0.92870 0.20850 0.19650 0.08300
C 	C 	0.98740 0.25810 0.89700 0.17700
C 	C 	0.07700 0.28680 0.67900 -0.15500
C 	C 	0.98900 0.27860 0.64900 -0.19600
H 	H 	0.95910 0.28250 0.55690 0.10400
C 	C 	0.03330 0.29320 0.53600 0.11500
H 	H 	0.03400 0.30690 0.36880 0.00400
C 	C 	0.07750 0.26670 0.92600 0.13100
H 	H 	0.10730 0.26290 0.01740 -0.00300
C 	C 	0.03210 0.25250 0.03200 -0.20000
H 	H 	0.03150 0.23870 0.19860 0.10000
C 	C 	0.12810 0.29910 0.56400 0.43000
O 	O 	0.13010 0.34830 0.53300 -0.20600
C 	C 	0.99560 0.30810 0.83600 -0.02500
H 	H 	0.97050 0.33160 0.87030 0.05100
C 	C 	0.04090 0.32400 0.72500 -0.03200
H 	H 	0.04670 0.35750 0.68430 0.06200
C 	C 	0.07230 0.23560 0.73400 -0.07000
H 	H 	0.09730 0.21200 0.70250 0.05200
C 	C 	0.02560 0.22400 0.84400 -0.00600
H 	H 	0.01960 0.19050 0.88450 0.03000
Zn	Zn	0.28587 0.77287 0.58510 1.22900
O 	O 	0.24670 0.72110 0.41200 -0.80700
H 	H 	0.23570 0.70040 0.52440 0.29700
N 	N 	0.35750 0.75410 0.59900 -0.27300
C 	C 	0.39590 0.76800 0.45800 0.11400
H 	H 	0.39340 0.79330 0.33390 -0.00900
N 	N 	0.43960 0.74330 0.50310 -0.16000
C 	C 	0.37820 0.71400 0.76130 0.02300
O 	O 	0.66720 0.77630 0.13000 -0.50900
C 	C 	0.35650 0.68440 0.95150 -0.09400
H 	H 	0.32280 0.68820 0.99460 0.03700
O 	O 	0.63060 0.82090 0.83500 -0.26500
C 	C 	0.38580 0.64890 0.07660 0.01500
C 	C 	0.36350 0.61950 0.26620 -0.06100
H 	H 	0.32970 0.62430 0.30500 0.04500
C 	C 	0.39060 0.58280 0.40100 -0.04200
H 	H 	0.37570 0.56300 0.52870 0.03000
C 	C 	0.44120 0.57740 0.33410 -0.01400
H 	H 	0.46040 0.55330 0.41970 0.02800
C 	C 	0.46350 0.60700 0.14300 -0.10900
H 	H 	0.49730 0.60230 0.10280 0.06400
C 	C 	0.43630 0.64350 0.01010 0.05900
C 	C 	0.45890 0.67290 0.81850 -0.14000
H 	H 	0.49260 0.66900 0.77450 0.07800
C 	C 	0.42870 0.70850 0.69650 0.09200
C 	C 	0.48740 0.75810 0.39700 0.12200
C 	C 	0.57700 0.78680 0.17900 -0.08300
C 	C 	0.48900 0.77860 0.14900 0.96600
H 	H 	0.45910 0.78250 0.05690 -0.29700
C 	C 	0.53330 0.79320 0.03600 -0.92300
H 	H 	0.53400 0.80690 0.86880 0.36000
C 	C 	0.57750 0.76670 0.42600 -0.91000
H 	H 	0.60730 0.76290 0.51740 0.35200
C 	C 	0.53210 0.75250 0.53200 0.93100
H 	H 	0.53150 0.73870 0.69860 -0.29600
C 	C 	0.62810 0.79910 0.06400 0.40400
O 	O 	0.63010 0.84830 0.03300 -0.18400
C 	C 	0.49560 0.80810 0.33600 -1.10300
H 	H 	0.47050 0.83160 0.37030 0.42200
C 	C 	0.54090 0.82400 0.22500 0.94300
H 	H 	0.54670 0.85750 0.18430 -0.28100
C 	C 	0.57230 0.73560 0.23400 0.91900
H 	H 	0.59730 0.71200 0.20250 -0.29700
C 	C 	0.52560 0.72400 0.34400 -1.06500
H 	H 	0.51960 0.69050 0.38450 0.39600
