data_crystal

_cell_length_a 26.68400
_cell_length_b 26.68400
_cell_length_c 4.70100
_cell_angle_alpha 90.00000
_cell_angle_beta  90.00000
_cell_angle_gamma 90.00000

_symmetry_space_group_name_	'P 1'
_symmetry_space_group_name_H-M	'P 1'

loop_
_symmetry_equiv_pos_as_xyz
  x,y,z

loop_
_atom_site_label
_atom_site_type_symbol
_atom_site_fract_x
_atom_site_fract_y
_atom_site_fract_z
_atom_site_charge
Zn	Zn	0.27505 0.21360 0.88640 1.21300
O 	O 	0.21350 0.24850 0.03900 -0.78800
H 	H 	0.19230 0.25980 0.92490 0.31400
N 	N 	0.25170 0.14420 0.85700 -0.30400
C 	C 	0.26970 0.10890 0.01900 0.10300
H 	H 	0.29670 0.11420 0.13960 -0.02200
N 	N 	0.24640 0.06370 -0.00000 -0.16000
C 	C 	0.21540 0.12310 0.72500 0.10100
O 	O 	0.27140 0.84000 0.41500 -0.53000
C 	C 	0.18440 0.14560 0.52700 -0.17800
H 	H 	0.18880 0.17910 0.47890 0.05900
O 	O 	0.30210 0.86600 0.76200 -0.26500
C 	C 	0.14680 0.11770 0.40300 0.08900
C 	C 	0.11520 0.13870 0.20400 -0.12500
H 	H 	0.11980 0.17220 0.15430 0.07500
C 	C 	0.07700 0.11240 0.07400 0.01900
H 	H 	0.05610 0.12740 0.94060 0.01100
C 	C 	0.07100 0.06270 0.15100 -0.06200
H 	H 	0.04570 0.04360 0.06950 0.04500
C 	C 	0.10270 0.04150 0.34900 -0.05700
H 	H 	0.09820 0.00790 0.39730 0.04700
C 	C 	0.14090 0.06800 0.48000 0.01100
C 	C 	0.17170 0.04570 0.67600 -0.09400
H 	H 	0.16730 0.01220 0.72520 0.06300
C 	C 	0.20930 0.07360 0.80000 0.04100
C 	C 	0.25800 0.01720 0.12500 0.14800
C 	C 	0.28010 0.92670 0.35900 -0.16300
C 	C 	0.30580 0.00790 0.21900 0.17100
H 	H 	0.33010 0.03270 0.20090 -0.02400
C 	C 	0.31860 0.96200 0.34000 -0.22200
H 	H 	0.35080 0.95530 0.40450 0.12200
C 	C 	0.23040 0.93230 0.27100 0.24500
H 	H 	0.20610 0.90760 0.28750 -0.05800
C 	C 	0.22200 0.97960 0.15300 -0.33300
H 	H 	0.18980 0.98670 0.08930 0.14200
C 	C 	0.29270 0.87710 0.49800 0.48500
O 	O 	0.33770 0.87450 0.60300 -0.22300
C 	C 	0.27860 0.01440 0.39400 -0.36400
H 	H 	0.28480 0.04380 0.49430 0.16100
C 	C 	0.29000 0.96910 0.51600 0.30100
H 	H 	0.30380 0.96710 0.69770 -0.06600
C 	C 	0.25960 0.92750 0.09100 -0.19600
H 	H 	0.25330 0.89810 0.99130 0.12400
C 	C 	0.24880 0.97380 0.97600 0.17400
H 	H 	0.23490 0.97560 0.79520 -0.03300
Zn	Zn	0.77505 0.71360 0.38640 1.21600
O 	O 	0.71350 0.74850 0.53900 -0.80800
H 	H 	0.69230 0.75980 0.42490 0.33600
N 	N 	0.75170 0.64420 0.35700 -0.29600
C 	C 	0.76970 0.60890 0.51900 0.10800
H 	H 	0.79670 0.61420 0.63960 -0.02600
N 	N 	0.74640 0.56370 0.50000 -0.17000
C 	C 	0.71540 0.62310 0.22500 0.08400
O 	O 	0.77140 0.34000 0.91500 -0.52900
C 	C 	0.68440 0.64560 0.02700 -0.12800
H 	H 	0.68880 0.67910 0.97890 0.03400
O 	O 	0.80210 0.36600 0.26200 -0.26700
C 	C 	0.64680 0.61770 0.90300 0.03900
C 	C 	0.61520 0.63870 0.70400 -0.09000
H 	H 	0.61980 0.67220 0.65430 0.06500
C 	C 	0.57700 0.61240 0.57400 -0.02700
H 	H 	0.55610 0.62740 0.44060 0.03800
C 	C 	0.57100 0.56270 0.65100 -0.02800
H 	H 	0.54570 0.54360 0.56950 0.03400
C 	C 	0.60270 0.54150 0.84900 -0.08200
H 	H 	0.59820 0.50790 0.89730 0.05600
C 	C 	0.64090 0.56800 0.98000 0.03000
C 	C 	0.67170 0.54570 0.17600 -0.12000
H 	H 	0.66730 0.51220 0.22520 0.06800
C 	C 	0.70930 0.57360 0.30000 0.05600
C 	C 	0.75800 0.51720 0.62500 0.20400
C 	C 	0.78010 0.42670 0.85900 -0.19200
C 	C 	0.80580 0.50790 0.71900 -0.73000
H 	H 	0.83010 0.53270 0.70090 0.28700
C 	C 	0.81860 0.46200 0.84000 0.63400
H 	H 	0.85080 0.45530 0.90450 -0.18100
C 	C 	0.73040 0.43230 0.77100 -0.46100
H 	H 	0.70610 0.40760 0.78750 0.19700
C 	C 	0.72200 0.47960 0.65300 0.40000
H 	H 	0.68980 0.48670 0.58930 -0.10900
C 	C 	0.79270 0.37710 0.99800 0.50100
O 	O 	0.83770 0.37450 0.10300 -0.23200
C 	C 	0.77860 0.51440 0.89400 0.49300
H 	H 	0.78480 0.54380 0.99430 -0.13500
C 	C 	0.79000 0.46910 0.01600 -0.55500
H 	H 	0.80380 0.46710 0.19770 0.25200
C 	C 	0.75960 0.42750 0.59100 0.54900
H 	H 	0.75330 0.39810 0.49130 -0.13300
C 	C 	0.74880 0.47380 0.47600 -0.66200
H 	H 	0.73490 0.47560 0.29520 0.27800
Zn	Zn	0.72495 0.78640 0.88640 1.21400
O 	O 	0.78650 0.75150 0.03900 -0.78700
H 	H 	0.80770 0.74020 0.92490 0.31400
N 	N 	0.74830 0.85580 0.85700 -0.30400
C 	C 	0.73030 0.89110 0.01900 0.10300
H 	H 	0.70330 0.88580 0.13960 -0.02200
N 	N 	0.75360 0.93630 -0.00000 -0.16000
C 	C 	0.78460 0.87690 0.72500 0.10100
O 	O 	0.72860 0.16000 0.41500 -0.53000
C 	C 	0.81560 0.85440 0.52700 -0.17800
H 	H 	0.81120 0.82090 0.47890 0.05900
O 	O 	0.69790 0.13400 0.76200 -0.26500
C 	C 	0.85320 0.88230 0.40300 0.08900
C 	C 	0.88480 0.86130 0.20400 -0.12500
H 	H 	0.88020 0.82780 0.15430 0.07500
C 	C 	0.92300 0.88760 0.07400 0.01900
H 	H 	0.94390 0.87260 0.94060 0.01100
C 	C 	0.92900 0.93730 0.15100 -0.06200
H 	H 	0.95430 0.95640 0.06950 0.04500
C 	C 	0.89730 0.95850 0.34900 -0.05700
H 	H 	0.90180 0.99210 0.39730 0.04700
C 	C 	0.85910 0.93200 0.48000 0.01100
C 	C 	0.82830 0.95430 0.67600 -0.09400
H 	H 	0.83270 0.98780 0.72520 0.06300
C 	C 	0.79070 0.92640 0.80000 0.04100
C 	C 	0.74200 0.98280 0.12500 0.14800
C 	C 	0.71990 0.07330 0.35900 -0.16300
C 	C 	0.69420 0.99210 0.21900 0.17100
H 	H 	0.66990 0.96730 0.20090 -0.02400
C 	C 	0.68140 0.03800 0.34000 -0.22200
H 	H 	0.64920 0.04470 0.40450 0.12200
C 	C 	0.76960 0.06770 0.27100 0.24500
H 	H 	0.79390 0.09240 0.28750 -0.05800
C 	C 	0.77800 0.02040 0.15300 -0.33300
H 	H 	0.81020 0.01330 0.08930 0.14200
C 	C 	0.70730 0.12290 0.49800 0.48500
O 	O 	0.66230 0.12550 0.60300 -0.22300
C 	C 	0.72140 0.98560 0.39400 -0.36400
H 	H 	0.71520 0.95620 0.49430 0.16100
C 	C 	0.71000 0.03090 0.51600 0.30100
H 	H 	0.69620 0.03290 0.69770 -0.06600
C 	C 	0.74040 0.07250 0.09100 -0.19600
H 	H 	0.74670 0.10190 0.99130 0.12400
C 	C 	0.75120 0.02620 0.97600 0.17400
H 	H 	0.76510 0.02440 0.79520 -0.03300
Zn	Zn	0.22495 0.28640 0.38640 1.21600
O 	O 	0.28650 0.25150 0.53900 -0.80800
H 	H 	0.30770 0.24020 0.42490 0.33600
N 	N 	0.24830 0.35580 0.35700 -0.29600
C 	C 	0.23030 0.39110 0.51900 0.10800
H 	H 	0.20330 0.38580 0.63960 -0.02600
N 	N 	0.25360 0.43630 0.50000 -0.17000
C 	C 	0.28460 0.37690 0.22500 0.08400
O 	O 	0.22860 0.66000 0.91500 -0.52900
C 	C 	0.31560 0.35440 0.02700 -0.12800
H 	H 	0.31120 0.32090 0.97890 0.03400
O 	O 	0.19790 0.63400 0.26200 -0.26700
C 	C 	0.35320 0.38230 0.90300 0.03900
C 	C 	0.38480 0.36130 0.70400 -0.09000
H 	H 	0.38020 0.32780 0.65430 0.06500
C 	C 	0.42300 0.38760 0.57400 -0.02700
H 	H 	0.44390 0.37260 0.44060 0.03800
C 	C 	0.42900 0.43730 0.65100 -0.02800
H 	H 	0.45430 0.45640 0.56950 0.03400
C 	C 	0.39730 0.45850 0.84900 -0.08200
H 	H 	0.40180 0.49210 0.89730 0.05600
C 	C 	0.35910 0.43200 0.98000 0.03000
C 	C 	0.32830 0.45430 0.17600 -0.12000
H 	H 	0.33270 0.48780 0.22520 0.06800
C 	C 	0.29070 0.42640 0.30000 0.05600
C 	C 	0.24200 0.48280 0.62500 0.20400
C 	C 	0.21990 0.57330 0.85900 -0.19200
C 	C 	0.19420 0.49210 0.71900 -0.73000
H 	H 	0.16990 0.46730 0.70090 0.28700
C 	C 	0.18140 0.53800 0.84000 0.63400
H 	H 	0.14920 0.54470 0.90450 -0.18100
C 	C 	0.26960 0.56770 0.77100 -0.46100
H 	H 	0.29390 0.59240 0.78750 0.19700
C 	C 	0.27800 0.52040 0.65300 0.40000
H 	H 	0.31020 0.51330 0.58930 -0.10900
C 	C 	0.20730 0.62290 0.99800 0.50100
O 	O 	0.16230 0.62550 0.10300 -0.23200
C 	C 	0.22140 0.48560 0.89400 0.49300
H 	H 	0.21520 0.45620 0.99430 -0.13500
C 	C 	0.21000 0.53090 0.01600 -0.55500
H 	H 	0.19620 0.53290 0.19770 0.25200
C 	C 	0.24040 0.57250 0.59100 0.54900
H 	H 	0.24670 0.60190 0.49130 -0.13300
C 	C 	0.25120 0.52620 0.47600 -0.66200
H 	H 	0.26510 0.52440 0.29520 0.27800
Zn	Zn	0.21360 0.72495 0.11360 1.21400
O 	O 	0.24850 0.78650 0.96100 -0.78700
H 	H 	0.25980 0.80770 0.07510 0.31400
N 	N 	0.14420 0.74830 0.14300 -0.30300
C 	C 	0.10890 0.73030 0.98100 0.09900
H 	H 	0.11420 0.70330 0.86040 -0.02100
N 	N 	0.06370 0.75360 -0.00000 -0.15600
C 	C 	0.12310 0.78460 0.27500 0.10100
O 	O 	0.84000 0.72860 0.58500 -0.53000
C 	C 	0.14560 0.81560 0.47300 -0.17800
H 	H 	0.17910 0.81120 0.52110 0.05900
O 	O 	0.86600 0.69790 0.23800 -0.26600
C 	C 	0.11770 0.85320 0.59700 0.08800
C 	C 	0.13870 0.88480 0.79600 -0.12300
H 	H 	0.17220 0.88020 0.84570 0.07500
C 	C 	0.11240 0.92300 0.92600 0.01400
H 	H 	0.12740 0.94390 0.05940 0.01500
C 	C 	0.06270 0.92900 0.84900 -0.05900
H 	H 	0.04360 0.95430 0.93050 0.04400
C 	C 	0.04150 0.89730 0.65100 -0.05900
H 	H 	0.00790 0.90180 0.60270 0.04800
C 	C 	0.06800 0.85910 0.52000 0.01300
C 	C 	0.04570 0.82830 0.32400 -0.09200
H 	H 	0.01220 0.83270 0.27480 0.06300
C 	C 	0.07360 0.79070 0.20000 0.04100
C 	C 	0.01720 0.74200 0.87500 0.13900
C 	C 	0.92670 0.71990 0.64100 -0.16100
C 	C 	0.00790 0.69420 0.78100 0.30800
H 	H 	0.03270 0.66990 0.79910 -0.07100
C 	C 	0.96200 0.68140 0.66000 -0.35400
H 	H 	0.95530 0.64920 0.59550 0.16900
C 	C 	0.93230 0.76960 0.72900 0.37700
H 	H 	0.90760 0.79390 0.71250 -0.10500
C 	C 	0.97960 0.77800 0.84700 -0.47200
H 	H 	0.98670 0.81020 0.91070 0.19000
C 	C 	0.87710 0.70730 0.50200 0.48300
O 	O 	0.87450 0.66230 0.39700 -0.22000
C 	C 	0.01440 0.72140 0.60600 -0.49600
H 	H 	0.04380 0.71520 0.50570 0.20500
C 	C 	0.96910 0.71000 0.48400 0.43700
H 	H 	0.96710 0.69620 0.30230 -0.11700
C 	C 	0.92750 0.74040 0.90900 -0.33000
H 	H 	0.89810 0.74670 0.00870 0.16900
C 	C 	0.97380 0.75120 0.02400 0.32800
H 	H 	0.97560 0.76510 0.20480 -0.09000
Zn	Zn	0.71360 0.22495 0.61360 1.21600
O 	O 	0.74850 0.28650 0.46100 -0.80800
H 	H 	0.75980 0.30770 0.57510 0.33600
N 	N 	0.64420 0.24830 0.64300 -0.29600
C 	C 	0.60890 0.23030 0.48100 0.10900
H 	H 	0.61420 0.20330 0.36040 -0.02600
N 	N 	0.56370 0.25360 0.50000 -0.17000
C 	C 	0.62310 0.28460 0.77500 0.08400
O 	O 	0.34000 0.22860 0.08500 -0.52900
C 	C 	0.64560 0.31560 0.97300 -0.12800
H 	H 	0.67910 0.31120 0.02110 0.03400
O 	O 	0.36600 0.19790 0.73800 -0.26700
C 	C 	0.61770 0.35320 0.09700 0.03900
C 	C 	0.63870 0.38480 0.29600 -0.09000
H 	H 	0.67220 0.38020 0.34570 0.06500
C 	C 	0.61240 0.42300 0.42600 -0.02600
H 	H 	0.62740 0.44390 0.55940 0.03800
C 	C 	0.56270 0.42900 0.34900 -0.02800
H 	H 	0.54360 0.45430 0.43050 0.03400
C 	C 	0.54150 0.39730 0.15100 -0.08100
H 	H 	0.50790 0.40180 0.10270 0.05600
C 	C 	0.56800 0.35910 0.02000 0.03000
C 	C 	0.54570 0.32830 0.82400 -0.12000
H 	H 	0.51220 0.33270 0.77480 0.06800
C 	C 	0.57360 0.29070 0.70000 0.05600
C 	C 	0.51720 0.24200 0.37500 0.20500
C 	C 	0.42670 0.21990 0.14100 -0.19300
C 	C 	0.50790 0.19420 0.28100 -0.74100
H 	H 	0.53270 0.16990 0.29910 0.29100
C 	C 	0.46200 0.18140 0.16000 0.64600
H 	H 	0.45530 0.14920 0.09550 -0.18500
C 	C 	0.43230 0.26960 0.22900 -0.47300
H 	H 	0.40760 0.29390 0.21250 0.20100
C 	C 	0.47960 0.27800 0.34700 0.41300
H 	H 	0.48670 0.31020 0.41070 -0.11300
C 	C 	0.37710 0.20730 0.00200 0.50200
O 	O 	0.37450 0.16230 0.89700 -0.23300
C 	C 	0.51440 0.22140 0.10600 0.50400
H 	H 	0.54380 0.21520 0.00570 -0.13900
C 	C 	0.46910 0.21000 0.98400 -0.56700
H 	H 	0.46710 0.19620 0.80230 0.25600
C 	C 	0.42750 0.24040 0.40900 0.56100
H 	H 	0.39810 0.24670 0.50870 -0.13700
C 	C 	0.47380 0.25120 0.52400 -0.67600
H 	H 	0.47560 0.26510 0.70480 0.28300
Zn	Zn	0.78640 0.27505 0.11360 1.21400
O 	O 	0.75150 0.21350 0.96100 -0.78700
H 	H 	0.74020 0.19230 0.07510 0.31400
N 	N 	0.85580 0.25170 0.14300 -0.30300
C 	C 	0.89110 0.26970 0.98100 0.09900
H 	H 	0.88580 0.29670 0.86040 -0.02100
N 	N 	0.93630 0.24640 -0.00000 -0.15600
C 	C 	0.87690 0.21540 0.27500 0.10100
O 	O 	0.16000 0.27140 0.58500 -0.53000
C 	C 	0.85440 0.18440 0.47300 -0.17800
H 	H 	0.82090 0.18880 0.52110 0.05900
O 	O 	0.13400 0.30210 0.23800 -0.26600
C 	C 	0.88230 0.14680 0.59700 0.08800
C 	C 	0.86130 0.11520 0.79600 -0.12300
H 	H 	0.82780 0.11980 0.84570 0.07500
C 	C 	0.88760 0.07700 0.92600 0.01400
H 	H 	0.87260 0.05610 0.05940 0.01500
C 	C 	0.93730 0.07100 0.84900 -0.05900
H 	H 	0.95640 0.04570 0.93050 0.04400
C 	C 	0.95850 0.10270 0.65100 -0.05900
H 	H 	0.99210 0.09820 0.60270 0.04800
C 	C 	0.93200 0.14090 0.52000 0.01300
C 	C 	0.95430 0.17170 0.32400 -0.09200
H 	H 	0.98780 0.16730 0.27480 0.06300
C 	C 	0.92640 0.20930 0.20000 0.04100
C 	C 	0.98280 0.25800 0.87500 0.13900
C 	C 	0.07330 0.28010 0.64100 -0.16100
C 	C 	0.99210 0.30580 0.78100 0.30800
H 	H 	0.96730 0.33010 0.79910 -0.07100
C 	C 	0.03800 0.31860 0.66000 -0.35400
H 	H 	0.04470 0.35080 0.59550 0.16900
C 	C 	0.06770 0.23040 0.72900 0.37700
H 	H 	0.09240 0.20610 0.71250 -0.10500
C 	C 	0.02040 0.22200 0.84700 -0.47200
H 	H 	0.01330 0.18980 0.91070 0.19000
C 	C 	0.12290 0.29270 0.50200 0.48300
O 	O 	0.12550 0.33770 0.39700 -0.22000
C 	C 	0.98560 0.27860 0.60600 -0.49600
H 	H 	0.95620 0.28480 0.50570 0.20500
C 	C 	0.03090 0.29000 0.48400 0.43700
H 	H 	0.03290 0.30380 0.30230 -0.11700
C 	C 	0.07250 0.25960 0.90900 -0.33000
H 	H 	0.10190 0.25330 0.00870 0.16900
C 	C 	0.02620 0.24880 0.02400 0.32800
H 	H 	0.02440 0.23490 0.20480 -0.09000
Zn	Zn	0.28640 0.77505 0.61360 1.21600
O 	O 	0.25150 0.71350 0.46100 -0.80800
H 	H 	0.24020 0.69230 0.57510 0.33600
N 	N 	0.35580 0.75170 0.64300 -0.29600
C 	C 	0.39110 0.76970 0.48100 0.10900
H 	H 	0.38580 0.79670 0.36040 -0.02600
N 	N 	0.43630 0.74640 0.50000 -0.17000
C 	C 	0.37690 0.71540 0.77500 0.08400
O 	O 	0.66000 0.77140 0.08500 -0.52900
C 	C 	0.35440 0.68440 0.97300 -0.12800
H 	H 	0.32090 0.68880 0.02110 0.03400
O 	O 	0.63400 0.80210 0.73800 -0.26700
C 	C 	0.38230 0.64680 0.09700 0.03900
C 	C 	0.36130 0.61520 0.29600 -0.09000
H 	H 	0.32780 0.61980 0.34570 0.06500
C 	C 	0.38760 0.57700 0.42600 -0.02600
H 	H 	0.37260 0.55610 0.55940 0.03800
C 	C 	0.43730 0.57100 0.34900 -0.02800
H 	H 	0.45640 0.54570 0.43050 0.03400
C 	C 	0.45850 0.60270 0.15100 -0.08100
H 	H 	0.49210 0.59820 0.10270 0.05600
C 	C 	0.43200 0.64090 0.02000 0.03000
C 	C 	0.45430 0.67170 0.82400 -0.12000
H 	H 	0.48780 0.66730 0.77480 0.06800
C 	C 	0.42640 0.70930 0.70000 0.05600
C 	C 	0.48280 0.75800 0.37500 0.20500
C 	C 	0.57330 0.78010 0.14100 -0.19300
C 	C 	0.49210 0.80580 0.28100 -0.74100
H 	H 	0.46730 0.83010 0.29910 0.29100
C 	C 	0.53800 0.81860 0.16000 0.64600
H 	H 	0.54470 0.85080 0.09550 -0.18500
C 	C 	0.56770 0.73040 0.22900 -0.47300
H 	H 	0.59240 0.70610 0.21250 0.20100
C 	C 	0.52040 0.72200 0.34700 0.41300
H 	H 	0.51330 0.68980 0.41070 -0.11300
C 	C 	0.62290 0.79270 0.00200 0.50200
O 	O 	0.62550 0.83770 0.89700 -0.23300
C 	C 	0.48560 0.77860 0.10600 0.50400
H 	H 	0.45620 0.78480 0.00570 -0.13900
C 	C 	0.53090 0.79000 0.98400 -0.56700
H 	H 	0.53290 0.80380 0.80230 0.25600
C 	C 	0.57250 0.75960 0.40900 0.56100
H 	H 	0.60190 0.75330 0.50870 -0.13700
C 	C 	0.52620 0.74880 0.52400 -0.67600
H 	H 	0.52440 0.73490 0.70480 0.28300
