data_crystal

_cell_length_a 27.74770
_cell_length_b 27.74770
_cell_length_c 3.76690
_cell_angle_alpha 90.00000
_cell_angle_beta  90.00000
_cell_angle_gamma 90.00000

_symmetry_space_group_name_	'P 1'
_symmetry_space_group_name_H-M	'P 1'

loop_
_symmetry_equiv_pos_as_xyz
  x,y,z

loop_
_atom_site_label
_atom_site_type_symbol
_atom_site_fract_x
_atom_site_fract_y
_atom_site_fract_z
_atom_site_charge
Zn	Zn	0.28308 0.21414 0.86890 1.20900
O 	O 	0.21650 0.25480 0.89800 -0.73600
H 	H 	0.19380 0.26690 0.77500 0.16800
N 	N 	0.25970 0.14560 0.81400 -0.27300
C 	C 	0.27940 0.10840 0.96900 0.11300
H 	H 	0.30900 0.10980 0.08380 0.01000
N 	N 	0.25270 0.06740 0.94800 -0.16900
C 	C 	0.21430 0.12920 0.67000 0.03200
O 	O 	0.27780 0.85790 0.57300 -0.50300
C 	C 	0.17850 0.15240 0.48000 -0.11600
H 	H 	0.18130 0.18490 0.42330 0.04400
O 	O 	0.34480 0.87680 0.64500 -0.23400
C 	C 	0.13830 0.12650 0.37800 0.04300
C 	C 	0.10140 0.14750 0.18600 -0.08300
H 	H 	0.10390 0.17990 0.12670 0.07000
C 	C 	0.06090 0.12250 0.08000 -0.02700
H 	H 	0.03640 0.13730 0.95200 0.03400
C 	C 	0.05850 0.07420 0.17200 -0.02200
H 	H 	0.03180 0.05600 0.10580 0.03200
C 	C 	0.09550 0.05280 0.36100 -0.09300
H 	H 	0.09320 0.02030 0.41760 0.06000
C 	C 	0.13590 0.07810 0.46900 0.05400
C 	C 	0.17150 0.05440 0.65900 -0.14200
H 	H 	0.16850 0.02190 0.71630 0.07800
C 	C 	0.21160 0.08070 0.76200 0.09400
C 	C 	0.24500 0.94440 0.31200 0.15000
H 	H 	0.22180 0.92300 0.39540 -0.00900
C 	C 	0.29320 0.93090 0.30500 -0.20600
C 	C 	0.32780 0.96290 0.18000 0.16300
H 	H 	0.36010 0.95380 0.17530 0.00800
C 	C 	0.31420 0.00830 0.06100 -0.24000
H 	H 	0.33740 0.02970 0.97720 0.13800
C 	C 	0.26600 0.02180 0.06800 0.21100
C 	C 	0.23140 0.98990 0.19300 -0.23100
H 	H 	0.19910 0.99890 0.19730 0.11200
C 	C 	0.30740 0.88120 0.43500 0.55500
O 	O 	0.34180 0.86260 0.23900 -0.27500
Zn	Zn	0.78308 0.71414 0.36890 1.20500
O 	O 	0.71650 0.75480 0.39800 -0.74300
H 	H 	0.69380 0.76690 0.27500 0.16500
N 	N 	0.75970 0.64560 0.31400 -0.27200
C 	C 	0.77940 0.60840 0.46900 0.09800
H 	H 	0.80900 0.60980 0.58380 0.02000
N 	N 	0.75270 0.56740 0.44800 -0.16900
C 	C 	0.71430 0.62920 0.17000 0.02000
O 	O 	0.77780 0.35790 0.07300 -0.48600
C 	C 	0.67850 0.65240 0.98000 -0.10300
H 	H 	0.68130 0.68490 0.92330 0.04100
O 	O 	0.84480 0.37680 0.14500 -0.22200
C 	C 	0.63830 0.62650 0.87800 0.03600
C 	C 	0.60140 0.64750 0.68600 -0.08000
H 	H 	0.60390 0.67990 0.62670 0.06900
C 	C 	0.56090 0.62250 0.58000 -0.03000
H 	H 	0.53640 0.63730 0.45200 0.03200
C 	C 	0.55850 0.57420 0.67200 -0.02000
H 	H 	0.53180 0.55600 0.60580 0.03000
C 	C 	0.59550 0.55280 0.86100 -0.09800
H 	H 	0.59320 0.52030 0.91760 0.06100
C 	C 	0.63590 0.57810 0.96900 0.06100
C 	C 	0.67150 0.55440 0.15900 -0.14900
H 	H 	0.66850 0.52190 0.21630 0.08100
C 	C 	0.71160 0.58070 0.26200 0.09900
C 	C 	0.74500 0.44440 0.81200 0.14100
H 	H 	0.72180 0.42300 0.89540 -0.00900
C 	C 	0.79320 0.43090 0.80500 -0.19600
C 	C 	0.82780 0.46290 0.68000 0.15200
H 	H 	0.86010 0.45380 0.67530 0.01200
C 	C 	0.81420 0.50830 0.56100 -0.22700
H 	H 	0.83740 0.52970 0.47720 0.13200
C 	C 	0.76600 0.52180 0.56800 0.20800
C 	C 	0.73140 0.48990 0.69300 -0.22600
H 	H 	0.69910 0.49890 0.69730 0.11000
C 	C 	0.80740 0.38120 0.93500 0.52800
O 	O 	0.84180 0.36260 0.73900 -0.27500
Zn	Zn	0.71692 0.78586 0.86890 1.20800
O 	O 	0.78350 0.74520 0.89800 -0.73700
H 	H 	0.80620 0.73310 0.77500 0.16700
N 	N 	0.74030 0.85440 0.81400 -0.27400
C 	C 	0.72060 0.89160 0.96900 0.11200
H 	H 	0.69100 0.89020 0.08380 0.00900
N 	N 	0.74730 0.93260 0.94800 -0.17000
C 	C 	0.78570 0.87080 0.67000 0.03100
O 	O 	0.72220 0.14210 0.57300 -0.50400
C 	C 	0.82150 0.84760 0.48000 -0.11700
H 	H 	0.81870 0.81510 0.42330 0.04300
O 	O 	0.65520 0.12320 0.64500 -0.23500
C 	C 	0.86170 0.87350 0.37800 0.04200
C 	C 	0.89860 0.85250 0.18600 -0.08400
H 	H 	0.89610 0.82010 0.12670 0.06900
C 	C 	0.93910 0.87750 0.08000 -0.02800
H 	H 	0.96360 0.86270 0.95200 0.03300
C 	C 	0.94150 0.92580 0.17200 -0.02300
H 	H 	0.96820 0.94400 0.10580 0.03100
C 	C 	0.90450 0.94720 0.36100 -0.09400
H 	H 	0.90680 0.97970 0.41760 0.06000
C 	C 	0.86410 0.92190 0.46900 0.05400
C 	C 	0.82850 0.94560 0.65900 -0.14200
H 	H 	0.83150 0.97810 0.71630 0.07800
C 	C 	0.78840 0.91930 0.76200 0.09400
C 	C 	0.75500 0.05560 0.31200 0.15000
H 	H 	0.77820 0.07700 0.39540 -0.00900
C 	C 	0.70680 0.06910 0.30500 -0.20600
C 	C 	0.67220 0.03710 0.18000 0.16300
H 	H 	0.63990 0.04620 0.17530 0.00800
C 	C 	0.68580 0.99170 0.06100 -0.24000
H 	H 	0.66260 0.97030 0.97720 0.13800
C 	C 	0.73400 0.97820 0.06800 0.21100
C 	C 	0.76860 0.01010 0.19300 -0.23100
H 	H 	0.80090 0.00110 0.19730 0.11200
C 	C 	0.69260 0.11880 0.43500 0.55500
O 	O 	0.65820 0.13740 0.23900 -0.27500
Zn	Zn	0.21692 0.28586 0.36890 1.20500
O 	O 	0.28350 0.24520 0.39800 -0.74300
H 	H 	0.30620 0.23310 0.27500 0.16500
N 	N 	0.24030 0.35440 0.31400 -0.27200
C 	C 	0.22060 0.39160 0.46900 0.09800
H 	H 	0.19100 0.39020 0.58380 0.02000
N 	N 	0.24730 0.43260 0.44800 -0.16900
C 	C 	0.28570 0.37080 0.17000 0.02000
O 	O 	0.22220 0.64210 0.07300 -0.48600
C 	C 	0.32150 0.34760 0.98000 -0.10300
H 	H 	0.31870 0.31510 0.92330 0.04100
O 	O 	0.15520 0.62320 0.14500 -0.22200
C 	C 	0.36170 0.37350 0.87800 0.03600
C 	C 	0.39860 0.35250 0.68600 -0.08000
H 	H 	0.39610 0.32010 0.62670 0.06900
C 	C 	0.43910 0.37750 0.58000 -0.03000
H 	H 	0.46360 0.36270 0.45200 0.03200
C 	C 	0.44150 0.42580 0.67200 -0.02000
H 	H 	0.46820 0.44400 0.60580 0.03000
C 	C 	0.40450 0.44720 0.86100 -0.09800
H 	H 	0.40680 0.47970 0.91760 0.06100
C 	C 	0.36410 0.42190 0.96900 0.06100
C 	C 	0.32850 0.44560 0.15900 -0.14900
H 	H 	0.33150 0.47810 0.21630 0.08100
C 	C 	0.28840 0.41930 0.26200 0.09900
C 	C 	0.25500 0.55560 0.81200 0.14100
H 	H 	0.27820 0.57700 0.89540 -0.00900
C 	C 	0.20680 0.56910 0.80500 -0.19600
C 	C 	0.17220 0.53710 0.68000 0.15200
H 	H 	0.13990 0.54620 0.67530 0.01200
C 	C 	0.18580 0.49170 0.56100 -0.22700
H 	H 	0.16260 0.47030 0.47720 0.13200
C 	C 	0.23400 0.47820 0.56800 0.20800
C 	C 	0.26860 0.51010 0.69300 -0.22600
H 	H 	0.30090 0.50110 0.69730 0.11000
C 	C 	0.19260 0.61880 0.93500 0.52800
O 	O 	0.15820 0.63740 0.73900 -0.27500
Zn	Zn	0.21414 0.71692 0.13110 1.20800
O 	O 	0.25480 0.78350 0.10200 -0.73700
H 	H 	0.26690 0.80620 0.22500 0.16700
N 	N 	0.14560 0.74030 0.18600 -0.27400
C 	C 	0.10840 0.72060 0.03100 0.11200
H 	H 	0.10980 0.69100 0.91620 0.00900
N 	N 	0.06740 0.74730 0.05200 -0.17000
C 	C 	0.12920 0.78570 0.33000 0.03100
O 	O 	0.85790 0.72220 0.42700 -0.50400
C 	C 	0.15240 0.82150 0.52000 -0.11700
H 	H 	0.18490 0.81870 0.57670 0.04300
O 	O 	0.87680 0.65520 0.35500 -0.23500
C 	C 	0.12650 0.86170 0.62200 0.04200
C 	C 	0.14750 0.89860 0.81400 -0.08400
H 	H 	0.17990 0.89610 0.87330 0.06900
C 	C 	0.12250 0.93910 0.92000 -0.02800
H 	H 	0.13730 0.96360 0.04800 0.03300
C 	C 	0.07420 0.94150 0.82800 -0.02300
H 	H 	0.05600 0.96820 0.89420 0.03100
C 	C 	0.05280 0.90450 0.63900 -0.09400
H 	H 	0.02030 0.90680 0.58240 0.06000
C 	C 	0.07810 0.86410 0.53100 0.05400
C 	C 	0.05440 0.82850 0.34100 -0.14200
H 	H 	0.02190 0.83150 0.28370 0.07800
C 	C 	0.08070 0.78840 0.23800 0.09400
C 	C 	0.94440 0.75500 0.68800 0.15000
H 	H 	0.92300 0.77820 0.60460 -0.00900
C 	C 	0.93090 0.70680 0.69500 -0.20600
C 	C 	0.96290 0.67220 0.82000 0.16300
H 	H 	0.95380 0.63990 0.82470 0.00800
C 	C 	0.00830 0.68580 0.93900 -0.24000
H 	H 	0.02970 0.66260 0.02280 0.13800
C 	C 	0.02180 0.73400 0.93200 0.21100
C 	C 	0.98990 0.76860 0.80700 -0.23100
H 	H 	0.99890 0.80090 0.80270 0.11200
C 	C 	0.88120 0.69260 0.56500 0.55500
O 	O 	0.86260 0.65820 0.76100 -0.27500
Zn	Zn	0.71414 0.21692 0.63110 1.20500
O 	O 	0.75480 0.28350 0.60200 -0.74300
H 	H 	0.76690 0.30620 0.72500 0.16500
N 	N 	0.64560 0.24030 0.68600 -0.27200
C 	C 	0.60840 0.22060 0.53100 0.09800
H 	H 	0.60980 0.19100 0.41620 0.02000
N 	N 	0.56740 0.24730 0.55200 -0.16900
C 	C 	0.62920 0.28570 0.83000 0.02000
O 	O 	0.35790 0.22220 0.92700 -0.48600
C 	C 	0.65240 0.32150 0.02000 -0.10300
H 	H 	0.68490 0.31870 0.07670 0.04100
O 	O 	0.37680 0.15520 0.85500 -0.22200
C 	C 	0.62650 0.36170 0.12200 0.03600
C 	C 	0.64750 0.39860 0.31400 -0.08000
H 	H 	0.67990 0.39610 0.37330 0.06900
C 	C 	0.62250 0.43910 0.42000 -0.03000
H 	H 	0.63730 0.46360 0.54800 0.03200
C 	C 	0.57420 0.44150 0.32800 -0.02000
H 	H 	0.55600 0.46820 0.39420 0.03000
C 	C 	0.55280 0.40450 0.13900 -0.09800
H 	H 	0.52030 0.40680 0.08240 0.06100
C 	C 	0.57810 0.36410 0.03100 0.06100
C 	C 	0.55440 0.32850 0.84100 -0.14900
H 	H 	0.52190 0.33150 0.78370 0.08100
C 	C 	0.58070 0.28840 0.73800 0.09900
C 	C 	0.44440 0.25500 0.18800 0.14100
H 	H 	0.42300 0.27820 0.10460 -0.00900
C 	C 	0.43090 0.20680 0.19500 -0.19600
C 	C 	0.46290 0.17220 0.32000 0.15200
H 	H 	0.45380 0.13990 0.32470 0.01200
C 	C 	0.50830 0.18580 0.43900 -0.22700
H 	H 	0.52970 0.16260 0.52280 0.13200
C 	C 	0.52180 0.23400 0.43200 0.20800
C 	C 	0.48990 0.26860 0.30700 -0.22600
H 	H 	0.49890 0.30090 0.30270 0.11000
C 	C 	0.38120 0.19260 0.06500 0.52800
O 	O 	0.36260 0.15820 0.26100 -0.27500
Zn	Zn	0.78586 0.28308 0.13110 1.20800
O 	O 	0.74520 0.21650 0.10200 -0.73700
H 	H 	0.73310 0.19380 0.22500 0.16700
N 	N 	0.85440 0.25970 0.18600 -0.27400
C 	C 	0.89160 0.27940 0.03100 0.11200
H 	H 	0.89020 0.30900 0.91620 0.00900
N 	N 	0.93260 0.25270 0.05200 -0.17000
C 	C 	0.87080 0.21430 0.33000 0.03100
O 	O 	0.14210 0.27780 0.42700 -0.50400
C 	C 	0.84760 0.17850 0.52000 -0.11700
H 	H 	0.81510 0.18130 0.57670 0.04300
O 	O 	0.12320 0.34480 0.35500 -0.23500
C 	C 	0.87350 0.13830 0.62200 0.04200
C 	C 	0.85250 0.10140 0.81400 -0.08400
H 	H 	0.82010 0.10390 0.87330 0.06900
C 	C 	0.87750 0.06090 0.92000 -0.02800
H 	H 	0.86270 0.03640 0.04800 0.03300
C 	C 	0.92580 0.05850 0.82800 -0.02300
H 	H 	0.94400 0.03180 0.89420 0.03100
C 	C 	0.94720 0.09550 0.63900 -0.09400
H 	H 	0.97970 0.09320 0.58240 0.06000
C 	C 	0.92190 0.13590 0.53100 0.05400
C 	C 	0.94560 0.17150 0.34100 -0.14200
H 	H 	0.97810 0.16850 0.28370 0.07800
C 	C 	0.91930 0.21160 0.23800 0.09400
C 	C 	0.05560 0.24500 0.68800 0.15000
H 	H 	0.07700 0.22180 0.60460 -0.00900
C 	C 	0.06910 0.29320 0.69500 -0.20600
C 	C 	0.03710 0.32780 0.82000 0.16300
H 	H 	0.04620 0.36010 0.82470 0.00800
C 	C 	0.99170 0.31420 0.93900 -0.24000
H 	H 	0.97030 0.33740 0.02280 0.13800
C 	C 	0.97820 0.26600 0.93200 0.21100
C 	C 	0.01010 0.23140 0.80700 -0.23100
H 	H 	0.00110 0.19910 0.80270 0.11200
C 	C 	0.11880 0.30740 0.56500 0.55500
O 	O 	0.13740 0.34180 0.76100 -0.27500
Zn	Zn	0.28586 0.78308 0.63110 1.20500
O 	O 	0.24520 0.71650 0.60200 -0.74300
H 	H 	0.23310 0.69380 0.72500 0.16500
N 	N 	0.35440 0.75970 0.68600 -0.27200
C 	C 	0.39160 0.77940 0.53100 0.09800
H 	H 	0.39020 0.80900 0.41620 0.02000
N 	N 	0.43260 0.75270 0.55200 -0.16900
C 	C 	0.37080 0.71430 0.83000 0.02000
O 	O 	0.64210 0.77780 0.92700 -0.48600
C 	C 	0.34760 0.67850 0.02000 -0.10300
H 	H 	0.31510 0.68130 0.07670 0.04100
O 	O 	0.62320 0.84480 0.85500 -0.22200
C 	C 	0.37350 0.63830 0.12200 0.03600
C 	C 	0.35250 0.60140 0.31400 -0.08000
H 	H 	0.32010 0.60390 0.37330 0.06900
C 	C 	0.37750 0.56090 0.42000 -0.03000
H 	H 	0.36270 0.53640 0.54800 0.03200
C 	C 	0.42580 0.55850 0.32800 -0.02000
H 	H 	0.44400 0.53180 0.39420 0.03000
C 	C 	0.44720 0.59550 0.13900 -0.09800
H 	H 	0.47970 0.59320 0.08240 0.06100
C 	C 	0.42190 0.63590 0.03100 0.06100
C 	C 	0.44560 0.67150 0.84100 -0.14900
H 	H 	0.47810 0.66850 0.78370 0.08100
C 	C 	0.41930 0.71160 0.73800 0.09900
C 	C 	0.55560 0.74500 0.18800 0.14100
H 	H 	0.57700 0.72180 0.10460 -0.00900
C 	C 	0.56910 0.79320 0.19500 -0.19600
C 	C 	0.53710 0.82780 0.32000 0.15200
H 	H 	0.54620 0.86010 0.32470 0.01200
C 	C 	0.49170 0.81420 0.43900 -0.22700
H 	H 	0.47030 0.83740 0.52280 0.13200
C 	C 	0.47820 0.76600 0.43200 0.20800
C 	C 	0.51010 0.73140 0.30700 -0.22600
H 	H 	0.50110 0.69910 0.30270 0.11000
C 	C 	0.61880 0.80740 0.06500 0.52800
O 	O 	0.63740 0.84180 0.26100 -0.27500
