data_crystal

_cell_length_a 27.74710
_cell_length_b 27.74710
_cell_length_c 3.63230
_cell_angle_alpha 90.00000
_cell_angle_beta  90.00000
_cell_angle_gamma 90.00000

_symmetry_space_group_name_	'P 1'
_symmetry_space_group_name_H-M	'P 1'

loop_
_symmetry_equiv_pos_as_xyz
  x,y,z

loop_
_atom_site_label
_atom_site_type_symbol
_atom_site_fract_x
_atom_site_fract_y
_atom_site_fract_z
_atom_site_charge
Zn	Zn	0.28404 0.21392 0.85730 1.20700
N 	N 	0.25930 0.14540 0.78900 -0.27700
C 	C 	0.27990 0.10850 0.94600 0.10700
H 	H 	0.30990 0.11040 0.05860 0.01100
N 	N 	0.25370 0.06720 0.93100 -0.16700
C 	C 	0.21530 0.12900 0.65670 0.05300
O 	O 	0.27450 0.85880 0.60400 -0.50700
C 	C 	0.17900 0.15280 0.46900 -0.13600
H 	H 	0.18200 0.18530 0.41180 0.05500
O 	O 	0.34040 0.86190 0.27700 -0.26200
C 	C 	0.13820 0.12740 0.36910 0.06000
C 	C 	0.10080 0.14890 0.17800 -0.10100
H 	H 	0.10340 0.18130 0.11790 0.07800
C 	C 	0.05980 0.12410 0.07400 -0.01300
H 	H 	0.03520 0.13940 0.94480 0.02700
C 	C 	0.05650 0.07580 0.16800 -0.03600
H 	H 	0.02930 0.05820 0.10400 0.03600
C 	C 	0.09370 0.05370 0.35700 -0.08100
H 	H 	0.09110 0.02120 0.41590 0.05500
C 	C 	0.13500 0.07880 0.46180 0.04200
C 	C 	0.17110 0.05520 0.64900 -0.13200
H 	H 	0.16810 0.02270 0.70730 0.07400
C 	C 	0.21180 0.08050 0.74800 0.08300
C 	C 	0.24490 0.94540 0.31000 0.14300
H 	H 	0.22110 0.92460 0.39440 -0.00600
C 	C 	0.29290 0.93100 0.31300 -0.20100
C 	C 	0.32850 0.96210 0.18600 0.15800
H 	H 	0.36060 0.95250 0.18820 0.00700
C 	C 	0.31610 0.00760 0.05700 -0.23500
H 	H 	0.33990 0.02850 0.97240 0.13300
C 	C 	0.26810 0.02200 0.05400 0.20800
C 	C 	0.23250 0.99090 0.18000 -0.22600
H 	H 	0.20040 0.00050 0.17860 0.11100
C 	C 	0.30300 0.88040 0.44900 0.53700
O 	O 	0.28530 0.24690 0.36800 -0.73600
H 	H 	0.30830 0.23470 0.24400 0.14900
O 	O 	0.34320 0.87300 0.63200 -0.21700
Zn	Zn	0.71596 0.78608 0.85730 1.20600
N 	N 	0.74070 0.85460 0.78900 -0.27800
C 	C 	0.72010 0.89150 0.94600 0.10600
H 	H 	0.69010 0.88960 0.05860 0.01000
N 	N 	0.74630 0.93280 0.93100 -0.16800
C 	C 	0.78470 0.87100 0.65670 0.05200
O 	O 	0.72550 0.14120 0.60400 -0.50800
C 	C 	0.82100 0.84720 0.46900 -0.13700
H 	H 	0.81800 0.81470 0.41180 0.05500
O 	O 	0.65960 0.13810 0.27700 -0.26200
C 	C 	0.86180 0.87260 0.36910 0.06000
C 	C 	0.89920 0.85110 0.17800 -0.10100
H 	H 	0.89660 0.81870 0.11790 0.07800
C 	C 	0.94020 0.87590 0.07400 -0.01300
H 	H 	0.96480 0.86060 0.94480 0.02700
C 	C 	0.94350 0.92420 0.16800 -0.03600
H 	H 	0.97070 0.94180 0.10400 0.03600
C 	C 	0.90630 0.94630 0.35700 -0.08100
H 	H 	0.90890 0.97880 0.41590 0.05500
C 	C 	0.86500 0.92120 0.46180 0.04200
C 	C 	0.82890 0.94480 0.64900 -0.13200
H 	H 	0.83190 0.97730 0.70730 0.07400
C 	C 	0.78820 0.91950 0.74800 0.08300
C 	C 	0.75510 0.05460 0.31000 0.14300
H 	H 	0.77890 0.07540 0.39440 -0.00600
C 	C 	0.70710 0.06900 0.31300 -0.20100
C 	C 	0.67150 0.03790 0.18600 0.15800
H 	H 	0.63940 0.04750 0.18820 0.00700
C 	C 	0.68390 0.99240 0.05700 -0.23500
H 	H 	0.66010 0.97150 0.97240 0.13300
C 	C 	0.73190 0.97800 0.05400 0.20800
C 	C 	0.76750 0.00910 0.18000 -0.22600
H 	H 	0.79960 0.99950 0.17860 0.11100
C 	C 	0.69700 0.11960 0.44900 0.53700
O 	O 	0.71470 0.75310 0.36800 -0.73600
H 	H 	0.69170 0.76530 0.24400 0.14900
O 	O 	0.65680 0.12700 0.63200 -0.21700
Zn	Zn	0.71392 0.21596 0.64270 1.20300
N 	N 	0.64540 0.24070 0.71100 -0.27600
C 	C 	0.60850 0.22010 0.55400 0.09500
H 	H 	0.61040 0.19010 0.44140 0.01900
N 	N 	0.56720 0.24630 0.56900 -0.16700
C 	C 	0.62900 0.28470 0.84330 0.04200
O 	O 	0.35880 0.22550 0.89600 -0.49200
C 	C 	0.65280 0.32100 0.03100 -0.12400
H 	H 	0.68530 0.31800 0.08820 0.05300
O 	O 	0.36190 0.15960 0.22300 -0.26300
C 	C 	0.62740 0.36180 0.13090 0.05400
C 	C 	0.64890 0.39920 0.32200 -0.09600
H 	H 	0.68130 0.39660 0.38210 0.07800
C 	C 	0.62410 0.44020 0.42600 -0.01400
H 	H 	0.63940 0.46480 0.55520 0.02700
C 	C 	0.57580 0.44350 0.33200 -0.03400
H 	H 	0.55820 0.47070 0.39600 0.03500
C 	C 	0.55370 0.40630 0.14300 -0.08400
H 	H 	0.52120 0.40890 0.08410 0.05600
C 	C 	0.57880 0.36500 0.03820 0.04900
C 	C 	0.55520 0.32890 0.85100 -0.14000
H 	H 	0.52270 0.33190 0.79270 0.07700
C 	C 	0.58050 0.28820 0.75200 0.08900
C 	C 	0.44540 0.25510 0.19000 0.13500
H 	H 	0.42460 0.27890 0.10560 -0.00700
C 	C 	0.43100 0.20710 0.18700 -0.19300
C 	C 	0.46210 0.17150 0.31400 0.14900
H 	H 	0.45250 0.13940 0.31180 0.01000
C 	C 	0.50760 0.18390 0.44300 -0.22600
H 	H 	0.52850 0.16010 0.52760 0.12900
C 	C 	0.52200 0.23190 0.44600 0.20600
C 	C 	0.49090 0.26750 0.32000 -0.22200
H 	H 	0.50050 0.29960 0.32140 0.10900
C 	C 	0.38040 0.19700 0.05100 0.51200
O 	O 	0.74690 0.21470 0.13200 -0.73100
H 	H 	0.73470 0.19170 0.25600 0.15200
O 	O 	0.37300 0.15680 0.86800 -0.20500
Zn	Zn	0.28608 0.78404 0.64270 1.20300
N 	N 	0.35460 0.75930 0.71100 -0.27600
C 	C 	0.39150 0.77990 0.55400 0.09500
H 	H 	0.38960 0.80990 0.44140 0.01900
N 	N 	0.43280 0.75370 0.56900 -0.16700
C 	C 	0.37100 0.71530 0.84330 0.04200
O 	O 	0.64120 0.77450 0.89600 -0.49200
C 	C 	0.34720 0.67900 0.03100 -0.12400
H 	H 	0.31470 0.68200 0.08820 0.05300
O 	O 	0.63810 0.84040 0.22300 -0.26300
C 	C 	0.37260 0.63820 0.13090 0.05400
C 	C 	0.35110 0.60080 0.32200 -0.09600
H 	H 	0.31870 0.60340 0.38210 0.07800
C 	C 	0.37590 0.55980 0.42600 -0.01400
H 	H 	0.36060 0.53520 0.55520 0.02700
C 	C 	0.42420 0.55650 0.33200 -0.03400
H 	H 	0.44180 0.52930 0.39600 0.03500
C 	C 	0.44630 0.59370 0.14300 -0.08400
H 	H 	0.47880 0.59110 0.08410 0.05600
C 	C 	0.42120 0.63500 0.03820 0.04900
C 	C 	0.44480 0.67110 0.85100 -0.14000
H 	H 	0.47730 0.66810 0.79270 0.07700
C 	C 	0.41950 0.71180 0.75200 0.08900
C 	C 	0.55460 0.74490 0.19000 0.13500
H 	H 	0.57540 0.72110 0.10560 -0.00700
C 	C 	0.56900 0.79290 0.18700 -0.19300
C 	C 	0.53790 0.82850 0.31400 0.14900
H 	H 	0.54750 0.86060 0.31180 0.01000
C 	C 	0.49240 0.81610 0.44300 -0.22600
H 	H 	0.47150 0.83990 0.52760 0.12900
C 	C 	0.47800 0.76810 0.44600 0.20600
C 	C 	0.50910 0.73250 0.32000 -0.22200
H 	H 	0.49950 0.70040 0.32140 0.10900
C 	C 	0.61960 0.80300 0.05100 0.51200
O 	O 	0.25310 0.78530 0.13200 -0.73100
H 	H 	0.26530 0.80830 0.25600 0.15200
O 	O 	0.62700 0.84320 0.86800 -0.20500
Zn	Zn	0.78404 0.71392 0.35730 1.20300
N 	N 	0.75930 0.64540 0.28900 -0.27600
C 	C 	0.77990 0.60850 0.44600 0.09500
H 	H 	0.80990 0.61040 0.55860 0.01900
N 	N 	0.75370 0.56720 0.43100 -0.16700
C 	C 	0.71530 0.62900 0.15670 0.04200
O 	O 	0.77450 0.35880 0.10400 -0.49200
C 	C 	0.67900 0.65280 0.96900 -0.12400
H 	H 	0.68200 0.68530 0.91180 0.05300
O 	O 	0.84040 0.36190 0.77700 -0.26300
C 	C 	0.63820 0.62740 0.86910 0.05400
C 	C 	0.60080 0.64890 0.67800 -0.09600
H 	H 	0.60340 0.68130 0.61790 0.07800
C 	C 	0.55980 0.62410 0.57400 -0.01400
H 	H 	0.53520 0.63940 0.44480 0.02700
C 	C 	0.55650 0.57580 0.66800 -0.03400
H 	H 	0.52930 0.55820 0.60400 0.03500
C 	C 	0.59370 0.55370 0.85700 -0.08400
H 	H 	0.59110 0.52120 0.91590 0.05600
C 	C 	0.63500 0.57880 0.96180 0.04900
C 	C 	0.67110 0.55520 0.14900 -0.14000
H 	H 	0.66810 0.52270 0.20730 0.07700
C 	C 	0.71180 0.58050 0.24800 0.08900
C 	C 	0.74490 0.44540 0.81000 0.13500
H 	H 	0.72110 0.42460 0.89440 -0.00700
C 	C 	0.79290 0.43100 0.81300 -0.19300
C 	C 	0.82850 0.46210 0.68600 0.14900
H 	H 	0.86060 0.45250 0.68820 0.01000
C 	C 	0.81610 0.50760 0.55700 -0.22600
H 	H 	0.83990 0.52850 0.47240 0.12900
C 	C 	0.76810 0.52200 0.55400 0.20600
C 	C 	0.73250 0.49090 0.68000 -0.22200
H 	H 	0.70040 0.50050 0.67860 0.10900
C 	C 	0.80300 0.38040 0.94900 0.51200
O 	O 	0.78530 0.74690 0.86800 -0.73100
H 	H 	0.80830 0.73470 0.74400 0.15200
O 	O 	0.84320 0.37300 0.13200 -0.20500
Zn	Zn	0.21596 0.28608 0.35730 1.20300
N 	N 	0.24070 0.35460 0.28900 -0.27600
C 	C 	0.22010 0.39150 0.44600 0.09500
H 	H 	0.19010 0.38960 0.55860 0.01900
N 	N 	0.24630 0.43280 0.43100 -0.16700
C 	C 	0.28470 0.37100 0.15670 0.04200
O 	O 	0.22550 0.64120 0.10400 -0.49200
C 	C 	0.32100 0.34720 0.96900 -0.12400
H 	H 	0.31800 0.31470 0.91180 0.05300
O 	O 	0.15960 0.63810 0.77700 -0.26300
C 	C 	0.36180 0.37260 0.86910 0.05400
C 	C 	0.39920 0.35110 0.67800 -0.09600
H 	H 	0.39660 0.31870 0.61790 0.07800
C 	C 	0.44020 0.37590 0.57400 -0.01400
H 	H 	0.46480 0.36060 0.44480 0.02700
C 	C 	0.44350 0.42420 0.66800 -0.03400
H 	H 	0.47070 0.44180 0.60400 0.03500
C 	C 	0.40630 0.44630 0.85700 -0.08400
H 	H 	0.40890 0.47880 0.91590 0.05600
C 	C 	0.36500 0.42120 0.96180 0.04900
C 	C 	0.32890 0.44480 0.14900 -0.14000
H 	H 	0.33190 0.47730 0.20730 0.07700
C 	C 	0.28820 0.41950 0.24800 0.08900
C 	C 	0.25510 0.55460 0.81000 0.13500
H 	H 	0.27890 0.57540 0.89440 -0.00700
C 	C 	0.20710 0.56900 0.81300 -0.19300
C 	C 	0.17150 0.53790 0.68600 0.14900
H 	H 	0.13940 0.54750 0.68820 0.01000
C 	C 	0.18390 0.49240 0.55700 -0.22600
H 	H 	0.16010 0.47150 0.47240 0.12900
C 	C 	0.23190 0.47800 0.55400 0.20600
C 	C 	0.26750 0.50910 0.68000 -0.22200
H 	H 	0.29960 0.49950 0.67860 0.10900
C 	C 	0.19700 0.61960 0.94900 0.51200
O 	O 	0.21470 0.25310 0.86800 -0.73100
H 	H 	0.19170 0.26530 0.74400 0.15200
O 	O 	0.15680 0.62700 0.13200 -0.20500
Zn	Zn	0.21392 0.71596 0.14270 1.20600
N 	N 	0.14540 0.74070 0.21100 -0.27800
C 	C 	0.10850 0.72010 0.05400 0.10600
H 	H 	0.11040 0.69010 0.94140 0.01000
N 	N 	0.06720 0.74630 0.06900 -0.16800
C 	C 	0.12900 0.78470 0.34330 0.05200
O 	O 	0.85880 0.72550 0.39600 -0.50800
C 	C 	0.15280 0.82100 0.53100 -0.13700
H 	H 	0.18530 0.81800 0.58820 0.05500
O 	O 	0.86190 0.65960 0.72300 -0.26200
C 	C 	0.12740 0.86180 0.63090 0.06000
C 	C 	0.14890 0.89920 0.82200 -0.10100
H 	H 	0.18130 0.89660 0.88210 0.07800
C 	C 	0.12410 0.94020 0.92600 -0.01300
H 	H 	0.13940 0.96480 0.05520 0.02700
C 	C 	0.07580 0.94350 0.83200 -0.03600
H 	H 	0.05820 0.97070 0.89600 0.03600
C 	C 	0.05370 0.90630 0.64300 -0.08100
H 	H 	0.02120 0.90890 0.58410 0.05500
C 	C 	0.07880 0.86500 0.53820 0.04200
C 	C 	0.05520 0.82890 0.35100 -0.13200
H 	H 	0.02270 0.83190 0.29270 0.07400
C 	C 	0.08050 0.78820 0.25200 0.08300
C 	C 	0.94540 0.75510 0.69000 0.14300
H 	H 	0.92460 0.77890 0.60560 -0.00600
C 	C 	0.93100 0.70710 0.68700 -0.20100
C 	C 	0.96210 0.67150 0.81400 0.15800
H 	H 	0.95250 0.63940 0.81180 0.00700
C 	C 	0.00760 0.68390 0.94300 -0.23500
H 	H 	0.02850 0.66010 0.02760 0.13300
C 	C 	0.02200 0.73190 0.94600 0.20800
C 	C 	0.99090 0.76750 0.82000 -0.22600
H 	H 	0.00050 0.79960 0.82140 0.11100
C 	C 	0.88040 0.69700 0.55100 0.53700
O 	O 	0.24690 0.71470 0.63200 -0.73600
H 	H 	0.23470 0.69170 0.75600 0.14900
O 	O 	0.87300 0.65680 0.36800 -0.21700
Zn	Zn	0.78608 0.28404 0.14270 1.20600
N 	N 	0.85460 0.25930 0.21100 -0.27800
C 	C 	0.89150 0.27990 0.05400 0.10600
H 	H 	0.88960 0.30990 0.94140 0.01000
N 	N 	0.93280 0.25370 0.06900 -0.16800
C 	C 	0.87100 0.21530 0.34330 0.05200
O 	O 	0.14120 0.27450 0.39600 -0.50800
C 	C 	0.84720 0.17900 0.53100 -0.13700
H 	H 	0.81470 0.18200 0.58820 0.05500
O 	O 	0.13810 0.34040 0.72300 -0.26200
C 	C 	0.87260 0.13820 0.63090 0.06000
C 	C 	0.85110 0.10080 0.82200 -0.10100
H 	H 	0.81870 0.10340 0.88210 0.07800
C 	C 	0.87590 0.05980 0.92600 -0.01300
H 	H 	0.86060 0.03520 0.05520 0.02700
C 	C 	0.92420 0.05650 0.83200 -0.03600
H 	H 	0.94180 0.02930 0.89600 0.03600
C 	C 	0.94630 0.09370 0.64300 -0.08100
H 	H 	0.97880 0.09110 0.58410 0.05500
C 	C 	0.92120 0.13500 0.53820 0.04200
C 	C 	0.94480 0.17110 0.35100 -0.13200
H 	H 	0.97730 0.16810 0.29270 0.07400
C 	C 	0.91950 0.21180 0.25200 0.08300
C 	C 	0.05460 0.24490 0.69000 0.14300
H 	H 	0.07540 0.22110 0.60560 -0.00600
C 	C 	0.06900 0.29290 0.68700 -0.20100
C 	C 	0.03790 0.32850 0.81400 0.15800
H 	H 	0.04750 0.36060 0.81180 0.00700
C 	C 	0.99240 0.31610 0.94300 -0.23500
H 	H 	0.97150 0.33990 0.02760 0.13300
C 	C 	0.97800 0.26810 0.94600 0.20800
C 	C 	0.00910 0.23250 0.82000 -0.22600
H 	H 	0.99950 0.20040 0.82140 0.11100
C 	C 	0.11960 0.30300 0.55100 0.53700
O 	O 	0.75310 0.28530 0.63200 -0.73600
H 	H 	0.76530 0.30830 0.75600 0.14900
O 	O 	0.12700 0.34320 0.36800 -0.21700
