data_crystal

_cell_length_a 26.56400
_cell_length_b 26.56400
_cell_length_c 5.02400
_cell_angle_alpha 90.00000
_cell_angle_beta  90.00000
_cell_angle_gamma 90.00000

_symmetry_space_group_name_	'P 1'
_symmetry_space_group_name_H-M	'P 1'

loop_
_symmetry_equiv_pos_as_xyz
  x,y,z

loop_
_atom_site_label
_atom_site_type_symbol
_atom_site_fract_x
_atom_site_fract_y
_atom_site_fract_z
_atom_site_charge
Zn	Zn	0.27318 0.21387 0.90550 1.23400
O 	O 	0.21960 0.25340 0.07800 -0.99300
H 	H 	0.19860 0.26450 0.96430 0.38700
N 	N 	0.25710 0.14070 0.89400 -0.35900
C 	C 	0.27100 0.10300 0.04400 0.50100
H 	H 	0.29680 0.10490 0.16870 -0.09500
N 	N 	0.24360 0.06080 0.99700 -0.35900
C 	C 	0.21400 0.12020 0.72500 -0.01000
O 	O 	0.27650 0.83410 0.37700 -0.47100
C 	C 	0.18430 0.14220 0.53100 0.10800
H 	H 	0.18910 0.17570 0.48340 0.01100
O 	O 	0.31200 0.87740 0.68700 -0.44900
C 	C 	0.14750 0.11370 0.40900 -0.14500
C 	C 	0.11730 0.13470 0.21400 0.28800
H 	H 	0.12250 0.16820 0.16820 -0.09100
C 	C 	0.07990 0.10820 0.08600 -0.38300
H 	H 	0.05990 0.12270 0.95470 0.08300
C 	C 	0.07430 0.05880 0.16400 0.24500
H 	H 	0.04960 0.03910 0.08330 -0.07600
C 	C 	0.10440 0.03790 0.35800 -0.41800
H 	H 	0.09920 0.00440 0.40440 0.12100
C 	C 	0.14190 0.06430 0.48670 0.23700
C 	C 	0.17140 0.04210 0.68100 -0.31800
H 	H 	0.16730 0.00840 0.72530 0.14300
C 	C 	0.20700 0.07130 0.80800 0.21700
C 	C 	0.25780 0.01310 0.11600 0.12200
C 	C 	0.28430 0.92270 0.33300 0.49700
C 	C 	0.28030 0.01110 0.36400 16.69700
H 	H 	0.28630 0.04090 0.45560 -5.77300
C 	C 	0.29390 0.96600 0.47700 -15.43100
H 	H 	0.30890 0.96470 0.64390 5.38900
C 	C 	0.26190 0.92300 0.08600 -12.88300
H 	H 	0.25580 0.89320 0.99410 4.30500
C 	C 	0.24900 0.96900 0.98000 13.86400
H 	H 	0.23400 0.97030 0.81250 -4.80700
C 	C 	0.30220 0.87250 0.44100 0.17100
O 	O 	0.34200 0.86900 0.57200 -0.08000
C 	C 	0.30760 0.00320 0.16700 -16.30400
H 	H 	0.33180 0.02740 0.12740 5.75100
C 	C 	0.32250 0.95730 0.27800 14.82000
H 	H 	0.35610 0.95020 0.31400 -5.16100
C 	C 	0.23270 0.92930 0.28700 13.11600
H 	H 	0.20840 0.90520 0.32570 -4.59900
C 	C 	0.22210 0.97640 0.17700 -13.90200
H 	H 	0.18860 0.98390 0.14130 4.86100
Zn	Zn	0.77318 0.71387 0.40550 1.21900
O 	O 	0.71960 0.75340 0.57800 -0.80400
H 	H 	0.69860 0.76450 0.46430 0.28200
N 	N 	0.75710 0.64070 0.39400 -0.28800
C 	C 	0.77100 0.60300 0.54400 0.10000
H 	H 	0.79680 0.60490 0.66870 0.02000
N 	N 	0.74360 0.56080 0.49700 -0.15000
C 	C 	0.71400 0.62020 0.22500 0.05800
O 	O 	0.77650 0.33410 0.87700 -0.56600
C 	C 	0.68430 0.64220 0.03100 -0.32900
H 	H 	0.68910 0.67570 0.98340 0.16500
O 	O 	0.81200 0.37740 0.18700 -0.31600
C 	C 	0.64750 0.61370 0.90900 0.17400
C 	C 	0.61730 0.63470 0.71400 -0.13900
H 	H 	0.62250 0.66820 0.66820 0.06700
C 	C 	0.57990 0.60820 0.58600 0.02200
H 	H 	0.55990 0.62270 0.45470 -0.02800
C 	C 	0.57430 0.55880 0.66400 -0.04700
H 	H 	0.54960 0.53910 0.58330 0.03000
C 	C 	0.60440 0.53790 0.85800 -0.14600
H 	H 	0.59920 0.50440 0.90440 0.06800
C 	C 	0.64190 0.56430 0.98670 0.10800
C 	C 	0.67140 0.54210 0.18100 -0.23800
H 	H 	0.66730 0.50840 0.22530 0.10600
C 	C 	0.70700 0.57130 0.30800 0.09000
C 	C 	0.75780 0.51310 0.61600 0.04300
C 	C 	0.78430 0.42270 0.83300 -0.10500
C 	C 	0.78030 0.51110 0.86400 4.13200
H 	H 	0.78630 0.54090 0.95560 -1.32000
C 	C 	0.79390 0.46600 0.97700 -3.38800
H 	H 	0.80890 0.46470 0.14390 1.08400
C 	C 	0.76190 0.42300 0.58600 -4.30600
H 	H 	0.75580 0.39320 0.49410 1.50900
C 	C 	0.74900 0.46900 0.48000 4.66200
H 	H 	0.73400 0.47030 0.31250 -1.63500
C 	C 	0.80220 0.37250 0.94100 0.65300
O 	O 	0.84200 0.36900 0.07200 -0.40500
C 	C 	0.80760 0.50320 0.66700 -4.26400
H 	H 	0.83180 0.52740 0.62740 1.52800
C 	C 	0.82250 0.45730 0.77800 3.67600
H 	H 	0.85610 0.45020 0.81400 -1.20400
C 	C 	0.73270 0.42930 0.78700 4.32600
H 	H 	0.70840 0.40520 0.82570 -1.50400
C 	C 	0.72210 0.47640 0.67700 -4.61700
H 	H 	0.68860 0.48390 0.64130 1.62800
Zn	Zn	0.72682 0.78613 0.90550 1.23300
O 	O 	0.78040 0.74660 0.07800 -0.99400
H 	H 	0.80140 0.73550 0.96430 0.38600
N 	N 	0.74290 0.85930 0.89400 -0.36000
C 	C 	0.72900 0.89700 0.04400 0.50000
H 	H 	0.70320 0.89510 0.16870 -0.09600
N 	N 	0.75640 0.93920 0.99700 -0.36000
C 	C 	0.78600 0.87980 0.72500 -0.01100
O 	O 	0.72350 0.16590 0.37700 -0.47200
C 	C 	0.81570 0.85780 0.53100 0.10700
H 	H 	0.81090 0.82430 0.48340 0.01000
O 	O 	0.68800 0.12260 0.68700 -0.45000
C 	C 	0.85250 0.88630 0.40900 -0.14600
C 	C 	0.88270 0.86530 0.21400 0.28700
H 	H 	0.87750 0.83180 0.16820 -0.09200
C 	C 	0.92010 0.89180 0.08600 -0.38400
H 	H 	0.94010 0.87730 0.95470 0.08300
C 	C 	0.92570 0.94120 0.16400 0.24500
H 	H 	0.95040 0.96090 0.08330 -0.07600
C 	C 	0.89560 0.96210 0.35800 -0.41800
H 	H 	0.90080 0.99560 0.40440 0.12100
C 	C 	0.85810 0.93570 0.48670 0.23700
C 	C 	0.82860 0.95790 0.68100 -0.31800
H 	H 	0.83270 0.99160 0.72530 0.14300
C 	C 	0.79300 0.92870 0.80800 0.21700
C 	C 	0.74220 0.98690 0.11600 0.12200
C 	C 	0.71570 0.07730 0.33300 0.49700
C 	C 	0.71970 0.98890 0.36400 16.69700
H 	H 	0.71370 0.95910 0.45560 -5.77300
C 	C 	0.70610 0.03400 0.47700 -15.43100
H 	H 	0.69110 0.03530 0.64390 5.38900
C 	C 	0.73810 0.07700 0.08600 -12.88300
H 	H 	0.74420 0.10680 0.99410 4.30500
C 	C 	0.75100 0.03100 0.98000 13.86400
H 	H 	0.76600 0.02970 0.81250 -4.80700
C 	C 	0.69780 0.12750 0.44100 0.17100
O 	O 	0.65800 0.13100 0.57200 -0.08000
C 	C 	0.69240 0.99680 0.16700 -16.30400
H 	H 	0.66820 0.97260 0.12740 5.75100
C 	C 	0.67750 0.04270 0.27800 14.82000
H 	H 	0.64390 0.04980 0.31400 -5.16100
C 	C 	0.76730 0.07070 0.28700 13.11600
H 	H 	0.79160 0.09480 0.32570 -4.59900
C 	C 	0.77790 0.02360 0.17700 -13.90200
H 	H 	0.81140 0.01610 0.14130 4.86100
Zn	Zn	0.22682 0.28613 0.40550 1.21900
O 	O 	0.28040 0.24660 0.57800 -0.80400
H 	H 	0.30140 0.23550 0.46430 0.28200
N 	N 	0.24290 0.35930 0.39400 -0.28800
C 	C 	0.22900 0.39700 0.54400 0.10000
H 	H 	0.20320 0.39510 0.66870 0.02000
N 	N 	0.25640 0.43920 0.49700 -0.15000
C 	C 	0.28600 0.37980 0.22500 0.05800
O 	O 	0.22350 0.66590 0.87700 -0.56600
C 	C 	0.31570 0.35780 0.03100 -0.32900
H 	H 	0.31090 0.32430 0.98340 0.16500
O 	O 	0.18800 0.62260 0.18700 -0.31600
C 	C 	0.35250 0.38630 0.90900 0.17400
C 	C 	0.38270 0.36530 0.71400 -0.13900
H 	H 	0.37750 0.33180 0.66820 0.06700
C 	C 	0.42010 0.39180 0.58600 0.02200
H 	H 	0.44010 0.37730 0.45470 -0.02800
C 	C 	0.42570 0.44120 0.66400 -0.04700
H 	H 	0.45040 0.46090 0.58330 0.03000
C 	C 	0.39560 0.46210 0.85800 -0.14600
H 	H 	0.40080 0.49560 0.90440 0.06800
C 	C 	0.35810 0.43570 0.98670 0.10800
C 	C 	0.32860 0.45790 0.18100 -0.23800
H 	H 	0.33270 0.49160 0.22530 0.10600
C 	C 	0.29300 0.42870 0.30800 0.09000
C 	C 	0.24220 0.48690 0.61600 0.04300
C 	C 	0.21570 0.57730 0.83300 -0.10500
C 	C 	0.21970 0.48890 0.86400 4.13200
H 	H 	0.21370 0.45910 0.95560 -1.32000
C 	C 	0.20610 0.53400 0.97700 -3.38800
H 	H 	0.19110 0.53530 0.14390 1.08400
C 	C 	0.23810 0.57700 0.58600 -4.30600
H 	H 	0.24420 0.60680 0.49410 1.50900
C 	C 	0.25100 0.53100 0.48000 4.66200
H 	H 	0.26600 0.52970 0.31250 -1.63500
C 	C 	0.19780 0.62750 0.94100 0.65300
O 	O 	0.15800 0.63100 0.07200 -0.40500
C 	C 	0.19240 0.49680 0.66700 -4.26400
H 	H 	0.16820 0.47260 0.62740 1.52800
C 	C 	0.17750 0.54270 0.77800 3.67600
H 	H 	0.14390 0.54980 0.81400 -1.20400
C 	C 	0.26730 0.57070 0.78700 4.32600
H 	H 	0.29160 0.59480 0.82570 -1.50400
C 	C 	0.27790 0.52360 0.67700 -4.61700
H 	H 	0.31140 0.51610 0.64130 1.62800
Zn	Zn	0.21387 0.72682 0.09450 1.23300
O 	O 	0.25340 0.78040 0.92200 -0.99400
H 	H 	0.26450 0.80140 0.03570 0.38600
N 	N 	0.14070 0.74290 0.10600 -0.36000
C 	C 	0.10300 0.72900 0.95600 0.50000
H 	H 	0.10490 0.70320 0.83130 -0.09600
N 	N 	0.06080 0.75640 0.00300 -0.36000
C 	C 	0.12020 0.78600 0.27500 -0.01100
O 	O 	0.83410 0.72350 0.62300 -0.47200
C 	C 	0.14220 0.81570 0.46900 0.10700
H 	H 	0.17570 0.81090 0.51660 0.01000
O 	O 	0.87740 0.68800 0.31300 -0.45000
C 	C 	0.11370 0.85250 0.59100 -0.14600
C 	C 	0.13470 0.88270 0.78600 0.28700
H 	H 	0.16820 0.87750 0.83180 -0.09200
C 	C 	0.10820 0.92010 0.91400 -0.38400
H 	H 	0.12270 0.94010 0.04530 0.08300
C 	C 	0.05880 0.92570 0.83600 0.24500
H 	H 	0.03910 0.95040 0.91670 -0.07600
C 	C 	0.03790 0.89560 0.64200 -0.41800
H 	H 	0.00440 0.90080 0.59560 0.12100
C 	C 	0.06430 0.85810 0.51330 0.23700
C 	C 	0.04210 0.82860 0.31900 -0.31800
H 	H 	0.00840 0.83270 0.27470 0.14300
C 	C 	0.07130 0.79300 0.19200 0.21700
C 	C 	0.01310 0.74220 0.88400 0.12200
C 	C 	0.92270 0.71570 0.66700 0.49700
C 	C 	0.01110 0.71970 0.63600 16.69700
H 	H 	0.04090 0.71370 0.54440 -5.77300
C 	C 	0.96600 0.70610 0.52300 -15.43100
H 	H 	0.96470 0.69110 0.35610 5.38900
C 	C 	0.92300 0.73810 0.91400 -12.88300
H 	H 	0.89320 0.74420 0.00590 4.30500
C 	C 	0.96900 0.75100 0.02000 13.86400
H 	H 	0.97030 0.76600 0.18750 -4.80700
C 	C 	0.87250 0.69780 0.55900 0.17100
O 	O 	0.86900 0.65800 0.42800 -0.08000
C 	C 	0.00320 0.69240 0.83300 -16.30400
H 	H 	0.02740 0.66820 0.87260 5.75100
C 	C 	0.95730 0.67750 0.72200 14.82000
H 	H 	0.95020 0.64390 0.68600 -5.16100
C 	C 	0.92930 0.76730 0.71300 13.11600
H 	H 	0.90520 0.79160 0.67430 -4.59900
C 	C 	0.97640 0.77790 0.82300 -13.90200
H 	H 	0.98390 0.81140 0.85870 4.86100
Zn	Zn	0.71387 0.22682 0.59450 1.21900
O 	O 	0.75340 0.28040 0.42200 -0.80400
H 	H 	0.76450 0.30140 0.53570 0.28200
N 	N 	0.64070 0.24290 0.60600 -0.28800
C 	C 	0.60300 0.22900 0.45600 0.10000
H 	H 	0.60490 0.20320 0.33130 0.02000
N 	N 	0.56080 0.25640 0.50300 -0.15000
C 	C 	0.62020 0.28600 0.77500 0.05800
O 	O 	0.33410 0.22350 0.12300 -0.56600
C 	C 	0.64220 0.31570 0.96900 -0.32900
H 	H 	0.67570 0.31090 0.01660 0.16500
O 	O 	0.37740 0.18800 0.81300 -0.31600
C 	C 	0.61370 0.35250 0.09100 0.17400
C 	C 	0.63470 0.38270 0.28600 -0.13900
H 	H 	0.66820 0.37750 0.33180 0.06700
C 	C 	0.60820 0.42010 0.41400 0.02200
H 	H 	0.62270 0.44010 0.54530 -0.02800
C 	C 	0.55880 0.42570 0.33600 -0.04700
H 	H 	0.53910 0.45040 0.41670 0.03000
C 	C 	0.53790 0.39560 0.14200 -0.14600
H 	H 	0.50440 0.40080 0.09560 0.06800
C 	C 	0.56430 0.35810 0.01330 0.10800
C 	C 	0.54210 0.32860 0.81900 -0.23800
H 	H 	0.50840 0.33270 0.77470 0.10600
C 	C 	0.57130 0.29300 0.69200 0.09000
C 	C 	0.51310 0.24220 0.38400 0.04300
C 	C 	0.42270 0.21570 0.16700 -0.10500
C 	C 	0.51110 0.21970 0.13600 4.13200
H 	H 	0.54090 0.21370 0.04440 -1.32000
C 	C 	0.46600 0.20610 0.02300 -3.38800
H 	H 	0.46470 0.19110 0.85610 1.08400
C 	C 	0.42300 0.23810 0.41400 -4.30600
H 	H 	0.39320 0.24420 0.50590 1.50900
C 	C 	0.46900 0.25100 0.52000 4.66200
H 	H 	0.47030 0.26600 0.68750 -1.63500
C 	C 	0.37250 0.19780 0.05900 0.65300
O 	O 	0.36900 0.15800 0.92800 -0.40500
C 	C 	0.50320 0.19240 0.33300 -4.26400
H 	H 	0.52740 0.16820 0.37260 1.52800
C 	C 	0.45730 0.17750 0.22200 3.67600
H 	H 	0.45020 0.14390 0.18600 -1.20400
C 	C 	0.42930 0.26730 0.21300 4.32600
H 	H 	0.40520 0.29160 0.17430 -1.50400
C 	C 	0.47640 0.27790 0.32300 -4.61700
H 	H 	0.48390 0.31140 0.35870 1.62800
Zn	Zn	0.78613 0.27318 0.09450 1.23300
O 	O 	0.74660 0.21960 0.92200 -0.99400
H 	H 	0.73550 0.19860 0.03570 0.38600
N 	N 	0.85930 0.25710 0.10600 -0.36000
C 	C 	0.89700 0.27100 0.95600 0.50000
H 	H 	0.89510 0.29680 0.83130 -0.09600
N 	N 	0.93920 0.24360 0.00300 -0.36000
C 	C 	0.87980 0.21400 0.27500 -0.01100
O 	O 	0.16590 0.27650 0.62300 -0.47200
C 	C 	0.85780 0.18430 0.46900 0.10700
H 	H 	0.82430 0.18910 0.51660 0.01000
O 	O 	0.12260 0.31200 0.31300 -0.45000
C 	C 	0.88630 0.14750 0.59100 -0.14600
C 	C 	0.86530 0.11730 0.78600 0.28700
H 	H 	0.83180 0.12250 0.83180 -0.09200
C 	C 	0.89180 0.07990 0.91400 -0.38400
H 	H 	0.87730 0.05990 0.04530 0.08300
C 	C 	0.94120 0.07430 0.83600 0.24500
H 	H 	0.96090 0.04960 0.91670 -0.07600
C 	C 	0.96210 0.10440 0.64200 -0.41800
H 	H 	0.99560 0.09920 0.59560 0.12100
C 	C 	0.93570 0.14190 0.51330 0.23700
C 	C 	0.95790 0.17140 0.31900 -0.31800
H 	H 	0.99160 0.16730 0.27470 0.14300
C 	C 	0.92870 0.20700 0.19200 0.21700
C 	C 	0.98690 0.25780 0.88400 0.12200
C 	C 	0.07730 0.28430 0.66700 0.49700
C 	C 	0.98890 0.28030 0.63600 16.69700
H 	H 	0.95910 0.28630 0.54440 -5.77300
C 	C 	0.03400 0.29390 0.52300 -15.43100
H 	H 	0.03530 0.30890 0.35610 5.38900
C 	C 	0.07700 0.26190 0.91400 -12.88300
H 	H 	0.10680 0.25580 0.00590 4.30500
C 	C 	0.03100 0.24900 0.02000 13.86400
H 	H 	0.02970 0.23400 0.18750 -4.80700
C 	C 	0.12750 0.30220 0.55900 0.17100
O 	O 	0.13100 0.34200 0.42800 -0.08000
C 	C 	0.99680 0.30760 0.83300 -16.30400
H 	H 	0.97260 0.33180 0.87260 5.75100
C 	C 	0.04270 0.32250 0.72200 14.82000
H 	H 	0.04980 0.35610 0.68600 -5.16100
C 	C 	0.07070 0.23270 0.71300 13.11600
H 	H 	0.09480 0.20840 0.67430 -4.59900
C 	C 	0.02360 0.22210 0.82300 -13.90200
H 	H 	0.01610 0.18860 0.85870 4.86100
Zn	Zn	0.28613 0.77318 0.59450 1.21900
O 	O 	0.24660 0.71960 0.42200 -0.80400
H 	H 	0.23550 0.69860 0.53570 0.28200
N 	N 	0.35930 0.75710 0.60600 -0.28800
C 	C 	0.39700 0.77100 0.45600 0.10000
H 	H 	0.39510 0.79680 0.33130 0.02000
N 	N 	0.43920 0.74360 0.50300 -0.15000
C 	C 	0.37980 0.71400 0.77500 0.05800
O 	O 	0.66590 0.77650 0.12300 -0.56600
C 	C 	0.35780 0.68430 0.96900 -0.32900
H 	H 	0.32430 0.68910 0.01660 0.16500
O 	O 	0.62260 0.81200 0.81300 -0.31600
C 	C 	0.38630 0.64750 0.09100 0.17400
C 	C 	0.36530 0.61730 0.28600 -0.13900
H 	H 	0.33180 0.62250 0.33180 0.06700
C 	C 	0.39180 0.57990 0.41400 0.02200
H 	H 	0.37730 0.55990 0.54530 -0.02800
C 	C 	0.44120 0.57430 0.33600 -0.04700
H 	H 	0.46090 0.54960 0.41670 0.03000
C 	C 	0.46210 0.60440 0.14200 -0.14600
H 	H 	0.49560 0.59920 0.09560 0.06800
C 	C 	0.43570 0.64190 0.01330 0.10800
C 	C 	0.45790 0.67140 0.81900 -0.23800
H 	H 	0.49160 0.66730 0.77470 0.10600
C 	C 	0.42870 0.70700 0.69200 0.09000
C 	C 	0.48690 0.75780 0.38400 0.04300
C 	C 	0.57730 0.78430 0.16700 -0.10500
C 	C 	0.48890 0.78030 0.13600 4.13200
H 	H 	0.45910 0.78630 0.04440 -1.32000
C 	C 	0.53400 0.79390 0.02300 -3.38800
H 	H 	0.53530 0.80890 0.85610 1.08400
C 	C 	0.57700 0.76190 0.41400 -4.30600
H 	H 	0.60680 0.75580 0.50590 1.50900
C 	C 	0.53100 0.74900 0.52000 4.66200
H 	H 	0.52970 0.73400 0.68750 -1.63500
C 	C 	0.62750 0.80220 0.05900 0.65300
O 	O 	0.63100 0.84200 0.92800 -0.40500
C 	C 	0.49680 0.80760 0.33300 -4.26400
H 	H 	0.47260 0.83180 0.37260 1.52800
C 	C 	0.54270 0.82250 0.22200 3.67600
H 	H 	0.54980 0.85610 0.18600 -1.20400
C 	C 	0.57070 0.73270 0.21300 4.32600
H 	H 	0.59480 0.70840 0.17430 -1.50400
C 	C 	0.52360 0.72210 0.32300 -4.61700
H 	H 	0.51610 0.68860 0.35870 1.62800
