data_crystal

_cell_length_a 27.75290
_cell_length_b 27.75290
_cell_length_c 3.60220
_cell_angle_alpha 90.00000
_cell_angle_beta  90.00000
_cell_angle_gamma 90.00000

_symmetry_space_group_name_	'P 1'
_symmetry_space_group_name_H-M	'P 1'

loop_
_symmetry_equiv_pos_as_xyz
  x,y,z

loop_
_atom_site_label
_atom_site_type_symbol
_atom_site_fract_x
_atom_site_fract_y
_atom_site_fract_z
_atom_site_charge
Zn	Zn	0.28445 0.21407 0.85190 1.21000
N 	N 	0.25890 0.14510 0.78800 -0.27400
C 	C 	0.28100 0.10900 0.94600 0.10500
H 	H 	0.31120 0.11110 0.05610 0.01000
N 	N 	0.25430 0.06800 0.92900 -0.16300
C 	C 	0.21490 0.12980 0.65500 0.05800
O 	O 	0.27350 0.85850 0.60100 -0.52200
C 	C 	0.17820 0.15320 0.46900 -0.14100
H 	H 	0.18070 0.18570 0.41000 0.06000
O 	O 	0.33830 0.86160 0.25900 -0.27900
C 	C 	0.13740 0.12700 0.37300 0.06500
C 	C 	0.09990 0.14880 0.18500 -0.10200
H 	H 	0.10230 0.18130 0.12540 0.07800
C 	C 	0.05870 0.12370 0.08100 -0.01200
H 	H 	0.03380 0.13890 0.95430 0.02700
C 	C 	0.05610 0.07510 0.17500 -0.03900
H 	H 	0.02890 0.05750 0.11000 0.03700
C 	C 	0.09340 0.05260 0.36300 -0.07600
H 	H 	0.09080 0.02000 0.42230 0.05400
C 	C 	0.13480 0.07810 0.46600 0.03600
C 	C 	0.17160 0.05420 0.65200 -0.12600
H 	H 	0.16880 0.02190 0.71660 0.07200
C 	C 	0.21270 0.08050 0.73700 0.08000
C 	C 	0.24510 0.94490 0.30900 0.13800
H 	H 	0.22150 0.92380 0.39460 -0.00400
C 	C 	0.29320 0.93110 0.31300 -0.19700
C 	C 	0.32850 0.96270 0.18500 0.16200
H 	H 	0.36070 0.95340 0.18750 0.01000
C 	C 	0.31550 0.00800 0.05500 -0.23300
H 	H 	0.33910 0.02910 0.96940 0.13300
C 	C 	0.26740 0.02180 0.05100 0.20300
C 	C 	0.23220 0.99020 0.17900 -0.22000
H 	H 	0.19990 0.99940 0.17650 0.10800
C 	C 	0.30130 0.87970 0.44000 0.56500
O 	O 	0.28470 0.24610 0.36100 -0.73600
H 	H 	0.30770 0.23390 0.23710 0.14300
O 	O 	0.34070 0.87900 0.64100 -0.22400
Zn	Zn	0.71555 0.78593 0.85190 1.20900
N 	N 	0.74110 0.85490 0.78800 -0.27500
C 	C 	0.71900 0.89100 0.94600 0.10400
H 	H 	0.68880 0.88890 0.05610 0.00900
N 	N 	0.74570 0.93200 0.92900 -0.16400
C 	C 	0.78510 0.87020 0.65500 0.05700
O 	O 	0.72650 0.14150 0.60100 -0.52300
C 	C 	0.82180 0.84680 0.46900 -0.14200
H 	H 	0.81930 0.81430 0.41000 0.05900
O 	O 	0.66170 0.13840 0.25900 -0.28000
C 	C 	0.86260 0.87300 0.37300 0.06400
C 	C 	0.90010 0.85120 0.18500 -0.10300
H 	H 	0.89770 0.81870 0.12540 0.07800
C 	C 	0.94130 0.87630 0.08100 -0.01200
H 	H 	0.96620 0.86110 0.95430 0.02700
C 	C 	0.94390 0.92490 0.17500 -0.03900
H 	H 	0.97110 0.94250 0.11000 0.03700
C 	C 	0.90660 0.94740 0.36300 -0.07600
H 	H 	0.90920 0.98000 0.42230 0.05400
C 	C 	0.86520 0.92190 0.46600 0.03600
C 	C 	0.82840 0.94580 0.65200 -0.12600
H 	H 	0.83120 0.97810 0.71660 0.07200
C 	C 	0.78730 0.91950 0.73700 0.08000
C 	C 	0.75490 0.05510 0.30900 0.13800
H 	H 	0.77850 0.07620 0.39460 -0.00400
C 	C 	0.70680 0.06890 0.31300 -0.19700
C 	C 	0.67150 0.03730 0.18500 0.16200
H 	H 	0.63930 0.04660 0.18750 0.01000
C 	C 	0.68450 0.99200 0.05500 -0.23300
H 	H 	0.66090 0.97090 0.96940 0.13300
C 	C 	0.73260 0.97820 0.05100 0.20300
C 	C 	0.76780 0.00980 0.17900 -0.22000
H 	H 	0.80010 0.00060 0.17650 0.10800
C 	C 	0.69870 0.12030 0.44000 0.56500
O 	O 	0.71530 0.75390 0.36100 -0.73600
H 	H 	0.69230 0.76610 0.23710 0.14300
O 	O 	0.65930 0.12100 0.64100 -0.22400
Zn	Zn	0.71407 0.21555 0.64810 1.20700
N 	N 	0.64510 0.24110 0.71200 -0.27200
C 	C 	0.60900 0.21900 0.55400 0.09100
H 	H 	0.61110 0.18880 0.44390 0.01900
N 	N 	0.56800 0.24570 0.57100 -0.16300
C 	C 	0.62980 0.28510 0.84500 0.04500
O 	O 	0.35850 0.22650 0.89900 -0.50500
C 	C 	0.65320 0.32180 0.03100 -0.12800
H 	H 	0.68570 0.31930 0.09000 0.05700
O 	O 	0.36160 0.16170 0.24100 -0.28000
C 	C 	0.62700 0.36260 0.12700 0.05800
C 	C 	0.64880 0.40010 0.31500 -0.09800
H 	H 	0.68130 0.39770 0.37460 0.07800
C 	C 	0.62370 0.44130 0.41900 -0.01400
H 	H 	0.63890 0.46620 0.54570 0.02600
C 	C 	0.57510 0.44390 0.32500 -0.03600
H 	H 	0.55750 0.47110 0.39000 0.03500
C 	C 	0.55260 0.40660 0.13700 -0.08000
H 	H 	0.52000 0.40920 0.07770 0.05500
C 	C 	0.57810 0.36520 0.03400 0.04300
C 	C 	0.55420 0.32840 0.84800 -0.13400
H 	H 	0.52190 0.33120 0.78340 0.07600
C 	C 	0.58050 0.28730 0.76300 0.08500
C 	C 	0.44490 0.25490 0.19100 0.13000
H 	H 	0.42380 0.27850 0.10540 -0.00500
C 	C 	0.43110 0.20680 0.18700 -0.18800
C 	C 	0.46270 0.17150 0.31500 0.15100
H 	H 	0.45340 0.13930 0.31250 0.01300
C 	C 	0.50800 0.18450 0.44500 -0.22200
H 	H 	0.52910 0.16090 0.53060 0.12800
C 	C 	0.52180 0.23260 0.44900 0.20100
C 	C 	0.49020 0.26780 0.32100 -0.21600
H 	H 	0.49940 0.30010 0.32350 0.10600
C 	C 	0.37970 0.19870 0.06000 0.53700
O 	O 	0.74610 0.21530 0.13900 -0.73100
H 	H 	0.73390 0.19230 0.26290 0.14500
O 	O 	0.37900 0.15930 0.85900 -0.21100
Zn	Zn	0.28593 0.78445 0.64810 1.20700
N 	N 	0.35490 0.75890 0.71200 -0.27200
C 	C 	0.39100 0.78100 0.55400 0.09100
H 	H 	0.38890 0.81120 0.44390 0.01900
N 	N 	0.43200 0.75430 0.57100 -0.16300
C 	C 	0.37020 0.71490 0.84500 0.04500
O 	O 	0.64150 0.77350 0.89900 -0.50500
C 	C 	0.34680 0.67820 0.03100 -0.12800
H 	H 	0.31430 0.68070 0.09000 0.05700
O 	O 	0.63840 0.83830 0.24100 -0.28000
C 	C 	0.37300 0.63740 0.12700 0.05800
C 	C 	0.35120 0.59990 0.31500 -0.09800
H 	H 	0.31870 0.60230 0.37460 0.07800
C 	C 	0.37630 0.55870 0.41900 -0.01400
H 	H 	0.36110 0.53380 0.54570 0.02600
C 	C 	0.42490 0.55610 0.32500 -0.03600
H 	H 	0.44250 0.52890 0.39000 0.03500
C 	C 	0.44740 0.59340 0.13700 -0.08000
H 	H 	0.48000 0.59080 0.07770 0.05500
C 	C 	0.42190 0.63480 0.03400 0.04300
C 	C 	0.44580 0.67160 0.84800 -0.13400
H 	H 	0.47810 0.66880 0.78340 0.07600
C 	C 	0.41950 0.71270 0.76300 0.08500
C 	C 	0.55510 0.74510 0.19100 0.13000
H 	H 	0.57620 0.72150 0.10540 -0.00500
C 	C 	0.56890 0.79320 0.18700 -0.18800
C 	C 	0.53730 0.82850 0.31500 0.15100
H 	H 	0.54660 0.86070 0.31250 0.01300
C 	C 	0.49200 0.81550 0.44500 -0.22200
H 	H 	0.47090 0.83910 0.53060 0.12800
C 	C 	0.47820 0.76740 0.44900 0.20100
C 	C 	0.50980 0.73220 0.32100 -0.21600
H 	H 	0.50060 0.69990 0.32350 0.10600
C 	C 	0.62030 0.80130 0.06000 0.53700
O 	O 	0.25390 0.78470 0.13900 -0.73100
H 	H 	0.26610 0.80770 0.26290 0.14500
O 	O 	0.62100 0.84070 0.85900 -0.21100
Zn	Zn	0.78445 0.71407 0.35190 1.20700
N 	N 	0.75890 0.64510 0.28800 -0.27200
C 	C 	0.78100 0.60900 0.44600 0.09100
H 	H 	0.81120 0.61110 0.55610 0.01900
N 	N 	0.75430 0.56800 0.42900 -0.16300
C 	C 	0.71490 0.62980 0.15500 0.04500
O 	O 	0.77350 0.35850 0.10100 -0.50500
C 	C 	0.67820 0.65320 0.96900 -0.12800
H 	H 	0.68070 0.68570 0.91000 0.05700
O 	O 	0.83830 0.36160 0.75900 -0.28000
C 	C 	0.63740 0.62700 0.87300 0.05800
C 	C 	0.59990 0.64880 0.68500 -0.09800
H 	H 	0.60230 0.68130 0.62540 0.07800
C 	C 	0.55870 0.62370 0.58100 -0.01400
H 	H 	0.53380 0.63890 0.45430 0.02600
C 	C 	0.55610 0.57510 0.67500 -0.03600
H 	H 	0.52890 0.55750 0.61000 0.03500
C 	C 	0.59340 0.55260 0.86300 -0.08000
H 	H 	0.59080 0.52000 0.92230 0.05500
C 	C 	0.63480 0.57810 0.96600 0.04300
C 	C 	0.67160 0.55420 0.15200 -0.13400
H 	H 	0.66880 0.52190 0.21660 0.07600
C 	C 	0.71270 0.58050 0.23700 0.08500
C 	C 	0.74510 0.44490 0.80900 0.13000
H 	H 	0.72150 0.42380 0.89460 -0.00500
C 	C 	0.79320 0.43110 0.81300 -0.18800
C 	C 	0.82850 0.46270 0.68500 0.15100
H 	H 	0.86070 0.45340 0.68750 0.01300
C 	C 	0.81550 0.50800 0.55500 -0.22200
H 	H 	0.83910 0.52910 0.46940 0.12800
C 	C 	0.76740 0.52180 0.55100 0.20100
C 	C 	0.73220 0.49020 0.67900 -0.21600
H 	H 	0.69990 0.49940 0.67650 0.10600
C 	C 	0.80130 0.37970 0.94000 0.53700
O 	O 	0.78470 0.74610 0.86100 -0.73100
H 	H 	0.80770 0.73390 0.73710 0.14500
O 	O 	0.84070 0.37900 0.14100 -0.21100
Zn	Zn	0.21555 0.28593 0.35190 1.20700
N 	N 	0.24110 0.35490 0.28800 -0.27200
C 	C 	0.21900 0.39100 0.44600 0.09100
H 	H 	0.18880 0.38890 0.55610 0.01900
N 	N 	0.24570 0.43200 0.42900 -0.16300
C 	C 	0.28510 0.37020 0.15500 0.04500
O 	O 	0.22650 0.64150 0.10100 -0.50500
C 	C 	0.32180 0.34680 0.96900 -0.12800
H 	H 	0.31930 0.31430 0.91000 0.05700
O 	O 	0.16170 0.63840 0.75900 -0.28000
C 	C 	0.36260 0.37300 0.87300 0.05800
C 	C 	0.40010 0.35120 0.68500 -0.09800
H 	H 	0.39770 0.31870 0.62540 0.07800
C 	C 	0.44130 0.37630 0.58100 -0.01400
H 	H 	0.46620 0.36110 0.45430 0.02600
C 	C 	0.44390 0.42490 0.67500 -0.03600
H 	H 	0.47110 0.44250 0.61000 0.03500
C 	C 	0.40660 0.44740 0.86300 -0.08000
H 	H 	0.40920 0.48000 0.92230 0.05500
C 	C 	0.36520 0.42190 0.96600 0.04300
C 	C 	0.32840 0.44580 0.15200 -0.13400
H 	H 	0.33120 0.47810 0.21660 0.07600
C 	C 	0.28730 0.41950 0.23700 0.08500
C 	C 	0.25490 0.55510 0.80900 0.13000
H 	H 	0.27850 0.57620 0.89460 -0.00500
C 	C 	0.20680 0.56890 0.81300 -0.18800
C 	C 	0.17150 0.53730 0.68500 0.15100
H 	H 	0.13930 0.54660 0.68750 0.01300
C 	C 	0.18450 0.49200 0.55500 -0.22200
H 	H 	0.16090 0.47090 0.46940 0.12800
C 	C 	0.23260 0.47820 0.55100 0.20100
C 	C 	0.26780 0.50980 0.67900 -0.21600
H 	H 	0.30010 0.50060 0.67650 0.10600
C 	C 	0.19870 0.62030 0.94000 0.53700
O 	O 	0.21530 0.25390 0.86100 -0.73100
H 	H 	0.19230 0.26610 0.73710 0.14500
O 	O 	0.15930 0.62100 0.14100 -0.21100
Zn	Zn	0.21407 0.71555 0.14810 1.20900
N 	N 	0.14510 0.74110 0.21200 -0.27500
C 	C 	0.10900 0.71900 0.05400 0.10400
H 	H 	0.11110 0.68880 0.94390 0.00900
N 	N 	0.06800 0.74570 0.07100 -0.16400
C 	C 	0.12980 0.78510 0.34500 0.05700
O 	O 	0.85850 0.72650 0.39900 -0.52300
C 	C 	0.15320 0.82180 0.53100 -0.14200
H 	H 	0.18570 0.81930 0.59000 0.05900
O 	O 	0.86160 0.66170 0.74100 -0.28000
C 	C 	0.12700 0.86260 0.62700 0.06400
C 	C 	0.14880 0.90010 0.81500 -0.10300
H 	H 	0.18130 0.89770 0.87460 0.07800
C 	C 	0.12370 0.94130 0.91900 -0.01200
H 	H 	0.13890 0.96620 0.04570 0.02700
C 	C 	0.07510 0.94390 0.82500 -0.03900
H 	H 	0.05750 0.97110 0.89000 0.03700
C 	C 	0.05260 0.90660 0.63700 -0.07600
H 	H 	0.02000 0.90920 0.57770 0.05400
C 	C 	0.07810 0.86520 0.53400 0.03600
C 	C 	0.05420 0.82840 0.34800 -0.12600
H 	H 	0.02190 0.83120 0.28340 0.07200
C 	C 	0.08050 0.78730 0.26300 0.08000
C 	C 	0.94490 0.75490 0.69100 0.13800
H 	H 	0.92380 0.77850 0.60540 -0.00400
C 	C 	0.93110 0.70680 0.68700 -0.19700
C 	C 	0.96270 0.67150 0.81500 0.16200
H 	H 	0.95340 0.63930 0.81250 0.01000
C 	C 	0.00800 0.68450 0.94500 -0.23300
H 	H 	0.02910 0.66090 0.03060 0.13300
C 	C 	0.02180 0.73260 0.94900 0.20300
C 	C 	0.99020 0.76780 0.82100 -0.22000
H 	H 	0.99940 0.80010 0.82350 0.10800
C 	C 	0.87970 0.69870 0.56000 0.56500
O 	O 	0.24610 0.71530 0.63900 -0.73600
H 	H 	0.23390 0.69230 0.76290 0.14300
O 	O 	0.87900 0.65930 0.35900 -0.22400
Zn	Zn	0.78593 0.28445 0.14810 1.20900
N 	N 	0.85490 0.25890 0.21200 -0.27500
C 	C 	0.89100 0.28100 0.05400 0.10400
H 	H 	0.88890 0.31120 0.94390 0.00900
N 	N 	0.93200 0.25430 0.07100 -0.16400
C 	C 	0.87020 0.21490 0.34500 0.05700
O 	O 	0.14150 0.27350 0.39900 -0.52300
C 	C 	0.84680 0.17820 0.53100 -0.14200
H 	H 	0.81430 0.18070 0.59000 0.05900
O 	O 	0.13840 0.33830 0.74100 -0.28000
C 	C 	0.87300 0.13740 0.62700 0.06400
C 	C 	0.85120 0.09990 0.81500 -0.10300
H 	H 	0.81870 0.10230 0.87460 0.07800
C 	C 	0.87630 0.05870 0.91900 -0.01200
H 	H 	0.86110 0.03380 0.04570 0.02700
C 	C 	0.92490 0.05610 0.82500 -0.03900
H 	H 	0.94250 0.02890 0.89000 0.03700
C 	C 	0.94740 0.09340 0.63700 -0.07600
H 	H 	0.98000 0.09080 0.57770 0.05400
C 	C 	0.92190 0.13480 0.53400 0.03600
C 	C 	0.94580 0.17160 0.34800 -0.12600
H 	H 	0.97810 0.16880 0.28340 0.07200
C 	C 	0.91950 0.21270 0.26300 0.08000
C 	C 	0.05510 0.24510 0.69100 0.13800
H 	H 	0.07620 0.22150 0.60540 -0.00400
C 	C 	0.06890 0.29320 0.68700 -0.19700
C 	C 	0.03730 0.32850 0.81500 0.16200
H 	H 	0.04660 0.36070 0.81250 0.01000
C 	C 	0.99200 0.31550 0.94500 -0.23300
H 	H 	0.97090 0.33910 0.03060 0.13300
C 	C 	0.97820 0.26740 0.94900 0.20300
C 	C 	0.00980 0.23220 0.82100 -0.22000
H 	H 	0.00060 0.19990 0.82350 0.10800
C 	C 	0.12030 0.30130 0.56000 0.56500
O 	O 	0.75390 0.28470 0.63900 -0.73600
H 	H 	0.76610 0.30770 0.76290 0.14300
O 	O 	0.12100 0.34070 0.35900 -0.22400
