data_crystal

_cell_length_a 27.70690
_cell_length_b 27.70690
_cell_length_c 3.57190
_cell_angle_alpha 90.00000
_cell_angle_beta  90.00000
_cell_angle_gamma 90.00000

_symmetry_space_group_name_	'P 1'
_symmetry_space_group_name_H-M	'P 1'

loop_
_symmetry_equiv_pos_as_xyz
  x,y,z

loop_
_atom_site_label
_atom_site_type_symbol
_atom_site_fract_x
_atom_site_fract_y
_atom_site_fract_z
_atom_site_charge
Zn	Zn	0.28470 0.21404 0.84560 1.20700
N 	N 	0.26020 0.14610 0.77800 -0.28100
C 	C 	0.28060 0.10870 0.93400 0.10500
H 	H 	0.31090 0.11010 0.04530 0.01000
N 	N 	0.25400 0.06760 0.91900 -0.16800
C 	C 	0.21530 0.12940 0.64700 0.05000
O 	O 	0.27220 0.85830 0.61900 -0.49500
C 	C 	0.17870 0.15340 0.46100 -0.13700
H 	H 	0.18170 0.18600 0.40190 0.05700
O 	O 	0.33880 0.86060 0.29400 -0.26500
C 	C 	0.13750 0.12800 0.36400 0.06100
C 	C 	0.10000 0.14990 0.17400 -0.10200
H 	H 	0.10260 0.18240 0.11240 0.07900
C 	C 	0.05850 0.12500 0.07200 -0.01300
H 	H 	0.03370 0.14050 0.94460 0.02700
C 	C 	0.05500 0.07640 0.16500 -0.03700
H 	H 	0.02750 0.05910 0.09970 0.03600
C 	C 	0.09230 0.05380 0.35300 -0.07900
H 	H 	0.08960 0.02130 0.41380 0.05500
C 	C 	0.13410 0.07900 0.45500 0.04000
C 	C 	0.17070 0.05500 0.64200 -0.13000
H 	H 	0.16800 0.02230 0.69880 0.07300
C 	C 	0.21130 0.08070 0.74200 0.08300
C 	C 	0.24460 0.94560 0.30800 0.13000
H 	H 	0.22080 0.92470 0.39500 -0.00200
C 	C 	0.29270 0.93120 0.30900 -0.18600
C 	C 	0.32830 0.96240 0.18000 0.15000
H 	H 	0.36040 0.95270 0.18070 0.01000
C 	C 	0.31580 0.00800 0.05000 -0.22800
H 	H 	0.33960 0.02880 0.96340 0.13000
C 	C 	0.26770 0.02240 0.04900 0.20400
C 	C 	0.23220 0.99110 0.17800 -0.21700
H 	H 	0.20000 0.00080 0.17770 0.10700
C 	C 	0.30090 0.88040 0.45400 0.51000
O 	O 	0.28570 0.24790 0.35500 -0.73400
H 	H 	0.30870 0.23560 0.22980 0.14600
O 	O 	0.34040 0.87500 0.65200 -0.21200
Zn	Zn	0.71530 0.78596 0.84560 1.20800
N 	N 	0.73980 0.85390 0.77800 -0.28000
C 	C 	0.71940 0.89130 0.93400 0.10600
H 	H 	0.68910 0.88990 0.04530 0.01100
N 	N 	0.74600 0.93240 0.91900 -0.16700
C 	C 	0.78470 0.87060 0.64700 0.05100
O 	O 	0.72780 0.14170 0.61900 -0.49400
C 	C 	0.82130 0.84660 0.46100 -0.13600
H 	H 	0.81830 0.81400 0.40190 0.05800
O 	O 	0.66120 0.13940 0.29400 -0.26400
C 	C 	0.86250 0.87200 0.36400 0.06200
C 	C 	0.90000 0.85010 0.17400 -0.10100
H 	H 	0.89740 0.81760 0.11240 0.07900
C 	C 	0.94150 0.87500 0.07200 -0.01300
H 	H 	0.96630 0.85950 0.94460 0.02700
C 	C 	0.94500 0.92360 0.16500 -0.03700
H 	H 	0.97250 0.94090 0.09970 0.03600
C 	C 	0.90770 0.94620 0.35300 -0.07900
H 	H 	0.91040 0.97870 0.41380 0.05500
C 	C 	0.86590 0.92100 0.45500 0.04000
C 	C 	0.82930 0.94500 0.64200 -0.13000
H 	H 	0.83200 0.97770 0.69880 0.07300
C 	C 	0.78870 0.91930 0.74200 0.08300
C 	C 	0.75540 0.05440 0.30800 0.13000
H 	H 	0.77920 0.07530 0.39500 -0.00200
C 	C 	0.70730 0.06880 0.30900 -0.18600
C 	C 	0.67170 0.03760 0.18000 0.15000
H 	H 	0.63960 0.04730 0.18070 0.01000
C 	C 	0.68420 0.99200 0.05000 -0.22800
H 	H 	0.66040 0.97120 0.96340 0.13000
C 	C 	0.73230 0.97760 0.04900 0.20400
C 	C 	0.76780 0.00890 0.17800 -0.21700
H 	H 	0.80000 0.99920 0.17770 0.10700
C 	C 	0.69910 0.11960 0.45400 0.51000
O 	O 	0.71430 0.75210 0.35500 -0.73400
H 	H 	0.69130 0.76440 0.22980 0.14600
O 	O 	0.65960 0.12500 0.65200 -0.21200
Zn	Zn	0.71404 0.21530 0.65440 1.20600
N 	N 	0.64610 0.23980 0.72200 -0.27800
C 	C 	0.60870 0.21940 0.56600 0.09600
H 	H 	0.61010 0.18910 0.45470 0.01900
N 	N 	0.56760 0.24600 0.58100 -0.16600
C 	C 	0.62940 0.28470 0.85300 0.04100
O 	O 	0.35830 0.22780 0.88100 -0.47900
C 	C 	0.65340 0.32130 0.03900 -0.12400
H 	H 	0.68600 0.31830 0.09810 0.05700
O 	O 	0.36060 0.16120 0.20600 -0.26600
C 	C 	0.62800 0.36250 0.13600 0.05700
C 	C 	0.64990 0.40000 0.32600 -0.09700
H 	H 	0.68240 0.39740 0.38760 0.07900
C 	C 	0.62500 0.44150 0.42800 -0.01400
H 	H 	0.64050 0.46630 0.55540 0.02600
C 	C 	0.57640 0.44500 0.33500 -0.03500
H 	H 	0.55910 0.47250 0.40030 0.03500
C 	C 	0.55380 0.40770 0.14700 -0.08200
H 	H 	0.52130 0.41040 0.08620 0.05500
C 	C 	0.57900 0.36590 0.04500 0.04500
C 	C 	0.55500 0.32930 0.85800 -0.13700
H 	H 	0.52230 0.33200 0.80120 0.07600
C 	C 	0.58070 0.28870 0.75800 0.08800
C 	C 	0.44560 0.25540 0.19200 0.12400
H 	H 	0.42470 0.27920 0.10500 -0.00300
C 	C 	0.43120 0.20730 0.19100 -0.17900
C 	C 	0.46240 0.17170 0.32000 0.14300
H 	H 	0.45270 0.13960 0.31930 0.01200
C 	C 	0.50800 0.18420 0.45000 -0.22200
H 	H 	0.52880 0.16040 0.53660 0.12700
C 	C 	0.52240 0.23230 0.45100 0.20200
C 	C 	0.49110 0.26780 0.32200 -0.21400
H 	H 	0.50080 0.30000 0.32230 0.10600
C 	C 	0.38040 0.19910 0.04600 0.48900
O 	O 	0.74790 0.21430 0.14500 -0.72900
H 	H 	0.73560 0.19130 0.27020 0.14900
O 	O 	0.37500 0.15960 0.84800 -0.20000
Zn	Zn	0.28596 0.78470 0.65440 1.20600
N 	N 	0.35390 0.76020 0.72200 -0.27800
C 	C 	0.39130 0.78060 0.56600 0.09600
H 	H 	0.38990 0.81090 0.45470 0.01900
N 	N 	0.43240 0.75400 0.58100 -0.16600
C 	C 	0.37060 0.71530 0.85300 0.04100
O 	O 	0.64170 0.77220 0.88100 -0.47900
C 	C 	0.34660 0.67870 0.03900 -0.12400
H 	H 	0.31400 0.68170 0.09810 0.05700
O 	O 	0.63940 0.83880 0.20600 -0.26600
C 	C 	0.37200 0.63750 0.13600 0.05700
C 	C 	0.35010 0.60000 0.32600 -0.09700
H 	H 	0.31760 0.60260 0.38760 0.07900
C 	C 	0.37500 0.55850 0.42800 -0.01400
H 	H 	0.35950 0.53370 0.55540 0.02600
C 	C 	0.42360 0.55500 0.33500 -0.03500
H 	H 	0.44090 0.52750 0.40030 0.03500
C 	C 	0.44620 0.59230 0.14700 -0.08200
H 	H 	0.47870 0.58960 0.08620 0.05500
C 	C 	0.42100 0.63410 0.04500 0.04500
C 	C 	0.44500 0.67070 0.85800 -0.13700
H 	H 	0.47770 0.66800 0.80120 0.07600
C 	C 	0.41930 0.71130 0.75800 0.08800
C 	C 	0.55440 0.74460 0.19200 0.12400
H 	H 	0.57530 0.72080 0.10500 -0.00300
C 	C 	0.56880 0.79270 0.19100 -0.17900
C 	C 	0.53760 0.82830 0.32000 0.14300
H 	H 	0.54730 0.86040 0.31930 0.01200
C 	C 	0.49200 0.81580 0.45000 -0.22200
H 	H 	0.47120 0.83960 0.53660 0.12700
C 	C 	0.47760 0.76770 0.45100 0.20200
C 	C 	0.50890 0.73220 0.32200 -0.21400
H 	H 	0.49920 0.70000 0.32230 0.10600
C 	C 	0.61960 0.80090 0.04600 0.48900
O 	O 	0.25210 0.78570 0.14500 -0.72900
H 	H 	0.26440 0.80870 0.27020 0.14900
O 	O 	0.62500 0.84040 0.84800 -0.20000
Zn	Zn	0.78470 0.71404 0.34560 1.20600
N 	N 	0.76020 0.64610 0.27800 -0.27800
C 	C 	0.78060 0.60870 0.43400 0.09600
H 	H 	0.81090 0.61010 0.54530 0.01900
N 	N 	0.75400 0.56760 0.41900 -0.16600
C 	C 	0.71530 0.62940 0.14700 0.04100
O 	O 	0.77220 0.35830 0.11900 -0.47900
C 	C 	0.67870 0.65340 0.96100 -0.12400
H 	H 	0.68170 0.68600 0.90190 0.05700
O 	O 	0.83880 0.36060 0.79400 -0.26600
C 	C 	0.63750 0.62800 0.86400 0.05700
C 	C 	0.60000 0.64990 0.67400 -0.09700
H 	H 	0.60260 0.68240 0.61240 0.07900
C 	C 	0.55850 0.62500 0.57200 -0.01400
H 	H 	0.53370 0.64050 0.44460 0.02600
C 	C 	0.55500 0.57640 0.66500 -0.03500
H 	H 	0.52750 0.55910 0.59970 0.03500
C 	C 	0.59230 0.55380 0.85300 -0.08200
H 	H 	0.58960 0.52130 0.91380 0.05500
C 	C 	0.63410 0.57900 0.95500 0.04500
C 	C 	0.67070 0.55500 0.14200 -0.13700
H 	H 	0.66800 0.52230 0.19880 0.07600
C 	C 	0.71130 0.58070 0.24200 0.08800
C 	C 	0.74460 0.44560 0.80800 0.12400
H 	H 	0.72080 0.42470 0.89500 -0.00300
C 	C 	0.79270 0.43120 0.80900 -0.17900
C 	C 	0.82830 0.46240 0.68000 0.14300
H 	H 	0.86040 0.45270 0.68070 0.01200
C 	C 	0.81580 0.50800 0.55000 -0.22200
H 	H 	0.83960 0.52880 0.46340 0.12700
C 	C 	0.76770 0.52240 0.54900 0.20200
C 	C 	0.73220 0.49110 0.67800 -0.21400
H 	H 	0.70000 0.50080 0.67770 0.10600
C 	C 	0.80090 0.38040 0.95400 0.48900
O 	O 	0.78570 0.74790 0.85500 -0.72900
H 	H 	0.80870 0.73560 0.72980 0.14900
O 	O 	0.84040 0.37500 0.15200 -0.20000
Zn	Zn	0.21530 0.28596 0.34560 1.20600
N 	N 	0.23980 0.35390 0.27800 -0.27800
C 	C 	0.21940 0.39130 0.43400 0.09600
H 	H 	0.18910 0.38990 0.54530 0.01900
N 	N 	0.24600 0.43240 0.41900 -0.16600
C 	C 	0.28470 0.37060 0.14700 0.04100
O 	O 	0.22780 0.64170 0.11900 -0.47900
C 	C 	0.32130 0.34660 0.96100 -0.12400
H 	H 	0.31830 0.31400 0.90190 0.05700
O 	O 	0.16120 0.63940 0.79400 -0.26600
C 	C 	0.36250 0.37200 0.86400 0.05700
C 	C 	0.40000 0.35010 0.67400 -0.09700
H 	H 	0.39740 0.31760 0.61240 0.07900
C 	C 	0.44150 0.37500 0.57200 -0.01400
H 	H 	0.46630 0.35950 0.44460 0.02600
C 	C 	0.44500 0.42360 0.66500 -0.03500
H 	H 	0.47250 0.44090 0.59970 0.03500
C 	C 	0.40770 0.44620 0.85300 -0.08200
H 	H 	0.41040 0.47870 0.91380 0.05500
C 	C 	0.36590 0.42100 0.95500 0.04500
C 	C 	0.32930 0.44500 0.14200 -0.13700
H 	H 	0.33200 0.47770 0.19880 0.07600
C 	C 	0.28870 0.41930 0.24200 0.08800
C 	C 	0.25540 0.55440 0.80800 0.12400
H 	H 	0.27920 0.57530 0.89500 -0.00300
C 	C 	0.20730 0.56880 0.80900 -0.17900
C 	C 	0.17170 0.53760 0.68000 0.14300
H 	H 	0.13960 0.54730 0.68070 0.01200
C 	C 	0.18420 0.49200 0.55000 -0.22200
H 	H 	0.16040 0.47120 0.46340 0.12700
C 	C 	0.23230 0.47760 0.54900 0.20200
C 	C 	0.26780 0.50890 0.67800 -0.21400
H 	H 	0.30000 0.49920 0.67770 0.10600
C 	C 	0.19910 0.61960 0.95400 0.48900
O 	O 	0.21430 0.25210 0.85500 -0.72900
H 	H 	0.19130 0.26440 0.72980 0.14900
O 	O 	0.15960 0.62500 0.15200 -0.20000
Zn	Zn	0.21404 0.71530 0.15440 1.20800
N 	N 	0.14610 0.73980 0.22200 -0.28000
C 	C 	0.10870 0.71940 0.06600 0.10600
H 	H 	0.11010 0.68910 0.95470 0.01100
N 	N 	0.06760 0.74600 0.08100 -0.16700
C 	C 	0.12940 0.78470 0.35300 0.05100
O 	O 	0.85830 0.72780 0.38100 -0.49400
C 	C 	0.15340 0.82130 0.53900 -0.13600
H 	H 	0.18600 0.81830 0.59810 0.05800
O 	O 	0.86060 0.66120 0.70600 -0.26400
C 	C 	0.12800 0.86250 0.63600 0.06200
C 	C 	0.14990 0.90000 0.82600 -0.10100
H 	H 	0.18240 0.89740 0.88760 0.07900
C 	C 	0.12500 0.94150 0.92800 -0.01300
H 	H 	0.14050 0.96630 0.05540 0.02700
C 	C 	0.07640 0.94500 0.83500 -0.03700
H 	H 	0.05910 0.97250 0.90030 0.03600
C 	C 	0.05380 0.90770 0.64700 -0.07900
H 	H 	0.02130 0.91040 0.58620 0.05500
C 	C 	0.07900 0.86590 0.54500 0.04000
C 	C 	0.05500 0.82930 0.35800 -0.13000
H 	H 	0.02230 0.83200 0.30120 0.07300
C 	C 	0.08070 0.78870 0.25800 0.08300
C 	C 	0.94560 0.75540 0.69200 0.13000
H 	H 	0.92470 0.77920 0.60500 -0.00200
C 	C 	0.93120 0.70730 0.69100 -0.18600
C 	C 	0.96240 0.67170 0.82000 0.15000
H 	H 	0.95270 0.63960 0.81930 0.01000
C 	C 	0.00800 0.68420 0.95000 -0.22800
H 	H 	0.02880 0.66040 0.03660 0.13000
C 	C 	0.02240 0.73230 0.95100 0.20400
C 	C 	0.99110 0.76780 0.82200 -0.21700
H 	H 	0.00080 0.80000 0.82230 0.10700
C 	C 	0.88040 0.69910 0.54600 0.51000
O 	O 	0.24790 0.71430 0.64500 -0.73400
H 	H 	0.23560 0.69130 0.77020 0.14600
O 	O 	0.87500 0.65960 0.34800 -0.21200
Zn	Zn	0.78596 0.28470 0.15440 1.20800
N 	N 	0.85390 0.26020 0.22200 -0.28000
C 	C 	0.89130 0.28060 0.06600 0.10600
H 	H 	0.88990 0.31090 0.95470 0.01100
N 	N 	0.93240 0.25400 0.08100 -0.16700
C 	C 	0.87060 0.21530 0.35300 0.05100
O 	O 	0.14170 0.27220 0.38100 -0.49400
C 	C 	0.84660 0.17870 0.53900 -0.13600
H 	H 	0.81400 0.18170 0.59810 0.05800
O 	O 	0.13940 0.33880 0.70600 -0.26400
C 	C 	0.87200 0.13750 0.63600 0.06200
C 	C 	0.85010 0.10000 0.82600 -0.10100
H 	H 	0.81760 0.10260 0.88760 0.07900
C 	C 	0.87500 0.05850 0.92800 -0.01300
H 	H 	0.85950 0.03370 0.05540 0.02700
C 	C 	0.92360 0.05500 0.83500 -0.03700
H 	H 	0.94090 0.02750 0.90030 0.03600
C 	C 	0.94620 0.09230 0.64700 -0.07900
H 	H 	0.97870 0.08960 0.58620 0.05500
C 	C 	0.92100 0.13410 0.54500 0.04000
C 	C 	0.94500 0.17070 0.35800 -0.13000
H 	H 	0.97770 0.16800 0.30120 0.07300
C 	C 	0.91930 0.21130 0.25800 0.08300
C 	C 	0.05440 0.24460 0.69200 0.13000
H 	H 	0.07530 0.22080 0.60500 -0.00200
C 	C 	0.06880 0.29270 0.69100 -0.18600
C 	C 	0.03760 0.32830 0.82000 0.15000
H 	H 	0.04730 0.36040 0.81930 0.01000
C 	C 	0.99200 0.31580 0.95000 -0.22800
H 	H 	0.97120 0.33960 0.03660 0.13000
C 	C 	0.97760 0.26770 0.95100 0.20400
C 	C 	0.00890 0.23220 0.82200 -0.21700
H 	H 	0.99920 0.20000 0.82230 0.10700
C 	C 	0.11960 0.30090 0.54600 0.51000
O 	O 	0.75210 0.28570 0.64500 -0.73400
H 	H 	0.76440 0.30870 0.77020 0.14600
O 	O 	0.12500 0.34040 0.34800 -0.21200
