data_crystal

_cell_length_a 27.69220
_cell_length_b 27.69220
_cell_length_c 3.54920
_cell_angle_alpha 90.00000
_cell_angle_beta  90.00000
_cell_angle_gamma 90.00000

_symmetry_space_group_name_	'P 1'
_symmetry_space_group_name_H-M	'P 1'

loop_
_symmetry_equiv_pos_as_xyz
  x,y,z

loop_
_atom_site_label
_atom_site_type_symbol
_atom_site_fract_x
_atom_site_fract_y
_atom_site_fract_z
_atom_site_charge
Zn	Zn	0.28489 0.21388 0.84240 1.21100
N 	N 	0.26000 0.14640 0.77400 -0.28100
C 	C 	0.28030 0.10880 0.92950 0.10600
H 	H 	0.31060 0.11030 0.04140 0.01400
N 	N 	0.25410 0.06730 0.91710 -0.16600
C 	C 	0.21530 0.12940 0.64450 0.05600
O 	O 	0.27210 0.85840 0.62300 -0.48300
C 	C 	0.17870 0.15340 0.45800 -0.13900
H 	H 	0.18170 0.18600 0.39920 0.06100
O 	O 	0.33860 0.85890 0.29400 -0.26000
C 	C 	0.13750 0.12810 0.36110 0.06600
C 	C 	0.09960 0.14970 0.17000 -0.10300
H 	H 	0.10190 0.18220 0.10790 0.08100
C 	C 	0.05830 0.12450 0.06900 -0.00900
H 	H 	0.03340 0.13980 0.94050 0.02700
C 	C 	0.05480 0.07600 0.16300 -0.03900
H 	H 	0.02720 0.05860 0.09980 0.03800
C 	C 	0.09240 0.05360 0.35200 -0.07500
H 	H 	0.09000 0.02100 0.41180 0.05500
C 	C 	0.13400 0.07920 0.45340 0.03800
C 	C 	0.17060 0.05470 0.64000 -0.12700
H 	H 	0.16770 0.02210 0.69860 0.07200
C 	C 	0.21160 0.08050 0.73600 0.08000
C 	C 	0.24500 0.94550 0.30900 0.12600
H 	H 	0.22110 0.92470 0.39550 -0.00100
C 	C 	0.29310 0.93110 0.31000 -0.18100
C 	C 	0.32870 0.96230 0.18000 0.14500
H 	H 	0.36090 0.95260 0.18160 0.01000
C 	C 	0.31630 0.00790 0.04900 -0.22600
H 	H 	0.34010 0.02880 0.96200 0.12700
C 	C 	0.26820 0.02230 0.04700 0.20300
C 	C 	0.23250 0.99120 0.17700 -0.21600
H 	H 	0.20040 0.00080 0.17590 0.10800
C 	C 	0.30120 0.88000 0.45100 0.49100
O 	O 	0.28610 0.24760 0.35500 -0.73800
H 	H 	0.30920 0.23530 0.23040 0.15000
O 	O 	0.34110 0.87200 0.64000 -0.20700
Zn	Zn	0.71511 0.78612 0.84240 1.21000
N 	N 	0.74000 0.85360 0.77400 -0.28200
C 	C 	0.71970 0.89120 0.92950 0.10500
H 	H 	0.68940 0.88970 0.04140 0.01300
N 	N 	0.74590 0.93270 0.91710 -0.16700
C 	C 	0.78470 0.87060 0.64450 0.05500
O 	O 	0.72790 0.14160 0.62300 -0.48400
C 	C 	0.82130 0.84660 0.45800 -0.14000
H 	H 	0.81830 0.81400 0.39920 0.06000
O 	O 	0.66140 0.14110 0.29400 -0.26100
C 	C 	0.86250 0.87190 0.36110 0.06500
C 	C 	0.90040 0.85030 0.17000 -0.10400
H 	H 	0.89810 0.81780 0.10790 0.08000
C 	C 	0.94170 0.87550 0.06900 -0.01000
H 	H 	0.96660 0.86020 0.94050 0.02600
C 	C 	0.94520 0.92400 0.16300 -0.04000
H 	H 	0.97280 0.94140 0.09980 0.03700
C 	C 	0.90760 0.94640 0.35200 -0.07600
H 	H 	0.91000 0.97900 0.41180 0.05400
C 	C 	0.86600 0.92080 0.45340 0.03700
C 	C 	0.82940 0.94530 0.64000 -0.12700
H 	H 	0.83230 0.97790 0.69860 0.07200
C 	C 	0.78840 0.91950 0.73600 0.08000
C 	C 	0.75500 0.05450 0.30900 0.12600
H 	H 	0.77890 0.07530 0.39550 -0.00100
C 	C 	0.70690 0.06890 0.31000 -0.18100
C 	C 	0.67130 0.03770 0.18000 0.14500
H 	H 	0.63910 0.04740 0.18160 0.01000
C 	C 	0.68370 0.99210 0.04900 -0.22600
H 	H 	0.65990 0.97120 0.96200 0.12700
C 	C 	0.73180 0.97770 0.04700 0.20300
C 	C 	0.76750 0.00880 0.17700 -0.21600
H 	H 	0.79960 0.99920 0.17590 0.10800
C 	C 	0.69880 0.12000 0.45100 0.49100
O 	O 	0.71390 0.75240 0.35500 -0.73800
H 	H 	0.69080 0.76470 0.23040 0.15000
O 	O 	0.65890 0.12800 0.64000 -0.20700
Zn	Zn	0.71388 0.21511 0.65760 1.20700
N 	N 	0.64640 0.24000 0.72600 -0.28000
C 	C 	0.60880 0.21970 0.57050 0.09500
H 	H 	0.61030 0.18940 0.45860 0.02000
N 	N 	0.56730 0.24590 0.58290 -0.16600
C 	C 	0.62940 0.28470 0.85550 0.04500
O 	O 	0.35840 0.22790 0.87700 -0.47000
C 	C 	0.65340 0.32130 0.04200 -0.12700
H 	H 	0.68600 0.31830 0.10080 0.05900
O 	O 	0.35890 0.16140 0.20600 -0.26300
C 	C 	0.62810 0.36250 0.13890 0.05900
C 	C 	0.64970 0.40040 0.33000 -0.10000
H 	H 	0.68220 0.39810 0.39210 0.08000
C 	C 	0.62450 0.44170 0.43100 -0.01100
H 	H 	0.63980 0.46660 0.55950 0.02500
C 	C 	0.57600 0.44520 0.33700 -0.03800
H 	H 	0.55860 0.47280 0.40020 0.03600
C 	C 	0.55360 0.40760 0.14800 -0.07900
H 	H 	0.52100 0.41000 0.08820 0.05400
C 	C 	0.57920 0.36600 0.04660 0.04300
C 	C 	0.55470 0.32940 0.86000 -0.13500
H 	H 	0.52210 0.33230 0.80140 0.07500
C 	C 	0.58050 0.28840 0.76400 0.08500
C 	C 	0.44550 0.25500 0.19100 0.12100
H 	H 	0.42470 0.27890 0.10450 -0.00200
C 	C 	0.43110 0.20690 0.19000 -0.17500
C 	C 	0.46230 0.17130 0.32000 0.13800
H 	H 	0.45260 0.13910 0.31840 0.01100
C 	C 	0.50790 0.18370 0.45100 -0.22000
H 	H 	0.52880 0.15990 0.53800 0.12500
C 	C 	0.52230 0.23180 0.45300 0.20200
C 	C 	0.49120 0.26750 0.32300 -0.21400
H 	H 	0.50080 0.29960 0.32410 0.10700
C 	C 	0.38000 0.19880 0.04900 0.47100
O 	O 	0.74760 0.21390 0.14500 -0.73300
H 	H 	0.73530 0.19080 0.26960 0.15200
O 	O 	0.37200 0.15890 0.86000 -0.19600
Zn	Zn	0.28612 0.78489 0.65760 1.20700
N 	N 	0.35360 0.76000 0.72600 -0.28000
C 	C 	0.39120 0.78030 0.57050 0.09500
H 	H 	0.38970 0.81060 0.45860 0.02000
N 	N 	0.43270 0.75410 0.58290 -0.16600
C 	C 	0.37060 0.71530 0.85550 0.04500
O 	O 	0.64160 0.77210 0.87700 -0.47000
C 	C 	0.34660 0.67870 0.04200 -0.12700
H 	H 	0.31400 0.68170 0.10080 0.05900
O 	O 	0.64110 0.83860 0.20600 -0.26300
C 	C 	0.37190 0.63750 0.13890 0.05900
C 	C 	0.35030 0.59960 0.33000 -0.10000
H 	H 	0.31780 0.60190 0.39210 0.08000
C 	C 	0.37550 0.55830 0.43100 -0.01100
H 	H 	0.36020 0.53340 0.55950 0.02500
C 	C 	0.42400 0.55480 0.33700 -0.03800
H 	H 	0.44140 0.52720 0.40020 0.03600
C 	C 	0.44640 0.59240 0.14800 -0.07900
H 	H 	0.47900 0.59000 0.08820 0.05400
C 	C 	0.42080 0.63400 0.04660 0.04300
C 	C 	0.44530 0.67060 0.86000 -0.13500
H 	H 	0.47790 0.66770 0.80140 0.07500
C 	C 	0.41950 0.71160 0.76400 0.08500
C 	C 	0.55450 0.74500 0.19100 0.12100
H 	H 	0.57530 0.72110 0.10450 -0.00200
C 	C 	0.56890 0.79310 0.19000 -0.17500
C 	C 	0.53770 0.82870 0.32000 0.13800
H 	H 	0.54740 0.86090 0.31840 0.01100
C 	C 	0.49210 0.81630 0.45100 -0.22000
H 	H 	0.47120 0.84010 0.53800 0.12500
C 	C 	0.47770 0.76820 0.45300 0.20200
C 	C 	0.50880 0.73250 0.32300 -0.21400
H 	H 	0.49920 0.70040 0.32410 0.10700
C 	C 	0.62000 0.80120 0.04900 0.47100
O 	O 	0.25240 0.78610 0.14500 -0.73300
H 	H 	0.26470 0.80920 0.26960 0.15200
O 	O 	0.62800 0.84110 0.86000 -0.19600
Zn	Zn	0.78489 0.71388 0.34240 1.20700
N 	N 	0.76000 0.64640 0.27400 -0.28000
C 	C 	0.78030 0.60880 0.42950 0.09500
H 	H 	0.81060 0.61030 0.54140 0.02000
N 	N 	0.75410 0.56730 0.41710 -0.16600
C 	C 	0.71530 0.62940 0.14450 0.04500
O 	O 	0.77210 0.35840 0.12300 -0.47000
C 	C 	0.67870 0.65340 0.95800 -0.12700
H 	H 	0.68170 0.68600 0.89920 0.05900
O 	O 	0.83860 0.35890 0.79400 -0.26300
C 	C 	0.63750 0.62810 0.86110 0.05900
C 	C 	0.59960 0.64970 0.67000 -0.10000
H 	H 	0.60190 0.68220 0.60790 0.08000
C 	C 	0.55830 0.62450 0.56900 -0.01100
H 	H 	0.53340 0.63980 0.44050 0.02500
C 	C 	0.55480 0.57600 0.66300 -0.03800
H 	H 	0.52720 0.55860 0.59980 0.03600
C 	C 	0.59240 0.55360 0.85200 -0.07900
H 	H 	0.59000 0.52100 0.91180 0.05400
C 	C 	0.63400 0.57920 0.95340 0.04300
C 	C 	0.67060 0.55470 0.14000 -0.13500
H 	H 	0.66770 0.52210 0.19860 0.07500
C 	C 	0.71160 0.58050 0.23600 0.08500
C 	C 	0.74500 0.44550 0.80900 0.12100
H 	H 	0.72110 0.42470 0.89550 -0.00200
C 	C 	0.79310 0.43110 0.81000 -0.17500
C 	C 	0.82870 0.46230 0.68000 0.13800
H 	H 	0.86090 0.45260 0.68160 0.01100
C 	C 	0.81630 0.50790 0.54900 -0.22000
H 	H 	0.84010 0.52880 0.46200 0.12500
C 	C 	0.76820 0.52230 0.54700 0.20200
C 	C 	0.73250 0.49120 0.67700 -0.21400
H 	H 	0.70040 0.50080 0.67590 0.10700
C 	C 	0.80120 0.38000 0.95100 0.47100
O 	O 	0.78610 0.74760 0.85500 -0.73300
H 	H 	0.80920 0.73530 0.73040 0.15200
O 	O 	0.84110 0.37200 0.14000 -0.19600
Zn	Zn	0.21511 0.28612 0.34240 1.20700
N 	N 	0.24000 0.35360 0.27400 -0.28000
C 	C 	0.21970 0.39120 0.42950 0.09500
H 	H 	0.18940 0.38970 0.54140 0.02000
N 	N 	0.24590 0.43270 0.41710 -0.16600
C 	C 	0.28470 0.37060 0.14450 0.04500
O 	O 	0.22790 0.64160 0.12300 -0.47000
C 	C 	0.32130 0.34660 0.95800 -0.12700
H 	H 	0.31830 0.31400 0.89920 0.05900
O 	O 	0.16140 0.64110 0.79400 -0.26300
C 	C 	0.36250 0.37190 0.86110 0.05900
C 	C 	0.40040 0.35030 0.67000 -0.10000
H 	H 	0.39810 0.31780 0.60790 0.08000
C 	C 	0.44170 0.37550 0.56900 -0.01100
H 	H 	0.46660 0.36020 0.44050 0.02500
C 	C 	0.44520 0.42400 0.66300 -0.03800
H 	H 	0.47280 0.44140 0.59980 0.03600
C 	C 	0.40760 0.44640 0.85200 -0.07900
H 	H 	0.41000 0.47900 0.91180 0.05400
C 	C 	0.36600 0.42080 0.95340 0.04300
C 	C 	0.32940 0.44530 0.14000 -0.13500
H 	H 	0.33230 0.47790 0.19860 0.07500
C 	C 	0.28840 0.41950 0.23600 0.08500
C 	C 	0.25500 0.55450 0.80900 0.12100
H 	H 	0.27890 0.57530 0.89550 -0.00200
C 	C 	0.20690 0.56890 0.81000 -0.17500
C 	C 	0.17130 0.53770 0.68000 0.13800
H 	H 	0.13910 0.54740 0.68160 0.01100
C 	C 	0.18370 0.49210 0.54900 -0.22000
H 	H 	0.15990 0.47120 0.46200 0.12500
C 	C 	0.23180 0.47770 0.54700 0.20200
C 	C 	0.26750 0.50880 0.67700 -0.21400
H 	H 	0.29960 0.49920 0.67590 0.10700
C 	C 	0.19880 0.62000 0.95100 0.47100
O 	O 	0.21390 0.25240 0.85500 -0.73300
H 	H 	0.19080 0.26470 0.73040 0.15200
O 	O 	0.15890 0.62800 0.14000 -0.19600
Zn	Zn	0.21388 0.71511 0.15760 1.21000
N 	N 	0.14640 0.74000 0.22600 -0.28200
C 	C 	0.10880 0.71970 0.07050 0.10500
H 	H 	0.11030 0.68940 0.95860 0.01300
N 	N 	0.06730 0.74590 0.08290 -0.16700
C 	C 	0.12940 0.78470 0.35550 0.05500
O 	O 	0.85840 0.72790 0.37700 -0.48400
C 	C 	0.15340 0.82130 0.54200 -0.14000
H 	H 	0.18600 0.81830 0.60080 0.06000
O 	O 	0.85890 0.66140 0.70600 -0.26100
C 	C 	0.12810 0.86250 0.63890 0.06500
C 	C 	0.14970 0.90040 0.83000 -0.10400
H 	H 	0.18220 0.89810 0.89210 0.08000
C 	C 	0.12450 0.94170 0.93100 -0.01000
H 	H 	0.13980 0.96660 0.05950 0.02600
C 	C 	0.07600 0.94520 0.83700 -0.04000
H 	H 	0.05860 0.97280 0.90020 0.03700
C 	C 	0.05360 0.90760 0.64800 -0.07600
H 	H 	0.02100 0.91000 0.58820 0.05400
C 	C 	0.07920 0.86600 0.54660 0.03700
C 	C 	0.05470 0.82940 0.36000 -0.12700
H 	H 	0.02210 0.83230 0.30140 0.07200
C 	C 	0.08050 0.78840 0.26400 0.08000
C 	C 	0.94550 0.75500 0.69100 0.12600
H 	H 	0.92470 0.77890 0.60450 -0.00100
C 	C 	0.93110 0.70690 0.69000 -0.18100
C 	C 	0.96230 0.67130 0.82000 0.14500
H 	H 	0.95260 0.63910 0.81840 0.01000
C 	C 	0.00790 0.68370 0.95100 -0.22600
H 	H 	0.02880 0.65990 0.03800 0.12700
C 	C 	0.02230 0.73180 0.95300 0.20300
C 	C 	0.99120 0.76750 0.82300 -0.21600
H 	H 	0.00080 0.79960 0.82410 0.10800
C 	C 	0.88000 0.69880 0.54900 0.49100
O 	O 	0.24760 0.71390 0.64500 -0.73800
H 	H 	0.23530 0.69080 0.76960 0.15000
O 	O 	0.87200 0.65890 0.36000 -0.20700
Zn	Zn	0.78612 0.28489 0.15760 1.21000
N 	N 	0.85360 0.26000 0.22600 -0.28200
C 	C 	0.89120 0.28030 0.07050 0.10500
H 	H 	0.88970 0.31060 0.95860 0.01300
N 	N 	0.93270 0.25410 0.08290 -0.16700
C 	C 	0.87060 0.21530 0.35550 0.05500
O 	O 	0.14160 0.27210 0.37700 -0.48400
C 	C 	0.84660 0.17870 0.54200 -0.14000
H 	H 	0.81400 0.18170 0.60080 0.06000
O 	O 	0.14110 0.33860 0.70600 -0.26100
C 	C 	0.87190 0.13750 0.63890 0.06500
C 	C 	0.85030 0.09960 0.83000 -0.10400
H 	H 	0.81780 0.10190 0.89210 0.08000
C 	C 	0.87550 0.05830 0.93100 -0.01000
H 	H 	0.86020 0.03340 0.05950 0.02600
C 	C 	0.92400 0.05480 0.83700 -0.04000
H 	H 	0.94140 0.02720 0.90020 0.03700
C 	C 	0.94640 0.09240 0.64800 -0.07600
H 	H 	0.97900 0.09000 0.58820 0.05400
C 	C 	0.92080 0.13400 0.54660 0.03700
C 	C 	0.94530 0.17060 0.36000 -0.12700
H 	H 	0.97790 0.16770 0.30140 0.07200
C 	C 	0.91950 0.21160 0.26400 0.08000
C 	C 	0.05450 0.24500 0.69100 0.12600
H 	H 	0.07530 0.22110 0.60450 -0.00100
C 	C 	0.06890 0.29310 0.69000 -0.18100
C 	C 	0.03770 0.32870 0.82000 0.14500
H 	H 	0.04740 0.36090 0.81840 0.01000
C 	C 	0.99210 0.31630 0.95100 -0.22600
H 	H 	0.97120 0.34010 0.03800 0.12700
C 	C 	0.97770 0.26820 0.95300 0.20300
C 	C 	0.00880 0.23250 0.82300 -0.21600
H 	H 	0.99920 0.20040 0.82410 0.10800
C 	C 	0.12000 0.30120 0.54900 0.49100
O 	O 	0.75240 0.28610 0.64500 -0.73800
H 	H 	0.76470 0.30920 0.76960 0.15000
O 	O 	0.12800 0.34110 0.36000 -0.20700
