data_crystal

_cell_length_a 27.69680
_cell_length_b 27.69680
_cell_length_c 3.53510
_cell_angle_alpha 90.00000
_cell_angle_beta  90.00000
_cell_angle_gamma 90.00000

_symmetry_space_group_name_	'P 1'
_symmetry_space_group_name_H-M	'P 1'

loop_
_symmetry_equiv_pos_as_xyz
  x,y,z

loop_
_atom_site_label
_atom_site_type_symbol
_atom_site_fract_x
_atom_site_fract_y
_atom_site_fract_z
_atom_site_charge
Zn	Zn	0.28507 0.21393 0.83940 1.20800
N 	N 	0.26070 0.14530 0.76900 -0.27600
C 	C 	0.28150 0.10810 0.92700 0.10300
H 	H 	0.31190 0.10950 0.03690 0.01500
N 	N 	0.25450 0.06720 0.91500 -0.16700
C 	C 	0.21540 0.12880 0.63870 0.05200
O 	O 	0.27270 0.85820 0.62400 -0.46600
C 	C 	0.17910 0.15340 0.45200 -0.13400
H 	H 	0.18250 0.18590 0.39270 0.05800
O 	O 	0.34050 0.85880 0.31000 -0.24100
C 	C 	0.13750 0.12840 0.35400 0.06200
C 	C 	0.09960 0.15030 0.16600 -0.10000
H 	H 	0.10190 0.18280 0.10440 0.07800
C 	C 	0.05800 0.12500 0.06600 -0.01400
H 	H 	0.03310 0.14030 0.93670 0.02700
C 	C 	0.05460 0.07650 0.16400 -0.03700
H 	H 	0.02690 0.05910 0.10340 0.03600
C 	C 	0.09230 0.05370 0.35300 -0.07800
H 	H 	0.08980 0.02120 0.41490 0.05500
C 	C 	0.13410 0.07950 0.45120 0.04000
C 	C 	0.17030 0.05430 0.63700 -0.12900
H 	H 	0.16700 0.02170 0.69540 0.07200
C 	C 	0.21180 0.07990 0.73300 0.08200
C 	C 	0.24590 0.94600 0.31100 0.11600
H 	H 	0.22230 0.92490 0.39950 0.00300
C 	C 	0.29420 0.93230 0.31400 -0.16600
C 	C 	0.32940 0.96380 0.18200 0.13100
H 	H 	0.36170 0.95460 0.18410 0.01000
C 	C 	0.31630 0.00920 0.04800 -0.21800
H 	H 	0.33990 0.03030 0.95990 0.12300
C 	C 	0.26800 0.02290 0.04540 0.20200
C 	C 	0.23280 0.99130 0.17700 -0.21000
H 	H 	0.20050 0.00050 0.17530 0.10500
C 	C 	0.30220 0.88060 0.44500 0.44400
O 	O 	0.28610 0.24890 0.35400 -0.73800
H 	H 	0.30930 0.23660 0.22940 0.14900
O 	O 	0.34220 0.87000 0.62000 -0.19000
Zn	Zn	0.71493 0.78607 0.83940 1.20700
N 	N 	0.73930 0.85470 0.76900 -0.27700
C 	C 	0.71850 0.89190 0.92700 0.10200
H 	H 	0.68810 0.89050 0.03690 0.01400
N 	N 	0.74550 0.93280 0.91500 -0.16800
C 	C 	0.78460 0.87120 0.63870 0.05100
O 	O 	0.72730 0.14180 0.62400 -0.46700
C 	C 	0.82090 0.84660 0.45200 -0.13500
H 	H 	0.81750 0.81410 0.39270 0.05700
O 	O 	0.65950 0.14120 0.31000 -0.24200
C 	C 	0.86250 0.87160 0.35400 0.06100
C 	C 	0.90040 0.84970 0.16600 -0.10100
H 	H 	0.89810 0.81720 0.10440 0.07800
C 	C 	0.94200 0.87500 0.06600 -0.01400
H 	H 	0.96690 0.85970 0.93670 0.02700
C 	C 	0.94540 0.92350 0.16400 -0.03700
H 	H 	0.97310 0.94090 0.10340 0.03600
C 	C 	0.90770 0.94630 0.35300 -0.07800
H 	H 	0.91020 0.97880 0.41490 0.05500
C 	C 	0.86590 0.92050 0.45120 0.04000
C 	C 	0.82970 0.94570 0.63700 -0.12900
H 	H 	0.83300 0.97830 0.69540 0.07200
C 	C 	0.78820 0.92010 0.73300 0.08200
C 	C 	0.75410 0.05400 0.31100 0.11600
H 	H 	0.77770 0.07510 0.39950 0.00300
C 	C 	0.70580 0.06770 0.31400 -0.16600
C 	C 	0.67060 0.03620 0.18200 0.13100
H 	H 	0.63830 0.04540 0.18410 0.01000
C 	C 	0.68370 0.99080 0.04800 -0.21800
H 	H 	0.66010 0.96970 0.95990 0.12300
C 	C 	0.73200 0.97710 0.04540 0.20200
C 	C 	0.76720 0.00870 0.17700 -0.21000
H 	H 	0.79950 0.99950 0.17530 0.10500
C 	C 	0.69780 0.11940 0.44500 0.44400
O 	O 	0.71390 0.75110 0.35400 -0.73800
H 	H 	0.69070 0.76340 0.22940 0.14900
O 	O 	0.65780 0.13000 0.62000 -0.19000
Zn	Zn	0.71393 0.21493 0.66060 1.20400
N 	N 	0.64530 0.23930 0.73100 -0.27600
C 	C 	0.60810 0.21850 0.57300 0.09400
H 	H 	0.60950 0.18810 0.46310 0.02000
N 	N 	0.56720 0.24550 0.58500 -0.16800
C 	C 	0.62880 0.28460 0.86130 0.04200
O 	O 	0.35820 0.22730 0.87600 -0.45500
C 	C 	0.65340 0.32090 0.04800 -0.12400
H 	H 	0.68590 0.31750 0.10730 0.05600
O 	O 	0.35880 0.15950 0.19000 -0.24500
C 	C 	0.62840 0.36250 0.14600 0.05600
C 	C 	0.65030 0.40040 0.33400 -0.09800
H 	H 	0.68280 0.39810 0.39560 0.07800
C 	C 	0.62500 0.44200 0.43400 -0.01400
H 	H 	0.64030 0.46690 0.56330 0.02600
C 	C 	0.57650 0.44540 0.33600 -0.03600
H 	H 	0.55910 0.47310 0.39660 0.03500
C 	C 	0.55370 0.40770 0.14700 -0.08100
H 	H 	0.52120 0.41020 0.08510 0.05500
C 	C 	0.57950 0.36590 0.04880 0.04500
C 	C 	0.55430 0.32970 0.86300 -0.13500
H 	H 	0.52170 0.33300 0.80460 0.07500
C 	C 	0.57990 0.28820 0.76700 0.08600
C 	C 	0.44600 0.25410 0.18900 0.11200
H 	H 	0.42490 0.27770 0.10050 0.00200
C 	C 	0.43230 0.20580 0.18600 -0.16200
C 	C 	0.46380 0.17060 0.31800 0.12700
H 	H 	0.45460 0.13830 0.31590 0.01100
C 	C 	0.50920 0.18370 0.45200 -0.21500
H 	H 	0.53030 0.16010 0.54010 0.12200
C 	C 	0.52290 0.23200 0.45460 0.20200
C 	C 	0.49130 0.26720 0.32300 -0.20900
H 	H 	0.50050 0.29950 0.32470 0.10500
C 	C 	0.38060 0.19780 0.05500 0.42900
O 	O 	0.74890 0.21390 0.14600 -0.73300
H 	H 	0.73660 0.19070 0.27060 0.15100
O 	O 	0.37000 0.15780 0.88000 -0.18000
Zn	Zn	0.28607 0.78507 0.66060 1.20400
N 	N 	0.35470 0.76070 0.73100 -0.27600
C 	C 	0.39190 0.78150 0.57300 0.09400
H 	H 	0.39050 0.81190 0.46310 0.02000
N 	N 	0.43280 0.75450 0.58500 -0.16800
C 	C 	0.37120 0.71540 0.86130 0.04200
O 	O 	0.64180 0.77270 0.87600 -0.45500
C 	C 	0.34660 0.67910 0.04800 -0.12400
H 	H 	0.31410 0.68250 0.10730 0.05600
O 	O 	0.64120 0.84050 0.19000 -0.24500
C 	C 	0.37160 0.63750 0.14600 0.05600
C 	C 	0.34970 0.59960 0.33400 -0.09800
H 	H 	0.31720 0.60190 0.39560 0.07800
C 	C 	0.37500 0.55800 0.43400 -0.01400
H 	H 	0.35970 0.53310 0.56330 0.02600
C 	C 	0.42350 0.55460 0.33600 -0.03600
H 	H 	0.44090 0.52690 0.39660 0.03500
C 	C 	0.44630 0.59230 0.14700 -0.08100
H 	H 	0.47880 0.58980 0.08510 0.05500
C 	C 	0.42050 0.63410 0.04880 0.04500
C 	C 	0.44570 0.67030 0.86300 -0.13500
H 	H 	0.47830 0.66700 0.80460 0.07500
C 	C 	0.42010 0.71180 0.76700 0.08600
C 	C 	0.55400 0.74590 0.18900 0.11200
H 	H 	0.57510 0.72230 0.10050 0.00200
C 	C 	0.56770 0.79420 0.18600 -0.16200
C 	C 	0.53620 0.82940 0.31800 0.12700
H 	H 	0.54540 0.86170 0.31590 0.01100
C 	C 	0.49080 0.81630 0.45200 -0.21500
H 	H 	0.46970 0.83990 0.54010 0.12200
C 	C 	0.47710 0.76800 0.45460 0.20200
C 	C 	0.50870 0.73280 0.32300 -0.20900
H 	H 	0.49950 0.70050 0.32470 0.10500
C 	C 	0.61940 0.80220 0.05500 0.42900
O 	O 	0.25110 0.78610 0.14600 -0.73300
H 	H 	0.26340 0.80930 0.27060 0.15100
O 	O 	0.63000 0.84220 0.88000 -0.18000
Zn	Zn	0.78507 0.71393 0.33940 1.20400
N 	N 	0.76070 0.64530 0.26900 -0.27600
C 	C 	0.78150 0.60810 0.42700 0.09400
H 	H 	0.81190 0.60950 0.53690 0.02000
N 	N 	0.75450 0.56720 0.41500 -0.16800
C 	C 	0.71540 0.62880 0.13870 0.04200
O 	O 	0.77270 0.35820 0.12400 -0.45500
C 	C 	0.67910 0.65340 0.95200 -0.12400
H 	H 	0.68250 0.68590 0.89270 0.05600
O 	O 	0.84050 0.35880 0.81000 -0.24500
C 	C 	0.63750 0.62840 0.85400 0.05600
C 	C 	0.59960 0.65030 0.66600 -0.09800
H 	H 	0.60190 0.68280 0.60440 0.07800
C 	C 	0.55800 0.62500 0.56600 -0.01400
H 	H 	0.53310 0.64030 0.43670 0.02600
C 	C 	0.55460 0.57650 0.66400 -0.03600
H 	H 	0.52690 0.55910 0.60340 0.03500
C 	C 	0.59230 0.55370 0.85300 -0.08100
H 	H 	0.58980 0.52120 0.91490 0.05500
C 	C 	0.63410 0.57950 0.95120 0.04500
C 	C 	0.67030 0.55430 0.13700 -0.13500
H 	H 	0.66700 0.52170 0.19540 0.07500
C 	C 	0.71180 0.57990 0.23300 0.08600
C 	C 	0.74590 0.44600 0.81100 0.11200
H 	H 	0.72230 0.42490 0.89950 0.00200
C 	C 	0.79420 0.43230 0.81400 -0.16200
C 	C 	0.82940 0.46380 0.68200 0.12700
H 	H 	0.86170 0.45460 0.68410 0.01100
C 	C 	0.81630 0.50920 0.54800 -0.21500
H 	H 	0.83990 0.53030 0.45990 0.12200
C 	C 	0.76800 0.52290 0.54540 0.20200
C 	C 	0.73280 0.49130 0.67700 -0.20900
H 	H 	0.70050 0.50050 0.67530 0.10500
C 	C 	0.80220 0.38060 0.94500 0.42900
O 	O 	0.78610 0.74890 0.85400 -0.73300
H 	H 	0.80930 0.73660 0.72940 0.15100
O 	O 	0.84220 0.37000 0.12000 -0.18000
Zn	Zn	0.21493 0.28607 0.33940 1.20400
N 	N 	0.23930 0.35470 0.26900 -0.27600
C 	C 	0.21850 0.39190 0.42700 0.09400
H 	H 	0.18810 0.39050 0.53690 0.02000
N 	N 	0.24550 0.43280 0.41500 -0.16800
C 	C 	0.28460 0.37120 0.13870 0.04200
O 	O 	0.22730 0.64180 0.12400 -0.45500
C 	C 	0.32090 0.34660 0.95200 -0.12400
H 	H 	0.31750 0.31410 0.89270 0.05600
O 	O 	0.15950 0.64120 0.81000 -0.24500
C 	C 	0.36250 0.37160 0.85400 0.05600
C 	C 	0.40040 0.34970 0.66600 -0.09800
H 	H 	0.39810 0.31720 0.60440 0.07800
C 	C 	0.44200 0.37500 0.56600 -0.01400
H 	H 	0.46690 0.35970 0.43670 0.02600
C 	C 	0.44540 0.42350 0.66400 -0.03600
H 	H 	0.47310 0.44090 0.60340 0.03500
C 	C 	0.40770 0.44630 0.85300 -0.08100
H 	H 	0.41020 0.47880 0.91490 0.05500
C 	C 	0.36590 0.42050 0.95120 0.04500
C 	C 	0.32970 0.44570 0.13700 -0.13500
H 	H 	0.33300 0.47830 0.19540 0.07500
C 	C 	0.28820 0.42010 0.23300 0.08600
C 	C 	0.25410 0.55400 0.81100 0.11200
H 	H 	0.27770 0.57510 0.89950 0.00200
C 	C 	0.20580 0.56770 0.81400 -0.16200
C 	C 	0.17060 0.53620 0.68200 0.12700
H 	H 	0.13830 0.54540 0.68410 0.01100
C 	C 	0.18370 0.49080 0.54800 -0.21500
H 	H 	0.16010 0.46970 0.45990 0.12200
C 	C 	0.23200 0.47710 0.54540 0.20200
C 	C 	0.26720 0.50870 0.67700 -0.20900
H 	H 	0.29950 0.49950 0.67530 0.10500
C 	C 	0.19780 0.61940 0.94500 0.42900
O 	O 	0.21390 0.25110 0.85400 -0.73300
H 	H 	0.19070 0.26340 0.72940 0.15100
O 	O 	0.15780 0.63000 0.12000 -0.18000
Zn	Zn	0.21393 0.71493 0.16060 1.20700
N 	N 	0.14530 0.73930 0.23100 -0.27700
C 	C 	0.10810 0.71850 0.07300 0.10200
H 	H 	0.10950 0.68810 0.96310 0.01400
N 	N 	0.06720 0.74550 0.08500 -0.16800
C 	C 	0.12880 0.78460 0.36130 0.05100
O 	O 	0.85820 0.72730 0.37600 -0.46700
C 	C 	0.15340 0.82090 0.54800 -0.13500
H 	H 	0.18590 0.81750 0.60730 0.05700
O 	O 	0.85880 0.65950 0.69000 -0.24200
C 	C 	0.12840 0.86250 0.64600 0.06100
C 	C 	0.15030 0.90040 0.83400 -0.10100
H 	H 	0.18280 0.89810 0.89560 0.07800
C 	C 	0.12500 0.94200 0.93400 -0.01400
H 	H 	0.14030 0.96690 0.06330 0.02700
C 	C 	0.07650 0.94540 0.83600 -0.03700
H 	H 	0.05910 0.97310 0.89660 0.03600
C 	C 	0.05370 0.90770 0.64700 -0.07800
H 	H 	0.02120 0.91020 0.58510 0.05500
C 	C 	0.07950 0.86590 0.54880 0.04000
C 	C 	0.05430 0.82970 0.36300 -0.12900
H 	H 	0.02170 0.83300 0.30460 0.07200
C 	C 	0.07990 0.78820 0.26700 0.08200
C 	C 	0.94600 0.75410 0.68900 0.11600
H 	H 	0.92490 0.77770 0.60050 0.00300
C 	C 	0.93230 0.70580 0.68600 -0.16600
C 	C 	0.96380 0.67060 0.81800 0.13100
H 	H 	0.95460 0.63830 0.81590 0.01000
C 	C 	0.00920 0.68370 0.95200 -0.21800
H 	H 	0.03030 0.66010 0.04010 0.12300
C 	C 	0.02290 0.73200 0.95460 0.20200
C 	C 	0.99130 0.76720 0.82300 -0.21000
H 	H 	0.00050 0.79950 0.82470 0.10500
C 	C 	0.88060 0.69780 0.55500 0.44400
O 	O 	0.24890 0.71390 0.64600 -0.73800
H 	H 	0.23660 0.69070 0.77060 0.14900
O 	O 	0.87000 0.65780 0.38000 -0.19000
Zn	Zn	0.78607 0.28507 0.16060 1.20700
N 	N 	0.85470 0.26070 0.23100 -0.27700
C 	C 	0.89190 0.28150 0.07300 0.10200
H 	H 	0.89050 0.31190 0.96310 0.01400
N 	N 	0.93280 0.25450 0.08500 -0.16800
C 	C 	0.87120 0.21540 0.36130 0.05100
O 	O 	0.14180 0.27270 0.37600 -0.46700
C 	C 	0.84660 0.17910 0.54800 -0.13500
H 	H 	0.81410 0.18250 0.60730 0.05700
O 	O 	0.14120 0.34050 0.69000 -0.24200
C 	C 	0.87160 0.13750 0.64600 0.06100
C 	C 	0.84970 0.09960 0.83400 -0.10100
H 	H 	0.81720 0.10190 0.89560 0.07800
C 	C 	0.87500 0.05800 0.93400 -0.01400
H 	H 	0.85970 0.03310 0.06330 0.02700
C 	C 	0.92350 0.05460 0.83600 -0.03700
H 	H 	0.94090 0.02690 0.89660 0.03600
C 	C 	0.94630 0.09230 0.64700 -0.07800
H 	H 	0.97880 0.08980 0.58510 0.05500
C 	C 	0.92050 0.13410 0.54880 0.04000
C 	C 	0.94570 0.17030 0.36300 -0.12900
H 	H 	0.97830 0.16700 0.30460 0.07200
C 	C 	0.92010 0.21180 0.26700 0.08200
C 	C 	0.05400 0.24590 0.68900 0.11600
H 	H 	0.07510 0.22230 0.60050 0.00300
C 	C 	0.06770 0.29420 0.68600 -0.16600
C 	C 	0.03620 0.32940 0.81800 0.13100
H 	H 	0.04540 0.36170 0.81590 0.01000
C 	C 	0.99080 0.31630 0.95200 -0.21800
H 	H 	0.96970 0.33990 0.04010 0.12300
C 	C 	0.97710 0.26800 0.95460 0.20200
C 	C 	0.00870 0.23280 0.82300 -0.21000
H 	H 	0.99950 0.20050 0.82470 0.10500
C 	C 	0.11940 0.30220 0.55500 0.44400
O 	O 	0.75110 0.28610 0.64600 -0.73800
H 	H 	0.76340 0.30930 0.77060 0.14900
O 	O 	0.13000 0.34220 0.38000 -0.19000
