data_crystal

_cell_length_a 39.07300
_cell_length_b 19.22900
_cell_length_c 13.79800
_cell_angle_alpha 90.00000
_cell_angle_beta  103.60000
_cell_angle_gamma 90.00000

_symmetry_space_group_name_	'P 1'
_symmetry_space_group_name_H-M	'P 1'

loop_
_symmetry_equiv_pos_as_xyz
  x,y,z

loop_
_atom_site_label
_atom_site_type_symbol
_atom_site_fract_x
_atom_site_fract_y
_atom_site_fract_z
_atom_site_charge
C 	C 	0.12970 0.79680 0.83590 -0.16700
H 	H 	0.14210 0.76180 0.87570 0.09400
C 	C 	0.10210 0.84110 0.68220 -0.16500
H 	H 	0.09520 0.83840 0.61310 0.08500
C 	C 	0.09520 0.89790 0.72910 0.09700
H 	H 	0.08270 0.93350 0.69100 -0.00300
C 	C 	0.12556 0.72290 0.68680 0.08600
C 	C 	0.11900 0.78720 0.73550 0.08000
C 	C 	0.08920 0.21250 0.20440 0.10400
C 	C 	0.07570 0.15660 0.13460 0.07100
C 	C 	0.06160 0.44440 0.64960 0.14000
H 	H 	0.07340 0.40200 0.65630 -0.02900
C 	C 	0.02650 0.44290 0.63140 -0.20500
H 	H 	0.01490 0.40050 0.61840 0.10400
C 	C 	0.12240 0.23440 0.21840 -0.19900
H 	H 	0.13750 0.21470 0.18300 0.09800
C 	C 	0.06820 0.24540 0.25460 -0.19800
H 	H 	0.04470 0.23260 0.24570 0.09600
C 	C 	0.13370 0.28590 0.28520 0.13000
H 	H 	0.15720 0.29950 0.29640 -0.05400
C 	C 	0.15150 0.44440 0.01120 -0.28300
H 	H 	0.15590 0.40220 0.04470 0.12400
C 	C 	0.14810 0.44650 0.90500 0.20100
H 	H 	0.14810 0.40420 0.87220 -0.04900
C 	C 	0.08190 0.29760 0.31820 0.13400
H 	H 	0.06710 0.32020 0.35190 -0.03700
C 	C 	0.12240 0.85580 0.87780 0.10900
H 	H 	0.13000 0.86060 0.94660 -0.01300
Cd	Cd	0.13512 0.40686 0.43847 1.17800
N 	N 	0.13818 0.62080 0.66770 -0.16700
N 	N 	0.13682 0.66660 0.73580 -0.10100
N 	N 	0.12821 0.64880 0.58050 -0.18100
N 	N 	0.12031 0.71450 0.59070 -0.10900
N 	N 	0.10516 0.90700 0.82650 -0.24800
N 	N 	0.04330 0.08090 0.05480 -0.16700
N 	N 	0.11389 0.31730 0.33440 -0.28500
N 	N 	0.14731 0.53300 0.30370 -0.17600
N 	N 	0.14851 0.55490 0.21520 -0.09900
N 	N 	0.07263 0.08070 0.02630 -0.15500
N 	N 	0.04437 0.12890 0.12400 -0.11300
N 	N 	0.09360 0.12850 0.07560 -0.10400
N 	N 	0.91839 0.46610 0.59240 -0.17400
N 	N 	0.95078 0.44420 0.60680 -0.09800
H 	H 	0.02850 0.95430 0.29350 0.25500
H 	H 	0.02560 0.03250 0.32260 0.27200
H 	H 	0.03560 0.01330 0.22230 0.26700
C 	C 	0.62970 0.29680 0.83590 -0.16600
H 	H 	0.64210 0.26180 0.87570 0.09600
C 	C 	0.60210 0.34110 0.68220 -0.16400
H 	H 	0.59520 0.33840 0.61310 0.08600
C 	C 	0.59520 0.39790 0.72910 0.09700
H 	H 	0.58270 0.43350 0.69100 -0.00200
C 	C 	0.62556 0.22290 0.68680 0.08700
C 	C 	0.61900 0.28720 0.73550 0.08000
C 	C 	0.58920 0.71250 0.20440 0.10400
C 	C 	0.57570 0.65660 0.13460 0.07100
C 	C 	0.56160 0.94440 0.64960 0.14300
H 	H 	0.57340 0.90200 0.65630 -0.03100
C 	C 	0.52650 0.94290 0.63140 -0.22000
H 	H 	0.51490 0.90050 0.61840 0.11000
C 	C 	0.62240 0.73440 0.21840 -0.20000
H 	H 	0.63750 0.71470 0.18300 0.09800
C 	C 	0.56820 0.74540 0.25460 -0.19800
H 	H 	0.54470 0.73260 0.24570 0.09600
C 	C 	0.63370 0.78590 0.28520 0.13000
H 	H 	0.65720 0.79950 0.29640 -0.05400
C 	C 	0.65150 0.94440 0.01120 -0.28600
H 	H 	0.65590 0.90220 0.04470 0.12400
C 	C 	0.64810 0.94650 0.90500 0.19500
H 	H 	0.64810 0.90420 0.87220 -0.04800
C 	C 	0.58190 0.79760 0.31820 0.13400
H 	H 	0.56710 0.82020 0.35190 -0.03700
C 	C 	0.62240 0.35580 0.87780 0.10900
H 	H 	0.63000 0.36060 0.94660 -0.01200
Cd	Cd	0.63512 0.90686 0.43847 1.17800
N 	N 	0.63818 0.12080 0.66770 -0.16700
N 	N 	0.63682 0.16660 0.73580 -0.10100
N 	N 	0.62821 0.14880 0.58050 -0.18100
N 	N 	0.62031 0.21450 0.59070 -0.10900
N 	N 	0.60516 0.40700 0.82650 -0.24700
N 	N 	0.54330 0.58090 0.05480 -0.16600
N 	N 	0.61389 0.81730 0.33440 -0.28500
N 	N 	0.64731 0.03300 0.30370 -0.17400
N 	N 	0.64851 0.05490 0.21520 -0.09900
N 	N 	0.57263 0.58070 0.02630 -0.15500
N 	N 	0.54437 0.62890 0.12400 -0.11200
N 	N 	0.59360 0.62850 0.07560 -0.10400
N 	N 	0.41839 0.96610 0.59240 -0.17600
N 	N 	0.45078 0.94420 0.60680 -0.10000
H 	H 	0.52850 0.45430 0.29350 0.24100
H 	H 	0.52560 0.53250 0.32260 0.25800
H 	H 	0.53560 0.51330 0.22230 0.24300
C 	C 	0.87030 0.79680 0.16410 -0.16800
H 	H 	0.85790 0.76180 0.12430 0.08700
C 	C 	0.89790 0.84110 0.31780 -0.16500
H 	H 	0.90480 0.83840 0.38690 0.08500
C 	C 	0.90480 0.89790 0.27090 0.09400
H 	H 	0.91730 0.93350 0.30900 -0.00300
C 	C 	0.87444 0.72290 0.31320 0.08500
C 	C 	0.88100 0.78720 0.26450 0.07700
C 	C 	0.91080 0.21250 0.79560 0.11100
C 	C 	0.92430 0.15660 0.86540 0.07400
C 	C 	0.93840 0.44440 0.35040 0.14700
H 	H 	0.92660 0.40200 0.34370 -0.03300
C 	C 	0.97350 0.44290 0.36860 -0.22000
H 	H 	0.98510 0.40050 0.38160 0.11000
C 	C 	0.87760 0.23440 0.78160 -0.20200
H 	H 	0.86250 0.21470 0.81700 0.10500
C 	C 	0.93180 0.24540 0.74540 -0.20100
H 	H 	0.95530 0.23260 0.75430 0.10200
C 	C 	0.86630 0.28590 0.71480 0.13500
H 	H 	0.84280 0.29950 0.70360 -0.05300
C 	C 	0.84850 0.44440 0.98880 -0.10400
H 	H 	0.84410 0.40220 0.95530 0.07500
C 	C 	0.85190 0.44650 0.09500 0.06400
H 	H 	0.85190 0.40420 0.12780 -0.01100
C 	C 	0.91810 0.29760 0.68180 0.13900
H 	H 	0.93290 0.32020 0.64810 -0.03600
C 	C 	0.87760 0.85580 0.12220 0.10500
H 	H 	0.87000 0.86060 0.05340 -0.02700
Cd	Cd	0.86488 0.40686 0.56153 1.17900
N 	N 	0.86182 0.62080 0.33230 -0.16800
N 	N 	0.86318 0.66660 0.26420 -0.10500
N 	N 	0.87179 0.64880 0.41950 -0.18100
N 	N 	0.87969 0.71450 0.40930 -0.10900
N 	N 	0.89484 0.90700 0.17350 -0.25200
N 	N 	0.95670 0.08090 0.94520 -0.15500
N 	N 	0.88611 0.31730 0.66560 -0.28600
N 	N 	0.85269 0.53300 0.69630 -0.17400
N 	N 	0.85149 0.55490 0.78480 -0.10700
N 	N 	0.92737 0.08070 0.97370 -0.14200
N 	N 	0.95563 0.12890 0.87600 -0.10700
N 	N 	0.90640 0.12850 0.92440 -0.09600
N 	N 	0.08161 0.46610 0.40760 -0.17500
N 	N 	0.04922 0.44420 0.39320 -0.09900
H 	H 	0.97150 0.95430 0.70650 0.25500
H 	H 	0.97440 0.03250 0.67740 0.27200
H 	H 	0.96440 0.01330 0.77770 0.27100
C 	C 	0.37030 0.29680 0.16410 -0.16800
H 	H 	0.35790 0.26180 0.12430 0.08700
C 	C 	0.39790 0.34110 0.31780 -0.16400
H 	H 	0.40480 0.33840 0.38690 0.08500
C 	C 	0.40480 0.39790 0.27090 0.09400
H 	H 	0.41730 0.43350 0.30900 -0.00200
C 	C 	0.37444 0.22290 0.31320 0.08500
C 	C 	0.38100 0.28720 0.26450 0.07700
C 	C 	0.41080 0.71250 0.79560 0.11000
C 	C 	0.42430 0.65660 0.86540 0.07400
C 	C 	0.43840 0.94440 0.35040 0.14100
H 	H 	0.42660 0.90200 0.34370 -0.03100
C 	C 	0.47350 0.94290 0.36860 -0.21900
H 	H 	0.48510 0.90050 0.38160 0.10800
C 	C 	0.37760 0.73440 0.78160 -0.20200
H 	H 	0.36250 0.71470 0.81700 0.10500
C 	C 	0.43180 0.74540 0.74540 -0.20100
H 	H 	0.45530 0.73260 0.75430 0.10100
C 	C 	0.36630 0.78590 0.71480 0.13400
H 	H 	0.34280 0.79950 0.70360 -0.05300
C 	C 	0.34850 0.94440 0.98880 -0.11600
H 	H 	0.34410 0.90220 0.95530 0.07800
C 	C 	0.35190 0.94650 0.09500 0.06600
H 	H 	0.35190 0.90420 0.12780 -0.01200
C 	C 	0.41810 0.79760 0.68180 0.13800
H 	H 	0.43290 0.82020 0.64810 -0.03700
C 	C 	0.37760 0.35580 0.12220 0.10500
H 	H 	0.37000 0.36060 0.05340 -0.02700
Cd	Cd	0.36488 0.90686 0.56153 1.17800
N 	N 	0.36182 0.12080 0.33230 -0.16800
N 	N 	0.36318 0.16660 0.26420 -0.10500
N 	N 	0.37179 0.14880 0.41950 -0.18100
N 	N 	0.37969 0.21450 0.40930 -0.10900
N 	N 	0.39484 0.40700 0.17350 -0.25100
N 	N 	0.45670 0.58090 0.94520 -0.15700
N 	N 	0.38611 0.81730 0.66560 -0.28600
N 	N 	0.35269 0.03300 0.69630 -0.17200
N 	N 	0.35149 0.05490 0.78480 -0.10600
N 	N 	0.42737 0.58070 0.97370 -0.14200
N 	N 	0.45563 0.62890 0.87600 -0.10800
N 	N 	0.40640 0.62850 0.92440 -0.09600
N 	N 	0.58161 0.96610 0.40760 -0.17600
N 	N 	0.54922 0.94420 0.39320 -0.10100
H 	H 	0.47150 0.45430 0.70650 0.24000
H 	H 	0.47440 0.53250 0.67740 0.25500
H 	H 	0.46440 0.51330 0.77770 0.24200
C 	C 	0.87030 0.20320 0.16410 -0.16800
H 	H 	0.85790 0.23820 0.12430 0.08700
C 	C 	0.89790 0.15890 0.31780 -0.16400
H 	H 	0.90480 0.16160 0.38690 0.08600
C 	C 	0.90480 0.10210 0.27090 0.09400
H 	H 	0.91730 0.06650 0.30900 -0.00100
C 	C 	0.87444 0.27710 0.31320 0.08500
C 	C 	0.88100 0.21280 0.26450 0.07700
C 	C 	0.91080 0.78750 0.79560 0.11100
C 	C 	0.92430 0.84340 0.86540 0.07400
C 	C 	0.93840 0.55560 0.35040 0.14700
H 	H 	0.92660 0.59800 0.34370 -0.03300
C 	C 	0.97350 0.55710 0.36860 -0.22000
H 	H 	0.98510 0.59950 0.38160 0.11000
C 	C 	0.87760 0.76560 0.78160 -0.20200
H 	H 	0.86250 0.78530 0.81700 0.10500
C 	C 	0.93180 0.75460 0.74540 -0.20000
H 	H 	0.95530 0.76740 0.75430 0.10100
C 	C 	0.86630 0.71410 0.71480 0.13400
H 	H 	0.84280 0.70050 0.70360 -0.05300
C 	C 	0.84850 0.55560 0.98880 -0.10400
H 	H 	0.84410 0.59780 0.95530 0.07500
C 	C 	0.85190 0.55350 0.09500 0.06500
H 	H 	0.85190 0.59580 0.12780 -0.01100
C 	C 	0.91810 0.70240 0.68180 0.13800
H 	H 	0.93290 0.67980 0.64810 -0.03600
C 	C 	0.87760 0.14420 0.12220 0.10500
H 	H 	0.87000 0.13940 0.05340 -0.02700
Cd	Cd	0.86488 0.59314 0.56153 1.17900
N 	N 	0.86182 0.37920 0.33230 -0.16800
N 	N 	0.86318 0.33340 0.26420 -0.10500
N 	N 	0.87179 0.35120 0.41950 -0.18100
N 	N 	0.87969 0.28550 0.40930 -0.10900
N 	N 	0.89484 0.09300 0.17350 -0.25100
N 	N 	0.95670 0.91910 0.94520 -0.15700
N 	N 	0.88611 0.68270 0.66560 -0.28600
N 	N 	0.85269 0.46700 0.69630 -0.17400
N 	N 	0.85149 0.44510 0.78480 -0.10600
N 	N 	0.92737 0.91930 0.97370 -0.14400
N 	N 	0.95563 0.87110 0.87600 -0.10700
N 	N 	0.90640 0.87150 0.92440 -0.09700
N 	N 	0.08161 0.53390 0.40760 -0.17500
N 	N 	0.04922 0.55580 0.39320 -0.09900
H 	H 	0.97150 0.04570 0.70650 0.20800
H 	H 	0.97440 0.96750 0.67740 0.22300
H 	H 	0.96440 0.98670 0.77770 0.19600
C 	C 	0.37030 0.70320 0.16410 -0.16800
H 	H 	0.35790 0.73820 0.12430 0.08700
C 	C 	0.39790 0.65890 0.31780 -0.16400
H 	H 	0.40480 0.66160 0.38690 0.08500
C 	C 	0.40480 0.60210 0.27090 0.09400
H 	H 	0.41730 0.56650 0.30900 -0.00200
C 	C 	0.37444 0.77710 0.31320 0.08500
C 	C 	0.38100 0.71280 0.26450 0.07700
C 	C 	0.41080 0.28750 0.79560 0.11100
C 	C 	0.42430 0.34340 0.86540 0.07400
C 	C 	0.43840 0.05560 0.35040 0.14500
H 	H 	0.42660 0.09800 0.34370 -0.03200
C 	C 	0.47350 0.05710 0.36860 -0.21600
H 	H 	0.48510 0.09950 0.38160 0.10800
C 	C 	0.37760 0.26560 0.78160 -0.20200
H 	H 	0.36250 0.28530 0.81700 0.10500
C 	C 	0.43180 0.25460 0.74540 -0.20000
H 	H 	0.45530 0.26740 0.75430 0.10100
C 	C 	0.36630 0.21410 0.71480 0.13400
H 	H 	0.34280 0.20050 0.70360 -0.05300
C 	C 	0.34850 0.05560 0.98880 -0.10800
H 	H 	0.34410 0.09780 0.95530 0.07700
C 	C 	0.35190 0.05350 0.09500 0.06700
H 	H 	0.35190 0.09580 0.12780 -0.01200
C 	C 	0.41810 0.20240 0.68180 0.13800
H 	H 	0.43290 0.17980 0.64810 -0.03700
C 	C 	0.37760 0.64420 0.12220 0.10500
H 	H 	0.37000 0.63940 0.05340 -0.02700
Cd	Cd	0.36488 0.09314 0.56153 1.17900
N 	N 	0.36182 0.87920 0.33230 -0.16900
N 	N 	0.36318 0.83340 0.26420 -0.10500
N 	N 	0.37179 0.85120 0.41950 -0.18200
N 	N 	0.37969 0.78550 0.40930 -0.10900
N 	N 	0.39484 0.59300 0.17350 -0.25100
N 	N 	0.45670 0.41910 0.94520 -0.15700
N 	N 	0.38611 0.18270 0.66560 -0.28600
N 	N 	0.35269 0.96700 0.69630 -0.17600
N 	N 	0.35149 0.94510 0.78480 -0.10900
N 	N 	0.42737 0.41930 0.97370 -0.14200
N 	N 	0.45563 0.37110 0.87600 -0.10800
N 	N 	0.40640 0.37150 0.92440 -0.09600
N 	N 	0.58161 0.03390 0.40760 -0.17300
N 	N 	0.54922 0.05580 0.39320 -0.09900
H 	H 	0.47150 0.54570 0.70650 0.24000
H 	H 	0.47440 0.46750 0.67740 0.25500
H 	H 	0.46440 0.48670 0.77770 0.24200
C 	C 	0.12970 0.20320 0.83590 -0.16600
H 	H 	0.14210 0.23820 0.87570 0.09600
C 	C 	0.10210 0.15890 0.68220 -0.16400
H 	H 	0.09520 0.16160 0.61310 0.08600
C 	C 	0.09520 0.10210 0.72910 0.09700
H 	H 	0.08270 0.06650 0.69100 -0.00100
C 	C 	0.12556 0.27710 0.68680 0.08600
C 	C 	0.11900 0.21280 0.73550 0.08000
C 	C 	0.08920 0.78750 0.20440 0.10300
C 	C 	0.07570 0.84340 0.13460 0.07100
C 	C 	0.06160 0.55560 0.64960 0.14000
H 	H 	0.07340 0.59800 0.65630 -0.02900
C 	C 	0.02650 0.55710 0.63140 -0.20500
H 	H 	0.01490 0.59950 0.61840 0.10400
C 	C 	0.12240 0.76560 0.21840 -0.19900
H 	H 	0.13750 0.78530 0.18300 0.09700
C 	C 	0.06820 0.75460 0.25460 -0.19800
H 	H 	0.04470 0.76740 0.24570 0.09500
C 	C 	0.13370 0.71410 0.28520 0.12900
H 	H 	0.15720 0.70050 0.29640 -0.05400
C 	C 	0.15150 0.55560 0.01120 -0.28300
H 	H 	0.15590 0.59780 0.04470 0.12400
C 	C 	0.14810 0.55350 0.90500 0.20100
H 	H 	0.14810 0.59580 0.87220 -0.04900
C 	C 	0.08190 0.70240 0.31820 0.13400
H 	H 	0.06710 0.67980 0.35190 -0.03700
C 	C 	0.12240 0.14420 0.87780 0.10900
H 	H 	0.13000 0.13940 0.94660 -0.01200
Cd	Cd	0.13512 0.59314 0.43847 1.17800
N 	N 	0.13818 0.37920 0.66770 -0.16700
N 	N 	0.13682 0.33340 0.73580 -0.10100
N 	N 	0.12821 0.35120 0.58050 -0.18100
N 	N 	0.12031 0.28550 0.59070 -0.10900
N 	N 	0.10516 0.09300 0.82650 -0.24600
N 	N 	0.04330 0.91910 0.05480 -0.16700
N 	N 	0.11389 0.68270 0.33440 -0.28500
N 	N 	0.14731 0.46700 0.30370 -0.17600
N 	N 	0.14851 0.44510 0.21520 -0.09900
N 	N 	0.07263 0.91930 0.02630 -0.15600
N 	N 	0.04437 0.87110 0.12400 -0.11200
N 	N 	0.09360 0.87150 0.07560 -0.10400
N 	N 	0.91839 0.53390 0.59240 -0.17400
N 	N 	0.95078 0.55580 0.60680 -0.09900
H 	H 	0.02850 0.04570 0.29350 0.21900
H 	H 	0.02560 0.96750 0.32260 0.23400
H 	H 	0.03560 0.98670 0.22230 0.21000
C 	C 	0.62970 0.70320 0.83590 -0.16600
H 	H 	0.64210 0.73820 0.87570 0.09500
C 	C 	0.60210 0.65890 0.68220 -0.16400
H 	H 	0.59520 0.66160 0.61310 0.08600
C 	C 	0.59520 0.60210 0.72910 0.09700
H 	H 	0.58270 0.56650 0.69100 -0.00200
C 	C 	0.62556 0.77710 0.68680 0.08600
C 	C 	0.61900 0.71280 0.73550 0.08000
C 	C 	0.58920 0.28750 0.20440 0.10400
C 	C 	0.57570 0.34340 0.13460 0.07100
C 	C 	0.56160 0.05560 0.64960 0.14700
H 	H 	0.57340 0.09800 0.65630 -0.03100
C 	C 	0.52650 0.05710 0.63140 -0.21600
H 	H 	0.51490 0.09950 0.61840 0.10900
C 	C 	0.62240 0.26560 0.21840 -0.19900
H 	H 	0.63750 0.28530 0.18300 0.09800
C 	C 	0.56820 0.25460 0.25460 -0.19800
H 	H 	0.54470 0.26740 0.24570 0.09600
C 	C 	0.63370 0.21410 0.28520 0.13000
H 	H 	0.65720 0.20050 0.29640 -0.05400
C 	C 	0.65150 0.05560 0.01120 -0.28500
H 	H 	0.65590 0.09780 0.04470 0.12500
C 	C 	0.64810 0.05350 0.90500 0.20300
H 	H 	0.64810 0.09580 0.87220 -0.04900
C 	C 	0.58190 0.20240 0.31820 0.13400
H 	H 	0.56710 0.17980 0.35190 -0.03700
C 	C 	0.62240 0.64420 0.87780 0.10900
H 	H 	0.63000 0.63940 0.94660 -0.01200
Cd	Cd	0.63512 0.09314 0.43847 1.17800
N 	N 	0.63818 0.87920 0.66770 -0.16800
N 	N 	0.63682 0.83340 0.73580 -0.10100
N 	N 	0.62821 0.85120 0.58050 -0.18200
N 	N 	0.62031 0.78550 0.59070 -0.10900
N 	N 	0.60516 0.59300 0.82650 -0.24700
N 	N 	0.54330 0.41910 0.05480 -0.16600
N 	N 	0.61389 0.18270 0.33440 -0.28500
N 	N 	0.64731 0.96700 0.30370 -0.17700
N 	N 	0.64851 0.94510 0.21520 -0.10000
N 	N 	0.57263 0.41930 0.02630 -0.15500
N 	N 	0.54437 0.37110 0.12400 -0.11200
N 	N 	0.59360 0.37150 0.07560 -0.10400
N 	N 	0.41839 0.03390 0.59240 -0.17200
N 	N 	0.45078 0.05580 0.60680 -0.09800
H 	H 	0.52850 0.54570 0.29350 0.24100
H 	H 	0.52560 0.46750 0.32260 0.25800
H 	H 	0.53560 0.48670 0.22230 0.24300
C 	C 	0.29580 0.50000 0.96190 -0.09200
H 	H 	0.27640 0.50000 0.99030 0.07300
C 	C 	0.35270 0.50000 0.88970 0.07800
H 	H 	0.37270 0.50000 0.86400 -0.00900
C 	C 	0.96970 0.50000 0.61490 0.08200
C 	C 	0.32860 0.50000 0.02000 0.03300
H 	H 	0.33090 0.50000 0.08860 -0.00600
C 	C 	0.29110 0.50000 0.86000 0.04300
C 	C 	0.32070 0.50000 0.82590 -0.12700
H 	H 	0.31900 0.50000 0.75750 0.07700
C 	C 	0.00800 0.50000 0.63140 0.12100
C 	C 	0.14860 0.50000 0.06030 0.19000
C 	C 	0.25760 0.50000 0.79270 0.09700
Cd	Cd	0.14264 0.50000 0.68680 1.19600
N 	N 	0.35673 0.50000 0.98880 -0.21400
N 	N 	0.22710 0.50000 0.81710 -0.10000
N 	N 	0.25340 0.50000 0.69560 -0.10200
N 	N 	0.08020 0.50000 0.65850 -0.27100
N 	N 	0.20330 0.50000 0.73030 -0.16000
N 	N 	0.14530 0.50000 0.85420 -0.30700
N 	N 	0.21850 0.50000 0.66000 -0.07700
O 	O 	0.15298 0.50000 0.53170 -0.64500
C 	C 	0.14830 0.50000 0.16260 0.04500
C 	C 	0.79580 0.00000 0.96190 -0.09000
H 	H 	0.77640 0.00000 0.99030 0.07300
C 	C 	0.85270 0.00000 0.88970 0.07800
H 	H 	0.87270 0.00000 0.86400 -0.00800
C 	C 	0.46970 0.00000 0.61490 0.07700
C 	C 	0.82860 0.00000 0.02000 0.03100
H 	H 	0.83090 -0.00000 0.08860 -0.00500
C 	C 	0.79110 -0.00000 0.86000 0.04200
C 	C 	0.82070 0.00000 0.82590 -0.12600
H 	H 	0.81900 0.00000 0.75750 0.07700
C 	C 	0.50800 -0.00000 0.63140 0.13900
C 	C 	0.64860 0.00000 0.06030 0.19400
C 	C 	0.75760 0.00000 0.79270 0.09700
Cd	Cd	0.64264 0.00000 0.68680 1.19600
N 	N 	0.85673 0.00000 0.98880 -0.21300
N 	N 	0.72710 -0.00000 0.81710 -0.09900
N 	N 	0.75340 0.00000 0.69560 -0.10200
N 	N 	0.58020 -0.00000 0.65850 -0.27200
N 	N 	0.70330 0.00000 0.73030 -0.16000
N 	N 	0.64530 0.00000 0.85420 -0.30400
N 	N 	0.71850 0.00000 0.66000 -0.07600
O 	O 	0.65298 0.00000 0.53170 -0.64300
C 	C 	0.64830 0.00000 0.16260 0.04700
C 	C 	0.70420 0.50000 0.03810 -0.27500
H 	H 	0.72360 0.50000 0.00970 0.12000
C 	C 	0.64730 0.50000 0.11030 0.12300
H 	H 	0.62730 0.50000 0.13600 -0.02700
C 	C 	0.03030 0.50000 0.38510 0.06700
C 	C 	0.67140 0.50000 0.98000 0.23300
H 	H 	0.66910 0.50000 0.91140 -0.06400
C 	C 	0.70890 0.50000 0.14000 0.13200
C 	C 	0.67930 0.50000 0.17410 -0.20700
H 	H 	0.68100 0.50000 0.24250 0.10200
C 	C 	0.99200 0.50000 0.36860 0.14000
C 	C 	0.85140 0.50000 0.93970 0.04800
C 	C 	0.74240 0.50000 0.20730 0.06000
Cd	Cd	0.85736 0.50000 0.31320 1.19400
N 	N 	0.64327 0.50000 0.01120 -0.29100
N 	N 	0.77290 0.50000 0.18290 -0.09800
N 	N 	0.74660 0.50000 0.30440 -0.09700
N 	N 	0.91980 0.50000 0.34150 -0.27600
N 	N 	0.79670 0.50000 0.26970 -0.16200
N 	N 	0.85470 0.50000 0.14580 -0.25400
N 	N 	0.78150 0.50000 0.34000 -0.07700
O 	O 	0.84702 0.50000 0.46830 -0.64500
C 	C 	0.85170 0.50000 0.83740 0.10500
C 	C 	0.20420 0.00000 0.03810 -0.27600
H 	H 	0.22360 -0.00000 0.00970 0.12100
C 	C 	0.14730 -0.00000 0.11030 0.12400
H 	H 	0.12730 0.00000 0.13600 -0.02700
C 	C 	0.53030 0.00000 0.38510 0.07600
C 	C 	0.17140 0.00000 0.98000 0.23500
H 	H 	0.16910 0.00000 0.91140 -0.06300
C 	C 	0.20890 -0.00000 0.14000 0.13300
C 	C 	0.17930 0.00000 0.17410 -0.20700
H 	H 	0.18100 0.00000 0.24250 0.10300
C 	C 	0.49200 0.00000 0.36860 0.13500
C 	C 	0.35140 0.00000 0.93970 0.05800
C 	C 	0.24240 0.00000 0.20730 0.06000
Cd	Cd	0.35736 0.00000 0.31320 1.19500
N 	N 	0.14327 0.00000 0.01120 -0.29100
N 	N 	0.27290 0.00000 0.18290 -0.09700
N 	N 	0.24660 0.00000 0.30440 -0.09600
N 	N 	0.41980 0.00000 0.34150 -0.27200
N 	N 	0.29670 0.00000 0.26970 -0.16100
N 	N 	0.35470 0.00000 0.14580 -0.25300
N 	N 	0.28150 0.00000 0.34000 -0.07700
O 	O 	0.34702 0.00000 0.46830 -0.64300
C 	C 	0.35170 0.00000 0.83740 0.10600
C 	C 	0.02170 0.00000 0.26830 -1.53700
C 	C 	0.98270 0.00000 0.21470 0.96900
O 	O 	0.97471 0.00000 0.13140 -0.82300
O 	O 	0.96220 0.00000 0.27060 -0.53700
C 	C 	0.52170 0.50000 0.26830 -1.55900
C 	C 	0.48270 0.50000 0.21470 0.97300
O 	O 	0.47471 0.50000 0.13140 -0.82800
O 	O 	0.46220 0.50000 0.27060 -0.54200
C 	C 	0.97830 -0.00000 0.73170 -1.49400
C 	C 	0.01730 0.00000 0.78530 0.94400
O 	O 	0.02529 -0.00000 0.86860 -0.80000
O 	O 	0.03780 0.00000 0.72940 -0.53000
C 	C 	0.47830 0.50000 0.73170 -1.54800
C 	C 	0.51730 0.50000 0.78530 0.96500
O 	O 	0.52529 0.50000 0.86860 -0.80800
O 	O 	0.53780 0.50000 0.72940 -0.53600
Cd	Cd	-0.00000 0.00000 -0.00000 1.21700
Cd	Cd	0.50000 0.50000 -0.00000 1.21800
Cd	Cd	0.08573 -0.00000 0.90764 1.21600
Cd	Cd	0.58573 0.50000 0.90764 1.21500
Cd	Cd	0.91427 0.00000 0.09236 1.20300
Cd	Cd	0.41427 0.50000 0.09236 1.20300
