data_crystal

_cell_length_a 18.63900
_cell_length_b 18.63900
_cell_length_c 38.61400
_cell_angle_alpha 90.00000
_cell_angle_beta  90.00000
_cell_angle_gamma 120.00000

_symmetry_space_group_name_	'P 1'
_symmetry_space_group_name_H-M	'P 1'

loop_
_symmetry_equiv_pos_as_xyz
  x,y,z

loop_
_atom_site_label
_atom_site_type_symbol
_atom_site_fract_x
_atom_site_fract_y
_atom_site_fract_z
_atom_site_charge
O 	O 	0.48144 0.37127 0.99670 -0.40600
O 	O 	0.44153 0.41089 0.04401 -0.41100
C 	C 	0.45210 0.35990 0.02694 0.35700
C 	C 	0.26790 0.17910 0.17738 -0.02100
C 	C 	0.40180 0.26500 0.07756 -0.04200
H 	H 	0.39190 0.30340 0.08870 0.06200
C 	C 	0.43120 0.27990 0.04398 -0.07600
N 	N 	0.24340 0.21170 0.11930 -0.28600
H 	H 	0.25260 0.21710 0.09730 0.14500
H 	H 	0.20440 0.21800 0.12790 0.14400
C 	C 	0.29560 0.19110 0.14250 0.06500
O 	O 	0.14811 0.70460 0.33003 -0.40600
O 	O 	0.10820 0.74422 0.37734 -0.41100
C 	C 	0.11877 0.69323 0.36027 0.35700
C 	C 	0.93457 0.51243 0.51071 -0.02100
C 	C 	0.06847 0.59833 0.41089 -0.04300
H 	H 	0.05857 0.63673 0.42203 0.06200
C 	C 	0.09787 0.61323 0.37731 -0.07600
N 	N 	0.91007 0.54503 0.45263 -0.28600
H 	H 	0.91927 0.55043 0.43063 0.14500
H 	H 	0.87107 0.55133 0.46123 0.14400
C 	C 	0.96227 0.52443 0.47583 0.06500
O 	O 	0.81477 0.03794 0.66337 -0.40600
O 	O 	0.77486 0.07756 0.71068 -0.41100
C 	C 	0.78543 0.02657 0.69361 0.35700
C 	C 	0.60123 0.84577 0.84405 -0.02100
C 	C 	0.73513 0.93167 0.74423 -0.04300
H 	H 	0.72523 0.97007 0.75537 0.06200
C 	C 	0.76453 0.94657 0.71065 -0.07500
N 	N 	0.57673 0.87837 0.78597 -0.28600
H 	H 	0.58593 0.88377 0.76397 0.14500
H 	H 	0.53773 0.88467 0.79457 0.14400
C 	C 	0.62893 0.85777 0.80917 0.06400
O 	O 	0.62873 0.11017 0.99670 -0.40700
O 	O 	0.58911 0.03064 0.04401 -0.41200
C 	C 	0.64010 0.09220 0.02694 0.35700
C 	C 	0.82090 0.08880 0.17738 -0.02200
C 	C 	0.73500 0.13680 0.07756 -0.04300
H 	H 	0.69660 0.08850 0.08870 0.06100
C 	C 	0.72010 0.15130 0.04398 -0.07700
N 	N 	0.78830 0.03170 0.11930 -0.28700
H 	H 	0.78290 0.03550 0.09730 0.14400
H 	H 	0.78200 0.98640 0.12790 0.14200
C 	C 	0.80890 0.10450 0.14250 0.06400
O 	O 	0.29540 0.44350 0.33003 -0.40600
O 	O 	0.25578 0.36397 0.37734 -0.41200
C 	C 	0.30677 0.42553 0.36027 0.35600
C 	C 	0.48757 0.42213 0.51071 -0.02200
C 	C 	0.40167 0.47013 0.41089 -0.04400
H 	H 	0.36327 0.42183 0.42203 0.06100
C 	C 	0.38677 0.48463 0.37731 -0.07700
N 	N 	0.45497 0.36503 0.45263 -0.28700
H 	H 	0.44957 0.36883 0.43063 0.14400
H 	H 	0.44867 0.31973 0.46123 0.14300
C 	C 	0.47557 0.43783 0.47583 0.06400
O 	O 	0.96206 0.77684 0.66337 -0.40600
O 	O 	0.92244 0.69731 0.71068 -0.41200
C 	C 	0.97343 0.75887 0.69361 0.35600
C 	C 	0.15423 0.75547 0.84405 -0.02200
C 	C 	0.06833 0.80347 0.74423 -0.04400
H 	H 	0.02993 0.75517 0.75537 0.06100
C 	C 	0.05343 0.81797 0.71065 -0.07600
N 	N 	0.12163 0.69837 0.78597 -0.28700
H 	H 	0.11623 0.70217 0.76397 0.14400
H 	H 	0.11533 0.65307 0.79457 0.14300
C 	C 	0.14223 0.77117 0.80917 0.06400
O 	O 	0.88983 0.51856 0.99670 -0.40700
O 	O 	0.96936 0.55847 0.04401 -0.41100
C 	C 	0.90780 0.54790 0.02694 0.35700
C 	C 	0.91120 0.73210 0.17738 -0.02200
C 	C 	0.86320 0.59820 0.07756 -0.04300
H 	H 	0.91150 0.60810 0.08870 0.06100
C 	C 	0.84870 0.56880 0.04398 -0.07700
N 	N 	0.96830 0.75660 0.11930 -0.28700
H 	H 	0.96450 0.74740 0.09730 0.14400
H 	H 	0.01360 0.79560 0.12790 0.14200
C 	C 	0.89550 0.70440 0.14250 0.06400
O 	O 	0.55650 0.85189 0.33003 -0.40700
O 	O 	0.63603 0.89180 0.37734 -0.41200
C 	C 	0.57447 0.88123 0.36027 0.35600
C 	C 	0.57787 0.06543 0.51071 -0.02200
C 	C 	0.52987 0.93153 0.41089 -0.04400
H 	H 	0.57817 0.94143 0.42203 0.06100
C 	C 	0.51537 0.90213 0.37731 -0.07700
N 	N 	0.63497 0.08993 0.45263 -0.28700
H 	H 	0.63117 0.08073 0.43063 0.14400
H 	H 	0.68027 0.12893 0.46123 0.14300
C 	C 	0.56217 0.03773 0.47583 0.06400
O 	O 	0.22316 0.18523 0.66337 -0.40600
O 	O 	0.30269 0.22514 0.71068 -0.41200
C 	C 	0.24113 0.21457 0.69361 0.35600
C 	C 	0.24453 0.39877 0.84405 -0.02200
C 	C 	0.19653 0.26487 0.74423 -0.04400
H 	H 	0.24483 0.27477 0.75537 0.06100
C 	C 	0.18203 0.23547 0.71065 -0.07700
N 	N 	0.30163 0.42327 0.78597 -0.28700
H 	H 	0.29783 0.41407 0.76397 0.14400
H 	H 	0.34693 0.46227 0.79457 0.14300
C 	C 	0.22883 0.37107 0.80917 0.06400
O 	O 	0.37127 0.48144 0.00330 -0.40700
O 	O 	0.41089 0.44153 0.95599 -0.41200
C 	C 	0.35990 0.45210 0.97306 0.35600
C 	C 	0.17910 0.26790 0.82262 -0.02200
C 	C 	0.26500 0.40180 0.92244 -0.04300
H 	H 	0.30340 0.39190 0.91130 0.06100
C 	C 	0.27990 0.43120 0.95602 -0.07700
N 	N 	0.21170 0.24340 0.88070 -0.28700
H 	H 	0.21710 0.25260 0.90270 0.14400
H 	H 	0.21800 0.20440 0.87210 0.14300
C 	C 	0.19110 0.29560 0.85750 0.06400
O 	O 	0.03794 0.81477 0.33663 -0.40700
O 	O 	0.07756 0.77486 0.28932 -0.41200
C 	C 	0.02657 0.78543 0.30639 0.35600
C 	C 	0.84577 0.60123 0.15595 -0.02200
C 	C 	0.93167 0.73513 0.25577 -0.04400
H 	H 	0.97007 0.72523 0.24463 0.06100
C 	C 	0.94657 0.76453 0.28935 -0.07600
N 	N 	0.87837 0.57673 0.21403 -0.28700
H 	H 	0.88377 0.58593 0.23603 0.14400
H 	H 	0.88467 0.53773 0.20543 0.14300
C 	C 	0.85777 0.62893 0.19083 0.06400
O 	O 	0.70460 0.14811 0.66997 -0.40700
O 	O 	0.74422 0.10820 0.62266 -0.41200
C 	C 	0.69323 0.11877 0.63973 0.35600
C 	C 	0.51243 0.93457 0.48929 -0.02200
C 	C 	0.59833 0.06847 0.58911 -0.04400
H 	H 	0.63673 0.05857 0.57797 0.06100
C 	C 	0.61323 0.09787 0.62269 -0.07700
N 	N 	0.54503 0.91007 0.54737 -0.28700
H 	H 	0.55043 0.91927 0.56937 0.14400
H 	H 	0.55133 0.87107 0.53877 0.14300
C 	C 	0.52443 0.96227 0.52417 0.06400
O 	O 	0.11017 0.62873 0.00330 -0.40700
O 	O 	0.03064 0.58911 0.95599 -0.41200
C 	C 	0.09220 0.64010 0.97306 0.35700
C 	C 	0.08880 0.82090 0.82262 -0.02200
C 	C 	0.13680 0.73500 0.92244 -0.04300
H 	H 	0.08850 0.69660 0.91130 0.06100
C 	C 	0.15130 0.72010 0.95602 -0.07700
N 	N 	0.03170 0.78830 0.88070 -0.28700
H 	H 	0.03550 0.78290 0.90270 0.14400
H 	H 	0.98640 0.78200 0.87210 0.14200
C 	C 	0.10450 0.80890 0.85750 0.06400
O 	O 	0.77684 0.96206 0.33663 -0.40600
O 	O 	0.69731 0.92244 0.28932 -0.41200
C 	C 	0.75887 0.97343 0.30639 0.35600
C 	C 	0.75547 0.15423 0.15595 -0.02200
C 	C 	0.80347 0.06833 0.25577 -0.04400
H 	H 	0.75517 0.02993 0.24463 0.06100
C 	C 	0.81797 0.05343 0.28935 -0.07600
N 	N 	0.69837 0.12163 0.21403 -0.28700
H 	H 	0.70217 0.11623 0.23603 0.14400
H 	H 	0.65307 0.11533 0.20543 0.14300
C 	C 	0.77117 0.14223 0.19083 0.06400
O 	O 	0.44350 0.29540 0.66997 -0.40600
O 	O 	0.36397 0.25578 0.62266 -0.41200
C 	C 	0.42553 0.30677 0.63973 0.35600
C 	C 	0.42213 0.48757 0.48929 -0.02200
C 	C 	0.47013 0.40167 0.58911 -0.04400
H 	H 	0.42183 0.36327 0.57797 0.06100
C 	C 	0.48463 0.38677 0.62269 -0.07700
N 	N 	0.36503 0.45497 0.54737 -0.28700
H 	H 	0.36883 0.44957 0.56937 0.14400
H 	H 	0.31973 0.44867 0.53877 0.14300
C 	C 	0.43783 0.47557 0.52417 0.06400
O 	O 	0.51856 0.88983 0.00330 -0.40700
O 	O 	0.55847 0.96936 0.95599 -0.41100
C 	C 	0.54790 0.90780 0.97306 0.35700
C 	C 	0.73210 0.91120 0.82262 -0.02200
C 	C 	0.59820 0.86320 0.92244 -0.04300
H 	H 	0.60810 0.91150 0.91130 0.06100
C 	C 	0.56880 0.84870 0.95602 -0.07700
N 	N 	0.75660 0.96830 0.88070 -0.28700
H 	H 	0.74740 0.96450 0.90270 0.14400
H 	H 	0.79560 0.01360 0.87210 0.14200
C 	C 	0.70440 0.89550 0.85750 0.06400
O 	O 	0.18523 0.22316 0.33663 -0.40600
O 	O 	0.22514 0.30269 0.28932 -0.41200
C 	C 	0.21457 0.24113 0.30639 0.35600
C 	C 	0.39877 0.24453 0.15595 -0.02200
C 	C 	0.26487 0.19653 0.25577 -0.04400
H 	H 	0.27477 0.24483 0.24463 0.06100
C 	C 	0.23547 0.18203 0.28935 -0.07700
N 	N 	0.42327 0.30163 0.21403 -0.28700
H 	H 	0.41407 0.29783 0.23603 0.14400
H 	H 	0.46227 0.34693 0.20543 0.14300
C 	C 	0.37107 0.22883 0.19083 0.06400
O 	O 	0.85189 0.55650 0.66997 -0.40700
O 	O 	0.89180 0.63603 0.62266 -0.41200
C 	C 	0.88123 0.57447 0.63973 0.35600
C 	C 	0.06543 0.57787 0.48929 -0.02200
C 	C 	0.93153 0.52987 0.58911 -0.04400
H 	H 	0.94143 0.57817 0.57797 0.06100
C 	C 	0.90213 0.51537 0.62269 -0.07700
N 	N 	0.08993 0.63497 0.54737 -0.28700
H 	H 	0.08073 0.63117 0.56937 0.14400
H 	H 	0.12893 0.68027 0.53877 0.14300
C 	C 	0.03773 0.56217 0.52417 0.06400
O 	O 	0.51856 0.62873 0.00330 -0.40700
O 	O 	0.55847 0.58911 0.95599 -0.41200
C 	C 	0.54790 0.64010 0.97306 0.35600
C 	C 	0.73210 0.82090 0.82262 -0.02200
C 	C 	0.59820 0.73500 0.92244 -0.04300
H 	H 	0.60810 0.69660 0.91130 0.06100
C 	C 	0.56880 0.72010 0.95602 -0.07700
N 	N 	0.75660 0.78830 0.88070 -0.28700
H 	H 	0.74740 0.78290 0.90270 0.14400
H 	H 	0.79560 0.78200 0.87210 0.14300
C 	C 	0.70440 0.80890 0.85750 0.06400
O 	O 	0.18523 0.96206 0.33663 -0.40700
O 	O 	0.22514 0.92244 0.28932 -0.41200
C 	C 	0.21457 0.97343 0.30639 0.35600
C 	C 	0.39877 0.15423 0.15595 -0.02200
C 	C 	0.26487 0.06833 0.25577 -0.04400
H 	H 	0.27477 0.02993 0.24463 0.06100
C 	C 	0.23547 0.05343 0.28935 -0.07600
N 	N 	0.42327 0.12163 0.21403 -0.28700
H 	H 	0.41407 0.11623 0.23603 0.14400
H 	H 	0.46227 0.11533 0.20543 0.14300
C 	C 	0.37107 0.14223 0.19083 0.06400
O 	O 	0.85189 0.29540 0.66997 -0.40700
O 	O 	0.89180 0.25578 0.62266 -0.41200
C 	C 	0.88123 0.30677 0.63973 0.35600
C 	C 	0.06543 0.48757 0.48929 -0.02200
C 	C 	0.93153 0.40167 0.58911 -0.04400
H 	H 	0.94143 0.36327 0.57797 0.06100
C 	C 	0.90213 0.38677 0.62269 -0.07700
N 	N 	0.08993 0.45497 0.54737 -0.28700
H 	H 	0.08073 0.44957 0.56937 0.14400
H 	H 	0.12893 0.44867 0.53877 0.14300
C 	C 	0.03773 0.47557 0.52417 0.06400
O 	O 	0.37127 0.88983 0.00330 -0.40700
O 	O 	0.41089 0.96936 0.95599 -0.41200
C 	C 	0.35990 0.90780 0.97306 0.35700
C 	C 	0.17910 0.91120 0.82262 -0.02200
C 	C 	0.26500 0.86320 0.92244 -0.04300
H 	H 	0.30340 0.91150 0.91130 0.06100
C 	C 	0.27990 0.84870 0.95602 -0.07700
N 	N 	0.21170 0.96830 0.88070 -0.28700
H 	H 	0.21710 0.96450 0.90270 0.14400
H 	H 	0.21800 0.01360 0.87210 0.14200
C 	C 	0.19110 0.89550 0.85750 0.06400
O 	O 	0.03794 0.22316 0.33663 -0.40600
O 	O 	0.07756 0.30269 0.28932 -0.41200
C 	C 	0.02657 0.24113 0.30639 0.35600
C 	C 	0.84577 0.24453 0.15595 -0.02200
C 	C 	0.93167 0.19653 0.25577 -0.04400
H 	H 	0.97007 0.24483 0.24463 0.06100
C 	C 	0.94657 0.18203 0.28935 -0.07600
N 	N 	0.87837 0.30163 0.21403 -0.28700
H 	H 	0.88377 0.29783 0.23603 0.14400
H 	H 	0.88467 0.34693 0.20543 0.14300
C 	C 	0.85777 0.22883 0.19083 0.06400
O 	O 	0.70460 0.55650 0.66997 -0.40600
O 	O 	0.74422 0.63603 0.62266 -0.41200
C 	C 	0.69323 0.57447 0.63973 0.35600
C 	C 	0.51243 0.57787 0.48929 -0.02200
C 	C 	0.59833 0.52987 0.58911 -0.04400
H 	H 	0.63673 0.57817 0.57797 0.06100
C 	C 	0.61323 0.51537 0.62269 -0.07700
N 	N 	0.54503 0.63497 0.54737 -0.28700
H 	H 	0.55043 0.63117 0.56937 0.14400
H 	H 	0.55133 0.68027 0.53877 0.14300
C 	C 	0.52443 0.56217 0.52417 0.06400
O 	O 	0.11017 0.48144 0.00330 -0.40700
O 	O 	0.03064 0.44153 0.95599 -0.41100
C 	C 	0.09220 0.45210 0.97306 0.35700
C 	C 	0.08880 0.26790 0.82262 -0.02200
C 	C 	0.13680 0.40180 0.92244 -0.04300
H 	H 	0.08850 0.39190 0.91130 0.06100
C 	C 	0.15130 0.43120 0.95602 -0.07700
N 	N 	0.03170 0.24340 0.88070 -0.28700
H 	H 	0.03550 0.25260 0.90270 0.14400
H 	H 	0.98640 0.20440 0.87210 0.14200
C 	C 	0.10450 0.29560 0.85750 0.06400
O 	O 	0.77684 0.81477 0.33663 -0.40600
O 	O 	0.69731 0.77486 0.28932 -0.41200
C 	C 	0.75887 0.78543 0.30639 0.35600
C 	C 	0.75547 0.60123 0.15595 -0.02200
C 	C 	0.80347 0.73513 0.25577 -0.04400
H 	H 	0.75517 0.72523 0.24463 0.06100
C 	C 	0.81797 0.76453 0.28935 -0.07700
N 	N 	0.69837 0.57673 0.21403 -0.28700
H 	H 	0.70217 0.58593 0.23603 0.14400
H 	H 	0.65307 0.53773 0.20543 0.14300
C 	C 	0.77117 0.62893 0.19083 0.06400
O 	O 	0.44350 0.14811 0.66997 -0.40700
O 	O 	0.36397 0.10820 0.62266 -0.41200
C 	C 	0.42553 0.11877 0.63973 0.35600
C 	C 	0.42213 0.93457 0.48929 -0.02200
C 	C 	0.47013 0.06847 0.58911 -0.04400
H 	H 	0.42183 0.05857 0.57797 0.06100
C 	C 	0.48463 0.09787 0.62269 -0.07700
N 	N 	0.36503 0.91007 0.54737 -0.28700
H 	H 	0.36883 0.91927 0.56937 0.14400
H 	H 	0.31973 0.87107 0.53877 0.14300
C 	C 	0.43783 0.96227 0.52417 0.06400
O 	O 	0.62873 0.51856 0.99670 -0.40700
O 	O 	0.58911 0.55847 0.04401 -0.41200
C 	C 	0.64010 0.54790 0.02694 0.35600
C 	C 	0.82090 0.73210 0.17738 -0.02200
C 	C 	0.73500 0.59820 0.07756 -0.04300
H 	H 	0.69660 0.60810 0.08870 0.06100
C 	C 	0.72010 0.56880 0.04398 -0.07700
N 	N 	0.78830 0.75660 0.11930 -0.28700
H 	H 	0.78290 0.74740 0.09730 0.14400
H 	H 	0.78200 0.79560 0.12790 0.14300
C 	C 	0.80890 0.70440 0.14250 0.06400
O 	O 	0.29540 0.85189 0.33003 -0.40700
O 	O 	0.25578 0.89180 0.37734 -0.41200
C 	C 	0.30677 0.88123 0.36027 0.35600
C 	C 	0.48757 0.06543 0.51071 -0.02200
C 	C 	0.40167 0.93153 0.41089 -0.04400
H 	H 	0.36327 0.94143 0.42203 0.06100
C 	C 	0.38677 0.90213 0.37731 -0.07700
N 	N 	0.45497 0.08993 0.45263 -0.28700
H 	H 	0.44957 0.08073 0.43063 0.14400
H 	H 	0.44867 0.12893 0.46123 0.14300
C 	C 	0.47557 0.03773 0.47583 0.06400
O 	O 	0.96206 0.18523 0.66337 -0.40700
O 	O 	0.92244 0.22514 0.71068 -0.41200
C 	C 	0.97343 0.21457 0.69361 0.35600
C 	C 	0.15423 0.39877 0.84405 -0.02200
C 	C 	0.06833 0.26487 0.74423 -0.04400
H 	H 	0.02993 0.27477 0.75537 0.06100
C 	C 	0.05343 0.23547 0.71065 -0.07600
N 	N 	0.12163 0.42327 0.78597 -0.28700
H 	H 	0.11623 0.41407 0.76397 0.14400
H 	H 	0.11533 0.46227 0.79457 0.14300
C 	C 	0.14223 0.37107 0.80917 0.06400
O 	O 	0.88983 0.37127 0.99670 -0.40700
O 	O 	0.96936 0.41089 0.04401 -0.41200
C 	C 	0.90780 0.35990 0.02694 0.35700
C 	C 	0.91120 0.17910 0.17738 -0.02200
C 	C 	0.86320 0.26500 0.07756 -0.04300
H 	H 	0.91150 0.30340 0.08870 0.06100
C 	C 	0.84870 0.27990 0.04398 -0.07700
N 	N 	0.96830 0.21170 0.11930 -0.28700
H 	H 	0.96450 0.21710 0.09730 0.14400
H 	H 	0.01360 0.21800 0.12790 0.14200
C 	C 	0.89550 0.19110 0.14250 0.06400
O 	O 	0.55650 0.70460 0.33003 -0.40600
O 	O 	0.63603 0.74422 0.37734 -0.41200
C 	C 	0.57447 0.69323 0.36027 0.35600
C 	C 	0.57787 0.51243 0.51071 -0.02200
C 	C 	0.52987 0.59833 0.41089 -0.04400
H 	H 	0.57817 0.63673 0.42203 0.06100
C 	C 	0.51537 0.61323 0.37731 -0.07700
N 	N 	0.63497 0.54503 0.45263 -0.28700
H 	H 	0.63117 0.55043 0.43063 0.14400
H 	H 	0.68027 0.55133 0.46123 0.14300
C 	C 	0.56217 0.52443 0.47583 0.06400
O 	O 	0.22316 0.03794 0.66337 -0.40600
O 	O 	0.30269 0.07756 0.71068 -0.41200
C 	C 	0.24113 0.02657 0.69361 0.35600
C 	C 	0.24453 0.84577 0.84405 -0.02200
C 	C 	0.19653 0.93167 0.74423 -0.04400
H 	H 	0.24483 0.97007 0.75537 0.06100
C 	C 	0.18203 0.94657 0.71065 -0.07600
N 	N 	0.30163 0.87837 0.78597 -0.28700
H 	H 	0.29783 0.88377 0.76397 0.14400
H 	H 	0.34693 0.88467 0.79457 0.14300
C 	C 	0.22883 0.85777 0.80917 0.06400
O 	O 	0.48144 0.11017 0.99670 -0.40700
O 	O 	0.44153 0.03064 0.04401 -0.41100
C 	C 	0.45210 0.09220 0.02694 0.35700
C 	C 	0.26790 0.08880 0.17738 -0.02200
C 	C 	0.40180 0.13680 0.07756 -0.04300
H 	H 	0.39190 0.08850 0.08870 0.06100
C 	C 	0.43120 0.15130 0.04398 -0.07700
N 	N 	0.24340 0.03170 0.11930 -0.28700
H 	H 	0.25260 0.03550 0.09730 0.14400
H 	H 	0.20440 0.98640 0.12790 0.14200
C 	C 	0.29560 0.10450 0.14250 0.06400
O 	O 	0.14811 0.44350 0.33003 -0.40700
O 	O 	0.10820 0.36397 0.37734 -0.41200
C 	C 	0.11877 0.42553 0.36027 0.35600
C 	C 	0.93457 0.42213 0.51071 -0.02200
C 	C 	0.06847 0.47013 0.41089 -0.04400
H 	H 	0.05857 0.42183 0.42203 0.06100
C 	C 	0.09787 0.48463 0.37731 -0.07700
N 	N 	0.91007 0.36503 0.45263 -0.28700
H 	H 	0.91927 0.36883 0.43063 0.14400
H 	H 	0.87107 0.31973 0.46123 0.14300
C 	C 	0.96227 0.43783 0.47583 0.06400
O 	O 	0.81477 0.77684 0.66337 -0.40600
O 	O 	0.77486 0.69731 0.71068 -0.41200
C 	C 	0.78543 0.75887 0.69361 0.35600
C 	C 	0.60123 0.75547 0.84405 -0.02200
C 	C 	0.73513 0.80347 0.74423 -0.04400
H 	H 	0.72523 0.75517 0.75537 0.06100
C 	C 	0.76453 0.81797 0.71065 -0.07700
N 	N 	0.57673 0.69837 0.78597 -0.28700
H 	H 	0.58593 0.70217 0.76397 0.14400
H 	H 	0.53773 0.65307 0.79457 0.14300
C 	C 	0.62893 0.77117 0.80917 0.06400
Cu	Cu	0.52351 0.47649 0.97186 0.90400
Cu	Cu	0.19018 0.80982 0.30519 0.90400
Cu	Cu	0.85684 0.14316 0.63853 0.90400
Cu	Cu	0.52351 0.04702 0.97186 0.90400
Cu	Cu	0.19018 0.38035 0.30519 0.90400
Cu	Cu	0.85684 0.71369 0.63853 0.90400
Cu	Cu	0.95298 0.47649 0.97186 0.90400
Cu	Cu	0.61965 0.80982 0.30519 0.90400
Cu	Cu	0.28631 0.14316 0.63853 0.90400
Cu	Cu	0.47649 0.52351 0.02814 0.90400
Cu	Cu	0.14316 0.85684 0.36147 0.90400
Cu	Cu	0.80982 0.19018 0.69481 0.90400
Cu	Cu	0.04702 0.52351 0.02814 0.90400
Cu	Cu	0.71369 0.85684 0.36147 0.90400
Cu	Cu	0.38035 0.19018 0.69481 0.90400
Cu	Cu	0.47649 0.95298 0.02814 0.90400
Cu	Cu	0.14316 0.28631 0.36147 0.90400
Cu	Cu	0.80982 0.61965 0.69481 0.90400
C 	C 	0.38660 0.19330 0.09515 0.03200
C 	C 	0.44580 0.22290 0.02717 0.01700
H 	H 	0.46550 0.23275 0.00450 0.05300
C 	C 	0.35900 0.17950 0.13207 -0.04800
C 	C 	0.05327 0.52663 0.42848 0.03200
C 	C 	0.11247 0.55623 0.36050 0.01700
H 	H 	0.13217 0.56608 0.33783 0.05300
C 	C 	0.02567 0.51283 0.46540 -0.04800
C 	C 	0.71993 0.85997 0.76182 0.03300
C 	C 	0.77913 0.88957 0.69384 0.01700
H 	H 	0.79883 0.89942 0.67117 0.05300
C 	C 	0.69233 0.84617 0.79874 -0.04800
C 	C 	0.80670 0.19330 0.09515 0.03200
C 	C 	0.77710 0.22290 0.02717 0.01700
H 	H 	0.76725 0.23275 0.00450 0.05300
C 	C 	0.82050 0.17950 0.13207 -0.04800
C 	C 	0.47337 0.52663 0.42848 0.03200
C 	C 	0.44377 0.55623 0.36050 0.01700
H 	H 	0.43392 0.56608 0.33783 0.05300
C 	C 	0.48717 0.51283 0.46540 -0.04800
C 	C 	0.14003 0.85997 0.76182 0.03300
C 	C 	0.11043 0.88957 0.69384 0.01600
H 	H 	0.10058 0.89942 0.67117 0.05300
C 	C 	0.15383 0.84617 0.79874 -0.04800
C 	C 	0.80670 0.61340 0.09515 0.03200
C 	C 	0.77710 0.55420 0.02717 0.01700
H 	H 	0.76725 0.53450 0.00450 0.05300
C 	C 	0.82050 0.64100 0.13207 -0.04800
C 	C 	0.47337 0.94673 0.42848 0.03200
C 	C 	0.44377 0.88753 0.36050 0.01700
H 	H 	0.43392 0.86783 0.33783 0.05300
C 	C 	0.48717 0.97433 0.46540 -0.04800
C 	C 	0.14003 0.28007 0.76182 0.03300
C 	C 	0.11043 0.22087 0.69384 0.01700
H 	H 	0.10058 0.20117 0.67117 0.05300
C 	C 	0.15383 0.30767 0.79874 -0.04800
C 	C 	0.19330 0.38660 0.90485 0.03200
C 	C 	0.22290 0.44580 0.97283 0.01700
H 	H 	0.23275 0.46550 0.99550 0.05300
C 	C 	0.17950 0.35900 0.86793 -0.04800
C 	C 	0.85997 0.71993 0.23818 0.03300
C 	C 	0.88957 0.77913 0.30616 0.01700
H 	H 	0.89942 0.79883 0.32883 0.05300
C 	C 	0.84617 0.69233 0.20126 -0.04800
C 	C 	0.52663 0.05327 0.57152 0.03200
C 	C 	0.55623 0.11247 0.63950 0.01700
H 	H 	0.56608 0.13217 0.66217 0.05300
C 	C 	0.51283 0.02567 0.53460 -0.04800
C 	C 	0.19330 0.80670 0.90485 0.03200
C 	C 	0.22290 0.77710 0.97283 0.01700
H 	H 	0.23275 0.76725 0.99550 0.05300
C 	C 	0.17950 0.82050 0.86793 -0.04800
C 	C 	0.85997 0.14003 0.23818 0.03300
C 	C 	0.88957 0.11043 0.30616 0.01600
H 	H 	0.89942 0.10058 0.32883 0.05300
C 	C 	0.84617 0.15383 0.20126 -0.04800
C 	C 	0.52663 0.47337 0.57152 0.03200
C 	C 	0.55623 0.44377 0.63950 0.01700
H 	H 	0.56608 0.43392 0.66217 0.05300
C 	C 	0.51283 0.48717 0.53460 -0.04800
C 	C 	0.61340 0.80670 0.90485 0.03200
C 	C 	0.55420 0.77710 0.97283 0.01700
H 	H 	0.53450 0.76725 0.99550 0.05300
C 	C 	0.64100 0.82050 0.86793 -0.04800
C 	C 	0.28007 0.14003 0.23818 0.03300
C 	C 	0.22087 0.11043 0.30616 0.01700
H 	H 	0.20117 0.10058 0.32883 0.05300
C 	C 	0.30767 0.15383 0.20126 -0.04800
C 	C 	0.94673 0.47337 0.57152 0.03200
C 	C 	0.88753 0.44377 0.63950 0.01700
H 	H 	0.86783 0.43392 0.66217 0.05300
C 	C 	0.97433 0.48717 0.53460 -0.04800
