data_crystal

_cell_length_a 15.31700
_cell_length_b 25.03500
_cell_length_c 27.59100
_cell_angle_alpha 90.00000
_cell_angle_beta  102.38000
_cell_angle_gamma 90.00000

_symmetry_space_group_name_	'P 1'
_symmetry_space_group_name_H-M	'P 1'

loop_
_symmetry_equiv_pos_as_xyz
  x,y,z

loop_
_atom_site_label
_atom_site_type_symbol
_atom_site_fract_x
_atom_site_fract_y
_atom_site_fract_z
_atom_site_charge
Cd	Cd	0.69595 0.03025 0.74637 1.08200
Cd	Cd	0.47795 0.28411 0.76040 1.08400
N 	N 	0.74940 0.10180 0.79590 -0.31700
N 	N 	0.78030 0.18450 0.82750 -0.12000
N 	N 	0.84470 0.14870 0.84960 -0.11200
N 	N 	0.91740 0.39550 0.85230 -0.12500
N 	N 	0.83340 0.37510 0.83810 -0.11900
N 	N 	0.84550 0.45620 0.80480 -0.31900
N 	N 	0.21110 0.25120 0.79170 -0.10800
N 	N 	0.25720 0.24400 0.83930 -0.11500
N 	N 	0.34710 0.27470 0.78970 -0.30600
N 	N 	0.61030 0.28580 0.73130 -0.30300
N 	N 	0.75120 0.27660 0.72950 -0.10300
N 	N 	0.70730 0.26440 0.68350 -0.11100
N 	N 	0.08080 0.39700 0.66530 -0.11900
N 	N 	0.15550 0.36700 0.68290 -0.12100
N 	N 	0.16920 0.45020 0.71480 -0.32100
N 	N 	0.08890 0.14900 0.66040 -0.11800
N 	N 	0.16460 0.18040 0.67380 -0.11600
N 	N 	0.19230 0.09510 0.69890 -0.32000
C 	C 	0.72640 0.15420 0.79590 0.06900
H 	H 	0.67550 0.16760 0.77480 -0.07700
C 	C 	0.82550 0.10040 0.83050 0.05100
H 	H 	0.86000 0.07000 0.83970 -0.06800
C 	C 	0.91910 0.16620 0.88820 0.02600
H 	H 	0.96030 0.13670 0.89770 -0.00600
H 	H 	0.89720 0.17700 0.91720 -0.00200
C 	C 	0.96810 0.21270 0.87050 -0.18400
C 	C 	0.02470 0.20260 0.83750 0.20900
C 	C 	0.06250 0.24720 0.81660 -0.18000
C 	C 	0.04950 0.29890 0.83200 0.26800
C 	C 	0.99870 0.30820 0.86740 -0.20300
C 	C 	0.95450 0.26450 0.88650 0.24500
C 	C 	0.89260 0.27480 0.92180 -0.68300
H 	H 	0.84360 0.25010 0.91500 0.21500
H 	H 	0.87020 0.31070 0.91740 0.21700
H 	H 	0.92510 0.27020 0.95540 0.20000
C 	C 	0.04570 0.14460 0.82570 -0.58400
H 	H 	0.05080 0.12310 0.85500 0.16900
H 	H 	0.10090 0.14340 0.81460 0.16700
H 	H 	0.99840 0.13090 0.80000 0.16400
C 	C 	0.11580 0.23730 0.77720 0.00400
H 	H 	0.11080 0.19980 0.76820 0.02000
H 	H 	0.08920 0.25780 0.74790 0.03300
C 	C 	0.08860 0.34470 0.80810 -0.71900
H 	H 	0.06490 0.37780 0.81720 0.21500
H 	H 	0.07330 0.34070 0.77260 0.23800
H 	H 	0.15240 0.34470 0.81910 0.22100
C 	C 	0.98830 0.36430 0.88540 0.03400
H 	H 	0.97470 0.36250 0.91820 -0.00500
H 	H 	0.04480 0.38300 0.88860 -0.01400
C 	C 	0.92140 0.44200 0.83270 0.08500
H 	H 	0.97270 0.46290 0.83790 -0.08800
C 	C 	0.79400 0.41380 0.80940 0.06600
H 	H 	0.73420 0.41200 0.79330 -0.07600
C 	C 	0.26530 0.26780 0.76360 0.06300
H 	H 	0.24790 0.27390 0.72970 -0.03600
C 	C 	0.33970 0.25990 0.83630 0.03900
H 	H 	0.38750 0.26070 0.86350 -0.05800
C 	C 	0.62050 0.27140 0.68500 0.03800
H 	H 	0.57330 0.26700 0.65790 -0.05900
C 	C 	0.69250 0.28900 0.75770 0.06300
H 	H 	0.70780 0.29860 0.79100 -0.04000
C 	C 	0.84710 0.27280 0.74500 -0.00300
H 	H 	0.86160 0.24050 0.76450 0.03800
H 	H 	0.86840 0.30290 0.76640 0.03100
C 	C 	0.89720 0.27180 0.70300 -0.18100
C 	C 	0.92190 0.32080 0.68470 0.23400
C 	C 	0.97590 0.32150 0.64910 -0.18900
C 	C 	0.00590 0.27210 0.63230 0.24300
C 	C 	0.97810 0.22390 0.64900 -0.19600
C 	C 	0.92320 0.22370 0.68500 0.24100
C 	C 	0.88930 0.17090 0.70060 -0.65700
H 	H 	0.93250 0.15630 0.72780 0.19700
H 	H 	0.88010 0.14650 0.67320 0.18600
H 	H 	0.83380 0.17650 0.71070 0.20200
C 	C 	0.89000 0.37330 0.70200 -0.65500
H 	H 	0.93790 0.39880 0.70710 0.18500
H 	H 	0.87110 0.36780 0.73260 0.20700
H 	H 	0.84080 0.38650 0.67740 0.18000
C 	C 	0.06830 0.27320 0.59580 -0.67000
H 	H 	0.08030 0.23730 0.58690 0.21100
H 	H 	0.12330 0.29040 0.61100 0.21400
H 	H 	0.04030 0.29260 0.56650 0.19900
C 	C 	0.00530 0.37430 0.63020 0.02600
H 	H 	0.02190 0.36860 0.59860 -0.00100
H 	H 	0.95580 0.39940 0.62500 -0.00900
C 	C 	0.09170 0.44510 0.68370 0.07100
H 	H 	0.04980 0.47230 0.67590 -0.08600
C 	C 	0.20700 0.40120 0.71150 0.06100
H 	H 	0.26470 0.39280 0.72820 -0.08600
C 	C 	0.00680 0.17130 0.63000 0.04000
H 	H 	0.95900 0.14550 0.62850 -0.01500
H 	H 	0.01550 0.17640 0.59660 -0.01000
C 	C 	0.22390 0.14550 0.69730 0.06600
H 	H 	0.28250 0.15480 0.71160 -0.08500
C 	C 	0.10720 0.10020 0.67540 0.07000
H 	H 	0.06600 0.07240 0.67030 -0.07500
Cd	Cd	0.80405 0.53025 0.75363 1.08300
Cd	Cd	0.02205 0.78411 0.73960 1.08500
N 	N 	0.75060 0.60180 0.70410 -0.31600
N 	N 	0.71970 0.68450 0.67250 -0.11900
N 	N 	0.65530 0.64870 0.65040 -0.11100
N 	N 	0.58260 0.89550 0.64770 -0.12300
N 	N 	0.66660 0.87510 0.66190 -0.11900
N 	N 	0.65450 0.95620 0.69520 -0.31900
N 	N 	0.28890 0.75120 0.70830 -0.10800
N 	N 	0.24280 0.74400 0.66070 -0.11500
N 	N 	0.15290 0.77470 0.71030 -0.30600
N 	N 	0.88970 0.78580 0.76870 -0.30300
N 	N 	0.74880 0.77660 0.77050 -0.10300
N 	N 	0.79270 0.76440 0.81650 -0.11100
N 	N 	0.41920 0.89700 0.83470 -0.11900
N 	N 	0.34450 0.86700 0.81710 -0.12100
N 	N 	0.33080 0.95020 0.78520 -0.32000
N 	N 	0.41110 0.64900 0.83960 -0.11800
N 	N 	0.33540 0.68040 0.82620 -0.11700
N 	N 	0.30770 0.59510 0.80110 -0.32000
C 	C 	0.77360 0.65420 0.70410 0.06900
H 	H 	0.82450 0.66760 0.72520 -0.07700
C 	C 	0.67450 0.60040 0.66950 0.05100
H 	H 	0.64000 0.57000 0.66030 -0.06800
C 	C 	0.58090 0.66620 0.61180 0.02600
H 	H 	0.53970 0.63670 0.60230 -0.00600
H 	H 	0.60280 0.67700 0.58280 -0.00200
C 	C 	0.53190 0.71270 0.62950 -0.18400
C 	C 	0.47530 0.70260 0.66250 0.20900
C 	C 	0.43750 0.74720 0.68340 -0.18000
C 	C 	0.45050 0.79890 0.66800 0.26900
C 	C 	0.50130 0.80820 0.63260 -0.20400
C 	C 	0.54550 0.76450 0.61350 0.24600
C 	C 	0.60740 0.77480 0.57820 -0.68400
H 	H 	0.65640 0.75010 0.58500 0.21500
H 	H 	0.62980 0.81070 0.58260 0.21700
H 	H 	0.57490 0.77020 0.54460 0.20000
C 	C 	0.45430 0.64460 0.67430 -0.58400
H 	H 	0.44920 0.62310 0.64500 0.16900
H 	H 	0.39910 0.64340 0.68540 0.16700
H 	H 	0.50160 0.63090 0.70000 0.16400
C 	C 	0.38420 0.73730 0.72280 0.00400
H 	H 	0.38920 0.69980 0.73180 0.02000
H 	H 	0.41080 0.75780 0.75210 0.03300
C 	C 	0.41140 0.84470 0.69190 -0.72100
H 	H 	0.43510 0.87780 0.68280 0.21500
H 	H 	0.42670 0.84070 0.72740 0.23900
H 	H 	0.34760 0.84470 0.68090 0.22100
C 	C 	0.51170 0.86430 0.61460 0.03300
H 	H 	0.52530 0.86250 0.58180 -0.00400
H 	H 	0.45520 0.88300 0.61140 -0.01300
C 	C 	0.57860 0.94200 0.66730 0.08500
H 	H 	0.52730 0.96290 0.66210 -0.08800
C 	C 	0.70600 0.91380 0.69060 0.06600
H 	H 	0.76580 0.91200 0.70670 -0.07600
C 	C 	0.23470 0.76780 0.73640 0.06300
H 	H 	0.25210 0.77390 0.77030 -0.03600
C 	C 	0.16030 0.75990 0.66370 0.03900
H 	H 	0.11250 0.76070 0.63650 -0.05800
C 	C 	0.87950 0.77140 0.81500 0.03900
H 	H 	0.92670 0.76700 0.84210 -0.05800
C 	C 	0.80750 0.78900 0.74230 0.06300
H 	H 	0.79220 0.79860 0.70900 -0.04000
C 	C 	0.65290 0.77280 0.75500 -0.00300
H 	H 	0.63840 0.74050 0.73550 0.03800
H 	H 	0.63160 0.80290 0.73360 0.03100
C 	C 	0.60280 0.77180 0.79700 -0.18100
C 	C 	0.57810 0.82080 0.81530 0.23400
C 	C 	0.52410 0.82150 0.85090 -0.18900
C 	C 	0.49410 0.77210 0.86770 0.24200
C 	C 	0.52190 0.72390 0.85100 -0.19600
C 	C 	0.57680 0.72370 0.81500 0.24100
C 	C 	0.61070 0.67090 0.79940 -0.65700
H 	H 	0.56750 0.65630 0.77220 0.19700
H 	H 	0.61990 0.64650 0.82680 0.18600
H 	H 	0.66620 0.67650 0.78930 0.20200
C 	C 	0.61000 0.87330 0.79800 -0.65500
H 	H 	0.56210 0.89880 0.79290 0.18500
H 	H 	0.62890 0.86780 0.76740 0.20700
H 	H 	0.65920 0.88650 0.82260 0.18100
C 	C 	0.43170 0.77320 0.90420 -0.67000
H 	H 	0.41970 0.73730 0.91310 0.21100
H 	H 	0.37670 0.79040 0.88900 0.21400
H 	H 	0.45970 0.79260 0.93350 0.19900
C 	C 	0.49470 0.87430 0.86980 0.02600
H 	H 	0.47810 0.86860 0.90140 -0.00100
H 	H 	0.54420 0.89940 0.87500 -0.00900
C 	C 	0.40830 0.94510 0.81630 0.07100
H 	H 	0.45020 0.97230 0.82410 -0.08500
C 	C 	0.29300 0.90120 0.78850 0.06100
H 	H 	0.23530 0.89280 0.77180 -0.08600
C 	C 	0.49320 0.67130 0.87000 0.03900
H 	H 	0.54100 0.64550 0.87150 -0.01500
H 	H 	0.48450 0.67640 0.90340 -0.01000
C 	C 	0.27610 0.64550 0.80270 0.06600
H 	H 	0.21750 0.65480 0.78840 -0.08500
C 	C 	0.39280 0.60020 0.82460 0.07000
H 	H 	0.43400 0.57240 0.82970 -0.07500
Cd	Cd	0.23319 0.52297 0.76039 1.08000
Cd	Cd	0.26681 0.02297 0.73961 1.08000
Cd	Cd	0.76681 0.47703 0.23961 1.08000
Cd	Cd	0.73319 0.97703 0.26039 1.08000
Cd	Cd	0.30405 0.96975 0.25363 1.08300
Cd	Cd	0.52205 0.71589 0.23960 1.08500
N 	N 	0.25060 0.89820 0.20410 -0.31600
N 	N 	0.21970 0.81550 0.17250 -0.11900
N 	N 	0.15530 0.85130 0.15040 -0.11100
N 	N 	0.08260 0.60450 0.14770 -0.12400
N 	N 	0.16660 0.62490 0.16190 -0.11900
N 	N 	0.15450 0.54380 0.19520 -0.31900
N 	N 	0.78890 0.74880 0.20830 -0.10800
N 	N 	0.74280 0.75600 0.16070 -0.11500
N 	N 	0.65290 0.72530 0.21030 -0.30600
N 	N 	0.38970 0.71420 0.26870 -0.30300
N 	N 	0.24880 0.72340 0.27050 -0.10300
N 	N 	0.29270 0.73560 0.31650 -0.11100
N 	N 	0.91920 0.60300 0.33470 -0.11900
N 	N 	0.84450 0.63300 0.31710 -0.12100
N 	N 	0.83080 0.54980 0.28520 -0.32100
N 	N 	0.91110 0.85100 0.33960 -0.11800
N 	N 	0.83540 0.81960 0.32620 -0.11600
N 	N 	0.80770 0.90490 0.30110 -0.32000
C 	C 	0.27360 0.84580 0.20410 0.06900
H 	H 	0.32450 0.83240 0.22520 -0.07700
C 	C 	0.17450 0.89960 0.16950 0.05100
H 	H 	0.14000 0.93000 0.16030 -0.06800
C 	C 	0.08090 0.83380 0.11180 0.02600
H 	H 	0.03970 0.86330 0.10230 -0.00600
H 	H 	0.10280 0.82300 0.08280 -0.00200
C 	C 	0.03190 0.78730 0.12950 -0.18400
C 	C 	0.97530 0.79740 0.16250 0.20900
C 	C 	0.93750 0.75280 0.18340 -0.18000
C 	C 	0.95050 0.70110 0.16800 0.26800
C 	C 	0.00130 0.69180 0.13260 -0.20300
C 	C 	0.04550 0.73550 0.11350 0.24500
C 	C 	0.10740 0.72520 0.07820 -0.68300
H 	H 	0.15640 0.74990 0.08500 0.21500
H 	H 	0.12980 0.68930 0.08260 0.21700
H 	H 	0.07490 0.72980 0.04460 0.20000
C 	C 	0.95430 0.85540 0.17430 -0.58400
H 	H 	0.94920 0.87690 0.14500 0.16900
H 	H 	0.89910 0.85660 0.18540 0.16700
H 	H 	0.00160 0.86910 0.20000 0.16400
C 	C 	0.88420 0.76270 0.22280 0.00400
H 	H 	0.88920 0.80020 0.23180 0.02000
H 	H 	0.91080 0.74220 0.25210 0.03300
C 	C 	0.91140 0.65530 0.19190 -0.71900
H 	H 	0.93510 0.62220 0.18280 0.21500
H 	H 	0.92670 0.65930 0.22740 0.23800
H 	H 	0.84760 0.65530 0.18090 0.22100
C 	C 	0.01170 0.63570 0.11460 0.03400
H 	H 	0.02530 0.63750 0.08180 -0.00500
H 	H 	0.95520 0.61700 0.11140 -0.01400
C 	C 	0.07860 0.55800 0.16730 0.08500
H 	H 	0.02730 0.53710 0.16210 -0.08800
C 	C 	0.20600 0.58620 0.19060 0.06600
H 	H 	0.26580 0.58800 0.20670 -0.07600
C 	C 	0.73470 0.73220 0.23640 0.06300
H 	H 	0.75210 0.72610 0.27030 -0.03600
C 	C 	0.66030 0.74010 0.16370 0.03900
H 	H 	0.61250 0.73930 0.13650 -0.05800
C 	C 	0.37950 0.72860 0.31500 0.03800
H 	H 	0.42670 0.73300 0.34210 -0.05900
C 	C 	0.30750 0.71100 0.24230 0.06300
H 	H 	0.29220 0.70140 0.20900 -0.04000
C 	C 	0.15290 0.72720 0.25500 -0.00300
H 	H 	0.13840 0.75950 0.23550 0.03800
H 	H 	0.13160 0.69710 0.23360 0.03100
C 	C 	0.10280 0.72820 0.29700 -0.18100
C 	C 	0.07810 0.67920 0.31530 0.23400
C 	C 	0.02410 0.67850 0.35090 -0.18900
C 	C 	0.99410 0.72790 0.36770 0.24300
C 	C 	0.02190 0.77610 0.35100 -0.19600
C 	C 	0.07680 0.77630 0.31500 0.24100
C 	C 	0.11070 0.82910 0.29940 -0.65700
H 	H 	0.06750 0.84370 0.27220 0.19700
H 	H 	0.11990 0.85350 0.32680 0.18600
H 	H 	0.16620 0.82350 0.28930 0.20200
C 	C 	0.11000 0.62670 0.29800 -0.65500
H 	H 	0.06210 0.60120 0.29290 0.18500
H 	H 	0.12890 0.63220 0.26740 0.20700
H 	H 	0.15920 0.61350 0.32260 0.18000
C 	C 	0.93170 0.72680 0.40420 -0.67000
H 	H 	0.91970 0.76270 0.41310 0.21100
H 	H 	0.87670 0.70960 0.38900 0.21400
H 	H 	0.95970 0.70740 0.43350 0.19900
C 	C 	0.99470 0.62570 0.36980 0.02600
H 	H 	0.97810 0.63140 0.40140 -0.00100
H 	H 	0.04420 0.60060 0.37500 -0.00900
C 	C 	0.90830 0.55490 0.31630 0.07100
H 	H 	0.95020 0.52770 0.32410 -0.08600
C 	C 	0.79300 0.59880 0.28850 0.06100
H 	H 	0.73530 0.60720 0.27180 -0.08600
C 	C 	0.99320 0.82870 0.37000 0.04000
H 	H 	0.04100 0.85450 0.37150 -0.01500
H 	H 	0.98450 0.82360 0.40340 -0.01000
C 	C 	0.77610 0.85450 0.30270 0.06600
H 	H 	0.71750 0.84520 0.28840 -0.08500
C 	C 	0.89280 0.89980 0.32460 0.07000
H 	H 	0.93400 0.92760 0.32970 -0.07500
Cd	Cd	0.19595 0.46975 0.24637 1.08300
Cd	Cd	0.97795 0.21589 0.26040 1.08500
N 	N 	0.24940 0.39820 0.29590 -0.31600
N 	N 	0.28030 0.31550 0.32750 -0.11900
N 	N 	0.34470 0.35130 0.34960 -0.11100
N 	N 	0.41740 0.10450 0.35230 -0.12300
N 	N 	0.33340 0.12490 0.33810 -0.11900
N 	N 	0.34550 0.04380 0.30480 -0.31900
N 	N 	0.71110 0.24880 0.29170 -0.10800
N 	N 	0.75720 0.25600 0.33930 -0.11500
N 	N 	0.84710 0.22530 0.28970 -0.30600
N 	N 	0.11030 0.21420 0.23130 -0.30300
N 	N 	0.25120 0.22340 0.22950 -0.10300
N 	N 	0.20730 0.23560 0.18350 -0.11100
N 	N 	0.58080 0.10300 0.16530 -0.11900
N 	N 	0.65550 0.13300 0.18290 -0.12100
N 	N 	0.66920 0.04980 0.21480 -0.32000
N 	N 	0.58890 0.35100 0.16040 -0.11800
N 	N 	0.66460 0.31960 0.17380 -0.11700
N 	N 	0.69230 0.40490 0.19890 -0.32000
C 	C 	0.22640 0.34580 0.29590 0.06900
H 	H 	0.17550 0.33240 0.27480 -0.07700
C 	C 	0.32550 0.39960 0.33050 0.05100
H 	H 	0.36000 0.43000 0.33970 -0.06800
C 	C 	0.41910 0.33380 0.38820 0.02600
H 	H 	0.46030 0.36330 0.39770 -0.00600
H 	H 	0.39720 0.32300 0.41720 -0.00200
C 	C 	0.46810 0.28730 0.37050 -0.18400
C 	C 	0.52470 0.29740 0.33750 0.20900
C 	C 	0.56250 0.25280 0.31660 -0.18000
C 	C 	0.54950 0.20110 0.33200 0.26900
C 	C 	0.49870 0.19180 0.36740 -0.20400
C 	C 	0.45450 0.23550 0.38650 0.24600
C 	C 	0.39260 0.22520 0.42180 -0.68400
H 	H 	0.34360 0.24990 0.41500 0.21500
H 	H 	0.37020 0.18930 0.41740 0.21700
H 	H 	0.42510 0.22980 0.45540 0.20000
C 	C 	0.54570 0.35540 0.32570 -0.58400
H 	H 	0.55080 0.37690 0.35500 0.16900
H 	H 	0.60090 0.35660 0.31460 0.16700
H 	H 	0.49840 0.36910 0.30000 0.16400
C 	C 	0.61580 0.26270 0.27720 0.00400
H 	H 	0.61080 0.30020 0.26820 0.02000
H 	H 	0.58920 0.24220 0.24790 0.03300
C 	C 	0.58860 0.15530 0.30810 -0.72100
H 	H 	0.56490 0.12220 0.31720 0.21500
H 	H 	0.57330 0.15930 0.27260 0.23900
H 	H 	0.65240 0.15530 0.31910 0.22100
C 	C 	0.48830 0.13570 0.38540 0.03300
H 	H 	0.47470 0.13750 0.41820 -0.00400
H 	H 	0.54480 0.11700 0.38860 -0.01300
C 	C 	0.42140 0.05800 0.33270 0.08500
H 	H 	0.47270 0.03710 0.33790 -0.08800
C 	C 	0.29400 0.08620 0.30940 0.06600
H 	H 	0.23420 0.08800 0.29330 -0.07600
C 	C 	0.76530 0.23220 0.26360 0.06300
H 	H 	0.74790 0.22610 0.22970 -0.03600
C 	C 	0.83970 0.24010 0.33630 0.03900
H 	H 	0.88750 0.23930 0.36350 -0.05800
C 	C 	0.12050 0.22860 0.18500 0.03900
H 	H 	0.07330 0.23300 0.15790 -0.05800
C 	C 	0.19250 0.21100 0.25770 0.06300
H 	H 	0.20780 0.20140 0.29100 -0.04000
C 	C 	0.34710 0.22720 0.24500 -0.00300
H 	H 	0.36160 0.25950 0.26450 0.03800
H 	H 	0.36840 0.19710 0.26640 0.03100
C 	C 	0.39720 0.22820 0.20300 -0.18100
C 	C 	0.42190 0.17920 0.18470 0.23400
C 	C 	0.47590 0.17850 0.14910 -0.18900
C 	C 	0.50590 0.22790 0.13230 0.24200
C 	C 	0.47810 0.27610 0.14900 -0.19600
C 	C 	0.42320 0.27630 0.18500 0.24100
C 	C 	0.38930 0.32910 0.20060 -0.65700
H 	H 	0.43250 0.34370 0.22780 0.19700
H 	H 	0.38010 0.35350 0.17320 0.18600
H 	H 	0.33380 0.32350 0.21070 0.20200
C 	C 	0.39000 0.12670 0.20200 -0.65500
H 	H 	0.43790 0.10120 0.20710 0.18500
H 	H 	0.37110 0.13220 0.23260 0.20700
H 	H 	0.34080 0.11350 0.17740 0.18100
C 	C 	0.56830 0.22680 0.09580 -0.67000
H 	H 	0.58030 0.26270 0.08690 0.21100
H 	H 	0.62330 0.20960 0.11100 0.21400
H 	H 	0.54030 0.20740 0.06650 0.19900
C 	C 	0.50530 0.12570 0.13020 0.02600
H 	H 	0.52190 0.13140 0.09860 -0.00100
H 	H 	0.45580 0.10060 0.12500 -0.00900
C 	C 	0.59170 0.05490 0.18370 0.07100
H 	H 	0.54980 0.02770 0.17590 -0.08500
C 	C 	0.70700 0.09880 0.21150 0.06100
H 	H 	0.76470 0.10720 0.22820 -0.08600
C 	C 	0.50680 0.32870 0.13000 0.03900
H 	H 	0.45900 0.35450 0.12850 -0.01500
H 	H 	0.51550 0.32360 0.09660 -0.01000
C 	C 	0.72390 0.35450 0.19730 0.06600
H 	H 	0.78250 0.34520 0.21160 -0.08500
C 	C 	0.60720 0.39980 0.17540 0.07000
H 	H 	0.56600 0.42760 0.17030 -0.07500
