data_crystal

_cell_length_a 6.91280
_cell_length_b 9.24000
_cell_length_c 16.09500
_cell_angle_alpha 90.00000
_cell_angle_beta  90.00000
_cell_angle_gamma 90.00000

_symmetry_space_group_name_	'P 1'
_symmetry_space_group_name_H-M	'P 1'

loop_
_symmetry_equiv_pos_as_xyz
  x,y,z

loop_
_atom_site_label
_atom_site_type_symbol
_atom_site_fract_x
_atom_site_fract_y
_atom_site_fract_z
_atom_site_charge
Mn	Mn	0.75000 0.19779 0.16521 1.24100
Mn	Mn	0.25000 0.30221 0.66521 1.21900
Mn	Mn	0.25000 0.80221 0.83479 1.26100
Mn	Mn	0.75000 0.69779 0.33479 1.28200
Mn	Mn	0.50000 0.50000 0.50000 1.26500
Mn	Mn	0.50000 0.00000 -0.00000 1.13400
Mn	Mn	-0.00000 0.50000 0.50000 1.20400
Mn	Mn	-0.00000 0.00000 -0.00000 1.07500
H 	H 	0.14230 0.36670 0.28790 0.09500
H 	H 	0.85770 0.13330 0.78790 0.18200
H 	H 	0.64230 0.63330 0.71210 0.17500
H 	H 	0.35770 0.86670 0.21210 0.17200
H 	H 	0.85770 0.63330 0.71210 0.21400
H 	H 	0.14230 0.86670 0.21210 0.13400
H 	H 	0.35770 0.36670 0.28790 0.13300
H 	H 	0.64230 0.13330 0.78790 0.14300
H 	H 	0.75000 0.20500 0.00900 0.24100
H 	H 	0.25000 0.29500 0.50900 0.22100
H 	H 	0.25000 0.79500 0.99100 0.27100
H 	H 	0.75000 0.70500 0.49100 0.29900
C 	C 	0.25000 0.24700 0.20040 0.15400
C 	C 	0.75000 0.25300 0.70040 0.21600
C 	C 	0.75000 0.75300 0.79960 0.26200
C 	C 	0.25000 0.74700 0.29960 0.20300
S 	S 	0.75000 0.33681 0.35526 0.75500
S 	S 	0.25000 0.16319 0.85526 0.74700
S 	S 	0.25000 0.66319 0.64474 0.75100
S 	S 	0.75000 0.83681 0.14474 0.74500
N 	N 	0.34340 0.11870 0.10019 -0.24300
N 	N 	0.41100 0.19880 0.16298 -0.24300
N 	N 	0.65660 0.38130 0.60019 -0.18800
N 	N 	0.58900 0.30120 0.66298 -0.23100
N 	N 	0.84340 0.88130 0.89981 -0.07200
N 	N 	0.91100 0.80120 0.83702 -0.15900
N 	N 	0.15660 0.61870 0.39981 -0.21000
N 	N 	0.08900 0.69880 0.33702 -0.26200
N 	N 	0.65660 0.88130 0.89981 -0.10300
N 	N 	0.58900 0.80120 0.83702 -0.20400
N 	N 	0.34340 0.61870 0.39981 -0.18700
N 	N 	0.41100 0.69880 0.33702 -0.21600
N 	N 	0.15660 0.11870 0.10019 -0.26500
N 	N 	0.08900 0.19880 0.16298 -0.28800
N 	N 	0.84340 0.38130 0.60019 -0.15500
N 	N 	0.91100 0.30120 0.66298 -0.18500
N 	N 	0.25000 0.33720 0.26720 -0.32800
N 	N 	0.75000 0.16280 0.76720 -0.34300
N 	N 	0.75000 0.66280 0.73280 -0.35300
N 	N 	0.25000 0.83720 0.23280 -0.34100
O 	O 	0.57660 0.33230 0.40792 -0.52700
O 	O 	0.42340 0.16770 0.90792 -0.45200
O 	O 	0.07660 0.66770 0.59208 -0.55900
O 	O 	0.92340 0.83230 0.09208 -0.42500
O 	O 	0.42340 0.66770 0.59208 -0.48800
O 	O 	0.57660 0.83230 0.09208 -0.50900
O 	O 	0.92340 0.33230 0.40792 -0.44100
O 	O 	0.07660 0.16770 0.90792 -0.52200
O 	O 	0.75000 0.46920 0.30460 -0.50400
O 	O 	0.75000 0.21070 0.29920 -0.49500
O 	O 	0.75000 0.12620 0.03498 -0.89200
O 	O 	0.25000 0.03080 0.80460 -0.63800
O 	O 	0.25000 0.28930 0.79920 -0.50000
O 	O 	0.25000 0.37380 0.53498 -0.86800
O 	O 	0.25000 0.53080 0.69540 -0.55700
O 	O 	0.25000 0.78930 0.70080 -0.46400
O 	O 	0.25000 0.87380 0.96502 -0.70200
O 	O 	0.75000 0.96920 0.19540 -0.40800
O 	O 	0.75000 0.71070 0.20080 -0.45600
O 	O 	0.75000 0.62620 0.46502 -0.81100
