data_crystal

_cell_length_a 8.40700
_cell_length_b 9.52330
_cell_length_c 9.54330
_cell_angle_alpha 108.38600
_cell_angle_beta  115.52400
_cell_angle_gamma 90.17500

_symmetry_space_group_name_	'P 1'
_symmetry_space_group_name_H-M	'P 1'

loop_
_symmetry_equiv_pos_as_xyz
  x,y,z

loop_
_atom_site_label
_atom_site_type_symbol
_atom_site_fract_x
_atom_site_fract_y
_atom_site_fract_z
_atom_site_charge
C 	C 	0.38440 0.09170 0.11020 0.06900
H 	H 	0.49340 0.05900 0.17290 -0.05100
H 	H 	0.34970 0.04270 0.99310 -0.03900
C 	C 	0.24000 0.04950 0.14780 -0.27500
H 	H 	0.13080 0.07990 0.08190 0.09100
H 	H 	0.21810 0.94130 0.11600 0.11500
C 	C 	0.45350 0.33750 0.33000 -0.01800
H 	H 	0.45670 0.44410 0.34990 0.00800
H 	H 	0.57010 0.32290 0.40330 0.00100
C 	C 	0.31640 0.28360 0.36950 -0.09600
H 	H 	0.35410 0.33090 0.48730 0.01500
H 	H 	0.20470 0.31520 0.31090 0.04700
C 	C 	0.12840 0.08310 0.34980 -0.25500
H 	H 	0.02050 0.09510 0.26230 0.07900
H 	H 	0.14180 0.15300 0.45480 0.06100
C 	C 	0.11020 0.92600 0.34870 0.07400
H 	H 	0.00480 0.90450 0.36060 0.00200
H 	H 	0.09700 0.85540 0.24410 -0.02100
N 	N 	0.41590 0.25730 0.15500 -0.24500
H 	H 	0.50800 0.28300 0.14030 0.08600
H 	H 	0.32010 0.28510 0.08800 0.09500
N 	N 	0.28480 0.11920 0.32530 -0.14300
N 	N 	0.27020 0.91030 0.48640 -0.38500
H 	H 	0.27140 0.81360 0.47300 0.09100
H 	H 	0.26570 0.95610 0.58130 0.10800
C 	C 	0.61560 0.90830 0.88980 -0.09900
H 	H 	0.50660 0.94100 0.82710 0.03800
H 	H 	0.65030 0.95730 0.00690 0.05400
C 	C 	0.76000 0.95050 0.85220 0.07100
H 	H 	0.86920 0.92010 0.91810 0.01600
H 	H 	0.78190 0.05870 0.88400 -0.07800
C 	C 	0.54650 0.66250 0.67000 -0.02900
H 	H 	0.54330 0.55590 0.65010 0.01000
H 	H 	0.42990 0.67710 0.59670 0.00700
C 	C 	0.68360 0.71640 0.63050 -0.08500
H 	H 	0.64590 0.66910 0.51270 0.01700
H 	H 	0.79530 0.68480 0.68910 0.04300
C 	C 	0.87160 0.91690 0.65020 -0.02100
H 	H 	0.97950 0.90490 0.73770 0.03900
H 	H 	0.85820 0.84700 0.54520 0.01500
C 	C 	0.88980 0.07400 0.65130 -0.15400
H 	H 	0.99520 0.09550 0.63940 0.03600
H 	H 	0.90300 0.14460 0.75590 0.02900
N 	N 	0.58410 0.74270 0.84500 -0.22300
H 	H 	0.49200 0.71700 0.85970 0.09300
H 	H 	0.67990 0.71490 0.91200 0.09800
N 	N 	0.71520 0.88080 0.67470 -0.18900
N 	N 	0.72980 0.08970 0.51360 -0.36500
H 	H 	0.72860 0.18640 0.52700 0.08000
H 	H 	0.73430 0.04390 0.41870 0.06700
Zn	Zn	0.50000 0.00000 0.50000 1.11600
