data_crystal

_cell_length_a 24.27400
_cell_length_b 25.63400
_cell_length_c 11.08980
_cell_angle_alpha 90.00000
_cell_angle_beta  114.92400
_cell_angle_gamma 90.00000

_symmetry_space_group_name_	'P 1'
_symmetry_space_group_name_H-M	'P 1'

loop_
_symmetry_equiv_pos_as_xyz
  x,y,z

loop_
_atom_site_label
_atom_site_type_symbol
_atom_site_fract_x
_atom_site_fract_y
_atom_site_fract_z
_atom_site_charge
Ni	Ni	0.74394 0.42056 0.02015 1.07400
Ni	Ni	0.75579 0.46172 0.48234 1.07900
Ni	Ni	0.74908 0.43908 0.74980 1.13200
O 	O 	0.69920 0.37730 0.71370 -0.38800
C 	C 	0.52780 0.08690 0.65890 -0.18400
H 	H 	0.48690 0.09360 0.63530 0.09700
C 	C 	0.97690 0.71230 0.94890 -0.04800
C 	C 	0.52510 0.17400 0.54980 -0.05800
C 	C 	0.55430 0.12250 0.61730 0.09900
O 	O 	0.81760 0.49630 0.79830 -0.45500
C 	C 	0.94330 0.75730 0.87410 0.08000
C 	C 	0.57090 0.25710 0.53160 -0.14200
H 	H 	0.55110 0.25290 0.43990 0.08600
C 	C 	0.92560 0.62210 0.96840 -0.15300
H 	H 	0.94220 0.62570 0.06040 0.08700
C 	C 	0.56310 0.22240 0.61050 0.10300
C 	C 	0.97890 0.79330 0.83500 -0.11200
H 	H 	0.01950 0.78910 0.85160 0.07400
O 	O 	0.68850 0.36060 0.91090 -0.41700
C 	C 	0.91140 0.65410 0.74820 -0.13600
H 	H 	0.91440 0.67970 0.69160 0.07800
C 	C 	0.63460 0.30560 0.72680 -0.12400
C 	C 	0.88500 0.84580 0.73130 -0.06400
C 	C 	0.93960 0.66160 0.89440 0.07500
C 	C 	0.86450 0.57040 0.77870 -0.15000
C 	C 	0.58730 0.23150 0.74390 -0.15600
H 	H 	0.57720 0.20930 0.79780 0.08400
C 	C 	0.62730 0.27380 0.80360 0.07300
H 	H 	0.64700 0.27760 0.89550 0.01300
C 	C 	0.88080 0.60860 0.69910 0.05600
H 	H 	0.86940 0.60120 0.60970 0.01500
C 	C 	0.61200 0.02940 0.76070 -0.28100
C 	C 	0.89170 0.58210 0.91790 0.08300
H 	H 	0.88450 0.55940 0.97520 0.01900
O 	O 	0.80910 0.51480 0.59740 -0.47700
C 	C 	0.61080 0.30270 0.58740 0.04600
H 	H 	0.61920 0.32710 0.53550 0.03500
O 	O 	0.71000 0.47010 0.87120 -0.68900
H 	H 	0.72330 0.50550 0.89870 0.18700
H 	H 	0.66600 0.46880 0.82840 0.18000
C 	C 	0.93980 0.83810 0.76430 0.00400
H 	H 	0.95970 0.86460 0.74100 0.04500
C 	C 	0.54820 0.04060 0.73140 0.12800
H 	H 	0.52410 0.01950 0.75810 -0.00600
C 	C 	0.67350 0.35150 0.78450 0.30100
C 	C 	0.85550 0.80870 0.77100 0.04100
H 	H 	0.81460 0.81270 0.75210 0.01800
O 	O 	0.69350 0.47010 0.56840 -0.68500
H 	H 	0.68320 0.50630 0.57450 0.18200
H 	H 	0.65680 0.44980 0.52270 0.24000
O 	O 	0.80210 0.39910 0.93050 -0.65700
H 	H 	0.80370 0.36170 0.91890 0.21700
H 	H 	0.84280 0.41320 0.97630 0.25500
C 	C 	0.64830 0.06430 0.72400 0.10000
H 	H 	0.68870 0.05600 0.74650 -0.01900
C 	C 	0.62240 0.11460 0.64920 -0.14900
H 	H 	0.64510 0.13820 0.62500 0.08100
N 	N 	0.81740 0.42860 0.43220 -0.19500
O 	O 	0.82750 0.33140 0.67130 -0.32900
C 	C 	0.81740 0.36660 0.61110 0.44400
O 	O 	0.78450 0.39980 0.63890 -0.48000
C 	C 	0.87840 0.45410 0.48310 -0.03200
H 	H 	0.87720 0.48330 0.42650 0.04300
H 	H 	0.88940 0.46720 0.57240 0.04200
C 	C 	0.88510 0.76810 0.83500 -0.14300
H 	H 	0.86250 0.74330 0.85620 0.07900
C 	C 	0.92430 0.41510 0.48410 -0.13900
H 	H 	0.96530 0.42510 0.54390 0.06700
H 	H 	0.92210 0.40900 0.39580 0.07400
C 	C 	0.83360 0.37640 0.49430 -0.17600
H 	H 	0.81180 0.35050 0.42570 0.08800
C 	C 	0.90210 0.36810 0.53600 -0.01200
H 	H 	0.92350 0.36590 0.63200 0.03900
H 	H 	0.90890 0.33610 0.49770 0.02900
C 	C 	0.82460 0.52390 0.72320 0.42700
O 	O 	0.62140 0.96000 0.90370 -0.36000
C 	C 	0.64610 0.98700 0.84020 0.66400
O 	O 	0.68530 0.97050 0.84840 -0.62100
O 	O 	0.89580 0.92550 0.62380 -0.31100
C 	C 	0.86430 0.90090 0.65020 0.23100
O 	O 	0.79440 0.90070 0.63570 -0.35300
Ni	Ni	0.24394 0.92056 0.02015 1.07600
Ni	Ni	0.25579 0.96172 0.48234 1.08100
Ni	Ni	0.24908 0.93908 0.74980 1.13300
O 	O 	0.19920 0.87730 0.71370 -0.38700
C 	C 	0.02780 0.58690 0.65890 -0.18100
H 	H 	0.98690 0.59360 0.63530 0.09700
C 	C 	0.47690 0.21230 0.94890 -0.04800
C 	C 	0.02510 0.67400 0.54980 -0.05800
C 	C 	0.05430 0.62250 0.61730 0.09800
O 	O 	0.31760 0.99630 0.79830 -0.45000
C 	C 	0.44330 0.25730 0.87410 0.08000
C 	C 	0.07090 0.75710 0.53160 -0.14200
H 	H 	0.05110 0.75290 0.43990 0.08500
C 	C 	0.42560 0.12210 0.96840 -0.15300
H 	H 	0.44220 0.12570 0.06040 0.08800
C 	C 	0.06310 0.72240 0.61050 0.10300
C 	C 	0.47890 0.29330 0.83500 -0.11300
H 	H 	0.51950 0.28910 0.85160 0.07400
O 	O 	0.18850 0.86060 0.91090 -0.41700
C 	C 	0.41140 0.15410 0.74820 -0.13500
H 	H 	0.41440 0.17970 0.69160 0.07800
C 	C 	0.13460 0.80560 0.72680 -0.12400
C 	C 	0.38500 0.34580 0.73130 -0.06400
C 	C 	0.43960 0.16160 0.89440 0.07400
C 	C 	0.36450 0.07040 0.77870 -0.14900
C 	C 	0.08730 0.73150 0.74390 -0.15600
H 	H 	0.07720 0.70930 0.79780 0.08400
C 	C 	0.12730 0.77380 0.80360 0.07300
H 	H 	0.14700 0.77760 0.89550 0.01300
C 	C 	0.38080 0.10860 0.69910 0.05500
H 	H 	0.36940 0.10120 0.60970 0.01500
C 	C 	0.11200 0.52940 0.76070 -0.27400
C 	C 	0.39170 0.08210 0.91790 0.08300
H 	H 	0.38450 0.05940 0.97520 0.01800
O 	O 	0.30910 0.01480 0.59740 -0.47800
C 	C 	0.11080 0.80270 0.58740 0.04600
H 	H 	0.11920 0.82710 0.53550 0.03500
O 	O 	0.21000 0.97010 0.87120 -0.68500
H 	H 	0.22330 0.00550 0.89870 0.18300
H 	H 	0.16600 0.96880 0.82840 0.18000
C 	C 	0.43980 0.33810 0.76430 0.00500
H 	H 	0.45970 0.36460 0.74100 0.04500
C 	C 	0.04820 0.54060 0.73140 0.12500
H 	H 	0.02410 0.51950 0.75810 -0.00400
C 	C 	0.17350 0.85150 0.78450 0.30100
C 	C 	0.35550 0.30870 0.77100 0.04100
H 	H 	0.31460 0.31270 0.75210 0.01800
O 	O 	0.19350 0.97010 0.56840 -0.68100
H 	H 	0.18320 0.00630 0.57450 0.17800
H 	H 	0.15680 0.94980 0.52270 0.23900
O 	O 	0.30210 0.89910 0.93050 -0.65700
H 	H 	0.30370 0.86170 0.91890 0.21700
H 	H 	0.34280 0.91320 0.97630 0.25600
C 	C 	0.14830 0.56430 0.72400 0.09800
H 	H 	0.18870 0.55600 0.74650 -0.01700
C 	C 	0.12240 0.61460 0.64920 -0.14700
H 	H 	0.14510 0.63820 0.62500 0.08100
N 	N 	0.31740 0.92860 0.43220 -0.19500
O 	O 	0.32750 0.83140 0.67130 -0.32900
C 	C 	0.31740 0.86660 0.61110 0.44400
O 	O 	0.28450 0.89980 0.63890 -0.47900
C 	C 	0.37840 0.95410 0.48310 -0.03400
H 	H 	0.37720 0.98330 0.42650 0.04500
H 	H 	0.38940 0.96720 0.57240 0.04400
C 	C 	0.38510 0.26810 0.83500 -0.14300
H 	H 	0.36250 0.24330 0.85620 0.07900
C 	C 	0.42430 0.91510 0.48410 -0.13800
H 	H 	0.46530 0.92510 0.54390 0.06800
H 	H 	0.42210 0.90900 0.39580 0.07400
C 	C 	0.33360 0.87640 0.49430 -0.17600
H 	H 	0.31180 0.85050 0.42570 0.08800
C 	C 	0.40210 0.86810 0.53600 -0.01300
H 	H 	0.42350 0.86590 0.63200 0.04000
H 	H 	0.40890 0.83610 0.49770 0.02900
C 	C 	0.32460 0.02390 0.72320 0.42100
O 	O 	0.12140 0.46000 0.90370 -0.36000
C 	C 	0.14610 0.48700 0.84020 0.65700
O 	O 	0.18530 0.47050 0.84840 -0.61900
O 	O 	0.39580 0.42550 0.62380 -0.31200
C 	C 	0.36430 0.40090 0.65020 0.23100
O 	O 	0.29440 0.40070 0.63570 -0.35300
Ni	Ni	0.25606 0.42056 0.97985 1.07500
Ni	Ni	0.24421 0.46172 0.51766 1.08000
Ni	Ni	0.25092 0.43908 0.25020 1.13300
O 	O 	0.30080 0.37730 0.28630 -0.38700
C 	C 	0.47220 0.08690 0.34110 -0.18400
H 	H 	0.51310 0.09360 0.36470 0.09700
C 	C 	0.02310 0.71230 0.05110 -0.04800
C 	C 	0.47490 0.17400 0.45020 -0.05800
C 	C 	0.44570 0.12250 0.38270 0.09900
O 	O 	0.18240 0.49630 0.20170 -0.45500
C 	C 	0.05670 0.75730 0.12590 0.08000
C 	C 	0.42910 0.25710 0.46840 -0.14200
H 	H 	0.44890 0.25290 0.56010 0.08600
C 	C 	0.07440 0.62210 0.03160 -0.15300
H 	H 	0.05780 0.62570 0.93960 0.08700
C 	C 	0.43690 0.22240 0.38950 0.10300
C 	C 	0.02110 0.79330 0.16500 -0.11200
H 	H 	0.98050 0.78910 0.14840 0.07400
O 	O 	0.31150 0.36060 0.08910 -0.41700
C 	C 	0.08860 0.65410 0.25180 -0.13600
H 	H 	0.08560 0.67970 0.30840 0.07800
C 	C 	0.36540 0.30560 0.27320 -0.12400
C 	C 	0.11500 0.84580 0.26870 -0.06400
C 	C 	0.06040 0.66160 0.10560 0.07500
C 	C 	0.13550 0.57040 0.22130 -0.15000
C 	C 	0.41270 0.23150 0.25610 -0.15600
H 	H 	0.42280 0.20930 0.20220 0.08400
C 	C 	0.37270 0.27380 0.19640 0.07300
H 	H 	0.35300 0.27760 0.10450 0.01300
C 	C 	0.11920 0.60860 0.30090 0.05600
H 	H 	0.13060 0.60120 0.39030 0.01500
C 	C 	0.38800 0.02940 0.23930 -0.28100
C 	C 	0.10830 0.58210 0.08210 0.08300
H 	H 	0.11550 0.55940 0.02480 0.01900
O 	O 	0.19090 0.51480 0.40260 -0.47700
C 	C 	0.38920 0.30270 0.41260 0.04600
H 	H 	0.38080 0.32710 0.46450 0.03500
O 	O 	0.29000 0.47010 0.12880 -0.68900
H 	H 	0.27670 0.50550 0.10130 0.18700
H 	H 	0.33400 0.46880 0.17160 0.18000
C 	C 	0.06020 0.83810 0.23570 0.00400
H 	H 	0.04030 0.86460 0.25900 0.04500
C 	C 	0.45180 0.04060 0.26860 0.12800
H 	H 	0.47590 0.01950 0.24190 -0.00600
C 	C 	0.32650 0.35150 0.21550 0.30100
C 	C 	0.14450 0.80870 0.22900 0.04100
H 	H 	0.18540 0.81270 0.24790 0.01800
O 	O 	0.30650 0.47010 0.43160 -0.68500
H 	H 	0.31680 0.50630 0.42550 0.18200
H 	H 	0.34320 0.44980 0.47730 0.24000
O 	O 	0.19790 0.39910 0.06950 -0.65700
H 	H 	0.19630 0.36170 0.08110 0.21700
H 	H 	0.15720 0.41320 0.02370 0.25500
C 	C 	0.35170 0.06430 0.27600 0.10000
H 	H 	0.31130 0.05600 0.25350 -0.01900
C 	C 	0.37760 0.11460 0.35080 -0.14900
H 	H 	0.35490 0.13820 0.37500 0.08100
N 	N 	0.18260 0.42860 0.56780 -0.19500
O 	O 	0.17250 0.33140 0.32870 -0.32900
C 	C 	0.18260 0.36660 0.38890 0.44400
O 	O 	0.21550 0.39980 0.36110 -0.48000
C 	C 	0.12160 0.45410 0.51690 -0.03200
H 	H 	0.12280 0.48330 0.57350 0.04300
H 	H 	0.11060 0.46720 0.42760 0.04200
C 	C 	0.11490 0.76810 0.16500 -0.14300
H 	H 	0.13750 0.74330 0.14380 0.07900
C 	C 	0.07570 0.41510 0.51590 -0.13900
H 	H 	0.03470 0.42510 0.45610 0.06700
H 	H 	0.07790 0.40900 0.60420 0.07400
C 	C 	0.16640 0.37640 0.50570 -0.17600
H 	H 	0.18820 0.35050 0.57430 0.08800
C 	C 	0.09790 0.36810 0.46400 -0.01200
H 	H 	0.07650 0.36590 0.36800 0.03900
H 	H 	0.09110 0.33610 0.50230 0.02900
C 	C 	0.17540 0.52390 0.27680 0.42700
O 	O 	0.37860 0.96000 0.09630 -0.36000
C 	C 	0.35390 0.98700 0.15980 0.66400
O 	O 	0.31470 0.97050 0.15160 -0.62100
O 	O 	0.10420 0.92550 0.37620 -0.31100
C 	C 	0.13570 0.90090 0.34980 0.23100
O 	O 	0.20560 0.90070 0.36430 -0.35300
Ni	Ni	0.75606 0.92056 0.97985 1.07600
Ni	Ni	0.74421 0.96172 0.51766 1.08100
Ni	Ni	0.75092 0.93908 0.25020 1.13300
O 	O 	0.80080 0.87730 0.28630 -0.38700
C 	C 	0.97220 0.58690 0.34110 -0.18100
H 	H 	0.01310 0.59360 0.36470 0.09700
C 	C 	0.52310 0.21230 0.05110 -0.04800
C 	C 	0.97490 0.67400 0.45020 -0.05800
C 	C 	0.94570 0.62250 0.38270 0.09800
O 	O 	0.68240 0.99630 0.20170 -0.45000
C 	C 	0.55670 0.25730 0.12590 0.08000
C 	C 	0.92910 0.75710 0.46840 -0.14200
H 	H 	0.94890 0.75290 0.56010 0.08500
C 	C 	0.57440 0.12210 0.03160 -0.15300
H 	H 	0.55780 0.12570 0.93960 0.08800
C 	C 	0.93690 0.72240 0.38950 0.10300
C 	C 	0.52110 0.29330 0.16500 -0.11300
H 	H 	0.48050 0.28910 0.14840 0.07400
O 	O 	0.81150 0.86060 0.08910 -0.41700
C 	C 	0.58860 0.15410 0.25180 -0.13500
H 	H 	0.58560 0.17970 0.30840 0.07800
C 	C 	0.86540 0.80560 0.27320 -0.12400
C 	C 	0.61500 0.34580 0.26870 -0.06400
C 	C 	0.56040 0.16160 0.10560 0.07400
C 	C 	0.63550 0.07040 0.22130 -0.14900
C 	C 	0.91270 0.73150 0.25610 -0.15600
H 	H 	0.92280 0.70930 0.20220 0.08400
C 	C 	0.87270 0.77380 0.19640 0.07300
H 	H 	0.85300 0.77760 0.10450 0.01300
C 	C 	0.61920 0.10860 0.30090 0.05500
H 	H 	0.63060 0.10120 0.39030 0.01500
C 	C 	0.88800 0.52940 0.23930 -0.27400
C 	C 	0.60830 0.08210 0.08210 0.08300
H 	H 	0.61550 0.05940 0.02480 0.01800
O 	O 	0.69090 0.01480 0.40260 -0.47800
C 	C 	0.88920 0.80270 0.41260 0.04600
H 	H 	0.88080 0.82710 0.46450 0.03500
O 	O 	0.79000 0.97010 0.12880 -0.68500
H 	H 	0.77670 0.00550 0.10130 0.18300
H 	H 	0.83400 0.96880 0.17160 0.18000
C 	C 	0.56020 0.33810 0.23570 0.00500
H 	H 	0.54030 0.36460 0.25900 0.04500
C 	C 	0.95180 0.54060 0.26860 0.12500
H 	H 	0.97590 0.51950 0.24190 -0.00400
C 	C 	0.82650 0.85150 0.21550 0.30100
C 	C 	0.64450 0.30870 0.22900 0.04100
H 	H 	0.68540 0.31270 0.24790 0.01800
O 	O 	0.80650 0.97010 0.43160 -0.68100
H 	H 	0.81680 0.00630 0.42550 0.17800
H 	H 	0.84320 0.94980 0.47730 0.23900
O 	O 	0.69790 0.89910 0.06950 -0.65700
H 	H 	0.69630 0.86170 0.08110 0.21700
H 	H 	0.65720 0.91320 0.02370 0.25600
C 	C 	0.85170 0.56430 0.27600 0.09800
H 	H 	0.81130 0.55600 0.25350 -0.01700
C 	C 	0.87760 0.61460 0.35080 -0.14700
H 	H 	0.85490 0.63820 0.37500 0.08100
N 	N 	0.68260 0.92860 0.56780 -0.19500
O 	O 	0.67250 0.83140 0.32870 -0.32900
C 	C 	0.68260 0.86660 0.38890 0.44400
O 	O 	0.71550 0.89980 0.36110 -0.47900
C 	C 	0.62160 0.95410 0.51690 -0.03400
H 	H 	0.62280 0.98330 0.57350 0.04500
H 	H 	0.61060 0.96720 0.42760 0.04400
C 	C 	0.61490 0.26810 0.16500 -0.14300
H 	H 	0.63750 0.24330 0.14380 0.07900
C 	C 	0.57570 0.91510 0.51590 -0.13800
H 	H 	0.53470 0.92510 0.45610 0.06800
H 	H 	0.57790 0.90900 0.60420 0.07400
C 	C 	0.66640 0.87640 0.50570 -0.17600
H 	H 	0.68820 0.85050 0.57430 0.08800
C 	C 	0.59790 0.86810 0.46400 -0.01300
H 	H 	0.57650 0.86590 0.36800 0.04000
H 	H 	0.59110 0.83610 0.50230 0.02900
C 	C 	0.67540 0.02390 0.27680 0.42100
O 	O 	0.87860 0.46000 0.09630 -0.36000
C 	C 	0.85390 0.48700 0.15980 0.65700
O 	O 	0.81470 0.47050 0.15160 -0.61900
O 	O 	0.60420 0.42550 0.37620 -0.31200
C 	C 	0.63570 0.40090 0.34980 0.23100
O 	O 	0.70560 0.40070 0.36430 -0.35300
