data_crystal

_cell_length_a 17.76580
_cell_length_b 17.76580
_cell_length_c 17.76580
_cell_angle_alpha 90.00000
_cell_angle_beta  90.00000
_cell_angle_gamma 90.00000

_symmetry_space_group_name_	'P 1'
_symmetry_space_group_name_H-M	'P 1'

loop_
_symmetry_equiv_pos_as_xyz
  x,y,z

loop_
_atom_site_label
_atom_site_type_symbol
_atom_site_fract_x
_atom_site_fract_y
_atom_site_fract_z
_atom_site_charge
C 	C 	0.46457 0.75577 0.65706 0.13100
C 	C 	0.55779 0.65880 0.65908 0.01500
C 	C 	0.49499 0.69276 0.69060 -0.08400
O 	O 	0.40730 0.79113 0.68152 -0.43200
H 	H 	0.46858 0.66892 0.74382 0.07000
C 	C 	0.03543 0.24423 0.15706 0.13000
C 	C 	0.94221 0.34120 0.15908 0.01400
C 	C 	0.00501 0.30724 0.19060 -0.08500
O 	O 	0.09270 0.20887 0.18152 -0.43300
H 	H 	0.03142 0.33108 0.24382 0.07000
C 	C 	0.53543 0.25577 0.84294 0.13000
C 	C 	0.44221 0.15880 0.84092 0.01400
C 	C 	0.50501 0.19276 0.80940 -0.08500
O 	O 	0.59270 0.29113 0.81848 -0.43300
H 	H 	0.53142 0.16892 0.75618 0.07000
C 	C 	0.96457 0.74423 0.34294 0.13000
C 	C 	0.05779 0.84120 0.34092 0.01400
C 	C 	0.99499 0.80724 0.30940 -0.08500
O 	O 	0.90730 0.70887 0.31848 -0.43300
H 	H 	0.96858 0.83108 0.25618 0.07000
C 	C 	0.65706 0.46457 0.75577 0.13000
C 	C 	0.65908 0.55779 0.65880 0.01400
C 	C 	0.69060 0.49499 0.69276 -0.08500
O 	O 	0.68152 0.40730 0.79113 -0.43300
H 	H 	0.74382 0.46858 0.66892 0.07000
C 	C 	0.15706 0.03543 0.24423 0.13000
C 	C 	0.15908 0.94221 0.34120 0.01400
C 	C 	0.19060 0.00501 0.30724 -0.08500
O 	O 	0.18152 0.09270 0.20887 -0.43300
H 	H 	0.24382 0.03142 0.33108 0.07000
C 	C 	0.84294 0.53543 0.25577 0.13000
C 	C 	0.84092 0.44221 0.15880 0.01400
C 	C 	0.80940 0.50501 0.19276 -0.08500
O 	O 	0.81848 0.59270 0.29113 -0.43300
H 	H 	0.75618 0.53142 0.16892 0.07000
C 	C 	0.34294 0.96457 0.74423 0.13000
C 	C 	0.34092 0.05779 0.84120 0.01400
C 	C 	0.30940 0.99499 0.80724 -0.08500
O 	O 	0.31848 0.90730 0.70887 -0.43300
H 	H 	0.25618 0.96858 0.83108 0.07000
C 	C 	0.75577 0.65706 0.46457 0.13000
C 	C 	0.65880 0.65908 0.55779 0.01400
C 	C 	0.69276 0.69060 0.49499 -0.08500
O 	O 	0.79113 0.68152 0.40730 -0.43300
H 	H 	0.66892 0.74382 0.46858 0.07000
C 	C 	0.24423 0.15706 0.03543 0.13000
C 	C 	0.34120 0.15908 0.94221 0.01400
C 	C 	0.30724 0.19060 0.00501 -0.08500
O 	O 	0.20887 0.18152 0.09270 -0.43300
H 	H 	0.33108 0.24382 0.03142 0.07000
C 	C 	0.25577 0.84294 0.53543 0.13000
C 	C 	0.15880 0.84092 0.44221 0.01400
C 	C 	0.19276 0.80940 0.50501 -0.08500
O 	O 	0.29113 0.81848 0.59270 -0.43300
H 	H 	0.16892 0.75618 0.53142 0.07000
C 	C 	0.74423 0.34294 0.96457 0.13000
C 	C 	0.84120 0.34092 0.05779 0.01400
C 	C 	0.80724 0.30940 0.99499 -0.08500
O 	O 	0.70887 0.31848 0.90730 -0.43300
H 	H 	0.83108 0.25618 0.96858 0.07000
C 	C 	0.00577 0.21457 0.09294 0.13000
C 	C 	0.90880 0.30779 0.09092 0.01400
C 	C 	0.94276 0.24499 0.05940 -0.08500
O 	O 	0.04113 0.15730 0.06848 -0.43300
H 	H 	0.91892 0.21858 0.00618 0.07000
C 	C 	0.49423 0.78543 0.59294 0.13000
C 	C 	0.59120 0.69221 0.59092 0.01400
C 	C 	0.55724 0.75501 0.55940 -0.08500
O 	O 	0.45887 0.84270 0.56848 -0.43300
H 	H 	0.58108 0.78142 0.50618 0.07000
C 	C 	0.50577 0.28543 0.90706 0.13000
C 	C 	0.40880 0.19221 0.90908 0.01400
C 	C 	0.44276 0.25501 0.94060 -0.08500
O 	O 	0.54113 0.34270 0.93152 -0.43300
H 	H 	0.41892 0.28142 0.99382 0.07000
C 	C 	0.99423 0.71457 0.40706 0.13000
C 	C 	0.09120 0.80779 0.40908 0.01400
C 	C 	0.05724 0.74499 0.44060 -0.08500
O 	O 	0.95887 0.65730 0.43152 -0.43300
H 	H 	0.08108 0.71858 0.49382 0.07000
C 	C 	0.71457 0.40706 0.99423 0.13000
C 	C 	0.80779 0.40908 0.09120 0.01400
C 	C 	0.74499 0.44060 0.05724 -0.08500
O 	O 	0.65730 0.43152 0.95887 -0.43300
H 	H 	0.71858 0.49382 0.08108 0.07000
C 	C 	0.28543 0.90706 0.50577 0.13000
C 	C 	0.19221 0.90908 0.40880 0.01400
C 	C 	0.25501 0.94060 0.44276 -0.08500
O 	O 	0.34270 0.93152 0.54113 -0.43300
H 	H 	0.28142 0.99382 0.41892 0.07000
C 	C 	0.78543 0.59294 0.49423 0.13000
C 	C 	0.69221 0.59092 0.59120 0.01400
C 	C 	0.75501 0.55940 0.55724 -0.08500
O 	O 	0.84270 0.56848 0.45887 -0.43300
H 	H 	0.78142 0.50618 0.58108 0.07000
C 	C 	0.21457 0.09294 0.00577 0.13000
C 	C 	0.30779 0.09092 0.90880 0.01400
C 	C 	0.24499 0.05940 0.94276 -0.08500
O 	O 	0.15730 0.06848 0.04113 -0.43300
H 	H 	0.21858 0.00618 0.91892 0.07000
C 	C 	0.90706 0.50577 0.28543 0.13000
C 	C 	0.90908 0.40880 0.19221 0.01400
C 	C 	0.94060 0.44276 0.25501 -0.08500
O 	O 	0.93152 0.54113 0.34270 -0.43300
H 	H 	0.99382 0.41892 0.28142 0.07000
C 	C 	0.40706 0.99423 0.71457 0.13000
C 	C 	0.40908 0.09120 0.80779 0.01400
C 	C 	0.44060 0.05724 0.74499 -0.08500
O 	O 	0.43152 0.95887 0.65730 -0.43300
H 	H 	0.49382 0.08108 0.71858 0.07000
C 	C 	0.09294 0.00577 0.21457 0.13000
C 	C 	0.09092 0.90880 0.30779 0.01400
C 	C 	0.05940 0.94276 0.24499 -0.08500
O 	O 	0.06848 0.04113 0.15730 -0.43300
H 	H 	0.00618 0.91892 0.21858 0.07000
C 	C 	0.59294 0.49423 0.78543 0.13000
C 	C 	0.59092 0.59120 0.69221 0.01400
C 	C 	0.55940 0.55724 0.75501 -0.08500
O 	O 	0.56848 0.45887 0.84270 -0.43300
H 	H 	0.50618 0.58108 0.78142 0.07000
V 	V 	0.87500 0.62500 0.37500 1.82300
V 	V 	0.62500 0.37500 0.87500 1.82300
V 	V 	0.12500 0.12500 0.12500 1.82300
V 	V 	0.37500 0.87500 0.62500 1.82300
