data_crystal

_cell_length_a 17.80480
_cell_length_b 17.80480
_cell_length_c 17.80480
_cell_angle_alpha 90.00000
_cell_angle_beta  90.00000
_cell_angle_gamma 90.00000

_symmetry_space_group_name_	'P 1'
_symmetry_space_group_name_H-M	'P 1'

loop_
_symmetry_equiv_pos_as_xyz
  x,y,z

loop_
_atom_site_label
_atom_site_type_symbol
_atom_site_fract_x
_atom_site_fract_y
_atom_site_fract_z
_atom_site_charge
O 	O 	0.26327 0.29289 0.62666 -0.31100
O 	O 	0.19218 0.41758 0.59307 -0.43600
O 	O 	0.09560 0.46180 0.46430 -0.38100
C 	C 	0.28720 0.33040 0.56480 0.10200
C 	C 	0.24720 0.39640 0.54560 0.14600
S 	S 	0.05630 0.47750 0.40580 0.58200
C 	C 	0.34740 0.30840 0.52190 -0.09700
C 	C 	0.26630 0.43540 0.48130 -0.13600
O 	O 	0.09720 0.45420 0.33920 -0.23600
C 	C 	0.36970 0.34960 0.45630 0.01200
H 	H 	0.37490 0.26480 0.53590 0.10800
H 	H 	0.23740 0.47800 0.46720 0.11200
C 	C 	0.32810 0.41320 0.43570 0.04500
O 	O 	0.06530 0.41710 0.44740 -0.30800
O 	O 	0.23673 0.70711 0.12666 -0.31100
O 	O 	0.30782 0.58242 0.09307 -0.43500
O 	O 	0.40440 0.53820 0.96430 -0.38200
C 	C 	0.21280 0.66960 0.06480 0.10400
C 	C 	0.25280 0.60360 0.04560 0.14200
S 	S 	0.44370 0.52250 0.90580 0.58200
C 	C 	0.15260 0.69160 0.02190 -0.10200
C 	C 	0.23370 0.56460 0.98130 -0.13400
O 	O 	0.40280 0.54580 0.83920 -0.23700
C 	C 	0.13030 0.65040 0.95630 0.01500
H 	H 	0.12510 0.73520 0.03590 0.10800
H 	H 	0.26260 0.52200 0.96720 0.11000
C 	C 	0.17190 0.58680 0.93570 0.04100
O 	O 	0.43470 0.58290 0.94740 -0.30800
O 	O 	0.73673 0.79289 0.87334 -0.31300
O 	O 	0.80782 0.91758 0.90693 -0.43600
O 	O 	0.90440 0.96180 0.03570 -0.38100
C 	C 	0.71280 0.83040 0.93520 0.10500
C 	C 	0.75280 0.89640 0.95440 0.13700
S 	S 	0.94370 0.97750 0.09420 0.58100
C 	C 	0.65260 0.80840 0.97810 -0.10500
C 	C 	0.73370 0.93540 0.01870 -0.12800
O 	O 	0.90280 0.95420 0.16080 -0.23700
C 	C 	0.63030 0.84960 0.04370 0.01800
H 	H 	0.62510 0.76480 0.96410 0.10900
H 	H 	0.76260 0.97800 0.03280 0.10900
C 	C 	0.67190 0.91320 0.06430 0.03900
O 	O 	0.93470 0.91710 0.05260 -0.30700
O 	O 	0.76327 0.20711 0.37334 -0.31200
O 	O 	0.69218 0.08242 0.40693 -0.43600
O 	O 	0.59560 0.03820 0.53570 -0.38200
C 	C 	0.78720 0.16960 0.43520 0.10200
C 	C 	0.74720 0.10360 0.45440 0.14500
S 	S 	0.55630 0.02250 0.59420 0.58300
C 	C 	0.84740 0.19160 0.47810 -0.09900
C 	C 	0.76630 0.06460 0.51870 -0.13500
O 	O 	0.59720 0.04580 0.66080 -0.23700
C 	C 	0.86970 0.15040 0.54370 0.01300
H 	H 	0.87490 0.23520 0.46410 0.10800
H 	H 	0.73740 0.02200 0.53280 0.11100
C 	C 	0.82810 0.08680 0.56430 0.04100
O 	O 	0.56530 0.08290 0.55260 -0.30800
O 	O 	0.62666 0.26327 0.29289 -0.31200
O 	O 	0.59307 0.19218 0.41758 -0.43700
O 	O 	0.46430 0.09560 0.46180 -0.38200
C 	C 	0.56480 0.28720 0.33040 0.10100
C 	C 	0.54560 0.24720 0.39640 0.14500
S 	S 	0.40580 0.05630 0.47750 0.58100
C 	C 	0.52190 0.34740 0.30840 -0.09800
C 	C 	0.48130 0.26630 0.43540 -0.13700
O 	O 	0.33920 0.09720 0.45420 -0.23700
C 	C 	0.45630 0.36970 0.34960 0.01100
H 	H 	0.53590 0.37490 0.26480 0.10700
H 	H 	0.46720 0.23740 0.47800 0.11100
C 	C 	0.43570 0.32810 0.41320 0.04400
O 	O 	0.44740 0.06530 0.41710 -0.30900
O 	O 	0.12666 0.23673 0.70711 -0.31200
O 	O 	0.09307 0.30782 0.58242 -0.43600
O 	O 	0.96430 0.40440 0.53820 -0.38300
C 	C 	0.06480 0.21280 0.66960 0.10300
C 	C 	0.04560 0.25280 0.60360 0.14200
S 	S 	0.90580 0.44370 0.52250 0.58200
C 	C 	0.02190 0.15260 0.69160 -0.10200
C 	C 	0.98130 0.23370 0.56460 -0.13400
O 	O 	0.83920 0.40280 0.54580 -0.23700
C 	C 	0.95630 0.13030 0.65040 0.01500
H 	H 	0.03590 0.12510 0.73520 0.10800
H 	H 	0.96720 0.26260 0.52200 0.11000
C 	C 	0.93570 0.17190 0.58680 0.04100
O 	O 	0.94740 0.43470 0.58290 -0.30800
O 	O 	0.87334 0.73673 0.79289 -0.31300
O 	O 	0.90693 0.80782 0.91758 -0.43600
O 	O 	0.03570 0.90440 0.96180 -0.38100
C 	C 	0.93520 0.71280 0.83040 0.10500
C 	C 	0.95440 0.75280 0.89640 0.13700
S 	S 	0.09420 0.94370 0.97750 0.58100
C 	C 	0.97810 0.65260 0.80840 -0.10500
C 	C 	0.01870 0.73370 0.93540 -0.12800
O 	O 	0.16080 0.90280 0.95420 -0.23700
C 	C 	0.04370 0.63030 0.84960 0.01800
H 	H 	0.96410 0.62510 0.76480 0.10900
H 	H 	0.03280 0.76260 0.97800 0.10900
C 	C 	0.06430 0.67190 0.91320 0.03900
O 	O 	0.05260 0.93470 0.91710 -0.30700
O 	O 	0.37334 0.76327 0.20711 -0.31200
O 	O 	0.40693 0.69218 0.08242 -0.43600
O 	O 	0.53570 0.59560 0.03820 -0.38200
C 	C 	0.43520 0.78720 0.16960 0.10200
C 	C 	0.45440 0.74720 0.10360 0.14500
S 	S 	0.59420 0.55630 0.02250 0.58300
C 	C 	0.47810 0.84740 0.19160 -0.09900
C 	C 	0.51870 0.76630 0.06460 -0.13500
O 	O 	0.66080 0.59720 0.04580 -0.23700
C 	C 	0.54370 0.86970 0.15040 0.01300
H 	H 	0.46410 0.87490 0.23520 0.10800
H 	H 	0.53280 0.73740 0.02200 0.11100
C 	C 	0.56430 0.82810 0.08680 0.04100
O 	O 	0.55260 0.56530 0.08290 -0.30800
O 	O 	0.29289 0.62666 0.26327 -0.31200
O 	O 	0.41758 0.59307 0.19218 -0.43700
O 	O 	0.46180 0.46430 0.09560 -0.38200
C 	C 	0.33040 0.56480 0.28720 0.10100
C 	C 	0.39640 0.54560 0.24720 0.14500
S 	S 	0.47750 0.40580 0.05630 0.58100
C 	C 	0.30840 0.52190 0.34740 -0.09800
C 	C 	0.43540 0.48130 0.26630 -0.13700
O 	O 	0.45420 0.33920 0.09720 -0.23700
C 	C 	0.34960 0.45630 0.36970 0.01100
H 	H 	0.26480 0.53590 0.37490 0.10700
H 	H 	0.47800 0.46720 0.23740 0.11100
C 	C 	0.41320 0.43570 0.32810 0.04400
O 	O 	0.41710 0.44740 0.06530 -0.30900
O 	O 	0.70711 0.12666 0.23673 -0.31200
O 	O 	0.58242 0.09307 0.30782 -0.43600
O 	O 	0.53820 0.96430 0.40440 -0.38300
C 	C 	0.66960 0.06480 0.21280 0.10300
C 	C 	0.60360 0.04560 0.25280 0.14200
S 	S 	0.52250 0.90580 0.44370 0.58200
C 	C 	0.69160 0.02190 0.15260 -0.10200
C 	C 	0.56460 0.98130 0.23370 -0.13400
O 	O 	0.54580 0.83920 0.40280 -0.23700
C 	C 	0.65040 0.95630 0.13030 0.01500
H 	H 	0.73520 0.03590 0.12510 0.10800
H 	H 	0.52200 0.96720 0.26260 0.11000
C 	C 	0.58680 0.93570 0.17190 0.04100
O 	O 	0.58290 0.94740 0.43470 -0.30800
O 	O 	0.79289 0.87334 0.73673 -0.31300
O 	O 	0.91758 0.90693 0.80782 -0.43600
O 	O 	0.96180 0.03570 0.90440 -0.38100
C 	C 	0.83040 0.93520 0.71280 0.10500
C 	C 	0.89640 0.95440 0.75280 0.13700
S 	S 	0.97750 0.09420 0.94370 0.58100
C 	C 	0.80840 0.97810 0.65260 -0.10500
C 	C 	0.93540 0.01870 0.73370 -0.12800
O 	O 	0.95420 0.16080 0.90280 -0.23700
C 	C 	0.84960 0.04370 0.63030 0.01800
H 	H 	0.76480 0.96410 0.62510 0.10900
H 	H 	0.97800 0.03280 0.76260 0.10900
C 	C 	0.91320 0.06430 0.67190 0.03900
O 	O 	0.91710 0.05260 0.93470 -0.30700
O 	O 	0.20711 0.37334 0.76327 -0.31200
O 	O 	0.08242 0.40693 0.69218 -0.43600
O 	O 	0.03820 0.53570 0.59560 -0.38200
C 	C 	0.16960 0.43520 0.78720 0.10200
C 	C 	0.10360 0.45440 0.74720 0.14500
S 	S 	0.02250 0.59420 0.55630 0.58300
C 	C 	0.19160 0.47810 0.84740 -0.09900
C 	C 	0.06460 0.51870 0.76630 -0.13500
O 	O 	0.04580 0.66080 0.59720 -0.23700
C 	C 	0.15040 0.54370 0.86970 0.01300
H 	H 	0.23520 0.46410 0.87490 0.10800
H 	H 	0.02200 0.53280 0.73740 0.11100
C 	C 	0.08680 0.56430 0.82810 0.04100
O 	O 	0.08290 0.55260 0.56530 -0.30800
O 	O 	0.73673 0.70711 0.37334 -0.31200
O 	O 	0.80782 0.58242 0.40693 -0.43700
O 	O 	0.90440 0.53820 0.53570 -0.38200
C 	C 	0.71280 0.66960 0.43520 0.10100
C 	C 	0.75280 0.60360 0.45440 0.14500
S 	S 	0.94370 0.52250 0.59420 0.58100
C 	C 	0.65260 0.69160 0.47810 -0.09800
C 	C 	0.73370 0.56460 0.51870 -0.13700
O 	O 	0.90280 0.54580 0.66080 -0.23700
C 	C 	0.63030 0.65040 0.54370 0.01100
H 	H 	0.62510 0.73520 0.46410 0.10700
H 	H 	0.76260 0.52200 0.53280 0.11100
C 	C 	0.67190 0.58680 0.56430 0.04400
O 	O 	0.93470 0.58290 0.55260 -0.30900
O 	O 	0.76327 0.29289 0.87334 -0.31200
O 	O 	0.69218 0.41758 0.90693 -0.43600
O 	O 	0.59560 0.46180 0.03570 -0.38300
C 	C 	0.78720 0.33040 0.93520 0.10300
C 	C 	0.74720 0.39640 0.95440 0.14200
S 	S 	0.55630 0.47750 0.09420 0.58200
C 	C 	0.84740 0.30840 0.97810 -0.10200
C 	C 	0.76630 0.43540 0.01870 -0.13400
O 	O 	0.59720 0.45420 0.16080 -0.23700
C 	C 	0.86970 0.34960 0.04370 0.01500
H 	H 	0.87490 0.26480 0.96410 0.10800
H 	H 	0.73740 0.47800 0.03280 0.11000
C 	C 	0.82810 0.41320 0.06430 0.04100
O 	O 	0.56530 0.41710 0.05260 -0.30800
O 	O 	0.26327 0.20711 0.12666 -0.31300
O 	O 	0.19218 0.08242 0.09307 -0.43600
O 	O 	0.09560 0.03820 0.96430 -0.38100
C 	C 	0.28720 0.16960 0.06480 0.10500
C 	C 	0.24720 0.10360 0.04560 0.13700
S 	S 	0.05630 0.02250 0.90580 0.58100
C 	C 	0.34740 0.19160 0.02190 -0.10500
C 	C 	0.26630 0.06460 0.98130 -0.12800
O 	O 	0.09720 0.04580 0.83920 -0.23700
C 	C 	0.36970 0.15040 0.95630 0.01800
H 	H 	0.37490 0.23520 0.03590 0.10900
H 	H 	0.23740 0.02200 0.96720 0.10900
C 	C 	0.32810 0.08680 0.93570 0.03900
O 	O 	0.06530 0.08290 0.94740 -0.30700
O 	O 	0.23673 0.79289 0.62666 -0.31200
O 	O 	0.30782 0.91758 0.59307 -0.43600
O 	O 	0.40440 0.96180 0.46430 -0.38200
C 	C 	0.21280 0.83040 0.56480 0.10200
C 	C 	0.25280 0.89640 0.54560 0.14500
S 	S 	0.44370 0.97750 0.40580 0.58300
C 	C 	0.15260 0.80840 0.52190 -0.09900
C 	C 	0.23370 0.93540 0.48130 -0.13500
O 	O 	0.40280 0.95420 0.33920 -0.23700
C 	C 	0.13030 0.84960 0.45630 0.01300
H 	H 	0.12510 0.76480 0.53590 0.10800
H 	H 	0.26260 0.97800 0.46720 0.11100
C 	C 	0.17190 0.91320 0.43570 0.04100
O 	O 	0.43470 0.91710 0.44740 -0.30800
O 	O 	0.37334 0.73673 0.70711 -0.31200
O 	O 	0.40693 0.80782 0.58242 -0.43700
O 	O 	0.53570 0.90440 0.53820 -0.38200
C 	C 	0.43520 0.71280 0.66960 0.10100
C 	C 	0.45440 0.75280 0.60360 0.14500
S 	S 	0.59420 0.94370 0.52250 0.58100
C 	C 	0.47810 0.65260 0.69160 -0.09800
C 	C 	0.51870 0.73370 0.56460 -0.13700
O 	O 	0.66080 0.90280 0.54580 -0.23700
C 	C 	0.54370 0.63030 0.65040 0.01100
H 	H 	0.46410 0.62510 0.73520 0.10700
H 	H 	0.53280 0.76260 0.52200 0.11100
C 	C 	0.56430 0.67190 0.58680 0.04400
O 	O 	0.55260 0.93470 0.58290 -0.30900
O 	O 	0.87334 0.76327 0.29289 -0.31200
O 	O 	0.90693 0.69218 0.41758 -0.43600
O 	O 	0.03570 0.59560 0.46180 -0.38300
C 	C 	0.93520 0.78720 0.33040 0.10300
C 	C 	0.95440 0.74720 0.39640 0.14200
S 	S 	0.09420 0.55630 0.47750 0.58200
C 	C 	0.97810 0.84740 0.30840 -0.10200
C 	C 	0.01870 0.76630 0.43540 -0.13400
O 	O 	0.16080 0.59720 0.45420 -0.23700
C 	C 	0.04370 0.86970 0.34960 0.01500
H 	H 	0.96410 0.87490 0.26480 0.10800
H 	H 	0.03280 0.73740 0.47800 0.11000
C 	C 	0.06430 0.82810 0.41320 0.04100
O 	O 	0.05260 0.56530 0.41710 -0.30800
O 	O 	0.12666 0.26327 0.20711 -0.31300
O 	O 	0.09307 0.19218 0.08242 -0.43600
O 	O 	0.96430 0.09560 0.03820 -0.38100
C 	C 	0.06480 0.28720 0.16960 0.10500
C 	C 	0.04560 0.24720 0.10360 0.13700
S 	S 	0.90580 0.05630 0.02250 0.58100
C 	C 	0.02190 0.34740 0.19160 -0.10500
C 	C 	0.98130 0.26630 0.06460 -0.12800
O 	O 	0.83920 0.09720 0.04580 -0.23700
C 	C 	0.95630 0.36970 0.15040 0.01800
H 	H 	0.03590 0.37490 0.23520 0.10900
H 	H 	0.96720 0.23740 0.02200 0.10900
C 	C 	0.93570 0.32810 0.08680 0.03900
O 	O 	0.94740 0.06530 0.08290 -0.30700
O 	O 	0.62666 0.23673 0.79289 -0.31200
O 	O 	0.59307 0.30782 0.91758 -0.43600
O 	O 	0.46430 0.40440 0.96180 -0.38200
C 	C 	0.56480 0.21280 0.83040 0.10200
C 	C 	0.54560 0.25280 0.89640 0.14500
S 	S 	0.40580 0.44370 0.97750 0.58300
C 	C 	0.52190 0.15260 0.80840 -0.09900
C 	C 	0.48130 0.23370 0.93540 -0.13500
O 	O 	0.33920 0.40280 0.95420 -0.23700
C 	C 	0.45630 0.13030 0.84960 0.01300
H 	H 	0.53590 0.12510 0.76480 0.10800
H 	H 	0.46720 0.26260 0.97800 0.11100
C 	C 	0.43570 0.17190 0.91320 0.04100
O 	O 	0.44740 0.43470 0.91710 -0.30800
O 	O 	0.70711 0.37334 0.73673 -0.31200
O 	O 	0.58242 0.40693 0.80782 -0.43700
O 	O 	0.53820 0.53570 0.90440 -0.38200
C 	C 	0.66960 0.43520 0.71280 0.10100
C 	C 	0.60360 0.45440 0.75280 0.14500
S 	S 	0.52250 0.59420 0.94370 0.58100
C 	C 	0.69160 0.47810 0.65260 -0.09800
C 	C 	0.56460 0.51870 0.73370 -0.13700
O 	O 	0.54580 0.66080 0.90280 -0.23700
C 	C 	0.65040 0.54370 0.63030 0.01100
H 	H 	0.73520 0.46410 0.62510 0.10700
H 	H 	0.52200 0.53280 0.76260 0.11100
C 	C 	0.58680 0.56430 0.67190 0.04400
O 	O 	0.58290 0.55260 0.93470 -0.30900
O 	O 	0.29289 0.87334 0.76327 -0.31200
O 	O 	0.41758 0.90693 0.69218 -0.43600
O 	O 	0.46180 0.03570 0.59560 -0.38300
C 	C 	0.33040 0.93520 0.78720 0.10300
C 	C 	0.39640 0.95440 0.74720 0.14200
S 	S 	0.47750 0.09420 0.55630 0.58200
C 	C 	0.30840 0.97810 0.84740 -0.10200
C 	C 	0.43540 0.01870 0.76630 -0.13400
O 	O 	0.45420 0.16080 0.59720 -0.23700
C 	C 	0.34960 0.04370 0.86970 0.01500
H 	H 	0.26480 0.96410 0.87490 0.10800
H 	H 	0.47800 0.03280 0.73740 0.11000
C 	C 	0.41320 0.06430 0.82810 0.04100
O 	O 	0.41710 0.05260 0.56530 -0.30800
O 	O 	0.20711 0.12666 0.26327 -0.31300
O 	O 	0.08242 0.09307 0.19218 -0.43600
O 	O 	0.03820 0.96430 0.09560 -0.38100
C 	C 	0.16960 0.06480 0.28720 0.10500
C 	C 	0.10360 0.04560 0.24720 0.13700
S 	S 	0.02250 0.90580 0.05630 0.58100
C 	C 	0.19160 0.02190 0.34740 -0.10500
C 	C 	0.06460 0.98130 0.26630 -0.12800
O 	O 	0.04580 0.83920 0.09720 -0.23700
C 	C 	0.15040 0.95630 0.36970 0.01800
H 	H 	0.23520 0.03590 0.37490 0.10900
H 	H 	0.02200 0.96720 0.23740 0.10900
C 	C 	0.08680 0.93570 0.32810 0.03900
O 	O 	0.08290 0.94740 0.06530 -0.30700
O 	O 	0.79289 0.62666 0.23673 -0.31200
O 	O 	0.91758 0.59307 0.30782 -0.43600
O 	O 	0.96180 0.46430 0.40440 -0.38200
C 	C 	0.83040 0.56480 0.21280 0.10200
C 	C 	0.89640 0.54560 0.25280 0.14500
S 	S 	0.97750 0.40580 0.44370 0.58300
C 	C 	0.80840 0.52190 0.15260 -0.09900
C 	C 	0.93540 0.48130 0.23370 -0.13500
O 	O 	0.95420 0.33920 0.40280 -0.23700
C 	C 	0.84960 0.45630 0.13030 0.01300
H 	H 	0.76480 0.53590 0.12510 0.10800
H 	H 	0.97800 0.46720 0.26260 0.11100
C 	C 	0.91320 0.43570 0.17190 0.04100
O 	O 	0.91710 0.44740 0.43470 -0.30800
Fe	Fe	0.16756 0.33244 0.66756 1.21600
Fe	Fe	0.07385 0.42615 0.57385 1.21100
Fe	Fe	0.33244 0.66756 0.16756 1.21600
Fe	Fe	0.42615 0.57385 0.07385 1.21100
Fe	Fe	0.83244 0.83244 0.83244 1.21600
Fe	Fe	0.92615 0.92615 0.92615 1.20800
Fe	Fe	0.66756 0.16756 0.33244 1.21600
Fe	Fe	0.57385 0.07385 0.42615 1.21100
Fe	Fe	0.83244 0.66756 0.33244 1.21600
Fe	Fe	0.92615 0.57385 0.42615 1.21100
Fe	Fe	0.66756 0.33244 0.83244 1.21600
Fe	Fe	0.57385 0.42615 0.92615 1.21100
Fe	Fe	0.16756 0.16756 0.16756 1.21600
Fe	Fe	0.07385 0.07385 0.07385 1.20800
Fe	Fe	0.33244 0.83244 0.66756 1.21600
Fe	Fe	0.42615 0.92615 0.57385 1.21100
