data_crystal

_cell_length_a 17.78750
_cell_length_b 17.78750
_cell_length_c 32.81150
_cell_angle_alpha 90.00000
_cell_angle_beta  90.00000
_cell_angle_gamma 90.00000

_symmetry_space_group_name_	'P 1'
_symmetry_space_group_name_H-M	'P 1'

loop_
_symmetry_equiv_pos_as_xyz
  x,y,z

loop_
_atom_site_label
_atom_site_type_symbol
_atom_site_fract_x
_atom_site_fract_y
_atom_site_fract_z
_atom_site_charge
O 	O 	0.42646 0.63049 0.21158 -0.44100
O 	O 	0.36300 0.55860 0.16677 -0.46200
C 	C 	0.42200 0.59230 0.17939 0.40400
C 	C 	0.48900 0.58520 0.15314 -0.16300
C 	C 	0.49010 0.53980 0.12031 0.08600
H 	H 	0.44660 0.51350 0.11360 0.00800
C 	C 	0.55220 0.53060 0.09642 -0.14500
H 	H 	0.55100 0.49660 0.07490 0.07700
C 	C 	0.61760 0.57170 0.10406 0.06500
C 	C 	0.61720 0.62220 0.13678 -0.13800
H 	H 	0.65940 0.65120 0.14260 0.08100
C 	C 	0.55400 0.62810 0.16004 0.07700
H 	H 	0.55400 0.66220 0.18150 0.00900
C 	C 	0.68490 0.56440 0.07895 0.05400
C 	C 	0.68290 0.54580 0.03671 -0.09800
H 	H 	0.63710 0.54080 0.02330 0.05900
C 	C 	0.70210 0.45880 0.95940 -0.11100
H 	H 	0.67630 0.42930 0.97820 0.06500
C 	C 	0.70220 0.43780 0.91800 0.05100
H 	H 	0.67730 0.39390 0.91050 0.01700
C 	C 	0.70680 0.54550 0.94550 -0.10200
C 	C 	0.70830 0.52580 0.90370 0.04000
H 	H 	0.68220 0.58960 0.95290 0.05900
H 	H 	0.68200 0.55450 0.88470 -0.00400
O 	O 	0.07354 0.86951 0.21158 -0.44100
O 	O 	0.13700 0.94140 0.16677 -0.46200
C 	C 	0.07800 0.90770 0.17939 0.40400
C 	C 	0.01100 0.91480 0.15314 -0.16300
C 	C 	0.00990 0.96020 0.12031 0.08500
H 	H 	0.05340 0.98650 0.11360 0.01000
C 	C 	0.94780 0.96940 0.09642 -0.14200
H 	H 	0.94900 0.00340 0.07490 0.07600
C 	C 	0.88240 0.92830 0.10406 0.06500
C 	C 	0.88280 0.87780 0.13678 -0.13600
H 	H 	0.84060 0.84880 0.14260 0.08200
C 	C 	0.94600 0.87190 0.16004 0.07800
H 	H 	0.94600 0.83780 0.18150 0.01000
C 	C 	0.81510 0.93560 0.07895 0.05500
C 	C 	0.81710 0.95420 0.03671 -0.09800
H 	H 	0.86290 0.95920 0.02330 0.06100
C 	C 	0.79790 0.04120 0.95940 -0.10900
H 	H 	0.82370 0.07070 0.97820 0.06600
C 	C 	0.79780 0.06220 0.91800 0.05200
H 	H 	0.82270 0.10610 0.91050 0.01800
C 	C 	0.79320 0.95450 0.94550 -0.10100
C 	C 	0.79170 0.97420 0.90370 0.04000
H 	H 	0.81780 0.91040 0.95290 0.06000
H 	H 	0.81800 0.94550 0.88470 -0.00300
O 	O 	0.86951 0.42646 0.71158 -0.44000
O 	O 	0.94140 0.36300 0.66677 -0.46100
C 	C 	0.90770 0.42200 0.67939 0.40500
C 	C 	0.91480 0.48900 0.65314 -0.16200
C 	C 	0.96020 0.49010 0.62031 0.08700
H 	H 	0.98650 0.44660 0.61360 0.00900
C 	C 	0.96940 0.55220 0.59642 -0.14400
H 	H 	0.00340 0.55100 0.57490 0.07800
C 	C 	0.92830 0.61760 0.60406 0.06600
C 	C 	0.87780 0.61720 0.63678 -0.13700
H 	H 	0.84880 0.65940 0.64260 0.08200
C 	C 	0.87190 0.55400 0.66004 0.07800
H 	H 	0.83780 0.55400 0.68150 0.01000
C 	C 	0.93560 0.68490 0.57895 0.05500
C 	C 	0.95420 0.68290 0.53671 -0.09700
H 	H 	0.95920 0.63710 0.52330 0.06000
C 	C 	0.04120 0.70210 0.45940 -0.11000
H 	H 	0.07070 0.67630 0.47820 0.06600
C 	C 	0.06220 0.70220 0.41800 0.05200
H 	H 	0.10610 0.67730 0.41050 0.01800
C 	C 	0.95450 0.70680 0.44550 -0.10100
C 	C 	0.97420 0.70830 0.40370 0.04100
H 	H 	0.91040 0.68220 0.45290 0.06000
H 	H 	0.94550 0.68200 0.38470 -0.00300
O 	O 	0.63049 0.07354 0.71158 -0.44000
O 	O 	0.55860 0.13700 0.66677 -0.46100
C 	C 	0.59230 0.07800 0.67939 0.40500
C 	C 	0.58520 0.01100 0.65314 -0.16200
C 	C 	0.53980 0.00990 0.62031 0.08700
H 	H 	0.51350 0.05340 0.61360 0.00900
C 	C 	0.53060 0.94780 0.59642 -0.14500
H 	H 	0.49660 0.94900 0.57490 0.07800
C 	C 	0.57170 0.88240 0.60406 0.06600
C 	C 	0.62220 0.88280 0.63678 -0.13700
H 	H 	0.65120 0.84060 0.64260 0.08200
C 	C 	0.62810 0.94600 0.66004 0.07800
H 	H 	0.66220 0.94600 0.68150 0.01000
C 	C 	0.56440 0.81510 0.57895 0.05500
C 	C 	0.54580 0.81710 0.53671 -0.09700
H 	H 	0.54080 0.86290 0.52330 0.06000
C 	C 	0.45880 0.79790 0.45940 -0.11000
H 	H 	0.42930 0.82370 0.47820 0.06600
C 	C 	0.43780 0.79780 0.41800 0.05200
H 	H 	0.39390 0.82270 0.41050 0.01800
C 	C 	0.54550 0.79320 0.44550 -0.10100
C 	C 	0.52580 0.79170 0.40370 0.04100
H 	H 	0.58960 0.81780 0.45290 0.06000
H 	H 	0.55450 0.81800 0.38470 -0.00300
O 	O 	0.57354 0.13049 0.78842 -0.44000
O 	O 	0.63700 0.05860 0.83323 -0.46100
C 	C 	0.57800 0.09230 0.82061 0.40500
C 	C 	0.51100 0.08520 0.84686 -0.16200
C 	C 	0.50990 0.03980 0.87969 0.08600
H 	H 	0.55340 0.01350 0.88640 0.00900
C 	C 	0.44780 0.03060 0.90358 -0.14300
H 	H 	0.44900 0.99660 0.92510 0.07700
C 	C 	0.38240 0.07170 0.89594 0.06500
C 	C 	0.38280 0.12220 0.86322 -0.13600
H 	H 	0.34060 0.15120 0.85740 0.08200
C 	C 	0.44600 0.12810 0.83996 0.07800
H 	H 	0.44600 0.16220 0.81850 0.01000
C 	C 	0.31510 0.06440 0.92105 0.05500
C 	C 	0.31710 0.04580 0.96329 -0.09800
H 	H 	0.36290 0.04080 0.97670 0.06100
C 	C 	0.29790 0.95880 0.04060 -0.10900
H 	H 	0.32370 0.92930 0.02180 0.06600
C 	C 	0.29780 0.93780 0.08200 0.05200
H 	H 	0.32270 0.89390 0.08950 0.01800
C 	C 	0.29320 0.04550 0.05450 -0.10100
C 	C 	0.29170 0.02580 0.09630 0.04000
H 	H 	0.31780 0.08960 0.04710 0.06000
H 	H 	0.31800 0.05450 0.11530 -0.00300
O 	O 	0.92646 0.36951 0.78842 -0.44000
O 	O 	0.86300 0.44140 0.83323 -0.46100
C 	C 	0.92200 0.40770 0.82061 0.40500
C 	C 	0.98900 0.41480 0.84686 -0.16200
C 	C 	0.99010 0.46020 0.87969 0.08700
H 	H 	0.94660 0.48650 0.88640 0.00900
C 	C 	0.05220 0.46940 0.90358 -0.14500
H 	H 	0.05100 0.50340 0.92510 0.07800
C 	C 	0.11760 0.42830 0.89594 0.06600
C 	C 	0.11720 0.37780 0.86322 -0.13700
H 	H 	0.15940 0.34880 0.85740 0.08200
C 	C 	0.05400 0.37190 0.83996 0.07800
H 	H 	0.05400 0.33780 0.81850 0.01000
C 	C 	0.18490 0.43560 0.92105 0.05500
C 	C 	0.18290 0.45420 0.96329 -0.09700
H 	H 	0.13710 0.45920 0.97670 0.06000
C 	C 	0.20210 0.54120 0.04060 -0.11000
H 	H 	0.17630 0.57070 0.02180 0.06600
C 	C 	0.20220 0.56220 0.08200 0.05200
H 	H 	0.17730 0.60610 0.08950 0.01800
C 	C 	0.20680 0.45450 0.05450 -0.10100
C 	C 	0.20830 0.47420 0.09630 0.04100
H 	H 	0.18220 0.41040 0.04710 0.06000
H 	H 	0.18200 0.44550 0.11530 -0.00300
O 	O 	0.13049 0.92646 0.28842 -0.44000
O 	O 	0.05860 0.86300 0.33323 -0.46100
C 	C 	0.09230 0.92200 0.32061 0.40500
C 	C 	0.08520 0.98900 0.34686 -0.16200
C 	C 	0.03980 0.99010 0.37969 0.08600
H 	H 	0.01350 0.94660 0.38640 0.00900
C 	C 	0.03060 0.05220 0.40358 -0.14300
H 	H 	0.99660 0.05100 0.42510 0.07700
C 	C 	0.07170 0.11760 0.39594 0.06600
C 	C 	0.12220 0.11720 0.36322 -0.13600
H 	H 	0.15120 0.15940 0.35740 0.08200
C 	C 	0.12810 0.05400 0.33996 0.07800
H 	H 	0.16220 0.05400 0.31850 0.01000
C 	C 	0.06440 0.18490 0.42105 0.05500
C 	C 	0.04580 0.18290 0.46329 -0.09700
H 	H 	0.04080 0.13710 0.47670 0.06000
C 	C 	0.95880 0.20210 0.54060 -0.11000
H 	H 	0.92930 0.17630 0.52180 0.06600
C 	C 	0.93780 0.20220 0.58200 0.05200
H 	H 	0.89390 0.17730 0.58950 0.01800
C 	C 	0.04550 0.20680 0.55450 -0.10100
C 	C 	0.02580 0.20830 0.59630 0.04100
H 	H 	0.08960 0.18220 0.54710 0.06000
H 	H 	0.05450 0.18200 0.61530 -0.00300
O 	O 	0.36951 0.57354 0.28842 -0.44000
O 	O 	0.44140 0.63700 0.33323 -0.46100
C 	C 	0.40770 0.57800 0.32061 0.40500
C 	C 	0.41480 0.51100 0.34686 -0.16200
C 	C 	0.46020 0.50990 0.37969 0.08700
H 	H 	0.48650 0.55340 0.38640 0.00900
C 	C 	0.46940 0.44780 0.40358 -0.14400
H 	H 	0.50340 0.44900 0.42510 0.07800
C 	C 	0.42830 0.38240 0.39594 0.06600
C 	C 	0.37780 0.38280 0.36322 -0.13700
H 	H 	0.34880 0.34060 0.35740 0.08200
C 	C 	0.37190 0.44600 0.33996 0.07800
H 	H 	0.33780 0.44600 0.31850 0.01000
C 	C 	0.43560 0.31510 0.42105 0.05500
C 	C 	0.45420 0.31710 0.46329 -0.09700
H 	H 	0.45920 0.36290 0.47670 0.06000
C 	C 	0.54120 0.29790 0.54060 -0.11000
H 	H 	0.57070 0.32370 0.52180 0.06600
C 	C 	0.56220 0.29780 0.58200 0.05200
H 	H 	0.60610 0.32270 0.58950 0.01800
C 	C 	0.45450 0.29320 0.55450 -0.10100
C 	C 	0.47420 0.29170 0.59630 0.04100
H 	H 	0.41040 0.31780 0.54710 0.06000
H 	H 	0.44550 0.31800 0.61530 -0.00300
O 	O 	0.57354 0.36951 0.78842 -0.44000
O 	O 	0.63700 0.44140 0.83323 -0.46100
C 	C 	0.57800 0.40770 0.82061 0.40500
C 	C 	0.51100 0.41480 0.84686 -0.16200
C 	C 	0.50990 0.46020 0.87969 0.08700
H 	H 	0.55340 0.48650 0.88640 0.00900
C 	C 	0.44780 0.46940 0.90358 -0.14400
H 	H 	0.44900 0.50340 0.92510 0.07800
C 	C 	0.38240 0.42830 0.89594 0.06600
C 	C 	0.38280 0.37780 0.86322 -0.13700
H 	H 	0.34060 0.34880 0.85740 0.08200
C 	C 	0.44600 0.37190 0.83996 0.07800
H 	H 	0.44600 0.33780 0.81850 0.01000
C 	C 	0.31510 0.43560 0.92105 0.05500
C 	C 	0.31710 0.45420 0.96329 -0.09700
H 	H 	0.36290 0.45920 0.97670 0.06000
C 	C 	0.29790 0.54120 0.04060 -0.11000
H 	H 	0.32370 0.57070 0.02180 0.06600
C 	C 	0.29780 0.56220 0.08200 0.05200
H 	H 	0.32270 0.60610 0.08950 0.01800
C 	C 	0.29320 0.45450 0.05450 -0.10100
C 	C 	0.29170 0.47420 0.09630 0.04100
H 	H 	0.31780 0.41040 0.04710 0.06000
H 	H 	0.31800 0.44550 0.11530 -0.00300
O 	O 	0.92646 0.13049 0.78842 -0.44000
O 	O 	0.86300 0.05860 0.83323 -0.46100
C 	C 	0.92200 0.09230 0.82061 0.40500
C 	C 	0.98900 0.08520 0.84686 -0.16200
C 	C 	0.99010 0.03980 0.87969 0.08500
H 	H 	0.94660 0.01350 0.88640 0.01000
C 	C 	0.05220 0.03060 0.90358 -0.14200
H 	H 	0.05100 0.99660 0.92510 0.07600
C 	C 	0.11760 0.07170 0.89594 0.06500
C 	C 	0.11720 0.12220 0.86322 -0.13600
H 	H 	0.15940 0.15120 0.85740 0.08200
C 	C 	0.05400 0.12810 0.83996 0.07800
H 	H 	0.05400 0.16220 0.81850 0.01000
C 	C 	0.18490 0.06440 0.92105 0.05500
C 	C 	0.18290 0.04580 0.96329 -0.09800
H 	H 	0.13710 0.04080 0.97670 0.06100
C 	C 	0.20210 0.95880 0.04060 -0.10900
H 	H 	0.17630 0.92930 0.02180 0.06600
C 	C 	0.20220 0.93780 0.08200 0.05200
H 	H 	0.17730 0.89390 0.08950 0.01800
C 	C 	0.20680 0.04550 0.05450 -0.10100
C 	C 	0.20830 0.02580 0.09630 0.04000
H 	H 	0.18220 0.08960 0.04710 0.06000
H 	H 	0.18200 0.05450 0.11530 -0.00300
O 	O 	0.13049 0.57354 0.28842 -0.44000
O 	O 	0.05860 0.63700 0.33323 -0.46100
C 	C 	0.09230 0.57800 0.32061 0.40500
C 	C 	0.08520 0.51100 0.34686 -0.16200
C 	C 	0.03980 0.50990 0.37969 0.08700
H 	H 	0.01350 0.55340 0.38640 0.00900
C 	C 	0.03060 0.44780 0.40358 -0.14400
H 	H 	0.99660 0.44900 0.42510 0.07800
C 	C 	0.07170 0.38240 0.39594 0.06600
C 	C 	0.12220 0.38280 0.36322 -0.13700
H 	H 	0.15120 0.34060 0.35740 0.08200
C 	C 	0.12810 0.44600 0.33996 0.07800
H 	H 	0.16220 0.44600 0.31850 0.01000
C 	C 	0.06440 0.31510 0.42105 0.05500
C 	C 	0.04580 0.31710 0.46329 -0.09700
H 	H 	0.04080 0.36290 0.47670 0.06000
C 	C 	0.95880 0.29790 0.54060 -0.11000
H 	H 	0.92930 0.32370 0.52180 0.06600
C 	C 	0.93780 0.29780 0.58200 0.05200
H 	H 	0.89390 0.32270 0.58950 0.01800
C 	C 	0.04550 0.29320 0.55450 -0.10100
C 	C 	0.02580 0.29170 0.59630 0.04100
H 	H 	0.08960 0.31780 0.54710 0.06000
H 	H 	0.05450 0.31800 0.61530 -0.00300
O 	O 	0.36951 0.92646 0.28842 -0.44000
O 	O 	0.44140 0.86300 0.33323 -0.46100
C 	C 	0.40770 0.92200 0.32061 0.40500
C 	C 	0.41480 0.98900 0.34686 -0.16200
C 	C 	0.46020 0.99010 0.37969 0.08700
H 	H 	0.48650 0.94660 0.38640 0.00900
C 	C 	0.46940 0.05220 0.40358 -0.14500
H 	H 	0.50340 0.05100 0.42510 0.07800
C 	C 	0.42830 0.11760 0.39594 0.06600
C 	C 	0.37780 0.11720 0.36322 -0.13700
H 	H 	0.34880 0.15940 0.35740 0.08200
C 	C 	0.37190 0.05400 0.33996 0.07800
H 	H 	0.33780 0.05400 0.31850 0.01000
C 	C 	0.43560 0.18490 0.42105 0.05500
C 	C 	0.45420 0.18290 0.46329 -0.09700
H 	H 	0.45920 0.13710 0.47670 0.06000
C 	C 	0.54120 0.20210 0.54060 -0.11000
H 	H 	0.57070 0.17630 0.52180 0.06600
C 	C 	0.56220 0.20220 0.58200 0.05200
H 	H 	0.60610 0.17730 0.58950 0.01800
C 	C 	0.45450 0.20680 0.55450 -0.10100
C 	C 	0.47420 0.20830 0.59630 0.04100
H 	H 	0.41040 0.18220 0.54710 0.06000
H 	H 	0.44550 0.18200 0.61530 -0.00300
O 	O 	0.42646 0.86951 0.21158 -0.44000
O 	O 	0.36300 0.94140 0.16677 -0.46100
C 	C 	0.42200 0.90770 0.17939 0.40500
C 	C 	0.48900 0.91480 0.15314 -0.16200
C 	C 	0.49010 0.96020 0.12031 0.08600
H 	H 	0.44660 0.98650 0.11360 0.00900
C 	C 	0.55220 0.96940 0.09642 -0.14300
H 	H 	0.55100 0.00340 0.07490 0.07700
C 	C 	0.61760 0.92830 0.10406 0.06500
C 	C 	0.61720 0.87780 0.13678 -0.13600
H 	H 	0.65940 0.84880 0.14260 0.08200
C 	C 	0.55400 0.87190 0.16004 0.07800
H 	H 	0.55400 0.83780 0.18150 0.01000
C 	C 	0.68490 0.93560 0.07895 0.05500
C 	C 	0.68290 0.95420 0.03671 -0.09800
H 	H 	0.63710 0.95920 0.02330 0.06100
C 	C 	0.70210 0.04120 0.95940 -0.10900
H 	H 	0.67630 0.07070 0.97820 0.06600
C 	C 	0.70220 0.06220 0.91800 0.05200
H 	H 	0.67730 0.10610 0.91050 0.01800
C 	C 	0.70680 0.95450 0.94550 -0.10100
C 	C 	0.70830 0.97420 0.90370 0.04000
H 	H 	0.68220 0.91040 0.95290 0.06000
H 	H 	0.68200 0.94550 0.88470 -0.00300
O 	O 	0.07354 0.63049 0.21158 -0.44000
O 	O 	0.13700 0.55860 0.16677 -0.46100
C 	C 	0.07800 0.59230 0.17939 0.40500
C 	C 	0.01100 0.58520 0.15314 -0.16200
C 	C 	0.00990 0.53980 0.12031 0.08700
H 	H 	0.05340 0.51350 0.11360 0.00900
C 	C 	0.94780 0.53060 0.09642 -0.14500
H 	H 	0.94900 0.49660 0.07490 0.07800
C 	C 	0.88240 0.57170 0.10406 0.06600
C 	C 	0.88280 0.62220 0.13678 -0.13700
H 	H 	0.84060 0.65120 0.14260 0.08200
C 	C 	0.94600 0.62810 0.16004 0.07800
H 	H 	0.94600 0.66220 0.18150 0.01000
C 	C 	0.81510 0.56440 0.07895 0.05500
C 	C 	0.81710 0.54580 0.03671 -0.09700
H 	H 	0.86290 0.54080 0.02330 0.06000
C 	C 	0.79790 0.45880 0.95940 -0.11000
H 	H 	0.82370 0.42930 0.97820 0.06600
C 	C 	0.79780 0.43780 0.91800 0.05200
H 	H 	0.82270 0.39390 0.91050 0.01800
C 	C 	0.79320 0.54550 0.94550 -0.10100
C 	C 	0.79170 0.52580 0.90370 0.04100
H 	H 	0.81780 0.58960 0.95290 0.06000
H 	H 	0.81800 0.55450 0.88470 -0.00300
O 	O 	0.86951 0.07354 0.71158 -0.44000
O 	O 	0.94140 0.13700 0.66677 -0.46100
C 	C 	0.90770 0.07800 0.67939 0.40500
C 	C 	0.91480 0.01100 0.65314 -0.16200
C 	C 	0.96020 0.00990 0.62031 0.08600
H 	H 	0.98650 0.05340 0.61360 0.00900
C 	C 	0.96940 0.94780 0.59642 -0.14300
H 	H 	0.00340 0.94900 0.57490 0.07700
C 	C 	0.92830 0.88240 0.60406 0.06600
C 	C 	0.87780 0.88280 0.63678 -0.13600
H 	H 	0.84880 0.84060 0.64260 0.08200
C 	C 	0.87190 0.94600 0.66004 0.07800
H 	H 	0.83780 0.94600 0.68150 0.01000
C 	C 	0.93560 0.81510 0.57895 0.05500
C 	C 	0.95420 0.81710 0.53671 -0.09700
H 	H 	0.95920 0.86290 0.52330 0.06000
C 	C 	0.04120 0.79790 0.45940 -0.11000
H 	H 	0.07070 0.82370 0.47820 0.06600
C 	C 	0.06220 0.79780 0.41800 0.05200
H 	H 	0.10610 0.82270 0.41050 0.01800
C 	C 	0.95450 0.79320 0.44550 -0.10100
C 	C 	0.97420 0.79170 0.40370 0.04100
H 	H 	0.91040 0.81780 0.45290 0.06000
H 	H 	0.94550 0.81800 0.38470 -0.00300
O 	O 	0.63049 0.42646 0.71158 -0.44000
O 	O 	0.55860 0.36300 0.66677 -0.46100
C 	C 	0.59230 0.42200 0.67939 0.40500
C 	C 	0.58520 0.48900 0.65314 -0.16200
C 	C 	0.53980 0.49010 0.62031 0.08700
H 	H 	0.51350 0.44660 0.61360 0.00900
C 	C 	0.53060 0.55220 0.59642 -0.14400
H 	H 	0.49660 0.55100 0.57490 0.07800
C 	C 	0.57170 0.61760 0.60406 0.06600
C 	C 	0.62220 0.61720 0.63678 -0.13700
H 	H 	0.65120 0.65940 0.64260 0.08200
C 	C 	0.62810 0.55400 0.66004 0.07800
H 	H 	0.66220 0.55400 0.68150 0.01000
C 	C 	0.56440 0.68490 0.57895 0.05500
C 	C 	0.54580 0.68290 0.53671 -0.09700
H 	H 	0.54080 0.63710 0.52330 0.06000
C 	C 	0.45880 0.70210 0.45940 -0.11000
H 	H 	0.42930 0.67630 0.47820 0.06600
C 	C 	0.43780 0.70220 0.41800 0.05200
H 	H 	0.39390 0.67730 0.41050 0.01800
C 	C 	0.54550 0.70680 0.44550 -0.10100
C 	C 	0.52580 0.70830 0.40370 0.04100
H 	H 	0.58960 0.68220 0.45290 0.06000
H 	H 	0.55450 0.68200 0.38470 -0.00300
S 	S 	0.25000 0.75000 0.17836 0.73600
S 	S 	0.75000 0.25000 0.67836 0.73600
S 	S 	0.75000 0.25000 0.82164 0.73600
S 	S 	0.25000 0.75000 0.32164 0.73600
Co	Co	0.34092 0.65908 0.25000 1.18400
Co	Co	0.15908 0.84092 0.25000 1.18400
Co	Co	0.84092 0.34092 0.75000 1.18400
Co	Co	0.65908 0.15908 0.75000 1.18400
Co	Co	0.65908 0.34092 0.75000 1.18400
Co	Co	0.84092 0.15908 0.75000 1.18400
Co	Co	0.15908 0.65908 0.25000 1.18400
Co	Co	0.34092 0.84092 0.25000 1.18400
Co	Co	0.25000 0.56464 0.17123 1.16400
O 	O 	0.25000 0.59830 0.22933 -0.82600
H 	H 	0.25000 0.55950 0.24280 0.29500
O 	O 	0.25000 0.68250 0.15293 -0.42900
Co	Co	0.25000 0.93536 0.17123 1.16400
O 	O 	0.25000 0.90170 0.22933 -0.82600
H 	H 	0.25000 0.94050 0.24280 0.29500
O 	O 	0.25000 0.81750 0.15293 -0.42900
Co	Co	0.93536 0.25000 0.67123 1.16400
O 	O 	0.90170 0.25000 0.72933 -0.82600
H 	H 	0.94050 0.25000 0.74280 0.29500
O 	O 	0.81750 0.25000 0.65293 -0.42900
Co	Co	0.56464 0.25000 0.67123 1.16400
O 	O 	0.59830 0.25000 0.72933 -0.82600
H 	H 	0.55950 0.25000 0.74280 0.29500
O 	O 	0.68250 0.25000 0.65293 -0.42900
Co	Co	0.75000 0.06464 0.82877 1.16400
O 	O 	0.75000 0.09830 0.77067 -0.82600
H 	H 	0.75000 0.05950 0.75720 0.29500
O 	O 	0.75000 0.18250 0.84707 -0.42900
Co	Co	0.75000 0.43536 0.82877 1.16400
O 	O 	0.75000 0.40170 0.77067 -0.82600
H 	H 	0.75000 0.44050 0.75720 0.29500
O 	O 	0.75000 0.31750 0.84707 -0.42900
Co	Co	0.06464 0.75000 0.32877 1.16400
O 	O 	0.09830 0.75000 0.27067 -0.82600
H 	H 	0.05950 0.75000 0.25720 0.29500
O 	O 	0.18250 0.75000 0.34707 -0.42900
Co	Co	0.43536 0.75000 0.32877 1.16400
O 	O 	0.40170 0.75000 0.27067 -0.82600
H 	H 	0.44050 0.75000 0.25720 0.29500
O 	O 	0.31750 0.75000 0.34707 -0.42900
O 	O 	0.31690 0.75000 0.20580 -0.54600
O 	O 	0.18310 0.75000 0.20580 -0.54600
O 	O 	0.75000 0.31690 0.70580 -0.54600
O 	O 	0.75000 0.18310 0.70580 -0.54600
O 	O 	0.68310 0.25000 0.79420 -0.54600
O 	O 	0.81690 0.25000 0.79420 -0.54600
O 	O 	0.25000 0.81690 0.29420 -0.54600
O 	O 	0.25000 0.68310 0.29420 -0.54600
C 	C 	0.75000 0.53540 0.01570 0.00400
C 	C 	0.75000 0.51260 0.97280 0.12600
N 	N 	0.75000 0.46860 0.89145 -0.23500
N 	N 	0.75000 0.57340 0.09882 -0.12400
C 	C 	0.75000 0.96460 0.01570 0.00500
C 	C 	0.75000 0.98740 0.97280 0.12400
N 	N 	0.75000 0.03140 0.89145 -0.23500
N 	N 	0.75000 0.92660 0.09882 -0.12500
C 	C 	0.96460 0.75000 0.51570 0.00400
C 	C 	0.98740 0.75000 0.47280 0.12600
N 	N 	0.03140 0.75000 0.39145 -0.23500
N 	N 	0.92660 0.75000 0.59882 -0.12400
C 	C 	0.53540 0.75000 0.51570 0.00400
C 	C 	0.51260 0.75000 0.47280 0.12600
N 	N 	0.46860 0.75000 0.39145 -0.23500
N 	N 	0.57340 0.75000 0.59882 -0.12400
C 	C 	0.25000 0.03540 0.98430 0.00500
C 	C 	0.25000 0.01260 0.02720 0.12400
N 	N 	0.25000 0.96860 0.10855 -0.23500
N 	N 	0.25000 0.07340 0.90118 -0.12500
C 	C 	0.25000 0.46460 0.98430 0.00400
C 	C 	0.25000 0.48740 0.02720 0.12600
N 	N 	0.25000 0.53140 0.10855 -0.23500
N 	N 	0.25000 0.42660 0.90118 -0.12400
C 	C 	0.03540 0.25000 0.48430 0.00400
C 	C 	0.01260 0.25000 0.52720 0.12600
N 	N 	0.96860 0.25000 0.60855 -0.23500
N 	N 	0.07340 0.25000 0.40118 -0.12400
C 	C 	0.46460 0.25000 0.48430 0.00400
C 	C 	0.48740 0.25000 0.52720 0.12600
N 	N 	0.53140 0.25000 0.60855 -0.23500
N 	N 	0.42660 0.25000 0.40118 -0.12400
