data_crystal

_cell_length_a 20.31900
_cell_length_b 20.31900
_cell_length_c 18.23390
_cell_angle_alpha 90.00000
_cell_angle_beta  90.00000
_cell_angle_gamma 90.00000

_symmetry_space_group_name_	'P 1'
_symmetry_space_group_name_H-M	'P 1'

loop_
_symmetry_equiv_pos_as_xyz
  x,y,z

loop_
_atom_site_label
_atom_site_type_symbol
_atom_site_fract_x
_atom_site_fract_y
_atom_site_fract_z
_atom_site_charge
Mo	Mo	0.51343 0.00161 0.79039 1.16800
Mo	Mo	0.62981 0.98657 0.85007 1.19800
Mo	Mo	0.67263 0.07359 0.00559 1.16600
Mo	Mo	0.58778 0.15487 0.06254 1.17900
Mo	Mo	0.43035 0.17642 0.98691 1.19600
Mo	Mo	0.40269 0.11229 0.86789 1.18300
Mn	Mn	0.50553 0.28786 0.84320 1.30800
P 	P 	0.56410 0.14373 0.87755 0.50000
P 	P 	0.41947 0.10167 0.68433 0.52300
P 	P 	0.77926 0.05377 0.86932 0.49400
P 	P 	0.52723 0.30341 0.01963 0.48600
C 	C 	0.36390 0.82110 0.35390 -0.00200
H 	H 	0.35720 0.84290 0.40060 0.06300
H 	H 	0.37010 0.77450 0.36350 0.05800
C 	C 	0.30370 0.83000 0.30750 -0.01000
H 	H 	0.31120 0.80900 0.26050 0.05600
H 	H 	0.26720 0.80750 0.33100 0.04800
C 	C 	0.21300 0.74940 0.12850 -0.03100
H 	H 	0.19790 0.70410 0.12800 0.07600
H 	H 	0.19690 0.76990 0.17310 0.06900
C 	C 	0.96450 0.99860 0.98740 0.34000
H 	H 	0.93600 0.01380 0.02650 -0.06000
H 	H 	0.95290 0.95340 0.97620 0.00700
N 	N 	0.42060 0.84600 0.32120 -0.29500
H 	H 	0.41840 0.86420 0.27870 0.19500
H 	H 	0.45770 0.84330 0.34360 0.21000
N 	N 	0.28500 0.89800 0.29480 -0.29900
H 	H 	0.30800 0.92940 0.31350 0.20800
H 	H 	0.25090 0.90690 0.26870 0.21500
N 	N 	0.18560 0.78460 0.06410 -0.27500
H 	H 	0.21150 0.80240 0.03260 0.17900
H 	H 	0.14360 0.78710 0.05830 0.18000
N 	N 	0.95440 0.04000 0.92140 -0.35200
H 	H 	0.98690 0.06150 0.90290 0.20200
H 	H 	0.91610 0.04260 0.90160 0.22300
O 	O 	0.54069 0.98009 0.89174 -0.54800
O 	O 	0.43459 0.08147 0.96429 -0.54700
O 	O 	0.64328 0.90867 0.82520 -0.31600
O 	O 	0.80802 0.10541 0.81914 -0.21000
O 	O 	0.62198 0.09714 0.88979 -0.40900
O 	O 	0.58060 0.06113 0.03506 -0.59400
O 	O 	0.60119 0.03012 0.75857 -0.43000
O 	O 	0.66347 0.98551 0.95381 -0.35500
O 	O 	0.42600 0.20468 0.88422 -0.51300
O 	O 	0.35380 0.18536 0.02084 -0.33500
O 	O 	0.50380 0.92648 0.75376 -0.31900
O 	O 	0.47553 0.05136 0.70049 -0.36300
O 	O 	0.71289 0.04693 0.08023 -0.36100
O 	O 	0.60800 0.15041 0.15151 -0.34800
O 	O 	0.67152 0.16908 0.01404 -0.45800
O 	O 	0.75160 0.08928 0.93943 -0.33500
O 	O 	0.55330 0.32016 0.94272 -0.37500
O 	O 	0.50876 0.10310 0.83976 -0.45800
O 	O 	0.41730 0.01369 0.83358 -0.36600
O 	O 	0.39865 0.13457 0.75757 -0.32800
O 	O 	0.57831 0.20373 0.83130 -0.36900
O 	O 	0.44780 0.15537 0.63549 -0.19300
O 	O 	0.36094 0.06850 0.64921 -0.39200
O 	O 	0.46059 0.26865 0.01152 -0.37800
O 	O 	0.82923 0.00195 0.89460 -0.20200
O 	O 	0.53884 0.16642 0.95390 -0.45800
O 	O 	0.48351 0.15292 0.08061 -0.36100
O 	O 	0.57720 0.25541 0.05781 -0.35200
O 	O 	0.52060 0.36389 0.06630 -0.21600
O 	O 	0.72244 0.01953 0.82750 -0.34400
O 	O 	0.32083 0.10903 0.87900 -0.31600
O 	O 	0.57354 0.35241 0.78435 -0.23700
O 	O 	0.47260 0.26059 0.73281 -0.22400
Mo	Mo	0.98657 0.49839 0.79039 1.19100
Mo	Mo	0.87019 0.51343 0.85007 1.18600
Mo	Mo	0.82737 0.42641 0.00559 1.17100
Mo	Mo	0.91222 0.34513 0.06254 1.18200
Mo	Mo	0.06965 0.32358 0.98691 1.19000
Mo	Mo	0.09731 0.38771 0.86789 1.18000
Mn	Mn	0.99447 0.21214 0.84320 1.31900
P 	P 	0.93590 0.35627 0.87755 0.50000
P 	P 	0.08053 0.39833 0.68433 0.52200
P 	P 	0.72074 0.44623 0.86932 0.49500
P 	P 	0.97277 0.19659 0.01963 0.49900
C 	C 	0.13610 0.67890 0.35390 -0.00500
H 	H 	0.14280 0.65710 0.40060 0.06400
H 	H 	0.12990 0.72550 0.36350 0.05800
C 	C 	0.19630 0.67000 0.30750 -0.00900
H 	H 	0.18880 0.69100 0.26050 0.05500
H 	H 	0.23280 0.69250 0.33100 0.04800
C 	C 	0.28700 0.75060 0.12850 -0.03100
H 	H 	0.30210 0.79590 0.12800 0.07600
H 	H 	0.30310 0.73010 0.17310 0.06900
C 	C 	0.53550 0.50140 0.98740 0.10700
H 	H 	0.56400 0.48620 0.02650 0.02600
H 	H 	0.54710 0.54660 0.97620 0.05800
N 	N 	0.07940 0.65400 0.32120 -0.29200
H 	H 	0.08160 0.63580 0.27870 0.19000
H 	H 	0.04230 0.65670 0.34360 0.19900
N 	N 	0.21500 0.60200 0.29480 -0.29800
H 	H 	0.19200 0.57060 0.31350 0.20500
H 	H 	0.24910 0.59310 0.26870 0.21200
N 	N 	0.31440 0.71540 0.06410 -0.27500
H 	H 	0.28850 0.69760 0.03260 0.17800
H 	H 	0.35640 0.71290 0.05830 0.17900
N 	N 	0.54560 0.46000 0.92140 -0.30300
H 	H 	0.51310 0.43850 0.90290 0.18300
H 	H 	0.58390 0.45740 0.90160 0.21200
O 	O 	0.95931 0.51991 0.89174 -0.55200
O 	O 	0.06541 0.41853 0.96429 -0.55400
O 	O 	0.85672 0.59133 0.82520 -0.32000
O 	O 	0.69198 0.39459 0.81914 -0.20800
O 	O 	0.87802 0.40286 0.88979 -0.40300
O 	O 	0.91940 0.43887 0.03506 -0.57700
O 	O 	0.89881 0.46988 0.75857 -0.41700
O 	O 	0.83653 0.51449 0.95381 -0.37000
O 	O 	0.07400 0.29532 0.88422 -0.52400
O 	O 	0.14620 0.31464 0.02084 -0.33300
O 	O 	0.99620 0.57352 0.75376 -0.31200
O 	O 	0.02447 0.44864 0.70049 -0.37600
O 	O 	0.78711 0.45307 0.08023 -0.35000
O 	O 	0.89200 0.34959 0.15151 -0.34100
O 	O 	0.82848 0.33092 0.01404 -0.45800
O 	O 	0.74840 0.41072 0.93943 -0.33300
O 	O 	0.94670 0.17984 0.94272 -0.37200
O 	O 	0.99124 0.39690 0.83976 -0.43900
O 	O 	0.08270 0.48631 0.83358 -0.36700
O 	O 	0.10135 0.36543 0.75757 -0.33200
O 	O 	0.92169 0.29627 0.83130 -0.36400
O 	O 	0.05220 0.34463 0.63549 -0.20600
O 	O 	0.13906 0.43150 0.64921 -0.38500
O 	O 	0.03941 0.23135 0.01152 -0.39400
O 	O 	0.67077 0.49805 0.89460 -0.19100
O 	O 	0.96116 0.33358 0.95390 -0.44400
O 	O 	0.01649 0.34708 0.08061 -0.37200
O 	O 	0.92280 0.24459 0.05781 -0.35100
O 	O 	0.97940 0.13611 0.06630 -0.21500
O 	O 	0.77756 0.48047 0.82750 -0.33200
O 	O 	0.17917 0.39097 0.87900 -0.31300
O 	O 	0.92646 0.14759 0.78435 -0.23100
O 	O 	0.02740 0.23941 0.73281 -0.24000
Mo	Mo	0.99839 0.01343 0.29039 1.18300
Mo	Mo	0.01343 0.12981 0.35007 1.17600
Mo	Mo	0.92641 0.17263 0.50559 1.18800
Mo	Mo	0.84513 0.08778 0.56254 1.17800
Mo	Mo	0.82358 0.93035 0.48691 1.18400
Mo	Mo	0.88771 0.90269 0.36789 1.18800
Mn	Mn	0.71214 0.00553 0.34320 1.29700
P 	P 	0.85627 0.06410 0.37755 0.50100
P 	P 	0.89833 0.91947 0.18433 0.52400
P 	P 	0.94623 0.27926 0.36932 0.49700
P 	P 	0.69659 0.02723 0.51963 0.48700
C 	C 	0.17890 0.86390 0.85390 -0.00200
H 	H 	0.15710 0.85720 0.90060 0.06600
H 	H 	0.22550 0.87010 0.86350 0.06000
C 	C 	0.17000 0.80370 0.80750 -0.01100
H 	H 	0.19100 0.81120 0.76050 0.05600
H 	H 	0.19250 0.76720 0.83100 0.05000
C 	C 	0.25060 0.71300 0.62850 -0.02900
H 	H 	0.29590 0.69790 0.62800 0.07700
H 	H 	0.23010 0.69690 0.67310 0.06800
C 	C 	0.00140 0.46450 0.48740 -0.23500
H 	H 	0.98620 0.43600 0.52650 0.16200
H 	H 	0.04660 0.45290 0.47620 0.14400
N 	N 	0.15400 0.92060 0.82120 -0.29700
H 	H 	0.13580 0.91840 0.77870 0.19800
H 	H 	0.15670 0.95770 0.84360 0.21700
N 	N 	0.10200 0.78500 0.79480 -0.29600
H 	H 	0.07060 0.80800 0.81350 0.20100
H 	H 	0.09310 0.75090 0.76870 0.21000
N 	N 	0.21540 0.68560 0.56410 -0.27700
H 	H 	0.19760 0.71150 0.53260 0.18700
H 	H 	0.21290 0.64360 0.55830 0.18500
N 	N 	0.96000 0.45440 0.42140 -0.23700
H 	H 	0.93850 0.48690 0.40290 0.17000
H 	H 	0.95740 0.41610 0.40160 0.19700
O 	O 	0.01991 0.04069 0.39174 -0.58700
O 	O 	0.91853 0.93459 0.46429 -0.54000
O 	O 	0.09133 0.14328 0.32520 -0.33300
O 	O 	0.89459 0.30802 0.31914 -0.20700
O 	O 	0.90286 0.12198 0.38979 -0.40500
O 	O 	0.93887 0.08060 0.53506 -0.57000
O 	O 	0.96988 0.10119 0.25857 -0.41300
O 	O 	0.01449 0.16347 0.45381 -0.40200
O 	O 	0.79532 0.92600 0.38422 -0.50900
O 	O 	0.81464 0.85380 0.52084 -0.31500
O 	O 	0.07352 0.00380 0.25376 -0.35600
O 	O 	0.94864 0.97553 0.20049 -0.32600
O 	O 	0.95307 0.21289 0.58023 -0.33300
O 	O 	0.84959 0.10800 0.65151 -0.35000
O 	O 	0.83092 0.17152 0.51404 -0.44200
O 	O 	0.91072 0.25160 0.43943 -0.34200
O 	O 	0.67984 0.05330 0.44272 -0.39400
O 	O 	0.89690 0.00876 0.33976 -0.47100
O 	O 	0.98631 0.91730 0.33358 -0.32900
O 	O 	0.86543 0.89865 0.25757 -0.32500
O 	O 	0.79627 0.07831 0.33130 -0.37400
O 	O 	0.84463 0.94780 0.13549 -0.17900
O 	O 	0.93150 0.86094 0.14921 -0.37100
O 	O 	0.73135 0.96059 0.51152 -0.34500
O 	O 	0.99805 0.32923 0.39460 -0.18200
O 	O 	0.83358 0.03884 0.45390 -0.48400
O 	O 	0.84708 0.98351 0.58061 -0.33500
O 	O 	0.74459 0.07720 0.55781 -0.35000
O 	O 	0.63611 0.02060 0.56630 -0.22000
O 	O 	0.98047 0.22244 0.32750 -0.32100
O 	O 	0.89097 0.82083 0.37900 -0.31600
O 	O 	0.64759 0.07354 0.28435 -0.24500
O 	O 	0.73941 0.97260 0.23281 -0.20900
Mo	Mo	0.50161 0.48657 0.29039 1.18100
Mo	Mo	0.48657 0.37019 0.35007 1.18600
Mo	Mo	0.57359 0.32737 0.50559 1.18400
Mo	Mo	0.65487 0.41222 0.56254 1.18200
Mo	Mo	0.67642 0.56965 0.48691 1.18000
Mo	Mo	0.61229 0.59731 0.36789 1.18300
Mn	Mn	0.78786 0.49447 0.34320 1.30800
P 	P 	0.64373 0.43590 0.37755 0.50000
P 	P 	0.60167 0.58053 0.18433 0.52300
P 	P 	0.55377 0.22074 0.36932 0.49600
P 	P 	0.80341 0.47277 0.51963 0.50600
C 	C 	0.32110 0.63610 0.85390 -0.00500
H 	H 	0.34290 0.64280 0.90060 0.06700
H 	H 	0.27450 0.62990 0.86350 0.06000
C 	C 	0.33000 0.69630 0.80750 -0.00900
H 	H 	0.30900 0.68880 0.76050 0.05500
H 	H 	0.30750 0.73280 0.83100 0.04900
C 	C 	0.24940 0.78700 0.62850 -0.02900
H 	H 	0.20410 0.80210 0.62800 0.07800
H 	H 	0.26990 0.80310 0.67310 0.06800
C 	C 	0.49860 0.03550 0.48740 -0.07500
H 	H 	0.51380 0.06400 0.52650 0.09200
H 	H 	0.45340 0.04710 0.47620 0.09600
N 	N 	0.34600 0.57940 0.82120 -0.29400
H 	H 	0.36420 0.58160 0.77870 0.19400
H 	H 	0.34330 0.54230 0.84360 0.21000
N 	N 	0.39800 0.71500 0.79480 -0.29800
H 	H 	0.42940 0.69200 0.81350 0.20500
H 	H 	0.40690 0.74910 0.76870 0.21300
N 	N 	0.28460 0.81440 0.56410 -0.27700
H 	H 	0.30240 0.78850 0.53260 0.18700
H 	H 	0.28710 0.85640 0.55830 0.18500
N 	N 	0.54000 0.04560 0.42140 -0.27300
H 	H 	0.56150 0.01310 0.40290 0.16300
H 	H 	0.54260 0.08390 0.40160 0.20000
O 	O 	0.48009 0.45931 0.39174 -0.57000
O 	O 	0.58147 0.56541 0.46429 -0.55800
O 	O 	0.40867 0.35672 0.32520 -0.32600
O 	O 	0.60541 0.19198 0.31914 -0.20900
O 	O 	0.59714 0.37802 0.38979 -0.41000
O 	O 	0.56113 0.41940 0.53506 -0.57600
O 	O 	0.53012 0.39881 0.25857 -0.42000
O 	O 	0.48551 0.33653 0.45381 -0.38700
O 	O 	0.70468 0.57400 0.38422 -0.51800
O 	O 	0.68536 0.64620 0.52084 -0.31600
O 	O 	0.42648 0.49620 0.25376 -0.33100
O 	O 	0.55136 0.52447 0.20049 -0.35500
O 	O 	0.54693 0.28711 0.58023 -0.34400
O 	O 	0.65041 0.39200 0.65151 -0.34700
O 	O 	0.66908 0.32848 0.51404 -0.44200
O 	O 	0.58928 0.24840 0.43943 -0.34500
O 	O 	0.82016 0.44670 0.44272 -0.39100
O 	O 	0.60310 0.49124 0.33976 -0.45700
O 	O 	0.51369 0.58270 0.33358 -0.35600
O 	O 	0.63457 0.60135 0.25757 -0.32900
O 	O 	0.70373 0.42169 0.33130 -0.36900
O 	O 	0.65537 0.55220 0.13549 -0.19600
O 	O 	0.56850 0.63906 0.14921 -0.38500
O 	O 	0.76865 0.53941 0.51152 -0.36400
O 	O 	0.50195 0.17077 0.39460 -0.19700
O 	O 	0.66642 0.46116 0.45390 -0.47200
O 	O 	0.65292 0.51649 0.58061 -0.35200
O 	O 	0.75541 0.42280 0.55781 -0.34800
O 	O 	0.86389 0.47940 0.56630 -0.20900
O 	O 	0.51953 0.27756 0.32750 -0.33300
O 	O 	0.60903 0.67917 0.37900 -0.31900
O 	O 	0.85241 0.42646 0.28435 -0.23400
O 	O 	0.76059 0.52740 0.23281 -0.22500
Mo	Mo	0.48657 0.99839 0.20961 1.19500
Mo	Mo	0.37019 0.01343 0.14993 1.17400
Mo	Mo	0.32737 0.92641 0.99441 1.19800
Mo	Mo	0.41222 0.84513 0.93746 1.18500
Mo	Mo	0.56965 0.82358 0.01309 1.16600
Mo	Mo	0.59731 0.88771 0.13211 1.18300
Mn	Mn	0.49447 0.71214 0.15680 1.30700
P 	P 	0.43590 0.85627 0.12245 0.50100
P 	P 	0.58053 0.89833 0.31567 0.52300
P 	P 	0.22074 0.94623 0.13068 0.49700
P 	P 	0.47277 0.69659 0.98037 0.52400
C 	C 	0.63610 0.17890 0.64610 -0.00200
H 	H 	0.64280 0.15710 0.59940 0.06300
H 	H 	0.62990 0.22550 0.63650 0.05800
C 	C 	0.69630 0.17000 0.69250 -0.01100
H 	H 	0.68880 0.19100 0.73950 0.05600
H 	H 	0.73280 0.19250 0.66900 0.04900
C 	C 	0.78700 0.25060 0.87150 -0.02700
H 	H 	0.80210 0.29590 0.87200 0.07900
H 	H 	0.80310 0.23010 0.82690 0.06700
C 	C 	0.03550 0.00140 0.01260 -0.37400
H 	H 	0.06400 0.98620 0.97350 0.20500
H 	H 	0.04710 0.04660 0.02380 0.17300
N 	N 	0.57940 0.15400 0.67880 -0.29500
H 	H 	0.58160 0.13580 0.72130 0.19500
H 	H 	0.54230 0.15670 0.65640 0.20900
N 	N 	0.71500 0.10200 0.70520 -0.29700
H 	H 	0.69200 0.07060 0.68650 0.20200
H 	H 	0.74910 0.09310 0.73130 0.21000
N 	N 	0.81440 0.21540 0.93590 -0.28000
H 	H 	0.78850 0.19760 0.96740 0.19800
H 	H 	0.85640 0.21290 0.94170 0.19200
N 	N 	0.04560 0.96000 0.07860 -0.21500
H 	H 	0.01310 0.93850 0.09710 0.15000
H 	H 	0.08390 0.95740 0.09840 0.18600
O 	O 	0.45931 0.01991 0.10826 -0.58700
O 	O 	0.56541 0.91853 0.03571 -0.56000
O 	O 	0.35672 0.09133 0.17480 -0.33200
O 	O 	0.19198 0.89459 0.18086 -0.20700
O 	O 	0.37802 0.90286 0.11021 -0.40900
O 	O 	0.41940 0.93887 0.96494 -0.55400
O 	O 	0.39881 0.96988 0.24143 -0.40900
O 	O 	0.33653 0.01449 0.04619 -0.41500
O 	O 	0.57400 0.79532 0.11578 -0.52200
O 	O 	0.64620 0.81464 0.97916 -0.29900
O 	O 	0.49620 0.07352 0.24624 -0.34400
O 	O 	0.52447 0.94864 0.29951 -0.34700
O 	O 	0.28711 0.95307 0.91977 -0.33000
O 	O 	0.39200 0.84959 0.84849 -0.34500
O 	O 	0.32848 0.83092 0.98596 -0.43000
O 	O 	0.24840 0.91072 0.06057 -0.35100
O 	O 	0.44670 0.67984 0.05728 -0.40700
O 	O 	0.49124 0.89690 0.16024 -0.45400
O 	O 	0.58270 0.98631 0.16642 -0.34100
O 	O 	0.60135 0.86543 0.24243 -0.32900
O 	O 	0.42169 0.79627 0.16870 -0.37000
O 	O 	0.55220 0.84463 0.36451 -0.19100
O 	O 	0.63906 0.93150 0.35079 -0.37100
O 	O 	0.53941 0.73135 0.98848 -0.35500
O 	O 	0.17077 0.99805 0.10540 -0.18800
O 	O 	0.46116 0.83358 0.04610 -0.48400
O 	O 	0.51649 0.84708 0.91939 -0.34400
O 	O 	0.42280 0.74459 0.94219 -0.34400
O 	O 	0.47940 0.63611 0.93370 -0.21100
O 	O 	0.27756 0.98047 0.17250 -0.32100
O 	O 	0.67917 0.89097 0.12100 -0.32100
O 	O 	0.42646 0.64759 0.21565 -0.23600
O 	O 	0.52740 0.73941 0.26719 -0.22500
Mo	Mo	0.01343 0.50161 0.20961 1.17300
Mo	Mo	0.12981 0.48657 0.14993 1.18700
Mo	Mo	0.17263 0.57359 0.99441 1.19400
Mo	Mo	0.08778 0.65487 0.93746 1.18000
Mo	Mo	0.93035 0.67642 0.01309 1.16700
Mo	Mo	0.90269 0.61229 0.13211 1.18600
Mn	Mn	0.00553 0.78786 0.15680 1.29600
P 	P 	0.06410 0.64373 0.12245 0.50100
P 	P 	0.91947 0.60167 0.31567 0.52300
P 	P 	0.27926 0.55377 0.13068 0.49700
P 	P 	0.02723 0.80341 0.98037 0.49700
C 	C 	0.86390 0.32110 0.64610 0.00100
H 	H 	0.85720 0.34290 0.59940 0.06200
H 	H 	0.87010 0.27450 0.63650 0.05800
C 	C 	0.80370 0.33000 0.69250 -0.01200
H 	H 	0.81120 0.30900 0.73950 0.05600
H 	H 	0.76720 0.30750 0.66900 0.04900
C 	C 	0.71300 0.24940 0.87150 -0.02700
H 	H 	0.69790 0.20410 0.87200 0.07900
H 	H 	0.69690 0.26990 0.82690 0.06700
C 	C 	0.46450 0.49860 0.01260 -0.16700
H 	H 	0.43600 0.51380 0.97350 0.13900
H 	H 	0.45290 0.45340 0.02380 0.12500
N 	N 	0.92060 0.34600 0.67880 -0.29900
H 	H 	0.91840 0.36420 0.72130 0.19900
H 	H 	0.95770 0.34330 0.65640 0.22000
N 	N 	0.78500 0.39800 0.70520 -0.29800
H 	H 	0.80800 0.42940 0.68650 0.20600
H 	H 	0.75090 0.40690 0.73130 0.21200
N 	N 	0.68560 0.28460 0.93590 -0.28000
H 	H 	0.71150 0.30240 0.96740 0.19700
H 	H 	0.64360 0.28710 0.94170 0.19200
N 	N 	0.45440 0.54000 0.07860 -0.25900
H 	H 	0.48690 0.56150 0.09710 0.16800
H 	H 	0.41610 0.54260 0.09840 0.19600
O 	O 	0.04069 0.48009 0.10826 -0.57800
O 	O 	0.93459 0.58147 0.03571 -0.55900
O 	O 	0.14328 0.40867 0.17480 -0.32800
O 	O 	0.30802 0.60541 0.18086 -0.20900
O 	O 	0.12198 0.59714 0.11021 -0.41500
O 	O 	0.08060 0.56113 0.96494 -0.57200
O 	O 	0.10119 0.53012 0.24143 -0.42300
O 	O 	0.16347 0.48551 0.04619 -0.39800
O 	O 	0.92600 0.70468 0.11578 -0.51400
O 	O 	0.85380 0.68536 0.97916 -0.29800
O 	O 	0.00380 0.42648 0.24624 -0.34600
O 	O 	0.97553 0.55136 0.29951 -0.33600
O 	O 	0.21289 0.54693 0.91977 -0.33900
O 	O 	0.10800 0.65041 0.84849 -0.35300
O 	O 	0.17152 0.66908 0.98596 -0.43000
O 	O 	0.25160 0.58928 0.06057 -0.35500
O 	O 	0.05330 0.82016 0.05728 -0.40500
O 	O 	0.00876 0.60310 0.16024 -0.47100
O 	O 	0.91730 0.51369 0.16642 -0.34600
O 	O 	0.89865 0.63457 0.24243 -0.32500
O 	O 	0.07831 0.70373 0.16870 -0.37500
O 	O 	0.94780 0.65537 0.36451 -0.17700
O 	O 	0.86094 0.56850 0.35079 -0.37900
O 	O 	0.96059 0.76865 0.98848 -0.32700
O 	O 	0.32923 0.50195 0.10540 -0.20000
O 	O 	0.03884 0.66642 0.04610 -0.49500
O 	O 	0.98351 0.65292 0.91939 -0.32500
O 	O 	0.07720 0.75541 0.94219 -0.34700
O 	O 	0.02060 0.86389 0.93370 -0.21700
O 	O 	0.22244 0.51953 0.17250 -0.33400
O 	O 	0.82083 0.60903 0.12100 -0.32600
O 	O 	0.07354 0.85241 0.21565 -0.24300
O 	O 	0.97260 0.76059 0.26719 -0.20800
Mo	Mo	0.00161 0.98657 0.70961 1.17000
Mo	Mo	0.98657 0.87019 0.64993 1.20200
Mo	Mo	0.07359 0.82737 0.49441 1.17800
Mo	Mo	0.15487 0.91222 0.43746 1.18600
Mo	Mo	0.17642 0.06965 0.51309 1.17800
Mo	Mo	0.11229 0.09731 0.63211 1.18000
Mn	Mn	0.28786 0.99447 0.65680 1.31700
P 	P 	0.14373 0.93590 0.62245 0.50000
P 	P 	0.10167 0.08053 0.81567 0.52200
P 	P 	0.05377 0.72074 0.63068 0.49500
P 	P 	0.30341 0.97277 0.48037 0.52300
C 	C 	0.82110 0.13610 0.14610 -0.00200
H 	H 	0.84290 0.14280 0.09940 0.05800
H 	H 	0.77450 0.12990 0.13650 0.05500
C 	C 	0.83000 0.19630 0.19250 -0.01000
H 	H 	0.80900 0.18880 0.23950 0.05500
H 	H 	0.80750 0.23280 0.16900 0.04700
C 	C 	0.74940 0.28700 0.37150 -0.02900
H 	H 	0.70410 0.30210 0.37200 0.07700
H 	H 	0.76990 0.30310 0.32690 0.06800
C 	C 	0.99860 0.53550 0.51260 0.17500
H 	H 	0.01380 0.56400 0.47350 0.00300
H 	H 	0.95340 0.54710 0.52380 0.03800
N 	N 	0.84600 0.07940 0.17880 -0.29200
H 	H 	0.86420 0.08160 0.22130 0.19000
H 	H 	0.84330 0.04230 0.15640 0.19800
N 	N 	0.89800 0.21500 0.20520 -0.29900
H 	H 	0.92940 0.19200 0.18650 0.20800
H 	H 	0.90690 0.24910 0.23130 0.21500
N 	N 	0.78460 0.31440 0.43590 -0.27700
H 	H 	0.80240 0.28850 0.46740 0.18700
H 	H 	0.78710 0.35640 0.44170 0.18500
N 	N 	0.04000 0.54560 0.57860 -0.32600
H 	H 	0.06150 0.51310 0.59710 0.18100
H 	H 	0.04260 0.58390 0.59840 0.21100
O 	O 	0.98009 0.95931 0.60826 -0.54000
O 	O 	0.08147 0.06541 0.53571 -0.56700
O 	O 	0.90867 0.85672 0.67480 -0.31400
O 	O 	0.10541 0.69198 0.68086 -0.21100
O 	O 	0.09714 0.87802 0.61021 -0.41800
O 	O 	0.06113 0.91940 0.46494 -0.57900
O 	O 	0.03012 0.89881 0.74143 -0.43200
O 	O 	0.98551 0.83653 0.54619 -0.36600
O 	O 	0.20468 0.07400 0.61578 -0.52500
O 	O 	0.18536 0.14620 0.47916 -0.31900
O 	O 	0.92648 0.99620 0.74624 -0.29900
O 	O 	0.05136 0.02447 0.79951 -0.37900
O 	O 	0.04693 0.78711 0.41977 -0.35600
O 	O 	0.15041 0.89200 0.34849 -0.34400
O 	O 	0.16908 0.82848 0.48596 -0.44200
O 	O 	0.08928 0.74840 0.56057 -0.34800
O 	O 	0.32016 0.94670 0.55728 -0.39000
O 	O 	0.10310 0.99124 0.66024 -0.44700
O 	O 	0.01369 0.08270 0.66642 -0.37700
O 	O 	0.13457 0.10135 0.74243 -0.33100
O 	O 	0.20373 0.92169 0.66870 -0.36600
O 	O 	0.15537 0.05220 0.86451 -0.20100
O 	O 	0.06850 0.13906 0.85079 -0.39300
O 	O 	0.26865 0.03941 0.48848 -0.38400
O 	O 	0.00195 0.67077 0.60540 -0.21000
O 	O 	0.16642 0.96116 0.54610 -0.46300
O 	O 	0.15292 0.01649 0.41939 -0.36500
O 	O 	0.25541 0.92280 0.44219 -0.34700
O 	O 	0.36389 0.97940 0.43370 -0.20600
O 	O 	0.01953 0.77756 0.67250 -0.34800
O 	O 	0.10903 0.17917 0.62100 -0.32200
O 	O 	0.35241 0.92646 0.71565 -0.22900
O 	O 	0.26059 0.02740 0.76719 -0.23600
Mo	Mo	0.49839 0.51343 0.70961 1.18100
Mo	Mo	0.51343 0.62981 0.64993 1.18700
Mo	Mo	0.42641 0.67263 0.49441 1.18400
Mo	Mo	0.34513 0.58778 0.43746 1.18200
Mo	Mo	0.32358 0.43035 0.51309 1.18000
Mo	Mo	0.38771 0.40269 0.63211 1.18300
Mn	Mn	0.21214 0.50553 0.65680 1.30800
P 	P 	0.35627 0.56410 0.62245 0.50000
P 	P 	0.39833 0.41947 0.81567 0.52200
P 	P 	0.44623 0.77926 0.63068 0.49600
P 	P 	0.19659 0.52723 0.48037 0.50600
C 	C 	0.67890 0.36390 0.14610 0.00100
H 	H 	0.65710 0.35720 0.09940 0.05800
H 	H 	0.72550 0.37010 0.13650 0.05500
C 	C 	0.67000 0.30370 0.19250 -0.01200
H 	H 	0.69100 0.31120 0.23950 0.05600
H 	H 	0.69250 0.26720 0.16900 0.04800
C 	C 	0.75060 0.21300 0.37150 -0.02900
H 	H 	0.79590 0.19790 0.37200 0.07700
H 	H 	0.73010 0.19690 0.32690 0.06800
C 	C 	0.50140 0.96450 0.51260 0.01300
H 	H 	0.48620 0.93600 0.47350 0.07400
H 	H 	0.54660 0.95290 0.52380 0.08700
N 	N 	0.65400 0.42060 0.17880 -0.29600
H 	H 	0.63580 0.41840 0.22130 0.19500
H 	H 	0.65670 0.45770 0.15640 0.20900
N 	N 	0.60200 0.28500 0.20520 -0.29800
H 	H 	0.57060 0.30800 0.18650 0.20500
H 	H 	0.59310 0.25090 0.23130 0.21200
N 	N 	0.71540 0.18560 0.43590 -0.27800
H 	H 	0.69760 0.21150 0.46740 0.18700
H 	H 	0.71290 0.14360 0.44170 0.18500
N 	N 	0.46000 0.95440 0.57860 -0.28900
H 	H 	0.43850 0.98690 0.59710 0.18700
H 	H 	0.45740 0.91610 0.59840 0.20800
O 	O 	0.51991 0.54069 0.60826 -0.57000
O 	O 	0.41853 0.43459 0.53571 -0.55800
O 	O 	0.59133 0.64328 0.67480 -0.32300
O 	O 	0.39459 0.80802 0.68086 -0.20800
O 	O 	0.40286 0.62198 0.61021 -0.41000
O 	O 	0.43887 0.58060 0.46494 -0.57600
O 	O 	0.46988 0.60119 0.74143 -0.42000
O 	O 	0.51449 0.66347 0.54619 -0.38600
O 	O 	0.29532 0.42600 0.61578 -0.51800
O 	O 	0.31464 0.35380 0.47916 -0.31900
O 	O 	0.57352 0.50380 0.74624 -0.33100
O 	O 	0.44864 0.47553 0.79951 -0.35600
O 	O 	0.45307 0.71289 0.41977 -0.34400
O 	O 	0.34959 0.60800 0.34849 -0.34700
O 	O 	0.33092 0.67152 0.48596 -0.44200
O 	O 	0.41072 0.75160 0.56057 -0.34500
O 	O 	0.17984 0.55330 0.55728 -0.39300
O 	O 	0.39690 0.50876 0.66024 -0.45700
O 	O 	0.48631 0.41730 0.66642 -0.35600
O 	O 	0.36543 0.39865 0.74243 -0.32800
O 	O 	0.29627 0.57831 0.66870 -0.36900
O 	O 	0.34463 0.44780 0.86451 -0.18900
O 	O 	0.43150 0.36094 0.85079 -0.37900
O 	O 	0.23135 0.46059 0.48848 -0.36800
O 	O 	0.49805 0.82923 0.60540 -0.19400
O 	O 	0.33358 0.53884 0.54610 -0.47200
O 	O 	0.34708 0.48351 0.41939 -0.35200
O 	O 	0.24459 0.57720 0.44219 -0.34800
O 	O 	0.13611 0.52060 0.43370 -0.21800
O 	O 	0.48047 0.72244 0.67250 -0.33200
O 	O 	0.39097 0.32083 0.62100 -0.31900
O 	O 	0.14759 0.57354 0.71565 -0.24000
O 	O 	0.23941 0.47260 0.76719 -0.22400
Mn	Mn	0.50000 0.00000 -0.00000 1.30300
Mn	Mn	0.00000 0.50000 -0.00000 1.30400
Mn	Mn	0.00000 0.00000 0.50000 1.30400
Mn	Mn	0.50000 0.50000 0.50000 1.32300
