data_crystal

_cell_length_a 10.48740
_cell_length_b 15.90360
_cell_length_c 26.13600
_cell_angle_alpha 90.00000
_cell_angle_beta  90.00000
_cell_angle_gamma 90.00000

_symmetry_space_group_name_	'P 1'
_symmetry_space_group_name_H-M	'P 1'

loop_
_symmetry_equiv_pos_as_xyz
  x,y,z

loop_
_atom_site_label
_atom_site_type_symbol
_atom_site_fract_x
_atom_site_fract_y
_atom_site_fract_z
_atom_site_charge
Ni	Ni	0.33822 0.35622 0.61881 1.12200
Ni	Ni	0.10326 0.21715 0.64870 1.13100
Ni	Ni	0.16178 0.64378 0.11881 1.12200
Ni	Ni	0.39674 0.78285 0.14870 1.13100
Ni	Ni	0.66178 0.85622 0.88119 1.12100
Ni	Ni	0.89674 0.71715 0.85130 1.13000
Ni	Ni	0.83822 0.14378 0.38119 1.12100
Ni	Ni	0.60326 0.28285 0.35130 1.13000
H 	H 	0.58450 0.98300 0.46130 0.03600
H 	H 	0.43870 0.20890 0.49460 0.03700
H 	H 	0.35700 0.01020 0.58390 0.04100
H 	H 	0.94160 0.50580 0.75470 0.04600
H 	H 	0.57640 0.54890 0.71920 0.05200
H 	H 	0.74880 0.33500 0.67480 0.05200
H 	H 	0.52490 0.33480 0.53190 0.02400
H 	H 	0.63010 0.41530 0.47070 0.06600
H 	H 	0.59690 0.56140 0.47050 0.05700
H 	H 	0.33090 0.53020 0.57600 0.03900
H 	H 	0.34550 0.66300 0.52410 0.07100
H 	H 	0.47510 0.68010 0.49610 0.07200
H 	H 	0.64310 0.62170 0.58380 0.03500
H 	H 	0.66660 0.69860 0.54740 0.04100
H 	H 	0.63290 0.71400 0.65450 0.09400
H 	H 	0.65810 0.79040 0.61810 0.09200
H 	H 	0.83550 0.66220 0.63750 0.05700
H 	H 	0.86080 0.73710 0.60000 0.05600
H 	H 	0.83460 0.75290 0.70690 0.07300
H 	H 	0.96310 0.76280 0.67680 0.05700
H 	H 	0.99440 0.89250 0.62340 0.05700
H 	H 	0.86870 0.87280 0.59330 0.05800
H 	H 	0.70200 0.99060 0.58720 0.05400
H 	H 	0.68130 0.13590 0.57300 0.06900
H 	H 	0.83960 0.22210 0.60380 0.02600
H 	H 	0.04570 0.03090 0.64630 0.03800
H 	H 	0.47000 0.74470 0.57400 0.16700
H 	H 	0.43200 0.66800 0.59400 0.13300
H 	H 	0.88700 0.88900 0.69440 0.16500
H 	H 	0.76900 0.88100 0.67100 0.15200
H 	H 	0.91550 0.01700 0.96130 0.03700
H 	H 	0.06130 0.79110 0.99460 0.03800
H 	H 	0.14300 0.98980 0.08390 0.04100
H 	H 	0.55840 0.49420 0.25470 0.04600
H 	H 	0.92360 0.45110 0.21920 0.05200
H 	H 	0.75120 0.66500 0.17480 0.05200
H 	H 	0.97510 0.66520 0.03190 0.02400
H 	H 	0.86990 0.58470 0.97070 0.06600
H 	H 	0.90310 0.43860 0.97050 0.05700
H 	H 	0.16910 0.46980 0.07600 0.03900
H 	H 	0.15450 0.33700 0.02410 0.07100
H 	H 	0.02490 0.31990 0.99610 0.07200
H 	H 	0.85690 0.37830 0.08380 0.03500
H 	H 	0.83340 0.30140 0.04740 0.04100
H 	H 	0.86710 0.28600 0.15450 0.09400
H 	H 	0.84190 0.20960 0.11810 0.09300
H 	H 	0.66450 0.33780 0.13750 0.05700
H 	H 	0.63920 0.26290 0.10000 0.05600
H 	H 	0.66540 0.24710 0.20690 0.07300
H 	H 	0.53690 0.23720 0.17680 0.05700
H 	H 	0.50560 0.10750 0.12340 0.05800
H 	H 	0.63130 0.12720 0.09330 0.05800
H 	H 	0.79800 0.00940 0.08720 0.05600
H 	H 	0.81870 0.86410 0.07300 0.06800
H 	H 	0.66040 0.77790 0.10380 0.02700
H 	H 	0.45430 0.96910 0.14630 0.03900
H 	H 	0.03000 0.25530 0.07400 0.16700
H 	H 	0.06800 0.33200 0.09400 0.13200
H 	H 	0.61300 0.11100 0.19440 0.16500
H 	H 	0.73100 0.11900 0.17100 0.15200
H 	H 	0.41550 0.48300 0.03870 0.03600
H 	H 	0.56130 0.70890 0.00540 0.03700
H 	H 	0.64300 0.51020 0.91610 0.04100
H 	H 	0.05840 0.00580 0.74530 0.04400
H 	H 	0.42360 0.04890 0.78080 0.05100
H 	H 	0.25120 0.83500 0.82520 0.05200
H 	H 	0.47510 0.83480 0.96810 0.02400
H 	H 	0.36990 0.91530 0.02930 0.06700
H 	H 	0.40310 0.06140 0.02950 0.05600
H 	H 	0.66910 0.03020 0.92400 0.03900
H 	H 	0.65450 0.16300 0.97590 0.07100
H 	H 	0.52490 0.18010 0.00390 0.07200
H 	H 	0.35690 0.12170 0.91620 0.03500
H 	H 	0.33340 0.19860 0.95260 0.04100
H 	H 	0.36710 0.21400 0.84550 0.09400
H 	H 	0.34190 0.29040 0.88190 0.09300
H 	H 	0.16450 0.16220 0.86250 0.05700
H 	H 	0.13920 0.23710 0.90000 0.05600
H 	H 	0.16540 0.25290 0.79310 0.07300
H 	H 	0.03690 0.26280 0.82320 0.05700
H 	H 	0.00560 0.39250 0.87660 0.05700
H 	H 	0.13130 0.37280 0.90670 0.05800
H 	H 	0.29800 0.49060 0.91280 0.05500
H 	H 	0.31870 0.63590 0.92700 0.06900
H 	H 	0.16040 0.72210 0.89620 0.02600
H 	H 	0.95430 0.53090 0.85370 0.03800
H 	H 	0.53000 0.24470 0.92600 0.16700
H 	H 	0.56800 0.16800 0.90600 0.13300
H 	H 	0.11300 0.38900 0.80560 0.16500
H 	H 	0.23100 0.38100 0.82900 0.15200
H 	H 	0.08450 0.51700 0.53870 0.03600
H 	H 	0.93870 0.29110 0.50540 0.03700
H 	H 	0.85700 0.48980 0.41610 0.04100
H 	H 	0.44160 0.99420 0.24530 0.04600
H 	H 	0.07640 0.95110 0.28080 0.05200
H 	H 	0.24880 0.16500 0.32520 0.05200
H 	H 	0.02490 0.16520 0.46810 0.02400
H 	H 	0.13010 0.08470 0.52930 0.06700
H 	H 	0.09690 0.93860 0.52950 0.05600
H 	H 	0.83090 0.96980 0.42400 0.03800
H 	H 	0.84550 0.83700 0.47590 0.07100
H 	H 	0.97510 0.81990 0.50390 0.07100
H 	H 	0.14310 0.87830 0.41620 0.03500
H 	H 	0.16660 0.80140 0.45260 0.04100
H 	H 	0.13290 0.78600 0.34550 0.09400
H 	H 	0.15810 0.70960 0.38190 0.09300
H 	H 	0.33550 0.83780 0.36250 0.05700
H 	H 	0.36080 0.76290 0.40000 0.05600
H 	H 	0.33460 0.74710 0.29310 0.07300
H 	H 	0.46310 0.73720 0.32320 0.05700
H 	H 	0.49440 0.60750 0.37660 0.05700
H 	H 	0.36870 0.62720 0.40670 0.05800
H 	H 	0.20200 0.50940 0.41280 0.05500
H 	H 	0.18130 0.36410 0.42700 0.06900
H 	H 	0.33960 0.27790 0.39620 0.02600
H 	H 	0.54570 0.46910 0.35370 0.03900
H 	H 	0.97000 0.75530 0.42600 0.16700
H 	H 	0.93200 0.83200 0.40600 0.13200
H 	H 	0.38700 0.61100 0.30560 0.16500
H 	H 	0.26900 0.61900 0.32900 0.15200
C 	C 	0.49190 0.88970 0.53610 0.32700
C 	C 	0.47320 0.98210 0.52370 -0.11100
C 	C 	0.53360 0.01710 0.48180 0.05600
C 	C 	0.52060 0.10030 0.46940 -0.12700
C 	C 	0.58680 0.13970 0.42440 0.37700
C 	C 	0.44760 0.15200 0.50200 0.05900
C 	C 	0.39910 0.03280 0.55570 0.04700
C 	C 	0.38980 0.11920 0.54420 -0.12100
C 	C 	0.31630 0.17840 0.57940 0.38000
C 	C 	0.97990 0.35810 0.70900 0.33800
C 	C 	0.86230 0.41150 0.71340 -0.09900
C 	C 	0.86650 0.48830 0.73910 0.03300
C 	C 	0.75850 0.53870 0.74130 -0.09000
C 	C 	0.64730 0.51380 0.71860 0.02800
C 	C 	0.64050 0.43490 0.69440 -0.08700
C 	C 	0.75140 0.38630 0.69190 0.03800
C 	C 	0.76680 0.62420 0.76870 0.33500
C 	C 	0.52220 0.40520 0.67030 0.29500
C 	C 	0.50740 0.39190 0.52940 0.04700
C 	C 	0.57310 0.44010 0.49340 -0.06100
C 	C 	0.55050 0.52710 0.49250 -0.05800
C 	C 	0.46200 0.56080 0.52350 0.03700
C 	C 	0.39580 0.50770 0.55600 -0.00600
C 	C 	0.43670 0.65330 0.52560 -0.10200
C 	C 	0.62440 0.68080 0.57860 0.01900
C 	C 	0.67670 0.73130 0.62360 -0.16200
C 	C 	0.81750 0.72110 0.63130 -0.07000
C 	C 	0.87180 0.77220 0.67500 -0.05200
C 	C 	0.90300 0.90190 0.62290 -0.07600
C 	C 	0.87760 0.99630 0.61710 0.01600
C 	C 	0.76740 0.02720 0.59640 -0.03700
C 	C 	0.75310 0.11360 0.58890 -0.07000
C 	C 	0.85040 0.16420 0.60610 0.05700
C 	C 	0.97120 0.05180 0.63180 0.00500
C 	C 	0.00810 0.11030 0.03610 0.32700
C 	C 	0.02680 0.01790 0.02370 -0.11200
C 	C 	0.96640 0.98290 0.98180 0.05600
C 	C 	0.97940 0.89970 0.96940 -0.12700
C 	C 	0.91320 0.86030 0.92440 0.37700
C 	C 	0.05240 0.84800 0.00200 0.05900
C 	C 	0.10090 0.96720 0.05570 0.04800
C 	C 	0.11020 0.88080 0.04420 -0.12100
C 	C 	0.18370 0.82160 0.07940 0.38000
C 	C 	0.52010 0.64190 0.20900 0.33800
C 	C 	0.63770 0.58850 0.21340 -0.09900
C 	C 	0.63350 0.51170 0.23910 0.03300
C 	C 	0.74150 0.46130 0.24130 -0.09000
C 	C 	0.85270 0.48620 0.21860 0.02800
C 	C 	0.85950 0.56510 0.19440 -0.08700
C 	C 	0.74860 0.61370 0.19190 0.03800
C 	C 	0.73320 0.37580 0.26870 0.33500
C 	C 	0.97780 0.59480 0.17030 0.29500
C 	C 	0.99260 0.60810 0.02940 0.04600
C 	C 	0.92690 0.55990 0.99340 -0.06100
C 	C 	0.94950 0.47290 0.99250 -0.05800
C 	C 	0.03800 0.43920 0.02350 0.03700
C 	C 	0.10420 0.49230 0.05600 -0.00600
C 	C 	0.06330 0.34670 0.02560 -0.10200
C 	C 	0.87560 0.31920 0.07860 0.01900
C 	C 	0.82330 0.26870 0.12360 -0.16200
C 	C 	0.68250 0.27890 0.13130 -0.07000
C 	C 	0.62820 0.22780 0.17500 -0.05300
C 	C 	0.59700 0.09810 0.12290 -0.07800
C 	C 	0.62240 0.00370 0.11710 0.02100
C 	C 	0.73260 0.97280 0.09640 -0.04300
C 	C 	0.74690 0.88640 0.08890 -0.06700
C 	C 	0.64960 0.83580 0.10610 0.05500
C 	C 	0.52880 0.94820 0.13180 0.00100
C 	C 	0.50810 0.38970 0.96390 0.32700
C 	C 	0.52680 0.48210 0.97630 -0.11100
C 	C 	0.46640 0.51710 0.01820 0.05600
C 	C 	0.47940 0.60030 0.03060 -0.12700
C 	C 	0.41320 0.63970 0.07560 0.37800
C 	C 	0.55240 0.65200 0.99800 0.06000
C 	C 	0.60090 0.53280 0.94430 0.04700
C 	C 	0.61020 0.61920 0.95580 -0.12100
C 	C 	0.68370 0.67840 0.92060 0.38000
C 	C 	0.02010 0.85810 0.79100 0.33900
C 	C 	0.13770 0.91150 0.78660 -0.10100
C 	C 	0.13350 0.98830 0.76090 0.03700
C 	C 	0.24150 0.03870 0.75870 -0.09200
C 	C 	0.35270 0.01380 0.78140 0.02900
C 	C 	0.35950 0.93490 0.80560 -0.08700
C 	C 	0.24860 0.88630 0.80810 0.03900
C 	C 	0.23320 0.12420 0.73130 0.33600
C 	C 	0.47780 0.90520 0.82970 0.29500
C 	C 	0.49260 0.89190 0.97060 0.04800
C 	C 	0.42690 0.94010 0.00660 -0.06200
C 	C 	0.44950 0.02710 0.00750 -0.05700
C 	C 	0.53800 0.06080 0.97650 0.03600
C 	C 	0.60420 0.00770 0.94400 -0.00600
C 	C 	0.56330 0.15330 0.97440 -0.10200
C 	C 	0.37560 0.18080 0.92140 0.01900
C 	C 	0.32330 0.23130 0.87640 -0.16200
C 	C 	0.18250 0.22110 0.86870 -0.07000
C 	C 	0.12820 0.27220 0.82500 -0.05300
C 	C 	0.09700 0.40190 0.87710 -0.07700
C 	C 	0.12240 0.49630 0.88290 0.01800
C 	C 	0.23260 0.52720 0.90360 -0.04000
C 	C 	0.24690 0.61360 0.91110 -0.06900
C 	C 	0.14960 0.66420 0.89390 0.05600
C 	C 	0.02880 0.55180 0.86820 0.00300
C 	C 	0.99190 0.61030 0.46390 0.32700
C 	C 	0.97320 0.51790 0.47630 -0.11100
C 	C 	0.03360 0.48290 0.51820 0.05600
C 	C 	0.02060 0.39970 0.53060 -0.12700
C 	C 	0.08680 0.36030 0.57560 0.37700
C 	C 	0.94760 0.34800 0.49800 0.05900
C 	C 	0.89910 0.46720 0.44430 0.04700
C 	C 	0.88980 0.38080 0.45580 -0.12100
C 	C 	0.81630 0.32160 0.42060 0.38000
C 	C 	0.47990 0.14190 0.29100 0.33800
C 	C 	0.36230 0.08850 0.28660 -0.09900
C 	C 	0.36650 0.01170 0.26090 0.03200
C 	C 	0.25850 0.96130 0.25870 -0.09000
C 	C 	0.14730 0.98620 0.28140 0.02900
C 	C 	0.14050 0.06510 0.30560 -0.08800
C 	C 	0.25140 0.11370 0.30810 0.03800
C 	C 	0.26680 0.87580 0.23130 0.33500
C 	C 	0.02220 0.09480 0.32970 0.29400
C 	C 	0.00740 0.10810 0.47060 0.04700
C 	C 	0.07310 0.05990 0.50660 -0.06400
C 	C 	0.05050 0.97290 0.50750 -0.05400
C 	C 	0.96200 0.93920 0.47650 0.03400
C 	C 	0.89580 0.99230 0.44400 -0.00600
C 	C 	0.93670 0.84670 0.47440 -0.10100
C 	C 	0.12440 0.81920 0.42140 0.02000
C 	C 	0.17670 0.76870 0.37640 -0.16200
C 	C 	0.31750 0.77890 0.36870 -0.07000
C 	C 	0.37180 0.72780 0.32500 -0.05300
C 	C 	0.40300 0.59810 0.37710 -0.07700
C 	C 	0.37760 0.50370 0.38290 0.01900
C 	C 	0.26740 0.47280 0.40360 -0.04000
C 	C 	0.25310 0.38640 0.41110 -0.06900
C 	C 	0.35040 0.33580 0.39390 0.05600
C 	C 	0.47120 0.44820 0.36820 0.00200
N 	N 	0.42080 0.42530 0.56000 -0.19800
N 	N 	0.95850 0.13580 0.62583 -0.19300
N 	N 	0.48880 0.69160 0.57300 -0.25700
N 	N 	0.84690 0.86580 0.66930 -0.26800
N 	N 	0.07920 0.57470 0.06000 -0.19800
N 	N 	0.54150 0.86420 0.12583 -0.19200
N 	N 	0.01120 0.30840 0.07300 -0.25700
N 	N 	0.65310 0.13420 0.16930 -0.26700
N 	N 	0.57920 0.92530 0.94000 -0.19800
N 	N 	0.04150 0.63580 0.87417 -0.19300
N 	N 	0.51120 0.19160 0.92700 -0.25700
N 	N 	0.15310 0.36580 0.83070 -0.26700
N 	N 	0.92080 0.07470 0.44000 -0.19800
N 	N 	0.45850 0.36420 0.37417 -0.19300
N 	N 	0.98880 0.80840 0.42700 -0.25700
N 	N 	0.34690 0.63420 0.33070 -0.26700
O 	O 	0.23610 0.14670 0.61014 -0.40400
O 	O 	0.34210 0.25450 0.57432 -0.43500
O 	O 	0.66700 0.09410 0.40062 -0.41200
O 	O 	0.56240 0.21400 0.41494 -0.42400
O 	O 	0.42660 0.85850 0.56950 -0.27700
O 	O 	0.57950 0.85120 0.51390 -0.26400
O 	O 	0.96900 0.29010 0.68542 -0.37700
O 	O 	0.08250 0.38510 0.72838 -0.26000
O 	O 	0.66990 0.66900 0.76881 -0.24800
O 	O 	0.87150 0.64110 0.78876 -0.37900
O 	O 	0.51970 0.33430 0.64925 -0.35100
O 	O 	0.41990 0.44990 0.67057 -0.33100
O 	O 	0.24940 0.29480 0.67849 -0.35400
O 	O 	0.26390 0.85330 0.11014 -0.40400
O 	O 	0.15790 0.74550 0.07432 -0.43500
O 	O 	0.83300 0.90590 0.90062 -0.41300
O 	O 	0.93760 0.78600 0.91494 -0.42400
O 	O 	0.07340 0.14150 0.06950 -0.27700
O 	O 	0.92050 0.14880 0.01390 -0.26300
O 	O 	0.53100 0.70990 0.18542 -0.37700
O 	O 	0.41750 0.61490 0.22838 -0.26000
O 	O 	0.83010 0.33100 0.26881 -0.24800
O 	O 	0.62850 0.35890 0.28876 -0.37900
O 	O 	0.98030 0.66570 0.14925 -0.35200
O 	O 	0.08010 0.55010 0.17057 -0.33100
O 	O 	0.25060 0.70520 0.17849 -0.35400
O 	O 	0.76390 0.64670 0.88986 -0.40400
O 	O 	0.65790 0.75450 0.92568 -0.43500
O 	O 	0.33300 0.59410 0.09938 -0.41200
O 	O 	0.43760 0.71400 0.08506 -0.42400
O 	O 	0.57340 0.35850 0.93050 -0.27700
O 	O 	0.42050 0.35120 0.98610 -0.26400
O 	O 	0.03100 0.79010 0.81458 -0.37700
O 	O 	0.91750 0.88510 0.77162 -0.26100
O 	O 	0.33010 0.16900 0.73119 -0.24800
O 	O 	0.12850 0.14110 0.71124 -0.37900
O 	O 	0.48030 0.83430 0.85075 -0.35100
O 	O 	0.58010 0.94990 0.82943 -0.33100
O 	O 	0.75060 0.79480 0.82151 -0.35400
O 	O 	0.73610 0.35330 0.38986 -0.40400
O 	O 	0.84210 0.24550 0.42568 -0.43500
O 	O 	0.16700 0.40590 0.59938 -0.41200
O 	O 	0.06240 0.28600 0.58506 -0.42400
O 	O 	0.92660 0.64150 0.43050 -0.27700
O 	O 	0.07950 0.64880 0.48610 -0.26400
O 	O 	0.46900 0.20990 0.31458 -0.37700
O 	O 	0.58250 0.11490 0.27162 -0.26000
O 	O 	0.16990 0.83100 0.23119 -0.24800
O 	O 	0.37150 0.85890 0.21124 -0.37900
O 	O 	0.01970 0.16570 0.35075 -0.35200
O 	O 	0.91990 0.05010 0.32943 -0.33100
O 	O 	0.74940 0.20520 0.32151 -0.35400
