data_crystal

_cell_length_a 21.96900
_cell_length_b 22.46300
_cell_length_c 8.78660
_cell_angle_alpha 90.00000
_cell_angle_beta  90.00000
_cell_angle_gamma 90.00000

_symmetry_space_group_name_	'P 1'
_symmetry_space_group_name_H-M	'P 1'

loop_
_symmetry_equiv_pos_as_xyz
  x,y,z

loop_
_atom_site_label
_atom_site_type_symbol
_atom_site_fract_x
_atom_site_fract_y
_atom_site_fract_z
_atom_site_charge
C 	C 	0.34190 0.16850 0.67600 0.24900
C 	C 	0.39810 0.13490 0.64550 -0.12300
C 	C 	0.41840 0.08950 0.73840 0.06600
H 	H 	0.39420 0.07760 0.81970 -0.02000
C 	C 	0.50570 0.07850 0.59660 0.07700
H 	H 	0.54280 0.05950 0.58080 -0.01600
C 	C 	0.48860 0.12230 0.49630 -0.14900
H 	H 	0.51310 0.13230 0.41390 0.07200
C 	C 	0.43430 0.15100 0.52070 0.05400
H 	H 	0.42170 0.18100 0.45490 0.01800
N 	N 	0.47189 0.06165 0.71600 -0.24100
N 	N 	0.29820 0.14380 0.75910 -0.22100
H 	H 	0.30090 0.10760 0.79060 0.11600
N 	N 	0.24705 0.17960 0.79380 -0.28800
H 	H 	0.24980 0.19440 0.88870 0.09500
H 	H 	0.21240 0.15860 0.78570 0.09900
O 	O 	0.33637 0.21883 0.62200 -0.39700
C 	C 	0.34190 0.66850 0.17600 0.25400
C 	C 	0.39810 0.63490 0.14550 -0.12800
C 	C 	0.41840 0.58950 0.23840 0.07500
H 	H 	0.39420 0.57760 0.31970 -0.01000
C 	C 	0.50570 0.57850 0.09660 0.09200
H 	H 	0.54280 0.55950 0.08080 -0.01000
C 	C 	0.48860 0.62230 0.99630 -0.16300
H 	H 	0.51310 0.63230 0.91390 0.07900
C 	C 	0.43430 0.65100 0.02070 0.07200
H 	H 	0.42170 0.68100 0.95490 0.01100
N 	N 	0.47189 0.56165 0.21600 -0.23500
N 	N 	0.29820 0.64380 0.25910 -0.22300
H 	H 	0.30090 0.60760 0.29060 0.12600
N 	N 	0.24705 0.67960 0.29380 -0.28800
H 	H 	0.24980 0.69440 0.38870 0.09700
H 	H 	0.21240 0.65860 0.28570 0.10300
O 	O 	0.33637 0.71883 0.12200 -0.39700
C 	C 	0.84190 0.16850 0.17600 0.23500
C 	C 	0.89810 0.13490 0.14550 -0.08200
C 	C 	0.91840 0.08950 0.23840 0.04400
H 	H 	0.89420 0.07760 0.31970 -0.00900
C 	C 	0.00570 0.07850 0.09660 -0.04500
H 	H 	0.04280 0.05950 0.08080 0.02200
C 	C 	0.98860 0.12230 0.99630 0.00500
H 	H 	0.01310 0.13230 0.91390 0.00000
C 	C 	0.93430 0.15100 0.02070 -0.02300
H 	H 	0.92170 0.18100 0.95490 0.04700
N 	N 	0.97189 0.06165 0.21600 -0.20100
N 	N 	0.79820 0.14380 0.25910 -0.21800
H 	H 	0.80090 0.10760 0.29060 0.11600
N 	N 	0.74705 0.17960 0.29380 -0.28800
H 	H 	0.74980 0.19440 0.38870 0.09700
H 	H 	0.71240 0.15860 0.28570 0.10100
O 	O 	0.83637 0.21883 0.12200 -0.39100
C 	C 	0.84190 0.66850 0.67600 0.23500
C 	C 	0.89810 0.63490 0.64550 -0.07300
C 	C 	0.91840 0.58950 0.73840 0.04300
H 	H 	0.89420 0.57760 0.81970 0.00100
C 	C 	0.00570 0.57850 0.59660 -0.04900
H 	H 	0.04280 0.55950 0.58080 0.03300
C 	C 	0.98860 0.62230 0.49630 0.02300
H 	H 	0.01310 0.63230 0.41390 -0.00100
C 	C 	0.93430 0.65100 0.52070 -0.03900
H 	H 	0.92170 0.68100 0.45490 0.05600
N 	N 	0.97189 0.56165 0.71600 -0.19100
N 	N 	0.79820 0.64380 0.75910 -0.21800
H 	H 	0.80090 0.60760 0.79060 0.12400
N 	N 	0.74705 0.67960 0.79380 -0.28900
H 	H 	0.74980 0.69440 0.88870 0.09800
H 	H 	0.71240 0.65860 0.78570 0.10300
O 	O 	0.83637 0.71883 0.62200 -0.39200
C 	C 	0.65810 0.83150 0.67600 0.25300
C 	C 	0.60190 0.86510 0.64550 -0.11700
C 	C 	0.58160 0.91050 0.73840 0.07400
H 	H 	0.60580 0.92240 0.81970 0.00200
C 	C 	0.49430 0.92150 0.59660 0.08400
H 	H 	0.45720 0.94050 0.58080 0.00500
C 	C 	0.51140 0.87770 0.49630 -0.14000
H 	H 	0.48690 0.86770 0.41390 0.07600
C 	C 	0.56570 0.84900 0.52070 0.05600
H 	H 	0.57830 0.81900 0.45490 0.02000
N 	N 	0.52811 0.93835 0.71600 -0.21700
N 	N 	0.70180 0.85620 0.75910 -0.22300
H 	H 	0.69910 0.89240 0.79060 0.13400
N 	N 	0.75295 0.82040 0.79380 -0.28900
H 	H 	0.75020 0.80560 0.88870 0.09900
H 	H 	0.78760 0.84140 0.78570 0.10800
O 	O 	0.66363 0.78117 0.62200 -0.39800
C 	C 	0.65810 0.33150 0.17600 0.25400
C 	C 	0.60190 0.36510 0.14550 -0.12900
C 	C 	0.58160 0.41050 0.23840 0.07600
H 	H 	0.60580 0.42240 0.31970 -0.01100
C 	C 	0.49430 0.42150 0.09660 0.09400
H 	H 	0.45720 0.44050 0.08080 -0.01000
C 	C 	0.51140 0.37770 0.99630 -0.16600
H 	H 	0.48690 0.36770 0.91390 0.08100
C 	C 	0.56570 0.34900 0.02070 0.07600
H 	H 	0.57830 0.31900 0.95490 0.01000
N 	N 	0.52811 0.43835 0.21600 -0.23500
N 	N 	0.70180 0.35620 0.25910 -0.22300
H 	H 	0.69910 0.39240 0.29060 0.12600
N 	N 	0.75295 0.32040 0.29380 -0.28900
H 	H 	0.75020 0.30560 0.38870 0.09800
H 	H 	0.78760 0.34140 0.28570 0.10500
O 	O 	0.66363 0.28117 0.12200 -0.39800
C 	C 	0.15810 0.83150 0.17600 0.27100
C 	C 	0.10190 0.86510 0.14550 -0.16900
C 	C 	0.08160 0.91050 0.23840 0.10300
H 	H 	0.10580 0.92240 0.31970 -0.00800
C 	C 	0.99430 0.92150 0.09660 0.21600
H 	H 	0.95720 0.94050 0.08080 -0.03500
C 	C 	0.01140 0.87770 0.99630 -0.31400
H 	H 	0.98690 0.86770 0.91390 0.15200
C 	C 	0.06570 0.84900 0.02070 0.16000
H 	H 	0.07830 0.81900 0.95490 -0.02200
N 	N 	0.02811 0.93835 0.21600 -0.25500
N 	N 	0.20180 0.85620 0.25910 -0.22700
H 	H 	0.19910 0.89240 0.29060 0.13600
N 	N 	0.25295 0.82040 0.29380 -0.28800
H 	H 	0.25020 0.80560 0.38870 0.09900
H 	H 	0.28760 0.84140 0.28570 0.10800
O 	O 	0.16363 0.78117 0.12200 -0.40300
C 	C 	0.15810 0.33150 0.67600 0.26700
C 	C 	0.10190 0.36510 0.64550 -0.17000
C 	C 	0.08160 0.41050 0.73840 0.09700
H 	H 	0.10580 0.42240 0.81970 -0.02000
C 	C 	0.99430 0.42150 0.59660 0.21500
H 	H 	0.95720 0.44050 0.58080 -0.04700
C 	C 	0.01140 0.37770 0.49630 -0.31700
H 	H 	0.98690 0.36770 0.41390 0.15200
C 	C 	0.06570 0.34900 0.52070 0.15100
H 	H 	0.07830 0.31900 0.45490 -0.01900
N 	N 	0.02811 0.43835 0.71600 -0.27200
N 	N 	0.20180 0.35620 0.75910 -0.22600
H 	H 	0.19910 0.39240 0.79060 0.12600
N 	N 	0.25295 0.32040 0.79380 -0.28800
H 	H 	0.25020 0.30560 0.88870 0.09600
H 	H 	0.28760 0.34140 0.78570 0.10300
O 	O 	0.16363 0.28117 0.62200 -0.40400
C 	C 	0.59190 0.08150 0.92600 0.24900
C 	C 	0.64810 0.11510 0.89550 -0.12500
C 	C 	0.66840 0.16050 0.98840 0.06300
H 	H 	0.64420 0.17240 0.06970 -0.00600
C 	C 	0.75570 0.17150 0.84660 0.07900
H 	H 	0.79280 0.19050 0.83080 -0.00700
C 	C 	0.73860 0.12770 0.74630 -0.14900
H 	H 	0.76310 0.11770 0.66390 0.06900
C 	C 	0.68430 0.09900 0.77070 0.05400
H 	H 	0.67170 0.06900 0.70490 0.00900
N 	N 	0.72189 0.18835 0.96600 -0.23200
N 	N 	0.54820 0.10620 0.00910 -0.22200
H 	H 	0.55090 0.14240 0.04060 0.12600
N 	N 	0.49705 0.07040 0.04380 -0.28800
H 	H 	0.49980 0.05560 0.13870 0.08500
H 	H 	0.46240 0.09140 0.03570 0.09900
O 	O 	0.58637 0.03117 0.87200 -0.41900
C 	C 	0.59190 0.58150 0.42600 0.25100
C 	C 	0.64810 0.61510 0.39550 -0.12100
C 	C 	0.66840 0.66050 0.48840 0.07000
H 	H 	0.64420 0.67240 0.56970 -0.00900
C 	C 	0.75570 0.67150 0.34660 0.08100
H 	H 	0.79280 0.69050 0.33080 -0.00600
C 	C 	0.73860 0.62770 0.24630 -0.14500
H 	H 	0.76310 0.61770 0.16390 0.07500
C 	C 	0.68430 0.59900 0.27070 0.05500
H 	H 	0.67170 0.56900 0.20490 0.01900
N 	N 	0.72189 0.68835 0.46600 -0.23200
N 	N 	0.54820 0.60620 0.50910 -0.22200
H 	H 	0.55090 0.64240 0.54060 0.12500
N 	N 	0.49705 0.57040 0.54380 -0.28900
H 	H 	0.49980 0.55560 0.63870 0.09700
H 	H 	0.46240 0.59140 0.53570 0.10400
O 	O 	0.58637 0.53117 0.37200 -0.39700
C 	C 	0.09190 0.08150 0.42600 0.25200
C 	C 	0.14810 0.11510 0.39550 -0.13000
C 	C 	0.16840 0.16050 0.48840 0.07100
H 	H 	0.14420 0.17240 0.56970 -0.01200
C 	C 	0.25570 0.17150 0.34660 0.08100
H 	H 	0.29280 0.19050 0.33080 -0.00800
C 	C 	0.23860 0.12770 0.24630 -0.15200
H 	H 	0.26310 0.11770 0.16390 0.07000
C 	C 	0.18430 0.09900 0.27070 0.05700
H 	H 	0.17170 0.06900 0.20490 0.00700
N 	N 	0.22189 0.18835 0.46600 -0.23300
N 	N 	0.04820 0.10620 0.50910 -0.23300
H 	H 	0.05090 0.14240 0.54060 0.12200
N 	N 	0.99705 0.07040 0.54380 -0.27800
H 	H 	0.99980 0.05560 0.63870 0.09300
H 	H 	0.96240 0.09140 0.53570 0.10200
O 	O 	0.08637 0.03117 0.37200 -0.42300
C 	C 	0.09190 0.58150 0.92600 0.24600
C 	C 	0.14810 0.61510 0.89550 -0.11900
C 	C 	0.16840 0.66050 0.98840 0.06400
H 	H 	0.14420 0.67240 0.06970 -0.00600
C 	C 	0.25570 0.67150 0.84660 0.08000
H 	H 	0.29280 0.69050 0.83080 -0.00600
C 	C 	0.23860 0.62770 0.74630 -0.14400
H 	H 	0.26310 0.61770 0.66390 0.07300
C 	C 	0.18430 0.59900 0.77070 0.05300
H 	H 	0.17170 0.56900 0.70490 0.01800
N 	N 	0.22189 0.68835 0.96600 -0.23200
N 	N 	0.04820 0.60620 0.00910 -0.22800
H 	H 	0.05090 0.64240 0.04060 0.12300
N 	N 	0.99705 0.57040 0.04380 -0.27900
H 	H 	0.99980 0.55560 0.13870 0.10700
H 	H 	0.96240 0.59140 0.03570 0.10800
O 	O 	0.08637 0.53117 0.87200 -0.40000
C 	C 	0.90810 0.41850 0.92600 0.24800
C 	C 	0.85190 0.38490 0.89550 -0.11600
C 	C 	0.83160 0.33950 0.98840 0.06200
H 	H 	0.85580 0.32760 0.06970 -0.00400
C 	C 	0.74430 0.32850 0.84660 0.07900
H 	H 	0.70720 0.30950 0.83080 -0.00600
C 	C 	0.76140 0.37230 0.74630 -0.14200
H 	H 	0.73690 0.38230 0.66390 0.07300
C 	C 	0.81570 0.40100 0.77070 0.05200
H 	H 	0.82830 0.43100 0.70490 0.02100
N 	N 	0.77811 0.31165 0.96600 -0.23100
N 	N 	0.95180 0.39380 0.00910 -0.21100
H 	H 	0.94910 0.35760 0.04060 0.12900
N 	N 	0.00295 0.42960 0.04380 -0.29600
H 	H 	0.00020 0.44440 0.13870 0.09000
H 	H 	0.03760 0.40860 0.03570 0.10100
O 	O 	0.91363 0.46883 0.87200 -0.39100
C 	C 	0.90810 0.91850 0.42600 0.24900
C 	C 	0.85190 0.88490 0.39550 -0.11100
C 	C 	0.83160 0.83950 0.48840 0.06900
H 	H 	0.85580 0.82760 0.56970 -0.00600
C 	C 	0.74430 0.82850 0.34660 0.08100
H 	H 	0.70720 0.80950 0.33080 -0.00500
C 	C 	0.76140 0.87230 0.24630 -0.13800
H 	H 	0.73690 0.88230 0.16390 0.07900
C 	C 	0.81570 0.90100 0.27070 0.05300
H 	H 	0.82830 0.93100 0.20490 0.03100
N 	N 	0.77811 0.81165 0.46600 -0.23100
N 	N 	0.95180 0.89380 0.50910 -0.21000
H 	H 	0.94910 0.85760 0.54060 0.12800
N 	N 	0.00295 0.92960 0.54380 -0.29100
H 	H 	0.00020 0.94440 0.63870 0.10400
H 	H 	0.03760 0.90860 0.53570 0.10700
O 	O 	0.91363 0.96883 0.37200 -0.36100
C 	C 	0.40810 0.41850 0.42600 0.25100
C 	C 	0.35190 0.38490 0.39550 -0.12100
C 	C 	0.33160 0.33950 0.48840 0.07000
H 	H 	0.35580 0.32760 0.56970 -0.00900
C 	C 	0.24430 0.32850 0.34660 0.08100
H 	H 	0.20720 0.30950 0.33080 -0.00700
C 	C 	0.26140 0.37230 0.24630 -0.14500
H 	H 	0.23690 0.38230 0.16390 0.07400
C 	C 	0.31570 0.40100 0.27070 0.05500
H 	H 	0.32830 0.43100 0.20490 0.01900
N 	N 	0.27811 0.31165 0.46600 -0.23200
N 	N 	0.45180 0.39380 0.50910 -0.22200
H 	H 	0.44910 0.35760 0.54060 0.12500
N 	N 	0.50295 0.42960 0.54380 -0.28900
H 	H 	0.50020 0.44440 0.63870 0.09700
H 	H 	0.53760 0.40860 0.53570 0.10400
O 	O 	0.41363 0.46883 0.37200 -0.39800
C 	C 	0.40810 0.91850 0.92600 0.24400
C 	C 	0.35190 0.88490 0.89550 -0.11000
C 	C 	0.33160 0.83950 0.98840 0.06400
H 	H 	0.35580 0.82760 0.06970 -0.00400
C 	C 	0.24430 0.82850 0.84660 0.08000
H 	H 	0.20720 0.80950 0.83080 -0.00500
C 	C 	0.26140 0.87230 0.74630 -0.13700
H 	H 	0.23690 0.88230 0.66390 0.07700
C 	C 	0.31570 0.90100 0.77070 0.05100
H 	H 	0.32830 0.93100 0.70490 0.03100
N 	N 	0.27811 0.81165 0.96600 -0.23000
N 	N 	0.45180 0.89380 0.00910 -0.21600
H 	H 	0.44910 0.85760 0.04060 0.12500
N 	N 	0.50295 0.92960 0.04380 -0.28400
H 	H 	0.50020 0.94440 0.13870 0.11300
H 	H 	0.53760 0.90860 0.03570 0.11000
O 	O 	0.41363 0.96883 0.87200 -0.36600
Ni	Ni	0.25000 0.25000 0.62703 1.08900
Ni	Ni	0.25000 0.75000 0.12703 1.08900
Ni	Ni	0.75000 0.75000 0.62703 1.08900
Ni	Ni	0.75000 0.25000 0.12703 1.08900
Ni	Ni	0.50000 0.00000 0.87703 1.06300
Ni	Ni	0.50000 0.50000 0.37703 1.08900
Ni	Ni	-0.00000 0.50000 0.87703 1.07800
Ni	Ni	-0.00000 -0.00000 0.37703 1.05300
