data_crystal

_cell_length_a 24.40310
_cell_length_b 17.11780
_cell_length_c 16.07420
_cell_angle_alpha 90.00000
_cell_angle_beta  94.52100
_cell_angle_gamma 90.00000

_symmetry_space_group_name_	'P 1'
_symmetry_space_group_name_H-M	'P 1'

loop_
_symmetry_equiv_pos_as_xyz
  x,y,z

loop_
_atom_site_label
_atom_site_type_symbol
_atom_site_fract_x
_atom_site_fract_y
_atom_site_fract_z
_atom_site_charge
Zn	Zn	0.43142 0.28480 0.80330 1.20900
Zn	Zn	0.07741 0.30486 0.20304 1.21000
Zn	Zn	0.74124 0.34069 0.46968 1.21200
N 	N 	0.44480 0.30680 0.92640 -0.26300
N 	N 	0.48330 0.35420 0.04180 -0.13700
N 	N 	0.62780 0.36020 0.26930 -0.13700
N 	N 	0.68810 0.32020 0.37240 -0.24100
N 	N 	0.36360 0.32320 0.73810 -0.26900
N 	N 	0.30680 0.38010 0.64450 -0.12200
N 	N 	0.20010 0.38900 0.37230 -0.12400
N 	N 	0.14400 0.33570 0.27630 -0.27100
N 	N 	0.78030 0.25450 0.53420 -0.26900
N 	N 	0.84590 0.17720 0.58250 -0.12200
N 	N 	0.92270 0.92540 0.51800 -0.12400
N 	N 	0.91730 0.84360 0.41420 -0.26800
O 	O 	0.43438 0.17010 0.78580 -0.45100
O 	O 	0.36151 0.16390 0.85990 -0.32700
O 	O 	0.53101 0.93320 0.71500 -0.33800
O 	O 	0.50317 0.81740 0.75380 -0.44900
O 	O 	0.34670 0.80200 0.93280 -0.32900
O 	O 	0.29743 0.90750 0.95390 -0.45300
O 	O 	0.00978 0.34380 0.24850 -0.45600
O 	O 	0.04426 0.46130 0.23480 -0.32000
O 	O 	0.82570 0.31400 0.35990 -0.33200
O 	O 	0.79587 0.41430 0.43020 -0.45100
O 	O 	0.85554 0.67880 0.35190 -0.32600
O 	O 	0.93464 0.69180 0.29340 -0.45300
C 	C 	0.48200 0.35380 0.95850 0.10600
H 	H 	0.50490 0.38360 0.92770 -0.01100
C 	C 	0.41970 0.27610 0.99250 -0.00700
H 	H 	0.39060 0.24080 0.98870 0.03200
C 	C 	0.44410 0.30530 0.06320 0.01900
H 	H 	0.43530 0.29390 0.11720 0.02200
C 	C 	0.52070 0.40240 0.09740 0.07500
H 	H 	0.49930 0.43760 0.12930 0.02600
H 	H 	0.54400 0.43360 0.06430 0.01600
C 	C 	0.55520 0.35170 0.15520 -0.34100
H 	H 	0.53080 0.32120 0.18730 0.14900
H 	H 	0.57440 0.31520 0.12160 0.14400
C 	C 	0.59150 0.38460 0.20750 0.15800
H 	H 	0.57030 0.42380 0.23440 0.01500
H 	H 	0.61420 0.41370 0.17140 -0.00800
C 	C 	0.65030 0.37690 0.34760 -1.78300
H 	H 	0.64140 0.41980 0.37930 0.65300
C 	C 	0.70460 0.28790 0.29670 -0.50000
H 	H 	0.73660 0.25980 0.29020 0.22300
C 	C 	0.66330 0.30640 0.23350 -0.28900
H 	H 	0.66000 0.28720 0.17920 0.16200
C 	C 	0.31100 0.30260 0.75080 0.01100
H 	H 	0.30110 0.26920 0.79260 0.02200
C 	C 	0.35880 0.37080 0.67530 0.10800
H 	H 	0.38840 0.39590 0.65380 -0.01600
C 	C 	0.27560 0.33750 0.69420 -0.01100
H 	H 	0.23740 0.33330 0.69000 0.05500
C 	C 	0.28510 0.42960 0.57470 -0.02300
H 	H 	0.31530 0.45680 0.55160 0.03100
H 	H 	0.26060 0.46850 0.59520 0.05200
C 	C 	0.25440 0.38180 0.50690 -0.14900
H 	H 	0.28050 0.35210 0.47710 0.09100
H 	H 	0.23030 0.34510 0.53210 0.09200
C 	C 	0.22090 0.43320 0.44630 -0.03100
H 	H 	0.19010 0.45490 0.47350 0.05500
H 	H 	0.24340 0.47630 0.42950 0.05800
C 	C 	0.23080 0.36240 0.31320 -0.00600
H 	H 	0.26880 0.36700 0.31260 0.05100
C 	C 	0.19650 0.32750 0.25440 0.00600
H 	H 	0.20700 0.30230 0.20700 0.02000
C 	C 	0.14880 0.37440 0.34530 0.11800
H 	H 	0.11880 0.39060 0.37320 -0.01300
C 	C 	0.82570 0.21990 0.51960 0.10400
H 	H 	0.84230 0.22490 0.46980 -0.00000
C 	C 	0.77580 0.23910 0.61520 0.01200
H 	H 	0.74900 0.25960 0.64690 0.02100
C 	C 	0.81570 0.18970 0.64400 0.00000
H 	H 	0.82070 0.16870 0.69740 0.04900
C 	C 	0.89670 0.13040 0.58660 -0.03600
H 	H 	0.91620 0.13590 0.64120 0.05200
H 	H 	0.92040 0.14870 0.54510 0.04400
C 	C 	0.88160 0.04130 0.57000 -0.14600
H 	H 	0.86270 0.02030 0.61600 0.08400
H 	H 	0.85760 0.03620 0.51920 0.08400
C 	C 	0.93380 0.99890 0.56190 -0.02200
H 	H 	0.95820 0.03070 0.53140 0.04100
H 	H 	0.95160 0.98860 0.61690 0.04700
C 	C 	0.91530 0.85500 0.55080 -0.00300
H 	H 	0.91250 0.84350 0.60690 0.03600
C 	C 	0.91260 0.80370 0.48660 0.01100
H 	H 	0.90820 0.74990 0.49110 0.02300
C 	C 	0.92390 0.91480 0.43630 0.09800
H 	H 	0.92900 0.95510 0.39900 -0.00400
C 	C 	0.39870 0.13310 0.82300 0.33700
C 	C 	0.40350 0.04520 0.82340 -0.11200
C 	C 	0.44490 0.00850 0.78580 0.04800
H 	H 	0.46940 0.03840 0.75770 0.04100
C 	C 	0.45120 0.92850 0.78830 -0.11300
C 	C 	0.49890 0.89210 0.74930 0.33400
C 	C 	0.41530 0.88450 0.83090 0.04900
H 	H 	0.41920 0.83050 0.83310 0.03600
C 	C 	0.37300 0.92040 0.87090 -0.11000
C 	C 	0.33690 0.87140 0.92230 0.33800
C 	C 	0.36730 0.00070 0.86550 0.04400
H 	H 	0.33870 0.02500 0.89050 0.03600
C 	C 	0.00760 0.41680 0.25420 0.34100
C 	C 	0.95640 0.45080 0.28750 -0.11100
C 	C 	0.91620 0.40360 0.31500 0.04600
H 	H 	0.91980 0.34960 0.31200 0.04200
C 	C 	0.87020 0.43560 0.34730 -0.11300
C 	C 	0.82770 0.38290 0.38010 0.34600
C 	C 	0.86490 0.51620 0.34990 0.05000
H 	H 	0.83440 0.53790 0.37240 0.03800
C 	C 	0.90370 0.56500 0.31990 -0.11100
C 	C 	0.95050 0.53150 0.28890 0.04100
H 	H 	0.97750 0.56330 0.26930 0.04600
C 	C 	0.89660 0.65180 0.32250 0.33900
C 	C 	0.67960 0.37010 0.30770 1.98900
H 	H 	0.70520 0.40600 0.29140 -0.66300
C 	C 	0.63930 0.27520 0.38090 0.19400
H 	H 	0.63320 0.23890 0.42220 -0.04000
C 	C 	0.60260 0.29790 0.31320 0.21000
H 	H 	0.56810 0.27650 0.29930 -0.04000
Zn	Zn	0.56858 0.78480 0.69670 1.20800
Zn	Zn	0.92259 0.80486 0.29696 1.20900
Zn	Zn	0.25876 0.84069 0.03032 1.21000
N 	N 	0.55520 0.80680 0.57360 -0.26400
N 	N 	0.51670 0.85420 0.45820 -0.13900
N 	N 	0.37220 0.86020 0.23070 -0.13800
N 	N 	0.31190 0.82020 0.12760 -0.24200
N 	N 	0.63640 0.82320 0.76190 -0.27000
N 	N 	0.69320 0.88010 0.85550 -0.12100
N 	N 	0.79990 0.88900 0.12770 -0.12300
N 	N 	0.85600 0.83570 0.22370 -0.27100
N 	N 	0.21970 0.75450 0.96580 -0.26900
N 	N 	0.15410 0.67720 0.91750 -0.12300
N 	N 	0.07730 0.42540 0.98200 -0.12300
N 	N 	0.08270 0.34360 0.08580 -0.26800
O 	O 	0.56562 0.67010 0.71420 -0.45100
O 	O 	0.63849 0.66390 0.64010 -0.32800
O 	O 	0.46899 0.43320 0.78500 -0.33800
O 	O 	0.49683 0.31740 0.74620 -0.44900
O 	O 	0.65330 0.30200 0.56720 -0.33000
O 	O 	0.70257 0.40750 0.54610 -0.45500
O 	O 	0.99022 0.84380 0.25150 -0.45600
O 	O 	0.95574 0.96130 0.26520 -0.32100
O 	O 	0.17430 0.81400 0.14010 -0.33200
O 	O 	0.20413 0.91430 0.06980 -0.45200
O 	O 	0.14446 0.17880 0.14810 -0.32600
O 	O 	0.06536 0.19180 0.20660 -0.45400
C 	C 	0.51800 0.85380 0.54150 0.10700
H 	H 	0.49510 0.88360 0.57230 -0.01100
C 	C 	0.58030 0.77610 0.50750 -0.00500
H 	H 	0.60940 0.74080 0.51130 0.03100
C 	C 	0.55590 0.80530 0.43680 0.01700
H 	H 	0.56470 0.79390 0.38280 0.02200
C 	C 	0.47930 0.90240 0.40260 0.07600
H 	H 	0.50070 0.93760 0.37070 0.02600
H 	H 	0.45600 0.93360 0.43570 0.01500
C 	C 	0.44480 0.85170 0.34480 -0.34200
H 	H 	0.46920 0.82120 0.31270 0.14900
H 	H 	0.42560 0.81520 0.37840 0.14400
C 	C 	0.40850 0.88460 0.29250 0.16000
H 	H 	0.42970 0.92380 0.26560 0.01400
H 	H 	0.38580 0.91370 0.32860 -0.00900
C 	C 	0.34970 0.87690 0.15240 -1.78200
H 	H 	0.35860 0.91980 0.12070 0.65200
C 	C 	0.29540 0.78790 0.20330 -0.50000
H 	H 	0.26340 0.75980 0.20980 0.22300
C 	C 	0.33670 0.80640 0.26650 -0.28900
H 	H 	0.34000 0.78720 0.32080 0.16200
C 	C 	0.68900 0.80260 0.74920 0.01100
H 	H 	0.69890 0.76920 0.70740 0.02200
C 	C 	0.64120 0.87080 0.82470 0.10800
H 	H 	0.61160 0.89590 0.84620 -0.01500
C 	C 	0.72440 0.83750 0.80580 -0.01200
H 	H 	0.76260 0.83330 0.81000 0.05500
C 	C 	0.71490 0.92960 0.92530 -0.02800
H 	H 	0.68470 0.95680 0.94840 0.03300
H 	H 	0.73940 0.96850 0.90480 0.05400
C 	C 	0.74560 0.88180 0.99310 -0.14000
H 	H 	0.71950 0.85210 0.02290 0.08800
H 	H 	0.76970 0.84510 0.96790 0.08900
C 	C 	0.77910 0.93320 0.05370 -0.03600
H 	H 	0.80990 0.95490 0.02650 0.05600
H 	H 	0.75660 0.97630 0.07050 0.05800
C 	C 	0.76920 0.86240 0.18680 -0.00600
H 	H 	0.73120 0.86700 0.18740 0.05100
C 	C 	0.80350 0.82750 0.24560 0.00600
H 	H 	0.79300 0.80230 0.29300 0.02000
C 	C 	0.85120 0.87440 0.15470 0.11800
H 	H 	0.88120 0.89060 0.12680 -0.01300
C 	C 	0.17430 0.71990 0.98040 0.10800
H 	H 	0.15770 0.72490 0.03020 -0.00300
C 	C 	0.22420 0.73910 0.88480 0.01200
H 	H 	0.25100 0.75960 0.85310 0.02200
C 	C 	0.18430 0.68970 0.85600 0.00000
H 	H 	0.17930 0.66870 0.80260 0.04900
C 	C 	0.10330 0.63040 0.91340 -0.03600
H 	H 	0.08380 0.63590 0.85880 0.05200
H 	H 	0.07960 0.64870 0.95490 0.04500
C 	C 	0.11840 0.54130 0.93000 -0.14600
H 	H 	0.13730 0.52030 0.88400 0.08400
H 	H 	0.14240 0.53620 0.98080 0.08500
C 	C 	0.06620 0.49890 0.93810 -0.02200
H 	H 	0.04180 0.53070 0.96860 0.04100
H 	H 	0.04840 0.48860 0.88310 0.04700
C 	C 	0.08470 0.35500 0.94920 -0.00300
H 	H 	0.08750 0.34350 0.89310 0.03600
C 	C 	0.08740 0.30370 0.01340 0.01100
H 	H 	0.09180 0.24990 0.00890 0.02300
C 	C 	0.07610 0.41480 0.06370 0.09700
H 	H 	0.07100 0.45510 0.10100 -0.00400
C 	C 	0.60130 0.63310 0.67700 0.33900
C 	C 	0.59650 0.54520 0.67660 -0.11600
C 	C 	0.55510 0.50850 0.71420 0.05300
H 	H 	0.53060 0.53840 0.74230 0.03900
C 	C 	0.54880 0.42850 0.71170 -0.11800
C 	C 	0.50110 0.39210 0.75070 0.33600
C 	C 	0.58470 0.38450 0.66910 0.05300
H 	H 	0.58080 0.33050 0.66690 0.03400
C 	C 	0.62700 0.42040 0.62910 -0.11600
C 	C 	0.66310 0.37140 0.57770 0.34000
C 	C 	0.63270 0.50070 0.63450 0.05000
H 	H 	0.66130 0.52500 0.60950 0.03500
C 	C 	0.99240 0.91680 0.24580 0.34300
C 	C 	0.04360 0.95080 0.21250 -0.11600
C 	C 	0.08380 0.90360 0.18500 0.05000
H 	H 	0.08020 0.84960 0.18800 0.04000
C 	C 	0.12980 0.93560 0.15270 -0.11700
C 	C 	0.17230 0.88290 0.11990 0.34800
C 	C 	0.13510 0.01620 0.15010 0.05600
H 	H 	0.16560 0.03790 0.12760 0.03700
C 	C 	0.09630 0.06500 0.18010 -0.11400
C 	C 	0.04950 0.03150 0.21110 0.04600
H 	H 	0.02250 0.06330 0.23070 0.04500
C 	C 	0.10340 0.15180 0.17750 0.34000
C 	C 	0.32040 0.87010 0.19230 1.98800
H 	H 	0.29480 0.90600 0.20860 -0.66300
C 	C 	0.36070 0.77520 0.11910 0.19400
H 	H 	0.36680 0.73890 0.07780 -0.04000
C 	C 	0.39740 0.79790 0.18680 0.20900
H 	H 	0.43190 0.77650 0.20070 -0.04000
Zn	Zn	0.56858 0.71520 0.19670 1.20800
Zn	Zn	0.92259 0.69514 0.79696 1.20900
Zn	Zn	0.25876 0.65931 0.53032 1.21100
N 	N 	0.55520 0.69320 0.07360 -0.26400
N 	N 	0.51670 0.64580 0.95820 -0.13800
N 	N 	0.37220 0.63980 0.73070 -0.13800
N 	N 	0.31190 0.67980 0.62760 -0.24200
N 	N 	0.63640 0.67680 0.26190 -0.27000
N 	N 	0.69320 0.61990 0.35550 -0.12200
N 	N 	0.79990 0.61100 0.62770 -0.12400
N 	N 	0.85600 0.66430 0.72370 -0.27100
N 	N 	0.21970 0.74550 0.46580 -0.26900
N 	N 	0.15410 0.82280 0.41750 -0.12200
N 	N 	0.07730 0.07460 0.48200 -0.12400
N 	N 	0.08270 0.15640 0.58580 -0.26800
O 	O 	0.56562 0.82990 0.21420 -0.45100
O 	O 	0.63849 0.83610 0.14010 -0.32700
O 	O 	0.46899 0.06680 0.28500 -0.33800
O 	O 	0.49683 0.18260 0.24620 -0.44900
O 	O 	0.65330 0.19800 0.06720 -0.32900
O 	O 	0.70257 0.09250 0.04610 -0.45300
O 	O 	0.99022 0.65620 0.75150 -0.45600
O 	O 	0.95574 0.53870 0.76520 -0.32000
O 	O 	0.17430 0.68600 0.64010 -0.33200
O 	O 	0.20413 0.58570 0.56980 -0.45100
O 	O 	0.14446 0.32120 0.64810 -0.32600
O 	O 	0.06536 0.30820 0.70660 -0.45300
C 	C 	0.51800 0.64620 0.04150 0.10600
H 	H 	0.49510 0.61640 0.07230 -0.01100
C 	C 	0.58030 0.72390 0.00750 -0.00700
H 	H 	0.60940 0.75920 0.01130 0.03200
C 	C 	0.55590 0.69470 0.93680 0.01900
H 	H 	0.56470 0.70610 0.88280 0.02200
C 	C 	0.47930 0.59760 0.90260 0.07500
H 	H 	0.50070 0.56240 0.87070 0.02600
H 	H 	0.45600 0.56640 0.93570 0.01600
C 	C 	0.44480 0.64830 0.84480 -0.34100
H 	H 	0.46920 0.67880 0.81270 0.14900
H 	H 	0.42560 0.68480 0.87840 0.14400
C 	C 	0.40850 0.61540 0.79250 0.15800
H 	H 	0.42970 0.57620 0.76560 0.01500
H 	H 	0.38580 0.58630 0.82860 -0.00800
C 	C 	0.34970 0.62310 0.65240 -1.78300
H 	H 	0.35860 0.58020 0.62070 0.65300
C 	C 	0.29540 0.71210 0.70330 -0.50000
H 	H 	0.26340 0.74020 0.70980 0.22300
C 	C 	0.33670 0.69360 0.76650 -0.28900
H 	H 	0.34000 0.71280 0.82080 0.16200
C 	C 	0.68900 0.69740 0.24920 0.01100
H 	H 	0.69890 0.73080 0.20740 0.02200
C 	C 	0.64120 0.62920 0.32470 0.10800
H 	H 	0.61160 0.60410 0.34620 -0.01600
C 	C 	0.72440 0.66250 0.30580 -0.01100
H 	H 	0.76260 0.66670 0.31000 0.05500
C 	C 	0.71490 0.57040 0.42530 -0.02300
H 	H 	0.68470 0.54320 0.44840 0.03100
H 	H 	0.73940 0.53150 0.40480 0.05200
C 	C 	0.74560 0.61820 0.49310 -0.14900
H 	H 	0.71950 0.64790 0.52290 0.09100
H 	H 	0.76970 0.65490 0.46790 0.09200
C 	C 	0.77910 0.56680 0.55370 -0.03100
H 	H 	0.80990 0.54510 0.52650 0.05500
H 	H 	0.75660 0.52370 0.57050 0.05800
C 	C 	0.76920 0.63760 0.68680 -0.00600
H 	H 	0.73120 0.63300 0.68740 0.05100
C 	C 	0.80350 0.67250 0.74560 0.00600
H 	H 	0.79300 0.69770 0.79300 0.02000
C 	C 	0.85120 0.62560 0.65470 0.11800
H 	H 	0.88120 0.60940 0.62680 -0.01300
C 	C 	0.17430 0.78010 0.48040 0.10400
H 	H 	0.15770 0.77510 0.53020 -0.00000
C 	C 	0.22420 0.76090 0.38480 0.01200
H 	H 	0.25100 0.74040 0.35310 0.02100
C 	C 	0.18430 0.81030 0.35600 0.00000
H 	H 	0.17930 0.83130 0.30260 0.04900
C 	C 	0.10330 0.86960 0.41340 -0.03600
H 	H 	0.08380 0.86410 0.35880 0.05200
H 	H 	0.07960 0.85130 0.45490 0.04400
C 	C 	0.11840 0.95870 0.43000 -0.14600
H 	H 	0.13730 0.97970 0.38400 0.08400
H 	H 	0.14240 0.96380 0.48080 0.08400
C 	C 	0.06620 0.00110 0.43810 -0.02200
H 	H 	0.04180 0.96930 0.46860 0.04100
H 	H 	0.04840 0.01140 0.38310 0.04700
C 	C 	0.08470 0.14500 0.44920 -0.00300
H 	H 	0.08750 0.15650 0.39310 0.03600
C 	C 	0.08740 0.19630 0.51340 0.01100
H 	H 	0.09180 0.25010 0.50890 0.02300
C 	C 	0.07610 0.08520 0.56370 0.09800
H 	H 	0.07100 0.04490 0.60100 -0.00400
C 	C 	0.60130 0.86690 0.17700 0.33700
C 	C 	0.59650 0.95480 0.17660 -0.11200
C 	C 	0.55510 0.99150 0.21420 0.04800
H 	H 	0.53060 0.96160 0.24230 0.04100
C 	C 	0.54880 0.07150 0.21170 -0.11300
C 	C 	0.50110 0.10790 0.25070 0.33400
C 	C 	0.58470 0.11550 0.16910 0.04900
H 	H 	0.58080 0.16950 0.16690 0.03600
C 	C 	0.62700 0.07960 0.12910 -0.11000
C 	C 	0.66310 0.12860 0.07770 0.33800
C 	C 	0.63270 0.99930 0.13450 0.04400
H 	H 	0.66130 0.97500 0.10950 0.03600
C 	C 	0.99240 0.58320 0.74580 0.34100
C 	C 	0.04360 0.54920 0.71250 -0.11100
C 	C 	0.08380 0.59640 0.68500 0.04600
H 	H 	0.08020 0.65040 0.68800 0.04200
C 	C 	0.12980 0.56440 0.65270 -0.11300
C 	C 	0.17230 0.61710 0.61990 0.34600
C 	C 	0.13510 0.48380 0.65010 0.05000
H 	H 	0.16560 0.46210 0.62760 0.03800
C 	C 	0.09630 0.43500 0.68010 -0.11100
C 	C 	0.04950 0.46850 0.71110 0.04100
H 	H 	0.02250 0.43670 0.73070 0.04600
C 	C 	0.10340 0.34820 0.67750 0.33900
C 	C 	0.32040 0.62990 0.69230 1.98900
H 	H 	0.29480 0.59400 0.70860 -0.66300
C 	C 	0.36070 0.72480 0.61910 0.19400
H 	H 	0.36680 0.76110 0.57780 -0.04000
C 	C 	0.39740 0.70210 0.68680 0.21000
H 	H 	0.43190 0.72350 0.70070 -0.04000
Zn	Zn	0.43142 0.21520 0.30330 1.20800
Zn	Zn	0.07741 0.19514 0.70304 1.20900
Zn	Zn	0.74124 0.15931 0.96968 1.21000
N 	N 	0.44480 0.19320 0.42640 -0.26400
N 	N 	0.48330 0.14580 0.54180 -0.13900
N 	N 	0.62780 0.13980 0.76930 -0.13800
N 	N 	0.68810 0.17980 0.87240 -0.24200
N 	N 	0.36360 0.17680 0.23810 -0.27000
N 	N 	0.30680 0.11990 0.14450 -0.12100
N 	N 	0.20010 0.11100 0.87230 -0.12300
N 	N 	0.14400 0.16430 0.77630 -0.27100
N 	N 	0.78030 0.24550 0.03420 -0.26900
N 	N 	0.84590 0.32280 0.08250 -0.12300
N 	N 	0.92270 0.57460 0.01800 -0.12300
N 	N 	0.91730 0.65640 0.91420 -0.26800
O 	O 	0.43438 0.32990 0.28580 -0.45100
O 	O 	0.36151 0.33610 0.35990 -0.32800
O 	O 	0.53101 0.56680 0.21500 -0.33800
O 	O 	0.50317 0.68260 0.25380 -0.44900
O 	O 	0.34670 0.69800 0.43280 -0.33000
O 	O 	0.29743 0.59250 0.45390 -0.45500
O 	O 	0.00978 0.15620 0.74850 -0.45600
O 	O 	0.04426 0.03870 0.73480 -0.32100
O 	O 	0.82570 0.18600 0.85990 -0.33200
O 	O 	0.79587 0.08570 0.93020 -0.45200
O 	O 	0.85554 0.82120 0.85190 -0.32600
O 	O 	0.93464 0.80820 0.79340 -0.45400
C 	C 	0.48200 0.14620 0.45850 0.10700
H 	H 	0.50490 0.11640 0.42770 -0.01100
C 	C 	0.41970 0.22390 0.49250 -0.00500
H 	H 	0.39060 0.25920 0.48870 0.03100
C 	C 	0.44410 0.19470 0.56320 0.01700
H 	H 	0.43530 0.20610 0.61720 0.02200
C 	C 	0.52070 0.09760 0.59740 0.07600
H 	H 	0.49930 0.06240 0.62930 0.02600
H 	H 	0.54400 0.06640 0.56430 0.01500
C 	C 	0.55520 0.14830 0.65520 -0.34200
H 	H 	0.53080 0.17880 0.68730 0.14900
H 	H 	0.57440 0.18480 0.62160 0.14400
C 	C 	0.59150 0.11540 0.70750 0.16000
H 	H 	0.57030 0.07620 0.73440 0.01400
H 	H 	0.61420 0.08630 0.67140 -0.00900
C 	C 	0.65030 0.12310 0.84760 -1.78200
H 	H 	0.64140 0.08020 0.87930 0.65200
C 	C 	0.70460 0.21210 0.79670 -0.50000
H 	H 	0.73660 0.24020 0.79020 0.22300
C 	C 	0.66330 0.19360 0.73350 -0.28900
H 	H 	0.66000 0.21280 0.67920 0.16200
C 	C 	0.31100 0.19740 0.25080 0.01100
H 	H 	0.30110 0.23080 0.29260 0.02200
C 	C 	0.35880 0.12920 0.17530 0.10800
H 	H 	0.38840 0.10410 0.15380 -0.01500
C 	C 	0.27560 0.16250 0.19420 -0.01200
H 	H 	0.23740 0.16670 0.19000 0.05500
C 	C 	0.28510 0.07040 0.07470 -0.02800
H 	H 	0.31530 0.04320 0.05160 0.03300
H 	H 	0.26060 0.03150 0.09520 0.05400
C 	C 	0.25440 0.11820 0.00690 -0.14000
H 	H 	0.28050 0.14790 0.97710 0.08800
H 	H 	0.23030 0.15490 0.03210 0.08900
C 	C 	0.22090 0.06680 0.94630 -0.03600
H 	H 	0.19010 0.04510 0.97350 0.05600
H 	H 	0.24340 0.02370 0.92950 0.05800
C 	C 	0.23080 0.13760 0.81320 -0.00600
H 	H 	0.26880 0.13300 0.81260 0.05100
C 	C 	0.19650 0.17250 0.75440 0.00600
H 	H 	0.20700 0.19770 0.70700 0.02000
C 	C 	0.14880 0.12560 0.84530 0.11800
H 	H 	0.11880 0.10940 0.87320 -0.01300
C 	C 	0.82570 0.28010 0.01960 0.10800
H 	H 	0.84230 0.27510 0.96980 -0.00300
C 	C 	0.77580 0.26090 0.11520 0.01200
H 	H 	0.74900 0.24040 0.14690 0.02200
C 	C 	0.81570 0.31030 0.14400 0.00000
H 	H 	0.82070 0.33130 0.19740 0.04900
C 	C 	0.89670 0.36960 0.08660 -0.03600
H 	H 	0.91620 0.36410 0.14120 0.05200
H 	H 	0.92040 0.35130 0.04510 0.04500
C 	C 	0.88160 0.45870 0.07000 -0.14600
H 	H 	0.86270 0.47970 0.11600 0.08400
H 	H 	0.85760 0.46380 0.01920 0.08500
C 	C 	0.93380 0.50110 0.06190 -0.02200
H 	H 	0.95820 0.46930 0.03140 0.04100
H 	H 	0.95160 0.51140 0.11690 0.04700
C 	C 	0.91530 0.64500 0.05080 -0.00300
H 	H 	0.91250 0.65650 0.10690 0.03600
C 	C 	0.91260 0.69630 0.98660 0.01100
H 	H 	0.90820 0.75010 0.99110 0.02300
C 	C 	0.92390 0.58520 0.93630 0.09700
H 	H 	0.92900 0.54490 0.89900 -0.00400
C 	C 	0.39870 0.36690 0.32300 0.33900
C 	C 	0.40350 0.45480 0.32340 -0.11600
C 	C 	0.44490 0.49150 0.28580 0.05300
H 	H 	0.46940 0.46160 0.25770 0.03900
C 	C 	0.45120 0.57150 0.28830 -0.11800
C 	C 	0.49890 0.60790 0.24930 0.33600
C 	C 	0.41530 0.61550 0.33090 0.05300
H 	H 	0.41920 0.66950 0.33310 0.03400
C 	C 	0.37300 0.57960 0.37090 -0.11600
C 	C 	0.33690 0.62860 0.42230 0.34000
C 	C 	0.36730 0.49930 0.36550 0.05000
H 	H 	0.33870 0.47500 0.39050 0.03500
C 	C 	0.00760 0.08320 0.75420 0.34300
C 	C 	0.95640 0.04920 0.78750 -0.11600
C 	C 	0.91620 0.09640 0.81500 0.05000
H 	H 	0.91980 0.15040 0.81200 0.04000
C 	C 	0.87020 0.06440 0.84730 -0.11700
C 	C 	0.82770 0.11710 0.88010 0.34800
C 	C 	0.86490 0.98380 0.84990 0.05600
H 	H 	0.83440 0.96210 0.87240 0.03700
C 	C 	0.90370 0.93500 0.81990 -0.11400
C 	C 	0.95050 0.96850 0.78890 0.04600
H 	H 	0.97750 0.93670 0.76930 0.04500
C 	C 	0.89660 0.84820 0.82250 0.34000
C 	C 	0.67960 0.12990 0.80770 1.98800
H 	H 	0.70520 0.09400 0.79140 -0.66300
C 	C 	0.63930 0.22480 0.88090 0.19400
H 	H 	0.63320 0.26110 0.92220 -0.04000
C 	C 	0.60260 0.20210 0.81320 0.20900
H 	H 	0.56810 0.22350 0.79930 -0.04000
