data_crystal

_cell_length_a 20.83200
_cell_length_b 20.83200
_cell_length_c 20.83200
_cell_angle_alpha 90.00000
_cell_angle_beta  90.00000
_cell_angle_gamma 90.00000

_symmetry_space_group_name_	'P 1'
_symmetry_space_group_name_H-M	'P 1'

loop_
_symmetry_equiv_pos_as_xyz
  x,y,z

loop_
_atom_site_label
_atom_site_type_symbol
_atom_site_fract_x
_atom_site_fract_y
_atom_site_fract_z
_atom_site_charge
Cl	Cl	0.05330 0.39878 0.05759 -0.57500
N 	N 	0.19530 0.17640 0.02790 -0.15900
N 	N 	0.17550 0.19700 0.97100 -0.10300
N 	N 	0.15800 0.19740 0.07360 -0.16000
N 	N 	0.11140 0.23320 0.04730 -0.18100
C 	C 	0.12370 0.23230 0.98490 0.12200
C 	C 	0.08630 0.26580 0.93530 -0.01800
C 	C 	0.11750 0.29850 0.88620 -0.02400
H 	H 	0.16300 0.29980 0.88500 0.05000
C 	C 	0.08200 0.32940 0.83890 -0.03400
H 	H 	0.10320 0.35180 0.80540 0.05300
C 	C 	0.01530 0.32760 0.84070 0.02800
C 	C 	0.98410 0.29480 0.88980 -0.03000
H 	H 	0.93850 0.29360 0.89100 0.08500
C 	C 	0.01960 0.26390 0.93710 -0.03400
H 	H 	0.99830 0.24160 0.97060 0.04400
C 	C 	0.97700 0.36090 0.78970 0.28700
O 	O 	0.91910 0.34710 0.78180 -0.25200
N 	N 	0.00480 0.40550 0.75260 -0.24500
H 	H 	0.04870 0.41600 0.75860 0.14400
Cl	Cl	0.44670 0.60122 0.55759 -0.57700
N 	N 	0.30470 0.82360 0.52790 -0.16000
N 	N 	0.32450 0.80300 0.47100 -0.10400
N 	N 	0.34200 0.80260 0.57360 -0.16100
N 	N 	0.38860 0.76680 0.54730 -0.18200
C 	C 	0.37630 0.76770 0.48490 0.12200
C 	C 	0.41370 0.73420 0.43530 -0.01800
C 	C 	0.38250 0.70150 0.38620 -0.02400
H 	H 	0.33700 0.70020 0.38500 0.05000
C 	C 	0.41800 0.67060 0.33890 -0.03400
H 	H 	0.39680 0.64820 0.30540 0.05300
C 	C 	0.48470 0.67240 0.34070 0.02700
C 	C 	0.51590 0.70520 0.38980 -0.03000
H 	H 	0.56150 0.70640 0.39100 0.08500
C 	C 	0.48040 0.73610 0.43710 -0.03400
H 	H 	0.50170 0.75840 0.47060 0.04400
C 	C 	0.52300 0.63910 0.28970 0.28700
O 	O 	0.58090 0.65290 0.28180 -0.25200
N 	N 	0.49520 0.59450 0.25260 -0.24500
H 	H 	0.45130 0.58400 0.25860 0.14400
Cl	Cl	0.94670 0.89878 0.44241 -0.57700
N 	N 	0.80470 0.67640 0.47210 -0.16000
N 	N 	0.82450 0.69700 0.52900 -0.10400
N 	N 	0.84200 0.69740 0.42640 -0.16100
N 	N 	0.88860 0.73320 0.45270 -0.18200
C 	C 	0.87630 0.73230 0.51510 0.12200
C 	C 	0.91370 0.76580 0.56470 -0.01800
C 	C 	0.88250 0.79850 0.61380 -0.02400
H 	H 	0.83700 0.79980 0.61500 0.05000
C 	C 	0.91800 0.82940 0.66110 -0.03400
H 	H 	0.89680 0.85180 0.69460 0.05300
C 	C 	0.98470 0.82760 0.65930 0.02800
C 	C 	0.01590 0.79480 0.61020 -0.03100
H 	H 	0.06150 0.79360 0.60900 0.08500
C 	C 	0.98040 0.76390 0.56290 -0.03400
H 	H 	0.00170 0.74160 0.52940 0.04400
C 	C 	0.02300 0.86090 0.71030 0.28700
O 	O 	0.08090 0.84710 0.71820 -0.25200
N 	N 	0.99520 0.90550 0.74740 -0.24500
H 	H 	0.95130 0.91600 0.74140 0.14400
Cl	Cl	0.55330 0.10122 0.94241 -0.57700
N 	N 	0.69530 0.32360 0.97210 -0.16000
N 	N 	0.67550 0.30300 0.02900 -0.10400
N 	N 	0.65800 0.30260 0.92640 -0.16100
N 	N 	0.61140 0.26680 0.95270 -0.18200
C 	C 	0.62370 0.26770 0.01510 0.12200
C 	C 	0.58630 0.23420 0.06470 -0.01800
C 	C 	0.61750 0.20150 0.11380 -0.02400
H 	H 	0.66300 0.20020 0.11500 0.05000
C 	C 	0.58200 0.17060 0.16110 -0.03400
H 	H 	0.60320 0.14820 0.19460 0.05300
C 	C 	0.51530 0.17240 0.15930 0.02800
C 	C 	0.48410 0.20520 0.11020 -0.03000
H 	H 	0.43850 0.20640 0.10900 0.08500
C 	C 	0.51960 0.23610 0.06290 -0.03400
H 	H 	0.49830 0.25840 0.02940 0.04400
C 	C 	0.47700 0.13910 0.21030 0.28700
O 	O 	0.41910 0.15290 0.21820 -0.25200
N 	N 	0.50480 0.09450 0.24740 -0.24500
H 	H 	0.54870 0.08400 0.24140 0.14400
Cl	Cl	0.05759 0.05330 0.39878 -0.57600
N 	N 	0.02790 0.19530 0.17640 -0.16000
N 	N 	0.97100 0.17550 0.19700 -0.10400
N 	N 	0.07360 0.15800 0.19740 -0.16100
N 	N 	0.04730 0.11140 0.23320 -0.18200
C 	C 	0.98490 0.12370 0.23230 0.12200
C 	C 	0.93530 0.08630 0.26580 -0.01800
C 	C 	0.88620 0.11750 0.29850 -0.02400
H 	H 	0.88500 0.16300 0.29980 0.05000
C 	C 	0.83890 0.08200 0.32940 -0.03400
H 	H 	0.80540 0.10320 0.35180 0.05300
C 	C 	0.84070 0.01530 0.32760 0.02800
C 	C 	0.88980 0.98410 0.29480 -0.03000
H 	H 	0.89100 0.93850 0.29360 0.08500
C 	C 	0.93710 0.01960 0.26390 -0.03400
H 	H 	0.97060 0.99830 0.24160 0.04400
C 	C 	0.78970 0.97700 0.36090 0.28700
O 	O 	0.78180 0.91910 0.34710 -0.25200
N 	N 	0.75260 0.00480 0.40550 -0.24500
H 	H 	0.75860 0.04870 0.41600 0.14400
Cl	Cl	0.55759 0.44670 0.60122 -0.57700
N 	N 	0.52790 0.30470 0.82360 -0.16000
N 	N 	0.47100 0.32450 0.80300 -0.10400
N 	N 	0.57360 0.34200 0.80260 -0.16100
N 	N 	0.54730 0.38860 0.76680 -0.18200
C 	C 	0.48490 0.37630 0.76770 0.12200
C 	C 	0.43530 0.41370 0.73420 -0.01800
C 	C 	0.38620 0.38250 0.70150 -0.02400
H 	H 	0.38500 0.33700 0.70020 0.05000
C 	C 	0.33890 0.41800 0.67060 -0.03400
H 	H 	0.30540 0.39680 0.64820 0.05300
C 	C 	0.34070 0.48470 0.67240 0.02700
C 	C 	0.38980 0.51590 0.70520 -0.03000
H 	H 	0.39100 0.56150 0.70640 0.08500
C 	C 	0.43710 0.48040 0.73610 -0.03400
H 	H 	0.47060 0.50170 0.75840 0.04400
C 	C 	0.28970 0.52300 0.63910 0.28700
O 	O 	0.28180 0.58090 0.65290 -0.25200
N 	N 	0.25260 0.49520 0.59450 -0.24500
H 	H 	0.25860 0.45130 0.58400 0.14400
Cl	Cl	0.44241 0.94670 0.89878 -0.57700
N 	N 	0.47210 0.80470 0.67640 -0.16000
N 	N 	0.52900 0.82450 0.69700 -0.10400
N 	N 	0.42640 0.84200 0.69740 -0.16100
N 	N 	0.45270 0.88860 0.73320 -0.18200
C 	C 	0.51510 0.87630 0.73230 0.12200
C 	C 	0.56470 0.91370 0.76580 -0.01800
C 	C 	0.61380 0.88250 0.79850 -0.02400
H 	H 	0.61500 0.83700 0.79980 0.05000
C 	C 	0.66110 0.91800 0.82940 -0.03400
H 	H 	0.69460 0.89680 0.85180 0.05300
C 	C 	0.65930 0.98470 0.82760 0.02800
C 	C 	0.61020 0.01590 0.79480 -0.03100
H 	H 	0.60900 0.06150 0.79360 0.08500
C 	C 	0.56290 0.98040 0.76390 -0.03400
H 	H 	0.52940 0.00170 0.74160 0.04400
C 	C 	0.71030 0.02300 0.86090 0.28700
O 	O 	0.71820 0.08090 0.84710 -0.25200
N 	N 	0.74740 0.99520 0.90550 -0.24500
H 	H 	0.74140 0.95130 0.91600 0.14400
Cl	Cl	0.94241 0.55330 0.10122 -0.57700
N 	N 	0.97210 0.69530 0.32360 -0.16000
N 	N 	0.02900 0.67550 0.30300 -0.10400
N 	N 	0.92640 0.65800 0.30260 -0.16100
N 	N 	0.95270 0.61140 0.26680 -0.18200
C 	C 	0.01510 0.62370 0.26770 0.12200
C 	C 	0.06470 0.58630 0.23420 -0.01800
C 	C 	0.11380 0.61750 0.20150 -0.02400
H 	H 	0.11500 0.66300 0.20020 0.05000
C 	C 	0.16110 0.58200 0.17060 -0.03400
H 	H 	0.19460 0.60320 0.14820 0.05300
C 	C 	0.15930 0.51530 0.17240 0.02800
C 	C 	0.11020 0.48410 0.20520 -0.03000
H 	H 	0.10900 0.43850 0.20640 0.08500
C 	C 	0.06290 0.51960 0.23610 -0.03400
H 	H 	0.02940 0.49830 0.25840 0.04400
C 	C 	0.21030 0.47700 0.13910 0.28700
O 	O 	0.21820 0.41910 0.15290 -0.25200
N 	N 	0.24740 0.50480 0.09450 -0.24500
H 	H 	0.24140 0.54870 0.08400 0.14400
Cl	Cl	0.39878 0.05759 0.05330 -0.57600
N 	N 	0.17640 0.02790 0.19530 -0.16000
N 	N 	0.19700 0.97100 0.17550 -0.10400
N 	N 	0.19740 0.07360 0.15800 -0.16100
N 	N 	0.23320 0.04730 0.11140 -0.18200
C 	C 	0.23230 0.98490 0.12370 0.12200
C 	C 	0.26580 0.93530 0.08630 -0.01800
C 	C 	0.29850 0.88620 0.11750 -0.02400
H 	H 	0.29980 0.88500 0.16300 0.05000
C 	C 	0.32940 0.83890 0.08200 -0.03400
H 	H 	0.35180 0.80540 0.10320 0.05300
C 	C 	0.32760 0.84070 0.01530 0.02800
C 	C 	0.29480 0.88980 0.98410 -0.03000
H 	H 	0.29360 0.89100 0.93850 0.08500
C 	C 	0.26390 0.93710 0.01960 -0.03400
H 	H 	0.24160 0.97060 0.99830 0.04400
C 	C 	0.36090 0.78970 0.97700 0.28700
O 	O 	0.34710 0.78180 0.91910 -0.25200
N 	N 	0.40550 0.75260 0.00480 -0.24500
H 	H 	0.41600 0.75860 0.04870 0.14400
Cl	Cl	0.60122 0.55759 0.44670 -0.57700
N 	N 	0.82360 0.52790 0.30470 -0.16000
N 	N 	0.80300 0.47100 0.32450 -0.10400
N 	N 	0.80260 0.57360 0.34200 -0.16100
N 	N 	0.76680 0.54730 0.38860 -0.18200
C 	C 	0.76770 0.48490 0.37630 0.12200
C 	C 	0.73420 0.43530 0.41370 -0.01800
C 	C 	0.70150 0.38620 0.38250 -0.02400
H 	H 	0.70020 0.38500 0.33700 0.05000
C 	C 	0.67060 0.33890 0.41800 -0.03400
H 	H 	0.64820 0.30540 0.39680 0.05300
C 	C 	0.67240 0.34070 0.48470 0.02700
C 	C 	0.70520 0.38980 0.51590 -0.03000
H 	H 	0.70640 0.39100 0.56150 0.08500
C 	C 	0.73610 0.43710 0.48040 -0.03400
H 	H 	0.75840 0.47060 0.50170 0.04400
C 	C 	0.63910 0.28970 0.52300 0.28700
O 	O 	0.65290 0.28180 0.58090 -0.25200
N 	N 	0.59450 0.25260 0.49520 -0.24500
H 	H 	0.58400 0.25860 0.45130 0.14400
Cl	Cl	0.89878 0.44241 0.94670 -0.57700
N 	N 	0.67640 0.47210 0.80470 -0.16000
N 	N 	0.69700 0.52900 0.82450 -0.10400
N 	N 	0.69740 0.42640 0.84200 -0.16100
N 	N 	0.73320 0.45270 0.88860 -0.18200
C 	C 	0.73230 0.51510 0.87630 0.12200
C 	C 	0.76580 0.56470 0.91370 -0.01800
C 	C 	0.79850 0.61380 0.88250 -0.02400
H 	H 	0.79980 0.61500 0.83700 0.05000
C 	C 	0.82940 0.66110 0.91800 -0.03400
H 	H 	0.85180 0.69460 0.89680 0.05300
C 	C 	0.82760 0.65930 0.98470 0.02800
C 	C 	0.79480 0.61020 0.01590 -0.03100
H 	H 	0.79360 0.60900 0.06150 0.08500
C 	C 	0.76390 0.56290 0.98040 -0.03400
H 	H 	0.74160 0.52940 0.00170 0.04400
C 	C 	0.86090 0.71030 0.02300 0.28700
O 	O 	0.84710 0.71820 0.08090 -0.25200
N 	N 	0.90550 0.74740 0.99520 -0.24500
H 	H 	0.91600 0.74140 0.95130 0.14400
Cl	Cl	0.10122 0.94241 0.55330 -0.57700
N 	N 	0.32360 0.97210 0.69530 -0.16000
N 	N 	0.30300 0.02900 0.67550 -0.10400
N 	N 	0.30260 0.92640 0.65800 -0.16100
N 	N 	0.26680 0.95270 0.61140 -0.18200
C 	C 	0.26770 0.01510 0.62370 0.12200
C 	C 	0.23420 0.06470 0.58630 -0.01800
C 	C 	0.20150 0.11380 0.61750 -0.02400
H 	H 	0.20020 0.11500 0.66300 0.05000
C 	C 	0.17060 0.16110 0.58200 -0.03400
H 	H 	0.14820 0.19460 0.60320 0.05300
C 	C 	0.17240 0.15930 0.51530 0.02800
C 	C 	0.20520 0.11020 0.48410 -0.03000
H 	H 	0.20640 0.10900 0.43850 0.08500
C 	C 	0.23610 0.06290 0.51960 -0.03400
H 	H 	0.25840 0.02940 0.49830 0.04400
C 	C 	0.13910 0.21030 0.47700 0.28700
O 	O 	0.15290 0.21820 0.41910 -0.25200
N 	N 	0.09450 0.24740 0.50480 -0.24500
H 	H 	0.08400 0.24140 0.54870 0.14400
Cl	Cl	0.14878 0.30330 0.19241 -0.57700
N 	N 	0.92640 0.44530 0.22210 -0.16000
N 	N 	0.94700 0.42550 0.27900 -0.10400
N 	N 	0.94740 0.40800 0.17640 -0.16100
N 	N 	0.98320 0.36140 0.20270 -0.18200
C 	C 	0.98230 0.37370 0.26510 0.12200
C 	C 	0.01580 0.33630 0.31470 -0.01800
C 	C 	0.04850 0.36750 0.36380 -0.02400
H 	H 	0.04980 0.41300 0.36500 0.05000
C 	C 	0.07940 0.33200 0.41110 -0.03400
H 	H 	0.10180 0.35320 0.44460 0.05300
C 	C 	0.07760 0.26530 0.40930 0.02800
C 	C 	0.04480 0.23410 0.36020 -0.03100
H 	H 	0.04360 0.18850 0.35900 0.08500
C 	C 	0.01390 0.26960 0.31290 -0.03400
H 	H 	0.99160 0.24830 0.27940 0.04400
C 	C 	0.11090 0.22700 0.46030 0.28700
O 	O 	0.09710 0.16910 0.46820 -0.25200
N 	N 	0.15550 0.25480 0.49740 -0.24500
H 	H 	0.16600 0.29870 0.49140 0.14400
Cl	Cl	0.35122 0.69670 0.69241 -0.57700
N 	N 	0.57360 0.55470 0.72210 -0.16000
N 	N 	0.55300 0.57450 0.77900 -0.10400
N 	N 	0.55260 0.59200 0.67640 -0.16100
N 	N 	0.51680 0.63860 0.70270 -0.18200
C 	C 	0.51770 0.62630 0.76510 0.12200
C 	C 	0.48420 0.66370 0.81470 -0.01800
C 	C 	0.45150 0.63250 0.86380 -0.02400
H 	H 	0.45020 0.58700 0.86500 0.05000
C 	C 	0.42060 0.66800 0.91110 -0.03400
H 	H 	0.39820 0.64680 0.94460 0.05300
C 	C 	0.42240 0.73470 0.90930 0.02800
C 	C 	0.45520 0.76590 0.86020 -0.03000
H 	H 	0.45640 0.81150 0.85900 0.08500
C 	C 	0.48610 0.73040 0.81290 -0.03400
H 	H 	0.50840 0.75170 0.77940 0.04400
C 	C 	0.38910 0.77300 0.96030 0.28700
O 	O 	0.40290 0.83090 0.96820 -0.25200
N 	N 	0.34450 0.74520 0.99740 -0.24500
H 	H 	0.33400 0.70130 0.99140 0.14400
Cl	Cl	0.64878 0.19670 0.80759 -0.57700
N 	N 	0.42640 0.05470 0.77790 -0.16000
N 	N 	0.44700 0.07450 0.72100 -0.10400
N 	N 	0.44740 0.09200 0.82360 -0.16100
N 	N 	0.48320 0.13860 0.79730 -0.18200
C 	C 	0.48230 0.12630 0.73490 0.12200
C 	C 	0.51580 0.16370 0.68530 -0.01800
C 	C 	0.54850 0.13250 0.63620 -0.02400
H 	H 	0.54980 0.08700 0.63500 0.05000
C 	C 	0.57940 0.16800 0.58890 -0.03400
H 	H 	0.60180 0.14680 0.55540 0.05300
C 	C 	0.57760 0.23470 0.59070 0.02700
C 	C 	0.54480 0.26590 0.63980 -0.03000
H 	H 	0.54360 0.31150 0.64100 0.08500
C 	C 	0.51390 0.23040 0.68710 -0.03400
H 	H 	0.49160 0.25170 0.72060 0.04400
C 	C 	0.61090 0.27300 0.53970 0.28700
O 	O 	0.59710 0.33090 0.53180 -0.25200
N 	N 	0.65550 0.24520 0.50260 -0.24500
H 	H 	0.66600 0.20130 0.50860 0.14400
Cl	Cl	0.85122 0.80330 0.30759 -0.57700
N 	N 	0.07360 0.94530 0.27790 -0.16000
N 	N 	0.05300 0.92550 0.22100 -0.10400
N 	N 	0.05260 0.90800 0.32360 -0.16100
N 	N 	0.01680 0.86140 0.29730 -0.18200
C 	C 	0.01770 0.87370 0.23490 0.12200
C 	C 	0.98420 0.83630 0.18530 -0.01800
C 	C 	0.95150 0.86750 0.13620 -0.02400
H 	H 	0.95020 0.91300 0.13500 0.05000
C 	C 	0.92060 0.83200 0.08890 -0.03400
H 	H 	0.89820 0.85320 0.05540 0.05300
C 	C 	0.92240 0.76530 0.09070 0.02800
C 	C 	0.95520 0.73410 0.13980 -0.03000
H 	H 	0.95640 0.68850 0.14100 0.08500
C 	C 	0.98610 0.76960 0.18710 -0.03400
H 	H 	0.00840 0.74830 0.22060 0.04400
C 	C 	0.88910 0.72700 0.03970 0.28700
O 	O 	0.90290 0.66910 0.03180 -0.25200
N 	N 	0.84450 0.75480 0.00260 -0.24500
H 	H 	0.83400 0.79870 0.00860 0.14400
Cl	Cl	0.80330 0.30759 0.85122 -0.57700
N 	N 	0.94530 0.27790 0.07360 -0.16000
N 	N 	0.92550 0.22100 0.05300 -0.10400
N 	N 	0.90800 0.32360 0.05260 -0.16100
N 	N 	0.86140 0.29730 0.01680 -0.18200
C 	C 	0.87370 0.23490 0.01770 0.12200
C 	C 	0.83630 0.18530 0.98420 -0.01800
C 	C 	0.86750 0.13620 0.95150 -0.02400
H 	H 	0.91300 0.13500 0.95020 0.05000
C 	C 	0.83200 0.08890 0.92060 -0.03400
H 	H 	0.85320 0.05540 0.89820 0.05300
C 	C 	0.76530 0.09070 0.92240 0.02800
C 	C 	0.73410 0.13980 0.95520 -0.03000
H 	H 	0.68850 0.14100 0.95640 0.08500
C 	C 	0.76960 0.18710 0.98610 -0.03400
H 	H 	0.74830 0.22060 0.00840 0.04400
C 	C 	0.72700 0.03970 0.88910 0.28700
O 	O 	0.66910 0.03180 0.90290 -0.25200
N 	N 	0.75480 0.00260 0.84450 -0.24500
H 	H 	0.79870 0.00860 0.83400 0.14400
Cl	Cl	0.19670 0.80759 0.64878 -0.57700
N 	N 	0.05470 0.77790 0.42640 -0.16000
N 	N 	0.07450 0.72100 0.44700 -0.10400
N 	N 	0.09200 0.82360 0.44740 -0.16100
N 	N 	0.13860 0.79730 0.48320 -0.18200
C 	C 	0.12630 0.73490 0.48230 0.12200
C 	C 	0.16370 0.68530 0.51580 -0.01800
C 	C 	0.13250 0.63620 0.54850 -0.02400
H 	H 	0.08700 0.63500 0.54980 0.05000
C 	C 	0.16800 0.58890 0.57940 -0.03400
H 	H 	0.14680 0.55540 0.60180 0.05300
C 	C 	0.23470 0.59070 0.57760 0.02700
C 	C 	0.26590 0.63980 0.54480 -0.03000
H 	H 	0.31150 0.64100 0.54360 0.08500
C 	C 	0.23040 0.68710 0.51390 -0.03400
H 	H 	0.25170 0.72060 0.49160 0.04400
C 	C 	0.27300 0.53970 0.61090 0.28700
O 	O 	0.33090 0.53180 0.59710 -0.25200
N 	N 	0.24520 0.50260 0.65550 -0.24500
H 	H 	0.20130 0.50860 0.66600 0.14400
Cl	Cl	0.69670 0.69241 0.35122 -0.57700
N 	N 	0.55470 0.72210 0.57360 -0.16000
N 	N 	0.57450 0.77900 0.55300 -0.10400
N 	N 	0.59200 0.67640 0.55260 -0.16100
N 	N 	0.63860 0.70270 0.51680 -0.18200
C 	C 	0.62630 0.76510 0.51770 0.12200
C 	C 	0.66370 0.81470 0.48420 -0.01800
C 	C 	0.63250 0.86380 0.45150 -0.02400
H 	H 	0.58700 0.86500 0.45020 0.05000
C 	C 	0.66800 0.91110 0.42060 -0.03400
H 	H 	0.64680 0.94460 0.39820 0.05300
C 	C 	0.73470 0.90930 0.42240 0.02800
C 	C 	0.76590 0.86020 0.45520 -0.03000
H 	H 	0.81150 0.85900 0.45640 0.08500
C 	C 	0.73040 0.81290 0.48610 -0.03400
H 	H 	0.75170 0.77940 0.50840 0.04400
C 	C 	0.77300 0.96030 0.38910 0.28700
O 	O 	0.83090 0.96820 0.40290 -0.25200
N 	N 	0.74520 0.99740 0.34450 -0.24500
H 	H 	0.70130 0.99140 0.33400 0.14400
Cl	Cl	0.30330 0.19241 0.14878 -0.57700
N 	N 	0.44530 0.22210 0.92640 -0.16000
N 	N 	0.42550 0.27900 0.94700 -0.10400
N 	N 	0.40800 0.17640 0.94740 -0.16100
N 	N 	0.36140 0.20270 0.98320 -0.18200
C 	C 	0.37370 0.26510 0.98230 0.12200
C 	C 	0.33630 0.31470 0.01580 -0.01800
C 	C 	0.36750 0.36380 0.04850 -0.02400
H 	H 	0.41300 0.36500 0.04980 0.05000
C 	C 	0.33200 0.41110 0.07940 -0.03400
H 	H 	0.35320 0.44460 0.10180 0.05300
C 	C 	0.26530 0.40930 0.07760 0.02800
C 	C 	0.23410 0.36020 0.04480 -0.03100
H 	H 	0.18850 0.35900 0.04360 0.08500
C 	C 	0.26960 0.31290 0.01390 -0.03400
H 	H 	0.24830 0.27940 0.99160 0.04400
C 	C 	0.22700 0.46030 0.11090 0.28700
O 	O 	0.16910 0.46820 0.09710 -0.25200
N 	N 	0.25480 0.49740 0.15550 -0.24500
H 	H 	0.29870 0.49140 0.16600 0.14400
Cl	Cl	0.80759 0.64878 0.19670 -0.57700
N 	N 	0.77790 0.42640 0.05470 -0.16000
N 	N 	0.72100 0.44700 0.07450 -0.10400
N 	N 	0.82360 0.44740 0.09200 -0.16100
N 	N 	0.79730 0.48320 0.13860 -0.18200
C 	C 	0.73490 0.48230 0.12630 0.12200
C 	C 	0.68530 0.51580 0.16370 -0.01800
C 	C 	0.63620 0.54850 0.13250 -0.02400
H 	H 	0.63500 0.54980 0.08700 0.05000
C 	C 	0.58890 0.57940 0.16800 -0.03400
H 	H 	0.55540 0.60180 0.14680 0.05300
C 	C 	0.59070 0.57760 0.23470 0.02700
C 	C 	0.63980 0.54480 0.26590 -0.03000
H 	H 	0.64100 0.54360 0.31150 0.08500
C 	C 	0.68710 0.51390 0.23040 -0.03400
H 	H 	0.72060 0.49160 0.25170 0.04400
C 	C 	0.53970 0.61090 0.27300 0.28700
O 	O 	0.53180 0.59710 0.33090 -0.25200
N 	N 	0.50260 0.65550 0.24520 -0.24500
H 	H 	0.50860 0.66600 0.20130 0.14400
Cl	Cl	0.30759 0.85122 0.80330 -0.57700
N 	N 	0.27790 0.07360 0.94530 -0.16000
N 	N 	0.22100 0.05300 0.92550 -0.10400
N 	N 	0.32360 0.05260 0.90800 -0.16100
N 	N 	0.29730 0.01680 0.86140 -0.18200
C 	C 	0.23490 0.01770 0.87370 0.12200
C 	C 	0.18530 0.98420 0.83630 -0.01800
C 	C 	0.13620 0.95150 0.86750 -0.02400
H 	H 	0.13500 0.95020 0.91300 0.05000
C 	C 	0.08890 0.92060 0.83200 -0.03400
H 	H 	0.05540 0.89820 0.85320 0.05300
C 	C 	0.09070 0.92240 0.76530 0.02800
C 	C 	0.13980 0.95520 0.73410 -0.03000
H 	H 	0.14100 0.95640 0.68850 0.08500
C 	C 	0.18710 0.98610 0.76960 -0.03400
H 	H 	0.22060 0.00840 0.74830 0.04400
C 	C 	0.03970 0.88910 0.72700 0.28700
O 	O 	0.03180 0.90290 0.66910 -0.25200
N 	N 	0.00260 0.84450 0.75480 -0.24500
H 	H 	0.00860 0.83400 0.79870 0.14400
Cl	Cl	0.19241 0.14878 0.30330 -0.57700
N 	N 	0.22210 0.92640 0.44530 -0.16000
N 	N 	0.27900 0.94700 0.42550 -0.10400
N 	N 	0.17640 0.94740 0.40800 -0.16100
N 	N 	0.20270 0.98320 0.36140 -0.18200
C 	C 	0.26510 0.98230 0.37370 0.12200
C 	C 	0.31470 0.01580 0.33630 -0.01800
C 	C 	0.36380 0.04850 0.36750 -0.02400
H 	H 	0.36500 0.04980 0.41300 0.05000
C 	C 	0.41110 0.07940 0.33200 -0.03400
H 	H 	0.44460 0.10180 0.35320 0.05300
C 	C 	0.40930 0.07760 0.26530 0.02800
C 	C 	0.36020 0.04480 0.23410 -0.03100
H 	H 	0.35900 0.04360 0.18850 0.08500
C 	C 	0.31290 0.01390 0.26960 -0.03400
H 	H 	0.27940 0.99160 0.24830 0.04400
C 	C 	0.46030 0.11090 0.22700 0.28700
O 	O 	0.46820 0.09710 0.16910 -0.25200
N 	N 	0.49740 0.15550 0.25480 -0.24500
H 	H 	0.49140 0.16600 0.29870 0.14400
Cl	Cl	0.69241 0.35122 0.69670 -0.57700
N 	N 	0.72210 0.57360 0.55470 -0.16000
N 	N 	0.77900 0.55300 0.57450 -0.10400
N 	N 	0.67640 0.55260 0.59200 -0.16100
N 	N 	0.70270 0.51680 0.63860 -0.18200
C 	C 	0.76510 0.51770 0.62630 0.12200
C 	C 	0.81470 0.48420 0.66370 -0.01800
C 	C 	0.86380 0.45150 0.63250 -0.02400
H 	H 	0.86500 0.45020 0.58700 0.05000
C 	C 	0.91110 0.42060 0.66800 -0.03400
H 	H 	0.94460 0.39820 0.64680 0.05300
C 	C 	0.90930 0.42240 0.73470 0.02800
C 	C 	0.86020 0.45520 0.76590 -0.03000
H 	H 	0.85900 0.45640 0.81150 0.08500
C 	C 	0.81290 0.48610 0.73040 -0.03400
H 	H 	0.77940 0.50840 0.75170 0.04400
C 	C 	0.96030 0.38910 0.77300 0.28700
O 	O 	0.96820 0.40290 0.83090 -0.25200
N 	N 	0.99740 0.34450 0.74520 -0.24500
H 	H 	0.99140 0.33400 0.70130 0.14400
Cd	Cd	0.04408 0.29408 0.12500 1.20500
Cd	Cd	0.45592 0.70592 0.62500 1.20500
Cd	Cd	0.95592 0.79408 0.37500 1.20500
Cd	Cd	0.54408 0.20592 0.87500 1.20500
Cd	Cd	0.12500 0.04408 0.29408 1.20500
Cd	Cd	0.62500 0.45592 0.70592 1.20500
Cd	Cd	0.37500 0.95592 0.79408 1.20500
Cd	Cd	0.87500 0.54408 0.20592 1.20500
Cd	Cd	0.29408 0.12500 0.04408 1.20500
Cd	Cd	0.70592 0.62500 0.45592 1.20500
Cd	Cd	0.79408 0.37500 0.95592 1.20500
Cd	Cd	0.20592 0.87500 0.54408 1.20500
Cd	Cd	0.93407 0.43407 0.06593 1.21700
Cd	Cd	0.56593 0.56593 0.56593 1.21700
Cd	Cd	0.06593 0.93407 0.43407 1.21700
Cd	Cd	0.43407 0.06593 0.93407 1.21700
Cd	Cd	0.18407 0.18407 0.18407 1.21700
Cd	Cd	0.31593 0.81593 0.68407 1.21700
Cd	Cd	0.68407 0.31593 0.81593 1.21700
Cd	Cd	0.81593 0.68407 0.31593 1.21700
