data_crystal

_cell_length_a 31.84000
_cell_length_b 13.47800
_cell_length_c 19.85400
_cell_angle_alpha 90.00000
_cell_angle_beta  91.36500
_cell_angle_gamma 90.00000

_symmetry_space_group_name_	'P 1'
_symmetry_space_group_name_H-M	'P 1'

loop_
_symmetry_equiv_pos_as_xyz
  x,y,z

loop_
_atom_site_label
_atom_site_type_symbol
_atom_site_fract_x
_atom_site_fract_y
_atom_site_fract_z
_atom_site_charge
O 	O 	0.14111 0.47130 0.36160 -0.39700
Cd	Cd	0.17482 0.61990 0.35995 1.23600
Cd	Cd	0.10360 0.66435 0.49003 1.21800
C 	C 	0.09890 0.29610 0.39330 0.00200
H 	H 	0.12630 0.29230 0.37830 0.04900
C 	C 	0.13840 0.92060 0.39340 -0.17000
C 	C 	0.08060 0.38910 0.39910 -0.08800
C 	C 	0.09870 0.10790 0.40420 0.10700
C 	C 	0.15640 0.82080 0.38370 0.36500
C 	C 	0.07840 0.20890 0.40880 -0.03600
C 	C 	0.07620 0.02280 0.40450 -0.16000
H 	H 	0.04710 0.02650 0.40610 0.09100
C 	C 	0.14270 0.10020 0.39830 -0.17200
H 	H 	0.15890 0.15750 0.39930 0.09800
C 	C 	0.03800 0.21790 0.43500 -0.00800
H 	H 	0.02420 0.16130 0.44960 0.04600
C 	C 	0.16210 0.00930 0.39110 0.11500
C 	C 	0.04080 0.39600 0.42340 0.02200
H 	H 	0.02880 0.45820 0.42930 0.05100
C 	C 	0.01790 0.31020 0.43980 -0.07300
C 	C 	0.09540 0.92880 0.40240 0.08000
H 	H 	0.07920 0.87190 0.40710 0.00400
C 	C 	0.27890 0.98420 0.43760 -0.09800
C 	C 	0.29650 0.02180 0.37810 0.01900
H 	H 	0.32560 0.02630 0.37490 0.05100
C 	C 	0.27070 0.05240 0.32370 -0.06500
C 	C 	0.20910 0.00980 0.38780 -0.03000
C 	C 	0.23540 0.97910 0.43990 0.01000
H 	H 	0.22330 0.95370 0.47850 0.04300
C 	C 	0.22780 0.04580 0.32990 -0.00600
H 	H 	0.21060 0.06610 0.29400 0.05500
C 	C 	0.30680 0.94440 0.49170 0.35900
C 	C 	0.29050 0.08290 0.25890 0.30000
C 	C 	0.97450 0.31810 0.46520 0.30300
O 	O 	0.26843 0.08120 0.20640 -0.36300
O 	O 	0.95261 0.39450 0.45110 -0.37600
O 	O 	0.32865 0.10900 0.26040 -0.34900
O 	O 	0.28910 0.91690 0.54580 -0.42000
O 	O 	0.34556 0.94490 0.48350 -0.45200
O 	O 	0.96028 0.25040 0.50070 -0.38100
C 	C 	0.10540 0.48040 0.38450 0.34100
O 	O 	0.08805 0.56340 0.39690 -0.41900
O 	O 	0.18920 0.80620 0.35370 -0.35400
O 	O 	0.13561 0.74410 0.40530 -0.54200
O 	O 	0.64111 0.97130 0.36160 -0.39800
Cd	Cd	0.67482 0.11990 0.35995 1.23400
Cd	Cd	0.60360 0.16435 0.49003 1.21700
C 	C 	0.59890 0.79610 0.39330 0.00100
H 	H 	0.62630 0.79230 0.37830 0.04800
C 	C 	0.63840 0.42060 0.39340 -0.17100
C 	C 	0.58060 0.88910 0.39910 -0.08900
C 	C 	0.59870 0.60790 0.40420 0.10600
C 	C 	0.65640 0.32080 0.38370 0.36500
C 	C 	0.57840 0.70890 0.40880 -0.03600
C 	C 	0.57620 0.52280 0.40450 -0.15900
H 	H 	0.54710 0.52650 0.40610 0.09100
C 	C 	0.64270 0.60020 0.39830 -0.17200
H 	H 	0.65890 0.65750 0.39930 0.09800
C 	C 	0.53800 0.71790 0.43500 -0.00800
H 	H 	0.52420 0.66130 0.44960 0.04600
C 	C 	0.66210 0.50930 0.39110 0.11500
C 	C 	0.54080 0.89600 0.42340 0.02200
H 	H 	0.52880 0.95820 0.42930 0.05100
C 	C 	0.51790 0.81020 0.43980 -0.07300
C 	C 	0.59540 0.42880 0.40240 0.08000
H 	H 	0.57920 0.37190 0.40710 0.00400
C 	C 	0.77890 0.48420 0.43760 -0.09800
C 	C 	0.79650 0.52180 0.37810 0.02000
H 	H 	0.82560 0.52630 0.37490 0.05100
C 	C 	0.77070 0.55240 0.32370 -0.06500
C 	C 	0.70910 0.50980 0.38780 -0.03000
C 	C 	0.73540 0.47910 0.43990 0.01000
H 	H 	0.72330 0.45370 0.47850 0.04300
C 	C 	0.72780 0.54580 0.32990 -0.00600
H 	H 	0.71060 0.56610 0.29400 0.05500
C 	C 	0.80680 0.44440 0.49170 0.35900
C 	C 	0.79050 0.58290 0.25890 0.30000
C 	C 	0.47450 0.81810 0.46520 0.30300
O 	O 	0.76843 0.58120 0.20640 -0.36300
O 	O 	0.45261 0.89450 0.45110 -0.37600
O 	O 	0.82865 0.60900 0.26040 -0.34900
O 	O 	0.78910 0.41690 0.54580 -0.42000
O 	O 	0.84556 0.44490 0.48350 -0.45200
O 	O 	0.46028 0.75040 0.50070 -0.38100
C 	C 	0.60540 0.98040 0.38450 0.34100
O 	O 	0.58805 0.06340 0.39690 -0.41900
O 	O 	0.68920 0.30620 0.35370 -0.35500
O 	O 	0.63561 0.24410 0.40530 -0.54200
O 	O 	0.85889 0.47130 0.13840 -0.39800
Cd	Cd	0.82518 0.61990 0.14005 1.23500
Cd	Cd	0.89640 0.66435 0.00997 1.21700
C 	C 	0.90110 0.29610 0.10670 0.00100
H 	H 	0.87370 0.29230 0.12170 0.04700
C 	C 	0.86160 0.92060 0.10660 -0.17100
C 	C 	0.91940 0.38910 0.10090 -0.08900
C 	C 	0.90130 0.10790 0.09580 0.10700
C 	C 	0.84360 0.82080 0.11630 0.36500
C 	C 	0.92160 0.20890 0.09120 -0.03700
C 	C 	0.92380 0.02280 0.09550 -0.16100
H 	H 	0.95290 0.02650 0.09390 0.09100
C 	C 	0.85730 0.10020 0.10170 -0.17200
H 	H 	0.84110 0.15750 0.10070 0.09800
C 	C 	0.96200 0.21790 0.06500 -0.00800
H 	H 	0.97580 0.16130 0.05040 0.04600
C 	C 	0.83790 0.00930 0.10890 0.11500
C 	C 	0.95920 0.39600 0.07660 0.02200
H 	H 	0.97120 0.45820 0.07070 0.05100
C 	C 	0.98210 0.31020 0.06020 -0.07300
C 	C 	0.90460 0.92880 0.09760 0.08200
H 	H 	0.92080 0.87190 0.09290 0.00400
C 	C 	0.72110 0.98420 0.06240 -0.09700
C 	C 	0.70350 0.02180 0.12190 0.01800
H 	H 	0.67440 0.02630 0.12510 0.05100
C 	C 	0.72930 0.05240 0.17630 -0.06500
C 	C 	0.79090 0.00980 0.11220 -0.03100
C 	C 	0.76460 0.97910 0.06010 0.01100
H 	H 	0.77670 0.95370 0.02150 0.04300
C 	C 	0.77220 0.04580 0.17010 -0.00500
H 	H 	0.78940 0.06610 0.20600 0.05500
C 	C 	0.69320 0.94440 0.00830 0.36000
C 	C 	0.70950 0.08290 0.24110 0.30000
C 	C 	0.02550 0.31810 0.03480 0.30300
O 	O 	0.73157 0.08120 0.29360 -0.36300
O 	O 	0.04739 0.39450 0.04890 -0.37500
O 	O 	0.67135 0.10900 0.23960 -0.34900
O 	O 	0.71090 0.91690 0.95420 -0.42100
O 	O 	0.65444 0.94490 0.01650 -0.45200
O 	O 	0.03972 0.25040 0.99930 -0.38100
C 	C 	0.89460 0.48040 0.11550 0.34100
O 	O 	0.91195 0.56340 0.10310 -0.41900
O 	O 	0.81080 0.80620 0.14630 -0.35400
O 	O 	0.86439 0.74410 0.09470 -0.54200
O 	O 	0.35889 0.97130 0.13840 -0.39800
Cd	Cd	0.32518 0.11990 0.14005 1.23400
Cd	Cd	0.39640 0.16435 0.00997 1.21600
C 	C 	0.40110 0.79610 0.10670 0.00100
H 	H 	0.37370 0.79230 0.12170 0.04800
C 	C 	0.36160 0.42060 0.10660 -0.17100
C 	C 	0.41940 0.88910 0.10090 -0.08900
C 	C 	0.40130 0.60790 0.09580 0.10600
C 	C 	0.34360 0.32080 0.11630 0.36500
C 	C 	0.42160 0.70890 0.09120 -0.03600
C 	C 	0.42380 0.52280 0.09550 -0.15900
H 	H 	0.45290 0.52650 0.09390 0.09100
C 	C 	0.35730 0.60020 0.10170 -0.17200
H 	H 	0.34110 0.65750 0.10070 0.09800
C 	C 	0.46200 0.71790 0.06500 -0.00800
H 	H 	0.47580 0.66130 0.05040 0.04600
C 	C 	0.33790 0.50930 0.10890 0.11500
C 	C 	0.45920 0.89600 0.07660 0.02300
H 	H 	0.47120 0.95820 0.07070 0.05200
C 	C 	0.48210 0.81020 0.06020 -0.07300
C 	C 	0.40460 0.42880 0.09760 0.08000
H 	H 	0.42080 0.37190 0.09290 0.00400
C 	C 	0.22110 0.48420 0.06240 -0.09800
C 	C 	0.20350 0.52180 0.12190 0.02000
H 	H 	0.17440 0.52630 0.12510 0.05100
C 	C 	0.22930 0.55240 0.17630 -0.06500
C 	C 	0.29090 0.50980 0.11220 -0.03000
C 	C 	0.26460 0.47910 0.06010 0.01000
H 	H 	0.27670 0.45370 0.02150 0.04300
C 	C 	0.27220 0.54580 0.17010 -0.00600
H 	H 	0.28940 0.56610 0.20600 0.05500
C 	C 	0.19320 0.44440 0.00830 0.35900
C 	C 	0.20950 0.58290 0.24110 0.30000
C 	C 	0.52550 0.81810 0.03480 0.30400
O 	O 	0.23157 0.58120 0.29360 -0.36300
O 	O 	0.54739 0.89450 0.04890 -0.37500
O 	O 	0.17135 0.60900 0.23960 -0.34900
O 	O 	0.21090 0.41690 0.95420 -0.42000
O 	O 	0.15444 0.44490 0.01650 -0.45200
O 	O 	0.53972 0.75040 0.99930 -0.38200
C 	C 	0.39460 0.98040 0.11550 0.34200
O 	O 	0.41195 0.06340 0.10310 -0.42000
O 	O 	0.31080 0.30620 0.14630 -0.35500
O 	O 	0.36439 0.24410 0.09470 -0.54200
O 	O 	0.85889 0.52870 0.63840 -0.39800
Cd	Cd	0.82518 0.38010 0.64005 1.23500
Cd	Cd	0.89640 0.33565 0.50997 1.21700
C 	C 	0.90110 0.70390 0.60670 0.00100
H 	H 	0.87370 0.70770 0.62170 0.04800
C 	C 	0.86160 0.07940 0.60660 -0.17100
C 	C 	0.91940 0.61090 0.60090 -0.08900
C 	C 	0.90130 0.89210 0.59580 0.10600
C 	C 	0.84360 0.17920 0.61630 0.36500
C 	C 	0.92160 0.79110 0.59120 -0.03600
C 	C 	0.92380 0.97720 0.59550 -0.16000
H 	H 	0.95290 0.97350 0.59390 0.09100
C 	C 	0.85730 0.89980 0.60170 -0.17200
H 	H 	0.84110 0.84250 0.60070 0.09800
C 	C 	0.96200 0.78210 0.56500 -0.00800
H 	H 	0.97580 0.83870 0.55040 0.04600
C 	C 	0.83790 0.99070 0.60890 0.11500
C 	C 	0.95920 0.60400 0.57660 0.02200
H 	H 	0.97120 0.54180 0.57070 0.05100
C 	C 	0.98210 0.68980 0.56020 -0.07300
C 	C 	0.90460 0.07120 0.59760 0.08000
H 	H 	0.92080 0.12810 0.59290 0.00400
C 	C 	0.72110 0.01580 0.56240 -0.09800
C 	C 	0.70350 0.97820 0.62190 0.01900
H 	H 	0.67440 0.97370 0.62510 0.05100
C 	C 	0.72930 0.94760 0.67630 -0.06500
C 	C 	0.79090 0.99020 0.61220 -0.03000
C 	C 	0.76460 0.02090 0.56010 0.01000
H 	H 	0.77670 0.04630 0.52150 0.04300
C 	C 	0.77220 0.95420 0.67010 -0.00600
H 	H 	0.78940 0.93390 0.70600 0.05500
C 	C 	0.69320 0.05560 0.50830 0.35900
C 	C 	0.70950 0.91710 0.74110 0.30000
C 	C 	0.02550 0.68190 0.53480 0.30300
O 	O 	0.73157 0.91880 0.79360 -0.36300
O 	O 	0.04739 0.60550 0.54890 -0.37600
O 	O 	0.67135 0.89100 0.73960 -0.34900
O 	O 	0.71090 0.08310 0.45420 -0.42000
O 	O 	0.65444 0.05510 0.51650 -0.45200
O 	O 	0.03972 0.74960 0.49930 -0.38100
C 	C 	0.89460 0.51960 0.61550 0.34100
O 	O 	0.91195 0.43660 0.60310 -0.41900
O 	O 	0.81080 0.19380 0.64630 -0.35400
O 	O 	0.86439 0.25590 0.59470 -0.54200
O 	O 	0.35889 0.02870 0.63840 -0.39800
Cd	Cd	0.32518 0.88010 0.64005 1.23400
Cd	Cd	0.39640 0.83565 0.50997 1.21700
C 	C 	0.40110 0.20390 0.60670 0.00100
H 	H 	0.37370 0.20770 0.62170 0.04800
C 	C 	0.36160 0.57940 0.60660 -0.17100
C 	C 	0.41940 0.11090 0.60090 -0.08900
C 	C 	0.40130 0.39210 0.59580 0.10600
C 	C 	0.34360 0.67920 0.61630 0.36500
C 	C 	0.42160 0.29110 0.59120 -0.03600
C 	C 	0.42380 0.47720 0.59550 -0.15900
H 	H 	0.45290 0.47350 0.59390 0.09100
C 	C 	0.35730 0.39980 0.60170 -0.17200
H 	H 	0.34110 0.34250 0.60070 0.09800
C 	C 	0.46200 0.28210 0.56500 -0.00800
H 	H 	0.47580 0.33870 0.55040 0.04600
C 	C 	0.33790 0.49070 0.60890 0.11500
C 	C 	0.45920 0.10400 0.57660 0.02200
H 	H 	0.47120 0.04180 0.57070 0.05100
C 	C 	0.48210 0.18980 0.56020 -0.07300
C 	C 	0.40460 0.57120 0.59760 0.08000
H 	H 	0.42080 0.62810 0.59290 0.00400
C 	C 	0.22110 0.51580 0.56240 -0.09800
C 	C 	0.20350 0.47820 0.62190 0.02000
H 	H 	0.17440 0.47370 0.62510 0.05100
C 	C 	0.22930 0.44760 0.67630 -0.06500
C 	C 	0.29090 0.49020 0.61220 -0.03000
C 	C 	0.26460 0.52090 0.56010 0.01000
H 	H 	0.27670 0.54630 0.52150 0.04300
C 	C 	0.27220 0.45420 0.67010 -0.00600
H 	H 	0.28940 0.43390 0.70600 0.05500
C 	C 	0.19320 0.55560 0.50830 0.35900
C 	C 	0.20950 0.41710 0.74110 0.30000
C 	C 	0.52550 0.18190 0.53480 0.30300
O 	O 	0.23157 0.41880 0.79360 -0.36300
O 	O 	0.54739 0.10550 0.54890 -0.37600
O 	O 	0.17135 0.39100 0.73960 -0.34900
O 	O 	0.21090 0.58310 0.45420 -0.42000
O 	O 	0.15444 0.55510 0.51650 -0.45200
O 	O 	0.53972 0.24960 0.49930 -0.38100
C 	C 	0.39460 0.01960 0.61550 0.34100
O 	O 	0.41195 0.93660 0.60310 -0.41900
O 	O 	0.31080 0.69380 0.64630 -0.35500
O 	O 	0.36439 0.75590 0.59470 -0.54200
O 	O 	0.14111 0.52870 0.86160 -0.39800
Cd	Cd	0.17482 0.38010 0.85995 1.23500
Cd	Cd	0.10360 0.33565 0.99003 1.21700
C 	C 	0.09890 0.70390 0.89330 0.00100
H 	H 	0.12630 0.70770 0.87830 0.04700
C 	C 	0.13840 0.07940 0.89340 -0.17100
C 	C 	0.08060 0.61090 0.89910 -0.08900
C 	C 	0.09870 0.89210 0.90420 0.10700
C 	C 	0.15640 0.17920 0.88370 0.36500
C 	C 	0.07840 0.79110 0.90880 -0.03700
C 	C 	0.07620 0.97720 0.90450 -0.16100
H 	H 	0.04710 0.97350 0.90610 0.09100
C 	C 	0.14270 0.89980 0.89830 -0.17200
H 	H 	0.15890 0.84250 0.89930 0.09800
C 	C 	0.03800 0.78210 0.93500 -0.00800
H 	H 	0.02420 0.83870 0.94960 0.04600
C 	C 	0.16210 0.99070 0.89110 0.11500
C 	C 	0.04080 0.60400 0.92340 0.02200
H 	H 	0.02880 0.54180 0.92930 0.05100
C 	C 	0.01790 0.68980 0.93980 -0.07300
C 	C 	0.09540 0.07120 0.90240 0.08200
H 	H 	0.07920 0.12810 0.90710 0.00400
C 	C 	0.27890 0.01580 0.93760 -0.09700
C 	C 	0.29650 0.97820 0.87810 0.01800
H 	H 	0.32560 0.97370 0.87490 0.05100
C 	C 	0.27070 0.94760 0.82370 -0.06500
C 	C 	0.20910 0.99020 0.88780 -0.03100
C 	C 	0.23540 0.02090 0.93990 0.01100
H 	H 	0.22330 0.04630 0.97850 0.04300
C 	C 	0.22780 0.95420 0.82990 -0.00500
H 	H 	0.21060 0.93390 0.79400 0.05500
C 	C 	0.30680 0.05560 0.99170 0.36000
C 	C 	0.29050 0.91710 0.75890 0.30000
C 	C 	0.97450 0.68190 0.96520 0.30300
O 	O 	0.26843 0.91880 0.70640 -0.36300
O 	O 	0.95261 0.60550 0.95110 -0.37500
O 	O 	0.32865 0.89100 0.76040 -0.34900
O 	O 	0.28910 0.08310 0.04580 -0.42100
O 	O 	0.34556 0.05510 0.98350 -0.45200
O 	O 	0.96028 0.74960 0.00070 -0.38100
C 	C 	0.10540 0.51960 0.88450 0.34100
O 	O 	0.08805 0.43660 0.89690 -0.41900
O 	O 	0.18920 0.19380 0.85370 -0.35400
O 	O 	0.13561 0.25590 0.90530 -0.54200
O 	O 	0.64111 0.02870 0.86160 -0.39800
Cd	Cd	0.67482 0.88010 0.85995 1.23400
Cd	Cd	0.60360 0.83565 0.99003 1.21600
C 	C 	0.59890 0.20390 0.89330 0.00100
H 	H 	0.62630 0.20770 0.87830 0.04800
C 	C 	0.63840 0.57940 0.89340 -0.17100
C 	C 	0.58060 0.11090 0.89910 -0.08900
C 	C 	0.59870 0.39210 0.90420 0.10600
C 	C 	0.65640 0.67920 0.88370 0.36500
C 	C 	0.57840 0.29110 0.90880 -0.03600
C 	C 	0.57620 0.47720 0.90450 -0.15900
H 	H 	0.54710 0.47350 0.90610 0.09100
C 	C 	0.64270 0.39980 0.89830 -0.17200
H 	H 	0.65890 0.34250 0.89930 0.09800
C 	C 	0.53800 0.28210 0.93500 -0.00800
H 	H 	0.52420 0.33870 0.94960 0.04600
C 	C 	0.66210 0.49070 0.89110 0.11500
C 	C 	0.54080 0.10400 0.92340 0.02300
H 	H 	0.52880 0.04180 0.92930 0.05200
C 	C 	0.51790 0.18980 0.93980 -0.07300
C 	C 	0.59540 0.57120 0.90240 0.08000
H 	H 	0.57920 0.62810 0.90710 0.00400
C 	C 	0.77890 0.51580 0.93760 -0.09800
C 	C 	0.79650 0.47820 0.87810 0.02000
H 	H 	0.82560 0.47370 0.87490 0.05100
C 	C 	0.77070 0.44760 0.82370 -0.06500
C 	C 	0.70910 0.49020 0.88780 -0.03000
C 	C 	0.73540 0.52090 0.93990 0.01000
H 	H 	0.72330 0.54630 0.97850 0.04300
C 	C 	0.72780 0.45420 0.82990 -0.00600
H 	H 	0.71060 0.43390 0.79400 0.05500
C 	C 	0.80680 0.55560 0.99170 0.35900
C 	C 	0.79050 0.41710 0.75890 0.30000
C 	C 	0.47450 0.18190 0.96520 0.30400
O 	O 	0.76843 0.41880 0.70640 -0.36300
O 	O 	0.45261 0.10550 0.95110 -0.37500
O 	O 	0.82865 0.39100 0.76040 -0.34900
O 	O 	0.78910 0.58310 0.04580 -0.42000
O 	O 	0.84556 0.55510 0.98350 -0.45200
O 	O 	0.46028 0.24960 0.00070 -0.38200
C 	C 	0.60540 0.01960 0.88450 0.34200
O 	O 	0.58805 0.93660 0.89690 -0.42000
O 	O 	0.68920 0.69380 0.85370 -0.35500
O 	O 	0.63561 0.75590 0.90530 -0.54200
