data_crystal

_cell_length_a 18.50850
_cell_length_b 18.50850
_cell_length_c 22.93060
_cell_angle_alpha 90.00000
_cell_angle_beta  90.00000
_cell_angle_gamma 120.00000

_symmetry_space_group_name_	'P 1'
_symmetry_space_group_name_H-M	'P 1'

loop_
_symmetry_equiv_pos_as_xyz
  x,y,z

loop_
_atom_site_label
_atom_site_type_symbol
_atom_site_fract_x
_atom_site_fract_y
_atom_site_fract_z
_atom_site_charge
O 	O 	0.48160 0.10970 0.99300 -0.40700
O 	O 	0.43950 0.02970 0.07368 -0.40100
C 	C 	0.44940 0.09140 0.04320 0.37200
C 	C 	0.41920 0.14430 0.06970 -0.12900
C 	C 	0.36940 0.12160 0.11840 0.08900
H 	H 	0.35320 0.07010 0.13540 0.02500
H 	H 	0.05240 0.02110 0.11230 0.08800
H 	H 	0.06830 0.99460 0.17380 0.07300
H 	H 	0.06650 0.07790 0.16670 0.08000
O 	O 	0.89030 0.37190 0.99300 -0.40900
O 	O 	0.97030 0.40980 0.07368 -0.40200
C 	C 	0.90860 0.35800 0.04320 0.37300
C 	C 	0.85570 0.27490 0.06970 -0.12900
C 	C 	0.87840 0.24780 0.11840 0.08900
H 	H 	0.92990 0.28310 0.13540 0.02500
H 	H 	0.97890 0.03130 0.11230 0.08900
H 	H 	0.00540 0.07370 0.17380 0.07300
H 	H 	0.92210 0.98860 0.16670 0.07900
O 	O 	0.62810 0.51840 0.99300 -0.40700
O 	O 	0.59020 0.56050 0.07368 -0.40300
C 	C 	0.64200 0.55060 0.04320 0.37100
C 	C 	0.72510 0.58080 0.06970 -0.12900
C 	C 	0.75220 0.63060 0.11840 0.08900
H 	H 	0.71690 0.64680 0.13540 0.02500
H 	H 	0.96870 0.94760 0.11230 0.08800
H 	H 	0.92630 0.93170 0.17380 0.07300
H 	H 	0.01140 0.93350 0.16670 0.07900
O 	O 	0.51840 0.89030 0.49300 -0.40600
O 	O 	0.56050 0.97030 0.57368 -0.40200
C 	C 	0.55060 0.90860 0.54320 0.37000
C 	C 	0.58080 0.85570 0.56970 -0.12800
C 	C 	0.63060 0.87840 0.61840 0.08800
H 	H 	0.64680 0.92990 0.63540 0.02500
H 	H 	0.94760 0.97890 0.61230 0.08800
H 	H 	0.93170 0.00540 0.67380 0.07300
H 	H 	0.93350 0.92210 0.66670 0.08000
O 	O 	0.10970 0.62810 0.49300 -0.40600
O 	O 	0.02970 0.59020 0.57368 -0.40200
C 	C 	0.09140 0.64200 0.54320 0.37000
C 	C 	0.14430 0.72510 0.56970 -0.12800
C 	C 	0.12160 0.75220 0.61840 0.08800
H 	H 	0.07010 0.71690 0.63540 0.02500
H 	H 	0.02110 0.96870 0.61230 0.08800
H 	H 	0.99460 0.92630 0.67380 0.07300
H 	H 	0.07790 0.01140 0.66670 0.08000
O 	O 	0.37190 0.48160 0.49300 -0.40600
O 	O 	0.40980 0.43950 0.57368 -0.40200
C 	C 	0.35800 0.44940 0.54320 0.37000
C 	C 	0.27490 0.41920 0.56970 -0.12800
C 	C 	0.24780 0.36940 0.61840 0.08800
H 	H 	0.28310 0.35320 0.63540 0.02500
H 	H 	0.03130 0.05240 0.61230 0.08800
H 	H 	0.07370 0.06830 0.67380 0.07300
H 	H 	0.98860 0.06650 0.66670 0.08000
O 	O 	0.10970 0.48160 0.00700 -0.40800
O 	O 	0.02970 0.43950 0.92632 -0.40200
C 	C 	0.09140 0.44940 0.95680 0.37200
C 	C 	0.14430 0.41920 0.93030 -0.12900
C 	C 	0.12160 0.36940 0.88160 0.08900
H 	H 	0.07010 0.35320 0.86460 0.02500
H 	H 	0.02110 0.05240 0.88770 0.08800
H 	H 	0.99460 0.06830 0.82620 0.07300
H 	H 	0.07790 0.06650 0.83330 0.08000
O 	O 	0.37190 0.89030 0.00700 -0.40900
O 	O 	0.40980 0.97030 0.92632 -0.40200
C 	C 	0.35800 0.90860 0.95680 0.37300
C 	C 	0.27490 0.85570 0.93030 -0.12900
C 	C 	0.24780 0.87840 0.88160 0.08900
H 	H 	0.28310 0.92990 0.86460 0.02500
H 	H 	0.03130 0.97890 0.88770 0.08900
H 	H 	0.07370 0.00540 0.82620 0.07300
H 	H 	0.98860 0.92210 0.83330 0.07900
O 	O 	0.51840 0.62810 0.00700 -0.40700
O 	O 	0.56050 0.59020 0.92632 -0.40300
C 	C 	0.55060 0.64200 0.95680 0.37100
C 	C 	0.58080 0.72510 0.93030 -0.12900
C 	C 	0.63060 0.75220 0.88160 0.08900
H 	H 	0.64680 0.71690 0.86460 0.02500
H 	H 	0.94760 0.96870 0.88770 0.08800
H 	H 	0.93170 0.92630 0.82620 0.07300
H 	H 	0.93350 0.01140 0.83330 0.07900
O 	O 	0.89030 0.51840 0.50700 -0.40600
O 	O 	0.97030 0.56050 0.42632 -0.40200
C 	C 	0.90860 0.55060 0.45680 0.37000
C 	C 	0.85570 0.58080 0.43030 -0.12800
C 	C 	0.87840 0.63060 0.38160 0.08800
H 	H 	0.92990 0.64680 0.36460 0.02500
H 	H 	0.97890 0.94760 0.38770 0.08800
H 	H 	0.00540 0.93170 0.32620 0.07300
H 	H 	0.92210 0.93350 0.33330 0.08000
O 	O 	0.62810 0.10970 0.50700 -0.40600
O 	O 	0.59020 0.02970 0.42632 -0.40200
C 	C 	0.64200 0.09140 0.45680 0.37000
C 	C 	0.72510 0.14430 0.43030 -0.12800
C 	C 	0.75220 0.12160 0.38160 0.08800
H 	H 	0.71690 0.07010 0.36460 0.02500
H 	H 	0.96870 0.02110 0.38770 0.08800
H 	H 	0.92630 0.99460 0.32620 0.07300
H 	H 	0.01140 0.07790 0.33330 0.08000
O 	O 	0.48160 0.37190 0.50700 -0.40600
O 	O 	0.43950 0.40980 0.42632 -0.40200
C 	C 	0.44940 0.35800 0.45680 0.37000
C 	C 	0.41920 0.27490 0.43030 -0.12800
C 	C 	0.36940 0.24780 0.38160 0.08800
H 	H 	0.35320 0.28310 0.36460 0.02500
H 	H 	0.05240 0.03130 0.38770 0.08800
H 	H 	0.06830 0.07370 0.32620 0.07300
H 	H 	0.06650 0.98860 0.33330 0.08000
O 	O 	0.51840 0.89030 0.00700 -0.40800
O 	O 	0.56050 0.97030 0.92632 -0.40200
C 	C 	0.55060 0.90860 0.95680 0.37200
C 	C 	0.58080 0.85570 0.93030 -0.12900
C 	C 	0.63060 0.87840 0.88160 0.08900
H 	H 	0.64680 0.92990 0.86460 0.02500
H 	H 	0.94760 0.97890 0.88770 0.08800
H 	H 	0.93170 0.00540 0.82620 0.07300
H 	H 	0.93350 0.92210 0.83330 0.08000
O 	O 	0.10970 0.62810 0.00700 -0.40900
O 	O 	0.02970 0.59020 0.92632 -0.40200
C 	C 	0.09140 0.64200 0.95680 0.37300
C 	C 	0.14430 0.72510 0.93030 -0.12900
C 	C 	0.12160 0.75220 0.88160 0.08900
H 	H 	0.07010 0.71690 0.86460 0.02500
H 	H 	0.02110 0.96870 0.88770 0.08900
H 	H 	0.99460 0.92630 0.82620 0.07300
H 	H 	0.07790 0.01140 0.83330 0.07900
O 	O 	0.37190 0.48160 0.00700 -0.40700
O 	O 	0.40980 0.43950 0.92632 -0.40300
C 	C 	0.35800 0.44940 0.95680 0.37100
C 	C 	0.27490 0.41920 0.93030 -0.12900
C 	C 	0.24780 0.36940 0.88160 0.08900
H 	H 	0.28310 0.35320 0.86460 0.02500
H 	H 	0.03130 0.05240 0.88770 0.08800
H 	H 	0.07370 0.06830 0.82620 0.07300
H 	H 	0.98860 0.06650 0.83330 0.07900
O 	O 	0.48160 0.10970 0.50700 -0.40600
O 	O 	0.43950 0.02970 0.42632 -0.40200
C 	C 	0.44940 0.09140 0.45680 0.37000
C 	C 	0.41920 0.14430 0.43030 -0.12800
C 	C 	0.36940 0.12160 0.38160 0.08800
H 	H 	0.35320 0.07010 0.36460 0.02500
H 	H 	0.05240 0.02110 0.38770 0.08800
H 	H 	0.06830 0.99460 0.32620 0.07300
H 	H 	0.06650 0.07790 0.33330 0.08000
O 	O 	0.89030 0.37190 0.50700 -0.40600
O 	O 	0.97030 0.40980 0.42632 -0.40200
C 	C 	0.90860 0.35800 0.45680 0.37000
C 	C 	0.85570 0.27490 0.43030 -0.12800
C 	C 	0.87840 0.24780 0.38160 0.08800
H 	H 	0.92990 0.28310 0.36460 0.02500
H 	H 	0.97890 0.03130 0.38770 0.08800
H 	H 	0.00540 0.07370 0.32620 0.07300
H 	H 	0.92210 0.98860 0.33330 0.08000
O 	O 	0.62810 0.51840 0.50700 -0.40600
O 	O 	0.59020 0.56050 0.42632 -0.40200
C 	C 	0.64200 0.55060 0.45680 0.37000
C 	C 	0.72510 0.58080 0.43030 -0.12800
C 	C 	0.75220 0.63060 0.38160 0.08800
H 	H 	0.71690 0.64680 0.36460 0.02500
H 	H 	0.96870 0.94760 0.38770 0.08800
H 	H 	0.92630 0.93170 0.32620 0.07300
H 	H 	0.01140 0.93350 0.33330 0.08000
O 	O 	0.89030 0.51840 0.99300 -0.40800
O 	O 	0.97030 0.56050 0.07368 -0.40200
C 	C 	0.90860 0.55060 0.04320 0.37200
C 	C 	0.85570 0.58080 0.06970 -0.12900
C 	C 	0.87840 0.63060 0.11840 0.08900
H 	H 	0.92990 0.64680 0.13540 0.02500
H 	H 	0.97890 0.94760 0.11230 0.08800
H 	H 	0.00540 0.93170 0.17380 0.07300
H 	H 	0.92210 0.93350 0.16670 0.08000
O 	O 	0.62810 0.10970 0.99300 -0.40900
O 	O 	0.59020 0.02970 0.07368 -0.40200
C 	C 	0.64200 0.09140 0.04320 0.37300
C 	C 	0.72510 0.14430 0.06970 -0.12900
C 	C 	0.75220 0.12160 0.11840 0.08900
H 	H 	0.71690 0.07010 0.13540 0.02500
H 	H 	0.96870 0.02110 0.11230 0.08900
H 	H 	0.92630 0.99460 0.17380 0.07300
H 	H 	0.01140 0.07790 0.16670 0.07900
O 	O 	0.48160 0.37190 0.99300 -0.40700
O 	O 	0.43950 0.40980 0.07368 -0.40300
C 	C 	0.44940 0.35800 0.04320 0.37100
C 	C 	0.41920 0.27490 0.06970 -0.12900
C 	C 	0.36940 0.24780 0.11840 0.08900
H 	H 	0.35320 0.28310 0.13540 0.02500
H 	H 	0.05240 0.03130 0.11230 0.08800
H 	H 	0.06830 0.07370 0.17380 0.07300
H 	H 	0.06650 0.98860 0.16670 0.07900
O 	O 	0.10970 0.48160 0.49300 -0.40600
O 	O 	0.02970 0.43950 0.57368 -0.40200
C 	C 	0.09140 0.44940 0.54320 0.37000
C 	C 	0.14430 0.41920 0.56970 -0.12800
C 	C 	0.12160 0.36940 0.61840 0.08800
H 	H 	0.07010 0.35320 0.63540 0.02500
H 	H 	0.02110 0.05240 0.61230 0.08800
H 	H 	0.99460 0.06830 0.67380 0.07300
H 	H 	0.07790 0.06650 0.66670 0.08000
O 	O 	0.37190 0.89030 0.49300 -0.40600
O 	O 	0.40980 0.97030 0.57368 -0.40200
C 	C 	0.35800 0.90860 0.54320 0.37000
C 	C 	0.27490 0.85570 0.56970 -0.12800
C 	C 	0.24780 0.87840 0.61840 0.08800
H 	H 	0.28310 0.92990 0.63540 0.02500
H 	H 	0.03130 0.97890 0.61230 0.08800
H 	H 	0.07370 0.00540 0.67380 0.07300
H 	H 	0.98860 0.92210 0.66670 0.08000
O 	O 	0.51840 0.62810 0.49300 -0.40600
O 	O 	0.56050 0.59020 0.57368 -0.40200
C 	C 	0.55060 0.64200 0.54320 0.37000
C 	C 	0.58080 0.72510 0.56970 -0.12800
C 	C 	0.63060 0.75220 0.61840 0.08800
H 	H 	0.64680 0.71690 0.63540 0.02500
H 	H 	0.94760 0.96870 0.61230 0.08800
H 	H 	0.93170 0.92630 0.67380 0.07300
H 	H 	0.93350 0.01140 0.66670 0.08000
Cu	Cu	0.52350 0.04700 0.95179 0.91100
Cu	Cu	0.95300 0.47650 0.95179 0.91100
Cu	Cu	0.52350 0.47650 0.95179 0.91100
Cu	Cu	0.47650 0.95300 0.45179 0.91100
Cu	Cu	0.04700 0.52350 0.45179 0.91100
Cu	Cu	0.47650 0.52350 0.45179 0.91100
Cu	Cu	0.04700 0.52350 0.04821 0.91100
Cu	Cu	0.47650 0.95300 0.04821 0.91100
Cu	Cu	0.47650 0.52350 0.04821 0.91100
Cu	Cu	0.95300 0.47650 0.54821 0.91100
Cu	Cu	0.52350 0.04700 0.54821 0.91100
Cu	Cu	0.52350 0.47650 0.54821 0.91100
C 	C 	0.44320 0.22160 0.04280 0.07000
H 	H 	0.47390 0.23695 0.00840 0.04100
C 	C 	0.34250 0.17125 0.14300 -0.15100
C 	C 	0.29400 0.14700 0.19870 0.34800
C 	C 	0.20570 0.10285 0.19650 -0.50700
O 	O 	0.18570 0.09285 0.08690 -0.11100
O 	O 	0.08200 0.04100 0.14840 -0.47300
C 	C 	0.15930 0.07965 0.13860 -0.10500
H 	H 	0.17660 0.08830 0.16140 0.36900
C 	C 	0.77840 0.22160 0.04280 0.07000
H 	H 	0.76305 0.23695 0.00840 0.04200
C 	C 	0.82875 0.17125 0.14300 -0.15100
C 	C 	0.85300 0.14700 0.19870 0.34700
C 	C 	0.89715 0.10285 0.19650 -0.50600
O 	O 	0.90715 0.09285 0.08690 -0.11000
O 	O 	0.95900 0.04100 0.14840 -0.47200
C 	C 	0.92035 0.07965 0.13860 -0.10500
H 	H 	0.91170 0.08830 0.16140 0.36900
C 	C 	0.77840 0.55680 0.04280 0.07000
H 	H 	0.76305 0.52610 0.00840 0.04100
C 	C 	0.82875 0.65750 0.14300 -0.15100
C 	C 	0.85300 0.70600 0.19870 0.34800
C 	C 	0.89715 0.79430 0.19650 -0.50700
O 	O 	0.90715 0.81430 0.08690 -0.11100
O 	O 	0.95900 0.91800 0.14840 -0.47300
C 	C 	0.92035 0.84070 0.13860 -0.10500
H 	H 	0.91170 0.82340 0.16140 0.36900
C 	C 	0.55680 0.77840 0.54280 0.06900
H 	H 	0.52610 0.76305 0.50840 0.04100
C 	C 	0.65750 0.82875 0.64300 -0.15000
C 	C 	0.70600 0.85300 0.69870 0.34800
C 	C 	0.79430 0.89715 0.69650 -0.50800
O 	O 	0.81430 0.90715 0.58690 -0.11100
O 	O 	0.91800 0.95900 0.64840 -0.47400
C 	C 	0.84070 0.92035 0.63860 -0.10500
H 	H 	0.82340 0.91170 0.66140 0.37000
C 	C 	0.22160 0.77840 0.54280 0.06900
H 	H 	0.23695 0.76305 0.50840 0.04100
C 	C 	0.17125 0.82875 0.64300 -0.15000
C 	C 	0.14700 0.85300 0.69870 0.34700
C 	C 	0.10285 0.89715 0.69650 -0.50700
O 	O 	0.09285 0.90715 0.58690 -0.11100
O 	O 	0.04100 0.95900 0.64840 -0.47300
C 	C 	0.07965 0.92035 0.63860 -0.10500
H 	H 	0.08830 0.91170 0.66140 0.37000
C 	C 	0.22160 0.44320 0.54280 0.06900
H 	H 	0.23695 0.47390 0.50840 0.04100
C 	C 	0.17125 0.34250 0.64300 -0.15000
C 	C 	0.14700 0.29400 0.69870 0.34800
C 	C 	0.10285 0.20570 0.69650 -0.50800
O 	O 	0.09285 0.18570 0.58690 -0.11100
O 	O 	0.04100 0.08200 0.64840 -0.47400
C 	C 	0.07965 0.15930 0.63860 -0.10500
H 	H 	0.08830 0.17660 0.66140 0.37000
C 	C 	0.22160 0.44320 0.95720 0.07000
H 	H 	0.23695 0.47390 0.99160 0.04100
C 	C 	0.17125 0.34250 0.85700 -0.15100
C 	C 	0.14700 0.29400 0.80130 0.34800
C 	C 	0.10285 0.20570 0.80350 -0.50700
O 	O 	0.09285 0.18570 0.91310 -0.11100
O 	O 	0.04100 0.08200 0.85160 -0.47300
C 	C 	0.07965 0.15930 0.86140 -0.10500
H 	H 	0.08830 0.17660 0.83860 0.36900
C 	C 	0.22160 0.77840 0.95720 0.07000
H 	H 	0.23695 0.76305 0.99160 0.04200
C 	C 	0.17125 0.82875 0.85700 -0.15100
C 	C 	0.14700 0.85300 0.80130 0.34700
C 	C 	0.10285 0.89715 0.80350 -0.50600
O 	O 	0.09285 0.90715 0.91310 -0.11000
O 	O 	0.04100 0.95900 0.85160 -0.47200
C 	C 	0.07965 0.92035 0.86140 -0.10500
H 	H 	0.08830 0.91170 0.83860 0.36900
C 	C 	0.55680 0.77840 0.95720 0.07000
H 	H 	0.52610 0.76305 0.99160 0.04100
C 	C 	0.65750 0.82875 0.85700 -0.15100
C 	C 	0.70600 0.85300 0.80130 0.34800
C 	C 	0.79430 0.89715 0.80350 -0.50700
O 	O 	0.81430 0.90715 0.91310 -0.11100
O 	O 	0.91800 0.95900 0.85160 -0.47300
C 	C 	0.84070 0.92035 0.86140 -0.10500
H 	H 	0.82340 0.91170 0.83860 0.36900
C 	C 	0.77840 0.55680 0.45720 0.06900
H 	H 	0.76305 0.52610 0.49160 0.04100
C 	C 	0.82875 0.65750 0.35700 -0.15000
C 	C 	0.85300 0.70600 0.30130 0.34800
C 	C 	0.89715 0.79430 0.30350 -0.50800
O 	O 	0.90715 0.81430 0.41310 -0.11100
O 	O 	0.95900 0.91800 0.35160 -0.47400
C 	C 	0.92035 0.84070 0.36140 -0.10500
H 	H 	0.91170 0.82340 0.33860 0.37000
C 	C 	0.77840 0.22160 0.45720 0.06900
H 	H 	0.76305 0.23695 0.49160 0.04100
C 	C 	0.82875 0.17125 0.35700 -0.15000
C 	C 	0.85300 0.14700 0.30130 0.34700
C 	C 	0.89715 0.10285 0.30350 -0.50700
O 	O 	0.90715 0.09285 0.41310 -0.11100
O 	O 	0.95900 0.04100 0.35160 -0.47300
C 	C 	0.92035 0.07965 0.36140 -0.10500
H 	H 	0.91170 0.08830 0.33860 0.37000
C 	C 	0.44320 0.22160 0.45720 0.06900
H 	H 	0.47390 0.23695 0.49160 0.04100
C 	C 	0.34250 0.17125 0.35700 -0.15000
C 	C 	0.29400 0.14700 0.30130 0.34800
C 	C 	0.20570 0.10285 0.30350 -0.50800
O 	O 	0.18570 0.09285 0.41310 -0.11100
O 	O 	0.08200 0.04100 0.35160 -0.47400
C 	C 	0.15930 0.07965 0.36140 -0.10500
H 	H 	0.17660 0.08830 0.33860 0.37000
C 	C 	0.33480 0.16740 0.25000 -0.42300
H 	H 	0.39280 0.19640 0.25000 0.18500
C 	C 	0.16560 0.08280 0.25000 0.42400
H 	H 	0.10750 0.05375 0.25000 -0.12200
C 	C 	0.83260 0.16740 0.25000 -0.42200
H 	H 	0.80360 0.19640 0.25000 0.18500
C 	C 	0.91720 0.08280 0.25000 0.42400
H 	H 	0.94625 0.05375 0.25000 -0.12100
C 	C 	0.83260 0.66520 0.25000 -0.42300
H 	H 	0.80360 0.60720 0.25000 0.18500
C 	C 	0.91720 0.83440 0.25000 0.42400
H 	H 	0.94625 0.89250 0.25000 -0.12200
C 	C 	0.66520 0.83260 0.75000 -0.42300
H 	H 	0.60720 0.80360 0.75000 0.18500
C 	C 	0.83440 0.91720 0.75000 0.42400
H 	H 	0.89250 0.94625 0.75000 -0.12200
C 	C 	0.16740 0.83260 0.75000 -0.42200
H 	H 	0.19640 0.80360 0.75000 0.18500
C 	C 	0.08280 0.91720 0.75000 0.42400
H 	H 	0.05375 0.94625 0.75000 -0.12100
C 	C 	0.16740 0.33480 0.75000 -0.42300
H 	H 	0.19640 0.39280 0.75000 0.18500
C 	C 	0.08280 0.16560 0.75000 0.42400
H 	H 	0.05375 0.10750 0.75000 -0.12200
