data_crystal

_cell_length_a 9.78700
_cell_length_b 12.15700
_cell_length_c 15.18200
_cell_angle_alpha 90.00000
_cell_angle_beta  90.00000
_cell_angle_gamma 90.00000

_symmetry_space_group_name_	'P 1'
_symmetry_space_group_name_H-M	'P 1'

loop_
_symmetry_equiv_pos_as_xyz
  x,y,z

loop_
_atom_site_label
_atom_site_type_symbol
_atom_site_fract_x
_atom_site_fract_y
_atom_site_fract_z
_atom_site_charge
C 	C 	0.37850 0.82060 0.86230 -0.09800
C 	C 	0.37830 0.75680 0.78770 0.08700
H 	H 	0.29450 0.73770 0.76010 0.04300
C 	C 	0.24850 0.86550 0.90250 0.39900
O 	O 	0.15110 0.88100 0.85290 -0.34800
O 	O 	0.25530 0.88440 0.98250 -0.29200
O 	O 	0.38650 0.61840 0.64550 -0.42400
C 	C 	0.87850 0.32060 0.36230 -0.14500
C 	C 	0.87830 0.25680 0.28770 0.18200
H 	H 	0.79450 0.23770 0.26010 -0.02100
C 	C 	0.74850 0.36550 0.40250 0.41900
O 	O 	0.65110 0.38100 0.35290 -0.44000
O 	O 	0.75530 0.38440 0.48250 -0.42600
O 	O 	0.88650 0.11840 0.14550 -0.46600
C 	C 	0.62150 0.17940 0.86230 -0.16000
C 	C 	0.62170 0.24320 0.78770 0.10500
H 	H 	0.70550 0.26230 0.76010 0.02900
C 	C 	0.75150 0.13450 0.90250 0.40000
O 	O 	0.84890 0.11900 0.85290 -0.41400
O 	O 	0.74470 0.11560 0.98250 -0.37400
O 	O 	0.61350 0.38160 0.64550 -0.43200
C 	C 	0.12150 0.67940 0.36230 -0.14600
C 	C 	0.12170 0.74320 0.28770 0.11200
H 	H 	0.20550 0.76230 0.26010 0.02300
C 	C 	0.25150 0.63450 0.40250 0.42400
O 	O 	0.34890 0.61900 0.35290 -0.42700
O 	O 	0.24470 0.61560 0.48250 -0.42400
O 	O 	0.11350 0.88160 0.14550 -0.39700
C 	C 	0.37850 0.17940 0.86230 -0.16800
C 	C 	0.37830 0.24320 0.78770 0.10800
H 	H 	0.29450 0.26230 0.76010 0.01700
C 	C 	0.24850 0.13450 0.90250 0.40500
O 	O 	0.15110 0.11900 0.85290 -0.45200
O 	O 	0.25530 0.11560 0.98250 -0.38700
O 	O 	0.38650 0.38160 0.64550 -0.44000
C 	C 	0.87850 0.67940 0.36230 -0.10500
C 	C 	0.87830 0.74320 0.28770 0.16100
H 	H 	0.79450 0.76230 0.26010 0.01500
C 	C 	0.74850 0.63450 0.40250 0.41900
O 	O 	0.65110 0.61900 0.35290 -0.42200
O 	O 	0.75530 0.61560 0.48250 -0.40600
O 	O 	0.88650 0.88160 0.14550 -0.35500
C 	C 	0.62150 0.82060 0.86230 -0.09100
C 	C 	0.62170 0.75680 0.78770 0.08400
H 	H 	0.70550 0.73770 0.76010 0.05500
C 	C 	0.75150 0.86550 0.90250 0.39400
O 	O 	0.84890 0.88100 0.85290 -0.31300
O 	O 	0.74470 0.88440 0.98250 -0.28000
O 	O 	0.61350 0.61840 0.64550 -0.41600
C 	C 	0.12150 0.32060 0.36230 -0.18600
C 	C 	0.12170 0.25680 0.28770 0.13100
H 	H 	0.20550 0.23770 0.26010 -0.01300
C 	C 	0.25150 0.36550 0.40250 0.42400
O 	O 	0.34890 0.38100 0.35290 -0.44500
O 	O 	0.24470 0.38440 0.48250 -0.44500
O 	O 	0.11350 0.11840 0.14550 -0.51000
C 	C 	0.50000 0.85300 0.89950 0.07400
H 	H 	0.50000 0.89780 0.95080 0.08100
C 	C 	0.50000 0.72100 0.75330 -0.12500
C 	C 	0.50000 0.64780 0.67380 0.42100
C 	C 	0.00000 0.35300 0.39950 0.04900
H 	H 	0.00000 0.39780 0.45080 0.01100
C 	C 	0.00000 0.22100 0.25330 -0.26700
C 	C 	0.00000 0.14780 0.17380 0.38100
C 	C 	0.50000 0.14700 0.89950 0.09700
H 	H 	0.50000 0.10220 0.95080 0.00000
C 	C 	0.50000 0.27900 0.75330 -0.16900
C 	C 	0.50000 0.35220 0.67380 0.42100
C 	C 	0.00000 0.64700 0.39950 0.03300
H 	H 	0.00000 0.60220 0.45080 0.02400
C 	C 	0.00000 0.77900 0.25330 -0.20400
C 	C 	0.00000 0.85220 0.17380 0.36500
Ni	Ni	0.00000 0.00000 0.86322 1.04700
O 	O 	-0.00000 0.00000 0.99090 -0.58900
Ni	Ni	0.50000 0.50000 0.36322 1.11800
O 	O 	0.50000 0.50000 0.49090 -0.58400
Ni	Ni	0.83138 0.00000 0.06020 0.99800
Ni	Ni	0.33138 0.50000 0.56020 1.13000
Ni	Ni	0.16862 0.00000 0.06020 0.98600
Ni	Ni	0.66862 0.50000 0.56020 1.13400
