data_crystal

_cell_length_a 17.25600
_cell_length_b 23.22700
_cell_length_c 25.42600
_cell_angle_alpha 90.00000
_cell_angle_beta  90.00000
_cell_angle_gamma 90.00000

_symmetry_space_group_name_	'P 1'
_symmetry_space_group_name_H-M	'P 1'

loop_
_symmetry_equiv_pos_as_xyz
  x,y,z

loop_
_atom_site_label
_atom_site_type_symbol
_atom_site_fract_x
_atom_site_fract_y
_atom_site_fract_z
_atom_site_charge
Zn	Zn	0.16391 0.34253 0.93779 1.21100
O 	O 	0.27420 0.46544 0.06099 -0.51400
O 	O 	0.18500 0.41441 0.10325 -0.49400
C 	C 	0.23070 0.45750 0.09910 0.40400
C 	C 	0.23020 0.50010 0.14150 -0.13700
C 	C 	0.23230 0.58020 0.22550 0.04500
C 	C 	0.28710 0.53940 0.14670 -0.11600
H 	H 	0.32910 0.53860 0.12380 0.06700
C 	C 	0.28360 0.58170 0.18650 -0.21100
H 	H 	0.31880 0.61200 0.18540 0.08400
C 	C 	0.17260 0.54040 0.22340 -0.22300
H 	H 	0.13230 0.54250 0.24760 0.09900
C 	C 	0.17250 0.49570 0.18380 -0.12700
H 	H 	0.13730 0.46540 0.18510 0.07300
C 	C 	0.23610 0.62050 0.26850 0.03000
C 	C 	0.28810 0.66560 0.26540 -0.08800
H 	H 	0.31970 0.66890 0.23600 0.05500
C 	C 	0.29460 0.70890 0.30780 0.00700
H 	H 	0.33010 0.73900 0.30630 0.03500
C 	C 	0.24180 0.70170 0.35230 -0.10200
C 	C 	0.19390 0.65420 0.35420 0.02300
H 	H 	0.16360 0.64730 0.38370 0.03400
C 	C 	0.19120 0.61600 0.31100 -0.09800
H 	H 	0.15590 0.58590 0.31230 0.05700
C 	C 	0.24650 0.74360 0.39580 0.34300
O 	O 	0.20560 0.73140 0.43780 -0.48600
O 	O 	0.29190 0.78640 0.38970 -0.50800
O 	O 	0.05670 0.35380 0.04210 -0.56900
C 	C 	0.81760 0.38790 0.03180 -0.03700
H 	H 	0.79420 0.41260 0.05570 0.03900
C 	C 	0.89580 0.38400 0.03010 -0.01100
H 	H 	0.92270 0.40670 0.05410 0.03700
C 	C 	0.89560 0.32460 0.95530 -0.03900
H 	H 	0.92200 0.30660 0.92800 0.05000
C 	C 	0.81330 0.32690 0.95790 0.00200
H 	H 	0.78400 0.30880 0.93200 0.03200
C 	C 	0.25900 0.55600 0.13330 0.13300
H 	H 	0.28120 0.56420 0.10090 -0.01400
C 	C 	0.25660 0.59960 0.17050 0.09800
H 	H 	0.26880 0.63770 0.16260 -0.01700
C 	C 	0.21410 0.52520 0.22990 0.12300
H 	H 	0.20110 0.51230 0.26340 -0.00500
C 	C 	0.21250 0.48490 0.19010 0.13000
H 	H 	0.19900 0.44700 0.19740 -0.01000
Zn	Zn	0.33609 0.84253 0.56221 1.20700
O 	O 	0.22580 0.96544 0.43901 -0.50900
O 	O 	0.31500 0.91441 0.39675 -0.49100
C 	C 	0.26930 0.95750 0.40090 0.40500
C 	C 	0.26980 0.00010 0.35850 -0.13600
C 	C 	0.26770 0.08020 0.27450 0.04800
C 	C 	0.21290 0.03940 0.35330 -0.12800
H 	H 	0.17090 0.03860 0.37620 0.07200
C 	C 	0.21640 0.08170 0.31350 -0.22700
H 	H 	0.18120 0.11200 0.31460 0.08800
C 	C 	0.32740 0.04040 0.27660 -0.22800
H 	H 	0.36770 0.04250 0.25240 0.10000
C 	C 	0.32750 0.99570 0.31620 -0.13100
H 	H 	0.36270 0.96540 0.31490 0.07500
C 	C 	0.26390 0.12050 0.23150 0.02800
C 	C 	0.21190 0.16560 0.23460 -0.08800
H 	H 	0.18030 0.16890 0.26400 0.05500
C 	C 	0.20540 0.20890 0.19220 0.00700
H 	H 	0.16990 0.23900 0.19370 0.03500
C 	C 	0.25820 0.20170 0.14770 -0.10300
C 	C 	0.30610 0.15420 0.14580 0.02200
H 	H 	0.33640 0.14730 0.11630 0.03100
C 	C 	0.30880 0.11600 0.18900 -0.09800
H 	H 	0.34410 0.08590 0.18770 0.05600
C 	C 	0.25350 0.24360 0.10420 0.34300
O 	O 	0.29440 0.23140 0.06220 -0.49100
O 	O 	0.20810 0.28640 0.11030 -0.51000
O 	O 	0.44330 0.85380 0.45790 -0.57400
C 	C 	0.68240 0.88790 0.46820 -0.13900
H 	H 	0.70580 0.91260 0.44430 0.07700
C 	C 	0.60420 0.88400 0.46990 0.11100
H 	H 	0.57730 0.90670 0.44590 -0.00200
C 	C 	0.60440 0.82460 0.54470 0.02200
H 	H 	0.57800 0.80660 0.57200 0.02300
C 	C 	0.68670 0.82690 0.54210 -0.09000
H 	H 	0.71600 0.80880 0.56800 0.05600
C 	C 	0.24100 0.05600 0.36670 0.14600
H 	H 	0.21880 0.06420 0.39910 -0.02100
C 	C 	0.24340 0.09960 0.32950 0.11200
H 	H 	0.23120 0.13770 0.33740 -0.02100
C 	C 	0.28590 0.02520 0.27010 0.12700
H 	H 	0.29890 0.01230 0.23660 -0.00700
C 	C 	0.28750 0.98490 0.30990 0.13400
H 	H 	0.30100 0.94700 0.30260 -0.01200
Zn	Zn	0.16391 0.34253 0.06221 1.20500
O 	O 	0.27420 0.46544 0.93901 -0.49200
O 	O 	0.18500 0.41441 0.89675 -0.48500
C 	C 	0.23070 0.45750 0.90090 0.40300
C 	C 	0.23020 0.50010 0.85850 -0.13500
C 	C 	0.23230 0.58020 0.77450 0.06400
C 	C 	0.28710 0.53940 0.85330 -0.18900
H 	H 	0.32910 0.53860 0.87620 0.09700
C 	C 	0.28360 0.58170 0.81350 -0.30300
H 	H 	0.31880 0.61200 0.81460 0.11000
C 	C 	0.17260 0.54040 0.77660 -0.27200
H 	H 	0.13230 0.54250 0.75240 0.11700
C 	C 	0.17250 0.49570 0.81620 -0.16600
H 	H 	0.13730 0.46540 0.81490 0.08800
C 	C 	0.23610 0.62050 0.73150 0.02000
C 	C 	0.28810 0.66560 0.73460 -0.08100
H 	H 	0.31970 0.66890 0.76400 0.05500
C 	C 	0.29460 0.70890 0.69220 0.00400
H 	H 	0.33010 0.73900 0.69370 0.03800
C 	C 	0.24180 0.70170 0.64770 -0.09800
C 	C 	0.19390 0.65420 0.64580 0.01800
H 	H 	0.16360 0.64730 0.61630 0.03500
C 	C 	0.19120 0.61600 0.68900 -0.09000
H 	H 	0.15590 0.58590 0.68770 0.05400
C 	C 	0.24650 0.74360 0.60420 0.34200
O 	O 	0.20560 0.73140 0.56220 -0.48500
O 	O 	0.29190 0.78640 0.61030 -0.50700
O 	O 	0.05670 0.35380 0.95790 -0.54100
C 	C 	0.81760 0.38790 0.96820 -0.19000
H 	H 	0.79420 0.41260 0.94430 0.10100
C 	C 	0.89580 0.38400 0.96990 0.23700
H 	H 	0.92270 0.40670 0.94590 -0.04000
C 	C 	0.89560 0.32460 0.04470 0.08400
H 	H 	0.92200 0.30660 0.07200 -0.00200
C 	C 	0.81330 0.32690 0.04210 -0.13800
H 	H 	0.78400 0.30880 0.06800 0.07100
C 	C 	0.25900 0.55600 0.86670 0.20900
H 	H 	0.28120 0.56420 0.89910 -0.03700
C 	C 	0.25660 0.59960 0.82950 0.17900
H 	H 	0.26880 0.63770 0.83740 -0.04200
C 	C 	0.21410 0.52520 0.77010 0.16700
H 	H 	0.20110 0.51230 0.73660 -0.01600
C 	C 	0.21250 0.48490 0.80990 0.17000
H 	H 	0.19900 0.44700 0.80260 -0.02100
Zn	Zn	0.33609 0.84253 0.43779 1.20700
O 	O 	0.22580 0.96544 0.56099 -0.50900
O 	O 	0.31500 0.91441 0.60325 -0.49000
C 	C 	0.26930 0.95750 0.59910 0.40500
C 	C 	0.26980 0.00010 0.64150 -0.13600
C 	C 	0.26770 0.08020 0.72550 0.05200
C 	C 	0.21290 0.03940 0.64670 -0.13300
H 	H 	0.17090 0.03860 0.62380 0.07400
C 	C 	0.21640 0.08170 0.68650 -0.23500
H 	H 	0.18120 0.11200 0.68540 0.09100
C 	C 	0.32740 0.04040 0.72340 -0.23600
H 	H 	0.36770 0.04250 0.74760 0.10500
C 	C 	0.32750 0.99570 0.68380 -0.13600
H 	H 	0.36270 0.96540 0.68510 0.07800
C 	C 	0.26390 0.12050 0.76850 0.02600
C 	C 	0.21190 0.16560 0.76540 -0.08400
H 	H 	0.18030 0.16890 0.73600 0.05400
C 	C 	0.20540 0.20890 0.80780 0.00600
H 	H 	0.16990 0.23900 0.80630 0.03700
C 	C 	0.25820 0.20170 0.85230 -0.09600
C 	C 	0.30610 0.15420 0.85420 0.02000
H 	H 	0.33640 0.14730 0.88370 0.04000
C 	C 	0.30880 0.11600 0.81100 -0.09200
H 	H 	0.34410 0.08590 0.81230 0.05800
C 	C 	0.25350 0.24360 0.89580 0.34200
O 	O 	0.29440 0.23140 0.93780 -0.46900
O 	O 	0.20810 0.28640 0.88970 -0.50200
O 	O 	0.44330 0.85380 0.54210 -0.57400
C 	C 	0.68240 0.88790 0.53180 -0.13600
H 	H 	0.70580 0.91260 0.55570 0.07600
C 	C 	0.60420 0.88400 0.53010 0.10800
H 	H 	0.57730 0.90670 0.55410 -0.00100
C 	C 	0.60440 0.82460 0.45530 0.02000
H 	H 	0.57800 0.80660 0.42800 0.02400
C 	C 	0.68670 0.82690 0.45790 -0.08800
H 	H 	0.71600 0.80880 0.43200 0.05500
C 	C 	0.24100 0.05600 0.63330 0.15300
H 	H 	0.21880 0.06420 0.60090 -0.02300
C 	C 	0.24340 0.09960 0.67050 0.11800
H 	H 	0.23120 0.13770 0.66260 -0.02300
C 	C 	0.28590 0.02520 0.72990 0.13300
H 	H 	0.29890 0.01230 0.76340 -0.00500
C 	C 	0.28750 0.98490 0.69010 0.14100
H 	H 	0.30100 0.94700 0.69740 -0.01200
Zn	Zn	0.29128 0.41652 -0.00000 1.21000
Zn	Zn	0.29801 0.27917 -0.00000 1.20000
O 	O 	0.23000 0.34704 -0.00000 -0.97100
O 	O 	0.40350 0.40560 -0.00000 -0.48200
O 	O 	0.40490 0.30730 -0.00000 -0.50700
C 	C 	0.43840 0.35550 -0.00000 0.37400
C 	C 	0.52250 0.35840 -0.00000 -0.14200
C 	C 	0.56640 0.30670 -0.00000 0.05100
H 	H 	0.54070 0.27150 -0.00000 0.01900
C 	C 	0.64430 0.30740 -0.00000 -0.12400
H 	H 	0.67080 0.27260 -0.00000 0.06300
C 	C 	0.68720 0.35900 -0.00000 0.03600
C 	C 	0.64740 0.40620 -0.00000 -0.12600
H 	H 	0.67410 0.44100 -0.00000 0.07200
C 	C 	0.56610 0.40800 -0.00000 0.05400
H 	H 	0.54110 0.44340 -0.00000 0.02500
C 	C 	0.77460 0.35700 -0.00000 0.05900
C 	C 	0.93630 0.35350 -0.00000 -0.27100
C 	C 	0.02390 0.35590 -0.00000 0.48500
Zn	Zn	0.20872 0.91652 0.50000 1.21500
Zn	Zn	0.20199 0.77917 0.50000 1.20600
O 	O 	0.27000 0.84704 0.50000 -0.95700
O 	O 	0.09650 0.90560 0.50000 -0.47400
O 	O 	0.09510 0.80730 0.50000 -0.49900
C 	C 	0.06160 0.85550 0.50000 0.37000
C 	C 	0.97750 0.85840 0.50000 -0.12600
C 	C 	0.93360 0.80670 0.50000 0.03600
H 	H 	0.95930 0.77150 0.50000 0.02900
C 	C 	0.85570 0.80740 0.50000 -0.10000
H 	H 	0.82920 0.77260 0.50000 0.06100
C 	C 	0.81280 0.85900 0.50000 0.01100
C 	C 	0.85260 0.90620 0.50000 -0.10000
H 	H 	0.82590 0.94100 0.50000 0.06900
C 	C 	0.93390 0.90800 0.50000 0.03900
H 	H 	0.95890 0.94340 0.50000 0.03300
C 	C 	0.72540 0.85700 0.50000 0.12300
C 	C 	0.56370 0.85350 0.50000 -0.24700
C 	C 	0.47610 0.85590 0.50000 0.52200
Zn	Zn	0.83609 0.65747 0.93779 1.21200
O 	O 	0.72580 0.53456 0.06099 -0.51300
O 	O 	0.81500 0.58559 0.10325 -0.49300
C 	C 	0.76930 0.54250 0.09910 0.40500
C 	C 	0.76980 0.49990 0.14150 -0.13600
C 	C 	0.76770 0.41980 0.22550 0.04600
C 	C 	0.71290 0.46060 0.14670 -0.11500
H 	H 	0.67090 0.46140 0.12380 0.06800
C 	C 	0.71640 0.41830 0.18650 -0.21100
H 	H 	0.68120 0.38800 0.18540 0.08400
C 	C 	0.82740 0.45960 0.22340 -0.22300
H 	H 	0.86770 0.45750 0.24760 0.09900
C 	C 	0.82750 0.50430 0.18380 -0.12700
H 	H 	0.86270 0.53460 0.18510 0.07300
C 	C 	0.76390 0.37950 0.26850 0.03000
C 	C 	0.71190 0.33440 0.26540 -0.08800
H 	H 	0.68030 0.33110 0.23600 0.05500
C 	C 	0.70540 0.29110 0.30780 0.00700
H 	H 	0.66990 0.26100 0.30630 0.03500
C 	C 	0.75820 0.29830 0.35230 -0.10200
C 	C 	0.80610 0.34580 0.35420 0.02300
H 	H 	0.83640 0.35270 0.38370 0.03400
C 	C 	0.80880 0.38400 0.31100 -0.09800
H 	H 	0.84410 0.41410 0.31230 0.05700
C 	C 	0.75350 0.25640 0.39580 0.34300
O 	O 	0.79440 0.26860 0.43780 -0.48600
O 	O 	0.70810 0.21360 0.38970 -0.50800
O 	O 	0.94330 0.64620 0.04210 -0.56900
C 	C 	0.18240 0.61210 0.03180 -0.03700
H 	H 	0.20580 0.58740 0.05570 0.03900
C 	C 	0.10420 0.61600 0.03010 -0.01100
H 	H 	0.07730 0.59330 0.05410 0.03700
C 	C 	0.10440 0.67540 0.95530 -0.03900
H 	H 	0.07800 0.69340 0.92800 0.05000
C 	C 	0.18670 0.67310 0.95790 0.00200
H 	H 	0.21600 0.69120 0.93200 0.03200
C 	C 	0.74100 0.44400 0.13330 0.13300
H 	H 	0.71880 0.43580 0.10090 -0.01400
C 	C 	0.74340 0.40040 0.17050 0.09800
H 	H 	0.73120 0.36230 0.16260 -0.01700
C 	C 	0.78590 0.47480 0.22990 0.12300
H 	H 	0.79890 0.48770 0.26340 -0.00500
C 	C 	0.78750 0.51510 0.19010 0.13000
H 	H 	0.80100 0.55300 0.19740 -0.01000
Zn	Zn	0.66391 0.15747 0.56221 1.20700
O 	O 	0.77420 0.03456 0.43901 -0.50900
O 	O 	0.68500 0.08559 0.39675 -0.49100
C 	C 	0.73070 0.04250 0.40090 0.40500
C 	C 	0.73020 0.99990 0.35850 -0.13600
C 	C 	0.73230 0.91980 0.27450 0.04800
C 	C 	0.78710 0.96060 0.35330 -0.12800
H 	H 	0.82910 0.96140 0.37620 0.07200
C 	C 	0.78360 0.91830 0.31350 -0.22700
H 	H 	0.81880 0.88800 0.31460 0.08800
C 	C 	0.67260 0.95960 0.27660 -0.22800
H 	H 	0.63230 0.95750 0.25240 0.10000
C 	C 	0.67250 0.00430 0.31620 -0.13100
H 	H 	0.63730 0.03460 0.31490 0.07500
C 	C 	0.73610 0.87950 0.23150 0.02800
C 	C 	0.78810 0.83440 0.23460 -0.08800
H 	H 	0.81970 0.83110 0.26400 0.05500
C 	C 	0.79460 0.79110 0.19220 0.00700
H 	H 	0.83010 0.76100 0.19370 0.03500
C 	C 	0.74180 0.79830 0.14770 -0.10300
C 	C 	0.69390 0.84580 0.14580 0.02200
H 	H 	0.66360 0.85270 0.11630 0.03100
C 	C 	0.69120 0.88400 0.18900 -0.09800
H 	H 	0.65590 0.91410 0.18770 0.05600
C 	C 	0.74650 0.75640 0.10420 0.34300
O 	O 	0.70560 0.76860 0.06220 -0.49100
O 	O 	0.79190 0.71360 0.11030 -0.51000
O 	O 	0.55670 0.14620 0.45790 -0.57400
C 	C 	0.31760 0.11210 0.46820 -0.13900
H 	H 	0.29420 0.08740 0.44430 0.07700
C 	C 	0.39580 0.11600 0.46990 0.11100
H 	H 	0.42270 0.09330 0.44590 -0.00200
C 	C 	0.39560 0.17540 0.54470 0.02200
H 	H 	0.42200 0.19340 0.57200 0.02300
C 	C 	0.31330 0.17310 0.54210 -0.09000
H 	H 	0.28400 0.19120 0.56800 0.05600
C 	C 	0.75900 0.94400 0.36670 0.14600
H 	H 	0.78120 0.93580 0.39910 -0.02100
C 	C 	0.75660 0.90040 0.32950 0.11200
H 	H 	0.76880 0.86230 0.33740 -0.02100
C 	C 	0.71410 0.97480 0.27010 0.12700
H 	H 	0.70110 0.98770 0.23660 -0.00700
C 	C 	0.71250 0.01510 0.30990 0.13400
H 	H 	0.69900 0.05300 0.30260 -0.01200
Zn	Zn	0.83609 0.65747 0.06221 1.20500
O 	O 	0.72580 0.53456 0.93901 -0.49200
O 	O 	0.81500 0.58559 0.89675 -0.48500
C 	C 	0.76930 0.54250 0.90090 0.40300
C 	C 	0.76980 0.49990 0.85850 -0.13500
C 	C 	0.76770 0.41980 0.77450 0.06400
C 	C 	0.71290 0.46060 0.85330 -0.18900
H 	H 	0.67090 0.46140 0.87620 0.09700
C 	C 	0.71640 0.41830 0.81350 -0.30300
H 	H 	0.68120 0.38800 0.81460 0.11000
C 	C 	0.82740 0.45960 0.77660 -0.27200
H 	H 	0.86770 0.45750 0.75240 0.11700
C 	C 	0.82750 0.50430 0.81620 -0.16600
H 	H 	0.86270 0.53460 0.81490 0.08800
C 	C 	0.76390 0.37950 0.73150 0.02000
C 	C 	0.71190 0.33440 0.73460 -0.08100
H 	H 	0.68030 0.33110 0.76400 0.05500
C 	C 	0.70540 0.29110 0.69220 0.00400
H 	H 	0.66990 0.26100 0.69370 0.03800
C 	C 	0.75820 0.29830 0.64770 -0.09800
C 	C 	0.80610 0.34580 0.64580 0.01800
H 	H 	0.83640 0.35270 0.61630 0.03500
C 	C 	0.80880 0.38400 0.68900 -0.09000
H 	H 	0.84410 0.41410 0.68770 0.05400
C 	C 	0.75350 0.25640 0.60420 0.34200
O 	O 	0.79440 0.26860 0.56220 -0.48500
O 	O 	0.70810 0.21360 0.61030 -0.50700
O 	O 	0.94330 0.64620 0.95790 -0.54100
C 	C 	0.18240 0.61210 0.96820 -0.19000
H 	H 	0.20580 0.58740 0.94430 0.10100
C 	C 	0.10420 0.61600 0.96990 0.23700
H 	H 	0.07730 0.59330 0.94590 -0.04000
C 	C 	0.10440 0.67540 0.04470 0.08400
H 	H 	0.07800 0.69340 0.07200 -0.00200
C 	C 	0.18670 0.67310 0.04210 -0.13800
H 	H 	0.21600 0.69120 0.06800 0.07100
C 	C 	0.74100 0.44400 0.86670 0.20900
H 	H 	0.71880 0.43580 0.89910 -0.03700
C 	C 	0.74340 0.40040 0.82950 0.17900
H 	H 	0.73120 0.36230 0.83740 -0.04200
C 	C 	0.78590 0.47480 0.77010 0.16700
H 	H 	0.79890 0.48770 0.73660 -0.01600
C 	C 	0.78750 0.51510 0.80990 0.17000
H 	H 	0.80100 0.55300 0.80260 -0.02100
Zn	Zn	0.66391 0.15747 0.43779 1.20700
O 	O 	0.77420 0.03456 0.56099 -0.50900
O 	O 	0.68500 0.08559 0.60325 -0.49000
C 	C 	0.73070 0.04250 0.59910 0.40500
C 	C 	0.73020 0.99990 0.64150 -0.13600
C 	C 	0.73230 0.91980 0.72550 0.05200
C 	C 	0.78710 0.96060 0.64670 -0.13300
H 	H 	0.82910 0.96140 0.62380 0.07400
C 	C 	0.78360 0.91830 0.68650 -0.23500
H 	H 	0.81880 0.88800 0.68540 0.09100
C 	C 	0.67260 0.95960 0.72340 -0.23600
H 	H 	0.63230 0.95750 0.74760 0.10500
C 	C 	0.67250 0.00430 0.68380 -0.13600
H 	H 	0.63730 0.03460 0.68510 0.07800
C 	C 	0.73610 0.87950 0.76850 0.02600
C 	C 	0.78810 0.83440 0.76540 -0.08400
H 	H 	0.81970 0.83110 0.73600 0.05400
C 	C 	0.79460 0.79110 0.80780 0.00600
H 	H 	0.83010 0.76100 0.80630 0.03700
C 	C 	0.74180 0.79830 0.85230 -0.09600
C 	C 	0.69390 0.84580 0.85420 0.02000
H 	H 	0.66360 0.85270 0.88370 0.04000
C 	C 	0.69120 0.88400 0.81100 -0.09200
H 	H 	0.65590 0.91410 0.81230 0.05800
C 	C 	0.74650 0.75640 0.89580 0.34200
O 	O 	0.70560 0.76860 0.93780 -0.46900
O 	O 	0.79190 0.71360 0.88970 -0.50200
O 	O 	0.55670 0.14620 0.54210 -0.57400
C 	C 	0.31760 0.11210 0.53180 -0.13600
H 	H 	0.29420 0.08740 0.55570 0.07600
C 	C 	0.39580 0.11600 0.53010 0.10800
H 	H 	0.42270 0.09330 0.55410 -0.00100
C 	C 	0.39560 0.17540 0.45530 0.02000
H 	H 	0.42200 0.19340 0.42800 0.02400
C 	C 	0.31330 0.17310 0.45790 -0.08800
H 	H 	0.28400 0.19120 0.43200 0.05500
C 	C 	0.75900 0.94400 0.63330 0.15300
H 	H 	0.78120 0.93580 0.60090 -0.02300
C 	C 	0.75660 0.90040 0.67050 0.11800
H 	H 	0.76880 0.86230 0.66260 -0.02300
C 	C 	0.71410 0.97480 0.72990 0.13300
H 	H 	0.70110 0.98770 0.76340 -0.00500
C 	C 	0.71250 0.01510 0.69010 0.14100
H 	H 	0.69900 0.05300 0.69740 -0.01200
Zn	Zn	0.70872 0.58348 -0.00000 1.21000
Zn	Zn	0.70199 0.72083 -0.00000 1.20000
O 	O 	0.77000 0.65296 -0.00000 -0.97100
O 	O 	0.59650 0.59440 -0.00000 -0.48200
O 	O 	0.59510 0.69270 -0.00000 -0.50700
C 	C 	0.56160 0.64450 -0.00000 0.37400
C 	C 	0.47750 0.64160 -0.00000 -0.14200
C 	C 	0.43360 0.69330 -0.00000 0.05100
H 	H 	0.45930 0.72850 -0.00000 0.01900
C 	C 	0.35570 0.69260 -0.00000 -0.12400
H 	H 	0.32920 0.72740 -0.00000 0.06300
C 	C 	0.31280 0.64100 -0.00000 0.03600
C 	C 	0.35260 0.59380 -0.00000 -0.12600
H 	H 	0.32590 0.55900 -0.00000 0.07200
C 	C 	0.43390 0.59200 -0.00000 0.05400
H 	H 	0.45890 0.55660 -0.00000 0.02500
C 	C 	0.22540 0.64300 -0.00000 0.05900
C 	C 	0.06370 0.64650 -0.00000 -0.27100
C 	C 	0.97610 0.64410 -0.00000 0.48500
Zn	Zn	0.79128 0.08348 0.50000 1.21500
Zn	Zn	0.79801 0.22083 0.50000 1.20600
O 	O 	0.73000 0.15296 0.50000 -0.95700
O 	O 	0.90350 0.09440 0.50000 -0.47400
O 	O 	0.90490 0.19270 0.50000 -0.49900
C 	C 	0.93840 0.14450 0.50000 0.37000
C 	C 	0.02250 0.14160 0.50000 -0.12600
C 	C 	0.06640 0.19330 0.50000 0.03600
H 	H 	0.04070 0.22850 0.50000 0.02900
C 	C 	0.14430 0.19260 0.50000 -0.10000
H 	H 	0.17080 0.22740 0.50000 0.06100
C 	C 	0.18720 0.14100 0.50000 0.01100
C 	C 	0.14740 0.09380 0.50000 -0.10000
H 	H 	0.17410 0.05900 0.50000 0.06900
C 	C 	0.06610 0.09200 0.50000 0.03900
H 	H 	0.04110 0.05660 0.50000 0.03300
C 	C 	0.27460 0.14300 0.50000 0.12300
C 	C 	0.43630 0.14650 0.50000 -0.24700
C 	C 	0.52390 0.14410 0.50000 0.52200
