data_crystal

_cell_length_a 10.10710
_cell_length_b 13.08940
_cell_length_c 13.66960
_cell_angle_alpha 97.07400
_cell_angle_beta  109.84300
_cell_angle_gamma 95.59600

_symmetry_space_group_name_	'P 1'
_symmetry_space_group_name_H-M	'P 1'

loop_
_symmetry_equiv_pos_as_xyz
  x,y,z

loop_
_atom_site_label
_atom_site_type_symbol
_atom_site_fract_x
_atom_site_fract_y
_atom_site_fract_z
_atom_site_charge
C 	C 	0.99960 0.27870 0.93710 0.42400
C 	C 	0.00100 0.39310 0.97240 -0.13300
C 	C 	0.12650 0.45980 0.02000 0.14900
C 	C 	0.87130 0.43360 0.95170 0.14900
C 	C 	0.22160 0.05750 0.38620 0.40300
C 	C 	0.36620 0.02860 0.44630 -0.12100
C 	C 	0.47490 0.10040 0.52350 0.16100
C 	C 	0.60650 0.07280 0.57580 0.16600
C 	C 	0.73360 0.93160 0.94240 0.40300
C 	C 	0.61300 0.96660 0.97290 -0.16300
C 	C 	0.56850 0.92140 0.04570 0.15500
C 	C 	0.54100 0.04370 0.92550 0.15000
Cl	Cl	0.28370 0.40952 0.04438 -0.22300
Cl	Cl	0.71349 0.35118 0.89243 -0.19700
Cl	Cl	0.43827 0.22433 0.55303 -0.21400
Cl	Cl	0.73850 0.16382 0.66688 -0.23400
Cl	Cl	0.64767 0.82025 0.09792 -0.22000
Cl	Cl	0.59136 0.09426 0.83119 -0.24100
La	La	0.03628 0.11963 0.13967 1.64700
O 	O 	0.98400 0.21680 0.99740 -0.41800
O 	O 	0.01530 0.25430 0.85150 -0.22600
O 	O 	0.21820 0.10780 0.31290 -0.38100
O 	O 	0.12180 0.02600 0.41210 -0.26100
O 	O 	0.85310 0.99100 0.98060 -0.45200
O 	O 	0.71220 0.84920 0.87950 -0.32200
O 	O 	0.97410 0.95130 0.19640 -1.00500
H 	H 	0.97740 0.97530 0.25570 0.47200
H 	H 	0.99210 0.89260 0.18310 0.53100
C 	C 	0.00040 0.72130 0.06290 0.42500
C 	C 	0.99900 0.60690 0.02760 -0.13200
C 	C 	0.87350 0.54020 0.98000 0.14900
C 	C 	0.12870 0.56640 0.04830 0.14900
C 	C 	0.77840 0.94250 0.61380 0.40300
C 	C 	0.63380 0.97140 0.55370 -0.12100
C 	C 	0.52510 0.89960 0.47650 0.16100
C 	C 	0.39350 0.92720 0.42420 0.16600
C 	C 	0.26640 0.06840 0.05760 0.40300
C 	C 	0.38700 0.03340 0.02710 -0.16300
C 	C 	0.43150 0.07860 0.95430 0.15500
C 	C 	0.45900 0.95630 0.07450 0.15000
Cl	Cl	0.71630 0.59048 0.95562 -0.22300
Cl	Cl	0.28651 0.64882 0.10757 -0.19700
Cl	Cl	0.56173 0.77567 0.44697 -0.21400
Cl	Cl	0.26150 0.83618 0.33312 -0.23400
Cl	Cl	0.35233 0.17975 0.90208 -0.22000
Cl	Cl	0.40864 0.90574 0.16881 -0.24100
La	La	0.96372 0.88037 0.86033 1.64700
O 	O 	0.01600 0.78320 0.00260 -0.41800
O 	O 	0.98470 0.74570 0.14850 -0.22600
O 	O 	0.78180 0.89220 0.68710 -0.38100
O 	O 	0.87820 0.97400 0.58790 -0.26100
O 	O 	0.14690 0.00900 0.01940 -0.45200
O 	O 	0.28780 0.15080 0.12050 -0.32200
O 	O 	0.02590 0.04870 0.80360 -1.00500
H 	H 	0.02260 0.02470 0.74430 0.47200
H 	H 	0.00790 0.10740 0.81690 0.53100
