data_crystal

_cell_length_a 8.88700
_cell_length_b 25.05300
_cell_length_c 10.03900
_cell_angle_alpha 90.00000
_cell_angle_beta  101.56500
_cell_angle_gamma 90.00000

_symmetry_space_group_name_	'P 1'
_symmetry_space_group_name_H-M	'P 1'

loop_
_symmetry_equiv_pos_as_xyz
  x,y,z

loop_
_atom_site_label
_atom_site_type_symbol
_atom_site_fract_x
_atom_site_fract_y
_atom_site_fract_z
_atom_site_charge
C 	C 	0.35050 0.26685 0.24780 0.40400
C 	C 	0.30240 0.25817 0.37950 -0.17100
C 	C 	0.26010 0.30109 0.45270 0.16200
C 	C 	0.29490 0.20754 0.43270 0.16200
C 	C 	0.02410 0.02670 0.12790 0.14900
Cl	Cl	0.26937 0.36493 0.38424 -0.22800
Cl	Cl	0.35364 0.15378 0.34406 -0.24300
Cl	Cl	0.04586 0.06292 0.27250 -0.21700
O 	O 	0.26680 0.25516 0.13410 -0.51200
O 	O 	0.48870 0.28225 0.24820 -0.34300
O 	O 	0.87490 0.14100 0.99390 0.00600
C 	C 	0.85050 0.76685 0.24780 0.40000
C 	C 	0.80240 0.75817 0.37950 -0.15000
C 	C 	0.76010 0.80109 0.45270 0.17100
C 	C 	0.79490 0.70754 0.43270 0.17300
C 	C 	0.52410 0.52670 0.12790 0.15200
Cl	Cl	0.76937 0.86493 0.38424 -0.18200
Cl	Cl	0.85364 0.65378 0.34406 -0.20500
Cl	Cl	0.54586 0.56292 0.27250 -0.18200
O 	O 	0.76680 0.75516 0.13410 -0.49000
O 	O 	0.98870 0.78225 0.24820 -0.29300
O 	O 	0.37490 0.64100 0.99390 -0.06100
C 	C 	0.64950 0.26685 0.75220 0.38200
C 	C 	0.69760 0.25817 0.62050 -0.12200
C 	C 	0.73990 0.30109 0.54730 0.15600
C 	C 	0.70510 0.20754 0.56730 0.15500
C 	C 	0.97590 0.02670 0.87210 0.33700
Cl	Cl	0.73063 0.36493 0.61576 -0.12900
Cl	Cl	0.64636 0.15378 0.65594 -0.18300
Cl	Cl	0.95414 0.06292 0.72750 -0.10600
O 	O 	0.73320 0.25516 0.86590 -0.32600
O 	O 	0.51130 0.28225 0.75180 -0.27300
O 	O 	0.12510 0.14100 0.00610 -0.32100
C 	C 	0.14950 0.76685 0.75220 0.38700
C 	C 	0.19760 0.75817 0.62050 -0.14200
C 	C 	0.23990 0.80109 0.54730 0.14700
C 	C 	0.20510 0.70754 0.56730 0.14500
C 	C 	0.47590 0.52670 0.87210 0.29500
Cl	Cl	0.23063 0.86493 0.61576 -0.16900
Cl	Cl	0.14636 0.65378 0.65594 -0.22100
Cl	Cl	0.45414 0.56292 0.72750 -0.14300
O 	O 	0.23320 0.75516 0.86590 -0.34700
O 	O 	0.01130 0.78225 0.75180 -0.30300
O 	O 	0.62510 0.64100 0.00610 -0.32000
C 	C 	0.64950 0.73315 0.75220 0.38200
C 	C 	0.69760 0.74183 0.62050 -0.12200
C 	C 	0.73990 0.69891 0.54730 0.15600
C 	C 	0.70510 0.79246 0.56730 0.15500
C 	C 	0.97590 0.97330 0.87210 0.33700
Cl	Cl	0.73063 0.63507 0.61576 -0.12900
Cl	Cl	0.64636 0.84622 0.65594 -0.18300
Cl	Cl	0.95414 0.93708 0.72750 -0.10600
O 	O 	0.73320 0.74484 0.86590 -0.32600
O 	O 	0.51130 0.71775 0.75180 -0.27300
O 	O 	0.12510 0.85900 0.00610 -0.32100
C 	C 	0.14950 0.23315 0.75220 0.38700
C 	C 	0.19760 0.24183 0.62050 -0.14200
C 	C 	0.23990 0.19891 0.54730 0.14700
C 	C 	0.20510 0.29246 0.56730 0.14500
C 	C 	0.47590 0.47330 0.87210 0.29500
Cl	Cl	0.23063 0.13507 0.61576 -0.16900
Cl	Cl	0.14636 0.34622 0.65594 -0.22100
Cl	Cl	0.45414 0.43708 0.72750 -0.14300
O 	O 	0.23320 0.24484 0.86590 -0.34700
O 	O 	0.01130 0.21775 0.75180 -0.30300
O 	O 	0.62510 0.35900 0.00610 -0.32000
C 	C 	0.35050 0.73315 0.24780 0.40500
C 	C 	0.30240 0.74183 0.37950 -0.17000
C 	C 	0.26010 0.69891 0.45270 0.16300
C 	C 	0.29490 0.79246 0.43270 0.16300
C 	C 	0.02410 0.97330 0.12790 0.15000
Cl	Cl	0.26937 0.63507 0.38424 -0.22700
Cl	Cl	0.35364 0.84622 0.34406 -0.24300
Cl	Cl	0.04586 0.93708 0.27250 -0.21700
O 	O 	0.26680 0.74484 0.13410 -0.51200
O 	O 	0.48870 0.71775 0.24820 -0.34300
O 	O 	0.87490 0.85900 0.99390 0.00600
C 	C 	0.85050 0.23315 0.24780 0.40000
C 	C 	0.80240 0.24183 0.37950 -0.15000
C 	C 	0.76010 0.19891 0.45270 0.17100
C 	C 	0.79490 0.29246 0.43270 0.17300
C 	C 	0.52410 0.47330 0.12790 0.15200
Cl	Cl	0.76937 0.13507 0.38424 -0.18200
Cl	Cl	0.85364 0.34622 0.34406 -0.20500
Cl	Cl	0.54586 0.43708 0.27250 -0.18200
O 	O 	0.76680 0.24484 0.13410 -0.49000
O 	O 	0.98870 0.21775 0.24820 -0.29300
O 	O 	0.37490 0.35900 0.99390 -0.06100
C 	C 	-0.00000 0.11590 -0.00000 0.08600
C 	C 	-0.00000 0.05650 -0.00000 -0.27000
La	La	-0.00000 0.23412 -0.00000 1.39000
C 	C 	0.50000 0.61590 -0.00000 0.15000
C 	C 	0.50000 0.55650 -0.00000 -0.22600
La	La	0.50000 0.73412 -0.00000 1.46600
C 	C 	-0.00000 0.88410 -0.00000 0.08600
C 	C 	-0.00000 0.94350 -0.00000 -0.27000
La	La	-0.00000 0.76588 -0.00000 1.39000
C 	C 	0.50000 0.38410 -0.00000 0.15000
C 	C 	0.50000 0.44350 -0.00000 -0.22600
La	La	0.50000 0.26588 -0.00000 1.46600
