data_crystal

_cell_length_a 14.51040
_cell_length_b 14.51040
_cell_length_c 15.77250
_cell_angle_alpha 90.00000
_cell_angle_beta  90.00000
_cell_angle_gamma 120.00000

_symmetry_space_group_name_	'P 1'
_symmetry_space_group_name_H-M	'P 1'

loop_
_symmetry_equiv_pos_as_xyz
  x,y,z

loop_
_atom_site_label
_atom_site_type_symbol
_atom_site_fract_x
_atom_site_fract_y
_atom_site_fract_z
_atom_site_charge
Gd	Gd	0.33333 0.66666 0.75000 1.70700
Gd	Gd	0.66667 0.33334 0.75000 1.70700
Gd	Gd	0.66667 0.33334 0.25000 1.69400
Gd	Gd	0.33333 0.66666 0.25000 1.69400
Zn	Zn	0.00000 0.50000 0.50000 1.19200
Zn	Zn	0.50000 0.00000 0.50000 1.19200
Zn	Zn	0.50000 0.50000 0.50000 1.22300
Zn	Zn	0.50000 0.50000 -0.00000 1.16900
Zn	Zn	0.50000 0.00000 -0.00000 1.13900
Zn	Zn	-0.00000 0.50000 -0.00000 1.13900
H 	H 	0.16760 0.80260 0.66020 0.11200
H 	H 	0.08720 0.72300 0.72740 0.08400
H 	H 	0.63500 0.83240 0.66020 0.13100
H 	H 	0.63580 0.91280 0.72740 0.14800
H 	H 	0.19740 0.36500 0.66020 0.08000
H 	H 	0.27700 0.36420 0.72740 0.09300
H 	H 	0.83240 0.19740 0.66020 0.10300
H 	H 	0.91280 0.27700 0.72740 0.13200
H 	H 	0.36500 0.16760 0.66020 0.08400
H 	H 	0.36420 0.08720 0.72740 0.06900
H 	H 	0.80260 0.63500 0.66020 0.13600
H 	H 	0.72300 0.63580 0.72740 0.12400
H 	H 	0.36500 0.19740 0.83980 0.10100
H 	H 	0.36420 0.27700 0.77260 0.09300
H 	H 	0.80260 0.16760 0.83980 0.13100
H 	H 	0.72300 0.08720 0.77260 0.08300
H 	H 	0.83240 0.63500 0.83980 0.15100
H 	H 	0.91280 0.63580 0.77260 0.14700
H 	H 	0.63500 0.80260 0.83980 0.15500
H 	H 	0.63580 0.72300 0.77260 0.12400
H 	H 	0.19740 0.83240 0.83980 0.12300
H 	H 	0.27700 0.91280 0.77260 0.13200
H 	H 	0.16760 0.36500 0.83980 0.10400
H 	H 	0.08720 0.36420 0.77260 0.06900
H 	H 	0.83240 0.19740 0.33980 0.09800
H 	H 	0.91280 0.27700 0.27260 0.12100
H 	H 	0.36500 0.16760 0.33980 0.07800
H 	H 	0.36420 0.08720 0.27260 0.05600
H 	H 	0.80260 0.63500 0.33980 0.13000
H 	H 	0.72300 0.63580 0.27260 0.11200
H 	H 	0.16760 0.80260 0.33980 0.10600
H 	H 	0.08720 0.72300 0.27260 0.07200
H 	H 	0.63500 0.83240 0.33980 0.12500
H 	H 	0.63580 0.91280 0.27260 0.13700
H 	H 	0.19740 0.36500 0.33980 0.07400
H 	H 	0.27700 0.36420 0.27260 0.08100
H 	H 	0.63500 0.80260 0.16020 0.11100
H 	H 	0.63580 0.72300 0.22740 0.11200
H 	H 	0.19740 0.83240 0.16020 0.07800
H 	H 	0.27700 0.91280 0.22740 0.12100
H 	H 	0.16760 0.36500 0.16020 0.05800
H 	H 	0.08720 0.36420 0.22740 0.05500
H 	H 	0.36500 0.19740 0.16020 0.05400
H 	H 	0.36420 0.27700 0.22740 0.08000
H 	H 	0.80260 0.16760 0.16020 0.08700
H 	H 	0.72300 0.08720 0.22740 0.07100
H 	H 	0.83240 0.63500 0.16020 0.10600
H 	H 	0.91280 0.63580 0.22740 0.13600
C 	C 	0.13190 0.65000 0.64000 0.43100
C 	C 	0.15090 0.74110 0.69510 -0.23100
C 	C 	0.51810 0.86810 0.64000 0.44700
C 	C 	0.59020 0.84910 0.69510 -0.26200
C 	C 	0.35000 0.48190 0.64000 0.42400
C 	C 	0.25890 0.40980 0.69510 -0.21200
C 	C 	0.86810 0.35000 0.64000 0.43500
C 	C 	0.84910 0.25890 0.69510 -0.23800
C 	C 	0.48190 0.13190 0.64000 0.42000
C 	C 	0.40980 0.15090 0.69510 -0.20700
C 	C 	0.65000 0.51810 0.64000 0.44600
C 	C 	0.74110 0.59020 0.69510 -0.26000
C 	C 	0.48190 0.35000 0.86000 0.42100
C 	C 	0.40980 0.25890 0.80490 -0.21100
C 	C 	0.65000 0.13190 0.86000 0.42800
C 	C 	0.74110 0.15090 0.80490 -0.22800
C 	C 	0.86810 0.51810 0.86000 0.44400
C 	C 	0.84910 0.59020 0.80490 -0.26100
C 	C 	0.51810 0.65000 0.86000 0.44300
C 	C 	0.59020 0.74110 0.80490 -0.25700
C 	C 	0.35000 0.86810 0.86000 0.43300
C 	C 	0.25890 0.84910 0.80490 -0.23700
C 	C 	0.13190 0.48190 0.86000 0.41700
C 	C 	0.15090 0.40980 0.80490 -0.20500
C 	C 	0.86810 0.35000 0.36000 0.43100
C 	C 	0.84910 0.25890 0.30490 -0.22900
C 	C 	0.48190 0.13190 0.36000 0.41500
C 	C 	0.40980 0.15090 0.30490 -0.19600
C 	C 	0.65000 0.51810 0.36000 0.44200
C 	C 	0.74110 0.59020 0.30490 -0.24900
C 	C 	0.13190 0.65000 0.36000 0.42600
C 	C 	0.15090 0.74110 0.30490 -0.22000
C 	C 	0.51810 0.86810 0.36000 0.44200
C 	C 	0.59020 0.84910 0.30490 -0.25200
C 	C 	0.35000 0.48190 0.36000 0.41900
C 	C 	0.25890 0.40980 0.30490 -0.20100
C 	C 	0.51810 0.65000 0.14000 0.43900
C 	C 	0.59020 0.74110 0.19510 -0.24800
C 	C 	0.35000 0.86810 0.14000 0.42900
C 	C 	0.25890 0.84910 0.19510 -0.22700
C 	C 	0.13190 0.48190 0.14000 0.41200
C 	C 	0.15090 0.40980 0.19510 -0.19400
C 	C 	0.48190 0.35000 0.14000 0.41700
C 	C 	0.40980 0.25890 0.19510 -0.20000
C 	C 	0.65000 0.13190 0.14000 0.42400
C 	C 	0.74110 0.15090 0.19510 -0.21900
C 	C 	0.86810 0.51810 0.14000 0.44000
C 	C 	0.84910 0.59020 0.19510 -0.25100
O 	O 	0.19569 0.61523 0.64559 -0.44500
O 	O 	0.05500 0.61731 0.59043 -0.49600
O 	O 	0.41954 0.80431 0.64559 -0.42600
O 	O 	0.56231 0.94500 0.59043 -0.41700
O 	O 	0.38477 0.58046 0.64559 -0.43400
O 	O 	0.38269 0.43769 0.59043 -0.46900
O 	O 	0.80431 0.38477 0.64559 -0.42400
O 	O 	0.94500 0.38269 0.59043 -0.42100
O 	O 	0.58046 0.19569 0.64559 -0.44300
O 	O 	0.43769 0.05500 0.59043 -0.50000
O 	O 	0.61523 0.41954 0.64559 -0.43900
O 	O 	0.61731 0.56231 0.59043 -0.46000
O 	O 	0.58046 0.38477 0.85441 -0.40300
O 	O 	0.43769 0.38269 0.90957 -0.39800
O 	O 	0.61523 0.19569 0.85441 -0.41400
O 	O 	0.61731 0.05500 0.90957 -0.42700
O 	O 	0.80431 0.41954 0.85441 -0.39600
O 	O 	0.94500 0.56231 0.90957 -0.35000
O 	O 	0.41954 0.61523 0.85441 -0.40800
O 	O 	0.56231 0.61731 0.90957 -0.39100
O 	O 	0.38477 0.80431 0.85441 -0.39400
O 	O 	0.38269 0.94500 0.90957 -0.35300
O 	O 	0.19569 0.58046 0.85441 -0.41200
O 	O 	0.05500 0.43769 0.90957 -0.43000
O 	O 	0.80431 0.38477 0.35441 -0.42100
O 	O 	0.94500 0.38269 0.40957 -0.41900
O 	O 	0.58046 0.19569 0.35441 -0.44000
O 	O 	0.43769 0.05500 0.40957 -0.49900
O 	O 	0.61523 0.41954 0.35441 -0.43600
O 	O 	0.61731 0.56231 0.40957 -0.46000
O 	O 	0.19569 0.61523 0.35441 -0.44300
O 	O 	0.05500 0.61731 0.40957 -0.49500
O 	O 	0.41954 0.80431 0.35441 -0.42300
O 	O 	0.56231 0.94500 0.40957 -0.41500
O 	O 	0.38477 0.58046 0.35441 -0.43100
O 	O 	0.38269 0.43769 0.40957 -0.46800
O 	O 	0.41954 0.61523 0.14559 -0.46000
O 	O 	0.56231 0.61731 0.09043 -0.50700
O 	O 	0.38477 0.80431 0.14559 -0.44500
O 	O 	0.38269 0.94500 0.09043 -0.46500
O 	O 	0.19569 0.58046 0.14559 -0.46400
O 	O 	0.05500 0.43769 0.09043 -0.54600
O 	O 	0.58046 0.38477 0.14559 -0.45500
O 	O 	0.43769 0.38269 0.09043 -0.51500
O 	O 	0.61523 0.19569 0.14559 -0.46700
O 	O 	0.61731 0.05500 0.09043 -0.54200
O 	O 	0.80431 0.41954 0.14559 -0.44700
O 	O 	0.94500 0.56231 0.09043 -0.46200
O 	O 	0.23485 0.76515 0.75000 -0.19400
O 	O 	0.53030 0.76515 0.75000 -0.17700
O 	O 	0.23485 0.46970 0.75000 -0.21000
O 	O 	0.76515 0.23485 0.75000 -0.19400
O 	O 	0.46970 0.23485 0.75000 -0.21000
O 	O 	0.76515 0.53030 0.75000 -0.17700
O 	O 	0.76515 0.23485 0.25000 -0.20300
O 	O 	0.46970 0.23485 0.25000 -0.21900
O 	O 	0.76515 0.53030 0.25000 -0.18600
O 	O 	0.23485 0.76515 0.25000 -0.20300
O 	O 	0.53030 0.76515 0.25000 -0.18600
O 	O 	0.23485 0.46970 0.25000 -0.22000
