data_crystal

_cell_length_a 18.12490
_cell_length_b 12.10640
_cell_length_c 17.73330
_cell_angle_alpha 90.00000
_cell_angle_beta  107.30100
_cell_angle_gamma 90.00000

_symmetry_space_group_name_	'P 1'
_symmetry_space_group_name_H-M	'P 1'

loop_
_symmetry_equiv_pos_as_xyz
  x,y,z

loop_
_atom_site_label
_atom_site_type_symbol
_atom_site_fract_x
_atom_site_fract_y
_atom_site_fract_z
_atom_site_charge
Co	Co	0.78998 0.15718 0.68643 1.13300
Co	Co	0.66714 0.34578 0.66121 1.15600
Co	Co	0.80626 0.31383 0.83621 1.17700
Na	Na	0.59970 0.00240 0.99450 0.58200
O 	O 	0.74830 0.13390 0.57020 -0.47200
O 	O 	0.64540 0.23360 0.56820 -0.47300
O 	O 	0.43960 0.29440 0.32550 -0.40200
O 	O 	0.40660 0.15260 0.24210 -0.32500
O 	O 	0.64190 0.92000 0.22780 -0.45200
O 	O 	0.71380 0.86490 0.34740 -0.47800
O 	O 	0.67070 0.47540 0.73820 -0.46500
O 	O 	0.74320 0.43960 0.86220 -0.46300
O 	O 	0.40690 0.64360 0.71150 -0.43600
O 	O 	0.38910 0.69760 0.82390 -0.47300
O 	O 	0.71370 0.70310 0.07290 -0.39500
O 	O 	0.61920 0.82410 0.04170 -0.43500
O 	O 	0.72840 0.23590 0.74480 -0.87200
O 	O 	0.47620 0.00820 0.90260 -0.76800
H 	H 	0.46480 0.95290 0.87190 0.31900
H 	H 	0.46670 0.06580 0.87610 0.33000
C 	C 	0.64150 0.13410 0.45470 -0.14700
C 	C 	0.57030 0.18150 0.41510 0.07400
H 	H 	0.54890 0.23620 0.44090 0.02600
C 	C 	0.53060 0.15000 0.33900 -0.13600
C 	C 	0.55990 0.06820 0.30190 0.06800
H 	H 	0.53140 0.04510 0.25020 0.00900
C 	C 	0.63160 0.01860 0.34000 -0.12900
C 	C 	0.67150 0.05100 0.41720 0.07100
H 	H 	0.71910 0.01650 0.44430 0.02200
C 	C 	0.68270 0.17120 0.53780 0.40700
C 	C 	0.45350 0.20220 0.29810 0.34200
C 	C 	0.66500 0.92800 0.30180 0.35500
C 	C 	0.64070 0.56770 0.84100 -0.15200
C 	C 	0.56490 0.58760 0.79720 0.07200
H 	H 	0.54470 0.55440 0.74670 0.02500
C 	C 	0.51750 0.65620 0.82650 -0.13500
C 	C 	0.54640 0.70690 0.89970 0.05600
H 	H 	0.51390 0.75250 0.91980 0.02500
C 	C 	0.62430 0.69010 0.94390 -0.13700
C 	C 	0.67000 0.61780 0.91530 0.07500
H 	H 	0.72140 0.60250 0.94650 0.00300
C 	C 	0.68850 0.48630 0.81080 0.40100
C 	C 	0.43160 0.66740 0.78460 0.36100
C 	C 	0.65510 0.74050 0.02460 0.33000
H 	H 	0.69900 0.20400 0.76600 0.33100
Co	Co	0.28998 0.65718 0.68643 1.13300
Co	Co	0.16714 0.84578 0.66121 1.15600
Co	Co	0.30626 0.81383 0.83621 1.17700
Na	Na	0.09970 0.50240 0.99450 0.57900
O 	O 	0.24830 0.63390 0.57020 -0.47600
O 	O 	0.14540 0.73360 0.56820 -0.47600
O 	O 	0.93960 0.79440 0.32550 -0.40600
O 	O 	0.90660 0.65260 0.24210 -0.33000
O 	O 	0.14190 0.42000 0.22780 -0.45300
O 	O 	0.21380 0.36490 0.34740 -0.47800
O 	O 	0.17070 0.97540 0.73820 -0.46600
O 	O 	0.24320 0.93960 0.86220 -0.46400
O 	O 	0.90690 0.14360 0.71150 -0.43100
O 	O 	0.88910 0.19760 0.82390 -0.47200
O 	O 	0.21370 0.20310 0.07290 -0.39100
O 	O 	0.11920 0.32410 0.04170 -0.43000
O 	O 	0.22840 0.73590 0.74480 -0.87200
O 	O 	0.97620 0.50820 0.90260 -0.80000
H 	H 	0.96480 0.45290 0.87190 0.34300
H 	H 	0.96670 0.56580 0.87610 0.33700
C 	C 	0.14150 0.63410 0.45470 -0.15600
C 	C 	0.07030 0.68150 0.41510 0.08000
H 	H 	0.04890 0.73620 0.44090 0.02200
C 	C 	0.03060 0.65000 0.33900 -0.14400
C 	C 	0.05990 0.56820 0.30190 0.08000
H 	H 	0.03140 0.54510 0.25020 0.00100
C 	C 	0.13160 0.51860 0.34000 -0.15500
C 	C 	0.17150 0.55100 0.41720 0.08200
H 	H 	0.21910 0.51650 0.44430 0.01300
C 	C 	0.18270 0.67120 0.53780 0.40900
C 	C 	0.95350 0.70220 0.29810 0.34300
C 	C 	0.16500 0.42800 0.30180 0.37600
C 	C 	0.14070 0.06770 0.84100 -0.12900
C 	C 	0.06490 0.08760 0.79720 0.06300
H 	H 	0.04470 0.05440 0.74670 0.03300
C 	C 	0.01750 0.15620 0.82650 -0.12900
C 	C 	0.04640 0.20690 0.89970 0.05200
H 	H 	0.01390 0.25250 0.91980 0.02600
C 	C 	0.12430 0.19010 0.94390 -0.13200
C 	C 	0.17000 0.11780 0.91530 0.06600
H 	H 	0.22140 0.10250 0.94650 0.01000
C 	C 	0.18850 0.98630 0.81080 0.38100
C 	C 	0.93160 0.16740 0.78460 0.36100
C 	C 	0.15510 0.24050 0.02460 0.33100
H 	H 	0.19900 0.70400 0.76600 0.33000
Co	Co	0.21002 0.15718 0.31357 1.13400
Co	Co	0.33286 0.34578 0.33879 1.15700
Co	Co	0.19374 0.31383 0.16379 1.17700
Na	Na	0.40030 0.00240 0.00550 0.58200
O 	O 	0.25170 0.13390 0.42980 -0.47200
O 	O 	0.35460 0.23360 0.43180 -0.47300
O 	O 	0.56040 0.29440 0.67450 -0.40200
O 	O 	0.59340 0.15260 0.75790 -0.32500
O 	O 	0.35810 0.92000 0.77220 -0.45200
O 	O 	0.28620 0.86490 0.65260 -0.47800
O 	O 	0.32930 0.47540 0.26180 -0.46500
O 	O 	0.25680 0.43960 0.13780 -0.46300
O 	O 	0.59310 0.64360 0.28850 -0.43600
O 	O 	0.61090 0.69760 0.17610 -0.47300
O 	O 	0.28630 0.70310 0.92710 -0.39500
O 	O 	0.38080 0.82410 0.95830 -0.43500
O 	O 	0.27160 0.23590 0.25520 -0.87200
O 	O 	0.52380 0.00820 0.09740 -0.76800
H 	H 	0.53520 0.95290 0.12810 0.31900
H 	H 	0.53330 0.06580 0.12390 0.33000
C 	C 	0.35850 0.13410 0.54530 -0.14700
C 	C 	0.42970 0.18150 0.58490 0.07400
H 	H 	0.45110 0.23620 0.55910 0.02600
C 	C 	0.46940 0.15000 0.66100 -0.13600
C 	C 	0.44010 0.06820 0.69810 0.06800
H 	H 	0.46860 0.04510 0.74980 0.00900
C 	C 	0.36840 0.01860 0.66000 -0.12900
C 	C 	0.32850 0.05100 0.58280 0.07100
H 	H 	0.28090 0.01650 0.55570 0.02200
C 	C 	0.31730 0.17120 0.46220 0.40700
C 	C 	0.54650 0.20220 0.70190 0.34200
C 	C 	0.33500 0.92800 0.69820 0.35500
C 	C 	0.35930 0.56770 0.15900 -0.15200
C 	C 	0.43510 0.58760 0.20280 0.07200
H 	H 	0.45530 0.55440 0.25330 0.02500
C 	C 	0.48250 0.65620 0.17350 -0.13500
C 	C 	0.45360 0.70690 0.10030 0.05600
H 	H 	0.48610 0.75250 0.08020 0.02500
C 	C 	0.37570 0.69010 0.05610 -0.13700
C 	C 	0.33000 0.61780 0.08470 0.07500
H 	H 	0.27860 0.60250 0.05350 0.00300
C 	C 	0.31150 0.48630 0.18920 0.40100
C 	C 	0.56840 0.66740 0.21540 0.36100
C 	C 	0.34490 0.74050 0.97540 0.33000
H 	H 	0.30100 0.20400 0.23400 0.33100
Co	Co	0.71002 0.65718 0.31357 1.13300
Co	Co	0.83286 0.84578 0.33879 1.15600
Co	Co	0.69374 0.81383 0.16379 1.17700
Na	Na	0.90030 0.50240 0.00550 0.57900
O 	O 	0.75170 0.63390 0.42980 -0.47600
O 	O 	0.85460 0.73360 0.43180 -0.47600
O 	O 	0.06040 0.79440 0.67450 -0.40600
O 	O 	0.09340 0.65260 0.75790 -0.33000
O 	O 	0.85810 0.42000 0.77220 -0.45300
O 	O 	0.78620 0.36490 0.65260 -0.47800
O 	O 	0.82930 0.97540 0.26180 -0.46600
O 	O 	0.75680 0.93960 0.13780 -0.46400
O 	O 	0.09310 0.14360 0.28850 -0.43100
O 	O 	0.11090 0.19760 0.17610 -0.47200
O 	O 	0.78630 0.20310 0.92710 -0.39100
O 	O 	0.88080 0.32410 0.95830 -0.43000
O 	O 	0.77160 0.73590 0.25520 -0.87200
O 	O 	0.02380 0.50820 0.09740 -0.80000
H 	H 	0.03520 0.45290 0.12810 0.34300
H 	H 	0.03330 0.56580 0.12390 0.33700
C 	C 	0.85850 0.63410 0.54530 -0.15600
C 	C 	0.92970 0.68150 0.58490 0.08000
H 	H 	0.95110 0.73620 0.55910 0.02200
C 	C 	0.96940 0.65000 0.66100 -0.14400
C 	C 	0.94010 0.56820 0.69810 0.08000
H 	H 	0.96860 0.54510 0.74980 0.00100
C 	C 	0.86840 0.51860 0.66000 -0.15500
C 	C 	0.82850 0.55100 0.58280 0.08200
H 	H 	0.78090 0.51650 0.55570 0.01300
C 	C 	0.81730 0.67120 0.46220 0.40900
C 	C 	0.04650 0.70220 0.70190 0.34300
C 	C 	0.83500 0.42800 0.69820 0.37600
C 	C 	0.85930 0.06770 0.15900 -0.12900
C 	C 	0.93510 0.08760 0.20280 0.06300
H 	H 	0.95530 0.05440 0.25330 0.03300
C 	C 	0.98250 0.15620 0.17350 -0.12900
C 	C 	0.95360 0.20690 0.10030 0.05200
H 	H 	0.98610 0.25250 0.08020 0.02600
C 	C 	0.87570 0.19010 0.05610 -0.13200
C 	C 	0.83000 0.11780 0.08470 0.06600
H 	H 	0.77860 0.10250 0.05350 0.01000
C 	C 	0.81150 0.98630 0.18920 0.38100
C 	C 	0.06840 0.16740 0.21540 0.36100
C 	C 	0.84490 0.24050 0.97540 0.33100
H 	H 	0.80100 0.70400 0.23400 0.33000
