data_crystal

_cell_length_a 8.59470
_cell_length_b 13.18700
_cell_length_c 9.64620
_cell_angle_alpha 90.00000
_cell_angle_beta  96.49600
_cell_angle_gamma 90.00000

_symmetry_space_group_name_	'P 1'
_symmetry_space_group_name_H-M	'P 1'

loop_
_symmetry_equiv_pos_as_xyz
  x,y,z

loop_
_atom_site_label
_atom_site_type_symbol
_atom_site_fract_x
_atom_site_fract_y
_atom_site_fract_z
_atom_site_charge
Nd	Nd	0.54956 0.26554 0.49658 1.70000
C 	C 	0.54480 0.39050 0.74700 0.28600
C 	C 	0.52670 0.45190 0.87610 -0.04600
C 	C 	0.62030 0.42730 0.00050 -0.05100
C 	C 	0.40730 0.52560 0.87290 -0.09700
C 	C 	0.76080 0.35830 0.99670 0.29000
C 	C 	0.30310 0.55100 0.73840 0.39900
O 	O 	0.54670 0.43350 0.63010 -0.40100
O 	O 	0.55370 0.29400 0.75850 -0.42100
O 	O 	0.78800 0.28830 0.08560 -0.40400
O 	O 	0.85320 0.37600 0.90370 -0.42100
O 	O 	0.35160 0.61580 0.65880 -0.49900
O 	O 	0.17170 0.50770 0.71900 -0.31700
Nd	Nd	0.95044 0.76554 0.00342 1.66500
C 	C 	0.95520 0.89050 0.75300 0.28400
C 	C 	0.97330 0.95190 0.62390 -0.04400
C 	C 	0.87970 0.92730 0.49950 -0.04800
C 	C 	0.09270 0.02560 0.62710 -0.10400
C 	C 	0.73920 0.85830 0.50330 0.28300
C 	C 	0.19690 0.05100 0.76160 0.39800
O 	O 	0.95330 0.93350 0.86990 -0.39000
O 	O 	0.94630 0.79400 0.74150 -0.41400
O 	O 	0.71200 0.78830 0.41440 -0.40300
O 	O 	0.64680 0.87600 0.59630 -0.42600
O 	O 	0.14840 0.11580 0.84120 -0.49900
O 	O 	0.32830 0.00770 0.78100 -0.31900
Nd	Nd	0.45044 0.73446 0.50342 1.69900
C 	C 	0.45520 0.60950 0.25300 0.28500
C 	C 	0.47330 0.54810 0.12390 -0.04600
C 	C 	0.37970 0.57270 0.99950 -0.05100
C 	C 	0.59270 0.47440 0.12710 -0.09700
C 	C 	0.23920 0.64170 0.00330 0.29000
C 	C 	0.69690 0.44900 0.26160 0.39900
O 	O 	0.45330 0.56650 0.36990 -0.40100
O 	O 	0.44630 0.70600 0.24150 -0.42100
O 	O 	0.21200 0.71170 0.91440 -0.40400
O 	O 	0.14680 0.62400 0.09630 -0.42100
O 	O 	0.64840 0.38420 0.34120 -0.49900
O 	O 	0.82830 0.49230 0.28100 -0.31700
Nd	Nd	0.04956 0.23446 0.99658 1.66500
C 	C 	0.04480 0.10950 0.24700 0.28400
C 	C 	0.02670 0.04810 0.37610 -0.04400
C 	C 	0.12030 0.07270 0.50050 -0.04800
C 	C 	0.90730 0.97440 0.37290 -0.10400
C 	C 	0.26080 0.14170 0.49670 0.28300
C 	C 	0.80310 0.94900 0.23840 0.39800
O 	O 	0.04670 0.06650 0.13010 -0.39000
O 	O 	0.05370 0.20600 0.25850 -0.41400
O 	O 	0.28800 0.21170 0.58560 -0.40300
O 	O 	0.35320 0.12400 0.40370 -0.42600
O 	O 	0.85160 0.88420 0.15880 -0.49900
O 	O 	0.67170 0.99230 0.21900 -0.31900
