data_crystal

_cell_length_a 18.44800
_cell_length_b 18.44800
_cell_length_c 23.93900
_cell_angle_alpha 90.00000
_cell_angle_beta  90.00000
_cell_angle_gamma 120.00000

_symmetry_space_group_name_	'P 1'
_symmetry_space_group_name_H-M	'P 1'

loop_
_symmetry_equiv_pos_as_xyz
  x,y,z

loop_
_atom_site_label
_atom_site_type_symbol
_atom_site_fract_x
_atom_site_fract_y
_atom_site_fract_z
_atom_site_charge
O 	O 	0.41079 0.97211 0.07200 -0.40500
C 	C 	0.27530 0.85486 0.06984 -0.08100
O 	O 	0.37079 0.89006 0.99631 -0.40700
C 	C 	0.35850 0.90991 0.04417 0.35900
C 	C 	0.25274 0.87582 0.12034 -0.03100
H 	H 	0.29060 0.92720 0.13800 0.06000
O 	O 	0.02789 0.43868 0.07200 -0.40500
C 	C 	0.14514 0.42044 0.06984 -0.08100
O 	O 	0.10994 0.48073 0.99631 -0.40700
C 	C 	0.09009 0.44859 0.04417 0.35900
C 	C 	0.12418 0.37692 0.12034 -0.03100
H 	H 	0.07280 0.36340 0.13800 0.06000
O 	O 	0.56132 0.58921 0.07200 -0.40500
C 	C 	0.57956 0.72470 0.06984 -0.08100
O 	O 	0.51927 0.62921 0.99631 -0.40700
C 	C 	0.55141 0.64150 0.04417 0.35800
C 	C 	0.62308 0.74726 0.12034 -0.03100
H 	H 	0.63660 0.70940 0.13800 0.05900
O 	O 	0.58921 0.02789 0.57200 -0.40600
C 	C 	0.72470 0.14514 0.56984 -0.08200
O 	O 	0.62921 0.10994 0.49631 -0.40800
C 	C 	0.64150 0.09009 0.54417 0.35700
C 	C 	0.74726 0.12418 0.62034 -0.03200
H 	H 	0.70940 0.07280 0.63800 0.05900
O 	O 	0.97211 0.56132 0.57200 -0.40600
C 	C 	0.85486 0.57956 0.56984 -0.08200
O 	O 	0.89006 0.51927 0.49631 -0.40800
C 	C 	0.90991 0.55141 0.54417 0.35700
C 	C 	0.87582 0.62308 0.62034 -0.03200
H 	H 	0.92720 0.63660 0.63800 0.05900
O 	O 	0.43868 0.41079 0.57200 -0.40600
C 	C 	0.42044 0.27530 0.56984 -0.08200
O 	O 	0.48073 0.37079 0.49631 -0.40800
C 	C 	0.44859 0.35850 0.54417 0.35700
C 	C 	0.37692 0.25274 0.62034 -0.03200
H 	H 	0.36340 0.29060 0.63800 0.05900
O 	O 	0.97211 0.41079 0.92800 -0.40600
C 	C 	0.85486 0.27530 0.93016 -0.08200
O 	O 	0.89006 0.37079 0.00369 -0.40800
C 	C 	0.90991 0.35850 0.95583 0.35800
C 	C 	0.87582 0.25274 0.87966 -0.03200
H 	H 	0.92720 0.29060 0.86200 0.05900
O 	O 	0.43868 0.02789 0.92800 -0.40600
C 	C 	0.42044 0.14514 0.93016 -0.08200
O 	O 	0.48073 0.10994 0.00369 -0.40800
C 	C 	0.44859 0.09009 0.95583 0.35800
C 	C 	0.37692 0.12418 0.87966 -0.03200
H 	H 	0.36340 0.07280 0.86200 0.05900
O 	O 	0.58921 0.56132 0.92800 -0.40600
C 	C 	0.72470 0.57956 0.93016 -0.08200
O 	O 	0.62921 0.51927 0.00369 -0.40800
C 	C 	0.64150 0.55141 0.95583 0.35700
C 	C 	0.74726 0.62308 0.87966 -0.03200
H 	H 	0.70940 0.63660 0.86200 0.05800
O 	O 	0.02789 0.58921 0.42800 -0.40600
C 	C 	0.14514 0.72470 0.43016 -0.08200
O 	O 	0.10994 0.62921 0.50369 -0.40800
C 	C 	0.09009 0.64150 0.45583 0.35700
C 	C 	0.12418 0.74726 0.37966 -0.03200
H 	H 	0.07280 0.70940 0.36200 0.05900
O 	O 	0.56132 0.97211 0.42800 -0.40600
C 	C 	0.57956 0.85486 0.43016 -0.08200
O 	O 	0.51927 0.89006 0.50369 -0.40800
C 	C 	0.55141 0.90991 0.45583 0.35700
C 	C 	0.62308 0.87582 0.37966 -0.03200
H 	H 	0.63660 0.92720 0.36200 0.05900
O 	O 	0.41079 0.43868 0.42800 -0.40600
C 	C 	0.27530 0.42044 0.43016 -0.08200
O 	O 	0.37079 0.48073 0.50369 -0.40800
C 	C 	0.35850 0.44859 0.45583 0.35700
C 	C 	0.25274 0.37692 0.37966 -0.03200
H 	H 	0.29060 0.36340 0.36200 0.05900
O 	O 	0.58921 0.02789 0.92800 -0.40600
C 	C 	0.72470 0.14514 0.93016 -0.08200
O 	O 	0.62921 0.10994 0.00369 -0.40800
C 	C 	0.64150 0.09009 0.95583 0.35800
C 	C 	0.74726 0.12418 0.87966 -0.03200
H 	H 	0.70940 0.07280 0.86200 0.05900
O 	O 	0.97211 0.56132 0.92800 -0.40600
C 	C 	0.85486 0.57956 0.93016 -0.08200
O 	O 	0.89006 0.51927 0.00369 -0.40800
C 	C 	0.90991 0.55141 0.95583 0.35800
C 	C 	0.87582 0.62308 0.87966 -0.03200
H 	H 	0.92720 0.63660 0.86200 0.05900
O 	O 	0.43868 0.41079 0.92800 -0.40600
C 	C 	0.42044 0.27530 0.93016 -0.08200
O 	O 	0.48073 0.37079 0.00369 -0.40800
C 	C 	0.44859 0.35850 0.95583 0.35700
C 	C 	0.37692 0.25274 0.87966 -0.03200
H 	H 	0.36340 0.29060 0.86200 0.05800
O 	O 	0.41079 0.97211 0.42800 -0.40600
C 	C 	0.27530 0.85486 0.43016 -0.08200
O 	O 	0.37079 0.89006 0.50369 -0.40800
C 	C 	0.35850 0.90991 0.45583 0.35700
C 	C 	0.25274 0.87582 0.37966 -0.03200
H 	H 	0.29060 0.92720 0.36200 0.05900
O 	O 	0.02789 0.43868 0.42800 -0.40600
C 	C 	0.14514 0.42044 0.43016 -0.08200
O 	O 	0.10994 0.48073 0.50369 -0.40800
C 	C 	0.09009 0.44859 0.45583 0.35700
C 	C 	0.12418 0.37692 0.37966 -0.03200
H 	H 	0.07280 0.36340 0.36200 0.05900
O 	O 	0.56132 0.58921 0.42800 -0.40600
C 	C 	0.57956 0.72470 0.43016 -0.08200
O 	O 	0.51927 0.62921 0.50369 -0.40800
C 	C 	0.55141 0.64150 0.45583 0.35700
C 	C 	0.62308 0.74726 0.37966 -0.03200
H 	H 	0.63660 0.70940 0.36200 0.05900
O 	O 	0.02789 0.58921 0.07200 -0.40600
C 	C 	0.14514 0.72470 0.06984 -0.08200
O 	O 	0.10994 0.62921 0.99631 -0.40800
C 	C 	0.09009 0.64150 0.04417 0.35800
C 	C 	0.12418 0.74726 0.12034 -0.03200
H 	H 	0.07280 0.70940 0.13800 0.05900
O 	O 	0.56132 0.97211 0.07200 -0.40600
C 	C 	0.57956 0.85486 0.06984 -0.08200
O 	O 	0.51927 0.89006 0.99631 -0.40800
C 	C 	0.55141 0.90991 0.04417 0.35800
C 	C 	0.62308 0.87582 0.12034 -0.03200
H 	H 	0.63660 0.92720 0.13800 0.05900
O 	O 	0.41079 0.43868 0.07200 -0.40600
C 	C 	0.27530 0.42044 0.06984 -0.08200
O 	O 	0.37079 0.48073 0.99631 -0.40800
C 	C 	0.35850 0.44859 0.04417 0.35700
C 	C 	0.25274 0.37692 0.12034 -0.03200
H 	H 	0.29060 0.36340 0.13800 0.05800
O 	O 	0.97211 0.41079 0.57200 -0.40600
C 	C 	0.85486 0.27530 0.56984 -0.08200
O 	O 	0.89006 0.37079 0.49631 -0.40800
C 	C 	0.90991 0.35850 0.54417 0.35700
C 	C 	0.87582 0.25274 0.62034 -0.03200
H 	H 	0.92720 0.29060 0.63800 0.05900
O 	O 	0.43868 0.02789 0.57200 -0.40600
C 	C 	0.42044 0.14514 0.56984 -0.08200
O 	O 	0.48073 0.10994 0.49631 -0.40800
C 	C 	0.44859 0.09009 0.54417 0.35700
C 	C 	0.37692 0.12418 0.62034 -0.03200
H 	H 	0.36340 0.07280 0.63800 0.05900
O 	O 	0.58921 0.56132 0.57200 -0.40600
C 	C 	0.72470 0.57956 0.56984 -0.08200
O 	O 	0.62921 0.51927 0.49631 -0.40800
C 	C 	0.64150 0.55141 0.54417 0.35700
C 	C 	0.74726 0.62308 0.62034 -0.03200
H 	H 	0.70940 0.63660 0.63800 0.05900
Cu	Cu	0.52429 0.04858 0.04494 0.90500
Cu	Cu	0.95142 0.47571 0.04494 0.90500
Cu	Cu	0.52429 0.47571 0.04494 0.90600
Cu	Cu	0.47571 0.95142 0.54494 0.90600
Cu	Cu	0.04858 0.52429 0.54494 0.90600
Cu	Cu	0.47571 0.52429 0.54494 0.90600
Cu	Cu	0.04858 0.52429 0.95506 0.90500
Cu	Cu	0.47571 0.95142 0.95506 0.90500
Cu	Cu	0.47571 0.52429 0.95506 0.90600
Cu	Cu	0.95142 0.47571 0.45506 0.90600
Cu	Cu	0.52429 0.04858 0.45506 0.90600
Cu	Cu	0.52429 0.47571 0.45506 0.90600
C 	C 	0.22104 0.77896 0.04469 0.02300
H 	H 	0.23580 0.76420 0.01030 0.05300
H 	H 	0.23070 0.76930 0.21820 0.14400
C 	C 	0.17657 0.82343 0.14508 0.01900
C 	C 	0.15287 0.84713 0.19931 -0.04100
C 	C 	0.10971 0.89029 0.19960 -0.03500
H 	H 	0.09470 0.90530 0.16540 0.04700
C 	C 	0.22104 0.44208 0.04469 0.02300
H 	H 	0.23580 0.47160 0.01030 0.05300
H 	H 	0.23070 0.46140 0.21820 0.14400
C 	C 	0.17657 0.35314 0.14508 0.01900
C 	C 	0.15287 0.30574 0.19931 -0.04100
C 	C 	0.10971 0.21942 0.19960 -0.03500
H 	H 	0.09470 0.18940 0.16540 0.04700
C 	C 	0.55792 0.77896 0.04469 0.02300
H 	H 	0.52840 0.76420 0.01030 0.05300
H 	H 	0.53860 0.76930 0.21820 0.14400
C 	C 	0.64686 0.82343 0.14508 0.01900
C 	C 	0.69426 0.84713 0.19931 -0.04100
C 	C 	0.78058 0.89029 0.19960 -0.03500
H 	H 	0.81060 0.90530 0.16540 0.04700
C 	C 	0.77896 0.22104 0.54469 0.02300
H 	H 	0.76420 0.23580 0.51030 0.05300
H 	H 	0.76930 0.23070 0.71820 0.14400
C 	C 	0.82343 0.17657 0.64508 0.01900
C 	C 	0.84713 0.15287 0.69931 -0.04100
C 	C 	0.89029 0.10971 0.69960 -0.03500
H 	H 	0.90530 0.09470 0.66540 0.04700
C 	C 	0.77896 0.55792 0.54469 0.02300
H 	H 	0.76420 0.52840 0.51030 0.05300
H 	H 	0.76930 0.53860 0.71820 0.14400
C 	C 	0.82343 0.64686 0.64508 0.01900
C 	C 	0.84713 0.69426 0.69931 -0.04100
C 	C 	0.89029 0.78058 0.69960 -0.03500
H 	H 	0.90530 0.81060 0.66540 0.04700
C 	C 	0.44208 0.22104 0.54469 0.02300
H 	H 	0.47160 0.23580 0.51030 0.05300
H 	H 	0.46140 0.23070 0.71820 0.14400
C 	C 	0.35314 0.17657 0.64508 0.01900
C 	C 	0.30574 0.15287 0.69931 -0.04100
C 	C 	0.21942 0.10971 0.69960 -0.03500
H 	H 	0.18940 0.09470 0.66540 0.04700
C 	C 	0.77896 0.22104 0.95531 0.02300
H 	H 	0.76420 0.23580 0.98970 0.05300
H 	H 	0.76930 0.23070 0.78180 0.14400
C 	C 	0.82343 0.17657 0.85492 0.01900
C 	C 	0.84713 0.15287 0.80069 -0.04100
C 	C 	0.89029 0.10971 0.80040 -0.03500
H 	H 	0.90530 0.09470 0.83460 0.04700
C 	C 	0.44208 0.22104 0.95531 0.02300
H 	H 	0.47160 0.23580 0.98970 0.05300
H 	H 	0.46140 0.23070 0.78180 0.14400
C 	C 	0.35314 0.17657 0.85492 0.01900
C 	C 	0.30574 0.15287 0.80069 -0.04100
C 	C 	0.21942 0.10971 0.80040 -0.03500
H 	H 	0.18940 0.09470 0.83460 0.04700
C 	C 	0.77896 0.55792 0.95531 0.02300
H 	H 	0.76420 0.52840 0.98970 0.05300
H 	H 	0.76930 0.53860 0.78180 0.14400
C 	C 	0.82343 0.64686 0.85492 0.01900
C 	C 	0.84713 0.69426 0.80069 -0.04100
C 	C 	0.89029 0.78058 0.80040 -0.03500
H 	H 	0.90530 0.81060 0.83460 0.04700
C 	C 	0.22104 0.77896 0.45531 0.02300
H 	H 	0.23580 0.76420 0.48970 0.05300
H 	H 	0.23070 0.76930 0.28180 0.14400
C 	C 	0.17657 0.82343 0.35492 0.01900
C 	C 	0.15287 0.84713 0.30069 -0.04100
C 	C 	0.10971 0.89029 0.30040 -0.03500
H 	H 	0.09470 0.90530 0.33460 0.04700
C 	C 	0.55792 0.77896 0.45531 0.02300
H 	H 	0.52840 0.76420 0.48970 0.05300
H 	H 	0.53860 0.76930 0.28180 0.14400
C 	C 	0.64686 0.82343 0.35492 0.01900
C 	C 	0.69426 0.84713 0.30069 -0.04100
C 	C 	0.78058 0.89029 0.30040 -0.03500
H 	H 	0.81060 0.90530 0.33460 0.04700
C 	C 	0.22104 0.44208 0.45531 0.02300
H 	H 	0.23580 0.47160 0.48970 0.05300
H 	H 	0.23070 0.46140 0.28180 0.14400
C 	C 	0.17657 0.35314 0.35492 0.01900
C 	C 	0.15287 0.30574 0.30069 -0.04100
C 	C 	0.10971 0.21942 0.30040 -0.03500
H 	H 	0.09470 0.18940 0.33460 0.04700
C 	C 	0.17440 0.82560 0.25000 0.10100
N 	N 	0.21692 0.78308 0.25000 -0.28900
C 	C 	0.08820 0.91180 0.25000 -0.04100
H 	H 	0.05840 0.94160 0.25000 0.04200
C 	C 	0.17440 0.34880 0.25000 0.10100
N 	N 	0.21692 0.43384 0.25000 -0.28900
C 	C 	0.08820 0.17640 0.25000 -0.04100
H 	H 	0.05840 0.11680 0.25000 0.04200
C 	C 	0.65120 0.82560 0.25000 0.10100
N 	N 	0.56616 0.78308 0.25000 -0.28900
C 	C 	0.82360 0.91180 0.25000 -0.04100
H 	H 	0.88320 0.94160 0.25000 0.04200
C 	C 	0.82560 0.17440 0.75000 0.10100
N 	N 	0.78308 0.21692 0.75000 -0.28900
C 	C 	0.91180 0.08820 0.75000 -0.04100
H 	H 	0.94160 0.05840 0.75000 0.04200
C 	C 	0.82560 0.65120 0.75000 0.10100
N 	N 	0.78308 0.56616 0.75000 -0.28900
C 	C 	0.91180 0.82360 0.75000 -0.04100
H 	H 	0.94160 0.88320 0.75000 0.04200
C 	C 	0.34880 0.17440 0.75000 0.10100
N 	N 	0.43384 0.21692 0.75000 -0.28900
C 	C 	0.17640 0.08820 0.75000 -0.04100
H 	H 	0.11680 0.05840 0.75000 0.04200
