data_crystal

_cell_length_a 18.87540
_cell_length_b 18.87540
_cell_length_c 18.87540
_cell_angle_alpha 90.00000
_cell_angle_beta  90.00000
_cell_angle_gamma 90.00000

_symmetry_space_group_name_	'P 1'
_symmetry_space_group_name_H-M	'P 1'

loop_
_symmetry_equiv_pos_as_xyz
  x,y,z

loop_
_atom_site_label
_atom_site_type_symbol
_atom_site_fract_x
_atom_site_fract_y
_atom_site_fract_z
_atom_site_charge
N 	N 	0.13108 0.42056 0.08167 -0.18000
N 	N 	0.17569 0.36802 0.09165 -0.11900
N 	N 	0.86892 0.57944 0.08167 -0.17100
N 	N 	0.82431 0.63198 0.09165 -0.11400
N 	N 	0.86892 0.42056 0.91833 -0.14400
N 	N 	0.82431 0.36802 0.90835 -0.09200
N 	N 	0.13108 0.57944 0.91833 -0.15200
N 	N 	0.17569 0.63198 0.90835 -0.09400
N 	N 	0.08167 0.13108 0.42056 -0.18000
N 	N 	0.09165 0.17569 0.36802 -0.11800
N 	N 	0.08167 0.86892 0.57944 -0.17000
N 	N 	0.09165 0.82431 0.63198 -0.11300
N 	N 	0.91833 0.86892 0.42056 -0.14300
N 	N 	0.90835 0.82431 0.36802 -0.09100
N 	N 	0.91833 0.13108 0.57944 -0.15100
N 	N 	0.90835 0.17569 0.63198 -0.09300
N 	N 	0.42056 0.08167 0.13108 -0.17900
N 	N 	0.36802 0.09165 0.17569 -0.11800
N 	N 	0.57944 0.08167 0.86892 -0.17000
N 	N 	0.63198 0.09165 0.82431 -0.11300
N 	N 	0.42056 0.91833 0.86892 -0.14300
N 	N 	0.36802 0.90835 0.82431 -0.09100
N 	N 	0.57944 0.91833 0.13108 -0.15100
N 	N 	0.63198 0.90835 0.17569 -0.09300
N 	N 	0.42056 0.13108 0.91833 -0.15200
N 	N 	0.36802 0.17569 0.90835 -0.09500
N 	N 	0.57944 0.86892 0.91833 -0.14200
N 	N 	0.63198 0.82431 0.90835 -0.08900
N 	N 	0.42056 0.86892 0.08167 -0.17100
N 	N 	0.36802 0.82431 0.09165 -0.11500
N 	N 	0.57944 0.13108 0.08167 -0.17900
N 	N 	0.63198 0.17569 0.09165 -0.11700
N 	N 	0.13108 0.08167 0.57944 -0.17900
N 	N 	0.17569 0.09165 0.63198 -0.11700
N 	N 	0.86892 0.08167 0.42056 -0.17100
N 	N 	0.82431 0.09165 0.36802 -0.11500
N 	N 	0.86892 0.91833 0.57944 -0.14200
N 	N 	0.82431 0.90835 0.63198 -0.08900
N 	N 	0.13108 0.91833 0.42056 -0.15200
N 	N 	0.17569 0.90835 0.36802 -0.09500
N 	N 	0.08167 0.42056 0.86892 -0.17100
N 	N 	0.09165 0.36802 0.82431 -0.11500
N 	N 	0.08167 0.57944 0.13108 -0.17900
N 	N 	0.09165 0.63198 0.17569 -0.11700
N 	N 	0.91833 0.42056 0.13108 -0.15200
N 	N 	0.90835 0.36802 0.17569 -0.09500
N 	N 	0.91833 0.57944 0.86892 -0.14200
N 	N 	0.90835 0.63198 0.82431 -0.08900
N 	N 	0.86892 0.57944 0.91833 -0.14200
N 	N 	0.82431 0.63198 0.90835 -0.08900
N 	N 	0.13108 0.42056 0.91833 -0.15200
N 	N 	0.17569 0.36802 0.90835 -0.09500
N 	N 	0.13108 0.57944 0.08167 -0.17900
N 	N 	0.17569 0.63198 0.09165 -0.11700
N 	N 	0.86892 0.42056 0.08167 -0.17100
N 	N 	0.82431 0.36802 0.09165 -0.11500
N 	N 	0.91833 0.86892 0.57944 -0.14200
N 	N 	0.90835 0.82431 0.63198 -0.08900
N 	N 	0.91833 0.13108 0.42056 -0.15200
N 	N 	0.90835 0.17569 0.36802 -0.09500
N 	N 	0.08167 0.13108 0.57944 -0.17900
N 	N 	0.09165 0.17569 0.63198 -0.11700
N 	N 	0.08167 0.86892 0.42056 -0.17100
N 	N 	0.09165 0.82431 0.36802 -0.11500
N 	N 	0.57944 0.91833 0.86892 -0.14200
N 	N 	0.63198 0.90835 0.82431 -0.08900
N 	N 	0.42056 0.91833 0.13108 -0.15200
N 	N 	0.36802 0.90835 0.17569 -0.09500
N 	N 	0.57944 0.08167 0.13108 -0.17900
N 	N 	0.63198 0.09165 0.17569 -0.11700
N 	N 	0.42056 0.08167 0.86892 -0.17100
N 	N 	0.36802 0.09165 0.82431 -0.11500
N 	N 	0.57944 0.86892 0.08167 -0.17000
N 	N 	0.63198 0.82431 0.09165 -0.11300
N 	N 	0.42056 0.13108 0.08167 -0.17900
N 	N 	0.36802 0.17569 0.09165 -0.11800
N 	N 	0.57944 0.13108 0.91833 -0.15100
N 	N 	0.63198 0.17569 0.90835 -0.09300
N 	N 	0.42056 0.86892 0.91833 -0.14300
N 	N 	0.36802 0.82431 0.90835 -0.09100
N 	N 	0.86892 0.91833 0.42056 -0.14300
N 	N 	0.82431 0.90835 0.36802 -0.09100
N 	N 	0.13108 0.91833 0.57944 -0.15100
N 	N 	0.17569 0.90835 0.63198 -0.09300
N 	N 	0.13108 0.08167 0.42056 -0.17900
N 	N 	0.17569 0.09165 0.36802 -0.11800
N 	N 	0.86892 0.08167 0.57944 -0.17000
N 	N 	0.82431 0.09165 0.63198 -0.11300
N 	N 	0.91833 0.57944 0.13108 -0.15100
N 	N 	0.90835 0.63198 0.17569 -0.09300
N 	N 	0.91833 0.42056 0.86892 -0.14300
N 	N 	0.90835 0.36802 0.82431 -0.09100
N 	N 	0.08167 0.57944 0.86892 -0.17000
N 	N 	0.09165 0.63198 0.82431 -0.11300
N 	N 	0.08167 0.42056 0.13108 -0.17900
N 	N 	0.09165 0.36802 0.17569 -0.11800
Fe	Fe	0.13538 0.50000 -0.00000 1.06700
Fe	Fe	0.86462 0.50000 -0.00000 1.08000
Fe	Fe	0.00000 0.13538 0.50000 1.06700
Fe	Fe	0.00000 0.86462 0.50000 1.08000
Fe	Fe	0.50000 0.00000 0.13538 1.06700
Fe	Fe	0.50000 0.00000 0.86462 1.08000
Fe	Fe	0.50000 0.13538 -0.00000 1.06700
Fe	Fe	0.50000 0.86462 -0.00000 1.08000
Fe	Fe	0.13538 0.00000 0.50000 1.06700
Fe	Fe	0.86462 0.00000 0.50000 1.08000
Fe	Fe	-0.00000 0.50000 0.86462 1.08000
Fe	Fe	-0.00000 0.50000 0.13538 1.06700
C 	C 	0.15160 0.33575 0.15160 0.10100
C 	C 	0.18004 0.27115 0.18004 -0.02600
C 	C 	0.84840 0.66425 0.15160 0.11000
C 	C 	0.81996 0.72885 0.18004 -0.00800
C 	C 	0.84840 0.33575 0.84840 0.11700
C 	C 	0.81996 0.27115 0.81996 -0.00200
C 	C 	0.15160 0.66425 0.84840 0.11000
C 	C 	0.18004 0.72885 0.81996 -0.00800
C 	C 	0.15160 0.15160 0.33575 0.10100
C 	C 	0.18004 0.18004 0.27115 -0.02600
C 	C 	0.15160 0.84840 0.66425 0.11000
C 	C 	0.18004 0.81996 0.72885 -0.00800
C 	C 	0.84840 0.84840 0.33575 0.11700
C 	C 	0.81996 0.81996 0.27115 -0.00200
C 	C 	0.84840 0.15160 0.66425 0.11000
C 	C 	0.81996 0.18004 0.72885 -0.00800
C 	C 	0.33575 0.15160 0.15160 0.10100
C 	C 	0.27115 0.18004 0.18004 -0.02600
C 	C 	0.66425 0.15160 0.84840 0.11000
C 	C 	0.72885 0.18004 0.81996 -0.00800
C 	C 	0.33575 0.84840 0.84840 0.11700
C 	C 	0.27115 0.81996 0.81996 -0.00200
C 	C 	0.66425 0.84840 0.15160 0.11000
C 	C 	0.72885 0.81996 0.18004 -0.00800
C 	C 	0.33575 0.15160 0.84840 0.10900
C 	C 	0.27115 0.18004 0.81996 -0.01400
C 	C 	0.66425 0.84840 0.84840 0.11900
C 	C 	0.72885 0.81996 0.81996 0.00400
C 	C 	0.33575 0.84840 0.15160 0.10900
C 	C 	0.27115 0.81996 0.18004 -0.01400
C 	C 	0.66425 0.15160 0.15160 0.10200
C 	C 	0.72885 0.18004 0.18004 -0.02100
C 	C 	0.15160 0.15160 0.66425 0.10200
C 	C 	0.18004 0.18004 0.72885 -0.02100
C 	C 	0.84840 0.15160 0.33575 0.10900
C 	C 	0.81996 0.18004 0.27115 -0.01400
C 	C 	0.84840 0.84840 0.66425 0.11900
C 	C 	0.81996 0.81996 0.72885 0.00400
C 	C 	0.15160 0.84840 0.33575 0.10900
C 	C 	0.18004 0.81996 0.27115 -0.01400
C 	C 	0.15160 0.33575 0.84840 0.10900
C 	C 	0.18004 0.27115 0.81996 -0.01400
C 	C 	0.15160 0.66425 0.15160 0.10200
C 	C 	0.18004 0.72885 0.18004 -0.02100
C 	C 	0.84840 0.33575 0.15160 0.10900
C 	C 	0.81996 0.27115 0.18004 -0.01400
C 	C 	0.84840 0.66425 0.84840 0.11900
C 	C 	0.81996 0.72885 0.81996 0.00400
C 	C 	0.24227 0.24227 0.14984 -0.03800
H 	H 	0.26572 0.26572 0.10595 0.03400
C 	C 	0.75773 0.75773 0.14984 -0.03700
H 	H 	0.73428 0.73428 0.10595 0.04000
C 	C 	0.75773 0.24227 0.85016 -0.03500
H 	H 	0.73428 0.26572 0.89405 0.06100
C 	C 	0.24227 0.75773 0.85016 -0.03500
H 	H 	0.26572 0.73428 0.89405 0.06100
C 	C 	0.14984 0.24227 0.24227 -0.03800
H 	H 	0.10595 0.26572 0.26572 0.03400
C 	C 	0.14984 0.75773 0.75773 -0.03700
H 	H 	0.10595 0.73428 0.73428 0.04000
C 	C 	0.85016 0.75773 0.24227 -0.03500
H 	H 	0.89405 0.73428 0.26572 0.06100
C 	C 	0.85016 0.24227 0.75773 -0.03500
H 	H 	0.89405 0.26572 0.73428 0.06100
C 	C 	0.24227 0.14984 0.24227 -0.03800
H 	H 	0.26572 0.10595 0.26572 0.03400
C 	C 	0.75773 0.14984 0.75773 -0.03700
H 	H 	0.73428 0.10595 0.73428 0.04000
C 	C 	0.24227 0.85016 0.75773 -0.03500
H 	H 	0.26572 0.89405 0.73428 0.06100
C 	C 	0.75773 0.85016 0.24227 -0.03500
H 	H 	0.73428 0.89405 0.26572 0.06100
C 	C 	0.24227 0.24227 0.85016 -0.03600
H 	H 	0.26572 0.26572 0.89405 0.05800
C 	C 	0.75773 0.75773 0.85016 -0.03500
H 	H 	0.73428 0.73428 0.89405 0.06500
C 	C 	0.24227 0.75773 0.14984 -0.03800
H 	H 	0.26572 0.73428 0.10595 0.03700
C 	C 	0.75773 0.24227 0.14984 -0.03800
H 	H 	0.73428 0.26572 0.10595 0.03700
C 	C 	0.24227 0.14984 0.75773 -0.03800
H 	H 	0.26572 0.10595 0.73428 0.03700
C 	C 	0.75773 0.14984 0.24227 -0.03800
H 	H 	0.73428 0.10595 0.26572 0.03700
C 	C 	0.75773 0.85016 0.75773 -0.03500
H 	H 	0.73428 0.89405 0.73428 0.06500
C 	C 	0.24227 0.85016 0.24227 -0.03600
H 	H 	0.26572 0.89405 0.26572 0.05800
C 	C 	0.14984 0.24227 0.75773 -0.03800
H 	H 	0.10595 0.26572 0.73428 0.03700
C 	C 	0.14984 0.75773 0.24227 -0.03800
H 	H 	0.10595 0.73428 0.26572 0.03700
C 	C 	0.85016 0.24227 0.24227 -0.03600
H 	H 	0.89405 0.26572 0.26572 0.05800
C 	C 	0.85016 0.75773 0.75773 -0.03500
H 	H 	0.89405 0.73428 0.73428 0.06500
Cl	Cl	0.00000 0.50000 -0.00000 -0.94400
Cl	Cl	0.00000 0.00000 0.50000 -0.94400
Cl	Cl	0.50000 0.00000 -0.00000 -0.94400
