data_crystal

_cell_length_a 18.44480
_cell_length_b 18.44480
_cell_length_c 9.80840
_cell_angle_alpha 90.00000
_cell_angle_beta  90.00000
_cell_angle_gamma 120.00000

_symmetry_space_group_name_	'P 1'
_symmetry_space_group_name_H-M	'P 1'

loop_
_symmetry_equiv_pos_as_xyz
  x,y,z

loop_
_atom_site_label
_atom_site_type_symbol
_atom_site_fract_x
_atom_site_fract_y
_atom_site_fract_z
_atom_site_charge
O 	O 	0.56860 0.06230 0.36100 -0.17500
O 	O 	0.46160 0.68780 0.50440 -0.17800
O 	O 	0.46710 0.79390 0.61410 -0.14900
C 	C 	0.47020 0.75940 0.50450 0.27900
C 	C 	0.48480 0.80520 0.37290 -0.02700
C 	C 	0.50860 0.88910 0.37330 -0.00500
H 	H 	0.51500 0.91680 0.45550 0.09100
O 	O 	0.93770 0.50630 0.36100 -0.17500
O 	O 	0.31220 0.77380 0.50440 -0.17800
O 	O 	0.20610 0.67320 0.61410 -0.14900
C 	C 	0.24060 0.71080 0.50450 0.27900
C 	C 	0.19480 0.67960 0.37290 -0.02700
C 	C 	0.11090 0.61950 0.37330 -0.00400
H 	H 	0.08320 0.59820 0.45550 0.09100
O 	O 	0.49370 0.43140 0.36100 -0.17500
O 	O 	0.22620 0.53840 0.50440 -0.17800
O 	O 	0.32680 0.53290 0.61410 -0.14900
C 	C 	0.28920 0.52980 0.50450 0.27900
C 	C 	0.32040 0.51520 0.37290 -0.02600
C 	C 	0.38050 0.49140 0.37330 -0.00500
H 	H 	0.40180 0.48500 0.45550 0.09100
O 	O 	0.43140 0.93770 0.86100 -0.17600
O 	O 	0.53840 0.31220 0.00440 -0.17900
O 	O 	0.53290 0.20610 0.11410 -0.15000
C 	C 	0.52980 0.24060 0.00450 0.27900
C 	C 	0.51520 0.19480 0.87290 -0.02800
C 	C 	0.49140 0.11090 0.87330 -0.00500
H 	H 	0.48500 0.08320 0.95550 0.09000
O 	O 	0.06230 0.49370 0.86100 -0.17600
O 	O 	0.68780 0.22620 0.00440 -0.17900
O 	O 	0.79390 0.32680 0.11410 -0.15000
C 	C 	0.75940 0.28920 0.00450 0.27900
C 	C 	0.80520 0.32040 0.87290 -0.02800
C 	C 	0.88910 0.38050 0.87330 -0.00500
H 	H 	0.91680 0.40180 0.95550 0.09000
O 	O 	0.50630 0.56860 0.86100 -0.17600
O 	O 	0.77380 0.46160 0.00440 -0.17800
O 	O 	0.67320 0.46710 0.11410 -0.15000
C 	C 	0.71080 0.47020 0.00450 0.27900
C 	C 	0.67960 0.48480 0.87290 -0.02800
C 	C 	0.61950 0.50860 0.87330 -0.00600
H 	H 	0.59820 0.51500 0.95550 0.09000
O 	O 	0.43140 0.93770 0.63900 -0.17600
O 	O 	0.53840 0.31220 0.49560 -0.17900
O 	O 	0.53290 0.20610 0.38590 -0.15000
C 	C 	0.52980 0.24060 0.49550 0.27800
C 	C 	0.51520 0.19480 0.62710 -0.02800
C 	C 	0.49140 0.11090 0.62670 -0.00600
H 	H 	0.48500 0.08320 0.54450 0.09000
O 	O 	0.06230 0.49370 0.63900 -0.17600
O 	O 	0.68780 0.22620 0.49560 -0.17900
O 	O 	0.79390 0.32680 0.38590 -0.15000
C 	C 	0.75940 0.28920 0.49550 0.27800
C 	C 	0.80520 0.32040 0.62710 -0.02800
C 	C 	0.88910 0.38050 0.62670 -0.00500
H 	H 	0.91680 0.40180 0.54450 0.09000
O 	O 	0.50630 0.56860 0.63900 -0.17600
O 	O 	0.77380 0.46160 0.49560 -0.17900
O 	O 	0.67320 0.46710 0.38590 -0.15000
C 	C 	0.71080 0.47020 0.49550 0.27800
C 	C 	0.67960 0.48480 0.62710 -0.02700
C 	C 	0.61950 0.50860 0.62670 -0.00600
H 	H 	0.59820 0.51500 0.54450 0.09100
O 	O 	0.56860 0.06230 0.13900 -0.17600
O 	O 	0.46160 0.68780 0.99560 -0.17900
O 	O 	0.46710 0.79390 0.88590 -0.15000
C 	C 	0.47020 0.75940 0.99550 0.27900
C 	C 	0.48480 0.80520 0.12710 -0.02800
C 	C 	0.50860 0.88910 0.12670 -0.00500
H 	H 	0.51500 0.91680 0.04450 0.09000
O 	O 	0.93770 0.50630 0.13900 -0.17600
O 	O 	0.31220 0.77380 0.99560 -0.17900
O 	O 	0.20610 0.67320 0.88590 -0.15000
C 	C 	0.24060 0.71080 0.99550 0.27900
C 	C 	0.19480 0.67960 0.12710 -0.02800
C 	C 	0.11090 0.61950 0.12670 -0.00500
H 	H 	0.08320 0.59820 0.04450 0.09000
O 	O 	0.49370 0.43140 0.13900 -0.17600
O 	O 	0.22620 0.53840 0.99560 -0.17800
O 	O 	0.32680 0.53290 0.88590 -0.15000
C 	C 	0.28920 0.52980 0.99550 0.27900
C 	C 	0.32040 0.51520 0.12710 -0.02800
C 	C 	0.38050 0.49140 0.12670 -0.00600
H 	H 	0.40180 0.48500 0.04450 0.09000
Th	Th	0.64617 0.20201 0.25000 0.03400
C 	C 	0.52320 0.93240 0.25000 -0.03500
C 	C 	0.55380 0.02280 0.25000 0.28100
C 	C 	0.47340 0.76330 0.25000 -0.01200
H 	H 	0.45810 0.70700 0.25000 0.07400
Th	Th	0.79799 0.44416 0.25000 0.03400
C 	C 	0.06760 0.59080 0.25000 -0.03500
C 	C 	0.97720 0.53100 0.25000 0.28100
C 	C 	0.23670 0.71010 0.25000 -0.01200
H 	H 	0.29300 0.75110 0.25000 0.07400
Th	Th	0.55584 0.35383 0.25000 0.03400
C 	C 	0.40920 0.47680 0.25000 -0.03400
C 	C 	0.46900 0.44620 0.25000 0.28100
C 	C 	0.28990 0.52660 0.25000 -0.01200
H 	H 	0.24890 0.54190 0.25000 0.07400
Th	Th	0.35383 0.79799 0.75000 0.03400
C 	C 	0.47680 0.06760 0.75000 -0.03500
C 	C 	0.44620 0.97720 0.75000 0.28100
C 	C 	0.52660 0.23670 0.75000 -0.01200
H 	H 	0.54190 0.29300 0.75000 0.07400
Th	Th	0.20201 0.55584 0.75000 0.03400
C 	C 	0.93240 0.40920 0.75000 -0.03500
C 	C 	0.02280 0.46900 0.75000 0.28100
C 	C 	0.76330 0.28990 0.75000 -0.01200
H 	H 	0.70700 0.24890 0.75000 0.07400
Th	Th	0.44416 0.64617 0.75000 0.03400
C 	C 	0.59080 0.52320 0.75000 -0.03400
C 	C 	0.53100 0.55380 0.75000 0.28100
C 	C 	0.71010 0.47340 0.75000 -0.01200
H 	H 	0.75110 0.45810 0.75000 0.07400
O 	O 	0.66667 0.33333 0.25000 -0.02000
O 	O 	0.33333 0.66667 0.75000 -0.02000
