data_crystal

_cell_length_a 20.23270
_cell_length_b 10.07140
_cell_length_c 21.67300
_cell_angle_alpha 90.00000
_cell_angle_beta  97.85600
_cell_angle_gamma 90.00000

_symmetry_space_group_name_	'P 1'
_symmetry_space_group_name_H-M	'P 1'

loop_
_symmetry_equiv_pos_as_xyz
  x,y,z

loop_
_atom_site_label
_atom_site_type_symbol
_atom_site_fract_x
_atom_site_fract_y
_atom_site_fract_z
_atom_site_charge
Th	Th	0.14896 0.79057 0.41306 0.04300
Th	Th	0.35648 0.78556 0.59304 0.04500
O 	O 	0.16150 0.86510 0.51827 -0.16400
O 	O 	0.17610 0.75250 0.80523 -0.16800
O 	O 	0.34410 0.85220 0.48742 -0.16900
O 	O 	0.10670 0.89500 0.83782 -0.17000
O 	O 	0.32760 0.74220 0.20000 -0.16700
O 	O 	0.26820 0.77190 0.41490 -0.15800
O 	O 	0.38390 0.90450 0.16743 -0.18100
O 	O 	0.19250 0.60140 0.47400 -0.16000
O 	O 	0.54080 0.15240 0.33070 -0.17200
O 	O 	0.94430 0.12230 0.66691 -0.17000
O 	O 	0.19250 0.99890 0.39840 -0.16500
O 	O 	0.94310 0.04380 0.57230 -0.17700
C 	C 	0.15640 0.85760 0.68430 -0.01100
H 	H 	0.19690 0.81500 0.69630 0.08800
C 	C 	0.13710 0.89080 0.62180 -0.02300
C 	C 	0.36070 0.88610 0.38350 -0.02400
C 	C 	0.07510 0.95020 0.60310 -0.01300
H 	H 	0.06070 0.96570 0.56110 0.08600
C 	C 	0.32140 0.83390 0.43190 0.27700
C 	C 	0.41640 0.96440 0.40010 -0.01100
H 	H 	0.43040 0.98390 0.44180 0.08500
C 	C 	0.11500 0.88840 0.72830 -0.02700
C 	C 	0.13390 0.84550 0.79440 0.28000
C 	C 	0.03550 0.98580 0.64760 -0.02900
C 	C 	0.36270 0.84760 0.21040 0.28900
C 	C 	0.05610 0.95700 0.71020 -0.00600
H 	H 	0.03020 0.98410 0.74020 0.08100
C 	C 	0.28910 0.19920 0.55600 -0.02800
C 	C 	0.37830 0.89710 0.27600 -0.03000
C 	C 	0.18320 0.86340 0.57520 0.27400
C 	C 	0.24800 0.40520 0.50690 -0.02400
C 	C 	0.34140 0.85200 0.32130 -0.00900
H 	H 	0.30400 0.79910 0.31020 0.08900
C 	C 	0.21980 0.33580 0.45470 -0.01100
H 	H 	0.19740 0.38130 0.42080 0.08700
C 	C 	0.45170 0.01390 0.35420 -0.03000
C 	C 	0.22500 0.19660 0.45280 -0.03000
C 	C 	0.28320 0.33800 0.55740 -0.01300
H 	H 	0.30290 0.38530 0.59200 0.08700
O 	O 	0.53540 0.10930 0.42860 -0.17500
O 	O 	0.24260 0.84310 0.59620 -0.16200
O 	O 	0.34640 0.01280 0.60420 -0.16000
O 	O 	0.28340 0.61630 0.54420 -0.16100
C 	C 	0.97040 0.05360 0.62770 0.28000
C 	C 	0.24140 0.55210 0.50890 0.27700
C 	C 	0.26050 0.13090 0.50370 -0.01300
H 	H 	0.26490 0.03910 0.50240 0.09400
C 	C 	0.43230 0.98120 0.29210 -0.00400
H 	H 	0.45540 0.01550 0.26140 0.08200
C 	C 	0.19330 0.12460 0.39610 0.29300
C 	C 	0.51230 0.09830 0.37210 0.28500
C 	C 	0.32660 0.13050 0.61140 0.28800
O 	O 	0.16740 0.18770 0.35190 -0.20000
O 	O 	0.33950 0.19090 0.66010 -0.19600
Th	Th	0.85104 0.29057 0.08694 0.04300
Th	Th	0.64352 0.28556 0.90696 0.04500
O 	O 	0.83850 0.36510 0.98173 -0.16400
O 	O 	0.82390 0.25250 0.69477 -0.16800
O 	O 	0.65590 0.35220 0.01258 -0.16800
O 	O 	0.89330 0.39500 0.66218 -0.17100
O 	O 	0.67240 0.24220 0.30000 -0.16700
O 	O 	0.73180 0.27190 0.08510 -0.15800
O 	O 	0.61610 0.40450 0.33257 -0.18100
O 	O 	0.80750 0.10140 0.02600 -0.15900
O 	O 	0.45920 0.65240 0.16930 -0.17200
O 	O 	0.05570 0.62230 0.83309 -0.17000
O 	O 	0.80750 0.49890 0.10160 -0.16500
O 	O 	0.05690 0.54380 0.92770 -0.17700
C 	C 	0.84360 0.35760 0.81570 -0.01100
H 	H 	0.80310 0.31500 0.80370 0.08800
C 	C 	0.86290 0.39080 0.87820 -0.02400
C 	C 	0.63930 0.38610 0.11650 -0.02400
C 	C 	0.92490 0.45020 0.89690 -0.01200
H 	H 	0.93930 0.46570 0.93890 0.08500
C 	C 	0.67860 0.33390 0.06810 0.27700
C 	C 	0.58360 0.46440 0.09990 -0.01200
H 	H 	0.56960 0.48390 0.05820 0.08500
C 	C 	0.88500 0.38840 0.77170 -0.02700
C 	C 	0.86610 0.34550 0.70560 0.28000
C 	C 	0.96450 0.48580 0.85240 -0.03000
C 	C 	0.63730 0.34760 0.28960 0.28900
C 	C 	0.94390 0.45700 0.78980 -0.00600
H 	H 	0.96980 0.48410 0.75980 0.08100
C 	C 	0.71090 0.69920 0.94400 -0.02800
C 	C 	0.62170 0.39710 0.22400 -0.03000
C 	C 	0.81680 0.36340 0.92480 0.27400
C 	C 	0.75200 0.90520 0.99310 -0.02400
C 	C 	0.65860 0.35200 0.17870 -0.00900
H 	H 	0.69600 0.29910 0.18980 0.08900
C 	C 	0.78020 0.83580 0.04530 -0.01100
H 	H 	0.80260 0.88130 0.07920 0.08700
C 	C 	0.54830 0.51390 0.14580 -0.03000
C 	C 	0.77500 0.69660 0.04720 -0.03000
C 	C 	0.71680 0.83800 0.94260 -0.01300
H 	H 	0.69710 0.88530 0.90800 0.08800
O 	O 	0.46460 0.60930 0.07140 -0.17500
O 	O 	0.75740 0.34310 0.90380 -0.16200
O 	O 	0.65360 0.51280 0.89580 -0.16000
O 	O 	0.71660 0.11630 0.95580 -0.16100
C 	C 	0.02960 0.55360 0.87230 0.28100
C 	C 	0.75860 0.05210 0.99110 0.27600
C 	C 	0.73950 0.63090 0.99630 -0.01300
H 	H 	0.73510 0.53910 0.99760 0.09500
C 	C 	0.56770 0.48120 0.20790 -0.00400
H 	H 	0.54460 0.51550 0.23860 0.08300
C 	C 	0.80670 0.62460 0.10390 0.29400
C 	C 	0.48770 0.59830 0.12790 0.28500
C 	C 	0.67340 0.63050 0.88860 0.28800
O 	O 	0.83260 0.68770 0.14810 -0.20000
O 	O 	0.66050 0.69090 0.83990 -0.19600
Th	Th	0.85104 0.20943 0.58694 0.04300
Th	Th	0.64352 0.21444 0.40696 0.04500
O 	O 	0.83850 0.13490 0.48173 -0.16400
O 	O 	0.82390 0.24750 0.19477 -0.16800
O 	O 	0.65590 0.14780 0.51258 -0.16900
O 	O 	0.89330 0.10500 0.16218 -0.17000
O 	O 	0.67240 0.25780 0.80000 -0.16700
O 	O 	0.73180 0.22810 0.58510 -0.15800
O 	O 	0.61610 0.09550 0.83257 -0.18100
O 	O 	0.80750 0.39860 0.52600 -0.16000
O 	O 	0.45920 0.84760 0.66930 -0.17200
O 	O 	0.05570 0.87770 0.33309 -0.17000
O 	O 	0.80750 0.00110 0.60160 -0.16500
O 	O 	0.05690 0.95620 0.42770 -0.17700
C 	C 	0.84360 0.14240 0.31570 -0.01100
H 	H 	0.80310 0.18500 0.30370 0.08800
C 	C 	0.86290 0.10920 0.37820 -0.02300
C 	C 	0.63930 0.11390 0.61650 -0.02400
C 	C 	0.92490 0.04980 0.39690 -0.01300
H 	H 	0.93930 0.03430 0.43890 0.08600
C 	C 	0.67860 0.16610 0.56810 0.27700
C 	C 	0.58360 0.03560 0.59990 -0.01100
H 	H 	0.56960 0.01610 0.55820 0.08500
C 	C 	0.88500 0.11160 0.27170 -0.02700
C 	C 	0.86610 0.15450 0.20560 0.28000
C 	C 	0.96450 0.01420 0.35240 -0.02900
C 	C 	0.63730 0.15240 0.78960 0.28900
C 	C 	0.94390 0.04300 0.28980 -0.00600
H 	H 	0.96980 0.01590 0.25980 0.08100
C 	C 	0.71090 0.80080 0.44400 -0.02800
C 	C 	0.62170 0.10290 0.72400 -0.03000
C 	C 	0.81680 0.13660 0.42480 0.27400
C 	C 	0.75200 0.59480 0.49310 -0.02400
C 	C 	0.65860 0.14800 0.67870 -0.00900
H 	H 	0.69600 0.20090 0.68980 0.08900
C 	C 	0.78020 0.66420 0.54530 -0.01100
H 	H 	0.80260 0.61870 0.57920 0.08700
C 	C 	0.54830 0.98610 0.64580 -0.03000
C 	C 	0.77500 0.80340 0.54720 -0.03000
C 	C 	0.71680 0.66200 0.44260 -0.01300
H 	H 	0.69710 0.61470 0.40800 0.08700
O 	O 	0.46460 0.89070 0.57140 -0.17500
O 	O 	0.75740 0.15690 0.40380 -0.16200
O 	O 	0.65360 0.98720 0.39580 -0.16000
O 	O 	0.71660 0.38370 0.45580 -0.16100
C 	C 	0.02960 0.94640 0.37230 0.28000
C 	C 	0.75860 0.44790 0.49110 0.27700
C 	C 	0.73950 0.86910 0.49630 -0.01300
H 	H 	0.73510 0.96090 0.49760 0.09400
C 	C 	0.56770 0.01880 0.70790 -0.00400
H 	H 	0.54460 0.98450 0.73860 0.08200
C 	C 	0.80670 0.87540 0.60390 0.29300
C 	C 	0.48770 0.90170 0.62790 0.28500
C 	C 	0.67340 0.86950 0.38860 0.28800
O 	O 	0.83260 0.81230 0.64810 -0.20000
O 	O 	0.66050 0.80910 0.33990 -0.19600
Th	Th	0.14896 0.70943 0.91306 0.04300
Th	Th	0.35648 0.71444 0.09304 0.04500
O 	O 	0.16150 0.63490 0.01827 -0.16400
O 	O 	0.17610 0.74750 0.30523 -0.16800
O 	O 	0.34410 0.64780 0.98742 -0.16800
O 	O 	0.10670 0.60500 0.33782 -0.17100
O 	O 	0.32760 0.75780 0.70000 -0.16700
O 	O 	0.26820 0.72810 0.91490 -0.15800
O 	O 	0.38390 0.59550 0.66743 -0.18100
O 	O 	0.19250 0.89860 0.97400 -0.15900
O 	O 	0.54080 0.34760 0.83070 -0.17200
O 	O 	0.94430 0.37770 0.16691 -0.17000
O 	O 	0.19250 0.50110 0.89840 -0.16500
O 	O 	0.94310 0.45620 0.07230 -0.17700
C 	C 	0.15640 0.64240 0.18430 -0.01100
H 	H 	0.19690 0.68500 0.19630 0.08800
C 	C 	0.13710 0.60920 0.12180 -0.02400
C 	C 	0.36070 0.61390 0.88350 -0.02400
C 	C 	0.07510 0.54980 0.10310 -0.01200
H 	H 	0.06070 0.53430 0.06110 0.08500
C 	C 	0.32140 0.66610 0.93190 0.27700
C 	C 	0.41640 0.53560 0.90010 -0.01200
H 	H 	0.43040 0.51610 0.94180 0.08500
C 	C 	0.11500 0.61160 0.22830 -0.02700
C 	C 	0.13390 0.65450 0.29440 0.28000
C 	C 	0.03550 0.51420 0.14760 -0.03000
C 	C 	0.36270 0.65240 0.71040 0.28900
C 	C 	0.05610 0.54300 0.21020 -0.00600
H 	H 	0.03020 0.51590 0.24020 0.08100
C 	C 	0.28910 0.30080 0.05600 -0.02800
C 	C 	0.37830 0.60290 0.77600 -0.03000
C 	C 	0.18320 0.63660 0.07520 0.27400
C 	C 	0.24800 0.09480 0.00690 -0.02400
C 	C 	0.34140 0.64800 0.82130 -0.00900
H 	H 	0.30400 0.70090 0.81020 0.08900
C 	C 	0.21980 0.16420 0.95470 -0.01100
H 	H 	0.19740 0.11870 0.92080 0.08700
C 	C 	0.45170 0.48610 0.85420 -0.03000
C 	C 	0.22500 0.30340 0.95280 -0.03000
C 	C 	0.28320 0.16200 0.05740 -0.01300
H 	H 	0.30290 0.11470 0.09200 0.08800
O 	O 	0.53540 0.39070 0.92860 -0.17500
O 	O 	0.24260 0.65690 0.09620 -0.16200
O 	O 	0.34640 0.48720 0.10420 -0.16000
O 	O 	0.28340 0.88370 0.04420 -0.16100
C 	C 	0.97040 0.44640 0.12770 0.28100
C 	C 	0.24140 0.94790 0.00890 0.27600
C 	C 	0.26050 0.36910 0.00370 -0.01300
H 	H 	0.26490 0.46090 0.00240 0.09500
C 	C 	0.43230 0.51880 0.79210 -0.00400
H 	H 	0.45540 0.48450 0.76140 0.08300
C 	C 	0.19330 0.37540 0.89610 0.29400
C 	C 	0.51230 0.40170 0.87210 0.28500
C 	C 	0.32660 0.36950 0.11140 0.28800
O 	O 	0.16740 0.31230 0.85190 -0.20000
O 	O 	0.33950 0.30910 0.16010 -0.19600
