data_crystal

_cell_length_a 20.51580
_cell_length_b 10.00120
_cell_length_c 21.51450
_cell_angle_alpha 90.00000
_cell_angle_beta  99.15600
_cell_angle_gamma 90.00000

_symmetry_space_group_name_	'P 1'
_symmetry_space_group_name_H-M	'P 1'

loop_
_symmetry_equiv_pos_as_xyz
  x,y,z

loop_
_atom_site_label
_atom_site_type_symbol
_atom_site_fract_x
_atom_site_fract_y
_atom_site_fract_z
_atom_site_charge
Th	Th	0.14813 0.69528 0.41576 0.04400
Th	Th	0.35952 0.70347 0.60121 0.04100
O 	O 	0.26440 0.78900 0.92170 -0.15900
O 	O 	0.16520 0.61720 0.52150 -0.16400
O 	O 	0.10950 0.61530 0.84070 -0.17400
O 	O 	0.24660 0.64120 0.60150 -0.16600
O 	O 	0.94680 0.38400 0.66550 -0.16900
O 	O 	0.35380 0.47270 0.60100 -0.16000
C 	C 	0.22050 0.14870 0.45530 -0.01700
H 	H 	0.19650 0.10310 0.42150 0.08900
O 	O 	0.17260 0.76500 0.80720 -0.16800
C 	C 	0.28580 0.14640 0.55870 -0.01700
H 	H 	0.30530 0.09920 0.59410 0.09000
O 	O 	0.18900 0.88380 0.47860 -0.15300
O 	O 	0.28550 0.86570 0.54360 -0.15600
O 	O 	0.34800 0.85290 0.99210 -0.16500
C 	C 	0.14040 0.60480 0.62420 -0.02600
O 	O 	0.18790 0.48440 0.39670 -0.16200
O 	O 	0.36400 0.88940 0.67140 -0.16000
C 	C 	0.22740 0.28700 0.45270 -0.02300
C 	C 	0.31880 0.84570 0.93700 0.27300
C 	C 	0.24940 0.07900 0.50850 -0.01900
O 	O 	0.53330 0.11000 0.92740 -0.17000
O 	O 	0.94410 0.46940 0.57110 -0.17400
O 	O 	0.53330 0.15520 0.82790 -0.16500
C 	C 	0.18720 0.62370 0.57930 0.27800
C 	C 	0.07820 0.54680 0.60390 -0.00900
H 	H 	0.06430 0.52810 0.56150 0.08600
O 	O 	0.34740 0.29410 0.66100 -0.19600
C 	C 	0.41190 0.97370 0.90250 -0.02100
H 	H 	0.43130 0.98220 0.94440 0.08900
O 	O 	0.17780 0.29480 0.34640 -0.19600
C 	C 	0.29310 0.28430 0.55640 -0.02000
C 	C 	0.15830 0.64350 0.68670 -0.00700
H 	H 	0.19830 0.68660 0.69960 0.08500
O 	O 	0.26000 0.92440 0.69490 -0.17300
C 	C 	0.44270 0.02770 0.85490 -0.02100
C 	C 	0.03770 0.51790 0.64840 -0.03000
C 	C 	0.41580 0.00480 0.79200 -0.01800
H 	H 	0.43840 0.03300 0.76020 0.08800
C 	C 	0.13360 0.66530 0.79690 0.28400
C 	C 	0.24180 0.93230 0.51080 0.27100
C 	C 	0.11590 0.61740 0.73010 -0.02700
C 	C 	0.32300 0.89080 0.82460 -0.02800
H 	H 	0.28260 0.84750 0.81480 0.09900
C 	C 	0.35220 0.90730 0.88700 -0.01500
C 	C 	0.26400 0.35460 0.50380 -0.01900
H 	H 	0.26870 0.44690 0.50240 0.09400
C 	C 	0.35540 0.94020 0.77660 -0.00500
C 	C 	0.05660 0.54940 0.71100 -0.00400
H 	H 	0.03000 0.52560 0.74040 0.08100
C 	C 	0.19500 0.35850 0.39410 0.28600
C 	C 	0.97300 0.45300 0.62710 0.27800
C 	C 	0.32360 0.91490 0.70950 0.25300
C 	C 	0.33360 0.35480 0.61150 0.28100
C 	C 	0.50600 0.10100 0.87080 0.27300
Th	Th	0.85187 0.19528 0.08424 0.04300
Th	Th	0.64048 0.20347 0.89879 0.04000
O 	O 	0.73560 0.28900 0.57830 -0.16000
O 	O 	0.83480 0.11720 0.97850 -0.16500
O 	O 	0.89050 0.11530 0.65930 -0.17500
O 	O 	0.75340 0.14120 0.89850 -0.16700
O 	O 	0.05320 0.88400 0.83450 -0.17000
O 	O 	0.64620 0.97270 0.89900 -0.16100
C 	C 	0.77950 0.64870 0.04470 -0.01600
H 	H 	0.80350 0.60310 0.07850 0.08900
O 	O 	0.82740 0.26500 0.69280 -0.16800
C 	C 	0.71420 0.64640 0.94130 -0.01700
H 	H 	0.69470 0.59920 0.90590 0.09000
O 	O 	0.81100 0.38380 0.02140 -0.15300
O 	O 	0.71450 0.36570 0.95640 -0.15600
O 	O 	0.65200 0.35290 0.50790 -0.16500
C 	C 	0.85960 0.10480 0.87580 -0.02700
O 	O 	0.81210 0.98440 0.10330 -0.16200
O 	O 	0.63600 0.38940 0.82860 -0.16000
C 	C 	0.77260 0.78700 0.04730 -0.02300
C 	C 	0.68120 0.34570 0.56300 0.27300
C 	C 	0.75060 0.57900 0.99150 -0.01900
O 	O 	0.46670 0.61000 0.57260 -0.17000
O 	O 	0.05590 0.96940 0.92890 -0.17400
O 	O 	0.46670 0.65520 0.67210 -0.16500
C 	C 	0.81280 0.12370 0.92070 0.27800
C 	C 	0.92180 0.04680 0.89610 -0.00900
H 	H 	0.93570 0.02810 0.93850 0.08500
O 	O 	0.65260 0.79410 0.83900 -0.19600
C 	C 	0.58810 0.47370 0.59750 -0.02100
H 	H 	0.56870 0.48220 0.55560 0.08900
O 	O 	0.82220 0.79480 0.15360 -0.19600
C 	C 	0.70690 0.78430 0.94360 -0.02000
C 	C 	0.84170 0.14350 0.81330 -0.00600
H 	H 	0.80170 0.18660 0.80040 0.08500
O 	O 	0.74000 0.42440 0.80510 -0.17300
C 	C 	0.55730 0.52770 0.64510 -0.02100
C 	C 	0.96230 0.01790 0.85160 -0.03200
C 	C 	0.58420 0.50480 0.70800 -0.01800
H 	H 	0.56160 0.53300 0.73980 0.08800
C 	C 	0.86640 0.16530 0.70310 0.28400
C 	C 	0.75820 0.43230 0.98920 0.27000
C 	C 	0.88410 0.11740 0.76990 -0.02800
C 	C 	0.67700 0.39080 0.67540 -0.02800
H 	H 	0.71740 0.34750 0.68520 0.09900
C 	C 	0.64780 0.40730 0.61300 -0.01500
C 	C 	0.73600 0.85460 0.99620 -0.01900
H 	H 	0.73130 0.94690 0.99760 0.09500
C 	C 	0.64460 0.44020 0.72340 -0.00500
C 	C 	0.94340 0.04940 0.78900 -0.00400
H 	H 	0.97000 0.02560 0.75960 0.08100
C 	C 	0.80500 0.85850 0.10590 0.28600
C 	C 	0.02700 0.95300 0.87290 0.27900
C 	C 	0.67640 0.41490 0.79050 0.25300
C 	C 	0.66640 0.85480 0.88850 0.28100
C 	C 	0.49400 0.60100 0.62920 0.27300
Th	Th	0.85187 0.30472 0.58424 0.04300
Th	Th	0.64048 0.29653 0.39879 0.04000
O 	O 	0.73560 0.21100 0.07830 -0.16000
O 	O 	0.83480 0.38280 0.47850 -0.16500
O 	O 	0.89050 0.38470 0.15930 -0.17500
O 	O 	0.75340 0.35880 0.39850 -0.16700
O 	O 	0.05320 0.61600 0.33450 -0.17000
O 	O 	0.64620 0.52730 0.39900 -0.16100
C 	C 	0.77950 0.85130 0.54470 -0.01700
H 	H 	0.80350 0.89690 0.57850 0.08900
O 	O 	0.82740 0.23500 0.19280 -0.16800
C 	C 	0.71420 0.85360 0.44130 -0.01700
H 	H 	0.69470 0.90080 0.40590 0.09000
O 	O 	0.81100 0.11620 0.52140 -0.15300
O 	O 	0.71450 0.13430 0.45640 -0.15600
O 	O 	0.65200 0.14710 0.00790 -0.16500
C 	C 	0.85960 0.39520 0.37580 -0.02600
O 	O 	0.81210 0.51560 0.60330 -0.16200
O 	O 	0.63600 0.11060 0.32860 -0.16000
C 	C 	0.77260 0.71300 0.54730 -0.02300
C 	C 	0.68120 0.15430 0.06300 0.27300
C 	C 	0.75060 0.92100 0.49150 -0.01900
O 	O 	0.46670 0.89000 0.07260 -0.17000
O 	O 	0.05590 0.53060 0.42890 -0.17400
O 	O 	0.46670 0.84480 0.17210 -0.16500
C 	C 	0.81280 0.37630 0.42070 0.27800
C 	C 	0.92180 0.45320 0.39610 -0.00900
H 	H 	0.93570 0.47190 0.43850 0.08600
O 	O 	0.65260 0.70590 0.33900 -0.19600
C 	C 	0.58810 0.02630 0.09750 -0.02100
H 	H 	0.56870 0.01780 0.05560 0.08900
O 	O 	0.82220 0.70520 0.65360 -0.19600
C 	C 	0.70690 0.71570 0.44360 -0.02000
C 	C 	0.84170 0.35650 0.31330 -0.00700
H 	H 	0.80170 0.31340 0.30040 0.08500
O 	O 	0.74000 0.07560 0.30510 -0.17300
C 	C 	0.55730 0.97230 0.14510 -0.02100
C 	C 	0.96230 0.48210 0.35160 -0.03000
C 	C 	0.58420 0.99520 0.20800 -0.01800
H 	H 	0.56160 0.96700 0.23980 0.08800
C 	C 	0.86640 0.33470 0.20310 0.28400
C 	C 	0.75820 0.06770 0.48920 0.27100
C 	C 	0.88410 0.38260 0.26990 -0.02700
C 	C 	0.67700 0.10920 0.17540 -0.02800
H 	H 	0.71740 0.15250 0.18520 0.09900
C 	C 	0.64780 0.09270 0.11300 -0.01500
C 	C 	0.73600 0.64540 0.49620 -0.01900
H 	H 	0.73130 0.55310 0.49760 0.09400
C 	C 	0.64460 0.05980 0.22340 -0.00500
C 	C 	0.94340 0.45060 0.28900 -0.00400
H 	H 	0.97000 0.47440 0.25960 0.08100
C 	C 	0.80500 0.64150 0.60590 0.28600
C 	C 	0.02700 0.54700 0.37290 0.27800
C 	C 	0.67640 0.08510 0.29050 0.25300
C 	C 	0.66640 0.64520 0.38850 0.28100
C 	C 	0.49400 0.89900 0.12920 0.27300
Th	Th	0.14813 0.80472 0.91576 0.04300
Th	Th	0.35952 0.79653 0.10121 0.04000
O 	O 	0.26440 0.71100 0.42170 -0.16000
O 	O 	0.16520 0.88280 0.02150 -0.16500
O 	O 	0.10950 0.88470 0.34070 -0.17500
O 	O 	0.24660 0.85880 0.10150 -0.16700
O 	O 	0.94680 0.11600 0.16550 -0.17000
O 	O 	0.35380 0.02730 0.10100 -0.16100
C 	C 	0.22050 0.35130 0.95530 -0.01600
H 	H 	0.19650 0.39690 0.92150 0.08900
O 	O 	0.17260 0.73500 0.30720 -0.16800
C 	C 	0.28580 0.35360 0.05870 -0.01700
H 	H 	0.30530 0.40080 0.09410 0.09000
O 	O 	0.18900 0.61620 0.97860 -0.15300
O 	O 	0.28550 0.63430 0.04360 -0.15600
O 	O 	0.34800 0.64710 0.49210 -0.16500
C 	C 	0.14040 0.89520 0.12420 -0.02700
O 	O 	0.18790 0.01560 0.89670 -0.16200
O 	O 	0.36400 0.61060 0.17140 -0.16000
C 	C 	0.22740 0.21300 0.95270 -0.02300
C 	C 	0.31880 0.65430 0.43700 0.27300
C 	C 	0.24940 0.42100 0.00850 -0.01900
O 	O 	0.53330 0.39000 0.42740 -0.17000
O 	O 	0.94410 0.03060 0.07110 -0.17400
O 	O 	0.53330 0.34480 0.32790 -0.16500
C 	C 	0.18720 0.87630 0.07930 0.27800
C 	C 	0.07820 0.95320 0.10390 -0.00900
H 	H 	0.06430 0.97190 0.06150 0.08500
O 	O 	0.34740 0.20590 0.16100 -0.19600
C 	C 	0.41190 0.52630 0.40250 -0.02100
H 	H 	0.43130 0.51780 0.44440 0.08900
O 	O 	0.17780 0.20520 0.84640 -0.19600
C 	C 	0.29310 0.21570 0.05640 -0.02000
C 	C 	0.15830 0.85650 0.18670 -0.00600
H 	H 	0.19830 0.81340 0.19960 0.08500
O 	O 	0.26000 0.57560 0.19490 -0.17300
C 	C 	0.44270 0.47230 0.35490 -0.02100
C 	C 	0.03770 0.98210 0.14840 -0.03200
C 	C 	0.41580 0.49520 0.29200 -0.01800
H 	H 	0.43840 0.46700 0.26020 0.08800
C 	C 	0.13360 0.83470 0.29690 0.28400
C 	C 	0.24180 0.56770 0.01080 0.27000
C 	C 	0.11590 0.88260 0.23010 -0.02800
C 	C 	0.32300 0.60920 0.32460 -0.02800
H 	H 	0.28260 0.65250 0.31480 0.09900
C 	C 	0.35220 0.59270 0.38700 -0.01500
C 	C 	0.26400 0.14540 0.00380 -0.01900
H 	H 	0.26870 0.05310 0.00240 0.09500
C 	C 	0.35540 0.55980 0.27660 -0.00500
C 	C 	0.05660 0.95060 0.21100 -0.00400
H 	H 	0.03000 0.97440 0.24040 0.08100
C 	C 	0.19500 0.14150 0.89410 0.28600
C 	C 	0.97300 0.04700 0.12710 0.27900
C 	C 	0.32360 0.58510 0.20950 0.25300
C 	C 	0.33360 0.14520 0.11150 0.28100
C 	C 	0.50600 0.39900 0.37080 0.27300
