data_crystal

_cell_length_a 43.72470
_cell_length_b 12.93620
_cell_length_c 8.49650
_cell_angle_alpha 90.00000
_cell_angle_beta  94.33340
_cell_angle_gamma 90.00000

_symmetry_space_group_name_	'P 1'
_symmetry_space_group_name_H-M	'P 1'

loop_
_symmetry_equiv_pos_as_xyz
  x,y,z

loop_
_atom_site_label
_atom_site_type_symbol
_atom_site_fract_x
_atom_site_fract_y
_atom_site_fract_z
_atom_site_charge
O 	O 	0.44640 0.58850 0.79470 -0.50100
O 	O 	0.02794 0.95660 0.50240 -0.72800
O 	O 	0.05478 0.94390 0.72880 -0.51900
O 	O 	0.46954 0.52010 0.00540 -0.60200
O 	O 	0.25330 0.11980 0.35680 -0.15700
O 	O 	0.24718 0.34400 0.21550 -0.15500
O 	O 	0.19737 0.38840 0.34140 -0.18200
O 	O 	0.30461 0.07510 0.24460 -0.17400
C 	C 	0.22501 0.14740 0.42140 -0.18700
H 	H 	0.20770 0.12690 0.34780 0.09000
H 	H 	0.22440 0.22230 0.43810 0.11200
H 	H 	0.22350 0.11180 0.52240 0.09200
C 	C 	0.16967 0.40930 0.41590 -0.13400
H 	H 	0.15620 0.45290 0.34660 0.05900
H 	H 	0.17470 0.44520 0.51610 0.07100
H 	H 	0.15930 0.34400 0.43590 0.06400
C 	C 	0.27425 0.31670 0.14160 -0.18800
H 	H 	0.27350 0.34700 0.03570 0.09400
H 	H 	0.27560 0.24130 0.13360 0.11300
H 	H 	0.29230 0.34300 0.20470 0.09100
C 	C 	0.13490 0.84950 0.50520 -0.06700
C 	C 	0.05364 0.93630 0.58230 0.42900
C 	C 	0.31476 0.72090 0.00350 -0.10500
H 	H 	0.30040 0.76390 0.94490 0.08900
C 	C 	0.18609 0.77980 0.54870 -0.13000
H 	H 	0.20190 0.75310 0.62030 0.09900
C 	C 	0.10659 0.88100 0.57230 0.09600
H 	H 	0.10750 0.88620 0.68410 0.00400
C 	C 	0.15881 0.81130 0.60460 0.01600
H 	H 	0.15630 0.80660 0.71450 0.01900
C 	C 	0.34262 0.69770 0.94270 -0.01100
H 	H 	0.34700 0.72520 0.84310 0.02900
C 	C 	0.39346 0.61590 0.95500 0.07700
H 	H 	0.39500 0.64090 0.85080 0.01200
C 	C 	0.33146 0.05620 0.16570 -0.14600
H 	H 	0.32580 0.02440 0.06280 0.08100
H 	H 	0.34500 0.00940 0.22920 0.06800
H 	H 	0.34210 0.12160 0.15030 0.07200
C 	C 	0.07991 0.90320 0.49760 -0.32100
H 	H 	0.07760 0.89750 0.38580 0.11200
C 	C 	0.23657 0.94120 0.34910 -0.13600
H 	H 	0.21750 0.95870 0.38880 0.08200
C 	C 	0.41758 0.56820 0.02030 -0.29300
H 	H 	0.41720 0.53970 0.12310 0.13500
C 	C 	0.19078 0.78630 0.39220 0.08300
C 	C 	0.28599 0.99180 0.26390 0.09900
C 	C 	0.25639 0.62890 0.23640 0.02800
C 	C 	0.26242 0.52300 0.20280 -0.12200
H 	H 	0.28060 0.50530 0.15450 0.07800
C 	C 	0.30759 0.68190 0.14880 0.06500
C 	C 	0.36414 0.63540 0.02450 -0.04200
C 	C 	0.29276 0.89250 0.23290 -0.12500
H 	H 	0.31240 0.87640 0.19810 0.07800
C 	C 	0.13897 0.85210 0.34490 0.00700
H 	H 	0.12270 0.87470 0.27240 0.01600
C 	C 	0.32938 0.61710 0.22990 -0.10000
H 	H 	0.32500 0.58830 0.32860 0.06200
C 	C 	0.44591 0.55880 0.93160 0.44400
C 	C 	0.27134 0.81110 0.25090 0.03300
C 	C 	0.21449 0.47210 0.30980 0.11200
C 	C 	0.24259 0.83590 0.31430 0.03900
C 	C 	0.25711 0.01770 0.32770 0.10700
C 	C 	0.35687 0.59460 0.16910 -0.01200
H 	H 	0.37110 0.55070 0.22630 0.03200
C 	C 	0.20714 0.57190 0.33210 -0.13700
H 	H 	0.18780 0.58800 0.37020 0.08000
C 	C 	0.22096 0.75810 0.33220 -0.06700
C 	C 	0.22760 0.65460 0.29980 0.04300
C 	C 	0.24264 0.44700 0.23840 0.09500
C 	C 	0.16654 0.82180 0.29050 -0.12000
H 	H 	0.16910 0.82530 0.18060 0.06400
C 	C 	0.27804 0.70790 0.21420 -0.05500
H 	H 	0.48920 0.31460 0.83140 0.28400
O 	O 	0.52650 0.36760 0.69000 -0.47300
H 	H 	0.54550 0.34440 0.73850 0.17300
H 	H 	0.51880 0.31780 0.61520 -0.05300
O 	O 	0.55360 0.58850 0.70530 -0.50300
O 	O 	0.97206 0.95660 0.99760 -0.72100
O 	O 	0.94522 0.94390 0.77120 -0.51800
O 	O 	0.53046 0.52010 0.49460 -0.60300
O 	O 	0.74670 0.11980 0.14320 -0.15800
O 	O 	0.75282 0.34400 0.28450 -0.15600
O 	O 	0.80263 0.38840 0.15860 -0.18100
O 	O 	0.69539 0.07510 0.25540 -0.17500
C 	C 	0.77499 0.14740 0.07860 -0.18300
H 	H 	0.79230 0.12690 0.15220 0.08900
H 	H 	0.77560 0.22230 0.06190 0.11100
H 	H 	0.77650 0.11180 0.97760 0.09000
C 	C 	0.83033 0.40930 0.08410 -0.13800
H 	H 	0.84380 0.45290 0.15340 0.06000
H 	H 	0.82530 0.44520 0.98390 0.07200
H 	H 	0.84070 0.34400 0.06410 0.06500
C 	C 	0.72575 0.31670 0.35840 -0.18600
H 	H 	0.72650 0.34700 0.46430 0.09200
H 	H 	0.72440 0.24130 0.36640 0.11200
H 	H 	0.70770 0.34300 0.29530 0.09000
C 	C 	0.86510 0.84950 0.99480 -0.06200
C 	C 	0.94636 0.93630 0.91770 0.43400
C 	C 	0.68524 0.72090 0.49650 -0.11200
H 	H 	0.69960 0.76390 0.55510 0.09200
C 	C 	0.81391 0.77980 0.95130 -0.12100
H 	H 	0.79810 0.75310 0.87970 0.09700
C 	C 	0.89341 0.88100 0.92770 0.10200
H 	H 	0.89250 0.88620 0.81590 0.00200
C 	C 	0.84119 0.81130 0.89540 0.01000
H 	H 	0.84370 0.80660 0.78550 0.02100
C 	C 	0.65738 0.69770 0.55730 -0.00200
H 	H 	0.65300 0.72520 0.65690 0.02600
C 	C 	0.60654 0.61590 0.54500 0.08500
H 	H 	0.60500 0.64090 0.64920 0.00900
C 	C 	0.66854 0.05620 0.33430 -0.14400
H 	H 	0.67420 0.02440 0.43720 0.07900
H 	H 	0.65500 0.00940 0.27080 0.06600
H 	H 	0.65790 0.12160 0.34970 0.07000
C 	C 	0.92009 0.90320 0.00240 -0.33000
H 	H 	0.92240 0.89750 0.11420 0.11500
C 	C 	0.76343 0.94120 0.15090 -0.13600
H 	H 	0.78250 0.95870 0.11120 0.08100
C 	C 	0.58242 0.56820 0.47970 -0.30000
H 	H 	0.58280 0.53970 0.37690 0.13700
C 	C 	0.80922 0.78630 0.10780 0.07500
C 	C 	0.71401 0.99180 0.23610 0.09900
C 	C 	0.74361 0.62890 0.26360 0.02900
C 	C 	0.73758 0.52300 0.29720 -0.12400
H 	H 	0.71940 0.50530 0.34550 0.07800
C 	C 	0.69241 0.68190 0.35120 0.06900
C 	C 	0.63586 0.63540 0.47550 -0.05000
C 	C 	0.70724 0.89250 0.26710 -0.12600
H 	H 	0.68760 0.87640 0.30190 0.07800
C 	C 	0.86103 0.85210 0.15510 -0.00100
H 	H 	0.87730 0.87470 0.22760 0.01900
C 	C 	0.67062 0.61710 0.27010 -0.10500
H 	H 	0.67500 0.58830 0.17140 0.06300
C 	C 	0.55409 0.55880 0.56840 0.44800
C 	C 	0.72866 0.81110 0.24910 0.03400
C 	C 	0.78551 0.47210 0.19020 0.11100
C 	C 	0.75741 0.83590 0.18570 0.03700
C 	C 	0.74289 0.01770 0.17230 0.10800
C 	C 	0.64313 0.59460 0.33090 -0.00600
H 	H 	0.62890 0.55070 0.27370 0.03000
C 	C 	0.79286 0.57190 0.16790 -0.13600
H 	H 	0.81220 0.58800 0.12980 0.07900
C 	C 	0.77904 0.75810 0.16780 -0.06400
C 	C 	0.77240 0.65460 0.20020 0.04100
C 	C 	0.75736 0.44700 0.26160 0.09500
C 	C 	0.83346 0.82180 0.20950 -0.11400
H 	H 	0.83090 0.82530 0.31940 0.06300
C 	C 	0.72196 0.70790 0.28580 -0.05700
H 	H 	0.51080 0.31460 0.66860 0.28400
O 	O 	0.47350 0.36760 0.81000 -0.47300
H 	H 	0.45450 0.34440 0.76150 0.17300
H 	H 	0.48120 0.31780 0.88480 -0.05400
O 	O 	0.55360 0.41150 0.20530 -0.50200
O 	O 	0.97206 0.04340 0.49760 -0.72100
O 	O 	0.94522 0.05610 0.27120 -0.51600
O 	O 	0.53046 0.47990 0.99460 -0.60200
O 	O 	0.74670 0.88020 0.64320 -0.15700
O 	O 	0.75282 0.65600 0.78450 -0.15500
O 	O 	0.80263 0.61160 0.65860 -0.18200
O 	O 	0.69539 0.92490 0.75540 -0.17400
C 	C 	0.77499 0.85260 0.57860 -0.18700
H 	H 	0.79230 0.87310 0.65220 0.09000
H 	H 	0.77560 0.77770 0.56190 0.11200
H 	H 	0.77650 0.88820 0.47760 0.09200
C 	C 	0.83033 0.59070 0.58410 -0.13500
H 	H 	0.84380 0.54710 0.65340 0.06000
H 	H 	0.82530 0.55480 0.48390 0.07100
H 	H 	0.84070 0.65600 0.56410 0.06400
C 	C 	0.72575 0.68330 0.85840 -0.18800
H 	H 	0.72650 0.65300 0.96430 0.09400
H 	H 	0.72440 0.75870 0.86640 0.11300
H 	H 	0.70770 0.65700 0.79530 0.09100
C 	C 	0.86510 0.15050 0.49480 -0.06600
C 	C 	0.94636 0.06370 0.41770 0.42800
C 	C 	0.68524 0.27910 0.99650 -0.10600
H 	H 	0.69960 0.23610 0.05510 0.08900
C 	C 	0.81391 0.22020 0.45130 -0.13000
H 	H 	0.79810 0.24690 0.37970 0.09900
C 	C 	0.89341 0.11900 0.42770 0.09500
H 	H 	0.89250 0.11380 0.31590 0.00400
C 	C 	0.84119 0.18870 0.39540 0.01500
H 	H 	0.84370 0.19340 0.28550 0.02000
C 	C 	0.65738 0.30230 0.05730 -0.01000
H 	H 	0.65300 0.27480 0.15690 0.02900
C 	C 	0.60654 0.38410 0.04500 0.07700
H 	H 	0.60500 0.35910 0.14920 0.01200
C 	C 	0.66854 0.94380 0.83430 -0.14600
H 	H 	0.67420 0.97560 0.93720 0.08100
H 	H 	0.65500 0.99060 0.77080 0.06800
H 	H 	0.65790 0.87840 0.84970 0.07200
C 	C 	0.92009 0.09680 0.50240 -0.31900
H 	H 	0.92240 0.10250 0.61420 0.11200
C 	C 	0.76343 0.05880 0.65090 -0.13600
H 	H 	0.78250 0.04130 0.61120 0.08200
C 	C 	0.58242 0.43180 0.97970 -0.29300
H 	H 	0.58280 0.46030 0.87690 0.13500
C 	C 	0.80922 0.21370 0.60780 0.08300
C 	C 	0.71401 0.00820 0.73610 0.09900
C 	C 	0.74361 0.37110 0.76360 0.02800
C 	C 	0.73758 0.47700 0.79720 -0.12200
H 	H 	0.71940 0.49470 0.84550 0.07800
C 	C 	0.69241 0.31810 0.85120 0.06500
C 	C 	0.63586 0.36460 0.97550 -0.04200
C 	C 	0.70724 0.10750 0.76710 -0.12500
H 	H 	0.68760 0.12360 0.80190 0.07800
C 	C 	0.86103 0.14790 0.65510 0.00700
H 	H 	0.87730 0.12530 0.72760 0.01700
C 	C 	0.67062 0.38290 0.77010 -0.10000
H 	H 	0.67500 0.41170 0.67140 0.06200
C 	C 	0.55409 0.44120 0.06840 0.44400
C 	C 	0.72866 0.18890 0.74910 0.03300
C 	C 	0.78551 0.52790 0.69020 0.11200
C 	C 	0.75741 0.16410 0.68570 0.03900
C 	C 	0.74289 0.98230 0.67230 0.10700
C 	C 	0.64313 0.40540 0.83090 -0.01200
H 	H 	0.62890 0.44930 0.77370 0.03200
C 	C 	0.79286 0.42810 0.66790 -0.13700
H 	H 	0.81220 0.41200 0.62980 0.08000
C 	C 	0.77904 0.24190 0.66780 -0.06700
C 	C 	0.77240 0.34540 0.70020 0.04300
C 	C 	0.75736 0.55300 0.76160 0.09500
C 	C 	0.83346 0.17820 0.70950 -0.12000
H 	H 	0.83090 0.17470 0.81940 0.06400
C 	C 	0.72196 0.29210 0.78580 -0.05500
H 	H 	0.51080 0.68540 0.16860 0.28400
O 	O 	0.47350 0.63240 0.31000 -0.47300
H 	H 	0.45450 0.65560 0.26150 0.17300
H 	H 	0.48120 0.68220 0.38480 -0.05300
O 	O 	0.44640 0.41150 0.29470 -0.50300
O 	O 	0.02794 0.04340 0.00240 -0.72800
O 	O 	0.05478 0.05610 0.22880 -0.52100
O 	O 	0.46954 0.47990 0.50540 -0.60300
O 	O 	0.25330 0.88020 0.85680 -0.15800
O 	O 	0.24718 0.65600 0.71550 -0.15600
O 	O 	0.19737 0.61160 0.84140 -0.18100
O 	O 	0.30461 0.92490 0.74460 -0.17500
C 	C 	0.22501 0.85260 0.92140 -0.18400
H 	H 	0.20770 0.87310 0.84780 0.08900
H 	H 	0.22440 0.77770 0.93810 0.11100
H 	H 	0.22350 0.88820 0.02240 0.09000
C 	C 	0.16967 0.59070 0.91590 -0.13700
H 	H 	0.15620 0.54710 0.84660 0.05900
H 	H 	0.17470 0.55480 0.01610 0.07200
H 	H 	0.15930 0.65600 0.93590 0.06400
C 	C 	0.27425 0.68330 0.64160 -0.18600
H 	H 	0.27350 0.65300 0.53570 0.09200
H 	H 	0.27560 0.75870 0.63360 0.11200
H 	H 	0.29230 0.65700 0.70470 0.09000
C 	C 	0.13490 0.15050 0.00520 -0.06300
C 	C 	0.05364 0.06370 0.08230 0.43500
C 	C 	0.31476 0.27910 0.50350 -0.11200
H 	H 	0.30040 0.23610 0.44490 0.09200
C 	C 	0.18609 0.22020 0.04870 -0.12100
H 	H 	0.20190 0.24690 0.12030 0.09700
C 	C 	0.10659 0.11900 0.07230 0.10300
H 	H 	0.10750 0.11380 0.18410 0.00100
C 	C 	0.15881 0.18870 0.10460 0.01100
H 	H 	0.15630 0.19340 0.21450 0.02100
C 	C 	0.34262 0.30230 0.44270 -0.00200
H 	H 	0.34700 0.27480 0.34310 0.02600
C 	C 	0.39346 0.38410 0.45500 0.08500
H 	H 	0.39500 0.35910 0.35080 0.00900
C 	C 	0.33146 0.94380 0.66570 -0.14400
H 	H 	0.32580 0.97560 0.56280 0.07900
H 	H 	0.34500 0.99060 0.72920 0.06600
H 	H 	0.34210 0.87840 0.65030 0.07000
C 	C 	0.07991 0.09680 0.99760 -0.33300
H 	H 	0.07760 0.10250 0.88580 0.11500
C 	C 	0.23657 0.05880 0.84910 -0.13600
H 	H 	0.21750 0.04130 0.88880 0.08100
C 	C 	0.41758 0.43180 0.52030 -0.30000
H 	H 	0.41720 0.46030 0.62310 0.13700
C 	C 	0.19078 0.21370 0.89220 0.07500
C 	C 	0.28599 0.00820 0.76390 0.09900
C 	C 	0.25639 0.37110 0.73640 0.02900
C 	C 	0.26242 0.47700 0.70280 -0.12400
H 	H 	0.28060 0.49470 0.65450 0.07800
C 	C 	0.30759 0.31810 0.64880 0.06900
C 	C 	0.36414 0.36460 0.52450 -0.05000
C 	C 	0.29276 0.10750 0.73290 -0.12600
H 	H 	0.31240 0.12360 0.69810 0.07900
C 	C 	0.13897 0.14790 0.84490 -0.00100
H 	H 	0.12270 0.12530 0.77240 0.01900
C 	C 	0.32938 0.38290 0.72990 -0.10500
H 	H 	0.32500 0.41170 0.82860 0.06300
C 	C 	0.44591 0.44120 0.43160 0.44800
C 	C 	0.27134 0.18890 0.75090 0.03400
C 	C 	0.21449 0.52790 0.80980 0.11100
C 	C 	0.24259 0.16410 0.81430 0.03700
C 	C 	0.25711 0.98230 0.82770 0.10800
C 	C 	0.35687 0.40540 0.66910 -0.00600
H 	H 	0.37110 0.44930 0.72630 0.03000
C 	C 	0.20714 0.42810 0.83210 -0.13600
H 	H 	0.18780 0.41200 0.87020 0.07900
C 	C 	0.22096 0.24190 0.83220 -0.06400
C 	C 	0.22760 0.34540 0.79980 0.04100
C 	C 	0.24264 0.55300 0.73840 0.09500
C 	C 	0.16654 0.17820 0.79050 -0.11400
H 	H 	0.16910 0.17470 0.68060 0.06300
C 	C 	0.27804 0.29210 0.71420 -0.05700
H 	H 	0.48920 0.68540 0.33140 0.28400
O 	O 	0.52650 0.63240 0.19000 -0.47300
H 	H 	0.54550 0.65560 0.23850 0.17300
H 	H 	0.51880 0.68220 0.11520 -0.05400
Pr	Pr	0.00000 0.00530 0.75000 1.98200
Pr	Pr	0.00000 0.99470 0.25000 1.98200
Pr	Pr	0.50000 0.53222 0.75000 2.07800
O 	O 	0.50000 0.36830 0.75000 -0.42600
Pr	Pr	0.50000 0.46778 0.25000 2.07800
O 	O 	0.50000 0.63170 0.25000 -0.42600
