data_crystal

_cell_length_a 10.20890
_cell_length_b 11.47900
_cell_length_c 11.66750
_cell_angle_alpha 112.68500
_cell_angle_beta  103.95200
_cell_angle_gamma 94.64400

_symmetry_space_group_name_	'P 1'
_symmetry_space_group_name_H-M	'P 1'

loop_
_symmetry_equiv_pos_as_xyz
  x,y,z

loop_
_atom_site_label
_atom_site_type_symbol
_atom_site_fract_x
_atom_site_fract_y
_atom_site_fract_z
_atom_site_charge
C 	C 	0.50690 0.20580 0.15980 -0.90400
H 	H 	0.59650 0.20210 0.20700 0.26100
H 	H 	0.43780 0.15570 0.17400 0.28700
H 	H 	0.49490 0.29360 0.18960 0.28200
C 	C 	0.49370 0.15220 0.01570 0.42900
C 	C 	0.36650 0.15040 0.93090 -0.32800
C 	C 	0.34550 0.11820 0.79600 0.31200
C 	C 	0.21570 0.13890 0.71800 -0.77700
H 	H 	0.21690 0.11280 0.62960 0.24000
H 	H 	0.21050 0.22830 0.75460 0.24100
H 	H 	0.13720 0.08860 0.72010 0.22400
C 	C 	0.43250 0.03370 0.60340 0.07000
C 	C 	0.47890 0.90460 0.55220 -0.13200
H 	H 	0.57100 0.91230 0.60540 0.04500
H 	H 	0.41800 0.83970 0.55880 0.04300
C 	C 	0.52190 0.13790 0.58860 -0.14000
H 	H 	0.48700 0.21720 0.61660 0.05300
H 	H 	0.61550 0.15440 0.64340 0.05600
C 	C 	0.88300 0.99850 0.79100 -0.92300
H 	H 	0.81930 0.04120 0.83280 0.28600
H 	H 	0.84080 0.95820 0.69850 0.28200
H 	H 	0.96390 0.06030 0.81130 0.27200
C 	C 	0.92240 0.89800 0.83840 0.46000
C 	C 	0.01570 0.82420 0.78800 -0.38300
C 	C 	0.04030 0.71270 0.80840 0.32500
C 	C 	0.12030 0.62460 0.73160 -0.78900
H 	H 	0.12820 0.55390 0.75590 0.24700
H 	H 	0.21050 0.67160 0.74980 0.22800
H 	H 	0.07320 0.59230 0.64040 0.23900
C 	C 	0.00420 0.56630 0.91480 0.06800
C 	C 	0.12090 0.60220 0.04100 -0.13700
H 	H 	0.20720 0.63210 0.03090 0.05600
H 	H 	0.10280 0.67150 0.11190 0.05200
C 	C 	0.86750 0.51430 0.92650 -0.13400
H 	H 	0.84260 0.58120 0.99430 0.05600
H 	H 	0.79570 0.48960 0.84530 0.05500
N 	N 	0.43790 0.07290 0.73960 -0.28100
H 	H 	0.51110 0.06510 0.78890 0.14600
N 	N 	0.98820 0.67920 0.88630 -0.28000
H 	H 	0.93910 0.72910 0.92500 0.15300
O 	O 	0.59180 0.11140 0.97580 -0.40300
O 	O 	0.86750 0.88140 0.91800 -0.39100
Ag	Ag	0.22681 0.96111 0.91920 0.53400
C 	C 	0.49310 0.79420 0.84020 -0.90400
H 	H 	0.40350 0.79790 0.79300 0.26100
H 	H 	0.56220 0.84430 0.82600 0.28700
H 	H 	0.50510 0.70640 0.81040 0.28200
C 	C 	0.50630 0.84780 0.98430 0.42900
C 	C 	0.63350 0.84960 0.06910 -0.32800
C 	C 	0.65450 0.88180 0.20400 0.31200
C 	C 	0.78430 0.86110 0.28200 -0.77700
H 	H 	0.78310 0.88720 0.37040 0.24000
H 	H 	0.78950 0.77170 0.24540 0.24100
H 	H 	0.86280 0.91140 0.27990 0.22400
C 	C 	0.56750 0.96630 0.39660 0.07000
C 	C 	0.52110 0.09540 0.44780 -0.13200
H 	H 	0.42900 0.08770 0.39460 0.04500
H 	H 	0.58200 0.16030 0.44120 0.04300
C 	C 	0.47810 0.86210 0.41140 -0.14000
H 	H 	0.51300 0.78280 0.38340 0.05300
H 	H 	0.38450 0.84560 0.35660 0.05600
C 	C 	0.11700 0.00150 0.20900 -0.92300
H 	H 	0.18070 0.95880 0.16720 0.28600
H 	H 	0.15920 0.04180 0.30150 0.28200
H 	H 	0.03610 0.93970 0.18870 0.27200
C 	C 	0.07760 0.10200 0.16160 0.46000
C 	C 	0.98430 0.17580 0.21200 -0.38300
C 	C 	0.95970 0.28730 0.19160 0.32500
C 	C 	0.87970 0.37540 0.26840 -0.78900
H 	H 	0.87180 0.44610 0.24410 0.24700
H 	H 	0.78950 0.32840 0.25020 0.22800
H 	H 	0.92680 0.40770 0.35960 0.23900
C 	C 	0.99580 0.43370 0.08520 0.06800
C 	C 	0.87910 0.39780 0.95900 -0.13700
H 	H 	0.79280 0.36790 0.96910 0.05600
H 	H 	0.89720 0.32850 0.88810 0.05200
C 	C 	0.13250 0.48570 0.07350 -0.13400
H 	H 	0.15740 0.41880 0.00570 0.05600
H 	H 	0.20430 0.51040 0.15470 0.05500
N 	N 	0.56210 0.92710 0.26040 -0.28100
H 	H 	0.48890 0.93490 0.21110 0.14600
N 	N 	0.01180 0.32080 0.11370 -0.28000
H 	H 	0.06090 0.27090 0.07500 0.15300
O 	O 	0.40820 0.88860 0.02420 -0.40300
O 	O 	0.13250 0.11860 0.08200 -0.39100
Ag	Ag	0.77319 0.03889 0.08080 0.53400
