data_crystal

_cell_length_a 12.83450
_cell_length_b 12.83450
_cell_length_c 34.87400
_cell_angle_alpha 82.50040
_cell_angle_beta  82.50040
_cell_angle_gamma 63.72600

_symmetry_space_group_name_	'P 1'
_symmetry_space_group_name_H-M	'P 1'

loop_
_symmetry_equiv_pos_as_xyz
  x,y,z

loop_
_atom_site_label
_atom_site_type_symbol
_atom_site_fract_x
_atom_site_fract_y
_atom_site_fract_z
_atom_site_charge
Gd	Gd	0.20377 0.36086 0.05860 1.54300
Gd	Gd	0.13073 0.34827 0.18443 1.50200
Gd	Gd	0.36086 0.20377 0.55860 1.54300
Gd	Gd	0.34827 0.13073 0.68444 1.50100
H 	H 	0.24360 0.43580 0.74350 0.00200
H 	H 	0.44230 0.09710 0.19130 -0.01700
H 	H 	0.58970 0.10870 0.08420 0.01200
H 	H 	0.00490 0.09910 0.17400 0.00100
H 	H 	0.20450 0.66350 0.17980 0.02500
H 	H 	0.32870 0.61450 0.06980 0.00400
H 	H 	0.12910 0.04330 0.06410 -0.00800
H 	H 	0.06110 0.90150 0.06780 0.10000
H 	H 	0.76010 0.60450 0.16380 -0.00400
H 	H 	0.86050 0.63490 0.05200 -0.01500
H 	H 	0.13270 0.61370 0.93750 0.01700
H 	H 	0.57900 0.75660 0.15150 0.11000
H 	H 	0.39090 0.75770 0.06930 0.10600
H 	H 	0.54890 0.32930 0.78760 0.02000
H 	H 	0.47920 0.50640 0.81370 0.09600
H 	H 	0.48840 0.61220 0.90560 0.10200
H 	H 	0.45400 0.52300 0.96450 0.02200
H 	H 	0.61820 0.95120 0.20950 0.07800
H 	H 	0.43580 0.24360 0.24350 0.00300
H 	H 	0.09710 0.44230 0.69130 -0.01700
H 	H 	0.10870 0.58970 0.58420 0.01200
H 	H 	0.09910 0.00490 0.67400 0.00100
H 	H 	0.66350 0.20450 0.67980 0.02500
H 	H 	0.61450 0.32870 0.56980 0.00400
H 	H 	0.04330 0.12910 0.56410 -0.00800
H 	H 	0.90150 0.06110 0.56780 0.10000
H 	H 	0.60450 0.76010 0.66380 -0.00400
H 	H 	0.63490 0.86050 0.55200 -0.01500
H 	H 	0.61370 0.13270 0.43750 0.01700
H 	H 	0.75660 0.57900 0.65150 0.11000
H 	H 	0.75770 0.39090 0.56930 0.10600
H 	H 	0.32930 0.54890 0.28760 0.02000
H 	H 	0.50640 0.47920 0.31370 0.09600
H 	H 	0.61220 0.48840 0.40560 0.10200
H 	H 	0.52300 0.45400 0.46450 0.02200
H 	H 	0.95120 0.61820 0.70950 0.07800
C 	C 	0.21770 0.53130 0.12494 0.46700
C 	C 	0.25800 0.62520 0.12474 -0.19100
C 	C 	0.11460 0.17980 0.11935 0.49500
C 	C 	0.07260 0.08800 0.11909 -0.20800
C 	C 	0.43980 0.24540 0.74768 0.38700
C 	C 	0.40280 0.36140 0.76311 -0.16000
C 	C 	0.70290 0.94750 0.15640 0.11900
C 	C 	0.61870 0.77770 0.09419 0.13300
C 	C 	0.29200 0.44980 0.75765 0.09700
C 	C 	0.83100 0.60280 0.10862 -0.22100
C 	C 	0.50650 0.07070 0.17326 0.12500
C 	C 	0.49760 0.11880 0.13523 -0.20200
C 	C 	0.59540 0.07640 0.10980 0.12100
C 	C 	0.99540 0.92120 0.12335 0.12400
C 	C 	0.33110 0.79330 0.12361 0.12400
C 	C 	0.01660 0.05900 0.15224 0.12900
C 	C 	0.94920 0.50780 0.11483 0.50100
C 	C 	0.33170 0.65850 0.88801 0.11800
C 	C 	0.32150 0.57310 0.79195 0.11200
C 	C 	0.38530 0.21330 0.12201 0.46300
C 	C 	0.24100 0.68340 0.15720 0.10500
C 	C 	0.31510 0.65370 0.09195 0.12200
C 	C 	0.09050 0.02730 0.08694 0.12600
C 	C 	0.05060 0.94280 0.08910 -0.18100
C 	C 	0.26230 0.49610 0.99439 0.33900
C 	C 	0.28810 0.55570 0.95752 -0.14300
C 	C 	0.74530 0.63970 0.13876 0.14000
C 	C 	0.80310 0.65850 0.07244 0.13800
C 	C 	0.20640 0.61120 0.93103 0.08900
C 	C 	0.63740 0.72960 0.13154 -0.19800
C 	C 	0.35210 0.73850 0.09143 -0.19500
C 	C 	0.47330 0.38530 0.78389 0.08700
C 	C 	0.43300 0.49060 0.79905 -0.16100
C 	C 	0.41690 0.61010 0.91234 -0.16900
C 	C 	0.39580 0.55760 0.94741 0.08600
C 	C 	0.61030 0.98430 0.18405 -0.18200
C 	C 	0.53130 0.21770 0.62494 0.46700
C 	C 	0.62520 0.25800 0.62474 -0.19100
C 	C 	0.17980 0.11460 0.61935 0.49500
C 	C 	0.08800 0.07260 0.61909 -0.20800
C 	C 	0.24540 0.43980 0.24768 0.38700
C 	C 	0.36140 0.40280 0.26311 -0.16000
C 	C 	0.94750 0.70290 0.65640 0.11900
C 	C 	0.77770 0.61870 0.59419 0.13300
C 	C 	0.44980 0.29200 0.25765 0.09700
C 	C 	0.60280 0.83100 0.60862 -0.22100
C 	C 	0.07070 0.50650 0.67326 0.12600
C 	C 	0.11880 0.49760 0.63523 -0.20200
C 	C 	0.07640 0.59540 0.60980 0.12100
C 	C 	0.92120 0.99540 0.62335 0.12400
C 	C 	0.79330 0.33110 0.62361 0.12400
C 	C 	0.05900 0.01660 0.65224 0.12900
C 	C 	0.50780 0.94920 0.61483 0.50100
C 	C 	0.65850 0.33170 0.38801 0.11800
C 	C 	0.57310 0.32150 0.29195 0.11200
C 	C 	0.21330 0.38530 0.62201 0.46300
C 	C 	0.68340 0.24100 0.65720 0.10500
C 	C 	0.65370 0.31510 0.59195 0.12200
C 	C 	0.02730 0.09050 0.58694 0.12600
C 	C 	0.94280 0.05060 0.58910 -0.18100
C 	C 	0.49610 0.26230 0.49439 0.33900
C 	C 	0.55570 0.28810 0.45752 -0.14300
C 	C 	0.63970 0.74530 0.63876 0.14000
C 	C 	0.65850 0.80310 0.57244 0.13800
C 	C 	0.61120 0.20640 0.43103 0.08900
C 	C 	0.72960 0.63740 0.63154 -0.19800
C 	C 	0.73850 0.35210 0.59143 -0.19500
C 	C 	0.38530 0.47330 0.28389 0.08700
C 	C 	0.49060 0.43300 0.29905 -0.16100
C 	C 	0.61010 0.41690 0.41234 -0.16900
C 	C 	0.55760 0.39580 0.44741 0.08600
C 	C 	0.98430 0.61030 0.68405 -0.18200
S 	S 	0.83523 0.83465 0.17277 -0.03200
S 	S 	0.37265 0.90797 0.12679 -0.02200
S 	S 	0.25160 0.71668 0.80748 -0.01700
S 	S 	0.36339 0.72381 0.84171 -0.02400
S 	S 	0.48630 0.89476 0.07967 -0.03800
S 	S 	0.94962 0.80732 0.12547 -0.01000
S 	S 	0.83465 0.83523 0.67277 -0.03200
S 	S 	0.90797 0.37265 0.62679 -0.02200
S 	S 	0.71668 0.25160 0.30748 -0.01700
S 	S 	0.72381 0.36339 0.34171 -0.02400
S 	S 	0.89476 0.48630 0.57967 -0.03800
S 	S 	0.80732 0.94962 0.62547 -0.01000
N 	N 	0.25126 0.55406 0.77166 -0.15100
N 	N 	0.22550 0.66290 0.89585 -0.13600
N 	N 	0.97770 0.97590 0.15516 -0.14300
N 	N 	0.69880 0.74440 0.06463 -0.16300
N 	N 	0.27620 0.76980 0.15706 -0.13500
N 	N 	0.69830 0.99190 0.11953 -0.14200
N 	N 	0.55406 0.25126 0.27166 -0.15100
N 	N 	0.66290 0.22550 0.39585 -0.13600
N 	N 	0.97590 0.97770 0.65516 -0.14300
N 	N 	0.74440 0.69880 0.56463 -0.16300
N 	N 	0.76980 0.27620 0.65706 -0.13500
N 	N 	0.99190 0.69830 0.61953 -0.14200
O 	O 	0.10329 0.21849 0.15139 -0.48600
O 	O 	0.36314 0.22954 0.73376 -0.44800
O 	O 	0.22730 0.49070 0.09354 -0.45200
O 	O 	0.15746 0.21086 0.08833 -0.48400
O 	O 	0.17592 0.50272 0.15682 -0.43900
O 	O 	0.34420 0.42660 0.01406 -0.35600
O 	O 	0.37984 0.23924 0.08587 -0.44600
O 	O 	0.30416 0.26056 0.14684 -0.47700
O 	O 	0.01781 0.47121 0.08606 -0.48200
O 	O 	0.97028 0.46988 0.14929 -0.47000
O 	O 	0.15886 0.51266 0.00486 -0.39800
O 	O 	0.54356 0.17016 0.75037 -0.28300
O 	O 	0.21849 0.10329 0.65139 -0.48600
O 	O 	0.22954 0.36314 0.23376 -0.44800
O 	O 	0.49070 0.22730 0.59354 -0.45200
O 	O 	0.21086 0.15746 0.58833 -0.48400
O 	O 	0.50272 0.17592 0.65682 -0.43900
O 	O 	0.42660 0.34420 0.51406 -0.35600
O 	O 	0.23924 0.37984 0.58587 -0.44600
O 	O 	0.26056 0.30416 0.64684 -0.47700
O 	O 	0.47121 0.01781 0.58606 -0.48200
O 	O 	0.46988 0.97028 0.64929 -0.47000
O 	O 	0.51266 0.15886 0.50486 -0.39800
O 	O 	0.17016 0.54356 0.25037 -0.28300
Gd	Gd	0.63914 0.79623 0.44140 1.54400
Gd	Gd	0.65173 0.86927 0.31557 1.50300
Gd	Gd	0.79623 0.63914 0.94140 1.54400
Gd	Gd	0.86927 0.65173 0.81557 1.50300
H 	H 	0.56420 0.75640 0.75650 0.00300
H 	H 	0.90290 0.55770 0.30870 -0.01700
H 	H 	0.89130 0.41030 0.41580 0.01200
H 	H 	0.90090 0.99510 0.32600 0.00100
H 	H 	0.33650 0.79550 0.32020 0.02500
H 	H 	0.38550 0.67130 0.43020 0.00400
H 	H 	0.95670 0.87090 0.43590 -0.00800
H 	H 	0.09850 0.93890 0.43220 0.10000
H 	H 	0.39550 0.23990 0.33620 -0.00400
H 	H 	0.36510 0.13950 0.44800 -0.01500
H 	H 	0.38630 0.86730 0.56250 0.01700
H 	H 	0.24340 0.42100 0.34850 0.11000
H 	H 	0.24230 0.60910 0.43070 0.10600
H 	H 	0.67070 0.45110 0.71240 0.02000
H 	H 	0.49360 0.52080 0.68630 0.09600
H 	H 	0.38780 0.51160 0.59440 0.10200
H 	H 	0.47700 0.54600 0.53550 0.02200
H 	H 	0.04880 0.38180 0.29050 0.07800
H 	H 	0.75640 0.56420 0.25650 0.00300
H 	H 	0.55770 0.90290 0.80870 -0.01700
H 	H 	0.41030 0.89130 0.91580 0.01200
H 	H 	0.99510 0.90090 0.82600 0.00100
H 	H 	0.79550 0.33650 0.82020 0.02500
H 	H 	0.67130 0.38550 0.93020 0.00400
H 	H 	0.87090 0.95670 0.93590 -0.00800
H 	H 	0.93890 0.09850 0.93220 0.10000
H 	H 	0.23990 0.39550 0.83620 -0.00400
H 	H 	0.13950 0.36510 0.94800 -0.01500
H 	H 	0.86730 0.38630 0.06250 0.01700
H 	H 	0.42100 0.24340 0.84850 0.11000
H 	H 	0.60910 0.24230 0.93070 0.10600
H 	H 	0.45110 0.67070 0.21240 0.02000
H 	H 	0.52080 0.49360 0.18630 0.09600
H 	H 	0.51160 0.38780 0.09440 0.10200
H 	H 	0.54600 0.47700 0.03550 0.02200
H 	H 	0.38180 0.04880 0.79050 0.07800
C 	C 	0.46870 0.78230 0.37506 0.46700
C 	C 	0.37480 0.74200 0.37526 -0.19100
C 	C 	0.82020 0.88540 0.38065 0.49500
C 	C 	0.91200 0.92740 0.38091 -0.20800
C 	C 	0.75460 0.56020 0.75232 0.38700
C 	C 	0.63860 0.59720 0.73689 -0.16000
C 	C 	0.05250 0.29710 0.34360 0.11900
C 	C 	0.22230 0.38130 0.40581 0.13300
C 	C 	0.55020 0.70800 0.74235 0.09700
C 	C 	0.39720 0.16900 0.39138 -0.22100
C 	C 	0.92930 0.49350 0.32674 0.12600
C 	C 	0.88120 0.50240 0.36477 -0.20200
C 	C 	0.92360 0.40460 0.39020 0.12100
C 	C 	0.07880 0.00460 0.37665 0.12400
C 	C 	0.20670 0.66890 0.37639 0.12400
C 	C 	0.94100 0.98340 0.34776 0.12900
C 	C 	0.49220 0.05080 0.38517 0.50100
C 	C 	0.34150 0.66830 0.61199 0.11800
C 	C 	0.42690 0.67850 0.70805 0.11200
C 	C 	0.78670 0.61470 0.37799 0.46300
C 	C 	0.31660 0.75900 0.34280 0.10500
C 	C 	0.34630 0.68490 0.40805 0.12200
C 	C 	0.97270 0.90950 0.41306 0.12600
C 	C 	0.05720 0.94940 0.41090 -0.18100
C 	C 	0.50390 0.73770 0.50561 0.33900
C 	C 	0.44430 0.71190 0.54248 -0.14300
C 	C 	0.36030 0.25470 0.36124 0.14000
C 	C 	0.34150 0.19690 0.42756 0.13800
C 	C 	0.38880 0.79360 0.56897 0.08900
C 	C 	0.27040 0.36260 0.36846 -0.19800
C 	C 	0.26150 0.64790 0.40857 -0.19500
C 	C 	0.61470 0.52670 0.71611 0.08700
C 	C 	0.50940 0.56700 0.70095 -0.16100
C 	C 	0.38990 0.58310 0.58766 -0.16900
C 	C 	0.44240 0.60420 0.55259 0.08600
C 	C 	0.01570 0.38970 0.31595 -0.18200
C 	C 	0.78230 0.46870 0.87506 0.46700
C 	C 	0.74200 0.37480 0.87526 -0.19100
C 	C 	0.88540 0.82020 0.88065 0.49500
C 	C 	0.92740 0.91200 0.88091 -0.20800
C 	C 	0.56020 0.75460 0.25232 0.38700
C 	C 	0.59720 0.63860 0.23689 -0.16000
C 	C 	0.29710 0.05250 0.84360 0.11900
C 	C 	0.38130 0.22230 0.90581 0.13300
C 	C 	0.70800 0.55020 0.24235 0.09700
C 	C 	0.16900 0.39720 0.89138 -0.22100
C 	C 	0.49350 0.92930 0.82674 0.12500
C 	C 	0.50240 0.88120 0.86477 -0.20200
C 	C 	0.40460 0.92360 0.89020 0.12100
C 	C 	0.00460 0.07880 0.87665 0.12400
C 	C 	0.66890 0.20670 0.87639 0.12400
C 	C 	0.98340 0.94100 0.84776 0.12900
C 	C 	0.05080 0.49220 0.88517 0.50100
C 	C 	0.66830 0.34150 0.11199 0.11800
C 	C 	0.67850 0.42690 0.20805 0.11200
C 	C 	0.61470 0.78670 0.87799 0.46300
C 	C 	0.75900 0.31660 0.84280 0.10500
C 	C 	0.68490 0.34630 0.90805 0.12200
C 	C 	0.90950 0.97270 0.91306 0.12600
C 	C 	0.94940 0.05720 0.91090 -0.18100
C 	C 	0.73770 0.50390 0.00561 0.33900
C 	C 	0.71190 0.44430 0.04248 -0.14300
C 	C 	0.25470 0.36030 0.86124 0.14000
C 	C 	0.19690 0.34150 0.92756 0.13800
C 	C 	0.79360 0.38880 0.06897 0.08900
C 	C 	0.36260 0.27040 0.86846 -0.19800
C 	C 	0.64790 0.26150 0.90857 -0.19500
C 	C 	0.52670 0.61470 0.21611 0.08700
C 	C 	0.56700 0.50940 0.20095 -0.16100
C 	C 	0.58310 0.38990 0.08766 -0.16900
C 	C 	0.60420 0.44240 0.05259 0.08600
C 	C 	0.38970 0.01570 0.81595 -0.18200
S 	S 	0.16535 0.16477 0.32723 -0.03200
S 	S 	0.09203 0.62735 0.37321 -0.02200
S 	S 	0.28332 0.74840 0.69252 -0.01700
S 	S 	0.27619 0.63661 0.65829 -0.02400
S 	S 	0.10524 0.51370 0.42033 -0.03800
S 	S 	0.19268 0.05038 0.37453 -0.01000
S 	S 	0.16477 0.16535 0.82723 -0.03200
S 	S 	0.62735 0.09203 0.87321 -0.02200
S 	S 	0.74840 0.28332 0.19252 -0.01700
S 	S 	0.63661 0.27619 0.15829 -0.02400
S 	S 	0.51370 0.10524 0.92033 -0.03800
S 	S 	0.05038 0.19268 0.87453 -0.01000
N 	N 	0.44594 0.74874 0.72834 -0.15100
N 	N 	0.33710 0.77450 0.60415 -0.13600
N 	N 	0.02410 0.02230 0.34484 -0.14300
N 	N 	0.25560 0.30120 0.43537 -0.16300
N 	N 	0.23020 0.72380 0.34294 -0.13500
N 	N 	0.00810 0.30170 0.38047 -0.14200
N 	N 	0.74874 0.44594 0.22834 -0.15100
N 	N 	0.77450 0.33710 0.10415 -0.13600
N 	N 	0.02230 0.02410 0.84484 -0.14300
N 	N 	0.30120 0.25560 0.93537 -0.16300
N 	N 	0.72380 0.23020 0.84294 -0.13500
N 	N 	0.30170 0.00810 0.88047 -0.14200
O 	O 	0.78151 0.89671 0.34861 -0.48600
O 	O 	0.77046 0.63686 0.76624 -0.44800
O 	O 	0.50930 0.77270 0.40646 -0.45200
O 	O 	0.78914 0.84254 0.41167 -0.48400
O 	O 	0.49728 0.82408 0.34318 -0.43900
O 	O 	0.57340 0.65580 0.48594 -0.35600
O 	O 	0.76076 0.62016 0.41413 -0.44600
O 	O 	0.73944 0.69584 0.35316 -0.47700
O 	O 	0.52879 0.98219 0.41394 -0.48200
O 	O 	0.53012 0.02972 0.35071 -0.47000
O 	O 	0.48734 0.84114 0.49514 -0.39800
O 	O 	0.82984 0.45644 0.74963 -0.28300
O 	O 	0.89671 0.78151 0.84861 -0.48600
O 	O 	0.63686 0.77046 0.26624 -0.44800
O 	O 	0.77270 0.50930 0.90646 -0.45200
O 	O 	0.84254 0.78914 0.91167 -0.48400
O 	O 	0.82408 0.49728 0.84318 -0.43900
O 	O 	0.65580 0.57340 0.98594 -0.35600
O 	O 	0.62016 0.76076 0.91413 -0.44600
O 	O 	0.69584 0.73944 0.85316 -0.47700
O 	O 	0.98219 0.52879 0.91394 -0.48200
O 	O 	0.02972 0.53012 0.85071 -0.47000
O 	O 	0.84114 0.48734 0.99514 -0.39800
O 	O 	0.45644 0.82984 0.24963 -0.28300
