data_crystal

_cell_length_a 12.80420
_cell_length_b 12.80420
_cell_length_c 34.63500
_cell_angle_alpha 82.42540
_cell_angle_beta  82.42540
_cell_angle_gamma 63.91840

_symmetry_space_group_name_	'P 1'
_symmetry_space_group_name_H-M	'P 1'

loop_
_symmetry_equiv_pos_as_xyz
  x,y,z

loop_
_atom_site_label
_atom_site_type_symbol
_atom_site_fract_x
_atom_site_fract_y
_atom_site_fract_z
_atom_site_charge
Er	Er	0.86245 0.70319 0.05903 1.70500
Er	Er	0.84844 0.63222 0.18384 1.66400
Er	Er	0.70319 0.86245 0.55903 1.70500
Er	Er	0.63222 0.84844 0.68384 1.66500
H 	H 	0.61290 0.08730 0.08370 0.00700
H 	H 	0.45280 0.11600 0.20930 0.08100
H 	H 	0.60000 0.94260 0.19100 -0.02300
H 	H 	0.40510 0.56050 0.06710 0.11000
H 	H 	0.54570 0.63090 0.06370 -0.01900
H 	H 	0.60160 0.50180 0.17390 -0.00600
H 	H 	0.11530 0.82730 0.06970 -0.00500
H 	H 	0.25310 0.89350 0.06920 0.11100
H 	H 	0.16640 0.70000 0.17950 0.02000
H 	H 	0.25340 0.08320 0.15240 0.11100
H 	H 	0.10190 0.26290 0.16470 -0.00700
H 	H 	0.13190 0.36310 0.05170 -0.02300
H 	H 	0.82690 0.05030 0.78750 0.02400
H 	H 	0.00570 0.97890 0.81290 0.09400
H 	H 	0.92910 0.74430 0.74280 0.00100
H 	H 	0.11060 0.98680 0.90530 0.10300
H 	H 	0.02130 0.95490 0.96440 0.02000
H 	H 	0.11400 0.62860 0.93850 0.01500
H 	H 	0.08730 0.61290 0.58370 0.00700
H 	H 	0.11600 0.45280 0.70930 0.08100
H 	H 	0.94260 0.60000 0.69100 -0.02400
H 	H 	0.56050 0.40510 0.56710 0.11000
H 	H 	0.63090 0.54570 0.56370 -0.01900
H 	H 	0.50180 0.60160 0.67390 -0.00600
H 	H 	0.82730 0.11530 0.56970 -0.00500
H 	H 	0.89350 0.25310 0.56920 0.11100
H 	H 	0.70000 0.16640 0.67950 0.02000
H 	H 	0.08320 0.25340 0.65240 0.11100
H 	H 	0.26290 0.10190 0.66470 -0.00700
H 	H 	0.36310 0.13190 0.55170 -0.02300
H 	H 	0.05030 0.82690 0.28750 0.02400
H 	H 	0.97890 0.00570 0.31290 0.09400
H 	H 	0.74430 0.92910 0.24280 0.00100
H 	H 	0.98680 0.11060 0.40530 0.10300
H 	H 	0.95490 0.02130 0.46440 0.02000
H 	H 	0.62860 0.11400 0.43850 0.01500
C 	C 	0.71780 0.88380 0.12170 0.49800
C 	C 	0.62250 0.99630 0.13454 -0.22200
C 	C 	0.58030 0.09310 0.10941 0.13200
C 	C 	0.45140 0.20100 0.15600 0.12400
C 	C 	0.48680 0.10880 0.18380 -0.19500
C 	C 	0.57330 0.00670 0.17270 0.14000
C 	C 	0.42460 0.49580 0.12260 0.13800
C 	C 	0.44580 0.55060 0.08860 -0.21000
C 	C 	0.53000 0.59180 0.08670 0.15600
C 	C 	0.59060 0.57480 0.11870 -0.23700
C 	C 	0.56100 0.51560 0.15200 0.14800
C 	C 	0.68330 0.61530 0.11990 0.54400
C 	C 	0.03060 0.71480 0.12500 0.50300
C 	C 	0.12480 0.75740 0.12450 -0.21000
C 	C 	0.15370 0.81450 0.09210 0.14700
C 	C 	0.23570 0.85290 0.09150 -0.21100
C 	C 	0.29250 0.83150 0.12390 0.12800
C 	C 	0.18490 0.73870 0.15700 0.11800
C 	C 	0.27420 0.12240 0.09420 0.13500
C 	C 	0.22600 0.14160 0.13220 -0.20300
C 	C 	0.13690 0.24810 0.13950 0.14900
C 	C 	0.09950 0.33410 0.10878 -0.23600
C 	C 	0.15530 0.30610 0.07240 0.15200
C 	C 	0.00490 0.45110 0.11650 0.52900
C 	C 	0.74110 0.94310 0.74690 0.41200
C 	C 	0.85680 0.90400 0.76217 -0.16600
C 	C 	0.88240 0.97480 0.78350 0.07800
C 	C 	0.98910 0.93290 0.79840 -0.15500
C 	C 	0.07150 0.82070 0.79130 0.10800
C 	C 	0.94390 0.79270 0.75680 0.10000
C 	C 	0.15770 0.83070 0.88790 0.12300
C 	C 	0.10880 0.91500 0.91240 -0.17500
C 	C 	0.05670 0.89590 0.94750 0.08900
C 	C 	0.05670 0.78690 0.95800 -0.13800
C 	C 	0.11170 0.70230 0.93190 0.08300
C 	C 	0.99490 0.76010 0.99530 0.34400
C 	C 	0.88380 0.71780 0.62170 0.49800
C 	C 	0.99630 0.62250 0.63454 -0.22300
C 	C 	0.09310 0.58030 0.60941 0.13300
C 	C 	0.20100 0.45140 0.65600 0.12400
C 	C 	0.10880 0.48680 0.68380 -0.19600
C 	C 	0.00670 0.57330 0.67270 0.14100
C 	C 	0.49580 0.42460 0.62260 0.13800
C 	C 	0.55060 0.44580 0.58860 -0.21000
C 	C 	0.59180 0.53000 0.58670 0.15600
C 	C 	0.57480 0.59060 0.61870 -0.23700
C 	C 	0.51560 0.56100 0.65200 0.14800
C 	C 	0.61530 0.68330 0.61990 0.54400
C 	C 	0.71480 0.03060 0.62500 0.50300
C 	C 	0.75740 0.12480 0.62450 -0.21000
C 	C 	0.81450 0.15370 0.59210 0.14700
C 	C 	0.85290 0.23570 0.59150 -0.21100
C 	C 	0.83150 0.29250 0.62390 0.12800
C 	C 	0.73870 0.18490 0.65700 0.11800
C 	C 	0.12240 0.27420 0.59420 0.13500
C 	C 	0.14160 0.22600 0.63220 -0.20300
C 	C 	0.24810 0.13690 0.63950 0.14900
C 	C 	0.33410 0.09950 0.60878 -0.23600
C 	C 	0.30610 0.15530 0.57240 0.15200
C 	C 	0.45110 0.00490 0.61650 0.52900
C 	C 	0.94310 0.74110 0.24690 0.41200
C 	C 	0.90400 0.85680 0.26217 -0.16600
C 	C 	0.97480 0.88240 0.28350 0.07800
C 	C 	0.93290 0.98910 0.29840 -0.15500
C 	C 	0.82070 0.07150 0.29130 0.10800
C 	C 	0.79270 0.94390 0.25680 0.10100
C 	C 	0.83070 0.15770 0.38790 0.12300
C 	C 	0.91500 0.10880 0.41240 -0.17500
C 	C 	0.89590 0.05670 0.44750 0.09000
C 	C 	0.78690 0.05670 0.45800 -0.13800
C 	C 	0.70230 0.11170 0.43190 0.08300
C 	C 	0.76010 0.99490 0.49530 0.34500
S 	S 	0.33790 0.33326 0.17229 -0.03500
S 	S 	0.31041 0.44815 0.12470 -0.01300
S 	S 	0.40611 0.87561 0.12662 -0.02500
S 	S 	0.39181 0.99035 0.07954 -0.03900
S 	S 	0.22250 0.86176 0.84115 -0.02700
S 	S 	0.21343 0.75045 0.80697 -0.02000
S 	S 	0.33326 0.33790 0.67229 -0.03500
S 	S 	0.44815 0.31041 0.62470 -0.01300
S 	S 	0.87561 0.40611 0.62662 -0.02500
S 	S 	0.99035 0.39181 0.57954 -0.03900
S 	S 	0.86176 0.22250 0.34115 -0.02700
S 	S 	0.75045 0.21343 0.30697 -0.02000
N 	N 	0.49490 0.19650 0.11868 -0.14500
N 	N 	0.47950 0.47810 0.15456 -0.15200
N 	N 	0.24070 0.20230 0.06501 -0.17000
N 	N 	0.26900 0.77460 0.15730 -0.14000
N 	N 	0.04920 0.75140 0.77108 -0.15100
N 	N 	0.16370 0.72490 0.89616 -0.13600
N 	N 	0.19650 0.49490 0.61868 -0.14500
N 	N 	0.47810 0.47950 0.65456 -0.15200
N 	N 	0.20230 0.24070 0.56501 -0.17000
N 	N 	0.77460 0.26900 0.65730 -0.14000
N 	N 	0.75140 0.04920 0.27108 -0.15100
N 	N 	0.72490 0.16370 0.39616 -0.13600
O 	O 	0.76460 0.80380 0.14736 -0.51600
O 	O 	0.74400 0.87520 0.08567 -0.48800
O 	O 	0.72090 0.60410 0.15189 -0.53900
O 	O 	0.71490 0.65730 0.08843 -0.52800
O 	O 	0.00120 0.67440 0.15670 -0.48100
O 	O 	0.98910 0.72690 0.09300 -0.49000
O 	O 	0.96780 0.47280 0.15048 -0.51700
O 	O 	0.96970 0.52150 0.08655 -0.51000
O 	O 	0.66730 0.04650 0.74988 -0.29100
O 	O 	0.72480 0.86760 0.73247 -0.48900
O 	O 	0.92460 0.84220 0.01488 -0.37500
O 	O 	0.01210 0.65770 0.00653 -0.42700
O 	O 	0.80380 0.76460 0.64736 -0.51600
O 	O 	0.87520 0.74400 0.58567 -0.48800
O 	O 	0.60410 0.72090 0.65189 -0.53900
O 	O 	0.65730 0.71490 0.58843 -0.52800
O 	O 	0.67440 0.00120 0.65670 -0.48100
O 	O 	0.72690 0.98910 0.59300 -0.49000
O 	O 	0.47280 0.96780 0.65048 -0.51700
O 	O 	0.52150 0.96970 0.58655 -0.51000
O 	O 	0.04650 0.66730 0.24988 -0.29100
O 	O 	0.86760 0.72480 0.23247 -0.49000
O 	O 	0.84220 0.92460 0.51488 -0.37600
O 	O 	0.65770 0.01210 0.50653 -0.42700
Er	Er	0.29681 0.13755 0.44097 1.70500
Er	Er	0.36778 0.15156 0.31616 1.66500
Er	Er	0.13755 0.29681 0.94097 1.70600
Er	Er	0.15156 0.36778 0.81616 1.66500
H 	H 	0.91270 0.38710 0.41630 0.00700
H 	H 	0.88400 0.54720 0.29070 0.08100
H 	H 	0.05740 0.40000 0.30900 -0.02400
H 	H 	0.43950 0.59490 0.43290 0.11000
H 	H 	0.36910 0.45430 0.43630 -0.01900
H 	H 	0.49820 0.39840 0.32610 -0.00600
H 	H 	0.17270 0.88470 0.43030 -0.00500
H 	H 	0.10650 0.74690 0.43080 0.11100
H 	H 	0.30000 0.83360 0.32050 0.02000
H 	H 	0.91680 0.74660 0.34760 0.11100
H 	H 	0.73710 0.89810 0.33530 -0.00700
H 	H 	0.63690 0.86810 0.44830 -0.02300
H 	H 	0.94970 0.17310 0.71250 0.02400
H 	H 	0.02110 0.99430 0.68710 0.09400
H 	H 	0.25570 0.07090 0.75720 0.00100
H 	H 	0.01320 0.88940 0.59470 0.10300
H 	H 	0.04510 0.97870 0.53560 0.02000
H 	H 	0.37140 0.88600 0.56150 0.01500
H 	H 	0.38710 0.91270 0.91630 0.00700
H 	H 	0.54720 0.88400 0.79070 0.08100
H 	H 	0.40000 0.05740 0.80900 -0.02300
H 	H 	0.59490 0.43950 0.93290 0.11000
H 	H 	0.45430 0.36910 0.93630 -0.01900
H 	H 	0.39840 0.49820 0.82610 -0.00600
H 	H 	0.88470 0.17270 0.93030 -0.00500
H 	H 	0.74690 0.10650 0.93080 0.11100
H 	H 	0.83360 0.30000 0.82050 0.02000
H 	H 	0.74660 0.91680 0.84760 0.11100
H 	H 	0.89810 0.73710 0.83530 -0.00700
H 	H 	0.86810 0.63690 0.94830 -0.02300
H 	H 	0.17310 0.94970 0.21250 0.02400
H 	H 	0.99430 0.02110 0.18710 0.09400
H 	H 	0.07090 0.25570 0.25720 0.00100
H 	H 	0.88940 0.01320 0.09470 0.10300
H 	H 	0.97870 0.04510 0.03560 0.02000
H 	H 	0.88600 0.37140 0.06150 0.01500
C 	C 	0.11620 0.28220 0.37830 0.49800
C 	C 	0.00370 0.37750 0.36546 -0.22300
C 	C 	0.90690 0.41970 0.39059 0.13300
C 	C 	0.79900 0.54860 0.34400 0.12400
C 	C 	0.89120 0.51320 0.31620 -0.19600
C 	C 	0.99330 0.42670 0.32730 0.14100
C 	C 	0.50420 0.57540 0.37740 0.13800
C 	C 	0.44940 0.55420 0.41140 -0.21000
C 	C 	0.40820 0.47000 0.41330 0.15600
C 	C 	0.42520 0.40940 0.38130 -0.23700
C 	C 	0.48440 0.43900 0.34800 0.14800
C 	C 	0.38470 0.31670 0.38010 0.54400
C 	C 	0.28520 0.96940 0.37500 0.50300
C 	C 	0.24260 0.87520 0.37550 -0.21000
C 	C 	0.18550 0.84630 0.40790 0.14700
C 	C 	0.14710 0.76430 0.40850 -0.21100
C 	C 	0.16850 0.70750 0.37610 0.12800
C 	C 	0.26130 0.81510 0.34300 0.11800
C 	C 	0.87760 0.72580 0.40580 0.13500
C 	C 	0.85840 0.77400 0.36780 -0.20300
C 	C 	0.75190 0.86310 0.36050 0.14900
C 	C 	0.66590 0.90050 0.39122 -0.23600
C 	C 	0.69390 0.84470 0.42760 0.15200
C 	C 	0.54890 0.99510 0.38350 0.52900
C 	C 	0.05690 0.25890 0.75310 0.41200
C 	C 	0.09600 0.14320 0.73783 -0.16600
C 	C 	0.02520 0.11760 0.71650 0.07800
C 	C 	0.06710 0.01090 0.70160 -0.15500
C 	C 	0.17930 0.92850 0.70870 0.10800
C 	C 	0.20730 0.05610 0.74320 0.10100
C 	C 	0.16930 0.84230 0.61210 0.12300
C 	C 	0.08500 0.89120 0.58760 -0.17500
C 	C 	0.10410 0.94330 0.55250 0.09000
C 	C 	0.21310 0.94330 0.54200 -0.13800
C 	C 	0.29770 0.88830 0.56810 0.08300
C 	C 	0.23990 0.00510 0.50470 0.34500
C 	C 	0.28220 0.11620 0.87830 0.49800
C 	C 	0.37750 0.00370 0.86546 -0.22200
C 	C 	0.41970 0.90690 0.89059 0.13200
C 	C 	0.54860 0.79900 0.84400 0.12400
C 	C 	0.51320 0.89120 0.81620 -0.19500
C 	C 	0.42670 0.99330 0.82730 0.14000
C 	C 	0.57540 0.50420 0.87740 0.13800
C 	C 	0.55420 0.44940 0.91140 -0.21000
C 	C 	0.47000 0.40820 0.91330 0.15600
C 	C 	0.40940 0.42520 0.88130 -0.23700
C 	C 	0.43900 0.48440 0.84800 0.14800
C 	C 	0.31670 0.38470 0.88010 0.54400
C 	C 	0.96940 0.28520 0.87500 0.50300
C 	C 	0.87520 0.24260 0.87550 -0.21000
C 	C 	0.84630 0.18550 0.90790 0.14700
C 	C 	0.76430 0.14710 0.90850 -0.21100
C 	C 	0.70750 0.16850 0.87610 0.12800
C 	C 	0.81510 0.26130 0.84300 0.11800
C 	C 	0.72580 0.87760 0.90580 0.13500
C 	C 	0.77400 0.85840 0.86780 -0.20300
C 	C 	0.86310 0.75190 0.86050 0.14900
C 	C 	0.90050 0.66590 0.89122 -0.23600
C 	C 	0.84470 0.69390 0.92760 0.15200
C 	C 	0.99510 0.54890 0.88350 0.52900
C 	C 	0.25890 0.05690 0.25310 0.41200
C 	C 	0.14320 0.09600 0.23783 -0.16600
C 	C 	0.11760 0.02520 0.21650 0.07800
C 	C 	0.01090 0.06710 0.20160 -0.15500
C 	C 	0.92850 0.17930 0.20870 0.10800
C 	C 	0.05610 0.20730 0.24320 0.10000
C 	C 	0.84230 0.16930 0.11210 0.12300
C 	C 	0.89120 0.08500 0.08760 -0.17500
C 	C 	0.94330 0.10410 0.05250 0.08900
C 	C 	0.94330 0.21310 0.04200 -0.13800
C 	C 	0.88830 0.29770 0.06810 0.08300
C 	C 	0.00510 0.23990 0.00470 0.34400
S 	S 	0.66674 0.66210 0.32771 -0.03500
S 	S 	0.55185 0.68959 0.37530 -0.01300
S 	S 	0.12439 0.59389 0.37338 -0.02500
S 	S 	0.00965 0.60819 0.42046 -0.03900
S 	S 	0.13824 0.77750 0.65885 -0.02700
S 	S 	0.24955 0.78657 0.69303 -0.02000
S 	S 	0.66210 0.66674 0.82771 -0.03500
S 	S 	0.68959 0.55185 0.87530 -0.01300
S 	S 	0.59389 0.12439 0.87338 -0.02500
S 	S 	0.60819 0.00965 0.92046 -0.03900
S 	S 	0.77750 0.13824 0.15885 -0.02700
S 	S 	0.78657 0.24955 0.19303 -0.02000
N 	N 	0.80350 0.50510 0.38132 -0.14500
N 	N 	0.52190 0.52050 0.34544 -0.15200
N 	N 	0.79770 0.75930 0.43499 -0.17000
N 	N 	0.22540 0.73100 0.34270 -0.14000
N 	N 	0.24860 0.95080 0.72892 -0.15100
N 	N 	0.27510 0.83630 0.60384 -0.13600
N 	N 	0.50510 0.80350 0.88132 -0.14500
N 	N 	0.52050 0.52190 0.84544 -0.15200
N 	N 	0.75930 0.79770 0.93499 -0.17000
N 	N 	0.73100 0.22540 0.84270 -0.14000
N 	N 	0.95080 0.24860 0.22892 -0.15100
N 	N 	0.83630 0.27510 0.10384 -0.13600
O 	O 	0.19620 0.23540 0.35264 -0.51600
O 	O 	0.12480 0.25600 0.41433 -0.48800
O 	O 	0.39590 0.27910 0.34811 -0.53900
O 	O 	0.34270 0.28510 0.41157 -0.52800
O 	O 	0.32560 0.99880 0.34330 -0.48100
O 	O 	0.27310 0.01090 0.40700 -0.49000
O 	O 	0.52720 0.03220 0.34952 -0.51700
O 	O 	0.47850 0.03030 0.41345 -0.51000
O 	O 	0.95350 0.33270 0.75012 -0.29100
O 	O 	0.13240 0.27520 0.76753 -0.49000
O 	O 	0.15780 0.07540 0.48512 -0.37600
O 	O 	0.34230 0.98790 0.49347 -0.42700
O 	O 	0.23540 0.19620 0.85264 -0.51600
O 	O 	0.25600 0.12480 0.91433 -0.48800
O 	O 	0.27910 0.39590 0.84811 -0.53900
O 	O 	0.28510 0.34270 0.91157 -0.52800
O 	O 	0.99880 0.32560 0.84330 -0.48100
O 	O 	0.01090 0.27310 0.90700 -0.49000
O 	O 	0.03220 0.52720 0.84952 -0.51700
O 	O 	0.03030 0.47850 0.91345 -0.51000
O 	O 	0.33270 0.95350 0.25012 -0.29100
O 	O 	0.27520 0.13240 0.26753 -0.48900
O 	O 	0.07540 0.15780 0.98512 -0.37500
O 	O 	0.98790 0.34230 0.99347 -0.42700
