data_crystal

_cell_length_a 5.69060
_cell_length_b 12.80000
_cell_length_c 21.55000
_cell_angle_alpha 90.00000
_cell_angle_beta  95.39200
_cell_angle_gamma 90.00000

_symmetry_space_group_name_	'P 1'
_symmetry_space_group_name_H-M	'P 1'

loop_
_symmetry_equiv_pos_as_xyz
  x,y,z

loop_
_atom_site_label
_atom_site_type_symbol
_atom_site_fract_x
_atom_site_fract_y
_atom_site_fract_z
_atom_site_charge
Ce	Ce	0.63155 0.14376 0.96900 2.07200
Ce	Ce	0.36845 0.64376 0.53100 2.07200
Ce	Ce	0.36845 0.85624 0.03100 2.07200
Ce	Ce	0.63155 0.35624 0.46900 2.07200
P 	P 	0.90460 0.02500 0.08404 0.46400
P 	P 	0.09540 0.52500 0.41596 0.46200
P 	P 	0.09540 0.97500 0.91596 0.46400
P 	P 	0.90460 0.47500 0.58404 0.46200
H 	H 	0.73460 0.97980 0.17480 0.10200
H 	H 	0.66730 0.09480 0.15640 0.07100
H 	H 	0.74240 0.11490 0.27310 0.05500
H 	H 	0.84450 0.00130 0.27880 0.04800
H 	H 	0.19750 0.06210 0.32870 0.02000
H 	H 	0.99040 0.10490 0.36460 -0.00200
H 	H 	0.00980 0.26760 0.31610 0.08000
H 	H 	0.27670 0.30100 0.24530 0.03100
H 	H 	0.37320 0.18650 0.25180 0.03700
H 	H 	0.11440 0.19910 0.16100 0.04200
H 	H 	0.91210 0.23960 0.19960 0.04200
H 	H 	0.26540 0.47980 0.32520 0.10300
H 	H 	0.33270 0.59480 0.34360 0.07200
H 	H 	0.25760 0.61490 0.22690 0.05500
H 	H 	0.15550 0.50130 0.22120 0.04800
H 	H 	0.80250 0.56210 0.17130 0.01900
H 	H 	0.00960 0.60490 0.13540 -0.00300
H 	H 	0.99020 0.76760 0.18390 0.08100
H 	H 	0.72330 0.80100 0.25470 0.03100
H 	H 	0.62680 0.68650 0.24820 0.03700
H 	H 	0.88560 0.69910 0.33900 0.04200
H 	H 	0.08790 0.73960 0.30040 0.04000
H 	H 	0.26540 0.02020 0.82520 0.10300
H 	H 	0.33270 0.90520 0.84360 0.07200
H 	H 	0.25760 0.88510 0.72690 0.05500
H 	H 	0.15550 0.99870 0.72120 0.04800
H 	H 	0.80250 0.93790 0.67130 0.02000
H 	H 	0.00960 0.89510 0.63540 -0.00200
H 	H 	0.99020 0.73240 0.68390 0.08000
H 	H 	0.72330 0.69900 0.75470 0.03100
H 	H 	0.62680 0.81350 0.74820 0.03700
H 	H 	0.88560 0.80090 0.83900 0.04200
H 	H 	0.08790 0.76040 0.80040 0.04200
H 	H 	0.73460 0.52020 0.67480 0.10300
H 	H 	0.66730 0.40520 0.65640 0.07200
H 	H 	0.74240 0.38510 0.77310 0.05500
H 	H 	0.84450 0.49870 0.77880 0.04800
H 	H 	0.19750 0.43790 0.82870 0.01900
H 	H 	0.99040 0.39510 0.86460 -0.00300
H 	H 	0.00980 0.23240 0.81610 0.08100
H 	H 	0.27670 0.19900 0.74530 0.03100
H 	H 	0.37320 0.31350 0.75180 0.03700
H 	H 	0.11440 0.30090 0.66100 0.04200
H 	H 	0.91210 0.26040 0.69960 0.04000
C 	C 	0.79710 0.04550 0.16110 -0.23500
C 	C 	0.88500 0.07380 0.27240 -0.09800
C 	C 	0.06300 0.10880 0.32570 -0.01400
C 	C 	0.14800 0.22180 0.31590 -0.17900
C 	C 	0.23300 0.22920 0.25290 -0.02700
C 	C 	0.04900 0.19400 0.20080 -0.08600
C 	C 	0.32300 0.25690 0.36700 0.34000
C 	C 	0.20290 0.54550 0.33890 -0.23500
C 	C 	0.11500 0.57380 0.22760 -0.10000
C 	C 	0.93700 0.60880 0.17430 -0.01200
C 	C 	0.85200 0.72180 0.18410 -0.17900
C 	C 	0.76700 0.72920 0.24710 -0.02700
C 	C 	0.95100 0.69400 0.29920 -0.08300
C 	C 	0.67700 0.75690 0.13300 0.34000
C 	C 	0.20290 0.95450 0.83890 -0.23500
C 	C 	0.11500 0.92620 0.72760 -0.09800
C 	C 	0.93700 0.89120 0.67430 -0.01400
C 	C 	0.85200 0.77820 0.68410 -0.17900
C 	C 	0.76700 0.77080 0.74710 -0.02700
C 	C 	0.95100 0.80600 0.79920 -0.08600
C 	C 	0.67700 0.74310 0.63300 0.34000
C 	C 	0.79710 0.45450 0.66110 -0.23500
C 	C 	0.88500 0.42620 0.77240 -0.10000
C 	C 	0.06300 0.39120 0.82570 -0.01200
C 	C 	0.14800 0.27820 0.81590 -0.17900
C 	C 	0.23300 0.27080 0.75290 -0.02700
C 	C 	0.04900 0.30600 0.70080 -0.08300
C 	C 	0.32300 0.24310 0.86700 0.34000
N 	N 	0.97400 0.08450 0.21090 -0.05900
N 	N 	0.02600 0.58450 0.28910 -0.06000
N 	N 	0.02600 0.91550 0.78910 -0.05900
N 	N 	0.97400 0.41550 0.71090 -0.06000
O 	O 	0.68450 0.98170 0.04600 -0.66700
O 	O 	0.95840 0.12910 0.05500 -0.53500
O 	O 	0.10910 0.95220 0.09210 -0.51100
O 	O 	0.29860 0.23590 0.42320 -0.53200
O 	O 	0.49900 0.31180 0.35490 -0.46000
O 	O 	0.31550 0.48170 0.45400 -0.66600
O 	O 	0.04160 0.62910 0.44500 -0.53600
O 	O 	0.89090 0.45220 0.40790 -0.50900
O 	O 	0.70140 0.73590 0.07680 -0.53200
O 	O 	0.50100 0.81180 0.14510 -0.46000
O 	O 	0.31550 0.01830 0.95400 -0.66700
O 	O 	0.04160 0.87090 0.94500 -0.53500
O 	O 	0.89090 0.04780 0.90790 -0.51100
O 	O 	0.70140 0.76410 0.57680 -0.53200
O 	O 	0.50100 0.68820 0.64510 -0.46000
O 	O 	0.68450 0.51830 0.54600 -0.66600
O 	O 	0.95840 0.37090 0.55500 -0.53600
O 	O 	0.10910 0.54780 0.59210 -0.50900
O 	O 	0.29860 0.26410 0.92320 -0.53200
O 	O 	0.49900 0.18820 0.85490 -0.46000
