data_crystal

_cell_length_a 5.58710
_cell_length_b 13.42400
_cell_length_c 21.15700
_cell_angle_alpha 90.00000
_cell_angle_beta  96.14800
_cell_angle_gamma 90.00000

_symmetry_space_group_name_	'P 1'
_symmetry_space_group_name_H-M	'P 1'

loop_
_symmetry_equiv_pos_as_xyz
  x,y,z

loop_
_atom_site_label
_atom_site_type_symbol
_atom_site_fract_x
_atom_site_fract_y
_atom_site_fract_z
_atom_site_charge
Nd	Nd	0.62854 0.13445 0.97151 1.92400
Nd	Nd	0.37146 0.63445 0.52849 1.92400
Nd	Nd	0.37146 0.86555 0.02849 1.92400
Nd	Nd	0.62854 0.36555 0.47151 1.92400
P 	P 	0.91220 0.02307 0.08680 0.50000
P 	P 	0.08780 0.52307 0.41320 0.49900
P 	P 	0.08780 0.97693 0.91320 0.50100
P 	P 	0.91220 0.47693 0.58680 0.50000
H 	H 	0.76470 0.97450 0.17990 0.09600
H 	H 	0.67430 0.08180 0.16150 0.06900
H 	H 	0.76010 0.10060 0.28060 0.04900
H 	H 	0.88940 0.99680 0.28640 0.04300
H 	H 	0.03350 0.09910 0.37130 0.01200
H 	H 	0.24310 0.07100 0.33090 0.02800
H 	H 	0.99240 0.25480 0.32250 0.06700
H 	H 	0.23620 0.30330 0.24560 0.03800
H 	H 	0.37050 0.20050 0.25080 0.04500
H 	H 	0.08070 0.19830 0.16130 0.03600
H 	H 	0.87650 0.22380 0.20430 0.03600
H 	H 	0.23530 0.47450 0.32010 0.09600
H 	H 	0.32570 0.58180 0.33850 0.06900
H 	H 	0.23990 0.60060 0.21940 0.04900
H 	H 	0.11060 0.49680 0.21360 0.04300
H 	H 	0.96650 0.59910 0.12870 0.01200
H 	H 	0.75690 0.57100 0.16910 0.02800
H 	H 	0.00760 0.75480 0.17750 0.06500
H 	H 	0.76380 0.80330 0.25440 0.03900
H 	H 	0.62950 0.70050 0.24920 0.04500
H 	H 	0.91930 0.69830 0.33870 0.03500
H 	H 	0.12350 0.72380 0.29570 0.03500
H 	H 	0.23530 0.02550 0.82010 0.09600
H 	H 	0.32570 0.91820 0.83850 0.06900
H 	H 	0.23990 0.89940 0.71940 0.04900
H 	H 	0.11060 0.00320 0.71360 0.04300
H 	H 	0.96650 0.90090 0.62870 0.01200
H 	H 	0.75690 0.92900 0.66910 0.02800
H 	H 	0.00760 0.74520 0.67750 0.06700
H 	H 	0.76380 0.69670 0.75440 0.03800
H 	H 	0.62950 0.79950 0.74920 0.04500
H 	H 	0.91930 0.80170 0.83870 0.03600
H 	H 	0.12350 0.77620 0.79570 0.03600
H 	H 	0.76470 0.52550 0.67990 0.09600
H 	H 	0.67430 0.41820 0.66150 0.06900
H 	H 	0.76010 0.39940 0.78060 0.04900
H 	H 	0.88940 0.50320 0.78640 0.04300
H 	H 	0.03350 0.40090 0.87130 0.01200
H 	H 	0.24310 0.42900 0.83090 0.02800
H 	H 	0.99240 0.24520 0.82250 0.06500
H 	H 	0.23620 0.19670 0.74560 0.03900
H 	H 	0.37050 0.29950 0.75080 0.04500
H 	H 	0.08070 0.30170 0.66130 0.03500
H 	H 	0.87650 0.27620 0.70430 0.03500
C 	C 	0.81490 0.03890 0.16530 -0.22200
C 	C 	0.91320 0.06720 0.27900 -0.08600
C 	C 	0.09390 0.10800 0.33040 -0.03600
C 	C 	0.14400 0.21880 0.32040 -0.14500
C 	C 	0.21680 0.23280 0.25370 -0.05600
C 	C 	0.02830 0.18910 0.20320 -0.06700
C 	C 	0.32600 0.26090 0.37170 0.33600
C 	C 	0.18510 0.53890 0.33470 -0.22300
C 	C 	0.08680 0.56720 0.22100 -0.08500
C 	C 	0.90610 0.60800 0.16960 -0.03700
C 	C 	0.85600 0.71880 0.17960 -0.14200
C 	C 	0.78320 0.73280 0.24630 -0.05800
C 	C 	0.97170 0.68910 0.29680 -0.06400
C 	C 	0.67400 0.76090 0.12830 0.33500
C 	C 	0.18510 0.96110 0.83470 -0.22200
C 	C 	0.08680 0.93280 0.72100 -0.08600
C 	C 	0.90610 0.89200 0.66960 -0.03600
C 	C 	0.85600 0.78120 0.67960 -0.14500
C 	C 	0.78320 0.76720 0.74630 -0.05600
C 	C 	0.97170 0.81090 0.79680 -0.06700
C 	C 	0.67400 0.73910 0.62830 0.33600
C 	C 	0.81490 0.46110 0.66530 -0.22300
C 	C 	0.91320 0.43280 0.77900 -0.08500
C 	C 	0.09390 0.39200 0.83040 -0.03700
C 	C 	0.14400 0.28120 0.82040 -0.14200
C 	C 	0.21680 0.26720 0.75370 -0.05800
C 	C 	0.02830 0.31090 0.70320 -0.06400
C 	C 	0.32600 0.23910 0.87170 0.33500
N 	N 	0.99420 0.08120 0.21510 -0.06900
N 	N 	0.00580 0.58120 0.28490 -0.07000
N 	N 	0.00580 0.91880 0.78490 -0.06900
N 	N 	0.99420 0.41880 0.71510 -0.07000
O 	O 	0.68580 0.98260 0.04648 -0.64100
O 	O 	0.96320 0.12330 0.05740 -0.51400
O 	O 	0.12270 0.95240 0.09190 -0.50400
O 	O 	0.29920 0.24440 0.42940 -0.49700
O 	O 	0.49480 0.31510 0.35790 -0.44200
O 	O 	0.31420 0.48260 0.45352 -0.64000
O 	O 	0.03680 0.62330 0.44260 -0.51500
O 	O 	0.87730 0.45240 0.40810 -0.50300
O 	O 	0.70080 0.74440 0.07060 -0.49600
O 	O 	0.50520 0.81510 0.14210 -0.44200
O 	O 	0.31420 0.01740 0.95352 -0.64100
O 	O 	0.03680 0.87670 0.94260 -0.51400
O 	O 	0.87730 0.04760 0.90810 -0.50400
O 	O 	0.70080 0.75560 0.57060 -0.49700
O 	O 	0.50520 0.68490 0.64210 -0.44200
O 	O 	0.68580 0.51740 0.54648 -0.64000
O 	O 	0.96320 0.37670 0.55740 -0.51500
O 	O 	0.12270 0.54760 0.59190 -0.50300
O 	O 	0.29920 0.25560 0.92940 -0.49600
O 	O 	0.49480 0.18490 0.85790 -0.44200
