data_crystal

_cell_length_a 5.52340
_cell_length_b 13.34900
_cell_length_c 20.58600
_cell_angle_alpha 90.00000
_cell_angle_beta  95.29000
_cell_angle_gamma 90.00000

_symmetry_space_group_name_	'P 1'
_symmetry_space_group_name_H-M	'P 1'

loop_
_symmetry_equiv_pos_as_xyz
  x,y,z

loop_
_atom_site_label
_atom_site_type_symbol
_atom_site_fract_x
_atom_site_fract_y
_atom_site_fract_z
_atom_site_charge
Y 	Y 	0.62640 0.13175 0.97210 2.36200
Y 	Y 	0.37360 0.63175 0.52790 2.36200
Y 	Y 	0.37360 0.86825 0.02790 2.36100
Y 	Y 	0.62640 0.36825 0.47210 2.36100
P 	P 	0.90840 0.02047 0.08510 0.48800
P 	P 	0.09160 0.52047 0.41490 0.48500
P 	P 	0.09160 0.97953 0.91490 0.48800
P 	P 	0.90840 0.47953 0.58510 0.48500
H 	H 	0.76520 0.97180 0.18260 0.11200
H 	H 	0.66640 0.07840 0.16320 0.07700
H 	H 	0.75660 0.10410 0.28540 0.05000
H 	H 	0.88400 0.99900 0.29110 0.04300
H 	H 	0.03830 0.10210 0.37750 0.00800
H 	H 	0.24740 0.07350 0.33420 0.02700
H 	H 	0.99020 0.25710 0.32600 0.07000
H 	H 	0.23020 0.30710 0.24610 0.03600
H 	H 	0.37350 0.20560 0.25130 0.04300
H 	H 	0.09070 0.19820 0.16120 0.03700
H 	H 	0.87980 0.22610 0.20400 0.03800
H 	H 	0.23480 0.47180 0.31740 0.11300
H 	H 	0.33360 0.57840 0.33680 0.07700
H 	H 	0.24340 0.60410 0.21460 0.05000
H 	H 	0.11600 0.49900 0.20890 0.04300
H 	H 	0.96170 0.60210 0.12250 0.00900
H 	H 	0.75260 0.57350 0.16580 0.02700
H 	H 	0.00980 0.75710 0.17400 0.06800
H 	H 	0.76980 0.80710 0.25390 0.03700
H 	H 	0.62650 0.70560 0.24870 0.04300
H 	H 	0.90930 0.69820 0.33880 0.03600
H 	H 	0.12020 0.72610 0.29600 0.03600
H 	H 	0.23480 0.02820 0.81740 0.11200
H 	H 	0.33360 0.92160 0.83680 0.07700
H 	H 	0.24340 0.89590 0.71460 0.05000
H 	H 	0.11600 0.00100 0.70890 0.04300
H 	H 	0.96170 0.89790 0.62250 0.00800
H 	H 	0.75260 0.92650 0.66580 0.02700
H 	H 	0.00980 0.74290 0.67400 0.07000
H 	H 	0.76980 0.69290 0.75390 0.03600
H 	H 	0.62650 0.79440 0.74870 0.04300
H 	H 	0.90930 0.80180 0.83880 0.03700
H 	H 	0.12020 0.77390 0.79600 0.03800
H 	H 	0.76520 0.52820 0.68260 0.11300
H 	H 	0.66640 0.42160 0.66320 0.07700
H 	H 	0.75660 0.39590 0.78540 0.05000
H 	H 	0.88400 0.50100 0.79110 0.04300
H 	H 	0.03830 0.39790 0.87750 0.00900
H 	H 	0.24740 0.42650 0.83420 0.02700
H 	H 	0.99020 0.24290 0.82600 0.06800
H 	H 	0.23020 0.19290 0.74610 0.03700
H 	H 	0.37350 0.29440 0.75130 0.04300
H 	H 	0.09070 0.30180 0.66120 0.03600
H 	H 	0.87980 0.27390 0.70400 0.03600
C 	C 	0.81110 0.03690 0.16660 -0.24900
C 	C 	0.91000 0.06960 0.28300 -0.09000
C 	C 	0.09670 0.11070 0.33490 -0.03200
C 	C 	0.14420 0.22160 0.32320 -0.15400
C 	C 	0.21570 0.23600 0.25470 -0.04600
C 	C 	0.03280 0.19040 0.20400 -0.07500
C 	C 	0.32790 0.26620 0.37490 0.33900
C 	C 	0.18890 0.53690 0.33340 -0.25000
C 	C 	0.09000 0.56960 0.21700 -0.09000
C 	C 	0.90330 0.61070 0.16510 -0.03300
C 	C 	0.85580 0.72160 0.17680 -0.15100
C 	C 	0.78430 0.73600 0.24530 -0.04900
C 	C 	0.96720 0.69040 0.29600 -0.07100
C 	C 	0.67210 0.76620 0.12510 0.33800
C 	C 	0.18890 0.96310 0.83340 -0.24900
C 	C 	0.09000 0.93040 0.71700 -0.09000
C 	C 	0.90330 0.88930 0.66510 -0.03200
C 	C 	0.85580 0.77840 0.67680 -0.15400
C 	C 	0.78430 0.76400 0.74530 -0.04600
C 	C 	0.96720 0.80960 0.79600 -0.07500
C 	C 	0.67210 0.73380 0.62510 0.33900
C 	C 	0.81110 0.46310 0.66660 -0.25000
C 	C 	0.91000 0.43040 0.78300 -0.09000
C 	C 	0.09670 0.38930 0.83490 -0.03300
C 	C 	0.14420 0.27840 0.82320 -0.15100
C 	C 	0.21570 0.26400 0.75470 -0.04900
C 	C 	0.03280 0.30960 0.70400 -0.07100
C 	C 	0.32790 0.23380 0.87490 0.33800
N 	N 	0.99150 0.08250 0.21640 -0.06100
N 	N 	0.00850 0.58250 0.28360 -0.06200
N 	N 	0.00850 0.91750 0.78360 -0.06100
N 	N 	0.99150 0.41750 0.71640 -0.06200
O 	O 	0.67980 0.97990 0.04550 -0.77400
O 	O 	0.95750 0.12190 0.05410 -0.59200
O 	O 	0.12260 0.95040 0.09070 -0.57700
O 	O 	0.30270 0.24880 0.43420 -0.57300
O 	O 	0.49510 0.32100 0.35940 -0.50600
O 	O 	0.32020 0.47990 0.45450 -0.77300
O 	O 	0.04250 0.62190 0.44590 -0.59300
O 	O 	0.87740 0.45040 0.40930 -0.57400
O 	O 	0.69730 0.74880 0.06580 -0.57200
O 	O 	0.50490 0.82100 0.14060 -0.50600
O 	O 	0.32020 0.02010 0.95450 -0.77400
O 	O 	0.04250 0.87810 0.94590 -0.59200
O 	O 	0.87740 0.04960 0.90930 -0.57700
O 	O 	0.69730 0.75120 0.56580 -0.57300
O 	O 	0.50490 0.67900 0.64060 -0.50600
O 	O 	0.67980 0.52010 0.54550 -0.77300
O 	O 	0.95750 0.37810 0.55410 -0.59300
O 	O 	0.12260 0.54960 0.59070 -0.57400
O 	O 	0.30270 0.25120 0.93420 -0.57200
O 	O 	0.49510 0.17900 0.85940 -0.50600
