data_crystal

_cell_length_a 5.53400
_cell_length_b 13.43600
_cell_length_c 20.89100
_cell_angle_alpha 90.00000
_cell_angle_beta  96.15900
_cell_angle_gamma 90.00000

_symmetry_space_group_name_	'P 1'
_symmetry_space_group_name_H-M	'P 1'

loop_
_symmetry_equiv_pos_as_xyz
  x,y,z

loop_
_atom_site_label
_atom_site_type_symbol
_atom_site_fract_x
_atom_site_fract_y
_atom_site_fract_z
_atom_site_charge
Gd	Gd	0.62624 0.13165 0.97231 1.40700
Gd	Gd	0.37376 0.63165 0.52769 1.40600
Gd	Gd	0.37376 0.86835 0.02769 1.40800
Gd	Gd	0.62624 0.36835 0.47231 1.40700
P 	P 	0.91360 0.02230 0.08645 0.47900
P 	P 	0.08640 0.52230 0.41355 0.47800
P 	P 	0.08640 0.97770 0.91355 0.47900
P 	P 	0.91360 0.47770 0.58645 0.47800
H 	H 	0.77070 0.97380 0.18150 0.10500
H 	H 	0.67910 0.08110 0.16330 0.08500
H 	H 	0.76630 0.09660 0.28180 0.05100
H 	H 	0.90590 0.99490 0.28820 0.04600
H 	H 	0.03630 0.09810 0.37310 0.03100
H 	H 	0.25150 0.07320 0.33270 0.04000
H 	H 	0.98680 0.25350 0.32480 0.07300
H 	H 	0.22690 0.30400 0.24740 0.04200
H 	H 	0.36840 0.20270 0.25280 0.05000
H 	H 	0.07900 0.19860 0.16180 0.05100
H 	H 	0.86950 0.22070 0.20500 0.04600
H 	H 	0.22930 0.47380 0.31850 0.10500
H 	H 	0.32090 0.58110 0.33670 0.08500
H 	H 	0.23370 0.59660 0.21820 0.05100
H 	H 	0.09410 0.49490 0.21180 0.04500
H 	H 	0.96370 0.59810 0.12690 0.03200
H 	H 	0.74850 0.57320 0.16730 0.04100
H 	H 	0.01320 0.75350 0.17520 0.07200
H 	H 	0.77310 0.80400 0.25260 0.04300
H 	H 	0.63160 0.70270 0.24720 0.05000
H 	H 	0.92100 0.69860 0.33820 0.05100
H 	H 	0.13050 0.72070 0.29500 0.04500
H 	H 	0.22930 0.02620 0.81850 0.10500
H 	H 	0.32090 0.91890 0.83670 0.08500
H 	H 	0.23370 0.90340 0.71820 0.05100
H 	H 	0.09410 0.00510 0.71180 0.04600
H 	H 	0.96370 0.90190 0.62690 0.03100
H 	H 	0.74850 0.92680 0.66730 0.04000
H 	H 	0.01320 0.74650 0.67520 0.07300
H 	H 	0.77310 0.69600 0.75260 0.04200
H 	H 	0.63160 0.79730 0.74720 0.05000
H 	H 	0.92100 0.80140 0.83820 0.05100
H 	H 	0.13050 0.77930 0.79500 0.04600
H 	H 	0.77070 0.52620 0.68150 0.10500
H 	H 	0.67910 0.41890 0.66330 0.08500
H 	H 	0.76630 0.40340 0.78180 0.05100
H 	H 	0.90590 0.50510 0.78820 0.04500
H 	H 	0.03630 0.40190 0.87310 0.03200
H 	H 	0.25150 0.42680 0.83270 0.04100
H 	H 	0.98680 0.24650 0.82480 0.07200
H 	H 	0.22690 0.19600 0.74740 0.04300
H 	H 	0.36840 0.29730 0.75280 0.05000
H 	H 	0.07900 0.30140 0.66180 0.05100
H 	H 	0.86950 0.27930 0.70500 0.04500
C 	C 	0.82100 0.03820 0.16670 -0.22800
C 	C 	0.92400 0.06560 0.28040 -0.07800
C 	C 	0.09800 0.10830 0.33180 -0.04900
C 	C 	0.14200 0.21950 0.32270 -0.13400
C 	C 	0.21100 0.23340 0.25570 -0.05600
C 	C 	0.02600 0.18830 0.20410 -0.07500
C 	C 	0.32200 0.26400 0.37470 0.31000
C 	C 	0.17900 0.53820 0.33330 -0.22800
C 	C 	0.07600 0.56560 0.21960 -0.07600
C 	C 	0.90200 0.60830 0.16820 -0.05100
C 	C 	0.85800 0.71950 0.17730 -0.13100
C 	C 	0.78900 0.73340 0.24430 -0.05700
C 	C 	0.97400 0.68830 0.29590 -0.07300
C 	C 	0.67800 0.76400 0.12530 0.30900
C 	C 	0.17900 0.96180 0.83330 -0.22800
C 	C 	0.07600 0.93440 0.71960 -0.07800
C 	C 	0.90200 0.89170 0.66820 -0.04900
C 	C 	0.85800 0.78050 0.67730 -0.13400
C 	C 	0.78900 0.76660 0.74430 -0.05600
C 	C 	0.97400 0.81170 0.79590 -0.07500
C 	C 	0.67800 0.73600 0.62530 0.31000
C 	C 	0.82100 0.46180 0.66670 -0.22800
C 	C 	0.92400 0.43440 0.78040 -0.07600
C 	C 	0.09800 0.39170 0.83180 -0.05100
C 	C 	0.14200 0.28050 0.82270 -0.13100
C 	C 	0.21100 0.26660 0.75570 -0.05700
C 	C 	0.02600 0.31170 0.70410 -0.07300
C 	C 	0.32200 0.23600 0.87470 0.30900
N 	N 	0.00210 0.07990 0.21650 -0.06400
N 	N 	0.99790 0.57990 0.28350 -0.06400
N 	N 	0.99790 0.92010 0.78350 -0.06400
N 	N 	0.00210 0.42010 0.71650 -0.06400
O 	O 	0.68210 0.98130 0.04560 -0.50900
O 	O 	0.95920 0.12240 0.05730 -0.42500
O 	O 	0.12730 0.95360 0.09030 -0.41800
O 	O 	0.29760 0.24780 0.43310 -0.40900
O 	O 	0.49810 0.31690 0.35970 -0.37300
O 	O 	0.31790 0.48130 0.45440 -0.50900
O 	O 	0.04080 0.62240 0.44270 -0.42500
O 	O 	0.87270 0.45360 0.40970 -0.41700
O 	O 	0.70240 0.74780 0.06690 -0.40800
O 	O 	0.50190 0.81690 0.14030 -0.37300
O 	O 	0.31790 0.01870 0.95440 -0.50900
O 	O 	0.04080 0.87760 0.94270 -0.42500
O 	O 	0.87270 0.04640 0.90970 -0.41800
O 	O 	0.70240 0.75220 0.56690 -0.40900
O 	O 	0.50190 0.68310 0.64030 -0.37300
O 	O 	0.68210 0.51870 0.54560 -0.50900
O 	O 	0.95920 0.37760 0.55730 -0.42500
O 	O 	0.12730 0.54640 0.59030 -0.41700
O 	O 	0.29760 0.25220 0.93310 -0.40800
O 	O 	0.49810 0.18310 0.85970 -0.37300
