data_crystal

_cell_length_a 15.81400
_cell_length_b 15.90370
_cell_length_c 18.49740
_cell_angle_alpha 90.00000
_cell_angle_beta  90.00000
_cell_angle_gamma 90.00000

_symmetry_space_group_name_	'P 1'
_symmetry_space_group_name_H-M	'P 1'

loop_
_symmetry_equiv_pos_as_xyz
  x,y,z

loop_
_atom_site_label
_atom_site_type_symbol
_atom_site_fract_x
_atom_site_fract_y
_atom_site_fract_z
_atom_site_charge
C 	C 	0.87060 0.97730 0.54900 0.08300
H 	H 	0.83810 0.98860 0.58970 0.00300
C 	C 	0.93630 0.91970 0.55560 -0.13100
H 	H 	0.94840 0.89510 0.60010 0.06900
C 	C 	0.98440 0.89900 0.49400 0.05900
C 	C 	0.96490 0.94100 0.43110 -0.14000
H 	H 	0.99620 0.93100 0.38940 0.07500
C 	C 	0.89860 0.99810 0.42970 0.09200
H 	H 	0.88590 0.02460 0.38620 -0.00500
C 	C 	0.05010 0.83170 0.49910 0.05300
C 	C 	0.11230 0.82160 0.44760 -0.13400
H 	H 	0.11520 0.85880 0.40880 0.07500
C 	C 	0.10930 0.71130 0.55830 0.07500
H 	H 	0.10750 0.67310 0.59640 -0.00000
C 	C 	0.17030 0.75700 0.45280 0.07700
H 	H 	0.21160 0.75150 0.41730 0.00100
C 	C 	0.05070 0.77510 0.55670 -0.13500
H 	H 	0.01160 0.78050 0.59390 0.06900
C 	C 	0.63590 0.96980 0.55690 0.05300
H 	H 	0.65310 0.99500 0.59990 0.01500
C 	C 	0.57680 0.90580 0.55980 -0.11900
H 	H 	0.55590 0.88810 0.60420 0.06600
C 	C 	0.54850 0.86780 0.49670 0.04700
C 	C 	0.58570 0.89400 0.43270 -0.12700
H 	H 	0.57080 0.86880 0.38920 0.06900
C 	C 	0.64530 0.95790 0.43400 0.07800
H 	H 	0.66960 0.97380 0.39030 0.00300
C 	C 	0.48050 0.80290 0.49850 0.06200
C 	C 	0.42280 0.80080 0.55460 -0.13700
H 	H 	0.42700 0.83980 0.59190 0.07000
C 	C 	0.35910 0.74170 0.55590 0.07900
H 	H 	0.32040 0.74260 0.59370 -0.00100
C 	C 	0.40740 0.68370 0.45060 0.07700
H 	H 	0.40340 0.64280 0.41480 0.00000
C 	C 	0.47170 0.74310 0.44570 -0.13900
H 	H 	0.50860 0.74230 0.40650 0.07300
Cu	Cu	0.75001 0.09919 0.49020 0.89400
N 	N 	0.85180 0.01680 0.48830 -0.22300
N 	N 	0.35120 0.68280 0.50430 -0.21200
N 	N 	0.67000 0.99760 0.49290 -0.21100
N 	N 	0.16850 0.70180 0.50790 -0.21200
C 	C 	0.12940 0.47730 0.45100 0.06900
H 	H 	0.16190 0.48860 0.41030 0.00400
C 	C 	0.06370 0.41970 0.44440 -0.12300
H 	H 	0.05160 0.39510 0.39990 0.06400
C 	C 	0.01560 0.39900 0.50600 0.04700
C 	C 	0.03510 0.44100 0.56890 -0.12600
H 	H 	0.00380 0.43100 0.61060 0.06800
C 	C 	0.10140 0.49810 0.57030 0.06700
H 	H 	0.11410 0.52460 0.61380 0.00800
C 	C 	0.94990 0.33170 0.50090 0.05800
C 	C 	0.88770 0.32160 0.55240 -0.13700
H 	H 	0.88480 0.35880 0.59120 0.07500
C 	C 	0.89070 0.21130 0.44170 0.07600
H 	H 	0.89250 0.17310 0.40360 -0.00100
C 	C 	0.82970 0.25700 0.54720 0.07800
H 	H 	0.78840 0.25150 0.58270 0.00000
C 	C 	0.94930 0.27510 0.44330 -0.13900
H 	H 	0.98840 0.28050 0.40610 0.07000
C 	C 	0.36410 0.46980 0.44310 0.05200
H 	H 	0.34690 0.49500 0.40010 0.01300
C 	C 	0.42320 0.40580 0.44020 -0.12000
H 	H 	0.44410 0.38810 0.39580 0.06600
C 	C 	0.45150 0.36780 0.50330 0.04700
C 	C 	0.41430 0.39400 0.56730 -0.12800
H 	H 	0.42920 0.36880 0.61080 0.06900
C 	C 	0.35470 0.45790 0.56600 0.07700
H 	H 	0.33040 0.47380 0.60970 0.00100
C 	C 	0.51950 0.30290 0.50150 0.06200
C 	C 	0.57720 0.30080 0.44540 -0.13700
H 	H 	0.57300 0.33980 0.40810 0.06900
C 	C 	0.64090 0.24170 0.44410 0.07800
H 	H 	0.67960 0.24260 0.40630 -0.00100
C 	C 	0.59260 0.18370 0.54940 0.07700
H 	H 	0.59660 0.14280 0.58520 -0.00100
C 	C 	0.52830 0.24310 0.55430 -0.13900
H 	H 	0.49140 0.24230 0.59350 0.07300
Cu	Cu	0.24999 0.59919 0.50980 0.89500
N 	N 	0.14820 0.51680 0.51170 -0.21100
N 	N 	0.64880 0.18280 0.49570 -0.21200
N 	N 	0.33000 0.49760 0.50710 -0.21300
N 	N 	0.83150 0.20180 0.49210 -0.21300
C 	C 	0.62940 0.97730 0.04900 0.08200
H 	H 	0.66190 0.98860 0.08970 0.00200
C 	C 	0.56370 0.91970 0.05560 -0.13300
H 	H 	0.55160 0.89510 0.10010 0.06800
C 	C 	0.51560 0.89900 0.99400 0.05700
C 	C 	0.53510 0.94100 0.93110 -0.14100
H 	H 	0.50380 0.93100 0.88940 0.07400
C 	C 	0.60140 0.99810 0.92970 0.09400
H 	H 	0.61410 0.02460 0.88620 -0.00600
C 	C 	0.44990 0.83170 0.99910 0.05600
C 	C 	0.38770 0.82160 0.94760 -0.13600
H 	H 	0.38480 0.85880 0.90880 0.07600
C 	C 	0.39070 0.71130 0.05830 0.07600
H 	H 	0.39250 0.67310 0.09640 -0.00100
C 	C 	0.32970 0.75700 0.95280 0.07900
H 	H 	0.28840 0.75150 0.91730 0.00000
C 	C 	0.44930 0.77510 0.05670 -0.13800
H 	H 	0.48840 0.78050 0.09390 0.06900
C 	C 	0.86410 0.96980 0.05690 0.05100
H 	H 	0.84690 0.99500 0.09990 0.01500
C 	C 	0.92320 0.90580 0.05980 -0.11600
H 	H 	0.94410 0.88810 0.10420 0.06600
C 	C 	0.95150 0.86780 0.99670 0.04200
C 	C 	0.91430 0.89400 0.93270 -0.12500
H 	H 	0.92920 0.86880 0.88920 0.06800
C 	C 	0.85470 0.95790 0.93400 0.07700
H 	H 	0.83040 0.97380 0.89030 0.00400
C 	C 	0.01950 0.80290 0.99850 0.06800
C 	C 	0.07720 0.80080 0.05460 -0.14300
H 	H 	0.07300 0.83980 0.09190 0.07100
C 	C 	0.14090 0.74170 0.05590 0.08100
H 	H 	0.17960 0.74260 0.09370 -0.00200
C 	C 	0.09260 0.68370 0.95060 0.08000
H 	H 	0.09660 0.64280 0.91480 -0.00000
C 	C 	0.02830 0.74310 0.94570 -0.14100
H 	H 	0.99140 0.74230 0.90650 0.07400
Cu	Cu	0.74999 0.09919 0.99020 0.89300
N 	N 	0.64820 0.01680 0.98830 -0.22300
N 	N 	0.14880 0.68280 0.00430 -0.21300
N 	N 	0.83000 0.99760 0.99290 -0.21100
N 	N 	0.33150 0.70180 0.00790 -0.21300
C 	C 	0.37060 0.47730 0.95100 0.07000
H 	H 	0.33810 0.48860 0.91030 0.00400
C 	C 	0.43630 0.41970 0.94440 -0.12300
H 	H 	0.44840 0.39510 0.89990 0.06300
C 	C 	0.48440 0.39900 0.00600 0.04600
C 	C 	0.46490 0.44100 0.06890 -0.12500
H 	H 	0.49620 0.43100 0.11060 0.06700
C 	C 	0.39860 0.49810 0.07030 0.06600
H 	H 	0.38590 0.52460 0.11380 0.00800
C 	C 	0.55010 0.33170 0.00090 0.06100
C 	C 	0.61230 0.32160 0.05240 -0.13900
H 	H 	0.61520 0.35880 0.09120 0.07600
C 	C 	0.60930 0.21130 0.94170 0.07800
H 	H 	0.60750 0.17310 0.90360 -0.00200
C 	C 	0.67030 0.25700 0.04720 0.08100
H 	H 	0.71160 0.25150 0.08270 -0.00000
C 	C 	0.55070 0.27510 0.94330 -0.14100
H 	H 	0.51160 0.28050 0.90610 0.07000
C 	C 	0.13590 0.46980 0.94310 0.05100
H 	H 	0.15310 0.49500 0.90010 0.01300
C 	C 	0.07680 0.40580 0.94020 -0.11600
H 	H 	0.05590 0.38810 0.89580 0.06500
C 	C 	0.04850 0.36780 0.00330 0.04100
C 	C 	0.08570 0.39400 0.06730 -0.12500
H 	H 	0.07080 0.36880 0.11080 0.06800
C 	C 	0.14530 0.45790 0.06600 0.07600
H 	H 	0.16960 0.47380 0.10970 0.00200
C 	C 	0.98050 0.30290 0.00150 0.06900
C 	C 	0.92280 0.30080 0.94540 -0.14400
H 	H 	0.92700 0.33980 0.90810 0.07100
C 	C 	0.85910 0.24170 0.94410 0.08100
H 	H 	0.82040 0.24260 0.90630 -0.00200
C 	C 	0.90740 0.18370 0.04940 0.08100
H 	H 	0.90340 0.14280 0.08520 -0.00200
C 	C 	0.97170 0.24310 0.05430 -0.14200
H 	H 	0.00860 0.24230 0.09350 0.07400
Cu	Cu	0.25001 0.59919 0.00980 0.89500
N 	N 	0.35180 0.51680 0.01170 -0.21200
N 	N 	0.85120 0.18280 0.99570 -0.21400
N 	N 	0.17000 0.49760 0.00710 -0.21300
N 	N 	0.66850 0.20180 0.99210 -0.21400
C 	C 	0.71150 0.11650 0.17180 0.36600
C 	C 	0.70980 0.11820 0.31140 0.37300
C 	C 	0.74610 0.16040 0.24270 -0.18200
H 	H 	0.73380 0.22080 0.24230 0.12200
C 	C 	0.84630 0.14390 0.24120 -0.00900
H 	H 	0.86900 0.16260 0.19580 0.02300
H 	H 	0.85710 0.08480 0.24690 0.00700
H 	H 	0.87270 0.17430 0.27990 -0.02100
C 	C 	0.39940 0.03630 0.16720 0.07400
H 	H 	0.39130 0.01220 0.21240 -0.01400
C 	C 	0.34940 0.01000 0.11060 -0.14500
H 	H 	0.30940 0.96780 0.11760 0.07900
C 	C 	0.35930 0.04710 0.04280 0.06700
C 	C 	0.41910 0.10910 0.03600 -0.13700
H 	H 	0.42650 0.13670 0.99210 0.07800
C 	C 	0.46850 0.13030 0.09570 0.09100
H 	H 	0.50990 0.17120 0.08980 -0.00200
C 	C 	0.30760 0.01720 0.97960 0.04400
C 	C 	0.23630 0.96670 0.98760 -0.12000
H 	H 	0.21850 0.95160 0.03380 0.06700
C 	C 	0.19320 0.93960 0.93050 0.07500
H 	H 	0.14550 0.90680 0.93890 0.01100
C 	C 	0.27990 0.00390 0.85430 0.06900
H 	H 	0.29520 0.01810 0.80730 0.00400
C 	C 	0.32860 0.03450 0.90960 -0.13200
H 	H 	0.37590 0.06710 0.89950 0.07000
C 	C 	0.46990 0.09390 0.38070 0.08400
H 	H 	0.51350 0.05520 0.38620 -0.00300
C 	C 	0.41990 0.11230 0.44120 -0.12700
H 	H 	0.42980 0.08540 0.48500 0.07400
C 	C 	0.35520 0.17100 0.43510 0.05600
C 	C 	0.34280 0.20540 0.36630 -0.13200
H 	H 	0.29950 0.24390 0.35850 0.07200
C 	C 	0.39550 0.18190 0.30990 0.07600
H 	H 	0.38560 0.20530 0.26460 -0.01200
C 	C 	0.30680 0.19860 0.49830 0.05700
C 	C 	0.32120 0.16650 0.56550 -0.13100
H 	H 	0.36090 0.12410 0.57200 0.07000
C 	C 	0.27610 0.19750 0.62440 0.07100
H 	H 	0.28620 0.17350 0.66940 0.00600
C 	C 	0.20610 0.28920 0.55370 0.07100
H 	H 	0.16720 0.33270 0.54860 0.01600
C 	C 	0.24500 0.26080 0.49320 -0.12800
H 	H 	0.23050 0.28270 0.44830 0.07200
Cu	Cu	0.54696 0.11334 0.23956 0.89100
N 	N 	0.45990 0.09590 0.15960 -0.23000
N 	N 	0.21340 0.95610 0.86270 -0.13500
N 	N 	0.45880 0.12810 0.31650 -0.23400
N 	N 	0.21960 0.25920 0.62050 -0.13400
O 	O 	0.75820 0.10520 0.11935 -0.36500
O 	O 	0.63190 0.11290 0.16630 -0.43400
O 	O 	0.75620 0.10550 0.36448 -0.36900
O 	O 	0.63070 0.11730 0.31602 -0.43200
C 	C 	0.75680 0.12790 0.24190 -0.03900
C 	C 	0.79980 0.21250 0.24140 -0.24400
H 	H 	0.80210 0.08580 0.24270 0.05000
H 	H 	0.82230 0.22340 0.19410 0.09800
H 	H 	0.84500 0.21260 0.27610 0.11700
H 	H 	0.75960 0.25540 0.25370 0.02800
C 	C 	0.28850 0.61650 0.82820 0.36600
C 	C 	0.29020 0.61820 0.68860 0.37300
C 	C 	0.25390 0.66040 0.75730 -0.18200
H 	H 	0.26620 0.72080 0.75770 0.12200
C 	C 	0.15370 0.64390 0.75880 -0.00900
H 	H 	0.13100 0.66260 0.80420 0.02300
H 	H 	0.14290 0.58480 0.75310 0.00800
H 	H 	0.12730 0.67430 0.72010 -0.02100
C 	C 	0.60060 0.53630 0.83280 0.06500
H 	H 	0.60870 0.51220 0.78760 -0.01000
C 	C 	0.65060 0.51000 0.88940 -0.12600
H 	H 	0.69060 0.46780 0.88240 0.07000
C 	C 	0.64070 0.54710 0.95720 0.05300
C 	C 	0.58090 0.60910 0.96400 -0.12900
H 	H 	0.57350 0.63670 0.00790 0.07600
C 	C 	0.53150 0.63030 0.90430 0.08700
H 	H 	0.49010 0.67120 0.91020 -0.00000
C 	C 	0.69240 0.51720 0.02040 0.06700
C 	C 	0.76370 0.46670 0.01240 -0.14300
H 	H 	0.78150 0.45160 0.96620 0.07500
C 	C 	0.80680 0.43960 0.06950 0.08700
H 	H 	0.85450 0.40680 0.06110 0.00600
C 	C 	0.72010 0.50390 0.14570 0.08500
H 	H 	0.70480 0.51810 0.19270 -0.00000
C 	C 	0.67140 0.53450 0.09040 -0.14800
H 	H 	0.62410 0.56710 0.10050 0.07600
C 	C 	0.53010 0.59390 0.61930 0.08400
H 	H 	0.48650 0.55520 0.61380 -0.00200
C 	C 	0.58010 0.61230 0.55880 -0.12700
H 	H 	0.57020 0.58540 0.51500 0.07500
C 	C 	0.64480 0.67100 0.56490 0.05600
C 	C 	0.65720 0.70540 0.63370 -0.13200
H 	H 	0.70050 0.74390 0.64150 0.07200
C 	C 	0.60450 0.68190 0.69010 0.07700
H 	H 	0.61440 0.70530 0.73540 -0.01200
C 	C 	0.69320 0.69860 0.50170 0.05700
C 	C 	0.67880 0.66650 0.43450 -0.13100
H 	H 	0.63910 0.62410 0.42800 0.07100
C 	C 	0.72390 0.69750 0.37560 0.07100
H 	H 	0.71380 0.67350 0.33060 0.00700
C 	C 	0.79390 0.78920 0.44630 0.07200
H 	H 	0.83280 0.83270 0.45140 0.01600
C 	C 	0.75500 0.76080 0.50680 -0.12900
H 	H 	0.76950 0.78270 0.55170 0.07200
Cu	Cu	0.45304 0.61334 0.76044 0.89100
N 	N 	0.54010 0.59590 0.84040 -0.22700
N 	N 	0.78660 0.45610 0.13730 -0.14400
N 	N 	0.54120 0.62810 0.68350 -0.23400
N 	N 	0.78040 0.75920 0.37950 -0.13400
O 	O 	0.24180 0.60520 0.88065 -0.36400
O 	O 	0.36810 0.61290 0.83370 -0.43300
O 	O 	0.24380 0.60550 0.63552 -0.36800
O 	O 	0.36930 0.61730 0.68398 -0.43100
C 	C 	0.24320 0.62790 0.75810 -0.03900
C 	C 	0.20020 0.71250 0.75860 -0.24600
H 	H 	0.19790 0.58580 0.75730 0.05000
H 	H 	0.17770 0.72340 0.80590 0.09900
H 	H 	0.15500 0.71260 0.72390 0.11800
H 	H 	0.24040 0.75540 0.74630 0.02900
C 	C 	0.78850 0.11650 0.67180 0.36600
C 	C 	0.79020 0.11820 0.81140 0.37300
C 	C 	0.75390 0.16040 0.74270 -0.18200
H 	H 	0.76620 0.22080 0.74230 0.12200
C 	C 	0.65370 0.14390 0.74120 -0.00900
H 	H 	0.63100 0.16260 0.69580 0.02300
H 	H 	0.64290 0.08480 0.74690 0.00700
H 	H 	0.62730 0.17430 0.77990 -0.02100
C 	C 	0.10060 0.03630 0.66720 0.07400
H 	H 	0.10870 0.01220 0.71240 -0.01400
C 	C 	0.15060 0.01000 0.61060 -0.14600
H 	H 	0.19060 0.96780 0.61760 0.08000
C 	C 	0.14070 0.04710 0.54280 0.06600
C 	C 	0.08090 0.10910 0.53600 -0.13900
H 	H 	0.07350 0.13670 0.49210 0.07900
C 	C 	0.03150 0.13030 0.59570 0.09400
H 	H 	0.99010 0.17120 0.58980 -0.00300
C 	C 	0.19240 0.01720 0.47960 0.05000
C 	C 	0.26370 0.96670 0.48760 -0.12900
H 	H 	0.28150 0.95160 0.53380 0.07200
C 	C 	0.30680 0.93960 0.43050 0.08000
H 	H 	0.35450 0.90680 0.43890 0.00900
C 	C 	0.22010 0.00390 0.35430 0.07300
H 	H 	0.20480 0.01810 0.30730 0.00300
C 	C 	0.17140 0.03450 0.40960 -0.13600
H 	H 	0.12410 0.06710 0.39950 0.07100
C 	C 	0.03010 0.09390 0.88070 0.08900
H 	H 	0.98650 0.05520 0.88620 -0.00700
C 	C 	0.08010 0.11230 0.94120 -0.13000
H 	H 	0.07020 0.08540 0.98500 0.07500
C 	C 	0.14480 0.17100 0.93510 0.05700
C 	C 	0.15720 0.20540 0.86630 -0.13400
H 	H 	0.20050 0.24390 0.85850 0.07200
C 	C 	0.10450 0.18190 0.80990 0.07700
H 	H 	0.11440 0.20530 0.76460 -0.01200
C 	C 	0.19320 0.19860 0.99830 0.05600
C 	C 	0.17880 0.16650 0.06550 -0.13100
H 	H 	0.13910 0.12410 0.07200 0.07000
C 	C 	0.22390 0.19750 0.12440 0.07100
H 	H 	0.21380 0.17350 0.16940 0.00600
C 	C 	0.29390 0.28920 0.05370 0.07100
H 	H 	0.33280 0.33270 0.04860 0.01600
C 	C 	0.25500 0.26080 0.99320 -0.12800
H 	H 	0.26950 0.28270 0.94830 0.07100
Cu	Cu	0.95304 0.11334 0.73956 0.89000
N 	N 	0.04010 0.09590 0.65960 -0.23000
N 	N 	0.28660 0.95610 0.36270 -0.13800
N 	N 	0.04120 0.12810 0.81650 -0.23500
N 	N 	0.28040 0.25920 0.12050 -0.13400
O 	O 	0.74180 0.10520 0.61935 -0.36600
O 	O 	0.86810 0.11290 0.66630 -0.43400
O 	O 	0.74380 0.10550 0.86448 -0.36900
O 	O 	0.86930 0.11730 0.81602 -0.43300
C 	C 	0.74320 0.12790 0.74190 -0.03900
C 	C 	0.70020 0.21250 0.74140 -0.24300
H 	H 	0.69790 0.08580 0.74270 0.05000
H 	H 	0.67770 0.22340 0.69410 0.09800
H 	H 	0.65500 0.21260 0.77610 0.11700
H 	H 	0.74040 0.25540 0.75370 0.02700
C 	C 	0.21150 0.61650 0.32820 0.36600
C 	C 	0.20980 0.61820 0.18860 0.37400
C 	C 	0.24610 0.66040 0.25730 -0.18200
H 	H 	0.23380 0.72080 0.25770 0.12200
C 	C 	0.34630 0.64390 0.25880 -0.00800
H 	H 	0.36900 0.66260 0.30420 0.02300
H 	H 	0.35710 0.58480 0.25310 0.00800
H 	H 	0.37270 0.67430 0.22010 -0.02100
C 	C 	0.89940 0.53630 0.33280 0.06500
H 	H 	0.89130 0.51220 0.28760 -0.00900
C 	C 	0.84940 0.51000 0.38940 -0.12600
H 	H 	0.80940 0.46780 0.38240 0.07000
C 	C 	0.85930 0.54710 0.45720 0.05400
C 	C 	0.91910 0.60910 0.46400 -0.13000
H 	H 	0.92650 0.63670 0.50790 0.07600
C 	C 	0.96850 0.63030 0.40430 0.08900
H 	H 	0.00990 0.67120 0.41020 -0.00100
C 	C 	0.80760 0.51720 0.52040 0.06700
C 	C 	0.73630 0.46670 0.51240 -0.14700
H 	H 	0.71850 0.45160 0.46620 0.07700
C 	C 	0.69320 0.43960 0.56950 0.08800
H 	H 	0.64550 0.40680 0.56110 0.00500
C 	C 	0.77990 0.50390 0.64570 0.08600
H 	H 	0.79520 0.51810 0.69270 -0.00000
C 	C 	0.82860 0.53450 0.59040 -0.14900
H 	H 	0.87590 0.56710 0.60050 0.07700
C 	C 	0.96990 0.59390 0.11930 0.08700
H 	H 	0.01350 0.55520 0.11380 -0.00400
C 	C 	0.91990 0.61230 0.05880 -0.12800
H 	H 	0.92980 0.58540 0.01500 0.07600
C 	C 	0.85520 0.67100 0.06490 0.05700
C 	C 	0.84280 0.70540 0.13370 -0.13300
H 	H 	0.79950 0.74390 0.14150 0.07200
C 	C 	0.89550 0.68190 0.19010 0.07700
H 	H 	0.88560 0.70530 0.23540 -0.01200
C 	C 	0.80680 0.69860 0.00170 0.05800
C 	C 	0.82120 0.66650 0.93450 -0.13200
H 	H 	0.86090 0.62410 0.92800 0.07000
C 	C 	0.77610 0.69750 0.87560 0.07200
H 	H 	0.78620 0.67350 0.83060 0.00700
C 	C 	0.70610 0.78920 0.94630 0.07100
H 	H 	0.66720 0.83270 0.95140 0.01600
C 	C 	0.74500 0.76080 0.00680 -0.12900
H 	H 	0.73050 0.78270 0.05170 0.07200
Cu	Cu	0.04696 0.61334 0.26044 0.89100
N 	N 	0.95990 0.59590 0.34040 -0.22700
N 	N 	0.71340 0.45610 0.63730 -0.14400
N 	N 	0.95880 0.62810 0.18350 -0.23400
N 	N 	0.71960 0.75920 0.87950 -0.13400
O 	O 	0.25820 0.60520 0.38065 -0.36400
O 	O 	0.13190 0.61290 0.33370 -0.43300
O 	O 	0.25620 0.60550 0.13552 -0.36800
O 	O 	0.13070 0.61730 0.18398 -0.43100
C 	C 	0.25680 0.62790 0.25810 -0.03900
C 	C 	0.29980 0.71250 0.25860 -0.24600
H 	H 	0.30210 0.58580 0.25730 0.05000
H 	H 	0.32230 0.72340 0.30590 0.09900
H 	H 	0.34500 0.71260 0.22390 0.11800
H 	H 	0.25960 0.75540 0.24630 0.02800
