data_crystal

_cell_length_a 22.65000
_cell_length_b 16.34000
_cell_length_c 12.57000
_cell_angle_alpha 90.00000
_cell_angle_beta  118.60000
_cell_angle_gamma 90.00000

_symmetry_space_group_name_	'P 1'
_symmetry_space_group_name_H-M	'P 1'

loop_
_symmetry_equiv_pos_as_xyz
  x,y,z

loop_
_atom_site_label
_atom_site_type_symbol
_atom_site_fract_x
_atom_site_fract_y
_atom_site_fract_z
_atom_site_charge
S 	S 	0.07841 0.97053 0.14012 0.01600
S 	S 	0.96442 0.35970 0.51420 -0.02300
S 	S 	0.20098 0.44765 0.23310 -0.05700
O 	O 	0.97490 0.58420 0.63520 -0.18000
N 	N 	0.18960 0.15890 0.03590 -0.22900
N 	N 	0.15910 0.28930 0.84180 -0.27400
N 	N 	0.23380 0.33800 0.10360 -0.26900
C 	C 	0.15540 0.18120 0.09150 0.07300
H 	H 	0.15560 0.23750 0.11030 -0.01200
C 	C 	0.12000 0.12920 0.12390 -0.12800
H 	H 	0.09650 0.14950 0.16390 0.06800
C 	C 	0.18260 0.08080 0.00070 0.00000
H 	H 	0.20240 0.06390 0.95270 0.04900
C 	C 	0.14820 0.02340 0.03000 -0.09700
H 	H 	0.14520 0.96840 0.00320 0.05100
C 	C 	0.11820 0.04620 0.09840 0.04700
C 	C 	0.03560 0.03280 0.19960 -0.28300
H 	H 	0.06850 0.06860 0.26430 0.10600
H 	H 	0.00250 0.06820 0.13440 0.10100
C 	C 	0.11460 0.23860 0.77140 0.16400
H 	H 	0.12320 0.18210 0.78980 -0.02300
C 	C 	0.05570 0.25920 0.67200 -0.24100
H 	H 	0.02520 0.21740 0.62490 0.12700
C 	C 	0.14330 0.36330 0.81970 0.16200
H 	H 	0.17250 0.40280 0.87550 -0.02600
C 	C 	0.08770 0.39020 0.72170 -0.21500
H 	H 	0.07970 0.44710 0.70630 0.12100
C 	C 	0.04150 0.33220 0.64210 0.16700
C 	C 	0.98110 0.46740 0.48740 -0.06400
C 	C 	0.93620 0.45300 0.56020 -0.02400
C 	C 	0.97750 0.52460 0.57070 0.15000
C 	C 	0.21870 0.38290 0.15570 0.10200
S 	S 	0.57841 0.47053 0.14012 0.00900
S 	S 	0.46442 0.85970 0.51420 -0.02100
S 	S 	0.70098 0.94765 0.23310 -0.05500
O 	O 	0.47490 0.08420 0.63520 -0.17900
N 	N 	0.68960 0.65890 0.03590 -0.22800
N 	N 	0.65910 0.78930 0.84180 -0.27300
N 	N 	0.73380 0.83800 0.10360 -0.26900
C 	C 	0.65540 0.68120 0.09150 0.07300
H 	H 	0.65560 0.73750 0.11030 -0.01200
C 	C 	0.62000 0.62920 0.12390 -0.12800
H 	H 	0.59650 0.64950 0.16390 0.06800
C 	C 	0.68260 0.58080 0.00070 -0.00500
H 	H 	0.70240 0.56390 0.95270 0.05300
C 	C 	0.64820 0.52340 0.03000 -0.09100
H 	H 	0.64520 0.46840 0.00320 0.04700
C 	C 	0.61820 0.54620 0.09840 0.04800
C 	C 	0.53560 0.53280 0.19960 -0.27000
H 	H 	0.56850 0.56860 0.26430 0.10300
H 	H 	0.50250 0.56820 0.13440 0.09600
C 	C 	0.61460 0.73860 0.77140 0.16300
H 	H 	0.62320 0.68210 0.78980 -0.02300
C 	C 	0.55570 0.75920 0.67200 -0.23900
H 	H 	0.52520 0.71740 0.62490 0.12500
C 	C 	0.64330 0.86330 0.81970 0.16100
H 	H 	0.67250 0.90280 0.87550 -0.02500
C 	C 	0.58770 0.89020 0.72170 -0.21300
H 	H 	0.57970 0.94710 0.70630 0.12100
C 	C 	0.54150 0.83220 0.64210 0.16400
C 	C 	0.48110 0.96740 0.48740 -0.05600
C 	C 	0.43620 0.95300 0.56020 -0.02200
C 	C 	0.47750 0.02460 0.57070 0.14800
C 	C 	0.71870 0.88290 0.15570 0.10200
S 	S 	0.92159 0.97053 0.35988 0.02100
S 	S 	0.03558 0.35970 0.98580 0.04100
S 	S 	0.79902 0.44765 0.26690 -0.05400
O 	O 	0.02510 0.58420 0.86480 -0.17500
N 	N 	0.81040 0.15890 0.46410 -0.23800
N 	N 	0.84090 0.28930 0.65820 -0.27900
N 	N 	0.76620 0.33800 0.39640 -0.26300
C 	C 	0.84460 0.18120 0.40850 0.08500
H 	H 	0.84440 0.23750 0.38970 -0.01000
C 	C 	0.88000 0.12920 0.37610 -0.14000
H 	H 	0.90350 0.14950 0.33610 0.07300
C 	C 	0.81740 0.08080 0.49930 0.08600
H 	H 	0.79760 0.06390 0.54730 -0.00500
C 	C 	0.85180 0.02340 0.47000 -0.14000
H 	H 	0.85480 0.96840 0.49680 0.07800
C 	C 	0.88180 0.04620 0.40160 0.06800
C 	C 	0.96440 0.03280 0.30040 -0.28600
H 	H 	0.93150 0.06860 0.23570 0.10000
H 	H 	0.99750 0.06820 0.36560 0.10700
C 	C 	0.88540 0.23860 0.72860 0.15900
H 	H 	0.87680 0.18210 0.71020 -0.02700
C 	C 	0.94430 0.25920 0.82800 -0.22800
H 	H 	0.97480 0.21740 0.87510 0.12600
C 	C 	0.85670 0.36330 0.68030 0.15700
H 	H 	0.82750 0.40280 0.62450 -0.03100
C 	C 	0.91230 0.39020 0.77830 -0.20100
H 	H 	0.92030 0.44710 0.79370 0.11700
C 	C 	0.95850 0.33220 0.85790 0.15000
C 	C 	0.01890 0.46740 0.01260 -0.15500
C 	C 	0.06380 0.45300 0.93980 -0.00100
C 	C 	0.02250 0.52460 0.92930 0.16700
C 	C 	0.78130 0.38290 0.34430 0.10900
S 	S 	0.42159 0.47053 0.35988 0.01600
S 	S 	0.53558 0.85970 0.98580 0.03800
S 	S 	0.29902 0.94765 0.26690 -0.05200
O 	O 	0.52510 0.08420 0.86480 -0.17600
N 	N 	0.31040 0.65890 0.46410 -0.23800
N 	N 	0.34090 0.78930 0.65820 -0.28000
N 	N 	0.26620 0.83800 0.39640 -0.26300
C 	C 	0.34460 0.68120 0.40850 0.08600
H 	H 	0.34440 0.73750 0.38970 -0.01000
C 	C 	0.38000 0.62920 0.37610 -0.14000
H 	H 	0.40350 0.64950 0.33610 0.07400
C 	C 	0.31740 0.58080 0.49930 0.08400
H 	H 	0.29760 0.56390 0.54730 -0.00300
C 	C 	0.35180 0.52340 0.47000 -0.13400
H 	H 	0.35480 0.46840 0.49680 0.07400
C 	C 	0.38180 0.54620 0.40160 0.07000
C 	C 	0.46440 0.53280 0.30040 -0.27200
H 	H 	0.43150 0.56860 0.23570 0.09800
H 	H 	0.49750 0.56820 0.36560 0.10500
C 	C 	0.38540 0.73860 0.72860 0.16200
H 	H 	0.37680 0.68210 0.71020 -0.02700
C 	C 	0.44430 0.75920 0.82800 -0.23200
H 	H 	0.47480 0.71740 0.87510 0.12900
C 	C 	0.35670 0.86330 0.68030 0.15900
H 	H 	0.32750 0.90280 0.62450 -0.03200
C 	C 	0.41230 0.89020 0.77830 -0.20400
H 	H 	0.42030 0.94710 0.79370 0.11900
C 	C 	0.45850 0.83220 0.85790 0.15500
C 	C 	0.51890 0.96740 0.01260 -0.15600
C 	C 	0.56380 0.95300 0.93980 0.00400
C 	C 	0.52250 0.02460 0.92930 0.16100
C 	C 	0.28130 0.88290 0.34430 0.10800
S 	S 	0.92159 0.02947 0.85988 0.02200
S 	S 	0.03558 0.64030 0.48580 -0.01400
S 	S 	0.79902 0.55235 0.76690 -0.03800
O 	O 	0.02510 0.41580 0.36480 -0.18100
N 	N 	0.81040 0.84110 0.96410 -0.24300
N 	N 	0.84090 0.71070 0.15820 -0.28600
N 	N 	0.76620 0.66200 0.89640 -0.25100
C 	C 	0.84460 0.81880 0.90850 0.10100
H 	H 	0.84440 0.76250 0.88970 -0.00500
C 	C 	0.88000 0.87080 0.87610 -0.15000
H 	H 	0.90350 0.85050 0.83610 0.08400
C 	C 	0.81740 0.91920 0.99930 0.17000
H 	H 	0.79760 0.93610 0.04730 -0.05700
C 	C 	0.85180 0.97660 0.97000 -0.16800
H 	H 	0.85480 0.03160 0.99680 0.09500
C 	C 	0.88180 0.95380 0.90160 0.09300
C 	C 	0.96440 0.96720 0.80040 -0.27400
H 	H 	0.93150 0.93140 0.73570 0.10400
H 	H 	0.99750 0.93180 0.86560 0.11500
C 	C 	0.88540 0.76140 0.22860 0.16200
H 	H 	0.87680 0.81790 0.21020 -0.03400
C 	C 	0.94430 0.74080 0.32800 -0.24000
H 	H 	0.97480 0.78260 0.37510 0.12400
C 	C 	0.85670 0.63670 0.18030 0.16300
H 	H 	0.82750 0.59720 0.12450 -0.04000
C 	C 	0.91230 0.60980 0.27830 -0.21400
H 	H 	0.92030 0.55290 0.29370 0.11900
C 	C 	0.95850 0.66780 0.35790 0.16100
C 	C 	0.01890 0.53260 0.51260 -0.05500
C 	C 	0.06380 0.54700 0.43980 -0.02600
C 	C 	0.02250 0.47540 0.42930 0.15600
C 	C 	0.78130 0.61710 0.84430 0.11600
S 	S 	0.42159 0.52947 0.85988 0.03100
S 	S 	0.53558 0.14030 0.48580 -0.01600
S 	S 	0.29902 0.05235 0.76690 -0.04100
O 	O 	0.52510 0.91580 0.36480 -0.18300
N 	N 	0.31040 0.34110 0.96410 -0.24400
N 	N 	0.34090 0.21070 0.15820 -0.28700
N 	N 	0.26620 0.16200 0.89640 -0.25200
C 	C 	0.34460 0.31880 0.90850 0.10100
H 	H 	0.34440 0.26250 0.88970 -0.00500
C 	C 	0.38000 0.37080 0.87610 -0.14900
H 	H 	0.40350 0.35050 0.83610 0.08300
C 	C 	0.31740 0.41920 0.99930 0.17200
H 	H 	0.29760 0.43610 0.04730 -0.05800
C 	C 	0.35180 0.47660 0.97000 -0.17500
H 	H 	0.35480 0.53160 0.99680 0.10000
C 	C 	0.38180 0.45380 0.90160 0.09200
C 	C 	0.46440 0.46720 0.80040 -0.28300
H 	H 	0.43150 0.43140 0.73570 0.10700
H 	H 	0.49750 0.43180 0.86560 0.11800
C 	C 	0.38540 0.26140 0.22860 0.16400
H 	H 	0.37680 0.31790 0.21020 -0.03400
C 	C 	0.44430 0.24080 0.32800 -0.24200
H 	H 	0.47480 0.28260 0.37510 0.12600
C 	C 	0.35670 0.13670 0.18030 0.16400
H 	H 	0.32750 0.09720 0.12450 -0.04100
C 	C 	0.41230 0.10980 0.27830 -0.21600
H 	H 	0.42030 0.05290 0.29370 0.11900
C 	C 	0.45850 0.16780 0.35790 0.16500
C 	C 	0.51890 0.03260 0.51260 -0.06300
C 	C 	0.56380 0.04700 0.43980 -0.02800
C 	C 	0.52250 0.97540 0.42930 0.15700
C 	C 	0.28130 0.11710 0.84430 0.11600
S 	S 	0.07841 0.02947 0.64012 0.01800
S 	S 	0.96442 0.64030 0.01420 -0.07900
S 	S 	0.20098 0.55235 0.73310 -0.04200
O 	O 	0.97490 0.41580 0.13520 -0.18700
N 	N 	0.18960 0.84110 0.53590 -0.23700
N 	N 	0.15910 0.71070 0.34180 -0.28500
N 	N 	0.23380 0.66200 0.60360 -0.26200
C 	C 	0.15540 0.81880 0.59150 0.08900
H 	H 	0.15560 0.76250 0.61030 -0.00800
C 	C 	0.12000 0.87080 0.62390 -0.13800
H 	H 	0.09650 0.85050 0.66390 0.07900
C 	C 	0.18260 0.91920 0.50070 0.08200
H 	H 	0.20240 0.93610 0.45270 -0.00200
C 	C 	0.14820 0.97660 0.53000 -0.12600
H 	H 	0.14520 0.03160 0.50320 0.06900
C 	C 	0.11820 0.95380 0.59840 0.07200
C 	C 	0.03560 0.96720 0.69960 -0.27100
H 	H 	0.06850 0.93140 0.76430 0.11100
H 	H 	0.00250 0.93180 0.63440 0.10800
C 	C 	0.11460 0.76140 0.27140 0.16800
H 	H 	0.12320 0.81790 0.28980 -0.03100
C 	C 	0.05570 0.74080 0.17200 -0.25400
H 	H 	0.02520 0.78260 0.12490 0.12500
C 	C 	0.14330 0.63670 0.31970 0.16900
H 	H 	0.17250 0.59720 0.37550 -0.03600
C 	C 	0.08770 0.60980 0.22170 -0.22900
H 	H 	0.07970 0.55290 0.20630 0.12400
C 	C 	0.04150 0.66780 0.14210 0.18100
C 	C 	0.98110 0.53260 0.98740 0.03700
C 	C 	0.93620 0.54700 0.06020 -0.04900
C 	C 	0.97750 0.47540 0.07070 0.13800
C 	C 	0.21870 0.61710 0.65570 0.11000
S 	S 	0.57841 0.52947 0.64012 0.02400
S 	S 	0.46442 0.14030 0.01420 -0.07300
S 	S 	0.70098 0.05235 0.73310 -0.04500
O 	O 	0.47490 0.91580 0.13520 -0.18600
N 	N 	0.68960 0.34110 0.53590 -0.23700
N 	N 	0.65910 0.21070 0.34180 -0.28400
N 	N 	0.73380 0.16200 0.60360 -0.26200
C 	C 	0.65540 0.31880 0.59150 0.08800
H 	H 	0.65560 0.26250 0.61030 -0.00800
C 	C 	0.62000 0.37080 0.62390 -0.13800
H 	H 	0.59650 0.35050 0.66390 0.07800
C 	C 	0.68260 0.41920 0.50070 0.08400
H 	H 	0.70240 0.43610 0.45270 -0.00300
C 	C 	0.64820 0.47660 0.53000 -0.13300
H 	H 	0.64520 0.53160 0.50320 0.07300
C 	C 	0.61820 0.45380 0.59840 0.07000
C 	C 	0.53560 0.46720 0.69960 -0.28100
H 	H 	0.56850 0.43140 0.76430 0.11200
H 	H 	0.50250 0.43180 0.63440 0.10900
C 	C 	0.61460 0.26140 0.27140 0.16600
H 	H 	0.62320 0.31790 0.28980 -0.03100
C 	C 	0.55570 0.24080 0.17200 -0.25000
H 	H 	0.52520 0.28260 0.12490 0.12300
C 	C 	0.64330 0.13670 0.31970 0.16700
H 	H 	0.67250 0.09720 0.37550 -0.03600
C 	C 	0.58770 0.10980 0.22170 -0.22600
H 	H 	0.57970 0.05290 0.20630 0.12100
C 	C 	0.54150 0.16780 0.14210 0.17400
C 	C 	0.48110 0.03260 0.98740 0.03600
C 	C 	0.43620 0.04700 0.06020 -0.05200
C 	C 	0.47750 0.97540 0.07070 0.14400
C 	C 	0.71870 0.11710 0.65570 0.11000
Co	Co	0.25000 0.25000 -0.00000 1.10700
Co	Co	0.75000 0.25000 0.50000 1.12300
Co	Co	0.75000 0.75000 -0.00000 1.10700
Co	Co	0.25000 0.75000 0.50000 1.12300
O 	O 	-0.00000 0.90770 0.25000 -0.26000
C 	C 	-0.00000 0.98120 0.25000 0.28100
O 	O 	0.50000 0.40770 0.25000 -0.25700
C 	C 	0.50000 0.48120 0.25000 0.26800
O 	O 	0.00000 0.09230 0.75000 -0.24900
C 	C 	0.00000 0.01880 0.75000 0.27500
O 	O 	0.50000 0.59230 0.75000 -0.25200
C 	C 	0.50000 0.51880 0.75000 0.28400
