data_crystal

_cell_length_a 10.71080
_cell_length_b 13.26160
_cell_length_c 20.79260
_cell_angle_alpha 90.00000
_cell_angle_beta  92.50340
_cell_angle_gamma 90.00000

_symmetry_space_group_name_	'P 1'
_symmetry_space_group_name_H-M	'P 1'

loop_
_symmetry_equiv_pos_as_xyz
  x,y,z

loop_
_atom_site_label
_atom_site_type_symbol
_atom_site_fract_x
_atom_site_fract_y
_atom_site_fract_z
_atom_site_charge
Ag	Ag	0.19470 0.19007 0.06907 0.52800
Ag	Ag	0.09897 0.99414 0.40110 0.52500
S 	S 	0.95685 0.23640 0.10417 -0.06700
S 	S 	0.02388 0.12382 0.48366 -0.08900
N 	N 	0.18394 0.14170 0.18023 -0.17600
N 	N 	0.13938 0.05943 0.30021 -0.15100
N 	N 	0.71322 0.14724 0.03161 -0.18200
N 	N 	0.75391 0.95694 0.97928 -0.15500
N 	N 	0.02829 0.13805 0.63712 -0.17300
N 	N 	0.19718 0.28150 0.68744 -0.10300
N 	N 	0.96573 0.35392 0.53198 -0.12800
N 	N 	0.19680 0.44982 0.55499 -0.14800
C 	C 	0.25360 0.06710 0.20541 0.00400
H 	H 	0.31900 0.04100 0.18210 0.01500
C 	C 	0.23120 0.02525 0.26456 -0.00900
H 	H 	0.27800 0.96950 0.28120 0.02600
C 	C 	0.06910 0.13467 0.27510 -0.05800
H 	H 	0.00200 0.15760 0.29990 0.02800
C 	C 	0.08994 0.17521 0.21494 0.10700
C 	C 	0.00810 0.25812 0.18766 -0.25200
H 	H 	0.93700 0.26530 0.21230 0.10300
H 	H 	0.05500 0.31900 0.18690 0.09500
C 	C 	0.87360 0.11833 0.11645 -0.24400
H 	H 	0.81500 0.12880 0.15130 0.08600
H 	H 	0.93000 0.06810 0.12930 0.10100
C 	C 	0.80208 0.08596 0.05634 0.10000
C 	C 	0.82430 0.99230 0.02902 -0.06000
H 	H 	0.88700 0.95050 0.04390 0.03100
C 	C 	0.66230 0.01725 0.95662 -0.00900
H 	H 	0.61100 0.99400 0.92180 0.01800
C 	C 	0.64340 0.11294 0.98137 0.00100
H 	H 	0.58600 0.15540 0.96440 0.01100
C 	C 	0.01250 0.18303 0.69397 0.01100
H 	H 	0.94800 0.16270 0.71640 0.02100
C 	C 	0.09580 0.25471 0.71857 -0.00800
H 	H 	0.08200 0.28510 0.75710 0.03200
C 	C 	0.21362 0.23434 0.63173 -0.04400
H 	H 	0.28600 0.25080 0.60860 0.05000
C 	C 	0.13021 0.16419 0.60561 0.10600
C 	C 	0.15343 0.11271 0.54287 -0.20500
H 	H 	0.16000 0.04050 0.55060 0.06400
H 	H 	0.23200 0.13590 0.52430 0.08900
C 	C 	0.05320 0.24749 0.44890 -0.19900
H 	H 	0.98400 0.26070 0.42030 0.08100
H 	H 	0.12800 0.24350 0.42420 0.07200
C 	C 	0.06617 0.32930 0.49845 0.10800
C 	C 	0.18019 0.37782 0.51006 -0.04100
H 	H 	0.25300 0.35840 0.48450 0.02800
C 	C 	0.09620 0.47513 0.58740 0.00600
H 	H 	0.10500 0.52740 0.62010 0.01500
C 	C 	0.98190 0.42715 0.57553 0.00800
H 	H 	0.91400 0.44300 0.59930 0.02800
Ag	Ag	0.30530 0.69007 0.93093 0.52900
Ag	Ag	0.40103 0.49414 0.59890 0.52800
S 	S 	0.54315 0.73640 0.89583 -0.06300
S 	S 	0.47612 0.62382 0.51634 -0.08900
N 	N 	0.31606 0.64170 0.81977 -0.17600
N 	N 	0.36062 0.55943 0.69979 -0.15000
N 	N 	0.78678 0.64724 0.96839 -0.18200
N 	N 	0.74609 0.45694 0.02072 -0.15600
N 	N 	0.47171 0.63805 0.36288 -0.17300
N 	N 	0.30282 0.78150 0.31256 -0.10400
N 	N 	0.53427 0.85392 0.46802 -0.12800
N 	N 	0.30320 0.94982 0.44501 -0.14800
C 	C 	0.24640 0.56710 0.79459 0.00500
H 	H 	0.18100 0.54100 0.81790 0.01400
C 	C 	0.26880 0.52525 0.73544 -0.01300
H 	H 	0.22200 0.46950 0.71880 0.02900
C 	C 	0.43090 0.63467 0.72490 -0.06000
H 	H 	0.49800 0.65760 0.70010 0.02800
C 	C 	0.41006 0.67521 0.78506 0.10800
C 	C 	0.49190 0.75812 0.81234 -0.25900
H 	H 	0.56300 0.76530 0.78770 0.10600
H 	H 	0.44500 0.81900 0.81310 0.09700
C 	C 	0.62640 0.61833 0.88355 -0.24700
H 	H 	0.68500 0.62880 0.84870 0.08700
H 	H 	0.57000 0.56810 0.87070 0.10300
C 	C 	0.69792 0.58596 0.94366 0.10300
C 	C 	0.67570 0.49230 0.97098 -0.06400
H 	H 	0.61300 0.45050 0.95610 0.03100
C 	C 	0.83770 0.51725 0.04338 -0.00500
H 	H 	0.88900 0.49400 0.07820 0.01600
C 	C 	0.85660 0.61294 0.01863 -0.00000
H 	H 	0.91400 0.65540 0.03560 0.01200
C 	C 	0.48750 0.68303 0.30603 0.00500
H 	H 	0.55200 0.66270 0.28360 0.02600
C 	C 	0.40420 0.75471 0.28143 -0.00500
H 	H 	0.41800 0.78510 0.24290 0.03000
C 	C 	0.28638 0.73434 0.36827 -0.04400
H 	H 	0.21400 0.75080 0.39140 0.04900
C 	C 	0.36979 0.66419 0.39439 0.10500
C 	C 	0.34657 0.61271 0.45713 -0.20400
H 	H 	0.34000 0.54050 0.44940 0.06300
H 	H 	0.26800 0.63590 0.47570 0.08900
C 	C 	0.44680 0.74749 0.55110 -0.20200
H 	H 	0.51600 0.76070 0.57970 0.08400
H 	H 	0.37200 0.74350 0.57580 0.07300
C 	C 	0.43383 0.82930 0.50155 0.10800
C 	C 	0.31981 0.87782 0.48994 -0.04100
H 	H 	0.24700 0.85840 0.51550 0.02700
C 	C 	0.40380 0.97513 0.41260 0.00400
H 	H 	0.39500 0.02740 0.37990 0.01600
C 	C 	0.51810 0.92715 0.42447 0.01000
H 	H 	0.58600 0.94300 0.40070 0.02800
Ag	Ag	0.80529 0.80993 0.93093 0.52900
Ag	Ag	0.90103 0.00586 0.59890 0.52600
S 	S 	0.04315 0.76360 0.89583 -0.06600
S 	S 	0.97612 0.87618 0.51634 -0.08800
N 	N 	0.81606 0.85830 0.81977 -0.17500
N 	N 	0.86062 0.94057 0.69979 -0.15000
N 	N 	0.28678 0.85276 0.96839 -0.18200
N 	N 	0.24609 0.04306 0.02072 -0.15500
N 	N 	0.97171 0.86195 0.36288 -0.17300
N 	N 	0.80282 0.71850 0.31256 -0.10300
N 	N 	0.03427 0.64608 0.46802 -0.12800
N 	N 	0.80320 0.55018 0.44501 -0.14800
C 	C 	0.74640 0.93290 0.79459 0.00400
H 	H 	0.68100 0.95900 0.81790 0.01500
C 	C 	0.76880 0.97475 0.73544 -0.00900
H 	H 	0.72200 0.03050 0.71880 0.02600
C 	C 	0.93090 0.86533 0.72490 -0.05800
H 	H 	0.99800 0.84240 0.70010 0.02800
C 	C 	0.91006 0.82479 0.78506 0.10700
C 	C 	0.99190 0.74188 0.81234 -0.25200
H 	H 	0.06300 0.73470 0.78770 0.10300
H 	H 	0.94500 0.68100 0.81310 0.09500
C 	C 	0.12640 0.88167 0.88355 -0.24400
H 	H 	0.18500 0.87120 0.84870 0.08600
H 	H 	0.07000 0.93190 0.87070 0.10100
C 	C 	0.19792 0.91404 0.94366 0.10000
C 	C 	0.17570 0.00770 0.97098 -0.06000
H 	H 	0.11300 0.04950 0.95610 0.03100
C 	C 	0.33770 0.98275 0.04338 -0.00900
H 	H 	0.38900 0.00600 0.07820 0.01800
C 	C 	0.35660 0.88706 0.01863 0.00100
H 	H 	0.41400 0.84460 0.03560 0.01100
C 	C 	0.98750 0.81697 0.30603 0.01100
H 	H 	0.05200 0.83730 0.28360 0.02100
C 	C 	0.90420 0.74529 0.28143 -0.00800
H 	H 	0.91800 0.71490 0.24290 0.03200
C 	C 	0.78638 0.76566 0.36827 -0.04400
H 	H 	0.71400 0.74920 0.39140 0.05000
C 	C 	0.86979 0.83581 0.39439 0.10600
C 	C 	0.84657 0.88729 0.45713 -0.20500
H 	H 	0.84000 0.95950 0.44940 0.06400
H 	H 	0.76800 0.86410 0.47570 0.08900
C 	C 	0.94680 0.75251 0.55110 -0.19900
H 	H 	0.01600 0.73930 0.57970 0.08100
H 	H 	0.87200 0.75650 0.57580 0.07200
C 	C 	0.93383 0.67070 0.50155 0.10800
C 	C 	0.81981 0.62218 0.48994 -0.04100
H 	H 	0.74700 0.64160 0.51550 0.02800
C 	C 	0.90380 0.52487 0.41260 0.00600
H 	H 	0.89500 0.47260 0.37990 0.01500
C 	C 	0.01810 0.57285 0.42447 0.00800
H 	H 	0.08600 0.55700 0.40070 0.02800
Ag	Ag	0.69470 0.30993 0.06907 0.52900
Ag	Ag	0.59897 0.50586 0.40110 0.52800
S 	S 	0.45685 0.26360 0.10417 -0.06300
S 	S 	0.52388 0.37618 0.48366 -0.08900
N 	N 	0.68394 0.35830 0.18023 -0.17600
N 	N 	0.63938 0.44057 0.30021 -0.15000
N 	N 	0.21322 0.35276 0.03161 -0.18200
N 	N 	0.25391 0.54306 0.97928 -0.15600
N 	N 	0.52829 0.36195 0.63712 -0.17300
N 	N 	0.69718 0.21850 0.68744 -0.10400
N 	N 	0.46573 0.14608 0.53198 -0.12800
N 	N 	0.69680 0.05018 0.55499 -0.14800
C 	C 	0.75360 0.43290 0.20541 0.00500
H 	H 	0.81900 0.45900 0.18210 0.01400
C 	C 	0.73120 0.47475 0.26456 -0.01300
H 	H 	0.77800 0.53050 0.28120 0.02900
C 	C 	0.56910 0.36533 0.27510 -0.06000
H 	H 	0.50200 0.34240 0.29990 0.02800
C 	C 	0.58994 0.32479 0.21494 0.10800
C 	C 	0.50810 0.24188 0.18766 -0.25900
H 	H 	0.43700 0.23470 0.21230 0.10600
H 	H 	0.55500 0.18100 0.18690 0.09700
C 	C 	0.37360 0.38167 0.11645 -0.24700
H 	H 	0.31500 0.37120 0.15130 0.08700
H 	H 	0.43000 0.43190 0.12930 0.10300
C 	C 	0.30208 0.41404 0.05634 0.10300
C 	C 	0.32430 0.50770 0.02902 -0.06400
H 	H 	0.38700 0.54950 0.04390 0.03100
C 	C 	0.16230 0.48275 0.95662 -0.00500
H 	H 	0.11100 0.50600 0.92180 0.01600
C 	C 	0.14340 0.38706 0.98137 -0.00000
H 	H 	0.08600 0.34460 0.96440 0.01200
C 	C 	0.51250 0.31697 0.69397 0.00500
H 	H 	0.44800 0.33730 0.71640 0.02600
C 	C 	0.59580 0.24529 0.71857 -0.00500
H 	H 	0.58200 0.21490 0.75710 0.03000
C 	C 	0.71362 0.26566 0.63173 -0.04400
H 	H 	0.78600 0.24920 0.60860 0.04900
C 	C 	0.63021 0.33581 0.60561 0.10500
C 	C 	0.65343 0.38729 0.54287 -0.20400
H 	H 	0.66000 0.45950 0.55060 0.06300
H 	H 	0.73200 0.36410 0.52430 0.08900
C 	C 	0.55320 0.25251 0.44890 -0.20200
H 	H 	0.48400 0.23930 0.42030 0.08400
H 	H 	0.62800 0.25650 0.42420 0.07300
C 	C 	0.56617 0.17070 0.49845 0.10800
C 	C 	0.68019 0.12218 0.51006 -0.04100
H 	H 	0.75300 0.14160 0.48450 0.02700
C 	C 	0.59620 0.02487 0.58740 0.00400
H 	H 	0.60500 0.97260 0.62010 0.01600
C 	C 	0.48190 0.07285 0.57553 0.01000
H 	H 	0.41400 0.05700 0.59930 0.02800
