data_crystal

_cell_length_a 11.81200
_cell_length_b 12.44400
_cell_length_c 12.52200
_cell_angle_alpha 118.94900
_cell_angle_beta  108.30000
_cell_angle_gamma 98.38700

_symmetry_space_group_name_	'P 1'
_symmetry_space_group_name_H-M	'P 1'

loop_
_symmetry_equiv_pos_as_xyz
  x,y,z

loop_
_atom_site_label
_atom_site_type_symbol
_atom_site_fract_x
_atom_site_fract_y
_atom_site_fract_z
_atom_site_charge
Ce	Ce	0.52169 0.82224 0.99015 2.13400
Ce	Ce	0.80270 0.75667 0.23604 2.11400
Ce	Ce	0.47831 0.17776 0.00985 2.13500
Ce	Ce	0.19730 0.24333 0.76396 2.11500
H 	H 	0.40720 0.55520 0.20500 0.18000
H 	H 	0.15130 0.51020 0.34430 0.16300
H 	H 	0.34210 0.87300 0.44760 0.15800
H 	H 	0.50820 0.90840 0.39510 0.17300
H 	H 	0.58140 0.80830 0.38320 0.18500
H 	H 	0.31000 0.34500 0.22290 0.21100
H 	H 	0.16110 0.32190 0.17710 0.20100
H 	H 	0.15300 0.71810 0.53850 0.16200
H 	H 	0.22080 0.85840 0.56970 0.16400
H 	H 	0.43460 0.30350 0.48240 0.20400
H 	H 	0.12340 0.99180 0.16250 0.19700
H 	H 	0.08790 0.32740 0.41930 0.18700
H 	H 	0.27360 0.52180 0.59180 0.19100
H 	H 	0.41200 0.51810 0.60600 0.20500
H 	H 	0.44520 0.07980 0.34540 0.20500
H 	H 	0.32310 0.96750 0.20560 0.21900
H 	H 	0.92540 0.03250 0.08350 0.18200
H 	H 	0.91210 0.16640 0.18270 0.17700
H 	H 	0.59280 0.44480 0.79500 0.18000
H 	H 	0.84870 0.48980 0.65570 0.16300
H 	H 	0.65790 0.12700 0.55240 0.15800
H 	H 	0.49180 0.09160 0.60490 0.17300
H 	H 	0.41860 0.19170 0.61680 0.18500
H 	H 	0.69000 0.65500 0.77710 0.21100
H 	H 	0.83890 0.67810 0.82290 0.20100
H 	H 	0.84700 0.28190 0.46150 0.16200
H 	H 	0.77920 0.14160 0.43030 0.16400
H 	H 	0.56540 0.69650 0.51760 0.20400
H 	H 	0.87660 0.00820 0.83750 0.19700
H 	H 	0.91210 0.67260 0.58070 0.18700
H 	H 	0.72640 0.47820 0.40820 0.19100
H 	H 	0.58800 0.48190 0.39400 0.20500
H 	H 	0.55480 0.92020 0.65460 0.20500
H 	H 	0.67690 0.03250 0.79440 0.21900
H 	H 	0.07460 0.96750 0.91650 0.18200
H 	H 	0.08790 0.83360 0.81730 0.17700
C 	C 	0.39180 0.72760 0.32880 0.41500
C 	C 	0.36290 0.59300 0.25660 -0.47100
C 	C 	0.27060 0.51260 0.25840 0.41100
C 	C 	0.21010 0.56500 0.33810 -0.43400
C 	C 	0.23730 0.70390 0.41150 0.36200
C 	C 	0.32630 0.78130 0.40230 -0.44400
C 	C 	0.50160 0.81640 0.33650 -0.59400
C 	C 	0.49650 0.79400 0.20580 0.51100
C 	C 	0.23900 0.36480 0.17770 -0.60000
C 	C 	0.21780 0.30890 0.03350 0.48000
C 	C 	0.16830 0.76490 0.49620 -0.50800
C 	C 	0.04230 0.75410 0.40310 0.41000
C 	C 	0.26980 0.33450 0.46870 0.47400
C 	C 	0.34460 0.26430 0.42890 -0.52900
C 	C 	0.29160 0.13600 0.31110 0.48500
C 	C 	0.16110 0.08090 0.23850 -0.52200
C 	C 	0.08220 0.14990 0.27170 0.43100
C 	C 	0.13990 0.27880 0.39170 -0.50700
C 	C 	0.33110 0.47250 0.59860 -0.65500
C 	C 	0.35880 0.47600 0.72660 0.56300
C 	C 	0.37380 0.06290 0.26490 -0.66600
C 	C 	0.42840 0.10000 0.18770 0.52800
C 	C 	0.93860 0.09290 0.17810 -0.58300
C 	C 	0.84810 0.01870 0.20450 0.52900
C 	C 	0.60820 0.27240 0.67120 0.41500
C 	C 	0.63710 0.40700 0.74340 -0.47100
C 	C 	0.72940 0.48740 0.74160 0.41100
C 	C 	0.78990 0.43500 0.66190 -0.43400
C 	C 	0.76270 0.29610 0.58850 0.36200
C 	C 	0.67370 0.21870 0.59770 -0.44400
C 	C 	0.49840 0.18360 0.66350 -0.59400
C 	C 	0.50350 0.20600 0.79420 0.51100
C 	C 	0.76100 0.63520 0.82230 -0.60000
C 	C 	0.78220 0.69110 0.96650 0.48000
C 	C 	0.83170 0.23510 0.50380 -0.50800
C 	C 	0.95770 0.24590 0.59690 0.41000
C 	C 	0.73020 0.66550 0.53130 0.47400
C 	C 	0.65540 0.73570 0.57110 -0.52900
C 	C 	0.70840 0.86400 0.68890 0.48500
C 	C 	0.83890 0.91910 0.76150 -0.52200
C 	C 	0.91780 0.85010 0.72830 0.43100
C 	C 	0.86010 0.72120 0.60830 -0.50700
C 	C 	0.66890 0.52750 0.40140 -0.65500
C 	C 	0.64120 0.52400 0.27340 0.56300
C 	C 	0.62620 0.93710 0.73510 -0.66600
C 	C 	0.57160 0.90000 0.81230 0.52800
C 	C 	0.06140 0.90710 0.82190 -0.58300
C 	C 	0.15190 0.98130 0.79550 0.52900
O 	O 	0.39700 0.76760 0.11230 -0.49700
O 	O 	0.60310 0.81370 0.19890 -0.68000
O 	O 	0.11510 0.29350 0.94620 -0.47200
O 	O 	0.30440 0.27690 0.99890 -0.63800
O 	O 	0.04190 0.83560 0.36910 -0.48400
O 	O 	0.93780 0.66480 0.35670 -0.46900
O 	O 	0.40920 0.58500 0.84160 -0.58800
O 	O 	0.33140 0.36870 0.71920 -0.56600
O 	O 	0.42640 0.20300 0.19270 -0.54800
O 	O 	0.47210 0.02280 0.11360 -0.65900
O 	O 	0.73310 0.00220 0.14350 -0.56600
O 	O 	0.88980 0.97520 0.27420 -0.53200
O 	O 	0.60300 0.23240 0.88770 -0.49700
O 	O 	0.39690 0.18630 0.80110 -0.68000
O 	O 	0.88490 0.70650 0.05380 -0.47200
O 	O 	0.69560 0.72310 0.00110 -0.63800
O 	O 	0.95810 0.16440 0.63090 -0.48400
O 	O 	0.06220 0.33520 0.64330 -0.46900
O 	O 	0.59080 0.41500 0.15840 -0.58800
O 	O 	0.66860 0.63130 0.28080 -0.56600
O 	O 	0.57360 0.79700 0.80730 -0.54800
O 	O 	0.52790 0.97720 0.88640 -0.65900
O 	O 	0.26690 0.99780 0.85650 -0.56600
O 	O 	0.11020 0.02480 0.72580 -0.53200
