data_crystal

_cell_length_a 11.85700
_cell_length_b 12.55400
_cell_length_c 12.51500
_cell_angle_alpha 119.12000
_cell_angle_beta  98.44000
_cell_angle_gamma 108.27000

_symmetry_space_group_name_	'P 1'
_symmetry_space_group_name_H-M	'P 1'

loop_
_symmetry_equiv_pos_as_xyz
  x,y,z

loop_
_atom_site_label
_atom_site_type_symbol
_atom_site_fract_x
_atom_site_fract_y
_atom_site_fract_z
_atom_site_charge
La	La	0.47975 0.01103 0.17795 1.65100
La	La	0.80285 0.23593 0.75610 1.64500
O 	O 	0.59260 0.16150 0.41580 -0.46600
O 	O 	0.66850 0.28300 0.63228 -0.45900
O 	O 	0.57240 0.80200 0.79650 -0.47200
O 	O 	0.52900 0.88670 0.97680 -0.54400
O 	O 	0.26660 0.85350 0.99710 -0.47600
O 	O 	0.10980 0.72670 0.02430 -0.44800
O 	O 	0.30500 0.99980 0.27820 -0.49400
O 	O 	0.11590 0.95020 0.29400 -0.39700
O 	O 	0.39490 0.11090 0.76490 -0.41100
O 	O 	0.60170 0.19830 0.81240 -0.52900
O 	O 	0.94030 0.36090 0.66710 -0.40900
O 	O 	0.04330 0.36820 0.83360 -0.41700
O 	O 	0.42560 0.97500 0.46680 -0.18000
C 	C 	0.73350 0.53320 0.66680 0.41000
C 	C 	0.65620 0.57230 0.73640 -0.45800
H 	H 	0.56640 0.51900 0.69620 0.18300
C 	C 	0.70900 0.68900 0.86460 0.41400
C 	C 	0.84070 0.76670 0.92180 -0.46400
H 	H 	0.87750 0.84470 0.00970 0.18000
C 	C 	0.91890 0.73190 0.85240 0.40700
C 	C 	0.86460 0.61380 0.72530 -0.46300
H 	H 	0.91780 0.58800 0.67820 0.17500
C 	C 	0.67320 0.40260 0.52980 -0.59400
H 	H 	0.59340 0.39540 0.48280 0.19000
H 	H 	0.73160 0.40820 0.48170 0.18000
C 	C 	0.64300 0.27450 0.52690 0.52500
C 	C 	0.62380 0.73360 0.93720 -0.60000
H 	H 	0.67270 0.79170 0.03270 0.20200
H 	H 	0.55180 0.65220 0.91750 0.18800
C 	C 	0.57200 0.81190 0.90010 0.49600
C 	C 	0.06020 0.82510 0.91120 -0.57100
H 	H 	0.07270 0.91880 0.97400 0.17900
H 	H 	0.08720 0.82420 0.83970 0.17700
C 	C 	0.14990 0.79680 0.98150 0.49100
C 	C 	0.27220 0.25940 0.51270 0.37900
C 	C 	0.36330 0.25590 0.59360 -0.43400
H 	H 	0.40640 0.20310 0.55610 0.19500
C 	C 	0.39210 0.32900 0.72910 0.39000
C 	C 	0.32700 0.40450 0.78250 -0.42800
H 	H 	0.34310 0.45110 0.87390 0.15600
C 	C 	0.23870 0.41300 0.70430 0.36900
C 	C 	0.21190 0.34070 0.56990 -0.42000
H 	H 	0.15200 0.34650 0.51610 0.16000
C 	C 	0.24130 0.18060 0.36520 -0.55400
H 	H 	0.16450 0.18150 0.32280 0.18800
H 	H 	0.31290 0.22580 0.34660 0.19800
C 	C 	0.21810 0.03450 0.30780 0.44900
C 	C 	0.50110 0.33830 0.81820 -0.55400
H 	H 	0.50630 0.39560 0.90950 0.16300
H 	H 	0.58100 0.38650 0.81170 0.18200
C 	C 	0.49640 0.20590 0.79350 0.47600
C 	C 	0.16810 0.49610 0.76340 -0.51900
H 	H 	0.22040 0.57090 0.85640 0.17200
H 	H 	0.15200 0.53670 0.71550 0.16700
C 	C 	0.04320 0.40410 0.75400 0.42000
La	La	0.52025 0.98897 0.82205 1.65200
La	La	0.19715 0.76407 0.24390 1.64600
O 	O 	0.40740 0.83850 0.58420 -0.46500
O 	O 	0.33150 0.71700 0.36772 -0.45800
O 	O 	0.42760 0.19800 0.20350 -0.47100
O 	O 	0.47100 0.11330 0.02320 -0.54300
O 	O 	0.73340 0.14650 0.00290 -0.47500
O 	O 	0.89020 0.27330 0.97570 -0.44700
O 	O 	0.69500 0.00020 0.72180 -0.49400
O 	O 	0.88410 0.04980 0.70600 -0.39700
O 	O 	0.60510 0.88910 0.23510 -0.41100
O 	O 	0.39830 0.80170 0.18760 -0.52900
O 	O 	0.05970 0.63910 0.33290 -0.40900
O 	O 	0.95670 0.63180 0.16640 -0.41700
O 	O 	0.57440 0.02500 0.53320 -0.18000
C 	C 	0.26650 0.46680 0.33320 0.41000
C 	C 	0.34380 0.42770 0.26360 -0.45800
H 	H 	0.43360 0.48100 0.30380 0.18300
C 	C 	0.29100 0.31100 0.13540 0.41400
C 	C 	0.15930 0.23330 0.07820 -0.46400
H 	H 	0.12250 0.15530 0.99030 0.18000
C 	C 	0.08110 0.26810 0.14760 0.40700
C 	C 	0.13540 0.38620 0.27470 -0.46300
H 	H 	0.08220 0.41200 0.32180 0.17500
C 	C 	0.32680 0.59740 0.47020 -0.59400
H 	H 	0.40660 0.60460 0.51720 0.19000
H 	H 	0.26840 0.59180 0.51830 0.18000
C 	C 	0.35700 0.72550 0.47310 0.52500
C 	C 	0.37620 0.26640 0.06280 -0.60000
H 	H 	0.32730 0.20830 0.96730 0.20200
H 	H 	0.44820 0.34780 0.08250 0.18800
C 	C 	0.42800 0.18810 0.09990 0.49600
C 	C 	0.93980 0.17490 0.08880 -0.57100
H 	H 	0.92730 0.08120 0.02600 0.17900
H 	H 	0.91280 0.17580 0.16030 0.17700
C 	C 	0.85010 0.20320 0.01850 0.49100
C 	C 	0.72780 0.74060 0.48730 0.37900
C 	C 	0.63670 0.74410 0.40640 -0.43400
H 	H 	0.59360 0.79690 0.44390 0.19500
C 	C 	0.60790 0.67100 0.27090 0.39000
C 	C 	0.67300 0.59550 0.21750 -0.42800
H 	H 	0.65690 0.54890 0.12610 0.15600
C 	C 	0.76130 0.58700 0.29570 0.36900
C 	C 	0.78810 0.65930 0.43010 -0.42000
H 	H 	0.84800 0.65350 0.48390 0.16000
C 	C 	0.75870 0.81940 0.63480 -0.55400
H 	H 	0.83550 0.81850 0.67720 0.18800
H 	H 	0.68710 0.77420 0.65340 0.19800
C 	C 	0.78190 0.96550 0.69220 0.44900
C 	C 	0.49890 0.66170 0.18180 -0.55400
H 	H 	0.49370 0.60440 0.09050 0.16300
H 	H 	0.41900 0.61350 0.18830 0.18200
C 	C 	0.50360 0.79410 0.20650 0.47600
C 	C 	0.83190 0.50390 0.23660 -0.51900
H 	H 	0.77960 0.42910 0.14360 0.17200
H 	H 	0.84800 0.46330 0.28450 0.16700
C 	C 	0.95680 0.59590 0.24600 0.42000
