data_crystal

_cell_length_a 11.78100
_cell_length_b 12.41600
_cell_length_c 12.50300
_cell_angle_alpha 118.87000
_cell_angle_beta  108.30000
_cell_angle_gamma 98.42000

_symmetry_space_group_name_	'P 1'
_symmetry_space_group_name_H-M	'P 1'

loop_
_symmetry_equiv_pos_as_xyz
  x,y,z

loop_
_atom_site_label
_atom_site_type_symbol
_atom_site_fract_x
_atom_site_fract_y
_atom_site_fract_z
_atom_site_charge
Pr	Pr	0.97782 0.67779 0.50960 2.06400
Pr	Pr	0.69784 0.74342 0.26485 2.04300
Pr	Pr	0.02218 0.32221 0.49040 2.06400
Pr	Pr	0.30216 0.25658 0.73515 2.04300
H 	H 	0.09680 0.94580 0.30100 0.17400
H 	H 	0.35040 0.98580 0.15600 0.16800
H 	H 	0.15740 0.62610 0.04950 0.15900
H 	H 	0.99370 0.59010 0.10550 0.16900
H 	H 	0.91880 0.68870 0.11410 0.18300
H 	H 	0.34360 0.17990 0.32630 0.20300
H 	H 	0.19470 0.15870 0.27990 0.21300
H 	H 	0.28140 0.64350 0.93060 0.16900
H 	H 	0.35130 0.78550 0.96590 0.16500
H 	H 	0.93810 0.80490 0.97840 0.18200
H 	H 	0.58760 0.82810 0.91850 0.17300
H 	H 	0.62220 0.49270 0.65780 0.17500
H 	H 	0.95140 0.58430 0.84800 0.19100
H 	H 	0.82910 0.46830 0.71020 0.20300
H 	H 	0.77430 0.02340 0.09570 0.17000
H 	H 	0.91330 0.02050 0.10970 0.18500
H 	H 	0.41170 0.66840 0.68480 0.17900
H 	H 	0.42690 0.53590 0.58590 0.18400
H 	H 	0.90320 0.05420 0.69900 0.17400
H 	H 	0.64960 0.01420 0.84400 0.16800
H 	H 	0.84260 0.37390 0.95050 0.15900
H 	H 	0.00630 0.40990 0.89450 0.16900
H 	H 	0.08120 0.31130 0.88590 0.18300
H 	H 	0.65640 0.82010 0.67370 0.20300
H 	H 	0.80530 0.84130 0.72010 0.21300
H 	H 	0.71860 0.35650 0.06940 0.16900
H 	H 	0.64870 0.21450 0.03410 0.16500
H 	H 	0.06190 0.19510 0.02160 0.18200
H 	H 	0.41240 0.17190 0.08150 0.17300
H 	H 	0.37780 0.50730 0.34220 0.17500
H 	H 	0.04860 0.41570 0.15200 0.19100
H 	H 	0.17090 0.53170 0.28980 0.20300
H 	H 	0.22570 0.97660 0.90430 0.17000
H 	H 	0.08670 0.97950 0.89030 0.18500
H 	H 	0.58830 0.33160 0.31520 0.17900
H 	H 	0.57310 0.46410 0.41410 0.18400
C 	C 	0.10810 0.77060 0.17200 0.40100
C 	C 	0.13920 0.90770 0.24690 -0.44300
C 	C 	0.23100 0.98870 0.24350 0.40200
C 	C 	0.29070 0.93180 0.16260 -0.44000
C 	C 	0.26430 0.79630 0.09070 0.38100
C 	C 	0.17440 0.71820 0.09730 -0.44400
C 	C 	0.99890 0.68190 0.16270 -0.57400
C 	C 	0.00230 0.70580 0.29480 0.48400
C 	C 	0.26470 0.13780 0.32520 -0.60200
C 	C 	0.28470 0.19320 0.46830 0.48800
C 	C 	0.33440 0.73650 0.00580 -0.51900
C 	C 	0.45920 0.74490 0.09840 0.43000
C 	C 	0.79210 0.63790 0.81320 0.41600
C 	C 	0.84750 0.76560 0.92820 -0.46100
C 	C 	0.77150 0.83770 0.97160 0.40600
C 	C 	0.63990 0.77930 0.89130 -0.46800
C 	C 	0.58160 0.65340 0.77370 0.40400
C 	C 	0.65990 0.58080 0.73600 -0.45300
C 	C 	0.87810 0.56410 0.76680 -0.60900
C 	C 	0.92820 0.59800 0.68670 0.51400
C 	C 	0.83210 0.97390 0.10160 -0.58800
C 	C 	0.85990 0.97510 0.22980 0.55100
C 	C 	0.43900 0.59530 0.68020 -0.58600
C 	C 	0.34850 0.51970 0.70360 0.52500
C 	C 	0.89190 0.22940 0.82800 0.40100
C 	C 	0.86080 0.09230 0.75310 -0.44300
C 	C 	0.76900 0.01130 0.75650 0.40200
C 	C 	0.70930 0.06820 0.83740 -0.44000
C 	C 	0.73570 0.20370 0.90930 0.38100
C 	C 	0.82560 0.28180 0.90270 -0.44400
C 	C 	0.00110 0.31810 0.83730 -0.57400
C 	C 	0.99770 0.29420 0.70520 0.48400
C 	C 	0.73530 0.86220 0.67480 -0.60200
C 	C 	0.71530 0.80680 0.53170 0.48800
C 	C 	0.66560 0.26350 0.99420 -0.51900
C 	C 	0.54080 0.25510 0.90160 0.43000
C 	C 	0.20790 0.36210 0.18680 0.41600
C 	C 	0.15250 0.23440 0.07180 -0.46100
C 	C 	0.22850 0.16230 0.02840 0.40600
C 	C 	0.36010 0.22070 0.10870 -0.46800
C 	C 	0.41840 0.34660 0.22630 0.40400
C 	C 	0.34010 0.41920 0.26400 -0.45300
C 	C 	0.12190 0.43590 0.23320 -0.60900
C 	C 	0.07180 0.40200 0.31330 0.51400
C 	C 	0.16790 0.02610 0.89840 -0.58800
C 	C 	0.14010 0.02490 0.77020 0.55100
C 	C 	0.56100 0.40470 0.31980 -0.58600
C 	C 	0.65150 0.48030 0.29640 0.52500
O 	O 	0.10490 0.73320 0.39070 -0.47300
O 	O 	0.89780 0.68910 0.30480 -0.66600
O 	O 	0.19620 0.22340 0.50290 -0.63300
O 	O 	0.38630 0.20520 0.55410 -0.47100
O 	O 	0.45880 0.66260 0.13060 -0.48000
O 	O 	0.56160 0.83480 0.14420 -0.47000
O 	O 	0.97210 0.52090 0.61140 -0.63800
O 	O 	0.92440 0.70060 0.69120 -0.53200
O 	O 	0.83170 0.86820 0.21960 -0.55900
O 	O 	0.91060 0.08650 0.34450 -0.57200
O 	O 	0.23100 0.50180 0.64390 -0.55000
O 	O 	0.38920 0.47410 0.77300 -0.52300
O 	O 	0.89510 0.26680 0.60930 -0.47300
O 	O 	0.10220 0.31090 0.69520 -0.66600
O 	O 	0.80380 0.77660 0.49710 -0.63300
O 	O 	0.61370 0.79480 0.44590 -0.47100
O 	O 	0.54120 0.33740 0.86940 -0.48000
O 	O 	0.43840 0.16520 0.85580 -0.47000
O 	O 	0.02790 0.47910 0.38860 -0.63800
O 	O 	0.07560 0.29940 0.30880 -0.53200
O 	O 	0.16830 0.13180 0.78040 -0.55900
O 	O 	0.08940 0.91350 0.65550 -0.57200
O 	O 	0.76900 0.49820 0.35610 -0.55000
O 	O 	0.61080 0.52590 0.22700 -0.52300
