data_crystal

_cell_length_a 18.61500
_cell_length_b 18.61500
_cell_length_c 22.42910
_cell_angle_alpha 114.51800
_cell_angle_beta  114.51800
_cell_angle_gamma 90.00000

_symmetry_space_group_name_	'P 1'
_symmetry_space_group_name_H-M	'P 1'

loop_
_symmetry_equiv_pos_as_xyz
  x,y,z

loop_
_atom_site_label
_atom_site_type_symbol
_atom_site_fract_x
_atom_site_fract_y
_atom_site_fract_z
_atom_site_charge
Cu	Cu	0.50623 0.93975 0.44520 0.91200
Cu	Cu	0.93897 0.50545 0.44520 0.91100
Cu	Cu	0.93975 0.93897 0.44520 0.91100
Cu	Cu	0.50545 0.50623 0.44520 0.91200
Cu	Cu	0.49377 0.06025 0.55480 0.91200
Cu	Cu	0.06103 0.49455 0.55480 0.91200
Cu	Cu	0.06025 0.06103 0.55480 0.91200
Cu	Cu	0.49455 0.49377 0.55480 0.91200
Cu	Cu	0.71240 0.00130 -0.00000 0.84200
Cu	Cu	0.28760 0.99870 1.00000 0.85300
Cu	Cu	0.00130 0.28760 -0.00000 0.84300
Cu	Cu	0.99870 0.71240 -0.00000 0.83900
H 	H 	0.49310 0.76160 0.51540 0.05600
H 	H 	0.56650 0.74440 0.71180 0.06600
H 	H 	0.57230 0.96700 0.71580 0.06300
H 	H 	0.45610 0.82020 0.75760 0.05500
H 	H 	0.71970 0.93370 0.75820 0.05700
H 	H 	0.42040 0.83970 0.85980 0.06900
H 	H 	0.85930 0.02110 0.85280 0.07100
H 	H 	0.02230 0.75380 0.51540 0.05700
H 	H 	0.14530 0.96740 0.71180 0.06500
H 	H 	0.14350 0.74880 0.71580 0.06300
H 	H 	0.30150 0.93740 0.75760 0.05600
H 	H 	0.03850 0.82450 0.75820 0.05700
H 	H 	0.43940 0.02010 0.85980 0.07000
H 	H 	0.99350 0.83170 0.85280 0.07100
H 	H 	0.76160 0.02230 0.51540 0.05600
H 	H 	0.74440 0.14530 0.71180 0.06500
H 	H 	0.96700 0.14350 0.71580 0.06300
H 	H 	0.82020 0.30150 0.75760 0.05500
H 	H 	0.93370 0.03850 0.75820 0.05600
H 	H 	0.83970 0.43940 0.85980 0.07100
H 	H 	0.02110 0.99350 0.85280 0.07000
H 	H 	0.75380 0.49310 0.51540 0.05600
H 	H 	0.96740 0.56650 0.71180 0.06500
H 	H 	0.74880 0.57230 0.71580 0.06300
H 	H 	0.93740 0.45610 0.75760 0.05500
H 	H 	0.82450 0.71970 0.75820 0.05700
H 	H 	0.02010 0.42040 0.85980 0.06900
H 	H 	0.83170 0.85930 0.85280 0.07100
H 	H 	0.50690 0.23840 0.48460 0.05700
H 	H 	0.43350 0.25560 0.28820 0.06500
H 	H 	0.42770 0.03300 0.28420 0.06200
H 	H 	0.54390 0.17980 0.24240 0.05500
H 	H 	0.28030 0.06630 0.24180 0.05700
H 	H 	0.57960 0.16030 0.14020 0.06500
H 	H 	0.14070 0.97890 0.14720 0.06900
H 	H 	0.97770 0.24620 0.48460 0.05700
H 	H 	0.85470 0.03260 0.28820 0.06400
H 	H 	0.85650 0.25120 0.28420 0.06200
H 	H 	0.69850 0.06260 0.24240 0.05500
H 	H 	0.96150 0.17550 0.24180 0.05600
H 	H 	0.56060 0.97990 0.14020 0.06500
H 	H 	0.00650 0.16830 0.14720 0.07200
H 	H 	0.23840 0.97770 0.48460 0.05600
H 	H 	0.25560 0.85470 0.28820 0.06400
H 	H 	0.03300 0.85650 0.28420 0.06300
H 	H 	0.17980 0.69850 0.24240 0.05600
H 	H 	0.06630 0.96150 0.24180 0.05500
H 	H 	0.16030 0.56060 0.14020 0.06500
H 	H 	0.97890 0.00650 0.14720 0.07200
H 	H 	0.24620 0.50690 0.48460 0.05700
H 	H 	0.03260 0.43350 0.28820 0.06500
H 	H 	0.25120 0.42770 0.28420 0.06200
H 	H 	0.06260 0.54390 0.24240 0.05400
H 	H 	0.17550 0.28030 0.24180 0.05700
H 	H 	0.97990 0.57960 0.14020 0.06600
H 	H 	0.16830 0.14070 0.14720 0.06800
H 	H 	0.49870 0.90780 -0.00000 0.10400
H 	H 	0.94360 0.08020 -0.00000 0.09900
H 	H 	0.50130 0.09220 -0.00000 0.10400
H 	H 	0.05640 0.91980 -0.00000 0.09900
H 	H 	0.90780 0.50130 -0.00000 0.10400
H 	H 	0.08020 0.05640 -0.00000 0.09800
H 	H 	0.09220 0.49870 -0.00000 0.10200
H 	H 	0.91980 0.94360 -0.00000 0.09900
C 	C 	0.51720 0.92200 0.57440 0.32700
C 	C 	0.51270 0.65460 0.57580 0.29700
C 	C 	0.53120 0.86860 0.61040 -0.05900
C 	C 	0.51340 0.78660 0.56740 0.00300
C 	C 	0.52840 0.74370 0.60860 -0.05400
C 	C 	0.55850 0.77690 0.68720 -0.06800
C 	C 	0.57470 0.86190 0.72400 0.05700
C 	C 	0.56170 0.90970 0.68920 -0.06400
C 	C 	0.61320 0.90270 0.80680 -0.10000
C 	C 	0.69190 0.94660 0.84460 0.06900
C 	C 	0.56890 0.89460 0.84300 0.07500
C 	C 	0.48980 0.85070 0.80900 -0.05700
C 	C 	0.73910 0.95680 0.81000 -0.06200
C 	C 	0.82110 0.02470 0.93240 0.12900
C 	C 	0.54200 0.90910 0.93160 0.17200
C 	C 	0.47020 0.86050 0.86460 -0.12100
C 	C 	0.81820 0.00530 0.86220 -0.10500
C 	C 	0.05720 0.65240 0.57440 0.32800
C 	C 	0.06310 0.92120 0.57580 0.29900
C 	C 	0.07920 0.74180 0.61040 -0.05900
C 	C 	0.05400 0.78080 0.56740 0.00300
C 	C 	0.08020 0.86490 0.60860 -0.05500
C 	C 	0.12870 0.91030 0.68720 -0.06800
C 	C 	0.14930 0.86210 0.72400 0.05700
C 	C 	0.12750 0.77950 0.68920 -0.06400
C 	C 	0.19360 0.90410 0.80680 -0.10000
C 	C 	0.15270 0.89800 0.84460 0.06800
C 	C 	0.27410 0.94840 0.84300 0.07500
C 	C 	0.31920 0.95830 0.80900 -0.05900
C 	C 	0.07090 0.85320 0.81000 -0.05900
C 	C 	0.11130 0.90770 0.93240 0.12000
C 	C 	0.38960 0.02250 0.93160 0.17300
C 	C 	0.39440 0.00410 0.86460 -0.11900
C 	C 	0.04400 0.85690 0.86220 -0.10700
C 	C 	0.92200 0.05720 0.57440 0.32900
C 	C 	0.65460 0.06310 0.57580 0.29900
C 	C 	0.86860 0.07920 0.61040 -0.05900
C 	C 	0.78660 0.05400 0.56740 0.00400
C 	C 	0.74370 0.08020 0.60860 -0.05400
C 	C 	0.77690 0.12870 0.68720 -0.06700
C 	C 	0.86190 0.14930 0.72400 0.05700
C 	C 	0.90970 0.12750 0.68920 -0.06300
C 	C 	0.90270 0.19360 0.80680 -0.09900
C 	C 	0.94660 0.15270 0.84460 0.06800
C 	C 	0.89460 0.27410 0.84300 0.07400
C 	C 	0.85070 0.31920 0.80900 -0.05600
C 	C 	0.95680 0.07090 0.81000 -0.05600
C 	C 	0.02470 0.11130 0.93240 0.11800
C 	C 	0.90910 0.38960 0.93160 0.17700
C 	C 	0.86050 0.39440 0.86460 -0.12300
C 	C 	0.00530 0.04400 0.86220 -0.10700
C 	C 	0.65240 0.51720 0.57440 0.32700
C 	C 	0.92120 0.51270 0.57580 0.29700
C 	C 	0.74180 0.53120 0.61040 -0.05900
C 	C 	0.78080 0.51340 0.56740 0.00300
C 	C 	0.86490 0.52840 0.60860 -0.05400
C 	C 	0.91030 0.55850 0.68720 -0.06800
C 	C 	0.86210 0.57470 0.72400 0.05700
C 	C 	0.77950 0.56170 0.68920 -0.06400
C 	C 	0.90410 0.61320 0.80680 -0.09900
C 	C 	0.89800 0.69190 0.84460 0.06800
C 	C 	0.94840 0.56890 0.84300 0.07400
C 	C 	0.95830 0.48980 0.80900 -0.05500
C 	C 	0.85320 0.73910 0.81000 -0.05900
C 	C 	0.90770 0.82110 0.93240 0.12700
C 	C 	0.02250 0.54200 0.93160 0.16600
C 	C 	0.00410 0.47020 0.86460 -0.12100
C 	C 	0.85690 0.81820 0.86220 -0.10800
C 	C 	0.48280 0.07800 0.42560 0.32700
C 	C 	0.48730 0.34540 0.42420 0.29700
C 	C 	0.46880 0.13140 0.38960 -0.05900
C 	C 	0.48660 0.21340 0.43260 0.00300
C 	C 	0.47160 0.25630 0.39140 -0.05400
C 	C 	0.44150 0.22310 0.31280 -0.06800
C 	C 	0.42530 0.13810 0.27600 0.05700
C 	C 	0.43830 0.09030 0.31080 -0.06400
C 	C 	0.38680 0.09730 0.19320 -0.10100
C 	C 	0.30810 0.05340 0.15540 0.06700
C 	C 	0.43110 0.10540 0.15700 0.07400
C 	C 	0.51020 0.14930 0.19100 -0.06000
C 	C 	0.26090 0.04320 0.19000 -0.06100
C 	C 	0.17890 0.97530 0.06760 0.10800
C 	C 	0.45800 0.09090 0.06840 0.15800
C 	C 	0.52980 0.13950 0.13540 -0.11700
C 	C 	0.18180 0.99470 0.13780 -0.10300
C 	C 	0.94280 0.34760 0.42560 0.32600
C 	C 	0.93690 0.07880 0.42420 0.29700
C 	C 	0.92080 0.25820 0.38960 -0.05900
C 	C 	0.94600 0.21920 0.43260 0.00300
C 	C 	0.91980 0.13510 0.39140 -0.05400
C 	C 	0.87130 0.08970 0.31280 -0.06800
C 	C 	0.85070 0.13790 0.27600 0.05700
C 	C 	0.87250 0.22050 0.31080 -0.06400
C 	C 	0.80640 0.09590 0.19320 -0.10000
C 	C 	0.84730 0.10200 0.15540 0.06600
C 	C 	0.72590 0.05160 0.15700 0.07300
C 	C 	0.68080 0.04170 0.19100 -0.05800
C 	C 	0.92910 0.14680 0.19000 -0.05800
C 	C 	0.88870 0.09230 0.06760 0.11200
C 	C 	0.61040 0.97750 0.06840 0.15600
C 	C 	0.60560 0.99590 0.13540 -0.11900
C 	C 	0.95600 0.14310 0.13780 -0.11000
C 	C 	0.07800 0.94280 0.42560 0.32700
C 	C 	0.34540 0.93690 0.42420 0.29600
C 	C 	0.13140 0.92080 0.38960 -0.05900
C 	C 	0.21340 0.94600 0.43260 0.00300
C 	C 	0.25630 0.91980 0.39140 -0.05400
C 	C 	0.22310 0.87130 0.31280 -0.06800
C 	C 	0.13810 0.85070 0.27600 0.05700
C 	C 	0.09030 0.87250 0.31080 -0.06400
C 	C 	0.09730 0.80640 0.19320 -0.10000
C 	C 	0.05340 0.84730 0.15540 0.06500
C 	C 	0.10540 0.72590 0.15700 0.07400
C 	C 	0.14930 0.68080 0.19100 -0.06000
C 	C 	0.04320 0.92910 0.19000 -0.05200
C 	C 	0.97530 0.88870 0.06760 0.10800
C 	C 	0.09090 0.61040 0.06840 0.15600
C 	C 	0.13950 0.60560 0.13540 -0.11500
C 	C 	0.99470 0.95600 0.13780 -0.11500
C 	C 	0.34760 0.48280 0.42560 0.32700
C 	C 	0.07880 0.48730 0.42420 0.29700
C 	C 	0.25820 0.46880 0.38960 -0.05900
C 	C 	0.21920 0.48660 0.43260 0.00300
C 	C 	0.13510 0.47160 0.39140 -0.05400
C 	C 	0.08970 0.44150 0.31280 -0.06800
C 	C 	0.13790 0.42530 0.27600 0.05700
C 	C 	0.22050 0.43830 0.31080 -0.06400
C 	C 	0.09590 0.38680 0.19320 -0.10000
C 	C 	0.10200 0.30810 0.15540 0.06700
C 	C 	0.05160 0.43110 0.15700 0.07300
C 	C 	0.04170 0.51020 0.19100 -0.05300
C 	C 	0.14680 0.26090 0.19000 -0.06200
C 	C 	0.09230 0.17890 0.06760 0.10800
C 	C 	0.97750 0.45800 0.06840 0.15600
C 	C 	0.99590 0.52980 0.13540 -0.12300
C 	C 	0.14310 0.18180 0.13780 -0.10200
C 	C 	0.54510 0.92900 -0.00000 -0.26800
C 	C 	0.89400 0.06810 -0.00000 -0.23000
C 	C 	0.45490 0.07100 -0.00000 -0.26800
C 	C 	0.10600 0.93190 -0.00000 -0.22000
C 	C 	0.92900 0.45490 -0.00000 -0.27400
C 	C 	0.06810 0.10600 -0.00000 -0.21900
C 	C 	0.07100 0.54510 -0.00000 -0.26000
C 	C 	0.93190 0.89400 -0.00000 -0.22900
N 	N 	0.60030 0.92840 0.92000 -0.25000
N 	N 	0.74560 0.99090 0.92060 -0.23600
N 	N 	0.31970 0.99160 0.92000 -0.25300
N 	N 	0.17500 0.92970 0.92060 -0.23600
N 	N 	0.92840 0.31970 0.92000 -0.25000
N 	N 	0.99090 0.17500 0.92060 -0.23300
N 	N 	0.99160 0.60030 0.92000 -0.24700
N 	N 	0.92970 0.74560 0.92060 -0.23500
N 	N 	0.39970 0.07160 0.08000 -0.25400
N 	N 	0.25440 0.00910 0.07940 -0.24000
N 	N 	0.68030 0.00840 0.08000 -0.25300
N 	N 	0.82500 0.07030 0.07940 -0.23900
N 	N 	0.07160 0.68030 0.08000 -0.25200
N 	N 	0.00910 0.82500 0.07940 -0.23600
N 	N 	0.00840 0.39970 0.08000 -0.25100
N 	N 	0.07030 0.25440 0.07940 -0.23800
O 	O 	0.51170 0.88430 0.50720 -0.37500
O 	O 	0.50460 0.99090 0.59960 -0.40600
O 	O 	0.51040 0.60480 0.59880 -0.41100
O 	O 	0.51680 0.61970 0.50720 -0.36200
O 	O 	0.99550 0.62290 0.50720 -0.37600
O 	O 	0.09500 0.60870 0.59960 -0.40600
O 	O 	0.08840 0.99400 0.59880 -0.41200
O 	O 	0.99040 0.88750 0.50720 -0.36400
O 	O 	0.88430 0.99550 0.50720 -0.37700
O 	O 	0.99090 0.09500 0.59960 -0.40600
O 	O 	0.60480 0.08840 0.59880 -0.41100
O 	O 	0.61970 0.99040 0.50720 -0.36400
O 	O 	0.62290 0.51170 0.50720 -0.37400
O 	O 	0.60870 0.50460 0.59960 -0.40500
O 	O 	0.99400 0.51040 0.59880 -0.41100
O 	O 	0.88750 0.51680 0.50720 -0.36200
O 	O 	0.48830 0.11570 0.49280 -0.37400
O 	O 	0.49540 0.00910 0.40040 -0.40600
O 	O 	0.48960 0.39520 0.40120 -0.41200
O 	O 	0.48320 0.38030 0.49280 -0.36100
O 	O 	0.00450 0.37710 0.49280 -0.37300
O 	O 	0.90500 0.39130 0.40040 -0.40600
O 	O 	0.91160 0.00600 0.40120 -0.41100
O 	O 	0.00960 0.11250 0.49280 -0.36100
O 	O 	0.11570 0.00450 0.49280 -0.37400
O 	O 	0.00910 0.90500 0.40040 -0.40500
O 	O 	0.39520 0.91160 0.40120 -0.41200
O 	O 	0.38030 0.00960 0.49280 -0.36100
O 	O 	0.37710 0.48830 0.49280 -0.37400
O 	O 	0.39130 0.49540 0.40040 -0.40600
O 	O 	0.00600 0.48960 0.40120 -0.41100
O 	O 	0.11250 0.48320 0.49280 -0.36100
