data_crystal

_cell_length_a 16.29450
_cell_length_b 16.29450
_cell_length_c 17.43210
_cell_angle_alpha 90.00000
_cell_angle_beta  90.00000
_cell_angle_gamma 90.00000

_symmetry_space_group_name_	'P 1'
_symmetry_space_group_name_H-M	'P 1'

loop_
_symmetry_equiv_pos_as_xyz
  x,y,z

loop_
_atom_site_label
_atom_site_type_symbol
_atom_site_fract_x
_atom_site_fract_y
_atom_site_fract_z
_atom_site_charge
Mn	Mn	0.23920 0.77370 0.21873 1.25400
N 	N 	0.22510 0.78080 0.34515 -0.27300
N 	N 	0.12006 0.70549 0.21184 -0.25800
N 	N 	0.17497 0.89328 0.20958 -0.28500
N 	N 	0.86072 0.66258 0.27065 -0.25900
N 	N 	0.19433 0.15468 0.26681 -0.27900
N 	N 	0.26210 0.75430 0.59381 -0.27500
C 	C 	0.15368 0.95822 0.22246 0.18300
C 	C 	0.16362 0.09362 0.25158 0.17800
N 	N 	0.17610 0.77550 0.47880 -0.02900
C 	C 	0.20370 0.77520 0.40900 0.03900
C 	C 	0.22250 0.76160 0.53750 0.04700
N 	N 	0.99480 0.62210 0.22180 -0.31300
C 	C 	0.05910 0.66920 0.21970 0.03200
C 	C 	0.92520 0.64790 0.24850 0.03300
N 	N 	0.12090 0.02915 0.23470 -0.18800
N 	N 	0.19620 0.81160 0.47970 -0.02500
C 	C 	0.21530 0.79480 0.40920 0.04900
C 	C 	0.28110 0.73340 0.03820 0.06100
N 	N 	0.18600 0.73340 0.47550 -0.10900
C 	C 	0.21190 0.75120 0.40660 0.03500
C 	C 	0.24060 0.73660 0.03290 0.02400
N 	N 	0.23460 0.83270 0.47800 -0.12200
C 	C 	0.23700 0.80300 0.40860 0.06100
C 	C 	0.28710 0.75800 0.03570 0.05300
N 	N 	0.48750 0.86080 0.30410 0.10400
C 	C 	0.05550 0.67990 0.20320 0.01900
C 	C 	0.42300 0.84630 0.26370 0.08200
N 	N 	0.50320 0.88100 0.24490 0.07900
C 	C 	0.06310 0.66740 0.23550 0.07500
C 	C 	0.42880 0.85390 0.23560 0.01400
Mn	Mn	0.76080 0.22630 0.21873 1.25300
N 	N 	0.77490 0.21920 0.34515 -0.27400
N 	N 	0.87994 0.29451 0.21184 -0.25900
N 	N 	0.82503 0.10672 0.20958 -0.28600
N 	N 	0.13928 0.33742 0.27065 -0.26000
N 	N 	0.80567 0.84532 0.26681 -0.28000
N 	N 	0.73790 0.24570 0.59381 -0.27600
C 	C 	0.84632 0.04178 0.22246 0.18200
C 	C 	0.83638 0.90638 0.25158 0.17800
N 	N 	0.82390 0.22450 0.47880 -0.02900
C 	C 	0.79630 0.22480 0.40900 0.03900
C 	C 	0.77750 0.23840 0.53750 0.04700
N 	N 	0.00520 0.37790 0.22180 -0.31300
C 	C 	0.94090 0.33080 0.21970 0.03200
C 	C 	0.07480 0.35210 0.24850 0.03300
N 	N 	0.87910 0.97085 0.23470 -0.18800
N 	N 	0.80380 0.18840 0.47970 -0.02500
C 	C 	0.78470 0.20520 0.40920 0.04900
C 	C 	0.71890 0.26660 0.03820 0.06100
N 	N 	0.81400 0.26660 0.47550 -0.10900
C 	C 	0.78810 0.24880 0.40660 0.03500
C 	C 	0.75940 0.26340 0.03290 0.02400
N 	N 	0.76540 0.16730 0.47800 -0.12200
C 	C 	0.76300 0.19700 0.40860 0.06100
C 	C 	0.71290 0.24200 0.03570 0.05300
N 	N 	0.51250 0.13920 0.30410 0.10400
C 	C 	0.94450 0.32010 0.20320 0.01900
C 	C 	0.57700 0.15370 0.26370 0.08200
N 	N 	0.49680 0.11900 0.24490 0.07900
C 	C 	0.93690 0.33260 0.23550 0.07500
C 	C 	0.57120 0.14610 0.23560 0.01400
Mn	Mn	0.77370 0.76080 0.78127 1.25300
N 	N 	0.78080 0.77490 0.65485 -0.27400
N 	N 	0.70549 0.87994 0.78816 -0.25900
N 	N 	0.89328 0.82503 0.79042 -0.28600
N 	N 	0.66258 0.13928 0.72935 -0.26000
N 	N 	0.15468 0.80567 0.73319 -0.28000
N 	N 	0.75430 0.73790 0.40619 -0.27600
C 	C 	0.95822 0.84632 0.77754 0.18200
C 	C 	0.09362 0.83638 0.74842 0.17800
N 	N 	0.77550 0.82390 0.52120 -0.02900
C 	C 	0.77520 0.79630 0.59100 0.03900
C 	C 	0.76160 0.77750 0.46250 0.04700
N 	N 	0.62210 0.00520 0.77820 -0.31300
C 	C 	0.66920 0.94090 0.78030 0.03200
C 	C 	0.64790 0.07480 0.75150 0.03300
N 	N 	0.02915 0.87910 0.76530 -0.18800
N 	N 	0.81160 0.80380 0.52030 -0.02500
C 	C 	0.79480 0.78470 0.59080 0.04900
C 	C 	0.73340 0.71890 0.96180 0.06100
N 	N 	0.73340 0.81400 0.52450 -0.10900
C 	C 	0.75120 0.78810 0.59340 0.03500
C 	C 	0.73660 0.75940 0.96710 0.02400
N 	N 	0.83270 0.76540 0.52200 -0.12200
C 	C 	0.80300 0.76300 0.59140 0.06100
C 	C 	0.75800 0.71290 0.96430 0.05300
N 	N 	0.86080 0.51250 0.69590 0.10400
C 	C 	0.67990 0.94450 0.79680 0.01900
C 	C 	0.84630 0.57700 0.73630 0.08200
N 	N 	0.88100 0.49680 0.75510 0.07900
C 	C 	0.66740 0.93690 0.76450 0.07500
C 	C 	0.85390 0.57120 0.76440 0.01400
Mn	Mn	0.22630 0.23920 0.78127 1.25300
N 	N 	0.21920 0.22510 0.65485 -0.27400
N 	N 	0.29451 0.12006 0.78816 -0.25900
N 	N 	0.10672 0.17497 0.79042 -0.28600
N 	N 	0.33742 0.86072 0.72935 -0.26000
N 	N 	0.84532 0.19433 0.73319 -0.28000
N 	N 	0.24570 0.26210 0.40619 -0.27600
C 	C 	0.04178 0.15368 0.77754 0.18200
C 	C 	0.90638 0.16362 0.74842 0.17800
N 	N 	0.22450 0.17610 0.52120 -0.02900
C 	C 	0.22480 0.20370 0.59100 0.03900
C 	C 	0.23840 0.22250 0.46250 0.04700
N 	N 	0.37790 0.99480 0.77820 -0.31300
C 	C 	0.33080 0.05910 0.78030 0.03200
C 	C 	0.35210 0.92520 0.75150 0.03300
N 	N 	0.97085 0.12090 0.76530 -0.18800
N 	N 	0.18840 0.19620 0.52030 -0.02500
C 	C 	0.20520 0.21530 0.59080 0.04900
C 	C 	0.26660 0.28110 0.96180 0.06100
N 	N 	0.26660 0.18600 0.52450 -0.10900
C 	C 	0.24880 0.21190 0.59340 0.03500
C 	C 	0.26340 0.24060 0.96710 0.02400
N 	N 	0.16730 0.23460 0.52200 -0.12200
C 	C 	0.19700 0.23700 0.59140 0.06100
C 	C 	0.24200 0.28710 0.96430 0.05300
N 	N 	0.13920 0.48750 0.69590 0.10400
C 	C 	0.32010 0.05550 0.79680 0.01900
C 	C 	0.15370 0.42300 0.73630 0.08200
N 	N 	0.11900 0.50320 0.75510 0.07900
C 	C 	0.33260 0.06310 0.76450 0.07500
C 	C 	0.14610 0.42880 0.76440 0.01400
Mn	Mn	0.26080 0.27370 0.28127 1.25300
N 	N 	0.27490 0.28080 0.15485 -0.27400
N 	N 	0.37994 0.20549 0.28816 -0.25900
N 	N 	0.32503 0.39328 0.29042 -0.28600
N 	N 	0.63928 0.16258 0.22935 -0.26000
N 	N 	0.30567 0.65468 0.23319 -0.28000
N 	N 	0.23790 0.25430 0.90619 -0.27600
C 	C 	0.34632 0.45822 0.27754 0.18200
C 	C 	0.33638 0.59362 0.24842 0.17800
N 	N 	0.32390 0.27550 0.02120 -0.02900
C 	C 	0.29630 0.27520 0.09100 0.03900
C 	C 	0.27750 0.26160 0.96250 0.04700
N 	N 	0.50520 0.12210 0.27820 -0.31300
C 	C 	0.44090 0.16920 0.28030 0.03200
C 	C 	0.57480 0.14790 0.25150 0.03300
N 	N 	0.37910 0.52915 0.26530 -0.18700
N 	N 	0.30380 0.31160 0.02030 -0.02500
C 	C 	0.28470 0.29480 0.09080 0.04900
C 	C 	0.21890 0.23340 0.46180 0.06200
N 	N 	0.31400 0.23340 0.02450 -0.11000
C 	C 	0.28810 0.25120 0.09340 0.03500
C 	C 	0.25940 0.23660 0.46710 0.02400
N 	N 	0.26540 0.33270 0.02200 -0.12200
C 	C 	0.26300 0.30300 0.09140 0.06100
C 	C 	0.21290 0.25800 0.46430 0.05300
N 	N 	0.01250 0.36080 0.19590 0.10400
C 	C 	0.44450 0.17990 0.29680 0.01800
C 	C 	0.07700 0.34630 0.23630 0.08200
N 	N 	0.99680 0.38100 0.25510 0.07900
C 	C 	0.43690 0.16740 0.26450 0.07500
C 	C 	0.07120 0.35390 0.26440 0.01400
Mn	Mn	0.73920 0.72630 0.28127 1.25300
N 	N 	0.72510 0.71920 0.15485 -0.27400
N 	N 	0.62006 0.79451 0.28816 -0.25900
N 	N 	0.67497 0.60672 0.29042 -0.28600
N 	N 	0.36072 0.83742 0.22935 -0.26000
N 	N 	0.69433 0.34532 0.23319 -0.28000
N 	N 	0.76210 0.74570 0.90619 -0.27600
C 	C 	0.65368 0.54178 0.27754 0.18200
C 	C 	0.66362 0.40638 0.24842 0.17800
N 	N 	0.67610 0.72450 0.02120 -0.02900
C 	C 	0.70370 0.72480 0.09100 0.03900
C 	C 	0.72250 0.73840 0.96250 0.04700
N 	N 	0.49480 0.87790 0.27820 -0.31300
C 	C 	0.55910 0.83080 0.28030 0.03200
C 	C 	0.42520 0.85210 0.25150 0.03300
N 	N 	0.62090 0.47085 0.26530 -0.18700
N 	N 	0.69620 0.68840 0.02030 -0.02500
C 	C 	0.71530 0.70520 0.09080 0.04900
C 	C 	0.78110 0.76660 0.46180 0.06200
N 	N 	0.68600 0.76660 0.02450 -0.11000
C 	C 	0.71190 0.74880 0.09340 0.03500
C 	C 	0.74060 0.76340 0.46710 0.02400
N 	N 	0.73460 0.66730 0.02200 -0.12200
C 	C 	0.73700 0.69700 0.09140 0.06100
C 	C 	0.78710 0.74200 0.46430 0.05300
N 	N 	0.98750 0.63920 0.19590 0.10400
C 	C 	0.55550 0.82010 0.29680 0.01800
C 	C 	0.92300 0.65370 0.23630 0.08200
N 	N 	0.00320 0.61900 0.25510 0.07900
C 	C 	0.56310 0.83260 0.26450 0.07500
C 	C 	0.92880 0.64610 0.26440 0.01400
Mn	Mn	0.72630 0.26080 0.71873 1.25300
N 	N 	0.71920 0.27490 0.84515 -0.27400
N 	N 	0.79451 0.37994 0.71184 -0.25900
N 	N 	0.60672 0.32503 0.70958 -0.28600
N 	N 	0.83742 0.63928 0.77065 -0.26000
N 	N 	0.34532 0.30567 0.76681 -0.28000
N 	N 	0.74570 0.23790 0.09381 -0.27600
C 	C 	0.54178 0.34632 0.72246 0.18200
C 	C 	0.40638 0.33638 0.75158 0.17800
N 	N 	0.72450 0.32390 0.97880 -0.02900
C 	C 	0.72480 0.29630 0.90900 0.03900
C 	C 	0.73840 0.27750 0.03750 0.04700
N 	N 	0.87790 0.50520 0.72180 -0.31300
C 	C 	0.83080 0.44090 0.71970 0.03200
C 	C 	0.85210 0.57480 0.74850 0.03300
N 	N 	0.47085 0.37910 0.73470 -0.18700
N 	N 	0.68840 0.30380 0.97970 -0.02500
C 	C 	0.70520 0.28470 0.90920 0.04900
C 	C 	0.76660 0.21890 0.53820 0.06200
N 	N 	0.76660 0.31400 0.97550 -0.11000
C 	C 	0.74880 0.28810 0.90660 0.03500
C 	C 	0.76340 0.25940 0.53290 0.02400
N 	N 	0.66730 0.26540 0.97800 -0.12200
C 	C 	0.69700 0.26300 0.90860 0.06100
C 	C 	0.74200 0.21290 0.53570 0.05300
N 	N 	0.63920 0.01250 0.80410 0.10400
C 	C 	0.82010 0.44450 0.70320 0.01800
C 	C 	0.65370 0.07700 0.76370 0.08200
N 	N 	0.61900 0.99680 0.74490 0.07900
C 	C 	0.83260 0.43690 0.73550 0.07500
C 	C 	0.64610 0.07120 0.73560 0.01400
Mn	Mn	0.27370 0.73920 0.71873 1.25300
N 	N 	0.28080 0.72510 0.84515 -0.27400
N 	N 	0.20549 0.62006 0.71184 -0.25900
N 	N 	0.39328 0.67497 0.70958 -0.28600
N 	N 	0.16258 0.36072 0.77065 -0.26000
N 	N 	0.65468 0.69433 0.76681 -0.28000
N 	N 	0.25430 0.76210 0.09381 -0.27600
C 	C 	0.45822 0.65368 0.72246 0.18200
C 	C 	0.59362 0.66362 0.75158 0.17800
N 	N 	0.27550 0.67610 0.97880 -0.02900
C 	C 	0.27520 0.70370 0.90900 0.03900
C 	C 	0.26160 0.72250 0.03750 0.04700
N 	N 	0.12210 0.49480 0.72180 -0.31300
C 	C 	0.16920 0.55910 0.71970 0.03200
C 	C 	0.14790 0.42520 0.74850 0.03300
N 	N 	0.52915 0.62090 0.73470 -0.18700
N 	N 	0.31160 0.69620 0.97970 -0.02500
C 	C 	0.29480 0.71530 0.90920 0.04900
C 	C 	0.23340 0.78110 0.53820 0.06200
N 	N 	0.23340 0.68600 0.97550 -0.11000
C 	C 	0.25120 0.71190 0.90660 0.03500
C 	C 	0.23660 0.74060 0.53290 0.02400
N 	N 	0.33270 0.73460 0.97800 -0.12200
C 	C 	0.30300 0.73700 0.90860 0.06100
C 	C 	0.25800 0.78710 0.53570 0.05300
N 	N 	0.36080 0.98750 0.80410 0.10400
C 	C 	0.17990 0.55550 0.70320 0.01800
C 	C 	0.34630 0.92300 0.76370 0.08200
N 	N 	0.38100 0.00320 0.74490 0.07900
C 	C 	0.16740 0.56310 0.73550 0.07500
C 	C 	0.35390 0.92880 0.73560 0.01400
