data_crystal

_cell_length_a 16.01070
_cell_length_b 16.01140
_cell_length_c 21.55770
_cell_angle_alpha 90.00000
_cell_angle_beta  90.00000
_cell_angle_gamma 90.00000

_symmetry_space_group_name_	'P 1'
_symmetry_space_group_name_H-M	'P 1'

loop_
_symmetry_equiv_pos_as_xyz
  x,y,z

loop_
_atom_site_label
_atom_site_type_symbol
_atom_site_fract_x
_atom_site_fract_y
_atom_site_fract_z
_atom_site_charge
N 	N 	0.90790 0.01520 0.40500 -0.28400
N 	N 	0.10390 0.98700 0.25982 -0.27500
N 	N 	0.01210 0.13920 0.32150 -0.31300
N 	N 	0.00490 0.39540 0.24736 -0.30800
N 	N 	0.98770 0.59110 0.09950 -0.26900
N 	N 	0.13700 0.50990 0.17990 -0.29900
N 	N 	0.39750 0.51260 0.24904 -0.30300
N 	N 	0.90500 0.99900 0.60671 -0.20100
N 	N 	0.98710 0.13800 0.68680 -0.30000
N 	N 	0.98970 0.39710 0.75440 -0.28100
N 	N 	0.36130 0.98640 0.18309 -0.26600
N 	N 	0.00010 0.59230 0.89893 -0.33700
N 	N 	0.86300 0.06570 0.50630 -0.08900
N 	N 	0.84220 0.03270 0.50730 -0.10500
N 	N 	0.20900 0.96700 0.17920 -0.18900
N 	N 	0.04460 0.28660 0.31670 -0.17700
N 	N 	0.99820 0.28730 0.32510 -0.03800
N 	N 	0.98610 0.66190 0.00020 -0.09600
N 	N 	0.94630 0.64680 0.99810 -0.13200
N 	N 	0.29270 0.51760 0.16770 -0.10500
N 	N 	0.28300 0.47780 0.17800 -0.11500
N 	N 	0.97290 0.28580 0.67940 -0.19400
C 	C 	0.88670 0.02810 0.45460 0.14600
C 	C 	0.15780 0.98180 0.22580 0.18600
C 	C 	0.01230 0.20720 0.31790 0.15000
C 	C 	0.01180 0.34270 0.27910 0.15400
C 	C 	0.97740 0.61670 0.05150 0.20300
C 	C 	0.20830 0.50900 0.18020 0.16700
C 	C 	0.34320 0.50770 0.21500 0.15700
C 	C 	0.88330 0.01990 0.55810 0.06500
C 	C 	0.97950 0.20700 0.68780 0.17100
C 	C 	0.97940 0.34170 0.72260 0.17400
C 	C 	0.28990 0.97780 0.18590 0.17300
C 	C 	0.98210 0.61690 0.94591 0.22000
N 	N 	0.09210 0.98480 0.40500 -0.26800
N 	N 	0.89610 0.01300 0.25982 -0.29000
N 	N 	0.98790 0.86080 0.32150 -0.28300
N 	N 	0.99510 0.60460 0.24736 -0.29500
N 	N 	0.01230 0.40890 0.09950 -0.29900
N 	N 	0.86300 0.49010 0.17990 -0.28300
N 	N 	0.60250 0.48740 0.24904 -0.30300
N 	N 	0.09500 0.00100 0.60671 -0.36200
N 	N 	0.01290 0.86200 0.68680 -0.29500
N 	N 	0.01030 0.60290 0.75440 -0.30300
N 	N 	0.63870 0.01360 0.18309 -0.29600
N 	N 	0.99990 0.40770 0.89893 -0.24200
N 	N 	0.13700 0.93430 0.50630 -0.11800
N 	N 	0.15780 0.96730 0.50730 -0.10100
N 	N 	0.79100 0.03300 0.17920 -0.20100
N 	N 	0.95540 0.71340 0.31670 -0.08500
N 	N 	0.00180 0.71270 0.32510 -0.19900
N 	N 	0.01390 0.33810 0.00020 -0.11300
N 	N 	0.05370 0.35320 0.99810 -0.10700
N 	N 	0.70730 0.48240 0.16770 -0.10400
N 	N 	0.71700 0.52220 0.17800 -0.11500
N 	N 	0.02710 0.71420 0.67940 -0.20000
C 	C 	0.11330 0.97190 0.45460 0.17400
C 	C 	0.84220 0.01820 0.22580 0.12600
C 	C 	0.98770 0.79280 0.31790 0.25100
C 	C 	0.98820 0.65730 0.27910 0.23600
C 	C 	0.02260 0.38330 0.05150 0.15100
C 	C 	0.79170 0.49100 0.18020 0.17100
C 	C 	0.65680 0.49230 0.21500 0.15900
C 	C 	0.11670 0.98010 0.55810 0.22600
C 	C 	0.02050 0.79300 0.68780 0.16000
C 	C 	0.02060 0.65830 0.72260 0.15800
C 	C 	0.71010 0.02220 0.18590 0.12400
C 	C 	0.01790 0.38310 0.94591 0.07300
N 	N 	0.59210 0.51520 0.59500 -0.28200
N 	N 	0.39610 0.48700 0.74018 -0.28900
N 	N 	0.48790 0.63920 0.67850 -0.30200
N 	N 	0.49510 0.89540 0.75264 -0.28600
N 	N 	0.51230 0.09110 0.90050 -0.29700
N 	N 	0.36300 0.00990 0.82010 -0.30000
N 	N 	0.10250 0.01260 0.75096 -0.31700
N 	N 	0.59500 0.49900 0.39329 -0.28300
N 	N 	0.51290 0.63800 0.31320 -0.30500
N 	N 	0.51030 0.89710 0.24560 -0.27600
N 	N 	0.13870 0.48640 0.81691 -0.29100
N 	N 	0.49990 0.09230 0.10107 -0.30200
N 	N 	0.63700 0.56570 0.49370 -0.10200
N 	N 	0.65780 0.53270 0.49270 -0.10200
N 	N 	0.29100 0.46700 0.82080 -0.19700
N 	N 	0.45540 0.78660 0.68330 -0.13000
N 	N 	0.50180 0.78730 0.67490 -0.11700
N 	N 	0.51390 0.16190 0.99980 -0.10800
N 	N 	0.55370 0.14680 0.00190 -0.11300
N 	N 	0.20730 0.01760 0.83230 -0.20900
N 	N 	0.21700 0.97780 0.82200 0.03800
N 	N 	0.52710 0.78580 0.32060 -0.19400
C 	C 	0.61330 0.52810 0.54540 0.16200
C 	C 	0.34220 0.48180 0.77420 0.15200
C 	C 	0.48770 0.70720 0.68210 0.20700
C 	C 	0.48820 0.84270 0.72090 0.20400
C 	C 	0.52260 0.11670 0.94850 0.16100
C 	C 	0.29170 0.00900 0.81980 0.09400
C 	C 	0.15680 0.00770 0.78500 0.09400
C 	C 	0.61670 0.51990 0.44190 0.14200
C 	C 	0.52050 0.70700 0.31220 0.16700
C 	C 	0.52060 0.84170 0.27740 0.17400
C 	C 	0.21010 0.47780 0.81410 0.14300
C 	C 	0.51790 0.11690 0.05409 0.13000
N 	N 	0.40790 0.48480 0.59500 -0.28400
N 	N 	0.60390 0.51300 0.74018 -0.28800
N 	N 	0.51210 0.36080 0.67850 -0.30300
N 	N 	0.50490 0.10460 0.75264 -0.31500
N 	N 	0.48770 0.90890 0.90050 -0.26900
N 	N 	0.63700 0.99010 0.82010 -0.27800
N 	N 	0.89750 0.98740 0.75096 -0.27800
N 	N 	0.40500 0.50100 0.39329 -0.28400
N 	N 	0.48710 0.36200 0.31320 -0.30500
N 	N 	0.48970 0.10290 0.24560 -0.30500
N 	N 	0.86130 0.51360 0.81691 -0.27300
N 	N 	0.50010 0.90770 0.10107 -0.27500
N 	N 	0.36300 0.43430 0.49370 -0.10600
N 	N 	0.34220 0.46730 0.49270 -0.10300
N 	N 	0.70900 0.53300 0.82080 -0.19500
N 	N 	0.54460 0.21340 0.68330 -0.12900
N 	N 	0.49820 0.21270 0.67490 -0.12700
N 	N 	0.48610 0.83810 0.99980 -0.09700
N 	N 	0.44630 0.85320 0.00190 -0.12900
N 	N 	0.79270 0.98240 0.83230 -0.00800
N 	N 	0.78300 0.02220 0.82200 -0.25600
N 	N 	0.47290 0.21420 0.32060 -0.20100
C 	C 	0.38670 0.47190 0.54540 0.15500
C 	C 	0.65780 0.51820 0.77420 0.15800
C 	C 	0.51230 0.29280 0.68210 0.20000
C 	C 	0.51180 0.15730 0.72090 0.18800
C 	C 	0.47740 0.88330 0.94850 0.19400
C 	C 	0.70830 0.99100 0.81980 0.24100
C 	C 	0.84320 0.99230 0.78500 0.21700
C 	C 	0.38330 0.48010 0.44190 0.13900
C 	C 	0.47950 0.29300 0.31220 0.16400
C 	C 	0.47940 0.15830 0.27740 0.15700
C 	C 	0.78990 0.52220 0.81410 0.15300
C 	C 	0.48210 0.88310 0.05409 0.16400
Mn	Mn	0.00000 0.00000 0.32744 1.20400
Mn	Mn	0.00000 0.00000 0.68315 1.20000
Mn	Mn	0.50000 0.50000 0.67256 1.24900
Mn	Mn	0.50000 0.50000 0.31685 1.24400
Mn	Mn	0.00000 0.50000 0.17792 1.23300
Mn	Mn	0.50000 0.00000 0.82208 1.22400
Mn	Mn	0.50000 0.00000 0.17806 1.22300
Mn	Mn	-0.00000 0.50000 0.82194 1.23100
N 	N 	0.24540 0.22310 0.12917 -0.13600
C 	C 	0.26230 0.20250 0.19530 0.11600
H 	H 	0.32060 0.18710 0.19890 -0.02200
H 	H 	0.22950 0.15360 0.20600 -0.01200
C 	C 	0.24400 0.27070 0.24420 -0.45500
H 	H 	0.28240 0.31700 0.23840 0.15700
H 	H 	0.18770 0.29160 0.23850 0.16200
C 	C 	0.25270 0.23830 0.30570 0.39600
H 	H 	0.30540 0.20910 0.31040 -0.04300
H 	H 	0.20750 0.20020 0.31540 -0.04800
C 	C 	0.24930 0.32140 0.35090 -0.69300
H 	H 	0.25490 0.30440 0.39340 0.19800
H 	H 	0.19690 0.34950 0.34540 0.19300
H 	H 	0.29420 0.35850 0.34030 0.18400
H 	H 	0.30520 0.20810 0.30340 -0.04500
H 	H 	0.21010 0.19530 0.30700 -0.04600
C 	C 	0.25300 0.26950 0.36960 -0.27900
H 	H 	0.25960 0.22350 0.39770 0.05300
H 	H 	0.20110 0.29740 0.37800 0.15700
H 	H 	0.29840 0.30800 0.37490 0.17000
C 	C 	0.27330 0.14580 0.09240 0.10400
H 	H 	0.33110 0.13420 0.10280 -0.03000
H 	H 	0.24030 0.09850 0.10620 -0.01700
C 	C 	0.26610 0.15150 0.02230 -0.42000
H 	H 	0.29550 0.20070 0.00760 -0.00400
H 	H 	0.20780 0.15660 0.01050 -0.02400
C 	C 	0.30520 0.07010 0.99160 -0.90600
H 	H 	0.31400 0.07880 0.94760 0.25200
H 	H 	0.35850 0.05700 0.01070 0.25200
C 	C 	0.24310 0.99870 0.00220 -0.02300
H 	H 	0.26440 0.94850 0.98380 -0.08000
H 	H 	0.19050 0.01270 0.98350 -0.05300
H 	H 	0.23550 0.99040 0.04590 0.05200
H 	H 	0.32040 0.16590 0.00540 0.19800
H 	H 	0.22780 0.19640 0.01190 0.14300
C 	C 	0.23540 0.07040 0.99120 1.09800
H 	H 	0.18570 0.04920 0.01160 -0.34000
H 	H 	0.22300 0.07960 0.94760 -0.32300
C 	C 	0.30940 0.00980 0.99910 -0.37100
H 	H 	0.29840 0.95940 0.97640 0.22800
H 	H 	0.31630 0.99680 0.04230 0.16200
H 	H 	0.35940 0.03540 0.98360 0.13500
C 	C 	0.15200 0.24010 0.12040 -0.28200
H 	H 	0.13800 0.29110 0.14240 0.10200
H 	H 	0.14160 0.24970 0.07670 0.10200
C 	C 	0.09470 0.17190 0.14240 0.38000
H 	H 	0.10720 0.16190 0.18580 -0.07400
H 	H 	0.10960 0.12150 0.12000 -0.03600
C 	C 	0.00110 0.18240 0.13690 -0.47300
H 	H 	0.98740 0.23380 0.11530 0.21200
H 	H 	0.97510 0.18320 0.17750 0.20000
C 	C 	0.97110 0.10240 0.09780 -0.26500
H 	H 	0.91160 0.10460 0.09220 0.08200
H 	H 	0.98570 0.05240 0.11980 0.05900
H 	H 	0.99800 0.10260 0.05800 0.07000
H 	H 	0.06140 0.19010 0.17740 -0.03200
H 	H 	0.12570 0.12220 0.15380 -0.06500
C 	C 	0.03960 0.15630 0.08440 -0.41600
H 	H 	0.06980 0.18080 0.04990 0.10900
H 	H 	0.04070 0.09640 0.07770 0.12200
C 	C 	0.96020 0.17900 0.07700 0.68200
H 	H 	0.94100 0.16160 0.03690 -0.18500
H 	H 	0.95590 0.23880 0.08020 -0.24200
H 	H 	0.92650 0.15360 0.10850 -0.11700
C 	C 	0.29290 0.29830 0.10920 0.18500
H 	H 	0.27040 0.34620 0.13120 -0.02500
H 	H 	0.28220 0.30710 0.06540 -0.03500
C 	C 	0.38710 0.29750 0.11880 -0.60500
H 	H 	0.39890 0.29970 0.16290 0.19700
H 	H 	0.40940 0.24540 0.10290 0.20400
C 	C 	0.43050 0.36890 0.08730 0.69200
H 	H 	0.42140 0.36480 0.04290 -0.19000
H 	H 	0.40570 0.42090 0.10130 -0.19700
C 	C 	0.52220 0.37130 0.09960 -1.22000
H 	H 	0.54600 0.41990 0.08040 0.37800
H 	H 	0.54790 0.32210 0.08290 0.37800
H 	H 	0.53180 0.37360 0.14360 0.37600
N 	N 	0.75460 0.77690 0.12917 -0.19700
C 	C 	0.73770 0.79750 0.19530 0.11000
H 	H 	0.67940 0.81290 0.19890 -0.00700
H 	H 	0.77050 0.84640 0.20600 -0.00200
C 	C 	0.75600 0.72930 0.24420 -0.45500
H 	H 	0.71760 0.68300 0.23840 0.15800
H 	H 	0.81230 0.70840 0.23850 0.16200
C 	C 	0.74730 0.76170 0.30570 0.40100
H 	H 	0.69460 0.79090 0.31040 -0.03900
H 	H 	0.79250 0.79980 0.31540 -0.04200
C 	C 	0.75070 0.67860 0.35090 -0.73100
H 	H 	0.74510 0.69560 0.39340 0.20800
H 	H 	0.80310 0.65050 0.34540 0.20800
H 	H 	0.70580 0.64150 0.34030 0.19600
H 	H 	0.69480 0.79190 0.30340 -0.04000
H 	H 	0.78990 0.80470 0.30700 -0.04100
C 	C 	0.74700 0.73050 0.36960 -0.28000
H 	H 	0.74040 0.77650 0.39770 0.07400
H 	H 	0.79890 0.70260 0.37800 0.17100
H 	H 	0.70160 0.69200 0.37490 0.18000
C 	C 	0.72670 0.85420 0.09240 0.13800
H 	H 	0.66890 0.86580 0.10280 -0.01400
H 	H 	0.75970 0.90150 0.10620 -0.01500
C 	C 	0.73390 0.84850 0.02230 -0.53800
H 	H 	0.70450 0.79930 0.00760 0.17500
H 	H 	0.79220 0.84340 0.01050 0.22800
C 	C 	0.69480 0.92990 0.99160 1.52800
H 	H 	0.68600 0.92120 0.94760 -0.41700
H 	H 	0.64150 0.94300 0.01070 -0.42300
C 	C 	0.75690 0.00130 0.00220 -0.90500
H 	H 	0.73560 0.05150 0.98380 0.40600
H 	H 	0.80950 0.98730 0.98350 0.34800
H 	H 	0.76450 0.00960 0.04590 0.25100
H 	H 	0.67960 0.83410 0.00540 -0.00500
H 	H 	0.77220 0.80360 0.01190 0.01300
C 	C 	0.76460 0.92960 0.99120 -0.92000
H 	H 	0.81430 0.95080 0.01160 0.27500
H 	H 	0.77700 0.92040 0.94760 0.26400
C 	C 	0.69060 0.99020 0.99910 -0.11700
H 	H 	0.70160 0.04060 0.97640 -0.14200
H 	H 	0.68370 0.00320 0.04230 0.03600
H 	H 	0.64060 0.96460 0.98360 0.00400
C 	C 	0.84800 0.75990 0.12040 0.20000
H 	H 	0.86200 0.70890 0.14240 -0.03400
H 	H 	0.85840 0.75030 0.07670 -0.03900
C 	C 	0.90530 0.82810 0.14240 -0.56800
H 	H 	0.89280 0.83810 0.18580 0.16400
H 	H 	0.89040 0.87850 0.12000 0.20000
C 	C 	0.99890 0.81760 0.13690 0.99800
H 	H 	0.01260 0.76620 0.11530 -0.34700
H 	H 	0.02490 0.81680 0.17750 -0.31900
C 	C 	0.02890 0.89760 0.09780 -1.61600
H 	H 	0.08840 0.89540 0.09220 0.52300
H 	H 	0.01430 0.94760 0.11980 0.49600
H 	H 	0.00200 0.89740 0.05800 0.41500
H 	H 	0.93860 0.80990 0.17740 0.03400
H 	H 	0.87430 0.87780 0.15380 0.04900
C 	C 	0.96040 0.84370 0.08440 -0.57300
H 	H 	0.93020 0.81920 0.04990 0.16700
H 	H 	0.95930 0.90360 0.07770 0.24500
C 	C 	0.03980 0.82100 0.07700 0.75200
H 	H 	0.05900 0.83840 0.03690 -0.24800
H 	H 	0.04410 0.76120 0.08020 -0.14100
H 	H 	0.07350 0.84640 0.10850 -0.14500
C 	C 	0.70710 0.70170 0.10920 0.20900
H 	H 	0.72960 0.65380 0.13120 -0.03200
H 	H 	0.71780 0.69290 0.06540 -0.04400
C 	C 	0.61290 0.70250 0.11880 -0.62800
H 	H 	0.60110 0.70030 0.16290 0.20400
H 	H 	0.59060 0.75460 0.10290 0.21500
C 	C 	0.56950 0.63110 0.08730 0.71100
H 	H 	0.57860 0.63520 0.04290 -0.19500
H 	H 	0.59430 0.57910 0.10130 -0.20200
C 	C 	0.47780 0.62870 0.09960 -1.23800
H 	H 	0.45400 0.58010 0.08040 0.38300
H 	H 	0.45210 0.67790 0.08290 0.38300
H 	H 	0.46820 0.62640 0.14360 0.38100
N 	N 	0.25460 0.72310 0.87083 -0.15100
C 	C 	0.23770 0.70250 0.80470 0.12700
H 	H 	0.17940 0.68710 0.80110 -0.01700
H 	H 	0.27050 0.65360 0.79400 -0.01100
C 	C 	0.25600 0.77070 0.75580 -0.48800
H 	H 	0.21760 0.81700 0.76160 0.17400
H 	H 	0.31230 0.79160 0.76150 0.17600
C 	C 	0.24730 0.73830 0.69430 0.43900
H 	H 	0.19460 0.70910 0.68960 -0.04600
H 	H 	0.29250 0.70020 0.68460 -0.05100
C 	C 	0.25070 0.82140 0.64910 -0.74600
H 	H 	0.24510 0.80440 0.60660 0.21900
H 	H 	0.30310 0.84950 0.65460 0.21700
H 	H 	0.20580 0.85850 0.65970 0.20800
H 	H 	0.19480 0.70810 0.69660 -0.04800
H 	H 	0.28990 0.69530 0.69300 -0.04900
C 	C 	0.24700 0.76950 0.63040 -0.30600
H 	H 	0.24040 0.72350 0.60230 0.06900
H 	H 	0.29890 0.79740 0.62200 0.17500
H 	H 	0.20160 0.80800 0.62510 0.18400
C 	C 	0.22670 0.64580 0.90760 0.11500
H 	H 	0.16890 0.63420 0.89720 -0.02000
H 	H 	0.25970 0.59850 0.89380 -0.01500
C 	C 	0.23390 0.65150 0.97770 -0.47100
H 	H 	0.20450 0.70070 0.99240 0.08900
H 	H 	0.29220 0.65660 0.98950 0.10800
C 	C 	0.19480 0.57010 0.00840 0.38700
H 	H 	0.18600 0.57880 0.05240 -0.10700
H 	H 	0.14150 0.55700 0.98930 -0.11200
C 	C 	0.25690 0.49870 0.99780 -0.49600
H 	H 	0.23560 0.44850 0.01620 0.18300
H 	H 	0.30950 0.51270 0.01650 0.15900
H 	H 	0.26450 0.49040 0.95410 0.15900
H 	H 	0.17960 0.66590 0.99460 0.08300
H 	H 	0.27220 0.69640 0.98810 0.07200
C 	C 	0.26460 0.57040 0.00880 0.01700
H 	H 	0.31430 0.54920 0.98840 -0.01100
H 	H 	0.27700 0.57960 0.05240 -0.00900
C 	C 	0.19060 0.50980 0.00090 -0.22000
H 	H 	0.20160 0.45940 0.02360 0.02300
H 	H 	0.18370 0.49680 0.95770 0.09000
H 	H 	0.14060 0.53540 0.01640 0.05700
C 	C 	0.34800 0.74010 0.87960 -0.04400
H 	H 	0.36200 0.79110 0.85760 0.03800
H 	H 	0.35840 0.74970 0.92330 0.03300
C 	C 	0.40530 0.67190 0.85760 -0.09800
H 	H 	0.39280 0.66190 0.81420 0.04800
H 	H 	0.39040 0.62150 0.88000 0.08400
C 	C 	0.49890 0.68240 0.86310 0.29300
H 	H 	0.51260 0.73380 0.88470 -0.07900
H 	H 	0.52490 0.68320 0.82250 -0.06900
C 	C 	0.52890 0.60240 0.90220 -0.96300
H 	H 	0.58840 0.60460 0.90780 0.31000
H 	H 	0.51430 0.55240 0.88020 0.28100
H 	H 	0.50200 0.60260 0.94200 0.24500
H 	H 	0.43860 0.69010 0.82260 -0.00100
H 	H 	0.37430 0.62220 0.84620 -0.00900
C 	C 	0.46040 0.65630 0.91560 -0.51100
H 	H 	0.43020 0.68080 0.95010 0.14300
H 	H 	0.45930 0.59640 0.92230 0.19100
C 	C 	0.53980 0.67900 0.92300 0.72800
H 	H 	0.55900 0.66160 0.96310 -0.22000
H 	H 	0.54410 0.73880 0.91980 -0.19000
H 	H 	0.57350 0.65360 0.89150 -0.13400
C 	C 	0.20710 0.79830 0.89080 0.07100
H 	H 	0.22960 0.84620 0.86880 0.01500
H 	H 	0.21780 0.80710 0.93460 0.00400
C 	C 	0.11290 0.79750 0.88120 -0.36800
H 	H 	0.10110 0.79970 0.83710 0.12600
H 	H 	0.09060 0.74540 0.89710 0.12800
C 	C 	0.06950 0.86890 0.91270 0.32100
H 	H 	0.07860 0.86480 0.95710 -0.07800
H 	H 	0.09430 0.92090 0.89870 -0.06800
C 	C 	0.97780 0.87130 0.90040 -0.78000
H 	H 	0.95400 0.91990 0.91960 0.25700
H 	H 	0.95210 0.82210 0.91710 0.25400
H 	H 	0.96820 0.87360 0.85640 0.26500
N 	N 	0.74540 0.27690 0.87083 -0.18500
C 	C 	0.76230 0.29750 0.80470 0.10300
H 	H 	0.82060 0.31290 0.80110 -0.01300
H 	H 	0.72950 0.34640 0.79400 -0.00400
C 	C 	0.74400 0.22930 0.75580 -0.43000
H 	H 	0.78240 0.18300 0.76160 0.14500
H 	H 	0.68770 0.20840 0.76150 0.15100
C 	C 	0.75270 0.26170 0.69430 0.36700
H 	H 	0.80540 0.29090 0.68960 -0.03700
H 	H 	0.70750 0.29980 0.68460 -0.04000
C 	C 	0.74930 0.17860 0.64910 -0.68600
H 	H 	0.75490 0.19560 0.60660 0.19100
H 	H 	0.69690 0.15050 0.65460 0.18600
H 	H 	0.79420 0.14150 0.65970 0.17500
H 	H 	0.80520 0.29190 0.69660 -0.03800
H 	H 	0.71010 0.30470 0.69300 -0.04000
C 	C 	0.75300 0.23050 0.63040 -0.25800
H 	H 	0.75960 0.27650 0.60230 0.06000
H 	H 	0.70110 0.20260 0.62200 0.15500
H 	H 	0.79840 0.19200 0.62510 0.16900
C 	C 	0.77330 0.35420 0.90760 0.12400
H 	H 	0.83110 0.36580 0.89720 -0.02300
H 	H 	0.74030 0.40150 0.89380 -0.01600
C 	C 	0.76610 0.34850 0.97770 -0.48000
H 	H 	0.79550 0.29930 0.99240 0.08400
H 	H 	0.70780 0.34340 0.98950 0.09900
C 	C 	0.80520 0.42990 0.00840 0.26900
H 	H 	0.81400 0.42120 0.05240 -0.06700
H 	H 	0.85850 0.44300 0.98930 -0.06600
C 	C 	0.74310 0.50130 0.99780 -0.43800
H 	H 	0.76440 0.55150 0.01620 0.14700
H 	H 	0.69050 0.48730 0.01650 0.13900
H 	H 	0.73550 0.50960 0.95410 0.14400
H 	H 	0.82040 0.33410 0.99460 0.10500
H 	H 	0.72780 0.30360 0.98810 0.08200
C 	C 	0.73540 0.42960 0.00880 0.11900
H 	H 	0.68570 0.45080 0.98840 -0.04000
H 	H 	0.72300 0.42040 0.05240 -0.03700
C 	C 	0.80940 0.49020 0.00090 -0.25700
H 	H 	0.79840 0.54060 0.02360 0.05600
H 	H 	0.81630 0.50320 0.95770 0.10400
H 	H 	0.85940 0.46460 0.01640 0.07600
C 	C 	0.65200 0.25990 0.87960 -0.01900
H 	H 	0.63800 0.20890 0.85760 0.02400
H 	H 	0.64160 0.25030 0.92330 0.02400
C 	C 	0.59470 0.32810 0.85760 -0.12800
H 	H 	0.60720 0.33810 0.81420 0.05200
H 	H 	0.60960 0.37850 0.88000 0.09100
C 	C 	0.50110 0.31760 0.86310 0.30500
H 	H 	0.48740 0.26620 0.88470 -0.08500
H 	H 	0.47510 0.31680 0.82250 -0.07700
C 	C 	0.47110 0.39760 0.90220 -0.96800
H 	H 	0.41160 0.39540 0.90780 0.30900
H 	H 	0.48570 0.44760 0.88020 0.28300
H 	H 	0.49800 0.39740 0.94200 0.24800
H 	H 	0.56140 0.30990 0.82260 0.00400
H 	H 	0.62570 0.37780 0.84620 -0.00500
C 	C 	0.53960 0.34370 0.91560 -0.49700
H 	H 	0.56980 0.31920 0.95010 0.14100
H 	H 	0.54070 0.40360 0.92230 0.18700
C 	C 	0.46020 0.32100 0.92300 0.71300
H 	H 	0.44100 0.33840 0.96310 -0.21700
H 	H 	0.45590 0.26120 0.91980 -0.18900
H 	H 	0.42650 0.34640 0.89150 -0.13200
C 	C 	0.79290 0.20170 0.89080 0.33700
H 	H 	0.77040 0.15380 0.86880 -0.07500
H 	H 	0.78220 0.19290 0.93460 -0.08500
C 	C 	0.88710 0.20250 0.88120 -0.89300
H 	H 	0.89890 0.20030 0.83710 0.28500
H 	H 	0.90940 0.25460 0.89710 0.30000
C 	C 	0.93050 0.13110 0.91270 1.12700
H 	H 	0.92140 0.13520 0.95710 -0.31800
H 	H 	0.90570 0.07910 0.89870 -0.34100
C 	C 	0.02220 0.12870 0.90040 -1.73500
H 	H 	0.04600 0.08010 0.91960 0.52100
H 	H 	0.04790 0.17790 0.91710 0.52400
H 	H 	0.03180 0.12640 0.85640 0.50700
