data_crystal

_cell_length_a 17.17110
_cell_length_b 22.99180
_cell_length_c 22.75000
_cell_angle_alpha 90.00000
_cell_angle_beta  90.00000
_cell_angle_gamma 90.00000

_symmetry_space_group_name_	'P 1'
_symmetry_space_group_name_H-M	'P 1'

loop_
_symmetry_equiv_pos_as_xyz
  x,y,z

loop_
_atom_site_label
_atom_site_type_symbol
_atom_site_fract_x
_atom_site_fract_y
_atom_site_fract_z
_atom_site_charge
Ni	Ni	0.47897 0.25590 0.00680 1.08000
Ni	Ni	0.49731 0.50589 0.25684 1.07900
N 	N 	0.46648 0.16935 0.03355 -0.26200
N 	N 	0.49485 0.22801 0.92041 -0.26400
N 	N 	0.49015 0.34188 0.97805 -0.26500
N 	N 	0.46531 0.28409 0.09316 -0.26500
N 	N 	0.35884 0.26024 0.99316 -0.25400
N 	N 	0.59948 0.25204 0.01975 -0.25500
N 	N 	0.49074 0.41941 0.22917 -0.26300
N 	N 	0.49676 0.59199 0.28504 -0.26500
N 	N 	0.48810 0.47778 0.34405 -0.26400
N 	N 	0.50614 0.53276 0.16916 -0.26400
N 	N 	0.37722 0.51017 0.24858 -0.27000
N 	N 	0.61958 0.50204 0.26111 -0.26400
N 	N 	0.23240 0.25300 0.94280 0.00700
C 	C 	0.29730 0.25630 0.97130 0.06400
C 	C 	0.66270 0.25190 0.03490 0.06000
N 	N 	0.23220 0.22160 0.95750 -0.11800
C 	C 	0.29610 0.24160 0.98390 -0.03200
C 	C 	0.66310 0.23670 0.02150 0.06400
N 	N 	0.23140 0.28710 0.95250 -0.14600
C 	C 	0.29650 0.27400 0.98000 0.15200
C 	C 	0.66320 0.26940 0.02780 0.06200
N 	N 	0.74800 0.45690 0.25100 -0.14600
C 	C 	0.68120 0.48310 0.25680 0.12600
C 	C 	0.18340 0.98070 0.75700 0.05300
N 	N 	0.52260 0.19082 0.82177 -0.18000
N 	N 	0.45830 0.32187 0.19349 -0.18000
N 	N 	0.45700 0.06658 0.06122 -0.17900
N 	N 	0.48940 0.43831 0.93370 -0.18300
C 	C 	0.46390 0.12212 0.04951 0.18200
C 	C 	0.50681 0.20778 0.87529 0.18200
C 	C 	0.49070 0.38561 0.95430 0.18500
C 	C 	0.46340 0.30433 0.13909 0.18300
C 	C 	0.47630 0.37462 0.20946 0.18000
C 	C 	0.51096 0.13725 0.80508 0.18400
C 	C 	0.47470 0.04551 0.11282 0.18500
C 	C 	0.49300 0.45053 0.87811 0.18500
C 	C 	0.31580 0.50580 0.22950 0.16500
C 	C 	0.68620 0.00500 0.77430 0.06300
Ni	Ni	0.02103 0.74410 0.00680 1.07700
Ni	Ni	0.00269 0.49411 0.25684 1.07800
N 	N 	0.03352 0.83065 0.03355 -0.26200
N 	N 	0.00515 0.77199 0.92041 -0.25800
N 	N 	0.00985 0.65812 0.97805 -0.26400
N 	N 	0.03469 0.71591 0.09316 -0.26600
N 	N 	0.14116 0.73976 0.99316 -0.25300
N 	N 	0.90052 0.74796 0.01975 -0.25500
N 	N 	0.00926 0.58059 0.22917 -0.26300
N 	N 	0.00324 0.40801 0.28504 -0.26500
N 	N 	0.01190 0.52222 0.34405 -0.26400
N 	N 	0.99386 0.46724 0.16916 -0.26300
N 	N 	0.12278 0.48983 0.24858 -0.27000
N 	N 	0.88042 0.49796 0.26111 -0.26300
N 	N 	0.26760 0.74700 0.94280 0.00700
C 	C 	0.20270 0.74370 0.97130 0.06400
C 	C 	0.83730 0.74810 0.03490 0.06000
N 	N 	0.26780 0.77840 0.95750 -0.11800
C 	C 	0.20390 0.75840 0.98390 -0.03200
C 	C 	0.83690 0.76330 0.02150 0.06100
N 	N 	0.26860 0.71290 0.95250 -0.14700
C 	C 	0.20350 0.72600 0.98000 0.15100
C 	C 	0.83680 0.73060 0.02780 0.06500
N 	N 	0.75200 0.54310 0.25100 -0.14600
C 	C 	0.81880 0.51690 0.25680 0.12600
C 	C 	0.31660 0.01930 0.75700 0.13300
N 	N 	0.97740 0.80918 0.82177 -0.18000
N 	N 	0.04170 0.67813 0.19349 -0.18000
N 	N 	0.04300 0.93342 0.06122 -0.18000
N 	N 	0.01060 0.56169 0.93370 -0.18300
C 	C 	0.03610 0.87788 0.04951 0.18100
C 	C 	0.99319 0.79222 0.87529 0.17500
C 	C 	0.00930 0.61439 0.95430 0.18600
C 	C 	0.03660 0.69567 0.13909 0.18300
C 	C 	0.02370 0.62538 0.20946 0.17900
C 	C 	0.98904 0.86275 0.80508 0.18200
C 	C 	0.02530 0.95449 0.11282 0.18300
C 	C 	0.00700 0.54947 0.87811 0.18700
C 	C 	0.18420 0.49420 0.22950 0.16400
C 	C 	0.81380 0.99500 0.77430 0.05600
Ni	Ni	0.02103 0.75590 0.49320 1.07900
Ni	Ni	0.00269 0.00589 0.24316 1.07900
N 	N 	0.03352 0.66935 0.46645 -0.26100
N 	N 	0.00515 0.72801 0.57959 -0.26100
N 	N 	0.00985 0.84188 0.52195 -0.26500
N 	N 	0.03469 0.78409 0.40684 -0.26500
N 	N 	0.14116 0.76024 0.50684 -0.25400
N 	N 	0.90052 0.75204 0.48025 -0.25600
N 	N 	0.00926 0.91941 0.27083 -0.26300
N 	N 	0.00324 0.09199 0.21496 -0.26600
N 	N 	0.01190 0.97778 0.15595 -0.26500
N 	N 	0.99386 0.03276 0.33084 -0.26200
N 	N 	0.12278 0.01017 0.25142 -0.27000
N 	N 	0.88042 0.00204 0.23889 -0.25800
N 	N 	0.26760 0.75300 0.55720 0.00700
C 	C 	0.20270 0.75630 0.52870 0.06300
C 	C 	0.83730 0.75190 0.46510 0.05900
N 	N 	0.26780 0.72160 0.54250 -0.11800
C 	C 	0.20390 0.74160 0.51610 -0.03300
C 	C 	0.83690 0.73670 0.47850 0.06300
N 	N 	0.26860 0.78710 0.54750 -0.14700
C 	C 	0.20350 0.77400 0.52000 0.15300
C 	C 	0.83680 0.76940 0.47220 0.06300
N 	N 	0.75200 0.95690 0.24900 -0.12200
C 	C 	0.81880 0.98310 0.24320 0.05200
C 	C 	0.31660 0.48070 0.74300 0.09000
N 	N 	0.97740 0.69082 0.67823 -0.18000
N 	N 	0.04170 0.82187 0.30651 -0.18000
N 	N 	0.04300 0.56658 0.43878 -0.17900
N 	N 	0.01060 0.93831 0.56630 -0.18400
C 	C 	0.03610 0.62212 0.45049 0.18200
C 	C 	0.99319 0.70778 0.62471 0.18000
C 	C 	0.00930 0.88561 0.54570 0.18500
C 	C 	0.03660 0.80433 0.36091 0.18400
C 	C 	0.02370 0.87462 0.29054 0.18000
C 	C 	0.98904 0.63725 0.69492 0.18300
C 	C 	0.02530 0.54551 0.38718 0.18400
C 	C 	0.00700 0.95053 0.62189 0.18600
C 	C 	0.18420 0.00580 0.27050 0.16500
C 	C 	0.81380 0.50500 0.72570 0.06200
Ni	Ni	0.47897 0.24410 0.49320 1.07900
Ni	Ni	0.49731 0.99411 0.24316 1.07800
N 	N 	0.46648 0.33065 0.46645 -0.26200
N 	N 	0.49485 0.27199 0.57959 -0.26400
N 	N 	0.49015 0.15812 0.52195 -0.26500
N 	N 	0.46531 0.21591 0.40684 -0.26500
N 	N 	0.35884 0.23976 0.50684 -0.25400
N 	N 	0.59948 0.24796 0.48025 -0.25500
N 	N 	0.49074 0.08059 0.27083 -0.26200
N 	N 	0.49676 0.90801 0.21496 -0.26400
N 	N 	0.48810 0.02222 0.15595 -0.26200
N 	N 	0.50614 0.96724 0.33084 -0.26500
N 	N 	0.37722 0.98983 0.25142 -0.27000
N 	N 	0.61958 0.99796 0.23889 -0.26800
N 	N 	0.23240 0.24700 0.55720 0.00700
C 	C 	0.29730 0.24370 0.52870 0.06300
C 	C 	0.66270 0.24810 0.46510 0.06000
N 	N 	0.23220 0.27840 0.54250 -0.11700
C 	C 	0.29610 0.25840 0.51610 -0.03500
C 	C 	0.66310 0.26330 0.47850 0.05900
N 	N 	0.23140 0.21290 0.54750 -0.14800
C 	C 	0.29650 0.22600 0.52000 0.15500
C 	C 	0.66320 0.23060 0.47220 0.06700
N 	N 	0.74800 0.04310 0.24900 -0.17100
C 	C 	0.68120 0.01690 0.24320 0.19500
C 	C 	0.18340 0.51930 0.74300 0.09100
N 	N 	0.52260 0.30918 0.67823 -0.18000
N 	N 	0.45830 0.17813 0.30651 -0.18000
N 	N 	0.45700 0.43342 0.43878 -0.17900
N 	N 	0.48940 0.06169 0.56630 -0.18300
C 	C 	0.46390 0.37788 0.45049 0.18200
C 	C 	0.50681 0.29222 0.62471 0.18200
C 	C 	0.49070 0.11439 0.54570 0.18500
C 	C 	0.46340 0.19567 0.36091 0.18400
C 	C 	0.47630 0.12538 0.29054 0.18000
C 	C 	0.51096 0.36275 0.69492 0.18400
C 	C 	0.47470 0.45449 0.38718 0.18400
C 	C 	0.49300 0.04947 0.62189 0.18600
C 	C 	0.31580 0.99420 0.27050 0.16200
C 	C 	0.68620 0.49500 0.72570 0.06200
Ni	Ni	0.52103 0.74410 0.99320 1.07900
Ni	Ni	0.50269 0.49411 0.74316 1.07900
N 	N 	0.53352 0.83065 0.96645 -0.26200
N 	N 	0.50515 0.77199 0.07959 -0.26400
N 	N 	0.50985 0.65812 0.02195 -0.26500
N 	N 	0.53469 0.71591 0.90684 -0.26500
N 	N 	0.64116 0.73976 0.00684 -0.25400
N 	N 	0.40052 0.74796 0.98025 -0.25500
N 	N 	0.50926 0.58059 0.77083 -0.26300
N 	N 	0.50324 0.40801 0.71496 -0.26500
N 	N 	0.51190 0.52222 0.65595 -0.26400
N 	N 	0.49386 0.46724 0.83084 -0.26400
N 	N 	0.62278 0.48983 0.75142 -0.27000
N 	N 	0.38042 0.49796 0.73889 -0.26400
N 	N 	0.76760 0.74700 0.05720 0.00700
C 	C 	0.70270 0.74370 0.02870 0.06400
C 	C 	0.33730 0.74810 0.96510 0.06000
N 	N 	0.76780 0.77840 0.04250 -0.11700
C 	C 	0.70390 0.75840 0.01610 -0.03500
C 	C 	0.33690 0.76330 0.97850 0.06100
N 	N 	0.76860 0.71290 0.04750 -0.14700
C 	C 	0.70350 0.72600 0.02000 0.15400
C 	C 	0.33680 0.73060 0.97220 0.06500
N 	N 	0.25200 0.54310 0.74900 -0.14600
C 	C 	0.31880 0.51690 0.74320 0.12600
C 	C 	0.81660 0.01930 0.24300 0.16100
N 	N 	0.47740 0.80918 0.17823 -0.18000
N 	N 	0.54170 0.67813 0.80651 -0.18000
N 	N 	0.54300 0.93342 0.93878 -0.18000
N 	N 	0.51060 0.56169 0.06630 -0.18300
C 	C 	0.53610 0.87788 0.95049 0.18100
C 	C 	0.49319 0.79222 0.12471 0.18200
C 	C 	0.50930 0.61439 0.04570 0.18500
C 	C 	0.53660 0.69567 0.86091 0.18300
C 	C 	0.52370 0.62538 0.79054 0.18000
C 	C 	0.48904 0.86275 0.19492 0.18400
C 	C 	0.52530 0.95449 0.88718 0.18300
C 	C 	0.50700 0.54947 0.12189 0.18500
C 	C 	0.68420 0.49420 0.77050 0.16500
C 	C 	0.31380 0.99500 0.22570 0.05800
Ni	Ni	0.97897 0.25590 0.99320 1.07700
Ni	Ni	0.99731 0.50589 0.74316 1.07800
N 	N 	0.96648 0.16935 0.96645 -0.26200
N 	N 	0.99485 0.22801 0.07959 -0.25800
N 	N 	0.99015 0.34188 0.02195 -0.26400
N 	N 	0.96531 0.28409 0.90684 -0.26600
N 	N 	0.85884 0.26024 0.00684 -0.25300
N 	N 	0.09948 0.25204 0.98025 -0.25400
N 	N 	0.99074 0.41941 0.77083 -0.26300
N 	N 	0.99676 0.59199 0.71496 -0.26500
N 	N 	0.98810 0.47778 0.65595 -0.26400
N 	N 	0.00614 0.53276 0.83084 -0.26300
N 	N 	0.87722 0.51017 0.75142 -0.27000
N 	N 	0.11958 0.50204 0.73889 -0.26300
N 	N 	0.73240 0.25300 0.05720 0.00700
C 	C 	0.79730 0.25630 0.02870 0.06400
C 	C 	0.16270 0.25190 0.96510 0.06000
N 	N 	0.73220 0.22160 0.04250 -0.11800
C 	C 	0.79610 0.24160 0.01610 -0.02900
C 	C 	0.16310 0.23670 0.97850 0.06300
N 	N 	0.73140 0.28710 0.04750 -0.14600
C 	C 	0.79650 0.27400 0.02000 0.14900
C 	C 	0.16320 0.26940 0.97220 0.06300
N 	N 	0.24800 0.45690 0.74900 -0.14600
C 	C 	0.18120 0.48310 0.74320 0.12600
C 	C 	0.68340 0.98070 0.24300 0.02500
N 	N 	0.02260 0.19082 0.17823 -0.18000
N 	N 	0.95830 0.32187 0.80651 -0.18000
N 	N 	0.95700 0.06658 0.93878 -0.17900
N 	N 	0.98940 0.43831 0.06630 -0.18300
C 	C 	0.96390 0.12212 0.95049 0.18200
C 	C 	0.00681 0.20778 0.12471 0.17600
C 	C 	0.99070 0.38561 0.04570 0.18600
C 	C 	0.96340 0.30433 0.86091 0.18300
C 	C 	0.97630 0.37462 0.79054 0.17900
C 	C 	0.01096 0.13725 0.19492 0.18200
C 	C 	0.97470 0.04551 0.88718 0.18500
C 	C 	0.99300 0.45053 0.12189 0.18700
C 	C 	0.81580 0.50580 0.77050 0.16400
C 	C 	0.18620 0.00500 0.22570 0.06300
Ni	Ni	0.97897 0.24410 0.50680 1.07900
Ni	Ni	0.99731 0.99411 0.75684 1.07600
N 	N 	0.96648 0.33065 0.53355 -0.26100
N 	N 	0.99485 0.27199 0.42041 -0.26200
N 	N 	0.99015 0.15812 0.47805 -0.26500
N 	N 	0.96531 0.21591 0.59316 -0.26500
N 	N 	0.85884 0.23976 0.49316 -0.25400
N 	N 	0.09948 0.24796 0.51975 -0.25600
N 	N 	0.99074 0.08059 0.72917 -0.26100
N 	N 	0.99676 0.90801 0.78504 -0.26500
N 	N 	0.98810 0.02222 0.84405 -0.26100
N 	N 	0.00614 0.96724 0.66916 -0.26300
N 	N 	0.87722 0.98983 0.74858 -0.27000
N 	N 	0.11958 0.99796 0.76111 -0.26500
N 	N 	0.73240 0.24700 0.44280 0.00700
C 	C 	0.79730 0.24370 0.47130 0.06300
C 	C 	0.16270 0.24810 0.53490 0.06000
N 	N 	0.73220 0.27840 0.45750 -0.11700
C 	C 	0.79610 0.25840 0.48390 -0.03600
C 	C 	0.16310 0.26330 0.52150 0.06000
N 	N 	0.73140 0.21290 0.45250 -0.14800
C 	C 	0.79650 0.22600 0.48000 0.15600
C 	C 	0.16320 0.23060 0.52780 0.06600
N 	N 	0.24800 0.04310 0.75100 -0.16100
C 	C 	0.18120 0.01690 0.75680 0.16500
C 	C 	0.68340 0.51930 0.25700 0.09100
N 	N 	0.02260 0.30918 0.32177 -0.18000
N 	N 	0.95830 0.17813 0.69349 -0.18000
N 	N 	0.95700 0.43342 0.56122 -0.17900
N 	N 	0.98940 0.06169 0.43370 -0.18200
C 	C 	0.96390 0.37788 0.54951 0.18200
C 	C 	0.00681 0.29222 0.37529 0.18000
C 	C 	0.99070 0.11439 0.45430 0.18600
C 	C 	0.96340 0.19567 0.63909 0.18400
C 	C 	0.97630 0.12538 0.70946 0.18000
C 	C 	0.01096 0.36275 0.30508 0.18300
C 	C 	0.97470 0.45449 0.61282 0.18400
C 	C 	0.99300 0.04947 0.37811 0.18700
C 	C 	0.81580 0.99420 0.72950 0.16000
C 	C 	0.18620 0.49500 0.27430 0.06200
Ni	Ni	0.52103 0.75590 0.50680 1.07900
Ni	Ni	0.50269 0.00589 0.75684 1.08000
N 	N 	0.53352 0.66935 0.53355 -0.26200
N 	N 	0.50515 0.72801 0.42041 -0.26400
N 	N 	0.50985 0.84188 0.47805 -0.26500
N 	N 	0.53469 0.78409 0.59316 -0.26500
N 	N 	0.64116 0.76024 0.49316 -0.25400
N 	N 	0.40052 0.75204 0.51975 -0.25600
N 	N 	0.50926 0.91941 0.72917 -0.26400
N 	N 	0.50324 0.09199 0.78504 -0.26500
N 	N 	0.51190 0.97778 0.84405 -0.26500
N 	N 	0.49386 0.03276 0.66916 -0.26400
N 	N 	0.62278 0.01017 0.74858 -0.26900
N 	N 	0.38042 0.00204 0.76111 -0.26100
N 	N 	0.76760 0.75300 0.44280 0.00800
C 	C 	0.70270 0.75630 0.47130 0.06300
C 	C 	0.33730 0.75190 0.53490 0.06000
N 	N 	0.76780 0.72160 0.45750 -0.11800
C 	C 	0.70390 0.74160 0.48390 -0.03200
C 	C 	0.33690 0.73670 0.52150 0.06100
N 	N 	0.76860 0.78710 0.45250 -0.14700
C 	C 	0.70350 0.77400 0.48000 0.15200
C 	C 	0.33680 0.76940 0.52780 0.06500
N 	N 	0.25200 0.95690 0.75100 -0.13200
C 	C 	0.31880 0.98310 0.75680 0.08100
C 	C 	0.81660 0.48070 0.25700 0.09100
N 	N 	0.47740 0.69082 0.32177 -0.18000
N 	N 	0.54170 0.82187 0.69349 -0.18000
N 	N 	0.54300 0.56658 0.56122 -0.17900
N 	N 	0.51060 0.93831 0.43370 -0.18400
C 	C 	0.53610 0.62212 0.54951 0.18200
C 	C 	0.49319 0.70778 0.37529 0.18200
C 	C 	0.50930 0.88561 0.45430 0.18400
C 	C 	0.53660 0.80433 0.63909 0.18300
C 	C 	0.52370 0.87462 0.70946 0.17900
C 	C 	0.48904 0.63725 0.30508 0.18400
C 	C 	0.52530 0.54551 0.61282 0.18400
C 	C 	0.50700 0.95053 0.37811 0.18400
C 	C 	0.68420 0.00580 0.72950 0.16500
C 	C 	0.31380 0.50500 0.27430 0.06200
N 	N 	0.25000 0.50000 0.20340 -0.17600
N 	N 	0.25000 0.00000 0.29660 -0.17300
N 	N 	0.75000 0.50000 0.79660 -0.17600
N 	N 	0.75000 0.00000 0.70340 -0.17200
N 	N 	0.75000 -0.00000 0.80050 -0.13000
N 	N 	0.75000 0.50000 0.69950 -0.13500
N 	N 	0.25000 -0.00000 0.19950 -0.13200
N 	N 	0.25000 0.50000 0.30050 -0.13500
