data_crystal

_cell_length_a 17.11600
_cell_length_b 22.80000
_cell_length_c 22.64100
_cell_angle_alpha 90.00000
_cell_angle_beta  90.00000
_cell_angle_gamma 90.00000

_symmetry_space_group_name_	'P 1'
_symmetry_space_group_name_H-M	'P 1'

loop_
_symmetry_equiv_pos_as_xyz
  x,y,z

loop_
_atom_site_label
_atom_site_type_symbol
_atom_site_fract_x
_atom_site_fract_y
_atom_site_fract_z
_atom_site_charge
Ni	Ni	0.47401 0.25790 0.00925 1.07900
Ni	Ni	0.49687 0.50790 0.25911 1.07900
N 	N 	0.46120 0.17021 0.03430 -0.26000
N 	N 	0.49155 0.23124 0.92239 -0.26200
N 	N 	0.48589 0.34500 0.98136 -0.26000
N 	N 	0.45850 0.28468 0.09599 -0.26300
N 	N 	0.35422 0.26240 0.99310 -0.24800
N 	N 	0.59402 0.25377 0.02351 -0.25100
N 	N 	0.48904 0.42048 0.23318 -0.26100
N 	N 	0.49784 0.59467 0.28561 -0.26500
N 	N 	0.48470 0.48161 0.34689 -0.26100
N 	N 	0.50864 0.53252 0.17053 -0.26000
N 	N 	0.37718 0.51345 0.24793 -0.26700
N 	N 	0.61909 0.50218 0.26463 -0.25900
N 	N 	0.22900 0.25630 0.94070 0.35700
C 	C 	0.29330 0.26030 0.97180 0.08800
C 	C 	0.65940 0.25490 0.03670 0.08700
N 	N 	0.22810 0.22850 0.94900 -0.34600
C 	C 	0.29240 0.24610 0.97520 0.15300
C 	C 	0.65780 0.24240 0.03210 -0.02400
N 	N 	0.22820 0.28510 0.94680 -0.33400
C 	C 	0.29320 0.27380 0.97600 -0.04600
C 	C 	0.65860 0.26910 0.03400 0.13300
N 	N 	0.74880 0.45480 0.24840 -0.14200
C 	C 	0.68160 0.48100 0.25750 0.10900
C 	C 	0.68260 0.52150 0.25840 0.10300
N 	N 	0.52162 0.19490 0.82259 -0.17700
N 	N 	0.45124 0.32250 0.19749 -0.17700
N 	N 	0.45139 0.06499 0.05816 -0.17500
N 	N 	0.47993 0.44196 0.93463 -0.17600
C 	C 	0.45843 0.12154 0.04842 0.17800
C 	C 	0.50465 0.21137 0.87654 0.17900
C 	C 	0.48447 0.38886 0.95658 0.18400
C 	C 	0.45681 0.30498 0.14258 0.18100
C 	C 	0.47214 0.37553 0.21347 0.17700
C 	C 	0.51022 0.14055 0.80575 0.18100
C 	C 	0.47024 0.04261 0.10977 0.17700
C 	C 	0.48744 0.45213 0.87802 0.18000
C 	C 	0.31582 0.50702 0.22915 0.18300
Ni	Ni	0.02599 0.74210 0.00925 1.07800
Ni	Ni	0.00313 0.49210 0.25911 1.07900
N 	N 	0.03880 0.82979 0.03430 -0.26000
N 	N 	0.00845 0.76876 0.92239 -0.25500
N 	N 	0.01411 0.65500 0.98136 -0.25800
N 	N 	0.04150 0.71532 0.09599 -0.26400
N 	N 	0.14578 0.73760 0.99310 -0.24700
N 	N 	0.90598 0.74623 0.02351 -0.25000
N 	N 	0.01096 0.57952 0.23318 -0.26200
N 	N 	0.00216 0.40533 0.28561 -0.26500
N 	N 	0.01530 0.51839 0.34689 -0.26100
N 	N 	0.99136 0.46748 0.17053 -0.25900
N 	N 	0.12282 0.48655 0.24793 -0.26700
N 	N 	0.88091 0.49782 0.26463 -0.25900
N 	N 	0.27100 0.74370 0.94070 0.35800
C 	C 	0.20670 0.73970 0.97180 0.08800
C 	C 	0.84060 0.74510 0.03670 0.08700
N 	N 	0.27190 0.77150 0.94900 -0.34700
C 	C 	0.20760 0.75390 0.97520 0.15200
C 	C 	0.84220 0.75760 0.03210 -0.02400
N 	N 	0.27180 0.71490 0.94680 -0.33500
C 	C 	0.20680 0.72620 0.97600 -0.04500
C 	C 	0.84140 0.73090 0.03400 0.13300
N 	N 	0.75120 0.54520 0.24840 -0.14200
C 	C 	0.81840 0.51900 0.25750 0.10900
C 	C 	0.81740 0.47850 0.25840 0.10300
N 	N 	0.97838 0.80510 0.82259 -0.17600
N 	N 	0.04876 0.67750 0.19749 -0.17700
N 	N 	0.04861 0.93501 0.05816 -0.17600
N 	N 	0.02007 0.55804 0.93463 -0.17600
C 	C 	0.04157 0.87846 0.04842 0.17600
C 	C 	0.99535 0.78863 0.87654 0.17200
C 	C 	0.01553 0.61114 0.95658 0.18600
C 	C 	0.04319 0.69502 0.14258 0.18100
C 	C 	0.02786 0.62447 0.21347 0.17600
C 	C 	0.98978 0.85945 0.80575 0.17900
C 	C 	0.02976 0.95739 0.10977 0.17500
C 	C 	0.01256 0.54787 0.87802 0.18200
C 	C 	0.18418 0.49298 0.22915 0.18300
Ni	Ni	0.02599 0.75790 0.49075 1.08100
Ni	Ni	0.00313 0.00790 0.24089 1.07900
N 	N 	0.03880 0.67021 0.46570 -0.25900
N 	N 	0.00845 0.73124 0.57761 -0.25900
N 	N 	0.01411 0.84500 0.51864 -0.26000
N 	N 	0.04150 0.78468 0.40401 -0.26300
N 	N 	0.14578 0.76240 0.50690 -0.24900
N 	N 	0.90598 0.75377 0.47649 -0.25100
N 	N 	0.01096 0.92048 0.26682 -0.26200
N 	N 	0.00216 0.09467 0.21439 -0.26500
N 	N 	0.01530 0.98161 0.15311 -0.26200
N 	N 	0.99136 0.03252 0.32947 -0.25800
N 	N 	0.12282 0.01345 0.25207 -0.26700
N 	N 	0.88091 0.00218 0.23537 -0.25500
N 	N 	0.27100 0.75630 0.55930 0.36000
C 	C 	0.20670 0.76030 0.52820 0.08800
C 	C 	0.84060 0.75490 0.46330 0.08700
N 	N 	0.27190 0.72850 0.55100 -0.34900
C 	C 	0.20760 0.74610 0.52480 0.15300
C 	C 	0.84220 0.74240 0.46790 -0.02500
N 	N 	0.27180 0.78510 0.55320 -0.33600
C 	C 	0.20680 0.77380 0.52400 -0.04700
C 	C 	0.84140 0.76910 0.46600 0.13400
N 	N 	0.75120 0.95480 0.25160 -0.13300
C 	C 	0.81840 0.98100 0.24250 0.07800
C 	C 	0.81740 0.02150 0.24160 0.13100
N 	N 	0.97838 0.69490 0.67741 -0.17700
N 	N 	0.04876 0.82250 0.30251 -0.17700
N 	N 	0.04861 0.56499 0.44184 -0.17600
N 	N 	0.02007 0.94196 0.56537 -0.17700
C 	C 	0.04157 0.62154 0.45158 0.17700
C 	C 	0.99535 0.71137 0.62346 0.17600
C 	C 	0.01553 0.88886 0.54342 0.18400
C 	C 	0.04319 0.80498 0.35742 0.18100
C 	C 	0.02786 0.87553 0.28653 0.17600
C 	C 	0.98978 0.64055 0.69425 0.18000
C 	C 	0.02976 0.54261 0.39023 0.17600
C 	C 	0.01256 0.95213 0.62198 0.18100
C 	C 	0.18418 0.00702 0.27085 0.18400
Ni	Ni	0.47401 0.24210 0.49075 1.08000
Ni	Ni	0.49687 0.99210 0.24089 1.07800
N 	N 	0.46120 0.32979 0.46570 -0.25900
N 	N 	0.49155 0.26876 0.57761 -0.26100
N 	N 	0.48589 0.15500 0.51864 -0.26000
N 	N 	0.45850 0.21532 0.40401 -0.26300
N 	N 	0.35422 0.23760 0.50690 -0.24900
N 	N 	0.59402 0.24623 0.47649 -0.25100
N 	N 	0.48904 0.07952 0.26682 -0.26000
N 	N 	0.49784 0.90533 0.21439 -0.26500
N 	N 	0.48470 0.01839 0.15311 -0.26000
N 	N 	0.50864 0.96748 0.32947 -0.26000
N 	N 	0.37718 0.98655 0.25207 -0.26700
N 	N 	0.61909 0.99782 0.23537 -0.26200
N 	N 	0.22900 0.24370 0.55930 0.35900
C 	C 	0.29330 0.23970 0.52820 0.08800
C 	C 	0.65940 0.24510 0.46330 0.08700
N 	N 	0.22810 0.27150 0.55100 -0.34900
C 	C 	0.29240 0.25390 0.52480 0.15400
C 	C 	0.65780 0.25760 0.46790 -0.02300
N 	N 	0.22820 0.21490 0.55320 -0.33500
C 	C 	0.29320 0.22620 0.52400 -0.04800
C 	C 	0.65860 0.23090 0.46600 0.13200
N 	N 	0.74880 0.04520 0.25160 -0.15100
C 	C 	0.68160 0.01900 0.24250 0.13700
C 	C 	0.68260 0.97850 0.24160 0.07800
N 	N 	0.52162 0.30510 0.67741 -0.17700
N 	N 	0.45124 0.17750 0.30251 -0.17700
N 	N 	0.45139 0.43501 0.44184 -0.17600
N 	N 	0.47993 0.05804 0.56537 -0.17600
C 	C 	0.45843 0.37846 0.45158 0.17700
C 	C 	0.50465 0.28863 0.62346 0.17900
C 	C 	0.48447 0.11114 0.54342 0.18500
C 	C 	0.45681 0.19502 0.35742 0.18200
C 	C 	0.47214 0.12447 0.28653 0.17700
C 	C 	0.51022 0.35945 0.69425 0.18000
C 	C 	0.47024 0.45739 0.39023 0.17600
C 	C 	0.48744 0.04787 0.62198 0.18100
C 	C 	0.31582 0.99298 0.27085 0.18000
Ni	Ni	0.52599 0.74210 0.99075 1.08000
Ni	Ni	0.50313 0.49210 0.74089 1.08000
N 	N 	0.53880 0.82979 0.96570 -0.25900
N 	N 	0.50845 0.76876 0.07761 -0.26100
N 	N 	0.51411 0.65500 0.01864 -0.26000
N 	N 	0.54150 0.71532 0.90401 -0.26300
N 	N 	0.64578 0.73760 0.00690 -0.24800
N 	N 	0.40598 0.74623 0.97649 -0.25100
N 	N 	0.51096 0.57952 0.76682 -0.26100
N 	N 	0.50216 0.40533 0.71439 -0.26500
N 	N 	0.51530 0.51839 0.65311 -0.26100
N 	N 	0.49136 0.46748 0.82947 -0.26000
N 	N 	0.62282 0.48655 0.75207 -0.26700
N 	N 	0.38091 0.49782 0.73537 -0.25900
N 	N 	0.77100 0.74370 0.05930 0.35800
C 	C 	0.70670 0.73970 0.02820 0.08800
C 	C 	0.34060 0.74510 0.96330 0.08700
N 	N 	0.77190 0.77150 0.05100 -0.34800
C 	C 	0.70760 0.75390 0.02480 0.15400
C 	C 	0.34220 0.75760 0.96790 -0.02300
N 	N 	0.77180 0.71490 0.05320 -0.33500
C 	C 	0.70680 0.72620 0.02400 -0.04800
C 	C 	0.34140 0.73090 0.96600 0.13200
N 	N 	0.25120 0.54520 0.75160 -0.14200
C 	C 	0.31840 0.51900 0.74250 0.11000
C 	C 	0.31740 0.47850 0.74160 0.10300
N 	N 	0.47838 0.80510 0.17741 -0.17700
N 	N 	0.54876 0.67750 0.80251 -0.17700
N 	N 	0.54861 0.93501 0.94184 -0.17600
N 	N 	0.52007 0.55804 0.06537 -0.17600
C 	C 	0.54157 0.87846 0.95158 0.17600
C 	C 	0.49535 0.78863 0.12346 0.17800
C 	C 	0.51553 0.61114 0.04342 0.18400
C 	C 	0.54319 0.69502 0.85742 0.18100
C 	C 	0.52786 0.62447 0.78653 0.17700
C 	C 	0.48978 0.85945 0.19425 0.18000
C 	C 	0.52976 0.95739 0.89023 0.17500
C 	C 	0.51256 0.54787 0.12198 0.18000
C 	C 	0.68418 0.49298 0.77085 0.18300
Ni	Ni	0.97401 0.25790 0.99075 1.07800
Ni	Ni	0.99687 0.50790 0.74089 1.07900
N 	N 	0.96120 0.17021 0.96570 -0.26000
N 	N 	0.99155 0.23124 0.07761 -0.25600
N 	N 	0.98589 0.34500 0.01864 -0.25800
N 	N 	0.95850 0.28468 0.90401 -0.26300
N 	N 	0.85422 0.26240 0.00690 -0.24700
N 	N 	0.09402 0.25377 0.97649 -0.25000
N 	N 	0.98904 0.42048 0.76682 -0.26200
N 	N 	0.99784 0.59467 0.71439 -0.26500
N 	N 	0.98470 0.48161 0.65311 -0.26100
N 	N 	0.00864 0.53252 0.82947 -0.25800
N 	N 	0.87718 0.51345 0.75207 -0.26700
N 	N 	0.11909 0.50218 0.73537 -0.25900
N 	N 	0.72900 0.25630 0.05930 0.35700
C 	C 	0.79330 0.26030 0.02820 0.08800
C 	C 	0.15940 0.25490 0.96330 0.08700
N 	N 	0.72810 0.22850 0.05100 -0.34600
C 	C 	0.79240 0.24610 0.02480 0.15100
C 	C 	0.15780 0.24240 0.96790 -0.02400
N 	N 	0.72820 0.28510 0.05320 -0.33400
C 	C 	0.79320 0.27380 0.02400 -0.04400
C 	C 	0.15860 0.26910 0.96600 0.13400
N 	N 	0.24880 0.45480 0.75160 -0.14200
C 	C 	0.18160 0.48100 0.74250 0.11000
C 	C 	0.18260 0.52150 0.74160 0.10300
N 	N 	0.02162 0.19490 0.17741 -0.17600
N 	N 	0.95124 0.32250 0.80251 -0.17700
N 	N 	0.95139 0.06499 0.94184 -0.17500
N 	N 	0.97993 0.44196 0.06537 -0.17600
C 	C 	0.95843 0.12154 0.95158 0.17700
C 	C 	0.00465 0.21137 0.12346 0.17300
C 	C 	0.98447 0.38886 0.04342 0.18600
C 	C 	0.95681 0.30498 0.85742 0.18100
C 	C 	0.97214 0.37553 0.78653 0.17600
C 	C 	0.01022 0.14055 0.19425 0.17900
C 	C 	0.97024 0.04261 0.89023 0.17700
C 	C 	0.98744 0.45213 0.12198 0.18100
C 	C 	0.81582 0.50702 0.77085 0.18300
Ni	Ni	0.97401 0.24210 0.50924 1.08100
Ni	Ni	0.99687 0.99210 0.75911 1.07700
N 	N 	0.96120 0.32979 0.53430 -0.25900
N 	N 	0.99155 0.26876 0.42239 -0.25900
N 	N 	0.98589 0.15500 0.48136 -0.25900
N 	N 	0.95850 0.21532 0.59599 -0.26300
N 	N 	0.85422 0.23760 0.49310 -0.24800
N 	N 	0.09402 0.24623 0.52351 -0.25100
N 	N 	0.98904 0.07952 0.73318 -0.26000
N 	N 	0.99784 0.90533 0.78561 -0.26600
N 	N 	0.98470 0.01839 0.84689 -0.25900
N 	N 	0.00864 0.96748 0.67053 -0.25800
N 	N 	0.87718 0.98655 0.74793 -0.26700
N 	N 	0.11909 0.99782 0.76463 -0.26000
N 	N 	0.72900 0.24370 0.44070 0.35800
C 	C 	0.79330 0.23970 0.47180 0.08800
C 	C 	0.15940 0.24510 0.53670 0.08700
N 	N 	0.72810 0.27150 0.44900 -0.34800
C 	C 	0.79240 0.25390 0.47520 0.15400
C 	C 	0.15780 0.25760 0.53210 -0.02400
N 	N 	0.72820 0.21490 0.44680 -0.33500
C 	C 	0.79320 0.22620 0.47600 -0.04800
C 	C 	0.15860 0.23090 0.53400 0.13300
N 	N 	0.24880 0.04520 0.74840 -0.14700
C 	C 	0.18160 0.01900 0.75750 0.12400
C 	C 	0.18260 0.97850 0.75840 0.09000
N 	N 	0.02162 0.30510 0.32259 -0.17700
N 	N 	0.95124 0.17750 0.69749 -0.17700
N 	N 	0.95139 0.43501 0.55816 -0.17600
N 	N 	0.97993 0.05804 0.43463 -0.17500
C 	C 	0.95843 0.37846 0.54842 0.17700
C 	C 	0.00465 0.28863 0.37654 0.17700
C 	C 	0.98447 0.11114 0.45658 0.18600
C 	C 	0.95681 0.19502 0.64258 0.18200
C 	C 	0.97214 0.12447 0.71347 0.17700
C 	C 	0.01022 0.35945 0.30575 0.18000
C 	C 	0.97024 0.45739 0.60977 0.17600
C 	C 	0.98744 0.04787 0.37802 0.18200
C 	C 	0.81582 0.99298 0.72915 0.17600
Ni	Ni	0.52599 0.75790 0.50924 1.08000
Ni	Ni	0.50313 0.00790 0.75911 1.08100
N 	N 	0.53880 0.67021 0.53430 -0.25900
N 	N 	0.50845 0.73124 0.42239 -0.26100
N 	N 	0.51411 0.84500 0.48136 -0.26000
N 	N 	0.54150 0.78468 0.59599 -0.26300
N 	N 	0.64578 0.76240 0.49310 -0.24900
N 	N 	0.40598 0.75377 0.52351 -0.25100
N 	N 	0.51096 0.92048 0.73318 -0.26300
N 	N 	0.50216 0.09467 0.78561 -0.26400
N 	N 	0.51530 0.98161 0.84689 -0.26300
N 	N 	0.49136 0.03252 0.67053 -0.25900
N 	N 	0.62282 0.01345 0.74793 -0.26600
N 	N 	0.38091 0.00218 0.76463 -0.25700
N 	N 	0.77100 0.75630 0.44070 0.36000
C 	C 	0.70670 0.76030 0.47180 0.08800
C 	C 	0.34060 0.75490 0.53670 0.08700
N 	N 	0.77190 0.72850 0.44900 -0.34900
C 	C 	0.70760 0.74610 0.47520 0.15300
C 	C 	0.34220 0.74240 0.53210 -0.02400
N 	N 	0.77180 0.78510 0.44680 -0.33700
C 	C 	0.70680 0.77380 0.47600 -0.04700
C 	C 	0.34140 0.76910 0.53400 0.13300
N 	N 	0.25120 0.95480 0.74840 -0.13700
C 	C 	0.31840 0.98100 0.75750 0.09200
C 	C 	0.31740 0.02150 0.75840 0.11900
N 	N 	0.47838 0.69490 0.32259 -0.17700
N 	N 	0.54876 0.82250 0.69749 -0.17700
N 	N 	0.54861 0.56499 0.55816 -0.17600
N 	N 	0.52007 0.94196 0.43463 -0.17700
C 	C 	0.54157 0.62154 0.54842 0.17700
C 	C 	0.49535 0.71137 0.37654 0.17900
C 	C 	0.51553 0.88886 0.45658 0.18300
C 	C 	0.54319 0.80498 0.64258 0.18100
C 	C 	0.52786 0.87553 0.71347 0.17600
C 	C 	0.48978 0.64055 0.30575 0.18000
C 	C 	0.52976 0.54261 0.60977 0.17600
C 	C 	0.51256 0.95213 0.37802 0.17900
C 	C 	0.68418 0.00702 0.72915 0.18500
N 	N 	0.25000 0.50000 0.20190 -0.18600
N 	N 	0.25000 0.00000 0.29810 -0.18300
N 	N 	0.75000 0.50000 0.79810 -0.18600
N 	N 	0.75000 0.00000 0.70190 -0.18200
