data_crystal

_cell_length_a 16.09850
_cell_length_b 16.09850
_cell_length_c 17.02870
_cell_angle_alpha 90.00000
_cell_angle_beta  90.00000
_cell_angle_gamma 90.00000

_symmetry_space_group_name_	'P 1'
_symmetry_space_group_name_H-M	'P 1'

loop_
_symmetry_equiv_pos_as_xyz
  x,y,z

loop_
_atom_site_label
_atom_site_type_symbol
_atom_site_fract_x
_atom_site_fract_y
_atom_site_fract_z
_atom_site_charge
Ni	Ni	0.25225 0.27109 0.27717 1.07100
N 	N 	0.27190 0.28090 0.15660 -0.27800
C 	C 	0.28660 0.28130 0.09230 0.17400
N 	N 	0.30800 0.38660 0.29090 -0.27200
C 	C 	0.33350 0.45260 0.28260 0.16300
N 	N 	0.13550 0.32750 0.26230 -0.27300
C 	C 	0.06920 0.34210 0.24530 0.16600
N 	N 	0.86890 0.28800 0.21340 -0.26900
C 	C 	0.93010 0.32250 0.21950 0.15700
N 	N 	0.30430 0.65490 0.23890 -0.27200
C 	C 	0.33090 0.59190 0.25520 0.15500
N 	N 	0.24260 0.26470 0.89700 -0.27300
C 	C 	0.27310 0.27430 0.95750 0.16700
N 	N 	0.31040 0.30440 0.02030 -0.11900
N 	N 	0.32480 0.26250 0.02050 -0.09700
N 	N 	0.37090 0.52280 0.27470 -0.18200
N 	N 	0.99710 0.36930 0.22120 -0.19100
Ni	Ni	0.74775 0.72891 0.27717 1.07100
N 	N 	0.72810 0.71910 0.15660 -0.27800
C 	C 	0.71340 0.71870 0.09230 0.17400
N 	N 	0.69200 0.61340 0.29090 -0.27200
C 	C 	0.66650 0.54740 0.28260 0.16300
N 	N 	0.86450 0.67250 0.26230 -0.27300
C 	C 	0.93080 0.65790 0.24530 0.16300
N 	N 	0.13110 0.71200 0.21340 -0.26900
C 	C 	0.06990 0.67750 0.21950 0.15800
N 	N 	0.69570 0.34510 0.23890 -0.27200
C 	C 	0.66910 0.40810 0.25520 0.15500
N 	N 	0.75740 0.73530 0.89700 -0.27300
C 	C 	0.72690 0.72570 0.95750 0.16600
N 	N 	0.68960 0.69560 0.02030 -0.11800
N 	N 	0.67520 0.73750 0.02050 -0.09600
N 	N 	0.62910 0.47720 0.27470 -0.18100
N 	N 	0.00290 0.63070 0.22120 -0.18800
Ni	Ni	0.27109 0.74775 0.72283 1.07200
N 	N 	0.28090 0.72810 0.84340 -0.27700
C 	C 	0.28130 0.71340 0.90770 0.17500
N 	N 	0.38660 0.69200 0.70910 -0.27100
C 	C 	0.45260 0.66650 0.71740 0.16400
N 	N 	0.32750 0.86450 0.73770 -0.27200
C 	C 	0.34210 0.93080 0.75470 0.16400
N 	N 	0.28800 0.13110 0.78660 -0.26800
C 	C 	0.32250 0.06990 0.78050 0.15900
N 	N 	0.65490 0.69570 0.76110 -0.27100
C 	C 	0.59190 0.66910 0.74480 0.15600
N 	N 	0.26470 0.75740 0.10300 -0.27200
C 	C 	0.27430 0.72690 0.04250 0.16700
N 	N 	0.30440 0.68960 0.97970 -0.11800
N 	N 	0.26250 0.67520 0.97950 -0.09600
N 	N 	0.52280 0.62910 0.72530 -0.18100
N 	N 	0.36930 0.00290 0.77880 -0.18800
Ni	Ni	0.72891 0.25225 0.72283 1.07200
N 	N 	0.71910 0.27190 0.84340 -0.27700
C 	C 	0.71870 0.28660 0.90770 0.17500
N 	N 	0.61340 0.30800 0.70910 -0.27100
C 	C 	0.54740 0.33350 0.71740 0.16400
N 	N 	0.67250 0.13550 0.73770 -0.27200
C 	C 	0.65790 0.06920 0.75470 0.16700
N 	N 	0.71200 0.86890 0.78660 -0.26800
C 	C 	0.67750 0.93010 0.78050 0.15800
N 	N 	0.34510 0.30430 0.76110 -0.27100
C 	C 	0.40810 0.33090 0.74480 0.15600
N 	N 	0.73530 0.24260 0.10300 -0.27200
C 	C 	0.72570 0.27310 0.04250 0.16800
N 	N 	0.69560 0.31040 0.97970 -0.11800
N 	N 	0.73750 0.32480 0.97950 -0.09700
N 	N 	0.47720 0.37090 0.72530 -0.18100
N 	N 	0.63070 0.99710 0.77880 -0.19000
Ni	Ni	0.24775 0.77109 0.22283 1.07200
N 	N 	0.22810 0.78090 0.34340 -0.27700
C 	C 	0.21340 0.78130 0.40770 0.17500
N 	N 	0.19200 0.88660 0.20910 -0.27000
C 	C 	0.16650 0.95260 0.21740 0.16200
N 	N 	0.36450 0.82750 0.23770 -0.27200
C 	C 	0.43080 0.84210 0.25470 0.16500
N 	N 	0.63110 0.78800 0.28660 -0.26800
C 	C 	0.56990 0.82250 0.28050 0.15800
N 	N 	0.19570 0.15490 0.26110 -0.27100
C 	C 	0.16910 0.09190 0.24480 0.15600
N 	N 	0.25740 0.76470 0.60300 -0.27200
C 	C 	0.22690 0.77430 0.54250 0.16700
N 	N 	0.18960 0.80440 0.47970 -0.11800
N 	N 	0.17520 0.76250 0.47950 -0.09600
N 	N 	0.12910 0.02280 0.22530 -0.18000
N 	N 	0.50290 0.86930 0.27880 -0.18900
Ni	Ni	0.75225 0.22891 0.22283 1.07200
N 	N 	0.77190 0.21910 0.34340 -0.27700
C 	C 	0.78660 0.21870 0.40770 0.17500
N 	N 	0.80800 0.11340 0.20910 -0.27100
C 	C 	0.83350 0.04740 0.21740 0.16500
N 	N 	0.63550 0.17250 0.23770 -0.27200
C 	C 	0.56920 0.15790 0.25470 0.16600
N 	N 	0.36890 0.21200 0.28660 -0.26800
C 	C 	0.43010 0.17750 0.28050 0.15900
N 	N 	0.80430 0.84510 0.26110 -0.27100
C 	C 	0.83090 0.90810 0.24480 0.15500
N 	N 	0.74260 0.23530 0.60300 -0.27200
C 	C 	0.77310 0.22570 0.54250 0.16800
N 	N 	0.81040 0.19560 0.47970 -0.11800
N 	N 	0.82480 0.23750 0.47950 -0.09700
N 	N 	0.87090 0.97720 0.22530 -0.18300
N 	N 	0.49710 0.13070 0.27880 -0.18800
Ni	Ni	0.22891 0.24775 0.77717 1.07200
N 	N 	0.21910 0.22810 0.65660 -0.27700
C 	C 	0.21870 0.21340 0.59230 0.17500
N 	N 	0.11340 0.19200 0.79090 -0.27100
C 	C 	0.04740 0.16650 0.78260 0.16500
N 	N 	0.17250 0.36450 0.76230 -0.27200
C 	C 	0.15790 0.43080 0.74530 0.16600
N 	N 	0.21200 0.63110 0.71340 -0.26800
C 	C 	0.17750 0.56990 0.71950 0.15900
N 	N 	0.84510 0.19570 0.73890 -0.27100
C 	C 	0.90810 0.16910 0.75520 0.15500
N 	N 	0.23530 0.25740 0.39700 -0.27200
C 	C 	0.22570 0.22690 0.45750 0.16800
N 	N 	0.19560 0.18960 0.52030 -0.11800
N 	N 	0.23750 0.17520 0.52050 -0.09700
N 	N 	0.97720 0.12910 0.77470 -0.18200
N 	N 	0.13070 0.50290 0.72120 -0.18800
Ni	Ni	0.77109 0.75225 0.77717 1.07200
N 	N 	0.78090 0.77190 0.65660 -0.27700
C 	C 	0.78130 0.78660 0.59230 0.17500
N 	N 	0.88660 0.80800 0.79090 -0.27100
C 	C 	0.95260 0.83350 0.78260 0.16100
N 	N 	0.82750 0.63550 0.76230 -0.27200
C 	C 	0.84210 0.56920 0.74530 0.16500
N 	N 	0.78800 0.36890 0.71340 -0.26800
C 	C 	0.82250 0.43010 0.71950 0.15800
N 	N 	0.15490 0.80430 0.73890 -0.27100
C 	C 	0.09190 0.83090 0.75520 0.15600
N 	N 	0.76470 0.74260 0.39700 -0.27200
C 	C 	0.77430 0.77310 0.45750 0.16700
N 	N 	0.80440 0.81040 0.52030 -0.11900
N 	N 	0.76250 0.82480 0.52050 -0.09600
N 	N 	0.02280 0.87090 0.77470 -0.18000
N 	N 	0.86930 0.49710 0.72120 -0.18900
C 	C 	0.07880 0.49590 0.45080 0.00700
H 	H 	0.06510 0.50530 0.39490 0.07700
H 	H 	0.10220 0.43930 0.45550 -0.03800
C 	C 	0.14960 0.56270 0.47710 -0.31300
H 	H 	0.12230 0.61560 0.49160 0.03600
H 	H 	0.17870 0.54140 0.52420 0.11100
C 	C 	0.21270 0.57930 0.41350 0.19000
H 	H 	0.25960 0.61030 0.43560 -0.04100
H 	H 	0.18690 0.61200 0.37150 0.08100
H 	H 	0.23260 0.52640 0.39210 -0.00100
C 	C 	0.96880 0.57750 0.53110 -0.10100
H 	H 	0.91790 0.56590 0.56180 0.04800
H 	H 	0.95360 0.61570 0.48790 0.07100
C 	C 	0.03080 0.61910 0.58290 0.05600
H 	H 	0.08360 0.62550 0.55370 -0.00700
H 	H 	0.04180 0.58310 0.62890 0.00900
C 	C 	0.00270 0.70330 0.61130 -0.14700
H 	H 	0.04900 0.73150 0.63750 0.14800
H 	H 	0.95670 0.69660 0.64850 0.01900
H 	H 	0.98410 0.73670 0.56650 0.11700
C 	C 	0.93070 0.46430 0.44830 -0.26200
H 	H 	0.91200 0.41600 0.47960 0.18300
H 	H 	0.88600 0.50610 0.45410 0.15900
C 	C 	0.92140 0.43950 0.37830 0.06900
H 	H 	0.93830 0.38040 0.37490 0.00300
H 	H 	0.95840 0.47190 0.34350 -0.01000
C 	C 	0.83290 0.44800 0.34960 -0.31800
H 	H 	0.82800 0.42350 0.29710 0.10700
H 	H 	0.81780 0.50690 0.34730 0.11200
H 	H 	0.79540 0.41900 0.38580 -0.06900
C 	C 	0.00140 0.43080 0.56590 0.00500
H 	H 	0.04110 0.44900 0.60670 0.02600
H 	H 	0.94560 0.42920 0.59040 0.00800
C 	C 	0.02440 0.34220 0.54170 -0.13700
H 	H 	0.99070 0.32570 0.49560 0.04800
H 	H 	0.08360 0.34060 0.52600 0.04800
C 	C 	0.01050 0.28150 0.60650 -0.04500
H 	H 	0.02800 0.22610 0.58940 -0.01500
H 	H 	0.95130 0.28040 0.62010 -0.08000
H 	H 	0.04290 0.29810 0.65260 0.04000
C 	C 	0.92120 0.50410 0.45080 0.00300
H 	H 	0.93490 0.49470 0.39490 0.07700
H 	H 	0.89780 0.56070 0.45550 -0.03900
C 	C 	0.85040 0.43730 0.47710 -0.31300
H 	H 	0.87770 0.38440 0.49160 0.03500
H 	H 	0.82130 0.45860 0.52420 0.11100
C 	C 	0.78730 0.42070 0.41350 0.19100
H 	H 	0.74040 0.38970 0.43560 -0.04100
H 	H 	0.81310 0.38800 0.37150 0.08200
H 	H 	0.76740 0.47360 0.39210 -0.00100
C 	C 	0.03120 0.42250 0.53110 -0.08100
H 	H 	0.08210 0.43410 0.56180 0.04300
H 	H 	0.04640 0.38430 0.48790 0.06400
C 	C 	0.96920 0.38090 0.58290 0.02800
H 	H 	0.91640 0.37450 0.55370 -0.00000
H 	H 	0.95820 0.41690 0.62890 0.01200
C 	C 	0.99730 0.29670 0.61130 -0.14300
H 	H 	0.95100 0.26850 0.63750 0.15100
H 	H 	0.04330 0.30340 0.64850 0.02000
H 	H 	0.01590 0.26330 0.56650 0.11500
C 	C 	0.06930 0.53570 0.44830 -0.26100
H 	H 	0.08800 0.58400 0.47960 0.18300
H 	H 	0.11400 0.49390 0.45410 0.15700
C 	C 	0.07860 0.56050 0.37830 0.06700
H 	H 	0.06170 0.61960 0.37490 0.00400
H 	H 	0.04160 0.52810 0.34350 -0.00800
C 	C 	0.16710 0.55200 0.34960 -0.31600
H 	H 	0.17200 0.57650 0.29710 0.10600
H 	H 	0.18220 0.49310 0.34730 0.11100
H 	H 	0.20460 0.58100 0.38580 -0.06900
C 	C 	0.99860 0.56920 0.56590 0.01800
H 	H 	0.95890 0.55100 0.60670 0.02100
H 	H 	0.05440 0.57080 0.59040 -0.00200
C 	C 	0.97560 0.65780 0.54170 -0.16400
H 	H 	0.00930 0.67430 0.49560 0.05700
H 	H 	0.91640 0.65940 0.52600 0.05500
C 	C 	0.98950 0.71850 0.60650 -0.03900
H 	H 	0.97200 0.77390 0.58940 -0.01800
H 	H 	0.04870 0.71960 0.62010 -0.07700
H 	H 	0.95710 0.70190 0.65260 0.04000
N 	N 	0.00000 0.50000 0.49790 -0.05100
C 	C 	0.49590 0.92120 0.54920 0.00300
H 	H 	0.50530 0.93490 0.60510 0.07700
H 	H 	0.43930 0.89780 0.54450 -0.03900
C 	C 	0.56270 0.85040 0.52290 -0.31300
H 	H 	0.61560 0.87770 0.50840 0.03500
H 	H 	0.54140 0.82130 0.47580 0.11100
C 	C 	0.57930 0.78730 0.58650 0.19100
H 	H 	0.61030 0.74040 0.56440 -0.04100
H 	H 	0.61200 0.81310 0.62850 0.08200
H 	H 	0.52640 0.76740 0.60790 -0.00100
C 	C 	0.57750 0.03120 0.46890 -0.08100
H 	H 	0.56590 0.08210 0.43820 0.04300
H 	H 	0.61570 0.04640 0.51210 0.06400
C 	C 	0.61910 0.96920 0.41710 0.02800
H 	H 	0.62550 0.91640 0.44630 -0.00000
H 	H 	0.58310 0.95820 0.37110 0.01200
C 	C 	0.70330 0.99730 0.38870 -0.14200
H 	H 	0.73150 0.95100 0.36250 0.15000
H 	H 	0.69660 0.04330 0.35150 0.02000
H 	H 	0.73670 0.01590 0.43350 0.11500
C 	C 	0.46430 0.06930 0.55170 -0.26100
H 	H 	0.41600 0.08800 0.52040 0.18300
H 	H 	0.50610 0.11400 0.54590 0.15600
C 	C 	0.43950 0.07860 0.62170 0.06700
H 	H 	0.38040 0.06170 0.62510 0.00400
H 	H 	0.47190 0.04160 0.65650 -0.00800
C 	C 	0.44800 0.16710 0.65040 -0.31600
H 	H 	0.42350 0.17200 0.70290 0.10600
H 	H 	0.50690 0.18220 0.65270 0.11100
H 	H 	0.41900 0.20460 0.61420 -0.06900
C 	C 	0.43080 0.99860 0.43410 0.01800
H 	H 	0.44900 0.95890 0.39330 0.02100
H 	H 	0.42920 0.05440 0.40960 -0.00200
C 	C 	0.34220 0.97560 0.45830 -0.16400
H 	H 	0.32570 0.00930 0.50440 0.05700
H 	H 	0.34060 0.91640 0.47400 0.05500
C 	C 	0.28150 0.98950 0.39350 -0.03900
H 	H 	0.22610 0.97200 0.41060 -0.01800
H 	H 	0.28040 0.04870 0.37990 -0.07700
H 	H 	0.29810 0.95710 0.34740 0.04000
C 	C 	0.50410 0.07880 0.54920 0.00700
H 	H 	0.49470 0.06510 0.60510 0.07700
H 	H 	0.56070 0.10220 0.54450 -0.03800
C 	C 	0.43730 0.14960 0.52290 -0.31300
H 	H 	0.38440 0.12230 0.50840 0.03600
H 	H 	0.45860 0.17870 0.47580 0.11100
C 	C 	0.42070 0.21270 0.58650 0.19000
H 	H 	0.38970 0.25960 0.56440 -0.04100
H 	H 	0.38800 0.18690 0.62850 0.08100
H 	H 	0.47360 0.23260 0.60790 -0.00100
C 	C 	0.42250 0.96880 0.46890 -0.10100
H 	H 	0.43410 0.91790 0.43820 0.04800
H 	H 	0.38430 0.95360 0.51210 0.07100
C 	C 	0.38090 0.03080 0.41710 0.05600
H 	H 	0.37450 0.08360 0.44630 -0.00700
H 	H 	0.41690 0.04180 0.37110 0.00900
C 	C 	0.29670 0.00270 0.38870 -0.14700
H 	H 	0.26850 0.04900 0.36250 0.14800
H 	H 	0.30340 0.95670 0.35150 0.01900
H 	H 	0.26330 0.98410 0.43350 0.11700
C 	C 	0.53570 0.93070 0.55170 -0.26200
H 	H 	0.58400 0.91200 0.52040 0.18300
H 	H 	0.49390 0.88600 0.54590 0.15900
C 	C 	0.56050 0.92140 0.62170 0.06900
H 	H 	0.61960 0.93830 0.62510 0.00300
H 	H 	0.52810 0.95840 0.65650 -0.01000
C 	C 	0.55200 0.83290 0.65040 -0.31800
H 	H 	0.57650 0.82800 0.70290 0.10700
H 	H 	0.49310 0.81780 0.65270 0.11200
H 	H 	0.58100 0.79540 0.61420 -0.06900
C 	C 	0.56920 0.00140 0.43410 0.00500
H 	H 	0.55100 0.04110 0.39330 0.02600
H 	H 	0.57080 0.94560 0.40960 0.00800
C 	C 	0.65780 0.02440 0.45830 -0.13700
H 	H 	0.67430 0.99070 0.50440 0.04800
H 	H 	0.65940 0.08360 0.47400 0.04800
C 	C 	0.71850 0.01050 0.39350 -0.04500
H 	H 	0.77390 0.02800 0.41060 -0.01500
H 	H 	0.71960 0.95130 0.37990 -0.08000
H 	H 	0.70190 0.04290 0.34740 0.04000
N 	N 	0.50000 0.00000 0.50210 -0.05100
C 	C 	0.42120 0.99590 0.04920 0.01200
H 	H 	0.43490 0.00530 0.10510 0.07800
H 	H 	0.39780 0.93930 0.04450 -0.03900
C 	C 	0.35040 0.06270 0.02290 -0.30900
H 	H 	0.37770 0.11560 0.00840 0.03500
H 	H 	0.32130 0.04140 0.97580 0.11000
C 	C 	0.28730 0.07930 0.08650 0.18800
H 	H 	0.24040 0.11030 0.06440 -0.04000
H 	H 	0.31310 0.11200 0.12850 0.08100
H 	H 	0.26740 0.02640 0.10790 0.00000
C 	C 	0.53120 0.07750 0.96890 -0.09000
H 	H 	0.58210 0.06590 0.93820 0.04600
H 	H 	0.54640 0.11570 0.01210 0.06800
C 	C 	0.46920 0.11910 0.91710 0.04000
H 	H 	0.41640 0.12550 0.94630 -0.00300
H 	H 	0.45820 0.08310 0.87110 0.01100
C 	C 	0.49730 0.20330 0.88870 -0.14400
H 	H 	0.45100 0.23150 0.86250 0.14900
H 	H 	0.54330 0.19660 0.85150 0.02000
H 	H 	0.51590 0.23670 0.93350 0.11600
C 	C 	0.56930 0.96430 0.05170 -0.26200
H 	H 	0.58800 0.91600 0.02040 0.18400
H 	H 	0.61400 0.00610 0.04590 0.16400
C 	C 	0.57860 0.93950 0.12170 0.07500
H 	H 	0.56170 0.88040 0.12510 0.00200
H 	H 	0.54160 0.97190 0.15650 -0.01200
C 	C 	0.66710 0.94800 0.15040 -0.32700
H 	H 	0.67200 0.92350 0.20290 0.10900
H 	H 	0.68220 0.00690 0.15270 0.11600
H 	H 	0.70460 0.91900 0.11420 -0.06700
C 	C 	0.49860 0.93080 0.93410 0.01100
H 	H 	0.45890 0.94900 0.89330 0.02300
H 	H 	0.55440 0.92920 0.90960 0.00200
C 	C 	0.47560 0.84220 0.95830 -0.15200
H 	H 	0.50930 0.82570 0.00440 0.05300
H 	H 	0.41640 0.84060 0.97400 0.05200
C 	C 	0.48950 0.78150 0.89350 -0.04200
H 	H 	0.47200 0.72610 0.91060 -0.01700
H 	H 	0.54870 0.78040 0.87990 -0.07800
H 	H 	0.45710 0.79810 0.84740 0.04000
C 	C 	0.57880 0.00410 0.04920 -0.00200
H 	H 	0.56510 0.99470 0.10510 0.07600
H 	H 	0.60220 0.06070 0.04450 -0.03800
C 	C 	0.64960 0.93730 0.02290 -0.31700
H 	H 	0.62230 0.88440 0.00840 0.03700
H 	H 	0.67870 0.95860 0.97580 0.11100
C 	C 	0.71270 0.92070 0.08650 0.19200
H 	H 	0.75960 0.88970 0.06440 -0.04200
H 	H 	0.68690 0.88800 0.12850 0.08200
H 	H 	0.73260 0.97360 0.10790 -0.00200
C 	C 	0.46880 0.92250 0.96890 -0.09200
H 	H 	0.41790 0.93410 0.93820 0.04600
H 	H 	0.45360 0.88430 0.01210 0.06800
C 	C 	0.53080 0.88090 0.91710 0.04400
H 	H 	0.58360 0.87450 0.94630 -0.00500
H 	H 	0.54180 0.91690 0.87110 0.01000
C 	C 	0.50270 0.79670 0.88870 -0.14500
H 	H 	0.54900 0.76850 0.86250 0.14900
H 	H 	0.45670 0.80340 0.85150 0.02000
H 	H 	0.48410 0.76330 0.93350 0.11600
C 	C 	0.43070 0.03570 0.05170 -0.26100
H 	H 	0.41200 0.08400 0.02040 0.18200
H 	H 	0.38600 0.99390 0.04590 0.15100
C 	C 	0.42140 0.06050 0.12170 0.06100
H 	H 	0.43830 0.11960 0.12510 0.00600
H 	H 	0.45840 0.02810 0.15650 -0.00700
C 	C 	0.33290 0.05200 0.15040 -0.30600
H 	H 	0.32800 0.07650 0.20290 0.10400
H 	H 	0.31780 0.99310 0.15270 0.10700
H 	H 	0.29540 0.08100 0.11420 -0.07000
C 	C 	0.50140 0.06920 0.93410 0.01200
H 	H 	0.54110 0.05100 0.89330 0.02400
H 	H 	0.44560 0.07080 0.90960 0.00300
C 	C 	0.52440 0.15780 0.95830 -0.15000
H 	H 	0.49070 0.17430 0.00440 0.05200
H 	H 	0.58360 0.15940 0.97400 0.05100
C 	C 	0.51050 0.21850 0.89350 -0.04100
H 	H 	0.52800 0.27390 0.91060 -0.01700
H 	H 	0.45130 0.21960 0.87990 -0.07800
H 	H 	0.54290 0.20190 0.84740 0.04000
N 	N 	0.50000 0.00000 0.00210 -0.05100
C 	C 	0.00410 0.42120 0.95080 -0.00200
H 	H 	0.99470 0.43490 0.89490 0.07600
H 	H 	0.06070 0.39780 0.95550 -0.03800
C 	C 	0.93730 0.35040 0.97710 -0.31700
H 	H 	0.88440 0.37770 0.99160 0.03700
H 	H 	0.95860 0.32130 0.02420 0.11200
C 	C 	0.92070 0.28730 0.91350 0.19200
H 	H 	0.88970 0.24040 0.93560 -0.04200
H 	H 	0.88800 0.31310 0.87150 0.08200
H 	H 	0.97360 0.26740 0.89210 -0.00200
C 	C 	0.92250 0.53120 0.03110 -0.09200
H 	H 	0.93410 0.58210 0.06180 0.04600
H 	H 	0.88430 0.54640 0.98790 0.06800
C 	C 	0.88090 0.46920 0.08290 0.04400
H 	H 	0.87450 0.41640 0.05370 -0.00500
H 	H 	0.91690 0.45820 0.12890 0.01000
C 	C 	0.79670 0.49730 0.11130 -0.14500
H 	H 	0.76850 0.45100 0.13750 0.14900
H 	H 	0.80340 0.54330 0.14850 0.02000
H 	H 	0.76330 0.51590 0.06650 0.11600
C 	C 	0.03570 0.56930 0.94830 -0.26100
H 	H 	0.08400 0.58800 0.97960 0.18200
H 	H 	0.99390 0.61400 0.95410 0.15100
C 	C 	0.06050 0.57860 0.87830 0.06100
H 	H 	0.11960 0.56170 0.87490 0.00600
H 	H 	0.02810 0.54160 0.84350 -0.00700
C 	C 	0.05200 0.66710 0.84960 -0.30600
H 	H 	0.07650 0.67200 0.79710 0.10400
H 	H 	0.99310 0.68220 0.84730 0.10700
H 	H 	0.08100 0.70460 0.88580 -0.07000
C 	C 	0.06920 0.49860 0.06590 0.01200
H 	H 	0.05100 0.45890 0.10670 0.02400
H 	H 	0.07080 0.55440 0.09040 0.00300
C 	C 	0.15780 0.47560 0.04170 -0.15000
H 	H 	0.17430 0.50930 0.99560 0.05200
H 	H 	0.15940 0.41640 0.02600 0.05100
C 	C 	0.21850 0.48950 0.10650 -0.04100
H 	H 	0.27390 0.47200 0.08940 -0.01700
H 	H 	0.21960 0.54870 0.12010 -0.07800
H 	H 	0.20190 0.45710 0.15260 0.04000
C 	C 	0.99590 0.57880 0.95080 0.01200
H 	H 	0.00530 0.56510 0.89490 0.07800
H 	H 	0.93930 0.60220 0.95550 -0.03900
C 	C 	0.06270 0.64960 0.97710 -0.30900
H 	H 	0.11560 0.62230 0.99160 0.03500
H 	H 	0.04140 0.67870 0.02420 0.11000
C 	C 	0.07930 0.71270 0.91350 0.18800
H 	H 	0.11030 0.75960 0.93560 -0.04000
H 	H 	0.11200 0.68690 0.87150 0.08100
H 	H 	0.02640 0.73260 0.89210 0.00000
C 	C 	0.07750 0.46880 0.03110 -0.09000
H 	H 	0.06590 0.41790 0.06180 0.04600
H 	H 	0.11570 0.45360 0.98790 0.06800
C 	C 	0.11910 0.53080 0.08290 0.04000
H 	H 	0.12550 0.58360 0.05370 -0.00300
H 	H 	0.08310 0.54180 0.12890 0.01100
C 	C 	0.20330 0.50270 0.11130 -0.14400
H 	H 	0.23150 0.54900 0.13750 0.14900
H 	H 	0.19660 0.45670 0.14850 0.02000
H 	H 	0.23670 0.48410 0.06650 0.11600
C 	C 	0.96430 0.43070 0.94830 -0.26200
H 	H 	0.91600 0.41200 0.97960 0.18400
H 	H 	0.00610 0.38600 0.95410 0.16400
C 	C 	0.93950 0.42140 0.87830 0.07500
H 	H 	0.88040 0.43830 0.87490 0.00200
H 	H 	0.97190 0.45840 0.84350 -0.01200
C 	C 	0.94800 0.33290 0.84960 -0.32700
H 	H 	0.92350 0.32800 0.79710 0.10900
H 	H 	0.00690 0.31780 0.84730 0.11600
H 	H 	0.91900 0.29540 0.88580 -0.06700
C 	C 	0.93080 0.50140 0.06590 0.01100
H 	H 	0.94900 0.54110 0.10670 0.02300
H 	H 	0.92920 0.44560 0.09040 0.00200
C 	C 	0.84220 0.52440 0.04170 -0.15200
H 	H 	0.82570 0.49070 0.99560 0.05300
H 	H 	0.84060 0.58360 0.02600 0.05100
C 	C 	0.78150 0.51050 0.10650 -0.04200
H 	H 	0.72610 0.52800 0.08940 -0.01700
H 	H 	0.78040 0.45130 0.12010 -0.07800
H 	H 	0.79810 0.54290 0.15260 0.04000
N 	N 	-0.00000 0.50000 0.99790 -0.05100
