data_crystal

_cell_length_a 16.14610
_cell_length_b 16.14610
_cell_length_c 17.41260
_cell_angle_alpha 90.00000
_cell_angle_beta  90.00000
_cell_angle_gamma 90.00000

_symmetry_space_group_name_	'P 1'
_symmetry_space_group_name_H-M	'P 1'

loop_
_symmetry_equiv_pos_as_xyz
  x,y,z

loop_
_atom_site_label
_atom_site_type_symbol
_atom_site_fract_x
_atom_site_fract_y
_atom_site_fract_z
_atom_site_charge
Mn	Mn	0.23852 0.77729 0.21396 1.25300
N 	N 	0.22380 0.78490 0.33995 -0.27200
N 	N 	0.11870 0.70639 0.20680 -0.25800
N 	N 	0.17070 0.89584 0.20470 -0.28400
N 	N 	0.86046 0.65640 0.27530 -0.25900
N 	N 	0.19397 0.15797 0.27015 -0.28100
N 	N 	0.26450 0.75440 0.58899 -0.27300
C 	C 	0.15010 0.96170 0.21980 0.17700
C 	C 	0.16210 0.09750 0.25350 0.17500
N 	N 	0.17630 0.77460 0.47460 -0.02400
C 	C 	0.20450 0.77710 0.40480 0.04200
C 	C 	0.22420 0.76340 0.53350 0.04200
N 	N 	0.99320 0.62000 0.21740 -0.20700
C 	C 	0.05750 0.66860 0.21510 0.03700
C 	C 	0.92480 0.64340 0.25030 0.03500
N 	N 	0.11730 0.03300 0.23390 -0.18400
N 	N 	0.19170 0.80790 0.47600 -0.01300
C 	C 	0.21490 0.79540 0.40550 0.05400
C 	C 	0.28090 0.73560 0.03340 0.05500
N 	N 	0.18310 0.73520 0.46970 -0.10700
C 	C 	0.20700 0.75480 0.40080 0.02600
C 	C 	0.24670 0.72960 0.02970 0.02200
N 	N 	0.22620 0.83330 0.47480 -0.12800
C 	C 	0.23100 0.80790 0.40420 0.05400
C 	C 	0.28820 0.75600 0.03010 0.05600
N 	N 	0.48460 0.86590 0.30570 0.05000
C 	C 	0.05390 0.67410 0.20230 0.02600
C 	C 	0.42250 0.85310 0.25980 0.06200
N 	N 	0.50430 0.88340 0.25060 0.00700
C 	C 	0.06380 0.66740 0.23180 0.06900
C 	C 	0.42980 0.85590 0.23840 0.03400
Mn	Mn	0.76148 0.22271 0.21396 1.25400
N 	N 	0.77620 0.21510 0.33995 -0.27100
N 	N 	0.88130 0.29361 0.20680 -0.25700
N 	N 	0.82930 0.10416 0.20470 -0.28300
N 	N 	0.13954 0.34360 0.27530 -0.25800
N 	N 	0.80603 0.84203 0.27015 -0.28000
N 	N 	0.73550 0.24560 0.58899 -0.27200
C 	C 	0.84990 0.03830 0.21980 0.17800
C 	C 	0.83790 0.90250 0.25350 0.17600
N 	N 	0.82370 0.22540 0.47460 -0.02300
C 	C 	0.79550 0.22290 0.40480 0.04300
C 	C 	0.77580 0.23660 0.53350 0.04300
N 	N 	0.00680 0.38000 0.21740 -0.20600
C 	C 	0.94250 0.33140 0.21510 0.03800
C 	C 	0.07520 0.35660 0.25030 0.03600
N 	N 	0.88270 0.96700 0.23390 -0.18300
N 	N 	0.80830 0.19210 0.47600 -0.01300
C 	C 	0.78510 0.20460 0.40550 0.05400
C 	C 	0.71910 0.26440 0.03340 0.05500
N 	N 	0.81690 0.26480 0.46970 -0.10700
C 	C 	0.79300 0.24520 0.40080 0.02600
C 	C 	0.75330 0.27040 0.02970 0.02200
N 	N 	0.77380 0.16670 0.47480 -0.12800
C 	C 	0.76900 0.19210 0.40420 0.05400
C 	C 	0.71180 0.24400 0.03010 0.05600
N 	N 	0.51540 0.13410 0.30570 0.05000
C 	C 	0.94610 0.32590 0.20230 0.02600
C 	C 	0.57750 0.14690 0.25980 0.06200
N 	N 	0.49570 0.11660 0.25060 0.00700
C 	C 	0.93620 0.33260 0.23180 0.06900
C 	C 	0.57020 0.14410 0.23840 0.03400
Mn	Mn	0.77729 0.76148 0.78604 1.25400
N 	N 	0.78490 0.77620 0.66005 -0.27100
N 	N 	0.70639 0.88130 0.79320 -0.25700
N 	N 	0.89584 0.82930 0.79530 -0.28300
N 	N 	0.65640 0.13954 0.72470 -0.25800
N 	N 	0.15797 0.80603 0.72985 -0.28000
N 	N 	0.75440 0.73550 0.41101 -0.27200
C 	C 	0.96170 0.84990 0.78020 0.17800
C 	C 	0.09750 0.83790 0.74650 0.17600
N 	N 	0.77460 0.82370 0.52540 -0.02300
C 	C 	0.77710 0.79550 0.59520 0.04300
C 	C 	0.76340 0.77580 0.46650 0.04300
N 	N 	0.62000 0.00680 0.78260 -0.20600
C 	C 	0.66860 0.94250 0.78490 0.03800
C 	C 	0.64340 0.07520 0.74970 0.03600
N 	N 	0.03300 0.88270 0.76610 -0.18300
N 	N 	0.80790 0.80830 0.52400 -0.01300
C 	C 	0.79540 0.78510 0.59450 0.05400
C 	C 	0.73560 0.71910 0.96660 0.05500
N 	N 	0.73520 0.81690 0.53030 -0.10700
C 	C 	0.75480 0.79300 0.59920 0.02600
C 	C 	0.72960 0.75330 0.97030 0.02200
N 	N 	0.83330 0.77380 0.52520 -0.12800
C 	C 	0.80790 0.76900 0.59580 0.05400
C 	C 	0.75600 0.71180 0.96990 0.05600
N 	N 	0.86590 0.51540 0.69430 0.05000
C 	C 	0.67410 0.94610 0.79770 0.02600
C 	C 	0.85310 0.57750 0.74020 0.06200
N 	N 	0.88340 0.49570 0.74940 0.00700
C 	C 	0.66740 0.93620 0.76820 0.06900
C 	C 	0.85590 0.57020 0.76160 0.03400
Mn	Mn	0.22271 0.23852 0.78604 1.25400
N 	N 	0.21510 0.22380 0.66005 -0.27100
N 	N 	0.29361 0.11870 0.79320 -0.25700
N 	N 	0.10416 0.17070 0.79530 -0.28300
N 	N 	0.34360 0.86046 0.72470 -0.25800
N 	N 	0.84203 0.19397 0.72985 -0.28000
N 	N 	0.24560 0.26450 0.41101 -0.27200
C 	C 	0.03830 0.15010 0.78020 0.17800
C 	C 	0.90250 0.16210 0.74650 0.17600
N 	N 	0.22540 0.17630 0.52540 -0.02300
C 	C 	0.22290 0.20450 0.59520 0.04300
C 	C 	0.23660 0.22420 0.46650 0.04300
N 	N 	0.38000 0.99320 0.78260 -0.20600
C 	C 	0.33140 0.05750 0.78490 0.03800
C 	C 	0.35660 0.92480 0.74970 0.03600
N 	N 	0.96700 0.11730 0.76610 -0.18300
N 	N 	0.19210 0.19170 0.52400 -0.01300
C 	C 	0.20460 0.21490 0.59450 0.05400
C 	C 	0.26440 0.28090 0.96660 0.05500
N 	N 	0.26480 0.18310 0.53030 -0.10700
C 	C 	0.24520 0.20700 0.59920 0.02600
C 	C 	0.27040 0.24670 0.97030 0.02200
N 	N 	0.16670 0.22620 0.52520 -0.12800
C 	C 	0.19210 0.23100 0.59580 0.05400
C 	C 	0.24400 0.28820 0.96990 0.05600
N 	N 	0.13410 0.48460 0.69430 0.05000
C 	C 	0.32590 0.05390 0.79770 0.02600
C 	C 	0.14690 0.42250 0.74020 0.06200
N 	N 	0.11660 0.50430 0.74940 0.00700
C 	C 	0.33260 0.06380 0.76820 0.06900
C 	C 	0.14410 0.42980 0.76160 0.03400
Mn	Mn	0.26148 0.27729 0.28604 1.25400
N 	N 	0.27620 0.28490 0.16005 -0.27100
N 	N 	0.38130 0.20639 0.29320 -0.25700
N 	N 	0.32930 0.39584 0.29530 -0.28300
N 	N 	0.63954 0.15640 0.22470 -0.25800
N 	N 	0.30603 0.65797 0.22985 -0.28000
N 	N 	0.23550 0.25440 0.91101 -0.27200
C 	C 	0.34990 0.46170 0.28020 0.17900
C 	C 	0.33790 0.59750 0.24650 0.17600
N 	N 	0.32370 0.27460 0.02540 -0.02300
C 	C 	0.29550 0.27710 0.09520 0.04300
C 	C 	0.27580 0.26340 0.96650 0.04300
N 	N 	0.50680 0.12000 0.28260 -0.20600
C 	C 	0.44250 0.16860 0.28490 0.03800
C 	C 	0.57520 0.14340 0.24970 0.03600
N 	N 	0.38270 0.53300 0.26610 -0.18300
N 	N 	0.30830 0.30790 0.02400 -0.01300
C 	C 	0.28510 0.29540 0.09450 0.05400
C 	C 	0.21910 0.23560 0.46660 0.05500
N 	N 	0.31690 0.23520 0.03030 -0.10700
C 	C 	0.29300 0.25480 0.09920 0.02600
C 	C 	0.25330 0.22960 0.47030 0.02200
N 	N 	0.27380 0.33330 0.02520 -0.12800
C 	C 	0.26900 0.30790 0.09580 0.05400
C 	C 	0.21180 0.25600 0.46990 0.05600
N 	N 	0.01540 0.36590 0.19430 0.05000
C 	C 	0.44610 0.17410 0.29770 0.02500
C 	C 	0.07750 0.35310 0.24020 0.06200
N 	N 	0.99570 0.38340 0.24940 0.00700
C 	C 	0.43620 0.16740 0.26820 0.06900
C 	C 	0.07020 0.35590 0.26160 0.03400
Mn	Mn	0.73852 0.72271 0.28604 1.25400
N 	N 	0.72380 0.71510 0.16005 -0.27100
N 	N 	0.61870 0.79361 0.29320 -0.25700
N 	N 	0.67070 0.60416 0.29530 -0.28300
N 	N 	0.36046 0.84360 0.22470 -0.25800
N 	N 	0.69397 0.34203 0.22985 -0.28000
N 	N 	0.76450 0.74560 0.91101 -0.27200
C 	C 	0.65010 0.53830 0.28020 0.17900
C 	C 	0.66210 0.40250 0.24650 0.17600
N 	N 	0.67630 0.72540 0.02540 -0.02300
C 	C 	0.70450 0.72290 0.09520 0.04300
C 	C 	0.72420 0.73660 0.96650 0.04300
N 	N 	0.49320 0.88000 0.28260 -0.20600
C 	C 	0.55750 0.83140 0.28490 0.03800
C 	C 	0.42480 0.85660 0.24970 0.03600
N 	N 	0.61730 0.46700 0.26610 -0.18300
N 	N 	0.69170 0.69210 0.02400 -0.01300
C 	C 	0.71490 0.70460 0.09450 0.05400
C 	C 	0.78090 0.76440 0.46660 0.05500
N 	N 	0.68310 0.76480 0.03030 -0.10700
C 	C 	0.70700 0.74520 0.09920 0.02600
C 	C 	0.74670 0.77040 0.47030 0.02200
N 	N 	0.72620 0.66670 0.02520 -0.12800
C 	C 	0.73100 0.69210 0.09580 0.05400
C 	C 	0.78820 0.74400 0.46990 0.05600
N 	N 	0.98460 0.63410 0.19430 0.05000
C 	C 	0.55390 0.82590 0.29770 0.02500
C 	C 	0.92250 0.64690 0.24020 0.06200
N 	N 	0.00430 0.61660 0.24940 0.00700
C 	C 	0.56380 0.83260 0.26820 0.06900
C 	C 	0.92980 0.64410 0.26160 0.03400
Mn	Mn	0.72271 0.26148 0.71396 1.25400
N 	N 	0.71510 0.27620 0.83995 -0.27100
N 	N 	0.79361 0.38130 0.70680 -0.25700
N 	N 	0.60416 0.32930 0.70470 -0.28300
N 	N 	0.84360 0.63954 0.77530 -0.25800
N 	N 	0.34203 0.30603 0.77015 -0.28000
N 	N 	0.74560 0.23550 0.08899 -0.27200
C 	C 	0.53830 0.34990 0.71980 0.17900
C 	C 	0.40250 0.33790 0.75350 0.17600
N 	N 	0.72540 0.32370 0.97460 -0.02300
C 	C 	0.72290 0.29550 0.90480 0.04300
C 	C 	0.73660 0.27580 0.03350 0.04300
N 	N 	0.88000 0.50680 0.71740 -0.20600
C 	C 	0.83140 0.44250 0.71510 0.03800
C 	C 	0.85660 0.57520 0.75030 0.03600
N 	N 	0.46700 0.38270 0.73390 -0.18300
N 	N 	0.69210 0.30830 0.97600 -0.01300
C 	C 	0.70460 0.28510 0.90550 0.05400
C 	C 	0.76440 0.21910 0.53340 0.05500
N 	N 	0.76480 0.31690 0.96970 -0.10700
C 	C 	0.74520 0.29300 0.90080 0.02600
C 	C 	0.77040 0.25330 0.52970 0.02200
N 	N 	0.66670 0.27380 0.97480 -0.12800
C 	C 	0.69210 0.26900 0.90420 0.05400
C 	C 	0.74400 0.21180 0.53010 0.05600
N 	N 	0.63410 0.01540 0.80570 0.05000
C 	C 	0.82590 0.44610 0.70230 0.02500
C 	C 	0.64690 0.07750 0.75980 0.06200
N 	N 	0.61660 0.99570 0.75060 0.00700
C 	C 	0.83260 0.43620 0.73180 0.06900
C 	C 	0.64410 0.07020 0.73840 0.03400
Mn	Mn	0.27729 0.73852 0.71396 1.25400
N 	N 	0.28490 0.72380 0.83995 -0.27100
N 	N 	0.20639 0.61870 0.70680 -0.25700
N 	N 	0.39584 0.67070 0.70470 -0.28300
N 	N 	0.15640 0.36046 0.77530 -0.25800
N 	N 	0.65797 0.69397 0.77015 -0.28000
N 	N 	0.25440 0.76450 0.08899 -0.27200
C 	C 	0.46170 0.65010 0.71980 0.17900
C 	C 	0.59750 0.66210 0.75350 0.17600
N 	N 	0.27460 0.67630 0.97460 -0.02300
C 	C 	0.27710 0.70450 0.90480 0.04300
C 	C 	0.26340 0.72420 0.03350 0.04300
N 	N 	0.12000 0.49320 0.71740 -0.20600
C 	C 	0.16860 0.55750 0.71510 0.03800
C 	C 	0.14340 0.42480 0.75030 0.03600
N 	N 	0.53300 0.61730 0.73390 -0.18300
N 	N 	0.30790 0.69170 0.97600 -0.01300
C 	C 	0.29540 0.71490 0.90550 0.05400
C 	C 	0.23560 0.78090 0.53340 0.05500
N 	N 	0.23520 0.68310 0.96970 -0.10700
C 	C 	0.25480 0.70700 0.90080 0.02600
C 	C 	0.22960 0.74670 0.52970 0.02200
N 	N 	0.33330 0.72620 0.97480 -0.12800
C 	C 	0.30790 0.73100 0.90420 0.05400
C 	C 	0.25600 0.78820 0.53010 0.05600
N 	N 	0.36590 0.98460 0.80570 0.05000
C 	C 	0.17410 0.55390 0.70230 0.02500
C 	C 	0.35310 0.92250 0.75980 0.06200
N 	N 	0.38340 0.00430 0.75060 0.00700
C 	C 	0.16740 0.56380 0.73180 0.06900
C 	C 	0.35590 0.92980 0.73840 0.03400
