data_crystal

_cell_length_a 16.27520
_cell_length_b 16.27520
_cell_length_c 17.42310
_cell_angle_alpha 90.00000
_cell_angle_beta  90.00000
_cell_angle_gamma 90.00000

_symmetry_space_group_name_	'P 1'
_symmetry_space_group_name_H-M	'P 1'

loop_
_symmetry_equiv_pos_as_xyz
  x,y,z

loop_
_atom_site_label
_atom_site_type_symbol
_atom_site_fract_x
_atom_site_fract_y
_atom_site_fract_z
_atom_site_charge
C 	C 	0.79060 0.21400 0.90920 0.06600
N 	N 	0.87908 0.97090 0.73440 -0.18800
Mn	Mn	0.76086 0.22660 0.71896 1.25500
N 	N 	0.77446 0.21930 0.84520 -0.28100
N 	N 	0.87976 0.29493 0.71222 -0.27700
N 	N 	0.82526 0.10668 0.70949 -0.28700
N 	N 	0.80559 0.84539 0.76649 -0.28300
C 	C 	0.84639 0.04160 0.72282 0.17900
C 	C 	0.83618 0.90650 0.75153 0.17500
C 	C 	0.94023 0.32866 0.71940 0.14600
N 	N 	0.13945 0.33669 0.77060 -0.28200
C 	C 	0.07490 0.35042 0.74920 0.15500
C 	C 	0.77370 0.22700 0.03690 0.09700
N 	N 	0.73810 0.24540 0.09379 -0.29700
N 	N 	0.00510 0.37780 0.72180 -0.55700
N 	N 	0.82400 0.22690 0.97840 -0.05700
N 	N 	0.01170 0.35980 0.69430 0.25000
N 	N 	0.81210 0.27480 0.97710 -0.07600
N 	N 	0.75870 0.16480 0.97860 -0.14200
C 	C 	0.79280 0.24600 0.90640 0.01900
C 	C 	0.76880 0.25820 0.03660 -0.06800
C 	C 	0.76340 0.19830 0.90580 0.10400
C 	C 	0.74200 0.21750 0.04090 0.17800
N 	N 	0.99750 0.38240 0.75710 0.20200
N 	N 	0.80140 0.18790 0.97960 -0.02800
C 	C 	0.20940 0.78600 0.90920 0.06500
N 	N 	0.12092 0.02910 0.73440 -0.18900
Mn	Mn	0.23914 0.77340 0.71896 1.25400
N 	N 	0.22554 0.78070 0.84520 -0.28200
N 	N 	0.12024 0.70507 0.71222 -0.27700
N 	N 	0.17474 0.89332 0.70949 -0.28700
N 	N 	0.19441 0.15461 0.76649 -0.28300
C 	C 	0.15361 0.95840 0.72282 0.17900
C 	C 	0.16382 0.09350 0.75153 0.17500
C 	C 	0.05977 0.67134 0.71940 0.14600
N 	N 	0.86055 0.66331 0.77060 -0.28200
C 	C 	0.92510 0.64958 0.74920 0.15500
C 	C 	0.22630 0.77300 0.03690 0.09700
N 	N 	0.26190 0.75460 0.09379 -0.29700
N 	N 	0.99490 0.62220 0.72180 -0.55700
N 	N 	0.17600 0.77310 0.97840 -0.05700
N 	N 	0.98830 0.64020 0.69430 0.25000
N 	N 	0.18790 0.72520 0.97710 -0.07600
N 	N 	0.24130 0.83520 0.97860 -0.14200
C 	C 	0.20720 0.75400 0.90640 0.01900
C 	C 	0.23120 0.74180 0.03660 -0.06800
C 	C 	0.23660 0.80170 0.90580 0.10400
C 	C 	0.25800 0.78250 0.04090 0.17800
N 	N 	0.00250 0.61760 0.75710 0.20200
N 	N 	0.19860 0.81210 0.97960 -0.02800
C 	C 	0.21400 0.20940 0.09080 0.06500
N 	N 	0.97090 0.12092 0.26560 -0.18900
Mn	Mn	0.22660 0.23914 0.28104 1.25400
N 	N 	0.21930 0.22554 0.15480 -0.28200
N 	N 	0.29493 0.12024 0.28778 -0.27700
N 	N 	0.10668 0.17474 0.29051 -0.28700
N 	N 	0.84539 0.19441 0.23351 -0.28300
C 	C 	0.04160 0.15361 0.27718 0.17900
C 	C 	0.90650 0.16382 0.24847 0.17500
C 	C 	0.32866 0.05977 0.28060 0.14600
N 	N 	0.33669 0.86055 0.22940 -0.28200
C 	C 	0.35042 0.92510 0.25080 0.15500
C 	C 	0.22700 0.22630 0.96310 0.09700
N 	N 	0.24540 0.26190 0.90621 -0.29700
N 	N 	0.37780 0.99490 0.27820 -0.55700
N 	N 	0.22690 0.17600 0.02160 -0.05700
N 	N 	0.35980 0.98830 0.30570 0.25000
N 	N 	0.27480 0.18790 0.02290 -0.07600
N 	N 	0.16480 0.24130 0.02140 -0.14200
C 	C 	0.24600 0.20720 0.09360 0.01900
C 	C 	0.25820 0.23120 0.96340 -0.06800
C 	C 	0.19830 0.23660 0.09420 0.10400
C 	C 	0.21750 0.25800 0.95910 0.17800
N 	N 	0.38240 0.00250 0.24290 0.20200
N 	N 	0.18790 0.19860 0.02040 -0.02800
C 	C 	0.78600 0.79060 0.09080 0.06500
N 	N 	0.02910 0.87908 0.26560 -0.18900
Mn	Mn	0.77340 0.76086 0.28104 1.25400
N 	N 	0.78070 0.77446 0.15480 -0.28200
N 	N 	0.70507 0.87976 0.28778 -0.27700
N 	N 	0.89332 0.82526 0.29051 -0.28700
N 	N 	0.15461 0.80559 0.23351 -0.28300
C 	C 	0.95840 0.84639 0.27718 0.17900
C 	C 	0.09350 0.83618 0.24847 0.17500
C 	C 	0.67134 0.94023 0.28060 0.14600
N 	N 	0.66331 0.13945 0.22940 -0.28200
C 	C 	0.64958 0.07490 0.25080 0.15500
C 	C 	0.77300 0.77370 0.96310 0.09700
N 	N 	0.75460 0.73810 0.90621 -0.29700
N 	N 	0.62220 0.00510 0.27820 -0.55700
N 	N 	0.77310 0.82400 0.02160 -0.05700
N 	N 	0.64020 0.01170 0.30570 0.25000
N 	N 	0.72520 0.81210 0.02290 -0.07600
N 	N 	0.83520 0.75870 0.02140 -0.14200
C 	C 	0.75400 0.79280 0.09360 0.01900
C 	C 	0.74180 0.76880 0.96340 -0.06800
C 	C 	0.80170 0.76340 0.09420 0.10400
C 	C 	0.78250 0.74200 0.95910 0.17800
N 	N 	0.61760 0.99750 0.24290 0.20200
N 	N 	0.81210 0.80140 0.02040 -0.02800
C 	C 	0.70940 0.71400 0.59080 0.06500
N 	N 	0.62092 0.47090 0.76560 -0.18900
Mn	Mn	0.73914 0.72660 0.78104 1.25400
N 	N 	0.72554 0.71930 0.65480 -0.28200
N 	N 	0.62024 0.79493 0.78778 -0.27700
N 	N 	0.67474 0.60668 0.79051 -0.28700
N 	N 	0.69441 0.34539 0.73351 -0.28300
C 	C 	0.65361 0.54160 0.77718 0.17900
C 	C 	0.66382 0.40650 0.74847 0.17500
C 	C 	0.55977 0.82866 0.78060 0.14600
N 	N 	0.36055 0.83669 0.72940 -0.28200
C 	C 	0.42510 0.85042 0.75080 0.15500
C 	C 	0.72630 0.72700 0.46310 0.09700
N 	N 	0.76190 0.74540 0.40621 -0.29700
N 	N 	0.49490 0.87780 0.77820 -0.55700
N 	N 	0.67600 0.72690 0.52160 -0.05700
N 	N 	0.48830 0.85980 0.80570 0.25000
N 	N 	0.68790 0.77480 0.52290 -0.07600
N 	N 	0.74130 0.66480 0.52140 -0.14100
C 	C 	0.70720 0.74600 0.59360 0.01900
C 	C 	0.73120 0.75820 0.46340 -0.06800
C 	C 	0.73660 0.69830 0.59420 0.10400
C 	C 	0.75800 0.71750 0.45910 0.17800
N 	N 	0.50250 0.88240 0.74290 0.20200
N 	N 	0.69860 0.68790 0.52040 -0.02800
C 	C 	0.29060 0.28600 0.59080 0.06500
N 	N 	0.37908 0.52910 0.76560 -0.18900
Mn	Mn	0.26086 0.27340 0.78104 1.25400
N 	N 	0.27446 0.28070 0.65480 -0.28200
N 	N 	0.37976 0.20507 0.78778 -0.27700
N 	N 	0.32526 0.39332 0.79051 -0.28700
N 	N 	0.30559 0.65461 0.73351 -0.28300
C 	C 	0.34639 0.45840 0.77718 0.17900
C 	C 	0.33618 0.59350 0.74847 0.17500
C 	C 	0.44023 0.17134 0.78060 0.14600
N 	N 	0.63945 0.16331 0.72940 -0.28200
C 	C 	0.57490 0.14958 0.75080 0.15500
C 	C 	0.27370 0.27300 0.46310 0.09700
N 	N 	0.23810 0.25460 0.40621 -0.29700
N 	N 	0.50510 0.12220 0.77820 -0.55700
N 	N 	0.32400 0.27310 0.52160 -0.05700
N 	N 	0.51170 0.14020 0.80570 0.25000
N 	N 	0.31210 0.22520 0.52290 -0.07600
N 	N 	0.25870 0.33520 0.52140 -0.14100
C 	C 	0.29280 0.25400 0.59360 0.01900
C 	C 	0.26880 0.24180 0.46340 -0.06800
C 	C 	0.26340 0.30170 0.59420 0.10400
C 	C 	0.24200 0.28250 0.45910 0.17800
N 	N 	0.49750 0.11760 0.74290 0.20200
N 	N 	0.30140 0.31210 0.52040 -0.02800
C 	C 	0.28600 0.70940 0.40920 0.06500
N 	N 	0.52910 0.62092 0.23440 -0.18900
Mn	Mn	0.27340 0.73914 0.21896 1.25400
N 	N 	0.28070 0.72554 0.34520 -0.28200
N 	N 	0.20507 0.62024 0.21222 -0.27700
N 	N 	0.39332 0.67474 0.20949 -0.28700
N 	N 	0.65461 0.69441 0.26649 -0.28300
C 	C 	0.45840 0.65361 0.22282 0.17900
C 	C 	0.59350 0.66382 0.25153 0.17500
C 	C 	0.17134 0.55977 0.21940 0.14600
N 	N 	0.16331 0.36055 0.27060 -0.28200
C 	C 	0.14958 0.42510 0.24920 0.15500
C 	C 	0.27300 0.72630 0.53690 0.09700
N 	N 	0.25460 0.76190 0.59379 -0.29700
N 	N 	0.12220 0.49490 0.22180 -0.55700
N 	N 	0.27310 0.67600 0.47840 -0.05700
N 	N 	0.14020 0.48830 0.19430 0.25000
N 	N 	0.22520 0.68790 0.47710 -0.07600
N 	N 	0.33520 0.74130 0.47860 -0.14100
C 	C 	0.25400 0.70720 0.40640 0.01900
C 	C 	0.24180 0.73120 0.53660 -0.06800
C 	C 	0.30170 0.73660 0.40580 0.10400
C 	C 	0.28250 0.75800 0.54090 0.17800
N 	N 	0.11760 0.50250 0.25710 0.20200
N 	N 	0.31210 0.69860 0.47960 -0.02800
C 	C 	0.71400 0.29060 0.40920 0.06500
N 	N 	0.47090 0.37908 0.23440 -0.18900
Mn	Mn	0.72660 0.26086 0.21896 1.25400
N 	N 	0.71930 0.27446 0.34520 -0.28200
N 	N 	0.79493 0.37976 0.21222 -0.27700
N 	N 	0.60668 0.32526 0.20949 -0.28700
N 	N 	0.34539 0.30559 0.26649 -0.28300
C 	C 	0.54160 0.34639 0.22282 0.17900
C 	C 	0.40650 0.33618 0.25153 0.17500
C 	C 	0.82866 0.44023 0.21940 0.14600
N 	N 	0.83669 0.63945 0.27060 -0.28200
C 	C 	0.85042 0.57490 0.24920 0.15500
C 	C 	0.72700 0.27370 0.53690 0.09700
N 	N 	0.74540 0.23810 0.59379 -0.29700
N 	N 	0.87780 0.50510 0.22180 -0.55700
N 	N 	0.72690 0.32400 0.47840 -0.05700
N 	N 	0.85980 0.51170 0.19430 0.25000
N 	N 	0.77480 0.31210 0.47710 -0.07600
N 	N 	0.66480 0.25870 0.47860 -0.14100
C 	C 	0.74600 0.29280 0.40640 0.01900
C 	C 	0.75820 0.26880 0.53660 -0.06800
C 	C 	0.69830 0.26340 0.40580 0.10400
C 	C 	0.71750 0.24200 0.54090 0.17800
N 	N 	0.88240 0.49750 0.25710 0.20200
N 	N 	0.68790 0.30140 0.47960 -0.02800
