data_crystal

_cell_length_a 12.56500
_cell_length_b 10.59430
_cell_length_c 10.75560
_cell_angle_alpha 90.00000
_cell_angle_beta  90.00000
_cell_angle_gamma 90.00000

_symmetry_space_group_name_	'P 1'
_symmetry_space_group_name_H-M	'P 1'

loop_
_symmetry_equiv_pos_as_xyz
  x,y,z

loop_
_atom_site_label
_atom_site_type_symbol
_atom_site_fract_x
_atom_site_fract_y
_atom_site_fract_z
_atom_site_charge
C 	C 	0.80940 0.01100 0.64780 0.46800
C 	C 	0.71190 0.94730 0.69430 -0.58500
H 	H 	0.66390 0.93690 0.62440 0.18300
H 	H 	0.73210 0.86340 0.72170 0.19900
C 	C 	0.64860 0.00920 0.80020 0.43900
O 	O 	0.82270 0.12520 0.65010 -0.45000
O 	O 	0.87660 0.93660 0.59960 -0.40200
O 	O 	0.65260 0.12610 0.81710 -0.42900
O 	O 	0.58950 0.56030 0.86190 -0.47000
C 	C 	0.69060 0.98900 0.14780 0.65100
C 	C 	0.78810 0.05270 0.19430 -0.85400
H 	H 	0.83610 0.06310 0.12440 0.24000
H 	H 	0.76790 0.13660 0.22170 0.25200
C 	C 	0.85140 0.99080 0.30020 0.61400
O 	O 	0.67730 0.87480 0.15010 -0.55100
O 	O 	0.62340 0.06340 0.09960 -0.57700
O 	O 	0.84740 0.87390 0.31710 -0.48100
O 	O 	0.91050 0.43970 0.36190 -0.46400
C 	C 	0.19060 0.51100 0.35220 0.57300
C 	C 	0.28810 0.44730 0.30570 -0.76000
H 	H 	0.33610 0.43690 0.37560 0.22500
H 	H 	0.26790 0.36340 0.27830 0.20800
C 	C 	0.35140 0.50920 0.19980 0.54300
O 	O 	0.17730 0.62520 0.34990 -0.54000
O 	O 	0.12340 0.43660 0.40040 -0.54900
O 	O 	0.34740 0.62610 0.18290 -0.52000
O 	O 	0.41050 0.06030 0.13810 -0.60400
C 	C 	0.30940 0.48900 0.85220 0.58000
C 	C 	0.21190 0.55270 0.80570 -0.76400
H 	H 	0.16390 0.56310 0.87560 0.23400
H 	H 	0.23210 0.63660 0.77830 0.23400
C 	C 	0.14860 0.49080 0.69980 0.55900
O 	O 	0.32270 0.37480 0.84990 -0.49000
O 	O 	0.37660 0.56340 0.90040 -0.45700
O 	O 	0.15260 0.37390 0.68290 -0.51000
O 	O 	0.08950 0.93970 0.63810 -0.49600
C 	C 	0.19060 0.98900 0.35220 0.68300
C 	C 	0.28810 0.05270 0.30570 -0.90700
H 	H 	0.33610 0.06310 0.37560 0.25900
H 	H 	0.26790 0.13660 0.27830 0.24900
C 	C 	0.35140 0.99080 0.19980 0.64000
O 	O 	0.17730 0.87480 0.34990 -0.56600
O 	O 	0.12340 0.06340 0.40040 -0.59800
O 	O 	0.34740 0.87390 0.18290 -0.54200
O 	O 	0.41050 0.43970 0.13810 -0.56000
C 	C 	0.30940 0.01100 0.85220 0.44300
C 	C 	0.21190 0.94730 0.80570 -0.57300
H 	H 	0.16390 0.93690 0.87560 0.19100
H 	H 	0.23210 0.86340 0.77830 0.18000
C 	C 	0.14860 0.00920 0.69980 0.42900
O 	O 	0.32270 0.12520 0.84990 -0.45600
O 	O 	0.37660 0.93660 0.90040 -0.39400
O 	O 	0.15260 0.12610 0.68290 -0.47900
O 	O 	0.08950 0.56030 0.63810 -0.56300
C 	C 	0.80940 0.48900 0.64780 0.57600
C 	C 	0.71190 0.55270 0.69430 -0.74300
H 	H 	0.66390 0.56310 0.62440 0.22000
H 	H 	0.73210 0.63660 0.72170 0.24400
C 	C 	0.64860 0.49080 0.80020 0.55300
O 	O 	0.82270 0.37480 0.65010 -0.47800
O 	O 	0.87660 0.56340 0.59960 -0.45100
O 	O 	0.65260 0.37390 0.81710 -0.45500
O 	O 	0.58950 0.93970 0.86190 -0.41200
C 	C 	0.69060 0.51100 0.14780 0.57000
C 	C 	0.78810 0.44730 0.19430 -0.74100
H 	H 	0.83610 0.43690 0.12440 0.21300
H 	H 	0.76790 0.36340 0.22170 0.22000
C 	C 	0.85140 0.50920 0.30020 0.53700
O 	O 	0.67730 0.62520 0.15010 -0.53100
O 	O 	0.62340 0.43660 0.09960 -0.54300
O 	O 	0.84740 0.62610 0.31710 -0.46400
O 	O 	0.91050 0.06030 0.36190 -0.50000
Cu	Cu	0.73606 0.25000 0.73097 0.94800
Cu	Cu	0.76394 0.75000 0.23097 0.94200
Cu	Cu	0.26394 0.75000 0.26903 0.93400
Cu	Cu	0.23606 0.25000 0.76903 0.93700
Cu	Cu	0.50000 0.00000 -0.00000 0.85900
Cu	Cu	-0.00000 -0.00000 0.50000 0.85200
Cu	Cu	0.50000 0.50000 -0.00000 0.87000
Cu	Cu	0.00000 0.50000 0.50000 0.86900
Na	Na	0.98030 0.75000 0.67090 0.59500
Na	Na	0.51970 0.25000 0.17090 0.56800
Na	Na	0.01970 0.25000 0.32910 0.54900
Na	Na	0.48030 0.75000 0.82910 0.57700
