data_crystal

_cell_length_a 10.18600
_cell_length_b 10.18600
_cell_length_c 24.36700
_cell_angle_alpha 90.00000
_cell_angle_beta  90.00000
_cell_angle_gamma 90.00000

_symmetry_space_group_name_	'P 1'
_symmetry_space_group_name_H-M	'P 1'

loop_
_symmetry_equiv_pos_as_xyz
  x,y,z

loop_
_atom_site_label
_atom_site_type_symbol
_atom_site_fract_x
_atom_site_fract_y
_atom_site_fract_z
_atom_site_charge
Cd	Cd	0.09765 0.76130 0.00090 1.23500
C 	C 	0.09070 0.50880 0.95610 0.32100
C 	C 	0.08560 0.38050 0.92370 -0.04100
C 	C 	0.07580 0.38090 0.86710 -0.06300
H 	H 	0.07330 0.46220 0.84720 0.08700
C 	C 	0.07350 0.26350 0.84080 0.09300
C 	C 	0.08110 0.14200 0.86820 -0.06200
H 	H 	0.07760 0.06170 0.84760 0.07700
C 	C 	0.08960 0.14200 0.92350 -0.05800
C 	C 	0.09160 0.26310 0.95250 0.00100
H 	H 	0.09350 0.26450 0.99190 0.06100
C 	C 	0.09960 0.01320 0.95390 0.32700
C 	C 	0.85120 0.75430 0.04960 0.40900
C 	C 	0.72090 0.74850 0.07890 -0.12800
C 	C 	0.71660 0.74570 0.13630 -0.00100
H 	H 	0.79670 0.74960 0.15700 0.04700
C 	C 	0.59640 0.74210 0.16300 0.04200
C 	C 	0.47810 0.74450 0.13310 0.00800
H 	H 	0.39520 0.74460 0.15190 0.00400
C 	C 	0.48100 0.74580 0.07550 -0.14800
C 	C 	0.60210 0.74900 0.04900 0.10300
C 	C 	0.35500 0.75310 0.04310 0.38700
H 	H 	0.60430 0.75430 0.01170 -0.03300
O 	O 	0.09850 0.50990 0.00570 -0.36800
O 	O 	0.08740 0.61580 0.92840 -0.37300
O 	O 	0.13770 0.01240 0.00180 -0.34500
O 	O 	0.06600 0.91210 0.92970 -0.42300
O 	O 	0.04580 0.36400 0.75560 -0.18300
O 	O 	0.05880 0.15700 0.75780 -0.16700
O 	O 	0.85280 0.75830 0.00050 -0.44500
O 	O 	0.95420 0.75520 0.07830 -0.46600
O 	O 	0.35770 0.74310 0.99330 -0.41600
O 	O 	0.25060 0.76180 0.06980 -0.49300
O 	O 	0.49350 0.68930 0.24430 -0.13300
O 	O 	0.68310 0.75300 0.24650 -0.10300
N 	N 	0.05980 0.25890 0.78090 0.00200
N 	N 	0.59020 0.73620 0.22070 -0.00300
K 	K 	0.53460 0.82070 0.91110 0.61700
K 	K 	0.79640 0.88834 0.91041 0.63800
Cd	Cd	0.90235 0.23870 0.50090 1.23500
C 	C 	0.90930 0.49120 0.45610 0.31700
C 	C 	0.91440 0.61950 0.42370 -0.04200
C 	C 	0.92420 0.61910 0.36710 -0.06500
H 	H 	0.92670 0.53780 0.34720 0.08600
C 	C 	0.92650 0.73650 0.34080 0.09200
C 	C 	0.91890 0.85800 0.36820 -0.06300
H 	H 	0.92240 0.93830 0.34760 0.07700
C 	C 	0.91040 0.85800 0.42350 -0.05700
C 	C 	0.90840 0.73690 0.45250 0.00000
H 	H 	0.90650 0.73550 0.49190 0.06100
C 	C 	0.90040 0.98680 0.45390 0.32600
C 	C 	0.14880 0.24570 0.54960 0.40900
C 	C 	0.27910 0.25150 0.57890 -0.12900
C 	C 	0.28340 0.25430 0.63630 -0.00000
H 	H 	0.20330 0.25040 0.65700 0.04700
C 	C 	0.40360 0.25790 0.66300 0.04200
C 	C 	0.52190 0.25550 0.63310 0.00800
H 	H 	0.60480 0.25540 0.65190 0.00400
C 	C 	0.51900 0.25420 0.57550 -0.14800
C 	C 	0.39790 0.25100 0.54900 0.10400
C 	C 	0.64500 0.24690 0.54310 0.38900
H 	H 	0.39570 0.24570 0.51170 -0.03300
O 	O 	0.90150 0.49010 0.50570 -0.36500
O 	O 	0.91260 0.38420 0.42840 -0.37300
O 	O 	0.86230 0.98760 0.50180 -0.34400
O 	O 	0.93400 0.08790 0.42970 -0.42400
O 	O 	0.95420 0.63600 0.25560 -0.18300
O 	O 	0.94120 0.84300 0.25780 -0.16700
O 	O 	0.14720 0.24170 0.50050 -0.44600
O 	O 	0.04580 0.24480 0.57830 -0.46600
O 	O 	0.64230 0.25690 0.49330 -0.41800
O 	O 	0.74940 0.23820 0.56980 -0.49300
O 	O 	0.50650 0.31070 0.74430 -0.13300
O 	O 	0.31690 0.24700 0.74650 -0.10300
N 	N 	0.94020 0.74110 0.28090 0.00200
N 	N 	0.40980 0.26380 0.72070 -0.00300
K 	K 	0.46540 0.17930 0.41110 0.61700
K 	K 	0.20360 0.11166 0.41041 0.63900
Cd	Cd	0.23870 0.09765 0.25090 1.23500
C 	C 	0.49120 0.09070 0.20610 0.31700
C 	C 	0.61950 0.08560 0.17370 -0.04200
C 	C 	0.61910 0.07580 0.11710 -0.06500
H 	H 	0.53780 0.07330 0.09720 0.08600
C 	C 	0.73650 0.07350 0.09080 0.09200
C 	C 	0.85800 0.08110 0.11820 -0.06300
H 	H 	0.93830 0.07760 0.09760 0.07700
C 	C 	0.85800 0.08960 0.17350 -0.05800
C 	C 	0.73690 0.09160 0.20250 0.00000
H 	H 	0.73550 0.09350 0.24190 0.06100
C 	C 	0.98680 0.09960 0.20390 0.32700
C 	C 	0.24570 0.85120 0.29960 0.40900
C 	C 	0.25150 0.72090 0.32890 -0.12900
C 	C 	0.25430 0.71660 0.38630 -0.00000
H 	H 	0.25040 0.79670 0.40700 0.04700
C 	C 	0.25790 0.59640 0.41300 0.04200
C 	C 	0.25550 0.47810 0.38310 0.00800
H 	H 	0.25540 0.39520 0.40190 0.00400
C 	C 	0.25420 0.48100 0.32550 -0.14800
C 	C 	0.25100 0.60210 0.29900 0.10400
C 	C 	0.24690 0.35500 0.29310 0.38900
H 	H 	0.24570 0.60430 0.26170 -0.03300
O 	O 	0.49010 0.09850 0.25570 -0.36500
O 	O 	0.38420 0.08740 0.17840 -0.37300
O 	O 	0.98760 0.13770 0.25180 -0.34400
O 	O 	0.08790 0.06600 0.17970 -0.42500
O 	O 	0.63600 0.04580 0.00560 -0.18300
O 	O 	0.84300 0.05880 0.00780 -0.16700
O 	O 	0.24170 0.85280 0.25050 -0.44600
O 	O 	0.24480 0.95420 0.32830 -0.46700
O 	O 	0.25690 0.35770 0.24330 -0.41800
O 	O 	0.23820 0.25060 0.31980 -0.49300
O 	O 	0.31070 0.49350 0.49430 -0.13300
O 	O 	0.24700 0.68310 0.49650 -0.10300
N 	N 	0.74110 0.05980 0.03090 0.00200
N 	N 	0.26380 0.59020 0.47070 -0.00300
K 	K 	0.17930 0.53460 0.16110 0.61700
K 	K 	0.11166 0.79640 0.16041 0.63800
Cd	Cd	0.76130 0.90235 0.75090 1.23500
C 	C 	0.50880 0.90930 0.70610 0.31700
C 	C 	0.38050 0.91440 0.67370 -0.04200
C 	C 	0.38090 0.92420 0.61710 -0.06500
H 	H 	0.46220 0.92670 0.59720 0.08600
C 	C 	0.26350 0.92650 0.59080 0.09200
C 	C 	0.14200 0.91890 0.61820 -0.06300
H 	H 	0.06170 0.92240 0.59760 0.07700
C 	C 	0.14200 0.91040 0.67350 -0.05800
C 	C 	0.26310 0.90840 0.70250 0.00000
H 	H 	0.26450 0.90650 0.74190 0.06100
C 	C 	0.01320 0.90040 0.70390 0.32700
C 	C 	0.75430 0.14880 0.79960 0.40900
C 	C 	0.74850 0.27910 0.82890 -0.12900
C 	C 	0.74570 0.28340 0.88630 -0.00000
H 	H 	0.74960 0.20330 0.90700 0.04600
C 	C 	0.74210 0.40360 0.91300 0.04200
C 	C 	0.74450 0.52190 0.88310 0.00800
H 	H 	0.74460 0.60480 0.90190 0.00400
C 	C 	0.74580 0.51900 0.82550 -0.14800
C 	C 	0.74900 0.39790 0.79900 0.10400
C 	C 	0.75310 0.64500 0.79310 0.38900
H 	H 	0.75430 0.39570 0.76170 -0.03300
O 	O 	0.50990 0.90150 0.75570 -0.36500
O 	O 	0.61580 0.91260 0.67840 -0.37300
O 	O 	0.01240 0.86230 0.75180 -0.34300
O 	O 	0.91210 0.93400 0.67970 -0.42500
O 	O 	0.36400 0.95420 0.50560 -0.18300
O 	O 	0.15700 0.94120 0.50780 -0.16700
O 	O 	0.75830 0.14720 0.75050 -0.44600
O 	O 	0.75520 0.04580 0.82830 -0.46700
O 	O 	0.74310 0.64230 0.74330 -0.41800
O 	O 	0.76180 0.74940 0.81980 -0.49300
O 	O 	0.68930 0.50650 0.99430 -0.13300
O 	O 	0.75300 0.31690 0.99650 -0.10400
N 	N 	0.25890 0.94020 0.53090 0.00200
N 	N 	0.73620 0.40980 0.97070 -0.00300
K 	K 	0.82070 0.46540 0.66110 0.61700
K 	K 	0.88834 0.20360 0.66041 0.63800
