data_crystal

_cell_length_a 5.81630
_cell_length_b 13.90640
_cell_length_c 8.59490
_cell_angle_alpha 90.00000
_cell_angle_beta  94.75800
_cell_angle_gamma 90.00000

_symmetry_space_group_name_	'P 1'
_symmetry_space_group_name_H-M	'P 1'

loop_
_symmetry_equiv_pos_as_xyz
  x,y,z

loop_
_atom_site_label
_atom_site_type_symbol
_atom_site_fract_x
_atom_site_fract_y
_atom_site_fract_z
_atom_site_charge
U 	U 	0.01917 0.50916 0.65661 0.00900
O 	O 	0.30710 0.50780 0.88520 -0.19200
O 	O 	0.31930 0.62780 0.72180 -0.17500
O 	O 	0.02170 0.63550 0.45180 -0.18300
O 	O 	0.74920 0.52760 0.42360 -0.17100
O 	O 	0.27510 0.88470 0.37440 -0.17100
O 	O 	0.06280 0.87960 0.15260 -0.19800
C 	C 	0.49330 0.65430 0.98140 -0.09100
H 	H 	0.60520 0.69720 0.93280 0.08300
C 	C 	0.62250 0.59580 0.11180 -0.08300
H 	H 	0.51510 0.54940 0.15480 0.09000
H 	H 	0.74780 0.55880 0.06840 0.08000
C 	C 	0.72480 0.66120 0.24250 -0.08000
H 	H 	0.84210 0.70410 0.19960 0.07500
C 	C 	0.53750 0.72430 0.30840 -0.09100
H 	H 	0.42570 0.68300 0.35790 0.09900
H 	H 	0.60950 0.76830 0.38890 0.09800
C 	C 	0.41190 0.78300 0.17630 -0.08800
H 	H 	0.53070 0.82300 0.12890 0.09200
C 	C 	0.30480 0.71660 0.04780 -0.07300
H 	H 	0.22600 0.75570 0.96310 0.08000
H 	H 	0.18840 0.67460 0.09100 0.07000
C 	C 	0.37420 0.59180 0.85710 0.27500
C 	C 	0.84050 0.60440 0.37780 0.26600
C 	C 	0.23760 0.85140 0.23640 0.27500
U 	U 	0.98083 0.00916 0.34339 0.00900
O 	O 	0.69290 0.00780 0.11480 -0.19100
O 	O 	0.68070 0.12780 0.27820 -0.17400
O 	O 	0.97830 0.13550 0.54820 -0.18300
O 	O 	0.25080 0.02760 0.57640 -0.17000
O 	O 	0.72490 0.38470 0.62560 -0.17000
O 	O 	0.93720 0.37960 0.84740 -0.19700
C 	C 	0.50670 0.15430 0.01860 -0.09200
H 	H 	0.39480 0.19720 0.06720 0.08300
C 	C 	0.37750 0.09580 0.88820 -0.08300
H 	H 	0.48490 0.04940 0.84520 0.09100
H 	H 	0.25220 0.05880 0.93160 0.08000
C 	C 	0.27520 0.16120 0.75750 -0.07900
H 	H 	0.15790 0.20410 0.80040 0.07600
C 	C 	0.46250 0.22430 0.69160 -0.09100
H 	H 	0.57430 0.18300 0.64210 0.10000
H 	H 	0.39050 0.26830 0.61110 0.09800
C 	C 	0.58810 0.28300 0.82370 -0.08800
H 	H 	0.46930 0.32300 0.87110 0.09200
C 	C 	0.69520 0.21660 0.95220 -0.07300
H 	H 	0.77400 0.25570 0.03690 0.08000
H 	H 	0.81160 0.17460 0.90900 0.07000
C 	C 	0.62580 0.09180 0.14290 0.27500
C 	C 	0.15950 0.10440 0.62220 0.26600
C 	C 	0.76240 0.35140 0.76360 0.27500
