data_crystal

_cell_length_a 15.82740
_cell_length_b 9.62210
_cell_length_c 20.20220
_cell_angle_alpha 90.00000
_cell_angle_beta  96.85500
_cell_angle_gamma 90.00000

_symmetry_space_group_name_	'P 1'
_symmetry_space_group_name_H-M	'P 1'

loop_
_symmetry_equiv_pos_as_xyz
  x,y,z

loop_
_atom_site_label
_atom_site_type_symbol
_atom_site_fract_x
_atom_site_fract_y
_atom_site_fract_z
_atom_site_charge
U 	U 	0.28412 0.53175 0.49231 -0.00200
U 	U 	0.11439 0.78330 0.72436 0.01500
O 	O 	0.34840 0.72410 0.56120 -0.16900
O 	O 	0.38410 0.51500 0.59540 -0.19500
O 	O 	0.24740 0.70320 0.67460 -0.17700
O 	O 	0.26420 0.84570 0.76000 -0.18800
O 	O 	0.80920 0.55980 0.59310 -0.15600
O 	O 	0.86600 0.44020 0.68070 -0.14600
O 	O 	0.98370 0.82260 0.78080 -0.15500
O 	O 	0.96710 0.70540 0.68720 -0.16000
C 	C 	0.56940 0.75790 0.72860 0.04000
C 	C 	0.51910 0.69960 0.67450 -0.06000
H 	H 	0.54620 0.65560 0.64050 0.07300
C 	C 	0.43010 0.70340 0.66820 -0.01000
C 	C 	0.39010 0.76720 0.71880 -0.04200
C 	C 	0.43940 0.82550 0.77350 0.00900
H 	H 	0.41250 0.86730 0.80810 0.05700
C 	C 	0.52670 0.82290 0.77770 -0.07500
H 	H 	0.55920 0.86590 0.81470 0.08500
C 	C 	0.38390 0.64570 0.60560 0.27000
C 	C 	0.29490 0.77200 0.71740 0.27900
C 	C 	0.66360 0.75300 0.73410 0.03200
C 	C 	0.70360 0.65690 0.69690 -0.04700
H 	H 	0.66970 0.59320 0.66930 0.07400
C 	C 	0.79210 0.65120 0.69900 0.00400
C 	C 	0.84210 0.74550 0.74040 -0.02100
C 	C 	0.80300 0.83970 0.77890 0.00200
H 	H 	0.83690 0.90110 0.80780 0.08400
C 	C 	0.71630 0.84530 0.77590 -0.05300
H 	H 	0.69090 0.91170 0.80210 0.08200
C 	C 	0.82640 0.54230 0.65680 0.27200
C 	C 	0.93650 0.75660 0.73650 0.27500
U 	U 	0.71588 0.03175 0.00769 -0.00100
U 	U 	0.88561 0.28330 0.77564 0.01600
O 	O 	0.65160 0.22410 0.93880 -0.16800
O 	O 	0.61590 0.01500 0.90460 -0.19400
O 	O 	0.75260 0.20320 0.82540 -0.17700
O 	O 	0.73580 0.34570 0.74000 -0.18800
O 	O 	0.19080 0.05980 0.90690 -0.15600
O 	O 	0.13400 0.94020 0.81930 -0.14500
O 	O 	0.01630 0.32260 0.71920 -0.15500
O 	O 	0.03290 0.20540 0.81280 -0.16000
C 	C 	0.43060 0.25790 0.77140 0.04000
C 	C 	0.48090 0.19960 0.82550 -0.06000
H 	H 	0.45380 0.15560 0.85950 0.07300
C 	C 	0.56990 0.20340 0.83180 -0.01000
C 	C 	0.60990 0.26720 0.78120 -0.04200
C 	C 	0.56060 0.32550 0.72650 0.00900
H 	H 	0.58750 0.36730 0.69190 0.05700
C 	C 	0.47330 0.32290 0.72230 -0.07500
H 	H 	0.44080 0.36590 0.68530 0.08500
C 	C 	0.61610 0.14570 0.89440 0.27000
C 	C 	0.70510 0.27200 0.78260 0.27900
C 	C 	0.33640 0.25300 0.76590 0.03200
C 	C 	0.29640 0.15690 0.80310 -0.04700
H 	H 	0.33030 0.09320 0.83070 0.07400
C 	C 	0.20790 0.15120 0.80100 0.00400
C 	C 	0.15790 0.24550 0.75960 -0.02100
C 	C 	0.19700 0.33970 0.72110 0.00200
H 	H 	0.16310 0.40110 0.69220 0.08400
C 	C 	0.28370 0.34530 0.72410 -0.05300
H 	H 	0.30910 0.41170 0.69790 0.08200
C 	C 	0.17360 0.04230 0.84320 0.27100
C 	C 	0.06350 0.25660 0.76350 0.27500
U 	U 	0.71588 0.46825 0.50769 -0.00100
U 	U 	0.88561 0.21670 0.27564 0.01600
O 	O 	0.65160 0.27590 0.43880 -0.16800
O 	O 	0.61590 0.48500 0.40460 -0.19400
O 	O 	0.75260 0.29680 0.32540 -0.17700
O 	O 	0.73580 0.15430 0.24000 -0.18800
O 	O 	0.19080 0.44020 0.40690 -0.15600
O 	O 	0.13400 0.55980 0.31930 -0.14600
O 	O 	0.01630 0.17740 0.21920 -0.15500
O 	O 	0.03290 0.29460 0.31280 -0.16000
C 	C 	0.43060 0.24210 0.27140 0.04000
C 	C 	0.48090 0.30040 0.32550 -0.06000
H 	H 	0.45380 0.34440 0.35950 0.07300
C 	C 	0.56990 0.29660 0.33180 -0.01000
C 	C 	0.60990 0.23280 0.28120 -0.04200
C 	C 	0.56060 0.17450 0.22650 0.00900
H 	H 	0.58750 0.13270 0.19190 0.05700
C 	C 	0.47330 0.17710 0.22230 -0.07500
H 	H 	0.44080 0.13410 0.18530 0.08500
C 	C 	0.61610 0.35430 0.39440 0.27000
C 	C 	0.70510 0.22800 0.28260 0.27900
C 	C 	0.33640 0.24700 0.26590 0.03200
C 	C 	0.29640 0.34310 0.30310 -0.04700
H 	H 	0.33030 0.40680 0.33070 0.07400
C 	C 	0.20790 0.34880 0.30100 0.00400
C 	C 	0.15790 0.25450 0.25960 -0.02100
C 	C 	0.19700 0.16030 0.22110 0.00200
H 	H 	0.16310 0.09890 0.19220 0.08400
C 	C 	0.28370 0.15470 0.22410 -0.05300
H 	H 	0.30910 0.08830 0.19790 0.08200
C 	C 	0.17360 0.45770 0.34320 0.27200
C 	C 	0.06350 0.24340 0.26350 0.27500
U 	U 	0.28412 0.96825 0.99231 -0.00100
U 	U 	0.11439 0.71670 0.22436 0.01600
O 	O 	0.34840 0.77590 0.06120 -0.16800
O 	O 	0.38410 0.98500 0.09540 -0.19400
O 	O 	0.24740 0.79680 0.17460 -0.17700
O 	O 	0.26420 0.65430 0.26000 -0.18800
O 	O 	0.80920 0.94020 0.09310 -0.15600
O 	O 	0.86600 0.05980 0.18070 -0.14500
O 	O 	0.98370 0.67740 0.28080 -0.15500
O 	O 	0.96710 0.79460 0.18720 -0.16000
C 	C 	0.56940 0.74210 0.22860 0.04000
C 	C 	0.51910 0.80040 0.17450 -0.06000
H 	H 	0.54620 0.84440 0.14050 0.07300
C 	C 	0.43010 0.79660 0.16820 -0.01000
C 	C 	0.39010 0.73280 0.21880 -0.04200
C 	C 	0.43940 0.67450 0.27350 0.00900
H 	H 	0.41250 0.63270 0.30810 0.05700
C 	C 	0.52670 0.67710 0.27770 -0.07500
H 	H 	0.55920 0.63410 0.31470 0.08500
C 	C 	0.38390 0.85430 0.10560 0.27000
C 	C 	0.29490 0.72800 0.21740 0.27900
C 	C 	0.66360 0.74700 0.23410 0.03200
C 	C 	0.70360 0.84310 0.19690 -0.04700
H 	H 	0.66970 0.90680 0.16930 0.07400
C 	C 	0.79210 0.84880 0.19900 0.00400
C 	C 	0.84210 0.75450 0.24040 -0.02100
C 	C 	0.80300 0.66030 0.27890 0.00200
H 	H 	0.83690 0.59890 0.30780 0.08400
C 	C 	0.71630 0.65470 0.27590 -0.05300
H 	H 	0.69090 0.58830 0.30210 0.08200
C 	C 	0.82640 0.95770 0.15680 0.27100
C 	C 	0.93650 0.74340 0.23650 0.27500
