data_crystal

_cell_length_a 15.70720
_cell_length_b 10.71300
_cell_length_c 24.46180
_cell_angle_alpha 90.00000
_cell_angle_beta  94.28000
_cell_angle_gamma 90.00000

_symmetry_space_group_name_	'P 1'
_symmetry_space_group_name_H-M	'P 1'

loop_
_symmetry_equiv_pos_as_xyz
  x,y,z

loop_
_atom_site_label
_atom_site_type_symbol
_atom_site_fract_x
_atom_site_fract_y
_atom_site_fract_z
_atom_site_charge
Zn	Zn	0.14165 0.40920 0.06848 1.22400
O 	O 	0.54870 0.00080 0.09660 -0.46700
O 	O 	0.22020 0.32840 0.12190 -0.45300
N 	N 	0.17570 0.46520 0.51080 -0.24500
N 	N 	0.24890 0.04930 0.29640 -0.11100
C 	C 	0.31220 0.01450 0.20690 0.06700
O 	O 	0.30780 0.29870 0.05800 -0.30100
C 	C 	0.26020 0.39500 0.43980 -0.10900
H 	H 	0.30963 0.40479 0.42011 0.06600
C 	C 	0.39690 0.11350 0.12200 -0.00300
H 	H 	0.42626 0.14789 0.09292 0.06200
C 	C 	0.32010 0.16630 0.13540 -0.05700
C 	C 	0.21920 0.21270 0.38140 0.03700
C 	C 	0.38800 0.96300 0.19310 -0.07000
H 	H 	0.41110 0.89330 0.21318 0.07600
C 	C 	0.27690 0.11680 0.17770 -0.06500
H 	H 	0.22409 0.15160 0.18676 0.07100
C 	C 	0.15620 0.12690 0.36100 -0.11200
H 	H 	0.10239 0.12400 0.37627 0.07200
C 	C 	0.12020 0.36900 0.49790 0.04600
H 	H 	0.07182 0.35913 0.51860 0.01300
C 	C 	0.20270 0.29930 0.42540 0.04900
C 	C 	0.26330 0.95580 0.25280 -0.12400
H 	H 	0.20758 0.92378 0.23715 0.07200
H 	H 	0.29629 0.88449 0.26912 0.08600
C 	C 	0.31000 0.13050 0.31420 0.04800
H 	H 	0.36285 0.13245 0.29776 0.02500
C 	C 	0.51240 0.95130 0.13500 0.35800
C 	C 	0.28060 0.27170 0.10210 0.33100
C 	C 	0.43080 0.01100 0.15070 -0.05700
C 	C 	0.17320 0.04750 0.31900 0.05700
H 	H 	0.13057 0.99011 0.30550 0.01900
C 	C 	0.13210 0.28590 0.45600 -0.10300
H 	H 	0.09240 0.22027 0.44809 0.06400
C 	C 	0.29600 0.20930 0.35560 -0.12000
H 	H 	0.34034 0.26522 0.36792 0.06900
O 	O 	0.53660 0.85800 0.15770 -0.32000
C 	C 	0.24650 0.47480 0.48180 0.06000
H 	H 	0.28713 0.53852 0.49104 0.01400
O 	O 	0.09140 0.27580 0.01820 -0.39200
H 	H 	0.07200 0.18700 0.03400 0.13000
Zn	Zn	0.64165 0.90920 0.06848 1.22200
O 	O 	0.04870 0.50080 0.09660 -0.47200
O 	O 	0.72020 0.82840 0.12190 -0.45500
N 	N 	0.67570 0.96520 0.51080 -0.24500
N 	N 	0.74890 0.54930 0.29640 -0.11200
C 	C 	0.81220 0.51450 0.20690 0.05600
O 	O 	0.80780 0.79870 0.05800 -0.30400
C 	C 	0.76020 0.89500 0.43980 -0.10900
H 	H 	0.80963 0.90479 0.42011 0.06600
C 	C 	0.89690 0.61350 0.12200 0.00400
H 	H 	0.92626 0.64789 0.09292 0.05900
C 	C 	0.82010 0.66630 0.13540 -0.06300
C 	C 	0.71920 0.71270 0.38140 0.03600
C 	C 	0.88800 0.46300 0.19310 -0.05600
H 	H 	0.91110 0.39330 0.21318 0.07100
C 	C 	0.77690 0.61680 0.17770 -0.05800
H 	H 	0.72409 0.65160 0.18676 0.06900
C 	C 	0.65620 0.62690 0.36100 -0.11000
H 	H 	0.60239 0.62400 0.37627 0.07100
C 	C 	0.62020 0.86900 0.49790 0.04600
H 	H 	0.57182 0.85913 0.51860 0.01300
C 	C 	0.70270 0.79930 0.42540 0.04900
C 	C 	0.76330 0.45580 0.25280 -0.11600
H 	H 	0.70758 0.42378 0.23715 0.07100
H 	H 	0.79629 0.38449 0.26912 0.08500
C 	C 	0.81000 0.63050 0.31420 0.04800
H 	H 	0.86285 0.63245 0.29776 0.02400
C 	C 	0.01240 0.45130 0.13500 0.36600
C 	C 	0.78060 0.77170 0.10210 0.33300
C 	C 	0.93080 0.51100 0.15070 -0.06900
C 	C 	0.67320 0.54750 0.31900 0.05400
H 	H 	0.63057 0.49011 0.30550 0.02100
C 	C 	0.63210 0.78590 0.45600 -0.10300
H 	H 	0.59240 0.72027 0.44809 0.06400
C 	C 	0.79600 0.70930 0.35560 -0.12000
H 	H 	0.84034 0.76522 0.36792 0.06800
O 	O 	0.03660 0.35800 0.15770 -0.32200
C 	C 	0.74650 0.97480 0.48180 0.06000
H 	H 	0.78713 0.03852 0.49104 0.01400
O 	O 	0.59140 0.77580 0.01820 -0.39300
H 	H 	0.57200 0.68700 0.03400 0.13000
Zn	Zn	0.14165 0.59080 0.56848 1.22300
O 	O 	0.54870 0.99920 0.59660 -0.47000
O 	O 	0.22020 0.67160 0.62190 -0.45400
N 	N 	0.17570 0.53480 0.01080 -0.24500
N 	N 	0.24890 0.95070 0.79640 -0.11100
C 	C 	0.31220 0.98550 0.70690 0.06500
O 	O 	0.30780 0.70130 0.55800 -0.30200
C 	C 	0.26020 0.60500 0.93980 -0.11000
H 	H 	0.30963 0.59521 0.92011 0.06600
C 	C 	0.39690 0.88650 0.62200 -0.00100
H 	H 	0.42626 0.85211 0.59292 0.06100
C 	C 	0.32010 0.83370 0.63540 -0.05900
C 	C 	0.21920 0.78730 0.88140 0.03700
C 	C 	0.38800 0.03700 0.69310 -0.06600
H 	H 	0.41110 0.10670 0.71318 0.07400
C 	C 	0.27690 0.88320 0.67770 -0.06300
H 	H 	0.22409 0.84840 0.68676 0.07100
C 	C 	0.15620 0.87310 0.86100 -0.11200
H 	H 	0.10239 0.87600 0.87627 0.07200
C 	C 	0.12020 0.63100 0.99790 0.04800
H 	H 	0.07182 0.64087 0.01860 0.01200
C 	C 	0.20270 0.70070 0.92540 0.04900
C 	C 	0.26330 0.04420 0.75280 -0.12300
H 	H 	0.20758 0.07622 0.73715 0.07200
H 	H 	0.29629 0.11551 0.76912 0.08600
C 	C 	0.31000 0.86950 0.81420 0.04800
H 	H 	0.36285 0.86755 0.79776 0.02500
C 	C 	0.51240 0.04870 0.63500 0.36100
C 	C 	0.28060 0.72830 0.60210 0.33100
C 	C 	0.43080 0.98900 0.65070 -0.06100
C 	C 	0.17320 0.95250 0.81900 0.05900
H 	H 	0.13057 0.00989 0.80550 0.01800
C 	C 	0.13210 0.71410 0.95600 -0.10400
H 	H 	0.09240 0.77973 0.94809 0.06500
C 	C 	0.29600 0.79070 0.85560 -0.12100
H 	H 	0.34034 0.73478 0.86792 0.06900
O 	O 	0.53660 0.14200 0.65770 -0.32100
C 	C 	0.24650 0.52520 0.98180 0.06100
H 	H 	0.28713 0.46148 0.99104 0.01400
O 	O 	0.09140 0.72420 0.51820 -0.39200
H 	H 	0.07200 0.81300 0.53400 0.13000
Zn	Zn	0.64165 0.09080 0.56848 1.22300
O 	O 	0.04870 0.49920 0.59660 -0.47200
O 	O 	0.72020 0.17160 0.62190 -0.45400
N 	N 	0.67570 0.03480 0.01080 -0.24000
N 	N 	0.74890 0.45070 0.79640 -0.11200
C 	C 	0.81220 0.48550 0.70690 0.05600
O 	O 	0.80780 0.20130 0.55800 -0.30300
C 	C 	0.76020 0.10500 0.93980 -0.10400
H 	H 	0.80963 0.09521 0.92011 0.06400
C 	C 	0.89690 0.38650 0.62200 0.00400
H 	H 	0.92626 0.35211 0.59292 0.06000
C 	C 	0.82010 0.33370 0.63540 -0.06300
C 	C 	0.71920 0.28730 0.88140 0.03800
C 	C 	0.88800 0.53700 0.69310 -0.05600
H 	H 	0.91110 0.60670 0.71318 0.07100
C 	C 	0.77690 0.38320 0.67770 -0.05800
H 	H 	0.72409 0.34840 0.68676 0.06900
C 	C 	0.65620 0.37310 0.86100 -0.11100
H 	H 	0.60239 0.37600 0.87627 0.07100
C 	C 	0.62020 0.13100 0.99790 0.03800
H 	H 	0.57182 0.14087 0.01860 0.01700
C 	C 	0.70270 0.20070 0.92540 0.04500
C 	C 	0.76330 0.54420 0.75280 -0.11600
H 	H 	0.70758 0.57622 0.73715 0.07100
H 	H 	0.79629 0.61551 0.76912 0.08500
C 	C 	0.81000 0.36950 0.81420 0.04800
H 	H 	0.86285 0.36755 0.79776 0.02400
C 	C 	0.01240 0.54870 0.63500 0.36600
C 	C 	0.78060 0.22830 0.60210 0.33300
C 	C 	0.93080 0.48900 0.65070 -0.06900
C 	C 	0.67320 0.45250 0.81900 0.05500
H 	H 	0.63057 0.50989 0.80550 0.02100
C 	C 	0.63210 0.21410 0.95600 -0.09800
H 	H 	0.59240 0.27973 0.94809 0.06200
C 	C 	0.79600 0.29070 0.85560 -0.12100
H 	H 	0.84034 0.23478 0.86792 0.06900
O 	O 	0.03660 0.64200 0.65770 -0.32200
C 	C 	0.74650 0.02520 0.98180 0.05100
H 	H 	0.78713 0.96148 0.99104 0.01900
O 	O 	0.59140 0.22420 0.51820 -0.39200
H 	H 	0.57200 0.31300 0.53400 0.13000
Zn	Zn	0.85835 0.40920 0.43152 1.22300
O 	O 	0.45130 0.00080 0.40340 -0.47000
O 	O 	0.77980 0.32840 0.37810 -0.45400
N 	N 	0.82430 0.46520 0.98920 -0.24500
N 	N 	0.75110 0.04930 0.20360 -0.11100
C 	C 	0.68780 0.01450 0.29310 0.06500
O 	O 	0.69220 0.29870 0.44200 -0.30200
C 	C 	0.73980 0.39500 0.06020 -0.11000
H 	H 	0.69037 0.40479 0.07989 0.06600
C 	C 	0.60310 0.11350 0.37800 -0.00100
H 	H 	0.57374 0.14789 0.40708 0.06100
C 	C 	0.67990 0.16630 0.36460 -0.05900
C 	C 	0.78080 0.21270 0.11860 0.03700
C 	C 	0.61200 0.96300 0.30690 -0.06600
H 	H 	0.58890 0.89330 0.28682 0.07400
C 	C 	0.72310 0.11680 0.32230 -0.06300
H 	H 	0.77591 0.15160 0.31324 0.07100
C 	C 	0.84380 0.12690 0.13900 -0.11200
H 	H 	0.89761 0.12400 0.12373 0.07200
C 	C 	0.87980 0.36900 0.00210 0.04800
H 	H 	0.92818 0.35913 0.98140 0.01200
C 	C 	0.79730 0.29930 0.07460 0.04900
C 	C 	0.73670 0.95580 0.24720 -0.12300
H 	H 	0.79242 0.92378 0.26285 0.07200
H 	H 	0.70371 0.88449 0.23088 0.08600
C 	C 	0.69000 0.13050 0.18580 0.04800
H 	H 	0.63715 0.13245 0.20224 0.02500
C 	C 	0.48760 0.95130 0.36500 0.36100
C 	C 	0.71940 0.27170 0.39790 0.33100
C 	C 	0.56920 0.01100 0.34930 -0.06100
C 	C 	0.82680 0.04750 0.18100 0.05900
H 	H 	0.86943 0.99011 0.19450 0.01800
C 	C 	0.86790 0.28590 0.04400 -0.10400
H 	H 	0.90760 0.22027 0.05191 0.06500
C 	C 	0.70400 0.20930 0.14440 -0.12100
H 	H 	0.65966 0.26522 0.13208 0.06900
O 	O 	0.46340 0.85800 0.34230 -0.32100
C 	C 	0.75350 0.47480 0.01820 0.06100
H 	H 	0.71287 0.53852 0.00896 0.01400
O 	O 	0.90860 0.27580 0.48180 -0.39200
H 	H 	0.92800 0.18700 0.46600 0.13000
Zn	Zn	0.35835 0.90920 0.43152 1.22300
O 	O 	0.95130 0.50080 0.40340 -0.47200
O 	O 	0.27980 0.82840 0.37810 -0.45400
N 	N 	0.32430 0.96520 0.98920 -0.24000
N 	N 	0.25110 0.54930 0.20360 -0.11200
C 	C 	0.18780 0.51450 0.29310 0.05600
O 	O 	0.19220 0.79870 0.44200 -0.30300
C 	C 	0.23980 0.89500 0.06020 -0.10400
H 	H 	0.19037 0.90479 0.07989 0.06400
C 	C 	0.10310 0.61350 0.37800 0.00400
H 	H 	0.07374 0.64789 0.40708 0.06000
C 	C 	0.17990 0.66630 0.36460 -0.06300
C 	C 	0.28080 0.71270 0.11860 0.03800
C 	C 	0.11200 0.46300 0.30690 -0.05600
H 	H 	0.08890 0.39330 0.28682 0.07100
C 	C 	0.22310 0.61680 0.32230 -0.05800
H 	H 	0.27591 0.65160 0.31324 0.06900
C 	C 	0.34380 0.62690 0.13900 -0.11100
H 	H 	0.39761 0.62400 0.12373 0.07100
C 	C 	0.37980 0.86900 0.00210 0.03800
H 	H 	0.42818 0.85913 0.98140 0.01700
C 	C 	0.29730 0.79930 0.07460 0.04500
C 	C 	0.23670 0.45580 0.24720 -0.11600
H 	H 	0.29242 0.42378 0.26285 0.07100
H 	H 	0.20371 0.38449 0.23088 0.08500
C 	C 	0.19000 0.63050 0.18580 0.04800
H 	H 	0.13715 0.63245 0.20224 0.02400
C 	C 	0.98760 0.45130 0.36500 0.36600
C 	C 	0.21940 0.77170 0.39790 0.33300
C 	C 	0.06920 0.51100 0.34930 -0.06900
C 	C 	0.32680 0.54750 0.18100 0.05500
H 	H 	0.36943 0.49011 0.19450 0.02100
C 	C 	0.36790 0.78590 0.04400 -0.09800
H 	H 	0.40760 0.72027 0.05191 0.06200
C 	C 	0.20400 0.70930 0.14440 -0.12100
H 	H 	0.15966 0.76522 0.13208 0.06900
O 	O 	0.96340 0.35800 0.34230 -0.32200
C 	C 	0.25350 0.97480 0.01820 0.05100
H 	H 	0.21287 0.03852 0.00896 0.01900
O 	O 	0.40860 0.77580 0.48180 -0.39200
H 	H 	0.42800 0.68700 0.46600 0.13000
Zn	Zn	0.85835 0.59080 0.93152 1.22300
O 	O 	0.45130 0.99920 0.90340 -0.46800
O 	O 	0.77980 0.67160 0.87810 -0.45300
N 	N 	0.82430 0.53480 0.48920 -0.24500
N 	N 	0.75110 0.95070 0.70360 -0.11100
C 	C 	0.68780 0.98550 0.79310 0.06700
O 	O 	0.69220 0.70130 0.94200 -0.30100
C 	C 	0.73980 0.60500 0.56020 -0.10900
H 	H 	0.69037 0.59521 0.57989 0.06600
C 	C 	0.60310 0.88650 0.87800 -0.00300
H 	H 	0.57374 0.85211 0.90708 0.06200
C 	C 	0.67990 0.83370 0.86460 -0.05700
C 	C 	0.78080 0.78730 0.61860 0.03700
C 	C 	0.61200 0.03700 0.80690 -0.07000
H 	H 	0.58890 0.10670 0.78682 0.07600
C 	C 	0.72310 0.88320 0.82230 -0.06500
H 	H 	0.77591 0.84840 0.81324 0.07100
C 	C 	0.84380 0.87310 0.63900 -0.11200
H 	H 	0.89761 0.87600 0.62373 0.07200
C 	C 	0.87980 0.63100 0.50210 0.04600
H 	H 	0.92818 0.64087 0.48140 0.01300
C 	C 	0.79730 0.70070 0.57460 0.04900
C 	C 	0.73670 0.04420 0.74720 -0.12400
H 	H 	0.79242 0.07622 0.76285 0.07200
H 	H 	0.70371 0.11551 0.73088 0.08600
C 	C 	0.69000 0.86950 0.68580 0.04800
H 	H 	0.63715 0.86755 0.70224 0.02500
C 	C 	0.48760 0.04870 0.86500 0.35800
C 	C 	0.71940 0.72830 0.89790 0.33100
C 	C 	0.56920 0.98900 0.84930 -0.05700
C 	C 	0.82680 0.95250 0.68100 0.05700
H 	H 	0.86943 0.00989 0.69450 0.01900
C 	C 	0.86790 0.71410 0.54400 -0.10300
H 	H 	0.90760 0.77973 0.55191 0.06400
C 	C 	0.70400 0.79070 0.64440 -0.12000
H 	H 	0.65966 0.73478 0.63208 0.06900
O 	O 	0.46340 0.14200 0.84230 -0.32000
C 	C 	0.75350 0.52520 0.51820 0.06000
H 	H 	0.71287 0.46148 0.50896 0.01400
O 	O 	0.90860 0.72420 0.98180 -0.39200
H 	H 	0.92800 0.81300 0.96600 0.13000
Zn	Zn	0.35835 0.09080 0.93152 1.22200
O 	O 	0.95130 0.49920 0.90340 -0.47200
O 	O 	0.27980 0.17160 0.87810 -0.45500
N 	N 	0.32430 0.03480 0.48920 -0.24500
N 	N 	0.25110 0.45070 0.70360 -0.11200
C 	C 	0.18780 0.48550 0.79310 0.05600
O 	O 	0.19220 0.20130 0.94200 -0.30400
C 	C 	0.23980 0.10500 0.56020 -0.10900
H 	H 	0.19037 0.09521 0.57989 0.06600
C 	C 	0.10310 0.38650 0.87800 0.00400
H 	H 	0.07374 0.35211 0.90708 0.05900
C 	C 	0.17990 0.33370 0.86460 -0.06300
C 	C 	0.28080 0.28730 0.61860 0.03600
C 	C 	0.11200 0.53700 0.80690 -0.05600
H 	H 	0.08890 0.60670 0.78682 0.07100
C 	C 	0.22310 0.38320 0.82230 -0.05800
H 	H 	0.27591 0.34840 0.81324 0.06900
C 	C 	0.34380 0.37310 0.63900 -0.11000
H 	H 	0.39761 0.37600 0.62373 0.07100
C 	C 	0.37980 0.13100 0.50210 0.04600
H 	H 	0.42818 0.14087 0.48140 0.01300
C 	C 	0.29730 0.20070 0.57460 0.04900
C 	C 	0.23670 0.54420 0.74720 -0.11600
H 	H 	0.29242 0.57622 0.76285 0.07100
H 	H 	0.20371 0.61551 0.73088 0.08500
C 	C 	0.19000 0.36950 0.68580 0.04800
H 	H 	0.13715 0.36755 0.70224 0.02400
C 	C 	0.98760 0.54870 0.86500 0.36600
C 	C 	0.21940 0.22830 0.89790 0.33300
C 	C 	0.06920 0.48900 0.84930 -0.06900
C 	C 	0.32680 0.45250 0.68100 0.05400
H 	H 	0.36943 0.50989 0.69450 0.02100
C 	C 	0.36790 0.21410 0.54400 -0.10300
H 	H 	0.40760 0.27973 0.55191 0.06400
C 	C 	0.20400 0.29070 0.64440 -0.12000
H 	H 	0.15966 0.23478 0.63208 0.06800
O 	O 	0.96340 0.64200 0.84230 -0.32200
C 	C 	0.25350 0.02520 0.51820 0.06000
H 	H 	0.21287 0.96148 0.50896 0.01400
O 	O 	0.40860 0.22420 0.98180 -0.39300
H 	H 	0.42800 0.31300 0.96600 0.13000
