data_crystal

_cell_length_a 15.85400
_cell_length_b 10.51500
_cell_length_c 20.94700
_cell_angle_alpha 90.00000
_cell_angle_beta  107.58700
_cell_angle_gamma 90.00000

_symmetry_space_group_name_	'P 1'
_symmetry_space_group_name_H-M	'P 1'

loop_
_symmetry_equiv_pos_as_xyz
  x,y,z

loop_
_atom_site_label
_atom_site_type_symbol
_atom_site_fract_x
_atom_site_fract_y
_atom_site_fract_z
_atom_site_charge
C 	C 	0.74760 0.72780 0.75480 0.04600
C 	C 	0.73130 0.80050 0.80600 -0.05400
H 	H 	0.76520 0.78650 0.85010 0.06500
C 	C 	0.66610 0.89220 0.79240 -0.06900
C 	C 	0.61330 0.91430 0.72730 0.03500
H 	H 	0.56840 0.97470 0.71830 0.03300
C 	C 	0.62920 0.84350 0.67570 -0.12700
C 	C 	0.69590 0.75320 0.68930 -0.02300
H 	H 	0.70650 0.70870 0.65410 0.04900
C 	C 	0.57530 0.86750 0.60400 0.48500
C 	C 	0.61870 0.16820 0.56870 0.53100
C 	C 	0.67810 0.26800 0.60880 -0.26100
C 	C 	0.65280 0.33500 0.65670 0.18800
H 	H 	0.60030 0.31450 0.66540 -0.03900
C 	C 	0.70530 0.43270 0.69180 -0.26600
H 	H 	0.68790 0.47640 0.72420 0.12800
C 	C 	0.78280 0.46610 0.67950 0.21000
C 	C 	0.80860 0.39700 0.63240 -0.26500
H 	H 	0.86160 0.41650 0.62430 0.12000
C 	C 	0.75680 0.29940 0.59740 0.18800
H 	H 	0.77510 0.25420 0.56580 -0.01200
C 	C 	0.83990 0.57660 0.71420 -0.22100
H 	H 	0.90050 0.54740 0.73230 0.09800
H 	H 	0.83890 0.64190 0.68130 0.10100
C 	C 	0.86530 0.60180 0.83530 -0.20100
H 	H 	0.88070 0.51230 0.83710 0.09000
H 	H 	0.83000 0.61500 0.86530 0.09100
C 	C 	0.94960 0.67920 0.86020 0.17900
C 	C 	0.96460 0.78520 0.82820 -0.23000
H 	H 	0.92190 0.81140 0.78930 0.12200
C 	C 	0.04220 0.85590 0.85210 0.13600
H 	H 	0.05120 0.92750 0.82890 -0.00100
C 	C 	0.10490 0.81930 0.90970 -0.20300
C 	C 	0.09230 0.71140 0.94170 0.13700
H 	H 	0.13590 0.68490 0.98000 -0.01500
C 	C 	0.01530 0.64080 0.91770 -0.22700
H 	H 	0.00750 0.56750 0.94020 0.10100
C 	C 	0.18750 0.89580 0.93740 0.41500
C 	C 	0.65300 0.96760 0.84970 0.32200
O 	O 	0.50200 0.92030 0.59256 -0.52800
O 	O 	0.60790 0.83120 0.55943 -0.50600
O 	O 	0.53950 0.17010 0.56690 -0.55700
O 	O 	0.65140 0.08810 0.53819 -0.46800
O 	O 	0.19550 0.99190 0.90050 -0.25600
O 	O 	0.24190 0.86680 0.98970 -0.45600
O 	O 	0.68860 0.92950 0.90836 -0.39300
O 	O 	0.60560 0.06600 0.83851 -0.43600
Eu	Eu	0.39911 0.07866 0.54577 2.01300
N 	N 	0.81220 0.63260 0.76790 -0.06900
C 	C 	0.25240 0.72780 0.74520 0.04700
C 	C 	0.26870 0.80050 0.69400 -0.05300
H 	H 	0.23480 0.78650 0.64990 0.06600
C 	C 	0.33390 0.89220 0.70760 -0.06700
C 	C 	0.38670 0.91430 0.77270 0.03500
H 	H 	0.43160 0.97470 0.78170 0.03500
C 	C 	0.37080 0.84350 0.82430 -0.12500
C 	C 	0.30410 0.75320 0.81070 -0.02200
H 	H 	0.29350 0.70870 0.84590 0.05100
C 	C 	0.42470 0.86750 0.89600 0.48400
C 	C 	0.38130 0.16820 0.93130 0.53100
C 	C 	0.32190 0.26800 0.89120 -0.26200
C 	C 	0.34720 0.33500 0.84330 0.18800
H 	H 	0.39970 0.31450 0.83460 -0.03900
C 	C 	0.29470 0.43270 0.80820 -0.26600
H 	H 	0.31210 0.47640 0.77580 0.12900
C 	C 	0.21720 0.46610 0.82050 0.21100
C 	C 	0.19140 0.39700 0.86760 -0.26500
H 	H 	0.13840 0.41650 0.87570 0.12000
C 	C 	0.24320 0.29940 0.90260 0.18800
H 	H 	0.22490 0.25420 0.93420 -0.01300
C 	C 	0.16010 0.57660 0.78580 -0.22200
H 	H 	0.09950 0.54740 0.76770 0.09900
H 	H 	0.16110 0.64190 0.81870 0.10100
C 	C 	0.13470 0.60180 0.66470 -0.20300
H 	H 	0.11930 0.51230 0.66290 0.09100
H 	H 	0.17000 0.61500 0.63470 0.09100
C 	C 	0.05040 0.67920 0.63980 0.18100
C 	C 	0.03540 0.78520 0.67180 -0.22600
H 	H 	0.07810 0.81140 0.71070 0.12100
C 	C 	0.95780 0.85590 0.64790 0.13200
H 	H 	0.94880 0.92750 0.67110 -0.00100
C 	C 	0.89510 0.81930 0.59030 -0.20400
C 	C 	0.90770 0.71140 0.55830 0.13800
H 	H 	0.86410 0.68490 0.52000 -0.01700
C 	C 	0.98470 0.64080 0.58230 -0.23100
H 	H 	0.99250 0.56750 0.55980 0.10200
C 	C 	0.81250 0.89580 0.56260 0.41500
C 	C 	0.34700 0.96760 0.65030 0.32000
O 	O 	0.49800 0.92030 0.90744 -0.52400
O 	O 	0.39210 0.83120 0.94057 -0.50300
O 	O 	0.46050 0.17010 0.93310 -0.55700
O 	O 	0.34860 0.08810 0.96181 -0.46900
O 	O 	0.80450 0.99190 0.59950 -0.25800
O 	O 	0.75810 0.86680 0.51030 -0.45900
O 	O 	0.31140 0.92950 0.59164 -0.39400
O 	O 	0.39440 0.06600 0.66149 -0.43500
Eu	Eu	0.60089 0.07866 0.95423 2.00300
N 	N 	0.18780 0.63260 0.73210 -0.06900
C 	C 	0.25240 0.27220 0.24520 0.04700
C 	C 	0.26870 0.19950 0.19400 -0.05300
H 	H 	0.23480 0.21350 0.14990 0.06600
C 	C 	0.33390 0.10780 0.20760 -0.06800
C 	C 	0.38670 0.08570 0.27270 0.03600
H 	H 	0.43160 0.02530 0.28170 0.03400
C 	C 	0.37080 0.15650 0.32430 -0.12600
C 	C 	0.30410 0.24680 0.31070 -0.02200
H 	H 	0.29350 0.29130 0.34590 0.05000
C 	C 	0.42470 0.13250 0.39600 0.48600
C 	C 	0.38130 0.83180 0.43130 0.53100
C 	C 	0.32190 0.73200 0.39120 -0.26100
C 	C 	0.34720 0.66500 0.34330 0.18800
H 	H 	0.39970 0.68550 0.33460 -0.03900
C 	C 	0.29470 0.56730 0.30820 -0.26600
H 	H 	0.31210 0.52360 0.27580 0.12800
C 	C 	0.21720 0.53390 0.32050 0.21000
C 	C 	0.19140 0.60300 0.36760 -0.26500
H 	H 	0.13840 0.58350 0.37570 0.12000
C 	C 	0.24320 0.70060 0.40260 0.18800
H 	H 	0.22490 0.74580 0.43420 -0.01200
C 	C 	0.16010 0.42340 0.28580 -0.22100
H 	H 	0.09950 0.45260 0.26770 0.09800
H 	H 	0.16110 0.35810 0.31870 0.10100
C 	C 	0.13470 0.39820 0.16470 -0.20100
H 	H 	0.11930 0.48770 0.16290 0.09000
H 	H 	0.17000 0.38500 0.13470 0.09100
C 	C 	0.05040 0.32080 0.13980 0.17900
C 	C 	0.03540 0.21480 0.17180 -0.23000
H 	H 	0.07810 0.18860 0.21070 0.12200
C 	C 	0.95780 0.14410 0.14790 0.13600
H 	H 	0.94880 0.07250 0.17110 -0.00100
C 	C 	0.89510 0.18070 0.09030 -0.20300
C 	C 	0.90770 0.28860 0.05830 0.13700
H 	H 	0.86410 0.31510 0.02000 -0.01500
C 	C 	0.98470 0.35920 0.08230 -0.22700
H 	H 	0.99250 0.43250 0.05980 0.10100
C 	C 	0.81250 0.10420 0.06260 0.41500
C 	C 	0.34700 0.03240 0.15030 0.32200
O 	O 	0.49800 0.07970 0.40744 -0.52800
O 	O 	0.39210 0.16880 0.44057 -0.50600
O 	O 	0.46050 0.82990 0.43310 -0.55700
O 	O 	0.34860 0.91190 0.46181 -0.46800
O 	O 	0.80450 0.00810 0.09950 -0.25600
O 	O 	0.75810 0.13320 0.01030 -0.45600
O 	O 	0.31140 0.07050 0.09164 -0.39300
O 	O 	0.39440 0.93400 0.16149 -0.43600
Eu	Eu	0.60089 0.92134 0.45423 2.01300
N 	N 	0.18780 0.36740 0.23210 -0.06900
C 	C 	0.74760 0.27220 0.25480 0.04700
C 	C 	0.73130 0.19950 0.30600 -0.05300
H 	H 	0.76520 0.21350 0.35010 0.06600
C 	C 	0.66610 0.10780 0.29240 -0.06700
C 	C 	0.61330 0.08570 0.22730 0.03500
H 	H 	0.56840 0.02530 0.21830 0.03500
C 	C 	0.62920 0.15650 0.17570 -0.12500
C 	C 	0.69590 0.24680 0.18930 -0.02200
H 	H 	0.70650 0.29130 0.15410 0.05100
C 	C 	0.57530 0.13250 0.10400 0.48400
C 	C 	0.61870 0.83180 0.06870 0.53100
C 	C 	0.67810 0.73200 0.10880 -0.26200
C 	C 	0.65280 0.66500 0.15670 0.18800
H 	H 	0.60030 0.68550 0.16540 -0.03900
C 	C 	0.70530 0.56730 0.19180 -0.26600
H 	H 	0.68790 0.52360 0.22420 0.12900
C 	C 	0.78280 0.53390 0.17950 0.21100
C 	C 	0.80860 0.60300 0.13240 -0.26500
H 	H 	0.86160 0.58350 0.12430 0.12000
C 	C 	0.75680 0.70060 0.09740 0.18800
H 	H 	0.77510 0.74580 0.06580 -0.01300
C 	C 	0.83990 0.42340 0.21420 -0.22200
H 	H 	0.90050 0.45260 0.23230 0.09900
H 	H 	0.83890 0.35810 0.18130 0.10100
C 	C 	0.86530 0.39820 0.33530 -0.20300
H 	H 	0.88070 0.48770 0.33710 0.09100
H 	H 	0.83000 0.38500 0.36530 0.09100
C 	C 	0.94960 0.32080 0.36020 0.18100
C 	C 	0.96460 0.21480 0.32820 -0.22600
H 	H 	0.92190 0.18860 0.28930 0.12100
C 	C 	0.04220 0.14410 0.35210 0.13200
H 	H 	0.05120 0.07250 0.32890 -0.00100
C 	C 	0.10490 0.18070 0.40970 -0.20400
C 	C 	0.09230 0.28860 0.44170 0.13800
H 	H 	0.13590 0.31510 0.48000 -0.01700
C 	C 	0.01530 0.35920 0.41770 -0.23100
H 	H 	0.00750 0.43250 0.44020 0.10200
C 	C 	0.18750 0.10420 0.43740 0.41500
C 	C 	0.65300 0.03240 0.34970 0.32000
O 	O 	0.50200 0.07970 0.09256 -0.52400
O 	O 	0.60790 0.16880 0.05943 -0.50300
O 	O 	0.53950 0.82990 0.06690 -0.55700
O 	O 	0.65140 0.91190 0.03819 -0.46900
O 	O 	0.19550 0.00810 0.40050 -0.25800
O 	O 	0.24190 0.13320 0.48970 -0.45900
O 	O 	0.68860 0.07050 0.40836 -0.39400
O 	O 	0.60560 0.93400 0.33851 -0.43500
Eu	Eu	0.39911 0.92134 0.04577 2.00300
N 	N 	0.81220 0.36740 0.26790 -0.06900
