data_crystal

_cell_length_a 15.86100
_cell_length_b 10.59900
_cell_length_c 21.23500
_cell_angle_alpha 90.00000
_cell_angle_beta  106.91400
_cell_angle_gamma 90.00000

_symmetry_space_group_name_	'P 1'
_symmetry_space_group_name_H-M	'P 1'

loop_
_symmetry_equiv_pos_as_xyz
  x,y,z

loop_
_atom_site_label
_atom_site_type_symbol
_atom_site_fract_x
_atom_site_fract_y
_atom_site_fract_z
_atom_site_charge
C 	C 	0.31680 0.39160 0.56370 0.36200
C 	C 	0.39890 0.31630 0.59180 -0.17200
C 	C 	0.41280 0.20910 0.55980 0.10900
H 	H 	0.37110 0.18410 0.52120 -0.00500
C 	C 	0.48870 0.13780 0.58470 -0.21100
H 	H 	0.49740 0.06440 0.56340 0.09500
C 	C 	0.55170 0.17710 0.64200 0.16700
C 	C 	0.53600 0.28090 0.67390 -0.21300
H 	H 	0.57690 0.30520 0.71310 0.11600
C 	C 	0.45950 0.35200 0.64910 0.11200
H 	H 	0.44980 0.42330 0.67150 0.00800
C 	C 	0.63560 0.10080 0.66750 -0.19300
H 	H 	0.62010 0.01210 0.66510 0.08900
H 	H 	0.67200 0.11450 0.63850 0.08900
C 	C 	0.65900 0.07300 0.78600 -0.20800
H 	H 	0.59870 0.04410 0.76800 0.09500
H 	H 	0.65900 0.13800 0.81810 0.09800
C 	C 	0.71410 0.96390 0.82090 0.18800
C 	C 	0.68640 0.89490 0.86640 -0.23100
H 	H 	0.63280 0.91420 0.87370 0.10900
C 	C 	0.73690 0.79800 0.90120 0.14400
H 	H 	0.71660 0.75160 0.93110 0.00500
C 	C 	0.81790 0.76930 0.89200 -0.20600
C 	C 	0.87570 0.66970 0.93190 0.43600
C 	C 	0.84410 0.83620 0.84510 0.14900
H 	H 	0.89700 0.81600 0.83690 -0.02300
C 	C 	0.79290 0.93220 0.81040 -0.23500
H 	H 	0.81200 0.97650 0.77920 0.11800
C 	C 	0.91960 0.36370 0.89520 0.39200
C 	C 	0.86820 0.34070 0.82450 -0.08500
C 	C 	0.80160 0.25020 0.81110 -0.04900
H 	H 	0.79050 0.20590 0.84570 0.06200
C 	C 	0.75140 0.22510 0.74690 0.06300
C 	C 	0.76670 0.29630 0.69640 -0.06600
H 	H 	0.73270 0.28270 0.65320 0.07000
C 	C 	0.83260 0.38780 0.70990 -0.05500
C 	C 	0.88410 0.40970 0.77400 0.01000
H 	H 	0.92860 0.46990 0.78270 0.04500
C 	C 	0.84520 0.46430 0.65400 0.30000
N 	N 	0.68710 0.12870 0.73340 -0.07200
O 	O 	0.30800 0.48880 0.59910 -0.24100
O 	O 	0.26410 0.36620 0.51070 -0.39000
O 	O 	0.99210 0.42230 0.90670 -0.43900
O 	O 	0.88890 0.32380 0.93910 -0.41900
O 	O 	0.95520 0.67420 0.93620 -0.46400
O 	O 	0.84220 0.58740 0.96070 -0.38600
O 	O 	0.89170 0.56290 0.66590 -0.38000
La	La	0.89925 0.41834 0.04756 1.66100
O 	O 	0.80880 0.42860 0.59600 -0.35000
C 	C 	0.68320 0.39160 0.93630 0.36200
C 	C 	0.60110 0.31630 0.90820 -0.17000
C 	C 	0.58720 0.20910 0.94020 0.10900
H 	H 	0.62890 0.18410 0.97880 -0.00300
C 	C 	0.51130 0.13780 0.91530 -0.20900
H 	H 	0.50260 0.06440 0.93660 0.09600
C 	C 	0.44830 0.17710 0.85800 0.16700
C 	C 	0.46400 0.28090 0.82610 -0.21100
H 	H 	0.42310 0.30520 0.78690 0.11500
C 	C 	0.54050 0.35200 0.85090 0.11100
H 	H 	0.55020 0.42330 0.82850 0.00800
C 	C 	0.36440 0.10080 0.83250 -0.19300
H 	H 	0.37990 0.01210 0.83490 0.08900
H 	H 	0.32800 0.11450 0.86150 0.08900
C 	C 	0.34100 0.07300 0.71400 -0.20900
H 	H 	0.40130 0.04410 0.73200 0.09500
H 	H 	0.34100 0.13800 0.68190 0.09800
C 	C 	0.28590 0.96390 0.67910 0.18900
C 	C 	0.31360 0.89490 0.63360 -0.23300
H 	H 	0.36720 0.91420 0.62630 0.10900
C 	C 	0.26310 0.79800 0.59880 0.14500
H 	H 	0.28340 0.75160 0.56890 0.00400
C 	C 	0.18210 0.76930 0.60800 -0.20800
C 	C 	0.12430 0.66970 0.56810 0.43800
C 	C 	0.15590 0.83620 0.65490 0.15000
H 	H 	0.10300 0.81600 0.66310 -0.02400
C 	C 	0.20710 0.93220 0.68960 -0.23600
H 	H 	0.18800 0.97650 0.72080 0.11800
C 	C 	0.08040 0.36370 0.60480 0.39300
C 	C 	0.13180 0.34070 0.67550 -0.08700
C 	C 	0.19840 0.25020 0.68890 -0.04800
H 	H 	0.20950 0.20590 0.65430 0.06100
C 	C 	0.24860 0.22510 0.75310 0.06200
C 	C 	0.23330 0.29630 0.80360 -0.06500
H 	H 	0.26730 0.28270 0.84680 0.07000
C 	C 	0.16740 0.38780 0.79010 -0.05600
C 	C 	0.11590 0.40970 0.72600 0.01100
H 	H 	0.07140 0.46990 0.71730 0.04300
C 	C 	0.15480 0.46430 0.84600 0.30000
N 	N 	0.31290 0.12870 0.76660 -0.07200
O 	O 	0.69200 0.48880 0.90090 -0.24100
O 	O 	0.73590 0.36620 0.98930 -0.38800
O 	O 	0.00790 0.42230 0.59330 -0.44200
O 	O 	0.11110 0.32380 0.56090 -0.42100
O 	O 	0.04480 0.67420 0.56380 -0.46700
O 	O 	0.15780 0.58740 0.53930 -0.38900
O 	O 	0.10830 0.56290 0.83410 -0.38200
La	La	0.10075 0.41834 0.45244 1.67000
O 	O 	0.19120 0.42860 0.90400 -0.35100
C 	C 	0.68320 0.60840 0.43630 0.36300
C 	C 	0.60110 0.68370 0.40820 -0.17100
C 	C 	0.58720 0.79090 0.44020 0.11000
H 	H 	0.62890 0.81590 0.47880 -0.00400
C 	C 	0.51130 0.86220 0.41530 -0.21000
H 	H 	0.50260 0.93560 0.43660 0.09600
C 	C 	0.44830 0.82290 0.35800 0.16800
C 	C 	0.46400 0.71910 0.32610 -0.21200
H 	H 	0.42310 0.69480 0.28690 0.11600
C 	C 	0.54050 0.64800 0.35090 0.11200
H 	H 	0.55020 0.57670 0.32850 0.00800
C 	C 	0.36440 0.89920 0.33250 -0.19300
H 	H 	0.37990 0.98790 0.33490 0.08900
H 	H 	0.32800 0.88550 0.36150 0.08900
C 	C 	0.34100 0.92700 0.21400 -0.20800
H 	H 	0.40130 0.95590 0.23200 0.09500
H 	H 	0.34100 0.86200 0.18190 0.09800
C 	C 	0.28590 0.03610 0.17910 0.18800
C 	C 	0.31360 0.10510 0.13360 -0.23100
H 	H 	0.36720 0.08580 0.12630 0.10900
C 	C 	0.26310 0.20200 0.09880 0.14400
H 	H 	0.28340 0.24840 0.06890 0.00500
C 	C 	0.18210 0.23070 0.10800 -0.20600
C 	C 	0.12430 0.33030 0.06810 0.43600
C 	C 	0.15590 0.16380 0.15490 0.14900
H 	H 	0.10300 0.18400 0.16310 -0.02300
C 	C 	0.20710 0.06780 0.18960 -0.23500
H 	H 	0.18800 0.02350 0.22080 0.11800
C 	C 	0.08040 0.63630 0.10480 0.39200
C 	C 	0.13180 0.65930 0.17550 -0.08500
C 	C 	0.19840 0.74980 0.18890 -0.04900
H 	H 	0.20950 0.79410 0.15430 0.06200
C 	C 	0.24860 0.77490 0.25310 0.06300
C 	C 	0.23330 0.70370 0.30360 -0.06600
H 	H 	0.26730 0.71730 0.34680 0.07000
C 	C 	0.16740 0.61220 0.29010 -0.05500
C 	C 	0.11590 0.59030 0.22600 0.01000
H 	H 	0.07140 0.53010 0.21730 0.04500
C 	C 	0.15480 0.53570 0.34600 0.30000
N 	N 	0.31290 0.87130 0.26660 -0.07200
O 	O 	0.69200 0.51120 0.40090 -0.24100
O 	O 	0.73590 0.63380 0.48930 -0.39000
O 	O 	0.00790 0.57770 0.09330 -0.43900
O 	O 	0.11110 0.67620 0.06090 -0.41900
O 	O 	0.04480 0.32580 0.06380 -0.46400
O 	O 	0.15780 0.41260 0.03930 -0.38600
O 	O 	0.10830 0.43710 0.33410 -0.38000
La	La	0.10075 0.58166 0.95244 1.66100
O 	O 	0.19120 0.57140 0.40400 -0.35000
C 	C 	0.31680 0.60840 0.06370 0.36200
C 	C 	0.39890 0.68370 0.09180 -0.17000
C 	C 	0.41280 0.79090 0.05980 0.10900
H 	H 	0.37110 0.81590 0.02120 -0.00300
C 	C 	0.48870 0.86220 0.08470 -0.20900
H 	H 	0.49740 0.93560 0.06340 0.09600
C 	C 	0.55170 0.82290 0.14200 0.16700
C 	C 	0.53600 0.71910 0.17390 -0.21100
H 	H 	0.57690 0.69480 0.21310 0.11500
C 	C 	0.45950 0.64800 0.14910 0.11100
H 	H 	0.44980 0.57670 0.17150 0.00800
C 	C 	0.63560 0.89920 0.16750 -0.19300
H 	H 	0.62010 0.98790 0.16510 0.08900
H 	H 	0.67200 0.88550 0.13850 0.08900
C 	C 	0.65900 0.92700 0.28600 -0.20900
H 	H 	0.59870 0.95590 0.26800 0.09500
H 	H 	0.65900 0.86200 0.31810 0.09800
C 	C 	0.71410 0.03610 0.32090 0.18900
C 	C 	0.68640 0.10510 0.36640 -0.23300
H 	H 	0.63280 0.08580 0.37370 0.10900
C 	C 	0.73690 0.20200 0.40120 0.14500
H 	H 	0.71660 0.24840 0.43110 0.00400
C 	C 	0.81790 0.23070 0.39200 -0.20800
C 	C 	0.87570 0.33030 0.43190 0.43800
C 	C 	0.84410 0.16380 0.34510 0.15000
H 	H 	0.89700 0.18400 0.33690 -0.02400
C 	C 	0.79290 0.06780 0.31040 -0.23600
H 	H 	0.81200 0.02350 0.27920 0.11800
C 	C 	0.91960 0.63630 0.39520 0.39300
C 	C 	0.86820 0.65930 0.32450 -0.08700
C 	C 	0.80160 0.74980 0.31110 -0.04800
H 	H 	0.79050 0.79410 0.34570 0.06100
C 	C 	0.75140 0.77490 0.24690 0.06200
C 	C 	0.76670 0.70370 0.19640 -0.06500
H 	H 	0.73270 0.71730 0.15320 0.07000
C 	C 	0.83260 0.61220 0.20990 -0.05600
C 	C 	0.88410 0.59030 0.27400 0.01100
H 	H 	0.92860 0.53010 0.28270 0.04300
C 	C 	0.84520 0.53570 0.15400 0.30000
N 	N 	0.68710 0.87130 0.23340 -0.07200
O 	O 	0.30800 0.51120 0.09910 -0.24100
O 	O 	0.26410 0.63380 0.01070 -0.38800
O 	O 	0.99210 0.57770 0.40670 -0.44200
O 	O 	0.88890 0.67620 0.43910 -0.42100
O 	O 	0.95520 0.32580 0.43620 -0.46700
O 	O 	0.84220 0.41260 0.46070 -0.38900
O 	O 	0.89170 0.43710 0.16590 -0.38200
La	La	0.89925 0.58166 0.54756 1.67000
O 	O 	0.80880 0.57140 0.09600 -0.35100
