data_crystal

_cell_length_a 10.34830
_cell_length_b 12.57460
_cell_length_c 45.80200
_cell_angle_alpha 90.00000
_cell_angle_beta  90.00000
_cell_angle_gamma 90.00000

_symmetry_space_group_name_	'P 1'
_symmetry_space_group_name_H-M	'P 1'

loop_
_symmetry_equiv_pos_as_xyz
  x,y,z

loop_
_atom_site_label
_atom_site_type_symbol
_atom_site_fract_x
_atom_site_fract_y
_atom_site_fract_z
_atom_site_charge
N 	N 	0.36820 0.47020 0.21414 -0.19400
C 	C 	0.23770 0.47290 0.21790 0.01700
H 	H 	0.20370 0.48360 0.23690 -0.01200
N 	N 	0.47080 0.40030 0.03105 -0.19900
C 	C 	0.14920 0.46010 0.19360 -0.07100
H 	H 	0.05830 0.46000 0.19650 0.03400
Ag	Ag	0.33144 0.38314 0.99601 0.47700
N 	N 	0.65630 0.25750 0.21888 -0.19200
C 	C 	0.20000 0.44820 0.16670 -0.03900
H 	H 	0.14480 0.43960 0.15030 0.03600
N 	N 	0.67950 0.11670 0.03724 -0.19100
C 	C 	0.33470 0.44860 0.16298 -0.00400
C 	C 	0.41290 0.45860 0.18710 -0.00200
H 	H 	0.50390 0.45710 0.18430 0.00800
C 	C 	0.39430 0.43970 0.13400 -0.02000
C 	C 	0.44360 0.43440 0.11120 -0.02100
C 	C 	0.50290 0.42650 0.08260 -0.00200
C 	C 	0.42360 0.41380 0.05840 -0.01200
H 	H 	0.33260 0.41470 0.06110 0.00500
C 	C 	0.63640 0.42430 0.07850 -0.03400
H 	H 	0.69390 0.43240 0.09450 0.04100
C 	C 	0.68280 0.40990 0.05020 -0.09000
H 	H 	0.77310 0.40790 0.04660 0.04600
C 	C 	0.60030 0.39890 0.02850 0.04000
H 	H 	0.63510 0.38930 0.00950 -0.01600
C 	C 	0.77970 0.26510 0.22710 0.01700
H 	H 	0.79840 0.28060 0.24690 -0.00700
C 	C 	0.88490 0.25100 0.20720 -0.07300
H 	H 	0.97170 0.25360 0.21390 0.04000
C 	C 	0.85880 0.23400 0.17890 -0.04000
H 	H 	0.92730 0.22920 0.16520 0.04500
C 	C 	0.73080 0.22340 0.16970 0.00600
C 	C 	0.63200 0.23620 0.19020 -0.00800
H 	H 	0.54490 0.22990 0.18390 0.01200
C 	C 	0.69600 0.20100 0.14110 -0.01900
C 	C 	0.66050 0.17710 0.11580 -0.01700
C 	C 	0.62010 0.15380 0.08720 0.00200
C 	C 	0.71420 0.13780 0.06540 -0.00500
H 	H 	0.80320 0.14190 0.07030 0.01500
C 	C 	0.48970 0.14660 0.07890 -0.03300
H 	H 	0.42360 0.15850 0.09300 0.03700
C 	C 	0.45740 0.12250 0.05060 -0.08400
H 	H 	0.36970 0.11270 0.04510 0.03800
C 	C 	0.55520 0.11270 0.03030 0.03100
H 	H 	0.53240 0.10280 0.01030 -0.01900
N 	N 	0.86820 0.97020 0.21414 -0.19600
C 	C 	0.73770 0.97290 0.21790 0.02000
H 	H 	0.70370 0.98360 0.23690 -0.01000
N 	N 	0.97080 0.90030 0.03105 -0.19500
C 	C 	0.64920 0.96010 0.19360 -0.07500
H 	H 	0.55830 0.96000 0.19650 0.04000
Ag	Ag	0.83144 0.88314 0.99601 0.48100
N 	N 	0.15630 0.75750 0.21888 -0.19500
C 	C 	0.70000 0.94820 0.16670 -0.03300
H 	H 	0.64480 0.93960 0.15030 0.03900
N 	N 	0.17950 0.61670 0.03724 -0.19000
C 	C 	0.83470 0.94860 0.16298 -0.00900
C 	C 	0.91290 0.95860 0.18710 0.03900
H 	H 	0.00390 0.95710 0.18430 -0.02100
C 	C 	0.89430 0.93970 0.13400 -0.03000
C 	C 	0.94360 0.93440 0.11120 0.02200
C 	C 	0.00290 0.92650 0.08260 -0.06700
C 	C 	0.92360 0.91380 0.05840 0.03600
H 	H 	0.83260 0.91470 0.06110 -0.00800
C 	C 	0.13640 0.92430 0.07850 -0.00900
H 	H 	0.19390 0.93240 0.09450 0.02800
C 	C 	0.18280 0.90990 0.05020 -0.10000
H 	H 	0.27310 0.90790 0.04660 0.04500
C 	C 	0.10030 0.89890 0.02850 0.02500
H 	H 	0.13510 0.88930 0.00950 -0.01600
C 	C 	0.27970 0.76510 0.22710 0.01400
H 	H 	0.29840 0.78060 0.24690 -0.01100
C 	C 	0.38490 0.75100 0.20720 -0.07400
H 	H 	0.47170 0.75360 0.21390 0.03300
C 	C 	0.35880 0.73400 0.17890 -0.04300
H 	H 	0.42730 0.72920 0.16520 0.04000
C 	C 	0.23080 0.72340 0.16970 0.00700
C 	C 	0.13200 0.73620 0.19020 -0.01000
H 	H 	0.04490 0.72990 0.18390 0.00700
C 	C 	0.19600 0.70100 0.14110 -0.02700
C 	C 	0.16050 0.67710 0.11580 -0.01400
C 	C 	0.12010 0.65380 0.08720 -0.02300
C 	C 	0.21420 0.63780 0.06540 -0.00000
H 	H 	0.30320 0.64190 0.07030 0.01000
C 	C 	0.98970 0.64660 0.07890 -0.01200
H 	H 	0.92360 0.65850 0.09300 0.03600
C 	C 	0.95740 0.62250 0.05060 -0.05800
H 	H 	0.86970 0.61270 0.04510 0.03400
C 	C 	0.05520 0.61270 0.03030 0.00100
H 	H 	0.03240 0.60280 0.01030 -0.01600
N 	N 	0.63180 0.52980 0.71414 -0.19500
C 	C 	0.76230 0.52710 0.71790 0.01900
H 	H 	0.79630 0.51640 0.73690 -0.00800
N 	N 	0.52920 0.59970 0.53105 -0.19900
C 	C 	0.85080 0.53990 0.69360 -0.07000
H 	H 	0.94170 0.54000 0.69650 0.04600
Ag	Ag	0.66856 0.61686 0.49601 0.47800
N 	N 	0.34370 0.74250 0.71888 -0.19300
C 	C 	0.80000 0.55180 0.66670 -0.03700
H 	H 	0.85520 0.56040 0.65030 0.04400
N 	N 	0.32050 0.88330 0.53724 -0.19300
C 	C 	0.66530 0.55140 0.66298 -0.00300
C 	C 	0.58710 0.54140 0.68710 -0.00100
H 	H 	0.49610 0.54290 0.68430 0.00600
C 	C 	0.60570 0.56030 0.63400 -0.01800
C 	C 	0.55640 0.56560 0.61120 -0.02100
C 	C 	0.49710 0.57350 0.58260 -0.00100
C 	C 	0.57640 0.58620 0.55840 -0.01300
H 	H 	0.66740 0.58530 0.56110 0.00800
C 	C 	0.36360 0.57570 0.57850 -0.03600
H 	H 	0.30610 0.56760 0.59450 0.03800
C 	C 	0.31720 0.59010 0.55020 -0.08900
H 	H 	0.22690 0.59210 0.54660 0.03900
C 	C 	0.39970 0.60110 0.52850 0.03900
H 	H 	0.36490 0.61070 0.50950 -0.01800
C 	C 	0.22030 0.73490 0.72710 0.01300
H 	H 	0.20160 0.71940 0.74690 -0.01300
C 	C 	0.11510 0.74900 0.70720 -0.07600
H 	H 	0.02830 0.74640 0.71390 0.02500
C 	C 	0.14120 0.76600 0.67890 -0.04300
H 	H 	0.07270 0.77080 0.66520 0.03500
C 	C 	0.26920 0.77660 0.66970 0.00500
C 	C 	0.36800 0.76380 0.69020 -0.00900
H 	H 	0.45510 0.77010 0.68390 0.01300
C 	C 	0.30400 0.79900 0.64110 -0.02200
C 	C 	0.33950 0.82290 0.61580 -0.01800
C 	C 	0.37990 0.84620 0.58720 0.00000
C 	C 	0.28580 0.86220 0.56540 -0.00500
H 	H 	0.19680 0.85810 0.57030 0.00900
C 	C 	0.51030 0.85340 0.57890 -0.03300
H 	H 	0.57640 0.84150 0.59300 0.03900
C 	C 	0.54260 0.87750 0.55060 -0.08400
H 	H 	0.63030 0.88730 0.54510 0.04000
C 	C 	0.44480 0.88730 0.53030 0.03200
H 	H 	0.46760 0.89720 0.51030 -0.01900
N 	N 	0.13180 0.02980 0.71414 -0.19000
C 	C 	0.26230 0.02710 0.71790 0.01500
H 	H 	0.29630 0.01640 0.73690 -0.01100
N 	N 	0.02920 0.09970 0.53105 -0.20300
C 	C 	0.35080 0.03990 0.69360 -0.06800
H 	H 	0.44170 0.04000 0.69650 0.03800
Ag	Ag	0.16856 0.11686 0.49601 0.47400
N 	N 	0.84370 0.24250 0.71888 -0.18800
C 	C 	0.30000 0.05180 0.66670 -0.04200
H 	H 	0.35520 0.06040 0.65030 0.04100
N 	N 	0.82050 0.38330 0.53724 -0.19400
C 	C 	0.16530 0.05140 0.66298 0.00200
C 	C 	0.08710 0.04140 0.68710 -0.04000
H 	H 	0.99610 0.04290 0.68430 0.03500
C 	C 	0.10570 0.06030 0.63400 -0.00900
C 	C 	0.05640 0.06560 0.61120 -0.06200
C 	C 	0.99710 0.07350 0.58260 0.05900
C 	C 	0.07640 0.08620 0.55840 -0.05800
H 	H 	0.16740 0.08530 0.56110 0.02000
C 	C 	0.86360 0.07570 0.57850 -0.06000
H 	H 	0.80610 0.06760 0.59450 0.05000
C 	C 	0.81720 0.09010 0.55020 -0.07900
H 	H 	0.72690 0.09210 0.54660 0.03900
C 	C 	0.89970 0.10110 0.52850 0.05300
H 	H 	0.86490 0.11070 0.50950 -0.01800
C 	C 	0.72030 0.23490 0.72710 0.01600
H 	H 	0.70160 0.21940 0.74690 -0.00800
C 	C 	0.61510 0.24900 0.70720 -0.07400
H 	H 	0.52830 0.24640 0.71390 0.03200
C 	C 	0.64120 0.26600 0.67890 -0.04000
H 	H 	0.57270 0.27080 0.66520 0.03900
C 	C 	0.76920 0.27660 0.66970 0.00500
C 	C 	0.86800 0.26380 0.69020 -0.00800
H 	H 	0.95510 0.27010 0.68390 0.01900
C 	C 	0.80400 0.29900 0.64110 -0.01500
C 	C 	0.83950 0.32290 0.61580 -0.02200
C 	C 	0.87990 0.34620 0.58720 0.02400
C 	C 	0.78580 0.36220 0.56540 -0.00900
H 	H 	0.69680 0.35810 0.57030 0.01300
C 	C 	0.01030 0.35340 0.57890 -0.05300
H 	H 	0.07640 0.34150 0.59300 0.04000
C 	C 	0.04260 0.37750 0.55060 -0.10800
H 	H 	0.13030 0.38730 0.54510 0.04400
C 	C 	0.94480 0.38730 0.53030 0.06000
H 	H 	0.96760 0.39720 0.51030 -0.02200
N 	N 	0.63180 0.47020 0.28586 -0.19500
C 	C 	0.76230 0.47290 0.28210 0.01900
H 	H 	0.79630 0.48360 0.26310 -0.00800
N 	N 	0.52920 0.40030 0.46895 -0.19900
C 	C 	0.85080 0.46010 0.30640 -0.07000
H 	H 	0.94170 0.46000 0.30350 0.04600
Ag	Ag	0.66856 0.38314 0.50399 0.47800
N 	N 	0.34370 0.25750 0.28112 -0.19300
C 	C 	0.80000 0.44820 0.33330 -0.03700
H 	H 	0.85520 0.43960 0.34970 0.04400
N 	N 	0.32050 0.11670 0.46276 -0.19300
C 	C 	0.66530 0.44860 0.33702 -0.00300
C 	C 	0.58710 0.45860 0.31290 -0.00100
H 	H 	0.49610 0.45710 0.31570 0.00600
C 	C 	0.60570 0.43970 0.36600 -0.01800
C 	C 	0.55640 0.43440 0.38880 -0.02100
C 	C 	0.49710 0.42650 0.41740 -0.00100
C 	C 	0.57640 0.41380 0.44160 -0.01300
H 	H 	0.66740 0.41470 0.43890 0.00800
C 	C 	0.36360 0.42430 0.42150 -0.03600
H 	H 	0.30610 0.43240 0.40550 0.03800
C 	C 	0.31720 0.40990 0.44980 -0.08900
H 	H 	0.22690 0.40790 0.45340 0.03900
C 	C 	0.39970 0.39890 0.47150 0.03900
H 	H 	0.36490 0.38930 0.49050 -0.01800
C 	C 	0.22030 0.26510 0.27290 0.01300
H 	H 	0.20160 0.28060 0.25310 -0.01300
C 	C 	0.11510 0.25100 0.29280 -0.07600
H 	H 	0.02830 0.25360 0.28610 0.02500
C 	C 	0.14120 0.23400 0.32110 -0.04300
H 	H 	0.07270 0.22920 0.33480 0.03500
C 	C 	0.26920 0.22340 0.33030 0.00500
C 	C 	0.36800 0.23620 0.30980 -0.00900
H 	H 	0.45510 0.22990 0.31610 0.01300
C 	C 	0.30400 0.20100 0.35890 -0.02200
C 	C 	0.33950 0.17710 0.38420 -0.01800
C 	C 	0.37990 0.15380 0.41280 0.00000
C 	C 	0.28580 0.13780 0.43460 -0.00500
H 	H 	0.19680 0.14190 0.42970 0.00900
C 	C 	0.51030 0.14660 0.42110 -0.03300
H 	H 	0.57640 0.15850 0.40700 0.03900
C 	C 	0.54260 0.12250 0.44940 -0.08400
H 	H 	0.63030 0.11270 0.45490 0.04000
C 	C 	0.44480 0.11270 0.46970 0.03200
H 	H 	0.46760 0.10280 0.48970 -0.01900
N 	N 	0.13180 0.97020 0.28586 -0.19000
C 	C 	0.26230 0.97290 0.28210 0.01500
H 	H 	0.29630 0.98360 0.26310 -0.01100
N 	N 	0.02920 0.90030 0.46895 -0.20300
C 	C 	0.35080 0.96010 0.30640 -0.06800
H 	H 	0.44170 0.96000 0.30350 0.03800
Ag	Ag	0.16856 0.88314 0.50399 0.47400
N 	N 	0.84370 0.75750 0.28112 -0.18800
C 	C 	0.30000 0.94820 0.33330 -0.04200
H 	H 	0.35520 0.93960 0.34970 0.04100
N 	N 	0.82050 0.61670 0.46276 -0.19400
C 	C 	0.16530 0.94860 0.33702 0.00200
C 	C 	0.08710 0.95860 0.31290 -0.04000
H 	H 	0.99610 0.95710 0.31570 0.03500
C 	C 	0.10570 0.93970 0.36600 -0.00900
C 	C 	0.05640 0.93440 0.38880 -0.06200
C 	C 	0.99710 0.92650 0.41740 0.05900
C 	C 	0.07640 0.91380 0.44160 -0.05800
H 	H 	0.16740 0.91470 0.43890 0.02000
C 	C 	0.86360 0.92430 0.42150 -0.06000
H 	H 	0.80610 0.93240 0.40550 0.05000
C 	C 	0.81720 0.90990 0.44980 -0.07900
H 	H 	0.72690 0.90790 0.45340 0.03900
C 	C 	0.89970 0.89890 0.47150 0.05300
H 	H 	0.86490 0.88930 0.49050 -0.01800
C 	C 	0.72030 0.76510 0.27290 0.01600
H 	H 	0.70160 0.78060 0.25310 -0.00800
C 	C 	0.61510 0.75100 0.29280 -0.07400
H 	H 	0.52830 0.75360 0.28610 0.03200
C 	C 	0.64120 0.73400 0.32110 -0.04000
H 	H 	0.57270 0.72920 0.33480 0.03900
C 	C 	0.76920 0.72340 0.33030 0.00500
C 	C 	0.86800 0.73620 0.30980 -0.00800
H 	H 	0.95510 0.72990 0.31610 0.01900
C 	C 	0.80400 0.70100 0.35890 -0.01500
C 	C 	0.83950 0.67710 0.38420 -0.02200
C 	C 	0.87990 0.65380 0.41280 0.02400
C 	C 	0.78580 0.63780 0.43460 -0.00900
H 	H 	0.69680 0.64190 0.42970 0.01300
C 	C 	0.01030 0.64660 0.42110 -0.05300
H 	H 	0.07640 0.65850 0.40700 0.04000
C 	C 	0.04260 0.62250 0.44940 -0.10800
H 	H 	0.13030 0.61270 0.45490 0.04400
C 	C 	0.94480 0.61270 0.46970 0.06000
H 	H 	0.96760 0.60280 0.48970 -0.02200
N 	N 	0.36820 0.52980 0.78586 -0.19500
C 	C 	0.23770 0.52710 0.78210 0.01600
H 	H 	0.20370 0.51640 0.76310 -0.01300
N 	N 	0.47080 0.59970 0.96895 -0.20000
C 	C 	0.14920 0.53990 0.80640 -0.07200
H 	H 	0.05830 0.54000 0.80350 0.03300
Ag	Ag	0.33144 0.61686 0.00399 0.47600
N 	N 	0.65630 0.74250 0.78112 -0.19300
C 	C 	0.20000 0.55180 0.83330 -0.03900
H 	H 	0.14480 0.56040 0.84970 0.03600
N 	N 	0.67950 0.88330 0.96276 -0.19100
C 	C 	0.33470 0.55140 0.83702 -0.00400
C 	C 	0.41290 0.54140 0.81290 -0.00200
H 	H 	0.50390 0.54290 0.81570 0.00800
C 	C 	0.39430 0.56030 0.86600 -0.02000
C 	C 	0.44360 0.56560 0.88880 -0.02100
C 	C 	0.50290 0.57350 0.91740 -0.00200
C 	C 	0.42360 0.58620 0.94160 -0.01200
H 	H 	0.33260 0.58530 0.93890 0.00500
C 	C 	0.63640 0.57570 0.92150 -0.03400
H 	H 	0.69390 0.56760 0.90550 0.04100
C 	C 	0.68280 0.59010 0.94980 -0.09000
H 	H 	0.77310 0.59210 0.95340 0.04600
C 	C 	0.60030 0.60110 0.97150 0.04000
H 	H 	0.63510 0.61070 0.99050 -0.01600
C 	C 	0.77970 0.73490 0.77290 0.01700
H 	H 	0.79840 0.71940 0.75310 -0.00700
C 	C 	0.88490 0.74900 0.79280 -0.07300
H 	H 	0.97170 0.74640 0.78610 0.04000
C 	C 	0.85880 0.76600 0.82110 -0.04000
H 	H 	0.92730 0.77080 0.83480 0.04500
C 	C 	0.73080 0.77660 0.83030 0.00600
C 	C 	0.63200 0.76380 0.80980 -0.00800
H 	H 	0.54490 0.77010 0.81610 0.01200
C 	C 	0.69600 0.79900 0.85890 -0.01900
C 	C 	0.66050 0.82290 0.88420 -0.01700
C 	C 	0.62010 0.84620 0.91280 0.00200
C 	C 	0.71420 0.86220 0.93460 -0.00500
H 	H 	0.80320 0.85810 0.92970 0.01500
C 	C 	0.48970 0.85340 0.92110 -0.03300
H 	H 	0.42360 0.84150 0.90700 0.03700
C 	C 	0.45740 0.87750 0.94940 -0.08400
H 	H 	0.36970 0.88730 0.95490 0.03800
C 	C 	0.55520 0.88730 0.96970 0.03100
H 	H 	0.53240 0.89720 0.98970 -0.01900
N 	N 	0.86820 0.02980 0.78586 -0.19600
C 	C 	0.73770 0.02710 0.78210 0.02000
H 	H 	0.70370 0.01640 0.76310 -0.01000
N 	N 	0.97080 0.09970 0.96895 -0.19500
C 	C 	0.64920 0.03990 0.80640 -0.07500
H 	H 	0.55830 0.04000 0.80350 0.04000
Ag	Ag	0.83144 0.11686 0.00399 0.48100
N 	N 	0.15630 0.24250 0.78112 -0.19500
C 	C 	0.70000 0.05180 0.83330 -0.03300
H 	H 	0.64480 0.06040 0.84970 0.03900
N 	N 	0.17950 0.38330 0.96276 -0.19000
C 	C 	0.83470 0.05140 0.83702 -0.00900
C 	C 	0.91290 0.04140 0.81290 0.03900
H 	H 	0.00390 0.04290 0.81570 -0.02100
C 	C 	0.89430 0.06030 0.86600 -0.03000
C 	C 	0.94360 0.06560 0.88880 0.02200
C 	C 	0.00290 0.07350 0.91740 -0.06700
C 	C 	0.92360 0.08620 0.94160 0.03600
H 	H 	0.83260 0.08530 0.93890 -0.00800
C 	C 	0.13640 0.07570 0.92150 -0.00900
H 	H 	0.19390 0.06760 0.90550 0.02800
C 	C 	0.18280 0.09010 0.94980 -0.10000
H 	H 	0.27310 0.09210 0.95340 0.04500
C 	C 	0.10030 0.10110 0.97150 0.02500
H 	H 	0.13510 0.11070 0.99050 -0.01600
C 	C 	0.27970 0.23490 0.77290 0.01400
H 	H 	0.29840 0.21940 0.75310 -0.01100
C 	C 	0.38490 0.24900 0.79280 -0.07400
H 	H 	0.47170 0.24640 0.78610 0.03300
C 	C 	0.35880 0.26600 0.82110 -0.04300
H 	H 	0.42730 0.27080 0.83480 0.04000
C 	C 	0.23080 0.27660 0.83030 0.00700
C 	C 	0.13200 0.26380 0.80980 -0.01000
H 	H 	0.04490 0.27010 0.81610 0.00700
C 	C 	0.19600 0.29900 0.85890 -0.02700
C 	C 	0.16050 0.32290 0.88420 -0.01400
C 	C 	0.12010 0.34620 0.91280 -0.02300
C 	C 	0.21420 0.36220 0.93460 -0.00000
H 	H 	0.30320 0.35810 0.92970 0.01000
C 	C 	0.98970 0.35340 0.92110 -0.01200
H 	H 	0.92360 0.34150 0.90700 0.03600
C 	C 	0.95740 0.37750 0.94940 -0.05800
H 	H 	0.86970 0.38730 0.95490 0.03400
C 	C 	0.05520 0.38730 0.96970 0.00100
H 	H 	0.03240 0.39720 0.98970 -0.01600
Ag	Ag	0.50000 0.48717 0.25000 0.48000
Ag	Ag	0.50000 0.25179 0.25000 0.47900
Ag	Ag	0.00000 0.98717 0.25000 0.47000
Ag	Ag	0.00000 0.75179 0.25000 0.46900
Ag	Ag	0.50000 0.51283 0.75000 0.48000
Ag	Ag	0.50000 0.74821 0.75000 0.47900
Ag	Ag	0.00000 0.01283 0.75000 0.47000
Ag	Ag	-0.00000 0.24821 0.75000 0.46900
