data_crystal

_cell_length_a 29.99900
_cell_length_b 29.99900
_cell_length_c 29.99900
_cell_angle_alpha 90.00000
_cell_angle_beta  90.00000
_cell_angle_gamma 90.00000

_symmetry_space_group_name_	'P 1'
_symmetry_space_group_name_H-M	'P 1'

loop_
_symmetry_equiv_pos_as_xyz
  x,y,z

loop_
_atom_site_label
_atom_site_type_symbol
_atom_site_fract_x
_atom_site_fract_y
_atom_site_fract_z
_atom_site_charge
Zr	Zr	0.00000 0.58455 0.50000 3.22400
Zr	Zr	0.00000 0.41545 0.50000 3.22300
Zr	Zr	0.00000 0.50000 0.58455 3.22400
Zr	Zr	0.00000 0.50000 0.41545 3.22300
Zr	Zr	0.08455 0.50000 0.50000 3.23400
Zr	Zr	0.91545 0.50000 0.50000 3.23400
O 	O 	0.03676 0.53676 0.53676 -1.05700
O 	O 	0.96324 0.46324 0.53676 -0.98000
O 	O 	0.96324 0.53676 0.46324 -0.98100
O 	O 	0.03676 0.46324 0.46324 -1.06300
O 	O 	0.96324 0.53676 0.53676 -0.97900
O 	O 	0.03676 0.53676 0.46324 -1.06100
O 	O 	0.96324 0.46324 0.46324 -0.98300
O 	O 	0.03676 0.46324 0.53676 -1.06100
O 	O 	0.00000 0.60759 0.57726 -1.60300
O 	O 	-0.00000 0.39241 0.57726 -1.59900
O 	O 	-0.00000 0.60759 0.42274 -1.59300
O 	O 	-0.00000 0.39241 0.42274 -1.58800
O 	O 	0.07726 0.50000 0.60759 -1.56900
O 	O 	0.07726 0.50000 0.39241 -1.56500
O 	O 	0.92274 0.50000 0.60759 -1.52900
O 	O 	0.92274 0.50000 0.39241 -1.52500
O 	O 	0.10759 0.57726 0.50000 -1.56300
O 	O 	0.89241 0.57726 0.50000 -1.56400
O 	O 	0.10759 0.42274 0.50000 -1.55200
O 	O 	0.89241 0.42274 0.50000 -1.55300
O 	O 	0.10759 0.50000 0.42274 -1.55200
O 	O 	0.89241 0.50000 0.42274 -1.55300
O 	O 	0.10759 0.50000 0.57726 -1.56300
O 	O 	0.89241 0.50000 0.57726 -1.56400
O 	O 	-0.00000 0.57726 0.39241 -1.59900
O 	O 	0.00000 0.57726 0.60759 -1.60300
O 	O 	-0.00000 0.42274 0.39241 -1.58800
O 	O 	-0.00000 0.42274 0.60759 -1.59300
O 	O 	0.07726 0.60759 0.50000 -1.56900
O 	O 	0.07726 0.39241 0.50000 -1.56500
O 	O 	0.92274 0.60759 0.50000 -1.52900
O 	O 	0.92274 0.39241 0.50000 -1.52500
C 	C 	0.00000 0.60611 0.60611 2.23500
C 	C 	0.00000 0.39389 0.60611 2.20700
C 	C 	0.00000 0.60611 0.39389 2.20700
C 	C 	0.00000 0.39389 0.39389 2.17800
C 	C 	0.10611 0.50000 0.60611 2.20600
C 	C 	0.10611 0.50000 0.39389 2.17700
C 	C 	0.89389 0.50000 0.60611 2.23300
C 	C 	0.89389 0.50000 0.39389 2.20500
C 	C 	0.10611 0.60611 0.50000 2.20600
C 	C 	0.89389 0.60611 0.50000 2.23300
C 	C 	0.10611 0.39389 0.50000 2.17700
C 	C 	0.89389 0.39389 0.50000 2.20500
Zr	Zr	0.00000 0.08455 -0.00000 3.21200
Zr	Zr	-0.00000 0.91545 -0.00000 3.21200
Zr	Zr	0.08455 0.00000 -0.00000 3.21200
Zr	Zr	0.91545 0.00000 -0.00000 3.21200
Zr	Zr	0.00000 0.00000 0.91545 3.21200
Zr	Zr	0.00000 0.00000 0.08455 3.21200
O 	O 	0.03676 0.03676 0.03676 -1.11500
O 	O 	0.96324 0.96324 0.03676 -0.95700
O 	O 	0.96324 0.03676 0.96324 -0.95700
O 	O 	0.03676 0.96324 0.96324 -0.95700
O 	O 	0.96324 0.96324 0.96324 -0.88200
O 	O 	0.03676 0.03676 0.96324 -1.03500
O 	O 	0.96324 0.03676 0.03676 -1.03500
O 	O 	0.03676 0.96324 0.03676 -1.03500
O 	O 	0.00000 0.10759 0.07726 -1.59400
O 	O 	0.00000 0.89241 0.07726 -1.59500
O 	O 	-0.00000 0.10759 0.92274 -1.55400
O 	O 	0.00000 0.89241 0.92274 -1.55600
O 	O 	0.07726 0.00000 0.10759 -1.59400
O 	O 	0.07726 0.00000 0.89241 -1.59500
O 	O 	0.92274 0.00000 0.10759 -1.55400
O 	O 	0.92274 0.00000 0.89241 -1.55600
O 	O 	0.10759 0.07726 -0.00000 -1.59400
O 	O 	0.89241 0.07726 -0.00000 -1.59500
O 	O 	0.10759 0.92274 -0.00000 -1.55400
O 	O 	0.89241 0.92274 -0.00000 -1.55600
O 	O 	0.10759 0.00000 0.92274 -1.55400
O 	O 	0.89241 0.00000 0.92274 -1.55600
O 	O 	0.10759 0.00000 0.07726 -1.59400
O 	O 	0.89241 0.00000 0.07726 -1.59500
O 	O 	0.00000 0.07726 0.89241 -1.59500
O 	O 	0.00000 0.07726 0.10759 -1.59400
O 	O 	0.00000 0.92274 0.89241 -1.55600
O 	O 	-0.00000 0.92274 0.10759 -1.55400
O 	O 	0.07726 0.10759 -0.00000 -1.59400
O 	O 	0.07726 0.89241 -0.00000 -1.59500
O 	O 	0.92274 0.10759 -0.00000 -1.55400
O 	O 	0.92274 0.89241 -0.00000 -1.55600
C 	C 	0.00000 0.10611 0.10611 2.16800
C 	C 	0.00000 0.89389 0.10611 2.19400
C 	C 	0.00000 0.10611 0.89389 2.19400
C 	C 	0.00000 0.89389 0.89389 2.22100
C 	C 	0.10611 0.00000 0.10611 2.16800
C 	C 	0.10611 0.00000 0.89389 2.19400
C 	C 	0.89389 0.00000 0.10611 2.19400
C 	C 	0.89389 0.00000 0.89389 2.22100
C 	C 	0.10611 0.10611 -0.00000 2.16800
C 	C 	0.89389 0.10611 -0.00000 2.19400
C 	C 	0.10611 0.89389 -0.00000 2.19400
C 	C 	0.89389 0.89389 -0.00000 2.22100
Zr	Zr	0.50000 0.08455 0.50000 3.23300
Zr	Zr	0.50000 0.91545 0.50000 3.23300
Zr	Zr	0.50000 0.00000 0.58455 3.22300
Zr	Zr	0.50000 0.00000 0.41545 3.22200
Zr	Zr	0.58455 0.00000 0.50000 3.22300
Zr	Zr	0.41545 0.00000 0.50000 3.22200
O 	O 	0.53676 0.96324 0.46324 -0.98100
O 	O 	0.53676 0.03676 0.53676 -1.05800
O 	O 	0.46324 0.96324 0.53676 -0.98100
O 	O 	0.46324 0.03676 0.46324 -1.06300
O 	O 	0.53676 0.03676 0.46324 -1.06100
O 	O 	0.46324 0.96324 0.46324 -0.98300
O 	O 	0.53676 0.96324 0.53676 -0.97900
O 	O 	0.46324 0.03676 0.53676 -1.06100
O 	O 	0.50000 0.10759 0.57726 -1.56300
O 	O 	0.50000 0.89241 0.57726 -1.56400
O 	O 	0.50000 0.10759 0.42274 -1.55200
O 	O 	0.50000 0.89241 0.42274 -1.55300
O 	O 	0.57726 0.00000 0.60759 -1.60300
O 	O 	0.57726 0.00000 0.39241 -1.59900
O 	O 	0.42274 0.00000 0.60759 -1.59300
O 	O 	0.42274 0.00000 0.39241 -1.58800
O 	O 	0.60759 0.07726 0.50000 -1.56900
O 	O 	0.39241 0.07726 0.50000 -1.56500
O 	O 	0.60759 0.92274 0.50000 -1.52900
O 	O 	0.39241 0.92274 0.50000 -1.52500
O 	O 	0.60759 0.00000 0.42274 -1.59300
O 	O 	0.39241 0.00000 0.42274 -1.58800
O 	O 	0.60759 0.00000 0.57726 -1.60300
O 	O 	0.39241 0.00000 0.57726 -1.59900
O 	O 	0.50000 0.07726 0.39241 -1.56500
O 	O 	0.50000 0.07726 0.60759 -1.56900
O 	O 	0.50000 0.92274 0.39241 -1.52500
O 	O 	0.50000 0.92274 0.60759 -1.52900
O 	O 	0.57726 0.10759 0.50000 -1.56300
O 	O 	0.57726 0.89241 0.50000 -1.56400
O 	O 	0.42274 0.10759 0.50000 -1.55200
O 	O 	0.42274 0.89241 0.50000 -1.55300
C 	C 	0.50000 0.10611 0.60611 2.20600
C 	C 	0.50000 0.89389 0.60611 2.23300
C 	C 	0.50000 0.10611 0.39389 2.17700
C 	C 	0.50000 0.89389 0.39389 2.20500
C 	C 	0.60611 0.00000 0.60611 2.23500
C 	C 	0.60611 0.00000 0.39389 2.20700
C 	C 	0.39389 0.00000 0.60611 2.20700
C 	C 	0.39389 0.00000 0.39389 2.17800
C 	C 	0.60611 0.10611 0.50000 2.20600
C 	C 	0.39389 0.10611 0.50000 2.17700
C 	C 	0.60611 0.89389 0.50000 2.23300
C 	C 	0.39389 0.89389 0.50000 2.20500
Zr	Zr	0.50000 0.58455 -0.00000 3.22300
Zr	Zr	0.50000 0.41545 -0.00000 3.22200
Zr	Zr	0.50000 0.50000 0.08455 3.23300
Zr	Zr	0.50000 0.50000 0.91545 3.23300
Zr	Zr	0.58455 0.50000 -0.00000 3.22300
Zr	Zr	0.41545 0.50000 -0.00000 3.22200
O 	O 	0.53676 0.46324 0.96324 -0.98100
O 	O 	0.46324 0.53676 0.96324 -0.98100
O 	O 	0.53676 0.53676 0.03676 -1.05800
O 	O 	0.46324 0.46324 0.03676 -1.06300
O 	O 	0.53676 0.53676 0.96324 -0.97900
O 	O 	0.53676 0.46324 0.03676 -1.06100
O 	O 	0.46324 0.53676 0.03676 -1.06100
O 	O 	0.46324 0.46324 0.96324 -0.98300
O 	O 	0.50000 0.60759 0.07726 -1.56900
O 	O 	0.50000 0.39241 0.07726 -1.56500
O 	O 	0.50000 0.60759 0.92274 -1.52900
O 	O 	0.50000 0.39241 0.92274 -1.52500
O 	O 	0.57726 0.50000 0.10759 -1.56300
O 	O 	0.57726 0.50000 0.89241 -1.56400
O 	O 	0.42274 0.50000 0.10759 -1.55200
O 	O 	0.42274 0.50000 0.89241 -1.55300
O 	O 	0.60759 0.57726 -0.00000 -1.60300
O 	O 	0.39241 0.57726 -0.00000 -1.59900
O 	O 	0.60759 0.42274 -0.00000 -1.59300
O 	O 	0.39241 0.42274 -0.00000 -1.58800
O 	O 	0.60759 0.50000 0.92274 -1.52900
O 	O 	0.39241 0.50000 0.92274 -1.52500
O 	O 	0.60759 0.50000 0.07726 -1.56900
O 	O 	0.39241 0.50000 0.07726 -1.56500
O 	O 	0.50000 0.57726 0.89241 -1.56400
O 	O 	0.50000 0.57726 0.10759 -1.56300
O 	O 	0.50000 0.42274 0.89241 -1.55300
O 	O 	0.50000 0.42274 0.10759 -1.55200
O 	O 	0.57726 0.60759 -0.00000 -1.60300
O 	O 	0.57726 0.39241 -0.00000 -1.59900
O 	O 	0.42274 0.60759 -0.00000 -1.59300
O 	O 	0.42274 0.39241 -0.00000 -1.58800
C 	C 	0.50000 0.60611 0.10611 2.20600
C 	C 	0.50000 0.39389 0.10611 2.17700
C 	C 	0.50000 0.60611 0.89389 2.23300
C 	C 	0.50000 0.39389 0.89389 2.20500
C 	C 	0.60611 0.50000 0.10611 2.20600
C 	C 	0.60611 0.50000 0.89389 2.23300
C 	C 	0.39389 0.50000 0.10611 2.17700
C 	C 	0.39389 0.50000 0.89389 2.20500
C 	C 	0.60611 0.60611 -0.00000 2.23500
C 	C 	0.39389 0.60611 -0.00000 2.20700
C 	C 	0.60611 0.39389 -0.00000 2.20700
C 	C 	0.39389 0.39389 -0.00000 2.17800
