data_crystal

_cell_length_a 9.09680
_cell_length_b 9.67630
_cell_length_c 11.50650
_cell_angle_alpha 106.91400
_cell_angle_beta  93.96700
_cell_angle_gamma 108.27000

_symmetry_space_group_name_	'P 1'
_symmetry_space_group_name_H-M	'P 1'

loop_
_symmetry_equiv_pos_as_xyz
  x,y,z

loop_
_atom_site_label
_atom_site_type_symbol
_atom_site_fract_x
_atom_site_fract_y
_atom_site_fract_z
_atom_site_charge
Eu	Eu	0.27846 0.02824 0.99159 1.87800
O 	O 	0.41900 0.88720 0.04720 -0.58500
O 	O 	0.91280 0.22790 0.07930 -0.46300
O 	O 	0.12090 0.98890 0.79140 -0.39400
O 	O 	0.13440 0.18100 0.04570 -0.56600
O 	O 	0.57320 0.76030 0.07710 -0.45400
O 	O 	0.30410 0.88420 0.78600 -0.41600
C 	C 	0.01240 0.83600 0.53400 0.11700
C 	C 	0.18190 0.69230 0.53810 0.09800
C 	C 	0.12600 0.60940 0.41360 -0.20500
C 	C 	0.28670 0.50040 0.06860 0.02700
C 	C 	0.12350 0.80670 0.59880 -0.16000
N 	N 	0.08810 0.55240 0.14490 -0.03900
N 	N 	0.18970 0.68910 0.14460 -0.08000
C 	C 	0.05790 0.26970 0.07570 0.45800
C 	C 	0.14400 0.43620 0.09870 -0.09100
C 	C 	0.31040 0.65500 0.09810 -0.06400
C 	C 	0.01550 0.64320 0.34620 0.16700
C 	C 	0.95870 0.55850 0.21100 -0.14300
C 	C 	0.18790 0.90000 0.73150 0.34400
C 	C 	0.95880 0.75660 0.40820 -0.22700
C 	C 	0.44230 0.77480 0.07370 0.39200
H 	H 	0.18700 0.55600 0.38300 0.11200
H 	H 	0.25800 0.64800 0.57500 0.00200
H 	H 	0.92500 0.86500 0.58300 -0.00500
H 	H 	0.89800 0.78400 0.35800 0.11000
H 	H 	0.87200 0.46200 0.19400 0.09100
H 	H 	0.89000 0.62200 0.18000 0.06300
H 	H 	0.35200 0.44500 0.03400 0.02900
Eu	Eu	0.72154 0.97176 0.00841 1.87900
O 	O 	0.58100 0.11280 0.95280 -0.58400
O 	O 	0.08720 0.77210 0.92070 -0.46200
O 	O 	0.87910 0.01110 0.20860 -0.39300
O 	O 	0.86560 0.81900 0.95430 -0.56500
O 	O 	0.42680 0.23970 0.92290 -0.45300
O 	O 	0.69590 0.11580 0.21400 -0.41500
C 	C 	0.98760 0.16400 0.46600 0.11800
C 	C 	0.81810 0.30770 0.46190 0.09800
C 	C 	0.87400 0.39060 0.58640 -0.20500
C 	C 	0.71330 0.49960 0.93140 0.02700
C 	C 	0.87650 0.19330 0.40120 -0.16000
N 	N 	0.91190 0.44760 0.85510 -0.03900
N 	N 	0.81030 0.31090 0.85540 -0.08000
C 	C 	0.94210 0.73030 0.92430 0.45800
C 	C 	0.85600 0.56380 0.90130 -0.09100
C 	C 	0.68960 0.34500 0.90190 -0.06400
C 	C 	0.98450 0.35680 0.65380 0.16700
C 	C 	0.04130 0.44150 0.78900 -0.14300
C 	C 	0.81210 0.10000 0.26850 0.34400
C 	C 	0.04120 0.24340 0.59180 -0.22700
C 	C 	0.55770 0.22520 0.92630 0.39200
H 	H 	0.81300 0.44400 0.61700 0.11200
H 	H 	0.74200 0.35200 0.42500 0.00200
H 	H 	0.07500 0.13500 0.41700 -0.00500
H 	H 	0.10200 0.21600 0.64200 0.11000
H 	H 	0.12800 0.53800 0.80600 0.09100
H 	H 	0.11000 0.37800 0.82000 0.06300
H 	H 	0.64800 0.55500 0.96600 0.02900
