data_crystal

_cell_length_a 9.09120
_cell_length_b 9.64450
_cell_length_c 11.51350
_cell_angle_alpha 106.89400
_cell_angle_beta  93.99300
_cell_angle_gamma 108.21500

_symmetry_space_group_name_	'P 1'
_symmetry_space_group_name_H-M	'P 1'

loop_
_symmetry_equiv_pos_as_xyz
  x,y,z

loop_
_atom_site_label
_atom_site_type_symbol
_atom_site_fract_x
_atom_site_fract_y
_atom_site_fract_z
_atom_site_charge
Dy	Dy	0.27898 0.52825 0.99142 1.75500
O 	O 	0.13630 0.68150 0.04510 -0.54700
O 	O 	0.11790 0.48630 0.78990 -0.38000
O 	O 	0.41890 0.38870 0.04740 -0.55000
O 	O 	0.91460 0.72650 0.07860 -0.47400
O 	O 	0.57230 0.25850 0.07760 -0.42400
O 	O 	0.30410 0.38510 0.78810 -0.40800
C 	C 	0.28580 0.99760 0.06960 0.03200
C 	C 	0.14500 0.93780 0.09870 -0.08700
N 	N 	0.09110 0.05320 0.14510 -0.04400
C 	C 	0.05390 0.76600 0.07240 0.47500
N 	N 	0.18810 0.18760 0.14460 -0.07600
C 	C 	0.44200 0.27600 0.07350 0.38400
C 	C 	0.95600 0.25400 0.40760 -0.09900
C 	C 	0.31380 0.15580 0.09660 -0.07000
C 	C 	0.01420 0.14350 0.34920 0.08200
C 	C 	0.01000 0.33400 0.53400 0.03200
C 	C 	0.12570 0.30810 0.59900 -0.10700
C 	C 	0.18860 0.39970 0.73290 0.32800
C 	C 	0.95860 0.05630 0.21200 -0.12700
C 	C 	0.12660 0.10850 0.41330 -0.08500
C 	C 	0.18390 0.19190 0.53880 0.02800
H 	H 	0.35900 0.96500 0.00100 0.03200
H 	H 	0.88000 0.96000 0.18400 0.09200
H 	H 	0.16400 0.02500 0.34500 0.05900
H 	H 	0.95400 0.39100 0.60700 0.03000
H 	H 	0.27800 0.19400 0.60600 0.03100
H 	H 	0.93000 0.29200 0.32900 0.05900
H 	H 	0.89000 0.10600 0.16300 0.06200
Dy	Dy	0.72102 0.47175 0.00858 1.75400
O 	O 	0.86370 0.31850 0.95490 -0.54800
O 	O 	0.88210 0.51370 0.21010 -0.38100
O 	O 	0.58110 0.61130 0.95260 -0.55100
O 	O 	0.08540 0.27350 0.92140 -0.47500
O 	O 	0.42770 0.74150 0.92240 -0.42500
O 	O 	0.69590 0.61490 0.21190 -0.40800
C 	C 	0.71420 0.00240 0.93040 0.03200
C 	C 	0.85500 0.06220 0.90130 -0.08700
N 	N 	0.90890 0.94680 0.85490 -0.04400
C 	C 	0.94610 0.23400 0.92760 0.47500
N 	N 	0.81190 0.81240 0.85540 -0.07600
C 	C 	0.55800 0.72400 0.92650 0.38400
C 	C 	0.04400 0.74600 0.59240 -0.09900
C 	C 	0.68620 0.84420 0.90340 -0.07000
C 	C 	0.98580 0.85650 0.65080 0.08200
C 	C 	0.99000 0.66600 0.46600 0.03200
C 	C 	0.87430 0.69190 0.40100 -0.10700
C 	C 	0.81140 0.60030 0.26710 0.32800
C 	C 	0.04140 0.94370 0.78800 -0.12700
C 	C 	0.87340 0.89150 0.58670 -0.08500
C 	C 	0.81610 0.80810 0.46120 0.02800
H 	H 	0.64100 0.03500 0.99900 0.03200
H 	H 	0.12000 0.04000 0.81600 0.09200
H 	H 	0.83600 0.97500 0.65500 0.05900
H 	H 	0.04600 0.60900 0.39300 0.03000
H 	H 	0.72200 0.80600 0.39400 0.03100
H 	H 	0.07000 0.70800 0.67100 0.05900
H 	H 	0.11000 0.89400 0.83700 0.06200
