data_crystal

_cell_length_a 9.12830
_cell_length_b 9.66030
_cell_length_c 11.54820
_cell_angle_alpha 106.82900
_cell_angle_beta  93.77200
_cell_angle_gamma 108.02700

_symmetry_space_group_name_	'P 1'
_symmetry_space_group_name_H-M	'P 1'

loop_
_symmetry_equiv_pos_as_xyz
  x,y,z

loop_
_atom_site_label
_atom_site_type_symbol
_atom_site_fract_x
_atom_site_fract_y
_atom_site_fract_z
_atom_site_charge
Gd	Gd	0.27849 0.52876 0.99084 1.51300
O 	O 	0.13090 0.68140 0.04330 -0.47800
O 	O 	0.42280 0.38980 0.05130 -0.48400
O 	O 	0.11900 0.48610 0.78940 -0.35500
O 	O 	0.91120 0.73140 0.07950 -0.41100
O 	O 	0.30400 0.38300 0.78540 -0.37400
O 	O 	0.57290 0.25620 0.08060 -0.38600
C 	C 	0.01100 0.33500 0.53440 0.08000
H 	H 	0.96800 0.40968 0.57615 0.01200
C 	C 	0.96000 0.25900 0.41070 -0.18200
H 	H 	0.88496 0.28414 0.36760 0.09700
N 	N 	0.09200 0.05640 0.14720 -0.04100
C 	C 	0.44450 0.27540 0.07700 0.34800
N 	N 	0.19020 0.19070 0.14570 -0.07600
C 	C 	0.05350 0.77170 0.07370 0.41000
C 	C 	0.12200 0.30400 0.59840 -0.13600
C 	C 	0.31180 0.15480 0.09960 -0.04000
C 	C 	0.28640 0.00080 0.06960 0.00600
H 	H 	0.35348 0.94819 0.03456 0.04000
C 	C 	0.14680 0.93890 0.09990 -0.06700
C 	C 	0.95890 0.06110 0.21210 -0.17300
H 	H 	0.88919 0.95471 0.19980 0.10300
H 	H 	0.89797 0.11304 0.17746 0.09400
C 	C 	0.01510 0.14670 0.34850 0.15000
C 	C 	0.18950 0.39960 0.73080 0.32700
C 	C 	0.18200 0.19420 0.53540 0.07900
H 	H 	0.26231 0.17426 0.57760 0.01200
C 	C 	0.12800 0.11400 0.41240 -0.16700
H 	H 	0.16655 0.03569 0.37113 0.09500
Gd	Gd	0.72151 0.47124 0.00916 1.51400
O 	O 	0.86910 0.31860 0.95670 -0.47700
O 	O 	0.57720 0.61020 0.94870 -0.48300
O 	O 	0.88100 0.51390 0.21060 -0.35400
O 	O 	0.08880 0.26860 0.92050 -0.41000
O 	O 	0.69600 0.61700 0.21460 -0.37300
O 	O 	0.42710 0.74380 0.91940 -0.38500
C 	C 	0.98900 0.66500 0.46560 0.08100
H 	H 	0.03200 0.59032 0.42385 0.01200
C 	C 	0.04000 0.74100 0.58930 -0.18200
H 	H 	0.11504 0.71586 0.63240 0.09700
N 	N 	0.90800 0.94360 0.85280 -0.04100
C 	C 	0.55550 0.72460 0.92300 0.34800
N 	N 	0.80980 0.80930 0.85430 -0.07600
C 	C 	0.94650 0.22830 0.92630 0.41000
C 	C 	0.87800 0.69600 0.40160 -0.13600
C 	C 	0.68820 0.84520 0.90040 -0.04000
C 	C 	0.71360 0.99920 0.93040 0.00600
H 	H 	0.64652 0.05181 0.96544 0.04000
C 	C 	0.85320 0.06110 0.90010 -0.06700
C 	C 	0.04110 0.93890 0.78790 -0.17300
H 	H 	0.11081 0.04529 0.80020 0.10300
H 	H 	0.10203 0.88696 0.82254 0.09400
C 	C 	0.98490 0.85330 0.65150 0.15000
C 	C 	0.81050 0.60040 0.26920 0.32700
C 	C 	0.81800 0.80580 0.46460 0.07900
H 	H 	0.73769 0.82574 0.42240 0.01200
C 	C 	0.87200 0.88600 0.58760 -0.16700
H 	H 	0.83345 0.96431 0.62887 0.09500
