data_crystal

_cell_length_a 9.08080
_cell_length_b 9.64100
_cell_length_c 11.64160
_cell_angle_alpha 108.05100
_cell_angle_beta  94.17000
_cell_angle_gamma 108.17400

_symmetry_space_group_name_	'P 1'
_symmetry_space_group_name_H-M	'P 1'

loop_
_symmetry_equiv_pos_as_xyz
  x,y,z

loop_
_atom_site_label
_atom_site_type_symbol
_atom_site_fract_x
_atom_site_fract_y
_atom_site_fract_z
_atom_site_charge
Tb	Tb	0.27890 0.02876 0.99152 1.77200
O 	O 	0.42250 0.89070 0.05070 -0.55900
O 	O 	0.30120 0.88090 0.78710 -0.40500
O 	O 	0.91140 0.22560 0.07580 -0.46400
O 	O 	0.57600 0.76070 0.07790 -0.43000
O 	O 	0.11680 0.98390 0.79440 -0.37900
C 	C 	0.95640 0.56350 0.21020 -0.22000
C 	C 	0.05510 0.26940 0.07370 0.46200
N 	N 	0.19190 0.69520 0.14630 -0.07900
N 	N 	0.08990 0.55870 0.14570 -0.03400
C 	C 	0.28810 0.50410 0.07060 0.02900
C 	C 	0.44460 0.77910 0.07500 0.38400
C 	C 	0.18450 0.89430 0.73390 0.33900
C 	C 	0.31320 0.65910 0.09850 -0.06500
C 	C 	0.12120 0.80440 0.59790 -0.13900
C 	C 	0.14540 0.44040 0.10050 -0.08900
C 	C 	0.01510 0.64810 0.34750 0.15300
C 	C 	0.12680 0.61220 0.41140 -0.16500
C 	C 	0.18070 0.69120 0.53460 0.07700
C 	C 	0.00710 0.83430 0.53610 0.09000
C 	C 	0.95600 0.75910 0.41060 -0.17300
O 	O 	0.13580 0.18370 0.04680 -0.54400
H 	H 	0.36700 0.45800 0.02600 0.03200
H 	H 	0.27700 0.65300 0.56800 0.01100
H 	H 	0.88400 0.47500 0.19100 0.13800
H 	H 	0.19500 0.56300 0.36900 0.08900
H 	H 	0.92300 0.89500 0.56400 0.00700
H 	H 	0.87500 0.76300 0.34700 0.07900
H 	H 	0.91300 0.64300 0.17900 0.08600
Tb	Tb	0.72110 0.97124 0.00848 1.77100
O 	O 	0.57750 0.10930 0.94930 -0.56000
O 	O 	0.69880 0.11910 0.21290 -0.40600
O 	O 	0.08860 0.77440 0.92420 -0.46500
O 	O 	0.42400 0.23930 0.92210 -0.43100
O 	O 	0.88320 0.01610 0.20560 -0.38000
C 	C 	0.04360 0.43650 0.78980 -0.22000
C 	C 	0.94490 0.73060 0.92630 0.46200
N 	N 	0.80810 0.30480 0.85370 -0.07900
N 	N 	0.91010 0.44130 0.85430 -0.03400
C 	C 	0.71190 0.49590 0.92940 0.02900
C 	C 	0.55540 0.22090 0.92500 0.38400
C 	C 	0.81550 0.10570 0.26610 0.33900
C 	C 	0.68680 0.34090 0.90150 -0.06500
C 	C 	0.87880 0.19560 0.40210 -0.13900
C 	C 	0.85460 0.55960 0.89950 -0.08900
C 	C 	0.98490 0.35190 0.65250 0.15300
C 	C 	0.87320 0.38780 0.58860 -0.16500
C 	C 	0.81930 0.30880 0.46540 0.07700
C 	C 	0.99290 0.16570 0.46390 0.09000
C 	C 	0.04400 0.24090 0.58940 -0.17300
O 	O 	0.86420 0.81630 0.95320 -0.54400
H 	H 	0.63300 0.54200 0.97400 0.03200
H 	H 	0.72300 0.34700 0.43200 0.01100
H 	H 	0.11600 0.52500 0.80900 0.13800
H 	H 	0.80500 0.43700 0.63100 0.08900
H 	H 	0.07700 0.10500 0.43600 0.00700
H 	H 	0.12500 0.23700 0.65300 0.07900
H 	H 	0.08700 0.35700 0.82100 0.08600
