data_crystal

_cell_length_a 8.23260
_cell_length_b 13.55450
_cell_length_c 17.47590
_cell_angle_alpha 90.00000
_cell_angle_beta  90.00000
_cell_angle_gamma 90.00000

_symmetry_space_group_name_	'P 1'
_symmetry_space_group_name_H-M	'P 1'

loop_
_symmetry_equiv_pos_as_xyz
  x,y,z

loop_
_atom_site_label
_atom_site_type_symbol
_atom_site_fract_x
_atom_site_fract_y
_atom_site_fract_z
_atom_site_charge
C 	C 	0.65550 0.95260 0.91460 -0.49900
H 	H 	0.73100 0.91480 0.94560 0.15500
H 	H 	0.71250 0.97680 0.86980 0.16400
C 	C 	0.58900 0.03450 0.95850 0.56300
C 	C 	0.58200 0.03020 0.03550 -1.32800
H 	H 	0.65530 0.98060 0.05380 0.40500
H 	H 	0.47300 0.01390 0.05100 0.40800
H 	H 	0.61110 0.09310 0.05660 0.39500
C 	C 	0.48190 0.11060 0.91080 -0.41300
C 	C 	0.38970 0.18150 0.96370 0.43100
C 	C 	0.53100 0.18360 0.78180 -0.18200
C 	C 	0.49430 0.09030 0.73720 0.14000
C 	C 	0.61240 0.02480 0.71470 -0.20600
H 	H 	0.72010 0.03600 0.72830 0.07600
C 	C 	0.57150 0.94130 0.67150 0.10200
H 	H 	0.65360 0.89840 0.65640 -0.04700
C 	C 	0.30490 0.98490 0.67280 0.10900
H 	H 	0.19820 0.97230 0.65840 -0.07200
C 	C 	0.33560 0.06840 0.71530 -0.21400
H 	H 	0.25070 0.10990 0.72940 0.08000
N 	N 	0.41880 0.92140 0.65130 -0.28900
N 	N 	0.59410 0.16580 0.86000 -0.20600
O 	O 	0.27040 0.14520 0.99816 -0.53300
O 	O 	0.43890 0.26830 0.97028 -0.52400
Zn	Zn	0.15366 0.20017 0.08627 1.18400
H 	H 	0.68900 0.12800 0.84900 0.04100
H 	H 	0.40000 0.08600 0.87700 0.17100
H 	H 	0.42900 0.19400 0.78400 0.08300
C 	C 	0.84450 0.04740 0.41460 -0.51700
H 	H 	0.76900 0.08520 0.44560 0.16100
H 	H 	0.78750 0.02320 0.36980 0.16900
C 	C 	0.91100 0.96550 0.45850 0.58800
C 	C 	0.91800 0.96980 0.53550 -1.37200
H 	H 	0.84470 0.01940 0.55380 0.41800
H 	H 	0.02700 0.98610 0.55100 0.42000
H 	H 	0.88890 0.90690 0.55660 0.40800
C 	C 	0.01810 0.88940 0.41080 -0.42200
C 	C 	0.11030 0.81850 0.46370 0.43400
C 	C 	0.96900 0.81640 0.28180 -0.17400
C 	C 	0.00570 0.90970 0.23720 0.13200
C 	C 	0.88760 0.97520 0.21470 -0.19900
H 	H 	0.77990 0.96400 0.22830 0.07400
C 	C 	0.92850 0.05870 0.17150 0.09900
H 	H 	0.84640 0.10160 0.15640 -0.04500
C 	C 	0.19510 0.01510 0.17280 0.10800
H 	H 	0.30180 0.02770 0.15840 -0.07100
C 	C 	0.16440 0.93160 0.21530 -0.21100
H 	H 	0.24930 0.89010 0.22940 0.07900
N 	N 	0.08120 0.07860 0.15130 -0.28800
N 	N 	0.90590 0.83420 0.36000 -0.20500
O 	O 	0.22960 0.85480 0.49816 -0.53500
O 	O 	0.06110 0.73170 0.47028 -0.52500
Zn	Zn	0.34634 0.79983 0.58627 1.18400
H 	H 	0.81100 0.87200 0.34900 0.04100
H 	H 	0.10000 0.91400 0.37700 0.17400
H 	H 	0.07100 0.80600 0.28400 0.07900
C 	C 	0.34450 0.45260 0.58540 -0.51700
H 	H 	0.26900 0.41480 0.55440 0.16100
H 	H 	0.28750 0.47680 0.63020 0.17000
C 	C 	0.41100 0.53450 0.54150 0.58900
C 	C 	0.41800 0.53020 0.46450 -1.37900
H 	H 	0.34470 0.48060 0.44620 0.42200
H 	H 	0.52700 0.51390 0.44900 0.42200
H 	H 	0.38890 0.59310 0.44340 0.41000
C 	C 	0.51810 0.61060 0.58920 -0.42200
C 	C 	0.61030 0.68150 0.53630 0.43400
C 	C 	0.46900 0.68360 0.71820 -0.18000
C 	C 	0.50570 0.59030 0.76280 0.13700
C 	C 	0.38760 0.52480 0.78530 -0.20200
H 	H 	0.27990 0.53600 0.77170 0.07600
C 	C 	0.42850 0.44130 0.82850 0.09900
H 	H 	0.34640 0.39840 0.84360 -0.04500
C 	C 	0.69510 0.48490 0.82720 0.10600
H 	H 	0.80180 0.47230 0.84160 -0.07100
C 	C 	0.66440 0.56840 0.78470 -0.21000
H 	H 	0.74930 0.60990 0.77060 0.07800
N 	N 	0.58120 0.42140 0.84870 -0.28800
N 	N 	0.40590 0.66580 0.64000 -0.20500
O 	O 	0.72960 0.64520 0.50184 -0.53500
O 	O 	0.56110 0.76830 0.52972 -0.52500
Zn	Zn	0.84634 0.70017 0.41373 1.18400
H 	H 	0.31100 0.62800 0.65100 0.04200
H 	H 	0.60000 0.58600 0.62300 0.17400
H 	H 	0.57100 0.69400 0.71600 0.08200
C 	C 	0.15550 0.54740 0.08540 -0.49800
H 	H 	0.23100 0.58520 0.05440 0.15500
H 	H 	0.21250 0.52320 0.13020 0.16400
C 	C 	0.08900 0.46550 0.04150 0.55400
C 	C 	0.08200 0.46980 0.96450 -1.30300
H 	H 	0.15530 0.51940 0.94620 0.40000
H 	H 	0.97300 0.48610 0.94900 0.39600
H 	H 	0.11110 0.40690 0.94340 0.38800
C 	C 	0.98190 0.38940 0.08920 -0.40500
C 	C 	0.88970 0.31850 0.03630 0.42900
C 	C 	0.03100 0.31640 0.21820 -0.18400
C 	C 	0.99430 0.40970 0.26280 0.14100
C 	C 	0.11240 0.47520 0.28530 -0.20500
H 	H 	0.22010 0.46400 0.27170 0.07600
C 	C 	0.07150 0.55870 0.32850 0.09900
H 	H 	0.15360 0.60160 0.34360 -0.04600
C 	C 	0.80490 0.51510 0.32720 0.10700
H 	H 	0.69820 0.52770 0.34160 -0.07200
C 	C 	0.83560 0.43160 0.28470 -0.21200
H 	H 	0.75070 0.39010 0.27060 0.07900
N 	N 	0.91880 0.57860 0.34870 -0.28800
N 	N 	0.09410 0.33420 0.14000 -0.20700
O 	O 	0.77040 0.35480 0.00184 -0.53100
O 	O 	0.93890 0.23170 0.02972 -0.52100
Zn	Zn	0.65366 0.29983 0.91373 1.18400
H 	H 	0.18900 0.37200 0.15100 0.04200
H 	H 	0.90000 0.41400 0.12300 0.16900
H 	H 	0.92900 0.30600 0.21600 0.08400
