data_crystal

_cell_length_a 14.10700
_cell_length_b 15.16300
_cell_length_c 17.76500
_cell_angle_alpha 90.00000
_cell_angle_beta  111.02500
_cell_angle_gamma 90.00000

_symmetry_space_group_name_	'P 1'
_symmetry_space_group_name_H-M	'P 1'

loop_
_symmetry_equiv_pos_as_xyz
  x,y,z

loop_
_atom_site_label
_atom_site_type_symbol
_atom_site_fract_x
_atom_site_fract_y
_atom_site_fract_z
_atom_site_charge
Mn	Mn	0.65196 0.17218 0.44483 1.29700
Mn	Mn	0.61865 0.40549 0.37389 1.27300
O 	O 	0.14650 0.26460 0.83510 -0.48800
O 	O 	0.02820 0.16720 0.76690 -0.43600
O 	O 	0.76800 0.39150 0.46020 -0.47900
O 	O 	0.76750 0.25830 0.51230 -0.48500
O 	O 	0.53700 0.35360 0.44240 -0.47500
O 	O 	0.49700 0.21110 0.42190 -0.44100
O 	O 	0.27530 0.57060 0.45020 -0.37000
O 	O 	0.11750 0.52710 0.40980 -0.38800
C 	C 	0.07080 0.24200 0.77370 0.33700
C 	C 	0.02800 0.30700 0.70750 -0.10800
C 	C 	0.94170 0.29030 0.64250 0.04400
H 	H 	0.90840 0.23690 0.64020 0.03900
C 	C 	0.90130 0.35060 0.57910 -0.11700
C 	C 	0.95080 0.43150 0.58310 -0.00900
H 	H 	0.92360 0.47350 0.54290 0.04600
C 	C 	0.04060 0.44930 0.64690 -0.00400
C 	C 	0.07900 0.38510 0.71060 -0.01500
H 	H 	0.13850 0.39660 0.75400 0.04200
C 	C 	0.80200 0.33230 0.51160 0.42800
C 	C 	0.09490 0.53230 0.64840 -0.00300
C 	C 	0.14560 0.58180 0.71780 -0.03000
H 	H 	0.14300 0.56420 0.76720 0.05100
C 	C 	0.19820 0.65540 0.71360 -0.08000
H 	H 	0.23420 0.68690 0.76000 0.06600
C 	C 	0.19750 0.68290 0.63860 0.04900
H 	H 	0.23150 0.73460 0.63570 0.01800
C 	C 	0.10040 0.56420 0.57680 0.00500
H 	H 	0.06770 0.53220 0.53000 0.02700
C 	C 	0.19780 0.26120 0.40940 -0.02700
C 	C 	0.17020 0.34980 0.41550 -0.01800
H 	H 	0.10140 0.36440 0.40860 0.03500
C 	C 	0.29820 0.24380 0.42100 -0.03100
H 	H 	0.31840 0.18350 0.42000 0.03500
C 	C 	0.97580 0.05370 0.35980 0.02600
H 	H 	0.92790 0.00870 0.34880 0.00700
N 	N 	0.07640 0.03410 0.37190 -0.21700
C 	C 	0.14800 0.10140 0.38830 -0.07700
H 	H 	0.21750 0.08780 0.39670 0.02400
C 	C 	0.11880 0.18820 0.39270 0.03700
C 	C 	0.01820 0.20780 0.38060 -0.04800
H 	H 	0.99870 0.26590 0.38350 0.04900
C 	C 	0.94660 0.14060 0.36420 -0.05000
H 	H 	0.87930 0.15370 0.35610 0.05800
C 	C 	0.24520 0.41740 0.43230 -0.07200
C 	C 	0.34230 0.39750 0.43360 0.01400
H 	H 	0.38700 0.44270 0.43390 0.04200
C 	C 	0.37200 0.31010 0.43440 -0.09200
C 	C 	0.20840 0.51100 0.43170 0.30300
C 	C 	0.47730 0.28950 0.43280 0.36800
N 	N 	0.14990 0.63830 0.57040 -0.20300
C 	C 	0.22840 0.26380 0.46300 0.03400
C 	C 	0.19190 0.35060 0.45230 -0.01600
H 	H 	0.12870 0.36390 0.45870 0.03000
C 	C 	0.32050 0.24430 0.45580 0.00700
H 	H 	0.34780 0.18570 0.46570 0.02200
C 	C 	0.07260 0.04390 0.51140 0.03600
H 	H 	0.04040 0.99500 0.52300 0.02800
N 	N 	0.12510 0.03610 0.45880 -0.15200
C 	C 	0.17320 0.10920 0.44160 0.10400
H 	H 	0.20950 0.10380 0.40530 -0.00400
C 	C 	0.16880 0.19010 0.47690 -0.05600
C 	C 	0.11630 0.19800 0.52950 -0.00200
H 	H 	0.11340 0.25210 0.55320 0.03600
C 	C 	0.06820 0.12490 0.54680 -0.08200
H 	H 	0.03310 0.13010 0.58200 0.06600
Mn	Mn	0.15196 0.67218 0.44483 1.29600
Mn	Mn	0.11865 0.90549 0.37389 1.27200
O 	O 	0.64650 0.76460 0.83510 -0.48900
O 	O 	0.52820 0.66720 0.76690 -0.43700
O 	O 	0.26800 0.89150 0.46020 -0.48100
O 	O 	0.26750 0.75830 0.51230 -0.48500
O 	O 	0.03700 0.85360 0.44240 -0.47500
O 	O 	0.99700 0.71110 0.42190 -0.44200
O 	O 	0.77530 0.07060 0.45020 -0.37000
O 	O 	0.61750 0.02710 0.40980 -0.38800
C 	C 	0.57080 0.74200 0.77370 0.33700
C 	C 	0.52800 0.80700 0.70750 -0.10900
C 	C 	0.44170 0.79030 0.64250 0.04500
H 	H 	0.40840 0.73690 0.64020 0.03900
C 	C 	0.40130 0.85060 0.57910 -0.11700
C 	C 	0.45080 0.93150 0.58310 -0.00800
H 	H 	0.42360 0.97350 0.54290 0.04600
C 	C 	0.54060 0.94930 0.64690 -0.00500
C 	C 	0.57900 0.88510 0.71060 -0.01400
H 	H 	0.63850 0.89660 0.75400 0.04200
C 	C 	0.30200 0.83230 0.51160 0.42800
C 	C 	0.59490 0.03230 0.64840 -0.00200
C 	C 	0.64560 0.08180 0.71780 -0.03000
H 	H 	0.64300 0.06420 0.76720 0.05100
C 	C 	0.69820 0.15540 0.71360 -0.08000
H 	H 	0.73420 0.18690 0.76000 0.06600
C 	C 	0.69750 0.18290 0.63860 0.04900
H 	H 	0.73150 0.23460 0.63570 0.01800
C 	C 	0.60040 0.06420 0.57680 0.00400
H 	H 	0.56770 0.03220 0.53000 0.02700
C 	C 	0.69780 0.76120 0.40940 -0.02800
C 	C 	0.67020 0.84980 0.41550 -0.01800
H 	H 	0.60140 0.86440 0.40860 0.03500
C 	C 	0.79820 0.74380 0.42100 -0.03100
H 	H 	0.81840 0.68350 0.42000 0.03500
C 	C 	0.47580 0.55370 0.35980 0.02600
H 	H 	0.42790 0.50870 0.34880 0.00700
N 	N 	0.57640 0.53410 0.37190 -0.21700
C 	C 	0.64800 0.60140 0.38830 -0.07800
H 	H 	0.71750 0.58780 0.39670 0.02400
C 	C 	0.61880 0.68820 0.39270 0.03700
C 	C 	0.51820 0.70780 0.38060 -0.04900
H 	H 	0.49870 0.76590 0.38350 0.05000
C 	C 	0.44660 0.64060 0.36420 -0.04900
H 	H 	0.37930 0.65370 0.35610 0.05800
C 	C 	0.74520 0.91740 0.43230 -0.07300
C 	C 	0.84230 0.89750 0.43360 0.01500
H 	H 	0.88700 0.94270 0.43390 0.04100
C 	C 	0.87200 0.81010 0.43440 -0.09300
C 	C 	0.70840 0.01100 0.43170 0.30400
C 	C 	0.97730 0.78950 0.43280 0.36700
N 	N 	0.64990 0.13830 0.57040 -0.20300
C 	C 	0.72840 0.76380 0.46300 0.03400
C 	C 	0.69190 0.85060 0.45230 -0.01500
H 	H 	0.62870 0.86390 0.45870 0.03000
C 	C 	0.82050 0.74430 0.45580 0.00700
H 	H 	0.84780 0.68570 0.46570 0.02200
C 	C 	0.57260 0.54390 0.51140 0.03500
H 	H 	0.54040 0.49500 0.52300 0.02800
N 	N 	0.62510 0.53610 0.45880 -0.15200
C 	C 	0.67320 0.60920 0.44160 0.10500
H 	H 	0.70950 0.60380 0.40530 -0.00400
C 	C 	0.66880 0.69010 0.47690 -0.05600
C 	C 	0.61630 0.69800 0.52950 -0.00300
H 	H 	0.61340 0.75210 0.55320 0.03700
C 	C 	0.56820 0.62490 0.54680 -0.08100
H 	H 	0.53310 0.63010 0.58200 0.06600
Mn	Mn	0.65196 0.82782 0.94483 1.29300
Mn	Mn	0.61865 0.59451 0.87389 1.27200
O 	O 	0.14650 0.73540 0.33510 -0.48700
O 	O 	0.02820 0.83280 0.26690 -0.43600
O 	O 	0.76800 0.60850 0.96020 -0.49500
O 	O 	0.76750 0.74170 0.01230 -0.48300
O 	O 	0.53700 0.64640 0.94240 -0.47900
O 	O 	0.49700 0.78890 0.92190 -0.44400
O 	O 	0.27530 0.42940 0.95020 -0.37500
O 	O 	0.11750 0.47290 0.90980 -0.39200
C 	C 	0.07080 0.75800 0.27370 0.33700
C 	C 	0.02800 0.69300 0.20750 -0.10800
C 	C 	0.94170 0.70970 0.14250 0.04600
H 	H 	0.90840 0.76310 0.14020 0.03900
C 	C 	0.90130 0.64940 0.07910 -0.11900
C 	C 	0.95080 0.56850 0.08310 -0.00700
H 	H 	0.92360 0.52650 0.04290 0.04900
C 	C 	0.04060 0.55070 0.14690 -0.00400
C 	C 	0.07900 0.61490 0.21060 -0.01400
H 	H 	0.13850 0.60340 0.25400 0.04200
C 	C 	0.80200 0.66770 0.01160 0.44500
C 	C 	0.09490 0.46770 0.14840 -0.00100
C 	C 	0.14560 0.41820 0.21780 -0.03000
H 	H 	0.14300 0.43580 0.26720 0.05100
C 	C 	0.19820 0.34460 0.21360 -0.07900
H 	H 	0.23420 0.31310 0.26000 0.06500
C 	C 	0.19750 0.31710 0.13860 0.05000
H 	H 	0.23150 0.26540 0.13570 0.01900
C 	C 	0.10040 0.43580 0.07680 0.00600
H 	H 	0.06770 0.46780 0.03000 0.03200
C 	C 	0.19780 0.73880 0.90940 -0.03500
C 	C 	0.17020 0.65020 0.91550 -0.02900
H 	H 	0.10140 0.63560 0.90860 0.03800
C 	C 	0.29820 0.75620 0.92100 -0.03900
H 	H 	0.31840 0.81650 0.92000 0.03800
C 	C 	0.97580 0.94630 0.85980 0.01600
H 	H 	0.92790 0.99130 0.84880 0.00900
N 	N 	0.07640 0.96590 0.87190 -0.20900
C 	C 	0.14800 0.89860 0.88830 -0.11900
H 	H 	0.21750 0.91220 0.89670 0.02300
C 	C 	0.11880 0.81180 0.89270 0.06300
C 	C 	0.01820 0.79220 0.88060 -0.06800
H 	H 	0.99870 0.73410 0.88350 0.05400
C 	C 	0.94660 0.85940 0.86420 -0.03900
H 	H 	0.87930 0.84630 0.85610 0.05300
C 	C 	0.24520 0.58260 0.93230 -0.07500
C 	C 	0.34230 0.60250 0.93360 0.01400
H 	H 	0.38700 0.55730 0.93390 0.04000
C 	C 	0.37200 0.68990 0.93440 -0.09400
C 	C 	0.20840 0.48900 0.93170 0.30300
C 	C 	0.47730 0.71050 0.93280 0.36700
N 	N 	0.14990 0.36170 0.07040 -0.19900
C 	C 	0.22840 0.73620 0.96300 0.04600
C 	C 	0.19190 0.64940 0.95230 -0.00700
H 	H 	0.12870 0.63610 0.95870 0.02400
C 	C 	0.32050 0.75570 0.95580 0.01300
H 	H 	0.34780 0.81430 0.96570 0.01700
C 	C 	0.07260 0.95610 0.01140 0.06200
H 	H 	0.04040 0.00500 0.02300 0.02500
N 	N 	0.12510 0.96390 0.95880 -0.16600
C 	C 	0.17320 0.89080 0.94160 0.13800
H 	H 	0.20950 0.89620 0.90530 0.00300
C 	C 	0.16880 0.80990 0.97690 -0.10300
C 	C 	0.11630 0.80200 0.02950 0.04600
H 	H 	0.11340 0.74790 0.05320 0.02300
C 	C 	0.06820 0.87510 0.04680 -0.11000
H 	H 	0.03310 0.86990 0.08200 0.07800
Mn	Mn	0.15196 0.32782 0.94483 1.29300
Mn	Mn	0.11865 0.09451 0.87389 1.27200
O 	O 	0.64650 0.23540 0.33510 -0.48700
O 	O 	0.52820 0.33280 0.26690 -0.43600
O 	O 	0.26800 0.10850 0.96020 -0.49600
O 	O 	0.26750 0.24170 0.01230 -0.48200
O 	O 	0.03700 0.14640 0.94240 -0.47900
O 	O 	0.99700 0.28890 0.92190 -0.44500
O 	O 	0.77530 0.92940 0.95020 -0.37400
O 	O 	0.61750 0.97290 0.90980 -0.39100
C 	C 	0.57080 0.25800 0.27370 0.33700
C 	C 	0.52800 0.19300 0.20750 -0.10900
C 	C 	0.44170 0.20970 0.14250 0.04700
H 	H 	0.40840 0.26310 0.14020 0.03900
C 	C 	0.40130 0.14940 0.07910 -0.11900
C 	C 	0.45080 0.06850 0.08310 -0.00600
H 	H 	0.42360 0.02650 0.04290 0.05000
C 	C 	0.54060 0.05070 0.14690 -0.00300
C 	C 	0.57900 0.11490 0.21060 -0.01400
H 	H 	0.63850 0.10340 0.25400 0.04200
C 	C 	0.30200 0.16770 0.01160 0.44700
C 	C 	0.59490 0.96770 0.14840 -0.00300
C 	C 	0.64560 0.91820 0.21780 -0.02900
H 	H 	0.64300 0.93580 0.26720 0.05000
C 	C 	0.69820 0.84460 0.21360 -0.08000
H 	H 	0.73420 0.81310 0.26000 0.06600
C 	C 	0.69750 0.81710 0.13860 0.05000
H 	H 	0.73150 0.76540 0.13570 0.01900
C 	C 	0.60040 0.93580 0.07680 0.00600
H 	H 	0.56770 0.96780 0.03000 0.03100
C 	C 	0.69780 0.23880 0.90940 -0.03600
C 	C 	0.67020 0.15020 0.91550 -0.03000
H 	H 	0.60140 0.13560 0.90860 0.03900
C 	C 	0.79820 0.25620 0.92100 -0.04000
H 	H 	0.81840 0.31650 0.92000 0.03800
C 	C 	0.47580 0.44630 0.85980 0.01500
H 	H 	0.42790 0.49130 0.84880 0.01000
N 	N 	0.57640 0.46590 0.87190 -0.20800
C 	C 	0.64800 0.39860 0.88830 -0.12300
H 	H 	0.71750 0.41220 0.89670 0.02300
C 	C 	0.61880 0.31180 0.89270 0.06600
C 	C 	0.51820 0.29220 0.88060 -0.07000
H 	H 	0.49870 0.23410 0.88350 0.05500
C 	C 	0.44660 0.35940 0.86420 -0.03800
H 	H 	0.37930 0.34630 0.85610 0.05200
C 	C 	0.74520 0.08260 0.93230 -0.07400
C 	C 	0.84230 0.10250 0.93360 0.01400
H 	H 	0.88700 0.05730 0.93390 0.04000
C 	C 	0.87200 0.18990 0.93440 -0.09400
C 	C 	0.70840 0.98900 0.93170 0.30300
C 	C 	0.97730 0.21050 0.93280 0.36800
N 	N 	0.64990 0.86170 0.07040 -0.20000
C 	C 	0.72840 0.23620 0.96300 0.04700
C 	C 	0.69190 0.14940 0.95230 -0.00600
H 	H 	0.62870 0.13610 0.95870 0.02400
C 	C 	0.82050 0.25570 0.95580 0.01300
H 	H 	0.84780 0.31430 0.96570 0.01600
C 	C 	0.57260 0.45610 0.01140 0.06700
H 	H 	0.54040 0.50500 0.02300 0.02200
N 	N 	0.62510 0.46390 0.95880 -0.16700
C 	C 	0.67320 0.39080 0.94160 0.14200
H 	H 	0.70950 0.39620 0.90530 0.00300
C 	C 	0.66880 0.30990 0.97690 -0.10700
C 	C 	0.61630 0.30200 0.02950 0.05000
H 	H 	0.61340 0.24790 0.05320 0.02200
C 	C 	0.56820 0.37510 0.04680 -0.11500
H 	H 	0.53310 0.36990 0.08200 0.08000
