data_crystal

_cell_length_a 8.75500
_cell_length_b 11.27390
_cell_length_c 17.75190
_cell_angle_alpha 84.50570
_cell_angle_beta  75.72420
_cell_angle_gamma 67.15220

_symmetry_space_group_name_	'P 1'
_symmetry_space_group_name_H-M	'P 1'

loop_
_symmetry_equiv_pos_as_xyz
  x,y,z

loop_
_atom_site_label
_atom_site_type_symbol
_atom_site_fract_x
_atom_site_fract_y
_atom_site_fract_z
_atom_site_charge
Sc	Sc	0.63567 0.25000 0.22866 2.34900
Sc	Sc	0.11433 0.25000 0.27134 2.34900
Sc	Sc	0.36433 0.75000 0.77134 2.34900
Sc	Sc	0.88567 0.75000 0.72866 2.34900
H 	H 	0.72580 0.04720 0.01520 0.04800
H 	H 	0.24690 0.06540 0.09320 0.03200
H 	H 	0.84200 0.86180 0.24740 0.04000
H 	H 	0.75900 0.45280 0.01520 0.04700
H 	H 	0.15990 0.43460 0.09320 0.03400
H 	H 	0.41060 0.63820 0.24740 0.04100
H 	H 	0.22700 0.04720 0.48480 0.04800
H 	H 	0.68770 0.06540 0.40680 0.03300
H 	H 	0.29620 0.86180 0.25260 0.04000
H 	H 	0.78820 0.45280 0.48480 0.04800
H 	H 	0.40550 0.43460 0.40680 0.03300
H 	H 	0.95120 0.63820 0.25260 0.04200
H 	H 	0.27420 0.95280 0.98480 0.04800
H 	H 	0.75310 0.93460 0.90680 0.03200
H 	H 	0.15800 0.13820 0.75260 0.04000
H 	H 	0.24100 0.54720 0.98480 0.04700
H 	H 	0.84010 0.56540 0.90680 0.03400
H 	H 	0.58940 0.36180 0.75260 0.04100
H 	H 	0.77300 0.95280 0.51520 0.04800
H 	H 	0.31230 0.93460 0.59320 0.03300
H 	H 	0.70380 0.13820 0.74740 0.04000
H 	H 	0.21180 0.54720 0.51520 0.04800
H 	H 	0.59450 0.56540 0.59320 0.03300
H 	H 	0.04880 0.36180 0.74740 0.04200
C 	C 	0.46505 0.13942 0.13524 0.54000
C 	C 	0.48347 0.06744 0.06508 -0.14100
C 	C 	0.63499 0.02836 0.00928 0.00400
C 	C 	0.34877 0.03914 0.05576 0.00700
C 	C 	0.95538 0.81712 0.24914 0.00900
C 	C 	0.89971 0.36058 0.13524 0.53900
C 	C 	0.95145 0.43256 0.06508 -0.13900
C 	C 	0.85573 0.47164 0.00928 0.00600
C 	C 	0.09547 0.46086 0.05576 0.00400
C 	C 	0.29548 0.68288 0.24914 0.00400
C 	C 	0.39553 0.13942 0.36476 0.54000
C 	C 	0.44909 0.06744 0.43492 -0.14100
C 	C 	0.33665 0.02836 0.49072 0.00300
C 	C 	0.61209 0.03914 0.44424 0.00900
C 	C 	0.22750 0.81712 0.25086 0.00800
C 	C 	0.73971 0.36058 0.36476 0.54000
C 	C 	0.61599 0.43256 0.43492 -0.14100
C 	C 	0.67263 0.47164 0.49072 0.00300
C 	C 	0.44367 0.46086 0.44424 0.00900
C 	C 	0.02164 0.68288 0.25086 0.00300
C 	C 	0.53495 0.86058 0.86476 0.54000
C 	C 	0.51653 0.93256 0.93492 -0.14100
C 	C 	0.36501 0.97164 0.99072 0.00400
C 	C 	0.65123 0.96086 0.94424 0.00700
C 	C 	0.04462 0.18288 0.75086 0.00900
C 	C 	0.10029 0.63942 0.86476 0.53900
C 	C 	0.04855 0.56744 0.93492 -0.13900
C 	C 	0.14427 0.52836 0.99072 0.00600
C 	C 	0.90453 0.53914 0.94424 0.00400
C 	C 	0.70452 0.31712 0.75086 0.00400
C 	C 	0.60447 0.86058 0.63524 0.54000
C 	C 	0.55091 0.93256 0.56508 -0.14100
C 	C 	0.66335 0.97164 0.50928 0.00300
C 	C 	0.38791 0.96086 0.55576 0.00900
C 	C 	0.77250 0.18288 0.74914 0.00800
C 	C 	0.26029 0.63942 0.63524 0.54000
C 	C 	0.38401 0.56744 0.56508 -0.14100
C 	C 	0.32737 0.52836 0.50928 0.00300
C 	C 	0.55633 0.53914 0.55576 0.00900
C 	C 	0.97836 0.31712 0.74914 0.00300
C 	C 	0.98638 0.02724 0.25000 0.54700
C 	C 	0.05826 0.88348 0.25000 -0.14300
C 	C 	0.26362 0.47276 0.25000 0.54200
C 	C 	0.19174 0.61652 0.25000 -0.13800
C 	C 	0.01362 0.97276 0.75000 0.54700
C 	C 	0.94174 0.11652 0.75000 -0.14300
C 	C 	0.73638 0.52724 0.75000 0.54200
C 	C 	0.80826 0.38348 0.75000 -0.13800
O 	O 	0.58762 0.16672 0.14092 -0.61300
O 	O 	0.32787 0.16844 0.18514 -0.66300
O 	O 	0.84879 0.08328 0.22942 -0.63900
O 	O 	0.77146 0.33328 0.14092 -0.61300
O 	O 	0.98699 0.33156 0.18514 -0.66200
O 	O 	0.42179 0.41672 0.22942 -0.63800
O 	O 	0.24566 0.16672 0.35908 -0.61300
O 	O 	0.50369 0.16844 0.31486 -0.66300
O 	O 	0.06793 0.08328 0.27058 -0.64100
O 	O 	0.89526 0.33328 0.35908 -0.61200
O 	O 	0.68145 0.33156 0.31486 -0.66300
O 	O 	0.16149 0.41672 0.27058 -0.63800
O 	O 	0.41238 0.83328 0.85908 -0.61300
O 	O 	0.67213 0.83156 0.81486 -0.66300
O 	O 	0.15121 0.91672 0.77058 -0.63900
O 	O 	0.22854 0.66672 0.85908 -0.61300
O 	O 	0.01301 0.66844 0.81486 -0.66200
O 	O 	0.57821 0.58328 0.77058 -0.63800
O 	O 	0.75434 0.83328 0.64092 -0.61300
O 	O 	0.49631 0.83156 0.68514 -0.66300
O 	O 	0.93207 0.91672 0.72942 -0.64100
O 	O 	0.10474 0.66672 0.64092 -0.61200
O 	O 	0.31855 0.66844 0.68514 -0.66300
O 	O 	0.83851 0.58328 0.72942 -0.63800
