data_crystal

_cell_length_a 12.03170
_cell_length_b 13.84650
_cell_length_c 15.53410
_cell_angle_alpha 110.36200
_cell_angle_beta  109.51100
_cell_angle_gamma 92.29900

_symmetry_space_group_name_	'P 1'
_symmetry_space_group_name_H-M	'P 1'

loop_
_symmetry_equiv_pos_as_xyz
  x,y,z

loop_
_atom_site_label
_atom_site_type_symbol
_atom_site_fract_x
_atom_site_fract_y
_atom_site_fract_z
_atom_site_charge
Zn	Zn	0.52586 0.30812 0.35129 1.20400
O 	O 	0.30640 0.64260 0.61790 -0.49400
C 	C 	0.37150 0.71630 0.00520 -0.65500
Zn	Zn	0.43872 0.56061 0.42985 1.18700
C 	C 	0.30120 0.65350 0.04320 -0.72300
B 	B 	0.23560 0.63800 0.92260 1.64100
H 	H 	0.22370 0.56550 0.85660 -0.47500
B 	B 	0.27430 0.75870 0.92580 -0.44200
H 	H 	0.29180 0.76770 0.86240 0.07700
B 	B 	0.36100 0.84410 0.04020 0.53400
H 	H 	0.43150 0.90920 0.05470 -0.19300
B 	B 	0.38150 0.77660 0.12140 0.96300
H 	H 	0.46450 0.79730 0.18930 -0.29600
B 	B 	0.15350 0.64210 0.99140 -0.22400
H 	H 	0.08850 0.57200 0.97530 0.02300
O 	O 	0.44840 0.40700 0.42280 -0.69600
B 	B 	0.12770 0.71600 0.91600 -0.80700
H 	H 	0.04330 0.69880 0.85010 0.17600
B 	B 	0.20470 0.83850 0.98260 0.80900
H 	H 	0.17140 0.90300 0.95870 -0.28200
B 	B 	0.26790 0.85760 0.11190 -0.96800
H 	H 	0.27330 0.93260 0.17330 0.21500
B 	B 	0.23930 0.72870 0.11610 0.52600
H 	H 	0.22960 0.71840 0.18170 -0.19100
B 	B 	0.12670 0.76870 0.02880 0.64600
H 	H 	0.04050 0.78580 0.03860 -0.23300
C 	C 	0.48890 0.68220 0.99620 0.35200
H 	H 	0.47090 0.60550 0.95500 -0.06900
O 	O 	0.57620 0.69860 0.09040 -0.44600
H 	H 	0.64410 0.71990 0.09320 0.23700
C 	C 	0.53910 0.73830 0.94550 -0.18900
C 	C 	0.62900 0.82410 0.99620 0.09500
H 	H 	0.66570 0.84610 0.06600 -0.01500
C 	C 	0.66750 0.87850 0.95210 -0.17100
H 	H 	0.72210 0.94290 0.98970 0.07100
C 	C 	0.62470 0.83720 0.84930 0.08900
H 	H 	0.65070 0.87340 0.81560 -0.03500
N 	N 	0.54810 0.74810 0.79840 -0.28700
C 	C 	0.50450 0.70130 0.84490 0.09800
H 	H 	0.44640 0.63910 0.80630 -0.04000
C 	C 	0.34670 0.55530 0.05580 0.38800
H 	H 	0.43590 0.57430 0.08830 -0.06700
O 	O 	0.32100 0.47780 0.95970 -0.46300
H 	H 	0.37250 0.43860 0.96290 0.26700
C 	C 	0.30440 0.51350 0.11810 -0.19700
C 	C 	0.21550 0.43120 0.07880 0.10400
H 	H 	0.17530 0.40070 0.00900 -0.00500
C 	C 	0.18120 0.39000 0.13520 -0.17100
H 	H 	0.11700 0.33250 0.10630 0.06900
C 	C 	0.24300 0.43490 0.23620 0.08100
H 	H 	0.22060 0.40650 0.27680 -0.01700
N 	N 	0.33190 0.51570 0.27900 -0.26900
C 	C 	0.36140 0.55430 0.22100 0.10000
H 	H 	0.42460 0.61270 0.25100 -0.03000
O 	O 	0.27640 0.54670 0.46010 -0.47300
C 	C 	0.24230 0.57600 0.52920 0.36300
C 	C 	0.11640 0.53760 0.51500 -0.08500
C 	C 	0.07790 0.57290 0.59400 -0.01700
H 	H 	0.12980 0.62190 0.65690 0.03800
C 	C 	0.04080 0.46640 0.42220 -0.02000
H 	H 	0.06910 0.44410 0.36940 0.03900
O 	O 	0.51550 0.18450 0.38460 -0.49500
C 	C 	0.52540 0.19320 0.46990 0.38600
O 	O 	0.55070 0.27830 0.54340 -0.48200
C 	C 	0.51330 0.09390 0.48670 -0.09500
C 	C 	0.53230 0.09480 0.57890 -0.01300
H 	H 	0.55410 0.15980 0.63380 0.03500
C 	C 	0.52000 0.00220 0.59340 -0.01700
H 	H 	0.53430 0.00410 0.65800 0.03200
Zn	Zn	0.47414 0.69188 0.64871 1.20500
O 	O 	0.69360 0.35740 0.38210 -0.49300
C 	C 	0.62850 0.28370 0.99480 -0.65400
Zn	Zn	0.56128 0.43939 0.57015 1.18800
C 	C 	0.69880 0.34650 0.95680 -0.72300
B 	B 	0.76440 0.36200 0.07740 1.64100
H 	H 	0.77630 0.43450 0.14340 -0.47500
B 	B 	0.72570 0.24130 0.07420 -0.44200
H 	H 	0.70820 0.23230 0.13760 0.07700
B 	B 	0.63900 0.15590 0.95980 0.53400
H 	H 	0.56850 0.09080 0.94530 -0.19300
B 	B 	0.61850 0.22340 0.87860 0.96300
H 	H 	0.53550 0.20270 0.81070 -0.29600
B 	B 	0.84650 0.35790 0.00860 -0.22400
H 	H 	0.91150 0.42800 0.02470 0.02300
O 	O 	0.55160 0.59300 0.57720 -0.69600
B 	B 	0.87230 0.28400 0.08400 -0.80700
H 	H 	0.95670 0.30120 0.14990 0.17600
B 	B 	0.79530 0.16150 0.01740 0.80900
H 	H 	0.82860 0.09700 0.04130 -0.28200
B 	B 	0.73210 0.14240 0.88810 -0.96800
H 	H 	0.72670 0.06740 0.82670 0.21500
B 	B 	0.76070 0.27130 0.88390 0.52600
H 	H 	0.77040 0.28160 0.81830 -0.19100
B 	B 	0.87330 0.23130 0.97120 0.64600
H 	H 	0.95950 0.21420 0.96140 -0.23300
C 	C 	0.51110 0.31780 0.00380 0.35200
H 	H 	0.52910 0.39450 0.04500 -0.06900
O 	O 	0.42380 0.30140 0.90960 -0.44600
H 	H 	0.35590 0.28010 0.90680 0.23700
C 	C 	0.46090 0.26170 0.05450 -0.18900
C 	C 	0.37100 0.17590 0.00380 0.09500
H 	H 	0.33430 0.15390 0.93400 -0.01500
C 	C 	0.33250 0.12150 0.04790 -0.17100
H 	H 	0.27790 0.05710 0.01030 0.07100
C 	C 	0.37530 0.16280 0.15070 0.08900
H 	H 	0.34930 0.12660 0.18440 -0.03500
N 	N 	0.45190 0.25190 0.20160 -0.28700
C 	C 	0.49550 0.29870 0.15510 0.09800
H 	H 	0.55360 0.36090 0.19370 -0.04000
C 	C 	0.65330 0.44470 0.94420 0.38800
H 	H 	0.56410 0.42570 0.91170 -0.06700
O 	O 	0.67900 0.52220 0.04030 -0.46300
H 	H 	0.62750 0.56140 0.03710 0.26700
C 	C 	0.69560 0.48650 0.88190 -0.19700
C 	C 	0.78450 0.56880 0.92120 0.10400
H 	H 	0.82470 0.59930 0.99100 -0.00500
C 	C 	0.81880 0.61000 0.86480 -0.17100
H 	H 	0.88300 0.66750 0.89370 0.06900
C 	C 	0.75700 0.56510 0.76380 0.08100
H 	H 	0.77940 0.59350 0.72320 -0.01700
N 	N 	0.66810 0.48430 0.72100 -0.26900
C 	C 	0.63860 0.44570 0.77900 0.10000
H 	H 	0.57540 0.38730 0.74900 -0.03000
O 	O 	0.72360 0.45330 0.53990 -0.47300
C 	C 	0.75770 0.42400 0.47080 0.36300
C 	C 	0.88360 0.46240 0.48500 -0.08500
C 	C 	0.92210 0.42710 0.40600 -0.01700
H 	H 	0.87020 0.37810 0.34310 0.03800
C 	C 	0.95920 0.53360 0.57780 -0.02000
H 	H 	0.93090 0.55590 0.63060 0.03900
O 	O 	0.48450 0.81550 0.61540 -0.49500
C 	C 	0.47460 0.80680 0.53010 0.38600
O 	O 	0.44930 0.72170 0.45660 -0.48200
C 	C 	0.48670 0.90610 0.51330 -0.09500
C 	C 	0.46770 0.90520 0.42110 -0.01300
H 	H 	0.44590 0.84020 0.36620 0.03500
C 	C 	0.48000 0.99780 0.40660 -0.01700
H 	H 	0.46570 0.99590 0.34200 0.03200
