data_crystal

_cell_length_a 9.61890
_cell_length_b 10.63900
_cell_length_c 10.98600
_cell_angle_alpha 79.52300
_cell_angle_beta  64.99500
_cell_angle_gamma 70.57400

_symmetry_space_group_name_	'P 1'
_symmetry_space_group_name_H-M	'P 1'

loop_
_symmetry_equiv_pos_as_xyz
  x,y,z

loop_
_atom_site_label
_atom_site_type_symbol
_atom_site_fract_x
_atom_site_fract_y
_atom_site_fract_z
_atom_site_charge
Cu	Cu	0.65174 0.15708 0.54579 0.86500
Cu	Cu	0.34826 0.84292 0.45421 0.86100
Cu	Cu	-0.00000 0.50000 0.50000 0.87800
Mo	Mo	0.35329 0.20841 0.40615 1.15900
Mo	Mo	0.64671 0.79159 0.59385 1.16100
H 	H 	0.56110 0.20980 0.83380 -0.03100
H 	H 	0.36370 0.20320 0.04100 0.03900
H 	H 	0.21410 0.11350 0.22830 0.06200
H 	H 	0.00340 0.12170 0.42850 -0.09100
H 	H 	0.70830 0.20110 0.25190 -0.04200
H 	H 	0.91040 0.19250 0.04690 0.06900
H 	H 	0.13930 0.08080 0.87390 0.06900
H 	H 	0.34910 0.07930 0.67360 -0.02700
H 	H 	0.23510 0.47980 0.82500 0.04500
H 	H 	0.22970 0.48100 0.61910 -0.02600
H 	H 	0.76700 0.52150 0.98820 0.04300
H 	H 	0.77200 0.52930 0.77860 -0.04300
H 	H 	0.43890 0.79020 0.16620 -0.04500
H 	H 	0.63630 0.79680 0.95900 0.06300
H 	H 	0.78590 0.88650 0.77170 0.01500
H 	H 	0.99660 0.87830 0.57150 0.01700
H 	H 	0.29170 0.79890 0.74810 -0.04400
H 	H 	0.08960 0.80750 0.95310 0.07800
H 	H 	0.86070 0.91920 0.12610 0.07900
H 	H 	0.65090 0.92070 0.32640 -0.02700
H 	H 	0.76490 0.52020 0.17500 0.08500
H 	H 	0.77030 0.51900 0.38090 -0.04700
H 	H 	0.23300 0.47850 0.01180 0.08900
H 	H 	0.22800 0.47070 0.22140 -0.05700
C 	C 	0.47450 0.18330 0.84210 0.05400
C 	C 	0.35550 0.18120 0.96660 -0.11700
C 	C 	0.22390 0.14660 0.98130 0.04800
C 	C 	0.08830 0.15180 0.11260 0.04800
C 	C 	0.11180 0.13130 0.23030 -0.21500
C 	C 	0.98420 0.13700 0.35010 0.16300
C 	C 	0.81200 0.18300 0.24700 0.09000
C 	C 	0.93240 0.17820 0.12380 -0.13400
C 	C 	0.22450 0.10770 0.86830 -0.14700
C 	C 	0.34990 0.10870 0.74800 0.06500
C 	C 	0.13900 0.48900 0.81830 -0.09000
C 	C 	0.13460 0.49100 0.69490 0.05200
C 	C 	0.00040 0.50050 0.93260 -0.03300
C 	C 	0.86330 0.51450 0.91410 -0.07600
C 	C 	0.86700 0.51820 0.78820 0.07200
C 	C 	0.52550 0.81670 0.15790 0.07300
C 	C 	0.64450 0.81880 0.03340 -0.15800
C 	C 	0.77610 0.85340 0.01870 0.05500
C 	C 	0.91170 0.84820 0.88740 0.06500
C 	C 	0.88820 0.86870 0.76970 -0.06700
C 	C 	0.01580 0.86300 0.64990 -0.04300
C 	C 	0.18800 0.81700 0.75300 0.09800
C 	C 	0.06760 0.82180 0.87620 -0.18200
C 	C 	0.77550 0.89230 0.13170 -0.15200
C 	C 	0.65010 0.89130 0.25200 0.07000
C 	C 	0.86100 0.51100 0.18170 -0.19800
C 	C 	0.86540 0.50900 0.30510 0.11900
C 	C 	0.99960 0.49950 0.06740 0.16000
C 	C 	0.13670 0.48550 0.08590 -0.23000
C 	C 	0.13300 0.48180 0.21180 0.09100
N 	N 	0.47310 0.14930 0.73190 -0.24000
N 	N 	0.83460 0.16300 0.36190 -0.25300
N 	N 	0.00070 0.50650 0.67900 -0.24800
N 	N 	0.52690 0.85070 0.26810 -0.24600
N 	N 	0.16540 0.83700 0.63810 -0.22400
N 	N 	0.99930 0.49350 0.32100 -0.23700
O 	O 	0.49790 0.20850 0.46480 -0.54700
O 	O 	0.29340 0.06580 0.46580 -0.51400
O 	O 	0.18860 0.34920 0.46020 -0.56300
O 	O 	0.50210 0.79150 0.53520 -0.54700
O 	O 	0.70660 0.93420 0.53420 -0.51000
O 	O 	0.81140 0.65080 0.53980 -0.54900
