data_crystal

_cell_length_a 13.93200
_cell_length_b 18.15600
_cell_length_c 23.80100
_cell_angle_alpha 90.00000
_cell_angle_beta  90.00000
_cell_angle_gamma 99.42000

_symmetry_space_group_name_	'P 1'
_symmetry_space_group_name_H-M	'P 1'

loop_
_symmetry_equiv_pos_as_xyz
  x,y,z

loop_
_atom_site_label
_atom_site_type_symbol
_atom_site_fract_x
_atom_site_fract_y
_atom_site_fract_z
_atom_site_charge
Sm	Sm	0.14260 0.98057 0.40658 1.85100
Sm	Sm	0.36393 0.01490 0.60239 1.78100
Sm	Sm	0.35740 0.01943 0.90658 1.85400
Sm	Sm	0.13607 0.98510 0.10239 1.76100
Sm	Sm	0.85740 0.01943 0.59342 1.85100
Sm	Sm	0.63607 0.98510 0.39761 1.78100
Sm	Sm	0.64260 0.98057 0.09342 1.85400
Sm	Sm	0.86393 0.01490 0.89761 1.76100
Cu	Cu	0.06540 0.45653 0.48823 0.80700
Cu	Cu	0.16325 0.55420 0.57975 0.82500
Cu	Cu	0.12407 0.44417 0.68894 0.79500
Cu	Cu	0.14120 0.57069 0.74887 0.78300
Cu	Cu	0.37534 0.55354 0.31197 0.79500
Cu	Cu	0.33838 0.44043 0.42077 0.82400
Cu	Cu	0.43050 0.54032 0.51049 0.80800
Cu	Cu	0.43460 0.54347 0.98823 0.80800
Cu	Cu	0.33675 0.44580 0.07975 0.82600
Cu	Cu	0.37593 0.55583 0.18894 0.79600
Cu	Cu	0.35880 0.42931 0.24887 0.78400
Cu	Cu	0.12466 0.44646 0.81197 0.79600
Cu	Cu	0.16162 0.55957 0.92077 0.82500
Cu	Cu	0.06950 0.45968 0.01049 0.80800
Cu	Cu	0.93460 0.54347 0.51177 0.80800
Cu	Cu	0.83675 0.44580 0.42025 0.82600
Cu	Cu	0.87593 0.55583 0.31106 0.79600
Cu	Cu	0.85880 0.42931 0.25113 0.78400
Cu	Cu	0.62466 0.44646 0.68803 0.79600
Cu	Cu	0.66162 0.55957 0.57923 0.82500
Cu	Cu	0.56950 0.45968 0.48951 0.80800
Cu	Cu	0.56540 0.45653 0.01177 0.80800
Cu	Cu	0.66325 0.55420 0.92025 0.82600
Cu	Cu	0.62407 0.44417 0.81106 0.79600
Cu	Cu	0.64120 0.57069 0.75113 0.78400
Cu	Cu	0.87534 0.55354 0.18803 0.79600
Cu	Cu	0.83838 0.44043 0.07923 0.82500
Cu	Cu	0.93050 0.54032 0.98951 0.80800
H 	H 	0.09870 0.32200 0.54780 -0.00700
H 	H 	0.10810 0.19780 0.53270 0.06600
H 	H 	0.04990 0.22980 0.37020 0.07800
H 	H 	0.04290 0.35420 0.39250 -0.00700
H 	H 	0.20940 0.69830 0.64040 0.01000
H 	H 	0.21340 0.82510 0.62660 0.03200
H 	H 	0.14470 0.77920 0.46460 0.03500
H 	H 	0.14660 0.65480 0.48460 -0.00300
H 	H 	0.30720 0.39510 0.65280 0.03800
H 	H 	0.36640 0.28610 0.63480 0.06200
H 	H 	0.10570 0.17100 0.66950 0.03900
H 	H 	0.05070 0.28090 0.68660 0.00900
H 	H 	0.17900 0.73250 0.74790 0.01300
H 	H 	0.09460 0.83350 0.75280 0.06400
H 	H 	0.84560 0.68810 0.75140 0.07600
H 	H 	0.94350 0.59460 0.74900 0.00900
H 	H 	0.45020 0.71740 0.32510 0.00700
H 	H 	0.39460 0.82330 0.34240 0.03900
H 	H 	0.12480 0.70820 0.35990 0.06000
H 	H 	0.18890 0.60140 0.34050 0.04100
H 	H 	0.35920 0.34340 0.51760 -0.00400
H 	H 	0.36160 0.21890 0.53710 0.04100
H 	H 	0.29320 0.17200 0.37610 0.02400
H 	H 	0.29710 0.29620 0.36060 0.01200
H 	H 	0.45190 0.63980 0.60940 -0.00000
H 	H 	0.45410 0.76420 0.63190 0.07400
H 	H 	0.39700 0.80250 0.47060 0.05900
H 	H 	0.39850 0.67850 0.45270 -0.00000
H 	H 	0.40130 0.67800 0.04780 -0.00800
H 	H 	0.39190 0.80220 0.03270 0.06700
H 	H 	0.45010 0.77020 0.87020 0.07900
H 	H 	0.45710 0.64580 0.89250 -0.00700
H 	H 	0.29060 0.30170 0.14040 0.01100
H 	H 	0.28660 0.17490 0.12660 0.03300
H 	H 	0.35530 0.22080 0.96460 0.03000
H 	H 	0.35340 0.34520 0.98460 -0.00500
H 	H 	0.19280 0.60490 0.15280 0.03900
H 	H 	0.13360 0.71390 0.13480 0.06100
H 	H 	0.39430 0.82900 0.16950 0.03800
H 	H 	0.44930 0.71910 0.18660 0.00900
H 	H 	0.32100 0.26750 0.24790 0.01400
H 	H 	0.40540 0.16650 0.25280 0.06300
H 	H 	0.65440 0.31190 0.25140 0.07500
H 	H 	0.55650 0.40540 0.24900 0.01000
H 	H 	0.04980 0.28260 0.82510 0.00700
H 	H 	0.10540 0.17670 0.84240 0.03900
H 	H 	0.37520 0.29180 0.85990 0.06100
H 	H 	0.31110 0.39860 0.84050 0.04100
H 	H 	0.14080 0.65660 0.01760 -0.01100
H 	H 	0.13840 0.78110 0.03710 0.04500
H 	H 	0.20680 0.82800 0.87610 0.02500
H 	H 	0.20290 0.70380 0.86060 0.01000
H 	H 	0.04810 0.36020 0.10940 -0.00100
H 	H 	0.04590 0.23580 0.13190 0.07500
H 	H 	0.10300 0.19750 0.97060 0.06100
H 	H 	0.10150 0.32150 0.95270 -0.00100
H 	H 	0.90130 0.67800 0.45220 -0.00700
H 	H 	0.89190 0.80220 0.46730 0.06600
H 	H 	0.95010 0.77020 0.62980 0.07800
H 	H 	0.95710 0.64580 0.60750 -0.00700
H 	H 	0.79060 0.30170 0.35960 0.01000
H 	H 	0.78660 0.17490 0.37340 0.03200
H 	H 	0.85530 0.22080 0.53540 0.03500
H 	H 	0.85340 0.34520 0.51540 -0.00300
H 	H 	0.69280 0.60490 0.34720 0.03800
H 	H 	0.63360 0.71390 0.36520 0.06200
H 	H 	0.89430 0.82900 0.33050 0.03900
H 	H 	0.94930 0.71910 0.31340 0.00900
H 	H 	0.82100 0.26750 0.25210 0.01300
H 	H 	0.90540 0.16650 0.24720 0.06400
H 	H 	0.15440 0.31190 0.24860 0.07600
H 	H 	0.05650 0.40540 0.25100 0.00900
H 	H 	0.54980 0.28260 0.67490 0.00700
H 	H 	0.60540 0.17670 0.65760 0.03900
H 	H 	0.87520 0.29180 0.64010 0.06000
H 	H 	0.81110 0.39860 0.65950 0.04100
H 	H 	0.64080 0.65660 0.48240 -0.00400
H 	H 	0.63840 0.78110 0.46290 0.04100
H 	H 	0.70680 0.82800 0.62390 0.02400
H 	H 	0.70290 0.70380 0.63940 0.01200
H 	H 	0.54810 0.36020 0.39060 -0.00000
H 	H 	0.54590 0.23580 0.36810 0.07400
H 	H 	0.60300 0.19750 0.52940 0.05900
H 	H 	0.60150 0.32150 0.54730 -0.00000
H 	H 	0.59870 0.32200 0.95220 -0.00800
H 	H 	0.60810 0.19780 0.96730 0.06700
H 	H 	0.54990 0.22980 0.12980 0.07900
H 	H 	0.54290 0.35420 0.10750 -0.00700
H 	H 	0.70940 0.69830 0.85960 0.01100
H 	H 	0.71340 0.82510 0.87340 0.03300
H 	H 	0.64470 0.77920 0.03540 0.03000
H 	H 	0.64660 0.65480 0.01540 -0.00500
H 	H 	0.80720 0.39510 0.84720 0.03900
H 	H 	0.86640 0.28610 0.86520 0.06100
H 	H 	0.60570 0.17100 0.83050 0.03800
H 	H 	0.55070 0.28090 0.81340 0.00900
H 	H 	0.67900 0.73250 0.75210 0.01400
H 	H 	0.59460 0.83350 0.74720 0.06300
H 	H 	0.34560 0.68810 0.74860 0.07500
H 	H 	0.44350 0.59460 0.75100 0.01000
H 	H 	0.95020 0.71740 0.17490 0.00700
H 	H 	0.89460 0.82330 0.15760 0.03900
H 	H 	0.62480 0.70820 0.14010 0.06100
H 	H 	0.68890 0.60140 0.15950 0.04100
H 	H 	0.85920 0.34340 0.98240 -0.01100
H 	H 	0.86160 0.21890 0.96290 0.04500
H 	H 	0.79320 0.17200 0.12390 0.02500
H 	H 	0.79710 0.29620 0.13940 0.01000
H 	H 	0.95190 0.63980 0.89060 -0.00100
H 	H 	0.95410 0.76420 0.86810 0.07500
H 	H 	0.89700 0.80250 0.02940 0.06100
H 	H 	0.89850 0.67850 0.04730 -0.00100
C 	C 	0.08850 0.30310 0.51150 0.05900
C 	C 	0.09360 0.22780 0.50320 -0.08400
C 	C 	0.07680 0.20020 0.45140 -0.01000
C 	C 	0.05900 0.24720 0.40680 -0.08500
C 	C 	0.05590 0.32210 0.42090 0.05100
C 	C 	0.08560 0.12010 0.43620 0.29700
C 	C 	0.19560 0.71450 0.60470 0.01800
C 	C 	0.19760 0.79150 0.59720 -0.00800
C 	C 	0.17480 0.81550 0.54370 -0.12800
C 	C 	0.15710 0.76440 0.50090 0.00200
C 	C 	0.15850 0.68920 0.51380 -0.00100
C 	C 	0.17670 0.89860 0.53330 0.51600
C 	C 	0.26570 0.34970 0.65630 0.01700
C 	C 	0.30190 0.28380 0.64570 -0.04800
C 	C 	0.24460 0.21720 0.65120 -0.04300
C 	C 	0.14790 0.21610 0.66620 -0.05400
C 	C 	0.11530 0.28240 0.67610 0.02200
C 	C 	0.28460 0.14670 0.63810 0.29300
C 	C 	0.11140 0.72430 0.74920 0.02800
C 	C 	0.06040 0.78510 0.75170 -0.07900
C 	C 	0.96340 0.77380 0.75260 -0.00800
C 	C 	0.91320 0.69970 0.75120 -0.09400
C 	C 	0.97450 0.64400 0.74950 0.08900
C 	C 	0.90280 0.83740 0.75650 0.28000
C 	C 	0.38400 0.71540 0.33180 0.03000
C 	C 	0.35100 0.77860 0.34200 -0.05700
C 	C 	0.25310 0.77980 0.35220 -0.04700
C 	C 	0.19080 0.71100 0.35240 -0.04300
C 	C 	0.23000 0.64730 0.34100 0.00700
C 	C 	0.21510 0.85110 0.36560 0.30200
C 	C 	0.34610 0.30840 0.48890 0.01100
C 	C 	0.34650 0.23340 0.50110 -0.01000
C 	C 	0.32390 0.17980 0.45840 -0.12000
C 	C 	0.30660 0.20550 0.40580 0.00200
C 	C 	0.30890 0.28000 0.39660 0.00300
C 	C 	0.31890 0.09730 0.47110 0.47900
C 	C 	0.44230 0.67290 0.58090 0.03900
C 	C 	0.44230 0.74790 0.59510 -0.07100
C 	C 	0.42430 0.79750 0.55340 -0.02400
C 	C 	0.40870 0.77080 0.49960 -0.06600
C 	C 	0.41070 0.69600 0.48910 0.03600
C 	C 	0.41550 0.87610 0.56970 0.30100
C 	C 	0.41150 0.69690 0.01150 0.06000
C 	C 	0.40640 0.77220 0.00320 -0.09300
C 	C 	0.42320 0.79980 0.95140 -0.00300
C 	C 	0.44100 0.75280 0.90680 -0.08800
C 	C 	0.44410 0.67790 0.92090 0.05300
C 	C 	0.41440 0.87990 0.93620 0.29500
C 	C 	0.30440 0.28550 0.10470 0.01700
C 	C 	0.30240 0.20850 0.09720 -0.00600
C 	C 	0.32520 0.18450 0.04370 -0.13200
C 	C 	0.34290 0.23560 0.00090 0.01100
C 	C 	0.34150 0.31080 0.01380 -0.00100
C 	C 	0.32330 0.10140 0.03330 0.52300
C 	C 	0.23430 0.65030 0.15630 0.01600
C 	C 	0.19810 0.71620 0.14570 -0.04700
C 	C 	0.25540 0.78280 0.15120 -0.04400
C 	C 	0.35210 0.78390 0.16620 -0.05400
C 	C 	0.38470 0.71760 0.17610 0.02100
C 	C 	0.21540 0.85330 0.13810 0.29300
C 	C 	0.38860 0.27570 0.24920 0.02500
C 	C 	0.43960 0.21490 0.25170 -0.07200
C 	C 	0.53660 0.22620 0.25260 -0.01300
C 	C 	0.58680 0.30030 0.25120 -0.09100
C 	C 	0.52550 0.35600 0.24950 0.08500
C 	C 	0.59720 0.16260 0.25650 0.28200
C 	C 	0.11600 0.28460 0.83180 0.03000
C 	C 	0.14900 0.22140 0.84200 -0.05700
C 	C 	0.24690 0.22020 0.85220 -0.04700
C 	C 	0.30920 0.28900 0.85240 -0.04300
C 	C 	0.27000 0.35270 0.84100 0.00700
C 	C 	0.28490 0.14890 0.86560 0.30200
C 	C 	0.15390 0.69160 0.98890 0.02400
C 	C 	0.15350 0.76660 0.00110 -0.02600
C 	C 	0.17610 0.82020 0.95840 -0.11200
C 	C 	0.19340 0.79450 0.90580 -0.00400
C 	C 	0.19110 0.72000 0.89660 0.00700
C 	C 	0.18110 0.90270 0.97110 0.48100
C 	C 	0.05770 0.32710 0.08090 0.04200
C 	C 	0.05770 0.25210 0.09510 -0.07500
C 	C 	0.07570 0.20250 0.05340 -0.01600
C 	C 	0.09130 0.22920 0.99960 -0.07500
C 	C 	0.08930 0.30400 0.98910 0.03700
C 	C 	0.08450 0.12390 0.06970 0.29800
C 	C 	0.91150 0.69690 0.48850 0.05900
C 	C 	0.90640 0.77220 0.49680 -0.08400
C 	C 	0.92320 0.79980 0.54860 -0.01000
C 	C 	0.94100 0.75280 0.59320 -0.08500
C 	C 	0.94410 0.67790 0.57910 0.05100
C 	C 	0.91440 0.87990 0.56380 0.29700
C 	C 	0.80440 0.28550 0.39530 0.01800
C 	C 	0.80240 0.20850 0.40280 -0.00800
C 	C 	0.82520 0.18450 0.45630 -0.12800
C 	C 	0.84290 0.23560 0.49910 0.00200
C 	C 	0.84150 0.31080 0.48620 -0.00100
C 	C 	0.82330 0.10140 0.46670 0.51600
C 	C 	0.73430 0.65030 0.34370 0.01700
C 	C 	0.69810 0.71620 0.35430 -0.04800
C 	C 	0.75540 0.78280 0.34880 -0.04300
C 	C 	0.85210 0.78390 0.33380 -0.05400
C 	C 	0.88470 0.71760 0.32390 0.02200
C 	C 	0.71540 0.85330 0.36190 0.29300
C 	C 	0.88860 0.27570 0.25080 0.02800
C 	C 	0.93960 0.21490 0.24830 -0.07900
C 	C 	0.03660 0.22620 0.24740 -0.00800
C 	C 	0.08680 0.30030 0.24880 -0.09400
C 	C 	0.02550 0.35600 0.25050 0.08900
C 	C 	0.09720 0.16260 0.24350 0.28000
C 	C 	0.61600 0.28460 0.66820 0.03000
C 	C 	0.64900 0.22140 0.65800 -0.05700
C 	C 	0.74690 0.22020 0.64780 -0.04700
C 	C 	0.80920 0.28900 0.64760 -0.04300
C 	C 	0.77000 0.35270 0.65900 0.00700
C 	C 	0.78490 0.14890 0.63440 0.30200
C 	C 	0.65390 0.69160 0.51110 0.01100
C 	C 	0.65350 0.76660 0.49890 -0.01000
C 	C 	0.67610 0.82020 0.54160 -0.12000
C 	C 	0.69340 0.79450 0.59420 0.00200
C 	C 	0.69110 0.72000 0.60340 0.00300
C 	C 	0.68110 0.90270 0.52890 0.47900
C 	C 	0.55770 0.32710 0.41910 0.03900
C 	C 	0.55770 0.25210 0.40490 -0.07100
C 	C 	0.57570 0.20250 0.44660 -0.02400
C 	C 	0.59130 0.22920 0.50040 -0.06600
C 	C 	0.58930 0.30400 0.51090 0.03600
C 	C 	0.58450 0.12390 0.43030 0.30100
C 	C 	0.58850 0.30310 0.98850 0.06000
C 	C 	0.59360 0.22780 0.99680 -0.09300
C 	C 	0.57680 0.20020 0.04860 -0.00300
C 	C 	0.55900 0.24720 0.09320 -0.08800
C 	C 	0.55590 0.32210 0.07910 0.05300
C 	C 	0.58560 0.12010 0.06380 0.29500
C 	C 	0.69560 0.71450 0.89530 0.01700
C 	C 	0.69760 0.79150 0.90280 -0.00600
C 	C 	0.67480 0.81550 0.95630 -0.13200
C 	C 	0.65710 0.76440 0.99910 0.01100
C 	C 	0.65850 0.68920 0.98620 -0.00100
C 	C 	0.67670 0.89860 0.96670 0.52300
C 	C 	0.76570 0.34970 0.84370 0.01600
C 	C 	0.80190 0.28380 0.85430 -0.04700
C 	C 	0.74460 0.21720 0.84880 -0.04400
C 	C 	0.64790 0.21610 0.83380 -0.05400
C 	C 	0.61530 0.28240 0.82390 0.02100
C 	C 	0.78460 0.14670 0.86190 0.29300
C 	C 	0.61140 0.72430 0.75080 0.02500
C 	C 	0.56040 0.78510 0.74830 -0.07200
C 	C 	0.46340 0.77380 0.74740 -0.01300
C 	C 	0.41320 0.69970 0.74880 -0.09100
C 	C 	0.47450 0.64400 0.75050 0.08500
C 	C 	0.40280 0.83740 0.74350 0.28200
C 	C 	0.88400 0.71540 0.16820 0.03000
C 	C 	0.85100 0.77860 0.15800 -0.05700
C 	C 	0.75310 0.77980 0.14780 -0.04700
C 	C 	0.69080 0.71100 0.14760 -0.04300
C 	C 	0.73000 0.64730 0.15900 0.00700
C 	C 	0.71510 0.85110 0.13440 0.30200
C 	C 	0.84610 0.30840 0.01110 0.02400
C 	C 	0.84650 0.23340 0.99890 -0.02600
C 	C 	0.82390 0.17980 0.04160 -0.11200
C 	C 	0.80660 0.20550 0.09420 -0.00400
C 	C 	0.80890 0.28000 0.10340 0.00700
C 	C 	0.81890 0.09730 0.02890 0.48100
C 	C 	0.94230 0.67290 0.91910 0.04200
C 	C 	0.94230 0.74790 0.90490 -0.07500
C 	C 	0.92430 0.79750 0.94660 -0.01600
C 	C 	0.90870 0.77080 0.00040 -0.07500
C 	C 	0.91070 0.69600 0.01090 0.03700
C 	C 	0.91550 0.87610 0.93030 0.29800
Br	Br	0.24921 0.49463 0.50151 -0.79500
Br	Br	0.99983 0.47112 0.58703 -0.76300
Br	Br	0.25204 0.54827 0.67090 -0.70100
Br	Br	0.51281 0.55943 0.25049 -0.64300
Br	Br	0.24948 0.44726 0.32997 -0.69900
Br	Br	0.49824 0.52820 0.41282 -0.76000
Br	Br	0.25079 0.50537 0.00151 -0.79500
Br	Br	0.50017 0.52888 0.08703 -0.76200
Br	Br	0.24796 0.45173 0.17090 -0.70000
Br	Br	0.98719 0.44057 0.75049 -0.64400
Br	Br	0.25052 0.55274 0.82997 -0.69900
Br	Br	0.00176 0.47180 0.91282 -0.76100
Br	Br	0.75079 0.50537 0.49849 -0.79500
Br	Br	0.00017 0.52888 0.41297 -0.76300
Br	Br	0.74796 0.45173 0.32910 -0.70100
Br	Br	0.48719 0.44057 0.74951 -0.64300
Br	Br	0.75052 0.55274 0.67003 -0.69900
Br	Br	0.50176 0.47180 0.58718 -0.76000
Br	Br	0.74921 0.49463 0.99849 -0.79500
Br	Br	0.49983 0.47112 0.91297 -0.76200
Br	Br	0.75204 0.54827 0.82910 -0.70000
Br	Br	0.01281 0.55943 0.24951 -0.64400
Br	Br	0.74948 0.44726 0.17003 -0.69900
Br	Br	0.99824 0.52820 0.08718 -0.76100
N 	N 	0.07040 0.34930 0.47210 -0.23800
N 	N 	0.17560 0.66310 0.56490 -0.22700
N 	N 	0.17300 0.34950 0.67120 -0.22800
N 	N 	0.06130 0.65420 0.74870 -0.25200
N 	N 	0.32650 0.64920 0.33050 -0.22600
N 	N 	0.32770 0.33110 0.43820 -0.22100
N 	N 	0.42940 0.64700 0.52910 -0.23300
N 	N 	0.42960 0.65070 0.97210 -0.23700
N 	N 	0.32440 0.33690 0.06490 -0.22600
N 	N 	0.32700 0.65050 0.17120 -0.22800
N 	N 	0.43870 0.34580 0.24870 -0.25000
N 	N 	0.17350 0.35080 0.83050 -0.22700
N 	N 	0.17230 0.66890 0.93820 -0.22400
N 	N 	0.07060 0.35300 0.02910 -0.23300
N 	N 	0.92960 0.65070 0.52790 -0.23800
N 	N 	0.82440 0.33690 0.43510 -0.22700
N 	N 	0.82700 0.65050 0.32880 -0.22800
N 	N 	0.93870 0.34580 0.25130 -0.25200
N 	N 	0.67350 0.35080 0.66950 -0.22600
N 	N 	0.67230 0.66890 0.56180 -0.22100
N 	N 	0.57060 0.35300 0.47090 -0.23300
N 	N 	0.57040 0.34930 0.02790 -0.23700
N 	N 	0.67560 0.66310 0.93510 -0.22600
N 	N 	0.67300 0.34950 0.82880 -0.22800
N 	N 	0.56130 0.65420 0.75130 -0.25000
N 	N 	0.82650 0.64920 0.16950 -0.22700
N 	N 	0.82770 0.33110 0.06180 -0.22400
N 	N 	0.92940 0.64700 0.97090 -0.23300
O 	O 	0.09870 0.07600 0.47640 -0.39700
O 	O 	0.08510 0.09980 0.38670 -0.43800
O 	O 	0.13940 0.91270 0.48800 -0.54100
O 	O 	0.21330 0.94350 0.56860 -0.50700
O 	O 	0.37460 0.14720 0.64030 -0.42300
O 	O 	0.22440 0.08860 0.62610 -0.39300
O 	O 	0.94750 0.90410 0.74830 -0.28100
O 	O 	0.81540 0.82160 0.76910 -0.26800
O 	O 	0.27460 0.90790 0.38040 -0.42000
O 	O 	0.12580 0.85120 0.36300 -0.43200
O 	O 	0.35450 0.08270 0.51870 -0.49000
O 	O 	0.28710 0.05120 0.43490 -0.52800
O 	O 	0.42340 0.89580 0.61910 -0.43300
O 	O 	0.40100 0.92170 0.53070 -0.39900
O 	O 	0.40130 0.92400 0.97640 -0.39500
O 	O 	0.41490 0.90020 0.88670 -0.43800
O 	O 	0.36060 0.08730 0.98800 -0.54700
O 	O 	0.28670 0.05650 0.06860 -0.50300
O 	O 	0.12540 0.85280 0.14030 -0.42300
O 	O 	0.27560 0.91140 0.12610 -0.39400
O 	O 	0.55250 0.09590 0.24830 -0.28300
O 	O 	0.68460 0.17840 0.26910 -0.26900
O 	O 	0.22540 0.09210 0.88040 -0.42000
O 	O 	0.37420 0.14880 0.86300 -0.43100
O 	O 	0.14550 0.91730 0.01870 -0.49500
O 	O 	0.21290 0.94880 0.93490 -0.52900
O 	O 	0.07660 0.10420 0.11910 -0.42800
O 	O 	0.09900 0.07830 0.03070 -0.39200
O 	O 	0.90130 0.92400 0.52360 -0.39700
O 	O 	0.91490 0.90020 0.61330 -0.43800
O 	O 	0.86060 0.08730 0.51200 -0.54100
O 	O 	0.78670 0.05650 0.43140 -0.50700
O 	O 	0.62540 0.85280 0.35970 -0.42300
O 	O 	0.77560 0.91140 0.37390 -0.39300
O 	O 	0.05250 0.09590 0.25170 -0.28100
O 	O 	0.18460 0.17840 0.23090 -0.26800
O 	O 	0.72540 0.09210 0.61960 -0.42000
O 	O 	0.87420 0.14880 0.63700 -0.43200
O 	O 	0.64550 0.91730 0.48130 -0.49000
O 	O 	0.71290 0.94880 0.56510 -0.52800
O 	O 	0.57660 0.10420 0.38090 -0.43300
O 	O 	0.59900 0.07830 0.46930 -0.39900
O 	O 	0.59870 0.07600 0.02360 -0.39500
O 	O 	0.58510 0.09980 0.11330 -0.43800
O 	O 	0.63940 0.91270 0.01200 -0.54700
O 	O 	0.71330 0.94350 0.93140 -0.50300
O 	O 	0.87460 0.14720 0.85970 -0.42300
O 	O 	0.72440 0.08860 0.87390 -0.39400
O 	O 	0.44750 0.90410 0.75170 -0.28300
O 	O 	0.31540 0.82160 0.73090 -0.26900
O 	O 	0.77460 0.90790 0.11960 -0.42000
O 	O 	0.62580 0.85120 0.13700 -0.43100
O 	O 	0.85450 0.08270 0.98130 -0.49500
O 	O 	0.78710 0.05120 0.06510 -0.52900
O 	O 	0.92340 0.89580 0.88090 -0.42800
O 	O 	0.90100 0.92170 0.96930 -0.39200
