data_crystal

_cell_length_a 28.59800
_cell_length_b 28.59800
_cell_length_c 17.07400
_cell_angle_alpha 90.00000
_cell_angle_beta  90.00000
_cell_angle_gamma 90.00000

_symmetry_space_group_name_	'P 1'
_symmetry_space_group_name_H-M	'P 1'

loop_
_symmetry_equiv_pos_as_xyz
  x,y,z

loop_
_atom_site_label
_atom_site_type_symbol
_atom_site_fract_x
_atom_site_fract_y
_atom_site_fract_z
_atom_site_charge
Zn	Zn	0.17720 0.06671 0.36751 1.19300
Zn	Zn	0.28121 0.12308 0.38132 1.24300
O 	O 	0.17637 0.22653 0.96880 -0.26300
O 	O 	0.13208 0.21377 0.76860 -0.25000
O 	O 	0.05381 0.29225 0.92320 -0.27600
O 	O 	0.13898 0.34795 0.85880 -0.26400
C 	C 	0.12808 0.26653 0.87830 -0.00100
O 	O 	0.18796 0.10135 0.27260 -0.57400
O 	O 	0.27495 0.52012 0.88520 -0.55400
C 	C 	0.15270 0.19570 0.70150 0.28900
C 	C 	0.07606 0.27360 0.85450 0.04000
H 	H 	0.06190 0.24400 0.83950 0.02800
H 	H 	0.07350 0.29520 0.81100 0.04300
O 	O 	0.84150 0.34815 0.86940 -0.47300
O 	O 	0.24564 0.14214 0.47190 -0.51400
C 	C 	0.20693 0.47482 0.87250 -0.31400
C 	C 	0.18650 0.15670 0.56440 -0.26000
C 	C 	0.18284 0.20140 0.03670 0.34700
O 	O 	0.24901 0.14593 0.28780 -0.52200
C 	C 	0.97810 0.29730 0.85730 -0.42000
H 	H 	0.98850 0.28090 0.81370 0.17900
O 	O 	0.17641 0.10820 0.45750 -0.55900
C 	C 	0.93285 0.31420 0.86100 0.31400
H 	H 	0.91330 0.30900 0.81840 -0.05600
C 	C 	0.15010 0.31090 0.90840 0.05100
H 	H 	0.13870 0.31750 0.96080 0.04000
H 	H 	0.18380 0.30720 0.91100 0.02500
C 	C 	0.86600 0.35330 0.92760 0.47600
O 	O 	0.20755 0.55619 0.86430 -0.50700
C 	C 	0.15530 0.25258 0.80410 0.02000
H 	H 	0.15640 0.27870 0.76790 0.04100
H 	H 	0.18710 0.24400 0.81780 0.03600
C 	C 	0.20410 0.15710 0.17720 -0.30000
C 	C 	0.23710 0.18620 0.13900 0.24100
H 	H 	0.26660 0.18990 0.16090 -0.03100
C 	C 	0.12930 0.22900 0.94000 0.02500
H 	H 	0.10800 0.23660 0.98230 0.03700
H 	H 	0.12010 0.19920 0.91770 0.03600
C 	C 	0.23160 0.51983 0.87430 0.49300
C 	C 	0.21430 0.13340 0.25100 0.53200
C 	C 	0.21210 0.18770 0.60560 0.18900
H 	H 	0.24150 0.19580 0.58690 -0.01700
C 	C 	0.16320 0.38910 0.86660 0.35200
C 	C 	0.22890 0.43590 0.89820 0.26400
H 	H 	0.25920 0.43830 0.91790 -0.05300
C 	C 	0.00710 0.30550 0.91940 0.41800
C 	C 	0.20410 0.13460 0.49240 0.48600
C 	C 	0.22670 0.20870 0.07160 -0.34300
H 	H 	0.24830 0.22870 0.04860 0.16300
C 	C 	0.15120 0.17360 0.07100 -0.37200
H 	H 	0.12230 0.16900 0.04710 0.15800
C 	C 	0.19620 0.20870 0.67650 -0.29400
H 	H 	0.21440 0.23010 0.70420 0.13400
C 	C 	0.16060 0.15170 0.14070 0.25200
H 	H 	0.13780 0.13310 0.16400 -0.05900
O 	O 	0.85200 0.37340 0.98380 -0.35300
C 	C 	0.12450 0.16470 0.65980 -0.29000
H 	H 	0.09470 0.15740 0.67770 0.12600
C 	C 	0.16330 0.47120 0.84100 0.25200
H 	H 	0.14860 0.49770 0.82120 -0.03800
C 	C 	0.14140 0.14490 0.59150 0.18300
H 	H 	0.12300 0.12390 0.56340 -0.04100
C 	C 	0.20710 0.39250 0.89560 -0.36500
H 	H 	0.22260 0.36590 0.91370 0.16300
C 	C 	0.91620 0.33690 0.92060 -0.31800
C 	C 	0.14080 0.42850 0.83810 -0.34200
H 	H 	0.11080 0.42620 0.81720 0.16600
C 	C 	0.99120 0.32820 0.98080 -0.45000
H 	H 	0.01160 0.33450 0.02190 0.20200
C 	C 	0.94720 0.34240 0.98620 0.30600
H 	H 	0.93640 0.35590 0.03240 -0.05600
Zn	Zn	0.82280 0.93329 0.36751 1.19200
Zn	Zn	0.71879 0.87692 0.38132 1.24200
O 	O 	0.82363 0.77347 0.96880 -0.26400
O 	O 	0.86792 0.78623 0.76860 -0.25100
O 	O 	0.94619 0.70775 0.92320 -0.27700
O 	O 	0.86102 0.65205 0.85880 -0.26500
C 	C 	0.87192 0.73347 0.87830 -0.00200
O 	O 	0.81204 0.89865 0.27260 -0.57500
O 	O 	0.72505 0.47988 0.88520 -0.55500
C 	C 	0.84730 0.80430 0.70150 0.28800
C 	C 	0.92394 0.72640 0.85450 0.03900
H 	H 	0.93810 0.75600 0.83950 0.02700
H 	H 	0.92650 0.70480 0.81100 0.04200
O 	O 	0.15850 0.65185 0.86940 -0.47400
O 	O 	0.75436 0.85786 0.47190 -0.51500
C 	C 	0.79307 0.52518 0.87250 -0.31500
C 	C 	0.81350 0.84330 0.56440 -0.26000
C 	C 	0.81716 0.79860 0.03670 0.34700
O 	O 	0.75099 0.85407 0.28780 -0.52200
C 	C 	0.02190 0.70270 0.85730 -0.42000
H 	H 	0.01150 0.71910 0.81370 0.17900
O 	O 	0.82359 0.89180 0.45750 -0.55900
C 	C 	0.06715 0.68580 0.86100 0.31400
H 	H 	0.08670 0.69100 0.81840 -0.05600
C 	C 	0.84990 0.68910 0.90840 0.05100
H 	H 	0.86130 0.68250 0.96080 0.04000
H 	H 	0.81620 0.69280 0.91100 0.02500
C 	C 	0.13400 0.64670 0.92760 0.47600
O 	O 	0.79245 0.44381 0.86430 -0.50700
C 	C 	0.84470 0.74742 0.80410 0.02000
H 	H 	0.84360 0.72130 0.76790 0.04100
H 	H 	0.81290 0.75600 0.81780 0.03600
C 	C 	0.79590 0.84290 0.17720 -0.30000
C 	C 	0.76290 0.81380 0.13900 0.24100
H 	H 	0.73340 0.81010 0.16090 -0.03100
C 	C 	0.87070 0.77100 0.94000 0.02500
H 	H 	0.89200 0.76340 0.98230 0.03700
H 	H 	0.87990 0.80080 0.91770 0.03600
C 	C 	0.76840 0.48017 0.87430 0.49300
C 	C 	0.78570 0.86660 0.25100 0.53200
C 	C 	0.78790 0.81230 0.60560 0.18900
H 	H 	0.75850 0.80420 0.58690 -0.01700
C 	C 	0.83680 0.61090 0.86660 0.35200
C 	C 	0.77110 0.56410 0.89820 0.26400
H 	H 	0.74080 0.56170 0.91790 -0.05300
C 	C 	0.99290 0.69450 0.91940 0.41800
C 	C 	0.79590 0.86540 0.49240 0.48600
C 	C 	0.77330 0.79130 0.07160 -0.34300
H 	H 	0.75170 0.77130 0.04860 0.16300
C 	C 	0.84880 0.82640 0.07100 -0.37200
H 	H 	0.87770 0.83100 0.04710 0.15800
C 	C 	0.80380 0.79130 0.67650 -0.29400
H 	H 	0.78560 0.76990 0.70420 0.13400
C 	C 	0.83940 0.84830 0.14070 0.25200
H 	H 	0.86220 0.86690 0.16400 -0.05900
O 	O 	0.14800 0.62660 0.98380 -0.35300
C 	C 	0.87550 0.83530 0.65980 -0.29000
H 	H 	0.90530 0.84260 0.67770 0.12600
C 	C 	0.83670 0.52880 0.84100 0.25200
H 	H 	0.85140 0.50230 0.82120 -0.03800
C 	C 	0.85860 0.85510 0.59150 0.18300
H 	H 	0.87700 0.87610 0.56340 -0.04100
C 	C 	0.79290 0.60750 0.89560 -0.36500
H 	H 	0.77740 0.63410 0.91370 0.16300
C 	C 	0.08380 0.66310 0.92060 -0.31800
C 	C 	0.85920 0.57150 0.83810 -0.34200
H 	H 	0.88920 0.57380 0.81720 0.16600
C 	C 	0.00880 0.67180 0.98080 -0.45000
H 	H 	0.98840 0.66550 0.02190 0.20200
C 	C 	0.05280 0.65760 0.98620 0.30600
H 	H 	0.06360 0.64410 0.03240 -0.05600
Zn	Zn	0.67720 0.43329 0.86751 1.19200
Zn	Zn	0.78121 0.37692 0.88132 1.24200
O 	O 	0.67637 0.27347 0.46880 -0.26400
O 	O 	0.63208 0.28623 0.26860 -0.25100
O 	O 	0.55381 0.20775 0.42320 -0.27700
O 	O 	0.63898 0.15205 0.35880 -0.26500
C 	C 	0.62808 0.23347 0.37830 -0.00200
O 	O 	0.68796 0.39865 0.77260 -0.57500
O 	O 	0.77495 0.97988 0.38520 -0.55500
C 	C 	0.65270 0.30430 0.20150 0.28800
C 	C 	0.57606 0.22640 0.35450 0.03900
H 	H 	0.56190 0.25600 0.33950 0.02700
H 	H 	0.57350 0.20480 0.31100 0.04200
O 	O 	0.34150 0.15185 0.36940 -0.47400
O 	O 	0.74564 0.35786 0.97190 -0.51500
C 	C 	0.70693 0.02518 0.37250 -0.31500
C 	C 	0.68650 0.34330 0.06440 -0.26000
C 	C 	0.68284 0.29860 0.53670 0.34700
O 	O 	0.74901 0.35407 0.78780 -0.52200
C 	C 	0.47810 0.20270 0.35730 -0.42000
H 	H 	0.48850 0.21910 0.31370 0.17900
O 	O 	0.67641 0.39180 0.95750 -0.55900
C 	C 	0.43285 0.18580 0.36100 0.31400
H 	H 	0.41330 0.19100 0.31840 -0.05600
C 	C 	0.65010 0.18910 0.40840 0.05100
H 	H 	0.63870 0.18250 0.46080 0.04000
H 	H 	0.68380 0.19280 0.41100 0.02500
C 	C 	0.36600 0.14670 0.42760 0.47600
O 	O 	0.70755 0.94381 0.36430 -0.50700
C 	C 	0.65530 0.24742 0.30410 0.02000
H 	H 	0.65640 0.22130 0.26790 0.04100
H 	H 	0.68710 0.25600 0.31780 0.03600
C 	C 	0.70410 0.34290 0.67720 -0.30000
C 	C 	0.73710 0.31380 0.63900 0.24100
H 	H 	0.76660 0.31010 0.66090 -0.03100
C 	C 	0.62930 0.27100 0.44000 0.02500
H 	H 	0.60800 0.26340 0.48230 0.03700
H 	H 	0.62010 0.30080 0.41770 0.03600
C 	C 	0.73160 0.98017 0.37430 0.49300
C 	C 	0.71430 0.36660 0.75100 0.53200
C 	C 	0.71210 0.31230 0.10560 0.18900
H 	H 	0.74150 0.30420 0.08690 -0.01700
C 	C 	0.66320 0.11090 0.36660 0.35200
C 	C 	0.72890 0.06410 0.39820 0.26400
H 	H 	0.75920 0.06170 0.41790 -0.05300
C 	C 	0.50710 0.19450 0.41940 0.41800
C 	C 	0.70410 0.36540 0.99240 0.48600
C 	C 	0.72670 0.29130 0.57160 -0.34300
H 	H 	0.74830 0.27130 0.54860 0.16300
C 	C 	0.65120 0.32640 0.57100 -0.37200
H 	H 	0.62230 0.33100 0.54710 0.15800
C 	C 	0.69620 0.29130 0.17650 -0.29400
H 	H 	0.71440 0.26990 0.20420 0.13400
C 	C 	0.66060 0.34830 0.64070 0.25200
H 	H 	0.63780 0.36690 0.66400 -0.05900
O 	O 	0.35200 0.12660 0.48380 -0.35300
C 	C 	0.62450 0.33530 0.15980 -0.29000
H 	H 	0.59470 0.34260 0.17770 0.12600
C 	C 	0.66330 0.02880 0.34100 0.25200
H 	H 	0.64860 0.00230 0.32120 -0.03800
C 	C 	0.64140 0.35510 0.09150 0.18300
H 	H 	0.62300 0.37610 0.06340 -0.04100
C 	C 	0.70710 0.10750 0.39560 -0.36500
H 	H 	0.72260 0.13410 0.41370 0.16300
C 	C 	0.41620 0.16310 0.42060 -0.31800
C 	C 	0.64080 0.07150 0.33810 -0.34200
H 	H 	0.61080 0.07380 0.31720 0.16600
C 	C 	0.49120 0.17180 0.48080 -0.45000
H 	H 	0.51160 0.16550 0.52190 0.20200
C 	C 	0.44720 0.15760 0.48620 0.30600
H 	H 	0.43640 0.14410 0.53240 -0.05600
Zn	Zn	0.32280 0.56671 0.86751 1.19200
Zn	Zn	0.21879 0.62308 0.88132 1.24200
O 	O 	0.32363 0.72653 0.46880 -0.26400
O 	O 	0.36792 0.71377 0.26860 -0.25100
O 	O 	0.44619 0.79225 0.42320 -0.27700
O 	O 	0.36102 0.84795 0.35880 -0.26500
C 	C 	0.37192 0.76653 0.37830 -0.00200
O 	O 	0.31204 0.60135 0.77260 -0.57500
O 	O 	0.22505 0.02012 0.38520 -0.55500
C 	C 	0.34730 0.69570 0.20150 0.28800
C 	C 	0.42394 0.77360 0.35450 0.03900
H 	H 	0.43810 0.74400 0.33950 0.02700
H 	H 	0.42650 0.79520 0.31100 0.04200
O 	O 	0.65850 0.84815 0.36940 -0.47400
O 	O 	0.25436 0.64214 0.97190 -0.51500
C 	C 	0.29307 0.97482 0.37250 -0.31500
C 	C 	0.31350 0.65670 0.06440 -0.26000
C 	C 	0.31716 0.70140 0.53670 0.34700
O 	O 	0.25099 0.64593 0.78780 -0.52200
C 	C 	0.52190 0.79730 0.35730 -0.42000
H 	H 	0.51150 0.78090 0.31370 0.17900
O 	O 	0.32359 0.60820 0.95750 -0.55900
C 	C 	0.56715 0.81420 0.36100 0.31400
H 	H 	0.58670 0.80900 0.31840 -0.05600
C 	C 	0.34990 0.81090 0.40840 0.05100
H 	H 	0.36130 0.81750 0.46080 0.04000
H 	H 	0.31620 0.80720 0.41100 0.02500
C 	C 	0.63400 0.85330 0.42760 0.47600
O 	O 	0.29245 0.05619 0.36430 -0.50700
C 	C 	0.34470 0.75258 0.30410 0.02000
H 	H 	0.34360 0.77870 0.26790 0.04100
H 	H 	0.31290 0.74400 0.31780 0.03600
C 	C 	0.29590 0.65710 0.67720 -0.30000
C 	C 	0.26290 0.68620 0.63900 0.24100
H 	H 	0.23340 0.68990 0.66090 -0.03100
C 	C 	0.37070 0.72900 0.44000 0.02500
H 	H 	0.39200 0.73660 0.48230 0.03700
H 	H 	0.37990 0.69920 0.41770 0.03600
C 	C 	0.26840 0.01983 0.37430 0.49300
C 	C 	0.28570 0.63340 0.75100 0.53200
C 	C 	0.28790 0.68770 0.10560 0.18900
H 	H 	0.25850 0.69580 0.08690 -0.01700
C 	C 	0.33680 0.88910 0.36660 0.35200
C 	C 	0.27110 0.93590 0.39820 0.26400
H 	H 	0.24080 0.93830 0.41790 -0.05300
C 	C 	0.49290 0.80550 0.41940 0.41800
C 	C 	0.29590 0.63460 0.99240 0.48600
C 	C 	0.27330 0.70870 0.57160 -0.34300
H 	H 	0.25170 0.72870 0.54860 0.16300
C 	C 	0.34880 0.67360 0.57100 -0.37200
H 	H 	0.37770 0.66900 0.54710 0.15800
C 	C 	0.30380 0.70870 0.17650 -0.29400
H 	H 	0.28560 0.73010 0.20420 0.13400
C 	C 	0.33940 0.65170 0.64070 0.25200
H 	H 	0.36220 0.63310 0.66400 -0.05900
O 	O 	0.64800 0.87340 0.48380 -0.35300
C 	C 	0.37550 0.66470 0.15980 -0.29000
H 	H 	0.40530 0.65740 0.17770 0.12600
C 	C 	0.33670 0.97120 0.34100 0.25200
H 	H 	0.35140 0.99770 0.32120 -0.03800
C 	C 	0.35860 0.64490 0.09150 0.18300
H 	H 	0.37700 0.62390 0.06340 -0.04100
C 	C 	0.29290 0.89250 0.39560 -0.36500
H 	H 	0.27740 0.86590 0.41370 0.16300
C 	C 	0.58380 0.83690 0.42060 -0.31800
C 	C 	0.35920 0.92850 0.33810 -0.34200
H 	H 	0.38920 0.92620 0.31720 0.16600
C 	C 	0.50880 0.82820 0.48080 -0.45000
H 	H 	0.48840 0.83450 0.52190 0.20200
C 	C 	0.55280 0.84240 0.48620 0.30600
H 	H 	0.56360 0.85590 0.53240 -0.05600
Zn	Zn	0.06671 0.82280 0.63249 1.19200
Zn	Zn	0.12308 0.71879 0.61868 1.24200
O 	O 	0.22653 0.82363 0.03120 -0.26400
O 	O 	0.21377 0.86792 0.23140 -0.25100
O 	O 	0.29225 0.94619 0.07680 -0.27700
O 	O 	0.34795 0.86102 0.14120 -0.26500
C 	C 	0.26653 0.87192 0.12170 -0.00200
O 	O 	0.10135 0.81204 0.72740 -0.57500
O 	O 	0.52012 0.72505 0.11480 -0.55500
C 	C 	0.19570 0.84730 0.29850 0.28800
C 	C 	0.27360 0.92394 0.14550 0.03900
H 	H 	0.24400 0.93810 0.16050 0.02700
H 	H 	0.29520 0.92650 0.18900 0.04200
O 	O 	0.34815 0.15850 0.13060 -0.47400
O 	O 	0.14214 0.75436 0.52810 -0.51500
C 	C 	0.47482 0.79307 0.12750 -0.31500
C 	C 	0.15670 0.81350 0.43560 -0.26000
C 	C 	0.20140 0.81716 0.96330 0.34700
O 	O 	0.14593 0.75099 0.71220 -0.52200
C 	C 	0.29730 0.02190 0.14270 -0.42000
H 	H 	0.28090 0.01150 0.18630 0.17900
O 	O 	0.10820 0.82359 0.54250 -0.55900
C 	C 	0.31420 0.06715 0.13900 0.31400
H 	H 	0.30900 0.08670 0.18160 -0.05600
C 	C 	0.31090 0.84990 0.09160 0.05100
H 	H 	0.31750 0.86130 0.03920 0.04000
H 	H 	0.30720 0.81620 0.08900 0.02500
C 	C 	0.35330 0.13400 0.07240 0.47600
O 	O 	0.55619 0.79245 0.13570 -0.50700
C 	C 	0.25258 0.84470 0.19590 0.02000
H 	H 	0.27870 0.84360 0.23210 0.04100
H 	H 	0.24400 0.81290 0.18220 0.03600
C 	C 	0.15710 0.79590 0.82280 -0.30000
C 	C 	0.18620 0.76290 0.86100 0.24100
H 	H 	0.18990 0.73340 0.83910 -0.03100
C 	C 	0.22900 0.87070 0.06000 0.02500
H 	H 	0.23660 0.89200 0.01770 0.03700
H 	H 	0.19920 0.87990 0.08230 0.03600
C 	C 	0.51983 0.76840 0.12570 0.49300
C 	C 	0.13340 0.78570 0.74900 0.53200
C 	C 	0.18770 0.78790 0.39440 0.18900
H 	H 	0.19580 0.75850 0.41310 -0.01700
C 	C 	0.38910 0.83680 0.13340 0.35200
C 	C 	0.43590 0.77110 0.10180 0.26400
H 	H 	0.43830 0.74080 0.08210 -0.05300
C 	C 	0.30550 0.99290 0.08060 0.41800
C 	C 	0.13460 0.79590 0.50760 0.48600
C 	C 	0.20870 0.77330 0.92840 -0.34300
H 	H 	0.22870 0.75170 0.95140 0.16300
C 	C 	0.17360 0.84880 0.92900 -0.37200
H 	H 	0.16900 0.87770 0.95290 0.15800
C 	C 	0.20870 0.80380 0.32350 -0.29400
H 	H 	0.23010 0.78560 0.29580 0.13400
C 	C 	0.15170 0.83940 0.85930 0.25200
H 	H 	0.13310 0.86220 0.83600 -0.05900
O 	O 	0.37340 0.14800 0.01620 -0.35300
C 	C 	0.16470 0.87550 0.34020 -0.29000
H 	H 	0.15740 0.90530 0.32230 0.12600
C 	C 	0.47120 0.83670 0.15900 0.25200
H 	H 	0.49770 0.85140 0.17880 -0.03800
C 	C 	0.14490 0.85860 0.40850 0.18300
H 	H 	0.12390 0.87700 0.43660 -0.04100
C 	C 	0.39250 0.79290 0.10440 -0.36500
H 	H 	0.36590 0.77740 0.08630 0.16300
C 	C 	0.33690 0.08380 0.07940 -0.31800
C 	C 	0.42850 0.85920 0.16190 -0.34200
H 	H 	0.42620 0.88920 0.18280 0.16600
C 	C 	0.32820 0.00880 0.01920 -0.45000
H 	H 	0.33450 0.98840 0.97810 0.20200
C 	C 	0.34240 0.05280 0.01380 0.30600
H 	H 	0.35590 0.06360 0.96760 -0.05600
Zn	Zn	0.93329 0.17720 0.63249 1.19200
Zn	Zn	0.87692 0.28121 0.61868 1.24200
O 	O 	0.77347 0.17637 0.03120 -0.26400
O 	O 	0.78623 0.13208 0.23140 -0.25100
O 	O 	0.70775 0.05381 0.07680 -0.27700
O 	O 	0.65205 0.13898 0.14120 -0.26500
C 	C 	0.73347 0.12808 0.12170 -0.00200
O 	O 	0.89865 0.18796 0.72740 -0.57500
O 	O 	0.47988 0.27495 0.11480 -0.55500
C 	C 	0.80430 0.15270 0.29850 0.28800
C 	C 	0.72640 0.07606 0.14550 0.03900
H 	H 	0.75600 0.06190 0.16050 0.02700
H 	H 	0.70480 0.07350 0.18900 0.04200
O 	O 	0.65185 0.84150 0.13060 -0.47400
O 	O 	0.85786 0.24564 0.52810 -0.51500
C 	C 	0.52518 0.20693 0.12750 -0.31500
C 	C 	0.84330 0.18650 0.43560 -0.26000
C 	C 	0.79860 0.18284 0.96330 0.34700
O 	O 	0.85407 0.24901 0.71220 -0.52200
C 	C 	0.70270 0.97810 0.14270 -0.42000
H 	H 	0.71910 0.98850 0.18630 0.17900
O 	O 	0.89180 0.17641 0.54250 -0.55900
C 	C 	0.68580 0.93285 0.13900 0.31400
H 	H 	0.69100 0.91330 0.18160 -0.05600
C 	C 	0.68910 0.15010 0.09160 0.05100
H 	H 	0.68250 0.13870 0.03920 0.04000
H 	H 	0.69280 0.18380 0.08900 0.02500
C 	C 	0.64670 0.86600 0.07240 0.47600
O 	O 	0.44381 0.20755 0.13570 -0.50700
C 	C 	0.74742 0.15530 0.19590 0.02000
H 	H 	0.72130 0.15640 0.23210 0.04100
H 	H 	0.75600 0.18710 0.18220 0.03600
C 	C 	0.84290 0.20410 0.82280 -0.30000
C 	C 	0.81380 0.23710 0.86100 0.24100
H 	H 	0.81010 0.26660 0.83910 -0.03100
C 	C 	0.77100 0.12930 0.06000 0.02500
H 	H 	0.76340 0.10800 0.01770 0.03700
H 	H 	0.80080 0.12010 0.08230 0.03600
C 	C 	0.48017 0.23160 0.12570 0.49300
C 	C 	0.86660 0.21430 0.74900 0.53200
C 	C 	0.81230 0.21210 0.39440 0.18900
H 	H 	0.80420 0.24150 0.41310 -0.01700
C 	C 	0.61090 0.16320 0.13340 0.35200
C 	C 	0.56410 0.22890 0.10180 0.26400
H 	H 	0.56170 0.25920 0.08210 -0.05300
C 	C 	0.69450 0.00710 0.08060 0.41800
C 	C 	0.86540 0.20410 0.50760 0.48600
C 	C 	0.79130 0.22670 0.92840 -0.34300
H 	H 	0.77130 0.24830 0.95140 0.16300
C 	C 	0.82640 0.15120 0.92900 -0.37200
H 	H 	0.83100 0.12230 0.95290 0.15800
C 	C 	0.79130 0.19620 0.32350 -0.29400
H 	H 	0.76990 0.21440 0.29580 0.13400
C 	C 	0.84830 0.16060 0.85930 0.25200
H 	H 	0.86690 0.13780 0.83600 -0.05900
O 	O 	0.62660 0.85200 0.01620 -0.35300
C 	C 	0.83530 0.12450 0.34020 -0.29000
H 	H 	0.84260 0.09470 0.32230 0.12600
C 	C 	0.52880 0.16330 0.15900 0.25200
H 	H 	0.50230 0.14860 0.17880 -0.03800
C 	C 	0.85510 0.14140 0.40850 0.18300
H 	H 	0.87610 0.12300 0.43660 -0.04100
C 	C 	0.60750 0.20710 0.10440 -0.36500
H 	H 	0.63410 0.22260 0.08630 0.16300
C 	C 	0.66310 0.91620 0.07940 -0.31800
C 	C 	0.57150 0.14080 0.16190 -0.34200
H 	H 	0.57380 0.11080 0.18280 0.16600
C 	C 	0.67180 0.99120 0.01920 -0.45000
H 	H 	0.66550 0.01160 0.97810 0.20200
C 	C 	0.65760 0.94720 0.01380 0.30600
H 	H 	0.64410 0.93640 0.96760 -0.05600
Zn	Zn	0.56671 0.67720 0.13249 1.19200
Zn	Zn	0.62308 0.78121 0.11868 1.24200
O 	O 	0.72653 0.67637 0.53120 -0.26400
O 	O 	0.71377 0.63208 0.73140 -0.25100
O 	O 	0.79225 0.55381 0.57680 -0.27700
O 	O 	0.84795 0.63898 0.64120 -0.26500
C 	C 	0.76653 0.62808 0.62170 -0.00200
O 	O 	0.60135 0.68796 0.22740 -0.57500
O 	O 	0.02012 0.77495 0.61480 -0.55500
C 	C 	0.69570 0.65270 0.79850 0.28800
C 	C 	0.77360 0.57606 0.64550 0.03900
H 	H 	0.74400 0.56190 0.66050 0.02700
H 	H 	0.79520 0.57350 0.68900 0.04200
O 	O 	0.84815 0.34150 0.63060 -0.47400
O 	O 	0.64214 0.74564 0.02810 -0.51500
C 	C 	0.97482 0.70693 0.62750 -0.31500
C 	C 	0.65670 0.68650 0.93560 -0.26000
C 	C 	0.70140 0.68284 0.46330 0.34700
O 	O 	0.64593 0.74901 0.21220 -0.52200
C 	C 	0.79730 0.47810 0.64270 -0.42000
H 	H 	0.78090 0.48850 0.68630 0.17900
O 	O 	0.60820 0.67641 0.04250 -0.55900
C 	C 	0.81420 0.43285 0.63900 0.31400
H 	H 	0.80900 0.41330 0.68160 -0.05600
C 	C 	0.81090 0.65010 0.59160 0.05100
H 	H 	0.81750 0.63870 0.53920 0.04000
H 	H 	0.80720 0.68380 0.58900 0.02500
C 	C 	0.85330 0.36600 0.57240 0.47600
O 	O 	0.05619 0.70755 0.63570 -0.50700
C 	C 	0.75258 0.65530 0.69590 0.02000
H 	H 	0.77870 0.65640 0.73210 0.04100
H 	H 	0.74400 0.68710 0.68220 0.03600
C 	C 	0.65710 0.70410 0.32280 -0.30000
C 	C 	0.68620 0.73710 0.36100 0.24100
H 	H 	0.68990 0.76660 0.33910 -0.03100
C 	C 	0.72900 0.62930 0.56000 0.02500
H 	H 	0.73660 0.60800 0.51770 0.03700
H 	H 	0.69920 0.62010 0.58230 0.03600
C 	C 	0.01983 0.73160 0.62570 0.49300
C 	C 	0.63340 0.71430 0.24900 0.53200
C 	C 	0.68770 0.71210 0.89440 0.18900
H 	H 	0.69580 0.74150 0.91310 -0.01700
C 	C 	0.88910 0.66320 0.63340 0.35200
C 	C 	0.93590 0.72890 0.60180 0.26400
H 	H 	0.93830 0.75920 0.58210 -0.05300
C 	C 	0.80550 0.50710 0.58060 0.41800
C 	C 	0.63460 0.70410 0.00760 0.48600
C 	C 	0.70870 0.72670 0.42840 -0.34300
H 	H 	0.72870 0.74830 0.45140 0.16300
C 	C 	0.67360 0.65120 0.42900 -0.37200
H 	H 	0.66900 0.62230 0.45290 0.15800
C 	C 	0.70870 0.69620 0.82350 -0.29400
H 	H 	0.73010 0.71440 0.79580 0.13400
C 	C 	0.65170 0.66060 0.35930 0.25200
H 	H 	0.63310 0.63780 0.33600 -0.05900
O 	O 	0.87340 0.35200 0.51620 -0.35300
C 	C 	0.66470 0.62450 0.84020 -0.29000
H 	H 	0.65740 0.59470 0.82230 0.12600
C 	C 	0.97120 0.66330 0.65900 0.25200
H 	H 	0.99770 0.64860 0.67880 -0.03800
C 	C 	0.64490 0.64140 0.90850 0.18300
H 	H 	0.62390 0.62300 0.93660 -0.04100
C 	C 	0.89250 0.70710 0.60440 -0.36500
H 	H 	0.86590 0.72260 0.58630 0.16300
C 	C 	0.83690 0.41620 0.57940 -0.31800
C 	C 	0.92850 0.64080 0.66190 -0.34200
H 	H 	0.92620 0.61080 0.68280 0.16600
C 	C 	0.82820 0.49120 0.51920 -0.45000
H 	H 	0.83450 0.51160 0.47810 0.20200
C 	C 	0.84240 0.44720 0.51380 0.30600
H 	H 	0.85590 0.43640 0.46760 -0.05600
Zn	Zn	0.43329 0.32280 0.13249 1.19200
Zn	Zn	0.37692 0.21879 0.11868 1.24200
O 	O 	0.27347 0.32363 0.53120 -0.26400
O 	O 	0.28623 0.36792 0.73140 -0.25100
O 	O 	0.20775 0.44619 0.57680 -0.27700
O 	O 	0.15205 0.36102 0.64120 -0.26500
C 	C 	0.23347 0.37192 0.62170 -0.00200
O 	O 	0.39865 0.31204 0.22740 -0.57500
O 	O 	0.97988 0.22505 0.61480 -0.55500
C 	C 	0.30430 0.34730 0.79850 0.28800
C 	C 	0.22640 0.42394 0.64550 0.03900
H 	H 	0.25600 0.43810 0.66050 0.02700
H 	H 	0.20480 0.42650 0.68900 0.04200
O 	O 	0.15185 0.65850 0.63060 -0.47400
O 	O 	0.35786 0.25436 0.02810 -0.51500
C 	C 	0.02518 0.29307 0.62750 -0.31500
C 	C 	0.34330 0.31350 0.93560 -0.26000
C 	C 	0.29860 0.31716 0.46330 0.34700
O 	O 	0.35407 0.25099 0.21220 -0.52200
C 	C 	0.20270 0.52190 0.64270 -0.42000
H 	H 	0.21910 0.51150 0.68630 0.17900
O 	O 	0.39180 0.32359 0.04250 -0.55900
C 	C 	0.18580 0.56715 0.63900 0.31400
H 	H 	0.19100 0.58670 0.68160 -0.05600
C 	C 	0.18910 0.34990 0.59160 0.05100
H 	H 	0.18250 0.36130 0.53920 0.04000
H 	H 	0.19280 0.31620 0.58900 0.02500
C 	C 	0.14670 0.63400 0.57240 0.47600
O 	O 	0.94381 0.29245 0.63570 -0.50700
C 	C 	0.24742 0.34470 0.69590 0.02000
H 	H 	0.22130 0.34360 0.73210 0.04100
H 	H 	0.25600 0.31290 0.68220 0.03600
C 	C 	0.34290 0.29590 0.32280 -0.30000
C 	C 	0.31380 0.26290 0.36100 0.24100
H 	H 	0.31010 0.23340 0.33910 -0.03100
C 	C 	0.27100 0.37070 0.56000 0.02500
H 	H 	0.26340 0.39200 0.51770 0.03700
H 	H 	0.30080 0.37990 0.58230 0.03600
C 	C 	0.98017 0.26840 0.62570 0.49300
C 	C 	0.36660 0.28570 0.24900 0.53200
C 	C 	0.31230 0.28790 0.89440 0.18900
H 	H 	0.30420 0.25850 0.91310 -0.01700
C 	C 	0.11090 0.33680 0.63340 0.35200
C 	C 	0.06410 0.27110 0.60180 0.26400
H 	H 	0.06170 0.24080 0.58210 -0.05300
C 	C 	0.19450 0.49290 0.58060 0.41800
C 	C 	0.36540 0.29590 0.00760 0.48600
C 	C 	0.29130 0.27330 0.42840 -0.34300
H 	H 	0.27130 0.25170 0.45140 0.16300
C 	C 	0.32640 0.34880 0.42900 -0.37200
H 	H 	0.33100 0.37770 0.45290 0.15800
C 	C 	0.29130 0.30380 0.82350 -0.29400
H 	H 	0.26990 0.28560 0.79580 0.13400
C 	C 	0.34830 0.33940 0.35930 0.25200
H 	H 	0.36690 0.36220 0.33600 -0.05900
O 	O 	0.12660 0.64800 0.51620 -0.35300
C 	C 	0.33530 0.37550 0.84020 -0.29000
H 	H 	0.34260 0.40530 0.82230 0.12600
C 	C 	0.02880 0.33670 0.65900 0.25200
H 	H 	0.00230 0.35140 0.67880 -0.03800
C 	C 	0.35510 0.35860 0.90850 0.18300
H 	H 	0.37610 0.37700 0.93660 -0.04100
C 	C 	0.10750 0.29290 0.60440 -0.36500
H 	H 	0.13410 0.27740 0.58630 0.16300
C 	C 	0.16310 0.58380 0.57940 -0.31800
C 	C 	0.07150 0.35920 0.66190 -0.34200
H 	H 	0.07380 0.38920 0.68280 0.16600
C 	C 	0.17180 0.50880 0.51920 -0.45000
H 	H 	0.16550 0.48840 0.47810 0.20200
C 	C 	0.15760 0.55280 0.51380 0.30600
H 	H 	0.14410 0.56360 0.46760 -0.05600
