data_crystal

_cell_length_a 6.07830
_cell_length_b 8.64570
_cell_length_c 16.19540
_cell_angle_alpha 77.80100
_cell_angle_beta  88.35100
_cell_angle_gamma 83.63700

_symmetry_space_group_name_	'P 1'
_symmetry_space_group_name_H-M	'P 1'

loop_
_symmetry_equiv_pos_as_xyz
  x,y,z

loop_
_atom_site_label
_atom_site_type_symbol
_atom_site_fract_x
_atom_site_fract_y
_atom_site_fract_z
_atom_site_charge
Tb	Tb	0.88010 0.10263 0.21809 1.89600
Tb	Tb	0.11990 0.89737 0.78191 1.89600
H 	H 	0.43160 0.48960 0.14250 0.09700
H 	H 	0.27670 0.46650 0.01690 0.05500
H 	H 	0.12740 0.75790 0.08410 0.10400
H 	H 	0.81220 0.91150 0.00510 0.04300
H 	H 	0.85670 0.01930 0.46190 0.06500
H 	H 	0.54500 0.14500 0.51990 0.06000
H 	H 	0.56840 0.51040 0.85750 0.09800
H 	H 	0.72330 0.53350 0.98310 0.05600
H 	H 	0.87260 0.24210 0.91590 0.10500
H 	H 	0.18780 0.08850 0.99490 0.04400
H 	H 	0.14330 0.98070 0.53810 0.06500
H 	H 	0.45500 0.85500 0.48010 0.06000
C 	C 	0.36870 0.25340 0.16550 0.43100
C 	C 	0.48510 0.39640 0.11920 -0.07500
C 	C 	0.43540 0.43340 0.02480 0.06700
C 	C 	0.85730 0.77030 0.16440 0.34400
C 	C 	0.03400 0.84110 0.10530 -0.10100
C 	C 	0.91850 0.96180 0.03240 0.09900
C 	C 	0.80020 0.24330 0.38770 0.35000
C 	C 	0.73690 0.07660 0.42460 -0.05900
C 	C 	0.52490 0.08260 0.47730 0.06200
C 	C 	0.63130 0.74660 0.83450 0.43100
C 	C 	0.51490 0.60360 0.88080 -0.07500
C 	C 	0.56460 0.56660 0.97520 0.06700
C 	C 	0.14270 0.22970 0.83560 0.34400
C 	C 	0.96600 0.15890 0.89470 -0.10100
C 	C 	0.08150 0.03820 0.96760 0.09900
C 	C 	0.19980 0.75670 0.61230 0.35000
C 	C 	0.26310 0.92340 0.57540 -0.05900
C 	C 	0.47510 0.91740 0.52270 0.06200
O 	O 	0.48970 0.13520 0.20480 -0.44400
O 	O 	0.16130 0.26630 0.16200 -0.43900
O 	O 	0.71680 0.36060 0.13400 -0.23900
O 	O 	0.49040 0.29170 0.99270 -0.13600
O 	O 	0.81010 0.83010 0.22800 -0.38200
O 	O 	0.76420 0.66050 0.14540 -0.21200
O 	O 	0.16460 0.92950 0.14640 -0.24200
O 	O 	0.80510 0.08140 0.07240 -0.30000
O 	O 	0.84780 0.27670 0.30960 -0.41600
O 	O 	0.80630 0.33400 0.43670 -0.21400
O 	O 	0.71720 0.99210 0.35840 -0.26300
O 	O 	0.34300 0.15830 0.42640 -0.15300
O 	O 	0.51030 0.86480 0.79520 -0.44400
O 	O 	0.83870 0.73370 0.83800 -0.43900
O 	O 	0.28320 0.63940 0.86600 -0.23900
O 	O 	0.50960 0.70830 0.00730 -0.13600
O 	O 	0.18990 0.16990 0.77200 -0.38200
O 	O 	0.23580 0.33950 0.85460 -0.21200
O 	O 	0.83540 0.07050 0.85360 -0.24200
O 	O 	0.19490 0.91860 0.92760 -0.30000
O 	O 	0.15220 0.72330 0.69040 -0.41600
O 	O 	0.19370 0.66600 0.56330 -0.21400
O 	O 	0.28280 0.00790 0.64160 -0.26300
O 	O 	0.65700 0.84170 0.57360 -0.15300
