data_crystal

_cell_length_a 8.72100
_cell_length_b 11.02600
_cell_length_c 13.54000
_cell_angle_alpha 90.00000
_cell_angle_beta  90.00000
_cell_angle_gamma 90.00000

_symmetry_space_group_name_	'P 1'
_symmetry_space_group_name_H-M	'P 1'

loop_
_symmetry_equiv_pos_as_xyz
  x,y,z

loop_
_atom_site_label
_atom_site_type_symbol
_atom_site_fract_x
_atom_site_fract_y
_atom_site_fract_z
_atom_site_charge
Cd	Cd	0.00000 0.76768 -0.00000 1.10800
Cd	Cd	0.50000 0.23232 0.50000 1.16900
Cd	Cd	0.50000 0.06947 0.10251 1.14700
Cd	Cd	0.50000 0.48663 0.86465 1.15500
Cd	Cd	0.00000 0.93053 0.60251 1.12800
Cd	Cd	0.00000 0.51337 0.36465 1.12000
C 	C 	0.70850 0.95880 0.06560 -0.24800
C 	C 	0.70860 0.58180 0.91270 -0.23300
C 	C 	0.79150 0.04120 0.56560 -0.18000
C 	C 	0.79140 0.41820 0.41270 -0.18700
C 	C 	0.20850 0.04120 0.56560 -0.31500
C 	C 	0.20860 0.41820 0.41270 -0.32800
C 	C 	0.29150 0.95880 0.06560 -0.29700
C 	C 	0.29140 0.58180 0.91270 -0.28000
C 	C 	-0.00000 0.88110 0.75940 -0.33300
C 	C 	-0.00000 0.61610 0.22300 -0.35500
C 	C 	0.50000 0.11890 0.25940 -0.29300
C 	C 	0.50000 0.38390 0.72300 -0.26800
C 	C 	0.50000 0.24400 0.01790 -0.42200
C 	C 	0.50000 0.32590 0.96820 -0.08700
C 	C 	0.00000 0.75600 0.51790 -0.30600
C 	C 	0.00000 0.67410 0.46820 -0.28800
N 	N 	0.80930 0.89980 0.04600 -0.17500
N 	N 	0.80870 0.63470 0.94170 -0.12900
N 	N 	0.69070 0.10020 0.54600 -0.21600
N 	N 	0.69130 0.36530 0.44170 -0.20400
N 	N 	0.30930 0.10020 0.54600 -0.20900
N 	N 	0.30870 0.36530 0.44170 -0.19600
N 	N 	0.19070 0.89980 0.04600 -0.24100
N 	N 	0.19130 0.63470 0.94170 -0.19200
N 	N 	0.00000 0.85070 0.83850 -0.20000
N 	N 	0.00000 0.66630 0.14920 -0.24600
N 	N 	0.50000 0.14930 0.33850 -0.19400
N 	N 	0.50000 0.33370 0.64920 -0.20500
