data_crystal

_cell_length_a 11.29620
_cell_length_b 11.29620
_cell_length_c 25.85440
_cell_angle_alpha 90.17490
_cell_angle_beta  90.17490
_cell_angle_gamma 95.42630

_symmetry_space_group_name_	'P 1'
_symmetry_space_group_name_H-M	'P 1'

loop_
_symmetry_equiv_pos_as_xyz
  x,y,z

loop_
_atom_site_label
_atom_site_type_symbol
_atom_site_fract_x
_atom_site_fract_y
_atom_site_fract_z
_atom_site_charge
Mn	Mn	0.65336 0.29608 0.99899 1.29900
Mn	Mn	0.70392 0.34664 0.50101 1.28800
Mn	Mn	0.34664 0.70392 0.00101 1.27700
Mn	Mn	0.29608 0.65336 0.49899 1.28800
Mn	Mn	-0.00000 0.50000 0.50000 1.30200
Mn	Mn	0.50000 0.00000 -0.00000 1.29100
H 	H 	0.28940 0.11000 0.12360 -0.03000
H 	H 	0.15280 0.16300 0.18460 0.15900
H 	H 	0.26520 0.50560 0.16470 0.15600
H 	H 	0.40550 0.45330 0.10540 -0.01400
H 	H 	0.31320 0.38240 0.26280 0.14900
H 	H 	0.35240 0.45320 0.34570 -0.02500
H 	H 	0.01330 0.52270 0.36080 -0.03200
H 	H 	0.97410 0.45390 0.27730 0.16800
H 	H 	0.76440 0.19240 0.36710 -0.04100
H 	H 	0.78230 0.09010 0.29050 0.16600
H 	H 	0.13740 0.12480 0.30750 0.15600
H 	H 	0.11720 0.22500 0.38500 -0.03100
H 	H 	0.61740 0.55900 0.04670 0.00500
H 	H 	0.69850 0.75430 0.04190 0.09700
H 	H 	0.86580 0.80000 0.99250 0.02600
H 	H 	0.02860 0.72720 0.93530 0.01300
H 	H 	0.10030 0.57870 0.89090 0.09100
H 	H 	0.08320 0.35960 0.86650 0.07400
H 	H 	0.98720 0.17320 0.87590 0.04000
H 	H 	0.82120 0.14540 0.92870 0.02200
H 	H 	0.89000 0.71060 0.37640 -0.01900
H 	H 	0.83700 0.84720 0.31540 0.16500
H 	H 	0.49440 0.73480 0.33530 0.15400
H 	H 	0.54670 0.59450 0.39460 -0.01100
H 	H 	0.61760 0.68680 0.23720 0.13800
H 	H 	0.54680 0.64760 0.15430 -0.01200
H 	H 	0.47730 0.98670 0.13920 -0.00300
H 	H 	0.54610 0.02590 0.22270 0.11800
H 	H 	0.80760 0.23560 0.13290 -0.03900
H 	H 	0.90990 0.21770 0.20950 0.16800
H 	H 	0.87520 0.86260 0.19250 0.15400
H 	H 	0.77500 0.88280 0.11500 -0.03700
H 	H 	0.44100 0.38260 0.45330 0.02800
H 	H 	0.24570 0.30150 0.45810 0.05700
H 	H 	0.20000 0.13420 0.50750 0.06200
H 	H 	0.27280 0.97140 0.56470 0.10500
H 	H 	0.42130 0.89970 0.60910 0.01000
H 	H 	0.64040 0.91680 0.63350 0.00900
H 	H 	0.82680 0.01280 0.62410 0.08700
H 	H 	0.85460 0.17880 0.57130 -0.00400
H 	H 	0.71060 0.89000 0.87640 -0.01700
H 	H 	0.84720 0.83700 0.81540 0.16400
H 	H 	0.73480 0.49440 0.83530 0.15400
H 	H 	0.59450 0.54670 0.89460 -0.00900
H 	H 	0.68680 0.61760 0.73720 0.13800
H 	H 	0.64760 0.54680 0.65430 -0.01300
H 	H 	0.98670 0.47730 0.63920 -0.00500
H 	H 	0.02590 0.54610 0.72270 0.12200
H 	H 	0.23560 0.80760 0.63290 -0.03800
H 	H 	0.21770 0.90990 0.70950 0.16800
H 	H 	0.86260 0.87520 0.69250 0.15400
H 	H 	0.88280 0.77500 0.61500 -0.03400
H 	H 	0.38260 0.44100 0.95330 0.04200
H 	H 	0.30150 0.24570 0.95810 0.03400
H 	H 	0.13420 0.20000 0.00750 0.08200
H 	H 	0.97140 0.27280 0.06470 0.11100
H 	H 	0.89970 0.42130 0.10910 0.00500
H 	H 	0.91680 0.64040 0.13350 0.00800
H 	H 	0.01280 0.82680 0.12410 0.08800
H 	H 	0.17880 0.85460 0.07130 -0.00600
H 	H 	0.11000 0.28940 0.62360 -0.02800
H 	H 	0.16300 0.15280 0.68460 0.15900
H 	H 	0.50560 0.26520 0.66470 0.15500
H 	H 	0.45330 0.40550 0.60540 -0.01200
H 	H 	0.38240 0.31320 0.76280 0.14900
H 	H 	0.45320 0.35240 0.84570 -0.02500
H 	H 	0.52270 0.01330 0.86080 -0.03200
H 	H 	0.45390 0.97410 0.77730 0.16800
H 	H 	0.19240 0.76440 0.86710 -0.04000
H 	H 	0.09010 0.78230 0.79050 0.16600
H 	H 	0.12480 0.13740 0.80750 0.15500
H 	H 	0.22500 0.11720 0.88500 -0.02800
H 	H 	0.55900 0.61740 0.54670 0.01900
H 	H 	0.75430 0.69850 0.54190 0.07600
H 	H 	0.80000 0.86580 0.49250 0.04300
H 	H 	0.72720 0.02860 0.43530 0.01300
H 	H 	0.57870 0.10030 0.39090 0.08900
H 	H 	0.35960 0.08320 0.36650 0.07600
H 	H 	0.17320 0.98720 0.37590 0.03900
H 	H 	0.14540 0.82120 0.42870 0.02000
C 	C 	0.44936 0.24208 0.06855 0.44000
C 	C 	0.36159 0.27569 0.10843 -0.23800
C 	C 	0.28559 0.18965 0.13200 0.19800
C 	C 	0.20307 0.22119 0.16839 -0.33000
C 	C 	0.19700 0.33864 0.17988 0.33500
C 	C 	0.27090 0.42616 0.15667 -0.32400
C 	C 	0.35440 0.39470 0.12094 0.19300
C 	C 	0.14014 0.41234 0.26226 0.34000
C 	C 	0.25320 0.41118 0.28234 -0.33300
C 	C 	0.27629 0.45337 0.33202 0.19800
C 	C 	0.18716 0.49590 0.36158 -0.23500
C 	C 	0.07388 0.49522 0.34105 0.20400
C 	C 	0.05023 0.45375 0.29117 -0.33900
C 	C 	0.21684 0.54264 0.41441 0.38700
C 	C 	0.92135 0.27975 0.43505 0.46900
C 	C 	0.93908 0.21640 0.38453 -0.25100
C 	C 	0.83939 0.17717 0.35551 0.22200
C 	C 	0.84956 0.11602 0.30976 -0.35200
C 	C 	0.96113 0.09403 0.29307 0.35000
C 	C 	0.06236 0.13662 0.32007 -0.33900
C 	C 	0.04982 0.19714 0.36619 0.20400
C 	C 	0.68527 0.57673 0.02692 0.08600
C 	C 	0.73341 0.69493 0.02420 -0.17200
C 	C 	0.83286 0.72166 0.99493 0.07400
C 	C 	0.88556 0.63146 0.96850 -0.06100
C 	C 	0.82961 0.51487 0.97322 0.09000
C 	C 	0.87600 0.42034 0.94548 -0.01600
C 	C 	0.97756 0.44324 0.91370 0.11100
C 	C 	0.98981 0.65101 0.93740 0.06900
C 	C 	0.03300 0.56260 0.91119 -0.16900
C 	C 	0.01690 0.34810 0.88786 -0.12900
C 	C 	0.96000 0.23760 0.89322 -0.00900
C 	C 	0.85993 0.22127 0.92514 0.02300
C 	C 	0.75792 0.55064 0.43145 0.43800
C 	C 	0.72431 0.63841 0.39157 -0.23000
C 	C 	0.81035 0.71441 0.36800 0.19400
C 	C 	0.77881 0.79693 0.33161 -0.32100
C 	C 	0.66136 0.80300 0.32012 0.33000
C 	C 	0.57384 0.72910 0.34333 -0.31700
C 	C 	0.60530 0.64560 0.37906 0.18700
C 	C 	0.58766 0.85986 0.23774 0.29800
C 	C 	0.58882 0.74680 0.21766 -0.29500
C 	C 	0.54663 0.72371 0.16798 0.16400
C 	C 	0.50410 0.81284 0.13842 -0.20200
C 	C 	0.50478 0.92612 0.15895 0.14900
C 	C 	0.54625 0.94977 0.20883 -0.24800
C 	C 	0.45736 0.78316 0.08559 0.37400
C 	C 	0.72025 0.07865 0.06495 0.44300
C 	C 	0.78360 0.06092 0.11547 -0.27500
C 	C 	0.82283 0.16061 0.14449 0.22200
C 	C 	0.88398 0.15044 0.19024 -0.34500
C 	C 	0.90597 0.03887 0.20693 0.32500
C 	C 	0.86338 0.93764 0.17993 -0.31300
C 	C 	0.80286 0.95018 0.13381 0.23000
C 	C 	0.42327 0.31473 0.47308 0.02900
C 	C 	0.30507 0.26659 0.47580 -0.04800
C 	C 	0.27834 0.16714 0.50507 -0.07600
C 	C 	0.36854 0.11444 0.53150 0.07400
C 	C 	0.48513 0.17039 0.52678 -0.01000
C 	C 	0.57966 0.12400 0.55452 0.06800
C 	C 	0.55676 0.02244 0.58630 -0.08400
C 	C 	0.34899 0.01019 0.56260 -0.17100
C 	C 	0.43740 0.96700 0.58881 0.07000
C 	C 	0.65190 0.98310 0.61214 0.07300
C 	C 	0.76240 0.04000 0.60678 -0.16200
C 	C 	0.77873 0.14007 0.57486 0.09500
C 	C 	0.55064 0.75792 0.93145 0.43600
C 	C 	0.63841 0.72431 0.89157 -0.22700
C 	C 	0.71441 0.81035 0.86800 0.19200
C 	C 	0.79693 0.77881 0.83161 -0.32000
C 	C 	0.80300 0.66136 0.82012 0.32900
C 	C 	0.72910 0.57384 0.84333 -0.31600
C 	C 	0.64560 0.60530 0.87906 0.18600
C 	C 	0.85986 0.58766 0.73774 0.30100
C 	C 	0.74680 0.58882 0.71766 -0.29800
C 	C 	0.72371 0.54663 0.66798 0.16700
C 	C 	0.81284 0.50410 0.63842 -0.20400
C 	C 	0.92612 0.50478 0.65895 0.15300
C 	C 	0.94977 0.54625 0.70883 -0.25600
C 	C 	0.78316 0.45736 0.58559 0.37400
C 	C 	0.07865 0.72025 0.56495 0.44400
C 	C 	0.06092 0.78360 0.61547 -0.27000
C 	C 	0.16061 0.82283 0.64449 0.22000
C 	C 	0.15044 0.88398 0.69024 -0.34400
C 	C 	0.03887 0.90597 0.70693 0.32600
C 	C 	0.93764 0.86338 0.67993 -0.31300
C 	C 	0.95018 0.80286 0.63381 0.22600
C 	C 	0.31473 0.42327 0.97308 -0.00200
C 	C 	0.26659 0.30507 0.97580 0.03400
C 	C 	0.16714 0.27834 0.00507 -0.15700
C 	C 	0.11444 0.36854 0.03150 0.11000
C 	C 	0.17039 0.48513 0.02678 -0.04900
C 	C 	0.12400 0.57966 0.05452 0.07800
C 	C 	0.02244 0.55676 0.08630 -0.09400
C 	C 	0.01019 0.34899 0.06260 -0.19600
C 	C 	0.96700 0.43740 0.08881 0.08200
C 	C 	0.98310 0.65190 0.11214 0.07500
C 	C 	0.04000 0.76240 0.10678 -0.16500
C 	C 	0.14007 0.77873 0.07486 0.09400
C 	C 	0.24208 0.44936 0.56855 0.44000
C 	C 	0.27569 0.36159 0.60843 -0.23600
C 	C 	0.18965 0.28559 0.63200 0.19700
C 	C 	0.22119 0.20307 0.66839 -0.32900
C 	C 	0.33864 0.19700 0.67988 0.33400
C 	C 	0.42616 0.27090 0.65667 -0.32200
C 	C 	0.39470 0.35440 0.62094 0.19100
C 	C 	0.41234 0.14014 0.76226 0.34000
C 	C 	0.41118 0.25320 0.78234 -0.33300
C 	C 	0.45337 0.27629 0.83202 0.19800
C 	C 	0.49590 0.18716 0.86158 -0.23400
C 	C 	0.49522 0.07388 0.84105 0.20400
C 	C 	0.45375 0.05023 0.79117 -0.34000
C 	C 	0.54264 0.21684 0.91441 0.38500
C 	C 	0.27975 0.92135 0.93505 0.46600
C 	C 	0.21640 0.93908 0.88453 -0.24600
C 	C 	0.17717 0.83939 0.85551 0.22000
C 	C 	0.11602 0.84956 0.80976 -0.35100
C 	C 	0.09403 0.96113 0.79307 0.35000
C 	C 	0.13662 0.06236 0.82007 -0.33700
C 	C 	0.19714 0.04982 0.86619 0.20100
C 	C 	0.57673 0.68527 0.52692 0.05700
C 	C 	0.69493 0.73341 0.52420 -0.09600
C 	C 	0.72166 0.83286 0.49493 -0.00000
C 	C 	0.63146 0.88556 0.46850 -0.03200
C 	C 	0.51487 0.82961 0.47322 0.05500
C 	C 	0.42034 0.87600 0.44548 -0.01100
C 	C 	0.44324 0.97756 0.41370 0.11100
C 	C 	0.65101 0.98981 0.43740 0.05500
C 	C 	0.56260 0.03300 0.41119 -0.16900
C 	C 	0.34810 0.01690 0.38786 -0.13700
C 	C 	0.23760 0.96000 0.39322 -0.00500
C 	C 	0.22127 0.85993 0.42514 0.01800
N 	N 	0.73135 0.48867 0.00270 -0.24900
N 	N 	0.81927 0.31031 0.95016 -0.19700
N 	N 	0.51133 0.26865 0.49730 -0.20700
N 	N 	0.68969 0.18073 0.54984 -0.23200
N 	N 	0.26865 0.51133 0.99730 -0.17800
N 	N 	0.18073 0.68969 0.04984 -0.23900
N 	N 	0.48867 0.73135 0.50270 -0.22200
N 	N 	0.31031 0.81927 0.45016 -0.20200
O 	O 	0.52385 0.32473 0.05391 -0.47900
O 	O 	0.13645 0.57825 0.44361 -0.51000
O 	O 	0.32341 0.55081 0.42893 -0.42800
O 	O 	0.81838 0.26538 0.45296 -0.50000
O 	O 	0.44326 0.13730 0.05293 -0.47400
O 	O 	0.00772 0.33900 0.45519 -0.46900
O 	O 	0.10778 0.36932 0.21348 -0.33600
O 	O 	0.67527 0.47615 0.44609 -0.47000
O 	O 	0.42175 0.86355 0.05639 -0.50500
O 	O 	0.44919 0.67659 0.07107 -0.42800
O 	O 	0.73462 0.18162 0.04704 -0.50500
O 	O 	0.86270 0.55674 0.44707 -0.45700
O 	O 	0.66100 0.99228 0.04481 -0.44900
O 	O 	0.63068 0.89222 0.28652 -0.31600
O 	O 	0.47615 0.67527 0.94609 -0.46100
O 	O 	0.86355 0.42175 0.55639 -0.50100
O 	O 	0.67659 0.44919 0.57107 -0.42400
O 	O 	0.18162 0.73462 0.54704 -0.49500
O 	O 	0.55674 0.86270 0.94707 -0.44700
O 	O 	0.99228 0.66100 0.54481 -0.44400
O 	O 	0.89222 0.63068 0.78652 -0.31800
O 	O 	0.32473 0.52385 0.55391 -0.47000
O 	O 	0.57825 0.13645 0.94361 -0.50100
O 	O 	0.55081 0.32341 0.92893 -0.42300
O 	O 	0.26538 0.81838 0.95296 -0.48800
O 	O 	0.13730 0.44326 0.55293 -0.46600
O 	O 	0.33900 0.00772 0.95519 -0.45700
O 	O 	0.36932 0.10778 0.71348 -0.33600
O 	O 	0.97645 0.02355 0.25000 -0.33700
O 	O 	0.02355 0.97645 0.75000 -0.33600
