data_crystal

_cell_length_a 10.40640
_cell_length_b 14.49840
_cell_length_c 18.53320
_cell_angle_alpha 90.00000
_cell_angle_beta  90.00000
_cell_angle_gamma 100.15300

_symmetry_space_group_name_	'P 1'
_symmetry_space_group_name_H-M	'P 1'

loop_
_symmetry_equiv_pos_as_xyz
  x,y,z

loop_
_atom_site_label
_atom_site_type_symbol
_atom_site_fract_x
_atom_site_fract_y
_atom_site_fract_z
_atom_site_charge
Sr	Sr	0.89346 0.68249 0.30470 1.50400
Sr	Sr	0.60654 0.81751 0.80470 1.50400
Sr	Sr	0.10654 0.31751 0.69530 1.50400
Sr	Sr	0.39346 0.18249 0.19530 1.50300
Zn	Zn	0.80583 0.44400 0.18125 1.23400
Zn	Zn	0.69417 0.05600 0.68125 1.23400
Zn	Zn	0.19417 0.55600 0.81875 1.23400
Zn	Zn	0.30583 0.94400 0.31875 1.23300
H 	H 	0.58390 0.10930 0.06870 0.00200
H 	H 	0.58460 0.02160 0.96540 0.03200
H 	H 	0.77020 0.24660 0.86070 0.05500
H 	H 	0.78090 0.33080 0.96670 0.04100
H 	H 	0.23910 0.66650 0.26190 0.04400
H 	H 	0.45990 0.66470 0.27490 0.01800
H 	H 	0.43720 0.46100 0.12940 0.00800
H 	H 	0.21360 0.45730 0.11920 0.03700
H 	H 	0.91610 0.39070 0.56870 0.00300
H 	H 	0.91540 0.47840 0.46540 0.03000
H 	H 	0.72980 0.25340 0.36070 0.05500
H 	H 	0.71910 0.16920 0.46670 0.04100
H 	H 	0.26090 0.83350 0.76190 0.04300
H 	H 	0.04010 0.83530 0.77490 0.02000
H 	H 	0.06280 0.03900 0.62940 0.01100
H 	H 	0.28640 0.04270 0.61920 0.03600
H 	H 	0.41610 0.89070 0.93130 0.00100
H 	H 	0.41540 0.97840 0.03460 0.03000
H 	H 	0.22980 0.75340 0.13930 0.05500
H 	H 	0.21910 0.66920 0.03330 0.04000
H 	H 	0.76090 0.33350 0.73810 0.04400
H 	H 	0.54010 0.33530 0.72510 0.01900
H 	H 	0.56280 0.53900 0.87060 0.00800
H 	H 	0.78640 0.54270 0.88080 0.03700
H 	H 	0.08390 0.60930 0.43130 0.00200
H 	H 	0.08460 0.52160 0.53460 0.03100
H 	H 	0.27020 0.74660 0.63930 0.05500
H 	H 	0.28090 0.83080 0.53330 0.04000
H 	H 	0.73910 0.16650 0.23810 0.04300
H 	H 	0.95990 0.16470 0.22510 0.01900
H 	H 	0.93720 0.96100 0.37060 0.00400
H 	H 	0.71360 0.95730 0.38080 0.03300
C 	C 	0.68330 0.22920 0.02840 -0.13100
C 	C 	0.62340 0.13690 0.02710 -0.00400
C 	C 	0.62130 0.08490 0.96470 -0.03900
C 	C 	0.67290 0.12560 0.90160 -0.09200
C 	C 	0.73320 0.21820 0.90260 -0.03600
C 	C 	0.73870 0.26870 0.96620 0.00400
C 	C 	0.68740 0.28550 0.09730 0.40700
C 	C 	0.66230 0.06870 0.83310 0.38600
C 	C 	0.20330 0.56110 0.18950 -0.08400
C 	C 	0.27780 0.62400 0.23570 -0.04400
C 	C 	0.41080 0.62350 0.24280 0.01000
C 	C 	0.47070 0.56310 0.20320 -0.13300
C 	C 	0.39740 0.50170 0.15680 -0.00600
C 	C 	0.26280 0.50000 0.15020 -0.04500
C 	C 	0.05860 0.55910 0.18420 0.37800
C 	C 	0.61480 0.56270 0.21230 0.41800
C 	C 	0.81670 0.27080 0.52840 -0.13000
C 	C 	0.87660 0.36310 0.52710 -0.00700
C 	C 	0.87870 0.41510 0.46470 -0.03600
C 	C 	0.82710 0.37440 0.40160 -0.09200
C 	C 	0.76680 0.28180 0.40260 -0.03500
C 	C 	0.76130 0.23130 0.46620 0.00400
C 	C 	0.81260 0.21450 0.59730 0.40700
C 	C 	0.83770 0.43130 0.33310 0.38500
C 	C 	0.29670 0.93890 0.68950 -0.08700
C 	C 	0.22220 0.87600 0.73570 -0.04100
C 	C 	0.08920 0.87650 0.74280 0.00600
C 	C 	0.02930 0.93690 0.70320 -0.12900
C 	C 	0.10260 0.99830 0.65680 -0.01200
C 	C 	0.23720 0.00000 0.65020 -0.04000
C 	C 	0.44140 0.94090 0.68420 0.37700
C 	C 	0.88520 0.93730 0.71230 0.41600
C 	C 	0.31670 0.77080 0.97160 -0.13100
C 	C 	0.37660 0.86310 0.97290 -0.00300
C 	C 	0.37870 0.91510 0.03530 -0.04000
C 	C 	0.32710 0.87440 0.09840 -0.09000
C 	C 	0.26680 0.78180 0.09740 -0.03700
C 	C 	0.26130 0.73130 0.03380 0.00500
C 	C 	0.31260 0.71450 0.90270 0.40800
C 	C 	0.33770 0.93130 0.16690 0.38000
C 	C 	0.79670 0.43890 0.81050 -0.08400
C 	C 	0.72220 0.37600 0.76430 -0.04400
C 	C 	0.58920 0.37650 0.75720 0.01000
C 	C 	0.52930 0.43690 0.79680 -0.13300
C 	C 	0.60260 0.49830 0.84320 -0.00600
C 	C 	0.73720 0.50000 0.84980 -0.04500
C 	C 	0.94140 0.44090 0.81580 0.37800
C 	C 	0.38520 0.43730 0.78770 0.41800
C 	C 	0.18330 0.72920 0.47160 -0.13100
C 	C 	0.12340 0.63690 0.47290 -0.00600
C 	C 	0.12130 0.58490 0.53530 -0.03600
C 	C 	0.17290 0.62560 0.59840 -0.09200
C 	C 	0.23320 0.71820 0.59740 -0.03600
C 	C 	0.23870 0.76870 0.53380 0.00500
C 	C 	0.18740 0.78550 0.40270 0.40700
C 	C 	0.16230 0.56870 0.66690 0.38500
C 	C 	0.70330 0.06110 0.31050 -0.08600
C 	C 	0.77780 0.12400 0.26430 -0.04200
C 	C 	0.91080 0.12350 0.25720 0.00900
C 	C 	0.97070 0.06310 0.29680 -0.13300
C 	C 	0.89740 0.00170 0.34320 -0.00100
C 	C 	0.76280 0.00000 0.34980 -0.04000
C 	C 	0.55860 0.05910 0.31580 0.38200
C 	C 	0.11480 0.06270 0.28770 0.41700
O 	O 	0.60760 0.25810 0.14575 -0.51100
O 	O 	0.77580 0.35660 0.10044 -0.47100
O 	O 	0.70540 0.11260 0.77659 -0.49100
O 	O 	0.60980 0.98470 0.83574 -0.49200
O 	O 	0.99090 0.48440 0.15957 -0.47200
O 	O 	0.01300 0.62890 0.20415 -0.49200
O 	O 	0.66470 0.51280 0.16749 -0.51300
O 	O 	0.67400 0.61010 0.25990 -0.52300
O 	O 	0.89240 0.24190 0.64575 -0.51000
O 	O 	0.72420 0.14340 0.60044 -0.47000
O 	O 	0.79460 0.38740 0.27659 -0.49100
O 	O 	0.89020 0.51530 0.33574 -0.49100
O 	O 	0.50910 0.01560 0.65957 -0.47000
O 	O 	0.48700 0.87110 0.70415 -0.49200
O 	O 	0.83530 0.98720 0.66749 -0.51400
O 	O 	0.82600 0.88990 0.75990 -0.52300
O 	O 	0.39240 0.74190 0.85425 -0.51100
O 	O 	0.22420 0.64340 0.89956 -0.47100
O 	O 	0.29460 0.88740 0.22341 -0.49000
O 	O 	0.39020 0.01530 0.16426 -0.48700
O 	O 	0.00910 0.51560 0.84043 -0.47200
O 	O 	0.98700 0.37110 0.79585 -0.49100
O 	O 	0.33530 0.48720 0.83251 -0.51300
O 	O 	0.32600 0.38990 0.74010 -0.52300
O 	O 	0.10760 0.75810 0.35425 -0.51100
O 	O 	0.27580 0.85660 0.39956 -0.47100
O 	O 	0.20540 0.61260 0.72341 -0.49100
O 	O 	0.10980 0.48470 0.66426 -0.49100
O 	O 	0.49090 0.98440 0.34043 -0.47500
O 	O 	0.51300 0.12890 0.29585 -0.49200
O 	O 	0.16470 0.01280 0.33251 -0.51200
O 	O 	0.17400 0.11010 0.24010 -0.52300
