data_crystal

_cell_length_a 17.74900
_cell_length_b 7.27770
_cell_length_c 12.90700
_cell_angle_alpha 90.00000
_cell_angle_beta  90.00000
_cell_angle_gamma 90.00000

_symmetry_space_group_name_	'P 1'
_symmetry_space_group_name_H-M	'P 1'

loop_
_symmetry_equiv_pos_as_xyz
  x,y,z

loop_
_atom_site_label
_atom_site_type_symbol
_atom_site_fract_x
_atom_site_fract_y
_atom_site_fract_z
_atom_site_charge
O 	O 	0.41280 0.59560 0.39760 1.16900
C 	C 	0.27320 0.59520 0.29580 -17.75000
H 	H 	0.28830 0.48050 0.32400 45.78700
N 	N 	0.29600 0.42300 0.33800 -53.03800
O 	O 	0.27260 0.37500 0.42500 -13.57300
O 	O 	0.33860 0.32200 0.28800 34.40500
C 	C 	0.29040 0.58340 0.26610 -11.03400
H 	H 	0.30760 0.46580 0.28770 40.35300
N 	N 	0.31700 0.40700 0.29800 -49.35000
O 	O 	0.29710 0.33800 0.38060 31.86700
O 	O 	0.36110 0.32600 0.23900 -15.77100
O 	O 	0.91280 0.09560 0.89760 1.51000
C 	C 	0.77320 0.09520 0.79580 -18.73200
H 	H 	0.78830 0.98050 0.82400 48.27600
N 	N 	0.79600 0.92300 0.83800 -55.88800
O 	O 	0.77260 0.87500 0.92500 -14.34600
O 	O 	0.83860 0.82200 0.78800 36.65500
C 	C 	0.79040 0.08340 0.76610 -11.39600
H 	H 	0.80760 0.96580 0.78770 42.23400
N 	N 	0.81700 0.90700 0.79800 -51.98300
O 	O 	0.79710 0.83800 0.88060 33.53100
O 	O 	0.86110 0.82600 0.73900 -17.01700
O 	O 	0.58720 0.90440 0.39760 1.26300
C 	C 	0.72680 0.90480 0.29580 -18.01400
H 	H 	0.71170 0.01950 0.32400 47.22900
N 	N 	0.70400 0.07700 0.33800 -54.75100
O 	O 	0.72740 0.12500 0.42500 -13.96600
O 	O 	0.66140 0.17800 0.28800 35.78900
C 	C 	0.70960 0.91660 0.26610 -11.47500
H 	H 	0.69240 0.03420 0.28770 41.35300
N 	N 	0.68300 0.09300 0.29800 -50.75500
O 	O 	0.70290 0.16200 0.38060 32.79400
O 	O 	0.63890 0.17400 0.23900 -16.62000
O 	O 	0.08720 0.40440 0.89760 1.29100
C 	C 	0.22680 0.40480 0.79580 -18.32500
H 	H 	0.21170 0.51950 0.82400 46.77500
N 	N 	0.20400 0.57700 0.83800 -54.05300
O 	O 	0.22740 0.62500 0.92500 -13.74500
O 	O 	0.16140 0.67800 0.78800 35.16900
C 	C 	0.20960 0.41660 0.76610 -11.12700
H 	H 	0.19240 0.53420 0.78770 41.14300
N 	N 	0.18300 0.59300 0.79800 -50.41900
O 	O 	0.20290 0.66200 0.88060 32.40500
O 	O 	0.13890 0.67400 0.73900 -16.13500
O 	O 	0.58720 0.09560 0.60240 1.30200
C 	C 	0.72680 0.09520 0.70420 -18.30500
H 	H 	0.71170 0.98050 0.67600 48.13500
N 	N 	0.70400 0.92300 0.66200 -55.86100
O 	O 	0.72740 0.87500 0.57500 -14.32800
O 	O 	0.66140 0.82200 0.71200 36.42500
C 	C 	0.70960 0.08340 0.73390 -11.77900
H 	H 	0.69240 0.96580 0.71230 42.21900
N 	N 	0.68300 0.90700 0.70200 -51.73900
O 	O 	0.70290 0.83800 0.61940 33.51400
O 	O 	0.63890 0.82600 0.76100 -16.87600
O 	O 	0.08720 0.59560 0.10240 1.12500
C 	C 	0.22680 0.59520 0.20420 -17.90000
H 	H 	0.21170 0.48050 0.17600 45.87400
N 	N 	0.20400 0.42300 0.16200 -53.09800
O 	O 	0.22740 0.37500 0.07500 -13.68400
O 	O 	0.16140 0.32200 0.21200 34.42700
C 	C 	0.20960 0.58340 0.23390 -11.00800
H 	H 	0.19240 0.46580 0.21230 40.44300
N 	N 	0.18300 0.40700 0.20200 -49.47200
O 	O 	0.20290 0.33800 0.11940 31.91400
O 	O 	0.13890 0.32600 0.26100 -15.76900
O 	O 	0.41280 0.40440 0.60240 1.21200
C 	C 	0.27320 0.40480 0.70420 -17.97700
H 	H 	0.28830 0.51950 0.67600 46.58500
N 	N 	0.29600 0.57700 0.66200 -54.03100
O 	O 	0.27260 0.62500 0.57500 -13.90300
O 	O 	0.33860 0.67800 0.71200 34.98200
C 	C 	0.29040 0.41660 0.73390 -11.31400
H 	H 	0.30760 0.53420 0.71230 41.11000
N 	N 	0.31700 0.59300 0.70200 -50.21300
O 	O 	0.29710 0.66200 0.61940 32.51400
O 	O 	0.36110 0.67400 0.76100 -16.01100
O 	O 	0.91280 0.90440 0.10240 1.35900
C 	C 	0.77320 0.90480 0.20420 -18.25000
H 	H 	0.78830 0.01950 0.17600 47.27100
N 	N 	0.79600 0.07700 0.16200 -54.81200
O 	O 	0.77260 0.12500 0.07500 -14.23700
O 	O 	0.83860 0.17800 0.21200 35.86100
C 	C 	0.79040 0.91660 0.23390 -11.24800
H 	H 	0.80760 0.03420 0.21230 41.42000
N 	N 	0.81700 0.09300 0.20200 -50.91300
O 	O 	0.79710 0.16200 0.11940 32.95700
O 	O 	0.86110 0.17400 0.26100 -16.63600
O 	O 	0.58720 0.40440 0.60240 1.25800
C 	C 	0.72680 0.40480 0.70420 -18.57500
H 	H 	0.71170 0.51950 0.67600 48.09500
N 	N 	0.70400 0.57700 0.66200 -55.76900
O 	O 	0.72740 0.62500 0.57500 -14.35100
O 	O 	0.66140 0.67800 0.71200 36.13800
C 	C 	0.70960 0.41660 0.73390 -11.66700
H 	H 	0.69240 0.53420 0.71230 42.41800
N 	N 	0.68300 0.59300 0.70200 -51.83600
O 	O 	0.70290 0.66200 0.61940 33.55300
O 	O 	0.63890 0.67400 0.76100 -16.56900
O 	O 	0.08720 0.90440 0.10240 1.28100
C 	C 	0.22680 0.90480 0.20420 -17.70700
H 	H 	0.21170 0.01950 0.17600 45.87200
N 	N 	0.20400 0.07700 0.16200 -53.19200
O 	O 	0.22740 0.12500 0.07500 -13.82100
O 	O 	0.16140 0.17800 0.21200 34.80100
C 	C 	0.20960 0.91660 0.23390 -10.90200
H 	H 	0.19240 0.03420 0.21230 40.19200
N 	N 	0.18300 0.09300 0.20200 -49.40900
O 	O 	0.20290 0.16200 0.11940 31.98200
O 	O 	0.13890 0.17400 0.26100 -16.14400
O 	O 	0.41280 0.09560 0.60240 1.25500
C 	C 	0.27320 0.09520 0.70420 -17.70800
H 	H 	0.28830 0.98050 0.67600 46.62500
N 	N 	0.29600 0.92300 0.66200 -54.12200
O 	O 	0.27260 0.87500 0.57500 -13.87800
O 	O 	0.33860 0.82200 0.71200 35.26600
C 	C 	0.29040 0.08340 0.73390 -11.42700
H 	H 	0.30760 0.96580 0.71230 40.91300
N 	N 	0.31700 0.90700 0.70200 -50.11700
O 	O 	0.29710 0.83800 0.61940 32.47300
O 	O 	0.36110 0.82600 0.76100 -16.31600
O 	O 	0.91280 0.59560 0.10240 1.20500
C 	C 	0.77320 0.59520 0.20420 -18.43900
H 	H 	0.78830 0.48050 0.17600 47.27300
N 	N 	0.79600 0.42300 0.16200 -54.72000
O 	O 	0.77260 0.37500 0.07500 -14.10100
O 	O 	0.83860 0.32200 0.21200 35.49100
C 	C 	0.79040 0.58340 0.23390 -11.35500
H 	H 	0.80760 0.46580 0.21230 41.66800
N 	N 	0.81700 0.40700 0.20200 -50.97500
O 	O 	0.79710 0.33800 0.11940 32.89000
O 	O 	0.86110 0.32600 0.26100 -16.26600
O 	O 	0.41280 0.90440 0.39760 1.22200
C 	C 	0.27320 0.90480 0.29580 -17.46100
H 	H 	0.28830 0.01950 0.32400 45.82600
N 	N 	0.29600 0.07700 0.33800 -53.13700
O 	O 	0.27260 0.12500 0.42500 -13.55800
O 	O 	0.33860 0.17800 0.28800 34.71600
C 	C 	0.29040 0.91660 0.26610 -11.14400
H 	H 	0.30760 0.03420 0.28770 40.13800
N 	N 	0.31700 0.09300 0.29800 -49.24800
O 	O 	0.29710 0.16200 0.38060 31.83300
O 	O 	0.36110 0.17400 0.23900 -16.10400
O 	O 	0.91280 0.40440 0.89760 1.36300
C 	C 	0.77320 0.40480 0.79580 -18.90500
H 	H 	0.78830 0.51950 0.82400 48.28000
N 	N 	0.79600 0.57700 0.83800 -55.80100
O 	O 	0.77260 0.62500 0.92500 -14.21300
O 	O 	0.83860 0.67800 0.78800 36.30800
C 	C 	0.79040 0.41660 0.76610 -11.50300
H 	H 	0.80760 0.53420 0.78770 42.46700
N 	N 	0.81700 0.59300 0.79800 -52.03900
O 	O 	0.79710 0.66200 0.88060 33.46500
O 	O 	0.86110 0.67400 0.73900 -16.66900
O 	O 	0.58720 0.59560 0.39760 1.21200
C 	C 	0.72680 0.59520 0.29580 -18.30100
H 	H 	0.71170 0.48050 0.32400 47.19000
N 	N 	0.70400 0.42300 0.33800 -54.65200
O 	O 	0.72740 0.37500 0.42500 -13.98100
O 	O 	0.66140 0.32200 0.28800 35.48000
C 	C 	0.70960 0.58340 0.26610 -11.36400
H 	H 	0.69240 0.46580 0.28770 41.56600
N 	N 	0.68300 0.40700 0.29800 -50.85600
O 	O 	0.70290 0.33800 0.38060 32.82800
O 	O 	0.63890 0.32600 0.23900 -16.29000
O 	O 	0.08720 0.09560 0.89760 1.43600
C 	C 	0.22680 0.09520 0.79580 -18.15600
H 	H 	0.21170 0.98050 0.82400 46.77200
N 	N 	0.20400 0.92300 0.83800 -54.13800
O 	O 	0.22740 0.87500 0.92500 -13.87600
O 	O 	0.16140 0.82200 0.78800 35.51000
C 	C 	0.20960 0.08340 0.76610 -11.02000
H 	H 	0.19240 0.96580 0.78770 40.91500
N 	N 	0.18300 0.90700 0.79800 -50.36400
O 	O 	0.20290 0.83800 0.88060 32.47100
O 	O 	0.13890 0.82600 0.73900 -16.47700
In	In	0.50000 0.50000 0.50000 1.80900
In	In	-0.00000 0.00000 -0.00000 1.62400
In	In	0.50000 -0.00000 0.50000 1.80300
In	In	-0.00000 0.50000 -0.00000 1.73800
O 	O 	0.50000 0.75000 0.57910 -2.33500
H 	H 	0.50000 0.75000 0.64380 1.09700
O 	O 	-0.00000 0.25000 0.07910 -2.53100
H 	H 	-0.00000 0.25000 0.14380 1.10000
O 	O 	0.50000 0.25000 0.42090 -2.31000
H 	H 	0.50000 0.25000 0.35620 1.07200
O 	O 	0.00000 0.75000 0.92090 -2.33000
H 	H 	0.00000 0.75000 0.85620 1.05300
C 	C 	0.38630 0.75000 0.37400 -5.79500
C 	C 	0.31080 0.75000 0.32080 9.31600
C 	C 	0.32190 0.75000 0.29680 10.15200
C 	C 	0.88630 0.25000 0.87400 -6.14600
C 	C 	0.81080 0.25000 0.82080 9.64200
C 	C 	0.82190 0.25000 0.79680 10.91200
C 	C 	0.61370 0.75000 0.37400 -5.99400
C 	C 	0.68920 0.75000 0.32080 9.58200
C 	C 	0.67810 0.75000 0.29680 10.47500
C 	C 	0.11370 0.25000 0.87400 -5.93000
C 	C 	0.18920 0.25000 0.82080 9.33400
C 	C 	0.17810 0.25000 0.79680 10.58000
C 	C 	0.61370 0.25000 0.62600 -6.11100
C 	C 	0.68920 0.25000 0.67920 9.83400
C 	C 	0.67810 0.25000 0.70320 10.61600
C 	C 	0.11370 0.75000 0.12600 -5.82500
C 	C 	0.18920 0.75000 0.17920 9.24600
C 	C 	0.17810 0.75000 0.20320 10.27100
C 	C 	0.38630 0.25000 0.62600 -5.89800
C 	C 	0.31080 0.25000 0.67920 9.55000
C 	C 	0.32190 0.25000 0.70320 10.26800
C 	C 	0.88630 0.75000 0.12600 -6.02700
C 	C 	0.81080 0.75000 0.17920 9.53000
C 	C 	0.82190 0.75000 0.20320 10.58400
