data_crystal

_cell_length_a 18.24630
_cell_length_b 18.24630
_cell_length_c 18.24630
_cell_angle_alpha 95.00870
_cell_angle_beta  95.00870
_cell_angle_gamma 95.00870

_symmetry_space_group_name_	'P 1'
_symmetry_space_group_name_H-M	'P 1'

loop_
_symmetry_equiv_pos_as_xyz
  x,y,z

loop_
_atom_site_label
_atom_site_type_symbol
_atom_site_fract_x
_atom_site_fract_y
_atom_site_fract_z
_atom_site_charge
Ni	Ni	0.74640 0.41636 0.22308 1.11500
Ni	Ni	0.58009 0.27440 0.79512 1.12700
Ni	Ni	0.62978 0.53739 0.24243 1.09700
Ni	Ni	0.82520 0.29418 0.29586 1.09800
Ni	Ni	0.22308 0.74640 0.41636 1.11500
Ni	Ni	0.79512 0.58009 0.27440 1.12700
Ni	Ni	0.24243 0.62978 0.53739 1.09800
Ni	Ni	0.29586 0.82520 0.29418 1.09900
Ni	Ni	0.41636 0.22308 0.74640 1.11600
Ni	Ni	0.27440 0.79512 0.58009 1.12800
Ni	Ni	0.53739 0.24243 0.62978 1.09800
Ni	Ni	0.29418 0.29586 0.82520 1.09900
Ni	Ni	0.25360 0.58364 0.77692 1.11600
Ni	Ni	0.41991 0.72560 0.20488 1.12800
Ni	Ni	0.37022 0.46261 0.75757 1.09800
Ni	Ni	0.17480 0.70582 0.70414 1.09900
Ni	Ni	0.77692 0.25360 0.58364 1.11600
Ni	Ni	0.20488 0.41991 0.72560 1.12800
Ni	Ni	0.75757 0.37022 0.46261 1.09800
Ni	Ni	0.70414 0.17480 0.70582 1.09900
Ni	Ni	0.58364 0.77692 0.25360 1.11600
Ni	Ni	0.72560 0.20488 0.41991 1.12800
Ni	Ni	0.46261 0.75757 0.37022 1.09800
Ni	Ni	0.70582 0.70414 0.17480 1.09900
H 	H 	0.72460 0.29620 0.00390 0.01900
H 	H 	0.80340 0.11930 0.89590 0.02000
H 	H 	0.87770 0.09940 0.00800 0.06200
H 	H 	0.88520 0.18880 0.10820 0.02200
H 	H 	0.71360 0.48680 0.34690 0.19400
H 	H 	0.57240 0.15480 0.72060 0.13200
H 	H 	0.96140 0.47190 0.24090 0.20100
H 	H 	0.00350 0.50780 0.17730 0.18600
H 	H 	0.95680 0.55740 0.22900 0.21200
H 	H 	0.83850 0.54890 0.04290 0.17300
H 	H 	0.88260 0.60400 0.10840 0.18600
H 	H 	0.92690 0.55500 0.05370 0.17500
H 	H 	0.49800 0.39520 0.14200 0.23200
H 	H 	0.52060 0.46750 0.10230 0.24800
H 	H 	0.49340 0.39120 0.05370 0.24900
H 	H 	0.68040 0.43080 0.01280 0.22000
H 	H 	0.59530 0.41670 0.98120 0.24200
H 	H 	0.62430 0.49020 0.03350 0.22800
H 	H 	0.00390 0.72460 0.29620 0.01900
H 	H 	0.89590 0.80340 0.11930 0.02000
H 	H 	0.00800 0.87770 0.09940 0.06200
H 	H 	0.10820 0.88520 0.18880 0.02200
H 	H 	0.34690 0.71360 0.48680 0.19400
H 	H 	0.72060 0.57240 0.15480 0.13200
H 	H 	0.24090 0.96140 0.47190 0.20100
H 	H 	0.17730 0.00350 0.50780 0.18600
H 	H 	0.22900 0.95680 0.55740 0.21200
H 	H 	0.04290 0.83850 0.54890 0.17300
H 	H 	0.10840 0.88260 0.60400 0.18600
H 	H 	0.05370 0.92690 0.55500 0.17500
H 	H 	0.14200 0.49800 0.39520 0.23200
H 	H 	0.10230 0.52060 0.46750 0.24800
H 	H 	0.05370 0.49340 0.39120 0.24900
H 	H 	0.01280 0.68040 0.43080 0.22000
H 	H 	0.98120 0.59530 0.41670 0.24200
H 	H 	0.03350 0.62430 0.49020 0.22800
H 	H 	0.29620 0.00390 0.72460 0.01900
H 	H 	0.11930 0.89590 0.80340 0.02000
H 	H 	0.09940 0.00800 0.87770 0.06200
H 	H 	0.18880 0.10820 0.88520 0.02200
H 	H 	0.48680 0.34690 0.71360 0.19400
H 	H 	0.15480 0.72060 0.57240 0.13200
H 	H 	0.47190 0.24090 0.96140 0.20100
H 	H 	0.50780 0.17730 0.00350 0.18600
H 	H 	0.55740 0.22900 0.95680 0.21200
H 	H 	0.54890 0.04290 0.83850 0.17300
H 	H 	0.60400 0.10840 0.88260 0.18600
H 	H 	0.55500 0.05370 0.92690 0.17500
H 	H 	0.39520 0.14200 0.49800 0.23200
H 	H 	0.46750 0.10230 0.52060 0.24800
H 	H 	0.39120 0.05370 0.49340 0.24900
H 	H 	0.43080 0.01280 0.68040 0.22000
H 	H 	0.41670 0.98120 0.59530 0.24200
H 	H 	0.49020 0.03350 0.62430 0.22800
H 	H 	0.27540 0.70380 0.99610 0.01900
H 	H 	0.19660 0.88070 0.10410 0.02000
H 	H 	0.12230 0.90060 0.99200 0.06200
H 	H 	0.11480 0.81120 0.89180 0.02200
H 	H 	0.28640 0.51320 0.65310 0.19400
H 	H 	0.42760 0.84520 0.27940 0.13200
H 	H 	0.03860 0.52810 0.75910 0.20100
H 	H 	0.99650 0.49220 0.82270 0.18600
H 	H 	0.04320 0.44260 0.77100 0.21200
H 	H 	0.16150 0.45110 0.95710 0.17300
H 	H 	0.11740 0.39600 0.89160 0.18600
H 	H 	0.07310 0.44500 0.94630 0.17500
H 	H 	0.50200 0.60480 0.85800 0.23200
H 	H 	0.47940 0.53250 0.89770 0.24800
H 	H 	0.50660 0.60880 0.94630 0.24900
H 	H 	0.31960 0.56920 0.98720 0.22000
H 	H 	0.40470 0.58330 0.01880 0.24200
H 	H 	0.37570 0.50980 0.96650 0.22800
H 	H 	0.99610 0.27540 0.70380 0.01900
H 	H 	0.10410 0.19660 0.88070 0.02000
H 	H 	0.99200 0.12230 0.90060 0.06200
H 	H 	0.89180 0.11480 0.81120 0.02200
H 	H 	0.65310 0.28640 0.51320 0.19400
H 	H 	0.27940 0.42760 0.84520 0.13200
H 	H 	0.75910 0.03860 0.52810 0.20100
H 	H 	0.82270 0.99650 0.49220 0.18600
H 	H 	0.77100 0.04320 0.44260 0.21200
H 	H 	0.95710 0.16150 0.45110 0.17300
H 	H 	0.89160 0.11740 0.39600 0.18600
H 	H 	0.94630 0.07310 0.44500 0.17500
H 	H 	0.85800 0.50200 0.60480 0.23200
H 	H 	0.89770 0.47940 0.53250 0.24800
H 	H 	0.94630 0.50660 0.60880 0.24900
H 	H 	0.98720 0.31960 0.56920 0.22000
H 	H 	0.01880 0.40470 0.58330 0.24200
H 	H 	0.96650 0.37570 0.50980 0.22800
H 	H 	0.70380 0.99610 0.27540 0.01900
H 	H 	0.88070 0.10410 0.19660 0.02000
H 	H 	0.90060 0.99200 0.12230 0.06200
H 	H 	0.81120 0.89180 0.11480 0.02200
H 	H 	0.51320 0.65310 0.28640 0.19400
H 	H 	0.84520 0.27940 0.42760 0.13200
H 	H 	0.52810 0.75910 0.03860 0.20100
H 	H 	0.49220 0.82270 0.99650 0.18600
H 	H 	0.44260 0.77100 0.04320 0.21200
H 	H 	0.45110 0.95710 0.16150 0.17300
H 	H 	0.39600 0.89160 0.11740 0.18600
H 	H 	0.44500 0.94630 0.07310 0.17500
H 	H 	0.60480 0.85800 0.50200 0.23200
H 	H 	0.53250 0.89770 0.47940 0.24800
H 	H 	0.60880 0.94630 0.50660 0.24900
H 	H 	0.56920 0.98720 0.31960 0.22000
H 	H 	0.58330 0.01880 0.40470 0.24200
H 	H 	0.50980 0.96650 0.37570 0.22800
C 	C 	0.80490 0.30120 0.13190 0.34900
C 	C 	0.70940 0.21900 0.87430 0.38900
C 	C 	0.80850 0.25190 0.06870 -0.14500
C 	C 	0.75700 0.25810 0.00330 0.06600
C 	C 	0.75530 0.20830 0.94050 -0.15200
C 	C 	0.80230 0.15120 0.93980 0.04800
C 	C 	0.84960 0.14080 0.00610 -0.11600
C 	C 	0.85180 0.19330 0.06630 0.05900
C 	C 	0.95920 0.50800 0.20400 -0.57900
C 	C 	0.88190 0.55610 0.07930 -0.55300
C 	C 	0.52110 0.41370 0.09980 -0.70700
C 	C 	0.62960 0.43750 0.02360 -0.66100
C 	C 	0.13190 0.80490 0.30120 0.34900
C 	C 	0.87430 0.70940 0.21900 0.38900
C 	C 	0.06870 0.80850 0.25190 -0.14500
C 	C 	0.00330 0.75700 0.25810 0.06600
C 	C 	0.94050 0.75530 0.20830 -0.15200
C 	C 	0.93980 0.80230 0.15120 0.04800
C 	C 	0.00610 0.84960 0.14080 -0.11600
C 	C 	0.06630 0.85180 0.19330 0.05900
C 	C 	0.20400 0.95920 0.50800 -0.57900
C 	C 	0.07930 0.88190 0.55610 -0.55300
C 	C 	0.09980 0.52110 0.41370 -0.70700
C 	C 	0.02360 0.62960 0.43750 -0.66100
C 	C 	0.30120 0.13190 0.80490 0.34900
C 	C 	0.21900 0.87430 0.70940 0.38900
C 	C 	0.25190 0.06870 0.80850 -0.14500
C 	C 	0.25810 0.00330 0.75700 0.06600
C 	C 	0.20830 0.94050 0.75530 -0.15200
C 	C 	0.15120 0.93980 0.80230 0.04800
C 	C 	0.14080 0.00610 0.84960 -0.11600
C 	C 	0.19330 0.06630 0.85180 0.05900
C 	C 	0.50800 0.20400 0.95920 -0.57900
C 	C 	0.55610 0.07930 0.88190 -0.55300
C 	C 	0.41370 0.09980 0.52110 -0.70700
C 	C 	0.43750 0.02360 0.62960 -0.66100
C 	C 	0.19510 0.69880 0.86810 0.34900
C 	C 	0.29060 0.78100 0.12570 0.38900
C 	C 	0.19150 0.74810 0.93130 -0.14500
C 	C 	0.24300 0.74190 0.99670 0.06600
C 	C 	0.24470 0.79170 0.05950 -0.15200
C 	C 	0.19770 0.84880 0.06020 0.04800
C 	C 	0.15040 0.85920 0.99390 -0.11600
C 	C 	0.14820 0.80670 0.93370 0.05900
C 	C 	0.04080 0.49200 0.79600 -0.57900
C 	C 	0.11810 0.44390 0.92070 -0.55300
C 	C 	0.47890 0.58630 0.90020 -0.70700
C 	C 	0.37040 0.56250 0.97640 -0.66100
C 	C 	0.86810 0.19510 0.69880 0.34900
C 	C 	0.12570 0.29060 0.78100 0.38900
C 	C 	0.93130 0.19150 0.74810 -0.14500
C 	C 	0.99670 0.24300 0.74190 0.06600
C 	C 	0.05950 0.24470 0.79170 -0.15200
C 	C 	0.06020 0.19770 0.84880 0.04800
C 	C 	0.99390 0.15040 0.85920 -0.11600
C 	C 	0.93370 0.14820 0.80670 0.05900
C 	C 	0.79600 0.04080 0.49200 -0.57900
C 	C 	0.92070 0.11810 0.44390 -0.55300
C 	C 	0.90020 0.47890 0.58630 -0.70700
C 	C 	0.97640 0.37040 0.56250 -0.66100
C 	C 	0.69880 0.86810 0.19510 0.34900
C 	C 	0.78100 0.12570 0.29060 0.38900
C 	C 	0.74810 0.93130 0.19150 -0.14500
C 	C 	0.74190 0.99670 0.24300 0.06600
C 	C 	0.79170 0.05950 0.24470 -0.15200
C 	C 	0.84880 0.06020 0.19770 0.04800
C 	C 	0.85920 0.99390 0.15040 -0.11600
C 	C 	0.80670 0.93370 0.14820 0.05900
C 	C 	0.49200 0.79600 0.04080 -0.57900
C 	C 	0.44390 0.92070 0.11810 -0.55300
C 	C 	0.58630 0.90020 0.47890 -0.70700
C 	C 	0.56250 0.97640 0.37040 -0.66100
S 	S 	0.65177 0.31512 0.32043 0.66400
S 	S 	0.86805 0.46096 0.36592 0.69600
S 	S 	0.87804 0.48358 0.13954 0.31500
S 	S 	0.60967 0.39159 0.10222 0.39900
S 	S 	0.32043 0.65177 0.31512 0.66400
S 	S 	0.36592 0.86805 0.46096 0.69600
S 	S 	0.13954 0.87804 0.48358 0.31500
S 	S 	0.10222 0.60967 0.39159 0.39900
S 	S 	0.31512 0.32043 0.65177 0.66400
S 	S 	0.46096 0.36592 0.86805 0.69600
S 	S 	0.48358 0.13954 0.87804 0.31500
S 	S 	0.39159 0.10222 0.60967 0.39900
S 	S 	0.34823 0.68488 0.67957 0.66400
S 	S 	0.13195 0.53904 0.63408 0.69600
S 	S 	0.12196 0.51642 0.86046 0.31500
S 	S 	0.39033 0.60841 0.89778 0.39900
S 	S 	0.67957 0.34823 0.68488 0.66400
S 	S 	0.63408 0.13195 0.53904 0.69600
S 	S 	0.86046 0.12196 0.51642 0.31500
S 	S 	0.89778 0.39033 0.60841 0.39900
S 	S 	0.68488 0.67957 0.34823 0.66400
S 	S 	0.53904 0.63408 0.13195 0.69600
S 	S 	0.51642 0.86046 0.12196 0.31500
S 	S 	0.60841 0.89778 0.39033 0.39900
O 	O 	0.85360 0.29250 0.18880 -0.40000
O 	O 	0.75980 0.34980 0.13590 -0.43300
O 	O 	0.65210 0.25170 0.87670 -0.43300
O 	O 	0.72980 0.18960 0.81370 -0.44200
O 	O 	0.71693 0.49763 0.29443 -0.65900
O 	O 	0.60100 0.20200 0.71170 -0.66100
O 	O 	0.64690 0.24060 0.34810 -0.42100
O 	O 	0.67200 0.37500 0.38360 -0.45800
O 	O 	0.71050 0.31990 0.26880 -0.52100
O 	O 	0.58120 0.32810 0.28130 -0.30200
O 	O 	0.84220 0.40710 0.30070 -0.56200
O 	O 	0.81480 0.45720 0.42200 -0.47700
O 	O 	0.94150 0.44100 0.39730 -0.35700
O 	O 	0.87320 0.53570 0.34060 -0.43700
O 	O 	0.81367 0.50087 0.18557 -0.46300
O 	O 	0.65050 0.44500 0.17010 -0.48700
O 	O 	0.18880 0.85360 0.29250 -0.40000
O 	O 	0.13590 0.75980 0.34980 -0.43300
O 	O 	0.87670 0.65210 0.25170 -0.43300
O 	O 	0.81370 0.72980 0.18960 -0.44200
O 	O 	0.29443 0.71693 0.49763 -0.65900
O 	O 	0.71170 0.60100 0.20200 -0.66100
O 	O 	0.34810 0.64690 0.24060 -0.42100
O 	O 	0.38360 0.67200 0.37500 -0.45800
O 	O 	0.26880 0.71050 0.31990 -0.52100
O 	O 	0.28130 0.58120 0.32810 -0.30200
O 	O 	0.30070 0.84220 0.40710 -0.56200
O 	O 	0.42200 0.81480 0.45720 -0.47700
O 	O 	0.39730 0.94150 0.44100 -0.35700
O 	O 	0.34060 0.87320 0.53570 -0.43700
O 	O 	0.18557 0.81367 0.50087 -0.46300
O 	O 	0.17010 0.65050 0.44500 -0.48700
O 	O 	0.29250 0.18880 0.85360 -0.40000
O 	O 	0.34980 0.13590 0.75980 -0.43300
O 	O 	0.25170 0.87670 0.65210 -0.43300
O 	O 	0.18960 0.81370 0.72980 -0.44200
O 	O 	0.49763 0.29443 0.71693 -0.65900
O 	O 	0.20200 0.71170 0.60100 -0.66100
O 	O 	0.24060 0.34810 0.64690 -0.42100
O 	O 	0.37500 0.38360 0.67200 -0.45800
O 	O 	0.31990 0.26880 0.71050 -0.52100
O 	O 	0.32810 0.28130 0.58120 -0.30200
O 	O 	0.40710 0.30070 0.84220 -0.56200
O 	O 	0.45720 0.42200 0.81480 -0.47700
O 	O 	0.44100 0.39730 0.94150 -0.35700
O 	O 	0.53570 0.34060 0.87320 -0.43700
O 	O 	0.50087 0.18557 0.81367 -0.46300
O 	O 	0.44500 0.17010 0.65050 -0.48700
O 	O 	0.14640 0.70750 0.81120 -0.40000
O 	O 	0.24020 0.65020 0.86410 -0.43300
O 	O 	0.34790 0.74830 0.12330 -0.43300
O 	O 	0.27020 0.81040 0.18630 -0.44200
O 	O 	0.28307 0.50237 0.70557 -0.65900
O 	O 	0.39900 0.79800 0.28830 -0.66100
O 	O 	0.35310 0.75940 0.65190 -0.42100
O 	O 	0.32800 0.62500 0.61640 -0.45800
O 	O 	0.28950 0.68010 0.73120 -0.52100
O 	O 	0.41880 0.67190 0.71870 -0.30200
O 	O 	0.15780 0.59290 0.69930 -0.56200
O 	O 	0.18520 0.54280 0.57800 -0.47700
O 	O 	0.05850 0.55900 0.60270 -0.35700
O 	O 	0.12680 0.46430 0.65940 -0.43700
O 	O 	0.18633 0.49913 0.81443 -0.46300
O 	O 	0.34950 0.55500 0.82990 -0.48700
O 	O 	0.81120 0.14640 0.70750 -0.40000
O 	O 	0.86410 0.24020 0.65020 -0.43300
O 	O 	0.12330 0.34790 0.74830 -0.43300
O 	O 	0.18630 0.27020 0.81040 -0.44200
O 	O 	0.70557 0.28307 0.50237 -0.65900
O 	O 	0.28830 0.39900 0.79800 -0.66100
O 	O 	0.65190 0.35310 0.75940 -0.42100
O 	O 	0.61640 0.32800 0.62500 -0.45800
O 	O 	0.73120 0.28950 0.68010 -0.52100
O 	O 	0.71870 0.41880 0.67190 -0.30200
O 	O 	0.69930 0.15780 0.59290 -0.56200
O 	O 	0.57800 0.18520 0.54280 -0.47700
O 	O 	0.60270 0.05850 0.55900 -0.35700
O 	O 	0.65940 0.12680 0.46430 -0.43700
O 	O 	0.81443 0.18633 0.49913 -0.46300
O 	O 	0.82990 0.34950 0.55500 -0.48700
O 	O 	0.70750 0.81120 0.14640 -0.40000
O 	O 	0.65020 0.86410 0.24020 -0.43300
O 	O 	0.74830 0.12330 0.34790 -0.43300
O 	O 	0.81040 0.18630 0.27020 -0.44200
O 	O 	0.50237 0.70557 0.28307 -0.65900
O 	O 	0.79800 0.28830 0.39900 -0.66100
O 	O 	0.75940 0.65190 0.35310 -0.42100
O 	O 	0.62500 0.61640 0.32800 -0.45800
O 	O 	0.68010 0.73120 0.28950 -0.52100
O 	O 	0.67190 0.71870 0.41880 -0.30200
O 	O 	0.59290 0.69930 0.15780 -0.56200
O 	O 	0.54280 0.57800 0.18520 -0.47700
O 	O 	0.55900 0.60270 0.05850 -0.35700
O 	O 	0.46430 0.65940 0.12680 -0.43700
O 	O 	0.49913 0.81443 0.18633 -0.46300
O 	O 	0.55500 0.82990 0.34950 -0.48700
