data_crystal

_cell_length_a 18.51670
_cell_length_b 18.51670
_cell_length_c 18.51670
_cell_angle_alpha 95.45070
_cell_angle_beta  95.45070
_cell_angle_gamma 95.45070

_symmetry_space_group_name_	'P 1'
_symmetry_space_group_name_H-M	'P 1'

loop_
_symmetry_equiv_pos_as_xyz
  x,y,z

loop_
_atom_site_label
_atom_site_type_symbol
_atom_site_fract_x
_atom_site_fract_y
_atom_site_fract_z
_atom_site_charge
Co	Co	0.91821 0.72438 0.24653 1.09900
Co	Co	0.77877 0.29499 0.08390 1.14500
Co	Co	0.87163 0.96171 0.25606 1.11500
Co	Co	0.79369 0.79617 0.32263 1.16000
Co	Co	0.24653 0.91821 0.72438 1.09900
Co	Co	0.08390 0.77877 0.29499 1.14500
Co	Co	0.25606 0.87163 0.96171 1.11500
Co	Co	0.32263 0.79369 0.79617 1.16000
Co	Co	0.72438 0.24653 0.91821 1.09900
Co	Co	0.29499 0.08390 0.77877 1.14500
Co	Co	0.96171 0.25606 0.87163 1.11500
Co	Co	0.79617 0.32263 0.79369 1.16000
Co	Co	0.08179 0.27562 0.75347 1.09900
Co	Co	0.22123 0.70501 0.91610 1.14500
Co	Co	0.12837 0.03829 0.74394 1.11500
Co	Co	0.20631 0.20383 0.67737 1.16000
Co	Co	0.75347 0.08179 0.27562 1.09900
Co	Co	0.91610 0.22123 0.70501 1.14500
Co	Co	0.74394 0.12837 0.03829 1.11500
Co	Co	0.67737 0.20631 0.20383 1.16000
Co	Co	0.27562 0.75347 0.08179 1.09900
Co	Co	0.70501 0.91610 0.22123 1.14500
Co	Co	0.03829 0.74394 0.12837 1.11500
Co	Co	0.20383 0.67737 0.20631 1.16000
H 	H 	0.68900 0.60850 0.37910 0.02400
H 	H 	0.61090 0.50160 0.37660 0.06500
H 	H 	0.62670 0.39830 0.30180 0.01900
H 	H 	0.80090 0.50600 0.22870 0.03000
H 	H 	0.98880 0.83650 0.21520 0.31400
H 	H 	0.66170 0.21700 0.07580 0.18600
H 	H 	0.37910 0.68900 0.60850 0.02400
H 	H 	0.37660 0.61090 0.50160 0.06500
H 	H 	0.30180 0.62670 0.39830 0.01900
H 	H 	0.22870 0.80090 0.50600 0.03000
H 	H 	0.21520 0.98880 0.83650 0.31400
H 	H 	0.07580 0.66170 0.21700 0.18600
H 	H 	0.60850 0.37910 0.68900 0.02400
H 	H 	0.50160 0.37660 0.61090 0.06500
H 	H 	0.39830 0.30180 0.62670 0.01900
H 	H 	0.50600 0.22870 0.80090 0.03000
H 	H 	0.83650 0.21520 0.98880 0.31400
H 	H 	0.21700 0.07580 0.66170 0.18600
H 	H 	0.31100 0.39150 0.62090 0.02400
H 	H 	0.38910 0.49840 0.62340 0.06500
H 	H 	0.37330 0.60170 0.69820 0.01900
H 	H 	0.19910 0.49400 0.77130 0.03000
H 	H 	0.01120 0.16350 0.78480 0.31400
H 	H 	0.33830 0.78300 0.92420 0.18600
H 	H 	0.62090 0.31100 0.39150 0.02400
H 	H 	0.62340 0.38910 0.49840 0.06500
H 	H 	0.69820 0.37330 0.60170 0.01900
H 	H 	0.77130 0.19910 0.49400 0.03000
H 	H 	0.78480 0.01120 0.16350 0.31400
H 	H 	0.92420 0.33830 0.78300 0.18600
H 	H 	0.39150 0.62090 0.31100 0.02400
H 	H 	0.49840 0.62340 0.38910 0.06500
H 	H 	0.60170 0.69820 0.37330 0.01900
H 	H 	0.49400 0.77130 0.19910 0.03000
H 	H 	0.16350 0.78480 0.01120 0.31400
H 	H 	0.78300 0.92420 0.33830 0.18600
C 	C 	0.80380 0.63530 0.30590 0.37800
C 	C 	0.72580 0.37290 0.21130 0.39400
C 	C 	0.75420 0.56630 0.30450 -0.13400
C 	C 	0.69600 0.56600 0.34860 0.05200
C 	C 	0.64980 0.50280 0.34670 -0.11700
C 	C 	0.65920 0.44130 0.30220 0.05600
C 	C 	0.71570 0.44170 0.25790 -0.13800
C 	C 	0.76260 0.50500 0.25930 0.07400
C 	C 	0.30590 0.80380 0.63530 0.37800
C 	C 	0.21130 0.72580 0.37290 0.39400
C 	C 	0.30450 0.75420 0.56630 -0.13400
C 	C 	0.34860 0.69600 0.56600 0.05200
C 	C 	0.34670 0.64980 0.50280 -0.11700
C 	C 	0.30220 0.65920 0.44130 0.05600
C 	C 	0.25790 0.71570 0.44170 -0.13800
C 	C 	0.25930 0.76260 0.50500 0.07400
C 	C 	0.63530 0.30590 0.80380 0.37800
C 	C 	0.37290 0.21130 0.72580 0.39400
C 	C 	0.56630 0.30450 0.75420 -0.13400
C 	C 	0.56600 0.34860 0.69600 0.05200
C 	C 	0.50280 0.34670 0.64980 -0.11700
C 	C 	0.44130 0.30220 0.65920 0.05600
C 	C 	0.44170 0.25790 0.71570 -0.13800
C 	C 	0.50500 0.25930 0.76260 0.07400
C 	C 	0.19620 0.36470 0.69410 0.37800
C 	C 	0.27420 0.62710 0.78870 0.39400
C 	C 	0.24580 0.43370 0.69550 -0.13400
C 	C 	0.30400 0.43400 0.65140 0.05200
C 	C 	0.35020 0.49720 0.65330 -0.11700
C 	C 	0.34080 0.55870 0.69780 0.05600
C 	C 	0.28430 0.55830 0.74210 -0.13800
C 	C 	0.23740 0.49500 0.74070 0.07400
C 	C 	0.69410 0.19620 0.36470 0.37800
C 	C 	0.78870 0.27420 0.62710 0.39400
C 	C 	0.69550 0.24580 0.43370 -0.13400
C 	C 	0.65140 0.30400 0.43400 0.05200
C 	C 	0.65330 0.35020 0.49720 -0.11700
C 	C 	0.69780 0.34080 0.55870 0.05600
C 	C 	0.74210 0.28430 0.55830 -0.13800
C 	C 	0.74070 0.23740 0.49500 0.07400
C 	C 	0.36470 0.69410 0.19620 0.37800
C 	C 	0.62710 0.78870 0.27420 0.39400
C 	C 	0.43370 0.69550 0.24580 -0.13400
C 	C 	0.43400 0.65140 0.30400 0.05200
C 	C 	0.49720 0.65330 0.35020 -0.11700
C 	C 	0.55870 0.69780 0.34080 0.05600
C 	C 	0.55830 0.74210 0.28430 -0.13800
C 	C 	0.49500 0.74070 0.23740 0.07400
S 	S 	0.81675 0.81713 0.14967 0.67400
S 	S 	0.96234 0.86804 0.36813 0.73200
S 	S 	0.14967 0.81675 0.81713 0.67400
S 	S 	0.36813 0.96234 0.86804 0.73200
S 	S 	0.81713 0.14967 0.81675 0.67400
S 	S 	0.86804 0.36813 0.96234 0.73200
S 	S 	0.18325 0.18287 0.85033 0.67400
S 	S 	0.03766 0.13196 0.63187 0.73200
S 	S 	0.85033 0.18325 0.18287 0.67400
S 	S 	0.63187 0.03766 0.13196 0.73200
S 	S 	0.18287 0.85033 0.18325 0.67400
S 	S 	0.13196 0.63187 0.03766 0.73200
O 	O 	0.79300 0.69070 0.34830 -0.43700
O 	O 	0.85290 0.63520 0.26260 -0.47600
O 	O 	0.76130 0.37880 0.15730 -0.44300
O 	O 	0.69680 0.31470 0.23040 -0.46200
O 	O 	0.82020 0.76680 0.20930 -0.54000
O 	O 	0.74330 0.84240 0.14400 -0.42700
O 	O 	0.82910 0.77690 0.08110 -0.31700
O 	O 	0.87410 0.87950 0.16930 -0.48900
O 	O 	0.90920 0.80200 0.33950 -0.59200
O 	O 	0.95670 0.92320 0.31600 -0.50300
O 	O 	0.03610 0.84570 0.37200 -0.44300
O 	O 	0.94540 0.89550 0.43960 -0.32800
O 	O 	0.99830 0.79260 0.21780 -0.87800
O 	O 	0.70110 0.20940 0.10010 -0.79300
O 	O 	0.34830 0.79300 0.69070 -0.43700
O 	O 	0.26260 0.85290 0.63520 -0.47600
O 	O 	0.15730 0.76130 0.37880 -0.44300
O 	O 	0.23040 0.69680 0.31470 -0.46200
O 	O 	0.20930 0.82020 0.76680 -0.54000
O 	O 	0.14400 0.74330 0.84240 -0.42700
O 	O 	0.08110 0.82910 0.77690 -0.31700
O 	O 	0.16930 0.87410 0.87950 -0.48900
O 	O 	0.33950 0.90920 0.80200 -0.59200
O 	O 	0.31600 0.95670 0.92320 -0.50300
O 	O 	0.37200 0.03610 0.84570 -0.44300
O 	O 	0.43960 0.94540 0.89550 -0.32800
O 	O 	0.21780 0.99830 0.79260 -0.87800
O 	O 	0.10010 0.70110 0.20940 -0.79300
O 	O 	0.69070 0.34830 0.79300 -0.43700
O 	O 	0.63520 0.26260 0.85290 -0.47600
O 	O 	0.37880 0.15730 0.76130 -0.44300
O 	O 	0.31470 0.23040 0.69680 -0.46200
O 	O 	0.76680 0.20930 0.82020 -0.54000
O 	O 	0.84240 0.14400 0.74330 -0.42700
O 	O 	0.77690 0.08110 0.82910 -0.31700
O 	O 	0.87950 0.16930 0.87410 -0.48900
O 	O 	0.80200 0.33950 0.90920 -0.59200
O 	O 	0.92320 0.31600 0.95670 -0.50300
O 	O 	0.84570 0.37200 0.03610 -0.44300
O 	O 	0.89550 0.43960 0.94540 -0.32800
O 	O 	0.79260 0.21780 0.99830 -0.87800
O 	O 	0.20940 0.10010 0.70110 -0.79300
O 	O 	0.20700 0.30930 0.65170 -0.43700
O 	O 	0.14710 0.36480 0.73740 -0.47600
O 	O 	0.23870 0.62120 0.84270 -0.44300
O 	O 	0.30320 0.68530 0.76960 -0.46200
O 	O 	0.17980 0.23320 0.79070 -0.54000
O 	O 	0.25670 0.15760 0.85600 -0.42700
O 	O 	0.17090 0.22310 0.91890 -0.31700
O 	O 	0.12590 0.12050 0.83070 -0.48900
O 	O 	0.09080 0.19800 0.66050 -0.59200
O 	O 	0.04330 0.07680 0.68400 -0.50300
O 	O 	0.96390 0.15430 0.62800 -0.44300
O 	O 	0.05460 0.10450 0.56040 -0.32800
O 	O 	0.00170 0.20740 0.78220 -0.87800
O 	O 	0.29890 0.79060 0.89990 -0.79300
O 	O 	0.65170 0.20700 0.30930 -0.43700
O 	O 	0.73740 0.14710 0.36480 -0.47600
O 	O 	0.84270 0.23870 0.62120 -0.44300
O 	O 	0.76960 0.30320 0.68530 -0.46200
O 	O 	0.79070 0.17980 0.23320 -0.54000
O 	O 	0.85600 0.25670 0.15760 -0.42700
O 	O 	0.91890 0.17090 0.22310 -0.31700
O 	O 	0.83070 0.12590 0.12050 -0.48900
O 	O 	0.66050 0.09080 0.19800 -0.59200
O 	O 	0.68400 0.04330 0.07680 -0.50300
O 	O 	0.62800 0.96390 0.15430 -0.44300
O 	O 	0.56040 0.05460 0.10450 -0.32800
O 	O 	0.78220 0.00170 0.20740 -0.87800
O 	O 	0.89990 0.29890 0.79060 -0.79300
O 	O 	0.30930 0.65170 0.20700 -0.43700
O 	O 	0.36480 0.73740 0.14710 -0.47600
O 	O 	0.62120 0.84270 0.23870 -0.44300
O 	O 	0.68530 0.76960 0.30320 -0.46200
O 	O 	0.23320 0.79070 0.17980 -0.54000
O 	O 	0.15760 0.85600 0.25670 -0.42700
O 	O 	0.22310 0.91890 0.17090 -0.31700
O 	O 	0.12050 0.83070 0.12590 -0.48900
O 	O 	0.19800 0.66050 0.09080 -0.59200
O 	O 	0.07680 0.68400 0.04330 -0.50300
O 	O 	0.15430 0.62800 0.96390 -0.44300
O 	O 	0.10450 0.56040 0.05460 -0.32800
O 	O 	0.20740 0.78220 0.00170 -0.87800
O 	O 	0.79060 0.89990 0.29890 -0.79300
