data_crystal

_cell_length_a 7.16300
_cell_length_b 10.44300
_cell_length_c 20.00300
_cell_angle_alpha 81.20000
_cell_angle_beta  85.04000
_cell_angle_gamma 86.91000

_symmetry_space_group_name_	'P 1'
_symmetry_space_group_name_H-M	'P 1'

loop_
_symmetry_equiv_pos_as_xyz
  x,y,z

loop_
_atom_site_label
_atom_site_type_symbol
_atom_site_fract_x
_atom_site_fract_y
_atom_site_fract_z
_atom_site_charge
Na	Na	0.59416 0.66202 0.76645 0.59300
Na	Na	0.65326 0.56892 0.93810 0.59400
P 	P 	0.54714 0.00103 0.67050 0.50000
O 	O 	0.46581 0.03217 0.73875 -0.29000
O 	O 	0.58278 0.84877 0.67649 -0.50800
H 	H 	0.59600 0.82800 0.63800 0.30300
O 	O 	0.75022 0.05871 0.66078 -0.29400
O 	O 	0.43420 0.04958 0.61222 -0.33400
O 	O 	0.76720 0.12765 0.48978 -0.33800
O 	O 	0.83953 0.30936 0.52701 -0.29900
N 	N 	0.09610 0.19424 0.60674 -0.35300
H 	H 	0.02000 0.22500 0.63870 0.17700
H 	H 	0.19400 0.15000 0.62600 0.15500
H 	H 	0.14300 0.25700 0.57610 0.17400
C 	C 	0.85410 0.19020 0.52611 0.35600
C 	C 	0.99270 0.10892 0.57123 -0.13100
H 	H 	0.08100 0.06780 0.54120 0.07100
C 	C 	0.89960 0.00022 0.61960 0.28100
H 	H 	0.84600 0.94600 0.58940 -0.01900
C 	C 	0.02820 0.92030 0.66729 -0.63500
H 	H 	0.96800 0.84600 0.69310 0.23600
H 	H 	0.07000 0.96900 0.70050 0.22700
H 	H 	0.14300 0.88700 0.64140 0.21000
P 	P 	0.11722 0.50348 0.31617 0.50900
O 	O 	0.07525 0.43747 0.25778 -0.35000
O 	O 	0.12100 0.65537 0.29634 -0.48800
H 	H 	0.17600 0.67900 0.26040 0.26600
O 	O 	0.33255 0.45648 0.32733 -0.37000
O 	O 	0.99754 0.47725 0.38111 -0.29500
O 	O 	0.27375 0.36786 0.50665 -0.35100
O 	O 	0.36257 0.21002 0.44521 -0.34400
N 	N 	0.67950 0.33511 0.39140 -0.27300
H 	H 	0.65500 0.31000 0.35270 0.11400
H 	H 	0.79200 0.37900 0.38380 0.14300
H 	H 	0.69800 0.25800 0.42150 0.14400
C 	C 	0.37430 0.32153 0.46133 0.39200
C 	C 	0.52310 0.41119 0.42323 -0.25200
H 	H 	0.57200 0.45670 0.45700 0.12900
C 	C 	0.43530 0.51803 0.37324 0.44700
H 	H 	0.34600 0.56700 0.40140 -0.07800
C 	C 	0.57420 0.60700 0.33085 -0.93200
H 	H 	0.51100 0.68100 0.30620 0.31800
H 	H 	0.66000 0.55800 0.30160 0.29600
H 	H 	0.64800 0.64200 0.35920 0.33500
O 	O 	0.69110 0.76392 0.85367 -0.65000
H 	H 	0.82100 0.76500 0.85160 0.21100
H 	H 	0.65800 0.84200 0.85130 0.29100
O 	O 	0.62410 0.35585 0.00281 -0.69900
H 	H 	0.60000 0.29800 0.97790 0.24000
H 	H 	0.73300 0.33100 0.01330 0.27700
O 	O 	0.51560 0.48413 0.85092 -0.86600
H 	H 	0.56800 0.40900 0.84250 0.27800
H 	H 	0.41900 0.46200 0.86190 0.41200
O 	O 	0.97120 0.53610 0.88109 -0.42000
O 	O 	0.09400 0.52900 0.12350 -0.24200
H 	H 	0.02100 0.61700 0.87660 0.12100
H 	H 	0.95100 0.52300 0.84350 0.36200
H 	H 	0.16000 0.61000 0.13200 0.06600
Na	Na	0.40584 0.33798 0.23355 0.59200
Na	Na	0.34674 0.43108 0.06190 0.59100
P 	P 	0.45286 0.99897 0.32950 0.54200
O 	O 	0.53419 0.96783 0.26125 -0.27000
O 	O 	0.41722 0.15123 0.32351 -0.54500
H 	H 	0.40400 0.17200 0.36200 0.30800
O 	O 	0.24978 0.94129 0.33922 -0.30900
O 	O 	0.56580 0.95042 0.38778 -0.32100
O 	O 	0.23280 0.87235 0.51022 -0.33100
O 	O 	0.16047 0.69064 0.47299 -0.31700
N 	N 	0.90390 0.80576 0.39326 -0.33100
H 	H 	0.98000 0.77500 0.36130 0.19300
H 	H 	0.80600 0.85000 0.37400 0.16000
H 	H 	0.85700 0.74300 0.42390 0.17700
C 	C 	0.14590 0.80980 0.47389 0.38200
C 	C 	0.00730 0.89108 0.42877 -0.24700
H 	H 	0.91900 0.93220 0.45880 0.14400
C 	C 	0.10040 0.99978 0.38040 0.39200
H 	H 	0.15400 0.05400 0.41060 -0.09000
C 	C 	0.97180 0.07970 0.33271 -0.62400
H 	H 	0.03200 0.15400 0.30690 0.20200
H 	H 	0.93000 0.03100 0.29950 0.21200
H 	H 	0.85700 0.11300 0.35860 0.20200
P 	P 	0.88278 0.49652 0.68383 0.53500
O 	O 	0.92475 0.56253 0.74222 -0.34000
O 	O 	0.87900 0.34463 0.70366 -0.47800
H 	H 	0.82400 0.32100 0.73960 0.26200
O 	O 	0.66745 0.54352 0.67267 -0.37000
O 	O 	0.00246 0.52275 0.61889 -0.32600
O 	O 	0.72625 0.63214 0.49335 -0.34300
O 	O 	0.63743 0.78998 0.55479 -0.33300
N 	N 	0.32050 0.66489 0.60860 -0.27300
H 	H 	0.34500 0.69000 0.64730 0.11300
H 	H 	0.20800 0.62100 0.61620 0.13800
H 	H 	0.30200 0.74200 0.57850 0.14400
C 	C 	0.62570 0.67847 0.53867 0.39000
C 	C 	0.47690 0.58881 0.57677 -0.24800
H 	H 	0.42800 0.54330 0.54300 0.12800
C 	C 	0.56470 0.48197 0.62676 0.44100
H 	H 	0.65400 0.43300 0.59860 -0.07400
C 	C 	0.42580 0.39300 0.66915 -0.91600
H 	H 	0.48900 0.31900 0.69380 0.31100
H 	H 	0.34000 0.44200 0.69840 0.28500
H 	H 	0.35200 0.35800 0.64080 0.32800
O 	O 	0.30890 0.23608 0.14633 -0.64400
H 	H 	0.17900 0.23500 0.14840 0.19300
H 	H 	0.34200 0.15800 0.14870 0.27300
O 	O 	0.37590 0.64415 0.99719 -0.69800
H 	H 	0.40000 0.70200 0.02210 0.24500
H 	H 	0.26700 0.66900 0.98670 0.27600
O 	O 	0.48440 0.51587 0.14908 -0.87400
H 	H 	0.43200 0.59100 0.15750 0.28400
H 	H 	0.58100 0.53800 0.13810 0.42200
O 	O 	0.02880 0.46390 0.11891 -0.50700
O 	O 	0.90600 0.47100 0.87650 -0.28700
H 	H 	0.97900 0.38300 0.12340 0.17300
H 	H 	0.04900 0.47700 0.15650 0.36800
H 	H 	0.84000 0.39000 0.86800 0.08100
Na	Na	0.00000 0.50000 0.50000 0.59900
Na	Na	0.50000 0.00000 0.50000 0.59300
