data_crystal

_cell_length_a 13.27960
_cell_length_b 14.99920
_cell_length_c 16.12130
_cell_angle_alpha 117.72300
_cell_angle_beta  99.12450
_cell_angle_gamma 90.00000

_symmetry_space_group_name_	'P 1'
_symmetry_space_group_name_H-M	'P 1'

loop_
_symmetry_equiv_pos_as_xyz
  x,y,z

loop_
_atom_site_label
_atom_site_type_symbol
_atom_site_fract_x
_atom_site_fract_y
_atom_site_fract_z
_atom_site_charge
Nd	Nd	0.95766 0.96710 0.36284 2.02600
Nd	Nd	0.54234 0.60426 0.63716 2.04600
Nd	Nd	0.04234 0.03290 0.63716 2.02600
Nd	Nd	0.45766 0.39574 0.36284 2.04600
H 	H 	0.04620 0.63590 0.11440 0.02200
H 	H 	0.09550 0.52640 0.97160 0.08700
H 	H 	0.13740 0.75760 0.91900 0.07600
H 	H 	0.09160 0.86730 0.06220 0.01400
H 	H 	0.19400 0.60200 0.82400 0.04400
H 	H 	0.27730 0.51350 0.71340 0.05100
H 	H 	0.08380 0.28910 0.67960 0.03600
H 	H 	0.20610 0.26560 0.45980 0.01400
H 	H 	0.45380 0.52150 0.88560 0.02200
H 	H 	0.40450 0.55480 0.02840 0.08700
H 	H 	0.36260 0.83860 0.08100 0.07500
H 	H 	0.40840 0.80510 0.93780 0.01500
H 	H 	0.30600 0.77800 0.17600 0.04300
H 	H 	0.22270 0.80010 0.28660 0.05200
H 	H 	0.41620 0.60950 0.32040 0.03600
H 	H 	0.29390 0.80580 0.54020 0.01600
H 	H 	0.95380 0.36410 0.88560 0.02200
H 	H 	0.90450 0.47360 0.02840 0.08700
H 	H 	0.86260 0.24240 0.08100 0.07600
H 	H 	0.90840 0.13270 0.93780 0.01400
H 	H 	0.80600 0.39800 0.17600 0.04400
H 	H 	0.72270 0.48650 0.28660 0.05100
H 	H 	0.91620 0.71090 0.32040 0.03600
H 	H 	0.79390 0.73440 0.54020 0.01400
H 	H 	0.54620 0.47850 0.11440 0.02200
H 	H 	0.59550 0.44520 0.97160 0.08700
H 	H 	0.63740 0.16140 0.91900 0.07500
H 	H 	0.59160 0.19490 0.06220 0.01500
H 	H 	0.69400 0.22200 0.82400 0.04300
H 	H 	0.77730 0.19990 0.71340 0.05200
H 	H 	0.58380 0.39050 0.67960 0.03600
H 	H 	0.70610 0.19420 0.45980 0.01600
C 	C 	0.01940 0.83180 0.18960 0.34800
C 	C 	0.05760 0.76100 0.10100 -0.12900
C 	C 	0.06290 0.66060 0.07460 0.06200
C 	C 	0.09290 0.59470 0.98920 -0.14600
C 	C 	0.11900 0.63260 0.93020 0.09400
C 	C 	0.11830 0.73260 0.95780 -0.15400
C 	C 	0.08970 0.79850 0.04320 0.05600
C 	C 	0.14690 0.56450 0.83760 -0.02900
C 	C 	0.32770 0.43770 0.54200 0.46400
C 	C 	0.25470 0.39550 0.57980 -0.14300
C 	C 	0.24090 0.45100 0.67440 -0.02000
C 	C 	0.17320 0.41340 0.71040 0.04300
C 	C 	0.12430 0.31710 0.65420 -0.02300
C 	C 	0.13630 0.26290 0.56000 -0.14400
C 	C 	0.19980 0.30220 0.52340 0.06800
C 	C 	0.08000 0.15980 0.49720 0.42400
C 	C 	0.48060 0.64220 0.81040 0.33900
C 	C 	0.44240 0.66000 0.89900 -0.12500
C 	C 	0.43710 0.58600 0.92540 0.05600
C 	C 	0.40710 0.60550 0.01080 -0.14100
C 	C 	0.38100 0.70240 0.06980 0.09100
C 	C 	0.38170 0.77480 0.04220 -0.15100
C 	C 	0.41030 0.75530 0.95680 0.05200
C 	C 	0.35310 0.72690 0.16240 -0.02800
C 	C 	0.17230 0.89570 0.45800 0.46200
C 	C 	0.24530 0.81570 0.42020 -0.14100
C 	C 	0.25910 0.77660 0.32560 -0.02100
C 	C 	0.32680 0.70300 0.28960 0.04400
C 	C 	0.37570 0.66290 0.34580 -0.02300
C 	C 	0.36370 0.70290 0.44000 -0.14300
C 	C 	0.30020 0.77880 0.47660 0.06700
C 	C 	0.42000 0.66260 0.50280 0.42500
C 	C 	0.98060 0.16820 0.81040 0.34800
C 	C 	0.94240 0.23900 0.89900 -0.12900
C 	C 	0.93710 0.33940 0.92540 0.06200
C 	C 	0.90710 0.40530 0.01080 -0.14600
C 	C 	0.88100 0.36740 0.06980 0.09400
C 	C 	0.88170 0.26740 0.04220 -0.15400
C 	C 	0.91030 0.20150 0.95680 0.05600
C 	C 	0.85310 0.43550 0.16240 -0.02900
C 	C 	0.67230 0.56230 0.45800 0.46400
C 	C 	0.74530 0.60450 0.42020 -0.14300
C 	C 	0.75910 0.54900 0.32560 -0.02000
C 	C 	0.82680 0.58660 0.28960 0.04300
C 	C 	0.87570 0.68290 0.34580 -0.02300
C 	C 	0.86370 0.73710 0.44000 -0.14400
C 	C 	0.80020 0.69780 0.47660 0.06800
C 	C 	0.92000 0.84020 0.50280 0.42400
C 	C 	0.51940 0.35780 0.18960 0.33900
C 	C 	0.55760 0.34000 0.10100 -0.12500
C 	C 	0.56290 0.41400 0.07460 0.05600
C 	C 	0.59290 0.39450 0.98920 -0.14100
C 	C 	0.61900 0.29760 0.93020 0.09100
C 	C 	0.61830 0.22520 0.95780 -0.15100
C 	C 	0.58970 0.24470 0.04320 0.05200
C 	C 	0.64690 0.27310 0.83760 -0.02800
C 	C 	0.82770 0.10430 0.54200 0.46200
C 	C 	0.75470 0.18430 0.57980 -0.14100
C 	C 	0.74090 0.22340 0.67440 -0.02100
C 	C 	0.67320 0.29700 0.71040 0.04400
C 	C 	0.62430 0.33710 0.65420 -0.02300
C 	C 	0.63630 0.29710 0.56000 -0.14300
C 	C 	0.69980 0.22120 0.52340 0.06700
C 	C 	0.58000 0.33740 0.49720 0.42500
N 	N 	0.15270 0.47070 0.80500 -0.11000
N 	N 	0.34730 0.66570 0.19500 -0.11000
N 	N 	0.84730 0.52930 0.19500 -0.11000
N 	N 	0.65270 0.33430 0.80500 -0.11000
O 	O 	0.97530 0.79525 0.23190 -0.45900
O 	O 	0.03290 0.92385 0.21790 -0.45200
O 	O 	0.37220 0.52339 0.59758 -0.50400
O 	O 	0.33650 0.38375 0.45570 -0.54400
O 	O 	0.06620 0.12383 0.40926 -0.47700
O 	O 	0.04960 0.10963 0.53546 -0.61000
O 	O 	0.52470 0.56335 0.76810 -0.45300
O 	O 	0.46710 0.70595 0.78210 -0.45500
O 	O 	0.12780 0.92581 0.40242 -0.49700
O 	O 	0.16350 0.92805 0.54430 -0.53700
O 	O 	0.43380 0.71457 0.59074 -0.47700
O 	O 	0.45040 0.57417 0.46454 -0.61100
O 	O 	0.02470 0.20475 0.76810 -0.45900
O 	O 	0.96710 0.07615 0.78210 -0.45200
O 	O 	0.62780 0.47661 0.40242 -0.50400
O 	O 	0.66350 0.61625 0.54430 -0.54400
O 	O 	0.93380 0.87617 0.59074 -0.47700
O 	O 	0.95040 0.89037 0.46454 -0.61000
O 	O 	0.47530 0.43665 0.23190 -0.45300
O 	O 	0.53290 0.29405 0.21790 -0.45500
O 	O 	0.87220 0.07419 0.59758 -0.49700
O 	O 	0.83650 0.07195 0.45570 -0.53700
O 	O 	0.56620 0.28543 0.40926 -0.47700
O 	O 	0.54960 0.42583 0.53546 -0.61100
