data_crystal

_cell_length_a 13.58680
_cell_length_b 15.15810
_cell_length_c 16.01840
_cell_angle_alpha 118.23900
_cell_angle_beta  98.81200
_cell_angle_gamma 90.00000

_symmetry_space_group_name_	'P 1'
_symmetry_space_group_name_H-M	'P 1'

loop_
_symmetry_equiv_pos_as_xyz
  x,y,z

loop_
_atom_site_label
_atom_site_type_symbol
_atom_site_fract_x
_atom_site_fract_y
_atom_site_fract_z
_atom_site_charge
Nd	Nd	0.46126 0.89373 0.36102 2.04300
Nd	Nd	0.03874 0.53271 0.63898 2.04400
Nd	Nd	0.53874 0.10627 0.63898 2.04300
Nd	Nd	0.96126 0.46729 0.36102 2.04400
H 	H 	0.60310 0.69010 0.05300 0.01500
H 	H 	0.64810 0.66140 0.90940 0.06700
H 	H 	0.60110 0.94630 0.97260 0.08200
H 	H 	0.54320 0.97030 0.10920 0.02700
H 	H 	0.59100 0.89600 0.67720 0.02800
H 	H 	0.78850 0.71650 0.71460 0.05100
H 	H 	0.72690 0.71180 0.45860 0.01300
H 	H 	0.71000 0.72900 0.81600 0.04000
H 	H 	0.89690 0.63710 0.94700 0.01400
H 	H 	0.85190 0.75200 0.09060 0.07100
H 	H 	0.89890 0.97370 0.02740 0.08500
H 	H 	0.95680 0.86110 0.89080 0.02400
H 	H 	0.90900 0.21880 0.32280 0.02800
H 	H 	0.71150 0.00190 0.28540 0.05100
H 	H 	0.77310 0.25320 0.54140 0.01300
H 	H 	0.79000 0.91300 0.18400 0.04100
H 	H 	0.39690 0.30990 0.94700 0.01600
H 	H 	0.35190 0.33860 0.09060 0.06800
H 	H 	0.39890 0.05370 0.02740 0.08200
H 	H 	0.45680 0.02970 0.89080 0.02700
H 	H 	0.40900 0.10400 0.32280 0.02800
H 	H 	0.21150 0.28350 0.28540 0.05100
H 	H 	0.27310 0.28820 0.54140 0.01300
H 	H 	0.29000 0.27100 0.18400 0.04000
H 	H 	0.10310 0.36290 0.05300 0.01400
H 	H 	0.14810 0.24800 0.90940 0.07100
H 	H 	0.10110 0.02630 0.97260 0.08500
H 	H 	0.04320 0.13890 0.10920 0.02400
H 	H 	0.09100 0.78120 0.67720 0.02800
H 	H 	0.28850 0.99810 0.71460 0.05100
H 	H 	0.22690 0.74680 0.45860 0.01300
H 	H 	0.21000 0.08700 0.81600 0.04100
C 	C 	0.52790 0.84870 0.18380 0.32400
C 	C 	0.56770 0.83330 0.09540 -0.11000
C 	C 	0.60050 0.74050 0.03560 0.03500
C 	C 	0.62890 0.72400 0.95060 -0.12800
C 	C 	0.62900 0.80260 0.92600 0.07600
C 	C 	0.59920 0.89380 0.98700 -0.12700
C 	C 	0.56630 0.90910 0.07020 0.04000
C 	C 	0.65650 0.77790 0.83300 -0.01800
C 	C 	0.59430 0.84720 0.49500 0.42700
C 	C 	0.64980 0.80911 0.55762 -0.14900
C 	C 	0.63410 0.84601 0.65242 -0.01700
C 	C 	0.68300 0.80782 0.70904 0.04000
C 	C 	0.75260 0.73840 0.67460 -0.01800
C 	C 	0.76920 0.70120 0.58020 -0.14500
C 	C 	0.71690 0.73662 0.52164 0.06900
C 	C 	0.84280 0.62460 0.54380 0.46100
C 	C 	0.97210 0.66490 0.81620 0.32700
C 	C 	0.93230 0.73790 0.90460 -0.11600
C 	C 	0.89950 0.70490 0.96440 0.04500
C 	C 	0.87110 0.77340 0.04940 -0.13700
C 	C 	0.87100 0.87660 0.07400 0.08300
C 	C 	0.90080 0.90680 0.01300 -0.13800
C 	C 	0.93370 0.83890 0.92980 0.05100
C 	C 	0.84350 0.94490 0.16700 -0.02200
C 	C 	0.90570 0.35220 0.50500 0.42700
C 	C 	0.85020 0.25149 0.44238 -0.14900
C 	C 	0.86590 0.19359 0.34758 -0.01700
C 	C 	0.81700 0.09878 0.29096 0.04000
C 	C 	0.74740 0.06380 0.32540 -0.01800
C 	C 	0.73080 0.12100 0.41980 -0.14600
C 	C 	0.78310 0.21498 0.47836 0.06900
C 	C 	0.65720 0.08080 0.45620 0.46100
C 	C 	0.47210 0.15130 0.81620 0.32400
C 	C 	0.43230 0.16670 0.90460 -0.11000
C 	C 	0.39950 0.25950 0.96440 0.03500
C 	C 	0.37110 0.27600 0.04940 -0.12800
C 	C 	0.37100 0.19740 0.07400 0.07600
C 	C 	0.40080 0.10620 0.01300 -0.12700
C 	C 	0.43370 0.09090 0.92980 0.04000
C 	C 	0.34350 0.22210 0.16700 -0.01800
C 	C 	0.40570 0.15280 0.50500 0.42700
C 	C 	0.35020 0.19089 0.44238 -0.14900
C 	C 	0.36590 0.15399 0.34758 -0.01700
C 	C 	0.31700 0.19218 0.29096 0.04000
C 	C 	0.24740 0.26160 0.32540 -0.01800
C 	C 	0.23080 0.29880 0.41980 -0.14500
C 	C 	0.28310 0.26338 0.47836 0.06900
C 	C 	0.15720 0.37540 0.45620 0.46100
C 	C 	0.02790 0.33510 0.18380 0.32700
C 	C 	0.06770 0.26210 0.09540 -0.11600
C 	C 	0.10050 0.29510 0.03560 0.04500
C 	C 	0.12890 0.22660 0.95060 -0.13700
C 	C 	0.12900 0.12340 0.92600 0.08300
C 	C 	0.09920 0.09320 0.98700 -0.13800
C 	C 	0.06630 0.16110 0.07020 0.05100
C 	C 	0.15650 0.05510 0.83300 -0.02200
C 	C 	0.09430 0.64780 0.49500 0.42700
C 	C 	0.14980 0.74851 0.55762 -0.14900
C 	C 	0.13410 0.80641 0.65242 -0.01700
C 	C 	0.18300 0.90122 0.70904 0.04000
C 	C 	0.25260 0.93620 0.67460 -0.01800
C 	C 	0.26920 0.87900 0.58020 -0.14600
C 	C 	0.21690 0.78502 0.52164 0.06900
C 	C 	0.34280 0.91920 0.54380 0.46100
N 	N 	0.65830 0.84196 0.80312 -0.11200
N 	N 	0.84170 0.03884 0.19688 -0.11100
N 	N 	0.34170 0.15804 0.19688 -0.11200
N 	N 	0.15830 0.96116 0.80312 -0.11100
O 	O 	0.55500 0.79546 0.22192 -0.42500
O 	O 	0.46910 0.91688 0.21796 -0.45400
O 	O 	0.57980 0.79319 0.40598 -0.47800
O 	O 	0.56200 0.93384 0.53328 -0.61800
O 	O 	0.88710 0.59796 0.60312 -0.50100
O 	O 	0.85340 0.58923 0.45706 -0.54100
O 	O 	0.94500 0.57354 0.77808 -0.42600
O 	O 	0.03090 0.69892 0.78204 -0.45500
O 	O 	0.92020 0.38721 0.59402 -0.47700
O 	O 	0.93800 0.40056 0.46672 -0.61700
O 	O 	0.61290 0.99484 0.39688 -0.50200
O 	O 	0.64660 0.13217 0.54294 -0.54100
O 	O 	0.44500 0.20454 0.77808 -0.42500
O 	O 	0.53090 0.08312 0.78204 -0.45400
O 	O 	0.42020 0.20681 0.59402 -0.47800
O 	O 	0.43800 0.06616 0.46672 -0.61800
O 	O 	0.11290 0.40204 0.39688 -0.50100
O 	O 	0.14660 0.41077 0.54294 -0.54100
O 	O 	0.05500 0.42646 0.22192 -0.42600
O 	O 	0.96910 0.30108 0.21796 -0.45500
O 	O 	0.07980 0.61279 0.40598 -0.47700
O 	O 	0.06200 0.59944 0.53328 -0.61700
O 	O 	0.38710 0.00516 0.60312 -0.50200
O 	O 	0.35340 0.86783 0.45706 -0.54100
