data_crystal

_cell_length_a 12.30020
_cell_length_b 14.52320
_cell_length_c 15.98600
_cell_angle_alpha 117.01700
_cell_angle_beta  104.89000
_cell_angle_gamma 90.00000

_symmetry_space_group_name_	'P 1'
_symmetry_space_group_name_H-M	'P 1'

loop_
_symmetry_equiv_pos_as_xyz
  x,y,z

loop_
_atom_site_label
_atom_site_type_symbol
_atom_site_fract_x
_atom_site_fract_y
_atom_site_fract_z
_atom_site_charge
Nd	Nd	0.92960 0.89556 0.35592 2.02100
Nd	Nd	0.57040 0.53964 0.64408 2.03700
Nd	Nd	0.07040 0.10444 0.64408 2.02100
Nd	Nd	0.42960 0.46036 0.35592 2.03700
H 	H 	0.03770 0.96370 0.10960 0.03200
H 	H 	0.09640 0.92960 0.97160 0.08100
H 	H 	0.12050 0.63330 0.92260 0.06800
H 	H 	0.06280 0.67060 0.06080 0.01900
H 	H 	0.07110 0.87690 0.68260 0.03900
H 	H 	0.26830 0.66800 0.71540 0.05500
H 	H 	0.17200 0.66870 0.45620 0.01700
H 	H 	0.11200 0.67600 0.79600 0.03500
H 	H 	0.46230 0.85410 0.89040 0.02800
H 	H 	0.40360 0.95800 0.02840 0.08100
H 	H 	0.37950 0.71070 0.07740 0.07000
H 	H 	0.43720 0.60980 0.93920 0.01700
H 	H 	0.42890 0.19430 0.31740 0.03700
H 	H 	0.23170 0.95260 0.28460 0.05900
H 	H 	0.32800 0.21250 0.54380 0.01700
H 	H 	0.38800 0.88000 0.20400 0.03600
H 	H 	0.96230 0.03630 0.89040 0.03100
H 	H 	0.90360 0.07040 0.02840 0.08000
H 	H 	0.87950 0.36670 0.07740 0.06800
H 	H 	0.93720 0.32940 0.93920 0.01900
H 	H 	0.92890 0.12310 0.31740 0.03900
H 	H 	0.73170 0.33200 0.28460 0.05500
H 	H 	0.82800 0.33130 0.54380 0.01700
H 	H 	0.88800 0.32400 0.20400 0.03500
H 	H 	0.53770 0.14590 0.10960 0.02800
H 	H 	0.59640 0.04200 0.97160 0.08100
H 	H 	0.62050 0.28930 0.92260 0.07000
H 	H 	0.56280 0.39020 0.06080 0.01700
H 	H 	0.57110 0.80570 0.68260 0.03700
H 	H 	0.76830 0.04740 0.71540 0.05900
H 	H 	0.67200 0.78750 0.45620 0.01700
H 	H 	0.61200 0.12000 0.79600 0.03600
C 	C 	0.00160 0.84480 0.18440 0.32300
C 	C 	0.04540 0.81960 0.09840 -0.11000
C 	C 	0.05430 0.89760 0.07180 0.03300
C 	C 	0.08820 0.87700 0.98840 -0.12000
C 	C 	0.10910 0.77750 0.93160 0.07300
C 	C 	0.10270 0.69930 0.95940 -0.13200
C 	C 	0.06910 0.72230 0.04260 0.03700
C 	C 	0.13570 0.74720 0.83800 -0.02000
C 	C 	0.05040 0.82460 0.49620 0.40400
C 	C 	0.11230 0.77980 0.55920 -0.13400
C 	C 	0.10910 0.82000 0.65600 -0.03200
C 	C 	0.16320 0.77420 0.71240 0.04900
C 	C 	0.22820 0.69510 0.67580 -0.02700
C 	C 	0.23310 0.65630 0.57940 -0.13300
C 	C 	0.17250 0.69710 0.52140 0.06000
C 	C 	0.30560 0.57210 0.53940 0.45200
C 	C 	0.49840 0.66040 0.81560 0.31200
C 	C 	0.45460 0.72120 0.90160 -0.11300
C 	C 	0.44570 0.82580 0.92820 0.04100
C 	C 	0.41180 0.88860 0.01160 -0.13000
C 	C 	0.39090 0.84590 0.06840 0.07700
C 	C 	0.39730 0.73990 0.04060 -0.14000
C 	C 	0.43090 0.67970 0.95740 0.04400
C 	C 	0.36430 0.90920 0.16200 -0.02200
C 	C 	0.44960 0.32840 0.50380 0.40500
C 	C 	0.38770 0.22060 0.44080 -0.13400
C 	C 	0.39090 0.16400 0.34400 -0.03300
C 	C 	0.33680 0.06180 0.28760 0.05100
C 	C 	0.27180 0.01930 0.32420 -0.03600
C 	C 	0.26690 0.07690 0.42060 -0.12800
C 	C 	0.32750 0.17570 0.47860 0.05700
C 	C 	0.19440 0.03270 0.46060 0.44300
C 	C 	0.99840 0.15520 0.81560 0.32300
C 	C 	0.95460 0.18040 0.90160 -0.11000
C 	C 	0.94570 0.10240 0.92820 0.03300
C 	C 	0.91180 0.12300 0.01160 -0.12000
C 	C 	0.89090 0.22250 0.06840 0.07300
C 	C 	0.89730 0.30070 0.04060 -0.13200
C 	C 	0.93090 0.27770 0.95740 0.03700
C 	C 	0.86430 0.25280 0.16200 -0.02000
C 	C 	0.94960 0.17540 0.50380 0.40400
C 	C 	0.88770 0.22020 0.44080 -0.13400
C 	C 	0.89090 0.18000 0.34400 -0.03200
C 	C 	0.83680 0.22580 0.28760 0.04900
C 	C 	0.77180 0.30490 0.32420 -0.02700
C 	C 	0.76690 0.34370 0.42060 -0.13300
C 	C 	0.82750 0.30290 0.47860 0.06000
C 	C 	0.69440 0.42790 0.46060 0.45200
C 	C 	0.50160 0.33960 0.18440 0.31200
C 	C 	0.54540 0.27880 0.09840 -0.11300
C 	C 	0.55430 0.17420 0.07180 0.04100
C 	C 	0.58820 0.11140 0.98840 -0.13000
C 	C 	0.60910 0.15410 0.93160 0.07700
C 	C 	0.60270 0.26010 0.95940 -0.14000
C 	C 	0.56910 0.32030 0.04260 0.04400
C 	C 	0.63570 0.09080 0.83800 -0.02200
C 	C 	0.55040 0.67160 0.49620 0.40500
C 	C 	0.61230 0.77940 0.55920 -0.13400
C 	C 	0.60910 0.83600 0.65600 -0.03300
C 	C 	0.66320 0.93820 0.71240 0.05100
C 	C 	0.72820 0.98070 0.67580 -0.03600
C 	C 	0.73310 0.92310 0.57940 -0.12800
C 	C 	0.67250 0.82430 0.52140 0.05700
C 	C 	0.80560 0.96730 0.53940 0.44300
N 	N 	0.14900 0.81330 0.80800 -0.11300
N 	N 	0.35100 0.00530 0.19200 -0.11400
N 	N 	0.85100 0.18670 0.19200 -0.11300
N 	N 	0.64900 0.99470 0.80800 -0.11400
O 	O 	0.99660 0.77370 0.21100 -0.42900
O 	O 	0.96620 0.93040 0.22600 -0.45800
O 	O 	0.01760 0.76710 0.40400 -0.46300
O 	O 	0.03010 0.91820 0.53600 -0.59400
O 	O 	0.29770 0.53390 0.44880 -0.54300
O 	O 	0.36710 0.54480 0.59780 -0.48900
O 	O 	0.50340 0.56270 0.78900 -0.42400
O 	O 	0.53380 0.70440 0.77400 -0.45000
O 	O 	0.48240 0.36310 0.59600 -0.46700
O 	O 	0.46990 0.38220 0.46400 -0.60100
O 	O 	0.20230 0.08510 0.55120 -0.54000
O 	O 	0.13290 0.94700 0.40220 -0.48000
O 	O 	0.00340 0.22630 0.78900 -0.42900
O 	O 	0.03380 0.06960 0.77400 -0.45800
O 	O 	0.98240 0.23290 0.59600 -0.46300
O 	O 	0.96990 0.08180 0.46400 -0.59400
O 	O 	0.70230 0.46610 0.55120 -0.54300
O 	O 	0.63290 0.45520 0.40220 -0.48900
O 	O 	0.49660 0.43730 0.21100 -0.42400
O 	O 	0.46620 0.29560 0.22600 -0.45000
O 	O 	0.51760 0.63690 0.40400 -0.46700
O 	O 	0.53010 0.61780 0.53600 -0.60100
O 	O 	0.79770 0.91490 0.44880 -0.54000
O 	O 	0.86710 0.05300 0.59780 -0.48000
