data_crystal

_cell_length_a 12.62840
_cell_length_b 14.82650
_cell_length_c 16.13420
_cell_angle_alpha 117.35300
_cell_angle_beta  101.84100
_cell_angle_gamma 90.00000

_symmetry_space_group_name_	'P 1'
_symmetry_space_group_name_H-M	'P 1'

loop_
_symmetry_equiv_pos_as_xyz
  x,y,z

loop_
_atom_site_label
_atom_site_type_symbol
_atom_site_fract_x
_atom_site_fract_y
_atom_site_fract_z
_atom_site_charge
Nd	Nd	0.44282 0.96487 0.35980 2.02800
Nd	Nd	0.05718 0.60506 0.64018 2.02600
Nd	Nd	0.55718 0.03513 0.64020 2.02800
Nd	Nd	0.94282 0.39493 0.35981 2.02600
H 	H 	0.57730 0.87640 0.06240 0.02000
H 	H 	0.62490 0.77000 0.92060 0.06800
H 	H 	0.59850 0.53370 0.97540 0.08000
H 	H 	0.54520 0.64080 0.11560 0.02900
H 	H 	0.57510 0.29920 0.68320 0.04100
H 	H 	0.77010 0.53150 0.71420 0.05200
H 	H 	0.68860 0.27900 0.46020 0.01500
H 	H 	0.63900 0.60500 0.80200 0.04200
H 	H 	0.92270 0.81400 0.93760 0.01700
H 	H 	0.87510 0.84940 0.07940 0.07100
H 	H 	0.90150 0.55830 0.02460 0.08300
H 	H 	0.95480 0.52520 0.88440 0.02600
H 	H 	0.92490 0.61600 0.31680 0.04100
H 	H 	0.72990 0.81730 0.28580 0.05300
H 	H 	0.81140 0.81880 0.53980 0.01600
H 	H 	0.86100 0.80300 0.19800 0.04300
H 	H 	0.42270 0.12360 0.93760 0.01900
H 	H 	0.37510 0.23000 0.07940 0.06800
H 	H 	0.40150 0.46630 0.02460 0.08000
H 	H 	0.45480 0.35920 0.88440 0.02900
H 	H 	0.42490 0.70080 0.31680 0.04100
H 	H 	0.22990 0.46850 0.28580 0.05200
H 	H 	0.31140 0.72100 0.53980 0.01500
H 	H 	0.36100 0.39500 0.19800 0.04200
H 	H 	0.07730 0.18600 0.06240 0.01700
H 	H 	0.12490 0.15060 0.92060 0.07100
H 	H 	0.09850 0.44170 0.97540 0.08300
H 	H 	0.04520 0.47480 0.11560 0.02600
H 	H 	0.07510 0.38400 0.68320 0.04100
H 	H 	0.27010 0.18270 0.71420 0.05300
H 	H 	0.18860 0.18120 0.46020 0.01600
H 	H 	0.13900 0.19700 0.80200 0.04300
C 	C 	0.51060 0.83490 0.18880 0.32300
C 	C 	0.55250 0.76800 0.10100 -0.10900
C 	C 	0.57920 0.80710 0.04380 0.03700
C 	C 	0.60890 0.74360 0.95940 -0.13400
C 	C 	0.61480 0.64070 0.93220 0.07800
C 	C 	0.59240 0.60210 0.99180 -0.12500
C 	C 	0.56070 0.66640 0.07600 0.03800
C 	C 	0.64110 0.57490 0.83940 -0.02900
C 	C 	0.56440 0.16600 0.49840 0.41300
C 	C 	0.62450 0.27210 0.56180 -0.13300
C 	C 	0.61600 0.32780 0.65760 -0.03400
C 	C 	0.66940 0.42640 0.71380 0.04700
C 	C 	0.73300 0.46650 0.67600 -0.02300
C 	C 	0.74260 0.41140 0.58160 -0.14100
C 	C 	0.68560 0.31500 0.52440 0.06200
C 	C 	0.81160 0.45570 0.54160 0.45500
C 	C 	0.98940 0.64610 0.81120 0.32600
C 	C 	0.94750 0.66700 0.89900 -0.11400
C 	C 	0.92080 0.76330 0.95620 0.04600
C 	C 	0.89110 0.78420 0.04060 -0.14300
C 	C 	0.88520 0.70850 0.06780 0.08400
C 	C 	0.90760 0.61030 0.00820 -0.13200
C 	C 	0.93930 0.59040 0.92400 0.04500
C 	C 	0.85890 0.73550 0.16060 -0.03200
C 	C 	0.93560 0.66760 0.50160 0.41300
C 	C 	0.87550 0.71030 0.43820 -0.13200
C 	C 	0.88400 0.67020 0.34240 -0.03400
C 	C 	0.83060 0.71260 0.28620 0.04800
C 	C 	0.76700 0.79050 0.32400 -0.02300
C 	C 	0.75740 0.82980 0.41840 -0.14000
C 	C 	0.81440 0.79060 0.47560 0.06100
C 	C 	0.68840 0.91410 0.45840 0.45500
C 	C 	0.48940 0.16510 0.81120 0.32300
C 	C 	0.44750 0.23200 0.89900 -0.10900
C 	C 	0.42080 0.19290 0.95620 0.03700
C 	C 	0.39110 0.25640 0.04060 -0.13400
C 	C 	0.38520 0.35930 0.06780 0.07800
C 	C 	0.40760 0.39790 0.00820 -0.12500
C 	C 	0.43930 0.33360 0.92400 0.03800
C 	C 	0.35890 0.42510 0.16060 -0.02900
C 	C 	0.43560 0.83400 0.50160 0.41300
C 	C 	0.37550 0.72790 0.43820 -0.13300
C 	C 	0.38400 0.67220 0.34240 -0.03400
C 	C 	0.33060 0.57360 0.28620 0.04700
C 	C 	0.26700 0.53350 0.32400 -0.02300
C 	C 	0.25740 0.58860 0.41840 -0.14100
C 	C 	0.31440 0.68500 0.47560 0.06200
C 	C 	0.18840 0.54430 0.45840 0.45500
C 	C 	0.01060 0.35390 0.18880 0.32600
C 	C 	0.05250 0.33300 0.10100 -0.11400
C 	C 	0.07920 0.23670 0.04380 0.04600
C 	C 	0.10890 0.21580 0.95940 -0.14300
C 	C 	0.11480 0.29150 0.93220 0.08400
C 	C 	0.09240 0.38970 0.99180 -0.13200
C 	C 	0.06070 0.40960 0.07600 0.04500
C 	C 	0.14110 0.26450 0.83940 -0.03200
C 	C 	0.06440 0.33240 0.49840 0.41300
C 	C 	0.12450 0.28970 0.56180 -0.13200
C 	C 	0.11600 0.32980 0.65760 -0.03400
C 	C 	0.16940 0.28740 0.71380 0.04800
C 	C 	0.23300 0.20950 0.67600 -0.02300
C 	C 	0.24260 0.17020 0.58160 -0.14000
C 	C 	0.18560 0.20940 0.52440 0.06200
C 	C 	0.31160 0.08590 0.54160 0.45500
N 	N 	0.65230 0.48066 0.80832 -0.11100
N 	N 	0.84770 0.67234 0.19168 -0.11000
N 	N 	0.34770 0.51934 0.19168 -0.11100
N 	N 	0.15230 0.32766 0.80832 -0.11000
O 	O 	0.47220 0.79512 0.23124 -0.44800
O 	O 	0.51500 0.92930 0.21460 -0.44000
O 	O 	0.54140 0.13224 0.40908 -0.47500
O 	O 	0.53870 0.11491 0.53742 -0.60100
O 	O 	0.81250 0.40359 0.45298 -0.53900
O 	O 	0.86610 0.54049 0.59738 -0.48900
O 	O 	0.02780 0.56388 0.76876 -0.45000
O 	O 	0.98500 0.71470 0.78540 -0.44000
O 	O 	0.95860 0.72316 0.59092 -0.47400
O 	O 	0.96130 0.57749 0.46258 -0.60000
O 	O 	0.68750 0.95061 0.54702 -0.53800
O 	O 	0.63390 0.94311 0.40262 -0.48900
O 	O 	0.52780 0.20488 0.76876 -0.44800
O 	O 	0.48500 0.07070 0.78540 -0.44000
O 	O 	0.45860 0.86776 0.59092 -0.47500
O 	O 	0.46130 0.88509 0.46258 -0.60100
O 	O 	0.18750 0.59641 0.54702 -0.53900
O 	O 	0.13390 0.45951 0.40262 -0.48900
O 	O 	0.97220 0.43612 0.23124 -0.45000
O 	O 	0.01500 0.28530 0.21460 -0.44000
O 	O 	0.04140 0.27684 0.40908 -0.47400
O 	O 	0.03870 0.42251 0.53742 -0.60000
O 	O 	0.31250 0.04939 0.45298 -0.53800
O 	O 	0.36610 0.05689 0.59738 -0.48900
