data_crystal

_cell_length_a 13.24740
_cell_length_b 14.37690
_cell_length_c 16.10880
_cell_angle_alpha 116.50300
_cell_angle_beta  99.49480
_cell_angle_gamma 90.00000

_symmetry_space_group_name_	'P 1'
_symmetry_space_group_name_H-M	'P 1'

loop_
_symmetry_equiv_pos_as_xyz
  x,y,z

loop_
_atom_site_label
_atom_site_type_symbol
_atom_site_fract_x
_atom_site_fract_y
_atom_site_fract_z
_atom_site_charge
Nd	Nd	0.45332 0.46871 0.36288 2.04800
Nd	Nd	0.04668 0.10583 0.63712 2.02000
Nd	Nd	0.54668 0.53129 0.63712 2.04800
Nd	Nd	0.95332 0.89417 0.36288 2.02000
H 	H 	0.58590 0.38330 0.06600 0.01500
H 	H 	0.63380 0.27820 0.92460 0.07100
H 	H 	0.60640 0.03160 0.97540 0.08400
H 	H 	0.55190 0.13520 0.11360 0.02400
H 	H 	0.65900 0.11800 0.81200 0.04200
H 	H 	0.57500 0.80000 0.68160 0.03800
H 	H 	0.77480 0.02800 0.71360 0.06100
H 	H 	0.69520 0.78080 0.46200 0.01500
H 	H 	0.91410 0.31730 0.93400 0.01300
H 	H 	0.86620 0.35360 0.07540 0.07300
H 	H 	0.89360 0.05620 0.02460 0.08700
H 	H 	0.94810 0.02160 0.88640 0.02400
H 	H 	0.84100 0.30600 0.18800 0.04300
H 	H 	0.92500 0.11840 0.31840 0.04000
H 	H 	0.72520 0.31440 0.28640 0.05300
H 	H 	0.80480 0.31880 0.53800 0.01400
H 	H 	0.41410 0.61670 0.93400 0.01500
H 	H 	0.36620 0.72180 0.07540 0.07100
H 	H 	0.39360 0.96840 0.02460 0.08400
H 	H 	0.44810 0.86480 0.88640 0.02400
H 	H 	0.34100 0.88200 0.18800 0.04200
H 	H 	0.42500 0.20000 0.31840 0.03800
H 	H 	0.22520 0.97200 0.28640 0.06100
H 	H 	0.30480 0.21920 0.53800 0.01500
H 	H 	0.08590 0.68270 0.06600 0.01300
H 	H 	0.13380 0.64640 0.92460 0.07300
H 	H 	0.10640 0.94380 0.97540 0.08700
H 	H 	0.05190 0.97840 0.11360 0.02400
H 	H 	0.15900 0.69400 0.81200 0.04300
H 	H 	0.07500 0.88160 0.68160 0.04000
H 	H 	0.27480 0.68560 0.71360 0.05300
H 	H 	0.19520 0.68120 0.46200 0.01400
C 	C 	0.52070 0.33680 0.19180 0.32800
C 	C 	0.56110 0.27020 0.10420 -0.12000
C 	C 	0.58800 0.31210 0.04700 0.04900
C 	C 	0.61760 0.24940 0.96280 -0.14400
C 	C 	0.62360 0.14390 0.93420 0.08600
C 	C 	0.60030 0.10210 0.99280 -0.13700
C 	C 	0.56860 0.16420 0.07580 0.05200
C 	C 	0.64890 0.07910 0.84180 -0.02800
C 	C 	0.56650 0.67010 0.50040 0.41800
C 	C 	0.62520 0.77430 0.56180 -0.13900
C 	C 	0.61590 0.82900 0.65600 -0.03100
C 	C 	0.66800 0.92740 0.71220 0.05000
C 	C 	0.73580 0.96510 0.67540 -0.03700
C 	C 	0.74620 0.90970 0.58180 -0.13200
C 	C 	0.69000 0.81640 0.52540 0.06200
C 	C 	0.82010 0.95340 0.54240 0.45800
C 	C 	0.97930 0.14500 0.80820 0.34300
C 	C 	0.93890 0.16600 0.89580 -0.12600
C 	C 	0.91200 0.26510 0.95300 0.05700
C 	C 	0.88240 0.28660 0.03720 -0.15100
C 	C 	0.87640 0.20970 0.06580 0.09200
C 	C 	0.89970 0.10930 0.00720 -0.14200
C 	C 	0.93140 0.08840 0.92420 0.05900
C 	C 	0.85110 0.23730 0.15820 -0.03300
C 	C 	0.93350 0.16970 0.49960 0.41700
C 	C 	0.87480 0.21250 0.43820 -0.13900
C 	C 	0.88410 0.17300 0.34400 -0.02800
C 	C 	0.83200 0.21520 0.28780 0.04600
C 	C 	0.76420 0.28970 0.32460 -0.02300
C 	C 	0.75380 0.32790 0.41820 -0.14100
C 	C 	0.81000 0.29100 0.47460 0.06700
C 	C 	0.67990 0.41100 0.45760 0.47200
C 	C 	0.47930 0.66320 0.80820 0.32800
C 	C 	0.43890 0.72980 0.89580 -0.12000
C 	C 	0.41200 0.68790 0.95300 0.04900
C 	C 	0.38240 0.75060 0.03720 -0.14400
C 	C 	0.37640 0.85610 0.06580 0.08600
C 	C 	0.39970 0.89790 0.00720 -0.13700
C 	C 	0.43140 0.83580 0.92420 0.05200
C 	C 	0.35110 0.92090 0.15820 -0.02800
C 	C 	0.43350 0.32990 0.49960 0.41800
C 	C 	0.37480 0.22570 0.43820 -0.13900
C 	C 	0.38410 0.17100 0.34400 -0.03100
C 	C 	0.33200 0.07260 0.28780 0.05000
C 	C 	0.26420 0.03490 0.32460 -0.03700
C 	C 	0.25380 0.09030 0.41820 -0.13200
C 	C 	0.31000 0.18360 0.47460 0.06200
C 	C 	0.17990 0.04660 0.45760 0.45800
C 	C 	0.02070 0.85500 0.19180 0.34300
C 	C 	0.06110 0.83400 0.10420 -0.12600
C 	C 	0.08800 0.73490 0.04700 0.05700
C 	C 	0.11760 0.71340 0.96280 -0.15100
C 	C 	0.12360 0.79030 0.93420 0.09200
C 	C 	0.10030 0.89070 0.99280 -0.14200
C 	C 	0.06860 0.91160 0.07580 0.05900
C 	C 	0.14890 0.76270 0.84180 -0.03300
C 	C 	0.06650 0.83030 0.50040 0.41700
C 	C 	0.12520 0.78750 0.56180 -0.13900
C 	C 	0.11590 0.82700 0.65600 -0.02800
C 	C 	0.16800 0.78480 0.71220 0.04600
C 	C 	0.23580 0.71030 0.67540 -0.02300
C 	C 	0.24620 0.67210 0.58180 -0.14100
C 	C 	0.19000 0.70900 0.52540 0.06700
C 	C 	0.32010 0.58900 0.54240 0.47200
N 	N 	0.65000 0.98096 0.80592 -0.11400
N 	N 	0.85000 0.17504 0.19408 -0.11000
N 	N 	0.35000 0.01904 0.19408 -0.11400
N 	N 	0.15000 0.82496 0.80592 -0.11000
O 	O 	0.48860 0.29594 0.23728 -0.44800
O 	O 	0.52130 0.43415 0.21710 -0.44900
O 	O 	0.54570 0.63968 0.41176 -0.47300
O 	O 	0.53810 0.61586 0.53672 -0.61200
O 	O 	0.86860 0.03938 0.59716 -0.49100
O 	O 	0.82690 0.89895 0.45750 -0.54400
O 	O 	0.01140 0.05866 0.76272 -0.46000
O 	O 	0.97870 0.21705 0.78290 -0.44800
O 	O 	0.95430 0.22792 0.58824 -0.46800
O 	O 	0.96190 0.07914 0.46328 -0.60200
O 	O 	0.63140 0.44222 0.40284 -0.50300
O 	O 	0.67310 0.44145 0.54250 -0.54800
O 	O 	0.51140 0.70406 0.76272 -0.44800
O 	O 	0.47870 0.56585 0.78290 -0.44900
O 	O 	0.45430 0.36032 0.58824 -0.47300
O 	O 	0.46190 0.38414 0.46328 -0.61200
O 	O 	0.13140 0.96062 0.40284 -0.49100
O 	O 	0.17310 0.10105 0.54250 -0.54400
O 	O 	0.98860 0.94134 0.23728 -0.46000
O 	O 	0.02130 0.78295 0.21710 -0.44800
O 	O 	0.04570 0.77208 0.41176 -0.46800
O 	O 	0.03810 0.92086 0.53672 -0.60200
O 	O 	0.36860 0.55778 0.59716 -0.50300
O 	O 	0.32690 0.55855 0.45750 -0.54800
