data_crystal

_cell_length_a 13.68240
_cell_length_b 15.00120
_cell_length_c 15.64900
_cell_angle_alpha 95.75100
_cell_angle_beta  113.16300
_cell_angle_gamma 90.49300

_symmetry_space_group_name_	'P 1'
_symmetry_space_group_name_H-M	'P 1'

loop_
_symmetry_equiv_pos_as_xyz
  x,y,z

loop_
_atom_site_label
_atom_site_type_symbol
_atom_site_fract_x
_atom_site_fract_y
_atom_site_fract_z
_atom_site_charge
Nd	Nd	0.50699 0.52027 0.13396 2.12500
Nd	Nd	0.88967 0.96851 0.86894 2.07500
Nd	Nd	0.49301 0.47973 0.86604 2.12500
Nd	Nd	0.11033 0.03149 0.13106 2.07500
H 	H 	0.86900 0.46100 0.38380 0.02900
H 	H 	0.98040 0.40370 0.51670 0.07900
H 	H 	0.72930 0.29660 0.54740 0.07300
H 	H 	0.61800 0.35530 0.41500 0.02600
H 	H 	0.21320 0.39240 0.79760 0.04600
H 	H 	0.23320 0.26980 0.02150 0.02500
H 	H 	0.98620 0.20900 0.77510 0.06000
H 	H 	0.72960 0.06330 0.54630 0.02100
H 	H 	0.72670 0.11510 0.41180 0.08400
H 	H 	0.04550 0.11970 0.51620 0.07000
H 	H 	0.04630 0.06400 0.64870 0.01500
H 	H 	0.68610 0.29120 0.20740 0.05500
H 	H 	0.72240 0.23620 0.96570 0.02600
H 	H 	0.88320 0.10340 0.18590 0.04800
H 	H 	0.31540 0.66410 0.15870 -0.03900
H 	H 	0.17420 0.69130 0.19900 0.10600
H 	H 	0.11560 0.55820 0.24220 0.00700
H 	H 	0.21060 0.43190 0.27730 0.08200
H 	H 	0.36430 0.43850 0.24430 -0.00900
H 	H 	0.62310 0.02880 0.78410 -0.00500
H 	H 	0.44630 0.98290 0.74390 0.08300
H 	H 	0.40330 0.83250 0.74350 0.00600
H 	H 	0.53710 0.73520 0.79080 0.09900
H 	H 	0.70910 0.78420 0.83040 -0.03100
H 	H 	0.88900 0.26800 0.65700 0.03100
H 	H 	0.94000 0.16100 0.34700 0.04300
H 	H 	0.13100 0.53900 0.61620 0.02800
H 	H 	0.01960 0.59630 0.48330 0.07800
H 	H 	0.27070 0.70340 0.45260 0.07200
H 	H 	0.38200 0.64470 0.58500 0.02500
H 	H 	0.78680 0.60760 0.20240 0.04500
H 	H 	0.76680 0.73020 0.97850 0.02400
H 	H 	0.01380 0.79100 0.22490 0.05900
H 	H 	0.27040 0.93670 0.45370 0.02000
H 	H 	0.27330 0.88490 0.58820 0.08400
H 	H 	0.95450 0.88030 0.48380 0.07000
H 	H 	0.95370 0.93600 0.35130 0.01500
H 	H 	0.31390 0.70880 0.79260 0.05500
H 	H 	0.27760 0.76380 0.03430 0.02600
H 	H 	0.11680 0.89660 0.81410 0.04800
H 	H 	0.68460 0.33590 0.84130 -0.03900
H 	H 	0.82580 0.30870 0.80100 0.10600
H 	H 	0.88440 0.44180 0.75780 0.00700
H 	H 	0.78940 0.56810 0.72270 0.08200
H 	H 	0.63570 0.56150 0.75570 -0.00900
H 	H 	0.37690 0.97120 0.21590 -0.00500
H 	H 	0.55370 0.01710 0.25610 0.08300
H 	H 	0.59670 0.16750 0.25650 0.00600
H 	H 	0.46290 0.26480 0.20920 0.09900
H 	H 	0.29090 0.21580 0.16960 -0.03100
H 	H 	0.11100 0.73200 0.34300 0.03100
H 	H 	0.06000 0.83900 0.65300 0.04300
C 	C 	0.65720 0.45900 0.30380 0.31600
C 	C 	0.73100 0.41690 0.38640 -0.10600
C 	C 	0.84030 0.42910 0.41710 0.03800
C 	C 	0.90720 0.39420 0.49680 -0.12200
C 	C 	0.86750 0.34550 0.54780 0.07100
C 	C 	0.75790 0.33060 0.51540 -0.12400
C 	C 	0.69120 0.36590 0.43590 0.04000
C 	C 	0.93470 0.31230 0.63660 0.00100
C 	C 	0.08830 0.30680 0.77250 0.05400
C 	C 	0.18420 0.35290 0.82470 -0.03100
C 	C 	0.23790 0.33970 0.91940 -0.13600
C 	C 	0.19770 0.27770 0.95870 0.05800
C 	C 	0.10400 0.22700 0.90410 -0.12700
C 	C 	0.04920 0.24210 0.81150 -0.03900
C 	C 	0.33410 0.39700 0.98200 0.42600
C 	C 	0.06260 0.15570 0.94430 0.44900
C 	C 	0.88920 0.01790 0.69670 0.34100
C 	C 	0.88840 0.05730 0.61180 -0.12300
C 	C 	0.79340 0.07370 0.54000 0.05000
C 	C 	0.79140 0.10510 0.45930 -0.13700
C 	C 	0.88610 0.12170 0.44930 0.08700
C 	C 	0.98140 0.10730 0.52140 -0.13000
C 	C 	0.98180 0.07450 0.60130 0.06500
C 	C 	0.88220 0.15110 0.36120 -0.02300
C 	C 	0.78660 0.19350 0.21080 0.05200
C 	C 	0.71750 0.25890 0.17200 -0.02100
C 	C 	0.69420 0.27710 0.08100 -0.13800
C 	C 	0.73850 0.22580 0.02730 0.05200
C 	C 	0.80680 0.15880 0.06560 -0.12500
C 	C 	0.83360 0.14510 0.15880 -0.03900
C 	C 	0.62100 0.35050 0.04270 0.47700
C 	C 	0.84260 0.09710 0.00340 0.40300
C 	C 	0.29680 0.61960 0.18770 0.15600
C 	C 	0.20890 0.63800 0.20510 -0.20400
C 	C 	0.18000 0.55710 0.23520 0.08400
C 	C 	0.23140 0.48050 0.25470 -0.17200
C 	C 	0.32260 0.48820 0.23420 0.10000
C 	C 	0.60580 0.96910 0.78590 0.09600
C 	C 	0.49920 0.94170 0.76080 -0.16300
C 	C 	0.47380 0.85260 0.76140 0.08600
C 	C 	0.55280 0.79520 0.78860 -0.17500
C 	C 	0.65590 0.82500 0.81280 0.10800
C 	C 	0.34280 0.54100 0.69620 0.31600
C 	C 	0.26900 0.58310 0.61360 -0.10600
C 	C 	0.15970 0.57090 0.58290 0.03800
C 	C 	0.09280 0.60580 0.50320 -0.12200
C 	C 	0.13250 0.65450 0.45220 0.07100
C 	C 	0.24210 0.66940 0.48460 -0.12400
C 	C 	0.30880 0.63410 0.56410 0.04000
C 	C 	0.06530 0.68770 0.36340 0.00100
C 	C 	0.91170 0.69320 0.22750 0.05400
C 	C 	0.81580 0.64710 0.17530 -0.03100
C 	C 	0.76210 0.66030 0.08060 -0.13600
C 	C 	0.80230 0.72230 0.04130 0.05800
C 	C 	0.89600 0.77300 0.09590 -0.12700
C 	C 	0.95080 0.75790 0.18850 -0.03900
C 	C 	0.66590 0.60300 0.01800 0.42600
C 	C 	0.93740 0.84430 0.05570 0.44900
C 	C 	0.11080 0.98210 0.30330 0.34100
C 	C 	0.11160 0.94270 0.38820 -0.12300
C 	C 	0.20660 0.92630 0.46000 0.05000
C 	C 	0.20860 0.89490 0.54070 -0.13700
C 	C 	0.11390 0.87830 0.55070 0.08700
C 	C 	0.01860 0.89270 0.47860 -0.13000
C 	C 	0.01820 0.92550 0.39870 0.06500
C 	C 	0.11780 0.84890 0.63880 -0.02300
C 	C 	0.21340 0.80650 0.78920 0.05200
C 	C 	0.28250 0.74110 0.82800 -0.02100
C 	C 	0.30580 0.72290 0.91900 -0.13800
C 	C 	0.26150 0.77420 0.97270 0.05200
C 	C 	0.19320 0.84120 0.93440 -0.12500
C 	C 	0.16640 0.85490 0.84120 -0.03900
C 	C 	0.37900 0.64950 0.95730 0.47700
C 	C 	0.15740 0.90290 0.99660 0.40300
C 	C 	0.70320 0.38040 0.81230 0.15600
C 	C 	0.79110 0.36200 0.79490 -0.20400
C 	C 	0.82000 0.44290 0.76480 0.08400
C 	C 	0.76860 0.51950 0.74530 -0.17200
C 	C 	0.67740 0.51180 0.76580 0.10000
C 	C 	0.39420 0.03090 0.21410 0.09600
C 	C 	0.50080 0.05830 0.23920 -0.16300
C 	C 	0.52620 0.14740 0.23860 0.08600
C 	C 	0.44720 0.20480 0.21140 -0.17500
C 	C 	0.34410 0.17500 0.18720 0.10800
N 	N 	0.03230 0.33220 0.68030 -0.12000
N 	N 	0.79650 0.17280 0.30050 -0.11300
N 	N 	0.35880 0.55600 0.20220 -0.27000
N 	N 	0.68350 0.91160 0.81230 -0.24800
N 	N 	0.96770 0.66780 0.31970 -0.12000
N 	N 	0.20350 0.82720 0.69950 -0.11300
N 	N 	0.64120 0.44400 0.79780 -0.27000
N 	N 	0.31650 0.08840 0.18770 -0.24800
O 	O 	0.55640 0.44400 0.27800 -0.44200
O 	O 	0.69370 0.50650 0.26100 -0.42600
O 	O 	0.35720 0.40630 0.06920 -0.47200
O 	O 	0.38900 0.43870 0.94750 -0.60400
O 	O 	0.97720 0.11410 0.89230 -0.49200
O 	O 	0.11730 0.14250 0.02920 -0.52300
O 	O 	0.57790 0.38560 0.09460 -0.52400
O 	O 	0.60680 0.37180 0.96340 -0.53400
O 	O 	0.97170 0.98630 0.74940 -0.43900
O 	O 	0.80350 0.01840 0.71080 -0.44700
O 	O 	0.78680 0.08660 0.91690 -0.44600
O 	O 	0.92490 0.05250 0.03890 -0.60100
O 	O 	0.44360 0.55600 0.72200 -0.44200
O 	O 	0.30630 0.49350 0.73900 -0.42600
O 	O 	0.64280 0.59370 0.93080 -0.47200
O 	O 	0.61100 0.56130 0.05250 -0.60400
O 	O 	0.02280 0.88590 0.10770 -0.49200
O 	O 	0.88270 0.85750 0.97080 -0.52300
O 	O 	0.42210 0.61440 0.90540 -0.52400
O 	O 	0.39320 0.62820 0.03660 -0.53400
O 	O 	0.02830 0.01370 0.25060 -0.43900
O 	O 	0.19650 0.98160 0.28920 -0.44700
O 	O 	0.21320 0.91340 0.08310 -0.44600
O 	O 	0.07510 0.94750 0.96110 -0.60100
