data_crystal

_cell_length_a 13.16540
_cell_length_b 13.82820
_cell_length_c 16.03130
_cell_angle_alpha 115.54900
_cell_angle_beta  101.11700
_cell_angle_gamma 90.00000

_symmetry_space_group_name_	'P 1'
_symmetry_space_group_name_H-M	'P 1'

loop_
_symmetry_equiv_pos_as_xyz
  x,y,z

loop_
_atom_site_label
_atom_site_type_symbol
_atom_site_fract_x
_atom_site_fract_y
_atom_site_fract_z
_atom_site_charge
Nd	Nd	0.94067 0.47501 0.36375 2.16700
Nd	Nd	0.55933 0.11126 0.63625 2.16700
Nd	Nd	0.05933 0.52499 0.63625 2.16600
Nd	Nd	0.44067 0.88874 0.36375 2.16600
H 	H 	0.03650 0.15110 0.11000 0.01500
H 	H 	0.08560 0.04600 0.96860 0.09800
H 	H 	0.13090 0.30870 0.93140 0.09900
H 	H 	0.07830 0.41190 0.06920 0.01200
H 	H 	0.06960 0.81380 0.68800 0.03800
H 	H 	0.27120 0.05290 0.72200 0.05700
H 	H 	0.19290 0.79130 0.47080 0.03400
H 	H 	0.92280 0.63560 0.23520 0.00100
H 	H 	0.16200 0.13600 0.81400 0.07000
H 	H 	0.63600 0.70500 0.23800 0.13400
H 	H 	0.46350 0.04110 0.89000 0.01700
H 	H 	0.41440 0.07740 0.03140 0.09600
H 	H 	0.36910 0.37730 0.06860 0.09700
H 	H 	0.42170 0.34270 0.93080 0.01400
H 	H 	0.43040 0.12580 0.31200 0.03800
H 	H 	0.22880 0.33090 0.27800 0.05700
H 	H 	0.30710 0.32050 0.52920 0.03400
H 	H 	0.57720 0.40040 0.76480 0.00200
H 	H 	0.33800 0.32200 0.18600 0.06900
H 	H 	0.86400 0.46700 0.76200 0.13400
H 	H 	0.96350 0.84890 0.89000 0.01500
H 	H 	0.91440 0.95400 0.03140 0.09800
H 	H 	0.86910 0.69130 0.06860 0.09900
H 	H 	0.92170 0.58810 0.93080 0.01200
H 	H 	0.93040 0.18620 0.31200 0.03800
H 	H 	0.72880 0.94710 0.27800 0.05700
H 	H 	0.80710 0.20870 0.52920 0.03400
H 	H 	0.07720 0.36440 0.76480 0.00100
H 	H 	0.83800 0.86400 0.18600 0.07000
H 	H 	0.36400 0.29500 0.76200 0.13400
H 	H 	0.53650 0.95890 0.11000 0.01700
H 	H 	0.58560 0.92260 0.96860 0.09600
H 	H 	0.63090 0.62270 0.93140 0.09700
H 	H 	0.57830 0.65730 0.06920 0.01400
H 	H 	0.56960 0.87420 0.68800 0.03800
H 	H 	0.77120 0.66910 0.72200 0.05700
H 	H 	0.69290 0.67950 0.47080 0.03400
H 	H 	0.42280 0.59960 0.23520 0.00200
H 	H 	0.66200 0.67800 0.81400 0.06900
H 	H 	0.13600 0.53300 0.23800 0.13400
C 	C 	0.00660 0.35700 0.18800 0.35200
C 	C 	0.04550 0.29200 0.10080 -0.14500
C 	C 	0.05270 0.18250 0.07260 0.08100
C 	C 	0.08390 0.11980 0.98880 -0.16900
C 	C 	0.11240 0.16700 0.93560 0.12800
C 	C 	0.11040 0.27630 0.96640 -0.17900
C 	C 	0.07810 0.33790 0.04860 0.09000
C 	C 	0.14090 0.10270 0.84360 -0.06200
C 	C 	0.05910 0.68079 0.50418 0.41000
C 	C 	0.12020 0.78646 0.56912 -0.13000
C 	C 	0.11120 0.84370 0.66280 -0.02900
C 	C 	0.16370 0.94490 0.71860 0.05100
C 	C 	0.23340 0.98640 0.68380 -0.02500
C 	C 	0.24550 0.92725 0.59170 -0.12700
C 	C 	0.18700 0.82872 0.53344 0.05500
C 	C 	0.32110 0.96870 0.55200 0.46600
C 	C 	0.72050 0.59630 0.27920 0.19200
C 	C 	0.85530 0.63600 0.24480 0.10700
C 	C 	0.49340 0.16900 0.81200 0.34900
C 	C 	0.45450 0.19120 0.89920 -0.14100
C 	C 	0.44730 0.10990 0.92740 0.07500
C 	C 	0.41610 0.13100 0.01120 -0.16200
C 	C 	0.38760 0.23140 0.06440 0.12300
C 	C 	0.38960 0.30990 0.03360 -0.17200
C 	C 	0.42190 0.28930 0.95140 0.08400
C 	C 	0.35910 0.25910 0.15640 -0.05900
C 	C 	0.44090 0.17661 0.49582 0.41000
C 	C 	0.37980 0.21734 0.43088 -0.13000
C 	C 	0.38880 0.18090 0.33720 -0.02900
C 	C 	0.33630 0.22630 0.28140 0.05100
C 	C 	0.26660 0.30260 0.31620 -0.02500
C 	C 	0.25450 0.33555 0.40830 -0.12600
C 	C 	0.31300 0.29528 0.46656 0.05500
C 	C 	0.17890 0.41670 0.44800 0.46600
C 	C 	0.77950 0.31710 0.72080 0.19200
C 	C 	0.64470 0.39120 0.75520 0.10700
C 	C 	0.99340 0.64300 0.81200 0.35200
C 	C 	0.95450 0.70800 0.89920 -0.14500
C 	C 	0.94730 0.81750 0.92740 0.08100
C 	C 	0.91610 0.88020 0.01120 -0.16900
C 	C 	0.88760 0.83300 0.06440 0.12800
C 	C 	0.88960 0.72370 0.03360 -0.17900
C 	C 	0.92190 0.66210 0.95140 0.09000
C 	C 	0.85910 0.89730 0.15640 -0.06200
C 	C 	0.94090 0.31921 0.49582 0.41000
C 	C 	0.87980 0.21354 0.43088 -0.13000
C 	C 	0.88880 0.15630 0.33720 -0.02900
C 	C 	0.83630 0.05510 0.28140 0.05100
C 	C 	0.76660 0.01360 0.31620 -0.02500
C 	C 	0.75450 0.07275 0.40830 -0.12700
C 	C 	0.81300 0.17128 0.46656 0.05500
C 	C 	0.67890 0.03130 0.44800 0.46600
C 	C 	0.27950 0.40370 0.72080 0.19200
C 	C 	0.14470 0.36400 0.75520 0.10700
C 	C 	0.50660 0.83100 0.18800 0.34900
C 	C 	0.54550 0.80880 0.10080 -0.14100
C 	C 	0.55270 0.89010 0.07260 0.07500
C 	C 	0.58390 0.86900 0.98880 -0.16200
C 	C 	0.61240 0.76860 0.93560 0.12300
C 	C 	0.61040 0.69010 0.96640 -0.17200
C 	C 	0.57810 0.71070 0.04860 0.08400
C 	C 	0.64090 0.74090 0.84360 -0.05900
C 	C 	0.55910 0.82339 0.50418 0.41000
C 	C 	0.62020 0.78266 0.56912 -0.13000
C 	C 	0.61120 0.81910 0.66280 -0.02900
C 	C 	0.66370 0.77370 0.71860 0.05100
C 	C 	0.73340 0.69740 0.68380 -0.02500
C 	C 	0.74550 0.66445 0.59170 -0.12600
C 	C 	0.68700 0.70472 0.53344 0.05500
C 	C 	0.82110 0.58330 0.55200 0.46600
C 	C 	0.22050 0.68290 0.27920 0.19200
C 	C 	0.35530 0.60880 0.24480 0.10700
N 	N 	0.14450 0.00153 0.81146 -0.10300
N 	N 	0.81750 0.56892 0.27664 -0.27100
N 	N 	0.79040 0.70080 0.22880 -0.09900
N 	N 	0.70170 0.67384 0.25208 -0.16400
N 	N 	0.64240 0.54760 0.29800 -0.14000
N 	N 	0.35550 0.19007 0.18854 -0.10300
N 	N 	0.68250 0.29228 0.72336 -0.27100
N 	N 	0.70960 0.47200 0.77120 -0.09900
N 	N 	0.79830 0.42176 0.74792 -0.16400
N 	N 	0.85760 0.24960 0.70200 -0.14000
N 	N 	0.85550 0.99847 0.18854 -0.10300
N 	N 	0.18250 0.43108 0.72336 -0.27100
N 	N 	0.20960 0.29920 0.77120 -0.09900
N 	N 	0.29830 0.32616 0.74792 -0.16400
N 	N 	0.35760 0.45240 0.70200 -0.14000
N 	N 	0.64450 0.80993 0.81146 -0.10300
N 	N 	0.31750 0.70772 0.27664 -0.27100
N 	N 	0.29040 0.52800 0.22880 -0.09900
N 	N 	0.20170 0.57824 0.25208 -0.16400
N 	N 	0.14240 0.75040 0.29800 -0.14000
O 	O 	0.96340 0.30850 0.22520 -0.46300
O 	O 	0.01430 0.45759 0.22238 -0.43500
O 	O 	0.03460 0.65446 0.41672 -0.45500
O 	O 	0.03380 0.61924 0.53868 -0.62000
O 	O 	0.31980 0.91378 0.46456 -0.53800
O 	O 	0.37710 0.05384 0.60728 -0.50400
O 	O 	0.53660 0.08330 0.77480 -0.46300
O 	O 	0.48570 0.23521 0.77762 -0.43400
O 	O 	0.46540 0.23774 0.58328 -0.45500
O 	O 	0.46620 0.08056 0.46132 -0.62000
O 	O 	0.18020 0.44922 0.53544 -0.53800
O 	O 	0.12290 0.44656 0.39272 -0.50400
O 	O 	0.03660 0.69150 0.77480 -0.46300
O 	O 	0.98570 0.54241 0.77762 -0.43500
O 	O 	0.96540 0.34554 0.58328 -0.45500
O 	O 	0.96620 0.38076 0.46132 -0.62000
O 	O 	0.68020 0.08622 0.53544 -0.53800
O 	O 	0.62290 0.94616 0.39272 -0.50400
O 	O 	0.46340 0.91670 0.22520 -0.46300
O 	O 	0.51430 0.76479 0.22238 -0.43400
O 	O 	0.53460 0.76226 0.41672 -0.45500
O 	O 	0.53380 0.91944 0.53868 -0.62000
O 	O 	0.81980 0.55078 0.46456 -0.53800
O 	O 	0.87710 0.55344 0.60728 -0.50400
