data_crystal

_cell_length_a 13.09260
_cell_length_b 14.44880
_cell_length_c 16.27510
_cell_angle_alpha 116.35300
_cell_angle_beta  97.83290
_cell_angle_gamma 90.00000

_symmetry_space_group_name_	'P 1'
_symmetry_space_group_name_H-M	'P 1'

loop_
_symmetry_equiv_pos_as_xyz
  x,y,z

loop_
_atom_site_label
_atom_site_type_symbol
_atom_site_fract_x
_atom_site_fract_y
_atom_site_fract_z
_atom_site_charge
Nd	Nd	0.45587 0.97657 0.36782 2.07700
Nd	Nd	0.04413 0.60875 0.63218 2.07500
Nd	Nd	0.54413 0.02343 0.63218 2.07600
Nd	Nd	0.95587 0.39125 0.36782 2.07400
H 	H 	0.53510 0.64540 0.11380 0.02300
H 	H 	0.58880 0.53480 0.97660 0.08300
H 	H 	0.63970 0.77940 0.92720 0.07100
H 	H 	0.59150 0.88830 0.06840 0.01400
H 	H 	0.57050 0.29950 0.68580 0.03700
H 	H 	0.76860 0.53010 0.71600 0.04600
H 	H 	0.69320 0.28480 0.46840 0.00700
H 	H 	0.66000 0.61200 0.81600 0.04800
H 	H 	0.96490 0.53160 0.88620 0.02100
H 	H 	0.91120 0.55820 0.02340 0.08600
H 	H 	0.86030 0.85220 0.07280 0.07400
H 	H 	0.90850 0.81990 0.93160 0.01200
H 	H 	0.92950 0.61370 0.31420 0.03700
H 	H 	0.73140 0.81410 0.28400 0.04700
H 	H 	0.80680 0.81640 0.53160 0.00800
H 	H 	0.84000 0.79600 0.18400 0.04900
H 	H 	0.46490 0.35460 0.88620 0.02300
H 	H 	0.41120 0.46520 0.02340 0.08300
H 	H 	0.36030 0.22060 0.07280 0.07100
H 	H 	0.40850 0.11170 0.93160 0.01400
H 	H 	0.42950 0.70050 0.31420 0.03700
H 	H 	0.23140 0.46990 0.28400 0.04600
H 	H 	0.30680 0.71520 0.53160 0.00700
H 	H 	0.34000 0.38800 0.18400 0.04800
H 	H 	0.03510 0.46840 0.11380 0.02100
H 	H 	0.08880 0.44180 0.97660 0.08600
H 	H 	0.13970 0.14780 0.92720 0.07400
H 	H 	0.09150 0.18010 0.06840 0.01200
H 	H 	0.07050 0.38630 0.68580 0.03700
H 	H 	0.26860 0.18590 0.71600 0.04700
H 	H 	0.19320 0.18360 0.46840 0.00800
H 	H 	0.16000 0.20400 0.81600 0.04900
C 	C 	0.52250 0.84650 0.19320 0.32900
C 	C 	0.55830 0.77700 0.10540 -0.12600
C 	C 	0.55750 0.67240 0.07660 0.05400
C 	C 	0.58870 0.60550 0.99400 -0.13500
C 	C 	0.62040 0.64620 0.93620 0.08400
C 	C 	0.61990 0.75190 0.96500 -0.14000
C 	C 	0.59010 0.81730 0.04940 0.04800
C 	C 	0.64530 0.57750 0.84380 -0.03500
C 	C 	0.56720 0.17240 0.50600 0.44000
C 	C 	0.62160 0.27920 0.56740 -0.14800
C 	C 	0.61090 0.33020 0.66060 -0.02000
C 	C 	0.66130 0.42810 0.71640 0.03800
C 	C 	0.73070 0.46750 0.67860 -0.00900
C 	C 	0.74250 0.41380 0.58640 -0.16000
C 	C 	0.68670 0.32010 0.53080 0.07900
C 	C 	0.81910 0.45420 0.54800 0.48300
C 	C 	0.97750 0.65330 0.80680 0.33200
C 	C 	0.94170 0.67160 0.89460 -0.13200
C 	C 	0.94250 0.59580 0.92340 0.06200
C 	C 	0.91130 0.61150 0.00600 -0.14200
C 	C 	0.87960 0.71000 0.06380 0.09000
C 	C 	0.88010 0.78690 0.03500 -0.15000
C 	C 	0.90990 0.76790 0.95060 0.05800
C 	C 	0.85470 0.73370 0.15620 -0.03800
C 	C 	0.93280 0.66640 0.49400 0.44000
C 	C 	0.87840 0.71180 0.43260 -0.14800
C 	C 	0.88910 0.66960 0.33940 -0.02000
C 	C 	0.83870 0.71170 0.28360 0.03900
C 	C 	0.76930 0.78890 0.32140 -0.00900
C 	C 	0.75750 0.82740 0.41360 -0.15900
C 	C 	0.81330 0.78930 0.46920 0.07900
C 	C 	0.68090 0.90620 0.45200 0.48400
C 	C 	0.47750 0.15350 0.80680 0.32900
C 	C 	0.44170 0.22300 0.89460 -0.12600
C 	C 	0.44250 0.32760 0.92340 0.05400
C 	C 	0.41130 0.39450 0.00600 -0.13500
C 	C 	0.37960 0.35380 0.06380 0.08400
C 	C 	0.38010 0.24810 0.03500 -0.14000
C 	C 	0.40990 0.18270 0.95060 0.04800
C 	C 	0.35470 0.42250 0.15620 -0.03500
C 	C 	0.43280 0.82760 0.49400 0.44000
C 	C 	0.37840 0.72080 0.43260 -0.14800
C 	C 	0.38910 0.66980 0.33940 -0.02000
C 	C 	0.33870 0.57190 0.28360 0.03800
C 	C 	0.26930 0.53250 0.32140 -0.00900
C 	C 	0.25750 0.58620 0.41360 -0.16000
C 	C 	0.31330 0.67990 0.46920 0.07900
C 	C 	0.18090 0.54580 0.45200 0.48300
C 	C 	0.02250 0.34670 0.19320 0.33200
C 	C 	0.05830 0.32840 0.10540 -0.13200
C 	C 	0.05750 0.40420 0.07660 0.06200
C 	C 	0.08870 0.38850 0.99400 -0.14200
C 	C 	0.12040 0.29000 0.93620 0.09000
C 	C 	0.11990 0.21310 0.96500 -0.15000
C 	C 	0.09010 0.23210 0.04940 0.05800
C 	C 	0.14530 0.26630 0.84380 -0.03800
C 	C 	0.06720 0.33360 0.50600 0.44000
C 	C 	0.12160 0.28820 0.56740 -0.14800
C 	C 	0.11090 0.33040 0.66060 -0.02000
C 	C 	0.16130 0.28830 0.71640 0.03900
C 	C 	0.23070 0.21110 0.67860 -0.00900
C 	C 	0.24250 0.17260 0.58640 -0.15900
C 	C 	0.18670 0.21070 0.53080 0.07900
C 	C 	0.31910 0.09380 0.54800 0.48400
N 	N 	0.64230 0.48304 0.80888 -0.10800
N 	N 	0.85770 0.67416 0.19112 -0.10700
N 	N 	0.35770 0.51696 0.19112 -0.10800
N 	N 	0.14230 0.32584 0.80888 -0.10700
O 	O 	0.47340 0.80844 0.23328 -0.46100
O 	O 	0.53960 0.94434 0.22588 -0.43100
O 	O 	0.54280 0.11558 0.54116 -0.62200
O 	O 	0.54730 0.14552 0.42084 -0.49900
O 	O 	0.82990 0.40132 0.46484 -0.56300
O 	O 	0.86840 0.53985 0.60150 -0.50800
O 	O 	0.02660 0.57516 0.76672 -0.46300
O 	O 	0.96040 0.71846 0.77412 -0.43100
O 	O 	0.95720 0.57442 0.45884 -0.62100
O 	O 	0.95270 0.72468 0.57916 -0.49800
O 	O 	0.67010 0.93648 0.53516 -0.56200
O 	O 	0.63160 0.93835 0.39850 -0.50800
O 	O 	0.52660 0.19156 0.76672 -0.46100
O 	O 	0.46040 0.05566 0.77412 -0.43100
O 	O 	0.45720 0.88442 0.45884 -0.62200
O 	O 	0.45270 0.85448 0.57916 -0.49900
O 	O 	0.17010 0.59868 0.53516 -0.56300
O 	O 	0.13160 0.46015 0.39850 -0.50800
O 	O 	0.97340 0.42484 0.23328 -0.46300
O 	O 	0.03960 0.28154 0.22588 -0.43100
O 	O 	0.04280 0.42558 0.54116 -0.62100
O 	O 	0.04730 0.27532 0.42084 -0.49800
O 	O 	0.32990 0.06352 0.46484 -0.56200
O 	O 	0.36840 0.06165 0.60150 -0.50800
