data_crystal

_cell_length_a 12.82730
_cell_length_b 14.46490
_cell_length_c 16.03300
_cell_angle_alpha 116.81400
_cell_angle_beta  102.16800
_cell_angle_gamma 90.00000

_symmetry_space_group_name_	'P 1'
_symmetry_space_group_name_H-M	'P 1'

loop_
_symmetry_equiv_pos_as_xyz
  x,y,z

loop_
_atom_site_label
_atom_site_type_symbol
_atom_site_fract_x
_atom_site_fract_y
_atom_site_fract_z
_atom_site_charge
Nd	Nd	0.44084 0.46646 0.36057 2.04300
Nd	Nd	0.05916 0.10589 0.63944 2.01500
Nd	Nd	0.55916 0.53354 0.63943 2.04400
Nd	Nd	0.94084 0.89411 0.36057 2.01600
H 	H 	0.54210 0.13990 0.11220 0.03100
H 	H 	0.60160 0.03660 0.97500 0.07700
H 	H 	0.61600 0.28380 0.92060 0.06400
H 	H 	0.57170 0.38840 0.06620 0.02300
H 	H 	0.64700 0.13100 0.80600 0.03000
H 	H 	0.57390 0.80470 0.68400 0.03800
H 	H 	0.77150 0.04050 0.71660 0.06000
H 	H 	0.68810 0.78420 0.46280 0.01300
H 	H 	0.95790 0.02770 0.88780 0.03100
H 	H 	0.89840 0.06160 0.02500 0.08000
H 	H 	0.88400 0.36320 0.07940 0.06500
H 	H 	0.92830 0.32220 0.93380 0.02100
H 	H 	0.85300 0.32500 0.19400 0.03000
H 	H 	0.92610 0.12070 0.31600 0.04000
H 	H 	0.72850 0.32390 0.28340 0.05300
H 	H 	0.81190 0.32140 0.53720 0.01200
H 	H 	0.45790 0.86010 0.88780 0.03100
H 	H 	0.39840 0.96340 0.02500 0.07700
H 	H 	0.38400 0.71620 0.07940 0.06400
H 	H 	0.42830 0.61160 0.93380 0.02300
H 	H 	0.35300 0.86900 0.19400 0.03000
H 	H 	0.42610 0.19530 0.31600 0.03800
H 	H 	0.22850 0.95950 0.28340 0.06000
H 	H 	0.31190 0.21580 0.53720 0.01300
H 	H 	0.04210 0.97230 0.11220 0.03100
H 	H 	0.10160 0.93840 0.97500 0.08000
H 	H 	0.11600 0.63680 0.92060 0.06500
H 	H 	0.07170 0.67780 0.06620 0.02100
H 	H 	0.14700 0.67500 0.80600 0.03000
H 	H 	0.07390 0.87930 0.68400 0.04000
H 	H 	0.27150 0.67610 0.71660 0.05300
H 	H 	0.18810 0.67860 0.46280 0.01200
C 	C 	0.50340 0.33900 0.18760 0.33200
C 	C 	0.54700 0.27320 0.10040 -0.10500
C 	C 	0.55820 0.16850 0.07420 0.03300
C 	C 	0.59300 0.10610 0.99160 -0.11700
C 	C 	0.61530 0.15040 0.93320 0.06400
C 	C 	0.60380 0.25530 0.95980 -0.12500
C 	C 	0.57380 0.31720 0.04560 0.03100
C 	C 	0.64340 0.08850 0.84180 -0.00600
C 	C 	0.56090 0.67260 0.49860 0.42800
C 	C 	0.62120 0.77690 0.56200 -0.15000
C 	C 	0.61330 0.83390 0.65760 -0.02600
C 	C 	0.66580 0.93560 0.71280 0.04900
C 	C 	0.73270 0.97520 0.67760 -0.03700
C 	C 	0.74210 0.91700 0.58320 -0.13200
C 	C 	0.68440 0.82080 0.52680 0.06900
C 	C 	0.81550 0.96160 0.54460 0.44600
C 	C 	0.99660 0.15140 0.81240 0.34700
C 	C 	0.95300 0.17280 0.89960 -0.11000
C 	C 	0.94180 0.09430 0.92580 0.03700
C 	C 	0.90700 0.11450 0.00840 -0.11900
C 	C 	0.88470 0.21720 0.06680 0.06800
C 	C 	0.89620 0.29550 0.04020 -0.13000
C 	C 	0.92620 0.27160 0.95440 0.03700
C 	C 	0.85660 0.24670 0.15820 -0.00900
C 	C 	0.93910 0.17400 0.50140 0.42700
C 	C 	0.87880 0.21490 0.43800 -0.15000
C 	C 	0.88670 0.17630 0.34240 -0.02300
C 	C 	0.83420 0.22280 0.28720 0.04500
C 	C 	0.76730 0.29760 0.32240 -0.02300
C 	C 	0.75790 0.33380 0.41680 -0.14000
C 	C 	0.81560 0.29400 0.47320 0.07400
C 	C 	0.68450 0.41700 0.45540 0.46000
C 	C 	0.49660 0.66100 0.81240 0.33200
C 	C 	0.45300 0.72680 0.89960 -0.10500
C 	C 	0.44180 0.83150 0.92580 0.03300
C 	C 	0.40700 0.89390 0.00840 -0.11700
C 	C 	0.38470 0.84960 0.06680 0.06400
C 	C 	0.39620 0.74470 0.04020 -0.12500
C 	C 	0.42620 0.68280 0.95440 0.03100
C 	C 	0.35660 0.91150 0.15820 -0.00600
C 	C 	0.43910 0.32740 0.50140 0.42800
C 	C 	0.37880 0.22310 0.43800 -0.15000
C 	C 	0.38670 0.16610 0.34240 -0.02600
C 	C 	0.33420 0.06440 0.28720 0.04900
C 	C 	0.26730 0.02480 0.32240 -0.03700
C 	C 	0.25790 0.08300 0.41680 -0.13200
C 	C 	0.31560 0.17920 0.47320 0.06900
C 	C 	0.18450 0.03840 0.45540 0.44600
C 	C 	0.00340 0.84860 0.18760 0.34700
C 	C 	0.04700 0.82720 0.10040 -0.11000
C 	C 	0.05820 0.90570 0.07420 0.03700
C 	C 	0.09300 0.88550 0.99160 -0.11900
C 	C 	0.11530 0.78280 0.93320 0.06800
C 	C 	0.10380 0.70450 0.95980 -0.13000
C 	C 	0.07380 0.72840 0.04560 0.03700
C 	C 	0.14340 0.75330 0.84180 -0.00900
C 	C 	0.06090 0.82600 0.49860 0.42700
C 	C 	0.12120 0.78510 0.56200 -0.15000
C 	C 	0.11330 0.82370 0.65760 -0.02300
C 	C 	0.16580 0.77720 0.71280 0.04500
C 	C 	0.23270 0.70240 0.67760 -0.02300
C 	C 	0.24210 0.66620 0.58320 -0.14000
C 	C 	0.18440 0.70600 0.52680 0.07400
C 	C 	0.31550 0.58300 0.54460 0.46000
N 	N 	0.64780 0.99090 0.80800 -0.11700
N 	N 	0.85220 0.18290 0.19200 -0.11400
N 	N 	0.35220 0.00910 0.19200 -0.11700
N 	N 	0.14780 0.81710 0.80800 -0.11400
O 	O 	0.50120 0.43320 0.21220 -0.45500
O 	O 	0.47200 0.29538 0.23156 -0.44700
O 	O 	0.53510 0.63994 0.41068 -0.48200
O 	O 	0.53610 0.61770 0.53740 -0.60400
O 	O 	0.81510 0.90592 0.45684 -0.54100
O 	O 	0.87120 0.04710 0.60140 -0.48600
O 	O 	0.99880 0.22100 0.78780 -0.45400
O 	O 	0.02800 0.06382 0.76844 -0.45900
O 	O 	0.96490 0.22926 0.58932 -0.47600
O 	O 	0.96390 0.08030 0.46260 -0.59400
O 	O 	0.68490 0.44908 0.54316 -0.54500
O 	O 	0.62880 0.44570 0.39860 -0.49800
O 	O 	0.49880 0.56680 0.78780 -0.45500
O 	O 	0.52800 0.70462 0.76844 -0.44700
O 	O 	0.46490 0.36006 0.58932 -0.48200
O 	O 	0.46390 0.38230 0.46260 -0.60400
O 	O 	0.18490 0.09408 0.54316 -0.54100
O 	O 	0.12880 0.95290 0.39860 -0.48600
O 	O 	0.00120 0.77900 0.21220 -0.45400
O 	O 	0.97200 0.93618 0.23156 -0.45900
O 	O 	0.03510 0.77074 0.41068 -0.47600
O 	O 	0.03610 0.91970 0.53740 -0.59400
O 	O 	0.31510 0.55092 0.45684 -0.54500
O 	O 	0.37120 0.55430 0.60140 -0.49800
