data_crystal

_cell_length_a 13.64500
_cell_length_b 14.27310
_cell_length_c 16.11350
_cell_angle_alpha 116.28900
_cell_angle_beta  99.00590
_cell_angle_gamma 90.00000

_symmetry_space_group_name_	'P 1'
_symmetry_space_group_name_H-M	'P 1'

loop_
_symmetry_equiv_pos_as_xyz
  x,y,z

loop_
_atom_site_label
_atom_site_type_symbol
_atom_site_fract_x
_atom_site_fract_y
_atom_site_fract_z
_atom_site_charge
Nd	Nd	0.04339 0.03041 0.63589 1.99700
Nd	Nd	0.45661 0.39452 0.36411 2.01800
Nd	Nd	0.95661 0.96959 0.36411 1.99700
Nd	Nd	0.54339 0.60548 0.63589 2.01800
H 	H 	0.91730 0.11820 0.93520 0.01100
H 	H 	0.87810 0.22270 0.08020 0.07900
H 	H 	0.90190 0.47100 0.03320 0.08700
H 	H 	0.95030 0.36670 0.89000 0.01900
H 	H 	0.88700 0.38400 0.19800 0.03100
H 	H 	0.92070 0.69800 0.31840 0.03700
H 	H 	0.72460 0.47240 0.28740 0.05400
H 	H 	0.80160 0.72040 0.53940 0.01400
H 	H 	0.58270 0.18300 0.06480 0.01200
H 	H 	0.62190 0.14250 0.91980 0.07700
H 	H 	0.59810 0.43780 0.96680 0.08600
H 	H 	0.54970 0.47670 0.11000 0.02000
H 	H 	0.61300 0.18600 0.80200 0.03100
H 	H 	0.57930 0.37960 0.68160 0.03700
H 	H 	0.77540 0.18500 0.71260 0.05500
H 	H 	0.69840 0.18100 0.46060 0.01500
H 	H 	0.08270 0.88180 0.06480 0.01100
H 	H 	0.12190 0.77730 0.91980 0.07900
H 	H 	0.09810 0.52900 0.96680 0.08700
H 	H 	0.04970 0.63330 0.11000 0.01900
H 	H 	0.11300 0.61600 0.80200 0.03100
H 	H 	0.07930 0.30200 0.68160 0.03700
H 	H 	0.27540 0.52760 0.71260 0.05400
H 	H 	0.19840 0.27960 0.46060 0.01400
H 	H 	0.41730 0.81700 0.93520 0.01200
H 	H 	0.37810 0.85750 0.08020 0.07700
H 	H 	0.40190 0.56220 0.03320 0.08600
H 	H 	0.45030 0.52330 0.89000 0.02000
H 	H 	0.38700 0.81400 0.19800 0.03100
H 	H 	0.42070 0.62040 0.31840 0.03700
H 	H 	0.22460 0.81500 0.28740 0.05500
H 	H 	0.30160 0.81900 0.53940 0.01500
C 	C 	0.97900 0.16490 0.80940 0.34400
C 	C 	0.94240 0.23250 0.89860 -0.13600
C 	C 	0.91650 0.19010 0.95540 0.06900
C 	C 	0.88940 0.25200 0.04100 -0.16400
C 	C 	0.87950 0.35320 0.06740 0.09600
C 	C 	0.90490 0.39920 0.01300 -0.15000
C 	C 	0.93510 0.33660 0.92760 0.06700
C 	C 	0.85480 0.42040 0.16300 -0.01300
C 	C 	0.92930 0.82830 0.50020 0.40600
C 	C 	0.87290 0.72480 0.43980 -0.14000
C 	C 	0.88120 0.66910 0.34460 -0.03000
C 	C 	0.83080 0.57170 0.29020 0.04700
C 	C 	0.76330 0.53460 0.32640 -0.02300
C 	C 	0.75220 0.58920 0.42100 -0.14500
C 	C 	0.80760 0.68350 0.47640 0.06600
C 	C 	0.67880 0.54790 0.45680 0.44700
C 	C 	0.52100 0.35550 0.19060 0.33500
C 	C 	0.55760 0.33390 0.10140 -0.13200
C 	C 	0.58350 0.23470 0.04460 0.06400
C 	C 	0.61060 0.21100 0.95900 -0.16100
C 	C 	0.62050 0.28580 0.93260 0.09300
C 	C 	0.59510 0.38620 0.98700 -0.14400
C 	C 	0.56490 0.40900 0.07240 0.06100
C 	C 	0.64520 0.25740 0.83700 -0.01100
C 	C 	0.57070 0.32810 0.49980 0.40700
C 	C 	0.62710 0.28500 0.56020 -0.13900
C 	C 	0.61880 0.32450 0.65540 -0.03000
C 	C 	0.66920 0.28150 0.70980 0.04800
C 	C 	0.73670 0.20820 0.67360 -0.02400
C 	C 	0.74780 0.16820 0.57900 -0.14300
C 	C 	0.69240 0.20710 0.52360 0.06500
C 	C 	0.82120 0.09110 0.54320 0.44500
C 	C 	0.02100 0.83510 0.19060 0.34400
C 	C 	0.05760 0.76750 0.10140 -0.13600
C 	C 	0.08350 0.80990 0.04460 0.06900
C 	C 	0.11060 0.74800 0.95900 -0.16400
C 	C 	0.12050 0.64680 0.93260 0.09600
C 	C 	0.09510 0.60080 0.98700 -0.15000
C 	C 	0.06490 0.66340 0.07240 0.06700
C 	C 	0.14520 0.57960 0.83700 -0.01300
C 	C 	0.07070 0.17170 0.49980 0.40600
C 	C 	0.12710 0.27520 0.56020 -0.14000
C 	C 	0.11880 0.33090 0.65540 -0.03000
C 	C 	0.16920 0.42830 0.70980 0.04700
C 	C 	0.23670 0.46540 0.67360 -0.02300
C 	C 	0.24780 0.41080 0.57900 -0.14500
C 	C 	0.19240 0.31650 0.52360 0.06600
C 	C 	0.32120 0.45210 0.54320 0.44700
C 	C 	0.47900 0.64450 0.80940 0.33500
C 	C 	0.44240 0.66610 0.89860 -0.13200
C 	C 	0.41650 0.76530 0.95540 0.06400
C 	C 	0.38940 0.78900 0.04100 -0.16100
C 	C 	0.37950 0.71420 0.06740 0.09300
C 	C 	0.40490 0.61380 0.01300 -0.14400
C 	C 	0.43510 0.59100 0.92760 0.06100
C 	C 	0.35480 0.74260 0.16300 -0.01100
C 	C 	0.42930 0.67190 0.50020 0.40700
C 	C 	0.37290 0.71500 0.43980 -0.13900
C 	C 	0.38120 0.67550 0.34460 -0.03000
C 	C 	0.33080 0.71850 0.29020 0.04800
C 	C 	0.26330 0.79180 0.32640 -0.02400
C 	C 	0.25220 0.83180 0.42100 -0.14300
C 	C 	0.30760 0.79290 0.47640 0.06500
C 	C 	0.17880 0.90890 0.45680 0.44500
N 	N 	0.85090 0.51560 0.19700 -0.11600
N 	N 	0.64910 0.31860 0.80300 -0.11600
N 	N 	0.14910 0.48440 0.80300 -0.11600
N 	N 	0.35090 0.68140 0.19700 -0.11600
O 	O 	0.98280 0.06960 0.78440 -0.45800
O 	O 	0.00630 0.20844 0.76168 -0.43200
O 	O 	0.94800 0.86028 0.58836 -0.46300
O 	O 	0.96080 0.88299 0.46358 -0.59900
O 	O 	0.66920 0.60289 0.54278 -0.52800
O 	O 	0.62860 0.46183 0.40226 -0.48900
O 	O 	0.51720 0.28520 0.21560 -0.46200
O 	O 	0.49370 0.44676 0.23832 -0.42600
O 	O 	0.55200 0.27192 0.41164 -0.46300
O 	O 	0.53920 0.41941 0.53642 -0.60000
O 	O 	0.83080 0.06011 0.45722 -0.52100
O 	O 	0.87140 0.05957 0.59774 -0.48200
O 	O 	0.01720 0.93040 0.21560 -0.45800
O 	O 	0.99370 0.79156 0.23832 -0.43200
O 	O 	0.05200 0.13972 0.41164 -0.46300
O 	O 	0.03920 0.11701 0.53642 -0.59900
O 	O 	0.33080 0.39711 0.45722 -0.52800
O 	O 	0.37140 0.53817 0.59774 -0.48900
O 	O 	0.48280 0.71480 0.78440 -0.46200
O 	O 	0.50630 0.55324 0.76168 -0.42600
O 	O 	0.44800 0.72808 0.58836 -0.46300
O 	O 	0.46080 0.58059 0.46358 -0.60000
O 	O 	0.16920 0.93989 0.54278 -0.52100
O 	O 	0.12860 0.94043 0.40226 -0.48200
