data_crystal

_cell_length_a 15.28610
_cell_length_b 17.50960
_cell_length_c 19.00330
_cell_angle_alpha 62.56770
_cell_angle_beta  86.26850
_cell_angle_gamma 81.87890

_symmetry_space_group_name_	'P 1'
_symmetry_space_group_name_H-M	'P 1'

loop_
_symmetry_equiv_pos_as_xyz
  x,y,z

loop_
_atom_site_label
_atom_site_type_symbol
_atom_site_fract_x
_atom_site_fract_y
_atom_site_fract_z
_atom_site_charge
Co	Co	0.49918 0.34283 0.27250 1.13500
Co	Co	0.21829 0.31006 0.70824 1.15000
Co	Co	0.61093 0.19274 0.76468 1.13600
Co	Co	0.99918 0.61533 0.72750 1.12700
Co	Co	0.71829 0.01830 0.29176 1.15200
Co	Co	0.11093 0.95742 0.23532 1.13400
H 	H 	0.05920 0.47360 0.44100 0.05300
H 	H 	0.29930 0.33320 0.46740 0.04600
H 	H 	0.20180 0.49610 0.24880 0.05000
H 	H 	0.50970 0.34740 0.46780 0.07000
H 	H 	0.54010 0.39640 0.55720 0.03200
H 	H 	0.60960 0.51880 0.51640 0.04000
H 	H 	0.65080 0.59670 0.38480 0.08100
H 	H 	0.51070 0.36260 0.06400 0.05600
H 	H 	0.53070 0.42780 0.92840 0.04400
H 	H 	0.58770 0.55870 0.86360 0.03400
H 	H 	0.62230 0.62990 0.93180 0.09800
H 	H 	0.29280 0.33710 0.17520 0.07400
H 	H 	0.19900 0.27840 0.12740 0.03600
H 	H 	0.24480 0.15440 0.11400 0.04800
H 	H 	0.38650 0.07970 0.15380 0.07600
H 	H 	0.69170 0.30300 0.40540 0.06900
H 	H 	0.82580 0.23810 0.46700 0.03500
H 	H 	0.90170 0.12060 0.45580 0.04000
H 	H 	0.84380 0.06260 0.38460 0.04800
H 	H 	0.23340 0.32880 0.86020 0.04800
H 	H 	0.28560 0.33270 0.96900 0.04300
H 	H 	0.43300 0.28460 0.00660 0.03800
H 	H 	0.53600 0.24410 0.93020 0.07400
H 	H 	0.37290 0.16330 0.51340 0.08400
H 	H 	0.48900 0.10120 0.46600 0.04000
H 	H 	0.63030 0.08220 0.50880 0.05200
H 	H 	0.66230 0.12530 0.60120 0.06200
H 	H 	0.71530 0.98410 0.77040 0.06300
H 	H 	0.81430 0.89430 0.73180 0.05900
H 	H 	0.93530 0.94420 0.65620 0.04000
H 	H 	0.97020 0.08560 0.61540 0.06700
H 	H 	0.52500 0.42000 0.74020 0.06100
H 	H 	0.52720 0.56230 0.70520 0.04100
H 	H 	0.64900 0.63230 0.64280 0.04200
H 	H 	0.76850 0.56100 0.61020 0.07300
H 	H 	0.15670 0.11180 0.96260 0.04300
H 	H 	0.16960 0.00990 0.80940 0.05700
H 	H 	0.14120 0.85730 0.04260 0.05900
H 	H 	0.62430 0.60940 0.09060 0.17100
H 	H 	0.64190 0.59290 0.23660 0.17200
H 	H 	0.53870 0.08880 0.22400 0.13300
H 	H 	0.33880 0.22910 0.62560 0.14600
H 	H 	0.83060 0.39180 0.62660 0.12900
H 	H 	0.89280 0.24000 0.62220 0.12500
H 	H 	0.55920 0.91460 0.55900 0.04700
H 	H 	0.79930 0.80060 0.53260 0.04500
H 	H 	0.70180 0.74490 0.75120 0.05000
H 	H 	0.00970 0.81520 0.53220 0.08100
H 	H 	0.04010 0.95360 0.44280 0.02200
H 	H 	0.10960 0.03520 0.48360 0.06400
H 	H 	0.15080 0.98150 0.61520 0.07100
H 	H 	0.01070 0.42660 0.93600 0.06000
H 	H 	0.03070 0.35620 0.07160 0.04800
H 	H 	0.08770 0.42230 0.13640 0.03400
H 	H 	0.12230 0.56170 0.06820 0.10000
H 	H 	0.79280 0.51230 0.82480 0.07500
H 	H 	0.69900 0.40580 0.87260 0.03300
H 	H 	0.74480 0.26840 0.88600 0.05000
H 	H 	0.88650 0.23350 0.84620 0.06800
H 	H 	0.19170 0.70840 0.59460 0.06900
H 	H 	0.32580 0.70510 0.53300 0.03600
H 	H 	0.40170 0.57640 0.54420 0.04200
H 	H 	0.34380 0.44720 0.61540 0.04600
H 	H 	0.73340 0.18900 0.13980 0.04200
H 	H 	0.78560 0.30170 0.03100 0.05100
H 	H 	0.93300 0.29120 0.99340 0.01900
H 	H 	0.03600 0.17430 0.06980 0.09900
H 	H 	0.87290 0.67670 0.48660 0.06600
H 	H 	0.98900 0.56720 0.53400 0.05700
H 	H 	0.13030 0.59100 0.49120 0.02800
H 	H 	0.16230 0.72650 0.39880 0.07800
H 	H 	0.21530 0.75450 0.22960 0.08500
H 	H 	0.31430 0.62610 0.26820 0.05000
H 	H 	0.43530 0.60040 0.34380 0.04700
H 	H 	0.47020 0.70100 0.38460 0.07000
H 	H 	0.02500 0.16020 0.25980 0.06600
H 	H 	0.02720 0.26750 0.29480 0.04400
H 	H 	0.14900 0.27510 0.35720 0.04400
H 	H 	0.26850 0.17120 0.38980 0.07400
H 	H 	0.65670 0.07440 0.03740 0.03600
H 	H 	0.66960 0.81930 0.19060 0.05400
H 	H 	0.64120 0.89990 0.95740 0.05300
H 	H 	0.12430 0.70000 0.90940 0.17300
H 	H 	0.14190 0.82950 0.76340 0.17200
H 	H 	0.03870 0.31280 0.77600 0.13200
H 	H 	0.83880 0.85470 0.37440 0.14200
H 	H 	0.33060 0.01840 0.37340 0.13300
H 	H 	0.39280 0.86220 0.37780 0.12700
C 	C 	0.05140 0.56330 0.28440 0.28600
C 	C 	0.12060 0.49500 0.33680 -0.07800
C 	C 	0.11060 0.45830 0.41900 0.02000
C 	C 	0.17840 0.39820 0.46820 -0.09200
C 	C 	0.16940 0.36310 0.55560 0.31600
C 	C 	0.25470 0.37360 0.43460 0.02400
C 	C 	0.26420 0.40940 0.35200 -0.08900
C 	C 	0.34680 0.38170 0.31860 0.30300
C 	C 	0.19600 0.47120 0.30360 0.01700
C 	C 	0.56070 0.44420 0.37220 0.05000
C 	C 	0.53710 0.39700 0.45120 -0.10000
C 	C 	0.55580 0.42640 0.50420 -0.02200
C 	C 	0.59800 0.50060 0.47940 -0.01800
C 	C 	0.62280 0.54740 0.40100 -0.11100
C 	C 	0.60420 0.51790 0.34720 0.09200
C 	C 	0.55470 0.45750 0.08140 0.04400
C 	C 	0.53290 0.41560 0.03840 -0.08100
C 	C 	0.54530 0.45470 0.95760 -0.04000
C 	C 	0.57930 0.53440 0.91820 0.00400
C 	C 	0.60050 0.57670 0.95820 -0.11800
C 	C 	0.58820 0.53740 0.04060 0.10000
C 	C 	0.58270 0.49490 0.24620 0.08100
C 	C 	0.58100 0.49890 0.16780 0.08800
C 	C 	0.39680 0.23870 0.19900 0.05900
C 	C 	0.31090 0.28550 0.17260 -0.10100
C 	C 	0.25600 0.25060 0.14280 -0.01600
C 	C 	0.28350 0.17490 0.13520 -0.02700
C 	C 	0.36760 0.12980 0.15900 -0.09500
C 	C 	0.42280 0.16400 0.19180 0.07900
C 	C 	0.68610 0.22360 0.35440 0.06800
C 	C 	0.72170 0.25580 0.40020 -0.11100
C 	C 	0.80160 0.21660 0.43700 -0.01100
C 	C 	0.84740 0.14530 0.43060 -0.03100
C 	C 	0.81390 0.11080 0.38800 -0.08900
C 	C 	0.73140 0.15200 0.34900 0.03400
C 	C 	0.52870 0.19110 0.24660 0.05900
C 	C 	0.60580 0.18580 0.28700 0.04900
C 	C 	0.35380 0.28780 0.82580 0.03300
C 	C 	0.29300 0.31310 0.87340 -0.08700
C 	C 	0.32390 0.31390 0.93840 -0.02800
C 	C 	0.41450 0.28610 0.96020 -0.01200
C 	C 	0.47670 0.26080 0.91580 -0.11100
C 	C 	0.44350 0.26240 0.84620 0.07600
C 	C 	0.44800 0.17750 0.58960 0.10000
C 	C 	0.43010 0.15460 0.53200 -0.11000
C 	C 	0.49960 0.11860 0.50380 0.00100
C 	C 	0.58490 0.10730 0.52940 -0.03200
C 	C 	0.60450 0.13230 0.58460 -0.08000
C 	C 	0.53420 0.16870 0.61480 0.04500
C 	C 	0.42130 0.24960 0.74160 0.05400
C 	C 	0.44840 0.22210 0.68000 0.08300
C 	C 	0.78360 0.08880 0.71200 0.04600
C 	C 	0.76450 0.00410 0.73920 -0.05700
C 	C 	0.82440 0.95100 0.71620 -0.04800
C 	C 	0.89800 0.98150 0.67060 -0.01900
C 	C 	0.91970 0.06640 0.64480 -0.09700
C 	C 	0.85940 0.11870 0.66700 0.07900
C 	C 	0.64680 0.40080 0.69720 0.05300
C 	C 	0.57410 0.44710 0.71460 -0.10000
C 	C 	0.57580 0.53140 0.69400 -0.02500
C 	C 	0.65000 0.57420 0.65540 -0.01700
C 	C 	0.72030 0.53300 0.63660 -0.10400
C 	C 	0.71790 0.44540 0.65880 0.07500
C 	C 	0.78070 0.22530 0.68240 0.06900
C 	C 	0.74260 0.30950 0.67960 0.07900
C 	C 	0.13630 0.97000 0.09900 0.29100
C 	C 	0.14660 0.98160 0.01480 -0.08800
C 	C 	0.15610 0.06450 0.95280 0.03900
C 	C 	0.16460 0.07370 0.87620 -0.07800
C 	C 	0.17980 0.15880 0.80340 0.30200
C 	C 	0.16430 0.00230 0.86120 0.03300
C 	C 	0.15630 0.92040 0.92320 -0.07800
C 	C 	0.15940 0.84580 0.90400 0.29900
C 	C 	0.14710 0.91150 0.00040 0.02400
C 	C 	0.55140 0.84770 0.71560 0.27000
C 	C 	0.62060 0.83180 0.66320 -0.07600
C 	C 	0.61060 0.87730 0.58100 0.01800
C 	C 	0.67840 0.86640 0.53180 -0.09500
C 	C 	0.66940 0.91870 0.44440 0.31700
C 	C 	0.75470 0.80820 0.56540 0.02400
C 	C 	0.76420 0.76140 0.64800 -0.09100
C 	C 	0.84680 0.70030 0.68140 0.30300
C 	C 	0.69600 0.77480 0.69640 0.01500
C 	C 	0.06070 0.81640 0.62780 0.06300
C 	C 	0.03710 0.84820 0.54880 -0.11700
C 	C 	0.05580 0.93060 0.49580 0.00700
C 	C 	0.09800 0.98000 0.52060 -0.06000
C 	C 	0.12280 0.94840 0.59900 -0.08600
C 	C 	0.10420 0.86510 0.65280 0.08200
C 	C 	0.05470 0.53890 0.91860 0.04500
C 	C 	0.03290 0.45400 0.96160 -0.07700
C 	C 	0.04530 0.41230 0.04240 -0.04300
C 	C 	0.07930 0.45260 0.08180 0.00900
C 	C 	0.10050 0.53490 0.04180 -0.12100
C 	C 	0.08820 0.57800 0.95940 0.10400
C 	C 	0.08270 0.74110 0.75380 0.08300
C 	C 	0.08100 0.66670 0.83220 0.09000
C 	C 	0.89680 0.43770 0.80100 0.06300
C 	C 	0.81090 0.45810 0.82740 -0.10800
C 	C 	0.75600 0.39340 0.85720 -0.01000
C 	C 	0.78350 0.31010 0.86480 -0.03600
C 	C 	0.86760 0.28880 0.84100 -0.08500
C 	C 	0.92280 0.35580 0.80820 0.06100
C 	C 	0.18610 0.57800 0.64560 0.07000
C 	C 	0.22170 0.65600 0.59980 -0.11100
C 	C 	0.30160 0.65360 0.56300 -0.01000
C 	C 	0.34740 0.57590 0.56940 -0.03100
C 	C 	0.31390 0.49880 0.61200 -0.08800
C 	C 	0.23140 0.50100 0.65100 0.03300
C 	C 	0.02870 0.43770 0.75340 0.07300
C 	C 	0.10580 0.47280 0.71300 0.04700
C 	C 	0.85380 0.11360 0.17420 0.02200
C 	C 	0.79300 0.18650 0.12660 -0.07000
C 	C 	0.82390 0.25230 0.06160 -0.05200
C 	C 	0.91450 0.24630 0.03980 0.02100
C 	C 	0.97670 0.17660 0.08420 -0.15700
C 	C 	0.94350 0.10860 0.15380 0.09000
C 	C 	0.94800 0.76710 0.41040 0.06000
C 	C 	0.93010 0.68660 0.46800 -0.06400
C 	C 	0.99960 0.62240 0.49620 -0.06900
C 	C 	0.08490 0.63670 0.47060 0.03400
C 	C 	0.10450 0.71690 0.41540 -0.12600
C 	C 	0.03420 0.78350 0.38520 0.08200
C 	C 	0.92130 0.99120 0.25840 0.03700
C 	C 	0.94840 0.90210 0.32000 0.07200
C 	C 	0.28360 0.80080 0.28800 0.05800
C 	C 	0.26450 0.74330 0.26080 -0.10000
C 	C 	0.32440 0.66720 0.28380 -0.01700
C 	C 	0.39800 0.65210 0.32940 -0.02100
C 	C 	0.41970 0.71120 0.35520 -0.09900
C 	C 	0.35940 0.78570 0.33300 0.07500
C 	C 	0.14680 0.09800 0.30280 0.05600
C 	C 	0.07410 0.16170 0.28540 -0.10000
C 	C 	0.07580 0.22540 0.30600 -0.02400
C 	C 	0.15000 0.22960 0.34460 -0.01600
C 	C 	0.22030 0.16960 0.36340 -0.10300
C 	C 	0.21790 0.10420 0.34120 0.07600
C 	C 	0.28070 0.90770 0.31760 0.07200
C 	C 	0.24260 0.98910 0.32040 0.06000
C 	C 	0.63630 0.06900 0.90100 0.31800
C 	C 	0.64660 0.99640 0.98520 -0.10900
C 	C 	0.65610 0.01730 0.04720 0.06200
C 	C 	0.66460 0.94990 0.12380 -0.09600
C 	C 	0.67980 0.96220 0.19660 0.29200
C 	C 	0.66430 0.86350 0.13880 0.02700
C 	C 	0.65630 0.84360 0.07680 -0.08000
C 	C 	0.65940 0.74980 0.09600 0.29900
C 	C 	0.64710 0.91190 0.99960 0.03600
N 	N 	0.54760 0.43070 0.30640 -0.22900
N 	N 	0.54950 0.43550 0.16240 -0.23300
N 	N 	0.60410 0.56280 0.09820 -0.21800
N 	N 	0.61680 0.54810 0.26760 -0.22000
N 	N 	0.46300 0.25440 0.23420 -0.23200
N 	N 	0.60650 0.24510 0.31420 -0.24200
N 	N 	0.68040 0.12620 0.30660 -0.24000
N 	N 	0.50630 0.13430 0.22140 -0.20800
N 	N 	0.34030 0.27960 0.75800 -0.24000
N 	N 	0.39500 0.21420 0.63060 -0.21400
N 	N 	0.53140 0.19720 0.67400 -0.23400
N 	N 	0.48660 0.23880 0.79200 -0.23800
N 	N 	0.73460 0.15830 0.72200 -0.22900
N 	N 	0.66420 0.31540 0.70940 -0.23700
N 	N 	0.77950 0.38370 0.64840 -0.20800
N 	N 	0.85490 0.20530 0.64940 -0.20700
N 	N 	0.04760 0.73710 0.69360 -0.22800
N 	N 	0.04950 0.59790 0.83760 -0.23000
N 	N 	0.10410 0.66100 0.90180 -0.21800
N 	N 	0.11680 0.81570 0.73240 -0.21800
N 	N 	0.96300 0.48860 0.76580 -0.24200
N 	N 	0.10650 0.55930 0.68580 -0.23900
N 	N 	0.18040 0.43280 0.69340 -0.24100
N 	N 	0.00630 0.35570 0.77860 -0.20000
N 	N 	0.84030 0.03760 0.24200 -0.23100
N 	N 	0.89500 0.84480 0.36940 -0.20700
N 	N 	0.03140 0.87120 0.32600 -0.23300
N 	N 	0.98660 0.03080 0.20800 -0.23800
N 	N 	0.23460 0.88030 0.27800 -0.23300
N 	N 	0.16420 0.02480 0.29060 -0.22700
N 	N 	0.27950 0.03210 0.35160 -0.20000
N 	N 	0.35490 0.85470 0.35060 -0.20800
O 	O 	0.06390 0.60760 0.21040 -0.20900
O 	O 	0.97930 0.58200 0.31520 -0.22200
O 	O 	0.24020 0.32890 0.59700 -0.42500
O 	O 	0.09630 0.36900 0.58780 -0.30600
O 	O 	0.39950 0.31810 0.36300 -0.39200
O 	O 	0.36490 0.42441 0.24578 -0.36000
O 	O 	0.15550 0.02770 0.11440 -0.37400
O 	O 	0.10540 0.90350 0.15160 -0.36000
O 	O 	0.13980 0.77380 0.95700 -0.23700
O 	O 	0.18130 0.85920 0.83420 -0.25000
O 	O 	0.15040 0.22880 0.80720 -0.40500
O 	O 	0.22130 0.16010 0.74460 -0.33400
O 	O 	0.56390 0.81800 0.78960 -0.20900
O 	O 	0.47930 0.89720 0.68480 -0.20900
O 	O 	0.74020 0.92590 0.40300 -0.43000
O 	O 	0.59630 0.95680 0.41220 -0.31600
O 	O 	0.89950 0.68110 0.63700 -0.39600
O 	O 	0.86490 0.67019 0.75422 -0.36400
O 	O 	0.65550 0.14210 0.88560 -0.39100
O 	O 	0.60540 0.05510 0.84840 -0.36300
O 	O 	0.63980 0.73080 0.04300 -0.24000
O 	O 	0.68130 0.69340 0.16580 -0.25100
O 	O 	0.65040 0.03600 0.19280 -0.39800
O 	O 	0.72130 0.90470 0.25540 -0.33700
