data_crystal

_cell_length_a 18.41000
_cell_length_b 18.41000
_cell_length_c 21.32100
_cell_angle_alpha 90.00000
_cell_angle_beta  90.00000
_cell_angle_gamma 120.00000

_symmetry_space_group_name_	'P 1'
_symmetry_space_group_name_H-M	'P 1'

loop_
_symmetry_equiv_pos_as_xyz
  x,y,z

loop_
_atom_site_label
_atom_site_type_symbol
_atom_site_fract_x
_atom_site_fract_y
_atom_site_fract_z
_atom_site_charge
Cu	Cu	0.50740 0.66350 0.65819 0.83300
Cu	Cu	0.15610 0.49260 0.99152 0.83300
Cu	Cu	0.33650 0.84390 0.32486 0.83300
Cu	Cu	0.84390 0.33650 0.34181 0.83300
Cu	Cu	0.66350 0.50740 0.00848 0.83400
Cu	Cu	0.49260 0.15610 0.67514 0.83400
P 	P 	0.38030 0.64560 0.69325 -0.06000
P 	P 	0.13900 0.47020 0.88651 -0.06300
P 	P 	0.26530 0.61970 0.02658 -0.05900
P 	P 	0.33120 0.86100 0.21984 -0.06200
P 	P 	0.35440 0.73470 0.35992 -0.06000
P 	P 	0.52980 0.66880 0.55318 -0.06200
P 	P 	0.73470 0.35440 0.30675 -0.06000
P 	P 	0.66880 0.52980 0.11349 -0.06300
P 	P 	0.64560 0.38030 0.97342 -0.05900
P 	P 	0.47020 0.13900 0.78016 -0.06200
P 	P 	0.61970 0.26530 0.64008 -0.06000
P 	P 	0.86100 0.33120 0.44682 -0.06200
H 	H 	0.64720 0.64150 0.93550 0.01700
H 	H 	0.54660 0.65080 0.87910 0.07900
H 	H 	0.37200 0.42190 0.93460 0.07600
H 	H 	0.47870 0.41840 0.99350 -0.01200
H 	H 	0.46220 0.61190 0.79040 0.05000
H 	H 	0.22270 0.55840 0.76610 0.06400
H 	H 	0.28760 0.47700 0.92110 0.04600
H 	H 	0.49150 0.81500 0.72730 0.06800
H 	H 	0.47870 0.93240 0.75020 0.02900
H 	H 	0.34830 0.92460 0.74100 0.04700
H 	H 	0.23070 0.79940 0.70900 0.03000
H 	H 	0.24350 0.68200 0.68610 0.06000
H 	H 	0.30400 0.66750 0.57960 0.05800
H 	H 	0.20480 0.57260 0.50890 0.03500
H 	H 	0.14280 0.43880 0.52320 0.05500
H 	H 	0.15290 0.37800 0.61780 0.03200
H 	H 	0.26590 0.46680 0.68680 0.05300
H 	H 	0.13050 0.38120 0.76680 0.05600
H 	H 	0.06120 0.24670 0.73460 0.03100
H 	H 	0.96620 0.13700 0.80360 0.05800
H 	H 	0.95560 0.17410 0.90700 0.03200
H 	H 	0.01660 0.30770 0.94060 0.05200
H 	H 	0.01380 0.41780 0.78240 0.05700
H 	H 	0.95880 0.48950 0.72740 0.03200
H 	H 	0.99980 0.62810 0.75390 0.05500
H 	H 	0.09570 0.69510 0.83530 0.03300
H 	H 	0.15060 0.62330 0.89030 0.03800
H 	H 	0.99430 0.35280 0.26883 0.01500
H 	H 	0.10420 0.45340 0.21243 0.08000
H 	H 	0.04990 0.62800 0.26793 0.07600
H 	H 	0.93970 0.52130 0.32683 -0.01200
H 	H 	0.14970 0.53780 0.12373 0.05000
H 	H 	0.33570 0.77730 0.09943 0.06400
H 	H 	0.18940 0.71240 0.25443 0.04600
H 	H 	0.32350 0.50850 0.06063 0.06800
H 	H 	0.45370 0.52130 0.08353 0.02900
H 	H 	0.57630 0.65170 0.07433 0.04700
H 	H 	0.56870 0.76930 0.04233 0.03000
H 	H 	0.43850 0.75650 0.01943 0.06000
H 	H 	0.36350 0.69600 0.91293 0.05800
H 	H 	0.36780 0.79520 0.84223 0.03400
H 	H 	0.29600 0.85720 0.85653 0.05500
H 	H 	0.22510 0.84710 0.95113 0.03100
H 	H 	0.20090 0.73410 0.02013 0.05400
H 	H 	0.25070 0.86950 0.10013 0.05600
H 	H 	0.18550 0.93880 0.06793 0.03100
H 	H 	0.17080 0.03380 0.13693 0.05800
H 	H 	0.21850 0.04440 0.24033 0.03300
H 	H 	0.29110 0.98340 0.27393 0.05200
H 	H 	0.40400 0.98620 0.11573 0.05500
H 	H 	0.53070 0.04120 0.06073 0.03400
H 	H 	0.62830 0.00020 0.08723 0.05100
H 	H 	0.59940 0.90430 0.16863 0.03500
H 	H 	0.47270 0.84940 0.22363 0.03700
H 	H 	0.35850 0.00570 0.60217 0.01700
H 	H 	0.34920 0.89580 0.54577 0.07900
H 	H 	0.57810 0.95010 0.60127 0.07600
H 	H 	0.58160 0.06030 0.66017 -0.01200
H 	H 	0.38810 0.85030 0.45707 0.04900
H 	H 	0.44160 0.66430 0.43277 0.06400
H 	H 	0.52300 0.81060 0.58777 0.04600
H 	H 	0.18500 0.67650 0.39397 0.06800
H 	H 	0.06760 0.54630 0.41687 0.02900
H 	H 	0.07540 0.42370 0.40767 0.04700
H 	H 	0.20060 0.43130 0.37567 0.03000
H 	H 	0.31800 0.56150 0.35277 0.06000
H 	H 	0.33250 0.63650 0.24627 0.05800
H 	H 	0.42740 0.63220 0.17557 0.03500
H 	H 	0.56120 0.70400 0.18987 0.05500
H 	H 	0.62200 0.77490 0.28447 0.03200
H 	H 	0.53320 0.79910 0.35347 0.05300
H 	H 	0.61880 0.74930 0.43347 0.05600
H 	H 	0.75330 0.81450 0.40127 0.03100
H 	H 	0.86300 0.82920 0.47027 0.05800
H 	H 	0.82590 0.78150 0.57367 0.03300
H 	H 	0.69230 0.70890 0.60727 0.05200
H 	H 	0.58220 0.59600 0.44907 0.05500
H 	H 	0.51050 0.46930 0.39407 0.03400
H 	H 	0.37190 0.37170 0.42057 0.05200
H 	H 	0.30490 0.40060 0.50197 0.03500
H 	H 	0.37670 0.52730 0.55697 0.03700
H 	H 	0.00570 0.35850 0.06450 0.02000
H 	H 	0.89580 0.34920 0.12090 0.07800
H 	H 	0.95010 0.57810 0.06540 0.07600
H 	H 	0.06030 0.58160 0.00650 -0.01200
H 	H 	0.85030 0.38810 0.20960 0.04900
H 	H 	0.66430 0.44160 0.23390 0.06400
H 	H 	0.81060 0.52300 0.07890 0.04500
H 	H 	0.67650 0.18500 0.27270 0.06800
H 	H 	0.54630 0.06760 0.24980 0.02900
H 	H 	0.42370 0.07540 0.25900 0.04700
H 	H 	0.43130 0.20060 0.29100 0.03000
H 	H 	0.56150 0.31800 0.31390 0.06000
H 	H 	0.63650 0.33250 0.42040 0.05800
H 	H 	0.63220 0.42740 0.49110 0.03500
H 	H 	0.70400 0.56120 0.47680 0.05500
H 	H 	0.77490 0.62200 0.38220 0.03200
H 	H 	0.79910 0.53320 0.31320 0.05200
H 	H 	0.74930 0.61880 0.23320 0.05600
H 	H 	0.81450 0.75330 0.26540 0.03100
H 	H 	0.82920 0.86300 0.19640 0.05800
H 	H 	0.78150 0.82590 0.09300 0.03300
H 	H 	0.70890 0.69230 0.05940 0.05200
H 	H 	0.59600 0.58220 0.21760 0.05500
H 	H 	0.46930 0.51050 0.27260 0.03400
H 	H 	0.37170 0.37190 0.24610 0.05200
H 	H 	0.40060 0.30490 0.16470 0.03500
H 	H 	0.52730 0.37670 0.10970 0.03700
H 	H 	0.64150 0.64720 0.73117 0.01700
H 	H 	0.65080 0.54660 0.78757 0.07900
H 	H 	0.42190 0.37200 0.73207 0.07600
H 	H 	0.41840 0.47870 0.67317 -0.01200
H 	H 	0.61190 0.46220 0.87627 0.04900
H 	H 	0.55840 0.22270 0.90057 0.06400
H 	H 	0.47700 0.28760 0.74557 0.04600
H 	H 	0.81500 0.49150 0.93937 0.06800
H 	H 	0.93240 0.47870 0.91647 0.03000
H 	H 	0.92460 0.34830 0.92567 0.04700
H 	H 	0.79940 0.23070 0.95767 0.03000
H 	H 	0.68200 0.24350 0.98057 0.06000
H 	H 	0.66750 0.30400 0.08707 0.05800
H 	H 	0.57260 0.20480 0.15777 0.03500
H 	H 	0.43880 0.14280 0.14347 0.05500
H 	H 	0.37800 0.15290 0.04887 0.03200
H 	H 	0.46680 0.26590 0.97987 0.05300
H 	H 	0.38120 0.13050 0.89987 0.05600
H 	H 	0.24670 0.06120 0.93207 0.03000
H 	H 	0.13700 0.96620 0.86307 0.05800
H 	H 	0.17410 0.95560 0.75967 0.03300
H 	H 	0.30770 0.01660 0.72607 0.05200
H 	H 	0.41780 0.01380 0.88427 0.05500
H 	H 	0.48950 0.95880 0.93927 0.03500
H 	H 	0.62810 0.99980 0.91277 0.05200
H 	H 	0.69510 0.09570 0.83137 0.03500
H 	H 	0.62330 0.15060 0.77637 0.03700
H 	H 	0.35280 0.99430 0.39783 0.01700
H 	H 	0.45340 0.10420 0.45423 0.07900
H 	H 	0.62800 0.04990 0.39873 0.07600
H 	H 	0.52130 0.93970 0.33983 -0.01200
H 	H 	0.53780 0.14970 0.54293 0.04900
H 	H 	0.77730 0.33570 0.56723 0.06400
H 	H 	0.71240 0.18940 0.41223 0.04600
H 	H 	0.50850 0.32350 0.60603 0.06800
H 	H 	0.52130 0.45370 0.58313 0.02900
H 	H 	0.65170 0.57630 0.59233 0.04700
H 	H 	0.76930 0.56870 0.62433 0.03000
H 	H 	0.75650 0.43850 0.64723 0.06000
H 	H 	0.69600 0.36350 0.75373 0.05800
H 	H 	0.79520 0.36780 0.82443 0.03500
H 	H 	0.85720 0.29600 0.81013 0.05500
H 	H 	0.84710 0.22510 0.71553 0.03200
H 	H 	0.73410 0.20090 0.64653 0.05300
H 	H 	0.86950 0.25070 0.56653 0.05600
H 	H 	0.93880 0.18550 0.59873 0.03100
H 	H 	0.03380 0.17080 0.52973 0.05800
H 	H 	0.04440 0.21850 0.42633 0.03300
H 	H 	0.98340 0.29110 0.39273 0.05200
H 	H 	0.98620 0.40400 0.55093 0.05500
H 	H 	0.04120 0.53070 0.60593 0.03400
H 	H 	0.00020 0.62830 0.57943 0.05200
H 	H 	0.90430 0.59940 0.49803 0.03500
H 	H 	0.84940 0.47270 0.44303 0.03700
C 	C 	0.59200 0.59450 0.93510 0.06800
C 	C 	0.53030 0.60020 0.90130 -0.12600
C 	C 	0.45040 0.54030 0.89760 0.06200
C 	C 	0.42800 0.46750 0.93340 -0.11700
C 	C 	0.49410 0.46600 0.96770 0.05500
C 	C 	0.38470 0.54410 0.86230 0.03000
C 	C 	0.40610 0.58730 0.80520 -0.10000
C 	C 	0.34790 0.59510 0.76980 0.01600
C 	C 	0.26410 0.55700 0.79190 -0.08700
C 	C 	0.24080 0.51820 0.84920 0.00700
C 	C 	0.30310 0.50850 0.88330 -0.10300
C 	C 	0.36870 0.73740 0.70460 0.01700
C 	C 	0.43850 0.81170 0.72360 -0.09700
C 	C 	0.43090 0.88150 0.73720 0.00600
C 	C 	0.35350 0.87690 0.73180 -0.07300
C 	C 	0.28370 0.80260 0.71270 -0.00200
C 	C 	0.29120 0.73280 0.69910 -0.08100
C 	C 	0.29420 0.57370 0.64240 -0.00500
C 	C 	0.27640 0.60880 0.58700 -0.08800
C 	C 	0.21730 0.55200 0.54570 0.00600
C 	C 	0.17950 0.47420 0.55500 -0.07400
C 	C 	0.18800 0.43610 0.60960 -0.01100
C 	C 	0.25240 0.48990 0.65190 -0.08100
C 	C 	0.08840 0.36250 0.86060 0.00700
C 	C 	0.09520 0.33860 0.79560 -0.07400
C 	C 	0.05360 0.25980 0.77640 -0.00400
C 	C 	0.99720 0.19370 0.81730 -0.07300
C 	C 	0.99030 0.21740 0.87850 0.00800
C 	C 	0.02860 0.29580 0.89980 -0.08500
C 	C 	0.08740 0.51380 0.84150 0.00400
C 	C 	0.03040 0.47410 0.79320 -0.07800
C 	C 	0.99770 0.51660 0.76050 -0.00600
C 	C 	0.02210 0.59900 0.77620 -0.07000
C 	C 	0.07900 0.63870 0.82460 -0.00400
C 	C 	0.11170 0.59620 0.85720 -0.08200
C 	C 	0.00250 0.40800 0.26843 0.07100
C 	C 	0.06990 0.46970 0.23463 -0.12800
C 	C 	0.08990 0.54960 0.23093 0.06300
C 	C 	0.03950 0.57200 0.26673 -0.11600
C 	C 	0.97190 0.50590 0.30103 0.05300
C 	C 	0.15940 0.61530 0.19563 0.03000
C 	C 	0.18120 0.59390 0.13853 -0.09900
C 	C 	0.24720 0.65210 0.10313 0.01600
C 	C 	0.29290 0.73590 0.12523 -0.08700
C 	C 	0.27740 0.75920 0.18253 0.00700
C 	C 	0.20540 0.69690 0.21663 -0.10300
C 	C 	0.36870 0.63130 0.03793 0.01800
C 	C 	0.37320 0.56150 0.05693 -0.09700
C 	C 	0.45060 0.56910 0.07053 0.00600
C 	C 	0.52340 0.64650 0.06513 -0.07300
C 	C 	0.51890 0.71630 0.04603 -0.00200
C 	C 	0.44160 0.70880 0.03243 -0.08100
C 	C 	0.27950 0.70580 0.97573 -0.00500
C 	C 	0.33240 0.72360 0.92033 -0.08900
C 	C 	0.33470 0.78270 0.87903 0.00700
C 	C 	0.29470 0.82050 0.88833 -0.07500
C 	C 	0.24810 0.81200 0.94293 -0.01000
C 	C 	0.23750 0.74760 0.98523 -0.08300
C 	C 	0.27410 0.91160 0.19393 0.00700
C 	C 	0.24340 0.90480 0.12893 -0.07400
C 	C 	0.20620 0.94640 0.10973 -0.00300
C 	C 	0.19650 0.00280 0.15063 -0.07300
C 	C 	0.22710 0.00970 0.21183 0.00600
C 	C 	0.26720 0.97140 0.23313 -0.08200
C 	C 	0.42640 0.91260 0.17483 0.00200
C 	C 	0.44370 0.96960 0.12653 -0.07300
C 	C 	0.51890 0.00230 0.09383 -0.01400
C 	C 	0.57690 0.97790 0.10953 -0.06200
C 	C 	0.55970 0.92100 0.15793 -0.00900
C 	C 	0.48450 0.88830 0.19053 -0.07800
C 	C 	0.40550 0.99750 0.60177 0.06800
C 	C 	0.39980 0.93010 0.56797 -0.12600
C 	C 	0.45970 0.91010 0.56427 0.06200
C 	C 	0.53250 0.96050 0.60007 -0.11700
C 	C 	0.53400 0.02810 0.63437 0.05500
C 	C 	0.45590 0.84060 0.52897 0.03000
C 	C 	0.41270 0.81880 0.47187 -0.10000
C 	C 	0.40490 0.75280 0.43647 0.01600
C 	C 	0.44300 0.70710 0.45857 -0.08700
C 	C 	0.48180 0.72260 0.51587 0.00700
C 	C 	0.49150 0.79460 0.54997 -0.10300
C 	C 	0.26260 0.63130 0.37127 0.01700
C 	C 	0.18830 0.62680 0.39027 -0.09700
C 	C 	0.11850 0.54940 0.40387 0.00600
C 	C 	0.12310 0.47660 0.39847 -0.07300
C 	C 	0.19740 0.48110 0.37937 -0.00200
C 	C 	0.26720 0.55840 0.36577 -0.08100
C 	C 	0.42630 0.72050 0.30907 -0.00500
C 	C 	0.39120 0.66760 0.25367 -0.08800
C 	C 	0.44800 0.66530 0.21237 0.00600
C 	C 	0.52580 0.70530 0.22167 -0.07400
C 	C 	0.56390 0.75190 0.27627 -0.01100
C 	C 	0.51010 0.76250 0.31857 -0.08100
C 	C 	0.63750 0.72590 0.52727 0.00700
C 	C 	0.66140 0.75660 0.46227 -0.07400
C 	C 	0.74020 0.79380 0.44307 -0.00300
C 	C 	0.80630 0.80350 0.48397 -0.07300
C 	C 	0.78260 0.77290 0.54517 0.00600
C 	C 	0.70420 0.73280 0.56647 -0.08200
C 	C 	0.48620 0.57360 0.50817 0.00200
C 	C 	0.52590 0.55630 0.45987 -0.07300
C 	C 	0.48340 0.48110 0.42717 -0.01200
C 	C 	0.40100 0.42310 0.44287 -0.06300
C 	C 	0.36130 0.44030 0.49127 -0.00800
C 	C 	0.40380 0.51550 0.52387 -0.07900
C 	C 	0.99750 0.40550 0.06490 0.06200
C 	C 	0.93010 0.39980 0.09870 -0.12400
C 	C 	0.91010 0.45970 0.10240 0.06100
C 	C 	0.96050 0.53250 0.06660 -0.11900
C 	C 	0.02810 0.53400 0.03230 0.05700
C 	C 	0.84060 0.45590 0.13770 0.03000
C 	C 	0.81880 0.41270 0.19480 -0.10000
C 	C 	0.75280 0.40490 0.23020 0.01600
C 	C 	0.70710 0.44300 0.20810 -0.08700
C 	C 	0.72260 0.48180 0.15080 0.00700
C 	C 	0.79460 0.49150 0.11670 -0.10300
C 	C 	0.63130 0.26260 0.29540 0.01700
C 	C 	0.62680 0.18830 0.27640 -0.09700
C 	C 	0.54940 0.11850 0.26280 0.00600
C 	C 	0.47660 0.12310 0.26820 -0.07300
C 	C 	0.48110 0.19740 0.28730 -0.00200
C 	C 	0.55840 0.26720 0.30090 -0.08100
C 	C 	0.72050 0.42630 0.35760 -0.00500
C 	C 	0.66760 0.39120 0.41300 -0.08800
C 	C 	0.66530 0.44800 0.45430 0.00600
C 	C 	0.70530 0.52580 0.44500 -0.07400
C 	C 	0.75190 0.56390 0.39040 -0.01100
C 	C 	0.76250 0.51010 0.34810 -0.08100
C 	C 	0.72590 0.63750 0.13940 0.00700
C 	C 	0.75660 0.66140 0.20440 -0.07400
C 	C 	0.79380 0.74020 0.22360 -0.00300
C 	C 	0.80350 0.80630 0.18270 -0.07300
C 	C 	0.77290 0.78260 0.12150 0.00600
C 	C 	0.73280 0.70420 0.10020 -0.08300
C 	C 	0.57360 0.48620 0.15850 0.00200
C 	C 	0.55630 0.52590 0.20680 -0.07300
C 	C 	0.48110 0.48340 0.23950 -0.01200
C 	C 	0.42310 0.40100 0.22380 -0.06300
C 	C 	0.44030 0.36130 0.17540 -0.00800
C 	C 	0.51550 0.40380 0.14280 -0.07900
C 	C 	0.59450 0.59200 0.73157 0.06800
C 	C 	0.60020 0.53030 0.76537 -0.12600
C 	C 	0.54030 0.45040 0.76907 0.06200
C 	C 	0.46750 0.42800 0.73327 -0.11700
C 	C 	0.46600 0.49410 0.69897 0.05500
C 	C 	0.54410 0.38470 0.80437 0.03000
C 	C 	0.58730 0.40610 0.86147 -0.09900
C 	C 	0.59510 0.34790 0.89687 0.01600
C 	C 	0.55700 0.26410 0.87477 -0.08700
C 	C 	0.51820 0.24080 0.81747 0.00700
C 	C 	0.50850 0.30310 0.78337 -0.10300
C 	C 	0.73740 0.36870 0.96207 0.01800
C 	C 	0.81170 0.43850 0.94307 -0.09700
C 	C 	0.88150 0.43090 0.92947 0.00700
C 	C 	0.87690 0.35350 0.93487 -0.07300
C 	C 	0.80260 0.28370 0.95397 -0.00200
C 	C 	0.73280 0.29120 0.96757 -0.08100
C 	C 	0.57370 0.29420 0.02427 -0.00600
C 	C 	0.60880 0.27640 0.07967 -0.08800
C 	C 	0.55200 0.21730 0.12097 0.00500
C 	C 	0.47420 0.17950 0.11167 -0.07400
C 	C 	0.43610 0.18800 0.05707 -0.01100
C 	C 	0.48990 0.25240 0.01477 -0.08100
C 	C 	0.36250 0.08840 0.80607 0.00700
C 	C 	0.33860 0.09520 0.87107 -0.07400
C 	C 	0.25980 0.05360 0.89027 -0.00300
C 	C 	0.19370 0.99720 0.84937 -0.07300
C 	C 	0.21740 0.99030 0.78817 0.00600
C 	C 	0.29580 0.02860 0.76687 -0.08200
C 	C 	0.51380 0.08740 0.82517 0.00200
C 	C 	0.47410 0.03040 0.87347 -0.07300
C 	C 	0.51660 0.99770 0.90617 -0.01300
C 	C 	0.59900 0.02210 0.89047 -0.06300
C 	C 	0.63870 0.07900 0.84207 -0.00800
C 	C 	0.59620 0.11170 0.80947 -0.07800
C 	C 	0.40800 0.00250 0.39823 0.06800
C 	C 	0.46970 0.06990 0.43203 -0.12600
C 	C 	0.54960 0.08990 0.43573 0.06200
C 	C 	0.57200 0.03950 0.39993 -0.11700
C 	C 	0.50590 0.97190 0.36563 0.05500
C 	C 	0.61530 0.15940 0.47103 0.03000
C 	C 	0.59390 0.18120 0.52813 -0.10000
C 	C 	0.65210 0.24720 0.56353 0.01600
C 	C 	0.73590 0.29290 0.54143 -0.08700
C 	C 	0.75920 0.27740 0.48413 0.00700
C 	C 	0.69690 0.20540 0.45003 -0.10300
C 	C 	0.63130 0.36870 0.62873 0.01700
C 	C 	0.56150 0.37320 0.60973 -0.09700
C 	C 	0.56910 0.45060 0.59613 0.00600
C 	C 	0.64650 0.52340 0.60153 -0.07300
C 	C 	0.71630 0.51890 0.62063 -0.00200
C 	C 	0.70880 0.44160 0.63423 -0.08100
C 	C 	0.70580 0.27950 0.69093 -0.00500
C 	C 	0.72360 0.33240 0.74633 -0.08800
C 	C 	0.78270 0.33470 0.78763 0.00600
C 	C 	0.82050 0.29470 0.77833 -0.07400
C 	C 	0.81200 0.24810 0.72373 -0.01100
C 	C 	0.74760 0.23750 0.68143 -0.08100
C 	C 	0.91160 0.27410 0.47273 0.00700
C 	C 	0.90480 0.24340 0.53773 -0.07400
C 	C 	0.94640 0.20620 0.55693 -0.00300
C 	C 	0.00280 0.19650 0.51603 -0.07400
C 	C 	0.00970 0.22710 0.45483 0.00700
C 	C 	0.97140 0.26720 0.43353 -0.08300
C 	C 	0.91260 0.42640 0.49183 0.00200
C 	C 	0.96960 0.44370 0.54013 -0.07300
C 	C 	0.00230 0.51890 0.57283 -0.01300
C 	C 	0.97790 0.57690 0.55713 -0.06200
C 	C 	0.92100 0.55970 0.50873 -0.00900
C 	C 	0.88830 0.48450 0.47613 -0.07800
N 	N 	0.57710 0.52600 0.96710 -0.23800
N 	N 	0.94890 0.42290 0.30043 -0.23900
N 	N 	0.47400 0.05110 0.63377 -0.23800
N 	N 	0.05110 0.47400 0.03290 -0.23700
N 	N 	0.52600 0.57710 0.69957 -0.23800
N 	N 	0.42290 0.94890 0.36623 -0.23800
Cl	Cl	0.62130 0.78340 0.70590 -0.47100
Cl	Cl	0.16210 0.37870 0.03923 -0.47000
Cl	Cl	0.21660 0.83790 0.37257 -0.47100
Cl	Cl	0.83790 0.21660 0.29410 -0.47100
Cl	Cl	0.78340 0.62130 0.96077 -0.47000
Cl	Cl	0.37870 0.16210 0.62743 -0.47100
