data_crystal

_cell_length_a 12.24730
_cell_length_b 25.91400
_cell_length_c 25.91410
_cell_angle_alpha 90.00000
_cell_angle_beta  90.00000
_cell_angle_gamma 90.00000

_symmetry_space_group_name_	'P 1'
_symmetry_space_group_name_H-M	'P 1'

loop_
_symmetry_equiv_pos_as_xyz
  x,y,z

loop_
_atom_site_label
_atom_site_type_symbol
_atom_site_fract_x
_atom_site_fract_y
_atom_site_fract_z
_atom_site_charge
Cu	Cu	0.92589 0.50601 0.96326 0.90800
Cu	Cu	0.07411 0.49399 0.46326 0.90800
Cu	Cu	0.07411 0.00601 0.53674 0.90600
Cu	Cu	0.92589 0.99399 0.03674 0.90500
Cu	Cu	0.07411 0.49399 0.03674 0.90900
Cu	Cu	0.92589 0.50601 0.53674 0.90900
Cu	Cu	0.92589 0.99399 0.46326 0.90600
Cu	Cu	0.07411 0.00601 0.96326 0.90600
Cu	Cu	0.00464 0.29705 0.25000 0.91600
Cu	Cu	0.85425 0.22377 0.25000 0.90400
Cu	Cu	0.99536 0.70295 0.75000 0.91600
Cu	Cu	0.14575 0.77623 0.75000 0.90400
Cu	Cu	0.99536 0.79705 0.25000 0.91500
Cu	Cu	0.14575 0.72377 0.25000 0.90400
Cu	Cu	0.00464 0.20295 0.75000 0.91500
Cu	Cu	0.85425 0.27623 0.75000 0.90400
H 	H 	0.90230 0.38560 0.12900 0.07900
H 	H 	0.66190 0.28030 0.11910 0.09900
H 	H 	0.69770 0.38780 0.00820 0.10800
H 	H 	0.48580 0.27500 0.07600 0.04900
H 	H 	0.58470 0.24090 0.05370 0.04900
H 	H 	0.33590 0.30530 0.01170 0.05300
H 	H 	0.43150 0.32540 0.97420 0.05300
H 	H 	0.21120 0.25540 0.86490 0.10000
H 	H 	0.99820 0.37560 0.86890 0.07100
H 	H 	0.24750 0.36720 0.97280 0.09200
H 	H 	0.09770 0.61440 0.62900 0.07900
H 	H 	0.33810 0.71970 0.61910 0.09900
H 	H 	0.30230 0.61220 0.50820 0.10900
H 	H 	0.51420 0.72500 0.57600 0.04900
H 	H 	0.41530 0.75910 0.55370 0.04900
H 	H 	0.66410 0.69470 0.51170 0.05300
H 	H 	0.56850 0.67460 0.47420 0.05300
H 	H 	0.78880 0.74460 0.36490 0.10000
H 	H 	0.00180 0.62440 0.36890 0.07100
H 	H 	0.75250 0.63280 0.47280 0.09200
H 	H 	0.09770 0.88560 0.37100 0.08000
H 	H 	0.33810 0.78030 0.38090 0.09900
H 	H 	0.30230 0.88780 0.49180 0.10900
H 	H 	0.51420 0.77500 0.42400 0.04900
H 	H 	0.41530 0.74090 0.44630 0.04900
H 	H 	0.66410 0.80530 0.48830 0.05200
H 	H 	0.56850 0.82540 0.52580 0.05300
H 	H 	0.78880 0.75540 0.63510 0.10100
H 	H 	0.00180 0.87560 0.63110 0.07500
H 	H 	0.75250 0.86720 0.52720 0.09300
H 	H 	0.90230 0.11440 0.87100 0.08000
H 	H 	0.66190 0.21970 0.88090 0.09900
H 	H 	0.69770 0.11220 0.99180 0.10900
H 	H 	0.48580 0.22500 0.92400 0.04900
H 	H 	0.58470 0.25910 0.94630 0.04900
H 	H 	0.33590 0.19470 0.98830 0.05200
H 	H 	0.43150 0.17460 0.02580 0.05300
H 	H 	0.21120 0.24460 0.13510 0.10100
H 	H 	0.99820 0.12440 0.13110 0.07500
H 	H 	0.24750 0.13280 0.02720 0.09300
H 	H 	0.09770 0.61440 0.87100 0.07900
H 	H 	0.33810 0.71970 0.88090 0.09900
H 	H 	0.30230 0.61220 0.99180 0.10900
H 	H 	0.51420 0.72500 0.92400 0.04800
H 	H 	0.41530 0.75910 0.94630 0.04800
H 	H 	0.66410 0.69470 0.98830 0.05400
H 	H 	0.56850 0.67460 0.02580 0.05300
H 	H 	0.78880 0.74460 0.13510 0.10000
H 	H 	0.00180 0.62440 0.13110 0.07100
H 	H 	0.75250 0.63280 0.02720 0.09200
H 	H 	0.90230 0.38560 0.37100 0.07900
H 	H 	0.66190 0.28030 0.38090 0.09900
H 	H 	0.69770 0.38780 0.49180 0.10900
H 	H 	0.48580 0.27500 0.42400 0.04900
H 	H 	0.58470 0.24090 0.44630 0.04900
H 	H 	0.33590 0.30530 0.48830 0.05300
H 	H 	0.43150 0.32540 0.52580 0.05300
H 	H 	0.21120 0.25540 0.63510 0.10000
H 	H 	0.99820 0.37560 0.63110 0.07100
H 	H 	0.24750 0.36720 0.52720 0.09200
H 	H 	0.90230 0.11440 0.62900 0.08000
H 	H 	0.66190 0.21970 0.61910 0.09900
H 	H 	0.69770 0.11220 0.50820 0.10900
H 	H 	0.48580 0.22500 0.57600 0.04900
H 	H 	0.58470 0.25910 0.55370 0.04900
H 	H 	0.33590 0.19470 0.51170 0.05200
H 	H 	0.43150 0.17460 0.47420 0.05300
H 	H 	0.21120 0.24460 0.36490 0.10100
H 	H 	0.99820 0.12440 0.36890 0.07500
H 	H 	0.24750 0.13280 0.47280 0.09300
H 	H 	0.09770 0.88560 0.12900 0.08000
H 	H 	0.33810 0.78030 0.11910 0.09900
H 	H 	0.30230 0.88780 0.00820 0.10800
H 	H 	0.51420 0.77500 0.07600 0.04800
H 	H 	0.41530 0.74090 0.05370 0.04800
H 	H 	0.66410 0.80530 0.01170 0.05000
H 	H 	0.56850 0.82540 0.97420 0.05200
H 	H 	0.78880 0.75540 0.86490 0.10100
H 	H 	0.00180 0.87560 0.86890 0.07500
H 	H 	0.75250 0.86720 0.97280 0.09300
C 	C 	0.87250 0.43678 0.04064 0.32400
C 	C 	0.80860 0.39360 0.06434 -0.00400
C 	C 	0.84160 0.37160 0.11101 -0.04800
C 	C 	0.78750 0.33023 0.13089 0.00500
C 	C 	0.69940 0.30930 0.10532 -0.14600
C 	C 	0.66620 0.33146 0.05876 0.20900
C 	C 	0.72120 0.37290 0.03974 -0.14500
C 	C 	0.83210 0.30420 0.17974 0.31700
C 	C 	0.53090 0.26800 0.04503 0.00800
C 	C 	0.38600 0.29527 0.98347 -0.00100
C 	C 	0.24210 0.30640 0.92259 0.18900
C 	C 	0.18660 0.28640 0.88059 -0.11800
C 	C 	0.09480 0.31160 0.86125 -0.03000
C 	C 	0.06000 0.35810 0.88245 -0.02500
C 	C 	0.11850 0.37861 0.92457 -0.02600
C 	C 	0.20860 0.35300 0.94442 -0.12200
C 	C 	0.03430 0.28600 0.81902 0.34100
C 	C 	0.07800 0.42677 0.94975 0.34500
C 	C 	0.12750 0.56322 0.54064 0.32500
C 	C 	0.19140 0.60640 0.56434 -0.00400
C 	C 	0.15840 0.62840 0.61101 -0.04800
C 	C 	0.21250 0.66977 0.63089 0.00500
C 	C 	0.30060 0.69070 0.60532 -0.14600
C 	C 	0.33380 0.66854 0.55876 0.20900
C 	C 	0.27880 0.62710 0.53974 -0.14500
C 	C 	0.16790 0.69580 0.67974 0.31700
C 	C 	0.46910 0.73200 0.54503 0.00800
C 	C 	0.61400 0.70473 0.48347 -0.00100
C 	C 	0.75790 0.69360 0.42259 0.18900
C 	C 	0.81340 0.71360 0.38059 -0.11800
C 	C 	0.90520 0.68840 0.36125 -0.03000
C 	C 	0.94000 0.64190 0.38245 -0.02500
C 	C 	0.88150 0.62139 0.42457 -0.02600
C 	C 	0.79140 0.64700 0.44442 -0.12200
C 	C 	0.96570 0.71400 0.31902 0.34100
C 	C 	0.92200 0.57323 0.44975 0.34500
C 	C 	0.12750 0.93678 0.45936 0.32500
C 	C 	0.19140 0.89360 0.43566 -0.00300
C 	C 	0.15840 0.87160 0.38899 -0.04800
C 	C 	0.21250 0.83023 0.36911 0.00500
C 	C 	0.30060 0.80930 0.39468 -0.14600
C 	C 	0.33380 0.83146 0.44124 0.21000
C 	C 	0.27880 0.87290 0.46026 -0.14500
C 	C 	0.16790 0.80420 0.32026 0.31700
C 	C 	0.46910 0.76800 0.45497 0.00900
C 	C 	0.61400 0.79527 0.51653 -0.00000
C 	C 	0.75790 0.80640 0.57741 0.19100
C 	C 	0.81340 0.78640 0.61941 -0.12100
C 	C 	0.90520 0.81160 0.63875 -0.02700
C 	C 	0.94000 0.85810 0.61755 -0.03200
C 	C 	0.88150 0.87861 0.57543 -0.02200
C 	C 	0.79140 0.85300 0.55558 -0.12500
C 	C 	0.96570 0.78600 0.68098 0.33800
C 	C 	0.92200 0.92677 0.55025 0.33900
C 	C 	0.87250 0.06322 0.95936 0.32300
C 	C 	0.80860 0.10640 0.93566 -0.00300
C 	C 	0.84160 0.12840 0.88899 -0.04800
C 	C 	0.78750 0.16977 0.86911 0.00500
C 	C 	0.69940 0.19070 0.89468 -0.14600
C 	C 	0.66620 0.16854 0.94124 0.21000
C 	C 	0.72120 0.12710 0.96026 -0.14500
C 	C 	0.83210 0.19580 0.82026 0.31700
C 	C 	0.53090 0.23200 0.95497 0.00800
C 	C 	0.38600 0.20473 0.01653 0.00000
C 	C 	0.24210 0.19360 0.07741 0.19100
C 	C 	0.18660 0.21360 0.11941 -0.12100
C 	C 	0.09480 0.18840 0.13875 -0.02700
C 	C 	0.06000 0.14190 0.11755 -0.03200
C 	C 	0.11850 0.12139 0.07543 -0.02200
C 	C 	0.20860 0.14700 0.05558 -0.12500
C 	C 	0.03430 0.21400 0.18098 0.33800
C 	C 	0.07800 0.07323 0.05025 0.33900
C 	C 	0.12750 0.56322 0.95936 0.32600
C 	C 	0.19140 0.60640 0.93566 -0.00400
C 	C 	0.15840 0.62840 0.88899 -0.04800
C 	C 	0.21250 0.66977 0.86911 0.00500
C 	C 	0.30060 0.69070 0.89468 -0.14600
C 	C 	0.33380 0.66854 0.94124 0.21000
C 	C 	0.27880 0.62710 0.96026 -0.14500
C 	C 	0.16790 0.69580 0.82026 0.31700
C 	C 	0.46910 0.73200 0.95497 0.01100
C 	C 	0.61400 0.70473 0.01653 -0.00100
C 	C 	0.75790 0.69360 0.07741 0.18800
C 	C 	0.81340 0.71360 0.11941 -0.11800
C 	C 	0.90520 0.68840 0.13875 -0.03000
C 	C 	0.94000 0.64190 0.11755 -0.02500
C 	C 	0.88150 0.62139 0.07543 -0.02600
C 	C 	0.79140 0.64700 0.05558 -0.12200
C 	C 	0.96570 0.71400 0.18098 0.34100
C 	C 	0.92200 0.57323 0.05025 0.34500
C 	C 	0.87250 0.43678 0.45936 0.32500
C 	C 	0.80860 0.39360 0.43566 -0.00400
C 	C 	0.84160 0.37160 0.38899 -0.04800
C 	C 	0.78750 0.33023 0.36911 0.00500
C 	C 	0.69940 0.30930 0.39468 -0.14600
C 	C 	0.66620 0.33146 0.44124 0.20900
C 	C 	0.72120 0.37290 0.46026 -0.14500
C 	C 	0.83210 0.30420 0.32026 0.31700
C 	C 	0.53090 0.26800 0.45497 0.00800
C 	C 	0.38600 0.29527 0.51653 -0.00100
C 	C 	0.24210 0.30640 0.57741 0.18900
C 	C 	0.18660 0.28640 0.61941 -0.11800
C 	C 	0.09480 0.31160 0.63875 -0.03000
C 	C 	0.06000 0.35810 0.61755 -0.02500
C 	C 	0.11850 0.37861 0.57543 -0.02600
C 	C 	0.20860 0.35300 0.55558 -0.12200
C 	C 	0.03430 0.28600 0.68098 0.34100
C 	C 	0.07800 0.42677 0.55025 0.34500
C 	C 	0.87250 0.06322 0.54064 0.32500
C 	C 	0.80860 0.10640 0.56434 -0.00300
C 	C 	0.84160 0.12840 0.61101 -0.04800
C 	C 	0.78750 0.16977 0.63089 0.00500
C 	C 	0.69940 0.19070 0.60532 -0.14600
C 	C 	0.66620 0.16854 0.55876 0.21000
C 	C 	0.72120 0.12710 0.53974 -0.14500
C 	C 	0.83210 0.19580 0.67974 0.31700
C 	C 	0.53090 0.23200 0.54503 0.00900
C 	C 	0.38600 0.20473 0.48347 -0.00000
C 	C 	0.24210 0.19360 0.42259 0.19100
C 	C 	0.18660 0.21360 0.38059 -0.12100
C 	C 	0.09480 0.18840 0.36125 -0.02700
C 	C 	0.06000 0.14190 0.38245 -0.03200
C 	C 	0.11850 0.12139 0.42457 -0.02200
C 	C 	0.20860 0.14700 0.44442 -0.12500
C 	C 	0.03430 0.21400 0.31902 0.33800
C 	C 	0.07800 0.07323 0.44975 0.33900
C 	C 	0.12750 0.93678 0.04064 0.32200
C 	C 	0.19140 0.89360 0.06434 -0.00200
C 	C 	0.15840 0.87160 0.11101 -0.04900
C 	C 	0.21250 0.83023 0.13089 0.00500
C 	C 	0.30060 0.80930 0.10532 -0.14700
C 	C 	0.33380 0.83146 0.05876 0.21000
C 	C 	0.27880 0.87290 0.03974 -0.14600
C 	C 	0.16790 0.80420 0.17974 0.31700
C 	C 	0.46910 0.76800 0.04503 0.01000
C 	C 	0.61400 0.79527 0.98347 0.00500
C 	C 	0.75790 0.80640 0.92259 0.19200
C 	C 	0.81340 0.78640 0.88059 -0.12100
C 	C 	0.90520 0.81160 0.86125 -0.02600
C 	C 	0.94000 0.85810 0.88245 -0.03300
C 	C 	0.88150 0.87861 0.92457 -0.02100
C 	C 	0.79140 0.85300 0.94442 -0.12500
C 	C 	0.96570 0.78600 0.81902 0.33800
C 	C 	0.92200 0.92677 0.94975 0.33900
C 	C 	0.45770 0.25000 -0.00000 0.02400
C 	C 	0.54230 0.75000 0.50000 0.02400
C 	C 	0.54230 0.75000 -0.00000 0.02100
C 	C 	0.45770 0.25000 0.50000 0.02400
O 	O 	0.83700 0.45629 0.99993 -0.39600
O 	O 	0.96290 0.44782 0.06270 -0.40000
O 	O 	0.91700 0.32680 0.19778 -0.40100
O 	O 	0.78330 0.26546 0.19596 -0.39400
O 	O 	0.58490 0.31328 0.02930 -0.23300
O 	O 	0.32560 0.27763 0.93969 -0.22400
O 	O 	0.12460 0.43912 0.99101 -0.40600
O 	O 	0.99810 0.44841 0.92930 -0.40200
O 	O 	0.94710 0.30736 0.80307 -0.39400
O 	O 	0.07210 0.24487 0.80191 -0.41000
O 	O 	0.16300 0.54371 0.49993 -0.39700
O 	O 	0.03710 0.55218 0.56270 -0.40000
O 	O 	0.08300 0.67320 0.69778 -0.40100
O 	O 	0.21670 0.73454 0.69596 -0.39400
O 	O 	0.41510 0.68672 0.52930 -0.23300
O 	O 	0.67440 0.72237 0.43969 -0.22400
O 	O 	0.87540 0.56088 0.49101 -0.40600
O 	O 	0.00190 0.55159 0.42930 -0.40200
O 	O 	0.05290 0.69264 0.30307 -0.39400
O 	O 	0.92790 0.75513 0.30191 -0.41000
O 	O 	0.16300 0.95629 0.50007 -0.39500
O 	O 	0.03710 0.94782 0.43730 -0.39700
O 	O 	0.08300 0.82680 0.30222 -0.40000
O 	O 	0.21670 0.76546 0.30404 -0.39400
O 	O 	0.41510 0.81328 0.47070 -0.23300
O 	O 	0.67440 0.77763 0.56031 -0.22500
O 	O 	0.87540 0.93912 0.50899 -0.40500
O 	O 	0.00190 0.94841 0.57070 -0.39700
O 	O 	0.05290 0.80736 0.69693 -0.39300
O 	O 	0.92790 0.74487 0.69809 -0.40900
O 	O 	0.83700 0.04371 0.00007 -0.39400
O 	O 	0.96290 0.05218 0.93730 -0.39800
O 	O 	0.91700 0.17320 0.80222 -0.40000
O 	O 	0.78330 0.23454 0.80404 -0.39400
O 	O 	0.58490 0.18672 0.97070 -0.23300
O 	O 	0.32560 0.22237 0.06031 -0.22500
O 	O 	0.12460 0.06088 0.00899 -0.40500
O 	O 	0.99810 0.05159 0.07070 -0.39700
O 	O 	0.94710 0.19264 0.19693 -0.39300
O 	O 	0.07210 0.25513 0.19809 -0.40900
O 	O 	0.16300 0.54371 0.00007 -0.39800
O 	O 	0.03710 0.55218 0.93730 -0.40000
O 	O 	0.08300 0.67320 0.80222 -0.40100
O 	O 	0.21670 0.73454 0.80404 -0.39400
O 	O 	0.41510 0.68672 0.97070 -0.23300
O 	O 	0.67440 0.72237 0.06031 -0.22400
O 	O 	0.87540 0.56088 0.00899 -0.40600
O 	O 	0.00190 0.55159 0.07070 -0.40300
O 	O 	0.05290 0.69264 0.19693 -0.39400
O 	O 	0.92790 0.75513 0.19809 -0.41000
O 	O 	0.83700 0.45629 0.50007 -0.39700
O 	O 	0.96290 0.44782 0.43730 -0.40000
O 	O 	0.91700 0.32680 0.30222 -0.40100
O 	O 	0.78330 0.26546 0.30404 -0.39400
O 	O 	0.58490 0.31328 0.47070 -0.23300
O 	O 	0.32560 0.27763 0.56031 -0.22400
O 	O 	0.12460 0.43912 0.50899 -0.40600
O 	O 	0.99810 0.44841 0.57070 -0.40200
O 	O 	0.94710 0.30736 0.69693 -0.39400
O 	O 	0.07210 0.24487 0.69809 -0.41000
O 	O 	0.83700 0.04371 0.49993 -0.39500
O 	O 	0.96290 0.05218 0.56270 -0.39700
O 	O 	0.91700 0.17320 0.69778 -0.40000
O 	O 	0.78330 0.23454 0.69596 -0.39400
O 	O 	0.58490 0.18672 0.52930 -0.23300
O 	O 	0.32560 0.22237 0.43969 -0.22500
O 	O 	0.12460 0.06088 0.49101 -0.40500
O 	O 	0.99810 0.05159 0.42930 -0.39700
O 	O 	0.94710 0.19264 0.30307 -0.39300
O 	O 	0.07210 0.25513 0.30191 -0.40900
O 	O 	0.16300 0.95629 0.99993 -0.39300
O 	O 	0.03710 0.94782 0.06270 -0.39700
O 	O 	0.08300 0.82680 0.19778 -0.40000
O 	O 	0.21670 0.76546 0.19596 -0.39400
O 	O 	0.41510 0.81328 0.02930 -0.23400
O 	O 	0.67440 0.77763 0.93969 -0.22500
O 	O 	0.87540 0.93912 0.99101 -0.40400
O 	O 	0.00190 0.94841 0.92930 -0.39700
O 	O 	0.05290 0.80736 0.80307 -0.39300
O 	O 	0.92790 0.74487 0.80191 -0.40900
