data_crystal

_cell_length_a 13.51860
_cell_length_b 10.76850
_cell_length_c 14.63230
_cell_angle_alpha 90.00000
_cell_angle_beta  110.63000
_cell_angle_gamma 90.00000

_symmetry_space_group_name_	'P 1'
_symmetry_space_group_name_H-M	'P 1'

loop_
_symmetry_equiv_pos_as_xyz
  x,y,z

loop_
_atom_site_label
_atom_site_type_symbol
_atom_site_fract_x
_atom_site_fract_y
_atom_site_fract_z
_atom_site_charge
Co	Co	0.41053 0.90409 0.46176 1.16500
Co	Co	0.50388 0.01066 0.29220 1.18400
O 	O 	0.30472 0.03122 0.37356 -0.41600
O 	O 	0.39011 0.13533 0.29092 -0.42700
O 	O 	0.38627 0.40425 0.23872 -0.38100
O 	O 	0.31281 0.28440 0.10790 -0.25600
O 	O 	0.62002 0.14612 0.34043 -0.42200
O 	O 	0.71394 0.15218 0.50123 -0.40100
O 	O 	0.63383 0.27744 0.15312 -0.40600
O 	O 	0.62812 0.39582 0.27776 -0.38200
O 	O 	0.53793 0.95995 0.43124 -0.58400
C 	C 	0.31360 0.11720 0.31966 0.35500
C 	C 	0.22430 0.20920 0.28520 -0.03600
C 	C 	0.13990 0.19560 0.31770 -0.04900
H 	H 	0.14030 0.12970 0.35890 0.06800
C 	C 	0.05500 0.27720 0.29060 0.02500
C 	C 	0.05730 0.37570 0.22900 -0.07300
H 	H 	0.00180 0.43230 0.20970 0.06400
C 	C 	0.14080 0.38990 0.19640 0.00200
H 	H 	0.14030 0.45590 0.15530 0.03900
C 	C 	0.22580 0.30800 0.22370 -0.04700
C 	C 	0.31600 0.33170 0.18700 0.33700
C 	C 	0.96610 0.25830 0.32600 0.04000
C 	C 	0.98210 0.20250 0.41660 -0.09700
H 	H 	0.05030 0.18160 0.45680 0.07500
C 	C 	0.89840 0.17800 0.44740 0.02200
H 	H 	0.91090 0.14050 0.50770 0.03700
C 	C 	0.79580 0.20900 0.38887 -0.07400
C 	C 	0.77880 0.27020 0.30059 -0.01400
C 	C 	0.86290 0.29300 0.26940 -0.06700
H 	H 	0.85040 0.33220 0.20970 0.07200
C 	C 	0.70240 0.16550 0.41295 0.36600
C 	C 	0.67070 0.31660 0.23910 0.34200
Ni	Ni	0.58947 0.09591 0.53824 1.09600
Ni	Ni	0.49612 0.51066 0.20780 1.11400
Co	Co	0.58947 0.40409 0.03824 1.16500
O 	O 	0.69528 0.53122 0.12644 -0.41500
O 	O 	0.60989 0.63533 0.20908 -0.41600
O 	O 	0.61373 0.90425 0.26128 -0.39300
O 	O 	0.68719 0.78440 0.39210 -0.25600
O 	O 	0.37998 0.64612 0.15957 -0.41100
O 	O 	0.28606 0.65218 0.99877 -0.40000
O 	O 	0.36617 0.77744 0.34688 -0.40700
O 	O 	0.37188 0.89582 0.22224 -0.39400
O 	O 	0.46207 0.45995 0.06876 -0.57300
C 	C 	0.68640 0.61720 0.18034 0.35200
C 	C 	0.77570 0.70920 0.21480 -0.03400
C 	C 	0.86010 0.69560 0.18230 -0.05000
H 	H 	0.85970 0.62970 0.14110 0.06800
C 	C 	0.94500 0.77720 0.20940 0.02600
C 	C 	0.94270 0.87570 0.27100 -0.07500
H 	H 	0.99820 0.93230 0.29030 0.06400
C 	C 	0.85920 0.88990 0.30360 0.00400
H 	H 	0.85970 0.95590 0.34470 0.03800
C 	C 	0.77420 0.80800 0.27630 -0.04900
C 	C 	0.68400 0.83170 0.31300 0.34000
C 	C 	0.03390 0.75830 0.17400 0.03800
C 	C 	0.01790 0.70250 0.08340 -0.09300
H 	H 	0.94970 0.68160 0.04320 0.07300
C 	C 	0.10160 0.67800 0.05260 0.01900
H 	H 	0.08910 0.64050 0.99230 0.03700
C 	C 	0.20420 0.70900 0.11113 -0.07100
C 	C 	0.22120 0.77020 0.19941 -0.01700
C 	C 	0.13710 0.79300 0.23060 -0.06500
H 	H 	0.14960 0.83220 0.29030 0.07100
C 	C 	0.29760 0.66550 0.08705 0.36200
C 	C 	0.32930 0.81660 0.26090 0.34500
Ni	Ni	0.41053 0.59591 0.96176 1.09700
Co	Co	0.49612 0.98934 0.70780 1.18200
O 	O 	0.69528 0.96878 0.62644 -0.40900
O 	O 	0.60989 0.86467 0.70908 -0.42700
O 	O 	0.61373 0.59575 0.76128 -0.38100
O 	O 	0.68719 0.71560 0.89210 -0.25500
O 	O 	0.37998 0.85388 0.65957 -0.42600
O 	O 	0.28606 0.84782 0.49877 -0.41400
O 	O 	0.36617 0.72256 0.84688 -0.39600
O 	O 	0.37188 0.60418 0.72224 -0.38000
O 	O 	0.46207 0.04005 0.56876 -0.58100
C 	C 	0.68640 0.88280 0.68034 0.35200
C 	C 	0.77570 0.79080 0.71480 -0.03500
C 	C 	0.86010 0.80440 0.68230 -0.04900
H 	H 	0.85970 0.87030 0.64110 0.06800
C 	C 	0.94500 0.72280 0.70940 0.02400
C 	C 	0.94270 0.62430 0.77100 -0.07400
H 	H 	0.99820 0.56770 0.79030 0.06400
C 	C 	0.85920 0.61010 0.80360 0.00300
H 	H 	0.85970 0.54410 0.84470 0.03900
C 	C 	0.77420 0.69200 0.77630 -0.04700
C 	C 	0.68400 0.66830 0.81300 0.33700
C 	C 	0.03390 0.74170 0.67400 0.04000
C 	C 	0.01790 0.79750 0.58340 -0.09800
H 	H 	0.94970 0.81840 0.54320 0.07500
C 	C 	0.10160 0.82200 0.55260 0.02300
H 	H 	0.08910 0.85950 0.49230 0.03600
C 	C 	0.20420 0.79100 0.61113 -0.07600
C 	C 	0.22120 0.72980 0.69941 -0.01300
C 	C 	0.13710 0.70700 0.73060 -0.06800
H 	H 	0.14960 0.66780 0.79030 0.07300
C 	C 	0.29760 0.83450 0.58705 0.36800
C 	C 	0.32930 0.68340 0.76090 0.34000
Ni	Ni	0.50388 0.48934 0.79220 1.11400
O 	O 	0.30472 0.46878 0.87356 -0.40500
O 	O 	0.39011 0.36467 0.79092 -0.41500
O 	O 	0.38627 0.09575 0.73872 -0.39100
O 	O 	0.31281 0.21560 0.60790 -0.25600
O 	O 	0.62002 0.35388 0.84043 -0.41600
O 	O 	0.71394 0.34782 0.00123 -0.41500
O 	O 	0.63383 0.22256 0.65312 -0.39600
O 	O 	0.62812 0.10418 0.77776 -0.38900
O 	O 	0.53793 0.54005 0.93124 -0.57100
C 	C 	0.31360 0.38280 0.81966 0.34900
C 	C 	0.22430 0.29080 0.78520 -0.03300
C 	C 	0.13990 0.30440 0.81770 -0.04900
H 	H 	0.14030 0.37030 0.85890 0.06900
C 	C 	0.05500 0.22280 0.79060 0.02400
C 	C 	0.05730 0.12430 0.72900 -0.07300
H 	H 	0.00180 0.06770 0.70970 0.06400
C 	C 	0.14080 0.11010 0.69640 0.00400
H 	H 	0.14030 0.04410 0.65530 0.04000
C 	C 	0.22580 0.19200 0.72370 -0.04900
C 	C 	0.31600 0.16830 0.68700 0.34000
C 	C 	0.96610 0.24170 0.82600 0.04200
C 	C 	0.98210 0.29750 0.91660 -0.10000
H 	H 	0.05030 0.31840 0.95680 0.07600
C 	C 	0.89840 0.32200 0.94740 0.03000
H 	H 	0.91090 0.35950 0.00770 0.03200
C 	C 	0.79580 0.29100 0.88887 -0.07700
C 	C 	0.77880 0.22980 0.80059 -0.01200
C 	C 	0.86290 0.20700 0.76940 -0.06900
H 	H 	0.85040 0.16780 0.70970 0.07400
C 	C 	0.70240 0.33450 0.91295 0.37000
C 	C 	0.67070 0.18340 0.73910 0.34200
