data_crystal

_cell_length_a 13.56740
_cell_length_b 10.79420
_cell_length_c 14.68370
_cell_angle_alpha 90.00000
_cell_angle_beta  110.63800
_cell_angle_gamma 90.00000

_symmetry_space_group_name_	'P 1'
_symmetry_space_group_name_H-M	'P 1'

loop_
_symmetry_equiv_pos_as_xyz
  x,y,z

loop_
_atom_site_label
_atom_site_type_symbol
_atom_site_fract_x
_atom_site_fract_y
_atom_site_fract_z
_atom_site_charge
Co	Co	0.40987 0.90280 0.46142 1.16000
Co	Co	0.50402 0.01028 0.29222 1.17600
O 	O 	0.30272 0.03092 0.37225 -0.41500
O 	O 	0.38901 0.13589 0.29179 -0.42600
O 	O 	0.38502 0.40408 0.23917 -0.39200
O 	O 	0.31160 0.28409 0.10882 -0.25800
O 	O 	0.62115 0.14649 0.34146 -0.42600
O 	O 	0.71514 0.15291 0.50127 -0.41300
O 	O 	0.63351 0.27700 0.15425 -0.40900
O 	O 	0.62934 0.39555 0.27859 -0.39300
O 	O 	0.53869 0.95877 0.43211 -0.58700
C 	C 	0.31196 0.11703 0.31935 0.35300
C 	C 	0.22361 0.20968 0.28526 -0.03700
C 	C 	0.13904 0.19568 0.31758 -0.04900
H 	H 	0.13930 0.12970 0.35840 0.06800
C 	C 	0.05451 0.27732 0.29057 0.02400
C 	C 	0.05677 0.37567 0.22936 -0.07300
H 	H 	0.00130 0.43200 0.21020 0.06300
C 	C 	0.14036 0.39052 0.19682 0.00100
H 	H 	0.14010 0.45670 0.15620 0.04000
C 	C 	0.22479 0.30800 0.22402 -0.04700
C 	C 	0.31508 0.33177 0.18769 0.33800
C 	C 	0.96568 0.25856 0.32627 0.04000
C 	C 	0.98246 0.20296 0.41656 -0.09700
H 	H 	0.05060 0.18220 0.45630 0.07500
C 	C 	0.89899 0.17834 0.44764 0.02100
H 	H 	0.91150 0.14110 0.50780 0.03600
C 	C 	0.79664 0.20915 0.38914 -0.07500
C 	C 	0.77944 0.27047 0.30119 -0.01500
C 	C 	0.86273 0.29338 0.26935 -0.06700
H 	H 	0.85010 0.33220 0.20970 0.07200
C 	C 	0.67124 0.31638 0.24022 0.34300
C 	C 	0.70332 0.16615 0.41328 0.36800
Co	Co	0.59012 0.40280 0.03858 1.15900
Co	Co	0.49598 0.51028 0.20778 1.17500
O 	O 	0.69728 0.53092 0.12775 -0.41500
O 	O 	0.61099 0.63589 0.20821 -0.42500
O 	O 	0.61498 0.90408 0.26083 -0.39200
O 	O 	0.68840 0.78409 0.39118 -0.25800
O 	O 	0.37885 0.64649 0.15854 -0.42600
O 	O 	0.28486 0.65291 0.99873 -0.41400
O 	O 	0.36649 0.77700 0.34575 -0.40900
O 	O 	0.37066 0.89555 0.22141 -0.39200
O 	O 	0.46131 0.45877 0.06789 -0.58800
C 	C 	0.68804 0.61703 0.18065 0.35400
C 	C 	0.77639 0.70968 0.21474 -0.03700
C 	C 	0.86096 0.69568 0.18242 -0.04800
H 	H 	0.86070 0.62970 0.14160 0.06700
C 	C 	0.94549 0.77732 0.20943 0.02300
C 	C 	0.94323 0.87567 0.27064 -0.07200
H 	H 	0.99870 0.93200 0.28980 0.06300
C 	C 	0.85964 0.89052 0.30318 0.00000
H 	H 	0.85990 0.95670 0.34380 0.04000
C 	C 	0.77521 0.80800 0.27598 -0.04600
C 	C 	0.68492 0.83177 0.31231 0.33800
C 	C 	0.03432 0.75856 0.17373 0.04100
C 	C 	0.01754 0.70296 0.08344 -0.09700
H 	H 	0.94940 0.68220 0.04370 0.07500
C 	C 	0.10101 0.67834 0.05236 0.02500
H 	H 	0.08850 0.64110 0.99220 0.03400
C 	C 	0.20336 0.70915 0.11086 -0.07600
C 	C 	0.22056 0.77047 0.19881 -0.01400
C 	C 	0.13727 0.79338 0.23065 -0.06800
H 	H 	0.14990 0.83220 0.29030 0.07200
C 	C 	0.32876 0.81638 0.25978 0.34300
C 	C 	0.29668 0.66615 0.08672 0.37000
Co	Co	0.59012 0.09720 0.53858 1.15900
Co	Co	0.49598 0.98972 0.70778 1.17500
O 	O 	0.69728 0.96908 0.62775 -0.41500
O 	O 	0.61099 0.86411 0.70821 -0.42600
O 	O 	0.61498 0.59592 0.76083 -0.39200
O 	O 	0.68840 0.71591 0.89118 -0.25800
O 	O 	0.37885 0.85351 0.65854 -0.42600
O 	O 	0.28486 0.84709 0.49873 -0.41300
O 	O 	0.36649 0.72300 0.84575 -0.40900
O 	O 	0.37066 0.60445 0.72141 -0.39300
O 	O 	0.46131 0.04123 0.56789 -0.58700
C 	C 	0.68804 0.88297 0.68065 0.35300
C 	C 	0.77639 0.79032 0.71474 -0.03700
C 	C 	0.86096 0.80432 0.68242 -0.04900
H 	H 	0.86070 0.87030 0.64160 0.06800
C 	C 	0.94549 0.72268 0.70943 0.02400
C 	C 	0.94323 0.62433 0.77064 -0.07300
H 	H 	0.99870 0.56800 0.78980 0.06300
C 	C 	0.85964 0.60948 0.80318 0.00100
H 	H 	0.85990 0.54330 0.84380 0.04000
C 	C 	0.77521 0.69200 0.77598 -0.04700
C 	C 	0.68492 0.66823 0.81231 0.33800
C 	C 	0.03432 0.74144 0.67373 0.04000
C 	C 	0.01754 0.79704 0.58344 -0.09700
H 	H 	0.94940 0.81780 0.54370 0.07500
C 	C 	0.10101 0.82166 0.55236 0.02100
H 	H 	0.08850 0.85890 0.49220 0.03600
C 	C 	0.20336 0.79085 0.61086 -0.07500
C 	C 	0.22056 0.72953 0.69881 -0.01500
C 	C 	0.13727 0.70662 0.73065 -0.06700
H 	H 	0.14990 0.66780 0.79030 0.07200
C 	C 	0.32876 0.68362 0.75978 0.34300
C 	C 	0.29668 0.83385 0.58672 0.36800
Co	Co	0.40987 0.59720 0.96142 1.15900
Co	Co	0.50402 0.48972 0.79222 1.17500
O 	O 	0.30272 0.46908 0.87225 -0.41500
O 	O 	0.38901 0.36411 0.79179 -0.42500
O 	O 	0.38502 0.09592 0.73917 -0.39200
O 	O 	0.31160 0.21591 0.60882 -0.25800
O 	O 	0.62115 0.35351 0.84146 -0.42600
O 	O 	0.71514 0.34709 0.00127 -0.41400
O 	O 	0.63351 0.22300 0.65425 -0.40900
O 	O 	0.62934 0.10445 0.77859 -0.39200
O 	O 	0.53869 0.54123 0.93211 -0.58800
C 	C 	0.31196 0.38297 0.81935 0.35400
C 	C 	0.22361 0.29032 0.78526 -0.03700
C 	C 	0.13904 0.30432 0.81758 -0.04800
H 	H 	0.13930 0.37030 0.85840 0.06700
C 	C 	0.05451 0.22268 0.79057 0.02300
C 	C 	0.05677 0.12433 0.72936 -0.07200
H 	H 	0.00130 0.06800 0.71020 0.06300
C 	C 	0.14036 0.10948 0.69682 0.00000
H 	H 	0.14010 0.04330 0.65620 0.04000
C 	C 	0.22479 0.19200 0.72402 -0.04600
C 	C 	0.31508 0.16823 0.68769 0.33800
C 	C 	0.96568 0.24144 0.82627 0.04100
C 	C 	0.98246 0.29704 0.91656 -0.09700
H 	H 	0.05060 0.31780 0.95630 0.07500
C 	C 	0.89899 0.32166 0.94764 0.02500
H 	H 	0.91150 0.35890 0.00780 0.03400
C 	C 	0.79664 0.29085 0.88914 -0.07600
C 	C 	0.77944 0.22953 0.80119 -0.01400
C 	C 	0.86273 0.20662 0.76935 -0.06800
H 	H 	0.85010 0.16780 0.70970 0.07200
C 	C 	0.67124 0.18362 0.74022 0.34300
C 	C 	0.70332 0.33385 0.91328 0.37000
