data_crystal

_cell_length_a 13.58200
_cell_length_b 10.81730
_cell_length_c 14.70370
_cell_angle_alpha 90.00000
_cell_angle_beta  110.62800
_cell_angle_gamma 90.00000

_symmetry_space_group_name_	'P 1'
_symmetry_space_group_name_H-M	'P 1'

loop_
_symmetry_equiv_pos_as_xyz
  x,y,z

loop_
_atom_site_label
_atom_site_type_symbol
_atom_site_fract_x
_atom_site_fract_y
_atom_site_fract_z
_atom_site_charge
Co	Co	0.40941 0.90254 0.46114 1.15800
Co	Co	0.50410 0.01046 0.29235 1.17300
O 	O 	0.30172 0.03083 0.37160 -0.41200
O 	O 	0.38877 0.13630 0.29235 -0.42200
O 	O 	0.38447 0.40418 0.23928 -0.39100
O 	O 	0.31142 0.28408 0.10944 -0.26000
O 	O 	0.63364 0.27725 0.15496 -0.40900
O 	O 	0.62982 0.39602 0.27882 -0.39400
O 	O 	0.62142 0.14716 0.34224 -0.42800
O 	O 	0.71553 0.15317 0.50142 -0.41200
O 	O 	0.53886 0.95816 0.43238 -0.58500
C 	C 	0.31113 0.11726 0.31921 0.35100
C 	C 	0.22301 0.20960 0.28510 -0.03600
C 	C 	0.13865 0.19590 0.31731 -0.04900
H 	H 	0.13880 0.13010 0.35800 0.06800
C 	C 	0.05419 0.27770 0.29054 0.02400
C 	C 	0.05648 0.37570 0.22964 -0.07300
H 	H 	0.00120 0.43190 0.21060 0.06300
C 	C 	0.14014 0.39060 0.19701 0.00100
H 	H 	0.13990 0.45670 0.15650 0.03900
C 	C 	0.22444 0.30820 0.22402 -0.04700
C 	C 	0.31480 0.33170 0.18789 0.33900
C 	C 	0.96545 0.25880 0.32628 0.04000
C 	C 	0.86282 0.29380 0.26968 -0.06800
H 	H 	0.85030 0.33280 0.21030 0.07200
C 	C 	0.77952 0.27067 0.30137 -0.01500
C 	C 	0.79689 0.20917 0.38915 -0.07600
C 	C 	0.89896 0.17870 0.44720 0.02300
H 	H 	0.91150 0.14160 0.50730 0.03600
C 	C 	0.98228 0.20300 0.41637 -0.09800
H 	H 	0.05030 0.18200 0.45600 0.07500
C 	C 	0.67144 0.31693 0.24067 0.34400
C 	C 	0.70345 0.16676 0.41314 0.37000
Co	Co	0.59059 0.40254 0.03886 1.15700
Co	Co	0.49590 0.51046 0.20765 1.17300
O 	O 	0.69828 0.53083 0.12840 -0.41300
O 	O 	0.61123 0.63630 0.20765 -0.42300
O 	O 	0.61553 0.90418 0.26072 -0.39100
O 	O 	0.68858 0.78408 0.39056 -0.25900
O 	O 	0.36636 0.77725 0.34504 -0.40900
O 	O 	0.37018 0.89602 0.22118 -0.39300
O 	O 	0.37858 0.64716 0.15776 -0.42800
O 	O 	0.28447 0.65317 0.99858 -0.41400
O 	O 	0.46114 0.45816 0.06762 -0.58500
C 	C 	0.68887 0.61726 0.18079 0.35100
C 	C 	0.77699 0.70960 0.21490 -0.03700
C 	C 	0.86135 0.69590 0.18269 -0.04800
H 	H 	0.86120 0.63010 0.14200 0.06700
C 	C 	0.94581 0.77770 0.20946 0.02300
C 	C 	0.94352 0.87570 0.27036 -0.07200
H 	H 	0.99880 0.93190 0.28940 0.06400
C 	C 	0.85986 0.89060 0.30299 0.00100
H 	H 	0.86010 0.95670 0.34350 0.04000
C 	C 	0.77556 0.80820 0.27598 -0.04700
C 	C 	0.68520 0.83170 0.31211 0.33800
C 	C 	0.03455 0.75880 0.17372 0.04200
C 	C 	0.13718 0.79380 0.23032 -0.06900
H 	H 	0.14970 0.83280 0.28970 0.07300
C 	C 	0.22048 0.77067 0.19863 -0.01400
C 	C 	0.20311 0.70917 0.11085 -0.07800
C 	C 	0.10104 0.67870 0.05280 0.02700
H 	H 	0.08850 0.64160 0.99270 0.03400
C 	C 	0.01772 0.70300 0.08363 -0.09900
H 	H 	0.94970 0.68200 0.04400 0.07500
C 	C 	0.32856 0.81693 0.25933 0.34300
C 	C 	0.29655 0.66676 0.08686 0.37200
Co	Co	0.59059 0.09746 0.53886 1.15700
Co	Co	0.49590 0.98954 0.70765 1.17200
O 	O 	0.69828 0.96917 0.62840 -0.41300
O 	O 	0.61123 0.86370 0.70765 -0.42300
O 	O 	0.61553 0.59582 0.76072 -0.39100
O 	O 	0.68858 0.71592 0.89056 -0.26000
O 	O 	0.36636 0.72275 0.84504 -0.40900
O 	O 	0.37018 0.60398 0.72118 -0.39400
O 	O 	0.37858 0.85284 0.65776 -0.42800
O 	O 	0.28447 0.84683 0.49858 -0.41200
O 	O 	0.46114 0.04184 0.56762 -0.58500
C 	C 	0.68887 0.88274 0.68079 0.35100
C 	C 	0.77699 0.79040 0.71490 -0.03600
C 	C 	0.86135 0.80410 0.68269 -0.04900
H 	H 	0.86120 0.86990 0.64200 0.06800
C 	C 	0.94581 0.72230 0.70946 0.02400
C 	C 	0.94352 0.62430 0.77036 -0.07300
H 	H 	0.99880 0.56810 0.78940 0.06300
C 	C 	0.85986 0.60940 0.80299 0.00100
H 	H 	0.86010 0.54330 0.84350 0.03900
C 	C 	0.77556 0.69180 0.77598 -0.04700
C 	C 	0.68520 0.66830 0.81211 0.33900
C 	C 	0.03455 0.74120 0.67372 0.04000
C 	C 	0.13718 0.70620 0.73032 -0.06800
H 	H 	0.14970 0.66720 0.78970 0.07200
C 	C 	0.22048 0.72933 0.69863 -0.01500
C 	C 	0.20311 0.79083 0.61085 -0.07600
C 	C 	0.10104 0.82130 0.55280 0.02300
H 	H 	0.08850 0.85840 0.49270 0.03600
C 	C 	0.01772 0.79700 0.58363 -0.09800
H 	H 	0.94970 0.81800 0.54400 0.07500
C 	C 	0.32856 0.68307 0.75933 0.34400
C 	C 	0.29655 0.83324 0.58686 0.37000
Co	Co	0.40941 0.59746 0.96114 1.15700
Co	Co	0.50410 0.48954 0.79235 1.17300
O 	O 	0.30172 0.46917 0.87160 -0.41300
O 	O 	0.38877 0.36370 0.79235 -0.42300
O 	O 	0.38447 0.09582 0.73928 -0.39100
O 	O 	0.31142 0.21592 0.60944 -0.25900
O 	O 	0.63364 0.22275 0.65496 -0.40900
O 	O 	0.62982 0.10398 0.77882 -0.39300
O 	O 	0.62142 0.35284 0.84224 -0.42800
O 	O 	0.71553 0.34683 0.00142 -0.41400
O 	O 	0.53886 0.54184 0.93238 -0.58500
C 	C 	0.31113 0.38274 0.81921 0.35100
C 	C 	0.22301 0.29040 0.78510 -0.03700
C 	C 	0.13865 0.30410 0.81731 -0.04800
H 	H 	0.13880 0.36990 0.85800 0.06700
C 	C 	0.05419 0.22230 0.79054 0.02300
C 	C 	0.05648 0.12430 0.72964 -0.07200
H 	H 	0.00120 0.06810 0.71060 0.06400
C 	C 	0.14014 0.10940 0.69701 0.00100
H 	H 	0.13990 0.04330 0.65650 0.04000
C 	C 	0.22444 0.19180 0.72402 -0.04700
C 	C 	0.31480 0.16830 0.68789 0.33800
C 	C 	0.96545 0.24120 0.82628 0.04200
C 	C 	0.86282 0.20620 0.76968 -0.06900
H 	H 	0.85030 0.16720 0.71030 0.07300
C 	C 	0.77952 0.22933 0.80137 -0.01400
C 	C 	0.79689 0.29083 0.88915 -0.07800
C 	C 	0.89896 0.32130 0.94720 0.02700
H 	H 	0.91150 0.35840 0.00730 0.03400
C 	C 	0.98228 0.29700 0.91637 -0.09900
H 	H 	0.05030 0.31800 0.95600 0.07500
C 	C 	0.67144 0.18307 0.74067 0.34300
C 	C 	0.70345 0.33324 0.91314 0.37200
