data_crystal

_cell_length_a 13.52040
_cell_length_b 10.76390
_cell_length_c 14.63480
_cell_angle_alpha 90.00000
_cell_angle_beta  110.53200
_cell_angle_gamma 90.00000

_symmetry_space_group_name_	'P 1'
_symmetry_space_group_name_H-M	'P 1'

loop_
_symmetry_equiv_pos_as_xyz
  x,y,z

loop_
_atom_site_label
_atom_site_type_symbol
_atom_site_fract_x
_atom_site_fract_y
_atom_site_fract_z
_atom_site_charge
Ni	Ni	0.41060 0.90524 0.46182 1.10100
Ni	Ni	0.50346 0.01181 0.29197 1.11700
O 	O 	0.30576 0.03260 0.37520 -0.40400
O 	O 	0.39079 0.13640 0.29150 -0.41100
O 	O 	0.38686 0.40560 0.23922 -0.38000
O 	O 	0.31370 0.28500 0.10846 -0.25200
O 	O 	0.61929 0.14680 0.33959 -0.41100
O 	O 	0.71288 0.15130 0.50044 -0.39900
O 	O 	0.63474 0.27860 0.15272 -0.39300
O 	O 	0.62787 0.39700 0.27729 -0.38000
O 	O 	0.53693 0.96086 0.43051 -0.56300
C 	C 	0.31370 0.11840 0.32020 0.34700
C 	C 	0.22560 0.21030 0.28620 -0.03600
C 	C 	0.14070 0.19630 0.31860 -0.04800
H 	H 	0.14120 0.13070 0.36010 0.06800
C 	C 	0.05530 0.27750 0.29070 0.02400
C 	C 	0.05780 0.37600 0.22940 -0.07200
H 	H 	0.00230 0.43260 0.21030 0.06300
C 	C 	0.14150 0.39050 0.19680 0.00000
H 	H 	0.14100 0.45650 0.15560 0.04000
C 	C 	0.22630 0.30860 0.22430 -0.04400
C 	C 	0.31700 0.33280 0.18760 0.33500
C 	C 	0.96540 0.25900 0.32620 0.04100
C 	C 	0.98180 0.20300 0.41680 -0.09800
H 	H 	0.04990 0.18250 0.45710 0.07500
C 	C 	0.89750 0.17790 0.44700 0.02300
H 	H 	0.90960 0.14000 0.50700 0.03600
C 	C 	0.79560 0.20860 0.38870 -0.07400
C 	C 	0.77860 0.27120 0.30060 -0.01300
C 	C 	0.86300 0.29430 0.26960 -0.06900
H 	H 	0.85100 0.33400 0.21020 0.07300
C 	C 	0.70160 0.16510 0.41180 0.36200
C 	C 	0.67070 0.31760 0.23890 0.34000
Ni	Ni	0.58940 0.40524 0.03818 1.09900
Ni	Ni	0.49654 0.51181 0.20803 1.11600
O 	O 	0.69424 0.53260 0.12480 -0.40400
O 	O 	0.60921 0.63640 0.20850 -0.41100
O 	O 	0.61314 0.90560 0.26078 -0.37900
O 	O 	0.68630 0.78500 0.39154 -0.25200
O 	O 	0.38071 0.64680 0.16041 -0.41100
O 	O 	0.28712 0.65130 0.99956 -0.40000
O 	O 	0.36526 0.77860 0.34728 -0.39200
O 	O 	0.37213 0.89700 0.22271 -0.37900
O 	O 	0.46307 0.46086 0.06949 -0.56400
C 	C 	0.68630 0.61840 0.17980 0.34700
C 	C 	0.77440 0.71030 0.21380 -0.03700
C 	C 	0.85930 0.69630 0.18140 -0.04700
H 	H 	0.85880 0.63070 0.13990 0.06800
C 	C 	0.94470 0.77750 0.20930 0.02300
C 	C 	0.94220 0.87600 0.27060 -0.07100
H 	H 	0.99770 0.93260 0.28970 0.06300
C 	C 	0.85850 0.89050 0.30320 -0.00000
H 	H 	0.85900 0.95650 0.34440 0.04100
C 	C 	0.77370 0.80860 0.27570 -0.04300
C 	C 	0.68300 0.83280 0.31240 0.33500
C 	C 	0.03460 0.75900 0.17380 0.04300
C 	C 	0.01820 0.70300 0.08320 -0.09900
H 	H 	0.95010 0.68250 0.04290 0.07500
C 	C 	0.10250 0.67790 0.05300 0.02600
H 	H 	0.09040 0.64000 0.99300 0.03400
C 	C 	0.20440 0.70860 0.11130 -0.07500
C 	C 	0.22140 0.77120 0.19940 -0.01100
C 	C 	0.13700 0.79430 0.23040 -0.06900
H 	H 	0.14900 0.83400 0.28980 0.07400
C 	C 	0.29840 0.66510 0.08820 0.36400
C 	C 	0.32930 0.81760 0.26110 0.33900
Ni	Ni	0.58940 0.09476 0.53818 1.10000
Ni	Ni	0.49654 0.98819 0.70803 1.11600
O 	O 	0.69424 0.96740 0.62480 -0.40400
O 	O 	0.60921 0.86360 0.70850 -0.41100
O 	O 	0.61314 0.59440 0.76078 -0.38000
O 	O 	0.68630 0.71500 0.89154 -0.25200
O 	O 	0.38071 0.85320 0.66041 -0.41100
O 	O 	0.28712 0.84870 0.49956 -0.39900
O 	O 	0.36526 0.72140 0.84728 -0.39300
O 	O 	0.37213 0.60300 0.72271 -0.38000
O 	O 	0.46307 0.03914 0.56949 -0.56300
C 	C 	0.68630 0.88160 0.67980 0.34700
C 	C 	0.77440 0.78970 0.71380 -0.03600
C 	C 	0.85930 0.80370 0.68140 -0.04800
H 	H 	0.85880 0.86930 0.63990 0.06800
C 	C 	0.94470 0.72250 0.70930 0.02400
C 	C 	0.94220 0.62400 0.77060 -0.07200
H 	H 	0.99770 0.56740 0.78970 0.06300
C 	C 	0.85850 0.60950 0.80320 0.00000
H 	H 	0.85900 0.54350 0.84440 0.04000
C 	C 	0.77370 0.69140 0.77570 -0.04400
C 	C 	0.68300 0.66720 0.81240 0.33500
C 	C 	0.03460 0.74100 0.67380 0.04100
C 	C 	0.01820 0.79700 0.58320 -0.09800
H 	H 	0.95010 0.81750 0.54290 0.07500
C 	C 	0.10250 0.82210 0.55300 0.02300
H 	H 	0.09040 0.86000 0.49300 0.03600
C 	C 	0.20440 0.79140 0.61130 -0.07400
C 	C 	0.22140 0.72880 0.69940 -0.01300
C 	C 	0.13700 0.70570 0.73040 -0.06900
H 	H 	0.14900 0.66600 0.78980 0.07300
C 	C 	0.29840 0.83490 0.58820 0.36200
C 	C 	0.32930 0.68240 0.76110 0.34000
Ni	Ni	0.41060 0.59476 0.96182 1.09900
Ni	Ni	0.50346 0.48819 0.79197 1.11600
O 	O 	0.30576 0.46740 0.87520 -0.40400
O 	O 	0.39079 0.36360 0.79150 -0.41100
O 	O 	0.38686 0.09440 0.73922 -0.37900
O 	O 	0.31370 0.21500 0.60846 -0.25200
O 	O 	0.61929 0.35320 0.83959 -0.41100
O 	O 	0.71288 0.34870 0.00044 -0.40000
O 	O 	0.63474 0.22140 0.65272 -0.39200
O 	O 	0.62787 0.10300 0.77729 -0.37900
O 	O 	0.53693 0.53914 0.93051 -0.56400
C 	C 	0.31370 0.38160 0.82020 0.34700
C 	C 	0.22560 0.28970 0.78620 -0.03700
C 	C 	0.14070 0.30370 0.81860 -0.04700
H 	H 	0.14120 0.36930 0.86010 0.06800
C 	C 	0.05530 0.22250 0.79070 0.02300
C 	C 	0.05780 0.12400 0.72940 -0.07100
H 	H 	0.00230 0.06740 0.71030 0.06300
C 	C 	0.14150 0.10950 0.69680 -0.00000
H 	H 	0.14100 0.04350 0.65560 0.04100
C 	C 	0.22630 0.19140 0.72430 -0.04300
C 	C 	0.31700 0.16720 0.68760 0.33500
C 	C 	0.96540 0.24100 0.82620 0.04300
C 	C 	0.98180 0.29700 0.91680 -0.09900
H 	H 	0.04990 0.31750 0.95710 0.07500
C 	C 	0.89750 0.32210 0.94700 0.02600
H 	H 	0.90960 0.36000 0.00700 0.03400
C 	C 	0.79560 0.29140 0.88870 -0.07500
C 	C 	0.77860 0.22880 0.80060 -0.01100
C 	C 	0.86300 0.20570 0.76960 -0.06900
H 	H 	0.85100 0.16600 0.71020 0.07400
C 	C 	0.70160 0.33490 0.91180 0.36400
C 	C 	0.67070 0.18240 0.73890 0.33900
