data_crystal

_cell_length_a 9.45140
_cell_length_b 16.18900
_cell_length_c 23.98300
_cell_angle_alpha 108.09800
_cell_angle_beta  90.00000
_cell_angle_gamma 90.00000

_symmetry_space_group_name_	'P 1'
_symmetry_space_group_name_H-M	'P 1'

loop_
_symmetry_equiv_pos_as_xyz
  x,y,z

loop_
_atom_site_label
_atom_site_type_symbol
_atom_site_fract_x
_atom_site_fract_y
_atom_site_fract_z
_atom_site_charge
Eu	Eu	0.49558 0.70256 0.90275 1.91600
Eu	Eu	0.49558 0.29745 0.59725 1.89800
Eu	Eu	0.50442 0.29745 0.09725 1.88600
Eu	Eu	0.50442 0.70256 0.40275 1.90400
Ca	Ca	0.99731 0.50000 0.75000 1.52100
Ca	Ca	0.00269 0.50000 0.25000 1.44800
Ca	Ca	-0.00000 0.50000 -0.00000 1.42100
Ca	Ca	-0.00000 0.50000 0.50000 1.42900
Ca	Ca	-0.00000 0.00000 -0.00000 1.41400
Ca	Ca	-0.00000 0.00000 0.50000 1.42200
H 	H 	0.38640 0.86990 0.74380 0.04200
H 	H 	0.57440 0.81550 0.68060 0.05200
H 	H 	0.71820 0.70950 0.69640 0.06300
H 	H 	0.64770 0.41640 0.96050 0.03300
H 	H 	0.47330 0.32260 0.90950 0.05500
H 	H 	0.31430 0.36920 0.85210 -0.00300
H 	H 	0.31300 0.90250 0.11830 0.02000
H 	H 	0.46670 0.01960 0.13120 -0.01200
H 	H 	0.64410 0.00990 0.06220 -0.08100
H 	H 	0.38640 0.13010 0.75620 0.01800
H 	H 	0.57440 0.18450 0.81940 0.04800
H 	H 	0.71820 0.29050 0.80360 0.05900
H 	H 	0.64770 0.58360 0.53950 0.01800
H 	H 	0.47330 0.67740 0.59050 0.05300
H 	H 	0.31430 0.63080 0.64790 -0.00500
H 	H 	0.31300 0.09750 0.38170 -0.03100
H 	H 	0.46670 0.98040 0.36880 0.13200
H 	H 	0.64410 0.99010 0.43780 0.09500
H 	H 	0.61360 0.13010 0.25620 0.05000
H 	H 	0.42560 0.18450 0.31940 0.04300
H 	H 	0.28180 0.29050 0.30360 0.00200
H 	H 	0.35230 0.58360 0.03950 -0.02300
H 	H 	0.52670 0.67740 0.09050 0.06000
H 	H 	0.68570 0.63080 0.14790 0.04500
H 	H 	0.68700 0.09750 0.88170 0.04300
H 	H 	0.53330 0.98040 0.86880 0.11400
H 	H 	0.35590 0.99010 0.93780 0.11000
H 	H 	0.61360 0.86990 0.24380 0.07300
H 	H 	0.42560 0.81550 0.18060 0.04800
H 	H 	0.28180 0.70950 0.19640 0.00600
H 	H 	0.35230 0.41640 0.46050 -0.00900
H 	H 	0.52670 0.32260 0.40950 0.06300
H 	H 	0.68570 0.36920 0.35210 0.04700
H 	H 	0.68700 0.90250 0.61830 0.08700
H 	H 	0.53330 0.01960 0.63120 -0.02200
H 	H 	0.35590 0.00990 0.56220 -0.07600
C 	C 	0.31440 0.83260 0.84240 0.31100
C 	C 	0.42800 0.79810 0.79670 -0.02900
C 	C 	0.44680 0.82830 0.75000 -0.03700
C 	C 	0.55780 0.79520 0.71230 -0.03400
C 	C 	0.64360 0.73260 0.72170 -0.02000
C 	C 	0.61730 0.70430 0.76930 -0.02900
C 	C 	0.70760 0.63740 0.78470 0.38100
C 	C 	0.68920 0.58570 0.96757 0.40300
C 	C 	0.58450 0.51770 0.93458 -0.06600
C 	C 	0.58160 0.43450 0.93800 0.01100
C 	C 	0.47880 0.37890 0.90740 -0.06900
C 	C 	0.38360 0.40660 0.87340 0.00600
C 	C 	0.39260 0.49080 0.87140 -0.08800
C 	C 	0.29360 0.52960 0.83771 0.39000
C 	C 	0.29920 0.75330 0.02660 0.26000
C 	C 	0.39250 0.83110 0.04020 -0.09800
C 	C 	0.38160 0.90150 0.09030 -0.02400
C 	C 	0.47440 0.97060 0.09850 -0.02000
C 	C 	0.57850 0.96540 0.05710 0.15700
C 	C 	0.58320 0.89330 0.00820 -0.21200
C 	C 	0.68970 0.88270 0.96010 0.49400
C 	C 	0.31440 0.16740 0.65760 0.32100
C 	C 	0.42800 0.20190 0.70330 -0.04400
C 	C 	0.44680 0.17170 0.75000 -0.02800
C 	C 	0.55780 0.20480 0.78770 -0.05100
C 	C 	0.64360 0.26740 0.77830 -0.01600
C 	C 	0.61730 0.29570 0.73070 -0.03500
C 	C 	0.70760 0.36260 0.71530 0.38000
C 	C 	0.68920 0.41430 0.53243 0.40400
C 	C 	0.58450 0.48230 0.56542 -0.07900
C 	C 	0.58160 0.56550 0.56200 0.01200
C 	C 	0.47880 0.62110 0.59260 -0.08100
C 	C 	0.38360 0.59340 0.62660 0.00500
C 	C 	0.39260 0.50920 0.62860 -0.09300
C 	C 	0.29360 0.47040 0.66229 0.38800
C 	C 	0.29920 0.24670 0.47340 0.32600
C 	C 	0.39250 0.16890 0.45980 -0.09200
C 	C 	0.38160 0.09850 0.40970 0.03700
C 	C 	0.47440 0.02940 0.40150 -0.18700
C 	C 	0.57850 0.03460 0.44290 -0.07100
C 	C 	0.58320 0.10670 0.49180 -0.05800
C 	C 	0.68970 0.11730 0.53990 0.39600
C 	C 	0.68560 0.16740 0.15760 0.31200
C 	C 	0.57200 0.20190 0.20330 -0.02200
C 	C 	0.55320 0.17170 0.25000 -0.03300
C 	C 	0.44220 0.20480 0.28770 -0.06900
C 	C 	0.35640 0.26740 0.27830 -0.00900
C 	C 	0.38270 0.29570 0.23070 -0.07200
C 	C 	0.29240 0.36260 0.21530 0.38900
C 	C 	0.31080 0.41430 0.03243 0.41800
C 	C 	0.41550 0.48230 0.06542 -0.11900
C 	C 	0.41840 0.56550 0.06200 0.01600
C 	C 	0.52120 0.62110 0.09260 -0.08600
C 	C 	0.61640 0.59340 0.12660 -0.00600
C 	C 	0.60740 0.50920 0.12860 -0.06200
C 	C 	0.70640 0.47040 0.16229 0.36800
C 	C 	0.70080 0.24670 0.97340 0.36600
C 	C 	0.60750 0.16890 0.95980 -0.00300
C 	C 	0.61840 0.09850 0.90970 -0.03100
C 	C 	0.52560 0.02940 0.90150 -0.10400
C 	C 	0.42150 0.03460 0.94290 -0.16000
C 	C 	0.41680 0.10670 0.99180 0.04700
C 	C 	0.31030 0.11730 0.03990 0.32800
C 	C 	0.68560 0.83260 0.34240 0.30400
C 	C 	0.57200 0.79810 0.29670 -0.00800
C 	C 	0.55320 0.82830 0.25000 -0.04100
C 	C 	0.44220 0.79520 0.21230 -0.05200
C 	C 	0.35640 0.73260 0.22170 -0.01200
C 	C 	0.38270 0.70430 0.26930 -0.06600
C 	C 	0.29240 0.63740 0.28470 0.39000
C 	C 	0.31080 0.58570 0.46757 0.41800
C 	C 	0.41550 0.51770 0.43458 -0.10600
C 	C 	0.41840 0.43450 0.43800 0.01500
C 	C 	0.52120 0.37890 0.40740 -0.07400
C 	C 	0.61640 0.40660 0.37340 -0.00600
C 	C 	0.60740 0.49080 0.37140 -0.05800
C 	C 	0.70640 0.52960 0.33771 0.36900
C 	C 	0.70080 0.75330 0.52660 0.30400
C 	C 	0.60750 0.83110 0.54020 -0.01700
C 	C 	0.61840 0.90150 0.59030 -0.08100
C 	C 	0.52560 0.97060 0.59850 0.04400
C 	C 	0.42150 0.96540 0.55710 0.08800
C 	C 	0.41680 0.89330 0.50820 -0.11700
C 	C 	0.31030 0.88270 0.46010 0.43200
N 	N 	0.51150 0.73750 0.80674 -0.18500
N 	N 	0.49090 0.54600 0.90225 -0.17300
N 	N 	0.49140 0.82820 0.99919 -0.10500
N 	N 	0.51150 0.26250 0.69326 -0.18200
N 	N 	0.49090 0.45400 0.59775 -0.17200
N 	N 	0.49140 0.17180 0.50081 -0.17200
N 	N 	0.48850 0.26250 0.19326 -0.18000
N 	N 	0.50910 0.45400 0.09775 -0.17200
N 	N 	0.50860 0.17180 0.00081 -0.24600
N 	N 	0.48850 0.73750 0.30674 -0.18200
N 	N 	0.50910 0.54600 0.40225 -0.17400
N 	N 	0.50860 0.82820 0.49919 -0.17500
O 	O 	0.32080 0.80700 0.88790 -0.45100
O 	O 	0.22720 0.88480 0.83451 -0.33900
O 	O 	0.67870 0.62700 0.83415 -0.44300
O 	O 	0.79970 0.59950 0.75024 -0.42100
O 	O 	0.66860 0.66230 0.96561 -0.41700
O 	O 	0.78670 0.56310 0.99380 -0.45900
O 	O 	0.31570 0.60900 0.84230 -0.50100
O 	O 	0.19630 0.48410 0.80989 -0.56200
O 	O 	0.31430 0.69770 0.97640 -0.41900
O 	O 	0.21610 0.74670 0.06549 -0.36700
O 	O 	0.67430 0.81800 0.91542 -0.44000
O 	O 	0.78640 0.93730 0.96737 -0.44400
O 	O 	0.32080 0.19300 0.61210 -0.47000
O 	O 	0.22720 0.11520 0.66549 -0.37900
O 	O 	0.67870 0.37300 0.66585 -0.44400
O 	O 	0.79970 0.40050 0.74976 -0.42200
O 	O 	0.66860 0.33770 0.53439 -0.43400
O 	O 	0.78670 0.43690 0.50620 -0.48600
O 	O 	0.31570 0.39100 0.65770 -0.50200
O 	O 	0.19630 0.51590 0.69011 -0.56400
O 	O 	0.31430 0.30230 0.52360 -0.47600
O 	O 	0.21610 0.25330 0.43451 -0.38300
O 	O 	0.67430 0.18200 0.58458 -0.42900
O 	O 	0.78640 0.06270 0.53263 -0.50000
O 	O 	0.67920 0.19300 0.11210 -0.41700
O 	O 	0.77280 0.11520 0.16549 -0.25900
O 	O 	0.32130 0.37300 0.16585 -0.49500
O 	O 	0.20030 0.40050 0.24976 -0.54200
O 	O 	0.33140 0.33770 0.03439 -0.50800
O 	O 	0.21330 0.43690 0.00620 -0.64400
O 	O 	0.68430 0.39100 0.15770 -0.44100
O 	O 	0.80370 0.51590 0.19011 -0.41900
O 	O 	0.68570 0.30230 0.02360 -0.46700
O 	O 	0.78390 0.25330 0.93451 -0.26600
O 	O 	0.32570 0.18200 0.08458 -0.47400
O 	O 	0.21360 0.06270 0.03263 -0.63500
O 	O 	0.67920 0.80700 0.38790 -0.40100
O 	O 	0.77280 0.88480 0.33451 -0.22300
O 	O 	0.32130 0.62700 0.33415 -0.49400
O 	O 	0.20030 0.59950 0.25024 -0.54000
O 	O 	0.33140 0.66230 0.46561 -0.49100
O 	O 	0.21330 0.56310 0.49380 -0.61800
O 	O 	0.68430 0.60900 0.34230 -0.44100
O 	O 	0.80370 0.48410 0.30989 -0.41800
O 	O 	0.68570 0.69770 0.47640 -0.41400
O 	O 	0.78390 0.74670 0.56549 -0.25300
O 	O 	0.32570 0.81800 0.41542 -0.48500
O 	O 	0.21360 0.93730 0.46737 -0.57600
