data_crystal

_cell_length_a 7.83540
_cell_length_b 12.04960
_cell_length_c 12.25240
_cell_angle_alpha 112.01500
_cell_angle_beta  89.96700
_cell_angle_gamma 99.92100

_symmetry_space_group_name_	'P 1'
_symmetry_space_group_name_H-M	'P 1'

loop_
_symmetry_equiv_pos_as_xyz
  x,y,z

loop_
_atom_site_label
_atom_site_type_symbol
_atom_site_fract_x
_atom_site_fract_y
_atom_site_fract_z
_atom_site_charge
C 	C 	0.64700 0.42900 0.14900 0.46000
C 	C 	0.72200 0.31000 0.08570 -0.23400
H 	H 	0.74410 0.27600 0.14320 0.09800
H 	H 	0.63560 0.25110 0.02620 0.09600
C 	C 	0.89400 0.33300 0.02570 -0.26100
H 	H 	0.97290 0.40210 0.08170 0.09200
H 	H 	0.94850 0.26240 0.00510 0.09900
C 	C 	0.86300 0.35900 0.91360 0.50100
C 	C 	0.14400 0.42600 0.29710 0.43400
C 	C 	0.22400 0.30880 0.27180 -0.08200
C 	C 	0.38800 0.33300 0.35120 -0.12300
C 	C 	0.36500 0.36300 0.47600 0.44900
C 	C 	0.32300 0.86100 0.31510 0.48400
C 	C 	0.24800 0.96900 0.36500 -0.38000
H 	H 	0.28630 0.02160 0.32330 0.14100
H 	H 	0.12260 0.94440 0.35070 0.13200
C 	C 	0.28600 0.03700 0.48800 -0.07300
H 	H 	0.40930 0.07230 0.50120 0.03100
H 	H 	0.26470 0.98170 0.52920 0.05300
C 	C 	0.17900 0.14400 0.54500 0.34200
Nd	Nd	0.99131 0.64570 0.35421 2.21600
Nd	Nd	0.49093 0.64513 0.25275 2.21400
O 	O 	0.73630 0.51840 0.22070 -0.66700
O 	O 	0.48800 0.42840 0.11800 -0.48600
O 	O 	0.23170 0.51790 0.28990 -0.65000
O 	O 	0.99090 0.42850 0.32680 -0.48900
O 	O 	0.27160 0.77710 0.35910 -0.66100
O 	O 	0.45000 0.85500 0.25890 -0.50500
O 	O 	0.72140 0.39100 0.90130 -0.56900
O 	O 	0.98440 0.34610 0.84900 -0.53800
O 	O 	0.23110 0.22310 0.65340 -0.63200
O 	O 	0.04720 0.14950 0.49510 -0.46600
O 	O 	0.48620 0.35000 0.53550 -0.49400
O 	O 	0.22690 0.39690 0.51680 -0.53100
C 	C 	0.35300 0.57100 0.85100 0.45900
C 	C 	0.27800 0.69000 0.91430 -0.23500
H 	H 	0.25590 0.72400 0.85680 0.09800
H 	H 	0.36440 0.74890 0.97380 0.09600
C 	C 	0.10600 0.66700 0.97430 -0.26100
H 	H 	0.02710 0.59790 0.91830 0.09200
H 	H 	0.05150 0.73760 0.99490 0.09900
C 	C 	0.13700 0.64100 0.08640 0.50100
C 	C 	0.85600 0.57400 0.70290 0.43400
C 	C 	0.77600 0.69120 0.72820 -0.08200
C 	C 	0.61200 0.66700 0.64880 -0.12300
C 	C 	0.63500 0.63700 0.52400 0.44900
C 	C 	0.67700 0.13900 0.68490 0.48400
C 	C 	0.75200 0.03100 0.63500 -0.38000
H 	H 	0.71370 0.97840 0.67670 0.14100
H 	H 	0.87740 0.05560 0.64930 0.13200
C 	C 	0.71400 0.96300 0.51200 -0.07300
H 	H 	0.59070 0.92770 0.49880 0.03100
H 	H 	0.73530 0.01830 0.47080 0.05300
C 	C 	0.82100 0.85600 0.45500 0.34200
Nd	Nd	0.00869 0.35430 0.64579 2.21600
Nd	Nd	0.50907 0.35487 0.74725 2.21400
O 	O 	0.26370 0.48160 0.77930 -0.66700
O 	O 	0.51200 0.57160 0.88200 -0.48600
O 	O 	0.76830 0.48210 0.71010 -0.65000
O 	O 	0.00910 0.57150 0.67320 -0.48900
O 	O 	0.72840 0.22290 0.64090 -0.66100
O 	O 	0.55000 0.14500 0.74110 -0.50500
O 	O 	0.27860 0.60900 0.09870 -0.56900
O 	O 	0.01560 0.65390 0.15100 -0.53800
O 	O 	0.76890 0.77690 0.34660 -0.63200
O 	O 	0.95280 0.85050 0.50490 -0.46600
O 	O 	0.51380 0.65000 0.46450 -0.49400
O 	O 	0.77310 0.60310 0.48320 -0.53100
