data_crystal

_cell_length_a 9.84100
_cell_length_b 10.22600
_cell_length_c 13.40400
_cell_angle_alpha 82.02000
_cell_angle_beta  86.86000
_cell_angle_gamma 65.10000

_symmetry_space_group_name_	'P 1'
_symmetry_space_group_name_H-M	'P 1'

loop_
_symmetry_equiv_pos_as_xyz
  x,y,z

loop_
_atom_site_label
_atom_site_type_symbol
_atom_site_fract_x
_atom_site_fract_y
_atom_site_fract_z
_atom_site_charge
Yb	Yb	0.33414 0.21872 0.18262 1.33200
Cs	Cs	0.14983 0.54990 0.38392 0.66400
Mo	Mo	0.74440 0.62576 0.23865 1.07100
O 	O 	0.34950 0.44320 0.18420 -0.48600
H 	H 	0.45340 0.42040 0.20090 0.12800
N 	N 	0.90860 0.33740 0.40580 -0.15300
N 	N 	0.74860 0.74090 0.45780 -0.16000
N 	N 	0.43280 0.60990 0.33250 -0.14200
N 	N 	0.48180 0.96300 0.20780 -0.26300
N 	N 	0.67720 0.37430 0.15030 -0.11700
N 	N 	0.29380 0.28000 0.00730 -0.23900
N 	N 	0.08430 0.41150 0.17230 -0.23000
N 	N 	0.94580 0.81920 0.20160 -0.11700
C 	C 	0.84570 0.43940 0.34930 -0.21000
C 	C 	0.74550 0.70340 0.38170 -0.20300
C 	C 	0.54250 0.61720 0.30430 -0.15500
C 	C 	0.57050 0.84490 0.21740 -0.14100
C 	C 	0.70360 0.46160 0.17800 -0.14500
C 	C 	0.28090 0.31210 0.92200 -0.12500
C 	C 	0.96440 0.48910 0.18940 -0.15500
C 	C 	0.87330 0.75490 0.21320 -0.19100
C 	C 	0.30350 0.56290 0.10380 0.01300
H 	H 	0.36570 0.53390 0.04600 0.01000
H 	H 	0.31340 0.64410 0.12560 0.00600
H 	H 	0.20090 0.59050 0.08630 0.01000
Yb	Yb	0.66586 0.78128 0.81738 1.33100
Cs	Cs	0.85017 0.45010 0.61608 0.66300
Mo	Mo	0.25560 0.37424 0.76135 1.07000
O 	O 	0.65050 0.55680 0.81580 -0.48700
H 	H 	0.54660 0.57960 0.79910 0.12800
N 	N 	0.09140 0.66260 0.59420 -0.15300
N 	N 	0.25140 0.25910 0.54220 -0.16000
N 	N 	0.56720 0.39010 0.66750 -0.14200
N 	N 	0.51820 0.03700 0.79220 -0.26300
N 	N 	0.32280 0.62570 0.84970 -0.11700
N 	N 	0.70620 0.72000 0.99270 -0.23900
N 	N 	0.91570 0.58850 0.82770 -0.23000
N 	N 	0.05420 0.18080 0.79840 -0.11700
C 	C 	0.15430 0.56060 0.65070 -0.21000
C 	C 	0.25450 0.29660 0.61830 -0.20300
C 	C 	0.45750 0.38280 0.69570 -0.15500
C 	C 	0.42950 0.15510 0.78260 -0.14100
C 	C 	0.29640 0.53840 0.82200 -0.14500
C 	C 	0.71910 0.68790 0.07800 -0.12500
C 	C 	0.03560 0.51090 0.81060 -0.15500
C 	C 	0.12670 0.24510 0.78680 -0.19100
C 	C 	0.69650 0.43710 0.89620 0.01300
H 	H 	0.63430 0.46610 0.95400 0.01000
H 	H 	0.68660 0.35590 0.87440 0.00600
H 	H 	0.79910 0.40950 0.91370 0.01000
