data_crystal

_cell_length_a 9.06590
_cell_length_b 9.06590
_cell_length_c 21.72730
_cell_angle_alpha 90.00000
_cell_angle_beta  90.00000
_cell_angle_gamma 120.00000

_symmetry_space_group_name_	'P 1'
_symmetry_space_group_name_H-M	'P 1'

loop_
_symmetry_equiv_pos_as_xyz
  x,y,z

loop_
_atom_site_label
_atom_site_type_symbol
_atom_site_fract_x
_atom_site_fract_y
_atom_site_fract_z
_atom_site_charge
Mn	Mn	0.02195 0.03919 0.91706 1.32100
Mn	Mn	0.01724 0.97805 0.58373 1.31400
Mn	Mn	0.96081 0.98276 0.25039 1.31100
Mn	Mn	0.98276 0.96081 0.08294 1.31000
Mn	Mn	0.03919 0.02195 0.41627 1.32300
Mn	Mn	0.97805 0.01724 0.74961 1.31300
H 	H 	0.36400 0.13200 0.86760 0.24200
H 	H 	0.10100 0.37400 0.96950 0.24300
H 	H 	0.58120 0.08510 0.91130 0.09200
H 	H 	0.06120 0.59580 0.92430 0.09300
H 	H 	0.76800 0.63600 0.53427 0.24100
H 	H 	0.27300 0.89900 0.63617 0.24300
H 	H 	0.50390 0.41880 0.57797 0.09200
H 	H 	0.53460 0.93880 0.59097 0.09500
H 	H 	0.86800 0.23200 0.20093 0.24000
H 	H 	0.62600 0.72700 0.30283 0.24300
H 	H 	0.91490 0.49610 0.24463 0.09200
H 	H 	0.40420 0.46540 0.25763 0.09500
H 	H 	0.23200 0.86800 0.13240 0.24000
H 	H 	0.72700 0.62600 0.03050 0.24300
H 	H 	0.49610 0.91490 0.08870 0.09200
H 	H 	0.46540 0.40420 0.07570 0.09600
H 	H 	0.13200 0.36400 0.46573 0.24200
H 	H 	0.37400 0.10100 0.36383 0.24500
H 	H 	0.08510 0.58120 0.42203 0.09100
H 	H 	0.59580 0.06120 0.40903 0.09500
H 	H 	0.63600 0.76800 0.79907 0.24100
H 	H 	0.89900 0.27300 0.69717 0.24300
H 	H 	0.41880 0.50390 0.75537 0.09200
H 	H 	0.93880 0.53460 0.74237 0.09500
C 	C 	0.36220 0.05500 0.94849 0.17200
C 	C 	0.51260 0.05210 0.94734 -0.17300
C 	C 	0.04160 0.38130 0.88668 0.18800
C 	C 	0.03800 0.53190 0.88740 -0.16900
C 	C 	0.69280 0.63780 0.61516 0.18100
C 	C 	0.53950 0.48740 0.61401 -0.16400
C 	C 	0.33970 0.95840 0.55335 0.18100
C 	C 	0.49390 0.96200 0.55407 -0.17600
C 	C 	0.94500 0.30720 0.28182 0.17000
C 	C 	0.94790 0.46050 0.28067 -0.17100
C 	C 	0.61870 0.66030 0.22001 0.19000
C 	C 	0.46810 0.50610 0.22073 -0.17200
C 	C 	0.30720 0.94500 0.05151 0.16800
C 	C 	0.46050 0.94790 0.05266 -0.17400
C 	C 	0.66030 0.61870 0.11332 0.19000
C 	C 	0.50610 0.46810 0.11260 -0.17200
C 	C 	0.05500 0.36220 0.38484 0.17900
C 	C 	0.05210 0.51260 0.38599 -0.16400
C 	C 	0.38130 0.04160 0.44665 0.18900
C 	C 	0.53190 0.03800 0.44593 -0.17000
C 	C 	0.63780 0.69280 0.71818 0.18100
C 	C 	0.48740 0.53950 0.71933 -0.16400
C 	C 	0.95840 0.33970 0.77999 0.18000
C 	C 	0.96200 0.49390 0.77927 -0.17500
C 	C 	0.25570 0.00000 -0.00000 0.02300
C 	C 	0.72570 0.00000 -0.00000 0.32400
C 	C 	0.56300 0.00000 -0.00000 0.02900
C 	C 	0.74430 0.74430 0.66667 0.00200
C 	C 	0.27430 0.27430 0.66667 0.32000
C 	C 	0.43700 0.43700 0.66667 0.01400
C 	C 	0.00000 0.25570 0.33333 0.01400
C 	C 	-0.00000 0.72570 0.33333 0.32200
C 	C 	-0.00000 0.56300 0.33333 0.02000
C 	C 	-0.00000 0.28270 0.83333 0.00200
C 	C 	-0.00000 0.75270 0.83333 0.32500
C 	C 	-0.00000 0.58910 0.83333 0.02300
C 	C 	0.28270 0.00000 0.50000 0.00200
C 	C 	0.75270 0.00000 0.50000 0.32600
C 	C 	0.58910 0.00000 0.50000 0.02300
C 	C 	0.71730 0.71730 0.16667 -0.00800
C 	C 	0.24730 0.24730 0.16667 0.32000
C 	C 	0.41090 0.41090 0.16667 0.02200
O 	O 	0.30160 0.10960 0.90024 -0.50700
O 	O 	0.77100 0.95920 0.95048 -0.43700
O 	O 	0.08320 0.31460 0.93632 -0.51200
O 	O 	0.94810 0.79190 0.88141 -0.43600
O 	O 	0.80800 0.69840 0.56691 -0.50900
O 	O 	0.18820 0.22900 0.61715 -0.42200
O 	O 	0.23140 0.91680 0.60299 -0.51400
O 	O 	0.84380 0.05190 0.54808 -0.43100
O 	O 	0.89040 0.19200 0.23357 -0.50700
O 	O 	0.04080 0.81180 0.28381 -0.42900
O 	O 	0.68540 0.76860 0.26965 -0.51600
O 	O 	0.20810 0.15620 0.21474 -0.41800
O 	O 	0.19200 0.89040 0.09976 -0.50600
O 	O 	0.81180 0.04080 0.04952 -0.42800
O 	O 	0.76860 0.68540 0.06368 -0.51600
O 	O 	0.15620 0.20810 0.11859 -0.41700
O 	O 	0.10960 0.30160 0.43309 -0.50600
O 	O 	0.95920 0.77100 0.38285 -0.43600
O 	O 	0.31460 0.08320 0.39701 -0.51100
O 	O 	0.79190 0.94810 0.45192 -0.43700
O 	O 	0.69840 0.80800 0.76643 -0.50800
O 	O 	0.22900 0.18820 0.71619 -0.42300
O 	O 	0.91680 0.23140 0.73035 -0.51400
O 	O 	0.05190 0.84380 0.78526 -0.43000
O 	O 	0.10900 0.00000 -0.00000 -0.47400
O 	O 	0.89100 0.89100 0.66667 -0.48400
O 	O 	-0.00000 0.10900 0.33333 -0.47600
O 	O 	-0.00000 0.13510 0.83333 -0.47800
O 	O 	0.13510 0.00000 0.50000 -0.47700
O 	O 	0.86490 0.86490 0.16667 -0.48700
