data_crystal

_cell_length_a 9.06300
_cell_length_b 9.06300
_cell_length_c 10.94700
_cell_angle_alpha 90.00000
_cell_angle_beta  90.00000
_cell_angle_gamma 120.00000

_symmetry_space_group_name_	'P 1'
_symmetry_space_group_name_H-M	'P 1'

loop_
_symmetry_equiv_pos_as_xyz
  x,y,z

loop_
_atom_site_label
_atom_site_type_symbol
_atom_site_fract_x
_atom_site_fract_y
_atom_site_fract_z
_atom_site_charge
Mn	Mn	0.02779 0.02779 0.33333 1.29000
Mn	Mn	0.00000 0.97221 0.66667 1.31100
Mn	Mn	0.97221 0.00000 -0.00000 1.28000
H 	H 	0.37000 0.14300 0.25000 0.38600
H 	H 	0.59700 0.09100 0.33200 0.12900
H 	H 	0.77300 0.63000 0.58333 0.39400
H 	H 	0.49400 0.40300 0.66533 0.12200
H 	H 	0.85700 0.22700 0.91667 0.37300
H 	H 	0.90900 0.50600 0.99867 0.25400
H 	H 	0.22700 0.85700 0.75000 0.40000
H 	H 	0.50600 0.90900 0.66800 0.13200
H 	H 	0.14300 0.37000 0.41667 0.40000
H 	H 	0.09100 0.59700 0.33467 0.14600
H 	H 	0.63000 0.77300 0.08333 0.40900
H 	H 	0.40300 0.49400 0.00133 0.01900
C 	C 	0.52120 0.04540 0.39490 -0.30000
C 	C 	0.37170 0.04920 0.39590 0.30000
C 	C 	0.52420 0.47880 0.72823 -0.25200
C 	C 	0.67750 0.62830 0.72923 0.28900
C 	C 	0.95460 0.47580 0.06157 -0.39800
C 	C 	0.95080 0.32250 0.06257 0.30900
C 	C 	0.47580 0.95460 0.60510 -0.22400
C 	C 	0.32250 0.95080 0.60410 0.34100
C 	C 	0.04540 0.52120 0.27177 -0.34100
C 	C 	0.04920 0.37170 0.27077 0.32200
C 	C 	0.47880 0.52420 0.93843 -0.12400
C 	C 	0.62830 0.67750 0.93743 0.32000
C 	C 	0.73870 0.00000 0.50000 0.21700
C 	C 	0.26710 0.00000 0.50000 -0.12900
C 	C 	0.57460 0.00000 0.50000 0.05500
C 	C 	0.26130 0.26130 0.83333 0.32300
C 	C 	0.73290 0.73290 0.83333 -0.06400
C 	C 	0.42540 0.42540 0.83333 0.03300
C 	C 	-0.00000 0.73870 0.16667 0.18700
C 	C 	-0.00000 0.26710 0.16667 -0.13900
C 	C 	-0.00000 0.57460 0.16667 0.11500
O 	O 	0.30710 0.09660 0.29969 -0.72700
O 	O 	0.78120 0.95450 0.40323 -0.31200
O 	O 	0.78950 0.69290 0.63302 -0.67100
O 	O 	0.17330 0.21880 0.73656 -0.45400
O 	O 	0.90340 0.21050 0.96636 -0.61800
O 	O 	0.04550 0.82670 0.06990 -0.43000
O 	O 	0.21050 0.90340 0.70031 -0.72000
O 	O 	0.82670 0.04550 0.59677 -0.40300
O 	O 	0.09660 0.30710 0.36698 -0.73700
O 	O 	0.95450 0.78120 0.26344 -0.30500
O 	O 	0.69290 0.78950 0.03364 -0.74300
O 	O 	0.21880 0.17330 0.93010 -0.41800
O 	O 	0.12060 0.00000 0.50000 -0.48200
O 	O 	0.87940 0.87940 0.83333 -0.36900
O 	O 	0.00000 0.12060 0.16667 -0.49600
