data_crystal

_cell_length_a 9.05530
_cell_length_b 9.05530
_cell_length_c 10.88720
_cell_angle_alpha 90.00000
_cell_angle_beta  90.00000
_cell_angle_gamma 120.00000

_symmetry_space_group_name_	'P 1'
_symmetry_space_group_name_H-M	'P 1'

loop_
_symmetry_equiv_pos_as_xyz
  x,y,z

loop_
_atom_site_label
_atom_site_type_symbol
_atom_site_fract_x
_atom_site_fract_y
_atom_site_fract_z
_atom_site_charge
Mn	Mn	0.03000 1.00000 0.50000 1.26900
Mn	Mn	0.97000 0.97000 0.83333 1.31600
Mn	Mn	0.00000 0.03000 0.16667 1.30600
H 	H 	0.37400 0.24700 0.59700 0.27100
H 	H 	0.58880 0.51450 0.51050 0.11500
H 	H 	0.87300 0.62600 0.93033 0.27000
H 	H 	0.92570 0.41120 0.84383 0.10400
H 	H 	0.75300 0.12700 0.26367 0.26300
H 	H 	0.48550 0.07430 0.17717 0.03800
H 	H 	0.12700 0.75300 0.40300 0.24900
H 	H 	0.07430 0.48550 0.48950 0.08700
H 	H 	0.24700 0.37400 0.06967 0.25300
H 	H 	0.51450 0.58880 0.15617 0.09800
H 	H 	0.62600 0.87300 0.73633 0.24200
H 	H 	0.41120 0.92570 0.82283 0.02300
C 	C 	0.37280 0.32350 0.43754 0.21000
C 	C 	0.52330 0.47720 0.43935 -0.19700
C 	C 	0.95070 0.62720 0.77087 0.26800
C 	C 	0.95390 0.47670 0.77268 -0.11100
C 	C 	0.67650 0.04930 0.10421 0.09000
C 	C 	0.52280 0.04610 0.10602 0.05600
C 	C 	0.04930 0.67650 0.56246 0.20300
C 	C 	0.04610 0.52280 0.56065 -0.19600
C 	C 	0.32350 0.37280 0.22913 0.20600
C 	C 	0.47720 0.52330 0.22732 -0.19900
C 	C 	0.62720 0.95070 0.89579 0.02100
C 	C 	0.47670 0.95390 0.89398 -0.02100
C 	C 	0.74020 0.74020 0.33333 0.32100
C 	C 	0.26930 0.26930 0.33333 -0.01500
C 	C 	0.57550 0.57550 0.33333 0.03900
C 	C 	-0.00000 0.25980 0.66667 0.23600
C 	C 	-0.00000 0.73070 0.66667 -0.09000
C 	C 	0.00000 0.42450 0.66667 -0.02700
C 	C 	0.25980 0.00000 -0.00000 0.52000
C 	C 	0.73070 0.00000 -0.00000 0.15300
C 	C 	0.42450 1.00000 -0.00000 -0.24200
O 	O 	0.78270 0.82770 0.43051 -0.42500
O 	O 	0.30970 0.21130 0.53484 -0.52000
O 	O 	0.04500 0.21730 0.76384 -0.42000
O 	O 	0.90160 0.69030 0.86817 -0.54000
O 	O 	0.17230 0.95500 0.09718 -0.56500
O 	O 	0.78870 0.09840 0.20151 -0.46400
O 	O 	0.95500 0.17230 0.56949 -0.29500
O 	O 	0.09840 0.78870 0.46516 -0.55600
O 	O 	0.82770 0.78270 0.23616 -0.42200
O 	O 	0.21130 0.30970 0.13183 -0.54700
O 	O 	0.21730 0.04500 0.90282 -0.45200
O 	O 	0.69030 0.90160 0.79849 -0.49700
O 	O 	0.12270 0.12270 0.33333 -0.47000
O 	O 	0.00000 0.87730 0.66667 -0.51600
O 	O 	0.87730 0.00000 -0.00000 -0.44000
