data_crystal

_cell_length_a 8.82400
_cell_length_b 8.82400
_cell_length_c 10.64400
_cell_angle_alpha 90.00000
_cell_angle_beta  90.00000
_cell_angle_gamma 120.00000

_symmetry_space_group_name_	'P 1'
_symmetry_space_group_name_H-M	'P 1'

loop_
_symmetry_equiv_pos_as_xyz
  x,y,z

loop_
_atom_site_label
_atom_site_type_symbol
_atom_site_fract_x
_atom_site_fract_y
_atom_site_fract_z
_atom_site_charge
Ni	Ni	0.00000 0.95806 0.83333 1.13400
Ni	Ni	0.95806 0.00000 0.50000 1.13500
Ni	Ni	0.04194 0.04194 0.16667 1.11500
H 	H 	0.21100 0.86400 0.72900 0.33700
H 	H 	0.51200 0.90400 0.83100 0.15200
H 	H 	0.65300 0.78900 0.39567 0.34300
H 	H 	0.39200 0.48800 0.49767 0.14700
H 	H 	0.13600 0.34700 0.06233 0.32600
H 	H 	0.09600 0.60800 0.16433 0.12500
H 	H 	0.34700 0.13600 0.27100 0.32900
H 	H 	0.60800 0.09600 0.16900 0.14500
H 	H 	0.86400 0.21100 0.60433 0.32100
H 	H 	0.90400 0.51200 0.50233 0.11700
H 	H 	0.78900 0.65300 0.93767 0.33000
H 	H 	0.48800 0.39200 0.83567 0.14100
C 	C 	0.47280 0.94450 0.89330 -0.25600
C 	C 	0.31480 0.94260 0.89440 0.32100
C 	C 	0.47170 0.52720 0.55997 -0.28600
C 	C 	0.62780 0.68520 0.56107 0.30900
C 	C 	0.05550 0.52830 0.22663 -0.21200
C 	C 	0.05740 0.37220 0.22773 0.19600
C 	C 	0.52830 0.05550 0.10670 -0.29600
C 	C 	0.37220 0.05740 0.10560 0.30100
C 	C 	0.94450 0.47280 0.44003 -0.15100
C 	C 	0.94260 0.31480 0.43893 0.22500
C 	C 	0.52720 0.47170 0.77337 -0.28500
C 	C 	0.68520 0.62780 0.77227 0.30400
C 	C 	0.26330 0.00000 -0.00000 -0.11200
C 	C 	0.74740 0.00000 -0.00000 0.21600
C 	C 	0.57910 0.00000 -0.00000 0.08100
C 	C 	0.73670 0.73670 0.66667 -0.08400
C 	C 	0.25260 0.25260 0.66667 0.28500
C 	C 	0.42090 0.42090 0.66667 0.09100
C 	C 	1.00000 0.26330 0.33333 0.04900
C 	C 	-0.00000 0.74740 0.33333 0.24000
C 	C 	-0.00000 0.57910 0.33333 0.00300
O 	O 	0.19590 0.88550 0.79820 -0.63400
O 	O 	0.82900 0.03210 0.89690 -0.40200
O 	O 	0.68960 0.80410 0.46487 -0.59700
O 	O 	0.20310 0.17100 0.56357 -0.42200
O 	O 	0.11450 0.31040 0.13153 -0.59700
O 	O 	0.96790 0.79690 0.23023 -0.29300
O 	O 	0.31040 0.11450 0.20180 -0.62900
O 	O 	0.79690 0.96790 0.10310 -0.27800
O 	O 	0.88550 0.19590 0.53513 -0.59900
O 	O 	0.03210 0.82900 0.43643 -0.38700
O 	O 	0.80410 0.68960 0.86847 -0.59700
O 	O 	0.17100 0.20310 0.76977 -0.42600
O 	O 	0.11330 0.00000 -0.00000 -0.43000
O 	O 	0.88670 0.88670 0.66667 -0.34900
O 	O 	-0.00000 0.11330 0.33333 -0.49600
