data_crystal

_cell_length_a 13.70100
_cell_length_b 15.04800
_cell_length_c 26.94800
_cell_angle_alpha 90.00000
_cell_angle_beta  90.00000
_cell_angle_gamma 108.77700

_symmetry_space_group_name_	'P 1'
_symmetry_space_group_name_H-M	'P 1'

loop_
_symmetry_equiv_pos_as_xyz
  x,y,z

loop_
_atom_site_label
_atom_site_type_symbol
_atom_site_fract_x
_atom_site_fract_y
_atom_site_fract_z
_atom_site_charge
Cd	Cd	0.73656 0.45372 0.58047 1.17600
Cd	Cd	0.76481 0.02687 0.16986 1.17900
Cd	Cd	0.76344 0.54628 0.08047 1.17700
Cd	Cd	0.73519 0.97313 0.66986 1.18000
Cd	Cd	0.26344 0.54628 0.41953 1.17700
Cd	Cd	0.23519 0.97313 0.83014 1.18000
Cd	Cd	0.23656 0.45372 0.91953 1.17700
Cd	Cd	0.26481 0.02687 0.33014 1.18000
H 	H 	0.81240 0.34480 0.16530 0.06400
H 	H 	0.92980 0.35470 0.16490 0.09200
H 	H 	0.67970 0.32260 0.20660 0.06600
H 	H 	0.53780 0.29030 0.25900 0.03800
H 	H 	0.55430 0.27260 0.34210 0.06600
H 	H 	0.95620 0.35130 0.31280 0.07100
H 	H 	0.96990 0.33470 0.39640 -0.01200
H 	H 	0.82700 0.29570 0.44810 0.09300
H 	H 	0.56610 0.19400 0.47960 0.09900
H 	H 	0.68090 0.19750 0.47370 0.09600
H 	H 	0.79850 0.50240 0.70490 -0.02800
H 	H 	0.60610 0.27140 0.65320 0.02400
H 	H 	0.58370 0.26710 0.74260 0.01500
H 	H 	0.86940 0.45170 0.79600 0.13200
H 	H 	0.74470 0.46730 0.92910 0.13300
H 	H 	0.56280 0.39420 0.80880 0.12700
H 	H 	0.58610 0.39670 0.97390 0.00000
H 	H 	0.41720 0.40170 0.99500 0.01900
H 	H 	0.45030 0.44890 0.85400 -0.02800
H 	H 	0.99560 0.40910 0.85100 -0.01600
H 	H 	0.08630 0.56610 0.96730 0.00300
H 	H 	0.91800 0.57430 0.94620 0.05000
H 	H 	0.78080 0.06330 0.04210 -0.01600
H 	H 	0.66020 0.82290 0.10650 0.00100
H 	H 	0.63720 0.79620 0.01760 0.02300
H 	H 	0.98650 0.90310 0.88590 -0.00900
H 	H 	0.09320 0.10260 0.79270 -0.00900
H 	H 	0.93430 0.11430 0.81980 0.01900
H 	H 	0.87530 0.98060 0.95210 0.12800
H 	H 	0.56650 0.92590 0.94550 0.12400
H 	H 	0.73330 0.96090 0.82010 0.11100
H 	H 	0.56880 0.88070 0.78170 0.02800
H 	H 	0.45680 0.98270 0.89600 -0.01900
H 	H 	0.40110 0.89280 0.75940 0.02400
H 	H 	0.68760 0.65520 0.66530 0.06500
H 	H 	0.57020 0.64530 0.66490 0.09200
H 	H 	0.82030 0.67740 0.70660 0.06600
H 	H 	0.96220 0.70970 0.75900 0.03800
H 	H 	0.94570 0.72740 0.84210 0.06600
H 	H 	0.54380 0.64870 0.81280 0.07100
H 	H 	0.53010 0.66530 0.89640 -0.01200
H 	H 	0.67300 0.70430 0.94810 0.09300
H 	H 	0.93390 0.80600 0.97960 0.09900
H 	H 	0.81910 0.80250 0.97370 0.09500
H 	H 	0.70150 0.49760 0.20490 -0.02800
H 	H 	0.89390 0.72860 0.15320 0.02400
H 	H 	0.91630 0.73290 0.24260 0.01500
H 	H 	0.63060 0.54830 0.29600 0.13200
H 	H 	0.75530 0.53270 0.42910 0.13300
H 	H 	0.93720 0.60580 0.30880 0.12700
H 	H 	0.91390 0.60330 0.47390 0.00000
H 	H 	0.08280 0.59830 0.49500 0.01900
H 	H 	0.04970 0.55110 0.35400 -0.02800
H 	H 	0.50440 0.59090 0.35100 -0.01600
H 	H 	0.41370 0.43390 0.46730 0.00200
H 	H 	0.58200 0.42570 0.44620 0.05100
H 	H 	0.71920 0.93670 0.54210 -0.01600
H 	H 	0.83980 0.17710 0.60650 0.00100
H 	H 	0.86280 0.20380 0.51760 0.02300
H 	H 	0.51350 0.09690 0.38590 -0.00900
H 	H 	0.40680 0.89740 0.29270 -0.01000
H 	H 	0.56570 0.88570 0.31980 0.02000
H 	H 	0.62470 0.01940 0.45210 0.12800
H 	H 	0.93350 0.07410 0.44550 0.12400
H 	H 	0.76670 0.03910 0.32010 0.11100
H 	H 	0.93120 0.11930 0.28170 0.02800
H 	H 	0.04320 0.01730 0.39600 -0.01900
H 	H 	0.09890 0.10720 0.25940 0.02400
H 	H 	0.18760 0.65520 0.83470 0.06400
H 	H 	0.07020 0.64530 0.83510 0.09200
H 	H 	0.32030 0.67740 0.79340 0.06600
H 	H 	0.46220 0.70970 0.74100 0.03800
H 	H 	0.44570 0.72740 0.65790 0.06600
H 	H 	0.04380 0.64870 0.68720 0.07100
H 	H 	0.03010 0.66530 0.60360 -0.01200
H 	H 	0.17300 0.70430 0.55190 0.09300
H 	H 	0.43390 0.80600 0.52040 0.09900
H 	H 	0.31910 0.80250 0.52630 0.09600
H 	H 	0.20150 0.49760 0.29510 -0.02800
H 	H 	0.39390 0.72860 0.34680 0.02400
H 	H 	0.41630 0.73290 0.25740 0.01500
H 	H 	0.13060 0.54830 0.20400 0.13200
H 	H 	0.25530 0.53270 0.07090 0.13300
H 	H 	0.43720 0.60580 0.19120 0.12700
H 	H 	0.41390 0.60330 0.02610 0.00000
H 	H 	0.58280 0.59830 0.00500 0.01900
H 	H 	0.54970 0.55110 0.14600 -0.02800
H 	H 	0.00440 0.59090 0.14900 -0.01600
H 	H 	0.91370 0.43390 0.03270 0.00300
H 	H 	0.08200 0.42570 0.05380 0.05000
H 	H 	0.21920 0.93670 0.95790 -0.01600
H 	H 	0.33980 0.17710 0.89350 0.00100
H 	H 	0.36280 0.20380 0.98240 0.02300
H 	H 	0.01350 0.09690 0.11410 -0.00900
H 	H 	0.90680 0.89740 0.20730 -0.00900
H 	H 	0.06570 0.88570 0.18020 0.01900
H 	H 	0.12470 0.01940 0.04790 0.12800
H 	H 	0.43350 0.07410 0.05450 0.12400
H 	H 	0.26670 0.03910 0.17990 0.11100
H 	H 	0.43120 0.11930 0.21830 0.02800
H 	H 	0.54320 0.01730 0.10400 -0.01900
H 	H 	0.59890 0.10720 0.24060 0.02400
H 	H 	0.31240 0.34480 0.33470 0.06500
H 	H 	0.42980 0.35470 0.33510 0.09200
H 	H 	0.17970 0.32260 0.29340 0.06600
H 	H 	0.03780 0.29030 0.24100 0.03800
H 	H 	0.05430 0.27260 0.15790 0.06600
H 	H 	0.45620 0.35130 0.18720 0.07100
H 	H 	0.46990 0.33470 0.10360 -0.01200
H 	H 	0.32700 0.29570 0.05190 0.09300
H 	H 	0.06610 0.19400 0.02040 0.09900
H 	H 	0.18090 0.19750 0.02630 0.09500
H 	H 	0.29850 0.50240 0.79510 -0.02800
H 	H 	0.10610 0.27140 0.84680 0.02400
H 	H 	0.08370 0.26710 0.75740 0.01500
H 	H 	0.36940 0.45170 0.70400 0.13200
H 	H 	0.24470 0.46730 0.57090 0.13300
H 	H 	0.06280 0.39420 0.69120 0.12700
H 	H 	0.08610 0.39670 0.52610 0.00000
H 	H 	0.91720 0.40170 0.50500 0.01900
H 	H 	0.95030 0.44890 0.64600 -0.02800
H 	H 	0.49560 0.40910 0.64900 -0.01600
H 	H 	0.58630 0.56610 0.53270 0.00200
H 	H 	0.41800 0.57430 0.55380 0.05100
H 	H 	0.28080 0.06330 0.45790 -0.01600
H 	H 	0.16020 0.82290 0.39350 0.00100
H 	H 	0.13720 0.79620 0.48240 0.02300
H 	H 	0.48650 0.90310 0.61410 -0.00900
H 	H 	0.59320 0.10260 0.70730 -0.01000
H 	H 	0.43430 0.11430 0.68020 0.02000
H 	H 	0.37530 0.98060 0.54790 0.12800
H 	H 	0.06650 0.92590 0.55450 0.12400
H 	H 	0.23330 0.96090 0.67990 0.11100
H 	H 	0.06880 0.88070 0.71830 0.02800
H 	H 	0.95680 0.98270 0.60400 -0.01900
H 	H 	0.90110 0.89280 0.74060 0.02400
C 	C 	0.83730 0.21880 0.17610 0.32300
C 	C 	0.86480 0.32460 0.18165 -0.15600
C 	C 	0.78540 0.33200 0.25960 0.13200
C 	C 	0.68840 0.31820 0.24060 -0.12900
C 	C 	0.60250 0.29760 0.27230 0.00600
C 	C 	0.61240 0.28820 0.32190 -0.06000
C 	C 	0.71090 0.30190 0.34310 -0.02400
C 	C 	0.79980 0.32460 0.31190 0.00900
C 	C 	0.89780 0.33650 0.33280 -0.10200
C 	C 	0.90520 0.32610 0.38270 0.06000
C 	C 	0.81960 0.30290 0.41410 -0.16800
C 	C 	0.72550 0.29100 0.39422 0.15400
C 	C 	0.63500 0.23480 0.47167 -0.18000
C 	C 	0.66750 0.31230 0.51040 0.34400
C 	C 	0.74800 0.44380 0.70303 0.10200
C 	C 	0.64270 0.31810 0.67510 -0.01400
C 	C 	0.63020 0.31480 0.72441 0.00600
C 	C 	0.71400 0.42020 0.79382 0.22100
C 	C 	0.81160 0.44570 0.81550 -0.28100
C 	C 	0.82200 0.46190 0.86549 0.22400
C 	C 	0.73700 0.45570 0.89521 -0.27100
C 	C 	0.64000 0.43160 0.87299 0.22100
C 	C 	0.62810 0.41240 0.82298 -0.27700
C 	C 	0.53870 0.40780 0.95210 0.01600
C 	C 	0.44550 0.41060 0.96332 -0.01500
C 	C 	0.46280 0.43630 0.88670 0.09900
C 	C 	0.99770 0.44910 0.87762 0.10600
C 	C 	0.04630 0.53490 0.94084 -0.00500
C 	C 	0.95340 0.53980 0.92962 -0.00200
C 	C 	0.74700 0.99970 0.04720 0.11200
C 	C 	0.68140 0.86890 0.08220 -0.00600
C 	C 	0.66890 0.85360 0.03300 0.00700
C 	C 	0.99110 0.95190 0.86390 0.11600
C 	C 	0.04720 0.05250 0.80950 -0.00400
C 	C 	0.95920 0.06510 0.82690 -0.00600
C 	C 	0.81520 0.96920 0.93360 -0.27100
C 	C 	0.71990 0.95010 0.95700 0.20600
C 	C 	0.62970 0.93780 0.92960 -0.26700
C 	C 	0.63680 0.94360 0.87860 0.20900
C 	C 	0.72990 0.95880 0.85460 -0.26200
C 	C 	0.81870 0.97080 0.88280 0.21500
C 	C 	0.52640 0.90270 0.80190 -0.00300
C 	C 	0.46370 0.95950 0.86470 0.09300
C 	C 	0.43400 0.91020 0.78980 -0.01200
C 	C 	0.66270 0.78120 0.67610 0.32300
C 	C 	0.63520 0.67540 0.68165 -0.15600
C 	C 	0.71460 0.66800 0.75960 0.13200
C 	C 	0.81160 0.68180 0.74060 -0.12900
C 	C 	0.89750 0.70240 0.77230 0.00600
C 	C 	0.88760 0.71180 0.82190 -0.06000
C 	C 	0.78910 0.69810 0.84310 -0.02400
C 	C 	0.70020 0.67540 0.81190 0.00900
C 	C 	0.60220 0.66350 0.83280 -0.10200
C 	C 	0.59480 0.67390 0.88270 0.06000
C 	C 	0.68040 0.69710 0.91410 -0.16800
C 	C 	0.77450 0.70900 0.89422 0.15400
C 	C 	0.86500 0.76520 0.97167 -0.18000
C 	C 	0.83250 0.68770 0.01040 0.34400
C 	C 	0.75200 0.55620 0.20303 0.10200
C 	C 	0.85730 0.68190 0.17510 -0.01400
C 	C 	0.86980 0.68520 0.22441 0.00600
C 	C 	0.78600 0.57980 0.29382 0.22100
C 	C 	0.68840 0.55430 0.31550 -0.28100
C 	C 	0.67800 0.53810 0.36549 0.22400
C 	C 	0.76300 0.54430 0.39521 -0.27100
C 	C 	0.86000 0.56840 0.37299 0.22000
C 	C 	0.87190 0.58760 0.32298 -0.27700
C 	C 	0.96130 0.59220 0.45210 0.01600
C 	C 	0.05450 0.58940 0.46332 -0.01400
C 	C 	0.03720 0.56370 0.38670 0.09900
C 	C 	0.50230 0.55090 0.37762 0.10500
C 	C 	0.45370 0.46510 0.44084 -0.00400
C 	C 	0.54660 0.46020 0.42962 -0.00200
C 	C 	0.75300 0.00030 0.54720 0.11200
C 	C 	0.81860 0.13110 0.58220 -0.00600
C 	C 	0.83110 0.14640 0.53300 0.00700
C 	C 	0.50890 0.04810 0.36390 0.11700
C 	C 	0.45280 0.94750 0.30950 -0.00100
C 	C 	0.54080 0.93490 0.32690 -0.00900
C 	C 	0.68480 0.03080 0.43360 -0.27200
C 	C 	0.78010 0.04990 0.45700 0.20700
C 	C 	0.87030 0.06220 0.42960 -0.26700
C 	C 	0.86320 0.05640 0.37860 0.20900
C 	C 	0.77010 0.04120 0.35460 -0.26200
C 	C 	0.68130 0.02920 0.38280 0.21500
C 	C 	0.97360 0.09730 0.30190 -0.00200
C 	C 	0.03630 0.04050 0.36470 0.09200
C 	C 	0.06600 0.08980 0.28980 -0.01300
C 	C 	0.16270 0.78120 0.82390 0.32300
C 	C 	0.13520 0.67540 0.81835 -0.15600
C 	C 	0.21460 0.66800 0.74040 0.13200
C 	C 	0.31160 0.68180 0.75940 -0.12900
C 	C 	0.39750 0.70240 0.72770 0.00600
C 	C 	0.38760 0.71180 0.67810 -0.06000
C 	C 	0.28910 0.69810 0.65690 -0.02400
C 	C 	0.20020 0.67540 0.68810 0.00900
C 	C 	0.10220 0.66350 0.66720 -0.10200
C 	C 	0.09480 0.67390 0.61730 0.06000
C 	C 	0.18040 0.69710 0.58590 -0.16800
C 	C 	0.27450 0.70900 0.60578 0.15400
C 	C 	0.36500 0.76520 0.52833 -0.18000
C 	C 	0.33250 0.68770 0.48960 0.34400
C 	C 	0.25200 0.55620 0.29697 0.10200
C 	C 	0.35730 0.68190 0.32490 -0.01400
C 	C 	0.36980 0.68520 0.27559 0.00600
C 	C 	0.28600 0.57980 0.20618 0.22100
C 	C 	0.18840 0.55430 0.18450 -0.28100
C 	C 	0.17800 0.53810 0.13451 0.22400
C 	C 	0.26300 0.54430 0.10479 -0.27100
C 	C 	0.36000 0.56840 0.12701 0.22100
C 	C 	0.37190 0.58760 0.17702 -0.27700
C 	C 	0.46130 0.59220 0.04790 0.01600
C 	C 	0.55450 0.58940 0.03668 -0.01500
C 	C 	0.53720 0.56370 0.11330 0.09900
C 	C 	0.00230 0.55090 0.12238 0.10600
C 	C 	0.95370 0.46510 0.05916 -0.00500
C 	C 	0.04660 0.46020 0.07038 -0.00200
C 	C 	0.25300 0.00030 0.95280 0.11200
C 	C 	0.31860 0.13110 0.91780 -0.00600
C 	C 	0.33110 0.14640 0.96700 0.00700
C 	C 	0.00890 0.04810 0.13610 0.11600
C 	C 	0.95280 0.94750 0.19050 -0.00400
C 	C 	0.04080 0.93490 0.17310 -0.00600
C 	C 	0.18480 0.03080 0.06640 -0.27100
C 	C 	0.28010 0.04990 0.04300 0.20600
C 	C 	0.37030 0.06220 0.07040 -0.26700
C 	C 	0.36320 0.05640 0.12140 0.20900
C 	C 	0.27010 0.04120 0.14540 -0.26200
C 	C 	0.18130 0.02920 0.11720 0.21500
C 	C 	0.47360 0.09730 0.19810 -0.00300
C 	C 	0.53630 0.04050 0.13530 0.09300
C 	C 	0.56600 0.08980 0.21020 -0.01200
C 	C 	0.33730 0.21880 0.32390 0.32300
C 	C 	0.36480 0.32460 0.31835 -0.15600
C 	C 	0.28540 0.33200 0.24040 0.13200
C 	C 	0.18840 0.31820 0.25940 -0.12900
C 	C 	0.10250 0.29760 0.22770 0.00600
C 	C 	0.11240 0.28820 0.17810 -0.06000
C 	C 	0.21090 0.30190 0.15690 -0.02400
C 	C 	0.29980 0.32460 0.18810 0.00900
C 	C 	0.39780 0.33650 0.16720 -0.10200
C 	C 	0.40520 0.32610 0.11730 0.06000
C 	C 	0.31960 0.30290 0.08590 -0.16800
C 	C 	0.22550 0.29100 0.10578 0.15400
C 	C 	0.13500 0.23480 0.02833 -0.18000
C 	C 	0.16750 0.31230 0.98960 0.34400
C 	C 	0.24800 0.44380 0.79697 0.10200
C 	C 	0.14270 0.31810 0.82490 -0.01400
C 	C 	0.13020 0.31480 0.77559 0.00600
C 	C 	0.21400 0.42020 0.70618 0.22100
C 	C 	0.31160 0.44570 0.68450 -0.28100
C 	C 	0.32200 0.46190 0.63451 0.22400
C 	C 	0.23700 0.45570 0.60479 -0.27100
C 	C 	0.14000 0.43160 0.62701 0.22000
C 	C 	0.12810 0.41240 0.67702 -0.27700
C 	C 	0.03870 0.40780 0.54790 0.01600
C 	C 	0.94550 0.41060 0.53668 -0.01400
C 	C 	0.96280 0.43630 0.61330 0.09900
C 	C 	0.49770 0.44910 0.62238 0.10500
C 	C 	0.54630 0.53490 0.55916 -0.00400
C 	C 	0.45340 0.53980 0.57038 -0.00200
C 	C 	0.24700 0.99970 0.45280 0.11200
C 	C 	0.18140 0.86890 0.41780 -0.00600
C 	C 	0.16890 0.85360 0.46700 0.00700
C 	C 	0.49110 0.95190 0.63610 0.11700
C 	C 	0.54720 0.05250 0.69050 -0.00100
C 	C 	0.45920 0.06510 0.67310 -0.00900
C 	C 	0.31520 0.96920 0.56640 -0.27200
C 	C 	0.21990 0.95010 0.54300 0.20700
C 	C 	0.12970 0.93780 0.57040 -0.26700
C 	C 	0.13680 0.94360 0.62140 0.20900
C 	C 	0.22990 0.95880 0.64540 -0.26200
C 	C 	0.31870 0.97080 0.61720 0.21500
C 	C 	0.02640 0.90270 0.69810 -0.00200
C 	C 	0.96370 0.95950 0.63530 0.09200
C 	C 	0.93400 0.91020 0.71020 -0.01300
N 	N 	0.72940 0.96170 0.09080 -0.24500
N 	N 	0.71170 0.93820 0.00981 -0.16200
N 	N 	0.54580 0.93400 0.85026 -0.15900
N 	N 	0.39520 0.94760 0.82894 -0.23700
N 	N 	0.91490 0.98890 0.85756 -0.16200
N 	N 	0.07150 0.99000 0.83673 -0.24400
N 	N 	0.71620 0.39920 0.66142 -0.24300
N 	N 	0.69940 0.39560 0.74297 -0.16400
N 	N 	0.55150 0.42440 0.90243 -0.16400
N 	N 	0.39700 0.42820 0.92263 -0.24100
N 	N 	0.92090 0.48440 0.88915 -0.15900
N 	N 	0.07520 0.47850 0.90866 -0.23900
N 	N 	0.77060 0.03830 0.59080 -0.24500
N 	N 	0.78830 0.06180 0.50981 -0.16300
N 	N 	0.95420 0.06600 0.35026 -0.15900
N 	N 	0.10480 0.05240 0.32894 -0.23700
N 	N 	0.58510 0.01110 0.35756 -0.16200
N 	N 	0.42850 0.01000 0.33673 -0.24500
N 	N 	0.78380 0.60080 0.16142 -0.24300
N 	N 	0.80060 0.60440 0.24297 -0.16400
N 	N 	0.94850 0.57560 0.40243 -0.16400
N 	N 	0.10300 0.57180 0.42263 -0.24100
N 	N 	0.57910 0.51560 0.38915 -0.15900
N 	N 	0.42480 0.52150 0.40866 -0.23900
N 	N 	0.27060 0.03830 0.90920 -0.24500
N 	N 	0.28830 0.06180 0.99019 -0.16200
N 	N 	0.45420 0.06600 0.14974 -0.15900
N 	N 	0.60480 0.05240 0.17106 -0.23700
N 	N 	0.08510 0.01110 0.14244 -0.16200
N 	N 	0.92850 0.01000 0.16327 -0.24400
N 	N 	0.28380 0.60080 0.33858 -0.24300
N 	N 	0.30060 0.60440 0.25703 -0.16400
N 	N 	0.44850 0.57560 0.09757 -0.16400
N 	N 	0.60300 0.57180 0.07737 -0.24100
N 	N 	0.07910 0.51560 0.11085 -0.15900
N 	N 	0.92480 0.52150 0.09134 -0.23900
N 	N 	0.22940 0.96170 0.40920 -0.24500
N 	N 	0.21170 0.93820 0.49019 -0.16300
N 	N 	0.04580 0.93400 0.64974 -0.15900
N 	N 	0.89520 0.94760 0.67106 -0.23700
N 	N 	0.41490 0.98890 0.64244 -0.16200
N 	N 	0.57150 0.99000 0.66327 -0.24500
N 	N 	0.21620 0.39920 0.83858 -0.24300
N 	N 	0.19940 0.39560 0.75703 -0.16400
N 	N 	0.05150 0.42440 0.59757 -0.16400
N 	N 	0.89700 0.42820 0.57737 -0.24100
N 	N 	0.42090 0.48440 0.61085 -0.15900
N 	N 	0.57520 0.47850 0.59134 -0.23900
O 	O 	0.70580 0.39480 0.49774 -0.41100
O 	O 	0.63540 0.26730 0.42185 -0.17100
O 	O 	0.87360 0.35540 0.23210 -0.17900
O 	O 	0.82460 0.16780 0.21387 -0.39900
O 	O 	0.65150 0.28370 0.55454 -0.37600
O 	O 	0.82930 0.18730 0.13241 -0.37500
O 	O 	0.79420 0.60520 0.99774 -0.41100
O 	O 	0.86460 0.73270 0.92185 -0.17200
O 	O 	0.62640 0.64460 0.73210 -0.17900
O 	O 	0.67540 0.83220 0.71387 -0.39900
O 	O 	0.84850 0.71630 0.05454 -0.37600
O 	O 	0.67070 0.81270 0.63241 -0.37500
O 	O 	0.29420 0.60520 0.50226 -0.41100
O 	O 	0.36460 0.73270 0.57815 -0.17100
O 	O 	0.12640 0.64460 0.76790 -0.17900
O 	O 	0.17540 0.83220 0.78613 -0.39900
O 	O 	0.34850 0.71630 0.44546 -0.37600
O 	O 	0.17070 0.81270 0.86759 -0.37500
O 	O 	0.20580 0.39480 0.00226 -0.41100
O 	O 	0.13540 0.26730 0.07815 -0.17200
O 	O 	0.37360 0.35540 0.26790 -0.17900
O 	O 	0.32460 0.16780 0.28613 -0.39900
O 	O 	0.15150 0.28370 0.94546 -0.37600
O 	O 	0.32930 0.18730 0.36759 -0.37500
