data_crystal

_cell_length_a 14.86500
_cell_length_b 14.98300
_cell_length_c 14.98300
_cell_angle_alpha 120.00000
_cell_angle_beta  90.00000
_cell_angle_gamma 90.00000

_symmetry_space_group_name_	'P 1'
_symmetry_space_group_name_H-M	'P 1'

loop_
_symmetry_equiv_pos_as_xyz
  x,y,z

loop_
_atom_site_label
_atom_site_type_symbol
_atom_site_fract_x
_atom_site_fract_y
_atom_site_fract_z
_atom_site_charge
Sm	Sm	0.75000 0.33333 0.66666 2.22200
Sm	Sm	0.75000 0.66667 0.33334 2.22200
Sm	Sm	0.25000 0.66667 0.33334 2.20400
Sm	Sm	0.25000 0.33333 0.66666 2.20400
Cu	Cu	0.00000 0.50000 0.50000 0.89000
Cu	Cu	-0.00000 0.00000 0.50000 0.85600
Cu	Cu	0.00000 0.50000 -0.00000 0.85600
Cu	Cu	0.50000 0.00000 0.50000 0.91300
Cu	Cu	0.50000 0.50000 0.50000 0.94700
Cu	Cu	0.50000 0.50000 -0.00000 0.91300
H 	H 	0.83910 0.63260 0.79050 0.13500
H 	H 	0.76270 0.62420 0.71410 0.10900
H 	H 	0.83910 0.15790 0.36740 0.09700
H 	H 	0.76270 0.08990 0.37580 0.06900
H 	H 	0.83910 0.20950 0.84210 0.11400
H 	H 	0.76270 0.28590 0.91010 0.11700
H 	H 	0.83910 0.36740 0.20950 0.09700
H 	H 	0.76270 0.37580 0.28590 0.08800
H 	H 	0.83910 0.84210 0.63260 0.13300
H 	H 	0.76270 0.91010 0.62420 0.12800
H 	H 	0.83910 0.79050 0.15790 0.11600
H 	H 	0.76270 0.71410 0.08990 0.07900
H 	H 	0.66090 0.84210 0.20950 0.09900
H 	H 	0.73730 0.91010 0.28590 0.11900
H 	H 	0.66090 0.79050 0.63260 0.11900
H 	H 	0.73730 0.71410 0.62420 0.11200
H 	H 	0.66090 0.36740 0.15790 0.08100
H 	H 	0.73730 0.37580 0.08990 0.07200
H 	H 	0.66090 0.15790 0.79050 0.10100
H 	H 	0.73730 0.08990 0.71410 0.08200
H 	H 	0.66090 0.20950 0.36740 0.08100
H 	H 	0.73730 0.28590 0.37580 0.09000
H 	H 	0.66090 0.63260 0.84210 0.11800
H 	H 	0.73730 0.62420 0.91010 0.13000
H 	H 	0.16090 0.36740 0.20950 0.05900
H 	H 	0.23730 0.37580 0.28590 0.07900
H 	H 	0.16090 0.84210 0.63260 0.09700
H 	H 	0.23730 0.91010 0.62420 0.11900
H 	H 	0.16090 0.79050 0.15790 0.07900
H 	H 	0.23730 0.71410 0.08990 0.07100
H 	H 	0.16090 0.63260 0.79050 0.09800
H 	H 	0.23730 0.62420 0.71410 0.10100
H 	H 	0.16090 0.15790 0.36740 0.05900
H 	H 	0.23730 0.08990 0.37580 0.06000
H 	H 	0.16090 0.20950 0.84210 0.07800
H 	H 	0.23730 0.28590 0.91010 0.10900
H 	H 	0.33910 0.15790 0.79050 0.09500
H 	H 	0.26270 0.08990 0.71410 0.07000
H 	H 	0.33910 0.20950 0.36740 0.07400
H 	H 	0.26270 0.28590 0.37580 0.07800
H 	H 	0.33910 0.63260 0.84210 0.11200
H 	H 	0.26270 0.62420 0.91010 0.11900
H 	H 	0.33910 0.84210 0.20950 0.09300
H 	H 	0.26270 0.91010 0.28590 0.10800
H 	H 	0.33910 0.79050 0.63260 0.11400
H 	H 	0.26270 0.71410 0.62420 0.10000
H 	H 	0.33910 0.36740 0.15790 0.07500
H 	H 	0.26270 0.37580 0.08990 0.05900
C 	C 	0.86000 0.51400 0.64350 0.43900
C 	C 	0.80170 0.58470 0.73350 -0.22000
C 	C 	0.86000 0.12950 0.48600 0.42000
C 	C 	0.80170 0.14880 0.41530 -0.18300
C 	C 	0.86000 0.35650 0.87050 0.43100
C 	C 	0.80170 0.26650 0.85120 -0.20700
C 	C 	0.86000 0.48600 0.35650 0.42400
C 	C 	0.80170 0.41530 0.26650 -0.18800
C 	C 	0.86000 0.87050 0.51400 0.43900
C 	C 	0.80170 0.85120 0.58470 -0.22300
C 	C 	0.86000 0.64350 0.12950 0.42800
C 	C 	0.80170 0.73350 0.14880 -0.19900
C 	C 	0.64000 0.87050 0.35650 0.43300
C 	C 	0.69830 0.85120 0.26650 -0.20900
C 	C 	0.64000 0.64350 0.51400 0.44200
C 	C 	0.69830 0.73350 0.58470 -0.22300
C 	C 	0.64000 0.48600 0.12950 0.42300
C 	C 	0.69830 0.41530 0.14880 -0.18600
C 	C 	0.64000 0.12950 0.64350 0.43100
C 	C 	0.69830 0.14880 0.73350 -0.20200
C 	C 	0.64000 0.35650 0.48600 0.42600
C 	C 	0.69830 0.26650 0.41530 -0.19000
C 	C 	0.64000 0.51400 0.87050 0.44100
C 	C 	0.69830 0.58470 0.85120 -0.22600
C 	C 	0.14000 0.48600 0.35650 0.41800
C 	C 	0.19830 0.41530 0.26650 -0.17900
C 	C 	0.14000 0.87050 0.51400 0.43300
C 	C 	0.19830 0.85120 0.58470 -0.21500
C 	C 	0.14000 0.64350 0.12950 0.42300
C 	C 	0.19830 0.73350 0.14880 -0.19000
C 	C 	0.14000 0.51400 0.64350 0.43400
C 	C 	0.19830 0.58470 0.73350 -0.21200
C 	C 	0.14000 0.12950 0.48600 0.41500
C 	C 	0.19830 0.14880 0.41530 -0.17400
C 	C 	0.14000 0.35650 0.87050 0.42600
C 	C 	0.19830 0.26650 0.85120 -0.19800
C 	C 	0.36000 0.12950 0.64350 0.42600
C 	C 	0.30170 0.14880 0.73350 -0.19100
C 	C 	0.36000 0.35650 0.48600 0.42100
C 	C 	0.30170 0.26650 0.41530 -0.18000
C 	C 	0.36000 0.51400 0.87050 0.43700
C 	C 	0.30170 0.58470 0.85120 -0.21600
C 	C 	0.36000 0.87050 0.35650 0.42900
C 	C 	0.30170 0.85120 0.26650 -0.19900
C 	C 	0.36000 0.64350 0.51400 0.43700
C 	C 	0.30170 0.73350 0.58470 -0.21300
C 	C 	0.36000 0.48600 0.12950 0.41800
C 	C 	0.30170 0.41530 0.14880 -0.17500
O 	O 	0.90760 0.55680 0.60740 -0.35900
O 	O 	0.85730 0.41960 0.61320 -0.46100
O 	O 	0.90760 0.05060 0.44320 -0.38700
O 	O 	0.85730 0.19360 0.58040 -0.46300
O 	O 	0.90760 0.39260 0.94940 -0.32500
O 	O 	0.85730 0.38680 0.80640 -0.45000
O 	O 	0.90760 0.44320 0.39260 -0.36300
O 	O 	0.85730 0.58040 0.38680 -0.45700
O 	O 	0.90760 0.94940 0.55680 -0.32300
O 	O 	0.85730 0.80640 0.41960 -0.45200
O 	O 	0.90760 0.60740 0.05060 -0.38500
O 	O 	0.85730 0.61320 0.19360 -0.46500
O 	O 	0.59240 0.94940 0.39260 -0.38000
O 	O 	0.64270 0.80640 0.38680 -0.47600
O 	O 	0.59240 0.60740 0.55680 -0.41500
O 	O 	0.64270 0.61320 0.41960 -0.48700
O 	O 	0.59240 0.44320 0.05060 -0.44300
O 	O 	0.64270 0.58040 0.19360 -0.49000
O 	O 	0.59240 0.05060 0.60740 -0.44100
O 	O 	0.64270 0.19360 0.61320 -0.49200
O 	O 	0.59240 0.39260 0.44320 -0.42000
O 	O 	0.64270 0.38680 0.58040 -0.48400
O 	O 	0.59240 0.55680 0.94940 -0.37700
O 	O 	0.64270 0.41960 0.80640 -0.47800
O 	O 	0.09240 0.44320 0.39260 -0.45100
O 	O 	0.14270 0.58040 0.38680 -0.50000
O 	O 	0.09240 0.94940 0.55680 -0.40700
O 	O 	0.14270 0.80640 0.41960 -0.49400
O 	O 	0.09240 0.60740 0.05060 -0.47200
O 	O 	0.14270 0.61320 0.19360 -0.50800
O 	O 	0.09240 0.55680 0.60740 -0.44600
O 	O 	0.14270 0.41960 0.61320 -0.50400
O 	O 	0.09240 0.05060 0.44320 -0.47400
O 	O 	0.14270 0.19360 0.58040 -0.50600
O 	O 	0.09240 0.39260 0.94940 -0.40900
O 	O 	0.14270 0.38680 0.80640 -0.49200
O 	O 	0.40760 0.05060 0.60740 -0.44000
O 	O 	0.35730 0.19360 0.61320 -0.48800
O 	O 	0.40760 0.39260 0.44320 -0.41900
O 	O 	0.35730 0.38680 0.58040 -0.48100
O 	O 	0.40760 0.55680 0.94940 -0.37600
O 	O 	0.35730 0.41960 0.80640 -0.47400
O 	O 	0.40760 0.94940 0.39260 -0.37800
O 	O 	0.35730 0.80640 0.38680 -0.47300
O 	O 	0.40760 0.60740 0.55680 -0.41400
O 	O 	0.35730 0.61320 0.41960 -0.48400
O 	O 	0.40760 0.44320 0.05060 -0.44300
O 	O 	0.35730 0.58040 0.19360 -0.48700
O 	O 	0.75000 0.52710 0.76355 -0.23600
O 	O 	0.75000 0.23645 0.47290 -0.25900
O 	O 	0.75000 0.23645 0.76355 -0.24800
O 	O 	0.75000 0.47290 0.23645 -0.25900
O 	O 	0.75000 0.76355 0.52710 -0.23600
O 	O 	0.75000 0.76355 0.23645 -0.24800
O 	O 	0.25000 0.47290 0.23645 -0.26800
O 	O 	0.25000 0.76355 0.52710 -0.24400
O 	O 	0.25000 0.76355 0.23645 -0.25600
O 	O 	0.25000 0.52710 0.76355 -0.24400
O 	O 	0.25000 0.23645 0.47290 -0.26800
O 	O 	0.25000 0.23645 0.76355 -0.25600
