data_crystal

_cell_length_a 7.94800
_cell_length_b 13.41000
_cell_length_c 19.50000
_cell_angle_alpha 110.11100
_cell_angle_beta  99.34520
_cell_angle_gamma 90.00000

_symmetry_space_group_name_	'P 1'
_symmetry_space_group_name_H-M	'P 1'

loop_
_symmetry_equiv_pos_as_xyz
  x,y,z

loop_
_atom_site_label
_atom_site_type_symbol
_atom_site_fract_x
_atom_site_fract_y
_atom_site_fract_z
_atom_site_charge
Ni	Ni	-0.00000 0.00000 -0.00000 1.02700
Ni	Ni	0.50000 0.00000 -0.00000 1.03800
H 	H 	0.04850 0.10980 0.75440 -0.04500
H 	H 	0.89860 0.09320 0.63920 0.14200
H 	H 	0.51000 0.94180 0.67700 0.10200
H 	H 	0.66040 0.95800 0.79240 -0.00400
H 	H 	0.64440 0.21050 0.65720 0.10500
H 	H 	0.65560 0.81360 0.57280 0.11300
H 	H 	0.75720 0.65680 0.56960 0.12400
H 	H 	0.57750 0.65970 0.59340 0.12100
H 	H 	0.65530 0.55030 0.55760 0.13800
H 	H 	0.35610 0.61380 0.25820 0.08900
H 	H 	0.25570 0.51780 0.26480 0.09100
H 	H 	0.19680 0.63360 0.29820 0.09300
H 	H 	0.45150 0.35540 0.24560 0.00200
H 	H 	0.60140 0.45400 0.36080 0.12000
H 	H 	0.99000 0.26480 0.32300 0.09700
H 	H 	0.83960 0.16560 0.20760 0.00100
H 	H 	0.85560 0.55330 0.34280 0.10100
H 	H 	0.84440 0.24080 0.42720 0.09100
H 	H 	0.74280 0.08720 0.43040 0.17800
H 	H 	0.92250 0.06630 0.40660 0.17900
H 	H 	0.84470 0.99270 0.44240 0.25100
H 	H 	0.14390 0.35560 0.74180 0.10100
H 	H 	0.24430 0.25300 0.73520 0.10700
H 	H 	0.30320 0.33540 0.70180 0.11100
H 	H 	0.95150 0.89020 0.24560 0.07600
H 	H 	0.10140 0.90680 0.36080 0.08100
H 	H 	0.49000 0.05820 0.32300 0.06700
H 	H 	0.33960 0.04200 0.20760 0.04400
H 	H 	0.35560 0.78950 0.34280 0.07100
H 	H 	0.34440 0.18640 0.42720 0.05300
H 	H 	0.24280 0.34320 0.43040 0.10400
H 	H 	0.42250 0.34030 0.40660 0.11100
H 	H 	0.34470 0.44970 0.44240 0.12700
H 	H 	0.64390 0.38620 0.74180 0.11100
H 	H 	0.74430 0.48220 0.73520 0.12100
H 	H 	0.80320 0.36640 0.70180 0.12100
H 	H 	0.54850 0.64460 0.75440 0.02700
H 	H 	0.39860 0.54600 0.63920 0.10400
H 	H 	0.01000 0.73520 0.67700 0.07300
H 	H 	0.16040 0.83440 0.79240 0.03600
H 	H 	0.14440 0.44670 0.65720 0.07500
H 	H 	0.15560 0.75920 0.57280 0.07600
H 	H 	0.25720 0.91280 0.56960 0.05000
H 	H 	0.07750 0.93370 0.59340 0.05200
H 	H 	0.15530 0.00730 0.55760 0.01300
H 	H 	0.85610 0.64440 0.25820 0.09900
H 	H 	0.75570 0.74700 0.26480 0.10700
H 	H 	0.69680 0.66460 0.29820 0.10500
C 	C 	0.96920 0.04939 0.86098 0.41400
C 	C 	0.87010 0.03689 0.78598 -0.26500
C 	C 	0.93960 0.07617 0.73914 0.20100
C 	C 	0.84940 0.06618 0.66976 -0.25700
C 	C 	0.68670 0.01635 0.64550 0.12600
C 	C 	0.61850 0.97610 0.69240 -0.16600
C 	C 	0.70860 0.98579 0.76198 0.19500
C 	C 	0.58910 0.20448 0.60996 -0.18500
C 	C 	0.54420 0.10098 0.55596 0.11600
C 	C 	0.59060 0.00785 0.57070 -0.18500
C 	C 	0.54700 0.90730 0.51540 0.15200
C 	C 	0.58980 0.80995 0.52790 -0.19300
C 	C 	0.64550 0.62163 0.55746 -0.26700
C 	C 	0.53780 0.71354 0.47668 0.13300
C 	C 	0.44590 0.70640 0.40500 0.07900
C 	C 	0.29380 0.59139 0.28918 -0.20600
C 	C 	0.53080 0.18841 0.13902 0.35900
C 	C 	0.62990 0.25091 0.21402 -0.16600
C 	C 	0.56040 0.33703 0.26086 0.10000
C 	C 	0.65060 0.39642 0.33024 -0.20300
C 	C 	0.81330 0.37085 0.35450 0.14200
C 	C 	0.88150 0.28370 0.30760 -0.19000
C 	C 	0.79140 0.22381 0.23802 0.09400
C 	C 	0.91090 0.59452 0.39004 -0.17400
C 	C 	0.95580 0.54502 0.44404 0.10600
C 	C 	0.90940 0.43715 0.42930 -0.11200
C 	C 	0.95300 0.39190 0.48460 0.09500
C 	C 	0.91020 0.28205 0.47210 -0.16400
C 	C 	0.85450 0.06417 0.44254 -0.50800
C 	C 	0.96220 0.23686 0.52332 0.13000
C 	C 	0.05410 0.30140 0.59500 0.06400
C 	C 	0.20620 0.30221 0.71082 -0.23200
C 	C 	0.03080 0.95061 0.13902 0.27600
C 	C 	0.12990 0.96311 0.21402 -0.00200
C 	C 	0.06040 0.92383 0.26086 -0.04800
C 	C 	0.15060 0.93382 0.33024 -0.09600
C 	C 	0.31330 0.98365 0.35450 0.10600
C 	C 	0.38150 0.02390 0.30760 -0.16000
C 	C 	0.29140 0.01421 0.23802 -0.06500
C 	C 	0.41090 0.79552 0.39004 -0.09300
C 	C 	0.45580 0.89902 0.44404 -0.02000
C 	C 	0.40940 0.99215 0.42930 0.03500
C 	C 	0.45300 0.09270 0.48460 -0.07800
C 	C 	0.41020 0.19005 0.47210 -0.07900
C 	C 	0.35450 0.37837 0.44254 -0.25000
C 	C 	0.46220 0.28646 0.52332 0.07000
C 	C 	0.55410 0.29360 0.59500 0.13300
C 	C 	0.70620 0.40861 0.71082 -0.24800
C 	C 	0.46920 0.81159 0.86098 0.33500
C 	C 	0.37010 0.74909 0.78598 -0.11400
C 	C 	0.43960 0.66297 0.73914 0.05700
C 	C 	0.34940 0.60358 0.66976 -0.15300
C 	C 	0.18670 0.62915 0.64550 0.08900
C 	C 	0.11850 0.71630 0.69240 -0.13700
C 	C 	0.20860 0.77619 0.76198 0.04900
C 	C 	0.08910 0.40548 0.60996 -0.10300
C 	C 	0.04420 0.45498 0.55596 -0.01000
C 	C 	0.09060 0.56285 0.57070 -0.04000
C 	C 	0.04700 0.60810 0.51540 -0.01800
C 	C 	0.08980 0.71795 0.52790 -0.11000
C 	C 	0.14550 0.93583 0.55746 -0.00700
C 	C 	0.03780 0.76314 0.47668 0.07500
C 	C 	0.94590 0.69860 0.40500 0.14700
C 	C 	0.79380 0.69779 0.28918 -0.22300
O 	O 	0.56600 0.61854 0.48566 -0.15400
O 	O 	0.40180 0.60448 0.35778 -0.16100
O 	O 	0.89290 0.02125 0.90464 -0.41700
O 	O 	0.11930 0.08548 0.87724 -0.29700
O 	O 	0.93400 0.13288 0.51434 -0.10900
O 	O 	0.09820 0.24670 0.64222 -0.16200
O 	O 	0.60710 0.11661 0.09536 -0.44800
O 	O 	0.38070 0.20824 0.12276 -0.30000
O 	O 	0.43400 0.38146 0.51434 -0.14300
O 	O 	0.59820 0.39552 0.64222 -0.16100
O 	O 	0.10710 0.97875 0.09536 -0.38100
O 	O 	0.88070 0.91452 0.12276 -0.23700
O 	O 	0.06600 0.86712 0.48566 -0.18800
O 	O 	0.90180 0.75330 0.35778 -0.15900
O 	O 	0.39290 0.88339 0.90464 -0.36300
O 	O 	0.61930 0.79176 0.87724 -0.24200
O 	O 	0.25000 0.06255 -0.00000 -0.43700
O 	O 	0.75000 0.93745 -0.00000 -0.36900
