data_crystal

_cell_length_a 14.40850
_cell_length_b 18.93820
_cell_length_c 17.05220
_cell_angle_alpha 90.00000
_cell_angle_beta  101.69600
_cell_angle_gamma 90.00000

_symmetry_space_group_name_	'P 1'
_symmetry_space_group_name_H-M	'P 1'

loop_
_symmetry_equiv_pos_as_xyz
  x,y,z

loop_
_atom_site_label
_atom_site_type_symbol
_atom_site_fract_x
_atom_site_fract_y
_atom_site_fract_z
_atom_site_charge
P 	P 	0.50932 0.16390 0.30776 0.42200
P 	P 	0.72458 0.25597 0.50141 0.43300
S 	S 	0.00380 0.03320 0.70810 0.02000
C 	C 	0.70850 0.31240 0.27430 -0.07400
H 	H 	0.69740 0.34440 0.31590 0.07800
H 	H 	0.67670 0.33140 0.22300 0.06800
C 	C 	0.68650 0.19210 0.22360 -0.04500
H 	H 	0.65390 0.20860 0.17140 0.06100
H 	H 	0.66220 0.14570 0.23250 0.02800
C 	C 	0.56400 0.24810 0.28880 -0.22400
H 	H 	0.53050 0.26700 0.23810 0.11800
H 	H 	0.55690 0.28150 0.33040 0.11500
C 	C 	0.79690 0.18570 0.73610 -0.06300
H 	H 	0.86300 0.19990 0.74850 0.07900
H 	H 	0.79440 0.13610 0.72140 0.06700
C 	C 	0.74580 0.30460 0.69010 -0.08500
H 	H 	0.70960 0.33170 0.64600 0.08000
H 	H 	0.81030 0.32230 0.70100 0.09100
C 	C 	0.78820 0.21470 0.59440 -0.22200
H 	H 	0.79030 0.16410 0.58600 0.10600
H 	H 	0.85290 0.23180 0.60560 0.12800
N 	N 	0.66810 0.24170 0.28650 -0.12700
H 	H 	0.69880 0.22490 0.33490 0.13000
N 	N 	0.74550 0.22810 0.66700 -0.12400
H 	H 	0.68420 0.21320 0.65550 0.12700
O 	O 	0.47030 0.12980 0.22850 -0.27000
O 	O 	0.43480 0.18540 0.35610 -0.37700
O 	O 	0.58660 0.12200 0.36350 -0.45900
O 	O 	0.74630 0.33490 0.50640 -0.21100
O 	O 	0.76670 0.21970 0.43750 -0.26000
O 	O 	0.62030 0.24140 0.49740 -0.38100
O 	O 	0.63330 0.06500 0.52560 -0.48500
O 	O 	0.05800 0.04630 0.77450 -0.17900
O 	O 	0.02500 0.98900 0.65400 -0.19000
O 	O 	0.99600 0.10210 0.66360 -0.07900
P 	P 	0.00932 0.66390 0.80776 0.33400
P 	P 	0.22458 0.75597 0.00141 0.32600
S 	S 	0.50380 0.53320 0.20810 0.46500
C 	C 	0.20850 0.81240 0.77430 -0.07400
H 	H 	0.19740 0.84440 0.81590 0.09100
H 	H 	0.17670 0.83140 0.72300 0.07100
C 	C 	0.18650 0.69210 0.72360 -0.04200
H 	H 	0.15390 0.70860 0.67140 0.06400
H 	H 	0.16220 0.64570 0.73250 0.02800
C 	C 	0.06400 0.74810 0.78880 -0.20100
H 	H 	0.03050 0.76700 0.73810 0.09600
H 	H 	0.05690 0.78150 0.83040 0.10600
C 	C 	0.29690 0.68570 0.23610 -0.05200
H 	H 	0.36300 0.69990 0.24850 0.06300
H 	H 	0.29440 0.63610 0.22140 0.05700
C 	C 	0.24580 0.80460 0.19010 -0.08700
H 	H 	0.20960 0.83170 0.14600 0.07900
H 	H 	0.31030 0.82230 0.20100 0.09200
C 	C 	0.28820 0.71470 0.09440 -0.20000
H 	H 	0.29030 0.66410 0.08600 0.08700
H 	H 	0.35290 0.73180 0.10560 0.10800
N 	N 	0.16810 0.74170 0.78650 -0.13000
H 	H 	0.19880 0.72490 0.83490 0.13200
N 	N 	0.24550 0.72810 0.16700 -0.12900
H 	H 	0.18420 0.71320 0.15550 0.12500
O 	O 	0.97030 0.62980 0.72850 -0.20500
O 	O 	0.93480 0.68540 0.85610 -0.30400
O 	O 	0.08660 0.62200 0.86350 -0.44300
O 	O 	0.24630 0.83490 0.00640 -0.22500
O 	O 	0.26670 0.71970 0.93750 -0.20100
O 	O 	0.12030 0.74140 0.99740 -0.29600
O 	O 	0.13330 0.56500 0.02560 -0.52000
O 	O 	0.55800 0.54630 0.27450 -0.27200
O 	O 	0.52500 0.48900 0.15400 -0.20600
O 	O 	0.49600 0.60210 0.16360 -0.22200
P 	P 	0.49068 0.16390 0.69224 0.42300
P 	P 	0.27542 0.25597 0.49859 0.43100
S 	S 	0.99620 0.03320 0.29190 0.20100
C 	C 	0.29150 0.31240 0.72570 -0.08700
H 	H 	0.30260 0.34440 0.68410 0.08100
H 	H 	0.32330 0.33140 0.77700 0.07700
C 	C 	0.31350 0.19210 0.77640 -0.06000
H 	H 	0.34610 0.20860 0.82860 0.08200
H 	H 	0.33780 0.14570 0.76750 0.04000
C 	C 	0.43600 0.24810 0.71120 -0.22400
H 	H 	0.46950 0.26700 0.76190 0.12300
H 	H 	0.44310 0.28150 0.66960 0.11600
C 	C 	0.20310 0.18570 0.26390 -0.04900
H 	H 	0.13700 0.19990 0.25150 0.05100
H 	H 	0.20560 0.13610 0.27860 0.05600
C 	C 	0.25420 0.30460 0.30990 -0.08200
H 	H 	0.29040 0.33170 0.35400 0.07800
H 	H 	0.18970 0.32230 0.29900 0.08300
C 	C 	0.21180 0.21470 0.40560 -0.21400
H 	H 	0.20970 0.16410 0.41400 0.09700
H 	H 	0.14710 0.23180 0.39440 0.10900
N 	N 	0.33190 0.24170 0.71350 -0.12300
H 	H 	0.30120 0.22490 0.66510 0.12700
N 	N 	0.25450 0.22810 0.33300 -0.12900
H 	H 	0.31580 0.21320 0.34450 0.12800
O 	O 	0.52970 0.12980 0.77150 -0.25800
O 	O 	0.56520 0.18540 0.64390 -0.37600
O 	O 	0.41340 0.12200 0.63650 -0.45900
O 	O 	0.25370 0.33490 0.49360 -0.22100
O 	O 	0.23330 0.21970 0.56250 -0.27200
O 	O 	0.37970 0.24140 0.50260 -0.38100
O 	O 	0.36670 0.06500 0.47440 -0.48800
O 	O 	0.94200 0.04630 0.22550 -0.21000
O 	O 	0.97500 0.98900 0.34600 -0.21000
O 	O 	0.00400 0.10210 0.33640 -0.20400
P 	P 	0.99068 0.66390 0.19224 0.51400
P 	P 	0.77542 0.75597 0.99859 0.53400
S 	S 	0.49620 0.53320 0.79190 0.45300
C 	C 	0.79150 0.81240 0.22570 -0.09000
H 	H 	0.80260 0.84440 0.18410 0.08600
H 	H 	0.82330 0.83140 0.27700 0.08800
C 	C 	0.81350 0.69210 0.27640 -0.06400
H 	H 	0.84610 0.70860 0.32860 0.08700
H 	H 	0.83780 0.64570 0.26750 0.04900
C 	C 	0.93600 0.74810 0.21120 -0.24900
H 	H 	0.96950 0.76700 0.26190 0.15200
H 	H 	0.94310 0.78150 0.16960 0.13500
C 	C 	0.70310 0.68570 0.76390 -0.05100
H 	H 	0.63700 0.69990 0.75150 0.06300
H 	H 	0.70560 0.63610 0.77860 0.05800
C 	C 	0.75420 0.80460 0.80990 -0.08300
H 	H 	0.79040 0.83170 0.85400 0.09800
H 	H 	0.68970 0.82230 0.79900 0.09500
C 	C 	0.71180 0.71470 0.90560 -0.23200
H 	H 	0.70970 0.66410 0.91400 0.11900
H 	H 	0.64710 0.73180 0.89440 0.13300
N 	N 	0.83190 0.74170 0.21350 -0.11800
H 	H 	0.80120 0.72490 0.16510 0.12600
N 	N 	0.75450 0.72810 0.83300 -0.12500
H 	H 	0.81580 0.71320 0.84450 0.13400
O 	O 	0.02970 0.62980 0.27150 -0.31400
O 	O 	0.06520 0.68540 0.14390 -0.42100
O 	O 	0.91340 0.62200 0.13650 -0.45800
O 	O 	0.75370 0.83490 0.99360 -0.17900
O 	O 	0.73330 0.71970 0.06250 -0.32100
O 	O 	0.87970 0.74140 0.00260 -0.42500
O 	O 	0.86670 0.56500 0.97440 -0.42900
O 	O 	0.44200 0.54630 0.72550 -0.27000
O 	O 	0.47500 0.48900 0.84600 -0.19300
O 	O 	0.50400 0.60210 0.83640 -0.20200
P 	P 	0.49068 0.83610 0.69224 0.42300
P 	P 	0.27542 0.74403 0.49859 0.43300
S 	S 	0.99620 0.96680 0.29190 0.94000
C 	C 	0.29150 0.68760 0.72570 -0.08600
H 	H 	0.30260 0.65560 0.68410 0.08000
H 	H 	0.32330 0.66860 0.77700 0.07700
C 	C 	0.31350 0.80790 0.77640 -0.06200
H 	H 	0.34610 0.79140 0.82860 0.08700
H 	H 	0.33780 0.85430 0.76750 0.05300
C 	C 	0.43600 0.75190 0.71120 -0.22300
H 	H 	0.46950 0.73300 0.76190 0.12300
H 	H 	0.44310 0.71850 0.66960 0.11500
C 	C 	0.20310 0.81430 0.26390 -0.04800
H 	H 	0.13700 0.80010 0.25150 0.05200
H 	H 	0.20560 0.86390 0.27860 0.06500
C 	C 	0.25420 0.69540 0.30990 -0.08200
H 	H 	0.29040 0.66830 0.35400 0.07800
H 	H 	0.18970 0.67770 0.29900 0.08400
C 	C 	0.21180 0.78530 0.40560 -0.21800
H 	H 	0.20970 0.83590 0.41400 0.10700
H 	H 	0.14710 0.76820 0.39440 0.11400
N 	N 	0.33190 0.75830 0.71350 -0.12300
H 	H 	0.30120 0.77510 0.66510 0.12900
N 	N 	0.25450 0.77190 0.33300 -0.12800
H 	H 	0.31580 0.78680 0.34450 0.12900
O 	O 	0.52970 0.87020 0.77150 -0.23500
O 	O 	0.56520 0.81460 0.64390 -0.37200
O 	O 	0.41340 0.87800 0.63650 -0.43900
O 	O 	0.25370 0.66510 0.49360 -0.22100
O 	O 	0.23330 0.78030 0.56250 -0.26500
O 	O 	0.37970 0.75860 0.50260 -0.38200
O 	O 	0.36670 0.93500 0.47440 -0.44100
O 	O 	0.94200 0.95370 0.22550 -0.36400
O 	O 	0.97500 0.01100 0.34600 -0.21600
O 	O 	0.00400 0.89790 0.33640 -0.34200
P 	P 	0.99068 0.33610 0.19224 0.51300
P 	P 	0.77542 0.24403 0.99859 0.53400
S 	S 	0.49620 0.46680 0.79190 0.45400
C 	C 	0.79150 0.18760 0.22570 -0.08500
H 	H 	0.80260 0.15560 0.18410 0.07200
H 	H 	0.82330 0.16860 0.27700 0.07800
C 	C 	0.81350 0.30790 0.27640 -0.06300
H 	H 	0.84610 0.29140 0.32860 0.08500
H 	H 	0.83780 0.35430 0.26750 0.04800
C 	C 	0.93600 0.25190 0.21120 -0.24500
H 	H 	0.96950 0.23300 0.26190 0.14700
H 	H 	0.94310 0.21850 0.16960 0.12900
C 	C 	0.70310 0.31430 0.76390 -0.05100
H 	H 	0.63700 0.30010 0.75150 0.06300
H 	H 	0.70560 0.36390 0.77860 0.05800
C 	C 	0.75420 0.19540 0.80990 -0.07800
H 	H 	0.79040 0.16830 0.85400 0.08700
H 	H 	0.68970 0.17770 0.79900 0.08700
C 	C 	0.71180 0.28530 0.90560 -0.23200
H 	H 	0.70970 0.33590 0.91400 0.11900
H 	H 	0.64710 0.26820 0.89440 0.13100
N 	N 	0.83190 0.25830 0.21350 -0.12000
H 	H 	0.80120 0.27510 0.16510 0.12600
N 	N 	0.75450 0.27190 0.83300 -0.12600
H 	H 	0.81580 0.28680 0.84450 0.13300
O 	O 	0.02970 0.37020 0.27150 -0.31400
O 	O 	0.06520 0.31460 0.14390 -0.42200
O 	O 	0.91340 0.37800 0.13650 -0.45800
O 	O 	0.75370 0.16510 0.99360 -0.19900
O 	O 	0.73330 0.28030 0.06250 -0.32300
O 	O 	0.87970 0.25860 0.00260 -0.42900
O 	O 	0.86670 0.43500 0.97440 -0.42900
O 	O 	0.44200 0.45370 0.72550 -0.27000
O 	O 	0.47500 0.51100 0.84600 -0.19300
O 	O 	0.50400 0.39790 0.83640 -0.20300
P 	P 	0.50932 0.83610 0.30776 0.42300
P 	P 	0.72458 0.74403 0.50141 0.43500
S 	S 	0.00380 0.96680 0.70810 0.75300
C 	C 	0.70850 0.68760 0.27430 -0.07200
H 	H 	0.69740 0.65560 0.31590 0.07900
H 	H 	0.67670 0.66860 0.22300 0.06900
C 	C 	0.68650 0.80790 0.22360 -0.04600
H 	H 	0.65390 0.79140 0.17140 0.06700
H 	H 	0.66220 0.85430 0.23250 0.04200
C 	C 	0.56400 0.75190 0.28880 -0.22200
H 	H 	0.53050 0.73300 0.23810 0.11900
H 	H 	0.55690 0.71850 0.33040 0.11500
C 	C 	0.79690 0.81430 0.73610 -0.06200
H 	H 	0.86300 0.80010 0.74850 0.08000
H 	H 	0.79440 0.86390 0.72140 0.07600
C 	C 	0.74580 0.69540 0.69010 -0.08500
H 	H 	0.70960 0.66830 0.64600 0.08000
H 	H 	0.81030 0.67770 0.70100 0.09100
C 	C 	0.78820 0.78530 0.59440 -0.22700
H 	H 	0.79030 0.83590 0.58600 0.11600
H 	H 	0.85290 0.76820 0.60560 0.13400
N 	N 	0.66810 0.75830 0.28650 -0.12700
H 	H 	0.69880 0.77510 0.33490 0.13100
N 	N 	0.74550 0.77190 0.66700 -0.12300
H 	H 	0.68420 0.78680 0.65550 0.12800
O 	O 	0.47030 0.87020 0.22850 -0.24700
O 	O 	0.43480 0.81460 0.35610 -0.37300
O 	O 	0.58660 0.87800 0.36350 -0.43900
O 	O 	0.74630 0.66510 0.50640 -0.21100
O 	O 	0.76670 0.78030 0.43750 -0.25300
O 	O 	0.62030 0.75860 0.49740 -0.38200
O 	O 	0.63330 0.93500 0.52560 -0.43800
O 	O 	0.05800 0.95370 0.77450 -0.33200
O 	O 	0.02500 0.01100 0.65400 -0.19500
O 	O 	0.99600 0.89790 0.66360 -0.21500
P 	P 	0.00932 0.33610 0.80776 0.33400
P 	P 	0.22458 0.24403 0.00141 0.32700
S 	S 	0.50380 0.46680 0.20810 0.46500
C 	C 	0.20850 0.18760 0.77430 -0.07000
H 	H 	0.19740 0.15560 0.81590 0.07700
H 	H 	0.17670 0.16860 0.72300 0.06100
C 	C 	0.18650 0.30790 0.72360 -0.04100
H 	H 	0.15390 0.29140 0.67140 0.06200
H 	H 	0.16220 0.35430 0.73250 0.02800
C 	C 	0.06400 0.25190 0.78880 -0.19800
H 	H 	0.03050 0.23300 0.73810 0.09100
H 	H 	0.05690 0.21850 0.83040 0.10100
C 	C 	0.29690 0.31430 0.23610 -0.05200
H 	H 	0.36300 0.30010 0.24850 0.06300
H 	H 	0.29440 0.36390 0.22140 0.05700
C 	C 	0.24580 0.19540 0.19010 -0.08200
H 	H 	0.20960 0.16830 0.14600 0.06800
H 	H 	0.31030 0.17770 0.20100 0.08500
C 	C 	0.28820 0.28530 0.09440 -0.20000
H 	H 	0.29030 0.33590 0.08600 0.08700
H 	H 	0.35290 0.26820 0.10560 0.10700
N 	N 	0.16810 0.25830 0.78650 -0.13200
H 	H 	0.19880 0.27510 0.83490 0.13200
N 	N 	0.24550 0.27190 0.16700 -0.13000
H 	H 	0.18420 0.28680 0.15550 0.12400
O 	O 	0.97030 0.37020 0.72850 -0.20500
O 	O 	0.93480 0.31460 0.85610 -0.30500
O 	O 	0.08660 0.37800 0.86350 -0.44300
O 	O 	0.24630 0.16510 0.00640 -0.24400
O 	O 	0.26670 0.28030 0.93750 -0.20400
O 	O 	0.12030 0.25860 0.99740 -0.30000
O 	O 	0.13330 0.43500 0.02560 -0.52000
O 	O 	0.55800 0.45370 0.27450 -0.27200
O 	O 	0.52500 0.51100 0.15400 -0.20700
O 	O 	0.49600 0.39790 0.16360 -0.22300
La	La	0.50000 0.15240 0.50000 1.64800
La	La	-0.00000 0.65240 -0.00000 1.50500
La	La	0.50000 0.84760 0.50000 1.66200
La	La	-0.00000 0.34760 -0.00000 1.50400
La	La	0.64612 0.00000 0.38909 1.43600
P 	P 	0.62140 0.00000 0.57595 0.37500
C 	C 	0.88330 -0.00000 0.71960 -0.12200
C 	C 	0.86600 0.00000 0.79610 0.03600
H 	H 	0.91600 0.00000 0.84020 0.05700
C 	C 	0.77300 0.00000 0.80620 -0.11500
H 	H 	0.76010 0.00000 0.85740 0.09000
C 	C 	0.69880 0.00000 0.73950 0.02900
H 	H 	0.63650 0.00000 0.74660 0.02500
C 	C 	0.71670 0.00000 0.66300 -0.11900
C 	C 	0.81120 0.00000 0.65280 0.04000
H 	H 	0.82480 0.00000 0.60170 0.00400
O 	O 	0.52700 0.00000 0.60120 -0.46600
La	La	0.14612 0.50000 0.88909 1.50400
P 	P 	0.12140 0.50000 0.07595 0.42100
C 	C 	0.38330 0.50000 0.21960 -0.18300
C 	C 	0.36600 0.50000 0.29610 0.08800
H 	H 	0.41600 0.50000 0.34020 0.02600
C 	C 	0.27300 0.50000 0.30620 -0.14800
H 	H 	0.26010 0.50000 0.35740 0.10000
C 	C 	0.19880 0.50000 0.23950 0.06700
H 	H 	0.13650 0.50000 0.24660 0.01700
C 	C 	0.21670 0.50000 0.16300 -0.13900
C 	C 	0.31120 0.50000 0.15280 0.09300
H 	H 	0.32480 0.50000 0.10170 -0.01700
O 	O 	0.02700 0.50000 0.10120 -0.49100
La	La	0.35388 0.00000 0.61091 1.43100
P 	P 	0.37860 0.00000 0.42405 0.38700
C 	C 	0.11670 0.00000 0.28040 -0.31300
C 	C 	0.13400 0.00000 0.20390 0.16000
H 	H 	0.08400 0.00000 0.15980 -0.03900
C 	C 	0.22700 0.00000 0.19380 -0.21700
H 	H 	0.23990 0.00000 0.14260 0.10200
C 	C 	0.30120 -0.00000 0.26050 0.10300
H 	H 	0.36350 0.00000 0.25340 -0.00400
C 	C 	0.28330 0.00000 0.33700 -0.18000
C 	C 	0.18880 0.00000 0.34720 0.15300
H 	H 	0.17520 0.00000 0.39830 -0.04900
O 	O 	0.47300 0.00000 0.39880 -0.46800
La	La	0.85388 0.50000 0.11091 1.47100
P 	P 	0.87860 0.50000 0.92405 0.41800
C 	C 	0.61670 0.50000 0.78040 -0.16400
C 	C 	0.63400 0.50000 0.70390 0.07200
H 	H 	0.58400 0.50000 0.65980 0.03100
C 	C 	0.72700 0.50000 0.69380 -0.13200
H 	H 	0.73990 0.50000 0.64260 0.09900
C 	C 	0.80120 0.50000 0.76050 0.05100
H 	H 	0.86350 0.50000 0.75340 0.03300
C 	C 	0.78330 0.50000 0.83700 -0.12000
C 	C 	0.68880 0.50000 0.84720 0.07300
H 	H 	0.67520 0.50000 0.89830 0.01000
O 	O 	0.97300 0.50000 0.89880 -0.39800
