data_crystal

_cell_length_a 6.70980
_cell_length_b 13.09450
_cell_length_c 21.34200
_cell_angle_alpha 90.00000
_cell_angle_beta  90.00000
_cell_angle_gamma 102.50600

_symmetry_space_group_name_	'P 1'
_symmetry_space_group_name_H-M	'P 1'

loop_
_symmetry_equiv_pos_as_xyz
  x,y,z

loop_
_atom_site_label
_atom_site_type_symbol
_atom_site_fract_x
_atom_site_fract_y
_atom_site_fract_z
_atom_site_charge
Co	Co	0.51802 0.04682 0.43307 1.08400
Co	Co	0.98198 0.45318 0.93307 1.11000
Co	Co	0.48198 0.95318 0.56693 1.10100
Co	Co	0.01802 0.54682 0.06693 1.07100
Co	Co	0.00000 0.00000 0.50000 1.09100
Co	Co	0.50000 0.50000 -0.00000 1.09200
H 	H 	0.21520 0.98180 0.35260 0.13600
H 	H 	0.39850 0.96850 0.32110 0.14500
H 	H 	0.61390 0.11450 0.26600 0.07700
H 	H 	0.59820 0.24870 0.19760 0.01100
H 	H 	0.04310 0.11120 0.32260 0.05800
H 	H 	0.02590 0.24310 0.25210 0.00700
H 	H 	0.95240 0.40600 0.43120 0.04600
H 	H 	0.95730 0.58210 0.42190 0.12400
H 	H 	0.56600 0.64480 0.41310 0.10000
H 	H 	0.56160 0.46920 0.42130 0.01900
H 	H 	0.36500 0.77700 0.39330 0.11700
H 	H 	0.14200 0.75800 0.40700 0.10800
H 	H 	0.28480 0.51820 0.85260 0.11400
H 	H 	0.10150 0.53150 0.82110 0.11400
H 	H 	0.88610 0.38550 0.76600 0.09500
H 	H 	0.90180 0.25130 0.69760 0.03200
H 	H 	0.45690 0.38880 0.82260 0.07300
H 	H 	0.47410 0.25690 0.75210 0.01600
H 	H 	0.54760 0.09400 0.93120 0.05800
H 	H 	0.54270 0.91790 0.92190 0.07100
H 	H 	0.93400 0.85520 0.91310 0.08900
H 	H 	0.93840 0.03080 0.92130 0.07100
H 	H 	0.13500 0.72300 0.89330 0.11200
H 	H 	0.35800 0.74200 0.90700 0.11800
H 	H 	0.78480 0.01820 0.64740 0.09100
H 	H 	0.60150 0.03150 0.67890 0.09200
H 	H 	0.38610 0.88550 0.73400 0.07900
H 	H 	0.40180 0.75130 0.80240 0.00900
H 	H 	0.95690 0.88880 0.67740 0.08400
H 	H 	0.97410 0.75690 0.74790 0.02100
H 	H 	0.04760 0.59400 0.56880 -0.01100
H 	H 	0.04270 0.41790 0.57810 0.07300
H 	H 	0.43400 0.35520 0.58690 0.09900
H 	H 	0.43840 0.53080 0.57870 0.01400
H 	H 	0.63500 0.22300 0.60670 0.11700
H 	H 	0.85800 0.24200 0.59300 0.12300
H 	H 	0.71520 0.48180 0.14740 0.11500
H 	H 	0.89850 0.46850 0.17890 0.12700
H 	H 	0.11390 0.61450 0.23400 0.04900
H 	H 	0.09820 0.74870 0.30240 -0.01900
H 	H 	0.54310 0.61120 0.17740 0.07000
H 	H 	0.52590 0.74310 0.24790 0.01300
H 	H 	0.45240 0.90600 0.06880 -0.02500
H 	H 	0.45730 0.08210 0.07810 0.11900
H 	H 	0.06600 0.14480 0.08690 0.09900
H 	H 	0.06160 0.96920 0.07870 -0.04300
H 	H 	0.86500 0.27700 0.10670 0.12600
H 	H 	0.64200 0.25800 0.09300 0.11400
C 	C 	0.32818 0.09738 0.30029 0.12600
C 	C 	0.49500 0.13980 0.26310 -0.17800
C 	C 	0.48460 0.21970 0.22174 0.04300
C 	C 	0.29498 0.33538 0.16681 0.12100
C 	C 	0.25563 0.30743 0.43865 0.12500
C 	C 	0.15380 0.13750 0.29667 -0.16200
C 	C 	0.30763 0.25733 0.21562 -0.08000
C 	C 	0.14380 0.21680 0.25443 0.03300
C 	C 	0.25653 0.41853 0.42801 -0.06900
C 	C 	0.26192 0.63262 0.41829 0.18100
C 	C 	0.07670 0.45380 0.42782 0.01500
C 	C 	0.07980 0.55980 0.42256 -0.21500
C 	C 	0.44198 0.59708 0.41717 -0.18300
C 	C 	0.43921 0.49161 0.42204 0.05000
C 	C 	0.17182 0.40262 0.80029 0.13500
C 	C 	0.00500 0.36020 0.76310 -0.19700
C 	C 	0.01540 0.28030 0.72174 0.01300
C 	C 	0.20502 0.16462 0.66681 0.11500
C 	C 	0.24437 0.19257 0.93865 0.10900
C 	C 	0.34620 0.36250 0.79667 -0.15800
C 	C 	0.19237 0.24267 0.71562 -0.06900
C 	C 	0.35620 0.28320 0.75443 0.03100
C 	C 	0.24347 0.08147 0.92801 0.00300
C 	C 	0.23808 0.86738 0.91829 0.11900
C 	C 	0.42330 0.04620 0.92782 -0.06000
C 	C 	0.42020 0.94020 0.92256 -0.06600
C 	C 	0.05802 0.90292 0.91717 -0.08800
C 	C 	0.06079 0.00839 0.92204 -0.07900
C 	C 	0.67182 0.90262 0.69971 0.13600
C 	C 	0.50500 0.86020 0.73690 -0.17300
C 	C 	0.51540 0.78030 0.77826 0.04400
C 	C 	0.70502 0.66462 0.83319 0.12800
C 	C 	0.74437 0.69257 0.56135 0.13900
C 	C 	0.84620 0.86250 0.70333 -0.15500
C 	C 	0.69237 0.74267 0.78438 -0.07400
C 	C 	0.85620 0.78320 0.74557 0.03900
C 	C 	0.74347 0.58147 0.57199 -0.09200
C 	C 	0.73808 0.36738 0.58171 0.16900
C 	C 	0.92330 0.54620 0.57218 0.08500
C 	C 	0.92020 0.44020 0.57744 -0.15400
C 	C 	0.55802 0.40292 0.58283 -0.18300
C 	C 	0.56079 0.50839 0.57796 0.06000
C 	C 	0.82818 0.59738 0.19971 0.12500
C 	C 	0.99500 0.63980 0.23690 -0.14100
C 	C 	0.98460 0.71970 0.27826 0.08100
C 	C 	0.79498 0.83538 0.33319 0.13500
C 	C 	0.75563 0.80743 0.06135 0.15600
C 	C 	0.65380 0.63750 0.20333 -0.15600
C 	C 	0.80763 0.75733 0.28438 -0.08600
C 	C 	0.64380 0.71680 0.24557 0.04100
C 	C 	0.75653 0.91853 0.07199 -0.16300
C 	C 	0.76192 0.13262 0.08171 0.22300
C 	C 	0.57670 0.95380 0.07218 0.15700
C 	C 	0.57980 0.05980 0.07744 -0.29000
C 	C 	0.94198 0.09708 0.08283 -0.25700
C 	C 	0.93921 0.99161 0.07796 0.18900
N 	N 	0.34345 0.01465 0.34267 -0.40100
N 	N 	0.15740 0.14670 0.46224 -0.18000
N 	N 	0.35452 0.16572 0.45071 -0.18300
N 	N 	0.42148 0.26658 0.43534 -0.11100
N 	N 	0.09016 0.23506 0.45550 -0.12100
N 	N 	0.18853 0.44103 0.10664 -0.19300
N 	N 	0.36954 0.43324 0.08703 -0.18100
N 	N 	0.44189 0.36649 0.12383 -0.12400
N 	N 	0.13699 0.37989 0.15751 -0.13000
N 	N 	0.26533 0.73983 0.41794 -0.26800
N 	N 	0.15655 0.48535 0.84267 -0.36300
N 	N 	0.34260 0.35330 0.96224 -0.16100
N 	N 	0.14548 0.33428 0.95071 -0.17800
N 	N 	0.07852 0.23342 0.93534 -0.11000
N 	N 	0.40984 0.26494 0.95550 -0.10100
N 	N 	0.31147 0.05897 0.60664 -0.19300
N 	N 	0.13046 0.06676 0.58703 -0.18300
N 	N 	0.05811 0.13351 0.62383 -0.12900
N 	N 	0.36301 0.12011 0.65751 -0.12400
N 	N 	0.23467 0.76017 0.91794 -0.25000
N 	N 	0.65655 0.98535 0.65733 -0.31900
N 	N 	0.84260 0.85330 0.53776 -0.16300
N 	N 	0.64548 0.83428 0.54929 -0.17900
N 	N 	0.57852 0.73342 0.56466 -0.11600
N 	N 	0.90984 0.76494 0.54450 -0.10900
N 	N 	0.81147 0.55897 0.89336 -0.17600
N 	N 	0.63046 0.56676 0.91297 -0.16300
N 	N 	0.55811 0.63351 0.87617 -0.11900
N 	N 	0.86301 0.62011 0.84249 -0.11800
N 	N 	0.73467 0.26017 0.58206 -0.26500
N 	N 	0.84345 0.51465 0.15733 -0.35700
N 	N 	0.65740 0.64670 0.03776 -0.18200
N 	N 	0.85452 0.66572 0.04929 -0.18300
N 	N 	0.92148 0.76658 0.06466 -0.11600
N 	N 	0.59016 0.73506 0.04450 -0.12900
N 	N 	0.68853 0.94103 0.39336 -0.17400
N 	N 	0.86954 0.93324 0.41297 -0.16000
N 	N 	0.94189 0.86649 0.37617 -0.11300
N 	N 	0.63699 0.87989 0.34249 -0.12200
N 	N 	0.76533 0.23983 0.08206 -0.28200
O 	O 	0.28711 0.95001 0.48789 -0.58400
O 	O 	0.21289 0.54999 0.98789 -0.56700
O 	O 	0.71289 0.04999 0.51211 -0.60000
O 	O 	0.78711 0.45001 0.01211 -0.61400
