data_crystal

_cell_length_a 12.87200
_cell_length_b 13.68000
_cell_length_c 16.11700
_cell_angle_alpha 81.36300
_cell_angle_beta  88.06500
_cell_angle_gamma 63.77900

_symmetry_space_group_name_	'P 1'
_symmetry_space_group_name_H-M	'P 1'

loop_
_symmetry_equiv_pos_as_xyz
  x,y,z

loop_
_atom_site_label
_atom_site_type_symbol
_atom_site_fract_x
_atom_site_fract_y
_atom_site_fract_z
_atom_site_charge
Cd	Cd	0.61512 0.98562 0.91419 1.18400
Cd	Cd	0.38488 0.01438 0.08581 1.18400
H 	H 	0.81860 0.88340 0.06540 -0.03700
H 	H 	0.00410 0.80610 0.12130 0.07800
H 	H 	0.88390 0.78750 0.35180 0.09600
H 	H 	0.69790 0.86900 0.29610 0.01400
H 	H 	0.13500 0.83950 0.21330 0.04500
H 	H 	0.32230 0.76110 0.26480 0.01900
H 	H 	0.38950 0.60340 0.36240 0.05600
H 	H 	0.26800 0.52570 0.40980 0.04200
H 	H 	0.78830 0.73480 0.96140 -0.05800
H 	H 	0.82440 0.55820 0.94970 0.11400
H 	H 	0.52360 0.68100 0.82630 0.11300
H 	H 	0.49510 0.85250 0.84550 -0.03300
H 	H 	0.77350 0.43100 0.88060 0.09200
H 	H 	0.66220 0.48460 0.82070 0.09500
H 	H 	0.66450 0.45050 0.99400 0.06400
H 	H 	0.55090 0.51480 0.93790 0.06500
H 	H 	0.45410 0.24500 0.89180 -0.02300
H 	H 	0.76660 0.08670 0.98600 -0.04500
H 	H 	0.78160 0.24500 0.98920 0.09100
H 	H 	0.45970 0.41030 0.88890 0.09600
H 	H 	0.18140 0.11660 0.93460 -0.03700
H 	H 	0.99590 0.19390 0.87870 0.07800
H 	H 	0.11610 0.21250 0.64820 0.09600
H 	H 	0.30210 0.13100 0.70390 0.01400
H 	H 	0.86500 0.16050 0.78670 0.04500
H 	H 	0.67770 0.23890 0.73520 0.01900
H 	H 	0.61050 0.39660 0.63760 0.05600
H 	H 	0.73200 0.47430 0.59020 0.04200
H 	H 	0.21170 0.26520 0.03860 -0.05800
H 	H 	0.17560 0.44180 0.05030 0.11400
H 	H 	0.47640 0.31900 0.17370 0.11300
H 	H 	0.50490 0.14750 0.15450 -0.03300
H 	H 	0.22650 0.56900 0.11940 0.09200
H 	H 	0.33780 0.51540 0.17930 0.09500
H 	H 	0.33550 0.54950 0.00600 0.06400
H 	H 	0.44910 0.48520 0.06210 0.06500
H 	H 	0.54590 0.75500 0.10820 -0.02300
H 	H 	0.23340 0.91330 0.01400 -0.04500
H 	H 	0.21840 0.75500 0.01080 0.09100
H 	H 	0.54030 0.58970 0.11110 0.09600
C 	C 	0.61800 0.92630 0.13890 0.39200
C 	C 	0.73870 0.88220 0.17410 -0.17900
C 	C 	0.83130 0.86370 0.12330 0.10800
C 	C 	0.94290 0.81640 0.15690 -0.16700
C 	C 	0.96510 0.78430 0.24190 0.09400
C 	C 	0.87110 0.80610 0.29390 -0.15300
C 	C 	0.75970 0.85460 0.26050 0.09500
C 	C 	0.08550 0.72940 0.27710 0.01000
C 	C 	0.16140 0.77530 0.25220 -0.07900
C 	C 	0.27360 0.72910 0.28320 -0.00300
C 	C 	0.31340 0.63520 0.34140 -0.07600
C 	C 	0.24110 0.58790 0.36900 -0.00100
C 	C 	0.12710 0.63290 0.33570 -0.07100
C 	C 	0.05730 0.57090 0.36340 0.28200
C 	C 	0.73330 0.72420 0.93290 0.14800
C 	C 	0.75690 0.61690 0.92530 -0.25200
C 	C 	0.68080 0.59870 0.88210 0.19800
C 	C 	0.58100 0.68920 0.85380 -0.24500
C 	C 	0.56440 0.79260 0.86560 0.14300
C 	C 	0.69260 0.48430 0.87510 -0.21200
C 	C 	0.62890 0.45560 0.94050 -0.13600
C 	C 	0.52140 0.24510 0.91090 0.11200
C 	C 	0.70360 0.15330 0.96630 0.10900
C 	C 	0.71400 0.24750 0.96810 -0.20200
C 	C 	0.62130 0.34790 0.93780 0.13500
C 	C 	0.52380 0.34510 0.90930 -0.20100
C 	C 	0.38200 0.07370 0.86110 0.39200
C 	C 	0.26130 0.11780 0.82590 -0.17900
C 	C 	0.16870 0.13630 0.87670 0.10800
C 	C 	0.05710 0.18360 0.84310 -0.16700
C 	C 	0.03490 0.21570 0.75810 0.09400
C 	C 	0.12890 0.19390 0.70610 -0.15300
C 	C 	0.24030 0.14540 0.73950 0.09500
C 	C 	0.91450 0.27060 0.72290 0.01000
C 	C 	0.83860 0.22470 0.74780 -0.07900
C 	C 	0.72640 0.27090 0.71680 -0.00300
C 	C 	0.68660 0.36480 0.65860 -0.07600
C 	C 	0.75890 0.41210 0.63100 -0.00100
C 	C 	0.87290 0.36710 0.66430 -0.07100
C 	C 	0.94270 0.42910 0.63660 0.28200
C 	C 	0.26670 0.27580 0.06710 0.14800
C 	C 	0.24310 0.38310 0.07470 -0.25200
C 	C 	0.31920 0.40130 0.11790 0.19800
C 	C 	0.41900 0.31080 0.14620 -0.24500
C 	C 	0.43560 0.20740 0.13440 0.14300
C 	C 	0.30740 0.51570 0.12490 -0.21200
C 	C 	0.37110 0.54440 0.05950 -0.13600
C 	C 	0.47860 0.75490 0.08910 0.11200
C 	C 	0.29640 0.84670 0.03370 0.10900
C 	C 	0.28600 0.75250 0.03190 -0.20200
C 	C 	0.37870 0.65210 0.06220 0.13500
C 	C 	0.47620 0.65490 0.09070 -0.20100
N 	N 	0.64060 0.81110 0.90340 -0.28600
N 	N 	0.60950 0.14970 0.93810 -0.26800
N 	N 	0.35940 0.18890 0.09660 -0.28600
N 	N 	0.39050 0.85030 0.06190 -0.26800
O 	O 	0.59940 0.94460 0.06038 -0.51200
O 	O 	0.53610 0.94370 0.18730 -0.42400
O 	O 	0.04820 0.54350 0.44004 -0.20300
O 	O 	0.01190 0.54320 0.30928 -0.22400
O 	O 	0.40060 0.05540 0.93962 -0.51200
O 	O 	0.46390 0.05630 0.81270 -0.42400
O 	O 	0.95180 0.45650 0.55996 -0.20300
O 	O 	0.98810 0.45680 0.69072 -0.22400
