data_crystal

_cell_length_a 10.06620
_cell_length_b 11.44920
_cell_length_c 12.77460
_cell_angle_alpha 108.73000
_cell_angle_beta  96.94800
_cell_angle_gamma 96.80200

_symmetry_space_group_name_	'P 1'
_symmetry_space_group_name_H-M	'P 1'

loop_
_symmetry_equiv_pos_as_xyz
  x,y,z

loop_
_atom_site_label
_atom_site_type_symbol
_atom_site_fract_x
_atom_site_fract_y
_atom_site_fract_z
_atom_site_charge
Gd	Gd	0.93186 0.92366 0.61605 1.32800
Gd	Gd	0.54836 0.40184 0.24178 1.20100
Gd	Gd	0.06814 0.07634 0.38395 1.32800
Gd	Gd	0.45164 0.59816 0.75822 1.20100
H 	H 	0.86100 0.44600 0.37500 0.00600
H 	H 	0.23800 0.67600 0.31900 0.04500
H 	H 	0.98000 0.69300 0.11000 0.06700
H 	H 	0.13900 0.55400 0.62500 0.00600
H 	H 	0.76200 0.32400 0.68100 0.04500
H 	H 	0.02000 0.30700 0.89000 0.06700
C 	C 	0.06500 0.82200 0.37590 0.33300
C 	C 	0.04830 0.68600 0.36350 -0.04400
C 	C 	0.93160 0.61540 0.37490 -0.10300
C 	C 	0.80220 0.66960 0.39350 0.38800
C 	C 	0.93410 0.49100 0.36650 0.03600
C 	C 	0.04850 0.43610 0.34530 -0.07200
C 	C 	0.05260 0.30630 0.34800 0.30900
C 	C 	0.16180 0.50570 0.32780 -0.03200
C 	C 	0.28800 0.45570 0.29640 0.30100
C 	C 	0.16050 0.62910 0.33580 -0.01600
C 	C 	0.77080 0.53720 0.11600 0.34100
C 	C 	0.88600 0.51690 0.05200 -0.05400
C 	C 	0.89860 0.39780 0.98130 -0.02000
C 	C 	0.78930 0.28520 0.95440 0.28500
C 	C 	0.98790 0.61700 0.06900 -0.02200
C 	C 	0.93500 0.17800 0.62410 0.33300
C 	C 	0.95170 0.31400 0.63650 -0.04400
C 	C 	0.06840 0.38460 0.62510 -0.10300
C 	C 	0.19780 0.33040 0.60650 0.38800
C 	C 	0.06590 0.50900 0.63350 0.03600
C 	C 	0.95150 0.56390 0.65470 -0.07200
C 	C 	0.94740 0.69370 0.65200 0.30900
C 	C 	0.83820 0.49430 0.67220 -0.03200
C 	C 	0.71200 0.54430 0.70360 0.30100
C 	C 	0.83950 0.37090 0.66420 -0.01600
C 	C 	0.22920 0.46280 0.88400 0.34100
C 	C 	0.11400 0.48310 0.94800 -0.05400
C 	C 	0.10140 0.60220 0.01870 -0.02000
C 	C 	0.21070 0.71480 0.04560 0.28500
C 	C 	0.01210 0.38300 0.93100 -0.02200
O 	O 	0.07550 0.90510 0.47340 -0.46100
O 	O 	0.07800 0.85370 0.29290 -0.39400
O 	O 	0.81450 0.78790 0.43530 -0.40500
O 	O 	0.69120 0.59690 0.36750 -0.38300
O 	O 	0.94480 0.23710 0.34750 -0.38200
O 	O 	0.16520 0.26960 0.35480 -0.38100
O 	O 	0.28860 0.38810 0.19750 -0.34900
O 	O 	0.39560 0.49280 0.36960 -0.36000
O 	O 	0.71870 0.44600 0.14070 -0.39500
O 	O 	0.73490 0.64330 0.14450 -0.27000
O 	O 	0.82270 0.19370 0.98000 -0.25000
O 	O 	0.67370 0.28830 0.90600 -0.24700
O 	O 	0.92450 0.09490 0.52660 -0.46100
O 	O 	0.92200 0.14630 0.70710 -0.39400
O 	O 	0.18550 0.21210 0.56470 -0.40500
O 	O 	0.30880 0.40310 0.63250 -0.38300
O 	O 	0.05520 0.76290 0.65250 -0.38200
O 	O 	0.83480 0.73040 0.64520 -0.38100
O 	O 	0.71140 0.61190 0.80250 -0.34900
O 	O 	0.60440 0.50720 0.63040 -0.36000
O 	O 	0.28130 0.55400 0.85930 -0.39500
O 	O 	0.26510 0.35670 0.85550 -0.27000
O 	O 	0.17730 0.80630 0.02000 -0.25000
O 	O 	0.32630 0.71170 0.09400 -0.24700
