data_crystal

_cell_length_a 7.18490
_cell_length_b 10.73290
_cell_length_c 17.17530
_cell_angle_alpha 97.16000
_cell_angle_beta  90.00000
_cell_angle_gamma 90.00000

_symmetry_space_group_name_	'P 1'
_symmetry_space_group_name_H-M	'P 1'

loop_
_symmetry_equiv_pos_as_xyz
  x,y,z

loop_
_atom_site_label
_atom_site_type_symbol
_atom_site_fract_x
_atom_site_fract_y
_atom_site_fract_z
_atom_site_charge
Gd	Gd	0.02004 0.82501 0.75316 1.59800
Gd	Gd	0.52004 0.67499 0.74684 1.61500
Gd	Gd	0.97996 0.17499 0.24684 1.59800
Gd	Gd	0.47996 0.32501 0.25316 1.61500
H 	H 	0.31700 0.50700 0.48060 0.06400
H 	H 	0.96600 0.19000 0.56000 0.26400
H 	H 	0.65100 0.83300 0.55180 0.05300
H 	H 	0.81700 0.99300 0.01940 0.06400
H 	H 	0.46600 0.31000 0.94000 0.26900
H 	H 	0.15100 0.66700 0.94820 0.05400
H 	H 	0.68300 0.49300 0.51940 0.06400
H 	H 	0.03400 0.81000 0.44000 0.26400
H 	H 	0.34900 0.16700 0.44820 0.05300
H 	H 	0.18300 0.00700 0.98060 0.06400
H 	H 	0.53400 0.69000 0.06000 0.26900
H 	H 	0.84900 0.33300 0.05180 0.05400
C 	C 	0.25170 0.59440 0.62557 0.35800
C 	C 	0.11770 0.54790 0.56187 -0.06400
C 	C 	0.92580 0.54230 0.57337 -0.04400
C 	C 	0.82690 0.58400 0.64871 0.34300
C 	C 	0.18990 0.50560 0.48818 -0.00400
C 	C 	0.35250 0.89150 0.63405 0.42200
C 	C 	0.42840 0.95270 0.56655 -0.08000
C 	C 	0.34120 0.05370 0.53695 -0.03500
C 	C 	0.18140 0.12200 0.57921 0.35800
C 	C 	0.58820 0.90100 0.52949 0.01600
C 	C 	0.75170 0.90560 0.87443 0.35600
C 	C 	0.61770 0.95210 0.93813 -0.05900
C 	C 	0.42580 0.95770 0.92663 -0.05000
C 	C 	0.32690 0.91600 0.85129 0.34400
C 	C 	0.68990 0.99440 0.01182 -0.00400
C 	C 	0.85250 0.60850 0.86595 0.41900
C 	C 	0.92840 0.54730 0.93345 -0.07100
C 	C 	0.84120 0.44630 0.96305 -0.03500
C 	C 	0.68140 0.37800 0.92079 0.35900
C 	C 	0.08820 0.59900 0.97051 0.00600
C 	C 	0.74830 0.40560 0.37443 0.35800
C 	C 	0.88230 0.45210 0.43813 -0.06400
C 	C 	0.07420 0.45770 0.42663 -0.04400
C 	C 	0.17310 0.41600 0.35129 0.34300
C 	C 	0.81010 0.49440 0.51182 -0.00400
C 	C 	0.64750 0.10850 0.36595 0.42200
C 	C 	0.57160 0.04730 0.43345 -0.08000
C 	C 	0.65880 0.94630 0.46305 -0.03500
C 	C 	0.81860 0.87800 0.42079 0.35800
C 	C 	0.41180 0.09900 0.47051 0.01600
C 	C 	0.24830 0.09440 0.12557 0.35600
C 	C 	0.38230 0.04790 0.06187 -0.05900
C 	C 	0.57420 0.04230 0.07337 -0.05000
C 	C 	0.67310 0.08400 0.14871 0.34400
C 	C 	0.31010 0.00560 0.98818 -0.00400
C 	C 	0.14750 0.39150 0.13405 0.41900
C 	C 	0.07160 0.45270 0.06655 -0.07100
C 	C 	0.15880 0.55370 0.03695 -0.03500
C 	C 	0.31860 0.62200 0.07921 0.35900
C 	C 	0.91180 0.40100 0.02949 0.00600
O 	O 	0.18940 0.64428 0.69223 -0.48300
O 	O 	0.42100 0.58290 0.61371 -0.38500
O 	O 	0.80810 0.70276 0.67043 -0.49200
O 	O 	0.74770 0.50604 0.68465 -0.34700
O 	O 	0.17890 0.88757 0.64288 -0.42200
O 	O 	0.46880 0.84507 0.67622 -0.43900
O 	O 	0.18240 0.15350 0.64992 -0.25900
O 	O 	0.04740 0.14840 0.53301 -0.43100
O 	O 	0.68940 0.85572 0.80777 -0.48000
O 	O 	0.92100 0.91710 0.88629 -0.37800
O 	O 	0.30810 0.79724 0.82957 -0.49700
O 	O 	0.24770 0.99396 0.81535 -0.35000
O 	O 	0.67890 0.61243 0.85712 -0.42000
O 	O 	0.96880 0.65493 0.82378 -0.43400
O 	O 	0.68240 0.34650 0.85008 -0.26100
O 	O 	0.54740 0.35160 0.96699 -0.43800
O 	O 	0.81060 0.35572 0.30777 -0.48300
O 	O 	0.57900 0.41710 0.38629 -0.38500
O 	O 	0.19190 0.29724 0.32957 -0.49200
O 	O 	0.25230 0.49396 0.31535 -0.34700
O 	O 	0.82110 0.11243 0.35712 -0.42200
O 	O 	0.53120 0.15493 0.32378 -0.43900
O 	O 	0.81760 0.84650 0.35008 -0.25900
O 	O 	0.95260 0.85160 0.46699 -0.43100
O 	O 	0.31060 0.14428 0.19223 -0.48000
O 	O 	0.07900 0.08290 0.11371 -0.37800
O 	O 	0.69190 0.20276 0.17043 -0.49700
O 	O 	0.75230 0.00604 0.18465 -0.35000
O 	O 	0.32110 0.38757 0.14288 -0.42000
O 	O 	0.03120 0.34507 0.17622 -0.43400
O 	O 	0.31760 0.65350 0.14992 -0.26100
O 	O 	0.45260 0.64840 0.03301 -0.43800
