data_crystal

_cell_length_a 7.39600
_cell_length_b 15.66600
_cell_length_c 17.57060
_cell_angle_alpha 110.89600
_cell_angle_beta  102.15000
_cell_angle_gamma 90.00000

_symmetry_space_group_name_	'P 1'
_symmetry_space_group_name_H-M	'P 1'

loop_
_symmetry_equiv_pos_as_xyz
  x,y,z

loop_
_atom_site_label
_atom_site_type_symbol
_atom_site_fract_x
_atom_site_fract_y
_atom_site_fract_z
_atom_site_charge
Cu	Cu	0.89038 0.41503 0.50522 0.91700
Cu	Cu	0.88923 0.40794 0.32454 0.92600
Cu	Cu	0.38516 0.08497 0.49478 0.91700
Cu	Cu	0.56469 0.09206 0.67546 0.92500
Cu	Cu	0.10962 0.58497 0.49478 0.91600
Cu	Cu	0.11077 0.59206 0.67546 0.92500
Cu	Cu	0.61484 0.91503 0.50522 0.91600
Cu	Cu	0.43531 0.90794 0.32454 0.92500
H 	H 	0.25850 0.46930 0.78720 0.00800
H 	H 	0.01530 0.26020 0.58840 0.02900
H 	H 	0.16980 0.22520 0.72540 0.15700
H 	H 	0.26700 0.30470 0.79980 0.15300
H 	H 	0.85540 0.11680 0.43600 0.04300
H 	H 	0.98680 0.13590 0.23240 0.04100
H 	H 	0.02420 0.98100 0.18160 0.07800
H 	H 	0.38630 0.31620 0.12380 0.03000
H 	H 	0.99350 0.89480 0.26200 0.02200
H 	H 	0.47130 0.03070 0.21280 0.00700
H 	H 	0.42690 0.23980 0.41160 0.03000
H 	H 	0.44440 0.27480 0.27460 0.15700
H 	H 	0.46720 0.19530 0.20020 0.15200
H 	H 	0.41940 0.38320 0.56400 0.04300
H 	H 	0.75440 0.36410 0.76760 0.04000
H 	H 	0.84260 0.51900 0.81840 0.08200
H 	H 	0.26250 0.18380 0.87620 0.02900
H 	H 	0.73150 0.60520 0.73800 0.02000
H 	H 	0.74150 0.53070 0.21280 0.00700
H 	H 	0.98470 0.73980 0.41160 0.02900
H 	H 	0.83020 0.77480 0.27460 0.15700
H 	H 	0.73300 0.69530 0.20020 0.15200
H 	H 	0.14460 0.88320 0.56400 0.04300
H 	H 	0.01320 0.86410 0.76760 0.04100
H 	H 	0.97580 0.01900 0.81840 0.08000
H 	H 	0.61370 0.68380 0.87620 0.02900
H 	H 	0.00650 0.10520 0.73800 0.02200
H 	H 	0.52870 0.96930 0.78720 0.00800
H 	H 	0.57310 0.76020 0.58840 0.03000
H 	H 	0.55560 0.72520 0.72540 0.15700
H 	H 	0.53280 0.80470 0.79980 0.15300
H 	H 	0.58060 0.61680 0.43600 0.04300
H 	H 	0.24560 0.63590 0.23240 0.03900
H 	H 	0.15740 0.48100 0.18160 0.08100
H 	H 	0.73750 0.81620 0.12380 0.02900
H 	H 	0.26850 0.39480 0.26200 0.02000
H 	H 	0.79210 0.25000 -0.00000 0.04000
H 	H 	0.17080 0.25000 -0.00000 0.08500
H 	H 	0.20790 0.75000 -0.00000 0.04000
H 	H 	0.82920 0.75000 -0.00000 0.08500
C 	C 	0.19070 0.43410 0.73400 0.10200
C 	C 	0.05740 0.31960 0.62500 0.09800
C 	C 	0.88181 0.93770 0.40402 0.35700
C 	C 	0.89100 0.08990 0.38540 0.04300
C 	C 	0.92110 0.14200 0.34000 -0.11100
C 	C 	0.91460 0.99660 0.35520 -0.12700
C 	C 	0.90300 0.24340 0.37080 0.36400
C 	C 	0.96980 0.10060 0.26340 0.04000
C 	C 	0.99350 0.00820 0.23320 -0.10600
C 	C 	0.75720 0.32990 0.15640 0.34800
C 	C 	0.61290 0.28950 0.07560 -0.11300
C 	C 	0.42560 0.28940 0.07420 0.04700
C 	C 	0.97100 0.95650 0.28020 0.03100
C 	C 	0.45670 0.06590 0.26600 0.10200
C 	C 	0.43240 0.18040 0.37500 0.09800
C 	C 	0.47779 0.56230 0.59598 0.35900
C 	C 	0.50560 0.41010 0.61460 0.04300
C 	C 	0.58110 0.35800 0.66000 -0.11300
C 	C 	0.55940 0.50340 0.64480 -0.12800
C 	C 	0.53220 0.25660 0.62920 0.36500
C 	C 	0.70640 0.39940 0.73660 0.04400
C 	C 	0.76030 0.49180 0.76680 -0.11400
C 	C 	0.60080 0.17010 0.84360 0.34800
C 	C 	0.53730 0.21050 0.92440 -0.10900
C 	C 	0.35140 0.21060 0.92580 0.05100
C 	C 	0.69080 0.54350 0.71980 0.03700
C 	C 	0.80930 0.56590 0.26600 0.10200
C 	C 	0.94260 0.68040 0.37500 0.09800
C 	C 	0.11819 0.06230 0.59598 0.35700
C 	C 	0.10900 0.91010 0.61460 0.04300
C 	C 	0.07890 0.85800 0.66000 -0.11100
C 	C 	0.08540 0.00340 0.64480 -0.12700
C 	C 	0.09700 0.75660 0.62920 0.36500
C 	C 	0.03020 0.89940 0.73660 0.04100
C 	C 	0.00650 0.99180 0.76680 -0.10800
C 	C 	0.24280 0.67010 0.84360 0.34800
C 	C 	0.38710 0.71050 0.92440 -0.10900
C 	C 	0.57440 0.71060 0.92580 0.05300
C 	C 	0.02900 0.04350 0.71980 0.03200
C 	C 	0.54330 0.93410 0.73400 0.10200
C 	C 	0.56760 0.81960 0.62500 0.09800
C 	C 	0.52221 0.43770 0.40402 0.35900
C 	C 	0.49440 0.58990 0.38540 0.04300
C 	C 	0.41890 0.64200 0.34000 -0.11300
C 	C 	0.44060 0.49660 0.35520 -0.12800
C 	C 	0.46780 0.74340 0.37080 0.36500
C 	C 	0.29360 0.60060 0.26340 0.04300
C 	C 	0.23970 0.50820 0.23320 -0.11300
C 	C 	0.39920 0.82990 0.15640 0.34800
C 	C 	0.46270 0.78950 0.07560 -0.11300
C 	C 	0.64860 0.78940 0.07420 0.04700
C 	C 	0.30920 0.45650 0.28020 0.03700
C 	C 	0.66640 0.25000 -0.00000 0.04200
C 	C 	0.29700 0.25000 -0.00000 -0.12100
C 	C 	0.33360 0.75000 -0.00000 0.04100
C 	C 	0.70300 0.75000 -0.00000 -0.12400
N 	N 	0.03014 0.39260 0.60688 -0.18600
N 	N 	0.11596 0.46580 0.67712 -0.19100
N 	N 	0.15520 0.34190 0.70440 -0.09500
N 	N 	0.20370 0.28290 0.74900 -0.25100
N 	N 	0.42326 0.10740 0.39312 -0.18600
N 	N 	0.43884 0.03420 0.32288 -0.19100
N 	N 	0.45080 0.15810 0.29560 -0.09500
N 	N 	0.45470 0.21710 0.25100 -0.25100
N 	N 	0.96986 0.60740 0.39312 -0.18700
N 	N 	0.88404 0.53420 0.32288 -0.19100
N 	N 	0.84480 0.65810 0.29560 -0.09500
N 	N 	0.79630 0.71710 0.25100 -0.25100
N 	N 	0.57674 0.89260 0.60688 -0.18700
N 	N 	0.56116 0.96580 0.67712 -0.19100
N 	N 	0.54920 0.84190 0.70440 -0.09500
N 	N 	0.54530 0.78290 0.74900 -0.25100
O 	O 	0.90967 0.28220 0.31934 -0.39100
O 	O 	0.87989 0.28270 0.44478 -0.39900
O 	O 	0.00088 0.89040 0.42276 -0.28200
O 	O 	0.72173 0.94210 0.42186 -0.45100
O 	O 	0.07384 0.45560 0.42908 -0.46700
O 	O 	0.69670 0.36230 0.22120 -0.38900
O 	O 	0.92320 0.32820 0.15560 -0.30000
O 	O 	0.59033 0.21780 0.68066 -0.39100
O 	O 	0.43511 0.21730 0.55522 -0.39900
O 	O 	0.57812 0.60960 0.57724 -0.28400
O 	O 	0.29987 0.55790 0.57814 -0.45100
O 	O 	0.64476 0.04440 0.57092 -0.46700
O 	O 	0.47550 0.13770 0.77880 -0.38900
O 	O 	0.76760 0.17180 0.84440 -0.29800
O 	O 	0.09033 0.71780 0.68066 -0.39100
O 	O 	0.12011 0.71730 0.55522 -0.39900
O 	O 	0.99912 0.10960 0.57724 -0.28200
O 	O 	0.27827 0.05790 0.57814 -0.45100
O 	O 	0.92616 0.54440 0.57092 -0.46700
O 	O 	0.30330 0.63770 0.77880 -0.38900
O 	O 	0.07680 0.67180 0.84440 -0.29800
O 	O 	0.40967 0.78220 0.31934 -0.39100
O 	O 	0.56489 0.78270 0.44478 -0.39900
O 	O 	0.42188 0.39040 0.42276 -0.28400
O 	O 	0.70013 0.44210 0.42186 -0.45100
O 	O 	0.35524 0.95560 0.42908 -0.46700
O 	O 	0.52450 0.86230 0.22120 -0.39000
O 	O 	0.23240 0.82820 0.15560 -0.30000
