data_crystal

_cell_length_a 13.45780
_cell_length_b 13.45780
_cell_length_c 27.69280
_cell_angle_alpha 90.00000
_cell_angle_beta  90.00000
_cell_angle_gamma 120.00000

_symmetry_space_group_name_	'P 1'
_symmetry_space_group_name_H-M	'P 1'

loop_
_symmetry_equiv_pos_as_xyz
  x,y,z

loop_
_atom_site_label
_atom_site_type_symbol
_atom_site_fract_x
_atom_site_fract_y
_atom_site_fract_z
_atom_site_charge
V 	V 	0.29268 0.85809 0.52647 1.79700
P 	P 	0.16220 0.97502 0.58422 0.73000
P 	P 	0.12733 0.63089 0.46359 0.48100
O 	O 	0.15100 0.71840 0.50314 -0.54100
O 	O 	0.16790 0.54780 0.47575 -0.53700
O 	O 	0.00080 0.57040 0.44996 -0.59900
O 	O 	0.18720 0.88000 0.56994 -0.48500
O 	O 	0.32450 0.77220 0.57655 -0.44800
O 	O 	0.14250 0.07730 0.70448 -0.57800
O 	O 	0.06950 0.92830 0.62252 -0.48600
O 	O 	0.13670 0.02860 0.54065 -0.68100
H 	H 	0.26000 0.06000 0.60480 -0.15200
H 	H 	0.18700 0.68200 0.42490 -0.03400
V 	V 	0.14191 0.43459 0.52647 1.72400
P 	P 	0.02498 0.18718 0.58422 0.19200
P 	P 	0.36911 0.49644 0.46359 0.48500
O 	O 	0.28160 0.43260 0.50314 -0.52700
O 	O 	0.45220 0.62010 0.47575 -0.50200
O 	O 	0.42960 0.43040 0.44996 -0.48800
O 	O 	0.12000 0.30720 0.56994 -0.48700
O 	O 	0.22780 0.55230 0.57655 -0.50800
O 	O 	0.92270 0.06520 0.70448 -0.51500
O 	O 	0.07170 0.14120 0.62252 -0.51200
O 	O 	0.97140 0.10810 0.54065 -0.35800
H 	H 	0.94000 0.20000 0.60480 0.06900
H 	H 	0.31800 0.50500 0.42490 -0.03900
V 	V 	0.56541 0.70732 0.52647 1.76200
P 	P 	0.81282 0.83780 0.58422 0.46200
P 	P 	0.50356 0.87267 0.46359 0.48800
O 	O 	0.56740 0.84900 0.50314 -0.48200
O 	O 	0.37990 0.83210 0.47575 -0.47000
O 	O 	0.56960 0.99920 0.44996 -0.37200
O 	O 	0.69280 0.81280 0.56994 -0.44700
O 	O 	0.44770 0.67550 0.57655 -0.46300
O 	O 	0.93480 0.85750 0.70448 -0.36600
O 	O 	0.85880 0.93050 0.62252 -0.31200
O 	O 	0.89190 0.86330 0.54065 -0.36700
H 	H 	0.80000 0.74000 0.60480 -0.01100
H 	H 	0.49500 0.81300 0.42490 -0.02200
V 	V 	0.70732 0.14191 0.02647 1.71900
P 	P 	0.83780 0.02498 0.08422 0.21400
P 	P 	0.87267 0.36911 0.96359 0.51000
O 	O 	0.84900 0.28160 0.00314 -0.51500
O 	O 	0.83210 0.45220 0.97575 -0.45900
O 	O 	0.99920 0.42960 0.94996 -0.36600
O 	O 	0.81280 0.12000 0.06994 -0.46400
O 	O 	0.67550 0.22780 0.07655 -0.50100
O 	O 	0.85750 0.92270 0.20448 -0.40100
O 	O 	0.93050 0.07170 0.12252 -0.37600
O 	O 	0.86330 0.97140 0.04065 -0.28200
H 	H 	0.74000 0.94000 0.10480 0.07900
H 	H 	0.81300 0.31800 0.92490 -0.03000
V 	V 	0.85809 0.56541 0.02647 1.79000
P 	P 	0.97502 0.81282 0.08422 0.69800
P 	P 	0.63089 0.50356 0.96359 0.50500
O 	O 	0.71840 0.56740 0.00314 -0.53000
O 	O 	0.54780 0.37990 0.97575 -0.49200
O 	O 	0.57040 0.56960 0.94996 -0.48100
O 	O 	0.88000 0.69280 0.06994 -0.46100
O 	O 	0.77220 0.44770 0.07655 -0.44300
O 	O 	0.07730 0.93480 0.20448 -0.44100
O 	O 	0.92830 0.85880 0.12252 -0.36400
O 	O 	0.02860 0.89190 0.04065 -0.55700
H 	H 	0.06000 0.80000 0.10480 -0.11800
H 	H 	0.68200 0.49500 0.92490 -0.02600
V 	V 	0.43459 0.29268 0.02647 1.75300
P 	P 	0.18718 0.16220 0.08422 0.45900
P 	P 	0.49644 0.12733 0.96359 0.50300
O 	O 	0.43260 0.15100 0.00314 -0.57700
O 	O 	0.62010 0.16790 0.97575 -0.52300
O 	O 	0.43040 0.00080 0.94996 -0.59700
O 	O 	0.30720 0.18720 0.06994 -0.50400
O 	O 	0.55230 0.32450 0.07655 -0.48600
O 	O 	0.06520 0.14250 0.20448 -0.61500
O 	O 	0.14120 0.06950 0.12252 -0.57000
O 	O 	0.10810 0.13670 0.04065 -0.58800
H 	H 	0.20000 0.26000 0.10480 -0.05400
H 	H 	0.50500 0.18700 0.92490 -0.04300
V 	V 	0.70732 0.14191 0.47353 1.72600
P 	P 	0.83780 0.02498 0.41578 0.21700
P 	P 	0.87267 0.36911 0.53641 0.48800
O 	O 	0.84900 0.28160 0.49686 -0.49000
O 	O 	0.83210 0.45220 0.52425 -0.47000
O 	O 	0.99920 0.42960 0.55004 -0.37100
O 	O 	0.81280 0.12000 0.43006 -0.46000
O 	O 	0.67550 0.22780 0.42345 -0.49700
O 	O 	0.85750 0.92270 0.29552 -0.40100
O 	O 	0.93050 0.07170 0.37748 -0.37500
O 	O 	0.86330 0.97140 0.45935 -0.27400
H 	H 	0.74000 0.94000 0.39520 0.07900
H 	H 	0.81300 0.31800 0.57510 -0.02900
V 	V 	0.85809 0.56541 0.47353 1.79600
P 	P 	0.97502 0.81282 0.41578 0.70200
P 	P 	0.63089 0.50356 0.53641 0.48400
O 	O 	0.71840 0.56740 0.49686 -0.50700
O 	O 	0.54780 0.37990 0.52425 -0.50400
O 	O 	0.57040 0.56960 0.55004 -0.48500
O 	O 	0.88000 0.69280 0.43006 -0.45800
O 	O 	0.77220 0.44770 0.42345 -0.43900
O 	O 	0.07730 0.93480 0.29552 -0.44100
O 	O 	0.92830 0.85880 0.37748 -0.36400
O 	O 	0.02860 0.89190 0.45935 -0.55300
H 	H 	0.06000 0.80000 0.39520 -0.11800
H 	H 	0.68200 0.49500 0.57510 -0.02500
V 	V 	0.43459 0.29268 0.47353 1.75900
P 	P 	0.18718 0.16220 0.41578 0.46000
P 	P 	0.49644 0.12733 0.53641 0.48100
O 	O 	0.43260 0.15100 0.49686 -0.55300
O 	O 	0.62010 0.16790 0.52425 -0.53500
O 	O 	0.43040 0.00080 0.55004 -0.60300
O 	O 	0.30720 0.18720 0.43006 -0.50100
O 	O 	0.55230 0.32450 0.42345 -0.48300
O 	O 	0.06520 0.14250 0.29552 -0.61500
O 	O 	0.14120 0.06950 0.37748 -0.57000
O 	O 	0.10810 0.13670 0.45935 -0.57900
H 	H 	0.20000 0.26000 0.39520 -0.05300
H 	H 	0.50500 0.18700 0.57510 -0.04200
V 	V 	0.29268 0.85809 0.97353 1.80100
P 	P 	0.16220 0.97502 0.91578 0.72400
P 	P 	0.12733 0.63089 0.03641 0.46400
O 	O 	0.15100 0.71840 0.99686 -0.52100
O 	O 	0.16790 0.54780 0.02425 -0.54700
O 	O 	0.00080 0.57040 0.05004 -0.60100
O 	O 	0.18720 0.88000 0.93006 -0.48200
O 	O 	0.32450 0.77220 0.92345 -0.44600
O 	O 	0.14250 0.07730 0.79552 -0.57800
O 	O 	0.06950 0.92830 0.87748 -0.48600
O 	O 	0.13670 0.02860 0.95935 -0.66500
H 	H 	0.26000 0.06000 0.89520 -0.14900
H 	H 	0.18700 0.68200 0.07510 -0.03300
V 	V 	0.14191 0.43459 0.97353 1.72900
P 	P 	0.02498 0.18718 0.91578 0.19100
P 	P 	0.36911 0.49644 0.03641 0.46500
O 	O 	0.28160 0.43260 0.99686 -0.50400
O 	O 	0.45220 0.62010 0.02425 -0.51200
O 	O 	0.42960 0.43040 0.05004 -0.49200
O 	O 	0.12000 0.30720 0.93006 -0.48400
O 	O 	0.22780 0.55230 0.92345 -0.50500
O 	O 	0.92270 0.06520 0.79552 -0.51400
O 	O 	0.07170 0.14120 0.87748 -0.51100
O 	O 	0.97140 0.10810 0.95935 -0.34300
H 	H 	0.94000 0.20000 0.89520 0.07200
H 	H 	0.31800 0.50500 0.07510 -0.03800
V 	V 	0.56541 0.70732 0.97353 1.76800
P 	P 	0.81282 0.83780 0.91578 0.46200
P 	P 	0.50356 0.87267 0.03641 0.47000
O 	O 	0.56740 0.84900 0.99686 -0.46200
O 	O 	0.37990 0.83210 0.02425 -0.47900
O 	O 	0.56960 0.99920 0.05004 -0.37400
O 	O 	0.69280 0.81280 0.93006 -0.44500
O 	O 	0.44770 0.67550 0.92345 -0.46000
O 	O 	0.93480 0.85750 0.79552 -0.36600
O 	O 	0.85880 0.93050 0.87748 -0.31300
O 	O 	0.89190 0.86330 0.95935 -0.35600
H 	H 	0.80000 0.74000 0.89520 -0.01000
H 	H 	0.49500 0.81300 0.07510 -0.02000
V 	V 	-0.00000 0.00000 0.50000 1.63500
V 	V 	-0.00000 0.00000 -0.00000 1.62400
V 	V 	-0.00000 0.00000 0.66396 1.64200
V 	V 	-0.00000 0.00000 0.16396 1.64200
V 	V 	-0.00000 0.00000 0.33604 1.64200
V 	V 	-0.00000 0.00000 0.83604 1.64300
P 	P 	0.33333 0.66667 0.58968 0.49800
H 	H 	0.33333 0.66667 0.63670 -0.01800
P 	P 	0.66667 0.33333 0.08968 0.49700
H 	H 	0.66667 0.33333 0.13670 -0.01800
P 	P 	0.66667 0.33333 0.41032 0.49800
H 	H 	0.66667 0.33333 0.36330 -0.01800
P 	P 	0.33333 0.66667 0.91032 0.50000
H 	H 	0.33333 0.66667 0.86330 -0.01900
P 	P 	0.19134 0.06211 0.75000 0.48600
O 	O 	0.31960 0.14350 0.75000 -0.50900
H 	H 	0.33270 0.20990 0.75000 0.29200
H 	H 	0.17800 0.95910 0.75000 -0.56000
O 	O 	0.20000 0.95500 0.75000 0.53800
H 	H 	0.13540 0.89840 0.75000 0.09900
P 	P 	0.93789 0.12923 0.75000 0.77700
O 	O 	0.85650 0.17610 0.75000 -0.46300
H 	H 	0.79010 0.12280 0.75000 0.24800
H 	H 	0.04090 0.21890 0.75000 -0.75300
O 	O 	0.04500 0.24500 0.75000 0.45500
H 	H 	0.10160 0.23700 0.75000 0.17300
P 	P 	0.87077 0.80866 0.75000 0.65200
O 	O 	0.82390 0.68040 0.75000 -0.48500
H 	H 	0.87720 0.66730 0.75000 0.32800
H 	H 	0.78110 0.82200 0.75000 -0.64100
O 	O 	0.75500 0.80000 0.75000 0.47400
H 	H 	0.76300 0.86460 0.75000 0.20900
P 	P 	0.80866 0.93789 0.25000 0.78100
O 	O 	0.68040 0.85650 0.25000 -0.46300
H 	H 	0.66730 0.79010 0.25000 0.28600
H 	H 	0.82200 0.04090 0.25000 -0.73900
O 	O 	0.80000 0.04500 0.25000 0.44500
H 	H 	0.86460 0.10160 0.25000 0.22600
P 	P 	0.06211 0.87077 0.25000 0.51300
O 	O 	0.14350 0.82390 0.25000 -0.50800
H 	H 	0.20990 0.87720 0.25000 0.33300
H 	H 	0.95910 0.78110 0.25000 -0.55600
O 	O 	0.95500 0.75500 0.25000 0.51600
H 	H 	0.89840 0.76300 0.25000 0.15000
P 	P 	0.12923 0.19134 0.25000 0.62100
O 	O 	0.17610 0.31960 0.25000 -0.48700
H 	H 	0.12280 0.33270 0.25000 0.25000
H 	H 	0.21890 0.17800 0.25000 -0.66100
O 	O 	0.24500 0.20000 0.25000 0.50600
H 	H 	0.23700 0.13540 0.25000 0.10500
