data_crystal

_cell_length_a 13.41250
_cell_length_b 13.41250
_cell_length_c 27.80030
_cell_angle_alpha 90.00000
_cell_angle_beta  90.00000
_cell_angle_gamma 120.00000

_symmetry_space_group_name_	'P 1'
_symmetry_space_group_name_H-M	'P 1'

loop_
_symmetry_equiv_pos_as_xyz
  x,y,z

loop_
_atom_site_label
_atom_site_type_symbol
_atom_site_fract_x
_atom_site_fract_y
_atom_site_fract_z
_atom_site_charge
V 	V 	0.29251 0.85685 0.52686 1.82300
P 	P 	0.16281 0.97533 0.58404 0.73800
P 	P 	0.12690 0.63024 0.46386 0.48000
O 	O 	0.15020 0.71700 0.50377 -0.50100
O 	O 	0.16820 0.54710 0.47567 -0.49500
O 	O 	0.00050 0.56970 0.45009 -0.56200
O 	O 	0.18660 0.87960 0.56980 -0.46500
O 	O 	0.32600 0.77260 0.57592 -0.44900
O 	O 	0.25800 0.94740 0.47394 -0.43500
O 	O 	0.14120 0.08070 0.70447 -0.53900
O 	O 	0.07130 0.92960 0.62249 -0.47800
O 	O 	0.13640 0.02860 0.54050 -0.68200
H 	H 	0.16500 0.67400 0.41980 -0.01700
H 	H 	0.25900 0.06000 0.60390 -0.14400
H 	H 	0.19000 0.93500 0.47300 0.28800
V 	V 	0.14315 0.43566 0.52686 1.76800
P 	P 	0.02467 0.18748 0.58404 0.21100
P 	P 	0.36976 0.49666 0.46386 0.48400
O 	O 	0.28300 0.43320 0.50377 -0.46300
O 	O 	0.45290 0.62110 0.47567 -0.47000
O 	O 	0.43030 0.43080 0.45009 -0.45100
O 	O 	0.12040 0.30700 0.56980 -0.44500
O 	O 	0.22740 0.55340 0.57592 -0.50800
O 	O 	0.05260 0.31060 0.47394 -0.59300
O 	O 	0.91930 0.06050 0.70447 -0.47500
O 	O 	0.07040 0.14170 0.62249 -0.49900
O 	O 	0.97140 0.10780 0.54050 -0.34600
H 	H 	0.32600 0.49100 0.41980 -0.01400
H 	H 	0.94000 0.19900 0.60390 0.08200
H 	H 	0.06500 0.25500 0.47300 0.25900
V 	V 	0.56434 0.70749 0.52686 1.79600
P 	P 	0.81252 0.83719 0.58404 0.47500
P 	P 	0.50334 0.87310 0.46386 0.48600
O 	O 	0.56680 0.84980 0.50377 -0.41900
O 	O 	0.37890 0.83180 0.47567 -0.44400
O 	O 	0.56920 0.99950 0.45009 -0.33700
O 	O 	0.69300 0.81340 0.56980 -0.41000
O 	O 	0.44660 0.67400 0.57592 -0.46400
O 	O 	0.68940 0.74200 0.47394 -0.51200
O 	O 	0.93950 0.85880 0.70447 -0.32700
O 	O 	0.85830 0.92870 0.62249 -0.30300
O 	O 	0.89220 0.86360 0.54050 -0.38000
H 	H 	0.50900 0.83500 0.41980 0.00300
H 	H 	0.80100 0.74100 0.60390 -0.00900
H 	H 	0.74500 0.81000 0.47300 0.28300
V 	V 	0.70749 0.14315 0.02686 1.76100
P 	P 	0.83719 0.02467 0.08404 0.23100
P 	P 	0.87310 0.36976 0.96386 0.50800
O 	O 	0.84980 0.28300 0.00377 -0.44400
O 	O 	0.83180 0.45290 0.97567 -0.43500
O 	O 	0.99950 0.43030 0.95009 -0.33100
O 	O 	0.81340 0.12040 0.06980 -0.41800
O 	O 	0.67400 0.22740 0.07592 -0.50200
O 	O 	0.74200 0.05260 0.97394 -0.57600
O 	O 	0.85880 0.91930 0.20447 -0.36100
O 	O 	0.92870 0.07040 0.12249 -0.36400
O 	O 	0.86360 0.97140 0.04050 -0.28000
H 	H 	0.83500 0.32600 0.91980 -0.00300
H 	H 	0.74100 0.94000 0.10390 0.08700
H 	H 	0.81000 0.06500 0.97300 0.27300
V 	V 	0.85685 0.56434 0.02686 1.81500
P 	P 	0.97533 0.81252 0.08404 0.70400
P 	P 	0.63024 0.50334 0.96386 0.50300
O 	O 	0.71700 0.56680 0.00377 -0.48100
O 	O 	0.54710 0.37890 0.97567 -0.46000
O 	O 	0.56970 0.56920 0.95009 -0.44600
O 	O 	0.87960 0.69300 0.06980 -0.43600
O 	O 	0.77260 0.44660 0.07592 -0.44300
O 	O 	0.94740 0.68940 0.97394 -0.42900
O 	O 	0.08070 0.93950 0.20447 -0.40100
O 	O 	0.92960 0.85830 0.12249 -0.35600
O 	O 	0.02860 0.89220 0.04050 -0.56900
H 	H 	0.67400 0.50900 0.91980 -0.00700
H 	H 	0.06000 0.80100 0.10390 -0.11400
H 	H 	0.93500 0.74500 0.97300 0.29500
V 	V 	0.43566 0.29251 0.02686 1.78800
P 	P 	0.18748 0.16281 0.08404 0.47300
P 	P 	0.49666 0.12690 0.96386 0.50200
O 	O 	0.43320 0.15020 0.00377 -0.53000
O 	O 	0.62110 0.16820 0.97567 -0.48400
O 	O 	0.43080 0.00050 0.95009 -0.56000
O 	O 	0.30700 0.18660 0.06980 -0.47600
O 	O 	0.55340 0.32600 0.07592 -0.48700
O 	O 	0.31060 0.25800 0.97394 -0.50500
O 	O 	0.06050 0.14120 0.20447 -0.57500
O 	O 	0.14170 0.07130 0.12249 -0.55900
O 	O 	0.10780 0.13640 0.04050 -0.57500
H 	H 	0.49100 0.16500 0.91980 -0.02300
H 	H 	0.19900 0.25900 0.10390 -0.04000
H 	H 	0.25500 0.19000 0.97300 0.27300
V 	V 	0.70749 0.14315 0.47314 1.76900
P 	P 	0.83719 0.02467 0.41596 0.23500
P 	P 	0.87310 0.36976 0.53614 0.48600
O 	O 	0.84980 0.28300 0.49623 -0.41900
O 	O 	0.83180 0.45290 0.52433 -0.44500
O 	O 	0.99950 0.43030 0.54991 -0.33500
O 	O 	0.81340 0.12040 0.43020 -0.41400
O 	O 	0.67400 0.22740 0.42408 -0.49800
O 	O 	0.74200 0.05260 0.52606 -0.58800
O 	O 	0.85880 0.91930 0.29553 -0.36100
O 	O 	0.92870 0.07040 0.37751 -0.36300
O 	O 	0.86360 0.97140 0.45950 -0.27400
H 	H 	0.83500 0.32600 0.58020 -0.00100
H 	H 	0.74100 0.94000 0.39610 0.08600
H 	H 	0.81000 0.06500 0.52700 0.26900
V 	V 	0.85685 0.56434 0.47314 1.82200
P 	P 	0.97533 0.81252 0.41596 0.70800
P 	P 	0.63024 0.50334 0.53614 0.48300
O 	O 	0.71700 0.56680 0.49623 -0.45900
O 	O 	0.54710 0.37890 0.52433 -0.47000
O 	O 	0.56970 0.56920 0.54991 -0.45000
O 	O 	0.87960 0.69300 0.43020 -0.43300
O 	O 	0.77260 0.44660 0.42408 -0.43900
O 	O 	0.94740 0.68940 0.52606 -0.43900
O 	O 	0.08070 0.93950 0.29553 -0.40200
O 	O 	0.92960 0.85830 0.37751 -0.35700
O 	O 	0.02860 0.89220 0.45950 -0.56500
H 	H 	0.67400 0.50900 0.58020 -0.00500
H 	H 	0.06000 0.80100 0.39610 -0.11500
H 	H 	0.93500 0.74500 0.52700 0.29200
V 	V 	0.43566 0.29251 0.47314 1.79400
P 	P 	0.18748 0.16281 0.41596 0.47300
P 	P 	0.49666 0.12690 0.53614 0.48100
O 	O 	0.43320 0.15020 0.49623 -0.50600
O 	O 	0.62110 0.16820 0.52433 -0.49500
O 	O 	0.43080 0.00050 0.54991 -0.56600
O 	O 	0.30700 0.18660 0.43020 -0.47200
O 	O 	0.55340 0.32600 0.42408 -0.48400
O 	O 	0.31060 0.25800 0.52606 -0.51600
O 	O 	0.06050 0.14120 0.29553 -0.57500
O 	O 	0.14170 0.07130 0.37751 -0.55900
O 	O 	0.10780 0.13640 0.45950 -0.56700
H 	H 	0.49100 0.16500 0.58020 -0.02200
H 	H 	0.19900 0.25900 0.39610 -0.04000
H 	H 	0.25500 0.19000 0.52700 0.26900
V 	V 	0.29251 0.85685 0.97314 1.82700
P 	P 	0.16281 0.97533 0.91596 0.73200
P 	P 	0.12690 0.63024 0.03614 0.46400
O 	O 	0.15020 0.71700 0.99623 -0.48300
O 	O 	0.16820 0.54710 0.02433 -0.50400
O 	O 	0.00050 0.56970 0.04991 -0.56400
O 	O 	0.18660 0.87960 0.93020 -0.46300
O 	O 	0.32600 0.77260 0.92408 -0.44700
O 	O 	0.25800 0.94740 0.02606 -0.44200
O 	O 	0.14120 0.08070 0.79553 -0.53900
O 	O 	0.07130 0.92960 0.87751 -0.47800
O 	O 	0.13640 0.02860 0.95950 -0.66800
H 	H 	0.16500 0.67400 0.08020 -0.01500
H 	H 	0.25900 0.06000 0.89610 -0.14100
H 	H 	0.19000 0.93500 0.02700 0.28500
V 	V 	0.14315 0.43566 0.97314 1.77400
P 	P 	0.02467 0.18748 0.91596 0.20900
P 	P 	0.36976 0.49666 0.03614 0.46500
O 	O 	0.28300 0.43320 0.99623 -0.44200
O 	O 	0.45290 0.62110 0.02433 -0.47800
O 	O 	0.43030 0.43080 0.04991 -0.45500
O 	O 	0.12040 0.30700 0.93020 -0.44200
O 	O 	0.22740 0.55340 0.92408 -0.50600
O 	O 	0.05260 0.31060 0.02606 -0.60100
O 	O 	0.91930 0.06050 0.79553 -0.47500
O 	O 	0.07040 0.14170 0.87751 -0.49800
O 	O 	0.97140 0.10780 0.95950 -0.33300
H 	H 	0.32600 0.49100 0.08020 -0.01200
H 	H 	0.94000 0.19900 0.89610 0.08400
H 	H 	0.06500 0.25500 0.02700 0.25600
V 	V 	0.56434 0.70749 0.97314 1.80300
P 	P 	0.81252 0.83719 0.91596 0.47500
P 	P 	0.50334 0.87310 0.03614 0.46900
O 	O 	0.56680 0.84980 0.99623 -0.40000
O 	O 	0.37890 0.83180 0.02433 -0.45200
O 	O 	0.56920 0.99950 0.04991 -0.34000
O 	O 	0.69300 0.81340 0.93020 -0.40700
O 	O 	0.44660 0.67400 0.92408 -0.46100
O 	O 	0.68940 0.74200 0.02606 -0.52200
O 	O 	0.93950 0.85880 0.79553 -0.32700
O 	O 	0.85830 0.92870 0.87751 -0.30400
O 	O 	0.89220 0.86360 0.95950 -0.37000
H 	H 	0.50900 0.83500 0.08020 0.00400
H 	H 	0.80100 0.74100 0.89610 -0.00800
H 	H 	0.74500 0.81000 0.02700 0.28000
V 	V 	0.00000 0.00000 0.50000 1.64000
V 	V 	-0.00000 0.00000 -0.00000 1.62900
V 	V 	-0.00000 0.00000 0.66429 1.64500
V 	V 	-0.00000 -0.00000 0.16429 1.64500
V 	V 	-0.00000 -0.00000 0.33571 1.64500
V 	V 	-0.00000 0.00000 0.83571 1.64600
P 	P 	0.33333 0.66667 0.58962 0.50700
H 	H 	0.33333 0.66667 0.63840 0.00100
P 	P 	0.66667 0.33333 0.08962 0.50600
H 	H 	0.66667 0.33333 0.13840 0.00100
P 	P 	0.66667 0.33333 0.41038 0.50700
H 	H 	0.66667 0.33333 0.36160 0.00100
P 	P 	0.33333 0.66667 0.91038 0.50800
H 	H 	0.33333 0.66667 0.86160 0.00000
P 	P 	0.19121 0.06594 0.75000 0.36100
O 	O 	0.32090 0.15060 0.75000 -0.38600
H 	H 	0.35560 0.11470 0.75000 0.20900
H 	H 	0.19400 0.96400 0.75000 0.06200
P 	P 	0.93406 0.12527 0.75000 0.64400
O 	O 	0.84940 0.17030 0.75000 -0.47000
H 	H 	0.88530 0.24090 0.75000 0.32300
H 	H 	0.03600 0.23000 0.75000 -0.15300
P 	P 	0.87473 0.80879 0.75000 0.50700
O 	O 	0.82970 0.67910 0.75000 -0.37500
H 	H 	0.75910 0.64440 0.75000 0.25700
H 	H 	0.77000 0.80600 0.75000 -0.00200
P 	P 	0.80879 0.93406 0.25000 0.63800
O 	O 	0.67910 0.84940 0.25000 -0.43400
H 	H 	0.64440 0.88530 0.25000 0.31500
H 	H 	0.80600 0.03600 0.25000 -0.11300
P 	P 	0.06594 0.87473 0.25000 0.37700
O 	O 	0.15060 0.82970 0.25000 -0.34900
H 	H 	0.11470 0.75910 0.25000 0.20600
H 	H 	0.96400 0.77000 0.25000 0.07900
P 	P 	0.12527 0.19121 0.25000 0.49700
O 	O 	0.17030 0.32090 0.25000 -0.44600
H 	H 	0.24090 0.35560 0.25000 0.26800
H 	H 	0.23000 0.19400 0.25000 -0.06200
