data_crystal

_cell_length_a 13.41070
_cell_length_b 13.41070
_cell_length_c 27.56780
_cell_angle_alpha 90.00000
_cell_angle_beta  90.00000
_cell_angle_gamma 120.00000

_symmetry_space_group_name_	'P 1'
_symmetry_space_group_name_H-M	'P 1'

loop_
_symmetry_equiv_pos_as_xyz
  x,y,z

loop_
_atom_site_label
_atom_site_type_symbol
_atom_site_fract_x
_atom_site_fract_y
_atom_site_fract_z
_atom_site_charge
V 	V 	0.29205 0.85656 0.52727 1.79100
P 	P 	0.16072 0.97361 0.58504 0.74100
P 	P 	0.12631 0.63004 0.46384 0.56600
O 	O 	0.14950 0.71620 0.50424 -0.53700
O 	O 	0.16890 0.54750 0.47584 -0.53100
O 	O 	-0.00000 0.56860 0.44972 -0.57200
O 	O 	0.18790 0.87980 0.57110 -0.48900
O 	O 	0.32470 0.77130 0.57724 -0.47500
O 	O 	0.14380 0.07140 0.70438 -0.58700
O 	O 	0.06560 0.92530 0.62269 -0.48100
O 	O 	0.13610 0.02660 0.54056 -0.64000
H 	H 	0.25240 0.05610 0.60540 -0.49000
O 	O 	0.19450 0.69500 0.41890 0.36900
H 	H 	0.17510 0.74150 0.41060 0.02000
O 	O 	0.26310 0.07040 0.61040 0.31000
H 	H 	0.31780 0.10010 0.59160 0.04100
H 	H 	0.33790 0.61140 0.65570 0.04200
H 	H 	0.18400 0.68900 0.42610 -0.45200
V 	V 	0.14344 0.43549 0.52727 1.75500
P 	P 	0.02639 0.18711 0.58504 0.36400
P 	P 	0.36996 0.49627 0.46384 0.56400
O 	O 	0.28380 0.43330 0.50424 -0.53300
O 	O 	0.45250 0.62140 0.47584 -0.51800
O 	O 	0.43140 0.43140 0.44972 -0.49900
O 	O 	0.12020 0.30810 0.57110 -0.48300
O 	O 	0.22870 0.55340 0.57724 -0.50200
O 	O 	0.92860 0.07240 0.70438 -0.49400
O 	O 	0.07470 0.14030 0.62269 -0.50800
O 	O 	0.97340 0.10950 0.54056 -0.40800
H 	H 	0.94390 0.19630 0.60540 -0.42300
O 	O 	0.30500 0.49950 0.41890 0.37200
H 	H 	0.25850 0.43360 0.41060 0.00800
O 	O 	0.92960 0.19270 0.61040 0.41800
H 	H 	0.89990 0.21770 0.59160 0.02500
H 	H 	0.38860 0.72650 0.65570 0.05400
H 	H 	0.31100 0.49500 0.42610 -0.45200
V 	V 	0.56451 0.70795 0.52727 1.76400
P 	P 	0.81289 0.83928 0.58504 0.55000
P 	P 	0.50373 0.87369 0.46384 0.65900
O 	O 	0.56670 0.85050 0.50424 -0.51100
O 	O 	0.37860 0.83110 0.47584 -0.50000
O 	O 	0.56860 0.00000 0.44972 -0.59700
O 	O 	0.69190 0.81210 0.57110 -0.46700
O 	O 	0.44660 0.67530 0.57724 -0.48800
O 	O 	0.92760 0.85620 0.70438 -0.43000
O 	O 	0.85970 0.93440 0.62269 -0.36400
O 	O 	0.89050 0.86390 0.54056 -0.42200
H 	H 	0.80370 0.74760 0.60540 -0.43200
O 	O 	0.50050 0.80550 0.41890 0.35800
H 	H 	0.56640 0.82490 0.41060 0.03700
O 	O 	0.80730 0.73690 0.61040 0.35600
H 	H 	0.78230 0.68220 0.59160 0.04000
H 	H 	0.27350 0.66210 0.65570 0.03900
H 	H 	0.50500 0.81600 0.42610 -0.44700
V 	V 	0.70795 0.14344 0.02727 1.75000
P 	P 	0.83928 0.02639 0.08504 0.38700
P 	P 	0.87369 0.36996 0.96384 0.68300
O 	O 	0.85050 0.28380 0.00424 -0.53900
O 	O 	0.83110 0.45250 0.97584 -0.49000
O 	O 	-0.00000 0.43140 0.94972 -0.59600
O 	O 	0.81210 0.12020 0.07110 -0.46800
O 	O 	0.67530 0.22870 0.07724 -0.49900
O 	O 	0.85620 0.92860 0.20438 -0.42800
O 	O 	0.93440 0.07470 0.12269 -0.40800
O 	O 	0.86390 0.97340 0.04056 -0.36600
H 	H 	0.74760 0.94390 0.10540 -0.41100
O 	O 	0.80550 0.30500 0.91890 0.35700
H 	H 	0.82490 0.25850 0.91060 0.03200
O 	O 	0.73690 0.92960 0.11040 0.40600
H 	H 	0.68220 0.89990 0.09160 0.03100
H 	H 	0.66210 0.38860 0.15570 0.04700
H 	H 	0.81600 0.31100 0.92610 -0.45000
V 	V 	0.85656 0.56451 0.02727 1.78300
P 	P 	0.97361 0.81289 0.08504 0.70900
P 	P 	0.63004 0.50373 0.96384 0.58500
O 	O 	0.71620 0.56670 0.00424 -0.54500
O 	O 	0.54750 0.37860 0.97584 -0.50600
O 	O 	0.56860 0.56860 0.94972 -0.49500
O 	O 	0.87980 0.69190 0.07110 -0.47700
O 	O 	0.77130 0.44660 0.07724 -0.47600
O 	O 	0.07140 0.92760 0.20438 -0.49700
O 	O 	0.92530 0.85970 0.12269 -0.39800
O 	O 	0.02660 0.89050 0.04056 -0.55100
H 	H 	0.05610 0.80370 0.10540 -0.46500
O 	O 	0.69500 0.50050 0.91890 0.36600
H 	H 	0.74150 0.56640 0.91060 0.03100
O 	O 	0.07040 0.80730 0.11040 0.31200
H 	H 	0.10010 0.78230 0.09160 0.04500
H 	H 	0.61140 0.27350 0.15570 0.03600
H 	H 	0.68900 0.50500 0.92610 -0.44900
V 	V 	0.43549 0.29205 0.02727 1.75700
P 	P 	0.18711 0.16072 0.08504 0.54900
P 	P 	0.49627 0.12631 0.96384 0.58600
O 	O 	0.43330 0.14950 0.00424 -0.57200
O 	O 	0.62140 0.16890 0.97584 -0.51900
O 	O 	0.43140 0.00000 0.94972 -0.57000
O 	O 	0.30810 0.18790 0.07110 -0.50300
O 	O 	0.55340 0.32470 0.07724 -0.50100
O 	O 	0.07240 0.14380 0.20438 -0.58500
O 	O 	0.14030 0.06560 0.12269 -0.54700
O 	O 	0.10950 0.13610 0.04056 -0.57600
H 	H 	0.19630 0.25240 0.10540 -0.46700
O 	O 	0.49950 0.19450 0.91890 0.36900
H 	H 	0.43360 0.17510 0.91060 0.01000
O 	O 	0.19270 0.26310 0.11040 0.36700
H 	H 	0.21770 0.31780 0.09160 0.02500
H 	H 	0.72650 0.33790 0.15570 0.05200
H 	H 	0.49500 0.18400 0.92610 -0.45500
V 	V 	0.70795 0.14344 0.47273 1.75700
P 	P 	0.83928 0.02639 0.41496 0.38900
P 	P 	0.87369 0.36996 0.53616 0.66100
O 	O 	0.85050 0.28380 0.49576 -0.51400
O 	O 	0.83110 0.45250 0.52416 -0.50100
O 	O 	-0.00000 0.43140 0.55028 -0.59900
O 	O 	0.81210 0.12020 0.42890 -0.46500
O 	O 	0.67530 0.22870 0.42276 -0.49600
O 	O 	0.85620 0.92860 0.29562 -0.42800
O 	O 	0.93440 0.07470 0.37731 -0.40800
O 	O 	0.86390 0.97340 0.45944 -0.35800
H 	H 	0.74760 0.94390 0.39460 -0.41200
O 	O 	0.80550 0.30500 0.58110 0.36000
H 	H 	0.82490 0.25850 0.58940 0.02900
O 	O 	0.73690 0.92960 0.38960 0.40600
H 	H 	0.68220 0.89990 0.40840 0.03300
H 	H 	0.66210 0.38860 0.34430 0.04700
H 	H 	0.81600 0.31100 0.57390 -0.44900
V 	V 	0.85656 0.56451 0.47273 1.78900
P 	P 	0.97361 0.81289 0.41496 0.71100
P 	P 	0.63004 0.50373 0.53616 0.56400
O 	O 	0.71620 0.56670 0.49576 -0.52100
O 	O 	0.54750 0.37860 0.52416 -0.51800
O 	O 	0.56860 0.56860 0.55028 -0.49900
O 	O 	0.87980 0.69190 0.42890 -0.47400
O 	O 	0.77130 0.44660 0.42276 -0.47200
O 	O 	0.07140 0.92760 0.29562 -0.49700
O 	O 	0.92530 0.85970 0.37731 -0.39800
O 	O 	0.02660 0.89050 0.45944 -0.54400
H 	H 	0.05610 0.80370 0.39460 -0.46500
O 	O 	0.69500 0.50050 0.58110 0.36900
H 	H 	0.74150 0.56640 0.58940 0.02800
O 	O 	0.07040 0.80730 0.38960 0.31100
H 	H 	0.10010 0.78230 0.40840 0.04700
H 	H 	0.61140 0.27350 0.34430 0.03600
H 	H 	0.68900 0.50500 0.57390 -0.44800
V 	V 	0.43549 0.29205 0.47273 1.76300
P 	P 	0.18711 0.16072 0.41496 0.55000
P 	P 	0.49627 0.12631 0.53616 0.56500
O 	O 	0.43330 0.14950 0.49576 -0.54700
O 	O 	0.62140 0.16890 0.52416 -0.53100
O 	O 	0.43140 0.00000 0.55028 -0.57500
O 	O 	0.30810 0.18790 0.42890 -0.50000
O 	O 	0.55340 0.32470 0.42276 -0.49800
O 	O 	0.07240 0.14380 0.29562 -0.58500
O 	O 	0.14030 0.06560 0.37731 -0.54700
O 	O 	0.10950 0.13610 0.45944 -0.56700
H 	H 	0.19630 0.25240 0.39460 -0.46700
O 	O 	0.49950 0.19450 0.58110 0.37100
H 	H 	0.43360 0.17510 0.58940 0.00800
O 	O 	0.19270 0.26310 0.38960 0.36700
H 	H 	0.21770 0.31780 0.40840 0.02700
H 	H 	0.72650 0.33790 0.34430 0.05200
H 	H 	0.49500 0.18400 0.57390 -0.45400
V 	V 	0.29205 0.85656 0.97273 1.79500
P 	P 	0.16072 0.97361 0.91496 0.73700
P 	P 	0.12631 0.63004 0.03616 0.54600
O 	O 	0.14950 0.71620 0.99576 -0.51600
O 	O 	0.16890 0.54750 0.02416 -0.54200
O 	O 	-0.00000 0.56860 0.05028 -0.57500
O 	O 	0.18790 0.87980 0.92890 -0.48700
O 	O 	0.32470 0.77130 0.92276 -0.47300
O 	O 	0.14380 0.07140 0.79562 -0.58600
O 	O 	0.06560 0.92530 0.87731 -0.48100
O 	O 	0.13610 0.02660 0.95944 -0.62500
H 	H 	0.25240 0.05610 0.89460 -0.49000
O 	O 	0.19450 0.69500 0.08110 0.37100
H 	H 	0.17510 0.74150 0.08940 0.01800
O 	O 	0.26310 0.07040 0.88960 0.31100
H 	H 	0.31780 0.10010 0.90840 0.04300
H 	H 	0.33790 0.61140 0.84430 0.04200
H 	H 	0.18400 0.68900 0.07390 -0.45200
V 	V 	0.14344 0.43549 0.97273 1.76100
P 	P 	0.02639 0.18711 0.91496 0.36400
P 	P 	0.36996 0.49627 0.03616 0.54400
O 	O 	0.28380 0.43330 0.99576 -0.50900
O 	O 	0.45250 0.62140 0.02416 -0.52900
O 	O 	0.43140 0.43140 0.05028 -0.50300
O 	O 	0.12020 0.30810 0.92890 -0.47900
O 	O 	0.22870 0.55340 0.92276 -0.49900
O 	O 	0.92860 0.07240 0.79562 -0.49400
O 	O 	0.07470 0.14030 0.87731 -0.50700
O 	O 	0.97340 0.10950 0.95944 -0.39400
H 	H 	0.94390 0.19630 0.89460 -0.42300
O 	O 	0.30500 0.49950 0.08110 0.37400
H 	H 	0.25850 0.43360 0.08940 0.00600
O 	O 	0.92960 0.19270 0.88960 0.41800
H 	H 	0.89990 0.21770 0.90840 0.02800
H 	H 	0.38860 0.72650 0.84430 0.05400
H 	H 	0.31100 0.49500 0.07390 -0.45200
V 	V 	0.56451 0.70795 0.97273 1.77000
P 	P 	0.81289 0.83928 0.91496 0.55000
P 	P 	0.50373 0.87369 0.03616 0.64100
O 	O 	0.56670 0.85050 0.99576 -0.48900
O 	O 	0.37860 0.83110 0.02416 -0.51000
O 	O 	0.56860 0.00000 0.05028 -0.60200
O 	O 	0.69190 0.81210 0.92890 -0.46400
O 	O 	0.44660 0.67530 0.92276 -0.48500
O 	O 	0.92760 0.85620 0.79562 -0.43000
O 	O 	0.85970 0.93440 0.87731 -0.36500
O 	O 	0.89050 0.86390 0.95944 -0.41000
H 	H 	0.80370 0.74760 0.89460 -0.43200
O 	O 	0.50050 0.80550 0.08110 0.36000
H 	H 	0.56640 0.82490 0.08940 0.03500
O 	O 	0.80730 0.73690 0.88960 0.35600
H 	H 	0.78230 0.68220 0.90840 0.04200
H 	H 	0.27350 0.66210 0.84430 0.03900
H 	H 	0.50500 0.81600 0.07390 -0.44700
V 	V 	-0.00000 0.00000 0.50000 1.68200
V 	V 	-0.00000 0.00000 -0.00000 1.67100
V 	V 	-0.00000 0.00000 0.66457 1.69300
V 	V 	0.00000 0.00000 0.16457 1.69300
V 	V 	-0.00000 0.00000 0.33543 1.69300
V 	V 	-0.00000 0.00000 0.83543 1.69400
P 	P 	0.33333 0.66667 0.59128 0.60300
H 	H 	0.33333 0.66667 0.63850 -0.48200
O 	O 	0.33333 0.66667 0.64580 0.36100
P 	P 	0.66667 0.33333 0.09128 0.60100
H 	H 	0.66667 0.33333 0.13850 -0.48100
O 	O 	0.66667 0.33333 0.14580 0.36200
P 	P 	0.66667 0.33333 0.40872 0.60300
H 	H 	0.66667 0.33333 0.36150 -0.48200
O 	O 	0.66667 0.33333 0.35420 0.36100
P 	P 	0.33333 0.66667 0.90872 0.60400
H 	H 	0.33333 0.66667 0.86150 -0.48200
O 	O 	0.33333 0.66667 0.85420 0.36100
P 	P 	0.19420 0.05690 0.75000 -0.11900
O 	O 	0.20550 0.94730 0.75000 -0.08900
H 	H 	0.14120 0.89000 0.75000 -0.09800
O 	O 	0.32280 0.14230 0.75000 -1.09800
H 	H 	0.33350 0.20810 0.75000 0.51800
P 	P 	0.20090 0.12320 0.75000 0.74600
O 	O 	0.22600 0.25700 0.75000 -0.35700
H 	H 	0.16460 0.25660 0.75000 -0.00300
H 	H 	0.31880 0.07930 0.75000 0.54500
P 	P 	0.94310 0.13730 0.75000 1.16300
O 	O 	0.05270 0.25820 0.75000 -0.81500
H 	H 	0.11000 0.25120 0.75000 0.42500
O 	O 	0.85770 0.18050 0.75000 -1.20400
H 	H 	0.79190 0.12540 0.75000 0.62800
P 	P 	0.87680 0.07770 0.75000 -0.41500
O 	O 	0.74300 0.96900 0.75000 -0.04400
H 	H 	0.74340 0.90800 0.75000 -0.04400
H 	H 	0.92070 0.23950 0.75000 0.62300
P 	P 	0.86270 0.80580 0.75000 0.10000
O 	O 	0.74180 0.79450 0.75000 -0.46400
H 	H 	0.74880 0.85880 0.75000 0.37500
O 	O 	0.81950 0.67720 0.75000 -1.23700
H 	H 	0.87460 0.66650 0.75000 0.64200
P 	P 	0.92230 0.79910 0.75000 0.70900
O 	O 	0.03100 0.77400 0.75000 -0.65300
H 	H 	0.09200 0.83540 0.75000 0.45200
H 	H 	0.76050 0.68120 0.75000 0.66900
P 	P 	0.80580 0.94310 0.25000 0.84100
O 	O 	0.79450 0.05270 0.25000 -0.80100
H 	H 	0.85880 0.11000 0.25000 0.56400
O 	O 	0.67720 0.85770 0.25000 -1.25600
H 	H 	0.66650 0.79190 0.25000 0.66800
P 	P 	0.79910 0.87680 0.25000 -0.01900
O 	O 	0.77400 0.74300 0.25000 -0.35000
H 	H 	0.83540 0.74340 0.25000 0.26900
H 	H 	0.68120 0.92070 0.25000 0.67600
P 	P 	0.05690 0.86270 0.25000 -0.38900
O 	O 	0.94730 0.74180 0.25000 -0.11500
H 	H 	0.89000 0.74880 0.25000 0.04900
O 	O 	0.14230 0.81950 0.25000 -1.16500
H 	H 	0.20810 0.87460 0.25000 0.57300
P 	P 	0.12320 0.92230 0.25000 1.11100
O 	O 	0.25700 0.03100 0.25000 -0.67400
H 	H 	0.25660 0.09200 0.25000 0.32000
H 	H 	0.07930 0.76050 0.25000 0.61100
P 	P 	0.13730 0.19420 0.25000 0.68300
O 	O 	0.25820 0.20550 0.25000 -0.45300
H 	H 	0.25120 0.14120 0.25000 0.08900
O 	O 	0.18050 0.32280 0.25000 -1.11900
H 	H 	0.12540 0.33350 0.25000 0.54700
P 	P 	0.07770 0.20090 0.25000 -0.04200
O 	O 	0.96900 0.22600 0.25000 -0.03100
H 	H 	0.90800 0.16460 0.25000 -0.18300
H 	H 	0.23950 0.31880 0.25000 0.55100
