data_crystal

_cell_length_a 12.74240
_cell_length_b 12.76780
_cell_length_c 13.28130
_cell_angle_alpha 90.00000
_cell_angle_beta  90.00000
_cell_angle_gamma 90.00000

_symmetry_space_group_name_	'P 1'
_symmetry_space_group_name_H-M	'P 1'

loop_
_symmetry_equiv_pos_as_xyz
  x,y,z

loop_
_atom_site_label
_atom_site_type_symbol
_atom_site_fract_x
_atom_site_fract_y
_atom_site_fract_z
_atom_site_charge
Eu	Eu	0.54259 0.21075 0.25423 1.62500
Eu	Eu	0.53970 0.70810 0.09479 1.61800
Eu	Eu	0.04259 0.78925 0.24577 1.61600
Eu	Eu	0.03970 0.29190 0.40521 1.62000
Eu	Eu	0.95741 0.71075 0.74577 1.62100
Eu	Eu	0.96030 0.20810 0.90521 1.61200
Eu	Eu	0.45741 0.28925 0.75423 1.62700
Eu	Eu	0.46030 0.79190 0.59479 1.62600
C 	C 	0.70000 0.25000 0.94700 -0.05300
C 	C 	0.61900 0.25400 0.01000 -0.06200
C 	C 	0.71400 0.26400 0.83600 0.38000
C 	C 	0.50200 0.26400 0.01100 0.39200
C 	C 	0.49200 0.75200 0.34300 0.38600
C 	C 	0.52600 0.96500 0.17800 0.39000
C 	C 	0.50900 0.94700 0.28700 -0.06600
C 	C 	0.49600 0.86400 0.35100 -0.06200
C 	C 	0.20000 0.75000 0.55300 -0.05200
C 	C 	0.11900 0.74600 0.49000 -0.06300
C 	C 	0.21400 0.73600 0.66400 0.37900
C 	C 	0.00200 0.73600 0.48900 0.39400
C 	C 	0.99200 0.24800 0.15700 0.38300
C 	C 	0.02600 0.03500 0.32200 0.39600
C 	C 	0.00900 0.05300 0.21300 -0.07400
C 	C 	0.99600 0.13600 0.14900 -0.05200
C 	C 	0.80000 0.75000 0.05300 -0.04800
C 	C 	0.88100 0.75400 0.99000 -0.06600
C 	C 	0.78600 0.76400 0.16400 0.37800
C 	C 	0.99800 0.76400 0.98900 0.39200
C 	C 	0.00800 0.25200 0.65700 0.38400
C 	C 	0.97400 0.46500 0.82200 0.39400
C 	C 	0.99100 0.44700 0.71300 -0.06900
C 	C 	0.00400 0.36400 0.64900 -0.05600
C 	C 	0.30000 0.25000 0.44700 -0.05200
C 	C 	0.38100 0.24600 0.51000 -0.06400
C 	C 	0.28600 0.23600 0.33600 0.38000
C 	C 	0.49800 0.23600 0.51100 0.39600
C 	C 	0.50800 0.74800 0.84300 0.38600
C 	C 	0.47400 0.53500 0.67800 0.39300
C 	C 	0.49100 0.55300 0.78700 -0.06500
C 	C 	0.50400 0.63600 0.85100 -0.06100
N 	N 	0.79300 0.23100 0.99700 -0.18300
N 	N 	0.76500 0.22800 0.09800 -0.08200
N 	N 	0.66300 0.24100 0.10700 -0.19100
N 	N 	0.50800 0.03800 0.34500 -0.16200
N 	N 	0.49400 0.01400 0.43900 -0.09000
N 	N 	0.49100 0.90900 0.44100 -0.18900
N 	N 	0.29300 0.76900 0.50300 -0.18200
N 	N 	0.26500 0.77200 0.40200 -0.08400
N 	N 	0.16300 0.75900 0.39300 -0.19100
N 	N 	0.00800 0.96200 0.15500 -0.16600
N 	N 	0.99400 0.98600 0.06100 -0.08700
N 	N 	0.99100 0.09100 0.05900 -0.18600
N 	N 	0.70700 0.73100 0.00300 -0.18200
N 	N 	0.73500 0.72800 0.90200 -0.08400
N 	N 	0.83700 0.74100 0.89300 -0.19100
N 	N 	0.99200 0.53800 0.65500 -0.16200
N 	N 	0.00600 0.51400 0.56100 -0.08900
N 	N 	0.00900 0.40900 0.55900 -0.18900
N 	N 	0.20700 0.26900 0.49700 -0.18100
N 	N 	0.23500 0.27200 0.59800 -0.08400
N 	N 	0.33700 0.25900 0.60700 -0.19100
N 	N 	0.49200 0.46200 0.84500 -0.16200
N 	N 	0.50600 0.48600 0.93900 -0.09000
N 	N 	0.50900 0.59100 0.94100 -0.18800
O 	O 	0.80400 0.24300 0.80000 -0.42900
O 	O 	0.63700 0.29000 0.78500 -0.46800
O 	O 	0.45900 0.26700 0.09500 -0.44200
O 	O 	0.45300 0.25500 0.92800 -0.49500
O 	O 	0.53200 0.05700 0.14700 -0.43800
O 	O 	0.52700 0.88600 0.12100 -0.46600
O 	O 	0.49200 0.70400 0.43100 -0.41300
O 	O 	0.48600 0.70600 0.26200 -0.51000
O 	O 	0.30400 0.75700 0.70000 -0.42800
O 	O 	0.13700 0.71000 0.71500 -0.46600
O 	O 	0.95900 0.73300 0.40500 -0.43700
O 	O 	0.95300 0.74500 0.57200 -0.49600
O 	O 	0.03200 0.94300 0.35300 -0.44100
O 	O 	0.02700 0.11400 0.37900 -0.46600
O 	O 	0.99200 0.29600 0.06900 -0.40700
O 	O 	0.98600 0.29400 0.23800 -0.50600
O 	O 	0.69600 0.74300 0.20000 -0.42800
O 	O 	0.86300 0.79000 0.21500 -0.46400
O 	O 	0.04100 0.76700 0.90500 -0.43100
O 	O 	0.04700 0.75500 0.07200 -0.50200
O 	O 	0.96800 0.55700 0.85300 -0.44000
O 	O 	0.97300 0.38600 0.87900 -0.46600
O 	O 	0.00800 0.20400 0.56900 -0.41100
O 	O 	0.01400 0.20600 0.73800 -0.50400
O 	O 	0.19600 0.25700 0.30000 -0.43000
O 	O 	0.36300 0.21000 0.28500 -0.46900
O 	O 	0.54100 0.23300 0.59500 -0.44200
O 	O 	0.54700 0.24500 0.42800 -0.49800
O 	O 	0.46800 0.44300 0.64700 -0.43900
O 	O 	0.47300 0.61400 0.62100 -0.46500
O 	O 	0.50800 0.79600 0.93100 -0.41000
O 	O 	0.51400 0.79400 0.76200 -0.51000
