data_crystal

_cell_length_a 9.54000
_cell_length_b 7.61100
_cell_length_c 7.12000
_cell_angle_alpha 90.00000
_cell_angle_beta  100.95000
_cell_angle_gamma 90.00000

_symmetry_space_group_name_	'P 1'
_symmetry_space_group_name_H-M	'P 1'

loop_
_symmetry_equiv_pos_as_xyz
  x,y,z

loop_
_atom_site_label
_atom_site_type_symbol
_atom_site_fract_x
_atom_site_fract_y
_atom_site_fract_z
_atom_site_charge
N 	N 	0.06220 0.22090 0.23020 -0.22100
C 	C 	0.04050 0.32730 0.33400 -0.37300
H 	H 	0.28700 0.08000 0.02200 0.00300
H 	H 	0.20000 0.10100 0.67700 -0.02800
H 	H 	0.47400 0.10600 0.80800 0.03700
H 	H 	0.36300 0.10600 0.43100 0.01500
N 	N 	0.93780 0.22090 0.76980 -0.13400
C 	C 	0.95950 0.32730 0.66600 -0.07900
H 	H 	0.71300 0.08000 0.97800 0.12500
H 	H 	0.80000 0.10100 0.32300 0.06300
H 	H 	0.52600 0.10600 0.19200 0.00500
H 	H 	0.63700 0.10600 0.56900 0.03500
N 	N 	0.93780 0.77910 0.76980 -0.13500
C 	C 	0.95950 0.67270 0.66600 -0.08100
H 	H 	0.71300 0.92000 0.97800 0.12500
H 	H 	0.80000 0.89900 0.32300 0.06700
H 	H 	0.52600 0.89400 0.19200 0.01200
H 	H 	0.63700 0.89400 0.56900 0.03900
N 	N 	0.06220 0.77910 0.23020 -0.21600
C 	C 	0.04050 0.67270 0.33400 -0.37000
H 	H 	0.28700 0.92000 0.02200 0.01700
H 	H 	0.20000 0.89900 0.67700 -0.02100
H 	H 	0.47400 0.89400 0.80800 0.03900
H 	H 	0.36300 0.89400 0.43100 0.02200
Cd	Cd	-0.00000 0.00000 -0.00000 1.08500
Ni	Ni	0.00000 0.50000 0.50000 0.95500
N 	N 	0.22970 -0.00000 0.94020 -0.24700
C 	C 	0.25220 0.00000 0.74190 -0.02400
C 	C 	0.40660 0.00000 0.72100 -0.08300
C 	C 	0.42270 0.00000 0.51120 -0.06500
N 	N 	0.77030 -0.00000 0.05980 -0.34200
C 	C 	0.74780 0.00000 0.25810 -0.08000
C 	C 	0.59340 0.00000 0.27900 -0.05700
C 	C 	0.57730 0.00000 0.48880 -0.08800
