data_crystal

_cell_length_a 16.29900
_cell_length_b 20.81800
_cell_length_c 17.23900
_cell_angle_alpha 90.00000
_cell_angle_beta  90.00000
_cell_angle_gamma 90.00000

_symmetry_space_group_name_	'P 1'
_symmetry_space_group_name_H-M	'P 1'

loop_
_symmetry_equiv_pos_as_xyz
  x,y,z

loop_
_atom_site_label
_atom_site_type_symbol
_atom_site_fract_x
_atom_site_fract_y
_atom_site_fract_z
_atom_site_charge
Zn	Zn	0.75000 0.93948 0.32129 1.13700
Zn	Zn	0.75000 0.00058 0.68384 1.21200
Zn	Zn	0.75000 0.43413 0.51889 1.18900
Zn	Zn	0.25000 0.06052 0.67871 1.13700
Zn	Zn	0.25000 0.99942 0.31616 1.21100
Zn	Zn	0.25000 0.56587 0.48111 1.18800
H 	H 	0.10020 0.07680 0.37780 0.01000
H 	H 	0.12380 0.01410 0.16640 -0.00100
H 	H 	0.92590 0.14080 0.27680 -0.01000
H 	H 	0.90900 0.08010 0.32830 -0.01900
H 	H 	0.07950 0.05070 0.78690 -0.03100
H 	H 	0.10060 0.10440 0.57350 0.01300
H 	H 	0.91570 0.17560 0.63840 0.02300
H 	H 	0.89140 0.10890 0.60250 0.01600
H 	H 	0.96520 0.27870 0.61620 0.26600
H 	H 	0.05230 0.29550 0.58340 0.26600
H 	H 	0.03950 0.23270 0.63210 0.25700
H 	H 	0.08800 0.32380 0.48160 0.00500
H 	H 	0.07100 0.32400 0.39190 0.01400
H 	H 	0.87870 0.04830 0.42850 0.27200
H 	H 	0.88710 0.05460 0.51870 0.28600
H 	H 	0.96090 0.02900 0.46940 0.27300
H 	H 	0.02720 0.20840 0.26650 0.28700
H 	H 	0.05520 0.27340 0.30400 0.29300
H 	H 	0.96270 0.26270 0.28280 0.26900
H 	H 	0.88100 0.31720 0.49110 -0.00400
H 	H 	0.91210 0.49940 0.46130 -0.02000
H 	H 	0.60020 0.92320 0.62220 0.01000
H 	H 	0.62380 0.98590 0.83360 -0.00100
H 	H 	0.42590 0.85920 0.72320 -0.01100
H 	H 	0.40900 0.91990 0.67170 -0.02000
H 	H 	0.57950 0.94930 0.21310 -0.03000
H 	H 	0.60060 0.89560 0.42650 0.01300
H 	H 	0.41570 0.82440 0.36160 0.02200
H 	H 	0.39140 0.89110 0.39750 0.01500
H 	H 	0.46520 0.72130 0.38380 0.27100
H 	H 	0.55230 0.70450 0.41660 0.26900
H 	H 	0.53950 0.76730 0.36790 0.26100
H 	H 	0.58800 0.67620 0.51840 0.00400
H 	H 	0.57100 0.67600 0.60810 0.01300
H 	H 	0.37870 0.95170 0.57150 0.27400
H 	H 	0.38710 0.94540 0.48130 0.28800
H 	H 	0.46090 0.97100 0.53060 0.27500
H 	H 	0.52720 0.79160 0.73350 0.29000
H 	H 	0.55520 0.72660 0.69600 0.29600
H 	H 	0.46270 0.73730 0.71720 0.27100
H 	H 	0.38100 0.68280 0.50890 -0.00400
H 	H 	0.41210 0.50060 0.53870 -0.02000
H 	H 	0.89980 0.92320 0.62220 0.01000
H 	H 	0.87620 0.98590 0.83360 -0.00100
H 	H 	0.07410 0.85920 0.72320 -0.01000
H 	H 	0.09100 0.91990 0.67170 -0.01900
H 	H 	0.92050 0.94930 0.21310 -0.03100
H 	H 	0.89940 0.89560 0.42650 0.01300
H 	H 	0.08430 0.82440 0.36160 0.02300
H 	H 	0.10860 0.89110 0.39750 0.01600
H 	H 	0.03480 0.72130 0.38380 0.26600
H 	H 	0.94770 0.70450 0.41660 0.26600
H 	H 	0.96050 0.76730 0.36790 0.25700
H 	H 	0.91200 0.67620 0.51840 0.00500
H 	H 	0.92900 0.67600 0.60810 0.01400
H 	H 	0.12130 0.95170 0.57150 0.27200
H 	H 	0.11290 0.94540 0.48130 0.28600
H 	H 	0.03910 0.97100 0.53060 0.27300
H 	H 	0.97280 0.79160 0.73350 0.28700
H 	H 	0.94480 0.72660 0.69600 0.29300
H 	H 	0.03730 0.73730 0.71720 0.26900
H 	H 	0.11900 0.68280 0.50890 -0.00400
H 	H 	0.08790 0.50060 0.53870 -0.02000
H 	H 	0.39980 0.07680 0.37780 0.01000
H 	H 	0.37620 0.01410 0.16640 -0.00100
H 	H 	0.57410 0.14080 0.27680 -0.01100
H 	H 	0.59100 0.08010 0.32830 -0.02000
H 	H 	0.42050 0.05070 0.78690 -0.03000
H 	H 	0.39940 0.10440 0.57350 0.01300
H 	H 	0.58430 0.17560 0.63840 0.02200
H 	H 	0.60860 0.10890 0.60250 0.01500
H 	H 	0.53480 0.27870 0.61620 0.27100
H 	H 	0.44770 0.29550 0.58340 0.26900
H 	H 	0.46050 0.23270 0.63210 0.26100
H 	H 	0.41200 0.32380 0.48160 0.00400
H 	H 	0.42900 0.32400 0.39190 0.01300
H 	H 	0.62130 0.04830 0.42850 0.27400
H 	H 	0.61290 0.05460 0.51870 0.28800
H 	H 	0.53910 0.02900 0.46940 0.27500
H 	H 	0.47280 0.20840 0.26650 0.29000
H 	H 	0.44480 0.27340 0.30400 0.29600
H 	H 	0.53730 0.26270 0.28280 0.27100
H 	H 	0.61900 0.31720 0.49110 -0.00400
H 	H 	0.58790 0.49940 0.46130 -0.02000
H 	H 	0.75000 0.36460 0.77050 -0.01700
H 	H 	0.75000 0.30180 0.87880 0.10100
H 	H 	0.75000 0.19190 0.86950 0.01800
H 	H 	0.75000 0.20620 0.63830 0.03800
H 	H 	0.75000 0.55050 0.51640 0.22600
H 	H 	0.25000 0.63540 0.22950 -0.01700
H 	H 	0.25000 0.69820 0.12120 0.10100
H 	H 	0.25000 0.80810 0.13050 0.01800
H 	H 	0.25000 0.79380 0.36170 0.03800
H 	H 	0.25000 0.44950 0.48360 0.22600
C 	C 	0.09090 0.06700 0.32590 0.08600
C 	C 	0.10230 0.03360 0.21050 0.10700
C 	C 	0.94900 0.11310 0.31650 0.07100
C 	C 	0.06680 0.06790 0.73860 0.08800
C 	C 	0.08040 0.09650 0.62310 0.06000
C 	C 	0.93560 0.13980 0.60770 0.03400
C 	C 	0.96100 0.16380 0.52740 -0.25000
C 	C 	0.94680 0.12600 0.46070 0.34000
C 	C 	0.96560 0.15200 0.38820 -0.27300
C 	C 	0.99660 0.21490 0.38070 0.35200
C 	C 	0.01200 0.25050 0.44790 -0.26400
C 	C 	0.99540 0.22450 0.52110 0.33300
C 	C 	0.01490 0.26130 0.59500 -0.81100
C 	C 	0.04610 0.31760 0.44240 0.05800
C 	C 	0.91550 0.05830 0.47020 -0.84000
C 	C 	0.01180 0.24230 0.30130 -0.86500
C 	C 	0.90450 0.35670 0.47910 0.08800
C 	C 	0.92170 0.45530 0.46250 0.08300
C 	C 	0.59090 0.93300 0.67410 0.08600
C 	C 	0.60230 0.96640 0.78950 0.10700
C 	C 	0.44900 0.88690 0.68350 0.07400
C 	C 	0.56680 0.93210 0.26140 0.08600
C 	C 	0.58040 0.90350 0.37690 0.06000
C 	C 	0.43560 0.86020 0.39230 0.03800
C 	C 	0.46100 0.83620 0.47260 -0.25400
C 	C 	0.44680 0.87400 0.53930 0.34400
C 	C 	0.46560 0.84800 0.61180 -0.27700
C 	C 	0.49660 0.78510 0.61930 0.35800
C 	C 	0.51200 0.74950 0.55210 -0.27000
C 	C 	0.49540 0.77550 0.47890 0.34100
C 	C 	0.51490 0.73870 0.40500 -0.82300
C 	C 	0.54610 0.68240 0.55760 0.06100
C 	C 	0.41550 0.94170 0.52980 -0.84500
C 	C 	0.51180 0.75770 0.69870 -0.87300
C 	C 	0.40450 0.64330 0.52090 0.08800
C 	C 	0.42170 0.54470 0.53750 0.08300
C 	C 	0.90910 0.93300 0.67410 0.08600
C 	C 	0.89770 0.96640 0.78950 0.10700
C 	C 	0.05100 0.88690 0.68350 0.07100
C 	C 	0.93320 0.93210 0.26140 0.08800
C 	C 	0.91960 0.90350 0.37690 0.06000
C 	C 	0.06440 0.86020 0.39230 0.03400
C 	C 	0.03900 0.83620 0.47260 -0.25000
C 	C 	0.05320 0.87400 0.53930 0.34000
C 	C 	0.03440 0.84800 0.61180 -0.27300
C 	C 	0.00340 0.78510 0.61930 0.35200
C 	C 	0.98800 0.74950 0.55210 -0.26400
C 	C 	0.00460 0.77550 0.47890 0.33300
C 	C 	0.98510 0.73870 0.40500 -0.81100
C 	C 	0.95390 0.68240 0.55760 0.05800
C 	C 	0.08450 0.94170 0.52980 -0.84000
C 	C 	0.98820 0.75770 0.69870 -0.86500
C 	C 	0.09550 0.64330 0.52090 0.08800
C 	C 	0.07830 0.54470 0.53750 0.08300
C 	C 	0.40910 0.06700 0.32590 0.08600
C 	C 	0.39770 0.03360 0.21050 0.10700
C 	C 	0.55100 0.11310 0.31650 0.07400
C 	C 	0.43320 0.06790 0.73860 0.08600
C 	C 	0.41960 0.09650 0.62310 0.06000
C 	C 	0.56440 0.13980 0.60770 0.03800
C 	C 	0.53900 0.16380 0.52740 -0.25400
C 	C 	0.55320 0.12600 0.46070 0.34400
C 	C 	0.53440 0.15200 0.38820 -0.27700
C 	C 	0.50340 0.21490 0.38070 0.35800
C 	C 	0.48800 0.25050 0.44790 -0.27000
C 	C 	0.50460 0.22450 0.52110 0.34100
C 	C 	0.48510 0.26130 0.59500 -0.82300
C 	C 	0.45390 0.31760 0.44240 0.06100
C 	C 	0.58450 0.05830 0.47020 -0.84500
C 	C 	0.48820 0.24230 0.30130 -0.87300
C 	C 	0.59550 0.35670 0.47910 0.08800
C 	C 	0.57830 0.45530 0.46250 0.08300
C 	C 	0.75000 0.33330 0.61940 0.33000
C 	C 	0.75000 0.29320 0.69210 -0.14100
C 	C 	0.75000 0.32010 0.76530 0.08500
C 	C 	0.75000 0.28250 0.83020 -0.16300
C 	C 	0.75000 0.21670 0.82470 0.05900
C 	C 	0.75000 0.18770 0.75370 -0.13100
C 	C 	0.75000 0.22570 0.68690 0.04500
C 	C 	0.75000 0.11680 0.74540 0.32300
C 	C 	0.25000 0.66670 0.38060 0.33000
C 	C 	0.25000 0.70680 0.30790 -0.14100
C 	C 	0.25000 0.67990 0.23470 0.08500
C 	C 	0.25000 0.71750 0.16980 -0.16300
C 	C 	0.25000 0.78330 0.17530 0.05900
C 	C 	0.25000 0.81230 0.24630 -0.13100
C 	C 	0.25000 0.77430 0.31310 0.04500
C 	C 	0.25000 0.88320 0.25460 0.32300
S 	S 	0.75000 0.92748 0.51588 0.73100
S 	S 	0.25000 0.07252 0.48412 0.73100
N 	N 	0.14230 0.03510 0.28010 -0.27300
N 	N 	0.03120 0.06200 0.21180 -0.10900
N 	N 	0.02480 0.08260 0.28620 -0.11000
N 	N 	0.99460 0.09130 0.72270 -0.10700
N 	N 	0.12180 0.07030 0.68020 -0.29600
N 	N 	0.00520 0.10970 0.64730 -0.10600
N 	N 	0.86610 0.41270 0.48540 -0.29000
N 	N 	0.99280 0.42850 0.44150 -0.09600
N 	N 	0.97980 0.36420 0.45390 -0.11000
N 	N 	0.64230 0.96490 0.71990 -0.27300
N 	N 	0.53120 0.93800 0.78820 -0.10900
N 	N 	0.52480 0.91740 0.71380 -0.11100
N 	N 	0.49460 0.90870 0.27730 -0.10400
N 	N 	0.62180 0.92970 0.31980 -0.29500
N 	N 	0.50520 0.89030 0.35270 -0.10800
N 	N 	0.36610 0.58730 0.51460 -0.29000
N 	N 	0.49280 0.57150 0.55850 -0.09600
N 	N 	0.47980 0.63580 0.54610 -0.11000
N 	N 	0.85770 0.96490 0.71990 -0.27300
N 	N 	0.96880 0.93800 0.78820 -0.10900
N 	N 	0.97520 0.91740 0.71380 -0.11000
N 	N 	0.00540 0.90870 0.27730 -0.10700
N 	N 	0.87820 0.92970 0.31980 -0.29600
N 	N 	0.99480 0.89030 0.35270 -0.10600
N 	N 	0.13390 0.58730 0.51460 -0.29000
N 	N 	0.00720 0.57150 0.55850 -0.09600
N 	N 	0.02020 0.63580 0.54610 -0.11000
N 	N 	0.35770 0.03510 0.28010 -0.27300
N 	N 	0.46880 0.06200 0.21180 -0.10900
N 	N 	0.47520 0.08260 0.28620 -0.11100
N 	N 	0.50540 0.09130 0.72270 -0.10400
N 	N 	0.37820 0.07030 0.68020 -0.29500
N 	N 	0.49480 0.10970 0.64730 -0.10800
N 	N 	0.63390 0.41270 0.48540 -0.29000
N 	N 	0.50720 0.42850 0.44150 -0.09600
N 	N 	0.52020 0.36420 0.45390 -0.11000
O 	O 	0.82360 0.88880 0.52730 -0.34200
O 	O 	0.32360 0.11120 0.47270 -0.34200
O 	O 	0.17640 0.11120 0.47270 -0.34200
O 	O 	0.67640 0.88880 0.52730 -0.34200
O 	O 	0.75000 0.95690 0.43740 -0.52400
O 	O 	0.75000 0.98200 0.57180 -0.50500
O 	O 	0.75000 0.08050 0.80270 -0.31400
O 	O 	0.75000 0.09470 0.67630 -0.44800
O 	O 	0.75000 0.30620 0.55550 -0.34400
O 	O 	0.75000 0.39400 0.62760 -0.43800
O 	O 	0.75000 0.52670 0.55430 -0.52700
O 	O 	0.25000 0.04310 0.56260 -0.52400
O 	O 	0.25000 0.01800 0.42820 -0.50500
O 	O 	0.25000 0.91950 0.19730 -0.31400
O 	O 	0.25000 0.90530 0.32370 -0.44800
O 	O 	0.25000 0.69380 0.44450 -0.34400
O 	O 	0.25000 0.60600 0.37240 -0.43800
O 	O 	0.25000 0.47330 0.44570 -0.52700
Zn	Zn	0.25000 0.56052 0.82129 1.13600
Zn	Zn	0.25000 0.49942 0.18384 1.21100
Zn	Zn	0.25000 0.06587 0.01889 1.18700
Zn	Zn	0.75000 0.43948 0.17871 1.13600
Zn	Zn	0.75000 0.50058 0.81616 1.21100
Zn	Zn	0.75000 0.93413 0.98111 1.18700
H 	H 	0.89980 0.42320 0.87780 0.00900
H 	H 	0.87620 0.48590 0.66640 -0.00000
H 	H 	0.07410 0.35920 0.77680 -0.01100
H 	H 	0.09100 0.41990 0.82830 -0.02000
H 	H 	0.92050 0.44930 0.28690 -0.03100
H 	H 	0.89940 0.39560 0.07350 0.01300
H 	H 	0.08430 0.32440 0.13840 0.02200
H 	H 	0.10860 0.39110 0.10250 0.01400
H 	H 	0.03480 0.22130 0.11620 0.27100
H 	H 	0.94770 0.20450 0.08340 0.26900
H 	H 	0.96050 0.26730 0.13210 0.26100
H 	H 	0.91200 0.17620 0.98160 0.00400
H 	H 	0.92900 0.17600 0.89190 0.01200
H 	H 	0.12130 0.45170 0.92850 0.27400
H 	H 	0.11290 0.44540 0.01870 0.28700
H 	H 	0.03910 0.47100 0.96940 0.27500
H 	H 	0.97280 0.29160 0.76650 0.29500
H 	H 	0.94480 0.22660 0.80400 0.30100
H 	H 	0.03730 0.23730 0.78280 0.27800
H 	H 	0.11900 0.18280 0.99110 -0.00300
H 	H 	0.08790 0.00060 0.96130 -0.01900
H 	H 	0.39980 0.57680 0.12220 0.01000
H 	H 	0.37620 0.51410 0.33360 -0.00000
H 	H 	0.57410 0.64080 0.22320 -0.01000
H 	H 	0.59100 0.58010 0.17170 -0.01900
H 	H 	0.42050 0.55070 0.71310 -0.03100
H 	H 	0.39940 0.60440 0.92650 0.01300
H 	H 	0.58430 0.67560 0.86160 0.02200
H 	H 	0.60860 0.60890 0.89750 0.01500
H 	H 	0.53480 0.77870 0.88380 0.26900
H 	H 	0.44770 0.79550 0.91660 0.26800
H 	H 	0.46050 0.73270 0.86790 0.25900
H 	H 	0.41200 0.82380 0.01840 0.00500
H 	H 	0.42900 0.82400 0.10810 0.01300
H 	H 	0.62130 0.54830 0.07150 0.27300
H 	H 	0.61290 0.55460 0.98130 0.28700
H 	H 	0.53910 0.52900 0.03060 0.27500
H 	H 	0.47280 0.70840 0.23350 0.28900
H 	H 	0.44480 0.77340 0.19600 0.29500
H 	H 	0.53730 0.76270 0.21720 0.27100
H 	H 	0.61900 0.81720 0.00890 -0.00300
H 	H 	0.58790 0.99940 0.03870 -0.01900
H 	H 	0.10020 0.57680 0.12220 0.00900
H 	H 	0.12380 0.51410 0.33360 -0.00000
H 	H 	0.92590 0.64080 0.22320 -0.01100
H 	H 	0.90900 0.58010 0.17170 -0.02000
H 	H 	0.07950 0.55070 0.71310 -0.03100
H 	H 	0.10060 0.60440 0.92650 0.01300
H 	H 	0.91570 0.67560 0.86160 0.02200
H 	H 	0.89140 0.60890 0.89750 0.01400
H 	H 	0.96520 0.77870 0.88380 0.27100
H 	H 	0.05230 0.79550 0.91660 0.26900
H 	H 	0.03950 0.73270 0.86790 0.26100
H 	H 	0.08800 0.82380 0.01840 0.00400
H 	H 	0.07100 0.82400 0.10810 0.01200
H 	H 	0.87870 0.54830 0.07150 0.27400
H 	H 	0.88710 0.55460 0.98130 0.28700
H 	H 	0.96090 0.52900 0.03060 0.27500
H 	H 	0.02720 0.70840 0.23350 0.29500
H 	H 	0.05520 0.77340 0.19600 0.30100
H 	H 	0.96270 0.76270 0.21720 0.27800
H 	H 	0.88100 0.81720 0.00890 -0.00300
H 	H 	0.91210 0.99940 0.03870 -0.01900
H 	H 	0.60020 0.42320 0.87780 0.01000
H 	H 	0.62380 0.48590 0.66640 -0.00000
H 	H 	0.42590 0.35920 0.77680 -0.01000
H 	H 	0.40900 0.41990 0.82830 -0.01900
H 	H 	0.57950 0.44930 0.28690 -0.03100
H 	H 	0.60060 0.39560 0.07350 0.01300
H 	H 	0.41570 0.32440 0.13840 0.02200
H 	H 	0.39140 0.39110 0.10250 0.01500
H 	H 	0.46520 0.22130 0.11620 0.26900
H 	H 	0.55230 0.20450 0.08340 0.26800
H 	H 	0.53950 0.26730 0.13210 0.25900
H 	H 	0.58800 0.17620 0.98160 0.00500
H 	H 	0.57100 0.17600 0.89190 0.01300
H 	H 	0.37870 0.45170 0.92850 0.27300
H 	H 	0.38710 0.44540 0.01870 0.28700
H 	H 	0.46090 0.47100 0.96940 0.27500
H 	H 	0.52720 0.29160 0.76650 0.28900
H 	H 	0.55520 0.22660 0.80400 0.29500
H 	H 	0.46270 0.23730 0.78280 0.27100
H 	H 	0.38100 0.18280 0.99110 -0.00300
H 	H 	0.41210 0.00060 0.96130 -0.01900
H 	H 	0.25000 0.13540 0.27050 -0.01700
H 	H 	0.25000 0.19820 0.37880 0.10100
H 	H 	0.25000 0.30810 0.36950 0.01800
H 	H 	0.25000 0.29380 0.13830 0.03800
H 	H 	0.25000 0.94950 0.01640 0.22600
H 	H 	0.75000 0.86460 0.72950 -0.01700
H 	H 	0.75000 0.80180 0.62120 0.10100
H 	H 	0.75000 0.69190 0.63050 0.01800
H 	H 	0.75000 0.70620 0.86170 0.03800
H 	H 	0.75000 0.05050 0.98360 0.22600
C 	C 	0.90910 0.43300 0.82590 0.08600
C 	C 	0.89770 0.46640 0.71050 0.10700
C 	C 	0.05100 0.38690 0.81650 0.07700
C 	C 	0.93320 0.43210 0.23860 0.08600
C 	C 	0.91960 0.40350 0.12310 0.06000
C 	C 	0.06440 0.36020 0.10770 0.03900
C 	C 	0.03900 0.33620 0.02740 -0.25700
C 	C 	0.05320 0.37400 0.96070 0.34800
C 	C 	0.03440 0.34800 0.88820 -0.28100
C 	C 	0.00340 0.28510 0.88070 0.36700
C 	C 	0.98800 0.24950 0.94790 -0.27500
C 	C 	0.00460 0.27550 0.02110 0.34200
C 	C 	0.98510 0.23870 0.09500 -0.82500
C 	C 	0.95390 0.18240 0.94240 0.06200
C 	C 	0.08450 0.44170 0.97020 -0.84500
C 	C 	0.98820 0.25770 0.80130 -0.89100
C 	C 	0.09550 0.14330 0.97910 0.08900
C 	C 	0.07830 0.04470 0.96250 0.08300
C 	C 	0.40910 0.56700 0.17410 0.08600
C 	C 	0.39770 0.53360 0.28950 0.10700
C 	C 	0.55100 0.61310 0.18350 0.07400
C 	C 	0.43320 0.56790 0.76140 0.08600
C 	C 	0.41960 0.59650 0.87690 0.06000
C 	C 	0.56440 0.63980 0.89230 0.03700
C 	C 	0.53900 0.66380 0.97260 -0.25300
C 	C 	0.55320 0.62600 0.03930 0.34400
C 	C 	0.53440 0.65200 0.11180 -0.27600
C 	C 	0.50340 0.71490 0.11930 0.35700
C 	C 	0.48800 0.75050 0.05210 -0.26700
C 	C 	0.50460 0.72450 0.97890 0.33700
C 	C 	0.48510 0.76130 0.90500 -0.81900
C 	C 	0.45390 0.81760 0.05760 0.06000
C 	C 	0.58450 0.55830 0.02980 -0.84300
C 	C 	0.48820 0.74230 0.19870 -0.87200
C 	C 	0.59550 0.85670 0.02090 0.08800
C 	C 	0.57830 0.95530 0.03750 0.08300
C 	C 	0.09090 0.56700 0.17410 0.08600
C 	C 	0.10230 0.53360 0.28950 0.10700
C 	C 	0.94900 0.61310 0.18350 0.07700
C 	C 	0.06680 0.56790 0.76140 0.08600
C 	C 	0.08040 0.59650 0.87690 0.06000
C 	C 	0.93560 0.63980 0.89230 0.03900
C 	C 	0.96100 0.66380 0.97260 -0.25700
C 	C 	0.94680 0.62600 0.03930 0.34800
C 	C 	0.96560 0.65200 0.11180 -0.28100
C 	C 	0.99660 0.71490 0.11930 0.36700
C 	C 	0.01200 0.75050 0.05210 -0.27500
C 	C 	0.99540 0.72450 0.97890 0.34200
C 	C 	0.01490 0.76130 0.90500 -0.82500
C 	C 	0.04610 0.81760 0.05760 0.06200
C 	C 	0.91550 0.55830 0.02980 -0.84500
C 	C 	0.01180 0.74230 0.19870 -0.89100
C 	C 	0.90450 0.85670 0.02090 0.08900
C 	C 	0.92170 0.95530 0.03750 0.08300
C 	C 	0.59090 0.43300 0.82590 0.08600
C 	C 	0.60230 0.46640 0.71050 0.10700
C 	C 	0.44900 0.38690 0.81650 0.07400
C 	C 	0.56680 0.43210 0.23860 0.08600
C 	C 	0.58040 0.40350 0.12310 0.06000
C 	C 	0.43560 0.36020 0.10770 0.03700
C 	C 	0.46100 0.33620 0.02740 -0.25300
C 	C 	0.44680 0.37400 0.96070 0.34400
C 	C 	0.46560 0.34800 0.88820 -0.27600
C 	C 	0.49660 0.28510 0.88070 0.35700
C 	C 	0.51200 0.24950 0.94790 -0.26700
C 	C 	0.49540 0.27550 0.02110 0.33700
C 	C 	0.51490 0.23870 0.09500 -0.81900
C 	C 	0.54610 0.18240 0.94240 0.06000
C 	C 	0.41550 0.44170 0.97020 -0.84300
C 	C 	0.51180 0.25770 0.80130 -0.87200
C 	C 	0.40450 0.14330 0.97910 0.08800
C 	C 	0.42170 0.04470 0.96250 0.08300
C 	C 	0.25000 0.16670 0.11940 0.33000
C 	C 	0.25000 0.20680 0.19210 -0.14100
C 	C 	0.25000 0.17990 0.26530 0.08500
C 	C 	0.25000 0.21750 0.33020 -0.16300
C 	C 	0.25000 0.28330 0.32470 0.06000
C 	C 	0.25000 0.31230 0.25370 -0.13100
C 	C 	0.25000 0.27430 0.18690 0.04600
C 	C 	0.25000 0.38320 0.24540 0.32300
C 	C 	0.75000 0.83330 0.88060 0.33000
C 	C 	0.75000 0.79320 0.80790 -0.14100
C 	C 	0.75000 0.82010 0.73470 0.08500
C 	C 	0.75000 0.78250 0.66980 -0.16300
C 	C 	0.75000 0.71670 0.67530 0.06000
C 	C 	0.75000 0.68770 0.74630 -0.13100
C 	C 	0.75000 0.72570 0.81310 0.04600
C 	C 	0.75000 0.61680 0.75460 0.32300
S 	S 	0.25000 0.57252 0.01588 0.73100
S 	S 	0.75000 0.42748 0.98412 0.73100
N 	N 	0.85770 0.46490 0.78010 -0.27300
N 	N 	0.96880 0.43800 0.71180 -0.10900
N 	N 	0.97520 0.41740 0.78620 -0.11200
N 	N 	0.00540 0.40870 0.22270 -0.10500
N 	N 	0.87820 0.42970 0.18020 -0.29600
N 	N 	0.99480 0.39030 0.14730 -0.10800
N 	N 	0.13390 0.08730 0.98540 -0.28900
N 	N 	0.00720 0.07150 0.94150 -0.09600
N 	N 	0.02020 0.13580 0.95390 -0.11000
N 	N 	0.35770 0.53510 0.21990 -0.27300
N 	N 	0.46880 0.56200 0.28820 -0.10800
N 	N 	0.47520 0.58260 0.21380 -0.11000
N 	N 	0.50540 0.59130 0.77730 -0.10400
N 	N 	0.37820 0.57030 0.81980 -0.29600
N 	N 	0.49480 0.60970 0.85270 -0.10800
N 	N 	0.63390 0.91270 0.01460 -0.28900
N 	N 	0.50720 0.92850 0.05850 -0.09600
N 	N 	0.52020 0.86420 0.04610 -0.11000
N 	N 	0.14230 0.53510 0.21990 -0.27300
N 	N 	0.03120 0.56200 0.28820 -0.10900
N 	N 	0.02480 0.58260 0.21380 -0.11200
N 	N 	0.99460 0.59130 0.77730 -0.10500
N 	N 	0.12180 0.57030 0.81980 -0.29600
N 	N 	0.00520 0.60970 0.85270 -0.10800
N 	N 	0.86610 0.91270 0.01460 -0.28900
N 	N 	0.99280 0.92850 0.05850 -0.09600
N 	N 	0.97980 0.86420 0.04610 -0.11000
N 	N 	0.64230 0.46490 0.78010 -0.27300
N 	N 	0.53120 0.43800 0.71180 -0.10800
N 	N 	0.52480 0.41740 0.78620 -0.11000
N 	N 	0.49460 0.40870 0.22270 -0.10400
N 	N 	0.62180 0.42970 0.18020 -0.29600
N 	N 	0.50520 0.39030 0.14730 -0.10800
N 	N 	0.36610 0.08730 0.98540 -0.28900
N 	N 	0.49280 0.07150 0.94150 -0.09600
N 	N 	0.47980 0.13580 0.95390 -0.11000
O 	O 	0.17640 0.61120 0.02730 -0.34200
O 	O 	0.67640 0.38880 0.97270 -0.34200
O 	O 	0.82360 0.38880 0.97270 -0.34200
O 	O 	0.32360 0.61120 0.02730 -0.34200
O 	O 	0.25000 0.54310 0.93740 -0.52500
O 	O 	0.25000 0.51800 0.07180 -0.50600
O 	O 	0.25000 0.41950 0.30270 -0.31400
O 	O 	0.25000 0.40530 0.17630 -0.44800
O 	O 	0.25000 0.19380 0.05550 -0.34600
O 	O 	0.25000 0.10600 0.12760 -0.43900
O 	O 	0.25000 0.97330 0.05430 -0.52600
O 	O 	0.75000 0.45690 0.06260 -0.52500
O 	O 	0.75000 0.48200 0.92820 -0.50600
O 	O 	0.75000 0.58050 0.69730 -0.31400
O 	O 	0.75000 0.59470 0.82370 -0.44800
O 	O 	0.75000 0.80620 0.94450 -0.34600
O 	O 	0.75000 0.89400 0.87240 -0.43900
O 	O 	0.75000 0.02670 0.94570 -0.52600
