data_crystal

_cell_length_a 8.91930
_cell_length_b 12.12680
_cell_length_c 16.73410
_cell_angle_alpha 90.00000
_cell_angle_beta  90.00000
_cell_angle_gamma 109.18400

_symmetry_space_group_name_	'P 1'
_symmetry_space_group_name_H-M	'P 1'

loop_
_symmetry_equiv_pos_as_xyz
  x,y,z

loop_
_atom_site_label
_atom_site_type_symbol
_atom_site_fract_x
_atom_site_fract_y
_atom_site_fract_z
_atom_site_charge
Pr	Pr	0.93168 0.95175 0.38329 2.06900
Pr	Pr	0.43168 0.95175 0.11671 2.07100
Pr	Pr	0.56832 0.04825 0.88329 2.07100
Pr	Pr	0.06832 0.04825 0.61671 2.06900
H 	H 	0.31870 0.64330 0.10110 0.09300
H 	H 	0.90230 0.34910 0.69230 0.10700
H 	H 	0.41260 0.72300 0.32170 0.13600
H 	H 	0.81870 0.64330 0.39890 0.09300
H 	H 	0.40230 0.34910 0.80770 0.10700
H 	H 	0.50970 0.66430 0.92690 0.05900
H 	H 	0.52890 0.71730 0.56880 0.12800
H 	H 	0.20440 0.50470 0.41450 0.07800
H 	H 	0.09250 0.52650 0.72430 0.06200
H 	H 	0.47110 0.28270 0.43120 0.12800
H 	H 	0.02890 0.71730 0.93120 0.13100
H 	H 	0.82660 0.81610 0.16630 0.13400
H 	H 	0.59770 0.65090 0.19230 0.10700
H 	H 	0.88090 0.36400 0.03520 0.12800
H 	H 	0.32660 0.81610 0.33370 0.13300
H 	H 	0.87620 0.85980 0.98940 0.10700
H 	H 	0.70440 0.50470 0.08550 0.07800
H 	H 	0.79560 0.49530 0.58550 0.07800
H 	H 	0.74240 0.79470 0.92890 0.08800
H 	H 	0.90750 0.47350 0.27570 0.06200
H 	H 	0.08740 0.27700 0.82170 0.13700
H 	H 	0.58740 0.27700 0.67830 0.13600
H 	H 	0.37260 0.53250 0.56830 0.05200
H 	H 	0.09770 0.65090 0.30770 0.10700
H 	H 	0.25760 0.20530 0.07110 0.08800
H 	H 	0.99030 0.33570 0.42690 0.06000
H 	H 	0.59250 0.52650 0.77570 0.06000
H 	H 	0.75760 0.20530 0.42890 0.09500
H 	H 	0.49030 0.33570 0.07310 0.05900
H 	H 	0.12380 0.14020 0.01060 0.10700
H 	H 	0.24240 0.79470 0.57110 0.09500
H 	H 	0.87260 0.53250 0.93170 0.05200
H 	H 	0.91260 0.72300 0.17830 0.13700
H 	H 	0.11910 0.63600 0.96480 0.12800
H 	H 	0.40750 0.47350 0.22430 0.06000
H 	H 	0.62380 0.14020 0.48940 0.11200
H 	H 	0.37620 0.85980 0.51060 0.11200
H 	H 	0.62740 0.46750 0.43170 0.05200
H 	H 	0.29560 0.49530 0.91450 0.07800
H 	H 	0.97110 0.28270 0.06880 0.13100
H 	H 	0.00970 0.66430 0.57310 0.06000
H 	H 	0.68130 0.35670 0.89890 0.09300
H 	H 	0.18130 0.35670 0.60110 0.09300
H 	H 	0.17340 0.18390 0.83370 0.13400
H 	H 	0.67340 0.18390 0.66630 0.13300
H 	H 	0.12740 0.46750 0.06830 0.05200
H 	H 	0.38090 0.36400 0.46480 0.12700
H 	H 	0.61910 0.63600 0.53520 0.12700
C 	C 	0.63040 0.60150 0.00718 0.13500
C 	C 	0.26790 0.80110 0.94105 0.48300
C 	C 	0.62030 0.50450 0.38383 -0.04500
C 	C 	0.26930 0.80490 0.51490 -0.24000
C 	C 	0.87630 0.30450 0.07469 -0.27100
C 	C 	0.65660 0.85570 0.02612 0.40500
C 	C 	0.39690 0.38560 0.75941 -0.15100
C 	C 	0.87970 0.49550 0.88383 -0.04400
C 	C 	0.27600 0.33560 0.70635 0.18900
C 	C 	0.12030 0.50450 0.11617 -0.04400
C 	C 	0.50640 0.59840 0.95623 -0.08100
C 	C 	0.62370 0.69550 0.57469 -0.26800
C 	C 	0.77600 0.33560 0.79365 0.18800
C 	C 	0.36960 0.39850 0.99282 0.13500
C 	C 	0.98900 0.50850 0.23989 -0.04700
C 	C 	0.49360 0.40160 0.04377 -0.08100
C 	C 	0.01100 0.49150 0.76011 -0.04700
C 	C 	0.23210 0.19890 0.44105 0.47700
C 	C 	0.73460 0.60970 0.36420 -0.15500
C 	C 	0.90010 0.79360 0.20003 -0.27700
C 	C 	0.37630 0.30450 0.42531 -0.26800
C 	C 	0.00640 0.59840 0.54377 -0.08200
C 	C 	0.99570 0.45480 0.16795 0.09500
C 	C 	0.37790 0.49710 0.94917 -0.09700
C 	C 	0.87790 0.49710 0.55083 -0.09800
C 	C 	0.76790 0.80110 0.55895 0.47700
C 	C 	0.37970 0.49550 0.61617 -0.04500
C 	C 	0.23460 0.60970 0.13580 -0.15400
C 	C 	0.89690 0.38560 0.74059 -0.14700
C 	C 	0.09990 0.20640 0.79997 -0.27700
C 	C 	0.23070 0.19510 0.01490 -0.22000
C 	C 	0.59990 0.20640 0.70003 -0.26700
C 	C 	0.48900 0.50850 0.26011 -0.04300
C 	C 	0.60310 0.61440 0.24059 -0.15100
C 	C 	0.40010 0.79360 0.29997 -0.26700
C 	C 	0.99360 0.40160 0.45623 -0.08200
C 	C 	0.26540 0.39030 0.63580 -0.15500
C 	C 	0.10310 0.61440 0.25941 -0.14700
C 	C 	0.34340 0.14430 0.97388 0.40500
C 	C 	0.22400 0.66440 0.20635 0.18800
C 	C 	0.84340 0.14430 0.52612 0.42400
C 	C 	0.51100 0.49150 0.73989 -0.04300
C 	C 	0.73210 0.19890 0.05895 0.48300
C 	C 	0.13040 0.60150 0.49282 0.13600
C 	C 	0.15660 0.85570 0.47388 0.42400
C 	C 	0.05780 0.88960 0.20185 0.45700
C 	C 	0.73070 0.19510 0.48510 -0.24000
C 	C 	0.50430 0.54520 0.66795 0.09500
C 	C 	0.62210 0.50290 0.05083 -0.09700
C 	C 	0.86960 0.39850 0.50718 0.13600
C 	C 	0.12210 0.50290 0.44917 -0.09800
C 	C 	0.55780 0.88960 0.29815 0.44900
C 	C 	0.12370 0.69550 0.92531 -0.27100
C 	C 	0.76930 0.80490 0.98510 -0.22000
C 	C 	0.44220 0.11040 0.70185 0.44900
C 	C 	0.76540 0.39030 0.86420 -0.15400
C 	C 	0.94220 0.11040 0.79815 0.45700
C 	C 	0.72400 0.66440 0.29365 0.18900
C 	C 	0.49570 0.45480 0.33205 0.09500
C 	C 	0.00430 0.54520 0.83205 0.09500
O 	O 	0.09670 0.81797 0.40835 -0.44200
O 	O 	0.79920 0.81756 0.48638 -0.52000
O 	O 	0.63140 0.94156 0.99269 -0.59300
O 	O 	0.90870 0.04627 0.73718 -0.50100
O 	O 	0.83930 0.77292 0.27998 -0.30200
O 	O 	0.29920 0.81756 0.01362 -0.52300
O 	O 	0.16000 0.13656 0.38417 -0.49800
O 	O 	0.90330 0.18203 0.59165 -0.44200
O 	O 	0.66000 0.13656 0.11583 -0.49500
O 	O 	0.76640 0.69598 0.01749 -0.17500
O 	O 	0.37450 0.35139 0.34777 -0.14600
O 	O 	0.33930 0.77292 0.22002 -0.30100
O 	O 	0.34000 0.86344 0.88417 -0.49500
O 	O 	0.40330 0.18203 0.90835 -0.44100
O 	O 	0.09130 0.95373 0.26282 -0.50100
O 	O 	0.36860 0.05844 0.00731 -0.59300
O 	O 	0.62550 0.64861 0.65223 -0.14600
O 	O 	0.13140 0.94156 0.50731 -0.59800
O 	O 	0.66070 0.22708 0.77998 -0.30100
O 	O 	0.35600 0.09990 0.64227 -0.49500
O 	O 	0.85600 0.09990 0.85773 -0.49500
O 	O 	0.86860 0.05844 0.49269 -0.59800
O 	O 	0.59670 0.81797 0.09165 -0.44100
O 	O 	0.23360 0.30402 0.98251 -0.17500
O 	O 	0.12550 0.64861 0.84777 -0.14500
O 	O 	0.84000 0.86344 0.61583 -0.49800
O 	O 	0.26640 0.69598 0.48251 -0.16700
O 	O 	0.20080 0.18244 0.51362 -0.52000
O 	O 	0.73360 0.30402 0.51749 -0.16700
O 	O 	0.64400 0.90010 0.35773 -0.49500
O 	O 	0.70080 0.18244 0.98638 -0.52300
O 	O 	0.87450 0.35139 0.15223 -0.14500
O 	O 	0.14400 0.90010 0.14227 -0.49500
O 	O 	0.59130 0.95373 0.23718 -0.50600
O 	O 	0.40870 0.04627 0.76282 -0.50600
O 	O 	0.16070 0.22708 0.72002 -0.30200
