data_crystal

_cell_length_a 13.59770
_cell_length_b 13.59770
_cell_length_c 13.59770
_cell_angle_alpha 101.96500
_cell_angle_beta  101.96500
_cell_angle_gamma 101.96500

_symmetry_space_group_name_	'P 1'
_symmetry_space_group_name_H-M	'P 1'

loop_
_symmetry_equiv_pos_as_xyz
  x,y,z

loop_
_atom_site_label
_atom_site_type_symbol
_atom_site_fract_x
_atom_site_fract_y
_atom_site_fract_z
_atom_site_charge
Ni	Ni	0.61805 0.38195 -0.00000 1.07900
Ni	Ni	0.00000 0.61805 0.38195 1.07900
Ni	Ni	0.38195 0.00000 0.61805 1.07900
H 	H 	0.82530 0.37950 0.12900 -0.01300
H 	H 	0.90850 0.36570 0.81750 0.10200
H 	H 	0.24570 0.39450 0.88170 0.06700
H 	H 	0.41610 0.40630 0.87950 -0.03400
H 	H 	0.47590 0.33170 0.14450 -0.02800
H 	H 	0.98620 0.35900 0.11760 0.11800
H 	H 	0.08510 0.36030 0.88960 0.06000
H 	H 	0.13640 0.34810 0.09290 0.04300
H 	H 	0.30740 0.31770 0.15420 0.06500
H 	H 	0.74800 0.38250 0.83670 -0.03500
H 	H 	0.12900 0.82530 0.37950 -0.01300
H 	H 	0.81750 0.90850 0.36570 0.10200
H 	H 	0.88170 0.24570 0.39450 0.06700
H 	H 	0.87950 0.41610 0.40630 -0.03400
H 	H 	0.14450 0.47590 0.33170 -0.02800
H 	H 	0.11760 0.98620 0.35900 0.11800
H 	H 	0.88960 0.08510 0.36030 0.06000
H 	H 	0.09290 0.13640 0.34810 0.04300
H 	H 	0.15420 0.30740 0.31770 0.06500
H 	H 	0.83670 0.74800 0.38250 -0.03500
H 	H 	0.37950 0.12900 0.82530 -0.01300
H 	H 	0.36570 0.81750 0.90850 0.10200
H 	H 	0.39450 0.88170 0.24570 0.06700
H 	H 	0.40630 0.87950 0.41610 -0.03400
H 	H 	0.33170 0.14450 0.47590 -0.02800
H 	H 	0.35900 0.11760 0.98620 0.11800
H 	H 	0.36030 0.88960 0.08510 0.06000
H 	H 	0.34810 0.09290 0.13640 0.04300
H 	H 	0.31770 0.15420 0.30740 0.06500
H 	H 	0.38250 0.83670 0.74800 -0.03500
H 	H 	0.62050 0.17470 0.87100 -0.01100
H 	H 	0.63430 0.09150 0.18250 0.06100
H 	H 	0.60550 0.75430 0.11830 0.09300
H 	H 	0.59370 0.58390 0.12050 -0.03200
H 	H 	0.66830 0.52410 0.85550 -0.03400
H 	H 	0.64100 0.01380 0.88240 0.05800
H 	H 	0.63970 0.91490 0.11040 0.04600
H 	H 	0.65190 0.86360 0.90710 0.06700
H 	H 	0.68230 0.69260 0.84580 0.08400
H 	H 	0.61750 0.25200 0.16330 -0.02000
H 	H 	0.17470 0.87100 0.62050 -0.01100
H 	H 	0.09150 0.18250 0.63430 0.06100
H 	H 	0.75430 0.11830 0.60550 0.09300
H 	H 	0.58390 0.12050 0.59370 -0.03200
H 	H 	0.52410 0.85550 0.66830 -0.03400
H 	H 	0.01380 0.88240 0.64100 0.05800
H 	H 	0.91490 0.11040 0.63970 0.04600
H 	H 	0.86360 0.90710 0.65190 0.06700
H 	H 	0.69260 0.84580 0.68230 0.08400
H 	H 	0.25200 0.16330 0.61750 -0.02000
H 	H 	0.87100 0.62050 0.17470 -0.01100
H 	H 	0.18250 0.63430 0.09150 0.06100
H 	H 	0.11830 0.60550 0.75430 0.09300
H 	H 	0.12050 0.59370 0.58390 -0.03200
H 	H 	0.85550 0.66830 0.52410 -0.03400
H 	H 	0.88240 0.64100 0.01380 0.05800
H 	H 	0.11040 0.63970 0.91490 0.04600
H 	H 	0.90710 0.65190 0.86360 0.06700
H 	H 	0.84580 0.68230 0.69260 0.08400
H 	H 	0.16330 0.61750 0.25200 -0.02000
W 	W 	0.50000 0.29285 0.70715 0.66300
W 	W 	0.70715 0.50000 0.29285 0.66300
W 	W 	0.29285 0.70715 0.50000 0.66300
C 	C 	0.84238 0.37652 0.06510 0.09800
C 	C 	0.89363 0.36887 0.88230 -0.21400
C 	C 	0.29160 0.38210 0.93700 -0.13400
C 	C 	0.96843 0.36365 0.96674 0.20800
C 	C 	0.39370 0.38830 0.93580 0.10900
C 	C 	0.42880 0.34470 0.09070 0.07400
C 	C 	0.25650 0.35730 0.01910 0.06700
C 	C 	0.93951 0.36535 0.05918 -0.23300
C 	C 	0.07260 0.35940 0.95490 -0.11500
C 	C 	0.15020 0.35420 0.02920 -0.09300
C 	C 	0.32810 0.33690 0.09750 -0.16500
C 	C 	0.79733 0.37882 0.89452 0.13100
C 	C 	0.06510 0.84238 0.37652 0.09800
C 	C 	0.88230 0.89363 0.36887 -0.21400
C 	C 	0.93700 0.29160 0.38210 -0.13400
C 	C 	0.96674 0.96843 0.36365 0.20800
C 	C 	0.93580 0.39370 0.38830 0.10900
C 	C 	0.09070 0.42880 0.34470 0.07400
C 	C 	0.01910 0.25650 0.35730 0.06700
C 	C 	0.05918 0.93951 0.36535 -0.23300
C 	C 	0.95490 0.07260 0.35940 -0.11500
C 	C 	0.02920 0.15020 0.35420 -0.09300
C 	C 	0.09750 0.32810 0.33690 -0.16500
C 	C 	0.89452 0.79733 0.37882 0.13100
C 	C 	0.37652 0.06510 0.84238 0.09800
C 	C 	0.36887 0.88230 0.89363 -0.21400
C 	C 	0.38210 0.93700 0.29160 -0.13400
C 	C 	0.36365 0.96674 0.96843 0.20800
C 	C 	0.38830 0.93580 0.39370 0.10900
C 	C 	0.34470 0.09070 0.42880 0.07400
C 	C 	0.35730 0.01910 0.25650 0.06700
C 	C 	0.36535 0.05918 0.93951 -0.23300
C 	C 	0.35940 0.95490 0.07260 -0.11500
C 	C 	0.35420 0.02920 0.15020 -0.09300
C 	C 	0.33690 0.09750 0.32810 -0.16500
C 	C 	0.37882 0.89452 0.79733 0.13100
C 	C 	0.62348 0.15762 0.93490 0.09700
C 	C 	0.63113 0.10637 0.11770 -0.13800
C 	C 	0.61790 0.70840 0.06300 -0.22600
C 	C 	0.63635 0.03157 0.03326 0.03000
C 	C 	0.61170 0.60630 0.06420 0.08400
C 	C 	0.65530 0.57120 0.90930 0.10900
C 	C 	0.64270 0.74350 0.98090 0.16400
C 	C 	0.63465 0.06049 0.94082 -0.10400
C 	C 	0.64060 0.92740 0.04510 -0.05500
C 	C 	0.64580 0.84980 0.97080 -0.09000
C 	C 	0.66310 0.67190 0.90250 -0.19800
C 	C 	0.62118 0.20267 0.10548 0.07500
C 	C 	0.15762 0.93490 0.62348 0.09700
C 	C 	0.10637 0.11770 0.63113 -0.13800
C 	C 	0.70840 0.06300 0.61790 -0.22600
C 	C 	0.03157 0.03326 0.63635 0.03000
C 	C 	0.60630 0.06420 0.61170 0.08400
C 	C 	0.57120 0.90930 0.65530 0.10900
C 	C 	0.74350 0.98090 0.64270 0.16400
C 	C 	0.06049 0.94082 0.63465 -0.10400
C 	C 	0.92740 0.04510 0.64060 -0.05500
C 	C 	0.84980 0.97080 0.64580 -0.09000
C 	C 	0.67190 0.90250 0.66310 -0.19800
C 	C 	0.20267 0.10548 0.62118 0.07500
C 	C 	0.93490 0.62348 0.15762 0.09700
C 	C 	0.11770 0.63113 0.10637 -0.13800
C 	C 	0.06300 0.61790 0.70840 -0.22600
C 	C 	0.03326 0.63635 0.03157 0.03000
C 	C 	0.06420 0.61170 0.60630 0.08400
C 	C 	0.90930 0.65530 0.57120 0.10900
C 	C 	0.98090 0.64270 0.74350 0.16400
C 	C 	0.94082 0.63465 0.06049 -0.10400
C 	C 	0.04510 0.64060 0.92740 -0.05500
C 	C 	0.97080 0.64580 0.84980 -0.09000
C 	C 	0.90250 0.66310 0.67190 -0.19800
C 	C 	0.10548 0.62118 0.20267 0.07500
N 	N 	0.77106 0.38334 0.98431 -0.22400
N 	N 	0.46338 0.37004 0.01140 -0.25500
N 	N 	0.98431 0.77106 0.38334 -0.22400
N 	N 	0.01140 0.46338 0.37004 -0.25500
N 	N 	0.38334 0.98431 0.77106 -0.22400
N 	N 	0.37004 0.01140 0.46338 -0.25500
N 	N 	0.61666 0.22894 0.01569 -0.24600
N 	N 	0.62996 0.53662 0.98860 -0.22400
N 	N 	0.22894 0.01569 0.61666 -0.24600
N 	N 	0.53662 0.98860 0.62996 -0.22400
N 	N 	0.01569 0.61666 0.22894 -0.24600
N 	N 	0.98860 0.62996 0.53662 -0.22400
O 	O 	0.56274 0.33053 0.84229 -0.46000
O 	O 	0.84229 0.56274 0.33053 -0.46000
O 	O 	0.33053 0.84229 0.56274 -0.46000
O 	O 	0.66947 0.43726 0.15771 -0.47100
O 	O 	0.43726 0.15771 0.66947 -0.47100
O 	O 	0.15771 0.66947 0.43726 -0.47100
