data_crystal

_cell_length_a 13.68720
_cell_length_b 13.68720
_cell_length_c 13.68720
_cell_angle_alpha 102.29000
_cell_angle_beta  102.29000
_cell_angle_gamma 102.29000

_symmetry_space_group_name_	'P 1'
_symmetry_space_group_name_H-M	'P 1'

loop_
_symmetry_equiv_pos_as_xyz
  x,y,z

loop_
_atom_site_label
_atom_site_type_symbol
_atom_site_fract_x
_atom_site_fract_y
_atom_site_fract_z
_atom_site_charge
Co	Co	0.88331 0.11669 0.50000 1.15100
Co	Co	0.50000 0.88331 0.11669 1.15100
Co	Co	0.11669 0.50000 0.88331 1.15100
H 	H 	0.86620 0.40820 0.31690 0.08200
H 	H 	0.87900 0.32530 0.62730 -0.01100
H 	H 	0.90070 0.91080 0.37740 -0.02500
H 	H 	0.82370 0.80620 0.65470 0.08100
H 	H 	0.85850 0.48520 0.61570 0.08700
H 	H 	0.85620 0.58210 0.38790 0.05200
H 	H 	0.83760 0.97450 0.64440 -0.02200
H 	H 	0.88860 0.74080 0.37920 0.08600
H 	H 	0.88390 0.24880 0.33680 -0.02400
H 	H 	0.85050 0.63480 0.59080 0.06000
H 	H 	0.31690 0.86620 0.40820 0.08200
H 	H 	0.62730 0.87900 0.32530 -0.01100
H 	H 	0.37740 0.90070 0.91080 -0.02500
H 	H 	0.65470 0.82370 0.80620 0.08100
H 	H 	0.61570 0.85850 0.48520 0.08700
H 	H 	0.38790 0.85620 0.58210 0.05200
H 	H 	0.64440 0.83760 0.97450 -0.02200
H 	H 	0.37920 0.88860 0.74080 0.08600
H 	H 	0.33680 0.88390 0.24880 -0.02400
H 	H 	0.59080 0.85050 0.63480 0.06000
H 	H 	0.40820 0.31690 0.86620 0.08200
H 	H 	0.32530 0.62730 0.87900 -0.01100
H 	H 	0.91080 0.37740 0.90070 -0.02500
H 	H 	0.80620 0.65470 0.82370 0.08100
H 	H 	0.48520 0.61570 0.85850 0.08700
H 	H 	0.58210 0.38790 0.85620 0.05200
H 	H 	0.97450 0.64440 0.83760 -0.02200
H 	H 	0.74080 0.37920 0.88860 0.08600
H 	H 	0.24880 0.33680 0.88390 -0.02400
H 	H 	0.63480 0.59080 0.85050 0.06000
H 	H 	0.59180 0.13380 0.68310 0.07800
H 	H 	0.67470 0.12100 0.37270 -0.01600
H 	H 	0.08920 0.09930 0.62260 -0.04600
H 	H 	0.19380 0.17630 0.34530 0.07300
H 	H 	0.51480 0.14150 0.38430 0.08300
H 	H 	0.41790 0.14380 0.61210 0.04800
H 	H 	0.02550 0.16240 0.35560 -0.04500
H 	H 	0.25920 0.11140 0.62080 0.07900
H 	H 	0.75120 0.11610 0.66320 -0.02800
H 	H 	0.36520 0.14950 0.40920 0.05500
H 	H 	0.13380 0.68310 0.59180 0.07800
H 	H 	0.12100 0.37270 0.67470 -0.01600
H 	H 	0.09930 0.62260 0.08920 -0.04600
H 	H 	0.17630 0.34530 0.19380 0.07300
H 	H 	0.14150 0.38430 0.51480 0.08300
H 	H 	0.14380 0.61210 0.41790 0.04800
H 	H 	0.16240 0.35560 0.02550 -0.04500
H 	H 	0.11140 0.62080 0.25920 0.07900
H 	H 	0.11610 0.66320 0.75120 -0.02800
H 	H 	0.14950 0.40920 0.36520 0.05500
H 	H 	0.68310 0.59180 0.13380 0.07800
H 	H 	0.37270 0.67470 0.12100 -0.01600
H 	H 	0.62260 0.08920 0.09930 -0.04600
H 	H 	0.34530 0.19380 0.17630 0.07300
H 	H 	0.38430 0.51480 0.14150 0.08300
H 	H 	0.61210 0.41790 0.14380 0.04800
H 	H 	0.35560 0.02550 0.16240 -0.04500
H 	H 	0.62080 0.25920 0.11140 0.07900
H 	H 	0.66320 0.75120 0.11610 -0.02800
H 	H 	0.40920 0.36520 0.14950 0.05500
W 	W 	0.00000 0.20664 0.79336 0.62100
W 	W 	0.79336 0.00000 0.20664 0.62100
W 	W 	0.20664 0.79336 -0.00000 0.62100
C 	C 	0.86900 0.39350 0.38130 -0.16900
C 	C 	0.87630 0.34220 0.56390 0.09500
C 	C 	0.85730 0.75370 0.51850 0.12500
C 	C 	0.88540 0.88940 0.43450 0.10600
C 	C 	0.84040 0.82570 0.59720 -0.18300
C 	C 	0.86480 0.43860 0.55760 -0.16000
C 	C 	0.86250 0.46690 0.46530 0.11600
C 	C 	0.85750 0.57070 0.45350 -0.07500
C 	C 	0.84850 0.92650 0.59030 0.10100
C 	C 	0.87860 0.78720 0.43520 -0.18100
C 	C 	0.87950 0.29790 0.39410 0.10200
C 	C 	0.85460 0.64800 0.52700 -0.09400
C 	C 	0.38130 0.86900 0.39350 -0.16900
C 	C 	0.56390 0.87630 0.34220 0.09500
C 	C 	0.51850 0.85730 0.75370 0.12500
C 	C 	0.43450 0.88540 0.88940 0.10600
C 	C 	0.59720 0.84040 0.82570 -0.18300
C 	C 	0.55760 0.86480 0.43860 -0.16000
C 	C 	0.46530 0.86250 0.46690 0.11600
C 	C 	0.45350 0.85750 0.57070 -0.07500
C 	C 	0.59030 0.84850 0.92650 0.10100
C 	C 	0.43520 0.87860 0.78720 -0.18100
C 	C 	0.39410 0.87950 0.29790 0.10200
C 	C 	0.52700 0.85460 0.64800 -0.09400
C 	C 	0.39350 0.38130 0.86900 -0.16900
C 	C 	0.34220 0.56390 0.87630 0.09500
C 	C 	0.75370 0.51850 0.85730 0.12500
C 	C 	0.88940 0.43450 0.88540 0.10600
C 	C 	0.82570 0.59720 0.84040 -0.18300
C 	C 	0.43860 0.55760 0.86480 -0.16000
C 	C 	0.46690 0.46530 0.86250 0.11600
C 	C 	0.57070 0.45350 0.85750 -0.07500
C 	C 	0.92650 0.59030 0.84850 0.10100
C 	C 	0.78720 0.43520 0.87860 -0.18100
C 	C 	0.29790 0.39410 0.87950 0.10200
C 	C 	0.64800 0.52700 0.85460 -0.09400
C 	C 	0.60650 0.13100 0.61870 -0.17200
C 	C 	0.65780 0.12370 0.43610 0.08800
C 	C 	0.24630 0.14270 0.48150 0.11900
C 	C 	0.11060 0.11460 0.56550 0.09600
C 	C 	0.17430 0.15960 0.40280 -0.19100
C 	C 	0.56140 0.13520 0.44240 -0.16500
C 	C 	0.53310 0.13750 0.53470 0.10900
C 	C 	0.42930 0.14250 0.54650 -0.08000
C 	C 	0.07350 0.15150 0.40970 0.09300
C 	C 	0.21280 0.12140 0.56480 -0.18800
C 	C 	0.70210 0.12050 0.60590 0.09300
C 	C 	0.35200 0.14540 0.47300 -0.10000
C 	C 	0.13100 0.61870 0.60650 -0.17200
C 	C 	0.12370 0.43610 0.65780 0.08800
C 	C 	0.14270 0.48150 0.24630 0.11900
C 	C 	0.11460 0.56550 0.11060 0.09600
C 	C 	0.15960 0.40280 0.17430 -0.19100
C 	C 	0.13520 0.44240 0.56140 -0.16500
C 	C 	0.13750 0.53470 0.53310 0.10900
C 	C 	0.14250 0.54650 0.42930 -0.08000
C 	C 	0.15150 0.40970 0.07350 0.09300
C 	C 	0.12140 0.56480 0.21280 -0.18800
C 	C 	0.12050 0.60590 0.70210 0.09300
C 	C 	0.14540 0.47300 0.35200 -0.10000
C 	C 	0.61870 0.60650 0.13100 -0.17200
C 	C 	0.43610 0.65780 0.12370 0.08800
C 	C 	0.48150 0.24630 0.14270 0.11900
C 	C 	0.56550 0.11060 0.11460 0.09600
C 	C 	0.40280 0.17430 0.15960 -0.19100
C 	C 	0.44240 0.56140 0.13520 -0.16500
C 	C 	0.53470 0.53310 0.13750 0.10900
C 	C 	0.54650 0.42930 0.14250 -0.08000
C 	C 	0.40970 0.07350 0.15150 0.09300
C 	C 	0.56480 0.21280 0.12140 -0.18800
C 	C 	0.60590 0.70210 0.12050 0.09300
C 	C 	0.47300 0.35200 0.14540 -0.10000
N 	N 	0.88380 0.27160 0.48330 -0.23400
N 	N 	0.87110 0.95840 0.51090 -0.23500
N 	N 	0.48330 0.88380 0.27160 -0.23400
N 	N 	0.51090 0.87110 0.95840 -0.23500
N 	N 	0.27160 0.48330 0.88380 -0.23400
N 	N 	0.95840 0.51090 0.87110 -0.23500
N 	N 	0.72840 0.11620 0.51670 -0.24000
N 	N 	0.04160 0.12890 0.48910 -0.25700
N 	N 	0.11620 0.51670 0.72840 -0.24000
N 	N 	0.12890 0.48910 0.04160 -0.25700
N 	N 	0.51670 0.72840 0.11620 -0.24000
N 	N 	0.48910 0.04160 0.12890 -0.25700
O 	O 	0.93819 0.16828 0.65760 -0.46100
O 	O 	0.65760 0.93819 0.16828 -0.46100
O 	O 	0.16828 0.65760 0.93819 -0.46100
O 	O 	0.83172 0.06181 0.34240 -0.47700
O 	O 	0.06181 0.34240 0.83172 -0.47700
O 	O 	0.34240 0.83172 0.06181 -0.47700
