data_crystal

_cell_length_a 14.27250
_cell_length_b 19.58980
_cell_length_c 20.75910
_cell_angle_alpha 90.00000
_cell_angle_beta  90.00000
_cell_angle_gamma 90.00000

_symmetry_space_group_name_	'P 1'
_symmetry_space_group_name_H-M	'P 1'

loop_
_symmetry_equiv_pos_as_xyz
  x,y,z

loop_
_atom_site_label
_atom_site_type_symbol
_atom_site_fract_x
_atom_site_fract_y
_atom_site_fract_z
_atom_site_charge
O 	O 	0.42290 0.42750 0.06800 -0.48800
C 	C 	0.43160 0.35420 0.18450 0.22000
H 	H 	0.37920 0.38130 0.17750 -0.02100
C 	C 	0.43100 0.31110 0.23870 -0.04200
C 	C 	0.59160 0.27370 0.20680 0.05100
H 	H 	0.64360 0.24630 0.21450 0.01100
C 	C 	0.58820 0.31960 0.15610 -0.25000
H 	H 	0.64040 0.32590 0.12990 0.12800
C 	C 	0.35670 0.30850 0.28310 -0.11200
H 	H 	0.30330 0.33450 0.27540 0.06700
C 	C 	0.36080 0.26960 0.33650 0.08500
H 	H 	0.31160 0.26980 0.36590 0.01500
C 	C 	0.44150 0.22780 0.34760 -0.26100
H 	H 	0.55070 0.19980 0.31220 0.08500
C 	C 	0.44260 0.18430 0.40850 0.52500
O 	O 	0.37950 0.18840 0.44890 -0.33100
O 	O 	0.92290 0.92750 0.56800 -0.44000
C 	C 	0.93160 0.85420 0.68450 0.20700
H 	H 	0.87920 0.88130 0.67750 -0.01100
C 	C 	0.93100 0.81110 0.73870 -0.03300
C 	C 	0.09160 0.77370 0.70680 0.03900
H 	H 	0.14360 0.74630 0.71450 0.02100
C 	C 	0.08820 0.81960 0.65610 -0.22300
H 	H 	0.14040 0.82590 0.62990 0.12800
C 	C 	0.85670 0.80850 0.78310 -0.09500
H 	H 	0.80330 0.83450 0.77540 0.07300
C 	C 	0.86080 0.76960 0.83650 0.07000
H 	H 	0.81160 0.76980 0.86590 0.03600
C 	C 	0.94150 0.72780 0.84760 -0.21200
H 	H 	0.05070 0.69980 0.81220 0.10600
C 	C 	0.94260 0.68430 0.90850 0.50300
O 	O 	0.87950 0.68840 0.94890 -0.26400
O 	O 	0.57710 0.57250 0.06800 -0.48800
C 	C 	0.56840 0.64580 0.18450 0.21100
H 	H 	0.62080 0.61870 0.17750 -0.01900
C 	C 	0.56900 0.68890 0.23870 -0.04500
C 	C 	0.40840 0.72630 0.20680 0.04800
H 	H 	0.35640 0.75370 0.21450 0.01600
C 	C 	0.41180 0.68040 0.15610 -0.24000
H 	H 	0.35960 0.67410 0.12990 0.12600
C 	C 	0.64330 0.69150 0.28310 -0.10900
H 	H 	0.69670 0.66550 0.27540 0.06800
C 	C 	0.63920 0.73040 0.33650 0.08300
H 	H 	0.68840 0.73020 0.36590 0.01800
C 	C 	0.55850 0.77220 0.34760 -0.25600
H 	H 	0.44930 0.80020 0.31220 0.09500
C 	C 	0.55740 0.81570 0.40850 0.52200
O 	O 	0.62050 0.81160 0.44890 -0.32700
O 	O 	0.07710 0.07250 0.56800 -0.47600
C 	C 	0.06840 0.14580 0.68450 0.19100
H 	H 	0.12080 0.11870 0.67750 -0.01800
C 	C 	0.06900 0.18890 0.73870 -0.05500
C 	C 	0.90840 0.22630 0.70680 0.03300
H 	H 	0.85640 0.25370 0.71450 0.02500
C 	C 	0.91180 0.18040 0.65610 -0.20500
H 	H 	0.85960 0.17410 0.62990 0.12200
C 	C 	0.14330 0.19150 0.78310 -0.08900
H 	H 	0.19670 0.16550 0.77540 0.06100
C 	C 	0.13920 0.23040 0.83650 0.05900
H 	H 	0.18840 0.23020 0.86590 0.03400
C 	C 	0.05850 0.27220 0.84760 -0.21500
H 	H 	0.94930 0.30020 0.81220 0.11400
C 	C 	0.05740 0.31570 0.90850 0.48500
O 	O 	0.12050 0.31160 0.94890 -0.26400
O 	O 	0.57710 0.42750 0.93200 -0.42000
C 	C 	0.56840 0.35420 0.81550 0.21700
H 	H 	0.62080 0.38130 0.82250 -0.01700
C 	C 	0.56900 0.31110 0.76130 -0.06700
C 	C 	0.40840 0.27370 0.79320 0.07900
H 	H 	0.35640 0.24630 0.78550 0.00900
C 	C 	0.41180 0.31960 0.84390 -0.25500
H 	H 	0.35960 0.32590 0.87010 0.15000
C 	C 	0.64330 0.30850 0.71690 -0.09800
H 	H 	0.69670 0.33450 0.72460 0.06600
C 	C 	0.63920 0.26960 0.66350 0.07700
H 	H 	0.68840 0.26980 0.63410 0.02000
C 	C 	0.55850 0.22780 0.65240 -0.25200
H 	H 	0.44930 0.19980 0.68780 0.09300
C 	C 	0.55740 0.18430 0.59150 0.52100
O 	O 	0.62050 0.18840 0.55110 -0.32900
O 	O 	0.07710 0.92750 0.43200 -0.45100
C 	C 	0.06840 0.85420 0.31550 0.21400
H 	H 	0.12080 0.88130 0.32250 -0.01700
C 	C 	0.06900 0.81110 0.26130 -0.05700
C 	C 	0.90840 0.77370 0.29320 0.05600
H 	H 	0.85640 0.74630 0.28550 0.01700
C 	C 	0.91180 0.81960 0.34390 -0.24200
H 	H 	0.85960 0.82590 0.37010 0.13600
C 	C 	0.14330 0.80850 0.21690 -0.10800
H 	H 	0.19670 0.83450 0.22460 0.06600
C 	C 	0.13920 0.76960 0.16350 0.08200
H 	H 	0.18840 0.76980 0.13410 0.00800
C 	C 	0.05850 0.72780 0.15240 -0.26400
H 	H 	0.94930 0.69980 0.18780 0.11200
C 	C 	0.05740 0.68430 0.09150 0.52800
O 	O 	0.12050 0.68840 0.05110 -0.36800
O 	O 	0.42290 0.57250 0.93200 -0.41900
C 	C 	0.43160 0.64580 0.81550 0.20900
H 	H 	0.37920 0.61870 0.82250 -0.01500
C 	C 	0.43100 0.68890 0.76130 -0.06900
C 	C 	0.59160 0.72630 0.79320 0.07700
H 	H 	0.64360 0.75370 0.78550 0.01300
C 	C 	0.58820 0.68040 0.84390 -0.24500
H 	H 	0.64040 0.67410 0.87010 0.14800
C 	C 	0.35670 0.69150 0.71690 -0.09600
H 	H 	0.30330 0.66550 0.72460 0.06400
C 	C 	0.36080 0.73040 0.66350 0.07500
H 	H 	0.31160 0.73020 0.63410 0.02000
C 	C 	0.44150 0.77220 0.65240 -0.24800
H 	H 	0.55070 0.80020 0.68780 0.10200
C 	C 	0.44260 0.81570 0.59150 0.51800
O 	O 	0.37950 0.81160 0.55110 -0.32600
O 	O 	0.92290 0.07250 0.43200 -0.46700
C 	C 	0.93160 0.14580 0.31550 0.21800
H 	H 	0.87920 0.11870 0.32250 -0.02800
C 	C 	0.93100 0.18890 0.26130 -0.04800
C 	C 	0.09160 0.22630 0.29320 0.05900
H 	H 	0.14360 0.25370 0.28550 0.01300
C 	C 	0.08820 0.18040 0.34390 -0.23100
H 	H 	0.14040 0.17410 0.37010 0.12800
C 	C 	0.85670 0.19150 0.21690 -0.10900
H 	H 	0.80330 0.16550 0.22460 0.05900
C 	C 	0.86080 0.23040 0.16350 0.07900
H 	H 	0.81160 0.23020 0.13410 0.00600
C 	C 	0.94150 0.27220 0.15240 -0.25400
H 	H 	0.05070 0.30020 0.18780 0.10900
C 	C 	0.94260 0.31570 0.09150 0.54700
O 	O 	0.87950 0.31160 0.05110 -0.37000
O 	O 	0.57710 0.57250 0.93200 -0.41900
C 	C 	0.56840 0.64580 0.81550 0.21000
H 	H 	0.62080 0.61870 0.82250 -0.01500
C 	C 	0.56900 0.68890 0.76130 -0.06900
C 	C 	0.40840 0.72630 0.79320 0.07700
H 	H 	0.35640 0.75370 0.78550 0.01300
C 	C 	0.41180 0.68040 0.84390 -0.24500
H 	H 	0.35960 0.67410 0.87010 0.14800
C 	C 	0.64330 0.69150 0.71690 -0.09600
H 	H 	0.69670 0.66550 0.72460 0.06500
C 	C 	0.63920 0.73040 0.66350 0.07500
H 	H 	0.68840 0.73020 0.63410 0.02100
C 	C 	0.55850 0.77220 0.65240 -0.24700
H 	H 	0.44930 0.80020 0.68780 0.10300
C 	C 	0.55740 0.81570 0.59150 0.51800
O 	O 	0.62050 0.81160 0.55110 -0.32600
O 	O 	0.07710 0.07250 0.43200 -0.47700
C 	C 	0.06840 0.14580 0.31550 0.20700
H 	H 	0.12080 0.11870 0.32250 -0.02600
C 	C 	0.06900 0.18890 0.26130 -0.06500
C 	C 	0.90840 0.22630 0.29320 0.05300
H 	H 	0.85640 0.25370 0.28550 0.01700
C 	C 	0.91180 0.18040 0.34390 -0.22700
H 	H 	0.85960 0.17410 0.37010 0.12900
C 	C 	0.14330 0.19150 0.21690 -0.10500
H 	H 	0.19670 0.16550 0.22460 0.05600
C 	C 	0.13920 0.23040 0.16350 0.07500
H 	H 	0.18840 0.23020 0.13410 0.00500
C 	C 	0.05850 0.27220 0.15240 -0.26300
H 	H 	0.94930 0.30020 0.18780 0.11500
C 	C 	0.05740 0.31570 0.09150 0.52500
O 	O 	0.12050 0.31160 0.05110 -0.37000
O 	O 	0.42290 0.42750 0.93200 -0.41900
C 	C 	0.43160 0.35420 0.81550 0.21700
H 	H 	0.37920 0.38130 0.82250 -0.01700
C 	C 	0.43100 0.31110 0.76130 -0.06700
C 	C 	0.59160 0.27370 0.79320 0.07900
H 	H 	0.64360 0.24630 0.78550 0.00900
C 	C 	0.58820 0.31960 0.84390 -0.25600
H 	H 	0.64040 0.32590 0.87010 0.15000
C 	C 	0.35670 0.30850 0.71690 -0.09800
H 	H 	0.30330 0.33450 0.72460 0.06500
C 	C 	0.36080 0.26960 0.66350 0.07700
H 	H 	0.31160 0.26980 0.63410 0.01800
C 	C 	0.44150 0.22780 0.65240 -0.25300
H 	H 	0.55070 0.19980 0.68780 0.09300
C 	C 	0.44260 0.18430 0.59150 0.52100
O 	O 	0.37950 0.18840 0.55110 -0.33000
O 	O 	0.92290 0.92750 0.43200 -0.44100
C 	C 	0.93160 0.85420 0.31550 0.22500
H 	H 	0.87920 0.88130 0.32250 -0.01900
C 	C 	0.93100 0.81110 0.26130 -0.04000
C 	C 	0.09160 0.77370 0.29320 0.06200
H 	H 	0.14360 0.74630 0.28550 0.01200
C 	C 	0.08820 0.81960 0.34390 -0.24500
H 	H 	0.14040 0.82590 0.37010 0.13500
C 	C 	0.85670 0.80850 0.21690 -0.11200
H 	H 	0.80330 0.83450 0.22460 0.06800
C 	C 	0.86080 0.76960 0.16350 0.08600
H 	H 	0.81160 0.76980 0.13410 0.00800
C 	C 	0.94150 0.72780 0.15240 -0.25600
H 	H 	0.05070 0.69980 0.18780 0.10500
C 	C 	0.94260 0.68430 0.09150 0.55000
O 	O 	0.87950 0.68840 0.05110 -0.36800
O 	O 	0.42290 0.57250 0.06800 -0.48800
C 	C 	0.43160 0.64580 0.18450 0.21100
H 	H 	0.37920 0.61870 0.17750 -0.02000
C 	C 	0.43100 0.68890 0.23870 -0.04500
C 	C 	0.59160 0.72630 0.20680 0.04900
H 	H 	0.64360 0.75370 0.21450 0.01600
C 	C 	0.58820 0.68040 0.15610 -0.24000
H 	H 	0.64040 0.67410 0.12990 0.12600
C 	C 	0.35670 0.69150 0.28310 -0.10900
H 	H 	0.30330 0.66550 0.27540 0.06700
C 	C 	0.36080 0.73040 0.33650 0.08300
H 	H 	0.31160 0.73020 0.36590 0.01700
C 	C 	0.44150 0.77220 0.34760 -0.25600
H 	H 	0.55070 0.80020 0.31220 0.09500
C 	C 	0.44260 0.81570 0.40850 0.52200
O 	O 	0.37950 0.81160 0.44890 -0.32800
O 	O 	0.92290 0.07250 0.56800 -0.46700
C 	C 	0.93160 0.14580 0.68450 0.20000
H 	H 	0.87920 0.11870 0.67750 -0.02000
C 	C 	0.93100 0.18890 0.73870 -0.04200
C 	C 	0.09160 0.22630 0.70680 0.03700
H 	H 	0.14360 0.25370 0.71450 0.02200
C 	C 	0.08820 0.18040 0.65610 -0.20900
H 	H 	0.14040 0.17410 0.62990 0.12100
C 	C 	0.85670 0.19150 0.78310 -0.09300
H 	H 	0.80330 0.16550 0.77540 0.06300
C 	C 	0.86080 0.23040 0.83650 0.06300
H 	H 	0.81160 0.23020 0.86590 0.03300
C 	C 	0.94150 0.27220 0.84760 -0.21000
H 	H 	0.05070 0.30020 0.81220 0.10900
C 	C 	0.94260 0.31570 0.90850 0.50000
O 	O 	0.87950 0.31160 0.94890 -0.26600
O 	O 	0.57710 0.42750 0.06800 -0.48800
C 	C 	0.56840 0.35420 0.18450 0.21900
H 	H 	0.62080 0.38130 0.17750 -0.02100
C 	C 	0.56900 0.31110 0.23870 -0.04300
C 	C 	0.40840 0.27370 0.20680 0.05000
H 	H 	0.35640 0.24630 0.21450 0.01100
C 	C 	0.41180 0.31960 0.15610 -0.25000
H 	H 	0.35960 0.32590 0.12990 0.12800
C 	C 	0.64330 0.30850 0.28310 -0.11200
H 	H 	0.69670 0.33450 0.27540 0.06900
C 	C 	0.63920 0.26960 0.33650 0.08500
H 	H 	0.68840 0.26980 0.36590 0.01600
C 	C 	0.55850 0.22780 0.34760 -0.26100
H 	H 	0.44930 0.19980 0.31220 0.08500
C 	C 	0.55740 0.18430 0.40850 0.52400
O 	O 	0.62050 0.18840 0.44890 -0.33100
O 	O 	0.07710 0.92750 0.56800 -0.44900
C 	C 	0.06840 0.85420 0.68450 0.19800
H 	H 	0.12080 0.88130 0.67750 -0.00900
C 	C 	0.06900 0.81110 0.73870 -0.04700
C 	C 	0.90840 0.77370 0.70680 0.03500
H 	H 	0.85640 0.74630 0.71450 0.02400
C 	C 	0.91180 0.81960 0.65610 -0.21900
H 	H 	0.85960 0.82590 0.62990 0.12900
C 	C 	0.14330 0.80850 0.78310 -0.09100
H 	H 	0.19670 0.83450 0.77540 0.07100
C 	C 	0.13920 0.76960 0.83650 0.06600
H 	H 	0.18840 0.76980 0.86590 0.03700
C 	C 	0.05850 0.72780 0.84760 -0.21700
H 	H 	0.94930 0.69980 0.81220 0.11100
C 	C 	0.05740 0.68430 0.90850 0.48800
O 	O 	0.12050 0.68840 0.94890 -0.26100
Zn	Zn	0.39797 0.50000 -0.00000 1.20400
O 	O 	0.25790 0.50000 -0.00000 -0.47500
Zn	Zn	0.89797 -0.00000 0.50000 1.22000
O 	O 	0.75790 -0.00000 0.50000 -0.49500
Zn	Zn	0.60203 0.50000 -0.00000 1.20400
O 	O 	0.74210 0.50000 -0.00000 -0.47400
Zn	Zn	0.10203 -0.00000 0.50000 1.21800
O 	O 	0.24210 -0.00000 0.50000 -0.49600
Zn	Zn	0.50000 0.09980 0.50000 1.23300
Zn	Zn	-0.00000 0.59980 -0.00000 1.21200
Zn	Zn	0.50000 0.90020 0.50000 1.23800
Zn	Zn	-0.00000 0.40020 -0.00000 1.21200
C 	C 	0.50000 0.40930 0.08850 0.42600
C 	C 	0.50000 0.35890 0.14360 -0.15600
C 	C 	0.50000 0.27100 0.25120 -0.02900
C 	C 	0.50000 0.22910 0.30700 0.09100
O 	O 	0.50000 0.14630 0.41620 -0.76000
C 	C 	0.00000 0.90930 0.58850 0.41200
C 	C 	-0.00000 0.85890 0.64360 -0.15000
C 	C 	-0.00000 0.77100 0.75120 0.00200
C 	C 	-0.00000 0.72910 0.80700 -0.00200
O 	O 	-0.00000 0.64630 0.91620 -0.70200
C 	C 	0.50000 0.59070 0.08850 0.42600
C 	C 	0.50000 0.64110 0.14360 -0.15400
C 	C 	0.50000 0.72900 0.25120 -0.01700
C 	C 	0.50000 0.77090 0.30700 0.07300
O 	O 	0.50000 0.85370 0.41620 -0.74800
C 	C 	-0.00000 0.09070 0.58850 0.41500
C 	C 	-0.00000 0.14110 0.64360 -0.16000
C 	C 	-0.00000 0.22900 0.75120 0.01100
C 	C 	-0.00000 0.27090 0.80700 -0.01400
O 	O 	-0.00000 0.35370 0.91620 -0.70000
C 	C 	0.50000 0.40930 0.91150 0.41300
C 	C 	0.50000 0.35890 0.85640 -0.13000
C 	C 	0.50000 0.27100 0.74880 -0.00800
C 	C 	0.50000 0.22910 0.69300 0.06800
O 	O 	0.50000 0.14630 0.58380 -0.75500
C 	C 	-0.00000 0.90930 0.41150 0.41100
C 	C 	-0.00000 0.85890 0.35640 -0.15600
C 	C 	0.00000 0.77100 0.24880 -0.01900
C 	C 	-0.00000 0.72910 0.19300 0.03800
O 	O 	0.00000 0.64630 0.08380 -0.78300
C 	C 	0.50000 0.59070 0.91150 0.41300
C 	C 	0.50000 0.64110 0.85640 -0.12700
C 	C 	0.50000 0.72900 0.74880 0.00400
C 	C 	0.50000 0.77090 0.69300 0.05000
O 	O 	0.50000 0.85370 0.58380 -0.74400
C 	C 	-0.00000 0.09070 0.41150 0.41500
C 	C 	-0.00000 0.14110 0.35640 -0.16500
C 	C 	-0.00000 0.22900 0.24880 -0.01000
C 	C 	-0.00000 0.27090 0.19300 0.02600
O 	O 	-0.00000 0.35370 0.08380 -0.78100
C 	C 	0.19990 0.44710 -0.00000 0.23900
H 	H 	0.22020 0.40190 -0.00000 -0.06000
N 	N 	0.11090 0.46450 -0.00000 -0.27200
C 	C 	0.69990 0.94710 0.50000 0.30800
H 	H 	0.72020 0.90190 0.50000 -0.04900
N 	N 	0.61090 0.96450 0.50000 -0.24600
C 	C 	0.80010 0.55290 -0.00000 0.24000
H 	H 	0.77980 0.59810 -0.00000 -0.05800
N 	N 	0.88910 0.53550 -0.00000 -0.26600
C 	C 	0.30010 0.05290 0.50000 0.25000
H 	H 	0.27980 0.09810 0.50000 -0.03600
N 	N 	0.38910 0.03550 0.50000 -0.27500
C 	C 	0.80010 0.44710 -0.00000 0.24000
H 	H 	0.77980 0.40190 -0.00000 -0.05800
N 	N 	0.88910 0.46450 -0.00000 -0.26700
C 	C 	0.30010 0.94710 0.50000 0.30800
H 	H 	0.27980 0.90190 0.50000 -0.05000
N 	N 	0.38910 0.96450 0.50000 -0.24600
C 	C 	0.19990 0.55290 -0.00000 0.23900
H 	H 	0.22020 0.59810 -0.00000 -0.05900
N 	N 	0.11090 0.53550 -0.00000 -0.27200
C 	C 	0.69990 0.05290 0.50000 0.25000
H 	H 	0.72020 0.09810 0.50000 -0.03600
N 	N 	0.61090 0.03550 0.50000 -0.27500
