data_crystal

_cell_length_a 7.35600
_cell_length_b 10.16700
_cell_length_c 18.20800
_cell_angle_alpha 90.00000
_cell_angle_beta  90.00000
_cell_angle_gamma 94.27700

_symmetry_space_group_name_	'P 1'
_symmetry_space_group_name_H-M	'P 1'

loop_
_symmetry_equiv_pos_as_xyz
  x,y,z

loop_
_atom_site_label
_atom_site_type_symbol
_atom_site_fract_x
_atom_site_fract_y
_atom_site_fract_z
_atom_site_charge
Cu	Cu	0.86602 0.21699 0.90492 0.91500
Cu	Cu	0.04142 0.93045 0.93163 0.93200
Cu	Cu	0.63398 0.28301 0.40492 0.91500
Cu	Cu	0.45858 0.56955 0.43163 0.93700
Cu	Cu	0.13398 0.78301 0.09508 0.91500
Cu	Cu	0.95858 0.06955 0.06837 0.93200
Cu	Cu	0.36602 0.71699 0.59508 0.91600
Cu	Cu	0.54142 0.43045 0.56837 0.93800
H 	H 	0.77880 0.16410 0.69220 0.05000
H 	H 	0.93560 0.79410 0.70580 0.03600
H 	H 	0.77710 0.93570 0.51080 0.03100
H 	H 	0.72120 0.33590 0.19220 0.04700
H 	H 	0.56440 0.70590 0.20580 0.03400
H 	H 	0.72290 0.56430 0.01080 0.03100
H 	H 	0.22120 0.83590 0.30780 0.05000
H 	H 	0.06440 0.20590 0.29420 0.03600
H 	H 	0.22290 0.06430 0.48920 0.03100
H 	H 	0.27880 0.66410 0.80780 0.04700
H 	H 	0.43560 0.29410 0.79420 0.03400
H 	H 	0.27710 0.43570 0.98920 0.03100
C 	C 	0.85860 0.84730 0.60400 -0.14500
C 	C 	0.76760 0.06830 0.59530 -0.12200
C 	C 	0.80070 0.08450 0.66990 0.05500
C 	C 	0.86590 0.98390 0.71200 -0.11500
C 	C 	0.90000 0.00820 0.79240 0.37900
C 	C 	0.89390 0.86300 0.67850 0.05900
C 	C 	0.79750 0.94770 0.56080 0.05700
C 	C 	0.69690 0.17980 0.55270 0.37800
C 	C 	0.64140 0.65270 0.10400 -0.14700
C 	C 	0.73240 0.43170 0.09530 -0.12000
C 	C 	0.69930 0.41550 0.16990 0.06300
C 	C 	0.63410 0.51610 0.21200 -0.12500
C 	C 	0.60000 0.49180 0.29240 0.39000
C 	C 	0.60610 0.63700 0.17850 0.06300
C 	C 	0.70250 0.55230 0.06080 0.05400
C 	C 	0.80310 0.32020 0.05270 0.37500
C 	C 	0.14140 0.15270 0.39600 -0.14500
C 	C 	0.23240 0.93170 0.40470 -0.12200
C 	C 	0.19930 0.91550 0.33010 0.05500
C 	C 	0.13410 0.01610 0.28800 -0.11500
C 	C 	0.10000 0.99180 0.20760 0.37900
C 	C 	0.10610 0.13700 0.32150 0.05900
C 	C 	0.20250 0.05230 0.43920 0.05700
C 	C 	0.30310 0.82020 0.44730 0.37800
C 	C 	0.35860 0.34730 0.89600 -0.14700
C 	C 	0.26760 0.56830 0.90470 -0.12000
C 	C 	0.30070 0.58450 0.83010 0.06300
C 	C 	0.36590 0.48390 0.78800 -0.12500
C 	C 	0.40000 0.50820 0.70760 0.39000
C 	C 	0.39390 0.36300 0.82150 0.06300
C 	C 	0.29750 0.44770 0.93920 0.05400
C 	C 	0.19690 0.67980 0.94730 0.37500
S 	S 	0.87776 0.68972 0.56489 0.54300
S 	S 	0.62224 0.81028 0.06489 0.54000
S 	S 	0.12224 0.31028 0.43511 0.54300
S 	S 	0.37776 0.18972 0.93511 0.54000
O 	O 	0.94640 0.91440 0.83175 -0.37500
O 	O 	0.87190 0.05850 0.96485 -0.48600
O 	O 	0.65590 0.16140 0.48595 -0.42400
O 	O 	0.88070 0.12430 0.81318 -0.41200
O 	O 	0.86460 0.69900 0.48680 -0.28300
O 	O 	0.68230 0.28420 0.58955 -0.38700
O 	O 	0.72750 0.61140 0.59750 -0.37500
O 	O 	0.04840 0.64460 0.59220 -0.31200
O 	O 	0.55360 0.58560 0.33175 -0.38200
O 	O 	0.62810 0.44150 0.46485 -0.48800
O 	O 	0.84410 0.33860 0.98595 -0.42000
O 	O 	0.61930 0.37570 0.31318 -0.41400
O 	O 	0.63540 0.80100 0.98680 -0.28300
O 	O 	0.81770 0.21580 0.08955 -0.38800
O 	O 	0.77250 0.88860 0.09750 -0.37300
O 	O 	0.45160 0.85540 0.09220 -0.30900
O 	O 	0.05360 0.08560 0.16825 -0.37500
O 	O 	0.12810 0.94150 0.03515 -0.48600
O 	O 	0.34410 0.83860 0.51405 -0.42400
O 	O 	0.11930 0.87570 0.18682 -0.41200
O 	O 	0.13540 0.30100 0.51320 -0.28300
O 	O 	0.31770 0.71580 0.41045 -0.38700
O 	O 	0.27250 0.38860 0.40250 -0.37500
O 	O 	0.95160 0.35540 0.40780 -0.31200
O 	O 	0.44640 0.41440 0.66825 -0.38200
O 	O 	0.37190 0.55850 0.53515 -0.48800
O 	O 	0.15590 0.66140 0.01405 -0.42000
O 	O 	0.38070 0.62430 0.68682 -0.41400
O 	O 	0.36460 0.19900 0.01320 -0.28300
O 	O 	0.18230 0.78420 0.91045 -0.38800
O 	O 	0.22750 0.11140 0.90250 -0.37300
O 	O 	0.54840 0.14460 0.90780 -0.30900
