data_crystal

_cell_length_a 7.33780
_cell_length_b 10.14470
_cell_length_c 18.20100
_cell_angle_alpha 90.00000
_cell_angle_beta  90.00000
_cell_angle_gamma 94.39300

_symmetry_space_group_name_	'P 1'
_symmetry_space_group_name_H-M	'P 1'

loop_
_symmetry_equiv_pos_as_xyz
  x,y,z

loop_
_atom_site_label
_atom_site_type_symbol
_atom_site_fract_x
_atom_site_fract_y
_atom_site_fract_z
_atom_site_charge
Cu	Cu	0.86652 0.21787 0.90601 0.91500
Cu	Cu	0.04737 0.93329 0.93157 0.93300
Cu	Cu	0.63348 0.28213 0.40601 0.91400
Cu	Cu	0.45263 0.56671 0.43157 0.93800
Cu	Cu	0.13348 0.78213 0.09399 0.91600
Cu	Cu	0.95263 0.06671 0.06843 0.93400
Cu	Cu	0.36652 0.71787 0.59399 0.91500
Cu	Cu	0.54737 0.43329 0.56843 0.93900
H 	H 	0.78650 0.16680 0.69380 0.04800
H 	H 	0.94700 0.79800 0.70670 0.03500
H 	H 	0.78350 0.93930 0.51250 0.02800
H 	H 	0.71350 0.33320 0.19380 0.04500
H 	H 	0.55300 0.70200 0.20670 0.03300
H 	H 	0.71650 0.56070 0.01250 0.02800
H 	H 	0.21350 0.83320 0.30620 0.04800
H 	H 	0.05300 0.20200 0.29330 0.03500
H 	H 	0.21650 0.06070 0.48750 0.02800
H 	H 	0.28650 0.66680 0.80620 0.04500
H 	H 	0.44700 0.29800 0.79330 0.03300
H 	H 	0.28350 0.43930 0.98750 0.02800
C 	C 	0.86550 0.85010 0.60458 -0.14700
C 	C 	0.77430 0.07190 0.59613 -0.13100
C 	C 	0.80760 0.08710 0.67119 0.06200
C 	C 	0.87130 0.98590 0.71288 -0.12000
C 	C 	0.90550 0.00980 0.79304 0.38100
C 	C 	0.90240 0.86620 0.67956 0.06200
C 	C 	0.80440 0.95120 0.56252 0.06500
C 	C 	0.70420 0.18350 0.55426 0.39100
C 	C 	0.63450 0.64990 0.10458 -0.14800
C 	C 	0.72570 0.42810 0.09613 -0.13000
C 	C 	0.69240 0.41290 0.17119 0.06900
C 	C 	0.62870 0.51410 0.21288 -0.13000
C 	C 	0.59450 0.49020 0.29304 0.39200
C 	C 	0.59760 0.63380 0.17956 0.06600
C 	C 	0.69560 0.54880 0.06252 0.06200
C 	C 	0.79580 0.31650 0.05426 0.38700
C 	C 	0.13450 0.14990 0.39542 -0.14700
C 	C 	0.22570 0.92810 0.40387 -0.13100
C 	C 	0.19240 0.91290 0.32881 0.06200
C 	C 	0.12870 0.01410 0.28712 -0.12000
C 	C 	0.09450 0.99020 0.20696 0.38100
C 	C 	0.09760 0.13380 0.32044 0.06200
C 	C 	0.19560 0.04880 0.43748 0.06500
C 	C 	0.29580 0.81650 0.44574 0.39100
C 	C 	0.36550 0.35010 0.89542 -0.14800
C 	C 	0.27430 0.57190 0.90387 -0.13000
C 	C 	0.30760 0.58710 0.82881 0.06900
C 	C 	0.37130 0.48590 0.78712 -0.13000
C 	C 	0.40550 0.50980 0.70696 0.39200
C 	C 	0.40240 0.36620 0.82044 0.06600
C 	C 	0.30440 0.45120 0.93748 0.06200
C 	C 	0.20420 0.68350 0.94574 0.38700
S 	S 	0.88313 0.69170 0.56577 0.53300
S 	S 	0.61687 0.80830 0.06577 0.53100
S 	S 	0.11687 0.30830 0.43423 0.53300
S 	S 	0.38313 0.19170 0.93423 0.53100
O 	O 	0.95160 0.91530 0.83207 -0.37700
O 	O 	0.87080 0.05630 0.96473 -0.48600
O 	O 	0.65970 0.16340 0.48819 -0.42900
O 	O 	0.88370 0.12570 0.81406 -0.41100
O 	O 	0.88270 0.70290 0.48713 -0.27400
O 	O 	0.69320 0.28910 0.58979 -0.39000
O 	O 	0.72450 0.61550 0.59515 -0.37900
O 	O 	0.04950 0.64270 0.59569 -0.31000
O 	O 	0.54840 0.58470 0.33207 -0.38400
O 	O 	0.62920 0.44370 0.46473 -0.48700
O 	O 	0.84030 0.33660 0.98819 -0.42500
O 	O 	0.61630 0.37430 0.31406 -0.41400
O 	O 	0.61730 0.79710 0.98713 -0.27400
O 	O 	0.80680 0.21090 0.08979 -0.39100
O 	O 	0.77550 0.88450 0.09515 -0.37600
O 	O 	0.45050 0.85730 0.09569 -0.30700
O 	O 	0.04840 0.08470 0.16793 -0.37700
O 	O 	0.12920 0.94370 0.03527 -0.48600
O 	O 	0.34030 0.83660 0.51181 -0.42900
O 	O 	0.11630 0.87430 0.18594 -0.41100
O 	O 	0.11730 0.29710 0.51287 -0.27400
O 	O 	0.30680 0.71090 0.41021 -0.39000
O 	O 	0.27550 0.38450 0.40485 -0.37900
O 	O 	0.95050 0.35730 0.40431 -0.31000
O 	O 	0.45160 0.41530 0.66793 -0.38400
O 	O 	0.37080 0.55630 0.53527 -0.48700
O 	O 	0.15970 0.66340 0.01181 -0.42500
O 	O 	0.38370 0.62570 0.68594 -0.41400
O 	O 	0.38270 0.20290 0.01287 -0.27400
O 	O 	0.19320 0.78910 0.91021 -0.39100
O 	O 	0.22450 0.11550 0.90485 -0.37600
O 	O 	0.54950 0.14270 0.90431 -0.30700
