data_crystal

_cell_length_a 7.28060
_cell_length_b 10.10750
_cell_length_c 18.24210
_cell_angle_alpha 90.00000
_cell_angle_beta  90.00000
_cell_angle_gamma 94.88600

_symmetry_space_group_name_	'P 1'
_symmetry_space_group_name_H-M	'P 1'

loop_
_symmetry_equiv_pos_as_xyz
  x,y,z

loop_
_atom_site_label
_atom_site_type_symbol
_atom_site_fract_x
_atom_site_fract_y
_atom_site_fract_z
_atom_site_charge
Cu	Cu	0.55158 0.93579 0.93149 0.93800
Cu	Cu	0.86617 0.71698 0.59242 0.91800
Cu	Cu	0.94842 0.56421 0.43149 0.93800
Cu	Cu	0.63383 0.78302 0.09242 0.91700
Cu	Cu	0.44842 0.06421 0.06851 0.93700
Cu	Cu	0.13383 0.28302 0.40758 0.91700
Cu	Cu	0.05158 0.43579 0.56851 0.93800
Cu	Cu	0.36617 0.21698 0.90758 0.91700
H 	H 	0.45040 0.80040 0.70660 0.03200
H 	H 	0.29310 0.17100 0.69510 0.04500
H 	H 	0.28900 0.94550 0.51360 0.02800
H 	H 	0.04960 0.69960 0.20660 0.03200
H 	H 	0.20690 0.32900 0.19510 0.04500
H 	H 	0.21100 0.55450 0.01360 0.02800
H 	H 	0.54960 0.19960 0.29340 0.03200
H 	H 	0.70690 0.82900 0.30490 0.04500
H 	H 	0.71100 0.05450 0.48640 0.02800
H 	H 	0.95040 0.30040 0.79340 0.03200
H 	H 	0.79310 0.67100 0.80490 0.04500
H 	H 	0.78900 0.44550 0.98640 0.02800
C 	C 	0.40790 0.86970 0.67964 0.06900
C 	C 	0.28420 0.07770 0.59753 -0.12900
C 	C 	0.37420 0.85510 0.60517 -0.14900
C 	C 	0.31480 0.09160 0.67221 0.07200
C 	C 	0.37750 0.98890 0.71352 -0.13300
C 	C 	0.40830 0.01210 0.79402 0.39500
C 	C 	0.31190 0.95720 0.56344 0.06300
C 	C 	0.21200 0.18830 0.55574 0.38500
C 	C 	0.09210 0.63030 0.17964 0.06700
C 	C 	0.21580 0.42230 0.09753 -0.12800
C 	C 	0.12580 0.64490 0.10517 -0.14700
C 	C 	0.18520 0.40840 0.17221 0.06900
C 	C 	0.12250 0.51110 0.21352 -0.12900
C 	C 	0.09170 0.48790 0.29402 0.39200
C 	C 	0.18810 0.54280 0.06344 0.06200
C 	C 	0.28800 0.31170 0.05574 0.38200
C 	C 	0.59210 0.13030 0.32036 0.06900
C 	C 	0.71580 0.92230 0.40247 -0.12900
C 	C 	0.62580 0.14490 0.39483 -0.14900
C 	C 	0.68520 0.90840 0.32779 0.07200
C 	C 	0.62250 0.01110 0.28648 -0.13300
C 	C 	0.59170 0.98790 0.20598 0.39500
C 	C 	0.68810 0.04280 0.43656 0.06300
C 	C 	0.78800 0.81170 0.44426 0.38500
C 	C 	0.90790 0.36970 0.82036 0.06700
C 	C 	0.78420 0.57770 0.90247 -0.12800
C 	C 	0.87420 0.35510 0.89483 -0.14700
C 	C 	0.81480 0.59160 0.82779 0.06900
C 	C 	0.87750 0.48890 0.78648 -0.12900
C 	C 	0.90830 0.51210 0.70598 0.39200
C 	C 	0.81190 0.45720 0.93656 0.06200
C 	C 	0.71200 0.68830 0.94426 0.38200
S 	S 	0.38616 0.69646 0.56652 0.52400
S 	S 	0.11384 0.80354 0.06652 0.52200
S 	S 	0.61384 0.30354 0.43348 0.52400
S 	S 	0.88616 0.19646 0.93348 0.52200
O 	O 	0.54850 0.64260 0.59815 -0.30800
O 	O 	0.16350 0.16740 0.49033 -0.42900
O 	O 	0.39240 0.70870 0.48773 -0.26900
O 	O 	0.38440 0.12680 0.81554 -0.41600
O 	O 	0.36600 0.05250 0.96505 -0.48300
O 	O 	0.20510 0.29670 0.59073 -0.38300
O 	O 	0.45520 0.91620 0.83239 -0.38500
O 	O 	0.21820 0.62370 0.59307 -0.38300
O 	O 	0.95150 0.85740 0.09815 -0.30600
O 	O 	0.33650 0.33260 0.99033 -0.42700
O 	O 	0.10760 0.79130 0.98773 -0.26800
O 	O 	0.11560 0.37320 0.31554 -0.41600
O 	O 	0.13400 0.44750 0.46505 -0.48400
O 	O 	0.29490 0.20330 0.09073 -0.38400
O 	O 	0.04480 0.58380 0.33239 -0.38300
O 	O 	0.28180 0.87630 0.09307 -0.38300
O 	O 	0.45150 0.35740 0.40185 -0.30800
O 	O 	0.83650 0.83260 0.50967 -0.42900
O 	O 	0.60760 0.29130 0.51227 -0.26900
O 	O 	0.61560 0.87320 0.18446 -0.41600
O 	O 	0.63400 0.94750 0.03495 -0.48300
O 	O 	0.79490 0.70330 0.40927 -0.38300
O 	O 	0.54480 0.08380 0.16761 -0.38500
O 	O 	0.78180 0.37630 0.40693 -0.38300
O 	O 	0.04850 0.14260 0.90185 -0.30600
O 	O 	0.66350 0.66740 0.00967 -0.42700
O 	O 	0.89240 0.20870 0.01227 -0.26800
O 	O 	0.88440 0.62680 0.68446 -0.41600
O 	O 	0.86600 0.55250 0.53495 -0.48400
O 	O 	0.70510 0.79670 0.90927 -0.38400
O 	O 	0.95520 0.41620 0.66761 -0.38300
O 	O 	0.71820 0.12370 0.90693 -0.38300
