data_crystal

_cell_length_a 7.33360
_cell_length_b 10.12520
_cell_length_c 18.18290
_cell_angle_alpha 90.00000
_cell_angle_beta  90.00000
_cell_angle_gamma 94.49300

_symmetry_space_group_name_	'P 1'
_symmetry_space_group_name_H-M	'P 1'

loop_
_symmetry_equiv_pos_as_xyz
  x,y,z

loop_
_atom_site_label
_atom_site_type_symbol
_atom_site_fract_x
_atom_site_fract_y
_atom_site_fract_z
_atom_site_charge
Cu	Cu	0.86677 0.21792 0.90624 0.92300
Cu	Cu	0.04748 0.93336 0.93158 0.94700
Cu	Cu	0.63323 0.28208 0.40624 0.92100
Cu	Cu	0.45252 0.56664 0.43158 0.95000
Cu	Cu	0.13323 0.78208 0.09376 0.92200
Cu	Cu	0.95252 0.06664 0.06842 0.94600
Cu	Cu	0.36677 0.71792 0.59376 0.92100
Cu	Cu	0.54748 0.43336 0.56842 0.95000
H 	H 	0.77000 0.02100 0.96400 0.34700
H 	H 	0.78640 0.16760 0.69360 0.04500
H 	H 	0.78130 0.93900 0.51300 0.02700
H 	H 	0.94510 0.79860 0.70680 0.03200
H 	H 	0.73000 0.47900 0.46400 0.34700
H 	H 	0.71360 0.33240 0.19360 0.04100
H 	H 	0.71870 0.56100 0.01300 0.02600
H 	H 	0.55490 0.70140 0.20680 0.02900
H 	H 	0.23000 0.97900 0.03600 0.34700
H 	H 	0.21360 0.83240 0.30640 0.04500
H 	H 	0.21870 0.06100 0.48700 0.02700
H 	H 	0.05490 0.20140 0.29320 0.03200
H 	H 	0.27000 0.52100 0.53600 0.34700
H 	H 	0.28640 0.66760 0.80640 0.04100
H 	H 	0.28130 0.43900 0.98700 0.02600
H 	H 	0.44510 0.29860 0.79320 0.02900
C 	C 	0.87250 0.98590 0.71300 -0.12900
C 	C 	0.80810 0.08790 0.67110 0.06700
C 	C 	0.77590 0.07210 0.59630 -0.13700
C 	C 	0.80440 0.95150 0.56290 0.07100
C 	C 	0.86740 0.85070 0.60490 -0.15100
C 	C 	0.90200 0.86730 0.67950 0.07100
C 	C 	0.90620 0.01060 0.79290 0.38800
C 	C 	0.70430 0.18260 0.55470 0.38600
C 	C 	0.62750 0.51410 0.21300 -0.14100
C 	C 	0.69190 0.41210 0.17110 0.07500
C 	C 	0.72410 0.42790 0.09630 -0.13600
C 	C 	0.69560 0.54850 0.06290 0.06800
C 	C 	0.63260 0.64930 0.10490 -0.15200
C 	C 	0.59800 0.63270 0.17950 0.07500
C 	C 	0.59380 0.48940 0.29290 0.39900
C 	C 	0.79570 0.31740 0.05470 0.38200
C 	C 	0.12750 0.01410 0.28700 -0.12900
C 	C 	0.19190 0.91210 0.32890 0.06700
C 	C 	0.22410 0.92790 0.40370 -0.13700
C 	C 	0.19560 0.04850 0.43710 0.07100
C 	C 	0.13260 0.14930 0.39510 -0.15100
C 	C 	0.09800 0.13270 0.32050 0.07100
C 	C 	0.09380 0.98940 0.20710 0.38800
C 	C 	0.29570 0.81740 0.44530 0.38600
C 	C 	0.37250 0.48590 0.78700 -0.14100
C 	C 	0.30810 0.58790 0.82890 0.07500
C 	C 	0.27590 0.57210 0.90370 -0.13600
C 	C 	0.30440 0.45150 0.93710 0.06800
C 	C 	0.36740 0.35070 0.89510 -0.15200
C 	C 	0.40200 0.36730 0.82050 0.07500
C 	C 	0.40620 0.51060 0.70710 0.39900
C 	C 	0.20430 0.68260 0.94530 0.38200
S 	S 	0.88384 0.69198 0.56601 0.53500
S 	S 	0.61616 0.80802 0.06601 0.53300
S 	S 	0.11616 0.30802 0.43399 0.53500
S 	S 	0.38384 0.19198 0.93399 0.53300
O 	O 	0.88450 0.12510 0.81456 -0.41800
O 	O 	0.95250 0.91550 0.83188 -0.38300
O 	O 	0.65920 0.16320 0.48856 -0.42600
O 	O 	0.69390 0.28990 0.59020 -0.39100
O 	O 	0.05070 0.64360 0.59533 -0.34200
O 	O 	0.72540 0.61560 0.59530 -0.38400
O 	O 	0.88210 0.70370 0.48713 -0.30100
O 	O 	0.87160 0.05660 0.96515 -0.77300
O 	O 	0.61550 0.37490 0.31456 -0.42100
O 	O 	0.54750 0.58450 0.33188 -0.39000
O 	O 	0.84080 0.33680 0.98856 -0.42200
O 	O 	0.80610 0.21010 0.09020 -0.39200
O 	O 	0.44930 0.85640 0.09533 -0.33900
O 	O 	0.77460 0.88440 0.09530 -0.38100
O 	O 	0.61790 0.79630 0.98713 -0.30100
O 	O 	0.62840 0.44340 0.46515 -0.77400
O 	O 	0.11550 0.87490 0.18544 -0.41800
O 	O 	0.04750 0.08450 0.16812 -0.38300
O 	O 	0.34080 0.83680 0.51144 -0.42600
O 	O 	0.30610 0.71010 0.40980 -0.39100
O 	O 	0.94930 0.35640 0.40467 -0.34200
O 	O 	0.27460 0.38440 0.40470 -0.38400
O 	O 	0.11790 0.29630 0.51287 -0.30100
O 	O 	0.12840 0.94340 0.03485 -0.77300
O 	O 	0.38450 0.62510 0.68544 -0.42100
O 	O 	0.45250 0.41550 0.66812 -0.39000
O 	O 	0.15920 0.66320 0.01144 -0.42200
O 	O 	0.19390 0.78990 0.90980 -0.39200
O 	O 	0.55070 0.14360 0.90467 -0.33900
O 	O 	0.22540 0.11560 0.90470 -0.38100
O 	O 	0.38210 0.20370 0.01287 -0.30100
O 	O 	0.37160 0.55660 0.53485 -0.77400
