data_crystal

_cell_length_a 7.35500
_cell_length_b 10.15200
_cell_length_c 18.21500
_cell_angle_alpha 90.00000
_cell_angle_beta  90.00000
_cell_angle_gamma 94.50200

_symmetry_space_group_name_	'P 1'
_symmetry_space_group_name_H-M	'P 1'

loop_
_symmetry_equiv_pos_as_xyz
  x,y,z

loop_
_atom_site_label
_atom_site_type_symbol
_atom_site_fract_x
_atom_site_fract_y
_atom_site_fract_z
_atom_site_charge
Cu	Cu	0.86657 0.21767 0.90664 0.91400
Cu	Cu	0.04923 0.93435 0.93152 0.93100
Cu	Cu	0.63343 0.28233 0.40664 0.91400
Cu	Cu	0.45077 0.56565 0.43152 0.93600
Cu	Cu	0.13343 0.78233 0.09336 0.91500
Cu	Cu	0.95077 0.06565 0.06848 0.93200
Cu	Cu	0.36657 0.71767 0.59336 0.91500
Cu	Cu	0.54923 0.43435 0.56848 0.93700
H 	H 	0.78920 0.16840 0.69420 0.05000
H 	H 	0.94900 0.79920 0.70690 0.03600
H 	H 	0.78650 0.94140 0.51290 0.03000
H 	H 	0.71080 0.33160 0.19420 0.04700
H 	H 	0.55100 0.70080 0.20690 0.03400
H 	H 	0.71350 0.55860 0.01290 0.03000
H 	H 	0.21080 0.83160 0.30580 0.05000
H 	H 	0.05100 0.20080 0.29310 0.03600
H 	H 	0.21350 0.05860 0.48710 0.03000
H 	H 	0.28920 0.66840 0.80580 0.04700
H 	H 	0.44900 0.29920 0.79310 0.03400
H 	H 	0.28650 0.44140 0.98710 0.03000
C 	C 	0.86880 0.85170 0.60488 -0.14100
C 	C 	0.77790 0.07350 0.59643 -0.12200
C 	C 	0.81040 0.08890 0.67157 0.05400
C 	C 	0.87410 0.98690 0.71319 -0.11400
C 	C 	0.90710 0.01080 0.79337 0.37600
C 	C 	0.90500 0.86750 0.67979 0.05700
C 	C 	0.80760 0.95320 0.56291 0.05900
C 	C 	0.70740 0.18550 0.55491 0.37500
C 	C 	0.63120 0.64830 0.10488 -0.14200
C 	C 	0.72210 0.42650 0.09643 -0.12000
C 	C 	0.68960 0.41110 0.17157 0.06100
C 	C 	0.62590 0.51310 0.21319 -0.12400
C 	C 	0.59290 0.48920 0.29337 0.38600
C 	C 	0.59500 0.63250 0.17979 0.06100
C 	C 	0.69240 0.54680 0.06291 0.05600
C 	C 	0.79260 0.31450 0.05491 0.37100
C 	C 	0.13120 0.14830 0.39512 -0.14100
C 	C 	0.22210 0.92650 0.40357 -0.12200
C 	C 	0.18960 0.91110 0.32843 0.05400
C 	C 	0.12590 0.01310 0.28681 -0.11400
C 	C 	0.09290 0.98920 0.20663 0.37600
C 	C 	0.09500 0.13250 0.32021 0.05700
C 	C 	0.19240 0.04680 0.43709 0.05900
C 	C 	0.29260 0.81450 0.44509 0.37500
C 	C 	0.36880 0.35170 0.89512 -0.14200
C 	C 	0.27790 0.57350 0.90357 -0.12000
C 	C 	0.31040 0.58890 0.82843 0.06100
C 	C 	0.37410 0.48690 0.78681 -0.12400
C 	C 	0.40710 0.51080 0.70663 0.38600
C 	C 	0.40500 0.36750 0.82021 0.06100
C 	C 	0.30760 0.45320 0.93709 0.05600
C 	C 	0.20740 0.68550 0.94509 0.37100
S 	S 	0.88458 0.69354 0.56614 0.52200
S 	S 	0.61542 0.80646 0.06614 0.52100
S 	S 	0.11542 0.30646 0.43386 0.52200
S 	S 	0.38458 0.19354 0.93386 0.52100
O 	O 	0.95340 0.91560 0.83229 -0.37500
O 	O 	0.86880 0.05477 0.96484 -0.48400
O 	O 	0.66100 0.16490 0.48891 -0.42500
O 	O 	0.88470 0.12620 0.81479 -0.41100
O 	O 	0.88720 0.70570 0.48716 -0.26800
O 	O 	0.69920 0.29310 0.59033 -0.38100
O 	O 	0.72220 0.61890 0.59414 -0.37700
O 	O 	0.04870 0.64240 0.59674 -0.30700
O 	O 	0.54660 0.58440 0.33229 -0.38200
O 	O 	0.63120 0.44523 0.46484 -0.48500
O 	O 	0.83900 0.33510 0.98891 -0.42100
O 	O 	0.61530 0.37380 0.31479 -0.41300
O 	O 	0.61280 0.79430 0.98716 -0.26900
O 	O 	0.80080 0.20690 0.09033 -0.38300
O 	O 	0.77780 0.88110 0.09414 -0.37500
O 	O 	0.45130 0.85760 0.09674 -0.30400
O 	O 	0.04660 0.08440 0.16771 -0.37500
O 	O 	0.13120 0.94523 0.03516 -0.48400
O 	O 	0.33900 0.83510 0.51109 -0.42500
O 	O 	0.11530 0.87380 0.18521 -0.41100
O 	O 	0.11280 0.29430 0.51284 -0.26800
O 	O 	0.30080 0.70690 0.40967 -0.38100
O 	O 	0.27780 0.38110 0.40586 -0.37700
O 	O 	0.95130 0.35760 0.40326 -0.30700
O 	O 	0.45340 0.41560 0.66771 -0.38200
O 	O 	0.36880 0.55477 0.53516 -0.48500
O 	O 	0.16100 0.66490 0.01109 -0.42100
O 	O 	0.38470 0.62620 0.68521 -0.41300
O 	O 	0.38720 0.20570 0.01284 -0.26900
O 	O 	0.19920 0.79310 0.90967 -0.38300
O 	O 	0.22220 0.11890 0.90586 -0.37500
O 	O 	0.54870 0.14240 0.90326 -0.30400
