data_crystal

_cell_length_a 7.30600
_cell_length_b 10.20500
_cell_length_c 18.11100
_cell_angle_alpha 90.00000
_cell_angle_beta  90.00000
_cell_angle_gamma 94.24800

_symmetry_space_group_name_	'P 1'
_symmetry_space_group_name_H-M	'P 1'

loop_
_symmetry_equiv_pos_as_xyz
  x,y,z

loop_
_atom_site_label
_atom_site_type_symbol
_atom_site_fract_x
_atom_site_fract_y
_atom_site_fract_z
_atom_site_charge
Cu	Cu	0.86458 0.21589 0.90528 0.92000
Cu	Cu	0.03948 0.92978 0.93159 0.93600
Cu	Cu	0.63542 0.28411 0.40528 0.91800
Cu	Cu	0.46052 0.57022 0.43159 0.94000
Cu	Cu	0.13542 0.78411 0.09472 0.91900
Cu	Cu	0.96052 0.07022 0.06841 0.93500
Cu	Cu	0.36458 0.71589 0.59472 0.91800
Cu	Cu	0.53948 0.42978 0.56841 0.94000
H 	H 	0.77940 0.16470 0.69190 0.04700
H 	H 	0.93580 0.79730 0.70700 0.03400
H 	H 	0.77250 0.93680 0.51070 0.02900
H 	H 	0.72060 0.33530 0.19190 0.04400
H 	H 	0.56420 0.70270 0.20700 0.03200
H 	H 	0.72750 0.56320 0.01070 0.02900
H 	H 	0.22060 0.83530 0.30810 0.04700
H 	H 	0.06420 0.20270 0.29300 0.03400
H 	H 	0.22750 0.06320 0.48930 0.02900
H 	H 	0.27940 0.66470 0.80810 0.04400
H 	H 	0.43580 0.29730 0.79300 0.03200
H 	H 	0.27250 0.43680 0.98930 0.02900
C 	C 	0.85860 0.84830 0.60400 -0.15000
C 	C 	0.76600 0.06910 0.59510 -0.13600
C 	C 	0.79990 0.08500 0.66960 0.06700
C 	C 	0.86390 0.98470 0.71200 -0.12300
C 	C 	0.89920 0.00920 0.79240 0.38000
C 	C 	0.89330 0.86530 0.67920 0.06500
C 	C 	0.79500 0.94910 0.56080 0.06600
C 	C 	0.69420 0.18000 0.55300 0.40400
C 	C 	0.64140 0.65170 0.10400 -0.15100
C 	C 	0.73400 0.43090 0.09510 -0.13500
C 	C 	0.70010 0.41500 0.16960 0.07500
C 	C 	0.63610 0.51530 0.21200 -0.13300
C 	C 	0.60080 0.49080 0.29240 0.39000
C 	C 	0.60670 0.63470 0.17920 0.06900
C 	C 	0.70500 0.55090 0.06080 0.06400
C 	C 	0.80580 0.32000 0.05300 0.40000
C 	C 	0.14140 0.15170 0.39600 -0.15000
C 	C 	0.23400 0.93090 0.40490 -0.13600
C 	C 	0.20010 0.91500 0.33040 0.06700
C 	C 	0.13610 0.01530 0.28800 -0.12300
C 	C 	0.10080 0.99080 0.20760 0.38000
C 	C 	0.10670 0.13470 0.32080 0.06500
C 	C 	0.20500 0.05090 0.43920 0.06600
C 	C 	0.30580 0.82000 0.44700 0.40400
C 	C 	0.35860 0.34830 0.89600 -0.15100
C 	C 	0.26600 0.56910 0.90490 -0.13500
C 	C 	0.29990 0.58500 0.83040 0.07500
C 	C 	0.36390 0.48470 0.78800 -0.13300
C 	C 	0.39920 0.50920 0.70760 0.39000
C 	C 	0.39330 0.36530 0.82080 0.06900
C 	C 	0.29500 0.44910 0.93920 0.06400
C 	C 	0.19420 0.68000 0.94700 0.40000
S 	S 	0.87610 0.69042 0.56509 0.54800
S 	S 	0.62390 0.80958 0.06509 0.54600
S 	S 	0.12390 0.30958 0.43491 0.54800
S 	S 	0.37610 0.19042 0.93491 0.54600
O 	O 	0.94410 0.91440 0.83217 -0.37500
O 	O 	0.86970 0.05830 0.96558 -0.48600
O 	O 	0.65600 0.16170 0.48620 -0.43200
O 	O 	0.87750 0.12430 0.81350 -0.41300
O 	O 	0.85950 0.70060 0.48690 -0.28700
O 	O 	0.67780 0.28240 0.58920 -0.40000
O 	O 	0.72620 0.61110 0.59880 -0.37400
O 	O 	0.04840 0.64710 0.59150 -0.31800
O 	O 	0.55590 0.58560 0.33217 -0.38200
O 	O 	0.63030 0.44170 0.46558 -0.48800
O 	O 	0.84400 0.33830 0.98620 -0.42800
O 	O 	0.62250 0.37570 0.31350 -0.41600
O 	O 	0.64050 0.79940 0.98690 -0.28700
O 	O 	0.82220 0.21760 0.08920 -0.40100
O 	O 	0.77380 0.88890 0.09880 -0.37200
O 	O 	0.45160 0.85290 0.09150 -0.31500
O 	O 	0.05590 0.08560 0.16783 -0.37500
O 	O 	0.13030 0.94170 0.03442 -0.48600
O 	O 	0.34400 0.83830 0.51380 -0.43200
O 	O 	0.12250 0.87570 0.18650 -0.41300
O 	O 	0.14050 0.29940 0.51310 -0.28700
O 	O 	0.32220 0.71760 0.41080 -0.40000
O 	O 	0.27380 0.38890 0.40120 -0.37400
O 	O 	0.95160 0.35290 0.40850 -0.31800
O 	O 	0.44410 0.41440 0.66783 -0.38200
O 	O 	0.36970 0.55830 0.53442 -0.48800
O 	O 	0.15600 0.66170 0.01380 -0.42800
O 	O 	0.37750 0.62430 0.68650 -0.41600
O 	O 	0.35950 0.20060 0.01310 -0.28700
O 	O 	0.17780 0.78240 0.91080 -0.40100
O 	O 	0.22620 0.11110 0.90120 -0.37200
O 	O 	0.54840 0.14710 0.90850 -0.31500
