data_crystal

_cell_length_a 7.34130
_cell_length_b 10.15570
_cell_length_c 18.17500
_cell_angle_alpha 90.00000
_cell_angle_beta  90.00000
_cell_angle_gamma 94.32000

_symmetry_space_group_name_	'P 1'
_symmetry_space_group_name_H-M	'P 1'

loop_
_symmetry_equiv_pos_as_xyz
  x,y,z

loop_
_atom_site_label
_atom_site_type_symbol
_atom_site_fract_x
_atom_site_fract_y
_atom_site_fract_z
_atom_site_charge
Cu	Cu	0.86637 0.21779 0.90565 0.91700
Cu	Cu	0.04588 0.93247 0.93157 0.93500
Cu	Cu	0.63363 0.28221 0.40565 0.91700
Cu	Cu	0.45412 0.56753 0.43157 0.94000
Cu	Cu	0.13363 0.78221 0.09435 0.91700
Cu	Cu	0.95412 0.06753 0.06843 0.93500
Cu	Cu	0.36637 0.71779 0.59435 0.91600
Cu	Cu	0.54588 0.43247 0.56843 0.93900
H 	H 	0.78270 0.16550 0.69320 0.04800
H 	H 	0.94350 0.79680 0.70670 0.03500
H 	H 	0.77960 0.93800 0.51180 0.02900
H 	H 	0.71730 0.33450 0.19320 0.04500
H 	H 	0.55650 0.70320 0.20670 0.03300
H 	H 	0.72040 0.56200 0.01180 0.02800
H 	H 	0.21730 0.83450 0.30680 0.04800
H 	H 	0.05650 0.20320 0.29330 0.03500
H 	H 	0.22040 0.06200 0.48820 0.02900
H 	H 	0.28270 0.66550 0.80680 0.04500
H 	H 	0.44350 0.29680 0.79330 0.03300
H 	H 	0.27960 0.43800 0.98820 0.02800
C 	C 	0.86360 0.84930 0.60449 -0.14600
C 	C 	0.77320 0.07030 0.59554 -0.13000
C 	C 	0.80520 0.08610 0.67068 0.06000
C 	C 	0.87000 0.98510 0.71238 -0.11800
C 	C 	0.90450 0.00900 0.79288 0.38000
C 	C 	0.90000 0.86520 0.67934 0.06100
C 	C 	0.80170 0.95030 0.56180 0.06400
C 	C 	0.70200 0.18230 0.55380 0.39000
C 	C 	0.63640 0.65070 0.10449 -0.14700
C 	C 	0.72680 0.42970 0.09554 -0.12800
C 	C 	0.69480 0.41390 0.17068 0.06700
C 	C 	0.63000 0.51490 0.21238 -0.12900
C 	C 	0.59550 0.49100 0.29288 0.39100
C 	C 	0.60000 0.63480 0.17934 0.06500
C 	C 	0.69830 0.54970 0.06180 0.06100
C 	C 	0.79800 0.31770 0.05380 0.38600
C 	C 	0.13640 0.15070 0.39551 -0.14600
C 	C 	0.22680 0.92970 0.40446 -0.13000
C 	C 	0.19480 0.91390 0.32932 0.06000
C 	C 	0.13000 0.01490 0.28762 -0.11800
C 	C 	0.09550 0.99100 0.20712 0.38000
C 	C 	0.10000 0.13480 0.32066 0.06100
C 	C 	0.19830 0.04970 0.43820 0.06400
C 	C 	0.29800 0.81770 0.44620 0.39000
C 	C 	0.36360 0.34930 0.89551 -0.14700
C 	C 	0.27320 0.57030 0.90446 -0.12800
C 	C 	0.30520 0.58610 0.82932 0.06700
C 	C 	0.37000 0.48510 0.78762 -0.12900
C 	C 	0.40450 0.50900 0.70712 0.39100
C 	C 	0.40000 0.36520 0.82066 0.06500
C 	C 	0.30170 0.45030 0.93820 0.06100
C 	C 	0.20200 0.68230 0.94620 0.38600
S 	S 	0.88200 0.69083 0.56552 0.53700
S 	S 	0.61800 0.80917 0.06552 0.53500
S 	S 	0.11800 0.30917 0.43448 0.53700
S 	S 	0.38200 0.19083 0.93448 0.53500
O 	O 	0.95040 0.91498 0.83203 -0.37800
O 	O 	0.87090 0.05717 0.96496 -0.48600
O 	O 	0.65870 0.16280 0.48757 -0.42900
O 	O 	0.88350 0.12529 0.81385 -0.41100
O 	O 	0.87890 0.70210 0.48729 -0.27800
O 	O 	0.69020 0.28740 0.58968 -0.39000
O 	O 	0.72560 0.61390 0.59574 -0.37800
O 	O 	0.04970 0.64260 0.59495 -0.31100
O 	O 	0.54960 0.58502 0.33203 -0.38500
O 	O 	0.62910 0.44283 0.46496 -0.48700
O 	O 	0.84130 0.33720 0.98757 -0.42500
O 	O 	0.61650 0.37471 0.31385 -0.41400
O 	O 	0.62110 0.79790 0.98729 -0.27800
O 	O 	0.80980 0.21260 0.08968 -0.39100
O 	O 	0.77440 0.88610 0.09574 -0.37600
O 	O 	0.45030 0.85740 0.09495 -0.30800
O 	O 	0.04960 0.08502 0.16797 -0.37800
O 	O 	0.12910 0.94283 0.03504 -0.48600
O 	O 	0.34130 0.83720 0.51243 -0.42900
O 	O 	0.11650 0.87471 0.18615 -0.41100
O 	O 	0.12110 0.29790 0.51271 -0.27800
O 	O 	0.30980 0.71260 0.41032 -0.39000
O 	O 	0.27440 0.38610 0.40426 -0.37800
O 	O 	0.95030 0.35740 0.40505 -0.31100
O 	O 	0.45040 0.41498 0.66797 -0.38500
O 	O 	0.37090 0.55717 0.53504 -0.48700
O 	O 	0.15870 0.66280 0.01243 -0.42500
O 	O 	0.38350 0.62529 0.68615 -0.41400
O 	O 	0.37890 0.20210 0.01271 -0.27800
O 	O 	0.19020 0.78740 0.91032 -0.39100
O 	O 	0.22560 0.11390 0.90426 -0.37600
O 	O 	0.54970 0.14260 0.90505 -0.30800
