data_crystal

_cell_length_a 7.32060
_cell_length_b 10.13310
_cell_length_c 18.24830
_cell_angle_alpha 90.00000
_cell_angle_beta  90.00000
_cell_angle_gamma 94.68100

_symmetry_space_group_name_	'P 1'
_symmetry_space_group_name_H-M	'P 1'

loop_
_symmetry_equiv_pos_as_xyz
  x,y,z

loop_
_atom_site_label
_atom_site_type_symbol
_atom_site_fract_x
_atom_site_fract_y
_atom_site_fract_z
_atom_site_charge
Cu	Cu	0.86637 0.21741 0.90708 0.91700
Cu	Cu	0.05051 0.93517 0.93151 0.93400
Cu	Cu	0.63363 0.28259 0.40708 0.91600
Cu	Cu	0.44949 0.56483 0.43151 0.93900
Cu	Cu	0.13363 0.78259 0.09291 0.91700
Cu	Cu	0.94949 0.06483 0.06849 0.93400
Cu	Cu	0.36637 0.71741 0.59291 0.91600
Cu	Cu	0.55051 0.43517 0.56849 0.93900
H 	H 	0.79120 0.16940 0.69440 0.04900
H 	H 	0.95150 0.80060 0.70700 0.03600
H 	H 	0.78950 0.94360 0.51290 0.03000
H 	H 	0.70880 0.33060 0.19440 0.04600
H 	H 	0.54850 0.69940 0.20700 0.03400
H 	H 	0.71050 0.55640 0.01290 0.03000
H 	H 	0.20880 0.83060 0.30560 0.04900
H 	H 	0.04850 0.19940 0.29300 0.03600
H 	H 	0.21050 0.05640 0.48710 0.03000
H 	H 	0.29120 0.66940 0.80560 0.04600
H 	H 	0.45150 0.30060 0.79300 0.03400
H 	H 	0.28950 0.44360 0.98710 0.03000
C 	C 	0.87130 0.85320 0.60478 -0.14200
C 	C 	0.78100 0.07570 0.59687 -0.12500
C 	C 	0.81270 0.08990 0.67168 0.05700
C 	C 	0.87580 0.98800 0.71336 -0.11600
C 	C 	0.90770 0.01090 0.79358 0.37700
C 	C 	0.90730 0.86900 0.67998 0.05700
C 	C 	0.81050 0.95510 0.56283 0.06000
C 	C 	0.71020 0.18750 0.55521 0.38300
C 	C 	0.62870 0.64680 0.10478 -0.14300
C 	C 	0.71900 0.42430 0.09687 -0.12400
C 	C 	0.68730 0.41010 0.17168 0.06500
C 	C 	0.62420 0.51200 0.21336 -0.12600
C 	C 	0.59230 0.48910 0.29358 0.38700
C 	C 	0.59270 0.63100 0.17998 0.06100
C 	C 	0.68950 0.54490 0.06283 0.05700
C 	C 	0.78980 0.31250 0.05521 0.37900
C 	C 	0.12870 0.14680 0.39522 -0.14200
C 	C 	0.21900 0.92430 0.40313 -0.12500
C 	C 	0.18730 0.91010 0.32832 0.05700
C 	C 	0.12420 0.01200 0.28664 -0.11600
C 	C 	0.09230 0.98910 0.20642 0.37700
C 	C 	0.09270 0.13100 0.32002 0.05700
C 	C 	0.18950 0.04490 0.43717 0.06000
C 	C 	0.28980 0.81250 0.44479 0.38300
C 	C 	0.37130 0.35320 0.89522 -0.14300
C 	C 	0.28100 0.57570 0.90313 -0.12400
C 	C 	0.31270 0.58990 0.82832 0.06500
C 	C 	0.37580 0.48800 0.78664 -0.12600
C 	C 	0.40770 0.51090 0.70642 0.38700
C 	C 	0.40730 0.36900 0.82002 0.06100
C 	C 	0.31050 0.45510 0.93717 0.05700
C 	C 	0.21020 0.68750 0.94479 0.37900
S 	S 	0.88547 0.69499 0.56628 0.52200
S 	S 	0.61453 0.80501 0.06628 0.52000
S 	S 	0.11453 0.30501 0.43372 0.52200
S 	S 	0.38547 0.19499 0.93372 0.52000
O 	O 	0.95430 0.91600 0.83223 -0.37600
O 	O 	0.86810 0.05400 0.96483 -0.48300
O 	O 	0.66220 0.16640 0.48971 -0.42800
O 	O 	0.88440 0.12660 0.81506 -0.40900
O 	O 	0.89020 0.70730 0.48742 -0.26700
O 	O 	0.70210 0.29460 0.59044 -0.38500
O 	O 	0.71980 0.62090 0.59345 -0.38000
O 	O 	0.04880 0.64270 0.59723 -0.30900
O 	O 	0.54570 0.58400 0.33223 -0.38300
O 	O 	0.63190 0.44600 0.46483 -0.48500
O 	O 	0.83780 0.33360 0.98971 -0.42400
O 	O 	0.61560 0.37340 0.31506 -0.41200
O 	O 	0.60980 0.79270 0.98742 -0.26800
O 	O 	0.79790 0.20540 0.09044 -0.38600
O 	O 	0.78020 0.87910 0.09345 -0.37800
O 	O 	0.45120 0.85730 0.09723 -0.30600
O 	O 	0.04570 0.08400 0.16777 -0.37600
O 	O 	0.13190 0.94600 0.03517 -0.48400
O 	O 	0.33780 0.83360 0.51029 -0.42800
O 	O 	0.11560 0.87340 0.18494 -0.40900
O 	O 	0.10980 0.29270 0.51258 -0.26700
O 	O 	0.29790 0.70540 0.40956 -0.38500
O 	O 	0.28020 0.37910 0.40655 -0.38000
O 	O 	0.95120 0.35730 0.40277 -0.30900
O 	O 	0.45430 0.41600 0.66777 -0.38300
O 	O 	0.36810 0.55400 0.53517 -0.48500
O 	O 	0.16220 0.66640 0.01029 -0.42500
O 	O 	0.38440 0.62660 0.68494 -0.41200
O 	O 	0.39020 0.20730 0.01258 -0.26800
O 	O 	0.20210 0.79460 0.90956 -0.38600
O 	O 	0.21980 0.12090 0.90655 -0.37800
O 	O 	0.54880 0.14270 0.90277 -0.30600
