data_crystal

_cell_length_a 7.31000
_cell_length_b 10.14500
_cell_length_c 18.28000
_cell_angle_alpha 90.00000
_cell_angle_beta  90.00000
_cell_angle_gamma 94.64500

_symmetry_space_group_name_	'P 1'
_symmetry_space_group_name_H-M	'P 1'

loop_
_symmetry_equiv_pos_as_xyz
  x,y,z

loop_
_atom_site_label
_atom_site_type_symbol
_atom_site_fract_x
_atom_site_fract_y
_atom_site_fract_z
_atom_site_charge
Cu	Cu	0.86646 0.21750 0.90687 0.91500
Cu	Cu	0.04992 0.93480 0.93152 0.93300
Cu	Cu	0.63354 0.28250 0.40687 0.91400
Cu	Cu	0.45008 0.56520 0.43152 0.93800
Cu	Cu	0.13354 0.78250 0.09313 0.91500
Cu	Cu	0.95008 0.06520 0.06848 0.93300
Cu	Cu	0.36646 0.71750 0.59313 0.91400
Cu	Cu	0.54992 0.43480 0.56848 0.93800
H 	H 	0.78940 0.16870 0.69440 0.05000
H 	H 	0.94890 0.79900 0.70690 0.03700
H 	H 	0.78730 0.94240 0.51330 0.03100
H 	H 	0.71060 0.33130 0.19440 0.04700
H 	H 	0.55110 0.70100 0.20690 0.03500
H 	H 	0.71270 0.55760 0.01330 0.03000
H 	H 	0.21060 0.83130 0.30560 0.05000
H 	H 	0.05110 0.20100 0.29310 0.03700
H 	H 	0.21270 0.05760 0.48670 0.03100
H 	H 	0.28940 0.66870 0.80560 0.04700
H 	H 	0.44890 0.29900 0.79310 0.03500
H 	H 	0.28730 0.44240 0.98670 0.03000
C 	C 	0.87020 0.85300 0.60491 -0.14000
C 	C 	0.77980 0.07480 0.59693 -0.12200
C 	C 	0.81140 0.08930 0.67174 0.05400
C 	C 	0.87500 0.98780 0.71335 -0.11200
C 	C 	0.90720 0.01080 0.79332 0.37200
C 	C 	0.90570 0.86780 0.67988 0.05400
C 	C 	0.80890 0.95410 0.56306 0.05700
C 	C 	0.70890 0.18650 0.55506 0.37900
C 	C 	0.62980 0.64700 0.10491 -0.14100
C 	C 	0.72020 0.42520 0.09693 -0.12000
C 	C 	0.68860 0.41070 0.17174 0.06100
C 	C 	0.62500 0.51220 0.21335 -0.12300
C 	C 	0.59280 0.48920 0.29332 0.38200
C 	C 	0.59430 0.63220 0.17988 0.05800
C 	C 	0.69110 0.54590 0.06306 0.05400
C 	C 	0.79110 0.31350 0.05506 0.37500
C 	C 	0.12980 0.14700 0.39509 -0.14000
C 	C 	0.22020 0.92520 0.40307 -0.12200
C 	C 	0.18860 0.91070 0.32826 0.05400
C 	C 	0.12500 0.01220 0.28665 -0.11200
C 	C 	0.09280 0.98920 0.20668 0.37200
C 	C 	0.09430 0.13220 0.32012 0.05400
C 	C 	0.19110 0.04590 0.43694 0.05700
C 	C 	0.29110 0.81350 0.44494 0.37900
C 	C 	0.37020 0.35300 0.89509 -0.14100
C 	C 	0.27980 0.57480 0.90307 -0.12000
C 	C 	0.31140 0.58930 0.82826 0.06100
C 	C 	0.37500 0.48780 0.78665 -0.12300
C 	C 	0.40720 0.51080 0.70668 0.38200
C 	C 	0.40570 0.36780 0.82012 0.05800
C 	C 	0.30890 0.45410 0.93694 0.05400
C 	C 	0.20890 0.68650 0.94494 0.37500
S 	S 	0.88491 0.69433 0.56620 0.52400
S 	S 	0.61509 0.80567 0.06620 0.52200
S 	S 	0.11509 0.30567 0.43380 0.52400
S 	S 	0.38491 0.19433 0.93380 0.52200
O 	O 	0.95450 0.91567 0.83247 -0.37200
O 	O 	0.86860 0.05416 0.96497 -0.48300
O 	O 	0.66160 0.16570 0.48956 -0.42600
O 	O 	0.88410 0.12610 0.81496 -0.40700
O 	O 	0.88840 0.70660 0.48738 -0.26900
O 	O 	0.70030 0.29360 0.59050 -0.38300
O 	O 	0.72090 0.62010 0.59378 -0.38100
O 	O 	0.04860 0.64280 0.59693 -0.31000
O 	O 	0.54550 0.58433 0.33247 -0.37900
O 	O 	0.63140 0.44584 0.46497 -0.48400
O 	O 	0.83840 0.33430 0.98956 -0.42200
O 	O 	0.61590 0.37390 0.31496 -0.41000
O 	O 	0.61160 0.79340 0.98738 -0.26900
O 	O 	0.79970 0.20640 0.09050 -0.38400
O 	O 	0.77910 0.87990 0.09378 -0.37800
O 	O 	0.45140 0.85720 0.09693 -0.30700
O 	O 	0.04550 0.08433 0.16753 -0.37200
O 	O 	0.13140 0.94584 0.03503 -0.48300
O 	O 	0.33840 0.83430 0.51044 -0.42600
O 	O 	0.11590 0.87390 0.18504 -0.40700
O 	O 	0.11160 0.29340 0.51262 -0.26900
O 	O 	0.29970 0.70640 0.40950 -0.38300
O 	O 	0.27910 0.37990 0.40622 -0.38100
O 	O 	0.95140 0.35720 0.40307 -0.31000
O 	O 	0.45450 0.41567 0.66753 -0.37900
O 	O 	0.36860 0.55416 0.53503 -0.48400
O 	O 	0.16160 0.66570 0.01044 -0.42200
O 	O 	0.38410 0.62610 0.68504 -0.41000
O 	O 	0.38840 0.20660 0.01262 -0.26900
O 	O 	0.20030 0.79360 0.90950 -0.38400
O 	O 	0.22090 0.12010 0.90622 -0.37800
O 	O 	0.54860 0.14280 0.90307 -0.30700
