data_crystal

_cell_length_a 7.29490
_cell_length_b 10.12450
_cell_length_c 18.27260
_cell_angle_alpha 90.00000
_cell_angle_beta  90.00000
_cell_angle_gamma 94.89100

_symmetry_space_group_name_	'P 1'
_symmetry_space_group_name_H-M	'P 1'

loop_
_symmetry_equiv_pos_as_xyz
  x,y,z

loop_
_atom_site_label
_atom_site_type_symbol
_atom_site_fract_x
_atom_site_fract_y
_atom_site_fract_z
_atom_site_charge
Cu	Cu	0.86633 0.21714 0.90752 0.91600
Cu	Cu	0.05141 0.93577 0.93149 0.93300
Cu	Cu	0.63367 0.28286 0.40752 0.91600
Cu	Cu	0.44859 0.56423 0.43149 0.93800
Cu	Cu	0.13367 0.78286 0.09248 0.91600
Cu	Cu	0.94859 0.06423 0.06851 0.93300
Cu	Cu	0.36633 0.71714 0.59248 0.91600
Cu	Cu	0.55141 0.43577 0.56851 0.93800
H 	H 	0.79210 0.17090 0.69500 0.05000
H 	H 	0.95200 0.80100 0.70680 0.03800
H 	H 	0.79050 0.94570 0.51330 0.03100
H 	H 	0.70790 0.32910 0.19500 0.04700
H 	H 	0.54800 0.69900 0.20680 0.03500
H 	H 	0.70950 0.55430 0.01330 0.03100
H 	H 	0.20790 0.82910 0.30500 0.05000
H 	H 	0.04800 0.19900 0.29320 0.03800
H 	H 	0.20950 0.05430 0.48670 0.03100
H 	H 	0.29210 0.67090 0.80500 0.04700
H 	H 	0.45200 0.30100 0.79320 0.03500
H 	H 	0.29050 0.44570 0.98670 0.03100
C 	C 	0.87400 0.85550 0.60489 -0.13700
C 	C 	0.78310 0.07700 0.59757 -0.12100
C 	C 	0.81400 0.09160 0.67221 0.05400
C 	C 	0.87760 0.98910 0.71358 -0.11200
C 	C 	0.90830 0.01170 0.79368 0.37300
C 	C 	0.90880 0.87000 0.67996 0.05400
C 	C 	0.81220 0.95700 0.56311 0.05600
C 	C 	0.71270 0.18880 0.55555 0.37700
C 	C 	0.62600 0.64450 0.10489 -0.13800
C 	C 	0.71690 0.42300 0.09757 -0.11900
C 	C 	0.68600 0.40840 0.17221 0.06100
C 	C 	0.62240 0.51090 0.21358 -0.12200
C 	C 	0.59170 0.48830 0.29368 0.38300
C 	C 	0.59120 0.63000 0.17996 0.05800
C 	C 	0.68780 0.54300 0.06311 0.05300
C 	C 	0.78730 0.31120 0.05555 0.37300
C 	C 	0.12600 0.14450 0.39511 -0.13700
C 	C 	0.21690 0.92300 0.40243 -0.12100
C 	C 	0.18600 0.90840 0.32779 0.05400
C 	C 	0.12240 0.01090 0.28642 -0.11200
C 	C 	0.09170 0.98830 0.20632 0.37300
C 	C 	0.09120 0.13000 0.32004 0.05400
C 	C 	0.18780 0.04300 0.43689 0.05600
C 	C 	0.28730 0.81120 0.44445 0.37700
C 	C 	0.37400 0.35550 0.89511 -0.13800
C 	C 	0.28310 0.57700 0.90243 -0.11900
C 	C 	0.31400 0.59160 0.82779 0.06100
C 	C 	0.37760 0.48910 0.78642 -0.12200
C 	C 	0.40830 0.51170 0.70632 0.38300
C 	C 	0.40880 0.37000 0.82004 0.05800
C 	C 	0.31220 0.45700 0.93689 0.05300
C 	C 	0.21270 0.68880 0.94445 0.37300
S 	S 	0.88602 0.69624 0.56649 0.51600
S 	S 	0.61398 0.80376 0.06649 0.51500
S 	S 	0.11398 0.30376 0.43351 0.51600
S 	S 	0.38602 0.19624 0.93351 0.51500
O 	O 	0.95560 0.91639 0.83231 -0.37400
O 	O 	0.86700 0.05287 0.96501 -0.48300
O 	O 	0.66310 0.16722 0.49025 -0.42700
O 	O 	0.88420 0.12719 0.81545 -0.40800
O 	O 	0.89210 0.70861 0.48754 -0.26500
O 	O 	0.70500 0.29678 0.59072 -0.38100
O 	O 	0.71730 0.62328 0.59294 -0.38100
O 	O 	0.04810 0.64284 0.59805 -0.30900
O 	O 	0.54440 0.58361 0.33231 -0.38000
O 	O 	0.63300 0.44713 0.46501 -0.48400
O 	O 	0.83690 0.33278 0.99025 -0.42300
O 	O 	0.61580 0.37281 0.31545 -0.41000
O 	O 	0.60790 0.79139 0.98754 -0.26600
O 	O 	0.79500 0.20322 0.09072 -0.38300
O 	O 	0.78270 0.87672 0.09294 -0.37900
O 	O 	0.45190 0.85716 0.09805 -0.30600
O 	O 	0.04440 0.08361 0.16769 -0.37400
O 	O 	0.13300 0.94713 0.03499 -0.48300
O 	O 	0.33690 0.83278 0.50975 -0.42700
O 	O 	0.11580 0.87281 0.18455 -0.40800
O 	O 	0.10790 0.29139 0.51246 -0.26500
O 	O 	0.29500 0.70322 0.40928 -0.38100
O 	O 	0.28270 0.37672 0.40706 -0.38100
O 	O 	0.95190 0.35716 0.40195 -0.30900
O 	O 	0.45560 0.41639 0.66769 -0.38000
O 	O 	0.36700 0.55287 0.53499 -0.48400
O 	O 	0.16310 0.66722 0.00975 -0.42300
O 	O 	0.38420 0.62719 0.68455 -0.41000
O 	O 	0.39210 0.20861 0.01246 -0.26600
O 	O 	0.20500 0.79678 0.90928 -0.38300
O 	O 	0.21730 0.12328 0.90706 -0.37900
O 	O 	0.54810 0.14284 0.90195 -0.30600
