data_crystal

_cell_length_a 18.26790
_cell_length_b 18.26790
_cell_length_c 15.95220
_cell_angle_alpha 90.00000
_cell_angle_beta  90.00000
_cell_angle_gamma 90.00000

_symmetry_space_group_name_	'P 1'
_symmetry_space_group_name_H-M	'P 1'

loop_
_symmetry_equiv_pos_as_xyz
  x,y,z

loop_
_atom_site_label
_atom_site_type_symbol
_atom_site_fract_x
_atom_site_fract_y
_atom_site_fract_z
_atom_site_charge
N 	N 	0.31048 0.34192 0.69538 -0.30500
C 	C 	0.34920 0.44960 0.76720 -0.45600
H 	H 	0.34270 0.48160 0.81190 0.26900
C 	C 	0.40190 0.46160 0.71040 0.50900
C 	C 	0.30460 0.38890 0.75850 0.27800
H 	H 	0.26870 0.38060 0.79870 -0.06800
C 	C 	0.36020 0.35660 0.63690 0.26600
H 	H 	0.36360 0.32580 0.59060 -0.06100
C 	C 	0.40660 0.41510 0.64190 -0.41700
H 	H 	0.44090 0.42350 0.59990 0.24300
O 	O 	0.46420 0.55990 0.62970 -1.11500
C 	C 	0.45350 0.52330 0.71340 -0.53500
H 	H 	0.46950 0.54550 0.66420 1.14400
O 	O 	0.53360 0.53450 0.57950 0.03400
N 	N 	0.18952 0.15808 0.69538 -0.30300
C 	C 	0.15080 0.05040 0.76720 -0.44700
H 	H 	0.15730 0.01840 0.81190 0.26400
C 	C 	0.09810 0.03840 0.71040 0.49500
C 	C 	0.19540 0.11110 0.75850 0.27300
H 	H 	0.23130 0.11940 0.79870 -0.06700
C 	C 	0.13980 0.14340 0.63690 0.26100
H 	H 	0.13640 0.17420 0.59060 -0.06000
C 	C 	0.09340 0.08490 0.64190 -0.40900
H 	H 	0.05910 0.07650 0.59990 0.23800
O 	O 	0.03580 0.94010 0.62970 -1.09700
C 	C 	0.04650 0.97670 0.71340 -0.52100
H 	H 	0.03050 0.95450 0.66420 1.12800
O 	O 	0.96640 0.96550 0.57950 0.02900
N 	N 	0.15808 0.31048 0.69538 -0.30500
C 	C 	0.05040 0.34920 0.76720 -0.45800
H 	H 	0.01840 0.34270 0.81190 0.26900
C 	C 	0.03840 0.40190 0.71040 0.51100
C 	C 	0.11110 0.30460 0.75850 0.27900
H 	H 	0.11940 0.26870 0.79870 -0.06900
C 	C 	0.14340 0.36020 0.63690 0.26700
H 	H 	0.17420 0.36360 0.59060 -0.06100
C 	C 	0.08490 0.40660 0.64190 -0.41800
H 	H 	0.07650 0.44090 0.59990 0.24300
O 	O 	0.94010 0.46420 0.62970 -1.11800
C 	C 	0.97670 0.45350 0.71340 -0.53900
H 	H 	0.95450 0.46950 0.66420 1.14700
O 	O 	0.96550 0.53360 0.57950 0.03400
N 	N 	0.34192 0.18952 0.69538 -0.30400
C 	C 	0.44960 0.15080 0.76720 -0.45300
H 	H 	0.48160 0.15730 0.81190 0.26800
C 	C 	0.46160 0.09810 0.71040 0.50400
C 	C 	0.38890 0.19540 0.75850 0.27600
H 	H 	0.38060 0.23130 0.79870 -0.06800
C 	C 	0.35660 0.13980 0.63690 0.26400
H 	H 	0.32580 0.13640 0.59060 -0.06000
C 	C 	0.41510 0.09340 0.64190 -0.41400
H 	H 	0.42350 0.05910 0.59990 0.24100
O 	O 	0.55990 0.03580 0.62970 -1.10800
C 	C 	0.52330 0.04650 0.71340 -0.52500
H 	H 	0.54550 0.03050 0.66420 1.13500
O 	O 	0.53450 0.96640 0.57950 0.03300
N 	N 	0.68952 0.84192 0.80462 -0.30500
C 	C 	0.65080 0.94960 0.73280 -0.45800
H 	H 	0.65730 0.98160 0.68810 0.26900
C 	C 	0.59810 0.96160 0.78960 0.51100
C 	C 	0.69540 0.88890 0.74150 0.27900
H 	H 	0.73130 0.88060 0.70130 -0.06900
C 	C 	0.63980 0.85660 0.86310 0.26700
H 	H 	0.63640 0.82580 0.90940 -0.06100
C 	C 	0.59340 0.91510 0.85810 -0.41900
H 	H 	0.55910 0.92350 0.90010 0.24300
O 	O 	0.53580 0.05990 0.87030 -1.11900
C 	C 	0.54650 0.02330 0.78660 -0.54100
H 	H 	0.53050 0.04550 0.83580 1.14800
O 	O 	0.46640 0.03450 0.92050 0.03500
N 	N 	0.81048 0.65808 0.80462 -0.30400
C 	C 	0.84920 0.55040 0.73280 -0.45400
H 	H 	0.84270 0.51840 0.68810 0.26800
C 	C 	0.90190 0.53840 0.78960 0.50500
C 	C 	0.80460 0.61110 0.74150 0.27700
H 	H 	0.76870 0.61940 0.70130 -0.06800
C 	C 	0.86020 0.64340 0.86310 0.26500
H 	H 	0.86360 0.67420 0.90940 -0.06100
C 	C 	0.90660 0.58490 0.85810 -0.41500
H 	H 	0.94090 0.57650 0.90010 0.24100
O 	O 	0.96420 0.44010 0.87030 -1.11000
C 	C 	0.95350 0.47670 0.78660 -0.52800
H 	H 	0.96950 0.45450 0.83580 1.13700
O 	O 	0.03360 0.46550 0.92050 0.03400
N 	N 	0.84192 0.81048 0.80462 -0.30300
C 	C 	0.94960 0.84920 0.73280 -0.44800
H 	H 	0.98160 0.84270 0.68810 0.26400
C 	C 	0.96160 0.90190 0.78960 0.49600
C 	C 	0.88890 0.80460 0.74150 0.27300
H 	H 	0.88060 0.76870 0.70130 -0.06700
C 	C 	0.85660 0.86020 0.86310 0.26100
H 	H 	0.82580 0.86360 0.90940 -0.06000
C 	C 	0.91510 0.90660 0.85810 -0.41000
H 	H 	0.92350 0.94090 0.90010 0.23800
O 	O 	0.05990 0.96420 0.87030 -1.10000
C 	C 	0.02330 0.95350 0.78660 -0.52300
H 	H 	0.04550 0.96950 0.83580 1.13000
O 	O 	0.03450 0.03360 0.92050 0.03000
N 	N 	0.65808 0.68952 0.80462 -0.30500
C 	C 	0.55040 0.65080 0.73280 -0.45600
H 	H 	0.51840 0.65730 0.68810 0.26900
C 	C 	0.53840 0.59810 0.78960 0.50900
C 	C 	0.61110 0.69540 0.74150 0.27800
H 	H 	0.61940 0.73130 0.70130 -0.06800
C 	C 	0.64340 0.63980 0.86310 0.26600
H 	H 	0.67420 0.63640 0.90940 -0.06100
C 	C 	0.58490 0.59340 0.85810 -0.41700
H 	H 	0.57650 0.55910 0.90010 0.24300
O 	O 	0.44010 0.53580 0.87030 -1.11500
C 	C 	0.47670 0.54650 0.78660 -0.53500
H 	H 	0.45450 0.53050 0.83580 1.14300
O 	O 	0.46550 0.46640 0.92050 0.03400
Cu	Cu	0.25000 0.25000 0.69252 0.86300
Cu	Cu	0.75000 0.75000 0.80748 0.86300
N 	N 	0.68952 0.65808 0.30462 -0.30500
C 	C 	0.65080 0.55040 0.23280 -0.45600
H 	H 	0.65730 0.51840 0.18810 0.26900
C 	C 	0.59810 0.53840 0.28960 0.50900
C 	C 	0.69540 0.61110 0.24150 0.27800
H 	H 	0.73130 0.61940 0.20130 -0.06800
C 	C 	0.63980 0.64340 0.36310 0.26600
H 	H 	0.63640 0.67420 0.40940 -0.06100
C 	C 	0.59340 0.58490 0.35810 -0.41700
H 	H 	0.55910 0.57650 0.40010 0.24300
O 	O 	0.53580 0.44010 0.37030 -1.11500
C 	C 	0.54650 0.47670 0.28660 -0.53500
H 	H 	0.53050 0.45450 0.33580 1.14400
O 	O 	0.46640 0.46550 0.42050 0.03400
N 	N 	0.81048 0.84192 0.30462 -0.30300
C 	C 	0.84920 0.94960 0.23280 -0.44700
H 	H 	0.84270 0.98160 0.18810 0.26400
C 	C 	0.90190 0.96160 0.28960 0.49500
C 	C 	0.80460 0.88890 0.24150 0.27300
H 	H 	0.76870 0.88060 0.20130 -0.06700
C 	C 	0.86020 0.85660 0.36310 0.26100
H 	H 	0.86360 0.82580 0.40940 -0.06000
C 	C 	0.90660 0.91510 0.35810 -0.40900
H 	H 	0.94090 0.92350 0.40010 0.23800
O 	O 	0.96420 0.05990 0.37030 -1.09700
C 	C 	0.95350 0.02330 0.28660 -0.52100
H 	H 	0.96950 0.04550 0.33580 1.12800
O 	O 	0.03360 0.03450 0.42050 0.02900
N 	N 	0.84192 0.68952 0.30462 -0.30500
C 	C 	0.94960 0.65080 0.23280 -0.45800
H 	H 	0.98160 0.65730 0.18810 0.26900
C 	C 	0.96160 0.59810 0.28960 0.51100
C 	C 	0.88890 0.69540 0.24150 0.27900
H 	H 	0.88060 0.73130 0.20130 -0.06900
C 	C 	0.85660 0.63980 0.36310 0.26700
H 	H 	0.82580 0.63640 0.40940 -0.06100
C 	C 	0.91510 0.59340 0.35810 -0.41800
H 	H 	0.92350 0.55910 0.40010 0.24300
O 	O 	0.05990 0.53580 0.37030 -1.11800
C 	C 	0.02330 0.54650 0.28660 -0.53900
H 	H 	0.04550 0.53050 0.33580 1.14700
O 	O 	0.03450 0.46640 0.42050 0.03400
N 	N 	0.65808 0.81048 0.30462 -0.30400
C 	C 	0.55040 0.84920 0.23280 -0.45300
H 	H 	0.51840 0.84270 0.18810 0.26800
C 	C 	0.53840 0.90190 0.28960 0.50400
C 	C 	0.61110 0.80460 0.24150 0.27600
H 	H 	0.61940 0.76870 0.20130 -0.06800
C 	C 	0.64340 0.86020 0.36310 0.26400
H 	H 	0.67420 0.86360 0.40940 -0.06000
C 	C 	0.58490 0.90660 0.35810 -0.41400
H 	H 	0.57650 0.94090 0.40010 0.24100
O 	O 	0.44010 0.96420 0.37030 -1.10800
C 	C 	0.47670 0.95350 0.28660 -0.52500
H 	H 	0.45450 0.96950 0.33580 1.13500
O 	O 	0.46550 0.03360 0.42050 0.03300
N 	N 	0.31048 0.15808 0.19538 -0.30500
C 	C 	0.34920 0.05040 0.26720 -0.45800
H 	H 	0.34270 0.01840 0.31190 0.26900
C 	C 	0.40190 0.03840 0.21040 0.51100
C 	C 	0.30460 0.11110 0.25850 0.27900
H 	H 	0.26870 0.11940 0.29870 -0.06900
C 	C 	0.36020 0.14340 0.13690 0.26700
H 	H 	0.36360 0.17420 0.09060 -0.06100
C 	C 	0.40660 0.08490 0.14190 -0.41900
H 	H 	0.44090 0.07650 0.09990 0.24300
O 	O 	0.46420 0.94010 0.12970 -1.11900
C 	C 	0.45350 0.97670 0.21340 -0.54100
H 	H 	0.46950 0.95450 0.16420 1.14800
O 	O 	0.53360 0.96550 0.07950 0.03500
N 	N 	0.18952 0.34192 0.19538 -0.30400
C 	C 	0.15080 0.44960 0.26720 -0.45400
H 	H 	0.15730 0.48160 0.31190 0.26800
C 	C 	0.09810 0.46160 0.21040 0.50500
C 	C 	0.19540 0.38890 0.25850 0.27700
H 	H 	0.23130 0.38060 0.29870 -0.06800
C 	C 	0.13980 0.35660 0.13690 0.26500
H 	H 	0.13640 0.32580 0.09060 -0.06100
C 	C 	0.09340 0.41510 0.14190 -0.41500
H 	H 	0.05910 0.42350 0.09990 0.24100
O 	O 	0.03580 0.55990 0.12970 -1.11000
C 	C 	0.04650 0.52330 0.21340 -0.52800
H 	H 	0.03050 0.54550 0.16420 1.13700
O 	O 	0.96640 0.53450 0.07950 0.03400
N 	N 	0.15808 0.18952 0.19538 -0.30300
C 	C 	0.05040 0.15080 0.26720 -0.44800
H 	H 	0.01840 0.15730 0.31190 0.26400
C 	C 	0.03840 0.09810 0.21040 0.49600
C 	C 	0.11110 0.19540 0.25850 0.27300
H 	H 	0.11940 0.23130 0.29870 -0.06700
C 	C 	0.14340 0.13980 0.13690 0.26100
H 	H 	0.17420 0.13640 0.09060 -0.06000
C 	C 	0.08490 0.09340 0.14190 -0.41000
H 	H 	0.07650 0.05910 0.09990 0.23800
O 	O 	0.94010 0.03580 0.12970 -1.10000
C 	C 	0.97670 0.04650 0.21340 -0.52300
H 	H 	0.95450 0.03050 0.16420 1.13000
O 	O 	0.96550 0.96640 0.07950 0.03000
N 	N 	0.34192 0.31048 0.19538 -0.30500
C 	C 	0.44960 0.34920 0.26720 -0.45600
H 	H 	0.48160 0.34270 0.31190 0.26900
C 	C 	0.46160 0.40190 0.21040 0.50900
C 	C 	0.38890 0.30460 0.25850 0.27800
H 	H 	0.38060 0.26870 0.29870 -0.06800
C 	C 	0.35660 0.36020 0.13690 0.26600
H 	H 	0.32580 0.36360 0.09060 -0.06100
C 	C 	0.41510 0.40660 0.14190 -0.41700
H 	H 	0.42350 0.44090 0.09990 0.24300
O 	O 	0.55990 0.46420 0.12970 -1.11500
C 	C 	0.52330 0.45350 0.21340 -0.53500
H 	H 	0.54550 0.46950 0.16420 1.14300
O 	O 	0.53450 0.53360 0.07950 0.03400
Cu	Cu	0.75000 0.75000 0.30748 0.86300
Cu	Cu	0.25000 0.25000 0.19252 0.86300
