data_crystal

_cell_length_a 13.93900
_cell_length_b 8.33400
_cell_length_c 12.85600
_cell_angle_alpha 90.00000
_cell_angle_beta  90.00000
_cell_angle_gamma 90.00000

_symmetry_space_group_name_	'P 1'
_symmetry_space_group_name_H-M	'P 1'

loop_
_symmetry_equiv_pos_as_xyz
  x,y,z

loop_
_atom_site_label
_atom_site_type_symbol
_atom_site_fract_x
_atom_site_fract_y
_atom_site_fract_z
_atom_site_charge
C 	C 	0.23649 0.88237 0.16620 0.00500
H 	H 	0.19400 0.93320 0.12120 0.01200
C 	C 	0.33424 0.91393 0.15736 -0.01000
H 	H 	0.35570 0.98560 0.10700 0.00900
C 	C 	0.36326 0.74186 0.29245 -0.05200
H 	H 	0.40570 0.69100 0.33740 0.02500
C 	C 	0.26513 0.71148 0.30182 0.09400
N 	N 	0.20209 0.78094 0.23759 -0.16700
N 	N 	0.39777 0.84251 0.22030 -0.15900
C 	C 	0.22685 0.60564 0.38702 -0.22100
H 	H 	0.19430 0.67250 0.43770 0.08200
H 	H 	0.28060 0.55470 0.42180 0.09200
C 	C 	0.22649 0.30813 0.28183 -0.25100
H 	H 	0.19000 0.22780 0.24420 0.08800
H 	H 	0.26730 0.36400 0.23260 0.09200
C 	C 	0.28700 0.22858 0.36334 0.17300
C 	C 	0.38034 0.28022 0.38258 -0.21600
H 	H 	0.40940 0.35490 0.33900 0.09000
C 	C 	0.42954 0.21843 0.46807 0.09700
H 	H 	0.49140 0.25500 0.48100 -0.02300
C 	C 	0.30417 0.05187 0.50966 0.10400
H 	H 	0.27900 0.97060 0.55110 -0.02600
C 	C 	0.24934 0.10842 0.42730 -0.20700
H 	H 	0.18850 0.06700 0.41490 0.09600
N 	N 	0.39187 0.10906 0.53232 -0.20300
S 	S 	0.14450 0.45084 0.34383 -0.05300
Ag	Ag	0.05638 0.60369 0.20247 0.52000
C 	C 	0.76351 0.11763 0.66620 0.00600
H 	H 	0.80600 0.06680 0.62120 0.01400
C 	C 	0.66576 0.08607 0.65736 -0.00800
H 	H 	0.64430 0.01440 0.60700 0.01200
C 	C 	0.63674 0.25814 0.79245 -0.05100
H 	H 	0.59430 0.30900 0.83740 0.02600
C 	C 	0.73487 0.28852 0.80182 0.09500
N 	N 	0.79791 0.21906 0.73759 -0.16700
N 	N 	0.60223 0.15749 0.72030 -0.15900
C 	C 	0.77315 0.39436 0.88702 -0.22200
H 	H 	0.80570 0.32750 0.93770 0.08300
H 	H 	0.71940 0.44530 0.92180 0.09300
C 	C 	0.77351 0.69187 0.78183 -0.25100
H 	H 	0.81000 0.77220 0.74420 0.08900
H 	H 	0.73270 0.63600 0.73260 0.09200
C 	C 	0.71300 0.77142 0.86334 0.17100
C 	C 	0.61966 0.71978 0.88258 -0.21600
H 	H 	0.59060 0.64510 0.83900 0.09000
C 	C 	0.57046 0.78157 0.96807 0.10200
H 	H 	0.50860 0.74500 0.98100 -0.02300
C 	C 	0.69583 0.94813 0.00966 0.09500
H 	H 	0.72100 0.02940 0.05110 -0.02500
C 	C 	0.75066 0.89158 0.92730 -0.19800
H 	H 	0.81150 0.93300 0.91490 0.09400
N 	N 	0.60813 0.89094 0.03232 -0.20500
S 	S 	0.85550 0.54916 0.84383 -0.05200
Ag	Ag	0.94362 0.39631 0.70247 0.52100
C 	C 	0.73649 0.61763 0.16620 0.00600
H 	H 	0.69400 0.56680 0.12120 0.01300
C 	C 	0.83424 0.58607 0.15736 -0.00900
H 	H 	0.85570 0.51440 0.10700 0.01100
C 	C 	0.86326 0.75814 0.29245 -0.05100
H 	H 	0.90570 0.80900 0.33740 0.02500
C 	C 	0.76513 0.78852 0.30182 0.09400
N 	N 	0.70209 0.71906 0.23759 -0.16700
N 	N 	0.89777 0.65749 0.22030 -0.15900
C 	C 	0.72685 0.89436 0.38702 -0.22100
H 	H 	0.69430 0.82750 0.43770 0.08200
H 	H 	0.78060 0.94530 0.42180 0.09200
C 	C 	0.72649 0.19187 0.28183 -0.25200
H 	H 	0.69000 0.27220 0.24420 0.08800
H 	H 	0.76730 0.13600 0.23260 0.09200
C 	C 	0.78700 0.27142 0.36334 0.17300
C 	C 	0.88034 0.21978 0.38258 -0.21600
H 	H 	0.90940 0.14510 0.33900 0.09000
C 	C 	0.92954 0.28157 0.46807 0.09700
H 	H 	0.99140 0.24500 0.48100 -0.02300
C 	C 	0.80417 0.44813 0.50966 0.10500
H 	H 	0.77900 0.52940 0.55110 -0.02700
C 	C 	0.74934 0.39158 0.42730 -0.20800
H 	H 	0.68850 0.43300 0.41490 0.09600
N 	N 	0.89187 0.39094 0.53232 -0.20300
S 	S 	0.64450 0.04916 0.34383 -0.05300
Ag	Ag	0.55638 0.89631 0.20247 0.52000
C 	C 	0.26351 0.38237 0.66620 0.00600
H 	H 	0.30600 0.43320 0.62120 0.01400
C 	C 	0.16576 0.41393 0.65736 -0.00800
H 	H 	0.14430 0.48560 0.60700 0.01200
C 	C 	0.13674 0.24186 0.79245 -0.05100
H 	H 	0.09430 0.19100 0.83740 0.02600
C 	C 	0.23487 0.21148 0.80182 0.09500
N 	N 	0.29791 0.28094 0.73759 -0.16700
N 	N 	0.10223 0.34251 0.72030 -0.15900
C 	C 	0.27315 0.10564 0.88702 -0.22300
H 	H 	0.30570 0.17250 0.93770 0.08300
H 	H 	0.21940 0.05470 0.92180 0.09400
C 	C 	0.27351 0.80813 0.78183 -0.25100
H 	H 	0.31000 0.72780 0.74420 0.08900
H 	H 	0.23270 0.86400 0.73260 0.09200
C 	C 	0.21300 0.72858 0.86334 0.17100
C 	C 	0.11966 0.78022 0.88258 -0.21600
H 	H 	0.09060 0.85490 0.83900 0.09000
C 	C 	0.07046 0.71843 0.96807 0.10300
H 	H 	0.00860 0.75500 0.98100 -0.02300
C 	C 	0.19583 0.55187 0.00966 0.09500
H 	H 	0.22100 0.47060 0.05110 -0.02500
C 	C 	0.25066 0.60842 0.92730 -0.19800
H 	H 	0.31150 0.56700 0.91490 0.09400
N 	N 	0.10813 0.60906 0.03232 -0.20500
S 	S 	0.35550 0.95084 0.84383 -0.05100
Ag	Ag	0.44362 0.10369 0.70247 0.52100
