data_crystal

_cell_length_a 9.83830
_cell_length_b 13.19840
_cell_length_c 11.38290
_cell_angle_alpha 90.00000
_cell_angle_beta  101.43700
_cell_angle_gamma 90.00000

_symmetry_space_group_name_	'P 1'
_symmetry_space_group_name_H-M	'P 1'

loop_
_symmetry_equiv_pos_as_xyz
  x,y,z

loop_
_atom_site_label
_atom_site_type_symbol
_atom_site_fract_x
_atom_site_fract_y
_atom_site_fract_z
_atom_site_charge
Cd	Cd	0.25809 0.99503 0.49313 1.23500
O 	O 	0.41820 0.88100 0.58610 -0.41800
O 	O 	0.62030 0.95990 0.65490 -0.40700
N 	N 	0.66580 0.63240 0.88160 -0.21000
C 	C 	0.53700 0.88760 0.64960 0.34300
C 	C 	0.58210 0.79770 0.73160 -0.05100
C 	C 	0.55840 0.69940 0.69020 -0.05500
H 	H 	0.51250 0.68690 0.60990 0.05600
C 	C 	0.64840 0.81160 0.85110 -0.05500
H 	H 	0.66670 0.87790 0.88270 0.05900
C 	C 	0.60270 0.61920 0.76740 0.03800
H 	H 	0.58750 0.55200 0.73780 0.01300
C 	C 	0.68690 0.72780 0.92240 0.03300
H 	H 	0.73020 0.73800 0.00380 0.01700
O 	O 	0.09890 0.10330 0.38950 -0.40700
O 	O 	0.88190 0.04290 0.37060 -0.41400
C 	C 	0.97060 0.10520 0.34970 0.36000
C 	C 	0.91880 0.19200 0.26570 -0.06300
C 	C 	0.01120 0.25250 0.21900 -0.03200
H 	H 	0.10790 0.23890 0.23760 0.05900
C 	C 	0.77860 0.21440 0.23470 -0.04800
H 	H 	0.71240 0.17370 0.26320 0.05900
C 	C 	0.96030 0.33270 0.14520 0.02300
H 	H 	0.02360 0.37300 0.11230 0.01900
C 	C 	0.73660 0.29670 0.16190 0.03900
H 	H 	0.64050 0.31220 0.14200 0.01700
N 	N 	0.82480 0.35560 0.11810 -0.20800
Cd	Cd	0.74191 0.49503 0.00687 1.23400
O 	O 	0.58180 0.38100 0.91390 -0.41900
O 	O 	0.37970 0.45990 0.84510 -0.40800
N 	N 	0.33420 0.13240 0.61840 -0.20900
C 	C 	0.46300 0.38760 0.85040 0.34400
C 	C 	0.41790 0.29770 0.76840 -0.05200
C 	C 	0.44160 0.19940 0.80980 -0.05500
H 	H 	0.48750 0.18690 0.89010 0.05600
C 	C 	0.35160 0.31160 0.64890 -0.05300
H 	H 	0.33330 0.37790 0.61730 0.05700
C 	C 	0.39730 0.11920 0.73260 0.03700
H 	H 	0.41250 0.05200 0.76220 0.01400
C 	C 	0.31310 0.22780 0.57760 0.03000
H 	H 	0.26980 0.23800 0.49620 0.01800
O 	O 	0.90110 0.60330 0.11050 -0.41400
O 	O 	0.11810 0.54290 0.12940 -0.41400
C 	C 	0.02940 0.60520 0.15030 0.36600
C 	C 	0.08120 0.69200 0.23430 -0.05800
C 	C 	0.98880 0.75250 0.28100 -0.04200
H 	H 	0.89210 0.73890 0.26240 0.06200
C 	C 	0.22140 0.71440 0.26530 -0.05100
H 	H 	0.28760 0.67370 0.23680 0.06000
C 	C 	0.03970 0.83270 0.35480 0.03100
H 	H 	0.97640 0.87300 0.38770 0.01700
C 	C 	0.26340 0.79670 0.33810 0.04100
H 	H 	0.35950 0.81220 0.35800 0.01600
N 	N 	0.17520 0.85560 0.38190 -0.20900
Cd	Cd	0.74191 0.00497 0.50687 1.23400
O 	O 	0.58180 0.11900 0.41390 -0.41900
O 	O 	0.37970 0.04010 0.34510 -0.40700
N 	N 	0.33420 0.36760 0.11840 -0.21000
C 	C 	0.46300 0.11240 0.35040 0.34300
C 	C 	0.41790 0.20230 0.26840 -0.05100
C 	C 	0.44160 0.30060 0.30980 -0.05500
H 	H 	0.48750 0.31310 0.39010 0.05600
C 	C 	0.35160 0.18840 0.14890 -0.05500
H 	H 	0.33330 0.12210 0.11730 0.05900
C 	C 	0.39730 0.38080 0.23260 0.03800
H 	H 	0.41250 0.44800 0.26220 0.01300
C 	C 	0.31310 0.27220 0.07760 0.03300
H 	H 	0.26980 0.26200 0.99620 0.01700
O 	O 	0.90110 0.89670 0.61050 -0.40700
O 	O 	0.11810 0.95710 0.62940 -0.41400
C 	C 	0.02940 0.89480 0.65030 0.36000
C 	C 	0.08120 0.80800 0.73430 -0.06300
C 	C 	0.98880 0.74750 0.78100 -0.03200
H 	H 	0.89210 0.76110 0.76240 0.05900
C 	C 	0.22140 0.78560 0.76530 -0.04800
H 	H 	0.28760 0.82630 0.73680 0.05900
C 	C 	0.03970 0.66730 0.85480 0.02300
H 	H 	0.97640 0.62700 0.88770 0.01900
C 	C 	0.26340 0.70330 0.83810 0.03900
H 	H 	0.35950 0.68780 0.85800 0.01700
N 	N 	0.17520 0.64440 0.88190 -0.20800
Cd	Cd	0.25809 0.50497 0.99313 1.23400
O 	O 	0.41820 0.61900 0.08610 -0.41900
O 	O 	0.62030 0.54010 0.15490 -0.40800
N 	N 	0.66580 0.86760 0.38160 -0.20900
C 	C 	0.53700 0.61240 0.14960 0.34400
C 	C 	0.58210 0.70230 0.23160 -0.05200
C 	C 	0.55840 0.80060 0.19020 -0.05500
H 	H 	0.51250 0.81310 0.10990 0.05600
C 	C 	0.64840 0.68840 0.35110 -0.05300
H 	H 	0.66670 0.62210 0.38270 0.05700
C 	C 	0.60270 0.88080 0.26740 0.03700
H 	H 	0.58750 0.94800 0.23780 0.01400
C 	C 	0.68690 0.77220 0.42240 0.03000
H 	H 	0.73020 0.76200 0.50380 0.01800
O 	O 	0.09890 0.39670 0.88950 -0.41400
O 	O 	0.88190 0.45710 0.87060 -0.41400
C 	C 	0.97060 0.39480 0.84970 0.36600
C 	C 	0.91880 0.30800 0.76570 -0.05800
C 	C 	0.01120 0.24750 0.71900 -0.04200
H 	H 	0.10790 0.26110 0.73760 0.06200
C 	C 	0.77860 0.28560 0.73470 -0.05100
H 	H 	0.71240 0.32630 0.76320 0.06000
C 	C 	0.96030 0.16730 0.64520 0.03100
H 	H 	0.02360 0.12700 0.61230 0.01700
C 	C 	0.73660 0.20330 0.66190 0.04100
H 	H 	0.64050 0.18780 0.64200 0.01600
N 	N 	0.82480 0.14440 0.61810 -0.20900
