data_crystal

_cell_length_a 10.38550
_cell_length_b 12.31750
_cell_length_c 12.31750
_cell_angle_alpha 79.76280
_cell_angle_beta  65.06600
_cell_angle_gamma 65.06610

_symmetry_space_group_name_	'P 1'
_symmetry_space_group_name_H-M	'P 1'

loop_
_symmetry_equiv_pos_as_xyz
  x,y,z

loop_
_atom_site_label
_atom_site_type_symbol
_atom_site_fract_x
_atom_site_fract_y
_atom_site_fract_z
_atom_site_charge
Cd	Cd	0.09636 0.30250 0.50479 1.21700
Cd	Cd	0.90364 0.69750 0.49521 1.21700
Cd	Cd	0.60114 0.49521 0.30251 1.21600
Cd	Cd	0.39886 0.50479 0.69749 1.21600
H 	H 	0.37350 0.35000 0.28240 0.00600
H 	H 	0.45690 0.39800 0.07940 0.07500
H 	H 	0.00590 0.65000 0.71760 0.00700
H 	H 	0.93430 0.60200 0.92060 0.07500
H 	H 	0.65590 0.71760 0.35000 0.00600
H 	H 	0.53630 0.92060 0.39800 0.07600
H 	H 	0.72350 0.28240 0.65000 0.00600
H 	H 	0.85490 0.07940 0.60200 0.07600
H 	H 	0.62650 0.65000 0.71760 0.00600
H 	H 	0.54310 0.60200 0.92060 0.07500
H 	H 	0.99410 0.35000 0.28240 0.00700
H 	H 	0.06570 0.39800 0.07940 0.07500
H 	H 	0.34410 0.28240 0.65000 0.00600
H 	H 	0.46370 0.07940 0.60200 0.07600
H 	H 	0.27650 0.71760 0.35000 0.00600
H 	H 	0.14510 0.92060 0.39800 0.07600
C 	C 	0.31040 0.36046 0.24050 0.05000
C 	C 	0.36130 0.38895 0.11927 -0.08300
C 	C 	0.91136 0.63954 0.75950 0.04900
C 	C 	0.86952 0.61105 0.88073 -0.08300
C 	C 	0.55090 0.75950 0.36046 0.05000
C 	C 	0.48057 0.88073 0.38895 -0.08400
C 	C 	0.67086 0.24050 0.63954 0.05000
C 	C 	0.75025 0.11927 0.61105 -0.08400
C 	C 	0.68960 0.63954 0.75950 0.05000
C 	C 	0.63870 0.61105 0.88073 -0.08300
C 	C 	0.08864 0.36046 0.24050 0.04900
C 	C 	0.13048 0.38895 0.11927 -0.08300
C 	C 	0.44910 0.24050 0.63954 0.05000
C 	C 	0.51943 0.11927 0.61105 -0.08400
C 	C 	0.32914 0.75950 0.36046 0.05000
C 	C 	0.24975 0.88073 0.38895 -0.08400
C 	C 	0.26918 0.40387 0.05777 -0.00700
C 	C 	0.31657 0.43941 0.92745 0.26400
C 	C 	0.73082 0.59613 0.94223 -0.00700
C 	C 	0.68343 0.56059 0.07255 0.26400
C 	C 	0.32695 0.94223 0.40387 -0.00600
C 	C 	0.24402 0.07255 0.43941 0.26300
C 	C 	0.67305 0.05777 0.59613 -0.00600
C 	C 	0.75598 0.92745 0.56059 0.26300
S 	S 	0.75000 0.50000 0.50000 0.74200
S 	S 	0.25000 0.50000 0.50000 0.74200
N 	N 	0.17600 0.34708 0.30092 -0.22000
N 	N 	0.82400 0.65292 0.69908 -0.22000
N 	N 	0.47692 0.69908 0.34708 -0.22100
N 	N 	0.52308 0.30092 0.65292 -0.22100
O 	O 	0.44183 0.45434 0.87632 -0.37200
O 	O 	0.84152 0.41546 0.56680 -0.48800
O 	O 	0.77249 0.54566 0.12368 -0.37200
O 	O 	0.82378 0.58454 0.43320 -0.48800
O 	O 	0.31815 0.12368 0.45434 -0.37200
O 	O 	0.40832 0.43320 0.41546 -0.48800
O 	O 	0.89617 0.87632 0.54566 -0.37200
O 	O 	0.25698 0.56680 0.58454 -0.48800
O 	O 	0.55817 0.54566 0.12368 -0.37200
O 	O 	0.15848 0.58454 0.43320 -0.48800
O 	O 	0.22751 0.45434 0.87632 -0.37200
O 	O 	0.17622 0.41546 0.56680 -0.48800
O 	O 	0.68185 0.87632 0.54566 -0.37200
O 	O 	0.59168 0.56680 0.58454 -0.48800
O 	O 	0.10383 0.12368 0.45434 -0.37200
O 	O 	0.74302 0.43320 0.41546 -0.48800
