data_crystal

_cell_length_a 9.61160
_cell_length_b 9.61160
_cell_length_c 15.54800
_cell_angle_alpha 92.93020
_cell_angle_beta  92.93020
_cell_angle_gamma 99.07450

_symmetry_space_group_name_	'P 1'
_symmetry_space_group_name_H-M	'P 1'

loop_
_symmetry_equiv_pos_as_xyz
  x,y,z

loop_
_atom_site_label
_atom_site_type_symbol
_atom_site_fract_x
_atom_site_fract_y
_atom_site_fract_z
_atom_site_charge
Gd	Gd	0.01105 0.98895 0.75000 1.30300
Gd	Gd	0.98895 0.01105 0.25000 1.30300
P 	P 	0.35442 0.04530 0.64483 0.37500
P 	P 	0.65091 0.97641 0.65404 0.38500
P 	P 	0.95470 0.64558 0.85517 0.37500
P 	P 	0.02359 0.34909 0.84596 0.38700
P 	P 	0.64558 0.95470 0.35517 0.37500
P 	P 	0.34909 0.02359 0.34596 0.38500
P 	P 	0.04530 0.35442 0.14483 0.37500
P 	P 	0.97641 0.65091 0.15404 0.38700
H 	H 	0.42200 0.82400 0.73000 0.17600
H 	H 	0.47500 0.16240 0.81380 0.16200
H 	H 	0.63270 0.12830 0.81590 0.15800
H 	H 	0.58180 0.22780 0.74520 0.14600
H 	H 	0.17600 0.57800 0.77000 0.17600
H 	H 	0.83760 0.52500 0.68620 0.16100
H 	H 	0.87170 0.36730 0.68410 0.15700
H 	H 	0.77220 0.41820 0.75480 0.14500
H 	H 	0.57800 0.17600 0.27000 0.17600
H 	H 	0.52500 0.83760 0.18620 0.16200
H 	H 	0.36730 0.87170 0.18410 0.15800
H 	H 	0.41820 0.77220 0.25480 0.14600
H 	H 	0.82400 0.42200 0.23000 0.17600
H 	H 	0.16240 0.47500 0.31380 0.16100
H 	H 	0.12830 0.63270 0.31590 0.15700
H 	H 	0.22780 0.58180 0.24520 0.14500
Ru	Ru	0.54565 0.12123 0.50195 0.89700
Ru	Ru	0.87877 0.45435 0.99805 0.89600
Ru	Ru	0.45435 0.87877 0.49805 0.89700
Ru	Ru	0.12123 0.54565 0.00195 0.89600
C 	C 	0.50460 0.01740 0.71720 0.05100
C 	C 	0.55270 0.14530 0.77840 -0.41200
C 	C 	0.98260 0.49540 0.78280 0.04900
C 	C 	0.85470 0.44730 0.72160 -0.41100
C 	C 	0.49540 0.98260 0.28280 0.05100
C 	C 	0.44730 0.85470 0.22160 -0.41200
C 	C 	0.01740 0.50460 0.21720 0.04900
C 	C 	0.14530 0.55270 0.27840 -0.41100
O 	O 	0.40910 0.16850 0.58950 -0.37400
O 	O 	0.30980 0.90880 0.58590 -0.39300
O 	O 	0.23490 0.07690 0.69880 -0.36000
O 	O 	0.69110 0.10470 0.59840 -0.39700
O 	O 	0.59350 0.84490 0.59360 -0.37800
O 	O 	0.77050 0.95410 0.71430 -0.37500
O 	O 	0.44940 0.89960 0.76660 -0.31100
O 	O 	0.83150 0.59090 0.91050 -0.37400
O 	O 	0.09120 0.69020 0.91410 -0.39300
O 	O 	0.92310 0.76510 0.80120 -0.36100
O 	O 	0.89530 0.30890 0.90160 -0.39800
O 	O 	0.15510 0.40650 0.90640 -0.37800
O 	O 	0.04590 0.22950 0.78570 -0.37400
O 	O 	0.10040 0.55060 0.73340 -0.31000
O 	O 	0.59090 0.83150 0.41050 -0.37400
O 	O 	0.69020 0.09120 0.41410 -0.39300
O 	O 	0.76510 0.92310 0.30120 -0.36000
O 	O 	0.30890 0.89530 0.40160 -0.39700
O 	O 	0.40650 0.15510 0.40640 -0.37800
O 	O 	0.22950 0.04590 0.28570 -0.37500
O 	O 	0.55060 0.10040 0.23340 -0.31100
O 	O 	0.16850 0.40910 0.08950 -0.37400
O 	O 	0.90880 0.30980 0.08590 -0.39300
O 	O 	0.07690 0.23490 0.19880 -0.36100
O 	O 	0.10470 0.69110 0.09840 -0.39800
O 	O 	0.84490 0.59350 0.09360 -0.37800
O 	O 	0.95410 0.77050 0.21430 -0.37400
O 	O 	0.89960 0.44940 0.26660 -0.31000
