data_crystal

_cell_length_a 9.94020
_cell_length_b 9.94020
_cell_length_c 15.69000
_cell_angle_alpha 92.46620
_cell_angle_beta  92.46620
_cell_angle_gamma 97.17810

_symmetry_space_group_name_	'P 1'
_symmetry_space_group_name_H-M	'P 1'

loop_
_symmetry_equiv_pos_as_xyz
  x,y,z

loop_
_atom_site_label
_atom_site_type_symbol
_atom_site_fract_x
_atom_site_fract_y
_atom_site_fract_z
_atom_site_charge
Pr	Pr	0.01058 0.98942 0.75000 2.06100
Pr	Pr	0.98942 0.01058 0.25000 2.06100
P 	P 	0.35683 0.04635 0.64161 0.29500
P 	P 	0.64974 0.97740 0.65167 0.29000
P 	P 	0.95365 0.64317 0.85839 0.29600
P 	P 	0.02260 0.35026 0.84833 0.29000
P 	P 	0.64317 0.95365 0.35839 0.29600
P 	P 	0.35026 0.02260 0.34833 0.29100
P 	P 	0.04635 0.35683 0.14161 0.29700
P 	P 	0.97740 0.64974 0.15167 0.29100
H 	H 	0.43010 0.84750 0.72070 0.20100
H 	H 	0.93020 0.11900 0.88730 0.32500
H 	H 	0.84930 0.98550 0.87870 0.30200
H 	H 	0.54960 0.12860 0.83060 0.19700
H 	H 	0.64720 0.17660 0.75620 0.17400
H 	H 	0.49660 0.21760 0.75660 0.19400
H 	H 	0.15250 0.56990 0.77930 0.20000
H 	H 	0.88100 0.06980 0.61270 0.32600
H 	H 	0.01450 0.15070 0.62130 0.30900
H 	H 	0.87140 0.45040 0.66940 0.19500
H 	H 	0.82340 0.35280 0.74380 0.17200
H 	H 	0.78240 0.50340 0.74340 0.19300
H 	H 	0.56990 0.15250 0.27930 0.20100
H 	H 	0.06980 0.88100 0.11270 0.32500
H 	H 	0.15070 0.01450 0.12130 0.30200
H 	H 	0.45040 0.87140 0.16940 0.19700
H 	H 	0.35280 0.82340 0.24380 0.17400
H 	H 	0.50340 0.78240 0.24340 0.19400
H 	H 	0.84750 0.43010 0.22070 0.20000
H 	H 	0.11900 0.93020 0.38730 0.32600
H 	H 	0.98550 0.84930 0.37870 0.30900
H 	H 	0.12860 0.54960 0.33060 0.19500
H 	H 	0.17660 0.64720 0.25620 0.17200
H 	H 	0.21760 0.49660 0.25660 0.19300
Ru	Ru	0.54469 0.11899 0.50338 0.88400
Ru	Ru	0.88101 0.45531 0.99662 0.88600
Ru	Ru	0.45531 0.88101 0.49662 0.88400
Ru	Ru	0.11899 0.54469 0.00338 0.88600
C 	C 	0.50130 0.01870 0.71730 0.20100
C 	C 	0.55330 0.14650 0.76980 -0.55100
C 	C 	0.98130 0.49870 0.78270 0.19700
C 	C 	0.85350 0.44670 0.73020 -0.54800
C 	C 	0.49870 0.98130 0.28270 0.20100
C 	C 	0.44670 0.85350 0.23020 -0.55100
C 	C 	0.01870 0.50130 0.21730 0.19700
C 	C 	0.14650 0.55330 0.26980 -0.54800
O 	O 	0.40720 0.16880 0.59120 -0.36000
O 	O 	0.30570 0.90510 0.58040 -0.37000
O 	O 	0.23700 0.07680 0.69870 -0.39700
O 	O 	0.68820 0.10160 0.59590 -0.41000
O 	O 	0.58470 0.84330 0.59710 -0.35700
O 	O 	0.75620 0.93740 0.72220 -0.38600
O 	O 	0.46030 0.91810 0.75560 -0.40200
O 	O 	0.93190 0.03170 0.87660 -0.86000
O 	O 	0.83120 0.59280 0.90880 -0.36000
O 	O 	0.09490 0.69430 0.91960 -0.37300
O 	O 	0.92320 0.76300 0.80130 -0.39900
O 	O 	0.89840 0.31180 0.90410 -0.40800
O 	O 	0.15670 0.41530 0.90290 -0.35700
O 	O 	0.06260 0.24380 0.77780 -0.38500
O 	O 	0.08190 0.53970 0.74440 -0.39800
O 	O 	0.96830 0.06810 0.62340 -0.86900
O 	O 	0.59280 0.83120 0.40880 -0.36000
O 	O 	0.69430 0.09490 0.41960 -0.37000
O 	O 	0.76300 0.92320 0.30130 -0.39700
O 	O 	0.31180 0.89840 0.40410 -0.41000
O 	O 	0.41530 0.15670 0.40290 -0.35700
O 	O 	0.24380 0.06260 0.27780 -0.38600
O 	O 	0.53970 0.08190 0.24440 -0.40200
O 	O 	0.06810 0.96830 0.12340 -0.86000
O 	O 	0.16880 0.40720 0.09120 -0.36000
O 	O 	0.90510 0.30570 0.08040 -0.37300
O 	O 	0.07680 0.23700 0.19870 -0.39900
O 	O 	0.10160 0.68820 0.09590 -0.40800
O 	O 	0.84330 0.58470 0.09710 -0.35700
O 	O 	0.93740 0.75620 0.22220 -0.38500
O 	O 	0.91810 0.46030 0.25560 -0.39800
O 	O 	0.03170 0.93190 0.37660 -0.86900
