data_crystal

_cell_length_a 8.28700
_cell_length_b 14.22400
_cell_length_c 14.72600
_cell_angle_alpha 90.00000
_cell_angle_beta  90.00000
_cell_angle_gamma 99.69600

_symmetry_space_group_name_	'P 1'
_symmetry_space_group_name_H-M	'P 1'

loop_
_symmetry_equiv_pos_as_xyz
  x,y,z

loop_
_atom_site_label
_atom_site_type_symbol
_atom_site_fract_x
_atom_site_fract_y
_atom_site_fract_z
_atom_site_charge
Co	Co	0.90593 0.11991 0.08256 1.15200
Co	Co	0.59407 0.88009 0.58256 1.15500
Co	Co	0.09407 0.88009 0.91744 1.15300
Co	Co	0.40593 0.11991 0.41744 1.15600
H 	H 	0.49570 0.83870 0.30200 -0.01300
H 	H 	0.65580 0.92330 0.05610 0.00000
H 	H 	0.50530 0.76460 0.07370 -0.10500
H 	H 	0.35040 0.80090 0.11140 -0.09700
H 	H 	0.35240 0.70890 0.23590 0.31700
H 	H 	0.34880 0.64630 0.14810 0.31800
H 	H 	0.51270 0.67510 0.20210 0.31400
H 	H 	0.24660 0.20760 0.10960 0.01100
H 	H 	0.44270 0.33610 0.08080 0.09400
H 	H 	0.11840 0.44150 0.92970 0.08300
H 	H 	0.93280 0.30890 0.96020 -0.02500
H 	H 	0.39080 0.53760 0.94770 0.05400
H 	H 	0.00430 0.16130 0.80200 -0.01600
H 	H 	0.84420 0.07670 0.55610 -0.00000
H 	H 	0.99470 0.23540 0.57370 -0.11100
H 	H 	0.14960 0.19910 0.61140 -0.10200
H 	H 	0.14760 0.29110 0.73590 0.32400
H 	H 	0.15120 0.35370 0.64810 0.32500
H 	H 	0.98730 0.32490 0.70210 0.32200
H 	H 	0.25340 0.79240 0.60960 0.01100
H 	H 	0.05730 0.66390 0.58080 0.09400
H 	H 	0.38160 0.55850 0.42970 0.08500
H 	H 	0.56720 0.69110 0.46020 -0.03000
H 	H 	0.10920 0.46240 0.44770 0.05400
H 	H 	0.50430 0.16130 0.69800 -0.01300
H 	H 	0.34420 0.07670 0.94390 0.00000
H 	H 	0.49470 0.23540 0.92630 -0.10500
H 	H 	0.64960 0.19910 0.88860 -0.09700
H 	H 	0.64760 0.29110 0.76410 0.31700
H 	H 	0.65120 0.35370 0.85190 0.31800
H 	H 	0.48730 0.32490 0.79790 0.31400
H 	H 	0.75340 0.79240 0.89040 0.01100
H 	H 	0.55730 0.66390 0.91920 0.09400
H 	H 	0.88160 0.55850 0.07030 0.08300
H 	H 	0.06720 0.69110 0.03980 -0.02500
H 	H 	0.60920 0.46240 0.05230 0.05400
H 	H 	0.99570 0.83870 0.19800 -0.01600
H 	H 	0.15580 0.92330 0.44390 -0.00000
H 	H 	0.00530 0.76460 0.42630 -0.11100
H 	H 	0.85040 0.80090 0.38860 -0.10200
H 	H 	0.85240 0.70890 0.26410 0.32400
H 	H 	0.84880 0.64630 0.35190 0.32500
H 	H 	0.01270 0.67510 0.29790 0.32200
H 	H 	0.74660 0.20760 0.39040 0.01100
H 	H 	0.94270 0.33610 0.41920 0.09400
H 	H 	0.61840 0.44150 0.57030 0.08500
H 	H 	0.43280 0.30890 0.53980 -0.03000
H 	H 	0.89080 0.53760 0.55230 0.05400
C 	C 	0.89460 0.09801 0.27681 0.27800
C 	C 	0.76450 0.01841 0.24426 0.02300
C 	C 	0.66270 0.95841 0.30205 -0.14300
C 	C 	0.56280 0.88087 0.26422 0.10800
C 	C 	0.55970 0.86421 0.17215 -0.20400
C 	C 	0.65940 0.93093 0.11879 0.12200
C 	C 	0.45230 0.78090 0.12890 0.44800
C 	C 	0.41330 0.69570 0.18330 -0.99700
C 	C 	0.64710 0.97528 0.40260 0.42000
C 	C 	0.21990 0.25570 0.07260 0.10300
C 	C 	0.33870 0.33300 0.05600 -0.18300
C 	C 	0.30360 0.40600 0.00270 0.12800
C 	C 	0.14800 0.39450 0.96700 -0.20300
C 	C 	0.03660 0.31470 0.98590 0.10000
C 	C 	0.42400 0.49130 0.98450 -0.10700
C 	C 	0.60540 0.90199 0.77681 0.27700
C 	C 	0.73550 0.98159 0.74426 0.02800
C 	C 	0.83730 0.04159 0.80205 -0.14800
C 	C 	0.93720 0.11913 0.76422 0.11500
C 	C 	0.94030 0.13579 0.67215 -0.21200
C 	C 	0.84060 0.06907 0.61879 0.12400
C 	C 	0.04770 0.21910 0.62890 0.46700
C 	C 	0.08670 0.30430 0.68330 -1.02100
C 	C 	0.85290 0.02472 0.90260 0.41800
C 	C 	0.28010 0.74430 0.57260 0.10300
C 	C 	0.16130 0.66700 0.55600 -0.18300
C 	C 	0.19640 0.59400 0.50270 0.12600
C 	C 	0.35200 0.60550 0.46700 -0.20500
C 	C 	0.46340 0.68530 0.48590 0.11000
C 	C 	0.07600 0.50870 0.48450 -0.10600
C 	C 	0.10540 0.90199 0.72319 0.27800
C 	C 	0.23550 0.98159 0.75574 0.02300
C 	C 	0.33730 0.04159 0.69795 -0.14300
C 	C 	0.43720 0.11913 0.73578 0.10800
C 	C 	0.44030 0.13579 0.82785 -0.20400
C 	C 	0.34060 0.06907 0.88121 0.12200
C 	C 	0.54770 0.21910 0.87110 0.44800
C 	C 	0.58670 0.30430 0.81670 -0.99700
C 	C 	0.35290 0.02472 0.59740 0.42000
C 	C 	0.78010 0.74430 0.92740 0.10300
C 	C 	0.66130 0.66700 0.94400 -0.18300
C 	C 	0.69640 0.59400 0.99730 0.12800
C 	C 	0.85200 0.60550 0.03300 -0.20300
C 	C 	0.96340 0.68530 0.01410 0.10000
C 	C 	0.57600 0.50870 0.01550 -0.10700
C 	C 	0.39460 0.09801 0.22319 0.27700
C 	C 	0.26450 0.01841 0.25574 0.02800
C 	C 	0.16270 0.95841 0.19795 -0.14800
C 	C 	0.06280 0.88087 0.23578 0.11500
C 	C 	0.05970 0.86421 0.32785 -0.21200
C 	C 	0.15940 0.93093 0.38121 0.12400
C 	C 	0.95230 0.78090 0.37110 0.46700
C 	C 	0.91330 0.69570 0.31670 -1.02100
C 	C 	0.14710 0.97528 0.09740 0.41800
C 	C 	0.71990 0.25570 0.42740 0.10300
C 	C 	0.83870 0.33300 0.44400 -0.18300
C 	C 	0.80360 0.40600 0.49730 0.12600
C 	C 	0.64800 0.39450 0.53300 -0.20500
C 	C 	0.53660 0.31470 0.51410 0.11000
C 	C 	0.92400 0.49130 0.51550 -0.10600
N 	N 	0.76000 0.00552 0.15367 -0.23100
N 	N 	0.06950 0.24486 0.03926 -0.23900
N 	N 	0.74000 0.99448 0.65367 -0.23000
N 	N 	0.43050 0.75514 0.53926 -0.24300
N 	N 	0.24000 0.99448 0.84633 -0.23100
N 	N 	0.93050 0.75514 0.96074 -0.23900
N 	N 	0.26000 0.00552 0.34633 -0.23000
N 	N 	0.56950 0.24486 0.46074 -0.24300
O 	O 	0.95810 0.15804 0.21751 -0.39400
O 	O 	0.93400 0.09924 0.35754 -0.25000
O 	O 	0.60280 0.04958 0.42893 -0.44600
O 	O 	0.67310 0.90797 0.45263 -0.44300
O 	O 	0.54190 0.84196 0.71751 -0.39100
O 	O 	0.56600 0.90076 0.85754 -0.24900
O 	O 	0.89720 0.95042 0.92893 -0.44200
O 	O 	0.82690 0.09203 0.95263 -0.44300
O 	O 	0.04190 0.84196 0.78249 -0.39400
O 	O 	0.06600 0.90076 0.64246 -0.25000
O 	O 	0.39720 0.95042 0.57107 -0.44600
O 	O 	0.32690 0.09203 0.54737 -0.44300
O 	O 	0.45810 0.15804 0.28249 -0.39100
O 	O 	0.43400 0.09924 0.14246 -0.24900
O 	O 	0.10280 0.04958 0.07107 -0.44200
O 	O 	0.17310 0.90797 0.04737 -0.44300
