data_crystal

_cell_length_a 7.73990
_cell_length_b 9.95100
_cell_length_c 15.09100
_cell_angle_alpha 90.00000
_cell_angle_beta  98.51000
_cell_angle_gamma 90.00000

_symmetry_space_group_name_	'P 1'
_symmetry_space_group_name_H-M	'P 1'

loop_
_symmetry_equiv_pos_as_xyz
  x,y,z

loop_
_atom_site_label
_atom_site_type_symbol
_atom_site_fract_x
_atom_site_fract_y
_atom_site_fract_z
_atom_site_charge
Ce	Ce	0.35723 0.04340 0.64044 2.12100
Ce	Ce	0.14277 0.54340 0.85956 2.12000
Ce	Ce	0.64277 0.95660 0.35956 2.12200
Ce	Ce	0.85723 0.45660 0.14044 2.12100
H 	H 	0.11800 0.30200 0.48220 -0.00400
H 	H 	0.32500 0.61000 0.63160 -0.04200
H 	H 	0.29500 0.60700 0.36120 -0.02500
H 	H 	0.38200 0.80200 0.01780 0.00200
H 	H 	0.17500 0.11000 0.86840 -0.02700
H 	H 	0.20500 0.10700 0.13880 -0.02000
H 	H 	0.88200 0.69800 0.51780 -0.00400
H 	H 	0.67500 0.39000 0.36840 -0.04200
H 	H 	0.70500 0.39300 0.63880 -0.02500
H 	H 	0.61800 0.19800 0.98220 0.00200
H 	H 	0.82500 0.89000 0.13160 -0.02700
H 	H 	0.79500 0.89300 0.86120 -0.02000
C 	C 	0.19120 0.36380 0.65403 0.46500
C 	C 	0.21990 0.44125 0.57256 -0.24500
C 	C 	0.17040 0.38600 0.48816 0.13500
C 	C 	0.27370 0.56640 0.41811 0.13300
C 	C 	0.32510 0.63090 0.49923 -0.23600
C 	C 	0.29530 0.56840 0.57780 0.17300
C 	C 	0.41140 0.76630 0.50131 0.51200
C 	C 	0.95690 0.96797 0.53829 0.23300
C 	C 	0.30880 0.86380 0.84597 0.45400
C 	C 	0.28010 0.94125 0.92744 -0.21200
C 	C 	0.32960 0.88600 0.01184 0.11600
C 	C 	0.22630 0.06640 0.08189 0.11900
C 	C 	0.17490 0.13090 0.00077 -0.19400
C 	C 	0.20470 0.06840 0.92220 0.12100
C 	C 	0.08860 0.26630 0.99869 0.47700
C 	C 	0.54310 0.46797 0.96171 0.23600
C 	C 	0.80880 0.63620 0.34597 0.46500
C 	C 	0.78010 0.55875 0.42744 -0.24500
C 	C 	0.82960 0.61400 0.51184 0.13500
C 	C 	0.72630 0.43360 0.58189 0.13300
C 	C 	0.67490 0.36910 0.50077 -0.23600
C 	C 	0.70470 0.43160 0.42220 0.17300
C 	C 	0.58860 0.23370 0.49869 0.51200
C 	C 	0.04310 0.03203 0.46171 0.23300
C 	C 	0.69120 0.13620 0.15403 0.45400
C 	C 	0.71990 0.05875 0.07256 -0.21200
C 	C 	0.67040 0.11400 0.98816 0.11600
C 	C 	0.77370 0.93360 0.91811 0.11900
C 	C 	0.82510 0.86910 0.99923 -0.19400
C 	C 	0.79530 0.93160 0.07780 0.12100
C 	C 	0.91140 0.73370 0.00131 0.47700
C 	C 	0.45690 0.53203 0.03829 0.23600
N 	N 	0.19320 0.44597 0.41179 -0.17500
N 	N 	0.30680 0.94597 0.08821 -0.16900
N 	N 	0.80680 0.55403 0.58821 -0.17500
N 	N 	0.69320 0.05403 0.91179 -0.16900
O 	O 	0.16351 0.23861 0.64493 -0.51900
O 	O 	0.19610 0.42423 0.72685 -0.56000
O 	O 	0.47190 0.80262 0.43308 -0.57500
O 	O 	0.41660 0.83408 0.57182 -0.56100
O 	O 	0.05310 0.94721 0.61127 -0.41200
O 	O 	0.79755 0.94016 0.52055 -0.42100
O 	O 	0.33649 0.73861 0.85507 -0.51400
O 	O 	0.30390 0.92423 0.77315 -0.55300
O 	O 	0.02810 0.30262 0.06692 -0.56000
O 	O 	0.08340 0.33408 0.92818 -0.55700
O 	O 	0.44690 0.44721 0.88873 -0.41700
O 	O 	0.70245 0.44016 0.97945 -0.42000
O 	O 	0.83649 0.76139 0.35507 -0.51900
O 	O 	0.80390 0.57577 0.27315 -0.56000
O 	O 	0.52810 0.19738 0.56692 -0.57500
O 	O 	0.58340 0.16592 0.42818 -0.56100
O 	O 	0.94690 0.05279 0.38873 -0.41200
O 	O 	0.20245 0.05984 0.47945 -0.42100
O 	O 	0.66351 0.26139 0.14493 -0.51400
O 	O 	0.69610 0.07577 0.22685 -0.55300
O 	O 	0.97190 0.69738 0.93308 -0.56000
O 	O 	0.91660 0.66592 0.07182 -0.55700
O 	O 	0.55310 0.55279 0.11127 -0.41700
O 	O 	0.29755 0.55984 0.02055 -0.42000
