data_crystal

_cell_length_a 8.26700
_cell_length_b 13.34400
_cell_length_c 14.72400
_cell_angle_alpha 90.00000
_cell_angle_beta  90.00000
_cell_angle_gamma 105.84000

_symmetry_space_group_name_	'P 1'
_symmetry_space_group_name_H-M	'P 1'

loop_
_symmetry_equiv_pos_as_xyz
  x,y,z

loop_
_atom_site_label
_atom_site_type_symbol
_atom_site_fract_x
_atom_site_fract_y
_atom_site_fract_z
_atom_site_charge
Co	Co	0.31660 0.36953 0.08315 1.15600
Co	Co	0.18340 0.63047 0.58315 1.15700
Co	Co	0.68340 0.63047 0.91685 1.15600
Co	Co	0.81660 0.36953 0.41685 1.15700
H 	H 	0.12020 0.67660 0.30080 -0.03200
H 	H 	0.22010 0.58460 0.05610 -0.01300
H 	H 	0.00850 0.72490 0.11940 -0.15700
H 	H 	0.18180 0.75300 0.06960 -0.16100
H 	H 	0.29590 0.85560 0.19100 0.38500
H 	H 	0.15690 0.89330 0.13980 0.39100
H 	H 	0.11460 0.83350 0.23220 0.38400
H 	H 	0.59090 0.26810 0.10940 0.02100
H 	H 	0.67190 0.12190 0.08420 0.07200
H 	H 	0.25890 0.01500 0.93580 0.06300
H 	H 	0.19680 0.16850 0.96170 -0.02100
H 	H 	0.37980 0.32340 0.80080 -0.03300
H 	H 	0.27990 0.41540 0.55610 -0.01300
H 	H 	0.49150 0.27510 0.61940 -0.15600
H 	H 	0.31820 0.24700 0.56960 -0.16000
H 	H 	0.20410 0.14440 0.69100 0.38500
H 	H 	0.34310 0.10670 0.63980 0.39100
H 	H 	0.38540 0.16650 0.73220 0.38400
H 	H 	0.90910 0.73190 0.60940 0.02100
H 	H 	0.82810 0.87810 0.58420 0.07200
H 	H 	0.24110 0.98500 0.43580 0.06300
H 	H 	0.30320 0.83150 0.46170 -0.02100
H 	H 	0.87980 0.32340 0.69920 -0.03300
H 	H 	0.77990 0.41540 0.94390 -0.01400
H 	H 	0.99150 0.27510 0.88060 -0.15700
H 	H 	0.81820 0.24700 0.93040 -0.16100
H 	H 	0.70410 0.14440 0.80900 0.38500
H 	H 	0.84310 0.10670 0.86020 0.39100
H 	H 	0.88540 0.16650 0.76780 0.38400
H 	H 	0.40910 0.73190 0.89060 0.02100
H 	H 	0.32810 0.87810 0.91580 0.07200
H 	H 	0.74110 0.98500 0.06420 0.06300
H 	H 	0.80320 0.83150 0.03830 -0.02100
H 	H 	0.62020 0.67660 0.19920 -0.03300
H 	H 	0.72010 0.58460 0.44390 -0.01300
H 	H 	0.50850 0.72490 0.38060 -0.15600
H 	H 	0.68180 0.75300 0.43040 -0.16000
H 	H 	0.79590 0.85560 0.30900 0.38500
H 	H 	0.65690 0.89330 0.36020 0.39100
H 	H 	0.61460 0.83350 0.26780 0.38400
H 	H 	0.09090 0.26810 0.39060 0.02100
H 	H 	0.17190 0.12190 0.41580 0.07200
H 	H 	0.75890 0.01500 0.56420 0.06300
H 	H 	0.69680 0.16850 0.53830 -0.02100
C 	C 	0.32080 0.39400 0.27740 0.28100
C 	C 	0.25240 0.48090 0.24400 0.03100
C 	C 	0.15670 0.63120 0.26330 0.16200
C 	C 	0.16860 0.65050 0.17120 -0.28900
C 	C 	0.21730 0.57660 0.11890 0.16600
C 	C 	0.16810 0.52910 0.40240 0.42300
C 	C 	0.12900 0.74230 0.12900 0.63900
C 	C 	0.17810 0.83920 0.17690 -1.23800
C 	C 	0.52230 0.21600 0.07380 0.07400
C 	C 	0.57180 0.12790 0.05910 -0.13500
C 	C 	0.47600 0.04870 0.00790 0.04300
C 	C 	0.33030 0.06580 0.97150 -0.15600
C 	C 	0.29260 0.15800 0.98870 0.08200
C 	C 	0.19670 0.54750 0.30150 -0.16400
C 	C 	0.17920 0.60600 0.77740 0.28100
C 	C 	0.24760 0.51910 0.74400 0.03200
C 	C 	0.34330 0.36880 0.76330 0.16200
C 	C 	0.33140 0.34950 0.67120 -0.28800
C 	C 	0.28270 0.42340 0.61890 0.16600
C 	C 	0.33190 0.47090 0.90240 0.42300
C 	C 	0.37100 0.25770 0.62900 0.63800
C 	C 	0.32190 0.16080 0.67690 -1.23700
C 	C 	0.97770 0.78400 0.57380 0.07400
C 	C 	0.92820 0.87210 0.55910 -0.13500
C 	C 	0.02400 0.95130 0.50790 0.04300
C 	C 	0.16970 0.93420 0.47150 -0.15600
C 	C 	0.20740 0.84200 0.48870 0.08200
C 	C 	0.30330 0.45250 0.80150 -0.16400
C 	C 	0.67920 0.60600 0.72260 0.28100
C 	C 	0.74760 0.51910 0.75600 0.03100
C 	C 	0.84330 0.36880 0.73670 0.16200
C 	C 	0.83140 0.34950 0.82880 -0.28900
C 	C 	0.78270 0.42340 0.88110 0.16600
C 	C 	0.83190 0.47090 0.59760 0.42300
C 	C 	0.87100 0.25770 0.87100 0.63900
C 	C 	0.82190 0.16080 0.82310 -1.23800
C 	C 	0.47770 0.78400 0.92620 0.07400
C 	C 	0.42820 0.87210 0.94090 -0.13500
C 	C 	0.52400 0.95130 0.99210 0.04300
C 	C 	0.66970 0.93420 0.02850 -0.15600
C 	C 	0.70740 0.84200 0.01130 0.08200
C 	C 	0.80330 0.45250 0.69850 -0.16400
C 	C 	0.82080 0.39400 0.22260 0.28100
C 	C 	0.75240 0.48090 0.25600 0.03200
C 	C 	0.65670 0.63120 0.23670 0.16200
C 	C 	0.66860 0.65050 0.32880 -0.28800
C 	C 	0.71730 0.57660 0.38110 0.16600
C 	C 	0.66810 0.52910 0.09760 0.42300
C 	C 	0.62900 0.74230 0.37100 0.63800
C 	C 	0.67810 0.83920 0.32310 -1.23700
C 	C 	0.02230 0.21600 0.42620 0.07400
C 	C 	0.07180 0.12790 0.44090 -0.13500
C 	C 	0.97600 0.04870 0.49210 0.04300
C 	C 	0.83030 0.06580 0.52850 -0.15600
C 	C 	0.79260 0.15800 0.51130 0.08200
C 	C 	0.69670 0.54750 0.19850 -0.16400
N 	N 	0.26010 0.49530 0.15346 -0.24100
N 	N 	0.38220 0.23190 0.04042 -0.23500
N 	N 	0.23990 0.50470 0.65346 -0.24000
N 	N 	0.11780 0.76810 0.54042 -0.23400
N 	N 	0.73990 0.50470 0.84654 -0.24100
N 	N 	0.61780 0.76810 0.95958 -0.23500
N 	N 	0.76010 0.49530 0.34654 -0.24000
N 	N 	0.88220 0.23190 0.45958 -0.23400
O 	O 	0.33770 0.32848 0.21819 -0.39500
O 	O 	0.35850 0.39266 0.35778 -0.25000
O 	O 	0.06740 0.44628 0.42838 -0.44500
O 	O 	0.24310 0.60258 0.45249 -0.44400
O 	O 	0.16230 0.67152 0.71819 -0.39500
O 	O 	0.14150 0.60734 0.85778 -0.25000
O 	O 	0.43260 0.55372 0.92838 -0.44500
O 	O 	0.25690 0.39742 0.95249 -0.44300
O 	O 	0.66230 0.67152 0.78181 -0.39500
O 	O 	0.64150 0.60734 0.64222 -0.25000
O 	O 	0.93260 0.55372 0.57162 -0.44500
O 	O 	0.75690 0.39742 0.54751 -0.44400
O 	O 	0.83770 0.32848 0.28181 -0.39500
O 	O 	0.85850 0.39266 0.14222 -0.25000
O 	O 	0.56740 0.44628 0.07162 -0.44500
O 	O 	0.74310 0.60258 0.04751 -0.44300
