data_crystal

_cell_length_a 16.18710
_cell_length_b 16.30690
_cell_length_c 9.97620
_cell_angle_alpha 90.00000
_cell_angle_beta  114.62800
_cell_angle_gamma 90.00000

_symmetry_space_group_name_	'P 1'
_symmetry_space_group_name_H-M	'P 1'

loop_
_symmetry_equiv_pos_as_xyz
  x,y,z

loop_
_atom_site_label
_atom_site_type_symbol
_atom_site_fract_x
_atom_site_fract_y
_atom_site_fract_z
_atom_site_charge
C 	C 	0.42040 0.15280 0.33370 0.05000
H 	H 	0.42850 0.09630 0.33650 -0.00300
C 	C 	0.49310 0.20128 0.41610 -0.08100
H 	H 	0.54940 0.17800 0.47270 0.07700
C 	C 	0.48120 0.28580 0.41380 -0.01700
C 	C 	0.39700 0.31810 0.32490 -0.07900
H 	H 	0.38760 0.37450 0.32000 0.06500
C 	C 	0.32740 0.26580 0.24410 0.03900
H 	H 	0.27110 0.28790 0.18400 0.00600
C 	C 	0.55850 0.34190 0.50390 0.29000
C 	C 	0.19750 0.98755 0.89650 0.21100
N 	N 	0.33776 0.18363 0.24880 -0.25600
N 	N 	0.24226 0.04886 0.98790 -0.26300
N 	N 	0.31426 0.06762 0.95550 -0.06800
N 	N 	0.31316 0.02070 0.85190 -0.07300
N 	N 	0.23977 0.96870 0.81040 -0.27100
N 	N 	0.12380 0.94967 0.89700 -0.34700
H 	H 	0.09970 0.90930 0.83810 0.14800
H 	H 	0.10080 0.96580 0.95620 0.16600
O 	O 	0.63509 0.30625 0.57480 -0.45600
O 	O 	0.54619 0.41627 0.50490 -0.33300
Zn	Zn	0.22743 0.10838 0.14975 1.19500
C 	C 	0.92040 0.65280 0.33370 0.05000
H 	H 	0.92850 0.59630 0.33650 -0.00300
C 	C 	0.99310 0.70128 0.41610 -0.08200
H 	H 	0.04940 0.67800 0.47270 0.07700
C 	C 	0.98120 0.78580 0.41380 -0.01700
C 	C 	0.89700 0.81810 0.32490 -0.08000
H 	H 	0.88760 0.87450 0.32000 0.06500
C 	C 	0.82740 0.76580 0.24410 0.03900
H 	H 	0.77110 0.78790 0.18400 0.00600
C 	C 	0.05850 0.84190 0.50390 0.28900
C 	C 	0.69750 0.48755 0.89650 0.21400
N 	N 	0.83776 0.68363 0.24880 -0.25500
N 	N 	0.74226 0.54886 0.98790 -0.26500
N 	N 	0.81426 0.56762 0.95550 -0.06800
N 	N 	0.81316 0.52070 0.85190 -0.07500
N 	N 	0.73977 0.46870 0.81040 -0.27100
N 	N 	0.62380 0.44967 0.89700 -0.34800
H 	H 	0.59970 0.40930 0.83810 0.14900
H 	H 	0.60080 0.46580 0.95620 0.16800
O 	O 	0.13509 0.80625 0.57480 -0.45600
O 	O 	0.04619 0.91627 0.50490 -0.33300
Zn	Zn	0.72743 0.60838 0.14975 1.19500
C 	C 	0.42040 0.84720 0.83370 0.04900
H 	H 	0.42850 0.90370 0.83650 -0.00300
C 	C 	0.49310 0.79872 0.91610 -0.08100
H 	H 	0.54940 0.82200 0.97270 0.07600
C 	C 	0.48120 0.71420 0.91380 -0.01900
C 	C 	0.39700 0.68190 0.82490 -0.07900
H 	H 	0.38760 0.62550 0.82000 0.06400
C 	C 	0.32740 0.73420 0.74410 0.03900
H 	H 	0.27110 0.71210 0.68400 0.00600
C 	C 	0.55850 0.65810 0.00390 0.29100
C 	C 	0.19750 0.01245 0.39650 0.21500
N 	N 	0.33776 0.81637 0.74880 -0.25500
N 	N 	0.24226 0.95114 0.48790 -0.26500
N 	N 	0.31426 0.93238 0.45550 -0.06800
N 	N 	0.31316 0.97930 0.35190 -0.07400
N 	N 	0.23977 0.03130 0.31040 -0.27100
N 	N 	0.12380 0.05033 0.39700 -0.34800
H 	H 	0.09970 0.09070 0.33810 0.14900
H 	H 	0.10080 0.03420 0.45620 0.16800
O 	O 	0.63509 0.69375 0.07480 -0.45600
O 	O 	0.54619 0.58373 0.00490 -0.33400
Zn	Zn	0.22743 0.89162 0.64975 1.19500
C 	C 	0.92040 0.34720 0.83370 0.05000
H 	H 	0.92850 0.40370 0.83650 -0.00300
C 	C 	0.99310 0.29872 0.91610 -0.08000
H 	H 	0.04940 0.32200 0.97270 0.07600
C 	C 	0.98120 0.21420 0.91380 -0.01600
C 	C 	0.89700 0.18190 0.82490 -0.08000
H 	H 	0.88760 0.12550 0.82000 0.06500
C 	C 	0.82740 0.23420 0.74410 0.04000
H 	H 	0.77110 0.21210 0.68400 0.00600
C 	C 	0.05850 0.15810 0.00390 0.28900
C 	C 	0.69750 0.51245 0.39650 0.21400
N 	N 	0.83776 0.31637 0.74880 -0.25500
N 	N 	0.74226 0.45114 0.48790 -0.26500
N 	N 	0.81426 0.43238 0.45550 -0.06800
N 	N 	0.81316 0.47930 0.35190 -0.07500
N 	N 	0.73977 0.53130 0.31040 -0.27100
N 	N 	0.62380 0.55033 0.39700 -0.34800
H 	H 	0.59970 0.59070 0.33810 0.14900
H 	H 	0.60080 0.53420 0.45620 0.16800
O 	O 	0.13509 0.19375 0.07480 -0.45600
O 	O 	0.04619 0.08373 0.00490 -0.33300
Zn	Zn	0.72743 0.39162 0.64975 1.19500
C 	C 	0.57960 0.15280 0.16630 0.04900
H 	H 	0.57150 0.09630 0.16350 -0.00300
C 	C 	0.50690 0.20128 0.08390 -0.08100
H 	H 	0.45060 0.17800 0.02730 0.07600
C 	C 	0.51880 0.28580 0.08620 -0.01900
C 	C 	0.60300 0.31810 0.17510 -0.07900
H 	H 	0.61240 0.37450 0.18000 0.06400
C 	C 	0.67260 0.26580 0.25590 0.03900
H 	H 	0.72890 0.28790 0.31600 0.00600
C 	C 	0.44150 0.34190 0.99610 0.29100
C 	C 	0.80250 0.98755 0.60350 0.21500
N 	N 	0.66224 0.18363 0.25120 -0.25500
N 	N 	0.75774 0.04886 0.51210 -0.26500
N 	N 	0.68574 0.06762 0.54450 -0.06800
N 	N 	0.68684 0.02070 0.64810 -0.07400
N 	N 	0.76023 0.96870 0.68960 -0.27100
N 	N 	0.87620 0.94967 0.60300 -0.34800
H 	H 	0.90030 0.90930 0.66190 0.14900
H 	H 	0.89920 0.96580 0.54380 0.16800
O 	O 	0.36491 0.30625 0.92520 -0.45600
O 	O 	0.45381 0.41627 0.99510 -0.33400
Zn	Zn	0.77257 0.10838 0.35025 1.19500
C 	C 	0.07960 0.65280 0.16630 0.05000
H 	H 	0.07150 0.59630 0.16350 -0.00300
C 	C 	0.00690 0.70128 0.08390 -0.08000
H 	H 	0.95060 0.67800 0.02730 0.07600
C 	C 	0.01880 0.78580 0.08620 -0.01600
C 	C 	0.10300 0.81810 0.17510 -0.08000
H 	H 	0.11240 0.87450 0.18000 0.06500
C 	C 	0.17260 0.76580 0.25590 0.04000
H 	H 	0.22890 0.78790 0.31600 0.00600
C 	C 	0.94150 0.84190 0.99610 0.28900
C 	C 	0.30250 0.48755 0.60350 0.21400
N 	N 	0.16224 0.68363 0.25120 -0.25500
N 	N 	0.25774 0.54886 0.51210 -0.26500
N 	N 	0.18574 0.56762 0.54450 -0.06800
N 	N 	0.18684 0.52070 0.64810 -0.07500
N 	N 	0.26023 0.46870 0.68960 -0.27100
N 	N 	0.37620 0.44967 0.60300 -0.34800
H 	H 	0.40030 0.40930 0.66190 0.14900
H 	H 	0.39920 0.46580 0.54380 0.16800
O 	O 	0.86491 0.80625 0.92520 -0.45600
O 	O 	0.95381 0.91627 0.99510 -0.33300
Zn	Zn	0.27257 0.60838 0.35025 1.19500
C 	C 	0.57960 0.84720 0.66630 0.05000
H 	H 	0.57150 0.90370 0.66350 -0.00300
C 	C 	0.50690 0.79872 0.58390 -0.08100
H 	H 	0.45060 0.82200 0.52730 0.07700
C 	C 	0.51880 0.71420 0.58620 -0.01700
C 	C 	0.60300 0.68190 0.67510 -0.07900
H 	H 	0.61240 0.62550 0.68000 0.06500
C 	C 	0.67260 0.73420 0.75590 0.03900
H 	H 	0.72890 0.71210 0.81600 0.00600
C 	C 	0.44150 0.65810 0.49610 0.29000
C 	C 	0.80250 0.01245 0.10350 0.21100
N 	N 	0.66224 0.81637 0.75120 -0.25600
N 	N 	0.75774 0.95114 0.01210 -0.26300
N 	N 	0.68574 0.93238 0.04450 -0.06800
N 	N 	0.68684 0.97930 0.14810 -0.07300
N 	N 	0.76023 0.03130 0.18960 -0.27100
N 	N 	0.87620 0.05033 0.10300 -0.34700
H 	H 	0.90030 0.09070 0.16190 0.14800
H 	H 	0.89920 0.03420 0.04380 0.16600
O 	O 	0.36491 0.69375 0.42520 -0.45600
O 	O 	0.45381 0.58373 0.49510 -0.33300
Zn	Zn	0.77257 0.89162 0.85025 1.19500
C 	C 	0.07960 0.34720 0.66630 0.05000
H 	H 	0.07150 0.40370 0.66350 -0.00300
C 	C 	0.00690 0.29872 0.58390 -0.08200
H 	H 	0.95060 0.32200 0.52730 0.07700
C 	C 	0.01880 0.21420 0.58620 -0.01700
C 	C 	0.10300 0.18190 0.67510 -0.08000
H 	H 	0.11240 0.12550 0.68000 0.06500
C 	C 	0.17260 0.23420 0.75590 0.03900
H 	H 	0.22890 0.21210 0.81600 0.00600
C 	C 	0.94150 0.15810 0.49610 0.28900
C 	C 	0.30250 0.51245 0.10350 0.21400
N 	N 	0.16224 0.31637 0.75120 -0.25500
N 	N 	0.25774 0.45114 0.01210 -0.26500
N 	N 	0.18574 0.43238 0.04450 -0.06800
N 	N 	0.18684 0.47930 0.14810 -0.07500
N 	N 	0.26023 0.53130 0.18960 -0.27100
N 	N 	0.37620 0.55033 0.10300 -0.34800
H 	H 	0.40030 0.59070 0.16190 0.14900
H 	H 	0.39920 0.53420 0.04380 0.16800
O 	O 	0.86491 0.19375 0.42520 -0.45600
O 	O 	0.95381 0.08373 0.49510 -0.33300
Zn	Zn	0.27257 0.39162 0.85025 1.19500
