data_crystal

_cell_length_a 14.29410
_cell_length_b 14.29410
_cell_length_c 14.29410
_cell_angle_alpha 90.00000
_cell_angle_beta  90.00000
_cell_angle_gamma 90.00000

_symmetry_space_group_name_	'P 1'
_symmetry_space_group_name_H-M	'P 1'

loop_
_symmetry_equiv_pos_as_xyz
  x,y,z

loop_
_atom_site_label
_atom_site_type_symbol
_atom_site_fract_x
_atom_site_fract_y
_atom_site_fract_z
_atom_site_charge
C 	C 	0.34860 0.89440 0.51650 -0.24200
C 	C 	0.42550 0.83280 0.53170 0.14400
H 	H 	0.43590 0.78260 0.49170 -0.03600
C 	C 	0.27920 0.87640 0.43910 0.45400
O 	O 	0.29900 0.80710 0.38550 -0.54600
O 	O 	0.21780 0.93260 0.42540 -0.55900
C 	C 	0.15140 0.10560 0.01650 -0.24200
C 	C 	0.07450 0.16720 0.03170 0.14800
H 	H 	0.06410 0.21740 0.99170 -0.03700
C 	C 	0.22080 0.12360 0.93910 0.45400
O 	O 	0.20100 0.19290 0.88550 -0.54600
O 	O 	0.28220 0.06740 0.92540 -0.55900
C 	C 	0.65140 0.39440 0.98350 -0.24000
C 	C 	0.57450 0.33280 0.96830 0.14500
H 	H 	0.56410 0.28260 0.00830 -0.03500
C 	C 	0.72080 0.37640 0.06090 0.45300
O 	O 	0.70100 0.30710 0.11450 -0.54600
O 	O 	0.78220 0.43260 0.07460 -0.55900
C 	C 	0.84860 0.60560 0.48350 -0.24000
C 	C 	0.92550 0.66720 0.46830 0.14500
H 	H 	0.93590 0.71740 0.50830 -0.03500
C 	C 	0.77920 0.62360 0.56090 0.45400
O 	O 	0.79900 0.69290 0.61450 -0.54600
O 	O 	0.71780 0.56740 0.57460 -0.55900
C 	C 	0.51650 0.34860 0.89440 -0.24100
C 	C 	0.53170 0.42550 0.83280 0.14500
H 	H 	0.49170 0.43590 0.78260 -0.03500
C 	C 	0.43910 0.27920 0.87640 0.45400
O 	O 	0.38550 0.29900 0.80710 -0.54600
O 	O 	0.42540 0.21780 0.93260 -0.55900
C 	C 	0.01650 0.15140 0.10560 -0.24200
C 	C 	0.03170 0.07450 0.16720 0.14800
H 	H 	0.99170 0.06410 0.21740 -0.03700
C 	C 	0.93910 0.22080 0.12360 0.45400
O 	O 	0.88550 0.20100 0.19290 -0.54600
O 	O 	0.92540 0.28220 0.06740 -0.55900
C 	C 	0.98350 0.65140 0.39440 -0.24000
C 	C 	0.96830 0.57450 0.33280 0.14500
H 	H 	0.00830 0.56410 0.28260 -0.03500
C 	C 	0.06090 0.72080 0.37640 0.45300
O 	O 	0.11450 0.70100 0.30710 -0.54600
O 	O 	0.07460 0.78220 0.43260 -0.55900
C 	C 	0.48350 0.84860 0.60560 -0.24000
C 	C 	0.46830 0.92550 0.66720 0.14500
H 	H 	0.50830 0.93590 0.71740 -0.03500
C 	C 	0.56090 0.77920 0.62360 0.45400
O 	O 	0.61450 0.79900 0.69290 -0.54600
O 	O 	0.57460 0.71780 0.56740 -0.55900
C 	C 	0.89440 0.51650 0.34860 -0.24100
C 	C 	0.83280 0.53170 0.42550 0.14500
H 	H 	0.78260 0.49170 0.43590 -0.03500
C 	C 	0.87640 0.43910 0.27920 0.45400
O 	O 	0.80710 0.38550 0.29900 -0.54600
O 	O 	0.93260 0.42540 0.21780 -0.55900
C 	C 	0.10560 0.01650 0.15140 -0.24200
C 	C 	0.16720 0.03170 0.07450 0.14800
H 	H 	0.21740 0.99170 0.06410 -0.03700
C 	C 	0.12360 0.93910 0.22080 0.45400
O 	O 	0.19290 0.88550 0.20100 -0.54600
O 	O 	0.06740 0.92540 0.28220 -0.55900
C 	C 	0.39440 0.98350 0.65140 -0.24000
C 	C 	0.33280 0.96830 0.57450 0.14500
H 	H 	0.28260 0.00830 0.56410 -0.03500
C 	C 	0.37640 0.06090 0.72080 0.45300
O 	O 	0.30710 0.11450 0.70100 -0.54600
O 	O 	0.43260 0.07460 0.78220 -0.55900
C 	C 	0.60560 0.48350 0.84860 -0.24000
C 	C 	0.66720 0.46830 0.92550 0.14500
H 	H 	0.71740 0.50830 0.93590 -0.03500
C 	C 	0.62360 0.56090 0.77920 0.45400
O 	O 	0.69290 0.61450 0.79900 -0.54600
O 	O 	0.56740 0.57460 0.71780 -0.55900
Zn	Zn	0.22027 0.77973 0.27973 1.19200
Zn	Zn	0.07348 0.92652 0.42652 1.15400
Zn	Zn	0.27973 0.22027 0.77973 1.19200
Zn	Zn	0.42652 0.07348 0.92652 1.15400
Zn	Zn	0.77973 0.27973 0.22027 1.19200
Zn	Zn	0.92652 0.42652 0.07348 1.15400
Zn	Zn	0.72027 0.72027 0.72027 1.19200
Zn	Zn	0.57348 0.57348 0.57348 1.15400
