data_crystal

_cell_length_a 16.29100
_cell_length_b 24.68400
_cell_length_c 13.43500
_cell_angle_alpha 90.00000
_cell_angle_beta  124.09800
_cell_angle_gamma 90.00000

_symmetry_space_group_name_	'P 1'
_symmetry_space_group_name_H-M	'P 1'

loop_
_symmetry_equiv_pos_as_xyz
  x,y,z

loop_
_atom_site_label
_atom_site_type_symbol
_atom_site_fract_x
_atom_site_fract_y
_atom_site_fract_z
_atom_site_charge
Zn	Zn	0.82509 0.55238 0.72903 1.22300
O 	O 	0.23610 0.56340 0.94360 -0.43700
O 	O 	0.12000 0.62230 0.91050 -0.33900
O 	O 	0.15090 0.52980 0.08350 -0.46800
O 	O 	0.25080 0.51290 0.28030 -0.45100
O 	O 	0.46900 0.65680 0.53610 -0.13400
O 	O 	0.51800 0.71640 0.47030 -0.13100
O 	O 	0.95980 0.53897 0.84560 -0.74600
H 	H 	0.99850 0.56200 0.84530 0.31600
N 	N 	0.46810 0.67780 0.45500 -0.01500
N 	N 	0.95970 0.57100 0.05920 -0.26500
N 	N 	0.73720 0.88440 0.23560 -0.27600
C 	C 	0.26830 0.61800 0.10420 -0.14000
C 	C 	0.28150 0.59030 0.20350 0.00500
C 	C 	0.34900 0.60960 0.31830 -0.12700
H 	H 	0.35980 0.59080 0.38460 0.10600
C 	C 	0.40010 0.65670 0.33430 0.14000
C 	C 	0.38850 0.68540 0.23930 -0.16600
H 	H 	0.42450 0.71680 0.25200 0.10800
C 	C 	0.32130 0.66590 0.12410 0.07900
H 	H 	0.31130 0.68520 0.05860 0.00400
C 	C 	0.20050 0.59970 0.97660 0.40600
C 	C 	0.22150 0.54040 0.18540 0.34700
C 	C 	0.97930 0.62160 0.04590 0.21100
H 	H 	0.01800 0.62700 0.01580 -0.09000
C 	C 	0.94600 0.66630 0.07360 -0.24600
H 	H 	0.96160 0.70100 0.06200 0.13800
C 	C 	0.88750 0.65900 0.12000 0.16200
C 	C 	0.86730 0.60570 0.13330 -0.20800
H 	H 	0.82900 0.59870 0.16340 0.10600
C 	C 	0.90310 0.56360 0.10280 0.12100
H 	H 	0.88810 0.52840 0.11230 -0.02900
C 	C 	0.84880 0.70330 0.15470 -0.09600
H 	H 	0.80900 0.69350 0.18120 0.06900
C 	C 	0.86390 0.75520 0.15230 -0.09300
H 	H 	0.90550 0.76530 0.12860 0.08200
C 	C 	0.79460 0.89300 0.19590 0.12800
H 	H 	0.80710 0.92860 0.18580 -0.00700
C 	C 	0.83660 0.85230 0.16900 -0.19900
H 	H 	0.87550 0.86080 0.14050 0.12300
C 	C 	0.82120 0.79920 0.18400 0.15500
C 	C 	0.76270 0.78960 0.22800 -0.18800
H 	H 	0.75110 0.75440 0.24170 0.10800
C 	C 	0.72230 0.83290 0.25090 0.12000
H 	H 	0.68230 0.82570 0.27860 -0.02100
Zn	Zn	0.32509 0.05238 0.72903 1.21300
O 	O 	0.73610 0.06340 0.94360 -0.44700
O 	O 	0.62000 0.12230 0.91050 -0.32900
O 	O 	0.65090 0.02980 0.08350 -0.47900
O 	O 	0.75080 0.01290 0.28030 -0.47400
O 	O 	0.96900 0.15680 0.53610 -0.12400
O 	O 	0.01800 0.21640 0.47030 -0.17300
O 	O 	0.45980 0.03897 0.84560 -0.78200
H 	H 	0.49850 0.06200 0.84530 0.30300
N 	N 	0.96810 0.17780 0.45500 0.00900
N 	N 	0.45970 0.07100 0.05920 -0.26100
N 	N 	0.23720 0.38440 0.23560 -0.28300
C 	C 	0.76830 0.11800 0.10420 -0.13500
C 	C 	0.78150 0.09030 0.20350 0.00200
C 	C 	0.84900 0.10960 0.31830 -0.12400
H 	H 	0.85980 0.09080 0.38460 0.10400
C 	C 	0.90010 0.15670 0.33430 0.14400
C 	C 	0.88850 0.18540 0.23930 -0.16200
H 	H 	0.92450 0.21680 0.25200 0.11900
C 	C 	0.82130 0.16590 0.12410 0.08100
H 	H 	0.81130 0.18520 0.05860 0.00800
C 	C 	0.70050 0.09970 0.97660 0.40100
C 	C 	0.72150 0.04040 0.18540 0.35000
C 	C 	0.47930 0.12160 0.04590 0.09000
H 	H 	0.51800 0.12700 0.01580 -0.01700
C 	C 	0.44600 0.16630 0.07360 -0.18200
H 	H 	0.46160 0.20100 0.06200 0.10200
C 	C 	0.38750 0.15900 0.12000 0.12200
C 	C 	0.36730 0.10570 0.13330 -0.19000
H 	H 	0.32900 0.09870 0.16340 0.09300
C 	C 	0.40310 0.06360 0.10280 0.09800
H 	H 	0.38810 0.02840 0.11230 -0.04900
C 	C 	0.34880 0.20330 0.15470 -0.07900
H 	H 	0.30900 0.19350 0.18120 0.06100
C 	C 	0.36390 0.25520 0.15230 -0.11000
H 	H 	0.40550 0.26530 0.12860 0.08000
C 	C 	0.29460 0.39300 0.19590 0.12800
H 	H 	0.30710 0.42860 0.18580 -0.02500
C 	C 	0.33660 0.35230 0.16900 -0.20900
H 	H 	0.37550 0.36080 0.14050 0.11600
C 	C 	0.32120 0.29920 0.18400 0.15800
C 	C 	0.26270 0.28960 0.22800 -0.19600
H 	H 	0.25110 0.25440 0.24170 0.10800
C 	C 	0.22230 0.33290 0.25090 0.11900
H 	H 	0.18230 0.32570 0.27860 -0.02700
Zn	Zn	0.17491 0.55238 0.77097 1.22100
O 	O 	0.76390 0.56340 0.55640 -0.43400
O 	O 	0.88000 0.62230 0.58950 -0.31400
O 	O 	0.84910 0.52980 0.41650 -0.43100
O 	O 	0.74920 0.51290 0.21970 -0.45300
O 	O 	0.53100 0.65680 0.96390 -0.09500
O 	O 	0.48200 0.71640 0.02970 -0.15000
O 	O 	0.04020 0.53897 0.65440 -0.78100
H 	H 	0.00150 0.56200 0.65470 0.28100
N 	N 	0.53190 0.67780 0.04500 -0.03600
N 	N 	0.04030 0.57100 0.44080 -0.23200
N 	N 	0.26280 0.88440 0.26440 -0.27800
C 	C 	0.73170 0.61800 0.39580 -0.07200
C 	C 	0.71850 0.59030 0.29650 -0.01700
C 	C 	0.65100 0.60960 0.18170 -0.10600
H 	H 	0.64020 0.59080 0.11540 0.08700
C 	C 	0.59990 0.65670 0.16570 0.11700
C 	C 	0.61150 0.68540 0.26070 -0.13400
H 	H 	0.57550 0.71680 0.24800 0.09700
C 	C 	0.67870 0.66590 0.37590 0.04100
H 	H 	0.68870 0.68520 0.44140 0.03400
C 	C 	0.79950 0.59970 0.52340 0.34200
C 	C 	0.77850 0.54040 0.31460 0.35400
C 	C 	0.02070 0.62160 0.45410 -0.02100
H 	H 	0.98200 0.62700 0.48420 0.06700
C 	C 	0.05400 0.66630 0.42640 -0.11100
H 	H 	0.03840 0.70100 0.43800 0.07400
C 	C 	0.11250 0.65900 0.38000 0.08500
C 	C 	0.13270 0.60570 0.36670 -0.15700
H 	H 	0.17100 0.59870 0.33660 0.08400
C 	C 	0.09690 0.56360 0.39720 0.08000
H 	H 	0.11190 0.52840 0.38770 -0.02300
C 	C 	0.15120 0.70330 0.34530 -0.05500
H 	H 	0.19100 0.69350 0.31880 0.05300
C 	C 	0.13610 0.75520 0.34770 -0.12500
H 	H 	0.09450 0.76530 0.37140 0.08400
C 	C 	0.20540 0.89300 0.30410 0.12900
H 	H 	0.19290 0.92860 0.31420 -0.01200
C 	C 	0.16340 0.85230 0.33100 -0.20900
H 	H 	0.12450 0.86080 0.35950 0.11900
C 	C 	0.17880 0.79920 0.31600 0.16300
C 	C 	0.23730 0.78960 0.27200 -0.19800
H 	H 	0.24890 0.75440 0.25830 0.10800
C 	C 	0.27770 0.83290 0.24910 0.12100
H 	H 	0.31770 0.82570 0.22140 -0.02500
Zn	Zn	0.67491 0.05238 0.77097 1.21400
O 	O 	0.26390 0.06340 0.55640 -0.45800
O 	O 	0.38000 0.12230 0.58950 -0.32900
O 	O 	0.34910 0.02980 0.41650 -0.46400
O 	O 	0.24920 0.01290 0.21970 -0.48800
O 	O 	0.03100 0.15680 0.96390 -0.11000
O 	O 	0.98200 0.21640 0.02970 -0.10500
O 	O 	0.54020 0.03897 0.65440 -0.79500
H 	H 	0.50150 0.06200 0.65470 0.30100
N 	N 	0.03190 0.17780 0.04500 -0.06100
N 	N 	0.54030 0.07100 0.44080 -0.25400
N 	N 	0.76280 0.38440 0.26440 -0.28000
C 	C 	0.23170 0.11800 0.39580 -0.07500
C 	C 	0.21850 0.09030 0.29650 -0.03000
C 	C 	0.15100 0.10960 0.18170 -0.10200
H 	H 	0.14020 0.09080 0.11540 0.07600
C 	C 	0.09990 0.15670 0.16570 0.10400
C 	C 	0.11150 0.18540 0.26070 -0.13400
H 	H 	0.07550 0.21680 0.24800 0.08300
C 	C 	0.17870 0.16590 0.37590 0.03300
H 	H 	0.18870 0.18520 0.44140 0.03200
C 	C 	0.29950 0.09970 0.52340 0.34500
C 	C 	0.27850 0.04040 0.31460 0.36000
C 	C 	0.52070 0.12160 0.45410 0.09700
H 	H 	0.48200 0.12700 0.48420 -0.00500
C 	C 	0.55400 0.16630 0.42640 -0.17800
H 	H 	0.53840 0.20100 0.43800 0.11100
C 	C 	0.61250 0.15900 0.38000 0.12800
C 	C 	0.63270 0.10570 0.36670 -0.18600
H 	H 	0.67100 0.09870 0.33660 0.09600
C 	C 	0.59690 0.06360 0.39720 0.10500
H 	H 	0.61190 0.02840 0.38770 -0.04400
C 	C 	0.65120 0.20330 0.34530 -0.07400
H 	H 	0.69100 0.19350 0.31880 0.06200
C 	C 	0.63610 0.25520 0.34770 -0.10800
H 	H 	0.59450 0.26530 0.37140 0.08500
C 	C 	0.70540 0.39300 0.30410 0.13200
H 	H 	0.69290 0.42860 0.31420 -0.02100
C 	C 	0.66340 0.35230 0.33100 -0.20600
H 	H 	0.62450 0.36080 0.35950 0.12200
C 	C 	0.67880 0.29920 0.31600 0.16300
C 	C 	0.73730 0.28960 0.27200 -0.19300
H 	H 	0.74890 0.25440 0.25830 0.10900
C 	C 	0.77770 0.33290 0.24910 0.12300
H 	H 	0.81770 0.32570 0.22140 -0.02100
Zn	Zn	0.17491 0.44762 0.27097 1.21900
O 	O 	0.76390 0.43660 0.05640 -0.43700
O 	O 	0.88000 0.37770 0.08950 -0.31500
O 	O 	0.84910 0.47020 0.91650 -0.40900
O 	O 	0.74920 0.48710 0.71970 -0.44600
O 	O 	0.53100 0.34320 0.46390 -0.13400
O 	O 	0.48200 0.28360 0.52970 -0.13000
O 	O 	0.04020 0.46103 0.15440 -0.78900
H 	H 	0.00150 0.43800 0.15470 0.27700
N 	N 	0.53190 0.32220 0.54500 -0.01100
N 	N 	0.04030 0.42900 0.94080 -0.22400
N 	N 	0.26280 0.11560 0.76440 -0.28400
C 	C 	0.73170 0.38200 0.89580 -0.01500
C 	C 	0.71850 0.40970 0.79650 -0.03000
C 	C 	0.65100 0.39040 0.68170 -0.09200
H 	H 	0.64020 0.40920 0.61540 0.09500
C 	C 	0.59990 0.34330 0.66570 0.11300
C 	C 	0.61150 0.31460 0.76070 -0.11400
H 	H 	0.57550 0.28320 0.74800 0.09400
C 	C 	0.67870 0.33410 0.87590 0.01300
H 	H 	0.68870 0.31480 0.94140 0.05800
C 	C 	0.79950 0.40030 0.02340 0.28900
C 	C 	0.77850 0.45960 0.81460 0.35800
C 	C 	0.02070 0.37840 0.95410 -0.00600
H 	H 	0.98200 0.37300 0.98420 0.07400
C 	C 	0.05400 0.33370 0.92640 -0.11200
H 	H 	0.03840 0.29900 0.93800 0.08600
C 	C 	0.11250 0.34100 0.88000 0.09400
C 	C 	0.13270 0.39430 0.86670 -0.15600
H 	H 	0.17100 0.40130 0.83660 0.08800
C 	C 	0.09690 0.43640 0.89720 0.08900
H 	H 	0.11190 0.47160 0.88770 -0.01900
C 	C 	0.15120 0.29670 0.84530 -0.05000
H 	H 	0.19100 0.30650 0.81880 0.05700
C 	C 	0.13610 0.24480 0.84770 -0.12100
H 	H 	0.09450 0.23470 0.87140 0.08800
C 	C 	0.20540 0.10700 0.80410 0.14100
H 	H 	0.19290 0.07140 0.81420 -0.03300
C 	C 	0.16340 0.14770 0.83100 -0.21300
H 	H 	0.12450 0.13920 0.85950 0.12300
C 	C 	0.17880 0.20080 0.81600 0.17400
C 	C 	0.23730 0.21040 0.77200 -0.19600
H 	H 	0.24890 0.24560 0.75830 0.11300
C 	C 	0.27770 0.16710 0.74910 0.13200
H 	H 	0.31770 0.17430 0.72140 -0.02100
Zn	Zn	0.67491 0.94762 0.27097 1.23000
O 	O 	0.26390 0.93660 0.05640 -0.42600
O 	O 	0.38000 0.87770 0.08950 -0.32600
O 	O 	0.34910 0.97020 0.91650 -0.39400
O 	O 	0.24920 0.98710 0.71970 -0.42200
O 	O 	0.03100 0.84320 0.46390 -0.14400
O 	O 	0.98200 0.78360 0.52970 -0.08700
O 	O 	0.54020 0.96103 0.15440 -0.75000
H 	H 	0.50150 0.93800 0.15470 0.29000
N 	N 	0.03190 0.82220 0.54500 -0.03400
N 	N 	0.54030 0.92900 0.94080 -0.22600
N 	N 	0.76280 0.61560 0.76440 -0.27700
C 	C 	0.23170 0.88200 0.89580 -0.01200
C 	C 	0.21850 0.90970 0.79650 -0.02900
C 	C 	0.15100 0.89040 0.68170 -0.09200
H 	H 	0.14020 0.90920 0.61540 0.09600
C 	C 	0.09990 0.84330 0.66570 0.10800
C 	C 	0.11150 0.81460 0.76070 -0.11400
H 	H 	0.07550 0.78320 0.74800 0.08200
C 	C 	0.17870 0.83410 0.87590 0.00800
H 	H 	0.18870 0.81480 0.94140 0.05800
C 	C 	0.29950 0.90030 0.02340 0.28600
C 	C 	0.27850 0.95960 0.81460 0.35600
C 	C 	0.52070 0.87840 0.95410 0.09900
H 	H 	0.48200 0.87300 0.98420 0.01100
C 	C 	0.55400 0.83370 0.92640 -0.16800
H 	H 	0.53840 0.79900 0.93800 0.11800
C 	C 	0.61250 0.84100 0.88000 0.12900
C 	C 	0.63270 0.89430 0.86670 -0.17000
H 	H 	0.67100 0.90130 0.83660 0.10000
C 	C 	0.59690 0.93640 0.89720 0.10800
H 	H 	0.61190 0.97160 0.88770 0.00100
C 	C 	0.65120 0.79670 0.84530 -0.06500
H 	H 	0.69100 0.80650 0.81880 0.06400
C 	C 	0.63610 0.74480 0.84770 -0.10700
H 	H 	0.59450 0.73470 0.87140 0.09000
C 	C 	0.70540 0.60700 0.80410 0.14100
H 	H 	0.69290 0.57140 0.81420 -0.01600
C 	C 	0.66340 0.64770 0.83100 -0.20400
H 	H 	0.62450 0.63920 0.85950 0.12800
C 	C 	0.67880 0.70080 0.81600 0.17100
C 	C 	0.73730 0.71040 0.77200 -0.19000
H 	H 	0.74890 0.74560 0.75830 0.11300
C 	C 	0.77770 0.66710 0.74910 0.13200
H 	H 	0.81770 0.67430 0.72140 -0.01700
Zn	Zn	0.82509 0.44762 0.22903 1.22200
O 	O 	0.23610 0.43660 0.44360 -0.43900
O 	O 	0.12000 0.37770 0.41050 -0.34200
O 	O 	0.15090 0.47020 0.58350 -0.44900
O 	O 	0.25080 0.48710 0.78030 -0.44400
O 	O 	0.46900 0.34320 0.03610 -0.17300
O 	O 	0.51800 0.28360 0.97030 -0.11000
O 	O 	0.95980 0.46103 0.34560 -0.75800
H 	H 	0.99850 0.43800 0.34530 0.31400
N 	N 	0.46810 0.32220 0.95500 0.01100
N 	N 	0.95970 0.42900 0.55920 -0.25800
N 	N 	0.73720 0.11560 0.73560 -0.28200
C 	C 	0.26830 0.38200 0.60420 -0.07900
C 	C 	0.28150 0.40970 0.70350 -0.01000
C 	C 	0.34900 0.39040 0.81830 -0.11100
H 	H 	0.35980 0.40920 0.88460 0.11300
C 	C 	0.40010 0.34330 0.83430 0.13500
C 	C 	0.38850 0.31460 0.73930 -0.14400
H 	H 	0.42450 0.28320 0.75200 0.10400
C 	C 	0.32130 0.33410 0.62410 0.05000
H 	H 	0.31130 0.31480 0.55860 0.03000
C 	C 	0.20050 0.40030 0.47660 0.34900
C 	C 	0.22150 0.45960 0.68540 0.35300
C 	C 	0.97930 0.37840 0.54590 0.21100
H 	H 	0.01800 0.37300 0.51580 -0.07500
C 	C 	0.94600 0.33370 0.57360 -0.23900
H 	H 	0.96160 0.29900 0.56200 0.14600
C 	C 	0.88750 0.34100 0.62000 0.16600
C 	C 	0.86730 0.39430 0.63330 -0.20400
H 	H 	0.82900 0.40130 0.66340 0.10900
C 	C 	0.90310 0.43640 0.60280 0.12600
H 	H 	0.88810 0.47160 0.61230 -0.02500
C 	C 	0.84880 0.29670 0.65470 -0.08900
H 	H 	0.80900 0.30650 0.68120 0.07200
C 	C 	0.86390 0.24480 0.65230 -0.09200
H 	H 	0.90550 0.23470 0.62860 0.08600
C 	C 	0.79460 0.10700 0.69590 0.14000
H 	H 	0.80710 0.07140 0.68580 -0.02900
C 	C 	0.83660 0.14770 0.66900 -0.20400
H 	H 	0.87550 0.13920 0.64050 0.12500
C 	C 	0.82120 0.20080 0.68400 0.16600
C 	C 	0.76270 0.21040 0.72800 -0.18800
H 	H 	0.75110 0.24560 0.74170 0.11400
C 	C 	0.72230 0.16710 0.75090 0.13000
H 	H 	0.68230 0.17430 0.77860 -0.01800
Zn	Zn	0.32509 0.94762 0.22903 1.23000
O 	O 	0.73610 0.93660 0.44360 -0.41500
O 	O 	0.62000 0.87770 0.41050 -0.32700
O 	O 	0.65090 0.97020 0.58350 -0.41500
O 	O 	0.75080 0.98710 0.78030 -0.40900
O 	O 	0.96900 0.84320 0.03610 -0.15300
O 	O 	0.01800 0.78360 0.97030 -0.14900
O 	O 	0.45980 0.96103 0.34560 -0.74200
H 	H 	0.49850 0.93800 0.34530 0.29300
N 	N 	0.96810 0.82220 0.95500 0.03000
N 	N 	0.45970 0.92900 0.55920 -0.23500
N 	N 	0.23720 0.61560 0.73560 -0.27900
C 	C 	0.76830 0.88200 0.60420 -0.07600
C 	C 	0.78150 0.90970 0.70350 0.00300
C 	C 	0.84900 0.89040 0.81830 -0.11500
H 	H 	0.85980 0.90920 0.88460 0.12300
C 	C 	0.90010 0.84330 0.83430 0.14700
C 	C 	0.88850 0.81460 0.73930 -0.14400
H 	H 	0.92450 0.78320 0.75200 0.11700
C 	C 	0.82130 0.83410 0.62410 0.05700
H 	H 	0.81130 0.81480 0.55860 0.03200
C 	C 	0.70050 0.90030 0.47660 0.34500
C 	C 	0.72150 0.95960 0.68540 0.34700
C 	C 	0.47930 0.87840 0.54590 0.09300
H 	H 	0.51800 0.87300 0.51580 -0.00300
C 	C 	0.44600 0.83370 0.57360 -0.17300
H 	H 	0.46160 0.79900 0.56200 0.10900
C 	C 	0.38750 0.84100 0.62000 0.12300
C 	C 	0.36730 0.89430 0.63330 -0.17400
H 	H 	0.32900 0.90130 0.66340 0.09700
C 	C 	0.40310 0.93640 0.60280 0.10200
H 	H 	0.38810 0.97160 0.61230 -0.00400
C 	C 	0.34880 0.79670 0.65470 -0.07000
H 	H 	0.30900 0.80650 0.68120 0.06300
C 	C 	0.36390 0.74480 0.65230 -0.10800
H 	H 	0.40550 0.73470 0.62860 0.08500
C 	C 	0.29460 0.60700 0.69590 0.13800
H 	H 	0.30710 0.57140 0.68580 -0.01900
C 	C 	0.33660 0.64770 0.66900 -0.20600
H 	H 	0.37550 0.63920 0.64050 0.12300
C 	C 	0.32120 0.70080 0.68400 0.16700
C 	C 	0.26270 0.71040 0.72800 -0.19100
H 	H 	0.25110 0.74560 0.74170 0.11300
C 	C 	0.22230 0.66710 0.75090 0.12900
H 	H 	0.18230 0.67430 0.77860 -0.02200
Zn	Zn	-0.00000 0.50000 -0.00000 1.19900
Zn	Zn	0.50000 0.00000 -0.00000 1.19600
Zn	Zn	0.00000 0.50000 0.50000 1.21300
Zn	Zn	0.50000 -0.00000 0.50000 1.20900
