data_crystal

_cell_length_a 20.46660
_cell_length_b 20.46660
_cell_length_c 20.46660
_cell_angle_alpha 90.00000
_cell_angle_beta  90.00000
_cell_angle_gamma 90.00000

_symmetry_space_group_name_	'P 1'
_symmetry_space_group_name_H-M	'P 1'

loop_
_symmetry_equiv_pos_as_xyz
  x,y,z

loop_
_atom_site_label
_atom_site_type_symbol
_atom_site_fract_x
_atom_site_fract_y
_atom_site_fract_z
_atom_site_charge
C 	C 	0.37730 0.76150 0.76150 0.49200
C 	C 	0.44070 0.83560 0.83560 0.10400
H 	H 	0.40010 0.85150 0.85150 0.05200
C 	C 	0.44180 0.78780 0.78780 -0.18500
O 	O 	0.32750 0.78260 0.78260 -0.50200
O 	O 	0.38590 0.71790 0.71790 -0.56700
O 	O 	0.44450 0.93163 0.93163 -0.37300
C 	C 	0.62270 0.23850 0.76150 0.49300
C 	C 	0.55930 0.16440 0.83560 0.11100
H 	H 	0.59990 0.14850 0.85150 0.03400
C 	C 	0.55820 0.21220 0.78780 -0.20400
O 	O 	0.67250 0.21740 0.78260 -0.51300
O 	O 	0.61410 0.28210 0.71790 -0.57300
O 	O 	0.55550 0.06837 0.93163 -0.44200
C 	C 	0.62270 0.76150 0.23850 0.49300
C 	C 	0.55930 0.83560 0.16440 0.11200
H 	H 	0.59990 0.85150 0.14850 0.03500
C 	C 	0.55820 0.78780 0.21220 -0.20300
O 	O 	0.67250 0.78260 0.21740 -0.51200
O 	O 	0.61410 0.71790 0.28210 -0.57200
O 	O 	0.55550 0.93163 0.06837 -0.44100
C 	C 	0.37730 0.23850 0.23850 0.49500
C 	C 	0.44070 0.16440 0.16440 0.12100
H 	H 	0.40010 0.14850 0.14850 0.01100
C 	C 	0.44180 0.21220 0.21220 -0.22500
O 	O 	0.32750 0.21740 0.21740 -0.52600
O 	O 	0.38590 0.28210 0.28210 -0.57900
O 	O 	0.44450 0.06837 0.06837 -0.51800
C 	C 	0.76150 0.37730 0.76150 0.49300
C 	C 	0.83560 0.44070 0.83560 0.10500
H 	H 	0.85150 0.40010 0.85150 0.05300
C 	C 	0.78780 0.44180 0.78780 -0.18400
O 	O 	0.78260 0.32750 0.78260 -0.50100
O 	O 	0.71790 0.38590 0.71790 -0.56600
O 	O 	0.93163 0.44450 0.93163 -0.37200
C 	C 	0.76150 0.62270 0.23850 0.49400
C 	C 	0.83560 0.55930 0.16440 0.11200
H 	H 	0.85150 0.59990 0.14850 0.03500
C 	C 	0.78780 0.55820 0.21220 -0.20300
O 	O 	0.78260 0.67250 0.21740 -0.51200
O 	O 	0.71790 0.61410 0.28210 -0.57200
O 	O 	0.93163 0.55550 0.06837 -0.44100
C 	C 	0.23850 0.62270 0.76150 0.49400
C 	C 	0.16440 0.55930 0.83560 0.11200
H 	H 	0.14850 0.59990 0.85150 0.03500
C 	C 	0.21220 0.55820 0.78780 -0.20300
O 	O 	0.21740 0.67250 0.78260 -0.51200
O 	O 	0.28210 0.61410 0.71790 -0.57200
O 	O 	0.06837 0.55550 0.93163 -0.44100
C 	C 	0.23850 0.37730 0.23850 0.49500
C 	C 	0.16440 0.44070 0.16440 0.12100
H 	H 	0.14850 0.40010 0.14850 0.01100
C 	C 	0.21220 0.44180 0.21220 -0.22500
O 	O 	0.21740 0.32750 0.21740 -0.52600
O 	O 	0.28210 0.38590 0.28210 -0.57900
O 	O 	0.06837 0.44450 0.06837 -0.51800
C 	C 	0.76150 0.76150 0.37730 0.49300
C 	C 	0.83560 0.83560 0.44070 0.10500
H 	H 	0.85150 0.85150 0.40010 0.05300
C 	C 	0.78780 0.78780 0.44180 -0.18400
O 	O 	0.78260 0.78260 0.32750 -0.50100
O 	O 	0.71790 0.71790 0.38590 -0.56600
O 	O 	0.93163 0.93163 0.44450 -0.37200
C 	C 	0.23850 0.76150 0.62270 0.49400
C 	C 	0.16440 0.83560 0.55930 0.11200
H 	H 	0.14850 0.85150 0.59990 0.03500
C 	C 	0.21220 0.78780 0.55820 -0.20300
O 	O 	0.21740 0.78260 0.67250 -0.51200
O 	O 	0.28210 0.71790 0.61410 -0.57200
O 	O 	0.06837 0.93163 0.55550 -0.44100
C 	C 	0.76150 0.23850 0.62270 0.49400
C 	C 	0.83560 0.16440 0.55930 0.11200
H 	H 	0.85150 0.14850 0.59990 0.03500
C 	C 	0.78780 0.21220 0.55820 -0.20300
O 	O 	0.78260 0.21740 0.67250 -0.51200
O 	O 	0.71790 0.28210 0.61410 -0.57200
O 	O 	0.93163 0.06837 0.55550 -0.44100
C 	C 	0.23850 0.23850 0.37730 0.49500
C 	C 	0.16440 0.16440 0.44070 0.12100
H 	H 	0.14850 0.14850 0.40010 0.01100
C 	C 	0.21220 0.21220 0.44180 -0.22500
O 	O 	0.21740 0.21740 0.32750 -0.52600
O 	O 	0.28210 0.28210 0.38590 -0.57900
O 	O 	0.06837 0.06837 0.44450 -0.51800
C 	C 	0.76150 0.37730 0.23850 0.49400
C 	C 	0.83560 0.44070 0.16440 0.11200
H 	H 	0.85150 0.40010 0.14850 0.03200
C 	C 	0.78780 0.44180 0.21220 -0.20400
O 	O 	0.78260 0.32750 0.21740 -0.51300
O 	O 	0.71790 0.38590 0.28210 -0.57200
O 	O 	0.93163 0.44450 0.06837 -0.44300
C 	C 	0.23850 0.62270 0.23850 0.49400
C 	C 	0.16440 0.55930 0.16440 0.12000
H 	H 	0.14850 0.59990 0.14850 0.01300
C 	C 	0.21220 0.55820 0.21220 -0.22400
O 	O 	0.21740 0.67250 0.21740 -0.52500
O 	O 	0.28210 0.61410 0.28210 -0.57900
O 	O 	0.06837 0.55550 0.06837 -0.51500
C 	C 	0.76150 0.62270 0.76150 0.49300
C 	C 	0.83560 0.55930 0.83560 0.10400
H 	H 	0.85150 0.59990 0.85150 0.05500
C 	C 	0.78780 0.55820 0.78780 -0.18400
O 	O 	0.78260 0.67250 0.78260 -0.50000
O 	O 	0.71790 0.61410 0.71790 -0.56500
O 	O 	0.93163 0.55550 0.93163 -0.37100
C 	C 	0.23850 0.37730 0.76150 0.49400
C 	C 	0.16440 0.44070 0.83560 0.11200
H 	H 	0.14850 0.40010 0.85150 0.03200
C 	C 	0.21220 0.44180 0.78780 -0.20400
O 	O 	0.21740 0.32750 0.78260 -0.51300
O 	O 	0.28210 0.38590 0.71790 -0.57200
O 	O 	0.06837 0.44450 0.93163 -0.44300
C 	C 	0.37730 0.76150 0.23850 0.49400
C 	C 	0.44070 0.83560 0.16440 0.11200
H 	H 	0.40010 0.85150 0.14850 0.03200
C 	C 	0.44180 0.78780 0.21220 -0.20400
O 	O 	0.32750 0.78260 0.21740 -0.51300
O 	O 	0.38590 0.71790 0.28210 -0.57200
O 	O 	0.44450 0.93163 0.06837 -0.44300
C 	C 	0.62270 0.76150 0.76150 0.49300
C 	C 	0.55930 0.83560 0.83560 0.10400
H 	H 	0.59990 0.85150 0.85150 0.05500
C 	C 	0.55820 0.78780 0.78780 -0.18400
O 	O 	0.67250 0.78260 0.78260 -0.50000
O 	O 	0.61410 0.71790 0.71790 -0.56500
O 	O 	0.55550 0.93163 0.93163 -0.37100
C 	C 	0.62270 0.23850 0.23850 0.49400
C 	C 	0.55930 0.16440 0.16440 0.12000
H 	H 	0.59990 0.14850 0.14850 0.01300
C 	C 	0.55820 0.21220 0.21220 -0.22400
O 	O 	0.67250 0.21740 0.21740 -0.52500
O 	O 	0.61410 0.28210 0.28210 -0.57900
O 	O 	0.55550 0.06837 0.06837 -0.51500
C 	C 	0.37730 0.23850 0.76150 0.49400
C 	C 	0.44070 0.16440 0.83560 0.11200
H 	H 	0.40010 0.14850 0.85150 0.03200
C 	C 	0.44180 0.21220 0.78780 -0.20400
O 	O 	0.32750 0.21740 0.78260 -0.51300
O 	O 	0.38590 0.28210 0.71790 -0.57200
O 	O 	0.44450 0.06837 0.93163 -0.44300
C 	C 	0.76150 0.76150 0.62270 0.49300
C 	C 	0.83560 0.83560 0.55930 0.10400
H 	H 	0.85150 0.85150 0.59990 0.05500
C 	C 	0.78780 0.78780 0.55820 -0.18400
O 	O 	0.78260 0.78260 0.67250 -0.50000
O 	O 	0.71790 0.71790 0.61410 -0.56500
O 	O 	0.93163 0.93163 0.55550 -0.37100
C 	C 	0.76150 0.23850 0.37730 0.49400
C 	C 	0.83560 0.16440 0.44070 0.11200
H 	H 	0.85150 0.14850 0.40010 0.03200
C 	C 	0.78780 0.21220 0.44180 -0.20400
O 	O 	0.78260 0.21740 0.32750 -0.51300
O 	O 	0.71790 0.28210 0.38590 -0.57200
O 	O 	0.93163 0.06837 0.44450 -0.44300
C 	C 	0.23850 0.76150 0.37730 0.49400
C 	C 	0.16440 0.83560 0.44070 0.11200
H 	H 	0.14850 0.85150 0.40010 0.03200
C 	C 	0.21220 0.78780 0.44180 -0.20400
O 	O 	0.21740 0.78260 0.32750 -0.51300
O 	O 	0.28210 0.71790 0.38590 -0.57200
O 	O 	0.06837 0.93163 0.44450 -0.44300
C 	C 	0.23850 0.23850 0.62270 0.49400
C 	C 	0.16440 0.16440 0.55930 0.12000
H 	H 	0.14850 0.14850 0.59990 0.01300
C 	C 	0.21220 0.21220 0.55820 -0.22400
O 	O 	0.21740 0.21740 0.67250 -0.52500
O 	O 	0.28210 0.28210 0.61410 -0.57900
O 	O 	0.06837 0.06837 0.55550 -0.51500
C 	C 	0.50000 0.91170 0.91170 0.38500
C 	C 	0.50000 0.86080 0.86080 -0.12300
C 	C 	0.50000 0.76510 0.76510 0.14100
H 	H 	0.50000 0.73230 0.73230 -0.01400
C 	C 	0.50000 0.08830 0.91170 0.39300
C 	C 	0.50000 0.13920 0.86080 -0.15600
C 	C 	0.50000 0.23490 0.76510 0.14900
H 	H 	0.50000 0.26770 0.73230 -0.02200
C 	C 	0.50000 0.91170 0.08830 0.39300
C 	C 	0.50000 0.86080 0.13920 -0.15600
C 	C 	0.50000 0.76510 0.23490 0.14900
H 	H 	0.50000 0.73230 0.26770 -0.02200
C 	C 	0.50000 0.08830 0.08830 0.40100
C 	C 	0.50000 0.13920 0.13920 -0.19000
C 	C 	0.50000 0.23490 0.23490 0.15600
H 	H 	0.50000 0.26770 0.26770 -0.02900
C 	C 	0.91170 0.50000 0.91170 0.38500
C 	C 	0.86080 0.50000 0.86080 -0.12300
C 	C 	0.76510 0.50000 0.76510 0.14100
H 	H 	0.73230 0.50000 0.73230 -0.01400
C 	C 	0.91170 0.50000 0.08830 0.39300
C 	C 	0.86080 0.50000 0.13920 -0.15600
C 	C 	0.76510 0.50000 0.23490 0.14900
H 	H 	0.73230 0.50000 0.26770 -0.02200
C 	C 	0.08830 0.50000 0.91170 0.39300
C 	C 	0.13920 0.50000 0.86080 -0.15600
C 	C 	0.23490 0.50000 0.76510 0.14900
H 	H 	0.26770 0.50000 0.73230 -0.02200
C 	C 	0.08830 0.50000 0.08830 0.40100
C 	C 	0.13920 0.50000 0.13920 -0.19000
C 	C 	0.23490 0.50000 0.23490 0.15600
H 	H 	0.26770 0.50000 0.26770 -0.02900
C 	C 	0.91170 0.91170 0.50000 0.38500
C 	C 	0.86080 0.86080 0.50000 -0.12300
C 	C 	0.76510 0.76510 0.50000 0.14100
H 	H 	0.73230 0.73230 0.50000 -0.01400
C 	C 	0.08830 0.91170 0.50000 0.39300
C 	C 	0.13920 0.86080 0.50000 -0.15600
C 	C 	0.23490 0.76510 0.50000 0.14900
H 	H 	0.26770 0.73230 0.50000 -0.02200
C 	C 	0.91170 0.08830 0.50000 0.39300
C 	C 	0.86080 0.13920 0.50000 -0.15600
C 	C 	0.76510 0.23490 0.50000 0.14900
H 	H 	0.73230 0.26770 0.50000 -0.02200
C 	C 	0.08830 0.08830 0.50000 0.40100
C 	C 	0.13920 0.13920 0.50000 -0.19000
C 	C 	0.23490 0.23490 0.50000 0.15600
H 	H 	0.26770 0.26770 0.50000 -0.02900
Zn	Zn	0.42623 0.00000 -0.00000 1.14100
Zn	Zn	0.57377 0.00000 -0.00000 1.14300
Zn	Zn	0.00000 0.42623 -0.00000 1.14100
Zn	Zn	-0.00000 0.57377 -0.00000 1.14300
Zn	Zn	0.00000 0.00000 0.42623 1.14100
Zn	Zn	0.00000 0.00000 0.57377 1.14300
N 	N 	0.17820 0.82180 0.82180 -0.01400
Zn	Zn	0.33696 0.66304 0.66304 1.19500
Zn	Zn	0.23581 0.76419 0.76419 1.25300
N 	N 	0.82180 0.17820 0.82180 -0.01400
Zn	Zn	0.66304 0.33696 0.66304 1.19500
Zn	Zn	0.76419 0.23581 0.76419 1.25300
N 	N 	0.82180 0.82180 0.17820 -0.01400
Zn	Zn	0.66304 0.66304 0.33696 1.19500
Zn	Zn	0.76419 0.76419 0.23581 1.25300
N 	N 	0.17820 0.17820 0.17820 -0.02300
Zn	Zn	0.33696 0.33696 0.33696 1.19200
Zn	Zn	0.23581 0.23581 0.23581 1.25200
N 	N 	0.82180 0.17820 0.17820 -0.01900
Zn	Zn	0.66304 0.33696 0.33696 1.19400
Zn	Zn	0.76419 0.23581 0.23581 1.25300
N 	N 	0.17820 0.82180 0.17820 -0.01900
Zn	Zn	0.33696 0.66304 0.33696 1.19400
Zn	Zn	0.23581 0.76419 0.23581 1.25300
N 	N 	0.82180 0.82180 0.82180 -0.01000
Zn	Zn	0.66304 0.66304 0.66304 1.19600
Zn	Zn	0.76419 0.76419 0.76419 1.25300
N 	N 	0.17820 0.17820 0.82180 -0.01900
Zn	Zn	0.33696 0.33696 0.66304 1.19400
Zn	Zn	0.23581 0.23581 0.76419 1.25300
O 	O 	0.21160 0.78840 0.86600 -0.16100
O 	O 	0.78840 0.21160 0.86600 -0.16100
O 	O 	0.78840 0.78840 0.13400 -0.19100
O 	O 	0.21160 0.21160 0.13400 -0.22500
O 	O 	0.86600 0.21160 0.78840 -0.16100
O 	O 	0.86600 0.78840 0.21160 -0.16100
O 	O 	0.13400 0.78840 0.78840 -0.19100
O 	O 	0.13400 0.21160 0.21160 -0.22500
O 	O 	0.78840 0.86600 0.21160 -0.16100
O 	O 	0.21160 0.86600 0.78840 -0.16100
O 	O 	0.78840 0.13400 0.78840 -0.19100
O 	O 	0.21160 0.13400 0.21160 -0.22500
O 	O 	0.78840 0.21160 0.13400 -0.20800
O 	O 	0.21160 0.78840 0.13400 -0.20800
O 	O 	0.78840 0.78840 0.86600 -0.14500
O 	O 	0.21160 0.21160 0.86600 -0.17800
O 	O 	0.21160 0.86600 0.21160 -0.17800
O 	O 	0.78840 0.86600 0.78840 -0.14500
O 	O 	0.78840 0.13400 0.21160 -0.20800
O 	O 	0.21160 0.13400 0.78840 -0.20800
O 	O 	0.86600 0.78840 0.78840 -0.14500
O 	O 	0.86600 0.21160 0.21160 -0.17800
O 	O 	0.13400 0.78840 0.21160 -0.20800
O 	O 	0.13400 0.21160 0.78840 -0.20800
