data_crystal

_cell_length_a 12.20480
_cell_length_b 12.20480
_cell_length_c 16.31220
_cell_angle_alpha 77.63990
_cell_angle_beta  70.50990
_cell_angle_gamma 105.54400

_symmetry_space_group_name_	'P 1'
_symmetry_space_group_name_H-M	'P 1'

loop_
_symmetry_equiv_pos_as_xyz
  x,y,z

loop_
_atom_site_label
_atom_site_type_symbol
_atom_site_fract_x
_atom_site_fract_y
_atom_site_fract_z
_atom_site_charge
Cd	Cd	0.30056 0.17434 0.36870 1.21000
Cd	Cd	0.95696 0.33074 0.86870 1.20900
Cd	Cd	0.04304 0.66926 0.13130 1.21000
Cd	Cd	0.69944 0.82566 0.63130 1.21100
H 	H 	0.53950 0.86550 0.81860 0.01000
H 	H 	0.91510 0.74730 0.98060 0.03400
H 	H 	0.84030 0.83850 0.15980 0.03700
H 	H 	0.30410 0.63230 0.12340 0.00000
H 	H 	0.30850 0.95190 0.77980 0.07200
H 	H 	0.50170 0.99990 0.65980 0.03500
H 	H 	0.98800 0.85100 0.62460 0.01100
H 	H 	0.55740 0.44780 0.04860 0.07300
H 	H 	0.92740 0.30790 0.36970 0.05000
H 	H 	0.34290 0.19800 0.71090 0.07100
H 	H 	0.44260 0.55220 0.95140 0.07300
H 	H 	0.77430 0.72960 0.43050 0.07700
H 	H 	0.02440 0.38740 0.12460 0.01200
H 	H 	0.69150 0.04810 0.22020 0.07200
H 	H 	0.76830 0.91170 0.27980 0.07200
H 	H 	0.59110 0.94620 0.21090 0.07100
H 	H 	0.07080 0.10630 0.57830 -0.01000
H 	H 	0.62800 0.62810 0.82250 0.02200
H 	H 	0.01280 0.05790 0.13610 0.03000
H 	H 	0.95060 0.45050 0.67750 0.02200
H 	H 	0.73400 0.85160 0.12940 0.05000
H 	H 	0.07260 0.69210 0.63030 0.05000
H 	H 	0.77210 0.10430 0.48060 0.02700
H 	H 	0.56320 0.48790 0.85210 0.04200
H 	H 	0.30600 0.85110 0.63610 0.04300
H 	H 	0.33990 0.79520 0.93050 0.07800
H 	H 	0.65710 0.80200 0.28910 0.07100
H 	H 	0.66010 0.20480 0.06950 0.07800
H 	H 	0.15970 0.16150 0.84020 0.03700
H 	H 	0.18460 0.64910 0.92170 -0.01000
H 	H 	0.08490 0.25270 0.01940 0.03400
H 	H 	0.26600 0.14840 0.87060 0.05000
H 	H 	0.69400 0.14890 0.36390 0.04300
H 	H 	0.16000 0.58470 0.35210 0.04300
H 	H 	0.40890 0.05380 0.78910 0.07100
H 	H 	0.90750 0.47710 0.46780 0.07200
H 	H 	0.97560 0.61260 0.87540 0.01200
H 	H 	0.82240 0.70290 0.86970 0.04700
H 	H 	0.22790 0.89570 0.51940 0.02700
H 	H 	0.18410 0.35810 0.68140 0.01100
H 	H 	0.01200 0.14900 0.37540 0.01100
H 	H 	0.84000 0.41530 0.64790 0.04300
H 	H 	0.46050 0.13450 0.18140 0.01000
H 	H 	0.81590 0.64190 0.31860 0.01100
H 	H 	0.23170 0.08830 0.72020 0.07200
H 	H 	0.69590 0.36770 0.87660 0.00000
H 	H 	0.99640 0.60600 0.45140 0.07300
H 	H 	0.98720 0.94210 0.86390 0.03000
H 	H 	0.92920 0.89370 0.42170 -0.01000
H 	H 	0.04940 0.54950 0.32250 0.02200
H 	H 	0.74430 0.57250 0.62340 0.00000
H 	H 	0.21270 0.95250 0.98820 0.00300
H 	H 	0.48100 0.86340 0.37060 0.05000
H 	H 	0.17760 0.29710 0.13030 0.04700
H 	H 	0.37200 0.37190 0.17750 0.02200
H 	H 	0.51900 0.13660 0.62940 0.05000
H 	H 	0.00360 0.39400 0.54860 0.07300
H 	H 	0.22570 0.27040 0.56950 0.07700
H 	H 	0.43680 0.51210 0.14790 0.04200
H 	H 	0.49830 0.00010 0.34020 0.03500
H 	H 	0.44490 0.37530 0.03220 0.07200
H 	H 	0.78730 0.04750 0.01180 0.00300
H 	H 	0.81540 0.35090 0.07830 -0.01000
H 	H 	0.55510 0.62470 0.96780 0.07200
H 	H 	0.55930 0.79910 0.48820 0.00400
H 	H 	0.44070 0.20090 0.51180 0.00400
H 	H 	0.25570 0.42750 0.37660 0.00000
H 	H 	0.09250 0.52290 0.53220 0.07200
C 	C 	0.18390 0.37540 0.12850 -0.01200
C 	C 	0.05130 0.22600 0.37490 0.02500
C 	C 	0.08910 0.82920 0.25090 -0.00500
C 	C 	0.53360 0.39980 0.31900 0.31000
C 	C 	0.98540 0.81350 0.96730 -0.01000
C 	C 	0.88030 0.70400 0.31790 0.07100
C 	C 	0.70430 0.37910 0.18840 -0.10000
C 	C 	0.85430 0.75800 0.38350 -0.14200
C 	C 	0.18460 0.37690 0.37530 0.09500
C 	C 	0.26700 0.67390 0.87910 0.06000
C 	C 	0.99160 0.52370 0.45790 -0.10800
C 	C 	0.41990 0.66000 0.75090 -0.00300
C 	C 	0.60380 0.88110 0.47150 0.09000
C 	C 	0.58010 0.34000 0.24910 -0.00300
C 	C 	0.29570 0.62090 0.81160 -0.10000
C 	C 	0.67700 0.07290 0.40290 -0.01000
C 	C 	0.63570 0.96410 0.24860 -0.10700
C 	C 	0.28080 0.95270 0.53270 0.01400
C 	C 	0.35850 0.76220 0.88350 -0.14400
C 	C 	0.74780 0.44010 0.87530 0.09500
C 	C 	0.00840 0.47630 0.54210 -0.10800
C 	C 	0.07820 0.52480 0.36960 -0.02400
C 	C 	0.94870 0.77400 0.62510 0.02500
C 	C 	0.21020 0.11310 0.84470 -0.03600
C 	C 	0.71920 0.04730 0.46730 0.01400
C 	C 	0.83500 0.99860 0.69280 0.35800
C 	C 	0.48160 0.44950 0.04210 -0.10800
C 	C 	0.19140 0.52780 0.80720 0.36600
C 	C 	0.73300 0.32610 0.12090 0.06000
C 	C 	0.51840 0.55050 0.95790 -0.10800
C 	C 	0.32300 0.92710 0.59710 -0.01000
C 	C 	0.97580 0.07990 0.09710 0.01600
C 	C 	0.10090 0.42620 0.12510 0.02200
C 	C 	0.21880 0.85260 0.18100 0.31100
C 	C 	0.45780 0.05490 0.65530 -0.03600
C 	C 	0.28730 0.11570 0.74860 -0.10600
C 	C 	0.11970 0.29600 0.68210 0.07100
C 	C 	0.16500 0.00140 0.30720 0.35800
C 	C 	0.47810 0.80180 0.81790 0.07200
C 	C 	0.91090 0.17080 0.74910 -0.00500
C 	C 	0.94700 0.85390 0.37910 0.05600
C 	C 	0.92180 0.47520 0.63040 -0.02400
C 	C 	0.14570 0.24200 0.61650 -0.14200
C 	C 	0.89910 0.57380 0.87490 0.02200
C 	C 	0.85260 0.07530 0.02850 0.09300
C 	C 	0.52190 0.19820 0.18210 0.07200
C 	C 	0.54220 0.94510 0.34470 -0.03600
C 	C 	0.39620 0.11890 0.52850 0.09000
C 	C 	0.06750 0.89270 0.31160 -0.09400
C 	C 	0.99610 0.68760 0.62850 -0.01600
C 	C 	0.01460 0.18650 0.03270 -0.01000
C 	C 	0.05300 0.14610 0.62090 0.05600
C 	C 	0.60560 0.55220 0.86960 -0.02400
C 	C 	0.25220 0.55990 0.12470 0.09500
C 	C 	0.71270 0.88430 0.25140 -0.10600
C 	C 	0.93250 0.10730 0.68840 -0.09400
C 	C 	0.81540 0.62310 0.62470 0.09500
C 	C 	0.46640 0.60020 0.68100 0.31000
C 	C 	0.81610 0.62460 0.87150 -0.01200
C 	C 	0.80860 0.47220 0.19280 0.36600
C 	C 	0.39440 0.44780 0.13040 -0.02400
C 	C 	0.14740 0.92470 0.97150 0.09300
C 	C 	0.64150 0.23780 0.11650 -0.14400
C 	C 	0.78120 0.14740 0.81900 0.31100
C 	C 	0.00390 0.31240 0.37150 -0.01600
C 	C 	0.78980 0.88690 0.15530 -0.03600
C 	C 	0.02420 0.92010 0.90290 0.01600
C 	C 	0.36430 0.03590 0.75140 -0.10700
N 	N 	0.50850 0.75160 0.75330 -0.22700
N 	N 	0.06220 0.81500 0.01040 -0.23300
N 	N 	0.39580 0.03480 0.59400 -0.11800
N 	N 	0.90890 0.59190 0.62880 -0.11900
N 	N 	0.60420 0.96520 0.40600 -0.11800
N 	N 	0.72070 0.53770 0.87120 -0.11900
N 	N 	0.85730 0.45770 0.87740 -0.24700
N 	N 	0.16490 0.26530 0.37740 -0.24700
N 	N 	0.00490 0.26180 0.74670 -0.22600
N 	N 	0.09110 0.40810 0.37120 -0.11900
N 	N 	0.27930 0.46230 0.12880 -0.11900
N 	N 	0.67460 0.92740 0.51040 -0.23700
N 	N 	0.14270 0.54230 0.12260 -0.24700
N 	N 	0.87120 0.01020 0.09400 -0.12200
N 	N 	0.49150 0.24840 0.24670 -0.22700
N 	N 	0.99510 0.73820 0.25330 -0.22600
N 	N 	0.32540 0.07260 0.48960 -0.23700
N 	N 	0.93780 0.18500 0.98960 -0.23300
N 	N 	0.12880 0.98980 0.90600 -0.12200
N 	N 	0.83510 0.73470 0.62260 -0.24700
O 	O 	0.79400 0.90330 0.75770 -0.32800
O 	O 	0.80830 0.00900 0.62670 -0.42800
O 	O 	0.39570 0.50250 0.69160 -0.24800
O 	O 	0.57300 0.65470 0.61830 -0.38900
O 	O 	0.86430 0.56500 0.12670 -0.43000
O 	O 	0.60430 0.49750 0.30840 -0.24800
O 	O 	0.83900 0.44830 0.25770 -0.32800
O 	O 	0.42700 0.34530 0.38170 -0.38900
O 	O 	0.16100 0.55170 0.74230 -0.32800
O 	O 	0.22700 0.80870 0.11830 -0.38900
O 	O 	0.30590 0.91270 0.19160 -0.24800
O 	O 	0.20600 0.09670 0.24230 -0.32800
O 	O 	0.77300 0.19130 0.88170 -0.38900
O 	O 	0.13570 0.43500 0.87330 -0.43000
O 	O 	0.69410 0.08730 0.80840 -0.24800
O 	O 	0.19170 0.99100 0.37330 -0.42800
