data_crystal

_cell_length_a 14.07000
_cell_length_b 22.00100
_cell_length_c 20.96600
_cell_angle_alpha 90.00000
_cell_angle_beta  101.07000
_cell_angle_gamma 90.00000

_symmetry_space_group_name_	'P 1'
_symmetry_space_group_name_H-M	'P 1'

loop_
_symmetry_equiv_pos_as_xyz
  x,y,z

loop_
_atom_site_label
_atom_site_type_symbol
_atom_site_fract_x
_atom_site_fract_y
_atom_site_fract_z
_atom_site_charge
Cd	Cd	0.51501 0.74417 0.26218 1.21600
Cd	Cd	0.64014 0.98882 0.19028 1.16000
Cd	Cd	0.32061 0.50288 0.30255 1.15800
S 	S 	0.51480 0.91389 0.28282 0.76800
S 	S 	0.51008 0.57758 0.24546 0.83000
O 	O 	0.49840 0.84829 0.27800 -0.46200
O 	O 	0.43860 0.94220 0.30860 -0.34200
O 	O 	0.60740 0.92890 0.32090 -0.37300
O 	O 	0.50920 0.93920 0.21630 -0.49300
O 	O 	0.54040 0.64097 0.25270 -0.47700
O 	O 	0.41800 0.57090 0.26480 -0.51300
O 	O 	0.57910 0.53770 0.28460 -0.39000
O 	O 	0.49950 0.55940 0.17900 -0.33500
N 	N 	0.34910 0.74340 0.21140 -0.23500
N 	N 	0.99110 0.77010 0.86840 -0.23300
N 	N 	0.71620 0.90870 0.14890 -0.27600
N 	N 	0.90100 0.56963 0.24960 -0.26400
N 	N 	0.68030 0.75166 0.31200 -0.23300
N 	N 	0.04080 0.74300 0.65630 -0.23600
N 	N 	0.27280 0.58423 0.35870 -0.27200
N 	N 	0.13300 0.92773 0.26280 -0.26400
C 	C 	0.29130 0.79190 0.20700 0.08200
H 	H 	0.31680 0.82810 0.22580 -0.01600
C 	C 	0.19520 0.79090 0.17600 -0.16800
H 	H 	0.15760 0.82580 0.17490 0.06200
C 	C 	0.15490 0.73840 0.14680 0.10700
C 	C 	0.21540 0.68890 0.15040 -0.17300
H 	H 	0.19190 0.65220 0.13150 0.08800
C 	C 	0.31030 0.69310 0.18170 0.08700
H 	H 	0.34970 0.65910 0.18230 -0.00500
C 	C 	0.05060 0.73240 0.11530 -0.07300
H 	H 	0.04200 0.69460 0.09020 0.05600
C 	C 	0.02630 0.81840 0.90180 0.08200
H 	H 	0.05230 0.84940 0.88040 -0.01700
C 	C 	0.02640 0.82500 0.96780 -0.16300
H 	H 	0.05210 0.86000 0.98940 0.05900
C 	C 	0.98910 0.78060 0.00100 0.09100
C 	C 	0.95120 0.73020 0.96560 -0.15200
H 	H 	0.92380 0.69890 0.98590 0.08400
C 	C 	0.95370 0.72610 0.90050 0.08100
H 	H 	0.92860 0.69150 0.87780 -0.00000
C 	C 	0.99380 0.78410 0.07340 -0.06200
H 	H 	0.01910 0.82380 0.08970 0.03300
C 	C 	0.75980 0.91330 0.09820 0.09800
H 	H 	0.74860 0.94790 0.07240 -0.05700
C 	C 	0.82100 0.86930 0.08180 -0.18600
H 	H 	0.85090 0.87520 0.04640 0.08400
C 	C 	0.83800 0.81610 0.11810 0.11200
C 	C 	0.79080 0.81140 0.17040 -0.18200
H 	H 	0.79920 0.77680 0.19640 0.09100
C 	C 	0.73150 0.85780 0.18390 0.09700
H 	H 	0.70080 0.85330 0.21920 -0.03700
C 	C 	0.90380 0.76730 0.10290 -0.07700
H 	H 	0.86550 0.73660 0.07540 0.05200
C 	C 	0.83410 0.59990 0.20760 0.09000
H 	H 	0.77110 0.58490 0.19890 -0.02500
C 	C 	0.85400 0.65240 0.17650 -0.17100
H 	H 	0.80510 0.67150 0.14720 0.08800
C 	C 	0.94660 0.67680 0.18880 0.10500
C 	C 	0.01600 0.64430 0.23190 -0.17700
H 	H 	0.07950 0.65820 0.24160 0.08800
C 	C 	0.99120 0.59180 0.26010 0.09400
H 	H 	0.03950 0.57060 0.28780 -0.04200
C 	C 	0.97240 0.73520 0.15940 -0.07000
H 	H 	0.99330 0.76470 0.19430 0.05100
C 	C 	0.71120 0.80220 0.34430 0.07700
H 	H 	0.66650 0.83290 0.34660 0.01000
C 	C 	0.80660 0.81160 0.37480 -0.16400
H 	H 	0.82530 0.84850 0.39500 0.09200
C 	C 	0.87390 0.76570 0.37490 0.10300
C 	C 	0.84130 0.71240 0.34270 -0.17000
H 	H 	0.88370 0.68010 0.34150 0.06900
C 	C 	0.74510 0.70760 0.31220 0.08300
H 	H 	0.72470 0.67150 0.29070 -0.01600
C 	C 	0.97790 0.77560 0.40700 -0.07500
H 	H 	0.98480 0.81460 0.42980 0.05700
C 	C 	0.01070 0.69200 0.62450 0.07200
H 	H 	0.98930 0.66000 0.64710 -0.01600
C 	C 	0.01020 0.68490 0.55890 -0.15700
H 	H 	0.98930 0.64830 0.53860 0.05600
C 	C 	0.03980 0.73080 0.52330 0.09500
C 	C 	0.07350 0.78320 0.55730 -0.16000
H 	H 	0.09690 0.81530 0.53590 0.08700
C 	C 	0.07230 0.78760 0.62260 0.08800
H 	H 	0.09430 0.82330 0.64420 -0.00100
C 	C 	0.03270 0.72500 0.45140 -0.05600
H 	H 	0.00540 0.68520 0.43700 0.03200
C 	C 	0.28380 0.64020 0.33700 0.09000
H 	H 	0.32380 0.64570 0.30690 -0.01900
C 	C 	0.23860 0.69030 0.35700 -0.18000
H 	H 	0.24840 0.72840 0.34030 0.09000
C 	C 	0.17860 0.68420 0.40190 0.11400
C 	C 	0.17120 0.62670 0.42580 -0.18700
H 	H 	0.13420 0.62020 0.45750 0.07500
C 	C 	0.21800 0.57820 0.40330 0.08800
H 	H 	0.21070 0.53980 0.42010 -0.06200
C 	C 	0.12330 0.73760 0.42030 -0.07900
H 	H 	0.16700 0.76680 0.44640 0.05300
C 	C 	0.19870 0.89900 0.30690 0.08100
H 	H 	0.26230 0.91300 0.31420 -0.01500
C 	C 	0.17720 0.84960 0.34220 -0.16300
H 	H 	0.22540 0.83170 0.37300 0.08500
C 	C 	0.08360 0.82670 0.33150 0.10500
C 	C 	0.01520 0.85840 0.28720 -0.17300
H 	H 	0.95080 0.84610 0.27970 0.09000
C 	C 	0.04160 0.90760 0.25450 0.09700
H 	H 	0.99400 0.92800 0.22540 -0.02500
C 	C 	0.05500 0.77010 0.36270 -0.06600
H 	H 	0.03240 0.74010 0.32860 0.05000
Cd	Cd	0.98499 0.24417 0.23782 1.21500
Cd	Cd	0.85986 0.48882 0.30972 1.15900
Cd	Cd	0.17939 0.00288 0.19745 1.15900
S 	S 	0.98520 0.41389 0.21718 0.76200
S 	S 	0.98992 0.07758 0.25454 0.82300
O 	O 	0.00160 0.34829 0.22200 -0.45900
O 	O 	0.06140 0.44220 0.19140 -0.33900
O 	O 	0.89260 0.42890 0.17910 -0.37300
O 	O 	0.99080 0.43920 0.28370 -0.49300
O 	O 	0.95960 0.14097 0.24730 -0.47700
O 	O 	0.08200 0.07090 0.23520 -0.50900
O 	O 	0.92090 0.03770 0.21540 -0.38900
O 	O 	0.00050 0.05940 0.32100 -0.33200
N 	N 	0.15090 0.24340 0.28860 -0.23400
N 	N 	0.50890 0.27010 0.63160 -0.23700
N 	N 	0.78380 0.40870 0.35110 -0.27600
N 	N 	0.59900 0.06963 0.25040 -0.26600
N 	N 	0.81970 0.25166 0.18800 -0.23300
N 	N 	0.45920 0.24300 0.84370 -0.23700
N 	N 	0.22720 0.08423 0.14130 -0.27200
N 	N 	0.36700 0.42773 0.23720 -0.26400
C 	C 	0.20870 0.29190 0.29300 0.08200
H 	H 	0.18320 0.32810 0.27420 -0.01700
C 	C 	0.30480 0.29090 0.32400 -0.17000
H 	H 	0.34240 0.32580 0.32510 0.06300
C 	C 	0.34510 0.23840 0.35320 0.10900
C 	C 	0.28460 0.18890 0.34960 -0.17500
H 	H 	0.30810 0.15220 0.36850 0.08800
C 	C 	0.18970 0.19310 0.31830 0.08700
H 	H 	0.15030 0.15910 0.31770 -0.00400
C 	C 	0.44940 0.23240 0.38470 -0.07800
H 	H 	0.45800 0.19460 0.40980 0.05700
C 	C 	0.47370 0.31840 0.59820 0.08800
H 	H 	0.44770 0.34940 0.61960 -0.01900
C 	C 	0.47360 0.32500 0.53220 -0.16600
H 	H 	0.44790 0.36000 0.51060 0.06100
C 	C 	0.51090 0.28060 0.49900 0.09700
C 	C 	0.54880 0.23020 0.53440 -0.16000
H 	H 	0.57620 0.19890 0.51410 0.08600
C 	C 	0.54630 0.22610 0.59950 0.08400
H 	H 	0.57140 0.19150 0.62220 -0.00200
C 	C 	0.50620 0.28410 0.42660 -0.05600
H 	H 	0.48090 0.32380 0.41030 0.03000
C 	C 	0.74020 0.41330 0.40180 0.09900
H 	H 	0.75140 0.44790 0.42760 -0.05800
C 	C 	0.67900 0.36930 0.41820 -0.18600
H 	H 	0.64910 0.37520 0.45360 0.08400
C 	C 	0.66200 0.31610 0.38190 0.11300
C 	C 	0.70920 0.31140 0.32960 -0.18200
H 	H 	0.70080 0.27680 0.30360 0.09200
C 	C 	0.76850 0.35780 0.31610 0.09700
H 	H 	0.79920 0.35330 0.28080 -0.03700
C 	C 	0.59620 0.26730 0.39710 -0.07900
H 	H 	0.63450 0.23660 0.42460 0.05300
C 	C 	0.66590 0.09990 0.29240 0.09200
H 	H 	0.72890 0.08490 0.30110 -0.02600
C 	C 	0.64600 0.15240 0.32350 -0.17400
H 	H 	0.69490 0.17150 0.35280 0.08900
C 	C 	0.55340 0.17680 0.31120 0.11000
C 	C 	0.48400 0.14430 0.26810 -0.18600
H 	H 	0.42050 0.15820 0.25840 0.09100
C 	C 	0.50880 0.09180 0.23990 0.10300
H 	H 	0.46050 0.07060 0.21220 -0.04600
C 	C 	0.52760 0.23520 0.34060 -0.06800
H 	H 	0.50670 0.26470 0.30570 0.05100
C 	C 	0.78880 0.30220 0.15570 0.07700
H 	H 	0.83350 0.33290 0.15340 0.00900
C 	C 	0.69340 0.31160 0.12520 -0.16400
H 	H 	0.67470 0.34850 0.10500 0.09200
C 	C 	0.62610 0.26570 0.12510 0.10300
C 	C 	0.65870 0.21240 0.15730 -0.17000
H 	H 	0.61630 0.18010 0.15850 0.06900
C 	C 	0.75490 0.20760 0.18780 0.08300
H 	H 	0.77530 0.17150 0.20930 -0.01600
C 	C 	0.52210 0.27560 0.09300 -0.07500
H 	H 	0.51520 0.31460 0.07020 0.05700
C 	C 	0.48930 0.19200 0.87550 0.07500
H 	H 	0.51070 0.16000 0.85290 -0.01800
C 	C 	0.48980 0.18490 0.94110 -0.15700
H 	H 	0.51070 0.14830 0.96140 0.05600
C 	C 	0.46020 0.23080 0.97670 0.09500
C 	C 	0.42650 0.28320 0.94270 -0.15900
H 	H 	0.40310 0.31530 0.96410 0.08700
C 	C 	0.42770 0.28760 0.87740 0.08800
H 	H 	0.40570 0.32330 0.85580 -0.00100
C 	C 	0.46730 0.22500 0.04860 -0.05600
H 	H 	0.49460 0.18520 0.06300 0.03200
C 	C 	0.21620 0.14020 0.16300 0.09000
H 	H 	0.17620 0.14570 0.19310 -0.01900
C 	C 	0.26140 0.19030 0.14300 -0.18000
H 	H 	0.25160 0.22840 0.15970 0.09000
C 	C 	0.32140 0.18420 0.09810 0.11500
C 	C 	0.32880 0.12670 0.07420 -0.18700
H 	H 	0.36580 0.12020 0.04250 0.07600
C 	C 	0.28200 0.07820 0.09670 0.08800
H 	H 	0.28930 0.03980 0.07990 -0.06200
C 	C 	0.37670 0.23760 0.07970 -0.07900
H 	H 	0.33300 0.26680 0.05360 0.05300
C 	C 	0.30130 0.39900 0.19310 0.08100
H 	H 	0.23770 0.41300 0.18580 -0.01500
C 	C 	0.32280 0.34960 0.15780 -0.16300
H 	H 	0.27460 0.33170 0.12700 0.08500
C 	C 	0.41640 0.32670 0.16850 0.10500
C 	C 	0.48480 0.35840 0.21280 -0.17300
H 	H 	0.54920 0.34610 0.22030 0.09100
C 	C 	0.45840 0.40760 0.24550 0.09500
H 	H 	0.50600 0.42800 0.27460 -0.02400
C 	C 	0.44500 0.27010 0.13730 -0.06600
H 	H 	0.46760 0.24010 0.17140 0.05000
Cd	Cd	0.48499 0.25583 0.73782 1.21500
Cd	Cd	0.35986 0.01118 0.80972 1.15900
Cd	Cd	0.67939 0.49712 0.69745 1.15800
S 	S 	0.48520 0.08611 0.71718 0.76800
S 	S 	0.48992 0.42242 0.75454 0.83000
O 	O 	0.50160 0.15171 0.72200 -0.46200
O 	O 	0.56140 0.05780 0.69140 -0.34200
O 	O 	0.39260 0.07110 0.67910 -0.37300
O 	O 	0.49080 0.06080 0.78370 -0.49300
O 	O 	0.45960 0.35903 0.74730 -0.47700
O 	O 	0.58200 0.42910 0.73520 -0.51300
O 	O 	0.42090 0.46230 0.71540 -0.39000
O 	O 	0.50050 0.44060 0.82100 -0.33500
N 	N 	0.65090 0.25660 0.78860 -0.23500
N 	N 	0.00890 0.22990 0.13160 -0.23300
N 	N 	0.28380 0.09130 0.85110 -0.27600
N 	N 	0.09900 0.43037 0.75040 -0.26400
N 	N 	0.31970 0.24834 0.68800 -0.23300
N 	N 	0.95920 0.25700 0.34370 -0.23600
N 	N 	0.72720 0.41577 0.64130 -0.27200
N 	N 	0.86700 0.07227 0.73720 -0.26400
C 	C 	0.70870 0.20810 0.79300 0.08200
H 	H 	0.68320 0.17190 0.77420 -0.01600
C 	C 	0.80480 0.20910 0.82400 -0.16800
H 	H 	0.84240 0.17420 0.82510 0.06200
C 	C 	0.84510 0.26160 0.85320 0.10700
C 	C 	0.78460 0.31110 0.84960 -0.17300
H 	H 	0.80810 0.34780 0.86850 0.08800
C 	C 	0.68970 0.30690 0.81830 0.08700
H 	H 	0.65030 0.34090 0.81770 -0.00500
C 	C 	0.94940 0.26760 0.88470 -0.07300
H 	H 	0.95800 0.30540 0.90980 0.05600
C 	C 	0.97370 0.18160 0.09820 0.08200
H 	H 	0.94770 0.15060 0.11960 -0.01700
C 	C 	0.97360 0.17500 0.03220 -0.16300
H 	H 	0.94790 0.14000 0.01060 0.05900
C 	C 	0.01090 0.21940 0.99900 0.09100
C 	C 	0.04880 0.26980 0.03440 -0.15200
H 	H 	0.07620 0.30110 0.01410 0.08400
C 	C 	0.04630 0.27390 0.09950 0.08100
H 	H 	0.07140 0.30850 0.12220 -0.00000
C 	C 	0.00620 0.21590 0.92660 -0.06200
H 	H 	0.98090 0.17620 0.91030 0.03300
C 	C 	0.24020 0.08670 0.90180 0.09800
H 	H 	0.25140 0.05210 0.92760 -0.05700
C 	C 	0.17900 0.13070 0.91820 -0.18600
H 	H 	0.14910 0.12480 0.95360 0.08400
C 	C 	0.16200 0.18390 0.88190 0.11200
C 	C 	0.20920 0.18860 0.82960 -0.18200
H 	H 	0.20080 0.22320 0.80360 0.09100
C 	C 	0.26850 0.14220 0.81610 0.09700
H 	H 	0.29920 0.14670 0.78080 -0.03700
C 	C 	0.09620 0.23270 0.89710 -0.07700
H 	H 	0.13450 0.26340 0.92460 0.05200
C 	C 	0.16590 0.40010 0.79240 0.09000
H 	H 	0.22890 0.41510 0.80110 -0.02500
C 	C 	0.14600 0.34760 0.82350 -0.17100
H 	H 	0.19490 0.32850 0.85280 0.08800
C 	C 	0.05340 0.32320 0.81120 0.10500
C 	C 	0.98400 0.35570 0.76810 -0.17700
H 	H 	0.92050 0.34180 0.75840 0.08800
C 	C 	0.00880 0.40820 0.73990 0.09400
H 	H 	0.96050 0.42940 0.71220 -0.04200
C 	C 	0.02760 0.26480 0.84060 -0.07000
H 	H 	0.00670 0.23530 0.80570 0.05100
C 	C 	0.28880 0.19780 0.65570 0.07700
H 	H 	0.33350 0.16710 0.65340 0.01000
C 	C 	0.19340 0.18840 0.62520 -0.16400
H 	H 	0.17470 0.15150 0.60500 0.09200
C 	C 	0.12610 0.23430 0.62510 0.10300
C 	C 	0.15870 0.28760 0.65730 -0.17000
H 	H 	0.11630 0.31990 0.65850 0.06900
C 	C 	0.25490 0.29240 0.68780 0.08300
H 	H 	0.27530 0.32850 0.70930 -0.01600
C 	C 	0.02210 0.22440 0.59300 -0.07500
H 	H 	0.01520 0.18540 0.57020 0.05700
C 	C 	0.98930 0.30800 0.37550 0.07200
H 	H 	0.01070 0.34000 0.35290 -0.01600
C 	C 	0.98980 0.31510 0.44110 -0.15700
H 	H 	0.01070 0.35170 0.46140 0.05600
C 	C 	0.96020 0.26920 0.47670 0.09500
C 	C 	0.92650 0.21680 0.44270 -0.16000
H 	H 	0.90310 0.18470 0.46410 0.08700
C 	C 	0.92770 0.21240 0.37740 0.08800
H 	H 	0.90570 0.17670 0.35580 -0.00100
C 	C 	0.96730 0.27500 0.54860 -0.05600
H 	H 	0.99460 0.31480 0.56300 0.03200
C 	C 	0.71620 0.35980 0.66300 0.09000
H 	H 	0.67620 0.35430 0.69310 -0.01900
C 	C 	0.76140 0.30970 0.64300 -0.18000
H 	H 	0.75160 0.27160 0.65970 0.09000
C 	C 	0.82140 0.31580 0.59810 0.11400
C 	C 	0.82880 0.37330 0.57420 -0.18700
H 	H 	0.86580 0.37980 0.54250 0.07500
C 	C 	0.78200 0.42180 0.59670 0.08800
H 	H 	0.78930 0.46020 0.57990 -0.06200
C 	C 	0.87670 0.26240 0.57970 -0.07900
H 	H 	0.83300 0.23320 0.55360 0.05300
C 	C 	0.80130 0.10100 0.69310 0.08100
H 	H 	0.73770 0.08700 0.68580 -0.01500
C 	C 	0.82280 0.15040 0.65780 -0.16300
H 	H 	0.77460 0.16830 0.62700 0.08500
C 	C 	0.91640 0.17330 0.66850 0.10500
C 	C 	0.98480 0.14160 0.71280 -0.17300
H 	H 	0.04920 0.15390 0.72030 0.09000
C 	C 	0.95840 0.09240 0.74550 0.09700
H 	H 	0.00600 0.07200 0.77460 -0.02500
C 	C 	0.94500 0.22990 0.63730 -0.06600
H 	H 	0.96760 0.25990 0.67140 0.05000
Cd	Cd	0.01501 0.75583 0.76218 1.21500
Cd	Cd	0.14014 0.51118 0.69028 1.15900
Cd	Cd	0.82061 0.99712 0.80255 1.15900
S 	S 	0.01480 0.58611 0.78282 0.76200
S 	S 	0.01008 0.92242 0.74546 0.82300
O 	O 	0.99840 0.65171 0.77800 -0.45900
O 	O 	0.93860 0.55780 0.80860 -0.33900
O 	O 	0.10740 0.57110 0.82090 -0.37300
O 	O 	0.00920 0.56080 0.71630 -0.49300
O 	O 	0.04040 0.85903 0.75270 -0.47700
O 	O 	0.91800 0.92910 0.76480 -0.50900
O 	O 	0.07910 0.96230 0.78460 -0.38900
O 	O 	0.99950 0.94060 0.67900 -0.33200
N 	N 	0.84910 0.75660 0.71140 -0.23400
N 	N 	0.49110 0.72990 0.36840 -0.23700
N 	N 	0.21620 0.59130 0.64890 -0.27600
N 	N 	0.40100 0.93037 0.74960 -0.26600
N 	N 	0.18030 0.74834 0.81200 -0.23300
N 	N 	0.54080 0.75700 0.15630 -0.23700
N 	N 	0.77280 0.91577 0.85870 -0.27200
N 	N 	0.63300 0.57227 0.76280 -0.26400
C 	C 	0.79130 0.70810 0.70700 0.08200
H 	H 	0.81680 0.67190 0.72580 -0.01700
C 	C 	0.69520 0.70910 0.67600 -0.17000
H 	H 	0.65760 0.67420 0.67490 0.06300
C 	C 	0.65490 0.76160 0.64680 0.10900
C 	C 	0.71540 0.81110 0.65040 -0.17500
H 	H 	0.69190 0.84780 0.63150 0.08800
C 	C 	0.81030 0.80690 0.68170 0.08700
H 	H 	0.84970 0.84090 0.68230 -0.00400
C 	C 	0.55060 0.76760 0.61530 -0.07800
H 	H 	0.54200 0.80540 0.59020 0.05700
C 	C 	0.52630 0.68160 0.40180 0.08800
H 	H 	0.55230 0.65060 0.38040 -0.01900
C 	C 	0.52640 0.67500 0.46780 -0.16600
H 	H 	0.55210 0.64000 0.48940 0.06100
C 	C 	0.48910 0.71940 0.50100 0.09700
C 	C 	0.45120 0.76980 0.46560 -0.16000
H 	H 	0.42380 0.80110 0.48590 0.08600
C 	C 	0.45370 0.77390 0.40050 0.08400
H 	H 	0.42860 0.80850 0.37780 -0.00200
C 	C 	0.49380 0.71590 0.57340 -0.05600
H 	H 	0.51910 0.67620 0.58970 0.03000
C 	C 	0.25980 0.58670 0.59820 0.09900
H 	H 	0.24860 0.55210 0.57240 -0.05800
C 	C 	0.32100 0.63070 0.58180 -0.18600
H 	H 	0.35090 0.62480 0.54640 0.08400
C 	C 	0.33800 0.68390 0.61810 0.11300
C 	C 	0.29080 0.68860 0.67040 -0.18200
H 	H 	0.29920 0.72320 0.69640 0.09200
C 	C 	0.23150 0.64220 0.68390 0.09700
H 	H 	0.20080 0.64670 0.71920 -0.03700
C 	C 	0.40380 0.73270 0.60290 -0.07900
H 	H 	0.36550 0.76340 0.57540 0.05300
C 	C 	0.33410 0.90010 0.70760 0.09200
H 	H 	0.27110 0.91510 0.69890 -0.02600
C 	C 	0.35400 0.84760 0.67650 -0.17400
H 	H 	0.30510 0.82850 0.64720 0.08900
C 	C 	0.44660 0.82320 0.68880 0.11000
C 	C 	0.51600 0.85570 0.73190 -0.18600
H 	H 	0.57950 0.84180 0.74160 0.09100
C 	C 	0.49120 0.90820 0.76010 0.10300
H 	H 	0.53950 0.92940 0.78780 -0.04600
C 	C 	0.47240 0.76480 0.65940 -0.06800
H 	H 	0.49330 0.73530 0.69430 0.05100
C 	C 	0.21120 0.69780 0.84430 0.07700
H 	H 	0.16650 0.66710 0.84660 0.00900
C 	C 	0.30660 0.68840 0.87480 -0.16400
H 	H 	0.32530 0.65150 0.89500 0.09200
C 	C 	0.37390 0.73430 0.87490 0.10300
C 	C 	0.34130 0.78760 0.84270 -0.17000
H 	H 	0.38370 0.81990 0.84150 0.06900
C 	C 	0.24510 0.79240 0.81220 0.08300
H 	H 	0.22470 0.82850 0.79070 -0.01600
C 	C 	0.47790 0.72440 0.90700 -0.07500
H 	H 	0.48480 0.68540 0.92980 0.05700
C 	C 	0.51070 0.80800 0.12450 0.07500
H 	H 	0.48930 0.84000 0.14710 -0.01800
C 	C 	0.51020 0.81510 0.05890 -0.15700
H 	H 	0.48930 0.85170 0.03860 0.05600
C 	C 	0.53980 0.76920 0.02330 0.09500
C 	C 	0.57350 0.71680 0.05730 -0.15900
H 	H 	0.59690 0.68470 0.03590 0.08700
C 	C 	0.57230 0.71240 0.12260 0.08800
H 	H 	0.59430 0.67670 0.14420 -0.00100
C 	C 	0.53270 0.77500 0.95140 -0.05600
H 	H 	0.50540 0.81480 0.93700 0.03200
C 	C 	0.78380 0.85980 0.83700 0.09000
H 	H 	0.82380 0.85430 0.80690 -0.01900
C 	C 	0.73860 0.80970 0.85700 -0.18000
H 	H 	0.74840 0.77160 0.84030 0.09000
C 	C 	0.67860 0.81580 0.90190 0.11500
C 	C 	0.67120 0.87330 0.92580 -0.18700
H 	H 	0.63420 0.87980 0.95750 0.07600
C 	C 	0.71800 0.92180 0.90330 0.08800
H 	H 	0.71070 0.96020 0.92010 -0.06200
C 	C 	0.62330 0.76240 0.92030 -0.07900
H 	H 	0.66700 0.73320 0.94640 0.05300
C 	C 	0.69870 0.60100 0.80690 0.08100
H 	H 	0.76230 0.58700 0.81420 -0.01500
C 	C 	0.67720 0.65040 0.84220 -0.16300
H 	H 	0.72540 0.66830 0.87300 0.08500
C 	C 	0.58360 0.67330 0.83150 0.10500
C 	C 	0.51520 0.64160 0.78720 -0.17300
H 	H 	0.45080 0.65390 0.77970 0.09100
C 	C 	0.54160 0.59240 0.75450 0.09500
H 	H 	0.49400 0.57200 0.72540 -0.02400
C 	C 	0.55500 0.72990 0.86270 -0.06600
H 	H 	0.53240 0.75990 0.82860 0.05000
