data_crystal

_cell_length_a 8.49700
_cell_length_b 9.16700
_cell_length_c 12.57000
_cell_angle_alpha 90.00000
_cell_angle_beta  90.00000
_cell_angle_gamma 90.00000

_symmetry_space_group_name_	'P 1'
_symmetry_space_group_name_H-M	'P 1'

loop_
_symmetry_equiv_pos_as_xyz
  x,y,z

loop_
_atom_site_label
_atom_site_type_symbol
_atom_site_fract_x
_atom_site_fract_y
_atom_site_fract_z
_atom_site_charge
C 	C 	0.51850 0.44530 0.97900 -0.29700
C 	C 	0.98150 0.55470 0.47900 -0.29700
C 	C 	0.48150 0.94530 0.02100 -0.29700
C 	C 	0.01850 0.05470 0.52100 -0.29700
C 	C 	0.48150 0.55470 0.02100 -0.29700
C 	C 	0.01850 0.44530 0.52100 -0.29700
C 	C 	0.51850 0.05470 0.97900 -0.29700
C 	C 	0.98150 0.94530 0.47900 -0.29700
Cd	Cd	0.59360 0.25000 0.89560 1.14800
C 	C 	0.38660 0.25000 0.77850 -0.23400
C 	C 	0.78640 0.25000 0.78200 -0.32000
Cd	Cd	0.90640 0.75000 0.39560 1.14800
C 	C 	0.11340 0.75000 0.27850 -0.23300
C 	C 	0.71360 0.75000 0.28200 -0.32100
Cd	Cd	0.40640 0.75000 0.10440 1.14800
C 	C 	0.61340 0.75000 0.22150 -0.23400
C 	C 	0.21360 0.75000 0.21800 -0.32000
Cd	Cd	0.09360 0.25000 0.60440 1.14800
C 	C 	0.88660 0.25000 0.72150 -0.23300
C 	C 	0.28640 0.25000 0.71800 -0.32100
