data_crystal

_cell_length_a 16.80400
_cell_length_b 16.22800
_cell_length_c 26.46100
_cell_angle_alpha 90.00000
_cell_angle_beta  103.17000
_cell_angle_gamma 90.00000

_symmetry_space_group_name_	'P 1'
_symmetry_space_group_name_H-M	'P 1'

loop_
_symmetry_equiv_pos_as_xyz
  x,y,z

loop_
_atom_site_label
_atom_site_type_symbol
_atom_site_fract_x
_atom_site_fract_y
_atom_site_fract_z
_atom_site_charge
Cd	Cd	0.52587 0.29612 0.24280 1.18200
Cd	Cd	0.61475 0.55013 0.24570 1.24000
Cd	Cd	0.87528 0.95540 0.24913 1.23800
Cd	Cd	0.95813 0.20655 0.24826 1.18300
O 	O 	0.72640 0.49380 0.29976 -0.40000
O 	O 	0.67900 0.60250 0.33287 -0.37300
O 	O 	0.87260 0.14545 0.29645 -0.46300
O 	O 	0.88570 0.01540 0.32549 -0.43100
O 	O 	0.61490 0.36110 0.19765 -0.45700
O 	O 	0.58780 0.48930 0.16807 -0.43300
O 	O 	0.76440 0.01380 0.19300 -0.37400
O 	O 	0.82160 0.91000 0.16147 -0.34600
O 	O 	0.05010 0.20670 0.72580 -0.51500
O 	O 	0.16850 0.15847 0.71729 -0.44500
O 	O 	0.00460 0.54350 0.73621 -0.43800
O 	O 	0.94913 0.42204 0.71638 -0.51600
O 	O 	0.32570 0.34166 0.78784 -0.42100
O 	O 	0.43780 0.29360 0.76853 -0.52700
O 	O 	0.48720 0.95240 0.76167 -0.44400
O 	O 	0.53980 0.07590 0.77502 -0.52100
N 	N 	0.00530 0.42220 0.61155 -0.16400
N 	N 	0.96760 0.34010 0.53470 -0.17600
N 	N 	0.04960 0.28160 0.61231 -0.17000
N 	N 	0.93130 0.47890 0.53750 -0.24900
H 	H 	0.93620 0.52210 0.55680 0.15000
N 	N 	0.00520 0.20130 0.54116 -0.25900
H 	H 	0.02600 0.16220 0.56200 0.13900
N 	N 	0.08660 0.36270 0.68531 -0.06200
N 	N 	0.46940 0.29070 0.95657 -0.25400
H 	H 	0.43890 0.32610 0.93700 0.14100
N 	N 	0.43610 0.21440 0.88290 -0.17200
N 	N 	0.52630 0.15850 0.95890 -0.18800
N 	N 	0.48960 0.07820 0.88114 -0.17300
N 	N 	0.57150 0.02330 0.95340 -0.23600
H 	H 	0.57100 0.97970 0.93230 0.12200
N 	N 	0.40570 0.13630 0.80881 -0.06600
C 	C 	0.72670 0.54140 0.33774 0.33100
C 	C 	0.78390 0.52520 0.38837 -0.15900
C 	C 	0.80170 0.58640 0.42650 0.11600
H 	H 	0.77990 0.63890 0.41950 -0.00300
C 	C 	0.85170 0.56900 0.47450 -0.20100
H 	H 	0.86350 0.61060 0.49920 0.10600
C 	C 	0.88490 0.49050 0.48680 0.22900
C 	C 	0.86980 0.43060 0.44824 -0.22100
H 	H 	0.89240 0.37840 0.45490 0.12000
C 	C 	0.82070 0.44900 0.39973 0.12200
H 	H 	0.81230 0.40880 0.37410 -0.00700
C 	C 	0.96970 0.41080 0.56137 0.20500
C 	C 	0.00740 0.27810 0.56290 0.19100
C 	C 	0.04530 0.35580 0.63435 0.14500
C 	C 	0.97370 0.17820 0.48974 0.22800
C 	C 	0.97250 0.22960 0.44795 -0.25800
H 	H 	0.99200 0.28330 0.45370 0.12000
C 	C 	0.94260 0.20230 0.39760 0.15300
H 	H 	0.94030 0.23850 0.37010 -0.05600
C 	C 	0.91640 0.12250 0.38772 -0.21800
C 	C 	0.91740 0.07010 0.42948 0.14900
H 	H 	0.90010 0.01580 0.42350 -0.01400
C 	C 	0.94380 0.09810 0.47978 -0.25500
H 	H 	0.94160 0.06330 0.50730 0.11600
C 	C 	0.88970 0.09310 0.33227 0.37800
C 	C 	0.08970 0.44410 0.70957 -0.34200
H 	H 	0.10570 0.48460 0.68680 0.15500
H 	H 	0.13120 0.44370 0.74170 0.12500
C 	C 	0.00910 0.47010 0.72103 0.39600
C 	C 	0.14940 0.30150 0.70535 -0.36500
H 	H 	0.18370 0.32260 0.73720 0.14100
H 	H 	0.18350 0.29540 0.68050 0.16100
C 	C 	0.11910 0.21700 0.71628 0.43700
C 	C 	0.58970 0.41300 0.16239 0.37900
C 	C 	0.55930 0.38040 0.10775 -0.21300
C 	C 	0.58080 0.30280 0.09490 0.13500
H 	H 	0.61480 0.27070 0.11990 -0.03100
C 	C 	0.55280 0.27140 0.04560 -0.24900
H 	H 	0.56870 0.21900 0.03770 0.12000
C 	C 	0.50140 0.31740 0.00761 0.21600
C 	C 	0.47880 0.39580 0.02000 -0.24400
H 	H 	0.44360 0.42710 0.99500 0.11300
C 	C 	0.50850 0.42780 0.06940 0.13100
H 	H 	0.49440 0.48110 0.07710 -0.01200
C 	C 	0.47900 0.21750 0.93299 0.17100
C 	C 	0.52730 0.09010 0.93112 0.16300
C 	C 	0.44610 0.14320 0.85974 0.12200
C 	C 	0.61810 0.01270 0.00444 0.20700
C 	C 	0.60260 0.05630 0.04790 -0.43700
H 	H 	0.55940 0.09340 0.04380 0.16700
C 	C 	0.65310 0.04230 0.09620 -0.07800
H 	H 	0.64550 0.07250 0.12450 0.04500
C 	C 	0.71570 0.98340 0.10304 0.11200
C 	C 	0.72280 0.93840 0.06100 -1.78300
H 	H 	0.76220 0.89720 0.06520 0.54100
C 	C 	0.67350 0.95180 0.01220 -1.32600
H 	H 	0.67880 0.91840 0.98460 0.44100
C 	C 	0.77040 0.96850 0.15516 0.22200
C 	C 	0.40220 0.05490 0.78499 -0.35500
H 	H 	0.36070 0.05530 0.75280 0.12200
H 	H 	0.38560 0.01500 0.80790 0.14900
C 	C 	0.48160 0.02760 0.77376 0.40900
C 	C 	0.34150 0.19670 0.78986 -0.36200
H 	H 	0.30640 0.19980 0.81430 0.15500
H 	H 	0.30840 0.17750 0.75700 0.13700
C 	C 	0.37230 0.28200 0.78228 0.42100
C 	C 	0.65650 0.07640 0.03580 0.30000
H 	H 	0.65290 0.13040 0.02380 -0.05600
C 	C 	0.69960 0.05780 0.08470 0.04400
H 	H 	0.71920 0.10160 0.10670 0.01900
C 	C 	0.69090 0.91240 0.06860 1.62900
H 	H 	0.70580 0.85870 0.07880 -0.53300
C 	C 	0.64490 0.93100 0.02110 1.26400
H 	H 	0.62960 0.88770 0.99770 -0.40300
Cd	Cd	0.47413 0.79612 0.25720 1.18300
Cd	Cd	0.38525 0.05013 0.25430 1.24100
Cd	Cd	0.12472 0.45540 0.25087 1.24100
Cd	Cd	0.04187 0.70655 0.25174 1.18400
O 	O 	0.27360 0.99380 0.20024 -0.39700
O 	O 	0.32100 0.10250 0.16713 -0.37200
O 	O 	0.12740 0.64545 0.20355 -0.46200
O 	O 	0.11430 0.51540 0.17451 -0.43100
O 	O 	0.38510 0.86110 0.30235 -0.45700
O 	O 	0.41220 0.98930 0.33193 -0.43300
O 	O 	0.23560 0.51380 0.30700 -0.37500
O 	O 	0.17840 0.41000 0.33853 -0.34400
O 	O 	0.94990 0.70670 0.77420 -0.51400
O 	O 	0.83150 0.65847 0.78271 -0.44400
O 	O 	0.99540 0.04350 0.76379 -0.43300
O 	O 	0.05087 0.92204 0.78362 -0.51200
O 	O 	0.67430 0.84166 0.71216 -0.42100
O 	O 	0.56220 0.79360 0.73147 -0.52700
O 	O 	0.51280 0.45240 0.73833 -0.44400
O 	O 	0.46020 0.57590 0.72498 -0.52100
N 	N 	0.99470 0.92220 0.88845 -0.16600
N 	N 	0.03240 0.84010 0.96530 -0.17600
N 	N 	0.95040 0.78160 0.88769 -0.16900
N 	N 	0.06870 0.97890 0.96250 -0.24800
H 	H 	0.06380 0.02210 0.94320 0.14700
N 	N 	0.99480 0.70130 0.95884 -0.25800
H 	H 	0.97400 0.66220 0.93800 0.13900
N 	N 	0.91340 0.86270 0.81469 -0.06300
N 	N 	0.53060 0.79070 0.54343 -0.25400
H 	H 	0.56110 0.82610 0.56300 0.14100
N 	N 	0.56390 0.71440 0.61710 -0.17200
N 	N 	0.47370 0.65850 0.54110 -0.18900
N 	N 	0.51040 0.57820 0.61886 -0.17400
N 	N 	0.42850 0.52330 0.54660 -0.23700
H 	H 	0.42900 0.47970 0.56770 0.12200
N 	N 	0.59430 0.63630 0.69119 -0.06600
C 	C 	0.27330 0.04140 0.16226 0.33100
C 	C 	0.21610 0.02520 0.11163 -0.16600
C 	C 	0.19830 0.08640 0.07350 0.12100
H 	H 	0.22010 0.13890 0.08050 -0.00500
C 	C 	0.14830 0.06900 0.02550 -0.21000
H 	H 	0.13650 0.11060 0.00080 0.10800
C 	C 	0.11510 0.99050 0.01320 0.23400
C 	C 	0.13020 0.93060 0.05176 -0.22600
H 	H 	0.10760 0.87840 0.04510 0.12200
C 	C 	0.17930 0.94900 0.10027 0.12900
H 	H 	0.18770 0.90880 0.12590 -0.00900
C 	C 	0.03030 0.91080 0.93863 0.20700
C 	C 	0.99260 0.77810 0.93710 0.19000
C 	C 	0.95470 0.85580 0.86565 0.14500
C 	C 	0.02630 0.67820 0.01026 0.22700
C 	C 	0.02750 0.72960 0.05205 -0.25800
H 	H 	0.00800 0.78330 0.04630 0.12000
C 	C 	0.05740 0.70230 0.10240 0.15200
H 	H 	0.05970 0.73850 0.12990 -0.05500
C 	C 	0.08360 0.62250 0.11228 -0.21800
C 	C 	0.08260 0.57010 0.07052 0.14800
H 	H 	0.09990 0.51580 0.07650 -0.01500
C 	C 	0.05620 0.59810 0.02022 -0.25500
H 	H 	0.05840 0.56330 0.99270 0.11500
C 	C 	0.11030 0.59310 0.16773 0.37800
C 	C 	0.91030 0.94410 0.79043 -0.33800
H 	H 	0.89430 0.98460 0.81320 0.15300
H 	H 	0.86880 0.94370 0.75830 0.12300
C 	C 	0.99090 0.97010 0.77897 0.38800
C 	C 	0.85060 0.80150 0.79465 -0.36500
H 	H 	0.81630 0.82260 0.76280 0.14100
H 	H 	0.81650 0.79540 0.81950 0.16100
C 	C 	0.88090 0.71700 0.78372 0.43700
C 	C 	0.41030 0.91300 0.33761 0.37900
C 	C 	0.44070 0.88040 0.39225 -0.21300
C 	C 	0.41920 0.80280 0.40510 0.13500
H 	H 	0.38520 0.77070 0.38010 -0.03100
C 	C 	0.44720 0.77140 0.45440 -0.24900
H 	H 	0.43130 0.71900 0.46230 0.12000
C 	C 	0.49860 0.81740 0.49239 0.21600
C 	C 	0.52120 0.89580 0.48000 -0.24400
H 	H 	0.55640 0.92710 0.50500 0.11300
C 	C 	0.49150 0.92780 0.43060 0.13100
H 	H 	0.50560 0.98110 0.42290 -0.01200
C 	C 	0.52100 0.71750 0.56701 0.17000
C 	C 	0.47270 0.59010 0.56888 0.16100
C 	C 	0.55390 0.64320 0.64026 0.12000
C 	C 	0.38190 0.51270 0.49556 0.21000
C 	C 	0.39740 0.55630 0.45210 -0.45600
H 	H 	0.44060 0.59340 0.45620 0.17300
C 	C 	0.34690 0.54230 0.40380 -0.08900
H 	H 	0.35450 0.57250 0.37550 0.04800
C 	C 	0.28430 0.48340 0.39696 0.12800
C 	C 	0.27720 0.43840 0.43900 -1.89900
H 	H 	0.23780 0.39720 0.43480 0.57400
C 	C 	0.32650 0.45180 0.48780 -1.40900
H 	H 	0.32120 0.41840 0.51540 0.46700
C 	C 	0.22960 0.46850 0.34484 0.21800
C 	C 	0.59780 0.55490 0.71501 -0.35600
H 	H 	0.63930 0.55530 0.74720 0.12300
H 	H 	0.61440 0.51500 0.69210 0.14900
C 	C 	0.51840 0.52760 0.72624 0.40900
C 	C 	0.65850 0.69670 0.71014 -0.36200
H 	H 	0.69360 0.69980 0.68570 0.15400
H 	H 	0.69160 0.67750 0.74300 0.13700
C 	C 	0.62770 0.78200 0.71772 0.42100
C 	C 	0.34350 0.57640 0.46420 0.32300
H 	H 	0.34710 0.63040 0.47620 -0.06300
C 	C 	0.30040 0.55780 0.41530 0.04700
H 	H 	0.28080 0.60160 0.39330 0.01900
C 	C 	0.30910 0.41240 0.43140 1.73300
H 	H 	0.29420 0.35870 0.42120 -0.56900
C 	C 	0.35510 0.43100 0.47890 1.35500
H 	H 	0.37040 0.38770 0.50230 -0.43300
Cd	Cd	0.47413 0.70388 0.75720 1.18300
Cd	Cd	0.38525 0.44987 0.75430 1.24100
Cd	Cd	0.12472 0.04460 0.75087 1.23900
Cd	Cd	0.04187 0.79345 0.75174 1.18400
O 	O 	0.27360 0.50620 0.70024 -0.39900
O 	O 	0.32100 0.39750 0.66713 -0.37200
O 	O 	0.12740 0.85455 0.70355 -0.46200
O 	O 	0.11430 0.98460 0.67451 -0.43000
O 	O 	0.38510 0.63890 0.80235 -0.45700
O 	O 	0.41220 0.51070 0.83193 -0.43300
O 	O 	0.23560 0.98620 0.80700 -0.37400
O 	O 	0.17840 0.09000 0.83853 -0.34600
O 	O 	0.94990 0.79330 0.27420 -0.51500
O 	O 	0.83150 0.84153 0.28271 -0.44500
O 	O 	0.99540 0.45650 0.26379 -0.43800
O 	O 	0.05087 0.57796 0.28362 -0.51600
O 	O 	0.67430 0.65834 0.21216 -0.42100
O 	O 	0.56220 0.70640 0.23147 -0.52700
O 	O 	0.51280 0.04760 0.23833 -0.44400
O 	O 	0.46020 0.92410 0.22498 -0.52100
N 	N 	0.99470 0.57780 0.38845 -0.16400
N 	N 	0.03240 0.65990 0.46530 -0.17600
N 	N 	0.95040 0.71840 0.38769 -0.17000
N 	N 	0.06870 0.52110 0.46250 -0.24900
H 	H 	0.06380 0.47790 0.44320 0.15000
N 	N 	0.99480 0.79870 0.45884 -0.25900
H 	H 	0.97400 0.83780 0.43800 0.13900
N 	N 	0.91340 0.63730 0.31469 -0.06200
N 	N 	0.53060 0.70930 0.04343 -0.25400
H 	H 	0.56110 0.67390 0.06300 0.14100
N 	N 	0.56390 0.78560 0.11710 -0.17200
N 	N 	0.47370 0.84150 0.04110 -0.18800
N 	N 	0.51040 0.92180 0.11886 -0.17300
N 	N 	0.42850 0.97670 0.04660 -0.23600
H 	H 	0.42900 0.02030 0.06770 0.12200
N 	N 	0.59430 0.86370 0.19119 -0.06600
C 	C 	0.27330 0.45860 0.66226 0.33100
C 	C 	0.21610 0.47480 0.61163 -0.15900
C 	C 	0.19830 0.41360 0.57350 0.11600
H 	H 	0.22010 0.36110 0.58050 -0.00300
C 	C 	0.14830 0.43100 0.52550 -0.20100
H 	H 	0.13650 0.38940 0.50080 0.10600
C 	C 	0.11510 0.50950 0.51320 0.22900
C 	C 	0.13020 0.56940 0.55176 -0.22100
H 	H 	0.10760 0.62160 0.54510 0.12000
C 	C 	0.17930 0.55100 0.60027 0.12200
H 	H 	0.18770 0.59120 0.62590 -0.00700
C 	C 	0.03030 0.58920 0.43863 0.20500
C 	C 	0.99260 0.72190 0.43710 0.19100
C 	C 	0.95470 0.64420 0.36565 0.14500
C 	C 	0.02630 0.82180 0.51026 0.22800
C 	C 	0.02750 0.77040 0.55205 -0.25800
H 	H 	0.00800 0.71670 0.54630 0.12000
C 	C 	0.05740 0.79770 0.60240 0.15300
H 	H 	0.05970 0.76150 0.62990 -0.05600
C 	C 	0.08360 0.87750 0.61228 -0.21800
C 	C 	0.08260 0.92990 0.57052 0.14900
H 	H 	0.09990 0.98420 0.57650 -0.01400
C 	C 	0.05620 0.90190 0.52022 -0.25500
H 	H 	0.05840 0.93670 0.49270 0.11600
C 	C 	0.11030 0.90690 0.66773 0.37800
C 	C 	0.91030 0.55590 0.29043 -0.34200
H 	H 	0.89430 0.51540 0.31320 0.15500
H 	H 	0.86880 0.55630 0.25830 0.12500
C 	C 	0.99090 0.52990 0.27897 0.39600
C 	C 	0.85060 0.69850 0.29465 -0.36500
H 	H 	0.81630 0.67740 0.26280 0.14100
H 	H 	0.81650 0.70460 0.31950 0.16100
C 	C 	0.88090 0.78300 0.28372 0.43700
C 	C 	0.41030 0.58700 0.83761 0.37900
C 	C 	0.44070 0.61960 0.89225 -0.21300
C 	C 	0.41920 0.69720 0.90510 0.13500
H 	H 	0.38520 0.72930 0.88010 -0.03100
C 	C 	0.44720 0.72860 0.95440 -0.24900
H 	H 	0.43130 0.78100 0.96230 0.12000
C 	C 	0.49860 0.68260 0.99239 0.21600
C 	C 	0.52120 0.60420 0.98000 -0.24400
H 	H 	0.55640 0.57290 0.00500 0.11300
C 	C 	0.49150 0.57220 0.93060 0.13100
H 	H 	0.50560 0.51890 0.92290 -0.01200
C 	C 	0.52100 0.78250 0.06701 0.17100
C 	C 	0.47270 0.90990 0.06888 0.16300
C 	C 	0.55390 0.85680 0.14026 0.12200
C 	C 	0.38190 0.98730 0.99556 0.20700
C 	C 	0.39740 0.94370 0.95210 -0.43700
H 	H 	0.44060 0.90660 0.95620 0.16700
C 	C 	0.34690 0.95770 0.90380 -0.07800
H 	H 	0.35450 0.92750 0.87550 0.04500
C 	C 	0.28430 0.01660 0.89696 0.11200
C 	C 	0.27720 0.06160 0.93900 -1.78300
H 	H 	0.23780 0.10280 0.93480 0.54100
C 	C 	0.32650 0.04820 0.98780 -1.32600
H 	H 	0.32120 0.08160 0.01540 0.44100
C 	C 	0.22960 0.03150 0.84484 0.22200
C 	C 	0.59780 0.94510 0.21501 -0.35500
H 	H 	0.63930 0.94470 0.24720 0.12200
H 	H 	0.61440 0.98500 0.19210 0.14900
C 	C 	0.51840 0.97240 0.22624 0.40900
C 	C 	0.65850 0.80330 0.21014 -0.36200
H 	H 	0.69360 0.80020 0.18570 0.15500
H 	H 	0.69160 0.82250 0.24300 0.13700
C 	C 	0.62770 0.71800 0.21772 0.42100
C 	C 	0.34350 0.92360 0.96420 0.30000
H 	H 	0.34710 0.86960 0.97620 -0.05600
C 	C 	0.30040 0.94220 0.91530 0.04400
H 	H 	0.28080 0.89840 0.89330 0.01900
C 	C 	0.30910 0.08760 0.93140 1.62900
H 	H 	0.29420 0.14130 0.92120 -0.53300
C 	C 	0.35510 0.06900 0.97890 1.26400
H 	H 	0.37040 0.11230 0.00230 -0.40300
Cd	Cd	0.52587 0.20388 0.74280 1.18300
Cd	Cd	0.61475 0.94987 0.74570 1.24100
Cd	Cd	0.87528 0.54460 0.74913 1.24100
Cd	Cd	0.95813 0.29345 0.74826 1.18400
O 	O 	0.72640 0.00620 0.79976 -0.39700
O 	O 	0.67900 0.89750 0.83287 -0.37200
O 	O 	0.87260 0.35455 0.79645 -0.46200
O 	O 	0.88570 0.48460 0.82549 -0.43100
O 	O 	0.61490 0.13890 0.69765 -0.45700
O 	O 	0.58780 0.01070 0.66807 -0.43300
O 	O 	0.76440 0.48620 0.69300 -0.37500
O 	O 	0.82160 0.59000 0.66147 -0.34400
O 	O 	0.05010 0.29330 0.22580 -0.51400
O 	O 	0.16850 0.34153 0.21729 -0.44400
O 	O 	0.00460 0.95650 0.23621 -0.43300
O 	O 	0.94913 0.07796 0.21638 -0.51200
O 	O 	0.32570 0.15834 0.28784 -0.42100
O 	O 	0.43780 0.20640 0.26853 -0.52700
O 	O 	0.48720 0.54760 0.26167 -0.44400
O 	O 	0.53980 0.42410 0.27502 -0.52100
N 	N 	0.00530 0.07780 0.11155 -0.16600
N 	N 	0.96760 0.15990 0.03470 -0.17600
N 	N 	0.04960 0.21840 0.11231 -0.16900
N 	N 	0.93130 0.02110 0.03750 -0.24800
H 	H 	0.93620 0.97790 0.05680 0.14700
N 	N 	0.00520 0.29870 0.04116 -0.25800
H 	H 	0.02600 0.33780 0.06200 0.13900
N 	N 	0.08660 0.13730 0.18531 -0.06300
N 	N 	0.46940 0.20930 0.45657 -0.25400
H 	H 	0.43890 0.17390 0.43700 0.14100
N 	N 	0.43610 0.28560 0.38290 -0.17200
N 	N 	0.52630 0.34150 0.45890 -0.18900
N 	N 	0.48960 0.42180 0.38114 -0.17400
N 	N 	0.57150 0.47670 0.45340 -0.23700
H 	H 	0.57100 0.52030 0.43230 0.12200
N 	N 	0.40570 0.36370 0.30881 -0.06600
C 	C 	0.72670 0.95860 0.83774 0.33100
C 	C 	0.78390 0.97480 0.88837 -0.16600
C 	C 	0.80170 0.91360 0.92650 0.12100
H 	H 	0.77990 0.86110 0.91950 -0.00500
C 	C 	0.85170 0.93100 0.97450 -0.21000
H 	H 	0.86350 0.88940 0.99920 0.10800
C 	C 	0.88490 0.00950 0.98680 0.23400
C 	C 	0.86980 0.06940 0.94824 -0.22600
H 	H 	0.89240 0.12160 0.95490 0.12200
C 	C 	0.82070 0.05100 0.89973 0.12900
H 	H 	0.81230 0.09120 0.87410 -0.00900
C 	C 	0.96970 0.08920 0.06137 0.20700
C 	C 	0.00740 0.22190 0.06290 0.19000
C 	C 	0.04530 0.14420 0.13435 0.14500
C 	C 	0.97370 0.32180 0.98974 0.22700
C 	C 	0.97250 0.27040 0.94795 -0.25800
H 	H 	0.99200 0.21670 0.95370 0.12000
C 	C 	0.94260 0.29770 0.89760 0.15200
H 	H 	0.94030 0.26150 0.87010 -0.05500
C 	C 	0.91640 0.37750 0.88772 -0.21800
C 	C 	0.91740 0.42990 0.92948 0.14800
H 	H 	0.90010 0.48420 0.92350 -0.01500
C 	C 	0.94380 0.40190 0.97978 -0.25500
H 	H 	0.94160 0.43670 0.00730 0.11500
C 	C 	0.88970 0.40690 0.83227 0.37800
C 	C 	0.08970 0.05590 0.20957 -0.33800
H 	H 	0.10570 0.01540 0.18680 0.15300
H 	H 	0.13120 0.05630 0.24170 0.12300
C 	C 	0.00910 0.02990 0.22103 0.38800
C 	C 	0.14940 0.19850 0.20535 -0.36500
H 	H 	0.18370 0.17740 0.23720 0.14100
H 	H 	0.18350 0.20460 0.18050 0.16100
C 	C 	0.11910 0.28300 0.21628 0.43700
C 	C 	0.58970 0.08700 0.66239 0.37900
C 	C 	0.55930 0.11960 0.60775 -0.21300
C 	C 	0.58080 0.19720 0.59490 0.13500
H 	H 	0.61480 0.22930 0.61990 -0.03100
C 	C 	0.55280 0.22860 0.54560 -0.24900
H 	H 	0.56870 0.28100 0.53770 0.12000
C 	C 	0.50140 0.18260 0.50761 0.21600
C 	C 	0.47880 0.10420 0.52000 -0.24400
H 	H 	0.44360 0.07290 0.49500 0.11300
C 	C 	0.50850 0.07220 0.56940 0.13100
H 	H 	0.49440 0.01890 0.57710 -0.01200
C 	C 	0.47900 0.28250 0.43299 0.17000
C 	C 	0.52730 0.40990 0.43112 0.16100
C 	C 	0.44610 0.35680 0.35974 0.12000
C 	C 	0.61810 0.48730 0.50444 0.21000
C 	C 	0.60260 0.44370 0.54790 -0.45600
H 	H 	0.55940 0.40660 0.54380 0.17300
C 	C 	0.65310 0.45770 0.59620 -0.08900
H 	H 	0.64550 0.42750 0.62450 0.04800
C 	C 	0.71570 0.51660 0.60304 0.12800
C 	C 	0.72280 0.56160 0.56100 -1.89900
H 	H 	0.76220 0.60280 0.56520 0.57400
C 	C 	0.67350 0.54820 0.51220 -1.40900
H 	H 	0.67880 0.58160 0.48460 0.46700
C 	C 	0.77040 0.53150 0.65516 0.21800
C 	C 	0.40220 0.44510 0.28499 -0.35600
H 	H 	0.36070 0.44470 0.25280 0.12300
H 	H 	0.38560 0.48500 0.30790 0.14900
C 	C 	0.48160 0.47240 0.27376 0.40900
C 	C 	0.34150 0.30330 0.28986 -0.36200
H 	H 	0.30640 0.30020 0.31430 0.15400
H 	H 	0.30840 0.32250 0.25700 0.13700
C 	C 	0.37230 0.21800 0.28228 0.42100
C 	C 	0.65650 0.42360 0.53580 0.32300
H 	H 	0.65290 0.36960 0.52380 -0.06300
C 	C 	0.69960 0.44220 0.58470 0.04700
H 	H 	0.71920 0.39840 0.60670 0.01900
C 	C 	0.69090 0.58760 0.56860 1.73300
H 	H 	0.70580 0.64130 0.57880 -0.56900
C 	C 	0.64490 0.56900 0.52110 1.35500
H 	H 	0.62960 0.61230 0.49770 -0.43300
