data_crystal

_cell_length_a 18.02080
_cell_length_b 27.01110
_cell_length_c 27.01110
_cell_angle_alpha 120.00000
_cell_angle_beta  90.00000
_cell_angle_gamma 90.00000

_symmetry_space_group_name_	'P 1'
_symmetry_space_group_name_H-M	'P 1'

loop_
_symmetry_equiv_pos_as_xyz
  x,y,z

loop_
_atom_site_label
_atom_site_type_symbol
_atom_site_fract_x
_atom_site_fract_y
_atom_site_fract_z
_atom_site_charge
Zn	Zn	0.57966 0.33278 0.44352 1.17900
Zn	Zn	0.57966 0.11074 0.66722 1.17900
Zn	Zn	0.57966 0.55648 0.88926 1.17800
Zn	Zn	0.07966 0.66722 0.55648 1.17800
Zn	Zn	0.07966 0.88926 0.33278 1.17800
Zn	Zn	0.07966 0.44352 0.11074 1.17800
Zn	Zn	0.42034 0.88926 0.55648 1.17800
Zn	Zn	0.42034 0.44352 0.33278 1.17800
Zn	Zn	0.42034 0.66722 0.11074 1.17800
Zn	Zn	0.92034 0.11074 0.44352 1.17800
Zn	Zn	0.92034 0.55648 0.66722 1.17800
Zn	Zn	0.92034 0.33278 0.88926 1.17800
Zn	Zn	0.42034 0.66722 0.55648 1.17800
Zn	Zn	0.42034 0.88926 0.33278 1.17800
Zn	Zn	0.42034 0.44352 0.11074 1.17800
Zn	Zn	0.92034 0.33278 0.44352 1.17800
Zn	Zn	0.92034 0.11074 0.66722 1.17700
Zn	Zn	0.92034 0.55648 0.88926 1.17800
Zn	Zn	0.57966 0.11074 0.44352 1.17800
Zn	Zn	0.57966 0.55648 0.66722 1.17800
Zn	Zn	0.57966 0.33278 0.88926 1.17800
Zn	Zn	0.07966 0.88926 0.55648 1.17800
Zn	Zn	0.07966 0.44352 0.33278 1.17800
Zn	Zn	0.07966 0.66722 0.11074 1.17800
H 	H 	0.44520 0.24470 0.39810 0.00600
H 	H 	0.68210 0.33190 0.34730 0.00300
H 	H 	0.43200 0.40130 0.50890 0.00300
H 	H 	0.53040 0.26200 0.30840 -0.00100
H 	H 	0.44520 0.15340 0.75530 0.00600
H 	H 	0.68210 0.01540 0.66810 0.00300
H 	H 	0.43200 0.10760 0.59870 0.00300
H 	H 	0.53040 0.04640 0.73800 0.00100
H 	H 	0.44520 0.60190 0.84660 0.00700
H 	H 	0.68210 0.65270 0.98460 0.00400
H 	H 	0.43200 0.49110 0.89240 0.00400
H 	H 	0.53040 0.69160 0.95360 -0.00100
H 	H 	0.94520 0.75530 0.60190 0.00700
H 	H 	0.18210 0.66810 0.65270 0.00400
H 	H 	0.93200 0.59870 0.49110 0.00300
H 	H 	0.03040 0.73800 0.69160 -0.00200
H 	H 	0.94520 0.84660 0.24470 0.00700
H 	H 	0.18210 0.98460 0.33190 0.00500
H 	H 	0.93200 0.89240 0.40130 0.00400
H 	H 	0.03040 0.95360 0.26200 -0.00400
H 	H 	0.94520 0.39810 0.15340 0.00600
H 	H 	0.18210 0.34730 0.01540 0.00400
H 	H 	0.93200 0.50890 0.10760 0.00300
H 	H 	0.03040 0.30840 0.04640 -0.00100
H 	H 	0.55480 0.84660 0.60190 0.00700
H 	H 	0.31790 0.98460 0.65270 0.00500
H 	H 	0.56800 0.89240 0.49110 0.00400
H 	H 	0.46960 0.95360 0.69160 -0.00300
H 	H 	0.55480 0.39810 0.24470 0.00600
H 	H 	0.31790 0.34730 0.33190 0.00400
H 	H 	0.56800 0.50890 0.40130 0.00300
H 	H 	0.46960 0.30840 0.26200 -0.00100
H 	H 	0.55480 0.75530 0.15340 0.00600
H 	H 	0.31790 0.66810 0.01540 0.00300
H 	H 	0.56800 0.59870 0.10760 0.00300
H 	H 	0.46960 0.73800 0.04640 0.00100
H 	H 	0.05480 0.15340 0.39810 0.00600
H 	H 	0.81790 0.01540 0.34730 0.00300
H 	H 	0.06800 0.10760 0.50890 0.00200
H 	H 	0.96960 0.04640 0.30840 0.00200
H 	H 	0.05480 0.60190 0.75530 0.00700
H 	H 	0.81790 0.65270 0.66810 0.00300
H 	H 	0.06800 0.49110 0.59870 0.00300
H 	H 	0.96960 0.69160 0.73800 0.00100
H 	H 	0.05480 0.24470 0.84660 0.00700
H 	H 	0.81790 0.33190 0.98460 0.00400
H 	H 	0.06800 0.40130 0.89240 0.00300
H 	H 	0.96960 0.26200 0.95360 -0.00000
H 	H 	0.55480 0.75530 0.60190 0.00700
H 	H 	0.31790 0.66810 0.65270 0.00400
H 	H 	0.56800 0.59870 0.49110 0.00300
H 	H 	0.46960 0.73800 0.69160 -0.00000
H 	H 	0.55480 0.84660 0.24470 0.00700
H 	H 	0.31790 0.98460 0.33190 0.00500
H 	H 	0.56800 0.89240 0.40130 0.00400
H 	H 	0.46960 0.95360 0.26200 -0.00300
H 	H 	0.55480 0.39810 0.15340 0.00600
H 	H 	0.31790 0.34730 0.01540 0.00300
H 	H 	0.56800 0.50890 0.10760 0.00300
H 	H 	0.46960 0.30840 0.04640 0.00000
H 	H 	0.05480 0.24470 0.39810 0.00600
H 	H 	0.81790 0.33190 0.34730 0.00300
H 	H 	0.06800 0.40130 0.50890 0.00300
H 	H 	0.96960 0.26200 0.30840 0.00000
H 	H 	0.05480 0.15340 0.75530 0.00600
H 	H 	0.81790 0.01540 0.66810 0.00300
H 	H 	0.06800 0.10760 0.59870 0.00300
H 	H 	0.96960 0.04640 0.73800 0.00300
H 	H 	0.05480 0.60190 0.84660 0.00700
H 	H 	0.81790 0.65270 0.98460 0.00400
H 	H 	0.06800 0.49110 0.89240 0.00300
H 	H 	0.96960 0.69160 0.95360 -0.00000
H 	H 	0.44520 0.15340 0.39810 0.00600
H 	H 	0.68210 0.01540 0.34730 0.00300
H 	H 	0.43200 0.10760 0.50890 0.00300
H 	H 	0.53040 0.04640 0.30840 0.00100
H 	H 	0.44520 0.60190 0.75530 0.00700
H 	H 	0.68210 0.65270 0.66810 0.00400
H 	H 	0.43200 0.49110 0.59870 0.00300
H 	H 	0.53040 0.69160 0.73800 -0.00000
H 	H 	0.44520 0.24470 0.84660 0.00700
H 	H 	0.68210 0.33190 0.98460 0.00400
H 	H 	0.43200 0.40130 0.89240 0.00300
H 	H 	0.53040 0.26200 0.95360 -0.00200
H 	H 	0.94520 0.84660 0.60190 0.00700
H 	H 	0.18210 0.98460 0.65270 0.00500
H 	H 	0.93200 0.89240 0.49110 0.00400
H 	H 	0.03040 0.95360 0.69160 -0.00400
H 	H 	0.94520 0.39810 0.24470 0.00600
H 	H 	0.18210 0.34730 0.33190 0.00400
H 	H 	0.93200 0.50890 0.40130 0.00300
H 	H 	0.03040 0.30840 0.26200 -0.00200
H 	H 	0.94520 0.75530 0.15340 0.00600
H 	H 	0.18210 0.66810 0.01540 0.00400
H 	H 	0.93200 0.59870 0.10760 0.00300
H 	H 	0.03040 0.73800 0.04640 -0.00100
H 	H 	0.62890 0.22340 0.44680 -0.05900
H 	H 	0.62890 0.22340 0.77660 -0.05900
H 	H 	0.62890 0.55320 0.77660 -0.05900
H 	H 	0.12890 0.77660 0.55320 -0.05900
H 	H 	0.12890 0.77660 0.22340 -0.05900
H 	H 	0.12890 0.44680 0.22340 -0.06000
H 	H 	0.37110 0.77660 0.55320 -0.05900
H 	H 	0.37110 0.44680 0.22340 -0.05900
H 	H 	0.37110 0.77660 0.22340 -0.05900
H 	H 	0.87110 0.22340 0.44680 -0.05900
H 	H 	0.87110 0.55320 0.77660 -0.05900
H 	H 	0.87110 0.22340 0.77660 -0.05900
H 	H 	0.62730 0.45385 0.54615 -0.06100
H 	H 	0.62730 0.09230 0.54615 -0.06100
H 	H 	0.62730 0.45385 0.90770 -0.06100
H 	H 	0.12730 0.54615 0.45385 -0.06100
H 	H 	0.12730 0.90770 0.45385 -0.06100
H 	H 	0.12730 0.54615 0.09230 -0.06100
H 	H 	0.37270 0.90770 0.45385 -0.06100
H 	H 	0.37270 0.54615 0.45385 -0.06100
H 	H 	0.37270 0.54615 0.09230 -0.06100
H 	H 	0.87270 0.09230 0.54615 -0.06100
H 	H 	0.87270 0.45385 0.54615 -0.06100
H 	H 	0.87270 0.45385 0.90770 -0.06100
H 	H 	0.50000 0.42150 0.42150 -0.06000
H 	H 	0.50000 1.00000 0.57850 -0.05200
H 	H 	0.50000 0.57850 -0.00000 -0.06000
H 	H 	-0.00000 0.57850 0.57850 -0.06000
H 	H 	1.00000 0.00000 0.42150 -0.05900
H 	H 	-0.00000 0.42150 -0.00000 -0.05300
H 	H 	0.50000 0.57850 0.57850 -0.06000
H 	H 	0.50000 0.00000 0.42150 -0.05900
H 	H 	0.50000 0.42150 -0.00000 -0.06000
H 	H 	-0.00000 0.42150 0.42150 -0.06000
H 	H 	-0.00000 1.00000 0.57850 -0.04600
H 	H 	-0.00000 0.57850 -0.00000 -0.05300
C 	C 	0.48140 0.23250 0.41420 -0.02200
C 	C 	0.71200 0.33160 0.37520 -0.01200
C 	C 	0.47360 0.41950 0.53070 -0.01300
C 	C 	0.51700 0.30039 0.32612 -0.00400
C 	C 	0.48140 0.18170 0.76750 -0.02100
C 	C 	0.71200 0.04360 0.66840 -0.01200
C 	C 	0.47360 0.11120 0.58050 -0.01400
C 	C 	0.51700 0.02573 0.69961 -0.01200
C 	C 	0.48140 0.58580 0.81830 -0.02100
C 	C 	0.71200 0.62480 0.95640 -0.01200
C 	C 	0.47360 0.46930 0.88880 -0.01300
C 	C 	0.51700 0.67388 0.97427 0.00000
C 	C 	0.98140 0.76750 0.58580 -0.02400
C 	C 	0.21200 0.66840 0.62480 -0.01200
C 	C 	0.97360 0.58050 0.46930 -0.01600
C 	C 	0.01700 0.69961 0.67388 0.00300
C 	C 	0.98140 0.81830 0.23250 -0.02400
C 	C 	0.21200 0.95640 0.33160 -0.01100
C 	C 	0.97360 0.88880 0.41950 -0.01500
C 	C 	0.01700 0.97427 0.30039 0.01100
C 	C 	0.98140 0.41420 0.18170 -0.02500
C 	C 	0.21200 0.37520 0.04360 -0.01200
C 	C 	0.97360 0.53070 0.11120 -0.01600
C 	C 	0.01700 0.32612 0.02573 -0.00000
C 	C 	0.51860 0.81830 0.58580 -0.02100
C 	C 	0.28800 0.95640 0.62480 -0.01100
C 	C 	0.52640 0.88880 0.46930 -0.01300
C 	C 	0.48300 0.97427 0.67388 0.00500
C 	C 	0.51860 0.41420 0.23250 -0.02200
C 	C 	0.28800 0.37520 0.33160 -0.01200
C 	C 	0.52640 0.53070 0.41950 -0.01300
C 	C 	0.48300 0.32612 0.30039 -0.00400
C 	C 	0.51860 0.76750 0.18170 -0.02100
C 	C 	0.28800 0.66840 0.04360 -0.01200
C 	C 	0.52640 0.58050 0.11120 -0.01300
C 	C 	0.48300 0.69961 0.02573 -0.00800
C 	C 	0.01860 0.18170 0.41420 -0.01900
C 	C 	0.78800 0.04360 0.37520 -0.01200
C 	C 	0.02640 0.11120 0.53070 -0.01000
C 	C 	0.98300 0.02573 0.32612 -0.01900
C 	C 	0.01860 0.58580 0.76750 -0.01900
C 	C 	0.78800 0.62480 0.66840 -0.01200
C 	C 	0.02640 0.46930 0.58050 -0.01100
C 	C 	0.98300 0.67388 0.69961 -0.01100
C 	C 	0.01860 0.23250 0.81830 -0.01900
C 	C 	0.78800 0.33160 0.95640 -0.01200
C 	C 	0.02640 0.41950 0.88880 -0.01000
C 	C 	0.98300 0.30039 0.97427 -0.00700
C 	C 	0.51860 0.76750 0.58580 -0.02100
C 	C 	0.28800 0.66840 0.62480 -0.01200
C 	C 	0.52640 0.58050 0.46930 -0.01300
C 	C 	0.48300 0.69961 0.67388 -0.00400
C 	C 	0.51860 0.81830 0.23250 -0.02200
C 	C 	0.28800 0.95640 0.33160 -0.01100
C 	C 	0.52640 0.88880 0.41950 -0.01300
C 	C 	0.48300 0.97427 0.30039 0.00400
C 	C 	0.51860 0.41420 0.18170 -0.02200
C 	C 	0.28800 0.37520 0.04360 -0.01200
C 	C 	0.52640 0.53070 0.11120 -0.01300
C 	C 	0.48300 0.32612 0.02573 -0.00800
C 	C 	0.01860 0.23250 0.41420 -0.01900
C 	C 	0.78800 0.33160 0.37520 -0.01200
C 	C 	0.02640 0.41950 0.53070 -0.01000
C 	C 	0.98300 0.30039 0.32612 -0.01100
C 	C 	0.01860 0.18170 0.76750 -0.01900
C 	C 	0.78800 0.04360 0.66840 -0.01200
C 	C 	0.02640 0.11120 0.58050 -0.01100
C 	C 	0.98300 0.02573 0.69961 -0.01900
C 	C 	0.01860 0.58580 0.81830 -0.01900
C 	C 	0.78800 0.62480 0.95640 -0.01200
C 	C 	0.02640 0.46930 0.88880 -0.01000
C 	C 	0.98300 0.67388 0.97427 -0.00700
C 	C 	0.48140 0.18170 0.41420 -0.02200
C 	C 	0.71200 0.04360 0.37520 -0.01200
C 	C 	0.47360 0.11120 0.53070 -0.01300
C 	C 	0.51700 0.02573 0.32612 -0.01200
C 	C 	0.48140 0.58580 0.76750 -0.02100
C 	C 	0.71200 0.62480 0.66840 -0.01200
C 	C 	0.47360 0.46930 0.58050 -0.01300
C 	C 	0.51700 0.67388 0.69961 -0.00400
C 	C 	0.48140 0.23250 0.81830 -0.02200
C 	C 	0.71200 0.33160 0.95640 -0.01200
C 	C 	0.47360 0.41950 0.88880 -0.01300
C 	C 	0.51700 0.30039 0.97427 -0.00000
C 	C 	0.98140 0.81830 0.58580 -0.02400
C 	C 	0.21200 0.95640 0.62480 -0.01100
C 	C 	0.97360 0.88880 0.46930 -0.01600
C 	C 	0.01700 0.97427 0.67388 0.01200
C 	C 	0.98140 0.41420 0.23250 -0.02500
C 	C 	0.21200 0.37520 0.33160 -0.01200
C 	C 	0.97360 0.53070 0.41950 -0.01600
C 	C 	0.01700 0.32612 0.30039 0.00300
C 	C 	0.98140 0.76750 0.18170 -0.02400
C 	C 	0.21200 0.66840 0.04360 -0.01200
C 	C 	0.97360 0.58050 0.11120 -0.01600
C 	C 	0.01700 0.69961 0.02573 -0.00000
C 	C 	0.57740 0.22206 0.44412 0.18600
C 	C 	0.57740 0.22206 0.77794 0.18600
C 	C 	0.57740 0.55588 0.77794 0.18600
C 	C 	0.07740 0.77794 0.55588 0.18700
C 	C 	0.07740 0.77794 0.22206 0.18700
C 	C 	0.07740 0.44412 0.22206 0.18700
C 	C 	0.42260 0.77794 0.55588 0.18600
C 	C 	0.42260 0.44412 0.22206 0.18600
C 	C 	0.42260 0.77794 0.22206 0.18600
C 	C 	0.92260 0.22206 0.44412 0.18500
C 	C 	0.92260 0.55588 0.77794 0.18500
C 	C 	0.92260 0.22206 0.77794 0.18500
C 	C 	0.75000 0.33153 0.44716 0.14800
C 	C 	0.75000 0.11563 0.66847 0.14800
C 	C 	0.75000 0.55284 0.88437 0.14800
C 	C 	0.25000 0.66847 0.55284 0.14800
C 	C 	0.25000 0.88437 0.33153 0.14800
C 	C 	0.25000 0.44716 0.11563 0.14800
C 	C 	0.25000 0.88437 0.55284 0.14800
C 	C 	0.25000 0.44716 0.33153 0.14800
C 	C 	0.25000 0.66847 0.11563 0.14800
C 	C 	0.75000 0.11563 0.44716 0.14800
C 	C 	0.75000 0.55284 0.66847 0.14800
C 	C 	0.75000 0.33153 0.88437 0.14800
C 	C 	0.57950 0.44640 0.55360 0.15400
C 	C 	0.57950 0.10720 0.55360 0.15400
C 	C 	0.57950 0.44640 0.89280 0.15400
C 	C 	0.07950 0.55360 0.44640 0.15500
C 	C 	0.07950 0.89280 0.44640 0.15500
C 	C 	0.07950 0.55360 0.10720 0.15500
C 	C 	0.42050 0.89280 0.44640 0.15400
C 	C 	0.42050 0.55360 0.44640 0.15400
C 	C 	0.42050 0.55360 0.10720 0.15400
C 	C 	0.92050 0.10720 0.55360 0.15300
C 	C 	0.92050 0.44640 0.55360 0.15300
C 	C 	0.92050 0.44640 0.89280 0.15300
C 	C 	0.50000 0.38708 0.38708 0.09700
C 	C 	0.50000 0.00000 0.61292 0.08400
C 	C 	0.50000 0.61292 -0.00000 0.09400
C 	C 	-0.00000 0.61292 0.61292 0.10100
C 	C 	1.00000 0.00000 0.38708 0.08800
C 	C 	1.00000 0.38708 -0.00000 0.08300
C 	C 	0.50000 0.61292 0.61292 0.09700
C 	C 	0.50000 0.00000 0.38708 0.09200
C 	C 	0.50000 0.38708 -0.00000 0.09400
C 	C 	-0.00000 0.38708 0.38708 0.10100
C 	C 	1.00000 0.00000 0.61292 0.07300
C 	C 	1.00000 0.61292 -0.00000 0.08300
N 	N 	0.54544 0.26262 0.44250 -0.30300
N 	N 	0.68760 0.33109 0.42210 -0.28400
N 	N 	0.54620 0.39980 0.51741 -0.28800
N 	N 	0.52836 0.33960 0.38191 -0.28900
N 	N 	0.54544 0.17988 0.73738 -0.30300
N 	N 	0.68760 0.09101 0.66891 -0.28400
N 	N 	0.54620 0.11761 0.60020 -0.28800
N 	N 	0.52836 0.04231 0.66040 -0.28600
N 	N 	0.54544 0.55750 0.82012 -0.30300
N 	N 	0.68760 0.57790 0.90899 -0.28300
N 	N 	0.54620 0.48259 0.88239 -0.28800
N 	N 	0.52836 0.61809 0.95769 -0.28800
N 	N 	0.04544 0.73738 0.55750 -0.30100
N 	N 	0.18760 0.66891 0.57790 -0.28300
N 	N 	0.04620 0.60020 0.48259 -0.28600
N 	N 	0.02836 0.66040 0.61809 -0.29000
N 	N 	0.04544 0.82012 0.26262 -0.30100
N 	N 	0.18760 0.90899 0.33109 -0.28300
N 	N 	0.04620 0.88239 0.39980 -0.28600
N 	N 	0.02836 0.95769 0.33960 -0.28600
N 	N 	0.04544 0.44250 0.17988 -0.30100
N 	N 	0.18760 0.42210 0.09101 -0.28400
N 	N 	0.04620 0.51741 0.11761 -0.28600
N 	N 	0.02836 0.38191 0.04231 -0.28500
N 	N 	0.45456 0.82012 0.55750 -0.30300
N 	N 	0.31240 0.90899 0.57790 -0.28300
N 	N 	0.45380 0.88239 0.48259 -0.28800
N 	N 	0.47164 0.95769 0.61809 -0.28600
N 	N 	0.45456 0.44250 0.26262 -0.30300
N 	N 	0.31240 0.42210 0.33109 -0.28400
N 	N 	0.45380 0.51741 0.39980 -0.28800
N 	N 	0.47164 0.38191 0.33960 -0.28900
N 	N 	0.45456 0.73738 0.17988 -0.30300
N 	N 	0.31240 0.66891 0.09101 -0.28400
N 	N 	0.45380 0.60020 0.11761 -0.28800
N 	N 	0.47164 0.66040 0.04231 -0.28800
N 	N 	0.95456 0.17988 0.44250 -0.30500
N 	N 	0.81240 0.09101 0.42210 -0.28400
N 	N 	0.95380 0.11761 0.51741 -0.29000
N 	N 	0.97164 0.04231 0.38191 -0.28600
N 	N 	0.95456 0.55750 0.73738 -0.30500
N 	N 	0.81240 0.57790 0.66891 -0.28400
N 	N 	0.95380 0.48259 0.60020 -0.29000
N 	N 	0.97164 0.61809 0.66040 -0.29000
N 	N 	0.95456 0.26262 0.82012 -0.30500
N 	N 	0.81240 0.33109 0.90899 -0.28400
N 	N 	0.95380 0.39980 0.88239 -0.28900
N 	N 	0.97164 0.33960 0.95769 -0.28600
N 	N 	0.45456 0.73738 0.55750 -0.30300
N 	N 	0.31240 0.66891 0.57790 -0.28400
N 	N 	0.45380 0.60020 0.48259 -0.28800
N 	N 	0.47164 0.66040 0.61809 -0.28900
N 	N 	0.45456 0.82012 0.26262 -0.30300
N 	N 	0.31240 0.90899 0.33109 -0.28300
N 	N 	0.45380 0.88239 0.39980 -0.28700
N 	N 	0.47164 0.95769 0.33960 -0.28700
N 	N 	0.45456 0.44250 0.17988 -0.30300
N 	N 	0.31240 0.42210 0.09101 -0.28400
N 	N 	0.45380 0.51741 0.11761 -0.28800
N 	N 	0.47164 0.38191 0.04231 -0.28800
N 	N 	0.95456 0.26262 0.44250 -0.30500
N 	N 	0.81240 0.33109 0.42210 -0.28400
N 	N 	0.95380 0.39980 0.51741 -0.29000
N 	N 	0.97164 0.33960 0.38191 -0.29000
N 	N 	0.95456 0.17988 0.73738 -0.30500
N 	N 	0.81240 0.09101 0.66891 -0.28400
N 	N 	0.95380 0.11761 0.60020 -0.29000
N 	N 	0.97164 0.04231 0.66040 -0.28400
N 	N 	0.95456 0.55750 0.82012 -0.30500
N 	N 	0.81240 0.57790 0.90899 -0.28400
N 	N 	0.95380 0.48259 0.88239 -0.28900
N 	N 	0.97164 0.61809 0.95769 -0.28600
N 	N 	0.54544 0.17988 0.44250 -0.30300
N 	N 	0.68760 0.09101 0.42210 -0.28400
N 	N 	0.54620 0.11761 0.51741 -0.28800
N 	N 	0.52836 0.04231 0.38191 -0.28700
N 	N 	0.54544 0.55750 0.73738 -0.30300
N 	N 	0.68760 0.57790 0.66891 -0.28400
N 	N 	0.54620 0.48259 0.60020 -0.28800
N 	N 	0.52836 0.61809 0.66040 -0.28900
N 	N 	0.54544 0.26262 0.82012 -0.30300
N 	N 	0.68760 0.33109 0.90899 -0.28400
N 	N 	0.54620 0.39980 0.88239 -0.28800
N 	N 	0.52836 0.33960 0.95769 -0.28800
N 	N 	0.04544 0.82012 0.55750 -0.30100
N 	N 	0.18760 0.90899 0.57790 -0.28300
N 	N 	0.04620 0.88239 0.48259 -0.28600
N 	N 	0.02836 0.95769 0.61809 -0.28400
N 	N 	0.04544 0.44250 0.26262 -0.30100
N 	N 	0.18760 0.42210 0.33109 -0.28400
N 	N 	0.04620 0.51741 0.39980 -0.28600
N 	N 	0.02836 0.38191 0.33960 -0.29000
N 	N 	0.04544 0.73738 0.17988 -0.30100
N 	N 	0.18760 0.66891 0.09101 -0.28300
N 	N 	0.04620 0.60020 0.11761 -0.28600
N 	N 	0.02836 0.66040 0.04231 -0.28500
N 	N 	0.75000 0.33199 0.50153 -0.02500
N 	N 	0.75000 0.16954 0.66801 -0.02500
N 	N 	0.75000 0.49847 0.83046 -0.02500
N 	N 	0.25000 0.66801 0.49847 -0.02500
N 	N 	0.25000 0.83046 0.33199 -0.02500
N 	N 	0.25000 0.50153 0.16954 -0.02500
N 	N 	0.25000 0.83046 0.49847 -0.02500
N 	N 	0.25000 0.50153 0.33199 -0.02500
N 	N 	0.25000 0.66801 0.16954 -0.02500
N 	N 	0.75000 0.16954 0.50153 -0.02500
N 	N 	0.75000 0.49847 0.66801 -0.02500
N 	N 	0.75000 0.33199 0.83046 -0.02500
O 	O 	0.69035 0.33212 0.52274 -0.16700
O 	O 	0.69035 0.19062 0.66788 -0.16700
O 	O 	0.69035 0.47726 0.80938 -0.16700
O 	O 	0.19035 0.66788 0.47726 -0.16700
O 	O 	0.19035 0.80938 0.33212 -0.16600
O 	O 	0.19035 0.52274 0.19062 -0.16700
O 	O 	0.30965 0.80938 0.47726 -0.16700
O 	O 	0.30965 0.52274 0.33212 -0.16700
O 	O 	0.30965 0.66788 0.19062 -0.16700
O 	O 	0.80965 0.19062 0.52274 -0.16700
O 	O 	0.80965 0.47726 0.66788 -0.16700
O 	O 	0.80965 0.33212 0.80938 -0.16700
O 	O 	0.30965 0.66788 0.47726 -0.16700
O 	O 	0.30965 0.80938 0.33212 -0.16700
O 	O 	0.30965 0.52274 0.19062 -0.16700
O 	O 	0.80965 0.33212 0.52274 -0.16700
O 	O 	0.80965 0.19062 0.66788 -0.16700
O 	O 	0.80965 0.47726 0.80938 -0.16700
O 	O 	0.69035 0.19062 0.52274 -0.16700
O 	O 	0.69035 0.47726 0.66788 -0.16700
O 	O 	0.69035 0.33212 0.80938 -0.16700
O 	O 	0.19035 0.80938 0.47726 -0.16600
O 	O 	0.19035 0.52274 0.33212 -0.16700
O 	O 	0.19035 0.66788 0.19062 -0.16700
