data_crystal

_cell_length_a 11.01060
_cell_length_b 11.01060
_cell_length_c 24.06200
_cell_angle_alpha 92.36460
_cell_angle_beta  92.36460
_cell_angle_gamma 101.20400

_symmetry_space_group_name_	'P 1'
_symmetry_space_group_name_H-M	'P 1'

loop_
_symmetry_equiv_pos_as_xyz
  x,y,z

loop_
_atom_site_label
_atom_site_type_symbol
_atom_site_fract_x
_atom_site_fract_y
_atom_site_fract_z
_atom_site_charge
Cd	Cd	0.94429 0.05571 0.75000 1.21800
Cd	Cd	0.50000 0.50000 -0.00000 1.20500
Cd	Cd	0.50000 0.50000 0.50000 1.21200
Cd	Cd	0.05571 0.94429 0.25000 1.21600
H 	H 	0.30970 0.70150 0.55270 0.31100
H 	H 	0.17160 0.03620 0.43710 0.05300
H 	H 	0.98360 0.90940 0.40880 0.05600
H 	H 	0.72530 0.84190 0.87050 0.05000
H 	H 	0.11220 0.70540 0.32240 0.01200
H 	H 	0.78810 0.42590 0.95840 0.07400
H 	H 	0.79280 0.35040 0.40640 0.31300
H 	H 	0.70310 0.62790 0.28290 0.04400
H 	H 	0.27330 0.36970 0.81320 0.05900
H 	H 	0.69260 0.29260 0.88260 0.05100
H 	H 	0.30740 0.70740 0.11740 0.05100
H 	H 	0.56210 0.63270 0.27440 0.04100
H 	H 	0.63030 0.72670 0.68680 0.05900
H 	H 	0.03620 0.17160 0.93710 0.02700
H 	H 	0.05700 0.53920 0.85350 0.03800
H 	H 	0.01640 0.09060 0.59120 0.06200
H 	H 	0.94300 0.46080 0.14650 0.02300
H 	H 	0.32220 0.03520 0.33360 -0.00600
H 	H 	0.47250 0.63850 0.17750 0.06900
H 	H 	0.47220 0.16500 0.85720 0.05400
H 	H 	0.03520 0.32220 0.83360 -0.01200
H 	H 	0.79210 0.10310 0.14820 0.31500
H 	H 	0.36150 0.52750 0.32250 0.06800
H 	H 	0.66080 0.28340 0.38280 0.31900
H 	H 	0.59430 0.64030 0.87820 0.01100
H 	H 	0.64960 0.20720 0.09360 0.30700
H 	H 	0.28340 0.66080 0.88280 0.32300
H 	H 	0.42590 0.78810 0.45840 0.04900
H 	H 	0.29690 0.37210 0.71710 0.04300
H 	H 	0.70530 0.00390 0.04280 0.05500
H 	H 	0.82920 0.66880 0.65000 0.06300
H 	H 	0.61970 0.94430 0.22580 0.02900
H 	H 	0.78660 0.66360 0.52890 -0.01000
H 	H 	0.21340 0.33640 0.47110 -0.01000
H 	H 	0.93560 0.13740 0.14160 0.31300
H 	H 	0.67780 0.96480 0.66640 -0.01800
H 	H 	0.38050 0.48050 0.80100 0.03900
H 	H 	0.50820 0.83860 0.23830 0.03700
H 	H 	0.82840 0.96380 0.56290 0.04000
H 	H 	0.84190 0.72530 0.37050 0.05200
H 	H 	0.48050 0.38050 0.30100 0.03800
H 	H 	0.86860 0.22860 0.17470 0.30800
H 	H 	0.27470 0.15810 0.12950 0.05400
H 	H 	0.16500 0.47220 0.35720 0.05100
H 	H 	0.36970 0.27330 0.31320 0.05900
H 	H 	0.52750 0.36150 0.82250 0.06700
H 	H 	0.17080 0.33120 0.35000 0.06300
H 	H 	0.33640 0.21340 0.97110 0.02200
H 	H 	0.10310 0.79210 0.64820 0.31500
H 	H 	0.65880 0.82680 0.30230 0.07000
H 	H 	0.05570 0.38030 0.27420 0.03000
H 	H 	0.38030 0.05570 0.77420 0.03000
H 	H 	0.66360 0.78660 0.02890 -0.04200
H 	H 	0.69030 0.29850 0.44730 0.31100
H 	H 	0.60730 0.84890 0.51290 0.04700
H 	H 	0.94430 0.61970 0.72580 0.02900
H 	H 	0.21190 0.57410 0.04160 0.02300
H 	H 	0.82680 0.65880 0.80230 0.07100
H 	H 	0.61950 0.51950 0.19900 0.03800
H 	H 	0.09060 0.01640 0.09120 0.04800
H 	H 	0.62790 0.70310 0.78290 0.04300
H 	H 	0.15110 0.39270 0.98710 0.09800
H 	H 	0.13140 0.77140 0.82530 0.31100
H 	H 	0.72670 0.63030 0.18680 0.05800
H 	H 	0.84890 0.60730 0.01290 -0.00100
H 	H 	0.83500 0.52780 0.64280 0.05100
H 	H 	0.06440 0.86260 0.85840 0.31500
H 	H 	0.43790 0.36730 0.72560 0.04000
H 	H 	0.63850 0.47250 0.67750 0.06800
H 	H 	0.89690 0.20790 0.35180 0.31700
H 	H 	0.13740 0.93560 0.64160 0.31100
H 	H 	0.17320 0.34120 0.19770 0.07100
H 	H 	0.00390 0.70530 0.54280 0.03800
H 	H 	0.66880 0.82920 0.15000 0.06100
H 	H 	0.53920 0.05700 0.35350 0.03000
H 	H 	0.36730 0.43790 0.22560 0.04100
H 	H 	0.63270 0.56210 0.77440 0.04100
H 	H 	0.70540 0.11220 0.82240 0.01400
H 	H 	0.29850 0.69030 0.94730 0.32100
H 	H 	0.20790 0.89690 0.85180 0.31800
H 	H 	0.29470 0.99610 0.95720 0.02100
H 	H 	0.49180 0.16140 0.76170 0.03700
H 	H 	0.77140 0.13140 0.32530 0.31100
H 	H 	0.35040 0.79280 0.90640 0.31900
H 	H 	0.40570 0.35970 0.12180 0.00900
H 	H 	0.33120 0.17080 0.85000 0.06500
H 	H 	0.39270 0.15110 0.48710 0.04900
H 	H 	0.37210 0.29690 0.21710 0.04400
H 	H 	0.88780 0.29460 0.67760 0.01200
H 	H 	0.96380 0.82840 0.06290 0.07000
H 	H 	0.86260 0.06440 0.35840 0.31500
H 	H 	0.90940 0.98360 0.90880 0.06800
H 	H 	0.52780 0.83500 0.14280 0.04900
H 	H 	0.51950 0.61950 0.69900 0.03800
H 	H 	0.16140 0.49180 0.26170 0.03700
H 	H 	0.83860 0.50820 0.73830 0.03600
H 	H 	0.70150 0.30970 0.05270 0.30200
H 	H 	0.99610 0.29470 0.45720 0.03900
H 	H 	0.33920 0.71660 0.61720 0.31900
H 	H 	0.46080 0.94300 0.64650 0.03200
H 	H 	0.29460 0.88780 0.17760 0.01100
H 	H 	0.22860 0.86860 0.67470 0.30800
H 	H 	0.71660 0.33920 0.11720 0.31500
H 	H 	0.64030 0.59430 0.37820 0.00900
H 	H 	0.29260 0.69260 0.38260 0.05100
H 	H 	0.15810 0.27470 0.62950 0.05200
H 	H 	0.35970 0.40570 0.62180 0.01000
H 	H 	0.20720 0.64960 0.59360 0.31300
H 	H 	0.34120 0.17320 0.69770 0.07200
H 	H 	0.70740 0.30740 0.61740 0.05100
H 	H 	0.96480 0.67780 0.16640 -0.01100
H 	H 	0.57410 0.21190 0.54160 0.04900
C 	C 	0.62510 0.69570 0.90801 0.01100
C 	C 	0.65991 0.05429 0.41881 -0.14600
C 	C 	0.64360 0.60900 0.20013 -0.07500
C 	C 	0.84820 0.81380 0.75686 0.34800
C 	C 	0.96270 0.22810 0.47805 -0.05400
C 	C 	0.33960 0.35660 0.23994 -0.05800
C 	C 	0.44741 0.98319 0.61426 -0.03800
C 	C 	0.58840 0.80280 0.16528 -0.08800
C 	C 	0.00888 0.32032 0.03339 0.09600
C 	C 	0.33750 0.22510 0.00968 0.04200
C 	C 	0.39041 0.45501 0.39694 0.31000
C 	C 	0.08204 0.53456 0.09829 0.04100
C 	C 	0.39100 0.35640 0.29987 -0.07600
C 	C 	0.32032 0.00888 0.53339 0.05500
C 	C 	0.77490 0.66250 0.49032 0.09100
C 	C 	0.30270 0.19330 0.09680 -0.02700
C 	C 	0.35640 0.39100 0.79987 -0.07800
C 	C 	0.59170 0.85510 0.22512 -0.04100
C 	C 	0.27640 0.71520 0.58815 -0.98100
C 	C 	0.82220 0.22920 0.66784 0.00900
C 	C 	0.72290 0.23730 0.63445 -0.01500
C 	C 	0.66150 0.55490 0.66265 -0.11200
C 	C 	0.97432 0.10508 0.55858 -0.09900
C 	C 	0.13802 0.97018 0.45819 -0.05200
C 	C 	0.64340 0.66040 0.26006 -0.05800
C 	C 	0.45501 0.39041 0.89694 0.30800
C 	C 	0.67550 0.80090 0.26434 -0.14200
C 	C 	0.55259 0.01681 0.38574 -0.02700
C 	C 	0.13910 0.83030 0.85640 -0.98000
C 	C 	0.80670 0.69730 0.40320 -0.02400
C 	C 	0.19910 0.32450 0.23566 -0.14200
C 	C 	0.66040 0.64340 0.76006 -0.05700
C 	C 	0.22810 0.96270 0.97805 0.00700
C 	C 	0.83030 0.13910 0.35640 -0.97400
C 	C 	0.01681 0.55259 0.88574 -0.05500
C 	C 	0.23730 0.72290 0.13445 -0.01900
C 	C 	0.41160 0.19720 0.83472 -0.09400
C 	C 	0.80090 0.67550 0.76434 -0.14300
C 	C 	0.40683 0.10877 0.51864 -0.06400
C 	C 	0.80280 0.58840 0.66528 -0.09100
C 	C 	0.22510 0.33750 0.50968 0.09100
C 	C 	0.97018 0.13802 0.95819 0.02900
C 	C 	0.99112 0.67968 0.96661 -0.00500
C 	C 	0.89123 0.59317 0.98136 0.03300
C 	C 	0.89492 0.02568 0.94142 -0.12800
C 	C 	0.83873 0.23387 0.08958 0.46900
C 	C 	0.16127 0.76613 0.91042 0.48800
C 	C 	0.14490 0.40830 0.27488 -0.04000
C 	C 	0.04857 0.70783 0.16195 0.08800
C 	C 	0.98319 0.44741 0.11426 -0.00900
C 	C 	0.51458 0.14502 0.55121 -0.07200
C 	C 	0.30430 0.37490 0.59199 0.01200
C 	C 	0.05429 0.65991 0.91881 -0.12700
C 	C 	0.19720 0.41160 0.33472 -0.09100
C 	C 	0.85510 0.59170 0.72512 -0.03900
C 	C 	0.71520 0.27640 0.08815 -0.96700
C 	C 	0.10877 0.40683 0.01864 -0.15600
C 	C 	0.67968 0.99112 0.46661 0.04000
C 	C 	0.20010 0.94690 0.50643 0.02300
C 	C 	0.81380 0.84820 0.25686 0.34700
C 	C 	0.48542 0.85498 0.44879 -0.07200
C 	C 	0.02568 0.89492 0.44142 -0.08800
C 	C 	0.23387 0.83873 0.58958 0.47800
C 	C 	0.19330 0.30270 0.59680 -0.02400
C 	C 	0.27710 0.76270 0.36555 -0.01600
C 	C 	0.95143 0.29217 0.83805 0.09100
C 	C 	0.76270 0.27710 0.86555 -0.01300
C 	C 	0.20223 0.02377 0.02641 0.04100
C 	C 	0.76613 0.16127 0.41042 0.47800
C 	C 	0.37490 0.30430 0.09199 0.01400
C 	C 	0.97623 0.79777 0.47359 0.08500
C 	C 	0.53456 0.08204 0.59829 0.07500
C 	C 	0.14502 0.51458 0.05121 -0.01800
C 	C 	0.85058 0.15182 0.46173 -0.13200
C 	C 	0.79990 0.05310 0.49357 0.02700
C 	C 	0.60959 0.54499 0.60306 0.31000
C 	C 	0.77190 0.03730 0.02195 -0.10800
C 	C 	0.15180 0.18620 0.24314 0.34700
C 	C 	0.22920 0.82220 0.16784 0.01000
C 	C 	0.72360 0.28480 0.41185 -0.98100
C 	C 	0.91796 0.46544 0.90171 0.09700
C 	C 	0.85498 0.48542 0.94879 -0.12500
C 	C 	0.02982 0.86198 0.04181 -0.12000
C 	C 	0.10508 0.97432 0.05858 -0.05600
C 	C 	0.59317 0.89123 0.48136 -0.06000
C 	C 	0.94571 0.34009 0.08119 -0.17200
C 	C 	0.40830 0.14490 0.77488 -0.03800
C 	C 	0.84818 0.14942 0.03827 -0.09800
C 	C 	0.17780 0.77080 0.33216 0.01000
C 	C 	0.28480 0.72360 0.91185 -0.99700
C 	C 	0.94690 0.20010 0.00643 -0.04200
C 	C 	0.33850 0.44510 0.33735 -0.11200
C 	C 	0.55490 0.66150 0.16265 -0.11400
C 	C 	0.60900 0.64360 0.70013 -0.07600
C 	C 	0.86198 0.02982 0.54181 -0.03200
C 	C 	0.69730 0.80670 0.90320 -0.02100
C 	C 	0.69570 0.62510 0.40801 0.01200
C 	C 	0.14942 0.84818 0.53827 -0.13400
C 	C 	0.66250 0.77490 0.99032 0.14000
C 	C 	0.44510 0.33850 0.83735 -0.11000
C 	C 	0.05310 0.79990 0.99357 0.09800
C 	C 	0.02377 0.20223 0.52641 0.09100
C 	C 	0.86090 0.16970 0.14360 -0.96600
C 	C 	0.70783 0.04857 0.66195 0.09900
C 	C 	0.34009 0.94571 0.58119 -0.15400
C 	C 	0.18620 0.15180 0.74314 0.34800
C 	C 	0.16970 0.86090 0.64360 -0.97000
C 	C 	0.46544 0.91796 0.40171 0.06400
C 	C 	0.77080 0.17780 0.83216 0.00900
C 	C 	0.54499 0.60959 0.10306 0.31200
C 	C 	0.29217 0.95143 0.33805 0.08100
C 	C 	0.03730 0.77190 0.52195 -0.05000
C 	C 	0.79777 0.97623 0.97359 0.13300
C 	C 	0.32450 0.19910 0.73566 -0.14300
C 	C 	0.15182 0.85058 0.96173 -0.17000
C 	C 	0.35660 0.33960 0.73994 -0.05600
N 	N 	0.81275 0.11123 0.68539 -0.23900
N 	N 	0.67416 0.60242 0.46237 -0.23800
N 	N 	0.87952 0.35068 0.86935 -0.13500
N 	N 	0.18725 0.88877 0.31461 -0.23800
N 	N 	0.32584 0.39758 0.53763 -0.23800
N 	N 	0.27812 0.14144 0.04331 -0.12100
N 	N 	0.39758 0.32584 0.03763 -0.23400
N 	N 	0.88877 0.18725 0.81461 -0.23800
N 	N 	0.12048 0.64932 0.13065 -0.12700
N 	N 	0.64932 0.12048 0.63065 -0.13300
N 	N 	0.14144 0.27812 0.54331 -0.13500
N 	N 	0.85856 0.72188 0.45669 -0.13400
N 	N 	0.60242 0.67416 0.96237 -0.24100
N 	N 	0.11123 0.81275 0.18539 -0.23900
N 	N 	0.72188 0.85856 0.95669 -0.14800
N 	N 	0.35068 0.87952 0.36935 -0.12900
O 	O 	0.80850 0.89010 0.78743 -0.41300
O 	O 	0.62060 0.45072 0.57340 -0.40800
O 	O 	0.54928 0.37940 0.92660 -0.40100
O 	O 	0.07713 0.15097 0.27764 -0.43100
O 	O 	0.89010 0.80850 0.28743 -0.41200
O 	O 	0.37940 0.54928 0.42660 -0.40800
O 	O 	0.62735 0.55835 0.08455 -0.40100
O 	O 	0.15097 0.07713 0.77764 -0.43100
O 	O 	0.84903 0.92287 0.22236 -0.43400
O 	O 	0.44165 0.37265 0.41545 -0.39800
O 	O 	0.55835 0.62735 0.58455 -0.39800
O 	O 	0.45072 0.62060 0.07340 -0.41300
O 	O 	0.10990 0.19150 0.71257 -0.41100
O 	O 	0.19150 0.10990 0.21257 -0.40900
O 	O 	0.37265 0.44165 0.91545 -0.39200
O 	O 	0.92287 0.84903 0.72236 -0.43400
