data_crystal

_cell_length_a 15.91400
_cell_length_b 15.91400
_cell_length_c 35.96600
_cell_angle_alpha 90.00000
_cell_angle_beta  90.00000
_cell_angle_gamma 120.00000

_symmetry_space_group_name_	'P 1'
_symmetry_space_group_name_H-M	'P 1'

loop_
_symmetry_equiv_pos_as_xyz
  x,y,z

loop_
_atom_site_label
_atom_site_type_symbol
_atom_site_fract_x
_atom_site_fract_y
_atom_site_fract_z
_atom_site_charge
S 	S 	0.80280 0.39520 0.03920 -0.22800
N 	N 	0.96540 0.38950 0.02860 -0.10000
C 	C 	0.86910 0.33670 0.03800 0.11700
C 	C 	0.83140 0.23810 0.04520 -0.14100
C 	C 	0.88780 0.19620 0.04320 0.03100
C 	C 	0.98560 0.25120 0.03340 -0.05800
C 	C 	0.02220 0.34820 0.02620 0.00800
C 	C 	0.01090 0.49330 0.02020 -0.13600
H 	H 	0.76630 0.20010 0.05160 0.07200
H 	H 	0.86090 0.13040 0.04830 0.01800
H 	H 	0.02470 0.22310 0.03180 0.04000
H 	H 	0.08710 0.38640 0.01960 0.03300
H 	H 	0.08050 0.52410 0.02390 0.08200
H 	H 	0.98590 0.52350 0.03690 0.08800
S 	S 	0.46947 0.72853 0.37253 -0.23400
N 	N 	0.63207 0.72283 0.36193 -0.13200
C 	C 	0.53577 0.67003 0.37133 0.13200
C 	C 	0.49807 0.57143 0.37853 -0.17800
C 	C 	0.55447 0.52953 0.37653 0.08300
C 	C 	0.65227 0.58453 0.36673 -0.14600
C 	C 	0.68887 0.68153 0.35953 0.07400
C 	C 	0.67757 0.82663 0.35353 -0.06000
H 	H 	0.43297 0.53343 0.38493 0.08400
H 	H 	0.52757 0.46373 0.38163 -0.00200
H 	H 	0.69137 0.55643 0.36513 0.08000
H 	H 	0.75377 0.71973 0.35293 0.01100
H 	H 	0.74717 0.85743 0.35723 0.06200
H 	H 	0.65257 0.85683 0.37023 0.06000
S 	S 	0.13613 0.06187 0.70587 -0.24100
N 	N 	0.29873 0.05617 0.69527 -0.12400
C 	C 	0.20243 0.00337 0.70467 0.10900
C 	C 	0.16473 0.90477 0.71187 -0.14000
C 	C 	0.22113 0.86287 0.70987 0.04900
C 	C 	0.31893 0.91787 0.70007 -0.10400
C 	C 	0.35553 0.01487 0.69287 0.04000
C 	C 	0.34423 0.15997 0.68687 -0.06200
H 	H 	0.09963 0.86677 0.71827 0.07000
H 	H 	0.19423 0.79707 0.71497 0.00900
H 	H 	0.35803 0.88977 0.69847 0.06600
H 	H 	0.42043 0.05307 0.68627 0.02000
H 	H 	0.41383 0.19077 0.69057 0.06100
H 	H 	0.31923 0.19017 0.70357 0.06000
S 	S 	0.60480 0.40760 0.03920 -0.23600
N 	N 	0.61050 0.57590 0.02860 -0.13300
C 	C 	0.66330 0.53240 0.03800 0.13200
C 	C 	0.76190 0.59330 0.04520 -0.17700
C 	C 	0.80380 0.69160 0.04320 0.08400
C 	C 	0.74880 0.73440 0.03340 -0.14600
C 	C 	0.65180 0.67400 0.02620 0.07400
C 	C 	0.50670 0.51760 0.02020 -0.05700
H 	H 	0.79990 0.56620 0.05160 0.08400
H 	H 	0.86960 0.73050 0.04830 0.00000
H 	H 	0.77690 0.80160 0.03180 0.08100
H 	H 	0.61360 0.70070 0.01960 0.01100
H 	H 	0.47590 0.55640 0.02390 0.06000
H 	H 	0.47650 0.46240 0.03690 0.05800
S 	S 	0.27147 0.74093 0.37253 -0.23300
N 	N 	0.27717 0.90923 0.36193 -0.12200
C 	C 	0.32997 0.86573 0.37133 0.12100
C 	C 	0.42857 0.92663 0.37853 -0.14300
C 	C 	0.47047 0.02493 0.37653 0.04300
C 	C 	0.41547 0.06773 0.36673 -0.12000
C 	C 	0.31847 0.00733 0.35953 0.04700
C 	C 	0.17337 0.85093 0.35353 -0.05700
H 	H 	0.46657 0.89953 0.38493 0.07300
H 	H 	0.53627 0.06383 0.38163 0.00900
H 	H 	0.44357 0.13493 0.36513 0.06900
H 	H 	0.28027 0.03403 0.35293 0.01600
H 	H 	0.14257 0.88973 0.35723 0.06200
H 	H 	0.14317 0.79573 0.37023 0.05800
S 	S 	0.93813 0.07427 0.70587 -0.23900
N 	N 	0.94383 0.24257 0.69527 -0.14100
C 	C 	0.99663 0.19907 0.70467 0.15600
C 	C 	0.09523 0.25997 0.71187 -0.21700
C 	C 	0.13713 0.35827 0.70987 0.11800
C 	C 	0.08213 0.40107 0.70007 -0.18900
C 	C 	0.98513 0.34067 0.69287 0.10800
C 	C 	0.84003 0.18427 0.68687 -0.05400
H 	H 	0.13323 0.23287 0.71827 0.09600
H 	H 	0.20293 0.39717 0.71497 -0.01400
H 	H 	0.11023 0.46827 0.69847 0.09200
H 	H 	0.94693 0.36737 0.68627 0.00100
H 	H 	0.80923 0.22307 0.69057 0.05900
H 	H 	0.80983 0.12907 0.70357 0.05600
S 	S 	0.59240 0.19720 0.03920 -0.24100
N 	N 	0.42410 0.03460 0.02860 -0.16300
C 	C 	0.46760 0.13090 0.03800 0.14700
C 	C 	0.40670 0.16860 0.04520 -0.21400
C 	C 	0.30840 0.11220 0.04320 0.13500
C 	C 	0.26560 0.01440 0.03340 -0.23000
C 	C 	0.32600 0.97780 0.02620 0.13900
C 	C 	0.48240 0.98910 0.02020 0.02000
H 	H 	0.43380 0.23370 0.05160 0.09600
H 	H 	0.26950 0.13910 0.04830 -0.02300
H 	H 	0.19840 0.97530 0.03180 0.11400
H 	H 	0.29930 0.91290 0.01960 -0.01200
H 	H 	0.44360 0.91950 0.02390 0.03900
H 	H 	0.53760 0.01410 0.03690 0.03000
S 	S 	0.25907 0.53053 0.37253 -0.23900
N 	N 	0.09077 0.36793 0.36193 -0.14400
C 	C 	0.13427 0.46423 0.37133 0.14300
C 	C 	0.07337 0.50193 0.37853 -0.21400
C 	C 	0.97507 0.44553 0.37653 0.12400
C 	C 	0.93227 0.34773 0.36673 -0.17400
C 	C 	0.99267 0.31113 0.35953 0.10200
C 	C 	0.14907 0.32243 0.35353 -0.05500
H 	H 	0.10047 0.56703 0.38493 0.09500
H 	H 	0.93617 0.47243 0.38163 -0.01300
H 	H 	0.86507 0.30863 0.36513 0.08900
H 	H 	0.96597 0.24623 0.35293 0.00300
H 	H 	0.11027 0.25283 0.35723 0.05600
H 	H 	0.20427 0.34743 0.37023 0.05700
S 	S 	0.92573 0.86387 0.70587 -0.22100
N 	N 	0.75743 0.70127 0.69527 -0.13200
C 	C 	0.80093 0.79757 0.70467 0.13000
C 	C 	0.74003 0.83527 0.71187 -0.17600
C 	C 	0.64173 0.77887 0.70987 0.08300
C 	C 	0.59893 0.68107 0.70007 -0.14500
C 	C 	0.65933 0.64447 0.69287 0.07400
C 	C 	0.81573 0.65577 0.68687 -0.05700
H 	H 	0.76713 0.90037 0.71827 0.08600
H 	H 	0.60283 0.80577 0.71497 -0.00100
H 	H 	0.53173 0.64197 0.69847 0.07900
H 	H 	0.63263 0.57957 0.68627 0.01000
H 	H 	0.77693 0.58617 0.69057 0.06000
H 	H 	0.87093 0.68077 0.70357 0.06000
S 	S 	0.39520 0.80280 0.46080 -0.22900
N 	N 	0.38950 0.96540 0.47140 -0.10200
C 	C 	0.33670 0.86910 0.46200 0.11700
C 	C 	0.23810 0.83140 0.45480 -0.14300
C 	C 	0.19620 0.88780 0.45680 0.03100
C 	C 	0.25120 0.98560 0.46660 -0.06100
C 	C 	0.34820 0.02220 0.47380 0.00800
C 	C 	0.49330 0.01090 0.47980 -0.13500
H 	H 	0.20010 0.76630 0.44840 0.07200
H 	H 	0.13040 0.86090 0.45170 0.01700
H 	H 	0.22310 0.02470 0.46820 0.04100
H 	H 	0.38640 0.08710 0.48040 0.03200
H 	H 	0.52410 0.08050 0.47610 0.08200
H 	H 	0.52350 0.98590 0.46310 0.08800
S 	S 	0.06187 0.13613 0.79413 -0.24200
N 	N 	0.05617 0.29873 0.80473 -0.12400
C 	C 	0.00337 0.20243 0.79533 0.10900
C 	C 	0.90477 0.16473 0.78813 -0.14100
C 	C 	0.86287 0.22113 0.79013 0.05000
C 	C 	0.91787 0.31893 0.79993 -0.10500
C 	C 	0.01487 0.35553 0.80713 0.04100
C 	C 	0.15997 0.34423 0.81313 -0.06200
H 	H 	0.86677 0.09963 0.78173 0.07000
H 	H 	0.79707 0.19423 0.78503 0.00900
H 	H 	0.88977 0.35803 0.80153 0.06600
H 	H 	0.05307 0.42043 0.81373 0.01900
H 	H 	0.19077 0.41383 0.80943 0.06100
H 	H 	0.19017 0.31923 0.79643 0.06000
S 	S 	0.72853 0.46947 0.12747 -0.23400
N 	N 	0.72283 0.63207 0.13807 -0.13200
C 	C 	0.67003 0.53577 0.12867 0.13200
C 	C 	0.57143 0.49807 0.12147 -0.17800
C 	C 	0.52953 0.55447 0.12347 0.08300
C 	C 	0.58453 0.65227 0.13327 -0.14600
C 	C 	0.68153 0.68887 0.14047 0.07400
C 	C 	0.82663 0.67757 0.14647 -0.06000
H 	H 	0.53343 0.43297 0.11507 0.08400
H 	H 	0.46373 0.52757 0.11837 -0.00200
H 	H 	0.55643 0.69137 0.13487 0.08000
H 	H 	0.71973 0.75377 0.14707 0.01100
H 	H 	0.85743 0.74717 0.14277 0.06200
H 	H 	0.85683 0.65257 0.12977 0.06000
S 	S 	0.40760 0.60480 0.46080 -0.23600
N 	N 	0.57590 0.61050 0.47140 -0.13300
C 	C 	0.53240 0.66330 0.46200 0.13200
C 	C 	0.59330 0.76190 0.45480 -0.17700
C 	C 	0.69160 0.80380 0.45680 0.08400
C 	C 	0.73440 0.74880 0.46660 -0.14600
C 	C 	0.67400 0.65180 0.47380 0.07400
C 	C 	0.51760 0.50670 0.47980 -0.05700
H 	H 	0.56620 0.79990 0.44840 0.08400
H 	H 	0.73050 0.86960 0.45170 0.00000
H 	H 	0.80160 0.77690 0.46820 0.08100
H 	H 	0.70070 0.61360 0.48040 0.01100
H 	H 	0.55640 0.47590 0.47610 0.06000
H 	H 	0.46240 0.47650 0.46310 0.05800
S 	S 	0.07427 0.93813 0.79413 -0.23900
N 	N 	0.24257 0.94383 0.80473 -0.14100
C 	C 	0.19907 0.99663 0.79533 0.15700
C 	C 	0.25997 0.09523 0.78813 -0.21700
C 	C 	0.35827 0.13713 0.79013 0.11800
C 	C 	0.40107 0.08213 0.79993 -0.18900
C 	C 	0.34067 0.98513 0.80713 0.10800
C 	C 	0.18427 0.84003 0.81313 -0.05400
H 	H 	0.23287 0.13323 0.78173 0.09600
H 	H 	0.39717 0.20293 0.78503 -0.01400
H 	H 	0.46827 0.11023 0.80153 0.09200
H 	H 	0.36737 0.94693 0.81373 0.00100
H 	H 	0.22307 0.80923 0.80943 0.05900
H 	H 	0.12907 0.80983 0.79643 0.05600
S 	S 	0.74093 0.27147 0.12747 -0.23300
N 	N 	0.90923 0.27717 0.13807 -0.12200
C 	C 	0.86573 0.32997 0.12867 0.12100
C 	C 	0.92663 0.42857 0.12147 -0.14200
C 	C 	0.02493 0.47047 0.12347 0.04300
C 	C 	0.06773 0.41547 0.13327 -0.11900
C 	C 	0.00733 0.31847 0.14047 0.04600
C 	C 	0.85093 0.17337 0.14647 -0.05700
H 	H 	0.89953 0.46657 0.11507 0.07300
H 	H 	0.06383 0.53627 0.11837 0.00900
H 	H 	0.13493 0.44357 0.13487 0.06900
H 	H 	0.03403 0.28027 0.14707 0.01600
H 	H 	0.88973 0.14257 0.14277 0.06200
H 	H 	0.79573 0.14317 0.12977 0.05800
S 	S 	0.19720 0.59240 0.46080 -0.24100
N 	N 	0.03460 0.42410 0.47140 -0.16400
C 	C 	0.13090 0.46760 0.46200 0.14700
C 	C 	0.16860 0.40670 0.45480 -0.21400
C 	C 	0.11220 0.30840 0.45680 0.13600
C 	C 	0.01440 0.26560 0.46660 -0.23200
C 	C 	0.97780 0.32600 0.47380 0.14000
C 	C 	0.98910 0.48240 0.47980 0.02000
H 	H 	0.23370 0.43380 0.44840 0.09600
H 	H 	0.13910 0.26950 0.45170 -0.02300
H 	H 	0.97530 0.19840 0.46820 0.11500
H 	H 	0.91290 0.29930 0.48040 -0.01200
H 	H 	0.91950 0.44360 0.47610 0.03900
H 	H 	0.01410 0.53760 0.46310 0.03000
S 	S 	0.86387 0.92573 0.79413 -0.22100
N 	N 	0.70127 0.75743 0.80473 -0.13200
C 	C 	0.79757 0.80093 0.79533 0.13000
C 	C 	0.83527 0.74003 0.78813 -0.17600
C 	C 	0.77887 0.64173 0.79013 0.08300
C 	C 	0.68107 0.59893 0.79993 -0.14500
C 	C 	0.64447 0.65933 0.80713 0.07400
C 	C 	0.65577 0.81573 0.81313 -0.05700
H 	H 	0.90037 0.76713 0.78173 0.08600
H 	H 	0.80577 0.60283 0.78503 -0.00100
H 	H 	0.64197 0.53173 0.80153 0.07900
H 	H 	0.57957 0.63263 0.81373 0.01000
H 	H 	0.58617 0.77693 0.80943 0.06000
H 	H 	0.68077 0.87093 0.79643 0.06000
S 	S 	0.53053 0.25907 0.12747 -0.23900
N 	N 	0.36793 0.09077 0.13807 -0.14400
C 	C 	0.46423 0.13427 0.12867 0.14300
C 	C 	0.50193 0.07337 0.12147 -0.21300
C 	C 	0.44553 0.97507 0.12347 0.12300
C 	C 	0.34773 0.93227 0.13327 -0.17300
C 	C 	0.31113 0.99267 0.14047 0.10100
C 	C 	0.32243 0.14907 0.14647 -0.05500
H 	H 	0.56703 0.10047 0.11507 0.09500
H 	H 	0.47243 0.93617 0.11837 -0.01300
H 	H 	0.30863 0.86507 0.13487 0.08900
H 	H 	0.24623 0.96597 0.14707 0.00300
H 	H 	0.25283 0.11027 0.14277 0.05600
H 	H 	0.34743 0.20427 0.12977 0.05700
S 	S 	0.19720 0.60480 0.96080 -0.24100
N 	N 	0.03460 0.61050 0.97140 -0.16100
C 	C 	0.13090 0.66330 0.96200 0.14500
C 	C 	0.16860 0.76190 0.95480 -0.20700
C 	C 	0.11220 0.80380 0.95680 0.12700
C 	C 	0.01440 0.74880 0.96660 -0.21700
C 	C 	0.97780 0.65180 0.97380 0.13000
C 	C 	0.98910 0.50670 0.97980 0.01900
H 	H 	0.23370 0.79990 0.94840 0.09500
H 	H 	0.13910 0.86960 0.95170 -0.01700
H 	H 	0.97530 0.77690 0.96820 0.11000
H 	H 	0.91290 0.61360 0.98040 -0.00800
H 	H 	0.91950 0.47590 0.97610 0.03900
H 	H 	0.01410 0.47650 0.96310 0.03000
S 	S 	0.86387 0.93813 0.29413 -0.22700
N 	N 	0.70127 0.94383 0.30473 -0.14000
C 	C 	0.79757 0.99663 0.29533 0.15000
C 	C 	0.83527 0.09523 0.28813 -0.20900
C 	C 	0.77887 0.13713 0.29013 0.11200
C 	C 	0.68107 0.08213 0.29993 -0.18200
C 	C 	0.64447 0.98513 0.30713 0.10300
C 	C 	0.65577 0.84003 0.31313 -0.05400
H 	H 	0.90037 0.13323 0.28173 0.09700
H 	H 	0.80577 0.20293 0.28503 -0.01100
H 	H 	0.64197 0.11023 0.30153 0.09000
H 	H 	0.57957 0.94693 0.31373 0.00200
H 	H 	0.58617 0.80923 0.30943 0.05900
H 	H 	0.68077 0.80983 0.29643 0.05700
S 	S 	0.53053 0.27147 0.62747 -0.23600
N 	N 	0.36793 0.27717 0.63807 -0.13300
C 	C 	0.46423 0.32997 0.62867 0.13200
C 	C 	0.50193 0.42857 0.62147 -0.17800
C 	C 	0.44553 0.47047 0.62347 0.08400
C 	C 	0.34773 0.41547 0.63327 -0.14700
C 	C 	0.31113 0.31847 0.64047 0.07400
C 	C 	0.32243 0.17337 0.64647 -0.05400
H 	H 	0.56703 0.46657 0.61507 0.08400
H 	H 	0.47243 0.53627 0.61837 -0.00200
H 	H 	0.30863 0.44357 0.63487 0.07800
H 	H 	0.24623 0.28027 0.64707 0.00900
H 	H 	0.25283 0.14257 0.64277 0.05800
H 	H 	0.34743 0.14317 0.62977 0.05700
S 	S 	0.39520 0.59240 0.96080 -0.23500
N 	N 	0.38950 0.42410 0.97140 -0.13300
C 	C 	0.33670 0.46760 0.96200 0.13200
C 	C 	0.23810 0.40670 0.95480 -0.17900
C 	C 	0.19620 0.30840 0.95680 0.08300
C 	C 	0.25120 0.26560 0.96660 -0.14700
C 	C 	0.34820 0.32600 0.97380 0.07400
C 	C 	0.49330 0.48240 0.97980 -0.05800
H 	H 	0.20010 0.43380 0.94840 0.08400
H 	H 	0.13040 0.26950 0.95170 -0.00400
H 	H 	0.22310 0.19840 0.96820 0.07700
H 	H 	0.38640 0.29930 0.98040 0.01000
H 	H 	0.52410 0.44360 0.97610 0.06000
H 	H 	0.52350 0.53760 0.96310 0.05900
S 	S 	0.06187 0.92573 0.29413 -0.22600
N 	N 	0.05617 0.75743 0.30473 -0.12500
C 	C 	0.00337 0.80093 0.29533 0.11100
C 	C 	0.90477 0.74003 0.28813 -0.14400
C 	C 	0.86287 0.64173 0.29013 0.05400
C 	C 	0.91787 0.59893 0.29993 -0.10900
C 	C 	0.01487 0.65933 0.30713 0.04400
C 	C 	0.15997 0.81573 0.31313 -0.06000
H 	H 	0.86677 0.76713 0.28173 0.07400
H 	H 	0.79707 0.60283 0.28503 0.00900
H 	H 	0.88977 0.53173 0.30153 0.06800
H 	H 	0.05307 0.63263 0.31373 0.01800
H 	H 	0.19077 0.77693 0.30943 0.06200
H 	H 	0.19017 0.87093 0.29643 0.06200
S 	S 	0.72853 0.25907 0.62747 -0.23800
N 	N 	0.72283 0.09077 0.63807 -0.14200
C 	C 	0.67003 0.13427 0.62867 0.14200
C 	C 	0.57143 0.07337 0.62147 -0.21200
C 	C 	0.52953 0.97507 0.62347 0.12200
C 	C 	0.58453 0.93227 0.63327 -0.17100
C 	C 	0.68153 0.99267 0.64047 0.09900
C 	C 	0.82663 0.14907 0.64647 -0.05800
H 	H 	0.53343 0.10047 0.61507 0.09400
H 	H 	0.46373 0.93617 0.61837 -0.01200
H 	H 	0.55643 0.86507 0.63487 0.08900
H 	H 	0.71973 0.96597 0.64707 0.00500
H 	H 	0.85743 0.11027 0.64277 0.05900
H 	H 	0.85683 0.20427 0.62977 0.05900
S 	S 	0.40760 0.80280 0.96080 -0.23000
N 	N 	0.57590 0.96540 0.97140 -0.10400
C 	C 	0.53240 0.86910 0.96200 0.11900
C 	C 	0.59330 0.83140 0.95480 -0.14700
C 	C 	0.69160 0.88780 0.95680 0.03800
C 	C 	0.73440 0.98560 0.96660 -0.07300
C 	C 	0.67400 0.02220 0.97380 0.01600
C 	C 	0.51760 0.01090 0.97980 -0.13500
H 	H 	0.56620 0.76630 0.94840 0.07300
H 	H 	0.73050 0.86090 0.95170 0.01600
H 	H 	0.80160 0.02470 0.96820 0.04900
H 	H 	0.70070 0.08710 0.98040 0.03000
H 	H 	0.55640 0.08050 0.97610 0.08100
H 	H 	0.46240 0.98590 0.96310 0.08800
S 	S 	0.07427 0.13613 0.29413 -0.24800
N 	N 	0.24257 0.29873 0.30473 -0.13300
C 	C 	0.19907 0.20243 0.29533 0.13400
C 	C 	0.25997 0.16473 0.28813 -0.17900
C 	C 	0.35827 0.22113 0.29013 0.08400
C 	C 	0.40107 0.31893 0.29993 -0.14700
C 	C 	0.34067 0.35553 0.30713 0.07400
C 	C 	0.18427 0.34423 0.31313 -0.05800
H 	H 	0.23287 0.09963 0.28173 0.08200
H 	H 	0.39717 0.19423 0.28503 -0.00300
H 	H 	0.46827 0.35803 0.30153 0.07900
H 	H 	0.36737 0.42043 0.31373 0.01000
H 	H 	0.22307 0.41383 0.30943 0.06000
H 	H 	0.12907 0.31923 0.29643 0.05700
S 	S 	0.74093 0.46947 0.62747 -0.23200
N 	N 	0.90923 0.63207 0.63807 -0.12200
C 	C 	0.86573 0.53577 0.62867 0.12200
C 	C 	0.92663 0.49807 0.62147 -0.14400
C 	C 	0.02493 0.55447 0.62347 0.04500
C 	C 	0.06773 0.65227 0.63327 -0.12100
C 	C 	0.00733 0.68887 0.64047 0.04900
C 	C 	0.85093 0.67757 0.64647 -0.06000
H 	H 	0.89953 0.43297 0.61507 0.07400
H 	H 	0.06383 0.52757 0.61837 0.00800
H 	H 	0.13493 0.69137 0.63487 0.07000
H 	H 	0.03403 0.75377 0.64707 0.01700
H 	H 	0.88973 0.74717 0.64277 0.06400
H 	H 	0.79573 0.65257 0.62977 0.06000
S 	S 	0.60480 0.19720 0.53920 -0.24100
N 	N 	0.61050 0.03460 0.52860 -0.16100
C 	C 	0.66330 0.13090 0.53800 0.14600
C 	C 	0.76190 0.16860 0.54520 -0.20800
C 	C 	0.80380 0.11220 0.54320 0.12800
C 	C 	0.74880 0.01440 0.53340 -0.21800
C 	C 	0.65180 0.97780 0.52620 0.13100
C 	C 	0.50670 0.98910 0.52020 0.02000
H 	H 	0.79990 0.23370 0.55160 0.09500
H 	H 	0.86960 0.13910 0.54830 -0.01700
H 	H 	0.77690 0.97530 0.53180 0.11100
H 	H 	0.61360 0.91290 0.51960 -0.00900
H 	H 	0.47590 0.91950 0.52390 0.03900
H 	H 	0.47650 0.01410 0.53690 0.02900
S 	S 	0.27147 0.53053 0.87253 -0.23600
N 	N 	0.27717 0.36793 0.86193 -0.13300
C 	C 	0.32997 0.46423 0.87133 0.13200
C 	C 	0.42857 0.50193 0.87853 -0.17800
C 	C 	0.47047 0.44553 0.87653 0.08400
C 	C 	0.41547 0.34773 0.86673 -0.14700
C 	C 	0.31847 0.31113 0.85953 0.07400
C 	C 	0.17337 0.32243 0.85353 -0.05400
H 	H 	0.46657 0.56703 0.88493 0.08400
H 	H 	0.53627 0.47243 0.88163 -0.00200
H 	H 	0.44357 0.30863 0.86513 0.07800
H 	H 	0.28027 0.24623 0.85293 0.00900
H 	H 	0.14257 0.25283 0.85723 0.05800
H 	H 	0.14317 0.34743 0.87023 0.05700
S 	S 	0.93813 0.86387 0.20587 -0.22700
N 	N 	0.94383 0.70127 0.19527 -0.14000
C 	C 	0.99663 0.79757 0.20467 0.15100
C 	C 	0.09523 0.83527 0.21187 -0.20900
C 	C 	0.13713 0.77887 0.20987 0.11200
C 	C 	0.08213 0.68107 0.20007 -0.18300
C 	C 	0.98513 0.64447 0.19287 0.10400
C 	C 	0.84003 0.65577 0.18687 -0.05400
H 	H 	0.13323 0.90037 0.21827 0.09700
H 	H 	0.20293 0.80577 0.21497 -0.01100
H 	H 	0.11023 0.64197 0.19847 0.09000
H 	H 	0.94693 0.57957 0.18627 0.00200
H 	H 	0.80923 0.58617 0.19057 0.05900
H 	H 	0.80983 0.68077 0.20357 0.05700
S 	S 	0.59240 0.39520 0.53920 -0.23500
N 	N 	0.42410 0.38950 0.52860 -0.13300
C 	C 	0.46760 0.33670 0.53800 0.13200
C 	C 	0.40670 0.23810 0.54520 -0.17900
C 	C 	0.30840 0.19620 0.54320 0.08300
C 	C 	0.26560 0.25120 0.53340 -0.14700
C 	C 	0.32600 0.34820 0.52620 0.07400
C 	C 	0.48240 0.49330 0.52020 -0.05800
H 	H 	0.43380 0.20010 0.55160 0.08400
H 	H 	0.26950 0.13040 0.54830 -0.00400
H 	H 	0.19840 0.22310 0.53180 0.07700
H 	H 	0.29930 0.38640 0.51960 0.01000
H 	H 	0.44360 0.52410 0.52390 0.06000
H 	H 	0.53760 0.52350 0.53690 0.05900
S 	S 	0.25907 0.72853 0.87253 -0.23800
N 	N 	0.09077 0.72283 0.86193 -0.14200
C 	C 	0.13427 0.67003 0.87133 0.14200
C 	C 	0.07337 0.57143 0.87853 -0.21100
C 	C 	0.97507 0.52953 0.87653 0.12100
C 	C 	0.93227 0.58453 0.86673 -0.17100
C 	C 	0.99267 0.68153 0.85953 0.09800
C 	C 	0.14907 0.82663 0.85353 -0.05800
H 	H 	0.10047 0.53343 0.88493 0.09400
H 	H 	0.93617 0.46373 0.88163 -0.01200
H 	H 	0.86507 0.55643 0.86513 0.08900
H 	H 	0.96597 0.71973 0.85293 0.00500
H 	H 	0.11027 0.85743 0.85723 0.05900
H 	H 	0.20427 0.85683 0.87023 0.05900
S 	S 	0.92573 0.06187 0.20587 -0.22500
N 	N 	0.75743 0.05617 0.19527 -0.12500
C 	C 	0.80093 0.00337 0.20467 0.11100
C 	C 	0.74003 0.90477 0.21187 -0.14500
C 	C 	0.64173 0.86287 0.20987 0.05400
C 	C 	0.59893 0.91787 0.20007 -0.10900
C 	C 	0.65933 0.01487 0.19287 0.04500
C 	C 	0.81573 0.15997 0.18687 -0.06000
H 	H 	0.76713 0.86677 0.21827 0.07400
H 	H 	0.60283 0.79707 0.21497 0.00900
H 	H 	0.53173 0.88977 0.19847 0.06800
H 	H 	0.63263 0.05307 0.18627 0.01800
H 	H 	0.77693 0.19077 0.19057 0.06200
H 	H 	0.87093 0.19017 0.20357 0.06200
S 	S 	0.80280 0.40760 0.53920 -0.23000
N 	N 	0.96540 0.57590 0.52860 -0.10400
C 	C 	0.86910 0.53240 0.53800 0.11900
C 	C 	0.83140 0.59330 0.54520 -0.14700
C 	C 	0.88780 0.69160 0.54320 0.03900
C 	C 	0.98560 0.73440 0.53340 -0.07400
C 	C 	0.02220 0.67400 0.52620 0.01700
C 	C 	0.01090 0.51760 0.52020 -0.13400
H 	H 	0.76630 0.56620 0.55160 0.07400
H 	H 	0.86090 0.73050 0.54830 0.01600
H 	H 	0.02470 0.80160 0.53180 0.05000
H 	H 	0.08710 0.70070 0.51960 0.03000
H 	H 	0.08050 0.55640 0.52390 0.08100
H 	H 	0.98590 0.46240 0.53690 0.08800
S 	S 	0.46947 0.74093 0.87253 -0.23200
N 	N 	0.63207 0.90923 0.86193 -0.12200
C 	C 	0.53577 0.86573 0.87133 0.12200
C 	C 	0.49807 0.92663 0.87853 -0.14400
C 	C 	0.55447 0.02493 0.87653 0.04400
C 	C 	0.65227 0.06773 0.86673 -0.12000
C 	C 	0.68887 0.00733 0.85953 0.04800
C 	C 	0.67757 0.85093 0.85353 -0.06000
H 	H 	0.43297 0.89953 0.88493 0.07400
H 	H 	0.52757 0.06383 0.88163 0.00900
H 	H 	0.69137 0.13493 0.86513 0.07000
H 	H 	0.75377 0.03403 0.85293 0.01700
H 	H 	0.74717 0.88973 0.85723 0.06400
H 	H 	0.65257 0.79573 0.87023 0.06000
S 	S 	0.13613 0.07427 0.20587 -0.24800
N 	N 	0.29873 0.24257 0.19527 -0.13300
C 	C 	0.20243 0.19907 0.20467 0.13400
C 	C 	0.16473 0.25997 0.21187 -0.17900
C 	C 	0.22113 0.35827 0.20987 0.08400
C 	C 	0.31893 0.40107 0.20007 -0.14700
C 	C 	0.35553 0.34067 0.19287 0.07400
C 	C 	0.34423 0.18427 0.18687 -0.05800
H 	H 	0.09963 0.23287 0.21827 0.08200
H 	H 	0.19423 0.39717 0.21497 -0.00300
H 	H 	0.35803 0.46827 0.19847 0.07900
H 	H 	0.42043 0.36737 0.18627 0.01000
H 	H 	0.41383 0.22307 0.19057 0.06000
H 	H 	0.31923 0.12907 0.20357 0.05700
Ni	Ni	0.33333 0.66667 0.91667 1.01800
Ni	Ni	-0.00000 0.00000 0.25000 1.00800
Ni	Ni	0.66667 0.33333 0.58333 1.01800
Ni	Ni	0.66667 0.33333 0.08333 1.01800
Ni	Ni	0.00000 0.00000 0.75000 1.00800
Ni	Ni	0.33333 0.66667 0.41667 1.01800
