data_crystal

_cell_length_a 34.60700
_cell_length_b 12.86310
_cell_length_c 23.87510
_cell_angle_alpha 90.00000
_cell_angle_beta  114.02600
_cell_angle_gamma 90.00000

_symmetry_space_group_name_	'P 1'
_symmetry_space_group_name_H-M	'P 1'

loop_
_symmetry_equiv_pos_as_xyz
  x,y,z

loop_
_atom_site_label
_atom_site_type_symbol
_atom_site_fract_x
_atom_site_fract_y
_atom_site_fract_z
_atom_site_charge
C 	C 	0.08160 0.95050 0.77970 -0.00700
H 	H 	0.07520 0.93350 0.73900 -0.00300
C 	C 	0.12100 0.93320 0.83030 -0.08400
H 	H 	0.14510 0.90460 0.82840 0.02500
C 	C 	0.11704 0.96500 0.88030 -0.10000
H 	H 	0.13790 0.96160 0.92000 0.06000
C 	C 	0.07639 0.00460 0.86350 0.07100
C 	C 	0.05852 0.04880 0.90260 -0.09100
C 	C 	0.01967 0.09640 0.88370 0.01900
C 	C 	0.99640 0.12320 0.92090 0.01800
H 	H 	0.00520 0.11040 0.96260 0.01200
C 	C 	0.95982 0.16990 0.88400 -0.09000
H 	H 	0.93900 0.19520 0.89570 0.06300
C 	C 	0.95914 0.17310 0.82450 0.01300
C 	C 	0.08299 0.03260 0.96980 0.02200
C 	C 	0.09490 0.93420 0.99340 -0.03300
C 	C 	0.11430 0.92390 0.05660 -0.00100
C 	C 	0.12304 0.00550 0.09550 -0.04900
C 	C 	0.11260 0.10760 0.07160 -0.00000
C 	C 	0.09080 0.11890 0.00780 -0.02600
C 	C 	0.14090 0.99000 0.16100 0.08400
C 	C 	0.92804 0.22070 0.76890 -0.01000
C 	C 	0.88520 0.24050 0.75160 -0.07800
H 	H 	0.86950 0.22550 0.77420 0.02500
C 	C 	0.87055 0.28630 0.69480 -0.13700
H 	H 	0.84290 0.30740 0.67130 0.06200
C 	C 	0.90628 0.29530 0.67880 0.09400
C 	C 	0.90835 0.33750 0.62610 -0.16200
C 	C 	0.94272 0.37320 0.61990 0.12300
C 	C 	0.94748 0.40650 0.56550 -0.15600
H 	H 	0.92540 0.41250 0.52690 0.09000
C 	C 	0.98970 0.42860 0.57840 0.08200
H 	H 	0.00170 0.44670 0.55130 -0.02100
C 	C 	0.01030 0.41680 0.64380 -0.07300
H 	H 	0.03860 0.43230 0.66690 0.02800
C 	C 	0.86627 0.35200 0.57360 0.10900
C 	C 	0.84108 0.26350 0.54840 -0.12500
H 	H 	0.85090 0.19800 0.56440 0.06700
C 	C 	0.80089 0.27390 0.49880 0.00300
H 	H 	0.78310 0.21700 0.48390 0.02800
C 	C 	0.78954 0.36840 0.47440 -0.05000
C 	C 	0.81320 0.45890 0.49600 0.00400
H 	H 	0.80380 0.52350 0.47820 0.02500
C 	C 	0.85270 0.44540 0.54720 -0.13500
H 	H 	0.86980 0.50330 0.56310 0.07700
C 	C 	0.74820 0.38260 0.42240 0.08300
N 	N 	0.05512 0.99610 0.80110 -0.28300
N 	N 	0.99426 0.12490 0.82387 -0.28600
N 	N 	0.15440 0.98040 0.21220 -0.19200
N 	N 	0.94244 0.25470 0.72681 -0.30800
N 	N 	0.98377 0.38050 0.66750 -0.25700
N 	N 	0.71572 0.39610 0.38480 -0.19900
C 	C 	0.58160 0.45050 0.77970 -0.01000
H 	H 	0.57520 0.43350 0.73900 -0.00100
C 	C 	0.62100 0.43320 0.83030 -0.07700
H 	H 	0.64510 0.40460 0.82840 0.02100
C 	C 	0.61704 0.46500 0.88030 -0.11400
H 	H 	0.63790 0.46160 0.92000 0.06400
C 	C 	0.57639 0.50460 0.86350 0.08700
C 	C 	0.55852 0.54880 0.90260 -0.12100
C 	C 	0.51967 0.59640 0.88370 0.09000
C 	C 	0.49640 0.62320 0.92090 -0.09700
H 	H 	0.50520 0.61040 0.96260 0.06800
C 	C 	0.45982 0.66990 0.88400 -0.03100
H 	H 	0.43900 0.69520 0.89570 0.03900
C 	C 	0.45914 0.67310 0.82450 -0.00900
C 	C 	0.58299 0.53260 0.96980 0.03800
C 	C 	0.59490 0.43420 0.99340 -0.03800
C 	C 	0.61430 0.42390 0.05660 0.00500
C 	C 	0.62304 0.50550 0.09550 -0.05500
C 	C 	0.61260 0.60760 0.07160 0.00400
C 	C 	0.59080 0.61890 0.00780 -0.03200
C 	C 	0.64090 0.49000 0.16100 0.08800
C 	C 	0.42804 0.72070 0.76890 -0.00400
C 	C 	0.38520 0.74050 0.75160 -0.08500
H 	H 	0.36950 0.72550 0.77420 0.02700
C 	C 	0.37055 0.78630 0.69480 -0.13200
H 	H 	0.34290 0.80740 0.67130 0.06000
C 	C 	0.40628 0.79530 0.67880 0.08800
C 	C 	0.40835 0.83750 0.62610 -0.15100
C 	C 	0.44272 0.87320 0.61990 0.10000
C 	C 	0.44748 0.90650 0.56550 -0.09700
H 	H 	0.42540 0.91250 0.52690 0.06700
C 	C 	0.48970 0.92860 0.57840 -0.04500
H 	H 	0.50170 0.94670 0.55130 0.04200
C 	C 	0.51030 0.91680 0.64380 0.02400
H 	H 	0.53860 0.93230 0.66690 -0.00200
C 	C 	0.36627 0.85200 0.57360 0.10200
C 	C 	0.34108 0.76350 0.54840 -0.12000
H 	H 	0.35090 0.69800 0.56440 0.06500
C 	C 	0.30089 0.77390 0.49880 -0.00100
H 	H 	0.28310 0.71700 0.48390 0.02900
C 	C 	0.28954 0.86840 0.47440 -0.04700
C 	C 	0.31320 0.95890 0.49600 -0.00100
H 	H 	0.30380 0.02350 0.47820 0.02700
C 	C 	0.35270 0.94540 0.54720 -0.12900
H 	H 	0.36980 0.00330 0.56310 0.07300
C 	C 	0.24820 0.88260 0.42240 0.08200
N 	N 	0.55512 0.49610 0.80110 -0.28400
N 	N 	0.49426 0.62490 0.82387 -0.30700
N 	N 	0.65440 0.48040 0.21220 -0.19300
N 	N 	0.44244 0.75470 0.72681 -0.31200
N 	N 	0.48377 0.88050 0.66750 -0.28300
N 	N 	0.21572 0.89610 0.38480 -0.19900
C 	C 	0.91840 0.95050 0.72030 -0.01100
H 	H 	0.92480 0.93350 0.76100 0.00300
C 	C 	0.87900 0.93320 0.66970 -0.07200
H 	H 	0.85490 0.90460 0.67160 0.02000
C 	C 	0.88296 0.96500 0.61970 -0.12100
H 	H 	0.86210 0.96160 0.58000 0.06700
C 	C 	0.92361 0.00460 0.63650 0.10000
C 	C 	0.94148 0.04880 0.59740 -0.14600
C 	C 	0.98033 0.09640 0.61630 0.16100
C 	C 	0.00360 0.12320 0.57910 -0.21300
H 	H 	0.99480 0.11040 0.53740 0.12600
C 	C 	0.04018 0.16990 0.61600 0.02800
H 	H 	0.06100 0.19520 0.60430 0.01500
C 	C 	0.04086 0.17310 0.67550 -0.03100
C 	C 	0.91701 0.03260 0.53020 0.04800
C 	C 	0.90510 0.93420 0.50660 -0.03700
C 	C 	0.88570 0.92390 0.44340 0.00500
C 	C 	0.87696 0.00550 0.40450 -0.05400
C 	C 	0.88740 0.10760 0.42840 0.00600
C 	C 	0.90920 0.11890 0.49220 -0.03400
C 	C 	0.85910 0.99000 0.33900 0.08800
C 	C 	0.07196 0.22070 0.73110 0.00400
C 	C 	0.11480 0.24050 0.74840 -0.09200
H 	H 	0.13050 0.22550 0.72580 0.02900
C 	C 	0.12945 0.28630 0.80520 -0.12700
H 	H 	0.15710 0.30740 0.82870 0.05700
C 	C 	0.09372 0.29530 0.82120 0.08200
C 	C 	0.09165 0.33750 0.87390 -0.14200
C 	C 	0.05728 0.37320 0.88010 0.07800
C 	C 	0.05252 0.40650 0.93450 -0.04100
H 	H 	0.07460 0.41250 0.97310 0.04400
C 	C 	0.01030 0.42860 0.92160 -0.17000
H 	H 	0.99830 0.44670 0.94870 0.10300
C 	C 	0.98970 0.41680 0.85620 0.12000
H 	H 	0.96140 0.43230 0.83310 -0.03100
C 	C 	0.13373 0.35200 0.92640 0.09800
C 	C 	0.15892 0.26350 0.95160 -0.12100
H 	H 	0.14910 0.19800 0.93560 0.06500
C 	C 	0.19911 0.27390 0.00120 0.00100
H 	H 	0.21690 0.21700 0.01610 0.02900
C 	C 	0.21046 0.36840 0.02560 -0.04800
C 	C 	0.18680 0.45890 0.00400 0.00000
H 	H 	0.19620 0.52350 0.02180 0.02600
C 	C 	0.14730 0.44540 0.95280 -0.12800
H 	H 	0.13020 0.50330 0.93690 0.07200
C 	C 	0.25180 0.38260 0.07760 0.08200
N 	N 	0.94488 0.99610 0.69890 -0.28000
N 	N 	0.00574 0.12490 0.67613 -0.32500
N 	N 	0.84560 0.98040 0.28780 -0.19300
N 	N 	0.05756 0.25470 0.77319 -0.31400
N 	N 	0.01623 0.38050 0.83250 -0.30700
N 	N 	0.28428 0.39610 0.11520 -0.19900
C 	C 	0.41840 0.45050 0.72030 -0.01000
H 	H 	0.42480 0.43350 0.76100 -0.00100
C 	C 	0.37900 0.43320 0.66970 -0.07700
H 	H 	0.35490 0.40460 0.67160 0.02100
C 	C 	0.38296 0.46500 0.61970 -0.11400
H 	H 	0.36210 0.46160 0.58000 0.06400
C 	C 	0.42361 0.50460 0.63650 0.08800
C 	C 	0.44148 0.54880 0.59740 -0.12100
C 	C 	0.48033 0.59640 0.61630 0.09000
C 	C 	0.50360 0.62320 0.57910 -0.09700
H 	H 	0.49480 0.61040 0.53740 0.06800
C 	C 	0.54018 0.66990 0.61600 -0.03100
H 	H 	0.56100 0.69520 0.60430 0.03900
C 	C 	0.54086 0.67310 0.67550 -0.00900
C 	C 	0.41701 0.53260 0.53020 0.03800
C 	C 	0.40510 0.43420 0.50660 -0.03700
C 	C 	0.38570 0.42390 0.44340 0.00400
C 	C 	0.37696 0.50550 0.40450 -0.05400
C 	C 	0.38740 0.60760 0.42840 0.00400
C 	C 	0.40920 0.61890 0.49220 -0.03200
C 	C 	0.35910 0.49000 0.33900 0.08800
C 	C 	0.57196 0.72070 0.73110 -0.00400
C 	C 	0.61480 0.74050 0.74840 -0.08500
H 	H 	0.63050 0.72550 0.72580 0.02700
C 	C 	0.62945 0.78630 0.80520 -0.13100
H 	H 	0.65710 0.80740 0.82870 0.05900
C 	C 	0.59372 0.79530 0.82120 0.08700
C 	C 	0.59165 0.83750 0.87390 -0.14900
C 	C 	0.55728 0.87320 0.88010 0.09900
C 	C 	0.55252 0.90650 0.93450 -0.09700
H 	H 	0.57460 0.91250 0.97310 0.06700
C 	C 	0.51030 0.92860 0.92160 -0.04500
H 	H 	0.49830 0.94670 0.94870 0.04200
C 	C 	0.48970 0.91680 0.85620 0.02400
H 	H 	0.46140 0.93230 0.83310 -0.00200
C 	C 	0.63373 0.85200 0.92640 0.09700
C 	C 	0.65892 0.76350 0.95160 -0.11600
H 	H 	0.64910 0.69800 0.93560 0.06400
C 	C 	0.69911 0.77390 0.00120 -0.00500
H 	H 	0.71690 0.71700 0.01610 0.03100
C 	C 	0.71046 0.86840 0.02560 -0.04200
C 	C 	0.68680 0.95890 0.00400 -0.01000
H 	H 	0.69620 0.02350 0.02180 0.03100
C 	C 	0.64730 0.94540 0.95280 -0.12100
H 	H 	0.63020 0.00330 0.93690 0.06900
C 	C 	0.75180 0.88260 0.07760 0.08000
N 	N 	0.44488 0.49610 0.69890 -0.28400
N 	N 	0.50574 0.62490 0.67613 -0.30700
N 	N 	0.34560 0.48040 0.28780 -0.19300
N 	N 	0.55756 0.75470 0.77319 -0.31200
N 	N 	0.51623 0.88050 0.83250 -0.28300
N 	N 	0.78428 0.89610 0.11520 -0.19900
Ag	Ag	0.84700 0.91385 0.19566 0.52500
Ag	Ag	0.34700 0.41385 0.19566 0.52600
Ag	Ag	0.15300 0.91385 0.30434 0.52600
Ag	Ag	0.65300 0.41385 0.30434 0.52600
Zn	Zn	-0.00000 0.06686 0.75000 1.15000
Zn	Zn	-0.00000 0.31425 0.75000 1.15400
Zn	Zn	0.50000 0.56686 0.75000 1.15700
Zn	Zn	0.50000 0.81425 0.75000 1.16100
Ag	Ag	0.15300 0.08615 0.80434 0.52600
Ag	Ag	0.65300 0.58615 0.80434 0.52600
Ag	Ag	0.84700 0.08615 0.69566 0.52600
Ag	Ag	0.34700 0.58615 0.69566 0.52600
C 	C 	0.91840 0.04950 0.22030 -0.01000
H 	H 	0.92480 0.06650 0.26100 0.00300
C 	C 	0.87900 0.06680 0.16970 -0.07300
H 	H 	0.85490 0.09540 0.17160 0.02100
C 	C 	0.88296 0.03500 0.11970 -0.11900
H 	H 	0.86210 0.03840 0.08000 0.06700
C 	C 	0.92361 0.99540 0.13650 0.09800
C 	C 	0.94148 0.95120 0.09740 -0.14400
C 	C 	0.98033 0.90360 0.11630 0.15900
C 	C 	0.00360 0.87680 0.07910 -0.21100
H 	H 	0.99480 0.88960 0.03740 0.12500
C 	C 	0.04018 0.83010 0.11600 0.02700
H 	H 	0.06100 0.80480 0.10430 0.01600
C 	C 	0.04086 0.82690 0.17550 -0.03000
C 	C 	0.91701 0.96740 0.03020 0.04500
C 	C 	0.90510 0.06580 0.00660 -0.03100
C 	C 	0.88570 0.07610 0.94340 -0.00000
C 	C 	0.87696 0.99450 0.90450 -0.05100
C 	C 	0.88740 0.89240 0.92840 0.00500
C 	C 	0.90920 0.88110 0.99220 -0.03300
C 	C 	0.85910 0.01000 0.83900 0.08600
C 	C 	0.07196 0.77930 0.23110 0.00400
C 	C 	0.11480 0.75950 0.24840 -0.09200
H 	H 	0.13050 0.77450 0.22580 0.02900
C 	C 	0.12945 0.71370 0.30520 -0.12700
H 	H 	0.15710 0.69260 0.32870 0.05700
C 	C 	0.09372 0.70470 0.32120 0.08200
C 	C 	0.09165 0.66250 0.37390 -0.14000
C 	C 	0.05728 0.62680 0.38010 0.07700
C 	C 	0.05252 0.59350 0.43450 -0.03900
H 	H 	0.07460 0.58750 0.47310 0.04400
C 	C 	0.01030 0.57140 0.42160 -0.17300
H 	H 	0.99830 0.55330 0.44870 0.10500
C 	C 	0.98970 0.58320 0.35620 0.12200
H 	H 	0.96140 0.56770 0.33310 -0.03100
C 	C 	0.13373 0.64800 0.42640 0.09500
C 	C 	0.15892 0.73650 0.45160 -0.11600
H 	H 	0.14910 0.80200 0.43560 0.06300
C 	C 	0.19911 0.72610 0.50120 -0.00400
H 	H 	0.21690 0.78300 0.51610 0.03100
C 	C 	0.21046 0.63160 0.52560 -0.04500
C 	C 	0.18680 0.54110 0.50400 -0.00400
H 	H 	0.19620 0.47650 0.52180 0.02700
C 	C 	0.14730 0.55460 0.45280 -0.12400
H 	H 	0.13020 0.49670 0.43690 0.07000
C 	C 	0.25180 0.61740 0.57760 0.08100
N 	N 	0.94488 0.00390 0.19890 -0.28000
N 	N 	0.00574 0.87510 0.17613 -0.32500
N 	N 	0.84560 0.01960 0.78780 -0.19200
N 	N 	0.05756 0.74530 0.27319 -0.31400
N 	N 	0.01623 0.61950 0.33250 -0.30800
N 	N 	0.28428 0.60390 0.61520 -0.19900
C 	C 	0.41840 0.54950 0.22030 -0.01000
H 	H 	0.42480 0.56650 0.26100 -0.00100
C 	C 	0.37900 0.56680 0.16970 -0.07700
H 	H 	0.35490 0.59540 0.17160 0.02100
C 	C 	0.38296 0.53500 0.11970 -0.11400
H 	H 	0.36210 0.53840 0.08000 0.06400
C 	C 	0.42361 0.49540 0.13650 0.08800
C 	C 	0.44148 0.45120 0.09740 -0.12100
C 	C 	0.48033 0.40360 0.11630 0.09000
C 	C 	0.50360 0.37680 0.07910 -0.09800
H 	H 	0.49480 0.38960 0.03740 0.06900
C 	C 	0.54018 0.33010 0.11600 -0.03100
H 	H 	0.56100 0.30480 0.10430 0.03900
C 	C 	0.54086 0.32690 0.17550 -0.00900
C 	C 	0.41701 0.46740 0.03020 0.03900
C 	C 	0.40510 0.56580 0.00660 -0.03700
C 	C 	0.38570 0.57610 0.94340 0.00400
C 	C 	0.37696 0.49450 0.90450 -0.05400
C 	C 	0.38740 0.39240 0.92840 0.00400
C 	C 	0.40920 0.38110 0.99220 -0.03400
C 	C 	0.35910 0.51000 0.83900 0.08700
C 	C 	0.57196 0.27930 0.23110 -0.00400
C 	C 	0.61480 0.25950 0.24840 -0.08500
H 	H 	0.63050 0.27450 0.22580 0.02700
C 	C 	0.62945 0.21370 0.30520 -0.13200
H 	H 	0.65710 0.19260 0.32870 0.06000
C 	C 	0.59372 0.20470 0.32120 0.08800
C 	C 	0.59165 0.16250 0.37390 -0.15100
C 	C 	0.55728 0.12680 0.38010 0.10000
C 	C 	0.55252 0.09350 0.43450 -0.09700
H 	H 	0.57460 0.08750 0.47310 0.06700
C 	C 	0.51030 0.07140 0.42160 -0.04500
H 	H 	0.49830 0.05330 0.44870 0.04200
C 	C 	0.48970 0.08320 0.35620 0.02400
H 	H 	0.46140 0.06770 0.33310 -0.00200
C 	C 	0.63373 0.14800 0.42640 0.10200
C 	C 	0.65892 0.23650 0.45160 -0.12000
H 	H 	0.64910 0.30200 0.43560 0.06500
C 	C 	0.69911 0.22610 0.50120 -0.00100
H 	H 	0.71690 0.28300 0.51610 0.02900
C 	C 	0.71046 0.13160 0.52560 -0.04700
C 	C 	0.68680 0.04110 0.50400 -0.00100
H 	H 	0.69620 0.97650 0.52180 0.02700
C 	C 	0.64730 0.05460 0.45280 -0.12900
H 	H 	0.63020 0.99670 0.43690 0.07300
C 	C 	0.75180 0.11740 0.57760 0.08200
N 	N 	0.44488 0.50390 0.19890 -0.28400
N 	N 	0.50574 0.37510 0.17613 -0.30700
N 	N 	0.34560 0.51960 0.78780 -0.19300
N 	N 	0.55756 0.24530 0.27319 -0.31200
N 	N 	0.51623 0.11950 0.33250 -0.28300
N 	N 	0.78428 0.10390 0.61520 -0.19900
C 	C 	0.08160 0.04950 0.27970 -0.00800
H 	H 	0.07520 0.06650 0.23900 -0.00400
C 	C 	0.12100 0.06680 0.33030 -0.08400
H 	H 	0.14510 0.09540 0.32840 0.02300
C 	C 	0.11704 0.03500 0.38030 -0.10300
H 	H 	0.13790 0.03840 0.42000 0.06000
C 	C 	0.07639 0.99540 0.36350 0.07200
C 	C 	0.05852 0.95120 0.40260 -0.09400
C 	C 	0.01967 0.90360 0.38370 0.01800
C 	C 	0.99640 0.87680 0.42090 0.01900
H 	H 	0.00520 0.88960 0.46260 0.01100
C 	C 	0.95982 0.83010 0.38400 -0.09000
H 	H 	0.93900 0.80480 0.39570 0.06300
C 	C 	0.95914 0.82690 0.32450 0.01300
C 	C 	0.08299 0.96740 0.46980 0.02700
C 	C 	0.09490 0.06580 0.49340 -0.03600
C 	C 	0.11430 0.07610 0.55660 0.00200
C 	C 	0.12304 0.99450 0.59550 -0.05200
C 	C 	0.11260 0.89240 0.57160 0.00100
C 	C 	0.09080 0.88110 0.50780 -0.03000
C 	C 	0.14090 0.01000 0.66100 0.08600
C 	C 	0.92804 0.77930 0.26890 -0.01100
C 	C 	0.88520 0.75950 0.25160 -0.07800
H 	H 	0.86950 0.77450 0.27420 0.02500
C 	C 	0.87055 0.71370 0.19480 -0.13600
H 	H 	0.84290 0.69260 0.17130 0.06200
C 	C 	0.90628 0.70470 0.17880 0.09300
C 	C 	0.90835 0.66250 0.12610 -0.16100
C 	C 	0.94272 0.62680 0.11990 0.12300
C 	C 	0.94748 0.59350 0.06550 -0.15500
H 	H 	0.92540 0.58750 0.02690 0.09000
C 	C 	0.98970 0.57140 0.07840 0.08100
H 	H 	0.00170 0.55330 0.05130 -0.02000
C 	C 	0.01030 0.58320 0.14380 -0.07200
H 	H 	0.03860 0.56770 0.16690 0.02800
C 	C 	0.86627 0.64800 0.07360 0.10700
C 	C 	0.84108 0.73650 0.04840 -0.12200
H 	H 	0.85090 0.80200 0.06440 0.06600
C 	C 	0.80089 0.72610 0.99880 0.00000
H 	H 	0.78310 0.78300 0.98390 0.02900
C 	C 	0.78954 0.63160 0.97440 -0.04800
C 	C 	0.81320 0.54110 0.99600 0.00000
H 	H 	0.80380 0.47650 0.97820 0.02600
C 	C 	0.85270 0.55460 0.04720 -0.13200
H 	H 	0.86980 0.49670 0.06310 0.07600
C 	C 	0.74820 0.61740 0.92240 0.08200
N 	N 	0.05512 0.00390 0.30110 -0.28400
N 	N 	0.99426 0.87510 0.32387 -0.28600
N 	N 	0.15440 0.01960 0.71220 -0.19300
N 	N 	0.94244 0.74530 0.22681 -0.30800
N 	N 	0.98377 0.61950 0.16750 -0.25700
N 	N 	0.71572 0.60390 0.88480 -0.19900
C 	C 	0.58160 0.54950 0.27970 -0.01000
H 	H 	0.57520 0.56650 0.23900 -0.00100
C 	C 	0.62100 0.56680 0.33030 -0.07700
H 	H 	0.64510 0.59540 0.32840 0.02100
C 	C 	0.61704 0.53500 0.38030 -0.11400
H 	H 	0.63790 0.53840 0.42000 0.06400
C 	C 	0.57639 0.49540 0.36350 0.08800
C 	C 	0.55852 0.45120 0.40260 -0.12100
C 	C 	0.51967 0.40360 0.38370 0.09000
C 	C 	0.49640 0.37680 0.42090 -0.09700
H 	H 	0.50520 0.38960 0.46260 0.06800
C 	C 	0.45982 0.33010 0.38400 -0.03100
H 	H 	0.43900 0.30480 0.39570 0.03900
C 	C 	0.45914 0.32690 0.32450 -0.00900
C 	C 	0.58299 0.46740 0.46980 0.03800
C 	C 	0.59490 0.56580 0.49340 -0.03700
C 	C 	0.61430 0.57610 0.55660 0.00400
C 	C 	0.62304 0.49450 0.59550 -0.05400
C 	C 	0.61260 0.39240 0.57160 0.00400
C 	C 	0.59080 0.38110 0.50780 -0.03200
C 	C 	0.64090 0.51000 0.66100 0.08800
C 	C 	0.42804 0.27930 0.26890 -0.00300
C 	C 	0.38520 0.25950 0.25160 -0.08500
H 	H 	0.36950 0.27450 0.27420 0.02700
C 	C 	0.37055 0.21370 0.19480 -0.13100
H 	H 	0.34290 0.19260 0.17130 0.05900
C 	C 	0.40628 0.20470 0.17880 0.08700
C 	C 	0.40835 0.16250 0.12610 -0.14800
C 	C 	0.44272 0.12680 0.11990 0.09900
C 	C 	0.44748 0.09350 0.06550 -0.09600
H 	H 	0.42540 0.08750 0.02690 0.06700
C 	C 	0.48970 0.07140 0.07840 -0.04500
H 	H 	0.50170 0.05330 0.05130 0.04200
C 	C 	0.51030 0.08320 0.14380 0.02400
H 	H 	0.53860 0.06770 0.16690 -0.00200
C 	C 	0.36627 0.14800 0.07360 0.09400
C 	C 	0.34108 0.23650 0.04840 -0.11200
H 	H 	0.35090 0.30200 0.06440 0.06200
C 	C 	0.30089 0.22610 0.99880 -0.01000
H 	H 	0.28310 0.28300 0.98390 0.03200
C 	C 	0.28954 0.13160 0.97440 -0.03900
C 	C 	0.31320 0.04110 0.99600 -0.01400
H 	H 	0.30380 0.97650 0.97820 0.03200
C 	C 	0.35270 0.05460 0.04720 -0.11600
H 	H 	0.36980 0.99670 0.06310 0.06800
C 	C 	0.24820 0.11740 0.92240 0.07900
N 	N 	0.55512 0.50390 0.30110 -0.28400
N 	N 	0.49426 0.37510 0.32387 -0.30700
N 	N 	0.65440 0.51960 0.71220 -0.19300
N 	N 	0.44244 0.24530 0.22681 -0.31200
N 	N 	0.48377 0.11950 0.16750 -0.28300
N 	N 	0.21572 0.10390 0.88480 -0.19800
Zn	Zn	0.00000 0.93314 0.25000 1.15000
Zn	Zn	-0.00000 0.68575 0.25000 1.15400
Zn	Zn	0.50000 0.43314 0.25000 1.15700
Zn	Zn	0.50000 0.18575 0.25000 1.16100
