data_crystal

_cell_length_a 33.64740
_cell_length_b 13.92370
_cell_length_c 23.34370
_cell_angle_alpha 90.00000
_cell_angle_beta  112.49500
_cell_angle_gamma 90.00000

_symmetry_space_group_name_	'P 1'
_symmetry_space_group_name_H-M	'P 1'

loop_
_symmetry_equiv_pos_as_xyz
  x,y,z

loop_
_atom_site_label
_atom_site_type_symbol
_atom_site_fract_x
_atom_site_fract_y
_atom_site_fract_z
_atom_site_charge
Ag	Ag	0.15400 0.13611 0.29129 0.52700
N 	N 	0.21781 0.15160 0.37218 -0.19900
C 	C 	0.24861 0.15020 0.41503 0.08800
C 	C 	0.28719 0.14480 0.46933 -0.05800
C 	C 	0.30777 0.05850 0.48719 0.00700
C 	C 	0.30454 0.22880 0.50359 0.00600
C 	C 	0.34603 0.05140 0.53993 -0.12800
H 	H 	0.29620 0.00380 0.46400 0.02200
H 	H 	0.29100 0.28770 0.49090 0.02700
C 	C 	0.34188 0.22290 0.55611 -0.12500
C 	C 	0.36346 0.13510 0.57456 0.09600
H 	H 	0.35970 0.99250 0.55190 0.07200
H 	H 	0.35280 0.27780 0.57950 0.06300
C 	C 	0.40529 0.13260 0.62837 -0.14500
C 	C 	0.44030 0.09300 0.61987 0.09100
C 	C 	0.40549 0.17150 0.68477 0.09000
C 	C 	0.44235 0.05460 0.56390 -0.09500
N 	N 	0.48120 0.07950 0.66832 -0.28900
C 	C 	0.36966 0.18250 0.70276 -0.13800
N 	N 	0.44217 0.20134 0.73319 -0.31400
C 	C 	0.48350 0.02260 0.57783 -0.05200
H 	H 	0.41990 0.05210 0.52530 0.06200
C 	C 	0.50572 0.03840 0.64226 0.03100
H 	H 	0.34110 0.16830 0.67880 0.05900
C 	C 	0.38558 0.21820 0.76258 -0.07700
C 	C 	0.43029 0.23090 0.77969 -0.00700
H 	H 	0.49460 0.99580 0.55060 0.04200
H 	H 	0.53440 0.02180 0.66390 -0.00600
H 	H 	0.36990 0.23140 0.78690 0.02200
C 	C 	0.37893 0.50640 0.68207 -0.09300
C 	C 	0.46224 0.27630 0.83370 -0.00300
C 	C 	0.38125 0.48050 0.62582 -0.10900
H 	H 	0.35600 0.53650 0.68760 0.03000
C 	C 	0.41825 0.47790 0.72912 -0.00000
C 	C 	0.46370 0.28250 0.89528 -0.03300
N 	N 	0.49673 0.31864 0.82857 -0.30400
C 	C 	0.42235 0.43700 0.64047 0.08500
H 	H 	0.36020 0.48970 0.58650 0.06200
H 	H 	0.42520 0.48670 0.77140 -0.00600
N 	N 	0.44408 0.43670 0.70462 -0.28800
H 	H 	0.44310 0.26010 0.90950 0.03600
C 	C 	0.50121 0.32770 0.92934 -0.10600
C 	C 	0.52185 0.35360 0.88826 0.09400
C 	C 	0.43965 0.40460 0.59746 -0.14600
H 	H 	0.51160 0.33960 0.97170 0.06800
C 	C 	0.41617 0.43290 0.53187 0.10800
C 	C 	0.41085 0.53020 0.51731 -0.13500
C 	C 	0.40022 0.36600 0.48446 -0.13800
H 	H 	0.42060 0.57480 0.54940 0.07500
C 	C 	0.39173 0.56330 0.45716 0.01200
C 	C 	0.37966 0.39740 0.42337 0.01200
H 	H 	0.40320 0.30070 0.49330 0.08000
H 	H 	0.38930 0.62870 0.44840 0.02000
C 	C 	0.37619 0.49530 0.41005 -0.05700
H 	H 	0.36830 0.35290 0.39150 0.02200
C 	C 	0.35823 0.52840 0.34729 0.07600
Ag	Ag	0.65400 0.63611 0.29129 0.52600
N 	N 	0.71781 0.65160 0.37218 -0.20000
C 	C 	0.74861 0.65020 0.41503 0.08800
C 	C 	0.78719 0.64480 0.46933 -0.05900
C 	C 	0.80777 0.55850 0.48719 0.00900
C 	C 	0.80454 0.72880 0.50359 0.00700
C 	C 	0.84603 0.55140 0.53993 -0.13000
H 	H 	0.79620 0.50380 0.46400 0.02200
H 	H 	0.79100 0.78770 0.49090 0.02700
C 	C 	0.84188 0.72290 0.55611 -0.12700
C 	C 	0.86346 0.63510 0.57456 0.10000
H 	H 	0.85970 0.49250 0.55190 0.07500
H 	H 	0.85280 0.77780 0.57950 0.06400
C 	C 	0.90529 0.63260 0.62837 -0.15000
C 	C 	0.94030 0.59300 0.61987 0.10900
C 	C 	0.90549 0.67150 0.68477 0.09300
C 	C 	0.94235 0.55460 0.56390 -0.13400
N 	N 	0.98120 0.57950 0.66832 -0.25500
C 	C 	0.86966 0.68250 0.70276 -0.13700
N 	N 	0.94217 0.70134 0.73319 -0.30900
C 	C 	0.98350 0.52260 0.57783 0.03800
H 	H 	0.91990 0.55210 0.52530 0.07900
C 	C 	0.00572 0.53840 0.64226 -0.07000
H 	H 	0.84110 0.66830 0.67880 0.05900
C 	C 	0.88558 0.71820 0.76258 -0.08200
C 	C 	0.93029 0.73090 0.77969 0.00300
H 	H 	0.99460 0.49580 0.55060 0.02300
H 	H 	0.03440 0.52180 0.66390 0.02200
H 	H 	0.86990 0.73140 0.78690 0.02400
C 	C 	0.87893 0.00640 0.68207 -0.09000
C 	C 	0.96224 0.77630 0.83370 -0.01700
C 	C 	0.88125 0.98050 0.62582 -0.11100
H 	H 	0.85600 0.03650 0.68760 0.03000
C 	C 	0.91825 0.97790 0.72912 -0.00000
C 	C 	0.96370 0.78250 0.89528 0.03300
N 	N 	0.99673 0.81864 0.82857 -0.28000
C 	C 	0.92235 0.93700 0.64047 0.08900
H 	H 	0.86020 0.98970 0.58650 0.06300
H 	H 	0.92520 0.98670 0.77140 -0.00100
N 	N 	0.94408 0.93670 0.70462 -0.28100
H 	H 	0.94310 0.76010 0.90950 0.01800
C 	C 	0.00121 0.82770 0.92934 -0.16700
C 	C 	0.02185 0.85360 0.88826 0.08400
C 	C 	0.93965 0.90460 0.59746 -0.14400
H 	H 	0.01160 0.83960 0.97170 0.08100
C 	C 	0.91617 0.93290 0.53187 0.10800
C 	C 	0.91085 0.03020 0.51731 -0.13300
C 	C 	0.90022 0.86600 0.48446 -0.13700
H 	H 	0.92060 0.07480 0.54940 0.07900
C 	C 	0.89173 0.06330 0.45716 0.01300
C 	C 	0.87966 0.89740 0.42337 0.01300
H 	H 	0.90320 0.80070 0.49330 0.08100
H 	H 	0.88930 0.12870 0.44840 0.02200
C 	C 	0.87619 0.99530 0.41005 -0.05600
H 	H 	0.86830 0.85290 0.39150 0.02400
C 	C 	0.85823 0.02840 0.34729 0.07800
Ag	Ag	0.84600 0.13611 0.20871 0.52600
N 	N 	0.78219 0.15160 0.12782 -0.20000
C 	C 	0.75139 0.15020 0.08497 0.08600
C 	C 	0.71281 0.14480 0.03067 -0.05600
C 	C 	0.69223 0.05850 0.01281 0.00400
C 	C 	0.69546 0.22880 0.99641 0.00300
C 	C 	0.65397 0.05140 0.96007 -0.12400
H 	H 	0.70380 0.00380 0.03600 0.02300
H 	H 	0.70900 0.28770 0.00910 0.02800
C 	C 	0.65812 0.22290 0.94389 -0.12300
C 	C 	0.63654 0.13510 0.92544 0.09400
H 	H 	0.64030 0.99250 0.94810 0.07000
H 	H 	0.64720 0.27780 0.92050 0.06200
C 	C 	0.59471 0.13260 0.87163 -0.14500
C 	C 	0.55970 0.09300 0.88013 0.09200
C 	C 	0.59451 0.17150 0.81523 0.08900
C 	C 	0.55765 0.05460 0.93610 -0.09600
N 	N 	0.51880 0.07950 0.83168 -0.28900
C 	C 	0.63034 0.18250 0.79724 -0.13800
N 	N 	0.55783 0.20134 0.76681 -0.31400
C 	C 	0.51650 0.02260 0.92217 -0.04900
H 	H 	0.58010 0.05210 0.97470 0.06300
C 	C 	0.49428 0.03840 0.85774 0.03000
H 	H 	0.65890 0.16830 0.82120 0.05900
C 	C 	0.61442 0.21820 0.73742 -0.07800
C 	C 	0.56971 0.23090 0.72031 -0.00700
H 	H 	0.50540 0.99580 0.94940 0.04000
H 	H 	0.46560 0.02180 0.83610 -0.00600
H 	H 	0.63010 0.23140 0.71310 0.02200
C 	C 	0.62107 0.50640 0.81793 -0.09300
C 	C 	0.53776 0.27630 0.66630 -0.00300
C 	C 	0.61875 0.48050 0.87418 -0.10900
H 	H 	0.64400 0.53650 0.81240 0.03000
C 	C 	0.58175 0.47790 0.77088 -0.00000
C 	C 	0.53630 0.28250 0.60472 -0.03300
N 	N 	0.50327 0.31864 0.67143 -0.30400
C 	C 	0.57765 0.43700 0.85953 0.08500
H 	H 	0.63980 0.48970 0.91350 0.06200
H 	H 	0.57480 0.48670 0.72860 -0.00600
N 	N 	0.55592 0.43670 0.79538 -0.28800
H 	H 	0.55690 0.26010 0.59050 0.03600
C 	C 	0.49879 0.32770 0.57066 -0.10600
C 	C 	0.47815 0.35360 0.61174 0.09400
C 	C 	0.56035 0.40460 0.90254 -0.14600
H 	H 	0.48840 0.33960 0.52830 0.06800
C 	C 	0.58383 0.43290 0.96813 0.10800
C 	C 	0.58915 0.53020 0.98269 -0.13600
C 	C 	0.59978 0.36600 0.01554 -0.13800
H 	H 	0.57940 0.57480 0.95060 0.07500
C 	C 	0.60827 0.56330 0.04284 0.01300
C 	C 	0.62034 0.39740 0.07663 0.01200
H 	H 	0.59680 0.30070 0.00670 0.08000
H 	H 	0.61070 0.62870 0.05160 0.02000
C 	C 	0.62381 0.49530 0.08995 -0.05800
H 	H 	0.63170 0.35290 0.10850 0.02200
C 	C 	0.64177 0.52840 0.15271 0.07700
Ag	Ag	0.34600 0.63611 0.20871 0.52600
N 	N 	0.28219 0.65160 0.12782 -0.19900
C 	C 	0.25139 0.65020 0.08497 0.08500
C 	C 	0.21281 0.64480 0.03067 -0.05400
C 	C 	0.19223 0.55850 0.01281 0.00400
C 	C 	0.19546 0.72880 0.99641 -0.00200
C 	C 	0.15397 0.55140 0.96007 -0.12500
H 	H 	0.20380 0.50380 0.03600 0.02300
H 	H 	0.20900 0.78770 0.00910 0.03100
C 	C 	0.15812 0.72290 0.94389 -0.12000
C 	C 	0.13654 0.63510 0.92544 0.09100
H 	H 	0.14030 0.49250 0.94810 0.06900
H 	H 	0.14720 0.77780 0.92050 0.06100
C 	C 	0.09471 0.63260 0.87163 -0.13900
C 	C 	0.05970 0.59300 0.88013 0.07500
C 	C 	0.09451 0.67150 0.81523 0.08700
C 	C 	0.05765 0.55460 0.93610 -0.05700
N 	N 	0.01880 0.57950 0.83168 -0.31900
C 	C 	0.13034 0.68250 0.79724 -0.14000
N 	N 	0.05783 0.70134 0.76681 -0.31500
C 	C 	0.01650 0.52260 0.92217 -0.14000
H 	H 	0.08010 0.55210 0.97470 0.04600
C 	C 	0.99428 0.53840 0.85774 0.13100
H 	H 	0.15890 0.66830 0.82120 0.05900
C 	C 	0.11442 0.71820 0.73742 -0.07300
C 	C 	0.06971 0.73090 0.72031 -0.01600
H 	H 	0.00540 0.49580 0.94940 0.06100
H 	H 	0.96560 0.52180 0.83610 -0.03400
H 	H 	0.13010 0.73140 0.71310 0.02000
C 	C 	0.12107 0.00640 0.81793 -0.09300
C 	C 	0.03776 0.77630 0.66630 0.01300
C 	C 	0.11875 0.98050 0.87418 -0.10900
H 	H 	0.14400 0.03650 0.81240 0.02900
C 	C 	0.08175 0.97790 0.77088 -0.00200
C 	C 	0.03630 0.78250 0.60472 -0.10000
N 	N 	0.00327 0.81864 0.67143 -0.32500
C 	C 	0.07765 0.93700 0.85953 0.08100
H 	H 	0.13980 0.98970 0.91350 0.06100
H 	H 	0.07480 0.98670 0.72860 -0.01000
N 	N 	0.05592 0.93670 0.79538 -0.29200
H 	H 	0.05690 0.76010 0.59050 0.05400
C 	C 	0.99879 0.82770 0.57066 -0.04300
C 	C 	0.97815 0.85360 0.61174 0.10300
C 	C 	0.06035 0.90460 0.90254 -0.14500
H 	H 	0.98840 0.83960 0.52830 0.05500
C 	C 	0.08383 0.93290 0.96813 0.10000
C 	C 	0.08915 0.03020 0.98269 -0.12900
C 	C 	0.09978 0.86600 0.01554 -0.13200
H 	H 	0.07940 0.07480 0.95060 0.06900
C 	C 	0.10827 0.06330 0.04284 0.00400
C 	C 	0.12034 0.89740 0.07663 0.00500
H 	H 	0.09680 0.80070 0.00670 0.07700
H 	H 	0.11070 0.12870 0.05160 0.02100
C 	C 	0.12381 0.99530 0.08995 -0.05200
H 	H 	0.13170 0.85290 0.10850 0.02300
C 	C 	0.14177 0.02840 0.15271 0.07200
N 	N 	0.65465 0.55970 0.20252 -0.19100
N 	N 	0.15465 0.05970 0.20252 -0.19100
N 	N 	0.34535 0.55970 0.29748 -0.19100
N 	N 	0.84535 0.05970 0.29748 -0.19100
Zn	Zn	0.50000 0.14412 0.75000 1.16100
Zn	Zn	0.50000 0.37086 0.75000 1.15800
Zn	Zn	0.00000 0.64412 0.75000 1.15100
Zn	Zn	0.00000 0.87086 0.75000 1.14800
N 	N 	0.34535 0.44030 0.79748 -0.19100
N 	N 	0.84535 0.94030 0.79748 -0.19100
N 	N 	0.65465 0.44030 0.70252 -0.19100
N 	N 	0.15465 0.94030 0.70252 -0.19100
Ag	Ag	0.84600 0.86389 0.70871 0.52600
N 	N 	0.78219 0.84840 0.62782 -0.20000
C 	C 	0.75139 0.84980 0.58497 0.08700
C 	C 	0.71281 0.85520 0.53067 -0.05800
C 	C 	0.69223 0.94150 0.51281 0.00600
C 	C 	0.69546 0.77120 0.49641 0.00500
C 	C 	0.65397 0.94860 0.46007 -0.12700
H 	H 	0.70380 0.99620 0.53600 0.02200
H 	H 	0.70900 0.71230 0.50910 0.02700
C 	C 	0.65812 0.77710 0.44389 -0.12500
C 	C 	0.63654 0.86490 0.42544 0.09600
H 	H 	0.64030 0.00750 0.44810 0.07200
H 	H 	0.64720 0.72220 0.42050 0.06300
C 	C 	0.59471 0.86740 0.37163 -0.14500
C 	C 	0.55970 0.90700 0.38013 0.09100
C 	C 	0.59451 0.82850 0.31523 0.09000
C 	C 	0.55765 0.94540 0.43610 -0.09500
N 	N 	0.51880 0.92050 0.33168 -0.28900
C 	C 	0.63034 0.81750 0.29724 -0.13800
N 	N 	0.55783 0.79866 0.26681 -0.31400
C 	C 	0.51650 0.97740 0.42217 -0.05200
H 	H 	0.58010 0.94790 0.47470 0.06200
C 	C 	0.49428 0.96160 0.35774 0.03100
H 	H 	0.65890 0.83170 0.32120 0.05900
C 	C 	0.61442 0.78180 0.23742 -0.07700
C 	C 	0.56971 0.76910 0.22031 -0.00700
H 	H 	0.50540 0.00420 0.44940 0.04200
H 	H 	0.46560 0.97820 0.33610 -0.00600
H 	H 	0.63010 0.76860 0.21310 0.02200
C 	C 	0.62107 0.49360 0.31793 -0.09300
C 	C 	0.53776 0.72370 0.16630 -0.00300
C 	C 	0.61875 0.51950 0.37418 -0.10900
H 	H 	0.64400 0.46350 0.31240 0.03000
C 	C 	0.58175 0.52210 0.27088 -0.00000
C 	C 	0.53630 0.71750 0.10472 -0.03300
N 	N 	0.50327 0.68136 0.17143 -0.30400
C 	C 	0.57765 0.56300 0.35953 0.08500
H 	H 	0.63980 0.51030 0.41350 0.06200
H 	H 	0.57480 0.51330 0.22860 -0.00600
N 	N 	0.55592 0.56330 0.29538 -0.28800
H 	H 	0.55690 0.73990 0.09050 0.03600
C 	C 	0.49879 0.67230 0.07066 -0.10600
C 	C 	0.47815 0.64640 0.11174 0.09400
C 	C 	0.56035 0.59540 0.40254 -0.14600
H 	H 	0.48840 0.66040 0.02830 0.06900
C 	C 	0.58383 0.56710 0.46813 0.10800
C 	C 	0.58915 0.46980 0.48269 -0.13500
C 	C 	0.59978 0.63400 0.51554 -0.13800
H 	H 	0.57940 0.42520 0.45060 0.07500
C 	C 	0.60827 0.43670 0.54284 0.01200
C 	C 	0.62034 0.60260 0.57663 0.01200
H 	H 	0.59680 0.69930 0.50670 0.08000
H 	H 	0.61070 0.37130 0.55160 0.02000
C 	C 	0.62381 0.50470 0.58995 -0.05700
H 	H 	0.63170 0.64710 0.60850 0.02200
C 	C 	0.64177 0.47160 0.65271 0.07600
Ag	Ag	0.34600 0.36389 0.70871 0.52600
N 	N 	0.28219 0.34840 0.62782 -0.20000
C 	C 	0.25139 0.34980 0.58497 0.08600
C 	C 	0.21281 0.35520 0.53067 -0.05700
C 	C 	0.19223 0.44150 0.51281 0.00400
C 	C 	0.19546 0.27120 0.49641 0.00400
C 	C 	0.15397 0.44860 0.46007 -0.12500
H 	H 	0.20380 0.49620 0.53600 0.02300
H 	H 	0.20900 0.21230 0.50910 0.02800
C 	C 	0.15812 0.27710 0.44389 -0.12200
C 	C 	0.13654 0.36490 0.42544 0.09200
H 	H 	0.14030 0.50750 0.44810 0.07000
H 	H 	0.14720 0.22220 0.42050 0.06200
C 	C 	0.09471 0.36740 0.37163 -0.14000
C 	C 	0.05970 0.40700 0.38013 0.07500
C 	C 	0.09451 0.32850 0.31523 0.08700
C 	C 	0.05765 0.44540 0.43610 -0.05600
N 	N 	0.01880 0.42050 0.33168 -0.32000
C 	C 	0.13034 0.31750 0.29724 -0.14000
N 	N 	0.05783 0.29866 0.26681 -0.31500
C 	C 	0.01650 0.47740 0.42217 -0.14200
H 	H 	0.08010 0.44790 0.47470 0.04600
C 	C 	0.99428 0.46160 0.35774 0.13400
H 	H 	0.15890 0.33170 0.32120 0.05900
C 	C 	0.11442 0.28180 0.23742 -0.07300
C 	C 	0.06971 0.26910 0.22031 -0.01600
H 	H 	0.00540 0.50420 0.44940 0.06200
H 	H 	0.96560 0.47820 0.33610 -0.03400
H 	H 	0.13010 0.26860 0.21310 0.02000
C 	C 	0.12107 0.99360 0.31793 -0.09400
C 	C 	0.03776 0.22370 0.16630 0.01300
C 	C 	0.11875 0.01950 0.37418 -0.10900
H 	H 	0.14400 0.96350 0.31240 0.02900
C 	C 	0.08175 0.02210 0.27088 -0.00200
C 	C 	0.03630 0.21750 0.10472 -0.10000
N 	N 	0.00327 0.18136 0.17143 -0.32500
C 	C 	0.07765 0.06300 0.35953 0.08200
H 	H 	0.13980 0.01030 0.41350 0.06100
H 	H 	0.07480 0.01330 0.22860 -0.01000
N 	N 	0.05592 0.06330 0.29538 -0.29200
H 	H 	0.05690 0.23990 0.09050 0.05400
C 	C 	0.99879 0.17230 0.07066 -0.04300
C 	C 	0.97815 0.14640 0.11174 0.10200
C 	C 	0.06035 0.09540 0.40254 -0.14700
H 	H 	0.98840 0.16040 0.02830 0.05500
C 	C 	0.08383 0.06710 0.46813 0.10600
C 	C 	0.08915 0.96980 0.48269 -0.13500
C 	C 	0.09978 0.13400 0.51554 -0.13800
H 	H 	0.07940 0.92520 0.45060 0.07100
C 	C 	0.10827 0.93670 0.54284 0.00900
C 	C 	0.12034 0.10260 0.57663 0.01000
H 	H 	0.09680 0.19930 0.50670 0.07900
H 	H 	0.11070 0.87130 0.55160 0.01900
C 	C 	0.12381 0.00470 0.58995 -0.05700
H 	H 	0.13170 0.14710 0.60850 0.02100
C 	C 	0.14177 0.97160 0.65271 0.07400
Ag	Ag	0.15400 0.86389 0.79129 0.52600
N 	N 	0.21781 0.84840 0.87218 -0.20000
C 	C 	0.24861 0.84980 0.91503 0.08700
C 	C 	0.28719 0.85520 0.96933 -0.05900
C 	C 	0.30777 0.94150 0.98719 0.00400
C 	C 	0.30454 0.77120 0.00359 0.00900
C 	C 	0.34603 0.94860 0.03993 -0.12400
H 	H 	0.29620 0.99620 0.96400 0.02300
H 	H 	0.29100 0.71230 0.99090 0.02600
C 	C 	0.34188 0.77710 0.05611 -0.12600
C 	C 	0.36346 0.86490 0.07456 0.09500
H 	H 	0.35970 0.00750 0.05190 0.07000
H 	H 	0.35280 0.72220 0.07950 0.06300
C 	C 	0.40529 0.86740 0.12837 -0.14500
C 	C 	0.44030 0.90700 0.11987 0.09200
C 	C 	0.40549 0.82850 0.18477 0.09000
C 	C 	0.44235 0.94540 0.06390 -0.09600
N 	N 	0.48120 0.92050 0.16832 -0.28900
C 	C 	0.36966 0.81750 0.20276 -0.13800
N 	N 	0.44217 0.79866 0.23319 -0.31400
C 	C 	0.48350 0.97740 0.07783 -0.04900
H 	H 	0.41990 0.94790 0.02530 0.06300
C 	C 	0.50572 0.96160 0.14226 0.03000
H 	H 	0.34110 0.83170 0.17880 0.05900
C 	C 	0.38558 0.78180 0.26258 -0.07700
C 	C 	0.43029 0.76910 0.27969 -0.00700
H 	H 	0.49460 0.00420 0.05060 0.04000
H 	H 	0.53440 0.97820 0.16390 -0.00600
H 	H 	0.36990 0.76860 0.28690 0.02200
C 	C 	0.37893 0.49360 0.18207 -0.09300
C 	C 	0.46224 0.72370 0.33370 -0.00300
C 	C 	0.38125 0.51950 0.12582 -0.10900
H 	H 	0.35600 0.46350 0.18760 0.03000
C 	C 	0.41825 0.52210 0.22912 -0.00000
C 	C 	0.46370 0.71750 0.39528 -0.03300
N 	N 	0.49673 0.68136 0.32857 -0.30400
C 	C 	0.42235 0.56300 0.14047 0.08500
H 	H 	0.36020 0.51030 0.08650 0.06200
H 	H 	0.42520 0.51330 0.27140 -0.00600
N 	N 	0.44408 0.56330 0.20462 -0.28800
H 	H 	0.44310 0.73990 0.40950 0.03600
C 	C 	0.50121 0.67230 0.42934 -0.10600
C 	C 	0.52185 0.64640 0.38826 0.09400
C 	C 	0.43965 0.59540 0.09746 -0.14600
H 	H 	0.51160 0.66040 0.47170 0.06800
C 	C 	0.41617 0.56710 0.03187 0.10800
C 	C 	0.41085 0.46980 0.01731 -0.13500
C 	C 	0.40022 0.63400 0.98446 -0.13900
H 	H 	0.42060 0.42520 0.04940 0.07500
C 	C 	0.39173 0.43670 0.95716 0.01200
C 	C 	0.37966 0.60260 0.92337 0.01200
H 	H 	0.40320 0.69930 0.99330 0.08000
H 	H 	0.38930 0.37130 0.94840 0.02000
C 	C 	0.37619 0.50470 0.91005 -0.05700
H 	H 	0.36830 0.64710 0.89150 0.02200
C 	C 	0.35823 0.47160 0.84729 0.07600
Ag	Ag	0.65400 0.36389 0.79129 0.52600
N 	N 	0.71781 0.34840 0.87218 -0.20000
C 	C 	0.74861 0.34980 0.91503 0.08800
C 	C 	0.78719 0.35520 0.96933 -0.06000
C 	C 	0.80777 0.44150 0.98719 0.00700
C 	C 	0.80454 0.27120 0.00359 0.00900
C 	C 	0.84603 0.44860 0.03993 -0.12900
H 	H 	0.79620 0.49620 0.96400 0.02200
H 	H 	0.79100 0.21230 0.99090 0.02600
C 	C 	0.84188 0.27710 0.05611 -0.12700
C 	C 	0.86346 0.36490 0.07456 0.09900
H 	H 	0.85970 0.50750 0.05190 0.07400
H 	H 	0.85280 0.22220 0.07950 0.06400
C 	C 	0.90529 0.36740 0.12837 -0.15000
C 	C 	0.94030 0.40700 0.11987 0.10800
C 	C 	0.90549 0.32850 0.18477 0.09300
C 	C 	0.94235 0.44540 0.06390 -0.13400
N 	N 	0.98120 0.42050 0.16832 -0.25500
C 	C 	0.86966 0.31750 0.20276 -0.13700
N 	N 	0.94217 0.29866 0.23319 -0.30900
C 	C 	0.98350 0.47740 0.07783 0.03800
H 	H 	0.91990 0.44790 0.02530 0.07900
C 	C 	0.00572 0.46160 0.14226 -0.06900
H 	H 	0.84110 0.33170 0.17880 0.05900
C 	C 	0.88558 0.28180 0.26258 -0.08200
C 	C 	0.93029 0.26910 0.27969 0.00400
H 	H 	0.99460 0.50420 0.05060 0.02300
H 	H 	0.03440 0.47820 0.16390 0.02200
H 	H 	0.86990 0.26860 0.28690 0.02400
C 	C 	0.87893 0.99360 0.18207 -0.08900
C 	C 	0.96224 0.22370 0.33370 -0.01700
C 	C 	0.88125 0.01950 0.12582 -0.11100
H 	H 	0.85600 0.96350 0.18760 0.03000
C 	C 	0.91825 0.02210 0.22912 -0.00100
C 	C 	0.96370 0.21750 0.39528 0.03500
N 	N 	0.99673 0.18136 0.32857 -0.28000
C 	C 	0.92235 0.06300 0.14047 0.08900
H 	H 	0.86020 0.01030 0.08650 0.06300
H 	H 	0.92520 0.01330 0.27140 -0.00100
N 	N 	0.94408 0.06330 0.20462 -0.28100
H 	H 	0.94310 0.23990 0.40950 0.01800
C 	C 	0.00121 0.17230 0.42934 -0.16900
C 	C 	0.02185 0.14640 0.38826 0.08500
C 	C 	0.93965 0.09540 0.09746 -0.14200
H 	H 	0.01160 0.16040 0.47170 0.08200
C 	C 	0.91617 0.06710 0.03187 0.10400
C 	C 	0.91085 0.96980 0.01731 -0.12500
C 	C 	0.90022 0.13400 0.98446 -0.13400
H 	H 	0.92060 0.92520 0.04940 0.07600
C 	C 	0.89173 0.93670 0.95716 0.00500
C 	C 	0.87966 0.10260 0.92337 0.00900
H 	H 	0.90320 0.19930 0.99330 0.07900
H 	H 	0.88930 0.87130 0.94840 0.02500
C 	C 	0.87619 0.00470 0.91005 -0.05100
H 	H 	0.86830 0.14710 0.89150 0.02500
C 	C 	0.85823 0.97160 0.84729 0.07500
Zn	Zn	0.50000 0.85588 0.25000 1.16100
Zn	Zn	0.50000 0.62914 0.25000 1.15800
Zn	Zn	0.00000 0.35588 0.25000 1.15200
Zn	Zn	0.00000 0.12914 0.25000 1.14800
