data_crystal

_cell_length_a 16.64410
_cell_length_b 16.64410
_cell_length_c 33.14600
_cell_angle_alpha 114.26480
_cell_angle_beta  114.26480
_cell_angle_gamma 45.44070

_symmetry_space_group_name_	'P 1'
_symmetry_space_group_name_H-M	'P 1'

loop_
_symmetry_equiv_pos_as_xyz
  x,y,z

loop_
_atom_site_label
_atom_site_type_symbol
_atom_site_fract_x
_atom_site_fract_y
_atom_site_fract_z
_atom_site_charge
Ag	Ag	0.01186 0.42214 0.22645 0.60100
Ga	Ga	0.54800 0.58218 0.41239 2.01700
C 	C 	0.67372 0.33672 0.36053 0.03700
H 	H 	0.74530 0.32070 0.37320 -0.00100
C 	C 	0.65983 0.25823 0.32715 -0.04300
H 	H 	0.71830 0.18230 0.31410 0.06600
C 	C 	0.54522 0.31402 0.31768 -0.09500
H 	H 	0.50850 0.28430 0.29610 0.07000
C 	C 	0.49051 0.42431 0.34573 0.11200
C 	C 	0.37402 0.51002 0.34796 -0.17800
C 	C 	0.32033 0.61933 0.37556 0.12600
C 	C 	0.20425 0.70285 0.37988 -0.11500
H 	H 	0.14640 0.69600 0.36460 0.13200
C 	C 	0.19004 0.79744 0.41067 -0.01600
H 	H 	0.12120 0.86760 0.42060 0.05400
C 	C 	0.29754 0.76834 0.42396 0.02400
H 	H 	0.31250 0.81810 0.44490 0.00300
C 	C 	0.29703 0.48343 0.31750 0.15500
C 	C 	0.30742 0.39622 0.32135 -0.17700
H 	H 	0.36500 0.35140 0.34400 0.09800
C 	C 	0.23425 0.37505 0.29244 0.10300
H 	H 	0.24380 0.31420 0.29540 0.03000
C 	C 	0.14167 0.51767 0.25629 0.12600
H 	H 	0.08350 0.56010 0.23310 0.02900
C 	C 	0.21141 0.54561 0.28363 -0.16600
H 	H 	0.20090 0.60570 0.27930 0.12000
C 	C 	0.43063 0.62943 0.97223 0.03300
H 	H 	0.36860 0.64740 0.94740 -0.00500
C 	C 	0.42566 0.64666 0.01702 -0.04000
H 	H 	0.36170 0.67750 0.02730 0.04500
C 	C 	0.53019 0.61059 0.04219 -0.09700
H 	H 	0.55320 0.61140 0.07370 0.06600
C 	C 	0.59946 0.57126 0.01300 0.11000
C 	C 	0.71129 0.53129 0.02416 -0.17400
C 	C 	0.77407 0.50547 0.99638 0.11300
C 	C 	0.88824 0.46364 0.00754 -0.10200
H 	H 	0.93740 0.44860 0.03620 0.07100
C 	C 	0.91502 0.44882 0.97002 -0.03900
H 	H 	0.98550 0.42190 0.96730 0.04500
C 	C 	0.81622 0.48182 0.93608 0.02900
H 	H 	0.81060 0.48020 0.90610 -0.00000
C 	C 	0.77283 0.51403 0.07237 0.14700
C 	C 	0.79812 0.58392 0.10158 -0.17100
H 	H 	0.77560 0.64520 0.09230 0.09600
C 	C 	0.85797 0.56237 0.14532 0.07800
H 	H 	0.87440 0.61120 0.16580 0.04000
C 	C 	0.86724 0.41044 0.13054 0.09300
H 	H 	0.89200 0.34860 0.14030 0.03100
C 	C 	0.80667 0.42707 0.08722 -0.17900
H 	H 	0.78880 0.37860 0.06790 0.09500
C 	C 	0.41228 0.68948 0.32911 0.03000
H 	H 	0.34280 0.72040 0.33480 0.00400
C 	C 	0.42072 0.70152 0.29130 -0.03600
H 	H 	0.35950 0.74250 0.26820 0.05100
C 	C 	0.53442 0.64242 0.29492 -0.10400
H 	H 	0.56770 0.63270 0.27410 0.07100
C 	C 	0.59344 0.59864 0.33499 0.11700
C 	C 	0.71098 0.53438 0.35195 -0.17500
C 	C 	0.76969 0.49049 0.39174 0.11200
C 	C 	0.88781 0.43101 0.41108 -0.09900
H 	H 	0.94390 0.40990 0.39860 0.07200
C 	C 	0.90582 0.41002 0.45072 -0.04200
H 	H 	0.97640 0.37280 0.47150 0.04800
C 	C 	0.80058 0.45378 0.45482 0.03700
H 	H 	0.78960 0.44900 0.47940 -0.00200
C 	C 	0.78321 0.50841 0.32501 0.15000
C 	C 	0.86072 0.39812 0.30307 -0.18000
H 	H 	0.87090 0.33630 0.30540 0.09900
C 	C 	0.92280 0.37880 0.27797 0.09500
H 	H 	0.97660 0.30240 0.26350 0.03500
C 	C 	0.83785 0.56605 0.29289 0.09300
H 	H 	0.82950 0.62570 0.28950 0.02700
C 	C 	0.76911 0.59551 0.31982 -0.17300
H 	H 	0.71540 0.67280 0.33370 0.09600
N 	N 	0.57416 0.43556 0.37191 -0.36000
N 	N 	0.37745 0.66245 0.40390 -0.35800
N 	N 	0.15145 0.43505 0.26070 -0.18100
N 	N 	0.53343 0.58483 0.96922 -0.36300
N 	N 	0.73123 0.51583 0.95114 -0.36300
N 	N 	0.89253 0.47653 0.15933 -0.17500
N 	N 	0.51471 0.62911 0.35542 -0.36000
N 	N 	0.71744 0.50304 0.42055 -0.36200
N 	N 	0.91121 0.46201 0.27285 -0.17600
P 	P 	0.19673 0.12951 0.21417 1.03600
F 	F 	0.20015 0.03375 0.21176 -0.45800
F 	F 	0.27901 0.05201 0.18031 -0.46100
F 	F 	0.08420 0.22260 0.19716 -0.58000
F 	F 	0.26195 0.14155 0.25654 -0.55100
Ag	Ag	0.57786 0.98814 0.27355 0.60000
Ga	Ga	0.41782 0.45200 0.08761 2.01600
C 	C 	0.66328 0.32628 0.13947 0.03600
H 	H 	0.67930 0.25470 0.12680 -0.00200
C 	C 	0.74177 0.34017 0.17285 -0.04400
H 	H 	0.81770 0.28170 0.18590 0.06600
C 	C 	0.68598 0.45478 0.18232 -0.09600
H 	H 	0.71570 0.49150 0.20390 0.06900
C 	C 	0.57569 0.50949 0.15427 0.11100
C 	C 	0.48998 0.62598 0.15204 -0.17900
C 	C 	0.38067 0.67967 0.12444 0.12500
C 	C 	0.29715 0.79575 0.12012 -0.11600
H 	H 	0.30400 0.85360 0.13540 0.13100
C 	C 	0.20256 0.80996 0.08933 -0.01700
H 	H 	0.13240 0.87880 0.07940 0.05400
C 	C 	0.23166 0.70246 0.07604 0.02400
H 	H 	0.18190 0.68750 0.05510 0.00300
C 	C 	0.51657 0.70297 0.18250 0.15500
C 	C 	0.60378 0.69258 0.17865 -0.17700
H 	H 	0.64860 0.63500 0.15600 0.09800
C 	C 	0.62495 0.76575 0.20756 0.10300
H 	H 	0.68580 0.75620 0.20460 0.03000
C 	C 	0.48233 0.85833 0.24371 0.12600
H 	H 	0.43990 0.91650 0.26690 0.02900
C 	C 	0.45439 0.78859 0.21637 -0.16600
H 	H 	0.39430 0.79910 0.22070 0.12000
C 	C 	0.37057 0.56937 0.52777 0.03300
H 	H 	0.35260 0.63140 0.55260 -0.00500
C 	C 	0.35334 0.57434 0.48298 -0.04000
H 	H 	0.32250 0.63830 0.47270 0.04500
C 	C 	0.38941 0.46981 0.45781 -0.09800
H 	H 	0.38860 0.44680 0.42630 0.06600
C 	C 	0.42874 0.40054 0.48700 0.11000
C 	C 	0.46871 0.28871 0.47584 -0.17400
C 	C 	0.49453 0.22593 0.50362 0.11300
C 	C 	0.53636 0.11176 0.49246 -0.10300
H 	H 	0.55140 0.06260 0.46380 0.07100
C 	C 	0.55118 0.08498 0.52998 -0.03800
H 	H 	0.57810 0.01450 0.53270 0.04500
C 	C 	0.51818 0.18378 0.56392 0.02900
H 	H 	0.51980 0.18940 0.59390 -0.00000
C 	C 	0.48597 0.22717 0.42763 0.14700
C 	C 	0.41608 0.20188 0.39842 -0.17100
H 	H 	0.35480 0.22440 0.40770 0.09600
C 	C 	0.43763 0.14203 0.35468 0.07800
H 	H 	0.38880 0.12560 0.33420 0.04000
C 	C 	0.58956 0.13276 0.36946 0.09300
H 	H 	0.65140 0.10800 0.35970 0.03100
C 	C 	0.57293 0.19333 0.41278 -0.18000
H 	H 	0.62140 0.21120 0.43210 0.09500
C 	C 	0.31052 0.58772 0.17089 0.03000
H 	H 	0.27960 0.65720 0.16520 0.00400
C 	C 	0.29848 0.57928 0.20870 -0.03600
H 	H 	0.25750 0.64050 0.23180 0.05100
C 	C 	0.35758 0.46558 0.20508 -0.10400
H 	H 	0.36730 0.43230 0.22590 0.07100
C 	C 	0.40136 0.40656 0.16501 0.11700
C 	C 	0.46562 0.28902 0.14805 -0.17500
C 	C 	0.50951 0.23031 0.10826 0.11200
C 	C 	0.56899 0.11219 0.08892 -0.09900
H 	H 	0.59010 0.05610 0.10140 0.07200
C 	C 	0.58998 0.09418 0.04928 -0.04200
H 	H 	0.62720 0.02360 0.02850 0.04800
C 	C 	0.54622 0.19942 0.04518 0.03700
H 	H 	0.55100 0.21040 0.02060 -0.00200
C 	C 	0.49159 0.21679 0.17499 0.15000
C 	C 	0.60188 0.13928 0.19693 -0.18000
H 	H 	0.66370 0.12910 0.19460 0.09900
C 	C 	0.62120 0.07720 0.22203 0.09500
H 	H 	0.69760 0.02340 0.23650 0.03500
C 	C 	0.43395 0.16215 0.20711 0.09300
H 	H 	0.37430 0.17050 0.21050 0.02700
C 	C 	0.40449 0.23089 0.18018 -0.17300
H 	H 	0.32720 0.28460 0.16630 0.09600
N 	N 	0.56444 0.42584 0.12809 -0.36000
N 	N 	0.33755 0.62255 0.09610 -0.35800
N 	N 	0.56495 0.84855 0.23930 -0.18100
N 	N 	0.41517 0.46657 0.53078 -0.36300
N 	N 	0.48417 0.26877 0.54886 -0.36300
N 	N 	0.52347 0.10747 0.34067 -0.17500
N 	N 	0.37089 0.48529 0.14458 -0.36000
N 	N 	0.49696 0.28256 0.07945 -0.36200
N 	N 	0.53799 0.08879 0.22715 -0.17600
P 	P 	0.87049 0.80327 0.28583 1.03600
F 	F 	0.96625 0.79985 0.28824 -0.45800
F 	F 	0.94799 0.72099 0.31969 -0.46100
F 	F 	0.77740 0.91580 0.30284 -0.58000
F 	F 	0.85845 0.73805 0.24346 -0.55100
Ag	Ag	0.98814 0.57786 0.77355 0.60000
Ga	Ga	0.45200 0.41782 0.58761 2.01600
C 	C 	0.32628 0.66328 0.63947 0.03600
H 	H 	0.25470 0.67930 0.62680 -0.00200
C 	C 	0.34017 0.74177 0.67285 -0.04400
H 	H 	0.28170 0.81770 0.68590 0.06500
C 	C 	0.45478 0.68598 0.68232 -0.09600
H 	H 	0.49150 0.71570 0.70390 0.06900
C 	C 	0.50949 0.57569 0.65427 0.11100
C 	C 	0.62598 0.48998 0.65204 -0.17900
C 	C 	0.67967 0.38067 0.62444 0.12500
C 	C 	0.79575 0.29715 0.62012 -0.11600
H 	H 	0.85360 0.30400 0.63540 0.13100
C 	C 	0.80996 0.20256 0.58933 -0.01700
H 	H 	0.87880 0.13240 0.57940 0.05400
C 	C 	0.70246 0.23166 0.57604 0.02400
H 	H 	0.68750 0.18190 0.55510 0.00300
C 	C 	0.70297 0.51657 0.68250 0.15500
C 	C 	0.69258 0.60378 0.67865 -0.17700
H 	H 	0.63500 0.64860 0.65600 0.09800
C 	C 	0.76575 0.62495 0.70756 0.10300
H 	H 	0.75620 0.68580 0.70460 0.03000
C 	C 	0.85833 0.48233 0.74371 0.12600
H 	H 	0.91650 0.43990 0.76690 0.02900
C 	C 	0.78859 0.45439 0.71637 -0.16600
H 	H 	0.79910 0.39430 0.72070 0.12000
C 	C 	0.56937 0.37057 0.02777 0.03300
H 	H 	0.63140 0.35260 0.05260 -0.00500
C 	C 	0.57434 0.35334 0.98298 -0.04000
H 	H 	0.63830 0.32250 0.97270 0.04500
C 	C 	0.46981 0.38941 0.95781 -0.09700
H 	H 	0.44680 0.38860 0.92630 0.06600
C 	C 	0.40054 0.42874 0.98700 0.11000
C 	C 	0.28871 0.46871 0.97584 -0.17400
C 	C 	0.22593 0.49453 0.00362 0.11300
C 	C 	0.11176 0.53636 0.99246 -0.10200
H 	H 	0.06260 0.55140 0.96380 0.07100
C 	C 	0.08498 0.55118 0.02998 -0.03900
H 	H 	0.01450 0.57810 0.03270 0.04500
C 	C 	0.18378 0.51818 0.06392 0.02900
H 	H 	0.18940 0.51980 0.09390 -0.00000
C 	C 	0.22717 0.48597 0.92763 0.14700
C 	C 	0.20188 0.41608 0.89842 -0.17100
H 	H 	0.22440 0.35480 0.90770 0.09600
C 	C 	0.14203 0.43763 0.85468 0.07800
H 	H 	0.12560 0.38880 0.83420 0.04000
C 	C 	0.13276 0.58956 0.86946 0.09300
H 	H 	0.10800 0.65140 0.85970 0.03100
C 	C 	0.19333 0.57293 0.91278 -0.17900
H 	H 	0.21120 0.62140 0.93210 0.09500
C 	C 	0.58772 0.31052 0.67089 0.03000
H 	H 	0.65720 0.27960 0.66520 0.00400
C 	C 	0.57928 0.29848 0.70870 -0.03600
H 	H 	0.64050 0.25750 0.73180 0.05100
C 	C 	0.46558 0.35758 0.70508 -0.10400
H 	H 	0.43230 0.36730 0.72590 0.07100
C 	C 	0.40656 0.40136 0.66501 0.11700
C 	C 	0.28902 0.46562 0.64805 -0.17500
C 	C 	0.23031 0.50951 0.60826 0.11200
C 	C 	0.11219 0.56899 0.58892 -0.09900
H 	H 	0.05610 0.59010 0.60140 0.07200
C 	C 	0.09418 0.58998 0.54928 -0.04200
H 	H 	0.02360 0.62720 0.52850 0.04800
C 	C 	0.19942 0.54622 0.54518 0.03700
H 	H 	0.21040 0.55100 0.52060 -0.00200
C 	C 	0.21679 0.49159 0.67499 0.15000
C 	C 	0.13928 0.60188 0.69693 -0.18000
H 	H 	0.12910 0.66370 0.69460 0.09900
C 	C 	0.07720 0.62120 0.72203 0.09500
H 	H 	0.02340 0.69760 0.73650 0.03500
C 	C 	0.16215 0.43395 0.70711 0.09300
H 	H 	0.17050 0.37430 0.71050 0.02700
C 	C 	0.23089 0.40449 0.68018 -0.17300
H 	H 	0.28460 0.32720 0.66630 0.09600
N 	N 	0.42584 0.56444 0.62809 -0.36000
N 	N 	0.62255 0.33755 0.59610 -0.35800
N 	N 	0.84855 0.56495 0.73930 -0.18100
N 	N 	0.46657 0.41517 0.03078 -0.36300
N 	N 	0.26877 0.48417 0.04886 -0.36300
N 	N 	0.10747 0.52347 0.84067 -0.17500
N 	N 	0.48529 0.37089 0.64458 -0.36000
N 	N 	0.28256 0.49696 0.57945 -0.36200
N 	N 	0.08879 0.53799 0.72715 -0.17600
P 	P 	0.80327 0.87049 0.78583 1.03600
F 	F 	0.79985 0.96625 0.78824 -0.45800
F 	F 	0.72099 0.94799 0.81969 -0.46100
F 	F 	0.91580 0.77740 0.80284 -0.58000
F 	F 	0.73805 0.85845 0.74346 -0.55100
Ag	Ag	0.42214 0.01186 0.72645 0.60000
Ga	Ga	0.58218 0.54800 0.91239 2.01600
C 	C 	0.33672 0.67372 0.86053 0.03600
H 	H 	0.32070 0.74530 0.87320 -0.00200
C 	C 	0.25823 0.65983 0.82715 -0.04400
H 	H 	0.18230 0.71830 0.81410 0.06600
C 	C 	0.31402 0.54522 0.81768 -0.09600
H 	H 	0.28430 0.50850 0.79610 0.06900
C 	C 	0.42431 0.49051 0.84573 0.11100
C 	C 	0.51002 0.37402 0.84796 -0.17900
C 	C 	0.61933 0.32033 0.87556 0.12500
C 	C 	0.70285 0.20425 0.87988 -0.11600
H 	H 	0.69600 0.14640 0.86460 0.13100
C 	C 	0.79744 0.19004 0.91067 -0.01700
H 	H 	0.86760 0.12120 0.92060 0.05400
C 	C 	0.76834 0.29754 0.92396 0.02400
H 	H 	0.81810 0.31250 0.94490 0.00300
C 	C 	0.48343 0.29703 0.81750 0.15500
C 	C 	0.39622 0.30742 0.82135 -0.17700
H 	H 	0.35140 0.36500 0.84400 0.09800
C 	C 	0.37505 0.23425 0.79244 0.10300
H 	H 	0.31420 0.24380 0.79540 0.03000
C 	C 	0.51767 0.14167 0.75629 0.12600
H 	H 	0.56010 0.08350 0.73310 0.02900
C 	C 	0.54561 0.21141 0.78363 -0.16600
H 	H 	0.60570 0.20090 0.77930 0.12000
C 	C 	0.62943 0.43063 0.47223 0.03300
H 	H 	0.64740 0.36860 0.44740 -0.00500
C 	C 	0.64666 0.42566 0.51702 -0.04000
H 	H 	0.67750 0.36170 0.52730 0.04500
C 	C 	0.61059 0.53019 0.54219 -0.09800
H 	H 	0.61140 0.55320 0.57370 0.06600
C 	C 	0.57126 0.59946 0.51300 0.11000
C 	C 	0.53129 0.71129 0.52416 -0.17400
C 	C 	0.50547 0.77407 0.49638 0.11300
C 	C 	0.46364 0.88824 0.50754 -0.10300
H 	H 	0.44860 0.93740 0.53620 0.07100
C 	C 	0.44882 0.91502 0.47002 -0.03800
H 	H 	0.42190 0.98550 0.46730 0.04500
C 	C 	0.48182 0.81622 0.43608 0.02900
H 	H 	0.48020 0.81060 0.40610 -0.00000
C 	C 	0.51403 0.77283 0.57237 0.14700
C 	C 	0.58392 0.79812 0.60158 -0.17100
H 	H 	0.64520 0.77560 0.59230 0.09600
C 	C 	0.56237 0.85797 0.64532 0.07800
H 	H 	0.61120 0.87440 0.66580 0.04000
C 	C 	0.41044 0.86724 0.63054 0.09300
H 	H 	0.34860 0.89200 0.64030 0.03100
C 	C 	0.42707 0.80667 0.58722 -0.18000
H 	H 	0.37860 0.78880 0.56790 0.09500
C 	C 	0.68948 0.41228 0.82911 0.03000
H 	H 	0.72040 0.34280 0.83480 0.00400
C 	C 	0.70152 0.42072 0.79130 -0.03600
H 	H 	0.74250 0.35950 0.76820 0.05100
C 	C 	0.64242 0.53442 0.79492 -0.10400
H 	H 	0.63270 0.56770 0.77410 0.07100
C 	C 	0.59864 0.59344 0.83499 0.11700
C 	C 	0.53438 0.71098 0.85195 -0.17500
C 	C 	0.49049 0.76969 0.89174 0.11200
C 	C 	0.43101 0.88781 0.91108 -0.09900
H 	H 	0.40990 0.94390 0.89860 0.07200
C 	C 	0.41002 0.90582 0.95072 -0.04200
H 	H 	0.37280 0.97640 0.97150 0.04800
C 	C 	0.45378 0.80058 0.95482 0.03700
H 	H 	0.44900 0.78960 0.97940 -0.00200
C 	C 	0.50841 0.78321 0.82501 0.15000
C 	C 	0.39812 0.86072 0.80307 -0.18000
H 	H 	0.33630 0.87090 0.80540 0.09900
C 	C 	0.37880 0.92280 0.77797 0.09500
H 	H 	0.30240 0.97660 0.76350 0.03500
C 	C 	0.56605 0.83785 0.79289 0.09300
H 	H 	0.62570 0.82950 0.78950 0.02700
C 	C 	0.59551 0.76911 0.81982 -0.17300
H 	H 	0.67280 0.71540 0.83370 0.09600
N 	N 	0.43556 0.57416 0.87191 -0.36000
N 	N 	0.66245 0.37745 0.90390 -0.35800
N 	N 	0.43505 0.15145 0.76070 -0.18100
N 	N 	0.58483 0.53343 0.46922 -0.36300
N 	N 	0.51583 0.73123 0.45114 -0.36300
N 	N 	0.47653 0.89253 0.65933 -0.17500
N 	N 	0.62911 0.51471 0.85542 -0.36000
N 	N 	0.50304 0.71744 0.92055 -0.36200
N 	N 	0.46201 0.91121 0.77285 -0.17600
P 	P 	0.12951 0.19673 0.71417 1.03600
F 	F 	0.03375 0.20015 0.71176 -0.45800
F 	F 	0.05201 0.27901 0.68031 -0.46100
F 	F 	0.22260 0.08420 0.69716 -0.58000
F 	F 	0.14155 0.26195 0.75654 -0.55100
