data_crystal

_cell_length_a 17.16790
_cell_length_b 17.16790
_cell_length_c 33.71500
_cell_angle_alpha 113.38210
_cell_angle_beta  113.38210
_cell_angle_gamma 44.00470

_symmetry_space_group_name_	'P 1'
_symmetry_space_group_name_H-M	'P 1'

loop_
_symmetry_equiv_pos_as_xyz
  x,y,z

loop_
_atom_site_label
_atom_site_type_symbol
_atom_site_fract_x
_atom_site_fract_y
_atom_site_fract_z
_atom_site_charge
Ag	Ag	0.53248 0.01728 0.76951 0.62900
C 	C 	0.86433 0.15713 0.64704 0.02100
H 	H 	0.79090 0.18090 0.63580 0.00400
C 	C 	0.88590 0.22510 0.68033 -0.02200
H 	H 	0.83180 0.30040 0.69470 0.07000
C 	C 	0.00152 0.15892 0.68743 -0.10600
H 	H 	0.04260 0.18040 0.70840 0.07200
C 	C 	0.04922 0.05422 0.65854 0.07600
C 	C 	0.16473 0.96193 0.65494 -0.14900
C 	C 	0.21326 0.85706 0.62665 0.11000
C 	C 	0.33034 0.76794 0.62068 -0.10500
H 	H 	0.39000 0.76820 0.63600 0.12800
C 	C 	0.33940 0.68420 0.58942 -0.01500
H 	H 	0.40650 0.61450 0.57830 0.05500
C 	C 	0.23229 0.71869 0.57641 0.02200
H 	H 	0.21600 0.67420 0.55460 0.00300
C 	C 	0.24325 0.97905 0.68424 0.16100
C 	C 	0.32785 0.91285 0.71651 -0.16600
H 	H 	0.33650 0.85490 0.72030 0.12100
C 	C 	0.39949 0.93309 0.74305 0.14500
H 	H 	0.45560 0.88840 0.76540 0.05600
C 	C 	0.31270 0.07450 0.70803 0.10700
H 	H 	0.30760 0.13060 0.70480 0.03000
C 	C 	0.23701 0.06301 0.68103 -0.18500
H 	H 	0.17980 0.11160 0.65990 0.10000
C 	C 	0.70520 0.06860 0.56040 0.01500
H 	H 	0.70970 0.08510 0.53800 0.00300
C 	C 	0.60350 0.10930 0.56640 -0.02600
H 	H 	0.52920 0.15740 0.55000 0.04500
C 	C 	0.63560 0.06360 0.60140 -0.10900
H 	H 	0.58640 0.07280 0.61280 0.08100
C 	C 	0.75167 0.00187 0.61739 0.11900
C 	C 	0.81809 0.94129 0.65174 -0.16300
C 	C 	0.93524 0.87304 0.66660 0.06500
C 	C 	0.00120 0.81820 0.70451 -0.03500
H 	H 	0.97250 0.81970 0.72400 0.03900
C 	C 	0.11030 0.76470 0.70764 -0.06600
H 	H 	0.17290 0.71970 0.72900 0.06500
C 	C 	0.11400 0.78800 0.67294 0.03500
H 	H 	0.18050 0.76330 0.66830 0.00000
C 	C 	0.75568 0.95108 0.67680 0.13000
C 	C 	0.67317 0.05677 0.69964 -0.14800
H 	H 	0.65550 0.12290 0.69880 0.09900
C 	C 	0.61760 0.06460 0.72340 0.08000
H 	H 	0.56260 0.13700 0.73910 0.06200
C 	C 	0.71570 0.87490 0.70330 0.08400
H 	H 	0.73050 0.81050 0.70420 0.05100
C 	C 	0.77640 0.86040 0.67913 -0.16400
H 	H 	0.83230 0.78690 0.66430 0.09300
C 	C 	0.07067 0.87767 0.02697 0.04700
H 	H 	0.12750 0.86670 0.05180 -0.01200
C 	C 	0.08353 0.85073 0.98342 -0.02700
H 	H 	0.14830 0.81810 0.97370 0.03700
C 	C 	0.98286 0.88146 0.95816 -0.12100
H 	H 	0.96370 0.87570 0.92720 0.06800
C 	C 	0.91178 0.92358 0.98634 0.10300
C 	C 	0.80310 0.96090 0.97354 -0.16300
C 	C 	0.73044 0.99824 0.99995 0.09300
C 	C 	0.62170 0.03550 0.98610 -0.09300
H 	H 	0.58080 0.04080 0.95690 0.07200
C 	C 	0.58530 0.06290 0.02260 -0.03400
H 	H 	0.51400 0.09080 0.02340 0.04500
C 	C 	0.67060 0.04320 0.05830 0.01900
H 	H 	0.66650 0.05550 0.08770 0.00300
C 	C 	0.75205 0.96385 0.92587 0.12700
C 	C 	0.70630 0.05010 0.90713 -0.14800
H 	H 	0.71030 0.10690 0.92390 0.08800
C 	C 	0.65316 0.05356 0.86265 0.07700
H 	H 	0.62010 0.11450 0.85010 0.04700
C 	C 	0.69655 0.88955 0.85585 0.07200
H 	H 	0.69540 0.83140 0.83810 0.06500
C 	C 	0.74954 0.88074 0.89950 -0.16000
H 	H 	0.78360 0.81780 0.91090 0.09400
In	In	0.97326 0.91142 0.59017 1.93600
N 	N 	0.96043 0.05483 0.63327 -0.31900
N 	N 	0.15480 0.82080 0.59781 -0.32600
N 	N 	0.39509 0.00989 0.73943 -0.17100
N 	N 	0.79499 0.00379 0.59016 -0.32500
N 	N 	0.01151 0.84951 0.64754 -0.31600
N 	N 	0.63721 0.97681 0.72540 -0.16200
N 	N 	0.97153 0.91973 0.02950 -0.34600
N 	N 	0.75978 0.00438 0.04551 -0.32300
N 	N 	0.64760 0.97460 0.83767 -0.16100
P 	P 	0.68211 0.66585 0.72486 1.24900
F 	F 	0.78162 0.56652 0.70661 -0.58200
F 	F 	0.65881 0.59961 0.72665 -0.37600
F 	F 	0.66850 0.70790 0.77474 -0.37700
F 	F 	0.65872 0.76872 0.74994 -0.46600
F 	F 	0.57613 0.67793 0.70237 -0.32500
F 	F 	0.60945 0.74825 0.69198 -0.41200
Ag	Ag	0.98272 0.46752 0.73049 0.62800
C 	C 	0.84287 0.13567 0.85296 0.02000
H 	H 	0.81910 0.20910 0.86420 0.00300
C 	C 	0.77490 0.11410 0.81967 -0.02500
H 	H 	0.69960 0.16820 0.80530 0.06900
C 	C 	0.84108 0.99848 0.81257 -0.10600
H 	H 	0.81960 0.95740 0.79160 0.07100
C 	C 	0.94578 0.95078 0.84146 0.07600
C 	C 	0.03807 0.83527 0.84506 -0.15100
C 	C 	0.14294 0.78674 0.87335 0.10900
C 	C 	0.23206 0.66966 0.87932 -0.10600
H 	H 	0.23180 0.61000 0.86400 0.12700
C 	C 	0.31580 0.66060 0.91058 -0.01600
H 	H 	0.38550 0.59350 0.92170 0.05400
C 	C 	0.28131 0.76771 0.92359 0.02100
H 	H 	0.32580 0.78400 0.94540 0.00200
C 	C 	0.02095 0.75675 0.81576 0.16000
C 	C 	0.08715 0.67215 0.78349 -0.16500
H 	H 	0.14510 0.66350 0.77970 0.12100
C 	C 	0.06691 0.60051 0.75695 0.14400
H 	H 	0.11160 0.54440 0.73460 0.05700
C 	C 	0.92550 0.68730 0.79197 0.10600
H 	H 	0.86940 0.69240 0.79520 0.03000
C 	C 	0.93699 0.76299 0.81897 -0.18300
H 	H 	0.88840 0.82020 0.84010 0.09900
C 	C 	0.93140 0.29480 0.93960 0.01500
H 	H 	0.91490 0.29030 0.96200 0.00300
C 	C 	0.89070 0.39650 0.93360 -0.02600
H 	H 	0.84260 0.47080 0.95000 0.04500
C 	C 	0.93640 0.36440 0.89860 -0.10900
H 	H 	0.92720 0.41360 0.88720 0.08100
C 	C 	0.99813 0.24833 0.88261 0.12000
C 	C 	0.05871 0.18191 0.84826 -0.16300
C 	C 	0.12696 0.06476 0.83340 0.06200
C 	C 	0.18180 0.99880 0.79549 -0.03000
H 	H 	0.18030 0.02750 0.77600 0.03600
C 	C 	0.23530 0.88970 0.79236 -0.06800
H 	H 	0.28030 0.82710 0.77100 0.06600
C 	C 	0.21200 0.88600 0.82706 0.03600
H 	H 	0.23670 0.81950 0.83170 -0.00000
C 	C 	0.04892 0.24432 0.82320 0.12800
C 	C 	0.94323 0.32683 0.80036 -0.14700
H 	H 	0.87710 0.34450 0.80120 0.09900
C 	C 	0.93540 0.38240 0.77660 0.08100
H 	H 	0.86300 0.43740 0.76090 0.06200
C 	C 	0.12510 0.28430 0.79670 0.08300
H 	H 	0.18950 0.26950 0.79580 0.05100
C 	C 	0.13960 0.22360 0.82087 -0.16300
H 	H 	0.21310 0.16770 0.83570 0.09200
C 	C 	0.12233 0.92933 0.47303 0.04600
H 	H 	0.13330 0.87250 0.44820 -0.01200
C 	C 	0.14927 0.91647 0.51658 -0.02600
H 	H 	0.18190 0.85170 0.52630 0.03700
C 	C 	0.11854 0.01714 0.54184 -0.12200
H 	H 	0.12430 0.03630 0.57280 0.06700
C 	C 	0.07642 0.08822 0.51366 0.10100
C 	C 	0.03910 0.19690 0.52646 -0.16100
C 	C 	0.00176 0.26956 0.50005 0.08900
C 	C 	0.96450 0.37830 0.51390 -0.08700
H 	H 	0.95920 0.41920 0.54310 0.07100
C 	C 	0.93710 0.41470 0.47740 -0.03900
H 	H 	0.90920 0.48600 0.47660 0.04600
C 	C 	0.95680 0.32940 0.44170 0.02100
H 	H 	0.94450 0.33350 0.41230 0.00200
C 	C 	0.03615 0.24795 0.57413 0.12400
C 	C 	0.94990 0.29370 0.59287 -0.14500
H 	H 	0.89310 0.28970 0.57610 0.08800
C 	C 	0.94644 0.34684 0.63735 0.07700
H 	H 	0.88550 0.37990 0.64990 0.04700
C 	C 	0.11045 0.30345 0.64415 0.07100
H 	H 	0.16860 0.30460 0.66190 0.06500
C 	C 	0.11926 0.25046 0.60050 -0.15900
H 	H 	0.18220 0.21640 0.58910 0.09300
In	In	0.08858 0.02674 0.90983 1.93600
N 	N 	0.94517 0.03957 0.86673 -0.31900
N 	N 	0.17920 0.84520 0.90219 -0.32600
N 	N 	0.99011 0.60491 0.76057 -0.17000
N 	N 	0.99621 0.20501 0.90984 -0.32500
N 	N 	0.15049 0.98849 0.85246 -0.31500
N 	N 	0.02319 0.36279 0.77460 -0.16300
N 	N 	0.08027 0.02847 0.47050 -0.34400
N 	N 	0.99562 0.24022 0.45449 -0.32300
N 	N 	0.02540 0.35240 0.66233 -0.16100
P 	P 	0.33415 0.31789 0.77514 1.24900
F 	F 	0.43348 0.21838 0.79339 -0.58200
F 	F 	0.40039 0.34119 0.77335 -0.37600
F 	F 	0.29210 0.33150 0.72526 -0.37700
F 	F 	0.23128 0.34128 0.75006 -0.46600
F 	F 	0.32207 0.42387 0.79763 -0.32500
F 	F 	0.25175 0.39055 0.80802 -0.41200
Ag	Ag	0.46752 0.98272 0.23049 0.62800
C 	C 	0.13567 0.84287 0.35296 0.02000
H 	H 	0.20910 0.81910 0.36420 0.00300
C 	C 	0.11410 0.77490 0.31967 -0.02300
H 	H 	0.16820 0.69960 0.30530 0.06900
C 	C 	0.99848 0.84108 0.31257 -0.10700
H 	H 	0.95740 0.81960 0.29160 0.07100
C 	C 	0.95078 0.94578 0.34146 0.07500
C 	C 	0.83527 0.03807 0.34506 -0.15000
C 	C 	0.78674 0.14294 0.37335 0.10900
C 	C 	0.66966 0.23206 0.37932 -0.10600
H 	H 	0.61000 0.23180 0.36400 0.12700
C 	C 	0.66060 0.31580 0.41058 -0.01600
H 	H 	0.59350 0.38550 0.42170 0.05400
C 	C 	0.76771 0.28131 0.42359 0.02100
H 	H 	0.78400 0.32580 0.44540 0.00200
C 	C 	0.75675 0.02095 0.31576 0.16100
C 	C 	0.67215 0.08715 0.28349 -0.16600
H 	H 	0.66350 0.14510 0.27970 0.12100
C 	C 	0.60051 0.06691 0.25695 0.14500
H 	H 	0.54440 0.11160 0.23460 0.05600
C 	C 	0.68730 0.92550 0.29197 0.10700
H 	H 	0.69240 0.86940 0.29520 0.03000
C 	C 	0.76299 0.93699 0.31897 -0.18500
H 	H 	0.82020 0.88840 0.34010 0.10000
C 	C 	0.29480 0.93140 0.43960 0.01500
H 	H 	0.29030 0.91490 0.46200 0.00300
C 	C 	0.39650 0.89070 0.43360 -0.02600
H 	H 	0.47080 0.84260 0.45000 0.04500
C 	C 	0.36440 0.93640 0.39860 -0.10900
H 	H 	0.41360 0.92720 0.38720 0.08100
C 	C 	0.24833 0.99813 0.38261 0.11900
C 	C 	0.18191 0.05871 0.34826 -0.16300
C 	C 	0.06476 0.12696 0.33340 0.06500
C 	C 	0.99880 0.18180 0.29549 -0.03500
H 	H 	0.02750 0.18030 0.27600 0.03900
C 	C 	0.88970 0.23530 0.29236 -0.06600
H 	H 	0.82710 0.28030 0.27100 0.06500
C 	C 	0.88600 0.21200 0.32706 0.03500
H 	H 	0.81950 0.23670 0.33170 0.00000
C 	C 	0.24432 0.04892 0.32320 0.13000
C 	C 	0.32683 0.94323 0.30036 -0.14800
H 	H 	0.34450 0.87710 0.30120 0.09900
C 	C 	0.38240 0.93540 0.27660 0.08000
H 	H 	0.43740 0.86300 0.26090 0.06200
C 	C 	0.28430 0.12510 0.29670 0.08400
H 	H 	0.26950 0.18950 0.29580 0.05100
C 	C 	0.22360 0.13960 0.32087 -0.16400
H 	H 	0.16770 0.21310 0.33570 0.09300
C 	C 	0.92933 0.12233 0.97303 0.04700
H 	H 	0.87250 0.13330 0.94820 -0.01200
C 	C 	0.91647 0.14927 0.01658 -0.02700
H 	H 	0.85170 0.18190 0.02630 0.03700
C 	C 	0.01714 0.11854 0.04184 -0.12100
H 	H 	0.03630 0.12430 0.07280 0.06800
C 	C 	0.08822 0.07642 0.01366 0.10300
C 	C 	0.19690 0.03910 0.02646 -0.16300
C 	C 	0.26956 0.00176 0.00005 0.09300
C 	C 	0.37830 0.96450 0.01390 -0.09300
H 	H 	0.41920 0.95920 0.04310 0.07200
C 	C 	0.41470 0.93710 0.97740 -0.03400
H 	H 	0.48600 0.90920 0.97660 0.04500
C 	C 	0.32940 0.95680 0.94170 0.01900
H 	H 	0.33350 0.94450 0.91230 0.00300
C 	C 	0.24795 0.03615 0.07413 0.12700
C 	C 	0.29370 0.94990 0.09287 -0.14800
H 	H 	0.28970 0.89310 0.07610 0.08800
C 	C 	0.34684 0.94644 0.13735 0.07700
H 	H 	0.37990 0.88550 0.14990 0.04700
C 	C 	0.30345 0.11045 0.14415 0.07200
H 	H 	0.30460 0.16860 0.16190 0.06500
C 	C 	0.25046 0.11926 0.10050 -0.16000
H 	H 	0.21640 0.18220 0.08910 0.09400
In	In	0.02674 0.08858 0.40983 1.93600
N 	N 	0.03957 0.94517 0.36673 -0.31900
N 	N 	0.84520 0.17920 0.40219 -0.32600
N 	N 	0.60491 0.99011 0.26057 -0.17100
N 	N 	0.20501 0.99621 0.40984 -0.32500
N 	N 	0.98849 0.15049 0.35246 -0.31600
N 	N 	0.36279 0.02319 0.27460 -0.16200
N 	N 	0.02847 0.08027 0.97050 -0.34600
N 	N 	0.24022 0.99562 0.95449 -0.32300
N 	N 	0.35240 0.02540 0.16233 -0.16100
P 	P 	0.31789 0.33415 0.27514 1.24900
F 	F 	0.21838 0.43348 0.29339 -0.58200
F 	F 	0.34119 0.40039 0.27335 -0.37600
F 	F 	0.33150 0.29210 0.22526 -0.37700
F 	F 	0.34128 0.23128 0.25006 -0.46600
F 	F 	0.42387 0.32207 0.29763 -0.32500
F 	F 	0.39055 0.25175 0.30802 -0.41200
Ag	Ag	0.01728 0.53248 0.26951 0.62800
C 	C 	0.15713 0.86433 0.14704 0.02000
H 	H 	0.18090 0.79090 0.13580 0.00300
C 	C 	0.22510 0.88590 0.18033 -0.02500
H 	H 	0.30040 0.83180 0.19470 0.06900
C 	C 	0.15892 0.00152 0.18743 -0.10600
H 	H 	0.18040 0.04260 0.20840 0.07100
C 	C 	0.05422 0.04922 0.15854 0.07600
C 	C 	0.96193 0.16473 0.15494 -0.15100
C 	C 	0.85706 0.21326 0.12665 0.10900
C 	C 	0.76794 0.33034 0.12068 -0.10600
H 	H 	0.76820 0.39000 0.13600 0.12700
C 	C 	0.68420 0.33940 0.08942 -0.01600
H 	H 	0.61450 0.40650 0.07830 0.05400
C 	C 	0.71869 0.23229 0.07641 0.02100
H 	H 	0.67420 0.21600 0.05460 0.00200
C 	C 	0.97905 0.24325 0.18424 0.16000
C 	C 	0.91285 0.32785 0.21651 -0.16500
H 	H 	0.85490 0.33650 0.22030 0.12100
C 	C 	0.93309 0.39949 0.24305 0.14400
H 	H 	0.88840 0.45560 0.26540 0.05700
C 	C 	0.07450 0.31270 0.20803 0.10600
H 	H 	0.13060 0.30760 0.20480 0.03000
C 	C 	0.06301 0.23701 0.18103 -0.18300
H 	H 	0.11160 0.17980 0.15990 0.09900
C 	C 	0.06860 0.70520 0.06040 0.01500
H 	H 	0.08510 0.70970 0.03800 0.00300
C 	C 	0.10930 0.60350 0.06640 -0.02600
H 	H 	0.15740 0.52920 0.05000 0.04500
C 	C 	0.06360 0.63560 0.10140 -0.10900
H 	H 	0.07280 0.58640 0.11280 0.08100
C 	C 	0.00187 0.75167 0.11739 0.12000
C 	C 	0.94129 0.81809 0.15174 -0.16300
C 	C 	0.87304 0.93524 0.16660 0.06200
C 	C 	0.81820 0.00120 0.20451 -0.03000
H 	H 	0.81970 0.97250 0.22400 0.03600
C 	C 	0.76470 0.11030 0.20764 -0.06800
H 	H 	0.71970 0.17290 0.22900 0.06600
C 	C 	0.78800 0.11400 0.17294 0.03600
H 	H 	0.76330 0.18050 0.16830 -0.00000
C 	C 	0.95108 0.75568 0.17680 0.12800
C 	C 	0.05677 0.67317 0.19964 -0.14700
H 	H 	0.12290 0.65550 0.19880 0.09900
C 	C 	0.06460 0.61760 0.22340 0.08100
H 	H 	0.13700 0.56260 0.23910 0.06200
C 	C 	0.87490 0.71570 0.20330 0.08300
H 	H 	0.81050 0.73050 0.20420 0.05100
C 	C 	0.86040 0.77640 0.17913 -0.16300
H 	H 	0.78690 0.83230 0.16430 0.09200
C 	C 	0.87767 0.07067 0.52697 0.04600
H 	H 	0.86670 0.12750 0.55180 -0.01200
C 	C 	0.85073 0.08353 0.48342 -0.02600
H 	H 	0.81810 0.14830 0.47370 0.03700
C 	C 	0.88146 0.98286 0.45816 -0.12200
H 	H 	0.87570 0.96370 0.42720 0.06700
C 	C 	0.92358 0.91178 0.48634 0.10100
C 	C 	0.96090 0.80310 0.47354 -0.16100
C 	C 	0.99824 0.73044 0.49995 0.08900
C 	C 	0.03550 0.62170 0.48610 -0.08700
H 	H 	0.04080 0.58080 0.45690 0.07100
C 	C 	0.06290 0.58530 0.52260 -0.03900
H 	H 	0.09080 0.51400 0.52340 0.04600
C 	C 	0.04320 0.67060 0.55830 0.02100
H 	H 	0.05550 0.66650 0.58770 0.00200
C 	C 	0.96385 0.75205 0.42587 0.12400
C 	C 	0.05010 0.70630 0.40713 -0.14500
H 	H 	0.10690 0.71030 0.42390 0.08800
C 	C 	0.05356 0.65316 0.36265 0.07700
H 	H 	0.11450 0.62010 0.35010 0.04700
C 	C 	0.88955 0.69655 0.35585 0.07100
H 	H 	0.83140 0.69540 0.33810 0.06500
C 	C 	0.88074 0.74954 0.39950 -0.15900
H 	H 	0.81780 0.78360 0.41090 0.09300
In	In	0.91142 0.97326 0.09017 1.93600
N 	N 	0.05483 0.96043 0.13327 -0.31900
N 	N 	0.82080 0.15480 0.09781 -0.32600
N 	N 	0.00989 0.39509 0.23943 -0.17000
N 	N 	0.00379 0.79499 0.09016 -0.32500
N 	N 	0.84951 0.01151 0.14754 -0.31500
N 	N 	0.97681 0.63721 0.22540 -0.16300
N 	N 	0.91973 0.97153 0.52950 -0.34400
N 	N 	0.00438 0.75978 0.54551 -0.32300
N 	N 	0.97460 0.64760 0.33767 -0.16100
P 	P 	0.66585 0.68211 0.22486 1.24900
F 	F 	0.56652 0.78162 0.20661 -0.58200
F 	F 	0.59961 0.65881 0.22665 -0.37600
F 	F 	0.70790 0.66850 0.27474 -0.37700
F 	F 	0.76872 0.65872 0.24994 -0.46600
F 	F 	0.67793 0.57613 0.20237 -0.32500
F 	F 	0.74825 0.60945 0.19198 -0.41200
