data_crystal

_cell_length_a 9.78700
_cell_length_b 16.25460
_cell_length_c 16.25460
_cell_angle_alpha 63.92300
_cell_angle_beta  78.42200
_cell_angle_gamma 101.57800

_symmetry_space_group_name_	'P 1'
_symmetry_space_group_name_H-M	'P 1'

loop_
_symmetry_equiv_pos_as_xyz
  x,y,z

loop_
_atom_site_label
_atom_site_type_symbol
_atom_site_fract_x
_atom_site_fract_y
_atom_site_fract_z
_atom_site_charge
Cu	Cu	0.66706 0.02906 0.64218 0.79800
Cu	Cu	0.38068 0.01498 0.67814 0.78300
Cu	Cu	0.30924 0.64218 0.32876 0.79900
Cu	Cu	0.05882 0.67814 0.30688 0.78200
Cu	Cu	0.63800 0.32876 0.02906 0.79700
Cu	Cu	0.36570 0.30688 0.01498 0.78200
Cu	Cu	0.33294 0.97094 0.35782 0.79700
Cu	Cu	0.61932 0.98502 0.32186 0.78200
Cu	Cu	0.69076 0.35782 0.67124 0.79800
Cu	Cu	0.94118 0.32186 0.69312 0.78100
Cu	Cu	0.36200 0.67124 0.97094 0.79700
Cu	Cu	0.63430 0.69312 0.98502 0.78200
H 	H 	0.28810 0.77750 0.51920 -0.00600
H 	H 	0.31610 0.71780 0.66950 0.06800
H 	H 	0.33390 0.81260 0.74090 -0.04500
H 	H 	0.23180 0.16230 0.86590 0.06000
H 	H 	0.21320 0.03490 0.83630 -0.04500
H 	H 	0.45830 0.27840 0.80950 -0.07300
H 	H 	0.80730 0.51920 0.70330 -0.00500
H 	H 	0.98560 0.66950 0.61270 0.06800
H 	H 	0.07480 0.74090 0.44650 -0.04400
H 	H 	0.09770 0.86590 0.97180 0.05700
H 	H 	0.04950 0.83630 0.12880 -0.04500
H 	H 	0.26780 0.80950 0.91210 -0.07200
H 	H 	0.51060 0.70330 0.77750 -0.00600
H 	H 	0.59830 0.61270 0.71780 0.06900
H 	H 	0.52130 0.44650 0.81260 -0.04500
H 	H 	0.06950 0.97180 0.16230 0.05400
H 	H 	0.17830 0.12880 0.03490 -0.04200
H 	H 	0.17990 0.91210 0.27840 -0.07000
H 	H 	0.71190 0.22250 0.48080 -0.00600
H 	H 	0.68390 0.28220 0.33050 0.06800
H 	H 	0.66610 0.18740 0.25910 -0.04500
H 	H 	0.76820 0.83770 0.13410 0.06000
H 	H 	0.78680 0.96510 0.16370 -0.04500
H 	H 	0.54170 0.72160 0.19050 -0.07300
H 	H 	0.19270 0.48080 0.29670 -0.00500
H 	H 	0.01440 0.33050 0.38730 0.06800
H 	H 	0.92520 0.25910 0.55350 -0.04400
H 	H 	0.90230 0.13410 0.02820 0.05700
H 	H 	0.95050 0.16370 0.87120 -0.04500
H 	H 	0.73220 0.19050 0.08790 -0.07200
H 	H 	0.48940 0.29670 0.22250 -0.00600
H 	H 	0.40170 0.38730 0.28220 0.06900
H 	H 	0.47870 0.55350 0.18740 -0.04500
H 	H 	0.93050 0.02820 0.83770 0.05400
H 	H 	0.82170 0.87120 0.96510 -0.04200
H 	H 	0.82010 0.08790 0.72160 -0.07000
C 	C 	0.30120 0.81790 0.54700 0.05600
C 	C 	0.33070 0.83910 0.67650 0.06700
C 	C 	0.31890 0.78300 0.63510 -0.15600
C 	C 	0.30520 0.08500 0.81020 0.08500
C 	C 	0.45110 0.22410 0.80020 0.07000
C 	C 	0.31830 0.15580 0.83360 -0.17800
C 	C 	0.31860 0.96710 0.53870 0.26000
C 	C 	0.54910 0.16260 0.70510 0.26600
C 	C 	0.84820 0.54700 0.63510 0.05500
C 	C 	0.00720 0.67650 0.48440 0.06400
C 	C 	0.95400 0.63510 0.58190 -0.15300
C 	C 	0.11540 0.81020 0.10480 0.08200
C 	C 	0.25130 0.80020 0.97570 0.06700
C 	C 	0.15190 0.83360 0.01060 -0.17400
C 	C 	0.85730 0.53870 0.49420 0.26100
C 	C 	0.25420 0.70510 0.13230 0.26600
C 	C 	0.48330 0.63510 0.81790 0.05600
C 	C 	0.49160 0.48440 0.83910 0.06700
C 	C 	0.53590 0.58190 0.78300 -0.15600
C 	C 	0.22020 0.10480 0.08500 0.07800
C 	C 	0.22700 0.97570 0.22410 0.06000
C 	C 	0.16250 0.01060 0.15580 -0.16300
C 	C 	0.35150 0.49420 0.96710 0.26100
C 	C 	0.38650 0.13230 0.16260 0.26600
C 	C 	0.69880 0.18210 0.45300 0.05600
C 	C 	0.66930 0.16090 0.32350 0.06700
C 	C 	0.68110 0.21700 0.36490 -0.15600
C 	C 	0.69480 0.91500 0.18980 0.08500
C 	C 	0.54890 0.77590 0.19980 0.07000
C 	C 	0.68170 0.84420 0.16640 -0.17800
C 	C 	0.68140 0.03290 0.46130 0.26000
C 	C 	0.45090 0.83740 0.29490 0.26600
C 	C 	0.15180 0.45300 0.36490 0.05500
C 	C 	0.99280 0.32350 0.51560 0.06400
C 	C 	0.04600 0.36490 0.41810 -0.15300
C 	C 	0.88460 0.18980 0.89520 0.08200
C 	C 	0.74870 0.19980 0.02430 0.06700
C 	C 	0.84810 0.16640 0.98940 -0.17400
C 	C 	0.14270 0.46130 0.50580 0.26100
C 	C 	0.74580 0.29490 0.86770 0.26600
C 	C 	0.51670 0.36490 0.18210 0.05600
C 	C 	0.50840 0.51560 0.16090 0.06700
C 	C 	0.46410 0.41810 0.21700 -0.15600
C 	C 	0.77980 0.89520 0.91500 0.07800
C 	C 	0.77300 0.02430 0.77590 0.06000
C 	C 	0.83750 0.98940 0.84420 -0.16300
C 	C 	0.64850 0.50580 0.03290 0.26100
C 	C 	0.61350 0.86770 0.83740 0.26600
N 	N 	0.32970 0.93090 0.62850 -0.31200
N 	N 	0.30850 0.91150 0.49690 -0.29600
N 	N 	0.41820 0.09120 0.74200 -0.31200
N 	N 	0.56910 0.22260 0.74170 -0.30300
N 	N 	0.95820 0.62850 0.44060 -0.31100
N 	N 	0.80540 0.49690 0.59160 -0.29600
N 	N 	0.16020 0.74200 0.16680 -0.31200
N 	N 	0.31080 0.74170 0.03570 -0.30200
N 	N 	0.39880 0.44060 0.93090 -0.31200
N 	N 	0.39700 0.59160 0.91150 -0.29700
N 	N 	0.32700 0.16680 0.09120 -0.31100
N 	N 	0.34650 0.03570 0.22260 -0.30000
N 	N 	0.67030 0.06910 0.37150 -0.31200
N 	N 	0.69150 0.08850 0.50310 -0.29600
N 	N 	0.58180 0.90880 0.25800 -0.31200
N 	N 	0.43090 0.77740 0.25830 -0.30300
N 	N 	0.04180 0.37150 0.55940 -0.31100
N 	N 	0.19460 0.50310 0.40840 -0.29600
N 	N 	0.83980 0.25800 0.83320 -0.31200
N 	N 	0.68920 0.25830 0.96430 -0.30200
N 	N 	0.60120 0.55940 0.06910 -0.31200
N 	N 	0.60300 0.40840 0.08850 -0.29700
N 	N 	0.67300 0.83320 0.90880 -0.31100
N 	N 	0.65350 0.96430 0.77740 -0.30000
O 	O 	0.31780 0.04890 0.49600 -0.35900
O 	O 	0.63810 0.18160 0.63110 -0.42700
O 	O 	0.81380 0.49600 0.45510 -0.36100
O 	O 	0.26920 0.63110 0.18730 -0.42700
O 	O 	0.26890 0.45510 0.04890 -0.36000
O 	O 	0.45650 0.18730 0.18160 -0.42600
O 	O 	0.68220 0.95110 0.50400 -0.35900
O 	O 	0.36190 0.81840 0.36890 -0.42700
O 	O 	0.18620 0.50400 0.54490 -0.36100
O 	O 	0.73080 0.36890 0.81270 -0.42700
O 	O 	0.73110 0.54490 0.95110 -0.36000
O 	O 	0.54350 0.81270 0.81840 -0.42600
