data_crystal

_cell_length_a 9.99160
_cell_length_b 16.36010
_cell_length_c 16.53440
_cell_angle_alpha 90.00000
_cell_angle_beta  90.00000
_cell_angle_gamma 90.00000

_symmetry_space_group_name_	'P 1'
_symmetry_space_group_name_H-M	'P 1'

loop_
_symmetry_equiv_pos_as_xyz
  x,y,z

loop_
_atom_site_label
_atom_site_type_symbol
_atom_site_fract_x
_atom_site_fract_y
_atom_site_fract_z
_atom_site_charge
Ni	Ni	0.31089 0.21375 0.54656 1.11600
O 	O 	0.49250 0.23130 0.48410 -0.44600
O 	O 	0.62930 0.29200 0.39440 -0.43200
C 	C 	0.51680 0.26620 0.41740 0.45000
C 	C 	0.40610 0.28470 0.35630 -0.38500
H 	H 	0.43090 0.26110 0.30330 0.15600
H 	H 	0.39830 0.34470 0.34960 0.15800
C 	C 	0.26970 0.25000 0.38260 0.07800
H 	H 	0.20170 0.26500 0.34080 0.01900
O 	O 	0.23480 0.29150 0.45830 -0.39700
H 	H 	0.13500 0.29550 0.46500 0.17600
C 	C 	0.27120 0.15980 0.39090 0.25200
O 	O 	0.28590 0.11820 0.32950 -0.23000
O 	O 	0.26180 0.12970 0.46120 -0.35300
N 	N 	0.61200 0.62550 0.87770 -0.22000
N 	N 	0.36160 0.31190 0.62190 -0.23400
C 	C 	0.68080 0.59880 0.81080 0.05500
H 	H 	0.76720 0.62070 0.80050 0.02000
C 	C 	0.62970 0.54150 0.75800 -0.10100
H 	H 	0.67570 0.52910 0.70920 0.08200
C 	C 	0.50600 0.50050 0.77720 0.03600
C 	C 	0.44680 0.52070 0.84900 -0.10700
H 	H 	0.36810 0.49300 0.86600 0.06800
C 	C 	0.50140 0.58150 0.89690 0.06300
H 	H 	0.45830 0.59330 0.94680 0.01300
C 	C 	0.45160 0.43630 0.72240 0.08700
C 	C 	0.38100 0.37250 0.74900 -0.16200
H 	H 	0.36230 0.36840 0.80520 0.08600
C 	C 	0.33580 0.31420 0.69940 0.10900
H 	H 	0.28170 0.27210 0.72170 -0.00800
C 	C 	0.42160 0.37790 0.59290 0.08700
H 	H 	0.43170 0.38180 0.53590 0.00700
C 	C 	0.47170 0.44310 0.64030 -0.13300
H 	H 	0.51640 0.48860 0.61700 0.08700
Ni	Ni	0.18911 0.78625 0.04656 1.11600
O 	O 	0.00750 0.76870 0.98410 -0.44100
O 	O 	0.87070 0.70800 0.89440 -0.43100
C 	C 	0.98320 0.73380 0.91740 0.44100
C 	C 	0.09390 0.71530 0.85630 -0.37800
H 	H 	0.06910 0.73890 0.80330 0.15500
H 	H 	0.10170 0.65530 0.84960 0.15700
C 	C 	0.23030 0.75000 0.88260 0.07600
H 	H 	0.29830 0.73500 0.84080 0.02000
O 	O 	0.26520 0.70850 0.95830 -0.39600
H 	H 	0.36500 0.70450 0.96500 0.17600
C 	C 	0.22880 0.84020 0.89090 0.25300
O 	O 	0.21410 0.88180 0.82950 -0.23000
O 	O 	0.23820 0.87030 0.96120 -0.35300
N 	N 	0.88800 0.37450 0.37770 -0.22000
N 	N 	0.13840 0.68810 0.12190 -0.23400
C 	C 	0.81920 0.40120 0.31080 0.05600
H 	H 	0.73280 0.37930 0.30050 0.02000
C 	C 	0.87030 0.45850 0.25800 -0.10200
H 	H 	0.82430 0.47090 0.20920 0.08300
C 	C 	0.99400 0.49950 0.27720 0.03800
C 	C 	0.05320 0.47930 0.34900 -0.11000
H 	H 	0.13190 0.50700 0.36600 0.06900
C 	C 	0.99860 0.41850 0.39690 0.06600
H 	H 	0.04170 0.40670 0.44680 0.01200
C 	C 	0.04840 0.56370 0.22240 0.08700
C 	C 	0.11900 0.62750 0.24900 -0.16200
H 	H 	0.13770 0.63160 0.30520 0.08600
C 	C 	0.16420 0.68580 0.19940 0.10900
H 	H 	0.21830 0.72790 0.22170 -0.00800
C 	C 	0.07840 0.62210 0.09290 0.08800
H 	H 	0.06830 0.61820 0.03590 0.00600
C 	C 	0.02830 0.55690 0.14030 -0.13700
H 	H 	0.98360 0.51140 0.11700 0.09000
Ni	Ni	0.68911 0.71375 0.95344 1.11600
O 	O 	0.50750 0.73130 0.01590 -0.44600
O 	O 	0.37070 0.79200 0.10560 -0.43200
C 	C 	0.48320 0.76620 0.08260 0.45000
C 	C 	0.59390 0.78470 0.14370 -0.38500
H 	H 	0.56910 0.76110 0.19670 0.15600
H 	H 	0.60170 0.84470 0.15040 0.15800
C 	C 	0.73030 0.75000 0.11740 0.07800
H 	H 	0.79830 0.76500 0.15920 0.02000
O 	O 	0.76520 0.79150 0.04170 -0.39600
H 	H 	0.86500 0.79550 0.03500 0.17600
C 	C 	0.72880 0.65980 0.10910 0.25300
O 	O 	0.71410 0.61820 0.17050 -0.23000
O 	O 	0.73820 0.62970 0.03880 -0.35200
N 	N 	0.38800 0.12550 0.62230 -0.22000
N 	N 	0.63840 0.81190 0.87810 -0.23400
C 	C 	0.31920 0.09880 0.68920 0.05500
H 	H 	0.23280 0.12070 0.69950 0.02100
C 	C 	0.37030 0.04150 0.74200 -0.10100
H 	H 	0.32430 0.02910 0.79080 0.08200
C 	C 	0.49400 0.00050 0.72280 0.03500
C 	C 	0.55320 0.02070 0.65100 -0.10600
H 	H 	0.63190 0.99300 0.63400 0.06800
C 	C 	0.49860 0.08150 0.60310 0.06200
H 	H 	0.54170 0.09330 0.55320 0.01300
C 	C 	0.54840 0.93630 0.77760 0.08700
C 	C 	0.61900 0.87250 0.75100 -0.16200
H 	H 	0.63770 0.86840 0.69480 0.08600
C 	C 	0.66420 0.81420 0.80060 0.10900
H 	H 	0.71830 0.77210 0.77830 -0.00800
C 	C 	0.57840 0.87790 0.90710 0.08700
H 	H 	0.56830 0.88180 0.96410 0.00700
C 	C 	0.52830 0.94310 0.85970 -0.13400
H 	H 	0.48360 0.98860 0.88300 0.08700
Ni	Ni	0.81089 0.28625 0.45344 1.11600
O 	O 	0.99250 0.26870 0.51590 -0.44600
O 	O 	0.12930 0.20800 0.60560 -0.43200
C 	C 	0.01680 0.23380 0.58260 0.45100
C 	C 	0.90610 0.21530 0.64370 -0.38500
H 	H 	0.93090 0.23890 0.69670 0.15600
H 	H 	0.89830 0.15530 0.65040 0.15800
C 	C 	0.76970 0.25000 0.61740 0.07800
H 	H 	0.70170 0.23500 0.65920 0.01900
O 	O 	0.73480 0.20850 0.54170 -0.39700
H 	H 	0.63500 0.20450 0.53500 0.17600
C 	C 	0.77120 0.34020 0.60910 0.25300
O 	O 	0.78590 0.38180 0.67050 -0.23000
O 	O 	0.76180 0.37030 0.53880 -0.35300
N 	N 	0.11200 0.87450 0.12230 -0.21900
N 	N 	0.86160 0.18810 0.37810 -0.23400
C 	C 	0.18080 0.90120 0.18920 0.05400
H 	H 	0.26720 0.87930 0.19950 0.02100
C 	C 	0.12970 0.95850 0.24200 -0.10000
H 	H 	0.17570 0.97090 0.29080 0.08200
C 	C 	0.00600 0.99950 0.22280 0.03300
C 	C 	0.94680 0.97930 0.15100 -0.10500
H 	H 	0.86810 0.00700 0.13400 0.06900
C 	C 	0.00140 0.91850 0.10310 0.05900
H 	H 	0.95830 0.90670 0.05320 0.01500
C 	C 	0.95160 0.06370 0.27760 0.08800
C 	C 	0.88100 0.12750 0.25100 -0.16200
H 	H 	0.86230 0.13160 0.19480 0.08700
C 	C 	0.83580 0.18580 0.30060 0.11000
H 	H 	0.78170 0.22790 0.27830 -0.00800
C 	C 	0.92160 0.12210 0.40710 0.08600
H 	H 	0.93170 0.11820 0.46410 0.00700
C 	C 	0.97170 0.05690 0.35970 -0.13100
H 	H 	0.01640 0.01140 0.38300 0.08500
