data_crystal

_cell_length_a 9.62500
_cell_length_b 11.78000
_cell_length_c 18.71400
_cell_angle_alpha 90.00000
_cell_angle_beta  98.18000
_cell_angle_gamma 90.00000

_symmetry_space_group_name_	'P 1'
_symmetry_space_group_name_H-M	'P 1'

loop_
_symmetry_equiv_pos_as_xyz
  x,y,z

loop_
_atom_site_label
_atom_site_type_symbol
_atom_site_fract_x
_atom_site_fract_y
_atom_site_fract_z
_atom_site_charge
Cu	Cu	0.71963 0.36987 0.21110 0.81500
Cu	Cu	0.03612 0.37256 0.10948 0.80100
Cu	Cu	0.28037 0.36987 0.28890 0.81200
Cu	Cu	0.96388 0.37256 0.39052 0.82300
Cu	Cu	0.28037 0.63013 0.78890 0.81200
Cu	Cu	0.96388 0.62744 0.89052 0.82200
Cu	Cu	0.71963 0.63013 0.71110 0.81400
Cu	Cu	0.03612 0.62744 0.60948 0.80000
Mo	Mo	-0.00000 0.37149 0.25000 0.91200
Mo	Mo	-0.00000 0.62851 0.75000 0.91300
H 	H 	0.42720 0.44710 0.14970 -0.04500
H 	H 	0.31010 0.57830 0.07240 0.09600
H 	H 	0.68340 0.68570 0.02780 0.10600
H 	H 	0.79090 0.55440 0.10960 -0.05100
H 	H 	0.47100 0.75850 0.95510 0.10700
H 	H 	0.32330 0.70200 0.96430 0.09100
H 	H 	0.45550 0.87660 0.05660 -0.01300
H 	H 	0.30770 0.82030 0.06570 -0.01800
H 	H 	0.36140 0.95340 0.94620 0.11800
H 	H 	0.21570 0.89070 0.94970 0.11800
H 	H 	0.36370 0.03320 0.10890 0.10300
H 	H 	0.27130 0.19360 0.15370 -0.05800
H 	H 	0.02250 0.24090 0.97310 -0.04600
H 	H 	0.08900 0.06690 0.92710 0.09200
H 	H 	0.57280 0.44710 0.35030 -0.04800
H 	H 	0.68990 0.57830 0.42760 0.10900
H 	H 	0.31660 0.68570 0.47220 0.10600
H 	H 	0.20910 0.55440 0.39040 -0.08100
H 	H 	0.52900 0.75850 0.54490 0.10700
H 	H 	0.67670 0.70200 0.53570 0.10100
H 	H 	0.54450 0.87660 0.44340 -0.01100
H 	H 	0.69230 0.82030 0.43430 0.00000
H 	H 	0.63860 0.95340 0.55380 0.11800
H 	H 	0.78430 0.89070 0.55030 0.13300
H 	H 	0.63630 0.03320 0.39110 0.10400
H 	H 	0.72870 0.19360 0.34630 -0.05400
H 	H 	0.97750 0.24090 0.52690 -0.01300
H 	H 	0.91100 0.06690 0.57290 0.11600
H 	H 	0.57280 0.55290 0.85030 -0.04600
H 	H 	0.68990 0.42170 0.92760 0.10600
H 	H 	0.31660 0.31430 0.97220 0.10200
H 	H 	0.20910 0.44560 0.89040 -0.07900
H 	H 	0.52900 0.24150 0.04490 0.10100
H 	H 	0.67670 0.29800 0.03570 0.09600
H 	H 	0.54450 0.12340 0.94340 -0.00400
H 	H 	0.69230 0.17970 0.93430 0.00700
H 	H 	0.63860 0.04660 0.05380 0.11000
H 	H 	0.78430 0.10930 0.05030 0.12500
H 	H 	0.63630 0.96680 0.89110 0.09900
H 	H 	0.72870 0.80640 0.84630 -0.05100
H 	H 	0.97750 0.75910 0.02690 -0.00100
H 	H 	0.91100 0.93310 0.07290 0.10800
H 	H 	0.42720 0.55290 0.64970 -0.04400
H 	H 	0.31010 0.42170 0.57240 0.09400
H 	H 	0.68340 0.31430 0.52780 0.10200
H 	H 	0.79090 0.44560 0.60960 -0.05000
H 	H 	0.47100 0.24150 0.45510 0.10300
H 	H 	0.32330 0.29800 0.46430 0.08700
H 	H 	0.45550 0.12340 0.55660 -0.00900
H 	H 	0.30770 0.17970 0.56570 -0.01300
H 	H 	0.36140 0.04660 0.44620 0.11400
H 	H 	0.21570 0.10930 0.44970 0.11300
H 	H 	0.36370 0.96680 0.60890 0.10100
H 	H 	0.27130 0.80640 0.65370 -0.05600
H 	H 	0.02250 0.75910 0.47310 -0.04200
H 	H 	0.08900 0.93310 0.42710 0.08900
C 	C 	0.00170 0.46860 0.02430 -0.31000
C 	C 	0.48090 0.49770 0.12500 0.12900
C 	C 	0.40970 0.57570 0.07890 -0.23600
C 	C 	0.48430 0.64970 0.04240 0.20800
C 	C 	0.62750 0.63850 0.05350 -0.23400
C 	C 	0.69130 0.55870 0.10180 0.12800
C 	C 	0.40930 0.73660 0.99080 -0.31700
C 	C 	0.36950 0.84230 0.03000 0.12700
C 	C 	0.29570 0.92870 0.97940 -0.33500
C 	C 	0.24050 0.03360 0.01220 0.20700
C 	C 	0.29060 0.07310 0.07980 -0.24400
C 	C 	0.23590 0.17020 0.10600 0.11700
C 	C 	0.08980 0.19560 0.00240 0.10600
C 	C 	0.13280 0.09350 0.97270 -0.24000
C 	C 	0.99830 0.46860 0.47570 -0.06200
C 	C 	0.51910 0.49770 0.37500 0.13500
C 	C 	0.59030 0.57570 0.42110 -0.24300
C 	C 	0.51570 0.64970 0.45760 0.21400
C 	C 	0.37250 0.63850 0.44650 -0.24700
C 	C 	0.30870 0.55870 0.39820 0.13500
C 	C 	0.59070 0.73660 0.50920 -0.31100
C 	C 	0.63050 0.84230 0.47000 0.11800
C 	C 	0.70430 0.92870 0.52060 -0.32500
C 	C 	0.75950 0.03360 0.48780 0.21200
C 	C 	0.70940 0.07310 0.42020 -0.23600
C 	C 	0.76410 0.17020 0.39400 0.12900
C 	C 	0.91020 0.19560 0.49760 0.11600
C 	C 	0.86720 0.09350 0.52730 -0.21900
C 	C 	0.99830 0.53140 0.97570 -0.07100
C 	C 	0.51910 0.50230 0.87500 0.13000
C 	C 	0.59030 0.42430 0.92110 -0.23600
C 	C 	0.51570 0.35030 0.95760 0.20000
C 	C 	0.37250 0.36150 0.94650 -0.23900
C 	C 	0.30870 0.44130 0.89820 0.13000
C 	C 	0.59070 0.26340 0.00920 -0.28900
C 	C 	0.63050 0.15770 0.97000 0.09000
C 	C 	0.70430 0.07130 0.02060 -0.29800
C 	C 	0.75950 0.96640 0.98780 0.18700
C 	C 	0.70940 0.92690 0.92020 -0.22100
C 	C 	0.76410 0.82980 0.89400 0.12000
C 	C 	0.91020 0.80440 0.99760 0.08900
C 	C 	0.86720 0.90650 0.02730 -0.18900
C 	C 	0.00170 0.53140 0.52430 -0.31600
C 	C 	0.48090 0.50230 0.62500 0.12600
C 	C 	0.40970 0.42430 0.57890 -0.23000
C 	C 	0.48430 0.35030 0.54240 0.19800
C 	C 	0.62750 0.36150 0.55350 -0.22700
C 	C 	0.69130 0.44130 0.60180 0.12400
C 	C 	0.40930 0.26340 0.49080 -0.29900
C 	C 	0.36950 0.15770 0.53000 0.10900
C 	C 	0.29570 0.07130 0.47940 -0.32000
C 	C 	0.24050 0.96640 0.51220 0.19700
C 	C 	0.29060 0.92690 0.57980 -0.23700
C 	C 	0.23590 0.82980 0.60600 0.11400
C 	C 	0.08980 0.80440 0.50240 0.09700
C 	C 	0.13280 0.90650 0.47270 -0.22800
S 	S 	0.88040 0.26523 0.16362 -0.58900
S 	S 	0.84740 0.47840 0.29901 -0.59200
S 	S 	0.11960 0.26523 0.33638 -0.69800
S 	S 	0.15260 0.47840 0.20099 -0.65600
S 	S 	0.11960 0.73477 0.83638 -0.69700
S 	S 	0.15260 0.52160 0.70099 -0.65500
S 	S 	0.88040 0.73477 0.66362 -0.59100
S 	S 	0.84740 0.52160 0.79901 -0.59400
N 	N 	0.61980 0.48870 0.13740 -0.25900
N 	N 	0.13680 0.23280 0.06840 -0.26100
N 	N 	0.55420 0.29420 0.24090 -0.19300
N 	N 	0.38020 0.48870 0.36260 -0.26500
N 	N 	0.86320 0.23280 0.43160 -0.25000
N 	N 	0.44580 0.29420 0.25910 -0.19300
N 	N 	0.38020 0.51130 0.86260 -0.26400
N 	N 	0.86320 0.76720 0.93160 -0.24500
N 	N 	0.44580 0.70580 0.75910 -0.19400
N 	N 	0.61980 0.51130 0.63740 -0.25800
N 	N 	0.13680 0.76720 0.56840 -0.25900
N 	N 	0.55420 0.70580 0.74090 -0.19300
