data_crystal

_cell_length_a 8.94360
_cell_length_b 9.45380
_cell_length_c 19.00500
_cell_angle_alpha 95.16600
_cell_angle_beta  93.05000
_cell_angle_gamma 117.53400

_symmetry_space_group_name_	'P 1'
_symmetry_space_group_name_H-M	'P 1'

loop_
_symmetry_equiv_pos_as_xyz
  x,y,z

loop_
_atom_site_label
_atom_site_type_symbol
_atom_site_fract_x
_atom_site_fract_y
_atom_site_fract_z
_atom_site_charge
Cd	Cd	0.98362 0.89819 0.82078 1.23100
Cd	Cd	0.01638 0.10181 0.17922 1.17700
Cd	Cd	-0.00000 0.00000 -0.00000 1.18000
H 	H 	0.78700 0.19060 0.96220 0.11700
H 	H 	0.96130 0.43170 0.91880 0.05300
H 	H 	0.83090 0.38520 0.85130 0.04700
H 	H 	0.76420 0.45040 0.99230 0.12400
H 	H 	0.54570 0.37770 0.86500 0.04600
H 	H 	0.50320 0.41960 0.94060 0.04300
H 	H 	0.49100 0.18450 0.97660 0.09500
H 	H 	0.55790 0.10940 0.83700 0.02200
H 	H 	0.52910 0.00080 0.89780 0.01000
H 	H 	0.79760 0.57770 0.72150 -0.01900
H 	H 	0.62990 0.45100 0.61760 0.08800
H 	H 	0.50610 0.64280 0.48740 0.06300
H 	H 	0.66490 0.87050 0.57790 0.10500
H 	H 	0.83010 0.98590 0.68250 0.00500
H 	H 	0.21300 0.80940 0.03780 0.07200
H 	H 	0.03870 0.56830 0.08120 -0.01500
H 	H 	0.16910 0.61480 0.14870 0.03100
H 	H 	0.23580 0.54960 0.00770 0.08100
H 	H 	0.45430 0.62230 0.13500 0.03900
H 	H 	0.49680 0.58040 0.05940 0.00800
H 	H 	0.50900 0.81550 0.02340 0.09100
H 	H 	0.44210 0.89060 0.16300 0.04400
H 	H 	0.47090 0.99920 0.10220 0.03400
H 	H 	0.20240 0.42230 0.27850 -0.02800
H 	H 	0.37010 0.54900 0.38240 0.09600
H 	H 	0.49390 0.35720 0.51260 0.05200
H 	H 	0.33510 0.12950 0.42210 0.08000
H 	H 	0.16990 0.01410 0.31750 -0.04200
C 	C 	0.84600 0.11420 0.86760 0.38300
C 	C 	0.76780 0.19920 0.91190 -0.20200
C 	C 	0.84160 0.37640 0.90160 0.02100
C 	C 	0.75050 0.45790 0.94150 -0.19900
C 	C 	0.56080 0.36910 0.91510 0.01200
C 	C 	0.48160 0.19230 0.92560 -0.17300
C 	C 	0.57600 0.11130 0.88790 0.02000
C 	C 	0.82520 0.63430 0.93120 0.41100
C 	C 	0.29760 0.09850 0.89610 0.28700
C 	C 	0.76980 0.63770 0.69220 0.09800
C 	C 	0.67140 0.56130 0.62930 -0.18300
C 	C 	0.63380 0.64760 0.58320 0.13500
C 	C 	0.53030 0.57610 0.51370 -0.09600
C 	C 	0.69190 0.80810 0.60590 -0.19100
C 	C 	0.78900 0.87610 0.66950 0.11500
C 	C 	0.15400 0.88580 0.13240 0.36000
C 	C 	0.23220 0.80080 0.08810 -0.19900
C 	C 	0.15840 0.62360 0.09840 0.04100
C 	C 	0.24950 0.54210 0.05850 -0.22600
C 	C 	0.43920 0.63090 0.08490 0.04100
C 	C 	0.51840 0.80770 0.07440 -0.20800
C 	C 	0.42400 0.88870 0.11210 0.01500
C 	C 	0.17480 0.36570 0.06880 0.41500
C 	C 	0.70240 0.90150 0.10390 0.39700
C 	C 	0.23020 0.36230 0.30780 0.08900
C 	C 	0.32860 0.43870 0.37070 -0.18700
C 	C 	0.36620 0.35240 0.41680 0.12500
C 	C 	0.46970 0.42390 0.48630 -0.09100
C 	C 	0.30810 0.19190 0.39410 -0.20100
C 	C 	0.21100 0.12390 0.33050 0.10100
N 	N 	0.82820 0.79510 0.71380 -0.25300
N 	N 	0.17180 0.20490 0.28620 -0.27700
O 	O 	0.86170 0.00240 0.89591 -0.52500
O 	O 	0.88420 0.14360 0.80790 -0.34300
O 	O 	0.24990 0.12290 0.83707 -0.43200
O 	O 	0.19790 0.98650 0.92861 -0.42400
O 	O 	0.84360 0.66710 0.86935 -0.43900
O 	O 	0.86220 0.73260 0.98627 -0.38600
O 	O 	0.13830 0.99760 0.10409 -0.51700
O 	O 	0.11580 0.85640 0.19210 -0.33300
O 	O 	0.75010 0.87710 0.16293 -0.39000
O 	O 	0.80210 0.01350 0.07139 -0.53100
O 	O 	0.15640 0.33290 0.13065 -0.48200
O 	O 	0.13780 0.26740 0.01373 -0.50800
