data_crystal

_cell_length_a 16.44200
_cell_length_b 17.69700
_cell_length_c 27.52800
_cell_angle_alpha 90.00000
_cell_angle_beta  90.00000
_cell_angle_gamma 90.00000

_symmetry_space_group_name_	'P 1'
_symmetry_space_group_name_H-M	'P 1'

loop_
_symmetry_equiv_pos_as_xyz
  x,y,z

loop_
_atom_site_label
_atom_site_type_symbol
_atom_site_fract_x
_atom_site_fract_y
_atom_site_fract_z
_atom_site_charge
Zn	Zn	0.51387 0.24918 0.38413 1.24400
O 	O 	0.61604 0.25093 0.34789 -0.42500
O 	O 	0.58926 0.14590 0.30530 -0.28400
O 	O 	0.91503 0.21998 0.15165 -0.40700
O 	O 	0.95249 0.31589 0.19872 -0.29800
O 	O 	0.51520 0.34840 0.41433 -0.42800
O 	O 	0.38590 0.34480 0.43957 -0.27700
O 	O 	0.50873 0.17342 0.43483 -0.44100
O 	O 	0.63531 0.15874 0.46207 -0.27400
C 	C 	0.62911 0.20348 0.31394 0.33600
C 	C 	0.70128 0.22083 0.28207 -0.09900
C 	C 	0.77848 0.19826 0.29722 0.05100
C 	C 	0.79242 0.16391 0.34388 -0.06800
H 	H 	0.74780 0.15460 0.36500 0.07500
C 	C 	0.86853 0.14467 0.35802 -0.02200
H 	H 	0.87680 0.12310 0.38920 0.05200
C 	C 	0.93586 0.15621 0.32693 -0.02100
H 	H 	0.98880 0.14190 0.33730 0.04700
C 	C 	0.92536 0.18770 0.28232 -0.07000
H 	H 	0.97100 0.19420 0.26160 0.07200
C 	C 	0.84707 0.21118 0.26613 0.04700
C 	C 	0.83470 0.24657 0.22105 -0.09400
C 	C 	0.75778 0.27026 0.20621 0.04800
C 	C 	0.74471 0.30882 0.16094 -0.06900
H 	H 	0.78900 0.31590 0.13920 0.08000
C 	C 	0.67021 0.33518 0.14880 -0.02400
H 	H 	0.66260 0.36040 0.11870 0.05200
C 	C 	0.60326 0.32547 0.18083 -0.01900
H 	H 	0.55150 0.34530 0.17220 0.04600
C 	C 	0.61237 0.28823 0.22362 -0.07400
H 	H 	0.56680 0.28210 0.24450 0.07500
C 	C 	0.68932 0.25824 0.23770 0.05000
C 	C 	0.90634 0.26313 0.18899 0.31600
C 	C 	0.45514 0.37164 0.43938 0.33800
C 	C 	0.47641 0.43821 0.47122 -0.09700
C 	C 	0.52271 0.42559 0.51311 0.04600
C 	C 	0.54775 0.35148 0.52757 -0.06500
H 	H 	0.53320 0.30930 0.50810 0.06200
C 	C 	0.59197 0.34025 0.56861 -0.02500
H 	H 	0.60790 0.29050 0.57750 0.04700
C 	C 	0.61447 0.40246 0.59830 -0.02200
H 	H 	0.64460 0.39390 0.62720 0.05000
C 	C 	0.59324 0.47420 0.58568 -0.06900
H 	H 	0.60930 0.51530 0.60570 0.07400
C 	C 	0.45291 0.51156 0.45740 0.05000
C 	C 	0.56390 0.13908 0.45808 0.35600
C 	C 	0.53397 0.06655 0.48100 -0.10300
C 	C 	0.49042 0.06957 0.52457 0.05100
C 	C 	0.47851 0.13879 0.55074 -0.06700
H 	H 	0.50050 0.18440 0.53810 0.06400
C 	C 	0.43671 0.14058 0.59308 -0.02400
H 	H 	0.42900 0.18720 0.60960 0.04600
C 	C 	0.40434 0.07294 0.61289 -0.02000
H 	H 	0.37590 0.07460 0.64290 0.05200
C 	C 	0.41340 0.00600 0.58951 -0.06800
H 	H 	0.39120 0.96140 0.60340 0.07100
C 	C 	0.54402 0.99855 0.45586 0.05000
Zn	Zn	0.98613 0.75083 0.88413 1.24500
O 	O 	0.88396 0.74907 0.84789 -0.42400
O 	O 	0.91074 0.85410 0.80530 -0.28300
O 	O 	0.58497 0.78002 0.65165 -0.40700
O 	O 	0.54751 0.68411 0.69872 -0.29700
O 	O 	0.98480 0.65160 0.91433 -0.42700
O 	O 	0.11410 0.65520 0.93957 -0.27600
O 	O 	0.99127 0.82658 0.93483 -0.44100
O 	O 	0.86469 0.84126 0.96207 -0.27400
C 	C 	0.87089 0.79652 0.81394 0.33600
C 	C 	0.79872 0.77917 0.78207 -0.09900
C 	C 	0.72152 0.80174 0.79722 0.05100
C 	C 	0.70758 0.83609 0.84388 -0.06800
H 	H 	0.75220 0.84540 0.86500 0.07500
C 	C 	0.63147 0.85533 0.85802 -0.02300
H 	H 	0.62320 0.87690 0.88920 0.05200
C 	C 	0.56414 0.84379 0.82693 -0.02100
H 	H 	0.51120 0.85810 0.83730 0.04600
C 	C 	0.57464 0.81230 0.78232 -0.07000
H 	H 	0.52900 0.80580 0.76160 0.07200
C 	C 	0.65293 0.78882 0.76613 0.04700
C 	C 	0.66530 0.75343 0.72105 -0.09400
C 	C 	0.74222 0.72974 0.70621 0.04800
C 	C 	0.75529 0.69118 0.66094 -0.06900
H 	H 	0.71100 0.68410 0.63920 0.08000
C 	C 	0.82979 0.66482 0.64880 -0.02400
H 	H 	0.83740 0.63960 0.61870 0.05200
C 	C 	0.89674 0.67453 0.68083 -0.01900
H 	H 	0.94850 0.65470 0.67220 0.04600
C 	C 	0.88763 0.71177 0.72362 -0.07400
H 	H 	0.93320 0.71790 0.74450 0.07500
C 	C 	0.81068 0.74176 0.73770 0.05000
C 	C 	0.59366 0.73687 0.68899 0.31600
C 	C 	0.04486 0.62836 0.93938 0.33800
C 	C 	0.02359 0.56179 0.97122 -0.09600
C 	C 	0.97729 0.57441 0.01311 0.04600
C 	C 	0.95225 0.64852 0.02757 -0.06500
H 	H 	0.96680 0.69070 0.00810 0.06200
C 	C 	0.90803 0.65975 0.06861 -0.02500
H 	H 	0.89210 0.70950 0.07750 0.04700
C 	C 	0.88553 0.59754 0.09830 -0.02200
H 	H 	0.85540 0.60610 0.12720 0.05000
C 	C 	0.90676 0.52580 0.08568 -0.06900
H 	H 	0.89070 0.48470 0.10570 0.07400
C 	C 	0.04709 0.48844 0.95740 0.05000
C 	C 	0.93610 0.86092 0.95808 0.35600
C 	C 	0.96603 0.93345 0.98100 -0.10500
C 	C 	0.00958 0.93043 0.02457 0.05200
C 	C 	0.02149 0.86121 0.05074 -0.06600
H 	H 	0.99950 0.81560 0.03810 0.06300
C 	C 	0.06329 0.85942 0.09308 -0.02400
H 	H 	0.07100 0.81280 0.10960 0.04600
C 	C 	0.09566 0.92706 0.11289 -0.02000
H 	H 	0.12410 0.92540 0.14290 0.05300
C 	C 	0.08660 0.99400 0.08951 -0.06600
H 	H 	0.10880 0.03860 0.10340 0.07000
C 	C 	0.95598 0.00145 0.95586 0.05100
Zn	Zn	0.48613 0.75083 0.61587 1.24500
O 	O 	0.38396 0.74907 0.65211 -0.42400
O 	O 	0.41074 0.85410 0.69470 -0.28300
O 	O 	0.08497 0.78002 0.84835 -0.40600
O 	O 	0.04751 0.68411 0.80128 -0.29700
O 	O 	0.48480 0.65160 0.58567 -0.42700
O 	O 	0.61410 0.65520 0.56043 -0.27600
O 	O 	0.49127 0.82658 0.56517 -0.44000
O 	O 	0.36469 0.84126 0.53793 -0.27300
C 	C 	0.37089 0.79652 0.68606 0.33600
C 	C 	0.29872 0.77917 0.71793 -0.09900
C 	C 	0.22152 0.80174 0.70278 0.05100
C 	C 	0.20758 0.83609 0.65612 -0.06800
H 	H 	0.25220 0.84540 0.63500 0.07500
C 	C 	0.13147 0.85533 0.64198 -0.02200
H 	H 	0.12320 0.87690 0.61080 0.05200
C 	C 	0.06414 0.84379 0.67307 -0.02100
H 	H 	0.01120 0.85810 0.66270 0.04700
C 	C 	0.07464 0.81230 0.71768 -0.07000
H 	H 	0.02900 0.80580 0.73840 0.07200
C 	C 	0.15293 0.78882 0.73387 0.04700
C 	C 	0.16530 0.75343 0.77895 -0.09400
C 	C 	0.24222 0.72974 0.79379 0.04800
C 	C 	0.25529 0.69118 0.83906 -0.06900
H 	H 	0.21100 0.68410 0.86080 0.08000
C 	C 	0.32979 0.66482 0.85120 -0.02400
H 	H 	0.33740 0.63960 0.88130 0.05200
C 	C 	0.39674 0.67453 0.81917 -0.01900
H 	H 	0.44850 0.65470 0.82780 0.04600
C 	C 	0.38763 0.71177 0.77638 -0.07400
H 	H 	0.43320 0.71790 0.75550 0.07500
C 	C 	0.31068 0.74176 0.76230 0.05000
C 	C 	0.09366 0.73687 0.81101 0.31600
C 	C 	0.54486 0.62836 0.56062 0.33800
C 	C 	0.52359 0.56179 0.52878 -0.09700
C 	C 	0.47729 0.57441 0.48689 0.04600
C 	C 	0.45225 0.64852 0.47243 -0.06500
H 	H 	0.46680 0.69070 0.49190 0.06200
C 	C 	0.40803 0.65975 0.43139 -0.02500
H 	H 	0.39210 0.70950 0.42250 0.04700
C 	C 	0.38553 0.59754 0.40170 -0.02200
H 	H 	0.35540 0.60610 0.37280 0.05000
C 	C 	0.40676 0.52580 0.41432 -0.06900
H 	H 	0.39070 0.48470 0.39430 0.07400
C 	C 	0.54709 0.48844 0.54260 0.05000
C 	C 	0.43610 0.86092 0.54192 0.35600
C 	C 	0.46603 0.93345 0.51900 -0.10300
C 	C 	0.50958 0.93043 0.47543 0.05100
C 	C 	0.52149 0.86121 0.44926 -0.06700
H 	H 	0.49950 0.81560 0.46190 0.06400
C 	C 	0.56329 0.85942 0.40692 -0.02400
H 	H 	0.57100 0.81280 0.39040 0.04600
C 	C 	0.59566 0.92706 0.38711 -0.02000
H 	H 	0.62410 0.92540 0.35710 0.05200
C 	C 	0.58660 0.99400 0.41049 -0.06800
H 	H 	0.60880 0.03860 0.39660 0.07100
C 	C 	0.45598 0.00145 0.54414 0.05000
Zn	Zn	0.01387 0.24918 0.11587 1.24500
O 	O 	0.11604 0.25093 0.15211 -0.42400
O 	O 	0.08926 0.14590 0.19470 -0.28300
O 	O 	0.41503 0.21998 0.34835 -0.40700
O 	O 	0.45249 0.31589 0.30128 -0.29700
O 	O 	0.01520 0.34840 0.08567 -0.42700
O 	O 	0.88590 0.34480 0.06043 -0.27600
O 	O 	0.00873 0.17342 0.06517 -0.44100
O 	O 	0.13531 0.15874 0.03793 -0.27400
C 	C 	0.12911 0.20348 0.18606 0.33600
C 	C 	0.20128 0.22083 0.21793 -0.09900
C 	C 	0.27848 0.19826 0.20278 0.05100
C 	C 	0.29242 0.16391 0.15612 -0.06800
H 	H 	0.24780 0.15460 0.13500 0.07500
C 	C 	0.36853 0.14467 0.14198 -0.02300
H 	H 	0.37680 0.12310 0.11080 0.05200
C 	C 	0.43586 0.15621 0.17307 -0.02100
H 	H 	0.48880 0.14190 0.16270 0.04600
C 	C 	0.42536 0.18770 0.21768 -0.07000
H 	H 	0.47100 0.19420 0.23840 0.07200
C 	C 	0.34707 0.21118 0.23387 0.04600
C 	C 	0.33470 0.24657 0.27895 -0.09400
C 	C 	0.25778 0.27026 0.29379 0.04800
C 	C 	0.24471 0.30882 0.33906 -0.06900
H 	H 	0.28900 0.31590 0.36080 0.08000
C 	C 	0.17021 0.33518 0.35120 -0.02400
H 	H 	0.16260 0.36040 0.38130 0.05200
C 	C 	0.10326 0.32547 0.31917 -0.01900
H 	H 	0.05150 0.34530 0.32780 0.04600
C 	C 	0.11237 0.28823 0.27638 -0.07400
H 	H 	0.06680 0.28210 0.25550 0.07500
C 	C 	0.18932 0.25824 0.26230 0.05000
C 	C 	0.40634 0.26313 0.31101 0.31600
C 	C 	0.95514 0.37164 0.06062 0.33800
C 	C 	0.97641 0.43821 0.02878 -0.09600
C 	C 	0.02271 0.42559 0.98689 0.04600
C 	C 	0.04775 0.35148 0.97243 -0.06500
H 	H 	0.03320 0.30930 0.99190 0.06200
C 	C 	0.09197 0.34025 0.93139 -0.02500
H 	H 	0.10790 0.29050 0.92250 0.04700
C 	C 	0.11447 0.40246 0.90170 -0.02200
H 	H 	0.14460 0.39390 0.87280 0.05000
C 	C 	0.09324 0.47420 0.91432 -0.06900
H 	H 	0.10930 0.51530 0.89430 0.07400
C 	C 	0.95291 0.51156 0.04260 0.05000
C 	C 	0.06390 0.13908 0.04192 0.35600
C 	C 	0.03397 0.06655 0.01900 -0.10500
C 	C 	0.99042 0.06957 0.97543 0.05200
C 	C 	0.97851 0.13879 0.94926 -0.06600
H 	H 	0.00050 0.18440 0.96190 0.06300
C 	C 	0.93671 0.14058 0.90692 -0.02400
H 	H 	0.92900 0.18720 0.89040 0.04600
C 	C 	0.90434 0.07294 0.88711 -0.02000
H 	H 	0.87590 0.07460 0.85710 0.05300
C 	C 	0.91340 0.00600 0.91049 -0.06600
H 	H 	0.89120 0.96140 0.89660 0.07000
C 	C 	0.04402 0.99855 0.04414 0.05100
Zn	Zn	0.48613 0.74918 0.11587 1.24500
O 	O 	0.38396 0.75093 0.15211 -0.42400
O 	O 	0.41074 0.64590 0.19470 -0.28300
O 	O 	0.08497 0.71998 0.34835 -0.40700
O 	O 	0.04751 0.81589 0.30128 -0.29700
O 	O 	0.48480 0.84840 0.08567 -0.42700
O 	O 	0.61410 0.84480 0.06043 -0.27600
O 	O 	0.49127 0.67342 0.06517 -0.44000
O 	O 	0.36469 0.65874 0.03793 -0.27300
C 	C 	0.37089 0.70348 0.18606 0.33600
C 	C 	0.29872 0.72083 0.21793 -0.09900
C 	C 	0.22152 0.69826 0.20278 0.05100
C 	C 	0.20758 0.66391 0.15612 -0.06800
H 	H 	0.25220 0.65460 0.13500 0.07500
C 	C 	0.13147 0.64467 0.14198 -0.02200
H 	H 	0.12320 0.62310 0.11080 0.05200
C 	C 	0.06414 0.65621 0.17307 -0.02100
H 	H 	0.01120 0.64190 0.16270 0.04600
C 	C 	0.07464 0.68770 0.21768 -0.07000
H 	H 	0.02900 0.69420 0.23840 0.07200
C 	C 	0.15293 0.71118 0.23387 0.04700
C 	C 	0.16530 0.74657 0.27895 -0.09400
C 	C 	0.24222 0.77026 0.29379 0.04800
C 	C 	0.25529 0.80882 0.33906 -0.06900
H 	H 	0.21100 0.81590 0.36080 0.08000
C 	C 	0.32979 0.83518 0.35120 -0.02400
H 	H 	0.33740 0.86040 0.38130 0.05200
C 	C 	0.39674 0.82547 0.31917 -0.01900
H 	H 	0.44850 0.84530 0.32780 0.04600
C 	C 	0.38763 0.78823 0.27638 -0.07400
H 	H 	0.43320 0.78210 0.25550 0.07500
C 	C 	0.31068 0.75824 0.26230 0.05000
C 	C 	0.09366 0.76313 0.31101 0.31600
C 	C 	0.54486 0.87164 0.06062 0.33800
C 	C 	0.52359 0.93821 0.02878 -0.09700
C 	C 	0.47729 0.92559 0.98689 0.04700
C 	C 	0.45225 0.85148 0.97243 -0.06600
H 	H 	0.46680 0.80930 0.99190 0.06300
C 	C 	0.40803 0.84025 0.93139 -0.02400
H 	H 	0.39210 0.79050 0.92250 0.04700
C 	C 	0.38553 0.90246 0.90170 -0.02200
H 	H 	0.35540 0.89390 0.87280 0.05000
C 	C 	0.40676 0.97420 0.91432 -0.06900
H 	H 	0.39070 0.01530 0.89430 0.07300
C 	C 	0.54709 0.01156 0.04260 0.05000
C 	C 	0.43610 0.63908 0.04192 0.35600
C 	C 	0.46603 0.56655 0.01900 -0.10400
C 	C 	0.50958 0.56957 0.97543 0.05100
C 	C 	0.52149 0.63879 0.94926 -0.06700
H 	H 	0.49950 0.68440 0.96190 0.06400
C 	C 	0.56329 0.64058 0.90692 -0.02300
H 	H 	0.57100 0.68720 0.89040 0.04500
C 	C 	0.59566 0.57294 0.88711 -0.02000
H 	H 	0.62410 0.57460 0.85710 0.05200
C 	C 	0.58660 0.50600 0.91049 -0.06700
H 	H 	0.60880 0.46140 0.89660 0.07100
C 	C 	0.45598 0.49855 0.04414 0.05000
Zn	Zn	0.01387 0.25082 0.61587 1.24500
O 	O 	0.11604 0.24907 0.65211 -0.42500
O 	O 	0.08926 0.35410 0.69470 -0.28300
O 	O 	0.41503 0.28002 0.84835 -0.40700
O 	O 	0.45249 0.18411 0.80128 -0.29700
O 	O 	0.01520 0.15160 0.58567 -0.42800
O 	O 	0.88590 0.15520 0.56043 -0.27600
O 	O 	0.00873 0.32658 0.56517 -0.44000
O 	O 	0.13531 0.34126 0.53793 -0.27300
C 	C 	0.12911 0.29652 0.68606 0.33600
C 	C 	0.20128 0.27917 0.71793 -0.09900
C 	C 	0.27848 0.30174 0.70278 0.05100
C 	C 	0.29242 0.33609 0.65612 -0.06800
H 	H 	0.24780 0.34540 0.63500 0.07500
C 	C 	0.36853 0.35533 0.64198 -0.02300
H 	H 	0.37680 0.37690 0.61080 0.05200
C 	C 	0.43586 0.34379 0.67307 -0.02100
H 	H 	0.48880 0.35810 0.66270 0.04600
C 	C 	0.42536 0.31230 0.71768 -0.07000
H 	H 	0.47100 0.30580 0.73840 0.07200
C 	C 	0.34707 0.28882 0.73387 0.04700
C 	C 	0.33470 0.25343 0.77895 -0.09400
C 	C 	0.25778 0.22974 0.79379 0.04800
C 	C 	0.24471 0.19118 0.83906 -0.06900
H 	H 	0.28900 0.18410 0.86080 0.08000
C 	C 	0.17021 0.16482 0.85120 -0.02400
H 	H 	0.16260 0.13960 0.88130 0.05200
C 	C 	0.10326 0.17453 0.81917 -0.01900
H 	H 	0.05150 0.15470 0.82780 0.04600
C 	C 	0.11237 0.21177 0.77638 -0.07400
H 	H 	0.06680 0.21790 0.75550 0.07500
C 	C 	0.18932 0.24176 0.76230 0.05000
C 	C 	0.40634 0.23687 0.81101 0.31600
C 	C 	0.95514 0.12836 0.56062 0.33800
C 	C 	0.97641 0.06179 0.52878 -0.09500
C 	C 	0.02271 0.07441 0.48689 0.04500
C 	C 	0.04775 0.14852 0.47243 -0.06400
H 	H 	0.03320 0.19070 0.49190 0.06200
C 	C 	0.09197 0.15975 0.43139 -0.02600
H 	H 	0.10790 0.20950 0.42250 0.04800
C 	C 	0.11447 0.09754 0.40170 -0.02000
H 	H 	0.14460 0.10610 0.37280 0.04900
C 	C 	0.09324 0.02580 0.41432 -0.07200
H 	H 	0.10930 0.98470 0.39430 0.07500
C 	C 	0.95291 0.98844 0.54260 0.05000
C 	C 	0.06390 0.36092 0.54192 0.35600
C 	C 	0.03397 0.43345 0.51900 -0.10400
C 	C 	0.99042 0.43043 0.47543 0.05100
C 	C 	0.97851 0.36121 0.44926 -0.06600
H 	H 	0.00050 0.31560 0.46190 0.06400
C 	C 	0.93671 0.35942 0.40692 -0.02400
H 	H 	0.92900 0.31280 0.39040 0.04600
C 	C 	0.90434 0.42706 0.38711 -0.02000
H 	H 	0.87590 0.42540 0.35710 0.05200
C 	C 	0.91340 0.49400 0.41049 -0.06800
H 	H 	0.89120 0.53860 0.39660 0.07100
C 	C 	0.04402 0.50145 0.54414 0.05000
Zn	Zn	0.51387 0.25082 0.88413 1.24500
O 	O 	0.61604 0.24907 0.84789 -0.42400
O 	O 	0.58926 0.35410 0.80530 -0.28300
O 	O 	0.91503 0.28002 0.65165 -0.40700
O 	O 	0.95249 0.18411 0.69872 -0.29700
O 	O 	0.51520 0.15160 0.91433 -0.42700
O 	O 	0.38590 0.15520 0.93957 -0.27600
O 	O 	0.50873 0.32658 0.93483 -0.44000
O 	O 	0.63531 0.34126 0.96207 -0.27300
C 	C 	0.62911 0.29652 0.81394 0.33600
C 	C 	0.70128 0.27917 0.78207 -0.09900
C 	C 	0.77848 0.30174 0.79722 0.05100
C 	C 	0.79242 0.33609 0.84388 -0.06800
H 	H 	0.74780 0.34540 0.86500 0.07500
C 	C 	0.86853 0.35533 0.85802 -0.02200
H 	H 	0.87680 0.37690 0.88920 0.05200
C 	C 	0.93586 0.34379 0.82693 -0.02100
H 	H 	0.98880 0.35810 0.83730 0.04600
C 	C 	0.92536 0.31230 0.78232 -0.07000
H 	H 	0.97100 0.30580 0.76160 0.07200
C 	C 	0.84707 0.28882 0.76613 0.04700
C 	C 	0.83470 0.25343 0.72105 -0.09400
C 	C 	0.75778 0.22974 0.70621 0.04800
C 	C 	0.74471 0.19118 0.66094 -0.06900
H 	H 	0.78900 0.18410 0.63920 0.08000
C 	C 	0.67021 0.16482 0.64880 -0.02400
H 	H 	0.66260 0.13960 0.61870 0.05200
C 	C 	0.60326 0.17453 0.68083 -0.01900
H 	H 	0.55150 0.15470 0.67220 0.04600
C 	C 	0.61237 0.21177 0.72362 -0.07400
H 	H 	0.56680 0.21790 0.74450 0.07500
C 	C 	0.68932 0.24176 0.73770 0.05000
C 	C 	0.90634 0.23687 0.68899 0.31600
C 	C 	0.45514 0.12836 0.93938 0.33800
C 	C 	0.47641 0.06179 0.97122 -0.09700
C 	C 	0.52271 0.07441 0.01311 0.04700
C 	C 	0.54775 0.14852 0.02757 -0.06600
H 	H 	0.53320 0.19070 0.00810 0.06300
C 	C 	0.59197 0.15975 0.06861 -0.02400
H 	H 	0.60790 0.20950 0.07750 0.04700
C 	C 	0.61447 0.09754 0.09830 -0.02200
H 	H 	0.64460 0.10610 0.12720 0.05000
C 	C 	0.59324 0.02580 0.08568 -0.06900
H 	H 	0.60930 0.98470 0.10570 0.07300
C 	C 	0.45291 0.98844 0.95740 0.05000
C 	C 	0.56390 0.36092 0.95808 0.35600
C 	C 	0.53397 0.43345 0.98100 -0.10400
C 	C 	0.49042 0.43043 0.02457 0.05100
C 	C 	0.47851 0.36121 0.05074 -0.06700
H 	H 	0.50050 0.31560 0.03810 0.06400
C 	C 	0.43671 0.35942 0.09308 -0.02300
H 	H 	0.42900 0.31280 0.10960 0.04500
C 	C 	0.40434 0.42706 0.11289 -0.02000
H 	H 	0.37590 0.42540 0.14290 0.05200
C 	C 	0.41340 0.49400 0.08951 -0.06700
H 	H 	0.39120 0.53860 0.10340 0.07100
C 	C 	0.54402 0.50145 0.95586 0.05000
Zn	Zn	0.98613 0.74918 0.38413 1.24500
O 	O 	0.88396 0.75093 0.34789 -0.42500
O 	O 	0.91074 0.64590 0.30530 -0.28300
O 	O 	0.58497 0.71998 0.15165 -0.40700
O 	O 	0.54751 0.81589 0.19872 -0.29700
O 	O 	0.98480 0.84840 0.41433 -0.42800
O 	O 	0.11410 0.84480 0.43957 -0.27600
O 	O 	0.99127 0.67342 0.43483 -0.44000
O 	O 	0.86469 0.65874 0.46207 -0.27300
C 	C 	0.87089 0.70348 0.31394 0.33600
C 	C 	0.79872 0.72083 0.28207 -0.09900
C 	C 	0.72152 0.69826 0.29722 0.05100
C 	C 	0.70758 0.66391 0.34388 -0.06800
H 	H 	0.75220 0.65460 0.36500 0.07500
C 	C 	0.63147 0.64467 0.35802 -0.02300
H 	H 	0.62320 0.62310 0.38920 0.05200
C 	C 	0.56414 0.65621 0.32693 -0.02100
H 	H 	0.51120 0.64190 0.33730 0.04600
C 	C 	0.57464 0.68770 0.28232 -0.07000
H 	H 	0.52900 0.69420 0.26160 0.07200
C 	C 	0.65293 0.71118 0.26613 0.04700
C 	C 	0.66530 0.74657 0.22105 -0.09400
C 	C 	0.74222 0.77026 0.20621 0.04800
C 	C 	0.75529 0.80882 0.16094 -0.06900
H 	H 	0.71100 0.81590 0.13920 0.08000
C 	C 	0.82979 0.83518 0.14880 -0.02400
H 	H 	0.83740 0.86040 0.11870 0.05200
C 	C 	0.89674 0.82547 0.18083 -0.01900
H 	H 	0.94850 0.84530 0.17220 0.04600
C 	C 	0.88763 0.78823 0.22362 -0.07400
H 	H 	0.93320 0.78210 0.24450 0.07500
C 	C 	0.81068 0.75824 0.23770 0.05000
C 	C 	0.59366 0.76313 0.18899 0.31600
C 	C 	0.04486 0.87164 0.43938 0.33800
C 	C 	0.02359 0.93821 0.47122 -0.09500
C 	C 	0.97729 0.92559 0.51311 0.04500
C 	C 	0.95225 0.85148 0.52757 -0.06400
H 	H 	0.96680 0.80930 0.50810 0.06200
C 	C 	0.90803 0.84025 0.56861 -0.02600
H 	H 	0.89210 0.79050 0.57750 0.04800
C 	C 	0.88553 0.90246 0.59830 -0.02000
H 	H 	0.85540 0.89390 0.62720 0.04900
C 	C 	0.90676 0.97420 0.58568 -0.07200
H 	H 	0.89070 0.01530 0.60570 0.07500
C 	C 	0.04709 0.01156 0.45740 0.05000
C 	C 	0.93610 0.63908 0.45808 0.35600
C 	C 	0.96603 0.56655 0.48100 -0.10400
C 	C 	0.00958 0.56957 0.52457 0.05100
C 	C 	0.02149 0.63879 0.55074 -0.06600
H 	H 	0.99950 0.68440 0.53810 0.06400
C 	C 	0.06329 0.64058 0.59308 -0.02400
H 	H 	0.07100 0.68720 0.60960 0.04600
C 	C 	0.09566 0.57294 0.61289 -0.02000
H 	H 	0.12410 0.57460 0.64290 0.05200
C 	C 	0.08660 0.50600 0.58951 -0.06800
H 	H 	0.10880 0.46140 0.60340 0.07100
C 	C 	0.95598 0.49855 0.45586 0.05000
