data_crystal

_cell_length_a 31.71700
_cell_length_b 9.43330
_cell_length_c 18.17390
_cell_angle_alpha 90.00000
_cell_angle_beta  119.89400
_cell_angle_gamma 90.00000

_symmetry_space_group_name_	'P 1'
_symmetry_space_group_name_H-M	'P 1'

loop_
_symmetry_equiv_pos_as_xyz
  x,y,z

loop_
_atom_site_label
_atom_site_type_symbol
_atom_site_fract_x
_atom_site_fract_y
_atom_site_fract_z
_atom_site_charge
Co	Co	0.12372 0.81464 0.39208 1.15000
O 	O 	0.13920 0.71120 0.31065 -0.44400
O 	O 	0.22078 0.70760 0.37307 -0.42400
O 	O 	0.20767 0.39891 0.01773 -0.42300
O 	O 	0.12833 0.35220 0.96592 -0.39500
O 	O 	0.14330 0.02580 0.36644 -0.39100
O 	O 	0.19480 0.89902 0.47516 -0.50700
N 	N 	0.04677 0.80500 0.30252 -0.18400
C 	C 	0.17882 0.68360 0.31340 0.37800
C 	C 	0.17520 0.61350 0.23579 -0.08900
C 	C 	0.13241 0.54900 0.17530 -0.01100
H 	H 	0.10460 0.54980 0.18210 0.03600
C 	C 	0.21559 0.60930 0.22518 -0.00900
H 	H 	0.24520 0.65170 0.26650 0.04700
C 	C 	0.16911 0.40550 0.01985 0.30500
C 	C 	0.17036 0.48160 0.09382 -0.06500
C 	C 	0.21317 0.54390 0.15484 -0.03000
H 	H 	0.24110 0.54170 0.14850 0.05600
C 	C 	0.13024 0.48340 0.10500 -0.03400
H 	H 	0.10090 0.43930 0.06420 0.03300
C 	C 	0.18347 0.01470 0.43338 0.31800
C 	C 	0.21786 0.13690 0.46752 -0.07400
C 	C 	0.21258 0.25230 0.41596 -0.01200
H 	H 	0.18690 0.25390 0.35870 0.04700
C 	C 	0.25508 0.13460 0.55160 -0.01700
H 	H 	0.25840 0.05610 0.58680 0.04900
C 	C 	0.01999 0.73820 0.34131 -0.05600
H 	H 	0.02410 0.79640 0.38980 0.02700
H 	H 	0.03370 0.64310 0.36310 0.04000
C 	C 	0.03426 0.72470 0.22382 -0.05400
H 	H 	0.04260 0.62350 0.23800 0.04300
H 	H 	0.05370 0.76130 0.19900 0.04000
C 	C 	0.02803 0.95160 0.27694 -0.05500
H 	H 	0.04190 0.99360 0.24370 0.03700
H 	H 	0.03840 0.01040 0.32820 0.02100
Co	Co	0.62372 0.31464 0.39208 1.14900
O 	O 	0.63920 0.21120 0.31065 -0.44600
O 	O 	0.72078 0.20760 0.37307 -0.42500
O 	O 	0.70767 0.89891 0.01773 -0.42400
O 	O 	0.62833 0.85220 0.96592 -0.39500
O 	O 	0.64330 0.52580 0.36644 -0.39100
O 	O 	0.69480 0.39902 0.47516 -0.50800
N 	N 	0.54677 0.30500 0.30252 -0.18300
C 	C 	0.67882 0.18360 0.31340 0.37800
C 	C 	0.67520 0.11350 0.23579 -0.08900
C 	C 	0.63241 0.04900 0.17530 -0.01200
H 	H 	0.60460 0.04980 0.18210 0.03600
C 	C 	0.71559 0.10930 0.22518 -0.00900
H 	H 	0.74520 0.15170 0.26650 0.04700
C 	C 	0.66911 0.90550 0.01985 0.30500
C 	C 	0.67036 0.98160 0.09382 -0.06400
C 	C 	0.71317 0.04390 0.15484 -0.03200
H 	H 	0.74110 0.04170 0.14850 0.05600
C 	C 	0.63024 0.98340 0.10500 -0.03300
H 	H 	0.60090 0.93930 0.06420 0.03300
C 	C 	0.68347 0.51470 0.43338 0.32000
C 	C 	0.71786 0.63690 0.46752 -0.07400
C 	C 	0.71258 0.75230 0.41596 -0.01200
H 	H 	0.68690 0.75390 0.35870 0.04700
C 	C 	0.75508 0.63460 0.55160 -0.01700
H 	H 	0.75840 0.55610 0.58680 0.04900
C 	C 	0.51999 0.23820 0.34131 -0.05900
H 	H 	0.52410 0.29640 0.38980 0.02700
H 	H 	0.53370 0.14310 0.36310 0.04000
C 	C 	0.53426 0.22470 0.22382 -0.05700
H 	H 	0.54260 0.12350 0.23800 0.04400
H 	H 	0.55370 0.26130 0.19900 0.04100
C 	C 	0.52803 0.45160 0.27694 -0.05900
H 	H 	0.54190 0.49360 0.24370 0.03700
H 	H 	0.53840 0.51040 0.32820 0.02200
Co	Co	0.87628 0.81464 0.10792 1.14700
O 	O 	0.86080 0.71120 0.18935 -0.44600
O 	O 	0.77922 0.70760 0.12693 -0.43400
O 	O 	0.79233 0.39891 0.48227 -0.42200
O 	O 	0.87167 0.35220 0.53408 -0.44400
O 	O 	0.85670 0.02580 0.13356 -0.40400
O 	O 	0.80520 0.89902 0.02484 -0.53600
N 	N 	0.95323 0.80500 0.19748 -0.18400
C 	C 	0.82118 0.68360 0.18660 0.37700
C 	C 	0.82480 0.61350 0.26421 -0.08500
C 	C 	0.86759 0.54900 0.32470 -0.01400
H 	H 	0.89540 0.54980 0.31790 0.04000
C 	C 	0.78441 0.60930 0.27482 -0.01400
H 	H 	0.75480 0.65170 0.23350 0.04600
C 	C 	0.83089 0.40550 0.48015 0.36600
C 	C 	0.82964 0.48160 0.40618 -0.07700
C 	C 	0.78683 0.54390 0.34516 -0.01800
H 	H 	0.75890 0.54170 0.35150 0.05200
C 	C 	0.86976 0.48340 0.39500 -0.02000
H 	H 	0.89910 0.43930 0.43580 0.04300
C 	C 	0.81653 0.01470 0.06662 0.36000
C 	C 	0.78214 0.13690 0.03248 -0.20400
C 	C 	0.78742 0.25230 0.08404 0.09800
H 	H 	0.81310 0.25390 0.14130 0.00900
C 	C 	0.74492 0.13460 0.94840 0.13700
H 	H 	0.74160 0.05610 0.91320 0.00900
C 	C 	0.98001 0.73820 0.15869 -0.05600
H 	H 	0.97590 0.79640 0.11020 0.01900
H 	H 	0.96630 0.64310 0.13690 0.03400
C 	C 	0.96574 0.72470 0.27618 -0.05700
H 	H 	0.95740 0.62350 0.26200 0.04400
H 	H 	0.94630 0.76130 0.30100 0.04400
C 	C 	0.97197 0.95160 0.22306 -0.05900
H 	H 	0.95810 0.99360 0.25630 0.04000
H 	H 	0.96160 0.01040 0.17180 0.01700
Co	Co	0.37628 0.31464 0.10792 1.14600
O 	O 	0.36080 0.21120 0.18935 -0.44600
O 	O 	0.27922 0.20760 0.12693 -0.43400
O 	O 	0.29233 0.89891 0.48227 -0.42100
O 	O 	0.37167 0.85220 0.53408 -0.44400
O 	O 	0.35670 0.52580 0.13356 -0.40400
O 	O 	0.30520 0.39902 0.02484 -0.53700
N 	N 	0.45323 0.30500 0.19748 -0.18400
C 	C 	0.32118 0.18360 0.18660 0.37700
C 	C 	0.32480 0.11350 0.26421 -0.08500
C 	C 	0.36759 0.04900 0.32470 -0.01500
H 	H 	0.39540 0.04980 0.31790 0.04100
C 	C 	0.28441 0.10930 0.27482 -0.01400
H 	H 	0.25480 0.15170 0.23350 0.04600
C 	C 	0.33089 0.90550 0.48015 0.36600
C 	C 	0.32964 0.98160 0.40618 -0.07600
C 	C 	0.28683 0.04390 0.34516 -0.02000
H 	H 	0.25890 0.04170 0.35150 0.05200
C 	C 	0.36976 0.98340 0.39500 -0.01900
H 	H 	0.39910 0.93930 0.43580 0.04300
C 	C 	0.31653 0.51470 0.06662 0.36100
C 	C 	0.28214 0.63690 0.03248 -0.20500
C 	C 	0.28742 0.75230 0.08404 0.09900
H 	H 	0.31310 0.75390 0.14130 0.01000
C 	C 	0.24492 0.63460 0.94840 0.13900
H 	H 	0.24160 0.55610 0.91320 0.00900
C 	C 	0.48001 0.23820 0.15869 -0.05400
H 	H 	0.47590 0.29640 0.11020 0.01800
H 	H 	0.46630 0.14310 0.13690 0.03400
C 	C 	0.46574 0.22470 0.27618 -0.05400
H 	H 	0.45740 0.12350 0.26200 0.04400
H 	H 	0.44630 0.26130 0.30100 0.04400
C 	C 	0.47197 0.45160 0.22306 -0.05700
H 	H 	0.45810 0.49360 0.25630 0.04000
H 	H 	0.46160 0.51040 0.17180 0.01800
Co	Co	0.87628 0.18536 0.60792 1.14900
O 	O 	0.86080 0.28880 0.68935 -0.44300
O 	O 	0.77922 0.29240 0.62693 -0.42400
O 	O 	0.79233 0.60109 0.98227 -0.41300
O 	O 	0.87167 0.64780 0.03408 -0.49200
O 	O 	0.85670 0.97420 0.63356 -0.38700
O 	O 	0.80520 0.10098 0.52484 -0.50900
N 	N 	0.95323 0.19500 0.69748 -0.18200
C 	C 	0.82118 0.31640 0.68660 0.37600
C 	C 	0.82480 0.38650 0.76421 -0.07600
C 	C 	0.86759 0.45100 0.82470 -0.01900
H 	H 	0.89540 0.45020 0.81790 0.04700
C 	C 	0.78441 0.39070 0.77482 -0.02100
H 	H 	0.75480 0.34830 0.73350 0.05200
C 	C 	0.83089 0.59450 0.98015 0.42600
C 	C 	0.82964 0.51840 0.90618 -0.09000
C 	C 	0.78683 0.45610 0.84516 -0.00400
H 	H 	0.75890 0.45830 0.85150 0.04900
C 	C 	0.86976 0.51660 0.89500 -0.00500
H 	H 	0.89910 0.56070 0.93580 0.05200
C 	C 	0.81653 0.98530 0.56662 0.32000
C 	C 	0.78214 0.86310 0.53248 -0.07200
C 	C 	0.78742 0.74770 0.58404 -0.01400
H 	H 	0.81310 0.74610 0.64130 0.05000
C 	C 	0.74492 0.86540 0.44840 -0.01900
H 	H 	0.74160 0.94390 0.41320 0.05000
C 	C 	0.98001 0.26180 0.65869 -0.06100
H 	H 	0.97590 0.20360 0.61020 0.02700
H 	H 	0.96630 0.35690 0.63690 0.04100
C 	C 	0.96574 0.27530 0.77618 -0.05600
H 	H 	0.95740 0.37650 0.76200 0.04700
H 	H 	0.94630 0.23870 0.80100 0.04700
C 	C 	0.97197 0.04840 0.72306 -0.06300
H 	H 	0.95810 0.00640 0.75630 0.04300
H 	H 	0.96160 0.98960 0.67180 0.02500
Co	Co	0.37628 0.68536 0.60792 1.14900
O 	O 	0.36080 0.78880 0.68935 -0.44200
O 	O 	0.27922 0.79240 0.62693 -0.42400
O 	O 	0.29233 0.10109 0.98227 -0.41300
O 	O 	0.37167 0.14780 0.03408 -0.49200
O 	O 	0.35670 0.47420 0.63356 -0.38800
O 	O 	0.30520 0.60098 0.52484 -0.50800
N 	N 	0.45323 0.69500 0.69748 -0.18300
C 	C 	0.32118 0.81640 0.68660 0.37600
C 	C 	0.32480 0.88650 0.76421 -0.07600
C 	C 	0.36759 0.95100 0.82470 -0.01700
H 	H 	0.39540 0.95020 0.81790 0.04600
C 	C 	0.28441 0.89070 0.77482 -0.02100
H 	H 	0.25480 0.84830 0.73350 0.05200
C 	C 	0.33089 0.09450 0.98015 0.42600
C 	C 	0.32964 0.01840 0.90618 -0.09100
C 	C 	0.28683 0.95610 0.84516 -0.00200
H 	H 	0.25890 0.95830 0.85150 0.04900
C 	C 	0.36976 0.01660 0.89500 -0.00700
H 	H 	0.39910 0.06070 0.93580 0.05200
C 	C 	0.31653 0.48530 0.56662 0.31900
C 	C 	0.28214 0.36310 0.53248 -0.07100
C 	C 	0.28742 0.24770 0.58404 -0.01400
H 	H 	0.31310 0.24610 0.64130 0.05000
C 	C 	0.24492 0.36540 0.44840 -0.01900
H 	H 	0.24160 0.44390 0.41320 0.05000
C 	C 	0.48001 0.76180 0.65869 -0.05800
H 	H 	0.47590 0.70360 0.61020 0.02700
H 	H 	0.46630 0.85690 0.63690 0.04100
C 	C 	0.46574 0.77530 0.77618 -0.05300
H 	H 	0.45740 0.87650 0.76200 0.04700
H 	H 	0.44630 0.73870 0.80100 0.04700
C 	C 	0.47197 0.54840 0.72306 -0.05900
H 	H 	0.45810 0.50640 0.75630 0.04300
H 	H 	0.46160 0.48960 0.67180 0.02300
Co	Co	0.12372 0.18536 0.89208 1.15100
O 	O 	0.13920 0.28880 0.81065 -0.44100
O 	O 	0.22078 0.29240 0.87307 -0.40800
O 	O 	0.20767 0.60109 0.51773 -0.42200
O 	O 	0.12833 0.64780 0.46592 -0.44400
O 	O 	0.14330 0.97420 0.86644 -0.37400
O 	O 	0.19480 0.10098 0.97516 -0.47400
N 	N 	0.04677 0.19500 0.80252 -0.18200
C 	C 	0.17882 0.31640 0.81340 0.37400
C 	C 	0.17520 0.38650 0.73579 -0.07800
C 	C 	0.13241 0.45100 0.67530 -0.01800
H 	H 	0.10460 0.45020 0.68210 0.04300
C 	C 	0.21559 0.39070 0.72518 -0.01700
H 	H 	0.24520 0.34830 0.76650 0.05300
C 	C 	0.16911 0.59450 0.51985 0.36700
C 	C 	0.17036 0.51840 0.59382 -0.07900
C 	C 	0.21317 0.45610 0.65484 -0.01500
H 	H 	0.24110 0.45830 0.64850 0.05200
C 	C 	0.13024 0.51660 0.60500 -0.01700
H 	H 	0.10090 0.56070 0.56420 0.04200
C 	C 	0.18347 0.98530 0.93338 0.27700
C 	C 	0.21786 0.86310 0.96752 0.06100
C 	C 	0.21258 0.74770 0.91596 -0.12500
H 	H 	0.18690 0.74610 0.85870 0.08800
C 	C 	0.25508 0.86540 0.05160 -0.17500
H 	H 	0.25840 0.94390 0.08680 0.09200
C 	C 	0.01999 0.26180 0.84131 -0.06000
H 	H 	0.02410 0.20360 0.88980 0.03600
H 	H 	0.03370 0.35690 0.86310 0.04700
C 	C 	0.03426 0.27530 0.72382 -0.05300
H 	H 	0.04260 0.37650 0.73800 0.04600
H 	H 	0.05370 0.23870 0.69900 0.04300
C 	C 	0.02803 0.04840 0.77694 -0.05900
H 	H 	0.04190 0.00640 0.74370 0.04100
H 	H 	0.03840 0.98960 0.82820 0.02900
Co	Co	0.62372 0.68536 0.89208 1.15200
O 	O 	0.63920 0.78880 0.81065 -0.44000
O 	O 	0.72078 0.79240 0.87307 -0.40800
O 	O 	0.70767 0.10109 0.51773 -0.42200
O 	O 	0.62833 0.14780 0.46592 -0.44500
O 	O 	0.64330 0.47420 0.86644 -0.37500
O 	O 	0.69480 0.60098 0.97516 -0.47300
N 	N 	0.54677 0.69500 0.80252 -0.18100
C 	C 	0.67882 0.81640 0.81340 0.37400
C 	C 	0.67520 0.88650 0.73579 -0.07800
C 	C 	0.63241 0.95100 0.67530 -0.01600
H 	H 	0.60460 0.95020 0.68210 0.04200
C 	C 	0.71559 0.89070 0.72518 -0.01700
H 	H 	0.74520 0.84830 0.76650 0.05300
C 	C 	0.66911 0.09450 0.51985 0.36700
C 	C 	0.67036 0.01840 0.59382 -0.08000
C 	C 	0.71317 0.95610 0.65484 -0.01300
H 	H 	0.74110 0.95830 0.64850 0.05200
C 	C 	0.63024 0.01660 0.60500 -0.01900
H 	H 	0.60090 0.06070 0.56420 0.04200
C 	C 	0.68347 0.48530 0.93338 0.27600
C 	C 	0.71786 0.36310 0.96752 0.06100
C 	C 	0.71258 0.24770 0.91596 -0.12500
H 	H 	0.68690 0.24610 0.85870 0.08800
C 	C 	0.75508 0.36540 0.05160 -0.17500
H 	H 	0.75840 0.44390 0.08680 0.09100
C 	C 	0.51999 0.76180 0.84131 -0.06300
H 	H 	0.52410 0.70360 0.88980 0.03600
H 	H 	0.53370 0.85690 0.86310 0.04700
C 	C 	0.53426 0.77530 0.72382 -0.05600
H 	H 	0.54260 0.87650 0.73800 0.04600
H 	H 	0.55370 0.73870 0.69900 0.04400
C 	C 	0.52803 0.54840 0.77694 -0.06000
H 	H 	0.54190 0.50640 0.74370 0.04100
H 	H 	0.53840 0.48960 0.82820 0.02800
Co	Co	0.25000 0.75000 0.50000 1.20400
Co	Co	0.75000 0.75000 -0.00000 1.18300
Co	Co	0.75000 0.25000 0.50000 1.20400
Co	Co	0.25000 0.25000 -0.00000 1.18300
