data_crystal

_cell_length_a 20.13600
_cell_length_b 21.19000
_cell_length_c 17.29200
_cell_angle_alpha 90.00000
_cell_angle_beta  93.78000
_cell_angle_gamma 90.00000

_symmetry_space_group_name_	'P 1'
_symmetry_space_group_name_H-M	'P 1'

loop_
_symmetry_equiv_pos_as_xyz
  x,y,z

loop_
_atom_site_label
_atom_site_type_symbol
_atom_site_fract_x
_atom_site_fract_y
_atom_site_fract_z
_atom_site_charge
Co	Co	0.10654 0.25704 0.10590 1.15800
O 	O 	0.16659 0.32191 0.14923 -0.48000
O 	O 	0.26020 0.31655 0.08566 -0.44300
O 	O 	0.14607 0.26593 0.98570 -0.47000
O 	O 	0.04235 0.27641 0.01377 -0.48200
O 	O 	0.26172 0.67932 0.42101 -0.43400
O 	O 	0.36383 0.66916 0.37763 -0.46100
N 	N 	0.04106 0.25807 0.19512 -0.18900
C 	C 	0.22442 0.34018 0.13376 0.38500
C 	C 	0.25140 0.39589 0.17954 -0.10000
C 	C 	0.21218 0.42697 0.22855 -0.02800
H 	H 	0.16850 0.41190 0.23510 0.04400
C 	C 	0.23530 0.48117 0.26985 0.01600
C 	C 	0.19510 0.51450 0.31990 -0.08300
H 	H 	0.15160 0.49950 0.32780 0.05600
C 	C 	0.21769 0.56810 0.35710 0.01200
H 	H 	0.18970 0.59040 0.38980 0.04000
C 	C 	0.28278 0.59011 0.34694 -0.08900
C 	C 	0.32344 0.55855 0.29992 -0.03300
H 	H 	0.36720 0.57370 0.29410 0.04900
C 	C 	0.30081 0.50323 0.25953 0.02200
C 	C 	0.34125 0.46936 0.20980 -0.09000
H 	H 	0.38550 0.48310 0.20350 0.05600
C 	C 	0.31734 0.41709 0.17070 0.01700
H 	H 	0.34500 0.39490 0.13750 0.03200
C 	C 	0.08602 0.27505 0.96379 0.40600
C 	C 	0.30456 0.65065 0.38570 0.37200
C 	C 	0.06504 0.28223 0.87971 -0.09700
C 	C 	0.11252 0.28280 0.82411 0.02200
H 	H 	0.15860 0.28080 0.83990 0.03800
C 	C 	0.09242 0.28620 0.74650 -0.08700
H 	H 	0.12490 0.28770 0.70910 0.06100
C 	C 	0.99849 0.28609 0.85761 -0.02400
H 	H 	0.96700 0.28780 0.89610 0.06600
C 	C 	0.02393 0.28759 0.72175 0.02800
C 	C 	0.97600 0.25040 0.16510 -0.08900
H 	H 	0.97290 0.21260 0.13160 -0.01400
H 	H 	0.96250 0.28750 0.13300 0.03800
C 	C 	0.06160 0.20580 0.25410 0.08900
H 	H 	0.05520 0.16380 0.22970 0.00800
H 	H 	0.10920 0.21050 0.27150 0.08300
C 	C 	0.05180 0.31830 0.24210 -0.24600
H 	H 	0.04950 0.35550 0.20740 0.02900
H 	H 	0.09600 0.31760 0.27070 0.10500
C 	C 	0.98150 0.21170 0.17650 -0.04800
H 	H 	0.95400 0.22740 0.13100 0.07200
H 	H 	0.99900 0.16960 0.16350 0.02500
C 	C 	0.07070 0.24320 0.26980 0.00800
H 	H 	0.10970 0.27100 0.28070 -0.01200
H 	H 	0.08690 0.19910 0.26940 -0.11600
C 	C 	0.00400 0.32150 0.20030 0.14700
H 	H 	0.98430 0.33310 0.14830 -0.04700
H 	H 	0.03620 0.35490 0.21730 0.02500
Co	Co	0.60654 0.75704 0.10590 1.15900
O 	O 	0.66659 0.82191 0.14923 -0.47900
O 	O 	0.76020 0.81655 0.08566 -0.44300
O 	O 	0.64607 0.76593 0.98570 -0.46900
O 	O 	0.54235 0.77641 0.01377 -0.48300
O 	O 	0.76172 0.17932 0.42101 -0.43300
O 	O 	0.86383 0.16916 0.37763 -0.46000
N 	N 	0.54106 0.75807 0.19512 -0.18800
C 	C 	0.72442 0.84018 0.13376 0.38600
C 	C 	0.75140 0.89589 0.17954 -0.09900
C 	C 	0.71218 0.92697 0.22855 -0.02700
H 	H 	0.66850 0.91190 0.23510 0.04500
C 	C 	0.73530 0.98117 0.26985 0.01700
C 	C 	0.69510 0.01450 0.31990 -0.08300
H 	H 	0.65160 0.99950 0.32780 0.05600
C 	C 	0.71769 0.06810 0.35710 0.01200
H 	H 	0.68970 0.09040 0.38980 0.04000
C 	C 	0.78278 0.09011 0.34694 -0.08900
C 	C 	0.82344 0.05855 0.29992 -0.03300
H 	H 	0.86720 0.07370 0.29410 0.04900
C 	C 	0.80081 0.00323 0.25953 0.02200
C 	C 	0.84125 0.96936 0.20980 -0.09000
H 	H 	0.88550 0.98310 0.20350 0.05600
C 	C 	0.81734 0.91709 0.17070 0.01700
H 	H 	0.84500 0.89490 0.13750 0.03200
C 	C 	0.58602 0.77505 0.96379 0.40700
C 	C 	0.80456 0.15065 0.38570 0.37200
C 	C 	0.56504 0.78223 0.87971 -0.09800
C 	C 	0.61252 0.78280 0.82411 0.02300
H 	H 	0.65860 0.78080 0.83990 0.03800
C 	C 	0.59242 0.78620 0.74650 -0.08800
H 	H 	0.62490 0.78770 0.70910 0.06100
C 	C 	0.49849 0.78609 0.85761 -0.02200
H 	H 	0.46700 0.78780 0.89610 0.06600
C 	C 	0.52393 0.78759 0.72175 0.02800
C 	C 	0.47600 0.75040 0.16510 -0.08900
H 	H 	0.47290 0.71260 0.13160 -0.01600
H 	H 	0.46250 0.78750 0.13300 0.03800
C 	C 	0.56160 0.70580 0.25410 0.08900
H 	H 	0.55520 0.66380 0.22970 0.00700
H 	H 	0.60920 0.71050 0.27150 0.08300
C 	C 	0.55180 0.81830 0.24210 -0.24500
H 	H 	0.54950 0.85550 0.20740 0.03000
H 	H 	0.59600 0.81760 0.27070 0.10500
C 	C 	0.48150 0.71170 0.17650 -0.04600
H 	H 	0.45400 0.72740 0.13100 0.07300
H 	H 	0.49900 0.66960 0.16350 0.02500
C 	C 	0.57070 0.74320 0.26980 0.00800
H 	H 	0.60970 0.77100 0.28070 -0.01200
H 	H 	0.58690 0.69910 0.26940 -0.11600
C 	C 	0.50400 0.82150 0.20030 0.14400
H 	H 	0.48430 0.83310 0.14830 -0.04500
H 	H 	0.53620 0.85490 0.21730 0.02400
Co	Co	0.89346 0.25704 0.39410 1.16500
O 	O 	0.83341 0.32191 0.35077 -0.47400
O 	O 	0.73980 0.31655 0.41434 -0.43000
O 	O 	0.85393 0.26593 0.51430 -0.48500
O 	O 	0.95765 0.27641 0.48623 -0.42500
O 	O 	0.73828 0.67932 0.07899 -0.44400
O 	O 	0.63617 0.66916 0.12237 -0.46800
N 	N 	0.95894 0.25807 0.30488 -0.18700
C 	C 	0.77558 0.34018 0.36624 0.38600
C 	C 	0.74860 0.39589 0.32046 -0.09500
C 	C 	0.78782 0.42697 0.27145 -0.02800
H 	H 	0.83150 0.41190 0.26490 0.04500
C 	C 	0.76470 0.48117 0.23015 0.01800
C 	C 	0.80490 0.51450 0.18010 -0.08700
H 	H 	0.84840 0.49950 0.17220 0.05300
C 	C 	0.78231 0.56810 0.14290 0.01200
H 	H 	0.81030 0.59040 0.11020 0.03400
C 	C 	0.71722 0.59011 0.15306 -0.09500
C 	C 	0.67656 0.55855 0.20008 -0.03100
H 	H 	0.63280 0.57370 0.20590 0.04800
C 	C 	0.69919 0.50323 0.24047 0.02000
C 	C 	0.65875 0.46936 0.29020 -0.08700
H 	H 	0.61450 0.48310 0.29650 0.05800
C 	C 	0.68266 0.41709 0.32930 0.01700
H 	H 	0.65500 0.39490 0.36250 0.03900
C 	C 	0.91398 0.27505 0.53621 0.34300
C 	C 	0.69544 0.65065 0.11430 0.37100
C 	C 	0.93496 0.28223 0.62029 -0.08300
C 	C 	0.88748 0.28280 0.67589 0.01000
H 	H 	0.84140 0.28080 0.66010 0.04300
C 	C 	0.90758 0.28620 0.75350 -0.07900
H 	H 	0.87510 0.28770 0.79090 0.06400
C 	C 	0.00151 0.28609 0.64239 -0.03500
H 	H 	0.03300 0.28780 0.60390 0.05700
C 	C 	0.97607 0.28759 0.77825 0.02100
C 	C 	0.02400 0.25040 0.33490 -0.09000
H 	H 	0.02710 0.21260 0.36840 -0.01400
H 	H 	0.03750 0.28750 0.36700 0.04200
C 	C 	0.93840 0.20580 0.24590 0.09100
H 	H 	0.94480 0.16380 0.27030 0.00600
H 	H 	0.89080 0.21050 0.22850 0.08000
C 	C 	0.94820 0.31830 0.25790 -0.24500
H 	H 	0.95050 0.35550 0.29260 0.03000
H 	H 	0.90400 0.31760 0.22930 0.10300
C 	C 	0.01850 0.21170 0.32350 -0.04900
H 	H 	0.04600 0.22740 0.36900 0.07900
H 	H 	0.00100 0.16960 0.33650 0.03100
C 	C 	0.92930 0.24320 0.23020 0.00500
H 	H 	0.89030 0.27100 0.21930 -0.01400
H 	H 	0.91310 0.19910 0.23060 -0.11600
C 	C 	0.99600 0.32150 0.29970 0.13900
H 	H 	0.01570 0.33310 0.35170 -0.03900
H 	H 	0.96380 0.35490 0.28270 0.02600
Co	Co	0.39346 0.75704 0.39410 1.16600
O 	O 	0.33341 0.82191 0.35077 -0.47400
O 	O 	0.23980 0.81655 0.41434 -0.43000
O 	O 	0.35393 0.76593 0.51430 -0.48500
O 	O 	0.45765 0.77641 0.48623 -0.42500
O 	O 	0.23828 0.17932 0.07899 -0.44400
O 	O 	0.13617 0.16916 0.12237 -0.46700
N 	N 	0.45894 0.75807 0.30488 -0.18700
C 	C 	0.27558 0.84018 0.36624 0.38600
C 	C 	0.24860 0.89589 0.32046 -0.09500
C 	C 	0.28782 0.92697 0.27145 -0.02800
H 	H 	0.33150 0.91190 0.26490 0.04500
C 	C 	0.26470 0.98117 0.23015 0.01800
C 	C 	0.30490 0.01450 0.18010 -0.08600
H 	H 	0.34840 0.99950 0.17220 0.05300
C 	C 	0.28231 0.06810 0.14290 0.01200
H 	H 	0.31030 0.09040 0.11020 0.03400
C 	C 	0.21722 0.09011 0.15306 -0.09400
C 	C 	0.17656 0.05855 0.20008 -0.03200
H 	H 	0.13280 0.07370 0.20590 0.04800
C 	C 	0.19919 0.00323 0.24047 0.02100
C 	C 	0.15875 0.96936 0.29020 -0.08700
H 	H 	0.11450 0.98310 0.29650 0.05800
C 	C 	0.18266 0.91709 0.32930 0.01700
H 	H 	0.15500 0.89490 0.36250 0.03900
C 	C 	0.41398 0.77505 0.53621 0.34200
C 	C 	0.19544 0.15065 0.11430 0.37100
C 	C 	0.43496 0.78223 0.62029 -0.08200
C 	C 	0.38748 0.78280 0.67589 0.01000
H 	H 	0.34140 0.78080 0.66010 0.04300
C 	C 	0.40758 0.78620 0.75350 -0.07800
H 	H 	0.37510 0.78770 0.79090 0.06400
C 	C 	0.50151 0.78609 0.64239 -0.03700
H 	H 	0.53300 0.78780 0.60390 0.05700
C 	C 	0.47607 0.78759 0.77825 0.02100
C 	C 	0.52400 0.75040 0.33490 -0.09000
H 	H 	0.52710 0.71260 0.36840 -0.01300
H 	H 	0.53750 0.78750 0.36700 0.04100
C 	C 	0.43840 0.70580 0.24590 0.09100
H 	H 	0.44480 0.66380 0.27030 0.00600
H 	H 	0.39080 0.71050 0.22850 0.08000
C 	C 	0.44820 0.81830 0.25790 -0.24500
H 	H 	0.45050 0.85550 0.29260 0.03000
H 	H 	0.40400 0.81760 0.22930 0.10300
C 	C 	0.51850 0.71170 0.32350 -0.05000
H 	H 	0.54600 0.72740 0.36900 0.07800
H 	H 	0.50100 0.66960 0.33650 0.03100
C 	C 	0.42930 0.74320 0.23020 0.00500
H 	H 	0.39030 0.77100 0.21930 -0.01400
H 	H 	0.41310 0.69910 0.23060 -0.11600
C 	C 	0.49600 0.82150 0.29970 0.14100
H 	H 	0.51570 0.83310 0.35170 -0.04000
H 	H 	0.46380 0.85490 0.28270 0.02700
Co	Co	0.89346 0.74296 0.89410 1.17200
O 	O 	0.83341 0.67809 0.85077 -0.46600
O 	O 	0.73980 0.68345 0.91434 -0.40800
O 	O 	0.85393 0.73407 0.01430 -0.49300
O 	O 	0.95765 0.72359 0.98623 -0.36700
O 	O 	0.73828 0.32068 0.57899 -0.43200
O 	O 	0.63617 0.33084 0.62237 -0.45900
N 	N 	0.95894 0.74193 0.80488 -0.18700
C 	C 	0.77558 0.65982 0.86624 0.38600
C 	C 	0.74860 0.60411 0.82046 -0.08700
C 	C 	0.78782 0.57303 0.77145 -0.02700
H 	H 	0.83150 0.58810 0.76490 0.04900
C 	C 	0.76470 0.51883 0.73015 0.02300
C 	C 	0.80490 0.48550 0.68010 -0.08300
H 	H 	0.84840 0.50050 0.67220 0.05800
C 	C 	0.78231 0.43190 0.64290 0.01500
H 	H 	0.81030 0.40960 0.61020 0.04000
C 	C 	0.71722 0.40989 0.65306 -0.08900
C 	C 	0.67656 0.44145 0.70008 -0.02900
H 	H 	0.63280 0.42630 0.70590 0.05100
C 	C 	0.69919 0.49677 0.74047 0.02400
C 	C 	0.65875 0.53064 0.79020 -0.08200
H 	H 	0.61450 0.51690 0.79650 0.06200
C 	C 	0.68266 0.58291 0.82930 0.01800
H 	H 	0.65500 0.60510 0.86250 0.04600
C 	C 	0.91398 0.72495 0.03621 0.27600
C 	C 	0.69544 0.34935 0.61430 0.37300
C 	C 	0.93496 0.71777 0.12029 -0.06900
C 	C 	0.88748 0.71720 0.17589 -0.00300
H 	H 	0.84140 0.71920 0.16010 0.04600
C 	C 	0.90758 0.71380 0.25350 -0.07500
H 	H 	0.87510 0.71230 0.29090 0.05700
C 	C 	0.00151 0.71391 0.14239 -0.04700
H 	H 	0.03300 0.71220 0.10390 0.04700
C 	C 	0.97607 0.71241 0.27825 0.01700
C 	C 	0.02400 0.74960 0.83490 -0.09000
H 	H 	0.02710 0.78740 0.86840 -0.01100
H 	H 	0.03750 0.71250 0.86700 0.04500
C 	C 	0.93840 0.79420 0.74590 0.08900
H 	H 	0.94480 0.83620 0.77030 0.00900
H 	H 	0.89080 0.78950 0.72850 0.08200
C 	C 	0.94820 0.68170 0.75790 -0.24600
H 	H 	0.95050 0.64450 0.79260 0.03100
H 	H 	0.90400 0.68240 0.72930 0.10600
C 	C 	0.01850 0.78830 0.82350 -0.05500
H 	H 	0.04600 0.77260 0.86900 0.08300
H 	H 	0.00100 0.83040 0.83650 0.03700
C 	C 	0.92930 0.75680 0.73020 0.00800
H 	H 	0.89030 0.72900 0.71930 -0.01300
H 	H 	0.91310 0.80090 0.73060 -0.11600
C 	C 	0.99600 0.67850 0.79970 0.13800
H 	H 	0.01570 0.66690 0.85170 -0.03500
H 	H 	0.96380 0.64510 0.78270 0.02900
Co	Co	0.39346 0.24296 0.89410 1.17200
O 	O 	0.33341 0.17809 0.85077 -0.46600
O 	O 	0.23980 0.18345 0.91434 -0.40900
O 	O 	0.35393 0.23407 0.01430 -0.49300
O 	O 	0.45765 0.22359 0.98623 -0.36600
O 	O 	0.23828 0.82068 0.57899 -0.43200
O 	O 	0.13617 0.83084 0.62237 -0.45900
N 	N 	0.45894 0.24193 0.80488 -0.18700
C 	C 	0.27558 0.15982 0.86624 0.38600
C 	C 	0.24860 0.10411 0.82046 -0.08800
C 	C 	0.28782 0.07303 0.77145 -0.02600
H 	H 	0.33150 0.08810 0.76490 0.04900
C 	C 	0.26470 0.01883 0.73015 0.02100
C 	C 	0.30490 0.98550 0.68010 -0.08200
H 	H 	0.34840 0.00050 0.67220 0.05800
C 	C 	0.28231 0.93190 0.64290 0.01400
H 	H 	0.31030 0.90960 0.61020 0.04100
C 	C 	0.21722 0.90989 0.65306 -0.08800
C 	C 	0.17656 0.94145 0.70008 -0.03000
H 	H 	0.13280 0.92630 0.70590 0.05100
C 	C 	0.19919 0.99677 0.74047 0.02500
C 	C 	0.15875 0.03064 0.79020 -0.08300
H 	H 	0.11450 0.01690 0.79650 0.06300
C 	C 	0.18266 0.08291 0.82930 0.01800
H 	H 	0.15500 0.10510 0.86250 0.04600
C 	C 	0.41398 0.22495 0.03621 0.27600
C 	C 	0.19544 0.84935 0.61430 0.37300
C 	C 	0.43496 0.21777 0.12029 -0.06700
C 	C 	0.38748 0.21720 0.17589 -0.00400
H 	H 	0.34140 0.21920 0.16010 0.04700
C 	C 	0.40758 0.21380 0.25350 -0.07400
H 	H 	0.37510 0.21230 0.29090 0.05600
C 	C 	0.50151 0.21391 0.14239 -0.04900
H 	H 	0.53300 0.21220 0.10390 0.04700
C 	C 	0.47607 0.21241 0.27825 0.01700
C 	C 	0.52400 0.24960 0.83490 -0.09000
H 	H 	0.52710 0.28740 0.86840 -0.01000
H 	H 	0.53750 0.21250 0.86700 0.04500
C 	C 	0.43840 0.29420 0.74590 0.08900
H 	H 	0.44480 0.33620 0.77030 0.00900
H 	H 	0.39080 0.28950 0.72850 0.08200
C 	C 	0.44820 0.18170 0.75790 -0.24700
H 	H 	0.45050 0.14450 0.79260 0.03100
H 	H 	0.40400 0.18240 0.72930 0.10600
C 	C 	0.51850 0.28830 0.82350 -0.05600
H 	H 	0.54600 0.27260 0.86900 0.08200
H 	H 	0.50100 0.33040 0.83650 0.03700
C 	C 	0.42930 0.25680 0.73020 0.00800
H 	H 	0.39030 0.22900 0.71930 -0.01300
H 	H 	0.41310 0.30090 0.73060 -0.11600
C 	C 	0.49600 0.17850 0.79970 0.14100
H 	H 	0.51570 0.16690 0.85170 -0.03600
H 	H 	0.46380 0.14510 0.78270 0.02900
Co	Co	0.10654 0.74296 0.60590 1.16600
O 	O 	0.16659 0.67809 0.64923 -0.47300
O 	O 	0.26020 0.68345 0.58566 -0.42900
O 	O 	0.14607 0.73407 0.48570 -0.48500
O 	O 	0.04235 0.72359 0.51377 -0.42500
O 	O 	0.26172 0.32068 0.92101 -0.41300
O 	O 	0.36383 0.33084 0.87763 -0.45000
N 	N 	0.04106 0.74193 0.69512 -0.18700
C 	C 	0.22442 0.65982 0.63376 0.38800
C 	C 	0.25140 0.60411 0.67954 -0.09300
C 	C 	0.21218 0.57303 0.72855 -0.02500
H 	H 	0.16850 0.58810 0.73510 0.04800
C 	C 	0.23530 0.51883 0.76985 0.02100
C 	C 	0.19510 0.48550 0.81990 -0.07900
H 	H 	0.15160 0.50050 0.82780 0.06100
C 	C 	0.21769 0.43190 0.85710 0.01400
H 	H 	0.18970 0.40960 0.88980 0.04800
C 	C 	0.28278 0.40989 0.84694 -0.08200
C 	C 	0.32344 0.44145 0.79992 -0.03100
H 	H 	0.36720 0.42630 0.79410 0.05300
C 	C 	0.30081 0.49677 0.75953 0.02600
C 	C 	0.34125 0.53064 0.70980 -0.08600
H 	H 	0.38550 0.51690 0.70350 0.06100
C 	C 	0.31734 0.58291 0.67070 0.02000
H 	H 	0.34500 0.60510 0.63750 0.03900
C 	C 	0.08602 0.72495 0.46379 0.34300
C 	C 	0.30456 0.34935 0.88570 0.37200
C 	C 	0.06504 0.71777 0.37971 -0.08400
C 	C 	0.11252 0.71720 0.32411 0.01000
H 	H 	0.15860 0.71920 0.33990 0.04100
C 	C 	0.09242 0.71380 0.24650 -0.08400
H 	H 	0.12490 0.71230 0.20910 0.05500
C 	C 	0.99849 0.71391 0.35761 -0.03400
H 	H 	0.96700 0.71220 0.39610 0.05500
C 	C 	0.02393 0.71241 0.22175 0.02600
C 	C 	0.97600 0.74960 0.66510 -0.08900
H 	H 	0.97290 0.78740 0.63160 -0.01200
H 	H 	0.96250 0.71250 0.63300 0.04100
C 	C 	0.06160 0.79420 0.75410 0.08800
H 	H 	0.05520 0.83620 0.72970 0.01000
H 	H 	0.10920 0.78950 0.77150 0.08500
C 	C 	0.05180 0.68170 0.74210 -0.24800
H 	H 	0.04950 0.64450 0.70740 0.03000
H 	H 	0.09600 0.68240 0.77070 0.10800
C 	C 	0.98150 0.78830 0.67650 -0.05300
H 	H 	0.95400 0.77260 0.63100 0.07600
H 	H 	0.99900 0.83040 0.66350 0.03100
C 	C 	0.07070 0.75680 0.76980 0.01100
H 	H 	0.10970 0.72900 0.78070 -0.01100
H 	H 	0.08690 0.80090 0.76940 -0.11600
C 	C 	0.00400 0.67850 0.70030 0.14600
H 	H 	0.98430 0.66690 0.64830 -0.04200
H 	H 	0.03620 0.64510 0.71730 0.02700
Co	Co	0.60654 0.24296 0.60590 1.16600
O 	O 	0.66659 0.17809 0.64923 -0.47300
O 	O 	0.76020 0.18345 0.58566 -0.42900
O 	O 	0.64607 0.23407 0.48570 -0.48500
O 	O 	0.54235 0.22359 0.51377 -0.42500
O 	O 	0.76172 0.82068 0.92101 -0.41300
O 	O 	0.86383 0.83084 0.87763 -0.45000
N 	N 	0.54106 0.24193 0.69512 -0.18800
C 	C 	0.72442 0.15982 0.63376 0.38800
C 	C 	0.75140 0.10411 0.67954 -0.09400
C 	C 	0.71218 0.07303 0.72855 -0.02400
H 	H 	0.66850 0.08810 0.73510 0.04800
C 	C 	0.73530 0.01883 0.76985 0.01900
C 	C 	0.69510 0.98550 0.81990 -0.07700
H 	H 	0.65160 0.00050 0.82780 0.06100
C 	C 	0.71769 0.93190 0.85710 0.01300
H 	H 	0.68970 0.90960 0.88980 0.04800
C 	C 	0.78278 0.90989 0.84694 -0.08200
C 	C 	0.82344 0.94145 0.79992 -0.03200
H 	H 	0.86720 0.92630 0.79410 0.05300
C 	C 	0.80081 0.99677 0.75953 0.02700
C 	C 	0.84125 0.03064 0.70980 -0.08700
H 	H 	0.88550 0.01690 0.70350 0.06100
C 	C 	0.81734 0.08291 0.67070 0.02000
H 	H 	0.84500 0.10510 0.63750 0.03900
C 	C 	0.58602 0.22495 0.46379 0.34300
C 	C 	0.80456 0.84935 0.88570 0.37200
C 	C 	0.56504 0.21777 0.37971 -0.08600
C 	C 	0.61252 0.21720 0.32411 0.01100
H 	H 	0.65860 0.21920 0.33990 0.04000
C 	C 	0.59242 0.21380 0.24650 -0.08500
H 	H 	0.62490 0.21230 0.20910 0.05500
C 	C 	0.49849 0.21391 0.35761 -0.03200
H 	H 	0.46700 0.21220 0.39610 0.05500
C 	C 	0.52393 0.21241 0.22175 0.02600
C 	C 	0.47600 0.24960 0.66510 -0.08900
H 	H 	0.47290 0.28740 0.63160 -0.01200
H 	H 	0.46250 0.21250 0.63300 0.04100
C 	C 	0.56160 0.29420 0.75410 0.08800
H 	H 	0.55520 0.33620 0.72970 0.01000
H 	H 	0.60920 0.28950 0.77150 0.08500
C 	C 	0.55180 0.18170 0.74210 -0.24800
H 	H 	0.54950 0.14450 0.70740 0.03100
H 	H 	0.59600 0.18240 0.77070 0.10800
C 	C 	0.48150 0.28830 0.67650 -0.05100
H 	H 	0.45400 0.27260 0.63100 0.07700
H 	H 	0.49900 0.33040 0.66350 0.03100
C 	C 	0.57070 0.25680 0.76980 0.01100
H 	H 	0.60970 0.22900 0.78070 -0.01100
H 	H 	0.58690 0.30090 0.76940 -0.11600
C 	C 	0.50400 0.17850 0.70030 0.14400
H 	H 	0.48430 0.16690 0.64830 -0.04100
H 	H 	0.53620 0.14510 0.71730 0.02700
Co	Co	0.25000 0.25000 -0.00000 1.18400
Co	Co	0.75000 0.25000 0.50000 1.20900
Co	Co	0.75000 0.75000 -0.00000 1.18400
Co	Co	0.25000 0.75000 0.50000 1.20900
