data_crystal

_cell_length_a 7.66870
_cell_length_b 12.68090
_cell_length_c 12.68090
_cell_angle_alpha 84.75420
_cell_angle_beta  72.39990
_cell_angle_gamma 72.39980

_symmetry_space_group_name_	'P 1'
_symmetry_space_group_name_H-M	'P 1'

loop_
_symmetry_equiv_pos_as_xyz
  x,y,z

loop_
_atom_site_label
_atom_site_type_symbol
_atom_site_fract_x
_atom_site_fract_y
_atom_site_fract_z
_atom_site_charge
Mn	Mn	-0.00000 0.00000 -0.00000 1.13600
Mn	Mn	0.25000 0.50000 0.50000 1.26300
H 	H 	0.12500 0.64680 0.85320 0.21400
H 	H 	0.62500 0.35320 0.14680 0.19400
H 	H 	0.02180 0.85320 0.35320 0.16700
H 	H 	0.22820 0.14680 0.64680 0.18700
C 	C 	0.11080 0.80760 0.82340 0.38900
C 	C 	0.74180 0.19240 0.17660 0.37400
C 	C 	0.06580 0.82340 0.19240 0.20900
C 	C 	0.08160 0.17660 0.80760 0.37800
C 	C 	0.50820 0.32340 0.30760 0.38300
C 	C 	0.13920 0.67660 0.69240 0.39100
C 	C 	0.16840 0.69240 0.32340 0.34500
C 	C 	0.18420 0.30760 0.67660 0.37700
C 	C 	0.12500 0.86660 0.63340 0.14000
C 	C 	0.12500 0.70130 0.79870 -0.43700
C 	C 	0.62500 0.13340 0.36660 0.13700
C 	C 	0.62500 0.29870 0.20130 -0.44600
C 	C 	0.24160 0.63340 0.13340 0.13200
C 	C 	0.07630 0.79870 0.29870 -0.35500
C 	C 	0.00840 0.36660 0.86660 0.01100
C 	C 	0.17370 0.20130 0.70130 -0.44700
S 	S 	0.12500 0.96250 0.53750 0.02800
S 	S 	0.62500 0.03750 0.46250 -0.07800
S 	S 	0.33750 0.53750 0.03750 -0.14800
S 	S 	0.91250 0.46250 0.96250 0.24300
N 	N 	0.11250 0.88660 0.73920 -0.16200
N 	N 	0.73830 0.11340 0.26080 -0.20300
N 	N 	0.14830 0.73920 0.11340 -0.19400
N 	N 	0.00090 0.26080 0.88660 -0.17900
N 	N 	0.51170 0.23920 0.38660 -0.19500
N 	N 	0.13750 0.76080 0.61340 -0.18900
N 	N 	0.24910 0.61340 0.23920 -0.18900
N 	N 	0.10170 0.38660 0.76080 -0.17700
O 	O 	0.10645 0.84116 0.91394 -0.36700
O 	O 	0.86155 0.15884 0.08606 -0.44200
O 	O 	0.97961 0.91394 0.15884 -0.24100
O 	O 	0.05239 0.08606 0.84116 -0.46900
O 	O 	0.38845 0.41394 0.34116 -0.45200
O 	O 	0.14355 0.58606 0.65884 -0.45000
O 	O 	0.19761 0.65884 0.41394 -0.43300
O 	O 	0.27039 0.34116 0.58606 -0.44500
