data_crystal

_cell_length_a 6.60590
_cell_length_b 9.86380
_cell_length_c 13.18700
_cell_angle_alpha 79.31700
_cell_angle_beta  86.34900
_cell_angle_gamma 83.79400

_symmetry_space_group_name_	'P 1'
_symmetry_space_group_name_H-M	'P 1'

loop_
_symmetry_equiv_pos_as_xyz
  x,y,z

loop_
_atom_site_label
_atom_site_type_symbol
_atom_site_fract_x
_atom_site_fract_y
_atom_site_fract_z
_atom_site_charge
U 	U 	0.61684 0.38640 0.19348 0.01400
U 	U 	0.94876 0.83166 0.25478 0.03000
U 	U 	0.38316 0.61360 0.80652 0.01400
U 	U 	0.05124 0.16834 0.74522 0.03000
H 	H 	0.33980 0.39800 0.44820 0.10100
H 	H 	0.68060 0.35950 0.46890 0.10600
H 	H 	0.77300 0.96450 0.97620 0.10500
H 	H 	0.54360 0.81830 0.05160 0.10700
H 	H 	0.66020 0.60200 0.55180 0.10100
H 	H 	0.31940 0.64050 0.53110 0.10600
H 	H 	0.22700 0.03550 0.02380 0.10500
H 	H 	0.45640 0.18170 0.94840 0.10700
C 	C 	0.32840 0.58280 0.34420 0.29000
C 	C 	0.39920 0.48630 0.44130 -0.07200
C 	C 	0.63390 0.45870 0.45750 -0.07900
C 	C 	0.75870 0.54110 0.37210 0.29600
C 	C 	0.74040 0.10010 0.07960 0.29200
C 	C 	0.66120 0.01360 0.01160 -0.07800
C 	C 	0.50220 0.91180 0.06540 -0.07700
C 	C 	0.44780 0.90520 0.17770 0.28700
C 	C 	0.67160 0.41720 0.65580 0.29000
C 	C 	0.60080 0.51370 0.55870 -0.07200
C 	C 	0.36610 0.54130 0.54250 -0.07900
C 	C 	0.24130 0.45890 0.62790 0.29600
C 	C 	0.25960 0.89990 0.92040 0.29200
C 	C 	0.33880 0.98640 0.98840 -0.07800
C 	C 	0.49780 0.08820 0.93460 -0.07700
C 	C 	0.55220 0.09480 0.82230 0.28700
O 	O 	0.40680 0.56270 0.25750 -0.16600
O 	O 	0.19420 0.67910 0.35500 -0.16700
O 	O 	0.81750 0.48570 0.29540 -0.16600
O 	O 	0.78520 0.66180 0.37890 -0.17200
O 	O 	0.65530 0.21810 0.08400 -0.17400
O 	O 	0.89410 0.04630 0.13210 -0.16500
O 	O 	0.58770 0.88750 0.24140 -0.15600
O 	O 	0.26360 0.92270 0.20850 -0.15600
O 	O 	0.59320 0.43730 0.74250 -0.16600
O 	O 	0.80580 0.32090 0.64500 -0.16700
O 	O 	0.18250 0.51430 0.70460 -0.16600
O 	O 	0.21480 0.33820 0.62110 -0.17200
O 	O 	0.34470 0.78190 0.91600 -0.17400
O 	O 	0.10590 0.95370 0.86790 -0.16500
O 	O 	0.41230 0.11250 0.75860 -0.15600
O 	O 	0.73640 0.07730 0.79150 -0.15600
