data_crystal

_cell_length_a 14.22690
_cell_length_b 14.76920
_cell_length_c 21.69120
_cell_angle_alpha 90.39100
_cell_angle_beta  94.35700
_cell_angle_gamma 118.23300

_symmetry_space_group_name_	'P 1'
_symmetry_space_group_name_H-M	'P 1'

loop_
_symmetry_equiv_pos_as_xyz
  x,y,z

loop_
_atom_site_label
_atom_site_type_symbol
_atom_site_fract_x
_atom_site_fract_y
_atom_site_fract_z
_atom_site_charge
C 	C 	0.93270 0.09200 0.99524 0.05300
H 	H 	0.95620 0.04670 0.01040 0.01200
C 	C 	0.87380 0.07090 0.93793 -0.09500
H 	H 	0.85600 0.00990 0.91580 0.07500
C 	C 	0.84040 0.14020 0.91250 0.01400
C 	C 	0.86670 0.22880 0.94837 -0.09100
H 	H 	0.84570 0.27600 0.93350 0.06400
C 	C 	0.92370 0.24800 0.00600 0.05000
H 	H 	0.94030 0.30780 0.02910 0.01500
C 	C 	0.77950 0.11860 0.84988 0.13900
C 	C 	0.71870 0.01900 0.82642 -0.26200
H 	H 	0.71880 0.96540 0.84870 0.14700
C 	C 	0.65710 0.99690 0.77007 0.29800
C 	C 	0.65990 0.07580 0.73537 -0.26200
H 	H 	0.62140 0.06110 0.69670 0.14500
C 	C 	0.72040 0.17790 0.75804 0.13400
C 	C 	0.78060 0.19830 0.81577 -0.18500
H 	H 	0.82160 0.26590 0.83130 0.10000
C 	C 	0.80590 0.44140 0.69421 0.05700
H 	H 	0.86400 0.50730 0.69960 0.01100
C 	C 	0.80640 0.36310 0.72852 -0.09700
H 	H 	0.86510 0.37700 0.75640 0.07800
C 	C 	0.71960 0.26250 0.72208 0.02500
C 	C 	0.63370 0.24590 0.67929 -0.10200
H 	H 	0.57510 0.18050 0.67370 0.09200
C 	C 	0.63430 0.32540 0.64480 0.05600
H 	H 	0.57630 0.31280 0.61660 0.01200
C 	C 	0.50353 0.84679 0.72749 0.28200
C 	C 	0.42175 0.84453 0.75976 -0.25500
H 	H 	0.43810 0.88830 0.79450 0.13900
C 	C 	0.31553 0.77689 0.74005 0.12800
C 	C 	0.29109 0.71151 0.68808 -0.18300
H 	H 	0.22000 0.66630 0.67490 0.10300
C 	C 	0.37287 0.71377 0.65581 0.13300
C 	C 	0.47909 0.78140 0.67552 -0.24400
H 	H 	0.53380 0.78290 0.65390 0.13300
C 	C 	0.05140 0.68470 0.80946 0.06900
H 	H 	0.98800 0.62370 0.81170 0.00700
C 	C 	0.13240 0.68440 0.77783 -0.11100
H 	H 	0.12290 0.62370 0.75870 0.08600
C 	C 	0.22830 0.77530 0.77470 0.03500
C 	C 	0.23900 0.86260 0.80358 -0.11500
H 	H 	0.30300 0.92340 0.80300 0.09100
C 	C 	0.15610 0.86250 0.83383 0.06500
H 	H 	0.16430 0.92360 0.85160 0.01000
C 	C 	0.40870 0.58230 0.51460 0.06100
H 	H 	0.46430 0.58060 0.49560 0.01700
C 	C 	0.43050 0.63750 0.56430 -0.09300
H 	H 	0.50160 0.67390 0.58050 0.07000
C 	C 	0.34680 0.64630 0.59781 0.01700
C 	C 	0.24190 0.58460 0.56940 -0.08500
H 	H 	0.18460 0.58440 0.58750 0.06700
C 	C 	0.22120 0.52460 0.51570 0.04500
H 	H 	0.15130 0.48420 0.49840 0.02100
C 	C 	0.05380 0.06710 0.19653 0.39900
C 	C 	0.01560 0.95570 0.21216 -0.10000
C 	C 	0.04350 0.93210 0.27050 0.02000
H 	H 	0.08670 0.98480 0.29970 0.04400
C 	C 	0.00720 0.83100 0.28500 -0.06700
H 	H 	0.02620 0.81600 0.32410 0.06900
C 	C 	0.94280 0.75140 0.24220 -0.00700
C 	C 	0.91600 0.77560 0.18340 -0.06900
H 	H 	0.87430 0.72310 0.15390 0.06600
C 	C 	0.95110 0.87700 0.16900 0.01800
H 	H 	0.93120 0.89240 0.13030 0.04000
C 	C 	0.76160 0.58520 0.27890 0.00400
C 	C 	0.74970 0.62990 0.33230 -0.07500
H 	H 	0.80950 0.68060 0.35550 0.06800
C 	C 	0.64610 0.59770 0.35100 0.02800
H 	H 	0.63690 0.62940 0.38550 0.03900
C 	C 	0.55860 0.51860 0.31774 -0.11300
C 	C 	0.57170 0.47340 0.26469 0.02600
H 	H 	0.51250 0.42080 0.24220 0.02500
C 	C 	0.67520 0.50780 0.24530 -0.07900
H 	H 	0.68460 0.47810 0.20990 0.07600
C 	C 	0.44930 0.48360 0.33953 0.37000
C 	C 	0.93220 0.69060 0.64195 0.37900
C 	C 	0.04310 0.75860 0.62717 -0.11800
C 	C 	0.08110 0.73160 0.57607 0.03300
H 	H 	0.03700 0.67100 0.55270 0.03600
C 	C 	0.18470 0.79540 0.56010 -0.09200
H 	H 	0.21050 0.77770 0.52650 0.07800
C 	C 	0.24850 0.88580 0.59540 0.02000
C 	C 	0.21230 0.91170 0.64694 -0.09300
H 	H 	0.25650 0.97160 0.67090 0.08600
C 	C 	0.11020 0.84750 0.66204 0.04100
H 	H 	0.08580 0.86450 0.69660 0.03800
C 	C 	0.35400 0.04940 0.52124 0.02300
C 	C 	0.32640 0.02350 0.45940 -0.08400
H 	H 	0.32580 0.96490 0.44280 0.08100
C 	C 	0.29980 0.08320 0.42165 0.03300
H 	H 	0.28110 0.06510 0.37960 0.03800
C 	C 	0.30040 0.17100 0.44580 -0.11400
C 	C 	0.32930 0.19840 0.50947 0.02900
H 	H 	0.33050 0.25720 0.52610 0.03600
C 	C 	0.35580 0.13620 0.54713 -0.08500
H 	H 	0.37460 0.15290 0.58930 0.07500
C 	C 	0.27620 0.24120 0.40548 0.38700
C 	C 	0.19980 0.40950 0.14775 0.35400
C 	C 	0.28920 0.52010 0.15386 -0.10400
C 	C 	0.27920 0.59360 0.11950 0.02300
H 	H 	0.21820 0.57550 0.09260 0.03800
C 	C 	0.36060 0.69530 0.12500 -0.07800
H 	H 	0.35410 0.74570 0.10250 0.06900
C 	C 	0.45290 0.72060 0.16527 0.00800
C 	C 	0.46060 0.64570 0.19953 -0.07600
H 	H 	0.52040 0.66360 0.22730 0.07300
C 	C 	0.38130 0.54500 0.19321 0.02000
H 	H 	0.38890 0.49430 0.21480 0.03000
C 	C 	0.62690 0.84240 0.10380 0.00200
C 	C 	0.60570 0.87840 0.04840 -0.07200
H 	H 	0.56310 0.91060 0.04650 0.07000
C 	C 	0.64910 0.86560 0.99560 0.01300
H 	H 	0.63550 0.88980 0.95830 0.04100
C 	C 	0.71180 0.81760 0.99803 -0.08800
C 	C 	0.73480 0.78430 0.05340 0.01400
H 	H 	0.77940 0.75430 0.05530 0.04200
C 	C 	0.69150 0.79540 0.10663 -0.07200
H 	H 	0.70580 0.77150 0.14380 0.06700
C 	C 	0.75690 0.80220 0.94029 0.34000
Co	Co	0.06255 0.22425 0.11240 1.16700
Co	Co	0.28625 0.45382 0.39971 1.16200
Co	Co	0.22151 0.28000 0.27108 1.16500
N 	N 	0.95610 0.18020 0.02961 -0.21200
N 	N 	0.72100 0.42320 0.65244 -0.21600
N 	N 	0.06290 0.77340 0.83756 -0.22100
N 	N 	0.30650 0.52570 0.48827 -0.21600
O 	O 	0.61370 0.89790 0.74494 -0.30700
O 	O 	0.02810 0.08350 0.14277 -0.44800
O 	O 	0.10160 0.13286 0.23867 -0.44100
O 	O 	0.88540 0.56330 0.20684 -0.22700
O 	O 	0.95450 0.61850 0.31543 -0.21900
O 	O 	0.36534 0.42349 0.30793 -0.48500
O 	O 	0.44860 0.52000 0.39190 -0.42000
O 	O 	0.13180 0.38367 0.10043 -0.39000
O 	O 	0.19646 0.34344 0.18369 -0.49700
O 	O 	0.51660 0.91740 0.15612 -0.21500
O 	O 	0.62830 0.85940 0.22448 -0.21400
O 	O 	0.71260 0.81180 0.89057 -0.28700
O 	O 	0.82770 0.77460 0.94639 -0.39700
O 	O 	0.25270 0.21448 0.34912 -0.43000
O 	O 	0.28640 0.32289 0.43019 -0.43500
O 	O 	0.40750 0.90220 0.53409 -0.20600
O 	O 	0.44420 0.02580 0.62564 -0.21800
O 	O 	0.87440 0.61700 0.60224 -0.43600
O 	O 	0.90033 0.70732 0.69094 -0.44700
S 	S 	0.89369 0.62301 0.25979 0.27600
S 	S 	0.37839 0.96516 0.57102 0.26200
S 	S 	0.56020 0.84534 0.16842 0.25200
C 	C 	0.06730 0.90800 0.00476 0.05400
H 	H 	0.04380 0.95330 0.98960 0.01300
C 	C 	0.12620 0.92910 0.06207 -0.09500
H 	H 	0.14400 0.99010 0.08420 0.07500
C 	C 	0.15960 0.85980 0.08750 0.01400
C 	C 	0.13330 0.77120 0.05163 -0.09100
H 	H 	0.15430 0.72400 0.06650 0.06400
C 	C 	0.07630 0.75200 0.99400 0.05000
H 	H 	0.05970 0.69220 0.97090 0.01500
C 	C 	0.22050 0.88140 0.15012 0.13900
C 	C 	0.28130 0.98100 0.17358 -0.26200
H 	H 	0.28120 0.03460 0.15130 0.14700
C 	C 	0.34290 0.00310 0.22993 0.29800
C 	C 	0.34010 0.92420 0.26463 -0.26200
H 	H 	0.37860 0.93890 0.30330 0.14500
C 	C 	0.27960 0.82210 0.24196 0.13400
C 	C 	0.21940 0.80170 0.18423 -0.18500
H 	H 	0.17840 0.73410 0.16870 0.10000
C 	C 	0.19410 0.55860 0.30579 0.05700
H 	H 	0.13600 0.49270 0.30040 0.01100
C 	C 	0.19360 0.63690 0.27148 -0.09700
H 	H 	0.13490 0.62300 0.24360 0.07800
C 	C 	0.28040 0.73750 0.27792 0.02500
C 	C 	0.36630 0.75410 0.32071 -0.10200
H 	H 	0.42490 0.81950 0.32630 0.09200
C 	C 	0.36570 0.67460 0.35520 0.05600
H 	H 	0.42370 0.68720 0.38340 0.01200
C 	C 	0.49647 0.15321 0.27251 0.28200
C 	C 	0.57825 0.15547 0.24024 -0.25500
H 	H 	0.56190 0.11170 0.20550 0.13900
C 	C 	0.68447 0.22311 0.25995 0.12800
C 	C 	0.70891 0.28849 0.31192 -0.18300
H 	H 	0.78000 0.33370 0.32510 0.10300
C 	C 	0.62713 0.28623 0.34419 0.13300
C 	C 	0.52091 0.21860 0.32448 -0.24400
H 	H 	0.46620 0.21710 0.34610 0.13300
C 	C 	0.94860 0.31530 0.19054 0.06900
H 	H 	0.01200 0.37630 0.18830 0.00700
C 	C 	0.86760 0.31560 0.22217 -0.11100
H 	H 	0.87710 0.37630 0.24130 0.08600
C 	C 	0.77170 0.22470 0.22530 0.03500
C 	C 	0.76100 0.13740 0.19642 -0.11500
H 	H 	0.69700 0.07660 0.19700 0.09100
C 	C 	0.84390 0.13750 0.16617 0.06500
H 	H 	0.83570 0.07640 0.14840 0.01000
C 	C 	0.59130 0.41770 0.48540 0.06100
H 	H 	0.53570 0.41940 0.50440 0.01700
C 	C 	0.56950 0.36250 0.43570 -0.09300
H 	H 	0.49840 0.32610 0.41950 0.07000
C 	C 	0.65320 0.35370 0.40219 0.01700
C 	C 	0.75810 0.41540 0.43060 -0.08500
H 	H 	0.81540 0.41560 0.41250 0.06700
C 	C 	0.77880 0.47540 0.48430 0.04500
H 	H 	0.84870 0.51580 0.50160 0.02100
C 	C 	0.94620 0.93290 0.80347 0.39900
C 	C 	0.98440 0.04430 0.78784 -0.10000
C 	C 	0.95650 0.06790 0.72950 0.02000
H 	H 	0.91330 0.01520 0.70030 0.04400
C 	C 	0.99280 0.16900 0.71500 -0.06700
H 	H 	0.97380 0.18400 0.67590 0.06900
C 	C 	0.05720 0.24860 0.75780 -0.00700
C 	C 	0.08400 0.22440 0.81660 -0.06900
H 	H 	0.12570 0.27690 0.84610 0.06600
C 	C 	0.04890 0.12300 0.83100 0.01800
H 	H 	0.06880 0.10760 0.86970 0.04000
C 	C 	0.23840 0.41480 0.72110 0.00400
C 	C 	0.25030 0.37010 0.66770 -0.07500
H 	H 	0.19050 0.31940 0.64450 0.06800
C 	C 	0.35390 0.40230 0.64900 0.02800
H 	H 	0.36310 0.37060 0.61450 0.03900
C 	C 	0.44140 0.48140 0.68226 -0.11300
C 	C 	0.42830 0.52660 0.73531 0.02600
H 	H 	0.48750 0.57920 0.75780 0.02500
C 	C 	0.32480 0.49220 0.75470 -0.07900
H 	H 	0.31540 0.52190 0.79010 0.07600
C 	C 	0.55070 0.51640 0.66047 0.37000
C 	C 	0.06780 0.30940 0.35805 0.37900
C 	C 	0.95690 0.24140 0.37283 -0.11800
C 	C 	0.91890 0.26840 0.42393 0.03300
H 	H 	0.96300 0.32900 0.44730 0.03600
C 	C 	0.81530 0.20460 0.43990 -0.09200
H 	H 	0.78950 0.22230 0.47350 0.07800
C 	C 	0.75150 0.11420 0.40460 0.02000
C 	C 	0.78770 0.08830 0.35306 -0.09300
H 	H 	0.74350 0.02840 0.32910 0.08600
C 	C 	0.88980 0.15250 0.33796 0.04100
H 	H 	0.91420 0.13550 0.30340 0.03800
C 	C 	0.64600 0.95060 0.47876 0.02300
C 	C 	0.67360 0.97650 0.54060 -0.08400
H 	H 	0.67420 0.03510 0.55720 0.08100
C 	C 	0.70020 0.91680 0.57835 0.03300
H 	H 	0.71890 0.93490 0.62040 0.03800
C 	C 	0.69960 0.82900 0.55420 -0.11400
C 	C 	0.67070 0.80160 0.49053 0.02900
H 	H 	0.66950 0.74280 0.47390 0.03600
C 	C 	0.64420 0.86380 0.45287 -0.08500
H 	H 	0.62540 0.84710 0.41070 0.07500
C 	C 	0.72380 0.75880 0.59452 0.38700
C 	C 	0.80020 0.59050 0.85225 0.35400
C 	C 	0.71080 0.47990 0.84614 -0.10400
C 	C 	0.72080 0.40640 0.88050 0.02300
H 	H 	0.78180 0.42450 0.90740 0.03800
C 	C 	0.63940 0.30470 0.87500 -0.07800
H 	H 	0.64590 0.25430 0.89750 0.06900
C 	C 	0.54710 0.27940 0.83473 0.00800
C 	C 	0.53940 0.35430 0.80047 -0.07600
H 	H 	0.47960 0.33640 0.77270 0.07300
C 	C 	0.61870 0.45500 0.80679 0.02000
H 	H 	0.61110 0.50570 0.78520 0.03000
C 	C 	0.37310 0.15760 0.89620 0.00200
C 	C 	0.39430 0.12160 0.95160 -0.07200
H 	H 	0.43690 0.08940 0.95350 0.07000
C 	C 	0.35090 0.13440 0.00440 0.01300
H 	H 	0.36450 0.11020 0.04170 0.04100
C 	C 	0.28820 0.18240 0.00197 -0.08800
C 	C 	0.26520 0.21570 0.94660 0.01400
H 	H 	0.22060 0.24570 0.94470 0.04200
C 	C 	0.30850 0.20460 0.89337 -0.07200
H 	H 	0.29420 0.22850 0.85620 0.06700
C 	C 	0.24310 0.19780 0.05971 0.34000
Co	Co	0.93745 0.77575 0.88760 1.16700
Co	Co	0.71375 0.54618 0.60029 1.16200
Co	Co	0.77849 0.72000 0.72892 1.16500
N 	N 	0.04390 0.81980 0.97039 -0.21200
N 	N 	0.27900 0.57680 0.34756 -0.21600
N 	N 	0.93710 0.22660 0.16244 -0.22100
N 	N 	0.69350 0.47430 0.51173 -0.21600
O 	O 	0.38630 0.10210 0.25506 -0.30700
O 	O 	0.97190 0.91650 0.85723 -0.44800
O 	O 	0.89840 0.86714 0.76133 -0.44100
O 	O 	0.11460 0.43670 0.79316 -0.22700
O 	O 	0.04550 0.38150 0.68457 -0.21900
O 	O 	0.63466 0.57651 0.69207 -0.48500
O 	O 	0.55140 0.48000 0.60810 -0.42000
O 	O 	0.86820 0.61633 0.89957 -0.39000
O 	O 	0.80354 0.65656 0.81631 -0.49700
O 	O 	0.48340 0.08260 0.84388 -0.21500
O 	O 	0.37170 0.14060 0.77552 -0.21400
O 	O 	0.28740 0.18820 0.10943 -0.28700
O 	O 	0.17230 0.22540 0.05361 -0.39700
O 	O 	0.74730 0.78552 0.65088 -0.43000
O 	O 	0.71360 0.67711 0.56981 -0.43500
O 	O 	0.59250 0.09780 0.46591 -0.20600
O 	O 	0.55580 0.97420 0.37436 -0.21800
O 	O 	0.12560 0.38300 0.39776 -0.43600
O 	O 	0.09967 0.29268 0.30906 -0.44700
S 	S 	0.10631 0.37699 0.74021 0.27600
S 	S 	0.62161 0.03484 0.42898 0.26200
S 	S 	0.43980 0.15466 0.83158 0.25200
