data_crystal

_cell_length_a 14.09050
_cell_length_b 14.67620
_cell_length_c 21.58580
_cell_angle_alpha 89.93700
_cell_angle_beta  85.40200
_cell_angle_gamma 61.99400

_symmetry_space_group_name_	'P 1'
_symmetry_space_group_name_H-M	'P 1'

loop_
_symmetry_equiv_pos_as_xyz
  x,y,z

loop_
_atom_site_label
_atom_site_type_symbol
_atom_site_fract_x
_atom_site_fract_y
_atom_site_fract_z
_atom_site_charge
C 	C 	0.22130 0.32400 0.74423 0.14000
C 	C 	0.15990 0.42650 0.76459 -0.28200
H 	H 	0.11730 0.44280 0.80230 0.15200
C 	C 	0.16140 0.50360 0.72967 0.32300
C 	C 	0.22080 0.48450 0.67292 -0.28000
H 	H 	0.21940 0.53870 0.65000 0.15700
C 	C 	0.28210 0.38430 0.65076 0.13400
C 	C 	0.28150 0.30330 0.68723 -0.18200
H 	H 	0.32240 0.23520 0.67240 0.09800
C 	C 	0.13910 0.17390 0.85852 0.07900
H 	H 	0.08040 0.18680 0.88670 0.00800
C 	C 	0.13820 0.25640 0.82499 -0.12000
H 	H 	0.08100 0.32270 0.83240 0.09700
C 	C 	0.22230 0.23890 0.78109 0.03900
C 	C 	0.30510 0.14020 0.77373 -0.12100
H 	H 	0.36440 0.12490 0.74530 0.08700
C 	C 	0.30020 0.06320 0.80888 0.09000
H 	H 	0.35680 0.99650 0.80200 -0.00200
C 	C 	0.43380 0.25120 0.49771 0.08500
H 	H 	0.45040 0.19030 0.47580 0.00300
C 	C 	0.37800 0.26920 0.55491 -0.12200
H 	H 	0.36220 0.21860 0.57120 0.07500
C 	C 	0.34490 0.35840 0.58858 0.03600
C 	C 	0.37530 0.42630 0.56153 -0.11800
H 	H 	0.36060 0.48660 0.58350 0.08300
C 	C 	0.42760 0.40680 0.50197 0.07400
H 	H 	0.43660 0.45900 0.48240 0.00900
C 	C 	0.00360 0.65680 0.77150 0.29800
C 	C 	0.97750 0.72200 0.82363 -0.24800
H 	H 	0.03160 0.72090 0.84610 0.13300
C 	C 	0.86990 0.78890 0.84189 0.12800
C 	C 	0.78850 0.79300 0.80811 -0.18100
H 	H 	0.71680 0.83980 0.81990 0.10200
C 	C 	0.81520 0.72640 0.75646 0.12400
C 	C 	0.92320 0.65880 0.73767 -0.25900
H 	H 	0.94100 0.61520 0.70260 0.14300
C 	C 	0.55320 0.81620 0.68715 0.09400
H 	H 	0.48950 0.87780 0.68590 0.00500
C 	C 	0.63210 0.81840 0.71703 -0.13500
H 	H 	0.62120 0.88010 0.73560 0.09400
C 	C 	0.72900 0.73030 0.72052 0.04700
C 	C 	0.73530 0.64170 0.69368 -0.13300
H 	H 	0.79680 0.57880 0.69660 0.09800
C 	C 	0.65230 0.64530 0.66296 0.08400
H 	H 	0.66120 0.58460 0.64400 0.00500
C 	C 	0.90430 0.92190 0.98080 0.06800
H 	H 	0.96200 0.92240 0.99880 0.01500
C 	C 	0.92360 0.86890 0.92874 -0.10700
H 	H 	0.99370 0.83760 0.90960 0.07300
C 	C 	0.84430 0.85650 0.90010 0.03700
C 	C 	0.74060 0.91900 0.92655 -0.11400
H 	H 	0.68130 0.92250 0.90840 0.07800
C 	C 	0.72650 0.97640 0.98089 0.07700
H 	H 	0.65610 0.01820 0.99790 0.01300
C 	C 	0.55550 0.42900 0.30333 0.39200
C 	C 	0.51720 0.53890 0.28611 -0.10900
C 	C 	0.45000 0.61830 0.33003 0.02600
H 	H 	0.42850 0.60310 0.36880 0.03700
C 	C 	0.41680 0.71920 0.31427 -0.08000
H 	H 	0.37400 0.77270 0.34320 0.07100
C 	C 	0.44580 0.74150 0.25716 0.00800
C 	C 	0.51410 0.66340 0.21301 -0.08000
H 	H 	0.53420 0.67940 0.17410 0.07400
C 	C 	0.55100 0.56090 0.22920 0.03000
H 	H 	0.59860 0.50750 0.20150 0.04200
C 	C 	0.26530 0.90960 0.21765 0.01100
C 	C 	0.17640 0.98640 0.25316 -0.09300
H 	H 	0.18600 0.01520 0.28900 0.08100
C 	C 	0.07380 0.01940 0.23462 0.04200
H 	H 	0.01440 0.07110 0.25780 0.02100
C 	C 	0.05920 0.97580 0.18166 -0.12200
C 	C 	0.14790 0.89960 0.14639 0.03400
H 	H 	0.13820 0.87100 0.11060 0.03700
C 	C 	0.25150 0.86590 0.16457 -0.08200
H 	H 	0.31090 0.81430 0.14120 0.07000
C 	C 	0.95170 0.01200 0.15897 0.34800
C 	C 	0.70450 0.08560 0.35425 0.39600
C 	C 	0.78590 0.97580 0.34712 -0.13400
C 	C 	0.77440 0.90330 0.38355 0.04300
H 	H 	0.71310 0.92350 0.41110 0.03200
C 	C 	0.85410 0.80000 0.37916 -0.09100
H 	H 	0.84590 0.75130 0.40340 0.07400
C 	C 	0.94600 0.77060 0.33821 0.01600
C 	C 	0.95860 0.84220 0.30185 -0.08000
H 	H 	0.02040 0.82180 0.27470 0.07300
C 	C 	0.87840 0.94520 0.30586 0.03500
H 	H 	0.88650 0.99350 0.28110 0.02700
C 	C 	0.11850 0.64980 0.40174 0.01300
C 	C 	0.09290 0.62110 0.45809 -0.08800
H 	H 	0.05000 0.58850 0.46220 0.07500
C 	C 	0.13390 0.64280 0.50882 0.03100
H 	H 	0.11260 0.62860 0.54800 0.03600
C 	C 	0.20160 0.68270 0.50563 -0.10000
C 	C 	0.23200 0.70710 0.44652 0.02000
H 	H 	0.27980 0.73430 0.44250 0.03900
C 	C 	0.18980 0.69020 0.39448 -0.08200
H 	H 	0.20910 0.70580 0.35520 0.07100
C 	C 	0.24780 0.70290 0.56220 0.35600
C 	C 	0.78050 0.25640 0.09415 0.39300
C 	C 	0.80140 0.32830 0.05279 -0.11700
C 	C 	0.79970 0.41780 0.07951 0.02800
H 	H 	0.78000 0.43400 0.12180 0.04100
C 	C 	0.82680 0.47980 0.04332 -0.07600
H 	H 	0.82900 0.53650 0.06100 0.07900
C 	C 	0.85100 0.45740 0.98033 0.01500
C 	C 	0.85780 0.36800 0.95344 -0.08400
H 	H 	0.87910 0.35140 0.91130 0.07400
C 	C 	0.83210 0.30470 0.99058 0.03800
H 	H 	0.83570 0.24520 0.97310 0.03400
C 	C 	0.75060 0.62040 0.90709 -0.00100
C 	C 	0.68440 0.70710 0.94249 -0.07200
H 	H 	0.70790 0.72410 0.97760 0.07100
C 	C 	0.58020 0.77030 0.92544 0.01100
H 	H 	0.53490 0.83030 0.94910 0.04400
C 	C 	0.54420 0.74500 0.87441 -0.08400
C 	C 	0.61320 0.65650 0.83773 0.01000
H 	H 	0.59010 0.64050 0.80210 0.04900
C 	C 	0.71620 0.59240 0.85474 -0.06800
H 	H 	0.76170 0.53170 0.83170 0.07500
C 	C 	0.43010 0.81260 0.85781 0.34800
N 	N 	0.22060 0.07790 0.85163 -0.22300
N 	N 	0.46570 0.31420 0.47164 -0.22200
N 	N 	0.55890 0.73160 0.65875 -0.22200
N 	N 	0.80400 0.97630 0.00978 -0.21800
Ni	Ni	0.78772 0.04531 0.09797 1.09500
Ni	Ni	0.72372 0.21476 0.22851 1.10200
O 	O 	0.11147 0.60477 0.75252 -0.31800
O 	O 	0.53115 0.41132 0.35707 -0.43500
O 	O 	0.60823 0.36150 0.26063 -0.41700
O 	O 	0.38930 0.93125 0.29269 -0.22200
O 	O 	0.45840 0.87714 0.18270 -0.22000
O 	O 	0.86463 0.07386 0.18976 -0.47000
O 	O 	0.95048 0.97531 0.10642 -0.39700
O 	O 	0.63780 0.11279 0.39938 -0.40600
O 	O 	0.69445 0.15443 0.31743 -0.49300
O 	O 	0.00690 0.57523 0.35085 -0.21800
O 	O 	0.12470 0.62610 0.28055 -0.21500
O 	O 	0.20580 0.69460 0.61281 -0.29300
Ni	Ni	0.56837 0.27120 0.38901 1.10800
O 	O 	0.32286 0.72475 0.55333 -0.39300
O 	O 	0.75460 0.28352 0.15087 -0.41700
O 	O 	0.78725 0.17809 0.06868 -0.43300
O 	O 	0.90566 0.60375 0.97010 -0.21400
O 	O 	0.95016 0.48152 0.87952 -0.22600
O 	O 	0.37289 0.88368 0.89888 -0.42100
O 	O 	0.40129 0.79341 0.80691 -0.42000
S 	S 	0.39736 0.87228 0.23730 0.26500
S 	S 	0.05218 0.64455 0.33661 0.24900
S 	S 	0.87906 0.54160 0.93225 0.28500
C 	C 	0.77870 0.67600 0.25577 0.14000
C 	C 	0.84010 0.57350 0.23541 -0.28200
H 	H 	0.88270 0.55720 0.19770 0.15200
C 	C 	0.83860 0.49640 0.27033 0.32300
C 	C 	0.77920 0.51550 0.32708 -0.28000
H 	H 	0.78060 0.46130 0.35000 0.15700
C 	C 	0.71790 0.61570 0.34924 0.13400
C 	C 	0.71850 0.69670 0.31277 -0.18200
H 	H 	0.67760 0.76480 0.32760 0.09800
C 	C 	0.86090 0.82610 0.14148 0.07900
H 	H 	0.91960 0.81320 0.11330 0.00800
C 	C 	0.86180 0.74360 0.17501 -0.12000
H 	H 	0.91900 0.67730 0.16760 0.09700
C 	C 	0.77770 0.76110 0.21891 0.03900
C 	C 	0.69490 0.85980 0.22627 -0.12100
H 	H 	0.63560 0.87510 0.25470 0.08700
C 	C 	0.69980 0.93680 0.19112 0.09000
H 	H 	0.64320 0.00350 0.19800 -0.00200
C 	C 	0.56620 0.74880 0.50229 0.08500
H 	H 	0.54960 0.80970 0.52420 0.00300
C 	C 	0.62200 0.73080 0.44509 -0.12200
H 	H 	0.63780 0.78140 0.42880 0.07500
C 	C 	0.65510 0.64160 0.41142 0.03600
C 	C 	0.62470 0.57370 0.43847 -0.11800
H 	H 	0.63940 0.51340 0.41650 0.08300
C 	C 	0.57240 0.59320 0.49803 0.07400
H 	H 	0.56340 0.54100 0.51760 0.00900
C 	C 	0.99640 0.34320 0.22850 0.29800
C 	C 	0.02250 0.27800 0.17637 -0.24800
H 	H 	0.96840 0.27910 0.15390 0.13300
C 	C 	0.13010 0.21110 0.15811 0.12800
C 	C 	0.21150 0.20700 0.19189 -0.18100
H 	H 	0.28320 0.16020 0.18010 0.10200
C 	C 	0.18480 0.27360 0.24354 0.12400
C 	C 	0.07680 0.34120 0.26233 -0.25900
H 	H 	0.05900 0.38480 0.29740 0.14300
C 	C 	0.44680 0.18380 0.31285 0.09400
H 	H 	0.51050 0.12220 0.31410 0.00500
C 	C 	0.36790 0.18160 0.28297 -0.13500
H 	H 	0.37880 0.11990 0.26440 0.09400
C 	C 	0.27100 0.26970 0.27948 0.04700
C 	C 	0.26470 0.35830 0.30632 -0.13300
H 	H 	0.20320 0.42120 0.30340 0.09800
C 	C 	0.34770 0.35470 0.33704 0.08400
H 	H 	0.33880 0.41540 0.35600 0.00500
C 	C 	0.09570 0.07810 0.01920 0.06800
H 	H 	0.03800 0.07760 0.00120 0.01500
C 	C 	0.07640 0.13110 0.07126 -0.10700
H 	H 	0.00630 0.16240 0.09040 0.07300
C 	C 	0.15570 0.14350 0.09990 0.03700
C 	C 	0.25940 0.08100 0.07345 -0.11400
H 	H 	0.31870 0.07750 0.09160 0.07800
C 	C 	0.27350 0.02360 0.01911 0.07700
H 	H 	0.34390 0.98180 0.00210 0.01300
C 	C 	0.44450 0.57100 0.69667 0.39200
C 	C 	0.48280 0.46110 0.71389 -0.10900
C 	C 	0.55000 0.38170 0.66997 0.02600
H 	H 	0.57150 0.39690 0.63120 0.03700
C 	C 	0.58320 0.28080 0.68573 -0.08000
H 	H 	0.62600 0.22730 0.65680 0.07100
C 	C 	0.55420 0.25850 0.74284 0.00800
C 	C 	0.48590 0.33660 0.78699 -0.08000
H 	H 	0.46580 0.32060 0.82590 0.07400
C 	C 	0.44900 0.43910 0.77080 0.03000
H 	H 	0.40140 0.49250 0.79850 0.04200
C 	C 	0.73470 0.09040 0.78235 0.01100
C 	C 	0.82360 0.01360 0.74684 -0.09300
H 	H 	0.81400 0.98480 0.71100 0.08100
C 	C 	0.92620 0.98060 0.76538 0.04200
H 	H 	0.98560 0.92890 0.74220 0.02100
C 	C 	0.94080 0.02420 0.81834 -0.12200
C 	C 	0.85210 0.10040 0.85361 0.03400
H 	H 	0.86180 0.12900 0.88940 0.03700
C 	C 	0.74850 0.13410 0.83543 -0.08200
H 	H 	0.68910 0.18570 0.85880 0.07000
C 	C 	0.04830 0.98800 0.84103 0.34800
C 	C 	0.29550 0.91440 0.64575 0.39600
C 	C 	0.21410 0.02420 0.65288 -0.13400
C 	C 	0.22560 0.09670 0.61645 0.04300
H 	H 	0.28690 0.07650 0.58890 0.03200
C 	C 	0.14590 0.20000 0.62084 -0.09100
H 	H 	0.15410 0.24870 0.59660 0.07400
C 	C 	0.05400 0.22940 0.66179 0.01600
C 	C 	0.04140 0.15780 0.69815 -0.08000
H 	H 	0.97960 0.17820 0.72530 0.07300
C 	C 	0.12160 0.05480 0.69414 0.03500
H 	H 	0.11350 0.00650 0.71890 0.02700
C 	C 	0.88150 0.35020 0.59826 0.01300
C 	C 	0.90710 0.37890 0.54191 -0.08800
H 	H 	0.95000 0.41150 0.53780 0.07500
C 	C 	0.86610 0.35720 0.49118 0.03100
H 	H 	0.88740 0.37140 0.45200 0.03600
C 	C 	0.79840 0.31730 0.49437 -0.10000
C 	C 	0.76800 0.29290 0.55348 0.02000
H 	H 	0.72020 0.26570 0.55750 0.03900
C 	C 	0.81020 0.30980 0.60552 -0.08200
H 	H 	0.79090 0.29420 0.64480 0.07100
C 	C 	0.75220 0.29710 0.43780 0.35600
C 	C 	0.21950 0.74360 0.90585 0.39300
C 	C 	0.19860 0.67170 0.94721 -0.11700
C 	C 	0.20030 0.58220 0.92049 0.02800
H 	H 	0.22000 0.56600 0.87820 0.04100
C 	C 	0.17320 0.52020 0.95668 -0.07600
H 	H 	0.17100 0.46350 0.93900 0.07900
C 	C 	0.14900 0.54260 0.01967 0.01500
C 	C 	0.14220 0.63200 0.04656 -0.08400
H 	H 	0.12090 0.64860 0.08870 0.07400
C 	C 	0.16790 0.69530 0.00942 0.03800
H 	H 	0.16430 0.75480 0.02690 0.03400
C 	C 	0.24940 0.37960 0.09291 -0.00100
C 	C 	0.31560 0.29290 0.05751 -0.07200
H 	H 	0.29210 0.27590 0.02240 0.07100
C 	C 	0.41980 0.22970 0.07456 0.01100
H 	H 	0.46510 0.16970 0.05090 0.04400
C 	C 	0.45580 0.25500 0.12559 -0.08400
C 	C 	0.38680 0.34350 0.16227 0.01000
H 	H 	0.40990 0.35950 0.19790 0.04900
C 	C 	0.28380 0.40760 0.14526 -0.06800
H 	H 	0.23830 0.46830 0.16830 0.07500
C 	C 	0.56990 0.18740 0.14219 0.34800
N 	N 	0.77940 0.92210 0.14837 -0.22300
N 	N 	0.53430 0.68580 0.52836 -0.22200
N 	N 	0.44110 0.26840 0.34125 -0.22200
N 	N 	0.19600 0.02370 0.99022 -0.21800
Ni	Ni	0.21228 0.95469 0.90203 1.09500
Ni	Ni	0.27628 0.78524 0.77149 1.10200
O 	O 	0.88853 0.39523 0.24748 -0.31800
O 	O 	0.46885 0.58868 0.64293 -0.43500
O 	O 	0.39177 0.63850 0.73937 -0.41700
O 	O 	0.61070 0.06875 0.70731 -0.22200
O 	O 	0.54160 0.12286 0.81730 -0.22000
O 	O 	0.13537 0.92614 0.81024 -0.47000
O 	O 	0.04952 0.02469 0.89358 -0.39700
O 	O 	0.36220 0.88721 0.60062 -0.40600
O 	O 	0.30555 0.84557 0.68257 -0.49300
O 	O 	0.99310 0.42477 0.64915 -0.21800
O 	O 	0.87530 0.37390 0.71945 -0.21500
O 	O 	0.79420 0.30540 0.38719 -0.29300
Ni	Ni	0.43163 0.72880 0.61099 1.10800
O 	O 	0.67714 0.27525 0.44667 -0.39300
O 	O 	0.24540 0.71648 0.84913 -0.41700
O 	O 	0.21275 0.82191 0.93132 -0.43300
O 	O 	0.09434 0.39625 0.02990 -0.21400
O 	O 	0.04984 0.51848 0.12048 -0.22600
O 	O 	0.62711 0.11632 0.10112 -0.42100
O 	O 	0.59871 0.20659 0.19309 -0.42000
S 	S 	0.60264 0.12772 0.76270 0.26500
S 	S 	0.94782 0.35545 0.66339 0.24900
S 	S 	0.12094 0.45840 0.06775 0.28500
