data_crystal

_cell_length_a 8.61910
_cell_length_b 17.80310
_cell_length_c 9.02570
_cell_angle_alpha 90.00000
_cell_angle_beta  107.35700
_cell_angle_gamma 90.00000

_symmetry_space_group_name_	'P 1'
_symmetry_space_group_name_H-M	'P 1'

loop_
_symmetry_equiv_pos_as_xyz
  x,y,z

loop_
_atom_site_label
_atom_site_type_symbol
_atom_site_fract_x
_atom_site_fract_y
_atom_site_fract_z
_atom_site_charge
P 	P 	0.34760 0.42755 0.36100 0.78200
P 	P 	0.80689 0.29217 0.47431 0.75600
P 	P 	0.26634 0.16905 0.49610 0.74000
Al	Al	0.07720 0.29557 0.28743 2.39600
Al	Al	0.13704 0.10962 0.16094 2.39600
Al	Al	0.02365 0.17754 0.69316 2.39200
O 	O 	0.04480 0.20608 0.17950 -1.23500
H 	H 	0.00000 0.21430 0.08720 0.39100
O 	O 	0.19310 0.38098 0.30840 -0.71000
O 	O 	0.24660 0.25081 0.43840 -0.73700
O 	O 	0.94570 0.30645 0.40750 -0.70800
O 	O 	0.43270 0.15892 0.61320 -0.62600
O 	O 	0.46150 0.40524 0.26320 -0.77900
O 	O 	0.84940 0.22697 0.59160 -0.79200
O 	O 	0.13230 0.14924 0.57060 -0.80200
O 	O 	0.65090 0.26930 0.34530 -0.78100
O 	O 	0.24890 0.11346 0.36320 -0.67600
O 	O 	0.43750 0.41341 0.53190 -0.72300
O 	O 	0.30080 0.50925 0.33240 -0.61900
O 	O 	0.77320 0.36298 0.55330 -0.71800
P 	P 	0.15240 0.92755 0.13900 0.77900
P 	P 	0.69311 0.79217 0.02569 0.75700
P 	P 	0.23366 0.66905 0.00390 0.73500
Al	Al	0.42280 0.79557 0.21257 2.39800
Al	Al	0.36296 0.60962 0.33906 2.39700
Al	Al	0.47635 0.67754 0.80684 2.39600
O 	O 	0.45520 0.70608 0.32050 -1.21800
H 	H 	0.50000 0.71430 0.41280 0.40800
O 	O 	0.30690 0.88098 0.19160 -0.69300
O 	O 	0.25340 0.75081 0.06160 -0.73200
O 	O 	0.55430 0.80645 0.09250 -0.73500
O 	O 	0.06730 0.65892 0.88680 -0.63600
O 	O 	0.03850 0.90524 0.23680 -0.79400
O 	O 	0.65060 0.72697 0.90840 -0.80600
O 	O 	0.36770 0.64924 0.92940 -0.78100
O 	O 	0.84910 0.76930 0.15470 -0.76900
O 	O 	0.25110 0.61346 0.13680 -0.67400
O 	O 	0.06250 0.91341 0.96810 -0.72800
O 	O 	0.19920 0.00925 0.16760 -0.62600
O 	O 	0.72680 0.86298 0.94670 -0.72100
P 	P 	0.65240 0.57245 0.63900 0.78200
P 	P 	0.19311 0.70783 0.52569 0.75800
P 	P 	0.73366 0.83095 0.50390 0.73900
Al	Al	0.92280 0.70443 0.71257 2.40000
Al	Al	0.86296 0.89038 0.83906 2.39800
Al	Al	0.97635 0.82246 0.30684 2.39800
O 	O 	0.95520 0.79392 0.82050 -1.17500
H 	H 	0.00000 0.78570 0.91280 0.37500
O 	O 	0.80690 0.61902 0.69160 -0.68000
O 	O 	0.75340 0.74919 0.56160 -0.72300
O 	O 	0.05430 0.69355 0.59250 -0.75100
O 	O 	0.56730 0.84108 0.38680 -0.62400
O 	O 	0.53850 0.59476 0.73680 -0.77900
O 	O 	0.15060 0.77303 0.40840 -0.81800
O 	O 	0.86770 0.85076 0.42940 -0.76800
O 	O 	0.34910 0.73070 0.65470 -0.78600
O 	O 	0.75110 0.88654 0.63680 -0.66700
O 	O 	0.56250 0.58659 0.46810 -0.71700
O 	O 	0.69920 0.49075 0.66760 -0.60900
O 	O 	0.22680 0.63702 0.44670 -0.73100
P 	P 	0.84760 0.07245 0.86100 0.77300
P 	P 	0.30689 0.20783 0.97431 0.75000
P 	P 	0.76634 0.33095 0.99610 0.72700
Al	Al	0.57720 0.20443 0.78743 2.39800
Al	Al	0.63704 0.39038 0.66094 2.39700
Al	Al	0.52365 0.32246 0.19316 2.39600
O 	O 	0.54480 0.29392 0.67950 -1.22000
H 	H 	0.50000 0.28570 0.58720 0.40800
O 	O 	0.69310 0.11902 0.80840 -0.69000
O 	O 	0.74660 0.24919 0.93840 -0.72100
O 	O 	0.44570 0.19355 0.90750 -0.73800
O 	O 	0.93270 0.34108 0.11320 -0.59000
O 	O 	0.96150 0.09476 0.76320 -0.75200
O 	O 	0.34940 0.27303 0.09160 -0.80800
O 	O 	0.63230 0.35076 0.07060 -0.77300
O 	O 	0.15090 0.23070 0.84530 -0.80400
O 	O 	0.74890 0.38654 0.86320 -0.66400
O 	O 	0.93750 0.08659 0.03190 -0.67800
O 	O 	0.80080 0.99075 0.83240 -0.60900
O 	O 	0.27320 0.13702 0.05330 -0.72800
