data_crystal

_cell_length_a 14.87790
_cell_length_b 13.06330
_cell_length_c 15.41910
_cell_angle_alpha 90.00000
_cell_angle_beta  110.74500
_cell_angle_gamma 90.00000

_symmetry_space_group_name_	'P 1'
_symmetry_space_group_name_H-M	'P 1'

loop_
_symmetry_equiv_pos_as_xyz
  x,y,z

loop_
_atom_site_label
_atom_site_type_symbol
_atom_site_fract_x
_atom_site_fract_y
_atom_site_fract_z
_atom_site_charge
Al	Al	0.37730 0.30755 0.12409 2.39000
Al	Al	0.74283 0.37415 0.07967 2.39300
Mn	Mn	0.25717 0.62585 0.92033 1.40300
Al	Al	0.08384 0.10940 0.16377 2.38400
Mn	Mn	0.41616 0.60940 0.33623 1.35300
P 	P 	0.24469 0.11429 0.07551 0.76500
P 	P 	0.87413 0.19095 0.12656 0.70400
P 	P 	0.58877 0.36602 0.17098 0.80300
O 	O 	0.97310 0.18780 0.12010 -0.74700
O 	O 	0.33680 0.17710 0.10880 -0.74400
O 	O 	0.65790 0.32810 0.12630 -0.78700
O 	O 	0.86850 0.13220 0.20790 -0.52400
O 	O 	0.50120 0.29620 0.13960 -0.80400
O 	O 	0.17460 0.15640 0.11620 -0.80900
O 	O 	0.63700 0.36460 0.27550 -0.79700
O 	O 	0.84960 0.30390 0.13040 -0.74900
O 	O 	0.79810 0.14360 0.04210 -0.56800
O 	O 	0.55860 0.47410 0.14050 -0.87900
O 	O 	0.27190 0.00430 0.10630 -0.76500
O 	O 	0.20160 0.11670 0.97060 -0.75600
Al	Al	0.87730 0.80755 0.12409 2.38900
Al	Al	0.24283 0.87415 0.07967 2.39000
Mn	Mn	0.75717 0.12585 0.92033 1.41100
Al	Al	0.58384 0.60940 0.16377 2.38300
Mn	Mn	0.91616 0.10940 0.33623 1.36400
P 	P 	0.74469 0.61429 0.07551 0.76500
P 	P 	0.37413 0.69095 0.12656 0.70500
P 	P 	0.08877 0.86602 0.17098 0.80300
O 	O 	0.47310 0.68780 0.12010 -0.75800
O 	O 	0.83680 0.67710 0.10880 -0.75100
O 	O 	0.15790 0.82810 0.12630 -0.79600
O 	O 	0.36850 0.63220 0.20790 -0.53700
O 	O 	0.00120 0.79620 0.13960 -0.80700
O 	O 	0.67460 0.65640 0.11620 -0.81800
O 	O 	0.13700 0.86460 0.27550 -0.80500
O 	O 	0.34960 0.80390 0.13040 -0.76000
O 	O 	0.29810 0.64360 0.04210 -0.58100
O 	O 	0.05860 0.97410 0.14050 -0.90100
O 	O 	0.77190 0.50430 0.10630 -0.79000
O 	O 	0.70160 0.61670 0.97060 -0.76600
Al	Al	0.62270 0.30755 0.37591 2.39000
Al	Al	0.25717 0.37415 0.42033 2.39300
Mn	Mn	0.74283 0.62585 0.57967 1.39300
P 	P 	0.75531 0.11429 0.42449 0.75800
P 	P 	0.12587 0.19095 0.37344 0.70900
P 	P 	0.41123 0.36602 0.32902 0.75700
O 	O 	0.02690 0.18780 0.37990 -0.51800
O 	O 	0.66320 0.17710 0.39120 -0.73300
O 	O 	0.34210 0.32810 0.37370 -0.76200
O 	O 	0.13150 0.13220 0.29210 -0.72600
O 	O 	0.49880 0.29620 0.36040 -0.78400
O 	O 	0.82540 0.15640 0.38380 -0.56800
O 	O 	0.36300 0.36460 0.22450 -0.78200
O 	O 	0.15040 0.30390 0.36960 -0.75100
O 	O 	0.20190 0.14360 0.45790 -0.53800
O 	O 	0.44140 0.47410 0.35950 -0.61800
O 	O 	0.72810 0.00430 0.39370 -0.73100
O 	O 	0.79840 0.11670 0.52940 -0.77500
Al	Al	0.12270 0.80755 0.37591 2.39000
Al	Al	0.75717 0.87415 0.42033 2.39200
Mn	Mn	0.24283 0.12585 0.57967 1.40200
P 	P 	0.25531 0.61429 0.42449 0.75800
P 	P 	0.62587 0.69095 0.37344 0.71000
P 	P 	0.91123 0.86602 0.32902 0.75700
O 	O 	0.52690 0.68780 0.37990 -0.52600
O 	O 	0.16320 0.67710 0.39120 -0.73800
O 	O 	0.84210 0.82810 0.37370 -0.77200
O 	O 	0.63150 0.63220 0.29210 -0.74000
O 	O 	0.99880 0.79620 0.36040 -0.79200
O 	O 	0.32540 0.65640 0.38380 -0.57600
O 	O 	0.86300 0.86460 0.22450 -0.79300
O 	O 	0.65040 0.80390 0.36960 -0.76300
O 	O 	0.70190 0.64360 0.45790 -0.55000
O 	O 	0.94140 0.97410 0.35950 -0.64800
O 	O 	0.22810 0.50430 0.39370 -0.75700
O 	O 	0.29840 0.61670 0.52940 -0.78400
Al	Al	0.62270 0.69245 0.87591 2.39000
Al	Al	0.91616 0.89060 0.83623 2.38200
Mn	Mn	0.58384 0.39060 0.66377 1.35500
P 	P 	0.75531 0.88571 0.92449 0.78300
P 	P 	0.12587 0.80905 0.87344 0.71000
P 	P 	0.41123 0.63398 0.82902 0.75800
O 	O 	0.02690 0.81220 0.87990 -0.75200
O 	O 	0.66320 0.82290 0.89120 -0.73900
O 	O 	0.34210 0.67190 0.87370 -0.52500
O 	O 	0.13150 0.86780 0.79210 -0.53700
O 	O 	0.49880 0.70380 0.86040 -0.79000
O 	O 	0.82540 0.84360 0.88380 -0.80100
O 	O 	0.36300 0.63540 0.72450 -0.78600
O 	O 	0.15040 0.69610 0.86960 -0.50000
O 	O 	0.20190 0.85640 0.95790 -0.76000
O 	O 	0.44140 0.52590 0.85950 -0.84300
O 	O 	0.72810 0.99570 0.89370 -0.56000
O 	O 	0.79840 0.88330 0.02940 -0.82300
Al	Al	0.12270 0.19245 0.87591 2.39000
Al	Al	0.41616 0.39060 0.83623 2.38400
Mn	Mn	0.08384 0.89060 0.66377 1.34700
P 	P 	0.25531 0.38571 0.92449 0.78400
P 	P 	0.62587 0.30905 0.87344 0.70900
P 	P 	0.91123 0.13398 0.82902 0.75800
O 	O 	0.52690 0.31220 0.87990 -0.74500
O 	O 	0.16320 0.32290 0.89120 -0.73200
O 	O 	0.84210 0.17190 0.87370 -0.51800
O 	O 	0.63150 0.36780 0.79210 -0.52600
O 	O 	0.99880 0.20380 0.86040 -0.78700
O 	O 	0.32540 0.34360 0.88380 -0.79000
O 	O 	0.86300 0.13540 0.72450 -0.77700
O 	O 	0.65040 0.19610 0.86960 -0.49200
O 	O 	0.70190 0.35640 0.95790 -0.74900
O 	O 	0.94140 0.02590 0.85950 -0.82000
O 	O 	0.22810 0.49570 0.89370 -0.53100
O 	O 	0.29840 0.38330 0.02940 -0.81300
Al	Al	0.37730 0.69245 0.62409 2.38900
P 	P 	0.24469 0.88571 0.57551 0.71300
P 	P 	0.87413 0.80905 0.62656 0.71600
P 	P 	0.58877 0.63398 0.67098 0.71200
O 	O 	0.97310 0.81220 0.62010 -0.54700
O 	O 	0.33680 0.82290 0.60880 -0.73700
O 	O 	0.65790 0.67190 0.62630 -0.52100
O 	O 	0.86850 0.86780 0.70790 -0.74800
O 	O 	0.50120 0.70380 0.63960 -0.78600
O 	O 	0.17460 0.84360 0.61620 -0.56300
O 	O 	0.63700 0.63540 0.77550 -0.76800
O 	O 	0.84960 0.69610 0.63040 -0.52000
O 	O 	0.79810 0.85640 0.54210 -0.77800
O 	O 	0.55860 0.52590 0.64050 -0.59800
O 	O 	0.27190 0.99570 0.60630 -0.53600
O 	O 	0.20160 0.88330 0.47060 -0.77300
Al	Al	0.87730 0.19245 0.62409 2.39000
P 	P 	0.74469 0.38571 0.57551 0.71300
P 	P 	0.37413 0.30905 0.62656 0.71500
P 	P 	0.08877 0.13398 0.67098 0.71200
O 	O 	0.47310 0.31220 0.62010 -0.53400
O 	O 	0.83680 0.32290 0.60880 -0.73200
O 	O 	0.15790 0.17190 0.62630 -0.51300
O 	O 	0.36850 0.36780 0.70790 -0.73100
O 	O 	0.00120 0.20380 0.63960 -0.78100
O 	O 	0.67460 0.34360 0.61620 -0.55700
O 	O 	0.13700 0.13540 0.77550 -0.75900
O 	O 	0.34960 0.19610 0.63040 -0.51000
O 	O 	0.29810 0.35640 0.54210 -0.76400
O 	O 	0.05860 0.02590 0.64050 -0.57300
O 	O 	0.77190 0.49570 0.60630 -0.51000
O 	O 	0.70160 0.38330 0.47060 -0.76500
