data_crystal

_cell_length_a 14.73300
_cell_length_b 13.07900
_cell_length_c 15.21000
_cell_angle_alpha 90.00000
_cell_angle_beta  110.99000
_cell_angle_gamma 90.00000

_symmetry_space_group_name_	'P 1'
_symmetry_space_group_name_H-M	'P 1'

loop_
_symmetry_equiv_pos_as_xyz
  x,y,z

loop_
_atom_site_label
_atom_site_type_symbol
_atom_site_fract_x
_atom_site_fract_y
_atom_site_fract_z
_atom_site_charge
Al	Al	0.87515 0.80948 0.12389 2.39200
Zn	Zn	0.08313 0.10676 0.16279 1.28800
Al	Al	0.58313 0.60676 0.16279 2.39300
Zn	Zn	0.24894 0.87388 0.08201 1.27400
Al	Al	0.75106 0.87388 0.41799 2.38700
P 	P 	0.37567 0.68606 0.12772 0.70400
P 	P 	0.74608 0.61273 0.07913 0.76800
P 	P 	0.90915 0.86754 0.32988 0.73300
O 	O 	0.47210 0.67350 0.11330 -0.77000
O 	O 	0.36090 0.80070 0.13640 -0.47900
O 	O 	0.37620 0.62800 0.21450 -0.78300
O 	O 	0.83460 0.68050 0.11040 -0.75700
O 	O 	0.85950 0.86960 0.22310 -0.76900
O 	O 	0.67230 0.65250 0.12050 -0.81500
O 	O 	0.70050 0.61370 0.97280 -0.77800
O 	O 	0.84110 0.82380 0.37410 -0.74400
O 	O 	0.29150 0.64260 0.04570 -0.49300
O 	O 	0.77880 0.50600 0.11270 -0.51000
O 	O 	0.93760 0.97580 0.36350 -0.59300
O 	O 	0.99980 0.79890 0.35990 -0.77800
Al	Al	0.37515 0.30948 0.12389 2.39100
Zn	Zn	0.74894 0.37388 0.08201 1.27300
Al	Al	0.25106 0.37388 0.41799 2.38700
P 	P 	0.87567 0.18606 0.12772 0.61000
P 	P 	0.24608 0.11273 0.07913 0.72600
P 	P 	0.40915 0.36754 0.32988 0.77900
O 	O 	0.97210 0.17350 0.11330 -0.49100
O 	O 	0.86090 0.30070 0.13640 -0.45300
O 	O 	0.87620 0.12800 0.21450 -0.49100
O 	O 	0.33460 0.18050 0.11040 -0.75100
O 	O 	0.35950 0.36960 0.22310 -0.79400
O 	O 	0.17230 0.15250 0.12050 -0.54900
O 	O 	0.20050 0.11370 0.97280 -0.76400
O 	O 	0.34110 0.32380 0.37410 -0.75400
O 	O 	0.79150 0.14260 0.04570 -0.47600
O 	O 	0.27880 0.00600 0.11270 -0.48600
O 	O 	0.43760 0.47580 0.36350 -0.87100
O 	O 	0.49980 0.29890 0.35990 -0.79100
Al	Al	0.12485 0.80948 0.37611 2.39100
Zn	Zn	0.91687 0.10676 0.33721 1.28600
Al	Al	0.41687 0.60676 0.33721 2.39300
P 	P 	0.62433 0.68606 0.37228 0.77200
P 	P 	0.25392 0.61273 0.42087 0.81200
P 	P 	0.09085 0.86754 0.17012 0.69300
O 	O 	0.52790 0.67350 0.38670 -0.79800
O 	O 	0.63910 0.80070 0.36360 -0.73800
O 	O 	0.62380 0.62800 0.28550 -0.79700
O 	O 	0.16540 0.68050 0.38960 -0.76200
O 	O 	0.14050 0.86960 0.27690 -0.75500
O 	O 	0.32770 0.65250 0.37950 -0.82700
O 	O 	0.29950 0.61370 0.52720 -0.80600
O 	O 	0.15890 0.82380 0.12590 -0.48100
O 	O 	0.70850 0.64260 0.45430 -0.78100
O 	O 	0.22120 0.50600 0.38730 -0.77200
O 	O 	0.06240 0.97580 0.13650 -0.55700
O 	O 	0.00020 0.79890 0.14010 -0.76900
Al	Al	0.62485 0.30948 0.37611 2.39100
P 	P 	0.12433 0.18606 0.37228 0.67800
P 	P 	0.75392 0.11273 0.42087 0.76800
P 	P 	0.59085 0.36754 0.17012 0.74000
O 	O 	0.02790 0.17350 0.38670 -0.52000
O 	O 	0.13910 0.30070 0.36360 -0.71200
O 	O 	0.12380 0.12800 0.28550 -0.50500
O 	O 	0.66540 0.18050 0.38960 -0.75700
O 	O 	0.64050 0.36960 0.27690 -0.78100
O 	O 	0.82770 0.15250 0.37950 -0.56000
O 	O 	0.79950 0.11370 0.52720 -0.78900
O 	O 	0.65890 0.32380 0.12590 -0.49100
O 	O 	0.20850 0.14260 0.45430 -0.76400
O 	O 	0.72120 0.00600 0.38730 -0.74700
O 	O 	0.56240 0.47580 0.13650 -0.83600
O 	O 	0.50020 0.29890 0.14010 -0.78300
Al	Al	0.12485 0.19052 0.87611 2.39100
Zn	Zn	0.91687 0.89324 0.83721 1.28700
Al	Al	0.41687 0.39324 0.83721 2.39300
Zn	Zn	0.75106 0.12612 0.91799 1.27400
Al	Al	0.24894 0.12612 0.58201 2.38700
P 	P 	0.62433 0.31394 0.87228 0.70400
P 	P 	0.25392 0.38727 0.92087 0.76800
P 	P 	0.09085 0.13246 0.67012 0.73300
O 	O 	0.52790 0.32650 0.88670 -0.77000
O 	O 	0.63910 0.19930 0.86360 -0.47900
O 	O 	0.62380 0.37200 0.78550 -0.78300
O 	O 	0.16540 0.31950 0.88960 -0.75700
O 	O 	0.14050 0.13040 0.77690 -0.76900
O 	O 	0.32770 0.34750 0.87950 -0.81500
O 	O 	0.29950 0.38630 0.02720 -0.77800
O 	O 	0.15890 0.17620 0.62590 -0.74400
O 	O 	0.70850 0.35740 0.95430 -0.49300
O 	O 	0.22120 0.49400 0.88730 -0.51000
O 	O 	0.06240 0.02420 0.63650 -0.59300
O 	O 	0.00020 0.20110 0.64010 -0.77800
Al	Al	0.62485 0.69052 0.87611 2.39100
Zn	Zn	0.25106 0.62612 0.91799 1.27300
Al	Al	0.74894 0.62612 0.58201 2.38700
P 	P 	0.12433 0.81394 0.87228 0.61000
P 	P 	0.75392 0.88727 0.92087 0.72600
P 	P 	0.59085 0.63246 0.67012 0.77900
O 	O 	0.02790 0.82650 0.88670 -0.49100
O 	O 	0.13910 0.69930 0.86360 -0.45300
O 	O 	0.12380 0.87200 0.78550 -0.49100
O 	O 	0.66540 0.81950 0.88960 -0.75100
O 	O 	0.64050 0.63040 0.77690 -0.79400
O 	O 	0.82770 0.84750 0.87950 -0.54900
O 	O 	0.79950 0.88630 0.02720 -0.76400
O 	O 	0.65890 0.67620 0.62590 -0.75400
O 	O 	0.20850 0.85740 0.95430 -0.47600
O 	O 	0.72120 0.99400 0.88730 -0.48600
O 	O 	0.56240 0.52420 0.63650 -0.87100
O 	O 	0.50020 0.70110 0.64010 -0.79100
Al	Al	0.87515 0.19052 0.62389 2.39100
Zn	Zn	0.08313 0.89324 0.66279 1.28600
Al	Al	0.58313 0.39324 0.66279 2.39300
P 	P 	0.37567 0.31394 0.62772 0.77200
P 	P 	0.74608 0.38727 0.57913 0.81200
P 	P 	0.90915 0.13246 0.82988 0.69300
O 	O 	0.47210 0.32650 0.61330 -0.79800
O 	O 	0.36090 0.19930 0.63640 -0.73800
O 	O 	0.37620 0.37200 0.71450 -0.79700
O 	O 	0.83460 0.31950 0.61040 -0.76200
O 	O 	0.85950 0.13040 0.72310 -0.75500
O 	O 	0.67230 0.34750 0.62050 -0.82700
O 	O 	0.70050 0.38630 0.47280 -0.80600
O 	O 	0.84110 0.17620 0.87410 -0.48100
O 	O 	0.29150 0.35740 0.54570 -0.78100
O 	O 	0.77880 0.49400 0.61270 -0.77200
O 	O 	0.93760 0.02420 0.86350 -0.55700
O 	O 	0.99980 0.20110 0.85990 -0.76900
Al	Al	0.37515 0.69052 0.62389 2.39100
P 	P 	0.87567 0.81394 0.62772 0.67800
P 	P 	0.24608 0.88727 0.57913 0.76800
P 	P 	0.40915 0.63246 0.82988 0.74000
O 	O 	0.97210 0.82650 0.61330 -0.52000
O 	O 	0.86090 0.69930 0.63640 -0.71200
O 	O 	0.87620 0.87200 0.71450 -0.50500
O 	O 	0.33460 0.81950 0.61040 -0.75700
O 	O 	0.35950 0.63040 0.72310 -0.78100
O 	O 	0.17230 0.84750 0.62050 -0.56000
O 	O 	0.20050 0.88630 0.47280 -0.78900
O 	O 	0.34110 0.67620 0.87410 -0.49100
O 	O 	0.79150 0.85740 0.54570 -0.76400
O 	O 	0.27880 0.99400 0.61270 -0.74700
O 	O 	0.43760 0.52420 0.86350 -0.83600
O 	O 	0.49980 0.70110 0.85990 -0.78300
