data_crystal

_cell_length_a 14.83570
_cell_length_b 14.83570
_cell_length_c 6.78540
_cell_angle_alpha 90.00000
_cell_angle_beta  90.00000
_cell_angle_gamma 90.00000

_symmetry_space_group_name_	'P 1'
_symmetry_space_group_name_H-M	'P 1'

loop_
_symmetry_equiv_pos_as_xyz
  x,y,z

loop_
_atom_site_label
_atom_site_type_symbol
_atom_site_fract_x
_atom_site_fract_y
_atom_site_fract_z
_atom_site_charge
C 	C 	0.31830 0.79320 0.24900 0.30500
C 	C 	0.25280 0.85830 0.25410 0.27300
F 	F 	0.40440 0.82010 0.25240 -0.34400
F 	F 	0.27830 0.94600 0.25340 -0.35100
O 	O 	0.42630 0.63330 0.11400 -0.41700
O 	O 	0.04340 0.91970 0.09910 -0.52300
O 	O 	0.61490 0.69240 0.98700 -0.38300
H 	H 	0.67200 0.68720 0.98860 0.38300
H 	H 	0.59790 0.72150 0.08850 0.26500
O 	O 	0.66130 0.64600 0.94500 -0.33000
H 	H 	0.68290 0.66550 0.05270 -0.22800
H 	H 	0.70340 0.62330 0.87570 0.06300
C 	C 	0.68170 0.20680 0.74900 0.31000
C 	C 	0.74720 0.14170 0.75410 0.28100
F 	F 	0.59560 0.17990 0.75240 -0.32700
F 	F 	0.72170 0.05400 0.75340 -0.33800
O 	O 	0.57370 0.36670 0.61400 -0.39300
O 	O 	0.95660 0.08030 0.59910 -0.49700
O 	O 	0.38510 0.30760 0.48700 -0.41700
H 	H 	0.32800 0.31280 0.48860 0.38400
H 	H 	0.40210 0.27850 0.58850 0.28600
O 	O 	0.33870 0.35400 0.44500 -0.21000
H 	H 	0.31710 0.33450 0.55270 -0.11900
H 	H 	0.29660 0.37670 0.37570 0.00300
C 	C 	0.70680 0.81830 0.49900 0.30700
C 	C 	0.64170 0.75280 0.50410 0.27800
F 	F 	0.67990 0.90440 0.50240 -0.33800
F 	F 	0.55400 0.77830 0.50340 -0.34200
O 	O 	0.86670 0.92630 0.36400 -0.40100
O 	O 	0.58030 0.54340 0.34910 -0.50400
O 	O 	0.80760 0.11490 0.23700 -0.41500
H 	H 	0.81280 0.17200 0.23860 0.38000
H 	H 	0.77850 0.09790 0.33850 0.26200
O 	O 	0.85400 0.16130 0.19500 -0.22200
H 	H 	0.83450 0.18290 0.30270 -0.11500
H 	H 	0.87670 0.20340 0.12570 -0.00100
C 	C 	0.29320 0.18170 0.99900 0.48600
C 	C 	0.35830 0.24720 0.00410 0.18400
F 	F 	0.32010 0.09560 0.00240 -0.40800
F 	F 	0.44600 0.22170 0.00340 -0.35300
O 	O 	0.13330 0.07370 0.86400 -0.33400
O 	O 	0.41970 0.45660 0.84910 -0.43300
O 	O 	0.19240 0.88510 0.73700 -0.41500
H 	H 	0.18720 0.82800 0.73860 0.38400
H 	H 	0.22150 0.90210 0.83850 0.29400
O 	O 	0.14600 0.83870 0.69500 -0.20300
H 	H 	0.16550 0.81710 0.80270 -0.11700
H 	H 	0.12330 0.79660 0.62570 -0.00400
C 	C 	0.18170 0.29320 0.00100 0.18700
C 	C 	0.24720 0.35830 0.99590 0.41100
F 	F 	0.09560 0.32010 0.99760 -0.27600
F 	F 	0.22170 0.44600 0.99660 -0.34200
O 	O 	0.07370 0.13330 0.13600 -0.39200
O 	O 	0.45660 0.41970 0.15090 -0.49000
O 	O 	0.88510 0.19240 0.26300 -0.40000
H 	H 	0.82800 0.18720 0.26140 0.38400
H 	H 	0.90210 0.22150 0.16150 0.26700
O 	O 	0.83870 0.14600 0.30500 -0.22600
H 	H 	0.81710 0.16550 0.19730 -0.11600
H 	H 	0.79660 0.12330 0.37430 0.02900
C 	C 	0.81830 0.70680 0.50100 0.30700
C 	C 	0.75280 0.64170 0.49590 0.27500
F 	F 	0.90440 0.67990 0.49760 -0.34000
F 	F 	0.77830 0.55400 0.49660 -0.35100
O 	O 	0.92630 0.86670 0.63600 -0.38300
O 	O 	0.54340 0.58030 0.65090 -0.48400
O 	O 	0.11490 0.80760 0.76300 -0.40300
H 	H 	0.17200 0.81280 0.76140 0.38800
H 	H 	0.09790 0.77850 0.66150 0.29800
O 	O 	0.16130 0.85400 0.80500 -0.20600
H 	H 	0.18290 0.83450 0.69730 -0.11800
H 	H 	0.20340 0.87670 0.87430 0.02100
C 	C 	0.79320 0.31830 0.75100 0.31000
C 	C 	0.85830 0.25280 0.74590 0.28100
F 	F 	0.82010 0.40440 0.74760 -0.33400
F 	F 	0.94600 0.27830 0.74660 -0.34000
O 	O 	0.63330 0.42630 0.88600 -0.36700
O 	O 	0.91970 0.04340 0.90090 -0.46500
O 	O 	0.69240 0.61490 0.01300 -0.42500
H 	H 	0.68720 0.67200 0.01140 0.38500
H 	H 	0.72150 0.59790 0.91150 0.29200
O 	O 	0.64600 0.66130 0.05500 -0.10300
H 	H 	0.66550 0.68290 0.94730 -0.00600
H 	H 	0.62330 0.70340 0.12430 -0.03500
C 	C 	0.20680 0.68170 0.25100 0.30400
C 	C 	0.14170 0.74720 0.24590 0.27200
F 	F 	0.17990 0.59560 0.24760 -0.35100
F 	F 	0.05400 0.72170 0.24660 -0.35500
O 	O 	0.36670 0.57370 0.38600 -0.39500
O 	O 	0.08030 0.95660 0.40090 -0.49600
O 	O 	0.30760 0.38510 0.51300 -0.40400
H 	H 	0.31280 0.32800 0.51140 0.38400
H 	H 	0.27850 0.40210 0.41150 0.28200
O 	O 	0.35400 0.33870 0.55500 -0.20900
H 	H 	0.33450 0.31710 0.44730 -0.11500
H 	H 	0.37670 0.29660 0.62430 0.02100
C 	C 	0.36830 0.63170 0.25000 0.51600
C 	C 	0.29660 0.70340 0.25000 -0.24000
C 	C 	0.08980 0.91020 0.25000 0.53200
C 	C 	0.16120 0.83880 0.25000 -0.24700
C 	C 	0.63170 0.36830 0.75000 0.51400
C 	C 	0.70340 0.29660 0.75000 -0.22700
C 	C 	0.91020 0.08980 0.75000 0.52700
C 	C 	0.83880 0.16120 0.75000 -0.22900
C 	C 	0.86830 0.86830 0.50000 0.51400
C 	C 	0.79660 0.79660 0.50000 -0.23300
C 	C 	0.58980 0.58980 0.50000 0.52900
C 	C 	0.66120 0.66120 0.50000 -0.23800
C 	C 	0.13170 0.13170 -0.00000 0.45300
C 	C 	0.20340 0.20340 -0.00000 -0.28900
C 	C 	0.41020 0.41020 -0.00000 0.45900
C 	C 	0.33880 0.33880 -0.00000 -0.28600
Ca	Ca	0.54852 0.54852 -0.00000 1.52500
Ca	Ca	0.45148 0.45148 0.50000 1.53500
Ca	Ca	0.95148 0.04852 0.25000 1.53000
Ca	Ca	0.04852 0.95148 0.75000 1.53800
