data_crystal

_cell_length_a 10.95000
_cell_length_b 17.70000
_cell_length_c 7.84300
_cell_angle_alpha 90.00000
_cell_angle_beta  102.33000
_cell_angle_gamma 90.00000

_symmetry_space_group_name_	'P 1'
_symmetry_space_group_name_H-M	'P 1'

loop_
_symmetry_equiv_pos_as_xyz
  x,y,z

loop_
_atom_site_label
_atom_site_type_symbol
_atom_site_fract_x
_atom_site_fract_y
_atom_site_fract_z
_atom_site_charge
C 	C 	0.35900 0.40000 0.09250 0.51000
C 	C 	0.30260 0.32320 0.04410 -0.23300
C 	C 	0.17880 0.30770 0.03790 0.29700
C 	C 	0.12740 0.23760 0.99400 0.26000
F 	F 	0.10480 0.36471 0.07120 -0.40500
F 	F 	0.00470 0.22824 0.98810 -0.47000
O 	O 	0.35370 0.42601 0.23720 -0.39500
O 	O 	0.41160 0.43239 0.98440 -0.52900
C 	C 	0.85900 0.90000 0.09250 0.50700
C 	C 	0.80260 0.82320 0.04410 -0.19900
C 	C 	0.67880 0.80770 0.03790 0.31400
C 	C 	0.62740 0.73760 0.99400 0.28500
F 	F 	0.60480 0.86471 0.07120 -0.35000
F 	F 	0.50470 0.72824 0.98810 -0.39800
O 	O 	0.85370 0.92601 0.23720 -0.31400
O 	O 	0.91160 0.93239 0.98440 -0.44000
C 	C 	0.64100 0.40000 0.40750 0.50500
C 	C 	0.69740 0.32320 0.45590 -0.21100
C 	C 	0.82120 0.30770 0.46210 0.32100
C 	C 	0.87260 0.23760 0.50600 0.31100
F 	F 	0.89520 0.36471 0.42880 -0.30000
F 	F 	0.99530 0.22824 0.51190 -0.31200
O 	O 	0.64630 0.42601 0.26280 -0.35900
O 	O 	0.58840 0.43239 0.51560 -0.50500
C 	C 	0.14100 0.90000 0.40750 0.50200
C 	C 	0.19740 0.82320 0.45590 -0.24200
C 	C 	0.32120 0.80770 0.46210 0.30200
C 	C 	0.37260 0.73760 0.50600 0.28700
F 	F 	0.39520 0.86471 0.42880 -0.35400
F 	F 	0.49530 0.72824 0.51190 -0.38600
O 	O 	0.14630 0.92601 0.26280 -0.42800
O 	O 	0.08840 0.93239 0.51560 -0.57800
C 	C 	0.64100 0.60000 0.90750 0.49200
C 	C 	0.69740 0.67680 0.95590 -0.20100
C 	C 	0.82120 0.69230 0.96210 0.30600
C 	C 	0.87260 0.76240 0.00600 0.32500
F 	F 	0.89520 0.63529 0.92880 -0.30000
F 	F 	0.99530 0.77176 0.01190 -0.31300
O 	O 	0.64630 0.57399 0.76280 -0.35800
O 	O 	0.58840 0.56761 0.01560 -0.49500
C 	C 	0.14100 0.10000 0.90750 0.49100
C 	C 	0.19740 0.17680 0.95590 -0.23300
C 	C 	0.32120 0.19230 0.96210 0.28800
C 	C 	0.37260 0.26240 0.00600 0.30000
F 	F 	0.39520 0.13529 0.92880 -0.35400
F 	F 	0.49530 0.27176 0.01190 -0.38600
O 	O 	0.14630 0.07399 0.76280 -0.42900
O 	O 	0.08840 0.06761 0.01560 -0.56800
C 	C 	0.35900 0.60000 0.59250 0.49700
C 	C 	0.30260 0.67680 0.54410 -0.22400
C 	C 	0.17880 0.69230 0.53790 0.28200
C 	C 	0.12740 0.76240 0.49400 0.27500
F 	F 	0.10480 0.63529 0.57120 -0.40500
F 	F 	0.00470 0.77176 0.48810 -0.47000
O 	O 	0.35370 0.57399 0.73720 -0.39500
O 	O 	0.41160 0.56761 0.48440 -0.51800
C 	C 	0.85900 0.10000 0.59250 0.49500
C 	C 	0.80260 0.17680 0.54410 -0.18900
C 	C 	0.67880 0.19230 0.53790 0.29900
C 	C 	0.62740 0.26240 0.49400 0.30000
F 	F 	0.60480 0.13529 0.57120 -0.35000
F 	F 	0.50470 0.27176 0.48810 -0.39800
O 	O 	0.85370 0.07399 0.73720 -0.31300
O 	O 	0.91160 0.06761 0.48440 -0.42900
Ca	Ca	0.50000 0.53217 0.25000 1.51100
Ca	Ca	0.00000 0.03217 0.25000 1.48200
Ca	Ca	0.50000 0.46783 0.75000 1.51100
Ca	Ca	0.00000 0.96783 0.75000 1.48100
