data_crystal

_cell_length_a 8.08500
_cell_length_b 14.31600
_cell_length_c 29.77500
_cell_angle_alpha 90.00000
_cell_angle_beta  103.04000
_cell_angle_gamma 90.00000

_symmetry_space_group_name_	'P 1'
_symmetry_space_group_name_H-M	'P 1'

loop_
_symmetry_equiv_pos_as_xyz
  x,y,z

loop_
_atom_site_label
_atom_site_type_symbol
_atom_site_fract_x
_atom_site_fract_y
_atom_site_fract_z
_atom_site_charge
Pr	Pr	0.26277 0.96233 0.52004 2.05100
O 	O 	0.22370 0.95670 0.43440 -0.51400
O 	O 	0.98510 0.99490 0.45150 -0.65200
C 	C 	0.06980 0.97400 0.42220 0.48600
C 	C 	0.97650 0.96630 0.37250 -0.45800
C 	C 	0.09760 0.91940 0.34570 0.08800
N 	N 	0.02340 0.90230 0.29550 -0.10500
C 	C 	0.99730 0.99060 0.26750 -0.03700
C 	C 	0.90890 0.96770 0.21790 -0.06000
C 	C 	0.85640 0.85000 0.28730 -0.05800
C 	C 	0.80910 0.81550 0.23710 -0.06000
C 	C 	0.14790 0.83980 0.27780 -0.06700
C 	C 	0.09610 0.83550 0.22540 -0.05800
N 	N 	0.91550 0.86500 0.20920 -0.10200
C 	C 	0.85370 0.84640 0.15850 0.11300
C 	C 	0.83910 0.74300 0.14620 -0.48300
C 	C 	0.79000 0.72670 0.09500 0.50100
O 	O 	0.74130 0.79190 0.06850 -0.34500
O 	O 	0.31120 0.85510 0.58270 -0.56900
O 	O 	0.23400 0.13710 0.51190 -0.52900
O 	O 	0.47530 0.09640 0.49540 -0.67100
C 	C 	0.37140 0.15780 0.50130 0.62000
C 	C 	0.41900 0.25700 0.49590 -0.64600
C 	C 	0.30730 0.32200 0.49120 1.08400
N 	N 	0.36370 0.42670 0.48950 -0.24400
C 	C 	0.45780 0.45670 0.53900 0.00000
C 	C 	0.48630 0.44030 0.46030 -0.07300
C 	C 	0.19920 0.48680 0.47360 -0.03300
C 	C 	0.21820 0.58250 0.47080 -0.07700
N 	N 	0.59190 0.40440 0.51570 -0.19900
C 	C 	0.55730 0.29560 0.51630 0.86100
H 	H 	0.94450 0.02720 0.36010 0.15600
H 	H 	0.87680 0.92840 0.36990 0.15400
H 	H 	0.19420 0.95970 0.34820 0.00400
H 	H 	0.13340 0.86070 0.36030 0.00500
H 	H 	0.10510 0.01940 0.26820 0.03400
H 	H 	0.92750 0.03270 0.28020 0.02600
H 	H 	0.79240 0.98720 0.21230 0.04400
H 	H 	0.96490 0.00010 0.19740 0.03700
H 	H 	0.77000 0.89060 0.29360 0.03800
H 	H 	0.86890 0.79700 0.30750 0.04000
H 	H 	0.82400 0.74910 0.23590 0.03800
H 	H 	0.69230 0.83090 0.22440 0.04000
H 	H 	0.14800 0.77850 0.29080 0.04400
H 	H 	0.25950 0.86640 0.28690 0.04000
H 	H 	0.16710 0.87580 0.21210 0.04100
H 	H 	0.10770 0.77240 0.21570 0.03400
H 	H 	0.92790 0.87460 0.14130 -0.00200
H 	H 	0.74360 0.87450 0.14860 0.00100
H 	H 	0.75350 0.71580 0.15990 0.16900
H 	H 	0.94660 0.71410 0.15900 0.17500
H 	H 	0.46750 0.26050 0.46930 0.14400
H 	H 	0.50850 0.27210 0.52200 -0.24000
H 	H 	0.33380 0.29280 0.50610 -0.34500
H 	H 	0.40270 0.26820 0.46340 0.02400
H 	H 	0.24270 0.31650 0.51450 -0.17000
H 	H 	0.23200 0.30910 0.46200 -0.30800
H 	H 	0.55870 0.41970 0.54840 0.07200
H 	H 	0.38730 0.44650 0.56050 0.02400
H 	H 	0.36550 0.43220 0.45490 0.10500
H 	H 	0.52850 0.40580 0.43760 0.04700
H 	H 	0.10570 0.46780 0.48640 0.03300
H 	H 	0.16740 0.47520 0.44100 0.02900
H 	H 	0.16760 0.60350 0.49530 0.06700
H 	H 	0.16760 0.61580 0.44310 0.03900
H 	H 	0.64110 0.26760 0.50230 -0.25700
H 	H 	0.58320 0.27620 0.54800 -0.14700
Pr	Pr	0.23723 0.46233 0.97996 2.05200
O 	O 	0.27630 0.45670 0.06560 -0.52000
O 	O 	0.51490 0.49490 0.04850 -0.66200
C 	C 	0.43020 0.47400 0.07780 0.50800
C 	C 	0.52350 0.46630 0.12750 -0.49600
C 	C 	0.40240 0.41940 0.15430 0.10900
N 	N 	0.47660 0.40230 0.20450 -0.10200
C 	C 	0.50270 0.49060 0.23250 -0.05600
C 	C 	0.59110 0.46770 0.28210 -0.06300
C 	C 	0.64360 0.35000 0.21270 -0.06200
C 	C 	0.69090 0.31550 0.26290 -0.05800
C 	C 	0.35210 0.33980 0.22220 -0.06800
C 	C 	0.40390 0.33550 0.27460 -0.05200
N 	N 	0.58450 0.36500 0.29080 -0.10400
C 	C 	0.64630 0.34640 0.34150 0.11400
C 	C 	0.66090 0.24300 0.35380 -0.48300
C 	C 	0.71000 0.22670 0.40500 0.50100
O 	O 	0.75870 0.29190 0.43150 -0.34600
O 	O 	0.18880 0.35510 0.91730 -0.56800
O 	O 	0.26600 0.63710 0.98810 -0.53000
O 	O 	0.02470 0.59640 0.00460 -0.67100
C 	C 	0.12860 0.65780 0.99870 0.62100
C 	C 	0.08100 0.75700 0.00410 -0.65100
C 	C 	0.19270 0.82200 0.00880 1.08200
N 	N 	0.13630 0.92670 0.01050 -0.24300
C 	C 	0.04220 0.95670 0.96100 -0.00600
C 	C 	0.01370 0.94030 0.03970 -0.08000
C 	C 	0.30080 0.98680 0.02640 -0.03700
C 	C 	0.28180 0.08250 0.02920 -0.07300
N 	N 	0.90810 0.90440 0.98430 -0.19800
C 	C 	0.94270 0.79560 0.98370 0.86400
H 	H 	0.55550 0.52720 0.13990 0.17000
H 	H 	0.62320 0.42840 0.13010 0.16400
H 	H 	0.30580 0.45970 0.15180 -0.00200
H 	H 	0.36660 0.36070 0.13970 -0.00000
H 	H 	0.39490 0.51940 0.23180 0.04000
H 	H 	0.57250 0.53270 0.21980 0.03500
H 	H 	0.70760 0.48720 0.28770 0.04300
H 	H 	0.53510 0.50010 0.30260 0.04200
H 	H 	0.73000 0.39060 0.20640 0.03800
H 	H 	0.63110 0.29700 0.19250 0.04100
H 	H 	0.67600 0.24910 0.26410 0.03700
H 	H 	0.80770 0.33090 0.27560 0.03900
H 	H 	0.35200 0.27850 0.20920 0.04500
H 	H 	0.24050 0.36640 0.21310 0.04100
H 	H 	0.33290 0.37580 0.28790 0.04000
H 	H 	0.39230 0.27240 0.28430 0.03300
H 	H 	0.57210 0.37460 0.35870 -0.00300
H 	H 	0.75640 0.37450 0.35140 0.00000
H 	H 	0.74650 0.21580 0.34010 0.16900
H 	H 	0.55340 0.21410 0.34100 0.17400
H 	H 	0.03250 0.76050 0.03070 0.14300
H 	H 	0.99150 0.77210 0.97800 -0.23800
H 	H 	0.16620 0.79280 0.99390 -0.34300
H 	H 	0.09730 0.76820 0.03660 0.02600
H 	H 	0.25730 0.81650 0.98550 -0.17100
H 	H 	0.26800 0.80910 0.03800 -0.30800
H 	H 	0.94130 0.91970 0.95160 0.07600
H 	H 	0.11270 0.94650 0.93950 0.02500
H 	H 	0.13450 0.93220 0.04510 0.10600
H 	H 	0.97150 0.90580 0.06240 0.05200
H 	H 	0.39430 0.96780 0.01360 0.03500
H 	H 	0.33260 0.97520 0.05900 0.03000
H 	H 	0.33240 0.10350 0.00470 0.06700
H 	H 	0.33240 0.11580 0.05690 0.03800
H 	H 	0.85890 0.76760 0.99770 -0.25600
H 	H 	0.91680 0.77620 0.95200 -0.14800
Pr	Pr	0.73723 0.03767 0.47996 2.05000
O 	O 	0.77630 0.04330 0.56560 -0.51500
O 	O 	0.01490 0.00510 0.54850 -0.65200
C 	C 	0.93020 0.02600 0.57780 0.48600
C 	C 	0.02350 0.03370 0.62750 -0.45800
C 	C 	0.90240 0.08060 0.65430 0.08800
N 	N 	0.97660 0.09770 0.70450 -0.10500
C 	C 	0.00270 0.00940 0.73250 -0.03700
C 	C 	0.09110 0.03230 0.78210 -0.06000
C 	C 	0.14360 0.15000 0.71270 -0.05800
C 	C 	0.19090 0.18450 0.76290 -0.06000
C 	C 	0.85210 0.16020 0.72220 -0.06700
C 	C 	0.90390 0.16450 0.77460 -0.05800
N 	N 	0.08450 0.13500 0.79080 -0.10200
C 	C 	0.14630 0.15360 0.84150 0.11300
C 	C 	0.16090 0.25700 0.85380 -0.48300
C 	C 	0.21000 0.27330 0.90500 0.50100
O 	O 	0.25870 0.20810 0.93150 -0.34500
O 	O 	0.68880 0.14490 0.41730 -0.56900
O 	O 	0.76600 0.86290 0.48810 -0.52900
O 	O 	0.52470 0.90360 0.50460 -0.67100
C 	C 	0.62860 0.84220 0.49870 0.62000
C 	C 	0.58100 0.74300 0.50410 -0.64600
C 	C 	0.69270 0.67800 0.50880 1.08400
N 	N 	0.63630 0.57330 0.51050 -0.24400
C 	C 	0.54220 0.54330 0.46100 0.00000
C 	C 	0.51370 0.55970 0.53970 -0.07300
C 	C 	0.80080 0.51320 0.52640 -0.03300
C 	C 	0.78180 0.41750 0.52920 -0.07700
N 	N 	0.40810 0.59560 0.48430 -0.19900
C 	C 	0.44270 0.70440 0.48370 0.86100
H 	H 	0.05550 0.97280 0.63990 0.15600
H 	H 	0.12320 0.07160 0.63010 0.15400
H 	H 	0.80580 0.04030 0.65180 0.00400
H 	H 	0.86660 0.13930 0.63970 0.00500
H 	H 	0.89490 0.98060 0.73180 0.03400
H 	H 	0.07250 0.96730 0.71980 0.02600
H 	H 	0.20760 0.01280 0.78770 0.04400
H 	H 	0.03510 0.99990 0.80260 0.03700
H 	H 	0.23000 0.10940 0.70640 0.03800
H 	H 	0.13110 0.20300 0.69250 0.04000
H 	H 	0.17600 0.25090 0.76410 0.03800
H 	H 	0.30770 0.16910 0.77560 0.04000
H 	H 	0.85200 0.22150 0.70920 0.04400
H 	H 	0.74050 0.13360 0.71310 0.04000
H 	H 	0.83290 0.12420 0.78790 0.04100
H 	H 	0.89230 0.22760 0.78430 0.03400
H 	H 	0.07210 0.12540 0.85870 -0.00200
H 	H 	0.25640 0.12550 0.85140 0.00100
H 	H 	0.24650 0.28420 0.84010 0.16900
H 	H 	0.05340 0.28590 0.84100 0.17500
H 	H 	0.53250 0.73950 0.53070 0.14400
H 	H 	0.49150 0.72790 0.47800 -0.24000
H 	H 	0.66620 0.70720 0.49390 -0.34500
H 	H 	0.59730 0.73180 0.53660 0.02400
H 	H 	0.75730 0.68350 0.48550 -0.17000
H 	H 	0.76800 0.69090 0.53800 -0.30800
H 	H 	0.44130 0.58030 0.45160 0.07200
H 	H 	0.61270 0.55350 0.43950 0.02400
H 	H 	0.63450 0.56780 0.54510 0.10500
H 	H 	0.47150 0.59420 0.56240 0.04700
H 	H 	0.89430 0.53220 0.51360 0.03300
H 	H 	0.83260 0.52480 0.55900 0.02900
H 	H 	0.83240 0.39650 0.50470 0.06700
H 	H 	0.83240 0.38420 0.55690 0.03900
H 	H 	0.35890 0.73240 0.49770 -0.25700
H 	H 	0.41680 0.72380 0.45200 -0.14700
Pr	Pr	0.76277 0.53767 0.02004 2.05200
O 	O 	0.72370 0.54330 0.93440 -0.52000
O 	O 	0.48510 0.50510 0.95150 -0.66200
C 	C 	0.56980 0.52600 0.92220 0.50800
C 	C 	0.47650 0.53370 0.87250 -0.49600
C 	C 	0.59760 0.58060 0.84570 0.10900
N 	N 	0.52340 0.59770 0.79550 -0.10200
C 	C 	0.49730 0.50940 0.76750 -0.05600
C 	C 	0.40890 0.53230 0.71790 -0.06300
C 	C 	0.35640 0.65000 0.78730 -0.06200
C 	C 	0.30910 0.68450 0.73710 -0.05800
C 	C 	0.64790 0.66020 0.77780 -0.06800
C 	C 	0.59610 0.66450 0.72540 -0.05200
N 	N 	0.41550 0.63500 0.70920 -0.10400
C 	C 	0.35370 0.65360 0.65850 0.11400
C 	C 	0.33910 0.75700 0.64620 -0.48300
C 	C 	0.29000 0.77330 0.59500 0.50100
O 	O 	0.24130 0.70810 0.56850 -0.34600
O 	O 	0.81120 0.64490 0.08270 -0.56800
O 	O 	0.73400 0.36290 0.01190 -0.53000
O 	O 	0.97530 0.40360 0.99540 -0.67100
C 	C 	0.87140 0.34220 0.00130 0.62100
C 	C 	0.91900 0.24300 0.99590 -0.65100
C 	C 	0.80730 0.17800 0.99120 1.08200
N 	N 	0.86370 0.07330 0.98950 -0.24300
C 	C 	0.95780 0.04330 0.03900 -0.00600
C 	C 	0.98630 0.05970 0.96030 -0.08000
C 	C 	0.69920 0.01320 0.97360 -0.03700
C 	C 	0.71820 0.91750 0.97080 -0.07300
N 	N 	0.09190 0.09560 0.01570 -0.19800
C 	C 	0.05730 0.20440 0.01630 0.86400
H 	H 	0.44450 0.47280 0.86010 0.17000
H 	H 	0.37680 0.57160 0.86990 0.16400
H 	H 	0.69420 0.54030 0.84820 -0.00200
H 	H 	0.63340 0.63930 0.86030 -0.00000
H 	H 	0.60510 0.48060 0.76820 0.04000
H 	H 	0.42750 0.46730 0.78020 0.03500
H 	H 	0.29240 0.51280 0.71230 0.04300
H 	H 	0.46490 0.49990 0.69740 0.04200
H 	H 	0.27000 0.60940 0.79360 0.03800
H 	H 	0.36890 0.70300 0.80750 0.04100
H 	H 	0.32400 0.75090 0.73590 0.03700
H 	H 	0.19230 0.66910 0.72440 0.03900
H 	H 	0.64800 0.72150 0.79080 0.04500
H 	H 	0.75950 0.63360 0.78690 0.04100
H 	H 	0.66710 0.62420 0.71210 0.04000
H 	H 	0.60770 0.72760 0.71570 0.03300
H 	H 	0.42790 0.62540 0.64130 -0.00300
H 	H 	0.24360 0.62550 0.64860 0.00000
H 	H 	0.25350 0.78420 0.65990 0.16900
H 	H 	0.44660 0.78590 0.65900 0.17400
H 	H 	0.96750 0.23950 0.96930 0.14300
H 	H 	0.00850 0.22790 0.02200 -0.23800
H 	H 	0.83380 0.20720 0.00610 -0.34300
H 	H 	0.90270 0.23180 0.96340 0.02600
H 	H 	0.74270 0.18350 0.01450 -0.17100
H 	H 	0.73200 0.19090 0.96200 -0.30800
H 	H 	0.05870 0.08030 0.04840 0.07600
H 	H 	0.88730 0.05350 0.06050 0.02500
H 	H 	0.86550 0.06780 0.95490 0.10600
H 	H 	0.02850 0.09420 0.93760 0.05200
H 	H 	0.60570 0.03220 0.98640 0.03500
H 	H 	0.66740 0.02480 0.94100 0.03000
H 	H 	0.66760 0.89650 0.99530 0.06700
H 	H 	0.66760 0.88420 0.94310 0.03800
H 	H 	0.14110 0.23240 0.00230 -0.25600
H 	H 	0.08320 0.22380 0.04800 -0.14800
