data_crystal

_cell_length_a 14.64900
_cell_length_b 13.47000
_cell_length_c 24.39900
_cell_angle_alpha 90.00000
_cell_angle_beta  106.60700
_cell_angle_gamma 90.00000

_symmetry_space_group_name_	'P 1'
_symmetry_space_group_name_H-M	'P 1'

loop_
_symmetry_equiv_pos_as_xyz
  x,y,z

loop_
_atom_site_label
_atom_site_type_symbol
_atom_site_fract_x
_atom_site_fract_y
_atom_site_fract_z
_atom_site_charge
C 	C 	0.33800 0.96430 0.35446 -0.00800
H 	H 	0.30060 0.92540 0.37110 0.00800
C 	C 	0.32050 0.98740 0.29869 -0.03100
H 	H 	0.26770 0.96610 0.26990 0.00600
C 	C 	0.45059 0.05950 0.34173 0.07600
H 	H 	0.50540 0.09820 0.34940 -0.01600
C 	C 	0.46396 0.00780 0.44241 0.01400
C 	C 	0.51220 0.92340 0.46587 -0.18800
H 	H 	0.51930 0.87190 0.44200 0.08900
C 	C 	0.44940 0.08610 0.47524 0.18200
C 	C 	0.39310 0.17610 0.45058 -0.67300
H 	H 	0.40930 0.19630 0.41680 0.21800
H 	H 	0.40760 0.22890 0.47820 0.21900
H 	H 	0.32640 0.16110 0.44090 0.21500
C 	C 	0.29926 0.96110 0.15311 0.00400
H 	H 	0.35590 0.92880 0.17130 0.00500
C 	C 	0.23350 0.92680 0.10641 -0.02100
H 	H 	0.23590 0.86830 0.08670 0.01900
C 	C 	0.18762 0.06800 0.13366 0.07300
H 	H 	0.15060 0.12350 0.13510 -0.03600
C 	C 	0.07952 0.99900 0.04500 0.01600
C 	C 	0.07180 0.07310 0.00508 0.17600
C 	C 	0.14630 0.15120 0.00862 -0.65400
H 	H 	0.14360 0.19910 0.03720 0.20700
H 	H 	0.13480 0.18360 0.97220 0.21000
H 	H 	0.20810 0.12080 0.01870 0.21000
C 	C 	0.01110 0.92810 0.04069 -0.18600
H 	H 	0.02000 0.87970 0.06890 0.08900
C 	C 	0.53515 0.05980 0.20479 0.09400
H 	H 	0.54380 0.01630 0.23540 -0.01800
C 	C 	0.55780 0.13820 0.13252 -0.01500
H 	H 	0.58340 0.16010 0.10390 0.01900
C 	C 	0.47890 0.17210 0.14327 -0.00600
H 	H 	0.43980 0.22190 0.12270 -0.01200
C 	C 	0.74960 0.01700 0.23009 -0.17900
H 	H 	0.73710 0.05270 0.25980 0.08800
C 	C 	0.68104 0.01130 0.17805 0.02200
C 	C 	0.69354 0.95750 0.13241 0.16300
C 	C 	0.78154 0.91190 0.14115 -0.17500
H 	H 	0.79360 0.87550 0.11160 0.08200
C 	C 	0.85123 0.91920 0.19248 0.02100
C 	C 	0.83720 0.97000 0.23882 0.16700
C 	C 	0.91250 0.97590 0.29574 -0.61900
H 	H 	0.92800 0.91010 0.31070 0.20200
H 	H 	0.88890 0.01420 0.32190 0.19700
H 	H 	0.96860 0.00700 0.29080 0.19800
C 	C 	0.61760 0.94470 0.07591 -0.62100
H 	H 	0.55630 0.93920 0.08260 0.20300
H 	H 	0.63020 0.88570 0.05730 0.19500
H 	H 	0.61800 0.00120 0.05200 0.19700
C 	C 	0.96934 0.78380 0.22111 0.08600
H 	H 	0.92930 0.73990 0.23250 -0.01300
C 	C 	0.01910 0.91480 0.18734 -0.01300
H 	H 	0.02230 0.97700 0.17150 0.02900
C 	C 	0.09030 0.84770 0.20411 -0.01400
H 	H 	0.15180 0.85640 0.20130 -0.00000
N 	N 	0.05894 0.76547 0.22567 -0.25600
N 	N 	0.94199 0.87281 0.19832 -0.12900
N 	N 	0.59377 0.06539 0.17167 -0.12900
N 	N 	0.46429 0.12272 0.18907 -0.24800
N 	N 	0.39178 0.04695 0.29037 -0.24200
N 	N 	0.42240 0.01022 0.38168 -0.12900
N 	N 	0.27109 0.04970 0.16999 -0.25300
N 	N 	0.16259 0.99606 0.09409 -0.12500
Ni	Ni	0.35576 0.15309 0.22604 1.01000
C 	C 	0.16200 0.46430 0.14554 -0.00900
H 	H 	0.19940 0.42540 0.12890 0.00700
C 	C 	0.17950 0.48740 0.20131 -0.03200
H 	H 	0.23230 0.46610 0.23010 0.00500
C 	C 	0.04941 0.55950 0.15827 0.07600
H 	H 	0.99460 0.59820 0.15060 -0.01600
C 	C 	0.03604 0.50780 0.05759 0.01500
C 	C 	0.98780 0.42340 0.03413 -0.18900
H 	H 	0.98070 0.37190 0.05800 0.08900
C 	C 	0.05060 0.58610 0.02476 0.18200
C 	C 	0.10690 0.67610 0.04942 -0.67300
H 	H 	0.09070 0.69630 0.08320 0.21800
H 	H 	0.09240 0.72890 0.02180 0.21900
H 	H 	0.17360 0.66110 0.05910 0.21500
C 	C 	0.20074 0.46110 0.34689 0.00400
H 	H 	0.14410 0.42880 0.32870 0.00500
C 	C 	0.26650 0.42680 0.39359 -0.02100
H 	H 	0.26410 0.36830 0.41330 0.01900
C 	C 	0.31238 0.56800 0.36634 0.07300
H 	H 	0.34940 0.62350 0.36490 -0.03600
C 	C 	0.42048 0.49900 0.45500 0.01700
C 	C 	0.42820 0.57310 0.49492 0.17400
C 	C 	0.35370 0.65120 0.49138 -0.65000
H 	H 	0.35640 0.69910 0.46280 0.20600
H 	H 	0.36520 0.68360 0.52780 0.20900
H 	H 	0.29190 0.62080 0.48130 0.20900
C 	C 	0.48890 0.42810 0.45931 -0.18400
H 	H 	0.48000 0.37970 0.43110 0.08900
C 	C 	0.96485 0.55980 0.29521 0.09400
H 	H 	0.95620 0.51630 0.26460 -0.01800
C 	C 	0.94220 0.63820 0.36748 -0.01400
H 	H 	0.91660 0.66010 0.39610 0.01900
C 	C 	0.02110 0.67210 0.35673 -0.00700
H 	H 	0.06020 0.72190 0.37730 -0.01200
C 	C 	0.75040 0.51700 0.26991 -0.18100
H 	H 	0.76290 0.55270 0.24020 0.08900
C 	C 	0.81896 0.51130 0.32195 0.02500
C 	C 	0.80646 0.45750 0.36759 0.16100
C 	C 	0.71846 0.41190 0.35885 -0.17300
H 	H 	0.70640 0.37550 0.38840 0.08100
C 	C 	0.64877 0.41920 0.30752 0.01900
C 	C 	0.66280 0.47000 0.26118 0.17200
C 	C 	0.58750 0.47590 0.20426 -0.63900
H 	H 	0.57200 0.41010 0.18930 0.20700
H 	H 	0.61110 0.51420 0.17810 0.20400
H 	H 	0.53140 0.50700 0.20920 0.20600
C 	C 	0.88240 0.44470 0.42409 -0.62400
H 	H 	0.94370 0.43920 0.41740 0.20400
H 	H 	0.86980 0.38570 0.44270 0.19600
H 	H 	0.88200 0.50120 0.44800 0.20000
C 	C 	0.53066 0.28380 0.27889 0.08400
H 	H 	0.57070 0.23990 0.26750 -0.01300
C 	C 	0.48090 0.41480 0.31266 -0.01200
H 	H 	0.47770 0.47700 0.32850 0.02900
C 	C 	0.40970 0.34770 0.29589 -0.01500
H 	H 	0.34820 0.35640 0.29870 -0.00000
N 	N 	0.44106 0.26547 0.27433 -0.25500
N 	N 	0.55801 0.37281 0.30168 -0.12900
N 	N 	0.90623 0.56539 0.32833 -0.13000
N 	N 	0.03571 0.62272 0.31093 -0.24800
N 	N 	0.10822 0.54695 0.20963 -0.24200
N 	N 	0.07760 0.51022 0.11832 -0.12900
N 	N 	0.22891 0.54970 0.33001 -0.25300
N 	N 	0.33741 0.49606 0.40591 -0.12500
Ni	Ni	0.14424 0.65309 0.27395 1.01000
C 	C 	0.66200 0.03570 0.64554 -0.00900
H 	H 	0.69940 0.07460 0.62890 0.00700
C 	C 	0.67950 0.01260 0.70131 -0.03200
H 	H 	0.73230 0.03390 0.73010 0.00500
C 	C 	0.54941 0.94050 0.65827 0.07600
H 	H 	0.49460 0.90180 0.65060 -0.01600
C 	C 	0.53604 0.99220 0.55759 0.01400
C 	C 	0.48780 0.07660 0.53413 -0.18800
H 	H 	0.48070 0.12810 0.55800 0.08900
C 	C 	0.55060 0.91390 0.52476 0.18200
C 	C 	0.60690 0.82390 0.54942 -0.67300
H 	H 	0.59070 0.80370 0.58320 0.21800
H 	H 	0.59240 0.77110 0.52180 0.21900
H 	H 	0.67360 0.83890 0.55910 0.21500
C 	C 	0.70074 0.03890 0.84689 0.00400
H 	H 	0.64410 0.07120 0.82870 0.00500
C 	C 	0.76650 0.07320 0.89359 -0.02100
H 	H 	0.76410 0.13170 0.91330 0.01900
C 	C 	0.81238 0.93200 0.86634 0.07300
H 	H 	0.84940 0.87650 0.86490 -0.03600
C 	C 	0.92048 0.00100 0.95500 0.01600
C 	C 	0.92820 0.92690 0.99492 0.17600
C 	C 	0.85370 0.84880 0.99138 -0.65400
H 	H 	0.85640 0.80090 0.96280 0.20700
H 	H 	0.86520 0.81640 0.02780 0.21000
H 	H 	0.79190 0.87920 0.98130 0.21000
C 	C 	0.98890 0.07190 0.95931 -0.18600
H 	H 	0.98000 0.12030 0.93110 0.08900
C 	C 	0.46485 0.94020 0.79521 0.09400
H 	H 	0.45620 0.98370 0.76460 -0.01800
C 	C 	0.44220 0.86180 0.86748 -0.01500
H 	H 	0.41660 0.83990 0.89610 0.01900
C 	C 	0.52110 0.82790 0.85673 -0.00600
H 	H 	0.56020 0.77810 0.87730 -0.01200
C 	C 	0.25040 0.98300 0.76991 -0.17900
H 	H 	0.26290 0.94730 0.74020 0.08800
C 	C 	0.31896 0.98870 0.82195 0.02200
C 	C 	0.30646 0.04250 0.86759 0.16300
C 	C 	0.21846 0.08810 0.85885 -0.17500
H 	H 	0.20640 0.12450 0.88840 0.08200
C 	C 	0.14877 0.08080 0.80752 0.02100
C 	C 	0.16280 0.03000 0.76118 0.16700
C 	C 	0.08750 0.02410 0.70426 -0.61900
H 	H 	0.07200 0.08990 0.68930 0.20200
H 	H 	0.11110 0.98580 0.67810 0.19700
H 	H 	0.03140 0.99300 0.70920 0.19800
C 	C 	0.38240 0.05530 0.92409 -0.62100
H 	H 	0.44370 0.06080 0.91740 0.20300
H 	H 	0.36980 0.11430 0.94270 0.19500
H 	H 	0.38200 0.99880 0.94800 0.19700
C 	C 	0.03066 0.21620 0.77889 0.08600
H 	H 	0.07070 0.26010 0.76750 -0.01300
C 	C 	0.98090 0.08520 0.81266 -0.01300
H 	H 	0.97770 0.02300 0.82850 0.02900
C 	C 	0.90970 0.15230 0.79589 -0.01400
H 	H 	0.84820 0.14360 0.79870 -0.00000
N 	N 	0.94106 0.23453 0.77433 -0.25600
N 	N 	0.05801 0.12719 0.80168 -0.12900
N 	N 	0.40623 0.93461 0.82833 -0.12900
N 	N 	0.53571 0.87728 0.81093 -0.24800
N 	N 	0.60822 0.95305 0.70963 -0.24200
N 	N 	0.57760 0.98978 0.61832 -0.12900
N 	N 	0.72891 0.95030 0.83001 -0.25300
N 	N 	0.83741 0.00394 0.90591 -0.12500
Ni	Ni	0.64424 0.84691 0.77395 1.01000
C 	C 	0.83800 0.53570 0.85446 -0.00900
H 	H 	0.80060 0.57460 0.87110 0.00700
C 	C 	0.82050 0.51260 0.79869 -0.03200
H 	H 	0.76770 0.53390 0.76990 0.00500
C 	C 	0.95059 0.44050 0.84173 0.07600
H 	H 	0.00540 0.40180 0.84940 -0.01600
C 	C 	0.96396 0.49220 0.94241 0.01500
C 	C 	0.01220 0.57660 0.96587 -0.18900
H 	H 	0.01930 0.62810 0.94200 0.08900
C 	C 	0.94940 0.41390 0.97524 0.18200
C 	C 	0.89310 0.32390 0.95058 -0.67300
H 	H 	0.90930 0.30370 0.91680 0.21800
H 	H 	0.90760 0.27110 0.97820 0.21900
H 	H 	0.82640 0.33890 0.94090 0.21500
C 	C 	0.79926 0.53890 0.65311 0.00400
H 	H 	0.85590 0.57120 0.67130 0.00500
C 	C 	0.73350 0.57320 0.60641 -0.02100
H 	H 	0.73590 0.63170 0.58670 0.01900
C 	C 	0.68762 0.43200 0.63366 0.07300
H 	H 	0.65060 0.37650 0.63510 -0.03600
C 	C 	0.57952 0.50100 0.54500 0.01700
C 	C 	0.57180 0.42690 0.50508 0.17400
C 	C 	0.64630 0.34880 0.50862 -0.65000
H 	H 	0.64360 0.30090 0.53720 0.20600
H 	H 	0.63480 0.31640 0.47220 0.20900
H 	H 	0.70810 0.37920 0.51870 0.20900
C 	C 	0.51110 0.57190 0.54069 -0.18400
H 	H 	0.52000 0.62030 0.56890 0.08900
C 	C 	0.03515 0.44020 0.70479 0.09400
H 	H 	0.04380 0.48370 0.73540 -0.01800
C 	C 	0.05780 0.36180 0.63252 -0.01400
H 	H 	0.08340 0.33990 0.60390 0.01900
C 	C 	0.97890 0.32790 0.64327 -0.00700
H 	H 	0.93980 0.27810 0.62270 -0.01200
C 	C 	0.24960 0.48300 0.73009 -0.18100
H 	H 	0.23710 0.44730 0.75980 0.08900
C 	C 	0.18104 0.48870 0.67805 0.02500
C 	C 	0.19354 0.54250 0.63241 0.16100
C 	C 	0.28154 0.58810 0.64115 -0.17300
H 	H 	0.29360 0.62450 0.61160 0.08100
C 	C 	0.35123 0.58080 0.69248 0.01900
C 	C 	0.33720 0.53000 0.73882 0.17200
C 	C 	0.41250 0.52410 0.79574 -0.63900
H 	H 	0.42800 0.58990 0.81070 0.20700
H 	H 	0.38890 0.48580 0.82190 0.20400
H 	H 	0.46860 0.49300 0.79080 0.20600
C 	C 	0.11760 0.55530 0.57591 -0.62400
H 	H 	0.05630 0.56080 0.58260 0.20400
H 	H 	0.13020 0.61430 0.55730 0.19600
H 	H 	0.11800 0.49880 0.55200 0.20000
C 	C 	0.46934 0.71620 0.72111 0.08400
H 	H 	0.42930 0.76010 0.73250 -0.01300
C 	C 	0.51910 0.58520 0.68734 -0.01200
H 	H 	0.52230 0.52300 0.67150 0.02900
C 	C 	0.59030 0.65230 0.70411 -0.01500
H 	H 	0.65180 0.64360 0.70130 -0.00000
N 	N 	0.55894 0.73453 0.72567 -0.25500
N 	N 	0.44199 0.62719 0.69832 -0.12900
N 	N 	0.09377 0.43461 0.67167 -0.13000
N 	N 	0.96429 0.37728 0.68907 -0.24800
N 	N 	0.89178 0.45305 0.79037 -0.24200
N 	N 	0.92240 0.48978 0.88168 -0.12900
N 	N 	0.77109 0.45030 0.66999 -0.25300
N 	N 	0.66259 0.50394 0.59409 -0.12500
Ni	Ni	0.85576 0.34691 0.72604 1.01000
