data_crystal

_cell_length_a 8.71730
_cell_length_b 19.42880
_cell_length_c 9.65580
_cell_angle_alpha 90.00000
_cell_angle_beta  97.17000
_cell_angle_gamma 90.00000

_symmetry_space_group_name_	'P 1'
_symmetry_space_group_name_H-M	'P 1'

loop_
_symmetry_equiv_pos_as_xyz
  x,y,z

loop_
_atom_site_label
_atom_site_type_symbol
_atom_site_fract_x
_atom_site_fract_y
_atom_site_fract_z
_atom_site_charge
C 	C 	0.04130 0.93030 0.52280 -0.07400
C 	C 	0.90620 0.95560 0.57140 0.00100
C 	C 	0.86890 0.02510 0.54730 -0.04100
H 	H 	0.77850 0.04270 0.58020 0.05000
C 	C 	0.10290 0.85800 0.54970 0.30300
C 	C 	0.57020 0.84380 0.77030 -0.15100
C 	C 	0.61270 0.82090 0.64300 0.05500
H 	H 	0.56390 0.78160 0.59880 -0.00900
C 	C 	0.72460 0.85520 0.58130 -0.11900
H 	H 	0.75340 0.83860 0.49560 0.06800
C 	C 	0.79710 0.91430 0.64300 0.06400
C 	C 	0.75400 0.93660 0.76910 -0.12600
H 	H 	0.80050 0.97670 0.81240 0.05600
C 	C 	0.64270 0.90080 0.83330 0.05200
H 	H 	0.61690 0.91590 0.92110 0.01500
C 	C 	0.45140 0.80450 0.84050 0.38200
Cd	Cd	0.24810 0.73026 0.55894 1.19600
O 	O 	0.19900 0.83660 0.47100 -0.42200
O 	O 	0.06190 0.82170 0.64490 -0.37700
O 	O 	0.43550 0.82210 0.96390 -0.45000
O 	O 	0.37570 0.75770 0.77530 -0.47300
C 	C 	0.95870 0.43030 0.97720 -0.08100
C 	C 	0.09380 0.45560 0.92860 0.00700
C 	C 	0.13110 0.52510 0.95270 -0.03500
H 	H 	0.22150 0.54270 0.91980 0.04900
C 	C 	0.89710 0.35800 0.95030 0.29900
C 	C 	0.42980 0.34380 0.72970 -0.15200
C 	C 	0.38730 0.32090 0.85700 0.05400
H 	H 	0.43610 0.28160 0.90120 -0.00900
C 	C 	0.27540 0.35520 0.91870 -0.11600
H 	H 	0.24660 0.33860 0.00440 0.06700
C 	C 	0.20290 0.41430 0.85700 0.06300
C 	C 	0.24600 0.43660 0.73090 -0.12600
H 	H 	0.19950 0.47670 0.68760 0.05600
C 	C 	0.35730 0.40080 0.66670 0.05200
H 	H 	0.38310 0.41590 0.57890 0.01400
C 	C 	0.54860 0.30450 0.65950 0.38300
Cd	Cd	0.75190 0.23026 0.94106 1.19500
O 	O 	0.80100 0.33660 0.02900 -0.41700
O 	O 	0.93810 0.32170 0.85510 -0.37800
O 	O 	0.56450 0.32210 0.53610 -0.45200
O 	O 	0.62430 0.25770 0.72470 -0.47400
C 	C 	0.95870 0.06970 0.47720 -0.07300
C 	C 	0.09380 0.04440 0.42860 0.00200
C 	C 	0.13110 0.97490 0.45270 -0.04100
H 	H 	0.22150 0.95730 0.41980 0.05000
C 	C 	0.89710 0.14200 0.45030 0.30300
C 	C 	0.42980 0.15620 0.22970 -0.15100
C 	C 	0.38730 0.17910 0.35700 0.05500
H 	H 	0.43610 0.21840 0.40120 -0.00900
C 	C 	0.27540 0.14480 0.41870 -0.11900
H 	H 	0.24660 0.16140 0.50440 0.06800
C 	C 	0.20290 0.08570 0.35700 0.06400
C 	C 	0.24600 0.06340 0.23090 -0.12600
H 	H 	0.19950 0.02330 0.18760 0.05600
C 	C 	0.35730 0.09920 0.16670 0.05200
H 	H 	0.38310 0.08410 0.07890 0.01500
C 	C 	0.54860 0.19550 0.15950 0.38200
Cd	Cd	0.75190 0.26974 0.44106 1.19600
O 	O 	0.80100 0.16340 0.52900 -0.42200
O 	O 	0.93810 0.17830 0.35510 -0.37700
O 	O 	0.56450 0.17790 0.03610 -0.45000
O 	O 	0.62430 0.24230 0.22470 -0.47300
C 	C 	0.04130 0.56970 0.02280 -0.08100
C 	C 	0.90620 0.54440 0.07140 0.00700
C 	C 	0.86890 0.47490 0.04730 -0.03500
H 	H 	0.77850 0.45730 0.08020 0.04900
C 	C 	0.10290 0.64200 0.04970 0.29900
C 	C 	0.57020 0.65620 0.27030 -0.15200
C 	C 	0.61270 0.67910 0.14300 0.05400
H 	H 	0.56390 0.71840 0.09880 -0.00900
C 	C 	0.72460 0.64480 0.08130 -0.11600
H 	H 	0.75340 0.66140 0.99560 0.06700
C 	C 	0.79710 0.58570 0.14300 0.06300
C 	C 	0.75400 0.56340 0.26910 -0.12600
H 	H 	0.80050 0.52330 0.31240 0.05600
C 	C 	0.64270 0.59920 0.33330 0.05200
H 	H 	0.61690 0.58410 0.42110 0.01400
C 	C 	0.45140 0.69550 0.34050 0.38300
Cd	Cd	0.24810 0.76974 0.05894 1.19500
O 	O 	0.19900 0.66340 0.97100 -0.41700
O 	O 	0.06190 0.67830 0.14490 -0.37800
O 	O 	0.43550 0.67790 0.46390 -0.45200
O 	O 	0.37570 0.74230 0.27530 -0.47400
