data_crystal

_cell_length_a 15.21600
_cell_length_b 15.21600
_cell_length_c 18.65000
_cell_angle_alpha 90.00000
_cell_angle_beta  90.00000
_cell_angle_gamma 120.00000

_symmetry_space_group_name_	'P 1'
_symmetry_space_group_name_H-M	'P 1'

loop_
_symmetry_equiv_pos_as_xyz
  x,y,z

loop_
_atom_site_label
_atom_site_type_symbol
_atom_site_fract_x
_atom_site_fract_y
_atom_site_fract_z
_atom_site_charge
N 	N 	0.97140 0.60220 0.72700 -0.12700
N 	N 	0.89120 0.79340 0.91190 -0.20900
C 	C 	0.97500 0.69150 0.72460 0.12900
C 	C 	0.92230 0.84950 0.85200 0.09000
H 	H 	0.92490 0.91310 0.85170 0.04300
C 	C 	0.95060 0.81970 0.79100 -0.11200
H 	H 	0.97130 0.86160 0.74960 0.11500
C 	C 	0.94870 0.72880 0.79050 0.06600
C 	C 	0.91560 0.66820 0.85180 -0.11000
H 	H 	0.91090 0.60350 0.85290 0.09300
C 	C 	0.88990 0.70560 0.91090 0.08900
H 	H 	0.87000 0.66590 0.95340 0.02700
C 	C 	0.96720 0.41610 0.72710 -0.08100
H 	H 	0.94370 0.43400 0.76880 0.08400
C 	C 	0.97010 0.32570 0.72410 0.08900
H 	H 	0.94960 0.28310 0.76520 0.01800
O 	O 	0.22040 0.12750 0.39780 -0.25500
N 	N 	0.13720 0.13110 0.39610 -0.13800
O 	O 	0.06140 0.06070 0.35980 -0.21000
O 	O 	0.12810 0.19880 0.42480 -0.12800
N 	N 	0.82580 0.99980 0.93040 0.15800
O 	O 	0.91560 0.04320 0.94060 0.02000
O 	O 	0.78250 0.04760 0.91150 -0.07700
N 	N 	0.39780 0.36920 0.06033 -0.13700
N 	N 	0.20660 0.09780 0.24523 -0.22100
C 	C 	0.30850 0.28350 0.05793 0.10200
C 	C 	0.15050 0.07280 0.18533 0.08200
H 	H 	0.08690 0.01180 0.18503 0.02300
C 	C 	0.18030 0.13090 0.12433 -0.12100
H 	H 	0.13840 0.10970 0.08293 0.09500
C 	C 	0.27120 0.21990 0.12383 0.06100
C 	C 	0.33180 0.24740 0.18513 -0.11800
H 	H 	0.39650 0.30740 0.18623 0.08700
C 	C 	0.29440 0.18430 0.24423 0.08100
H 	H 	0.33410 0.20410 0.28673 0.01400
C 	C 	0.58390 0.55110 0.06043 -0.09600
H 	H 	0.56600 0.50970 0.10213 0.08000
C 	C 	0.67430 0.64440 0.05743 0.06100
H 	H 	0.71690 0.66650 0.09853 0.01900
O 	O 	0.87250 0.09290 0.73113 -0.24000
N 	N 	0.86890 0.00610 0.72943 -0.19700
O 	O 	0.93930 0.00070 0.69313 -0.20600
O 	O 	0.80120 0.92930 0.75813 -0.13500
N 	N 	0.00020 0.82600 0.26373 0.19800
O 	O 	0.95680 0.87240 0.27393 0.13900
O 	O 	0.95240 0.73490 0.24483 -0.06600
N 	N 	0.63080 0.02860 0.39367 -0.13700
N 	N 	0.90220 0.10880 0.57857 -0.21200
C 	C 	0.71650 0.02500 0.39127 0.10600
C 	C 	0.92720 0.07770 0.51867 0.08800
H 	H 	0.98820 0.07510 0.51837 0.04400
C 	C 	0.86910 0.04940 0.45767 -0.11700
H 	H 	0.89030 0.02870 0.41627 0.10900
C 	C 	0.78010 0.05130 0.45717 0.06500
C 	C 	0.75260 0.08440 0.51847 -0.11600
H 	H 	0.69260 0.08910 0.51957 0.08700
C 	C 	0.81570 0.11010 0.57757 0.08500
H 	H 	0.79590 0.13000 0.62007 0.01500
C 	C 	0.44890 0.03280 0.39377 -0.10000
H 	H 	0.49030 0.05630 0.43547 0.08100
C 	C 	0.35560 0.02990 0.39077 0.06300
H 	H 	0.33350 0.05040 0.43187 0.01600
O 	O 	0.90710 0.77960 0.06447 -0.25800
N 	N 	0.99390 0.86280 0.06277 -0.09700
O 	O 	0.99930 0.93860 0.02647 -0.18900
O 	O 	0.07070 0.87190 0.09147 -0.10800
N 	N 	0.17400 0.17420 0.59707 0.17900
O 	O 	0.12760 0.08440 0.60727 0.07700
O 	O 	0.26510 0.21750 0.57817 -0.07400
N 	N 	0.60220 0.97140 0.27300 -0.12900
N 	N 	0.79340 0.89120 0.08810 -0.22100
C 	C 	0.69150 0.97500 0.27540 0.12700
C 	C 	0.84950 0.92230 0.14800 0.08600
H 	H 	0.91310 0.92490 0.14830 0.04100
C 	C 	0.81970 0.95060 0.20900 -0.11400
H 	H 	0.86160 0.97130 0.25040 0.11400
C 	C 	0.72880 0.94870 0.20950 0.06400
C 	C 	0.66820 0.91560 0.14820 -0.11500
H 	H 	0.60350 0.91090 0.14710 0.08700
C 	C 	0.70560 0.88990 0.08910 0.08400
H 	H 	0.66590 0.87000 0.04660 0.00800
C 	C 	0.41610 0.96720 0.27290 -0.08200
H 	H 	0.43400 0.94370 0.23120 0.07900
C 	C 	0.32570 0.97010 0.27590 0.08700
H 	H 	0.28310 0.94960 0.23480 0.01500
O 	O 	0.12750 0.22040 0.60220 -0.25400
N 	N 	0.13110 0.13720 0.60390 -0.13900
O 	O 	0.06070 0.06140 0.64020 -0.21000
O 	O 	0.19880 0.12810 0.57520 -0.12800
N 	N 	0.99980 0.82580 0.06960 0.16200
O 	O 	0.04320 0.91560 0.05940 0.03400
O 	O 	0.04760 0.78250 0.08850 -0.09000
N 	N 	0.36920 0.39780 0.93967 -0.12500
N 	N 	0.09780 0.20660 0.75477 -0.22000
C 	C 	0.28350 0.30850 0.94207 0.13500
C 	C 	0.07280 0.15050 0.81467 0.08400
H 	H 	0.01180 0.08690 0.81497 0.02300
C 	C 	0.13090 0.18030 0.87567 -0.11600
H 	H 	0.10970 0.13840 0.91707 0.10500
C 	C 	0.21990 0.27120 0.87617 0.05900
C 	C 	0.24740 0.33180 0.81487 -0.11300
H 	H 	0.30740 0.39650 0.81377 0.08900
C 	C 	0.18430 0.29440 0.75577 0.08200
H 	H 	0.20410 0.33410 0.71327 0.01500
C 	C 	0.55110 0.58390 0.93957 -0.06900
H 	H 	0.50970 0.56600 0.89787 0.07900
C 	C 	0.64440 0.67430 0.94257 0.09400
H 	H 	0.66650 0.71690 0.90147 0.01500
O 	O 	0.09290 0.87250 0.26887 -0.24200
N 	N 	0.00610 0.86890 0.27057 -0.19100
O 	O 	0.00070 0.93930 0.30687 -0.20400
O 	O 	0.92930 0.80120 0.24187 -0.13400
N 	N 	0.82600 0.00020 0.73627 0.19900
O 	O 	0.87240 0.95680 0.72607 0.14600
O 	O 	0.73490 0.95240 0.75517 -0.06100
N 	N 	0.02860 0.63080 0.60633 -0.13700
N 	N 	0.10880 0.90220 0.42143 -0.21200
C 	C 	0.02500 0.71650 0.60873 0.10700
C 	C 	0.07770 0.92720 0.48133 0.08800
H 	H 	0.07510 0.98820 0.48163 0.04400
C 	C 	0.04940 0.86910 0.54233 -0.11600
H 	H 	0.02870 0.89030 0.58373 0.10900
C 	C 	0.05130 0.78010 0.54283 0.06500
C 	C 	0.08440 0.75260 0.48153 -0.11600
H 	H 	0.08910 0.69260 0.48043 0.08700
C 	C 	0.11010 0.81570 0.42243 0.08500
H 	H 	0.13000 0.79590 0.37993 0.01400
C 	C 	0.03280 0.44890 0.60623 -0.10000
H 	H 	0.05630 0.49030 0.56453 0.08100
C 	C 	0.02990 0.35560 0.60923 0.06400
H 	H 	0.05040 0.33350 0.56813 0.01500
O 	O 	0.77960 0.90710 0.93553 -0.23800
N 	N 	0.86280 0.99390 0.93723 -0.08700
O 	O 	0.93860 0.99930 0.97353 -0.14800
O 	O 	0.87190 0.07070 0.90853 -0.09900
N 	N 	0.17420 0.17400 0.40293 0.17900
O 	O 	0.08440 0.12760 0.39273 0.07600
O 	O 	0.21750 0.26510 0.42183 -0.07500
Ni	Ni	0.16166 -0.00000 0.33333 1.10100
Ni	Ni	-0.00000 0.16166 0.66667 1.10100
Ni	Ni	0.83834 0.83834 -0.00000 1.09500
N 	N 	-0.00000 0.75070 0.66667 -0.14400
N 	N 	-0.00000 0.29720 0.66667 -0.24500
C 	C 	-0.00000 0.57650 0.66667 0.10100
C 	C 	-0.00000 0.47950 0.66667 0.02600
N 	N 	0.24930 0.24930 -0.00000 -0.15500
N 	N 	0.70280 0.70280 -0.00000 -0.25000
C 	C 	0.42350 0.42350 -0.00000 0.09200
C 	C 	0.52050 0.52050 -0.00000 0.01400
N 	N 	0.75070 -0.00000 0.33333 -0.14400
N 	N 	0.29720 -0.00000 0.33333 -0.24500
C 	C 	0.57650 -0.00000 0.33333 0.10000
C 	C 	0.47950 -0.00000 0.33333 0.02500
