data_crystal

_cell_length_a 6.19830
_cell_length_b 15.00700
_cell_length_c 16.53170
_cell_angle_alpha 90.00000
_cell_angle_beta  90.00000
_cell_angle_gamma 90.00000

_symmetry_space_group_name_	'P 1'
_symmetry_space_group_name_H-M	'P 1'

loop_
_symmetry_equiv_pos_as_xyz
  x,y,z

loop_
_atom_site_label
_atom_site_type_symbol
_atom_site_fract_x
_atom_site_fract_y
_atom_site_fract_z
_atom_site_charge
Cd	Cd	0.59273 0.29166 0.35535 1.18500
Cd	Cd	0.40727 0.79166 0.14465 1.18500
Cd	Cd	0.90727 0.70834 0.85535 1.18300
Cd	Cd	0.09273 0.20834 0.64465 1.18300
H 	H 	0.63680 0.10810 0.25230 0.05900
H 	H 	0.46460 0.29870 0.68050 0.05800
H 	H 	0.09270 0.02610 0.74540 -0.04400
H 	H 	0.59270 0.47390 0.25460 -0.04400
H 	H 	0.41300 0.15600 0.45310 0.25000
H 	H 	0.09790 0.47330 0.62650 -0.02900
H 	H 	0.04450 0.38710 0.39700 -0.02800
H 	H 	0.11860 0.45220 0.53380 -0.02800
H 	H 	0.80320 0.59140 0.21200 0.09400
H 	H 	0.38140 0.54780 0.03380 -0.02900
H 	H 	0.88140 0.95220 0.96620 -0.02800
H 	H 	0.53540 0.79870 0.81950 0.05800
H 	H 	0.54820 0.92480 0.89060 0.10700
H 	H 	0.69680 0.40860 0.71200 0.09300
H 	H 	0.59790 0.02670 0.37350 -0.03000
H 	H 	0.21890 0.67680 0.29370 0.03200
H 	H 	0.96460 0.20130 0.31950 0.05900
H 	H 	0.77400 0.00210 0.64520 0.08300
H 	H 	0.40210 0.52670 0.12650 -0.03000
H 	H 	0.13680 0.39190 0.74770 0.05800
H 	H 	0.28110 0.32320 0.79370 0.03200
H 	H 	0.71890 0.82320 0.70630 0.03100
H 	H 	0.40730 0.97390 0.24540 -0.04600
H 	H 	0.27400 0.49790 0.35480 0.08500
H 	H 	0.19680 0.09140 0.28800 0.09600
H 	H 	0.30320 0.90860 0.78800 0.09300
H 	H 	0.08700 0.84400 0.95310 0.25000
H 	H 	0.03540 0.70130 0.18050 0.05800
H 	H 	0.95180 0.07520 0.39060 0.10800
H 	H 	0.91300 0.34400 0.54690 0.25000
H 	H 	0.58700 0.65600 0.04690 0.25000
H 	H 	0.72600 0.99790 0.14520 0.08600
H 	H 	0.90210 0.97330 0.87350 -0.02900
H 	H 	0.04820 0.57520 0.10940 0.10700
H 	H 	0.78110 0.17680 0.20630 0.03300
H 	H 	0.45550 0.61290 0.89700 -0.02300
H 	H 	0.95550 0.88710 0.10300 -0.02800
H 	H 	0.22600 0.50210 0.85480 0.08300
H 	H 	0.45180 0.42480 0.60940 0.10700
H 	H 	0.54450 0.11290 0.60300 -0.02300
H 	H 	0.36320 0.60810 0.24770 0.05800
H 	H 	0.61860 0.04780 0.46620 -0.02900
H 	H 	0.86320 0.89190 0.75230 0.05700
H 	H 	0.90730 0.52610 0.75460 -0.04400
C 	C 	0.73160 0.47920 0.27530 0.09100
C 	C 	0.11840 0.42580 0.58740 0.18800
C 	C 	0.00340 0.92750 0.14170 0.09500
C 	C 	0.89010 0.17870 0.47220 0.37600
C 	C 	0.71810 0.86790 0.74870 -0.16700
C 	C 	0.88160 0.92580 0.91260 0.18600
C 	C 	0.66070 0.87950 0.89700 -0.22000
C 	C 	0.63530 0.00530 0.66650 -0.20700
C 	C 	0.49660 0.07250 0.64170 0.08500
C 	C 	0.64210 0.45010 0.74840 -0.20200
C 	C 	0.38160 0.57420 0.08740 0.19100
C 	C 	0.43200 0.44290 0.77730 0.13800
C 	C 	0.14210 0.04990 0.25160 -0.21200
C 	C 	0.35790 0.95010 0.75160 -0.20000
C 	C 	0.93200 0.05710 0.22270 0.14700
C 	C 	0.06800 0.55710 0.27730 0.14000
C 	C 	0.56800 0.94290 0.72270 0.13600
C 	C 	0.86470 0.99470 0.16650 -0.21900
C 	C 	0.33930 0.37950 0.60300 -0.22100
C 	C 	0.36470 0.50530 0.83350 -0.20800
C 	C 	0.85790 0.54990 0.24840 -0.20300
C 	C 	0.13530 0.49470 0.33350 -0.21500
C 	C 	0.26840 0.97920 0.22470 0.09600
C 	C 	0.21810 0.63210 0.25130 -0.17000
C 	C 	0.10990 0.67870 0.02780 0.37400
C 	C 	0.61840 0.07420 0.41260 0.19100
C 	C 	0.23160 0.02080 0.72470 0.08800
C 	C 	0.28190 0.36790 0.75130 -0.16800
C 	C 	0.39010 0.32130 0.52780 0.37500
C 	C 	0.99660 0.42750 0.35830 0.09400
C 	C 	0.16070 0.62050 0.10300 -0.22100
C 	C 	0.60990 0.82130 0.97220 0.37400
C 	C 	0.83930 0.12050 0.39700 -0.22200
C 	C 	0.50340 0.57250 0.85830 0.08600
C 	C 	0.76840 0.52080 0.77530 0.09000
C 	C 	0.78190 0.13210 0.24870 -0.17300
N 	N 	0.79800 0.41840 0.32900 -0.26200
N 	N 	0.70200 0.58160 0.82900 -0.26100
N 	N 	0.66830 0.82370 0.82510 -0.20200
N 	N 	0.29800 0.08160 0.67100 -0.26000
N 	N 	0.33170 0.32370 0.67490 -0.20100
N 	N 	0.16830 0.67630 0.17490 -0.20100
N 	N 	0.83170 0.17630 0.32510 -0.20000
N 	N 	0.20200 0.91840 0.17100 -0.26300
O 	O 	0.13980 0.76050 0.03470 -0.42600
O 	O 	0.05380 0.86420 0.90650 -0.48900
O 	O 	0.44980 0.36110 0.46530 -0.43900
O 	O 	0.44620 0.13580 0.40650 -0.49300
O 	O 	0.63980 0.73950 0.96530 -0.42700
O 	O 	0.55020 0.86110 0.03470 -0.43900
O 	O 	0.55380 0.63580 0.09350 -0.49300
O 	O 	0.36020 0.23950 0.53470 -0.42700
O 	O 	0.94980 0.13890 0.53470 -0.43700
O 	O 	0.05020 0.63890 0.96530 -0.43600
O 	O 	0.94620 0.36420 0.59350 -0.49000
O 	O 	0.86020 0.26050 0.46530 -0.42600
