data_crystal

_cell_length_a 13.51800
_cell_length_b 13.51800
_cell_length_c 26.42000
_cell_angle_alpha 90.00000
_cell_angle_beta  90.00000
_cell_angle_gamma 90.00000

_symmetry_space_group_name_	'P 1'
_symmetry_space_group_name_H-M	'P 1'

loop_
_symmetry_equiv_pos_as_xyz
  x,y,z

loop_
_atom_site_label
_atom_site_type_symbol
_atom_site_fract_x
_atom_site_fract_y
_atom_site_fract_z
_atom_site_charge
Zn	Zn	0.65982 0.77207 0.30357 1.18600
N 	N 	0.37130 0.78910 0.24710 -0.26000
N 	N 	0.35850 0.72390 0.28610 -0.25600
N 	N 	0.51540 0.76500 0.28520 -0.28700
O 	O 	0.61480 0.70680 0.38840 -0.35600
O 	O 	0.70650 0.83080 0.36750 -0.48100
C 	C 	0.46690 0.81400 0.24870 0.09400
H 	H 	0.49620 0.85980 0.22710 -0.04700
C 	C 	0.44280 0.70830 0.30740 0.09200
H 	H 	0.45320 0.66470 0.33410 -0.01200
C 	C 	0.66820 0.77720 0.39950 0.34700
C 	C 	0.69170 0.80000 0.45420 -0.08700
C 	C 	0.77270 0.85040 0.47180 0.04100
H 	H 	0.82050 0.88020 0.45160 0.00900
C 	C 	0.73550 0.87560 0.47140 -0.06200
H 	H 	0.76400 0.92470 0.45140 0.04700
Zn	Zn	0.15982 0.27207 0.80357 1.18500
N 	N 	0.87130 0.28910 0.74710 -0.26100
N 	N 	0.85850 0.22390 0.78610 -0.25700
N 	N 	0.01540 0.26500 0.78520 -0.28800
O 	O 	0.11480 0.20680 0.88840 -0.35500
O 	O 	0.20650 0.33080 0.86750 -0.48100
C 	C 	0.96690 0.31400 0.74870 0.09300
H 	H 	0.99620 0.35980 0.72710 -0.04800
C 	C 	0.94280 0.20830 0.80740 0.09200
H 	H 	0.95320 0.16470 0.83410 -0.01200
C 	C 	0.16820 0.27720 0.89950 0.34600
C 	C 	0.19170 0.30000 0.95420 -0.08300
C 	C 	0.27270 0.35040 0.97180 0.04300
H 	H 	0.32050 0.38020 0.95160 0.00900
C 	C 	0.23550 0.37560 0.97140 -0.05900
H 	H 	0.26400 0.42470 0.95140 0.04700
Zn	Zn	0.34018 0.22793 0.30357 1.18500
N 	N 	0.62870 0.21090 0.24710 -0.26100
N 	N 	0.64150 0.27610 0.28610 -0.25700
N 	N 	0.48460 0.23500 0.28520 -0.28800
O 	O 	0.38520 0.29320 0.38840 -0.35700
O 	O 	0.29350 0.16920 0.36750 -0.48200
C 	C 	0.53310 0.18600 0.24870 0.09300
H 	H 	0.50380 0.14020 0.22710 -0.04800
C 	C 	0.55720 0.29170 0.30740 0.09200
H 	H 	0.54680 0.33530 0.33410 -0.01200
C 	C 	0.33180 0.22280 0.39950 0.34700
C 	C 	0.30830 0.20000 0.45420 -0.08700
C 	C 	0.22730 0.14960 0.47180 0.04100
H 	H 	0.17950 0.11980 0.45160 0.00900
C 	C 	0.26450 0.12440 0.47140 -0.06200
H 	H 	0.23600 0.07530 0.45140 0.04700
Zn	Zn	0.84018 0.72793 0.80357 1.18500
N 	N 	0.12870 0.71090 0.74710 -0.26100
N 	N 	0.14150 0.77610 0.78610 -0.25700
N 	N 	0.98460 0.73500 0.78520 -0.28800
O 	O 	0.88520 0.79320 0.88840 -0.35500
O 	O 	0.79350 0.66920 0.86750 -0.48100
C 	C 	0.03310 0.68600 0.74870 0.09300
H 	H 	0.00380 0.64020 0.72710 -0.04800
C 	C 	0.05720 0.79170 0.80740 0.09200
H 	H 	0.04680 0.83530 0.83410 -0.01200
C 	C 	0.83180 0.72280 0.89950 0.34600
C 	C 	0.80830 0.70000 0.95420 -0.08300
C 	C 	0.72730 0.64960 0.97180 0.04300
H 	H 	0.67950 0.61980 0.95160 0.00900
C 	C 	0.76450 0.62440 0.97140 -0.05900
H 	H 	0.73600 0.57530 0.95140 0.04700
Zn	Zn	0.22793 0.65982 0.30357 1.18500
N 	N 	0.21090 0.37130 0.24710 -0.26100
N 	N 	0.27610 0.35850 0.28610 -0.25700
N 	N 	0.23500 0.51540 0.28520 -0.28800
O 	O 	0.29320 0.61480 0.38840 -0.35700
O 	O 	0.16920 0.70650 0.36750 -0.48200
C 	C 	0.18600 0.46690 0.24870 0.09300
H 	H 	0.14020 0.49620 0.22710 -0.04800
C 	C 	0.29170 0.44280 0.30740 0.09200
H 	H 	0.33530 0.45320 0.33410 -0.01200
C 	C 	0.22280 0.66820 0.39950 0.34700
C 	C 	0.20000 0.69170 0.45420 -0.08700
C 	C 	0.14960 0.77270 0.47180 0.04100
H 	H 	0.11980 0.82050 0.45160 0.00900
C 	C 	0.12440 0.73550 0.47140 -0.06200
H 	H 	0.07530 0.76400 0.45140 0.04700
Zn	Zn	0.72793 0.15982 0.80357 1.18500
N 	N 	0.71090 0.87130 0.74710 -0.26100
N 	N 	0.77610 0.85850 0.78610 -0.25700
N 	N 	0.73500 0.01540 0.78520 -0.28800
O 	O 	0.79320 0.11480 0.88840 -0.35500
O 	O 	0.66920 0.20650 0.86750 -0.48100
C 	C 	0.68600 0.96690 0.74870 0.09300
H 	H 	0.64020 0.99620 0.72710 -0.04800
C 	C 	0.79170 0.94280 0.80740 0.09200
H 	H 	0.83530 0.95320 0.83410 -0.01200
C 	C 	0.72280 0.16820 0.89950 0.34600
C 	C 	0.70000 0.19170 0.95420 -0.08300
C 	C 	0.64960 0.27270 0.97180 0.04300
H 	H 	0.61980 0.32050 0.95160 0.00900
C 	C 	0.62440 0.23550 0.97140 -0.05900
H 	H 	0.57530 0.26400 0.95140 0.04700
Zn	Zn	0.77207 0.34018 0.30357 1.18500
N 	N 	0.78910 0.62870 0.24710 -0.26100
N 	N 	0.72390 0.64150 0.28610 -0.25700
N 	N 	0.76500 0.48460 0.28520 -0.28800
O 	O 	0.70680 0.38520 0.38840 -0.35700
O 	O 	0.83080 0.29350 0.36750 -0.48200
C 	C 	0.81400 0.53310 0.24870 0.09300
H 	H 	0.85980 0.50380 0.22710 -0.04800
C 	C 	0.70830 0.55720 0.30740 0.09200
H 	H 	0.66470 0.54680 0.33410 -0.01200
C 	C 	0.77720 0.33180 0.39950 0.34700
C 	C 	0.80000 0.30830 0.45420 -0.08700
C 	C 	0.85040 0.22730 0.47180 0.04100
H 	H 	0.88020 0.17950 0.45160 0.00900
C 	C 	0.87560 0.26450 0.47140 -0.06200
H 	H 	0.92470 0.23600 0.45140 0.04700
Zn	Zn	0.27207 0.84018 0.80357 1.18500
N 	N 	0.28910 0.12870 0.74710 -0.26100
N 	N 	0.22390 0.14150 0.78610 -0.25700
N 	N 	0.26500 0.98460 0.78520 -0.28800
O 	O 	0.20680 0.88520 0.88840 -0.35500
O 	O 	0.33080 0.79350 0.86750 -0.48100
C 	C 	0.31400 0.03310 0.74870 0.09300
H 	H 	0.35980 0.00380 0.72710 -0.04800
C 	C 	0.20830 0.05720 0.80740 0.09200
H 	H 	0.16470 0.04680 0.83410 -0.01200
C 	C 	0.27720 0.83180 0.89950 0.34600
C 	C 	0.30000 0.80830 0.95420 -0.08300
C 	C 	0.35040 0.72730 0.97180 0.04300
H 	H 	0.38020 0.67950 0.95160 0.00900
C 	C 	0.37560 0.76450 0.97140 -0.05900
H 	H 	0.42470 0.73600 0.95140 0.04700
Zn	Zn	0.34018 0.22793 0.69643 1.18500
N 	N 	0.62870 0.21090 0.75290 -0.26100
N 	N 	0.64150 0.27610 0.71390 -0.25700
N 	N 	0.48460 0.23500 0.71480 -0.28800
O 	O 	0.38520 0.29320 0.61160 -0.35700
O 	O 	0.29350 0.16920 0.63250 -0.48200
C 	C 	0.53310 0.18600 0.75130 0.09300
H 	H 	0.50380 0.14020 0.77290 -0.04800
C 	C 	0.55720 0.29170 0.69260 0.09200
H 	H 	0.54680 0.33530 0.66590 -0.01200
C 	C 	0.33180 0.22280 0.60050 0.34700
C 	C 	0.30830 0.20000 0.54580 -0.08700
C 	C 	0.22730 0.14960 0.52820 0.04100
H 	H 	0.17950 0.11980 0.54840 0.00900
C 	C 	0.26450 0.12440 0.52860 -0.06200
H 	H 	0.23600 0.07530 0.54860 0.04700
Zn	Zn	0.84018 0.72793 0.19643 1.18500
N 	N 	0.12870 0.71090 0.25290 -0.26100
N 	N 	0.14150 0.77610 0.21390 -0.25700
N 	N 	0.98460 0.73500 0.21480 -0.28800
O 	O 	0.88520 0.79320 0.11160 -0.35700
O 	O 	0.79350 0.66920 0.13250 -0.48200
C 	C 	0.03310 0.68600 0.25130 0.09300
H 	H 	0.00380 0.64020 0.27290 -0.04800
C 	C 	0.05720 0.79170 0.19260 0.09200
H 	H 	0.04680 0.83530 0.16590 -0.01200
C 	C 	0.83180 0.72280 0.10050 0.34600
C 	C 	0.80830 0.70000 0.04580 -0.08500
C 	C 	0.72730 0.64960 0.02820 0.03700
H 	H 	0.67950 0.61980 0.04840 0.00900
C 	C 	0.76450 0.62440 0.02860 -0.06500
H 	H 	0.73600 0.57530 0.04860 0.04800
Zn	Zn	0.65982 0.77207 0.69643 1.18500
N 	N 	0.37130 0.78910 0.75290 -0.26100
N 	N 	0.35850 0.72390 0.71390 -0.25700
N 	N 	0.51540 0.76500 0.71480 -0.28800
O 	O 	0.61480 0.70680 0.61160 -0.35700
O 	O 	0.70650 0.83080 0.63250 -0.48200
C 	C 	0.46690 0.81400 0.75130 0.09300
H 	H 	0.49620 0.85980 0.77290 -0.04800
C 	C 	0.44280 0.70830 0.69260 0.09200
H 	H 	0.45320 0.66470 0.66590 -0.01200
C 	C 	0.66820 0.77720 0.60050 0.34700
C 	C 	0.69170 0.80000 0.54580 -0.08700
C 	C 	0.77270 0.85040 0.52820 0.04100
H 	H 	0.82050 0.88020 0.54840 0.00900
C 	C 	0.73550 0.87560 0.52860 -0.06200
H 	H 	0.76400 0.92470 0.54860 0.04700
Zn	Zn	0.15982 0.27207 0.19643 1.18500
N 	N 	0.87130 0.28910 0.25290 -0.26100
N 	N 	0.85850 0.22390 0.21390 -0.25700
N 	N 	0.01540 0.26500 0.21480 -0.28800
O 	O 	0.11480 0.20680 0.11160 -0.35700
O 	O 	0.20650 0.33080 0.13250 -0.48200
C 	C 	0.96690 0.31400 0.25130 0.09300
H 	H 	0.99620 0.35980 0.27290 -0.04800
C 	C 	0.94280 0.20830 0.19260 0.09200
H 	H 	0.95320 0.16470 0.16590 -0.01200
C 	C 	0.16820 0.27720 0.10050 0.34600
C 	C 	0.19170 0.30000 0.04580 -0.08500
C 	C 	0.27270 0.35040 0.02820 0.03700
H 	H 	0.32050 0.38020 0.04840 0.00900
C 	C 	0.23550 0.37560 0.02860 -0.06500
H 	H 	0.26400 0.42470 0.04860 0.04800
Zn	Zn	0.77207 0.34018 0.69643 1.18500
N 	N 	0.78910 0.62870 0.75290 -0.26100
N 	N 	0.72390 0.64150 0.71390 -0.25700
N 	N 	0.76500 0.48460 0.71480 -0.28800
O 	O 	0.70680 0.38520 0.61160 -0.35700
O 	O 	0.83080 0.29350 0.63250 -0.48200
C 	C 	0.81400 0.53310 0.75130 0.09300
H 	H 	0.85980 0.50380 0.77290 -0.04800
C 	C 	0.70830 0.55720 0.69260 0.09200
H 	H 	0.66470 0.54680 0.66590 -0.01200
C 	C 	0.77720 0.33180 0.60050 0.34700
C 	C 	0.80000 0.30830 0.54580 -0.08700
C 	C 	0.85040 0.22730 0.52820 0.04100
H 	H 	0.88020 0.17950 0.54840 0.00900
C 	C 	0.87560 0.26450 0.52860 -0.06200
H 	H 	0.92470 0.23600 0.54860 0.04700
Zn	Zn	0.27207 0.84018 0.19643 1.18500
N 	N 	0.28910 0.12870 0.25290 -0.26100
N 	N 	0.22390 0.14150 0.21390 -0.25700
N 	N 	0.26500 0.98460 0.21480 -0.28800
O 	O 	0.20680 0.88520 0.11160 -0.35700
O 	O 	0.33080 0.79350 0.13250 -0.48200
C 	C 	0.31400 0.03310 0.25130 0.09300
H 	H 	0.35980 0.00380 0.27290 -0.04800
C 	C 	0.20830 0.05720 0.19260 0.09200
H 	H 	0.16470 0.04680 0.16590 -0.01200
C 	C 	0.27720 0.83180 0.10050 0.34600
C 	C 	0.30000 0.80830 0.04580 -0.08500
C 	C 	0.35040 0.72730 0.02820 0.03700
H 	H 	0.38020 0.67950 0.04840 0.00900
C 	C 	0.37560 0.76450 0.02860 -0.06500
H 	H 	0.42470 0.73600 0.04860 0.04800
Zn	Zn	0.22793 0.65982 0.69643 1.18500
N 	N 	0.21090 0.37130 0.75290 -0.26100
N 	N 	0.27610 0.35850 0.71390 -0.25700
N 	N 	0.23500 0.51540 0.71480 -0.28800
O 	O 	0.29320 0.61480 0.61160 -0.35700
O 	O 	0.16920 0.70650 0.63250 -0.48200
C 	C 	0.18600 0.46690 0.75130 0.09300
H 	H 	0.14020 0.49620 0.77290 -0.04800
C 	C 	0.29170 0.44280 0.69260 0.09200
H 	H 	0.33530 0.45320 0.66590 -0.01200
C 	C 	0.22280 0.66820 0.60050 0.34700
C 	C 	0.20000 0.69170 0.54580 -0.08700
C 	C 	0.14960 0.77270 0.52820 0.04100
H 	H 	0.11980 0.82050 0.54840 0.00900
C 	C 	0.12440 0.73550 0.52860 -0.06200
H 	H 	0.07530 0.76400 0.54860 0.04700
Zn	Zn	0.72793 0.15982 0.19643 1.18500
N 	N 	0.71090 0.87130 0.25290 -0.26100
N 	N 	0.77610 0.85850 0.21390 -0.25700
N 	N 	0.73500 0.01540 0.21480 -0.28800
O 	O 	0.79320 0.11480 0.11160 -0.35700
O 	O 	0.66920 0.20650 0.13250 -0.48200
C 	C 	0.68600 0.96690 0.25130 0.09300
H 	H 	0.64020 0.99620 0.27290 -0.04800
C 	C 	0.79170 0.94280 0.19260 0.09200
H 	H 	0.83530 0.95320 0.16590 -0.01200
C 	C 	0.72280 0.16820 0.10050 0.34600
C 	C 	0.70000 0.19170 0.04580 -0.08500
C 	C 	0.64960 0.27270 0.02820 0.03700
H 	H 	0.61980 0.32050 0.04840 0.00900
C 	C 	0.62440 0.23550 0.02860 -0.06500
H 	H 	0.57530 0.26400 0.04860 0.04800
S 	S 	0.63160 0.73210 0.50000 0.08000
S 	S 	0.13160 0.23210 -0.00000 0.07200
S 	S 	0.36840 0.26790 0.50000 0.08000
S 	S 	0.86840 0.76790 -0.00000 0.07200
S 	S 	0.26790 0.63160 0.50000 0.08000
S 	S 	0.76790 0.13160 -0.00000 0.07200
S 	S 	0.73210 0.36840 0.50000 0.08000
S 	S 	0.23210 0.86840 -0.00000 0.07200
