data_crystal

_cell_length_a 8.11600
_cell_length_b 8.11600
_cell_length_c 14.72100
_cell_angle_alpha 90.00000
_cell_angle_beta  90.00000
_cell_angle_gamma 90.00000

_symmetry_space_group_name_	'P 1'
_symmetry_space_group_name_H-M	'P 1'

loop_
_symmetry_equiv_pos_as_xyz
  x,y,z

loop_
_atom_site_label
_atom_site_type_symbol
_atom_site_fract_x
_atom_site_fract_y
_atom_site_fract_z
_atom_site_charge
Cd	Cd	0.00000 0.25000 0.37500 1.11200
Cd	Cd	0.50000 0.75000 0.87500 1.13700
Cd	Cd	-0.00000 0.75000 0.62500 1.11200
Cd	Cd	0.50000 0.25000 0.12500 1.13700
N 	N 	0.00000 0.45150 0.47300 -0.30200
N 	N 	0.50000 0.95150 0.97300 -0.27900
N 	N 	0.50000 0.54850 0.97300 -0.27900
N 	N 	-0.00000 0.04850 0.47300 -0.30200
N 	N 	0.79850 0.75000 0.72300 -0.23700
N 	N 	0.70150 0.25000 0.22300 -0.26700
N 	N 	0.50000 0.45150 0.02700 -0.27900
N 	N 	-0.00000 0.95150 0.52700 -0.30200
N 	N 	-0.00000 0.54850 0.52700 -0.30200
N 	N 	0.50000 0.04850 0.02700 -0.27900
N 	N 	0.70150 0.75000 0.77700 -0.26700
N 	N 	0.79850 0.25000 0.27700 -0.23700
N 	N 	0.20150 0.25000 0.27700 -0.29600
N 	N 	0.29850 0.75000 0.77700 -0.28700
N 	N 	0.29850 0.25000 0.22300 -0.28700
N 	N 	0.20150 0.75000 0.72300 -0.29600
