data_crystal

_cell_length_a 14.17400
_cell_length_b 15.45560
_cell_length_c 15.45560
_cell_angle_alpha 68.91040
_cell_angle_beta  72.20010
_cell_angle_gamma 107.80000

_symmetry_space_group_name_	'P 1'
_symmetry_space_group_name_H-M	'P 1'

loop_
_symmetry_equiv_pos_as_xyz
  x,y,z

loop_
_atom_site_label
_atom_site_type_symbol
_atom_site_fract_x
_atom_site_fract_y
_atom_site_fract_z
_atom_site_charge
Cu	Cu	-0.00000 0.00000 0.50000 0.80800
Cu	Cu	0.50000 0.50000 0.50000 0.85000
Cu	Cu	-0.00000 0.50000 -0.00000 0.80200
H 	H 	0.92240 0.58480 0.59470 0.11700
H 	H 	0.48490 0.47510 0.86890 0.04800
H 	H 	0.55710 0.50380 0.27290 -0.02300
H 	H 	0.07760 0.41520 0.40530 -0.01300
H 	H 	0.22200 0.12460 0.30030 -0.03300
H 	H 	0.99020 0.34400 0.52490 0.02400
H 	H 	0.64620 0.13110 0.34400 0.02900
H 	H 	0.89590 0.66760 0.90960 0.01100
H 	H 	0.44290 0.49620 0.72710 -0.02000
H 	H 	0.52280 0.88290 0.62020 0.09400
H 	H 	0.47720 0.11710 0.37980 0.06600
H 	H 	0.09740 0.57510 0.12460 -0.03100
H 	H 	0.33760 0.82050 0.58480 0.05700
H 	H 	0.19450 0.09040 0.57720 -0.02400
H 	H 	0.83000 0.27290 0.22330 -0.01800
H 	H 	0.57570 0.80210 0.49350 0.03400
H 	H 	0.48510 0.27830 0.38590 0.06300
H 	H 	0.52230 0.30030 0.57510 -0.01800
H 	H 	0.63990 0.49690 0.88290 0.09100
H 	H 	0.20680 0.33580 0.27830 0.05900
H 	H 	0.26680 0.37980 0.50770 -0.00800
H 	H 	0.05330 0.22330 0.50380 0.00800
H 	H 	0.77360 0.70440 0.80210 0.04500
H 	H 	0.51490 0.72170 0.61410 0.06000
H 	H 	0.79320 0.66420 0.72170 0.06500
H 	H 	0.93080 0.50650 0.29560 0.03900
H 	H 	0.03720 0.51280 0.57400 0.02900
H 	H 	0.17000 0.72710 0.77670 -0.02100
H 	H 	0.51710 0.59470 0.82050 0.06200
H 	H 	0.14300 0.62020 0.49690 0.06200
H 	H 	0.42430 0.19790 0.50650 0.03300
H 	H 	0.77450 0.50770 0.11250 -0.01200
H 	H 	0.94670 0.77670 0.49620 -0.04500
H 	H 	0.52440 0.91320 0.51280 0.07500
H 	H 	0.90260 0.42490 0.87540 0.00200
H 	H 	0.22550 0.49230 0.88750 0.00800
H 	H 	0.66240 0.17950 0.41520 0.05100
H 	H 	0.10410 0.33240 0.09040 -0.03600
H 	H 	0.11300 0.88750 0.62020 0.00900
H 	H 	0.80550 0.90960 0.42280 -0.00100
H 	H 	0.38880 0.42600 0.08680 0.04100
H 	H 	0.51510 0.52490 0.13110 0.03000
H 	H 	0.06920 0.49350 0.70440 0.03000
H 	H 	0.22830 0.42280 0.66760 -0.01600
H 	H 	0.36010 0.50310 0.11710 0.06800
H 	H 	0.87100 0.38590 0.33580 0.06000
H 	H 	0.85700 0.37980 0.50310 0.09800
H 	H 	0.77800 0.87540 0.69970 0.00300
H 	H 	0.12900 0.61410 0.66420 0.06500
H 	H 	0.48290 0.40530 0.17950 0.04600
H 	H 	0.88700 0.11250 0.37980 -0.01300
H 	H 	0.96280 0.48720 0.42600 0.09200
H 	H 	0.47560 0.08680 0.48720 0.04500
H 	H 	0.61120 0.57400 0.91320 0.07900
H 	H 	0.47770 0.69970 0.42490 -0.01400
H 	H 	0.00980 0.65600 0.47510 0.05300
H 	H 	0.22640 0.29560 0.19790 0.02300
H 	H 	0.77170 0.57720 0.33240 -0.01000
H 	H 	0.35380 0.86890 0.65600 0.04900
H 	H 	0.73320 0.62020 0.49230 0.00000
C 	C 	0.92400 0.15600 0.40020 0.07500
C 	C 	0.27000 0.49500 0.61500 0.07900
C 	C 	0.76800 0.44380 0.15600 0.05900
C 	C 	0.92300 0.41800 0.43600 -0.17300
C 	C 	0.88900 0.48000 0.87200 0.08100
C 	C 	0.00610 0.21010 0.47440 -0.00500
C 	C 	0.22500 0.11000 0.50500 0.07200
C 	C 	0.63400 0.18000 0.36500 -0.04700
C 	C 	0.40900 0.64800 0.48000 0.06400
C 	C 	0.99390 0.78990 0.52560 0.24300
C 	C 	0.50500 0.14600 0.41800 -0.10700
C 	C 	0.12300 0.56300 0.64100 -0.04800
C 	C 	0.11500 0.38500 0.11000 0.06400
C 	C 	0.11100 0.52000 0.12800 0.05000
C 	C 	0.00100 0.63500 0.54500 -0.15300
C 	C 	0.64100 0.56400 0.85400 -0.12900
C 	C 	0.44000 0.20400 0.43700 -0.03300
C 	C 	0.51950 0.52560 0.68450 0.12600
C 	C 	0.35900 0.43600 0.14600 -0.10900
C 	C 	0.79600 0.31550 0.21010 0.12300
C 	C 	0.56000 0.79600 0.56300 -0.01500
C 	C 	0.07700 0.58200 0.56400 -0.06700
C 	C 	0.23900 0.12800 0.35200 0.05800
C 	C 	0.36600 0.82000 0.63500 -0.04100
C 	C 	0.45400 0.45500 0.18000 -0.04500
C 	C 	0.88500 0.61500 0.89000 0.09600
C 	C 	0.20400 0.68450 0.78990 0.12700
C 	C 	0.32420 0.40020 0.44380 0.06100
C 	C 	0.76400 0.64100 0.79600 -0.01900
C 	C 	0.23600 0.35900 0.20400 -0.03000
C 	C 	0.73000 0.50500 0.38500 0.08300
C 	C 	0.76100 0.87200 0.64800 0.07300
C 	C 	0.87700 0.43700 0.35900 -0.00000
C 	C 	0.23200 0.55620 0.84400 0.06600
C 	C 	0.49500 0.85400 0.58200 -0.13100
C 	C 	0.99900 0.36500 0.45500 0.07000
C 	C 	0.77500 0.89000 0.49500 0.08800
C 	C 	0.67580 0.59980 0.55620 0.06300
C 	C 	0.07600 0.84400 0.59980 0.05300
C 	C 	0.59100 0.35200 0.52000 0.06600
C 	C 	0.48050 0.47440 0.31550 0.12500
C 	C 	0.54600 0.54500 0.82000 -0.04300
N 	N 	0.83100 0.51600 0.82400 -0.08100
N 	N 	0.16900 0.48400 0.17600 -0.09400
N 	N 	0.56030 0.53430 0.59300 -0.24400
N 	N 	0.68500 0.34000 0.48400 -0.08800
N 	N 	0.84670 0.40700 0.12730 -0.24000
N 	N 	0.59050 0.55940 0.71110 -0.10200
N 	N 	0.77100 0.43400 0.40100 -0.09500
N 	N 	0.03110 0.72950 0.55940 -0.13500
N 	N 	0.97400 0.12730 0.46570 -0.19600
N 	N 	0.40950 0.44060 0.28890 -0.10300
N 	N 	0.68300 0.37500 0.25400 -0.08700
N 	N 	0.17200 0.40100 0.16500 -0.09800
N 	N 	0.83610 0.91380 0.54400 -0.20900
N 	N 	0.16390 0.08620 0.45600 -0.24200
N 	N 	0.61990 0.45600 0.45780 -0.23100
N 	N 	0.02600 0.87270 0.53430 -0.27600
N 	N 	0.69200 0.62900 0.62500 -0.08400
N 	N 	0.96890 0.27050 0.44060 -0.06600
N 	N 	0.38010 0.54400 0.54220 -0.23000
N 	N 	0.65500 0.82400 0.66000 -0.08100
N 	N 	0.66300 0.83500 0.56600 -0.09200
N 	N 	0.31500 0.66000 0.51600 -0.08600
N 	N 	0.69840 0.28890 0.27050 -0.10400
N 	N 	0.07770 0.45780 0.08620 -0.24700
N 	N 	0.93700 0.25400 0.37100 -0.07900
N 	N 	0.30800 0.37100 0.37500 -0.08800
N 	N 	0.30160 0.71110 0.72950 -0.10000
N 	N 	0.92230 0.54220 0.91380 -0.20200
N 	N 	0.34500 0.17600 0.34000 -0.09300
N 	N 	0.06300 0.74600 0.62900 -0.09200
N 	N 	0.22900 0.56600 0.59900 -0.08900
N 	N 	0.33700 0.16500 0.43400 -0.09300
N 	N 	0.82800 0.59900 0.83500 -0.08700
N 	N 	0.43970 0.46570 0.40700 -0.24500
N 	N 	0.31700 0.62500 0.74600 -0.08400
N 	N 	0.15330 0.59300 0.87270 -0.23400
