data_crystal

_cell_length_a 14.78710
_cell_length_b 25.53600
_cell_length_c 29.64320
_cell_angle_alpha 90.00000
_cell_angle_beta  115.61600
_cell_angle_gamma 90.00000

_symmetry_space_group_name_	'P 1'
_symmetry_space_group_name_H-M	'P 1'

loop_
_symmetry_equiv_pos_as_xyz
  x,y,z

loop_
_atom_site_label
_atom_site_type_symbol
_atom_site_fract_x
_atom_site_fract_y
_atom_site_fract_z
_atom_site_charge
Cu	Cu	0.00444 0.71810 0.74419 0.84600
Cu	Cu	0.18696 0.52287 0.43857 0.78700
C 	C 	0.93880 0.77880 0.81460 0.09200
H 	H 	0.98930 0.76570 0.84390 -0.02400
C 	C 	0.83950 0.78870 0.73860 0.07300
H 	H 	0.80740 0.78540 0.70400 -0.01400
C 	C 	0.73320 0.86150 0.74730 -0.19000
H 	H 	0.72410 0.87620 0.77520 0.08800
H 	H 	0.67040 0.84560 0.72450 0.08300
C 	C 	0.76170 0.90560 0.72000 0.18600
C 	C 	0.85940 0.92510 0.73940 -0.26000
H 	H 	0.90860 0.91160 0.76890 0.13100
C 	C 	0.88240 0.96500 0.71390 0.21200
C 	C 	0.81010 0.98400 0.67020 -0.25800
H 	H 	0.82530 0.01100 0.65350 0.11100
C 	C 	0.71460 0.96340 0.65070 0.15100
H 	H 	0.66630 0.97630 0.62060 -0.03200
C 	C 	0.68880 0.92350 0.67520 -0.24500
H 	H 	0.62440 0.90940 0.66170 0.10600
C 	C 	0.98770 0.98480 0.73280 -0.21300
H 	H 	0.98850 0.01570 0.71390 0.10500
H 	H 	0.02900 0.95830 0.72740 0.10900
C 	C 	0.04210 0.03680 0.85120 0.08600
H 	H 	0.03200 0.06040 0.87250 -0.02800
C 	C 	0.10000 0.97390 0.82640 0.07200
H 	H 	0.13610 0.94460 0.82500 -0.01600
C 	C 	0.15490 0.63700 0.75150 0.08600
H 	H 	0.17210 0.63170 0.78520 -0.02100
C 	C 	0.09160 0.66500 0.67760 0.09600
H 	H 	0.05340 0.68520 0.64980 -0.02300
C 	C 	0.25490 0.56270 0.73790 -0.20900
H 	H 	0.21560 0.53300 0.71930 0.10200
H 	H 	0.27680 0.55550 0.77320 0.09500
C 	C 	0.34440 0.56840 0.72770 0.20600
C 	C 	0.35000 0.54180 0.68910 -0.26100
H 	H 	0.29770 0.52000 0.66890 0.12000
C 	C 	0.43620 0.54760 0.67990 0.20500
C 	C 	0.51460 0.57770 0.71170 -0.26500
H 	H 	0.57150 0.58120 0.70610 0.11900
C 	C 	0.51030 0.60250 0.75160 0.17000
H 	H 	0.56490 0.62220 0.77290 -0.03700
C 	C 	0.42720 0.59900 0.76090 -0.25000
H 	H 	0.42500 0.61610 0.78800 0.11400
C 	C 	0.44250 0.51830 0.63730 -0.20000
H 	H 	0.50870 0.52290 0.63860 0.08200
H 	H 	0.43240 0.48120 0.64060 0.08000
C 	C 	0.32670 0.51060 0.54590 0.06000
H 	H 	0.34110 0.47590 0.54210 -0.03200
C 	C 	0.26750 0.58800 0.53340 0.07500
H 	H 	0.23100 0.61750 0.51730 -0.02800
C 	C 	0.09540 0.13960 0.71740 0.08200
H 	H 	0.06090 0.15220 0.68500 -0.01800
C 	C 	0.14640 0.12620 0.79360 0.10500
H 	H 	0.15420 0.12880 0.82640 -0.02400
C 	C 	0.20900 0.07750 0.70000 -0.19900
H 	H 	0.28040 0.07230 0.71980 0.09200
H 	H 	0.20030 0.10010 0.67210 0.08600
C 	C 	0.15960 0.02440 0.67970 0.20200
C 	C 	0.06850 0.02350 0.63950 -0.26000
H 	H 	0.03750 0.05470 0.62470 0.11400
C 	C 	0.02230 0.97660 0.62090 0.15900
H 	H 	0.95950 0.97640 0.59360 -0.03300
C 	C 	0.06670 0.92980 0.64160 -0.25600
H 	H 	0.03390 0.89840 0.62880 0.11700
C 	C 	0.16060 0.92980 0.68170 0.20400
C 	C 	0.20610 0.97730 0.70200 -0.26700
H 	H 	0.26720 0.97780 0.73030 0.11800
C 	C 	0.21330 0.87980 0.70420 -0.20500
H 	H 	0.22370 0.85980 0.67900 0.08700
H 	H 	0.27850 0.88770 0.73100 0.09000
C 	C 	0.12420 0.79900 0.71420 0.07000
H 	H 	0.13190 0.77770 0.69060 -0.00700
C 	C 	0.08620 0.82950 0.76950 0.08300
H 	H 	0.05950 0.83200 0.79260 -0.01300
N 	N 	0.92030 0.76100 0.76910 -0.24100
N 	N 	0.81230 0.82150 0.76560 -0.07300
N 	N 	0.87740 0.81730 0.81370 -0.10900
N 	N 	0.11040 0.99760 0.86800 -0.27500
N 	N 	0.03040 0.99800 0.78650 -0.07000
N 	N 	0.99150 0.03870 0.80270 -0.09800
N 	N 	0.09150 0.67240 0.72310 -0.24400
N 	N 	0.19080 0.60980 0.72430 -0.06900
N 	N 	0.14930 0.62740 0.67640 -0.10100
N 	N 	0.26350 0.54150 0.50960 -0.27300
N 	N 	0.36540 0.53740 0.58830 -0.07600
N 	N 	0.32760 0.58650 0.58080 -0.09900
N 	N 	0.07990 0.15490 0.75620 -0.24200
N 	N 	0.16650 0.10390 0.73140 -0.07400
N 	N 	0.19940 0.09400 0.78020 -0.10500
N 	N 	0.07940 0.78450 0.74320 -0.24000
N 	N 	0.13220 0.86860 0.76030 -0.10600
N 	N 	0.15540 0.84780 0.72410 -0.07500
Cu	Cu	0.99556 0.21810 0.75581 0.84700
Cu	Cu	0.81304 0.02287 0.06143 0.78700
C 	C 	0.06120 0.27880 0.68540 0.09200
H 	H 	0.01070 0.26570 0.65610 -0.02500
C 	C 	0.16050 0.28870 0.76140 0.07200
H 	H 	0.19260 0.28540 0.79600 -0.01400
C 	C 	0.26680 0.36150 0.75270 -0.19200
H 	H 	0.27590 0.37620 0.72480 0.08800
H 	H 	0.32960 0.34560 0.77550 0.08400
C 	C 	0.23830 0.40560 0.78000 0.18900
C 	C 	0.14060 0.42510 0.76060 -0.26400
H 	H 	0.09140 0.41160 0.73110 0.13200
C 	C 	0.11760 0.46500 0.78610 0.21700
C 	C 	0.18990 0.48400 0.82980 -0.26500
H 	H 	0.17470 0.51100 0.84650 0.11400
C 	C 	0.28540 0.46340 0.84930 0.15600
H 	H 	0.33370 0.47630 0.87940 -0.03300
C 	C 	0.31120 0.42350 0.82480 -0.24900
H 	H 	0.37560 0.40940 0.83830 0.10700
C 	C 	0.01230 0.48480 0.76720 -0.22400
H 	H 	0.01150 0.51570 0.78610 0.10900
H 	H 	0.97100 0.45830 0.77260 0.11300
C 	C 	0.95790 0.53680 0.64880 0.08300
H 	H 	0.96800 0.56040 0.62750 -0.02800
C 	C 	0.90000 0.47390 0.67360 0.07200
H 	H 	0.86390 0.44460 0.67500 -0.01500
C 	C 	0.84510 0.13700 0.74850 0.08600
H 	H 	0.82790 0.13170 0.71480 -0.02100
C 	C 	0.90840 0.16500 0.82240 0.09600
H 	H 	0.94660 0.18520 0.85020 -0.02300
C 	C 	0.74510 0.06270 0.76210 -0.20900
H 	H 	0.78440 0.03300 0.78070 0.10200
H 	H 	0.72320 0.05550 0.72680 0.09400
C 	C 	0.65560 0.06840 0.77230 0.20600
C 	C 	0.65000 0.04180 0.81090 -0.26100
H 	H 	0.70230 0.02000 0.83110 0.12000
C 	C 	0.56380 0.04760 0.82010 0.20500
C 	C 	0.48540 0.07770 0.78830 -0.26400
H 	H 	0.42850 0.08120 0.79390 0.11900
C 	C 	0.48970 0.10250 0.74840 0.17000
H 	H 	0.43510 0.12220 0.72710 -0.03700
C 	C 	0.57280 0.09900 0.73910 -0.24900
H 	H 	0.57500 0.11610 0.71200 0.11400
C 	C 	0.55750 0.01830 0.86270 -0.20000
H 	H 	0.49130 0.02290 0.86140 0.08200
H 	H 	0.56760 0.98120 0.85940 0.08000
C 	C 	0.67330 0.01060 0.95410 0.06000
H 	H 	0.65890 0.97590 0.95790 -0.03200
C 	C 	0.73250 0.08800 0.96660 0.07600
H 	H 	0.76900 0.11750 0.98270 -0.02800
C 	C 	0.90460 0.63960 0.78260 0.08200
H 	H 	0.93910 0.65220 0.81500 -0.01800
C 	C 	0.85360 0.62620 0.70640 0.10500
H 	H 	0.84580 0.62880 0.67360 -0.02500
C 	C 	0.79100 0.57750 0.80000 -0.20100
H 	H 	0.71960 0.57230 0.78020 0.09200
H 	H 	0.79970 0.60010 0.82790 0.08600
C 	C 	0.84040 0.52440 0.82030 0.20500
C 	C 	0.93150 0.52350 0.86050 -0.26900
H 	H 	0.96250 0.55470 0.87530 0.11700
C 	C 	0.97770 0.47660 0.87910 0.17100
H 	H 	0.04050 0.47640 0.90640 -0.03800
C 	C 	0.93330 0.42980 0.85840 -0.26300
H 	H 	0.96610 0.39840 0.87120 0.12000
C 	C 	0.83940 0.42980 0.81830 0.20800
C 	C 	0.79390 0.47730 0.79800 -0.27000
H 	H 	0.73280 0.47780 0.76970 0.11900
C 	C 	0.78670 0.37980 0.79580 -0.20700
H 	H 	0.77630 0.35980 0.82100 0.08700
H 	H 	0.72150 0.38770 0.76900 0.09100
C 	C 	0.87580 0.29900 0.78580 0.07000
H 	H 	0.86810 0.27770 0.80940 -0.00700
C 	C 	0.91380 0.32950 0.73050 0.08300
H 	H 	0.94050 0.33200 0.70740 -0.01300
N 	N 	0.07970 0.26100 0.73090 -0.24100
N 	N 	0.18770 0.32150 0.73440 -0.07300
N 	N 	0.12260 0.31730 0.68630 -0.10900
N 	N 	0.88960 0.49760 0.63200 -0.27400
N 	N 	0.96960 0.49800 0.71350 -0.06700
N 	N 	0.00850 0.53870 0.69730 -0.09700
N 	N 	0.90850 0.17240 0.77690 -0.24400
N 	N 	0.80920 0.10980 0.77570 -0.06900
N 	N 	0.85070 0.12740 0.82360 -0.10100
N 	N 	0.73650 0.04150 0.99040 -0.27300
N 	N 	0.63460 0.03740 0.91170 -0.07600
N 	N 	0.67240 0.08650 0.91920 -0.09900
N 	N 	0.92010 0.65490 0.74380 -0.24200
N 	N 	0.83350 0.60390 0.76860 -0.07400
N 	N 	0.80060 0.59400 0.71980 -0.10500
N 	N 	0.92060 0.28450 0.75680 -0.24000
N 	N 	0.86780 0.36860 0.73970 -0.10600
N 	N 	0.84460 0.34780 0.77590 -0.07400
Cu	Cu	0.99556 0.28190 0.25581 0.84700
Cu	Cu	0.81304 0.47713 0.56143 0.78800
C 	C 	0.06120 0.22120 0.18540 0.09200
H 	H 	0.01070 0.23430 0.15610 -0.02400
C 	C 	0.16050 0.21130 0.26140 0.07300
H 	H 	0.19260 0.21460 0.29600 -0.01400
C 	C 	0.26680 0.13850 0.25270 -0.19000
H 	H 	0.27590 0.12380 0.22480 0.08800
H 	H 	0.32960 0.15440 0.27550 0.08300
C 	C 	0.23830 0.09440 0.28000 0.18600
C 	C 	0.14060 0.07490 0.26060 -0.26000
H 	H 	0.09140 0.08840 0.23110 0.13100
C 	C 	0.11760 0.03500 0.28610 0.21200
C 	C 	0.18990 0.01600 0.32980 -0.25800
H 	H 	0.17470 0.98900 0.34650 0.11100
C 	C 	0.28540 0.03660 0.34930 0.15100
H 	H 	0.33370 0.02370 0.37940 -0.03200
C 	C 	0.31120 0.07650 0.32480 -0.24500
H 	H 	0.37560 0.09060 0.33830 0.10600
C 	C 	0.01230 0.01520 0.26720 -0.21300
H 	H 	0.01150 0.98430 0.28610 0.10500
H 	H 	0.97100 0.04170 0.27260 0.10900
C 	C 	0.95790 0.96320 0.14880 0.08600
H 	H 	0.96800 0.93960 0.12750 -0.02800
C 	C 	0.90000 0.02610 0.17360 0.07200
H 	H 	0.86390 0.05540 0.17500 -0.01600
C 	C 	0.84510 0.36300 0.24850 0.08600
H 	H 	0.82790 0.36830 0.21480 -0.02100
C 	C 	0.90840 0.33500 0.32240 0.09600
H 	H 	0.94660 0.31480 0.35020 -0.02300
C 	C 	0.74510 0.43730 0.26210 -0.20900
H 	H 	0.78440 0.46700 0.28070 0.10200
H 	H 	0.72320 0.44450 0.22680 0.09500
C 	C 	0.65560 0.43160 0.27230 0.20600
C 	C 	0.65000 0.45820 0.31090 -0.26100
H 	H 	0.70230 0.48000 0.33110 0.12000
C 	C 	0.56380 0.45240 0.32010 0.20500
C 	C 	0.48540 0.42230 0.28830 -0.26500
H 	H 	0.42850 0.41880 0.29390 0.11900
C 	C 	0.48970 0.39750 0.24840 0.17000
H 	H 	0.43510 0.37780 0.22710 -0.03700
C 	C 	0.57280 0.40100 0.23910 -0.25000
H 	H 	0.57500 0.38390 0.21200 0.11400
C 	C 	0.55750 0.48170 0.36270 -0.20000
H 	H 	0.49130 0.47710 0.36140 0.08200
H 	H 	0.56760 0.51880 0.35940 0.08000
C 	C 	0.67330 0.48940 0.45410 0.06000
H 	H 	0.65890 0.52410 0.45790 -0.03200
C 	C 	0.73250 0.41200 0.46660 0.07500
H 	H 	0.76900 0.38250 0.48270 -0.02800
C 	C 	0.90460 0.86040 0.28260 0.08200
H 	H 	0.93910 0.84780 0.31500 -0.01800
C 	C 	0.85360 0.87380 0.20640 0.10500
H 	H 	0.84580 0.87120 0.17360 -0.02400
C 	C 	0.79100 0.92250 0.30000 -0.19900
H 	H 	0.71960 0.92770 0.28020 0.09200
H 	H 	0.79970 0.89990 0.32790 0.08600
C 	C 	0.84040 0.97560 0.32030 0.20200
C 	C 	0.93150 0.97650 0.36050 -0.26000
H 	H 	0.96250 0.94530 0.37530 0.11400
C 	C 	0.97770 0.02340 0.37910 0.15900
H 	H 	0.04050 0.02360 0.40640 -0.03300
C 	C 	0.93330 0.07020 0.35840 -0.25600
H 	H 	0.96610 0.10160 0.37120 0.11700
C 	C 	0.83940 0.07020 0.31830 0.20400
C 	C 	0.79390 0.02270 0.29800 -0.26700
H 	H 	0.73280 0.02220 0.26970 0.11800
C 	C 	0.78670 0.12020 0.29580 -0.20500
H 	H 	0.77630 0.14020 0.32100 0.08700
H 	H 	0.72150 0.11230 0.26900 0.09000
C 	C 	0.87580 0.20100 0.28580 0.07000
H 	H 	0.86810 0.22230 0.30940 -0.00700
C 	C 	0.91380 0.17050 0.23050 0.08300
H 	H 	0.94050 0.16800 0.20740 -0.01300
N 	N 	0.07970 0.23900 0.23090 -0.24100
N 	N 	0.18770 0.17850 0.23440 -0.07300
N 	N 	0.12260 0.18270 0.18630 -0.10900
N 	N 	0.88960 0.00240 0.13200 -0.27500
N 	N 	0.96960 0.00200 0.21350 -0.07000
N 	N 	0.00850 0.96130 0.19730 -0.09800
N 	N 	0.90850 0.32760 0.27690 -0.24400
N 	N 	0.80920 0.39020 0.27570 -0.06900
N 	N 	0.85070 0.37260 0.32360 -0.10100
N 	N 	0.73650 0.45850 0.49040 -0.27300
N 	N 	0.63460 0.46260 0.41170 -0.07600
N 	N 	0.67240 0.41350 0.41920 -0.09900
N 	N 	0.92010 0.84510 0.24380 -0.24200
N 	N 	0.83350 0.89610 0.26860 -0.07400
N 	N 	0.80060 0.90600 0.21980 -0.10500
N 	N 	0.92060 0.21550 0.25680 -0.24000
N 	N 	0.86780 0.13140 0.23970 -0.10600
N 	N 	0.84460 0.15220 0.27590 -0.07500
Cu	Cu	0.00444 0.78190 0.24419 0.84700
Cu	Cu	0.18696 0.97713 0.93857 0.78700
C 	C 	0.93880 0.72120 0.31460 0.09200
H 	H 	0.98930 0.73430 0.34390 -0.02500
C 	C 	0.83950 0.71130 0.23860 0.07200
H 	H 	0.80740 0.71460 0.20400 -0.01400
C 	C 	0.73320 0.63850 0.24730 -0.19200
H 	H 	0.72410 0.62380 0.27520 0.08800
H 	H 	0.67040 0.65440 0.22450 0.08400
C 	C 	0.76170 0.59440 0.22000 0.18900
C 	C 	0.85940 0.57490 0.23940 -0.26400
H 	H 	0.90860 0.58840 0.26890 0.13200
C 	C 	0.88240 0.53500 0.21390 0.21700
C 	C 	0.81010 0.51600 0.17020 -0.26500
H 	H 	0.82530 0.48900 0.15350 0.11400
C 	C 	0.71460 0.53660 0.15070 0.15600
H 	H 	0.66630 0.52370 0.12060 -0.03300
C 	C 	0.68880 0.57650 0.17520 -0.24900
H 	H 	0.62440 0.59060 0.16170 0.10700
C 	C 	0.98770 0.51520 0.23280 -0.22400
H 	H 	0.98850 0.48430 0.21390 0.10900
H 	H 	0.02900 0.54170 0.22740 0.11300
C 	C 	0.04210 0.46320 0.35120 0.08300
H 	H 	0.03200 0.43960 0.37250 -0.02800
C 	C 	0.10000 0.52610 0.32640 0.07200
H 	H 	0.13610 0.55540 0.32500 -0.01500
C 	C 	0.15490 0.86300 0.25150 0.08600
H 	H 	0.17210 0.86830 0.28520 -0.02100
C 	C 	0.09160 0.83500 0.17760 0.09600
H 	H 	0.05340 0.81480 0.14980 -0.02300
C 	C 	0.25490 0.93730 0.23790 -0.20900
H 	H 	0.21560 0.96700 0.21930 0.10200
H 	H 	0.27680 0.94450 0.27320 0.09400
C 	C 	0.34440 0.93160 0.22770 0.20600
C 	C 	0.35000 0.95820 0.18910 -0.26100
H 	H 	0.29770 0.98000 0.16890 0.12000
C 	C 	0.43620 0.95240 0.17990 0.20500
C 	C 	0.51460 0.92230 0.21170 -0.26400
H 	H 	0.57150 0.91880 0.20610 0.11900
C 	C 	0.51030 0.89750 0.25160 0.17000
H 	H 	0.56490 0.87780 0.27290 -0.03700
C 	C 	0.42720 0.90100 0.26090 -0.24900
H 	H 	0.42500 0.88390 0.28800 0.11400
C 	C 	0.44250 0.98170 0.13730 -0.20000
H 	H 	0.50870 0.97710 0.13860 0.08200
H 	H 	0.43240 0.01880 0.14060 0.08000
C 	C 	0.32670 0.98940 0.04590 0.06000
H 	H 	0.34110 0.02410 0.04210 -0.03200
C 	C 	0.26750 0.91200 0.03340 0.07600
H 	H 	0.23100 0.88250 0.01730 -0.02800
C 	C 	0.09540 0.36040 0.21740 0.08200
H 	H 	0.06090 0.34780 0.18500 -0.01800
C 	C 	0.14640 0.37380 0.29360 0.10500
H 	H 	0.15420 0.37120 0.32640 -0.02500
C 	C 	0.20900 0.42250 0.20000 -0.20100
H 	H 	0.28040 0.42770 0.21980 0.09200
H 	H 	0.20030 0.39990 0.17210 0.08600
C 	C 	0.15960 0.47560 0.17970 0.20500
C 	C 	0.06850 0.47650 0.13950 -0.26900
H 	H 	0.03750 0.44530 0.12470 0.11700
C 	C 	0.02230 0.52340 0.12090 0.17100
H 	H 	0.95950 0.52360 0.09360 -0.03800
C 	C 	0.06670 0.57020 0.14160 -0.26300
H 	H 	0.03390 0.60160 0.12880 0.12000
C 	C 	0.16060 0.57020 0.18170 0.20800
C 	C 	0.20610 0.52270 0.20200 -0.27000
H 	H 	0.26720 0.52220 0.23030 0.11900
C 	C 	0.21330 0.62020 0.20420 -0.20700
H 	H 	0.22370 0.64020 0.17900 0.08700
H 	H 	0.27850 0.61230 0.23100 0.09100
C 	C 	0.12420 0.70100 0.21420 0.07000
H 	H 	0.13190 0.72230 0.19060 -0.00700
C 	C 	0.08620 0.67050 0.26950 0.08300
H 	H 	0.05950 0.66800 0.29260 -0.01300
N 	N 	0.92030 0.73900 0.26910 -0.24100
N 	N 	0.81230 0.67850 0.26560 -0.07300
N 	N 	0.87740 0.68270 0.31370 -0.10900
N 	N 	0.11040 0.50240 0.36800 -0.27400
N 	N 	0.03040 0.50200 0.28650 -0.06700
N 	N 	0.99150 0.46130 0.30270 -0.09700
N 	N 	0.09150 0.82760 0.22310 -0.24400
N 	N 	0.19080 0.89020 0.22430 -0.06900
N 	N 	0.14930 0.87260 0.17640 -0.10100
N 	N 	0.26350 0.95850 0.00960 -0.27300
N 	N 	0.36540 0.96260 0.08830 -0.07600
N 	N 	0.32760 0.91350 0.08080 -0.09900
N 	N 	0.07990 0.34510 0.25620 -0.24200
N 	N 	0.16650 0.39610 0.23140 -0.07400
N 	N 	0.19940 0.40600 0.28020 -0.10500
N 	N 	0.07940 0.71550 0.24320 -0.24000
N 	N 	0.13220 0.63140 0.26030 -0.10600
N 	N 	0.15540 0.65220 0.22410 -0.07400
