data_crystal

_cell_length_a 15.85550
_cell_length_b 28.67700
_cell_length_c 21.40180
_cell_angle_alpha 90.00000
_cell_angle_beta  90.00000
_cell_angle_gamma 90.00000

_symmetry_space_group_name_	'P 1'
_symmetry_space_group_name_H-M	'P 1'

loop_
_symmetry_equiv_pos_as_xyz
  x,y,z

loop_
_atom_site_label
_atom_site_type_symbol
_atom_site_fract_x
_atom_site_fract_y
_atom_site_fract_z
_atom_site_charge
Cd	Cd	0.97155 0.29537 0.26010 1.23600
Cd	Cd	0.23910 0.24674 0.73737 1.19700
Cd	Cd	0.02845 0.29537 0.73990 1.23600
Cd	Cd	0.48609 0.20862 0.24313 1.24300
Cd	Cd	0.76090 0.24674 0.26263 1.19700
Cd	Cd	0.02845 0.70463 0.76010 1.23600
Cd	Cd	0.76090 0.75326 0.23737 1.19700
Cd	Cd	0.48609 0.79138 0.25687 1.24300
Cd	Cd	0.51391 0.20862 0.75687 1.24300
Cd	Cd	0.97155 0.70463 0.23990 1.23600
Cd	Cd	0.51391 0.79138 0.74313 1.24300
Cd	Cd	0.23910 0.75326 0.76263 1.19700
H 	H 	0.68910 0.48430 0.32330 0.08300
H 	H 	0.07070 0.08420 0.37750 0.08300
H 	H 	0.59280 0.40120 0.18940 0.08500
H 	H 	0.80190 0.97270 0.82670 0.07700
H 	H 	0.86130 0.07410 0.10190 0.08300
H 	H 	0.14400 0.57570 0.32300 0.04200
H 	H 	0.86500 0.09900 0.48550 0.08400
H 	H 	0.03480 0.00470 0.89520 0.05700
H 	H 	0.59790 0.61140 0.46300 0.08100
H 	H 	0.37800 0.61160 0.01500 0.08000
H 	H 	0.95470 0.84230 0.83550 0.02600
H 	H 	0.16310 0.16900 0.56160 0.02200
H 	H 	0.34110 0.07610 0.82330 0.02500
H 	H 	0.16310 0.83100 0.93840 0.02200
H 	H 	0.12640 0.09410 0.67960 0.09000
H 	H 	0.64840 0.40740 0.67300 0.07700
H 	H 	0.85600 0.57570 0.67700 0.04200
H 	H 	0.34110 0.92390 0.67670 0.02500
H 	H 	0.76360 0.64110 0.82800 0.04800
H 	H 	0.01070 0.92020 0.74290 0.05900
H 	H 	0.86500 0.90100 0.01450 0.08400
H 	H 	0.52640 0.49610 0.60610 0.05800
H 	H 	0.19810 0.97270 0.17330 0.07700
H 	H 	0.23640 0.35890 0.32800 0.04800
H 	H 	0.64130 0.31670 0.56420 0.03400
H 	H 	0.23270 0.97770 0.68080 0.08500
H 	H 	0.76160 0.86840 0.66410 0.03500
H 	H 	0.83690 0.16900 0.43840 0.02200
H 	H 	0.12070 0.91520 0.33460 0.08000
H 	H 	0.13870 0.07410 0.89810 0.08300
H 	H 	0.23840 0.13160 0.16410 0.03500
H 	H 	0.43050 0.41740 0.62780 0.08100
H 	H 	0.70470 0.34990 0.20190 -0.01000
H 	H 	0.64840 0.59260 0.82700 0.07700
H 	H 	0.59050 0.31880 0.08960 0.02500
H 	H 	0.19700 0.56660 0.83340 0.02900
H 	H 	0.95470 0.15770 0.66450 0.02700
H 	H 	0.31090 0.48430 0.67670 0.08300
H 	H 	0.59050 0.68120 0.41040 0.02500
H 	H 	0.35870 0.68330 0.06420 0.03400
H 	H 	0.76730 0.02230 0.18080 0.08500
H 	H 	0.29530 0.65010 0.70190 -0.01000
H 	H 	0.59790 0.38860 0.03700 0.08100
H 	H 	0.98930 0.92020 0.25710 0.05900
H 	H 	0.83690 0.83100 0.06160 0.02200
H 	H 	0.55430 0.65470 0.17660 0.01300
H 	H 	0.07070 0.91580 0.12250 0.08200
H 	H 	0.47360 0.50390 0.10610 0.05800
H 	H 	0.70470 0.65010 0.29810 -0.01000
H 	H 	0.59280 0.59880 0.31060 0.08500
H 	H 	0.23250 0.14740 0.68280 -0.00400
H 	H 	0.68480 0.92320 0.82620 0.03700
H 	H 	0.87360 0.09410 0.32040 0.09000
H 	H 	0.84100 0.13990 0.15990 0.01700
H 	H 	0.87930 0.08480 0.83460 0.08000
H 	H 	0.37830 0.57190 0.38810 0.07700
H 	H 	0.25680 0.47540 0.17970 0.07300
H 	H 	0.31520 0.92320 0.17380 0.03700
H 	H 	0.65890 0.92390 0.32330 0.02500
H 	H 	0.85600 0.42430 0.82300 0.04200
H 	H 	0.62620 0.64070 0.66800 0.03800
H 	H 	0.44570 0.34530 0.67660 0.01300
H 	H 	0.23640 0.64110 0.17200 0.04800
H 	H 	0.62200 0.61160 0.98500 0.08000
H 	H 	0.25680 0.52460 0.32030 0.07300
H 	H 	0.43050 0.58260 0.87220 0.08100
H 	H 	0.74320 0.52460 0.67970 0.07300
H 	H 	0.62620 0.35930 0.83200 0.03800
H 	H 	0.93420 0.18880 0.89190 0.02800
H 	H 	0.35160 0.59260 0.17300 0.07700
H 	H 	0.80190 0.02730 0.67330 0.07700
H 	H 	0.15900 0.86010 0.65990 0.01700
H 	H 	0.84100 0.86010 0.34010 0.01700
H 	H 	0.03480 0.99530 0.60480 0.05700
H 	H 	0.19700 0.43340 0.66660 0.02900
H 	H 	0.12640 0.90590 0.82040 0.09000
H 	H 	0.76730 0.97770 0.31920 0.08500
H 	H 	0.74320 0.47540 0.82030 0.07300
H 	H 	0.52670 0.58030 0.75540 0.05800
H 	H 	0.44570 0.65470 0.82340 0.01300
H 	H 	0.52670 0.41970 0.74460 0.05800
H 	H 	0.40210 0.61140 0.53700 0.08100
H 	H 	0.92930 0.08420 0.62250 0.08300
H 	H 	0.12070 0.08480 0.16540 0.08000
H 	H 	0.40720 0.40120 0.81060 0.08500
H 	H 	0.40950 0.68120 0.58960 0.02500
H 	H 	0.93420 0.81120 0.60810 0.02800
H 	H 	0.37800 0.38840 0.48500 0.08000
H 	H 	0.68910 0.51570 0.17670 0.08300
H 	H 	0.87360 0.90590 0.17960 0.09000
H 	H 	0.37830 0.42810 0.11190 0.07700
H 	H 	0.55430 0.34530 0.32340 0.01300
H 	H 	0.08530 0.87630 0.45400 0.08400
H 	H 	0.76750 0.85260 0.18280 -0.00400
H 	H 	0.56950 0.41740 0.37220 0.08100
H 	H 	0.31520 0.07680 0.32620 0.03700
H 	H 	0.92930 0.91580 0.87750 0.08200
H 	H 	0.96520 0.99530 0.39520 0.05700
H 	H 	0.56950 0.58260 0.12780 0.08100
H 	H 	0.65890 0.07610 0.17670 0.02500
H 	H 	0.47360 0.49610 0.39390 0.05800
H 	H 	0.13500 0.09900 0.51450 0.08400
H 	H 	0.98930 0.07980 0.24290 0.05900
H 	H 	0.91470 0.87630 0.54600 0.08400
H 	H 	0.68480 0.07680 0.67380 0.03700
H 	H 	0.52640 0.50390 0.89390 0.05800
H 	H 	0.14400 0.42430 0.17700 0.04200
H 	H 	0.47330 0.41970 0.25540 0.05800
H 	H 	0.35160 0.40740 0.32700 0.07700
H 	H 	0.40720 0.59880 0.68940 0.08500
H 	H 	0.64130 0.68330 0.93580 0.03400
H 	H 	0.47330 0.58030 0.24460 0.05800
H 	H 	0.23270 0.02230 0.81920 0.08500
H 	H 	0.40950 0.31880 0.91040 0.02500
H 	H 	0.80300 0.56660 0.16660 0.02900
H 	H 	0.86130 0.92590 0.39810 0.08300
H 	H 	0.08530 0.12370 0.04600 0.08400
H 	H 	0.23840 0.86840 0.33590 0.03500
H 	H 	0.37380 0.64070 0.33200 0.03800
H 	H 	0.13870 0.92590 0.60190 0.08300
H 	H 	0.91470 0.12370 0.95400 0.08400
H 	H 	0.76160 0.13160 0.83590 0.03500
H 	H 	0.31090 0.51570 0.82330 0.08300
H 	H 	0.76360 0.35890 0.67200 0.04800
H 	H 	0.76750 0.14740 0.31720 -0.00400
H 	H 	0.01070 0.07980 0.75710 0.05900
H 	H 	0.37380 0.35930 0.16800 0.03800
H 	H 	0.29530 0.34990 0.79810 -0.01000
H 	H 	0.62170 0.57190 0.61190 0.07700
H 	H 	0.04530 0.15770 0.33550 0.02700
H 	H 	0.62170 0.42810 0.88810 0.07700
H 	H 	0.87930 0.91520 0.66540 0.08000
H 	H 	0.62200 0.38840 0.51500 0.08000
H 	H 	0.35870 0.31670 0.43580 0.03400
H 	H 	0.19810 0.02730 0.32670 0.07700
H 	H 	0.13500 0.90100 0.98550 0.08400
H 	H 	0.80300 0.43340 0.33340 0.02900
H 	H 	0.04530 0.84230 0.16450 0.02600
H 	H 	0.40210 0.38860 0.96300 0.08100
H 	H 	0.15900 0.13990 0.84010 0.01700
H 	H 	0.23250 0.85260 0.81720 -0.00400
H 	H 	0.96520 0.00470 0.10480 0.05700
H 	H 	0.06580 0.81120 0.39190 0.02800
H 	H 	0.06580 0.18880 0.10810 0.02800
C 	C 	0.72380 0.07845 0.70620 0.04200
C 	C 	0.74620 0.54850 0.70900 -0.10900
C 	C 	0.36390 0.84487 0.74280 0.34800
C 	C 	0.37230 0.44690 0.74377 0.07500
C 	C 	0.91860 0.21653 0.35120 0.39600
C 	C 	0.52600 0.71402 0.66940 0.32500
C 	C 	0.28910 0.89027 0.25400 -0.10100
C 	C 	0.37230 0.55310 0.75623 0.07500
C 	C 	0.01270 0.03752 0.53151 -0.01300
C 	C 	0.49280 0.46063 0.03257 -0.01100
C 	C 	0.14540 0.94721 0.25350 0.06800
C 	C 	0.41360 0.37994 0.45240 -0.12500
C 	C 	0.25380 0.45150 0.20900 -0.10900
C 	C 	0.06560 0.21313 0.81844 0.38300
C 	C 	0.05040 0.17099 0.86030 -0.13500
C 	C 	0.49080 0.54546 0.03169 -0.01300
C 	C 	0.23990 0.42669 0.69480 0.05600
C 	C 	0.54380 0.32317 0.62546 -0.11200
C 	C 	0.20530 0.04895 0.29480 -0.12000
C 	C 	0.97870 0.99523 0.43750 -0.06400
C 	C 	0.47297 0.54785 0.24643 -0.06600
C 	C 	0.96360 0.12647 0.93030 -0.13700
C 	C 	0.41360 0.62006 0.04760 -0.12500
C 	C 	0.20530 0.95105 0.20520 -0.12000
C 	C 	0.58170 0.63515 0.64070 0.03800
C 	C 	0.71090 0.89027 0.74600 -0.10100
C 	C 	0.70290 0.08020 0.20500 0.06800
C 	C 	0.15930 0.08313 0.19810 -0.12600
C 	C 	0.76010 0.57331 0.19480 0.05600
C 	C 	0.44800 0.38268 0.93716 -0.12800
C 	C 	0.02430 0.16592 0.10610 0.06000
C 	C 	0.08140 0.78347 0.85120 0.39600
C 	C 	0.48030 0.66853 0.36650 -0.10800
C 	C 	0.50940 0.58442 0.56850 0.06900
C 	C 	0.52703 0.45215 0.74643 -0.06600
C 	C 	0.29820 0.62327 0.72620 0.06000
C 	C 	0.63870 0.14321 0.75440 0.33800
C 	C 	0.09730 0.09706 0.89750 -0.14200
C 	C 	0.01050 0.95313 0.53218 -0.01300
C 	C 	0.75920 0.38191 0.70240 0.02900
C 	C 	0.94960 0.82901 0.36030 -0.13500
C 	C 	0.96360 0.87353 0.56970 -0.13800
C 	C 	0.36590 0.59261 0.71920 -0.14500
C 	C 	0.97560 0.10140 0.60910 -0.13600
C 	C 	0.03640 0.87353 0.43030 -0.13800
C 	C 	0.48030 0.33147 0.13350 -0.10800
C 	C 	0.45020 0.52416 0.75248 -0.01500
C 	C 	0.47240 0.60292 0.88560 -0.13700
C 	C 	0.55420 0.72345 0.84460 0.33600
C 	C 	0.27620 0.92155 0.20620 0.04200
C 	C 	0.15930 0.91687 0.30190 -0.12600
C 	C 	0.63410 0.40739 0.21920 -0.14500
C 	C 	0.54980 0.47584 0.25248 -0.01500
C 	C 	0.51590 0.50356 0.93660 -0.06500
C 	C 	0.97560 0.89860 0.89090 -0.13500
C 	C 	0.63610 0.84487 0.25720 0.34800
C 	C 	0.02910 0.08336 0.56317 0.07500
C 	C 	0.41830 0.36485 0.14070 0.03800
C 	C 	0.97570 0.83408 0.60610 0.06000
C 	C 	0.06630 0.97538 0.25203 -0.01200
C 	C 	0.52600 0.28598 0.83060 0.32500
C 	C 	0.52760 0.60292 0.11440 -0.13700
C 	C 	0.48410 0.49644 0.43660 -0.06500
C 	C 	0.70180 0.37673 0.22620 0.05900
C 	C 	0.69040 0.41126 0.70290 -0.10800
C 	C 	0.48170 0.35351 0.64416 0.05100
C 	C 	0.36130 0.14321 0.24560 0.33800
C 	C 	0.23200 0.04798 0.79263 -0.14400
C 	C 	0.55200 0.38268 0.06284 -0.12800
C 	C 	0.93370 0.97538 0.74797 -0.01200
C 	C 	0.89650 0.64586 0.75250 0.30000
C 	C 	0.91860 0.78347 0.14880 0.39600
C 	C 	0.23240 0.87713 0.78887 0.07200
C 	C 	0.99180 0.14537 0.63520 0.06300
C 	C 	0.23570 0.61375 0.76920 -0.14000
C 	C 	0.97090 0.91664 0.06317 0.07500
C 	C 	0.52760 0.39708 0.38560 -0.13700
C 	C 	0.09900 0.11004 0.54550 -0.13600
C 	C 	0.49060 0.58442 0.43150 0.06900
C 	C 	0.02340 0.90901 0.56803 0.07600
C 	C 	0.16510 0.05382 0.75060 0.08300
C 	C 	0.11530 0.84771 0.92680 0.06600
C 	C 	0.88470 0.84771 0.07320 0.06600
C 	C 	0.52400 0.41015 0.56583 0.07500
C 	C 	0.18500 0.57869 0.29220 0.02600
C 	C 	0.55420 0.27655 0.65540 0.33600
C 	C 	0.79470 0.95105 0.79480 -0.12000
C 	C 	0.91135 0.02402 0.24859 -0.01600
C 	C 	0.06560 0.78687 0.68156 0.38200
C 	C 	0.89070 0.86349 0.36270 0.06800
C 	C 	0.23000 0.11125 0.19740 0.04400
C 	C 	0.08865 0.97598 0.74859 -0.01700
C 	C 	0.25380 0.54850 0.29100 -0.10900
C 	C 	0.02130 0.00477 0.93750 -0.06400
C 	C 	0.44580 0.27655 0.34460 0.33600
C 	C 	0.10930 0.86349 0.63730 0.06800
C 	C 	0.23990 0.57331 0.80520 0.05600
C 	C 	0.62770 0.55310 0.24377 0.07500
C 	C 	0.90100 0.88996 0.04550 -0.13600
C 	C 	0.49060 0.41558 0.06850 0.06900
C 	C 	0.98730 0.03752 0.46849 -0.01300
C 	C 	0.09730 0.90294 0.60250 -0.14200
C 	C 	0.60470 0.52448 0.75199 -0.01100
C 	C 	0.02340 0.09099 0.93197 0.07500
C 	C 	0.77000 0.88875 0.69740 0.04400
C 	C 	0.52400 0.58985 0.93417 0.07500
C 	C 	0.52703 0.54785 0.75357 -0.06600
C 	C 	0.23240 0.12287 0.71113 0.07200
C 	C 	0.85460 0.05279 0.75350 0.06800
C 	C 	0.54980 0.52416 0.24752 -0.01500
C 	C 	0.23000 0.88875 0.30260 0.04400
C 	C 	0.59810 0.66356 0.92310 0.04200
C 	C 	0.50920 0.54546 0.96831 -0.01300
C 	C 	0.01270 0.96248 0.96849 -0.01300
C 	C 	0.94960 0.17099 0.13970 -0.13500
C 	C 	0.29710 0.11923 0.75470 -0.15300
C 	C 	0.02430 0.83408 0.39390 0.06000
C 	C 	0.70290 0.91980 0.29500 0.06800
C 	C 	0.27620 0.07845 0.29380 0.04200
C 	C 	0.47600 0.41015 0.43417 0.07500
C 	C 	0.76760 0.87713 0.21113 0.07200
C 	C 	0.29820 0.37673 0.77380 0.05900
C 	C 	0.17790 0.38674 0.25270 -0.07900
C 	C 	0.47400 0.71402 0.33060 0.32500
C 	C 	0.69040 0.58874 0.79710 -0.10800
C 	C 	0.36590 0.40739 0.78080 -0.14500
C 	C 	0.23570 0.38625 0.73080 -0.14000
C 	C 	0.93370 0.02462 0.75203 -0.01200
C 	C 	0.93820 0.17034 0.38200 -0.13900
C 	C 	0.76430 0.38625 0.26920 -0.14000
C 	C 	0.85460 0.94721 0.74650 0.06800
C 	C 	0.98950 0.04687 0.03218 -0.01300
C 	C 	0.97090 0.08336 0.43683 0.07500
C 	C 	0.47600 0.58985 0.06583 0.07500
C 	C 	0.68230 0.55300 0.75240 0.05700
C 	C 	0.74620 0.45150 0.79100 -0.10900
C 	C 	0.54790 0.34074 0.09451 0.04200
C 	C 	0.90270 0.90294 0.39750 -0.14200
C 	C 	0.36130 0.85679 0.25440 0.33800
C 	C 	0.58640 0.37994 0.54760 -0.12500
C 	C 	0.45620 0.67683 0.12546 -0.11200
C 	C 	0.75920 0.61809 0.79760 0.02900
C 	C 	0.51830 0.64649 0.14416 0.05100
C 	C 	0.98940 0.95254 0.25400 -0.06500
C 	C 	0.02440 0.89860 0.10910 -0.13500
C 	C 	0.84070 0.91687 0.69810 -0.12600
C 	C 	0.63870 0.85679 0.74560 0.33800
C 	C 	0.76800 0.04798 0.20737 -0.14400
C 	C 	0.79470 0.04895 0.70520 -0.12000
C 	C 	0.08140 0.21653 0.64880 0.39600
C 	C 	0.02440 0.10140 0.39090 -0.13600
C 	C 	0.83700 0.64594 0.22340 0.32100
C 	C 	0.47297 0.45215 0.25357 -0.06600
C 	C 	0.42150 0.40643 0.10790 -0.12300
C 	C 	0.76010 0.42669 0.30520 0.05600
C 	C 	0.57850 0.40643 0.89210 -0.12300
C 	C 	0.06630 0.02462 0.24797 -0.01200
C 	C 	0.01060 0.95254 0.74600 -0.06500
C 	C 	0.98940 0.04746 0.24600 -0.06500
C 	C 	0.83490 0.94618 0.25060 0.08300
C 	C 	0.44580 0.72345 0.15540 0.33600
C 	C 	0.70290 0.88077 0.25470 -0.15300
C 	C 	0.31770 0.55300 0.24760 0.05700
C 	C 	0.89070 0.13651 0.13730 0.06800
C 	C 	0.93440 0.78687 0.31844 0.38200
C 	C 	0.88470 0.15229 0.42680 0.06600
C 	C 	0.68230 0.44700 0.74760 0.05700
C 	C 	0.84070 0.08313 0.80190 -0.12600
C 	C 	0.10930 0.13651 0.86270 0.06800
C 	C 	0.29710 0.88077 0.74530 -0.15300
C 	C 	0.00820 0.85463 0.13520 0.06400
C 	C 	0.31770 0.44700 0.25240 0.05700
C 	C 	0.16300 0.64594 0.77660 0.32100
C 	C 	0.39530 0.52448 0.24801 -0.01100
C 	C 	0.70180 0.62327 0.27380 0.06000
C 	C 	0.28910 0.10973 0.24600 -0.10100
C 	C 	0.29710 0.91980 0.70500 0.06800
C 	C 	0.69190 0.45734 0.29910 -0.13500
C 	C 	0.91135 0.97598 0.25141 -0.01700
C 	C 	0.58170 0.36485 0.85930 0.03800
C 	C 	0.42150 0.59357 0.39210 -0.12300
C 	C 	0.98950 0.95313 0.46782 -0.01300
C 	C 	0.40190 0.66356 0.07690 0.04200
C 	C 	0.30810 0.45734 0.70090 -0.13500
C 	C 	0.17790 0.61326 0.24730 -0.07900
C 	C 	0.08865 0.02402 0.75141 -0.01600
C 	C 	0.49080 0.45454 0.46831 -0.01300
C 	C 	0.51970 0.33147 0.86650 -0.10800
C 	C 	0.97570 0.16592 0.89390 0.06000
C 	C 	0.89650 0.35414 0.74750 0.30000
C 	C 	0.44800 0.61732 0.56284 -0.12800
C 	C 	0.76760 0.12287 0.28887 0.07200
C 	C 	0.81500 0.57869 0.70780 0.02600
C 	C 	0.06180 0.17034 0.61800 -0.13900
C 	C 	0.50720 0.53937 0.53257 -0.01100
C 	C 	0.98730 0.96248 0.03151 -0.01300
C 	C 	0.02130 0.99523 0.56250 -0.06400
C 	C 	0.30960 0.41126 0.29710 -0.10800
C 	C 	0.83130 0.90917 0.20940 -0.15000
C 	C 	0.50920 0.45454 0.53169 -0.01300
C 	C 	0.24080 0.38191 0.29760 0.02900
C 	C 	0.51830 0.35351 0.35584 0.05100
C 	C 	0.62770 0.44690 0.25623 0.07500
C 	C 	0.05040 0.82901 0.63970 -0.13500
C 	C 	0.82210 0.38674 0.74730 -0.07900
C 	C 	0.01060 0.04746 0.75400 -0.06500
C 	C 	0.83490 0.05382 0.24940 0.08300
C 	C 	0.51970 0.66853 0.63350 -0.10800
C 	C 	0.51590 0.49644 0.56340 -0.06500
C 	C 	0.30960 0.58874 0.20290 -0.10800
C 	C 	0.39530 0.47552 0.25199 -0.01100
C 	C 	0.11530 0.15229 0.57320 0.06600
C 	C 	0.82210 0.61326 0.75270 -0.07900
C 	C 	0.57850 0.59357 0.60790 -0.12300
C 	C 	0.14540 0.05279 0.24650 0.06800
C 	C 	0.10350 0.64586 0.24750 0.30000
C 	C 	0.09900 0.88996 0.95450 -0.13600
C 	C 	0.99180 0.85463 0.86480 0.06400
C 	C 	0.18500 0.42131 0.20780 0.02600
C 	C 	0.48170 0.64649 0.85584 0.05100
C 	C 	0.16300 0.35406 0.72340 0.32100
C 	C 	0.76430 0.61375 0.23080 -0.14000
C 	C 	0.41830 0.63515 0.35930 0.03800
C 	C 	0.45210 0.65926 0.59451 0.04200
C 	C 	0.90270 0.09706 0.10250 -0.14200
C 	C 	0.81500 0.42131 0.79220 0.02600
C 	C 	0.93440 0.21313 0.18156 0.38300
C 	C 	0.63610 0.15513 0.24280 0.34800
C 	C 	0.01050 0.04687 0.96782 -0.01300
C 	C 	0.16870 0.90917 0.79060 -0.15000
C 	C 	0.47400 0.28598 0.16940 0.32500
C 	C 	0.60470 0.47552 0.74801 -0.01100
C 	C 	0.97660 0.09099 0.06803 0.07500
C 	C 	0.40190 0.33644 0.42310 0.04200
C 	C 	0.76800 0.95202 0.29263 -0.14400
C 	C 	0.36390 0.15513 0.75720 0.34800
C 	C 	0.63410 0.59261 0.28080 -0.14500
C 	C 	0.47240 0.39708 0.61440 -0.13700
C 	C 	0.23200 0.95202 0.70737 -0.14400
C 	C 	0.97660 0.90901 0.43197 0.07600
C 	C 	0.00820 0.14537 0.36480 0.06300
C 	C 	0.16870 0.09083 0.70940 -0.15000
C 	C 	0.59810 0.33644 0.57690 0.04200
C 	C 	0.97870 0.00477 0.06250 -0.06400
C 	C 	0.16510 0.94618 0.74940 0.08300
C 	C 	0.72380 0.92155 0.79380 0.04200
C 	C 	0.06180 0.82966 0.88200 -0.14000
C 	C 	0.24080 0.61809 0.20240 0.02900
C 	C 	0.83130 0.09083 0.29060 -0.15000
C 	C 	0.50720 0.46063 0.96743 -0.01100
C 	C 	0.30810 0.54266 0.79910 -0.13500
C 	C 	0.10350 0.35414 0.25250 0.30000
C 	C 	0.55200 0.61732 0.43716 -0.12800
C 	C 	0.48410 0.50356 0.06340 -0.06500
C 	C 	0.93820 0.82966 0.11800 -0.14000
C 	C 	0.77000 0.11125 0.80260 0.04400
C 	C 	0.45020 0.47584 0.74752 -0.01500
C 	C 	0.83700 0.35406 0.27660 0.32100
C 	C 	0.90100 0.11004 0.45450 -0.13600
C 	C 	0.54790 0.65926 0.40549 0.04200
C 	C 	0.03640 0.12647 0.06970 -0.13700
C 	C 	0.29710 0.08020 0.79500 0.06800
C 	C 	0.45620 0.32317 0.37454 -0.11200
C 	C 	0.45210 0.34074 0.90549 0.04200
C 	C 	0.50940 0.41558 0.93150 0.06900
C 	C 	0.54380 0.67683 0.87454 -0.11200
C 	C 	0.49280 0.53937 0.46743 -0.01100
C 	C 	0.02910 0.91664 0.93683 0.07500
C 	C 	0.71090 0.10973 0.75400 -0.10100
C 	C 	0.58640 0.62006 0.95240 -0.12500
C 	C 	0.70290 0.11923 0.24530 -0.15300
C 	C 	0.69190 0.54266 0.20090 -0.13500
O 	O 	0.56860 0.14628 0.21404 -0.37800
O 	O 	0.10380 0.36338 0.68737 -0.34500
O 	O 	0.95005 0.64314 0.71030 -0.34900
O 	O 	0.99060 0.75533 0.31814 -0.41400
O 	O 	0.16375 0.31684 0.75760 -0.52800
O 	O 	0.41360 0.27894 0.20268 -0.34600
O 	O 	0.37560 0.16625 0.19940 -0.37200
O 	O 	0.37685 0.74385 0.15408 -0.27400
O 	O 	0.00940 0.24467 0.81814 -0.41500
O 	O 	0.09830 0.32390 0.29631 -0.35200
O 	O 	0.46570 0.74317 0.66444 -0.39300
O 	O 	0.09830 0.67610 0.20369 -0.35100
O 	O 	0.89620 0.63662 0.18737 -0.34500
O 	O 	0.48845 0.74029 0.81916 -0.40900
O 	O 	0.40640 0.85410 0.20560 -0.33900
O 	O 	0.35104 0.19436 0.73155 -0.48500
O 	O 	0.84480 0.22973 0.34910 -0.44900
O 	O 	0.04995 0.35686 0.21030 -0.34900
O 	O 	0.59360 0.85410 0.79440 -0.33900
O 	O 	0.37685 0.25615 0.34592 -0.27500
O 	O 	0.84480 0.77027 0.15090 -0.44900
O 	O 	0.89620 0.36338 0.31263 -0.34500
O 	O 	0.83625 0.68316 0.25760 -0.52800
O 	O 	0.56860 0.85372 0.28596 -0.37800
O 	O 	0.00940 0.75533 0.68186 -0.41400
O 	O 	0.16375 0.68316 0.74240 -0.52800
O 	O 	0.51155 0.74029 0.18084 -0.40900
O 	O 	0.86830 0.21215 0.21243 -0.47700
O 	O 	0.46570 0.25683 0.83556 -0.39300
O 	O 	0.51155 0.25971 0.31916 -0.40900
O 	O 	0.62440 0.83375 0.69940 -0.37200
O 	O 	0.90170 0.67610 0.79631 -0.35100
O 	O 	0.90170 0.32390 0.70369 -0.35200
O 	O 	0.37560 0.83375 0.30060 -0.37200
O 	O 	0.40640 0.14590 0.29440 -0.33900
O 	O 	0.43140 0.14628 0.78596 -0.37800
O 	O 	0.53430 0.74317 0.33556 -0.39300
O 	O 	0.15520 0.77027 0.84910 -0.44900
O 	O 	0.62315 0.74385 0.84592 -0.27400
O 	O 	0.86830 0.78785 0.28757 -0.47700
O 	O 	0.99060 0.24467 0.18186 -0.41500
O 	O 	0.13170 0.21215 0.78757 -0.47700
O 	O 	0.01900 0.76174 0.82900 -0.42300
O 	O 	0.04995 0.64314 0.28970 -0.34900
O 	O 	0.64896 0.19436 0.26845 -0.48500
O 	O 	0.83625 0.31684 0.24240 -0.52800
O 	O 	0.58640 0.72106 0.70268 -0.34600
O 	O 	0.58640 0.27894 0.79732 -0.34600
O 	O 	0.53430 0.25683 0.16444 -0.39300
O 	O 	0.95005 0.35686 0.78970 -0.34900
O 	O 	0.35104 0.80564 0.76845 -0.48600
O 	O 	0.43140 0.85372 0.71404 -0.37800
O 	O 	0.59360 0.14590 0.70560 -0.33900
O 	O 	0.98100 0.76174 0.17100 -0.42300
O 	O 	0.64896 0.80564 0.23155 -0.48600
O 	O 	0.48845 0.25971 0.68084 -0.40900
O 	O 	0.41360 0.72106 0.29732 -0.34600
O 	O 	0.10380 0.63662 0.81263 -0.34500
O 	O 	0.01900 0.23826 0.67100 -0.42300
O 	O 	0.13170 0.78785 0.71243 -0.47700
O 	O 	0.98100 0.23826 0.32900 -0.42300
O 	O 	0.62315 0.25615 0.65408 -0.27500
O 	O 	0.15520 0.22973 0.65090 -0.44900
O 	O 	0.62440 0.16625 0.80060 -0.37200
