data_crystal

_cell_length_a 10.11700
_cell_length_b 29.53900
_cell_length_c 29.55600
_cell_angle_alpha 91.44600
_cell_angle_beta  93.32100
_cell_angle_gamma 91.61500

_symmetry_space_group_name_	'P 1'
_symmetry_space_group_name_H-M	'P 1'

loop_
_symmetry_equiv_pos_as_xyz
  x,y,z

loop_
_atom_site_label
_atom_site_type_symbol
_atom_site_fract_x
_atom_site_fract_y
_atom_site_fract_z
_atom_site_charge
Zn	Zn	0.89940 0.23206 0.77574 1.20100
Zn	Zn	0.25868 0.40600 0.59359 1.21700
Zn	Zn	0.26718 0.03857 0.59677 1.21100
Zn	Zn	0.60471 0.22766 0.76648 1.19800
Zn	Zn	0.23600 0.40468 0.96225 1.21100
Zn	Zn	0.24767 0.05175 0.94888 1.21000
H 	H 	0.12270 0.78920 0.75810 0.06600
H 	H 	0.37700 0.02660 0.04220 0.01200
H 	H 	0.24910 0.57350 0.59460 0.09700
H 	H 	0.54200 0.13040 0.87170 0.04000
H 	H 	0.08960 0.13840 0.07580 0.07500
H 	H 	0.13340 0.95840 0.97420 0.00900
H 	H 	0.36070 0.49810 0.98490 -0.01500
H 	H 	0.04050 0.14660 0.14090 0.03400
H 	H 	0.15400 0.07500 0.36750 0.02200
H 	H 	0.13110 0.29010 0.47760 0.08300
H 	H 	0.35460 0.21760 0.35800 0.07000
H 	H 	0.34740 0.63340 0.92630 0.03100
H 	H 	0.43090 0.95220 0.59160 0.00100
H 	H 	0.56850 0.32910 0.66920 0.03600
H 	H 	0.45300 0.85980 0.85040 0.03300
H 	H 	0.15950 0.01520 0.50060 -0.02500
H 	H 	0.74590 0.04650 0.95330 0.03300
H 	H 	0.38100 0.13000 0.25110 0.06400
H 	H 	0.04240 0.18690 0.20880 0.06100
H 	H 	0.43960 0.82310 0.65780 0.02700
H 	H 	0.10350 0.52310 0.85810 0.09400
H 	H 	0.35210 0.15010 0.48330 0.10700
H 	H 	0.12470 0.75100 0.86870 0.06400
H 	H 	0.43310 0.88230 0.62370 0.08800
H 	H 	0.77370 0.03460 0.59040 0.03900
H 	H 	0.45990 0.79150 0.81210 0.06000
H 	H 	0.38940 0.27860 0.14540 0.03100
H 	H 	0.37130 0.18100 0.42490 0.01800
H 	H 	0.29440 0.39920 0.42820 0.10600
H 	H 	0.40190 0.31630 0.09030 0.08100
H 	H 	0.94140 0.12730 0.87100 0.03900
H 	H 	0.29380 0.12380 0.55350 -0.03300
H 	H 	0.09370 0.90810 0.67750 0.08800
H 	H 	0.34110 0.35580 0.36970 0.02800
H 	H 	0.37800 0.23860 0.21190 0.06100
H 	H 	0.39180 0.52070 0.70890 0.09000
H 	H 	0.36560 0.70090 0.88720 0.06300
H 	H 	0.16640 0.69700 0.68470 0.06700
H 	H 	0.91590 0.32970 0.88050 0.03500
H 	H 	0.35810 0.04830 0.11790 0.07800
H 	H 	0.58600 0.12000 0.67050 0.03500
H 	H 	0.35740 0.45050 0.67500 -0.02200
H 	H 	0.40350 0.35280 0.02290 -0.01300
H 	H 	0.03110 0.28280 0.40800 0.02900
H 	H 	0.14000 0.11280 0.30000 0.06700
H 	H 	0.15500 0.88350 0.95160 0.08100
H 	H 	0.37890 0.08910 0.18240 0.03000
H 	H 	0.06050 0.34430 0.17550 0.03200
H 	H 	0.21250 0.49970 0.56500 -0.03100
H 	H 	0.31450 0.43090 0.50120 -0.04400
H 	H 	0.12610 0.81990 0.90940 0.03000
H 	H 	0.14830 0.64460 0.78190 0.06700
H 	H 	0.47240 0.65780 0.76460 0.06900
H 	H 	0.18100 0.04430 0.42890 0.11900
H 	H 	0.98600 0.12380 0.67220 0.03900
H 	H 	0.05110 0.30320 0.24100 0.06200
H 	H 	0.11060 0.11300 0.00280 -0.01600
H 	H 	0.07440 0.38060 0.11720 0.08500
H 	H 	0.11750 0.85630 0.72060 0.02600
H 	H 	0.39670 0.92540 0.85760 0.07700
H 	H 	0.96450 0.33340 0.67400 0.03500
H 	H 	0.45130 0.75690 0.69920 0.06700
H 	H 	0.13160 0.57760 0.81910 0.02500
H 	H 	0.34480 0.31270 0.30370 0.06800
H 	H 	0.47900 0.59070 0.72300 0.02900
H 	H 	0.07950 0.41340 0.04770 0.00100
H 	H 	0.14230 0.32760 0.54830 -0.00900
H 	H 	0.51740 0.32860 0.87780 0.03700
H 	H 	0.02850 0.24000 0.33930 0.06800
H 	H 	0.11850 0.45130 0.89020 -0.02800
H 	H 	0.73200 0.41010 0.96730 0.03800
H 	H 	0.09060 0.97640 0.64040 -0.01600
H 	H 	0.36110 0.56840 0.95370 0.10800
H 	H 	0.76260 0.41310 0.58820 0.04000
H 	H 	0.38000 0.99800 0.88350 -0.01500
H 	H 	0.16750 0.62960 0.64340 0.03000
C 	C 	0.11320 0.14410 0.16240 -0.01200
C 	C 	0.48370 0.38877 0.94478 0.31500
C 	C 	0.18520 0.83560 0.71490 0.00400
C 	C 	0.19050 0.79620 0.73830 -0.10200
C 	C 	0.27870 0.33140 0.36440 0.00600
C 	C 	0.02040 0.05679 0.61164 0.30700
C 	C 	0.19130 0.77347 0.86401 -0.09100
C 	C 	0.77720 0.05830 0.61280 0.04700
C 	C 	0.22470 0.31600 0.15365 -0.04000
C 	C 	0.29760 0.72387 0.75970 -0.04900
C 	C 	0.78590 0.12806 0.67724 -0.13400
C 	C 	0.23270 0.34260 0.11172 0.10300
C 	C 	0.16300 0.09980 0.02648 0.08600
C 	C 	0.09630 0.28900 0.38700 0.00100
C 	C 	0.90250 0.11128 0.66119 0.05800
C 	C 	0.25520 0.38320 0.45170 -0.21600
C 	C 	0.97280 0.39191 0.94630 0.33600
C 	C 	0.27540 0.84601 0.68320 -0.05400
C 	C 	0.31420 0.55710 0.65630 0.12400
C 	C 	0.86320 0.08304 0.91422 -0.11100
C 	C 	0.21520 0.06180 0.45460 -0.22700
C 	C 	0.22440 0.09704 0.10677 0.08800
C 	C 	0.30700 0.50250 0.95800 0.13200
C 	C 	0.31990 0.67552 0.87270 -0.09800
C 	C 	0.25830 0.12412 0.40416 -0.08900
C 	C 	0.18900 0.95148 0.95030 0.09100
C 	C 	0.11990 0.29750 0.22130 -0.09200
C 	C 	0.31110 0.25950 0.20430 -0.08900
C 	C 	0.33320 0.47630 0.65820 0.10900
C 	C 	0.60520 0.37169 0.92554 -0.11700
C 	C 	0.20890 0.26470 0.23273 0.05400
C 	C 	0.23990 0.59743 0.87610 -0.05900
C 	C 	0.14280 0.37300 0.09790 -0.15900
C 	C 	0.30840 0.54470 0.93890 -0.18500
C 	C 	0.27570 0.89531 0.90183 0.09500
C 	C 	0.33290 0.35820 0.04200 0.09000
C 	C 	0.41260 0.61170 0.71530 0.00200
C 	C 	0.51780 0.39126 0.60637 0.34200
C 	C 	0.74440 0.06888 0.93077 0.05100
C 	C 	0.16820 0.47590 0.90460 0.12800
C 	C 	0.28360 0.72205 0.80470 -0.03700
C 	C 	0.76720 0.29076 0.71211 0.41300
C 	C 	0.88200 0.37629 0.62838 -0.12200
C 	C 	0.28110 0.30560 0.32500 -0.10500
C 	C 	0.23610 0.17130 0.32155 0.06400
C 	C 	0.18380 0.12750 0.32585 -0.11000
C 	C 	0.14770 0.39340 0.05630 0.09500
C 	C 	0.26940 0.40230 0.49730 0.18600
C 	C 	0.62350 0.11837 0.88272 0.05700
C 	C 	0.64550 0.37472 0.62549 -0.12700
C 	C 	0.74180 0.13322 0.86562 -0.12900
C 	C 	0.26520 0.10170 0.44790 0.19400
C 	C 	0.38780 0.79740 0.83040 -0.08600
C 	C 	0.09600 0.26260 0.34590 -0.10200
C 	C 	0.18730 0.32250 0.39640 -0.06000
C 	C 	0.71630 0.32398 0.87289 -0.13500
C 	C 	0.76340 0.39101 0.61098 0.06400
C 	C 	0.83640 0.34063 0.89179 0.06900
C 	C 	0.15000 0.11510 0.07010 -0.14000
C 	C 	0.20850 0.04280 0.49800 0.15900
C 	C 	0.50000 0.06912 0.93581 0.31500
C 	C 	0.30660 0.12160 0.48480 -0.22900
C 	C 	0.86070 0.11613 0.88199 0.06000
C 	C 	0.19270 0.34570 0.44130 0.13300
C 	C 	0.26720 0.67937 0.82920 0.05800
C 	C 	0.22980 0.63480 0.66840 0.00200
C 	C 	0.66610 0.10878 0.65999 0.06700
C 	C 	0.84370 0.37271 0.92664 -0.12200
C 	C 	0.88230 0.34365 0.66157 0.07600
C 	C 	0.72770 0.38802 0.94331 0.05400
C 	C 	0.31210 0.11042 0.18700 -0.01200
C 	C 	0.74070 0.16935 0.82985 0.41000
C 	C 	0.28610 0.76463 0.83340 0.04900
C 	C 	0.52830 0.05379 0.61023 0.32600
C 	C 	0.28860 0.10380 0.52770 0.14000
C 	C 	0.21590 0.11680 0.15262 -0.03500
C 	C 	0.33260 0.33620 0.08240 -0.15600
C 	C 	0.76820 0.32630 0.67656 -0.14500
C 	C 	0.66000 0.07462 0.62876 -0.11300
C 	C 	0.22800 0.67470 0.69350 -0.10400
C 	C 	0.35240 0.51820 0.67900 -0.17200
C 	C 	0.16260 0.51940 0.88380 -0.18800
C 	C 	0.98990 0.06358 0.93140 0.30900
C 	C 	0.31210 0.68333 0.73080 0.06300
C 	C 	0.26940 0.54870 0.61340 -0.18700
C 	C 	0.11430 0.16790 0.20320 -0.08700
C 	C 	0.71280 0.29012 0.83326 0.41000
C 	C 	0.36320 0.90210 0.62930 -0.16600
C 	C 	0.17380 0.34290 0.52300 0.07700
C 	C 	0.60090 0.33990 0.89036 0.06500
C 	C 	0.32250 0.60170 0.67930 -0.05600
C 	C 	0.18110 0.60238 0.83330 0.00300
C 	C 	0.29300 0.76632 0.73370 0.06700
C 	C 	0.64900 0.34129 0.65891 0.07200
C 	C 	0.32120 0.16729 0.39979 0.01900
C 	C 	0.31020 0.18903 0.36003 -0.10900
C 	C 	0.26490 0.88888 0.65700 0.12000
C 	C 	0.19270 0.64220 0.81090 -0.09900
C 	C 	0.12570 0.32250 0.18220 -0.01000
C 	C 	0.30700 0.06300 0.09493 -0.13700
C 	C 	0.38100 0.77690 0.70380 -0.10800
C 	C 	0.16570 0.95810 0.63820 0.10300
C 	C 	0.20480 0.23970 0.27587 -0.04300
C 	C 	0.16070 0.32090 0.48050 -0.15400
C 	C 	0.21820 0.19500 0.27782 -0.04100
C 	C 	0.00880 0.39463 0.61103 0.33100
C 	C 	0.19150 0.81482 0.88820 -0.01300
C 	C 	0.89560 0.07610 0.62899 -0.10600
C 	C 	0.79050 0.16719 0.71134 0.41600
C 	C 	0.19240 0.26970 0.31606 0.06300
C 	C 	0.34250 0.93147 0.88210 -0.14600
C 	C 	0.31300 0.13466 0.22832 -0.09400
C 	C 	0.40820 0.65170 0.74030 -0.10200
C 	C 	0.31940 0.28380 0.16480 -0.01100
C 	C 	0.23660 0.55382 0.89940 0.13800
C 	C 	0.16620 0.91640 0.66010 -0.17500
C 	C 	0.25100 0.50370 0.59490 0.14400
C 	C 	0.21670 0.16510 0.23631 0.05300
C 	C 	0.36050 0.94360 0.60980 0.09300
C 	C 	0.28570 0.84824 0.88150 -0.03600
C 	C 	0.62460 0.08550 0.91628 -0.11100
C 	C 	0.30850 0.63515 0.89640 0.00000
C 	C 	0.31680 0.04950 0.04931 0.08500
C 	C 	0.38400 0.83790 0.85370 -0.01000
C 	C 	0.33160 0.97453 0.89712 0.08600
C 	C 	0.37370 0.81670 0.67850 0.00300
C 	C 	0.19310 0.10460 0.36609 0.02200
C 	C 	0.20070 0.90664 0.93645 -0.14700
N 	N 	0.24490 0.06765 0.01568 -0.26700
N 	N 	0.26510 0.06102 0.53346 -0.30200
N 	N 	0.25370 0.98510 0.93099 -0.26500
N 	N 	0.23510 0.46867 0.94063 -0.29300
N 	N 	0.23040 0.38580 0.52977 -0.30800
N 	N 	0.26270 0.97264 0.61520 -0.27600
N 	N 	0.24130 0.38651 0.02798 -0.27500
N 	N 	0.28290 0.46973 0.61621 -0.29500
O 	O 	0.07670 0.37531 0.93140 -0.44300
O 	O 	0.68000 0.18068 0.72186 -0.48700
O 	O 	0.37220 0.37048 0.93044 -0.42900
O 	O 	0.42550 0.06808 0.62737 -0.44500
O 	O 	0.98690 0.03045 0.95734 -0.31200
O 	O 	0.85130 0.18367 0.81864 -0.49000
O 	O 	0.87760 0.27873 0.72800 -0.48300
O 	O 	0.62920 0.18190 0.81475 -0.48200
O 	O 	0.00910 0.02785 0.57932 -0.32700
O 	O 	0.11490 0.37636 0.62525 -0.43900
O 	O 	0.13070 0.07083 0.63015 -0.43000
O 	O 	0.60230 0.27670 0.81650 -0.46500
O 	O 	0.65480 0.27664 0.72279 -0.48300
O 	O 	0.00510 0.42556 0.58362 -0.32700
O 	O 	0.39130 0.08352 0.91831 -0.43500
O 	O 	0.97730 0.42230 0.97618 -0.32200
O 	O 	0.51350 0.41896 0.57598 -0.32900
O 	O 	0.90030 0.18229 0.72649 -0.46900
O 	O 	0.49190 0.41986 0.97459 -0.33500
O 	O 	0.50660 0.04276 0.96812 -0.32200
O 	O 	0.82340 0.27806 0.82131 -0.48400
O 	O 	0.41250 0.37463 0.62171 -0.43800
O 	O 	0.09580 0.08216 0.91810 -0.43200
O 	O 	0.52600 0.02398 0.57928 -0.31700
Zn	Zn	0.10060 0.76794 0.22425 1.20000
Zn	Zn	0.74132 0.59400 0.40641 1.21600
Zn	Zn	0.73282 0.96143 0.40323 1.21100
Zn	Zn	0.75233 0.94825 0.05112 1.21000
Zn	Zn	0.76400 0.59532 0.03775 1.21100
Zn	Zn	0.39529 0.77234 0.23352 1.19800
H 	H 	0.70560 0.60080 0.57180 0.10600
H 	H 	0.68550 0.56910 0.49880 -0.04400
H 	H 	0.87530 0.24900 0.13130 0.06400
H 	H 	0.88250 0.14370 0.27940 0.02600
H 	H 	0.63890 0.43160 0.04630 0.10800
H 	H 	0.26800 0.58990 0.03270 0.03800
H 	H 	0.62200 0.76140 0.78810 0.06100
H 	H 	0.64540 0.78240 0.64200 0.07000
H 	H 	0.62110 0.91090 0.81760 0.03000
H 	H 	0.59650 0.64720 0.97710 -0.01300
H 	H 	0.65890 0.64420 0.63030 0.02800
H 	H 	0.89650 0.47690 0.14190 0.09400
H 	H 	0.62000 0.00200 0.11650 -0.01500
H 	H 	0.92050 0.58660 0.95230 0.00100
H 	H 	0.87730 0.21080 0.24190 0.06600
H 	H 	0.84500 0.11650 0.04840 0.08100
H 	H 	0.86000 0.88720 0.70000 0.06700
H 	H 	0.70620 0.87620 0.44650 -0.03300
H 	H 	0.41400 0.88000 0.32950 0.03500
H 	H 	0.91040 0.86160 0.92420 0.07500
H 	H 	0.59810 0.68370 0.90970 0.08100
H 	H 	0.61900 0.87000 0.74890 0.06400
H 	H 	0.08410 0.67030 0.11950 0.03500
H 	H 	0.93950 0.65570 0.82450 0.03200
H 	H 	0.23740 0.58690 0.41180 0.04000
H 	H 	0.92560 0.61940 0.88280 0.08500
H 	H 	0.45800 0.86960 0.12830 0.04000
H 	H 	0.88150 0.54870 0.10980 -0.02800
H 	H 	0.84050 0.98480 0.49940 -0.02500
H 	H 	0.62300 0.97340 0.95780 0.01200
H 	H 	0.63440 0.29910 0.11280 0.06300
H 	H 	0.97150 0.76000 0.66070 0.06800
H 	H 	0.86660 0.04160 0.02580 0.00900
H 	H 	0.64790 0.84990 0.51670 0.10700
H 	H 	0.85170 0.35540 0.21810 0.06700
H 	H 	0.54700 0.14020 0.14960 0.03300
H 	H 	0.84600 0.92500 0.63250 0.02200
H 	H 	0.86890 0.70990 0.52240 0.08300
H 	H 	0.56690 0.11770 0.37630 0.08800
H 	H 	0.88940 0.88700 0.99720 -0.01600
H 	H 	0.65260 0.36660 0.07370 0.03100
H 	H 	0.78750 0.50030 0.43500 -0.03100
H 	H 	0.63930 0.50190 0.01510 -0.01500
H 	H 	0.25410 0.95350 0.04670 0.03300
H 	H 	0.96890 0.71720 0.59200 0.02900
H 	H 	0.95950 0.85340 0.85910 0.03400
H 	H 	0.75090 0.42650 0.40540 0.09700
H 	H 	0.65520 0.68730 0.69630 0.06800
H 	H 	0.05860 0.87270 0.12900 0.03900
H 	H 	0.60820 0.47930 0.29110 0.09000
H 	H 	0.83360 0.30300 0.31530 0.06700
H 	H 	0.43150 0.67090 0.33080 0.03600
H 	H 	0.61060 0.72140 0.85460 0.03100
H 	H 	0.64260 0.54950 0.32500 -0.02200
H 	H 	0.90630 0.09190 0.32250 0.08800
H 	H 	0.56040 0.17690 0.34220 0.02700
H 	H 	0.83250 0.37040 0.35660 0.03000
H 	H 	0.90940 0.02360 0.35960 -0.01600
H 	H 	0.52760 0.34220 0.23540 0.06900
H 	H 	0.48260 0.67140 0.12220 0.03700
H 	H 	0.60330 0.07460 0.14240 0.07700
H 	H 	0.03550 0.66660 0.32600 0.03500
H 	H 	0.01400 0.87620 0.32780 0.03900
H 	H 	0.87390 0.18010 0.09060 0.03000
H 	H 	0.86840 0.42240 0.18090 0.02500
H 	H 	0.62870 0.81900 0.57510 0.01800
H 	H 	0.81900 0.95570 0.57110 0.11900
H 	H 	0.64190 0.95170 0.88210 0.07800
H 	H 	0.85770 0.67240 0.45170 -0.00900
H 	H 	0.22630 0.96540 0.40960 0.03900
H 	H 	0.94890 0.69680 0.75900 0.06200
H 	H 	0.52100 0.40930 0.27700 0.02900
H 	H 	0.54010 0.20850 0.18790 0.06000
H 	H 	0.95760 0.81310 0.79120 0.06100
H 	H 	0.56910 0.04780 0.40840 0.00100
H 	H 	0.54870 0.24310 0.30080 0.06700
C 	C 	0.47170 0.94621 0.38977 0.32600
C 	C 	0.11770 0.65635 0.33843 0.07600
C 	C 	0.80950 0.20380 0.26170 -0.10200
C 	C 	0.10440 0.92390 0.37101 -0.10600
C 	C 	0.83740 0.48060 0.11620 -0.18800
C 	C 	0.87430 0.67750 0.81780 -0.01000
C 	C 	0.69150 0.36485 0.10360 0.00000
C 	C 	0.01010 0.93642 0.06860 0.30900
C 	C 	0.66680 0.52370 0.34180 0.10900
C 	C 	0.39480 0.62831 0.07446 -0.11700
C 	C 	0.83430 0.04190 0.36180 0.10300
C 	C 	0.73480 0.89830 0.55210 0.19400
C 	C 	0.71140 0.89620 0.47230 0.14000
C 	C 	0.11800 0.62371 0.37162 -0.12200
C 	C 	0.37650 0.88163 0.11728 0.05700
C 	C 	0.73060 0.59770 0.50270 0.18600
C 	C 	0.59180 0.34830 0.25970 -0.10200
C 	C 	0.83380 0.08360 0.33990 -0.17500
C 	C 	0.37540 0.91450 0.08372 -0.11100
C 	C 	0.16360 0.65937 0.10821 0.06900
C 	C 	0.79520 0.76030 0.72413 -0.04300
C 	C 	0.71640 0.27795 0.19530 -0.03700
C 	C 	0.90400 0.73740 0.65410 -0.10200
C 	C 	0.79930 0.09336 0.06355 -0.14700
C 	C 	0.67750 0.39830 0.32070 -0.05600
C 	C 	0.23280 0.70924 0.28789 0.41300
C 	C 	0.27230 0.61198 0.05669 0.05400
C 	C 	0.77560 0.90296 0.89323 0.08800
C 	C 	0.77200 0.32530 0.30650 -0.10400
C 	C 	0.88570 0.83210 0.79680 -0.08700
C 	C 	0.22280 0.94170 0.38720 0.04700
C 	C 	0.78480 0.93820 0.54540 -0.22700
C 	C 	0.28720 0.70988 0.16674 0.41000
C 	C 	0.69300 0.49750 0.04200 0.13200
C 	C 	0.34000 0.92538 0.37124 -0.11300
C 	C 	0.28370 0.67602 0.12711 -0.13500
C 	C 	0.88680 0.85590 0.83760 -0.01200
C 	C 	0.72430 0.10469 0.09817 0.09500
C 	C 	0.63680 0.09790 0.37070 -0.16600
C 	C 	0.71890 0.69440 0.67500 -0.10500
C 	C 	0.99120 0.60537 0.38897 0.33100
C 	C 	0.80690 0.89540 0.63391 0.02200
C 	C 	0.76340 0.44618 0.10060 0.13800
C 	C 	0.69340 0.87840 0.51520 -0.22900
C 	C 	0.79110 0.73530 0.76727 0.05400
C 	C 	0.66710 0.64180 0.95800 0.09000
C 	C 	0.81270 0.67750 0.60360 -0.06000
C 	C 	0.68580 0.44290 0.34370 0.12400
C 	C 	0.68010 0.32448 0.12730 -0.09800
C 	C 	0.58740 0.38830 0.28470 0.00200
C 	C 	0.76010 0.40257 0.12390 -0.05900
C 	C 	0.69160 0.45530 0.06110 -0.18500
C 	C 	0.66840 0.02547 0.10288 0.08600
C 	C 	0.81620 0.87250 0.67415 -0.11000
C 	C 	0.23180 0.67370 0.32344 -0.14500
C 	C 	0.68790 0.88958 0.81300 -0.01200
C 	C 	0.61900 0.22310 0.29620 -0.10800
C 	C 	0.74170 0.87588 0.59584 -0.08900
C 	C 	0.68980 0.81097 0.63997 -0.10900
C 	C 	0.66740 0.66380 0.91760 -0.15600
C 	C 	0.78410 0.88320 0.84738 -0.03500
C 	C 	0.70700 0.23368 0.26630 0.06700
C 	C 	0.72130 0.66860 0.63560 0.00600
C 	C 	0.85000 0.88490 0.92990 -0.14000
C 	C 	0.74900 0.49630 0.40510 0.14400
C 	C 	0.51630 0.61123 0.05522 0.31500
C 	C 	0.80850 0.18518 0.11180 -0.01300
C 	C 	0.68060 0.71620 0.83520 -0.01100
C 	C 	0.85720 0.62700 0.90210 -0.15900
C 	C 	0.76390 0.82870 0.67845 0.06400
C 	C 	0.73510 0.11112 0.34300 0.12000
C 	C 	0.65750 0.06853 0.11790 -0.14600
C 	C 	0.13930 0.88387 0.11801 0.06000
C 	C 	0.68700 0.86534 0.77168 -0.09400
C 	C 	0.61600 0.16210 0.14630 -0.01000
C 	C 	0.20950 0.83281 0.28866 0.41600
C 	C 	0.61220 0.20260 0.16960 -0.08600
C 	C 	0.25930 0.83065 0.17015 0.41000
C 	C 	0.71390 0.23537 0.16660 0.04900
C 	C 	0.80760 0.73030 0.68394 0.06300
C 	C 	0.50000 0.93088 0.06419 0.31500
C 	C 	0.76730 0.65740 0.88828 0.10300
C 	C 	0.90370 0.71100 0.61300 0.00100
C 	C 	0.25820 0.86678 0.13438 -0.12900
C 	C 	0.82620 0.65710 0.47700 0.07700
C 	C 	0.09750 0.88872 0.33881 0.05800
C 	C 	0.35450 0.62528 0.37451 -0.12700
C 	C 	0.81890 0.39762 0.16670 0.00300
C 	C 	0.73060 0.45130 0.38660 -0.18700
C 	C 	0.68320 0.95050 0.95069 0.08500
C 	C 	0.83700 0.90020 0.97352 0.08600
C 	C 	0.68790 0.31667 0.26920 0.06300
C 	C 	0.73280 0.32063 0.17080 0.05800
C 	C 	0.77530 0.68400 0.84635 -0.04000
C 	C 	0.81480 0.16440 0.28510 0.00400
C 	C 	0.68890 0.74050 0.79570 -0.08900
C 	C 	0.77020 0.36520 0.33160 0.00200
C 	C 	0.35100 0.65871 0.34109 0.07200
C 	C 	0.80730 0.65430 0.55870 0.13300
C 	C 	0.78330 0.83490 0.76369 0.05300
C 	C 	0.74480 0.61680 0.54830 -0.21600
C 	C 	0.02720 0.60809 0.05370 0.33600
C 	C 	0.25560 0.93112 0.06923 0.05100
C 	C 	0.70240 0.27613 0.24030 -0.04900
C 	C 	0.33390 0.89122 0.34001 0.06700
C 	C 	0.88010 0.70250 0.77870 -0.09200
C 	C 	0.80870 0.22653 0.13599 -0.09100
C 	C 	0.63950 0.05640 0.39020 0.09300
C 	C 	0.80730 0.35780 0.18910 -0.09900
C 	C 	0.64760 0.48180 0.32100 -0.17200
C 	C 	0.83180 0.52410 0.09540 0.12800
C 	C 	0.62630 0.18330 0.32150 0.00300
C 	C 	0.81100 0.04852 0.04970 0.09100
C 	C 	0.83930 0.67910 0.51950 -0.15400
C 	C 	0.15630 0.62729 0.07336 -0.12200
C 	C 	0.97960 0.94321 0.38836 0.30700
C 	C 	0.78180 0.80500 0.72218 -0.04100
C 	C 	0.85230 0.60660 0.94370 0.09500
C 	C 	0.79150 0.95720 0.50200 0.15900
C 	C 	0.13680 0.91696 0.08578 -0.11100
C 	C 	0.69300 0.93700 0.90507 -0.13700
C 	C 	0.71430 0.15176 0.11850 -0.03600
C 	C 	0.72460 0.15399 0.31680 -0.05400
C 	C 	0.23660 0.60899 0.38902 0.06400
C 	C 	0.48220 0.60874 0.39363 0.34200
C 	C 	0.67880 0.83271 0.60021 0.01900
C 	C 	0.39910 0.66010 0.10964 0.06500
C 	C 	0.21410 0.87194 0.32276 -0.13400
N 	N 	0.73490 0.93898 0.46654 -0.30200
N 	N 	0.75510 0.93235 0.98432 -0.26700
N 	N 	0.71710 0.53027 0.38379 -0.29500
N 	N 	0.76960 0.61420 0.47023 -0.30800
N 	N 	0.73730 0.02736 0.38480 -0.27600
N 	N 	0.75870 0.61349 0.97202 -0.27500
N 	N 	0.76490 0.53133 0.05937 -0.29300
N 	N 	0.74630 0.01490 0.06901 -0.26500
O 	O 	0.92330 0.62469 0.06860 -0.44300
O 	O 	0.09970 0.81771 0.27351 -0.46900
O 	O 	0.58750 0.62537 0.37829 -0.43800
O 	O 	0.62780 0.62952 0.06956 -0.42900
O 	O 	0.17660 0.72194 0.17869 -0.48400
O 	O 	0.90420 0.91784 0.08190 -0.43200
O 	O 	0.86930 0.92917 0.36985 -0.43000
O 	O 	0.34520 0.72336 0.27721 -0.48300
O 	O 	0.57450 0.93192 0.37263 -0.44500
O 	O 	0.47400 0.97602 0.42072 -0.31700
O 	O 	0.37080 0.81810 0.18525 -0.48200
O 	O 	0.12240 0.72127 0.27200 -0.48300
O 	O 	0.01310 0.96955 0.04266 -0.31200
O 	O 	0.60870 0.91648 0.08169 -0.43500
O 	O 	0.14870 0.81633 0.18136 -0.49000
O 	O 	0.49340 0.95724 0.03188 -0.32200
O 	O 	0.48650 0.58104 0.42402 -0.32900
O 	O 	0.32000 0.81932 0.27814 -0.48700
O 	O 	0.39770 0.72330 0.18350 -0.46500
O 	O 	0.99490 0.57444 0.41638 -0.32700
O 	O 	0.50810 0.58014 0.02541 -0.33500
O 	O 	0.99090 0.97215 0.42068 -0.32700
O 	O 	0.02270 0.57770 0.02382 -0.32200
O 	O 	0.88510 0.62364 0.37475 -0.43900
