data_crystal

_cell_length_a 9.67000
_cell_length_b 15.61800
_cell_length_c 22.56300
_cell_angle_alpha 90.00000
_cell_angle_beta  90.82000
_cell_angle_gamma 90.00000

_symmetry_space_group_name_	'P 1'
_symmetry_space_group_name_H-M	'P 1'

loop_
_symmetry_equiv_pos_as_xyz
  x,y,z

loop_
_atom_site_label
_atom_site_type_symbol
_atom_site_fract_x
_atom_site_fract_y
_atom_site_fract_z
_atom_site_charge
Fe	Fe	0.50957 0.10349 0.20052 1.31500
Fe	Fe	0.77591 0.22710 0.27903 1.32100
Fe	Fe	0.72582 0.38969 0.15461 1.24300
Fe	Fe	0.38981 0.43868 0.08407 1.25200
Fe	Fe	0.21619 0.96978 0.25668 1.31400
P 	P 	0.27460 0.00770 0.11797 0.55300
P 	P 	0.79480 0.18660 0.14414 0.54900
P 	P 	0.49510 0.31460 0.20677 0.52500
P 	P 	0.67930 0.41530 0.01439 0.56100
P 	P 	0.53890 0.90493 0.24384 0.55300
P 	P 	0.95350 0.05910 0.32322 0.51900
O 	O 	0.38290 0.07560 0.13440 -0.36000
O 	O 	0.58320 0.98490 0.20810 -0.32300
F 	F 	0.63240 0.13620 0.26860 -0.57300
O 	O 	0.65490 0.13880 0.14300 -0.36000
O 	O 	0.43470 0.22470 0.20280 -0.32100
F 	F 	0.35330 0.07050 0.25730 -0.54500
F 	F 	0.68780 0.26380 0.35110 -0.42900
O 	O 	0.89820 0.15180 0.32630 -0.29400
O 	O 	0.86400 0.18640 0.20500 -0.36000
O 	O 	0.59280 0.82550 0.21050 -0.32000
O 	O 	0.64870 0.31310 0.22950 -0.43100
O 	O 	0.59610 0.90670 0.30760 -0.36200
O 	O 	0.74850 0.43750 0.07580 -0.36600
O 	O 	0.83400 0.99770 0.30650 -0.34700
O 	O 	0.77940 0.27590 0.11820 -0.38600
O 	O 	0.50970 0.35810 0.14480 -0.46900
O 	O 	0.01030 0.03810 0.38580 -0.35400
O 	O 	0.52310 0.40430 0.02390 -0.40200
O 	O 	0.71460 0.49100 0.97360 -0.33200
F 	F 	0.24330 0.95530 0.34620 -0.57700
O 	O 	0.38090 0.89760 0.24640 -0.32900
O 	O 	0.18150 0.98690 0.17070 -0.34100
O 	O 	0.40660 0.36810 0.24800 -0.33500
O 	O 	0.06940 0.05360 0.27720 -0.31400
O 	O 	0.33860 0.92820 0.09180 -0.16900
O 	O 	0.18070 0.04540 0.06670 -0.38400
H 	H 	0.14270 0.08910 0.07830 0.29900
O 	O 	0.89140 0.13370 0.10140 -0.40300
H 	H 	0.85670 0.13270 0.06800 0.29200
O 	O 	0.73860 0.33340 0.98740 -0.39400
H 	H 	0.72550 0.29310 0.00990 0.28100
Fe	Fe	0.99043 0.60349 0.29948 1.31500
Fe	Fe	0.72409 0.72710 0.22097 1.32100
Fe	Fe	0.77418 0.88969 0.34539 1.24300
Fe	Fe	0.11019 0.93868 0.41593 1.24800
Fe	Fe	0.28381 0.46978 0.24332 1.31600
P 	P 	0.22540 0.50770 0.38203 0.54900
P 	P 	0.70520 0.68660 0.35586 0.54900
P 	P 	0.00490 0.81460 0.29323 0.52000
P 	P 	0.82070 0.91530 0.48561 0.56300
P 	P 	0.96110 0.40493 0.25616 0.55000
P 	P 	0.54650 0.55910 0.17678 0.53500
O 	O 	0.11710 0.57560 0.36560 -0.36000
O 	O 	0.91680 0.48490 0.29190 -0.32400
F 	F 	0.86760 0.63620 0.23140 -0.57100
O 	O 	0.84510 0.63880 0.35700 -0.35900
O 	O 	0.06530 0.72470 0.29720 -0.32200
F 	F 	0.14670 0.57050 0.24270 -0.54600
F 	F 	0.81220 0.76380 0.14890 -0.42700
O 	O 	0.60180 0.65180 0.17370 -0.29300
O 	O 	0.63600 0.68640 0.29500 -0.35800
O 	O 	0.90720 0.32550 0.28950 -0.32100
O 	O 	0.85130 0.81310 0.27050 -0.42800
O 	O 	0.90390 0.40670 0.19240 -0.36300
O 	O 	0.75150 0.93750 0.42420 -0.36600
O 	O 	0.66600 0.49770 0.19350 -0.35400
O 	O 	0.72060 0.77590 0.38180 -0.38500
O 	O 	0.99030 0.85810 0.35520 -0.46500
O 	O 	0.48970 0.53810 0.11420 -0.36200
O 	O 	0.97690 0.90430 0.47610 -0.40000
O 	O 	0.78540 0.99100 0.52640 -0.33100
F 	F 	0.25670 0.45530 0.15380 -0.57500
O 	O 	0.11910 0.39760 0.25360 -0.32600
O 	O 	0.31850 0.48690 0.32930 -0.33800
O 	O 	0.09340 0.86810 0.25200 -0.33600
O 	O 	0.43060 0.55360 0.22280 -0.32200
O 	O 	0.16140 0.42820 0.40820 -0.16700
O 	O 	0.31930 0.54540 0.43330 -0.38500
H 	H 	0.35730 0.58910 0.42170 0.29700
O 	O 	0.60860 0.63370 0.39860 -0.40000
H 	H 	0.64330 0.63270 0.43200 0.29300
O 	O 	0.76140 0.83340 0.51260 -0.39600
H 	H 	0.77450 0.79310 0.49010 0.28400
Fe	Fe	0.49043 0.89651 0.79948 1.31500
Fe	Fe	0.22409 0.77290 0.72097 1.32100
Fe	Fe	0.27418 0.61031 0.84539 1.24300
Fe	Fe	0.61019 0.56132 0.91593 1.25200
Fe	Fe	0.78381 0.03022 0.74332 1.31400
P 	P 	0.72540 0.99230 0.88203 0.55300
P 	P 	0.20520 0.81340 0.85586 0.54900
P 	P 	0.50490 0.68540 0.79323 0.52500
P 	P 	0.32070 0.58470 0.98561 0.56100
P 	P 	0.46110 0.09507 0.75616 0.55300
P 	P 	0.04650 0.94090 0.67678 0.51900
O 	O 	0.61710 0.92440 0.86560 -0.36000
O 	O 	0.41680 0.01510 0.79190 -0.32300
F 	F 	0.36760 0.86380 0.73140 -0.57300
O 	O 	0.34510 0.86120 0.85700 -0.36000
O 	O 	0.56530 0.77530 0.79720 -0.32100
F 	F 	0.64670 0.92950 0.74270 -0.54500
F 	F 	0.31220 0.73620 0.64890 -0.42900
O 	O 	0.10180 0.84820 0.67370 -0.29400
O 	O 	0.13600 0.81360 0.79500 -0.36000
O 	O 	0.40720 0.17450 0.78950 -0.32000
O 	O 	0.35130 0.68690 0.77050 -0.43100
O 	O 	0.40390 0.09330 0.69240 -0.36200
O 	O 	0.25150 0.56250 0.92420 -0.36600
O 	O 	0.16600 0.00230 0.69350 -0.34700
O 	O 	0.22060 0.72410 0.88180 -0.38600
O 	O 	0.49030 0.64190 0.85520 -0.46900
O 	O 	0.98970 0.96190 0.61420 -0.35400
O 	O 	0.47690 0.59570 0.97610 -0.40200
O 	O 	0.28540 0.50900 0.02640 -0.33200
F 	F 	0.75670 0.04470 0.65380 -0.57700
O 	O 	0.61910 0.10240 0.75360 -0.32900
O 	O 	0.81850 0.01310 0.82930 -0.34100
O 	O 	0.59340 0.63190 0.75200 -0.33500
O 	O 	0.93060 0.94640 0.72280 -0.31400
O 	O 	0.66140 0.07180 0.90820 -0.16900
O 	O 	0.81930 0.95460 0.93330 -0.38400
H 	H 	0.85730 0.91090 0.92170 0.29900
O 	O 	0.10860 0.86630 0.89860 -0.40300
H 	H 	0.14330 0.86730 0.93200 0.29200
O 	O 	0.26140 0.66660 0.01260 -0.39400
H 	H 	0.27450 0.70690 0.99010 0.28100
Fe	Fe	0.00957 0.39651 0.70052 1.31500
Fe	Fe	0.27591 0.27290 0.77903 1.32100
Fe	Fe	0.22582 0.11031 0.65461 1.24300
Fe	Fe	0.88981 0.06132 0.58407 1.24800
Fe	Fe	0.71619 0.53022 0.75668 1.31600
P 	P 	0.77460 0.49230 0.61797 0.54900
P 	P 	0.29480 0.31340 0.64414 0.54900
P 	P 	0.99510 0.18540 0.70677 0.52000
P 	P 	0.17930 0.08470 0.51439 0.56300
P 	P 	0.03890 0.59507 0.74384 0.55000
P 	P 	0.45350 0.44090 0.82322 0.53500
O 	O 	0.88290 0.42440 0.63440 -0.36000
O 	O 	0.08320 0.51510 0.70810 -0.32400
F 	F 	0.13240 0.36380 0.76860 -0.57100
O 	O 	0.15490 0.36120 0.64300 -0.35900
O 	O 	0.93470 0.27530 0.70280 -0.32200
F 	F 	0.85330 0.42950 0.75730 -0.54600
F 	F 	0.18780 0.23620 0.85110 -0.42700
O 	O 	0.39820 0.34820 0.82630 -0.29300
O 	O 	0.36400 0.31360 0.70500 -0.35800
O 	O 	0.09280 0.67450 0.71050 -0.32100
O 	O 	0.14870 0.18690 0.72950 -0.42800
O 	O 	0.09610 0.59330 0.80760 -0.36300
O 	O 	0.24850 0.06250 0.57580 -0.36600
O 	O 	0.33400 0.50230 0.80650 -0.35400
O 	O 	0.27940 0.22410 0.61820 -0.38500
O 	O 	0.00970 0.14190 0.64480 -0.46500
O 	O 	0.51030 0.46190 0.88580 -0.36200
O 	O 	0.02310 0.09570 0.52390 -0.40000
O 	O 	0.21460 0.00900 0.47360 -0.33100
F 	F 	0.74330 0.54470 0.84620 -0.57500
O 	O 	0.88090 0.60240 0.74640 -0.32600
O 	O 	0.68150 0.51310 0.67070 -0.33800
O 	O 	0.90660 0.13190 0.74800 -0.33600
O 	O 	0.56940 0.44640 0.77720 -0.32200
O 	O 	0.83860 0.57180 0.59180 -0.16700
O 	O 	0.68070 0.45460 0.56670 -0.38500
H 	H 	0.64270 0.41090 0.57830 0.29700
O 	O 	0.39140 0.36630 0.60140 -0.40000
H 	H 	0.35670 0.36730 0.56800 0.29300
O 	O 	0.23860 0.16660 0.48740 -0.39600
H 	H 	0.22550 0.20690 0.50990 0.28400
