data_crystal

_cell_length_a 19.12370
_cell_length_b 14.46030
_cell_length_c 30.62470
_cell_angle_alpha 90.00000
_cell_angle_beta  90.00000
_cell_angle_gamma 90.00000

_symmetry_space_group_name_	'P 1'
_symmetry_space_group_name_H-M	'P 1'

loop_
_symmetry_equiv_pos_as_xyz
  x,y,z

loop_
_atom_site_label
_atom_site_type_symbol
_atom_site_fract_x
_atom_site_fract_y
_atom_site_fract_z
_atom_site_charge
Dy	Dy	0.35892 0.53713 0.53661 1.68400
Dy	Dy	0.31381 0.47468 0.41236 1.70900
O 	O 	0.33700 0.63139 0.42085 -0.46600
O 	O 	0.37956 0.66030 0.48754 -0.51200
O 	O 	0.40975 0.83160 0.50800 -0.43100
H 	H 	0.40080 0.77710 0.51260 0.25600
O 	O 	0.76260 0.97060 0.48948 -0.54700
O 	O 	0.69696 0.98020 0.43130 -0.47800
O 	O 	0.56314 0.99340 0.43756 -0.44000
H 	H 	0.60160 0.98830 0.42590 0.28300
O 	O 	0.33201 0.38150 0.52331 -0.47800
O 	O 	0.29265 0.34630 0.45666 -0.50300
O 	O 	0.26127 0.17580 0.43896 -0.42600
H 	H 	0.24230 0.22600 0.43530 0.25300
O 	O 	0.91296 0.01990 0.45296 -0.55200
O 	O 	0.97505 0.99840 0.51170 -0.47200
O 	O 	0.11005 0.00570 0.50871 -0.44500
H 	H 	0.07170 0.01290 0.52010 0.28800
O 	O 	0.39260 0.43050 0.30177 -0.32500
O 	O 	0.34020 0.53280 0.34455 -0.49500
O 	O 	0.29410 0.68510 0.31325 -0.43700
H 	H 	0.29570 0.64170 0.33040 0.27800
O 	O 	0.08306 0.94620 0.09373 -0.39900
O 	O 	0.19057 0.99050 0.10618 -0.44700
O 	O 	0.25302 0.93690 0.17551 -0.44700
H 	H 	0.25000 0.95690 0.15050 0.28200
C 	C 	0.40530 0.84900 0.46419 0.25200
C 	C 	0.38460 0.78010 0.43412 -0.23000
C 	C 	0.38250 0.80150 0.39137 0.05900
H 	H 	0.37070 0.75550 0.37150 0.03700
C 	C 	0.39750 0.89030 0.37573 -0.03600
C 	C 	0.39350 0.91030 0.33020 -0.03100
H 	H 	0.38370 0.86310 0.31050 0.04800
C 	C 	0.40390 0.99740 0.31555 -0.06100
H 	H 	0.40170 0.01000 0.28580 0.04800
C 	C 	0.41810 0.06910 0.34560 -0.00300
H 	H 	0.42270 0.12940 0.33540 0.03000
C 	C 	0.42530 0.05210 0.38906 -0.08900
H 	H 	0.43700 0.10010 0.40790 0.07200
C 	C 	0.41493 0.96030 0.40603 0.06800
C 	C 	0.42117 0.93810 0.45099 -0.07600
C 	C 	0.44050 0.00960 0.48547 -0.03500
H 	H 	0.43840 0.07040 0.47210 0.05200
H 	H 	0.40520 0.00790 0.50820 0.05700
C 	C 	0.51100 0.99890 0.50669 -0.09000
C 	C 	0.51990 0.00650 0.55331 0.08000
C 	C 	0.46280 0.01770 0.58327 -0.11900
H 	H 	0.41730 0.01930 0.57270 0.08200
C 	C 	0.47420 0.02590 0.62610 0.02700
H 	H 	0.43610 0.03460 0.64460 0.02200
C 	C 	0.54100 0.02210 0.64440 -0.08800
H 	H 	0.54720 0.02850 0.67440 0.06100
C 	C 	0.59600 0.00910 0.61811 -0.00300
H 	H 	0.64040 0.00460 0.63030 0.03400
C 	C 	0.58830 0.00180 0.57180 -0.06700
C 	C 	0.64560 0.99060 0.54496 0.08600
H 	H 	0.68990 0.98720 0.55740 -0.01700
C 	C 	0.63920 0.98440 0.50022 -0.25200
C 	C 	0.57090 0.99290 0.48150 0.26800
C 	C 	0.36580 0.68370 0.44898 0.47900
C 	C 	0.70240 0.97670 0.47278 0.44800
C 	C 	0.26750 0.15870 0.48255 0.24100
C 	C 	0.28950 0.23090 0.51272 -0.21800
C 	C 	0.29670 0.21140 0.55562 0.05400
H 	H 	0.31040 0.25820 0.57460 0.02600
C 	C 	0.28390 0.12150 0.57255 -0.04200
C 	C 	0.29250 0.10360 0.61659 -0.02000
H 	H 	0.30500 0.15130 0.63540 0.04300
C 	C 	0.28270 0.01760 0.63230 -0.06900
H 	H 	0.28760 0.00600 0.66210 0.05500
C 	C 	0.26510 0.94480 0.60340 0.01100
H 	H 	0.26110 0.88480 0.61410 0.01900
C 	C 	0.25450 0.96060 0.56170 -0.10200
H 	H 	0.24090 0.91180 0.54390 0.07300
C 	C 	0.26290 0.05070 0.54271 0.07000
C 	C 	0.25360 0.07030 0.49752 -0.07800
C 	C 	0.23520 0.99760 0.46406 -0.03900
H 	H 	0.23600 0.93790 0.47850 0.05400
H 	H 	0.27190 0.99700 0.44220 0.05700
C 	C 	0.16570 0.00670 0.44055 -0.08900
C 	C 	0.15930 0.00320 0.39425 0.07800
C 	C 	0.21840 0.00000 0.36520 -0.11200
H 	H 	0.26320 0.00630 0.37660 0.08200
C 	C 	0.21020 0.98790 0.32120 0.02100
H 	H 	0.24970 0.98280 0.30370 0.02700
C 	C 	0.14390 0.98310 0.30180 -0.08200
H 	H 	0.13900 0.97570 0.27180 0.06600
C 	C 	0.08660 0.98980 0.32840 -0.00300
H 	H 	0.04230 0.98830 0.31590 0.04000
C 	C 	0.09230 0.99880 0.37395 -0.06500
C 	C 	0.03300 0.00470 0.40001 0.09500
H 	H 	0.98920 0.00560 0.38670 -0.01300
C 	C 	0.03690 0.00920 0.44466 -0.26400
C 	C 	0.10300 0.00740 0.46462 0.27300
C 	C 	0.30590 0.32770 0.49727 0.48200
C 	C 	0.97160 0.00960 0.47124 0.48400
C 	C 	0.31970 0.65720 0.27317 0.22800
C 	C 	0.35420 0.57000 0.26945 -0.19700
C 	C 	0.37990 0.54480 0.23014 0.04000
H 	H 	0.40180 0.48760 0.22760 0.03000
C 	C 	0.37480 0.60120 0.19305 -0.04200
C 	C 	0.40270 0.57520 0.15207 -0.01300
H 	H 	0.42450 0.51800 0.14910 0.03900
C 	C 	0.39830 0.63290 0.11662 -0.07800
H 	H 	0.41580 0.61480 0.08960 0.07200
C 	C 	0.36760 0.71800 0.12181 0.02400
H 	H 	0.36580 0.75710 0.09770 0.02800
C 	C 	0.33960 0.74870 0.16020 -0.11900
H 	H 	0.32040 0.80770 0.16220 0.09000
C 	C 	0.34030 0.68800 0.19759 0.06600
C 	C 	0.31170 0.71610 0.23755 -0.07900
C 	C 	0.27170 0.80630 0.24298 -0.08400
H 	H 	0.26060 0.81390 0.27370 0.07900
H 	H 	0.30250 0.85680 0.23480 0.07500
C 	C 	0.20450 0.81550 0.21692 -0.07900
C 	C 	0.14480 0.75920 0.22708 0.05800
C 	C 	0.14140 0.70010 0.26375 -0.10800
H 	H 	0.17970 0.69570 0.28230 0.08700
C 	C 	0.08240 0.64880 0.27256 0.00600
H 	H 	0.08210 0.60890 0.29640 0.02900
C 	C 	0.02390 0.65580 0.24660 -0.06200
H 	H 	0.98400 0.62180 0.25320 0.05000
C 	C 	0.02480 0.71280 0.21130 -0.03300
H 	H 	0.98520 0.71720 0.19380 0.04700
C 	C 	0.08380 0.76480 0.20062 -0.02600
C 	C 	0.08270 0.82660 0.16459 0.02100
H 	H 	0.04350 0.82920 0.14670 0.04200
C 	C 	0.13890 0.88240 0.15594 -0.17800
C 	C 	0.19910 0.87860 0.18346 0.23300
C 	C 	0.36490 0.50480 0.30747 0.40600
C 	C 	0.13630 0.94300 0.11668 0.35400
Dy	Dy	0.64108 0.46287 0.03661 1.69300
Dy	Dy	0.68619 0.52532 0.91236 1.70200
O 	O 	0.66300 0.36861 0.92085 -0.46700
O 	O 	0.62044 0.33970 0.98754 -0.51900
O 	O 	0.59025 0.16840 0.00800 -0.42000
H 	H 	0.59920 0.22290 0.01260 0.25400
O 	O 	0.23740 0.02940 0.98948 -0.54800
O 	O 	0.30304 0.01980 0.93130 -0.47200
O 	O 	0.43686 0.00660 0.93756 -0.42700
H 	H 	0.39840 0.01170 0.92590 0.27800
O 	O 	0.66799 0.61850 0.02331 -0.46300
O 	O 	0.70735 0.65370 0.95666 -0.49800
O 	O 	0.73873 0.82420 0.93896 -0.42300
H 	H 	0.75770 0.77400 0.93530 0.25000
O 	O 	0.08704 0.98010 0.95296 -0.55000
O 	O 	0.02495 0.00160 0.01170 -0.45900
O 	O 	0.88995 0.99430 0.00871 -0.42900
H 	H 	0.92830 0.98710 0.02010 0.28400
O 	O 	0.60740 0.56950 0.80177 -0.32500
O 	O 	0.65980 0.46720 0.84455 -0.49500
O 	O 	0.70590 0.31490 0.81325 -0.43700
H 	H 	0.70430 0.35830 0.83040 0.27800
O 	O 	0.91694 0.05380 0.59373 -0.39900
O 	O 	0.80943 0.00950 0.60618 -0.44600
O 	O 	0.74698 0.06310 0.67551 -0.44700
H 	H 	0.75000 0.04310 0.65050 0.28200
C 	C 	0.59470 0.15100 0.96419 0.22900
C 	C 	0.61540 0.21990 0.93412 -0.21900
C 	C 	0.61750 0.19850 0.89137 0.04700
H 	H 	0.62930 0.24450 0.87150 0.04100
C 	C 	0.60250 0.10970 0.87573 -0.02200
C 	C 	0.60650 0.08970 0.83020 -0.04700
H 	H 	0.61630 0.13690 0.81050 0.05400
C 	C 	0.59610 0.00260 0.81555 -0.04100
H 	H 	0.59830 0.99000 0.78580 0.04000
C 	C 	0.58190 0.93090 0.84560 -0.02100
H 	H 	0.57730 0.87060 0.83540 0.03500
C 	C 	0.57470 0.94790 0.88906 -0.07500
H 	H 	0.56300 0.89990 0.90790 0.06500
C 	C 	0.58507 0.03970 0.90603 0.05100
C 	C 	0.57883 0.06190 0.95099 -0.04700
C 	C 	0.55950 0.99040 0.98547 -0.10900
H 	H 	0.56160 0.92960 0.97210 0.07100
H 	H 	0.59480 0.99210 0.00820 0.08600
C 	C 	0.48900 0.00110 0.00669 -0.03900
C 	C 	0.48010 0.99350 0.05331 0.05000
C 	C 	0.53720 0.98230 0.08327 -0.09200
H 	H 	0.58270 0.98070 0.07270 0.07100
C 	C 	0.52580 0.97410 0.12610 0.00200
H 	H 	0.56390 0.96540 0.14460 0.03100
C 	C 	0.45900 0.97790 0.14440 -0.06300
H 	H 	0.45280 0.97150 0.17440 0.05200
C 	C 	0.40400 0.99090 0.11811 -0.02700
H 	H 	0.35960 0.99540 0.13030 0.04300
C 	C 	0.41170 0.99820 0.07180 -0.03900
C 	C 	0.35440 0.00940 0.04496 0.05700
H 	H 	0.31010 0.01280 0.05740 -0.00600
C 	C 	0.36080 0.01560 0.00022 -0.21400
C 	C 	0.42910 0.00710 0.98150 0.22600
C 	C 	0.63420 0.31630 0.94898 0.47500
C 	C 	0.29760 0.02330 0.97278 0.42900
C 	C 	0.73250 0.84130 0.98255 0.22700
C 	C 	0.71050 0.76910 0.01272 -0.19100
C 	C 	0.70330 0.78860 0.05562 0.04400
H 	H 	0.68960 0.74180 0.07460 0.03000
C 	C 	0.71610 0.87850 0.07255 -0.04300
C 	C 	0.70750 0.89640 0.11659 -0.01700
H 	H 	0.69500 0.84870 0.13540 0.04200
C 	C 	0.71730 0.98240 0.13230 -0.07500
H 	H 	0.71240 0.99400 0.16210 0.05700
C 	C 	0.73490 0.05520 0.10340 0.02000
H 	H 	0.73890 0.11520 0.11410 0.01600
C 	C 	0.74550 0.03940 0.06170 -0.11300
H 	H 	0.75910 0.08820 0.04390 0.08000
C 	C 	0.73710 0.94930 0.04271 0.08500
C 	C 	0.74640 0.92970 0.99752 -0.09300
C 	C 	0.76480 0.00240 0.96406 -0.03200
H 	H 	0.76400 0.06210 0.97850 0.04900
H 	H 	0.72810 0.00300 0.94220 0.05600
C 	C 	0.83430 0.99330 0.94055 -0.08200
C 	C 	0.84070 0.99680 0.89425 0.06100
C 	C 	0.78160 0.00000 0.86520 -0.09100
H 	H 	0.73680 0.99370 0.87660 0.07300
C 	C 	0.78980 0.01210 0.82120 0.00400
H 	H 	0.75030 0.01720 0.80370 0.03300
C 	C 	0.85610 0.01690 0.80180 -0.06600
H 	H 	0.86100 0.02430 0.77180 0.06000
C 	C 	0.91340 0.01020 0.82840 -0.02000
H 	H 	0.95770 0.01170 0.81590 0.04600
C 	C 	0.90770 0.00120 0.87395 -0.04600
C 	C 	0.96700 0.99530 0.90001 0.07600
H 	H 	0.01080 0.99440 0.88670 -0.00600
C 	C 	0.96310 0.99080 0.94466 -0.25000
C 	C 	0.89700 0.99260 0.96462 0.25400
C 	C 	0.69410 0.67230 0.99727 0.45200
C 	C 	0.02840 0.99040 0.97124 0.46500
C 	C 	0.68030 0.34280 0.77317 0.22800
C 	C 	0.64580 0.43000 0.76945 -0.19700
C 	C 	0.62010 0.45520 0.73014 0.04000
H 	H 	0.59820 0.51240 0.72760 0.03000
C 	C 	0.62520 0.39880 0.69305 -0.04200
C 	C 	0.59730 0.42480 0.65207 -0.01300
H 	H 	0.57550 0.48200 0.64910 0.03800
C 	C 	0.60170 0.36710 0.61662 -0.07800
H 	H 	0.58420 0.38520 0.58960 0.07100
C 	C 	0.63240 0.28200 0.62181 0.02500
H 	H 	0.63420 0.24290 0.59770 0.02700
C 	C 	0.66040 0.25130 0.66020 -0.12000
H 	H 	0.67960 0.19230 0.66220 0.09000
C 	C 	0.65970 0.31200 0.69759 0.06600
C 	C 	0.68830 0.28390 0.73755 -0.07900
C 	C 	0.72830 0.19370 0.74298 -0.08300
H 	H 	0.73940 0.18610 0.77370 0.07900
H 	H 	0.69750 0.14320 0.73480 0.07500
C 	C 	0.79550 0.18450 0.71692 -0.07900
C 	C 	0.85520 0.24080 0.72708 0.05900
C 	C 	0.85860 0.29990 0.76375 -0.10900
H 	H 	0.82030 0.30430 0.78230 0.08700
C 	C 	0.91760 0.35120 0.77256 0.00800
H 	H 	0.91790 0.39110 0.79640 0.02800
C 	C 	0.97610 0.34420 0.74660 -0.06400
H 	H 	0.01600 0.37820 0.75320 0.05100
C 	C 	0.97520 0.28720 0.71130 -0.03400
H 	H 	0.01480 0.28280 0.69380 0.04800
C 	C 	0.91620 0.23520 0.70062 -0.02600
C 	C 	0.91730 0.17340 0.66459 0.02100
H 	H 	0.95650 0.17080 0.64670 0.04100
C 	C 	0.86110 0.11760 0.65594 -0.17800
C 	C 	0.80090 0.12140 0.68346 0.23300
C 	C 	0.63510 0.49520 0.80747 0.40600
C 	C 	0.86370 0.05700 0.61668 0.35400
Dy	Dy	0.85892 0.96287 0.53661 1.68100
Dy	Dy	0.81381 0.02532 0.41236 1.70700
O 	O 	0.83700 0.86861 0.42085 -0.46700
O 	O 	0.87956 0.83970 0.48754 -0.51300
O 	O 	0.90975 0.66840 0.50800 -0.43200
H 	H 	0.90080 0.72290 0.51260 0.25500
O 	O 	0.26260 0.52940 0.48948 -0.54800
O 	O 	0.19696 0.51980 0.43130 -0.47800
O 	O 	0.06314 0.50660 0.43756 -0.44000
H 	H 	0.10160 0.51170 0.42590 0.28300
O 	O 	0.83201 0.11850 0.52331 -0.47700
O 	O 	0.79265 0.15370 0.45666 -0.50300
O 	O 	0.76127 0.32420 0.43896 -0.42600
H 	H 	0.74230 0.27400 0.43530 0.25300
O 	O 	0.41296 0.48010 0.45296 -0.55200
O 	O 	0.47505 0.50160 0.51170 -0.47100
O 	O 	0.61005 0.49430 0.50871 -0.44500
H 	H 	0.57170 0.48710 0.52010 0.28700
O 	O 	0.89260 0.06950 0.30177 -0.32600
O 	O 	0.84020 0.96720 0.34455 -0.49500
O 	O 	0.79410 0.81490 0.31325 -0.43700
H 	H 	0.79570 0.85830 0.33040 0.27800
O 	O 	0.58306 0.55380 0.09373 -0.40000
O 	O 	0.69057 0.50950 0.10618 -0.44700
O 	O 	0.75302 0.56310 0.17551 -0.44700
H 	H 	0.75000 0.54310 0.15050 0.28200
C 	C 	0.90530 0.65100 0.46419 0.25200
C 	C 	0.88460 0.71990 0.43412 -0.23000
C 	C 	0.88250 0.69850 0.39137 0.06000
H 	H 	0.87070 0.74450 0.37150 0.03700
C 	C 	0.89750 0.60970 0.37573 -0.03700
C 	C 	0.89350 0.58970 0.33020 -0.02800
H 	H 	0.88370 0.63690 0.31050 0.04700
C 	C 	0.90390 0.50260 0.31555 -0.06500
H 	H 	0.90170 0.49000 0.28580 0.05000
C 	C 	0.91810 0.43090 0.34560 -0.00000
H 	H 	0.92270 0.37060 0.33540 0.02900
C 	C 	0.92530 0.44790 0.38906 -0.09000
H 	H 	0.93700 0.39990 0.40790 0.07300
C 	C 	0.91493 0.53970 0.40603 0.06900
C 	C 	0.92117 0.56190 0.45099 -0.07600
C 	C 	0.94050 0.49040 0.48547 -0.03600
H 	H 	0.93840 0.42960 0.47210 0.05200
H 	H 	0.90520 0.49210 0.50820 0.05700
C 	C 	0.01100 0.50110 0.50669 -0.08800
C 	C 	0.01990 0.49350 0.55331 0.08000
C 	C 	0.96280 0.48230 0.58327 -0.11800
H 	H 	0.91730 0.48070 0.57270 0.08100
C 	C 	0.97420 0.47410 0.62610 0.02500
H 	H 	0.93610 0.46540 0.64460 0.02200
C 	C 	0.04100 0.47790 0.64440 -0.08700
H 	H 	0.04720 0.47150 0.67440 0.06100
C 	C 	0.09600 0.49090 0.61811 -0.00300
H 	H 	0.14040 0.49540 0.63030 0.03400
C 	C 	0.08830 0.49820 0.57180 -0.06800
C 	C 	0.14560 0.50940 0.54496 0.08700
H 	H 	0.18990 0.51280 0.55740 -0.01700
C 	C 	0.13920 0.51560 0.50022 -0.25200
C 	C 	0.07090 0.50710 0.48150 0.26700
C 	C 	0.86580 0.81630 0.44898 0.47900
C 	C 	0.20240 0.52330 0.47278 0.44800
C 	C 	0.76750 0.34130 0.48255 0.24100
C 	C 	0.78950 0.26910 0.51272 -0.21900
C 	C 	0.79670 0.28860 0.55562 0.05500
H 	H 	0.81040 0.24180 0.57460 0.02600
C 	C 	0.78390 0.37850 0.57255 -0.04300
C 	C 	0.79250 0.39640 0.61659 -0.01800
H 	H 	0.80500 0.34870 0.63540 0.04200
C 	C 	0.78270 0.48240 0.63230 -0.07300
H 	H 	0.78760 0.49400 0.66210 0.05600
C 	C 	0.76510 0.55520 0.60340 0.01500
H 	H 	0.76110 0.61520 0.61410 0.01800
C 	C 	0.75450 0.53940 0.56170 -0.10300
H 	H 	0.74090 0.58820 0.54390 0.07400
C 	C 	0.76290 0.44930 0.54271 0.07100
C 	C 	0.75360 0.42970 0.49752 -0.07900
C 	C 	0.73520 0.50240 0.46406 -0.03800
H 	H 	0.73600 0.56210 0.47850 0.05400
H 	H 	0.77190 0.50300 0.44220 0.05700
C 	C 	0.66570 0.49330 0.44055 -0.08900
C 	C 	0.65930 0.49680 0.39425 0.07800
C 	C 	0.71840 0.50000 0.36520 -0.11100
H 	H 	0.76320 0.49370 0.37660 0.08200
C 	C 	0.71020 0.51210 0.32120 0.02000
H 	H 	0.74970 0.51720 0.30370 0.02700
C 	C 	0.64390 0.51690 0.30180 -0.08100
H 	H 	0.63900 0.52430 0.27180 0.06500
C 	C 	0.58660 0.51020 0.32840 -0.00400
H 	H 	0.54230 0.51170 0.31590 0.04000
C 	C 	0.59230 0.50120 0.37395 -0.06400
C 	C 	0.53300 0.49530 0.40001 0.09300
H 	H 	0.48920 0.49440 0.38670 -0.01200
C 	C 	0.53690 0.49080 0.44466 -0.26400
C 	C 	0.60300 0.49260 0.46462 0.27300
C 	C 	0.80590 0.17230 0.49727 0.48200
C 	C 	0.47160 0.49040 0.47124 0.48400
C 	C 	0.81970 0.84280 0.27317 0.22900
C 	C 	0.85420 0.93000 0.26945 -0.19900
C 	C 	0.87990 0.95520 0.23014 0.04300
H 	H 	0.90180 0.01240 0.22760 0.02800
C 	C 	0.87480 0.89880 0.19305 -0.04300
C 	C 	0.90270 0.92480 0.15207 -0.01100
H 	H 	0.92450 0.98200 0.14910 0.03800
C 	C 	0.89830 0.86710 0.11662 -0.07900
H 	H 	0.91580 0.88520 0.08960 0.07200
C 	C 	0.86760 0.78200 0.12181 0.02500
H 	H 	0.86580 0.74290 0.09770 0.02800
C 	C 	0.83960 0.75130 0.16020 -0.12000
H 	H 	0.82040 0.69230 0.16220 0.09100
C 	C 	0.84030 0.81200 0.19759 0.06700
C 	C 	0.81170 0.78390 0.23755 -0.08000
C 	C 	0.77170 0.69370 0.24298 -0.08300
H 	H 	0.76060 0.68610 0.27370 0.07900
H 	H 	0.80250 0.64320 0.23480 0.07500
C 	C 	0.70450 0.68450 0.21692 -0.07900
C 	C 	0.64480 0.74080 0.22708 0.05900
C 	C 	0.64140 0.79990 0.26375 -0.10800
H 	H 	0.67970 0.80430 0.28230 0.08700
C 	C 	0.58240 0.85120 0.27256 0.00700
H 	H 	0.58210 0.89110 0.29640 0.02900
C 	C 	0.52390 0.84420 0.24660 -0.06300
H 	H 	0.48400 0.87820 0.25320 0.05100
C 	C 	0.52480 0.78720 0.21130 -0.03300
H 	H 	0.48520 0.78280 0.19380 0.04700
C 	C 	0.58380 0.73520 0.20062 -0.02600
C 	C 	0.58270 0.67340 0.16459 0.02100
H 	H 	0.54350 0.67080 0.14670 0.04100
C 	C 	0.63890 0.61760 0.15594 -0.17900
C 	C 	0.69910 0.62140 0.18346 0.23300
C 	C 	0.86490 0.99520 0.30747 0.40800
C 	C 	0.63630 0.55700 0.11668 0.35400
Dy	Dy	0.14108 0.03713 0.03661 1.69100
Dy	Dy	0.18619 0.97468 0.91236 1.69700
O 	O 	0.16300 0.13139 0.92085 -0.46500
O 	O 	0.12044 0.16030 0.98754 -0.51800
O 	O 	0.09025 0.33160 0.00800 -0.41900
H 	H 	0.09920 0.27710 0.01260 0.25400
O 	O 	0.73740 0.47060 0.98948 -0.54900
O 	O 	0.80304 0.48020 0.93130 -0.47300
O 	O 	0.93686 0.49340 0.93756 -0.42700
H 	H 	0.89840 0.48830 0.92590 0.27800
O 	O 	0.16799 0.88150 0.02331 -0.46100
O 	O 	0.20735 0.84630 0.95666 -0.49700
O 	O 	0.23873 0.67580 0.93896 -0.42200
H 	H 	0.25770 0.72600 0.93530 0.25000
O 	O 	0.58704 0.51990 0.95296 -0.55000
O 	O 	0.52495 0.49840 0.01170 -0.46000
O 	O 	0.38995 0.50570 0.00871 -0.43200
H 	H 	0.42830 0.51290 0.02010 0.28500
O 	O 	0.10740 0.93050 0.80177 -0.32800
O 	O 	0.15980 0.03280 0.84455 -0.49400
O 	O 	0.20590 0.18510 0.81325 -0.43800
H 	H 	0.20430 0.14170 0.83040 0.27800
O 	O 	0.41694 0.44620 0.59373 -0.39900
O 	O 	0.30943 0.49050 0.60618 -0.44600
O 	O 	0.24698 0.43690 0.67551 -0.44700
H 	H 	0.25000 0.45690 0.65050 0.28200
C 	C 	0.09470 0.34900 0.96419 0.23000
C 	C 	0.11540 0.28010 0.93412 -0.22100
C 	C 	0.11750 0.30150 0.89137 0.05000
H 	H 	0.12930 0.25550 0.87150 0.04000
C 	C 	0.10250 0.39030 0.87573 -0.02700
C 	C 	0.10650 0.41030 0.83020 -0.03800
H 	H 	0.11630 0.36310 0.81050 0.05100
C 	C 	0.09610 0.49740 0.81555 -0.05600
H 	H 	0.09830 0.51000 0.78580 0.04700
C 	C 	0.08190 0.56910 0.84560 -0.01000
H 	H 	0.07730 0.62940 0.83540 0.03200
C 	C 	0.07470 0.55210 0.88906 -0.07900
H 	H 	0.06300 0.60010 0.90790 0.06700
C 	C 	0.08507 0.46030 0.90603 0.05400
C 	C 	0.07883 0.43810 0.95099 -0.05200
C 	C 	0.05950 0.50960 0.98547 -0.10100
H 	H 	0.06160 0.57040 0.97210 0.06900
H 	H 	0.09480 0.50790 0.00820 0.08300
C 	C 	0.98900 0.49890 0.00669 -0.03800
C 	C 	0.98010 0.50650 0.05331 0.04800
C 	C 	0.03720 0.51770 0.08327 -0.09100
H 	H 	0.08270 0.51930 0.07270 0.07100
C 	C 	0.02580 0.52590 0.12610 0.00200
H 	H 	0.06390 0.53460 0.14460 0.03100
C 	C 	0.95900 0.52210 0.14440 -0.06500
H 	H 	0.95280 0.52850 0.17440 0.05200
C 	C 	0.90400 0.50910 0.11811 -0.02700
H 	H 	0.85960 0.50460 0.13030 0.04200
C 	C 	0.91170 0.50180 0.07180 -0.03900
C 	C 	0.85440 0.49060 0.04496 0.05600
H 	H 	0.81010 0.48720 0.05740 -0.00600
C 	C 	0.86080 0.48440 0.00022 -0.21000
C 	C 	0.92910 0.49290 0.98150 0.22200
C 	C 	0.13420 0.18370 0.94898 0.47500
C 	C 	0.79760 0.47670 0.97278 0.42700
C 	C 	0.23250 0.65870 0.98255 0.22500
C 	C 	0.21050 0.73090 0.01272 -0.18900
C 	C 	0.20330 0.71140 0.05562 0.04200
H 	H 	0.18960 0.75820 0.07460 0.03100
C 	C 	0.21610 0.62150 0.07255 -0.04000
C 	C 	0.20750 0.60360 0.11659 -0.01800
H 	H 	0.19500 0.65130 0.13540 0.04200
C 	C 	0.21730 0.51760 0.13230 -0.07500
H 	H 	0.21240 0.50600 0.16210 0.05600
C 	C 	0.23490 0.44480 0.10340 0.01900
H 	H 	0.23890 0.38480 0.11410 0.01700
C 	C 	0.24550 0.46060 0.06170 -0.10900
H 	H 	0.25910 0.41180 0.04390 0.07900
C 	C 	0.23710 0.55070 0.04271 0.08000
C 	C 	0.24640 0.57030 0.99752 -0.08700
C 	C 	0.26480 0.49760 0.96406 -0.03700
H 	H 	0.26400 0.43790 0.97850 0.05000
H 	H 	0.22810 0.49700 0.94220 0.05600
C 	C 	0.33430 0.50670 0.94055 -0.08500
C 	C 	0.34070 0.50320 0.89425 0.07400
C 	C 	0.28160 0.50000 0.86520 -0.10800
H 	H 	0.23680 0.50630 0.87660 0.08100
C 	C 	0.28980 0.48790 0.82120 0.01800
H 	H 	0.25030 0.48280 0.80370 0.02800
C 	C 	0.35610 0.48310 0.80180 -0.07900
H 	H 	0.36100 0.47570 0.77180 0.06400
C 	C 	0.41340 0.48980 0.82840 -0.00800
H 	H 	0.45770 0.48830 0.81590 0.04100
C 	C 	0.40770 0.49880 0.87395 -0.06000
C 	C 	0.46700 0.50470 0.90001 0.08700
H 	H 	0.51080 0.50560 0.88670 -0.00900
C 	C 	0.46310 0.50920 0.94466 -0.25600
C 	C 	0.39700 0.50740 0.96462 0.25800
C 	C 	0.19410 0.82770 0.99727 0.45000
C 	C 	0.52840 0.50960 0.97124 0.46800
C 	C 	0.18030 0.15720 0.77317 0.23000
C 	C 	0.14580 0.07000 0.76945 -0.20100
C 	C 	0.12010 0.04480 0.73014 0.04600
H 	H 	0.09820 0.98760 0.72760 0.02600
C 	C 	0.12520 0.10120 0.69305 -0.04500
C 	C 	0.09730 0.07520 0.65207 -0.01000
H 	H 	0.07550 0.01800 0.64910 0.03800
C 	C 	0.10170 0.13290 0.61662 -0.08000
H 	H 	0.08420 0.11480 0.58960 0.07200
C 	C 	0.13240 0.21800 0.62181 0.02700
H 	H 	0.13420 0.25710 0.59770 0.02600
C 	C 	0.16040 0.24870 0.66020 -0.12200
H 	H 	0.17960 0.30770 0.66220 0.09100
C 	C 	0.15970 0.18800 0.69759 0.06800
C 	C 	0.18830 0.21610 0.73755 -0.08000
C 	C 	0.22830 0.30630 0.74298 -0.08200
H 	H 	0.23940 0.31390 0.77370 0.07800
H 	H 	0.19750 0.35680 0.73480 0.07500
C 	C 	0.29550 0.31550 0.71692 -0.07900
C 	C 	0.35520 0.25920 0.72708 0.05900
C 	C 	0.35860 0.20010 0.76375 -0.10800
H 	H 	0.32030 0.19570 0.78230 0.08700
C 	C 	0.41760 0.14880 0.77256 0.00700
H 	H 	0.41790 0.10890 0.79640 0.02900
C 	C 	0.47610 0.15580 0.74660 -0.06300
H 	H 	0.51600 0.12180 0.75320 0.05100
C 	C 	0.47520 0.21280 0.71130 -0.03300
H 	H 	0.51480 0.21720 0.69380 0.04700
C 	C 	0.41620 0.26480 0.70062 -0.02600
C 	C 	0.41730 0.32660 0.66459 0.02100
H 	H 	0.45650 0.32920 0.64670 0.04100
C 	C 	0.36110 0.38240 0.65594 -0.17900
C 	C 	0.30090 0.37860 0.68346 0.23300
C 	C 	0.13510 0.00480 0.80747 0.41000
C 	C 	0.36370 0.44300 0.61668 0.35400
