data_crystal

_cell_length_a 5.12420
_cell_length_b 25.06410
_cell_length_c 27.18770
_cell_angle_alpha 90.00000
_cell_angle_beta  90.94000
_cell_angle_gamma 90.00000

_symmetry_space_group_name_	'P 1'
_symmetry_space_group_name_H-M	'P 1'

loop_
_symmetry_equiv_pos_as_xyz
  x,y,z

loop_
_atom_site_label
_atom_site_type_symbol
_atom_site_fract_x
_atom_site_fract_y
_atom_site_fract_z
_atom_site_charge
Zn	Zn	0.40363 0.28725 0.36119 1.22400
Zn	Zn	0.89710 0.10867 0.37489 1.22200
Zn	Zn	0.26554 0.06007 0.28323 1.22300
Zn	Zn	0.82779 0.96038 0.21156 1.23200
Zn	Zn	0.73319 0.00086 0.43441 1.22500
P 	P 	0.39160 0.16511 0.34126 0.51900
P 	P 	0.30320 0.01981 0.17576 0.58600
P 	P 	0.58180 0.85701 0.16108 0.55600
P 	P 	0.78920 0.00071 0.32035 0.53000
P 	P 	0.78680 0.93658 0.53235 0.52000
O 	O 	0.50110 0.22043 0.33139 -0.45000
O 	O 	0.41160 0.13206 0.29357 -0.47700
O 	O 	0.55080 0.13641 0.38256 -0.47200
O 	O 	0.10900 0.16812 0.35783 -0.47600
O 	O 	0.19310 0.05720 0.21401 -0.50000
O 	O 	0.26390 0.04670 0.12375 -0.49900
H 	H 	0.20210 0.07070 0.10960 0.32200
O 	O 	0.15540 0.96652 0.17479 -0.44000
O 	O 	0.59570 0.01209 0.18117 -0.45900
O 	O 	0.43280 0.89680 0.12550 -0.40200
H 	H 	0.48080 0.91690 0.09830 0.21400
O 	O 	0.79580 0.83325 0.13000 -0.46000
O 	O 	0.38800 0.81499 0.17841 -0.45200
O 	O 	0.68690 0.88768 0.20539 -0.44100
O 	O 	0.91570 0.96677 0.28088 -0.47900
O 	O 	0.83520 0.97331 0.37056 -0.45600
O 	O 	0.93480 0.05642 0.32112 -0.64200
O 	O 	0.50050 0.00890 0.31201 -0.51100
O 	O 	0.85520 0.94658 0.47932 -0.46000
O 	O 	0.64770 0.88050 0.53427 -0.25400
O 	O 	0.04730 0.93166 0.56298 -0.58800
O 	O 	0.62200 0.97958 0.55552 -0.51600
N 	N 	0.29270 0.27560 0.43210 -0.27000
N 	N 	0.89330 0.27980 0.59790 -0.13300
N 	N 	0.00900 0.22424 0.65836 -0.21000
H 	H 	0.00830 0.20510 0.68230 0.14900
N 	N 	0.27110 0.33180 0.73270 -0.20700
H 	H 	0.15390 0.34560 0.75410 0.14700
N 	N 	0.74600 0.09380 0.62570 -0.25100
H 	H 	0.86180 0.07130 0.62200 0.16900
C 	C 	0.08520 0.24680 0.44390 0.12500
H 	H 	0.97890 0.23390 0.41850 -0.03700
C 	C 	0.01950 0.23510 0.49110 -0.15400
H 	H 	0.87610 0.21350 0.49720 0.08700
C 	C 	0.16520 0.25530 0.52950 0.10100
C 	C 	0.37710 0.28570 0.51870 -0.16000
H 	H 	0.48190 0.29980 0.54370 0.09500
C 	C 	0.43530 0.29540 0.46930 0.09100
H 	H 	0.57900 0.31660 0.46220 -0.00800
C 	C 	0.08470 0.24670 0.58100 0.02300
C 	C 	0.85240 0.26510 0.64430 0.10000
C 	C 	0.16360 0.21180 0.61900 0.03100
C 	C 	0.65380 0.28890 0.67560 0.04100
C 	C 	0.49690 0.33110 0.65760 -0.11000
H 	H 	0.52090 0.34460 0.62610 0.07200
C 	C 	0.30950 0.35190 0.68720 0.08700
H 	H 	0.20720 0.38020 0.67590 0.02200
C 	C 	0.41910 0.29220 0.75060 0.08800
H 	H 	0.38970 0.27960 0.78230 0.01900
C 	C 	0.61400 0.26940 0.72340 -0.11900
H 	H 	0.71650 0.24200 0.73620 0.07400
C 	C 	0.36200 0.17060 0.62090 0.10000
C 	C 	0.43670 0.14710 0.66550 -0.17500
H 	H 	0.35440 0.15710 0.69430 0.10200
C 	C 	0.63140 0.10910 0.66720 0.14600
H 	H 	0.68290 0.09420 0.69720 -0.01200
C 	C 	0.67510 0.11390 0.58210 0.10500
H 	H 	0.75630 0.10200 0.55380 0.00000
C 	C 	0.48290 0.15230 0.57850 -0.16700
H 	H 	0.43400 0.16590 0.54780 0.10800
Zn	Zn	0.09637 0.78725 0.13881 1.21800
Zn	Zn	0.60290 0.60867 0.12511 1.22400
Zn	Zn	0.23446 0.56007 0.21677 1.22100
Zn	Zn	0.67221 0.46038 0.28844 1.23100
Zn	Zn	0.76681 0.50086 0.06559 1.22700
P 	P 	0.10840 0.66511 0.15874 0.49200
P 	P 	0.19680 0.51981 0.32424 0.57800
P 	P 	0.91820 0.35701 0.33892 0.55200
P 	P 	0.71080 0.50071 0.17965 0.53000
P 	P 	0.71320 0.43658 0.96765 0.51800
O 	O 	0.99890 0.72043 0.16861 -0.42800
O 	O 	0.08840 0.63206 0.20643 -0.48500
O 	O 	0.94920 0.63641 0.11744 -0.45400
O 	O 	0.39100 0.66812 0.14217 -0.47800
O 	O 	0.30690 0.55720 0.28599 -0.50100
O 	O 	0.23610 0.54670 0.37625 -0.50000
H 	H 	0.29790 0.57070 0.39040 0.32100
O 	O 	0.34460 0.46652 0.32521 -0.43500
O 	O 	0.90430 0.51209 0.31883 -0.45200
O 	O 	0.06720 0.39680 0.37450 -0.39900
H 	H 	0.01920 0.41690 0.40170 0.21300
O 	O 	0.70420 0.33325 0.37000 -0.46800
O 	O 	0.11200 0.31499 0.32159 -0.44500
O 	O 	0.81310 0.38768 0.29461 -0.44300
O 	O 	0.58430 0.46677 0.21912 -0.48400
O 	O 	0.66480 0.47331 0.12944 -0.45900
O 	O 	0.56520 0.55642 0.17888 -0.64200
O 	O 	0.99950 0.50890 0.18799 -0.50300
O 	O 	0.64480 0.44658 0.02068 -0.46100
O 	O 	0.85230 0.38050 0.96573 -0.26000
O 	O 	0.45270 0.43166 0.93702 -0.58500
O 	O 	0.87800 0.47958 0.94448 -0.51900
N 	N 	0.20730 0.77560 0.06790 -0.26700
N 	N 	0.60670 0.77980 0.90210 -0.12300
N 	N 	0.49100 0.72424 0.84164 -0.22100
H 	H 	0.49170 0.70510 0.81770 0.14600
N 	N 	0.22890 0.83180 0.76730 -0.20700
H 	H 	0.34610 0.84560 0.74590 0.13900
N 	N 	0.75400 0.59380 0.87430 -0.25300
H 	H 	0.63820 0.57130 0.87800 0.17200
C 	C 	0.41480 0.74680 0.05610 0.11700
H 	H 	0.52110 0.73390 0.08150 -0.02600
C 	C 	0.48050 0.73510 0.00890 -0.17400
H 	H 	0.62390 0.71350 0.00280 0.10400
C 	C 	0.33480 0.75530 0.97050 0.10500
C 	C 	0.12290 0.78570 0.98130 -0.14900
H 	H 	0.01810 0.79980 0.95630 0.08800
C 	C 	0.06470 0.79540 0.03070 0.05900
H 	H 	0.92100 0.81660 0.03780 0.01400
C 	C 	0.41530 0.74670 0.91900 0.00800
C 	C 	0.64760 0.76510 0.85570 0.11600
C 	C 	0.33640 0.71180 0.88100 0.03200
C 	C 	0.84620 0.78890 0.82440 0.04700
C 	C 	0.00310 0.83110 0.84240 -0.12600
H 	H 	0.97910 0.84460 0.87390 0.08100
C 	C 	0.19050 0.85190 0.81280 0.09100
H 	H 	0.29280 0.88020 0.82410 0.01700
C 	C 	0.08090 0.79220 0.74940 0.08000
H 	H 	0.11030 0.77960 0.71770 0.01900
C 	C 	0.88600 0.76940 0.77660 -0.11200
H 	H 	0.78350 0.74200 0.76380 0.07800
C 	C 	0.13800 0.67060 0.87910 0.09900
C 	C 	0.06330 0.64710 0.83450 -0.17400
H 	H 	0.14560 0.65710 0.80570 0.10000
C 	C 	0.86860 0.60910 0.83280 0.14700
H 	H 	0.81710 0.59420 0.80280 -0.01100
C 	C 	0.82490 0.61390 0.91790 0.11300
H 	H 	0.74370 0.60200 0.94620 0.00000
C 	C 	0.01710 0.65230 0.92150 -0.17200
H 	H 	0.06600 0.66590 0.95220 0.10800
Zn	Zn	0.59637 0.71275 0.63881 1.22500
Zn	Zn	0.10290 0.89133 0.62511 1.22300
Zn	Zn	0.73446 0.93993 0.71677 1.22400
Zn	Zn	0.17221 0.03962 0.78844 1.23300
Zn	Zn	0.26681 0.99914 0.56559 1.22600
P 	P 	0.60840 0.83489 0.65874 0.52000
P 	P 	0.69680 0.98019 0.82424 0.58600
P 	P 	0.41820 0.14299 0.83892 0.55600
P 	P 	0.21080 0.99929 0.67965 0.53000
P 	P 	0.21320 0.06342 0.46765 0.52000
O 	O 	0.49890 0.77957 0.66861 -0.45000
O 	O 	0.58840 0.86794 0.70643 -0.47700
O 	O 	0.44920 0.86359 0.61744 -0.47200
O 	O 	0.89100 0.83188 0.64217 -0.47600
O 	O 	0.80690 0.94280 0.78599 -0.50000
O 	O 	0.73610 0.95330 0.87625 -0.49900
H 	H 	0.79790 0.92930 0.89040 0.32200
O 	O 	0.84460 0.03348 0.82521 -0.44000
O 	O 	0.40430 0.98791 0.81883 -0.45900
O 	O 	0.56720 0.10320 0.87450 -0.40200
H 	H 	0.51920 0.08310 0.90170 0.21400
O 	O 	0.20420 0.16675 0.87000 -0.46000
O 	O 	0.61200 0.18501 0.82159 -0.45200
O 	O 	0.31310 0.11232 0.79461 -0.44100
O 	O 	0.08430 0.03323 0.71912 -0.47900
O 	O 	0.16480 0.02669 0.62944 -0.45600
O 	O 	0.06520 0.94358 0.67888 -0.64200
O 	O 	0.49950 0.99110 0.68799 -0.51100
O 	O 	0.14480 0.05342 0.52068 -0.46000
O 	O 	0.35230 0.11950 0.46573 -0.25400
O 	O 	0.95270 0.06834 0.43702 -0.58800
O 	O 	0.37800 0.02042 0.44448 -0.51600
N 	N 	0.70730 0.72440 0.56790 -0.27000
N 	N 	0.10670 0.72020 0.40210 -0.13300
N 	N 	0.99100 0.77576 0.34164 -0.21000
H 	H 	0.99170 0.79490 0.31770 0.14900
N 	N 	0.72890 0.66820 0.26730 -0.20700
H 	H 	0.84610 0.65440 0.24590 0.14700
N 	N 	0.25400 0.90620 0.37430 -0.25100
H 	H 	0.13820 0.92870 0.37800 0.16900
C 	C 	0.91480 0.75320 0.55610 0.12500
H 	H 	0.02110 0.76610 0.58150 -0.03700
C 	C 	0.98050 0.76490 0.50890 -0.15400
H 	H 	0.12390 0.78650 0.50280 0.08700
C 	C 	0.83480 0.74470 0.47050 0.10100
C 	C 	0.62290 0.71430 0.48130 -0.16000
H 	H 	0.51810 0.70020 0.45630 0.09500
C 	C 	0.56470 0.70460 0.53070 0.09100
H 	H 	0.42100 0.68340 0.53780 -0.00800
C 	C 	0.91530 0.75330 0.41900 0.02300
C 	C 	0.14760 0.73490 0.35570 0.10000
C 	C 	0.83640 0.78820 0.38100 0.03100
C 	C 	0.34620 0.71110 0.32440 0.04100
C 	C 	0.50310 0.66890 0.34240 -0.11000
H 	H 	0.47910 0.65540 0.37390 0.07200
C 	C 	0.69050 0.64810 0.31280 0.08700
H 	H 	0.79280 0.61980 0.32410 0.02200
C 	C 	0.58090 0.70780 0.24940 0.08800
H 	H 	0.61030 0.72040 0.21770 0.01900
C 	C 	0.38600 0.73060 0.27660 -0.11900
H 	H 	0.28350 0.75800 0.26380 0.07400
C 	C 	0.63800 0.82940 0.37910 0.10000
C 	C 	0.56330 0.85290 0.33450 -0.17500
H 	H 	0.64560 0.84290 0.30570 0.10200
C 	C 	0.36860 0.89090 0.33280 0.14600
H 	H 	0.31710 0.90580 0.30280 -0.01200
C 	C 	0.32490 0.88610 0.41790 0.10500
H 	H 	0.24370 0.89800 0.44620 0.00000
C 	C 	0.51710 0.84770 0.42150 -0.16700
H 	H 	0.56600 0.83410 0.45220 0.10800
Zn	Zn	0.90363 0.21275 0.86119 1.21800
Zn	Zn	0.39710 0.39133 0.87489 1.22400
Zn	Zn	0.76554 0.43993 0.78323 1.22100
Zn	Zn	0.32779 0.53962 0.71156 1.23100
Zn	Zn	0.23319 0.49914 0.93441 1.22700
P 	P 	0.89160 0.33489 0.84126 0.49200
P 	P 	0.80320 0.48019 0.67576 0.57800
P 	P 	0.08180 0.64299 0.66108 0.55200
P 	P 	0.28920 0.49929 0.82035 0.53000
P 	P 	0.28680 0.56342 0.03235 0.51800
O 	O 	0.00110 0.27957 0.83139 -0.42800
O 	O 	0.91160 0.36794 0.79357 -0.48500
O 	O 	0.05080 0.36359 0.88256 -0.45400
O 	O 	0.60900 0.33188 0.85783 -0.47800
O 	O 	0.69310 0.44280 0.71401 -0.50100
O 	O 	0.76390 0.45330 0.62375 -0.50000
H 	H 	0.70210 0.42930 0.60960 0.32100
O 	O 	0.65540 0.53348 0.67479 -0.43500
O 	O 	0.09570 0.48791 0.68117 -0.45200
O 	O 	0.93280 0.60320 0.62550 -0.39900
H 	H 	0.98080 0.58310 0.59830 0.21300
O 	O 	0.29580 0.66675 0.63000 -0.46800
O 	O 	0.88800 0.68501 0.67841 -0.44500
O 	O 	0.18690 0.61232 0.70539 -0.44300
O 	O 	0.41570 0.53323 0.78088 -0.48400
O 	O 	0.33520 0.52669 0.87056 -0.45900
O 	O 	0.43480 0.44358 0.82112 -0.64200
O 	O 	0.00050 0.49110 0.81201 -0.50300
O 	O 	0.35520 0.55342 0.97932 -0.46100
O 	O 	0.14770 0.61950 0.03427 -0.26000
O 	O 	0.54730 0.56834 0.06298 -0.58500
O 	O 	0.12200 0.52042 0.05552 -0.51900
N 	N 	0.79270 0.22440 0.93210 -0.26700
N 	N 	0.39330 0.22020 0.09790 -0.12300
N 	N 	0.50900 0.27576 0.15836 -0.22100
H 	H 	0.50830 0.29490 0.18230 0.14600
N 	N 	0.77110 0.16820 0.23270 -0.20700
H 	H 	0.65390 0.15440 0.25410 0.13900
N 	N 	0.24600 0.40620 0.12570 -0.25300
H 	H 	0.36180 0.42870 0.12200 0.17200
C 	C 	0.58520 0.25320 0.94390 0.11700
H 	H 	0.47890 0.26610 0.91850 -0.02600
C 	C 	0.51950 0.26490 0.99110 -0.17400
H 	H 	0.37610 0.28650 0.99720 0.10400
C 	C 	0.66520 0.24470 0.02950 0.10500
C 	C 	0.87710 0.21430 0.01870 -0.14900
H 	H 	0.98190 0.20020 0.04370 0.08800
C 	C 	0.93530 0.20460 0.96930 0.05900
H 	H 	0.07900 0.18340 0.96220 0.01400
C 	C 	0.58470 0.25330 0.08100 0.00800
C 	C 	0.35240 0.23490 0.14430 0.11600
C 	C 	0.66360 0.28820 0.11900 0.03200
C 	C 	0.15380 0.21110 0.17560 0.04700
C 	C 	0.99690 0.16890 0.15760 -0.12600
H 	H 	0.02090 0.15540 0.12610 0.08100
C 	C 	0.80950 0.14810 0.18720 0.09100
H 	H 	0.70720 0.11980 0.17590 0.01700
C 	C 	0.91910 0.20780 0.25060 0.08000
H 	H 	0.88970 0.22040 0.28230 0.01900
C 	C 	0.11400 0.23060 0.22340 -0.11200
H 	H 	0.21650 0.25800 0.23620 0.07800
C 	C 	0.86200 0.32940 0.12090 0.09900
C 	C 	0.93670 0.35290 0.16550 -0.17400
H 	H 	0.85440 0.34290 0.19430 0.10000
C 	C 	0.13140 0.39090 0.16720 0.14700
H 	H 	0.18290 0.40580 0.19720 -0.01100
C 	C 	0.17510 0.38610 0.08210 0.11300
H 	H 	0.25630 0.39800 0.05380 0.00000
C 	C 	0.98290 0.34770 0.07850 -0.17200
H 	H 	0.93400 0.33410 0.04780 0.10800
