data_crystal

_cell_length_a 8.92460
_cell_length_b 11.06200
_cell_length_c 12.49000
_cell_angle_alpha 96.36200
_cell_angle_beta  91.33400
_cell_angle_gamma 97.68500

_symmetry_space_group_name_	'P 1'
_symmetry_space_group_name_H-M	'P 1'

loop_
_symmetry_equiv_pos_as_xyz
  x,y,z

loop_
_atom_site_label
_atom_site_type_symbol
_atom_site_fract_x
_atom_site_fract_y
_atom_site_fract_z
_atom_site_charge
Cd	Cd	0.47588 0.75203 0.78179 1.15700
Cd	Cd	0.52412 0.24797 0.21821 1.15700
H 	H 	0.99680 0.03760 0.61230 0.09600
H 	H 	0.35700 0.36010 0.54300 0.21200
H 	H 	0.64600 0.77940 0.44330 0.23800
H 	H 	0.05170 0.82720 0.70370 0.04800
H 	H 	0.40860 0.61240 0.15310 0.26600
H 	H 	0.52800 0.71580 0.51760 0.18600
H 	H 	0.29170 0.53360 0.21800 0.24700
H 	H 	0.80070 0.45630 0.11260 0.01000
H 	H 	0.98530 0.37520 0.01100 0.08900
H 	H 	0.00320 0.96240 0.38770 0.09600
H 	H 	0.62130 0.81580 0.04020 0.05100
H 	H 	0.14970 0.22000 0.17760 0.02900
H 	H 	0.27670 0.62430 0.99000 0.02900
H 	H 	0.01470 0.62480 0.98900 0.08900
H 	H 	0.06960 0.57070 0.09120 0.08100
H 	H 	0.37870 0.18420 0.95980 0.05100
H 	H 	0.35400 0.22060 0.55670 0.23800
H 	H 	0.76780 0.68710 0.13790 0.05600
H 	H 	0.85030 0.78000 0.82240 0.02900
H 	H 	0.59140 0.38760 0.84690 0.26600
H 	H 	0.07620 0.81200 0.49750 0.02300
H 	H 	0.85350 0.96280 0.45110 0.06600
H 	H 	0.46390 0.51950 0.22620 0.20100
H 	H 	0.94830 0.17280 0.29630 0.04800
H 	H 	0.53610 0.48050 0.77380 0.20100
H 	H 	0.93370 0.76190 0.42190 0.03300
H 	H 	0.23220 0.31290 0.86210 0.05600
H 	H 	0.92380 0.18800 0.50250 0.02300
H 	H 	0.19930 0.54370 0.88740 0.01000
H 	H 	0.14650 0.03720 0.54890 0.06600
H 	H 	0.70830 0.46640 0.78200 0.24700
H 	H 	0.64300 0.63990 0.45700 0.21200
H 	H 	0.47200 0.28420 0.48240 0.18600
H 	H 	0.72330 0.37570 0.01000 0.02900
H 	H 	0.93040 0.42930 0.90880 0.08100
H 	H 	0.06630 0.23810 0.57810 0.03300
C 	C 	0.26140 0.24810 0.41400 0.27500
C 	C 	0.95020 0.80320 0.68360 -0.00100
C 	C 	0.92130 0.97720 0.09000 0.26200
C 	C 	0.84010 0.77710 0.74780 -0.02800
C 	C 	0.04980 0.19680 0.31640 -0.00100
C 	C 	0.07870 0.02280 0.91000 0.26200
C 	C 	0.04620 0.91820 0.06380 0.25900
C 	C 	0.38330 0.53410 0.17910 -0.78000
C 	C 	0.87200 0.06070 0.02710 -0.24100
C 	C 	0.36120 0.43590 0.08640 0.28000
C 	C 	0.63950 0.73690 0.01540 -0.00500
C 	C 	0.78960 0.45090 0.03470 -0.01600
C 	C 	0.37070 0.28110 0.50730 -0.74100
C 	C 	0.73300 0.12400 0.05580 0.44100
C 	C 	0.63880 0.56410 0.91360 0.28000
C 	C 	0.02930 0.18020 0.51610 -0.01600
C 	C 	0.15990 0.22290 0.25220 -0.02800
C 	C 	0.05590 0.55530 0.01340 -0.11300
C 	C 	0.12800 0.93930 0.97290 -0.24100
C 	C 	0.94410 0.44470 0.98660 -0.11300
C 	C 	0.95380 0.08180 0.93620 0.25900
C 	C 	0.26700 0.87600 0.94420 0.44100
C 	C 	0.62930 0.71890 0.49270 -0.74100
C 	C 	0.04080 0.04840 0.54310 -0.11900
C 	C 	0.21040 0.54910 0.96530 -0.01600
C 	C 	0.73860 0.75190 0.58600 0.27500
C 	C 	0.97070 0.81980 0.48390 -0.01600
C 	C 	0.72040 0.66590 0.07000 -0.00300
C 	C 	0.27960 0.33410 0.93000 -0.00300
C 	C 	0.61670 0.46590 0.82090 -0.78000
C 	C 	0.36050 0.26310 0.98460 -0.00500
C 	C 	0.95920 0.95160 0.45690 -0.11900
N 	N 	0.70010 0.74290 0.68490 -0.29000
N 	N 	0.41100 0.32730 0.08300 -0.28700
N 	N 	0.71830 0.55680 0.00550 -0.16100
N 	N 	0.58900 0.67270 0.91700 -0.28700
N 	N 	0.88560 0.78810 0.57700 -0.16600
N 	N 	0.11440 0.21190 0.42300 -0.16600
N 	N 	0.29990 0.25710 0.31510 -0.29000
N 	N 	0.28170 0.44320 0.99450 -0.16100
O 	O 	0.62820 0.10880 0.98810 -0.31700
O 	O 	0.37180 0.89120 0.01190 -0.31700
O 	O 	0.74000 0.18670 0.14550 -0.45500
O 	O 	0.26000 0.81330 0.85450 -0.45500
F 	F 	0.91420 0.16250 0.87080 -0.44400
F 	F 	0.08580 0.83750 0.12920 -0.44400
F 	F 	0.15390 0.05060 0.82170 -0.45200
F 	F 	0.84610 0.94940 0.17830 -0.45200
