data_crystal

_cell_length_a 8.72380
_cell_length_b 11.62720
_cell_length_c 8.27470
_cell_angle_alpha 90.00000
_cell_angle_beta  90.00000
_cell_angle_gamma 90.00000

_symmetry_space_group_name_	'P 1'
_symmetry_space_group_name_H-M	'P 1'

loop_
_symmetry_equiv_pos_as_xyz
  x,y,z

loop_
_atom_site_label
_atom_site_type_symbol
_atom_site_fract_x
_atom_site_fract_y
_atom_site_fract_z
_atom_site_charge
O 	O 	0.58387 0.32227 0.58900 -0.39800
O 	O 	0.23808 0.09475 0.38367 -0.36800
O 	O 	0.41236 0.31689 0.39500 -0.38100
C 	C 	0.47015 0.28001 0.52253 0.45400
H 	H 	0.42200 0.21230 0.57110 -0.09200
O 	O 	0.91613 0.67773 0.58900 -0.39300
O 	O 	0.26192 0.90525 0.38367 -0.31900
O 	O 	0.08764 0.68311 0.39500 -0.37700
C 	C 	0.02985 0.71999 0.52253 0.44900
H 	H 	0.07800 0.78770 0.57110 -0.08100
O 	O 	0.91613 0.82227 0.91100 -0.37000
O 	O 	0.26192 0.59475 0.11633 -0.38100
O 	O 	0.08764 0.81689 0.10500 -0.35700
C 	C 	0.02985 0.78001 0.97747 0.42900
H 	H 	0.07800 0.71230 0.92890 -0.08000
O 	O 	0.58387 0.17773 0.91100 -0.40400
O 	O 	0.23808 0.40525 0.11633 -0.38100
O 	O 	0.41236 0.18311 0.10500 -0.38700
C 	C 	0.47015 0.21999 0.97747 0.45200
H 	H 	0.42200 0.28770 0.92890 -0.08800
O 	O 	0.41613 0.67773 0.41100 -0.39500
O 	O 	0.76192 0.90525 0.61633 -0.31500
O 	O 	0.58764 0.68311 0.60500 -0.37800
C 	C 	0.52985 0.71999 0.47747 0.45300
H 	H 	0.57800 0.78770 0.42890 -0.08100
O 	O 	0.08387 0.32227 0.41100 -0.39600
O 	O 	0.73808 0.09475 0.61633 -0.36700
O 	O 	0.91236 0.31689 0.60500 -0.38000
C 	C 	0.97015 0.28001 0.47747 0.45100
H 	H 	0.92200 0.21230 0.42890 -0.09200
O 	O 	0.08387 0.17773 0.08900 -0.39400
O 	O 	0.73808 0.40525 0.88367 -0.38100
O 	O 	0.91236 0.18311 0.89500 -0.37900
C 	C 	0.97015 0.21999 0.02253 0.43300
H 	H 	0.92200 0.28770 0.07110 -0.08300
O 	O 	0.41613 0.82227 0.08900 -0.38000
O 	O 	0.76192 0.59475 0.88367 -0.38100
O 	O 	0.58764 0.81689 0.89500 -0.36400
C 	C 	0.52985 0.78001 0.02253 0.44900
H 	H 	0.57800 0.71230 0.07110 -0.08400
Co	Co	0.23720 0.25000 0.25000 1.21400
Co	Co	0.26280 0.75000 0.25000 1.21500
Co	Co	0.76280 0.75000 0.75000 1.21500
Co	Co	0.73720 0.25000 0.75000 1.21300
C 	C 	0.25000 -0.00000 0.31430 0.35600
H 	H 	0.25000 -0.00000 0.20190 -0.07800
C 	C 	0.25000 0.50000 0.18570 0.45600
H 	H 	0.25000 0.50000 0.29810 -0.09200
C 	C 	0.75000 0.00000 0.68570 0.35100
H 	H 	0.75000 -0.00000 0.79810 -0.07700
C 	C 	0.75000 0.50000 0.81430 0.45600
H 	H 	0.75000 0.50000 0.70190 -0.09200
