data_crystal

_cell_length_a 8.82460
_cell_length_b 11.73360
_cell_length_c 8.32580
_cell_angle_alpha 90.00000
_cell_angle_beta  90.00000
_cell_angle_gamma 90.00000

_symmetry_space_group_name_	'P 1'
_symmetry_space_group_name_H-M	'P 1'

loop_
_symmetry_equiv_pos_as_xyz
  x,y,z

loop_
_atom_site_label
_atom_site_type_symbol
_atom_site_fract_x
_atom_site_fract_y
_atom_site_fract_z
_atom_site_charge
O 	O 	0.58295 0.32212 0.58916 -0.41000
O 	O 	0.23851 0.09409 0.38752 -0.36200
O 	O 	0.41520 0.31665 0.39495 -0.39400
C 	C 	0.46995 0.28163 0.52333 0.50000
H 	H 	0.42430 0.21720 0.56750 -0.12300
O 	O 	0.91705 0.67788 0.58916 -0.40600
O 	O 	0.26149 0.90591 0.38752 -0.31500
O 	O 	0.08480 0.68335 0.39495 -0.39000
C 	C 	0.03005 0.71837 0.52333 0.49400
H 	H 	0.07570 0.78280 0.56750 -0.11100
O 	O 	0.91705 0.82212 0.91084 -0.38300
O 	O 	0.26149 0.59409 0.11248 -0.37600
O 	O 	0.08480 0.81665 0.10505 -0.36900
C 	C 	0.03005 0.78163 0.97667 0.47200
H 	H 	0.07570 0.71720 0.93250 -0.10900
O 	O 	0.58295 0.17788 0.91084 -0.41700
O 	O 	0.23851 0.40591 0.11248 -0.37600
O 	O 	0.41520 0.18335 0.10505 -0.40000
C 	C 	0.46995 0.21837 0.97667 0.49800
H 	H 	0.42430 0.28280 0.93250 -0.11800
O 	O 	0.41705 0.67788 0.41084 -0.40800
O 	O 	0.76149 0.90591 0.61248 -0.31200
O 	O 	0.58480 0.68335 0.60505 -0.39100
C 	C 	0.53005 0.71837 0.47667 0.49800
H 	H 	0.57570 0.78280 0.43250 -0.11100
O 	O 	0.08295 0.32212 0.41084 -0.40900
O 	O 	0.73851 0.09409 0.61248 -0.36300
O 	O 	0.91520 0.31665 0.60505 -0.39300
C 	C 	0.96995 0.28163 0.47667 0.49700
H 	H 	0.92430 0.21720 0.43250 -0.12300
O 	O 	0.08295 0.17788 0.08916 -0.40600
O 	O 	0.73851 0.40591 0.88752 -0.37600
O 	O 	0.91520 0.18335 0.89495 -0.39100
C 	C 	0.96995 0.21837 0.02333 0.47600
H 	H 	0.92430 0.28280 0.06750 -0.11200
O 	O 	0.41705 0.82212 0.08916 -0.39400
O 	O 	0.76149 0.59409 0.88752 -0.37600
O 	O 	0.58480 0.81665 0.89495 -0.37700
C 	C 	0.53005 0.78163 0.02333 0.49400
H 	H 	0.57570 0.71720 0.06750 -0.11500
Fe	Fe	0.23846 0.25000 0.25000 1.23200
Fe	Fe	0.26154 0.75000 0.25000 1.23400
Fe	Fe	0.76154 0.75000 0.75000 1.23400
Fe	Fe	0.73846 0.25000 0.75000 1.23100
C 	C 	0.25000 0.00000 0.31910 0.35600
H 	H 	0.25000 0.00000 0.20740 -0.08200
C 	C 	0.25000 0.50000 0.18090 0.45300
H 	H 	0.25000 0.50000 0.29260 -0.09600
C 	C 	0.75000 0.00000 0.68090 0.35000
H 	H 	0.75000 0.00000 0.79260 -0.08200
C 	C 	0.75000 0.50000 0.81910 0.45300
H 	H 	0.75000 0.50000 0.70740 -0.09600
