data_crystal

_cell_length_a 9.49000
_cell_length_b 12.07170
_cell_length_c 16.78300
_cell_angle_alpha 96.00880
_cell_angle_beta  90.00000
_cell_angle_gamma 113.14600

_symmetry_space_group_name_	'P 1'
_symmetry_space_group_name_H-M	'P 1'

loop_
_symmetry_equiv_pos_as_xyz
  x,y,z

loop_
_atom_site_label
_atom_site_type_symbol
_atom_site_fract_x
_atom_site_fract_y
_atom_site_fract_z
_atom_site_charge
Dy	Dy	0.30385 0.00935 0.43407 1.98400
Dy	Dy	0.29450 0.99065 0.06593 1.99100
Dy	Dy	0.70551 0.00936 0.93407 1.99200
Dy	Dy	0.69616 0.99066 0.56593 1.98500
Ag	Ag	0.71697 0.68462 0.42047 0.55300
Ag	Ag	0.28303 0.31538 0.57953 0.55300
Ag	Ag	0.03235 0.31538 0.07953 0.55100
Ag	Ag	0.96765 0.68462 0.92047 0.55100
H 	H 	0.42630 0.81200 0.22150 0.05700
H 	H 	0.61430 0.18800 0.27850 0.05900
H 	H 	0.49730 0.36660 0.11500 -0.00600
H 	H 	0.43450 0.42660 0.86880 0.09500
H 	H 	0.16910 0.58280 0.03970 -0.02000
H 	H 	0.38570 0.81200 0.72150 0.05900
H 	H 	0.09250 0.19960 0.22780 0.02200
H 	H 	0.83090 0.41720 0.96030 -0.02000
H 	H 	0.96170 0.09600 0.33110 0.05400
H 	H 	0.05870 0.30520 0.44390 -0.00000
H 	H 	0.86570 0.90400 0.16890 0.04700
H 	H 	0.41370 0.58280 0.53970 -0.02100
H 	H 	0.50270 0.63340 0.88500 -0.00600
H 	H 	0.13070 0.63340 0.38500 -0.00700
H 	H 	0.75350 0.69480 0.05610 0.00200
H 	H 	0.94130 0.69480 0.55610 -0.00000
H 	H 	0.75710 0.29480 0.18130 0.00800
H 	H 	0.53770 0.29480 0.68130 0.00800
H 	H 	0.89290 0.80040 0.27220 0.02900
H 	H 	0.99210 0.42660 0.36880 0.09800
H 	H 	0.86930 0.36660 0.61500 -0.00700
H 	H 	0.24290 0.70520 0.81870 0.00800
H 	H 	0.13430 0.09600 0.83110 0.04700
H 	H 	0.00790 0.57340 0.63120 0.09800
H 	H 	0.58630 0.41720 0.46030 -0.02100
H 	H 	0.90750 0.80040 0.77220 0.02200
H 	H 	0.10710 0.19960 0.72780 0.02900
H 	H 	0.57370 0.18800 0.77850 0.05700
H 	H 	0.03830 0.90400 0.66890 0.05400
H 	H 	0.46230 0.70520 0.31870 0.00800
H 	H 	0.56550 0.57340 0.13120 0.09500
H 	H 	0.24650 0.30520 0.94390 0.00200
C 	C 	0.73060 0.61200 0.05090 0.10200
C 	C 	0.64300 0.87120 0.18480 -0.09000
C 	C 	0.03570 0.06980 0.51050 0.25500
C 	C 	0.29120 0.63160 0.46370 -0.22300
C 	C 	0.45410 0.25120 0.71010 0.03000
C 	C 	0.61090 0.23600 0.52340 0.49600
C 	C 	0.37980 0.05480 0.87830 0.44000
C 	C 	0.54590 0.74880 0.28990 0.03000
C 	C 	0.00530 0.80360 0.76220 0.03000
C 	C 	0.99470 0.19640 0.23780 0.03000
C 	C 	0.79830 0.80360 0.26220 0.01600
C 	C 	0.08340 0.86620 0.69990 -0.03400
C 	C 	0.52240 0.81080 0.23050 -0.03800
C 	C 	0.96430 0.93020 0.48950 0.25500
C 	C 	0.77490 0.44840 0.99440 0.10600
C 	C 	0.77180 0.12880 0.31520 -0.08300
C 	C 	0.22210 0.92960 0.24570 0.25800
C 	C 	0.32650 0.55160 0.50560 0.11100
C 	C 	0.38370 0.46060 0.90450 -0.18500
C 	C 	0.28840 0.81080 0.73050 -0.04100
C 	C 	0.22820 0.87120 0.68480 -0.08300
C 	C 	0.16080 0.58320 0.41290 0.12800
C 	C 	0.62510 0.23600 0.02340 0.50000
C 	C 	0.34040 0.63160 0.96370 -0.22000
C 	C 	0.35700 0.12880 0.81520 -0.09000
C 	C 	0.70750 0.92960 0.74570 0.25500
C 	C 	0.71160 0.18920 0.26950 -0.04100
C 	C 	0.83920 0.41680 0.58710 0.12800
C 	C 	0.62020 0.94520 0.12170 0.44000
C 	C 	0.38910 0.76400 0.47660 0.49600
C 	C 	0.32500 0.94520 0.62170 0.43800
C 	C 	0.61630 0.53940 0.09550 -0.18500
C 	C 	0.88140 0.61200 0.55090 0.10600
C 	C 	0.22510 0.55160 0.00560 0.10600
C 	C 	0.21720 0.13380 0.80010 -0.02700
C 	C 	0.29250 0.07040 0.25430 0.25500
C 	C 	0.57760 0.41680 0.08710 0.12400
C 	C 	0.67500 0.05480 0.37830 0.43800
C 	C 	0.79710 0.25120 0.21010 0.03300
C 	C 	0.65960 0.36840 0.03630 -0.22000
C 	C 	0.42240 0.58320 0.91290 0.12400
C 	C 	0.67350 0.44840 0.49440 0.11100
C 	C 	0.37490 0.76400 0.97660 0.50000
C 	C 	0.26940 0.38800 0.94910 0.10200
C 	C 	0.91660 0.13380 0.30010 -0.03400
C 	C 	0.07690 0.46060 0.40450 -0.19200
C 	C 	0.20290 0.74880 0.78990 0.03300
C 	C 	0.78280 0.86620 0.19990 -0.02700
C 	C 	0.47760 0.18920 0.76950 -0.03800
C 	C 	0.92310 0.53940 0.59550 -0.19200
C 	C 	0.11860 0.38800 0.44910 0.10600
C 	C 	0.20170 0.19640 0.73780 0.01600
C 	C 	0.77790 0.07040 0.75430 0.25800
C 	C 	0.03410 0.06980 0.01050 0.25800
C 	C 	0.96590 0.93020 0.98950 0.25800
C 	C 	0.70880 0.36840 0.53630 -0.22300
N 	N 	0.31870 0.25240 0.69180 -0.17400
N 	N 	0.06630 0.74760 0.80820 -0.17500
N 	N 	0.80970 0.56780 0.00060 -0.20300
N 	N 	0.93370 0.25240 0.19180 -0.17500
N 	N 	0.19030 0.43220 0.99940 -0.20300
N 	N 	0.68130 0.74760 0.30820 -0.17400
N 	N 	0.75810 0.56780 0.50060 -0.20500
N 	N 	0.24190 0.43220 0.49940 -0.20500
O 	O 	0.03390 0.87420 0.02070 -0.43700
O 	O 	0.20990 0.88100 0.30860 -0.39200
O 	O 	0.46310 0.96240 0.62260 -0.50400
O 	O 	0.96510 0.11500 0.55750 -0.41000
O 	O 	0.27530 0.79740 0.00830 -0.51500
O 	O 	0.74130 0.01400 0.42740 -0.46200
O 	O 	0.67110 0.88100 0.80860 -0.39300
O 	O 	0.03490 0.88500 0.44250 -0.41000
O 	O 	0.30480 0.12300 0.32440 -0.39900
O 	O 	0.47790 0.20260 0.49170 -0.51200
O 	O 	0.66970 0.16680 0.54490 -0.52500
O 	O 	0.72730 0.98600 0.07260 -0.46800
O 	O 	0.50290 0.83320 0.95510 -0.52500
O 	O 	0.72470 0.20260 0.99170 -0.51500
O 	O 	0.27270 0.01400 0.92740 -0.46800
O 	O 	0.52210 0.79740 0.50830 -0.51200
O 	O 	0.69520 0.87700 0.67560 -0.39900
O 	O 	0.14990 0.11500 0.05750 -0.41500
O 	O 	0.15970 0.12580 0.47930 -0.43900
O 	O 	0.18180 0.87700 0.17560 -0.39900
O 	O 	0.50070 0.03760 0.87740 -0.50600
O 	O 	0.53690 0.03760 0.37740 -0.50400
O 	O 	0.96610 0.12580 0.97930 -0.43700
O 	O 	0.85010 0.88500 0.94250 -0.41500
O 	O 	0.81820 0.12300 0.82440 -0.39900
O 	O 	0.25870 0.98600 0.57260 -0.46200
O 	O 	0.33030 0.83320 0.45510 -0.52500
O 	O 	0.79010 0.11900 0.69140 -0.39200
O 	O 	0.49710 0.16680 0.04490 -0.52500
O 	O 	0.84030 0.87420 0.52070 -0.43900
O 	O 	0.32890 0.11900 0.19140 -0.39300
O 	O 	0.49930 0.96240 0.12260 -0.50600
