data_crystal

_cell_length_a 9.52500
_cell_length_b 12.04040
_cell_length_c 16.86500
_cell_angle_alpha 96.54220
_cell_angle_beta  90.00000
_cell_angle_gamma 113.30000

_symmetry_space_group_name_	'P 1'
_symmetry_space_group_name_H-M	'P 1'

loop_
_symmetry_equiv_pos_as_xyz
  x,y,z

loop_
_atom_site_label
_atom_site_type_symbol
_atom_site_fract_x
_atom_site_fract_y
_atom_site_fract_z
_atom_site_charge
Eu	Eu	0.29584 0.99100 0.56575 2.16600
Eu	Eu	0.70416 0.00900 0.43425 2.16600
Eu	Eu	0.69516 0.99100 0.06575 2.14400
Eu	Eu	0.30484 0.00900 0.93425 2.14400
Ag	Ag	0.72087 0.68268 0.91641 0.55200
Ag	Ag	0.27913 0.31732 0.08359 0.55200
Ag	Ag	0.03819 0.31732 0.58359 0.55100
Ag	Ag	0.96181 0.68268 0.41641 0.55100
H 	H 	0.50710 0.37160 0.61730 -0.01400
H 	H 	0.43060 0.42140 0.36990 0.09700
H 	H 	0.49290 0.62840 0.38270 -0.01400
H 	H 	0.46650 0.70700 0.81950 0.00800
H 	H 	0.53350 0.29300 0.18050 0.00800
H 	H 	0.00920 0.57860 0.13010 0.09400
H 	H 	0.24050 0.70700 0.31950 0.00700
H 	H 	0.86450 0.37160 0.11730 -0.01200
H 	H 	0.94810 0.69840 0.05150 -0.00000
H 	H 	0.86550 0.89820 0.66750 0.04400
H 	H 	0.24970 0.30160 0.44850 0.00000
H 	H 	0.61830 0.19120 0.77930 0.05200
H 	H 	0.03270 0.89820 0.16750 0.04700
H 	H 	0.75950 0.29300 0.68050 0.00700
H 	H 	0.38170 0.80880 0.22070 0.05200
H 	H 	0.57290 0.19120 0.27930 0.05100
H 	H 	0.89190 0.80120 0.77280 0.02500
H 	H 	0.56940 0.57860 0.63010 0.09700
H 	H 	0.82560 0.41620 0.45720 -0.02600
H 	H 	0.13550 0.62840 0.88270 -0.01200
H 	H 	0.05190 0.30160 0.94850 -0.00000
H 	H 	0.59060 0.41620 0.95720 -0.02500
H 	H 	0.13450 0.10180 0.33250 0.04400
H 	H 	0.75030 0.69840 0.55150 0.00000
H 	H 	0.10810 0.19880 0.22720 0.02500
H 	H 	0.17440 0.58380 0.54280 -0.02600
H 	H 	0.96730 0.10180 0.83250 0.04700
H 	H 	0.90930 0.80120 0.27280 0.02300
H 	H 	0.99080 0.42140 0.86990 0.09400
H 	H 	0.09070 0.19880 0.72720 0.02300
H 	H 	0.42710 0.80880 0.72070 0.05100
H 	H 	0.40940 0.58380 0.04280 -0.02500
C 	C 	0.77810 0.07060 0.25550 0.26500
C 	C 	0.64400 0.87080 0.68490 -0.10500
C 	C 	0.72900 0.61560 0.54780 0.10300
C 	C 	0.52360 0.80940 0.73020 -0.03000
C 	C 	0.96640 0.93060 0.48830 0.25700
C 	C 	0.32080 0.94260 0.12150 0.47300
C 	C 	0.28580 0.80940 0.23020 -0.03200
C 	C 	0.32340 0.55080 0.00780 0.12300
C 	C 	0.20280 0.19720 0.23830 0.01800
C 	C 	0.27100 0.38440 0.45220 0.10300
C 	C 	0.96420 0.93060 0.98830 0.25600
C 	C 	0.45130 0.25140 0.21030 0.02700
C 	C 	0.47640 0.19060 0.26980 -0.03000
C 	C 	0.70920 0.37280 0.03640 -0.24000
C 	C 	0.03580 0.06940 0.01170 0.25600
C 	C 	0.22190 0.92940 0.74450 0.26500
C 	C 	0.29080 0.62720 0.96360 -0.24000
C 	C 	0.61930 0.54380 0.59430 -0.19500
C 	C 	0.21660 0.13660 0.30080 -0.02100
C 	C 	0.08000 0.86340 0.19920 -0.02500
C 	C 	0.71420 0.19060 0.76980 -0.03200
C 	C 	0.78340 0.86340 0.69920 -0.02100
C 	C 	0.80010 0.25140 0.71030 0.02800
C 	C 	0.07550 0.45620 0.90570 -0.19100
C 	C 	0.19990 0.74860 0.28970 0.02800
C 	C 	0.37820 0.05740 0.37850 0.47600
C 	C 	0.00560 0.80280 0.26170 0.02400
C 	C 	0.03360 0.06940 0.51170 0.25700
C 	C 	0.37260 0.76120 0.47540 0.53400
C 	C 	0.67920 0.05740 0.87850 0.47300
C 	C 	0.29250 0.07060 0.75550 0.25500
C 	C 	0.61140 0.23880 0.02460 0.53300
C 	C 	0.67660 0.44920 0.99220 0.12300
C 	C 	0.54870 0.74860 0.78970 0.02700
C 	C 	0.33640 0.62720 0.46360 -0.24400
C 	C 	0.35600 0.12920 0.31510 -0.10500
C 	C 	0.77260 0.44920 0.49220 0.12700
C 	C 	0.22680 0.87080 0.18490 -0.10200
C 	C 	0.99440 0.19720 0.73830 0.02400
C 	C 	0.92450 0.54380 0.09430 -0.19100
C 	C 	0.41620 0.57860 0.41230 0.14100
C 	C 	0.38860 0.76120 0.97540 0.53300
C 	C 	0.22740 0.55080 0.50780 0.12700
C 	C 	0.88660 0.61560 0.04780 0.10200
C 	C 	0.16240 0.57860 0.91230 0.13700
C 	C 	0.38070 0.45620 0.40570 -0.19500
C 	C 	0.58380 0.42140 0.58770 0.14100
C 	C 	0.11340 0.38440 0.95220 0.10200
C 	C 	0.70750 0.92940 0.24450 0.25500
C 	C 	0.62180 0.94260 0.62150 0.47600
C 	C 	0.92000 0.13660 0.80080 -0.02500
C 	C 	0.83760 0.42140 0.08770 0.13700
C 	C 	0.77320 0.12920 0.81510 -0.10200
C 	C 	0.62740 0.23880 0.52460 0.53400
C 	C 	0.66360 0.37280 0.53640 -0.24400
C 	C 	0.79720 0.80280 0.76170 0.01800
N 	N 	0.68240 0.74660 0.80670 -0.17600
N 	N 	0.23840 0.43160 0.00340 -0.20700
N 	N 	0.06420 0.74660 0.30670 -0.17700
N 	N 	0.31760 0.25340 0.19330 -0.17600
N 	N 	0.93580 0.25340 0.69330 -0.17700
N 	N 	0.80680 0.56840 0.49660 -0.20800
N 	N 	0.76160 0.56840 0.99660 -0.20700
N 	N 	0.19320 0.43160 0.50340 -0.20800
O 	O 	0.66940 0.87960 0.30660 -0.41000
O 	O 	0.83998 0.87296 0.01780 -0.45300
O 	O 	0.72650 0.98020 0.57360 -0.49900
O 	O 	0.03355 0.88570 0.94010 -0.42500
O 	O 	0.54270 0.04180 0.87800 -0.53900
O 	O 	0.27262 0.79344 0.50550 -0.54400
O 	O 	0.21020 0.87960 0.80660 -0.40700
O 	O 	0.85215 0.88570 0.44010 -0.43600
O 	O 	0.50090 0.95820 0.62200 -0.54000
O 	O 	0.81890 0.12320 0.32490 -0.42200
O 	O 	0.96702 0.12704 0.48220 -0.44900
O 	O 	0.16002 0.12704 0.98220 -0.45300
O 	O 	0.33150 0.82900 0.95270 -0.56100
O 	O 	0.18110 0.87680 0.67510 -0.42200
O 	O 	0.52082 0.79344 0.00550 -0.54400
O 	O 	0.69570 0.87680 0.17510 -0.42000
O 	O 	0.45730 0.95820 0.12200 -0.53900
O 	O 	0.03298 0.87296 0.51780 -0.44900
O 	O 	0.74630 0.01980 0.92640 -0.49500
O 	O 	0.50250 0.17100 0.54730 -0.56600
O 	O 	0.72738 0.20656 0.49450 -0.54400
O 	O 	0.49750 0.82900 0.45270 -0.56600
O 	O 	0.14785 0.11430 0.55990 -0.43600
O 	O 	0.96645 0.11430 0.05990 -0.42500
O 	O 	0.66850 0.17100 0.04730 -0.56100
O 	O 	0.33060 0.12040 0.69340 -0.41000
O 	O 	0.78980 0.12040 0.19340 -0.40700
O 	O 	0.25370 0.98020 0.07360 -0.49500
O 	O 	0.49910 0.04180 0.37800 -0.54000
O 	O 	0.47918 0.20656 0.99450 -0.54400
O 	O 	0.30430 0.12320 0.82490 -0.42000
O 	O 	0.27350 0.01980 0.42640 -0.49900
