data_crystal

_cell_length_a 9.52800
_cell_length_b 12.01120
_cell_length_c 16.89900
_cell_angle_alpha 96.32890
_cell_angle_beta  90.00000
_cell_angle_gamma 113.36800

_symmetry_space_group_name_	'P 1'
_symmetry_space_group_name_H-M	'P 1'

loop_
_symmetry_equiv_pos_as_xyz
  x,y,z

loop_
_atom_site_label
_atom_site_type_symbol
_atom_site_fract_x
_atom_site_fract_y
_atom_site_fract_z
_atom_site_charge
Sm	Sm	0.79640 0.99086 0.06579 2.28600
Sm	Sm	0.19446 0.99086 0.56579 2.30000
Sm	Sm	0.20360 0.00914 0.93421 2.28600
Sm	Sm	0.80554 0.00914 0.43421 2.30000
Ag	Ag	0.22294 0.68394 0.41638 0.55200
Ag	Ag	0.53900 0.31606 0.08362 0.55200
Ag	Ag	0.77706 0.31606 0.58362 0.55300
Ag	Ag	0.46100 0.68394 0.91638 0.55300
H 	H 	0.46620 0.09940 0.33210 0.03800
H 	H 	0.44750 0.69840 0.55000 -0.00900
H 	H 	0.49110 0.42040 0.37120 0.10700
H 	H 	0.08920 0.41900 0.45860 -0.03100
H 	H 	0.92930 0.42040 0.87120 0.10700
H 	H 	0.32980 0.41900 0.95860 -0.02900
H 	H 	0.50890 0.57960 0.62880 0.10700
H 	H 	0.91080 0.58100 0.54140 -0.03100
H 	H 	0.88150 0.80960 0.72060 0.04400
H 	H 	0.07190 0.19040 0.77940 0.04000
H 	H 	0.03030 0.28820 0.67790 0.00700
H 	H 	0.01050 0.37320 0.11920 -0.02400
H 	H 	0.11850 0.19040 0.27940 0.04400
H 	H 	0.67020 0.58100 0.04140 -0.02900
H 	H 	0.96970 0.71180 0.32210 0.00700
H 	H 	0.60650 0.19760 0.72940 0.03000
H 	H 	0.39350 0.80240 0.27060 0.03000
H 	H 	0.07070 0.57960 0.12880 0.10700
H 	H 	0.92810 0.80960 0.22060 0.04000
H 	H 	0.59110 0.19760 0.22940 0.02900
H 	H 	0.63730 0.62680 0.38080 -0.02400
H 	H 	0.36680 0.90060 0.16790 0.03800
H 	H 	0.53380 0.90060 0.66790 0.03800
H 	H 	0.98950 0.62680 0.88080 -0.02400
H 	H 	0.40890 0.80240 0.77060 0.02900
H 	H 	0.36270 0.37320 0.61920 -0.02400
H 	H 	0.74210 0.71180 0.82210 0.01000
H 	H 	0.55250 0.30160 0.45000 -0.00900
H 	H 	0.25790 0.28820 0.17790 0.01000
H 	H 	0.63320 0.09940 0.83210 0.03800
H 	H 	0.74910 0.30160 0.95000 -0.01000
H 	H 	0.25090 0.69840 0.05000 -0.01000
C 	C 	0.02480 0.81080 0.23030 -0.00900
C 	C 	0.85460 0.12820 0.81570 -0.13000
C 	C 	0.58050 0.86480 0.69920 -0.00500
C 	C 	0.79310 0.07040 0.25490 0.27200
C 	C 	0.77030 0.38460 0.95350 0.13200
C 	C 	0.21400 0.18920 0.26970 -0.01300
C 	C 	0.46360 0.93020 0.48770 0.27200
C 	C 	0.46660 0.93020 0.98770 0.27400
C 	C 	0.05090 0.75160 0.29100 0.01500
C 	C 	0.82330 0.54940 0.50770 0.13800
C 	C 	0.72640 0.87180 0.68430 -0.12900
C 	C 	0.71570 0.13520 0.80080 -0.00400
C 	C 	0.61430 0.38460 0.45350 0.13100
C 	C 	0.17670 0.45060 0.49230 0.13800
C 	C 	0.87950 0.45560 0.90660 -0.22200
C 	C 	0.50580 0.80440 0.76070 0.01000
C 	C 	0.87160 0.76020 0.97470 0.57700
C 	C 	0.27360 0.12820 0.31570 -0.12900
C 	C 	0.70070 0.75160 0.79100 0.01400
C 	C 	0.94910 0.24840 0.70900 0.01500
C 	C 	0.42390 0.54440 0.59340 -0.22300
C 	C 	0.53340 0.06980 0.01230 0.27400
C 	C 	0.81920 0.94200 0.62170 0.50200
C 	C 	0.12050 0.54440 0.09340 -0.22200
C 	C 	0.27730 0.07040 0.75490 0.26900
C 	C 	0.27390 0.45060 0.99230 0.13200
C 	C 	0.72270 0.92960 0.24510 0.26900
C 	C 	0.18080 0.05800 0.37830 0.50200
C 	C 	0.79020 0.62800 0.46450 -0.27000
C 	C 	0.88860 0.76020 0.47470 0.57400
C 	C 	0.14540 0.87180 0.18430 -0.13000
C 	C 	0.97520 0.18920 0.76970 -0.00900
C 	C 	0.53640 0.06980 0.51230 0.27200
C 	C 	0.72610 0.54940 0.00770 0.13200
C 	C 	0.41950 0.13520 0.30080 -0.00500
C 	C 	0.29930 0.24840 0.20900 0.01400
C 	C 	0.12280 0.94200 0.12170 0.50100
C 	C 	0.49420 0.19560 0.23930 0.01000
C 	C 	0.57610 0.45560 0.40660 -0.22300
C 	C 	0.38570 0.61540 0.54650 0.13100
C 	C 	0.33710 0.42220 0.58810 0.16600
C 	C 	0.29860 0.80440 0.26070 0.00900
C 	C 	0.22970 0.61540 0.04650 0.13200
C 	C 	0.11140 0.23980 0.52530 0.57400
C 	C 	0.08510 0.42220 0.08810 0.16500
C 	C 	0.20690 0.92960 0.74510 0.27200
C 	C 	0.70140 0.19560 0.73930 0.00900
C 	C 	0.20980 0.37200 0.53550 -0.27000
C 	C 	0.78600 0.81080 0.73030 -0.01300
C 	C 	0.87720 0.05800 0.87830 0.50100
C 	C 	0.83780 0.62800 0.96450 -0.26600
C 	C 	0.28430 0.86480 0.19920 -0.00400
C 	C 	0.12840 0.23980 0.02530 0.57700
C 	C 	0.66290 0.57780 0.41190 0.16600
C 	C 	0.16220 0.37200 0.03550 -0.26600
C 	C 	0.91490 0.57780 0.91190 0.16500
N 	N 	0.18610 0.74820 0.30710 -0.17400
N 	N 	0.30530 0.57040 0.99670 -0.21700
N 	N 	0.69470 0.42960 0.00330 -0.21700
N 	N 	0.43790 0.25180 0.19290 -0.17300
N 	N 	0.26510 0.57040 0.49670 -0.21600
N 	N 	0.73490 0.42960 0.50330 -0.21600
N 	N 	0.56210 0.74820 0.80710 -0.17300
N 	N 	0.81390 0.25180 0.69290 -0.17400
O 	O 	0.16890 0.88060 0.80700 -0.43100
O 	O 	0.19530 0.87740 0.67570 -0.44100
O 	O 	0.53280 0.88620 0.44030 -0.45600
O 	O 	0.77430 0.02180 0.92640 -0.52100
O 	O 	0.22570 0.97820 0.07360 -0.52100
O 	O 	0.99970 0.04320 0.87870 -0.56400
O 	O 	0.83370 0.82860 0.45250 -0.60200
O 	O 	0.00030 0.95680 0.12130 -0.56400
O 	O 	0.53270 0.87260 0.01840 -0.47200
O 	O 	0.22800 0.20840 0.99440 -0.57300
O 	O 	0.46720 0.11380 0.55970 -0.45600
O 	O 	0.66010 0.12740 0.48160 -0.47100
O 	O 	0.68210 0.87740 0.17570 -0.43900
O 	O 	0.64660 0.11380 0.05970 -0.45500
O 	O 	0.46730 0.12740 0.98160 -0.47200
O 	O 	0.01960 0.79160 0.50560 -0.57000
O 	O 	0.80470 0.12260 0.32430 -0.44100
O 	O 	0.95650 0.95680 0.62130 -0.56700
O 	O 	0.77200 0.79160 0.00560 -0.57300
O 	O 	0.98040 0.20840 0.49440 -0.57000
O 	O 	0.99490 0.82860 0.95250 -0.60000
O 	O 	0.33990 0.87260 0.51840 -0.47100
O 	O 	0.71170 0.88060 0.30700 -0.43100
O 	O 	0.28830 0.11940 0.69300 -0.43100
O 	O 	0.16630 0.17140 0.54750 -0.60200
O 	O 	0.04350 0.04320 0.37870 -0.56700
O 	O 	0.24750 0.02180 0.42640 -0.52300
O 	O 	0.83110 0.11940 0.19300 -0.43100
O 	O 	0.31790 0.12260 0.82430 -0.43900
O 	O 	0.75250 0.97820 0.57360 -0.52300
O 	O 	0.00510 0.17140 0.04750 -0.60000
O 	O 	0.35340 0.88620 0.94030 -0.45500
