data_crystal

_cell_length_a 9.51640
_cell_length_b 12.04470
_cell_length_c 16.82800
_cell_angle_alpha 96.50700
_cell_angle_beta  90.00000
_cell_angle_gamma 113.26900

_symmetry_space_group_name_	'P 1'
_symmetry_space_group_name_H-M	'P 1'

loop_
_symmetry_equiv_pos_as_xyz
  x,y,z

loop_
_atom_site_label
_atom_site_type_symbol
_atom_site_fract_x
_atom_site_fract_y
_atom_site_fract_z
_atom_site_charge
Gd	Gd	0.30451 0.00908 0.93432 1.71500
Gd	Gd	0.29543 0.99092 0.56568 1.73100
Gd	Gd	0.70457 0.00908 0.43432 1.73200
Gd	Gd	0.69549 0.99092 0.06568 1.71600
Ag	Ag	0.03825 0.31784 0.58332 0.55300
Ag	Ag	0.27959 0.31784 0.08332 0.55400
Ag	Ag	0.72041 0.68216 0.91668 0.55400
Ag	Ag	0.96175 0.68216 0.41668 0.55300
H 	H 	0.75090 0.69720 0.55270 0.00200
H 	H 	0.42680 0.80860 0.71980 0.06400
H 	H 	0.43070 0.42100 0.37050 0.09500
H 	H 	0.56930 0.57900 0.62950 0.09500
H 	H 	0.05370 0.30280 0.94730 0.00200
H 	H 	0.03350 0.90000 0.16770 0.06000
H 	H 	0.13350 0.10000 0.33230 0.05600
H 	H 	0.13380 0.62820 0.88170 -0.00300
H 	H 	0.38180 0.80860 0.21980 0.06500
H 	H 	0.61820 0.19140 0.78020 0.06500
H 	H 	0.46490 0.70520 0.81920 0.00600
H 	H 	0.86620 0.37180 0.11830 -0.00300
H 	H 	0.50560 0.37180 0.61830 -0.00400
H 	H 	0.24910 0.30280 0.44730 0.00200
H 	H 	0.41110 0.58400 0.04210 -0.01700
H 	H 	0.89110 0.80140 0.77330 0.02300
H 	H 	0.86650 0.90000 0.66770 0.05600
H 	H 	0.08970 0.19860 0.72670 0.02100
H 	H 	0.53510 0.29480 0.18080 0.00600
H 	H 	0.82710 0.41600 0.45790 -0.01800
H 	H 	0.24030 0.70520 0.31920 0.00600
H 	H 	0.99030 0.42100 0.87050 0.09300
H 	H 	0.75970 0.29480 0.68080 0.00600
H 	H 	0.00970 0.57900 0.12950 0.09300
H 	H 	0.57320 0.19140 0.28020 0.06400
H 	H 	0.94630 0.69720 0.05270 0.00200
H 	H 	0.91030 0.80140 0.27330 0.02100
H 	H 	0.49440 0.62820 0.38170 -0.00400
H 	H 	0.17290 0.58400 0.54210 -0.01800
H 	H 	0.96650 0.10000 0.83230 0.06000
H 	H 	0.58890 0.41600 0.95790 -0.01700
H 	H 	0.10890 0.19860 0.22670 0.02300
C 	C 	0.78400 0.86420 0.69900 -0.04400
C 	C 	0.61940 0.54380 0.59410 -0.18600
C 	C 	0.38920 0.76220 0.97560 0.48500
C 	C 	0.66100 0.37040 0.53640 -0.21600
C 	C 	0.83840 0.42080 0.08810 0.11800
C 	C 	0.37300 0.76220 0.47560 0.48600
C 	C 	0.03590 0.06920 0.01160 0.24200
C 	C 	0.35680 0.12980 0.31520 -0.07200
C 	C 	0.32450 0.55160 0.00760 0.10300
C 	C 	0.61080 0.23780 0.02440 0.48500
C 	C 	0.96410 0.93080 0.98840 0.24200
C 	C 	0.79640 0.80300 0.76190 0.03100
C 	C 	0.11460 0.38580 0.95150 0.10400
C 	C 	0.72880 0.61420 0.54850 0.10400
C 	C 	0.08020 0.86420 0.19900 -0.04800
C 	C 	0.67770 0.05640 0.87860 0.41900
C 	C 	0.77300 0.12980 0.81520 -0.06900
C 	C 	0.03330 0.06920 0.51160 0.24400
C 	C 	0.29230 0.07040 0.75540 0.24500
C 	C 	0.22710 0.55160 0.50760 0.10700
C 	C 	0.79990 0.25240 0.71030 0.04200
C 	C 	0.92440 0.54380 0.09410 -0.18200
C 	C 	0.52320 0.80900 0.72950 -0.05100
C 	C 	0.16160 0.57920 0.91190 0.11800
C 	C 	0.21600 0.13580 0.30100 -0.04400
C 	C 	0.99340 0.19700 0.73810 0.03800
C 	C 	0.71420 0.19100 0.77050 -0.05300
C 	C 	0.07560 0.45620 0.90590 -0.18200
C 	C 	0.32230 0.94360 0.12140 0.41900
C 	C 	0.77290 0.44840 0.49240 0.10700
C 	C 	0.27120 0.38580 0.45150 0.10400
C 	C 	0.58240 0.42080 0.58810 0.12100
C 	C 	0.22700 0.87020 0.18480 -0.06900
C 	C 	0.62700 0.23780 0.52440 0.48600
C 	C 	0.62130 0.94360 0.62140 0.42100
C 	C 	0.20360 0.19700 0.23810 0.03100
C 	C 	0.67550 0.44840 0.99240 0.10300
C 	C 	0.37870 0.05640 0.37860 0.42100
C 	C 	0.22190 0.92960 0.74460 0.25400
C 	C 	0.38060 0.45620 0.40590 -0.18600
C 	C 	0.20010 0.74760 0.28970 0.04200
C 	C 	0.91980 0.13580 0.80100 -0.04800
C 	C 	0.29060 0.62960 0.96360 -0.21200
C 	C 	0.41760 0.57920 0.41190 0.12100
C 	C 	0.70770 0.92960 0.24460 0.24500
C 	C 	0.96670 0.93080 0.48840 0.24400
C 	C 	0.47680 0.19100 0.27050 -0.05100
C 	C 	0.00660 0.80300 0.26190 0.03800
C 	C 	0.77810 0.07040 0.25540 0.25400
C 	C 	0.88540 0.61420 0.04850 0.10400
C 	C 	0.64320 0.87020 0.68480 -0.07200
C 	C 	0.54750 0.74760 0.78970 0.04100
C 	C 	0.33900 0.62960 0.46360 -0.21600
C 	C 	0.70940 0.37040 0.03640 -0.21200
C 	C 	0.28580 0.80900 0.22950 -0.05300
C 	C 	0.45250 0.25240 0.21030 0.04100
N 	N 	0.06510 0.74660 0.30680 -0.18000
N 	N 	0.76190 0.56820 0.99750 -0.20300
N 	N 	0.80630 0.56820 0.49750 -0.20300
N 	N 	0.93490 0.25340 0.69320 -0.18000
N 	N 	0.31850 0.25340 0.19320 -0.17900
N 	N 	0.68150 0.74660 0.80680 -0.17900
N 	N 	0.23810 0.43180 0.00250 -0.20300
N 	N 	0.19370 0.43180 0.50250 -0.20300
O 	O 	0.81910 0.12300 0.32500 -0.36900
O 	O 	0.66870 0.88040 0.30710 -0.36100
O 	O 	0.50030 0.04060 0.37780 -0.46000
O 	O 	0.74430 0.01820 0.92660 -0.42900
O 	O 	0.47890 0.20540 0.99440 -0.47700
O 	O 	0.72610 0.98180 0.57340 -0.43200
O 	O 	0.18090 0.87700 0.67500 -0.36900
O 	O 	0.85140 0.88500 0.44060 -0.38300
O 	O 	0.27390 0.01820 0.42660 -0.43200
O 	O 	0.78830 0.11960 0.19290 -0.35900
O 	O 	0.21170 0.88040 0.80710 -0.35900
O 	O 	0.96640 0.11500 0.05940 -0.37400
O 	O 	0.25570 0.98180 0.07340 -0.42900
O 	O 	0.96720 0.12740 0.48220 -0.39700
O 	O 	0.30390 0.12300 0.82500 -0.36800
O 	O 	0.52110 0.79460 0.00560 -0.47700
O 	O 	0.50090 0.17000 0.54640 -0.48500
O 	O 	0.83980 0.87260 0.01780 -0.40100
O 	O 	0.69610 0.87700 0.17500 -0.36800
O 	O 	0.49970 0.95940 0.62220 -0.46000
O 	O 	0.49910 0.83000 0.45360 -0.48500
O 	O 	0.33090 0.83000 0.95360 -0.48100
O 	O 	0.03280 0.87260 0.51780 -0.39700
O 	O 	0.66910 0.17000 0.04640 -0.48100
O 	O 	0.14860 0.11500 0.55940 -0.38300
O 	O 	0.03360 0.88500 0.94060 -0.37400
O 	O 	0.16020 0.12740 0.98220 -0.40100
O 	O 	0.45970 0.95940 0.12220 -0.45900
O 	O 	0.27350 0.79460 0.50560 -0.47700
O 	O 	0.72650 0.20540 0.49440 -0.47700
O 	O 	0.54030 0.04060 0.87780 -0.45900
O 	O 	0.33130 0.11960 0.69290 -0.36100
