data_crystal

_cell_length_a 9.37800
_cell_length_b 11.99910
_cell_length_c 16.50800
_cell_angle_alpha 96.19730
_cell_angle_beta  90.00000
_cell_angle_gamma 113.00300

_symmetry_space_group_name_	'P 1'
_symmetry_space_group_name_H-M	'P 1'

loop_
_symmetry_equiv_pos_as_xyz
  x,y,z

loop_
_atom_site_label
_atom_site_type_symbol
_atom_site_fract_x
_atom_site_fract_y
_atom_site_fract_z
_atom_site_charge
Yb	Yb	0.80260 0.00940 0.93410 1.57400
Yb	Yb	0.79320 0.99060 0.56590 1.57600
Yb	Yb	0.20680 0.00940 0.43410 1.57500
Yb	Yb	0.19740 0.99060 0.06590 1.57300
Ag	Ag	0.53379 0.31804 0.57925 0.55800
Ag	Ag	0.21575 0.68196 0.92075 0.55900
Ag	Ag	0.78425 0.31804 0.07925 0.55900
Ag	Ag	0.46621 0.68196 0.42075 0.55800
H 	H 	0.04330 0.30020 0.18370 0.00900
H 	H 	0.95670 0.69980 0.81630 0.00900
H 	H 	0.43620 0.69460 0.06130 0.01400
H 	H 	0.41020 0.80420 0.27500 0.02800
H 	H 	0.74160 0.30540 0.43870 0.01500
H 	H 	0.58980 0.19580 0.72500 0.02800
H 	H 	0.25690 0.30020 0.68370 0.00900
H 	H 	0.88890 0.81260 0.22030 0.07600
H 	H 	0.66730 0.58460 0.53920 -0.01200
H 	H 	0.98950 0.36280 0.61420 0.01100
H 	H 	0.63170 0.09840 0.33190 0.06800
H 	H 	0.53330 0.90160 0.16810 0.06700
H 	H 	0.37330 0.36280 0.11420 0.01200
H 	H 	0.60600 0.19580 0.22500 0.02700
H 	H 	0.46670 0.09840 0.83190 0.06700
H 	H 	0.74310 0.69980 0.31630 0.00900
H 	H 	0.11110 0.18740 0.77970 0.07600
H 	H 	0.51070 0.56860 0.13330 0.08500
H 	H 	0.36830 0.90160 0.66810 0.06800
H 	H 	0.07630 0.18740 0.27970 0.07700
H 	H 	0.91730 0.58460 0.03920 -0.01200
H 	H 	0.92370 0.81260 0.72030 0.07700
H 	H 	0.62670 0.63720 0.88580 0.01200
H 	H 	0.94210 0.43140 0.36670 0.08500
H 	H 	0.39400 0.80420 0.77500 0.02700
H 	H 	0.25840 0.69460 0.56130 0.01500
H 	H 	0.56380 0.30540 0.93870 0.01400
H 	H 	0.05790 0.56860 0.63330 0.08500
H 	H 	0.33270 0.41540 0.46080 -0.01200
H 	H 	0.48930 0.43140 0.86670 0.08500
H 	H 	0.01050 0.63720 0.38580 0.01100
H 	H 	0.08270 0.41540 0.96080 -0.01200
C 	C 	0.34190 0.41420 0.08730 0.08900
C 	C 	0.70270 0.19560 0.23730 0.04000
C 	C 	0.29730 0.80440 0.76270 0.04000
C 	C 	0.87960 0.76660 0.47620 0.39400
C 	C 	0.13970 0.87140 0.68370 -0.04700
C 	C 	0.27540 0.06960 0.25510 0.22000
C 	C 	0.65810 0.58580 0.91270 0.08900
C 	C 	0.28420 0.86520 0.69970 -0.05800
C 	C 	0.72460 0.93040 0.74490 0.22000
C 	C 	0.29650 0.25440 0.71150 0.04500
C 	C 	0.79100 0.63340 0.96390 -0.17400
C 	C 	0.17020 0.05240 0.87880 0.38300
C 	C 	0.62070 0.38920 0.94670 0.08000
C 	C 	0.79000 0.81060 0.22910 -0.06200
C 	C 	0.11780 0.94760 0.62120 0.38200
C 	C 	0.92770 0.58580 0.41270 0.08900
C 	C 	0.97940 0.18940 0.27090 -0.06500
C 	C 	0.76850 0.38920 0.44670 0.08100
C 	C 	0.95790 0.25440 0.21150 0.04600
C 	C 	0.23150 0.61080 0.55330 0.08100
C 	C 	0.88220 0.05240 0.37880 0.38200
C 	C 	0.50710 0.80440 0.26270 0.04000
C 	C 	0.17220 0.44680 0.99460 0.09000
C 	C 	0.57580 0.46500 0.90270 -0.15400
C 	C 	0.21000 0.18940 0.77090 -0.06200
C 	C 	0.73170 0.87140 0.18370 -0.04800
C 	C 	0.49290 0.19560 0.73730 0.04000
C 	C 	0.82780 0.55320 0.00540 0.09000
C 	C 	0.26830 0.12860 0.81630 -0.04800
C 	C 	0.15760 0.36660 0.53610 -0.17400
C 	C 	0.02060 0.81060 0.72910 -0.06500
C 	C 	0.11300 0.23340 0.02380 0.39500
C 	C 	0.82980 0.94760 0.12120 0.38300
C 	C 	0.46680 0.93240 0.49000 0.20900
C 	C 	0.84240 0.63340 0.46390 -0.17400
C 	C 	0.58100 0.86520 0.19970 -0.05700
C 	C 	0.72540 0.55320 0.50540 0.09000
C 	C 	0.53440 0.06760 0.01000 0.21100
C 	C 	0.07230 0.41420 0.58730 0.08900
C 	C 	0.88920 0.46500 0.40270 -0.15400
C 	C 	0.11080 0.53500 0.59730 -0.15400
C 	C 	0.41900 0.13480 0.80030 -0.05700
C 	C 	0.71580 0.13480 0.30030 -0.05800
C 	C 	0.79420 0.06960 0.75510 0.21800
C 	C 	0.42420 0.53500 0.09730 -0.15400
C 	C 	0.20580 0.93040 0.24490 0.21800
C 	C 	0.27460 0.44680 0.49460 0.09000
C 	C 	0.04210 0.74560 0.78850 0.04600
C 	C 	0.53320 0.06760 0.51000 0.20900
C 	C 	0.20900 0.36660 0.03610 -0.17400
C 	C 	0.86030 0.12860 0.31630 -0.04700
C 	C 	0.46560 0.93240 0.99000 0.21100
C 	C 	0.88700 0.76660 0.97620 0.39500
C 	C 	0.37930 0.61080 0.05330 0.08000
C 	C 	0.70350 0.74560 0.28850 0.04500
C 	C 	0.12040 0.23340 0.52380 0.39400
N 	N 	0.69120 0.43420 0.49990 -0.19700
N 	N 	0.25700 0.56580 0.00010 -0.19700
N 	N 	0.30880 0.56580 0.50010 -0.19700
N 	N 	0.56550 0.74540 0.30760 -0.17700
N 	N 	0.82010 0.25460 0.19240 -0.17800
N 	N 	0.43450 0.25460 0.69240 -0.17700
N 	N 	0.17990 0.74540 0.80760 -0.17800
N 	N 	0.74300 0.43420 0.99990 -0.19700
O 	O 	0.97500 0.19780 0.99150 -0.42600
O 	O 	0.96760 0.96340 0.12400 -0.42800
O 	O 	0.99100 0.16160 0.54490 -0.43600
O 	O 	0.46180 0.11680 0.05570 -0.35000
O 	O 	0.33830 0.87380 0.02080 -0.37600
O 	O 	0.22280 0.19780 0.49150 -0.42400
O 	O 	0.17060 0.16160 0.04490 -0.43400
O 	O 	0.22360 0.99040 0.57250 -0.40300
O 	O 	0.00420 0.03660 0.37600 -0.42700
O 	O 	0.80370 0.12260 0.82580 -0.34200
O 	O 	0.53820 0.88320 0.94430 -0.35000
O 	O 	0.23320 0.00960 0.92750 -0.40300
O 	O 	0.99580 0.96340 0.62400 -0.42700
O 	O 	0.02500 0.80220 0.00850 -0.42600
O 	O 	0.82660 0.11880 0.69070 -0.33500
O 	O 	0.70780 0.88120 0.80930 -0.33400
O 	O 	0.65500 0.11680 0.55570 -0.35100
O 	O 	0.00900 0.83840 0.45510 -0.43600
O 	O 	0.34500 0.88320 0.44430 -0.35100
O 	O 	0.76680 0.99040 0.07250 -0.40300
O 	O 	0.31890 0.12260 0.32580 -0.34200
O 	O 	0.19630 0.87740 0.17420 -0.34200
O 	O 	0.82940 0.83840 0.95510 -0.43400
O 	O 	0.17340 0.88120 0.30930 -0.33500
O 	O 	0.77720 0.80220 0.50850 -0.42400
O 	O 	0.77640 0.00960 0.42750 -0.40300
O 	O 	0.29220 0.11880 0.19070 -0.33400
O 	O 	0.68110 0.87740 0.67420 -0.34200
O 	O 	0.46450 0.12620 0.47920 -0.37400
O 	O 	0.03240 0.03660 0.87600 -0.42800
O 	O 	0.66170 0.12620 0.97920 -0.37600
O 	O 	0.53550 0.87380 0.52080 -0.37400
