data_crystal

_cell_length_a 10.67610
_cell_length_b 16.10120
_cell_length_c 18.01310
_cell_angle_alpha 103.52100
_cell_angle_beta  106.26100
_cell_angle_gamma 108.66800

_symmetry_space_group_name_	'P 1'
_symmetry_space_group_name_H-M	'P 1'

loop_
_symmetry_equiv_pos_as_xyz
  x,y,z

loop_
_atom_site_label
_atom_site_type_symbol
_atom_site_fract_x
_atom_site_fract_y
_atom_site_fract_z
_atom_site_charge
Mn	Mn	0.48960 0.16574 0.16687 1.20300
Mn	Mn	0.50000 0.50000 0.50000 1.19600
Mn	Mn	0.51040 0.83426 0.83313 1.20300
H 	H 	0.67190 0.97820 0.33690 0.10200
H 	H 	0.66890 0.45410 0.08730 0.09700
H 	H 	0.74380 0.79870 0.95280 -0.00800
H 	H 	0.34030 0.68980 0.33020 0.10700
H 	H 	0.32180 0.57320 0.38850 -0.03000
H 	H 	0.33110 0.54590 0.91270 0.09800
H 	H 	0.23030 0.19430 0.55100 0.10200
H 	H 	0.76200 0.69340 0.02080 0.09600
H 	H 	0.68970 0.09260 0.27460 -0.01500
H 	H 	0.31510 0.64910 0.84050 -0.02400
H 	H 	0.65970 0.31020 0.66980 0.10700
H 	H 	0.24720 0.31160 0.49140 -0.01400
H 	H 	0.31030 0.90740 0.72540 -0.01500
H 	H 	0.23800 0.30660 0.97920 0.09600
H 	H 	0.67820 0.42680 0.61150 -0.03000
H 	H 	0.68490 0.35090 0.15950 -0.02400
H 	H 	0.76970 0.80570 0.44900 0.10200
H 	H 	0.75280 0.68840 0.50860 -0.01400
H 	H 	0.75860 0.13150 0.77390 0.09500
H 	H 	0.25680 0.98290 0.16590 -0.01600
H 	H 	0.24140 0.86850 0.22610 0.09500
H 	H 	0.74320 0.01710 0.83410 -0.01600
H 	H 	0.25620 0.20130 0.04720 -0.00800
H 	H 	0.32810 0.02180 0.66310 0.10300
W 	W 	0.03855 0.21714 0.23215 0.52600
W 	W 	0.96145 0.78286 0.76785 0.52600
C 	C 	0.45640 0.91330 0.28720 0.15600
C 	C 	0.07730 0.12700 0.30200 -0.03700
C 	C 	0.67090 0.68490 0.98480 -0.15500
C 	C 	0.66010 0.74700 0.94420 0.06300
C 	C 	0.55240 0.75560 0.38530 0.17400
C 	C 	0.96720 0.75850 0.87880 -0.05200
C 	C 	0.67930 0.75810 0.43750 -0.17700
C 	C 	0.33990 0.25300 0.05580 0.06300
C 	C 	0.59430 0.34100 0.12200 0.06500
C 	C 	0.23570 0.32550 0.33220 -0.02600
C 	C 	0.54360 0.08670 0.71280 0.15600
C 	C 	0.66750 0.08560 0.76380 -0.16400
C 	C 	0.02460 0.75240 0.66290 -0.05100
C 	C 	0.65850 0.01810 0.79970 0.06600
C 	C 	0.33250 0.91440 0.23620 -0.16400
C 	C 	0.32070 0.24190 0.56250 -0.17700
C 	C 	0.92270 0.87300 0.69800 -0.03700
C 	C 	0.02050 0.34850 0.24840 -0.05400
C 	C 	0.58500 0.40330 0.07980 -0.15700
C 	C 	0.58750 0.97890 0.30170 -0.16700
C 	C 	0.93570 0.07440 0.14300 -0.03700
C 	C 	0.42380 0.68950 0.36670 -0.18500
C 	C 	0.20510 0.18790 0.20510 -0.03300
C 	C 	0.41310 0.62040 0.40100 0.06700
C 	C 	0.41250 0.02110 0.69830 -0.16700
C 	C 	0.59830 0.04740 0.26490 0.07000
C 	C 	0.66880 0.68840 0.47230 0.08000
C 	C 	0.97950 0.65150 0.75160 -0.05400
C 	C 	0.58690 0.37960 0.59900 0.06700
C 	C 	0.54850 0.61030 0.97280 0.14100
C 	C 	0.41500 0.59670 0.92020 -0.15700
C 	C 	0.57620 0.31050 0.63330 -0.18500
C 	C 	0.33120 0.31160 0.52770 0.08000
C 	C 	0.18610 0.81990 0.81840 -0.03300
C 	C 	0.45150 0.38970 0.02720 0.14100
C 	C 	0.03280 0.24150 0.12120 -0.05200
C 	C 	0.40570 0.65900 0.87800 0.06500
C 	C 	0.32910 0.31510 0.01520 -0.15500
C 	C 	0.06430 0.92560 0.85700 -0.03700
C 	C 	0.79490 0.81210 0.79490 -0.03300
C 	C 	0.81390 0.18010 0.18160 -0.03300
C 	C 	0.34150 0.98190 0.20030 0.06600
C 	C 	0.40170 0.95260 0.73510 0.07000
C 	C 	0.76430 0.67450 0.66780 -0.02600
C 	C 	0.44760 0.24440 0.61470 0.17400
C 	C 	0.97540 0.24760 0.33710 -0.05100
N 	N 	0.69200 0.16210 0.15840 -0.25000
N 	N 	0.03570 0.25410 0.05980 -0.09200
N 	N 	0.30130 0.17710 0.18960 -0.24700
N 	N 	0.96430 0.74590 0.94020 -0.09200
N 	N 	0.55450 0.16060 0.67970 -0.10100
N 	N 	0.52400 0.95130 0.78530 -0.26600
N 	N 	0.87890 0.00080 0.09120 -0.10900
N 	N 	0.44550 0.83940 0.32030 -0.10100
N 	N 	0.33620 0.38250 0.38800 -0.26000
N 	N 	0.56140 0.54030 0.01490 -0.09500
N 	N 	0.94740 0.26590 0.39550 -0.10900
N 	N 	0.47440 0.26610 0.10970 -0.27900
N 	N 	0.90390 0.92000 0.66080 -0.09300
N 	N 	0.66380 0.61750 0.61200 -0.26000
N 	N 	0.56970 0.82980 0.35480 -0.10500
N 	N 	0.12110 0.99920 0.90880 -0.10900
N 	N 	0.43860 0.45970 0.98510 -0.09500
N 	N 	0.02140 0.42220 0.25560 -0.10000
N 	N 	0.43030 0.17020 0.64520 -0.10500
N 	N 	0.47600 0.04870 0.21470 -0.26600
N 	N 	0.09610 0.08000 0.33920 -0.09300
N 	N 	0.05260 0.73410 0.60450 -0.10900
N 	N 	0.30800 0.83790 0.84160 -0.25000
N 	N 	0.52560 0.73390 0.89030 -0.27900
N 	N 	0.53680 0.62000 0.45400 -0.26800
N 	N 	0.97860 0.57780 0.74440 -0.10000
N 	N 	0.69870 0.82290 0.81040 -0.24700
N 	N 	0.46320 0.38000 0.54600 -0.26800
