data_crystal

_cell_length_a 9.51500
_cell_length_b 9.51500
_cell_length_c 14.35100
_cell_angle_alpha 90.00000
_cell_angle_beta  90.00000
_cell_angle_gamma 90.00000

_symmetry_space_group_name_	'P 1'
_symmetry_space_group_name_H-M	'P 1'

loop_
_symmetry_equiv_pos_as_xyz
  x,y,z

loop_
_atom_site_label
_atom_site_type_symbol
_atom_site_fract_x
_atom_site_fract_y
_atom_site_fract_z
_atom_site_charge
O 	O 	0.06470 0.16840 0.06360 -0.61400
O 	O 	0.88320 0.15570 0.17880 -0.33300
O 	O 	0.56470 0.66840 0.56360 -0.38500
O 	O 	0.38320 0.65570 0.67880 -0.25200
O 	O 	0.93530 0.83160 0.06360 -0.24300
O 	O 	0.11680 0.84430 0.17880 -0.18900
O 	O 	0.43530 0.33160 0.56360 -0.42300
O 	O 	0.61680 0.34430 0.67880 -0.23500
O 	O 	0.16840 0.93530 0.93640 -0.23200
O 	O 	0.15570 0.11680 0.82120 -0.24600
O 	O 	0.66840 0.43530 0.43640 -0.40000
O 	O 	0.65570 0.61680 0.32120 -0.23800
O 	O 	0.83160 0.06470 0.93640 -0.44800
O 	O 	0.84430 0.88320 0.82120 -0.21600
O 	O 	0.33160 0.56470 0.43640 -0.41300
O 	O 	0.34430 0.38320 0.32120 -0.28000
O 	O 	0.43530 0.16840 0.68640 -0.43700
O 	O 	0.61680 0.15570 0.57120 -0.27900
O 	O 	0.93530 0.66840 0.18640 -0.24800
O 	O 	0.11680 0.65570 0.07120 -0.24900
O 	O 	0.56470 0.83160 0.68640 -0.35100
O 	O 	0.38320 0.84430 0.57120 -0.22000
O 	O 	0.06470 0.33160 0.18640 -0.56900
O 	O 	0.88320 0.34430 0.07120 -0.31600
O 	O 	0.33160 0.93530 0.81360 -0.25400
O 	O 	0.34430 0.11680 0.92880 -0.19200
O 	O 	0.83160 0.43530 0.31360 -0.37000
O 	O 	0.84430 0.61680 0.42880 -0.19200
O 	O 	0.66840 0.06470 0.81360 -0.51700
O 	O 	0.65570 0.88320 0.92880 -0.23600
O 	O 	0.16840 0.56470 0.31360 -0.43100
O 	O 	0.15570 0.38320 0.42880 -0.30800
S 	S 	0.96940 0.25000 0.12500 1.02500
S 	S 	0.03060 0.75000 0.12500 0.37400
S 	S 	0.53060 0.25000 0.62500 0.69300
S 	S 	0.25000 0.03060 0.87500 0.37400
S 	S 	0.75000 0.53060 0.37500 0.67600
S 	S 	0.75000 0.96940 0.87500 0.96800
S 	S 	0.25000 0.46940 0.37500 0.70300
S 	S 	0.46940 0.75000 0.62500 0.68000
Zn	Zn	-0.00000 0.00000 -0.00000 1.14400
Zn	Zn	0.50000 0.50000 0.50000 1.25300
Zn	Zn	0.50000 -0.00000 0.75000 1.21400
Zn	Zn	-0.00000 0.50000 0.25000 1.21200
