data_crystal

_cell_length_a 8.16600
_cell_length_b 22.15400
_cell_length_c 18.47500
_cell_angle_alpha 90.00000
_cell_angle_beta  98.70000
_cell_angle_gamma 90.00000

_symmetry_space_group_name_	'P 1'
_symmetry_space_group_name_H-M	'P 1'

loop_
_symmetry_equiv_pos_as_xyz
  x,y,z

loop_
_atom_site_label
_atom_site_type_symbol
_atom_site_fract_x
_atom_site_fract_y
_atom_site_fract_z
_atom_site_charge
Cd	Cd	0.55913 0.12350 0.16896 1.15300
Cd	Cd	0.71047 0.95900 0.40147 1.15300
Cd	Cd	0.84852 0.15978 0.75748 1.15900
C 	C 	0.94540 0.99210 0.48020 -0.11600
C 	C 	0.53830 0.99140 0.47920 -0.19400
C 	C 	0.91000 0.11260 0.86610 -0.24800
N 	N 	0.94300 0.08150 0.91130 -0.18100
C 	C 	0.81800 0.04700 0.07040 -0.19400
N 	N 	0.75700 0.06360 0.09130 -0.17200
C 	C 	0.33450 0.08300 0.10220 -0.28400
N 	N 	0.22830 0.05870 0.06920 -0.21100
C 	C 	0.65030 0.06990 0.26820 -0.27600
N 	N 	0.68640 0.03880 0.31750 -0.21800
C 	C 	0.03880 0.11910 0.69690 -0.28100
N 	N 	0.87590 0.90520 0.33290 -0.21000
C 	C 	0.67100 0.20660 0.13100 -0.29200
N 	N 	0.72800 0.24810 0.11120 -0.10300
C 	C 	0.86990 0.25900 0.75140 -0.27900
C 	C 	0.61460 0.11690 0.70590 -0.27200
N 	N 	0.48800 0.91100 0.32290 -0.19500
N 	N 	0.10580 0.69310 0.25950 -0.18600
Cd	Cd	0.44087 0.87650 0.83104 1.15800
Cd	Cd	0.28953 0.04100 0.59853 1.15200
Cd	Cd	0.15148 0.84022 0.24252 1.14700
C 	C 	0.05460 0.00790 0.51980 -0.35000
C 	C 	0.46170 0.00860 0.52080 -0.30100
C 	C 	0.09000 0.88740 0.13390 -0.28100
N 	N 	0.05700 0.91850 0.08870 -0.20100
C 	C 	0.18200 0.95300 0.92960 -0.14400
N 	N 	0.24300 0.93640 0.90870 -0.18500
C 	C 	0.66550 0.91700 0.89780 -0.24500
N 	N 	0.77170 0.94130 0.93080 -0.17100
C 	C 	0.34970 0.93010 0.73180 -0.26600
N 	N 	0.31360 0.96120 0.68250 -0.19900
C 	C 	0.96120 0.88090 0.30310 -0.22900
N 	N 	0.12410 0.09480 0.66710 -0.21000
C 	C 	0.32900 0.79340 0.86900 -0.28300
N 	N 	0.27200 0.75190 0.88880 -0.10300
C 	C 	0.13010 0.74100 0.24860 -0.31300
C 	C 	0.38540 0.88310 0.29410 -0.28000
N 	N 	0.51200 0.08900 0.67710 -0.20100
N 	N 	0.89420 0.30690 0.74050 -0.16900
Cd	Cd	-0.00000 0.00000 -0.00000 1.12100
N 	N 	0.39420 0.19310 0.24050 -0.18000
Cd	Cd	0.94087 0.62350 0.33104 1.16300
Cd	Cd	0.78953 0.45900 0.09853 1.15600
Cd	Cd	0.65148 0.65978 0.74252 1.15500
C 	C 	0.55460 0.49210 0.01980 -0.30700
C 	C 	0.96170 0.49140 0.02080 -0.25600
C 	C 	0.59000 0.61260 0.63390 -0.26200
N 	N 	0.55700 0.58150 0.58870 -0.19500
C 	C 	0.68200 0.54700 0.42960 -0.17800
N 	N 	0.74300 0.56360 0.40870 -0.17000
C 	C 	0.16550 0.58300 0.39780 -0.28400
N 	N 	0.27170 0.55870 0.43080 -0.19300
C 	C 	0.84970 0.56990 0.23180 -0.26300
N 	N 	0.81360 0.53880 0.18250 -0.20800
C 	C 	0.46120 0.61910 0.80310 -0.25200
N 	N 	0.62410 0.40520 0.16710 -0.20800
C 	C 	0.82900 0.70660 0.36900 -0.27700
N 	N 	0.77200 0.74810 0.38880 -0.10200
C 	C 	0.63010 0.75900 0.74860 -0.28900
C 	C 	0.88540 0.61690 0.79410 -0.26200
N 	N 	0.01200 0.41100 0.17710 -0.21100
N 	N 	0.60580 0.80690 0.75950 -0.17400
Cd	Cd	0.05913 0.37650 0.66896 1.14800
Cd	Cd	0.21047 0.54100 0.90147 1.14800
Cd	Cd	0.34852 0.34022 0.25748 1.15100
C 	C 	0.44540 0.50790 0.98020 -0.15900
C 	C 	0.03830 0.50860 0.97920 -0.23900
C 	C 	0.41000 0.38740 0.36610 -0.26700
N 	N 	0.44300 0.41850 0.41130 -0.19400
C 	C 	0.31800 0.45300 0.57040 -0.18500
N 	N 	0.25700 0.43640 0.59130 -0.17600
C 	C 	0.83450 0.41700 0.60220 -0.24400
N 	N 	0.72830 0.44130 0.56920 -0.19500
C 	C 	0.15030 0.43010 0.76820 -0.28100
N 	N 	0.18640 0.46120 0.81750 -0.21000
C 	C 	0.53880 0.38090 0.19690 -0.25800
N 	N 	0.37590 0.59480 0.83290 -0.21200
C 	C 	0.17100 0.29340 0.63100 -0.29900
N 	N 	0.22800 0.25190 0.61120 -0.10400
C 	C 	0.36990 0.24100 0.25140 -0.30400
C 	C 	0.11460 0.38310 0.20590 -0.29000
N 	N 	0.98800 0.58900 0.82290 -0.18600
Cd	Cd	0.50000 0.50000 0.50000 1.15300
