data_crystal

_cell_length_a 13.41090
_cell_length_b 16.25680
_cell_length_c 27.90280
_cell_angle_alpha 90.00000
_cell_angle_beta  98.98400
_cell_angle_gamma 90.00000

_symmetry_space_group_name_	'P 1'
_symmetry_space_group_name_H-M	'P 1'

loop_
_symmetry_equiv_pos_as_xyz
  x,y,z

loop_
_atom_site_label
_atom_site_type_symbol
_atom_site_fract_x
_atom_site_fract_y
_atom_site_fract_z
_atom_site_charge
Ba	Ba	0.37181 0.74371 0.82015 1.65200
Ba	Ba	0.65078 0.86001 0.76807 1.58300
Ba	Ba	0.38622 0.59438 0.95900 1.66700
C 	C 	0.61250 0.58770 0.81462 -0.14500
C 	C 	0.62090 0.67380 0.79620 0.40600
O 	O 	0.68560 0.68740 0.76950 -0.59400
O 	O 	0.56530 0.72850 0.81014 -0.61400
C 	C 	0.60480 0.57280 0.86295 -0.08400
C 	C 	0.59050 0.64430 0.89520 0.35100
O 	O 	0.50250 0.66640 0.89923 -0.59100
O 	O 	0.66980 0.67840 0.91671 -0.37300
C 	C 	0.62110 0.49360 0.88182 -0.13800
C 	C 	0.62210 0.47770 0.93467 0.39000
O 	O 	0.56210 0.51500 0.95718 -0.59700
O 	O 	0.68360 0.42390 0.95419 -0.60700
C 	C 	0.63920 0.42910 0.85146 -0.09100
C 	C 	0.67020 0.34490 0.87279 0.37800
O 	O 	0.60120 0.29660 0.87956 -0.40000
O 	O 	0.76200 0.33010 0.88096 -0.62000
C 	C 	0.63070 0.44190 0.80130 -0.14000
C 	C 	0.62600 0.37130 0.76689 0.37000
O 	O 	0.68660 0.31200 0.77463 -0.58900
O 	O 	0.55530 0.37430 0.73114 -0.58700
C 	C 	0.61930 0.52180 0.78326 -0.07500
C 	C 	0.61540 0.53990 0.72950 0.31100
O 	O 	0.69190 0.52560 0.71034 -0.48600
O 	O 	0.53450 0.57280 0.70863 -0.37700
Ba	Ba	0.87181 0.24371 0.32015 1.64800
Ba	Ba	0.15078 0.36001 0.26807 1.58300
Ba	Ba	0.88622 0.09438 0.45900 1.65400
C 	C 	0.11250 0.08770 0.31462 -0.14900
C 	C 	0.12090 0.17380 0.29620 0.40800
O 	O 	0.18560 0.18740 0.26950 -0.59400
O 	O 	0.06530 0.22850 0.31014 -0.61300
C 	C 	0.10480 0.07280 0.36295 -0.07500
C 	C 	0.09050 0.14430 0.39520 0.34800
O 	O 	0.00250 0.16640 0.39923 -0.58700
O 	O 	0.16980 0.17840 0.41671 -0.37100
C 	C 	0.12110 0.99360 0.38182 -0.14600
C 	C 	0.12210 0.97770 0.43467 0.38300
O 	O 	0.06210 0.01500 0.45718 -0.58800
O 	O 	0.18360 0.92390 0.45419 -0.60500
C 	C 	0.13920 0.92910 0.35146 -0.08800
C 	C 	0.17020 0.84490 0.37279 0.37700
O 	O 	0.10120 0.79660 0.37956 -0.40000
O 	O 	0.26200 0.83010 0.38096 -0.62000
C 	C 	0.13070 0.94190 0.30130 -0.15000
C 	C 	0.12600 0.87130 0.26689 0.37300
O 	O 	0.18660 0.81200 0.27463 -0.59100
O 	O 	0.05530 0.87430 0.23114 -0.59200
C 	C 	0.11930 0.02180 0.28326 -0.06500
C 	C 	0.11540 0.03990 0.22950 0.30900
O 	O 	0.19190 0.02560 0.21034 -0.48400
O 	O 	0.03450 0.07280 0.20863 -0.37500
Ba	Ba	0.12819 0.74371 0.17985 1.64500
Ba	Ba	0.84922 0.86001 0.23193 1.59200
Ba	Ba	0.11378 0.59438 0.04100 1.65900
C 	C 	0.88750 0.58770 0.18538 -0.14400
C 	C 	0.87910 0.67380 0.20380 0.40600
O 	O 	0.81440 0.68740 0.23050 -0.59400
O 	O 	0.93470 0.72850 0.18986 -0.61200
C 	C 	0.89520 0.57280 0.13705 -0.08400
C 	C 	0.90950 0.64430 0.10480 0.35000
O 	O 	0.99750 0.66640 0.10077 -0.58800
O 	O 	0.83020 0.67840 0.08329 -0.37200
C 	C 	0.87890 0.49360 0.11818 -0.13800
C 	C 	0.87790 0.47770 0.06533 0.39000
O 	O 	0.93790 0.51500 0.04282 -0.59500
O 	O 	0.81640 0.42390 0.04581 -0.60600
C 	C 	0.86080 0.42910 0.14854 -0.09200
C 	C 	0.82980 0.34490 0.12721 0.37900
O 	O 	0.89880 0.29660 0.12044 -0.40000
O 	O 	0.73800 0.33010 0.11904 -0.62000
C 	C 	0.86930 0.44190 0.19870 -0.14000
C 	C 	0.87400 0.37130 0.23311 0.37000
O 	O 	0.81340 0.31200 0.22537 -0.59000
O 	O 	0.94470 0.37430 0.26886 -0.58800
C 	C 	0.88070 0.52180 0.21674 -0.07400
C 	C 	0.88460 0.53990 0.27050 0.31100
O 	O 	0.80810 0.52560 0.28966 -0.48500
O 	O 	0.96550 0.57280 0.29137 -0.37600
Ba	Ba	0.62819 0.24371 0.67985 1.65400
Ba	Ba	0.34922 0.36001 0.73193 1.58400
Ba	Ba	0.61378 0.09438 0.54100 1.66500
C 	C 	0.38750 0.08770 0.68538 -0.14600
C 	C 	0.37910 0.17380 0.70380 0.40700
O 	O 	0.31440 0.18740 0.73050 -0.59500
O 	O 	0.43470 0.22850 0.68986 -0.61400
C 	C 	0.39520 0.07280 0.63705 -0.08100
C 	C 	0.40950 0.14430 0.60480 0.35000
O 	O 	0.49750 0.16640 0.60077 -0.59100
O 	O 	0.33020 0.17840 0.58329 -0.37100
C 	C 	0.37890 0.99360 0.61818 -0.14100
C 	C 	0.37790 0.97770 0.56533 0.38900
O 	O 	0.43790 0.01500 0.54282 -0.59500
O 	O 	0.31640 0.92390 0.54581 -0.60600
C 	C 	0.36080 0.92910 0.64854 -0.09000
C 	C 	0.32980 0.84490 0.62721 0.37800
O 	O 	0.39880 0.79660 0.62044 -0.39900
O 	O 	0.23800 0.83010 0.61904 -0.61900
C 	C 	0.36930 0.94190 0.69870 -0.14300
C 	C 	0.37400 0.87130 0.73311 0.37100
O 	O 	0.31340 0.81200 0.72537 -0.59000
O 	O 	0.44470 0.87430 0.76886 -0.58800
C 	C 	0.38070 0.02180 0.71674 -0.07200
C 	C 	0.38460 0.03990 0.77050 0.31000
O 	O 	0.30810 0.02560 0.78966 -0.48500
O 	O 	0.46550 0.07280 0.79137 -0.37700
Ba	Ba	0.62819 0.25629 0.17985 1.65300
Ba	Ba	0.34922 0.13999 0.23193 1.58400
Ba	Ba	0.61378 0.40562 0.04100 1.66700
C 	C 	0.38750 0.41230 0.18538 -0.14500
C 	C 	0.37910 0.32620 0.20380 0.40600
O 	O 	0.31440 0.31260 0.23050 -0.59400
O 	O 	0.43470 0.27150 0.18986 -0.61400
C 	C 	0.39520 0.42720 0.13705 -0.08400
C 	C 	0.40950 0.35570 0.10480 0.35100
O 	O 	0.49750 0.33360 0.10077 -0.59100
O 	O 	0.33020 0.32160 0.08329 -0.37300
C 	C 	0.37890 0.50640 0.11818 -0.13800
C 	C 	0.37790 0.52230 0.06533 0.39000
O 	O 	0.43790 0.48500 0.04282 -0.59700
O 	O 	0.31640 0.57610 0.04581 -0.60700
C 	C 	0.36080 0.57090 0.14854 -0.09100
C 	C 	0.32980 0.65510 0.12721 0.37800
O 	O 	0.39880 0.70340 0.12044 -0.40000
O 	O 	0.23800 0.66990 0.11904 -0.62000
C 	C 	0.36930 0.55810 0.19870 -0.14000
C 	C 	0.37400 0.62870 0.23311 0.37000
O 	O 	0.31340 0.68800 0.22537 -0.58900
O 	O 	0.44470 0.62570 0.26886 -0.58700
C 	C 	0.38070 0.47820 0.21674 -0.07500
C 	C 	0.38460 0.46010 0.27050 0.31100
O 	O 	0.30810 0.47440 0.28966 -0.48600
O 	O 	0.46550 0.42720 0.29137 -0.37700
Ba	Ba	0.12819 0.75629 0.67985 1.64800
Ba	Ba	0.84922 0.63999 0.73193 1.58300
Ba	Ba	0.11378 0.90562 0.54100 1.65400
C 	C 	0.88750 0.91230 0.68538 -0.14900
C 	C 	0.87910 0.82620 0.70380 0.40800
O 	O 	0.81440 0.81260 0.73050 -0.59400
O 	O 	0.93470 0.77150 0.68986 -0.61300
C 	C 	0.89520 0.92720 0.63705 -0.07500
C 	C 	0.90950 0.85570 0.60480 0.34800
O 	O 	0.99750 0.83360 0.60077 -0.58700
O 	O 	0.83020 0.82160 0.58329 -0.37100
C 	C 	0.87890 0.00640 0.61818 -0.14600
C 	C 	0.87790 0.02230 0.56533 0.38300
O 	O 	0.93790 0.98500 0.54282 -0.58800
O 	O 	0.81640 0.07610 0.54581 -0.60500
C 	C 	0.86080 0.07090 0.64854 -0.08800
C 	C 	0.82980 0.15510 0.62721 0.37700
O 	O 	0.89880 0.20340 0.62044 -0.40000
O 	O 	0.73800 0.16990 0.61904 -0.62000
C 	C 	0.86930 0.05810 0.69870 -0.15000
C 	C 	0.87400 0.12870 0.73311 0.37300
O 	O 	0.81340 0.18800 0.72537 -0.59100
O 	O 	0.94470 0.12570 0.76886 -0.59200
C 	C 	0.88070 0.97820 0.71674 -0.06500
C 	C 	0.88460 0.96010 0.77050 0.30900
O 	O 	0.80810 0.97440 0.78966 -0.48400
O 	O 	0.96550 0.92720 0.79137 -0.37500
Ba	Ba	0.87181 0.25629 0.82015 1.64500
Ba	Ba	0.15078 0.13999 0.76807 1.59200
Ba	Ba	0.88622 0.40562 0.95900 1.65900
C 	C 	0.11250 0.41230 0.81462 -0.14400
C 	C 	0.12090 0.32620 0.79620 0.40600
O 	O 	0.18560 0.31260 0.76950 -0.59400
O 	O 	0.06530 0.27150 0.81014 -0.61200
C 	C 	0.10480 0.42720 0.86295 -0.08400
C 	C 	0.09050 0.35570 0.89520 0.35000
O 	O 	0.00250 0.33360 0.89923 -0.58800
O 	O 	0.16980 0.32160 0.91671 -0.37200
C 	C 	0.12110 0.50640 0.88182 -0.13800
C 	C 	0.12210 0.52230 0.93467 0.39000
O 	O 	0.06210 0.48500 0.95718 -0.59500
O 	O 	0.18360 0.57610 0.95419 -0.60600
C 	C 	0.13920 0.57090 0.85146 -0.09200
C 	C 	0.17020 0.65510 0.87279 0.37900
O 	O 	0.10120 0.70340 0.87956 -0.40000
O 	O 	0.26200 0.66990 0.88096 -0.62000
C 	C 	0.13070 0.55810 0.80130 -0.14000
C 	C 	0.12600 0.62870 0.76689 0.37000
O 	O 	0.18660 0.68800 0.77463 -0.59000
O 	O 	0.05530 0.62570 0.73114 -0.58800
C 	C 	0.11930 0.47820 0.78326 -0.07400
C 	C 	0.11540 0.46010 0.72950 0.31100
O 	O 	0.19190 0.47440 0.71034 -0.48500
O 	O 	0.03450 0.42720 0.70863 -0.37600
Ba	Ba	0.37181 0.75629 0.32015 1.65400
Ba	Ba	0.65078 0.63999 0.26807 1.58400
Ba	Ba	0.38622 0.90562 0.45900 1.66500
C 	C 	0.61250 0.91230 0.31462 -0.14600
C 	C 	0.62090 0.82620 0.29620 0.40700
O 	O 	0.68560 0.81260 0.26950 -0.59500
O 	O 	0.56530 0.77150 0.31014 -0.61400
C 	C 	0.60480 0.92720 0.36295 -0.08100
C 	C 	0.59050 0.85570 0.39520 0.35000
O 	O 	0.50250 0.83360 0.39923 -0.59100
O 	O 	0.66980 0.82160 0.41671 -0.37100
C 	C 	0.62110 0.00640 0.38182 -0.14100
C 	C 	0.62210 0.02230 0.43467 0.38900
O 	O 	0.56210 0.98500 0.45718 -0.59500
O 	O 	0.68360 0.07610 0.45419 -0.60600
C 	C 	0.63920 0.07090 0.35146 -0.09000
C 	C 	0.67020 0.15510 0.37279 0.37800
O 	O 	0.60120 0.20340 0.37956 -0.39900
O 	O 	0.76200 0.16990 0.38096 -0.61900
C 	C 	0.63070 0.05810 0.30130 -0.14300
C 	C 	0.62600 0.12870 0.26689 0.37100
O 	O 	0.68660 0.18800 0.27463 -0.59000
O 	O 	0.55530 0.12570 0.23114 -0.58800
C 	C 	0.61930 0.97820 0.28326 -0.07200
C 	C 	0.61540 0.96010 0.22950 0.31000
O 	O 	0.69190 0.97440 0.21034 -0.48500
O 	O 	0.53450 0.92720 0.20863 -0.37700
