data_crystal

_cell_length_a 15.56530
_cell_length_b 15.38560
_cell_length_c 14.83640
_cell_angle_alpha 90.00000
_cell_angle_beta  109.72500
_cell_angle_gamma 90.00000

_symmetry_space_group_name_	'P 1'
_symmetry_space_group_name_H-M	'P 1'

loop_
_symmetry_equiv_pos_as_xyz
  x,y,z

loop_
_atom_site_label
_atom_site_type_symbol
_atom_site_fract_x
_atom_site_fract_y
_atom_site_fract_z
_atom_site_charge
Cd	Cd	0.62229 0.85035 0.74346 1.18400
Cd	Cd	0.82242 0.67823 0.76684 1.18800
N 	N 	0.47140 0.25450 0.35180 -0.25000
N 	N 	0.72790 0.94310 0.84650 -0.24800
N 	N 	0.73930 0.57560 0.66150 -0.25100
N 	N 	0.81940 0.59520 0.90420 -0.22200
N 	N 	0.06590 0.22860 0.13790 -0.24900
C 	C 	0.48560 0.33060 0.31810 0.05600
H 	H 	0.45730 0.34180 0.25320 -0.01500
C 	C 	0.54060 0.39440 0.37480 -0.11900
H 	H 	0.54780 0.44730 0.34800 0.04200
C 	C 	0.58490 0.37920 0.47180 0.04400
C 	C 	0.57150 0.29860 0.50490 -0.13300
H 	H 	0.60110 0.28420 0.56870 0.06500
C 	C 	0.51450 0.23890 0.44430 0.06800
H 	H 	0.50580 0.18540 0.46910 -0.01400
C 	C 	0.79100 0.91750 0.92790 0.07300
H 	H 	0.79100 0.85960 0.94580 -0.01500
C 	C 	0.85590 0.97180 0.98690 -0.13100
H 	H 	0.89940 0.94980 0.04180 0.06100
C 	C 	0.85690 0.05900 0.96480 0.05200
C 	C 	0.79020 0.08680 0.88090 -0.13400
H 	H 	0.78710 0.14490 0.86320 0.06800
C 	C 	0.72870 0.02800 0.82420 0.06700
H 	H 	0.68560 0.04790 0.76780 -0.02500
C 	C 	0.02490 0.24200 0.04380 0.06000
H 	H 	0.04350 0.28920 0.01570 -0.01800
C 	C 	0.95650 0.18920 0.98670 -0.13400
H 	H 	0.93010 0.20140 0.92180 0.06300
C 	C 	0.92730 0.11880 0.02530 0.04600
C 	C 	0.96900 0.10540 0.12330 -0.12700
H 	H 	0.95120 0.05910 0.15320 0.05900
C 	C 	0.03670 0.16100 0.17570 0.06000
H 	H 	0.06350 0.15090 0.24110 -0.01900
C 	C 	0.67210 0.59660 0.58060 0.05400
H 	H 	0.65890 0.65490 0.56620 0.00600
C 	C 	0.62150 0.53430 0.51770 -0.11900
H 	H 	0.57490 0.55120 0.46250 0.05100
C 	C 	0.63990 0.44670 0.53660 0.04400
C 	C 	0.71170 0.42590 0.61900 -0.13300
H 	H 	0.72820 0.36810 0.63340 0.06700
C 	C 	0.75830 0.49090 0.67940 0.06100
H 	H 	0.80510 0.47550 0.73520 -0.03100
C 	C 	0.70400 0.70240 0.90490 0.29900
C 	C 	0.77110 0.63090 0.95500 0.00200
C 	C 	0.77840 0.60330 0.04660 -0.11900
C 	C 	0.83420 0.53210 0.08270 0.04900
H 	H 	0.84010 0.51060 0.14300 0.00300
C 	C 	0.88090 0.49340 0.02940 -0.14100
H 	H 	0.91780 0.44520 0.05270 0.05900
C 	C 	0.87190 0.52740 0.94130 0.07200
H 	H 	0.90420 0.50160 0.90590 -0.02800
C 	C 	0.73250 0.64560 0.11070 0.40900
O 	O 	0.71240 0.73420 0.82840 -0.52300
O 	O 	0.64580 0.72360 0.93970 -0.30100
O 	O 	0.66880 0.60220 0.12280 -0.44800
O 	O 	0.76460 0.71390 0.15150 -0.48100
Cd	Cd	0.37771 0.35035 0.75654 1.18300
Cd	Cd	0.17758 0.17823 0.73316 1.18700
N 	N 	0.52860 0.75450 0.14820 -0.25100
N 	N 	0.27210 0.44310 0.65350 -0.24900
N 	N 	0.26070 0.07560 0.83850 -0.25200
N 	N 	0.18060 0.09520 0.59580 -0.22100
N 	N 	0.93410 0.72860 0.36210 -0.25000
C 	C 	0.51440 0.83060 0.18190 0.05600
H 	H 	0.54270 0.84180 0.24680 -0.01500
C 	C 	0.45940 0.89440 0.12520 -0.11800
H 	H 	0.45220 0.94730 0.15200 0.04100
C 	C 	0.41510 0.87920 0.02820 0.04300
C 	C 	0.42850 0.79860 0.99510 -0.13300
H 	H 	0.39890 0.78420 0.93130 0.06500
C 	C 	0.48550 0.73890 0.05570 0.06700
H 	H 	0.49420 0.68540 0.03090 -0.01400
C 	C 	0.20900 0.41750 0.57210 0.07300
H 	H 	0.20900 0.35960 0.55420 -0.01500
C 	C 	0.14410 0.47180 0.51310 -0.13000
H 	H 	0.10060 0.44980 0.45820 0.06100
C 	C 	0.14310 0.55900 0.53520 0.05100
C 	C 	0.20980 0.58680 0.61910 -0.13400
H 	H 	0.21290 0.64490 0.63680 0.06800
C 	C 	0.27130 0.52800 0.67580 0.06700
H 	H 	0.31440 0.54790 0.73220 -0.02500
C 	C 	0.97510 0.74200 0.45620 0.06000
H 	H 	0.95650 0.78920 0.48430 -0.01800
C 	C 	0.04350 0.68920 0.51330 -0.13500
H 	H 	0.06990 0.70140 0.57820 0.06300
C 	C 	0.07270 0.61880 0.47470 0.04700
C 	C 	0.03100 0.60540 0.37670 -0.12800
H 	H 	0.04880 0.55910 0.34680 0.05900
C 	C 	0.96330 0.66100 0.32430 0.06100
H 	H 	0.93650 0.65090 0.25890 -0.01900
C 	C 	0.32790 0.09660 0.91940 0.05500
H 	H 	0.34110 0.15490 0.93380 0.00500
C 	C 	0.37850 0.03430 0.98230 -0.12200
H 	H 	0.42510 0.05120 0.03750 0.05200
C 	C 	0.36010 0.94670 0.96340 0.04600
C 	C 	0.28830 0.92590 0.88100 -0.13400
H 	H 	0.27180 0.86810 0.86660 0.06700
C 	C 	0.24170 0.99090 0.82060 0.06300
H 	H 	0.19490 0.97550 0.76480 -0.03100
C 	C 	0.29600 0.20240 0.59510 0.29900
C 	C 	0.22890 0.13090 0.54500 0.00100
C 	C 	0.22160 0.10330 0.45340 -0.11700
C 	C 	0.16580 0.03210 0.41730 0.04600
H 	H 	0.15990 0.01060 0.35700 0.00400
C 	C 	0.11910 0.99340 0.47060 -0.13500
H 	H 	0.08220 0.94520 0.44730 0.05700
C 	C 	0.12810 0.02740 0.55870 0.06800
H 	H 	0.09580 0.00160 0.59410 -0.02700
C 	C 	0.26750 0.14560 0.38930 0.40900
O 	O 	0.28760 0.23420 0.67160 -0.52300
O 	O 	0.35420 0.22360 0.56030 -0.30100
O 	O 	0.33120 0.10220 0.37720 -0.44800
O 	O 	0.23540 0.21390 0.34850 -0.48100
Cd	Cd	0.37771 0.14965 0.25654 1.18300
Cd	Cd	0.17758 0.32177 0.23316 1.18700
N 	N 	0.52860 0.74550 0.64820 -0.25100
N 	N 	0.27210 0.05690 0.15350 -0.24900
N 	N 	0.26070 0.42440 0.33850 -0.25100
N 	N 	0.18060 0.40480 0.09580 -0.22200
N 	N 	0.93410 0.77140 0.86210 -0.24900
C 	C 	0.51440 0.66940 0.68190 0.05600
H 	H 	0.54270 0.65820 0.74680 -0.01500
C 	C 	0.45940 0.60560 0.62520 -0.11900
H 	H 	0.45220 0.55270 0.65200 0.04200
C 	C 	0.41510 0.62080 0.52820 0.04400
C 	C 	0.42850 0.70140 0.49510 -0.13300
H 	H 	0.39890 0.71580 0.43130 0.06500
C 	C 	0.48550 0.76110 0.55570 0.06800
H 	H 	0.49420 0.81460 0.53090 -0.01400
C 	C 	0.20900 0.08250 0.07210 0.07300
H 	H 	0.20900 0.14040 0.05420 -0.01500
C 	C 	0.14410 0.02820 0.01310 -0.13100
H 	H 	0.10060 0.05020 0.95820 0.06100
C 	C 	0.14310 0.94100 0.03520 0.05200
C 	C 	0.20980 0.91320 0.11910 -0.13400
H 	H 	0.21290 0.85510 0.13680 0.06800
C 	C 	0.27130 0.97200 0.17580 0.06700
H 	H 	0.31440 0.95210 0.23220 -0.02500
C 	C 	0.97510 0.75800 0.95620 0.06000
H 	H 	0.95650 0.71080 0.98430 -0.01800
C 	C 	0.04350 0.81080 0.01330 -0.13400
H 	H 	0.06990 0.79860 0.07820 0.06300
C 	C 	0.07270 0.88120 0.97470 0.04600
C 	C 	0.03100 0.89460 0.87670 -0.12700
H 	H 	0.04880 0.94090 0.84680 0.05900
C 	C 	0.96330 0.83900 0.82430 0.06000
H 	H 	0.93650 0.84910 0.75890 -0.01900
C 	C 	0.32790 0.40340 0.41940 0.05400
H 	H 	0.34110 0.34510 0.43380 0.00600
C 	C 	0.37850 0.46570 0.48230 -0.11900
H 	H 	0.42510 0.44880 0.53750 0.05100
C 	C 	0.36010 0.55330 0.46340 0.04400
C 	C 	0.28830 0.57410 0.38100 -0.13300
H 	H 	0.27180 0.63190 0.36660 0.06700
C 	C 	0.24170 0.50910 0.32060 0.06100
H 	H 	0.19490 0.52450 0.26480 -0.03100
C 	C 	0.29600 0.29760 0.09510 0.29900
C 	C 	0.22890 0.36910 0.04500 0.00200
C 	C 	0.22160 0.39670 0.95340 -0.11900
C 	C 	0.16580 0.46790 0.91730 0.04900
H 	H 	0.15990 0.48940 0.85700 0.00300
C 	C 	0.11910 0.50660 0.97060 -0.14100
H 	H 	0.08220 0.55480 0.94730 0.05900
C 	C 	0.12810 0.47260 0.05870 0.07200
H 	H 	0.09580 0.49840 0.09410 -0.02800
C 	C 	0.26750 0.35440 0.88930 0.40900
O 	O 	0.28760 0.26580 0.17160 -0.52300
O 	O 	0.35420 0.27640 0.06030 -0.30100
O 	O 	0.33120 0.39780 0.87720 -0.44800
O 	O 	0.23540 0.28610 0.84850 -0.48100
Cd	Cd	0.62229 0.64965 0.24346 1.18300
Cd	Cd	0.82242 0.82177 0.26684 1.18700
N 	N 	0.47140 0.24550 0.85180 -0.25100
N 	N 	0.72790 0.55690 0.34650 -0.24900
N 	N 	0.73930 0.92440 0.16150 -0.25200
N 	N 	0.81940 0.90480 0.40420 -0.22100
N 	N 	0.06590 0.27140 0.63790 -0.25000
C 	C 	0.48560 0.16940 0.81810 0.05600
H 	H 	0.45730 0.15820 0.75320 -0.01500
C 	C 	0.54060 0.10560 0.87480 -0.11800
H 	H 	0.54780 0.05270 0.84800 0.04100
C 	C 	0.58490 0.12080 0.97180 0.04300
C 	C 	0.57150 0.20140 0.00490 -0.13300
H 	H 	0.60110 0.21580 0.06870 0.06500
C 	C 	0.51450 0.26110 0.94430 0.06700
H 	H 	0.50580 0.31460 0.96910 -0.01400
C 	C 	0.79100 0.58250 0.42790 0.07300
H 	H 	0.79100 0.64040 0.44580 -0.01500
C 	C 	0.85590 0.52820 0.48690 -0.13000
H 	H 	0.89940 0.55020 0.54180 0.06100
C 	C 	0.85690 0.44100 0.46480 0.05100
C 	C 	0.79020 0.41320 0.38090 -0.13400
H 	H 	0.78710 0.35510 0.36320 0.06800
C 	C 	0.72870 0.47200 0.32420 0.06700
H 	H 	0.68560 0.45210 0.26780 -0.02500
C 	C 	0.02490 0.25800 0.54380 0.06000
H 	H 	0.04350 0.21080 0.51570 -0.01800
C 	C 	0.95650 0.31080 0.48670 -0.13500
H 	H 	0.93010 0.29860 0.42180 0.06300
C 	C 	0.92730 0.38120 0.52530 0.04700
C 	C 	0.96900 0.39460 0.62330 -0.12800
H 	H 	0.95120 0.44090 0.65320 0.05900
C 	C 	0.03670 0.33900 0.67570 0.06100
H 	H 	0.06350 0.34910 0.74110 -0.01900
C 	C 	0.67210 0.90340 0.08060 0.05500
H 	H 	0.65890 0.84510 0.06620 0.00500
C 	C 	0.62150 0.96570 0.01770 -0.12200
H 	H 	0.57490 0.94880 0.96250 0.05200
C 	C 	0.63990 0.05330 0.03660 0.04600
C 	C 	0.71170 0.07410 0.11900 -0.13400
H 	H 	0.72820 0.13190 0.13340 0.06700
C 	C 	0.75830 0.00910 0.17940 0.06300
H 	H 	0.80510 0.02450 0.23520 -0.03100
C 	C 	0.70400 0.79760 0.40490 0.29900
C 	C 	0.77110 0.86910 0.45500 0.00100
C 	C 	0.77840 0.89670 0.54660 -0.11700
C 	C 	0.83420 0.96790 0.58270 0.04600
H 	H 	0.84010 0.98940 0.64300 0.00400
C 	C 	0.88090 0.00660 0.52940 -0.13500
H 	H 	0.91780 0.05480 0.55270 0.05700
C 	C 	0.87190 0.97260 0.44130 0.06800
H 	H 	0.90420 0.99840 0.40590 -0.02700
C 	C 	0.73250 0.85440 0.61070 0.40900
O 	O 	0.71240 0.76580 0.32840 -0.52300
O 	O 	0.64580 0.77640 0.43970 -0.30100
O 	O 	0.66880 0.89780 0.62280 -0.44800
O 	O 	0.76460 0.78610 0.65150 -0.48100
