data_crystal

_cell_length_a 10.79800
_cell_length_b 15.83750
_cell_length_c 15.83750
_cell_angle_alpha 94.80890
_cell_angle_beta  103.45800
_cell_angle_gamma 103.45800

_symmetry_space_group_name_	'P 1'
_symmetry_space_group_name_H-M	'P 1'

loop_
_symmetry_equiv_pos_as_xyz
  x,y,z

loop_
_atom_site_label
_atom_site_type_symbol
_atom_site_fract_x
_atom_site_fract_y
_atom_site_fract_z
_atom_site_charge
Co	Co	0.04150 0.93370 0.77210 1.09900
Co	Co	0.27970 0.42200 0.26060 1.10400
Co	Co	0.54150 0.77210 0.93370 1.11100
Co	Co	0.77970 0.26060 0.42200 1.10800
H 	H 	0.82840 0.76380 0.94600 0.03100
H 	H 	0.74750 0.86410 0.70250 -0.00500
H 	H 	0.16830 0.30280 0.08420 -0.04800
H 	H 	0.25230 0.55230 0.13970 -0.06600
H 	H 	0.11840 0.63000 0.06660 0.09900
H 	H 	0.01510 0.44200 0.25680 0.00100
H 	H 	0.45280 0.72610 0.44970 0.08900
H 	H 	0.59250 0.76550 0.60110 0.10000
H 	H 	0.73590 0.60880 0.42520 0.10600
H 	H 	0.30880 0.60950 0.34970 -0.01600
H 	H 	0.02370 0.84050 0.58850 -0.05000
H 	H 	0.87240 0.74110 0.48230 0.09500
H 	H 	0.57910 0.49280 0.33040 -0.00100
H 	H 	0.96350 0.68360 0.99800 0.08800
H 	H 	0.85800 0.06460 0.95360 0.06800
H 	H 	0.55900 0.62220 0.05120 -0.02000
H 	H 	0.83930 0.49270 0.17730 0.08800
H 	H 	0.66740 0.88190 0.11210 -0.03600
H 	H 	0.00660 0.18420 0.01280 0.07800
H 	H 	0.10110 0.25670 0.30330 0.00800
H 	H 	0.80310 0.01570 0.18010 0.06800
H 	H 	0.90700 0.14740 0.23640 0.05200
H 	H 	0.76070 0.92080 0.89400 0.00300
H 	H 	0.71550 0.54860 0.09540 0.05800
H 	H 	0.32840 0.94600 0.76380 0.02900
H 	H 	0.24750 0.70250 0.86410 -0.00800
H 	H 	0.66830 0.08420 0.30280 -0.03700
H 	H 	0.75230 0.13970 0.55230 -0.05500
H 	H 	0.61840 0.06660 0.63000 0.09100
H 	H 	0.51510 0.25680 0.44200 -0.00300
H 	H 	0.95280 0.44970 0.72610 0.07500
H 	H 	0.09250 0.60110 0.76550 0.09500
H 	H 	0.23590 0.42520 0.60880 0.08500
H 	H 	0.80880 0.34970 0.60950 -0.00200
H 	H 	0.52370 0.58850 0.84050 -0.00300
H 	H 	0.37240 0.48230 0.74110 0.08000
H 	H 	0.07910 0.33040 0.49280 0.01300
H 	H 	0.46350 0.99800 0.68360 0.07700
H 	H 	0.35800 0.95360 0.06460 0.06500
H 	H 	0.05900 0.05120 0.62220 -0.02900
H 	H 	0.33930 0.17730 0.49270 0.09300
H 	H 	0.16740 0.11210 0.88190 -0.04300
H 	H 	0.50660 0.01280 0.18420 0.06900
H 	H 	0.60110 0.30330 0.25670 0.00200
H 	H 	0.30310 0.18010 0.01570 0.07300
H 	H 	0.40700 0.23640 0.14740 0.05700
H 	H 	0.26070 0.89400 0.92080 -0.00100
H 	H 	0.21550 0.09540 0.54860 0.05600
C 	C 	0.80110 0.72030 0.97870 0.04800
C 	C 	0.77240 0.83760 0.65680 0.10100
C 	C 	0.11720 0.27030 0.11610 0.10200
C 	C 	0.16850 0.54400 0.14880 0.14800
C 	C 	0.09050 0.59170 0.10390 -0.23500
C 	C 	0.96020 0.13780 0.11560 0.08400
C 	C 	0.86580 0.05200 0.07340 0.05200
C 	C 	0.70660 0.73730 0.51770 0.05700
C 	C 	0.60870 0.67180 0.44860 0.08200
C 	C 	0.03060 0.47740 0.21440 0.07800
C 	C 	0.87080 0.62230 0.07490 0.02700
C 	C 	0.96810 0.57780 0.11920 0.11300
C 	C 	0.47980 0.67950 0.42690 -0.16000
C 	C 	0.67830 0.77960 0.59500 -0.13500
C 	C 	0.64710 0.60810 0.41230 -0.15200
C 	C 	0.39680 0.60830 0.36710 0.10300
C 	C 	0.93620 0.82500 0.59100 0.15700
C 	C 	0.84210 0.76570 0.52630 -0.16000
C 	C 	0.55270 0.53930 0.35390 0.09000
C 	C 	0.88580 0.67600 0.01560 -0.09600
C 	C 	0.83140 0.02470 0.98990 -0.12800
C 	C 	0.64090 0.63840 0.03940 0.04100
C 	C 	0.92520 0.51090 0.17210 -0.12400
C 	C 	0.70970 0.91860 0.07880 0.08200
C 	C 	0.02520 0.19560 0.07360 -0.19300
C 	C 	0.07350 0.24520 0.24240 0.04400
C 	C 	0.79400 0.99810 0.12090 -0.12700
C 	C 	0.96730 0.17200 0.20620 -0.09700
C 	C 	0.75900 0.94180 0.95020 0.07400
C 	C 	0.74210 0.59950 0.07170 -0.09500
C 	C 	0.30110 0.97870 0.72030 0.04300
C 	C 	0.27240 0.65680 0.83760 0.09500
C 	C 	0.61720 0.11610 0.27030 0.08400
C 	C 	0.66850 0.14880 0.54400 0.13400
C 	C 	0.59050 0.10390 0.59170 -0.18600
C 	C 	0.46020 0.11560 0.13780 0.04600
C 	C 	0.36580 0.07340 0.05200 0.06900
C 	C 	0.20660 0.51770 0.73730 0.05900
C 	C 	0.10870 0.44860 0.67180 0.01700
C 	C 	0.53060 0.21440 0.47740 0.11800
C 	C 	0.37080 0.07490 0.62230 0.03200
C 	C 	0.46810 0.11920 0.57780 0.07900
C 	C 	0.97980 0.42690 0.67950 -0.08700
C 	C 	0.17830 0.59500 0.77960 -0.13800
C 	C 	0.14710 0.41230 0.60810 -0.10100
C 	C 	0.89680 0.36710 0.60830 0.07700
C 	C 	0.43620 0.59100 0.82500 0.08300
C 	C 	0.34210 0.52630 0.76570 -0.13200
C 	C 	0.05270 0.35390 0.53930 0.02900
C 	C 	0.38580 0.01560 0.67600 -0.09700
C 	C 	0.33140 0.98990 0.02470 -0.14200
C 	C 	0.14090 0.03940 0.63840 0.04300
C 	C 	0.42520 0.17210 0.51090 -0.15600
C 	C 	0.20970 0.07880 0.91860 0.09000
C 	C 	0.52520 0.07360 0.19560 -0.14100
C 	C 	0.57350 0.24240 0.24520 0.08200
C 	C 	0.29400 0.12090 0.99810 -0.14700
C 	C 	0.46730 0.20620 0.17200 -0.12700
C 	C 	0.25900 0.95020 0.94180 0.07400
C 	C 	0.24210 0.07170 0.59950 -0.10200
N 	N 	0.67100 0.70270 0.98830 -0.24800
N 	N 	0.89910 0.86000 0.65760 -0.25100
N 	N 	0.14150 0.49060 0.20040 -0.28100
N 	N 	0.42540 0.53890 0.33130 -0.25200
N 	N 	0.13800 0.29890 0.20010 -0.24900
N 	N 	0.68570 0.89170 0.99430 -0.24800
N 	N 	0.02330 0.78170 0.82810 0.04000
N 	N 	0.30680 0.36930 0.41050 0.05300
N 	N 	0.17100 0.98830 0.70270 -0.25100
N 	N 	0.39910 0.65760 0.86000 -0.24800
N 	N 	0.64150 0.20040 0.49060 -0.28200
N 	N 	0.92540 0.33130 0.53890 -0.22300
N 	N 	0.63800 0.20010 0.29890 -0.24900
N 	N 	0.18570 0.99430 0.89170 -0.25500
N 	N 	0.52330 0.82810 0.78170 0.05300
N 	N 	0.80680 0.41050 0.36930 0.05200
O 	O 	0.10080 0.81210 0.78330 -0.26500
O 	O 	0.22140 0.41280 0.38440 -0.25900
O 	O 	0.95020 0.83570 0.84330 -0.24400
O 	O 	0.36700 0.34780 0.35920 -0.27100
O 	O 	0.00380 0.71190 0.85410 -0.15400
O 	O 	0.31560 0.34640 0.48460 -0.13400
O 	O 	0.60080 0.78330 0.81210 -0.25700
O 	O 	0.72140 0.38440 0.41280 -0.25300
O 	O 	0.45020 0.84330 0.83570 -0.26900
O 	O 	0.86700 0.35920 0.34780 -0.26000
O 	O 	0.50380 0.85410 0.71190 -0.13900
O 	O 	0.81560 0.48460 0.34640 -0.12600
