data_crystal

_cell_length_a 11.34000
_cell_length_b 15.77000
_cell_length_c 22.90000
_cell_angle_alpha 90.00000
_cell_angle_beta  97.98000
_cell_angle_gamma 90.00000

_symmetry_space_group_name_	'P 1'
_symmetry_space_group_name_H-M	'P 1'

loop_
_symmetry_equiv_pos_as_xyz
  x,y,z

loop_
_atom_site_label
_atom_site_type_symbol
_atom_site_fract_x
_atom_site_fract_y
_atom_site_fract_z
_atom_site_charge
Cu	Cu	0.38700 0.75661 0.72854 0.85400
N 	N 	0.26610 0.67360 0.68880 -0.24200
N 	N 	0.17620 0.55060 0.66760 -0.09400
N 	N 	0.10820 0.61300 0.64180 -0.08000
N 	N 	0.48970 0.72970 0.66830 -0.24600
N 	N 	0.64050 0.66600 0.63180 -0.09900
N 	N 	0.55890 0.69520 0.58740 -0.08500
N 	N 	0.51750 0.83380 0.76880 -0.24300
C 	C 	0.56450 0.84010 0.82440 0.10400
H 	H 	0.54070 0.81010 0.85580 -0.01600
N 	N 	0.65080 0.89630 0.82800 -0.10000
N 	N 	0.65730 0.92480 0.77460 -0.07900
C 	C 	0.57490 0.88620 0.73800 0.09000
H 	H 	0.55980 0.89440 0.69740 -0.01400
N 	N 	0.27360 0.78880 0.78400 -0.24600
C 	C 	0.24170 0.86750 0.79490 0.09000
H 	H 	0.27350 0.91670 0.78110 -0.00700
N 	N 	0.15660 0.86380 0.82910 -0.09400
N 	N 	0.13580 0.78270 0.83930 -0.08100
C 	C 	0.20810 0.73640 0.81140 0.08600
H 	H 	0.21220 0.67750 0.81120 -0.01100
C 	C 	0.27000 0.58970 0.69510 0.09700
H 	H 	0.33330 0.56140 0.71690 -0.01900
C 	C 	0.16300 0.68570 0.65360 0.08500
H 	H 	0.13420 0.73810 0.63960 -0.01500
C 	C 	0.99270 0.59450 0.60700 -0.13500
H 	H 	0.95270 0.64780 0.59610 0.07200
H 	H 	0.94440 0.56360 0.63150 0.08500
C 	C 	0.99910 0.54490 0.55250 0.07400
C 	C 	0.07810 0.56600 0.51290 -0.06400
H 	H 	0.13120 0.61070 0.52140 0.05600
C 	C 	0.92250 0.47860 0.53800 -0.08200
H 	H 	0.86930 0.46370 0.56370 0.06500
C 	C 	0.59530 0.68790 0.67920 0.08600
H 	H 	0.63240 0.67590 0.71710 -0.01400
C 	C 	0.47210 0.73230 0.60950 0.09000
H 	H 	0.40650 0.75720 0.58710 -0.01600
C 	C 	0.56670 0.67530 0.52600 -0.12400
H 	H 	0.64760 0.68460 0.51810 0.07200
H 	H 	0.51460 0.71280 0.50060 0.06300
C 	C 	0.53170 0.58400 0.51200 0.07100
C 	C 	0.42570 0.55320 0.52330 -0.06700
H 	H 	0.37320 0.58860 0.53950 0.05900
C 	C 	0.60530 0.53070 0.48900 -0.07700
H 	H 	0.67880 0.55040 0.48120 0.06300
C 	C 	0.74050 0.99180 0.76130 -0.13500
H 	H 	0.79810 0.96830 0.73820 0.07100
H 	H 	0.78330 0.01390 0.79770 0.08200
C 	C 	0.67140 0.06340 0.72690 0.06700
C 	C 	0.64030 0.05530 0.66650 -0.07800
H 	H 	0.66670 0.00860 0.64710 0.05300
C 	C 	0.57100 0.11540 0.63510 -0.07100
H 	H 	0.54900 0.10850 0.59480 0.04700
C 	C 	0.53330 0.18630 0.66290 0.05500
C 	C 	0.56910 0.19590 0.72320 -0.06000
H 	H 	0.54790 0.24440 0.74230 0.05900
C 	C 	0.63600 0.13360 0.75460 -0.08000
H 	H 	0.65710 0.13950 0.79510 0.06400
C 	C 	0.04300 0.75320 0.87140 -0.12300
H 	H 	0.99330 0.80070 0.87940 0.07700
H 	H 	0.07860 0.72960 0.90890 0.06500
Cu	Cu	0.11300 0.25661 0.77146 0.85300
N 	N 	0.23390 0.17360 0.81120 -0.24300
N 	N 	0.32380 0.05060 0.83240 -0.09600
N 	N 	0.39180 0.11300 0.85820 -0.08100
N 	N 	0.01030 0.22970 0.83170 -0.24700
N 	N 	0.85950 0.16600 0.86820 -0.10000
N 	N 	0.94110 0.19520 0.91260 -0.08500
N 	N 	0.98250 0.33380 0.73120 -0.24300
C 	C 	0.93550 0.34010 0.67560 0.10400
H 	H 	0.95930 0.31010 0.64420 -0.01600
N 	N 	0.84920 0.39630 0.67200 -0.10000
N 	N 	0.84270 0.42480 0.72540 -0.07900
C 	C 	0.92510 0.38620 0.76200 0.09000
H 	H 	0.94020 0.39440 0.80260 -0.01400
N 	N 	0.22640 0.28880 0.71600 -0.24600
C 	C 	0.25830 0.36750 0.70510 0.09000
H 	H 	0.22650 0.41670 0.71890 -0.00700
N 	N 	0.34340 0.36380 0.67090 -0.09500
N 	N 	0.36420 0.28270 0.66070 -0.08100
C 	C 	0.29190 0.23640 0.68860 0.08600
H 	H 	0.28780 0.17750 0.68880 -0.01100
C 	C 	0.23000 0.08970 0.80490 0.09700
H 	H 	0.16670 0.06140 0.78310 -0.01900
C 	C 	0.33700 0.18570 0.84640 0.08500
H 	H 	0.36580 0.23810 0.86040 -0.01500
C 	C 	0.50730 0.09450 0.89300 -0.13400
H 	H 	0.54730 0.14780 0.90390 0.07200
H 	H 	0.55560 0.06360 0.86850 0.08500
C 	C 	0.50090 0.04490 0.94750 0.07300
C 	C 	0.42190 0.06600 0.98710 -0.06500
H 	H 	0.36880 0.11070 0.97860 0.05600
C 	C 	0.57750 0.97860 0.96200 -0.08100
H 	H 	0.63070 0.96370 0.93630 0.06500
C 	C 	0.90470 0.18790 0.82080 0.08700
H 	H 	0.86760 0.17590 0.78290 -0.01400
C 	C 	0.02790 0.23230 0.89050 0.09000
H 	H 	0.09350 0.25720 0.91290 -0.01600
C 	C 	0.93330 0.17530 0.97400 -0.12400
H 	H 	0.85240 0.18460 0.98190 0.07200
H 	H 	0.98540 0.21280 0.99940 0.06400
C 	C 	0.96830 0.08400 0.98800 0.07100
C 	C 	0.07430 0.05320 0.97670 -0.06900
H 	H 	0.12680 0.08860 0.96050 0.06000
C 	C 	0.89470 0.03070 0.01100 -0.07400
H 	H 	0.82120 0.05040 0.01880 0.06300
C 	C 	0.75950 0.49180 0.73870 -0.13500
H 	H 	0.70190 0.46830 0.76180 0.07100
H 	H 	0.71670 0.51390 0.70230 0.08200
C 	C 	0.82860 0.56340 0.77310 0.06700
C 	C 	0.85970 0.55530 0.83350 -0.07900
H 	H 	0.83330 0.50860 0.85290 0.05300
C 	C 	0.92900 0.61540 0.86490 -0.07000
H 	H 	0.95100 0.60850 0.90520 0.04700
C 	C 	0.96670 0.68630 0.83710 0.05400
C 	C 	0.93090 0.69590 0.77680 -0.06000
H 	H 	0.95210 0.74440 0.75770 0.05900
C 	C 	0.86400 0.63360 0.74540 -0.08100
H 	H 	0.84290 0.63950 0.70490 0.06400
C 	C 	0.45700 0.25320 0.62860 -0.12400
H 	H 	0.50670 0.30070 0.62060 0.07700
H 	H 	0.42140 0.22960 0.59110 0.06500
Cu	Cu	0.61300 0.24339 0.27146 0.85300
N 	N 	0.73390 0.32640 0.31120 -0.24300
N 	N 	0.82380 0.44940 0.33240 -0.09500
N 	N 	0.89180 0.38700 0.35820 -0.08100
N 	N 	0.51030 0.27030 0.33170 -0.24700
N 	N 	0.35950 0.33400 0.36820 -0.10000
N 	N 	0.44110 0.30480 0.41260 -0.08500
N 	N 	0.48250 0.16620 0.23120 -0.24300
C 	C 	0.43550 0.15990 0.17560 0.10400
H 	H 	0.45930 0.18990 0.14420 -0.01600
N 	N 	0.34920 0.10370 0.17200 -0.10000
N 	N 	0.34270 0.07520 0.22540 -0.07900
C 	C 	0.42510 0.11380 0.26200 0.09000
H 	H 	0.44020 0.10560 0.30260 -0.01400
N 	N 	0.72640 0.21120 0.21600 -0.24600
C 	C 	0.75830 0.13250 0.20510 0.09000
H 	H 	0.72650 0.08330 0.21890 -0.00700
N 	N 	0.84340 0.13620 0.17090 -0.09400
N 	N 	0.86420 0.21730 0.16070 -0.08100
C 	C 	0.79190 0.26360 0.18860 0.08600
H 	H 	0.78780 0.32250 0.18880 -0.01100
C 	C 	0.73000 0.41030 0.30490 0.09700
H 	H 	0.66670 0.43860 0.28310 -0.01900
C 	C 	0.83700 0.31430 0.34640 0.08500
H 	H 	0.86580 0.26190 0.36040 -0.01500
C 	C 	0.00730 0.40550 0.39300 -0.13500
H 	H 	0.04730 0.35220 0.40390 0.07200
H 	H 	0.05560 0.43640 0.36850 0.08500
C 	C 	0.00090 0.45510 0.44750 0.07400
C 	C 	0.92190 0.43400 0.48710 -0.06400
H 	H 	0.86880 0.38930 0.47860 0.05600
C 	C 	0.07750 0.52140 0.46200 -0.08200
H 	H 	0.13070 0.53630 0.43630 0.06500
C 	C 	0.40470 0.31210 0.32080 0.08600
H 	H 	0.36760 0.32410 0.28290 -0.01400
C 	C 	0.52790 0.26770 0.39050 0.09000
H 	H 	0.59350 0.24280 0.41290 -0.01600
C 	C 	0.43330 0.32470 0.47400 -0.12400
H 	H 	0.35240 0.31540 0.48190 0.07200
H 	H 	0.48540 0.28720 0.49940 0.06300
C 	C 	0.46830 0.41600 0.48800 0.07100
C 	C 	0.57430 0.44680 0.47670 -0.06700
H 	H 	0.62680 0.41140 0.46050 0.05900
C 	C 	0.39470 0.46930 0.51100 -0.07700
H 	H 	0.32120 0.44960 0.51880 0.06300
C 	C 	0.25950 0.00820 0.23870 -0.13500
H 	H 	0.20190 0.03170 0.26180 0.07100
H 	H 	0.21670 0.98610 0.20230 0.08200
C 	C 	0.32860 0.93660 0.27310 0.06700
C 	C 	0.35970 0.94470 0.33350 -0.07800
H 	H 	0.33330 0.99140 0.35290 0.05300
C 	C 	0.42900 0.88460 0.36490 -0.07100
H 	H 	0.45100 0.89150 0.40520 0.04700
C 	C 	0.46670 0.81370 0.33710 0.05500
C 	C 	0.43090 0.80410 0.27680 -0.06000
H 	H 	0.45210 0.75560 0.25770 0.05900
C 	C 	0.36400 0.86640 0.24540 -0.08000
H 	H 	0.34290 0.86050 0.20490 0.06400
C 	C 	0.95700 0.24680 0.12860 -0.12300
H 	H 	0.00670 0.19930 0.12060 0.07700
H 	H 	0.92140 0.27040 0.09110 0.06500
Cu	Cu	0.88700 0.74339 0.22854 0.85300
N 	N 	0.76610 0.82640 0.18880 -0.24300
N 	N 	0.67620 0.94940 0.16760 -0.09600
N 	N 	0.60820 0.88700 0.14180 -0.08100
N 	N 	0.98970 0.77030 0.16830 -0.24700
N 	N 	0.14050 0.83400 0.13180 -0.10000
N 	N 	0.05890 0.80480 0.08740 -0.08500
N 	N 	0.01750 0.66620 0.26880 -0.24300
C 	C 	0.06450 0.65990 0.32440 0.10400
H 	H 	0.04070 0.68990 0.35580 -0.01600
N 	N 	0.15080 0.60370 0.32800 -0.10000
N 	N 	0.15730 0.57520 0.27460 -0.07900
C 	C 	0.07490 0.61380 0.23800 0.09000
H 	H 	0.05980 0.60560 0.19740 -0.01400
N 	N 	0.77360 0.71120 0.28400 -0.24600
C 	C 	0.74170 0.63250 0.29490 0.09000
H 	H 	0.77350 0.58330 0.28110 -0.00700
N 	N 	0.65660 0.63620 0.32910 -0.09500
N 	N 	0.63580 0.71730 0.33930 -0.08100
C 	C 	0.70810 0.76360 0.31140 0.08600
H 	H 	0.71220 0.82250 0.31120 -0.01100
C 	C 	0.77000 0.91030 0.19510 0.09700
H 	H 	0.83330 0.93860 0.21690 -0.01900
C 	C 	0.66300 0.81430 0.15360 0.08500
H 	H 	0.63420 0.76190 0.13960 -0.01500
C 	C 	0.49270 0.90550 0.10700 -0.13400
H 	H 	0.45270 0.85220 0.09610 0.07200
H 	H 	0.44440 0.93640 0.13150 0.08500
C 	C 	0.49910 0.95510 0.05250 0.07300
C 	C 	0.57810 0.93400 0.01290 -0.06500
H 	H 	0.63120 0.88930 0.02140 0.05600
C 	C 	0.42250 0.02140 0.03800 -0.08100
H 	H 	0.36930 0.03630 0.06370 0.06500
C 	C 	0.09530 0.81210 0.17920 0.08700
H 	H 	0.13240 0.82410 0.21710 -0.01400
C 	C 	0.97210 0.76770 0.10950 0.09000
H 	H 	0.90650 0.74280 0.08710 -0.01600
C 	C 	0.06670 0.82470 0.02600 -0.12400
H 	H 	0.14760 0.81540 0.01810 0.07200
H 	H 	0.01460 0.78720 0.00060 0.06400
C 	C 	0.03170 0.91600 0.01200 0.07100
C 	C 	0.92570 0.94680 0.02330 -0.06900
H 	H 	0.87320 0.91140 0.03950 0.06000
C 	C 	0.10530 0.96930 0.98900 -0.07400
H 	H 	0.17880 0.94960 0.98120 0.06300
C 	C 	0.24050 0.50820 0.26130 -0.13500
H 	H 	0.29810 0.53170 0.23820 0.07100
H 	H 	0.28330 0.48610 0.29770 0.08200
C 	C 	0.17140 0.43660 0.22690 0.06700
C 	C 	0.14030 0.44470 0.16650 -0.07900
H 	H 	0.16670 0.49140 0.14710 0.05300
C 	C 	0.07100 0.38460 0.13510 -0.07000
H 	H 	0.04900 0.39150 0.09480 0.04700
C 	C 	0.03330 0.31370 0.16290 0.05400
C 	C 	0.06910 0.30410 0.22320 -0.06000
H 	H 	0.04790 0.25560 0.24230 0.05900
C 	C 	0.13600 0.36640 0.25460 -0.08100
H 	H 	0.15710 0.36050 0.29510 0.06400
C 	C 	0.54300 0.74680 0.37140 -0.12400
H 	H 	0.49330 0.69930 0.37940 0.07700
H 	H 	0.57860 0.77040 0.40890 0.06500
