data_crystal

_cell_length_a 7.99850
_cell_length_b 9.72960
_cell_length_c 10.85060
_cell_angle_alpha 84.31500
_cell_angle_beta  78.16800
_cell_angle_gamma 75.06400

_symmetry_space_group_name_	'P 1'
_symmetry_space_group_name_H-M	'P 1'

loop_
_symmetry_equiv_pos_as_xyz
  x,y,z

loop_
_atom_site_label
_atom_site_type_symbol
_atom_site_fract_x
_atom_site_fract_y
_atom_site_fract_z
_atom_site_charge
Cu	Cu	0.41470 0.68700 0.82400 0.91400
Cu	Cu	0.16130 0.54610 0.87490 0.90000
Cu	Cu	0.80400 0.12820 0.34540 0.85700
O 	O 	0.42170 0.67100 0.64360 -0.34700
O 	O 	0.20450 0.55150 0.69010 -0.36400
O 	O 	0.55550 0.36080 0.54960 -0.26700
O 	O 	0.64560 0.30730 0.34600 -0.41400
O 	O 	0.15140 0.56400 0.05590 -0.32300
O 	O 	0.37270 0.67500 0.00930 -0.30700
O 	O 	0.97030 0.95160 0.34230 -0.31400
O 	O 	0.02490 0.88030 0.14650 -0.19900
O 	O 	0.75640 0.85920 0.65260 -0.21300
O 	O 	0.57260 0.82980 0.83310 -0.31800
O 	O 	0.99030 0.73090 0.86820 -0.30900
O 	O 	0.20640 0.84970 0.82570 -0.33900
O 	O 	0.37950 0.38800 0.87580 -0.41500
O 	O 	0.59260 0.50140 0.82180 -0.35700
O 	O 	0.00750 0.40290 0.86850 -0.34800
O 	O 	0.81070 0.39430 0.04390 -0.14500
C 	C 	0.41110 0.50320 0.39330 -0.05800
C 	C 	0.37470 0.50900 0.26750 0.02600
H 	H 	0.42800 0.42810 0.21840 0.05700
C 	C 	0.26710 0.62450 0.21360 -0.06300
C 	C 	0.16280 0.73020 0.30440 -0.00300
C 	C 	0.18170 0.71840 0.42710 -0.03400
H 	H 	0.10660 0.78630 0.48400 0.07000
C 	C 	0.30780 0.60970 0.47050 -0.00000
C 	C 	0.31700 0.60930 0.61390 0.30900
C 	C 	0.54500 0.37940 0.43720 0.33200
C 	C 	0.26000 0.62760 0.08510 0.34700
C 	C 	0.04170 0.86010 0.26000 0.25800
C 	C 	0.83580 0.23830 0.88980 -0.02400
C 	C 	0.95170 0.10590 0.87970 -0.08600
H 	H 	0.06770 0.09560 0.89370 0.02500
C 	C 	0.90480 0.98620 0.84960 0.09700
C 	C 	0.74790 0.99880 0.82030 0.01000
C 	C 	0.62700 0.13530 0.81930 -0.09500
H 	H 	0.51890 0.14420 0.79210 0.06600
C 	C 	0.66160 0.25250 0.85590 -0.06100
C 	C 	0.68960 0.88070 0.76630 0.33100
C 	C 	0.04280 0.83920 0.84990 0.20100
C 	C 	0.53660 0.38800 0.85350 0.34300
C 	C 	0.88540 0.35610 0.93800 0.26000
