data_crystal

_cell_length_a 22.88230
_cell_length_b 18.44740
_cell_length_c 9.68230
_cell_angle_alpha 90.00000
_cell_angle_beta  95.47700
_cell_angle_gamma 90.00000

_symmetry_space_group_name_	'P 1'
_symmetry_space_group_name_H-M	'P 1'

loop_
_symmetry_equiv_pos_as_xyz
  x,y,z

loop_
_atom_site_label
_atom_site_type_symbol
_atom_site_fract_x
_atom_site_fract_y
_atom_site_fract_z
_atom_site_charge
Zn	Zn	0.08458 0.03345 0.01854 1.21900
O 	O 	0.04195 0.04290 0.18154 -0.46600
O 	O 	0.96696 0.94331 0.14327 -0.44600
O 	O 	0.13510 0.11851 0.05198 -0.43800
O 	O 	0.18616 0.07622 0.88610 -0.31000
O 	O 	0.27764 0.06813 0.13000 -0.24800
O 	O 	0.35022 0.09485 0.00140 -0.23600
C 	C 	0.19009 0.25528 0.97040 0.00100
C 	C 	0.21521 0.18758 0.99270 -0.05400
C 	C 	0.27596 0.18255 0.02450 -0.04600
C 	C 	0.17675 0.12100 0.97430 0.33300
C 	C 	0.30501 0.11027 0.05040 0.29200
C 	C 	0.14990 0.91346 0.89970 0.08000
C 	C 	0.16711 0.84381 0.87860 -0.11200
C 	C 	0.15465 0.78921 0.96960 0.04700
C 	C 	0.12601 0.80993 0.08300 -0.10800
C 	C 	0.10988 0.88137 0.09860 0.06700
C 	C 	0.17034 0.71250 0.94780 0.06800
C 	C 	0.20560 0.69134 0.84780 -0.13000
C 	C 	0.21811 0.61923 0.82750 0.11300
C 	C 	0.16500 0.58700 0.00110 0.11400
C 	C 	0.15040 0.65789 0.02710 -0.13100
N 	N 	0.12038 0.93288 0.00750 -0.26300
N 	N 	0.19759 0.56777 0.90270 -0.21500
H 	H 	0.14530 0.25820 0.94690 0.04600
H 	H 	0.15970 0.95000 0.83560 0.00100
H 	H 	0.18800 0.83260 0.79990 0.08700
H 	H 	0.11720 0.77440 0.15010 0.06800
H 	H 	0.09000 0.89490 0.17920 0.00300
H 	H 	0.22230 0.72790 0.79060 0.08200
H 	H 	0.24270 0.60620 0.75490 0.02600
H 	H 	0.15180 0.54860 0.06160 0.02400
H 	H 	0.12770 0.66960 0.10480 0.07800
H 	H 	0.20570 0.51990 0.88780 0.16800
Zn	Zn	0.58458 0.53345 0.01854 1.22200
O 	O 	0.54195 0.54290 0.18154 -0.46100
O 	O 	0.46696 0.44331 0.14327 -0.47100
O 	O 	0.63510 0.61851 0.05198 -0.43200
O 	O 	0.68616 0.57622 0.88610 -0.31100
O 	O 	0.77764 0.56813 0.13000 -0.24600
O 	O 	0.85022 0.59485 0.00140 -0.23000
C 	C 	0.69009 0.75528 0.97040 0.00200
C 	C 	0.71521 0.68758 0.99270 -0.05700
C 	C 	0.77596 0.68255 0.02450 -0.04100
C 	C 	0.67675 0.62100 0.97430 0.33000
C 	C 	0.80501 0.61027 0.05040 0.29000
C 	C 	0.64990 0.41346 0.89970 0.08300
C 	C 	0.66711 0.34381 0.87860 -0.11300
C 	C 	0.65465 0.28921 0.96960 0.05000
C 	C 	0.62601 0.30993 0.08300 -0.10900
C 	C 	0.60988 0.38137 0.09860 0.07100
C 	C 	0.67034 0.21250 0.94780 0.07000
C 	C 	0.70560 0.19134 0.84780 -0.13000
C 	C 	0.71811 0.11923 0.82750 0.11400
C 	C 	0.66500 0.08700 0.00110 0.11600
C 	C 	0.65040 0.15789 0.02710 -0.13000
N 	N 	0.62038 0.43288 0.00750 -0.26300
N 	N 	0.69759 0.06777 0.90270 -0.21500
H 	H 	0.64530 0.75820 0.94690 0.04700
H 	H 	0.65970 0.45000 0.83560 0.00100
H 	H 	0.68800 0.33260 0.79990 0.08800
H 	H 	0.61720 0.27440 0.15010 0.07100
H 	H 	0.59000 0.39490 0.17920 0.00500
H 	H 	0.72230 0.22790 0.79060 0.08200
H 	H 	0.74270 0.10620 0.75490 0.02600
H 	H 	0.65180 0.04860 0.06160 0.02600
H 	H 	0.62770 0.16960 0.10480 0.08100
H 	H 	0.70570 0.01990 0.88780 0.16900
Zn	Zn	0.91542 0.03345 0.48146 1.22300
O 	O 	0.95805 0.04290 0.31846 -0.43800
O 	O 	0.03304 0.94331 0.35673 -0.47500
O 	O 	0.86490 0.11851 0.44802 -0.43100
O 	O 	0.81384 0.07622 0.61390 -0.31000
O 	O 	0.72236 0.06813 0.37000 -0.24700
O 	O 	0.64978 0.09485 0.49860 -0.23600
C 	C 	0.80991 0.25528 0.52960 -0.00100
C 	C 	0.78479 0.18758 0.50730 -0.05300
C 	C 	0.72404 0.18255 0.47550 -0.04500
C 	C 	0.82325 0.12100 0.52570 0.33000
C 	C 	0.69499 0.11027 0.44960 0.29200
C 	C 	0.85010 0.91346 0.60030 0.08400
C 	C 	0.83289 0.84381 0.62140 -0.11300
C 	C 	0.84535 0.78921 0.53040 0.05200
C 	C 	0.87399 0.80993 0.41700 -0.10800
C 	C 	0.89012 0.88137 0.40140 0.07400
C 	C 	0.82966 0.71250 0.55220 0.07100
C 	C 	0.79440 0.69134 0.65220 -0.12900
C 	C 	0.78189 0.61923 0.67250 0.11500
C 	C 	0.83500 0.58700 0.49890 0.11800
C 	C 	0.84960 0.65789 0.47290 -0.12900
N 	N 	0.87962 0.93288 0.49250 -0.26200
N 	N 	0.80241 0.56777 0.59730 -0.21500
H 	H 	0.85470 0.25820 0.55310 0.05100
H 	H 	0.84030 0.95000 0.66440 0.00000
H 	H 	0.81200 0.83260 0.70010 0.08800
H 	H 	0.88280 0.77440 0.34990 0.07400
H 	H 	0.91000 0.89490 0.32080 0.00800
H 	H 	0.77770 0.72790 0.70940 0.08200
H 	H 	0.75730 0.60620 0.74510 0.02600
H 	H 	0.84820 0.54860 0.43840 0.02800
H 	H 	0.87230 0.66960 0.39520 0.08300
H 	H 	0.79430 0.51990 0.61220 0.16900
Zn	Zn	0.41542 0.53345 0.48146 1.22200
O 	O 	0.45805 0.54290 0.31846 -0.46100
O 	O 	0.53304 0.44331 0.35673 -0.47100
O 	O 	0.36490 0.61851 0.44802 -0.43300
O 	O 	0.31384 0.57622 0.61390 -0.31000
O 	O 	0.22236 0.56813 0.37000 -0.24800
O 	O 	0.14978 0.59485 0.49860 -0.24000
C 	C 	0.30991 0.75528 0.52960 -0.00000
C 	C 	0.28479 0.68758 0.50730 -0.05400
C 	C 	0.22404 0.68255 0.47550 -0.04600
C 	C 	0.32325 0.62100 0.52570 0.33000
C 	C 	0.19499 0.61027 0.44960 0.29200
C 	C 	0.35010 0.41346 0.60030 0.08300
C 	C 	0.33289 0.34381 0.62140 -0.11300
C 	C 	0.34535 0.28921 0.53040 0.05000
C 	C 	0.37399 0.30993 0.41700 -0.10900
C 	C 	0.39012 0.38137 0.40140 0.07100
C 	C 	0.32966 0.21250 0.55220 0.07000
C 	C 	0.29440 0.19134 0.65220 -0.12900
C 	C 	0.28189 0.11923 0.67250 0.11400
C 	C 	0.33500 0.08700 0.49890 0.11700
C 	C 	0.34960 0.15789 0.47290 -0.13000
N 	N 	0.37962 0.43288 0.49250 -0.26300
N 	N 	0.30241 0.06777 0.59730 -0.21500
H 	H 	0.35470 0.75820 0.55310 0.04800
H 	H 	0.34030 0.45000 0.66440 0.00100
H 	H 	0.31200 0.33260 0.70010 0.08800
H 	H 	0.38280 0.27440 0.34990 0.07100
H 	H 	0.41000 0.39490 0.32080 0.00500
H 	H 	0.27770 0.22790 0.70940 0.08200
H 	H 	0.25730 0.10620 0.74510 0.02700
H 	H 	0.34820 0.04860 0.43840 0.02600
H 	H 	0.37230 0.16960 0.39520 0.08100
H 	H 	0.29430 0.01990 0.61220 0.16900
Zn	Zn	0.91542 0.96655 0.98146 1.22200
O 	O 	0.95805 0.95710 0.81846 -0.43900
O 	O 	0.03304 0.05669 0.85673 -0.47500
O 	O 	0.86490 0.88149 0.94802 -0.43300
O 	O 	0.81384 0.92378 0.11390 -0.31000
O 	O 	0.72236 0.93187 0.87000 -0.24800
O 	O 	0.64978 0.90515 0.99860 -0.23600
C 	C 	0.80991 0.74472 0.02960 -0.00200
C 	C 	0.78479 0.81242 0.00730 -0.05100
C 	C 	0.72404 0.81745 0.97550 -0.04800
C 	C 	0.82325 0.87900 0.02570 0.33200
C 	C 	0.69499 0.88973 0.94960 0.29200
C 	C 	0.85010 0.08654 0.10030 0.08400
C 	C 	0.83289 0.15619 0.12140 -0.11200
C 	C 	0.84535 0.21079 0.03040 0.05100
C 	C 	0.87399 0.19007 0.91700 -0.10800
C 	C 	0.89012 0.11863 0.90140 0.07400
C 	C 	0.82966 0.28750 0.05220 0.07100
C 	C 	0.79440 0.30866 0.15220 -0.12900
C 	C 	0.78189 0.38077 0.17250 0.11500
C 	C 	0.83500 0.41300 0.99890 0.11800
C 	C 	0.84960 0.34211 0.97290 -0.12900
N 	N 	0.87962 0.06712 0.99250 -0.26100
N 	N 	0.80241 0.43223 0.09730 -0.21500
H 	H 	0.85470 0.74180 0.05310 0.05200
H 	H 	0.84030 0.05000 0.16440 0.00000
H 	H 	0.81200 0.16740 0.20010 0.08800
H 	H 	0.88280 0.22560 0.84990 0.07400
H 	H 	0.91000 0.10510 0.82080 0.00800
H 	H 	0.77770 0.27210 0.20940 0.08200
H 	H 	0.75730 0.39380 0.24510 0.02600
H 	H 	0.84820 0.45140 0.93840 0.02800
H 	H 	0.87230 0.33040 0.89520 0.08300
H 	H 	0.79430 0.48010 0.11220 0.16900
Zn	Zn	0.41542 0.46655 0.98146 1.22200
O 	O 	0.45805 0.45710 0.81846 -0.46100
O 	O 	0.53304 0.55669 0.85673 -0.47100
O 	O 	0.36490 0.38149 0.94802 -0.43200
O 	O 	0.31384 0.42378 0.11390 -0.31000
O 	O 	0.22236 0.43187 0.87000 -0.24800
O 	O 	0.14978 0.40515 0.99860 -0.24000
C 	C 	0.30991 0.24472 0.02960 0.00100
C 	C 	0.28479 0.31242 0.00730 -0.05500
C 	C 	0.22404 0.31745 0.97550 -0.04400
C 	C 	0.32325 0.37900 0.02570 0.33000
C 	C 	0.19499 0.38973 0.94960 0.29200
C 	C 	0.35010 0.58654 0.10030 0.08300
C 	C 	0.33289 0.65619 0.12140 -0.11300
C 	C 	0.34535 0.71079 0.03040 0.05100
C 	C 	0.37399 0.69007 0.91700 -0.11000
C 	C 	0.39012 0.61863 0.90140 0.07200
C 	C 	0.32966 0.78750 0.05220 0.07100
C 	C 	0.29440 0.80866 0.15220 -0.13000
C 	C 	0.28189 0.88077 0.17250 0.11500
C 	C 	0.33500 0.91300 0.99890 0.11600
C 	C 	0.34960 0.84211 0.97290 -0.13100
N 	N 	0.37962 0.56712 0.99250 -0.26300
N 	N 	0.30241 0.93223 0.09730 -0.21500
H 	H 	0.35470 0.24180 0.05310 0.04800
H 	H 	0.34030 0.55000 0.16440 0.00000
H 	H 	0.31200 0.66740 0.20010 0.08800
H 	H 	0.38280 0.72560 0.84990 0.07200
H 	H 	0.41000 0.60510 0.82080 0.00500
H 	H 	0.27770 0.77210 0.20940 0.08200
H 	H 	0.25730 0.89380 0.24510 0.02600
H 	H 	0.34820 0.95140 0.93840 0.02600
H 	H 	0.37230 0.83040 0.89520 0.08100
H 	H 	0.29430 0.98010 0.11220 0.16900
Zn	Zn	0.08458 0.96655 0.51854 1.22100
O 	O 	0.04195 0.95710 0.68154 -0.46500
O 	O 	0.96696 0.05669 0.64327 -0.44600
O 	O 	0.13510 0.88149 0.55198 -0.43600
O 	O 	0.18616 0.92378 0.38610 -0.31000
O 	O 	0.27764 0.93187 0.63000 -0.24700
O 	O 	0.35022 0.90515 0.50140 -0.23500
C 	C 	0.19009 0.74472 0.47040 0.00100
C 	C 	0.21521 0.81242 0.49270 -0.05600
C 	C 	0.27596 0.81745 0.52450 -0.04400
C 	C 	0.17675 0.87900 0.47430 0.33100
C 	C 	0.30501 0.88973 0.55040 0.29100
C 	C 	0.14990 0.08654 0.39970 0.08100
C 	C 	0.16711 0.15619 0.37860 -0.11300
C 	C 	0.15465 0.21079 0.46960 0.04800
C 	C 	0.12601 0.19007 0.58300 -0.11000
C 	C 	0.10988 0.11863 0.59860 0.06800
C 	C 	0.17034 0.28750 0.44780 0.06800
C 	C 	0.20560 0.30866 0.34780 -0.13000
C 	C 	0.21811 0.38077 0.32750 0.11300
C 	C 	0.16500 0.41300 0.50110 0.11400
C 	C 	0.15040 0.34211 0.52710 -0.13100
N 	N 	0.12038 0.06712 0.50750 -0.26400
N 	N 	0.19759 0.43223 0.40270 -0.21500
H 	H 	0.14530 0.74180 0.44690 0.04500
H 	H 	0.15970 0.05000 0.33560 0.00100
H 	H 	0.18800 0.16740 0.29990 0.08700
H 	H 	0.11720 0.22560 0.65010 0.06900
H 	H 	0.09000 0.10510 0.67920 0.00300
H 	H 	0.22230 0.27210 0.29060 0.08200
H 	H 	0.24270 0.39380 0.25490 0.02600
H 	H 	0.15180 0.45140 0.56160 0.02400
H 	H 	0.12770 0.33040 0.60480 0.07800
H 	H 	0.20570 0.48010 0.38780 0.16800
Zn	Zn	0.58458 0.46655 0.51854 1.22200
O 	O 	0.54195 0.45710 0.68154 -0.46100
O 	O 	0.46696 0.55669 0.64327 -0.47100
O 	O 	0.63510 0.38149 0.55198 -0.43300
O 	O 	0.68616 0.42378 0.38610 -0.31100
O 	O 	0.77764 0.43187 0.63000 -0.24600
O 	O 	0.85022 0.40515 0.50140 -0.23100
C 	C 	0.69009 0.24472 0.47040 0.00100
C 	C 	0.71521 0.31242 0.49270 -0.05500
C 	C 	0.77596 0.31745 0.52450 -0.04300
C 	C 	0.67675 0.37900 0.47430 0.33100
C 	C 	0.80501 0.38973 0.55040 0.29000
C 	C 	0.64990 0.58654 0.39970 0.08300
C 	C 	0.66711 0.65619 0.37860 -0.11300
C 	C 	0.65465 0.71079 0.46960 0.05000
C 	C 	0.62601 0.69007 0.58300 -0.10900
C 	C 	0.60988 0.61863 0.59860 0.07100
C 	C 	0.67034 0.78750 0.44780 0.06900
C 	C 	0.70560 0.80866 0.34780 -0.12900
C 	C 	0.71811 0.88077 0.32750 0.11400
C 	C 	0.66500 0.91300 0.50110 0.11600
C 	C 	0.65040 0.84211 0.52710 -0.13000
N 	N 	0.62038 0.56712 0.50750 -0.26300
N 	N 	0.69759 0.93223 0.40270 -0.21500
H 	H 	0.64530 0.24180 0.44690 0.04800
H 	H 	0.65970 0.55000 0.33560 0.00100
H 	H 	0.68800 0.66740 0.29990 0.08800
H 	H 	0.61720 0.72560 0.65010 0.07100
H 	H 	0.59000 0.60510 0.67920 0.00500
H 	H 	0.72230 0.77210 0.29060 0.08200
H 	H 	0.74270 0.89380 0.25490 0.02600
H 	H 	0.65180 0.95140 0.56160 0.02600
H 	H 	0.62770 0.83040 0.60480 0.08100
H 	H 	0.70570 0.98010 0.38780 0.16900
P 	P 	0.00000 0.99243 0.25000 0.50400
P 	P 	0.50000 0.49243 0.25000 0.54500
P 	P 	0.00000 0.00757 0.75000 0.50500
P 	P 	0.50000 0.50757 0.75000 0.54500
