data_crystal

_cell_length_a 9.00500
_cell_length_b 12.57300
_cell_length_c 19.67500
_cell_angle_alpha 82.31300
_cell_angle_beta  79.25900
_cell_angle_gamma 86.74900

_symmetry_space_group_name_	'P 1'
_symmetry_space_group_name_H-M	'P 1'

loop_
_symmetry_equiv_pos_as_xyz
  x,y,z

loop_
_atom_site_label
_atom_site_type_symbol
_atom_site_fract_x
_atom_site_fract_y
_atom_site_fract_z
_atom_site_charge
C 	C 	0.85120 0.77360 0.89960 0.33600
C 	C 	0.86340 0.85370 0.83560 -0.13700
C 	C 	0.95870 0.83570 0.77370 0.07300
H 	H 	0.02570 0.77660 0.77300 0.01700
C 	C 	0.95440 0.90410 0.71420 -0.15600
H 	H 	0.01670 0.88930 0.67300 0.09300
C 	C 	0.86020 0.99480 0.71330 0.09900
C 	C 	0.76620 0.01340 0.77470 -0.15600
H 	H 	0.70010 0.07300 0.77530 0.09000
C 	C 	0.76900 0.94470 0.83510 0.06900
H 	H 	0.70660 0.95960 0.87620 0.01800
C 	C 	0.85080 0.06450 0.64800 -0.03400
C 	C 	0.85040 0.17230 0.63800 -0.02900
C 	C 	0.97140 0.46240 0.82120 0.40000
C 	C 	0.98590 0.21960 0.72860 -0.14100
H 	H 	0.03880 0.15390 0.72770 0.08800
C 	C 	0.01260 0.28930 0.77300 0.06500
H 	H 	0.08170 0.27040 0.80260 0.02600
C 	C 	0.93510 0.38820 0.77300 -0.13800
C 	C 	0.83390 0.41560 0.72970 0.07700
H 	H 	0.78380 0.48240 0.72970 0.03100
C 	C 	0.80490 0.34660 0.68640 -0.15100
H 	H 	0.73430 0.36600 0.65760 0.09300
C 	C 	0.88100 0.24640 0.68520 0.09100
C 	C 	0.78100 0.11430 0.52580 -0.00700
C 	C 	0.73600 0.11150 0.46650 -0.00800
C 	C 	0.65130 0.05650 0.35640 -0.03700
C 	C 	0.63170 0.98170 0.30780 0.11500
C 	C 	0.56600 0.88390 0.33400 -0.17700
H 	H 	0.52990 0.86880 0.38160 0.10000
C 	C 	0.55350 0.80900 0.29060 0.10900
H 	H 	0.50670 0.74460 0.30860 0.01000
C 	C 	0.61080 0.83000 0.22000 -0.19100
C 	C 	0.67620 0.92680 0.19440 0.11000
H 	H 	0.71420 0.94150 0.14700 -0.00100
C 	C 	0.68660 0.00180 0.23760 -0.18400
H 	H 	0.73110 0.06680 0.21920 0.10100
C 	C 	0.64310 0.16480 0.34710 -0.03600
C 	C 	0.60290 0.23610 0.28800 0.11200
C 	C 	0.47920 0.21640 0.25870 -0.17300
H 	H 	0.42220 0.15630 0.27660 0.10100
C 	C 	0.44030 0.28490 0.20340 0.11100
H 	H 	0.35890 0.26960 0.18380 0.00600
C 	C 	0.52100 0.37550 0.17700 -0.18300
C 	C 	0.64120 0.39700 0.20710 0.10300
H 	H 	0.69530 0.45890 0.19040 0.02800
C 	C 	0.68230 0.32710 0.26200 -0.16700
H 	H 	0.76430 0.34220 0.28120 0.10200
C 	C 	0.48080 0.44870 0.11730 0.43500
C 	C 	0.60160 0.74980 0.17220 0.43600
C 	C 	0.26950 0.71440 0.02640 0.14000
H 	H 	0.26470 0.64000 0.03370 -0.02900
C 	C 	0.13640 0.77340 0.02940 -0.22400
H 	H 	0.04410 0.73990 0.03850 0.12300
C 	C 	0.14290 0.88490 0.01830 0.17800
C 	C 	0.28260 0.92730 0.00290 -0.22500
H 	H 	0.29160 0.00140 0.99290 0.11800
C 	C 	0.41090 0.86190 0.00190 0.12800
H 	H 	0.50500 0.89320 0.99240 -0.01800
C 	C 	0.99860 0.95450 0.02660 -0.18200
H 	H 	0.91400 0.91080 0.02540 0.09400
H 	H 	0.98230 0.98000 0.07180 0.08900
Cd	Cd	0.62347 0.65929 0.01739 1.23000
N 	N 	0.40450 0.75670 0.01390 -0.25600
O 	O 	0.93800 0.68960 0.89720 -0.30400
O 	O 	0.76000 0.79380 0.95270 -0.40600
O 	O 	0.91330 0.55990 0.80790 -0.46600
H 	H 	0.93670 0.59850 0.83640 0.29100
O 	O 	0.04500 0.43560 0.86530 -0.31100
O 	O 	0.54520 0.65940 0.20350 -0.49700
H 	H 	0.46130 0.65360 0.19410 0.28500
O 	O 	0.64890 0.76560 0.10970 -0.40800
O 	O 	0.41130 0.41610 0.07660 -0.46000
O 	O 	0.52310 0.54490 0.11010 -0.43200
S 	S 	0.69720 0.22899 0.41216 0.00100
S 	S 	0.70810 0.99426 0.43336 -0.00100
S 	S 	0.82100 0.99833 0.57984 0.00200
S 	S 	0.81600 0.23345 0.55584 -0.00100
C 	C 	0.14880 0.22640 0.10040 0.33700
C 	C 	0.13660 0.14630 0.16440 -0.13600
C 	C 	0.04130 0.16430 0.22630 0.07400
H 	H 	0.97430 0.22340 0.22700 0.01800
C 	C 	0.04560 0.09590 0.28580 -0.15600
H 	H 	0.98330 0.11070 0.32700 0.09300
C 	C 	0.13980 0.00520 0.28670 0.09900
C 	C 	0.23380 0.98660 0.22530 -0.15600
H 	H 	0.29990 0.92700 0.22470 0.09000
C 	C 	0.23100 0.05530 0.16490 0.06900
H 	H 	0.29340 0.04040 0.12380 0.01800
C 	C 	0.14920 0.93550 0.35200 -0.03400
C 	C 	0.14960 0.82770 0.36200 -0.02900
C 	C 	0.02860 0.53760 0.17880 0.40000
C 	C 	0.01410 0.78040 0.27140 -0.14100
H 	H 	0.96120 0.84610 0.27230 0.08800
C 	C 	0.98740 0.71070 0.22700 0.06500
H 	H 	0.91830 0.72960 0.19740 0.02600
C 	C 	0.06490 0.61180 0.22700 -0.13800
C 	C 	0.16610 0.58440 0.27030 0.07700
H 	H 	0.21620 0.51760 0.27030 0.03100
C 	C 	0.19510 0.65340 0.31360 -0.15100
H 	H 	0.26570 0.63400 0.34240 0.09300
C 	C 	0.11900 0.75360 0.31480 0.09100
C 	C 	0.21900 0.88570 0.47420 -0.00700
C 	C 	0.26400 0.88850 0.53350 -0.00800
C 	C 	0.34870 0.94350 0.64360 -0.03700
C 	C 	0.36830 0.01830 0.69220 0.11500
C 	C 	0.43400 0.11610 0.66600 -0.17700
H 	H 	0.47010 0.13120 0.61840 0.10000
C 	C 	0.44650 0.19100 0.70940 0.10900
H 	H 	0.49330 0.25540 0.69140 0.01000
C 	C 	0.38920 0.17000 0.78000 -0.19100
C 	C 	0.32380 0.07320 0.80560 0.11000
H 	H 	0.28580 0.05850 0.85300 -0.00100
C 	C 	0.31340 0.99820 0.76240 -0.18400
H 	H 	0.26890 0.93320 0.78080 0.10100
C 	C 	0.35690 0.83520 0.65290 -0.03600
C 	C 	0.39710 0.76390 0.71200 0.11200
C 	C 	0.52080 0.78360 0.74130 -0.17300
H 	H 	0.57780 0.84370 0.72340 0.10100
C 	C 	0.55970 0.71510 0.79660 0.11100
H 	H 	0.64110 0.73040 0.81620 0.00600
C 	C 	0.47900 0.62450 0.82300 -0.18300
C 	C 	0.35880 0.60300 0.79290 0.10300
H 	H 	0.30470 0.54110 0.80960 0.02800
C 	C 	0.31770 0.67290 0.73800 -0.16700
H 	H 	0.23570 0.65780 0.71880 0.10200
C 	C 	0.51920 0.55130 0.88270 0.43500
C 	C 	0.39840 0.25020 0.82780 0.43600
C 	C 	0.73050 0.28560 0.97360 0.14000
H 	H 	0.73530 0.36000 0.96630 -0.02900
C 	C 	0.86360 0.22660 0.97060 -0.22400
H 	H 	0.95590 0.26010 0.96150 0.12300
C 	C 	0.85710 0.11510 0.98170 0.17800
C 	C 	0.71740 0.07270 0.99710 -0.22500
H 	H 	0.70840 0.99860 0.00710 0.11800
C 	C 	0.58910 0.13810 0.99810 0.12800
H 	H 	0.49500 0.10680 0.00760 -0.01800
C 	C 	0.00140 0.04550 0.97340 -0.18200
H 	H 	0.08600 0.08920 0.97460 0.09400
H 	H 	0.01770 0.02000 0.92820 0.08900
Cd	Cd	0.37653 0.34071 0.98261 1.23000
N 	N 	0.59550 0.24330 0.98610 -0.25600
O 	O 	0.06200 0.31040 0.10280 -0.30400
O 	O 	0.24000 0.20620 0.04730 -0.40600
O 	O 	0.08670 0.44010 0.19210 -0.46600
H 	H 	0.06330 0.40150 0.16360 0.29100
O 	O 	0.95500 0.56440 0.13470 -0.31100
O 	O 	0.45480 0.34060 0.79650 -0.49700
H 	H 	0.53870 0.34640 0.80590 0.28500
O 	O 	0.35110 0.23440 0.89030 -0.40800
O 	O 	0.58870 0.58390 0.92340 -0.46000
O 	O 	0.47690 0.45510 0.88990 -0.43200
S 	S 	0.30280 0.77101 0.58784 0.00100
S 	S 	0.29190 0.00574 0.56664 -0.00100
S 	S 	0.17900 0.00167 0.42016 0.00200
S 	S 	0.18400 0.76655 0.44416 -0.00100
