data_crystal

_cell_length_a 10.44890
_cell_length_b 21.55520
_cell_length_c 38.34400
_cell_angle_alpha 90.00000
_cell_angle_beta  90.00000
_cell_angle_gamma 90.00000

_symmetry_space_group_name_	'P 1'
_symmetry_space_group_name_H-M	'P 1'

loop_
_symmetry_equiv_pos_as_xyz
  x,y,z

loop_
_atom_site_label
_atom_site_type_symbol
_atom_site_fract_x
_atom_site_fract_y
_atom_site_fract_z
_atom_site_charge
C 	C 	0.01690 0.62590 0.91030 -0.22900
C 	C 	0.10350 0.64690 0.88700 0.13000
H 	H 	0.18970 0.63740 0.88990 -0.00400
C 	C 	0.06370 0.68330 0.85820 -0.19700
H 	H 	0.12330 0.69840 0.84230 0.10500
C 	C 	0.93580 0.69590 0.85410 0.13300
C 	C 	0.84980 0.67380 0.87830 -0.21300
H 	H 	0.76320 0.68290 0.87600 0.10600
C 	C 	0.89100 0.63770 0.90650 0.15300
H 	H 	0.83220 0.62200 0.92240 -0.03900
C 	C 	0.05950 0.58710 0.94110 0.45300
C 	C 	0.89080 0.73450 0.82480 -0.04300
C 	C 	0.90550 0.79430 0.81960 -0.03500
C 	C 	0.96520 0.84000 0.84280 0.11900
C 	C 	0.95800 0.83280 0.87900 -0.18400
H 	H 	0.91500 0.79900 0.88850 0.09500
C 	C 	0.01470 0.87560 0.90050 0.12100
H 	H 	0.00740 0.87120 0.92460 -0.01700
C 	C 	0.08070 0.92390 0.88740 -0.18300
C 	C 	0.08840 0.93290 0.85150 0.10900
H 	H 	0.13170 0.96680 0.84220 0.01900
C 	C 	0.02980 0.88980 0.83000 -0.17500
H 	H 	0.03460 0.89520 0.80600 0.09700
C 	C 	0.14520 0.96780 0.91240 0.44500
C 	C 	0.78050 0.75220 0.76470 -0.00600
O 	O 	0.97730 0.56820 0.96180 -0.52700
O 	O 	0.17590 0.57300 0.94400 -0.47400
O 	O 	0.13530 0.96190 0.94380 -0.46800
O 	O 	0.21090 0.01230 0.89610 -0.51200
H 	H 	0.24520 0.03480 0.91060 0.30700
S 	S 	0.81080 0.69056 0.79271 0.00300
S 	S 	0.83810 0.82441 0.78074 -0.00300
C 	C 	0.51690 0.12590 0.41030 -0.23700
C 	C 	0.60350 0.14690 0.38700 0.13700
H 	H 	0.68970 0.13740 0.38990 -0.00600
C 	C 	0.56370 0.18330 0.35820 -0.20000
H 	H 	0.62330 0.19840 0.34230 0.10800
C 	C 	0.43580 0.19590 0.35410 0.13700
C 	C 	0.34980 0.17380 0.37830 -0.21800
H 	H 	0.26320 0.18290 0.37600 0.10800
C 	C 	0.39100 0.13770 0.40650 0.16000
H 	H 	0.33220 0.12200 0.42240 -0.04400
C 	C 	0.55950 0.08710 0.44110 0.46000
C 	C 	0.39080 0.23450 0.32480 -0.04400
C 	C 	0.40550 0.29430 0.31960 -0.03500
C 	C 	0.46520 0.34000 0.34280 0.12100
C 	C 	0.45800 0.33280 0.37900 -0.18800
H 	H 	0.41500 0.29900 0.38850 0.09500
C 	C 	0.51470 0.37560 0.40050 0.12600
H 	H 	0.50740 0.37120 0.42460 -0.02400
C 	C 	0.58070 0.42390 0.38740 -0.18900
C 	C 	0.58840 0.43290 0.35150 0.11400
H 	H 	0.63170 0.46680 0.34220 0.01700
C 	C 	0.52980 0.38980 0.33000 -0.17800
H 	H 	0.53460 0.39520 0.30600 0.09900
C 	C 	0.64520 0.46780 0.41240 0.45000
C 	C 	0.28050 0.25220 0.26470 -0.00600
O 	O 	0.47730 0.06820 0.46180 -0.55100
O 	O 	0.67590 0.07300 0.44400 -0.49100
O 	O 	0.63530 0.46190 0.44380 -0.48500
O 	O 	0.71090 0.51230 0.39610 -0.51500
H 	H 	0.74520 0.53480 0.41060 0.30600
S 	S 	0.31080 0.19056 0.29271 0.00400
S 	S 	0.33810 0.32441 0.28074 -0.00300
C 	C 	0.98310 0.37410 0.91030 -0.22800
C 	C 	0.89650 0.35310 0.88700 0.13100
H 	H 	0.81030 0.36260 0.88990 -0.00300
C 	C 	0.93630 0.31670 0.85820 -0.19600
H 	H 	0.87670 0.30160 0.84230 0.10600
C 	C 	0.06420 0.30410 0.85410 0.13400
C 	C 	0.15020 0.32620 0.87830 -0.21200
H 	H 	0.23680 0.31710 0.87600 0.10700
C 	C 	0.10900 0.36230 0.90650 0.15400
H 	H 	0.16780 0.37800 0.92240 -0.03800
C 	C 	0.94050 0.41290 0.94110 0.45300
C 	C 	0.10920 0.26550 0.82480 -0.04300
C 	C 	0.09450 0.20570 0.81960 -0.03500
C 	C 	0.03480 0.16000 0.84280 0.11900
C 	C 	0.04200 0.16720 0.87900 -0.18400
H 	H 	0.08500 0.20100 0.88850 0.09500
C 	C 	0.98530 0.12440 0.90050 0.12100
H 	H 	0.99260 0.12880 0.92460 -0.01700
C 	C 	0.91930 0.07610 0.88740 -0.18300
C 	C 	0.91160 0.06710 0.85150 0.10900
H 	H 	0.86830 0.03320 0.84220 0.01900
C 	C 	0.97020 0.11020 0.83000 -0.17500
H 	H 	0.96540 0.10480 0.80600 0.09700
C 	C 	0.85480 0.03220 0.91240 0.44500
C 	C 	0.21950 0.24780 0.76470 -0.00600
O 	O 	0.02270 0.43180 0.96180 -0.52700
O 	O 	0.82410 0.42700 0.94400 -0.47400
O 	O 	0.86470 0.03810 0.94380 -0.46800
O 	O 	0.78910 0.98770 0.89610 -0.51200
H 	H 	0.75480 0.96520 0.91060 0.30700
S 	S 	0.18920 0.30944 0.79271 0.00300
S 	S 	0.16190 0.17559 0.78074 -0.00300
C 	C 	0.48310 0.87410 0.41030 -0.23700
C 	C 	0.39650 0.85310 0.38700 0.13700
H 	H 	0.31030 0.86260 0.38990 -0.00600
C 	C 	0.43630 0.81670 0.35820 -0.20000
H 	H 	0.37670 0.80160 0.34230 0.10800
C 	C 	0.56420 0.80410 0.35410 0.13700
C 	C 	0.65020 0.82620 0.37830 -0.21800
H 	H 	0.73680 0.81710 0.37600 0.10800
C 	C 	0.60900 0.86230 0.40650 0.16000
H 	H 	0.66780 0.87800 0.42240 -0.04400
C 	C 	0.44050 0.91290 0.44110 0.46000
C 	C 	0.60920 0.76550 0.32480 -0.04400
C 	C 	0.59450 0.70570 0.31960 -0.03500
C 	C 	0.53480 0.66000 0.34280 0.12100
C 	C 	0.54200 0.66720 0.37900 -0.18800
H 	H 	0.58500 0.70100 0.38850 0.09500
C 	C 	0.48530 0.62440 0.40050 0.12600
H 	H 	0.49260 0.62880 0.42460 -0.02400
C 	C 	0.41930 0.57610 0.38740 -0.18900
C 	C 	0.41160 0.56710 0.35150 0.11400
H 	H 	0.36830 0.53320 0.34220 0.01700
C 	C 	0.47020 0.61020 0.33000 -0.17800
H 	H 	0.46540 0.60480 0.30600 0.09900
C 	C 	0.35480 0.53220 0.41240 0.45000
C 	C 	0.71950 0.74780 0.26470 -0.00600
O 	O 	0.52270 0.93180 0.46180 -0.55100
O 	O 	0.32410 0.92700 0.44400 -0.49100
O 	O 	0.36470 0.53810 0.44380 -0.48500
O 	O 	0.28910 0.48770 0.39610 -0.51500
H 	H 	0.25480 0.46520 0.41060 0.30600
S 	S 	0.68920 0.80944 0.29271 0.00400
S 	S 	0.66190 0.67559 0.28074 -0.00300
C 	C 	0.48310 0.12590 0.08970 -0.23600
C 	C 	0.39650 0.14690 0.11300 0.13500
H 	H 	0.31030 0.13740 0.11010 -0.00600
C 	C 	0.43630 0.18330 0.14180 -0.19900
H 	H 	0.37670 0.19840 0.15770 0.10700
C 	C 	0.56420 0.19590 0.14590 0.13600
C 	C 	0.65020 0.17380 0.12170 -0.21700
H 	H 	0.73680 0.18290 0.12400 0.10700
C 	C 	0.60900 0.13770 0.09350 0.15800
H 	H 	0.66780 0.12200 0.07760 -0.04400
C 	C 	0.44050 0.08710 0.05890 0.45700
C 	C 	0.60920 0.23450 0.17520 -0.04400
C 	C 	0.59450 0.29430 0.18040 -0.03600
C 	C 	0.53480 0.34000 0.15720 0.12100
C 	C 	0.54200 0.33280 0.12100 -0.18800
H 	H 	0.58500 0.29900 0.11150 0.09400
C 	C 	0.48530 0.37560 0.09950 0.12600
H 	H 	0.49260 0.37120 0.07540 -0.02600
C 	C 	0.41930 0.42390 0.11260 -0.18900
C 	C 	0.41160 0.43290 0.14850 0.11400
H 	H 	0.36830 0.46680 0.15780 0.01700
C 	C 	0.47020 0.38980 0.17000 -0.17800
H 	H 	0.46540 0.39520 0.19400 0.09900
C 	C 	0.35480 0.46780 0.08760 0.44900
C 	C 	0.71950 0.25220 0.23530 -0.00600
O 	O 	0.52270 0.06820 0.03820 -0.54800
O 	O 	0.32410 0.07300 0.05600 -0.48700
O 	O 	0.36470 0.46190 0.05620 -0.48300
O 	O 	0.28910 0.51230 0.10390 -0.51500
H 	H 	0.25480 0.53480 0.08940 0.30700
S 	S 	0.68920 0.19056 0.20729 0.00400
S 	S 	0.66190 0.32441 0.21926 -0.00300
C 	C 	0.98310 0.62590 0.58970 -0.23800
C 	C 	0.89650 0.64690 0.61300 0.13700
H 	H 	0.81030 0.63740 0.61010 -0.00600
C 	C 	0.93630 0.68330 0.64180 -0.20100
H 	H 	0.87670 0.69840 0.65770 0.10800
C 	C 	0.06420 0.69590 0.64590 0.13700
C 	C 	0.15020 0.67380 0.62170 -0.21800
H 	H 	0.23680 0.68290 0.62400 0.10800
C 	C 	0.10900 0.63770 0.59350 0.16000
H 	H 	0.16780 0.62200 0.57760 -0.04400
C 	C 	0.94050 0.58710 0.55890 0.46000
C 	C 	0.10920 0.73450 0.67520 -0.04400
C 	C 	0.09450 0.79430 0.68040 -0.03500
C 	C 	0.03480 0.84000 0.65720 0.12100
C 	C 	0.04200 0.83280 0.62100 -0.18800
H 	H 	0.08500 0.79900 0.61150 0.09500
C 	C 	0.98530 0.87560 0.59950 0.12600
H 	H 	0.99260 0.87120 0.57540 -0.02400
C 	C 	0.91930 0.92390 0.61260 -0.18900
C 	C 	0.91160 0.93290 0.64850 0.11300
H 	H 	0.86830 0.96680 0.65780 0.01800
C 	C 	0.97020 0.88980 0.67000 -0.17800
H 	H 	0.96540 0.89520 0.69400 0.09900
C 	C 	0.85480 0.96780 0.58760 0.45000
C 	C 	0.21950 0.75220 0.73530 -0.00600
O 	O 	0.02270 0.56820 0.53820 -0.55100
O 	O 	0.82410 0.57300 0.55600 -0.49100
O 	O 	0.86470 0.96190 0.55620 -0.48500
O 	O 	0.78910 0.01230 0.60390 -0.51500
H 	H 	0.75480 0.03480 0.58940 0.30600
S 	S 	0.18920 0.69056 0.70729 0.00400
S 	S 	0.16190 0.82441 0.71926 -0.00300
C 	C 	0.51690 0.87410 0.08970 -0.23600
C 	C 	0.60350 0.85310 0.11300 0.13500
H 	H 	0.68970 0.86260 0.11010 -0.00600
C 	C 	0.56370 0.81670 0.14180 -0.19900
H 	H 	0.62330 0.80160 0.15770 0.10700
C 	C 	0.43580 0.80410 0.14590 0.13600
C 	C 	0.34980 0.82620 0.12170 -0.21700
H 	H 	0.26320 0.81710 0.12400 0.10700
C 	C 	0.39100 0.86230 0.09350 0.15800
H 	H 	0.33220 0.87800 0.07760 -0.04400
C 	C 	0.55950 0.91290 0.05890 0.45700
C 	C 	0.39080 0.76550 0.17520 -0.04400
C 	C 	0.40550 0.70570 0.18040 -0.03600
C 	C 	0.46520 0.66000 0.15720 0.12100
C 	C 	0.45800 0.66720 0.12100 -0.18800
H 	H 	0.41500 0.70100 0.11150 0.09400
C 	C 	0.51470 0.62440 0.09950 0.12600
H 	H 	0.50740 0.62880 0.07540 -0.02600
C 	C 	0.58070 0.57610 0.11260 -0.18900
C 	C 	0.58840 0.56710 0.14850 0.11400
H 	H 	0.63170 0.53320 0.15780 0.01700
C 	C 	0.52980 0.61020 0.17000 -0.17800
H 	H 	0.53460 0.60480 0.19400 0.09900
C 	C 	0.64520 0.53220 0.08760 0.44900
C 	C 	0.28050 0.74780 0.23530 -0.00600
O 	O 	0.47730 0.93180 0.03820 -0.54800
O 	O 	0.67590 0.92700 0.05600 -0.48700
O 	O 	0.63530 0.53810 0.05620 -0.48300
O 	O 	0.71090 0.48770 0.10390 -0.51500
H 	H 	0.74520 0.46520 0.08940 0.30700
S 	S 	0.31080 0.80944 0.20729 0.00400
S 	S 	0.33810 0.67559 0.21926 -0.00300
C 	C 	0.01690 0.37410 0.58970 -0.23800
C 	C 	0.10350 0.35310 0.61300 0.13700
H 	H 	0.18970 0.36260 0.61010 -0.00600
C 	C 	0.06370 0.31670 0.64180 -0.20100
H 	H 	0.12330 0.30160 0.65770 0.10800
C 	C 	0.93580 0.30410 0.64590 0.13700
C 	C 	0.84980 0.32620 0.62170 -0.21800
H 	H 	0.76320 0.31710 0.62400 0.10800
C 	C 	0.89100 0.36230 0.59350 0.16000
H 	H 	0.83220 0.37800 0.57760 -0.04400
C 	C 	0.05950 0.41290 0.55890 0.46000
C 	C 	0.89080 0.26550 0.67520 -0.04400
C 	C 	0.90550 0.20570 0.68040 -0.03500
C 	C 	0.96520 0.16000 0.65720 0.12100
C 	C 	0.95800 0.16720 0.62100 -0.18800
H 	H 	0.91500 0.20100 0.61150 0.09500
C 	C 	0.01470 0.12440 0.59950 0.12600
H 	H 	0.00740 0.12880 0.57540 -0.02400
C 	C 	0.08070 0.07610 0.61260 -0.18900
C 	C 	0.08840 0.06710 0.64850 0.11300
H 	H 	0.13170 0.03320 0.65780 0.01800
C 	C 	0.02980 0.11020 0.67000 -0.17800
H 	H 	0.03460 0.10480 0.69400 0.09900
C 	C 	0.14520 0.03220 0.58760 0.45000
C 	C 	0.78050 0.24780 0.73530 -0.00600
O 	O 	0.97730 0.43180 0.53820 -0.55100
O 	O 	0.17590 0.42700 0.55600 -0.49100
O 	O 	0.13530 0.03810 0.55620 -0.48500
O 	O 	0.21090 0.98770 0.60390 -0.51500
H 	H 	0.24520 0.96520 0.58940 0.30600
S 	S 	0.81080 0.30944 0.70729 0.00400
S 	S 	0.83810 0.17559 0.71926 -0.00300
C 	C 	0.98310 0.37410 0.08970 -0.23600
C 	C 	0.89650 0.35310 0.11300 0.13500
H 	H 	0.81030 0.36260 0.11010 -0.00600
C 	C 	0.93630 0.31670 0.14180 -0.20000
H 	H 	0.87670 0.30160 0.15770 0.10700
C 	C 	0.06420 0.30410 0.14590 0.13600
C 	C 	0.15020 0.32620 0.12170 -0.21700
H 	H 	0.23680 0.31710 0.12400 0.10700
C 	C 	0.10900 0.36230 0.09350 0.15800
H 	H 	0.16780 0.37800 0.07760 -0.04400
C 	C 	0.94050 0.41290 0.05890 0.45600
C 	C 	0.10920 0.26550 0.17520 -0.04400
C 	C 	0.09450 0.20570 0.18040 -0.03600
C 	C 	0.03480 0.16000 0.15720 0.12100
C 	C 	0.04200 0.16720 0.12100 -0.18800
H 	H 	0.08500 0.20100 0.11150 0.09400
C 	C 	0.98530 0.12440 0.09950 0.12600
H 	H 	0.99260 0.12880 0.07540 -0.02600
C 	C 	0.91930 0.07610 0.11260 -0.18900
C 	C 	0.91160 0.06710 0.14850 0.11400
H 	H 	0.86830 0.03320 0.15780 0.01800
C 	C 	0.97020 0.11020 0.17000 -0.17800
H 	H 	0.96540 0.10480 0.19400 0.09900
C 	C 	0.85480 0.03220 0.08760 0.44900
C 	C 	0.21950 0.24780 0.23530 -0.00600
O 	O 	0.02270 0.43180 0.03820 -0.54800
O 	O 	0.82410 0.42700 0.05600 -0.48700
O 	O 	0.86470 0.03810 0.05620 -0.48300
O 	O 	0.78910 0.98770 0.10390 -0.51400
H 	H 	0.75480 0.96520 0.08940 0.30700
S 	S 	0.18920 0.30944 0.20729 0.00400
S 	S 	0.16190 0.17559 0.21926 -0.00300
C 	C 	0.48310 0.87410 0.58970 -0.23800
C 	C 	0.39650 0.85310 0.61300 0.13700
H 	H 	0.31030 0.86260 0.61010 -0.00600
C 	C 	0.43630 0.81670 0.64180 -0.20000
H 	H 	0.37670 0.80160 0.65770 0.10800
C 	C 	0.56420 0.80410 0.64590 0.13700
C 	C 	0.65020 0.82620 0.62170 -0.21800
H 	H 	0.73680 0.81710 0.62400 0.10800
C 	C 	0.60900 0.86230 0.59350 0.16000
H 	H 	0.66780 0.87800 0.57760 -0.04400
C 	C 	0.44050 0.91290 0.55890 0.46000
C 	C 	0.60920 0.76550 0.67520 -0.04400
C 	C 	0.59450 0.70570 0.68040 -0.03500
C 	C 	0.53480 0.66000 0.65720 0.12100
C 	C 	0.54200 0.66720 0.62100 -0.18800
H 	H 	0.58500 0.70100 0.61150 0.09500
C 	C 	0.48530 0.62440 0.59950 0.12600
H 	H 	0.49260 0.62880 0.57540 -0.02400
C 	C 	0.41930 0.57610 0.61260 -0.18900
C 	C 	0.41160 0.56710 0.64850 0.11400
H 	H 	0.36830 0.53320 0.65780 0.01700
C 	C 	0.47020 0.61020 0.67000 -0.17800
H 	H 	0.46540 0.60480 0.69400 0.09900
C 	C 	0.35480 0.53220 0.58760 0.45000
C 	C 	0.71950 0.74780 0.73530 -0.00600
O 	O 	0.52270 0.93180 0.53820 -0.55100
O 	O 	0.32410 0.92700 0.55600 -0.49100
O 	O 	0.36470 0.53810 0.55620 -0.48500
O 	O 	0.28910 0.48770 0.60390 -0.51500
H 	H 	0.25480 0.46520 0.58940 0.30600
S 	S 	0.68920 0.80944 0.70729 0.00400
S 	S 	0.66190 0.67559 0.71926 -0.00300
C 	C 	0.01690 0.62590 0.08970 -0.23600
C 	C 	0.10350 0.64690 0.11300 0.13500
H 	H 	0.18970 0.63740 0.11010 -0.00600
C 	C 	0.06370 0.68330 0.14180 -0.20000
H 	H 	0.12330 0.69840 0.15770 0.10700
C 	C 	0.93580 0.69590 0.14590 0.13600
C 	C 	0.84980 0.67380 0.12170 -0.21700
H 	H 	0.76320 0.68290 0.12400 0.10700
C 	C 	0.89100 0.63770 0.09350 0.15800
H 	H 	0.83220 0.62200 0.07760 -0.04400
C 	C 	0.05950 0.58710 0.05890 0.45600
C 	C 	0.89080 0.73450 0.17520 -0.04400
C 	C 	0.90550 0.79430 0.18040 -0.03600
C 	C 	0.96520 0.84000 0.15720 0.12100
C 	C 	0.95800 0.83280 0.12100 -0.18800
H 	H 	0.91500 0.79900 0.11150 0.09400
C 	C 	0.01470 0.87560 0.09950 0.12600
H 	H 	0.00740 0.87120 0.07540 -0.02600
C 	C 	0.08070 0.92390 0.11260 -0.18900
C 	C 	0.08840 0.93290 0.14850 0.11400
H 	H 	0.13170 0.96680 0.15780 0.01800
C 	C 	0.02980 0.88980 0.17000 -0.17800
H 	H 	0.03460 0.89520 0.19400 0.09900
C 	C 	0.14520 0.96780 0.08760 0.44900
C 	C 	0.78050 0.75220 0.23530 -0.00600
O 	O 	0.97730 0.56820 0.03820 -0.54800
O 	O 	0.17590 0.57300 0.05600 -0.48700
O 	O 	0.13530 0.96190 0.05620 -0.48300
O 	O 	0.21090 0.01230 0.10390 -0.51400
H 	H 	0.24520 0.03480 0.08940 0.30700
S 	S 	0.81080 0.69056 0.20729 0.00400
S 	S 	0.83810 0.82441 0.21926 -0.00300
C 	C 	0.51690 0.12590 0.58970 -0.23800
C 	C 	0.60350 0.14690 0.61300 0.13700
H 	H 	0.68970 0.13740 0.61010 -0.00600
C 	C 	0.56370 0.18330 0.64180 -0.20000
H 	H 	0.62330 0.19840 0.65770 0.10800
C 	C 	0.43580 0.19590 0.64590 0.13700
C 	C 	0.34980 0.17380 0.62170 -0.21800
H 	H 	0.26320 0.18290 0.62400 0.10800
C 	C 	0.39100 0.13770 0.59350 0.16000
H 	H 	0.33220 0.12200 0.57760 -0.04400
C 	C 	0.55950 0.08710 0.55890 0.46000
C 	C 	0.39080 0.23450 0.67520 -0.04400
C 	C 	0.40550 0.29430 0.68040 -0.03500
C 	C 	0.46520 0.34000 0.65720 0.12100
C 	C 	0.45800 0.33280 0.62100 -0.18800
H 	H 	0.41500 0.29900 0.61150 0.09500
C 	C 	0.51470 0.37560 0.59950 0.12600
H 	H 	0.50740 0.37120 0.57540 -0.02400
C 	C 	0.58070 0.42390 0.61260 -0.18900
C 	C 	0.58840 0.43290 0.64850 0.11400
H 	H 	0.63170 0.46680 0.65780 0.01700
C 	C 	0.52980 0.38980 0.67000 -0.17800
H 	H 	0.53460 0.39520 0.69400 0.09900
C 	C 	0.64520 0.46780 0.58760 0.45000
C 	C 	0.28050 0.25220 0.73530 -0.00600
O 	O 	0.47730 0.06820 0.53820 -0.55100
O 	O 	0.67590 0.07300 0.55600 -0.49100
O 	O 	0.63530 0.46190 0.55620 -0.48500
O 	O 	0.71090 0.51230 0.60390 -0.51500
H 	H 	0.74520 0.53480 0.58940 0.30600
S 	S 	0.31080 0.19056 0.70729 0.00400
S 	S 	0.33810 0.32441 0.71926 -0.00300
C 	C 	0.51690 0.87410 0.91030 -0.22800
C 	C 	0.60350 0.85310 0.88700 0.13100
H 	H 	0.68970 0.86260 0.88990 -0.00300
C 	C 	0.56370 0.81670 0.85820 -0.19500
H 	H 	0.62330 0.80160 0.84230 0.10600
C 	C 	0.43580 0.80410 0.85410 0.13400
C 	C 	0.34980 0.82620 0.87830 -0.21200
H 	H 	0.26320 0.81710 0.87600 0.10700
C 	C 	0.39100 0.86230 0.90650 0.15400
H 	H 	0.33220 0.87800 0.92240 -0.03800
C 	C 	0.55950 0.91290 0.94110 0.45300
C 	C 	0.39080 0.76550 0.82480 -0.04300
C 	C 	0.40550 0.70570 0.81960 -0.03500
C 	C 	0.46520 0.66000 0.84280 0.11900
C 	C 	0.45800 0.66720 0.87900 -0.18400
H 	H 	0.41500 0.70100 0.88850 0.09500
C 	C 	0.51470 0.62440 0.90050 0.12100
H 	H 	0.50740 0.62880 0.92460 -0.01700
C 	C 	0.58070 0.57610 0.88740 -0.18300
C 	C 	0.58840 0.56710 0.85150 0.10900
H 	H 	0.63170 0.53320 0.84220 0.01900
C 	C 	0.52980 0.61020 0.83000 -0.17500
H 	H 	0.53460 0.60480 0.80600 0.09700
C 	C 	0.64520 0.53220 0.91240 0.44400
C 	C 	0.28050 0.74780 0.76470 -0.00600
O 	O 	0.47730 0.93180 0.96180 -0.52700
O 	O 	0.67590 0.92700 0.94400 -0.47500
O 	O 	0.63530 0.53810 0.94380 -0.46800
O 	O 	0.71090 0.48770 0.89610 -0.51300
H 	H 	0.74520 0.46520 0.91060 0.30700
S 	S 	0.31080 0.80944 0.79271 0.00400
S 	S 	0.33810 0.67559 0.78074 -0.00300
C 	C 	0.01690 0.37410 0.41030 -0.23800
C 	C 	0.10350 0.35310 0.38700 0.13700
H 	H 	0.18970 0.36260 0.38990 -0.00600
C 	C 	0.06370 0.31670 0.35820 -0.20100
H 	H 	0.12330 0.30160 0.34230 0.10800
C 	C 	0.93580 0.30410 0.35410 0.13700
C 	C 	0.84980 0.32620 0.37830 -0.21800
H 	H 	0.76320 0.31710 0.37600 0.10800
C 	C 	0.89100 0.36230 0.40650 0.16000
H 	H 	0.83220 0.37800 0.42240 -0.04400
C 	C 	0.05950 0.41290 0.44110 0.46000
C 	C 	0.89080 0.26550 0.32480 -0.04400
C 	C 	0.90550 0.20570 0.31960 -0.03500
C 	C 	0.96520 0.16000 0.34280 0.12100
C 	C 	0.95800 0.16720 0.37900 -0.18800
H 	H 	0.91500 0.20100 0.38850 0.09500
C 	C 	0.01470 0.12440 0.40050 0.12600
H 	H 	0.00740 0.12880 0.42460 -0.02400
C 	C 	0.08070 0.07610 0.38740 -0.18900
C 	C 	0.08840 0.06710 0.35150 0.11400
H 	H 	0.13170 0.03320 0.34220 0.01800
C 	C 	0.02980 0.11020 0.33000 -0.17800
H 	H 	0.03460 0.10480 0.30600 0.09900
C 	C 	0.14520 0.03220 0.41240 0.45000
C 	C 	0.78050 0.24780 0.26470 -0.00600
O 	O 	0.97730 0.43180 0.46180 -0.55100
O 	O 	0.17590 0.42700 0.44400 -0.49100
O 	O 	0.13530 0.03810 0.44380 -0.48500
O 	O 	0.21090 0.98770 0.39610 -0.51500
H 	H 	0.24520 0.96520 0.41060 0.30600
S 	S 	0.81080 0.30944 0.29271 0.00400
S 	S 	0.83810 0.17559 0.28074 -0.00300
C 	C 	0.48310 0.12590 0.91030 -0.22800
C 	C 	0.39650 0.14690 0.88700 0.13100
H 	H 	0.31030 0.13740 0.88990 -0.00300
C 	C 	0.43630 0.18330 0.85820 -0.19500
H 	H 	0.37670 0.19840 0.84230 0.10600
C 	C 	0.56420 0.19590 0.85410 0.13400
C 	C 	0.65020 0.17380 0.87830 -0.21200
H 	H 	0.73680 0.18290 0.87600 0.10700
C 	C 	0.60900 0.13770 0.90650 0.15400
H 	H 	0.66780 0.12200 0.92240 -0.03800
C 	C 	0.44050 0.08710 0.94110 0.45300
C 	C 	0.60920 0.23450 0.82480 -0.04300
C 	C 	0.59450 0.29430 0.81960 -0.03500
C 	C 	0.53480 0.34000 0.84280 0.11900
C 	C 	0.54200 0.33280 0.87900 -0.18400
H 	H 	0.58500 0.29900 0.88850 0.09500
C 	C 	0.48530 0.37560 0.90050 0.12100
H 	H 	0.49260 0.37120 0.92460 -0.01700
C 	C 	0.41930 0.42390 0.88740 -0.18300
C 	C 	0.41160 0.43290 0.85150 0.10900
H 	H 	0.36830 0.46680 0.84220 0.01900
C 	C 	0.47020 0.38980 0.83000 -0.17500
H 	H 	0.46540 0.39520 0.80600 0.09700
C 	C 	0.35480 0.46780 0.91240 0.44400
C 	C 	0.71950 0.25220 0.76470 -0.00600
O 	O 	0.52270 0.06820 0.96180 -0.52700
O 	O 	0.32410 0.07300 0.94400 -0.47500
O 	O 	0.36470 0.46190 0.94380 -0.46800
O 	O 	0.28910 0.51230 0.89610 -0.51300
H 	H 	0.25480 0.53480 0.91060 0.30700
S 	S 	0.68920 0.19056 0.79271 0.00400
S 	S 	0.66190 0.32441 0.78074 -0.00300
C 	C 	0.98310 0.62590 0.41030 -0.23800
C 	C 	0.89650 0.64690 0.38700 0.13700
H 	H 	0.81030 0.63740 0.38990 -0.00600
C 	C 	0.93630 0.68330 0.35820 -0.20100
H 	H 	0.87670 0.69840 0.34230 0.10800
C 	C 	0.06420 0.69590 0.35410 0.13700
C 	C 	0.15020 0.67380 0.37830 -0.21800
H 	H 	0.23680 0.68290 0.37600 0.10800
C 	C 	0.10900 0.63770 0.40650 0.16000
H 	H 	0.16780 0.62200 0.42240 -0.04400
C 	C 	0.94050 0.58710 0.44110 0.46000
C 	C 	0.10920 0.73450 0.32480 -0.04400
C 	C 	0.09450 0.79430 0.31960 -0.03500
C 	C 	0.03480 0.84000 0.34280 0.12100
C 	C 	0.04200 0.83280 0.37900 -0.18800
H 	H 	0.08500 0.79900 0.38850 0.09500
C 	C 	0.98530 0.87560 0.40050 0.12600
H 	H 	0.99260 0.87120 0.42460 -0.02400
C 	C 	0.91930 0.92390 0.38740 -0.18900
C 	C 	0.91160 0.93290 0.35150 0.11400
H 	H 	0.86830 0.96680 0.34220 0.01800
C 	C 	0.97020 0.88980 0.33000 -0.17800
H 	H 	0.96540 0.89520 0.30600 0.09900
C 	C 	0.85480 0.96780 0.41240 0.45000
C 	C 	0.21950 0.75220 0.26470 -0.00600
O 	O 	0.02270 0.56820 0.46180 -0.55100
O 	O 	0.82410 0.57300 0.44400 -0.49100
O 	O 	0.86470 0.96190 0.44380 -0.48500
O 	O 	0.78910 0.01230 0.39610 -0.51500
H 	H 	0.75480 0.03480 0.41060 0.30600
S 	S 	0.18920 0.69056 0.29271 0.00400
S 	S 	0.16190 0.82441 0.28074 -0.00300
Ba	Ba	0.19843 0.49181 -0.00000 1.87600
Ba	Ba	0.69843 0.99181 0.50000 1.95000
Ba	Ba	0.80157 0.50819 -0.00000 1.87600
Ba	Ba	0.30157 0.00819 0.50000 1.95000
Ba	Ba	0.30157 0.99181 -0.00000 1.87900
Ba	Ba	0.80157 0.49181 0.50000 1.94900
Ba	Ba	0.69843 0.00819 -0.00000 1.87900
Ba	Ba	0.19843 0.50819 0.50000 1.94900
