data_crystal

_cell_length_a 12.67390
_cell_length_b 12.67390
_cell_length_c 23.30700
_cell_angle_alpha 83.00250
_cell_angle_beta  83.00250
_cell_angle_gamma 62.80560

_symmetry_space_group_name_	'P 1'
_symmetry_space_group_name_H-M	'P 1'

loop_
_symmetry_equiv_pos_as_xyz
  x,y,z

loop_
_atom_site_label
_atom_site_type_symbol
_atom_site_fract_x
_atom_site_fract_y
_atom_site_fract_z
_atom_site_charge
Cd	Cd	0.35046 0.23227 0.85609 1.21400
Cd	Cd	0.76773 0.64954 0.64391 1.21400
Cd	Cd	0.64954 0.76773 0.14391 1.21400
Cd	Cd	0.23227 0.35046 0.35609 1.21400
H 	H 	0.49870 0.42950 0.71120 0.20400
H 	H 	0.49630 0.33270 0.67630 0.21900
H 	H 	0.38090 0.63310 0.68140 0.19900
H 	H 	0.24020 0.77720 0.62350 -0.10400
H 	H 	0.12970 0.72730 0.56960 0.18800
H 	H 	0.30100 0.38900 0.63160 0.20600
H 	H 	0.16460 0.43680 0.55840 0.21900
H 	H 	0.12070 0.56110 0.52300 0.22300
H 	H 	0.15230 0.51590 0.86780 -0.01800
H 	H 	0.06120 0.65380 0.93560 0.11700
H 	H 	0.18470 0.39050 0.05960 0.11600
H 	H 	0.27310 0.25990 0.98870 -0.03000
H 	H 	0.02010 0.59970 0.08250 0.14500
H 	H 	0.00770 0.70310 0.03500 0.14100
H 	H 	0.12700 0.69180 0.10930 -0.03900
H 	H 	0.21850 0.56330 0.09320 -0.04100
H 	H 	0.16960 0.76800 0.01720 0.14200
H 	H 	0.26370 0.63910 0.00260 0.15200
H 	H 	0.22330 0.87950 0.07860 0.11800
H 	H 	0.36920 0.89900 0.11760 -0.02900
H 	H 	0.59230 0.57190 0.09460 -0.03300
H 	H 	0.45270 0.54270 0.05430 0.12200
H 	H 	0.13300 0.37680 0.77590 -0.03000
H 	H 	0.96520 0.38500 0.74670 0.15200
H 	H 	0.04860 0.06640 0.82810 0.13500
H 	H 	0.21290 0.06810 0.85770 -0.03300
H 	H 	0.81120 0.26080 0.79940 0.16200
H 	H 	0.84340 0.29380 0.73500 0.16500
H 	H 	0.90660 0.06060 0.78220 -0.05900
H 	H 	0.57050 0.50130 0.78880 0.20500
H 	H 	0.66730 0.50370 0.82370 0.21900
H 	H 	0.36690 0.61910 0.81860 0.20000
H 	H 	0.22280 0.75980 0.87650 -0.10200
H 	H 	0.27270 0.87030 0.93040 0.18900
H 	H 	0.61100 0.69900 0.86840 0.20600
H 	H 	0.56320 0.83540 0.94160 0.21900
H 	H 	0.43890 0.87930 0.97700 0.22300
H 	H 	0.48410 0.84770 0.63220 -0.01800
H 	H 	0.34620 0.93880 0.56440 0.11700
H 	H 	0.60950 0.81530 0.44040 0.11600
H 	H 	0.74010 0.72690 0.51130 -0.03000
H 	H 	0.40030 0.97990 0.41750 0.14600
H 	H 	0.29690 0.99230 0.46500 0.14100
H 	H 	0.30820 0.87300 0.39070 -0.03900
H 	H 	0.43670 0.78150 0.40680 -0.04200
H 	H 	0.23200 0.83040 0.48280 0.14200
H 	H 	0.36090 0.73630 0.49740 0.15200
H 	H 	0.12050 0.77670 0.42140 0.11800
H 	H 	0.10100 0.63080 0.38240 -0.02900
H 	H 	0.42810 0.40770 0.40540 -0.03300
H 	H 	0.45730 0.54730 0.44570 0.12200
H 	H 	0.62320 0.86700 0.72410 -0.03200
H 	H 	0.61500 0.03480 0.75330 0.15400
H 	H 	0.93360 0.95140 0.67190 0.13600
H 	H 	0.93190 0.78710 0.64230 -0.03500
H 	H 	0.73920 0.18880 0.70060 0.16300
H 	H 	0.70620 0.15660 0.76500 0.16600
H 	H 	0.93940 0.09340 0.71780 -0.05900
H 	H 	0.50130 0.57050 0.28880 0.20500
H 	H 	0.50370 0.66730 0.32370 0.22000
H 	H 	0.61910 0.36690 0.31860 0.20000
H 	H 	0.75980 0.22280 0.37650 -0.10300
H 	H 	0.87030 0.27270 0.43040 0.18900
H 	H 	0.69900 0.61100 0.36840 0.20700
H 	H 	0.83540 0.56320 0.44160 0.22000
H 	H 	0.87930 0.43890 0.47700 0.22400
H 	H 	0.84770 0.48410 0.13220 -0.01800
H 	H 	0.93880 0.34620 0.06440 0.11700
H 	H 	0.81530 0.60950 0.94040 0.11600
H 	H 	0.72690 0.74010 0.01130 -0.03000
H 	H 	0.97990 0.40030 0.91750 0.14500
H 	H 	0.99230 0.29690 0.96500 0.14100
H 	H 	0.87300 0.30820 0.89070 -0.03900
H 	H 	0.78150 0.43670 0.90680 -0.04100
H 	H 	0.83040 0.23200 0.98280 0.14200
H 	H 	0.73630 0.36090 0.99740 0.15200
H 	H 	0.77670 0.12050 0.92140 0.11800
H 	H 	0.63080 0.10100 0.88240 -0.02900
H 	H 	0.40770 0.42810 0.90540 -0.03300
H 	H 	0.54730 0.45730 0.94570 0.12200
H 	H 	0.86700 0.62320 0.22410 -0.03000
H 	H 	0.03480 0.61500 0.25330 0.15200
H 	H 	0.95140 0.93360 0.17190 0.13500
H 	H 	0.78710 0.93190 0.14230 -0.03300
H 	H 	0.18880 0.73920 0.20060 0.16200
H 	H 	0.15660 0.70620 0.26500 0.16500
H 	H 	0.09340 0.93940 0.21780 -0.05900
H 	H 	0.42950 0.49870 0.21120 0.20500
H 	H 	0.33270 0.49630 0.17630 0.21900
H 	H 	0.63310 0.38090 0.18140 0.20000
H 	H 	0.77720 0.24020 0.12350 -0.10200
H 	H 	0.72730 0.12970 0.06960 0.18900
H 	H 	0.38900 0.30100 0.13160 0.20600
H 	H 	0.43680 0.16460 0.05840 0.21900
H 	H 	0.56110 0.12070 0.02300 0.22300
H 	H 	0.51590 0.15230 0.36780 -0.01800
H 	H 	0.65380 0.06120 0.43560 0.11700
H 	H 	0.39050 0.18470 0.55960 0.11600
H 	H 	0.25990 0.27310 0.48870 -0.03000
H 	H 	0.59970 0.02010 0.58250 0.14600
H 	H 	0.70310 0.00770 0.53500 0.14100
H 	H 	0.69180 0.12700 0.60930 -0.03900
H 	H 	0.56330 0.21850 0.59320 -0.04200
H 	H 	0.76800 0.16960 0.51720 0.14200
H 	H 	0.63910 0.26370 0.50260 0.15200
H 	H 	0.87950 0.22330 0.57860 0.11800
H 	H 	0.89900 0.36920 0.61760 -0.02900
H 	H 	0.57190 0.59230 0.59460 -0.03300
H 	H 	0.54270 0.45270 0.55430 0.12200
H 	H 	0.37680 0.13300 0.27590 -0.03200
H 	H 	0.38500 0.96520 0.24670 0.15400
H 	H 	0.06640 0.04860 0.32810 0.13600
H 	H 	0.06810 0.21290 0.35770 -0.03500
H 	H 	0.26080 0.81120 0.29940 0.16300
H 	H 	0.29380 0.84340 0.23500 0.16600
H 	H 	0.06060 0.90660 0.28220 -0.05900
C 	C 	0.39542 0.35442 0.75333 0.46700
C 	C 	0.44730 0.39930 0.69952 -0.62900
C 	C 	0.35600 0.49560 0.66247 0.45800
C 	C 	0.33693 0.61233 0.65984 -0.47000
C 	C 	0.25250 0.69870 0.62520 0.36200
C 	C 	0.18600 0.66880 0.59280 -0.47000
C 	C 	0.20328 0.55328 0.59517 0.45400
C 	C 	0.28866 0.46746 0.63001 -0.50300
C 	C 	0.12700 0.52200 0.56181 -0.63200
C 	C 	0.00285 0.56085 0.59249 0.48500
C 	C 	0.15999 0.49039 0.90687 0.13100
C 	C 	0.10482 0.57402 0.94750 -0.26200
C 	C 	0.11498 0.53838 0.00599 0.24400
C 	C 	0.17786 0.41866 0.02085 -0.26400
C 	C 	0.23070 0.34050 0.97777 0.12800
C 	C 	0.06337 0.62657 0.05190 -0.39900
C 	C 	0.16183 0.64043 0.07757 0.20100
C 	C 	0.22636 0.69176 0.03373 -0.40900
C 	C 	0.32086 0.70846 0.06052 0.24600
C 	C 	0.29830 0.81510 0.08080 -0.28100
C 	C 	0.38689 0.82609 0.10423 0.13600
C 	C 	0.51713 0.63533 0.09080 0.14000
C 	C 	0.43319 0.61699 0.06660 -0.27800
C 	C 	0.11526 0.31346 0.78740 0.16500
C 	C 	0.01427 0.31887 0.76937 -0.30400
C 	C 	0.98524 0.22704 0.78452 0.29100
C 	C 	0.06320 0.13200 0.81750 -0.29400
C 	C 	0.16263 0.13323 0.83490 0.16000
C 	C 	0.87103 0.23403 0.76720 -0.47200
C 	C 	0.64558 0.60458 0.74667 0.46700
C 	C 	0.60070 0.55270 0.80048 -0.62800
C 	C 	0.50440 0.64400 0.83753 0.45800
C 	C 	0.38767 0.66307 0.84016 -0.47000
C 	C 	0.30130 0.74750 0.87480 0.36100
C 	C 	0.33120 0.81400 0.90720 -0.46900
C 	C 	0.44672 0.79672 0.90483 0.45300
C 	C 	0.53254 0.71134 0.86999 -0.50300
C 	C 	0.47800 0.87300 0.93819 -0.63000
C 	C 	0.43915 0.99715 0.90751 0.48200
C 	C 	0.50961 0.84001 0.59313 0.13100
C 	C 	0.42598 0.89518 0.55250 -0.26300
C 	C 	0.46162 0.88502 0.49401 0.24500
C 	C 	0.58134 0.82214 0.47915 -0.26300
C 	C 	0.65950 0.76930 0.52223 0.12700
C 	C 	0.37343 0.93663 0.44810 -0.40000
C 	C 	0.35957 0.83817 0.42243 0.20100
C 	C 	0.30824 0.77364 0.46627 -0.40900
C 	C 	0.29154 0.67914 0.43948 0.24600
C 	C 	0.18490 0.70170 0.41920 -0.28100
C 	C 	0.17391 0.61311 0.39577 0.13600
C 	C 	0.36467 0.48287 0.40920 0.14000
C 	C 	0.38301 0.56681 0.43340 -0.27800
C 	C 	0.68654 0.88474 0.71260 0.16800
C 	C 	0.68113 0.98573 0.73063 -0.31100
C 	C 	0.77296 0.01476 0.71548 0.29600
C 	C 	0.86800 0.93680 0.68250 -0.29900
C 	C 	0.86677 0.83737 0.66510 0.16200
C 	C 	0.76597 0.12897 0.73280 -0.47400
C 	C 	0.60458 0.64558 0.24667 0.46700
C 	C 	0.55270 0.60070 0.30048 -0.62900
C 	C 	0.64400 0.50440 0.33753 0.45800
C 	C 	0.66307 0.38767 0.34016 -0.47000
C 	C 	0.74750 0.30130 0.37480 0.36200
C 	C 	0.81400 0.33120 0.40720 -0.47000
C 	C 	0.79672 0.44672 0.40483 0.45400
C 	C 	0.71134 0.53254 0.36999 -0.50300
C 	C 	0.87300 0.47800 0.43819 -0.63200
C 	C 	0.99715 0.43915 0.40751 0.48500
C 	C 	0.84001 0.50961 0.09313 0.13100
C 	C 	0.89518 0.42598 0.05250 -0.26200
C 	C 	0.88502 0.46162 0.99401 0.24400
C 	C 	0.82214 0.58134 0.97915 -0.26400
C 	C 	0.76930 0.65950 0.02223 0.12800
C 	C 	0.93663 0.37343 0.94810 -0.39900
C 	C 	0.83817 0.35957 0.92243 0.20100
C 	C 	0.77364 0.30824 0.96627 -0.40900
C 	C 	0.67914 0.29154 0.93948 0.24600
C 	C 	0.70170 0.18490 0.91920 -0.28100
C 	C 	0.61311 0.17391 0.89577 0.13600
C 	C 	0.48287 0.36467 0.90920 0.14000
C 	C 	0.56681 0.38301 0.93340 -0.27800
C 	C 	0.88474 0.68654 0.21260 0.16500
C 	C 	0.98573 0.68113 0.23063 -0.30400
C 	C 	0.01476 0.77296 0.21548 0.29100
C 	C 	0.93680 0.86800 0.18250 -0.29400
C 	C 	0.83737 0.86677 0.16510 0.16000
C 	C 	0.12897 0.76597 0.23280 -0.47200
C 	C 	0.35442 0.39542 0.25333 0.46700
C 	C 	0.39930 0.44730 0.19952 -0.62800
C 	C 	0.49560 0.35600 0.16247 0.45800
C 	C 	0.61233 0.33693 0.15984 -0.47000
C 	C 	0.69870 0.25250 0.12520 0.36100
C 	C 	0.66880 0.18600 0.09280 -0.46900
C 	C 	0.55328 0.20328 0.09517 0.45300
C 	C 	0.46746 0.28866 0.13001 -0.50300
C 	C 	0.52200 0.12700 0.06181 -0.63000
C 	C 	0.56085 0.00285 0.09249 0.48200
C 	C 	0.49039 0.15999 0.40687 0.13100
C 	C 	0.57402 0.10482 0.44750 -0.26300
C 	C 	0.53838 0.11498 0.50599 0.24500
C 	C 	0.41866 0.17786 0.52085 -0.26300
C 	C 	0.34050 0.23070 0.47777 0.12700
C 	C 	0.62657 0.06337 0.55190 -0.40000
C 	C 	0.64043 0.16183 0.57757 0.20100
C 	C 	0.69176 0.22636 0.53373 -0.40900
C 	C 	0.70846 0.32086 0.56052 0.24600
C 	C 	0.81510 0.29830 0.58080 -0.28100
C 	C 	0.82609 0.38689 0.60423 0.13600
C 	C 	0.63533 0.51713 0.59080 0.14000
C 	C 	0.61699 0.43319 0.56660 -0.27800
C 	C 	0.31346 0.11526 0.28740 0.16800
C 	C 	0.31887 0.01427 0.26937 -0.31100
C 	C 	0.22704 0.98524 0.28452 0.29600
C 	C 	0.13200 0.06320 0.31750 -0.29900
C 	C 	0.13323 0.16263 0.33490 0.16200
C 	C 	0.23403 0.87103 0.26720 -0.47400
C 	C 	0.87960 0.12040 0.75000 0.27900
C 	C 	0.12040 0.87960 0.25000 0.27900
N 	N 	0.22391 0.37451 0.92135 -0.25500
N 	N 	0.49593 0.73873 0.10883 -0.25700
N 	N 	0.19020 0.22300 0.82057 -0.26700
N 	N 	0.62549 0.77609 0.57865 -0.25500
N 	N 	0.26127 0.50407 0.39117 -0.25700
N 	N 	0.77700 0.80980 0.67943 -0.26800
N 	N 	0.77609 0.62549 0.07865 -0.25500
N 	N 	0.50407 0.26127 0.89117 -0.25700
N 	N 	0.80980 0.77700 0.17943 -0.26700
N 	N 	0.37451 0.22391 0.42135 -0.25500
N 	N 	0.73873 0.49593 0.60883 -0.25700
N 	N 	0.22300 0.19020 0.32057 -0.26800
O 	O 	0.43636 0.24396 0.76438 -0.45100
O 	O 	0.31622 0.42782 0.78534 -0.38700
O 	O 	0.99075 0.51175 0.64039 -0.40500
O 	O 	0.91622 0.64302 0.56933 -0.44500
O 	O 	0.75604 0.56364 0.73562 -0.45100
O 	O 	0.57218 0.68378 0.71466 -0.38700
O 	O 	0.48825 0.00925 0.85961 -0.40300
O 	O 	0.35698 0.08378 0.93067 -0.44300
O 	O 	0.56364 0.75604 0.23562 -0.45100
O 	O 	0.68378 0.57218 0.21466 -0.38700
O 	O 	0.00925 0.48825 0.35961 -0.40500
O 	O 	0.08378 0.35698 0.43067 -0.44500
O 	O 	0.24396 0.43636 0.26438 -0.45100
O 	O 	0.42782 0.31622 0.28534 -0.38700
O 	O 	0.51175 0.99075 0.14039 -0.40300
O 	O 	0.64302 0.91622 0.06933 -0.44300
