data_crystal

_cell_length_a 16.73180
_cell_length_b 18.11050
_cell_length_c 16.47210
_cell_angle_alpha 90.00000
_cell_angle_beta  110.61800
_cell_angle_gamma 90.00000

_symmetry_space_group_name_	'P 1'
_symmetry_space_group_name_H-M	'P 1'

loop_
_symmetry_equiv_pos_as_xyz
  x,y,z

loop_
_atom_site_label
_atom_site_type_symbol
_atom_site_fract_x
_atom_site_fract_y
_atom_site_fract_z
_atom_site_charge
Zn	Zn	0.18556 0.61050 0.12745 1.22900
Zn	Zn	0.30781 0.61736 0.36201 1.24000
C 	C 	0.07420 0.73973 0.27300 -0.24300
C 	C 	0.10190 0.77346 0.35350 0.15800
H 	H 	0.15700 0.76500 0.39210 0.01400
C 	C 	0.04800 0.81968 0.37690 -0.23300
C 	C 	0.96540 0.83114 0.31950 0.14000
H 	H 	0.92910 0.86210 0.33540 -0.00300
C 	C 	0.93610 0.79706 0.23870 -0.09500
C 	C 	0.99140 0.75168 0.21530 0.14000
H 	H 	0.97310 0.72920 0.16110 0.01800
C 	C 	0.84630 0.81024 0.18120 0.05100
C 	C 	0.81250 0.88030 0.17600 -0.02500
H 	H 	0.84710 0.91870 0.20610 0.06900
C 	C 	0.72710 0.89450 0.12620 -0.11100
C 	C 	0.67630 0.83760 0.08130 0.02500
H 	H 	0.61970 0.84650 0.04740 0.02800
C 	C 	0.70950 0.76690 0.08640 -0.07300
C 	C 	0.79440 0.75380 0.13580 -0.04600
H 	H 	0.81660 0.70640 0.13820 0.07300
C 	C 	0.13500 0.69131 0.25050 0.47700
C 	C 	0.07690 0.85737 0.46250 0.43600
C 	C 	0.69480 0.97070 0.12660 0.44400
C 	C 	0.65360 0.70390 0.04360 0.31700
C 	C 	0.23290 0.38530 0.11000 -0.10400
C 	C 	0.18630 0.32421 0.07080 0.02400
H 	H 	0.13100 0.32970 0.03150 0.03500
C 	C 	0.22210 0.25437 0.09000 -0.08200
C 	C 	0.30590 0.24728 0.14610 -0.03000
H 	H 	0.33010 0.20050 0.15770 0.05200
C 	C 	0.35400 0.30763 0.18500 0.01300
C 	C 	0.31660 0.37693 0.16850 -0.02300
H 	H 	0.34720 0.41810 0.19630 0.05500
C 	C 	0.44320 0.29600 0.24640 -0.01100
C 	C 	0.49630 0.24554 0.22730 0.00800
H 	H 	0.47830 0.22190 0.17370 0.04900
C 	C 	0.57670 0.23008 0.28810 -0.13300
C 	C 	0.60290 0.26429 0.36770 0.06800
H 	H 	0.65550 0.25230 0.40910 0.04300
C 	C 	0.55190 0.31627 0.38663 -0.12100
C 	C 	0.47190 0.33244 0.32550 -0.00200
H 	H 	0.43760 0.36790 0.33780 0.04600
C 	C 	0.19330 0.46050 0.09100 0.37800
C 	C 	0.17250 0.18620 0.05450 0.31000
C 	C 	0.63630 0.17820 0.26790 0.44300
C 	C 	0.58090 0.35326 0.47330 0.40700
O 	O 	0.11540 0.67073 0.17315 -0.52300
O 	O 	0.20151 0.67451 0.31014 -0.50700
O 	O 	0.15415 0.85034 0.50945 -0.45300
O 	O 	0.02303 0.89189 0.48405 -0.51500
O 	O 	0.74780 0.02259 0.14414 -0.54800
O 	O 	0.61687 0.98172 0.11421 -0.46900
O 	O 	0.57920 0.71780 0.99350 -0.20100
O 	O 	0.68340 0.64009 0.06060 -0.44900
H 	H 	0.65930 0.60460 0.02710 0.24500
O 	O 	0.12981 0.46903 0.02258 -0.49700
O 	O 	0.22763 0.51054 0.14498 -0.50300
O 	O 	0.09652 0.19874 0.99961 -0.39200
H 	H 	0.07160 0.15830 0.97970 0.24300
O 	O 	0.20104 0.12474 0.07490 -0.29900
O 	O 	0.61577 0.15616 0.19146 -0.51100
O 	O 	0.70190 0.16067 0.32837 -0.49400
O 	O 	0.65689 0.33995 0.52235 -0.45800
O 	O 	0.53132 0.39331 0.49372 -0.51300
Zn	Zn	0.81444 0.11050 0.37255 1.22800
Zn	Zn	0.69219 0.11736 0.13799 1.23300
C 	C 	0.92580 0.23973 0.22700 0.00600
C 	C 	0.89810 0.27346 0.14650 -0.05600
H 	H 	0.84300 0.26500 0.10790 0.07400
C 	C 	0.95200 0.31968 0.12310 0.02800
C 	C 	0.03460 0.33114 0.18050 -0.16400
H 	H 	0.07090 0.36210 0.16460 0.07600
C 	C 	0.06390 0.29706 0.26130 0.09800
C 	C 	0.00860 0.25168 0.28470 -0.15700
H 	H 	0.02690 0.22920 0.33890 0.09700
C 	C 	0.15370 0.31024 0.31880 -0.05900
C 	C 	0.18750 0.38030 0.32400 0.03800
H 	H 	0.15290 0.41870 0.29390 0.02200
C 	C 	0.27290 0.39450 0.37380 -0.13500
C 	C 	0.32370 0.33760 0.41870 0.06800
H 	H 	0.38030 0.34650 0.45260 0.02300
C 	C 	0.29050 0.26690 0.41360 -0.12600
C 	C 	0.20560 0.25380 0.36420 0.03600
H 	H 	0.18340 0.20640 0.36180 0.03900
C 	C 	0.86500 0.19131 0.24950 0.39300
C 	C 	0.92310 0.35737 0.03750 0.28700
C 	C 	0.30520 0.47070 0.37340 0.37700
C 	C 	0.34640 0.20390 0.45640 0.40800
C 	C 	0.76710 0.88530 0.39000 -0.11100
C 	C 	0.81370 0.82421 0.42920 0.04400
H 	H 	0.86900 0.82970 0.46850 0.06100
C 	C 	0.77790 0.75437 0.41000 -0.08800
C 	C 	0.69410 0.74728 0.35390 -0.01500
H 	H 	0.66990 0.70050 0.34230 0.05500
C 	C 	0.64600 0.80763 0.31500 0.00600
C 	C 	0.68340 0.87693 0.33150 -0.00400
H 	H 	0.65280 0.91810 0.30370 0.06600
C 	C 	0.55680 0.79600 0.25360 0.00800
C 	C 	0.50370 0.74554 0.27270 -0.00400
H 	H 	0.52170 0.72190 0.32630 0.06100
C 	C 	0.42330 0.73008 0.21190 -0.11500
C 	C 	0.39710 0.76429 0.13230 0.04600
H 	H 	0.34450 0.75230 0.09090 0.04200
C 	C 	0.44810 0.81627 0.11337 -0.09400
C 	C 	0.52810 0.83244 0.17450 -0.02000
H 	H 	0.56240 0.86790 0.16220 0.05600
C 	C 	0.80670 0.96050 0.40900 0.46100
C 	C 	0.82750 0.68620 0.44550 0.37800
C 	C 	0.36370 0.67820 0.23210 0.43800
C 	C 	0.41910 0.85326 0.02670 0.33700
O 	O 	0.88460 0.17073 0.32685 -0.47700
O 	O 	0.79849 0.17451 0.18986 -0.48800
O 	O 	0.84585 0.35034 0.99055 -0.38300
O 	O 	0.97697 0.39189 0.01595 -0.47100
O 	O 	0.25220 0.52259 0.35586 -0.47900
O 	O 	0.38313 0.48172 0.38579 -0.48000
O 	O 	0.42080 0.21780 0.50650 -0.27600
O 	O 	0.31660 0.14009 0.43940 -0.48500
H 	H 	0.34070 0.10460 0.47290 0.26300
O 	O 	0.87019 0.96903 0.47742 -0.44200
O 	O 	0.77237 0.01054 0.35502 -0.57100
O 	O 	0.90348 0.69874 0.50039 -0.44300
H 	H 	0.92840 0.65830 0.52030 0.26900
O 	O 	0.79896 0.62474 0.42510 -0.27400
O 	O 	0.38423 0.65616 0.30854 -0.49400
O 	O 	0.29810 0.66067 0.17163 -0.49000
O 	O 	0.34311 0.83995 0.97765 -0.39200
O 	O 	0.46868 0.89331 0.00628 -0.49600
Zn	Zn	0.81444 0.38950 0.87255 1.23200
Zn	Zn	0.69219 0.38264 0.63799 1.23800
C 	C 	0.92580 0.26027 0.72700 -0.00200
C 	C 	0.89810 0.22654 0.64650 -0.03600
H 	H 	0.84300 0.23500 0.60790 0.07800
C 	C 	0.95200 0.18032 0.62310 0.00300
C 	C 	0.03460 0.16886 0.68050 -0.14200
H 	H 	0.07090 0.13790 0.66460 0.06600
C 	C 	0.06390 0.20294 0.76130 0.08700
C 	C 	0.00860 0.24832 0.78470 -0.14300
H 	H 	0.02690 0.27080 0.83890 0.10100
C 	C 	0.15370 0.18976 0.81880 -0.04800
C 	C 	0.18750 0.11970 0.82400 0.02100
H 	H 	0.15290 0.08130 0.79390 0.01500
C 	C 	0.27290 0.10550 0.87380 -0.10800
C 	C 	0.32370 0.16240 0.91870 0.06500
H 	H 	0.38030 0.15350 0.95260 0.03600
C 	C 	0.29050 0.23310 0.91360 -0.13000
C 	C 	0.20560 0.24620 0.86420 0.03900
H 	H 	0.18340 0.29360 0.86180 0.05000
C 	C 	0.86500 0.30869 0.74950 0.39700
C 	C 	0.92310 0.14263 0.53750 0.35400
C 	C 	0.30520 0.02930 0.87340 0.28800
C 	C 	0.34640 0.29610 0.95640 0.48700
C 	C 	0.76710 0.61470 0.89000 -0.08200
C 	C 	0.81370 0.67579 0.92920 0.03600
H 	H 	0.86900 0.67030 0.96850 0.07600
C 	C 	0.77790 0.74563 0.91000 -0.08100
C 	C 	0.69410 0.75272 0.85390 -0.01700
H 	H 	0.66990 0.79950 0.84230 0.06600
C 	C 	0.64600 0.69237 0.81500 0.01900
C 	C 	0.68340 0.62307 0.83150 -0.02000
H 	H 	0.65280 0.58190 0.80370 0.06000
C 	C 	0.55680 0.70400 0.75360 -0.00000
C 	C 	0.50370 0.75446 0.77270 0.00300
H 	H 	0.52170 0.77810 0.82630 0.06700
C 	C 	0.42330 0.76992 0.71190 -0.11500
C 	C 	0.39710 0.73571 0.63230 0.06200
H 	H 	0.34450 0.74770 0.59090 0.04900
C 	C 	0.44810 0.68373 0.61337 -0.11400
C 	C 	0.52810 0.66756 0.67450 -0.00500
H 	H 	0.56240 0.63210 0.66220 0.04800
C 	C 	0.80670 0.53950 0.90900 0.37400
C 	C 	0.82750 0.81380 0.94550 0.43300
C 	C 	0.36370 0.82180 0.73210 0.44000
C 	C 	0.41910 0.64674 0.52670 0.40600
O 	O 	0.88460 0.32927 0.82685 -0.46600
O 	O 	0.79849 0.32549 0.68986 -0.48300
O 	O 	0.84585 0.14966 0.49055 -0.44700
O 	O 	0.97697 0.10811 0.51595 -0.47900
O 	O 	0.25220 0.97741 0.85586 -0.39400
O 	O 	0.38313 0.01828 0.88579 -0.47200
O 	O 	0.42080 0.28220 0.00650 -0.34000
O 	O 	0.31660 0.35991 0.93940 -0.50100
H 	H 	0.34070 0.39540 0.97290 0.30300
O 	O 	0.87019 0.53097 0.97742 -0.42900
O 	O 	0.77237 0.48946 0.85502 -0.48800
O 	O 	0.90348 0.80126 0.00039 -0.50100
H 	H 	0.92840 0.84170 0.02030 0.28100
O 	O 	0.79896 0.87526 0.92510 -0.25400
O 	O 	0.38423 0.84384 0.80854 -0.47900
O 	O 	0.29810 0.83933 0.67163 -0.48100
O 	O 	0.34311 0.66005 0.47765 -0.45500
O 	O 	0.46868 0.60669 0.50628 -0.51300
Zn	Zn	0.18556 0.88950 0.62745 1.23300
Zn	Zn	0.30781 0.88264 0.86201 1.24400
C 	C 	0.07420 0.76027 0.77300 -0.23800
C 	C 	0.10190 0.72654 0.85350 0.17000
H 	H 	0.15700 0.73500 0.89210 0.02000
C 	C 	0.04800 0.68032 0.87690 -0.24900
C 	C 	0.96540 0.66886 0.81950 0.14900
H 	H 	0.92910 0.63790 0.83540 -0.00900
C 	C 	0.93610 0.70294 0.73870 -0.09700
C 	C 	0.99140 0.74832 0.71530 0.13900
H 	H 	0.97310 0.77080 0.66110 0.02600
C 	C 	0.84630 0.68976 0.68120 0.05700
C 	C 	0.81250 0.61970 0.67600 -0.03600
H 	H 	0.84710 0.58130 0.70610 0.05900
C 	C 	0.72710 0.60550 0.62620 -0.09000
C 	C 	0.67630 0.66240 0.58130 0.02500
H 	H 	0.61970 0.65350 0.54740 0.03700
C 	C 	0.70950 0.73310 0.58640 -0.07900
C 	C 	0.79440 0.74620 0.63580 -0.03900
H 	H 	0.81660 0.79360 0.63820 0.08200
C 	C 	0.13500 0.80869 0.75050 0.47700
C 	C 	0.07690 0.64263 0.96250 0.50400
C 	C 	0.69480 0.52930 0.62660 0.36000
C 	C 	0.65360 0.79610 0.54360 0.39300
C 	C 	0.23290 0.11470 0.61000 -0.07400
C 	C 	0.18630 0.17579 0.57080 0.01700
H 	H 	0.13100 0.17030 0.53150 0.05200
C 	C 	0.22210 0.24563 0.59000 -0.07700
C 	C 	0.30590 0.25272 0.64610 -0.03100
H 	H 	0.33010 0.29950 0.65770 0.06200
C 	C 	0.35400 0.19237 0.68500 0.02500
C 	C 	0.31660 0.12307 0.66850 -0.04000
H 	H 	0.34720 0.08190 0.69630 0.04900
C 	C 	0.44320 0.20400 0.74640 -0.01800
C 	C 	0.49630 0.25446 0.72730 0.01400
H 	H 	0.47830 0.27810 0.67370 0.05400
C 	C 	0.57670 0.26992 0.78810 -0.13200
C 	C 	0.60290 0.23571 0.86770 0.08200
H 	H 	0.65550 0.24770 0.90910 0.05000
C 	C 	0.55190 0.18373 0.88663 -0.13800
C 	C 	0.47190 0.16756 0.82550 0.01200
H 	H 	0.43760 0.13210 0.83780 0.03900
C 	C 	0.19330 0.03950 0.59100 0.28700
C 	C 	0.17250 0.31380 0.55450 0.37300
C 	C 	0.63630 0.32180 0.76790 0.44500
C 	C 	0.58090 0.14674 0.97330 0.47200
O 	O 	0.11540 0.82927 0.67315 -0.50900
O 	O 	0.20151 0.82549 0.81014 -0.50000
O 	O 	0.15415 0.64966 0.00945 -0.52100
O 	O 	0.02303 0.60811 0.98405 -0.52400
O 	O 	0.74780 0.47741 0.64414 -0.46800
O 	O 	0.61687 0.51828 0.61421 -0.47500
O 	O 	0.57920 0.78220 0.49350 -0.26200
O 	O 	0.68340 0.85991 0.56060 -0.46500
H 	H 	0.65930 0.89540 0.52710 0.28300
O 	O 	0.12981 0.03097 0.52258 -0.48100
O 	O 	0.22763 0.98946 0.64498 -0.41500
O 	O 	0.09652 0.30126 0.49961 -0.45700
H 	H 	0.07160 0.34170 0.47970 0.25500
O 	O 	0.20104 0.37526 0.57490 -0.27900
O 	O 	0.61577 0.34384 0.69146 -0.49600
O 	O 	0.70190 0.33933 0.82837 -0.48500
O 	O 	0.65689 0.16005 0.02235 -0.52000
O 	O 	0.53132 0.10669 0.99372 -0.51400
Zn	Zn	-0.00000 0.50000 -0.00000 1.16100
Zn	Zn	0.00000 0.00000 0.50000 1.15500
Zn	Zn	0.50000 0.50000 0.50000 1.19700
Zn	Zn	0.50000 0.00000 -0.00000 1.16000
