data_crystal

_cell_length_a 14.32000
_cell_length_b 8.77890
_cell_length_c 27.65300
_cell_angle_alpha 90.00000
_cell_angle_beta  90.30540
_cell_angle_gamma 90.00000

_symmetry_space_group_name_	'P 1'
_symmetry_space_group_name_H-M	'P 1'

loop_
_symmetry_equiv_pos_as_xyz
  x,y,z

loop_
_atom_site_label
_atom_site_type_symbol
_atom_site_fract_x
_atom_site_fract_y
_atom_site_fract_z
_atom_site_charge
C 	C 	0.46896 0.35448 0.43669 0.04400
C 	C 	0.38633 0.38500 0.46145 -0.10600
H 	H 	0.33650 0.43400 0.44480 0.06600
C 	C 	0.37501 0.34551 0.50985 0.04900
C 	C 	0.44734 0.26924 0.53370 -0.10900
H 	H 	0.44010 0.24060 0.56660 0.06800
C 	C 	0.53048 0.23445 0.50967 0.04700
C 	C 	0.54070 0.27843 0.46139 -0.10900
H 	H 	0.59730 0.25630 0.44510 0.06800
C 	C 	0.49671 0.55610 0.23706 0.34900
C 	C 	0.49301 0.50706 0.28947 -0.10100
C 	C 	0.43724 0.58516 0.32238 0.02400
H 	H 	0.40330 0.67250 0.31220 0.03000
C 	C 	0.43111 0.53593 0.36990 -0.09600
H 	H 	0.39370 0.59140 0.39210 0.06200
C 	C 	0.47900 0.40584 0.38593 0.02900
C 	C 	0.53680 0.33096 0.35295 -0.09500
H 	H 	0.57160 0.24440 0.36310 0.06100
C 	C 	0.54380 0.38189 0.30550 0.02200
H 	H 	0.58390 0.33030 0.28370 0.03700
C 	C 	0.04429 0.60724 0.59725 0.31200
C 	C 	0.13065 0.53707 0.57589 -0.07900
C 	C 	0.12532 0.46806 0.53046 0.01600
H 	H 	0.06750 0.46720 0.51340 0.05500
C 	C 	0.20331 0.40068 0.50987 -0.08200
H 	H 	0.19850 0.35540 0.47880 0.07200
C 	C 	0.28902 0.39879 0.53457 0.02700
C 	C 	0.29330 0.46322 0.58076 -0.08600
H 	H 	0.35010 0.45880 0.59860 0.06500
C 	C 	0.21559 0.53391 0.60101 0.01500
H 	H 	0.22040 0.58010 0.63200 0.04300
C 	C 	0.83885 0.92709 0.60603 0.32000
C 	C 	0.75793 0.00492 0.58122 -0.08300
C 	C 	0.66585 0.96536 0.59152 0.01300
H 	H 	0.65330 0.88660 0.61410 0.03900
C 	C 	0.59211 0.04085 0.56877 -0.08300
H 	H 	0.52970 0.01380 0.57640 0.06000
C 	C 	0.60877 0.15576 0.53496 0.02400
C 	C 	0.70173 0.19588 0.52514 -0.08600
H 	H 	0.71450 0.27470 0.50260 0.06500
C 	C 	0.77498 0.12146 0.54811 0.01400
H 	H 	0.83750 0.15020 0.54120 0.04800
O 	O 	0.44770 0.67428 0.22725 -0.46700
O 	O 	0.54327 0.48226 0.20809 -0.27900
O 	O 	0.96847 0.59222 0.57642 -0.31800
O 	O 	0.05439 0.67992 0.63764 -0.43500
O 	O 	0.81924 0.81395 0.63337 -0.45500
O 	O 	0.91883 0.97679 0.59958 -0.29100
Zn	Zn	0.43119 0.77056 0.16406 1.20800
C 	C 	0.96896 0.14552 0.93669 0.04300
C 	C 	0.88633 0.11500 0.96145 -0.10400
H 	H 	0.83650 0.06600 0.94480 0.06700
C 	C 	0.87501 0.15449 0.00985 0.04900
C 	C 	0.94734 0.23076 0.03370 -0.10500
H 	H 	0.94010 0.25940 0.06660 0.06900
C 	C 	0.03048 0.26555 0.00967 0.04500
C 	C 	0.04070 0.22157 0.96139 -0.10500
H 	H 	0.09730 0.24370 0.94510 0.06800
C 	C 	0.99671 0.94390 0.73706 0.34800
C 	C 	0.99301 0.99294 0.78947 -0.10300
C 	C 	0.93724 0.91484 0.82238 0.02500
H 	H 	0.90330 0.82750 0.81220 0.02900
C 	C 	0.93111 0.96407 0.86990 -0.09800
H 	H 	0.89370 0.90860 0.89210 0.06300
C 	C 	0.97900 0.09416 0.88593 0.03000
C 	C 	0.03680 0.16904 0.85295 -0.09500
H 	H 	0.07160 0.25560 0.86310 0.06200
C 	C 	0.04380 0.11811 0.80550 0.02500
H 	H 	0.08390 0.16970 0.78370 0.03600
C 	C 	0.54429 0.89276 0.09725 0.31200
C 	C 	0.63065 0.96293 0.07589 -0.07900
C 	C 	0.62532 0.03194 0.03046 0.01500
H 	H 	0.56750 0.03280 0.01340 0.05500
C 	C 	0.70331 0.09932 0.00987 -0.08200
H 	H 	0.69850 0.14460 0.97880 0.07200
C 	C 	0.78902 0.10121 0.03457 0.02800
C 	C 	0.79330 0.03678 0.08076 -0.08700
H 	H 	0.85010 0.04120 0.09860 0.06500
C 	C 	0.71559 0.96609 0.10101 0.01600
H 	H 	0.72040 0.91990 0.13200 0.04300
C 	C 	0.33885 0.57291 0.10603 0.32100
C 	C 	0.25793 0.49508 0.08122 -0.08500
C 	C 	0.16585 0.53464 0.09152 0.01500
H 	H 	0.15330 0.61340 0.11410 0.03900
C 	C 	0.09211 0.45915 0.06877 -0.08500
H 	H 	0.02970 0.48620 0.07640 0.06000
C 	C 	0.10877 0.34424 0.03496 0.02600
C 	C 	0.20173 0.30412 0.02514 -0.08700
H 	H 	0.21450 0.22530 0.00260 0.06500
C 	C 	0.27498 0.37854 0.04811 0.01500
H 	H 	0.33750 0.34980 0.04120 0.04800
O 	O 	0.94770 0.82572 0.72725 -0.46700
O 	O 	0.04327 0.01774 0.70809 -0.27800
O 	O 	0.46847 0.90778 0.07642 -0.31700
O 	O 	0.55439 0.82008 0.13764 -0.43500
O 	O 	0.31924 0.68605 0.13337 -0.45500
O 	O 	0.41883 0.52321 0.09958 -0.29100
Zn	Zn	0.93119 0.72944 0.66406 1.20800
C 	C 	0.03104 0.85448 0.06331 0.04300
C 	C 	0.11367 0.88500 0.03855 -0.10400
H 	H 	0.16350 0.93400 0.05520 0.06700
C 	C 	0.12499 0.84551 0.99015 0.04900
C 	C 	0.05266 0.76924 0.96630 -0.10500
H 	H 	0.05990 0.74060 0.93340 0.06900
C 	C 	0.96952 0.73445 0.99033 0.04500
C 	C 	0.95930 0.77843 0.03861 -0.10500
H 	H 	0.90270 0.75630 0.05490 0.06800
C 	C 	0.00329 0.05610 0.26294 0.34800
C 	C 	0.00699 0.00706 0.21053 -0.10300
C 	C 	0.06276 0.08516 0.17762 0.02500
H 	H 	0.09670 0.17250 0.18780 0.02900
C 	C 	0.06889 0.03593 0.13010 -0.09800
H 	H 	0.10630 0.09140 0.10790 0.06300
C 	C 	0.02100 0.90584 0.11407 0.03000
C 	C 	0.96320 0.83096 0.14705 -0.09500
H 	H 	0.92840 0.74440 0.13690 0.06200
C 	C 	0.95620 0.88189 0.19450 0.02500
H 	H 	0.91610 0.83030 0.21630 0.03600
C 	C 	0.45571 0.10724 0.90275 0.31200
C 	C 	0.36935 0.03707 0.92411 -0.07900
C 	C 	0.37468 0.96806 0.96954 0.01500
H 	H 	0.43250 0.96720 0.98660 0.05500
C 	C 	0.29669 0.90068 0.99013 -0.08200
H 	H 	0.30150 0.85540 0.02120 0.07200
C 	C 	0.21098 0.89879 0.96543 0.02800
C 	C 	0.20670 0.96322 0.91924 -0.08700
H 	H 	0.14990 0.95880 0.90140 0.06500
C 	C 	0.28441 0.03391 0.89899 0.01600
H 	H 	0.27960 0.08010 0.86800 0.04300
C 	C 	0.66115 0.42709 0.89397 0.32100
C 	C 	0.74207 0.50492 0.91878 -0.08500
C 	C 	0.83415 0.46536 0.90848 0.01500
H 	H 	0.84670 0.38660 0.88590 0.03900
C 	C 	0.90789 0.54085 0.93123 -0.08500
H 	H 	0.97030 0.51380 0.92360 0.06000
C 	C 	0.89123 0.65576 0.96504 0.02600
C 	C 	0.79827 0.69588 0.97486 -0.08700
H 	H 	0.78550 0.77470 0.99740 0.06500
C 	C 	0.72502 0.62146 0.95189 0.01500
H 	H 	0.66250 0.65020 0.95880 0.04800
O 	O 	0.05230 0.17428 0.27275 -0.46700
O 	O 	0.95673 0.98226 0.29191 -0.27800
O 	O 	0.53153 0.09222 0.92358 -0.31700
O 	O 	0.44561 0.17992 0.86236 -0.43500
O 	O 	0.68076 0.31395 0.86663 -0.45500
O 	O 	0.58117 0.47679 0.90042 -0.29100
Zn	Zn	0.06881 0.27056 0.33594 1.20800
C 	C 	0.53104 0.64552 0.56331 0.04500
C 	C 	0.61367 0.61500 0.53855 -0.10500
H 	H 	0.66350 0.56600 0.55520 0.06700
C 	C 	0.62499 0.65449 0.49015 0.05000
C 	C 	0.55266 0.73076 0.46630 -0.10800
H 	H 	0.55990 0.75940 0.43340 0.06900
C 	C 	0.46952 0.76555 0.49033 0.04800
C 	C 	0.45930 0.72157 0.53861 -0.10800
H 	H 	0.40270 0.74370 0.55490 0.06800
C 	C 	0.50329 0.44390 0.76294 0.34900
C 	C 	0.50699 0.49294 0.71053 -0.10100
C 	C 	0.56276 0.41484 0.67762 0.02400
H 	H 	0.59670 0.32750 0.68780 0.03000
C 	C 	0.56889 0.46407 0.63010 -0.09600
H 	H 	0.60630 0.40860 0.60790 0.06200
C 	C 	0.52100 0.59416 0.61407 0.02900
C 	C 	0.46320 0.66904 0.64705 -0.09500
H 	H 	0.42840 0.75560 0.63690 0.06100
C 	C 	0.45620 0.61811 0.69450 0.02200
H 	H 	0.41610 0.66970 0.71630 0.03700
C 	C 	0.95571 0.39276 0.40275 0.31200
C 	C 	0.86935 0.46293 0.42411 -0.07900
C 	C 	0.87468 0.53194 0.46954 0.01600
H 	H 	0.93250 0.53280 0.48660 0.05500
C 	C 	0.79669 0.59932 0.49013 -0.08200
H 	H 	0.80150 0.64460 0.52120 0.07200
C 	C 	0.71098 0.60121 0.46543 0.02700
C 	C 	0.70670 0.53678 0.41924 -0.08600
H 	H 	0.64990 0.54120 0.40140 0.06500
C 	C 	0.78441 0.46609 0.39899 0.01500
H 	H 	0.77960 0.41990 0.36800 0.04300
C 	C 	0.16115 0.07291 0.39397 0.32000
C 	C 	0.24207 0.99508 0.41878 -0.08300
C 	C 	0.33415 0.03464 0.40848 0.01300
H 	H 	0.34670 0.11340 0.38590 0.03900
C 	C 	0.40789 0.95915 0.43123 -0.08300
H 	H 	0.47030 0.98620 0.42360 0.06000
C 	C 	0.39123 0.84424 0.46504 0.02400
C 	C 	0.29827 0.80412 0.47486 -0.08600
H 	H 	0.28550 0.72530 0.49740 0.06500
C 	C 	0.22502 0.87854 0.45189 0.01400
H 	H 	0.16250 0.84980 0.45880 0.04800
O 	O 	0.55230 0.32572 0.77275 -0.46700
O 	O 	0.45673 0.51774 0.79191 -0.27900
O 	O 	0.03153 0.40778 0.42358 -0.31800
O 	O 	0.94561 0.32008 0.36236 -0.43500
O 	O 	0.18076 0.18605 0.36663 -0.45500
O 	O 	0.08117 0.02321 0.40042 -0.29100
Zn	Zn	0.56881 0.22944 0.83594 1.20800
