data_crystal

_cell_length_a 18.25690
_cell_length_b 9.53820
_cell_length_c 16.93730
_cell_angle_alpha 90.00000
_cell_angle_beta  120.43400
_cell_angle_gamma 90.00000

_symmetry_space_group_name_	'P 1'
_symmetry_space_group_name_H-M	'P 1'

loop_
_symmetry_equiv_pos_as_xyz
  x,y,z

loop_
_atom_site_label
_atom_site_type_symbol
_atom_site_fract_x
_atom_site_fract_y
_atom_site_fract_z
_atom_site_charge
N 	N 	0.18290 0.58700 0.35197 -0.09000
Ba	Ba	0.01159 0.74678 0.99826 1.76400
Co	Co	0.22204 0.77995 0.30499 1.16600
P 	P 	0.14927 0.53355 0.18040 0.43900
O 	O 	0.07479 0.48730 0.09109 -0.56300
O 	O 	0.16425 0.69300 0.17968 -0.52600
O 	O 	0.23210 0.45580 0.21305 -0.46800
O 	O 	0.33534 0.69350 0.39039 -0.59900
O 	O 	0.40503 0.49600 0.45010 -0.58400
O 	O 	0.14157 0.86330 0.34141 -0.47600
O 	O 	0.04585 0.81890 0.38246 -0.46400
C 	C 	0.11871 0.51730 0.26630 -0.25600
H 	H 	0.06360 0.56030 0.24440 0.06300
H 	H 	0.11450 0.41900 0.27810 0.05200
C 	C 	0.25936 0.49960 0.40490 -0.35600
H 	H 	0.25040 0.40950 0.37470 0.10000
H 	H 	0.26740 0.48280 0.46530 0.09600
C 	C 	0.33859 0.56570 0.41490 0.45400
C 	C 	0.14440 0.63860 0.40450 -0.32000
H 	H 	0.18740 0.64250 0.46890 0.07800
H 	H 	0.10060 0.57380 0.39750 0.06300
C 	C 	0.10580 0.78340 0.37270 0.40900
N 	N 	0.68290 0.08700 0.35197 -0.09000
Ba	Ba	0.51159 0.24678 0.99826 1.82900
Co	Co	0.72204 0.27995 0.30499 1.16600
P 	P 	0.64927 0.03355 0.18040 0.43100
O 	O 	0.57479 0.98730 0.09109 -0.57600
O 	O 	0.66425 0.19300 0.17968 -0.53400
O 	O 	0.73210 0.95580 0.21305 -0.46700
O 	O 	0.83534 0.19350 0.39039 -0.59900
O 	O 	0.90503 0.99600 0.45010 -0.58400
O 	O 	0.64157 0.36330 0.34141 -0.47800
O 	O 	0.54585 0.31890 0.38246 -0.46600
C 	C 	0.61871 0.01730 0.26630 -0.26200
H 	H 	0.56360 0.06030 0.24440 0.05900
H 	H 	0.61450 0.91900 0.27810 0.05300
C 	C 	0.75936 0.99960 0.40490 -0.35200
H 	H 	0.75040 0.90950 0.37470 0.09900
H 	H 	0.76740 0.98280 0.46530 0.09400
C 	C 	0.83859 0.06570 0.41490 0.44900
C 	C 	0.64440 0.13860 0.40450 -0.31900
H 	H 	0.68740 0.14250 0.46890 0.07700
H 	H 	0.60060 0.07380 0.39750 0.06000
C 	C 	0.60580 0.28340 0.37270 0.40800
N 	N 	0.81710 0.58700 0.14803 -0.08900
Ba	Ba	0.98841 0.74678 0.50174 1.82100
Co	Co	0.77796 0.77995 0.19501 1.16700
P 	P 	0.85073 0.53355 0.31960 0.43900
O 	O 	0.92521 0.48730 0.40891 -0.57900
O 	O 	0.83575 0.69300 0.32032 -0.53300
O 	O 	0.76790 0.45580 0.28695 -0.47000
O 	O 	0.66466 0.69350 0.10961 -0.60000
O 	O 	0.59497 0.49600 0.04990 -0.58600
O 	O 	0.85843 0.86330 0.15859 -0.47800
O 	O 	0.95415 0.81890 0.11754 -0.46300
C 	C 	0.88129 0.51730 0.23370 -0.25300
H 	H 	0.93640 0.56030 0.25560 0.05700
H 	H 	0.88550 0.41900 0.22190 0.04800
C 	C 	0.74064 0.49960 0.09510 -0.35600
H 	H 	0.74960 0.40950 0.12530 0.09800
H 	H 	0.73260 0.48280 0.03470 0.09400
C 	C 	0.66141 0.56570 0.08510 0.45400
C 	C 	0.85560 0.63860 0.09550 -0.31900
H 	H 	0.81260 0.64250 0.03110 0.07800
H 	H 	0.89940 0.57380 0.10250 0.06100
C 	C 	0.89420 0.78340 0.12730 0.40700
N 	N 	0.31710 0.08700 0.14803 -0.09100
Ba	Ba	0.48841 0.24678 0.50174 1.81100
Co	Co	0.27796 0.27995 0.19501 1.16700
P 	P 	0.35073 0.03355 0.31960 0.43700
O 	O 	0.42521 0.98730 0.40891 -0.57800
O 	O 	0.33575 0.19300 0.32032 -0.53200
O 	O 	0.26790 0.95580 0.28695 -0.46700
O 	O 	0.16466 0.19350 0.10961 -0.58900
O 	O 	0.09497 0.99600 0.04990 -0.56200
O 	O 	0.35843 0.36330 0.15859 -0.47600
O 	O 	0.45415 0.31890 0.11754 -0.46700
C 	C 	0.38129 0.01730 0.23370 -0.26400
H 	H 	0.43640 0.06030 0.25560 0.06000
H 	H 	0.38550 0.91900 0.22190 0.05400
C 	C 	0.24064 0.99960 0.09510 -0.34300
H 	H 	0.24960 0.90950 0.12530 0.09800
H 	H 	0.23260 0.98280 0.03470 0.09700
C 	C 	0.16141 0.06570 0.08510 0.43800
C 	C 	0.35560 0.13860 0.09550 -0.31900
H 	H 	0.31260 0.14250 0.03110 0.07800
H 	H 	0.39940 0.07380 0.10250 0.05900
C 	C 	0.39420 0.28340 0.12730 0.40900
N 	N 	0.81710 0.41300 0.64803 -0.08900
Ba	Ba	0.98841 0.25322 0.00174 1.76500
Co	Co	0.77796 0.22005 0.69501 1.16700
P 	P 	0.85073 0.46645 0.81960 0.44000
O 	O 	0.92521 0.51270 0.90891 -0.56300
O 	O 	0.83575 0.30700 0.82032 -0.52600
O 	O 	0.76790 0.54420 0.78695 -0.46800
O 	O 	0.66466 0.30650 0.60961 -0.59900
O 	O 	0.59497 0.50400 0.54990 -0.58400
O 	O 	0.85843 0.13670 0.65859 -0.47600
O 	O 	0.95415 0.18110 0.61754 -0.46400
C 	C 	0.88129 0.48270 0.73370 -0.25600
H 	H 	0.93640 0.43970 0.75560 0.06300
H 	H 	0.88550 0.58100 0.72190 0.05200
C 	C 	0.74064 0.50040 0.59510 -0.35600
H 	H 	0.74960 0.59050 0.62530 0.10000
H 	H 	0.73260 0.51720 0.53470 0.09600
C 	C 	0.66141 0.43430 0.58510 0.45400
C 	C 	0.85560 0.36140 0.59550 -0.32000
H 	H 	0.81260 0.35750 0.53110 0.07800
H 	H 	0.89940 0.42620 0.60250 0.06300
C 	C 	0.89420 0.21660 0.62730 0.40900
N 	N 	0.31710 0.91300 0.64803 -0.09000
Ba	Ba	0.48841 0.75322 0.00174 1.82900
Co	Co	0.27796 0.72005 0.69501 1.16600
P 	P 	0.35073 0.96645 0.81960 0.43100
O 	O 	0.42521 0.01270 0.90891 -0.57600
O 	O 	0.33575 0.80700 0.82032 -0.53400
O 	O 	0.26790 0.04420 0.78695 -0.46700
O 	O 	0.16466 0.80650 0.60961 -0.59900
O 	O 	0.09497 0.00400 0.54990 -0.58400
O 	O 	0.35843 0.63670 0.65859 -0.47800
O 	O 	0.45415 0.68110 0.61754 -0.46600
C 	C 	0.38129 0.98270 0.73370 -0.26200
H 	H 	0.43640 0.93970 0.75560 0.05900
H 	H 	0.38550 0.08100 0.72190 0.05300
C 	C 	0.24064 0.00040 0.59510 -0.35200
H 	H 	0.24960 0.09050 0.62530 0.09900
H 	H 	0.23260 0.01720 0.53470 0.09400
C 	C 	0.16141 0.93430 0.58510 0.44900
C 	C 	0.35560 0.86140 0.59550 -0.31900
H 	H 	0.31260 0.85750 0.53110 0.07700
H 	H 	0.39940 0.92620 0.60250 0.06000
C 	C 	0.39420 0.71660 0.62730 0.40800
N 	N 	0.18290 0.41300 0.85197 -0.08900
Ba	Ba	0.01159 0.25322 0.49826 1.82100
Co	Co	0.22204 0.22005 0.80499 1.16700
P 	P 	0.14927 0.46645 0.68040 0.43900
O 	O 	0.07479 0.51270 0.59109 -0.57900
O 	O 	0.16425 0.30700 0.67968 -0.53300
O 	O 	0.23210 0.54420 0.71305 -0.47000
O 	O 	0.33534 0.30650 0.89039 -0.60000
O 	O 	0.40503 0.50400 0.95010 -0.58600
O 	O 	0.14157 0.13670 0.84141 -0.47800
O 	O 	0.04585 0.18110 0.88246 -0.46300
C 	C 	0.11871 0.48270 0.76630 -0.25300
H 	H 	0.06360 0.43970 0.74440 0.05700
H 	H 	0.11450 0.58100 0.77810 0.04800
C 	C 	0.25936 0.50040 0.90490 -0.35600
H 	H 	0.25040 0.59050 0.87470 0.09800
H 	H 	0.26740 0.51720 0.96530 0.09400
C 	C 	0.33859 0.43430 0.91490 0.45400
C 	C 	0.14440 0.36140 0.90450 -0.31900
H 	H 	0.18740 0.35750 0.96890 0.07800
H 	H 	0.10060 0.42620 0.89750 0.06100
C 	C 	0.10580 0.21660 0.87270 0.40700
N 	N 	0.68290 0.91300 0.85197 -0.09100
Ba	Ba	0.51159 0.75322 0.49826 1.81100
Co	Co	0.72204 0.72005 0.80499 1.16700
P 	P 	0.64927 0.96645 0.68040 0.43700
O 	O 	0.57479 0.01270 0.59109 -0.57800
O 	O 	0.66425 0.80700 0.67968 -0.53200
O 	O 	0.73210 0.04420 0.71305 -0.46700
O 	O 	0.83534 0.80650 0.89039 -0.58900
O 	O 	0.90503 0.00400 0.95010 -0.56200
O 	O 	0.64157 0.63670 0.84141 -0.47600
O 	O 	0.54585 0.68110 0.88246 -0.46700
C 	C 	0.61871 0.98270 0.76630 -0.26400
H 	H 	0.56360 0.93970 0.74440 0.06000
H 	H 	0.61450 0.08100 0.77810 0.05400
C 	C 	0.75936 0.00040 0.90490 -0.34300
H 	H 	0.75040 0.09050 0.87470 0.09800
H 	H 	0.76740 0.01720 0.96530 0.09700
C 	C 	0.83859 0.93430 0.91490 0.43800
C 	C 	0.64440 0.86140 0.90450 -0.31900
H 	H 	0.68740 0.85750 0.96890 0.07800
H 	H 	0.60060 0.92620 0.89750 0.05900
C 	C 	0.60580 0.71660 0.87270 0.40900
