data_crystal

_cell_length_a 32.84000
_cell_length_b 8.99800
_cell_length_c 34.21000
_cell_angle_alpha 90.00000
_cell_angle_beta  115.56400
_cell_angle_gamma 90.00000

_symmetry_space_group_name_	'P 1'
_symmetry_space_group_name_H-M	'P 1'

loop_
_symmetry_equiv_pos_as_xyz
  x,y,z

loop_
_atom_site_label
_atom_site_type_symbol
_atom_site_fract_x
_atom_site_fract_y
_atom_site_fract_z
_atom_site_charge
Sm	Sm	0.00381 0.85755 0.88103 1.78800
O 	O 	0.06850 0.91350 0.94906 -0.46900
O 	O 	0.13090 0.77110 0.96950 -0.30700
O 	O 	0.02980 0.09860 0.06839 -0.43800
O 	O 	0.07050 0.02900 0.13444 -0.44000
O 	O 	0.45320 0.81760 0.32786 -0.44500
O 	O 	0.46890 0.61710 0.30034 -0.41000
O 	O 	0.43880 0.70470 0.13940 -0.55300
O 	O 	0.36840 0.77040 0.09960 -0.56500
H 	H 	0.37350 0.73640 0.07990 0.33900
N 	N 	0.33060 0.08200 0.20000 -0.20500
H 	H 	0.31760 0.12180 0.17480 0.12300
N 	N 	0.18330 0.65990 0.12470 -0.21200
H 	H 	0.19990 0.61400 0.11490 0.12500
C 	C 	0.40280 0.75190 0.13560 0.49800
C 	C 	0.39730 0.80800 0.17550 -0.10500
C 	C 	0.42450 0.74790 0.21540 0.00200
H 	H 	0.44500 0.67260 0.21820 0.04100
C 	C 	0.42020 0.80390 0.25110 -0.05800
C 	C 	0.38930 0.91280 0.24710 -0.09200
H 	H 	0.38680 0.94740 0.27160 0.06100
C 	C 	0.36120 0.97280 0.20570 0.09200
C 	C 	0.36480 0.91220 0.17020 -0.07500
H 	H 	0.34510 0.94230 0.14250 0.07300
C 	C 	0.44960 0.74110 0.29600 0.31100
C 	C 	0.31800 0.13750 0.23350 -0.01800
H 	H 	0.34480 0.17230 0.25810 0.02700
H 	H 	0.30510 0.05700 0.24340 0.02500
C 	C 	0.28420 0.26320 0.21680 -0.08500
C 	C 	0.23770 0.23280 0.19510 0.09100
C 	C 	0.20800 0.35670 0.18020 0.10300
C 	C 	0.22420 0.50010 0.18590 -0.11300
C 	C 	0.27050 0.52970 0.20520 0.11800
C 	C 	0.30050 0.41170 0.22100 0.07000
C 	C 	0.22060 0.07540 0.18890 -0.57800
H 	H 	0.21240 0.04510 0.15950 0.19500
H 	H 	0.19460 0.06950 0.19480 0.18900
H 	H 	0.24380 0.01100 0.20830 0.19600
C 	C 	0.15750 0.32500 0.15810 -0.59600
H 	H 	0.14510 0.33520 0.17870 0.19900
H 	H 	0.15260 0.22550 0.14680 0.20100
H 	H 	0.14300 0.39410 0.13480 0.20600
C 	C 	0.35170 0.44400 0.24090 -0.56000
H 	H 	0.36800 0.35220 0.24530 0.19800
H 	H 	0.36060 0.49370 0.26820 0.19100
H 	H 	0.35830 0.50630 0.22160 0.19300
C 	C 	0.19110 0.63050 0.16850 -0.00100
H 	H 	0.16280 0.60590 0.16970 0.02400
H 	H 	0.20360 0.71790 0.18630 0.02000
C 	C 	0.15140 0.75540 0.09720 0.10900
C 	C 	0.14360 0.76010 0.05380 -0.10600
H 	H 	0.16170 0.70460 0.04450 0.08000
C 	C 	0.10880 0.84730 0.02410 -0.05000
C 	C 	0.08210 0.93560 0.03710 -0.02500
H 	H 	0.05930 0.99470 0.01730 0.05400
C 	C 	0.09060 0.93260 0.08050 -0.04900
C 	C 	0.12480 0.84610 0.11010 -0.10800
H 	H 	0.13020 0.84810 0.13910 0.06700
C 	C 	0.10120 0.84430 0.97670 0.33500
C 	C 	0.06320 0.03000 0.09600 0.30700
C 	C 	0.28870 0.68600 0.20910 -0.61400
H 	H 	0.26450 0.75240 0.19240 0.20900
H 	H 	0.31130 0.68890 0.19830 0.21000
H 	H 	0.30180 0.71580 0.23890 0.20300
Sm	Sm	0.50381 0.35755 0.88103 1.78900
O 	O 	0.56850 0.41350 0.94906 -0.46800
O 	O 	0.63090 0.27110 0.96950 -0.30600
O 	O 	0.52980 0.59860 0.06839 -0.43800
O 	O 	0.57050 0.52900 0.13444 -0.44000
O 	O 	0.95320 0.31760 0.32786 -0.44500
O 	O 	0.96890 0.11710 0.30034 -0.41000
O 	O 	0.93880 0.20470 0.13940 -0.55300
O 	O 	0.86840 0.27040 0.09960 -0.56500
H 	H 	0.87350 0.23640 0.07990 0.33900
N 	N 	0.83060 0.58200 0.20000 -0.20500
H 	H 	0.81760 0.62180 0.17480 0.12300
N 	N 	0.68330 0.15990 0.12470 -0.21200
H 	H 	0.69990 0.11400 0.11490 0.12500
C 	C 	0.90280 0.25190 0.13560 0.49800
C 	C 	0.89730 0.30800 0.17550 -0.10600
C 	C 	0.92450 0.24790 0.21540 0.00200
H 	H 	0.94500 0.17260 0.21820 0.04000
C 	C 	0.92020 0.30390 0.25110 -0.05800
C 	C 	0.88930 0.41280 0.24710 -0.09100
H 	H 	0.88680 0.44740 0.27160 0.06100
C 	C 	0.86120 0.47280 0.20570 0.09100
C 	C 	0.86480 0.41220 0.17020 -0.07400
H 	H 	0.84510 0.44230 0.14250 0.07300
C 	C 	0.94960 0.24110 0.29600 0.31100
C 	C 	0.81800 0.63750 0.23350 -0.01900
H 	H 	0.84480 0.67230 0.25810 0.02800
H 	H 	0.80510 0.55700 0.24340 0.02500
C 	C 	0.78420 0.76320 0.21680 -0.08400
C 	C 	0.73770 0.73280 0.19510 0.09100
C 	C 	0.70800 0.85670 0.18020 0.10500
C 	C 	0.72420 0.00010 0.18590 -0.11400
C 	C 	0.77050 0.02970 0.20520 0.11700
C 	C 	0.80050 0.91170 0.22100 0.07000
C 	C 	0.72060 0.57540 0.18890 -0.57900
H 	H 	0.71240 0.54510 0.15950 0.19600
H 	H 	0.69460 0.56950 0.19480 0.18900
H 	H 	0.74380 0.51100 0.20830 0.19600
C 	C 	0.65750 0.82500 0.15810 -0.59800
H 	H 	0.64510 0.83520 0.17870 0.19900
H 	H 	0.65260 0.72550 0.14680 0.20200
H 	H 	0.64300 0.89410 0.13480 0.20600
C 	C 	0.85170 0.94400 0.24090 -0.55400
H 	H 	0.86800 0.85220 0.24530 0.19700
H 	H 	0.86060 0.99370 0.26820 0.19000
H 	H 	0.85830 0.00630 0.22160 0.19000
C 	C 	0.69110 0.13050 0.16850 0.00000
H 	H 	0.66280 0.10590 0.16970 0.02400
H 	H 	0.70360 0.21790 0.18630 0.01900
C 	C 	0.65140 0.25540 0.09720 0.10800
C 	C 	0.64360 0.26010 0.05380 -0.10500
H 	H 	0.66170 0.20460 0.04450 0.08000
C 	C 	0.60880 0.34730 0.02410 -0.05200
C 	C 	0.58210 0.43560 0.03710 -0.02400
H 	H 	0.55930 0.49470 0.01730 0.05300
C 	C 	0.59060 0.43260 0.08050 -0.05100
C 	C 	0.62480 0.34610 0.11010 -0.10700
H 	H 	0.63020 0.34810 0.13910 0.06700
C 	C 	0.60120 0.34430 0.97670 0.33600
C 	C 	0.56320 0.53000 0.09600 0.30800
C 	C 	0.78870 0.18600 0.20910 -0.61300
H 	H 	0.76450 0.25240 0.19240 0.20900
H 	H 	0.81130 0.18890 0.19830 0.21000
H 	H 	0.80180 0.21580 0.23890 0.20300
Sm	Sm	0.99619 0.85755 0.61897 1.79100
O 	O 	0.93150 0.91350 0.55094 -0.46800
O 	O 	0.86910 0.77110 0.53050 -0.30600
O 	O 	0.97020 0.09860 0.43161 -0.43800
O 	O 	0.92950 0.02900 0.36556 -0.44100
O 	O 	0.54680 0.81760 0.17214 -0.44500
O 	O 	0.53110 0.61710 0.19966 -0.41000
O 	O 	0.56120 0.70470 0.36060 -0.55300
O 	O 	0.63160 0.77040 0.40040 -0.56500
H 	H 	0.62650 0.73640 0.42010 0.33900
N 	N 	0.66940 0.08200 0.30000 -0.20500
H 	H 	0.68240 0.12180 0.32520 0.12300
N 	N 	0.81670 0.65990 0.37530 -0.21200
H 	H 	0.80010 0.61400 0.38510 0.12500
C 	C 	0.59720 0.75190 0.36440 0.49800
C 	C 	0.60270 0.80800 0.32450 -0.10500
C 	C 	0.57550 0.74790 0.28460 0.00200
H 	H 	0.55500 0.67260 0.28180 0.04100
C 	C 	0.57980 0.80390 0.24890 -0.05800
C 	C 	0.61070 0.91280 0.25290 -0.09200
H 	H 	0.61320 0.94740 0.22840 0.06100
C 	C 	0.63880 0.97280 0.29430 0.09100
C 	C 	0.63520 0.91220 0.32980 -0.07500
H 	H 	0.65490 0.94230 0.35750 0.07300
C 	C 	0.55040 0.74110 0.20400 0.31100
C 	C 	0.68200 0.13750 0.26650 -0.01800
H 	H 	0.65520 0.17230 0.24190 0.02700
H 	H 	0.69490 0.05700 0.25660 0.02500
C 	C 	0.71580 0.26320 0.28320 -0.08500
C 	C 	0.76230 0.23280 0.30490 0.09100
C 	C 	0.79200 0.35670 0.31980 0.10300
C 	C 	0.77580 0.50010 0.31410 -0.11300
C 	C 	0.72950 0.52970 0.29480 0.11800
C 	C 	0.69950 0.41170 0.27900 0.07000
C 	C 	0.77940 0.07540 0.31110 -0.57800
H 	H 	0.78760 0.04510 0.34050 0.19500
H 	H 	0.80540 0.06950 0.30520 0.18900
H 	H 	0.75620 0.01100 0.29170 0.19600
C 	C 	0.84250 0.32500 0.34190 -0.59600
H 	H 	0.85490 0.33520 0.32130 0.19900
H 	H 	0.84740 0.22550 0.35320 0.20100
H 	H 	0.85700 0.39410 0.36520 0.20500
C 	C 	0.64830 0.44400 0.25910 -0.56000
H 	H 	0.63200 0.35220 0.25470 0.19800
H 	H 	0.63940 0.49370 0.23180 0.19100
H 	H 	0.64170 0.50630 0.27840 0.19300
C 	C 	0.80890 0.63050 0.33150 -0.00100
H 	H 	0.83720 0.60590 0.33030 0.02400
H 	H 	0.79640 0.71790 0.31370 0.02000
C 	C 	0.84860 0.75540 0.40280 0.10900
C 	C 	0.85640 0.76010 0.44620 -0.10500
H 	H 	0.83830 0.70460 0.45550 0.08000
C 	C 	0.89120 0.84730 0.47590 -0.05100
C 	C 	0.91790 0.93560 0.46290 -0.02500
H 	H 	0.94070 0.99470 0.48270 0.05400
C 	C 	0.90940 0.93260 0.41950 -0.04900
C 	C 	0.87520 0.84610 0.38990 -0.10800
H 	H 	0.86980 0.84810 0.36090 0.06700
C 	C 	0.89880 0.84430 0.52330 0.33500
C 	C 	0.93680 0.03000 0.40400 0.30700
C 	C 	0.71130 0.68600 0.29090 -0.61300
H 	H 	0.73550 0.75240 0.30760 0.20900
H 	H 	0.68870 0.68890 0.30170 0.21000
H 	H 	0.69820 0.71580 0.26110 0.20300
Sm	Sm	0.49619 0.35755 0.61897 1.78900
O 	O 	0.43150 0.41350 0.55094 -0.46800
O 	O 	0.36910 0.27110 0.53050 -0.30600
O 	O 	0.47020 0.59860 0.43161 -0.43800
O 	O 	0.42950 0.52900 0.36556 -0.44000
O 	O 	0.04680 0.31760 0.17214 -0.44400
O 	O 	0.03110 0.11710 0.19966 -0.40900
O 	O 	0.06120 0.20470 0.36060 -0.55300
O 	O 	0.13160 0.27040 0.40040 -0.56500
H 	H 	0.12650 0.23640 0.42010 0.33900
N 	N 	0.16940 0.58200 0.30000 -0.20500
H 	H 	0.18240 0.62180 0.32520 0.12300
N 	N 	0.31670 0.15990 0.37530 -0.21200
H 	H 	0.30010 0.11400 0.38510 0.12500
C 	C 	0.09720 0.25190 0.36440 0.49800
C 	C 	0.10270 0.30800 0.32450 -0.10500
C 	C 	0.07550 0.24790 0.28460 0.00200
H 	H 	0.05500 0.17260 0.28180 0.04100
C 	C 	0.07980 0.30390 0.24890 -0.05800
C 	C 	0.11070 0.41280 0.25290 -0.09100
H 	H 	0.11320 0.44740 0.22840 0.06100
C 	C 	0.13880 0.47280 0.29430 0.09100
C 	C 	0.13520 0.41220 0.32980 -0.07400
H 	H 	0.15490 0.44230 0.35750 0.07300
C 	C 	0.05040 0.24110 0.20400 0.31100
C 	C 	0.18200 0.63750 0.26650 -0.01900
H 	H 	0.15520 0.67230 0.24190 0.02800
H 	H 	0.19490 0.55700 0.25660 0.02500
C 	C 	0.21580 0.76320 0.28320 -0.08400
C 	C 	0.26230 0.73280 0.30490 0.09100
C 	C 	0.29200 0.85670 0.31980 0.10500
C 	C 	0.27580 0.00010 0.31410 -0.11400
C 	C 	0.22950 0.02970 0.29480 0.11700
C 	C 	0.19950 0.91170 0.27900 0.07000
C 	C 	0.27940 0.57540 0.31110 -0.57900
H 	H 	0.28760 0.54510 0.34050 0.19600
H 	H 	0.30540 0.56950 0.30520 0.18900
H 	H 	0.25620 0.51100 0.29170 0.19600
C 	C 	0.34250 0.82500 0.34190 -0.59800
H 	H 	0.35490 0.83520 0.32130 0.19900
H 	H 	0.34740 0.72550 0.35320 0.20200
H 	H 	0.35700 0.89410 0.36520 0.20600
C 	C 	0.14830 0.94400 0.25910 -0.55400
H 	H 	0.13200 0.85220 0.25470 0.19700
H 	H 	0.13940 0.99370 0.23180 0.19000
H 	H 	0.14170 0.00630 0.27840 0.19100
C 	C 	0.30890 0.13050 0.33150 0.00000
H 	H 	0.33720 0.10590 0.33030 0.02400
H 	H 	0.29640 0.21790 0.31370 0.01900
C 	C 	0.34860 0.25540 0.40280 0.10800
C 	C 	0.35640 0.26010 0.44620 -0.10500
H 	H 	0.33830 0.20460 0.45550 0.08000
C 	C 	0.39120 0.34730 0.47590 -0.05100
C 	C 	0.41790 0.43560 0.46290 -0.02400
H 	H 	0.44070 0.49470 0.48270 0.05300
C 	C 	0.40940 0.43260 0.41950 -0.05100
C 	C 	0.37520 0.34610 0.38990 -0.10700
H 	H 	0.36980 0.34810 0.36090 0.06700
C 	C 	0.39880 0.34430 0.52330 0.33500
C 	C 	0.43680 0.53000 0.40400 0.30800
C 	C 	0.21130 0.18600 0.29090 -0.61300
H 	H 	0.23550 0.25240 0.30760 0.20900
H 	H 	0.18870 0.18890 0.30170 0.21000
H 	H 	0.19820 0.21580 0.26110 0.20300
Sm	Sm	0.99619 0.14245 0.11897 1.78900
O 	O 	0.93150 0.08650 0.05094 -0.46800
O 	O 	0.86910 0.22890 0.03050 -0.30600
O 	O 	0.97020 0.90140 0.93161 -0.43700
O 	O 	0.92950 0.97100 0.86556 -0.44000
O 	O 	0.54680 0.18240 0.67214 -0.44500
O 	O 	0.53110 0.38290 0.69966 -0.41000
O 	O 	0.56120 0.29530 0.86060 -0.55300
O 	O 	0.63160 0.22960 0.90040 -0.56500
H 	H 	0.62650 0.26360 0.92010 0.33900
N 	N 	0.66940 0.91800 0.80000 -0.20500
H 	H 	0.68240 0.87820 0.82520 0.12300
N 	N 	0.81670 0.34010 0.87530 -0.21200
H 	H 	0.80010 0.38600 0.88510 0.12500
C 	C 	0.59720 0.24810 0.86440 0.49800
C 	C 	0.60270 0.19200 0.82450 -0.10500
C 	C 	0.57550 0.25210 0.78460 0.00200
H 	H 	0.55500 0.32740 0.78180 0.04100
C 	C 	0.57980 0.19610 0.74890 -0.05800
C 	C 	0.61070 0.08720 0.75290 -0.09200
H 	H 	0.61320 0.05260 0.72840 0.06100
C 	C 	0.63880 0.02720 0.79430 0.09200
C 	C 	0.63520 0.08780 0.82980 -0.07500
H 	H 	0.65490 0.05770 0.85750 0.07300
C 	C 	0.55040 0.25890 0.70400 0.31100
C 	C 	0.68200 0.86250 0.76650 -0.01800
H 	H 	0.65520 0.82770 0.74190 0.02700
H 	H 	0.69490 0.94300 0.75660 0.02500
C 	C 	0.71580 0.73680 0.78320 -0.08500
C 	C 	0.76230 0.76720 0.80490 0.09100
C 	C 	0.79200 0.64330 0.81980 0.10300
C 	C 	0.77580 0.49990 0.81410 -0.11300
C 	C 	0.72950 0.47030 0.79480 0.11800
C 	C 	0.69950 0.58830 0.77900 0.07000
C 	C 	0.77940 0.92460 0.81110 -0.57800
H 	H 	0.78760 0.95490 0.84050 0.19500
H 	H 	0.80540 0.93050 0.80520 0.18900
H 	H 	0.75620 0.98900 0.79170 0.19600
C 	C 	0.84250 0.67500 0.84190 -0.59600
H 	H 	0.85490 0.66480 0.82130 0.19900
H 	H 	0.84740 0.77450 0.85320 0.20100
H 	H 	0.85700 0.60590 0.86520 0.20600
C 	C 	0.64830 0.55600 0.75910 -0.56000
H 	H 	0.63200 0.64780 0.75470 0.19800
H 	H 	0.63940 0.50630 0.73180 0.19100
H 	H 	0.64170 0.49370 0.77840 0.19300
C 	C 	0.80890 0.36950 0.83150 -0.00100
H 	H 	0.83720 0.39410 0.83030 0.02400
H 	H 	0.79640 0.28210 0.81370 0.02000
C 	C 	0.84860 0.24460 0.90280 0.10900
C 	C 	0.85640 0.23990 0.94620 -0.10600
H 	H 	0.83830 0.29540 0.95550 0.08000
C 	C 	0.89120 0.15270 0.97590 -0.05000
C 	C 	0.91790 0.06440 0.96290 -0.02500
H 	H 	0.94070 0.00530 0.98270 0.05400
C 	C 	0.90940 0.06740 0.91950 -0.04900
C 	C 	0.87520 0.15390 0.88990 -0.10800
H 	H 	0.86980 0.15190 0.86090 0.06700
C 	C 	0.89880 0.15570 0.02330 0.33500
C 	C 	0.93680 0.97000 0.90400 0.30700
C 	C 	0.71130 0.31400 0.79090 -0.61400
H 	H 	0.73550 0.24760 0.80760 0.20900
H 	H 	0.68870 0.31110 0.80170 0.21000
H 	H 	0.69820 0.28420 0.76110 0.20300
Sm	Sm	0.49619 0.64245 0.11897 1.78900
O 	O 	0.43150 0.58650 0.05094 -0.46800
O 	O 	0.36910 0.72890 0.03050 -0.30600
O 	O 	0.47020 0.40140 0.93161 -0.43800
O 	O 	0.42950 0.47100 0.86556 -0.44000
O 	O 	0.04680 0.68240 0.67214 -0.44500
O 	O 	0.03110 0.88290 0.69966 -0.41000
O 	O 	0.06120 0.79530 0.86060 -0.55300
O 	O 	0.13160 0.72960 0.90040 -0.56500
H 	H 	0.12650 0.76360 0.92010 0.33900
N 	N 	0.16940 0.41800 0.80000 -0.20500
H 	H 	0.18240 0.37820 0.82520 0.12300
N 	N 	0.31670 0.84010 0.87530 -0.21200
H 	H 	0.30010 0.88600 0.88510 0.12500
C 	C 	0.09720 0.74810 0.86440 0.49800
C 	C 	0.10270 0.69200 0.82450 -0.10600
C 	C 	0.07550 0.75210 0.78460 0.00200
H 	H 	0.05500 0.82740 0.78180 0.04000
C 	C 	0.07980 0.69610 0.74890 -0.05800
C 	C 	0.11070 0.58720 0.75290 -0.09100
H 	H 	0.11320 0.55260 0.72840 0.06100
C 	C 	0.13880 0.52720 0.79430 0.09100
C 	C 	0.13520 0.58780 0.82980 -0.07400
H 	H 	0.15490 0.55770 0.85750 0.07300
C 	C 	0.05040 0.75890 0.70400 0.31100
C 	C 	0.18200 0.36250 0.76650 -0.01900
H 	H 	0.15520 0.32770 0.74190 0.02800
H 	H 	0.19490 0.44300 0.75660 0.02500
C 	C 	0.21580 0.23680 0.78320 -0.08400
C 	C 	0.26230 0.26720 0.80490 0.09100
C 	C 	0.29200 0.14330 0.81980 0.10500
C 	C 	0.27580 0.99990 0.81410 -0.11400
C 	C 	0.22950 0.97030 0.79480 0.11700
C 	C 	0.19950 0.08830 0.77900 0.07000
C 	C 	0.27940 0.42460 0.81110 -0.57900
H 	H 	0.28760 0.45490 0.84050 0.19600
H 	H 	0.30540 0.43050 0.80520 0.18900
H 	H 	0.25620 0.48900 0.79170 0.19600
C 	C 	0.34250 0.17500 0.84190 -0.59800
H 	H 	0.35490 0.16480 0.82130 0.19900
H 	H 	0.34740 0.27450 0.85320 0.20200
H 	H 	0.35700 0.10590 0.86520 0.20600
C 	C 	0.14830 0.05600 0.75910 -0.55400
H 	H 	0.13200 0.14780 0.75470 0.19700
H 	H 	0.13940 0.00630 0.73180 0.19000
H 	H 	0.14170 0.99370 0.77840 0.19000
C 	C 	0.30890 0.86950 0.83150 0.00000
H 	H 	0.33720 0.89410 0.83030 0.02400
H 	H 	0.29640 0.78210 0.81370 0.01900
C 	C 	0.34860 0.74460 0.90280 0.10800
C 	C 	0.35640 0.73990 0.94620 -0.10500
H 	H 	0.33830 0.79540 0.95550 0.08000
C 	C 	0.39120 0.65270 0.97590 -0.05200
C 	C 	0.41790 0.56440 0.96290 -0.02400
H 	H 	0.44070 0.50530 0.98270 0.05300
C 	C 	0.40940 0.56740 0.91950 -0.05100
C 	C 	0.37520 0.65390 0.88990 -0.10700
H 	H 	0.36980 0.65190 0.86090 0.06700
C 	C 	0.39880 0.65570 0.02330 0.33600
C 	C 	0.43680 0.47000 0.90400 0.30800
C 	C 	0.21130 0.81400 0.79090 -0.61300
H 	H 	0.23550 0.74760 0.80760 0.20900
H 	H 	0.18870 0.81110 0.80170 0.21000
H 	H 	0.19820 0.78420 0.76110 0.20300
Sm	Sm	0.00381 0.14245 0.38103 1.79100
O 	O 	0.06850 0.08650 0.44906 -0.46800
O 	O 	0.13090 0.22890 0.46950 -0.30600
O 	O 	0.02980 0.90140 0.56839 -0.43800
O 	O 	0.07050 0.97100 0.63444 -0.44100
O 	O 	0.45320 0.18240 0.82786 -0.44500
O 	O 	0.46890 0.38290 0.80034 -0.41000
O 	O 	0.43880 0.29530 0.63940 -0.55300
O 	O 	0.36840 0.22960 0.59960 -0.56500
H 	H 	0.37350 0.26360 0.57990 0.33900
N 	N 	0.33060 0.91800 0.70000 -0.20500
H 	H 	0.31760 0.87820 0.67480 0.12300
N 	N 	0.18330 0.34010 0.62470 -0.21200
H 	H 	0.19990 0.38600 0.61490 0.12500
C 	C 	0.40280 0.24810 0.63560 0.49800
C 	C 	0.39730 0.19200 0.67550 -0.10500
C 	C 	0.42450 0.25210 0.71540 0.00200
H 	H 	0.44500 0.32740 0.71820 0.04100
C 	C 	0.42020 0.19610 0.75110 -0.05800
C 	C 	0.38930 0.08720 0.74710 -0.09200
H 	H 	0.38680 0.05260 0.77160 0.06100
C 	C 	0.36120 0.02720 0.70570 0.09100
C 	C 	0.36480 0.08780 0.67020 -0.07500
H 	H 	0.34510 0.05770 0.64250 0.07300
C 	C 	0.44960 0.25890 0.79600 0.31100
C 	C 	0.31800 0.86250 0.73350 -0.01800
H 	H 	0.34480 0.82770 0.75810 0.02700
H 	H 	0.30510 0.94300 0.74340 0.02500
C 	C 	0.28420 0.73680 0.71680 -0.08500
C 	C 	0.23770 0.76720 0.69510 0.09100
C 	C 	0.20800 0.64330 0.68020 0.10300
C 	C 	0.22420 0.49990 0.68590 -0.11300
C 	C 	0.27050 0.47030 0.70520 0.11800
C 	C 	0.30050 0.58830 0.72100 0.07000
C 	C 	0.22060 0.92460 0.68890 -0.57800
H 	H 	0.21240 0.95490 0.65950 0.19500
H 	H 	0.19460 0.93050 0.69480 0.18900
H 	H 	0.24380 0.98900 0.70830 0.19600
C 	C 	0.15750 0.67500 0.65810 -0.59600
H 	H 	0.14510 0.66480 0.67870 0.19900
H 	H 	0.15260 0.77450 0.64680 0.20100
H 	H 	0.14300 0.60590 0.63480 0.20500
C 	C 	0.35170 0.55600 0.74090 -0.56000
H 	H 	0.36800 0.64780 0.74530 0.19800
H 	H 	0.36060 0.50630 0.76820 0.19100
H 	H 	0.35830 0.49370 0.72160 0.19300
C 	C 	0.19110 0.36950 0.66850 -0.00100
H 	H 	0.16280 0.39410 0.66970 0.02400
H 	H 	0.20360 0.28210 0.68630 0.02000
C 	C 	0.15140 0.24460 0.59720 0.10900
C 	C 	0.14360 0.23990 0.55380 -0.10500
H 	H 	0.16170 0.29540 0.54450 0.08000
C 	C 	0.10880 0.15270 0.52410 -0.05100
C 	C 	0.08210 0.06440 0.53710 -0.02500
H 	H 	0.05930 0.00530 0.51730 0.05400
C 	C 	0.09060 0.06740 0.58050 -0.04900
C 	C 	0.12480 0.15390 0.61010 -0.10800
H 	H 	0.13020 0.15190 0.63910 0.06700
C 	C 	0.10120 0.15570 0.47670 0.33500
C 	C 	0.06320 0.97000 0.59600 0.30700
C 	C 	0.28870 0.31400 0.70910 -0.61300
H 	H 	0.26450 0.24760 0.69240 0.20900
H 	H 	0.31130 0.31110 0.69830 0.21000
H 	H 	0.30180 0.28420 0.73890 0.20300
Sm	Sm	0.50381 0.64245 0.38103 1.78900
O 	O 	0.56850 0.58650 0.44906 -0.46800
O 	O 	0.63090 0.72890 0.46950 -0.30600
O 	O 	0.52980 0.40140 0.56839 -0.43800
O 	O 	0.57050 0.47100 0.63444 -0.44000
O 	O 	0.95320 0.68240 0.82786 -0.44400
O 	O 	0.96890 0.88290 0.80034 -0.40900
O 	O 	0.93880 0.79530 0.63940 -0.55300
O 	O 	0.86840 0.72960 0.59960 -0.56500
H 	H 	0.87350 0.76360 0.57990 0.33900
N 	N 	0.83060 0.41800 0.70000 -0.20500
H 	H 	0.81760 0.37820 0.67480 0.12300
N 	N 	0.68330 0.84010 0.62470 -0.21200
H 	H 	0.69990 0.88600 0.61490 0.12500
C 	C 	0.90280 0.74810 0.63560 0.49800
C 	C 	0.89730 0.69200 0.67550 -0.10500
C 	C 	0.92450 0.75210 0.71540 0.00200
H 	H 	0.94500 0.82740 0.71820 0.04100
C 	C 	0.92020 0.69610 0.75110 -0.05800
C 	C 	0.88930 0.58720 0.74710 -0.09100
H 	H 	0.88680 0.55260 0.77160 0.06100
C 	C 	0.86120 0.52720 0.70570 0.09100
C 	C 	0.86480 0.58780 0.67020 -0.07400
H 	H 	0.84510 0.55770 0.64250 0.07300
C 	C 	0.94960 0.75890 0.79600 0.31100
C 	C 	0.81800 0.36250 0.73350 -0.01900
H 	H 	0.84480 0.32770 0.75810 0.02800
H 	H 	0.80510 0.44300 0.74340 0.02500
C 	C 	0.78420 0.23680 0.71680 -0.08400
C 	C 	0.73770 0.26720 0.69510 0.09100
C 	C 	0.70800 0.14330 0.68020 0.10500
C 	C 	0.72420 0.99990 0.68590 -0.11400
C 	C 	0.77050 0.97030 0.70520 0.11700
C 	C 	0.80050 0.08830 0.72100 0.07000
C 	C 	0.72060 0.42460 0.68890 -0.57900
H 	H 	0.71240 0.45490 0.65950 0.19600
H 	H 	0.69460 0.43050 0.69480 0.18900
H 	H 	0.74380 0.48900 0.70830 0.19600
C 	C 	0.65750 0.17500 0.65810 -0.59800
H 	H 	0.64510 0.16480 0.67870 0.19900
H 	H 	0.65260 0.27450 0.64680 0.20200
H 	H 	0.64300 0.10590 0.63480 0.20600
C 	C 	0.85170 0.05600 0.74090 -0.55400
H 	H 	0.86800 0.14780 0.74530 0.19700
H 	H 	0.86060 0.00630 0.76820 0.19000
H 	H 	0.85830 0.99370 0.72160 0.19100
C 	C 	0.69110 0.86950 0.66850 0.00000
H 	H 	0.66280 0.89410 0.66970 0.02400
H 	H 	0.70360 0.78210 0.68630 0.01900
C 	C 	0.65140 0.74460 0.59720 0.10800
C 	C 	0.64360 0.73990 0.55380 -0.10500
H 	H 	0.66170 0.79540 0.54450 0.08000
C 	C 	0.60880 0.65270 0.52410 -0.05100
C 	C 	0.58210 0.56440 0.53710 -0.02400
H 	H 	0.55930 0.50530 0.51730 0.05300
C 	C 	0.59060 0.56740 0.58050 -0.05100
C 	C 	0.62480 0.65390 0.61010 -0.10700
H 	H 	0.63020 0.65190 0.63910 0.06700
C 	C 	0.60120 0.65570 0.47670 0.33500
C 	C 	0.56320 0.47000 0.59600 0.30800
C 	C 	0.78870 0.81400 0.70910 -0.61300
H 	H 	0.76450 0.74760 0.69240 0.20900
H 	H 	0.81130 0.81110 0.69830 0.21000
H 	H 	0.80180 0.78420 0.73890 0.20300
