data_crystal

_cell_length_a 13.17100
_cell_length_b 13.56610
_cell_length_c 15.14720
_cell_angle_alpha 108.55000
_cell_angle_beta  101.69100
_cell_angle_gamma 111.93300

_symmetry_space_group_name_	'P 1'
_symmetry_space_group_name_H-M	'P 1'

loop_
_symmetry_equiv_pos_as_xyz
  x,y,z

loop_
_atom_site_label
_atom_site_type_symbol
_atom_site_fract_x
_atom_site_fract_y
_atom_site_fract_z
_atom_site_charge
Nd	Nd	0.18665 0.65034 0.92883 2.34200
Nd	Nd	0.40056 0.89534 0.84769 2.32400
Nd	Nd	0.81335 0.34966 0.07117 2.34200
Nd	Nd	0.59944 0.10466 0.15231 2.32400
P 	P 	0.11150 0.58872 0.12938 0.54200
P 	P 	0.68099 0.17503 0.42694 0.46500
P 	P 	0.28424 0.92108 0.06059 0.51700
P 	P 	0.51382 0.82560 0.05709 0.48400
P 	P 	0.08244 0.77349 0.76750 0.51400
P 	P 	0.88850 0.41128 0.87062 0.54100
P 	P 	0.31901 0.82497 0.57306 0.46400
P 	P 	0.71576 0.07892 0.93941 0.51700
P 	P 	0.48618 0.17440 0.94291 0.48400
P 	P 	0.91756 0.22651 0.23250 0.51400
H 	H 	0.33870 0.75860 0.37480 0.13400
H 	H 	0.53390 0.91640 0.27180 0.11700
H 	H 	0.09140 0.94230 0.94270 0.10900
H 	H 	0.43270 0.58400 0.96460 0.12500
H 	H 	0.45270 0.56710 0.63690 0.03800
H 	H 	0.08380 0.66330 0.56740 0.13600
H 	H 	0.39860 0.37420 0.53110 0.05800
H 	H 	0.10160 0.72840 0.11670 0.27400
H 	H 	0.26260 0.22090 0.54400 0.03200
H 	H 	0.17590 0.25440 0.66140 0.05700
H 	H 	0.20490 0.56310 0.26070 0.10700
H 	H 	0.15030 0.64490 0.29870 0.11900
H 	H 	0.30710 0.82060 0.21950 0.06500
H 	H 	0.25990 0.85560 0.30550 0.06000
H 	H 	0.45060 0.96960 0.42340 0.05900
H 	H 	0.44140 0.01220 0.33860 0.05900
H 	H 	0.58730 0.79720 0.32090 0.05100
H 	H 	0.54390 0.82630 0.41030 0.06100
H 	H 	0.40440 0.64000 0.28310 0.05100
H 	H 	0.39260 0.69450 0.20650 0.06900
H 	H 	0.67550 0.02230 0.46940 0.09700
H 	H 	0.71730 0.01360 0.37890 0.09600
H 	H 	0.28440 0.08580 0.04580 0.08600
H 	H 	0.24850 0.07570 0.13580 0.10300
H 	H 	0.02990 0.86120 0.04520 0.05600
H 	H 	0.04940 0.98390 0.11880 0.06500
H 	H 	0.12260 0.15420 0.07680 0.06700
H 	H 	0.15030 0.13670 0.97870 0.05800
H 	H 	0.58190 0.73120 0.94180 0.08300
H 	H 	0.66010 0.76600 0.05090 0.08900
H 	H 	0.51560 0.65460 0.13480 0.05500
H 	H 	0.61690 0.62470 0.11990 0.06300
H 	H 	0.62210 0.54680 0.95150 0.06200
H 	H 	0.52330 0.52610 0.85920 0.05200
H 	H 	0.96570 0.74000 0.61230 0.10400
H 	H 	0.90300 0.63510 0.63760 0.10200
H 	H 	0.85120 0.49270 0.46890 0.06300
H 	H 	0.91060 0.59720 0.44180 0.06600
H 	H 	0.10160 0.57440 0.67050 0.03700
H 	H 	0.96930 0.47900 0.61060 0.05900
H 	H 	0.66130 0.24140 0.62520 0.13400
H 	H 	0.46610 0.08360 0.72820 0.11700
H 	H 	0.90860 0.05770 0.05730 0.10900
H 	H 	0.56730 0.41600 0.03540 0.12500
H 	H 	0.54730 0.43290 0.36310 0.03800
H 	H 	0.91620 0.33670 0.43260 0.13600
H 	H 	0.60140 0.62580 0.46890 0.05800
H 	H 	0.89840 0.27160 0.88330 0.27400
H 	H 	0.73740 0.77910 0.45600 0.03200
H 	H 	0.82410 0.74560 0.33860 0.05700
H 	H 	0.79510 0.43690 0.73930 0.10700
H 	H 	0.84970 0.35510 0.70130 0.11900
H 	H 	0.69290 0.17940 0.78050 0.06500
H 	H 	0.74010 0.14440 0.69450 0.06000
H 	H 	0.54940 0.03040 0.57660 0.05900
H 	H 	0.55860 0.98780 0.66140 0.05900
H 	H 	0.41270 0.20280 0.67910 0.05100
H 	H 	0.45610 0.17370 0.58970 0.06100
H 	H 	0.59560 0.36000 0.71690 0.05100
H 	H 	0.60740 0.30550 0.79350 0.06900
H 	H 	0.32450 0.97770 0.53060 0.09700
H 	H 	0.28270 0.98640 0.62110 0.09600
H 	H 	0.71560 0.91420 0.95420 0.08600
H 	H 	0.75150 0.92430 0.86420 0.10300
H 	H 	0.97010 0.13880 0.95480 0.05600
H 	H 	0.95060 0.01610 0.88120 0.06500
H 	H 	0.87740 0.84580 0.92320 0.06700
H 	H 	0.84970 0.86330 0.02130 0.05800
H 	H 	0.41810 0.26880 0.05820 0.08300
H 	H 	0.33990 0.23400 0.94910 0.08900
H 	H 	0.48440 0.34540 0.86520 0.05500
H 	H 	0.38310 0.37530 0.88010 0.06300
H 	H 	0.37790 0.45320 0.04850 0.06200
H 	H 	0.47670 0.47390 0.14080 0.05200
H 	H 	0.03430 0.26000 0.38770 0.10400
H 	H 	0.09700 0.36490 0.36240 0.10200
H 	H 	0.14880 0.50730 0.53110 0.06300
H 	H 	0.08940 0.40280 0.55820 0.06600
H 	H 	0.89840 0.42560 0.32950 0.03700
H 	H 	0.03070 0.52100 0.38940 0.05900
C 	C 	0.20660 0.45750 0.79510 0.26300
C 	C 	0.37520 0.65330 0.77470 0.38100
C 	C 	0.26200 0.43260 0.72010 -0.01700
C 	C 	0.34430 0.52700 0.71200 -0.09900
C 	C 	0.39640 0.50460 0.64170 0.00700
C 	C 	0.36440 0.38890 0.57850 -0.07800
C 	C 	0.28350 0.29790 0.58640 -0.01400
C 	C 	0.23120 0.31770 0.65680 -0.05900
C 	C 	0.19630 0.63040 0.25850 -0.22600
C 	C 	0.32130 0.83910 0.28960 -0.06000
C 	C 	0.43990 0.94720 0.35340 -0.05300
C 	C 	0.52830 0.81450 0.34130 -0.06300
C 	C 	0.40760 0.70970 0.27620 -0.06000
C 	C 	0.65960 0.02580 0.40540 -0.20900
C 	C 	0.23430 0.03130 0.06620 -0.22700
C 	C 	0.02650 0.93250 0.04890 -0.03700
C 	C 	0.09820 0.09850 0.00800 -0.09100
C 	C 	0.57980 0.73230 0.00580 -0.19200
C 	C 	0.53410 0.60080 0.08990 -0.05300
C 	C 	0.53930 0.52360 0.92360 -0.06200
C 	C 	0.97790 0.68680 0.63820 -0.20700
C 	C 	0.92430 0.54370 0.46640 -0.07400
C 	C 	0.03970 0.53020 0.60480 -0.03100
C 	C 	0.79340 0.54250 0.20490 0.26300
C 	C 	0.62480 0.34670 0.22530 0.38100
C 	C 	0.73800 0.56740 0.27990 -0.01700
C 	C 	0.65570 0.47300 0.28800 -0.09900
C 	C 	0.60360 0.49540 0.35830 0.00700
C 	C 	0.63560 0.61110 0.42150 -0.07800
C 	C 	0.71650 0.70210 0.41360 -0.01400
C 	C 	0.76880 0.68230 0.34320 -0.05900
C 	C 	0.80370 0.36960 0.74150 -0.22600
C 	C 	0.67870 0.16090 0.71040 -0.06000
C 	C 	0.56010 0.05280 0.64660 -0.05300
C 	C 	0.47170 0.18550 0.65870 -0.06300
C 	C 	0.59240 0.29030 0.72380 -0.06000
C 	C 	0.34040 0.97420 0.59460 -0.20900
C 	C 	0.76570 0.96870 0.93380 -0.22700
C 	C 	0.97350 0.06750 0.95110 -0.03700
C 	C 	0.90180 0.90150 0.99200 -0.09100
C 	C 	0.42020 0.26770 0.99420 -0.19200
C 	C 	0.46590 0.39920 0.91010 -0.05300
C 	C 	0.46070 0.47640 0.07640 -0.06200
C 	C 	0.02210 0.31320 0.36180 -0.20700
C 	C 	0.07570 0.45630 0.53360 -0.07400
C 	C 	0.96030 0.46980 0.39520 -0.03100
N 	N 	0.31690 0.73590 0.30760 -0.13000
N 	N 	0.53930 0.92600 0.33520 -0.13000
N 	N 	0.11010 0.99260 0.00700 -0.10800
N 	N 	0.51070 0.60720 0.99190 -0.13600
N 	N 	0.01640 0.61390 0.57030 -0.13600
N 	N 	0.68310 0.26410 0.69240 -0.13000
N 	N 	0.46070 0.07400 0.66480 -0.13000
N 	N 	0.88990 0.00740 0.99300 -0.10800
N 	N 	0.48930 0.39280 0.00810 -0.13600
N 	N 	0.98360 0.38610 0.42970 -0.13600
O 	O 	0.10400 0.44290 0.76720 -0.36100
O 	O 	0.26840 0.50300 0.88750 -0.40300
O 	O 	0.30120 0.67400 0.80930 -0.60200
O 	O 	0.47060 0.73480 0.78840 -0.42800
O 	O 	0.19100 0.59710 0.07010 -0.45700
O 	O 	0.01180 0.46880 0.09730 -0.49000
O 	O 	0.06540 0.68250 0.13720 -0.46500
O 	O 	0.62010 0.20660 0.49990 -0.25900
O 	O 	0.62240 0.16510 0.32590 -0.45900
O 	O 	0.81340 0.25190 0.47420 -0.26400
O 	O 	0.28920 0.86790 0.95720 -0.64500
O 	O 	0.19250 0.81790 0.06910 -0.45500
O 	O 	0.40170 0.99260 0.14520 -0.48200
O 	O 	0.06840 0.68700 0.81330 -0.49300
O 	O 	0.04250 0.86290 0.81390 -0.28400
O 	O 	0.19970 0.82890 0.75820 -0.49900
O 	O 	0.52430 0.90360 0.00210 -0.61400
O 	O 	0.58850 0.90740 0.16790 -0.39600
O 	O 	0.39110 0.73770 0.03770 -0.47400
O 	O 	0.89600 0.55710 0.23280 -0.36100
O 	O 	0.73160 0.49700 0.11250 -0.40300
O 	O 	0.69880 0.32600 0.19070 -0.60200
O 	O 	0.52940 0.26520 0.21160 -0.42800
O 	O 	0.80900 0.40290 0.92990 -0.45700
O 	O 	0.98820 0.53120 0.90270 -0.49000
O 	O 	0.93460 0.31750 0.86280 -0.46500
O 	O 	0.37990 0.79340 0.50010 -0.25900
O 	O 	0.37760 0.83490 0.67410 -0.45900
O 	O 	0.18660 0.74810 0.52580 -0.26400
O 	O 	0.71080 0.13210 0.04280 -0.64500
O 	O 	0.80750 0.18210 0.93090 -0.45500
O 	O 	0.59830 0.00740 0.85480 -0.48200
O 	O 	0.93160 0.31300 0.18670 -0.49300
O 	O 	0.95750 0.13710 0.18610 -0.28400
O 	O 	0.80030 0.17110 0.24180 -0.49900
O 	O 	0.47570 0.09640 0.99790 -0.61400
O 	O 	0.41150 0.09260 0.83210 -0.39600
O 	O 	0.60890 0.26230 0.96230 -0.47400
