data_crystal

_cell_length_a 12.35880
_cell_length_b 15.50110
_cell_length_c 34.30500
_cell_angle_alpha 90.00000
_cell_angle_beta  90.00000
_cell_angle_gamma 90.00000

_symmetry_space_group_name_	'P 1'
_symmetry_space_group_name_H-M	'P 1'

loop_
_symmetry_equiv_pos_as_xyz
  x,y,z

loop_
_atom_site_label
_atom_site_type_symbol
_atom_site_fract_x
_atom_site_fract_y
_atom_site_fract_z
_atom_site_charge
Cu	Cu	0.65009 0.64226 0.51369 0.90200
S 	S 	0.88048 0.62868 0.30932 -0.06600
C 	C 	0.81520 0.23150 0.33320 -0.61600
H 	H 	0.87750 0.19400 0.32840 0.17000
H 	H 	0.75100 0.20730 0.32050 0.18800
H 	H 	0.80230 0.23580 0.36130 0.20200
C 	C 	0.83730 0.31860 0.31720 0.24800
C 	C 	0.82560 0.45710 0.30680 0.10400
C 	C 	0.78940 0.54630 0.30620 -0.04000
C 	C 	0.68840 0.57550 0.29880 -0.03400
H 	H 	0.62710 0.53900 0.29580 0.03700
C 	C 	0.68420 0.66660 0.29600 -0.04200
H 	H 	0.61960 0.69810 0.29140 0.04100
C 	C 	0.78250 0.70390 0.30050 -0.03500
C 	C 	0.81420 0.79420 0.29550 0.10300
C 	C 	0.81720 0.93380 0.30230 0.28400
C 	C 	0.79520 0.02190 0.31650 -0.66900
H 	H 	0.83610 0.06350 0.30090 0.17300
H 	H 	0.81720 0.02650 0.34390 0.20400
H 	H 	0.71770 0.03410 0.31430 0.20100
C 	C 	0.70220 0.40190 0.35820 0.11000
C 	C 	0.60090 0.36270 0.35640 -0.12700
H 	H 	0.58090 0.32850 0.33460 0.06300
C 	C 	0.52950 0.37500 0.38750 0.00200
H 	H 	0.46130 0.34670 0.38750 0.01900
C 	C 	0.55790 0.42870 0.41850 -0.05100
H 	H 	0.50730 0.43910 0.43880 0.05600
C 	C 	0.66120 0.46790 0.41990 -0.04000
C 	C 	0.73070 0.45360 0.38910 -0.09500
H 	H 	0.80000 0.48010 0.38930 0.08100
C 	C 	0.69210 0.52750 0.45090 0.32000
C 	C 	0.69750 0.85370 0.34880 0.12600
C 	C 	0.59380 0.88780 0.34680 -0.13300
H 	H 	0.56820 0.91450 0.32360 0.07400
C 	C 	0.52920 0.88180 0.37920 0.02400
H 	H 	0.45910 0.90690 0.37870 0.03600
C 	C 	0.56340 0.84020 0.41290 -0.06000
H 	H 	0.51660 0.83520 0.43470 0.07600
C 	C 	0.66760 0.80570 0.41410 -0.02500
C 	C 	0.73470 0.81230 0.38150 -0.10400
H 	H 	0.80550 0.78840 0.38190 0.08700
C 	C 	0.70220 0.75350 0.44820 0.32300
N 	N 	0.77950 0.39110 0.32700 -0.18200
N 	N 	0.91330 0.33810 0.29220 -0.24200
N 	N 	0.90830 0.42700 0.28600 -0.20500
N 	N 	0.76850 0.86170 0.31557 -0.19000
N 	N 	0.89000 0.82300 0.27179 -0.20300
N 	N 	0.89120 0.91250 0.27570 -0.23800
O 	O 	0.61880 0.55510 0.47421 -0.39600
O 	O 	0.79020 0.55290 0.45210 -0.39600
O 	O 	0.63330 0.73270 0.47363 -0.40000
O 	O 	0.80120 0.73010 0.44889 -0.39000
Cu	Cu	0.15009 0.14226 0.01369 0.89800
S 	S 	0.38048 0.12868 0.80932 -0.08600
C 	C 	0.31520 0.73150 0.83320 -0.61100
H 	H 	0.37750 0.69400 0.82840 0.16300
H 	H 	0.25100 0.70730 0.82050 0.18500
H 	H 	0.30230 0.73580 0.86130 0.19800
C 	C 	0.33730 0.81860 0.81720 0.24300
C 	C 	0.32560 0.95710 0.80680 0.13100
C 	C 	0.28940 0.04630 0.80620 -0.07300
C 	C 	0.18840 0.07550 0.79880 -0.01900
H 	H 	0.12710 0.03900 0.79580 0.01900
C 	C 	0.18420 0.16660 0.79600 -0.05400
H 	H 	0.11960 0.19810 0.79140 0.03900
C 	C 	0.28250 0.20390 0.80050 -0.02900
C 	C 	0.31420 0.29420 0.79550 0.09600
C 	C 	0.31720 0.43380 0.80230 0.24000
C 	C 	0.29520 0.52190 0.81650 -0.59700
H 	H 	0.33610 0.56350 0.80090 0.15400
H 	H 	0.31720 0.52650 0.84390 0.18800
H 	H 	0.21770 0.53410 0.81430 0.18700
C 	C 	0.20220 0.90190 0.85820 0.10600
C 	C 	0.10090 0.86270 0.85640 -0.10000
H 	H 	0.08090 0.82850 0.83460 0.05100
C 	C 	0.02950 0.87500 0.88750 -0.05100
H 	H 	0.96130 0.84670 0.88750 0.05600
C 	C 	0.05790 0.92870 0.91850 -0.03300
H 	H 	0.00730 0.93910 0.93880 0.05100
C 	C 	0.16120 0.96790 0.91990 -0.01900
C 	C 	0.23070 0.95360 0.88910 -0.09500
H 	H 	0.30000 0.98010 0.88930 0.08800
C 	C 	0.19210 0.02750 0.95090 0.29500
C 	C 	0.19750 0.35370 0.84880 0.09400
C 	C 	0.09380 0.38780 0.84680 -0.09000
H 	H 	0.06820 0.41450 0.82360 0.04800
C 	C 	0.02920 0.38180 0.87920 -0.05800
H 	H 	0.95910 0.40690 0.87870 0.07100
C 	C 	0.06340 0.34020 0.91290 -0.01900
H 	H 	0.01660 0.33520 0.93470 0.05000
C 	C 	0.16760 0.30570 0.91410 -0.05700
C 	C 	0.23470 0.31230 0.88150 -0.07900
H 	H 	0.30550 0.28840 0.88190 0.07300
C 	C 	0.20220 0.25350 0.94820 0.33200
N 	N 	0.27950 0.89110 0.82700 -0.18400
N 	N 	0.41330 0.83810 0.79220 -0.24700
N 	N 	0.40830 0.92700 0.78600 -0.20900
N 	N 	0.26850 0.36170 0.81557 -0.18100
N 	N 	0.39000 0.32300 0.77179 -0.21000
N 	N 	0.39120 0.41250 0.77570 -0.24200
O 	O 	0.11880 0.05510 0.97421 -0.40300
O 	O 	0.29020 0.05290 0.95210 -0.40100
O 	O 	0.13330 0.23270 0.97363 -0.41100
O 	O 	0.30120 0.23010 0.94889 -0.39900
Cu	Cu	0.84991 0.35774 0.01369 0.90300
S 	S 	0.61952 0.37132 0.80932 -0.08500
C 	C 	0.68480 0.76850 0.83320 -0.62200
H 	H 	0.62250 0.80600 0.82840 0.16900
H 	H 	0.74900 0.79270 0.82050 0.19200
H 	H 	0.69770 0.76420 0.86130 0.20400
C 	C 	0.66270 0.68140 0.81720 0.24700
C 	C 	0.67440 0.54290 0.80680 0.10100
C 	C 	0.71060 0.45370 0.80620 -0.03800
C 	C 	0.81160 0.42450 0.79880 -0.03500
H 	H 	0.87290 0.46100 0.79580 0.04200
C 	C 	0.81580 0.33340 0.79600 -0.04100
H 	H 	0.88040 0.30190 0.79140 0.04500
C 	C 	0.71750 0.29610 0.80050 -0.03300
C 	C 	0.68580 0.20580 0.79550 0.10000
C 	C 	0.68280 0.06620 0.80230 0.21000
C 	C 	0.70480 0.97810 0.81650 -0.55100
H 	H 	0.66390 0.93650 0.80090 0.14600
H 	H 	0.68280 0.97350 0.84390 0.18400
H 	H 	0.78230 0.96590 0.81430 0.18600
C 	C 	0.79780 0.59810 0.85820 0.12900
C 	C 	0.89910 0.63730 0.85640 -0.16400
H 	H 	0.91910 0.67150 0.83460 0.08200
C 	C 	0.97050 0.62500 0.88750 0.07400
H 	H 	0.03870 0.65330 0.88750 -0.01900
C 	C 	0.94210 0.57130 0.91850 -0.08800
H 	H 	0.99270 0.56090 0.93880 0.07800
C 	C 	0.83880 0.53210 0.91990 -0.01900
C 	C 	0.76930 0.54640 0.88910 -0.11300
H 	H 	0.70000 0.51990 0.88930 0.08400
C 	C 	0.80790 0.47250 0.95090 0.31200
C 	C 	0.80250 0.14630 0.84880 0.13300
C 	C 	0.90620 0.11220 0.84680 -0.17200
H 	H 	0.93180 0.08550 0.82360 0.08300
C 	C 	0.97080 0.11820 0.87920 0.09000
H 	H 	0.04090 0.09310 0.87870 -0.01000
C 	C 	0.93660 0.15980 0.91290 -0.10100
H 	H 	0.98340 0.16480 0.93470 0.09500
C 	C 	0.83240 0.19430 0.91410 -0.00900
C 	C 	0.76530 0.18770 0.88150 -0.12000
H 	H 	0.69450 0.21160 0.88190 0.08600
C 	C 	0.79780 0.24650 0.94820 0.31500
N 	N 	0.72050 0.60890 0.82700 -0.18500
N 	N 	0.58670 0.66190 0.79220 -0.24900
N 	N 	0.59170 0.57300 0.78600 -0.21100
N 	N 	0.73150 0.13830 0.81557 -0.18300
N 	N 	0.61000 0.17700 0.77179 -0.21100
N 	N 	0.60880 0.08750 0.77570 -0.24100
O 	O 	0.88120 0.44490 0.97421 -0.38700
O 	O 	0.70980 0.44710 0.95210 -0.39600
O 	O 	0.86670 0.26730 0.97363 -0.39400
O 	O 	0.69880 0.26990 0.94889 -0.39500
Cu	Cu	0.34991 0.85774 0.51369 0.90300
S 	S 	0.11952 0.87132 0.30932 -0.09600
C 	C 	0.18480 0.26850 0.33320 -0.60300
H 	H 	0.12250 0.30600 0.32840 0.15600
H 	H 	0.24900 0.29270 0.32050 0.18400
H 	H 	0.19770 0.26420 0.36130 0.19300
C 	C 	0.16270 0.18140 0.31720 0.23700
C 	C 	0.17440 0.04290 0.30680 0.06600
C 	C 	0.21060 0.95370 0.30620 -0.00100
C 	C 	0.31160 0.92450 0.29880 -0.05200
H 	H 	0.37290 0.96100 0.29580 0.05200
C 	C 	0.31580 0.83340 0.29600 -0.03200
H 	H 	0.38040 0.80190 0.29140 0.03900
C 	C 	0.21750 0.79610 0.30050 -0.03400
C 	C 	0.18580 0.70580 0.29550 0.09800
C 	C 	0.18280 0.56620 0.30230 0.23800
C 	C 	0.20480 0.47810 0.31650 -0.59600
H 	H 	0.16390 0.43650 0.30090 0.15100
H 	H 	0.18280 0.47350 0.34390 0.18400
H 	H 	0.28230 0.46590 0.31430 0.18800
C 	C 	0.29780 0.09810 0.35820 0.08700
C 	C 	0.39910 0.13730 0.35640 -0.11100
H 	H 	0.41910 0.17150 0.33460 0.05600
C 	C 	0.47050 0.12500 0.38750 -0.02100
H 	H 	0.53870 0.15330 0.38750 0.02500
C 	C 	0.44210 0.07130 0.41850 -0.02800
H 	H 	0.49270 0.06090 0.43880 0.04100
C 	C 	0.33880 0.03210 0.41990 -0.08900
C 	C 	0.26930 0.04640 0.38910 -0.07000
H 	H 	0.20000 0.01990 0.38930 0.05800
C 	C 	0.30790 0.97250 0.45090 0.35600
C 	C 	0.30250 0.64630 0.34880 0.11500
C 	C 	0.40620 0.61220 0.34680 -0.13100
H 	H 	0.43180 0.58550 0.32360 0.06800
C 	C 	0.47080 0.61820 0.37920 0.01800
H 	H 	0.54090 0.59310 0.37870 0.03200
C 	C 	0.43660 0.65980 0.41290 -0.05900
H 	H 	0.48340 0.66480 0.43470 0.07300
C 	C 	0.33240 0.69430 0.41410 -0.03200
C 	C 	0.26530 0.68770 0.38150 -0.10000
H 	H 	0.19450 0.71160 0.38190 0.07800
C 	C 	0.29780 0.74650 0.44820 0.32400
N 	N 	0.22050 0.10890 0.32700 -0.17500
N 	N 	0.08670 0.16190 0.29220 -0.25200
N 	N 	0.09170 0.07300 0.28600 -0.21600
N 	N 	0.23150 0.63830 0.31557 -0.18400
N 	N 	0.11000 0.67700 0.27179 -0.21400
N 	N 	0.10880 0.58750 0.27570 -0.24600
O 	O 	0.38120 0.94490 0.47421 -0.39600
O 	O 	0.20980 0.94710 0.45210 -0.40100
O 	O 	0.36670 0.76730 0.47363 -0.40200
O 	O 	0.19880 0.76990 0.44889 -0.39800
Cu	Cu	0.34991 0.14226 0.98631 0.90000
S 	S 	0.11952 0.12868 0.19068 -0.10000
C 	C 	0.18480 0.73150 0.16680 -0.60700
H 	H 	0.12250 0.69400 0.17160 0.15700
H 	H 	0.24900 0.70730 0.17950 0.18500
H 	H 	0.19770 0.73580 0.13870 0.19500
C 	C 	0.16270 0.81860 0.18280 0.24000
C 	C 	0.17440 0.95710 0.19320 0.12800
C 	C 	0.21060 0.04630 0.19380 -0.07100
C 	C 	0.31160 0.07550 0.20120 -0.01900
H 	H 	0.37290 0.03900 0.20420 0.02300
C 	C 	0.31580 0.16660 0.20400 -0.05400
H 	H 	0.38040 0.19810 0.20860 0.04400
C 	C 	0.21750 0.20390 0.19950 -0.02600
C 	C 	0.18580 0.29420 0.20450 0.09500
C 	C 	0.18280 0.43380 0.19770 0.23800
C 	C 	0.20480 0.52190 0.18350 -0.59700
H 	H 	0.16390 0.56350 0.19910 0.15100
H 	H 	0.18280 0.52650 0.15610 0.18500
H 	H 	0.28230 0.53410 0.18570 0.18900
C 	C 	0.29780 0.90190 0.14180 0.12500
C 	C 	0.39910 0.86270 0.14360 -0.13800
H 	H 	0.41910 0.82850 0.16540 0.06900
C 	C 	0.47050 0.87500 0.11250 0.02100
H 	H 	0.53870 0.84670 0.11250 0.01700
C 	C 	0.44210 0.92870 0.08150 -0.07000
H 	H 	0.49270 0.93910 0.06120 0.07200
C 	C 	0.33880 0.96790 0.08010 0.00200
C 	C 	0.26930 0.95360 0.11090 -0.11400
H 	H 	0.20000 0.98010 0.11070 0.09100
C 	C 	0.30790 0.02750 0.04910 0.28600
C 	C 	0.30250 0.35370 0.15120 0.11500
C 	C 	0.40620 0.38780 0.15320 -0.13000
H 	H 	0.43180 0.41450 0.17640 0.06800
C 	C 	0.47080 0.38180 0.12080 0.01700
H 	H 	0.54090 0.40690 0.12130 0.03300
C 	C 	0.43660 0.34020 0.08710 -0.05800
H 	H 	0.48340 0.33520 0.06530 0.07300
C 	C 	0.33240 0.30570 0.08590 -0.03400
C 	C 	0.26530 0.31230 0.11850 -0.09900
H 	H 	0.19450 0.28840 0.11810 0.07700
C 	C 	0.29780 0.25350 0.05180 0.32500
N 	N 	0.22050 0.89110 0.17300 -0.18600
N 	N 	0.08670 0.83810 0.20780 -0.25100
N 	N 	0.09170 0.92700 0.21400 -0.21500
N 	N 	0.23150 0.36170 0.18443 -0.18300
N 	N 	0.11000 0.32300 0.22821 -0.21300
N 	N 	0.10880 0.41250 0.22430 -0.24600
O 	O 	0.38120 0.05510 0.02579 -0.39500
O 	O 	0.20980 0.05290 0.04790 -0.40200
O 	O 	0.36670 0.23270 0.02637 -0.40300
O 	O 	0.19880 0.23010 0.05111 -0.40100
Cu	Cu	0.84991 0.64226 0.48631 0.90300
S 	S 	0.61952 0.62868 0.69068 -0.08400
C 	C 	0.68480 0.23150 0.66680 -0.61200
H 	H 	0.62250 0.19400 0.67160 0.16200
H 	H 	0.74900 0.20730 0.67950 0.18600
H 	H 	0.69770 0.23580 0.63870 0.19800
C 	C 	0.66270 0.31860 0.68280 0.24400
C 	C 	0.67440 0.45710 0.69320 0.10100
C 	C 	0.71060 0.54630 0.69380 -0.03800
C 	C 	0.81160 0.57550 0.70120 -0.03500
H 	H 	0.87290 0.53900 0.70420 0.04200
C 	C 	0.81580 0.66660 0.70400 -0.04200
H 	H 	0.88040 0.69810 0.70860 0.04600
C 	C 	0.71750 0.70390 0.69950 -0.03200
C 	C 	0.68580 0.79420 0.70450 0.10100
C 	C 	0.68280 0.93380 0.69770 0.28200
C 	C 	0.70480 0.02190 0.68350 -0.66700
H 	H 	0.66390 0.06350 0.69910 0.17000
H 	H 	0.68280 0.02650 0.65610 0.20000
H 	H 	0.78230 0.03410 0.68570 0.20200
C 	C 	0.79780 0.40190 0.64180 0.12700
C 	C 	0.89910 0.36270 0.64360 -0.16200
H 	H 	0.91910 0.32850 0.66540 0.08100
C 	C 	0.97050 0.37500 0.61250 0.07100
H 	H 	0.03870 0.34670 0.61250 -0.01800
C 	C 	0.94210 0.42870 0.58150 -0.08700
H 	H 	0.99270 0.43910 0.56120 0.07600
C 	C 	0.83880 0.46790 0.58010 -0.02000
C 	C 	0.76930 0.45360 0.61090 -0.11300
H 	H 	0.70000 0.48010 0.61070 0.08400
C 	C 	0.80790 0.52750 0.54910 0.31200
C 	C 	0.80250 0.85370 0.65120 0.14800
C 	C 	0.90620 0.88780 0.65320 -0.17500
H 	H 	0.93180 0.91450 0.67640 0.09500
C 	C 	0.97080 0.88180 0.62080 0.10400
H 	H 	0.04090 0.90690 0.62130 -0.00400
C 	C 	0.93660 0.84020 0.58710 -0.10200
H 	H 	0.98340 0.83520 0.56530 0.10000
C 	C 	0.83240 0.80570 0.58590 -0.00000
C 	C 	0.76530 0.81230 0.61850 -0.12400
H 	H 	0.69450 0.78840 0.61810 0.09000
C 	C 	0.79780 0.75350 0.55180 0.31500
N 	N 	0.72050 0.39110 0.67300 -0.18400
N 	N 	0.58670 0.33810 0.70780 -0.24800
N 	N 	0.59170 0.42700 0.71400 -0.21200
N 	N 	0.73150 0.86170 0.68443 -0.19300
N 	N 	0.61000 0.82300 0.72821 -0.21000
N 	N 	0.60880 0.91250 0.72430 -0.24200
O 	O 	0.88120 0.55510 0.52579 -0.38800
O 	O 	0.70980 0.55290 0.54790 -0.39700
O 	O 	0.86670 0.73270 0.52637 -0.39100
O 	O 	0.69880 0.73010 0.55111 -0.39200
Cu	Cu	0.15009 0.85774 0.48631 0.90000
S 	S 	0.38048 0.87132 0.69068 -0.08100
C 	C 	0.31520 0.26850 0.66680 -0.60800
H 	H 	0.37750 0.30600 0.67160 0.16200
H 	H 	0.25100 0.29270 0.67950 0.18400
H 	H 	0.30230 0.26420 0.63870 0.19600
C 	C 	0.33730 0.18140 0.68280 0.24000
C 	C 	0.32560 0.04290 0.69320 0.06800
C 	C 	0.28940 0.95370 0.69380 -0.00200
C 	C 	0.18840 0.92450 0.70120 -0.05300
H 	H 	0.12710 0.96100 0.70420 0.04800
C 	C 	0.18420 0.83340 0.70400 -0.03200
H 	H 	0.11960 0.80190 0.70860 0.03300
C 	C 	0.28250 0.79610 0.69950 -0.03700
C 	C 	0.31420 0.70580 0.70450 0.10000
C 	C 	0.31720 0.56620 0.69770 0.24000
C 	C 	0.29520 0.47810 0.68350 -0.59700
H 	H 	0.33610 0.43650 0.69910 0.15300
H 	H 	0.31720 0.47350 0.65610 0.18700
H 	H 	0.21770 0.46590 0.68570 0.18600
C 	C 	0.20220 0.09810 0.64180 0.07000
C 	C 	0.10090 0.13730 0.64360 -0.07700
H 	H 	0.08090 0.17150 0.66540 0.03900
C 	C 	0.02950 0.12500 0.61250 -0.08700
H 	H 	0.96130 0.15330 0.61250 0.06100
C 	C 	0.05790 0.07130 0.58150 0.00700
H 	H 	0.00730 0.06090 0.56120 0.02200
C 	C 	0.16120 0.03210 0.58010 -0.10800
C 	C 	0.23070 0.04640 0.61090 -0.05300
H 	H 	0.30000 0.01990 0.61070 0.05500
C 	C 	0.19210 0.97250 0.54910 0.36200
C 	C 	0.19750 0.64630 0.65120 0.09400
C 	C 	0.09380 0.61220 0.65320 -0.08900
H 	H 	0.06820 0.58550 0.67640 0.04700
C 	C 	0.02920 0.61820 0.62080 -0.06000
H 	H 	0.95910 0.59310 0.62130 0.07200
C 	C 	0.06340 0.65980 0.58710 -0.01900
H 	H 	0.01660 0.66480 0.56530 0.04900
C 	C 	0.16760 0.69430 0.58590 -0.05600
C 	C 	0.23470 0.68770 0.61850 -0.07900
H 	H 	0.30550 0.71160 0.61810 0.07500
C 	C 	0.20220 0.74650 0.55180 0.33200
N 	N 	0.27950 0.10890 0.67300 -0.17300
N 	N 	0.41330 0.16190 0.70780 -0.24800
N 	N 	0.40830 0.07300 0.71400 -0.21100
N 	N 	0.26850 0.63830 0.68443 -0.18100
N 	N 	0.39000 0.67700 0.72821 -0.21100
N 	N 	0.39120 0.58750 0.72430 -0.24200
O 	O 	0.11880 0.94490 0.52579 -0.40400
O 	O 	0.29020 0.94710 0.54790 -0.40000
O 	O 	0.13330 0.76730 0.52637 -0.41000
O 	O 	0.30120 0.76990 0.55111 -0.39700
Cu	Cu	0.65009 0.35774 0.98631 0.90100
S 	S 	0.88048 0.37132 0.19068 -0.06800
C 	C 	0.81520 0.76850 0.16680 -0.62700
H 	H 	0.87750 0.80600 0.17160 0.17600
H 	H 	0.75100 0.79270 0.17950 0.19300
H 	H 	0.80230 0.76420 0.13870 0.20800
C 	C 	0.83730 0.68140 0.18280 0.25100
C 	C 	0.82560 0.54290 0.19320 0.10300
C 	C 	0.78940 0.45370 0.19380 -0.04000
C 	C 	0.68840 0.42450 0.20120 -0.03500
H 	H 	0.62710 0.46100 0.20420 0.03700
C 	C 	0.68420 0.33340 0.20400 -0.04100
H 	H 	0.61960 0.30190 0.20860 0.04000
C 	C 	0.78250 0.29610 0.19950 -0.03500
C 	C 	0.81420 0.20580 0.20450 0.10200
C 	C 	0.81720 0.06620 0.19770 0.21100
C 	C 	0.79520 0.97810 0.18350 -0.55200
H 	H 	0.83610 0.93650 0.19910 0.14900
H 	H 	0.81720 0.97350 0.15610 0.18700
H 	H 	0.71770 0.96590 0.18570 0.18400
C 	C 	0.70220 0.59810 0.14180 0.11100
C 	C 	0.60090 0.63730 0.14360 -0.12700
H 	H 	0.58090 0.67150 0.16540 0.06400
C 	C 	0.52950 0.62500 0.11250 0.00300
H 	H 	0.46130 0.65330 0.11250 0.01900
C 	C 	0.55790 0.57130 0.08150 -0.05100
H 	H 	0.50730 0.56090 0.06120 0.05700
C 	C 	0.66120 0.53210 0.08010 -0.03900
C 	C 	0.73070 0.54640 0.11090 -0.09500
H 	H 	0.80000 0.51990 0.11070 0.08100
C 	C 	0.69210 0.47250 0.04910 0.32000
C 	C 	0.69750 0.14630 0.15120 0.11400
C 	C 	0.59380 0.11220 0.15320 -0.13400
H 	H 	0.56820 0.08550 0.17640 0.06400
C 	C 	0.52920 0.11820 0.12080 0.01800
H 	H 	0.45910 0.09310 0.12130 0.02700
C 	C 	0.56340 0.15980 0.08710 -0.06300
H 	H 	0.51660 0.16480 0.06530 0.07300
C 	C 	0.66760 0.19430 0.08590 -0.03100
C 	C 	0.73470 0.18770 0.11850 -0.10100
H 	H 	0.80550 0.21160 0.11810 0.08300
C 	C 	0.70220 0.24650 0.05180 0.32200
N 	N 	0.77950 0.60890 0.17300 -0.18300
N 	N 	0.91330 0.66190 0.20780 -0.24200
N 	N 	0.90830 0.57300 0.21400 -0.20500
N 	N 	0.76850 0.13830 0.18443 -0.18000
N 	N 	0.89000 0.17700 0.22821 -0.20500
N 	N 	0.89120 0.08750 0.22430 -0.23700
O 	O 	0.61880 0.44490 0.02579 -0.39500
O 	O 	0.79020 0.44710 0.04790 -0.39500
O 	O 	0.63330 0.26730 0.02637 -0.40200
O 	O 	0.80120 0.26990 0.05111 -0.39300
Cu	Cu	0.00000 0.25000 0.26002 0.82600
Cu	Cu	0.50000 0.75000 0.76002 0.83800
Cu	Cu	0.00000 0.75000 0.23998 0.82700
Cu	Cu	0.50000 0.25000 0.73998 0.83700
Cu	Cu	0.00531 0.50000 0.25000 0.82800
Cu	Cu	0.49469 0.50000 0.75000 0.83900
Cu	Cu	0.99469 0.00000 0.25000 0.83900
Cu	Cu	0.50531 0.00000 0.75000 0.82700
