data_crystal

_cell_length_a 5.88210
_cell_length_b 10.73670
_cell_length_c 27.79200
_cell_angle_alpha 97.81100
_cell_angle_beta  90.00000
_cell_angle_gamma 90.00000

_symmetry_space_group_name_	'P 1'
_symmetry_space_group_name_H-M	'P 1'

loop_
_symmetry_equiv_pos_as_xyz
  x,y,z

loop_
_atom_site_label
_atom_site_type_symbol
_atom_site_fract_x
_atom_site_fract_y
_atom_site_fract_z
_atom_site_charge
Cu	Cu	0.62419 0.70816 0.29391 0.88400
Cu	Cu	0.39501 0.80296 0.21020 0.85300
Cu	Cu	0.62419 0.29184 0.20609 0.88400
Cu	Cu	0.39501 0.19704 0.28980 0.85300
Cu	Cu	0.37581 0.29184 0.70609 0.88400
Cu	Cu	0.60499 0.19704 0.78980 0.85300
Cu	Cu	0.37581 0.70816 0.79391 0.88400
Cu	Cu	0.60499 0.80296 0.71020 0.85300
Mo	Mo	0.86317 0.57913 0.19713 1.03500
Mo	Mo	0.15473 0.07635 0.18369 1.13100
Mo	Mo	0.86317 0.42087 0.30287 1.03500
Mo	Mo	0.15473 0.92365 0.31631 1.13100
Mo	Mo	0.13683 0.42087 0.80287 1.03600
Mo	Mo	0.84527 0.92365 0.81631 1.13200
Mo	Mo	0.13683 0.57913 0.69713 1.03600
Mo	Mo	0.84527 0.07635 0.68369 1.13200
H 	H 	0.24400 0.89380 0.65360 -0.03200
H 	H 	0.08880 0.85470 0.57620 0.05600
H 	H 	0.63780 0.63740 0.53460 0.08800
H 	H 	0.77590 0.68040 0.61370 -0.05600
H 	H 	0.78410 0.78820 0.39660 -0.01800
H 	H 	0.63940 0.78510 0.47460 0.07700
H 	H 	0.09810 0.58750 0.41440 0.05300
H 	H 	0.25650 0.59610 0.33850 -0.07800
H 	H 	0.24400 0.10620 0.84640 -0.03200
H 	H 	0.08880 0.14530 0.92380 0.05600
H 	H 	0.63780 0.36260 0.96540 0.08700
H 	H 	0.77590 0.31960 0.88630 -0.05600
H 	H 	0.78410 0.21180 0.10340 -0.01800
H 	H 	0.63940 0.21490 0.02540 0.07700
H 	H 	0.09810 0.41250 0.08560 0.05300
H 	H 	0.25650 0.40390 0.16150 -0.07800
H 	H 	0.75600 0.10620 0.34640 -0.03200
H 	H 	0.91120 0.14530 0.42380 0.05600
H 	H 	0.36220 0.36260 0.46540 0.08800
H 	H 	0.22410 0.31960 0.38630 -0.05600
H 	H 	0.21590 0.21180 0.60340 -0.01800
H 	H 	0.36060 0.21490 0.52540 0.07700
H 	H 	0.90190 0.41250 0.58560 0.05300
H 	H 	0.74350 0.40390 0.66150 -0.07800
H 	H 	0.75600 0.89380 0.15360 -0.03200
H 	H 	0.91120 0.85470 0.07620 0.05600
H 	H 	0.36220 0.63740 0.03460 0.08700
H 	H 	0.22410 0.68040 0.11370 -0.05600
H 	H 	0.21590 0.78820 0.89660 -0.01800
H 	H 	0.36060 0.78510 0.97460 0.07700
H 	H 	0.90190 0.58750 0.91440 0.05300
H 	H 	0.74350 0.59610 0.83850 -0.07800
C 	C 	0.32210 0.83970 0.62920 0.01700
C 	C 	0.22870 0.81690 0.58333 -0.12500
C 	C 	0.34380 0.73740 0.54757 0.04100
C 	C 	0.55240 0.68840 0.55880 -0.14000
C 	C 	0.63420 0.71500 0.60583 0.05400
C 	C 	0.64240 0.74830 0.40049 0.05200
C 	C 	0.55700 0.74720 0.44703 -0.13300
C 	C 	0.34870 0.68970 0.45250 0.04300
C 	C 	0.23740 0.63060 0.41150 -0.13200
C 	C 	0.33310 0.63570 0.36658 0.02500
C 	C 	0.22470 0.69820 0.50012 0.08300
C 	C 	0.32210 0.16030 0.87080 0.01700
C 	C 	0.22870 0.18310 0.91667 -0.12500
C 	C 	0.34380 0.26260 0.95243 0.04100
C 	C 	0.55240 0.31160 0.94120 -0.14000
C 	C 	0.63420 0.28500 0.89417 0.05400
C 	C 	0.64240 0.25170 0.09951 0.05200
C 	C 	0.55700 0.25280 0.05297 -0.13300
C 	C 	0.34870 0.31030 0.04750 0.04200
C 	C 	0.23740 0.36940 0.08850 -0.13200
C 	C 	0.33310 0.36430 0.13342 0.02500
C 	C 	0.22470 0.30180 0.99988 0.08300
C 	C 	0.67790 0.16030 0.37080 0.01700
C 	C 	0.77130 0.18310 0.41667 -0.12500
C 	C 	0.65620 0.26260 0.45243 0.04100
C 	C 	0.44760 0.31160 0.44120 -0.14000
C 	C 	0.36580 0.28500 0.39417 0.05400
C 	C 	0.35760 0.25170 0.59951 0.05200
C 	C 	0.44300 0.25280 0.55297 -0.13300
C 	C 	0.65130 0.31030 0.54750 0.04300
C 	C 	0.76260 0.36940 0.58850 -0.13200
C 	C 	0.66690 0.36430 0.63342 0.02500
C 	C 	0.77530 0.30180 0.49988 0.08300
C 	C 	0.67790 0.83970 0.12920 0.01700
C 	C 	0.77130 0.81690 0.08333 -0.12500
C 	C 	0.65620 0.73740 0.04757 0.04100
C 	C 	0.44760 0.68840 0.05880 -0.14000
C 	C 	0.36580 0.71500 0.10583 0.05400
C 	C 	0.35760 0.74830 0.90049 0.05200
C 	C 	0.44300 0.74720 0.94703 -0.13300
C 	C 	0.65130 0.68970 0.95250 0.04200
C 	C 	0.76260 0.63060 0.91150 -0.13200
C 	C 	0.66690 0.63570 0.86658 0.02500
C 	C 	0.77530 0.69820 0.00012 0.08300
N 	N 	0.51940 0.78811 0.64058 -0.26000
N 	N 	0.53110 0.69480 0.36106 -0.25600
N 	N 	0.51940 0.21189 0.85942 -0.26000
N 	N 	0.53110 0.30520 0.13894 -0.25600
N 	N 	0.48060 0.21189 0.35942 -0.26000
N 	N 	0.46890 0.30520 0.63894 -0.25600
N 	N 	0.48060 0.78811 0.14058 -0.26000
N 	N 	0.46890 0.69480 0.86106 -0.25600
O 	O 	0.65930 0.70154 0.22403 -0.67100
O 	O 	0.86670 0.41760 0.21062 -0.62600
O 	O 	0.15720 0.92511 0.20274 -0.59100
O 	O 	0.87500 0.86810 0.31121 -0.51000
O 	O 	0.35210 0.81240 0.28215 -0.65100
O 	O 	0.02330 0.67450 0.50052 -0.21300
O 	O 	0.65930 0.29846 0.27597 -0.67100
O 	O 	0.86670 0.58240 0.28938 -0.62600
O 	O 	0.15720 0.07489 0.29726 -0.59100
O 	O 	0.87500 0.13190 0.18879 -0.51000
O 	O 	0.35210 0.18760 0.21785 -0.65100
O 	O 	0.02330 0.32550 0.99948 -0.21300
O 	O 	0.34070 0.29846 0.77597 -0.67100
O 	O 	0.13330 0.58240 0.78938 -0.62600
O 	O 	0.84280 0.07489 0.79726 -0.59100
O 	O 	0.12500 0.13190 0.68879 -0.51000
O 	O 	0.64790 0.18760 0.71785 -0.65100
O 	O 	0.97670 0.32550 0.49948 -0.21300
O 	O 	0.34070 0.70154 0.72403 -0.67100
O 	O 	0.13330 0.41760 0.71062 -0.62600
O 	O 	0.84280 0.92511 0.70274 -0.59100
O 	O 	0.12500 0.86810 0.81121 -0.51000
O 	O 	0.64790 0.81240 0.78215 -0.65100
O 	O 	0.97670 0.67450 0.00052 -0.21300
