data_crystal

_cell_length_a 9.24800
_cell_length_b 11.21600
_cell_length_c 11.87500
_cell_angle_alpha 79.63900
_cell_angle_beta  74.73600
_cell_angle_gamma 88.30100

_symmetry_space_group_name_	'P 1'
_symmetry_space_group_name_H-M	'P 1'

loop_
_symmetry_equiv_pos_as_xyz
  x,y,z

loop_
_atom_site_label
_atom_site_type_symbol
_atom_site_fract_x
_atom_site_fract_y
_atom_site_fract_z
_atom_site_charge
Cd	Cd	-0.00000 0.00000 -0.00000 1.08300
Cd	Cd	0.00000 0.00000 0.50000 1.13700
H 	H 	0.64370 0.05810 0.62850 -0.03600
H 	H 	0.78940 0.10860 0.28880 0.00300
H 	H 	0.56050 0.21300 0.23100 0.08400
H 	H 	0.41110 0.18080 0.33070 0.09100
H 	H 	0.29050 0.36410 0.27930 0.15300
H 	H 	0.13410 0.52850 0.27080 0.09500
H 	H 	0.23180 0.64120 0.19430 0.08900
H 	H 	0.98720 0.70650 0.60780 0.12800
H 	H 	0.10560 0.82960 0.27050 0.01400
H 	H 	0.43470 0.68000 0.32360 0.15800
H 	H 	0.67750 0.37990 0.36840 0.15900
H 	H 	0.75600 0.56370 0.41870 0.13600
H 	H 	0.64640 0.67330 0.42800 0.12300
H 	H 	0.01290 0.69690 0.03580 -0.14900
H 	H 	0.75110 0.85880 0.26770 0.04000
H 	H 	0.35630 0.94190 0.37150 0.04800
H 	H 	0.21060 0.89140 0.71120 0.01200
H 	H 	0.43950 0.78700 0.76900 0.14500
H 	H 	0.58890 0.81920 0.66930 0.16100
H 	H 	0.70950 0.63590 0.72070 0.17800
H 	H 	0.86590 0.47150 0.72920 0.15000
H 	H 	0.76820 0.35880 0.80570 0.12700
H 	H 	0.01280 0.29350 0.39220 -0.11900
H 	H 	0.89440 0.17040 0.72950 -0.02200
H 	H 	0.56530 0.32000 0.67640 0.15500
H 	H 	0.32250 0.62010 0.63160 0.15300
H 	H 	0.24400 0.43630 0.58130 0.10600
H 	H 	0.35360 0.32670 0.57200 0.10300
H 	H 	0.98710 0.30310 0.96420 0.14100
H 	H 	0.24890 0.14120 0.73230 -0.04400
C 	C 	0.64800 0.08110 0.54840 0.08000
C 	C 	0.72900 0.10710 0.36530 0.05900
C 	C 	0.50900 0.21950 0.31210 -0.22600
C 	C 	0.48900 0.35140 0.32100 0.24700
C 	C 	0.36250 0.40830 0.29700 -0.33300
C 	C 	0.34340 0.53030 0.29930 0.25600
C 	C 	0.20430 0.59050 0.27230 -0.22400
C 	C 	0.02670 0.71030 0.52670 -0.08300
C 	C 	0.08930 0.77900 0.34400 0.08600
C 	C 	0.44820 0.59750 0.32410 -0.31500
C 	C 	0.59420 0.41800 0.34950 -0.30500
C 	C 	0.57550 0.54210 0.35000 0.24900
C 	C 	0.69510 0.61720 0.37720 -0.23100
C 	C 	0.94250 0.71070 0.10400 0.27000
C 	C 	0.80230 0.79970 0.22780 0.09800
C 	C 	0.35200 0.91890 0.45160 0.12600
C 	C 	0.27100 0.89290 0.63470 0.10000
C 	C 	0.49100 0.78050 0.68790 -0.26900
C 	C 	0.51100 0.64860 0.67900 0.28300
C 	C 	0.63750 0.59170 0.70300 -0.34100
C 	C 	0.65660 0.46970 0.70070 0.29000
C 	C 	0.79570 0.40950 0.72770 -0.25500
C 	C 	0.97330 0.28970 0.47330 0.26500
C 	C 	0.91070 0.22100 0.65600 0.10300
C 	C 	0.55180 0.40250 0.67590 -0.32000
C 	C 	0.40580 0.58200 0.65050 -0.31400
C 	C 	0.42450 0.45790 0.65000 0.25700
C 	C 	0.30490 0.38280 0.62280 -0.22600
C 	C 	0.05750 0.28930 0.89600 -0.06200
C 	C 	0.19770 0.20030 0.77220 0.07900
S 	S 	0.84560 0.88110 0.80690 0.74400
S 	S 	0.15440 0.11890 0.19310 0.83000
N 	N 	0.59470 0.15460 0.39210 -0.08100
N 	N 	0.53910 0.13900 0.51280 -0.12100
N 	N 	0.76500 0.05680 0.46440 -0.24000
N 	N 	0.13080 0.66500 0.36040 -0.07500
N 	N 	0.09160 0.62010 0.48060 -0.08100
N 	N 	0.02210 0.81110 0.44530 -0.19500
N 	N 	0.78860 0.68330 0.26870 -0.05800
N 	N 	0.87940 0.62250 0.18920 -0.11100
N 	N 	0.89920 0.82220 0.12150 -0.23300
N 	N 	0.40530 0.84540 0.60790 -0.05100
N 	N 	0.46090 0.86100 0.48720 -0.08000
N 	N 	0.23500 0.94320 0.53560 -0.19200
N 	N 	0.86920 0.33500 0.63960 -0.06100
N 	N 	0.90840 0.37990 0.51940 -0.11000
N 	N 	0.97790 0.18890 0.55470 -0.25400
N 	N 	0.21140 0.31670 0.73130 -0.07100
N 	N 	0.12060 0.37750 0.81080 -0.07300
N 	N 	0.10080 0.17780 0.87850 -0.23500
O 	O 	0.85480 0.90840 0.68200 -0.37300
O 	O 	0.85190 0.75170 0.84010 -0.26700
O 	O 	0.96810 0.94030 0.83190 -0.34700
O 	O 	0.70130 0.91310 0.87510 -0.23800
O 	O 	0.14520 0.09160 0.31800 -0.54700
O 	O 	0.14810 0.24830 0.15990 -0.37700
O 	O 	0.03190 0.05970 0.16810 -0.61600
O 	O 	0.29870 0.08690 0.12490 -0.43300
