data_crystal

_cell_length_a 9.24100
_cell_length_b 11.24500
_cell_length_c 11.84500
_cell_angle_alpha 78.97000
_cell_angle_beta  74.58000
_cell_angle_gamma 87.60900

_symmetry_space_group_name_	'P 1'
_symmetry_space_group_name_H-M	'P 1'

loop_
_symmetry_equiv_pos_as_xyz
  x,y,z

loop_
_atom_site_label
_atom_site_type_symbol
_atom_site_fract_x
_atom_site_fract_y
_atom_site_fract_z
_atom_site_charge
Mn	Mn	-0.00000 0.00000 -0.00000 1.11000
Mn	Mn	-0.00000 0.00000 0.50000 1.17700
H 	H 	0.64490 0.05350 0.63150 -0.03100
H 	H 	0.79300 0.10380 0.28850 0.00300
H 	H 	0.56600 0.21440 0.22970 0.07800
H 	H 	0.41560 0.18060 0.32860 0.08100
H 	H 	0.28980 0.36340 0.28220 0.14200
H 	H 	0.12270 0.52530 0.28680 0.09000
H 	H 	0.21510 0.63710 0.20250 0.08500
H 	H 	0.98620 0.71000 0.61410 0.13100
H 	H 	0.10030 0.83030 0.27480 0.01900
H 	H 	0.42810 0.67890 0.33090 0.15300
H 	H 	0.67920 0.38050 0.36630 0.15600
H 	H 	0.75270 0.56370 0.41960 0.13500
H 	H 	0.64110 0.67290 0.42750 0.12300
H 	H 	0.00920 0.70140 0.03100 -0.15100
H 	H 	0.75190 0.86090 0.26820 0.04300
H 	H 	0.35510 0.94650 0.36850 0.05700
H 	H 	0.20700 0.89620 0.71150 0.01300
H 	H 	0.43400 0.78560 0.77030 0.14200
H 	H 	0.58440 0.81940 0.67140 0.15600
H 	H 	0.71020 0.63660 0.71780 0.16900
H 	H 	0.87730 0.47470 0.71320 0.14900
H 	H 	0.78490 0.36290 0.79750 0.12600
H 	H 	0.01380 0.29000 0.38590 -0.11900
H 	H 	0.89970 0.16970 0.72520 -0.01700
H 	H 	0.57190 0.32110 0.66910 0.14900
H 	H 	0.32080 0.61950 0.63370 0.15100
H 	H 	0.24730 0.43630 0.58040 0.10600
H 	H 	0.35890 0.32710 0.57250 0.10300
H 	H 	0.99080 0.29860 0.96900 0.15000
H 	H 	0.24810 0.13910 0.73180 -0.04500
C 	C 	0.65030 0.07780 0.55090 0.06300
C 	C 	0.73320 0.10360 0.36530 0.06000
C 	C 	0.51290 0.21950 0.31100 -0.21100
C 	C 	0.49020 0.35200 0.32130 0.23100
C 	C 	0.36100 0.40780 0.29970 -0.30900
C 	C 	0.33760 0.53080 0.30410 0.23300
C 	C 	0.19350 0.58850 0.28220 -0.21100
C 	C 	0.02490 0.71330 0.53260 -0.08400
C 	C 	0.08460 0.78050 0.34940 0.07900
C 	C 	0.44350 0.59700 0.32870 -0.29800
C 	C 	0.59440 0.41850 0.34860 -0.29700
C 	C 	0.57410 0.54170 0.35020 0.24200
C 	C 	0.69140 0.61700 0.37700 -0.22900
C 	C 	0.94060 0.71450 0.10060 0.26700
C 	C 	0.80260 0.80260 0.22680 0.09800
C 	C 	0.34970 0.92220 0.44910 0.11300
C 	C 	0.26680 0.89640 0.63470 0.10100
C 	C 	0.48710 0.78050 0.68900 -0.25600
C 	C 	0.50980 0.64800 0.67870 0.26900
C 	C 	0.63900 0.59220 0.70030 -0.31800
C 	C 	0.66240 0.46920 0.69590 0.26900
C 	C 	0.80650 0.41150 0.71780 -0.24500
C 	C 	0.97510 0.28670 0.46740 0.26900
C 	C 	0.91540 0.21950 0.65060 0.09300
C 	C 	0.55650 0.40300 0.67130 -0.30400
C 	C 	0.40560 0.58150 0.65140 -0.30700
C 	C 	0.42590 0.45830 0.64980 0.25100
C 	C 	0.30860 0.38300 0.62300 -0.22600
C 	C 	0.05940 0.28550 0.89940 -0.07100
C 	C 	0.19740 0.19740 0.77320 0.08000
S 	S 	0.85018 0.88593 0.80577 0.73800
S 	S 	0.14982 0.11407 0.19423 0.82200
N 	N 	0.59740 0.15440 0.39170 -0.08200
N 	N 	0.54110 0.13930 0.51250 -0.11700
N 	N 	0.76990 0.05320 0.46430 -0.24100
N 	N 	0.12520 0.66520 0.36890 -0.07400
N 	N 	0.08970 0.61960 0.48880 -0.08300
N 	N 	0.01830 0.81400 0.45250 -0.19500
N 	N 	0.78700 0.68460 0.26660 -0.05800
N 	N 	0.87720 0.62520 0.18570 -0.11000
N 	N 	0.89960 0.82710 0.12060 -0.23300
N 	N 	0.40260 0.84560 0.60830 -0.05100
N 	N 	0.45890 0.86070 0.48750 -0.07600
N 	N 	0.23010 0.94680 0.53570 -0.19200
N 	N 	0.87480 0.33480 0.63110 -0.06000
N 	N 	0.91030 0.38040 0.51120 -0.10800
N 	N 	0.98170 0.18600 0.54750 -0.25600
N 	N 	0.21300 0.31540 0.73340 -0.07200
N 	N 	0.12280 0.37480 0.81430 -0.07100
N 	N 	0.10040 0.17290 0.87940 -0.23900
O 	O 	0.87730 0.92020 0.67760 -0.38300
O 	O 	0.85440 0.75410 0.83600 -0.25900
O 	O 	0.96500 0.93930 0.84520 -0.35200
O 	O 	0.70230 0.92420 0.86420 -0.23000
O 	O 	0.12270 0.07980 0.32240 -0.57400
O 	O 	0.14560 0.24590 0.16400 -0.37100
O 	O 	0.03500 0.06070 0.15480 -0.62800
O 	O 	0.29770 0.07580 0.13580 -0.43100
