data_crystal

_cell_length_a 7.30870
_cell_length_b 14.56400
_cell_length_c 6.80790
_cell_angle_alpha 91.60100
_cell_angle_beta  93.71700
_cell_angle_gamma 78.15400

_symmetry_space_group_name_	'P 1'
_symmetry_space_group_name_H-M	'P 1'

loop_
_symmetry_equiv_pos_as_xyz
  x,y,z

loop_
_atom_site_label
_atom_site_type_symbol
_atom_site_fract_x
_atom_site_fract_y
_atom_site_fract_z
_atom_site_charge
Ce	Ce	0.75780 0.49960 0.17530 2.11300
P 	P 	0.79360 0.42900 0.70410 0.45500
O 	O 	0.93530 0.46110 0.85370 -0.61800
O 	O 	0.60280 0.44530 0.79000 -0.53200
O 	O 	0.78600 0.47840 0.50880 -0.55400
C 	C 	0.86900 0.30610 0.66500 -0.06700
N 	N 	0.84900 0.22630 0.78800 -0.08900
C 	C 	0.84600 0.14300 0.65700 0.07400
C 	C 	0.02000 0.07040 0.72500 -0.00300
C 	C 	0.97800 0.04110 0.92710 0.02500
C 	C 	0.98300 0.12730 0.05830 0.01600
C 	C 	0.02100 0.20220 0.92400 0.03000
S 	S 	0.51700 0.70320 0.85600 0.79200
O 	O 	0.47600 0.78890 0.96600 -0.27800
O 	O 	0.56500 0.72780 0.66600 -0.32500
O 	O 	0.66100 0.64660 0.99000 -0.54300
O 	O 	0.34500 0.66800 0.83400 -0.49600
Ce	Ce	0.24220 0.50040 0.82470 2.11300
P 	P 	0.20640 0.57100 0.29590 0.45500
O 	O 	0.06470 0.53890 0.14630 -0.61800
O 	O 	0.39720 0.55470 0.21000 -0.53200
O 	O 	0.21400 0.52160 0.49120 -0.55400
C 	C 	0.13100 0.69390 0.33500 -0.06700
N 	N 	0.15100 0.77370 0.21200 -0.08900
C 	C 	0.15400 0.85700 0.34300 0.07400
C 	C 	0.98000 0.92960 0.27500 -0.00300
C 	C 	0.02200 0.95890 0.07290 0.02500
C 	C 	0.01700 0.87270 0.94170 0.01600
C 	C 	0.97900 0.79780 0.07600 0.03000
S 	S 	0.48300 0.29680 0.14400 0.79200
O 	O 	0.52400 0.21110 0.03400 -0.27800
O 	O 	0.43500 0.27220 0.33400 -0.32500
O 	O 	0.33900 0.35340 0.01000 -0.54300
O 	O 	0.65500 0.33200 0.16600 -0.49600
