data_crystal

_cell_length_a 12.88900
_cell_length_b 15.26600
_cell_length_c 10.38900
_cell_angle_alpha 90.00000
_cell_angle_beta  118.06000
_cell_angle_gamma 90.00000

_symmetry_space_group_name_	'P 1'
_symmetry_space_group_name_H-M	'P 1'

loop_
_symmetry_equiv_pos_as_xyz
  x,y,z

loop_
_atom_site_label
_atom_site_type_symbol
_atom_site_fract_x
_atom_site_fract_y
_atom_site_fract_z
_atom_site_charge
O 	O 	0.66690 0.63170 0.31920 -0.42200
Ag	Ag	0.57313 0.68062 0.42641 0.51100
Ag	Ag	0.86091 0.35059 0.14104 0.51300
N 	N 	0.83450 0.49950 0.12840 -0.18600
C 	C 	0.78340 0.54270 0.19510 0.08300
H 	H 	0.74630 0.51110 0.23840 0.00100
C 	C 	0.78400 0.63330 0.20160 -0.14100
C 	C 	0.72550 0.67930 0.28010 0.35300
C 	C 	0.83980 0.68020 0.14010 0.08200
H 	H 	0.84300 0.74100 0.14630 0.03200
C 	C 	0.89160 0.63600 0.06810 -0.13400
C 	C 	0.88470 0.54550 0.06420 0.08200
H 	H 	0.91690 0.51520 0.01390 0.01600
C 	C 	0.95840 0.68150 0.00070 0.35400
O 	O 	0.74170 0.75910 0.29730 -0.40700
O 	O 	0.97030 0.76200 0.02030 -0.35300
O 	O 	0.99700 0.63510 0.93410 -0.39400
O 	O 	0.83310 0.13170 0.18080 -0.42300
Ag	Ag	0.92687 0.18062 0.07359 0.51000
Ag	Ag	0.63909 0.85059 0.35896 0.51500
N 	N 	0.66550 0.99950 0.37160 -0.18500
C 	C 	0.71660 0.04270 0.30490 0.08400
H 	H 	0.75370 0.01110 0.26160 0.00200
C 	C 	0.71600 0.13330 0.29840 -0.14000
C 	C 	0.77450 0.17930 0.21990 0.35400
C 	C 	0.66020 0.18020 0.35990 0.08300
H 	H 	0.65700 0.24100 0.35370 0.03200
C 	C 	0.60840 0.13600 0.43190 -0.13400
C 	C 	0.61530 0.04550 0.43580 0.08200
H 	H 	0.58310 0.01520 0.48610 0.01800
C 	C 	0.54160 0.18150 0.49930 0.35900
O 	O 	0.75830 0.25910 0.20270 -0.40800
O 	O 	0.52970 0.26200 0.47970 -0.35400
O 	O 	0.50300 0.13510 0.56590 -0.39900
O 	O 	0.33310 0.36830 0.68080 -0.42100
Ag	Ag	0.42687 0.31938 0.57359 0.51200
Ag	Ag	0.13909 0.64941 0.85896 0.51400
N 	N 	0.16550 0.50050 0.87160 -0.18500
C 	C 	0.21660 0.45730 0.80490 0.08400
H 	H 	0.25370 0.48890 0.76160 0.00200
C 	C 	0.21600 0.36670 0.79840 -0.14000
C 	C 	0.27450 0.32070 0.71990 0.35400
C 	C 	0.16020 0.31980 0.85990 0.08200
H 	H 	0.15700 0.25900 0.85370 0.03200
C 	C 	0.10840 0.36400 0.93190 -0.13400
C 	C 	0.11530 0.45450 0.93580 0.08200
H 	H 	0.08310 0.48480 0.98610 0.01600
C 	C 	0.04160 0.31850 0.99930 0.35400
O 	O 	0.25830 0.24090 0.70270 -0.40700
O 	O 	0.02970 0.23800 0.97970 -0.35300
O 	O 	0.00300 0.36490 0.06590 -0.39400
O 	O 	0.16690 0.86830 0.81920 -0.42300
Ag	Ag	0.07313 0.81938 0.92641 0.51000
Ag	Ag	0.36091 0.14941 0.64104 0.51500
N 	N 	0.33450 0.00050 0.62840 -0.18500
C 	C 	0.28340 0.95730 0.69510 0.08400
H 	H 	0.24630 0.98890 0.73840 0.00200
C 	C 	0.28400 0.86670 0.70160 -0.14000
C 	C 	0.22550 0.82070 0.78010 0.35400
C 	C 	0.33980 0.81980 0.64010 0.08300
H 	H 	0.34300 0.75900 0.64630 0.03200
C 	C 	0.39160 0.86400 0.56810 -0.13400
C 	C 	0.38470 0.95450 0.56420 0.08200
H 	H 	0.41690 0.98480 0.51390 0.01800
C 	C 	0.45840 0.81850 0.50070 0.35900
O 	O 	0.24170 0.74090 0.79730 -0.40800
O 	O 	0.47030 0.73800 0.52030 -0.35400
O 	O 	0.49700 0.86490 0.43410 -0.39900
O 	O 	0.16690 0.13170 0.31920 -0.42100
Ag	Ag	0.07313 0.18062 0.42641 0.51200
Ag	Ag	0.36091 0.85059 0.14104 0.51600
N 	N 	0.33450 0.99950 0.12840 -0.18300
C 	C 	0.28340 0.04270 0.19510 0.08300
H 	H 	0.24630 0.01110 0.23840 0.00300
C 	C 	0.28400 0.13330 0.20160 -0.13900
C 	C 	0.22550 0.17930 0.28010 0.35400
C 	C 	0.33980 0.18020 0.14010 0.08200
H 	H 	0.34300 0.24100 0.14630 0.03300
C 	C 	0.39160 0.13600 0.06810 -0.13300
C 	C 	0.38470 0.04550 0.06420 0.08100
H 	H 	0.41690 0.01520 0.01390 0.01700
C 	C 	0.45840 0.18150 0.00070 0.35700
O 	O 	0.24170 0.25910 0.29730 -0.40700
O 	O 	0.47030 0.26200 0.02030 -0.35300
O 	O 	0.49700 0.13510 0.93410 -0.39700
O 	O 	0.33310 0.63170 0.18080 -0.42100
Ag	Ag	0.42687 0.68062 0.07359 0.51300
Ag	Ag	0.13909 0.35059 0.35896 0.51600
N 	N 	0.16550 0.49950 0.37160 -0.18500
C 	C 	0.21660 0.54270 0.30490 0.08500
H 	H 	0.25370 0.51110 0.26160 0.00200
C 	C 	0.21600 0.63330 0.29840 -0.14000
C 	C 	0.27450 0.67930 0.21990 0.35400
C 	C 	0.16020 0.68020 0.35990 0.08300
H 	H 	0.15700 0.74100 0.35370 0.03200
C 	C 	0.10840 0.63600 0.43190 -0.13400
C 	C 	0.11530 0.54550 0.43580 0.08300
H 	H 	0.08310 0.51520 0.48610 0.01700
C 	C 	0.04160 0.68150 0.49930 0.35900
O 	O 	0.25830 0.75910 0.20270 -0.40600
O 	O 	0.02970 0.76200 0.47970 -0.35400
O 	O 	0.00300 0.63510 0.56590 -0.39900
O 	O 	0.83310 0.86830 0.68080 -0.42100
Ag	Ag	0.92687 0.81938 0.57359 0.51200
Ag	Ag	0.63909 0.14941 0.85896 0.51600
N 	N 	0.66550 0.00050 0.87160 -0.18300
C 	C 	0.71660 0.95730 0.80490 0.08300
H 	H 	0.75370 0.98890 0.76160 0.00300
C 	C 	0.71600 0.86670 0.79840 -0.13900
C 	C 	0.77450 0.82070 0.71990 0.35400
C 	C 	0.66020 0.81980 0.85990 0.08200
H 	H 	0.65700 0.75900 0.85370 0.03300
C 	C 	0.60840 0.86400 0.93190 -0.13300
C 	C 	0.61530 0.95450 0.93580 0.08100
H 	H 	0.58310 0.98480 0.98610 0.01700
C 	C 	0.54160 0.81850 0.99930 0.35700
O 	O 	0.75830 0.74090 0.70270 -0.40700
O 	O 	0.52970 0.73800 0.97970 -0.35300
O 	O 	0.50300 0.86490 0.06590 -0.39700
O 	O 	0.66690 0.36830 0.81920 -0.42100
Ag	Ag	0.57313 0.31938 0.92641 0.51300
Ag	Ag	0.86091 0.64941 0.64104 0.51600
N 	N 	0.83450 0.50050 0.62840 -0.18500
C 	C 	0.78340 0.45730 0.69510 0.08500
H 	H 	0.74630 0.48890 0.73840 0.00200
C 	C 	0.78400 0.36670 0.70160 -0.14000
C 	C 	0.72550 0.32070 0.78010 0.35400
C 	C 	0.83980 0.31980 0.64010 0.08300
H 	H 	0.84300 0.25900 0.64630 0.03200
C 	C 	0.89160 0.36400 0.56810 -0.13400
C 	C 	0.88470 0.45450 0.56420 0.08300
H 	H 	0.91690 0.48480 0.51390 0.01700
C 	C 	0.95840 0.31850 0.50070 0.35900
O 	O 	0.74170 0.24090 0.79730 -0.40600
O 	O 	0.97030 0.23800 0.52030 -0.35400
O 	O 	0.99700 0.36490 0.43410 -0.39900
