data_crystal

_cell_length_a 11.80510
_cell_length_b 14.15080
_cell_length_c 7.69150
_cell_angle_alpha 90.00000
_cell_angle_beta  91.03800
_cell_angle_gamma 90.00000

_symmetry_space_group_name_	'P 1'
_symmetry_space_group_name_H-M	'P 1'

loop_
_symmetry_equiv_pos_as_xyz
  x,y,z

loop_
_atom_site_label
_atom_site_type_symbol
_atom_site_fract_x
_atom_site_fract_y
_atom_site_fract_z
_atom_site_charge
O 	O 	0.37660 0.39270 0.22310 -0.43100
O 	O 	0.40430 0.43870 0.48840 -0.56300
N 	N 	0.28880 0.22430 0.31710 -0.08100
N 	N 	0.24300 0.15700 0.07900 -0.10700
C 	C 	0.36630 0.38070 0.37720 0.44500
C 	C 	0.30010 0.29780 0.44750 -0.30800
H 	H 	0.33870 0.27270 0.54980 0.10800
H 	H 	0.22540 0.31890 0.48130 0.12400
C 	C 	0.35920 0.15070 0.29960 -0.00300
H 	H 	0.41890 0.13600 0.37540 0.02400
C 	C 	0.33090 0.10150 0.15740 -0.01700
H 	H 	0.36120 0.04480 0.11870 0.02900
C 	C 	0.22090 0.22750 0.17960 0.08700
H 	H 	0.16580 0.27320 0.15830 0.01000
C 	C 	0.18130 0.13020 0.92030 -0.12500
H 	H 	0.23320 0.10090 0.84020 0.06500
H 	H 	0.15040 0.18640 0.86500 0.06500
C 	C 	0.08620 0.06230 0.95890 0.06700
C 	C 	0.98270 0.09790 0.99690 -0.07500
H 	H 	0.96980 0.16270 0.99670 0.05400
C 	C 	0.89320 0.03260 0.03760 -0.07000
H 	H 	0.82120 0.05520 0.06160 0.06000
O 	O 	0.40580 0.33290 0.86990 -0.60600
H 	H 	0.38910 0.28200 0.81610 0.26500
H 	H 	0.45410 0.31920 0.95350 0.23800
O 	O 	0.32370 0.38530 0.86380 -0.26000
H 	H 	0.24110 0.39820 0.88520 0.10700
H 	H 	0.34760 0.42780 0.93400 0.13100
O 	O 	0.62340 0.39270 0.27690 -0.43000
O 	O 	0.59570 0.43870 0.01160 -0.56100
N 	N 	0.71120 0.22430 0.18290 -0.08100
N 	N 	0.75700 0.15700 0.42100 -0.10600
C 	C 	0.63370 0.38070 0.12280 0.44600
C 	C 	0.69990 0.29780 0.05250 -0.30500
H 	H 	0.66130 0.27270 0.95020 0.10700
H 	H 	0.77460 0.31890 0.01870 0.12400
C 	C 	0.64080 0.15070 0.20040 -0.00300
H 	H 	0.58110 0.13600 0.12460 0.02400
C 	C 	0.66910 0.10150 0.34260 -0.01700
H 	H 	0.63880 0.04480 0.38130 0.02800
C 	C 	0.77910 0.22750 0.32040 0.08700
H 	H 	0.83420 0.27320 0.34170 0.01000
C 	C 	0.81870 0.13020 0.57970 -0.12400
H 	H 	0.76680 0.10090 0.65980 0.06400
H 	H 	0.84960 0.18640 0.63500 0.06500
C 	C 	0.91380 0.06230 0.54110 0.06900
C 	C 	0.01730 0.09790 0.50310 -0.07200
H 	H 	0.03020 0.16270 0.50330 0.05300
C 	C 	0.10680 0.03260 0.46240 -0.07400
H 	H 	0.17880 0.05520 0.43840 0.06100
O 	O 	0.59420 0.33290 0.63010 -0.60600
H 	H 	0.61090 0.28200 0.68390 0.26500
H 	H 	0.54590 0.31920 0.54650 0.23800
O 	O 	0.67630 0.38530 0.63620 -0.26000
H 	H 	0.75890 0.39820 0.61480 0.10700
H 	H 	0.65240 0.42780 0.56600 0.13100
O 	O 	0.62340 0.60730 0.77690 -0.43000
O 	O 	0.59570 0.56130 0.51160 -0.56200
N 	N 	0.71120 0.77570 0.68290 -0.08000
N 	N 	0.75700 0.84300 0.92100 -0.10600
C 	C 	0.63370 0.61930 0.62280 0.44600
C 	C 	0.69990 0.70220 0.55250 -0.30700
H 	H 	0.66130 0.72730 0.45020 0.10800
H 	H 	0.77460 0.68110 0.51870 0.12400
C 	C 	0.64080 0.84930 0.70040 -0.00300
H 	H 	0.58110 0.86400 0.62460 0.02400
C 	C 	0.66910 0.89850 0.84260 -0.01700
H 	H 	0.63880 0.95520 0.88130 0.02900
C 	C 	0.77910 0.77250 0.82040 0.08700
H 	H 	0.83420 0.72680 0.84170 0.01000
C 	C 	0.81870 0.86980 0.07970 -0.12500
H 	H 	0.76680 0.89910 0.15980 0.06500
H 	H 	0.84960 0.81360 0.13500 0.06500
C 	C 	0.91380 0.93770 0.04110 0.06700
C 	C 	0.01730 0.90210 0.00310 -0.07500
H 	H 	0.03020 0.83730 0.00330 0.05400
C 	C 	0.10680 0.96740 0.96240 -0.07000
H 	H 	0.17880 0.94480 0.93840 0.06000
O 	O 	0.59420 0.66710 0.13010 -0.60600
H 	H 	0.61090 0.71800 0.18390 0.26500
H 	H 	0.54590 0.68080 0.04650 0.23800
O 	O 	0.67630 0.61470 0.13620 -0.26000
H 	H 	0.75890 0.60180 0.11480 0.10700
H 	H 	0.65240 0.57220 0.06600 0.13100
O 	O 	0.37660 0.60730 0.72310 -0.43000
O 	O 	0.40430 0.56130 0.98840 -0.56100
N 	N 	0.28880 0.77570 0.81710 -0.08100
N 	N 	0.24300 0.84300 0.57900 -0.10600
C 	C 	0.36630 0.61930 0.87720 0.44600
C 	C 	0.30010 0.70220 0.94750 -0.30500
H 	H 	0.33870 0.72730 0.04980 0.10700
H 	H 	0.22540 0.68110 0.98130 0.12400
C 	C 	0.35920 0.84930 0.79960 -0.00300
H 	H 	0.41890 0.86400 0.87540 0.02400
C 	C 	0.33090 0.89850 0.65740 -0.01700
H 	H 	0.36120 0.95520 0.61870 0.02800
C 	C 	0.22090 0.77250 0.67960 0.08700
H 	H 	0.16580 0.72680 0.65830 0.01000
C 	C 	0.18130 0.86980 0.42030 -0.12400
H 	H 	0.23320 0.89910 0.34020 0.06400
H 	H 	0.15040 0.81360 0.36500 0.06500
C 	C 	0.08620 0.93770 0.45890 0.06900
C 	C 	0.98270 0.90210 0.49690 -0.07200
H 	H 	0.96980 0.83730 0.49670 0.05300
C 	C 	0.89320 0.96740 0.53760 -0.07400
H 	H 	0.82120 0.94480 0.56160 0.06100
O 	O 	0.40580 0.66710 0.36990 -0.60600
H 	H 	0.38910 0.71800 0.31610 0.26500
H 	H 	0.45410 0.68080 0.45350 0.23800
O 	O 	0.32370 0.61470 0.36380 -0.26000
H 	H 	0.24110 0.60180 0.38520 0.10700
H 	H 	0.34760 0.57220 0.43400 0.13100
Ca	Ca	0.50000 0.46819 0.75000 1.52400
Ca	Ca	0.50000 0.53181 0.25000 1.52400
