data_crystal

_cell_length_a 10.15000
_cell_length_b 11.07840
_cell_length_c 13.87800
_cell_angle_alpha 107.37300
_cell_angle_beta  92.24200
_cell_angle_gamma 115.04200

_symmetry_space_group_name_	'P 1'
_symmetry_space_group_name_H-M	'P 1'

loop_
_symmetry_equiv_pos_as_xyz
  x,y,z

loop_
_atom_site_label
_atom_site_type_symbol
_atom_site_fract_x
_atom_site_fract_y
_atom_site_fract_z
_atom_site_charge
Eu	Eu	0.44153 0.45346 0.34788 1.79300
Eu	Eu	0.55847 0.54654 0.65212 1.79300
H 	H 	0.77560 0.89330 0.38850 0.04100
H 	H 	0.16130 0.48690 0.38920 -0.00100
H 	H 	0.96430 0.17830 0.11540 0.06300
H 	H 	0.94920 0.80650 0.69070 0.06300
H 	H 	0.99380 0.58150 0.78080 0.03600
H 	H 	0.39830 0.08690 0.08650 0.07000
H 	H 	0.22440 0.10670 0.61150 0.04100
H 	H 	0.83870 0.51310 0.61080 -0.00100
H 	H 	0.03570 0.82170 0.88460 0.06300
H 	H 	0.05080 0.19350 0.30930 0.06300
H 	H 	0.00620 0.41850 0.21920 0.03600
H 	H 	0.60170 0.91310 0.91350 0.07000
C 	C 	0.74000 0.75760 0.51330 0.44200
C 	C 	0.87810 0.88280 0.51070 -0.12300
C 	C 	0.86760 0.93710 0.43470 -0.02700
C 	C 	0.01490 0.94700 0.57770 0.05200
C 	C 	0.30160 0.56480 0.57440 0.39700
C 	C 	0.14620 0.53410 0.53860 -0.12300
C 	C 	0.09510 0.49290 0.43480 -0.00800
C 	C 	0.04830 0.54040 0.60690 0.03900
C 	C 	0.23180 0.22690 0.17210 0.31000
C 	C 	0.11610 0.10700 0.08190 -0.07600
C 	C 	0.13890 0.99940 0.01170 0.04600
C 	C 	0.97890 0.10500 0.06810 -0.05000
C 	C 	0.26000 0.24240 0.48670 0.44200
C 	C 	0.12190 0.11720 0.48930 -0.12300
C 	C 	0.13240 0.06290 0.56530 -0.02700
C 	C 	0.98510 0.05300 0.42230 0.05200
C 	C 	0.69840 0.43520 0.42560 0.39700
C 	C 	0.85380 0.46590 0.46140 -0.12300
C 	C 	0.90490 0.50710 0.56520 -0.00800
C 	C 	0.95170 0.45960 0.39310 0.03900
C 	C 	0.76820 0.77310 0.82790 0.31000
C 	C 	0.88390 0.89300 0.91810 -0.07600
C 	C 	0.86110 0.00060 0.98830 0.04600
C 	C 	0.02110 0.89500 0.93190 -0.05000
S 	S 	0.06066 0.88890 0.67397 -0.06700
S 	S 	0.09924 0.58971 0.74175 -0.04000
S 	S 	0.30830 0.98975 0.01481 -0.07100
S 	S 	0.93934 0.11110 0.32603 -0.06700
S 	S 	0.90076 0.41029 0.25825 -0.04000
S 	S 	0.69170 0.01025 0.98519 -0.07100
O 	O 	0.65150 0.68120 0.42870 -0.49900
O 	O 	0.72120 0.73780 0.59770 -0.45600
O 	O 	0.34620 0.59600 0.66850 -0.43400
O 	O 	0.38510 0.55380 0.51020 -0.55500
O 	O 	0.20550 0.32700 0.22200 -0.43100
O 	O 	0.35160 0.22430 0.19700 -0.39100
O 	O 	0.34850 0.31880 0.57130 -0.49900
O 	O 	0.27880 0.26220 0.40230 -0.45600
O 	O 	0.65380 0.40400 0.33150 -0.43400
O 	O 	0.61490 0.44620 0.48980 -0.55500
O 	O 	0.79450 0.67300 0.77800 -0.43100
O 	O 	0.64840 0.77570 0.80300 -0.39100
