data_crystal

_cell_length_a 17.16000
_cell_length_b 16.78700
_cell_length_c 10.07200
_cell_angle_alpha 90.00000
_cell_angle_beta  120.77000
_cell_angle_gamma 90.00000

_symmetry_space_group_name_	'P 1'
_symmetry_space_group_name_H-M	'P 1'

loop_
_symmetry_equiv_pos_as_xyz
  x,y,z

loop_
_atom_site_label
_atom_site_type_symbol
_atom_site_fract_x
_atom_site_fract_y
_atom_site_fract_z
_atom_site_charge
Zn	Zn	0.25128 0.10237 0.84569 1.19500
O 	O 	0.34860 0.18082 0.92630 -0.46700
O 	O 	0.44581 0.08007 0.01780 -0.33900
N 	N 	0.37681 0.98473 0.18820 -0.41200
N 	N 	0.23753 0.04952 0.00960 -0.26700
N 	N 	0.15335 0.05117 0.99410 -0.07000
N 	N 	0.15435 0.00931 0.10120 -0.07300
N 	N 	0.23930 0.97750 0.19230 -0.27500
N 	N 	0.64487 0.32047 0.23350 -0.25500
C 	C 	0.42843 0.15208 0.00300 0.31100
C 	C 	0.50412 0.21202 0.08130 -0.02900
C 	C 	0.59316 0.18622 0.16880 -0.07100
H 	H 	0.60670 0.13210 0.17750 0.05700
C 	C 	0.66129 0.24168 0.24270 0.03500
H 	H 	0.72090 0.22400 0.30110 0.00400
C 	C 	0.55875 0.34516 0.14710 0.04800
H 	H 	0.54690 0.39960 0.13850 0.00100
C 	C 	0.48692 0.29294 0.07020 -0.07200
H 	H 	0.42790 0.31200 0.01170 0.07200
C 	C 	0.28854 0.00323 0.13250 0.21800
H 	H 	0.40400 0.97400 0.27300 0.23000
H 	H 	0.40400 0.01000 0.14400 0.16500
Zn	Zn	0.75128 0.60237 0.84569 1.19400
O 	O 	0.84860 0.68082 0.92630 -0.46800
O 	O 	0.94581 0.58007 0.01780 -0.34000
N 	N 	0.87681 0.48473 0.18820 -0.41300
N 	N 	0.73753 0.54952 0.00960 -0.26900
N 	N 	0.65335 0.55117 0.99410 -0.07100
N 	N 	0.65435 0.50931 0.10120 -0.07300
N 	N 	0.73930 0.47750 0.19230 -0.27500
N 	N 	0.14487 0.82047 0.23350 -0.25600
C 	C 	0.92843 0.65208 0.00300 0.31000
C 	C 	0.00412 0.71202 0.08130 -0.02800
C 	C 	0.09316 0.68622 0.16880 -0.07100
H 	H 	0.10670 0.63210 0.17750 0.05700
C 	C 	0.16129 0.74168 0.24270 0.03500
H 	H 	0.22090 0.72400 0.30110 0.00300
C 	C 	0.05875 0.84516 0.14710 0.04900
H 	H 	0.04690 0.89960 0.13850 0.00100
C 	C 	0.98692 0.79294 0.07020 -0.07300
H 	H 	0.92790 0.81200 0.01170 0.07200
C 	C 	0.78854 0.50323 0.13250 0.21800
H 	H 	0.90400 0.47400 0.27300 0.23000
H 	H 	0.90400 0.51000 0.14400 0.16500
Zn	Zn	0.25128 0.89763 0.34569 1.19400
O 	O 	0.34860 0.81918 0.42630 -0.46800
O 	O 	0.44581 0.91993 0.51780 -0.34000
N 	N 	0.37681 0.01527 0.68820 -0.41300
N 	N 	0.23753 0.95048 0.50960 -0.26900
N 	N 	0.15335 0.94883 0.49410 -0.07100
N 	N 	0.15435 0.99069 0.60120 -0.07300
N 	N 	0.23930 0.02250 0.69230 -0.27500
N 	N 	0.64487 0.67953 0.73350 -0.25500
C 	C 	0.42843 0.84792 0.50300 0.31100
C 	C 	0.50412 0.78798 0.58130 -0.02900
C 	C 	0.59316 0.81378 0.66880 -0.07100
H 	H 	0.60670 0.86790 0.67750 0.05700
C 	C 	0.66129 0.75832 0.74270 0.03500
H 	H 	0.72090 0.77600 0.80110 0.00400
C 	C 	0.55875 0.65484 0.64710 0.04800
H 	H 	0.54690 0.60040 0.63850 0.00100
C 	C 	0.48692 0.70706 0.57020 -0.07200
H 	H 	0.42790 0.68800 0.51170 0.07200
C 	C 	0.28854 0.99677 0.63250 0.21800
H 	H 	0.40400 0.02600 0.77300 0.23000
H 	H 	0.40400 0.99000 0.64400 0.16500
Zn	Zn	0.75128 0.39763 0.34569 1.19400
O 	O 	0.84860 0.31918 0.42630 -0.46800
O 	O 	0.94581 0.41993 0.51780 -0.34000
N 	N 	0.87681 0.51527 0.68820 -0.41300
N 	N 	0.73753 0.45048 0.50960 -0.26900
N 	N 	0.65335 0.44883 0.49410 -0.07100
N 	N 	0.65435 0.49069 0.60120 -0.07300
N 	N 	0.73930 0.52250 0.69230 -0.27500
N 	N 	0.14487 0.17953 0.73350 -0.25500
C 	C 	0.92843 0.34792 0.50300 0.31100
C 	C 	0.00412 0.28798 0.58130 -0.02900
C 	C 	0.09316 0.31378 0.66880 -0.07000
H 	H 	0.10670 0.36790 0.67750 0.05700
C 	C 	0.16129 0.25832 0.74270 0.03500
H 	H 	0.22090 0.27600 0.80110 0.00400
C 	C 	0.05875 0.15484 0.64710 0.04800
H 	H 	0.04690 0.10040 0.63850 0.00100
C 	C 	0.98692 0.20706 0.57020 -0.07100
H 	H 	0.92790 0.18800 0.51170 0.07200
C 	C 	0.78854 0.49677 0.63250 0.21800
H 	H 	0.90400 0.52600 0.77300 0.23000
H 	H 	0.90400 0.49000 0.64400 0.16500
Zn	Zn	0.74872 0.10237 0.65431 1.19400
O 	O 	0.65140 0.18082 0.57370 -0.46800
O 	O 	0.55419 0.08007 0.48220 -0.34000
N 	N 	0.62319 0.98473 0.31180 -0.41300
N 	N 	0.76247 0.04952 0.49040 -0.26900
N 	N 	0.84665 0.05117 0.50590 -0.07100
N 	N 	0.84565 0.00931 0.39880 -0.07300
N 	N 	0.76070 0.97750 0.30770 -0.27500
N 	N 	0.35513 0.32047 0.26650 -0.25500
C 	C 	0.57157 0.15208 0.49700 0.31100
C 	C 	0.49588 0.21202 0.41870 -0.02900
C 	C 	0.40684 0.18622 0.33120 -0.07100
H 	H 	0.39330 0.13210 0.32250 0.05700
C 	C 	0.33871 0.24168 0.25730 0.03500
H 	H 	0.27910 0.22400 0.19890 0.00400
C 	C 	0.44125 0.34516 0.35290 0.04800
H 	H 	0.45310 0.39960 0.36150 0.00100
C 	C 	0.51308 0.29294 0.42980 -0.07200
H 	H 	0.57210 0.31200 0.48830 0.07200
C 	C 	0.71146 0.00323 0.36750 0.21800
H 	H 	0.59600 0.97400 0.22700 0.23000
H 	H 	0.59600 0.01000 0.35600 0.16500
Zn	Zn	0.24872 0.60237 0.65431 1.19400
O 	O 	0.15140 0.68082 0.57370 -0.46800
O 	O 	0.05419 0.58007 0.48220 -0.34000
N 	N 	0.12319 0.48473 0.31180 -0.41300
N 	N 	0.26247 0.54952 0.49040 -0.26900
N 	N 	0.34665 0.55117 0.50590 -0.07100
N 	N 	0.34565 0.50931 0.39880 -0.07300
N 	N 	0.26070 0.47750 0.30770 -0.27500
N 	N 	0.85513 0.82047 0.26650 -0.25500
C 	C 	0.07157 0.65208 0.49700 0.31100
C 	C 	0.99588 0.71202 0.41870 -0.02900
C 	C 	0.90684 0.68622 0.33120 -0.07000
H 	H 	0.89330 0.63210 0.32250 0.05700
C 	C 	0.83871 0.74168 0.25730 0.03500
H 	H 	0.77910 0.72400 0.19890 0.00400
C 	C 	0.94125 0.84516 0.35290 0.04800
H 	H 	0.95310 0.89960 0.36150 0.00100
C 	C 	0.01308 0.79294 0.42980 -0.07100
H 	H 	0.07210 0.81200 0.48830 0.07200
C 	C 	0.21146 0.50323 0.36750 0.21800
H 	H 	0.09600 0.47400 0.22700 0.23000
H 	H 	0.09600 0.51000 0.35600 0.16500
Zn	Zn	0.74872 0.89763 0.15431 1.19400
O 	O 	0.65140 0.81918 0.07370 -0.46800
O 	O 	0.55419 0.91993 0.98220 -0.34000
N 	N 	0.62319 0.01527 0.81180 -0.41300
N 	N 	0.76247 0.95048 0.99040 -0.26800
N 	N 	0.84665 0.94883 0.00590 -0.07100
N 	N 	0.84565 0.99069 0.89880 -0.07300
N 	N 	0.76070 0.02250 0.80770 -0.27500
N 	N 	0.35513 0.67953 0.76650 -0.25500
C 	C 	0.57157 0.84792 0.99700 0.31100
C 	C 	0.49588 0.78798 0.91870 -0.02900
C 	C 	0.40684 0.81378 0.83120 -0.07100
H 	H 	0.39330 0.86790 0.82250 0.05700
C 	C 	0.33871 0.75832 0.75730 0.03500
H 	H 	0.27910 0.77600 0.69890 0.00400
C 	C 	0.44125 0.65484 0.85290 0.04800
H 	H 	0.45310 0.60040 0.86150 0.00100
C 	C 	0.51308 0.70706 0.92980 -0.07200
H 	H 	0.57210 0.68800 0.98830 0.07200
C 	C 	0.71146 0.99677 0.86750 0.21800
H 	H 	0.59600 0.02600 0.72700 0.23000
H 	H 	0.59600 0.99000 0.85600 0.16500
Zn	Zn	0.24872 0.39763 0.15431 1.19400
O 	O 	0.15140 0.31918 0.07370 -0.46800
O 	O 	0.05419 0.41993 0.98220 -0.34000
N 	N 	0.12319 0.51527 0.81180 -0.41300
N 	N 	0.26247 0.45048 0.99040 -0.26900
N 	N 	0.34665 0.44883 0.00590 -0.07100
N 	N 	0.34565 0.49069 0.89880 -0.07300
N 	N 	0.26070 0.52250 0.80770 -0.27500
N 	N 	0.85513 0.17953 0.76650 -0.25600
C 	C 	0.07157 0.34792 0.99700 0.31000
C 	C 	0.99588 0.28798 0.91870 -0.02800
C 	C 	0.90684 0.31378 0.83120 -0.07100
H 	H 	0.89330 0.36790 0.82250 0.05700
C 	C 	0.83871 0.25832 0.75730 0.03500
H 	H 	0.77910 0.27600 0.69890 0.00300
C 	C 	0.94125 0.15484 0.85290 0.04900
H 	H 	0.95310 0.10040 0.86150 0.00100
C 	C 	0.01308 0.20706 0.92980 -0.07300
H 	H 	0.07210 0.18800 0.98830 0.07200
C 	C 	0.21146 0.49677 0.86750 0.21800
H 	H 	0.09600 0.52600 0.72700 0.23000
H 	H 	0.09600 0.49000 0.85600 0.16500
