data_crystal

_cell_length_a 12.87700
_cell_length_b 12.17000
_cell_length_c 12.15900
_cell_angle_alpha 90.00000
_cell_angle_beta  93.99000
_cell_angle_gamma 90.00000

_symmetry_space_group_name_	'P 1'
_symmetry_space_group_name_H-M	'P 1'

loop_
_symmetry_equiv_pos_as_xyz
  x,y,z

loop_
_atom_site_label
_atom_site_type_symbol
_atom_site_fract_x
_atom_site_fract_y
_atom_site_fract_z
_atom_site_charge
Fe	Fe	0.24894 0.04067 0.20273 1.24500
P 	P 	0.20235 0.77535 0.17633 0.44200
H 	H 	0.20200 0.72100 0.07500 -0.02600
P 	P 	0.82489 0.97889 0.05590 0.44600
H 	H 	0.86500 0.07400 0.02500 0.01600
F 	F 	0.09380 0.02830 0.20200 -0.63800
O 	O 	0.26470 0.88050 0.16600 -0.38100
O 	O 	0.77380 0.91810 0.95700 -0.32900
O 	O 	0.25300 0.70120 0.26500 -0.36500
O 	O 	0.74400 0.00590 0.13730 -0.37800
O 	O 	0.08770 0.79670 0.18880 -0.42900
O 	O 	0.91760 0.91330 0.10560 -0.25900
Fe	Fe	0.74894 0.54067 0.20273 1.25600
P 	P 	0.70235 0.27535 0.17633 0.44300
H 	H 	0.70200 0.22100 0.07500 -0.00800
P 	P 	0.32489 0.47889 0.05590 0.45700
H 	H 	0.36500 0.57400 0.02500 -0.01400
F 	F 	0.59380 0.52830 0.20200 -0.60500
O 	O 	0.76470 0.38050 0.16600 -0.35900
O 	O 	0.27380 0.41810 0.95700 -0.35600
O 	O 	0.75300 0.20120 0.26500 -0.34200
O 	O 	0.24400 0.50590 0.13730 -0.40200
O 	O 	0.58770 0.29670 0.18880 -0.37900
O 	O 	0.41760 0.41330 0.10560 -0.33700
Fe	Fe	0.75106 0.04067 0.29727 1.24900
P 	P 	0.79765 0.77535 0.32367 0.43800
H 	H 	0.79800 0.72100 0.42500 0.00300
P 	P 	0.17511 0.97889 0.44410 0.45700
H 	H 	0.13500 0.07400 0.47500 -0.03600
F 	F 	0.90620 0.02830 0.29800 -0.54500
O 	O 	0.73530 0.88050 0.33400 -0.37600
O 	O 	0.22620 0.91810 0.54300 -0.35200
O 	O 	0.74700 0.70120 0.23500 -0.34700
O 	O 	0.25600 0.00590 0.36270 -0.38500
O 	O 	0.91230 0.79670 0.31120 -0.30200
O 	O 	0.08240 0.91330 0.39440 -0.38600
Fe	Fe	0.25106 0.54067 0.29727 1.23700
P 	P 	0.29765 0.27535 0.32367 0.44200
H 	H 	0.29800 0.22100 0.42500 -0.01400
P 	P 	0.67511 0.47889 0.44410 0.45600
H 	H 	0.63500 0.57400 0.47500 -0.01200
F 	F 	0.40620 0.52830 0.29800 -0.60300
O 	O 	0.23530 0.38050 0.33400 -0.39800
O 	O 	0.72620 0.41810 0.54300 -0.32900
O 	O 	0.24700 0.20120 0.23500 -0.37000
O 	O 	0.75600 0.50590 0.36270 -0.36600
O 	O 	0.41230 0.29670 0.31120 -0.37900
O 	O 	0.58240 0.41330 0.39440 -0.33500
Fe	Fe	0.75106 0.95933 0.79727 1.24900
P 	P 	0.79765 0.22465 0.82367 0.43800
H 	H 	0.79800 0.27900 0.92500 0.00200
P 	P 	0.17511 0.02111 0.94410 0.45100
H 	H 	0.13500 0.92600 0.97500 -0.03300
F 	F 	0.90620 0.97170 0.79800 -0.54500
O 	O 	0.73530 0.11950 0.83400 -0.37700
O 	O 	0.22620 0.08190 0.04300 -0.35000
O 	O 	0.74700 0.29880 0.73500 -0.34600
O 	O 	0.25600 0.99410 0.86270 -0.38300
O 	O 	0.91230 0.20330 0.81120 -0.30200
O 	O 	0.08240 0.08670 0.89440 -0.38600
Fe	Fe	0.25106 0.45933 0.79727 1.23700
P 	P 	0.29765 0.72465 0.82367 0.44200
H 	H 	0.29800 0.77900 0.92500 -0.01400
P 	P 	0.67511 0.52111 0.94410 0.45700
H 	H 	0.63500 0.42600 0.97500 -0.01300
F 	F 	0.40620 0.47170 0.79800 -0.60300
O 	O 	0.23530 0.61950 0.83400 -0.39800
O 	O 	0.72620 0.58190 0.04300 -0.33000
O 	O 	0.24700 0.79880 0.73500 -0.37000
O 	O 	0.75600 0.49410 0.86270 -0.36700
O 	O 	0.41230 0.70330 0.81120 -0.37800
O 	O 	0.58240 0.58670 0.89440 -0.33500
Fe	Fe	0.24894 0.95933 0.70273 1.24500
P 	P 	0.20235 0.22465 0.67633 0.44300
H 	H 	0.20200 0.27900 0.57500 -0.02400
P 	P 	0.82489 0.02111 0.55590 0.45400
H 	H 	0.86500 0.92600 0.52500 0.01400
F 	F 	0.09380 0.97170 0.70200 -0.63900
O 	O 	0.26470 0.11950 0.66600 -0.38100
O 	O 	0.77380 0.08190 0.45700 -0.33100
O 	O 	0.25300 0.29880 0.76500 -0.36500
O 	O 	0.74400 0.99410 0.63730 -0.38000
O 	O 	0.08770 0.20330 0.68880 -0.42900
O 	O 	0.91760 0.08670 0.60560 -0.25800
Fe	Fe	0.74894 0.45933 0.70273 1.25600
P 	P 	0.70235 0.72465 0.67633 0.44300
H 	H 	0.70200 0.77900 0.57500 -0.00800
P 	P 	0.32489 0.52111 0.55590 0.45700
H 	H 	0.36500 0.42600 0.52500 -0.01300
F 	F 	0.59380 0.47170 0.70200 -0.60500
O 	O 	0.76470 0.61950 0.66600 -0.35900
O 	O 	0.27380 0.58190 0.45700 -0.35600
O 	O 	0.75300 0.79880 0.76500 -0.34200
O 	O 	0.24400 0.49410 0.63730 -0.40200
O 	O 	0.58770 0.70330 0.68880 -0.37900
O 	O 	0.41760 0.58670 0.60560 -0.33700
Fe	Fe	0.00000 0.91157 0.25000 1.23400
Fe	Fe	0.50000 0.41157 0.25000 1.31900
Fe	Fe	0.00000 0.08843 0.75000 1.23300
Fe	Fe	0.50000 0.58843 0.75000 1.31900
