data_crystal

_cell_length_a 19.79100
_cell_length_b 22.67400
_cell_length_c 12.87700
_cell_angle_alpha 90.00000
_cell_angle_beta  113.27100
_cell_angle_gamma 90.00000

_symmetry_space_group_name_	'P 1'
_symmetry_space_group_name_H-M	'P 1'

loop_
_symmetry_equiv_pos_as_xyz
  x,y,z

loop_
_atom_site_label
_atom_site_type_symbol
_atom_site_fract_x
_atom_site_fract_y
_atom_site_fract_z
_atom_site_charge
Cu	Cu	0.49556 0.76115 0.54798 0.90100
O 	O 	0.57769 0.74239 0.68852 -0.44300
O 	O 	0.57671 0.80480 0.82350 -0.46700
O 	O 	0.51219 0.84678 0.55999 -0.44500
O 	O 	0.62719 0.84826 0.56720 -0.29400
N 	N 	0.40429 0.76683 0.40790 -0.22300
N 	N 	0.46563 0.67583 0.53259 -0.21800
N 	N 	0.57098 0.92887 0.79993 -0.21500
C 	C 	0.37500 0.81625 0.35090 0.07100
H 	H 	0.39680 0.85270 0.38020 0.00500
C 	C 	0.31381 0.81520 0.25040 -0.13200
H 	H 	0.29370 0.85060 0.21290 0.07300
C 	C 	0.28300 0.76290 0.20630 0.05100
H 	H 	0.24190 0.76140 0.13710 0.02100
C 	C 	0.31250 0.71170 0.26380 -0.11700
H 	H 	0.29170 0.67500 0.23400 0.07700
C 	C 	0.37286 0.71451 0.36560 0.05100
C 	C 	0.40732 0.66316 0.43630 0.04800
C 	C 	0.38350 0.60575 0.40970 -0.11500
H 	H 	0.34300 0.59740 0.34210 0.06600
C 	C 	0.41920 0.56084 0.48260 0.03900
H 	H 	0.40330 0.52160 0.46570 0.01100
C 	C 	0.47840 0.57399 0.58030 -0.12600
H 	H 	0.50360 0.54400 0.63130 0.06900
C 	C 	0.50056 0.63184 0.60270 0.06800
H 	H 	0.54150 0.64080 0.66930 0.01000
C 	C 	0.64426 0.92379 0.84830 0.07200
H 	H 	0.66540 0.88600 0.86520 0.01100
C 	C 	0.68973 0.97286 0.87410 -0.12900
H 	H 	0.74110 0.96840 0.90790 0.07100
C 	C 	0.65910 0.02738 0.85010 0.04400
H 	H 	0.68930 0.06100 0.86720 0.01200
C 	C 	0.58340 0.03325 0.80030 -0.11500
H 	H 	0.56160 0.07080 0.78290 0.06900
C 	C 	0.54023 0.98282 0.77640 0.05600
C 	C 	0.60351 0.76330 0.78590 0.43100
C 	C 	0.67324 0.73675 0.86550 -0.25300
H 	H 	0.68840 0.70050 0.84640 0.12700
C 	C 	0.71499 0.76198 0.96220 0.03400
H 	H 	0.69840 0.79720 0.98290 0.02900
C 	C 	0.56920 0.87300 0.55880 0.36400
C 	C 	0.56483 0.93821 0.54630 -0.22500
H 	H 	0.60900 0.95940 0.56680 0.11800
C 	C 	0.50203 0.96830 0.50780 0.02300
H 	H 	0.45790 0.94730 0.48980 0.03100
Cu	Cu	0.99556 0.26115 0.54798 0.91000
O 	O 	0.07769 0.24239 0.68852 -0.44900
O 	O 	0.07671 0.30480 0.82350 -0.47000
O 	O 	0.01219 0.34678 0.55999 -0.44900
O 	O 	0.12719 0.34826 0.56720 -0.29000
N 	N 	0.90429 0.26683 0.40790 -0.22300
N 	N 	0.96563 0.17583 0.53259 -0.19400
N 	N 	0.07098 0.42887 0.79993 -0.21300
C 	C 	0.87500 0.31625 0.35090 0.07400
H 	H 	0.89680 0.35270 0.38020 0.00500
C 	C 	0.81381 0.31520 0.25040 -0.13500
H 	H 	0.79370 0.35060 0.21290 0.07500
C 	C 	0.78300 0.26290 0.20630 0.05600
H 	H 	0.74190 0.26140 0.13710 0.02000
C 	C 	0.81250 0.21170 0.26380 -0.12300
H 	H 	0.79170 0.17500 0.23400 0.08000
C 	C 	0.87286 0.21451 0.36560 0.06000
C 	C 	0.90732 0.16316 0.43630 0.03000
C 	C 	0.88350 0.10575 0.40970 -0.07200
H 	H 	0.84300 0.09740 0.34210 0.05200
C 	C 	0.91920 0.06084 0.48260 -0.02800
H 	H 	0.90330 0.02160 0.46570 0.03700
C 	C 	0.97840 0.07399 0.58030 -0.02000
H 	H 	0.00360 0.04400 0.63130 0.02200
C 	C 	0.00056 0.13184 0.60270 -0.01300
H 	H 	0.04150 0.14080 0.66930 0.03400
C 	C 	0.14426 0.42379 0.84830 0.06800
H 	H 	0.16540 0.38600 0.86520 0.01200
C 	C 	0.18973 0.47286 0.87410 -0.12200
H 	H 	0.24110 0.46840 0.90790 0.06900
C 	C 	0.15910 0.52738 0.85010 0.03500
H 	H 	0.18930 0.56100 0.86720 0.01500
C 	C 	0.08340 0.53325 0.80030 -0.10100
H 	H 	0.06160 0.57080 0.78290 0.06000
C 	C 	0.04023 0.48282 0.77640 0.03400
C 	C 	0.10351 0.26330 0.78590 0.43100
C 	C 	0.17324 0.23675 0.86550 -0.25200
H 	H 	0.18840 0.20050 0.84640 0.12600
C 	C 	0.21499 0.26198 0.96220 0.03000
H 	H 	0.19840 0.29720 0.98290 0.03000
C 	C 	0.06920 0.37300 0.55880 0.34200
C 	C 	0.06483 0.43821 0.54630 -0.16700
H 	H 	0.10900 0.45940 0.56680 0.09900
C 	C 	0.00203 0.46830 0.50780 -0.08500
H 	H 	0.95790 0.44730 0.48980 0.07600
Cu	Cu	0.50444 0.76115 0.95202 0.90200
O 	O 	0.42231 0.74239 0.81148 -0.44300
O 	O 	0.42329 0.80480 0.67650 -0.46700
O 	O 	0.48781 0.84678 0.94001 -0.44500
O 	O 	0.37281 0.84826 0.93280 -0.29500
N 	N 	0.59571 0.76683 0.09210 -0.22200
N 	N 	0.53437 0.67583 0.96741 -0.22000
N 	N 	0.42902 0.92887 0.70007 -0.21500
C 	C 	0.62500 0.81625 0.14910 0.07100
H 	H 	0.60320 0.85270 0.11980 0.00500
C 	C 	0.68619 0.81520 0.24960 -0.13100
H 	H 	0.70630 0.85060 0.28710 0.07300
C 	C 	0.71700 0.76290 0.29370 0.05000
H 	H 	0.75810 0.76140 0.36290 0.02200
C 	C 	0.68750 0.71170 0.23620 -0.11600
H 	H 	0.70830 0.67500 0.26600 0.07700
C 	C 	0.62714 0.71451 0.13440 0.05000
C 	C 	0.59268 0.66316 0.06370 0.05100
C 	C 	0.61650 0.60575 0.09030 -0.11900
H 	H 	0.65700 0.59740 0.15790 0.06700
C 	C 	0.58080 0.56084 0.01740 0.04500
H 	H 	0.59670 0.52160 0.03430 0.00900
C 	C 	0.52160 0.57399 0.91970 -0.13200
H 	H 	0.49640 0.54400 0.86870 0.07100
C 	C 	0.49944 0.63184 0.89730 0.07000
H 	H 	0.45850 0.64080 0.83070 0.00900
C 	C 	0.35574 0.92379 0.65170 0.07200
H 	H 	0.33460 0.88600 0.63480 0.01100
C 	C 	0.31027 0.97286 0.62590 -0.12900
H 	H 	0.25890 0.96840 0.59210 0.07100
C 	C 	0.34090 0.02738 0.64990 0.04500
H 	H 	0.31070 0.06100 0.63280 0.01200
C 	C 	0.41660 0.03325 0.69970 -0.11500
H 	H 	0.43840 0.07080 0.71710 0.06900
C 	C 	0.45977 0.98282 0.72360 0.05600
C 	C 	0.39649 0.76330 0.71410 0.43200
C 	C 	0.32676 0.73675 0.63450 -0.25400
H 	H 	0.31160 0.70050 0.65360 0.12800
C 	C 	0.28501 0.76198 0.53780 0.03600
H 	H 	0.30160 0.79720 0.51710 0.02900
C 	C 	0.43080 0.87300 0.94120 0.36100
C 	C 	0.43517 0.93821 0.95370 -0.21800
H 	H 	0.39100 0.95940 0.93320 0.11500
C 	C 	0.49797 0.96830 0.99220 0.00900
H 	H 	0.54210 0.94730 0.01020 0.03700
Cu	Cu	0.00444 0.26115 0.95202 0.89500
O 	O 	0.92231 0.24239 0.81148 -0.43600
O 	O 	0.92329 0.30480 0.67650 -0.46000
O 	O 	0.98781 0.34678 0.94001 -0.43900
O 	O 	0.87281 0.34826 0.93280 -0.29800
N 	N 	0.09571 0.26683 0.09210 -0.22000
N 	N 	0.03437 0.17583 0.96741 -0.24700
N 	N 	0.92902 0.42887 0.70007 -0.21600
C 	C 	0.12500 0.31625 0.14910 0.06800
H 	H 	0.10320 0.35270 0.11980 0.00500
C 	C 	0.18619 0.31520 0.24960 -0.12800
H 	H 	0.20630 0.35060 0.28710 0.07200
C 	C 	0.21700 0.26290 0.29370 0.04500
H 	H 	0.25810 0.26140 0.36290 0.02300
C 	C 	0.18750 0.21170 0.23620 -0.10900
H 	H 	0.20830 0.17500 0.26600 0.07300
C 	C 	0.12714 0.21451 0.13440 0.04000
C 	C 	0.09268 0.16316 0.06370 0.07400
C 	C 	0.11650 0.10575 0.09030 -0.16900
H 	H 	0.15700 0.09740 0.15790 0.08300
C 	C 	0.08080 0.06084 0.01740 0.12100
H 	H 	0.09670 0.02160 0.03430 -0.01900
C 	C 	0.02160 0.07399 0.91970 -0.25000
H 	H 	0.99640 0.04400 0.86870 0.12300
C 	C 	0.99944 0.13184 0.89730 0.16000
H 	H 	0.95850 0.14080 0.83070 -0.01800
C 	C 	0.85574 0.42379 0.65170 0.07600
H 	H 	0.83460 0.38600 0.63480 0.01000
C 	C 	0.81027 0.47286 0.62590 -0.13600
H 	H 	0.75890 0.46840 0.59210 0.07400
C 	C 	0.84090 0.52738 0.64990 0.05500
H 	H 	0.81070 0.56100 0.63280 0.00900
C 	C 	0.91660 0.53325 0.69970 -0.12900
H 	H 	0.93840 0.57080 0.71710 0.07900
C 	C 	0.95977 0.48282 0.72360 0.07900
C 	C 	0.89649 0.26330 0.71410 0.43000
C 	C 	0.82676 0.23675 0.63450 -0.25200
H 	H 	0.81160 0.20050 0.65360 0.12800
C 	C 	0.78501 0.26198 0.53780 0.03600
H 	H 	0.80160 0.29720 0.51710 0.02900
C 	C 	0.93080 0.37300 0.94120 0.38200
C 	C 	0.93517 0.43821 0.95370 -0.27300
H 	H 	0.89100 0.45940 0.93320 0.13400
C 	C 	0.99797 0.46830 0.99220 0.11400
H 	H 	0.04210 0.44730 0.01020 -0.00500
Cu	Cu	0.50444 0.23885 0.45202 0.90200
O 	O 	0.42231 0.25761 0.31148 -0.44300
O 	O 	0.42329 0.19520 0.17650 -0.46700
O 	O 	0.48781 0.15322 0.44001 -0.44500
O 	O 	0.37281 0.15174 0.43280 -0.29500
N 	N 	0.59571 0.23317 0.59210 -0.22300
N 	N 	0.53437 0.32417 0.46741 -0.21800
N 	N 	0.42902 0.07113 0.20007 -0.21500
C 	C 	0.62500 0.18375 0.64910 0.07100
H 	H 	0.60320 0.14730 0.61980 0.00500
C 	C 	0.68619 0.18480 0.74960 -0.13200
H 	H 	0.70630 0.14940 0.78710 0.07300
C 	C 	0.71700 0.23710 0.79370 0.05100
H 	H 	0.75810 0.23860 0.86290 0.02100
C 	C 	0.68750 0.28830 0.73620 -0.11700
H 	H 	0.70830 0.32500 0.76600 0.07700
C 	C 	0.62714 0.28549 0.63440 0.05100
C 	C 	0.59268 0.33684 0.56370 0.04800
C 	C 	0.61650 0.39425 0.59030 -0.11500
H 	H 	0.65700 0.40260 0.65790 0.06600
C 	C 	0.58080 0.43916 0.51740 0.03900
H 	H 	0.59670 0.47840 0.53430 0.01100
C 	C 	0.52160 0.42601 0.41970 -0.12600
H 	H 	0.49640 0.45600 0.36870 0.06900
C 	C 	0.49944 0.36816 0.39730 0.06800
H 	H 	0.45850 0.35920 0.33070 0.01000
C 	C 	0.35574 0.07621 0.15170 0.07200
H 	H 	0.33460 0.11400 0.13480 0.01100
C 	C 	0.31027 0.02714 0.12590 -0.13000
H 	H 	0.25890 0.03160 0.09210 0.07100
C 	C 	0.34090 0.97262 0.14990 0.04600
H 	H 	0.31070 0.93900 0.13280 0.01200
C 	C 	0.41660 0.96675 0.19970 -0.11500
H 	H 	0.43840 0.92920 0.21710 0.07000
C 	C 	0.45977 0.01718 0.22360 0.05600
C 	C 	0.39649 0.23670 0.21410 0.43300
C 	C 	0.32676 0.26325 0.13450 -0.25800
H 	H 	0.31160 0.29950 0.15360 0.12900
C 	C 	0.28501 0.23802 0.03780 0.04300
H 	H 	0.30160 0.20280 0.01710 0.02700
C 	C 	0.43080 0.12700 0.44120 0.36400
C 	C 	0.43517 0.06179 0.45370 -0.22500
H 	H 	0.39100 0.04060 0.43320 0.11800
C 	C 	0.49797 0.03170 0.49220 0.02200
H 	H 	0.54210 0.05270 0.51020 0.03200
Cu	Cu	0.00444 0.73885 0.45202 0.89600
O 	O 	0.92231 0.75761 0.31148 -0.43700
O 	O 	0.92329 0.69520 0.17650 -0.46100
O 	O 	0.98781 0.65322 0.44001 -0.44000
O 	O 	0.87281 0.65174 0.43280 -0.29900
N 	N 	0.09571 0.73317 0.59210 -0.22200
N 	N 	0.03437 0.82417 0.46741 -0.24200
N 	N 	0.92902 0.57113 0.20007 -0.21500
C 	C 	0.12500 0.68375 0.64910 0.06800
H 	H 	0.10320 0.64730 0.61980 0.00500
C 	C 	0.18619 0.68480 0.74960 -0.12900
H 	H 	0.20630 0.64940 0.78710 0.07200
C 	C 	0.21700 0.73710 0.79370 0.04600
H 	H 	0.25810 0.73860 0.86290 0.02200
C 	C 	0.18750 0.78830 0.73620 -0.11100
H 	H 	0.20830 0.82500 0.76600 0.07400
C 	C 	0.12714 0.78549 0.63440 0.04200
C 	C 	0.09268 0.83684 0.56370 0.06600
C 	C 	0.11650 0.89425 0.59030 -0.15800
H 	H 	0.15700 0.90260 0.65790 0.07900
C 	C 	0.08080 0.93916 0.51740 0.10400
H 	H 	0.09670 0.97840 0.53430 -0.01400
C 	C 	0.02160 0.92601 0.41970 -0.23000
H 	H 	0.99640 0.95600 0.36870 0.11500
C 	C 	0.99944 0.86816 0.39730 0.14800
H 	H 	0.95850 0.85920 0.33070 -0.01400
C 	C 	0.85574 0.57621 0.15170 0.07500
H 	H 	0.83460 0.61400 0.13480 0.01000
C 	C 	0.81027 0.52714 0.12590 -0.13600
H 	H 	0.75890 0.53160 0.09210 0.07400
C 	C 	0.84090 0.47262 0.14990 0.05400
H 	H 	0.81070 0.43900 0.13280 0.00900
C 	C 	0.91660 0.46675 0.19970 -0.12800
H 	H 	0.93840 0.42920 0.21710 0.07800
C 	C 	0.95977 0.51718 0.22360 0.07700
C 	C 	0.89649 0.73670 0.21410 0.43100
C 	C 	0.82676 0.76325 0.13450 -0.25400
H 	H 	0.81160 0.79950 0.15360 0.12900
C 	C 	0.78501 0.73802 0.03780 0.03900
H 	H 	0.80160 0.70280 0.01710 0.02800
C 	C 	0.93080 0.62700 0.44120 0.38600
C 	C 	0.93517 0.56179 0.45370 -0.28300
H 	H 	0.89100 0.54060 0.43320 0.13800
C 	C 	0.99797 0.53170 0.49220 0.13200
H 	H 	0.04210 0.55270 0.51020 -0.01300
Cu	Cu	0.49556 0.23885 0.04798 0.90300
O 	O 	0.57769 0.25761 0.18852 -0.44300
O 	O 	0.57671 0.19520 0.32350 -0.46700
O 	O 	0.51219 0.15322 0.05999 -0.44600
O 	O 	0.62719 0.15174 0.06720 -0.29500
N 	N 	0.40429 0.23317 0.90790 -0.22400
N 	N 	0.46563 0.32417 0.03259 -0.21600
N 	N 	0.57098 0.07113 0.29993 -0.21500
C 	C 	0.37500 0.18375 0.85090 0.07100
H 	H 	0.39680 0.14730 0.88020 0.00400
C 	C 	0.31381 0.18480 0.75040 -0.13300
H 	H 	0.29370 0.14940 0.71290 0.07300
C 	C 	0.28300 0.23710 0.70630 0.05200
H 	H 	0.24190 0.23860 0.63710 0.02000
C 	C 	0.31250 0.28830 0.76380 -0.11800
H 	H 	0.29170 0.32500 0.73400 0.07700
C 	C 	0.37286 0.28549 0.86560 0.05200
C 	C 	0.40732 0.33684 0.93630 0.04400
C 	C 	0.38350 0.39425 0.90970 -0.11100
H 	H 	0.34300 0.40260 0.84210 0.06400
C 	C 	0.41920 0.43916 0.98260 0.03100
H 	H 	0.40330 0.47840 0.96570 0.01300
C 	C 	0.47840 0.42601 0.08030 -0.11900
H 	H 	0.50360 0.45600 0.13130 0.06700
C 	C 	0.50056 0.36816 0.10270 0.06500
H 	H 	0.54150 0.35920 0.16930 0.01100
C 	C 	0.64426 0.07621 0.34830 0.07200
H 	H 	0.66540 0.11400 0.36520 0.01100
C 	C 	0.68973 0.02714 0.37410 -0.13000
H 	H 	0.74110 0.03160 0.40790 0.07200
C 	C 	0.65910 0.97262 0.35010 0.04600
H 	H 	0.68930 0.93900 0.36720 0.01200
C 	C 	0.58340 0.96675 0.30030 -0.11500
H 	H 	0.56160 0.92920 0.28290 0.07000
C 	C 	0.54023 0.01718 0.27640 0.05600
C 	C 	0.60351 0.23670 0.28590 0.43200
C 	C 	0.67324 0.26325 0.36550 -0.25500
H 	H 	0.68840 0.29950 0.34640 0.12800
C 	C 	0.71499 0.23802 0.46220 0.03700
H 	H 	0.69840 0.20280 0.48290 0.02900
C 	C 	0.56920 0.12700 0.05880 0.36700
C 	C 	0.56483 0.06179 0.04630 -0.23200
H 	H 	0.60900 0.04060 0.06680 0.12100
C 	C 	0.50203 0.03170 0.00780 0.03600
H 	H 	0.45790 0.05270 0.98980 0.02600
Cu	Cu	0.99556 0.73885 0.04798 0.90900
O 	O 	0.07769 0.75761 0.18852 -0.44800
O 	O 	0.07671 0.69520 0.32350 -0.47000
O 	O 	0.01219 0.65322 0.05999 -0.44900
O 	O 	0.12719 0.65174 0.06720 -0.29000
N 	N 	0.90429 0.73317 0.90790 -0.22300
N 	N 	0.96563 0.82417 0.03259 -0.19600
N 	N 	0.07098 0.57113 0.29993 -0.21300
C 	C 	0.87500 0.68375 0.85090 0.07400
H 	H 	0.89680 0.64730 0.88020 0.00500
C 	C 	0.81381 0.68480 0.75040 -0.13500
H 	H 	0.79370 0.64940 0.71290 0.07400
C 	C 	0.78300 0.73710 0.70630 0.05600
H 	H 	0.74190 0.73860 0.63710 0.01900
C 	C 	0.81250 0.78830 0.76380 -0.12200
H 	H 	0.79170 0.82500 0.73400 0.08000
C 	C 	0.87286 0.78549 0.86560 0.06000
C 	C 	0.90732 0.83684 0.93630 0.03100
C 	C 	0.88350 0.89425 0.90970 -0.07500
H 	H 	0.84300 0.90260 0.84210 0.05300
C 	C 	0.91920 0.93916 0.98260 -0.02300
H 	H 	0.90330 0.97840 0.96570 0.03500
C 	C 	0.97840 0.92601 0.08030 -0.02900
H 	H 	0.00360 0.95600 0.13130 0.02700
C 	C 	0.00056 0.86816 0.10270 -0.00500
H 	H 	0.04150 0.85920 0.16930 0.03100
C 	C 	0.14426 0.57621 0.34830 0.06900
H 	H 	0.16540 0.61400 0.36520 0.01200
C 	C 	0.18973 0.52714 0.37410 -0.12300
H 	H 	0.24110 0.53160 0.40790 0.06900
C 	C 	0.15910 0.47262 0.35010 0.03700
H 	H 	0.18930 0.43900 0.36720 0.01500
C 	C 	0.08340 0.46675 0.30030 -0.10300
H 	H 	0.06160 0.42920 0.28290 0.06200
C 	C 	0.04023 0.51718 0.27640 0.03600
C 	C 	0.10351 0.73670 0.28590 0.43200
C 	C 	0.17324 0.76325 0.36550 -0.25600
H 	H 	0.18840 0.79950 0.34640 0.12700
C 	C 	0.21499 0.73802 0.46220 0.03700
H 	H 	0.19840 0.70280 0.48290 0.02900
C 	C 	0.06920 0.62700 0.05880 0.34600
C 	C 	0.06483 0.56179 0.04630 -0.17600
H 	H 	0.10900 0.54060 0.06680 0.10200
C 	C 	0.00203 0.53170 0.00780 -0.06700
H 	H 	0.95790 0.55270 0.98980 0.06800
Cu	Cu	0.50000 0.86212 0.75000 0.91600
Cu	Cu	0.00000 0.36212 0.75000 0.90900
Cu	Cu	0.50000 0.13788 0.25000 0.91600
Cu	Cu	0.00000 0.63788 0.25000 0.91000
