data_crystal

_cell_length_a 11.27000
_cell_length_b 9.84200
_cell_length_c 13.99000
_cell_angle_alpha 90.00000
_cell_angle_beta  93.25000
_cell_angle_gamma 90.00000

_symmetry_space_group_name_	'P 1'
_symmetry_space_group_name_H-M	'P 1'

loop_
_symmetry_equiv_pos_as_xyz
  x,y,z

loop_
_atom_site_label
_atom_site_type_symbol
_atom_site_fract_x
_atom_site_fract_y
_atom_site_fract_z
_atom_site_charge
Zn	Zn	0.74472 0.25233 0.84055 1.18800
S 	S 	0.77740 0.06500 0.67370 -2.17200
C 	C 	0.59850 0.30280 0.00700 0.08500
H 	H 	0.62910 0.39050 0.01100 0.08600
C 	C 	0.56710 0.09790 0.96120 0.06000
C 	C 	0.56340 0.97400 0.91480 -0.14200
H 	H 	0.60260 0.95700 0.85930 0.09900
C 	C 	0.49570 0.87750 0.95870 0.10800
C 	C 	0.98070 0.31830 0.93920 0.09700
H 	H 	0.97560 0.40950 0.92230 0.05300
C 	C 	0.04280 0.12590 0.00450 0.08300
C 	C 	0.10790 0.02940 0.05930 -0.13200
H 	H 	0.17480 0.05090 0.09840 0.09400
C 	C 	0.93710 0.10050 0.95040 0.09100
C 	C 	0.89630 0.10350 0.69400 2.57600
H 	H 	0.90960 0.19170 0.66740 -0.71300
H 	H 	0.94800 0.03870 0.66630 -0.70200
H 	H 	0.91260 0.10620 0.76200 -0.74200
C 	C 	0.74160 0.06280 0.57370 2.47200
H 	H 	0.75360 0.15110 0.54670 -0.65800
H 	H 	0.65900 0.03900 0.56590 -0.67800
H 	H 	0.78820 0.99710 0.54180 -0.71500
N 	N 	0.62570 0.21750 0.93630 -0.26700
N 	N 	0.89830 0.22040 0.90720 -0.25700
N 	N 	0.06450 0.26870 0.99470 -0.08600
N 	N 	0.47110 0.74230 0.93170 -0.08100
O 	O 	0.70020 0.15010 0.72700 0.13600
O 	O 	0.76150 0.93100 0.71450 0.11100
Zn	Zn	0.75528 0.75233 0.65945 1.18900
S 	S 	0.72260 0.56500 0.82630 -2.17100
C 	C 	0.90150 0.80280 0.49300 0.08700
H 	H 	0.87090 0.89050 0.48900 0.08700
C 	C 	0.93290 0.59790 0.53880 0.06000
C 	C 	0.93660 0.47400 0.58520 -0.13900
H 	H 	0.89740 0.45700 0.64070 0.09900
C 	C 	0.00430 0.37750 0.54130 0.10900
C 	C 	0.51930 0.81830 0.56080 0.09800
H 	H 	0.52440 0.90950 0.57770 0.05300
C 	C 	0.45720 0.62590 0.49550 0.08300
C 	C 	0.39210 0.52940 0.44070 -0.13200
H 	H 	0.32520 0.55090 0.40160 0.09400
C 	C 	0.56290 0.60050 0.54960 0.09100
C 	C 	0.60370 0.60350 0.80600 2.57500
H 	H 	0.59040 0.69170 0.83260 -0.71200
H 	H 	0.55200 0.53870 0.83370 -0.70100
H 	H 	0.58740 0.60620 0.73800 -0.74200
C 	C 	0.75840 0.56280 0.92630 2.47400
H 	H 	0.74640 0.65110 0.95330 -0.65800
H 	H 	0.84100 0.53900 0.93410 -0.67900
H 	H 	0.71180 0.49710 0.95820 -0.71600
N 	N 	0.87430 0.71750 0.56370 -0.26700
N 	N 	0.60170 0.72040 0.59280 -0.25700
N 	N 	0.43550 0.76870 0.50530 -0.08800
N 	N 	0.02890 0.24230 0.56830 -0.08100
O 	O 	0.79980 0.65010 0.77300 0.13600
O 	O 	0.73850 0.43100 0.78550 0.11100
Zn	Zn	0.25528 0.74767 0.15945 1.18900
S 	S 	0.22260 0.93500 0.32630 -2.17100
C 	C 	0.40150 0.69720 0.99300 0.08600
H 	H 	0.37090 0.60950 0.98900 0.08700
C 	C 	0.43290 0.90210 0.03880 0.06100
C 	C 	0.43660 0.02600 0.08520 -0.14100
H 	H 	0.39740 0.04300 0.14070 0.09900
C 	C 	0.50430 0.12250 0.04130 0.10800
C 	C 	0.01930 0.68170 0.06080 0.09700
H 	H 	0.02440 0.59050 0.07770 0.05300
C 	C 	0.95720 0.87410 0.99550 0.08300
C 	C 	0.89210 0.97060 0.94070 -0.13200
H 	H 	0.82520 0.94910 0.90160 0.09400
C 	C 	0.06290 0.89950 0.04960 0.09100
C 	C 	0.10370 0.89650 0.30600 2.57600
H 	H 	0.09040 0.80830 0.33260 -0.71300
H 	H 	0.05200 0.96130 0.33370 -0.70200
H 	H 	0.08740 0.89380 0.23800 -0.74200
C 	C 	0.25840 0.93720 0.42630 2.47200
H 	H 	0.24640 0.84890 0.45330 -0.65800
H 	H 	0.34100 0.96100 0.43410 -0.67800
H 	H 	0.21180 0.00290 0.45820 -0.71500
N 	N 	0.37430 0.78250 0.06370 -0.26700
N 	N 	0.10170 0.77960 0.09280 -0.25700
N 	N 	0.93550 0.73130 0.00530 -0.08600
N 	N 	0.52890 0.25770 0.06830 -0.08100
O 	O 	0.29980 0.84990 0.27300 0.13600
O 	O 	0.23850 0.06900 0.28550 0.11100
Zn	Zn	0.24472 0.24767 0.34055 1.18900
S 	S 	0.27740 0.43500 0.17370 -2.17100
C 	C 	0.09850 0.19720 0.50700 0.08700
H 	H 	0.12910 0.10950 0.51100 0.08700
C 	C 	0.06710 0.40210 0.46120 0.06000
C 	C 	0.06340 0.52600 0.41480 -0.13900
H 	H 	0.10260 0.54300 0.35930 0.09900
C 	C 	0.99570 0.62250 0.45870 0.10900
C 	C 	0.48070 0.18170 0.43920 0.09800
H 	H 	0.47560 0.09050 0.42230 0.05300
C 	C 	0.54280 0.37410 0.50450 0.08300
C 	C 	0.60790 0.47060 0.55930 -0.13200
H 	H 	0.67480 0.44910 0.59840 0.09400
C 	C 	0.43710 0.39950 0.45040 0.09100
C 	C 	0.39630 0.39650 0.19400 2.57500
H 	H 	0.40960 0.30830 0.16740 -0.71200
H 	H 	0.44800 0.46130 0.16630 -0.70100
H 	H 	0.41260 0.39380 0.26200 -0.74200
C 	C 	0.24160 0.43720 0.07370 2.47400
H 	H 	0.25360 0.34890 0.04670 -0.65800
H 	H 	0.15900 0.46100 0.06590 -0.67900
H 	H 	0.28820 0.50290 0.04180 -0.71600
N 	N 	0.12570 0.28250 0.43630 -0.26700
N 	N 	0.39830 0.27960 0.40720 -0.25700
N 	N 	0.56450 0.23130 0.49470 -0.08800
N 	N 	0.97110 0.75770 0.43170 -0.08100
O 	O 	0.20020 0.34990 0.22700 0.13600
O 	O 	0.26150 0.56900 0.21450 0.11100
