data_crystal

_cell_length_a 15.69290
_cell_length_b 15.69290
_cell_length_c 15.69290
_cell_angle_alpha 109.47100
_cell_angle_beta  109.47100
_cell_angle_gamma 109.47100

_symmetry_space_group_name_	'P 1'
_symmetry_space_group_name_H-M	'P 1'

loop_
_symmetry_equiv_pos_as_xyz
  x,y,z

loop_
_atom_site_label
_atom_site_type_symbol
_atom_site_fract_x
_atom_site_fract_y
_atom_site_fract_z
_atom_site_charge
Cd	Cd	0.75000 0.50000 0.25000 1.17900
Cd	Cd	0.25000 0.50000 0.75000 1.17900
Cd	Cd	0.25000 0.75000 0.50000 1.17900
Cd	Cd	0.75000 0.25000 0.50000 1.17900
Cd	Cd	0.50000 0.75000 0.25000 1.17900
Cd	Cd	0.50000 0.25000 0.75000 1.17900
H 	H 	0.58496 0.48887 0.35744 -0.00500
H 	H 	0.13143 0.22752 0.64256 -0.00400
H 	H 	0.86857 0.51113 0.09608 -0.00600
H 	H 	0.41504 0.77248 0.90391 -0.00500
H 	H 	0.09608 0.86857 0.51113 -0.00600
H 	H 	0.90391 0.41504 0.77248 -0.00400
H 	H 	0.35744 0.58496 0.48887 -0.00500
H 	H 	0.64256 0.13143 0.22752 -0.00400
H 	H 	0.22752 0.64256 0.13143 -0.00400
H 	H 	0.48887 0.35744 0.58496 -0.00400
H 	H 	0.77248 0.90391 0.41504 -0.00500
H 	H 	0.51113 0.09608 0.86857 -0.00600
H 	H 	0.22752 0.13143 0.64256 -0.00400
H 	H 	0.48887 0.58496 0.35744 -0.00500
H 	H 	0.77248 0.41504 0.90391 -0.00400
H 	H 	0.51113 0.86857 0.09608 -0.00600
H 	H 	0.58496 0.35744 0.48887 -0.00500
H 	H 	0.13143 0.64256 0.22752 -0.00400
H 	H 	0.86857 0.09608 0.51113 -0.00500
H 	H 	0.41504 0.90391 0.77248 -0.00500
H 	H 	0.09608 0.51113 0.86857 -0.00500
H 	H 	0.90391 0.77248 0.41504 -0.00500
H 	H 	0.35744 0.48887 0.58496 -0.00500
H 	H 	0.64256 0.22752 0.13143 -0.00300
C 	C 	0.59320 0.54160 0.32180 -0.01300
C 	C 	0.21980 0.27140 0.67820 -0.01300
C 	C 	0.78020 0.45840 0.05160 -0.00500
C 	C 	0.40680 0.72860 0.94840 -0.02200
C 	C 	0.05160 0.78020 0.45840 -0.01100
C 	C 	0.94840 0.40680 0.72860 -0.01600
C 	C 	0.32180 0.59320 0.54160 -0.01300
C 	C 	0.67820 0.21980 0.27140 -0.01300
C 	C 	0.27140 0.67820 0.21980 -0.01300
C 	C 	0.54160 0.32180 0.59320 -0.01300
C 	C 	0.72860 0.94840 0.40680 -0.01700
C 	C 	0.45840 0.05160 0.78020 -0.01100
C 	C 	0.27140 0.21980 0.67820 -0.01300
C 	C 	0.54160 0.59320 0.32180 -0.01300
C 	C 	0.72860 0.40680 0.94840 -0.02100
C 	C 	0.45840 0.78020 0.05160 -0.00600
C 	C 	0.59320 0.32180 0.54160 -0.01400
C 	C 	0.21980 0.67820 0.27140 -0.01300
C 	C 	0.78020 0.05160 0.45840 -0.00900
C 	C 	0.40680 0.94840 0.72860 -0.01700
C 	C 	0.05160 0.45840 0.78020 -0.01000
C 	C 	0.94840 0.72860 0.40680 -0.01600
C 	C 	0.32180 0.54160 0.59320 -0.01400
C 	C 	0.67820 0.27140 0.21980 -0.01300
C 	C 	0.67220 0.67220 0.19020 -0.23300
C 	C 	0.62410 0.62410 0.24780 0.14600
C 	C 	0.48200 0.48200 0.80980 -0.23200
C 	C 	0.37630 0.37630 0.75220 0.14500
C 	C 	0.51800 0.32780 -0.00000 -0.22000
C 	C 	0.62370 0.37590 -0.00000 0.14900
C 	C 	0.32780 0.51800 -0.00000 -0.22500
C 	C 	0.37590 0.62370 -0.00000 0.15000
C 	C 	-0.00000 0.51800 0.32780 -0.23000
C 	C 	-0.00000 0.62370 0.37590 0.14800
C 	C 	-0.00000 0.32780 0.51800 -0.22900
C 	C 	-0.00000 0.37590 0.62370 0.14700
C 	C 	0.19020 0.67220 0.67220 -0.23300
C 	C 	0.24780 0.62410 0.62410 0.14500
C 	C 	0.80980 0.48200 0.48200 -0.23200
C 	C 	0.75220 0.37630 0.37630 0.14600
C 	C 	0.48200 0.80980 0.48200 -0.23200
C 	C 	0.37630 0.75220 0.37630 0.14600
C 	C 	0.67220 0.19020 0.67220 -0.23000
C 	C 	0.62410 0.24780 0.62410 0.14500
C 	C 	0.51800 0.00000 0.32780 -0.23000
C 	C 	0.62370 0.00000 0.37590 0.14800
C 	C 	0.32780 0.00000 0.51800 -0.23000
C 	C 	0.37590 -0.00000 0.62370 0.14700
N 	N 	0.65020 0.56450 0.27510 -0.28200
N 	N 	0.28940 0.37510 0.72490 -0.28200
N 	N 	0.71060 0.43550 0.08570 -0.28300
N 	N 	0.34980 0.62490 0.91430 -0.28400
N 	N 	0.08570 0.71060 0.43550 -0.28300
N 	N 	0.91430 0.34980 0.62490 -0.28200
N 	N 	0.27510 0.65020 0.56450 -0.28200
N 	N 	0.72490 0.28940 0.37510 -0.28200
N 	N 	0.37510 0.72490 0.28940 -0.28200
N 	N 	0.56450 0.27510 0.65020 -0.28300
N 	N 	0.62490 0.91430 0.34980 -0.28300
N 	N 	0.43550 0.08570 0.71060 -0.28300
N 	N 	0.37510 0.28940 0.72490 -0.28200
N 	N 	0.56450 0.65020 0.27510 -0.28300
N 	N 	0.62490 0.34980 0.91430 -0.28400
N 	N 	0.43550 0.71060 0.08570 -0.28400
N 	N 	0.65020 0.27510 0.56450 -0.28200
N 	N 	0.28940 0.72490 0.37510 -0.28200
N 	N 	0.71060 0.08570 0.43550 -0.28300
N 	N 	0.34980 0.91430 0.62490 -0.28300
N 	N 	0.08570 0.43550 0.71060 -0.28300
N 	N 	0.91430 0.62490 0.34980 -0.28300
N 	N 	0.27510 0.56450 0.65020 -0.28300
N 	N 	0.72490 0.37510 0.28940 -0.28200
H 	H 	0.61485 0.68724 0.13888 0.02800
H 	H 	0.68816 0.61527 0.13964 0.02900
H 	H 	0.74837 0.74886 0.25044 0.04200
H 	H 	0.48895 0.50787 0.75146 0.04000
H 	H 	0.55030 0.47007 0.84532 0.02200
H 	H 	0.48316 0.54448 0.87426 0.03200
H 	H 	0.49686 0.24692 0.99019 0.03600
H 	H 	0.45335 0.32135 0.93276 0.02600
H 	H 	0.52738 0.38036 0.07705 0.02400
H 	H 	0.39332 0.50548 0.04202 0.03900
H 	H 	0.27434 0.45058 0.91612 0.01500
H 	H 	0.28097 0.52152 0.04186 0.03700
H 	H 	0.02204 0.51253 0.26468 0.04100
H 	H 	0.91889 0.44960 0.29217 0.02100
H 	H 	0.05907 0.51546 0.39177 0.03400
H 	H 	0.04896 0.39333 0.50945 0.03700
H 	H 	0.91653 0.28093 0.44987 0.01900
H 	H 	0.03451 0.27437 0.51826 0.03900
H 	H 	0.13424 0.61246 0.68152 0.03000
H 	H 	0.14451 0.69386 0.61809 0.02600
H 	H 	0.25021 0.74505 0.75177 0.04100
H 	H 	0.85549 0.54935 0.47358 0.02600
H 	H 	0.86576 0.47823 0.54728 0.03000
H 	H 	0.74979 0.49484 0.50156 0.04100
H 	H 	0.54665 0.86800 0.47941 0.03000
H 	H 	0.50314 0.75006 0.49333 0.04100
H 	H 	0.47262 0.85298 0.54967 0.02400
H 	H 	0.72567 0.17624 0.64178 0.01900
H 	H 	0.60668 0.11216 0.64869 0.03900
H 	H 	0.71903 0.24055 0.76090 0.03600
H 	H 	0.44970 0.91977 0.29502 0.02100
H 	H 	0.51105 0.01891 0.26251 0.04200
H 	H 	0.51684 0.06132 0.39110 0.03400
H 	H 	0.31184 0.92711 0.45148 0.02600
H 	H 	0.38515 0.07239 0.52403 0.02800
H 	H 	0.25163 0.00050 0.50208 0.04300
