data_crystal

_cell_length_a 20.28700
_cell_length_b 23.01730
_cell_length_c 23.01730
_cell_angle_alpha 78.80150
_cell_angle_beta  63.85200
_cell_angle_gamma 63.85210

_symmetry_space_group_name_	'P 1'
_symmetry_space_group_name_H-M	'P 1'

loop_
_symmetry_equiv_pos_as_xyz
  x,y,z

loop_
_atom_site_label
_atom_site_type_symbol
_atom_site_fract_x
_atom_site_fract_y
_atom_site_fract_z
_atom_site_charge
Cd	Cd	0.42267 0.84417 0.62565 1.17400
Cd	Cd	0.73310 0.84420 0.37432 1.17500
Cd	Cd	0.89249 0.15583 0.37435 1.17400
Cd	Cd	0.95162 0.15580 0.62568 1.17600
Cd	Cd	0.04832 0.37435 0.84417 1.17400
Cd	Cd	0.10742 0.62568 0.84420 1.17500
Cd	Cd	0.26684 0.62565 0.15583 1.17400
Cd	Cd	0.57730 0.37432 0.15580 1.17500
Cd	Cd	0.57733 0.15583 0.37435 1.17400
Cd	Cd	0.26690 0.15580 0.62568 1.17500
Cd	Cd	0.10751 0.84417 0.62565 1.17400
Cd	Cd	0.04838 0.84420 0.37432 1.17600
Cd	Cd	0.95168 0.62565 0.15583 1.17300
Cd	Cd	0.89258 0.37432 0.15580 1.17400
Cd	Cd	0.73316 0.37435 0.84417 1.17300
Cd	Cd	0.42270 0.62568 0.84420 1.17400
H 	H 	0.39690 0.82800 0.49420 -0.00900
H 	H 	0.48430 0.69910 0.63810 0.21000
H 	H 	0.44240 0.65680 0.68920 0.22100
H 	H 	0.52740 0.64850 0.67990 0.22400
H 	H 	0.77430 0.83030 0.50670 -0.00400
H 	H 	0.26670 0.04290 0.57650 0.21400
H 	H 	0.26310 0.97690 0.60750 0.22200
H 	H 	0.33860 0.97770 0.54590 0.21600
H 	H 	0.37770 0.06240 0.70320 -0.00900
H 	H 	0.44090 0.93930 0.70130 -0.01100
H 	H 	0.73100 0.72370 0.48030 -0.01100
H 	H 	0.61930 0.72620 0.57800 0.00200
H 	H 	0.39530 0.86200 0.77720 0.00200
H 	H 	0.39730 0.77740 0.86040 -0.00100
H 	H 	0.71910 0.17200 0.50580 -0.00900
H 	H 	0.82150 0.30090 0.36190 0.21000
H 	H 	0.78840 0.34320 0.31080 0.22100
H 	H 	0.85580 0.35150 0.32010 0.22400
H 	H 	0.11130 0.16970 0.49330 -0.00500
H 	H 	0.88610 0.95710 0.42350 0.21000
H 	H 	0.84750 0.02310 0.39250 0.21900
H 	H 	0.86220 0.02230 0.45410 0.21300
H 	H 	0.14330 0.93760 0.29680 -0.01000
H 	H 	0.08150 0.06070 0.29870 -0.00900
H 	H 	0.93500 0.27630 0.51970 -0.01100
H 	H 	0.92350 0.27380 0.42200 0.00200
H 	H 	0.03450 0.13800 0.22280 0.00100
H 	H 	0.03510 0.22260 0.13960 0.00000
H 	H 	0.89110 0.50580 0.82800 -0.00900
H 	H 	0.12240 0.36190 0.69910 0.20900
H 	H 	0.13160 0.31080 0.65680 0.22000
H 	H 	0.20730 0.32010 0.64850 0.22400
H 	H 	0.28100 0.49330 0.83030 -0.00500
H 	H 	0.84320 0.42350 0.04290 0.21000
H 	H 	0.87060 0.39250 0.97690 0.22000
H 	H 	0.88450 0.45410 0.97770 0.21400
H 	H 	0.08090 0.29680 0.06240 -0.01000
H 	H 	0.14220 0.29870 0.93930 -0.00900
H 	H 	0.21130 0.51970 0.72370 -0.01100
H 	H 	0.19730 0.42200 0.72620 0.00200
H 	H 	0.17250 0.22280 0.86200 0.00100
H 	H 	0.25770 0.13960 0.77740 -0.00100
H 	H 	0.22490 0.49420 0.17200 -0.00900
H 	H 	0.18340 0.63810 0.30090 0.21000
H 	H 	0.09920 0.68920 0.34320 0.22200
H 	H 	0.17590 0.67990 0.35150 0.22500
H 	H 	0.60460 0.50670 0.16970 -0.00500
H 	H 	0.30960 0.57650 0.95710 0.21300
H 	H 	0.24000 0.60750 0.02310 0.22200
H 	H 	0.31630 0.54590 0.02230 0.21500
H 	H 	0.44010 0.70320 0.93760 -0.00900
H 	H 	0.38020 0.70130 0.06070 -0.01100
H 	H 	0.45470 0.48030 0.27630 -0.01100
H 	H 	0.34550 0.57800 0.27380 0.00200
H 	H 	0.25730 0.77720 0.13800 0.00200
H 	H 	0.17470 0.86040 0.22260 -0.00000
H 	H 	0.60310 0.17200 0.50580 -0.00900
H 	H 	0.51570 0.30090 0.36190 0.21000
H 	H 	0.55760 0.34320 0.31080 0.22100
H 	H 	0.47260 0.35150 0.32010 0.22400
H 	H 	0.22570 0.16970 0.49330 -0.00400
H 	H 	0.73330 0.95710 0.42350 0.21400
H 	H 	0.73690 0.02310 0.39250 0.22200
H 	H 	0.66140 0.02230 0.45410 0.21600
H 	H 	0.62230 0.93760 0.29680 -0.00900
H 	H 	0.55910 0.06070 0.29870 -0.01100
H 	H 	0.26900 0.27630 0.51970 -0.01100
H 	H 	0.38070 0.27380 0.42200 0.00200
H 	H 	0.60470 0.13800 0.22280 0.00200
H 	H 	0.60270 0.22260 0.13960 -0.00100
H 	H 	0.28090 0.82800 0.49420 -0.00900
H 	H 	0.17850 0.69910 0.63810 0.21000
H 	H 	0.21160 0.65680 0.68920 0.22100
H 	H 	0.14420 0.64850 0.67990 0.22400
H 	H 	0.88870 0.83030 0.50670 -0.00500
H 	H 	0.11390 0.04290 0.57650 0.21000
H 	H 	0.15250 0.97690 0.60750 0.21900
H 	H 	0.13780 0.97770 0.54590 0.21300
H 	H 	0.85670 0.06240 0.70320 -0.01000
H 	H 	0.91850 0.93930 0.70130 -0.00900
H 	H 	0.06500 0.72370 0.48030 -0.01100
H 	H 	0.07650 0.72620 0.57800 0.00200
H 	H 	0.96550 0.86200 0.77720 0.00100
H 	H 	0.96490 0.77740 0.86040 0.00000
H 	H 	0.10890 0.49420 0.17200 -0.00900
H 	H 	0.87760 0.63810 0.30090 0.20900
H 	H 	0.86840 0.68920 0.34320 0.22000
H 	H 	0.79270 0.67990 0.35150 0.22400
H 	H 	0.71900 0.50670 0.16970 -0.00500
H 	H 	0.15680 0.57650 0.95710 0.21000
H 	H 	0.12940 0.60750 0.02310 0.22000
H 	H 	0.11550 0.54590 0.02230 0.21400
H 	H 	0.91910 0.70320 0.93760 -0.01000
H 	H 	0.85780 0.70130 0.06070 -0.00900
H 	H 	0.78870 0.48030 0.27630 -0.01100
H 	H 	0.80270 0.57800 0.27380 0.00200
H 	H 	0.82750 0.77720 0.13800 0.00100
H 	H 	0.74230 0.86040 0.22260 -0.00100
H 	H 	0.77510 0.50580 0.82800 -0.00900
H 	H 	0.81660 0.36190 0.69910 0.21000
H 	H 	0.90080 0.31080 0.65680 0.22200
H 	H 	0.82410 0.32010 0.64850 0.22500
H 	H 	0.39540 0.49330 0.83030 -0.00500
H 	H 	0.69040 0.42350 0.04290 0.21300
H 	H 	0.76000 0.39250 0.97690 0.22200
H 	H 	0.68370 0.45410 0.97770 0.21500
H 	H 	0.55990 0.29680 0.06240 -0.00900
H 	H 	0.61980 0.29870 0.93930 -0.01100
H 	H 	0.54530 0.51970 0.72370 -0.01100
H 	H 	0.65450 0.42200 0.72620 0.00200
H 	H 	0.74270 0.22280 0.86200 0.00200
H 	H 	0.82530 0.13960 0.77740 -0.00000
C 	C 	0.57930 0.84430 0.49970 0.01600
C 	C 	0.35180 0.82890 0.53110 -0.02400
C 	C 	0.47650 0.67900 0.67980 -0.79900
C 	C 	0.43940 0.72780 0.72860 0.26200
C 	C 	0.81900 0.83020 0.46980 -0.02700
C 	C 	0.29760 0.99950 0.58570 -0.80000
C 	C 	0.33500 0.00080 0.62740 0.27900
C 	C 	0.37150 0.03550 0.68250 -0.02300
C 	C 	0.40650 0.96610 0.68150 -0.01500
C 	C 	0.67860 0.75470 0.49210 -0.02400
C 	C 	0.61690 0.75570 0.54430 -0.04600
C 	C 	0.40450 0.81960 0.77240 -0.02200
C 	C 	0.40520 0.77240 0.81840 -0.01300
C 	C 	0.92330 0.15570 0.50030 0.01700
C 	C 	0.71180 0.17110 0.46890 -0.02300
C 	C 	0.83530 0.32100 0.32020 -0.79900
C 	C 	0.89580 0.27220 0.27140 0.26200
C 	C 	0.11900 0.16980 0.53020 -0.02700
C 	C 	0.88280 0.00050 0.41430 -0.78900
C 	C 	0.96320 0.99920 0.37260 0.27300
C 	C 	0.08950 0.96450 0.31750 -0.01900
C 	C 	0.05410 0.03390 0.31850 -0.01900
C 	C 	0.92540 0.24530 0.50790 -0.02300
C 	C 	0.91690 0.24430 0.45570 -0.04600
C 	C 	0.99650 0.18040 0.22760 -0.02100
C 	C 	0.99600 0.22760 0.18160 -0.01500
C 	C 	0.07900 0.50030 0.84430 0.01600
C 	C 	0.88290 0.46890 0.82890 -0.02300
C 	C 	0.15630 0.32020 0.67900 -0.79900
C 	C 	0.16800 0.27140 0.72780 0.26200
C 	C 	0.28880 0.53020 0.83020 -0.02700
C 	C 	0.88330 0.41430 0.99950 -0.79100
C 	C 	0.96240 0.37260 0.00080 0.27600
C 	C 	0.05400 0.31750 0.03550 -0.01600
C 	C 	0.08800 0.31850 0.96610 -0.02100
C 	C 	0.17070 0.50790 0.75470 -0.02400
C 	C 	0.16120 0.45570 0.75570 -0.04600
C 	C 	0.17690 0.22760 0.81960 -0.02200
C 	C 	0.22360 0.18160 0.77240 -0.01300
C 	C 	0.42360 0.49970 0.15570 0.01600
C 	C 	0.18070 0.53110 0.17110 -0.02300
C 	C 	0.15550 0.67980 0.32100 -0.80000
C 	C 	0.16720 0.72860 0.27220 0.26300
C 	C 	0.64920 0.46980 0.16980 -0.02700
C 	C 	0.29710 0.58570 0.00050 -0.79900
C 	C 	0.33580 0.62740 0.99920 0.27800
C 	C 	0.40700 0.68250 0.96450 -0.02300
C 	C 	0.37260 0.68150 0.03390 -0.01500
C 	C 	0.43330 0.49210 0.24530 -0.02400
C 	C 	0.37260 0.54430 0.24430 -0.04600
C 	C 	0.22410 0.77240 0.18040 -0.02100
C 	C 	0.17760 0.81840 0.22760 -0.01300
C 	C 	0.42070 0.15570 0.50030 0.01600
C 	C 	0.64820 0.17110 0.46890 -0.02400
C 	C 	0.52350 0.32100 0.32020 -0.79900
C 	C 	0.56060 0.27220 0.27140 0.26200
C 	C 	0.18100 0.16980 0.53020 -0.02700
C 	C 	0.70240 0.00050 0.41430 -0.80000
C 	C 	0.66500 0.99920 0.37260 0.27900
C 	C 	0.62850 0.96450 0.31750 -0.02300
C 	C 	0.59350 0.03390 0.31850 -0.01500
C 	C 	0.32140 0.24530 0.50790 -0.02400
C 	C 	0.38310 0.24430 0.45570 -0.04600
C 	C 	0.59550 0.18040 0.22760 -0.02200
C 	C 	0.59480 0.22760 0.18160 -0.01300
C 	C 	0.07670 0.84430 0.49970 0.01700
C 	C 	0.28820 0.82890 0.53110 -0.02300
C 	C 	0.16470 0.67900 0.67980 -0.79900
C 	C 	0.10420 0.72780 0.72860 0.26200
C 	C 	0.88100 0.83020 0.46980 -0.02700
C 	C 	0.11720 0.99950 0.58570 -0.78900
C 	C 	0.03680 0.00080 0.62740 0.27300
C 	C 	0.91050 0.03550 0.68250 -0.01900
C 	C 	0.94590 0.96610 0.68150 -0.01900
C 	C 	0.07460 0.75470 0.49210 -0.02300
C 	C 	0.08310 0.75570 0.54430 -0.04600
C 	C 	0.00350 0.81960 0.77240 -0.02100
C 	C 	0.00400 0.77240 0.81840 -0.01500
C 	C 	0.92100 0.49970 0.15570 0.01600
C 	C 	0.11710 0.53110 0.17110 -0.02300
C 	C 	0.84370 0.67980 0.32100 -0.79900
C 	C 	0.83200 0.72860 0.27220 0.26200
C 	C 	0.71120 0.46980 0.16980 -0.02700
C 	C 	0.11670 0.58570 0.00050 -0.79100
C 	C 	0.03760 0.62740 0.99920 0.27600
C 	C 	0.94600 0.68250 0.96450 -0.01600
C 	C 	0.91200 0.68150 0.03390 -0.02100
C 	C 	0.82930 0.49210 0.24530 -0.02400
C 	C 	0.83880 0.54430 0.24430 -0.04600
C 	C 	0.82310 0.77240 0.18040 -0.02200
C 	C 	0.77640 0.81840 0.22760 -0.01300
C 	C 	0.57640 0.50030 0.84430 0.01600
C 	C 	0.81930 0.46890 0.82890 -0.02300
C 	C 	0.84450 0.32020 0.67900 -0.80000
C 	C 	0.83280 0.27140 0.72780 0.26300
C 	C 	0.35080 0.53020 0.83020 -0.02700
C 	C 	0.70290 0.41430 0.99950 -0.79900
C 	C 	0.66420 0.37260 0.00080 0.27800
C 	C 	0.59300 0.31750 0.03550 -0.02300
C 	C 	0.62740 0.31850 0.96610 -0.01500
C 	C 	0.56670 0.50790 0.75470 -0.02400
C 	C 	0.62740 0.45570 0.75570 -0.04600
C 	C 	0.77590 0.22760 0.81960 -0.02100
C 	C 	0.82240 0.18160 0.77240 -0.01300
C 	C 	0.23140 0.83350 0.70370 -0.15600
C 	C 	0.26820 0.83200 0.63160 0.07400
C 	C 	0.76860 0.16650 0.29630 -0.15600
C 	C 	0.73180 0.16800 0.36840 0.07400
C 	C 	0.93510 0.29630 0.83350 -0.15500
C 	C 	0.89980 0.36840 0.83200 0.07400
C 	C 	0.06490 0.70370 0.16650 -0.15500
C 	C 	0.10020 0.63160 0.16800 0.07400
C 	C 	0.93480 0.83220 0.29820 -0.16100
C 	C 	0.89850 0.83370 0.36930 0.08600
C 	C 	0.06520 0.16780 0.70180 -0.16100
C 	C 	0.10150 0.16630 0.63070 0.08600
C 	C 	0.23300 0.70180 0.83220 -0.16000
C 	C 	0.26780 0.63070 0.83370 0.08600
C 	C 	0.76700 0.29820 0.16780 -0.16000
C 	C 	0.73220 0.36930 0.16630 0.08600
N 	N 	0.65000 0.81090 0.45590 -0.26800
N 	N 	0.53960 0.81110 0.54390 -0.26600
N 	N 	0.34320 0.83060 0.59400 -0.27100
N 	N 	0.42010 0.79220 0.71720 -0.29800
N 	N 	0.41930 0.71640 0.79360 -0.30300
N 	N 	0.82720 0.83000 0.40600 -0.27200
N 	N 	0.32780 0.05330 0.64710 -0.31300
N 	N 	0.38120 0.94660 0.64720 -0.31000
N 	N 	0.91680 0.18910 0.54410 -0.26800
N 	N 	0.89460 0.18890 0.45610 -0.26600
N 	N 	0.76780 0.16940 0.40600 -0.27100
N 	N 	0.92950 0.20780 0.28280 -0.29800
N 	N 	0.92930 0.28360 0.20640 -0.30300
N 	N 	0.06320 0.17000 0.59400 -0.27200
N 	N 	0.02820 0.94670 0.35290 -0.31100
N 	N 	0.97500 0.05340 0.35280 -0.30800
N 	N 	0.10590 0.54410 0.81090 -0.26800
N 	N 	0.08350 0.45610 0.81110 -0.26700
N 	N 	0.93720 0.40600 0.83060 -0.27000
N 	N 	0.13730 0.28280 0.79220 -0.29800
N 	N 	0.21290 0.20640 0.71640 -0.30300
N 	N 	0.23320 0.59400 0.83000 -0.27100
N 	N 	0.97490 0.35290 0.05330 -0.31400
N 	N 	0.02840 0.35280 0.94660 -0.31000
N 	N 	0.46090 0.45590 0.18910 -0.26800
N 	N 	0.35070 0.54390 0.18890 -0.26600
N 	N 	0.17380 0.59400 0.16940 -0.27100
N 	N 	0.21230 0.71720 0.20780 -0.29800
N 	N 	0.13570 0.79360 0.28360 -0.30300
N 	N 	0.65720 0.40600 0.17000 -0.27100
N 	N 	0.38110 0.64710 0.94670 -0.31300
N 	N 	0.32780 0.64720 0.05340 -0.31000
N 	N 	0.35000 0.18910 0.54410 -0.26800
N 	N 	0.46040 0.18890 0.45610 -0.26600
N 	N 	0.65680 0.16940 0.40600 -0.27100
N 	N 	0.57990 0.20780 0.28280 -0.29800
N 	N 	0.58070 0.28360 0.20640 -0.30300
N 	N 	0.17280 0.17000 0.59400 -0.27200
N 	N 	0.67220 0.94670 0.35290 -0.31300
N 	N 	0.61880 0.05340 0.35280 -0.31000
N 	N 	0.08320 0.81090 0.45590 -0.26800
N 	N 	0.10540 0.81110 0.54390 -0.26600
N 	N 	0.23220 0.83060 0.59400 -0.27100
N 	N 	0.07050 0.79220 0.71720 -0.29800
N 	N 	0.07070 0.71640 0.79360 -0.30300
N 	N 	0.93680 0.83000 0.40600 -0.27200
N 	N 	0.97180 0.05330 0.64710 -0.31100
N 	N 	0.02500 0.94660 0.64720 -0.30800
N 	N 	0.89410 0.45590 0.18910 -0.26800
N 	N 	0.91650 0.54390 0.18890 -0.26700
N 	N 	0.06280 0.59400 0.16940 -0.27000
N 	N 	0.86270 0.71720 0.20780 -0.29800
N 	N 	0.78710 0.79360 0.28360 -0.30300
N 	N 	0.76680 0.40600 0.17000 -0.27100
N 	N 	0.02510 0.64710 0.94670 -0.31400
N 	N 	0.97160 0.64720 0.05340 -0.31000
N 	N 	0.53910 0.54410 0.81090 -0.26800
N 	N 	0.64930 0.45610 0.81110 -0.26600
N 	N 	0.82620 0.40600 0.83060 -0.27100
N 	N 	0.78770 0.28280 0.79220 -0.29800
N 	N 	0.86430 0.20640 0.71640 -0.30300
N 	N 	0.34280 0.59400 0.83000 -0.27100
N 	N 	0.61890 0.35290 0.05330 -0.31300
N 	N 	0.67220 0.35280 0.94660 -0.31000
