data_crystal

_cell_length_a 26.41350
_cell_length_b 26.41350
_cell_length_c 26.41350
_cell_angle_alpha 109.47100
_cell_angle_beta  109.47100
_cell_angle_gamma 109.47100

_symmetry_space_group_name_	'P 1'
_symmetry_space_group_name_H-M	'P 1'

loop_
_symmetry_equiv_pos_as_xyz
  x,y,z

loop_
_atom_site_label
_atom_site_type_symbol
_atom_site_fract_x
_atom_site_fract_y
_atom_site_fract_z
_atom_site_charge
Cd	Cd	0.64518 0.14518 0.29036 1.21200
Cd	Cd	0.85482 0.35482 0.70964 1.21300
Cd	Cd	0.14518 0.85482 0.50000 1.21300
Cd	Cd	0.35482 0.64518 0.50000 1.21300
Cd	Cd	0.50000 0.14518 0.85482 1.21300
Cd	Cd	0.50000 0.35482 0.64518 1.21300
Cd	Cd	0.29036 0.64518 0.14518 1.21200
Cd	Cd	0.70964 0.85482 0.35482 1.21300
Cd	Cd	0.35482 0.70964 0.85482 1.21300
Cd	Cd	0.14518 0.29036 0.64518 1.21200
Cd	Cd	0.64518 0.50000 0.35482 1.21200
Cd	Cd	0.85482 0.50000 0.14518 1.21200
Cd	Cd	0.35482 0.85482 0.70964 1.21400
Cd	Cd	0.14518 0.64518 0.29036 1.21300
Cd	Cd	0.85482 0.14518 0.50000 1.21300
Cd	Cd	0.64518 0.35482 0.50000 1.21300
Cd	Cd	0.50000 0.85482 0.14518 1.21400
Cd	Cd	0.50000 0.64518 0.35482 1.21400
Cd	Cd	0.70964 0.35482 0.85482 1.21400
Cd	Cd	0.29036 0.14518 0.64518 1.21300
Cd	Cd	0.64518 0.29036 0.14518 1.21300
Cd	Cd	0.85482 0.70964 0.35482 1.21400
Cd	Cd	0.35482 0.50000 0.64518 1.21400
Cd	Cd	0.14518 0.50000 0.85482 1.21400
H 	H 	0.80250 0.24320 0.35710 0.02400
H 	H 	0.74260 0.16780 0.22520 0.02900
H 	H 	0.88610 0.44540 0.64290 0.02400
H 	H 	0.94260 0.51740 0.77480 0.02900
H 	H 	0.11390 0.75680 0.55930 0.02400
H 	H 	0.05740 0.83220 0.57480 0.03100
H 	H 	0.19750 0.55460 0.44070 0.02400
H 	H 	0.25740 0.48260 0.42520 0.02900
H 	H 	0.55930 0.11390 0.75680 0.02300
H 	H 	0.57480 0.05740 0.83220 0.03200
H 	H 	0.44070 0.19750 0.55460 0.02400
H 	H 	0.42520 0.25740 0.48260 0.02900
H 	H 	0.35710 0.80250 0.24320 0.02400
H 	H 	0.22520 0.74260 0.16780 0.02900
H 	H 	0.64290 0.88610 0.44540 0.02500
H 	H 	0.77480 0.94260 0.51740 0.02800
H 	H 	0.44540 0.64290 0.88610 0.02500
H 	H 	0.51740 0.77480 0.94260 0.02800
H 	H 	0.24320 0.35710 0.80250 0.02400
H 	H 	0.16780 0.22520 0.74260 0.03000
H 	H 	0.55460 0.44070 0.19750 0.02400
H 	H 	0.48260 0.42520 0.25740 0.02900
H 	H 	0.75680 0.55930 0.11390 0.02300
H 	H 	0.83220 0.57480 0.05740 0.03200
H 	H 	0.75680 0.19750 0.64290 0.02400
H 	H 	0.83220 0.25740 0.77480 0.03000
H 	H 	0.55460 0.11390 0.35710 0.02300
H 	H 	0.48260 0.05740 0.22520 0.03200
H 	H 	0.24320 0.88610 0.44070 0.02500
H 	H 	0.16780 0.94260 0.42520 0.02700
H 	H 	0.44540 0.80250 0.55930 0.02400
H 	H 	0.51740 0.74260 0.57480 0.03000
H 	H 	0.88610 0.44070 0.24320 0.02400
H 	H 	0.94260 0.42520 0.16780 0.02800
H 	H 	0.80250 0.55930 0.44540 0.02400
H 	H 	0.74260 0.57480 0.51740 0.03000
H 	H 	0.19750 0.64290 0.75680 0.02400
H 	H 	0.25740 0.77480 0.83220 0.03000
H 	H 	0.11390 0.35710 0.55460 0.02400
H 	H 	0.05740 0.22520 0.48260 0.03000
H 	H 	0.35710 0.55460 0.11390 0.02300
H 	H 	0.22520 0.48260 0.05740 0.03200
H 	H 	0.64290 0.75680 0.19750 0.02400
H 	H 	0.77480 0.83220 0.25740 0.03000
H 	H 	0.55930 0.44540 0.80250 0.02400
H 	H 	0.57480 0.51740 0.74260 0.03000
H 	H 	0.44070 0.24320 0.88610 0.02500
H 	H 	0.42520 0.16780 0.94260 0.02700
H 	H 	0.19750 0.75680 0.64290 0.02400
H 	H 	0.25740 0.83220 0.77480 0.03000
H 	H 	0.11390 0.55460 0.35710 0.02400
H 	H 	0.05740 0.48260 0.22520 0.03000
H 	H 	0.88610 0.24320 0.44070 0.02400
H 	H 	0.94260 0.16780 0.42520 0.02800
H 	H 	0.80250 0.44540 0.55930 0.02400
H 	H 	0.74260 0.51740 0.57480 0.03000
H 	H 	0.44070 0.88610 0.24320 0.02500
H 	H 	0.42520 0.94260 0.16780 0.02700
H 	H 	0.55930 0.80250 0.44540 0.02400
H 	H 	0.57480 0.74260 0.51740 0.03000
H 	H 	0.64290 0.19750 0.75680 0.02400
H 	H 	0.77480 0.25740 0.83220 0.03000
H 	H 	0.35710 0.11390 0.55460 0.02300
H 	H 	0.22520 0.05740 0.48260 0.03200
H 	H 	0.55460 0.35710 0.11390 0.02300
H 	H 	0.48260 0.22520 0.05740 0.03200
H 	H 	0.75680 0.64290 0.19750 0.02400
H 	H 	0.83220 0.77480 0.25740 0.03000
H 	H 	0.44540 0.55930 0.80250 0.02400
H 	H 	0.51740 0.57480 0.74260 0.03000
H 	H 	0.24320 0.44070 0.88610 0.02500
H 	H 	0.16780 0.42520 0.94260 0.02700
H 	H 	0.24320 0.80250 0.35710 0.02400
H 	H 	0.16780 0.74260 0.22520 0.03000
H 	H 	0.44540 0.88610 0.64290 0.02500
H 	H 	0.51740 0.94260 0.77480 0.02800
H 	H 	0.75680 0.11390 0.55930 0.02300
H 	H 	0.83220 0.05740 0.57480 0.03200
H 	H 	0.55460 0.19750 0.44070 0.02400
H 	H 	0.48260 0.25740 0.42520 0.02900
H 	H 	0.11390 0.55930 0.75680 0.02400
H 	H 	0.05740 0.57480 0.83220 0.03100
H 	H 	0.19750 0.44070 0.55460 0.02400
H 	H 	0.25740 0.42520 0.48260 0.02900
H 	H 	0.80250 0.35710 0.24320 0.02400
H 	H 	0.74260 0.22520 0.16780 0.02900
H 	H 	0.88610 0.64290 0.44540 0.02500
H 	H 	0.94260 0.77480 0.51740 0.02900
H 	H 	0.64290 0.44540 0.88610 0.02500
H 	H 	0.77480 0.51740 0.94260 0.02800
H 	H 	0.35710 0.24320 0.80250 0.02400
H 	H 	0.22520 0.16780 0.74260 0.02900
H 	H 	0.44070 0.55460 0.19750 0.02400
H 	H 	0.42520 0.48260 0.25740 0.02900
H 	H 	0.55930 0.75680 0.11390 0.02300
H 	H 	0.57480 0.83220 0.05740 0.03300
C 	C 	0.79570 0.21670 0.37320 0.02500
C 	C 	0.71530 0.18220 0.21450 0.01200
C 	C 	0.84350 0.42250 0.62680 0.02500
C 	C 	0.96770 0.50080 0.78550 0.01700
C 	C 	0.15650 0.78330 0.57900 0.02500
C 	C 	0.03230 0.81780 0.53310 0.00800
C 	C 	0.20430 0.57750 0.42100 0.02500
C 	C 	0.28470 0.49920 0.46690 0.01300
C 	C 	0.57900 0.15650 0.78330 0.02500
C 	C 	0.53310 0.03230 0.81780 0.00300
C 	C 	0.42100 0.20430 0.57750 0.02400
C 	C 	0.46690 0.28470 0.49920 0.01300
C 	C 	0.37320 0.79570 0.21670 0.02500
C 	C 	0.21450 0.71530 0.18220 0.01300
C 	C 	0.62680 0.84350 0.42250 0.02500
C 	C 	0.78550 0.96770 0.50080 0.02300
C 	C 	0.42250 0.62680 0.84350 0.02500
C 	C 	0.50080 0.78550 0.96770 0.02300
C 	C 	0.21670 0.37320 0.79570 0.02500
C 	C 	0.18220 0.21450 0.71530 0.01300
C 	C 	0.57750 0.42100 0.20430 0.02400
C 	C 	0.49920 0.46690 0.28470 0.01300
C 	C 	0.78330 0.57900 0.15650 0.02500
C 	C 	0.81780 0.53310 0.03230 0.00300
C 	C 	0.78330 0.20430 0.62680 0.02500
C 	C 	0.81780 0.28470 0.78550 0.01300
C 	C 	0.57750 0.15650 0.37320 0.02500
C 	C 	0.49920 0.03230 0.21450 0.00300
C 	C 	0.21670 0.84350 0.42100 0.02500
C 	C 	0.18220 0.96770 0.46690 0.02200
C 	C 	0.42250 0.79570 0.57900 0.02500
C 	C 	0.50080 0.71530 0.53310 0.01300
C 	C 	0.84350 0.42100 0.21670 0.02500
C 	C 	0.96770 0.46690 0.18220 0.01700
C 	C 	0.79570 0.57900 0.42250 0.02500
C 	C 	0.71530 0.53310 0.50080 0.01300
C 	C 	0.20430 0.62680 0.78330 0.02500
C 	C 	0.28470 0.78550 0.81780 0.01300
C 	C 	0.15650 0.37320 0.57750 0.02500
C 	C 	0.03230 0.21450 0.49920 0.00800
C 	C 	0.37320 0.57750 0.15650 0.02500
C 	C 	0.21450 0.49920 0.03230 0.00300
C 	C 	0.62680 0.78330 0.20430 0.02500
C 	C 	0.78550 0.81780 0.28470 0.01300
C 	C 	0.57900 0.42250 0.79570 0.02500
C 	C 	0.53310 0.50080 0.71530 0.01300
C 	C 	0.42100 0.21670 0.84350 0.02500
C 	C 	0.46690 0.18220 0.96770 0.02300
C 	C 	0.20430 0.78330 0.62680 0.02500
C 	C 	0.28470 0.81780 0.78550 0.01300
C 	C 	0.15650 0.57750 0.37320 0.02500
C 	C 	0.03230 0.49920 0.21450 0.00800
C 	C 	0.84350 0.21670 0.42100 0.02500
C 	C 	0.96770 0.18220 0.46690 0.01700
C 	C 	0.79570 0.42250 0.57900 0.02500
C 	C 	0.71530 0.50080 0.53310 0.01300
C 	C 	0.42100 0.84350 0.21670 0.02500
C 	C 	0.46690 0.96770 0.18220 0.02200
C 	C 	0.57900 0.79570 0.42250 0.02500
C 	C 	0.53310 0.71530 0.50080 0.01300
C 	C 	0.62680 0.20430 0.78330 0.02500
C 	C 	0.78550 0.28470 0.81780 0.01300
C 	C 	0.37320 0.15650 0.57750 0.02500
C 	C 	0.21450 0.03230 0.49920 0.00300
C 	C 	0.57750 0.37320 0.15650 0.02500
C 	C 	0.49920 0.21450 0.03230 0.00300
C 	C 	0.78330 0.62680 0.20430 0.02500
C 	C 	0.81780 0.78550 0.28470 0.01300
C 	C 	0.42250 0.57900 0.79570 0.02500
C 	C 	0.50080 0.53310 0.71530 0.01300
C 	C 	0.21670 0.42100 0.84350 0.02500
C 	C 	0.18220 0.46690 0.96770 0.02300
C 	C 	0.21670 0.79570 0.37320 0.02500
C 	C 	0.18220 0.71530 0.21450 0.01200
C 	C 	0.42250 0.84350 0.62680 0.02500
C 	C 	0.50080 0.96770 0.78550 0.02300
C 	C 	0.78330 0.15650 0.57900 0.02500
C 	C 	0.81780 0.03230 0.53310 0.00300
C 	C 	0.57750 0.20430 0.42100 0.02400
C 	C 	0.49920 0.28470 0.46690 0.01300
C 	C 	0.15650 0.57900 0.78330 0.02500
C 	C 	0.03230 0.53310 0.81780 0.00800
C 	C 	0.20430 0.42100 0.57750 0.02500
C 	C 	0.28470 0.46690 0.49920 0.01300
C 	C 	0.79570 0.37320 0.21670 0.02500
C 	C 	0.71530 0.21450 0.18220 0.01200
C 	C 	0.84350 0.62680 0.42250 0.02500
C 	C 	0.96770 0.78550 0.50080 0.01800
C 	C 	0.62680 0.42250 0.84350 0.02500
C 	C 	0.78550 0.50080 0.96770 0.02300
C 	C 	0.37320 0.21670 0.79570 0.02500
C 	C 	0.21450 0.18220 0.71530 0.01300
C 	C 	0.42100 0.57750 0.20430 0.02400
C 	C 	0.46690 0.49920 0.28470 0.01300
C 	C 	0.57900 0.78330 0.15650 0.02500
C 	C 	0.53310 0.81780 0.03230 0.00300
C 	C 	0.75470 0.14760 0.39290 0.13400
C 	C 	0.75470 0.36180 0.60710 0.13500
C 	C 	0.24530 0.85240 0.60710 0.13500
C 	C 	0.24530 0.63820 0.39290 0.13400
C 	C 	0.60710 0.24530 0.85240 0.13500
C 	C 	0.39290 0.24530 0.63820 0.13400
C 	C 	0.39290 0.75470 0.14760 0.13400
C 	C 	0.60710 0.75470 0.36180 0.13500
C 	C 	0.36180 0.60710 0.75470 0.13500
C 	C 	0.14760 0.39290 0.75470 0.13400
C 	C 	0.63820 0.39290 0.24530 0.13400
C 	C 	0.85240 0.60710 0.24530 0.13500
C 	C 	0.85240 0.24530 0.60710 0.13500
C 	C 	0.63820 0.24530 0.39290 0.13400
C 	C 	0.14760 0.75470 0.39290 0.13400
C 	C 	0.36180 0.75470 0.60710 0.13500
C 	C 	0.75470 0.39290 0.14760 0.13400
C 	C 	0.75470 0.60710 0.36180 0.13500
C 	C 	0.24530 0.60710 0.85240 0.13500
C 	C 	0.24530 0.39290 0.63820 0.13400
C 	C 	0.39290 0.63820 0.24530 0.13400
C 	C 	0.60710 0.85240 0.24530 0.13500
C 	C 	0.60710 0.36180 0.75470 0.13500
C 	C 	0.39290 0.14760 0.75470 0.13400
C 	C 	0.64260 0.20380 0.20380 0.13600
C 	C 	1.00000 0.43880 0.79620 0.13900
C 	C 	0.00000 0.79620 0.43880 0.13300
C 	C 	0.35740 0.56120 0.56120 0.13700
C 	C 	0.43880 0.00000 0.79620 0.13200
C 	C 	0.56120 0.35740 0.56120 0.13700
C 	C 	0.20380 0.64260 0.20380 0.13600
C 	C 	0.79620 0.00000 0.43880 0.13200
C 	C 	0.43880 0.79620 -0.00000 0.13100
C 	C 	0.20380 0.20380 0.64260 0.13600
C 	C 	0.56120 0.56120 0.35740 0.13700
C 	C 	0.79620 0.43880 -0.00000 0.13100
C 	C 	0.79620 0.35740 0.79620 0.13700
C 	C 	0.56120 0.00000 0.20380 0.13100
C 	C 	0.20380 0.00000 0.56120 0.13200
C 	C 	0.43880 0.64260 0.43880 0.13700
C 	C 	-0.00000 0.56120 0.20380 0.13400
C 	C 	0.64260 0.43880 0.43880 0.13700
C 	C 	0.35740 0.79620 0.79620 0.13700
C 	C 	-0.00000 0.20380 0.56120 0.13400
C 	C 	0.20380 0.56120 -0.00000 0.12700
C 	C 	0.79620 0.79620 0.35740 0.13700
C 	C 	0.43880 0.43880 0.64260 0.13700
C 	C 	0.56120 0.20380 -0.00000 0.13100
N 	N 	0.74290 0.17420 0.35730 -0.22900
N 	N 	0.66930 0.17540 0.22770 -0.23000
N 	N 	0.81690 0.38560 0.64270 -0.22900
N 	N 	0.94770 0.44160 0.77230 -0.23100
N 	N 	0.18310 0.82580 0.56870 -0.22900
N 	N 	0.05230 0.82460 0.49390 -0.22900
N 	N 	0.25710 0.61440 0.43130 -0.22900
N 	N 	0.33070 0.55840 0.50610 -0.23000
N 	N 	0.56870 0.18310 0.82580 -0.22900
N 	N 	0.49390 0.05230 0.82460 -0.22800
N 	N 	0.43130 0.25710 0.61440 -0.22900
N 	N 	0.50610 0.33070 0.55840 -0.23000
N 	N 	0.35730 0.74290 0.17420 -0.22900
N 	N 	0.22770 0.66930 0.17540 -0.23000
N 	N 	0.64270 0.81690 0.38560 -0.22900
N 	N 	0.77230 0.94770 0.44160 -0.22800
N 	N 	0.38560 0.64270 0.81690 -0.22900
N 	N 	0.44160 0.77230 0.94770 -0.22800
N 	N 	0.17420 0.35730 0.74290 -0.22900
N 	N 	0.17540 0.22770 0.66930 -0.23000
N 	N 	0.61440 0.43130 0.25710 -0.22900
N 	N 	0.55840 0.50610 0.33070 -0.23000
N 	N 	0.82580 0.56870 0.18310 -0.22900
N 	N 	0.82460 0.49390 0.05230 -0.22800
N 	N 	0.82580 0.25710 0.64270 -0.22900
N 	N 	0.82460 0.33070 0.77230 -0.23000
N 	N 	0.61440 0.18310 0.35730 -0.23000
N 	N 	0.55840 0.05230 0.22770 -0.22800
N 	N 	0.17420 0.81690 0.43130 -0.22900
N 	N 	0.17540 0.94770 0.50610 -0.22900
N 	N 	0.38560 0.74290 0.56870 -0.22900
N 	N 	0.44160 0.66930 0.49390 -0.23000
N 	N 	0.81690 0.43130 0.17420 -0.22900
N 	N 	0.94770 0.50610 0.17540 -0.22900
N 	N 	0.74290 0.56870 0.38560 -0.22900
N 	N 	0.66930 0.49390 0.44160 -0.23000
N 	N 	0.25710 0.64270 0.82580 -0.22900
N 	N 	0.33070 0.77230 0.82460 -0.23000
N 	N 	0.18310 0.35730 0.61440 -0.22900
N 	N 	0.05230 0.22770 0.55840 -0.22900
N 	N 	0.35730 0.61440 0.18310 -0.23000
N 	N 	0.22770 0.55840 0.05230 -0.22800
N 	N 	0.64270 0.82580 0.25710 -0.22900
N 	N 	0.77230 0.82460 0.33070 -0.23000
N 	N 	0.56870 0.38560 0.74290 -0.22900
N 	N 	0.49390 0.44160 0.66930 -0.23000
N 	N 	0.43130 0.17420 0.81690 -0.22900
N 	N 	0.50610 0.17540 0.94770 -0.22900
N 	N 	0.25710 0.82580 0.64270 -0.22900
N 	N 	0.33070 0.82460 0.77230 -0.23000
N 	N 	0.18310 0.61440 0.35730 -0.22900
N 	N 	0.05230 0.55840 0.22770 -0.22900
N 	N 	0.81690 0.17420 0.43130 -0.22900
N 	N 	0.94770 0.17540 0.50610 -0.22900
N 	N 	0.74290 0.38560 0.56870 -0.22900
N 	N 	0.66930 0.44160 0.49390 -0.23000
N 	N 	0.43130 0.81690 0.17420 -0.22900
N 	N 	0.50610 0.94770 0.17540 -0.22900
N 	N 	0.56870 0.74290 0.38560 -0.22900
N 	N 	0.49390 0.66930 0.44160 -0.23000
N 	N 	0.64270 0.25710 0.82580 -0.22900
N 	N 	0.77230 0.33070 0.82460 -0.23000
N 	N 	0.35730 0.18310 0.61440 -0.23000
N 	N 	0.22770 0.05230 0.55840 -0.22800
N 	N 	0.61440 0.35730 0.18310 -0.23000
N 	N 	0.55840 0.22770 0.05230 -0.22800
N 	N 	0.82580 0.64270 0.25710 -0.22900
N 	N 	0.82460 0.77230 0.33070 -0.23000
N 	N 	0.38560 0.56870 0.74290 -0.22900
N 	N 	0.44160 0.49390 0.66930 -0.23000
N 	N 	0.17420 0.43130 0.81690 -0.22900
N 	N 	0.17540 0.50610 0.94770 -0.22800
N 	N 	0.17420 0.74290 0.35730 -0.22900
N 	N 	0.17540 0.66930 0.22770 -0.23000
N 	N 	0.38560 0.81690 0.64270 -0.22900
N 	N 	0.44160 0.94770 0.77230 -0.22800
N 	N 	0.82580 0.18310 0.56870 -0.22900
N 	N 	0.82460 0.05230 0.49390 -0.22800
N 	N 	0.61440 0.25710 0.43130 -0.22900
N 	N 	0.55840 0.33070 0.50610 -0.23000
N 	N 	0.18310 0.56870 0.82580 -0.22900
N 	N 	0.05230 0.49390 0.82460 -0.23000
N 	N 	0.25710 0.43130 0.61440 -0.22900
N 	N 	0.33070 0.50610 0.55840 -0.23000
N 	N 	0.74290 0.35730 0.17420 -0.22900
N 	N 	0.66930 0.22770 0.17540 -0.23000
N 	N 	0.81690 0.64270 0.38560 -0.22900
N 	N 	0.94770 0.77230 0.44160 -0.22900
N 	N 	0.64270 0.38560 0.81690 -0.22900
N 	N 	0.77230 0.44160 0.94770 -0.22800
N 	N 	0.35730 0.17420 0.74290 -0.22900
N 	N 	0.22770 0.17540 0.66930 -0.23000
N 	N 	0.43130 0.61440 0.25710 -0.22900
N 	N 	0.50610 0.55840 0.33070 -0.23000
N 	N 	0.56870 0.82580 0.18310 -0.22900
N 	N 	0.49390 0.82460 0.05230 -0.22800
N 	N 	0.70910 0.09980 0.39070 -0.01300
N 	N 	0.70910 0.31840 0.60930 -0.01300
N 	N 	0.29090 0.90020 0.60930 -0.01300
N 	N 	0.29090 0.68160 0.39070 -0.01300
N 	N 	0.60930 0.29090 0.90020 -0.01300
N 	N 	0.39070 0.29090 0.68160 -0.01300
N 	N 	0.39070 0.70910 0.09980 -0.01300
N 	N 	0.60930 0.70910 0.31840 -0.01300
N 	N 	0.31840 0.60930 0.70910 -0.01300
N 	N 	0.09980 0.39070 0.70910 -0.01300
N 	N 	0.68160 0.39070 0.29090 -0.01300
N 	N 	0.90020 0.60930 0.29090 -0.01300
N 	N 	0.90020 0.29090 0.60930 -0.01300
N 	N 	0.68160 0.29090 0.39070 -0.01300
N 	N 	0.09980 0.70910 0.39070 -0.01300
N 	N 	0.31840 0.70910 0.60930 -0.01300
N 	N 	0.70910 0.39070 0.09980 -0.01300
N 	N 	0.70910 0.60930 0.31840 -0.01300
N 	N 	0.29090 0.60930 0.90020 -0.01300
N 	N 	0.29090 0.39070 0.68160 -0.01300
N 	N 	0.39070 0.68160 0.29090 -0.01300
N 	N 	0.60930 0.90020 0.29090 -0.01300
N 	N 	0.60930 0.31840 0.70910 -0.01300
N 	N 	0.39070 0.09980 0.70910 -0.01300
N 	N 	0.59160 0.20630 0.20630 -0.01600
N 	N 	1.00000 0.38530 0.79370 -0.01500
N 	N 	1.00000 0.79370 0.38530 -0.01300
N 	N 	0.40840 0.61470 0.61470 -0.01600
N 	N 	0.38530 0.00000 0.79370 -0.01800
N 	N 	0.61470 0.40840 0.61470 -0.01600
N 	N 	0.20630 0.59160 0.20630 -0.01600
N 	N 	0.79370 0.00000 0.38530 -0.01800
N 	N 	0.38530 0.79370 -0.00000 -0.01800
N 	N 	0.20630 0.20630 0.59160 -0.01600
N 	N 	0.61470 0.61470 0.40840 -0.01600
N 	N 	0.79370 0.38530 -0.00000 -0.01800
N 	N 	0.79370 0.40840 0.79370 -0.01600
N 	N 	0.61470 0.00000 0.20630 -0.01800
N 	N 	0.20630 0.00000 0.61470 -0.01800
N 	N 	0.38530 0.59160 0.38530 -0.01600
N 	N 	-0.00000 0.61470 0.20630 -0.01700
N 	N 	0.59160 0.38530 0.38530 -0.01600
N 	N 	0.40840 0.79370 0.79370 -0.01600
N 	N 	-0.00000 0.20630 0.61470 -0.01700
N 	N 	0.20630 0.61470 1.00000 -0.01000
N 	N 	0.79370 0.79370 0.40840 -0.01600
N 	N 	0.38530 0.38530 0.59160 -0.01600
N 	N 	0.61470 0.20630 -0.00000 -0.01800
O 	O 	0.72560 0.08030 0.42490 -0.17700
O 	O 	0.56980 0.23190 0.18190 -0.18500
O 	O 	0.65540 0.30070 0.57510 -0.17600
O 	O 	0.05000 0.38790 0.81810 -0.18600
O 	O 	0.34460 0.91970 0.64530 -0.17400
O 	O 	0.95000 0.76810 0.33790 -0.18400
O 	O 	0.27440 0.69930 0.35470 -0.17500
O 	O 	0.43020 0.61210 0.66210 -0.18400
O 	O 	0.64530 0.34460 0.91970 -0.17400
O 	O 	0.33790 0.95000 0.76810 -0.18000
O 	O 	0.35470 0.27440 0.69930 -0.17500
O 	O 	0.66210 0.43020 0.61210 -0.18400
O 	O 	0.42490 0.72560 0.08030 -0.17700
O 	O 	0.18190 0.56980 0.23190 -0.18500
O 	O 	0.57510 0.65540 0.30070 -0.17600
O 	O 	0.81810 0.05000 0.38790 -0.18500
O 	O 	0.30070 0.57510 0.65540 -0.17500
O 	O 	0.38790 0.81810 0.05000 -0.18500
O 	O 	0.08030 0.42490 0.72560 -0.17600
O 	O 	0.23190 0.18190 0.56980 -0.18500
O 	O 	0.69930 0.35470 0.27440 -0.17500
O 	O 	0.61210 0.66210 0.43020 -0.18400
O 	O 	0.91970 0.64530 0.34460 -0.17500
O 	O 	0.76810 0.33790 0.95000 -0.18000
O 	O 	0.91970 0.27440 0.57510 -0.17500
O 	O 	0.76810 0.43020 0.81810 -0.18400
O 	O 	0.69930 0.34460 0.42490 -0.17500
O 	O 	0.61210 0.95000 0.18190 -0.18100
O 	O 	0.08030 0.65540 0.35470 -0.17600
O 	O 	0.23190 0.05000 0.66210 -0.18500
O 	O 	0.30070 0.72560 0.64530 -0.17500
O 	O 	0.38790 0.56980 0.33790 -0.18500
O 	O 	0.65540 0.35470 0.08030 -0.17700
O 	O 	0.05000 0.66210 0.23190 -0.18500
O 	O 	0.72560 0.64530 0.30070 -0.17600
O 	O 	0.56980 0.33790 0.38790 -0.18500
O 	O 	0.27440 0.57510 0.91970 -0.17400
O 	O 	0.43020 0.81810 0.76810 -0.18300
O 	O 	0.34460 0.42490 0.69930 -0.17500
O 	O 	0.95000 0.18190 0.61210 -0.18300
O 	O 	0.42490 0.69930 0.34460 -0.17500
O 	O 	0.18190 0.61210 0.95000 -0.18300
O 	O 	0.57510 0.91970 0.27440 -0.17400
O 	O 	0.81810 0.76810 0.43020 -0.18400
O 	O 	0.64530 0.30070 0.72560 -0.17600
O 	O 	0.33790 0.38790 0.56980 -0.18500
O 	O 	0.35470 0.08030 0.65540 -0.17700
O 	O 	0.66210 0.23190 0.05000 -0.18600
O 	O 	0.27440 0.91970 0.57510 -0.17400
O 	O 	0.43020 0.76810 0.81810 -0.18300
O 	O 	0.34460 0.69930 0.42490 -0.17500
O 	O 	0.95000 0.61210 0.18190 -0.18300
O 	O 	0.65540 0.08030 0.35470 -0.17700
O 	O 	0.05000 0.23190 0.66210 -0.18500
O 	O 	0.72560 0.30070 0.64530 -0.17600
O 	O 	0.56980 0.38790 0.33790 -0.18500
O 	O 	0.35470 0.65540 0.08030 -0.17700
O 	O 	0.66210 0.05000 0.23190 -0.18600
O 	O 	0.64530 0.72560 0.30070 -0.17600
O 	O 	0.33790 0.56980 0.38790 -0.18500
O 	O 	0.57510 0.27440 0.91970 -0.17400
O 	O 	0.81810 0.43020 0.76810 -0.18400
O 	O 	0.42490 0.34460 0.69930 -0.17500
O 	O 	0.18190 0.95000 0.61210 -0.18100
O 	O 	0.69930 0.42490 0.34460 -0.17500
O 	O 	0.61210 0.18190 0.95000 -0.18100
O 	O 	0.91970 0.57510 0.27440 -0.17500
O 	O 	0.76810 0.81810 0.43020 -0.18400
O 	O 	0.30070 0.64530 0.72560 -0.17500
O 	O 	0.38790 0.33790 0.56980 -0.18500
O 	O 	0.08030 0.35470 0.65540 -0.17600
O 	O 	0.23190 0.66210 0.05000 -0.18900
O 	O 	0.08030 0.72560 0.42490 -0.17600
O 	O 	0.23190 0.56980 0.18190 -0.18500
O 	O 	0.30070 0.65540 0.57510 -0.17500
O 	O 	0.38790 0.05000 0.81810 -0.18500
O 	O 	0.91970 0.34460 0.64530 -0.17500
O 	O 	0.76810 0.95000 0.33790 -0.18000
O 	O 	0.69930 0.27440 0.35470 -0.17500
O 	O 	0.61210 0.43020 0.66210 -0.18400
O 	O 	0.34460 0.64530 0.91970 -0.17400
O 	O 	0.95000 0.33790 0.76810 -0.18400
O 	O 	0.27440 0.35470 0.69930 -0.17500
O 	O 	0.43020 0.66210 0.61210 -0.18400
O 	O 	0.72560 0.42490 0.08030 -0.17700
O 	O 	0.56980 0.18190 0.23190 -0.18500
O 	O 	0.65540 0.57510 0.30070 -0.17600
O 	O 	0.05000 0.81810 0.38790 -0.18600
O 	O 	0.57510 0.30070 0.65540 -0.17600
O 	O 	0.81810 0.38790 0.05000 -0.18500
O 	O 	0.42490 0.08030 0.72560 -0.17700
O 	O 	0.18190 0.23190 0.56980 -0.18500
O 	O 	0.35470 0.69930 0.27440 -0.17500
O 	O 	0.66210 0.61210 0.43020 -0.18400
O 	O 	0.64530 0.91970 0.34460 -0.17400
O 	O 	0.33790 0.76810 0.95000 -0.18000
