data_crystal

_cell_length_a 9.24700
_cell_length_b 9.44640
_cell_length_c 9.44640
_cell_angle_alpha 101.45700
_cell_angle_beta  112.61000
_cell_angle_gamma 112.61000

_symmetry_space_group_name_	'P 1'
_symmetry_space_group_name_H-M	'P 1'

loop_
_symmetry_equiv_pos_as_xyz
  x,y,z

loop_
_atom_site_label
_atom_site_type_symbol
_atom_site_fract_x
_atom_site_fract_y
_atom_site_fract_z
_atom_site_charge
Mn	Mn	0.75000 0.03461 0.96539 1.29100
Mn	Mn	0.25000 0.96539 0.03461 1.29100
H 	H 	0.67690 0.26350 0.50910 0.05300
H 	H 	0.78630 0.85790 0.64570 0.02600
H 	H 	0.74730 0.86780 0.39100 0.05700
H 	H 	0.82310 0.49090 0.73650 0.05200
H 	H 	0.71370 0.35430 0.14210 0.02600
H 	H 	0.75270 0.60900 0.13220 0.05700
H 	H 	0.32310 0.73650 0.49090 0.05300
H 	H 	0.21370 0.14210 0.35430 0.02600
H 	H 	0.25270 0.13220 0.60900 0.05700
H 	H 	0.17690 0.50910 0.26350 0.05200
H 	H 	0.28630 0.64570 0.85790 0.02600
H 	H 	0.24730 0.39100 0.86780 0.05700
C 	C 	0.66850 0.07801 0.25499 0.36100
C 	C 	0.70540 0.06600 0.42140 -0.06100
C 	C 	0.70420 0.18184 0.53656 -0.04900
C 	C 	0.76760 0.94350 0.61890 0.04200
C 	C 	0.74320 0.17711 0.69249 0.03500
C 	C 	0.74110 0.94640 0.46520 -0.04600
C 	C 	0.83150 0.74501 0.92199 0.36200
C 	C 	0.79460 0.57860 0.93400 -0.06400
C 	C 	0.79580 0.46344 0.81816 -0.04800
C 	C 	0.73240 0.38110 0.05650 0.04100
C 	C 	0.75680 0.30751 0.82289 0.03400
C 	C 	0.75890 0.53480 0.05360 -0.04300
C 	C 	0.33150 0.92199 0.74501 0.36100
C 	C 	0.29460 0.93400 0.57860 -0.06100
C 	C 	0.29580 0.81816 0.46344 -0.04900
C 	C 	0.23240 0.05650 0.38110 0.04200
C 	C 	0.25680 0.82289 0.30751 0.03500
C 	C 	0.25890 0.05360 0.53480 -0.04600
C 	C 	0.16850 0.25499 0.07801 0.36200
C 	C 	0.20540 0.42140 0.06600 -0.06400
C 	C 	0.20420 0.53656 0.18184 -0.04800
C 	C 	0.26760 0.61890 0.94350 0.04100
C 	C 	0.24320 0.69249 0.17711 0.03400
C 	C 	0.24110 0.46520 0.94640 -0.04300
N 	N 	0.76820 0.05569 0.73231 -0.21700
N 	N 	0.73180 0.26769 0.94431 -0.21600
N 	N 	0.23180 0.94431 0.26769 -0.21700
N 	N 	0.26820 0.73231 0.05569 -0.21600
O 	O 	0.77320 0.06511 0.20549 -0.41100
O 	O 	0.54600 0.10783 0.18337 -0.43400
O 	O 	0.72680 0.79451 0.93489 -0.41100
O 	O 	0.95400 0.81663 0.89217 -0.43700
O 	O 	0.22680 0.93489 0.79451 -0.41100
O 	O 	0.45400 0.89217 0.81663 -0.43400
O 	O 	0.27320 0.20549 0.06511 -0.41100
O 	O 	0.04600 0.18337 0.10783 -0.43700
