data_crystal

_cell_length_a 9.24940
_cell_length_b 9.42120
_cell_length_c 9.42120
_cell_angle_alpha 101.27400
_cell_angle_beta  112.87000
_cell_angle_gamma 112.87000

_symmetry_space_group_name_	'P 1'
_symmetry_space_group_name_H-M	'P 1'

loop_
_symmetry_equiv_pos_as_xyz
  x,y,z

loop_
_atom_site_label
_atom_site_type_symbol
_atom_site_fract_x
_atom_site_fract_y
_atom_site_fract_z
_atom_site_charge
Mn	Mn	0.75000 0.03480 0.96520 1.29000
Mn	Mn	0.25000 0.96520 0.03480 1.29000
H 	H 	0.67760 0.26400 0.50920 0.05400
H 	H 	0.74890 0.86880 0.39060 0.05700
H 	H 	0.78590 0.85670 0.64650 0.02700
H 	H 	0.82240 0.49080 0.73600 0.05200
H 	H 	0.75110 0.60940 0.13120 0.05600
H 	H 	0.71410 0.35350 0.14330 0.02800
H 	H 	0.32240 0.73600 0.49080 0.05400
H 	H 	0.25110 0.13120 0.60940 0.05700
H 	H 	0.21410 0.14330 0.35350 0.02700
H 	H 	0.17760 0.50920 0.26400 0.05200
H 	H 	0.24890 0.39060 0.86880 0.05600
H 	H 	0.28590 0.64650 0.85670 0.02800
C 	C 	0.74320 0.17718 0.69262 0.03600
C 	C 	0.70430 0.18204 0.53676 -0.04900
C 	C 	0.70480 0.06586 0.42094 -0.06200
C 	C 	0.74160 0.94634 0.46466 -0.04400
C 	C 	0.76760 0.94254 0.61926 0.04000
C 	C 	0.66950 0.07815 0.25505 0.35800
C 	C 	0.75680 0.30738 0.82282 0.03500
C 	C 	0.79570 0.46324 0.81796 -0.04800
C 	C 	0.79520 0.57906 0.93414 -0.06500
C 	C 	0.75840 0.53534 0.05366 -0.04100
C 	C 	0.73240 0.38074 0.05746 0.03900
C 	C 	0.83050 0.74495 0.92185 0.35900
C 	C 	0.25680 0.82282 0.30738 0.03600
C 	C 	0.29570 0.81796 0.46324 -0.04900
C 	C 	0.29520 0.93414 0.57906 -0.06200
C 	C 	0.25840 0.05366 0.53534 -0.04400
C 	C 	0.23240 0.05746 0.38074 0.04000
C 	C 	0.33050 0.92185 0.74495 0.35800
C 	C 	0.24320 0.69262 0.17718 0.03500
C 	C 	0.20430 0.53676 0.18204 -0.04800
C 	C 	0.20480 0.42094 0.06586 -0.06500
C 	C 	0.24160 0.46466 0.94634 -0.04100
C 	C 	0.26760 0.61926 0.94254 0.03900
C 	C 	0.16950 0.25505 0.07815 0.35900
N 	N 	0.76780 0.05563 0.73223 -0.21700
N 	N 	0.73220 0.26777 0.94437 -0.21600
N 	N 	0.23220 0.94437 0.26777 -0.21700
N 	N 	0.26780 0.73223 0.05563 -0.21600
O 	O 	0.77440 0.06558 0.20592 -0.41000
O 	O 	0.54590 0.10812 0.18310 -0.43300
O 	O 	0.72560 0.79408 0.93442 -0.41000
O 	O 	0.95410 0.81690 0.89188 -0.43600
O 	O 	0.22560 0.93442 0.79408 -0.41000
O 	O 	0.45410 0.89188 0.81690 -0.43300
O 	O 	0.27440 0.20592 0.06558 -0.41000
O 	O 	0.04590 0.18310 0.10812 -0.43600
