data_crystal

_cell_length_a 8.62760
_cell_length_b 9.40660
_cell_length_c 13.05690
_cell_angle_alpha 90.00000
_cell_angle_beta  105.50400
_cell_angle_gamma 90.00000

_symmetry_space_group_name_	'P 1'
_symmetry_space_group_name_H-M	'P 1'

loop_
_symmetry_equiv_pos_as_xyz
  x,y,z

loop_
_atom_site_label
_atom_site_type_symbol
_atom_site_fract_x
_atom_site_fract_y
_atom_site_fract_z
_atom_site_charge
N 	N 	0.06260 0.94450 0.18170 -0.15500
N 	N 	0.22760 0.87170 0.99310 -0.03300
N 	N 	0.83880 0.79850 0.95730 0.00700
N 	N 	0.56260 0.44450 0.18170 -0.19600
N 	N 	0.72760 0.37170 0.99310 -0.06500
N 	N 	0.33880 0.29850 0.95730 -0.11400
N 	N 	0.93740 0.94450 0.31830 -0.01000
N 	N 	0.77240 0.87170 0.50690 -0.08000
N 	N 	0.16120 0.79850 0.54270 -0.16100
N 	N 	0.43740 0.44450 0.31830 -0.20100
N 	N 	0.27240 0.37170 0.50690 -0.21000
N 	N 	0.66120 0.29850 0.54270 -0.18200
N 	N 	0.93740 0.05550 0.81830 -0.15500
N 	N 	0.77240 0.12830 0.00690 -0.22400
N 	N 	0.16120 0.20150 0.04270 -0.27200
N 	N 	0.43740 0.55550 0.81830 -0.14700
N 	N 	0.27240 0.62830 0.00690 -0.22000
N 	N 	0.66120 0.70150 0.04270 -0.16800
N 	N 	0.06260 0.05550 0.68170 -0.32600
N 	N 	0.22760 0.12830 0.49310 -0.25700
N 	N 	0.83880 0.20150 0.45730 -0.16900
N 	N 	0.56260 0.55550 0.68170 -0.15500
N 	N 	0.72760 0.62830 0.49310 -0.15000
N 	N 	0.33880 0.70150 0.45730 -0.17500
Cd	Cd	-0.00000 0.00000 -0.00000 1.04900
Cd	Cd	0.50000 0.50000 -0.00000 1.16400
Cd	Cd	0.00000 0.00000 0.50000 1.08600
Cd	Cd	0.50000 0.50000 0.50000 1.20200
N 	N 	0.00000 0.94720 0.25000 -0.10000
N 	N 	0.50000 0.44720 0.25000 -0.03600
N 	N 	1.00000 0.05280 0.75000 0.05900
N 	N 	0.50000 0.55280 0.75000 -0.01600
N 	N 	0.25000 0.75000 -0.00000 -0.11700
N 	N 	0.75000 0.75000 0.50000 -0.01100
N 	N 	0.75000 0.25000 -0.00000 -0.11100
N 	N 	0.25000 0.25000 0.50000 -0.06200
N 	N 	0.75000 0.75000 -0.00000 -0.08300
N 	N 	0.25000 0.75000 0.50000 -0.03000
N 	N 	0.25000 0.25000 -0.00000 -0.14100
N 	N 	0.75000 0.25000 0.50000 -0.03500
