data_crystal

_cell_length_a 9.81390
_cell_length_b 23.67960
_cell_length_c 21.31510
_cell_angle_alpha 90.00000
_cell_angle_beta  98.06900
_cell_angle_gamma 90.00000

_symmetry_space_group_name_	'P 1'
_symmetry_space_group_name_H-M	'P 1'

loop_
_symmetry_equiv_pos_as_xyz
  x,y,z

loop_
_atom_site_label
_atom_site_type_symbol
_atom_site_fract_x
_atom_site_fract_y
_atom_site_fract_z
_atom_site_charge
Cu	Cu	0.46604 0.01485 0.89772 0.89900
O 	O 	0.59940 0.96492 0.94648 -0.39600
N 	N 	0.67110 0.01214 0.69721 -0.23700
C 	C 	0.61770 0.96440 0.67000 0.06400
H 	H 	0.57760 0.93880 0.69490 -0.00900
O 	O 	0.31270 0.96657 0.91142 -0.58600
H 	H 	0.31560 0.93340 0.92700 0.29600
H 	H 	0.36240 0.96520 0.88190 0.12700
Cu	Cu	0.62304 0.13650 0.91205 0.93300
O 	O 	0.47510 0.90335 0.99447 -0.36000
N 	N 	0.87810 0.71766 0.55560 -0.19900
C 	C 	0.61910 0.95160 0.60730 -0.11000
H 	H 	0.58090 0.91790 0.59060 0.10100
Cu	Cu	0.65442 0.03480 0.78833 0.84800
N 	N 	0.75310 0.00104 0.46602 -0.23100
H 	H 	0.80810 0.02600 0.48480 0.15700
C 	C 	0.67750 0.98880 0.56910 0.03000
O 	O 	0.69620 0.71220 0.99250 -0.11300
N 	N 	0.85720 0.89604 0.42200 -0.21900
H 	H 	0.79710 0.87230 0.40470 0.13300
C 	C 	0.73100 0.03830 0.59650 -0.11100
H 	H 	0.76930 0.06510 0.57230 0.08800
O 	O 	0.91130 0.70552 0.02650 -0.10500
O 	O 	0.19850 0.86812 0.03859 -0.38000
N 	N 	0.80810 0.73297 0.00880 -0.01300
C 	C 	0.72740 0.04770 0.65960 0.07100
H 	H 	0.76650 0.08080 0.67740 0.00800
O 	O 	0.11430 0.95427 0.04956 -0.24800
N 	N 	0.10430 0.30656 0.82810 -0.00600
C 	C 	0.66870 0.97380 0.49980 0.20800
O 	O 	0.32590 0.06901 0.86252 -0.41600
C 	C 	0.75600 0.99030 0.39850 0.09700
H 	H 	0.66850 0.97290 0.38070 0.01800
O 	O 	0.44200 0.15110 0.86674 -0.41200
C 	C 	0.77220 0.04560 0.36360 -0.25400
H 	H 	0.69450 0.07000 0.36770 0.13200
H 	H 	0.85520 0.06460 0.38280 0.12900
C 	C 	0.78030 0.03540 0.29360 0.03600
H 	H 	0.69390 0.01970 0.27340 -0.00700
H 	H 	0.79490 0.07110 0.27320 0.02200
O 	O 	0.21960 0.32679 0.83090 -0.13100
O 	O 	0.99980 0.33446 0.82390 -0.13200
C 	C 	0.89670 0.99520 0.28520 -0.15500
H 	H 	0.98390 0.01240 0.30190 0.08100
H 	H 	0.89710 0.98810 0.24040 0.08000
O 	O 	0.71280 0.16408 0.81275 -0.33200
C 	C 	0.88050 0.93940 0.31930 -0.10500
H 	H 	0.79730 0.92050 0.30000 0.05800
H 	H 	0.95810 0.91500 0.31500 0.06900
O 	O 	0.81450 0.08303 0.79305 -0.40300
C 	C 	0.87290 0.94958 0.38940 0.01400
H 	H 	0.95980 0.96680 0.40830 0.04900
C 	C 	0.93140 0.88240 0.47690 0.21700
C 	C 	0.90190 0.82547 0.50480 0.01800
C 	C 	0.94770 0.81390 0.56730 -0.08900
H 	H 	0.98880 0.84210 0.59390 0.08300
C 	C 	0.93240 0.76040 0.59020 0.07700
H 	H 	0.96230 0.75380 0.63290 0.01900
C 	C 	0.82820 0.72910 0.49550 0.06300
H 	H 	0.78570 0.70010 0.47050 0.01900
C 	C 	0.83620 0.78180 0.46840 -0.08800
H 	H 	0.79840 0.78810 0.42640 0.06400
O 	O 	0.58600 0.93767 0.47728 -0.21300
C 	C 	0.58410 0.92000 0.97670 0.31400
O 	O 	0.02250 0.91171 0.50511 -0.23600
C 	C 	0.71280 0.88506 0.99220 -0.03900
O 	O 	0.62580 0.05804 0.87875 -0.51000
C 	C 	0.84210 0.91037 0.00220 -0.03300
H 	H 	0.84970 0.94940 0.99880 0.08900
C 	C 	0.96020 0.87763 0.01710 -0.02500
C 	C 	0.94820 0.81920 0.01790 -0.09100
H 	H 	0.02640 0.79660 0.02550 0.09600
C 	C 	0.82020 0.79500 0.00720 0.10900
C 	C 	0.70130 0.82654 0.99580 -0.08600
H 	H 	0.61550 0.80920 0.99050 0.08400
C 	C 	0.10090 0.90390 0.03610 0.32000
C 	C 	0.33390 0.12170 0.85690 0.34400
C 	C 	0.20360 0.15494 0.83890 -0.05200
C 	C 	0.21170 0.21338 0.83750 -0.07300
H 	H 	0.29700 0.23120 0.84320 0.09200
C 	C 	0.09240 0.24474 0.82770 0.10600
C 	C 	0.96460 0.22028 0.81900 -0.08100
H 	H 	0.88550 0.24230 0.81400 0.09100
C 	C 	0.95630 0.16202 0.81790 -0.04200
C 	C 	0.07530 0.12946 0.82770 -0.01200
H 	H 	0.06880 0.09030 0.82670 0.05900
C 	C 	0.81580 0.13480 0.80690 0.32000
Cu	Cu	0.03396 0.51485 0.60228 0.90100
O 	O 	0.90060 0.46492 0.55352 -0.39600
N 	N 	0.82890 0.51214 0.80279 -0.23500
C 	C 	0.88230 0.46440 0.83000 0.06400
H 	H 	0.92240 0.43880 0.80510 -0.00700
O 	O 	0.18730 0.46657 0.58858 -0.58500
H 	H 	0.18440 0.43340 0.57300 0.29600
H 	H 	0.13760 0.46520 0.61810 0.12700
Cu	Cu	0.87696 0.63650 0.58795 0.93300
O 	O 	0.02490 0.40335 0.50553 -0.36100
N 	N 	0.62190 0.21766 0.94440 -0.19900
C 	C 	0.88090 0.45160 0.89270 -0.11000
H 	H 	0.91910 0.41790 0.90940 0.10100
Cu	Cu	0.84558 0.53480 0.71167 0.84800
N 	N 	0.74690 0.50104 0.03398 -0.23100
H 	H 	0.69190 0.52600 0.01520 0.15700
C 	C 	0.82250 0.48880 0.93090 0.03000
O 	O 	0.80380 0.21220 0.50750 -0.11300
N 	N 	0.64280 0.39604 0.07800 -0.22000
H 	H 	0.70290 0.37230 0.09530 0.13300
C 	C 	0.76900 0.53830 0.90350 -0.11000
H 	H 	0.73070 0.56510 0.92770 0.08800
O 	O 	0.58870 0.20552 0.47350 -0.10400
O 	O 	0.30150 0.36812 0.46141 -0.38000
N 	N 	0.69190 0.23297 0.49120 -0.01200
C 	C 	0.77260 0.54770 0.84040 0.07000
H 	H 	0.73350 0.58080 0.82260 0.00800
O 	O 	0.38570 0.45427 0.45044 -0.24700
N 	N 	0.39570 0.80656 0.67190 -0.00600
C 	C 	0.83130 0.47380 0.00020 0.20800
O 	O 	0.17410 0.56901 0.63748 -0.41500
C 	C 	0.74400 0.49030 0.10150 0.09600
H 	H 	0.83150 0.47290 0.11930 0.01900
O 	O 	0.05800 0.65110 0.63326 -0.41200
C 	C 	0.72780 0.54560 0.13640 -0.25100
H 	H 	0.80550 0.57000 0.13230 0.13100
H 	H 	0.64480 0.56460 0.11720 0.12800
C 	C 	0.71970 0.53540 0.20640 0.02900
H 	H 	0.80610 0.51970 0.22660 -0.00500
H 	H 	0.70510 0.57110 0.22680 0.02400
O 	O 	0.28040 0.82679 0.66910 -0.13100
O 	O 	0.50020 0.83446 0.67610 -0.13200
C 	C 	0.60330 0.49520 0.21480 -0.14600
H 	H 	0.51610 0.51240 0.19810 0.07700
H 	H 	0.60290 0.48810 0.25960 0.07700
O 	O 	0.78720 0.66408 0.68725 -0.33200
C 	C 	0.61950 0.43940 0.18070 -0.11000
H 	H 	0.70270 0.42050 0.20000 0.06000
H 	H 	0.54190 0.41500 0.18500 0.07100
O 	O 	0.68550 0.58303 0.70695 -0.40300
C 	C 	0.62710 0.44958 0.11060 0.01600
H 	H 	0.54020 0.46680 0.09170 0.04900
C 	C 	0.56860 0.38240 0.02310 0.21900
C 	C 	0.59810 0.32547 0.99520 0.01500
C 	C 	0.55230 0.31390 0.93270 -0.08800
H 	H 	0.51120 0.34210 0.90610 0.08300
C 	C 	0.56760 0.26040 0.90980 0.07600
H 	H 	0.53770 0.25380 0.86710 0.01900
C 	C 	0.67180 0.22910 0.00450 0.06300
H 	H 	0.71430 0.20010 0.02950 0.01900
C 	C 	0.66380 0.28180 0.03160 -0.08600
H 	H 	0.70160 0.28810 0.07360 0.06400
O 	O 	0.91400 0.43767 0.02272 -0.21300
C 	C 	0.91590 0.42000 0.52330 0.31600
O 	O 	0.47750 0.41171 0.99489 -0.23800
C 	C 	0.78720 0.38506 0.50780 -0.04300
O 	O 	0.87420 0.55804 0.62125 -0.50900
C 	C 	0.65790 0.41037 0.49780 -0.02600
H 	H 	0.65030 0.44940 0.50120 0.08500
C 	C 	0.53980 0.37763 0.48290 -0.02700
C 	C 	0.55180 0.31920 0.48210 -0.08800
H 	H 	0.47360 0.29660 0.47450 0.09500
C 	C 	0.67980 0.29500 0.49280 0.10900
C 	C 	0.79870 0.32654 0.50420 -0.08600
H 	H 	0.88450 0.30920 0.50950 0.08400
C 	C 	0.39910 0.40390 0.46390 0.32100
C 	C 	0.16610 0.62170 0.64310 0.34400
C 	C 	0.29640 0.65494 0.66110 -0.05100
C 	C 	0.28830 0.71338 0.66250 -0.07300
H 	H 	0.20300 0.73120 0.65680 0.09200
C 	C 	0.40760 0.74474 0.67230 0.10700
C 	C 	0.53540 0.72028 0.68100 -0.08200
H 	H 	0.61450 0.74230 0.68600 0.09200
C 	C 	0.54370 0.66202 0.68210 -0.04300
C 	C 	0.42470 0.62946 0.67230 -0.01200
H 	H 	0.43120 0.59030 0.67330 0.05900
C 	C 	0.68420 0.63480 0.69310 0.32000
Cu	Cu	0.53396 0.98515 0.10228 0.90000
O 	O 	0.40060 0.03508 0.05352 -0.39500
N 	N 	0.32890 0.98786 0.30279 -0.23600
C 	C 	0.38230 0.03560 0.33000 0.06500
H 	H 	0.42240 0.06120 0.30510 -0.00800
O 	O 	0.68730 0.03343 0.08858 -0.58500
H 	H 	0.68440 0.06660 0.07300 0.29600
H 	H 	0.63760 0.03480 0.11810 0.12700
Cu	Cu	0.37696 0.86350 0.08795 0.93300
O 	O 	0.52490 0.09665 0.00553 -0.36000
N 	N 	0.12190 0.28234 0.44440 -0.19900
C 	C 	0.38090 0.04840 0.39270 -0.11000
H 	H 	0.41910 0.08210 0.40940 0.10100
Cu	Cu	0.34558 0.96520 0.21167 0.84800
N 	N 	0.24690 0.99896 0.53398 -0.23100
H 	H 	0.19190 0.97400 0.51520 0.15700
C 	C 	0.32250 0.01120 0.43090 0.03000
O 	O 	0.30380 0.28780 0.00750 -0.11300
N 	N 	0.14280 0.10396 0.57800 -0.21900
H 	H 	0.20290 0.12770 0.59530 0.13300
C 	C 	0.26900 0.96170 0.40350 -0.11100
H 	H 	0.23070 0.93490 0.42770 0.08800
O 	O 	0.08870 0.29448 0.97350 -0.10500
O 	O 	0.80150 0.13188 0.96141 -0.38000
N 	N 	0.19190 0.26703 0.99120 -0.01300
C 	C 	0.27260 0.95230 0.34040 0.07100
H 	H 	0.23350 0.91920 0.32260 0.00800
O 	O 	0.88570 0.04573 0.95044 -0.24800
N 	N 	0.89570 0.69344 0.17190 -0.00600
C 	C 	0.33130 0.02620 0.50020 0.20800
O 	O 	0.67410 0.93099 0.13748 -0.41600
C 	C 	0.24400 0.00970 0.60150 0.09700
H 	H 	0.33150 0.02710 0.61930 0.01800
O 	O 	0.55800 0.84890 0.13326 -0.41200
C 	C 	0.22780 0.95440 0.63640 -0.25400
H 	H 	0.30550 0.93000 0.63230 0.13200
H 	H 	0.14480 0.93540 0.61720 0.12900
C 	C 	0.21970 0.96460 0.70640 0.03600
H 	H 	0.30610 0.98030 0.72660 -0.00700
H 	H 	0.20510 0.92890 0.72680 0.02200
O 	O 	0.78040 0.67321 0.16910 -0.13100
O 	O 	0.00020 0.66554 0.17610 -0.13200
C 	C 	0.10330 0.00480 0.71480 -0.15500
H 	H 	0.01610 0.98760 0.69810 0.08100
H 	H 	0.10290 0.01190 0.75960 0.08000
O 	O 	0.28720 0.83592 0.18725 -0.33200
C 	C 	0.11950 0.06060 0.68070 -0.10500
H 	H 	0.20270 0.07950 0.70000 0.05800
H 	H 	0.04190 0.08500 0.68500 0.06900
O 	O 	0.18550 0.91697 0.20695 -0.40300
C 	C 	0.12710 0.05042 0.61060 0.01400
H 	H 	0.04020 0.03320 0.59170 0.04900
C 	C 	0.06860 0.11760 0.52310 0.21700
C 	C 	0.09810 0.17453 0.49520 0.01800
C 	C 	0.05230 0.18610 0.43270 -0.08900
H 	H 	0.01120 0.15790 0.40610 0.08300
C 	C 	0.06760 0.23960 0.40980 0.07700
H 	H 	0.03770 0.24620 0.36710 0.01900
C 	C 	0.17180 0.27090 0.50450 0.06300
H 	H 	0.21430 0.29990 0.52950 0.01900
C 	C 	0.16380 0.21820 0.53160 -0.08800
H 	H 	0.20160 0.21190 0.57360 0.06400
O 	O 	0.41400 0.06233 0.52272 -0.21300
C 	C 	0.41590 0.08000 0.02330 0.31400
O 	O 	0.97750 0.08829 0.49489 -0.23600
C 	C 	0.28720 0.11494 0.00780 -0.03900
O 	O 	0.37420 0.94196 0.12125 -0.51000
C 	C 	0.15790 0.08963 0.99780 -0.03300
H 	H 	0.15030 0.05060 0.00120 0.08900
C 	C 	0.03980 0.12237 0.98290 -0.02500
C 	C 	0.05180 0.18080 0.98210 -0.09100
H 	H 	0.97360 0.20340 0.97450 0.09600
C 	C 	0.17980 0.20500 0.99280 0.10900
C 	C 	0.29870 0.17346 0.00420 -0.08600
H 	H 	0.38450 0.19080 0.00950 0.08400
C 	C 	0.89910 0.09610 0.96390 0.32000
C 	C 	0.66610 0.87830 0.14310 0.34400
C 	C 	0.79640 0.84506 0.16110 -0.05200
C 	C 	0.78830 0.78662 0.16250 -0.07300
H 	H 	0.70300 0.76880 0.15680 0.09200
C 	C 	0.90760 0.75526 0.17230 0.10600
C 	C 	0.03540 0.77972 0.18100 -0.08100
H 	H 	0.11450 0.75770 0.18600 0.09100
C 	C 	0.04370 0.83798 0.18210 -0.04200
C 	C 	0.92470 0.87054 0.17230 -0.01200
H 	H 	0.93120 0.90970 0.17330 0.05900
C 	C 	0.18420 0.86520 0.19310 0.32000
Cu	Cu	0.96604 0.48515 0.39772 0.90100
O 	O 	0.09940 0.53508 0.44648 -0.39600
N 	N 	0.17110 0.48786 0.19721 -0.23500
C 	C 	0.11770 0.53560 0.17000 0.06400
H 	H 	0.07760 0.56120 0.19490 -0.00700
O 	O 	0.81270 0.53343 0.41142 -0.58500
H 	H 	0.81560 0.56660 0.42700 0.29600
H 	H 	0.86240 0.53480 0.38190 0.12700
Cu	Cu	0.12304 0.36350 0.41205 0.93300
O 	O 	0.97510 0.59665 0.49447 -0.36100
N 	N 	0.37810 0.78234 0.05560 -0.19900
C 	C 	0.11910 0.54840 0.10730 -0.11000
H 	H 	0.08090 0.58210 0.09060 0.10100
Cu	Cu	0.15442 0.46520 0.28833 0.84800
N 	N 	0.25310 0.49896 0.96602 -0.23100
H 	H 	0.30810 0.47400 0.98480 0.15700
C 	C 	0.17750 0.51120 0.06910 0.03000
O 	O 	0.19620 0.78780 0.49250 -0.11300
N 	N 	0.35720 0.60396 0.92200 -0.22000
H 	H 	0.29710 0.62770 0.90470 0.13300
C 	C 	0.23100 0.46170 0.09650 -0.11000
H 	H 	0.26930 0.43490 0.07230 0.08800
O 	O 	0.41130 0.79448 0.52650 -0.10400
O 	O 	0.69850 0.63188 0.53859 -0.38000
N 	N 	0.30810 0.76703 0.50880 -0.01200
C 	C 	0.22740 0.45230 0.15960 0.07000
H 	H 	0.26650 0.41920 0.17740 0.00800
O 	O 	0.61430 0.54573 0.54956 -0.24700
N 	N 	0.60430 0.19344 0.32810 -0.00600
C 	C 	0.16870 0.52620 0.99980 0.20800
O 	O 	0.82590 0.43099 0.36252 -0.41500
C 	C 	0.25600 0.50970 0.89850 0.09600
H 	H 	0.16850 0.52710 0.88070 0.01900
O 	O 	0.94200 0.34890 0.36674 -0.41200
C 	C 	0.27220 0.45440 0.86360 -0.25100
H 	H 	0.19450 0.43000 0.86770 0.13100
H 	H 	0.35520 0.43540 0.88280 0.12800
C 	C 	0.28030 0.46460 0.79360 0.02900
H 	H 	0.19390 0.48030 0.77340 -0.00500
H 	H 	0.29490 0.42890 0.77320 0.02400
O 	O 	0.71960 0.17321 0.33090 -0.13100
O 	O 	0.49980 0.16554 0.32390 -0.13200
C 	C 	0.39670 0.50480 0.78520 -0.14600
H 	H 	0.48390 0.48760 0.80190 0.07700
H 	H 	0.39710 0.51190 0.74040 0.07700
O 	O 	0.21280 0.33592 0.31275 -0.33200
C 	C 	0.38050 0.56060 0.81930 -0.11000
H 	H 	0.29730 0.57950 0.80000 0.06000
H 	H 	0.45810 0.58500 0.81500 0.07100
O 	O 	0.31450 0.41697 0.29305 -0.40300
C 	C 	0.37290 0.55042 0.88940 0.01600
H 	H 	0.45980 0.53320 0.90830 0.04900
C 	C 	0.43140 0.61760 0.97690 0.21900
C 	C 	0.40190 0.67453 0.00480 0.01500
C 	C 	0.44770 0.68610 0.06730 -0.08800
H 	H 	0.48880 0.65790 0.09390 0.08300
C 	C 	0.43240 0.73960 0.09020 0.07600
H 	H 	0.46230 0.74620 0.13290 0.01900
C 	C 	0.32820 0.77090 0.99550 0.06300
H 	H 	0.28570 0.79990 0.97050 0.01900
C 	C 	0.33620 0.71820 0.96840 -0.08600
H 	H 	0.29840 0.71190 0.92640 0.06400
O 	O 	0.08600 0.56233 0.97728 -0.21300
C 	C 	0.08410 0.58000 0.47670 0.31600
O 	O 	0.52250 0.58829 0.00511 -0.23800
C 	C 	0.21280 0.61494 0.49220 -0.04300
O 	O 	0.12580 0.44196 0.37875 -0.50900
C 	C 	0.34210 0.58963 0.50220 -0.02600
H 	H 	0.34970 0.55060 0.49880 0.08500
C 	C 	0.46020 0.62237 0.51710 -0.02700
C 	C 	0.44820 0.68080 0.51790 -0.08800
H 	H 	0.52640 0.70340 0.52550 0.09500
C 	C 	0.32020 0.70500 0.50720 0.10900
C 	C 	0.20130 0.67346 0.49580 -0.08600
H 	H 	0.11550 0.69080 0.49050 0.08400
C 	C 	0.60090 0.59610 0.53610 0.32100
C 	C 	0.83390 0.37830 0.35690 0.34400
C 	C 	0.70360 0.34506 0.33890 -0.05100
C 	C 	0.71170 0.28662 0.33750 -0.07300
H 	H 	0.79700 0.26880 0.34320 0.09200
C 	C 	0.59240 0.25526 0.32770 0.10700
C 	C 	0.46460 0.27972 0.31900 -0.08200
H 	H 	0.38550 0.25770 0.31400 0.09200
C 	C 	0.45630 0.33798 0.31790 -0.04300
C 	C 	0.57530 0.37054 0.32770 -0.01200
H 	H 	0.56880 0.40970 0.32670 0.05900
C 	C 	0.31580 0.36520 0.30690 0.32000
