data_crystal

_cell_length_a 29.47900
_cell_length_b 16.68760
_cell_length_c 15.76640
_cell_angle_alpha 90.00000
_cell_angle_beta  113.53000
_cell_angle_gamma 90.00000

_symmetry_space_group_name_	'P 1'
_symmetry_space_group_name_H-M	'P 1'

loop_
_symmetry_equiv_pos_as_xyz
  x,y,z

loop_
_atom_site_label
_atom_site_type_symbol
_atom_site_fract_x
_atom_site_fract_y
_atom_site_fract_z
_atom_site_charge
Cd	Cd	0.24817 0.28110 0.87496 1.23100
N 	N 	0.33170 0.28270 0.94680 -0.24700
N 	N 	0.66250 0.21860 0.30180 -0.26200
C 	C 	0.35870 0.22450 0.92450 0.08300
H 	H 	0.34140 0.18470 0.88300 -0.00300
C 	C 	0.63720 0.28380 0.29500 0.13600
H 	H 	0.65290 0.32930 0.32750 -0.02700
C 	C 	0.56380 0.21940 0.19520 0.21100
C 	C 	0.58530 0.28640 0.23820 -0.23900
H 	H 	0.56720 0.33330 0.23160 0.11500
C 	C 	0.63830 0.15330 0.27440 0.16700
H 	H 	0.65470 0.10440 0.29040 -0.03500
C 	C 	0.35900 0.34350 0.99410 0.12400
H 	H 	0.34260 0.38890 0.00100 -0.01900
C 	C 	0.58760 0.15520 0.22050 -0.27800
H 	H 	0.57080 0.10690 0.20250 0.12300
C 	C 	0.41070 0.22210 0.96090 -0.18500
H 	H 	0.42820 0.18350 0.94400 0.09900
C 	C 	0.40990 0.34460 0.03390 -0.22200
H 	H 	0.42690 0.38910 0.06690 0.10800
C 	C 	0.49120 0.28000 0.06860 -0.08600
H 	H 	0.51220 0.31070 0.05050 0.06100
C 	C 	0.43330 0.28210 0.02410 0.15100
C 	C 	0.16670 0.41540 0.27140 0.08900
C 	C 	0.24590 0.35850 0.72300 0.26300
C 	C 	0.24240 0.40170 0.63710 -0.00200
C 	C 	0.24460 0.48390 0.63780 -0.03100
H 	H 	0.24800 0.51200 0.69100 0.06600
C 	C 	0.23650 0.35980 0.55830 -0.13600
H 	H 	0.23450 0.30420 0.55780 0.11600
C 	C 	0.23360 0.40060 0.47930 0.17500
C 	C 	0.24640 0.61440 0.56380 0.39300
C 	C 	0.21820 0.38980 0.31660 -0.08200
H 	H 	0.22540 0.35220 0.27670 0.08600
H 	H 	0.23960 0.43590 0.32520 0.07200
C 	C 	0.23580 0.48410 0.47820 -0.11300
H 	H 	0.23330 0.51140 0.42510 0.08200
C 	C 	0.12550 0.43330 0.23470 -0.14700
H 	H 	0.09240 0.44760 0.20530 0.08300
C 	C 	0.50620 0.22280 0.14100 -0.12600
H 	H 	0.48430 0.19110 0.15570 0.07500
O 	O 	0.24610 0.28280 0.72270 -0.34400
O 	O 	0.24960 0.64820 0.63550 -0.43400
O 	O 	0.24870 0.39910 0.79290 -0.36200
O 	O 	0.24700 0.65240 0.49710 -0.49300
C 	C 	0.24170 0.52540 0.55890 -0.05900
O 	O 	0.22890 0.35250 0.40490 -0.19100
Cd	Cd	0.74817 0.78110 0.87496 1.23200
N 	N 	0.83170 0.78270 0.94680 -0.24600
N 	N 	0.16250 0.71860 0.30180 -0.26100
C 	C 	0.85870 0.72450 0.92450 0.08400
H 	H 	0.84140 0.68470 0.88300 -0.00200
C 	C 	0.13720 0.78380 0.29500 0.13700
H 	H 	0.15290 0.82930 0.32750 -0.02600
C 	C 	0.06380 0.71940 0.19520 0.21200
C 	C 	0.08530 0.78640 0.23820 -0.23800
H 	H 	0.06720 0.83330 0.23160 0.11600
C 	C 	0.13830 0.65330 0.27440 0.16800
H 	H 	0.15470 0.60440 0.29040 -0.03400
C 	C 	0.85900 0.84350 0.99410 0.12700
H 	H 	0.84260 0.88890 0.00100 -0.01900
C 	C 	0.08760 0.65520 0.22050 -0.27700
H 	H 	0.07080 0.60690 0.20250 0.12400
C 	C 	0.91070 0.72210 0.96090 -0.18400
H 	H 	0.92820 0.68350 0.94400 0.09900
C 	C 	0.90990 0.84460 0.03390 -0.22300
H 	H 	0.92690 0.88910 0.06690 0.10800
C 	C 	0.99120 0.78000 0.06860 -0.08600
H 	H 	0.01220 0.81070 0.05050 0.06100
C 	C 	0.93330 0.78210 0.02410 0.15100
C 	C 	0.66670 0.91540 0.27140 0.08900
C 	C 	0.74590 0.85850 0.72300 0.26400
C 	C 	0.74240 0.90170 0.63710 -0.00300
C 	C 	0.74460 0.98390 0.63780 -0.03000
H 	H 	0.74800 0.01200 0.69100 0.06500
C 	C 	0.73650 0.85980 0.55830 -0.13600
H 	H 	0.73450 0.80420 0.55780 0.11600
C 	C 	0.73360 0.90060 0.47930 0.17500
C 	C 	0.74640 0.11440 0.56380 0.39400
C 	C 	0.71820 0.88980 0.31660 -0.08200
H 	H 	0.72540 0.85220 0.27670 0.08600
H 	H 	0.73960 0.93590 0.32520 0.07200
C 	C 	0.73580 0.98410 0.47820 -0.11300
H 	H 	0.73330 0.01140 0.42510 0.08200
C 	C 	0.62550 0.93330 0.23470 -0.14700
H 	H 	0.59240 0.94760 0.20530 0.08200
C 	C 	0.00620 0.72280 0.14100 -0.12600
H 	H 	0.98430 0.69110 0.15570 0.07500
O 	O 	0.74610 0.78280 0.72270 -0.34400
O 	O 	0.74960 0.14820 0.63550 -0.43400
O 	O 	0.74870 0.89910 0.79290 -0.36200
O 	O 	0.74700 0.15240 0.49710 -0.49300
C 	C 	0.74170 0.02540 0.55890 -0.05900
O 	O 	0.72890 0.85250 0.40490 -0.19100
Cd	Cd	0.75183 0.28110 0.62504 1.23200
N 	N 	0.66830 0.28270 0.55320 -0.24600
N 	N 	0.33750 0.21860 0.19820 -0.26100
C 	C 	0.64130 0.22450 0.57550 0.08400
H 	H 	0.65860 0.18470 0.61700 -0.00200
C 	C 	0.36280 0.28380 0.20500 0.13700
H 	H 	0.34710 0.32930 0.17250 -0.02600
C 	C 	0.43620 0.21940 0.30480 0.21200
C 	C 	0.41470 0.28640 0.26180 -0.23800
H 	H 	0.43280 0.33330 0.26840 0.11600
C 	C 	0.36170 0.15330 0.22560 0.16800
H 	H 	0.34530 0.10440 0.20960 -0.03400
C 	C 	0.64100 0.34350 0.50590 0.12600
H 	H 	0.65740 0.38890 0.49900 -0.01900
C 	C 	0.41240 0.15520 0.27950 -0.27700
H 	H 	0.42920 0.10690 0.29750 0.12400
C 	C 	0.58930 0.22210 0.53910 -0.18400
H 	H 	0.57180 0.18350 0.55600 0.09900
C 	C 	0.59010 0.34460 0.46610 -0.22200
H 	H 	0.57310 0.38910 0.43310 0.10800
C 	C 	0.50880 0.28000 0.43140 -0.08600
H 	H 	0.48780 0.31070 0.44950 0.06100
C 	C 	0.56670 0.28210 0.47590 0.15100
C 	C 	0.83330 0.41540 0.22860 0.08900
C 	C 	0.75410 0.35850 0.77700 0.26300
C 	C 	0.75760 0.40170 0.86290 -0.00200
C 	C 	0.75540 0.48390 0.86220 -0.03100
H 	H 	0.75200 0.51200 0.80900 0.06600
C 	C 	0.76350 0.35980 0.94170 -0.13700
H 	H 	0.76550 0.30420 0.94220 0.11600
C 	C 	0.76640 0.40060 0.02070 0.17500
C 	C 	0.75360 0.61440 0.93620 0.39400
C 	C 	0.78180 0.38980 0.18340 -0.08200
H 	H 	0.77460 0.35220 0.22330 0.08600
H 	H 	0.76040 0.43590 0.17480 0.07200
C 	C 	0.76420 0.48410 0.02180 -0.11400
H 	H 	0.76670 0.51140 0.07490 0.08200
C 	C 	0.87450 0.43330 0.26530 -0.14700
H 	H 	0.90760 0.44760 0.29470 0.08300
C 	C 	0.49380 0.22280 0.35900 -0.12600
H 	H 	0.51570 0.19110 0.34430 0.07500
O 	O 	0.75390 0.28280 0.77730 -0.34400
O 	O 	0.75040 0.64820 0.86450 -0.43400
O 	O 	0.75130 0.39910 0.70710 -0.36200
O 	O 	0.75300 0.65240 0.00290 -0.49300
C 	C 	0.75830 0.52540 0.94110 -0.05900
O 	O 	0.77110 0.35250 0.09510 -0.19100
Cd	Cd	0.25183 0.78110 0.62504 1.23200
N 	N 	0.16830 0.78270 0.55320 -0.24600
N 	N 	0.83750 0.71860 0.19820 -0.26100
C 	C 	0.14130 0.72450 0.57550 0.08400
H 	H 	0.15860 0.68470 0.61700 -0.00200
C 	C 	0.86280 0.78380 0.20500 0.13700
H 	H 	0.84710 0.82930 0.17250 -0.02600
C 	C 	0.93620 0.71940 0.30480 0.21200
C 	C 	0.91470 0.78640 0.26180 -0.23800
H 	H 	0.93280 0.83330 0.26840 0.11600
C 	C 	0.86170 0.65330 0.22560 0.16800
H 	H 	0.84530 0.60440 0.20960 -0.03400
C 	C 	0.14100 0.84350 0.50590 0.12600
H 	H 	0.15740 0.88890 0.49900 -0.01900
C 	C 	0.91240 0.65520 0.27950 -0.27700
H 	H 	0.92920 0.60690 0.29750 0.12400
C 	C 	0.08930 0.72210 0.53910 -0.18400
H 	H 	0.07180 0.68350 0.55600 0.09900
C 	C 	0.09010 0.84460 0.46610 -0.22200
H 	H 	0.07310 0.88910 0.43310 0.10800
C 	C 	0.00880 0.78000 0.43140 -0.08600
H 	H 	0.98780 0.81070 0.44950 0.06100
C 	C 	0.06670 0.78210 0.47590 0.15100
C 	C 	0.33330 0.91540 0.22860 0.08900
C 	C 	0.25410 0.85850 0.77700 0.26400
C 	C 	0.25760 0.90170 0.86290 -0.00300
C 	C 	0.25540 0.98390 0.86220 -0.02900
H 	H 	0.25200 0.01200 0.80900 0.06500
C 	C 	0.26350 0.85980 0.94170 -0.13500
H 	H 	0.26550 0.80420 0.94220 0.11600
C 	C 	0.26640 0.90060 0.02070 0.17400
C 	C 	0.25360 0.11440 0.93620 0.39300
C 	C 	0.28180 0.88980 0.18340 -0.08200
H 	H 	0.27460 0.85220 0.22330 0.08600
H 	H 	0.26040 0.93590 0.17480 0.07200
C 	C 	0.26420 0.98410 0.02180 -0.11400
H 	H 	0.26670 0.01140 0.07490 0.08200
C 	C 	0.37450 0.93330 0.26530 -0.14700
H 	H 	0.40760 0.94760 0.29470 0.08200
C 	C 	0.99380 0.72280 0.35900 -0.12600
H 	H 	0.01570 0.69110 0.34430 0.07500
O 	O 	0.25390 0.78280 0.77730 -0.34400
O 	O 	0.25040 0.14820 0.86450 -0.43400
O 	O 	0.25130 0.89910 0.70710 -0.36200
O 	O 	0.25300 0.15240 0.00290 -0.49300
C 	C 	0.25830 0.02540 0.94110 -0.06000
O 	O 	0.27110 0.85250 0.09510 -0.19100
Cd	Cd	0.75183 0.71890 0.12504 1.23200
N 	N 	0.66830 0.71730 0.05320 -0.24600
N 	N 	0.33750 0.78140 0.69820 -0.26100
C 	C 	0.64130 0.77550 0.07550 0.08400
H 	H 	0.65860 0.81530 0.11700 -0.00200
C 	C 	0.36280 0.71620 0.70500 0.13700
H 	H 	0.34710 0.67070 0.67250 -0.02600
C 	C 	0.43620 0.78060 0.80480 0.21200
C 	C 	0.41470 0.71360 0.76180 -0.23800
H 	H 	0.43280 0.66670 0.76840 0.11600
C 	C 	0.36170 0.84670 0.72560 0.16800
H 	H 	0.34530 0.89560 0.70960 -0.03400
C 	C 	0.64100 0.65650 0.00590 0.12500
H 	H 	0.65740 0.61110 0.99900 -0.01800
C 	C 	0.41240 0.84480 0.77950 -0.27700
H 	H 	0.42920 0.89310 0.79750 0.12400
C 	C 	0.58930 0.77790 0.03910 -0.18500
H 	H 	0.57180 0.81650 0.05600 0.09900
C 	C 	0.59010 0.65540 0.96610 -0.22200
H 	H 	0.57310 0.61090 0.93310 0.10800
C 	C 	0.50880 0.72000 0.93140 -0.08600
H 	H 	0.48780 0.68930 0.94950 0.06100
C 	C 	0.56670 0.71790 0.97590 0.15100
C 	C 	0.83330 0.58460 0.72860 0.08900
C 	C 	0.75410 0.64150 0.27700 0.26300
C 	C 	0.75760 0.59830 0.36290 -0.00200
C 	C 	0.75540 0.51610 0.36220 -0.03100
H 	H 	0.75200 0.48800 0.30900 0.06600
C 	C 	0.76350 0.64020 0.44170 -0.13600
H 	H 	0.76550 0.69580 0.44220 0.11600
C 	C 	0.76640 0.59940 0.52070 0.17500
C 	C 	0.75360 0.38560 0.43620 0.39300
C 	C 	0.78180 0.61020 0.68340 -0.08200
H 	H 	0.77460 0.64780 0.72330 0.08600
H 	H 	0.76040 0.56410 0.67480 0.07200
C 	C 	0.76420 0.51590 0.52180 -0.11300
H 	H 	0.76670 0.48860 0.57490 0.08200
C 	C 	0.87450 0.56670 0.76530 -0.14700
H 	H 	0.90760 0.55240 0.79470 0.08300
C 	C 	0.49380 0.77720 0.85900 -0.12600
H 	H 	0.51570 0.80890 0.84430 0.07500
O 	O 	0.75390 0.71720 0.27730 -0.34400
O 	O 	0.75040 0.35180 0.36450 -0.43400
O 	O 	0.75130 0.60090 0.20710 -0.36200
O 	O 	0.75300 0.34760 0.50290 -0.49300
C 	C 	0.75830 0.47460 0.44110 -0.05900
O 	O 	0.77110 0.64750 0.59510 -0.19100
Cd	Cd	0.25183 0.21890 0.12504 1.23200
N 	N 	0.16830 0.21730 0.05320 -0.24600
N 	N 	0.83750 0.28140 0.69820 -0.26100
C 	C 	0.14130 0.27550 0.07550 0.08400
H 	H 	0.15860 0.31530 0.11700 -0.00200
C 	C 	0.86280 0.21620 0.70500 0.13700
H 	H 	0.84710 0.17070 0.67250 -0.02600
C 	C 	0.93620 0.28060 0.80480 0.21200
C 	C 	0.91470 0.21360 0.76180 -0.23800
H 	H 	0.93280 0.16670 0.76840 0.11600
C 	C 	0.86170 0.34670 0.72560 0.16800
H 	H 	0.84530 0.39560 0.70960 -0.03400
C 	C 	0.14100 0.15650 0.00590 0.12700
H 	H 	0.15740 0.11110 0.99900 -0.01900
C 	C 	0.91240 0.34480 0.77950 -0.27700
H 	H 	0.92920 0.39310 0.79750 0.12400
C 	C 	0.08930 0.27790 0.03910 -0.18400
H 	H 	0.07180 0.31650 0.05600 0.09900
C 	C 	0.09010 0.15540 0.96610 -0.22300
H 	H 	0.07310 0.11090 0.93310 0.10800
C 	C 	0.00880 0.22000 0.93140 -0.08600
H 	H 	0.98780 0.18930 0.94950 0.06100
C 	C 	0.06670 0.21790 0.97590 0.15100
C 	C 	0.33330 0.08460 0.72860 0.08900
C 	C 	0.25410 0.14150 0.27700 0.26400
C 	C 	0.25760 0.09830 0.36290 -0.00300
C 	C 	0.25540 0.01610 0.36220 -0.03000
H 	H 	0.25200 0.98800 0.30900 0.06500
C 	C 	0.26350 0.14020 0.44170 -0.13600
H 	H 	0.26550 0.19580 0.44220 0.11600
C 	C 	0.26640 0.09940 0.52070 0.17500
C 	C 	0.25360 0.88560 0.43620 0.39400
C 	C 	0.28180 0.11020 0.68340 -0.08200
H 	H 	0.27460 0.14780 0.72330 0.08600
H 	H 	0.26040 0.06410 0.67480 0.07200
C 	C 	0.26420 0.01590 0.52180 -0.11300
H 	H 	0.26670 0.98860 0.57490 0.08200
C 	C 	0.37450 0.06670 0.76530 -0.14700
H 	H 	0.40760 0.05240 0.79470 0.08200
C 	C 	0.99380 0.27720 0.85900 -0.12600
H 	H 	0.01570 0.30890 0.84430 0.07500
O 	O 	0.25390 0.21720 0.27730 -0.34400
O 	O 	0.25040 0.85180 0.36450 -0.43400
O 	O 	0.25130 0.10090 0.20710 -0.36200
O 	O 	0.25300 0.84760 0.50290 -0.49300
C 	C 	0.25830 0.97460 0.44110 -0.05900
O 	O 	0.27110 0.14750 0.59510 -0.19100
Cd	Cd	0.24817 0.71890 0.37496 1.23200
N 	N 	0.33170 0.71730 0.44680 -0.24600
N 	N 	0.66250 0.78140 0.80180 -0.26100
C 	C 	0.35870 0.77550 0.42450 0.08400
H 	H 	0.34140 0.81530 0.38300 -0.00200
C 	C 	0.63720 0.71620 0.79500 0.13700
H 	H 	0.65290 0.67070 0.82750 -0.02600
C 	C 	0.56380 0.78060 0.69520 0.21200
C 	C 	0.58530 0.71360 0.73820 -0.23800
H 	H 	0.56720 0.66670 0.73160 0.11600
C 	C 	0.63830 0.84670 0.77440 0.16800
H 	H 	0.65470 0.89560 0.79040 -0.03400
C 	C 	0.35900 0.65650 0.49410 0.12600
H 	H 	0.34260 0.61110 0.50100 -0.01900
C 	C 	0.58760 0.84480 0.72050 -0.27700
H 	H 	0.57080 0.89310 0.70250 0.12400
C 	C 	0.41070 0.77790 0.46090 -0.18400
H 	H 	0.42820 0.81650 0.44400 0.09900
C 	C 	0.40990 0.65540 0.53390 -0.22200
H 	H 	0.42690 0.61090 0.56690 0.10800
C 	C 	0.49120 0.72000 0.56860 -0.08600
H 	H 	0.51220 0.68930 0.55050 0.06100
C 	C 	0.43330 0.71790 0.52410 0.15100
C 	C 	0.16670 0.58460 0.77140 0.08900
C 	C 	0.24590 0.64150 0.22300 0.26300
C 	C 	0.24240 0.59830 0.13710 -0.00200
C 	C 	0.24460 0.51610 0.13780 -0.03100
H 	H 	0.24800 0.48800 0.19100 0.06600
C 	C 	0.23650 0.64020 0.05830 -0.13700
H 	H 	0.23450 0.69580 0.05780 0.11600
C 	C 	0.23360 0.59940 0.97930 0.17500
C 	C 	0.24640 0.38560 0.06380 0.39400
C 	C 	0.21820 0.61020 0.81660 -0.08200
H 	H 	0.22540 0.64780 0.77670 0.08600
H 	H 	0.23960 0.56410 0.82520 0.07200
C 	C 	0.23580 0.51590 0.97820 -0.11400
H 	H 	0.23330 0.48860 0.92510 0.08200
C 	C 	0.12550 0.56670 0.73470 -0.14700
H 	H 	0.09240 0.55240 0.70530 0.08300
C 	C 	0.50620 0.77720 0.64100 -0.12600
H 	H 	0.48430 0.80890 0.65570 0.07500
O 	O 	0.24610 0.71720 0.22270 -0.34400
O 	O 	0.24960 0.35180 0.13550 -0.43400
O 	O 	0.24870 0.60090 0.29290 -0.36200
O 	O 	0.24700 0.34760 0.99710 -0.49300
C 	C 	0.24170 0.47460 0.05890 -0.05900
O 	O 	0.22890 0.64750 0.90490 -0.19100
Cd	Cd	0.74817 0.21890 0.37496 1.23200
N 	N 	0.83170 0.21730 0.44680 -0.24600
N 	N 	0.16250 0.28140 0.80180 -0.26100
C 	C 	0.85870 0.27550 0.42450 0.08400
H 	H 	0.84140 0.31530 0.38300 -0.00200
C 	C 	0.13720 0.21620 0.79500 0.13700
H 	H 	0.15290 0.17070 0.82750 -0.02600
C 	C 	0.06380 0.28060 0.69520 0.21200
C 	C 	0.08530 0.21360 0.73820 -0.23800
H 	H 	0.06720 0.16670 0.73160 0.11600
C 	C 	0.13830 0.34670 0.77440 0.16800
H 	H 	0.15470 0.39560 0.79040 -0.03400
C 	C 	0.85900 0.15650 0.49410 0.12600
H 	H 	0.84260 0.11110 0.50100 -0.01900
C 	C 	0.08760 0.34480 0.72050 -0.27700
H 	H 	0.07080 0.39310 0.70250 0.12400
C 	C 	0.91070 0.27790 0.46090 -0.18400
H 	H 	0.92820 0.31650 0.44400 0.09900
C 	C 	0.90990 0.15540 0.53390 -0.22200
H 	H 	0.92690 0.11090 0.56690 0.10800
C 	C 	0.99120 0.22000 0.56860 -0.08600
H 	H 	0.01220 0.18930 0.55050 0.06100
C 	C 	0.93330 0.21790 0.52410 0.15100
C 	C 	0.66670 0.08460 0.77140 0.08900
C 	C 	0.74590 0.14150 0.22300 0.26400
C 	C 	0.74240 0.09830 0.13710 -0.00300
C 	C 	0.74460 0.01610 0.13780 -0.02900
H 	H 	0.74800 0.98800 0.19100 0.06500
C 	C 	0.73650 0.14020 0.05830 -0.13500
H 	H 	0.73450 0.19580 0.05780 0.11600
C 	C 	0.73360 0.09940 0.97930 0.17400
C 	C 	0.74640 0.88560 0.06380 0.39300
C 	C 	0.71820 0.11020 0.81660 -0.08200
H 	H 	0.72540 0.14780 0.77670 0.08600
H 	H 	0.73960 0.06410 0.82520 0.07200
C 	C 	0.73580 0.01590 0.97820 -0.11400
H 	H 	0.73330 0.98860 0.92510 0.08200
C 	C 	0.62550 0.06670 0.73470 -0.14700
H 	H 	0.59240 0.05240 0.70530 0.08200
C 	C 	0.00620 0.27720 0.64100 -0.12600
H 	H 	0.98430 0.30890 0.65570 0.07500
O 	O 	0.74610 0.21720 0.22270 -0.34400
O 	O 	0.74960 0.85180 0.13550 -0.43400
O 	O 	0.74870 0.10090 0.29290 -0.36200
O 	O 	0.74700 0.84760 0.99710 -0.49300
C 	C 	0.74170 0.97460 0.05890 -0.06000
O 	O 	0.72890 0.14750 0.90490 -0.19100
