data_crystal

_cell_length_a 21.32090
_cell_length_b 14.13370
_cell_length_c 22.88160
_cell_angle_alpha 90.00000
_cell_angle_beta  90.71700
_cell_angle_gamma 90.00000

_symmetry_space_group_name_	'P 1'
_symmetry_space_group_name_H-M	'P 1'

loop_
_symmetry_equiv_pos_as_xyz
  x,y,z

loop_
_atom_site_label
_atom_site_type_symbol
_atom_site_fract_x
_atom_site_fract_y
_atom_site_fract_z
_atom_site_charge
Cr	Cr	0.39573 0.04609 0.48245 1.53400
Cr	Cr	0.53410 0.26786 0.62588 1.53200
Mn	Mn	0.14459 0.04556 0.50238 1.33000
Mn	Mn	0.51183 0.77676 0.35978 1.33000
C 	C 	0.42690 0.86990 0.43060 0.25200
C 	C 	0.46710 0.95000 0.39900 0.21400
C 	C 	0.56010 0.23870 0.74380 0.22200
C 	C 	0.48720 0.25590 0.73900 0.23600
C 	C 	0.57510 0.44320 0.58420 0.23600
C 	C 	0.61270 0.36820 0.55070 0.21400
C 	C 	0.26710 0.05860 0.45910 0.20900
C 	C 	0.27440 0.05160 0.52690 0.22600
C 	C 	0.48420 0.11220 0.56630 0.22500
C 	C 	0.45370 0.20220 0.53680 0.23800
C 	C 	0.09020 0.20490 0.45030 0.23200
C 	C 	0.06040 0.11910 0.42050 0.20900
O 	O 	0.45670 0.03430 0.41370 -0.40900
O 	O 	0.50450 0.92120 0.36130 -0.38400
O 	O 	0.39240 0.90140 0.46990 -0.41100
O 	O 	0.43630 0.78930 0.41670 -0.38000
O 	O 	0.58040 0.22320 0.79550 -0.35700
O 	O 	0.59020 0.24160 0.69880 -0.39700
O 	O 	0.45650 0.25170 0.78510 -0.36600
O 	O 	0.46580 0.26990 0.68990 -0.40300
O 	O 	0.60560 0.28380 0.56590 -0.39200
O 	O 	0.64670 0.39810 0.51000 -0.36700
O 	O 	0.54110 0.41400 0.62430 -0.39200
O 	O 	0.58020 0.52630 0.56870 -0.36600
O 	O 	0.22450 0.05140 0.55520 -0.36700
O 	O 	0.32790 0.04590 0.54740 -0.39500
O 	O 	0.21280 0.05430 0.43890 -0.37900
O 	O 	0.31750 0.06460 0.43080 -0.41700
O 	O 	0.46680 0.03370 0.54550 -0.38800
O 	O 	0.52200 0.12500 0.60590 -0.40200
O 	O 	0.41580 0.18790 0.49570 -0.42100
O 	O 	0.46900 0.27880 0.55700 -0.40500
O 	O 	0.07570 0.03930 0.43830 -0.37300
O 	O 	0.02000 0.13450 0.38020 -0.37600
O 	O 	0.12560 0.18900 0.49180 -0.37600
O 	O 	0.07580 0.28440 0.42990 -0.37300
Cr	Cr	0.89573 0.54609 0.48245 1.53400
Cr	Cr	0.03410 0.76786 0.62588 1.51500
Mn	Mn	0.64459 0.54556 0.50238 1.33100
Mn	Mn	0.01183 0.27676 0.35978 1.31400
C 	C 	0.92690 0.36990 0.43060 0.23600
C 	C 	0.96710 0.45000 0.39900 0.29400
C 	C 	0.06010 0.73870 0.74380 0.17200
C 	C 	0.98720 0.75590 0.73900 0.29300
C 	C 	0.07510 0.94320 0.58420 0.23400
C 	C 	0.11270 0.86820 0.55070 0.20900
C 	C 	0.76710 0.55860 0.45910 0.20900
C 	C 	0.77440 0.55160 0.52690 0.22500
C 	C 	0.98420 0.61220 0.56630 0.31000
C 	C 	0.95370 0.70220 0.53680 0.22000
C 	C 	0.59020 0.70490 0.45030 0.23600
C 	C 	0.56040 0.61910 0.42050 0.21000
O 	O 	0.95670 0.53430 0.41370 -0.40600
O 	O 	0.00450 0.42120 0.36130 -0.44600
O 	O 	0.89240 0.40140 0.46990 -0.39900
O 	O 	0.93630 0.28930 0.41670 -0.34800
O 	O 	0.08040 0.72320 0.79550 -0.35200
O 	O 	0.09020 0.74160 0.69880 -0.39200
O 	O 	0.95650 0.75170 0.78510 -0.35300
O 	O 	0.96580 0.76990 0.68990 -0.39100
O 	O 	0.10560 0.78380 0.56590 -0.40100
O 	O 	0.14670 0.89810 0.51000 -0.36900
O 	O 	0.04110 0.91400 0.62430 -0.41300
O 	O 	0.08020 0.02630 0.56870 -0.37500
O 	O 	0.72450 0.55140 0.55520 -0.36600
O 	O 	0.82790 0.54590 0.54740 -0.39200
O 	O 	0.71280 0.55430 0.43890 -0.37800
O 	O 	0.81750 0.56460 0.43080 -0.41400
O 	O 	0.96680 0.53370 0.54550 -0.39000
O 	O 	0.02200 0.62500 0.60590 -0.47000
O 	O 	0.91580 0.68790 0.49570 -0.40600
O 	O 	0.96900 0.77880 0.55700 -0.36900
O 	O 	0.57570 0.53930 0.43830 -0.36500
O 	O 	0.52000 0.63450 0.38020 -0.35300
O 	O 	0.62560 0.68900 0.49180 -0.37300
O 	O 	0.57580 0.78440 0.42990 -0.36200
Cr	Cr	0.39573 0.95391 0.98245 1.53600
Cr	Cr	0.53410 0.73214 0.12588 1.53000
Mn	Mn	0.14459 0.95444 0.00238 1.32400
Mn	Mn	0.51183 0.22324 0.85978 1.33000
C 	C 	0.42690 0.13010 0.93060 0.25100
C 	C 	0.46710 0.05000 0.89900 0.21800
C 	C 	0.56010 0.76130 0.24380 0.22200
C 	C 	0.48720 0.74410 0.23900 0.23600
C 	C 	0.57510 0.55680 0.08420 0.23500
C 	C 	0.61270 0.63180 0.05070 0.21300
C 	C 	0.26710 0.94140 0.95910 0.22200
C 	C 	0.27440 0.94840 0.02690 0.21200
C 	C 	0.48420 0.88780 0.06630 0.23000
C 	C 	0.45370 0.79780 0.03680 0.21800
C 	C 	0.09020 0.79510 0.95030 0.23200
C 	C 	0.06040 0.88090 0.92050 0.21000
O 	O 	0.45670 0.96570 0.91370 -0.41000
O 	O 	0.50450 0.07880 0.86130 -0.38400
O 	O 	0.39240 0.09860 0.96990 -0.40400
O 	O 	0.43630 0.21070 0.91670 -0.37800
O 	O 	0.58040 0.77680 0.29550 -0.35800
O 	O 	0.59020 0.75840 0.19880 -0.39800
O 	O 	0.45650 0.74830 0.28510 -0.36600
O 	O 	0.46580 0.73010 0.18990 -0.40300
O 	O 	0.60560 0.71620 0.06590 -0.39600
O 	O 	0.64670 0.60190 0.01000 -0.37400
O 	O 	0.54110 0.58600 0.12430 -0.39400
O 	O 	0.58020 0.47370 0.06870 -0.37000
O 	O 	0.22450 0.94860 0.05520 -0.36800
O 	O 	0.32790 0.95410 0.04740 -0.39800
O 	O 	0.21280 0.94570 0.93890 -0.37900
O 	O 	0.31750 0.93540 0.93080 -0.41900
O 	O 	0.46680 0.96630 0.04550 -0.39700
O 	O 	0.52200 0.87500 0.10590 -0.40500
O 	O 	0.41580 0.81210 0.99570 -0.40400
O 	O 	0.46900 0.72120 0.05700 -0.40400
O 	O 	0.07570 0.96070 0.93830 -0.36900
O 	O 	0.02000 0.86550 0.88020 -0.37500
O 	O 	0.12560 0.81100 0.99180 -0.36700
O 	O 	0.07580 0.71560 0.92990 -0.36900
Cr	Cr	0.89573 0.45391 0.98245 1.53800
Cr	Cr	0.03410 0.23214 0.12588 1.51500
Mn	Mn	0.64459 0.45444 0.00238 1.32500
Mn	Mn	0.01183 0.72324 0.85978 1.31500
C 	C 	0.92690 0.63010 0.93060 0.23600
C 	C 	0.96710 0.55000 0.89900 0.29300
C 	C 	0.06010 0.26130 0.24380 0.17200
C 	C 	0.98720 0.24410 0.23900 0.29400
C 	C 	0.07510 0.05680 0.08420 0.23500
C 	C 	0.11270 0.13180 0.05070 0.20800
C 	C 	0.76710 0.44140 0.95910 0.22200
C 	C 	0.77440 0.44840 0.02690 0.21100
C 	C 	0.98420 0.38780 0.06630 0.31500
C 	C 	0.95370 0.29780 0.03680 0.20000
C 	C 	0.59020 0.29510 0.95030 0.23600
C 	C 	0.56040 0.38090 0.92050 0.21000
O 	O 	0.95670 0.46570 0.91370 -0.40400
O 	O 	0.00450 0.57880 0.86130 -0.44400
O 	O 	0.89240 0.59860 0.96990 -0.39400
O 	O 	0.93630 0.71070 0.91670 -0.34700
O 	O 	0.08040 0.27680 0.29550 -0.35200
O 	O 	0.09020 0.25840 0.19880 -0.39200
O 	O 	0.95650 0.24830 0.28510 -0.35300
O 	O 	0.96580 0.23010 0.18990 -0.39100
O 	O 	0.10560 0.21620 0.06590 -0.40400
O 	O 	0.14670 0.10190 0.01000 -0.37600
O 	O 	0.04110 0.08600 0.12430 -0.41500
O 	O 	0.08020 0.97370 0.06870 -0.38000
O 	O 	0.72450 0.44860 0.05520 -0.36500
O 	O 	0.82790 0.45410 0.04740 -0.39400
O 	O 	0.71280 0.44570 0.93890 -0.37700
O 	O 	0.81750 0.43540 0.93080 -0.41500
O 	O 	0.96680 0.46630 0.04550 -0.39800
O 	O 	0.02200 0.37500 0.10590 -0.47400
O 	O 	0.91580 0.31210 0.99570 -0.39000
O 	O 	0.96900 0.22120 0.05700 -0.36700
O 	O 	0.57570 0.46070 0.93830 -0.35900
O 	O 	0.52000 0.36550 0.88020 -0.35300
O 	O 	0.62560 0.31100 0.99180 -0.36400
O 	O 	0.57580 0.21560 0.92990 -0.35900
In	In	0.18127 0.35638 0.80647 1.95800
C 	C 	0.25100 0.52750 0.86520 0.40500
C 	C 	0.25650 0.62550 0.86750 0.28500
H 	H 	0.22890 0.66330 0.84610 0.06200
C 	C 	0.30320 0.66680 0.90180 0.08500
H 	H 	0.30690 0.73240 0.90330 0.08500
C 	C 	0.34450 0.61030 0.93380 -0.56400
H 	H 	0.37580 0.63800 0.95680 0.24800
C 	C 	0.33900 0.51240 0.93150 0.03900
H 	H 	0.36650 0.47450 0.95300 0.02900
C 	C 	0.29220 0.47100 0.89720 -0.71100
C 	C 	0.29270 0.37260 0.89720 0.72400
H 	H 	0.32390 0.34280 0.91920 -0.20200
C 	C 	0.26080 0.22300 0.87650 -0.61200
H 	H 	0.28060 0.20940 0.91390 0.20700
H 	H 	0.28720 0.19800 0.84590 0.15900
C 	C 	0.19470 0.17490 0.87320 -0.03800
H 	H 	0.20130 0.10810 0.86570 0.01800
H 	H 	0.17650 0.17960 0.91170 0.02800
C 	C 	0.07960 0.20930 0.84720 0.08900
H 	H 	0.05530 0.20670 0.81110 -0.01500
H 	H 	0.06890 0.15440 0.87040 0.02800
C 	C 	0.06500 0.28860 0.87670 -0.21000
H 	H 	0.09040 0.29270 0.91210 0.06200
H 	H 	0.02120 0.28690 0.88770 0.07800
C 	C 	0.04170 0.39970 0.78930 -0.00400
H 	H 	0.03100 0.34010 0.77060 0.05600
H 	H 	0.00290 0.42670 0.80350 0.03000
C 	C 	0.06280 0.45580 0.74920 0.08900
H 	H 	0.07270 0.51780 0.76510 -0.01600
H 	H 	0.03300 0.46270 0.71720 0.00200
C 	C 	0.13490 0.39300 0.67490 0.16200
H 	H 	0.10450 0.41520 0.64890 -0.01800
C 	C 	0.18740 0.35280 0.65030 -0.31200
C 	C 	0.18730 0.35160 0.58960 0.17600
H 	H 	0.15330 0.37600 0.56870 0.14000
C 	C 	0.23820 0.31420 0.56000 -0.23000
H 	H 	0.23820 0.31340 0.51940 0.06300
C 	C 	0.28910 0.27780 0.59120 0.12800
H 	H 	0.32310 0.25270 0.57150 -0.08300
C 	C 	0.28910 0.27890 0.65200 -0.63700
H 	H 	0.32320 0.25460 0.67280 0.39300
C 	C 	0.23830 0.31640 0.68150 0.37300
O 	O 	0.20880 0.49360 0.82540 0.58900
O 	O 	0.24150 0.31150 0.73710 -0.24300
N 	N 	0.25420 0.31990 0.86960 -0.00800
N 	N 	0.14960 0.20660 0.83310 -0.15900
H 	H 	0.15340 0.16960 0.80080 0.01700
N 	N 	0.07780 0.38020 0.83560 -0.14200
H 	H 	0.07760 0.43210 0.85910 0.05200
N 	N 	0.12300 0.40350 0.72940 0.02000
C 	C 	0.23380 0.55370 0.84890 -0.76300
C 	C 	0.22940 0.65140 0.84340 0.01600
C 	C 	0.26640 0.70980 0.87840 -0.47700
C 	C 	0.30790 0.67040 0.91900 0.06000
C 	C 	0.31230 0.57270 0.92460 0.19300
C 	C 	0.27520 0.51430 0.88950 0.39200
C 	C 	0.27400 0.41580 0.91130 -0.18400
C 	C 	0.22100 0.26850 0.92420 0.09100
C 	C 	0.21520 0.17970 0.88700 0.06100
C 	C 	0.10830 0.19220 0.86650 -0.16200
C 	C 	0.08420 0.28030 0.89700 0.07400
C 	C 	0.04140 0.35410 0.80820 0.05500
C 	C 	0.05980 0.40390 0.75200 -0.31000
C 	C 	0.13840 0.35880 0.67860 -0.01000
C 	C 	0.20180 0.33040 0.65980 -0.06100
C 	C 	0.20690 0.32470 0.59940 0.32400
C 	C 	0.26250 0.29360 0.57480 -0.19700
C 	C 	0.31290 0.26820 0.61050 0.35300
C 	C 	0.30790 0.27390 0.67090 -0.02500
C 	C 	0.25230 0.30500 0.69560 0.06900
H 	H 	0.20170 0.67770 0.81620 0.08100
H 	H 	0.26350 0.77510 0.87470 0.21500
H 	H 	0.33270 0.70950 0.94240 0.01900
H 	H 	0.34000 0.54640 0.95170 0.12200
H 	H 	0.29660 0.40350 0.94560 0.07400
H 	H 	0.18010 0.28560 0.93930 -0.00900
H 	H 	0.24890 0.25680 0.95710 0.00600
H 	H 	0.25580 0.16280 0.87160 0.18200
H 	H 	0.20030 0.12750 0.91070 -0.00100
H 	H 	0.11000 0.14140 0.89500 0.08600
H 	H 	0.07770 0.17430 0.83680 0.01900
H 	H 	0.04050 0.27300 0.90740 0.01600
H 	H 	0.10870 0.29360 0.93210 -0.03700
H 	H 	0.00410 0.38390 0.82350 0.00800
H 	H 	0.03120 0.28870 0.79940 -0.01400
H 	H 	0.02750 0.39370 0.72240 0.11300
H 	H 	0.06300 0.47140 0.75910 0.06100
H 	H 	0.10890 0.37100 0.64930 0.00900
H 	H 	0.17320 0.34170 0.57550 -0.27200
H 	H 	0.26590 0.28970 0.53430 0.14700
H 	H 	0.35010 0.24740 0.59400 -0.05500
H 	H 	0.34160 0.25690 0.69480 -0.14400
H 	H 	0.17440 0.15590 0.80870 0.05500
H 	H 	0.08870 0.41280 0.87250 0.04000
N 	N 	0.24600 0.34680 0.88830 -0.43100
N 	N 	0.17040 0.19800 0.83850 -0.11100
N 	N 	0.09170 0.35660 0.85330 -0.18600
N 	N 	0.12050 0.36790 0.73060 -0.30600
O 	O 	0.19530 0.51010 0.80790 -0.83500
O 	O 	0.24750 0.30870 0.75200 -0.27700
In	In	0.68127 0.85638 0.80647 1.95800
C 	C 	0.75100 0.02750 0.86520 0.40400
C 	C 	0.75650 0.12550 0.86750 0.30200
H 	H 	0.72890 0.16330 0.84610 0.06300
C 	C 	0.80320 0.16680 0.90180 0.08700
H 	H 	0.80690 0.23240 0.90330 0.09000
C 	C 	0.84450 0.11030 0.93380 -0.58800
H 	H 	0.87580 0.13800 0.95680 0.26400
C 	C 	0.83900 0.01240 0.93150 0.02100
H 	H 	0.86650 0.97450 0.95300 0.04200
C 	C 	0.79220 0.97100 0.89720 -0.71600
C 	C 	0.79270 0.87260 0.89720 0.72600
H 	H 	0.82390 0.84280 0.91920 -0.19900
C 	C 	0.76080 0.72300 0.87650 -0.62300
H 	H 	0.78060 0.70940 0.91390 0.21100
H 	H 	0.78720 0.69800 0.84590 0.16400
C 	C 	0.69470 0.67490 0.87320 -0.03600
H 	H 	0.70130 0.60810 0.86570 0.01800
H 	H 	0.67650 0.67960 0.91170 0.02700
C 	C 	0.57960 0.70930 0.84720 0.08600
H 	H 	0.55530 0.70670 0.81110 -0.00900
H 	H 	0.56890 0.65440 0.87040 0.03400
C 	C 	0.56500 0.78860 0.87670 -0.21700
H 	H 	0.59040 0.79270 0.91210 0.06700
H 	H 	0.52120 0.78690 0.88770 0.09100
C 	C 	0.54170 0.89970 0.78930 -0.01100
H 	H 	0.53100 0.84010 0.77060 0.06200
H 	H 	0.50290 0.92670 0.80350 0.03900
C 	C 	0.56280 0.95580 0.74920 0.08900
H 	H 	0.57270 0.01780 0.76510 -0.00800
H 	H 	0.53300 0.96270 0.71720 0.01000
C 	C 	0.63490 0.89300 0.67490 0.16500
H 	H 	0.60450 0.91520 0.64890 -0.01500
C 	C 	0.68740 0.85280 0.65030 -0.31200
C 	C 	0.68730 0.85160 0.58960 0.17600
H 	H 	0.65330 0.87600 0.56870 0.14600
C 	C 	0.73820 0.81420 0.56000 -0.22800
H 	H 	0.73820 0.81340 0.51940 0.06300
C 	C 	0.78910 0.77780 0.59120 0.12700
H 	H 	0.82310 0.75270 0.57150 -0.08300
C 	C 	0.78910 0.77890 0.65200 -0.63000
H 	H 	0.82320 0.75460 0.67280 0.38900
C 	C 	0.73830 0.81640 0.68150 0.37300
O 	O 	0.70880 0.99360 0.82540 0.63600
O 	O 	0.74150 0.81150 0.73710 -0.24200
N 	N 	0.75420 0.81990 0.86960 -0.00100
N 	N 	0.64960 0.70660 0.83310 -0.16000
H 	H 	0.65340 0.66960 0.80080 0.02000
N 	N 	0.57780 0.88020 0.83560 -0.14200
H 	H 	0.57760 0.93210 0.85910 0.06200
N 	N 	0.62300 0.90350 0.72940 0.01900
C 	C 	0.73380 0.05370 0.84890 -0.78000
C 	C 	0.72940 0.15140 0.84340 0.01300
C 	C 	0.76640 0.20980 0.87840 -0.48900
C 	C 	0.80790 0.17040 0.91900 0.06200
C 	C 	0.81230 0.07270 0.92460 0.21500
C 	C 	0.77520 0.01430 0.88950 0.39800
C 	C 	0.77400 0.91580 0.91130 -0.18000
C 	C 	0.72100 0.76850 0.92420 0.09500
C 	C 	0.71520 0.67970 0.88700 0.06200
C 	C 	0.60830 0.69220 0.86650 -0.15900
C 	C 	0.58420 0.78030 0.89700 0.07400
C 	C 	0.54140 0.85410 0.80820 0.04500
C 	C 	0.55980 0.90390 0.75200 -0.30100
C 	C 	0.63840 0.85880 0.67860 -0.01100
C 	C 	0.70180 0.83040 0.65980 -0.06000
C 	C 	0.70690 0.82470 0.59940 0.32800
C 	C 	0.76250 0.79360 0.57480 -0.19700
C 	C 	0.81290 0.76820 0.61050 0.35300
C 	C 	0.80790 0.77390 0.67090 -0.02600
C 	C 	0.75230 0.80500 0.69560 0.06800
H 	H 	0.70170 0.17770 0.81620 0.08600
H 	H 	0.76350 0.27510 0.87470 0.22200
H 	H 	0.83270 0.20950 0.94240 0.02100
H 	H 	0.84000 0.04640 0.95170 0.13300
H 	H 	0.79660 0.90350 0.94560 0.07500
H 	H 	0.68010 0.78560 0.93930 -0.00900
H 	H 	0.74890 0.75680 0.95710 0.00600
H 	H 	0.75580 0.66280 0.87160 0.18500
H 	H 	0.70030 0.62750 0.91070 -0.00100
H 	H 	0.61000 0.64140 0.89500 0.08600
H 	H 	0.57770 0.67430 0.83680 0.02000
H 	H 	0.54050 0.77300 0.90740 0.02100
H 	H 	0.60870 0.79360 0.93210 -0.03600
H 	H 	0.50410 0.88390 0.82350 0.02000
H 	H 	0.53120 0.78870 0.79940 -0.00700
H 	H 	0.52750 0.89370 0.72240 0.11700
H 	H 	0.56300 0.97140 0.75910 0.05500
H 	H 	0.60890 0.87100 0.64930 0.01200
H 	H 	0.67320 0.84170 0.57550 -0.27500
H 	H 	0.76590 0.78970 0.53430 0.14700
H 	H 	0.85010 0.74740 0.59400 -0.05200
H 	H 	0.84160 0.75690 0.69480 -0.13800
H 	H 	0.67440 0.65590 0.80870 0.05400
H 	H 	0.58870 0.91280 0.87250 0.03400
N 	N 	0.74600 0.84680 0.88830 -0.43800
N 	N 	0.67040 0.69800 0.83850 -0.11200
N 	N 	0.59170 0.85660 0.85330 -0.18100
N 	N 	0.62050 0.86790 0.73060 -0.30400
O 	O 	0.69530 0.01010 0.80790 -0.87400
O 	O 	0.74750 0.80870 0.75200 -0.27600
In	In	0.18127 0.64362 0.30647 1.95800
C 	C 	0.25100 0.47250 0.36520 0.40000
C 	C 	0.25650 0.37450 0.36750 0.28300
H 	H 	0.22890 0.33670 0.34610 0.06100
C 	C 	0.30320 0.33320 0.40180 0.08300
H 	H 	0.30690 0.26760 0.40330 0.08500
C 	C 	0.34450 0.38970 0.43380 -0.56500
H 	H 	0.37580 0.36200 0.45680 0.24500
C 	C 	0.33900 0.48760 0.43150 0.03500
H 	H 	0.36650 0.52550 0.45300 0.02800
C 	C 	0.29220 0.52900 0.39720 -0.70600
C 	C 	0.29270 0.62740 0.39720 0.71500
H 	H 	0.32390 0.65720 0.41920 -0.19900
C 	C 	0.26080 0.77700 0.37650 -0.61700
H 	H 	0.28060 0.79060 0.41390 0.20700
H 	H 	0.28720 0.80200 0.34590 0.16000
C 	C 	0.19470 0.82510 0.37320 -0.03600
H 	H 	0.20130 0.89190 0.36570 0.01700
H 	H 	0.17650 0.82040 0.41170 0.02600
C 	C 	0.07960 0.79070 0.34720 0.08900
H 	H 	0.05530 0.79330 0.31110 -0.01500
H 	H 	0.06890 0.84560 0.37040 0.02700
C 	C 	0.06500 0.71140 0.37670 -0.21200
H 	H 	0.09040 0.70730 0.41210 0.06400
H 	H 	0.02120 0.71310 0.38770 0.07800
C 	C 	0.04170 0.60030 0.28930 -0.00400
H 	H 	0.03100 0.65990 0.27060 0.05500
H 	H 	0.00290 0.57330 0.30350 0.03000
C 	C 	0.06280 0.54420 0.24920 0.08900
H 	H 	0.07270 0.48220 0.26510 -0.01600
H 	H 	0.03300 0.53730 0.21720 0.00200
C 	C 	0.13490 0.60700 0.17490 0.16100
H 	H 	0.10450 0.58480 0.14890 -0.01900
C 	C 	0.18740 0.64720 0.15030 -0.31100
C 	C 	0.18730 0.64840 0.08960 0.17500
H 	H 	0.15330 0.62400 0.06870 0.13500
C 	C 	0.23820 0.68580 0.06000 -0.23200
H 	H 	0.23820 0.68660 0.01940 0.05900
C 	C 	0.28910 0.72220 0.09120 0.12900
H 	H 	0.32310 0.74730 0.07150 -0.08600
C 	C 	0.28910 0.72110 0.15200 -0.63500
H 	H 	0.32320 0.74540 0.17280 0.39200
C 	C 	0.23830 0.68360 0.18150 0.37200
O 	O 	0.20880 0.50640 0.32540 0.59100
O 	O 	0.24150 0.68850 0.23710 -0.24300
N 	N 	0.25420 0.68010 0.36960 -0.00400
N 	N 	0.14960 0.79340 0.33310 -0.16000
H 	H 	0.15340 0.83040 0.30080 0.01800
N 	N 	0.07780 0.61980 0.33560 -0.14000
H 	H 	0.07760 0.56790 0.35910 0.05000
N 	N 	0.12300 0.59650 0.22940 0.02100
C 	C 	0.23380 0.44630 0.34890 -0.75700
C 	C 	0.22940 0.34860 0.34340 0.01700
C 	C 	0.26640 0.29020 0.37840 -0.47600
C 	C 	0.30790 0.32960 0.41900 0.06000
C 	C 	0.31230 0.42730 0.42460 0.19500
C 	C 	0.27520 0.48570 0.38950 0.38600
C 	C 	0.27400 0.58420 0.41130 -0.17700
C 	C 	0.22100 0.73150 0.42420 0.09500
C 	C 	0.21520 0.82030 0.38700 0.06300
C 	C 	0.10830 0.80780 0.36650 -0.16000
C 	C 	0.08420 0.71970 0.39700 0.07600
C 	C 	0.04140 0.64590 0.30820 0.05300
C 	C 	0.05980 0.59610 0.25200 -0.30900
C 	C 	0.13840 0.64120 0.17860 -0.01000
C 	C 	0.20180 0.66960 0.15980 -0.06100
C 	C 	0.20690 0.67530 0.09940 0.32000
C 	C 	0.26250 0.70640 0.07480 -0.19400
C 	C 	0.31290 0.73180 0.11050 0.34800
C 	C 	0.30790 0.72610 0.17090 -0.02500
C 	C 	0.25230 0.69500 0.19560 0.06900
H 	H 	0.20170 0.32230 0.31620 0.08100
H 	H 	0.26350 0.22490 0.37470 0.21400
H 	H 	0.33270 0.29050 0.44240 0.01700
H 	H 	0.34000 0.45360 0.45170 0.12100
H 	H 	0.29660 0.59650 0.44560 0.07100
H 	H 	0.18010 0.71440 0.43930 -0.01200
H 	H 	0.24890 0.74320 0.45710 0.00100
H 	H 	0.25580 0.83720 0.37160 0.18300
H 	H 	0.20030 0.87250 0.41070 -0.00300
H 	H 	0.11000 0.85860 0.39500 0.08300
H 	H 	0.07770 0.82570 0.33680 0.01900
H 	H 	0.04050 0.72700 0.40740 0.01300
H 	H 	0.10870 0.70640 0.43210 -0.04200
H 	H 	0.00410 0.61610 0.32350 0.00800
H 	H 	0.03120 0.71130 0.29940 -0.01500
H 	H 	0.02750 0.60630 0.22240 0.11200
H 	H 	0.06300 0.52860 0.25910 0.06100
H 	H 	0.10890 0.62900 0.14930 0.00900
H 	H 	0.17320 0.65830 0.07550 -0.26900
H 	H 	0.26590 0.71030 0.03430 0.14400
H 	H 	0.35010 0.75260 0.09400 -0.05400
H 	H 	0.34160 0.74310 0.19480 -0.14400
H 	H 	0.17440 0.84410 0.30870 0.05400
H 	H 	0.08870 0.58720 0.37250 0.04100
N 	N 	0.24600 0.65320 0.38830 -0.43300
N 	N 	0.17040 0.80200 0.33850 -0.11100
N 	N 	0.09170 0.64340 0.35330 -0.18800
N 	N 	0.12050 0.63210 0.23060 -0.30700
O 	O 	0.19530 0.48990 0.30790 -0.84000
O 	O 	0.24750 0.69130 0.25200 -0.27700
In	In	0.68127 0.14362 0.30647 1.95900
C 	C 	0.75100 0.97250 0.36520 0.39100
C 	C 	0.75650 0.87450 0.36750 0.29000
H 	H 	0.72890 0.83670 0.34610 0.05600
C 	C 	0.80320 0.83320 0.40180 0.07500
H 	H 	0.80690 0.76760 0.40330 0.09000
C 	C 	0.84450 0.88970 0.43380 -0.53400
H 	H 	0.87580 0.86200 0.45680 0.24200
C 	C 	0.83900 0.98760 0.43150 0.03700
H 	H 	0.86650 0.02550 0.45300 0.03700
C 	C 	0.79220 0.02900 0.39720 -0.68600
C 	C 	0.79270 0.12740 0.39720 0.68700
H 	H 	0.82390 0.15720 0.41920 -0.18600
C 	C 	0.76080 0.27700 0.37650 -0.62200
H 	H 	0.78060 0.29060 0.41390 0.21000
H 	H 	0.78720 0.30200 0.34590 0.16400
C 	C 	0.69470 0.32510 0.37320 -0.03500
H 	H 	0.70130 0.39190 0.36570 0.01800
H 	H 	0.67650 0.32040 0.41170 0.02600
C 	C 	0.57960 0.29070 0.34720 0.08600
H 	H 	0.55530 0.29330 0.31110 -0.00900
H 	H 	0.56890 0.34560 0.37040 0.03300
C 	C 	0.56500 0.21140 0.37670 -0.21800
H 	H 	0.59040 0.20730 0.41210 0.06900
H 	H 	0.52120 0.21310 0.38770 0.09200
C 	C 	0.54170 0.10030 0.28930 -0.01300
H 	H 	0.53100 0.15990 0.27060 0.06200
H 	H 	0.50290 0.07330 0.30350 0.04000
C 	C 	0.56280 0.04420 0.24920 0.09000
H 	H 	0.57270 0.98220 0.26510 -0.01300
H 	H 	0.53300 0.03730 0.21720 0.00900
C 	C 	0.63490 0.10700 0.17490 0.16300
H 	H 	0.60450 0.08480 0.14890 -0.01500
C 	C 	0.68740 0.14720 0.15030 -0.31100
C 	C 	0.68730 0.14840 0.08960 0.17400
H 	H 	0.65330 0.12400 0.06870 0.14100
C 	C 	0.73820 0.18580 0.06000 -0.22900
H 	H 	0.73820 0.18660 0.01940 0.05900
C 	C 	0.78910 0.22220 0.09120 0.12700
H 	H 	0.82310 0.24730 0.07150 -0.08500
C 	C 	0.78910 0.22110 0.15200 -0.62600
H 	H 	0.82320 0.24540 0.17280 0.38600
C 	C 	0.73830 0.18360 0.18150 0.37200
O 	O 	0.70880 0.00640 0.32540 0.58300
O 	O 	0.74150 0.18850 0.23710 -0.24200
N 	N 	0.75420 0.18010 0.36960 0.00100
N 	N 	0.64960 0.29340 0.33310 -0.16000
H 	H 	0.65340 0.33040 0.30080 0.02000
N 	N 	0.57780 0.11980 0.33560 -0.13900
H 	H 	0.57760 0.06790 0.35910 0.05700
N 	N 	0.62300 0.09650 0.22940 0.01800
C 	C 	0.73380 0.94630 0.34890 -0.74300
C 	C 	0.72940 0.84860 0.34340 0.01800
C 	C 	0.76640 0.79020 0.37840 -0.47100
C 	C 	0.80790 0.82960 0.41900 0.06200
C 	C 	0.81230 0.92730 0.42460 0.17900
C 	C 	0.77520 0.98570 0.38950 0.37500
C 	C 	0.77400 0.08420 0.41130 -0.16200
C 	C 	0.72100 0.23150 0.42420 0.09400
C 	C 	0.71520 0.32030 0.38700 0.06200
C 	C 	0.60830 0.30780 0.36650 -0.15800
C 	C 	0.58420 0.21970 0.39700 0.07500
C 	C 	0.54140 0.14590 0.30820 0.04800
C 	C 	0.55980 0.09610 0.25200 -0.30600
C 	C 	0.63840 0.14120 0.17860 -0.01100
C 	C 	0.70180 0.16960 0.15980 -0.05900
C 	C 	0.70690 0.17530 0.09940 0.32300
C 	C 	0.76250 0.20640 0.07480 -0.19400
C 	C 	0.81290 0.23180 0.11050 0.34800
C 	C 	0.80790 0.22610 0.17090 -0.02500
C 	C 	0.75230 0.19500 0.19560 0.06700
H 	H 	0.70170 0.82230 0.31620 0.08300
H 	H 	0.76350 0.72490 0.37470 0.21400
H 	H 	0.83270 0.79050 0.44240 0.01700
H 	H 	0.84000 0.95360 0.45170 0.11800
H 	H 	0.79660 0.09650 0.44560 0.06900
H 	H 	0.68010 0.21440 0.43930 -0.01100
H 	H 	0.74890 0.24320 0.45710 0.00300
H 	H 	0.75580 0.33720 0.37160 0.18500
H 	H 	0.70030 0.37250 0.41070 -0.00300
H 	H 	0.61000 0.35860 0.39500 0.08400
H 	H 	0.57770 0.32570 0.33680 0.01900
H 	H 	0.54050 0.22700 0.40740 0.01800
H 	H 	0.60870 0.20640 0.43210 -0.04000
H 	H 	0.50410 0.11610 0.32350 0.01900
H 	H 	0.53120 0.21130 0.29940 -0.00800
H 	H 	0.52750 0.10630 0.22240 0.11800
H 	H 	0.56300 0.02860 0.25910 0.06000
H 	H 	0.60890 0.12900 0.14930 0.01100
H 	H 	0.67320 0.15830 0.07550 -0.27100
H 	H 	0.76590 0.21030 0.03430 0.14400
H 	H 	0.85010 0.25260 0.09400 -0.05100
H 	H 	0.84160 0.24310 0.19480 -0.13700
H 	H 	0.67440 0.34410 0.30870 0.05400
H 	H 	0.58870 0.08720 0.37250 0.03900
N 	N 	0.74600 0.15320 0.38830 -0.43100
N 	N 	0.67040 0.30200 0.33850 -0.11100
N 	N 	0.59170 0.14340 0.35330 -0.18500
N 	N 	0.62050 0.13210 0.23060 -0.30300
O 	O 	0.69530 0.98990 0.30790 -0.83300
O 	O 	0.74750 0.19130 0.25200 -0.27500
