data_crystal

_cell_length_a 16.27400
_cell_length_b 20.46500
_cell_length_c 21.24300
_cell_angle_alpha 90.00000
_cell_angle_beta  90.00000
_cell_angle_gamma 90.00000

_symmetry_space_group_name_	'P 1'
_symmetry_space_group_name_H-M	'P 1'

loop_
_symmetry_equiv_pos_as_xyz
  x,y,z

loop_
_atom_site_label
_atom_site_type_symbol
_atom_site_fract_x
_atom_site_fract_y
_atom_site_fract_z
_atom_site_charge
Mn	Mn	0.25815 0.00889 0.62949 1.31000
Mn	Mn	0.01662 0.62523 0.49462 1.28200
Mn	Mn	0.75815 0.99111 0.37051 1.31200
Mn	Mn	0.51662 0.37477 0.50538 1.31000
Mn	Mn	0.25815 0.50889 0.87051 1.31000
Mn	Mn	0.01662 0.12523 0.00538 1.28000
Mn	Mn	0.75815 0.49111 0.12949 1.31300
Mn	Mn	0.51662 0.87477 0.99462 1.31300
Cr	Cr	0.01209 0.88797 0.50169 1.53900
Cr	Cr	0.26172 0.99989 0.88328 1.56600
Cr	Cr	0.51209 0.11203 0.49831 1.56700
Cr	Cr	0.76172 0.00011 0.11672 1.56800
Cr	Cr	0.01209 0.38797 0.99831 1.54300
Cr	Cr	0.26172 0.49989 0.61672 1.56800
Cr	Cr	0.51209 0.61203 0.00169 1.56500
Cr	Cr	0.76172 0.50011 0.38328 1.56900
C 	C 	0.01440 0.75980 0.53530 0.22400
C 	C 	0.01660 0.76130 0.46210 0.21900
C 	C 	0.16330 0.93200 0.54210 0.22600
C 	C 	0.09860 0.96730 0.58340 0.22800
C 	C 	0.35890 0.08150 0.54240 0.22000
C 	C 	0.42000 0.04270 0.58340 0.23000
C 	C 	0.35410 0.91710 0.95570 0.22600
C 	C 	0.41640 0.96030 0.91870 0.22300
C 	C 	0.25310 0.04230 0.76100 0.23400
C 	C 	0.26490 0.96550 0.75900 0.24200
C 	C 	0.11080 0.03760 0.92760 0.23400
C 	C 	0.17560 0.08030 0.96070 0.21900
C 	C 	0.51440 0.24020 0.46470 0.23600
C 	C 	0.51660 0.23870 0.53790 0.21900
C 	C 	0.66330 0.06800 0.45790 0.23100
C 	C 	0.59860 0.03270 0.41660 0.23200
C 	C 	0.85890 0.91850 0.45760 0.22500
C 	C 	0.92000 0.95730 0.41660 0.23500
C 	C 	0.85410 0.08290 0.04430 0.23000
C 	C 	0.91640 0.03970 0.08130 0.22800
C 	C 	0.75310 0.95770 0.23900 0.23600
C 	C 	0.76490 0.03450 0.24100 0.24500
C 	C 	0.61080 0.96240 0.07240 0.23200
C 	C 	0.67560 0.91970 0.03930 0.22600
C 	C 	0.01440 0.25980 0.96470 0.23300
C 	C 	0.01660 0.26130 0.03790 0.21100
C 	C 	0.16330 0.43200 0.95790 0.23500
C 	C 	0.09860 0.46730 0.91660 0.22900
C 	C 	0.35890 0.58150 0.95760 0.22700
C 	C 	0.42000 0.54270 0.91660 0.22800
C 	C 	0.35410 0.41710 0.54430 0.22400
C 	C 	0.41640 0.46030 0.58130 0.22700
C 	C 	0.25310 0.54230 0.73900 0.23100
C 	C 	0.26490 0.46550 0.74100 0.24400
C 	C 	0.11080 0.53760 0.57240 0.22800
C 	C 	0.17560 0.58030 0.53930 0.22000
C 	C 	0.51440 0.74020 0.03530 0.23200
C 	C 	0.51660 0.73870 0.96210 0.22500
C 	C 	0.66330 0.56800 0.04210 0.22300
C 	C 	0.59860 0.53270 0.08340 0.23400
C 	C 	0.85890 0.41850 0.04240 0.21500
C 	C 	0.92000 0.45730 0.08340 0.23700
C 	C 	0.85410 0.58290 0.45570 0.22900
C 	C 	0.91640 0.53970 0.41870 0.23300
C 	C 	0.75310 0.45770 0.26100 0.23400
C 	C 	0.76490 0.53450 0.25900 0.24700
C 	C 	0.61080 0.46240 0.42760 0.22800
C 	C 	0.67560 0.41970 0.46070 0.22600
O 	O 	0.01580 0.81470 0.56150 -0.40700
O 	O 	0.01300 0.81870 0.43810 -0.42300
O 	O 	0.01120 0.70570 0.56190 -0.34900
O 	O 	0.01870 0.70860 0.43300 -0.37000
O 	O 	0.13270 0.89570 0.49840 -0.39200
O 	O 	0.02320 0.95330 0.56980 -0.41600
O 	O 	0.23570 0.93950 0.55390 -0.34000
O 	O 	0.12380 0.00480 0.62320 -0.34600
O 	O 	0.39090 0.11260 0.49570 -0.37900
O 	O 	0.49550 0.04730 0.56690 -0.36800
O 	O 	0.28540 0.07970 0.55650 -0.33800
O 	O 	0.39250 0.01260 0.62820 -0.32600
O 	O 	0.38190 0.87450 0.99110 -0.32900
O 	O 	0.48960 0.94940 0.92330 -0.32400
O 	O 	0.38240 0.00470 0.88420 -0.37000
O 	O 	0.27850 0.92920 0.94500 -0.38700
O 	O 	0.24930 0.07260 0.71160 -0.33600
O 	O 	0.26780 0.93960 0.70740 -0.33800
O 	O 	0.25130 0.06590 0.81650 -0.38400
O 	O 	0.26480 0.93800 0.81200 -0.39000
O 	O 	0.14120 0.99350 0.89170 -0.39500
O 	O 	0.24950 0.06870 0.94750 -0.37900
O 	O 	0.03760 0.04760 0.93680 -0.36400
O 	O 	0.14940 0.12350 0.99720 -0.33500
O 	O 	0.51580 0.18530 0.43850 -0.38700
O 	O 	0.51300 0.18130 0.56190 -0.37400
O 	O 	0.51120 0.29430 0.43810 -0.32700
O 	O 	0.51870 0.29140 0.56700 -0.32400
O 	O 	0.63270 0.10430 0.50160 -0.36900
O 	O 	0.52320 0.04670 0.43020 -0.37900
O 	O 	0.73570 0.06050 0.44610 -0.32400
O 	O 	0.62380 0.99520 0.37680 -0.33300
O 	O 	0.89090 0.88740 0.50430 -0.31800
O 	O 	0.99550 0.95270 0.43310 -0.30800
O 	O 	0.78540 0.92030 0.44350 -0.31900
O 	O 	0.89250 0.98740 0.37180 -0.31000
O 	O 	0.88190 0.12550 0.00890 -0.28000
O 	O 	0.98960 0.05060 0.07670 -0.27500
O 	O 	0.88240 0.99530 0.11580 -0.35700
O 	O 	0.77850 0.07080 0.05500 -0.37200
O 	O 	0.74930 0.92740 0.28840 -0.32400
O 	O 	0.76780 0.06040 0.29260 -0.32800
O 	O 	0.75130 0.93410 0.18350 -0.37600
O 	O 	0.76480 0.06200 0.18800 -0.38000
O 	O 	0.64120 0.00650 0.10830 -0.37900
O 	O 	0.74950 0.93130 0.05250 -0.36800
O 	O 	0.53760 0.95240 0.06320 -0.33500
O 	O 	0.64940 0.87650 0.00280 -0.32200
O 	O 	0.01580 0.31470 0.93850 -0.40700
O 	O 	0.01300 0.31870 0.06190 -0.42300
O 	O 	0.01120 0.20570 0.93810 -0.34600
O 	O 	0.01870 0.20860 0.06700 -0.36900
O 	O 	0.13270 0.39570 0.00160 -0.40100
O 	O 	0.02320 0.45330 0.93020 -0.41400
O 	O 	0.23570 0.43950 0.94610 -0.33900
O 	O 	0.12380 0.50480 0.87680 -0.34900
O 	O 	0.39090 0.61260 0.00430 -0.38600
O 	O 	0.49550 0.54730 0.93310 -0.36500
O 	O 	0.28540 0.57970 0.94350 -0.33900
O 	O 	0.39250 0.51260 0.87180 -0.32600
O 	O 	0.38190 0.37450 0.50890 -0.33100
O 	O 	0.48960 0.44940 0.57670 -0.32600
O 	O 	0.38240 0.50470 0.61580 -0.37600
O 	O 	0.27850 0.42920 0.55500 -0.38700
O 	O 	0.24930 0.57260 0.78840 -0.33600
O 	O 	0.26780 0.43960 0.79260 -0.33800
O 	O 	0.25130 0.56590 0.68350 -0.38500
O 	O 	0.26480 0.43800 0.68800 -0.39000
O 	O 	0.14120 0.49350 0.60830 -0.39100
O 	O 	0.24950 0.56870 0.55250 -0.38300
O 	O 	0.03760 0.54760 0.56320 -0.36900
O 	O 	0.14940 0.62350 0.50280 -0.34100
O 	O 	0.51580 0.68530 0.06150 -0.38700
O 	O 	0.51300 0.68130 0.93810 -0.37300
O 	O 	0.51120 0.79430 0.06190 -0.32700
O 	O 	0.51870 0.79140 0.93300 -0.32500
O 	O 	0.63270 0.60430 0.99840 -0.36100
O 	O 	0.52320 0.54670 0.06980 -0.38200
O 	O 	0.73570 0.56050 0.05390 -0.32300
O 	O 	0.62380 0.49520 0.12320 -0.33500
O 	O 	0.89090 0.38740 0.99570 -0.31000
O 	O 	0.99550 0.45270 0.06690 -0.31200
O 	O 	0.78540 0.42030 0.05650 -0.31900
O 	O 	0.89250 0.48740 0.12820 -0.31200
O 	O 	0.88190 0.62550 0.49110 -0.27500
O 	O 	0.98960 0.55060 0.42330 -0.27200
O 	O 	0.88240 0.49530 0.38420 -0.36000
O 	O 	0.77850 0.57080 0.44500 -0.36900
O 	O 	0.74930 0.42740 0.21160 -0.32400
O 	O 	0.76780 0.56040 0.20740 -0.32700
O 	O 	0.75130 0.43410 0.31650 -0.37600
O 	O 	0.76480 0.56200 0.31200 -0.37900
O 	O 	0.64120 0.50650 0.39170 -0.37600
O 	O 	0.74950 0.43130 0.44750 -0.36800
O 	O 	0.53760 0.45240 0.43680 -0.33300
O 	O 	0.64940 0.37650 0.49720 -0.32000
