data_crystal

_cell_length_a 21.91800
_cell_length_b 14.03300
_cell_length_c 22.46700
_cell_angle_alpha 90.00000
_cell_angle_beta  92.63900
_cell_angle_gamma 90.00000

_symmetry_space_group_name_	'P 1'
_symmetry_space_group_name_H-M	'P 1'

loop_
_symmetry_equiv_pos_as_xyz
  x,y,z

loop_
_atom_site_label
_atom_site_type_symbol
_atom_site_fract_x
_atom_site_fract_y
_atom_site_fract_z
_atom_site_charge
Cr	Cr	0.76410 0.96190 0.65939 1.54200
Cr	Cr	0.51994 0.96637 0.67579 1.53500
Cr	Cr	0.88276 0.22569 0.53793 1.53000
Cr	Cr	0.91044 0.74084 0.80089 1.54100
O 	O 	0.68670 0.94340 0.60640 -0.37200
O 	O 	0.69930 0.96290 0.72330 -0.36900
O 	O 	0.58420 0.95930 0.61190 -0.37600
O 	O 	0.59850 0.96280 0.73110 -0.36500
O 	O 	0.76260 0.10690 0.64630 -0.35500
O 	O 	0.82450 0.96960 0.59230 -0.37300
O 	O 	0.80800 0.21730 0.59350 -0.34100
O 	O 	0.87320 0.07980 0.54120 -0.36400
O 	O 	0.83400 0.97600 0.72380 -0.35200
O 	O 	0.78320 0.82290 0.67490 -0.37700
O 	O 	0.89510 0.88320 0.78490 -0.36300
O 	O 	0.84510 0.72970 0.73230 -0.35800
O 	O 	0.44960 0.96960 0.61060 -0.36400
O 	O 	0.50190 0.82080 0.67030 -0.35600
O 	O 	0.39280 0.87080 0.55590 -0.36700
O 	O 	0.44680 0.72150 0.61030 -0.36200
O 	O 	0.51990 0.11600 0.68330 -0.35500
O 	O 	0.46020 0.98280 0.74270 -0.37200
O 	O 	0.47780 0.22840 0.73990 -0.33600
O 	O 	0.41950 0.09530 0.79910 -0.33700
O 	O 	0.83080 0.25160 0.45840 -0.37300
O 	O 	0.95060 0.22360 0.47490 -0.35600
O 	O 	0.84200 0.26470 0.36130 -0.39200
O 	O 	0.96270 0.23890 0.37750 -0.37700
C 	C 	0.63730 0.95400 0.63370 0.22100
C 	C 	0.64680 0.95880 0.70210 0.23100
C 	C 	0.79860 0.13020 0.60690 0.19000
C 	C 	0.83420 0.05210 0.57950 0.22500
C 	C 	0.85460 0.89590 0.74500 0.21700
C 	C 	0.82380 0.81030 0.71460 0.22900
C 	C 	0.43230 0.88760 0.59600 0.22800
C 	C 	0.46250 0.80140 0.62770 0.21500
C 	C 	0.48640 0.14430 0.72370 0.22300
C 	C 	0.45280 0.06770 0.75920 0.23600
C 	C 	0.86030 0.25280 0.41090 0.26400
C 	C 	0.93140 0.23730 0.42090 0.22100
Mn	Mn	0.41044 0.24084 0.80089 1.34100
Cr	Cr	0.26410 0.46190 0.65939 1.54200
Cr	Cr	0.01994 0.46637 0.67579 1.52800
Cr	Cr	0.38276 0.72569 0.53793 1.53000
O 	O 	0.18670 0.44340 0.60640 -0.37500
O 	O 	0.19930 0.46290 0.72330 -0.37100
O 	O 	0.08420 0.45930 0.61190 -0.38300
O 	O 	0.09850 0.46280 0.73110 -0.37100
O 	O 	0.26260 0.60690 0.64630 -0.35800
O 	O 	0.32450 0.46960 0.59230 -0.37400
O 	O 	0.30800 0.71730 0.59350 -0.34400
O 	O 	0.37320 0.57980 0.54120 -0.36600
O 	O 	0.33400 0.47600 0.72380 -0.35400
O 	O 	0.28320 0.32290 0.67490 -0.37900
O 	O 	0.39510 0.38320 0.78490 -0.33500
O 	O 	0.34510 0.22970 0.73230 -0.33000
O 	O 	0.94960 0.46960 0.61060 -0.35100
O 	O 	0.00190 0.32080 0.67030 -0.38500
O 	O 	0.89280 0.37080 0.55590 -0.36200
O 	O 	0.94680 0.22150 0.61030 -0.36500
O 	O 	0.01990 0.61600 0.68330 -0.38600
O 	O 	0.96020 0.48280 0.74270 -0.35700
O 	O 	0.97780 0.72840 0.73990 -0.37000
O 	O 	0.91950 0.59530 0.79910 -0.36200
O 	O 	0.33080 0.75160 0.45840 -0.37400
O 	O 	0.45060 0.72360 0.47490 -0.36000
O 	O 	0.34200 0.76470 0.36130 -0.36300
O 	O 	0.46270 0.73890 0.37750 -0.35100
C 	C 	0.13730 0.45400 0.63370 0.22200
C 	C 	0.14680 0.45880 0.70210 0.23100
C 	C 	0.29860 0.63020 0.60690 0.19000
C 	C 	0.33420 0.55210 0.57950 0.22200
C 	C 	0.35460 0.39590 0.74500 0.21600
C 	C 	0.32380 0.31030 0.71460 0.22900
C 	C 	0.93230 0.38760 0.59600 0.22000
C 	C 	0.96250 0.30140 0.62770 0.24700
C 	C 	0.98640 0.64430 0.72370 0.25700
C 	C 	0.95280 0.56770 0.75920 0.22600
C 	C 	0.36030 0.75280 0.41090 0.26200
C 	C 	0.43140 0.73730 0.42090 0.22200
Cr	Cr	0.76410 0.03810 0.15939 1.54200
Cr	Cr	0.51994 0.03363 0.17579 1.53400
Cr	Cr	0.88276 0.77431 0.03793 1.51700
Cr	Cr	0.91044 0.25916 0.30089 1.54100
O 	O 	0.68670 0.05660 0.10640 -0.38000
O 	O 	0.69930 0.03710 0.22330 -0.37300
O 	O 	0.58420 0.04070 0.11190 -0.38400
O 	O 	0.59850 0.03720 0.23110 -0.36900
O 	O 	0.76260 0.89310 0.14630 -0.36000
O 	O 	0.82450 0.03040 0.09230 -0.38000
O 	O 	0.80800 0.78270 0.09350 -0.35100
O 	O 	0.87320 0.92020 0.04120 -0.38200
O 	O 	0.83400 0.02400 0.22380 -0.35600
O 	O 	0.78320 0.17710 0.17490 -0.38200
O 	O 	0.89510 0.11680 0.28490 -0.36800
O 	O 	0.84510 0.27030 0.23230 -0.36200
O 	O 	0.44960 0.03040 0.11060 -0.37100
O 	O 	0.50190 0.17920 0.17030 -0.36000
O 	O 	0.39280 0.12920 0.05590 -0.38400
O 	O 	0.44680 0.27850 0.11030 -0.37000
O 	O 	0.51990 0.88400 0.18330 -0.36100
O 	O 	0.46020 0.01720 0.24270 -0.37500
O 	O 	0.47780 0.77160 0.23990 -0.34100
O 	O 	0.41950 0.90470 0.29910 -0.34300
O 	O 	0.83080 0.74840 0.95840 -0.34600
O 	O 	0.95060 0.77640 0.97490 -0.32700
O 	O 	0.84200 0.73530 0.86130 -0.38500
O 	O 	0.96270 0.76110 0.87750 -0.36900
C 	C 	0.63730 0.04600 0.13370 0.22100
C 	C 	0.64680 0.04120 0.20210 0.23000
C 	C 	0.79860 0.86980 0.10690 0.18700
C 	C 	0.83420 0.94790 0.07950 0.22200
C 	C 	0.85460 0.10410 0.24500 0.21500
C 	C 	0.82380 0.18970 0.21460 0.22800
C 	C 	0.43230 0.11240 0.09600 0.22800
C 	C 	0.46250 0.19860 0.12770 0.21200
C 	C 	0.48640 0.85570 0.22370 0.22300
C 	C 	0.45280 0.93230 0.25920 0.23200
C 	C 	0.86030 0.74720 0.91090 0.26600
C 	C 	0.93140 0.76270 0.92090 0.22300
Mn	Mn	0.41044 0.75916 0.30089 1.34000
Cr	Cr	0.26410 0.53810 0.15939 1.54100
Cr	Cr	0.01994 0.53363 0.17579 1.52700
Cr	Cr	0.38276 0.27431 0.03793 1.51600
O 	O 	0.18670 0.55660 0.10640 -0.38400
O 	O 	0.19930 0.53710 0.22330 -0.37600
O 	O 	0.08420 0.54070 0.11190 -0.39100
O 	O 	0.09850 0.53720 0.23110 -0.37600
O 	O 	0.26260 0.39310 0.14630 -0.36200
O 	O 	0.32450 0.53040 0.09230 -0.38300
O 	O 	0.30800 0.28270 0.09350 -0.35300
O 	O 	0.37320 0.42020 0.04120 -0.38500
O 	O 	0.33400 0.52400 0.22380 -0.35800
O 	O 	0.28320 0.67710 0.17490 -0.38400
O 	O 	0.39510 0.61680 0.28490 -0.34100
O 	O 	0.34510 0.77030 0.23230 -0.33400
O 	O 	0.94960 0.53040 0.11060 -0.35900
O 	O 	0.00190 0.67920 0.17030 -0.38900
O 	O 	0.89280 0.62920 0.05590 -0.38000
O 	O 	0.94680 0.77850 0.11030 -0.37300
O 	O 	0.01990 0.38400 0.18330 -0.39000
O 	O 	0.96020 0.51720 0.24270 -0.36200
O 	O 	0.97780 0.27160 0.23990 -0.37400
O 	O 	0.91950 0.40470 0.29910 -0.36800
O 	O 	0.33080 0.24840 0.95840 -0.34700
O 	O 	0.45060 0.27640 0.97490 -0.33100
O 	O 	0.34200 0.23530 0.86130 -0.35600
O 	O 	0.46270 0.26110 0.87750 -0.34200
C 	C 	0.13730 0.54600 0.13370 0.22100
C 	C 	0.14680 0.54120 0.20210 0.22900
C 	C 	0.29860 0.36980 0.10690 0.18600
C 	C 	0.33420 0.44790 0.07950 0.22300
C 	C 	0.35460 0.60410 0.24500 0.21500
C 	C 	0.32380 0.68970 0.21460 0.22800
C 	C 	0.93230 0.61240 0.09600 0.22100
C 	C 	0.96250 0.69860 0.12770 0.24300
C 	C 	0.98640 0.35570 0.22370 0.25600
C 	C 	0.95280 0.43230 0.25920 0.22600
C 	C 	0.36030 0.24720 0.91090 0.26500
C 	C 	0.43140 0.26270 0.92090 0.22400
