data_crystal

_cell_length_a 6.62600
_cell_length_b 13.05200
_cell_length_c 13.95800
_cell_angle_alpha 90.00000
_cell_angle_beta  90.00000
_cell_angle_gamma 90.00000

_symmetry_space_group_name_	'P 1'
_symmetry_space_group_name_H-M	'P 1'

loop_
_symmetry_equiv_pos_as_xyz
  x,y,z

loop_
_atom_site_label
_atom_site_type_symbol
_atom_site_fract_x
_atom_site_fract_y
_atom_site_fract_z
_atom_site_charge
Cd	Cd	-0.00000 0.25000 0.77423 1.17600
Cd	Cd	0.50000 0.75000 0.72577 1.21200
Cd	Cd	-0.00000 0.75000 0.22577 1.16100
Cd	Cd	0.50000 0.25000 0.27423 1.20900
Cu	Cu	0.50000 0.50000 0.50000 0.94700
Cu	Cu	-0.00000 0.00000 -0.00000 0.79600
Cu	Cu	0.50000 0.00000 0.50000 0.90800
Cu	Cu	-0.00000 0.50000 -0.00000 0.83200
H 	H 	0.43360 0.38150 0.72360 0.24600
H 	H 	0.64410 0.39760 0.77140 0.25100
H 	H 	0.06640 0.88150 0.77640 0.04500
H 	H 	0.85590 0.89760 0.72860 0.13100
H 	H 	0.56640 0.11850 0.72360 0.28500
H 	H 	0.35590 0.10240 0.77140 0.25300
H 	H 	0.93360 0.61850 0.77640 0.39300
H 	H 	0.14410 0.60240 0.72860 0.26300
H 	H 	0.56640 0.61850 0.27640 0.24300
H 	H 	0.35590 0.60240 0.22860 0.20100
H 	H 	0.93360 0.11850 0.22360 0.42500
H 	H 	0.14410 0.10240 0.27140 0.29800
H 	H 	0.43360 0.88150 0.27640 0.20100
H 	H 	0.64410 0.89760 0.22860 0.19700
H 	H 	0.06640 0.38150 0.22360 0.08000
H 	H 	0.85590 0.39760 0.27140 0.17000
C 	C 	0.66570 0.35070 0.63298 0.55700
C 	C 	0.56690 0.41010 0.71350 -0.73000
C 	C 	0.54400 0.52450 0.70250 0.54100
C 	C 	0.83430 0.85070 0.86702 0.44000
C 	C 	0.93310 0.91010 0.78650 -0.29000
C 	C 	0.95600 0.02450 0.79750 0.47700
C 	C 	0.33430 0.14930 0.63298 0.57400
C 	C 	0.43310 0.08990 0.71350 -0.87200
C 	C 	0.45600 0.97550 0.70250 0.63300
C 	C 	0.16570 0.64930 0.86702 0.57200
C 	C 	0.06690 0.58990 0.78650 -0.92800
C 	C 	0.04400 0.47550 0.79750 0.42000
C 	C 	0.33430 0.64930 0.36702 0.53500
C 	C 	0.43310 0.58990 0.28650 -0.72100
C 	C 	0.45600 0.47550 0.29750 0.51900
C 	C 	0.16570 0.14930 0.13298 0.62900
C 	C 	0.06690 0.08990 0.21350 -1.10000
C 	C 	0.04400 0.97550 0.20250 0.54200
C 	C 	0.66570 0.85070 0.36702 0.51300
C 	C 	0.56690 0.91010 0.28650 -0.56700
C 	C 	0.54400 0.02450 0.29750 0.42200
C 	C 	0.83430 0.35070 0.13298 0.50400
C 	C 	0.93310 0.41010 0.21350 -0.48200
C 	C 	0.95600 0.52450 0.20250 0.62700
O 	O 	0.76310 0.27235 0.65350 -0.41600
O 	O 	0.63760 0.37808 0.54691 -0.43400
O 	O 	0.49330 0.56341 0.62323 -0.53200
O 	O 	0.56600 0.58042 0.77397 -0.44200
O 	O 	0.73690 0.77235 0.84650 -0.38000
O 	O 	0.86240 0.87808 0.95309 -0.26500
O 	O 	0.00670 0.06341 0.87677 -0.57800
O 	O 	0.93400 0.08042 0.72603 -0.40300
O 	O 	0.23690 0.22765 0.65350 -0.49700
O 	O 	0.36240 0.12192 0.54691 -0.49100
O 	O 	0.50670 0.93659 0.62323 -0.51800
O 	O 	0.43400 0.91958 0.77397 -0.45500
O 	O 	0.26310 0.72765 0.84650 -0.45800
O 	O 	0.13760 0.62192 0.95309 -0.41500
O 	O 	0.99330 0.43659 0.87677 -0.32300
O 	O 	0.06600 0.41958 0.72603 -0.48100
O 	O 	0.23690 0.72765 0.34650 -0.48100
O 	O 	0.36240 0.62192 0.45309 -0.46000
O 	O 	0.50670 0.43659 0.37677 -0.52900
O 	O 	0.43400 0.41958 0.22603 -0.47400
O 	O 	0.26310 0.22765 0.15350 -0.51600
O 	O 	0.13760 0.12192 0.04691 -0.56300
O 	O 	0.99330 0.93659 0.12323 -0.39500
O 	O 	0.06600 0.91958 0.27397 -0.49600
O 	O 	0.76310 0.77235 0.34650 -0.39600
O 	O 	0.63760 0.87808 0.45309 -0.38600
O 	O 	0.49330 0.06341 0.37677 -0.52600
O 	O 	0.56600 0.08042 0.22603 -0.45700
O 	O 	0.73690 0.27235 0.15350 -0.43900
O 	O 	0.86240 0.37808 0.04691 -0.42300
O 	O 	0.00670 0.56341 0.12323 -0.68600
O 	O 	0.93400 0.58042 0.27397 -0.42300
