data_crystal

_cell_length_a 6.62240
_cell_length_b 13.04070
_cell_length_c 13.97720
_cell_angle_alpha 90.00000
_cell_angle_beta  90.00000
_cell_angle_gamma 90.00000

_symmetry_space_group_name_	'P 1'
_symmetry_space_group_name_H-M	'P 1'

loop_
_symmetry_equiv_pos_as_xyz
  x,y,z

loop_
_atom_site_label
_atom_site_type_symbol
_atom_site_fract_x
_atom_site_fract_y
_atom_site_fract_z
_atom_site_charge
Cd	Cd	0.00000 0.75000 0.77406 1.17800
Cd	Cd	0.50000 0.75000 0.27406 1.21300
Cd	Cd	0.00000 0.25000 0.22594 1.15600
Cd	Cd	0.50000 0.25000 0.72594 1.21000
Cu	Cu	0.50000 0.00000 0.50000 0.90100
Cu	Cu	0.50000 0.50000 0.50000 0.94700
Cu	Cu	-0.00000 0.00000 -0.00000 0.77700
Cu	Cu	-0.00000 0.50000 -0.00000 0.82800
H 	H 	0.35520 0.89780 0.77090 0.19700
H 	H 	0.43410 0.61850 0.72330 0.24600
H 	H 	0.93410 0.38150 0.77670 0.39900
H 	H 	0.14480 0.89780 0.27090 0.24000
H 	H 	0.93410 0.88150 0.22330 0.36500
H 	H 	0.06590 0.11850 0.77670 0.09000
H 	H 	0.14480 0.39780 0.72910 0.26400
H 	H 	0.64480 0.60220 0.77090 0.25300
H 	H 	0.56590 0.38150 0.27670 0.24200
H 	H 	0.06590 0.61850 0.22330 0.07500
H 	H 	0.64480 0.10220 0.22910 0.25500
H 	H 	0.35520 0.39780 0.22910 0.19900
H 	H 	0.85520 0.60220 0.27090 0.17000
H 	H 	0.43410 0.11850 0.27670 0.25900
H 	H 	0.56590 0.88150 0.72330 0.22600
H 	H 	0.85520 0.10220 0.72910 0.17900
C 	C 	0.06740 0.41029 0.78688 -0.94100
C 	C 	0.66610 0.64932 0.63281 0.55200
C 	C 	0.16610 0.85068 0.13281 0.55000
C 	C 	0.06740 0.91029 0.21312 -0.78700
C 	C 	0.16610 0.35068 0.86719 0.57400
C 	C 	0.54380 0.47548 0.70252 0.54400
C 	C 	0.93260 0.58971 0.21312 -0.47500
C 	C 	0.33390 0.85068 0.63281 0.50000
C 	C 	0.43260 0.91029 0.71312 -0.56900
C 	C 	0.56740 0.08971 0.28688 -0.87500
C 	C 	0.95620 0.97548 0.79748 0.71000
C 	C 	0.95620 0.47548 0.20252 0.63500
C 	C 	0.83390 0.14932 0.86719 0.50100
C 	C 	0.04380 0.02452 0.20252 0.28300
C 	C 	0.54380 0.97548 0.29748 0.67400
C 	C 	0.45620 0.02452 0.70252 0.39200
C 	C 	0.66610 0.14932 0.36719 0.58400
C 	C 	0.33390 0.35068 0.36719 0.53600
C 	C 	0.93260 0.08971 0.78688 -0.56100
C 	C 	0.43260 0.41029 0.28688 -0.72300
C 	C 	0.83390 0.64932 0.13281 0.49700
C 	C 	0.04380 0.52452 0.79748 0.42100
C 	C 	0.45620 0.52452 0.29748 0.52200
C 	C 	0.56740 0.58971 0.71312 -0.72900
O 	O 	0.49330 0.93677 0.37697 -0.51900
O 	O 	0.63800 0.12176 0.45336 -0.46000
O 	O 	0.00670 0.93677 0.87697 -0.56900
O 	O 	0.99330 0.56323 0.87697 -0.31500
O 	O 	0.49330 0.43677 0.62303 -0.53400
O 	O 	0.50670 0.56323 0.37697 -0.52700
O 	O 	0.00670 0.43677 0.12303 -0.69400
O 	O 	0.56610 0.91975 0.22630 -0.46500
O 	O 	0.06610 0.58025 0.72630 -0.48400
O 	O 	0.36200 0.37824 0.45336 -0.46400
O 	O 	0.73660 0.72783 0.15330 -0.42300
O 	O 	0.76340 0.72783 0.65330 -0.39900
O 	O 	0.86200 0.12176 0.95336 -0.32700
O 	O 	0.76340 0.22783 0.34670 -0.42400
O 	O 	0.43390 0.08025 0.77370 -0.45000
O 	O 	0.63800 0.62176 0.54664 -0.42700
O 	O 	0.26340 0.27217 0.84670 -0.47100
O 	O 	0.23660 0.77217 0.65330 -0.46700
O 	O 	0.50670 0.06323 0.62303 -0.52200
O 	O 	0.99330 0.06323 0.12303 -0.38800
O 	O 	0.36200 0.87824 0.54664 -0.41100
O 	O 	0.23660 0.27217 0.34670 -0.49700
O 	O 	0.06610 0.08025 0.27370 -0.49100
O 	O 	0.13800 0.87824 0.04664 -0.48100
O 	O 	0.93390 0.91975 0.72630 -0.40700
O 	O 	0.26340 0.77217 0.15330 -0.48500
O 	O 	0.73660 0.22783 0.84670 -0.40400
O 	O 	0.43390 0.58025 0.22630 -0.47700
O 	O 	0.13800 0.37824 0.95336 -0.41600
O 	O 	0.93390 0.41975 0.27370 -0.42500
O 	O 	0.86200 0.62176 0.04664 -0.41700
O 	O 	0.56610 0.41975 0.77370 -0.44400
