data_crystal

_cell_length_a 9.99620
_cell_length_b 10.62600
_cell_length_c 10.82730
_cell_angle_alpha 80.55200
_cell_angle_beta  73.11700
_cell_angle_gamma 74.12900

_symmetry_space_group_name_	'P 1'
_symmetry_space_group_name_H-M	'P 1'

loop_
_symmetry_equiv_pos_as_xyz
  x,y,z

loop_
_atom_site_label
_atom_site_type_symbol
_atom_site_fract_x
_atom_site_fract_y
_atom_site_fract_z
_atom_site_charge
Gd	Gd	0.67484 0.69283 0.03667 1.48200
Gd	Gd	0.32516 0.30717 0.96333 1.48200
Ni	Ni	0.78685 0.86753 0.62009 1.08300
Ni	Ni	0.21315 0.13247 0.37991 1.08300
H 	H 	0.56380 0.69440 0.73980 -0.01500
H 	H 	0.36570 0.66540 0.69070 0.11500
H 	H 	0.31900 0.75570 0.49390 -0.00100
H 	H 	0.98320 0.26990 0.62030 0.01300
H 	H 	0.77580 0.43600 0.65270 0.09500
H 	H 	0.69970 0.55250 0.47410 0.03100
H 	H 	0.43620 0.30560 0.26020 -0.01500
H 	H 	0.63430 0.33460 0.30930 0.11500
H 	H 	0.68100 0.24430 0.50610 -0.00100
H 	H 	0.01680 0.73010 0.37970 0.01300
H 	H 	0.22420 0.56400 0.34730 0.09500
H 	H 	0.30030 0.44750 0.52590 0.03100
C 	C 	0.54500 0.73110 0.66070 0.11600
C 	C 	0.42630 0.71280 0.63180 -0.16900
C 	C 	0.39930 0.76580 0.51450 0.09800
C 	C 	0.49270 0.83500 0.42620 -0.15700
C 	C 	0.60890 0.85060 0.46270 0.02500
C 	C 	0.71420 0.92990 0.38060 0.28800
C 	C 	0.46640 0.88350 0.29480 0.44900
C 	C 	0.95420 0.31830 0.54890 0.07000
C 	C 	0.82910 0.41700 0.56910 -0.11800
C 	C 	0.78470 0.48710 0.46250 0.02800
C 	C 	0.86750 0.45960 0.33830 -0.06800
C 	C 	0.99330 0.36120 0.32680 -0.00900
C 	C 	0.09910 0.32970 0.19890 0.28800
C 	C 	0.81420 0.53800 0.22400 0.32400
C 	C 	0.44030 0.52280 0.06090 0.24500
C 	C 	0.45500 0.26890 0.33930 0.11600
C 	C 	0.57370 0.28720 0.36820 -0.16900
C 	C 	0.60070 0.23420 0.48550 0.09800
C 	C 	0.50730 0.16500 0.57380 -0.15700
C 	C 	0.39110 0.14940 0.53730 0.02500
C 	C 	0.28580 0.07010 0.61940 0.28800
C 	C 	0.53360 0.11650 0.70520 0.44900
C 	C 	0.04580 0.68170 0.45110 0.07000
C 	C 	0.17090 0.58300 0.43090 -0.11800
C 	C 	0.21530 0.51290 0.53750 0.02800
C 	C 	0.13250 0.54040 0.66170 -0.06800
C 	C 	0.00670 0.63880 0.67320 -0.00900
C 	C 	0.90090 0.67030 0.80110 0.28800
C 	C 	0.18580 0.46200 0.77600 0.32400
C 	C 	0.55970 0.47720 0.93910 0.24500
N 	N 	0.63360 0.79960 0.57920 -0.23000
N 	N 	0.03470 0.29020 0.43010 -0.22000
N 	N 	0.36640 0.20040 0.42080 -0.23000
N 	N 	0.96530 0.70980 0.56990 -0.22000
O 	O 	0.80190 0.94840 0.43546 -0.40600
O 	O 	0.70630 0.97330 0.26847 -0.24700
O 	O 	0.52640 0.80460 0.20968 -0.45100
O 	O 	0.38290 0.99190 0.27735 -0.44800
O 	O 	0.07900 0.39610 0.09702 -0.33100
O 	O 	0.21190 0.23840 0.20067 -0.49300
O 	O 	0.74650 0.48920 0.17110 -0.35500
O 	O 	0.83030 0.65270 0.19350 -0.34000
O 	O 	0.45650 0.60830 0.11750 -0.34500
O 	O 	0.33630 0.46830 0.09314 -0.34700
O 	O 	0.19810 0.05160 0.56454 -0.40600
O 	O 	0.29370 0.02670 0.73153 -0.24700
O 	O 	0.47360 0.19540 0.79032 -0.45100
O 	O 	0.61710 0.00810 0.72265 -0.44800
O 	O 	0.92100 0.60390 0.90298 -0.33100
O 	O 	0.78810 0.76160 0.79933 -0.49300
O 	O 	0.25350 0.51080 0.82890 -0.35500
O 	O 	0.16970 0.34730 0.80650 -0.34000
O 	O 	0.54350 0.39170 0.88250 -0.34500
O 	O 	0.66370 0.53170 0.90686 -0.34700
