data_crystal

_cell_length_a 12.31100
_cell_length_b 14.04900
_cell_length_c 14.18100
_cell_angle_alpha 116.92000
_cell_angle_beta  111.72000
_cell_angle_gamma 91.66000

_symmetry_space_group_name_	'P 1'
_symmetry_space_group_name_H-M	'P 1'

loop_
_symmetry_equiv_pos_as_xyz
  x,y,z

loop_
_atom_site_label
_atom_site_type_symbol
_atom_site_fract_x
_atom_site_fract_y
_atom_site_fract_z
_atom_site_charge
Mn	Mn	0.81153 0.65264 0.20934 1.28400
Mn	Mn	0.18847 0.34736 0.79066 1.28300
Mn	Mn	0.50000 0.50000 -0.00000 1.29800
Mn	Mn	-0.00000 0.50000 -0.00000 1.13600
Ge	Ge	0.63462 0.11129 0.86785 0.66700
Ge	Ge	0.34025 0.96623 0.65362 0.71300
Ge	Ge	0.51889 0.85337 0.81001 0.71500
Ge	Ge	0.58922 0.88394 0.60497 0.69300
Ge	Ge	0.36538 0.88871 0.13215 0.74600
Ge	Ge	0.65975 0.03377 0.34638 0.71300
Ge	Ge	0.48111 0.14663 0.18999 0.64600
Ge	Ge	0.41078 0.11606 0.39503 0.69200
H 	H 	0.80700 0.25920 0.02870 0.01600
H 	H 	0.68980 0.29000 0.04160 0.03800
H 	H 	0.64530 0.31770 0.87250 0.11400
H 	H 	0.78050 0.31720 0.89640 0.07200
H 	H 	0.20480 0.08220 0.62050 0.13000
H 	H 	0.13880 0.99180 0.62920 0.12700
H 	H 	0.05850 0.98330 0.44080 0.04300
H 	H 	0.16950 0.93850 0.42590 0.05800
H 	H 	0.49080 0.68470 0.81660 0.15900
H 	H 	0.46050 0.77660 0.91220 0.16400
H 	H 	0.69820 0.77000 0.93760 0.02600
H 	H 	0.66460 0.85560 0.03420 -0.00600
H 	H 	0.72340 0.80630 0.51690 0.14200
H 	H 	0.65840 0.87580 0.46270 0.13200
H 	H 	0.55250 0.66240 0.39800 0.07200
H 	H 	0.48300 0.73210 0.34690 0.07300
H 	H 	0.19300 0.74080 0.97130 0.18300
H 	H 	0.31020 0.71000 0.95840 0.20500
H 	H 	0.35470 0.68230 0.12750 0.07900
H 	H 	0.21950 0.68280 0.10360 0.01500
H 	H 	0.79520 0.91780 0.37950 0.12700
H 	H 	0.86120 0.00820 0.37080 0.13500
H 	H 	0.94150 0.01670 0.55920 0.11900
H 	H 	0.83050 0.06150 0.57410 0.10200
H 	H 	0.50920 0.31530 0.18340 0.09300
H 	H 	0.53950 0.22340 0.08780 0.08000
H 	H 	0.30180 0.23000 0.06240 0.13300
H 	H 	0.33540 0.14440 0.96580 0.19900
H 	H 	0.27660 0.19370 0.48310 0.12400
H 	H 	0.34160 0.12420 0.53730 0.12700
H 	H 	0.44750 0.33760 0.60200 0.07400
H 	H 	0.51700 0.26790 0.65310 0.08000
C 	C 	0.72480 0.25980 0.98620 -0.15400
C 	C 	0.72520 0.33310 0.93260 -0.27700
C 	C 	0.76270 0.45190 0.02570 0.38000
C 	C 	0.18810 0.00430 0.59420 -0.38900
C 	C 	0.11540 0.94220 0.46210 -0.12900
C 	C 	0.04680 0.82610 0.41260 0.26400
C 	C 	0.51740 0.76120 0.87790 -0.47400
C 	C 	0.64080 0.78000 0.97120 0.03300
C 	C 	0.64800 0.70470 0.02270 0.25800
C 	C 	0.64610 0.82170 0.48480 -0.38500
C 	C 	0.56140 0.71740 0.37620 -0.17800
C 	C 	0.60100 0.66950 0.27710 0.40600
C 	C 	0.27520 0.74020 0.01380 -0.56200
C 	C 	0.27480 0.66690 0.06740 -0.21100
C 	C 	0.23730 0.54810 0.97430 0.41800
C 	C 	0.81190 0.99570 0.40580 -0.34900
C 	C 	0.88460 0.05780 0.53790 -0.23300
C 	C 	0.95320 0.17390 0.58740 0.44500
C 	C 	0.48260 0.23880 0.12210 -0.24700
C 	C 	0.35920 0.22000 0.02880 -0.46300
C 	C 	0.35200 0.29530 0.97730 0.58300
C 	C 	0.35390 0.17830 0.51520 -0.37600
C 	C 	0.43860 0.28260 0.62380 -0.18600
C 	C 	0.39900 0.33050 0.72290 0.40400
S 	S 	0.45370 0.13159 0.79060 -0.38500
S 	S 	0.71380 0.04783 0.74055 -0.37200
S 	S 	0.64188 0.01496 0.95649 -0.33800
S 	S 	0.40045 0.89018 0.51251 -0.40000
S 	S 	0.32875 0.85878 0.72673 -0.38800
S 	S 	0.59538 0.77435 0.68078 -0.38600
S 	S 	0.54630 0.86841 0.20940 -0.41500
S 	S 	0.28620 0.95217 0.25945 -0.42500
S 	S 	0.35812 0.98504 0.04351 -0.44700
S 	S 	0.59955 0.10982 0.48749 -0.39000
S 	S 	0.67125 0.14122 0.27327 -0.36700
S 	S 	0.40462 0.22565 0.31922 -0.39800
O 	O 	0.69130 0.48860 0.07130 -0.56300
O 	O 	0.86160 0.51410 0.06180 -0.61400
O 	O 	0.96830 0.78040 0.30860 -0.40100
O 	O 	0.07360 0.78180 0.47420 -0.31500
O 	O 	0.75100 0.72060 0.10060 -0.43900
O 	O 	0.55550 0.63700 0.98690 -0.38100
O 	O 	0.71040 0.70550 0.30480 -0.47600
O 	O 	0.52460 0.59870 0.17940 -0.47300
O 	O 	0.30870 0.51140 0.92870 -0.55500
O 	O 	0.13840 0.48590 0.93820 -0.62300
O 	O 	0.03170 0.21960 0.69140 -0.53100
O 	O 	0.92640 0.21820 0.52580 -0.31800
O 	O 	0.24900 0.27940 0.89940 -0.51600
O 	O 	0.44450 0.36300 0.01310 -0.54400
O 	O 	0.28960 0.29450 0.69520 -0.48600
O 	O 	0.47540 0.40130 0.82060 -0.45300
