data_crystal

_cell_length_a 19.68500
_cell_length_b 7.84900
_cell_length_c 6.78200
_cell_angle_alpha 90.00000
_cell_angle_beta  75.09940
_cell_angle_gamma 90.00000

_symmetry_space_group_name_	'P 1'
_symmetry_space_group_name_H-M	'P 1'

loop_
_symmetry_equiv_pos_as_xyz
  x,y,z

loop_
_atom_site_label
_atom_site_type_symbol
_atom_site_fract_x
_atom_site_fract_y
_atom_site_fract_z
_atom_site_charge
C 	C 	0.11100 0.19000 0.17000 0.48000
C 	C 	0.19800 0.29600 0.88200 0.19000
C 	C 	0.22900 0.18000 0.20400 0.10400
C 	C 	0.18400 0.21000 0.07900 -0.36900
O 	O 	0.06800 0.16600 0.05500 -0.61200
O 	O 	0.08700 0.14100 0.34800 -0.54300
H 	H 	0.15552 0.33862 0.80656 0.01000
H 	H 	0.20786 0.13774 0.36922 -0.02200
H 	H 	0.50000 0.74040 0.75000 0.24800
C 	C 	0.61100 0.69000 0.17000 0.49200
C 	C 	0.69800 0.79600 0.88200 0.21800
C 	C 	0.72900 0.68000 0.20400 0.13600
C 	C 	0.68400 0.71000 0.07900 -0.32000
O 	O 	0.56800 0.66600 0.05500 -0.53400
O 	O 	0.58700 0.64100 0.34800 -0.46700
H 	H 	0.65552 0.83862 0.80656 0.05400
H 	H 	0.70786 0.63774 0.36922 0.02500
H 	H 	0.00000 0.24040 0.75000 0.20300
C 	C 	0.88900 0.19000 0.33000 0.41300
C 	C 	0.80200 0.29600 0.61800 0.00300
C 	C 	0.77100 0.18000 0.29600 -0.00600
C 	C 	0.81600 0.21000 0.42100 -0.16000
O 	O 	0.93200 0.16600 0.44500 -0.44700
O 	O 	0.91300 0.14100 0.15200 -0.49000
H 	H 	0.84448 0.33862 0.69344 0.06400
H 	H 	0.79214 0.13774 0.13078 -0.02700
C 	C 	0.38900 0.69000 0.33000 0.44500
C 	C 	0.30200 0.79600 0.61800 0.04200
C 	C 	0.27100 0.68000 0.29600 0.03200
C 	C 	0.31600 0.71000 0.42100 -0.13500
O 	O 	0.43200 0.66600 0.44500 -0.46800
O 	O 	0.41300 0.64100 0.15200 -0.49100
H 	H 	0.34448 0.83862 0.69344 0.08700
H 	H 	0.29214 0.63774 0.13078 0.01200
C 	C 	0.88900 0.81000 0.83000 0.32300
C 	C 	0.80200 0.70400 0.11800 -0.18500
C 	C 	0.77100 0.82000 0.79600 -0.08200
C 	C 	0.81600 0.79000 0.92100 0.13000
O 	O 	0.93200 0.83400 0.94500 -0.25300
O 	O 	0.91300 0.85900 0.65200 -0.30300
H 	H 	0.84448 0.66138 0.19344 0.08300
H 	H 	0.79214 0.86226 0.63078 0.11100
H 	H 	0.50000 0.25960 0.25000 0.15300
C 	C 	0.38900 0.31000 0.83000 0.33800
C 	C 	0.30200 0.20400 0.11800 -0.22200
C 	C 	0.27100 0.32000 0.79600 -0.11300
C 	C 	0.31600 0.29000 0.92100 0.07500
O 	O 	0.43200 0.33400 0.94500 -0.40500
O 	O 	0.41300 0.35900 0.65200 -0.45000
H 	H 	0.34448 0.16138 0.19344 0.02700
H 	H 	0.29214 0.36226 0.63078 0.06100
H 	H 	0.00000 0.75960 0.25000 0.13900
C 	C 	0.11100 0.81000 0.67000 0.38600
C 	C 	0.19800 0.70400 0.38200 -0.00800
C 	C 	0.22900 0.82000 0.70400 0.02200
C 	C 	0.18400 0.79000 0.57900 -0.06700
O 	O 	0.06800 0.83400 0.55500 -0.41900
O 	O 	0.08700 0.85900 0.84800 -0.33800
H 	H 	0.15552 0.66138 0.30656 0.03100
H 	H 	0.20786 0.86226 0.86922 0.11800
C 	C 	0.61100 0.31000 0.67000 0.38900
C 	C 	0.69800 0.20400 0.38200 -0.03700
C 	C 	0.72900 0.32000 0.70400 -0.00300
C 	C 	0.68400 0.29000 0.57900 -0.11800
O 	O 	0.56800 0.33400 0.55500 -0.48700
O 	O 	0.58700 0.35900 0.84800 -0.41500
H 	H 	0.65552 0.16138 0.30656 -0.00600
H 	H 	0.70786 0.36226 0.86922 0.07300
Cr	Cr	0.00000 0.00000 0.50000 1.47500
Cr	Cr	0.50000 0.50000 0.50000 1.58600
Cr	Cr	-0.00000 0.00000 -0.00000 1.42800
Cr	Cr	0.50000 0.50000 -0.00000 1.53900
O 	O 	0.00000 0.88700 0.25000 -0.62500
O 	O 	0.50000 0.38700 0.25000 -0.70600
O 	O 	0.00000 0.11300 0.75000 -0.76000
O 	O 	0.50000 0.61300 0.75000 -0.65200
