data_crystal

_cell_length_a 19.68120
_cell_length_b 7.70050
_cell_length_c 6.77800
_cell_angle_alpha 90.00000
_cell_angle_beta  75.49970
_cell_angle_gamma 90.00000

_symmetry_space_group_name_	'P 1'
_symmetry_space_group_name_H-M	'P 1'

loop_
_symmetry_equiv_pos_as_xyz
  x,y,z

loop_
_atom_site_label
_atom_site_type_symbol
_atom_site_fract_x
_atom_site_fract_y
_atom_site_fract_z
_atom_site_charge
H 	H 	0.16870 0.72960 0.79940 -0.03200
H 	H 	0.21250 0.83660 0.34260 -0.00500
C 	C 	0.18080 0.78860 0.08270 -0.41900
C 	C 	0.20260 0.73810 0.88310 0.40300
C 	C 	0.22820 0.80050 0.19960 0.29900
C 	C 	0.10660 0.82990 0.17140 0.51100
O 	O 	0.06280 0.82070 0.06240 -0.51200
O 	O 	0.08620 0.87490 0.35710 -0.42000
H 	H 	0.66870 0.22960 0.79940 -0.07900
H 	H 	0.71250 0.33660 0.34260 -0.06000
C 	C 	0.68080 0.28860 0.08270 -0.49100
C 	C 	0.70260 0.23810 0.88310 0.39500
C 	C 	0.72820 0.30050 0.19960 0.29500
C 	C 	0.60660 0.32990 0.17140 0.50600
O 	O 	0.56280 0.32070 0.06240 -0.58300
O 	O 	0.58620 0.37490 0.35710 -0.51700
H 	H 	0.83130 0.72960 0.70060 0.09300
H 	H 	0.78750 0.83660 0.15740 0.05900
C 	C 	0.81920 0.78860 0.41730 -0.05700
C 	C 	0.79740 0.73810 0.61690 0.00600
C 	C 	0.77180 0.80050 0.30040 0.00300
C 	C 	0.89340 0.82990 0.32860 0.38600
O 	O 	0.93720 0.82070 0.43760 -0.33500
O 	O 	0.91380 0.87490 0.14290 -0.36300
H 	H 	0.33130 0.22960 0.70060 0.03700
H 	H 	0.28750 0.33660 0.15740 0.00300
C 	C 	0.31920 0.28860 0.41730 -0.13900
C 	C 	0.29740 0.23810 0.61690 -0.01000
C 	C 	0.27180 0.30050 0.30040 -0.01000
C 	C 	0.39340 0.32990 0.32860 0.39500
O 	O 	0.43720 0.32070 0.43760 -0.50500
O 	O 	0.41380 0.37490 0.14290 -0.53000
H 	H 	0.83130 0.27040 0.20060 0.14900
H 	H 	0.78750 0.16340 0.65740 0.11400
C 	C 	0.81920 0.21140 0.91730 0.26000
C 	C 	0.79740 0.26190 0.11690 -0.44400
C 	C 	0.77180 0.19950 0.80040 -0.33300
C 	C 	0.89340 0.17010 0.82860 0.24400
O 	O 	0.93720 0.17930 0.93760 -0.33300
O 	O 	0.91380 0.12510 0.64290 -0.43000
H 	H 	0.33130 0.77040 0.20060 0.17000
H 	H 	0.28750 0.66340 0.65740 0.15000
C 	C 	0.31920 0.71140 0.91730 0.27100
C 	C 	0.29740 0.76190 0.11690 -0.38000
C 	C 	0.27180 0.69950 0.80040 -0.27900
C 	C 	0.39340 0.67010 0.82860 0.29200
O 	O 	0.43720 0.67930 0.93760 -0.35800
O 	O 	0.41380 0.62510 0.64290 -0.42200
H 	H 	0.16870 0.27040 0.29940 0.01700
H 	H 	0.21250 0.16340 0.84260 0.04600
C 	C 	0.18080 0.21140 0.58270 -0.11400
C 	C 	0.20260 0.26190 0.38310 -0.03500
C 	C 	0.22820 0.19950 0.69960 -0.02900
C 	C 	0.10660 0.17010 0.67140 0.37200
O 	O 	0.06280 0.17930 0.56240 -0.53000
O 	O 	0.08620 0.12510 0.85710 -0.47800
H 	H 	0.66870 0.77040 0.29940 0.05700
H 	H 	0.71250 0.66340 0.84260 0.08800
C 	C 	0.68080 0.71140 0.58270 -0.07100
C 	C 	0.70260 0.76190 0.38310 0.01300
C 	C 	0.72820 0.69950 0.69960 0.01500
C 	C 	0.60660 0.67010 0.67140 0.39800
O 	O 	0.56280 0.67930 0.56240 -0.44700
O 	O 	0.58620 0.62510 0.85710 -0.39500
H 	H 	0.50000 0.74906 0.25000 0.22700
H 	H 	-0.00000 0.24906 0.25000 0.17400
H 	H 	0.50000 0.25094 0.75000 0.19500
H 	H 	0.00000 0.75094 0.75000 0.18500
Cr	Cr	-0.00000 0.00000 -0.00000 1.42000
Cr	Cr	0.50000 0.50000 -0.00000 1.54400
Cr	Cr	-0.00000 -0.00000 0.50000 1.46900
Cr	Cr	0.50000 0.50000 0.50000 1.59100
O 	O 	0.00000 0.88080 0.75000 -0.55200
O 	O 	0.50000 0.38080 0.75000 -0.64400
O 	O 	-0.00000 0.11920 0.25000 -0.81700
O 	O 	0.50000 0.61920 0.25000 -0.69400
