data_crystal

_cell_length_a 9.92180
_cell_length_b 12.65300
_cell_length_c 15.51310
_cell_angle_alpha 90.00000
_cell_angle_beta  90.76100
_cell_angle_gamma 90.00000

_symmetry_space_group_name_	'P 1'
_symmetry_space_group_name_H-M	'P 1'

loop_
_symmetry_equiv_pos_as_xyz
  x,y,z

loop_
_atom_site_label
_atom_site_type_symbol
_atom_site_fract_x
_atom_site_fract_y
_atom_site_fract_z
_atom_site_charge
O 	O 	0.08033 0.91261 0.33845 -0.48000
O 	O 	0.24474 0.82630 0.27283 -0.26600
O 	O 	0.42578 0.60225 0.33355 -0.41400
O 	O 	0.20598 0.59379 0.30487 -0.27800
C 	C 	0.21048 0.79261 0.41998 -0.05900
C 	C 	0.28047 0.69662 0.42340 -0.03200
C 	C 	0.31984 0.65644 0.50319 -0.00900
H 	H 	0.36800 0.59340 0.50530 0.06700
C 	C 	0.17617 0.84669 0.33556 0.35800
C 	C 	0.30448 0.62737 0.34556 0.34700
O 	O 	0.58033 0.41261 0.33845 -0.42300
O 	O 	0.74474 0.32630 0.27283 -0.21800
O 	O 	0.92578 0.10225 0.33355 -0.33400
O 	O 	0.70598 0.09379 0.30487 -0.22400
C 	C 	0.71048 0.29261 0.41998 -0.03600
C 	C 	0.78047 0.19662 0.42340 -0.00300
C 	C 	0.81984 0.15644 0.50319 -0.01300
H 	H 	0.86800 0.09340 0.50530 0.09900
C 	C 	0.67617 0.34669 0.33556 0.35500
C 	C 	0.80448 0.12737 0.34556 0.33300
O 	O 	0.91967 0.91261 0.16155 -0.34800
O 	O 	0.75526 0.82630 0.22717 -0.21900
O 	O 	0.57422 0.60225 0.16645 -0.41400
O 	O 	0.79402 0.59379 0.19513 -0.20200
C 	C 	0.78952 0.79261 0.08002 -0.01000
C 	C 	0.71953 0.69662 0.07660 -0.02800
C 	C 	0.68016 0.65644 0.99681 0.00700
H 	H 	0.63200 0.59340 0.99470 0.07000
C 	C 	0.82383 0.84669 0.16444 0.34200
C 	C 	0.69552 0.62737 0.15444 0.34500
O 	O 	0.41967 0.41261 0.16155 -0.42700
O 	O 	0.25526 0.32630 0.22717 -0.27200
O 	O 	0.07422 0.10225 0.16645 -0.47700
O 	O 	0.29402 0.09379 0.19513 -0.25300
C 	C 	0.28952 0.29261 0.08002 -0.03400
C 	C 	0.21953 0.19662 0.07660 -0.05900
C 	C 	0.18016 0.15644 0.99681 0.01500
H 	H 	0.13200 0.09340 0.99470 0.03800
C 	C 	0.32383 0.34669 0.16444 0.35000
C 	C 	0.19552 0.12737 0.15444 0.35600
O 	O 	0.91967 0.08739 0.66155 -0.34800
O 	O 	0.75526 0.17370 0.72717 -0.21900
O 	O 	0.57422 0.39775 0.66645 -0.41400
O 	O 	0.79402 0.40621 0.69513 -0.20200
C 	C 	0.78952 0.20739 0.58002 -0.00900
C 	C 	0.71953 0.30338 0.57660 -0.02900
C 	C 	0.68016 0.34356 0.49681 0.00900
H 	H 	0.63200 0.40660 0.49470 0.07000
C 	C 	0.82383 0.15331 0.66444 0.34200
C 	C 	0.69552 0.37263 0.65444 0.34500
O 	O 	0.41967 0.58739 0.66155 -0.42700
O 	O 	0.25526 0.67370 0.72717 -0.27200
O 	O 	0.07422 0.89775 0.66645 -0.47600
O 	O 	0.29402 0.90621 0.69513 -0.25200
C 	C 	0.28952 0.70739 0.58002 -0.03700
C 	C 	0.21953 0.80338 0.57660 -0.05300
C 	C 	0.18016 0.84356 0.49681 0.00900
H 	H 	0.13200 0.90660 0.49470 0.03900
C 	C 	0.32383 0.65331 0.66444 0.35100
C 	C 	0.19552 0.87263 0.65444 0.35500
O 	O 	0.08033 0.08739 0.83845 -0.48100
O 	O 	0.24474 0.17370 0.77283 -0.26600
O 	O 	0.42578 0.39775 0.83355 -0.41400
O 	O 	0.20598 0.40621 0.80487 -0.27800
C 	C 	0.21048 0.20739 0.91998 -0.06200
C 	C 	0.28047 0.30338 0.92340 -0.02800
C 	C 	0.31984 0.34356 0.00319 -0.01500
H 	H 	0.36800 0.40660 0.00530 0.06800
C 	C 	0.17617 0.15331 0.83556 0.35900
C 	C 	0.30448 0.37263 0.84556 0.34600
O 	O 	0.58033 0.58739 0.83845 -0.42200
O 	O 	0.74474 0.67370 0.77283 -0.21700
O 	O 	0.92578 0.89775 0.83355 -0.33400
O 	O 	0.70598 0.90621 0.80487 -0.22400
C 	C 	0.71048 0.70739 0.91998 -0.03500
C 	C 	0.78047 0.80338 0.92340 -0.00600
C 	C 	0.81984 0.84356 0.00319 -0.01100
H 	H 	0.86800 0.90660 0.00530 0.09900
C 	C 	0.67617 0.65331 0.83556 0.35400
C 	C 	0.80448 0.87263 0.84556 0.33300
Zn	Zn	0.00000 0.00341 0.25000 1.20300
Zn	Zn	0.50000 0.50341 0.25000 1.24800
Zn	Zn	0.00000 0.99659 0.75000 1.20300
Zn	Zn	0.50000 0.49659 0.75000 1.24800
