data_crystal

_cell_length_a 17.05310
_cell_length_b 17.05310
_cell_length_c 10.73970
_cell_angle_alpha 90.00000
_cell_angle_beta  90.00000
_cell_angle_gamma 90.00000

_symmetry_space_group_name_	'P 1'
_symmetry_space_group_name_H-M	'P 1'

loop_
_symmetry_equiv_pos_as_xyz
  x,y,z

loop_
_atom_site_label
_atom_site_type_symbol
_atom_site_fract_x
_atom_site_fract_y
_atom_site_fract_z
_atom_site_charge
W 	W 	0.33813 0.94138 0.19340 1.36800
P 	P 	0.36522 0.83297 0.44620 0.55300
O 	O 	0.42680 0.93110 0.10800 -0.44800
O 	O 	0.25030 0.96650 0.33170 -0.39300
O 	O 	0.29300 0.85030 0.16490 -0.47800
O 	O 	0.39260 0.89480 0.34860 -0.32500
O 	O 	0.34010 0.75750 0.38310 -0.35000
O 	O 	0.29570 0.86850 0.52110 -0.31000
O 	O 	0.43410 0.82150 0.53420 -0.36400
W 	W 	0.83813 0.44138 0.69340 1.27800
P 	P 	0.86522 0.33297 0.94620 0.62100
O 	O 	0.92680 0.43110 0.60800 -0.37600
O 	O 	0.75030 0.46650 0.83170 -0.40500
O 	O 	0.79300 0.35030 0.66490 -0.45100
O 	O 	0.89260 0.39480 0.84860 -0.29300
O 	O 	0.84010 0.25750 0.88310 -0.32500
O 	O 	0.79570 0.36850 0.02110 -0.36700
O 	O 	0.93410 0.32150 0.03420 -0.32800
W 	W 	0.16187 0.05862 0.69340 1.17100
P 	P 	0.13478 0.16703 0.94620 0.61800
O 	O 	0.07320 0.06890 0.60800 -0.51200
O 	O 	0.24970 0.03350 0.83170 -0.43000
O 	O 	0.20700 0.14970 0.66490 -0.46100
O 	O 	0.10740 0.10520 0.84860 -0.36400
O 	O 	0.15990 0.24250 0.88310 -0.36200
O 	O 	0.20430 0.13150 0.02110 -0.38700
O 	O 	0.06590 0.17850 0.03420 -0.47900
W 	W 	0.66187 0.55862 0.19340 1.27500
P 	P 	0.63478 0.66703 0.44620 0.55000
O 	O 	0.57320 0.56890 0.10800 -0.46800
O 	O 	0.74970 0.53350 0.33170 -0.39900
O 	O 	0.70700 0.64970 0.16490 -0.46600
O 	O 	0.60740 0.60520 0.34860 -0.33100
O 	O 	0.65990 0.74250 0.38310 -0.34400
O 	O 	0.70430 0.63150 0.52110 -0.31400
O 	O 	0.56590 0.67850 0.53420 -0.37000
W 	W 	0.80862 0.58813 0.44340 1.27300
P 	P 	0.91703 0.61522 0.69620 0.54800
O 	O 	0.81890 0.67680 0.35800 -0.43200
O 	O 	0.78350 0.50030 0.58170 -0.40300
O 	O 	0.89970 0.54300 0.41490 -0.39100
O 	O 	0.85520 0.64260 0.59860 -0.31200
O 	O 	0.99250 0.59010 0.63310 -0.24200
O 	O 	0.88150 0.54570 0.77110 -0.28700
O 	O 	0.92850 0.68410 0.78420 -0.29100
W 	W 	0.30862 0.08813 0.94340 1.35100
P 	P 	0.41703 0.11522 0.19620 0.55400
O 	O 	0.31890 0.17680 0.85800 -0.45300
O 	O 	0.28350 0.00030 0.08170 -0.49500
O 	O 	0.39970 0.04300 0.91490 -0.47000
O 	O 	0.35520 0.14260 0.09860 -0.36400
O 	O 	0.49250 0.09010 0.13310 -0.37900
O 	O 	0.38150 0.04570 0.27110 -0.36700
O 	O 	0.42850 0.18410 0.28420 -0.38200
W 	W 	0.69138 0.41187 0.94340 1.36100
P 	P 	0.58297 0.38478 0.19620 0.55200
O 	O 	0.68110 0.32320 0.85800 -0.45400
O 	O 	0.71650 0.49970 0.08170 -0.42800
O 	O 	0.60030 0.45700 0.91490 -0.44500
O 	O 	0.64480 0.35740 0.09860 -0.36000
O 	O 	0.50750 0.40990 0.13310 -0.36400
O 	O 	0.61850 0.45430 0.27110 -0.31800
O 	O 	0.57150 0.31590 0.28420 -0.37600
W 	W 	0.19138 0.91187 0.44340 1.27200
P 	P 	0.08297 0.88478 0.69620 0.54600
O 	O 	0.18110 0.82320 0.35800 -0.47100
O 	O 	0.21650 0.99970 0.58170 -0.34400
O 	O 	0.10030 0.95700 0.41490 -0.47200
O 	O 	0.14480 0.85740 0.59860 -0.33600
O 	O 	0.00750 0.90990 0.63310 -0.39400
O 	O 	0.11850 0.95430 0.77110 -0.27300
O 	O 	0.07150 0.81590 0.78420 -0.40200
W 	W 	0.66187 0.05862 0.80660 1.17000
P 	P 	0.63478 0.16703 0.55380 0.54900
O 	O 	0.57320 0.06890 0.89200 -0.44100
O 	O 	0.74970 0.03350 0.66830 -0.41700
O 	O 	0.70700 0.14970 0.83510 -0.43700
O 	O 	0.60740 0.10520 0.65140 -0.33400
O 	O 	0.65990 0.24250 0.61690 -0.34600
O 	O 	0.70430 0.13150 0.47890 -0.32400
O 	O 	0.56590 0.17850 0.46580 -0.37900
W 	W 	0.16187 0.55862 0.30660 1.26600
P 	P 	0.13478 0.66703 0.05380 0.47100
O 	O 	0.07320 0.56890 0.39200 -0.50200
O 	O 	0.24970 0.53350 0.16830 -0.40600
O 	O 	0.20700 0.64970 0.33510 -0.46500
O 	O 	0.10740 0.60520 0.15140 -0.36400
O 	O 	0.15990 0.74250 0.11690 -0.36800
O 	O 	0.20430 0.63150 0.97890 -0.26300
O 	O 	0.06590 0.67850 0.96580 -0.38000
W 	W 	0.83813 0.94138 0.30660 1.36000
P 	P 	0.86522 0.83297 0.05380 0.46800
O 	O 	0.92680 0.93110 0.39200 -0.36000
O 	O 	0.75030 0.96650 0.16830 -0.38300
O 	O 	0.79300 0.85030 0.33510 -0.45300
O 	O 	0.89260 0.89480 0.15140 -0.29500
O 	O 	0.84010 0.75750 0.11690 -0.33100
O 	O 	0.79570 0.86850 0.97890 -0.23700
O 	O 	0.93410 0.82150 0.96580 -0.22900
W 	W 	0.33813 0.44138 0.80660 1.27100
P 	P 	0.36522 0.33297 0.55380 0.55000
O 	O 	0.42680 0.43110 0.89200 -0.42900
O 	O 	0.25030 0.46650 0.66830 -0.41200
O 	O 	0.29300 0.35030 0.83510 -0.45100
O 	O 	0.39260 0.39480 0.65140 -0.32900
O 	O 	0.34010 0.25750 0.61690 -0.35300
O 	O 	0.29570 0.36850 0.47890 -0.32100
O 	O 	0.43410 0.32150 0.46580 -0.37400
W 	W 	0.19138 0.41187 0.55660 1.27100
P 	P 	0.08297 0.38478 0.30380 0.54800
O 	O 	0.18110 0.32320 0.64200 -0.47000
O 	O 	0.21650 0.49970 0.41830 -0.40600
O 	O 	0.10030 0.45700 0.58510 -0.50000
O 	O 	0.14480 0.35740 0.40140 -0.34400
O 	O 	0.00750 0.40990 0.36690 -0.42800
O 	O 	0.11850 0.45430 0.22890 -0.34400
O 	O 	0.07150 0.31590 0.21580 -0.42300
W 	W 	0.69138 0.91187 0.05660 1.17800
P 	P 	0.58297 0.88478 0.80380 0.54600
O 	O 	0.68110 0.82320 0.14200 -0.44900
O 	O 	0.71650 0.99970 0.91830 -0.30600
O 	O 	0.60030 0.95700 0.08510 -0.43300
O 	O 	0.64480 0.85740 0.90140 -0.28900
O 	O 	0.50750 0.90990 0.86690 -0.29700
O 	O 	0.61850 0.95430 0.72890 -0.26400
O 	O 	0.57150 0.81590 0.71580 -0.36100
W 	W 	0.30862 0.58813 0.05660 1.18100
P 	P 	0.41703 0.61522 0.80380 0.54800
O 	O 	0.31890 0.67680 0.14200 -0.45000
O 	O 	0.28350 0.50030 0.91830 -0.38200
O 	O 	0.39970 0.54300 0.08510 -0.46300
O 	O 	0.35520 0.64260 0.90140 -0.29700
O 	O 	0.49250 0.59010 0.86690 -0.32500
O 	O 	0.38150 0.54570 0.72890 -0.31700
O 	O 	0.42850 0.68410 0.71580 -0.36700
W 	W 	0.80862 0.08813 0.55660 1.27100
P 	P 	0.91703 0.11522 0.30380 0.55000
O 	O 	0.81890 0.17680 0.64200 -0.43000
O 	O 	0.78350 0.00030 0.41830 -0.45800
O 	O 	0.89970 0.04300 0.58510 -0.40800
O 	O 	0.85520 0.14260 0.40140 -0.31800
O 	O 	0.99250 0.09010 0.36690 -0.26200
O 	O 	0.88150 0.04570 0.22890 -0.34900
O 	O 	0.92850 0.18410 0.21580 -0.30800
Ni	Ni	0.50000 0.75000 0.62500 1.14400
Ni	Ni	-0.00000 0.25000 0.12500 1.06300
Ni	Ni	0.00000 0.75000 0.87500 1.07200
Ni	Ni	0.50000 0.25000 0.37500 1.14000
Ni	Ni	0.25000 0.75000 0.25000 1.14600
Ni	Ni	0.25000 0.25000 0.75000 1.14800
Ni	Ni	0.00000 0.50000 0.50000 1.07200
Ni	Ni	0.50000 0.00000 -0.00000 1.09700
Ni	Ni	0.50000 0.50000 -0.00000 1.12500
Ni	Ni	0.00000 0.00000 0.50000 1.04000
Ni	Ni	0.75000 0.25000 0.75000 1.15100
Ni	Ni	0.75000 0.75000 0.25000 1.14900
