data_crystal

_cell_length_a 26.00870
_cell_length_b 26.00870
_cell_length_c 6.81310
_cell_angle_alpha 90.00000
_cell_angle_beta  90.00000
_cell_angle_gamma 120.00000

_symmetry_space_group_name_	'P 1'
_symmetry_space_group_name_H-M	'P 1'

loop_
_symmetry_equiv_pos_as_xyz
  x,y,z

loop_
_atom_site_label
_atom_site_type_symbol
_atom_site_fract_x
_atom_site_fract_y
_atom_site_fract_z
_atom_site_charge
Fe	Fe	0.38040 0.34790 0.14100 1.15800
O 	O 	0.32660 0.29680 0.34910 -0.57500
O 	O 	0.29970 0.22060 0.60800 -0.37600
O 	O 	0.35680 0.27300 0.00730 -0.53800
C 	C 	0.31750 0.24650 0.41450 0.29100
C 	C 	0.33360 0.20910 0.30050 -0.16600
C 	C 	0.34600 0.22590 0.09710 0.20200
C 	C 	0.35370 0.18230 0.98390 -0.05600
H 	H 	0.37010 0.19220 0.82000 0.06300
Fe	Fe	0.04707 0.68123 0.47433 1.15700
O 	O 	0.99327 0.63013 0.68243 -0.57500
O 	O 	0.96637 0.55393 0.94133 -0.37700
O 	O 	0.02347 0.60633 0.34063 -0.53900
C 	C 	0.98417 0.57983 0.74783 0.29100
C 	C 	0.00027 0.54243 0.63383 -0.16700
C 	C 	0.01267 0.55923 0.43043 0.20300
C 	C 	0.02037 0.51563 0.31723 -0.05600
H 	H 	0.03677 0.52553 0.15333 0.06300
Fe	Fe	0.71373 0.01457 0.80767 1.15800
O 	O 	0.65993 0.96347 0.01577 -0.57500
O 	O 	0.63303 0.88727 0.27467 -0.37700
O 	O 	0.69013 0.93967 0.67397 -0.53900
C 	C 	0.65083 0.91317 0.08117 0.29200
C 	C 	0.66693 0.87577 0.96717 -0.16700
C 	C 	0.67933 0.89257 0.76377 0.20300
C 	C 	0.68703 0.84897 0.65057 -0.05700
H 	H 	0.70343 0.85887 0.48667 0.06300
Fe	Fe	0.65210 0.03250 0.14100 1.15700
O 	O 	0.70320 0.02980 0.34910 -0.57500
O 	O 	0.77940 0.07910 0.60800 -0.37600
O 	O 	0.72700 0.08380 0.00730 -0.53900
C 	C 	0.75350 0.07100 0.41450 0.29100
C 	C 	0.79090 0.12450 0.30050 -0.16600
C 	C 	0.77410 0.12010 0.09710 0.20200
C 	C 	0.81770 0.17140 0.98390 -0.05500
H 	H 	0.80780 0.17790 0.82000 0.06300
Fe	Fe	0.31877 0.36583 0.47433 1.15700
O 	O 	0.36987 0.36313 0.68243 -0.57600
O 	O 	0.44607 0.41243 0.94133 -0.37700
O 	O 	0.39367 0.41713 0.34063 -0.53900
C 	C 	0.42017 0.40433 0.74783 0.29100
C 	C 	0.45757 0.45783 0.63383 -0.16700
C 	C 	0.44077 0.45343 0.43043 0.20300
C 	C 	0.48437 0.50473 0.31723 -0.05700
H 	H 	0.47447 0.51123 0.15333 0.06300
Fe	Fe	0.98543 0.69917 0.80767 1.15800
O 	O 	0.03653 0.69647 0.01577 -0.57500
O 	O 	0.11273 0.74577 0.27467 -0.37700
O 	O 	0.06033 0.75047 0.67397 -0.53900
C 	C 	0.08683 0.73767 0.08117 0.29200
C 	C 	0.12423 0.79117 0.96717 -0.16800
C 	C 	0.10743 0.78677 0.76377 0.20300
C 	C 	0.15103 0.83807 0.65057 -0.05700
H 	H 	0.14113 0.84457 0.48667 0.06300
Fe	Fe	0.96750 0.61960 0.14100 1.15700
O 	O 	0.97020 0.67340 0.34910 -0.57500
O 	O 	0.92090 0.70030 0.60800 -0.37700
O 	O 	0.91620 0.64320 0.00730 -0.53900
C 	C 	0.92900 0.68250 0.41450 0.29100
C 	C 	0.87550 0.66640 0.30050 -0.16600
C 	C 	0.87990 0.65400 0.09710 0.20200
C 	C 	0.82860 0.64630 0.98390 -0.05600
H 	H 	0.82210 0.62990 0.82000 0.06300
Fe	Fe	0.63417 0.95293 0.47433 1.15700
O 	O 	0.63687 0.00673 0.68243 -0.57500
O 	O 	0.58757 0.03363 0.94133 -0.37700
O 	O 	0.58287 0.97653 0.34063 -0.53900
C 	C 	0.59567 0.01583 0.74783 0.29100
C 	C 	0.54217 0.99973 0.63383 -0.16700
C 	C 	0.54657 0.98733 0.43043 0.20300
C 	C 	0.49527 0.97963 0.31723 -0.05600
H 	H 	0.48877 0.96323 0.15333 0.06300
Fe	Fe	0.30083 0.28627 0.80767 1.15700
O 	O 	0.30353 0.34007 0.01577 -0.57600
O 	O 	0.25423 0.36697 0.27467 -0.37700
O 	O 	0.24953 0.30987 0.67397 -0.53900
C 	C 	0.26233 0.34917 0.08117 0.29100
C 	C 	0.20883 0.33307 0.96717 -0.16700
C 	C 	0.21323 0.32067 0.76377 0.20300
C 	C 	0.16193 0.31297 0.65057 -0.05700
H 	H 	0.15543 0.29657 0.48667 0.06300
Fe	Fe	0.61960 0.65210 0.85900 1.15700
O 	O 	0.67340 0.70320 0.65090 -0.57600
O 	O 	0.70030 0.77940 0.39200 -0.37700
O 	O 	0.64320 0.72700 0.99270 -0.53900
C 	C 	0.68250 0.75350 0.58550 0.29100
C 	C 	0.66640 0.79090 0.69950 -0.16600
C 	C 	0.65400 0.77410 0.90290 0.20200
C 	C 	0.64630 0.81770 0.01610 -0.05600
H 	H 	0.62990 0.80780 0.18000 0.06300
Fe	Fe	0.28627 0.98543 0.19233 1.15800
O 	O 	0.34007 0.03653 0.98423 -0.57500
O 	O 	0.36697 0.11273 0.72533 -0.37700
O 	O 	0.30987 0.06033 0.32603 -0.53900
C 	C 	0.34917 0.08683 0.91883 0.29200
C 	C 	0.33307 0.12423 0.03283 -0.16700
C 	C 	0.32067 0.10743 0.23623 0.20300
C 	C 	0.31297 0.15103 0.34943 -0.05700
H 	H 	0.29657 0.14113 0.51333 0.06300
Fe	Fe	0.95293 0.31877 0.52567 1.15700
O 	O 	0.00673 0.36987 0.31757 -0.57500
O 	O 	0.03363 0.44607 0.05867 -0.37700
O 	O 	0.97653 0.39367 0.65937 -0.53900
C 	C 	0.01583 0.42017 0.25217 0.29100
C 	C 	0.99973 0.45757 0.36617 -0.16700
C 	C 	0.98733 0.44077 0.56957 0.20300
C 	C 	0.97963 0.48437 0.68277 -0.05600
H 	H 	0.96323 0.47447 0.84667 0.06300
Fe	Fe	0.34790 0.96750 0.85900 1.15700
O 	O 	0.29680 0.97020 0.65090 -0.57500
O 	O 	0.22060 0.92090 0.39200 -0.37600
O 	O 	0.27300 0.91620 0.99270 -0.53900
C 	C 	0.24650 0.92900 0.58550 0.29100
C 	C 	0.20910 0.87550 0.69950 -0.16600
C 	C 	0.22590 0.87990 0.90290 0.20200
C 	C 	0.18230 0.82860 0.01610 -0.05500
H 	H 	0.19220 0.82210 0.18000 0.06300
Fe	Fe	0.01457 0.30083 0.19233 1.15800
O 	O 	0.96347 0.30353 0.98423 -0.57500
O 	O 	0.88727 0.25423 0.72533 -0.37700
O 	O 	0.93967 0.24953 0.32603 -0.53900
C 	C 	0.91317 0.26233 0.91883 0.29200
C 	C 	0.87577 0.20883 0.03283 -0.16800
C 	C 	0.89257 0.21323 0.23623 0.20300
C 	C 	0.84897 0.16193 0.34943 -0.05700
H 	H 	0.85887 0.15543 0.51333 0.06300
Fe	Fe	0.68123 0.63417 0.52567 1.15700
O 	O 	0.63013 0.63687 0.31757 -0.57600
O 	O 	0.55393 0.58757 0.05867 -0.37700
O 	O 	0.60633 0.58287 0.65937 -0.53900
C 	C 	0.57983 0.59567 0.25217 0.29100
C 	C 	0.54243 0.54217 0.36617 -0.16700
C 	C 	0.55923 0.54657 0.56957 0.20300
C 	C 	0.51563 0.49527 0.68277 -0.05700
H 	H 	0.52553 0.48877 0.84667 0.06300
Fe	Fe	0.03250 0.38040 0.85900 1.15700
O 	O 	0.02980 0.32660 0.65090 -0.57500
O 	O 	0.07910 0.29970 0.39200 -0.37700
O 	O 	0.08380 0.35680 0.99270 -0.53900
C 	C 	0.07100 0.31750 0.58550 0.29100
C 	C 	0.12450 0.33360 0.69950 -0.16600
C 	C 	0.12010 0.34600 0.90290 0.20200
C 	C 	0.17140 0.35370 0.01610 -0.05600
H 	H 	0.17790 0.37010 0.18000 0.06300
Fe	Fe	0.69917 0.71373 0.19233 1.15700
O 	O 	0.69647 0.65993 0.98423 -0.57600
O 	O 	0.74577 0.63303 0.72533 -0.37700
O 	O 	0.75047 0.69013 0.32603 -0.53900
C 	C 	0.73767 0.65083 0.91883 0.29100
C 	C 	0.79117 0.66693 0.03283 -0.16700
C 	C 	0.78677 0.67933 0.23623 0.20300
C 	C 	0.83807 0.68703 0.34943 -0.05700
H 	H 	0.84457 0.70343 0.51333 0.06300
Fe	Fe	0.36583 0.04707 0.52567 1.15700
O 	O 	0.36313 0.99327 0.31757 -0.57500
O 	O 	0.41243 0.96637 0.05867 -0.37700
O 	O 	0.41713 0.02347 0.65937 -0.53900
C 	C 	0.40433 0.98417 0.25217 0.29100
C 	C 	0.45783 0.00027 0.36617 -0.16700
C 	C 	0.45343 0.01267 0.56957 0.20300
C 	C 	0.50473 0.02037 0.68277 -0.05600
H 	H 	0.51123 0.03677 0.84667 0.06300
