data_crystal

_cell_length_a 9.53840
_cell_length_b 12.17590
_cell_length_c 19.31300
_cell_angle_alpha 101.15200
_cell_angle_beta  100.35100
_cell_angle_gamma 105.30400

_symmetry_space_group_name_	'P 1'
_symmetry_space_group_name_H-M	'P 1'

loop_
_symmetry_equiv_pos_as_xyz
  x,y,z

loop_
_atom_site_label
_atom_site_type_symbol
_atom_site_fract_x
_atom_site_fract_y
_atom_site_fract_z
_atom_site_charge
Co	Co	0.99594 0.42270 0.64661 1.16500
Co	Co	0.00406 0.57730 0.35339 1.13200
Co	Co	0.00000 0.50000 0.50000 1.18000
Co	Co	0.50000 0.00000 -0.00000 1.10200
H 	H 	0.15290 0.25750 0.24720 0.56300
H 	H 	0.12950 0.31760 0.32190 0.58200
H 	H 	0.28020 0.36640 0.30020 0.58100
H 	H 	0.17330 0.04560 0.34420 0.51700
H 	H 	0.06730 0.12370 0.35240 0.53800
H 	H 	0.08550 0.07030 0.27510 0.54600
H 	H 	0.33000 0.14130 0.24500 0.62800
H 	H 	0.45730 0.25110 0.29710 0.64000
H 	H 	0.42220 0.12990 0.31770 0.62200
H 	H 	0.49480 0.41640 0.61450 -0.05000
H 	H 	0.55130 0.29800 0.41570 -0.11000
H 	H 	0.14000 0.28150 0.44150 -0.13300
H 	H 	0.70200 0.20710 0.20510 -0.03300
H 	H 	0.58940 0.91460 0.27610 -0.11600
H 	H 	0.83920 0.22030 0.41660 -0.10200
H 	H 	0.78440 0.86190 0.36480 0.56900
H 	H 	0.82890 0.88160 0.44950 0.55200
H 	H 	0.92030 0.96980 0.41240 0.54500
H 	H 	0.49160 0.95690 0.41340 0.52600
H 	H 	0.56440 0.87910 0.45470 0.53900
H 	H 	0.53020 0.85090 0.36960 0.55900
H 	H 	0.87420 0.13010 0.50010 0.54300
H 	H 	0.77090 0.03920 0.53130 0.50400
H 	H 	0.70970 0.13090 0.49910 0.53200
H 	H 	0.15790 0.29800 0.74130 -0.01700
H 	H 	0.12340 0.20000 0.82980 0.10300
H 	H 	0.69990 0.20650 0.79290 0.10600
H 	H 	0.74440 0.30100 0.70470 -0.02800
H 	H 	0.13960 0.24540 0.99830 0.05100
H 	H 	0.34870 0.19420 0.03950 0.00800
H 	H 	0.17690 0.88380 0.90830 -0.02800
H 	H 	0.96220 0.92470 0.86490 0.06000
H 	H 	0.84710 0.74250 0.75280 0.62600
H 	H 	0.87050 0.68240 0.67810 0.64900
H 	H 	0.71980 0.63360 0.69980 0.63700
H 	H 	0.82670 0.95440 0.65580 0.58800
H 	H 	0.93270 0.87630 0.64760 0.61900
H 	H 	0.91450 0.92970 0.72490 0.62300
H 	H 	0.67000 0.85870 0.75500 0.68100
H 	H 	0.54270 0.74890 0.70290 0.69000
H 	H 	0.57780 0.87010 0.68230 0.67500
H 	H 	0.50520 0.58360 0.38550 -0.05500
H 	H 	0.44870 0.70200 0.58430 -0.12000
H 	H 	0.86000 0.71850 0.55850 -0.13000
H 	H 	0.29800 0.79290 0.79490 0.00000
H 	H 	0.41060 0.08540 0.72390 -0.05000
H 	H 	0.16080 0.77970 0.58340 -0.06500
H 	H 	0.21560 0.13810 0.63520 0.45600
H 	H 	0.17110 0.11840 0.55050 0.43200
H 	H 	0.07970 0.03020 0.58760 0.40500
H 	H 	0.50840 0.04310 0.58660 0.42100
H 	H 	0.43560 0.12090 0.54530 0.44000
H 	H 	0.46980 0.14910 0.63040 0.46300
H 	H 	0.12580 0.86990 0.49990 0.42000
H 	H 	0.22910 0.96080 0.46870 0.39800
H 	H 	0.29030 0.86910 0.50090 0.42500
H 	H 	0.84210 0.70200 0.25870 -0.02700
H 	H 	0.87660 0.80000 0.17020 0.08300
H 	H 	0.30010 0.79350 0.20710 0.09700
H 	H 	0.25560 0.69900 0.29530 -0.02500
H 	H 	0.86040 0.75460 0.00170 0.11800
H 	H 	0.65130 0.80580 0.96050 -0.06300
H 	H 	0.82310 0.11620 0.09170 -0.01800
H 	H 	0.03780 0.07530 0.13510 0.00300
C 	C 	0.20140 0.29660 0.29730 -1.86500
C 	C 	0.13610 0.10290 0.32560 -1.82000
C 	C 	0.37940 0.18100 0.29490 -2.04400
C 	C 	0.30170 0.35370 0.53460 -0.31600
C 	C 	0.45550 0.38370 0.56483 0.22000
C 	C 	0.54850 0.36380 0.51956 -0.31900
C 	C 	0.48740 0.31030 0.44547 0.34300
C 	C 	0.33370 0.27470 0.41479 -0.63400
C 	C 	0.24250 0.30050 0.46079 0.33800
C 	C 	0.19910 0.37700 0.58223 0.37500
C 	C 	0.71600 0.39940 0.54584 0.42500
C 	C 	0.26790 0.21330 0.33390 1.40000
C 	C 	0.78680 0.23210 0.31275 -0.31900
C 	C 	0.70570 0.16960 0.24271 0.20700
C 	C 	0.63010 0.05030 0.22933 -0.33000
C 	C 	0.63680 0.99510 0.28592 0.34800
C 	C 	0.71330 0.05790 0.35733 -0.62600
C 	C 	0.78760 0.17660 0.36954 0.33200
C 	C 	0.87650 0.35800 0.32851 0.39200
C 	C 	0.54120 0.98180 0.15331 0.42900
C 	C 	0.71740 0.99430 0.41871 1.31100
C 	C 	0.82250 0.92000 0.41060 -1.82800
C 	C 	0.56140 0.91270 0.41360 -1.80100
C 	C 	0.77330 0.08190 0.49444 -1.77800
C 	C 	0.06460 0.27970 0.75200 0.06500
C 	C 	0.04510 0.22110 0.80560 -0.24000
C 	C 	0.90770 0.19420 0.82298 0.14400
C 	C 	0.79450 0.22480 0.78350 -0.21100
C 	C 	0.82230 0.28180 0.73084 0.08900
C 	C 	0.02860 0.09100 0.92451 0.03100
C 	C 	0.14510 0.17120 0.97850 -0.05300
C 	C 	0.27060 0.13940 0.00290 -0.04400
C 	C 	0.17010 0.95820 0.92660 0.09700
C 	C 	0.04070 0.98230 0.89970 -0.16100
C 	C 	0.79860 0.70340 0.70270 -2.03300
C 	C 	0.86390 0.89710 0.67440 -2.01100
C 	C 	0.62060 0.81900 0.70510 -2.20600
C 	C 	0.69830 0.64630 0.46540 -0.32600
C 	C 	0.54450 0.61630 0.43517 0.22900
C 	C 	0.45150 0.63620 0.48044 -0.33500
C 	C 	0.51260 0.68970 0.55453 0.37300
C 	C 	0.66630 0.72530 0.58521 -0.68500
C 	C 	0.75750 0.69950 0.53921 0.36200
C 	C 	0.80090 0.62300 0.41777 0.37300
C 	C 	0.28400 0.60060 0.45416 0.43300
C 	C 	0.73210 0.78670 0.66610 1.53200
C 	C 	0.21320 0.76790 0.68725 -0.25000
C 	C 	0.29430 0.83040 0.75729 0.10600
C 	C 	0.36990 0.94970 0.77067 -0.20000
C 	C 	0.36320 0.00490 0.71408 0.16100
C 	C 	0.28670 0.94210 0.64267 -0.43300
C 	C 	0.21240 0.82340 0.63046 0.20200
C 	C 	0.12350 0.64200 0.67149 0.36200
C 	C 	0.45880 0.01820 0.84669 0.34300
C 	C 	0.28260 0.00570 0.58129 1.01100
C 	C 	0.17750 0.08000 0.58940 -1.47500
C 	C 	0.43860 0.08730 0.58640 -1.48500
C 	C 	0.22670 0.91810 0.50556 -1.42500
C 	C 	0.93540 0.72030 0.24800 0.10500
C 	C 	0.95490 0.77890 0.19440 -0.16000
C 	C 	0.09230 0.80580 0.17702 0.07600
C 	C 	0.20550 0.77520 0.21650 -0.18800
C 	C 	0.17770 0.71820 0.26916 0.06300
C 	C 	0.97140 0.90900 0.07549 0.15100
C 	C 	0.85490 0.82880 0.02150 -0.28700
C 	C 	0.72940 0.86060 0.99710 0.23000
C 	C 	0.82990 0.04180 0.07340 0.06800
C 	C 	0.95930 0.01770 0.10030 -0.12800
S 	S 	0.86145 0.12301 0.89080 -0.07300
S 	S 	0.13855 0.87699 0.10920 -0.14400
N 	N 	0.95700 0.31170 0.71460 -0.24800
N 	N 	0.28570 0.03570 0.97724 -0.20500
N 	N 	0.04300 0.68830 0.28540 -0.28200
N 	N 	0.71430 0.96430 0.02276 -0.28100
O 	O 	0.06225 0.36882 0.55162 -0.55900
O 	O 	0.23980 0.40200 0.64926 -0.39700
O 	O 	0.77410 0.40196 0.61071 -0.48700
O 	O 	0.78750 0.42160 0.49890 -0.46000
O 	O 	0.87770 0.41396 0.27966 -0.42000
O 	O 	0.95740 0.40996 0.39196 -0.51000
O 	O 	0.52280 0.04354 0.10865 -0.48700
O 	O 	0.49240 0.87300 0.13928 -0.33400
O 	O 	0.93775 0.63118 0.44838 -0.52100
O 	O 	0.76020 0.59800 0.35074 -0.39000
O 	O 	0.22590 0.59804 0.38929 -0.49800
O 	O 	0.21250 0.57840 0.50110 -0.47500
O 	O 	0.12230 0.58604 0.72034 -0.43500
O 	O 	0.04260 0.59004 0.60804 -0.53900
O 	O 	0.47720 0.95646 0.89135 -0.43600
O 	O 	0.50760 0.12700 0.86072 -0.30100
