data_crystal

_cell_length_a 6.37580
_cell_length_b 6.88400
_cell_length_c 9.02540
_cell_angle_alpha 69.01000
_cell_angle_beta  85.19700
_cell_angle_gamma 79.45200

_symmetry_space_group_name_	'P 1'
_symmetry_space_group_name_H-M	'P 1'

loop_
_symmetry_equiv_pos_as_xyz
  x,y,z

loop_
_atom_site_label
_atom_site_type_symbol
_atom_site_fract_x
_atom_site_fract_y
_atom_site_fract_z
_atom_site_charge
V 	V 	-0.00000 0.50000 0.50000 1.65200
V 	V 	-0.00000 0.00000 0.50000 1.53300
H 	H 	0.82440 0.60860 0.99430 0.19800
H 	H 	0.06570 0.83740 0.31660 0.62300
H 	H 	0.17560 0.39140 0.00570 -0.12000
H 	H 	0.93430 0.16260 0.68340 0.43300
C 	C 	0.39610 0.54390 0.85860 -0.16900
C 	C 	0.26770 0.61880 0.71130 0.41400
C 	C 	0.59400 0.60640 0.85570 0.05600
C 	C 	0.71740 0.68590 0.70310 0.37300
C 	C 	0.69450 0.56410 0.99660 -0.08000
C 	C 	0.60390 0.45610 0.14140 0.05800
C 	C 	0.73230 0.38120 0.28870 0.36500
C 	C 	0.40600 0.39360 0.14430 -0.18500
C 	C 	0.28260 0.31410 0.29690 0.42700
C 	C 	0.30550 0.43590 0.00340 0.09300
O 	O 	0.01070 0.79890 0.39240 -1.25300
O 	O 	0.80670 0.84270 0.67910 -0.20800
O 	O 	0.17460 0.48870 0.68480 -0.64500
O 	O 	0.25200 0.81300 0.63100 -0.45000
O 	O 	0.73170 0.57790 0.61440 -0.34100
O 	O 	0.98930 0.20110 0.60760 -0.78100
O 	O 	0.19330 0.15730 0.32090 -0.72300
O 	O 	0.82540 0.51130 0.31520 -0.26800
O 	O 	0.74800 0.18700 0.36900 -0.41800
O 	O 	0.26830 0.42210 0.38560 -0.58400
