data_crystal

_cell_length_a 26.44730
_cell_length_b 17.94420
_cell_length_c 17.38040
_cell_angle_alpha 90.00000
_cell_angle_beta  90.00000
_cell_angle_gamma 90.00000

_symmetry_space_group_name_	'P 1'
_symmetry_space_group_name_H-M	'P 1'

loop_
_symmetry_equiv_pos_as_xyz
  x,y,z

loop_
_atom_site_label
_atom_site_type_symbol
_atom_site_fract_x
_atom_site_fract_y
_atom_site_fract_z
_atom_site_charge
O 	O 	0.92977 0.30226 0.43530 -0.51900
O 	O 	0.92575 0.28598 0.30908 -0.49000
O 	O 	0.11390 0.02876 0.33944 -0.41800
O 	O 	0.06750 0.96310 0.41950 -0.24100
N 	N 	0.04608 0.13568 0.33308 -0.21600
C 	C 	0.94037 0.26900 0.37500 0.52700
C 	C 	0.97399 0.20180 0.38120 -0.21500
C 	C 	0.01407 0.19290 0.33210 0.16300
H 	H 	0.01930 0.22970 0.29530 -0.00600
C 	C 	0.96660 0.14780 0.43430 0.11400
H 	H 	0.94050 0.15140 0.46990 0.02200
C 	C 	0.99860 0.08760 0.43450 -0.11600
H 	H 	0.99330 0.04920 0.46950 0.09600
C 	C 	0.03830 0.08340 0.38420 0.02300
C 	C 	0.07580 0.01910 0.38150 0.33000
O 	O 	0.92977 0.80226 0.93530 -0.51500
O 	O 	0.92575 0.78598 0.80908 -0.48800
O 	O 	0.11390 0.52876 0.83944 -0.41800
O 	O 	0.06750 0.46310 0.91950 -0.24200
N 	N 	0.04608 0.63568 0.83308 -0.21500
C 	C 	0.94037 0.76900 0.87500 0.52600
C 	C 	0.97399 0.70180 0.88120 -0.21200
C 	C 	0.01407 0.69290 0.83210 0.16100
H 	H 	0.01930 0.72970 0.79530 -0.00600
C 	C 	0.96660 0.64780 0.93430 0.11100
H 	H 	0.94050 0.65140 0.96990 0.02400
C 	C 	0.99860 0.58760 0.93450 -0.11300
H 	H 	0.99330 0.54920 0.96950 0.09600
C 	C 	0.03830 0.58340 0.88420 0.02100
C 	C 	0.07580 0.51910 0.88150 0.33100
O 	O 	0.42977 0.30226 0.93530 -0.51900
O 	O 	0.42575 0.28598 0.80908 -0.48900
O 	O 	0.61390 0.02876 0.83944 -0.41700
O 	O 	0.56750 0.96310 0.91950 -0.23700
N 	N 	0.54608 0.13568 0.83308 -0.21600
C 	C 	0.44037 0.26900 0.87500 0.52800
C 	C 	0.47399 0.20180 0.88120 -0.21600
C 	C 	0.51407 0.19290 0.83210 0.16400
H 	H 	0.51930 0.22970 0.79530 -0.00700
C 	C 	0.46660 0.14780 0.93430 0.11500
H 	H 	0.44050 0.15140 0.96990 0.02100
C 	C 	0.49860 0.08760 0.93450 -0.11900
H 	H 	0.49330 0.04920 0.96950 0.09600
C 	C 	0.53830 0.08340 0.88420 0.02500
C 	C 	0.57580 0.01910 0.88150 0.32600
O 	O 	0.42977 0.80226 0.43530 -0.51800
O 	O 	0.42575 0.78598 0.30908 -0.48900
O 	O 	0.61390 0.52876 0.33944 -0.41800
O 	O 	0.56750 0.46310 0.41950 -0.24100
N 	N 	0.54608 0.63568 0.33308 -0.21600
C 	C 	0.44037 0.76900 0.37500 0.52700
C 	C 	0.47399 0.70180 0.38120 -0.21500
C 	C 	0.51407 0.69290 0.33210 0.16400
H 	H 	0.51930 0.72970 0.29530 -0.00600
C 	C 	0.46660 0.64780 0.43430 0.11400
H 	H 	0.44050 0.65140 0.46990 0.02200
C 	C 	0.49860 0.58760 0.43450 -0.11700
H 	H 	0.49330 0.54920 0.46950 0.09600
C 	C 	0.53830 0.58340 0.38420 0.02400
C 	C 	0.57580 0.51910 0.38150 0.33000
O 	O 	0.82023 0.44774 0.43530 -0.51800
O 	O 	0.82425 0.46402 0.30908 -0.48900
O 	O 	0.63610 0.72124 0.33944 -0.41800
O 	O 	0.68250 0.78690 0.41950 -0.24100
N 	N 	0.70392 0.61432 0.33308 -0.21600
C 	C 	0.80963 0.48100 0.37500 0.52700
C 	C 	0.77601 0.54820 0.38120 -0.21500
C 	C 	0.73593 0.55710 0.33210 0.16400
H 	H 	0.73070 0.52030 0.29530 -0.00600
C 	C 	0.78340 0.60220 0.43430 0.11400
H 	H 	0.80950 0.59860 0.46990 0.02200
C 	C 	0.75140 0.66240 0.43450 -0.11700
H 	H 	0.75670 0.70080 0.46950 0.09600
C 	C 	0.71170 0.66660 0.38420 0.02400
C 	C 	0.67420 0.73090 0.38150 0.33000
O 	O 	0.82023 0.94774 0.93530 -0.51500
O 	O 	0.82425 0.96402 0.80908 -0.48900
O 	O 	0.63610 0.22124 0.83944 -0.41800
O 	O 	0.68250 0.28690 0.91950 -0.24100
N 	N 	0.70392 0.11432 0.83308 -0.21600
C 	C 	0.80963 0.98100 0.87500 0.52900
C 	C 	0.77601 0.04820 0.88120 -0.21800
C 	C 	0.73593 0.05710 0.83210 0.16500
H 	H 	0.73070 0.02030 0.79530 -0.00700
C 	C 	0.78340 0.10220 0.93430 0.11600
H 	H 	0.80950 0.09860 0.96990 0.02100
C 	C 	0.75140 0.16240 0.93450 -0.11800
H 	H 	0.75670 0.20080 0.96950 0.09600
C 	C 	0.71170 0.16660 0.88420 0.02400
C 	C 	0.67420 0.23090 0.88150 0.33000
O 	O 	0.32023 0.44774 0.93530 -0.51800
O 	O 	0.32425 0.46402 0.80908 -0.48900
O 	O 	0.13610 0.72124 0.83944 -0.41800
O 	O 	0.18250 0.78690 0.91950 -0.24000
N 	N 	0.20392 0.61432 0.83308 -0.21600
C 	C 	0.30963 0.48100 0.87500 0.52800
C 	C 	0.27601 0.54820 0.88120 -0.21600
C 	C 	0.23593 0.55710 0.83210 0.16400
H 	H 	0.23070 0.52030 0.79530 -0.00700
C 	C 	0.28340 0.60220 0.93430 0.11500
H 	H 	0.30950 0.59860 0.96990 0.02200
C 	C 	0.25140 0.66240 0.93450 -0.11800
H 	H 	0.25670 0.70080 0.96950 0.09700
C 	C 	0.21170 0.66660 0.88420 0.02400
C 	C 	0.17420 0.73090 0.88150 0.33000
O 	O 	0.32023 0.94774 0.43530 -0.51700
O 	O 	0.32425 0.96402 0.30908 -0.48900
O 	O 	0.13610 0.22124 0.33944 -0.41800
O 	O 	0.18250 0.28690 0.41950 -0.24100
N 	N 	0.20392 0.11432 0.33308 -0.21600
C 	C 	0.30963 0.98100 0.37500 0.52700
C 	C 	0.27601 0.04820 0.38120 -0.21500
C 	C 	0.23593 0.05710 0.33210 0.16300
H 	H 	0.23070 0.02030 0.29530 -0.00600
C 	C 	0.28340 0.10220 0.43430 0.11400
H 	H 	0.30950 0.09860 0.46990 0.02200
C 	C 	0.25140 0.16240 0.43450 -0.11700
H 	H 	0.25670 0.20080 0.46950 0.09600
C 	C 	0.21170 0.16660 0.38420 0.02300
C 	C 	0.17420 0.23090 0.38150 0.33000
O 	O 	0.82023 0.30226 0.31470 -0.51800
O 	O 	0.82425 0.28598 0.44092 -0.48900
O 	O 	0.63610 0.02876 0.41056 -0.41800
O 	O 	0.68250 0.96310 0.33050 -0.24200
N 	N 	0.70392 0.13568 0.41692 -0.21600
C 	C 	0.80963 0.26900 0.37500 0.52700
C 	C 	0.77601 0.20180 0.36880 -0.21500
C 	C 	0.73593 0.19290 0.41790 0.16400
H 	H 	0.73070 0.22970 0.45470 -0.00600
C 	C 	0.78340 0.14780 0.31570 0.11400
H 	H 	0.80950 0.15140 0.28010 0.02200
C 	C 	0.75140 0.08760 0.31550 -0.11700
H 	H 	0.75670 0.04920 0.28050 0.09600
C 	C 	0.71170 0.08340 0.36580 0.02300
C 	C 	0.67420 0.01910 0.36850 0.33200
O 	O 	0.82023 0.80226 0.81470 -0.51700
O 	O 	0.82425 0.78598 0.94092 -0.48600
O 	O 	0.63610 0.52876 0.91056 -0.41800
O 	O 	0.68250 0.46310 0.83050 -0.24100
N 	N 	0.70392 0.63568 0.91692 -0.21600
C 	C 	0.80963 0.76900 0.87500 0.52700
C 	C 	0.77601 0.70180 0.86880 -0.21500
C 	C 	0.73593 0.69290 0.91790 0.16400
H 	H 	0.73070 0.72970 0.95470 -0.00500
C 	C 	0.78340 0.64780 0.81570 0.11400
H 	H 	0.80950 0.65140 0.78010 0.02200
C 	C 	0.75140 0.58760 0.81550 -0.11700
H 	H 	0.75670 0.54920 0.78050 0.09600
C 	C 	0.71170 0.58340 0.86580 0.02300
C 	C 	0.67420 0.51910 0.86850 0.33000
O 	O 	0.32023 0.30226 0.81470 -0.51800
O 	O 	0.32425 0.28598 0.94092 -0.49000
O 	O 	0.13610 0.02876 0.91056 -0.41700
O 	O 	0.18250 0.96310 0.83050 -0.23700
N 	N 	0.20392 0.13568 0.91692 -0.21600
C 	C 	0.30963 0.26900 0.87500 0.52800
C 	C 	0.27601 0.20180 0.86880 -0.21600
C 	C 	0.23593 0.19290 0.91790 0.16400
H 	H 	0.23070 0.22970 0.95470 -0.00700
C 	C 	0.28340 0.14780 0.81570 0.11500
H 	H 	0.30950 0.15140 0.78010 0.02100
C 	C 	0.25140 0.08760 0.81550 -0.11800
H 	H 	0.25670 0.04920 0.78050 0.09600
C 	C 	0.21170 0.08340 0.86580 0.02400
C 	C 	0.17420 0.01910 0.86850 0.32500
O 	O 	0.32023 0.80226 0.31470 -0.51800
O 	O 	0.32425 0.78598 0.44092 -0.48900
O 	O 	0.13610 0.52876 0.41056 -0.41800
O 	O 	0.18250 0.46310 0.33050 -0.24100
N 	N 	0.20392 0.63568 0.41692 -0.21600
C 	C 	0.30963 0.76900 0.37500 0.52700
C 	C 	0.27601 0.70180 0.36880 -0.21500
C 	C 	0.23593 0.69290 0.41790 0.16400
H 	H 	0.23070 0.72970 0.45470 -0.00600
C 	C 	0.28340 0.64780 0.31570 0.11400
H 	H 	0.30950 0.65140 0.28010 0.02200
C 	C 	0.25140 0.58760 0.31550 -0.11700
H 	H 	0.25670 0.54920 0.28050 0.09600
C 	C 	0.21170 0.58340 0.36580 0.02400
C 	C 	0.17420 0.51910 0.36850 0.33000
O 	O 	0.92977 0.44774 0.31470 -0.51800
O 	O 	0.92575 0.46402 0.44092 -0.48900
O 	O 	0.11390 0.72124 0.41056 -0.41800
O 	O 	0.06750 0.78690 0.33050 -0.24100
N 	N 	0.04608 0.61432 0.41692 -0.21600
C 	C 	0.94037 0.48100 0.37500 0.52800
C 	C 	0.97399 0.54820 0.36880 -0.21700
C 	C 	0.01407 0.55710 0.41790 0.16500
H 	H 	0.01930 0.52030 0.45470 -0.00700
C 	C 	0.96660 0.60220 0.31570 0.11600
H 	H 	0.94050 0.59860 0.28010 0.02100
C 	C 	0.99860 0.66240 0.31550 -0.12000
H 	H 	0.99330 0.70080 0.28050 0.09600
C 	C 	0.03830 0.66660 0.36580 0.02500
C 	C 	0.07580 0.73090 0.36850 0.32900
O 	O 	0.92977 0.94774 0.81470 -0.51700
O 	O 	0.92575 0.96402 0.94092 -0.48500
O 	O 	0.11390 0.22124 0.91056 -0.41800
O 	O 	0.06750 0.28690 0.83050 -0.24100
N 	N 	0.04608 0.11432 0.91692 -0.21500
C 	C 	0.94037 0.98100 0.87500 0.52700
C 	C 	0.97399 0.04820 0.86880 -0.21200
C 	C 	0.01407 0.05710 0.91790 0.15900
H 	H 	0.01930 0.02030 0.95470 -0.00700
C 	C 	0.96660 0.10220 0.81570 0.11000
H 	H 	0.94050 0.09860 0.78010 0.02300
C 	C 	0.99860 0.16240 0.81550 -0.11200
H 	H 	0.99330 0.20080 0.78050 0.09500
C 	C 	0.03830 0.16660 0.86580 0.02000
C 	C 	0.07580 0.23090 0.86850 0.33000
O 	O 	0.42977 0.44774 0.81470 -0.51800
O 	O 	0.42575 0.46402 0.94092 -0.48900
O 	O 	0.61390 0.72124 0.91056 -0.41800
O 	O 	0.56750 0.78690 0.83050 -0.24000
N 	N 	0.54608 0.61432 0.91692 -0.21600
C 	C 	0.44037 0.48100 0.87500 0.52800
C 	C 	0.47399 0.54820 0.86880 -0.21600
C 	C 	0.51407 0.55710 0.91790 0.16400
H 	H 	0.51930 0.52030 0.95470 -0.00600
C 	C 	0.46660 0.60220 0.81570 0.11400
H 	H 	0.44050 0.59860 0.78010 0.02200
C 	C 	0.49860 0.66240 0.81550 -0.11700
H 	H 	0.49330 0.70080 0.78050 0.09600
C 	C 	0.53830 0.66660 0.86580 0.02400
C 	C 	0.57580 0.73090 0.86850 0.33000
O 	O 	0.42977 0.94774 0.31470 -0.51800
O 	O 	0.42575 0.96402 0.44092 -0.48800
O 	O 	0.61390 0.22124 0.41056 -0.41800
O 	O 	0.56750 0.28690 0.33050 -0.24100
N 	N 	0.54608 0.11432 0.41692 -0.21600
C 	C 	0.44037 0.98100 0.37500 0.52600
C 	C 	0.47399 0.04820 0.36880 -0.21400
C 	C 	0.51407 0.05710 0.41790 0.16300
H 	H 	0.51930 0.02030 0.45470 -0.00600
C 	C 	0.46660 0.10220 0.31570 0.11300
H 	H 	0.44050 0.09860 0.28010 0.02200
C 	C 	0.49860 0.16240 0.31550 -0.11700
H 	H 	0.49330 0.20080 0.28050 0.09600
C 	C 	0.53830 0.16660 0.36580 0.02300
C 	C 	0.57580 0.23090 0.36850 0.33000
O 	O 	0.07023 0.69774 0.56470 -0.51800
O 	O 	0.07425 0.71402 0.69092 -0.48900
O 	O 	0.88610 0.97124 0.66056 -0.41800
O 	O 	0.93250 0.03690 0.58050 -0.24100
N 	N 	0.95392 0.86432 0.66692 -0.21600
C 	C 	0.05963 0.73100 0.62500 0.52700
C 	C 	0.02601 0.79820 0.61880 -0.21500
C 	C 	0.98593 0.80710 0.66790 0.16300
H 	H 	0.98070 0.77030 0.70470 -0.00600
C 	C 	0.03340 0.85220 0.56570 0.11400
H 	H 	0.05950 0.84860 0.53010 0.02200
C 	C 	0.00140 0.91240 0.56550 -0.11600
H 	H 	0.00670 0.95080 0.53050 0.09600
C 	C 	0.96170 0.91660 0.61580 0.02300
C 	C 	0.92420 0.98090 0.61850 0.33000
O 	O 	0.07023 0.19774 0.06470 -0.51500
O 	O 	0.07425 0.21402 0.19092 -0.48800
O 	O 	0.88610 0.47124 0.16056 -0.41800
O 	O 	0.93250 0.53690 0.08050 -0.24200
N 	N 	0.95392 0.36432 0.16692 -0.21500
C 	C 	0.05963 0.23100 0.12500 0.52600
C 	C 	0.02601 0.29820 0.11880 -0.21200
C 	C 	0.98593 0.30710 0.16790 0.16100
H 	H 	0.98070 0.27030 0.20470 -0.00600
C 	C 	0.03340 0.35220 0.06570 0.11100
H 	H 	0.05950 0.34860 0.03010 0.02400
C 	C 	0.00140 0.41240 0.06550 -0.11300
H 	H 	0.00670 0.45080 0.03050 0.09600
C 	C 	0.96170 0.41660 0.11580 0.02100
C 	C 	0.92420 0.48090 0.11850 0.33100
O 	O 	0.57023 0.69774 0.06470 -0.51900
O 	O 	0.57425 0.71402 0.19092 -0.48900
O 	O 	0.38610 0.97124 0.16056 -0.41700
O 	O 	0.43250 0.03690 0.08050 -0.23700
N 	N 	0.45392 0.86432 0.16692 -0.21600
C 	C 	0.55963 0.73100 0.12500 0.52800
C 	C 	0.52601 0.79820 0.11880 -0.21600
C 	C 	0.48593 0.80710 0.16790 0.16400
H 	H 	0.48070 0.77030 0.20470 -0.00700
C 	C 	0.53340 0.85220 0.06570 0.11500
H 	H 	0.55950 0.84860 0.03010 0.02100
C 	C 	0.50140 0.91240 0.06550 -0.11900
H 	H 	0.50670 0.95080 0.03050 0.09600
C 	C 	0.46170 0.91660 0.11580 0.02500
C 	C 	0.42420 0.98090 0.11850 0.32600
O 	O 	0.57023 0.19774 0.56470 -0.51800
O 	O 	0.57425 0.21402 0.69092 -0.48900
O 	O 	0.38610 0.47124 0.66056 -0.41800
O 	O 	0.43250 0.53690 0.58050 -0.24100
N 	N 	0.45392 0.36432 0.66692 -0.21600
C 	C 	0.55963 0.23100 0.62500 0.52700
C 	C 	0.52601 0.29820 0.61880 -0.21500
C 	C 	0.48593 0.30710 0.66790 0.16400
H 	H 	0.48070 0.27030 0.70470 -0.00600
C 	C 	0.53340 0.35220 0.56570 0.11400
H 	H 	0.55950 0.34860 0.53010 0.02200
C 	C 	0.50140 0.41240 0.56550 -0.11700
H 	H 	0.50670 0.45080 0.53050 0.09600
C 	C 	0.46170 0.41660 0.61580 0.02400
C 	C 	0.42420 0.48090 0.61850 0.33000
O 	O 	0.17977 0.55226 0.56470 -0.51800
O 	O 	0.17575 0.53598 0.69092 -0.48900
O 	O 	0.36390 0.27876 0.66056 -0.41800
O 	O 	0.31750 0.21310 0.58050 -0.24100
N 	N 	0.29608 0.38568 0.66692 -0.21600
C 	C 	0.19037 0.51900 0.62500 0.52700
C 	C 	0.22399 0.45180 0.61880 -0.21500
C 	C 	0.26407 0.44290 0.66790 0.16400
H 	H 	0.26930 0.47970 0.70470 -0.00600
C 	C 	0.21660 0.39780 0.56570 0.11400
H 	H 	0.19050 0.40140 0.53010 0.02200
C 	C 	0.24860 0.33760 0.56550 -0.11700
H 	H 	0.24330 0.29920 0.53050 0.09600
C 	C 	0.28830 0.33340 0.61580 0.02400
C 	C 	0.32580 0.26910 0.61850 0.33000
O 	O 	0.17977 0.05226 0.06470 -0.51500
O 	O 	0.17575 0.03598 0.19092 -0.48900
O 	O 	0.36390 0.77876 0.16056 -0.41800
O 	O 	0.31750 0.71310 0.08050 -0.24100
N 	N 	0.29608 0.88568 0.16692 -0.21600
C 	C 	0.19037 0.01900 0.12500 0.52900
C 	C 	0.22399 0.95180 0.11880 -0.21800
C 	C 	0.26407 0.94290 0.16790 0.16500
H 	H 	0.26930 0.97970 0.20470 -0.00700
C 	C 	0.21660 0.89780 0.06570 0.11600
H 	H 	0.19050 0.90140 0.03010 0.02100
C 	C 	0.24860 0.83760 0.06550 -0.11800
H 	H 	0.24330 0.79920 0.03050 0.09600
C 	C 	0.28830 0.83340 0.11580 0.02400
C 	C 	0.32580 0.76910 0.11850 0.33000
O 	O 	0.67977 0.55226 0.06470 -0.51800
O 	O 	0.67575 0.53598 0.19092 -0.48900
O 	O 	0.86390 0.27876 0.16056 -0.41800
O 	O 	0.81750 0.21310 0.08050 -0.24000
N 	N 	0.79608 0.38568 0.16692 -0.21600
C 	C 	0.69037 0.51900 0.12500 0.52800
C 	C 	0.72399 0.45180 0.11880 -0.21600
C 	C 	0.76407 0.44290 0.16790 0.16400
H 	H 	0.76930 0.47970 0.20470 -0.00700
C 	C 	0.71660 0.39780 0.06570 0.11500
H 	H 	0.69050 0.40140 0.03010 0.02200
C 	C 	0.74860 0.33760 0.06550 -0.11800
H 	H 	0.74330 0.29920 0.03050 0.09700
C 	C 	0.78830 0.33340 0.11580 0.02400
C 	C 	0.82580 0.26910 0.11850 0.33000
O 	O 	0.67977 0.05226 0.56470 -0.51700
O 	O 	0.67575 0.03598 0.69092 -0.48900
O 	O 	0.86390 0.77876 0.66056 -0.41800
O 	O 	0.81750 0.71310 0.58050 -0.24100
N 	N 	0.79608 0.88568 0.66692 -0.21600
C 	C 	0.69037 0.01900 0.62500 0.52700
C 	C 	0.72399 0.95180 0.61880 -0.21500
C 	C 	0.76407 0.94290 0.66790 0.16300
H 	H 	0.76930 0.97970 0.70470 -0.00600
C 	C 	0.71660 0.89780 0.56570 0.11400
H 	H 	0.69050 0.90140 0.53010 0.02200
C 	C 	0.74860 0.83760 0.56550 -0.11700
H 	H 	0.74330 0.79920 0.53050 0.09600
C 	C 	0.78830 0.83340 0.61580 0.02300
C 	C 	0.82580 0.76910 0.61850 0.33000
O 	O 	0.17977 0.69774 0.68530 -0.51800
O 	O 	0.17575 0.71402 0.55908 -0.48900
O 	O 	0.36390 0.97124 0.58944 -0.41800
O 	O 	0.31750 0.03690 0.66950 -0.24200
N 	N 	0.29608 0.86432 0.58308 -0.21600
C 	C 	0.19037 0.73100 0.62500 0.52700
C 	C 	0.22399 0.79820 0.63120 -0.21500
C 	C 	0.26407 0.80710 0.58210 0.16400
H 	H 	0.26930 0.77030 0.54530 -0.00600
C 	C 	0.21660 0.85220 0.68430 0.11400
H 	H 	0.19050 0.84860 0.71990 0.02200
C 	C 	0.24860 0.91240 0.68450 -0.11700
H 	H 	0.24330 0.95080 0.71950 0.09600
C 	C 	0.28830 0.91660 0.63420 0.02300
C 	C 	0.32580 0.98090 0.63150 0.33200
O 	O 	0.17977 0.19774 0.18530 -0.51700
O 	O 	0.17575 0.21402 0.05908 -0.48600
O 	O 	0.36390 0.47124 0.08944 -0.41800
O 	O 	0.31750 0.53690 0.16950 -0.24100
N 	N 	0.29608 0.36432 0.08308 -0.21600
C 	C 	0.19037 0.23100 0.12500 0.52700
C 	C 	0.22399 0.29820 0.13120 -0.21500
C 	C 	0.26407 0.30710 0.08210 0.16400
H 	H 	0.26930 0.27030 0.04530 -0.00500
C 	C 	0.21660 0.35220 0.18430 0.11400
H 	H 	0.19050 0.34860 0.21990 0.02200
C 	C 	0.24860 0.41240 0.18450 -0.11700
H 	H 	0.24330 0.45080 0.21950 0.09600
C 	C 	0.28830 0.41660 0.13420 0.02300
C 	C 	0.32580 0.48090 0.13150 0.33000
O 	O 	0.67977 0.69774 0.18530 -0.51800
O 	O 	0.67575 0.71402 0.05908 -0.49000
O 	O 	0.86390 0.97124 0.08944 -0.41700
O 	O 	0.81750 0.03690 0.16950 -0.23700
N 	N 	0.79608 0.86432 0.08308 -0.21600
C 	C 	0.69037 0.73100 0.12500 0.52800
C 	C 	0.72399 0.79820 0.13120 -0.21600
C 	C 	0.76407 0.80710 0.08210 0.16400
H 	H 	0.76930 0.77030 0.04530 -0.00700
C 	C 	0.71660 0.85220 0.18430 0.11500
H 	H 	0.69050 0.84860 0.21990 0.02100
C 	C 	0.74860 0.91240 0.18450 -0.11800
H 	H 	0.74330 0.95080 0.21950 0.09600
C 	C 	0.78830 0.91660 0.13420 0.02400
C 	C 	0.82580 0.98090 0.13150 0.32500
O 	O 	0.67977 0.19774 0.68530 -0.51800
O 	O 	0.67575 0.21402 0.55908 -0.48900
O 	O 	0.86390 0.47124 0.58944 -0.41800
O 	O 	0.81750 0.53690 0.66950 -0.24100
N 	N 	0.79608 0.36432 0.58308 -0.21600
C 	C 	0.69037 0.23100 0.62500 0.52700
C 	C 	0.72399 0.29820 0.63120 -0.21500
C 	C 	0.76407 0.30710 0.58210 0.16400
H 	H 	0.76930 0.27030 0.54530 -0.00600
C 	C 	0.71660 0.35220 0.68430 0.11400
H 	H 	0.69050 0.34860 0.71990 0.02200
C 	C 	0.74860 0.41240 0.68450 -0.11700
H 	H 	0.74330 0.45080 0.71950 0.09600
C 	C 	0.78830 0.41660 0.63420 0.02400
C 	C 	0.82580 0.48090 0.63150 0.33000
O 	O 	0.07023 0.55226 0.68530 -0.51800
O 	O 	0.07425 0.53598 0.55908 -0.48900
O 	O 	0.88610 0.27876 0.58944 -0.41800
O 	O 	0.93250 0.21310 0.66950 -0.24100
N 	N 	0.95392 0.38568 0.58308 -0.21600
C 	C 	0.05963 0.51900 0.62500 0.52800
C 	C 	0.02601 0.45180 0.63120 -0.21700
C 	C 	0.98593 0.44290 0.58210 0.16500
H 	H 	0.98070 0.47970 0.54530 -0.00700
C 	C 	0.03340 0.39780 0.68430 0.11600
H 	H 	0.05950 0.40140 0.71990 0.02100
C 	C 	0.00140 0.33760 0.68450 -0.12000
H 	H 	0.00670 0.29920 0.71950 0.09600
C 	C 	0.96170 0.33340 0.63420 0.02500
C 	C 	0.92420 0.26910 0.63150 0.32900
O 	O 	0.07023 0.05226 0.18530 -0.51700
O 	O 	0.07425 0.03598 0.05908 -0.48500
O 	O 	0.88610 0.77876 0.08944 -0.41800
O 	O 	0.93250 0.71310 0.16950 -0.24100
N 	N 	0.95392 0.88568 0.08308 -0.21500
C 	C 	0.05963 0.01900 0.12500 0.52700
C 	C 	0.02601 0.95180 0.13120 -0.21200
C 	C 	0.98593 0.94290 0.08210 0.15900
H 	H 	0.98070 0.97970 0.04530 -0.00700
C 	C 	0.03340 0.89780 0.18430 0.11000
H 	H 	0.05950 0.90140 0.21990 0.02300
C 	C 	0.00140 0.83760 0.18450 -0.11200
H 	H 	0.00670 0.79920 0.21950 0.09500
C 	C 	0.96170 0.83340 0.13420 0.02000
C 	C 	0.92420 0.76910 0.13150 0.33000
O 	O 	0.57023 0.55226 0.18530 -0.51800
O 	O 	0.57425 0.53598 0.05908 -0.48900
O 	O 	0.38610 0.27876 0.08944 -0.41800
O 	O 	0.43250 0.21310 0.16950 -0.24000
N 	N 	0.45392 0.38568 0.08308 -0.21600
C 	C 	0.55963 0.51900 0.12500 0.52800
C 	C 	0.52601 0.45180 0.13120 -0.21600
C 	C 	0.48593 0.44290 0.08210 0.16400
H 	H 	0.48070 0.47970 0.04530 -0.00600
C 	C 	0.53340 0.39780 0.18430 0.11400
H 	H 	0.55950 0.40140 0.21990 0.02200
C 	C 	0.50140 0.33760 0.18450 -0.11700
H 	H 	0.50670 0.29920 0.21950 0.09600
C 	C 	0.46170 0.33340 0.13420 0.02400
C 	C 	0.42420 0.26910 0.13150 0.33000
O 	O 	0.57023 0.05226 0.68530 -0.51800
O 	O 	0.57425 0.03598 0.55908 -0.48800
O 	O 	0.38610 0.77876 0.58944 -0.41800
O 	O 	0.43250 0.71310 0.66950 -0.24100
N 	N 	0.45392 0.88568 0.58308 -0.21600
C 	C 	0.55963 0.01900 0.62500 0.52600
C 	C 	0.52601 0.95180 0.63120 -0.21400
C 	C 	0.48593 0.94290 0.58210 0.16300
H 	H 	0.48070 0.97970 0.54530 -0.00600
C 	C 	0.53340 0.89780 0.68430 0.11300
H 	H 	0.55950 0.90140 0.71990 0.02200
C 	C 	0.50140 0.83760 0.68450 -0.11700
H 	H 	0.50670 0.79920 0.71950 0.09600
C 	C 	0.46170 0.83340 0.63420 0.02300
C 	C 	0.42420 0.76910 0.63150 0.33000
Er	Er	0.87500 0.37500 0.50283 1.88700
Er	Er	0.87500 0.87500 0.00283 1.87800
Er	Er	0.37500 0.37500 0.00283 1.89100
Er	Er	0.37500 0.87500 0.50283 1.88600
Er	Er	0.87500 0.37500 0.24717 1.88700
Er	Er	0.87500 0.87500 0.74717 1.88700
Er	Er	0.37500 0.37500 0.74717 1.88700
Er	Er	0.37500 0.87500 0.24717 1.88600
Er	Er	0.12500 0.62500 0.49717 1.88700
Er	Er	0.12500 0.12500 0.99717 1.87800
Er	Er	0.62500 0.62500 0.99717 1.89100
Er	Er	0.62500 0.12500 0.49717 1.88600
Er	Er	0.12500 0.62500 0.75283 1.88700
Er	Er	0.12500 0.12500 0.25283 1.88700
Er	Er	0.62500 0.62500 0.25283 1.88700
Er	Er	0.62500 0.12500 0.75283 1.88600
