data_crystal

_cell_length_a 9.79320
_cell_length_b 10.65920
_cell_length_c 17.56430
_cell_angle_alpha 83.84600
_cell_angle_beta  86.31800
_cell_angle_gamma 65.18400

_symmetry_space_group_name_	'P 1'
_symmetry_space_group_name_H-M	'P 1'

loop_
_symmetry_equiv_pos_as_xyz
  x,y,z

loop_
_atom_site_label
_atom_site_type_symbol
_atom_site_fract_x
_atom_site_fract_y
_atom_site_fract_z
_atom_site_charge
U 	U 	0.94280 0.18545 0.75110 0.01300
U 	U 	0.31303 0.28899 0.74961 0.01100
U 	U 	0.62490 0.73917 0.75104 0.01900
P 	P 	0.68630 0.02060 0.81288 0.38500
P 	P 	0.00650 0.50380 0.68074 0.38500
P 	P 	0.75470 0.02660 0.17183 0.37800
P 	P 	0.57550 0.45170 0.67835 0.38200
O 	O 	0.79390 0.06760 0.76570 -0.15300
O 	O 	0.72210 0.86910 0.80430 -0.16000
O 	O 	0.52350 0.11230 0.79330 -0.16300
O 	O 	0.03530 0.35890 0.72030 -0.14700
O 	O 	0.14540 0.52390 0.69940 -0.16700
O 	O 	0.86210 0.61730 0.70500 -0.16300
O 	O 	0.78740 0.87790 0.20920 -0.14300
O 	O 	0.89830 0.04270 0.18640 -0.16700
O 	O 	0.61270 0.13830 0.20240 -0.16000
O 	O 	0.74050 0.35190 0.68840 -0.16200
O 	O 	0.47180 0.39900 0.72490 -0.15600
O 	O 	0.54670 0.59810 0.69880 -0.15300
C 	C 	0.58790 0.10920 0.95750 -0.02900
H 	H 	0.49300 0.16380 0.93490 0.07600
C 	C 	0.70540 0.03190 0.91240 -0.01400
C 	C 	0.83970 0.95500 0.94850 -0.02900
H 	H 	0.92650 0.90450 0.91900 0.08000
C 	C 	0.92890 0.62240 0.53320 -0.02600
H 	H 	0.88000 0.70750 0.55600 0.07500
C 	C 	0.99930 0.49970 0.58110 -0.02800
C 	C 	0.07270 0.37520 0.54540 -0.02800
H 	H 	0.12300 0.28990 0.57540 0.07900
C 	C 	0.85060 0.95100 0.02600 -0.02100
H 	H 	0.94340 0.89130 0.04910 0.06900
C 	C 	0.73600 0.02820 0.07140 -0.02400
C 	C 	0.60280 0.11030 0.03430 -0.02200
H 	H 	0.51930 0.16920 0.06310 0.07600
C 	C 	0.38800 0.51010 0.55410 -0.02500
H 	H 	0.31040 0.51780 0.59110 0.08000
C 	C 	0.53490 0.47120 0.57910 -0.01400
C 	C 	0.64720 0.46260 0.52280 -0.01900
H 	H 	0.74740 0.43790 0.53770 0.06600
U 	U 	0.05720 0.81455 0.24890 0.01200
U 	U 	0.68697 0.71101 0.25039 0.01000
U 	U 	0.37510 0.26083 0.24896 0.01900
P 	P 	0.31370 0.97940 0.18712 0.38500
P 	P 	0.99350 0.49620 0.31926 0.38500
P 	P 	0.24530 0.97340 0.82817 0.37800
P 	P 	0.42450 0.54830 0.32165 0.38200
O 	O 	0.20610 0.93240 0.23430 -0.15300
O 	O 	0.27790 0.13090 0.19570 -0.16000
O 	O 	0.47650 0.88770 0.20670 -0.16300
O 	O 	0.96470 0.64110 0.27970 -0.14700
O 	O 	0.85460 0.47610 0.30060 -0.16700
O 	O 	0.13790 0.38270 0.29500 -0.16300
O 	O 	0.21260 0.12210 0.79080 -0.14300
O 	O 	0.10170 0.95730 0.81360 -0.16700
O 	O 	0.38730 0.86170 0.79760 -0.16000
O 	O 	0.25950 0.64810 0.31160 -0.16200
O 	O 	0.52820 0.60100 0.27510 -0.15600
O 	O 	0.45330 0.40190 0.30120 -0.15300
C 	C 	0.41210 0.89080 0.04250 -0.02900
H 	H 	0.50700 0.83620 0.06510 0.07600
C 	C 	0.29460 0.96810 0.08760 -0.01400
C 	C 	0.16030 0.04500 0.05150 -0.02900
H 	H 	0.07350 0.09550 0.08100 0.08000
C 	C 	0.07110 0.37760 0.46680 -0.02600
H 	H 	0.12000 0.29250 0.44400 0.07500
C 	C 	0.00070 0.50030 0.41890 -0.02800
C 	C 	0.92730 0.62480 0.45460 -0.02800
H 	H 	0.87700 0.71010 0.42460 0.07900
C 	C 	0.14940 0.04900 0.97400 -0.02100
H 	H 	0.05660 0.10870 0.95090 0.06900
C 	C 	0.26400 0.97180 0.92860 -0.02400
C 	C 	0.39720 0.88970 0.96570 -0.02200
H 	H 	0.48070 0.83080 0.93690 0.07600
C 	C 	0.61200 0.48990 0.44590 -0.02500
H 	H 	0.68960 0.48220 0.40890 0.08000
C 	C 	0.46510 0.52880 0.42090 -0.01400
C 	C 	0.35280 0.53740 0.47720 -0.01900
H 	H 	0.25260 0.56210 0.46230 0.06600
