data_crystal

_cell_length_a 8.81050
_cell_length_b 12.00840
_cell_length_c 12.34930
_cell_angle_alpha 63.51800
_cell_angle_beta  89.23300
_cell_angle_gamma 89.59000

_symmetry_space_group_name_	'P 1'
_symmetry_space_group_name_H-M	'P 1'

loop_
_symmetry_equiv_pos_as_xyz
  x,y,z

loop_
_atom_site_label
_atom_site_type_symbol
_atom_site_fract_x
_atom_site_fract_y
_atom_site_fract_z
_atom_site_charge
U 	U 	0.97951 0.55022 0.72784 0.01200
P 	P 	0.82400 0.86529 0.57694 0.42700
O 	O 	0.80450 0.72840 0.65450 -0.20500
O 	O 	0.90960 0.89970 0.45970 -0.26900
O 	O 	0.90310 0.92260 0.65310 -0.43800
H 	H 	0.96040 0.97850 0.60930 0.30500
C 	C 	0.64060 0.93940 0.53660 -0.03400
C 	C 	0.63240 0.06920 0.47580 -0.02100
H 	H 	0.72070 0.11630 0.45940 0.06600
C 	C 	0.50510 0.87270 0.55960 -0.01400
H 	H 	0.50840 0.78630 0.60020 0.05300
P 	P 	0.82640 0.62712 0.41964 0.42300
O 	O 	0.92310 0.59840 0.52790 -0.18300
O 	O 	0.79620 0.77230 0.35510 -0.39700
H 	H 	0.83560 0.80450 0.39400 0.29700
O 	O 	0.88840 0.59220 0.32530 -0.16200
C 	C 	0.64240 0.55820 0.46370 -0.01700
C 	C 	0.57130 0.50760 0.39560 -0.02000
H 	H 	0.61880 0.51100 0.32650 0.07000
C 	C 	0.57090 0.54810 0.56910 -0.02700
H 	H 	0.61880 0.57910 0.61660 0.07100
P 	P 	0.82630 0.62700 0.97023 0.42500
O 	O 	0.92820 0.59430 0.89100 -0.18200
O 	O 	0.88490 0.59830 0.09450 -0.15900
O 	O 	0.79670 0.77120 0.90040 -0.39800
H 	H 	0.83440 0.79840 0.83240 0.30400
C 	C 	0.64260 0.55610 0.98840 -0.01600
C 	C 	0.54790 0.58760 0.88710 -0.02000
H 	H 	0.58030 0.64630 0.81110 0.06600
C 	C 	0.59080 0.46760 0.09980 -0.02300
H 	H 	0.65180 0.44520 0.16720 0.06800
U 	U 	0.02049 0.44978 0.27216 0.01100
P 	P 	0.17600 0.13471 0.42306 0.42600
O 	O 	0.19550 0.27160 0.34550 -0.20600
O 	O 	0.09040 0.10030 0.54030 -0.27000
O 	O 	0.09690 0.07740 0.34690 -0.43800
H 	H 	0.03960 0.02150 0.39070 0.30500
C 	C 	0.35940 0.06060 0.46340 -0.03400
C 	C 	0.36760 0.93080 0.52420 -0.02100
H 	H 	0.27930 0.88370 0.54060 0.06600
C 	C 	0.49490 0.12730 0.44040 -0.01400
H 	H 	0.49160 0.21370 0.39980 0.05300
P 	P 	0.17360 0.37288 0.58036 0.42300
O 	O 	0.07690 0.40160 0.47210 -0.18300
O 	O 	0.20380 0.22770 0.64490 -0.39700
H 	H 	0.16440 0.19550 0.60600 0.29700
O 	O 	0.11160 0.40780 0.67470 -0.16200
C 	C 	0.35760 0.44180 0.53630 -0.01700
C 	C 	0.42870 0.49240 0.60440 -0.02000
H 	H 	0.38120 0.48900 0.67350 0.07000
C 	C 	0.42910 0.45190 0.43090 -0.02700
H 	H 	0.38120 0.42090 0.38340 0.07100
P 	P 	0.17370 0.37300 0.02977 0.42500
O 	O 	0.07180 0.40570 0.10900 -0.18200
O 	O 	0.11510 0.40170 0.90550 -0.15900
O 	O 	0.20330 0.22880 0.09960 -0.39800
H 	H 	0.16560 0.20160 0.16760 0.30400
C 	C 	0.35740 0.44390 0.01160 -0.01600
C 	C 	0.45210 0.41240 0.11290 -0.02000
H 	H 	0.41970 0.35370 0.18890 0.06600
C 	C 	0.40920 0.53240 0.90020 -0.02300
H 	H 	0.34820 0.55480 0.83280 0.06800
