data_crystal

_cell_length_a 9.80510
_cell_length_b 19.56960
_cell_length_c 17.33900
_cell_angle_alpha 90.00000
_cell_angle_beta  92.01500
_cell_angle_gamma 90.00000

_symmetry_space_group_name_	'P 1'
_symmetry_space_group_name_H-M	'P 1'

loop_
_symmetry_equiv_pos_as_xyz
  x,y,z

loop_
_atom_site_label
_atom_site_type_symbol
_atom_site_fract_x
_atom_site_fract_y
_atom_site_fract_z
_atom_site_charge
U 	U 	0.71422 0.25837 0.01197 0.01400
U 	U 	0.29220 0.23707 0.96406 0.01400
U 	U 	0.25287 0.36571 0.24235 0.02000
P 	P 	0.50850 0.35769 0.08687 0.38100
O 	O 	0.66000 0.34640 0.10670 -0.16200
O 	O 	0.47100 0.30040 0.02910 -0.14900
O 	O 	0.42100 0.35840 0.15660 -0.16000
C 	C 	0.49430 0.43740 0.03710 -0.02600
C 	C 	0.50950 0.44000 0.95750 -0.03100
H 	H 	0.51750 0.39900 0.92870 0.07900
P 	P 	0.49520 0.13306 0.89535 0.37800
O 	O 	0.53600 0.19470 0.94670 -0.14700
O 	O 	0.34460 0.14530 0.87330 -0.16000
O 	O 	0.58520 0.12170 0.82700 -0.16100
C 	C 	0.50530 0.05880 0.95490 -0.02600
C 	C 	0.48720 0.49850 0.07830 -0.02700
H 	H 	0.48000 0.49700 0.13280 0.07300
C 	C 	0.49840 0.06340 0.03640 -0.03000
H 	H 	0.49650 0.10690 0.06060 0.08100
C 	C 	0.50540 0.99450 0.91990 -0.02700
H 	H 	0.50820 0.99110 0.86540 0.07200
P 	P 	0.96170 0.14567 0.91634 0.38500
O 	O 	0.08860 0.18950 0.92030 -0.15200
O 	O 	0.92630 0.12460 0.83230 -0.15400
O 	O 	0.84120 0.18050 0.95140 -0.16200
C 	C 	0.98660 0.06600 0.96770 -0.01300
C 	C 	0.11170 0.03180 0.96970 -0.02400
H 	H 	0.18860 0.05280 0.94770 0.07300
C 	C 	0.87410 0.03300 0.99640 -0.02200
H 	H 	0.78700 0.05430 0.99310 0.06800
P 	P 	0.04580 0.34712 0.06297 0.38700
O 	O 	0.08920 0.35640 0.14780 -0.15400
O 	O 	0.91910 0.30380 0.05550 -0.15500
O 	O 	0.16290 0.31750 0.01960 -0.16400
C 	C 	0.01450 0.43230 0.02570 -0.01400
C 	C 	0.12660 0.46980 0.99940 -0.02100
H 	H 	0.21380 0.44880 0.99800 0.06800
C 	C 	0.88930 0.46250 0.02460 -0.02400
H 	H 	0.81220 0.43730 0.04030 0.07500
U 	U 	0.78578 0.75837 0.48803 0.01200
U 	U 	0.20780 0.73707 0.53594 0.01300
U 	U 	0.24713 0.86571 0.25765 0.01900
P 	P 	0.99150 0.85769 0.41313 0.38000
O 	O 	0.84000 0.84640 0.39330 -0.16300
O 	O 	0.02900 0.80040 0.47090 -0.14900
O 	O 	0.07900 0.85840 0.34340 -0.15900
C 	C 	0.00570 0.93740 0.46290 -0.02500
C 	C 	0.99050 0.94000 0.54250 -0.03200
H 	H 	0.98250 0.89900 0.57130 0.08000
P 	P 	0.00480 0.63306 0.60465 0.37800
O 	O 	0.96400 0.69470 0.55330 -0.14700
O 	O 	0.15540 0.64530 0.62670 -0.16000
O 	O 	0.91480 0.62170 0.67300 -0.16200
C 	C 	0.99470 0.55880 0.54510 -0.02600
C 	C 	0.01280 0.99850 0.42170 -0.02600
H 	H 	0.02000 0.99700 0.36720 0.07300
C 	C 	0.00160 0.56340 0.46360 -0.03000
H 	H 	0.00350 0.60690 0.43940 0.08100
C 	C 	0.99460 0.49450 0.58010 -0.02800
H 	H 	0.99180 0.49110 0.63460 0.07200
P 	P 	0.53830 0.64567 0.58366 0.38500
O 	O 	0.41140 0.68950 0.57970 -0.15200
O 	O 	0.57370 0.62460 0.66770 -0.15400
O 	O 	0.65880 0.68050 0.54860 -0.16200
C 	C 	0.51340 0.56600 0.53230 -0.01300
C 	C 	0.38830 0.53180 0.53030 -0.02400
H 	H 	0.31140 0.55280 0.55230 0.07300
C 	C 	0.62590 0.53300 0.50360 -0.02200
H 	H 	0.71300 0.55430 0.50690 0.06800
P 	P 	0.45420 0.84712 0.43703 0.38800
O 	O 	0.41080 0.85640 0.35220 -0.15400
O 	O 	0.58090 0.80380 0.44450 -0.15500
O 	O 	0.33710 0.81750 0.48040 -0.16400
C 	C 	0.48550 0.93230 0.47430 -0.01300
C 	C 	0.37340 0.96980 0.50060 -0.02100
H 	H 	0.28620 0.94880 0.50200 0.06800
C 	C 	0.61070 0.96250 0.47540 -0.02500
H 	H 	0.68780 0.93730 0.45970 0.07500
U 	U 	0.28578 0.74163 0.98803 0.01300
U 	U 	0.70780 0.76293 0.03594 0.01300
U 	U 	0.74713 0.63429 0.75765 0.01900
P 	P 	0.49150 0.64231 0.91313 0.38000
O 	O 	0.34000 0.65360 0.89330 -0.16200
O 	O 	0.52900 0.69960 0.97090 -0.14900
O 	O 	0.57900 0.64160 0.84340 -0.16000
C 	C 	0.50570 0.56260 0.96290 -0.02600
C 	C 	0.49050 0.56000 0.04250 -0.03100
H 	H 	0.48250 0.60100 0.07130 0.07900
P 	P 	0.50480 0.86694 0.10465 0.37800
O 	O 	0.46400 0.80530 0.05330 -0.14700
O 	O 	0.65540 0.85470 0.12670 -0.16000
O 	O 	0.41480 0.87830 0.17300 -0.16100
C 	C 	0.49470 0.94120 0.04510 -0.02600
C 	C 	0.51280 0.50150 0.92170 -0.02700
H 	H 	0.52000 0.50300 0.86720 0.07300
C 	C 	0.50160 0.93660 0.96360 -0.03000
H 	H 	0.50350 0.89310 0.93940 0.08100
C 	C 	0.49460 0.00550 0.08010 -0.02700
H 	H 	0.49180 0.00890 0.13460 0.07200
P 	P 	0.03830 0.85433 0.08366 0.38500
O 	O 	0.91140 0.81050 0.07970 -0.15200
O 	O 	0.07370 0.87540 0.16770 -0.15400
O 	O 	0.15880 0.81950 0.04860 -0.16200
C 	C 	0.01340 0.93400 0.03230 -0.01300
C 	C 	0.88830 0.96820 0.03030 -0.02400
H 	H 	0.81140 0.94720 0.05230 0.07300
C 	C 	0.12590 0.96700 0.00360 -0.02200
H 	H 	0.21300 0.94570 0.00690 0.06800
P 	P 	0.95420 0.65288 0.93703 0.38700
O 	O 	0.91080 0.64360 0.85220 -0.15400
O 	O 	0.08090 0.69620 0.94450 -0.15500
O 	O 	0.83710 0.68250 0.98040 -0.16400
C 	C 	0.98550 0.56770 0.97430 -0.01400
C 	C 	0.87340 0.53020 0.00060 -0.02100
H 	H 	0.78620 0.55120 0.00200 0.06800
C 	C 	0.11070 0.53750 0.97540 -0.02400
H 	H 	0.18780 0.56270 0.95970 0.07500
U 	U 	0.21422 0.24163 0.51197 0.01200
U 	U 	0.79220 0.26293 0.46406 0.01300
U 	U 	0.75287 0.13429 0.74235 0.01900
P 	P 	0.00850 0.14231 0.58687 0.38000
O 	O 	0.16000 0.15360 0.60670 -0.16300
O 	O 	0.97100 0.19960 0.52910 -0.14900
O 	O 	0.92100 0.14160 0.65660 -0.15900
C 	C 	0.99430 0.06260 0.53710 -0.02500
C 	C 	0.00950 0.06000 0.45750 -0.03200
H 	H 	0.01750 0.10100 0.42870 0.08000
P 	P 	0.99520 0.36694 0.39535 0.37800
O 	O 	0.03600 0.30530 0.44670 -0.14700
O 	O 	0.84460 0.35470 0.37330 -0.16000
O 	O 	0.08520 0.37830 0.32700 -0.16200
C 	C 	0.00530 0.44120 0.45490 -0.02600
C 	C 	0.98720 0.00150 0.57830 -0.02600
H 	H 	0.98000 0.00300 0.63280 0.07300
C 	C 	0.99840 0.43660 0.53640 -0.03000
H 	H 	0.99650 0.39310 0.56060 0.08100
C 	C 	0.00540 0.50550 0.41990 -0.02800
H 	H 	0.00820 0.50890 0.36540 0.07200
P 	P 	0.46170 0.35433 0.41634 0.38500
O 	O 	0.58860 0.31050 0.42030 -0.15200
O 	O 	0.42630 0.37540 0.33230 -0.15400
O 	O 	0.34120 0.31950 0.45140 -0.16200
C 	C 	0.48660 0.43400 0.46770 -0.01300
C 	C 	0.61170 0.46820 0.46970 -0.02400
H 	H 	0.68860 0.44720 0.44770 0.07300
C 	C 	0.37410 0.46700 0.49640 -0.02200
H 	H 	0.28700 0.44570 0.49310 0.06800
P 	P 	0.54580 0.15288 0.56297 0.38800
O 	O 	0.58920 0.14360 0.64780 -0.15400
O 	O 	0.41910 0.19620 0.55550 -0.15500
O 	O 	0.66290 0.18250 0.51960 -0.16400
C 	C 	0.51450 0.06770 0.52570 -0.01300
C 	C 	0.62660 0.03020 0.49940 -0.02100
H 	H 	0.71380 0.05120 0.49800 0.06800
C 	C 	0.38930 0.03750 0.52460 -0.02500
H 	H 	0.31220 0.06270 0.54030 0.07500
