data_crystal

_cell_length_a 27.13370
_cell_length_b 29.24220
_cell_length_c 13.07570
_cell_angle_alpha 90.00000
_cell_angle_beta  90.00000
_cell_angle_gamma 90.00000

_symmetry_space_group_name_	'P 1'
_symmetry_space_group_name_H-M	'P 1'

loop_
_symmetry_equiv_pos_as_xyz
  x,y,z

loop_
_atom_site_label
_atom_site_type_symbol
_atom_site_fract_x
_atom_site_fract_y
_atom_site_fract_z
_atom_site_charge
O 	O 	0.69530 0.48960 0.18140 -0.45800
O 	O 	0.76590 0.44780 0.52480 -0.50300
O 	O 	0.64860 0.43630 0.10880 -0.41900
O 	O 	0.71380 0.41430 0.63010 -0.36100
C 	C 	0.58940 0.33210 0.39670 -0.13800
C 	C 	0.65880 0.38010 0.46650 -0.01600
H 	H 	0.65580 0.36350 0.52860 0.04800
C 	C 	0.63130 0.39390 0.29880 -0.03300
H 	H 	0.60890 0.38770 0.24460 0.03800
C 	C 	0.66780 0.42850 0.28680 -0.11700
C 	C 	0.62830 0.36980 0.38730 0.02900
C 	C 	0.60460 0.28740 0.39890 0.08200
C 	C 	0.69710 0.43620 0.36580 0.08400
H 	H 	0.72200 0.45860 0.35630 0.00400
C 	C 	0.65660 0.27280 0.39420 -0.07600
H 	H 	0.68470 0.29220 0.39170 0.05900
C 	C 	0.54000 0.34720 0.39800 0.08000
C 	C 	0.69570 0.41570 0.45860 -0.15800
C 	C 	0.52480 0.39290 0.40450 -0.08400
H 	H 	0.54560 0.41900 0.40820 0.05200
C 	C 	0.66950 0.45470 0.18810 0.32400
C 	C 	0.72730 0.42710 0.54240 0.44000
O 	O 	0.19530 0.98960 0.68140 -0.42100
O 	O 	0.26590 0.94780 0.02480 -0.46000
O 	O 	0.14860 0.93630 0.60880 -0.38900
O 	O 	0.21380 0.91430 0.13010 -0.35000
C 	C 	0.08940 0.83210 0.89670 -0.12100
C 	C 	0.15880 0.88010 0.96650 0.09200
H 	H 	0.15580 0.86350 0.02860 -0.04000
C 	C 	0.13130 0.89390 0.79880 -0.02100
H 	H 	0.10890 0.88770 0.74460 0.04000
C 	C 	0.16780 0.92850 0.78680 -0.09700
C 	C 	0.12830 0.86980 0.88730 -0.00400
C 	C 	0.10460 0.78740 0.89890 0.08400
C 	C 	0.19710 0.93620 0.86580 0.05600
H 	H 	0.22200 0.95860 0.85630 0.03500
C 	C 	0.15660 0.77280 0.89420 -0.07000
H 	H 	0.18470 0.79220 0.89170 0.06500
C 	C 	0.04000 0.84720 0.89800 0.09100
C 	C 	0.19570 0.91570 0.95860 -0.09500
C 	C 	0.02480 0.89290 0.90450 -0.11500
H 	H 	0.04560 0.91900 0.90820 0.07900
C 	C 	0.16950 0.95470 0.68810 0.31800
C 	C 	0.22730 0.92710 0.04240 0.35600
O 	O 	0.30470 0.01040 0.18140 -0.47000
O 	O 	0.23410 0.05220 0.52480 -0.50000
O 	O 	0.35140 0.06370 0.10880 -0.41500
O 	O 	0.28620 0.08570 0.63010 -0.36900
C 	C 	0.41060 0.16790 0.39670 -0.13800
C 	C 	0.34120 0.11990 0.46650 -0.01700
H 	H 	0.34420 0.13650 0.52860 0.04700
C 	C 	0.36870 0.10610 0.29880 -0.03200
H 	H 	0.39110 0.11230 0.24460 0.03600
C 	C 	0.33220 0.07150 0.28680 -0.12300
C 	C 	0.37170 0.13020 0.38730 0.02700
C 	C 	0.39540 0.21260 0.39890 0.08200
C 	C 	0.30290 0.06380 0.36580 0.08300
H 	H 	0.27800 0.04140 0.35630 -0.00100
C 	C 	0.34340 0.22720 0.39420 -0.07600
H 	H 	0.31530 0.20780 0.39170 0.05900
C 	C 	0.46000 0.15280 0.39800 0.07900
C 	C 	0.30430 0.08430 0.45860 -0.16100
C 	C 	0.47520 0.10710 0.40450 -0.08600
H 	H 	0.45440 0.08100 0.40820 0.04600
C 	C 	0.33050 0.04530 0.18810 0.32600
C 	C 	0.27270 0.07290 0.54240 0.43100
O 	O 	0.80470 0.51040 0.68140 -0.46000
O 	O 	0.73410 0.55220 0.02480 -0.50100
O 	O 	0.85140 0.56370 0.60880 -0.41300
O 	O 	0.78620 0.58570 0.13010 -0.36600
C 	C 	0.91060 0.66790 0.89670 -0.11200
C 	C 	0.84120 0.61990 0.96650 0.10100
H 	H 	0.84420 0.63650 0.02860 -0.04400
C 	C 	0.86870 0.60610 0.79880 -0.01300
H 	H 	0.89110 0.61230 0.74460 0.03800
C 	C 	0.83220 0.57150 0.78680 -0.11100
C 	C 	0.87170 0.63020 0.88730 -0.01300
C 	C 	0.89540 0.71260 0.89890 0.08400
C 	C 	0.80290 0.56380 0.86580 0.06800
H 	H 	0.77800 0.54140 0.85630 0.02200
C 	C 	0.84340 0.72720 0.89420 -0.06800
H 	H 	0.81530 0.70780 0.89170 0.06500
C 	C 	0.96000 0.65280 0.89800 0.08500
C 	C 	0.80430 0.58430 0.95860 -0.11300
C 	C 	0.97520 0.60710 0.90450 -0.04000
H 	H 	0.95440 0.58100 0.90820 0.05200
C 	C 	0.83050 0.54530 0.68810 0.32500
C 	C 	0.77270 0.57290 0.04240 0.36900
O 	O 	0.30470 0.98960 0.81860 -0.39500
O 	O 	0.23410 0.94780 0.47520 -0.46500
O 	O 	0.35140 0.93630 0.89120 -0.34100
O 	O 	0.28620 0.91430 0.36990 -0.35500
C 	C 	0.41060 0.83210 0.60330 -0.14000
C 	C 	0.34120 0.88010 0.53350 -0.02500
H 	H 	0.34420 0.86350 0.47140 0.04600
C 	C 	0.36870 0.89390 0.70120 -0.04300
H 	H 	0.39110 0.88770 0.75540 0.05800
C 	C 	0.33220 0.92850 0.71320 -0.08900
C 	C 	0.37170 0.86980 0.61270 0.04100
C 	C 	0.39540 0.78740 0.60110 0.08500
C 	C 	0.30290 0.93620 0.63420 0.06800
H 	H 	0.27800 0.95860 0.64370 0.02000
C 	C 	0.34340 0.77280 0.60580 -0.07600
H 	H 	0.31530 0.79220 0.60830 0.05900
C 	C 	0.46000 0.84720 0.60200 0.08500
C 	C 	0.30430 0.91570 0.54140 -0.13900
C 	C 	0.47520 0.89290 0.59550 -0.08100
H 	H 	0.45440 0.91900 0.59180 0.06300
C 	C 	0.33050 0.95470 0.81190 0.31300
C 	C 	0.27270 0.92710 0.45760 0.42700
O 	O 	0.80470 0.48960 0.31860 -0.46500
O 	O 	0.73410 0.44780 0.97520 -0.45700
O 	O 	0.85140 0.43630 0.39120 -0.41000
O 	O 	0.78620 0.41430 0.86990 -0.36000
C 	C 	0.91060 0.33210 0.10330 -0.16400
C 	C 	0.84120 0.38010 0.03350 -0.14200
H 	H 	0.84420 0.36350 0.97140 0.13800
C 	C 	0.86870 0.39390 0.20120 -0.06100
H 	H 	0.89110 0.38770 0.25540 0.05500
C 	C 	0.83220 0.42850 0.21320 -0.10500
C 	C 	0.87170 0.36980 0.11270 0.08000
C 	C 	0.89540 0.28740 0.10110 0.08600
C 	C 	0.80290 0.43620 0.13420 0.08400
H 	H 	0.77800 0.45860 0.14370 -0.00400
C 	C 	0.84340 0.27280 0.10580 -0.08400
H 	H 	0.81530 0.29220 0.10830 0.05300
C 	C 	0.96000 0.34720 0.10200 0.08900
C 	C 	0.80430 0.41570 0.04140 -0.18700
C 	C 	0.97520 0.39290 0.09550 -0.05500
H 	H 	0.95440 0.41900 0.09180 0.03600
C 	C 	0.83050 0.45470 0.31190 0.31900
C 	C 	0.77270 0.42710 0.95760 0.48800
O 	O 	0.69530 0.51040 0.81860 -0.43400
O 	O 	0.76590 0.55220 0.47520 -0.50700
O 	O 	0.64860 0.56370 0.89120 -0.36900
O 	O 	0.71380 0.58570 0.36990 -0.37400
C 	C 	0.58940 0.66790 0.60330 -0.13800
C 	C 	0.65880 0.61990 0.53350 -0.01700
H 	H 	0.65580 0.63650 0.47140 0.04100
C 	C 	0.63130 0.60610 0.70120 -0.03600
H 	H 	0.60890 0.61230 0.75540 0.05200
C 	C 	0.66780 0.57150 0.71320 -0.10600
C 	C 	0.62830 0.63020 0.61270 0.03200
C 	C 	0.60460 0.71260 0.60110 0.08300
C 	C 	0.69710 0.56380 0.63420 0.08100
H 	H 	0.72200 0.54140 0.64370 0.00600
C 	C 	0.65660 0.72720 0.60580 -0.07500
H 	H 	0.68470 0.70780 0.60830 0.05900
C 	C 	0.54000 0.65280 0.60200 0.08200
C 	C 	0.69570 0.58430 0.54140 -0.15900
C 	C 	0.52480 0.60710 0.59550 -0.08400
H 	H 	0.54560 0.58100 0.59180 0.05400
C 	C 	0.66950 0.54530 0.81190 0.32000
C 	C 	0.72730 0.57290 0.45760 0.44100
O 	O 	0.19530 0.01040 0.31860 -0.47600
O 	O 	0.26590 0.05220 0.97520 -0.45500
O 	O 	0.14860 0.06370 0.39120 -0.40900
O 	O 	0.21380 0.08570 0.86990 -0.37000
C 	C 	0.08940 0.16790 0.10330 -0.17000
C 	C 	0.15880 0.11990 0.03350 -0.14300
H 	H 	0.15580 0.13650 0.97140 0.13400
C 	C 	0.13130 0.10610 0.20120 -0.06000
H 	H 	0.10890 0.11230 0.25540 0.04900
C 	C 	0.16780 0.07150 0.21320 -0.11300
C 	C 	0.12830 0.13020 0.11270 0.07800
C 	C 	0.10460 0.21260 0.10110 0.08400
C 	C 	0.19710 0.06380 0.13420 0.08400
H 	H 	0.22200 0.04140 0.14370 -0.01000
C 	C 	0.15660 0.22720 0.10580 -0.08500
H 	H 	0.18470 0.20780 0.10830 0.05300
C 	C 	0.04000 0.15280 0.10200 0.09100
C 	C 	0.19570 0.08430 0.04140 -0.19100
C 	C 	0.02480 0.10710 0.09550 -0.13400
H 	H 	0.04560 0.08100 0.09180 0.04700
C 	C 	0.16950 0.04530 0.31190 0.32100
C 	C 	0.22730 0.07290 0.95760 0.47900
O 	O 	0.30470 0.51040 0.81860 -0.43400
O 	O 	0.23410 0.55220 0.47520 -0.50600
O 	O 	0.35140 0.56370 0.89120 -0.36900
O 	O 	0.28620 0.58570 0.36990 -0.37400
C 	C 	0.41060 0.66790 0.60330 -0.13800
C 	C 	0.34120 0.61990 0.53350 -0.01700
H 	H 	0.34420 0.63650 0.47140 0.04100
C 	C 	0.36870 0.60610 0.70120 -0.03600
H 	H 	0.39110 0.61230 0.75540 0.05200
C 	C 	0.33220 0.57150 0.71320 -0.10600
C 	C 	0.37170 0.63020 0.61270 0.03200
C 	C 	0.39540 0.71260 0.60110 0.08300
C 	C 	0.30290 0.56380 0.63420 0.08000
H 	H 	0.27800 0.54140 0.64370 0.00600
C 	C 	0.34340 0.72720 0.60580 -0.07500
H 	H 	0.31530 0.70780 0.60830 0.05800
C 	C 	0.46000 0.65280 0.60200 0.08200
C 	C 	0.30430 0.58430 0.54140 -0.15900
C 	C 	0.47520 0.60710 0.59550 -0.08400
H 	H 	0.45440 0.58100 0.59180 0.05400
C 	C 	0.33050 0.54530 0.81190 0.32000
C 	C 	0.27270 0.57290 0.45760 0.44100
O 	O 	0.80470 0.01040 0.31860 -0.47600
O 	O 	0.73410 0.05220 0.97520 -0.45500
O 	O 	0.85140 0.06370 0.39120 -0.40500
O 	O 	0.78620 0.08570 0.86990 -0.36800
C 	C 	0.91060 0.16790 0.10330 -0.16400
C 	C 	0.84120 0.11990 0.03350 -0.14300
H 	H 	0.84420 0.13650 0.97140 0.13600
C 	C 	0.86870 0.10610 0.20120 -0.06000
H 	H 	0.89110 0.11230 0.25540 0.05300
C 	C 	0.83220 0.07150 0.21320 -0.11100
C 	C 	0.87170 0.13020 0.11270 0.07700
C 	C 	0.89540 0.21260 0.10110 0.08600
C 	C 	0.80290 0.06380 0.13420 0.08400
H 	H 	0.77800 0.04140 0.14370 -0.01000
C 	C 	0.84340 0.22720 0.10580 -0.08400
H 	H 	0.81530 0.20780 0.10830 0.05300
C 	C 	0.96000 0.15280 0.10200 0.08800
C 	C 	0.80430 0.08430 0.04140 -0.19000
C 	C 	0.97520 0.10710 0.09550 -0.05700
H 	H 	0.95440 0.08100 0.09180 0.02900
C 	C 	0.83050 0.04530 0.31190 0.32100
C 	C 	0.77270 0.07290 0.95760 0.47900
O 	O 	0.69530 0.98960 0.81860 -0.39500
O 	O 	0.76590 0.94780 0.47520 -0.46600
O 	O 	0.64860 0.93630 0.89120 -0.34100
O 	O 	0.71380 0.91430 0.36990 -0.35500
C 	C 	0.58940 0.83210 0.60330 -0.14000
C 	C 	0.65880 0.88010 0.53350 -0.02500
H 	H 	0.65580 0.86350 0.47140 0.04600
C 	C 	0.63130 0.89390 0.70120 -0.04300
H 	H 	0.60890 0.88770 0.75540 0.05800
C 	C 	0.66780 0.92850 0.71320 -0.08900
C 	C 	0.62830 0.86980 0.61270 0.04100
C 	C 	0.60460 0.78740 0.60110 0.08500
C 	C 	0.69710 0.93620 0.63420 0.06800
H 	H 	0.72200 0.95860 0.64370 0.01900
C 	C 	0.65660 0.77280 0.60580 -0.07600
H 	H 	0.68470 0.79220 0.60830 0.05900
C 	C 	0.54000 0.84720 0.60200 0.08500
C 	C 	0.69570 0.91570 0.54140 -0.13900
C 	C 	0.52480 0.89290 0.59550 -0.08100
H 	H 	0.54560 0.91900 0.59180 0.06300
C 	C 	0.66950 0.95470 0.81190 0.31300
C 	C 	0.72730 0.92710 0.45760 0.42800
O 	O 	0.19530 0.48960 0.31860 -0.46500
O 	O 	0.26590 0.44780 0.97520 -0.45700
O 	O 	0.14860 0.43630 0.39120 -0.41300
O 	O 	0.21380 0.41430 0.86990 -0.36200
C 	C 	0.08940 0.33210 0.10330 -0.17000
C 	C 	0.15880 0.38010 0.03350 -0.14300
H 	H 	0.15580 0.36350 0.97140 0.13600
C 	C 	0.13130 0.39390 0.20120 -0.06200
H 	H 	0.10890 0.38770 0.25540 0.05200
C 	C 	0.16780 0.42850 0.21320 -0.10700
C 	C 	0.12830 0.36980 0.11270 0.08000
C 	C 	0.10460 0.28740 0.10110 0.08400
C 	C 	0.19710 0.43620 0.13420 0.08500
H 	H 	0.22200 0.45860 0.14370 -0.00400
C 	C 	0.15660 0.27280 0.10580 -0.08500
H 	H 	0.18470 0.29220 0.10830 0.05300
C 	C 	0.04000 0.34720 0.10200 0.09200
C 	C 	0.19570 0.41570 0.04140 -0.18900
C 	C 	0.02480 0.39290 0.09550 -0.13200
H 	H 	0.04560 0.41900 0.09180 0.05400
C 	C 	0.16950 0.45470 0.31190 0.31900
C 	C 	0.22730 0.42710 0.95760 0.48800
O 	O 	0.69530 0.01040 0.18140 -0.47000
O 	O 	0.76590 0.05220 0.52480 -0.50100
O 	O 	0.64860 0.06370 0.10880 -0.41500
O 	O 	0.71380 0.08570 0.63010 -0.36800
C 	C 	0.58940 0.16790 0.39670 -0.13800
C 	C 	0.65880 0.11990 0.46650 -0.01700
H 	H 	0.65580 0.13650 0.52860 0.04700
C 	C 	0.63130 0.10610 0.29880 -0.03200
H 	H 	0.60890 0.11230 0.24460 0.03600
C 	C 	0.66780 0.07150 0.28680 -0.12300
C 	C 	0.62830 0.13020 0.38730 0.02700
C 	C 	0.60460 0.21260 0.39890 0.08200
C 	C 	0.69710 0.06380 0.36580 0.08400
H 	H 	0.72200 0.04140 0.35630 -0.00200
C 	C 	0.65660 0.22720 0.39420 -0.07600
H 	H 	0.68470 0.20780 0.39170 0.05900
C 	C 	0.54000 0.15280 0.39800 0.07900
C 	C 	0.69570 0.08430 0.45860 -0.16100
C 	C 	0.52480 0.10710 0.40450 -0.08600
H 	H 	0.54560 0.08100 0.40820 0.04600
C 	C 	0.66950 0.04530 0.18810 0.32600
C 	C 	0.72730 0.07290 0.54240 0.43200
O 	O 	0.19530 0.51040 0.68140 -0.46100
O 	O 	0.26590 0.55220 0.02480 -0.50100
O 	O 	0.14860 0.56370 0.60880 -0.41700
O 	O 	0.21380 0.58570 0.13010 -0.36800
C 	C 	0.08940 0.66790 0.89670 -0.11900
C 	C 	0.15880 0.61990 0.96650 0.10000
H 	H 	0.15580 0.63650 0.02860 -0.04600
C 	C 	0.13130 0.60610 0.79880 -0.01300
H 	H 	0.10890 0.61230 0.74460 0.03400
C 	C 	0.16780 0.57150 0.78680 -0.11300
C 	C 	0.12830 0.63020 0.88730 -0.01300
C 	C 	0.10460 0.71260 0.89890 0.08200
C 	C 	0.19710 0.56380 0.86580 0.06800
H 	H 	0.22200 0.54140 0.85630 0.02200
C 	C 	0.15660 0.72720 0.89420 -0.06900
H 	H 	0.18470 0.70780 0.89170 0.06500
C 	C 	0.04000 0.65280 0.89800 0.08800
C 	C 	0.19570 0.58430 0.95860 -0.11400
C 	C 	0.02480 0.60710 0.90450 -0.11800
H 	H 	0.04560 0.58100 0.90820 0.07000
C 	C 	0.16950 0.54530 0.68810 0.32500
C 	C 	0.22730 0.57290 0.04240 0.36900
O 	O 	0.30470 0.48960 0.18140 -0.45900
O 	O 	0.23410 0.44780 0.52480 -0.50200
O 	O 	0.35140 0.43630 0.10880 -0.41900
O 	O 	0.28620 0.41430 0.63010 -0.36100
C 	C 	0.41060 0.33210 0.39670 -0.13800
C 	C 	0.34120 0.38010 0.46650 -0.01600
H 	H 	0.34420 0.36350 0.52860 0.04800
C 	C 	0.36870 0.39390 0.29880 -0.03300
H 	H 	0.39110 0.38770 0.24460 0.03800
C 	C 	0.33220 0.42850 0.28680 -0.11700
C 	C 	0.37170 0.36980 0.38730 0.02900
C 	C 	0.39540 0.28740 0.39890 0.08200
C 	C 	0.30290 0.43620 0.36580 0.08400
H 	H 	0.27800 0.45860 0.35630 0.00500
C 	C 	0.34340 0.27280 0.39420 -0.07600
H 	H 	0.31530 0.29220 0.39170 0.05800
C 	C 	0.46000 0.34720 0.39800 0.08000
C 	C 	0.30430 0.41570 0.45860 -0.15800
C 	C 	0.47520 0.39290 0.40450 -0.08400
H 	H 	0.45440 0.41900 0.40820 0.05200
C 	C 	0.33050 0.45470 0.18810 0.32400
C 	C 	0.27270 0.42710 0.54240 0.43900
O 	O 	0.80470 0.98960 0.68140 -0.42000
O 	O 	0.73410 0.94780 0.02480 -0.46000
O 	O 	0.85140 0.93630 0.60880 -0.38500
O 	O 	0.78620 0.91430 0.13010 -0.34800
C 	C 	0.91060 0.83210 0.89670 -0.11400
C 	C 	0.84120 0.88010 0.96650 0.09300
H 	H 	0.84420 0.86350 0.02860 -0.03900
C 	C 	0.86870 0.89390 0.79880 -0.02000
H 	H 	0.89110 0.88770 0.74460 0.04400
C 	C 	0.83220 0.92850 0.78680 -0.09500
C 	C 	0.87170 0.86980 0.88730 -0.00400
C 	C 	0.89540 0.78740 0.89890 0.08500
C 	C 	0.80290 0.93620 0.86580 0.05600
H 	H 	0.77800 0.95860 0.85630 0.03500
C 	C 	0.84340 0.77280 0.89420 -0.06900
H 	H 	0.81530 0.79220 0.89170 0.06600
C 	C 	0.96000 0.84720 0.89800 0.08800
C 	C 	0.80430 0.91570 0.95860 -0.09400
C 	C 	0.97520 0.89290 0.90450 -0.03800
H 	H 	0.95440 0.91900 0.90820 0.06100
C 	C 	0.83050 0.95470 0.68810 0.31800
C 	C 	0.77270 0.92710 0.04240 0.35600
Dy	Dy	0.82547 0.50000 0.50000 1.58700
Dy	Dy	0.32547 0.00000 -0.00000 1.32100
Dy	Dy	0.17453 0.00000 0.50000 1.45700
Dy	Dy	0.67453 0.50000 -0.00000 1.43800
Dy	Dy	0.17453 0.50000 0.50000 1.57700
Dy	Dy	0.67453 0.00000 -0.00000 1.32100
Dy	Dy	0.82547 0.00000 0.50000 1.46700
Dy	Dy	0.32547 0.50000 -0.00000 1.43800
Zn	Zn	0.50000 0.25000 0.36860 0.77100
Zn	Zn	0.50000 0.25000 0.42250 0.78000
Zn	Zn	-0.00000 0.75000 0.86860 0.77000
Zn	Zn	-0.00000 0.75000 0.92250 0.78000
Zn	Zn	0.50000 0.75000 0.63140 0.77600
Zn	Zn	0.50000 0.75000 0.57750 0.77800
Zn	Zn	0.00000 0.25000 0.13140 0.77200
Zn	Zn	0.00000 0.25000 0.07750 0.77200
Na	Na	0.75000 0.45799 0.75000 0.59100
Na	Na	0.25000 0.04201 0.75000 0.58400
Na	Na	0.25000 0.95799 0.25000 0.59600
Na	Na	0.75000 0.54201 0.25000 0.58900
Na	Na	0.25000 0.54201 0.25000 0.58900
Na	Na	0.75000 0.95799 0.25000 0.59700
Na	Na	0.75000 0.04201 0.75000 0.58400
Na	Na	0.25000 0.45799 0.75000 0.59100
N 	N 	0.50000 0.31970 0.39880 -0.34600
N 	N 	0.00000 0.81970 0.89880 -0.35400
N 	N 	0.50000 0.18030 0.39880 -0.34600
N 	N 	0.00000 0.68030 0.89880 -0.35400
N 	N 	0.50000 0.81970 0.60120 -0.34500
N 	N 	-0.00000 0.31970 0.10120 -0.36300
N 	N 	0.50000 0.68030 0.60120 -0.34500
N 	N 	0.00000 0.18030 0.10120 -0.36300
N 	N 	0.57630 0.25000 0.40180 -0.33900
N 	N 	0.07630 0.75000 0.90180 -0.33600
N 	N 	0.42370 0.25000 0.40180 -0.33900
N 	N 	0.92370 0.75000 0.90180 -0.32900
N 	N 	0.42370 0.75000 0.59820 -0.33800
N 	N 	0.92370 0.25000 0.09820 -0.33900
N 	N 	0.57630 0.75000 0.59820 -0.33800
N 	N 	0.07630 0.25000 0.09820 -0.34600
