data_crystal

_cell_length_a 27.10800
_cell_length_b 29.41800
_cell_length_c 12.97230
_cell_angle_alpha 90.00000
_cell_angle_beta  90.00000
_cell_angle_gamma 90.00000

_symmetry_space_group_name_	'P 1'
_symmetry_space_group_name_H-M	'P 1'

loop_
_symmetry_equiv_pos_as_xyz
  x,y,z

loop_
_atom_site_label
_atom_site_type_symbol
_atom_site_fract_x
_atom_site_fract_y
_atom_site_fract_z
_atom_site_charge
O 	O 	0.69540 0.48731 0.18490 -0.47900
O 	O 	0.76100 0.45040 0.53380 -0.51700
O 	O 	0.64360 0.44000 0.11680 -0.46100
O 	O 	0.71530 0.41380 0.64080 -0.35100
C 	C 	0.59030 0.33270 0.40460 -0.12600
C 	C 	0.66020 0.37950 0.47370 -0.00600
H 	H 	0.65850 0.36330 0.53690 0.04100
C 	C 	0.63090 0.39080 0.30070 -0.02600
H 	H 	0.61040 0.38260 0.24440 0.03300
C 	C 	0.66580 0.42710 0.29230 -0.13000
C 	C 	0.62820 0.36860 0.39250 0.02300
C 	C 	0.60620 0.28700 0.40310 0.07200
C 	C 	0.69810 0.43620 0.37000 0.07600
H 	H 	0.72340 0.45810 0.36090 0.00400
C 	C 	0.65650 0.27420 0.39940 -0.08100
H 	H 	0.68440 0.29380 0.39730 0.05700
C 	C 	0.53980 0.34730 0.40660 0.06800
C 	C 	0.69350 0.41330 0.46150 -0.15500
C 	C 	0.52260 0.39330 0.41010 -0.07600
H 	H 	0.54290 0.41960 0.41210 0.04800
C 	C 	0.66860 0.45380 0.19590 0.35400
C 	C 	0.72730 0.42470 0.54600 0.43100
O 	O 	0.19540 0.98731 0.68490 -0.44000
O 	O 	0.26100 0.95040 0.03380 -0.46800
O 	O 	0.14360 0.94000 0.61680 -0.42900
O 	O 	0.21530 0.91380 0.14080 -0.34200
C 	C 	0.09030 0.83270 0.90460 -0.10800
C 	C 	0.16020 0.87950 0.97370 0.11800
H 	H 	0.15850 0.86330 0.03690 -0.05800
C 	C 	0.13090 0.89080 0.80070 -0.00800
H 	H 	0.11040 0.88260 0.74440 0.03400
C 	C 	0.16580 0.92710 0.79230 -0.11600
C 	C 	0.12820 0.86860 0.89250 -0.01500
C 	C 	0.10620 0.78700 0.90310 0.07400
C 	C 	0.19810 0.93620 0.87000 0.06400
H 	H 	0.22340 0.95810 0.86090 0.03400
C 	C 	0.15650 0.77420 0.89940 -0.07400
H 	H 	0.18440 0.79380 0.89730 0.06500
C 	C 	0.03980 0.84730 0.90660 0.08500
C 	C 	0.19350 0.91330 0.96150 -0.10400
C 	C 	0.02260 0.89330 0.91010 -0.12900
H 	H 	0.04290 0.91960 0.91210 0.08300
C 	C 	0.16860 0.95380 0.69590 0.34900
C 	C 	0.22730 0.92470 0.04600 0.34300
O 	O 	0.30460 0.01269 0.18490 -0.49000
O 	O 	0.23900 0.04960 0.53380 -0.51800
O 	O 	0.35640 0.06000 0.11680 -0.45600
O 	O 	0.28470 0.08620 0.64080 -0.36000
C 	C 	0.40970 0.16730 0.40460 -0.12700
C 	C 	0.33980 0.12050 0.47370 -0.00700
H 	H 	0.34150 0.13670 0.53690 0.03900
C 	C 	0.36910 0.10920 0.30070 -0.02400
H 	H 	0.38960 0.11740 0.24440 0.03100
C 	C 	0.33420 0.07290 0.29230 -0.13700
C 	C 	0.37180 0.13140 0.39250 0.02100
C 	C 	0.39380 0.21300 0.40310 0.07200
C 	C 	0.30190 0.06380 0.37000 0.07500
H 	H 	0.27660 0.04190 0.36090 -0.00200
C 	C 	0.34350 0.22580 0.39940 -0.08100
H 	H 	0.31560 0.20620 0.39730 0.05700
C 	C 	0.46020 0.15270 0.40660 0.06600
C 	C 	0.30650 0.08670 0.46150 -0.15900
C 	C 	0.47740 0.10670 0.41010 -0.07700
H 	H 	0.45710 0.08040 0.41210 0.04000
C 	C 	0.33140 0.04620 0.19590 0.35500
C 	C 	0.27270 0.07530 0.54600 0.42400
O 	O 	0.80460 0.51269 0.68490 -0.48400
O 	O 	0.73900 0.54960 0.03380 -0.51500
O 	O 	0.85640 0.56000 0.61680 -0.46100
O 	O 	0.78470 0.58620 0.14080 -0.36000
C 	C 	0.90970 0.66730 0.90460 -0.09400
C 	C 	0.83980 0.62050 0.97370 0.13300
H 	H 	0.84150 0.63670 0.03690 -0.06500
C 	C 	0.86910 0.60920 0.80070 0.00500
H 	H 	0.88960 0.61740 0.74440 0.03000
C 	C 	0.83420 0.57290 0.79230 -0.13500
C 	C 	0.87180 0.63140 0.89250 -0.03000
C 	C 	0.89380 0.71300 0.90310 0.07200
C 	C 	0.80190 0.56380 0.87000 0.07900
H 	H 	0.77660 0.54190 0.86090 0.01900
C 	C 	0.84350 0.72580 0.89940 -0.07100
H 	H 	0.81560 0.70620 0.89730 0.06400
C 	C 	0.96020 0.65270 0.90660 0.06600
C 	C 	0.80650 0.58670 0.96150 -0.12700
C 	C 	0.97740 0.60670 0.91010 -0.01000
H 	H 	0.95710 0.58040 0.91210 0.04100
C 	C 	0.83140 0.54620 0.69590 0.36200
C 	C 	0.77270 0.57530 0.04600 0.36000
O 	O 	0.30460 0.98731 0.81510 -0.40900
O 	O 	0.23900 0.95040 0.46620 -0.47400
O 	O 	0.35640 0.94000 0.88320 -0.37300
O 	O 	0.28470 0.91380 0.35920 -0.34600
C 	C 	0.40970 0.83270 0.59540 -0.13100
C 	C 	0.33980 0.87950 0.52630 -0.02100
H 	H 	0.34150 0.86330 0.46310 0.04000
C 	C 	0.36910 0.89080 0.69930 -0.04000
H 	H 	0.38960 0.88260 0.75560 0.05600
C 	C 	0.33420 0.92710 0.70770 -0.09700
C 	C 	0.37180 0.86860 0.60750 0.03800
C 	C 	0.39380 0.78700 0.59690 0.07600
C 	C 	0.30190 0.93620 0.63000 0.05700
H 	H 	0.27660 0.95810 0.63910 0.02200
C 	C 	0.34350 0.77420 0.60060 -0.08200
H 	H 	0.31560 0.79380 0.60270 0.05700
C 	C 	0.46020 0.84730 0.59340 0.07300
C 	C 	0.30650 0.91330 0.53850 -0.13200
C 	C 	0.47740 0.89330 0.58990 -0.07300
H 	H 	0.45710 0.91960 0.58790 0.06000
C 	C 	0.33140 0.95380 0.80410 0.33600
C 	C 	0.27270 0.92470 0.45400 0.41200
O 	O 	0.80460 0.48731 0.31510 -0.48700
O 	O 	0.73900 0.45040 0.96620 -0.46900
O 	O 	0.85640 0.44000 0.38320 -0.45600
O 	O 	0.78470 0.41380 0.85920 -0.35000
C 	C 	0.90970 0.33270 0.09540 -0.15600
C 	C 	0.83980 0.37950 0.02630 -0.15700
H 	H 	0.84150 0.36330 0.96310 0.14200
C 	C 	0.86910 0.39080 0.19930 -0.06200
H 	H 	0.88960 0.38260 0.25560 0.05400
C 	C 	0.83420 0.42710 0.20770 -0.11000
C 	C 	0.87180 0.36860 0.10750 0.08100
C 	C 	0.89380 0.28700 0.09690 0.07800
C 	C 	0.80190 0.43620 0.13000 0.05900
H 	H 	0.77660 0.45810 0.13910 0.00100
C 	C 	0.84350 0.27420 0.10060 -0.09000
H 	H 	0.81560 0.29380 0.10270 0.05100
C 	C 	0.96020 0.34730 0.09340 0.07000
C 	C 	0.80650 0.41330 0.03850 -0.16700
C 	C 	0.97740 0.39330 0.08990 -0.02500
H 	H 	0.95710 0.41960 0.08790 0.02300
C 	C 	0.83140 0.45380 0.30410 0.34700
C 	C 	0.77270 0.42470 0.95400 0.47500
O 	O 	0.69540 0.51269 0.81510 -0.45300
O 	O 	0.76100 0.54960 0.46620 -0.52200
O 	O 	0.64360 0.56000 0.88320 -0.40800
O 	O 	0.71530 0.58620 0.35920 -0.36600
C 	C 	0.59030 0.66730 0.59540 -0.12800
C 	C 	0.66020 0.62050 0.52630 -0.00900
H 	H 	0.65850 0.63670 0.46310 0.03300
C 	C 	0.63090 0.60920 0.69930 -0.03000
H 	H 	0.61040 0.61740 0.75560 0.04900
C 	C 	0.66580 0.57290 0.70770 -0.11700
C 	C 	0.62820 0.63140 0.60750 0.02700
C 	C 	0.60620 0.71300 0.59690 0.07500
C 	C 	0.69810 0.56380 0.63000 0.07200
H 	H 	0.72340 0.54190 0.63910 0.00600
C 	C 	0.65650 0.72580 0.60060 -0.08000
H 	H 	0.68440 0.70620 0.60270 0.05700
C 	C 	0.53980 0.65270 0.59340 0.06900
C 	C 	0.69350 0.58670 0.53850 -0.15600
C 	C 	0.52260 0.60670 0.58990 -0.07600
H 	H 	0.54290 0.58040 0.58790 0.05000
C 	C 	0.66860 0.54620 0.80410 0.34800
C 	C 	0.72730 0.57530 0.45400 0.43100
O 	O 	0.19540 0.01269 0.31510 -0.49800
O 	O 	0.26100 0.04960 0.96620 -0.46900
O 	O 	0.14360 0.06000 0.38320 -0.45300
O 	O 	0.21530 0.08620 0.85920 -0.36000
C 	C 	0.09030 0.16730 0.09540 -0.16700
C 	C 	0.16020 0.12050 0.02630 -0.15800
H 	H 	0.15850 0.13670 0.96310 0.13900
C 	C 	0.13090 0.10920 0.19930 -0.06200
H 	H 	0.11040 0.11740 0.25560 0.04900
C 	C 	0.16580 0.07290 0.20770 -0.11800
C 	C 	0.12820 0.13140 0.10750 0.08200
C 	C 	0.10620 0.21300 0.09690 0.07700
C 	C 	0.19810 0.06380 0.13000 0.05800
H 	H 	0.22340 0.04190 0.13910 -0.00600
C 	C 	0.15650 0.22580 0.10060 -0.09200
H 	H 	0.18440 0.20620 0.10270 0.05100
C 	C 	0.03980 0.15270 0.09340 0.08400
C 	C 	0.19350 0.08670 0.03850 -0.17100
C 	C 	0.02260 0.10670 0.08990 -0.14700
H 	H 	0.04290 0.08040 0.08790 0.04800
C 	C 	0.16860 0.04620 0.30410 0.34800
C 	C 	0.22730 0.07530 0.95400 0.46900
O 	O 	0.30460 0.51269 0.81510 -0.45300
O 	O 	0.23900 0.54960 0.46620 -0.52200
O 	O 	0.35640 0.56000 0.88320 -0.40800
O 	O 	0.28470 0.58620 0.35920 -0.36700
C 	C 	0.40970 0.66730 0.59540 -0.12800
C 	C 	0.33980 0.62050 0.52630 -0.00900
H 	H 	0.34150 0.63670 0.46310 0.03300
C 	C 	0.36910 0.60920 0.69930 -0.03000
H 	H 	0.38960 0.61740 0.75560 0.04900
C 	C 	0.33420 0.57290 0.70770 -0.11700
C 	C 	0.37180 0.63140 0.60750 0.02700
C 	C 	0.39380 0.71300 0.59690 0.07500
C 	C 	0.30190 0.56380 0.63000 0.07200
H 	H 	0.27660 0.54190 0.63910 0.00700
C 	C 	0.34350 0.72580 0.60060 -0.08000
H 	H 	0.31560 0.70620 0.60270 0.05700
C 	C 	0.46020 0.65270 0.59340 0.07000
C 	C 	0.30650 0.58670 0.53850 -0.15600
C 	C 	0.47740 0.60670 0.58990 -0.07600
H 	H 	0.45710 0.58040 0.58790 0.05000
C 	C 	0.33140 0.54620 0.80410 0.34800
C 	C 	0.27270 0.57530 0.45400 0.43000
O 	O 	0.80460 0.01269 0.31510 -0.49800
O 	O 	0.73900 0.04960 0.96620 -0.46900
O 	O 	0.85640 0.06000 0.38320 -0.44900
O 	O 	0.78470 0.08620 0.85920 -0.35900
C 	C 	0.90970 0.16730 0.09540 -0.15500
C 	C 	0.83980 0.12050 0.02630 -0.15600
H 	H 	0.84150 0.13670 0.96310 0.14000
C 	C 	0.86910 0.10920 0.19930 -0.06000
H 	H 	0.88960 0.11740 0.25560 0.05200
C 	C 	0.83420 0.07290 0.20770 -0.11700
C 	C 	0.87180 0.13140 0.10750 0.07900
C 	C 	0.89380 0.21300 0.09690 0.07700
C 	C 	0.80190 0.06380 0.13000 0.05900
H 	H 	0.77660 0.04190 0.13910 -0.00500
C 	C 	0.84350 0.22580 0.10060 -0.09000
H 	H 	0.81560 0.20620 0.10270 0.05100
C 	C 	0.96020 0.15270 0.09340 0.06800
C 	C 	0.80650 0.08670 0.03850 -0.17100
C 	C 	0.97740 0.10670 0.08990 -0.02700
H 	H 	0.95710 0.08040 0.08790 0.01500
C 	C 	0.83140 0.04620 0.30410 0.34800
C 	C 	0.77270 0.07530 0.95400 0.46900
O 	O 	0.69540 0.98731 0.81510 -0.40900
O 	O 	0.76100 0.95040 0.46620 -0.47500
O 	O 	0.64360 0.94000 0.88320 -0.37300
O 	O 	0.71530 0.91380 0.35920 -0.34600
C 	C 	0.59030 0.83270 0.59540 -0.13100
C 	C 	0.66020 0.87950 0.52630 -0.02100
H 	H 	0.65850 0.86330 0.46310 0.04000
C 	C 	0.63090 0.89080 0.69930 -0.04000
H 	H 	0.61040 0.88260 0.75560 0.05600
C 	C 	0.66580 0.92710 0.70770 -0.09700
C 	C 	0.62820 0.86860 0.60750 0.03800
C 	C 	0.60620 0.78700 0.59690 0.07600
C 	C 	0.69810 0.93620 0.63000 0.05700
H 	H 	0.72340 0.95810 0.63910 0.02200
C 	C 	0.65650 0.77420 0.60060 -0.08100
H 	H 	0.68440 0.79380 0.60270 0.05800
C 	C 	0.53980 0.84730 0.59340 0.07300
C 	C 	0.69350 0.91330 0.53850 -0.13200
C 	C 	0.52260 0.89330 0.58990 -0.07300
H 	H 	0.54290 0.91960 0.58790 0.06000
C 	C 	0.66860 0.95380 0.80410 0.33600
C 	C 	0.72730 0.92470 0.45400 0.41300
O 	O 	0.19540 0.48731 0.31510 -0.48800
O 	O 	0.26100 0.45040 0.96620 -0.46900
O 	O 	0.14360 0.44000 0.38320 -0.45900
O 	O 	0.21530 0.41380 0.85920 -0.35200
C 	C 	0.09030 0.33270 0.09540 -0.16800
C 	C 	0.16020 0.37950 0.02630 -0.15900
H 	H 	0.15850 0.36330 0.96310 0.14100
C 	C 	0.13090 0.39080 0.19930 -0.06400
H 	H 	0.11040 0.38260 0.25560 0.05100
C 	C 	0.16580 0.42710 0.20770 -0.11100
C 	C 	0.12820 0.36860 0.10750 0.08500
C 	C 	0.10620 0.28700 0.09690 0.07800
C 	C 	0.19810 0.43620 0.13000 0.05900
H 	H 	0.22340 0.45810 0.13910 0.00100
C 	C 	0.15650 0.27420 0.10060 -0.09200
H 	H 	0.18440 0.29380 0.10270 0.05100
C 	C 	0.03980 0.34730 0.09340 0.08600
C 	C 	0.19350 0.41330 0.03850 -0.16700
C 	C 	0.02260 0.39330 0.08990 -0.14600
H 	H 	0.04290 0.41960 0.08790 0.05500
C 	C 	0.16860 0.45380 0.30410 0.34700
C 	C 	0.22730 0.42470 0.95400 0.47500
O 	O 	0.69540 0.01269 0.18490 -0.49000
O 	O 	0.76100 0.04960 0.53380 -0.51900
O 	O 	0.64360 0.06000 0.11680 -0.45600
O 	O 	0.71530 0.08620 0.64080 -0.36000
C 	C 	0.59030 0.16730 0.40460 -0.12700
C 	C 	0.66020 0.12050 0.47370 -0.00700
H 	H 	0.65850 0.13670 0.53690 0.04000
C 	C 	0.63090 0.10920 0.30070 -0.02400
H 	H 	0.61040 0.11740 0.24440 0.03100
C 	C 	0.66580 0.07290 0.29230 -0.13700
C 	C 	0.62820 0.13140 0.39250 0.02000
C 	C 	0.60620 0.21300 0.40310 0.07200
C 	C 	0.69810 0.06380 0.37000 0.07600
H 	H 	0.72340 0.04190 0.36090 -0.00200
C 	C 	0.65650 0.22580 0.39940 -0.08100
H 	H 	0.68440 0.20620 0.39730 0.05800
C 	C 	0.53980 0.15270 0.40660 0.06600
C 	C 	0.69350 0.08670 0.46150 -0.15900
C 	C 	0.52260 0.10670 0.41010 -0.07700
H 	H 	0.54290 0.08040 0.41210 0.04000
C 	C 	0.66860 0.04620 0.19590 0.35500
C 	C 	0.72730 0.07530 0.54600 0.42500
O 	O 	0.19540 0.51269 0.68490 -0.48500
O 	O 	0.26100 0.54960 0.03380 -0.51500
O 	O 	0.14360 0.56000 0.61680 -0.46400
O 	O 	0.21530 0.58620 0.14080 -0.36200
C 	C 	0.09030 0.66730 0.90460 -0.10600
C 	C 	0.16020 0.62050 0.97370 0.13000
H 	H 	0.15850 0.63670 0.03690 -0.06600
C 	C 	0.13090 0.60920 0.80070 0.00200
H 	H 	0.11040 0.61740 0.74440 0.02700
C 	C 	0.16580 0.57290 0.79230 -0.13600
C 	C 	0.12820 0.63140 0.89250 -0.02600
C 	C 	0.10620 0.71300 0.90310 0.07200
C 	C 	0.19810 0.56380 0.87000 0.07800
H 	H 	0.22340 0.54190 0.86090 0.01900
C 	C 	0.15650 0.72580 0.89940 -0.07200
H 	H 	0.18440 0.70620 0.89730 0.06400
C 	C 	0.03980 0.65270 0.90660 0.08200
C 	C 	0.19350 0.58670 0.96150 -0.12700
C 	C 	0.02260 0.60670 0.91010 -0.13100
H 	H 	0.04290 0.58040 0.91210 0.07400
C 	C 	0.16860 0.54620 0.69590 0.36100
C 	C 	0.22730 0.57530 0.04600 0.36000
O 	O 	0.30460 0.48731 0.18490 -0.48000
O 	O 	0.23900 0.45040 0.53380 -0.51800
O 	O 	0.35640 0.44000 0.11680 -0.46200
O 	O 	0.28470 0.41380 0.64080 -0.35200
C 	C 	0.40970 0.33270 0.40460 -0.12700
C 	C 	0.33980 0.37950 0.47370 -0.00800
H 	H 	0.34150 0.36330 0.53690 0.04100
C 	C 	0.36910 0.39080 0.30070 -0.02600
H 	H 	0.38960 0.38260 0.24440 0.03400
C 	C 	0.33420 0.42710 0.29230 -0.13000
C 	C 	0.37180 0.36860 0.39250 0.02300
C 	C 	0.39380 0.28700 0.40310 0.07200
C 	C 	0.30190 0.43620 0.37000 0.07600
H 	H 	0.27660 0.45810 0.36090 0.00500
C 	C 	0.34350 0.27420 0.39940 -0.08100
H 	H 	0.31560 0.29380 0.39730 0.05700
C 	C 	0.46020 0.34730 0.40660 0.06800
C 	C 	0.30650 0.41330 0.46150 -0.15500
C 	C 	0.47740 0.39330 0.41010 -0.07600
H 	H 	0.45710 0.41960 0.41210 0.04800
C 	C 	0.33140 0.45380 0.19590 0.35400
C 	C 	0.27270 0.42470 0.54600 0.43000
O 	O 	0.80460 0.98731 0.68490 -0.44000
O 	O 	0.73900 0.95040 0.03380 -0.46800
O 	O 	0.85640 0.94000 0.61680 -0.42500
O 	O 	0.78470 0.91380 0.14080 -0.34000
C 	C 	0.90970 0.83270 0.90460 -0.09700
C 	C 	0.83980 0.87950 0.97370 0.12000
H 	H 	0.84150 0.86330 0.03690 -0.05700
C 	C 	0.86910 0.89080 0.80070 -0.00600
H 	H 	0.88960 0.88260 0.74440 0.03700
C 	C 	0.83420 0.92710 0.79230 -0.11500
C 	C 	0.87180 0.86860 0.89250 -0.01800
C 	C 	0.89380 0.78700 0.90310 0.07400
C 	C 	0.80190 0.93620 0.87000 0.06400
H 	H 	0.77660 0.95810 0.86090 0.03400
C 	C 	0.84350 0.77420 0.89940 -0.07200
H 	H 	0.81560 0.79380 0.89730 0.06500
C 	C 	0.96020 0.84730 0.90660 0.07000
C 	C 	0.80650 0.91330 0.96150 -0.10400
C 	C 	0.97740 0.89330 0.91010 -0.00900
H 	H 	0.95710 0.91960 0.91210 0.05100
C 	C 	0.83140 0.95380 0.69590 0.35000
C 	C 	0.77270 0.92470 0.04600 0.34300
Sm	Sm	0.82737 0.50000 0.50000 1.75800
Sm	Sm	0.32737 0.00000 -0.00000 1.44400
Sm	Sm	0.17263 -0.00000 0.50000 1.60700
Sm	Sm	0.67263 0.50000 -0.00000 1.58100
Sm	Sm	0.17263 0.50000 0.50000 1.74600
Sm	Sm	0.67263 0.00000 -0.00000 1.44400
Sm	Sm	0.82737 -0.00000 0.50000 1.61900
Sm	Sm	0.32737 0.50000 -0.00000 1.58100
Zn	Zn	0.50000 0.25000 0.44040 0.79100
Zn	Zn	0.50000 0.25000 0.38390 0.78900
Zn	Zn	-0.00000 0.75000 0.94040 0.79100
Zn	Zn	-0.00000 0.75000 0.88390 0.78700
Zn	Zn	0.50000 0.75000 0.55960 0.78800
Zn	Zn	0.50000 0.75000 0.61610 0.79400
Zn	Zn	-0.00000 0.25000 0.05960 0.78100
Zn	Zn	-0.00000 0.25000 0.11610 0.78900
Na	Na	0.75000 0.45972 0.75000 0.59300
Na	Na	0.25000 0.04028 0.75000 0.58600
Na	Na	0.25000 0.95972 0.25000 0.59900
Na	Na	0.75000 0.54028 0.25000 0.59100
Na	Na	0.25000 0.54028 0.25000 0.59100
Na	Na	0.75000 0.95972 0.25000 0.59900
Na	Na	0.75000 0.04028 0.75000 0.58600
Na	Na	0.25000 0.45972 0.75000 0.59300
N 	N 	0.50000 0.31950 0.40830 -0.34400
N 	N 	-0.00000 0.81950 0.90830 -0.35200
N 	N 	0.50000 0.18050 0.40830 -0.34400
N 	N 	0.00000 0.68050 0.90830 -0.35100
N 	N 	0.50000 0.81950 0.59170 -0.34400
N 	N 	0.00000 0.31950 0.09170 -0.36100
N 	N 	0.50000 0.68050 0.59170 -0.34400
N 	N 	-0.00000 0.18050 0.09170 -0.36100
N 	N 	0.57560 0.25000 0.41210 -0.34200
N 	N 	0.07560 0.75000 0.91210 -0.33900
N 	N 	0.42440 0.25000 0.41210 -0.34200
N 	N 	0.92440 0.75000 0.91210 -0.33100
N 	N 	0.42440 0.75000 0.58790 -0.34300
N 	N 	0.92440 0.25000 0.08790 -0.34300
N 	N 	0.57560 0.75000 0.58790 -0.34300
N 	N 	0.07560 0.25000 0.08790 -0.35100
