data_crystal

_cell_length_a 27.63100
_cell_length_b 29.08000
_cell_length_c 13.13600
_cell_angle_alpha 90.00000
_cell_angle_beta  90.00000
_cell_angle_gamma 90.00000

_symmetry_space_group_name_	'P 1'
_symmetry_space_group_name_H-M	'P 1'

loop_
_symmetry_equiv_pos_as_xyz
  x,y,z

loop_
_atom_site_label
_atom_site_type_symbol
_atom_site_fract_x
_atom_site_fract_y
_atom_site_fract_z
_atom_site_charge
O 	O 	0.69711 0.48711 0.18320 -0.43700
O 	O 	0.76780 0.44490 0.52520 -0.17300
O 	O 	0.71110 0.41450 0.63510 -0.34700
O 	O 	0.64030 0.44470 0.11920 -0.34800
C 	C 	0.60260 0.28790 0.40300 0.07300
C 	C 	0.66480 0.42820 0.28700 -0.10700
C 	C 	0.65600 0.38030 0.47080 -0.03500
H 	H 	0.65220 0.36480 0.53400 0.05200
C 	C 	0.62630 0.36990 0.38650 0.03700
C 	C 	0.65300 0.27310 0.39690 -0.07700
H 	H 	0.68070 0.29250 0.39350 0.05600
C 	C 	0.58740 0.33340 0.39710 -0.13600
C 	C 	0.67090 0.45290 0.18980 0.34000
C 	C 	0.63120 0.39400 0.29790 -0.03600
H 	H 	0.61070 0.38680 0.24220 0.04200
C 	C 	0.72300 0.42740 0.54720 0.39400
C 	C 	0.54040 0.34710 0.39530 0.06900
C 	C 	0.52360 0.39520 0.39510 -0.07500
H 	H 	0.54370 0.42160 0.39490 0.05400
C 	C 	0.69610 0.43720 0.36830 0.04400
H 	H 	0.72100 0.45940 0.36060 0.01900
C 	C 	0.69150 0.41450 0.45760 -0.11100
O 	O 	0.75130 0.45640 0.53820 -0.28700
O 	O 	0.65590 0.43080 0.10430 -0.06800
O 	O 	0.19711 0.98711 0.68320 -0.40000
O 	O 	0.26780 0.94490 0.02520 -0.32000
O 	O 	0.21110 0.91450 0.13510 -0.32400
O 	O 	0.14030 0.94470 0.61920 -0.35200
C 	C 	0.10260 0.78790 0.90300 0.07700
C 	C 	0.16480 0.92820 0.78700 -0.08400
C 	C 	0.15600 0.88030 0.97080 0.04200
H 	H 	0.15220 0.86480 0.03400 -0.01400
C 	C 	0.12630 0.86990 0.88650 0.02000
C 	C 	0.15300 0.77310 0.89690 -0.07200
H 	H 	0.18070 0.79250 0.89350 0.06200
C 	C 	0.08740 0.83340 0.89710 -0.12700
C 	C 	0.17090 0.95290 0.68980 0.33400
C 	C 	0.13120 0.89400 0.79790 -0.03400
H 	H 	0.11070 0.88680 0.74220 0.04700
C 	C 	0.22300 0.92740 0.04720 0.28100
C 	C 	0.04040 0.84710 0.89530 0.08200
C 	C 	0.02360 0.89520 0.89510 -0.11400
H 	H 	0.04370 0.92160 0.89490 0.07900
C 	C 	0.19610 0.93720 0.86830 0.01500
H 	H 	0.22100 0.95940 0.86060 0.05500
C 	C 	0.19150 0.91450 0.95760 -0.04400
O 	O 	0.25130 0.95640 0.03820 -0.07800
O 	O 	0.15590 0.93080 0.60430 -0.02800
O 	O 	0.30289 0.01289 0.18320 -0.44900
O 	O 	0.23220 0.05510 0.52520 -0.06200
O 	O 	0.28890 0.08550 0.63510 -0.36500
O 	O 	0.35970 0.05530 0.11920 -0.35000
C 	C 	0.39740 0.21210 0.40300 0.07100
C 	C 	0.33520 0.07180 0.28700 -0.12100
C 	C 	0.34400 0.11970 0.47080 -0.02500
H 	H 	0.34780 0.13520 0.53400 0.04600
C 	C 	0.37370 0.13010 0.38650 0.02800
C 	C 	0.34700 0.22690 0.39690 -0.07600
H 	H 	0.31930 0.20750 0.39350 0.05400
C 	C 	0.41260 0.16660 0.39710 -0.13400
C 	C 	0.32910 0.04710 0.18980 0.34500
C 	C 	0.36880 0.10600 0.29790 -0.02800
H 	H 	0.38930 0.11320 0.24220 0.03700
C 	C 	0.27700 0.07260 0.54720 0.42500
C 	C 	0.45960 0.15290 0.39530 0.06700
C 	C 	0.47640 0.10480 0.39510 -0.07600
H 	H 	0.45630 0.07840 0.39490 0.04800
C 	C 	0.30390 0.06280 0.36830 0.05600
H 	H 	0.27900 0.04060 0.36060 0.00900
C 	C 	0.30850 0.08550 0.45760 -0.13400
O 	O 	0.24870 0.04360 0.53820 -0.41500
O 	O 	0.34410 0.06920 0.10430 -0.07000
O 	O 	0.80289 0.51289 0.68320 -0.43500
O 	O 	0.73220 0.55510 0.02520 -0.29900
O 	O 	0.78890 0.58550 0.13510 -0.34100
O 	O 	0.85970 0.55530 0.61920 -0.37800
C 	C 	0.89740 0.71210 0.90300 0.07700
C 	C 	0.83520 0.57180 0.78700 -0.10000
C 	C 	0.84400 0.61970 0.97080 0.05400
H 	H 	0.84780 0.63520 0.03400 -0.01900
C 	C 	0.87370 0.63010 0.88650 0.00900
C 	C 	0.84700 0.72690 0.89690 -0.06900
H 	H 	0.81930 0.70750 0.89350 0.06200
C 	C 	0.91260 0.66660 0.89710 -0.11700
C 	C 	0.82910 0.54710 0.68980 0.34500
C 	C 	0.86880 0.60600 0.79790 -0.02300
H 	H 	0.88930 0.61320 0.74220 0.04400
C 	C 	0.77700 0.57260 0.04720 0.30300
C 	C 	0.95960 0.65290 0.89530 0.07500
C 	C 	0.97640 0.60480 0.89510 -0.02500
H 	H 	0.95630 0.57840 0.89490 0.05000
C 	C 	0.80390 0.56280 0.86830 0.02900
H 	H 	0.77900 0.54060 0.86060 0.04000
C 	C 	0.80850 0.58550 0.95760 -0.06600
O 	O 	0.74870 0.54360 0.03820 -0.14200
O 	O 	0.84410 0.56920 0.60430 -0.02500
O 	O 	0.30289 0.98711 0.81680 -0.37900
O 	O 	0.23220 0.94490 0.47480 -0.21800
O 	O 	0.28890 0.91450 0.36490 -0.33600
O 	O 	0.35970 0.94470 0.88080 -0.35100
C 	C 	0.39740 0.78790 0.59700 0.07600
C 	C 	0.33520 0.92820 0.71300 -0.07800
C 	C 	0.34400 0.88030 0.52920 -0.04900
H 	H 	0.34780 0.86480 0.46600 0.05400
C 	C 	0.37370 0.86990 0.61350 0.05100
C 	C 	0.34700 0.77310 0.60310 -0.07600
H 	H 	0.31930 0.79250 0.60650 0.05700
C 	C 	0.41260 0.83340 0.60290 -0.14000
C 	C 	0.32910 0.95290 0.81020 0.33100
C 	C 	0.36880 0.89400 0.70210 -0.05100
H 	H 	0.38930 0.88680 0.75780 0.06100
C 	C 	0.27700 0.92740 0.45280 0.36400
C 	C 	0.45960 0.84710 0.60470 0.07500
C 	C 	0.47640 0.89520 0.60490 -0.07200
H 	H 	0.45630 0.92160 0.60510 0.06400
C 	C 	0.30390 0.93720 0.63170 0.02500
H 	H 	0.27900 0.95940 0.63940 0.03800
C 	C 	0.30850 0.91450 0.54240 -0.08400
O 	O 	0.24870 0.95640 0.46180 -0.19800
O 	O 	0.34410 0.93080 0.89570 0.01300
O 	O 	0.80289 0.48711 0.31680 -0.44100
O 	O 	0.73220 0.44490 0.97480 0.04500
O 	O 	0.78890 0.41450 0.86490 -0.36300
O 	O 	0.85970 0.44470 0.38080 -0.38900
C 	C 	0.89740 0.28790 0.09700 0.07500
C 	C 	0.83520 0.42820 0.21300 -0.10500
C 	C 	0.84400 0.38030 0.02920 -0.12400
H 	H 	0.84780 0.36480 0.96600 0.12000
C 	C 	0.87370 0.36990 0.11350 0.06800
C 	C 	0.84700 0.27310 0.10310 -0.08200
H 	H 	0.81930 0.29250 0.10650 0.05000
C 	C 	0.91260 0.33340 0.10290 -0.15300
C 	C 	0.82910 0.45290 0.31020 0.34400
C 	C 	0.86880 0.39400 0.20210 -0.05100
H 	H 	0.88930 0.38680 0.25780 0.05500
C 	C 	0.77700 0.42740 0.95280 0.49300
C 	C 	0.95960 0.34710 0.10470 0.07700
C 	C 	0.97640 0.39520 0.10490 -0.03600
H 	H 	0.95630 0.42160 0.10510 0.03800
C 	C 	0.80390 0.43720 0.13170 0.05700
H 	H 	0.77900 0.45940 0.13940 0.00600
C 	C 	0.80850 0.41450 0.04240 -0.15600
O 	O 	0.74870 0.45640 0.96180 -0.49400
O 	O 	0.84410 0.43080 0.39570 -0.01400
O 	O 	0.69711 0.51289 0.81680 -0.41400
O 	O 	0.76780 0.55510 0.47480 -0.18700
O 	O 	0.71110 0.58550 0.36490 -0.35500
O 	O 	0.64030 0.55530 0.88080 -0.38900
C 	C 	0.60260 0.71210 0.59700 0.07400
C 	C 	0.66480 0.57180 0.71300 -0.09800
C 	C 	0.65600 0.61970 0.52920 -0.03700
H 	H 	0.65220 0.63520 0.46600 0.04800
C 	C 	0.62630 0.63010 0.61350 0.04000
C 	C 	0.65300 0.72690 0.60310 -0.07500
H 	H 	0.68070 0.70750 0.60650 0.05700
C 	C 	0.58740 0.66660 0.60290 -0.13700
C 	C 	0.67090 0.54710 0.81020 0.34300
C 	C 	0.63120 0.60600 0.70210 -0.03900
H 	H 	0.61070 0.61320 0.75780 0.05500
C 	C 	0.72300 0.57260 0.45280 0.39000
C 	C 	0.54040 0.65290 0.60470 0.07100
C 	C 	0.52360 0.60480 0.60490 -0.07400
H 	H 	0.54370 0.57840 0.60510 0.05600
C 	C 	0.69610 0.56280 0.63170 0.04100
H 	H 	0.72100 0.54060 0.63940 0.02100
C 	C 	0.69150 0.58550 0.54240 -0.10900
O 	O 	0.75130 0.54360 0.46180 -0.27300
O 	O 	0.65590 0.56920 0.89570 0.02400
O 	O 	0.19711 0.01289 0.31680 -0.45400
O 	O 	0.26780 0.05510 0.97480 0.16300
O 	O 	0.21110 0.08550 0.86490 -0.38300
O 	O 	0.14030 0.05530 0.38080 -0.40100
C 	C 	0.10260 0.21210 0.09700 0.07200
C 	C 	0.16480 0.07180 0.21300 -0.12200
C 	C 	0.15600 0.11970 0.02920 -0.11300
H 	H 	0.15220 0.13520 0.96600 0.11200
C 	C 	0.12630 0.13010 0.11350 0.05900
C 	C 	0.15300 0.22690 0.10310 -0.08200
H 	H 	0.18070 0.20750 0.10650 0.04900
C 	C 	0.08740 0.16660 0.10290 -0.15800
C 	C 	0.17090 0.04710 0.31020 0.35000
C 	C 	0.13120 0.10600 0.20210 -0.04300
H 	H 	0.11070 0.11320 0.25780 0.04600
C 	C 	0.22300 0.07260 0.95280 0.52800
C 	C 	0.04040 0.15290 0.10470 0.07800
C 	C 	0.02360 0.10480 0.10490 -0.12800
H 	H 	0.04370 0.07840 0.10510 0.05400
C 	C 	0.19610 0.06280 0.13170 0.07000
H 	H 	0.22100 0.04060 0.13940 -0.00500
C 	C 	0.19150 0.08550 0.04240 -0.18100
O 	O 	0.25130 0.04360 0.96180 -0.63100
O 	O 	0.15590 0.06920 0.39570 -0.00900
O 	O 	0.30289 0.51289 0.81680 -0.41400
O 	O 	0.23220 0.55510 0.47480 -0.19400
O 	O 	0.28890 0.58550 0.36490 -0.35500
O 	O 	0.35970 0.55530 0.88080 -0.38800
C 	C 	0.39740 0.71210 0.59700 0.07400
C 	C 	0.33520 0.57180 0.71300 -0.09700
C 	C 	0.34400 0.61970 0.52920 -0.03800
H 	H 	0.34780 0.63520 0.46600 0.04800
C 	C 	0.37370 0.63010 0.61350 0.04100
C 	C 	0.34700 0.72690 0.60310 -0.07500
H 	H 	0.31930 0.70750 0.60650 0.05600
C 	C 	0.41260 0.66660 0.60290 -0.13700
C 	C 	0.32910 0.54710 0.81020 0.34300
C 	C 	0.36880 0.60600 0.70210 -0.04000
H 	H 	0.38930 0.61320 0.75780 0.05500
C 	C 	0.27700 0.57260 0.45280 0.38700
C 	C 	0.45960 0.65290 0.60470 0.07100
C 	C 	0.47640 0.60480 0.60490 -0.07400
H 	H 	0.45630 0.57840 0.60510 0.05600
C 	C 	0.30390 0.56280 0.63170 0.04000
H 	H 	0.27900 0.54060 0.63940 0.02100
C 	C 	0.30850 0.58550 0.54240 -0.10800
O 	O 	0.24870 0.54360 0.46180 -0.26500
O 	O 	0.34410 0.56920 0.89570 0.02300
O 	O 	0.80289 0.01289 0.31680 -0.45300
O 	O 	0.73220 0.05510 0.97480 0.16000
O 	O 	0.78890 0.08550 0.86490 -0.38000
O 	O 	0.85970 0.05530 0.38080 -0.39000
C 	C 	0.89740 0.21210 0.09700 0.07400
C 	C 	0.83520 0.07180 0.21300 -0.11900
C 	C 	0.84400 0.11970 0.02920 -0.11300
H 	H 	0.84780 0.13520 0.96600 0.11400
C 	C 	0.87370 0.13010 0.11350 0.05900
C 	C 	0.84700 0.22690 0.10310 -0.08100
H 	H 	0.81930 0.20750 0.10650 0.05000
C 	C 	0.91260 0.16660 0.10290 -0.15100
C 	C 	0.82910 0.04710 0.31020 0.34900
C 	C 	0.86880 0.10600 0.20210 -0.04300
H 	H 	0.88930 0.11320 0.25780 0.05000
C 	C 	0.77700 0.07260 0.95280 0.52700
C 	C 	0.95960 0.15290 0.10470 0.07500
C 	C 	0.97640 0.10480 0.10490 -0.03800
H 	H 	0.95630 0.07840 0.10510 0.03200
C 	C 	0.80390 0.06280 0.13170 0.07000
H 	H 	0.77900 0.04060 0.13940 -0.00400
C 	C 	0.80850 0.08550 0.04240 -0.17900
O 	O 	0.74870 0.04360 0.96180 -0.62800
O 	O 	0.84410 0.06920 0.39570 -0.01600
O 	O 	0.69711 0.98711 0.81680 -0.37900
O 	O 	0.76780 0.94490 0.47480 -0.21100
O 	O 	0.71110 0.91450 0.36490 -0.33600
O 	O 	0.64030 0.94470 0.88080 -0.35100
C 	C 	0.60260 0.78790 0.59700 0.07600
C 	C 	0.66480 0.92820 0.71300 -0.07800
C 	C 	0.65600 0.88030 0.52920 -0.04800
H 	H 	0.65220 0.86480 0.46600 0.05400
C 	C 	0.62630 0.86990 0.61350 0.05100
C 	C 	0.65300 0.77310 0.60310 -0.07600
H 	H 	0.68070 0.79250 0.60650 0.05700
C 	C 	0.58740 0.83340 0.60290 -0.13900
C 	C 	0.67090 0.95290 0.81020 0.33100
C 	C 	0.63120 0.89400 0.70210 -0.05000
H 	H 	0.61070 0.88680 0.75780 0.06100
C 	C 	0.72300 0.92740 0.45280 0.36700
C 	C 	0.54040 0.84710 0.60470 0.07500
C 	C 	0.52360 0.89520 0.60490 -0.07200
H 	H 	0.54370 0.92160 0.60510 0.06400
C 	C 	0.69610 0.93720 0.63170 0.02500
H 	H 	0.72100 0.95940 0.63940 0.03800
C 	C 	0.69150 0.91450 0.54240 -0.08500
O 	O 	0.75130 0.95640 0.46180 -0.20500
O 	O 	0.65590 0.93080 0.89570 0.01300
O 	O 	0.19711 0.48711 0.31680 -0.44300
O 	O 	0.26780 0.44490 0.97480 0.04800
O 	O 	0.21110 0.41450 0.86490 -0.36500
O 	O 	0.14030 0.44470 0.38080 -0.40000
C 	C 	0.10260 0.28790 0.09700 0.07300
C 	C 	0.16480 0.42820 0.21300 -0.10800
C 	C 	0.15600 0.38030 0.02920 -0.12400
H 	H 	0.15220 0.36480 0.96600 0.11800
C 	C 	0.12630 0.36990 0.11350 0.06800
C 	C 	0.15300 0.27310 0.10310 -0.08300
H 	H 	0.18070 0.29250 0.10650 0.05000
C 	C 	0.08740 0.33340 0.10290 -0.16000
C 	C 	0.17090 0.45290 0.31020 0.34500
C 	C 	0.13120 0.39400 0.20210 -0.05100
H 	H 	0.11070 0.38680 0.25780 0.05100
C 	C 	0.22300 0.42740 0.95280 0.49400
C 	C 	0.04040 0.34710 0.10470 0.08100
C 	C 	0.02360 0.39520 0.10490 -0.12700
H 	H 	0.04370 0.42160 0.10510 0.06000
C 	C 	0.19610 0.43720 0.13170 0.05700
H 	H 	0.22100 0.45940 0.13940 0.00600
C 	C 	0.19150 0.41450 0.04240 -0.15800
O 	O 	0.25130 0.45640 0.96180 -0.49700
O 	O 	0.15590 0.43080 0.39570 -0.00700
O 	O 	0.69711 0.01289 0.18320 -0.44900
O 	O 	0.76780 0.05510 0.52520 -0.05500
O 	O 	0.71110 0.08550 0.63510 -0.36500
O 	O 	0.64030 0.05530 0.11920 -0.35000
C 	C 	0.60260 0.21210 0.40300 0.07100
C 	C 	0.66480 0.07180 0.28700 -0.12100
C 	C 	0.65600 0.11970 0.47080 -0.02400
H 	H 	0.65220 0.13520 0.53400 0.04600
C 	C 	0.62630 0.13010 0.38650 0.02800
C 	C 	0.65300 0.22690 0.39690 -0.07600
H 	H 	0.68070 0.20750 0.39350 0.05500
C 	C 	0.58740 0.16660 0.39710 -0.13400
C 	C 	0.67090 0.04710 0.18980 0.34500
C 	C 	0.63120 0.10600 0.29790 -0.02800
H 	H 	0.61070 0.11320 0.24220 0.03700
C 	C 	0.72300 0.07260 0.54720 0.42800
C 	C 	0.54040 0.15290 0.39530 0.06700
C 	C 	0.52360 0.10480 0.39510 -0.07600
H 	H 	0.54370 0.07840 0.39490 0.04800
C 	C 	0.69610 0.06280 0.36830 0.05700
H 	H 	0.72100 0.04060 0.36060 0.00800
C 	C 	0.69150 0.08550 0.45760 -0.13500
O 	O 	0.75130 0.04360 0.53820 -0.42300
O 	O 	0.65590 0.06920 0.10430 -0.06900
O 	O 	0.19711 0.51289 0.68320 -0.43600
O 	O 	0.26780 0.55510 0.02520 -0.29600
O 	O 	0.21110 0.58550 0.13510 -0.34300
O 	O 	0.14030 0.55530 0.61920 -0.39000
C 	C 	0.10260 0.71210 0.90300 0.07500
C 	C 	0.16480 0.57180 0.78700 -0.10300
C 	C 	0.15600 0.61970 0.97080 0.05300
H 	H 	0.15220 0.63520 0.03400 -0.02100
C 	C 	0.12630 0.63010 0.88650 0.00900
C 	C 	0.15300 0.72690 0.89690 -0.07000
H 	H 	0.18070 0.70750 0.89350 0.06200
C 	C 	0.08740 0.66660 0.89710 -0.12400
C 	C 	0.17090 0.54710 0.68980 0.34600
C 	C 	0.13120 0.60600 0.79790 -0.02300
H 	H 	0.11070 0.61320 0.74220 0.04100
C 	C 	0.22300 0.57260 0.04720 0.30400
C 	C 	0.04040 0.65290 0.89530 0.07900
C 	C 	0.02360 0.60480 0.89510 -0.11600
H 	H 	0.04370 0.57840 0.89490 0.07200
C 	C 	0.19610 0.56280 0.86830 0.03000
H 	H 	0.22100 0.54060 0.86060 0.03900
C 	C 	0.19150 0.58550 0.95760 -0.06800
O 	O 	0.25130 0.54360 0.03820 -0.14500
O 	O 	0.15590 0.56920 0.60430 -0.01800
O 	O 	0.30289 0.48711 0.18320 -0.43700
O 	O 	0.23220 0.44490 0.52520 -0.18000
O 	O 	0.28890 0.41450 0.63510 -0.34700
O 	O 	0.35970 0.44470 0.11920 -0.34800
C 	C 	0.39740 0.28790 0.40300 0.07300
C 	C 	0.33520 0.42820 0.28700 -0.10700
C 	C 	0.34400 0.38030 0.47080 -0.03600
H 	H 	0.34780 0.36480 0.53400 0.05200
C 	C 	0.37370 0.36990 0.38650 0.03700
C 	C 	0.34700 0.27310 0.39690 -0.07700
H 	H 	0.31930 0.29250 0.39350 0.05500
C 	C 	0.41260 0.33340 0.39710 -0.13700
C 	C 	0.32910 0.45290 0.18980 0.34000
C 	C 	0.36880 0.39400 0.29790 -0.03600
H 	H 	0.38930 0.38680 0.24220 0.04200
C 	C 	0.27700 0.42740 0.54720 0.39100
C 	C 	0.45960 0.34710 0.39530 0.06900
C 	C 	0.47640 0.39520 0.39510 -0.07500
H 	H 	0.45630 0.42160 0.39490 0.05400
C 	C 	0.30390 0.43720 0.36830 0.04300
H 	H 	0.27900 0.45940 0.36060 0.01900
C 	C 	0.30850 0.41450 0.45760 -0.11000
O 	O 	0.24870 0.45640 0.53820 -0.27900
O 	O 	0.34410 0.43080 0.10430 -0.06800
O 	O 	0.80289 0.98711 0.68320 -0.39900
O 	O 	0.73220 0.94490 0.02520 -0.32300
O 	O 	0.78890 0.91450 0.13510 -0.32200
O 	O 	0.85970 0.94470 0.61920 -0.34100
C 	C 	0.89740 0.78790 0.90300 0.07900
C 	C 	0.83520 0.92820 0.78700 -0.08100
C 	C 	0.84400 0.88030 0.97080 0.04200
H 	H 	0.84780 0.86480 0.03400 -0.01200
C 	C 	0.87370 0.86990 0.88650 0.02000
C 	C 	0.84700 0.77310 0.89690 -0.07100
H 	H 	0.81930 0.79250 0.89350 0.06300
C 	C 	0.91260 0.83340 0.89710 -0.12000
C 	C 	0.82910 0.95290 0.68980 0.33300
C 	C 	0.86880 0.89400 0.79790 -0.03400
H 	H 	0.88930 0.88680 0.74220 0.05100
C 	C 	0.77700 0.92740 0.04720 0.28000
C 	C 	0.95960 0.84710 0.89530 0.07900
C 	C 	0.97640 0.89520 0.89510 -0.02400
H 	H 	0.95630 0.92160 0.89490 0.05800
C 	C 	0.80390 0.93720 0.86830 0.01400
H 	H 	0.77900 0.95940 0.86060 0.05600
C 	C 	0.80850 0.91450 0.95760 -0.04200
O 	O 	0.74870 0.95640 0.03820 -0.07500
O 	O 	0.84410 0.93080 0.60430 -0.03400
Gd	Gd	0.82260 0.50000 0.50000 1.37800
Gd	Gd	0.32260 0.00000 -0.00000 1.16500
Gd	Gd	0.17740 -0.00000 0.50000 1.27300
Gd	Gd	0.67740 0.50000 -0.00000 1.26000
Gd	Gd	0.17740 0.50000 0.50000 1.37000
Gd	Gd	0.67740 0.00000 -0.00000 1.16500
Gd	Gd	0.82260 -0.00000 0.50000 1.28100
Gd	Gd	0.32260 0.50000 -0.00000 1.26000
Zn	Zn	0.50000 0.25000 0.42900 0.84200
Zn	Zn	0.50000 0.25000 0.36590 0.83200
Zn	Zn	0.00000 0.75000 0.92900 0.84100
Zn	Zn	0.00000 0.75000 0.86590 0.83000
Zn	Zn	0.50000 0.75000 0.57100 0.84000
Zn	Zn	0.50000 0.75000 0.63410 0.83600
Zn	Zn	0.00000 0.25000 0.07100 0.83400
Zn	Zn	0.00000 0.25000 0.13410 0.83100
Na	Na	0.75000 0.45819 0.75000 0.59300
Na	Na	0.25000 0.04181 0.75000 0.58800
Na	Na	0.25000 0.95819 0.25000 0.59600
Na	Na	0.75000 0.54181 0.25000 0.59000
Na	Na	0.25000 0.54181 0.25000 0.59000
Na	Na	0.75000 0.95819 0.25000 0.59600
Na	Na	0.75000 0.04181 0.75000 0.58800
Na	Na	0.25000 0.45819 0.75000 0.59200
N 	N 	0.50000 0.31910 0.40080 -0.35900
N 	N 	0.00000 0.81910 0.90080 -0.36700
N 	N 	0.50000 0.18090 0.40080 -0.35800
N 	N 	-0.00000 0.68090 0.90080 -0.36700
N 	N 	0.50000 0.81910 0.59920 -0.35800
N 	N 	0.00000 0.31910 0.09920 -0.37500
N 	N 	0.50000 0.68090 0.59920 -0.35800
N 	N 	0.00000 0.18090 0.09920 -0.37400
N 	N 	0.57380 0.25000 0.40600 -0.35300
N 	N 	0.07380 0.75000 0.90600 -0.35100
N 	N 	0.42620 0.25000 0.40600 -0.35300
N 	N 	0.92620 0.75000 0.90600 -0.34400
N 	N 	0.42620 0.75000 0.59400 -0.35200
N 	N 	0.92620 0.25000 0.09400 -0.35100
N 	N 	0.57380 0.75000 0.59400 -0.35200
N 	N 	0.07380 0.25000 0.09400 -0.35800
