data_crystal

_cell_length_a 27.43470
_cell_length_b 28.90580
_cell_length_c 13.11570
_cell_angle_alpha 90.00000
_cell_angle_beta  90.00000
_cell_angle_gamma 90.00000

_symmetry_space_group_name_	'P 1'
_symmetry_space_group_name_H-M	'P 1'

loop_
_symmetry_equiv_pos_as_xyz
  x,y,z

loop_
_atom_site_label
_atom_site_type_symbol
_atom_site_fract_x
_atom_site_fract_y
_atom_site_fract_z
_atom_site_charge
O 	O 	0.69410 0.48910 0.18420 -0.48300
O 	O 	0.76460 0.44950 0.52530 -0.54600
O 	O 	0.64440 0.43980 0.11970 -0.46300
O 	O 	0.71880 0.41490 0.63190 -0.38300
C 	C 	0.58870 0.33340 0.40780 -0.12700
C 	C 	0.65860 0.38170 0.47500 0.00200
H 	H 	0.65580 0.36620 0.53850 0.04000
C 	C 	0.62990 0.39310 0.30630 -0.01700
H 	H 	0.60770 0.38590 0.25310 0.03200
C 	C 	0.66600 0.42800 0.29070 -0.13800
C 	C 	0.62710 0.37010 0.39540 0.01600
C 	C 	0.60460 0.28870 0.41150 0.07100
C 	C 	0.69770 0.43940 0.37080 0.08000
H 	H 	0.72140 0.46300 0.36250 -0.00100
C 	C 	0.65550 0.27410 0.40690 -0.07600
H 	H 	0.68320 0.29370 0.40430 0.05800
C 	C 	0.54070 0.34810 0.40970 0.06800
C 	C 	0.69380 0.41560 0.46270 -0.16900
C 	C 	0.52450 0.39550 0.40990 -0.07900
H 	H 	0.54480 0.42210 0.41000 0.04900
C 	C 	0.66910 0.45430 0.19440 0.38100
C 	C 	0.72870 0.42820 0.54360 0.48900
O 	O 	0.19410 0.98910 0.68420 -0.44200
O 	O 	0.26460 0.94950 0.02530 -0.49600
O 	O 	0.14440 0.93980 0.61970 -0.42900
O 	O 	0.21880 0.91490 0.13190 -0.37000
C 	C 	0.08870 0.83340 0.90780 -0.10700
C 	C 	0.15860 0.88170 0.97500 0.12500
H 	H 	0.15580 0.86620 0.03850 -0.05800
C 	C 	0.12990 0.89310 0.80630 0.00200
H 	H 	0.10770 0.88590 0.75310 0.03300
C 	C 	0.16600 0.92800 0.79070 -0.12500
C 	C 	0.12710 0.87010 0.89540 -0.02200
C 	C 	0.10460 0.78870 0.91150 0.07200
C 	C 	0.19770 0.93940 0.87080 0.06900
H 	H 	0.22140 0.96300 0.86250 0.02900
C 	C 	0.15550 0.77410 0.90690 -0.06900
H 	H 	0.18320 0.79370 0.90430 0.06500
C 	C 	0.04070 0.84810 0.90970 0.07800
C 	C 	0.19380 0.91560 0.96270 -0.11700
C 	C 	0.02450 0.89550 0.90990 -0.10800
H 	H 	0.04480 0.92210 0.91000 0.07700
C 	C 	0.16910 0.95430 0.69440 0.37500
C 	C 	0.22870 0.92820 0.04360 0.40200
O 	O 	0.30590 0.01090 0.18420 -0.49500
O 	O 	0.23540 0.05050 0.52530 -0.54300
O 	O 	0.35560 0.06020 0.11970 -0.45800
O 	O 	0.28120 0.08510 0.63190 -0.39200
C 	C 	0.41130 0.16660 0.40780 -0.12700
C 	C 	0.34140 0.11830 0.47500 0.00100
H 	H 	0.34420 0.13380 0.53850 0.03800
C 	C 	0.37010 0.10690 0.30630 -0.01600
H 	H 	0.39230 0.11410 0.25310 0.03000
C 	C 	0.33400 0.07200 0.29070 -0.14500
C 	C 	0.37290 0.12990 0.39540 0.01300
C 	C 	0.39540 0.21130 0.41150 0.07100
C 	C 	0.30230 0.06060 0.37080 0.07900
H 	H 	0.27860 0.03700 0.36250 -0.00900
C 	C 	0.34450 0.22590 0.40690 -0.07700
H 	H 	0.31680 0.20630 0.40430 0.05800
C 	C 	0.45930 0.15190 0.40970 0.06600
C 	C 	0.30620 0.08440 0.46270 -0.17200
C 	C 	0.47550 0.10450 0.40990 -0.08100
H 	H 	0.45520 0.07790 0.41000 0.04200
C 	C 	0.33090 0.04570 0.19440 0.38300
C 	C 	0.27130 0.07180 0.54360 0.47900
O 	O 	0.80590 0.51090 0.68420 -0.48600
O 	O 	0.73540 0.55050 0.02530 -0.54300
O 	O 	0.85560 0.56020 0.61970 -0.46000
O 	O 	0.78120 0.58510 0.13190 -0.39000
C 	C 	0.91130 0.66660 0.90780 -0.09800
C 	C 	0.84140 0.61830 0.97500 0.13600
H 	H 	0.84420 0.63380 0.03850 -0.06400
C 	C 	0.87010 0.60690 0.80630 0.01200
H 	H 	0.89230 0.61410 0.75310 0.02900
C 	C 	0.83400 0.57200 0.79070 -0.14200
C 	C 	0.87290 0.62990 0.89540 -0.03300
C 	C 	0.89540 0.71130 0.91150 0.07200
C 	C 	0.80230 0.56060 0.87080 0.08100
H 	H 	0.77860 0.53700 0.86250 0.01400
C 	C 	0.84450 0.72590 0.90690 -0.06700
H 	H 	0.81680 0.70630 0.90430 0.06500
C 	C 	0.95930 0.65190 0.90970 0.07200
C 	C 	0.80620 0.58440 0.96270 -0.13700
C 	C 	0.97550 0.60450 0.90990 -0.03400
H 	H 	0.95520 0.57790 0.91000 0.05000
C 	C 	0.83090 0.54570 0.69440 0.38800
C 	C 	0.77130 0.57180 0.04360 0.41900
O 	O 	0.30590 0.98910 0.81580 -0.41100
O 	O 	0.23540 0.94950 0.47470 -0.50100
O 	O 	0.35560 0.93980 0.88030 -0.37600
O 	O 	0.28120 0.91490 0.36810 -0.37600
C 	C 	0.41130 0.83340 0.59220 -0.13000
C 	C 	0.34140 0.88170 0.52500 -0.00900
H 	H 	0.34420 0.86620 0.46150 0.03800
C 	C 	0.37010 0.89310 0.69370 -0.03000
H 	H 	0.39230 0.88590 0.74690 0.05400
C 	C 	0.33400 0.92800 0.70930 -0.10600
C 	C 	0.37290 0.87010 0.60460 0.03000
C 	C 	0.39540 0.78870 0.58850 0.07400
C 	C 	0.30230 0.93940 0.62920 0.06500
H 	H 	0.27860 0.96300 0.63750 0.01700
C 	C 	0.34450 0.77410 0.59310 -0.07700
H 	H 	0.31680 0.79370 0.59570 0.05800
C 	C 	0.45930 0.84810 0.59030 0.07200
C 	C 	0.30620 0.91560 0.53730 -0.14800
C 	C 	0.47550 0.89550 0.59010 -0.07500
H 	H 	0.45520 0.92210 0.59000 0.06200
C 	C 	0.33090 0.95430 0.80560 0.36100
C 	C 	0.27130 0.92820 0.45640 0.47300
O 	O 	0.80590 0.48910 0.31580 -0.49000
O 	O 	0.73540 0.44950 0.97470 -0.49400
O 	O 	0.85560 0.43980 0.38030 -0.45600
O 	O 	0.78120 0.41490 0.86810 -0.38100
C 	C 	0.91130 0.33340 0.09220 -0.15700
C 	C 	0.84140 0.38170 0.02500 -0.14200
H 	H 	0.84420 0.36620 0.96150 0.13800
C 	C 	0.87010 0.39310 0.19370 -0.05100
H 	H 	0.89230 0.38590 0.24690 0.05200
C 	C 	0.83400 0.42800 0.20930 -0.11900
C 	C 	0.87290 0.37010 0.10460 0.07300
C 	C 	0.89540 0.28870 0.08850 0.07600
C 	C 	0.80230 0.43940 0.12920 0.06700
H 	H 	0.77860 0.46300 0.13750 -0.00600
C 	C 	0.84450 0.27410 0.09310 -0.08600
H 	H 	0.81680 0.29370 0.09570 0.05200
C 	C 	0.95930 0.34810 0.09030 0.07700
C 	C 	0.80620 0.41560 0.03730 -0.18500
C 	C 	0.97550 0.39550 0.09010 -0.05000
H 	H 	0.95520 0.42210 0.09000 0.03200
C 	C 	0.83090 0.45430 0.30560 0.37500
C 	C 	0.77130 0.42820 0.95640 0.53200
O 	O 	0.69410 0.51090 0.81580 -0.45600
O 	O 	0.76460 0.55050 0.47470 -0.55000
O 	O 	0.64440 0.56020 0.88030 -0.41000
O 	O 	0.71880 0.58510 0.36810 -0.39700
C 	C 	0.58870 0.66660 0.59220 -0.12700
C 	C 	0.65860 0.61830 0.52500 0.00200
H 	H 	0.65580 0.63380 0.46150 0.03100
C 	C 	0.62990 0.60690 0.69370 -0.02000
H 	H 	0.60770 0.61410 0.74690 0.04700
C 	C 	0.66600 0.57200 0.70930 -0.12500
C 	C 	0.62710 0.62990 0.60460 0.01900
C 	C 	0.60460 0.71130 0.58850 0.07200
C 	C 	0.69770 0.56060 0.62920 0.07700
H 	H 	0.72140 0.53700 0.63750 0.00100
C 	C 	0.65550 0.72590 0.59310 -0.07500
H 	H 	0.68320 0.70630 0.59570 0.05800
C 	C 	0.54070 0.65190 0.59030 0.06900
C 	C 	0.69380 0.58440 0.53730 -0.17100
C 	C 	0.52450 0.60450 0.59010 -0.07800
H 	H 	0.54480 0.57790 0.59000 0.05100
C 	C 	0.66910 0.54570 0.80560 0.37400
C 	C 	0.72870 0.57180 0.45640 0.49100
O 	O 	0.19410 0.01090 0.31580 -0.50200
O 	O 	0.26460 0.05050 0.97470 -0.49200
O 	O 	0.14440 0.06020 0.38030 -0.45500
O 	O 	0.21880 0.08510 0.86810 -0.39100
C 	C 	0.08870 0.16660 0.09220 -0.16300
C 	C 	0.15860 0.11830 0.02500 -0.14300
H 	H 	0.15580 0.13380 0.96150 0.13400
C 	C 	0.12990 0.10690 0.19370 -0.05100
H 	H 	0.10770 0.11410 0.24690 0.04600
C 	C 	0.16600 0.07200 0.20930 -0.12900
C 	C 	0.12710 0.12990 0.10460 0.07000
C 	C 	0.10460 0.21130 0.08850 0.07400
C 	C 	0.19770 0.06060 0.12920 0.06600
H 	H 	0.22140 0.03700 0.13750 -0.01400
C 	C 	0.15550 0.22590 0.09310 -0.08700
H 	H 	0.18320 0.20630 0.09570 0.05200
C 	C 	0.04070 0.15190 0.09030 0.07700
C 	C 	0.19380 0.08440 0.03730 -0.19000
C 	C 	0.02450 0.10450 0.09010 -0.12900
H 	H 	0.04480 0.07790 0.09000 0.04200
C 	C 	0.16910 0.04570 0.30560 0.37700
C 	C 	0.22870 0.07180 0.95640 0.52200
O 	O 	0.30590 0.51090 0.81580 -0.45600
O 	O 	0.23540 0.55050 0.47470 -0.54900
O 	O 	0.35560 0.56020 0.88030 -0.41000
O 	O 	0.28120 0.58510 0.36810 -0.39800
C 	C 	0.41130 0.66660 0.59220 -0.12700
C 	C 	0.34140 0.61830 0.52500 0.00100
H 	H 	0.34420 0.63380 0.46150 0.03100
C 	C 	0.37010 0.60690 0.69370 -0.02000
H 	H 	0.39230 0.61410 0.74690 0.04700
C 	C 	0.33400 0.57200 0.70930 -0.12500
C 	C 	0.37290 0.62990 0.60460 0.01900
C 	C 	0.39540 0.71130 0.58850 0.07200
C 	C 	0.30230 0.56060 0.62920 0.07700
H 	H 	0.27860 0.53700 0.63750 0.00100
C 	C 	0.34450 0.72590 0.59310 -0.07600
H 	H 	0.31680 0.70630 0.59570 0.05700
C 	C 	0.45930 0.65190 0.59030 0.06900
C 	C 	0.30620 0.58440 0.53730 -0.17000
C 	C 	0.47550 0.60450 0.59010 -0.07800
H 	H 	0.45520 0.57790 0.59000 0.05100
C 	C 	0.33090 0.54570 0.80560 0.37400
C 	C 	0.27130 0.57180 0.45640 0.49000
O 	O 	0.80590 0.01090 0.31580 -0.50100
O 	O 	0.73540 0.05050 0.97470 -0.49200
O 	O 	0.85560 0.06020 0.38030 -0.45100
O 	O 	0.78120 0.08510 0.86810 -0.39000
C 	C 	0.91130 0.16660 0.09220 -0.15700
C 	C 	0.84140 0.11830 0.02500 -0.14200
H 	H 	0.84420 0.13380 0.96150 0.13600
C 	C 	0.87010 0.10690 0.19370 -0.05000
H 	H 	0.89230 0.11410 0.24690 0.04900
C 	C 	0.83400 0.07200 0.20930 -0.12600
C 	C 	0.87290 0.12990 0.10460 0.07000
C 	C 	0.89540 0.21130 0.08850 0.07600
C 	C 	0.80230 0.06060 0.12920 0.06600
H 	H 	0.77860 0.03700 0.13750 -0.01400
C 	C 	0.84450 0.22590 0.09310 -0.08600
H 	H 	0.81680 0.20630 0.09570 0.05200
C 	C 	0.95930 0.15190 0.09030 0.07500
C 	C 	0.80620 0.08440 0.03730 -0.18800
C 	C 	0.97550 0.10450 0.09010 -0.05300
H 	H 	0.95520 0.07790 0.09000 0.02500
C 	C 	0.83090 0.04570 0.30560 0.37700
C 	C 	0.77130 0.07180 0.95640 0.52200
O 	O 	0.69410 0.98910 0.81580 -0.41100
O 	O 	0.76460 0.94950 0.47470 -0.50200
O 	O 	0.64440 0.93980 0.88030 -0.37600
O 	O 	0.71880 0.91490 0.36810 -0.37600
C 	C 	0.58870 0.83340 0.59220 -0.13000
C 	C 	0.65860 0.88170 0.52500 -0.00800
H 	H 	0.65580 0.86620 0.46150 0.03800
C 	C 	0.62990 0.89310 0.69370 -0.02900
H 	H 	0.60770 0.88590 0.74690 0.05400
C 	C 	0.66600 0.92800 0.70930 -0.10600
C 	C 	0.62710 0.87010 0.60460 0.03000
C 	C 	0.60460 0.78870 0.58850 0.07400
C 	C 	0.69770 0.93940 0.62920 0.06500
H 	H 	0.72140 0.96300 0.63750 0.01700
C 	C 	0.65550 0.77410 0.59310 -0.07700
H 	H 	0.68320 0.79370 0.59570 0.05800
C 	C 	0.54070 0.84810 0.59030 0.07200
C 	C 	0.69380 0.91560 0.53730 -0.14800
C 	C 	0.52450 0.89550 0.59010 -0.07500
H 	H 	0.54480 0.92210 0.59000 0.06200
C 	C 	0.66910 0.95430 0.80560 0.36100
C 	C 	0.72870 0.92820 0.45640 0.47400
O 	O 	0.19410 0.48910 0.31580 -0.49100
O 	O 	0.26460 0.44950 0.97470 -0.49400
O 	O 	0.14440 0.43980 0.38030 -0.46000
O 	O 	0.21880 0.41490 0.86810 -0.38300
C 	C 	0.08870 0.33340 0.09220 -0.16300
C 	C 	0.15860 0.38170 0.02500 -0.14200
H 	H 	0.15580 0.36620 0.96150 0.13700
C 	C 	0.12990 0.39310 0.19370 -0.05200
H 	H 	0.10770 0.38590 0.24690 0.04800
C 	C 	0.16600 0.42800 0.20930 -0.12200
C 	C 	0.12710 0.37010 0.10460 0.07300
C 	C 	0.10460 0.28870 0.08850 0.07400
C 	C 	0.19770 0.43940 0.12920 0.06700
H 	H 	0.22140 0.46300 0.13750 -0.00700
C 	C 	0.15550 0.27410 0.09310 -0.08700
H 	H 	0.18320 0.29370 0.09570 0.05100
C 	C 	0.04070 0.34810 0.09030 0.07800
C 	C 	0.19380 0.41560 0.03730 -0.18700
C 	C 	0.02450 0.39550 0.09010 -0.12700
H 	H 	0.04480 0.42210 0.09000 0.05000
C 	C 	0.16910 0.45430 0.30560 0.37500
C 	C 	0.22870 0.42820 0.95640 0.53200
O 	O 	0.69410 0.01090 0.18420 -0.49500
O 	O 	0.76460 0.05050 0.52530 -0.54400
O 	O 	0.64440 0.06020 0.11970 -0.45800
O 	O 	0.71880 0.08510 0.63190 -0.39200
C 	C 	0.58870 0.16660 0.40780 -0.12700
C 	C 	0.65860 0.11830 0.47500 0.00100
H 	H 	0.65580 0.13380 0.53850 0.03800
C 	C 	0.62990 0.10690 0.30630 -0.01500
H 	H 	0.60770 0.11410 0.25310 0.03000
C 	C 	0.66600 0.07200 0.29070 -0.14500
C 	C 	0.62710 0.12990 0.39540 0.01300
C 	C 	0.60460 0.21130 0.41150 0.07100
C 	C 	0.69770 0.06060 0.37080 0.07900
H 	H 	0.72140 0.03700 0.36250 -0.00900
C 	C 	0.65550 0.22590 0.40690 -0.07600
H 	H 	0.68320 0.20630 0.40430 0.05800
C 	C 	0.54070 0.15190 0.40970 0.06600
C 	C 	0.69380 0.08440 0.46270 -0.17200
C 	C 	0.52450 0.10450 0.40990 -0.08100
H 	H 	0.54480 0.07790 0.41000 0.04100
C 	C 	0.66910 0.04570 0.19440 0.38300
C 	C 	0.72870 0.07180 0.54360 0.47900
O 	O 	0.19410 0.51090 0.68420 -0.48700
O 	O 	0.26460 0.55050 0.02530 -0.54300
O 	O 	0.14440 0.56020 0.61970 -0.46400
O 	O 	0.21880 0.58510 0.13190 -0.39200
C 	C 	0.08870 0.66660 0.90780 -0.10400
C 	C 	0.15860 0.61830 0.97500 0.13600
H 	H 	0.15580 0.63380 0.03850 -0.06500
C 	C 	0.12990 0.60690 0.80630 0.01100
H 	H 	0.10770 0.61410 0.75310 0.02600
C 	C 	0.16600 0.57200 0.79070 -0.14400
C 	C 	0.12710 0.62990 0.89540 -0.03300
C 	C 	0.10460 0.71130 0.91150 0.07000
C 	C 	0.19770 0.56060 0.87080 0.08100
H 	H 	0.22140 0.53700 0.86250 0.01300
C 	C 	0.15550 0.72590 0.90690 -0.06800
H 	H 	0.18320 0.70630 0.90430 0.06500
C 	C 	0.04070 0.65190 0.90970 0.07400
C 	C 	0.19380 0.58440 0.96270 -0.13800
C 	C 	0.02450 0.60450 0.90990 -0.11100
H 	H 	0.04480 0.57790 0.91000 0.06700
C 	C 	0.16910 0.54570 0.69440 0.38800
C 	C 	0.22870 0.57180 0.04360 0.41900
O 	O 	0.30590 0.48910 0.18420 -0.48300
O 	O 	0.23540 0.44950 0.52530 -0.54500
O 	O 	0.35560 0.43980 0.11970 -0.46300
O 	O 	0.28120 0.41490 0.63190 -0.38400
C 	C 	0.41130 0.33340 0.40780 -0.12700
C 	C 	0.34140 0.38170 0.47500 0.00200
H 	H 	0.34420 0.36620 0.53850 0.03900
C 	C 	0.37010 0.39310 0.30630 -0.01700
H 	H 	0.39230 0.38590 0.25310 0.03200
C 	C 	0.33400 0.42800 0.29070 -0.13800
C 	C 	0.37290 0.37010 0.39540 0.01600
C 	C 	0.39540 0.28870 0.41150 0.07100
C 	C 	0.30230 0.43940 0.37080 0.08000
H 	H 	0.27860 0.46300 0.36250 -0.00100
C 	C 	0.34450 0.27410 0.40690 -0.07700
H 	H 	0.31680 0.29370 0.40430 0.05700
C 	C 	0.45930 0.34810 0.40970 0.06800
C 	C 	0.30620 0.41560 0.46270 -0.16900
C 	C 	0.47550 0.39550 0.40990 -0.07900
H 	H 	0.45520 0.42210 0.41000 0.04900
C 	C 	0.33090 0.45430 0.19440 0.38100
C 	C 	0.27130 0.42820 0.54360 0.48800
O 	O 	0.80590 0.98910 0.68420 -0.44100
O 	O 	0.73540 0.94950 0.02530 -0.49500
O 	O 	0.85560 0.93980 0.61970 -0.42500
O 	O 	0.78120 0.91490 0.13190 -0.36900
C 	C 	0.91130 0.83340 0.90780 -0.10100
C 	C 	0.84140 0.88170 0.97500 0.12600
H 	H 	0.84420 0.86620 0.03850 -0.05600
C 	C 	0.87010 0.89310 0.80630 0.00200
H 	H 	0.89230 0.88590 0.75310 0.03600
C 	C 	0.83400 0.92800 0.79070 -0.12300
C 	C 	0.87290 0.87010 0.89540 -0.02200
C 	C 	0.89540 0.78870 0.91150 0.07400
C 	C 	0.80230 0.93940 0.87080 0.06900
H 	H 	0.77860 0.96300 0.86250 0.02900
C 	C 	0.84450 0.77410 0.90690 -0.06800
H 	H 	0.81680 0.79370 0.90430 0.06500
C 	C 	0.95930 0.84810 0.90970 0.07600
C 	C 	0.80620 0.91560 0.96270 -0.11500
C 	C 	0.97550 0.89550 0.90990 -0.03200
H 	H 	0.95520 0.92210 0.91000 0.06000
C 	C 	0.83090 0.95430 0.69440 0.37500
C 	C 	0.77130 0.92820 0.04360 0.40200
Eu	Eu	0.82764 0.50000 0.50000 1.73100
Eu	Eu	0.32764 0.00000 -0.00000 1.42700
Eu	Eu	0.17236 0.00000 0.50000 1.58200
Eu	Eu	0.67236 0.50000 -0.00000 1.56200
Eu	Eu	0.17236 0.50000 0.50000 1.71900
Eu	Eu	0.67236 0.00000 -0.00000 1.42700
Eu	Eu	0.82764 0.00000 0.50000 1.59300
Eu	Eu	0.32764 0.50000 -0.00000 1.56200
Zn	Zn	0.50000 0.25000 0.38930 0.79100
Zn	Zn	0.50000 0.25000 0.44490 0.79000
Zn	Zn	-0.00000 0.75000 0.88930 0.78900
Zn	Zn	-0.00000 0.75000 0.94490 0.79100
Zn	Zn	0.50000 0.75000 0.61070 0.79500
Zn	Zn	0.50000 0.75000 0.55510 0.78700
Zn	Zn	-0.00000 0.25000 0.11070 0.79100
Zn	Zn	-0.00000 0.25000 0.05510 0.78000
Na	Na	0.75000 0.45860 0.75000 0.59300
Na	Na	0.25000 0.04140 0.75000 0.58600
Na	Na	0.25000 0.95860 0.25000 0.59900
Na	Na	0.75000 0.54140 0.25000 0.59100
Na	Na	0.25000 0.54140 0.25000 0.59100
Na	Na	0.75000 0.95860 0.25000 0.59900
Na	Na	0.75000 0.04140 0.75000 0.58600
Na	Na	0.25000 0.45860 0.75000 0.59300
N 	N 	0.50000 0.31970 0.41070 -0.34600
N 	N 	-0.00000 0.81970 0.91070 -0.35300
N 	N 	0.50000 0.18030 0.41070 -0.34600
N 	N 	0.00000 0.68030 0.91070 -0.35300
N 	N 	0.50000 0.81970 0.58930 -0.34500
N 	N 	-0.00000 0.31970 0.08930 -0.36300
N 	N 	0.50000 0.68030 0.58930 -0.34500
N 	N 	-0.00000 0.18030 0.08930 -0.36300
N 	N 	0.57460 0.25000 0.41730 -0.33900
N 	N 	0.07460 0.75000 0.91730 -0.33500
N 	N 	0.42540 0.25000 0.41730 -0.33900
N 	N 	0.92540 0.75000 0.91730 -0.32800
N 	N 	0.42540 0.75000 0.58270 -0.33900
N 	N 	0.92540 0.25000 0.08270 -0.34000
N 	N 	0.57460 0.75000 0.58270 -0.33900
N 	N 	0.07460 0.25000 0.08270 -0.34600
