data_crystal

_cell_length_a 9.09700
_cell_length_b 16.99400
_cell_length_c 9.64410
_cell_angle_alpha 90.00000
_cell_angle_beta  103.45600
_cell_angle_gamma 90.00000

_symmetry_space_group_name_	'P 1'
_symmetry_space_group_name_H-M	'P 1'

loop_
_symmetry_equiv_pos_as_xyz
  x,y,z

loop_
_atom_site_label
_atom_site_type_symbol
_atom_site_fract_x
_atom_site_fract_y
_atom_site_fract_z
_atom_site_charge
Ga	Ga	0.79741 0.77657 0.07593 2.07400
Ga	Ga	0.21594 0.76570 0.96333 2.06600
V 	V 	0.31440 0.00317 0.16534 1.71500
P 	P 	0.49937 0.87034 0.00813 0.66500
P 	P 	0.89271 0.83772 0.81460 0.65000
P 	P 	0.10917 0.84511 0.21401 0.67300
O 	O 	0.43910 0.91720 0.11530 -0.59900
O 	O 	0.37310 0.81840 0.91740 -0.68900
O 	O 	0.56540 0.91670 0.90560 -0.60900
O 	O 	0.61850 0.81380 0.09780 -0.69800
O 	O 	0.82450 0.77400 0.89550 -0.73300
O 	O 	0.85140 0.91960 0.84930 -0.55900
O 	O 	0.83260 0.82110 0.65550 -0.68000
O 	O 	0.06490 0.83200 0.85250 -0.62200
O 	O 	0.93490 0.84560 0.18020 -0.65300
O 	O 	0.16430 0.77760 0.13330 -0.75200
O 	O 	0.16820 0.82910 0.37350 -0.68800
O 	O 	0.15650 0.92500 0.17600 -0.55800
Ga	Ga	0.20259 0.27657 0.42407 2.07500
Ga	Ga	0.78406 0.26570 0.53667 2.06700
V 	V 	0.68560 0.50317 0.33466 1.71600
P 	P 	0.50063 0.37034 0.49187 0.66100
P 	P 	0.10729 0.33772 0.68540 0.64400
P 	P 	0.89083 0.34511 0.28599 0.66600
O 	O 	0.56090 0.41720 0.38470 -0.60000
O 	O 	0.62690 0.31840 0.58260 -0.68700
O 	O 	0.43460 0.41670 0.59440 -0.60800
O 	O 	0.38150 0.31380 0.40220 -0.69800
O 	O 	0.17550 0.27400 0.60450 -0.73500
O 	O 	0.14860 0.41960 0.65070 -0.55900
O 	O 	0.16740 0.32110 0.84450 -0.68000
O 	O 	0.93510 0.33200 0.64750 -0.61500
O 	O 	0.06510 0.34560 0.31980 -0.64600
O 	O 	0.83570 0.27760 0.36670 -0.75500
O 	O 	0.83180 0.32910 0.12650 -0.69000
O 	O 	0.84350 0.42500 0.32400 -0.56100
Ga	Ga	0.20259 0.22343 0.92407 2.07500
Ga	Ga	0.78406 0.23430 0.03667 2.06700
V 	V 	0.68560 0.99683 0.83466 1.71600
P 	P 	0.50063 0.12966 0.99187 0.66600
P 	P 	0.10729 0.16228 0.18540 0.65000
P 	P 	0.89083 0.15489 0.78599 0.67300
O 	O 	0.56090 0.08280 0.88470 -0.59900
O 	O 	0.62690 0.18160 0.08260 -0.68900
O 	O 	0.43460 0.08330 0.09440 -0.60900
O 	O 	0.38150 0.18620 0.90220 -0.69800
O 	O 	0.17550 0.22600 0.10450 -0.73300
O 	O 	0.14860 0.08040 0.15070 -0.55900
O 	O 	0.16740 0.17890 0.34450 -0.68000
O 	O 	0.93510 0.16800 0.14750 -0.62200
O 	O 	0.06510 0.15440 0.81980 -0.65300
O 	O 	0.83570 0.22240 0.86670 -0.75200
O 	O 	0.83180 0.17090 0.62650 -0.68800
O 	O 	0.84350 0.07500 0.82400 -0.55800
Ga	Ga	0.79741 0.72343 0.57593 2.07500
Ga	Ga	0.21594 0.73430 0.46333 2.06700
V 	V 	0.31440 0.49683 0.66534 1.71600
P 	P 	0.49937 0.62966 0.50813 0.66100
P 	P 	0.89271 0.66228 0.31460 0.64400
P 	P 	0.10917 0.65489 0.71401 0.66600
O 	O 	0.43910 0.58280 0.61530 -0.60000
O 	O 	0.37310 0.68160 0.41740 -0.68700
O 	O 	0.56540 0.58330 0.40560 -0.60800
O 	O 	0.61850 0.68620 0.59780 -0.69800
O 	O 	0.82450 0.72600 0.39550 -0.73500
O 	O 	0.85140 0.58040 0.34930 -0.55900
O 	O 	0.83260 0.67890 0.15550 -0.68000
O 	O 	0.06490 0.66800 0.35250 -0.61500
O 	O 	0.93490 0.65440 0.68020 -0.64600
O 	O 	0.16430 0.72240 0.63330 -0.75500
O 	O 	0.16820 0.67090 0.87350 -0.69000
O 	O 	0.15650 0.57500 0.67600 -0.56100
