data_crystal

_cell_length_a 9.31950
_cell_length_b 14.26030
_cell_length_c 18.49820
_cell_angle_alpha 105.30700
_cell_angle_beta  99.07700
_cell_angle_gamma 95.40600

_symmetry_space_group_name_	'P 1'
_symmetry_space_group_name_H-M	'P 1'

loop_
_symmetry_equiv_pos_as_xyz
  x,y,z

loop_
_atom_site_label
_atom_site_type_symbol
_atom_site_fract_x
_atom_site_fract_y
_atom_site_fract_z
_atom_site_charge
Cd	Cd	0.95105 0.70657 0.31653 1.18200
Cd	Cd	0.82297 0.82311 0.73906 1.21700
B 	B 	0.30850 0.93820 0.60550 0.93300
O 	O 	0.92170 0.89960 0.87780 -0.13000
O 	O 	0.70290 0.80450 0.84110 0.03400
O 	O 	0.00730 0.81160 0.23809 -0.37600
O 	O 	0.80770 0.70160 0.19646 -0.38400
O 	O 	0.69180 0.68080 0.67495 -0.41600
O 	O 	0.77500 0.72210 0.58240 -0.35000
N 	N 	0.22690 0.91030 0.66503 -0.31500
N 	N 	0.04400 0.86950 0.71924 -0.24300
N 	N 	0.68440 0.92680 0.69889 -0.25000
N 	N 	0.47460 0.95460 0.63906 -0.31400
N 	N 	0.27440 0.85730 0.52853 -0.31800
N 	N 	0.14760 0.76330 0.41640 -0.25700
N 	N 	0.99880 0.43060 0.15810 -0.18700
N 	N 	0.03310 0.56940 0.24830 -0.24500
N 	N 	0.17390 0.17660 0.61875 -0.24300
N 	N 	0.26000 0.03380 0.59344 -0.31600
C 	C 	0.08840 0.86520 0.65430 0.13900
C 	C 	0.27050 0.94670 0.74360 0.06500
C 	C 	0.15910 0.92120 0.77580 -0.05900
C 	C 	0.54470 0.89490 0.67290 0.14300
C 	C 	0.70790 0.01360 0.68170 -0.03300
C 	C 	0.58020 0.03200 0.64530 0.05200
C 	C 	0.15350 0.84070 0.47410 0.14900
C 	C 	0.27660 0.72860 0.43440 -0.02900
H 	H 	0.30620 0.67340 0.40420 0.02000
C 	C 	0.35450 0.78510 0.50180 0.04800
C 	C 	0.95000 0.51530 0.18390 0.08200
C 	C 	0.11810 0.42840 0.20700 0.00300
C 	C 	0.13930 0.51370 0.26230 0.00600
C 	C 	0.19160 0.09650 0.64030 0.12900
C 	C 	0.23240 0.16570 0.55430 -0.05200
C 	C 	0.28390 0.07950 0.53770 0.06200
C 	C 	0.83180 0.83240 0.88900 0.42300
C 	C 	0.84380 0.82020 0.96760 -0.13000
C 	C 	0.95290 0.87500 0.02630 0.02100
C 	C 	0.96940 0.85970 0.09750 -0.06600
C 	C 	0.87760 0.78820 0.11110 -0.02300
C 	C 	0.76760 0.73390 0.05240 -0.08800
C 	C 	0.74940 0.74990 0.98110 0.04400
C 	C 	0.89870 0.76630 0.18670 0.27600
C 	C 	0.69610 0.66770 0.60590 0.32100
C 	C 	0.59570 0.57990 0.55100 -0.07000
C 	C 	0.51580 0.51370 0.57700 -0.04100
C 	C 	0.57860 0.56590 0.47300 -0.02100
H 	H 	0.36300 0.98100 0.76800 -0.00400
H 	H 	0.16300 0.08700 0.68300 -0.03600
H 	H 	0.50500 0.83600 0.67500 -0.05400
H 	H 	0.52800 0.51700 0.62600 0.05000
H 	H 	0.55500 0.08500 0.62600 -0.00100
H 	H 	0.02900 0.83400 0.60800 -0.04000
H 	H 	0.22400 0.20900 0.53000 0.04200
H 	H 	0.70900 0.68700 0.06200 0.07700
H 	H 	0.08600 0.88000 0.47700 -0.05400
H 	H 	0.15300 0.93100 0.82200 0.05700
H 	H 	0.95100 0.38700 0.11400 0.11100
H 	H 	0.32400 0.04800 0.49800 -0.00700
H 	H 	0.17500 0.38300 0.20300 0.04400
H 	H 	0.79500 0.04800 0.69400 0.03800
H 	H 	0.04000 0.90000 0.13900 0.05700
H 	H 	0.66700 0.70900 0.94200 0.02800
H 	H 	0.01400 0.92500 0.01700 0.03800
H 	H 	0.44800 0.78500 0.53500 0.00400
H 	H 	0.84100 0.53500 0.15800 -0.00300
H 	H 	0.18500 0.53300 0.31000 0.00900
H 	H 	0.63400 0.61100 0.45500 0.02600
O 	O 	0.93850 0.85210 0.86420 -0.31800
O 	O 	0.74800 0.77540 0.83950 -0.45900
Cd	Cd	0.04895 0.29343 0.68348 1.18300
Cd	Cd	0.17703 0.17689 0.26094 1.21800
B 	B 	0.69150 0.06180 0.39450 0.93400
O 	O 	0.07830 0.10040 0.12220 -0.12900
O 	O 	0.29710 0.19550 0.15890 0.03400
O 	O 	0.99270 0.18840 0.76191 -0.37600
O 	O 	0.19230 0.29840 0.80354 -0.38400
O 	O 	0.30820 0.31920 0.32505 -0.41600
O 	O 	0.22500 0.27790 0.41760 -0.35000
N 	N 	0.77310 0.08970 0.33497 -0.31500
N 	N 	0.95600 0.13050 0.28076 -0.24300
N 	N 	0.31560 0.07320 0.30111 -0.25000
N 	N 	0.52540 0.04540 0.36094 -0.31400
N 	N 	0.72560 0.14270 0.47147 -0.31800
N 	N 	0.85240 0.23670 0.58360 -0.25700
N 	N 	0.00120 0.56940 0.84190 -0.18700
N 	N 	0.96690 0.43060 0.75170 -0.24500
N 	N 	0.82610 0.82340 0.38125 -0.24300
N 	N 	0.74000 0.96620 0.40656 -0.31600
C 	C 	0.91160 0.13480 0.34570 0.13900
C 	C 	0.72950 0.05330 0.25640 0.06500
C 	C 	0.84090 0.07880 0.22420 -0.05900
C 	C 	0.45530 0.10510 0.32710 0.14300
C 	C 	0.29210 0.98640 0.31830 -0.03300
C 	C 	0.41980 0.96800 0.35470 0.05200
C 	C 	0.84650 0.15930 0.52590 0.14900
C 	C 	0.72340 0.27140 0.56560 -0.02900
H 	H 	0.69380 0.32660 0.59580 0.02000
C 	C 	0.64550 0.21490 0.49820 0.04800
C 	C 	0.05000 0.48470 0.81610 0.08200
C 	C 	0.88190 0.57160 0.79300 0.00300
C 	C 	0.86070 0.48630 0.73770 0.00600
C 	C 	0.80840 0.90350 0.35970 0.12900
C 	C 	0.76760 0.83430 0.44570 -0.05200
C 	C 	0.71610 0.92050 0.46230 0.06200
C 	C 	0.16820 0.16760 0.11100 0.42300
C 	C 	0.15620 0.17980 0.03240 -0.13000
C 	C 	0.04710 0.12500 0.97370 0.02100
C 	C 	0.03060 0.14030 0.90250 -0.06600
C 	C 	0.12240 0.21180 0.88890 -0.02300
C 	C 	0.23240 0.26610 0.94760 -0.08800
C 	C 	0.25060 0.25010 0.01890 0.04400
C 	C 	0.10130 0.23370 0.81330 0.27600
C 	C 	0.30390 0.33230 0.39410 0.32100
C 	C 	0.40430 0.42010 0.44900 -0.07000
C 	C 	0.48420 0.48630 0.42300 -0.04100
C 	C 	0.42140 0.43410 0.52700 -0.02100
H 	H 	0.63700 0.01900 0.23200 -0.00400
H 	H 	0.83700 0.91300 0.31700 -0.03600
H 	H 	0.49500 0.16400 0.32500 -0.05400
H 	H 	0.47200 0.48300 0.37400 0.05000
H 	H 	0.44500 0.91500 0.37400 -0.00100
H 	H 	0.97100 0.16600 0.39200 -0.04000
H 	H 	0.77600 0.79100 0.47000 0.04200
H 	H 	0.29100 0.31300 0.93800 0.07700
H 	H 	0.91400 0.12000 0.52300 -0.05400
H 	H 	0.84700 0.06900 0.17800 0.05700
H 	H 	0.04900 0.61300 0.88600 0.11100
H 	H 	0.67600 0.95200 0.50200 -0.00700
H 	H 	0.82500 0.61700 0.79700 0.04400
H 	H 	0.20500 0.95200 0.30600 0.03800
H 	H 	0.96000 0.10000 0.86100 0.05700
H 	H 	0.33300 0.29100 0.05800 0.02800
H 	H 	0.98600 0.07500 0.98300 0.03800
H 	H 	0.55200 0.21500 0.46500 0.00400
H 	H 	0.15900 0.46500 0.84200 -0.00300
H 	H 	0.81500 0.46700 0.69000 0.00900
H 	H 	0.36600 0.38900 0.54500 0.02600
O 	O 	0.06150 0.14790 0.13580 -0.31800
O 	O 	0.25200 0.22460 0.16050 -0.45900
