data_crystal

_cell_length_a 13.05840
_cell_length_b 13.05840
_cell_length_c 53.73100
_cell_angle_alpha 90.00000
_cell_angle_beta  90.00000
_cell_angle_gamma 90.00000

_symmetry_space_group_name_	'P 1'
_symmetry_space_group_name_H-M	'P 1'

loop_
_symmetry_equiv_pos_as_xyz
  x,y,z

loop_
_atom_site_label
_atom_site_type_symbol
_atom_site_fract_x
_atom_site_fract_y
_atom_site_fract_z
_atom_site_charge
Zn	Zn	0.15764 0.12635 0.88462 1.18800
Zn	Zn	0.32566 0.05892 0.68485 1.18900
Zn	Zn	0.84236 0.87365 0.38462 1.18800
Zn	Zn	0.67434 0.94108 0.18485 1.18900
Zn	Zn	0.37365 0.65764 0.13462 1.18800
Zn	Zn	0.44108 0.82566 0.93485 1.19000
Zn	Zn	0.62635 0.34236 0.63462 1.18800
Zn	Zn	0.55892 0.17434 0.43485 1.19000
Zn	Zn	0.34236 0.62635 0.36538 1.18800
Zn	Zn	0.17434 0.55892 0.56515 1.19000
Zn	Zn	0.65764 0.37365 0.86538 1.18800
Zn	Zn	0.82566 0.44108 0.06515 1.19000
Zn	Zn	0.12635 0.15764 0.11538 1.18800
Zn	Zn	0.05892 0.32566 0.31515 1.18900
Zn	Zn	0.87365 0.84236 0.61538 1.18800
Zn	Zn	0.94108 0.67434 0.81515 1.18900
B 	B 	0.26280 0.53090 0.87190 0.90600
B 	B 	0.73720 0.46910 0.37190 0.90600
B 	B 	0.96910 0.76280 0.12190 0.89200
B 	B 	0.03090 0.23720 0.62190 0.89200
B 	B 	0.23720 0.03090 0.37810 0.89200
B 	B 	0.76280 0.96910 0.87810 0.89200
B 	B 	0.53090 0.26280 0.12810 0.90600
B 	B 	0.46910 0.73720 0.62810 0.90600
H 	H 	0.06040 0.54420 0.85230 -0.05000
H 	H 	0.31380 0.70200 0.83850 0.00500
H 	H 	0.17500 0.77120 0.81330 0.02900
H 	H 	0.27840 0.31520 0.87060 -0.03400
H 	H 	0.01540 0.32010 0.90250 0.02500
H 	H 	0.05860 0.49380 0.89560 0.00500
H 	H 	0.46380 0.47820 0.88720 -0.03400
H 	H 	0.32160 0.45650 0.82280 0.00100
H 	H 	0.48680 0.38290 0.81810 0.02000
H 	H 	0.33900 0.96410 0.88950 -0.04700
H 	H 	0.32240 0.00380 0.96100 0.02600
H 	H 	0.21250 0.12580 0.94140 -0.00200
H 	H 	0.35820 0.72250 0.88400 -0.06100
H 	H 	0.35630 0.60920 0.95160 0.02900
H 	H 	0.26730 0.49180 0.92480 0.00300
H 	H 	0.35520 0.18690 0.80390 0.04700
H 	H 	0.36040 0.16090 0.76180 0.04500
H 	H 	0.13160 0.96220 0.76660 0.06600
H 	H 	0.12470 0.98500 0.81010 0.05600
H 	H 	0.93960 0.45580 0.35230 -0.05000
H 	H 	0.68620 0.29800 0.33850 0.00500
H 	H 	0.82500 0.22880 0.31330 0.02900
H 	H 	0.72160 0.68480 0.37060 -0.03400
H 	H 	0.98460 0.67990 0.40250 0.02500
H 	H 	0.94140 0.50620 0.39560 0.00500
H 	H 	0.53620 0.52180 0.38720 -0.03400
H 	H 	0.67840 0.54350 0.32280 0.00100
H 	H 	0.51320 0.61710 0.31810 0.02000
H 	H 	0.66100 0.03590 0.38950 -0.04700
H 	H 	0.67760 0.99620 0.46100 0.02600
H 	H 	0.78750 0.87420 0.44140 -0.00200
H 	H 	0.64180 0.27750 0.38400 -0.06100
H 	H 	0.64370 0.39080 0.45160 0.02900
H 	H 	0.73270 0.50820 0.42480 0.00300
H 	H 	0.64480 0.81310 0.30390 0.04700
H 	H 	0.63960 0.83910 0.26180 0.04500
H 	H 	0.86840 0.03780 0.26660 0.06600
H 	H 	0.87530 0.01500 0.31010 0.05600
H 	H 	0.95580 0.56040 0.10230 -0.05200
H 	H 	0.79800 0.81380 0.08850 0.00300
H 	H 	0.72880 0.67500 0.06330 0.02800
H 	H 	0.18480 0.77840 0.12060 -0.03400
H 	H 	0.17990 0.51540 0.15250 0.02300
H 	H 	0.00620 0.55860 0.14560 0.00600
H 	H 	0.02180 0.96380 0.13720 -0.03200
H 	H 	0.04350 0.82160 0.07280 0.00200
H 	H 	0.11710 0.98680 0.06810 0.02000
H 	H 	0.53590 0.83900 0.13950 -0.05000
H 	H 	0.49620 0.82240 0.21100 0.02600
H 	H 	0.37420 0.71250 0.19140 -0.00500
H 	H 	0.77750 0.85820 0.13400 -0.06100
H 	H 	0.89080 0.85630 0.20160 0.02600
H 	H 	0.00820 0.76730 0.17480 0.00900
H 	H 	0.31310 0.85520 0.05390 0.04800
H 	H 	0.33910 0.86040 0.01180 0.04300
H 	H 	0.53780 0.63160 0.01660 0.06100
H 	H 	0.51500 0.62470 0.06010 0.05600
H 	H 	0.04420 0.43960 0.60230 -0.05200
H 	H 	0.20200 0.18620 0.58850 0.00300
H 	H 	0.27120 0.32500 0.56330 0.02800
H 	H 	0.81520 0.22160 0.62060 -0.03400
H 	H 	0.82010 0.48460 0.65250 0.02300
H 	H 	0.99380 0.44140 0.64560 0.00600
H 	H 	0.97820 0.03620 0.63720 -0.03200
H 	H 	0.95650 0.17840 0.57280 0.00200
H 	H 	0.88290 0.01320 0.56810 0.02000
H 	H 	0.46410 0.16100 0.63950 -0.05000
H 	H 	0.50380 0.17760 0.71100 0.02600
H 	H 	0.62580 0.28750 0.69140 -0.00500
H 	H 	0.22250 0.14180 0.63400 -0.06100
H 	H 	0.10920 0.14370 0.70160 0.02600
H 	H 	0.99180 0.23270 0.67480 0.00900
H 	H 	0.68690 0.14480 0.55390 0.04800
H 	H 	0.66090 0.13960 0.51180 0.04300
H 	H 	0.46220 0.36840 0.51660 0.06100
H 	H 	0.48500 0.37530 0.56010 0.05600
H 	H 	0.43960 0.04420 0.39770 -0.05200
H 	H 	0.18620 0.20200 0.41150 0.00300
H 	H 	0.32500 0.27120 0.43670 0.02800
H 	H 	0.22160 0.81520 0.37940 -0.03400
H 	H 	0.48460 0.82010 0.34750 0.02300
H 	H 	0.44140 0.99380 0.35440 0.00600
H 	H 	0.03620 0.97820 0.36280 -0.03200
H 	H 	0.17840 0.95650 0.42720 0.00200
H 	H 	0.01320 0.88290 0.43190 0.02000
H 	H 	0.16100 0.46410 0.36050 -0.05000
H 	H 	0.17760 0.50380 0.28900 0.02600
H 	H 	0.28750 0.62580 0.30860 -0.00500
H 	H 	0.14180 0.22250 0.36600 -0.06100
H 	H 	0.14370 0.10920 0.29840 0.02600
H 	H 	0.23270 0.99180 0.32520 0.00900
H 	H 	0.14480 0.68690 0.44610 0.04800
H 	H 	0.13960 0.66090 0.48820 0.04300
H 	H 	0.36840 0.46220 0.48340 0.06100
H 	H 	0.37530 0.48500 0.43990 0.05600
H 	H 	0.56040 0.95580 0.89770 -0.05200
H 	H 	0.81380 0.79800 0.91150 0.00300
H 	H 	0.67500 0.72880 0.93670 0.02800
H 	H 	0.77840 0.18480 0.87940 -0.03400
H 	H 	0.51540 0.17990 0.84750 0.02300
H 	H 	0.55860 0.00620 0.85440 0.00600
H 	H 	0.96380 0.02180 0.86280 -0.03200
H 	H 	0.82160 0.04350 0.92720 0.00200
H 	H 	0.98680 0.11710 0.93190 0.02000
H 	H 	0.83900 0.53590 0.86050 -0.05000
H 	H 	0.82240 0.49620 0.78900 0.02600
H 	H 	0.71250 0.37420 0.80860 -0.00500
H 	H 	0.85820 0.77750 0.86600 -0.06100
H 	H 	0.85630 0.89080 0.79840 0.02600
H 	H 	0.76730 0.00820 0.82520 0.00900
H 	H 	0.85520 0.31310 0.94610 0.04800
H 	H 	0.86040 0.33910 0.98820 0.04300
H 	H 	0.63160 0.53780 0.98340 0.06100
H 	H 	0.62470 0.51500 0.93990 0.05600
H 	H 	0.54420 0.06040 0.14770 -0.05000
H 	H 	0.70200 0.31380 0.16150 0.00500
H 	H 	0.77120 0.17500 0.18670 0.02900
H 	H 	0.31520 0.27840 0.12940 -0.03400
H 	H 	0.32010 0.01540 0.09750 0.02500
H 	H 	0.49380 0.05860 0.10440 0.00500
H 	H 	0.47820 0.46380 0.11280 -0.03400
H 	H 	0.45650 0.32160 0.17720 0.00100
H 	H 	0.38290 0.48680 0.18190 0.02000
H 	H 	0.96410 0.33900 0.11050 -0.04700
H 	H 	0.00380 0.32240 0.03900 0.02600
H 	H 	0.12580 0.21250 0.05860 -0.00200
H 	H 	0.72250 0.35820 0.11600 -0.06100
H 	H 	0.60920 0.35630 0.04840 0.02900
H 	H 	0.49180 0.26730 0.07520 0.00300
H 	H 	0.18690 0.35520 0.19610 0.04700
H 	H 	0.16090 0.36040 0.23820 0.04500
H 	H 	0.96220 0.13160 0.23340 0.06600
H 	H 	0.98500 0.12470 0.18990 0.05600
H 	H 	0.45580 0.93960 0.64770 -0.05000
H 	H 	0.29800 0.68620 0.66150 0.00500
H 	H 	0.22880 0.82500 0.68670 0.02900
H 	H 	0.68480 0.72160 0.62940 -0.03400
H 	H 	0.67990 0.98460 0.59750 0.02500
H 	H 	0.50620 0.94140 0.60440 0.00500
H 	H 	0.52180 0.53620 0.61280 -0.03400
H 	H 	0.54350 0.67840 0.67720 0.00100
H 	H 	0.61710 0.51320 0.68190 0.02000
H 	H 	0.03590 0.66100 0.61050 -0.04700
H 	H 	0.99620 0.67760 0.53900 0.02600
H 	H 	0.87420 0.78750 0.55860 -0.00200
H 	H 	0.27750 0.64180 0.61600 -0.06100
H 	H 	0.39080 0.64370 0.54840 0.02900
H 	H 	0.50820 0.73270 0.57520 0.00300
H 	H 	0.81310 0.64480 0.69610 0.04700
H 	H 	0.83910 0.63960 0.73820 0.04500
H 	H 	0.03780 0.86840 0.73340 0.06600
H 	H 	0.01500 0.87530 0.68990 0.05600
C 	C 	0.10660 0.59100 0.84560 0.12200
C 	C 	0.24640 0.67900 0.83820 0.02700
C 	C 	0.16990 0.71590 0.82410 -0.01000
C 	C 	0.21800 0.33940 0.87760 0.12900
C 	C 	0.07540 0.34240 0.89490 -0.00400
C 	C 	0.09840 0.43750 0.89120 0.03500
C 	C 	0.44980 0.46490 0.87060 0.12500
C 	C 	0.37130 0.45300 0.83510 0.05100
C 	C 	0.46140 0.41210 0.83260 -0.03200
C 	C 	0.32120 0.98850 0.90520 0.10600
C 	C 	0.31260 0.01000 0.94400 -0.01500
C 	C 	0.25180 0.07700 0.93320 0.00700
C 	C 	0.34460 0.67960 0.89740 0.14300
C 	C 	0.34430 0.61780 0.93470 -0.02800
C 	C 	0.29600 0.55370 0.91980 0.04400
C 	C 	0.23020 0.11090 0.83870 0.27900
C 	C 	0.23710 0.09350 0.81120 -0.05200
C 	C 	0.30900 0.14190 0.79660 -0.03400
C 	C 	0.31370 0.12470 0.77150 -0.02100
C 	C 	0.24910 0.05330 0.76040 -0.06800
C 	C 	0.17790 0.00620 0.77430 -0.02700
C 	C 	0.17120 0.02160 0.80050 -0.03000
C 	C 	0.25660 0.03110 0.73270 0.32900
C 	C 	0.89340 0.40900 0.34560 0.12200
C 	C 	0.75360 0.32100 0.33820 0.02700
C 	C 	0.83010 0.28410 0.32410 -0.01000
C 	C 	0.78200 0.66060 0.37760 0.12900
C 	C 	0.92460 0.65760 0.39490 -0.00400
C 	C 	0.90160 0.56250 0.39120 0.03500
C 	C 	0.55020 0.53510 0.37060 0.12500
C 	C 	0.62870 0.54700 0.33510 0.05100
C 	C 	0.53860 0.58790 0.33260 -0.03200
C 	C 	0.67880 0.01150 0.40520 0.10600
C 	C 	0.68740 0.99000 0.44400 -0.01500
C 	C 	0.74820 0.92300 0.43320 0.00700
C 	C 	0.65540 0.32040 0.39740 0.14300
C 	C 	0.65570 0.38220 0.43470 -0.02800
C 	C 	0.70400 0.44630 0.41980 0.04400
C 	C 	0.76980 0.88910 0.33870 0.27900
C 	C 	0.76290 0.90650 0.31120 -0.05200
C 	C 	0.69100 0.85810 0.29660 -0.03400
C 	C 	0.68630 0.87530 0.27150 -0.02100
C 	C 	0.75090 0.94670 0.26040 -0.06800
C 	C 	0.82210 0.99380 0.27430 -0.02700
C 	C 	0.82880 0.97840 0.30050 -0.03000
C 	C 	0.74340 0.96890 0.23270 0.32900
C 	C 	0.90900 0.60660 0.09560 0.12000
C 	C 	0.82100 0.74640 0.08820 0.02500
C 	C 	0.78410 0.66990 0.07410 -0.01100
C 	C 	0.16060 0.71800 0.12760 0.12800
C 	C 	0.15760 0.57540 0.14490 -0.00400
C 	C 	0.06250 0.59840 0.14120 0.03400
C 	C 	0.03510 0.94980 0.12060 0.11900
C 	C 	0.04700 0.87130 0.08510 0.05400
C 	C 	0.08790 0.96140 0.08260 -0.03800
C 	C 	0.51150 0.82120 0.15520 0.11200
C 	C 	0.49000 0.81260 0.19400 -0.02400
C 	C 	0.42300 0.75180 0.18320 0.00900
C 	C 	0.82040 0.84460 0.14740 0.14100
C 	C 	0.88220 0.84430 0.18470 -0.02300
C 	C 	0.94630 0.79600 0.16980 0.03200
C 	C 	0.38910 0.73020 0.08870 0.27900
C 	C 	0.40650 0.73710 0.06120 -0.05000
C 	C 	0.35810 0.80900 0.04660 -0.03800
C 	C 	0.37530 0.81370 0.02150 -0.01700
C 	C 	0.44670 0.74910 0.01040 -0.07400
C 	C 	0.49380 0.67790 0.02430 -0.01800
C 	C 	0.47840 0.67120 0.05050 -0.03500
C 	C 	0.46890 0.75660 0.98270 0.33700
C 	C 	0.09100 0.39340 0.59560 0.12000
C 	C 	0.17900 0.25360 0.58820 0.02500
C 	C 	0.21590 0.33010 0.57410 -0.01100
C 	C 	0.83940 0.28200 0.62760 0.12800
C 	C 	0.84240 0.42460 0.64490 -0.00400
C 	C 	0.93750 0.40160 0.64120 0.03400
C 	C 	0.96490 0.05020 0.62060 0.11900
C 	C 	0.95300 0.12870 0.58510 0.05400
C 	C 	0.91210 0.03860 0.58260 -0.03800
C 	C 	0.48850 0.17880 0.65520 0.11200
C 	C 	0.51000 0.18740 0.69400 -0.02400
C 	C 	0.57700 0.24820 0.68320 0.00900
C 	C 	0.17960 0.15540 0.64740 0.14100
C 	C 	0.11780 0.15570 0.68470 -0.02300
C 	C 	0.05370 0.20400 0.66980 0.03200
C 	C 	0.61090 0.26980 0.58870 0.27900
C 	C 	0.59350 0.26290 0.56120 -0.05000
C 	C 	0.64190 0.19100 0.54660 -0.03800
C 	C 	0.62470 0.18630 0.52150 -0.01700
C 	C 	0.55330 0.25090 0.51040 -0.07400
C 	C 	0.50620 0.32210 0.52430 -0.01800
C 	C 	0.52160 0.32880 0.55050 -0.03500
C 	C 	0.53110 0.24340 0.48270 0.33700
C 	C 	0.39340 0.09100 0.40440 0.12000
C 	C 	0.25360 0.17900 0.41180 0.02500
C 	C 	0.33010 0.21590 0.42590 -0.01100
C 	C 	0.28200 0.83940 0.37240 0.12800
C 	C 	0.42460 0.84240 0.35510 -0.00400
C 	C 	0.40160 0.93750 0.35880 0.03400
C 	C 	0.05020 0.96490 0.37940 0.11900
C 	C 	0.12870 0.95300 0.41490 0.05400
C 	C 	0.03860 0.91210 0.41740 -0.03800
C 	C 	0.17880 0.48850 0.34480 0.11200
C 	C 	0.18740 0.51000 0.30600 -0.02400
C 	C 	0.24820 0.57700 0.31680 0.00900
C 	C 	0.15540 0.17960 0.35260 0.14100
C 	C 	0.15570 0.11780 0.31530 -0.02300
C 	C 	0.20400 0.05370 0.33020 0.03200
C 	C 	0.26980 0.61090 0.41130 0.27900
C 	C 	0.26290 0.59350 0.43880 -0.05000
C 	C 	0.19100 0.64190 0.45340 -0.03800
C 	C 	0.18630 0.62470 0.47850 -0.01700
C 	C 	0.25090 0.55330 0.48960 -0.07400
C 	C 	0.32210 0.50620 0.47570 -0.01800
C 	C 	0.32880 0.52160 0.44950 -0.03500
C 	C 	0.24340 0.53110 0.51730 0.33700
C 	C 	0.60660 0.90900 0.90440 0.12000
C 	C 	0.74640 0.82100 0.91180 0.02500
C 	C 	0.66990 0.78410 0.92590 -0.01100
C 	C 	0.71800 0.16060 0.87240 0.12800
C 	C 	0.57540 0.15760 0.85510 -0.00400
C 	C 	0.59840 0.06250 0.85880 0.03400
C 	C 	0.94980 0.03510 0.87940 0.11900
C 	C 	0.87130 0.04700 0.91490 0.05400
C 	C 	0.96140 0.08790 0.91740 -0.03800
C 	C 	0.82120 0.51150 0.84480 0.11200
C 	C 	0.81260 0.49000 0.80600 -0.02400
C 	C 	0.75180 0.42300 0.81680 0.00900
C 	C 	0.84460 0.82040 0.85260 0.14100
C 	C 	0.84430 0.88220 0.81530 -0.02300
C 	C 	0.79600 0.94630 0.83020 0.03200
C 	C 	0.73020 0.38910 0.91130 0.27900
C 	C 	0.73710 0.40650 0.93880 -0.05000
C 	C 	0.80900 0.35810 0.95340 -0.03800
C 	C 	0.81370 0.37530 0.97850 -0.01700
C 	C 	0.74910 0.44670 0.98960 -0.07400
C 	C 	0.67790 0.49380 0.97570 -0.01800
C 	C 	0.67120 0.47840 0.94950 -0.03500
C 	C 	0.75660 0.46890 0.01730 0.33700
C 	C 	0.59100 0.10660 0.15440 0.12200
C 	C 	0.67900 0.24640 0.16180 0.02700
C 	C 	0.71590 0.16990 0.17590 -0.01000
C 	C 	0.33940 0.21800 0.12240 0.12900
C 	C 	0.34240 0.07540 0.10510 -0.00400
C 	C 	0.43750 0.09840 0.10880 0.03500
C 	C 	0.46490 0.44980 0.12940 0.12500
C 	C 	0.45300 0.37130 0.16490 0.05100
C 	C 	0.41210 0.46140 0.16740 -0.03200
C 	C 	0.98850 0.32120 0.09480 0.10600
C 	C 	0.01000 0.31260 0.05600 -0.01500
C 	C 	0.07700 0.25180 0.06680 0.00700
C 	C 	0.67960 0.34460 0.10260 0.14300
C 	C 	0.61780 0.34430 0.06530 -0.02800
C 	C 	0.55370 0.29600 0.08020 0.04400
C 	C 	0.11090 0.23020 0.16130 0.27900
C 	C 	0.09350 0.23710 0.18880 -0.05200
C 	C 	0.14190 0.30900 0.20340 -0.03400
C 	C 	0.12470 0.31370 0.22850 -0.02100
C 	C 	0.05330 0.24910 0.23960 -0.06800
C 	C 	0.00620 0.17790 0.22570 -0.02700
C 	C 	0.02160 0.17120 0.19950 -0.03000
C 	C 	0.03110 0.25660 0.26730 0.32900
C 	C 	0.40900 0.89340 0.65440 0.12200
C 	C 	0.32100 0.75360 0.66180 0.02700
C 	C 	0.28410 0.83010 0.67590 -0.01000
C 	C 	0.66060 0.78200 0.62240 0.12900
C 	C 	0.65760 0.92460 0.60510 -0.00400
C 	C 	0.56250 0.90160 0.60880 0.03500
C 	C 	0.53510 0.55020 0.62940 0.12500
C 	C 	0.54700 0.62870 0.66490 0.05100
C 	C 	0.58790 0.53860 0.66740 -0.03200
C 	C 	0.01150 0.67880 0.59480 0.10600
C 	C 	0.99000 0.68740 0.55600 -0.01500
C 	C 	0.92300 0.74820 0.56680 0.00700
C 	C 	0.32040 0.65540 0.60260 0.14300
C 	C 	0.38220 0.65570 0.56530 -0.02800
C 	C 	0.44630 0.70400 0.58020 0.04400
C 	C 	0.88910 0.76980 0.66130 0.27900
C 	C 	0.90650 0.76290 0.68880 -0.05200
C 	C 	0.85810 0.69100 0.70340 -0.03400
C 	C 	0.87530 0.68630 0.72850 -0.02100
C 	C 	0.94670 0.75090 0.73960 -0.06800
C 	C 	0.99380 0.82210 0.72570 -0.02700
C 	C 	0.97840 0.82880 0.69950 -0.03000
C 	C 	0.96890 0.74340 0.76730 0.32900
N 	N 	0.20430 0.59850 0.85218 -0.29500
N 	N 	0.08360 0.65990 0.82817 -0.28200
N 	N 	0.19400 0.44030 0.87964 -0.30500
N 	N 	0.14710 0.28120 0.88650 -0.28100
N 	N 	0.36070 0.49050 0.85919 -0.30600
N 	N 	0.51450 0.41890 0.85533 -0.27100
N 	N 	0.35970 0.95030 0.92608 -0.28100
N 	N 	0.25560 0.06380 0.90849 -0.28600
N 	N 	0.29410 0.59110 0.89555 -0.31000
N 	N 	0.37300 0.69920 0.92045 -0.27900
N 	N 	0.79570 0.40150 0.35218 -0.29500
N 	N 	0.91640 0.34010 0.32817 -0.28200
N 	N 	0.80600 0.55970 0.37964 -0.30500
N 	N 	0.85290 0.71880 0.38650 -0.28100
N 	N 	0.63930 0.50950 0.35919 -0.30600
N 	N 	0.48550 0.58110 0.35533 -0.27100
N 	N 	0.64030 0.04970 0.42608 -0.28100
N 	N 	0.74440 0.93620 0.40849 -0.28600
N 	N 	0.70590 0.40890 0.39555 -0.31000
N 	N 	0.62700 0.30080 0.42045 -0.27900
N 	N 	0.90150 0.70430 0.10218 -0.29400
N 	N 	0.84010 0.58360 0.07817 -0.28400
N 	N 	0.05970 0.69400 0.12964 -0.30000
N 	N 	0.21880 0.64710 0.13650 -0.28100
N 	N 	0.00950 0.86070 0.10919 -0.30000
N 	N 	0.08110 0.01450 0.10533 -0.26500
N 	N 	0.54970 0.85970 0.17608 -0.27900
N 	N 	0.43620 0.75560 0.15849 -0.29000
N 	N 	0.90890 0.79410 0.14555 -0.30700
N 	N 	0.80080 0.87300 0.17045 -0.28000
N 	N 	0.09850 0.29570 0.60218 -0.29400
N 	N 	0.15990 0.41640 0.57817 -0.28400
N 	N 	0.94030 0.30600 0.62964 -0.30000
N 	N 	0.78120 0.35290 0.63650 -0.28100
N 	N 	0.99050 0.13930 0.60919 -0.30000
N 	N 	0.91890 0.98550 0.60533 -0.26500
N 	N 	0.45030 0.14030 0.67608 -0.27900
N 	N 	0.56380 0.24440 0.65849 -0.29000
N 	N 	0.09110 0.20590 0.64555 -0.30700
N 	N 	0.19920 0.12700 0.67045 -0.28000
N 	N 	0.29570 0.09850 0.39782 -0.29400
N 	N 	0.41640 0.15990 0.42183 -0.28400
N 	N 	0.30600 0.94030 0.37036 -0.30000
N 	N 	0.35290 0.78120 0.36350 -0.28100
N 	N 	0.13930 0.99050 0.39081 -0.30000
N 	N 	0.98550 0.91890 0.39467 -0.26500
N 	N 	0.14030 0.45030 0.32392 -0.27900
N 	N 	0.24440 0.56380 0.34151 -0.29000
N 	N 	0.20590 0.09110 0.35445 -0.30700
N 	N 	0.12700 0.19920 0.32955 -0.28000
N 	N 	0.70430 0.90150 0.89782 -0.29400
N 	N 	0.58360 0.84010 0.92183 -0.28400
N 	N 	0.69400 0.05970 0.87036 -0.30000
N 	N 	0.64710 0.21880 0.86350 -0.28100
N 	N 	0.86070 0.00950 0.89081 -0.30000
N 	N 	0.01450 0.08110 0.89467 -0.26500
N 	N 	0.85970 0.54970 0.82392 -0.27900
N 	N 	0.75560 0.43620 0.84151 -0.29000
N 	N 	0.79410 0.90890 0.85445 -0.30700
N 	N 	0.87300 0.80080 0.82955 -0.28000
N 	N 	0.59850 0.20430 0.14782 -0.29500
N 	N 	0.65990 0.08360 0.17183 -0.28200
N 	N 	0.44030 0.19400 0.12036 -0.30500
N 	N 	0.28120 0.14710 0.11350 -0.28100
N 	N 	0.49050 0.36070 0.14081 -0.30600
N 	N 	0.41890 0.51450 0.14467 -0.27100
N 	N 	0.95030 0.35970 0.07392 -0.28100
N 	N 	0.06380 0.25560 0.09151 -0.28600
N 	N 	0.59110 0.29410 0.10445 -0.31000
N 	N 	0.69920 0.37300 0.07955 -0.27900
N 	N 	0.40150 0.79570 0.64782 -0.29500
N 	N 	0.34010 0.91640 0.67183 -0.28200
N 	N 	0.55970 0.80600 0.62036 -0.30500
N 	N 	0.71880 0.85290 0.61350 -0.28100
N 	N 	0.50950 0.63930 0.64081 -0.30600
N 	N 	0.58110 0.48550 0.64467 -0.27100
N 	N 	0.04970 0.64030 0.57392 -0.28100
N 	N 	0.93620 0.74440 0.59151 -0.28600
N 	N 	0.40890 0.70590 0.60445 -0.31000
N 	N 	0.30080 0.62700 0.57955 -0.27900
O 	O 	0.32400 0.08220 0.72031 -0.47200
O 	O 	0.20030 0.97030 0.72297 -0.32700
O 	O 	0.15260 0.07390 0.85011 -0.45000
O 	O 	0.30250 0.15960 0.84944 -0.32300
O 	O 	0.67600 0.91780 0.22031 -0.47200
O 	O 	0.79970 0.02970 0.22297 -0.32700
O 	O 	0.84740 0.92610 0.35011 -0.45000
O 	O 	0.69750 0.84040 0.34944 -0.32300
O 	O 	0.41780 0.82400 0.97031 -0.47500
O 	O 	0.52970 0.70030 0.97297 -0.33300
O 	O 	0.42610 0.65260 0.10011 -0.45200
O 	O 	0.34040 0.80250 0.09944 -0.32500
O 	O 	0.58220 0.17600 0.47031 -0.47500
O 	O 	0.47030 0.29970 0.47297 -0.33300
O 	O 	0.57390 0.34740 0.60011 -0.45200
O 	O 	0.65960 0.19750 0.59944 -0.32500
O 	O 	0.17600 0.58220 0.52969 -0.47500
O 	O 	0.29970 0.47030 0.52703 -0.33300
O 	O 	0.34740 0.57390 0.39989 -0.45200
O 	O 	0.19750 0.65960 0.40056 -0.32500
O 	O 	0.82400 0.41780 0.02969 -0.47500
O 	O 	0.70030 0.52970 0.02703 -0.33300
O 	O 	0.65260 0.42610 0.89989 -0.45200
O 	O 	0.80250 0.34040 0.90056 -0.32500
O 	O 	0.08220 0.32400 0.27969 -0.47200
O 	O 	0.97030 0.20030 0.27703 -0.32700
O 	O 	0.07390 0.15260 0.14989 -0.45000
O 	O 	0.15960 0.30250 0.15056 -0.32300
O 	O 	0.91780 0.67600 0.77969 -0.47200
O 	O 	0.02970 0.79970 0.77703 -0.32700
O 	O 	0.92610 0.84740 0.64989 -0.45000
O 	O 	0.84040 0.69750 0.65056 -0.32300
