data_crystal

_cell_length_a 20.89600
_cell_length_b 7.38720
_cell_length_c 31.83400
_cell_angle_alpha 90.00000
_cell_angle_beta  124.63600
_cell_angle_gamma 90.00000

_symmetry_space_group_name_	'P 1'
_symmetry_space_group_name_H-M	'P 1'

loop_
_symmetry_equiv_pos_as_xyz
  x,y,z

loop_
_atom_site_label
_atom_site_type_symbol
_atom_site_fract_x
_atom_site_fract_y
_atom_site_fract_z
_atom_site_charge
Zn	Zn	0.67447 0.44651 0.65602 1.21700
Zn	Zn	0.67786 0.81121 0.59050 1.20000
F 	F 	0.00710 0.30790 0.54130 -0.38300
F 	F 	0.07340 0.38580 0.62010 -0.47000
F 	F 	0.11170 0.16660 0.59530 -0.41700
F 	F 	0.90460 0.04200 0.51253 -0.42400
F 	F 	0.93370 0.83150 0.56682 -0.48800
F 	F 	0.01190 0.89580 0.54556 -0.36800
F 	F 	0.63000 0.39750 0.81150 -0.48300
F 	F 	0.55180 0.58790 0.80941 -0.51100
F 	F 	0.63140 0.44500 0.87820 -0.48600
F 	F 	0.77030 0.51730 0.84230 -0.44600
F 	F 	0.82230 0.71390 0.90236 -0.43000
F 	F 	0.78150 0.46230 0.91260 -0.41300
O 	O 	0.73690 0.59030 0.59340 -0.49000
O 	O 	0.72610 0.33360 0.62600 -0.50900
O 	O 	0.25910 0.64400 0.80100 -0.50700
O 	O 	0.25410 0.89230 0.83900 -0.50100
O 	O 	0.57250 0.10890 0.98094 -0.51700
O 	O 	0.69760 0.06790 0.04441 -0.49600
O 	O 	0.58560 0.11350 0.64680 -0.34800
O 	O 	0.67900 0.28930 0.70610 -0.44000
N 	N 	0.57380 0.54830 0.59640 -0.22500
N 	N 	0.57790 0.69570 0.57400 -0.22300
N 	N 	0.50710 0.75180 0.53680 -0.21900
C 	C 	0.75600 0.43060 0.60870 0.45600
C 	C 	0.81860 0.34640 0.60500 -0.28100
C 	C 	0.84770 0.17760 0.62520 0.27800
H 	H 	0.82750 0.11190 0.64000 -0.04900
C 	C 	0.90730 0.10610 0.62320 -0.40800
H 	H 	0.92690 0.99220 0.63710 0.22400
C 	C 	0.93830 0.20020 0.60110 0.44400
C 	C 	0.90760 0.36950 0.58020 -0.37400
H 	H 	0.92700 0.43470 0.56480 0.29500
C 	C 	0.84800 0.44170 0.58230 0.27100
H 	H 	0.82790 0.55520 0.56830 0.00700
C 	C 	0.00400 0.10850 0.59980 -0.54600
C 	C 	0.04930 0.24310 0.58850 0.99900
C 	C 	0.96410 0.96850 0.55590 1.00200
C 	C 	0.06480 0.02010 0.65220 0.40400
C 	C 	0.09460 0.84670 0.65770 -0.32300
H 	H 	0.07710 0.77670 0.62880 0.29300
C 	C 	0.14930 0.77700 0.70500 0.24600
H 	H 	0.16860 0.66090 0.70780 0.03000
C 	C 	0.17580 0.87830 0.74840 -0.24000
C 	C 	0.14760 0.05070 0.74350 0.22400
H 	H 	0.16590 0.12140 0.77240 -0.02900
C 	C 	0.09230 0.11940 0.69590 -0.34500
H 	H 	0.07310 0.23540 0.69330 0.19400
C 	C 	0.23410 0.79980 0.80010 0.46300
C 	C 	0.49820 0.50860 0.57220 0.00700
H 	H 	0.47760 0.41160 0.57950 0.06400
C 	C 	0.45650 0.63510 0.53490 0.03000
H 	H 	0.40260 0.63960 0.51240 0.01900
C 	C 	0.64120 0.05940 0.99790 0.44100
C 	C 	0.65700 0.97880 0.96160 -0.26200
C 	C 	0.60190 0.98910 0.90900 0.32500
H 	H 	0.55670 0.05590 0.89610 -0.03900
C 	C 	0.72430 0.88010 0.98000 0.33400
H 	H 	0.76280 0.87700 0.01490 -0.03200
C 	C 	0.73480 0.78550 0.94650 -0.37200
H 	H 	0.77940 0.71640 0.95940 0.29500
C 	C 	0.67980 0.79290 0.89450 0.45900
C 	C 	0.61380 0.90220 0.87610 -0.36900
H 	H 	0.57780 0.91540 0.84110 0.23200
C 	C 	0.68400 0.68010 0.85540 -0.53600
C 	C 	0.62420 0.52540 0.83820 1.00800
C 	C 	0.76550 0.59260 0.87870 0.97500
C 	C 	0.66920 0.80000 0.81090 0.39700
C 	C 	0.62310 0.74780 0.75990 -0.32700
H 	H 	0.59960 0.63440 0.75130 0.25500
C 	C 	0.61180 0.86290 0.72170 0.24900
H 	H 	0.57950 0.82680 0.68770 -0.02400
C 	C 	0.64770 0.03000 0.73330 -0.22300
C 	C 	0.69540 0.08120 0.78410 0.19900
H 	H 	0.72090 0.19220 0.79270 0.07900
C 	C 	0.70550 0.96930 0.82200 -0.24800
H 	H 	0.73710 0.00720 0.85580 0.22800
C 	C 	0.63580 0.15150 0.69200 0.41300
Zn	Zn	0.32553 0.44651 0.84398 1.21800
Zn	Zn	0.32214 0.81121 0.90950 1.20200
F 	F 	0.99290 0.30790 0.95870 -0.37900
F 	F 	0.92660 0.38580 0.87990 -0.47000
F 	F 	0.88830 0.16660 0.90470 -0.41500
F 	F 	0.09540 0.04200 0.98747 -0.41700
F 	F 	0.06630 0.83150 0.93318 -0.48600
F 	F 	0.98810 0.89580 0.95444 -0.36500
F 	F 	0.37000 0.39750 0.68850 -0.48300
F 	F 	0.44820 0.58790 0.69059 -0.51000
F 	F 	0.36860 0.44500 0.62180 -0.48700
F 	F 	0.22970 0.51730 0.65770 -0.44600
F 	F 	0.17770 0.71390 0.59764 -0.43200
F 	F 	0.21850 0.46230 0.58740 -0.41500
O 	O 	0.26310 0.59030 0.90660 -0.48800
O 	O 	0.27390 0.33360 0.87400 -0.50700
O 	O 	0.74090 0.64400 0.69900 -0.50700
O 	O 	0.74590 0.89230 0.66100 -0.50100
O 	O 	0.42750 0.10890 0.51906 -0.51600
O 	O 	0.30240 0.06790 0.45559 -0.47600
O 	O 	0.41440 0.11350 0.85320 -0.34700
O 	O 	0.32100 0.28930 0.79390 -0.44000
N 	N 	0.42620 0.54830 0.90360 -0.22400
N 	N 	0.42210 0.69570 0.92600 -0.22100
N 	N 	0.49290 0.75180 0.96320 -0.21500
C 	C 	0.24400 0.43060 0.89130 0.45700
C 	C 	0.18140 0.34640 0.89500 -0.28000
C 	C 	0.15230 0.17760 0.87480 0.27800
H 	H 	0.17250 0.11190 0.86000 -0.04900
C 	C 	0.09270 0.10610 0.87680 -0.40800
H 	H 	0.07310 0.99220 0.86290 0.22400
C 	C 	0.06170 0.20020 0.89890 0.44600
C 	C 	0.09240 0.36950 0.91980 -0.37400
H 	H 	0.07300 0.43470 0.93520 0.29800
C 	C 	0.15200 0.44170 0.91770 0.27300
H 	H 	0.17210 0.55520 0.93170 0.01000
C 	C 	0.99600 0.10850 0.90020 -0.54800
C 	C 	0.95070 0.24310 0.91150 0.99900
C 	C 	0.03590 0.96850 0.94410 1.00300
C 	C 	0.93520 0.02010 0.84780 0.40400
C 	C 	0.90540 0.84670 0.84230 -0.32300
H 	H 	0.92290 0.77670 0.87120 0.29300
C 	C 	0.85070 0.77700 0.79500 0.24600
H 	H 	0.83140 0.66090 0.79220 0.03000
C 	C 	0.82420 0.87830 0.75160 -0.24000
C 	C 	0.85240 0.05070 0.75650 0.22400
H 	H 	0.83410 0.12140 0.72760 -0.02900
C 	C 	0.90770 0.11940 0.80410 -0.34600
H 	H 	0.92690 0.23540 0.80670 0.19400
C 	C 	0.76590 0.79980 0.69990 0.46400
C 	C 	0.50180 0.50860 0.92780 0.00900
H 	H 	0.52240 0.41160 0.92050 0.06500
C 	C 	0.54350 0.63510 0.96510 0.03100
H 	H 	0.59740 0.63960 0.98760 0.02400
C 	C 	0.35880 0.05940 0.50210 0.40600
C 	C 	0.34300 0.97880 0.53840 -0.22800
C 	C 	0.39810 0.98910 0.59100 0.29700
H 	H 	0.44330 0.05590 0.60390 -0.03000
C 	C 	0.27570 0.88010 0.52000 0.26900
H 	H 	0.23720 0.87700 0.48510 0.00100
C 	C 	0.26520 0.78550 0.55350 -0.33400
H 	H 	0.22060 0.71640 0.54060 0.27700
C 	C 	0.32020 0.79290 0.60550 0.43700
C 	C 	0.38620 0.90220 0.62390 -0.34600
H 	H 	0.42220 0.91540 0.65890 0.22400
C 	C 	0.31600 0.68010 0.64460 -0.52900
C 	C 	0.37580 0.52540 0.66180 1.00600
C 	C 	0.23450 0.59260 0.62130 0.97300
C 	C 	0.33080 0.80000 0.68910 0.39300
C 	C 	0.37690 0.74780 0.74010 -0.32400
H 	H 	0.40040 0.63440 0.74870 0.25400
C 	C 	0.38820 0.86290 0.77830 0.24600
H 	H 	0.42050 0.82680 0.81230 -0.02300
C 	C 	0.35230 0.03000 0.76670 -0.22100
C 	C 	0.30460 0.08120 0.71590 0.19500
H 	H 	0.27910 0.19220 0.70730 0.08000
C 	C 	0.29450 0.96930 0.67800 -0.24400
H 	H 	0.26290 0.00720 0.64420 0.22500
C 	C 	0.36420 0.15150 0.80800 0.41200
Zn	Zn	0.32553 0.55349 0.34398 1.21900
Zn	Zn	0.32214 0.18879 0.40950 1.19900
F 	F 	0.99290 0.69210 0.45870 -0.38100
F 	F 	0.92660 0.61420 0.37990 -0.47100
F 	F 	0.88830 0.83340 0.40470 -0.40900
F 	F 	0.09540 0.95800 0.48747 -0.39700
F 	F 	0.06630 0.16850 0.43318 -0.48900
F 	F 	0.98810 0.10420 0.45444 -0.37300
F 	F 	0.37000 0.60250 0.18850 -0.48000
F 	F 	0.44820 0.41210 0.19059 -0.51100
F 	F 	0.36860 0.55500 0.12180 -0.48400
F 	F 	0.22970 0.48270 0.15770 -0.44600
F 	F 	0.17770 0.28610 0.09764 -0.43900
F 	F 	0.21850 0.53770 0.08740 -0.41400
O 	O 	0.26310 0.40970 0.40660 -0.48800
O 	O 	0.27390 0.66640 0.37400 -0.49900
O 	O 	0.74090 0.35600 0.19900 -0.51600
O 	O 	0.74590 0.10770 0.16100 -0.52600
O 	O 	0.42750 0.89110 0.01906 -0.50700
O 	O 	0.30240 0.93210 0.95559 -0.44900
O 	O 	0.41440 0.88650 0.35320 -0.33800
O 	O 	0.32100 0.71070 0.29390 -0.43900
N 	N 	0.42620 0.45170 0.40360 -0.22500
N 	N 	0.42210 0.30430 0.42600 -0.22500
N 	N 	0.49290 0.24820 0.46320 -0.22500
C 	C 	0.24400 0.56940 0.39130 0.44300
C 	C 	0.18140 0.65360 0.39500 -0.24200
C 	C 	0.15230 0.82240 0.37480 0.21200
H 	H 	0.17250 0.88810 0.36000 -0.01400
C 	C 	0.09270 0.89390 0.37680 -0.29900
H 	H 	0.07310 0.00780 0.36290 0.16200
C 	C 	0.06170 0.79980 0.39890 0.40000
C 	C 	0.09240 0.63050 0.41980 -0.33700
H 	H 	0.07300 0.56530 0.43520 0.28200
C 	C 	0.15200 0.55830 0.41770 0.23500
H 	H 	0.17210 0.44480 0.43170 0.01800
C 	C 	0.99600 0.89150 0.40020 -0.53100
C 	C 	0.95070 0.75690 0.41150 0.99700
C 	C 	0.03590 0.03150 0.44410 0.95700
C 	C 	0.93520 0.97990 0.34780 0.49600
C 	C 	0.90540 0.15330 0.34230 -0.44200
H 	H 	0.92290 0.22330 0.37120 0.33000
C 	C 	0.85070 0.22300 0.29500 0.34200
H 	H 	0.83140 0.33910 0.29220 -0.00400
C 	C 	0.82420 0.12170 0.25160 -0.34800
C 	C 	0.85240 0.94930 0.25650 0.35200
H 	H 	0.83410 0.87860 0.22760 -0.06700
C 	C 	0.90770 0.88060 0.30410 -0.43500
H 	H 	0.92690 0.76460 0.30670 0.22500
C 	C 	0.76590 0.20020 0.19990 0.49700
C 	C 	0.50180 0.49140 0.42780 0.00700
H 	H 	0.52240 0.58840 0.42050 0.06500
C 	C 	0.54350 0.36490 0.46510 0.02800
H 	H 	0.59740 0.36040 0.48760 0.01700
C 	C 	0.35880 0.94060 0.00210 0.40000
C 	C 	0.34300 0.02120 0.03840 -0.20200
C 	C 	0.39810 0.01090 0.09100 0.18900
H 	H 	0.44330 0.94410 0.10390 0.03100
C 	C 	0.27570 0.11990 0.02000 0.19900
H 	H 	0.23720 0.12300 0.98510 0.02900
C 	C 	0.26520 0.21450 0.05350 -0.29000
H 	H 	0.22060 0.28360 0.04060 0.25700
C 	C 	0.32020 0.20710 0.10550 0.40000
C 	C 	0.38620 0.09780 0.12390 -0.28400
H 	H 	0.42220 0.08460 0.15890 0.19400
C 	C 	0.31600 0.31990 0.14460 -0.53600
C 	C 	0.37580 0.47460 0.16180 1.00800
C 	C 	0.23450 0.40740 0.12130 0.97500
C 	C 	0.33080 0.20000 0.18910 0.44600
C 	C 	0.37690 0.25220 0.24010 -0.35100
H 	H 	0.40040 0.36560 0.24870 0.26300
C 	C 	0.38820 0.13710 0.27830 0.23700
H 	H 	0.42050 0.17320 0.31230 -0.02700
C 	C 	0.35230 0.97000 0.26670 -0.22600
C 	C 	0.30460 0.91880 0.21590 0.31000
H 	H 	0.27910 0.80780 0.20730 0.04300
C 	C 	0.29450 0.03070 0.17800 -0.40400
H 	H 	0.26290 0.99280 0.14420 0.30500
C 	C 	0.36420 0.84850 0.30800 0.42200
Zn	Zn	0.67447 0.55349 0.15602 1.21800
Zn	Zn	0.67786 0.18879 0.09050 1.19800
F 	F 	0.00710 0.69210 0.04130 -0.38300
F 	F 	0.07340 0.61420 0.12010 -0.47000
F 	F 	0.11170 0.83340 0.09530 -0.41000
F 	F 	0.90460 0.95800 0.01253 -0.40300
F 	F 	0.93370 0.16850 0.06682 -0.49100
F 	F 	0.01190 0.10420 0.04556 -0.37400
F 	F 	0.63000 0.60250 0.31150 -0.48000
F 	F 	0.55180 0.41210 0.30941 -0.51100
F 	F 	0.63140 0.55500 0.37820 -0.48300
F 	F 	0.77030 0.48270 0.34230 -0.44600
F 	F 	0.82230 0.28610 0.40236 -0.43700
F 	F 	0.78150 0.53770 0.41260 -0.41300
O 	O 	0.73690 0.40970 0.09340 -0.49000
O 	O 	0.72610 0.66640 0.12600 -0.50000
O 	O 	0.25910 0.35600 0.30100 -0.51600
O 	O 	0.25410 0.10770 0.33900 -0.52500
O 	O 	0.57250 0.89110 0.48094 -0.51000
O 	O 	0.69760 0.93210 0.54441 -0.46700
O 	O 	0.58560 0.88650 0.14680 -0.33900
O 	O 	0.67900 0.71070 0.20610 -0.43900
N 	N 	0.57380 0.45170 0.09640 -0.22500
N 	N 	0.57790 0.30430 0.07400 -0.22700
N 	N 	0.50710 0.24820 0.03680 -0.22800
C 	C 	0.75600 0.56940 0.10870 0.44100
C 	C 	0.81860 0.65360 0.10500 -0.24000
C 	C 	0.84770 0.82240 0.12520 0.20800
H 	H 	0.82750 0.88810 0.14000 -0.01300
C 	C 	0.90730 0.89390 0.12320 -0.29300
H 	H 	0.92690 0.00780 0.13710 0.15800
C 	C 	0.93830 0.79980 0.10110 0.39100
C 	C 	0.90760 0.63050 0.08020 -0.33200
H 	H 	0.92700 0.56530 0.06480 0.27700
C 	C 	0.84800 0.55830 0.08230 0.23000
H 	H 	0.82790 0.44480 0.06830 0.01600
C 	C 	0.00400 0.89150 0.09980 -0.52200
C 	C 	0.04930 0.75690 0.08850 0.99500
C 	C 	0.96410 0.03150 0.05590 0.94900
C 	C 	0.06480 0.97990 0.15220 0.49400
C 	C 	0.09460 0.15330 0.15770 -0.43900
H 	H 	0.07710 0.22330 0.12880 0.33000
C 	C 	0.14930 0.22300 0.20500 0.34100
H 	H 	0.16860 0.33910 0.20780 -0.00300
C 	C 	0.17580 0.12170 0.24840 -0.34700
C 	C 	0.14760 0.94930 0.24350 0.35000
H 	H 	0.16590 0.87860 0.27240 -0.06600
C 	C 	0.09230 0.88060 0.19590 -0.43300
H 	H 	0.07310 0.76460 0.19330 0.22500
C 	C 	0.23410 0.20020 0.30010 0.49700
C 	C 	0.49820 0.49140 0.07220 0.00500
H 	H 	0.47760 0.58840 0.07950 0.06500
C 	C 	0.45650 0.36490 0.03490 0.02700
H 	H 	0.40260 0.36040 0.01240 0.01300
C 	C 	0.64120 0.94060 0.49790 0.43000
C 	C 	0.65700 0.02120 0.46160 -0.23400
C 	C 	0.60190 0.01090 0.40900 0.21600
H 	H 	0.55670 0.94410 0.39610 0.02100
C 	C 	0.72430 0.11990 0.48000 0.26100
H 	H 	0.76280 0.12300 0.51490 -0.00400
C 	C 	0.73480 0.21450 0.44650 -0.32700
H 	H 	0.77940 0.28360 0.45940 0.27400
C 	C 	0.67980 0.20710 0.39450 0.42100
C 	C 	0.61380 0.09780 0.37610 -0.30700
H 	H 	0.57780 0.08460 0.34110 0.20200
C 	C 	0.68400 0.31990 0.35540 -0.54300
C 	C 	0.62420 0.47460 0.33820 1.00900
C 	C 	0.76550 0.40740 0.37870 0.97600
C 	C 	0.66920 0.20000 0.31090 0.44900
C 	C 	0.62310 0.25220 0.25990 -0.35300
H 	H 	0.59960 0.36560 0.25130 0.26400
C 	C 	0.61180 0.13710 0.22170 0.23800
H 	H 	0.57950 0.17320 0.18770 -0.02700
C 	C 	0.64770 0.97000 0.23330 -0.22700
C 	C 	0.69540 0.91880 0.28410 0.31200
H 	H 	0.72090 0.80780 0.29270 0.04200
C 	C 	0.70550 0.03070 0.32200 -0.40600
H 	H 	0.73710 0.99280 0.35580 0.30700
C 	C 	0.63580 0.84850 0.19200 0.42200
Zn	Zn	0.50000 0.00000 0.50000 1.14800
Zn	Zn	0.50000 0.00000 -0.00000 1.14300
