data_crystal

_cell_length_a 13.29090
_cell_length_b 13.29090
_cell_length_c 14.35600
_cell_angle_alpha 90.00000
_cell_angle_beta  90.00000
_cell_angle_gamma 90.00000

_symmetry_space_group_name_	'P 1'
_symmetry_space_group_name_H-M	'P 1'

loop_
_symmetry_equiv_pos_as_xyz
  x,y,z

loop_
_atom_site_label
_atom_site_type_symbol
_atom_site_fract_x
_atom_site_fract_y
_atom_site_fract_z
_atom_site_charge
N 	N 	0.11116 0.99282 0.20313 -0.25500
N 	N 	0.86751 0.01515 0.29506 -0.25500
C 	C 	0.20793 0.98920 0.17550 0.02400
H 	H 	0.22860 0.98060 0.11410 -0.01300
C 	C 	0.43648 0.02330 0.32953 -0.06700
H 	H 	0.40200 0.04020 0.38370 0.04700
C 	C 	0.54170 0.02190 0.32961 -0.06200
H 	H 	0.57590 0.03610 0.38460 0.04600
C 	C 	0.77138 0.02450 0.32160 0.02300
H 	H 	0.75080 0.04490 0.38060 -0.01000
N 	N 	0.88884 0.00718 0.70313 -0.25600
N 	N 	0.13249 0.98485 0.79506 -0.25600
C 	C 	0.79207 0.01080 0.67550 0.02500
H 	H 	0.77140 0.01940 0.61410 -0.01300
C 	C 	0.56352 0.97670 0.82953 -0.06800
H 	H 	0.59800 0.95980 0.88370 0.04700
C 	C 	0.45830 0.97810 0.82961 -0.06300
H 	H 	0.42410 0.96390 0.88460 0.04500
C 	C 	0.22862 0.97550 0.82160 0.02200
H 	H 	0.24920 0.95510 0.88060 -0.01000
N 	N 	0.00718 0.11116 0.95313 -0.25600
N 	N 	0.98485 0.86751 0.04506 -0.25600
C 	C 	0.01080 0.20793 0.92550 0.01900
H 	H 	0.01940 0.22860 0.86410 -0.01200
C 	C 	0.97670 0.43648 0.07953 -0.07100
H 	H 	0.95980 0.40200 0.13370 0.04800
C 	C 	0.97810 0.54170 0.07961 -0.06600
H 	H 	0.96390 0.57590 0.13460 0.04600
C 	C 	0.97550 0.77138 0.07160 0.01600
H 	H 	0.95510 0.75080 0.13060 -0.00900
N 	N 	0.99282 0.88884 0.45313 -0.25700
N 	N 	0.01515 0.13249 0.54506 -0.25500
C 	C 	0.98920 0.79207 0.42550 0.02300
H 	H 	0.98060 0.77140 0.36410 -0.01300
C 	C 	0.02330 0.56352 0.57953 -0.06700
H 	H 	0.04020 0.59800 0.63370 0.04700
C 	C 	0.02190 0.45830 0.57961 -0.06200
H 	H 	0.03610 0.42410 0.63460 0.04600
C 	C 	0.02450 0.22862 0.57160 0.02300
H 	H 	0.04490 0.24920 0.63060 -0.01000
N 	N 	0.88884 0.99282 0.79687 -0.25700
N 	N 	0.13249 0.01515 0.70494 -0.25500
C 	C 	0.79207 0.98920 0.82450 0.02300
H 	H 	0.77140 0.98060 0.88590 -0.01300
C 	C 	0.56352 0.02330 0.67047 -0.06700
H 	H 	0.59800 0.04020 0.61630 0.04700
C 	C 	0.45830 0.02190 0.67039 -0.06200
H 	H 	0.42410 0.03610 0.61540 0.04600
C 	C 	0.22862 0.02450 0.67840 0.02300
H 	H 	0.24920 0.04490 0.61940 -0.01000
N 	N 	0.11116 0.00718 0.29687 -0.25500
N 	N 	0.86751 0.98485 0.20494 -0.25600
C 	C 	0.20793 0.01080 0.32450 0.02500
H 	H 	0.22860 0.01940 0.38590 -0.01300
C 	C 	0.43648 0.97670 0.17047 -0.06800
H 	H 	0.40200 0.95980 0.11630 0.04700
C 	C 	0.54170 0.97810 0.17039 -0.06300
H 	H 	0.57590 0.96390 0.11540 0.04500
C 	C 	0.77138 0.97550 0.17840 0.02200
H 	H 	0.75080 0.95510 0.11940 -0.01000
N 	N 	0.99282 0.11116 0.04687 -0.25600
N 	N 	0.01515 0.86751 0.95494 -0.25500
C 	C 	0.98920 0.20793 0.07450 0.01800
H 	H 	0.98060 0.22860 0.13590 -0.01200
C 	C 	0.02330 0.43648 0.92047 -0.07000
H 	H 	0.04020 0.40200 0.86630 0.04800
C 	C 	0.02190 0.54170 0.92039 -0.06500
H 	H 	0.03610 0.57590 0.86540 0.04600
C 	C 	0.02450 0.77138 0.92840 0.01700
H 	H 	0.04490 0.75080 0.86940 -0.00900
N 	N 	0.00718 0.88884 0.54687 -0.25600
N 	N 	0.98485 0.13249 0.45494 -0.25600
C 	C 	0.01080 0.79207 0.57450 0.02500
H 	H 	0.01940 0.77140 0.63590 -0.01300
C 	C 	0.97670 0.56352 0.42047 -0.06800
H 	H 	0.95980 0.59800 0.36630 0.04700
C 	C 	0.97810 0.45830 0.42039 -0.06300
H 	H 	0.96390 0.42410 0.36540 0.04600
C 	C 	0.97550 0.22862 0.42840 0.02200
H 	H 	0.95510 0.24920 0.36940 -0.01000
Co	Co	0.98912 0.98912 0.12500 1.07600
Co	Co	0.01088 0.01088 0.62500 1.07800
Co	Co	0.01088 0.98912 0.87500 1.07700
Co	Co	0.98912 0.01088 0.37500 1.07700
C 	C 	0.27240 0.00000 0.25000 -0.04800
C 	C 	0.38350 0.00000 0.25000 0.03800
C 	C 	0.59610 0.00000 0.25000 0.03300
C 	C 	0.70710 0.00000 0.25000 -0.04700
C 	C 	0.72760 0.00000 0.75000 -0.04800
C 	C 	0.61650 0.00000 0.75000 0.03700
C 	C 	0.40390 0.00000 0.75000 0.03300
C 	C 	0.29290 0.00000 0.75000 -0.04700
C 	C 	-0.00000 0.27240 -0.00000 -0.04200
C 	C 	-0.00000 0.38350 -0.00000 0.04100
C 	C 	-0.00000 0.59610 -0.00000 0.03600
C 	C 	-0.00000 0.70710 -0.00000 -0.04000
C 	C 	0.00000 0.72760 0.50000 -0.04800
C 	C 	-0.00000 0.61650 0.50000 0.03700
C 	C 	0.00000 0.40390 0.50000 0.03300
C 	C 	-0.00000 0.29290 0.50000 -0.04600
