data_crystal

_cell_length_a 7.27820
_cell_length_b 7.56130
_cell_length_c 7.48200
_cell_angle_alpha 90.00000
_cell_angle_beta  101.49400
_cell_angle_gamma 90.00000

_symmetry_space_group_name_	'P 1'
_symmetry_space_group_name_H-M	'P 1'

loop_
_symmetry_equiv_pos_as_xyz
  x,y,z

loop_
_atom_site_label
_atom_site_type_symbol
_atom_site_fract_x
_atom_site_fract_y
_atom_site_fract_z
_atom_site_charge
N 	N 	0.29030 0.29940 0.97190 -0.17800
C 	C 	0.18470 0.18760 0.98100 0.13800
N 	N 	0.70970 0.29940 0.02810 -0.24000
C 	C 	0.81530 0.18760 0.01900 -0.00900
N 	N 	0.70970 0.70060 0.02810 -0.24000
C 	C 	0.81530 0.81240 0.01900 0.00900
N 	N 	0.29030 0.70060 0.97190 -0.17900
C 	C 	0.18470 0.81240 0.98100 0.15500
Pt	Pt	-0.00000 0.00000 -0.00000 0.11000
Fe	Fe	0.50000 0.50000 -0.00000 1.07700
N 	N 	0.50460 0.50000 0.29150 -0.23100
C 	C 	0.34300 0.50000 0.37700 -0.14800
H 	H 	0.22660 0.50000 0.29890 0.09100
C 	C 	0.65800 0.50000 0.44200 0.31000
F 	F 	0.84800 0.50000 0.40300 -0.40200
N 	N 	0.49540 0.50000 0.70850 -0.17800
C 	C 	0.65700 0.50000 0.62300 -0.13500
H 	H 	0.77340 0.50000 0.70110 0.16200
C 	C 	0.34200 0.50000 0.55800 0.30500
F 	F 	0.15200 0.50000 0.59700 -0.41700
