data_crystal

_cell_length_a 6.80610
_cell_length_b 8.24680
_cell_length_c 9.09560
_cell_angle_alpha 103.82400
_cell_angle_beta  94.82300
_cell_angle_gamma 102.71900

_symmetry_space_group_name_	'P 1'
_symmetry_space_group_name_H-M	'P 1'

loop_
_symmetry_equiv_pos_as_xyz
  x,y,z

loop_
_atom_site_label
_atom_site_type_symbol
_atom_site_fract_x
_atom_site_fract_y
_atom_site_fract_z
_atom_site_charge
O 	O 	0.07600 0.79640 0.09370 -0.22400
O 	O 	0.24440 0.52690 0.13770 -0.20500
O 	O 	0.79660 0.80680 0.30990 -0.11800
O 	O 	0.78570 0.95300 0.62400 -0.10700
O 	O 	0.48450 0.83910 0.30820 -0.13200
O 	O 	0.88260 0.81990 0.79440 -0.26700
C 	C 	0.77890 0.82200 0.67500 0.31400
O 	O 	0.46020 0.36080 0.08630 -0.25600
C 	C 	0.61990 0.77070 0.34750 0.26700
C 	C 	0.63460 0.65680 0.58410 -0.01700
C 	C 	0.56420 0.63180 0.42910 0.00800
C 	C 	0.43220 0.47500 0.34520 -0.01500
C 	C 	0.37350 0.44860 0.17550 0.29200
U 	U 	0.11287 0.74819 0.27496 0.01800
O 	O 	0.92400 0.20360 0.90630 -0.12100
O 	O 	0.75560 0.47310 0.86230 -0.09600
O 	O 	0.20340 0.19320 0.69010 -0.22400
O 	O 	0.21430 0.04700 0.37600 -0.26900
O 	O 	0.51550 0.16090 0.69180 -0.19500
O 	O 	0.11740 0.18010 0.20560 -0.44700
C 	C 	0.22110 0.17800 0.32500 0.33400
O 	O 	0.53980 0.63920 0.91370 -0.12700
C 	C 	0.38010 0.22930 0.65250 0.29700
C 	C 	0.36540 0.34320 0.41590 -0.04300
C 	C 	0.43580 0.36820 0.57090 -0.01400
C 	C 	0.56780 0.52500 0.65480 0.00500
C 	C 	0.62650 0.55140 0.82450 0.27000
U 	U 	0.88713 0.25181 0.72504 0.03900
Co	Co	-0.00000 0.00000 -0.00000 1.03300
