data_crystal

_cell_length_a 9.10900
_cell_length_b 11.02100
_cell_length_c 11.98700
_cell_angle_alpha 90.00000
_cell_angle_beta  90.00000
_cell_angle_gamma 90.00000

_symmetry_space_group_name_	'P 1'
_symmetry_space_group_name_H-M	'P 1'

loop_
_symmetry_equiv_pos_as_xyz
  x,y,z

loop_
_atom_site_label
_atom_site_type_symbol
_atom_site_fract_x
_atom_site_fract_y
_atom_site_fract_z
_atom_site_charge
P 	P 	0.54160 0.31350 0.40620 0.55300
O 	O 	0.54320 0.39610 0.50950 -0.24100
O 	O 	0.53530 0.18160 0.43680 -0.28000
O 	O 	0.40790 0.35270 0.33410 -0.59900
O 	O 	0.31680 0.65560 0.65990 -0.59800
P 	P 	0.54160 0.18650 0.09380 0.53300
O 	O 	0.54320 0.10390 0.99050 -0.21000
O 	O 	0.53530 0.31840 0.06320 -0.27900
O 	O 	0.40790 0.14730 0.16590 -0.60400
O 	O 	0.31680 0.84440 0.84010 -0.58900
P 	P 	0.95840 0.68650 0.90620 0.57600
O 	O 	0.95680 0.60390 0.00950 -0.23500
O 	O 	0.96470 0.81840 0.93680 -0.25200
O 	O 	0.09210 0.64730 0.83410 -0.60600
O 	O 	0.18320 0.34440 0.15990 -0.60000
P 	P 	0.95840 0.81350 0.59380 0.56400
O 	O 	0.95680 0.89610 0.49050 -0.20400
O 	O 	0.96470 0.68160 0.56320 -0.26400
O 	O 	0.09210 0.85270 0.66590 -0.60100
O 	O 	0.18320 0.15560 0.34010 -0.60400
P 	P 	0.45840 0.68650 0.59380 0.55300
O 	O 	0.45680 0.60390 0.49050 -0.24000
O 	O 	0.46470 0.81840 0.56320 -0.26500
O 	O 	0.59210 0.64730 0.66590 -0.59300
O 	O 	0.68320 0.34440 0.34010 -0.59400
P 	P 	0.45840 0.81350 0.90620 0.56500
O 	O 	0.45680 0.89610 0.00950 -0.23200
O 	O 	0.46470 0.68160 0.93680 -0.26500
O 	O 	0.59210 0.85270 0.83410 -0.58500
O 	O 	0.68320 0.15560 0.15990 -0.60000
P 	P 	0.04160 0.31350 0.09380 0.51600
O 	O 	0.04320 0.39610 0.99050 -0.20800
O 	O 	0.03530 0.18160 0.06320 -0.29600
O 	O 	0.90790 0.35270 0.16590 -0.57700
O 	O 	0.81680 0.65560 0.84010 -0.59000
P 	P 	0.04160 0.18650 0.40620 0.53600
O 	O 	0.04320 0.10390 0.50950 -0.24600
O 	O 	0.03530 0.31840 0.43680 -0.28000
O 	O 	0.90790 0.14730 0.33410 -0.58400
O 	O 	0.81680 0.84440 0.65990 -0.58600
Ga	Ga	0.70350 0.75000 0.75000 2.07600
Ga	Ga	0.79650 0.25000 0.25000 2.07600
Ga	Ga	0.29650 0.25000 0.25000 2.07500
Ga	Ga	0.20350 0.75000 0.75000 2.07600
H 	H 	0.50000 0.50000 0.50000 0.22800
H 	H 	0.50000 0.00000 -0.00000 0.19000
H 	H 	-0.00000 0.50000 -0.00000 0.19500
H 	H 	0.00000 0.00000 0.50000 0.19500
