data_crystal

_cell_length_a 10.99700
_cell_length_b 14.91400
_cell_length_c 14.36800
_cell_angle_alpha 90.00000
_cell_angle_beta  109.31000
_cell_angle_gamma 90.00000

_symmetry_space_group_name_	'P 1'
_symmetry_space_group_name_H-M	'P 1'

loop_
_symmetry_equiv_pos_as_xyz
  x,y,z

loop_
_atom_site_label
_atom_site_type_symbol
_atom_site_fract_x
_atom_site_fract_y
_atom_site_fract_z
_atom_site_charge
O 	O 	0.90820 0.14190 0.19630 -0.51700
O 	O 	0.56630 0.37220 0.36980 -0.45600
Zn	Zn	0.62034 0.02999 0.96634 1.24700
Zn	Zn	0.07237 0.15007 0.16101 1.17100
O 	O 	0.53260 0.05620 0.06890 -0.57200
C 	C 	0.46500 0.16150 0.16430 -0.35100
O 	O 	0.25220 0.17910 0.15760 -0.51600
C 	C 	0.62170 0.26440 0.26960 -0.24800
C 	C 	0.56000 0.12230 0.13140 0.39400
C 	C 	0.32690 0.13360 0.12880 0.50100
C 	C 	0.71460 0.22550 0.23740 0.21800
H 	H 	0.79840 0.24750 0.26140 -0.02600
C 	C 	0.49750 0.23110 0.23170 0.21800
H 	H 	0.43340 0.25650 0.25230 -0.02000
C 	C 	0.68840 0.15560 0.17130 -0.34400
O 	O 	0.78040 0.06600 0.07310 -0.50400
O 	O 	0.76420 0.37390 0.36270 -0.34300
O 	O 	0.28780 0.06920 0.07180 -0.52000
C 	C 	0.79780 0.11870 0.14370 0.49200
C 	C 	0.65530 0.34210 0.33860 0.39100
N 	N 	0.02120 0.28180 0.09730 -0.26300
C 	C 	0.00340 0.45410 0.01970 0.06900
C 	C 	0.99860 0.29610 0.00310 0.12400
H 	H 	0.99110 0.24650 0.96240 -0.03700
C 	C 	0.02090 0.43830 0.11700 -0.15200
H 	H 	0.02770 0.48670 0.15930 0.07100
C 	C 	0.02870 0.35240 0.15390 0.09700
H 	H 	0.03950 0.34410 0.22030 -0.03000
C 	C 	0.98550 0.38000 0.96040 -0.17300
H 	H 	0.96480 0.38610 0.89250 0.08800
O 	O 	0.09180 0.64190 0.30370 -0.51900
O 	O 	0.43370 0.87220 0.13020 -0.45800
Zn	Zn	0.37966 0.52999 0.53366 1.25100
Zn	Zn	0.92763 0.65007 0.33899 1.17200
O 	O 	0.46740 0.55620 0.43110 -0.57500
C 	C 	0.53500 0.66150 0.33570 -0.35300
O 	O 	0.74780 0.67910 0.34240 -0.51700
C 	C 	0.37830 0.76440 0.23040 -0.25000
C 	C 	0.44000 0.62230 0.36860 0.39500
C 	C 	0.67310 0.63360 0.37120 0.50200
C 	C 	0.28540 0.72550 0.26260 0.21900
H 	H 	0.20160 0.74750 0.23860 -0.02600
C 	C 	0.50250 0.73110 0.26830 0.21900
H 	H 	0.56660 0.75650 0.24770 -0.02100
C 	C 	0.31160 0.65560 0.32870 -0.34700
O 	O 	0.21960 0.56600 0.42690 -0.50900
O 	O 	0.23580 0.87390 0.13730 -0.34600
O 	O 	0.71220 0.56920 0.42820 -0.52200
C 	C 	0.20220 0.61870 0.35630 0.49300
C 	C 	0.34470 0.84210 0.16140 0.39100
N 	N 	0.97880 0.78180 0.40270 -0.25800
C 	C 	0.99660 0.95410 0.48030 0.05800
C 	C 	0.00140 0.79610 0.49690 0.10000
H 	H 	0.00890 0.74650 0.53760 -0.02500
C 	C 	0.97910 0.93830 0.38300 -0.14600
H 	H 	0.97230 0.98670 0.34070 0.06600
C 	C 	0.97130 0.85240 0.34610 0.09100
H 	H 	0.96050 0.84410 0.27970 -0.02900
C 	C 	0.01450 0.88000 0.53960 -0.14800
H 	H 	0.03520 0.88610 0.60750 0.08100
O 	O 	0.09180 0.85810 0.80370 -0.51600
O 	O 	0.43370 0.62780 0.63020 -0.45500
Zn	Zn	0.37966 0.97001 0.03366 1.24800
Zn	Zn	0.92763 0.84993 0.83899 1.17200
O 	O 	0.46740 0.94380 0.93110 -0.57200
C 	C 	0.53500 0.83850 0.83570 -0.35100
O 	O 	0.74780 0.82090 0.84240 -0.51600
C 	C 	0.37830 0.73560 0.73040 -0.24800
C 	C 	0.44000 0.87770 0.86860 0.39400
C 	C 	0.67310 0.86640 0.87120 0.50100
C 	C 	0.28540 0.77450 0.76260 0.21800
H 	H 	0.20160 0.75250 0.73860 -0.02600
C 	C 	0.50250 0.76890 0.76830 0.21800
H 	H 	0.56660 0.74350 0.74770 -0.02000
C 	C 	0.31160 0.84440 0.82870 -0.34400
O 	O 	0.21960 0.93400 0.92690 -0.50400
O 	O 	0.23580 0.62610 0.63730 -0.34300
O 	O 	0.71220 0.93080 0.92820 -0.52000
C 	C 	0.20220 0.88130 0.85630 0.49200
C 	C 	0.34470 0.65790 0.66140 0.39100
N 	N 	0.97880 0.71820 0.90270 -0.26300
C 	C 	0.99660 0.54590 0.98030 0.06900
C 	C 	0.00140 0.70390 0.99690 0.12400
H 	H 	0.00890 0.75350 0.03760 -0.03700
C 	C 	0.97910 0.56170 0.88300 -0.15200
H 	H 	0.97230 0.51330 0.84070 0.07100
C 	C 	0.97130 0.64760 0.84610 0.09700
H 	H 	0.96050 0.65590 0.77970 -0.03000
C 	C 	0.01450 0.62000 0.03960 -0.17300
H 	H 	0.03520 0.61390 0.10750 0.08800
O 	O 	0.90820 0.35810 0.69630 -0.51900
O 	O 	0.56630 0.12780 0.86980 -0.45800
Zn	Zn	0.62034 0.47001 0.46634 1.25100
Zn	Zn	0.07237 0.34993 0.66101 1.17200
O 	O 	0.53260 0.44380 0.56890 -0.57500
C 	C 	0.46500 0.33850 0.66430 -0.35300
O 	O 	0.25220 0.32090 0.65760 -0.51700
C 	C 	0.62170 0.23560 0.76960 -0.25000
C 	C 	0.56000 0.37770 0.63140 0.39500
C 	C 	0.32690 0.36640 0.62880 0.50200
C 	C 	0.71460 0.27450 0.73740 0.21900
H 	H 	0.79840 0.25250 0.76140 -0.02600
C 	C 	0.49750 0.26890 0.73170 0.21900
H 	H 	0.43340 0.24350 0.75230 -0.02100
C 	C 	0.68840 0.34440 0.67130 -0.34700
O 	O 	0.78040 0.43400 0.57310 -0.50900
O 	O 	0.76420 0.12610 0.86270 -0.34600
O 	O 	0.28780 0.43080 0.57180 -0.52200
C 	C 	0.79780 0.38130 0.64370 0.49300
C 	C 	0.65530 0.15790 0.83860 0.39100
N 	N 	0.02120 0.21820 0.59730 -0.25800
C 	C 	0.00340 0.04590 0.51970 0.05800
C 	C 	0.99860 0.20390 0.50310 0.10000
H 	H 	0.99110 0.25350 0.46240 -0.02500
C 	C 	0.02090 0.06170 0.61700 -0.14600
H 	H 	0.02770 0.01330 0.65930 0.06600
C 	C 	0.02870 0.14760 0.65390 0.09100
H 	H 	0.03950 0.15590 0.72030 -0.02900
C 	C 	0.98550 0.12000 0.46040 -0.14800
H 	H 	0.96480 0.11390 0.39250 0.08100
