data_crystal

_cell_length_a 17.16370
_cell_length_b 17.16370
_cell_length_c 34.06650
_cell_angle_alpha 90.00000
_cell_angle_beta  90.00000
_cell_angle_gamma 90.00000

_symmetry_space_group_name_	'P 1'
_symmetry_space_group_name_H-M	'P 1'

loop_
_symmetry_equiv_pos_as_xyz
  x,y,z

loop_
_atom_site_label
_atom_site_type_symbol
_atom_site_fract_x
_atom_site_fract_y
_atom_site_fract_z
_atom_site_charge
C 	C 	0.36580 0.26930 0.16539 0.32000
C 	C 	0.35700 0.21830 0.20016 -0.05400
C 	C 	0.34720 0.23360 0.24012 0.01000
H 	H 	0.34610 0.28150 0.25280 0.03600
C 	C 	0.33970 0.16080 0.25596 -0.06000
C 	C 	0.33030 0.12940 0.29670 0.31100
N 	N 	0.35580 0.14220 0.19335 -0.18500
N 	N 	0.34550 0.10540 0.22763 -0.18700
O 	O 	0.37060 0.23420 0.13261 -0.44100
O 	O 	0.36470 0.34080 0.16825 -0.39600
O 	O 	0.32980 0.05660 0.29896 -0.44500
O 	O 	0.32080 0.17530 0.32494 -0.26600
Cu	Cu	0.37019 0.11986 0.13648 0.86300
C 	C 	0.86580 0.76930 0.66539 0.31700
C 	C 	0.85700 0.71830 0.70016 -0.04900
C 	C 	0.84720 0.73360 0.74012 0.00600
H 	H 	0.84610 0.78150 0.75280 0.04200
C 	C 	0.83970 0.66080 0.75596 -0.05300
C 	C 	0.83030 0.62940 0.79670 0.30700
N 	N 	0.85580 0.64220 0.69335 -0.18000
N 	N 	0.84550 0.60540 0.72763 -0.18000
O 	O 	0.87060 0.73420 0.63261 -0.43600
O 	O 	0.86470 0.84080 0.66825 -0.38600
O 	O 	0.82980 0.55660 0.79896 -0.42300
O 	O 	0.82080 0.67530 0.82494 -0.25600
Cu	Cu	0.87019 0.61986 0.63648 0.87300
C 	C 	0.13420 0.73070 0.66539 0.32000
C 	C 	0.14300 0.78170 0.70016 -0.05100
C 	C 	0.15280 0.76640 0.74012 0.00700
H 	H 	0.15390 0.71850 0.75280 0.03700
C 	C 	0.16030 0.83920 0.75596 -0.04800
C 	C 	0.16970 0.87060 0.79670 0.30500
N 	N 	0.14420 0.85780 0.69335 -0.17300
N 	N 	0.15450 0.89460 0.72763 -0.16500
O 	O 	0.12940 0.76580 0.63261 -0.43500
O 	O 	0.13530 0.65920 0.66825 -0.39500
O 	O 	0.17020 0.94340 0.79896 -0.39100
O 	O 	0.17920 0.82470 0.82494 -0.25300
Cu	Cu	0.12981 0.88014 0.63648 0.88300
C 	C 	0.63420 0.23070 0.16539 0.32200
C 	C 	0.64300 0.28170 0.20016 -0.05600
C 	C 	0.65280 0.26640 0.24012 0.01100
H 	H 	0.65390 0.21850 0.25280 0.03000
C 	C 	0.66030 0.33920 0.25596 -0.05800
C 	C 	0.66970 0.37060 0.29670 0.30900
N 	N 	0.64420 0.35780 0.19335 -0.17900
N 	N 	0.65450 0.39460 0.22763 -0.18000
O 	O 	0.62940 0.26580 0.13261 -0.43900
O 	O 	0.63530 0.15920 0.16825 -0.40400
O 	O 	0.67020 0.44340 0.29896 -0.42400
O 	O 	0.67920 0.32470 0.32494 -0.26400
Cu	Cu	0.62981 0.38014 0.13648 0.87300
C 	C 	0.13420 0.26930 0.83461 0.31900
C 	C 	0.14300 0.21830 0.79984 -0.05500
C 	C 	0.15280 0.23360 0.75988 0.00900
H 	H 	0.15390 0.28150 0.74720 0.03500
C 	C 	0.16030 0.16080 0.74404 -0.06100
C 	C 	0.16970 0.12940 0.70330 0.31000
N 	N 	0.14420 0.14220 0.80665 -0.18600
N 	N 	0.15450 0.10540 0.77237 -0.18800
O 	O 	0.12940 0.23420 0.86739 -0.43900
O 	O 	0.13530 0.34080 0.83175 -0.39500
O 	O 	0.17020 0.05660 0.70104 -0.44500
O 	O 	0.17920 0.17530 0.67506 -0.26600
Cu	Cu	0.12981 0.11986 0.86352 0.86400
C 	C 	0.63420 0.76930 0.33461 0.31700
C 	C 	0.64300 0.71830 0.29984 -0.04900
C 	C 	0.65280 0.73360 0.25988 0.00600
H 	H 	0.65390 0.78150 0.24720 0.04200
C 	C 	0.66030 0.66080 0.24404 -0.05300
C 	C 	0.66970 0.62940 0.20330 0.30700
N 	N 	0.64420 0.64220 0.30665 -0.18000
N 	N 	0.65450 0.60540 0.27237 -0.18000
O 	O 	0.62940 0.73420 0.36739 -0.43600
O 	O 	0.63530 0.84080 0.33175 -0.38600
O 	O 	0.67020 0.55660 0.20104 -0.42300
O 	O 	0.67920 0.67530 0.17506 -0.25700
Cu	Cu	0.62981 0.61986 0.36352 0.87300
C 	C 	0.36580 0.73070 0.33461 0.32000
C 	C 	0.35700 0.78170 0.29984 -0.05000
C 	C 	0.34720 0.76640 0.25988 0.00700
H 	H 	0.34610 0.71850 0.24720 0.03700
C 	C 	0.33970 0.83920 0.24404 -0.04800
C 	C 	0.33030 0.87060 0.20330 0.30500
N 	N 	0.35580 0.85780 0.30665 -0.17300
N 	N 	0.34550 0.89460 0.27237 -0.16400
O 	O 	0.37060 0.76580 0.36739 -0.43500
O 	O 	0.36470 0.65920 0.33175 -0.39500
O 	O 	0.32980 0.94340 0.20104 -0.39100
O 	O 	0.32080 0.82470 0.17506 -0.25400
Cu	Cu	0.37019 0.88014 0.36352 0.88400
C 	C 	0.86580 0.23070 0.83461 0.32200
C 	C 	0.85700 0.28170 0.79984 -0.05600
C 	C 	0.84720 0.26640 0.75988 0.01100
H 	H 	0.84610 0.21850 0.74720 0.03000
C 	C 	0.83970 0.33920 0.74404 -0.05800
C 	C 	0.83030 0.37060 0.70330 0.30900
N 	N 	0.85580 0.35780 0.80665 -0.17900
N 	N 	0.84550 0.39460 0.77237 -0.18000
O 	O 	0.87060 0.26580 0.86739 -0.43700
O 	O 	0.86470 0.15920 0.83175 -0.40300
O 	O 	0.82980 0.44340 0.70104 -0.42400
O 	O 	0.82080 0.32470 0.67506 -0.26400
Cu	Cu	0.87019 0.38014 0.86352 0.87400
C 	C 	0.01930 0.88420 0.58461 0.32000
C 	C 	0.96830 0.89300 0.54984 -0.04100
C 	C 	0.98360 0.90280 0.50988 0.00800
H 	H 	0.03150 0.90390 0.49720 0.04900
C 	C 	0.91080 0.91030 0.49404 -0.04300
C 	C 	0.87940 0.91970 0.45330 0.30800
N 	N 	0.89220 0.89420 0.55665 -0.17700
N 	N 	0.85540 0.90450 0.52237 -0.17700
O 	O 	0.98420 0.87940 0.61739 -0.42800
O 	O 	0.09080 0.88530 0.58175 -0.37900
O 	O 	0.80660 0.92020 0.45104 -0.41100
O 	O 	0.92530 0.92920 0.42506 -0.23800
Cu	Cu	0.86986 0.87981 0.61352 0.87900
C 	C 	0.51930 0.38420 0.08461 0.30900
C 	C 	0.46830 0.39300 0.04984 -0.02900
C 	C 	0.48360 0.40280 0.00988 -0.07100
H 	H 	0.53150 0.40390 0.99720 0.07500
C 	C 	0.41080 0.41030 0.99404 -0.00200
C 	C 	0.37940 0.41970 0.95330 0.29000
N 	N 	0.39220 0.39420 0.05665 -0.18500
N 	N 	0.35540 0.40450 0.02237 -0.19600
O 	O 	0.48420 0.37940 0.11739 -0.43500
O 	O 	0.59080 0.38530 0.08175 -0.39500
O 	O 	0.30660 0.42020 0.95104 -0.41500
O 	O 	0.42530 0.42920 0.92506 -0.25500
Cu	Cu	0.36986 0.37981 0.11352 0.87200
C 	C 	0.48070 0.11580 0.08461 0.30900
C 	C 	0.53170 0.10700 0.04984 -0.04100
C 	C 	0.51640 0.09720 0.00988 -0.07000
H 	H 	0.46850 0.09610 0.99720 0.06200
C 	C 	0.58920 0.08970 0.99404 -0.01400
C 	C 	0.62060 0.08030 0.95330 0.29100
N 	N 	0.60780 0.10580 0.05665 -0.18700
N 	N 	0.64460 0.09550 0.02237 -0.19800
O 	O 	0.51580 0.12060 0.11739 -0.44400
O 	O 	0.40920 0.11470 0.08175 -0.41000
O 	O 	0.69340 0.07980 0.95104 -0.42600
O 	O 	0.57470 0.07080 0.92506 -0.27500
Cu	Cu	0.63014 0.12019 0.11352 0.86700
C 	C 	0.98070 0.61580 0.58461 0.31900
C 	C 	0.03170 0.60700 0.54984 -0.05300
C 	C 	0.01640 0.59720 0.50988 0.00800
H 	H 	0.96850 0.59610 0.49720 0.03600
C 	C 	0.08920 0.58970 0.49404 -0.05500
C 	C 	0.12060 0.58030 0.45330 0.30800
N 	N 	0.10780 0.60580 0.55665 -0.17900
N 	N 	0.14460 0.59550 0.52237 -0.18000
O 	O 	0.01580 0.62060 0.61739 -0.43800
O 	O 	0.90920 0.61470 0.58175 -0.39500
O 	O 	0.19340 0.57980 0.45104 -0.42300
O 	O 	0.07470 0.57080 0.42506 -0.25900
Cu	Cu	0.13014 0.62019 0.61352 0.87400
C 	C 	0.48070 0.88420 0.41539 0.32000
C 	C 	0.53170 0.89300 0.45016 -0.04100
C 	C 	0.51640 0.90280 0.49012 0.00800
H 	H 	0.46850 0.90390 0.50280 0.04900
C 	C 	0.58920 0.91030 0.50596 -0.04300
C 	C 	0.62060 0.91970 0.54670 0.30800
N 	N 	0.60780 0.89420 0.44335 -0.17600
N 	N 	0.64460 0.90450 0.47763 -0.17700
O 	O 	0.51580 0.87940 0.38261 -0.42800
O 	O 	0.40920 0.88530 0.41825 -0.37900
O 	O 	0.69340 0.92020 0.54896 -0.41100
O 	O 	0.57470 0.92920 0.57494 -0.23800
Cu	Cu	0.63014 0.87981 0.38648 0.87900
C 	C 	0.98070 0.38420 0.91539 0.33000
C 	C 	0.03170 0.39300 0.95016 -0.07700
C 	C 	0.01640 0.40280 0.99012 0.08600
H 	H 	0.96850 0.40390 0.00280 -0.00300
C 	C 	0.08920 0.41030 0.00596 -0.11000
C 	C 	0.12060 0.41970 0.04670 0.32400
N 	N 	0.10780 0.39420 0.94335 -0.17500
N 	N 	0.14460 0.40450 0.97763 -0.16400
O 	O 	0.01580 0.37940 0.88261 -0.44000
O 	O 	0.90920 0.38530 0.91825 -0.39600
O 	O 	0.19340 0.42020 0.04896 -0.43200
O 	O 	0.07470 0.42920 0.07494 -0.26700
Cu	Cu	0.13014 0.37981 0.88648 0.87400
C 	C 	0.01930 0.11580 0.91539 0.32900
C 	C 	0.96830 0.10700 0.95016 -0.08800
C 	C 	0.98360 0.09720 0.99012 0.08600
H 	H 	0.03150 0.09610 0.00280 -0.01600
C 	C 	0.91080 0.08970 0.00596 -0.12100
C 	C 	0.87940 0.08030 0.04670 0.32400
N 	N 	0.89220 0.10580 0.94335 -0.17800
N 	N 	0.85540 0.09550 0.97763 -0.16600
O 	O 	0.98420 0.12060 0.88261 -0.44800
O 	O 	0.09080 0.11470 0.91825 -0.41200
O 	O 	0.80660 0.07980 0.04896 -0.44200
O 	O 	0.92530 0.07080 0.07494 -0.28700
Cu	Cu	0.86986 0.12019 0.88648 0.86900
C 	C 	0.51930 0.61580 0.41539 0.32000
C 	C 	0.46830 0.60700 0.45016 -0.05300
C 	C 	0.48360 0.59720 0.49012 0.00900
H 	H 	0.53150 0.59610 0.50280 0.03600
C 	C 	0.41080 0.58970 0.50596 -0.05500
C 	C 	0.37940 0.58030 0.54670 0.30800
N 	N 	0.39220 0.60580 0.44335 -0.17900
N 	N 	0.35540 0.59550 0.47763 -0.17900
O 	O 	0.48420 0.62060 0.38261 -0.43700
O 	O 	0.59080 0.61470 0.41825 -0.39500
O 	O 	0.30660 0.57980 0.54896 -0.42300
O 	O 	0.42530 0.57080 0.57494 -0.25900
Cu	Cu	0.36986 0.62019 0.38648 0.87400
Cu	Cu	0.34815 -0.00000 0.25000 0.85200
Cu	Cu	0.84815 0.50000 0.75000 0.87900
Cu	Cu	0.15185 -0.00000 0.75000 0.85200
Cu	Cu	0.65185 0.50000 0.25000 0.87900
Cu	Cu	0.75000 0.90185 0.50000 0.88300
Cu	Cu	0.25000 0.40185 -0.00000 0.87100
Cu	Cu	0.75000 0.09815 -0.00000 0.86800
Cu	Cu	0.25000 0.59815 0.50000 0.88000
C 	C 	0.98070 0.11580 0.41539 0.31900
C 	C 	0.03170 0.10700 0.45016 -0.06500
C 	C 	0.01640 0.09720 0.49012 0.00900
H 	H 	0.96850 0.09610 0.50280 0.02200
C 	C 	0.08920 0.08970 0.50596 -0.06900
C 	C 	0.12060 0.08030 0.54670 0.30800
N 	N 	0.10780 0.10580 0.44335 -0.18300
N 	N 	0.14460 0.09550 0.47763 -0.18300
O 	O 	0.01580 0.12060 0.38261 -0.44600
O 	O 	0.90920 0.11470 0.41825 -0.41100
O 	O 	0.19340 0.07980 0.54896 -0.43600
O 	O 	0.07470 0.07080 0.57494 -0.28200
Cu	Cu	0.13014 0.12019 0.38648 0.86800
C 	C 	0.48070 0.61580 0.91539 0.33000
C 	C 	0.53170 0.60700 0.95016 -0.07600
C 	C 	0.51640 0.59720 0.99012 0.08800
H 	H 	0.46850 0.59610 0.00280 -0.00300
C 	C 	0.58920 0.58970 0.00596 -0.10900
C 	C 	0.62060 0.58030 0.04670 0.32500
N 	N 	0.60780 0.60580 0.94335 -0.17500
N 	N 	0.64460 0.59550 0.97763 -0.16200
O 	O 	0.51580 0.62060 0.88261 -0.44000
O 	O 	0.40920 0.61470 0.91825 -0.39600
O 	O 	0.69340 0.57980 0.04896 -0.43000
O 	O 	0.57470 0.57080 0.07494 -0.26500
Cu	Cu	0.63014 0.62019 0.88648 0.87400
C 	C 	0.51930 0.88420 0.91539 0.33100
C 	C 	0.46830 0.89300 0.95016 -0.06400
C 	C 	0.48360 0.90280 0.99012 0.08700
H 	H 	0.53150 0.90390 0.00280 0.01100
C 	C 	0.41080 0.91030 0.00596 -0.09600
C 	C 	0.37940 0.91970 0.04670 0.32500
N 	N 	0.39220 0.89420 0.94335 -0.17200
N 	N 	0.35540 0.90450 0.97763 -0.16000
O 	O 	0.48420 0.87940 0.88261 -0.43000
O 	O 	0.59080 0.88530 0.91825 -0.38000
O 	O 	0.30660 0.92020 0.04896 -0.41800
O 	O 	0.42530 0.92920 0.07494 -0.24400
Cu	Cu	0.36986 0.87981 0.88648 0.88000
C 	C 	0.01930 0.38420 0.41539 0.32000
C 	C 	0.96830 0.39300 0.45016 -0.05300
C 	C 	0.98360 0.40280 0.49012 0.00800
H 	H 	0.03150 0.40390 0.50280 0.03500
C 	C 	0.91080 0.41030 0.50596 -0.05700
C 	C 	0.87940 0.41970 0.54670 0.30700
N 	N 	0.89220 0.39420 0.44335 -0.18000
N 	N 	0.85540 0.40450 0.47763 -0.18100
O 	O 	0.98420 0.37940 0.38261 -0.43700
O 	O 	0.09080 0.38530 0.41825 -0.39500
O 	O 	0.80660 0.42020 0.54896 -0.42500
O 	O 	0.92530 0.42920 0.57494 -0.26100
Cu	Cu	0.86986 0.37981 0.38648 0.87300
C 	C 	0.51930 0.11580 0.58461 0.31900
C 	C 	0.46830 0.10700 0.54984 -0.06500
C 	C 	0.48360 0.09720 0.50988 0.00900
H 	H 	0.53150 0.09610 0.49720 0.02200
C 	C 	0.41080 0.08970 0.49404 -0.06900
C 	C 	0.37940 0.08030 0.45330 0.30800
N 	N 	0.39220 0.10580 0.55665 -0.18300
N 	N 	0.35540 0.09550 0.52237 -0.18300
O 	O 	0.48420 0.12060 0.61739 -0.44600
O 	O 	0.59080 0.11470 0.58175 -0.41100
O 	O 	0.30660 0.07980 0.45104 -0.43600
O 	O 	0.42530 0.07080 0.42506 -0.28200
Cu	Cu	0.36986 0.12019 0.61352 0.86800
C 	C 	0.01930 0.61580 0.08461 0.30900
C 	C 	0.96830 0.60700 0.04984 -0.02900
C 	C 	0.98360 0.59720 0.00988 -0.07000
H 	H 	0.03150 0.59610 0.99720 0.07500
C 	C 	0.91080 0.58970 0.99404 -0.00100
C 	C 	0.87940 0.58030 0.95330 0.29100
N 	N 	0.89220 0.60580 0.05665 -0.18400
N 	N 	0.85540 0.59550 0.02237 -0.19400
O 	O 	0.98420 0.62060 0.11739 -0.43500
O 	O 	0.09080 0.61470 0.08175 -0.39400
O 	O 	0.80660 0.57980 0.95104 -0.41300
O 	O 	0.92530 0.57080 0.92506 -0.25300
Cu	Cu	0.86986 0.62019 0.11352 0.87300
C 	C 	0.98070 0.88420 0.08461 0.31000
C 	C 	0.03170 0.89300 0.04984 -0.01800
C 	C 	0.01640 0.90280 0.00988 -0.07000
H 	H 	0.96850 0.90390 0.99720 0.08800
C 	C 	0.08920 0.91030 0.99404 0.01100
C 	C 	0.12060 0.91970 0.95330 0.29100
N 	N 	0.10780 0.89420 0.05665 -0.18100
N 	N 	0.14460 0.90450 0.02237 -0.19200
O 	O 	0.01580 0.87940 0.11739 -0.42600
O 	O 	0.90920 0.88530 0.08175 -0.37800
O 	O 	0.19340 0.92020 0.95104 -0.40200
O 	O 	0.07470 0.92920 0.92506 -0.23200
Cu	Cu	0.13014 0.87981 0.11352 0.87800
C 	C 	0.48070 0.38420 0.58461 0.32000
C 	C 	0.53170 0.39300 0.54984 -0.05300
C 	C 	0.51640 0.40280 0.50988 0.00800
H 	H 	0.46850 0.40390 0.49720 0.03500
C 	C 	0.58920 0.41030 0.49404 -0.05700
C 	C 	0.62060 0.41970 0.45330 0.30700
N 	N 	0.60780 0.39420 0.55665 -0.18000
N 	N 	0.64460 0.40450 0.52237 -0.18100
O 	O 	0.51580 0.37940 0.61739 -0.43700
O 	O 	0.40920 0.38530 0.58175 -0.39500
O 	O 	0.69340 0.42020 0.45104 -0.42500
O 	O 	0.57470 0.42920 0.42506 -0.26100
Cu	Cu	0.63014 0.37981 0.61352 0.87300
C 	C 	0.63420 0.73070 0.83461 0.32000
C 	C 	0.64300 0.78170 0.79984 -0.05000
C 	C 	0.65280 0.76640 0.75988 0.00700
H 	H 	0.65390 0.71850 0.74720 0.03700
C 	C 	0.66030 0.83920 0.74404 -0.04800
C 	C 	0.66970 0.87060 0.70330 0.30500
N 	N 	0.64420 0.85780 0.80665 -0.17300
N 	N 	0.65450 0.89460 0.77237 -0.16400
O 	O 	0.62940 0.76580 0.86739 -0.43400
O 	O 	0.63530 0.65920 0.83175 -0.39500
O 	O 	0.67020 0.94340 0.70104 -0.39100
O 	O 	0.67920 0.82470 0.67506 -0.25300
Cu	Cu	0.62981 0.88014 0.86352 0.88400
C 	C 	0.13420 0.23070 0.33461 0.32200
C 	C 	0.14300 0.28170 0.29984 -0.05600
C 	C 	0.15280 0.26640 0.25988 0.01100
H 	H 	0.15390 0.21850 0.24720 0.03000
C 	C 	0.16030 0.33920 0.24404 -0.05800
C 	C 	0.16970 0.37060 0.20330 0.30900
N 	N 	0.14420 0.35780 0.30665 -0.17900
N 	N 	0.15450 0.39460 0.27237 -0.18000
O 	O 	0.12940 0.26580 0.36739 -0.43800
O 	O 	0.13530 0.15920 0.33175 -0.40400
O 	O 	0.17020 0.44340 0.20104 -0.42400
O 	O 	0.17920 0.32470 0.17506 -0.26400
Cu	Cu	0.12981 0.38014 0.36352 0.87300
C 	C 	0.86580 0.26930 0.33461 0.31900
C 	C 	0.85700 0.21830 0.29984 -0.05500
C 	C 	0.84720 0.23360 0.25988 0.00900
H 	H 	0.84610 0.28150 0.24720 0.03500
C 	C 	0.83970 0.16080 0.24404 -0.06100
C 	C 	0.83030 0.12940 0.20330 0.31000
N 	N 	0.85580 0.14220 0.30665 -0.18600
N 	N 	0.84550 0.10540 0.27237 -0.18800
O 	O 	0.87060 0.23420 0.36739 -0.44000
O 	O 	0.86470 0.34080 0.33175 -0.39600
O 	O 	0.82980 0.05660 0.20104 -0.44500
O 	O 	0.82080 0.17530 0.17506 -0.26600
Cu	Cu	0.87019 0.11986 0.36352 0.86400
C 	C 	0.36580 0.76930 0.83461 0.31700
C 	C 	0.35700 0.71830 0.79984 -0.04900
C 	C 	0.34720 0.73360 0.75988 0.00600
H 	H 	0.34610 0.78150 0.74720 0.04200
C 	C 	0.33970 0.66080 0.74404 -0.05300
C 	C 	0.33030 0.62940 0.70330 0.30700
N 	N 	0.35580 0.64220 0.80665 -0.18000
N 	N 	0.34550 0.60540 0.77237 -0.18000
O 	O 	0.37060 0.73420 0.86739 -0.43500
O 	O 	0.36470 0.84080 0.83175 -0.38600
O 	O 	0.32980 0.55660 0.70104 -0.42300
O 	O 	0.32080 0.67530 0.67506 -0.25600
Cu	Cu	0.37019 0.61986 0.86352 0.87400
C 	C 	0.86580 0.73070 0.16539 0.32000
C 	C 	0.85700 0.78170 0.20016 -0.05100
C 	C 	0.84720 0.76640 0.24012 0.00700
H 	H 	0.84610 0.71850 0.25280 0.03700
C 	C 	0.83970 0.83920 0.25596 -0.04800
C 	C 	0.83030 0.87060 0.29670 0.30500
N 	N 	0.85580 0.85780 0.19335 -0.17300
N 	N 	0.84550 0.89460 0.22763 -0.16500
O 	O 	0.87060 0.76580 0.13261 -0.43500
O 	O 	0.86470 0.65920 0.16825 -0.39500
O 	O 	0.82980 0.94340 0.29896 -0.39100
O 	O 	0.82080 0.82470 0.32494 -0.25300
Cu	Cu	0.87019 0.88014 0.13648 0.88300
C 	C 	0.36580 0.23070 0.66539 0.32200
C 	C 	0.35700 0.28170 0.70016 -0.05600
C 	C 	0.34720 0.26640 0.74012 0.01100
H 	H 	0.34610 0.21850 0.75280 0.03000
C 	C 	0.33970 0.33920 0.75596 -0.05800
C 	C 	0.33030 0.37060 0.79670 0.30900
N 	N 	0.35580 0.35780 0.69335 -0.17900
N 	N 	0.34550 0.39460 0.72763 -0.18000
O 	O 	0.37060 0.26580 0.63261 -0.43800
O 	O 	0.36470 0.15920 0.66825 -0.40400
O 	O 	0.32980 0.44340 0.79896 -0.42400
O 	O 	0.32080 0.32470 0.82494 -0.26300
Cu	Cu	0.37019 0.38014 0.63648 0.87300
C 	C 	0.63420 0.26930 0.66539 0.31900
C 	C 	0.64300 0.21830 0.70016 -0.05500
C 	C 	0.65280 0.23360 0.74012 0.00900
H 	H 	0.65390 0.28150 0.75280 0.03500
C 	C 	0.66030 0.16080 0.75596 -0.06100
C 	C 	0.66970 0.12940 0.79670 0.31000
N 	N 	0.64420 0.14220 0.69335 -0.18600
N 	N 	0.65450 0.10540 0.72763 -0.18800
O 	O 	0.62940 0.23420 0.63261 -0.44000
O 	O 	0.63530 0.34080 0.66825 -0.39600
O 	O 	0.67020 0.05660 0.79896 -0.44500
O 	O 	0.67920 0.17530 0.82494 -0.26500
Cu	Cu	0.62981 0.11986 0.63648 0.86400
C 	C 	0.13420 0.76930 0.16539 0.31700
C 	C 	0.14300 0.71830 0.20016 -0.04900
C 	C 	0.15280 0.73360 0.24012 0.00600
H 	H 	0.15390 0.78150 0.25280 0.04200
C 	C 	0.16030 0.66080 0.25596 -0.05300
C 	C 	0.16970 0.62940 0.29670 0.30700
N 	N 	0.14420 0.64220 0.19335 -0.18000
N 	N 	0.15450 0.60540 0.22763 -0.18000
O 	O 	0.12940 0.73420 0.13261 -0.43700
O 	O 	0.13530 0.84080 0.16825 -0.38600
O 	O 	0.17020 0.55660 0.29896 -0.42300
O 	O 	0.17920 0.67530 0.32494 -0.25600
Cu	Cu	0.12981 0.61986 0.13648 0.87300
Cu	Cu	0.25000 0.09815 0.50000 0.87500
Cu	Cu	0.75000 0.59815 -0.00000 0.87300
Cu	Cu	0.25000 0.90185 -0.00000 0.87600
Cu	Cu	0.75000 0.40185 0.50000 0.87800
Cu	Cu	0.65185 -0.00000 0.75000 0.85200
Cu	Cu	0.15185 0.50000 0.25000 0.87900
Cu	Cu	0.84815 -0.00000 0.25000 0.85300
Cu	Cu	0.34815 0.50000 0.75000 0.87900
