data_crystal

_cell_length_a 19.75000
_cell_length_b 22.19470
_cell_length_c 11.63340
_cell_angle_alpha 90.00000
_cell_angle_beta  116.79700
_cell_angle_gamma 90.00000

_symmetry_space_group_name_	'P 1'
_symmetry_space_group_name_H-M	'P 1'

loop_
_symmetry_equiv_pos_as_xyz
  x,y,z

loop_
_atom_site_label
_atom_site_type_symbol
_atom_site_fract_x
_atom_site_fract_y
_atom_site_fract_z
_atom_site_charge
Ni	Ni	0.18730 0.12067 0.88351 1.10200
O 	O 	0.18829 0.12079 0.69900 -0.35100
O 	O 	0.26629 0.17700 0.86020 -0.36300
O 	O 	0.26418 0.05031 0.93500 -0.33600
O 	O 	0.11417 0.05005 0.85970 -0.35100
N 	N 	0.21753 0.13819 0.07280 -0.24200
N 	N 	0.35910 0.20858 0.52770 -0.12100
N 	N 	0.59612 0.32094 0.81190 -0.23300
C 	C 	0.17220 0.12900 0.12820 0.08800
H 	H 	0.12390 0.11370 0.07830 -0.00300
C 	C 	0.19400 0.14120 0.25670 -0.14300
H 	H 	0.16060 0.13430 0.29140 0.08500
C 	C 	0.26660 0.16410 0.33430 0.07700
C 	C 	0.31240 0.17430 0.27490 -0.13900
H 	H 	0.36070 0.19040 0.32140 0.09400
C 	C 	0.28610 0.16040 0.14610 0.09000
H 	H 	0.31820 0.16700 0.10850 0.00000
C 	C 	0.29380 0.17800 0.47250 0.05700
C 	C 	0.25450 0.15960 0.54080 -0.07800
H 	H 	0.20930 0.13820 0.50020 0.07300
C 	C 	0.28430 0.17410 0.67020 -0.00400
C 	C 	0.35250 0.20470 0.72840 -0.08000
H 	H 	0.37390 0.21420 0.81550 0.07300
C 	C 	0.38890 0.22110 0.65410 0.05400
C 	C 	0.46120 0.25430 0.70950 0.06900
C 	C 	0.51970 0.24170 0.83040 -0.14100
H 	H 	0.51440 0.21080 0.88000 0.08400
C 	C 	0.58540 0.27500 0.87650 0.08200
H 	H 	0.62440 0.26510 0.95670 0.00100
C 	C 	0.53960 0.33330 0.69410 0.07800
H 	H 	0.54600 0.36490 0.64750 0.00800
C 	C 	0.47260 0.30100 0.63950 -0.13500
H 	H 	0.43550 0.31030 0.55710 0.09200
C 	C 	0.24360 0.15593 0.74770 0.27400
Ni	Ni	0.68730 0.62067 0.88351 1.10100
O 	O 	0.68829 0.62079 0.69900 -0.35000
O 	O 	0.76629 0.67700 0.86020 -0.36300
O 	O 	0.76418 0.55031 0.93500 -0.33700
O 	O 	0.61417 0.55005 0.85970 -0.35200
N 	N 	0.71753 0.63819 0.07280 -0.24100
N 	N 	0.85910 0.70858 0.52770 -0.12100
N 	N 	0.09612 0.82094 0.81190 -0.23300
C 	C 	0.67220 0.62900 0.12820 0.08900
H 	H 	0.62390 0.61370 0.07830 -0.00100
C 	C 	0.69400 0.64120 0.25670 -0.14200
H 	H 	0.66060 0.63430 0.29140 0.08700
C 	C 	0.76660 0.66410 0.33430 0.07800
C 	C 	0.81240 0.67430 0.27490 -0.13800
H 	H 	0.86070 0.69040 0.32140 0.09500
C 	C 	0.78610 0.66040 0.14610 0.09100
H 	H 	0.81820 0.66700 0.10850 0.00100
C 	C 	0.79380 0.67800 0.47250 0.05800
C 	C 	0.75450 0.65960 0.54080 -0.07800
H 	H 	0.70930 0.63820 0.50020 0.07400
C 	C 	0.78430 0.67410 0.67020 -0.00200
C 	C 	0.85250 0.70470 0.72840 -0.08000
H 	H 	0.87390 0.71420 0.81550 0.07400
C 	C 	0.88890 0.72110 0.65410 0.05500
C 	C 	0.96120 0.75430 0.70950 0.07000
C 	C 	0.01970 0.74170 0.83040 -0.14100
H 	H 	0.01440 0.71080 0.88000 0.08500
C 	C 	0.08540 0.77500 0.87650 0.08300
H 	H 	0.12440 0.76510 0.95670 0.00000
C 	C 	0.03960 0.83330 0.69410 0.07800
H 	H 	0.04600 0.86490 0.64750 0.01000
C 	C 	0.97260 0.80100 0.63950 -0.13400
H 	H 	0.93550 0.81030 0.55710 0.09200
C 	C 	0.74360 0.65593 0.74770 0.27400
Ni	Ni	0.18730 0.87933 0.88351 1.10100
O 	O 	0.18829 0.87921 0.69900 -0.34600
O 	O 	0.26629 0.82300 0.86020 -0.36200
O 	O 	0.26418 0.94969 0.93500 -0.31500
O 	O 	0.11417 0.94995 0.85970 -0.33100
N 	N 	0.21753 0.86181 0.07280 -0.24100
N 	N 	0.35910 0.79142 0.52770 -0.12000
N 	N 	0.59612 0.67906 0.81190 -0.23300
C 	C 	0.17220 0.87100 0.12820 0.09100
H 	H 	0.12390 0.88630 0.07830 0.00100
C 	C 	0.19400 0.85880 0.25670 -0.14000
H 	H 	0.16060 0.86570 0.29140 0.08900
C 	C 	0.26660 0.83590 0.33430 0.07900
C 	C 	0.31240 0.82570 0.27490 -0.13800
H 	H 	0.36070 0.80960 0.32140 0.09600
C 	C 	0.28610 0.83960 0.14610 0.09200
H 	H 	0.31820 0.83300 0.10850 0.00100
C 	C 	0.29380 0.82200 0.47250 0.06000
C 	C 	0.25450 0.84040 0.54080 -0.07800
H 	H 	0.20930 0.86180 0.50020 0.07700
C 	C 	0.28430 0.82590 0.67020 -0.00000
C 	C 	0.35250 0.79530 0.72840 -0.08000
H 	H 	0.37390 0.78580 0.81550 0.07500
C 	C 	0.38890 0.77890 0.65410 0.05600
C 	C 	0.46120 0.74570 0.70950 0.07000
C 	C 	0.51970 0.75830 0.83040 -0.14100
H 	H 	0.51440 0.78920 0.88000 0.08600
C 	C 	0.58540 0.72500 0.87650 0.08300
H 	H 	0.62440 0.73490 0.95670 0.00100
C 	C 	0.53960 0.66670 0.69410 0.07900
H 	H 	0.54600 0.63510 0.64750 0.00800
C 	C 	0.47260 0.69900 0.63950 -0.13500
H 	H 	0.43550 0.68970 0.55710 0.09200
C 	C 	0.24360 0.84407 0.74770 0.27400
Ni	Ni	0.68730 0.37933 0.88351 1.10100
O 	O 	0.68829 0.37921 0.69900 -0.35000
O 	O 	0.76629 0.32300 0.86020 -0.36200
O 	O 	0.76418 0.44969 0.93500 -0.33700
O 	O 	0.61417 0.44995 0.85970 -0.35200
N 	N 	0.71753 0.36181 0.07280 -0.24100
N 	N 	0.85910 0.29142 0.52770 -0.12100
N 	N 	0.09612 0.17906 0.81190 -0.23400
C 	C 	0.67220 0.37100 0.12820 0.08900
H 	H 	0.62390 0.38630 0.07830 -0.00100
C 	C 	0.69400 0.35880 0.25670 -0.14200
H 	H 	0.66060 0.36570 0.29140 0.08700
C 	C 	0.76660 0.33590 0.33430 0.07800
C 	C 	0.81240 0.32570 0.27490 -0.13800
H 	H 	0.86070 0.30960 0.32140 0.09500
C 	C 	0.78610 0.33960 0.14610 0.09100
H 	H 	0.81820 0.33300 0.10850 0.00100
C 	C 	0.79380 0.32200 0.47250 0.05800
C 	C 	0.75450 0.34040 0.54080 -0.07800
H 	H 	0.70930 0.36180 0.50020 0.07500
C 	C 	0.78430 0.32590 0.67020 -0.00200
C 	C 	0.85250 0.29530 0.72840 -0.08000
H 	H 	0.87390 0.28580 0.81550 0.07400
C 	C 	0.88890 0.27890 0.65410 0.05500
C 	C 	0.96120 0.24570 0.70950 0.07000
C 	C 	0.01970 0.25830 0.83040 -0.14200
H 	H 	0.01440 0.28920 0.88000 0.08500
C 	C 	0.08540 0.22500 0.87650 0.08300
H 	H 	0.12440 0.23490 0.95670 0.00100
C 	C 	0.03960 0.16670 0.69410 0.07800
H 	H 	0.04600 0.13510 0.64750 0.00600
C 	C 	0.97260 0.19900 0.63950 -0.13600
H 	H 	0.93550 0.18970 0.55710 0.09100
C 	C 	0.74360 0.34407 0.74770 0.27400
C 	C 	0.14610 -0.00000 0.87580 0.19700
C 	C 	0.23320 0.00000 0.91950 0.19400
C 	C 	0.64610 0.50000 0.87580 0.22100
C 	C 	0.73320 0.50000 0.91950 0.21900
Ni	Ni	0.81270 0.12067 0.11649 1.10100
O 	O 	0.81171 0.12079 0.30100 -0.35200
O 	O 	0.73371 0.17700 0.13980 -0.36300
O 	O 	0.73582 0.05031 0.06500 -0.33600
O 	O 	0.88583 0.05005 0.14030 -0.35100
N 	N 	0.78247 0.13819 0.92720 -0.24200
N 	N 	0.64090 0.20858 0.47230 -0.12100
N 	N 	0.40388 0.32094 0.18810 -0.23300
C 	C 	0.82780 0.12900 0.87180 0.08800
H 	H 	0.87610 0.11370 0.92170 -0.00300
C 	C 	0.80600 0.14120 0.74330 -0.14300
H 	H 	0.83940 0.13430 0.70860 0.08500
C 	C 	0.73340 0.16410 0.66570 0.07700
C 	C 	0.68760 0.17430 0.72510 -0.13900
H 	H 	0.63930 0.19040 0.67860 0.09400
C 	C 	0.71390 0.16040 0.85390 0.09000
H 	H 	0.68180 0.16700 0.89150 0.00000
C 	C 	0.70620 0.17800 0.52750 0.05700
C 	C 	0.74550 0.15960 0.45920 -0.07800
H 	H 	0.79070 0.13820 0.49980 0.07300
C 	C 	0.71570 0.17410 0.32980 -0.00400
C 	C 	0.64750 0.20470 0.27160 -0.08000
H 	H 	0.62610 0.21420 0.18450 0.07300
C 	C 	0.61110 0.22110 0.34590 0.05400
C 	C 	0.53880 0.25430 0.29050 0.06900
C 	C 	0.48030 0.24170 0.16960 -0.14100
H 	H 	0.48560 0.21080 0.12000 0.08400
C 	C 	0.41460 0.27500 0.12350 0.08200
H 	H 	0.37560 0.26510 0.04330 0.00100
C 	C 	0.46040 0.33330 0.30590 0.07800
H 	H 	0.45400 0.36490 0.35250 0.00800
C 	C 	0.52740 0.30100 0.36050 -0.13500
H 	H 	0.56450 0.31030 0.44290 0.09200
C 	C 	0.75640 0.15593 0.25230 0.27400
Ni	Ni	0.31270 0.62067 0.11649 1.10100
O 	O 	0.31171 0.62079 0.30100 -0.35000
O 	O 	0.23371 0.67700 0.13980 -0.36300
O 	O 	0.23582 0.55031 0.06500 -0.33700
O 	O 	0.38583 0.55005 0.14030 -0.35200
N 	N 	0.28247 0.63819 0.92720 -0.24100
N 	N 	0.14090 0.70858 0.47230 -0.12100
N 	N 	0.90388 0.82094 0.18810 -0.23300
C 	C 	0.32780 0.62900 0.87180 0.08900
H 	H 	0.37610 0.61370 0.92170 -0.00100
C 	C 	0.30600 0.64120 0.74330 -0.14200
H 	H 	0.33940 0.63430 0.70860 0.08700
C 	C 	0.23340 0.66410 0.66570 0.07800
C 	C 	0.18760 0.67430 0.72510 -0.13800
H 	H 	0.13930 0.69040 0.67860 0.09500
C 	C 	0.21390 0.66040 0.85390 0.09100
H 	H 	0.18180 0.66700 0.89150 0.00100
C 	C 	0.20620 0.67800 0.52750 0.05800
C 	C 	0.24550 0.65960 0.45920 -0.07800
H 	H 	0.29070 0.63820 0.49980 0.07400
C 	C 	0.21570 0.67410 0.32980 -0.00200
C 	C 	0.14750 0.70470 0.27160 -0.08000
H 	H 	0.12610 0.71420 0.18450 0.07400
C 	C 	0.11110 0.72110 0.34590 0.05500
C 	C 	0.03880 0.75430 0.29050 0.07000
C 	C 	0.98030 0.74170 0.16960 -0.14100
H 	H 	0.98560 0.71080 0.12000 0.08500
C 	C 	0.91460 0.77500 0.12350 0.08300
H 	H 	0.87560 0.76510 0.04330 0.00000
C 	C 	0.96040 0.83330 0.30590 0.07800
H 	H 	0.95400 0.86490 0.35250 0.01000
C 	C 	0.02740 0.80100 0.36050 -0.13400
H 	H 	0.06450 0.81030 0.44290 0.09200
C 	C 	0.25640 0.65593 0.25230 0.27400
Ni	Ni	0.81270 0.87933 0.11649 1.10100
O 	O 	0.81171 0.87921 0.30100 -0.34600
O 	O 	0.73371 0.82300 0.13980 -0.36200
O 	O 	0.73582 0.94969 0.06500 -0.31500
O 	O 	0.88583 0.94995 0.14030 -0.33100
N 	N 	0.78247 0.86181 0.92720 -0.24100
N 	N 	0.64090 0.79142 0.47230 -0.12000
N 	N 	0.40388 0.67906 0.18810 -0.23300
C 	C 	0.82780 0.87100 0.87180 0.09100
H 	H 	0.87610 0.88630 0.92170 0.00100
C 	C 	0.80600 0.85880 0.74330 -0.14000
H 	H 	0.83940 0.86570 0.70860 0.08900
C 	C 	0.73340 0.83590 0.66570 0.07900
C 	C 	0.68760 0.82570 0.72510 -0.13800
H 	H 	0.63930 0.80960 0.67860 0.09600
C 	C 	0.71390 0.83960 0.85390 0.09200
H 	H 	0.68180 0.83300 0.89150 0.00100
C 	C 	0.70620 0.82200 0.52750 0.06000
C 	C 	0.74550 0.84040 0.45920 -0.07800
H 	H 	0.79070 0.86180 0.49980 0.07700
C 	C 	0.71570 0.82590 0.32980 -0.00000
C 	C 	0.64750 0.79530 0.27160 -0.08000
H 	H 	0.62610 0.78580 0.18450 0.07500
C 	C 	0.61110 0.77890 0.34590 0.05600
C 	C 	0.53880 0.74570 0.29050 0.07000
C 	C 	0.48030 0.75830 0.16960 -0.14100
H 	H 	0.48560 0.78920 0.12000 0.08600
C 	C 	0.41460 0.72500 0.12350 0.08300
H 	H 	0.37560 0.73490 0.04330 0.00100
C 	C 	0.46040 0.66670 0.30590 0.07900
H 	H 	0.45400 0.63510 0.35250 0.00800
C 	C 	0.52740 0.69900 0.36050 -0.13500
H 	H 	0.56450 0.68970 0.44290 0.09200
C 	C 	0.75640 0.84407 0.25230 0.27400
Ni	Ni	0.31270 0.37933 0.11649 1.10100
O 	O 	0.31171 0.37921 0.30100 -0.35000
O 	O 	0.23371 0.32300 0.13980 -0.36200
O 	O 	0.23582 0.44969 0.06500 -0.33700
O 	O 	0.38583 0.44995 0.14030 -0.35200
N 	N 	0.28247 0.36181 0.92720 -0.24100
N 	N 	0.14090 0.29142 0.47230 -0.12100
N 	N 	0.90388 0.17906 0.18810 -0.23400
C 	C 	0.32780 0.37100 0.87180 0.08900
H 	H 	0.37610 0.38630 0.92170 -0.00100
C 	C 	0.30600 0.35880 0.74330 -0.14200
H 	H 	0.33940 0.36570 0.70860 0.08700
C 	C 	0.23340 0.33590 0.66570 0.07800
C 	C 	0.18760 0.32570 0.72510 -0.13800
H 	H 	0.13930 0.30960 0.67860 0.09500
C 	C 	0.21390 0.33960 0.85390 0.09100
H 	H 	0.18180 0.33300 0.89150 0.00100
C 	C 	0.20620 0.32200 0.52750 0.05800
C 	C 	0.24550 0.34040 0.45920 -0.07800
H 	H 	0.29070 0.36180 0.49980 0.07500
C 	C 	0.21570 0.32590 0.32980 -0.00200
C 	C 	0.14750 0.29530 0.27160 -0.08000
H 	H 	0.12610 0.28580 0.18450 0.07400
C 	C 	0.11110 0.27890 0.34590 0.05500
C 	C 	0.03880 0.24570 0.29050 0.07000
C 	C 	0.98030 0.25830 0.16960 -0.14200
H 	H 	0.98560 0.28920 0.12000 0.08500
C 	C 	0.91460 0.22500 0.12350 0.08300
H 	H 	0.87560 0.23490 0.04330 0.00100
C 	C 	0.96040 0.16670 0.30590 0.07800
H 	H 	0.95400 0.13510 0.35250 0.00600
C 	C 	0.02740 0.19900 0.36050 -0.13600
H 	H 	0.06450 0.18970 0.44290 0.09100
C 	C 	0.25640 0.34407 0.25230 0.27400
C 	C 	0.85390 0.00000 0.12420 0.19700
C 	C 	0.76680 0.00000 0.08050 0.19400
C 	C 	0.35390 0.50000 0.12420 0.22100
C 	C 	0.26680 0.50000 0.08050 0.21900
