data_crystal

_cell_length_a 15.18340
_cell_length_b 15.18340
_cell_length_c 26.52820
_cell_angle_alpha 90.00000
_cell_angle_beta  90.00000
_cell_angle_gamma 120.00000

_symmetry_space_group_name_	'P 1'
_symmetry_space_group_name_H-M	'P 1'

loop_
_symmetry_equiv_pos_as_xyz
  x,y,z

loop_
_atom_site_label
_atom_site_type_symbol
_atom_site_fract_x
_atom_site_fract_y
_atom_site_fract_z
_atom_site_charge
O 	O 	0.57150 0.43890 0.02310 -0.41200
C 	C 	0.48300 0.36410 0.00900 0.46400
C 	C 	0.22870 0.80000 0.83520 -0.16900
O 	O 	0.45870 0.09800 0.85600 -0.29000
O 	O 	0.41480 0.35740 0.03110 -0.47400
O 	O 	0.11490 0.66730 0.78060 -0.49100
C 	C 	0.38120 0.00030 0.85160 0.13900
C 	C 	0.25880 0.83580 0.88280 0.09200
H 	H 	0.22790 0.79250 0.91000 0.00900
C 	C 	0.37430 0.14670 0.91840 -0.35400
H 	H 	0.31050 0.09390 0.90910 0.14800
C 	C 	0.45950 0.15880 0.89480 0.33900
C 	C 	0.47590 0.29450 0.96910 -0.28000
C 	C 	0.38320 0.21310 0.95600 0.22900
H 	H 	0.32520 0.20270 0.97300 -0.03900
C 	C 	0.56020 0.30770 0.94440 0.21300
H 	H 	0.62360 0.36200 0.95300 -0.01800
O 	O 	0.10620 0.63500 0.86280 -0.54700
C 	C 	0.14320 0.69320 0.82500 0.48100
C 	C 	0.33500 0.93620 0.89170 -0.15100
H 	H 	0.35430 0.95940 0.92450 0.10300
C 	C 	0.27990 0.86390 0.79550 0.05000
H 	H 	0.26330 0.83930 0.76270 0.04400
C 	C 	0.55280 0.24010 0.90590 -0.32000
H 	H 	0.61040 0.25080 0.88840 0.16000
C 	C 	0.35440 0.96260 0.80310 -0.05100
H 	H 	0.38710 0.00450 0.77560 0.04500
O 	O 	0.56110 0.13260 0.35643 -0.41400
C 	C 	0.63590 0.11890 0.34233 0.47700
C 	C 	0.20000 0.42870 0.16853 -0.45700
O 	O 	0.90200 0.36070 0.18933 -0.40900
O 	O 	0.64260 0.05740 0.36443 -0.48100
O 	O 	0.33270 0.44760 0.11393 -0.52400
C 	C 	0.99970 0.38090 0.18493 0.63000
C 	C 	0.16420 0.42300 0.21613 0.43200
H 	H 	0.20750 0.43540 0.24333 -0.11000
C 	C 	0.85330 0.22760 0.25173 -0.41900
H 	H 	0.90610 0.21660 0.24243 0.18800
C 	C 	0.84120 0.30070 0.22813 0.42300
C 	C 	0.70550 0.18140 0.30243 -0.31600
C 	C 	0.78690 0.17010 0.28933 0.28500
H 	H 	0.79730 0.12250 0.30633 -0.05300
C 	C 	0.69230 0.25250 0.27773 0.25700
H 	H 	0.63800 0.26160 0.28633 -0.03400
O 	O 	0.36500 0.47120 0.19613 -0.58100
C 	C 	0.30680 0.45000 0.15833 0.59000
C 	C 	0.06380 0.39880 0.22503 -0.60400
H 	H 	0.04060 0.39490 0.25783 0.23100
C 	C 	0.13610 0.41600 0.12883 0.47300
H 	H 	0.16070 0.42400 0.09603 -0.11300
C 	C 	0.75990 0.31270 0.23923 -0.37500
H 	H 	0.74920 0.35960 0.22173 0.18300
C 	C 	0.03740 0.39180 0.13643 -0.67500
H 	H 	0.99550 0.38260 0.10893 0.31300
O 	O 	0.86740 0.42850 0.68977 -0.38900
C 	C 	0.88110 0.51700 0.67567 0.45800
C 	C 	0.57130 0.77130 0.50187 -0.30000
O 	O 	0.63930 0.54130 0.52267 -0.34700
O 	O 	0.94260 0.58520 0.69777 -0.44000
O 	O 	0.55240 0.88510 0.44727 -0.47700
C 	C 	0.61910 0.61880 0.51827 0.38500
C 	C 	0.57700 0.74120 0.54947 0.26000
H 	H 	0.56460 0.77210 0.57667 -0.04500
C 	C 	0.77240 0.62570 0.58507 -0.37600
H 	H 	0.78340 0.68950 0.57577 0.17600
C 	C 	0.69930 0.54050 0.56147 0.37800
C 	C 	0.81860 0.52410 0.63577 -0.28400
C 	C 	0.82990 0.61680 0.62267 0.24600
H 	H 	0.87750 0.67480 0.63967 -0.02800
C 	C 	0.74750 0.43980 0.61107 0.22700
H 	H 	0.73840 0.37640 0.61967 -0.02300
O 	O 	0.52880 0.89380 0.52947 -0.53600
C 	C 	0.55000 0.85680 0.49167 0.52900
C 	C 	0.60120 0.66500 0.55837 -0.37200
H 	H 	0.60510 0.64570 0.59117 0.16700
C 	C 	0.58400 0.72010 0.46217 0.25900
H 	H 	0.57600 0.73670 0.42937 -0.02900
C 	C 	0.68730 0.44720 0.57257 -0.34000
H 	H 	0.64040 0.38960 0.55507 0.17000
C 	C 	0.60820 0.64560 0.46977 -0.35800
H 	H 	0.61740 0.61290 0.44227 0.18000
O 	O 	0.42850 0.56110 0.02310 -0.41400
C 	C 	0.51700 0.63590 0.00900 0.47600
C 	C 	0.77130 0.20000 0.83520 -0.44500
O 	O 	0.54130 0.90200 0.85600 -0.40800
O 	O 	0.58520 0.64260 0.03110 -0.47400
O 	O 	0.88510 0.33270 0.78060 -0.49100
C 	C 	0.61880 0.99970 0.85160 0.63100
C 	C 	0.74120 0.16420 0.88280 0.42800
H 	H 	0.77210 0.20750 0.91000 -0.10500
C 	C 	0.62570 0.85330 0.91840 -0.41500
H 	H 	0.68950 0.90610 0.90910 0.19400
C 	C 	0.54050 0.84120 0.89480 0.42200
C 	C 	0.52410 0.70550 0.96910 -0.31100
C 	C 	0.61680 0.78690 0.95600 0.28000
H 	H 	0.67480 0.79730 0.97300 -0.04200
C 	C 	0.43980 0.69230 0.94440 0.25500
H 	H 	0.37640 0.63800 0.95300 -0.03300
O 	O 	0.89380 0.36500 0.86280 -0.54700
C 	C 	0.85680 0.30680 0.82500 0.57800
C 	C 	0.66500 0.06380 0.89170 -0.60000
H 	H 	0.64570 0.04060 0.92450 0.23100
C 	C 	0.72010 0.13610 0.79550 0.47000
H 	H 	0.73670 0.16070 0.76270 -0.10800
C 	C 	0.44720 0.75990 0.90590 -0.37200
H 	H 	0.38960 0.74920 0.88840 0.18300
C 	C 	0.64560 0.03740 0.80310 -0.67300
H 	H 	0.61290 0.99550 0.77560 0.31500
O 	O 	0.43890 0.86740 0.35643 -0.38800
C 	C 	0.36410 0.88110 0.34233 0.45400
C 	C 	0.80000 0.57130 0.16853 -0.17300
O 	O 	0.09800 0.63930 0.18933 -0.29000
O 	O 	0.35740 0.94260 0.36443 -0.44100
O 	O 	0.66730 0.55240 0.11393 -0.49300
C 	C 	0.00030 0.61910 0.18493 0.15000
C 	C 	0.83580 0.57700 0.21613 0.10300
H 	H 	0.79250 0.56460 0.24333 0.00800
C 	C 	0.14670 0.77240 0.25173 -0.34700
H 	H 	0.09390 0.78340 0.24243 0.15400
C 	C 	0.15880 0.69930 0.22813 0.33800
C 	C 	0.29450 0.81860 0.30243 -0.26900
C 	C 	0.21310 0.82990 0.28933 0.22200
H 	H 	0.20270 0.87750 0.30633 -0.02700
C 	C 	0.30770 0.74750 0.27773 0.20700
H 	H 	0.36200 0.73840 0.28633 -0.01600
O 	O 	0.63500 0.52880 0.19613 -0.55600
C 	C 	0.69320 0.55000 0.15833 0.49400
C 	C 	0.93620 0.60120 0.22503 -0.15800
H 	H 	0.95940 0.60510 0.25783 0.10700
C 	C 	0.86390 0.58400 0.12883 0.06100
H 	H 	0.83930 0.57600 0.09603 0.04300
C 	C 	0.24010 0.68730 0.23923 -0.31500
H 	H 	0.25080 0.64040 0.22173 0.15900
C 	C 	0.96260 0.60820 0.13643 -0.06000
H 	H 	0.00450 0.61740 0.10893 0.05100
O 	O 	0.13260 0.57150 0.68977 -0.41200
C 	C 	0.11890 0.48300 0.67567 0.47200
C 	C 	0.42870 0.22870 0.50187 -0.31400
O 	O 	0.36070 0.45870 0.52267 -0.35000
O 	O 	0.05740 0.41480 0.69777 -0.48100
O 	O 	0.44760 0.11490 0.44727 -0.50600
C 	C 	0.38090 0.38120 0.51827 0.38600
C 	C 	0.42300 0.25880 0.54947 0.26200
H 	H 	0.43540 0.22790 0.57667 -0.05000
C 	C 	0.22760 0.37430 0.58507 -0.38900
H 	H 	0.21660 0.31050 0.57577 0.16600
C 	C 	0.30070 0.45950 0.56147 0.38200
C 	C 	0.18140 0.47590 0.63577 -0.30000
C 	C 	0.17010 0.38320 0.62267 0.26000
H 	H 	0.12250 0.32520 0.63967 -0.05200
C 	C 	0.25250 0.56020 0.61107 0.23700
H 	H 	0.26160 0.62360 0.61967 -0.02700
O 	O 	0.47120 0.10620 0.52947 -0.56100
C 	C 	0.45000 0.14320 0.49167 0.53100
C 	C 	0.39880 0.33500 0.55837 -0.38000
H 	H 	0.39490 0.35430 0.59117 0.16700
C 	C 	0.41600 0.27990 0.46217 0.26200
H 	H 	0.42400 0.26330 0.42937 -0.03700
C 	C 	0.31270 0.55280 0.57257 -0.34900
H 	H 	0.35960 0.61040 0.55507 0.17200
C 	C 	0.39180 0.35440 0.46977 -0.36800
H 	H 	0.38260 0.38710 0.44227 0.18000
O 	O 	0.43890 0.57150 0.31023 -0.41100
C 	C 	0.36410 0.48300 0.32433 0.46500
C 	C 	0.80000 0.22870 0.49813 -0.16400
O 	O 	0.09800 0.45870 0.47733 -0.28800
O 	O 	0.35740 0.41480 0.30223 -0.47300
O 	O 	0.66730 0.11490 0.55273 -0.49000
C 	C 	0.00030 0.38120 0.48173 0.13500
C 	C 	0.83580 0.25880 0.45053 0.08900
H 	H 	0.79250 0.22790 0.42333 0.01100
C 	C 	0.14670 0.37430 0.41493 -0.35300
H 	H 	0.09390 0.31050 0.42423 0.14900
C 	C 	0.15880 0.45950 0.43853 0.34000
C 	C 	0.29450 0.47590 0.36423 -0.27900
C 	C 	0.21310 0.38320 0.37733 0.22900
H 	H 	0.20270 0.32520 0.36033 -0.03900
C 	C 	0.30770 0.56020 0.38893 0.21300
H 	H 	0.36200 0.62360 0.38033 -0.01800
O 	O 	0.63500 0.10620 0.47053 -0.54700
C 	C 	0.69320 0.14320 0.50833 0.48100
C 	C 	0.93620 0.33500 0.44163 -0.14600
H 	H 	0.95940 0.35430 0.40883 0.10100
C 	C 	0.86390 0.27990 0.53783 0.04500
H 	H 	0.83930 0.26330 0.57063 0.04600
C 	C 	0.24010 0.55280 0.42743 -0.32000
H 	H 	0.25080 0.61040 0.44493 0.16000
C 	C 	0.96260 0.35440 0.53023 -0.04300
H 	H 	0.00450 0.38710 0.55773 0.04200
O 	O 	0.13260 0.56110 0.97690 -0.41400
C 	C 	0.11890 0.63590 0.99100 0.47500
C 	C 	0.42870 0.20000 0.16480 -0.46500
O 	O 	0.36070 0.90200 0.14400 -0.41200
O 	O 	0.05740 0.64260 0.96890 -0.48100
O 	O 	0.44760 0.33270 0.21940 -0.52500
C 	C 	0.38090 0.99970 0.14840 0.64300
C 	C 	0.42300 0.16420 0.11720 0.44100
H 	H 	0.43540 0.20750 0.09000 -0.11300
C 	C 	0.22760 0.85330 0.08160 -0.41900
H 	H 	0.21660 0.90610 0.09090 0.18800
C 	C 	0.30070 0.84120 0.10520 0.42300
C 	C 	0.18140 0.70550 0.03090 -0.31300
C 	C 	0.17010 0.78690 0.04400 0.28300
H 	H 	0.12250 0.79730 0.02700 -0.05100
C 	C 	0.25250 0.69230 0.05560 0.25600
H 	H 	0.26160 0.63800 0.04700 -0.03300
O 	O 	0.47120 0.36500 0.13720 -0.58200
C 	C 	0.45000 0.30680 0.17500 0.59300
C 	C 	0.39880 0.06380 0.10830 -0.61600
H 	H 	0.39490 0.04060 0.07550 0.23400
C 	C 	0.41600 0.13610 0.20450 0.48400
H 	H 	0.42400 0.16070 0.23730 -0.11700
C 	C 	0.31270 0.75990 0.09410 -0.37400
H 	H 	0.35960 0.74920 0.11160 0.18300
C 	C 	0.39180 0.03740 0.19690 -0.69200
H 	H 	0.38260 0.99550 0.22440 0.32000
O 	O 	0.42850 0.86740 0.64357 -0.39000
C 	C 	0.51700 0.88110 0.65767 0.45900
C 	C 	0.77130 0.57130 0.83147 -0.30000
O 	O 	0.54130 0.63930 0.81067 -0.34700
O 	O 	0.58520 0.94260 0.63557 -0.44100
O 	O 	0.88510 0.55240 0.88607 -0.47500
C 	C 	0.61880 0.61910 0.81507 0.38500
C 	C 	0.74120 0.57700 0.78387 0.26000
H 	H 	0.77210 0.56460 0.75667 -0.04500
C 	C 	0.62570 0.77240 0.74827 -0.37600
H 	H 	0.68950 0.78340 0.75757 0.17600
C 	C 	0.54050 0.69930 0.77187 0.37800
C 	C 	0.52410 0.81860 0.69757 -0.28400
C 	C 	0.61680 0.82990 0.71067 0.24600
H 	H 	0.67480 0.87750 0.69367 -0.02800
C 	C 	0.43980 0.74750 0.72227 0.22700
H 	H 	0.37640 0.73840 0.71367 -0.02300
O 	O 	0.89380 0.52880 0.80387 -0.53500
C 	C 	0.85680 0.55000 0.84167 0.52900
C 	C 	0.66500 0.60120 0.77497 -0.37200
H 	H 	0.64570 0.60510 0.74217 0.16700
C 	C 	0.72010 0.58400 0.87117 0.25900
H 	H 	0.73670 0.57600 0.90397 -0.02900
C 	C 	0.44720 0.68730 0.76077 -0.34100
H 	H 	0.38960 0.64040 0.77827 0.17000
C 	C 	0.64560 0.60820 0.86357 -0.35700
H 	H 	0.61290 0.61740 0.89107 0.18000
O 	O 	0.56110 0.42850 0.31023 -0.41400
C 	C 	0.63590 0.51700 0.32433 0.47600
C 	C 	0.20000 0.77130 0.49813 -0.44900
O 	O 	0.90200 0.54130 0.47733 -0.40900
O 	O 	0.64260 0.58520 0.30223 -0.47400
O 	O 	0.33270 0.88510 0.55273 -0.49300
C 	C 	0.99970 0.61880 0.48173 0.63700
C 	C 	0.16420 0.74120 0.45053 0.43300
H 	H 	0.20750 0.77210 0.42333 -0.10700
C 	C 	0.85330 0.62570 0.41493 -0.41600
H 	H 	0.90610 0.68950 0.42423 0.19400
C 	C 	0.84120 0.54050 0.43853 0.42300
C 	C 	0.70550 0.52410 0.36423 -0.31100
C 	C 	0.78690 0.61680 0.37733 0.28100
H 	H 	0.79730 0.67480 0.36033 -0.04200
C 	C 	0.69230 0.43980 0.38893 0.25600
H 	H 	0.63800 0.37640 0.38033 -0.03300
O 	O 	0.36500 0.89380 0.47053 -0.54900
C 	C 	0.30680 0.85680 0.50833 0.58000
C 	C 	0.06380 0.66500 0.44163 -0.60600
H 	H 	0.04060 0.64570 0.40883 0.23300
C 	C 	0.13610 0.72010 0.53783 0.47600
H 	H 	0.16070 0.73670 0.57063 -0.11100
C 	C 	0.75990 0.44720 0.42743 -0.37300
H 	H 	0.74920 0.38960 0.44493 0.18300
C 	C 	0.03740 0.64560 0.53023 -0.68100
H 	H 	0.99550 0.61290 0.55773 0.31800
O 	O 	0.86740 0.43890 0.97690 -0.38800
C 	C 	0.88110 0.36410 0.99100 0.45700
C 	C 	0.57130 0.80000 0.16480 -0.16600
O 	O 	0.63930 0.09800 0.14400 -0.28700
O 	O 	0.94260 0.35740 0.96890 -0.44000
O 	O 	0.55240 0.66730 0.21940 -0.49300
C 	C 	0.61910 0.00030 0.14840 0.13700
C 	C 	0.57700 0.83580 0.11720 0.09400
H 	H 	0.56460 0.79250 0.09000 0.01100
C 	C 	0.77240 0.14670 0.08160 -0.34800
H 	H 	0.78340 0.09390 0.09090 0.15400
C 	C 	0.69930 0.15880 0.10520 0.33800
C 	C 	0.81860 0.29450 0.03090 -0.27300
C 	C 	0.82990 0.21310 0.04400 0.22400
H 	H 	0.87750 0.20270 0.02700 -0.02900
C 	C 	0.74750 0.30770 0.05560 0.20900
H 	H 	0.73840 0.36200 0.04700 -0.01700
O 	O 	0.52880 0.63500 0.13720 -0.55500
C 	C 	0.55000 0.69320 0.17500 0.49100
C 	C 	0.60120 0.93620 0.10830 -0.14600
H 	H 	0.60510 0.95940 0.07550 0.10300
C 	C 	0.58400 0.86390 0.20450 0.05000
H 	H 	0.57600 0.83930 0.23730 0.04700
C 	C 	0.68730 0.24010 0.09410 -0.31700
H 	H 	0.64040 0.25080 0.11160 0.15900
C 	C 	0.60820 0.96260 0.19690 -0.04300
H 	H 	0.61740 0.00450 0.22440 0.04300
O 	O 	0.57150 0.13260 0.64357 -0.41200
C 	C 	0.48300 0.11890 0.65767 0.47200
C 	C 	0.22870 0.42870 0.83147 -0.31400
O 	O 	0.45870 0.36070 0.81067 -0.35000
O 	O 	0.41480 0.05740 0.63557 -0.48100
O 	O 	0.11490 0.44760 0.88607 -0.50600
C 	C 	0.38120 0.38090 0.81507 0.38600
C 	C 	0.25880 0.42300 0.78387 0.26200
H 	H 	0.22790 0.43540 0.75667 -0.05000
C 	C 	0.37430 0.22760 0.74827 -0.38900
H 	H 	0.31050 0.21660 0.75757 0.16600
C 	C 	0.45950 0.30070 0.77187 0.38200
C 	C 	0.47590 0.18140 0.69757 -0.30000
C 	C 	0.38320 0.17010 0.71067 0.25900
H 	H 	0.32520 0.12250 0.69367 -0.05100
C 	C 	0.56020 0.25250 0.72227 0.23700
H 	H 	0.62360 0.26160 0.71367 -0.02700
O 	O 	0.10620 0.47120 0.80387 -0.56000
C 	C 	0.14320 0.45000 0.84167 0.53100
C 	C 	0.33500 0.39880 0.77497 -0.38000
H 	H 	0.35430 0.39490 0.74217 0.16700
C 	C 	0.27990 0.41600 0.87117 0.26200
H 	H 	0.26330 0.42400 0.90397 -0.03700
C 	C 	0.55280 0.31270 0.76077 -0.34900
H 	H 	0.61040 0.35960 0.77827 0.17200
C 	C 	0.35440 0.39180 0.86357 -0.36800
H 	H 	0.38710 0.38260 0.89107 0.18000
Tb	Tb	0.50000 0.50000 0.08869 2.11200
Tb	Tb	0.50000 -0.00000 0.42202 2.00700
Tb	Tb	-0.00000 0.50000 0.75536 2.00400
Tb	Tb	0.50000 0.50000 0.24464 2.11200
Tb	Tb	-0.00000 0.50000 0.91131 2.00200
Tb	Tb	0.50000 0.00000 0.57798 2.00800
