data_crystal

_cell_length_a 4.70960
_cell_length_b 11.09470
_cell_length_c 20.04170
_cell_angle_alpha 90.00000
_cell_angle_beta  90.00000
_cell_angle_gamma 96.84350

_symmetry_space_group_name_	'P 1'
_symmetry_space_group_name_H-M	'P 1'

loop_
_symmetry_equiv_pos_as_xyz
  x,y,z

loop_
_atom_site_label
_atom_site_type_symbol
_atom_site_fract_x
_atom_site_fract_y
_atom_site_fract_z
_atom_site_charge
Cu	Cu	0.30400 0.94210 0.83950 0.91600
Cu	Cu	0.69600 0.55790 0.33950 0.91700
Cu	Cu	0.69600 0.05790 0.16050 0.91600
Cu	Cu	0.30400 0.44210 0.66050 0.91700
H 	H 	0.26545 0.91284 0.59284 0.05700
H 	H 	0.43823 0.00444 0.69291 0.05400
H 	H 	0.62230 0.82690 0.95401 0.03400
H 	H 	0.22044 0.11468 0.94134 0.03500
H 	H 	0.73455 0.58716 0.09284 0.05700
H 	H 	0.56177 0.49556 0.19291 0.05200
H 	H 	0.37770 0.67310 0.45401 0.03400
H 	H 	0.77956 0.38532 0.44134 0.03600
H 	H 	0.73455 0.08716 0.40716 0.05700
H 	H 	0.56177 0.99556 0.30709 0.05400
H 	H 	0.37770 0.17310 0.04599 0.03400
H 	H 	0.77956 0.88532 0.05866 0.03500
H 	H 	0.26545 0.41284 0.90716 0.05700
H 	H 	0.43823 0.50444 0.80709 0.05200
H 	H 	0.62230 0.32690 0.54599 0.03400
H 	H 	0.22044 0.61468 0.55866 0.03600
C 	C 	0.05400 0.77300 0.75000 -0.00400
C 	C 	0.96000 0.71400 0.69100 -0.01300
C 	C 	0.21000 0.86800 0.62900 0.00900
C 	C 	0.30900 0.92300 0.68900 0.03600
C 	C 	0.99900 0.72200 0.82200 0.26500
C 	C 	0.75800 0.59800 0.68800 0.35100
C 	C 	0.56000 0.90500 0.96900 0.02800
C 	C 	0.34700 0.06900 0.96800 0.02400
C 	C 	0.94600 0.72700 0.25000 -0.00400
C 	C 	0.04000 0.78600 0.19100 -0.01300
C 	C 	0.79000 0.63200 0.12900 0.00900
C 	C 	0.69100 0.57700 0.18900 0.03800
C 	C 	0.00100 0.77800 0.32200 0.26600
C 	C 	0.24200 0.90200 0.18800 0.35100
C 	C 	0.44000 0.59500 0.46900 0.03100
C 	C 	0.65300 0.43100 0.46800 0.01900
C 	C 	0.94600 0.22700 0.25000 -0.00400
C 	C 	0.04000 0.28600 0.30900 -0.01300
C 	C 	0.79000 0.13200 0.37100 0.00900
C 	C 	0.69100 0.07700 0.31100 0.03600
C 	C 	0.00100 0.27800 0.17800 0.26500
C 	C 	0.24200 0.40200 0.31200 0.35100
C 	C 	0.44000 0.09500 0.03100 0.02800
C 	C 	0.65300 0.93100 0.03200 0.02400
C 	C 	0.05400 0.27300 0.75000 -0.00400
C 	C 	0.96000 0.21400 0.80900 -0.01300
C 	C 	0.21000 0.36800 0.87100 0.00900
C 	C 	0.30900 0.42300 0.81100 0.03800
C 	C 	0.99900 0.22200 0.67800 0.26600
C 	C 	0.75800 0.09800 0.81200 0.35100
C 	C 	0.56000 0.40500 0.53100 0.03100
C 	C 	0.34700 0.56900 0.53200 0.01900
N 	N 	0.23700 0.87900 0.75200 -0.20000
N 	N 	0.04800 0.76000 0.63100 -0.08600
N 	N 	0.41100 0.97300 0.94000 -0.18700
N 	N 	0.76300 0.62100 0.25200 -0.19900
N 	N 	0.95200 0.74000 0.13100 -0.08600
N 	N 	0.58900 0.52700 0.44000 -0.18500
N 	N 	0.76300 0.12100 0.24800 -0.20000
N 	N 	0.95200 0.24000 0.36900 -0.08600
N 	N 	0.58900 0.02700 0.06000 -0.18700
N 	N 	0.23700 0.37900 0.74800 -0.19900
N 	N 	0.04800 0.26000 0.86900 -0.08600
N 	N 	0.41100 0.47300 0.56000 -0.18500
O 	O 	0.11300 0.77100 0.87300 -0.33000
O 	O 	0.86900 0.61900 0.82700 -0.22700
O 	O 	0.49300 0.59900 0.68900 -0.37800
O 	O 	0.87000 0.51000 0.66800 -0.38700
O 	O 	0.88700 0.72900 0.37300 -0.33000
O 	O 	0.13100 0.88100 0.32700 -0.22700
O 	O 	0.50700 0.90100 0.18900 -0.37800
O 	O 	0.13000 0.99000 0.16800 -0.38500
O 	O 	0.88700 0.22900 0.12700 -0.33000
O 	O 	0.13100 0.38100 0.17300 -0.22700
O 	O 	0.50700 0.40100 0.31100 -0.37800
O 	O 	0.13000 0.49000 0.33200 -0.38700
O 	O 	0.11300 0.27100 0.62700 -0.33000
O 	O 	0.86900 0.11900 0.67300 -0.22700
O 	O 	0.49300 0.09900 0.81100 -0.37800
O 	O 	0.87000 0.01000 0.83200 -0.38500
