data_crystal

_cell_length_a 10.96200
_cell_length_b 15.04750
_cell_length_c 15.04750
_cell_angle_alpha 65.69780
_cell_angle_beta  75.94630
_cell_angle_gamma 104.05400

_symmetry_space_group_name_	'P 1'
_symmetry_space_group_name_H-M	'P 1'

loop_
_symmetry_equiv_pos_as_xyz
  x,y,z

loop_
_atom_site_label
_atom_site_type_symbol
_atom_site_fract_x
_atom_site_fract_y
_atom_site_fract_z
_atom_site_charge
Fe	Fe	0.50000 0.50000 0.50000 1.10400
H 	H 	0.23110 0.34070 0.53630 0.09100
H 	H 	0.47540 0.68930 0.29390 0.17000
H 	H 	0.34570 0.70830 0.27180 0.16200
H 	H 	0.44200 0.67800 0.20040 0.15600
H 	H 	0.03140 0.23680 0.53290 0.22400
H 	H 	0.04260 0.27210 0.41430 0.22300
H 	H 	0.95050 0.30640 0.48370 0.28300
H 	H 	0.02790 0.71460 0.23910 0.14600
H 	H 	0.16500 0.71670 0.25950 0.14900
H 	H 	0.02040 0.63080 0.35090 0.14600
H 	H 	0.12930 0.36890 0.14630 0.14200
H 	H 	0.11970 0.32480 0.26540 0.15100
H 	H 	0.25970 0.41290 0.16900 0.15800
H 	H 	0.99120 0.63180 0.13500 0.15000
H 	H 	0.76890 0.65930 0.46370 0.09200
H 	H 	0.52460 0.31070 0.70610 0.17700
H 	H 	0.65430 0.29170 0.72820 0.17100
H 	H 	0.55800 0.32200 0.79960 0.17900
H 	H 	0.96860 0.76320 0.46710 0.12900
H 	H 	0.95740 0.72790 0.58570 0.12300
H 	H 	0.04950 0.69360 0.51630 0.07600
H 	H 	0.97210 0.28540 0.76090 0.22700
H 	H 	0.83500 0.28330 0.74050 0.19300
H 	H 	0.97960 0.36920 0.64910 0.21600
H 	H 	0.87070 0.63110 0.85370 0.20600
H 	H 	0.88030 0.67520 0.73460 0.20300
H 	H 	0.74030 0.58710 0.83100 0.20000
H 	H 	0.00880 0.36820 0.86500 0.05900
C 	C 	0.27336 0.34646 0.73928 0.06000
C 	C 	0.31587 0.55200 0.34689 0.19500
C 	C 	0.20004 0.49044 0.34122 -0.16700
C 	C 	0.15324 0.39121 0.42859 0.26600
C 	C 	0.40225 0.66690 0.27165 -0.54300
C 	C 	0.03450 0.29350 0.46810 -0.79400
C 	C 	0.08387 0.59627 0.23426 0.17300
C 	C 	0.14038 0.52142 0.26048 -0.11100
C 	C 	0.11588 0.47224 0.19960 0.15700
C 	C 	0.07345 0.67110 0.27435 -0.51700
C 	C 	0.15998 0.38746 0.19462 -0.51200
C 	C 	0.72664 0.65354 0.26072 0.07400
C 	C 	0.68413 0.44800 0.65311 0.18500
C 	C 	0.79996 0.50956 0.65878 -0.09000
C 	C 	0.84676 0.60879 0.57141 0.15300
C 	C 	0.59775 0.33310 0.72835 -0.55400
C 	C 	0.96550 0.70650 0.53190 -0.34300
C 	C 	0.91613 0.40373 0.76574 0.24200
C 	C 	0.85962 0.47858 0.73952 -0.14500
C 	C 	0.88412 0.52776 0.80040 0.22800
C 	C 	0.92655 0.32890 0.72565 -0.62000
C 	C 	0.84002 0.61254 0.80538 -0.60400
S 	S 	0.17972 0.27788 0.86573 -0.10400
S 	S 	0.82028 0.72212 0.13427 -0.11500
N 	N 	0.34247 0.39546 0.64935 -0.27100
N 	N 	0.33948 0.49258 0.43144 -0.22100
N 	N 	0.23920 0.39540 0.47880 -0.21800
N 	N 	0.04964 0.51439 0.14047 -0.22500
N 	N 	0.03200 0.59073 0.16353 -0.25300
N 	N 	0.65753 0.60454 0.35065 -0.27200
N 	N 	0.66052 0.50742 0.56856 -0.21700
N 	N 	0.76080 0.60460 0.52120 -0.18900
N 	N 	0.95036 0.48561 0.85953 -0.18100
N 	N 	0.96800 0.40927 0.83647 -0.15300
Fe	Fe	-0.00000 0.50000 -0.00000 1.04000
H 	H 	0.76740 0.53630 0.12300 0.08600
H 	H 	0.76930 0.29390 0.01680 0.14600
H 	H 	0.61750 0.27180 0.01990 0.13400
H 	H 	0.64240 0.20040 0.12160 0.14000
H 	H 	0.56430 0.53290 0.23030 0.16600
H 	H 	0.45690 0.41430 0.31360 0.16800
H 	H 	0.43420 0.48370 0.20990 0.16700
H 	H 	0.26700 0.23910 0.04630 0.13600
H 	H 	0.42450 0.25950 0.02380 0.12700
H 	H 	0.37130 0.35090 0.01830 0.13700
H 	H 	0.27560 0.14630 0.48480 0.16400
H 	H 	0.38510 0.26540 0.40980 0.17400
H 	H 	0.42870 0.16900 0.41810 0.16900
H 	H 	0.12620 0.13500 0.23320 0.06700
H 	H 	0.23260 0.46370 0.87700 0.10200
H 	H 	0.23070 0.70610 0.98320 0.20600
H 	H 	0.38250 0.72820 0.98010 0.20100
H 	H 	0.35760 0.79960 0.87840 0.19600
H 	H 	0.43570 0.46710 0.76970 0.18300
H 	H 	0.54310 0.58570 0.68640 0.17400
H 	H 	0.56580 0.51630 0.79010 0.18900
H 	H 	0.73300 0.76090 0.95370 0.23700
H 	H 	0.57550 0.74050 0.97620 0.21400
H 	H 	0.62870 0.64910 0.98170 0.22500
H 	H 	0.72440 0.85370 0.51520 0.18400
H 	H 	0.61490 0.73460 0.59020 0.18000
H 	H 	0.57130 0.83100 0.58190 0.18900
H 	H 	0.87380 0.86500 0.76680 0.13800
C 	C 	0.01264 0.73928 0.91426 -0.00900
C 	C 	0.66276 0.34689 0.10111 0.16700
C 	C 	0.54126 0.34122 0.16834 -0.12700
C 	C 	0.58183 0.42859 0.18020 0.19600
C 	C 	0.67390 0.27165 0.06145 -0.50000
C 	C 	0.50260 0.46810 0.23840 -0.55200
C 	C 	0.31813 0.23426 0.16947 0.16800
C 	C 	0.40086 0.26048 0.21810 -0.11900
C 	C 	0.31548 0.19960 0.32816 0.18100
C 	C 	0.34780 0.27435 0.05455 -0.48900
C 	C 	0.35460 0.19462 0.41792 -0.54600
C 	C 	0.98736 0.26072 0.08574 0.14500
C 	C 	0.33724 0.65311 0.89889 0.21300
C 	C 	0.45874 0.65878 0.83166 -0.12900
C 	C 	0.41817 0.57141 0.81980 0.22000
C 	C 	0.32610 0.72835 0.93855 -0.59800
C 	C 	0.49740 0.53190 0.76160 -0.57700
C 	C 	0.68187 0.76574 0.83053 0.24600
C 	C 	0.59914 0.73952 0.78190 -0.13700
C 	C 	0.68452 0.80040 0.67184 0.20500
C 	C 	0.65220 0.72565 0.94545 -0.64800
C 	C 	0.64540 0.80538 0.58208 -0.56900
S 	S 	0.04545 0.86573 0.85639 -0.07200
S 	S 	0.95455 0.13427 0.14361 -0.14300
N 	N 	0.99182 0.64935 0.95519 -0.18500
N 	N 	0.77092 0.43144 0.07598 -0.21600
N 	N 	0.71800 0.47880 0.12580 -0.20400
N 	N 	0.19011 0.14047 0.34514 -0.22300
N 	N 	0.19553 0.16353 0.24574 -0.19600
N 	N 	0.00818 0.35065 0.04481 -0.34400
N 	N 	0.22908 0.56856 0.92402 -0.20700
N 	N 	0.28200 0.52120 0.87420 -0.20200
N 	N 	0.80989 0.85953 0.65486 -0.18400
N 	N 	0.80447 0.83647 0.75426 -0.20900
Fe	Fe	-0.00000 -0.00000 0.50000 1.04700
H 	H 	0.89040 0.12300 0.34070 0.09600
H 	H 	0.78610 0.01680 0.68930 0.16900
H 	H 	0.63740 0.01990 0.70830 0.15500
H 	H 	0.76400 0.12160 0.67800 0.17100
H 	H 	0.79460 0.23030 0.23680 0.17800
H 	H 	0.77050 0.31360 0.27210 0.18000
H 	H 	0.64410 0.20990 0.30640 0.17300
H 	H 	0.31330 0.04630 0.71460 0.16500
H 	H 	0.44830 0.02380 0.71670 0.14900
H 	H 	0.38960 0.01830 0.63080 0.15400
H 	H 	0.76040 0.48480 0.36890 0.18900
H 	H 	0.79490 0.40980 0.32480 0.19500
H 	H 	0.84680 0.41810 0.41290 0.20100
H 	H 	0.35940 0.23320 0.63180 0.10200
H 	H 	0.10960 0.87700 0.65930 0.09200
H 	H 	0.21390 0.98320 0.31070 0.18100
H 	H 	0.36260 0.98010 0.29170 0.17900
H 	H 	0.23600 0.87840 0.32200 0.16400
H 	H 	0.20540 0.76970 0.76320 0.17500
H 	H 	0.22950 0.68640 0.72790 0.16600
H 	H 	0.35590 0.79010 0.69360 0.18500
H 	H 	0.68670 0.95370 0.28540 0.20800
H 	H 	0.55170 0.97620 0.28330 0.19200
H 	H 	0.61040 0.98170 0.36920 0.20800
H 	H 	0.23960 0.51520 0.63110 0.15700
H 	H 	0.20510 0.59020 0.67520 0.15900
H 	H 	0.15320 0.58190 0.58710 0.15800
H 	H 	0.64060 0.76680 0.36820 0.10300
C 	C 	0.92690 0.91426 0.34646 0.08500
C 	C 	0.76387 0.10111 0.55200 0.18600
C 	C 	0.70960 0.16834 0.49044 -0.13000
C 	C 	0.76203 0.18020 0.39121 0.20900
C 	C 	0.73535 0.06145 0.66690 -0.54000
C 	C 	0.74100 0.23840 0.29350 -0.56800
C 	C 	0.48760 0.16947 0.59627 0.19500
C 	C 	0.61896 0.21810 0.52142 -0.12700
C 	C 	0.64364 0.32816 0.47224 0.20100
C 	C 	0.40235 0.05455 0.67110 -0.53000
C 	C 	0.77252 0.41792 0.38746 -0.58800
C 	C 	0.07310 0.08574 0.65354 0.04600
C 	C 	0.23613 0.89889 0.44800 0.19400
C 	C 	0.29040 0.83166 0.50956 -0.12600
C 	C 	0.23797 0.81980 0.60879 0.20900
C 	C 	0.26465 0.93855 0.33310 -0.55700
C 	C 	0.25900 0.76160 0.70650 -0.56600
C 	C 	0.51240 0.83053 0.40373 0.22000
C 	C 	0.38104 0.78190 0.47858 -0.12900
C 	C 	0.35636 0.67184 0.52776 0.18400
C 	C 	0.59765 0.94545 0.32890 -0.60700
C 	C 	0.22748 0.58208 0.61254 -0.52900
S 	S 	0.90184 0.85639 0.27788 -0.06900
S 	S 	0.09816 0.14361 0.72212 -0.15000
N 	N 	0.94701 0.95519 0.39546 -0.23200
N 	N 	0.84690 0.07598 0.49258 -0.21200
N 	N 	0.84380 0.12580 0.39540 -0.20400
N 	N 	0.53525 0.34514 0.51439 -0.21000
N 	N 	0.44127 0.24574 0.59073 -0.20000
N 	N 	0.05299 0.04481 0.60454 -0.29500
N 	N 	0.15310 0.92402 0.50742 -0.21200
N 	N 	0.15620 0.87420 0.60460 -0.20200
N 	N 	0.46475 0.65486 0.48561 -0.20700
N 	N 	0.55873 0.75426 0.40927 -0.20500
