data_crystal

_cell_length_a 10.96720
_cell_length_b 15.05870
_cell_length_c 15.05870
_cell_angle_alpha 65.69480
_cell_angle_beta  75.95020
_cell_angle_gamma 104.05000

_symmetry_space_group_name_	'P 1'
_symmetry_space_group_name_H-M	'P 1'

loop_
_symmetry_equiv_pos_as_xyz
  x,y,z

loop_
_atom_site_label
_atom_site_type_symbol
_atom_site_fract_x
_atom_site_fract_y
_atom_site_fract_z
_atom_site_charge
Fe	Fe	0.50000 0.50000 0.50000 1.10600
H 	H 	0.23080 0.34160 0.53600 0.09400
H 	H 	0.47640 0.68910 0.29400 0.17200
H 	H 	0.34780 0.70920 0.27090 0.16400
H 	H 	0.44350 0.67800 0.20040 0.15600
H 	H 	0.03170 0.23730 0.53190 0.22800
H 	H 	0.04320 0.27290 0.41330 0.22600
H 	H 	0.95090 0.30680 0.48290 0.28600
H 	H 	0.02830 0.71580 0.23670 0.14400
H 	H 	0.16540 0.71880 0.25710 0.14600
H 	H 	0.02080 0.63300 0.34890 0.14500
H 	H 	0.12900 0.36920 0.14660 0.14100
H 	H 	0.11880 0.32480 0.26600 0.14900
H 	H 	0.25910 0.41230 0.16990 0.15700
H 	H 	0.99130 0.63130 0.13420 0.15000
H 	H 	0.76920 0.65840 0.46400 0.09300
H 	H 	0.52360 0.31090 0.70600 0.17800
H 	H 	0.65220 0.29080 0.72910 0.17200
H 	H 	0.55650 0.32200 0.79960 0.17900
H 	H 	0.96830 0.76270 0.46810 0.13100
H 	H 	0.95680 0.72710 0.58670 0.12400
H 	H 	0.04910 0.69320 0.51710 0.07800
H 	H 	0.97170 0.28420 0.76330 0.22600
H 	H 	0.83460 0.28120 0.74290 0.19000
H 	H 	0.97920 0.36700 0.65110 0.21500
H 	H 	0.87100 0.63080 0.85340 0.20500
H 	H 	0.88120 0.67520 0.73400 0.20200
H 	H 	0.74090 0.58770 0.83010 0.20000
H 	H 	0.00870 0.36870 0.86580 0.05800
C 	C 	0.27458 0.34831 0.73867 0.05900
C 	C 	0.31601 0.55259 0.34646 0.19700
C 	C 	0.20026 0.49137 0.34059 -0.16700
C 	C 	0.15362 0.39150 0.42804 0.26800
C 	C 	0.40344 0.66705 0.27153 -0.54500
C 	C 	0.03477 0.29388 0.46737 -0.80400
C 	C 	0.08465 0.59721 0.23346 0.16900
C 	C 	0.14014 0.52145 0.26003 -0.11000
C 	C 	0.11641 0.47245 0.19972 0.15700
C 	C 	0.07382 0.67266 0.27240 -0.51200
C 	C 	0.15950 0.38745 0.19515 -0.50900
C 	C 	0.72542 0.65169 0.26133 0.07300
C 	C 	0.68399 0.44741 0.65354 0.18700
C 	C 	0.79974 0.50863 0.65941 -0.09100
C 	C 	0.84638 0.60850 0.57196 0.15400
C 	C 	0.59656 0.33295 0.72847 -0.55600
C 	C 	0.96523 0.70612 0.53263 -0.34700
C 	C 	0.91535 0.40279 0.76654 0.23900
C 	C 	0.85986 0.47855 0.73997 -0.14500
C 	C 	0.88359 0.52755 0.80028 0.22900
C 	C 	0.92618 0.32734 0.72760 -0.61500
C 	C 	0.84050 0.61255 0.80485 -0.60200
S 	S 	0.18150 0.28057 0.86536 -0.10500
S 	S 	0.81850 0.71943 0.13464 -0.11700
N 	N 	0.34324 0.39629 0.64853 -0.27200
N 	N 	0.33935 0.49339 0.43072 -0.22000
N 	N 	0.23906 0.39598 0.47836 -0.21900
N 	N 	0.04913 0.51418 0.14068 -0.22300
N 	N 	0.03222 0.59056 0.16285 -0.25100
N 	N 	0.65676 0.60371 0.35147 -0.27300
N 	N 	0.66065 0.50661 0.56928 -0.21700
N 	N 	0.76094 0.60402 0.52164 -0.19000
N 	N 	0.95087 0.48582 0.85932 -0.18000
N 	N 	0.96778 0.40944 0.83715 -0.15200
Fe	Fe	-0.00000 0.50000 -0.00000 1.04100
H 	H 	0.76680 0.53600 0.12240 0.08600
H 	H 	0.77040 0.29400 0.01690 0.14700
H 	H 	0.61870 0.27090 0.01990 0.13500
H 	H 	0.64390 0.20040 0.12160 0.14000
H 	H 	0.56360 0.53190 0.23080 0.16900
H 	H 	0.45650 0.41330 0.31380 0.17000
H 	H 	0.43380 0.48290 0.21030 0.17000
H 	H 	0.26500 0.23670 0.04750 0.13400
H 	H 	0.42250 0.25710 0.02410 0.12500
H 	H 	0.36970 0.34890 0.01810 0.13600
H 	H 	0.27560 0.14660 0.48420 0.16300
H 	H 	0.38480 0.26600 0.40920 0.17200
H 	H 	0.42900 0.16990 0.41780 0.16900
H 	H 	0.12550 0.13420 0.23450 0.06700
H 	H 	0.23320 0.46400 0.87760 0.10300
H 	H 	0.22960 0.70600 0.98310 0.20600
H 	H 	0.38130 0.72910 0.98010 0.20100
H 	H 	0.35610 0.79960 0.87840 0.19600
H 	H 	0.43640 0.46810 0.76920 0.18600
H 	H 	0.54350 0.58670 0.68620 0.17600
H 	H 	0.56620 0.51710 0.78970 0.19100
H 	H 	0.73500 0.76330 0.95250 0.23500
H 	H 	0.57750 0.74290 0.97590 0.21200
H 	H 	0.63030 0.65110 0.98190 0.22400
H 	H 	0.72440 0.85340 0.51580 0.18300
H 	H 	0.61520 0.73400 0.59080 0.17800
H 	H 	0.57100 0.83010 0.58220 0.18800
H 	H 	0.87450 0.86580 0.76550 0.13800
C 	C 	0.01325 0.73867 0.91302 -0.01000
C 	C 	0.66247 0.34646 0.10095 0.17000
C 	C 	0.54085 0.34059 0.16804 -0.12800
C 	C 	0.58166 0.42804 0.18046 0.19800
C 	C 	0.67497 0.27153 0.06142 -0.50100
C 	C 	0.50214 0.46737 0.23875 -0.55900
C 	C 	0.31811 0.23346 0.16933 0.16500
C 	C 	0.40017 0.26003 0.21852 -0.11900
C 	C 	0.31613 0.19972 0.32783 0.18100
C 	C 	0.34622 0.27240 0.05494 -0.48300
C 	C 	0.35465 0.19515 0.41740 -0.54400
C 	C 	0.98675 0.26133 0.08698 0.14400
C 	C 	0.33753 0.65354 0.89905 0.21500
C 	C 	0.45915 0.65941 0.83196 -0.12900
C 	C 	0.41834 0.57196 0.81954 0.22100
C 	C 	0.32503 0.72847 0.93858 -0.60000
C 	C 	0.49786 0.53263 0.76125 -0.58400
C 	C 	0.68189 0.76654 0.83067 0.24300
C 	C 	0.59983 0.73997 0.78148 -0.13700
C 	C 	0.68387 0.80028 0.67217 0.20500
C 	C 	0.65378 0.72760 0.94506 -0.64300
C 	C 	0.64535 0.80485 0.58260 -0.56700
S 	S 	0.04686 0.86536 0.85407 -0.07400
S 	S 	0.95314 0.13464 0.14593 -0.14400
N 	N 	0.99177 0.64853 0.95518 -0.18600
N 	N 	0.77007 0.43072 0.07589 -0.21600
N 	N 	0.71742 0.47836 0.12566 -0.20500
N 	N 	0.18981 0.14068 0.34514 -0.22200
N 	N 	0.19507 0.16285 0.24659 -0.19400
N 	N 	0.00823 0.35147 0.04482 -0.34500
N 	N 	0.22993 0.56928 0.92411 -0.20700
N 	N 	0.28258 0.52164 0.87434 -0.20300
N 	N 	0.81019 0.85932 0.65486 -0.18300
N 	N 	0.80493 0.83715 0.75341 -0.20700
Fe	Fe	-0.00000 0.00000 0.50000 1.04700
H 	H 	0.88920 0.12240 0.34160 0.09700
H 	H 	0.78730 0.01690 0.68910 0.17000
H 	H 	0.63860 0.01990 0.70920 0.15600
H 	H 	0.76550 0.12160 0.67800 0.17100
H 	H 	0.79440 0.23080 0.23730 0.18100
H 	H 	0.77030 0.31380 0.27290 0.18200
H 	H 	0.64410 0.21030 0.30680 0.17500
H 	H 	0.31250 0.04750 0.71580 0.16300
H 	H 	0.44660 0.02410 0.71880 0.14700
H 	H 	0.38780 0.01810 0.63300 0.15300
H 	H 	0.75980 0.48420 0.36920 0.18800
H 	H 	0.79400 0.40920 0.32480 0.19400
H 	H 	0.84680 0.41780 0.41230 0.20000
H 	H 	0.36000 0.23450 0.63130 0.10200
H 	H 	0.11080 0.87760 0.65840 0.09300
H 	H 	0.21270 0.98310 0.31090 0.18200
H 	H 	0.36140 0.98010 0.29080 0.18000
H 	H 	0.23450 0.87840 0.32200 0.16400
H 	H 	0.20560 0.76920 0.76270 0.17800
H 	H 	0.22970 0.68620 0.72710 0.16800
H 	H 	0.35590 0.78970 0.69320 0.18700
H 	H 	0.68750 0.95250 0.28420 0.20600
H 	H 	0.55340 0.97590 0.28120 0.18900
H 	H 	0.61220 0.98190 0.36700 0.20700
H 	H 	0.24020 0.51580 0.63080 0.15600
H 	H 	0.20600 0.59080 0.67520 0.15800
H 	H 	0.15320 0.58220 0.58770 0.15700
H 	H 	0.64000 0.76550 0.36870 0.10200
C 	C 	0.92627 0.91302 0.34831 0.08400
C 	C 	0.76342 0.10095 0.55259 0.18800
C 	C 	0.70889 0.16804 0.49137 -0.13100
C 	C 	0.76212 0.18046 0.39150 0.21100
C 	C 	0.73639 0.06142 0.66705 -0.54200
C 	C 	0.74089 0.23875 0.29388 -0.57500
C 	C 	0.48744 0.16933 0.59721 0.19200
C 	C 	0.61869 0.21852 0.52145 -0.12700
C 	C 	0.64396 0.32783 0.47245 0.20100
C 	C 	0.40116 0.05494 0.67266 -0.52400
C 	C 	0.77205 0.41740 0.38745 -0.58500
C 	C 	0.07373 0.08698 0.65169 0.04500
C 	C 	0.23658 0.89905 0.44741 0.19700
C 	C 	0.29111 0.83196 0.50863 -0.12700
C 	C 	0.23788 0.81954 0.60850 0.21000
C 	C 	0.26361 0.93858 0.33295 -0.55900
C 	C 	0.25911 0.76125 0.70612 -0.57300
C 	C 	0.51256 0.83067 0.40279 0.21600
C 	C 	0.38131 0.78148 0.47855 -0.12800
C 	C 	0.35604 0.67217 0.52755 0.18500
C 	C 	0.59884 0.94506 0.32734 -0.60100
C 	C 	0.22795 0.58260 0.61255 -0.52800
S 	S 	0.90093 0.85407 0.28057 -0.07000
S 	S 	0.09907 0.14593 0.71943 -0.15100
N 	N 	0.94695 0.95518 0.39629 -0.23300
N 	N 	0.84596 0.07589 0.49339 -0.21200
N 	N 	0.84308 0.12566 0.39598 -0.20500
N 	N 	0.53495 0.34514 0.51418 -0.20900
N 	N 	0.44166 0.24659 0.59056 -0.19800
N 	N 	0.05305 0.04482 0.60371 -0.29700
N 	N 	0.15404 0.92411 0.50661 -0.21200
N 	N 	0.15692 0.87434 0.60402 -0.20300
N 	N 	0.46505 0.65486 0.48582 -0.20600
N 	N 	0.55834 0.75341 0.40944 -0.20400
