data_crystal

_cell_length_a 11.03850
_cell_length_b 15.17580
_cell_length_c 15.17580
_cell_angle_alpha 65.68070
_cell_angle_beta  75.96840
_cell_angle_gamma 104.03200

_symmetry_space_group_name_	'P 1'
_symmetry_space_group_name_H-M	'P 1'

loop_
_symmetry_equiv_pos_as_xyz
  x,y,z

loop_
_atom_site_label
_atom_site_type_symbol
_atom_site_fract_x
_atom_site_fract_y
_atom_site_fract_z
_atom_site_charge
Fe	Fe	0.50000 0.50000 0.50000 1.09900
H 	H 	0.23320 0.34450 0.53170 0.10000
H 	H 	0.47660 0.68680 0.29170 0.23200
H 	H 	0.35210 0.70690 0.26830 0.22200
H 	H 	0.44460 0.67520 0.20090 0.21500
H 	H 	0.03430 0.24240 0.52920 0.31500
H 	H 	0.04360 0.27610 0.41440 0.31400
H 	H 	0.95580 0.31040 0.48170 0.36900
H 	H 	0.02690 0.71080 0.24130 0.20100
H 	H 	0.15980 0.71360 0.26210 0.19900
H 	H 	0.01900 0.62950 0.35020 0.19900
H 	H 	0.13540 0.37520 0.14480 0.19400
H 	H 	0.12810 0.33120 0.26010 0.20100
H 	H 	0.26260 0.41870 0.16610 0.20700
H 	H 	0.99160 0.62870 0.13940 0.15600
H 	H 	0.76680 0.65550 0.46830 0.09600
H 	H 	0.52340 0.31320 0.70830 0.23500
H 	H 	0.64790 0.29310 0.73170 0.22600
H 	H 	0.55540 0.32480 0.79910 0.23500
H 	H 	0.96570 0.75760 0.47080 0.16900
H 	H 	0.95640 0.72390 0.58560 0.16300
H 	H 	0.04420 0.68960 0.51830 0.11700
H 	H 	0.97310 0.28920 0.75870 0.29300
H 	H 	0.84020 0.28640 0.73790 0.25700
H 	H 	0.98100 0.37050 0.64980 0.28000
H 	H 	0.86460 0.62480 0.85520 0.27100
H 	H 	0.87190 0.66880 0.73990 0.27000
H 	H 	0.73740 0.58130 0.83390 0.26500
H 	H 	0.00840 0.37130 0.86060 0.06700
C 	C 	0.27599 0.34928 0.73571 0.05400
C 	C 	0.31848 0.55295 0.34451 0.25400
C 	C 	0.20277 0.49266 0.33945 -0.21600
C 	C 	0.15580 0.39390 0.42600 0.34600
C 	C 	0.40570 0.66540 0.26970 -0.73700
C 	C 	0.03690 0.29720 0.46640 -1.07500
C 	C 	0.08370 0.59520 0.23610 0.21900
C 	C 	0.14181 0.52195 0.26062 -0.13500
C 	C 	0.11964 0.47464 0.19942 0.20000
C 	C 	0.07130 0.66890 0.27590 -0.68800
C 	C 	0.16550 0.39270 0.19200 -0.67700
C 	C 	0.72401 0.65072 0.26429 0.06800
C 	C 	0.68152 0.44705 0.65549 0.23500
C 	C 	0.79723 0.50734 0.66055 -0.11400
C 	C 	0.84420 0.60610 0.57400 0.18600
C 	C 	0.59430 0.33460 0.73030 -0.74100
C 	C 	0.96310 0.70280 0.53360 -0.47800
C 	C 	0.91630 0.40480 0.76390 0.30300
C 	C 	0.85819 0.47805 0.73938 -0.19000
C 	C 	0.88036 0.52536 0.80058 0.28800
C 	C 	0.92870 0.33110 0.72410 -0.83700
C 	C 	0.83450 0.60730 0.80800 -0.81800
S 	S 	0.18444 0.28277 0.86066 -0.12100
S 	S 	0.81556 0.71723 0.13934 -0.13400
N 	N 	0.34368 0.39636 0.64662 -0.27800
N 	N 	0.34138 0.49398 0.42834 -0.23200
N 	N 	0.24130 0.39756 0.47586 -0.24400
N 	N 	0.05068 0.51500 0.14246 -0.22900
N 	N 	0.03215 0.58952 0.16637 -0.27100
N 	N 	0.65632 0.60364 0.35338 -0.27900
N 	N 	0.65862 0.50602 0.57166 -0.22800
N 	N 	0.75870 0.60244 0.52414 -0.20400
N 	N 	0.94932 0.48500 0.85754 -0.19200
N 	N 	0.96785 0.41048 0.83363 -0.17700
Fe	Fe	-0.00000 0.50000 -0.00000 1.03600
H 	H 	0.76490 0.53170 0.12380 0.09100
H 	H 	0.76830 0.29170 0.02150 0.19900
H 	H 	0.62040 0.26830 0.02480 0.18500
H 	H 	0.64550 0.20090 0.12390 0.19000
H 	H 	0.56350 0.52920 0.22840 0.23000
H 	H 	0.45800 0.41440 0.30950 0.23100
H 	H 	0.43750 0.48170 0.20790 0.22900
H 	H 	0.26820 0.24130 0.04790 0.18800
H 	H 	0.42190 0.26210 0.02430 0.17500
H 	H 	0.36920 0.35020 0.02030 0.18600
H 	H 	0.28020 0.14480 0.48000 0.22000
H 	H 	0.38820 0.26010 0.40870 0.23000
H 	H 	0.42870 0.16610 0.41520 0.22300
H 	H 	0.13100 0.13940 0.23190 0.07600
H 	H 	0.23510 0.46830 0.87620 0.10800
H 	H 	0.23170 0.70830 0.97850 0.27100
H 	H 	0.37960 0.73170 0.97520 0.26300
H 	H 	0.35450 0.79910 0.87610 0.25900
H 	H 	0.43650 0.47080 0.77160 0.25000
H 	H 	0.54200 0.58560 0.69050 0.24100
H 	H 	0.56250 0.51830 0.79210 0.25300
H 	H 	0.73180 0.75870 0.95210 0.30700
H 	H 	0.57810 0.73790 0.97570 0.28200
H 	H 	0.63080 0.64980 0.97970 0.29300
H 	H 	0.71980 0.85520 0.52000 0.24600
H 	H 	0.61180 0.73990 0.59130 0.24100
H 	H 	0.57130 0.83390 0.58480 0.24900
H 	H 	0.86900 0.86060 0.76810 0.14400
C 	C 	0.01170 0.73571 0.91501 -0.01200
C 	C 	0.66299 0.34451 0.10254 0.21700
C 	C 	0.54222 0.33945 0.16789 -0.16200
C 	C 	0.58180 0.42600 0.18010 0.25100
C 	C 	0.67540 0.26970 0.06490 -0.67000
C 	C 	0.50330 0.46640 0.23640 -0.75400
C 	C 	0.31980 0.23610 0.16870 0.21400
C 	C 	0.40243 0.26062 0.21743 -0.15000
C 	C 	0.31906 0.19942 0.32594 0.22900
C 	C 	0.34720 0.27590 0.05520 -0.65100
C 	C 	0.35750 0.19200 0.41530 -0.72800
C 	C 	0.98830 0.26429 0.08499 0.13600
C 	C 	0.33701 0.65549 0.89746 0.27300
C 	C 	0.45778 0.66055 0.83211 -0.16700
C 	C 	0.41820 0.57400 0.81990 0.27800
C 	C 	0.32460 0.73030 0.93510 -0.81000
C 	C 	0.49670 0.53360 0.76360 -0.79000
C 	C 	0.68020 0.76390 0.83130 0.30900
C 	C 	0.59757 0.73938 0.78257 -0.17600
C 	C 	0.68094 0.80058 0.67406 0.26000
C 	C 	0.65280 0.72410 0.94480 -0.87500
C 	C 	0.64250 0.80800 0.58470 -0.76800
S 	S 	0.04510 0.86066 0.85657 -0.09100
S 	S 	0.95490 0.13934 0.14343 -0.16000
N 	N 	0.99030 0.64662 0.95702 -0.19600
N 	N 	0.76972 0.42834 0.07768 -0.22700
N 	N 	0.71716 0.47586 0.12658 -0.22400
N 	N 	0.19314 0.14246 0.34254 -0.22900
N 	N 	0.19852 0.16637 0.24411 -0.21400
N 	N 	0.00970 0.35338 0.04298 -0.34800
N 	N 	0.23028 0.57166 0.92232 -0.21900
N 	N 	0.28284 0.52414 0.87342 -0.22300
N 	N 	0.80686 0.85754 0.65746 -0.19300
N 	N 	0.80148 0.83363 0.75589 -0.23300
Fe	Fe	0.00000 0.00000 0.50000 1.04200
H 	H 	0.88870 0.12380 0.34450 0.10100
H 	H 	0.78980 0.02150 0.68680 0.22700
H 	H 	0.64520 0.02480 0.70690 0.21100
H 	H 	0.76940 0.12390 0.67520 0.22500
H 	H 	0.79190 0.22840 0.24240 0.24200
H 	H 	0.76750 0.30950 0.27610 0.24400
H 	H 	0.64540 0.20790 0.31040 0.23600
H 	H 	0.31610 0.04790 0.71080 0.22000
H 	H 	0.44620 0.02430 0.71360 0.20100
H 	H 	0.38950 0.02030 0.62950 0.20800
H 	H 	0.76020 0.48000 0.37520 0.25000
H 	H 	0.79690 0.40870 0.33120 0.25700
H 	H 	0.84390 0.41520 0.41870 0.25800
H 	H 	0.36290 0.23190 0.62870 0.10900
H 	H 	0.11130 0.87620 0.65550 0.09800
H 	H 	0.21020 0.97850 0.31320 0.24200
H 	H 	0.35480 0.97520 0.29310 0.23600
H 	H 	0.23060 0.87610 0.32480 0.22300
H 	H 	0.20810 0.77160 0.75760 0.24200
H 	H 	0.23250 0.69050 0.72390 0.23200
H 	H 	0.35460 0.79210 0.68960 0.24800
H 	H 	0.68390 0.95210 0.28920 0.27400
H 	H 	0.55380 0.97570 0.28640 0.25500
H 	H 	0.61050 0.97970 0.37050 0.27200
H 	H 	0.23980 0.52000 0.62480 0.21300
H 	H 	0.20310 0.59130 0.66880 0.21500
H 	H 	0.15610 0.58480 0.58130 0.21400
H 	H 	0.63710 0.76810 0.37130 0.11100
C 	C 	0.92671 0.91501 0.34928 0.07900
C 	C 	0.76553 0.10254 0.55295 0.23800
C 	C 	0.71011 0.16789 0.49266 -0.16700
C 	C 	0.76190 0.18010 0.39390 0.26500
C 	C 	0.74030 0.06490 0.66540 -0.72700
C 	C 	0.73970 0.23640 0.29720 -0.77500
C 	C 	0.48850 0.16870 0.59520 0.24400
C 	C 	0.61986 0.21743 0.52195 -0.16100
C 	C 	0.64500 0.32594 0.47464 0.25400
C 	C 	0.40240 0.05520 0.66890 -0.70700
C 	C 	0.77280 0.41530 0.39270 -0.78600
C 	C 	0.07329 0.08499 0.65072 0.04000
C 	C 	0.23447 0.89746 0.44705 0.25100
C 	C 	0.28989 0.83211 0.50734 -0.16300
C 	C 	0.23810 0.81990 0.60610 0.26700
C 	C 	0.25970 0.93510 0.33460 -0.75100
C 	C 	0.26030 0.76360 0.70280 -0.77600
C 	C 	0.51150 0.83130 0.40480 0.27800
C 	C 	0.38014 0.78257 0.47805 -0.16400
C 	C 	0.35500 0.67406 0.52536 0.23400
C 	C 	0.59760 0.94480 0.33110 -0.81800
C 	C 	0.22720 0.58470 0.60730 -0.71000
S 	S 	0.90167 0.85657 0.28277 -0.08800
S 	S 	0.09833 0.14343 0.71723 -0.16700
N 	N 	0.94732 0.95702 0.39636 -0.24000
N 	N 	0.84740 0.07768 0.49398 -0.22400
N 	N 	0.84374 0.12658 0.39756 -0.22500
N 	N 	0.53568 0.34254 0.51500 -0.21700
N 	N 	0.44263 0.24411 0.58952 -0.21900
N 	N 	0.05268 0.04298 0.60364 -0.30200
N 	N 	0.15260 0.92232 0.50602 -0.22300
N 	N 	0.15626 0.87342 0.60244 -0.22300
N 	N 	0.46432 0.65746 0.48500 -0.21400
N 	N 	0.55737 0.75589 0.41048 -0.22700
