data_crystal

_cell_length_a 12.81990
_cell_length_b 12.81990
_cell_length_c 32.61700
_cell_angle_alpha 90.00000
_cell_angle_beta  90.00000
_cell_angle_gamma 90.00000

_symmetry_space_group_name_	'P 1'
_symmetry_space_group_name_H-M	'P 1'

loop_
_symmetry_equiv_pos_as_xyz
  x,y,z

loop_
_atom_site_label
_atom_site_type_symbol
_atom_site_fract_x
_atom_site_fract_y
_atom_site_fract_z
_atom_site_charge
N 	N 	0.42140 0.92130 0.29410 -0.25200
C 	C 	0.46970 0.87120 0.32300 0.10200
C 	C 	0.31760 0.92100 0.29490 0.08900
C 	C 	0.41970 0.81720 0.35420 -0.17000
H 	H 	0.54230 0.87160 0.32290 -0.03000
H 	H 	0.28130 0.95760 0.27480 -0.02900
C 	C 	0.26240 0.86810 0.32450 -0.16200
C 	C 	0.31280 0.81500 0.35540 0.07900
H 	H 	0.45840 0.78260 0.37410 0.08300
H 	H 	0.18990 0.86830 0.32370 0.07700
C 	C 	0.25250 0.75650 0.38680 0.01400
C 	C 	0.30020 0.69450 0.41480 -0.09700
C 	C 	0.14650 0.76250 0.38900 -0.09400
C 	C 	0.24240 0.63730 0.44330 0.01300
H 	H 	0.37260 0.69000 0.41500 0.05200
C 	C 	0.08980 0.70700 0.41790 0.02000
H 	H 	0.11110 0.80510 0.37050 0.05500
C 	C 	0.13380 0.63940 0.44420 -0.11100
H 	H 	0.27770 0.59640 0.46230 0.01100
H 	H 	0.01800 0.71720 0.41920 0.01900
C 	C 	0.06890 0.57020 0.47260 0.27500
H 	H 	0.18090 0.45690 0.48290 0.14500
H 	H 	0.04370 0.45710 0.42900 0.14500
H 	H 	0.04360 0.68330 0.51690 0.14100
N 	N 	0.57860 0.07870 0.29410 -0.24800
C 	C 	0.53030 0.12880 0.32300 0.10300
C 	C 	0.68240 0.07900 0.29490 0.09000
C 	C 	0.58030 0.18280 0.35420 -0.16800
H 	H 	0.45770 0.12840 0.32290 -0.02500
H 	H 	0.71870 0.04240 0.27480 -0.02500
C 	C 	0.73760 0.13190 0.32450 -0.15900
C 	C 	0.68720 0.18500 0.35540 0.07900
H 	H 	0.54160 0.21740 0.37410 0.08300
H 	H 	0.81010 0.13170 0.32370 0.07600
C 	C 	0.74750 0.24350 0.38680 0.01500
C 	C 	0.69980 0.30550 0.41480 -0.09600
C 	C 	0.85350 0.23750 0.38900 -0.09400
C 	C 	0.75760 0.36270 0.44330 0.01100
H 	H 	0.62740 0.31000 0.41500 0.05200
C 	C 	0.91020 0.29300 0.41790 0.01800
H 	H 	0.88890 0.19490 0.37050 0.05300
C 	C 	0.86620 0.36060 0.44420 -0.10900
H 	H 	0.72230 0.40360 0.46230 0.01100
H 	H 	0.98200 0.28280 0.41920 0.01000
C 	C 	0.93110 0.42980 0.47260 0.25700
H 	H 	0.81910 0.54310 0.48290 0.14200
H 	H 	0.95630 0.54290 0.42900 0.13300
H 	H 	0.95640 0.31670 0.51690 0.13100
N 	N 	0.57870 0.92140 0.79410 -0.24800
C 	C 	0.62880 0.96970 0.82300 0.07500
C 	C 	0.57900 0.81760 0.79490 0.09000
C 	C 	0.68280 0.91970 0.85420 -0.16000
H 	H 	0.62840 0.04230 0.82290 -0.01000
H 	H 	0.54240 0.78130 0.77480 -0.02700
C 	C 	0.63190 0.76240 0.82450 -0.16400
C 	C 	0.68500 0.81280 0.85540 0.08500
H 	H 	0.71740 0.95840 0.87410 0.07800
H 	H 	0.63170 0.68990 0.82370 0.07800
C 	C 	0.74350 0.75250 0.88680 -0.01200
C 	C 	0.80550 0.80020 0.91480 -0.06300
C 	C 	0.73750 0.64650 0.88900 -0.05800
C 	C 	0.86270 0.74240 0.94330 -0.03600
H 	H 	0.81000 0.87260 0.91500 0.03800
C 	C 	0.79300 0.58980 0.91790 -0.03300
H 	H 	0.69490 0.61110 0.87050 0.04200
C 	C 	0.86060 0.63380 0.94420 -0.04600
H 	H 	0.90360 0.77770 0.96230 0.02300
H 	H 	0.78280 0.51800 0.91920 0.03400
C 	C 	0.92980 0.56890 0.97260 0.12500
H 	H 	0.04310 0.68090 0.98290 0.07800
H 	H 	0.04290 0.54370 0.92900 0.11000
H 	H 	0.81670 0.54360 0.01690 0.10500
N 	N 	0.42130 0.07860 0.79410 -0.25700
C 	C 	0.37120 0.03030 0.82300 0.14200
C 	C 	0.42100 0.18240 0.79490 0.10100
C 	C 	0.31720 0.08030 0.85420 -0.19800
H 	H 	0.37160 0.95770 0.82290 -0.04800
H 	H 	0.45760 0.21870 0.77480 -0.03000
C 	C 	0.36810 0.23760 0.82450 -0.17900
C 	C 	0.31500 0.18720 0.85540 0.10700
H 	H 	0.28260 0.04160 0.87410 0.09900
H 	H 	0.36830 0.31010 0.82370 0.08400
C 	C 	0.25650 0.24750 0.88680 -0.02100
C 	C 	0.19450 0.19980 0.91480 -0.05400
C 	C 	0.26250 0.35350 0.88900 -0.05100
C 	C 	0.13730 0.25760 0.94330 -0.03600
H 	H 	0.19000 0.12740 0.91500 0.04100
C 	C 	0.20700 0.41020 0.91790 -0.03500
H 	H 	0.30510 0.38890 0.87050 0.03900
C 	C 	0.13940 0.36620 0.94420 -0.04300
H 	H 	0.09640 0.22230 0.96230 0.03000
H 	H 	0.21720 0.48200 0.91920 0.03500
C 	C 	0.07020 0.43110 0.97260 0.14100
H 	H 	0.95690 0.31910 0.98290 0.06800
H 	H 	0.95710 0.45630 0.92900 0.10100
H 	H 	0.18330 0.45640 0.01690 0.10800
N 	N 	0.57860 0.92130 0.70590 -0.25300
C 	C 	0.53030 0.87120 0.67700 0.10100
C 	C 	0.68240 0.92100 0.70510 0.08700
C 	C 	0.58030 0.81720 0.64580 -0.17000
H 	H 	0.45770 0.87160 0.67710 -0.02900
H 	H 	0.71870 0.95760 0.72520 -0.03000
C 	C 	0.73760 0.86810 0.67550 -0.16200
C 	C 	0.68720 0.81500 0.64460 0.07800
H 	H 	0.54160 0.78260 0.62590 0.08300
H 	H 	0.81010 0.86830 0.67630 0.07300
C 	C 	0.74750 0.75650 0.61320 0.01200
C 	C 	0.69980 0.69450 0.58520 -0.09500
C 	C 	0.85350 0.76250 0.61100 -0.09400
C 	C 	0.75760 0.63730 0.55670 0.01000
H 	H 	0.62740 0.69000 0.58500 0.05100
C 	C 	0.91020 0.70700 0.58210 0.01600
H 	H 	0.88890 0.80510 0.62950 0.05000
C 	C 	0.86620 0.63940 0.55580 -0.10900
H 	H 	0.72230 0.59640 0.53770 0.01200
H 	H 	0.98200 0.71720 0.58080 0.01000
C 	C 	0.93110 0.57020 0.52740 0.25700
H 	H 	0.81910 0.45690 0.51710 0.14200
H 	H 	0.95630 0.45710 0.57100 0.13300
H 	H 	0.95640 0.68330 0.48310 0.12900
N 	N 	0.42140 0.07870 0.70590 -0.24800
C 	C 	0.46970 0.12880 0.67700 0.10300
C 	C 	0.31760 0.07900 0.70510 0.09100
C 	C 	0.41970 0.18280 0.64580 -0.16800
H 	H 	0.54230 0.12840 0.67710 -0.02500
H 	H 	0.28130 0.04240 0.72520 -0.02300
C 	C 	0.26240 0.13190 0.67550 -0.15900
C 	C 	0.31280 0.18500 0.64460 0.08000
H 	H 	0.45840 0.21740 0.62590 0.08300
H 	H 	0.18990 0.13170 0.67630 0.07900
C 	C 	0.25250 0.24350 0.61320 0.01700
C 	C 	0.30020 0.30550 0.58520 -0.09700
C 	C 	0.14650 0.23750 0.61100 -0.09400
C 	C 	0.24240 0.36270 0.55670 0.01400
H 	H 	0.37260 0.31000 0.58500 0.05200
C 	C 	0.08980 0.29300 0.58210 0.02200
H 	H 	0.11110 0.19490 0.62950 0.05800
C 	C 	0.13380 0.36060 0.55580 -0.11200
H 	H 	0.27770 0.40360 0.53770 0.01000
H 	H 	0.01800 0.28280 0.58080 0.02000
C 	C 	0.06890 0.42980 0.52740 0.27600
H 	H 	0.18090 0.54310 0.51710 0.14500
H 	H 	0.04370 0.54290 0.57100 0.14500
H 	H 	0.04360 0.31670 0.48310 0.14300
N 	N 	0.42130 0.92140 0.20590 -0.24800
C 	C 	0.37120 0.96970 0.17700 0.07400
C 	C 	0.42100 0.81760 0.20510 0.08900
C 	C 	0.31720 0.91970 0.14580 -0.15900
H 	H 	0.37160 0.04230 0.17710 -0.00900
H 	H 	0.45760 0.78130 0.22520 -0.02700
C 	C 	0.36810 0.76240 0.17550 -0.16200
C 	C 	0.31500 0.81280 0.14460 0.08400
H 	H 	0.28260 0.95840 0.12590 0.07800
H 	H 	0.36830 0.68990 0.17630 0.07800
C 	C 	0.25650 0.75250 0.11320 -0.00700
C 	C 	0.19450 0.80020 0.08520 -0.06400
C 	C 	0.26250 0.64650 0.11100 -0.06200
C 	C 	0.13730 0.74240 0.05670 -0.02500
H 	H 	0.19000 0.87260 0.08500 0.04300
C 	C 	0.20700 0.58980 0.08210 -0.02300
H 	H 	0.30510 0.61110 0.12950 0.04400
C 	C 	0.13940 0.63380 0.05580 -0.05100
H 	H 	0.09640 0.77770 0.03770 0.03300
H 	H 	0.21720 0.51800 0.08080 0.03300
C 	C 	0.07020 0.56890 0.02740 0.17100
H 	H 	0.95690 0.68090 0.01710 0.08300
H 	H 	0.95710 0.54370 0.07100 0.10500
H 	H 	0.18330 0.54360 0.98310 0.09200
N 	N 	0.57870 0.07860 0.20590 -0.25700
C 	C 	0.62880 0.03030 0.17700 0.14100
C 	C 	0.57900 0.18240 0.20510 0.10000
C 	C 	0.68280 0.08030 0.14580 -0.19900
H 	H 	0.62840 0.95770 0.17710 -0.04900
H 	H 	0.54240 0.21870 0.22520 -0.03000
C 	C 	0.63190 0.23760 0.17550 -0.18000
C 	C 	0.68500 0.18720 0.14460 0.10600
H 	H 	0.71740 0.04160 0.12590 0.09800
H 	H 	0.63170 0.31010 0.17630 0.08400
C 	C 	0.74350 0.24750 0.11320 -0.02200
C 	C 	0.80550 0.19980 0.08520 -0.05400
C 	C 	0.73750 0.35350 0.11100 -0.05000
C 	C 	0.86270 0.25760 0.05670 -0.03700
H 	H 	0.81000 0.12740 0.08500 0.04000
C 	C 	0.79300 0.41020 0.08210 -0.03400
H 	H 	0.69490 0.38890 0.12950 0.04000
C 	C 	0.86060 0.36620 0.05580 -0.04400
H 	H 	0.90360 0.22230 0.03770 0.03300
H 	H 	0.78280 0.48200 0.08080 0.03600
C 	C 	0.92980 0.43110 0.02740 0.15100
H 	H 	0.04310 0.31910 0.01710 0.09400
H 	H 	0.04290 0.45630 0.07100 0.11600
H 	H 	0.81670 0.45640 0.98310 0.08900
Cu	Cu	0.50000 -0.00000 0.25000 0.85700
Cu	Cu	0.50000 -0.00000 0.75000 0.85700
C 	C 	0.13640 0.50000 0.50000 -0.40600
C 	C 	0.86360 0.50000 0.50000 -0.39400
C 	C 	-0.00000 0.63640 -0.00000 -0.20800
C 	C 	-0.00000 0.36360 -0.00000 -0.20700
C 	C 	-0.00000 0.50000 0.44650 -0.37400
C 	C 	-0.00000 0.50000 0.94650 -0.26000
C 	C 	0.00000 0.50000 0.55350 -0.37400
C 	C 	-0.00000 0.50000 0.05350 -0.27700
C 	C 	-0.00000 0.63890 0.50000 -0.36800
C 	C 	-0.00000 0.36110 0.50000 -0.37000
C 	C 	0.86110 0.50000 -0.00000 -0.24100
C 	C 	0.13890 0.50000 -0.00000 -0.25200
N 	N 	0.92140 0.42130 0.79410 -0.24800
C 	C 	0.96970 0.37120 0.82300 0.07500
C 	C 	0.81760 0.42100 0.79490 0.09000
C 	C 	0.91970 0.31720 0.85420 -0.15900
H 	H 	0.04230 0.37160 0.82290 -0.00900
H 	H 	0.78130 0.45760 0.77480 -0.02700
C 	C 	0.76240 0.36810 0.82450 -0.16300
C 	C 	0.81280 0.31500 0.85540 0.08500
H 	H 	0.95840 0.28260 0.87410 0.07800
H 	H 	0.68990 0.36830 0.82370 0.07800
C 	C 	0.75250 0.25650 0.88680 -0.00900
C 	C 	0.80020 0.19450 0.91480 -0.06300
C 	C 	0.64650 0.26250 0.88900 -0.06000
C 	C 	0.74240 0.13730 0.94330 -0.03100
H 	H 	0.87260 0.19000 0.91500 0.04100
C 	C 	0.58980 0.20700 0.91790 -0.02800
H 	H 	0.61110 0.30510 0.87050 0.04300
C 	C 	0.63380 0.13940 0.94420 -0.04800
H 	H 	0.77770 0.09640 0.96230 0.02600
H 	H 	0.51800 0.21720 0.91920 0.03300
C 	C 	0.56890 0.07020 0.97260 0.14300
H 	H 	0.68090 0.95690 0.98290 0.06800
H 	H 	0.54370 0.95710 0.92900 0.10100
H 	H 	0.54360 0.18330 0.01690 0.10800
N 	N 	0.07860 0.57870 0.79410 -0.25700
C 	C 	0.03030 0.62880 0.82300 0.14100
C 	C 	0.18240 0.57900 0.79490 0.10000
C 	C 	0.08030 0.68280 0.85420 -0.19900
H 	H 	0.95770 0.62840 0.82290 -0.04900
H 	H 	0.21870 0.54240 0.77480 -0.03000
C 	C 	0.23760 0.63190 0.82450 -0.18000
C 	C 	0.18720 0.68500 0.85540 0.10700
H 	H 	0.04160 0.71740 0.87410 0.09900
H 	H 	0.31010 0.63170 0.82370 0.08400
C 	C 	0.24750 0.74350 0.88680 -0.02400
C 	C 	0.19980 0.80550 0.91480 -0.05400
C 	C 	0.35350 0.73750 0.88900 -0.04900
C 	C 	0.25760 0.86270 0.94330 -0.04200
H 	H 	0.12740 0.81000 0.91500 0.03800
C 	C 	0.41020 0.79300 0.91790 -0.04000
H 	H 	0.38890 0.69490 0.87050 0.03800
C 	C 	0.36620 0.86060 0.94420 -0.04100
H 	H 	0.22230 0.90360 0.96230 0.02600
H 	H 	0.48200 0.78280 0.91920 0.03700
C 	C 	0.43110 0.92980 0.97260 0.12400
H 	H 	0.31910 0.04310 0.98290 0.07800
H 	H 	0.45630 0.04290 0.92900 0.11000
H 	H 	0.45640 0.81670 0.01690 0.10500
N 	N 	0.07870 0.42140 0.29410 -0.24800
C 	C 	0.12880 0.46970 0.32300 0.10300
C 	C 	0.07900 0.31760 0.29490 0.09100
C 	C 	0.18280 0.41970 0.35420 -0.16800
H 	H 	0.12840 0.54230 0.32290 -0.02500
H 	H 	0.04240 0.28130 0.27480 -0.02300
C 	C 	0.13190 0.26240 0.32450 -0.15900
C 	C 	0.18500 0.31280 0.35540 0.08000
H 	H 	0.21740 0.45840 0.37410 0.08300
H 	H 	0.13170 0.18990 0.32370 0.07900
C 	C 	0.24350 0.25250 0.38680 0.01600
C 	C 	0.30550 0.30020 0.41480 -0.09700
C 	C 	0.23750 0.14650 0.38900 -0.09400
C 	C 	0.36270 0.24240 0.44330 0.01400
H 	H 	0.31000 0.37260 0.41500 0.05200
C 	C 	0.29300 0.08980 0.41790 0.02200
H 	H 	0.19490 0.11110 0.37050 0.05800
C 	C 	0.36060 0.13380 0.44420 -0.11200
H 	H 	0.40360 0.27770 0.46230 0.01000
H 	H 	0.28280 0.01800 0.41920 0.02000
C 	C 	0.42980 0.06890 0.47260 0.27600
H 	H 	0.54310 0.18090 0.48290 0.14500
H 	H 	0.54290 0.04370 0.42900 0.14500
H 	H 	0.31670 0.04360 0.51690 0.14300
N 	N 	0.92130 0.57860 0.29410 -0.25300
C 	C 	0.87120 0.53030 0.32300 0.10100
C 	C 	0.92100 0.68240 0.29490 0.08700
C 	C 	0.81720 0.58030 0.35420 -0.17000
H 	H 	0.87160 0.45770 0.32290 -0.02900
H 	H 	0.95760 0.71870 0.27480 -0.03000
C 	C 	0.86810 0.73760 0.32450 -0.16200
C 	C 	0.81500 0.68720 0.35540 0.07800
H 	H 	0.78260 0.54160 0.37410 0.08300
H 	H 	0.86830 0.81010 0.32370 0.07300
C 	C 	0.75650 0.74750 0.38680 0.01200
C 	C 	0.69450 0.69980 0.41480 -0.09500
C 	C 	0.76250 0.85350 0.38900 -0.09400
C 	C 	0.63730 0.75760 0.44330 0.01000
H 	H 	0.69000 0.62740 0.41500 0.05100
C 	C 	0.70700 0.91020 0.41790 0.01600
H 	H 	0.80510 0.88890 0.37050 0.05000
C 	C 	0.63940 0.86620 0.44420 -0.10900
H 	H 	0.59640 0.72230 0.46230 0.01200
H 	H 	0.71720 0.98200 0.41920 0.01000
C 	C 	0.57020 0.93110 0.47260 0.25700
H 	H 	0.45690 0.81910 0.48290 0.14200
H 	H 	0.45710 0.95630 0.42900 0.13300
H 	H 	0.68330 0.95640 0.51690 0.12900
N 	N 	0.07860 0.42130 0.20590 -0.25700
C 	C 	0.03030 0.37120 0.17700 0.14200
C 	C 	0.18240 0.42100 0.20510 0.10000
C 	C 	0.08030 0.31720 0.14580 -0.19800
H 	H 	0.95770 0.37160 0.17710 -0.04900
H 	H 	0.21870 0.45760 0.22520 -0.03000
C 	C 	0.23760 0.36810 0.17550 -0.17900
C 	C 	0.18720 0.31500 0.14460 0.10700
H 	H 	0.04160 0.28260 0.12590 0.09900
H 	H 	0.31010 0.36830 0.17630 0.08400
C 	C 	0.24750 0.25650 0.11320 -0.01900
C 	C 	0.19980 0.19450 0.08520 -0.05500
C 	C 	0.35350 0.26250 0.11100 -0.05200
C 	C 	0.25760 0.13730 0.05670 -0.03100
H 	H 	0.12740 0.19000 0.08500 0.04300
C 	C 	0.41020 0.20700 0.08210 -0.02900
H 	H 	0.38890 0.30510 0.12950 0.04100
C 	C 	0.36620 0.13940 0.05580 -0.04600
H 	H 	0.22230 0.09640 0.03770 0.03700
H 	H 	0.48200 0.21720 0.08080 0.03500
C 	C 	0.43110 0.07020 0.02740 0.16900
H 	H 	0.31910 0.95690 0.01710 0.08300
H 	H 	0.45630 0.95710 0.07100 0.10500
H 	H 	0.45640 0.18330 0.98310 0.09200
N 	N 	0.92140 0.57870 0.20590 -0.24800
C 	C 	0.96970 0.62880 0.17700 0.07400
C 	C 	0.81760 0.57900 0.20510 0.08900
C 	C 	0.91970 0.68280 0.14580 -0.16000
H 	H 	0.04230 0.62840 0.17710 -0.01000
H 	H 	0.78130 0.54240 0.22520 -0.02700
C 	C 	0.76240 0.63190 0.17550 -0.16300
C 	C 	0.81280 0.68500 0.14460 0.08400
H 	H 	0.95840 0.71740 0.12590 0.07700
H 	H 	0.68990 0.63170 0.17630 0.07800
C 	C 	0.75250 0.74350 0.11320 -0.01000
C 	C 	0.80020 0.80550 0.08520 -0.06300
C 	C 	0.64650 0.73750 0.11100 -0.06000
C 	C 	0.74240 0.86270 0.05670 -0.03100
H 	H 	0.87260 0.81000 0.08500 0.04000
C 	C 	0.58980 0.79300 0.08210 -0.02700
H 	H 	0.61110 0.69490 0.12950 0.04300
C 	C 	0.63380 0.86060 0.05580 -0.04900
H 	H 	0.77770 0.90360 0.03770 0.02900
H 	H 	0.51800 0.78280 0.08080 0.03400
C 	C 	0.56890 0.92980 0.02740 0.15300
H 	H 	0.68090 0.04310 0.01710 0.09400
H 	H 	0.54370 0.04290 0.07100 0.11600
H 	H 	0.54360 0.81670 0.98310 0.08900
N 	N 	0.92130 0.42140 0.70590 -0.25300
C 	C 	0.87120 0.46970 0.67700 0.10100
C 	C 	0.92100 0.31760 0.70510 0.08800
C 	C 	0.81720 0.41970 0.64580 -0.17000
H 	H 	0.87160 0.54230 0.67710 -0.03000
H 	H 	0.95760 0.28130 0.72520 -0.02900
C 	C 	0.86810 0.26240 0.67550 -0.16200
C 	C 	0.81500 0.31280 0.64460 0.07900
H 	H 	0.78260 0.45840 0.62590 0.08300
H 	H 	0.86830 0.18990 0.67630 0.07700
C 	C 	0.75650 0.25250 0.61320 0.01400
C 	C 	0.69450 0.30020 0.58520 -0.09700
C 	C 	0.76250 0.14650 0.61100 -0.09400
C 	C 	0.63730 0.24240 0.55670 0.01300
H 	H 	0.69000 0.37260 0.58500 0.05200
C 	C 	0.70700 0.08980 0.58210 0.02000
H 	H 	0.80510 0.11110 0.62950 0.05500
C 	C 	0.63940 0.13380 0.55580 -0.11100
H 	H 	0.59640 0.27770 0.53770 0.01100
H 	H 	0.71720 0.01800 0.58080 0.01900
C 	C 	0.57020 0.06890 0.52740 0.27600
H 	H 	0.45690 0.18090 0.51710 0.14500
H 	H 	0.45710 0.04370 0.57100 0.14500
H 	H 	0.68330 0.04360 0.48310 0.14100
N 	N 	0.07870 0.57860 0.70590 -0.24800
C 	C 	0.12880 0.53030 0.67700 0.10300
C 	C 	0.07900 0.68240 0.70510 0.09000
C 	C 	0.18280 0.58030 0.64580 -0.16800
H 	H 	0.12840 0.45770 0.67710 -0.02500
H 	H 	0.04240 0.71870 0.72520 -0.02500
C 	C 	0.13190 0.73760 0.67550 -0.15900
C 	C 	0.18500 0.68720 0.64460 0.07900
H 	H 	0.21740 0.54160 0.62590 0.08300
H 	H 	0.13170 0.81010 0.67630 0.07600
C 	C 	0.24350 0.74750 0.61320 0.01500
C 	C 	0.30550 0.69980 0.58520 -0.09600
C 	C 	0.23750 0.85350 0.61100 -0.09400
C 	C 	0.36270 0.75760 0.55670 0.01100
H 	H 	0.31000 0.62740 0.58500 0.05200
C 	C 	0.29300 0.91020 0.58210 0.01800
H 	H 	0.19490 0.88890 0.62950 0.05300
C 	C 	0.36060 0.86620 0.55580 -0.10900
H 	H 	0.40360 0.72230 0.53770 0.01100
H 	H 	0.28280 0.98200 0.58080 0.01000
C 	C 	0.42980 0.93110 0.52740 0.25700
H 	H 	0.54310 0.81910 0.51710 0.14200
H 	H 	0.54290 0.95630 0.57100 0.13300
H 	H 	0.31670 0.95640 0.48310 0.13000
Cu	Cu	-0.00000 0.50000 0.25000 0.85700
Cu	Cu	0.00000 0.50000 0.75000 0.85700
C 	C 	0.63640 0.00000 -0.00000 -0.20800
C 	C 	0.36360 0.00000 -0.00000 -0.20700
C 	C 	0.50000 0.13640 0.50000 -0.40600
C 	C 	0.50000 0.86360 0.50000 -0.39400
C 	C 	0.50000 -0.00000 0.94650 -0.26000
C 	C 	0.50000 -0.00000 0.44650 -0.37400
C 	C 	0.50000 -0.00000 0.05350 -0.27700
C 	C 	0.50000 0.00000 0.55350 -0.37400
C 	C 	0.50000 0.13890 -0.00000 -0.25200
C 	C 	0.50000 0.86110 -0.00000 -0.24100
C 	C 	0.36110 -0.00000 0.50000 -0.37000
C 	C 	0.63890 -0.00000 0.50000 -0.36800
