data_crystal

_cell_length_a 16.72950
_cell_length_b 18.14040
_cell_length_c 33.47390
_cell_angle_alpha 90.00000
_cell_angle_beta  90.00000
_cell_angle_gamma 117.45900

_symmetry_space_group_name_	'P 1'
_symmetry_space_group_name_H-M	'P 1'

loop_
_symmetry_equiv_pos_as_xyz
  x,y,z

loop_
_atom_site_label
_atom_site_type_symbol
_atom_site_fract_x
_atom_site_fract_y
_atom_site_fract_z
_atom_site_charge
Dy	Dy	0.73307 0.46615 0.25000 2.16800
Dy	Dy	0.26693 0.53385 0.25000 2.15900
Dy	Dy	0.26693 0.53385 0.75000 2.15900
Dy	Dy	0.73307 0.46615 0.75000 2.16800
Dy	Dy	-0.00000 0.50000 0.28377 1.87200
Dy	Dy	0.50000 0.50000 0.21623 2.02200
Dy	Dy	-0.00000 0.50000 0.71623 1.87200
Dy	Dy	0.50000 0.50000 0.78377 2.02300
Zn	Zn	0.64490 0.05994 -0.00000 1.17200
Zn	Zn	0.35510 0.94006 -0.00000 1.17000
Zn	Zn	0.41504 0.05994 0.50000 1.17300
Zn	Zn	0.58496 0.94006 0.50000 1.17400
Zn	Zn	-0.00000 0.00000 0.50000 1.15500
Zn	Zn	-0.00000 0.00000 -0.00000 1.15200
H 	H 	0.82070 0.36460 0.03660 0.07400
H 	H 	0.72490 0.12960 0.14660 0.06700
H 	H 	0.63290 0.97960 0.14570 0.06200
H 	H 	0.43740 0.75960 0.03540 0.06900
H 	H 	0.88260 0.23600 0.11670 0.12300
H 	H 	0.94520 0.32240 0.17110 0.00600
H 	H 	0.76860 0.41000 0.15900 -0.03900
H 	H 	0.71270 0.33180 0.10110 0.11400
H 	H 	0.45160 0.88260 0.13620 0.12000
H 	H 	0.39890 0.77260 0.18230 -0.01700
H 	H 	0.54200 0.67740 0.12720 -0.02800
H 	H 	0.59290 0.78600 0.08090 0.10900
H 	H 	0.90160 0.69880 0.46320 0.06300
H 	H 	0.98000 0.92660 0.35260 0.02900
H 	H 	0.76470 0.62980 0.35320 -0.00600
H 	H 	0.79100 0.72780 0.40300 0.10200
H 	H 	0.02190 0.70640 0.33740 -0.08500
H 	H 	0.05380 0.81580 0.38150 0.03600
H 	H 	0.17930 0.63540 0.03660 0.06100
H 	H 	0.27510 0.87040 0.14660 0.06000
H 	H 	0.36710 0.02040 0.14570 0.06500
H 	H 	0.56260 0.24040 0.03540 0.07000
H 	H 	0.11740 0.76400 0.11670 0.10200
H 	H 	0.05480 0.67760 0.17110 -0.02900
H 	H 	0.23140 0.59000 0.15900 -0.04600
H 	H 	0.28730 0.66820 0.10110 0.11600
H 	H 	0.54840 0.11740 0.13620 0.12100
H 	H 	0.60110 0.22740 0.18230 -0.01600
H 	H 	0.45800 0.32260 0.12720 -0.02800
H 	H 	0.40710 0.21400 0.08090 0.10800
H 	H 	0.09840 0.30120 0.46320 0.05400
H 	H 	0.02000 0.07340 0.35260 0.10100
H 	H 	0.23530 0.37020 0.35320 -0.00300
H 	H 	0.20900 0.27220 0.40300 0.10800
H 	H 	0.97810 0.29360 0.33740 0.05800
H 	H 	0.94620 0.18420 0.38150 0.18200
H 	H 	0.54390 0.36460 0.46340 0.06100
H 	H 	0.40470 0.12960 0.35340 0.06300
H 	H 	0.34670 0.97960 0.35430 0.05700
H 	H 	0.32220 0.75960 0.46460 0.05700
H 	H 	0.35340 0.23600 0.38330 0.11100
H 	H 	0.37720 0.32240 0.32890 -0.01300
H 	H 	0.64140 0.41000 0.34100 -0.04200
H 	H 	0.61910 0.33180 0.39890 0.11800
H 	H 	0.43100 0.88260 0.36380 0.11900
H 	H 	0.37370 0.77260 0.31770 -0.01500
H 	H 	0.13540 0.67740 0.37280 -0.03500
H 	H 	0.19310 0.78600 0.41910 0.10000
H 	H 	0.79720 0.69880 0.03680 0.06600
H 	H 	0.94660 0.92660 0.14740 0.03100
H 	H 	0.86510 0.62980 0.14680 0.00400
H 	H 	0.93680 0.72780 0.09700 0.11800
H 	H 	0.68450 0.70640 0.16260 -0.01500
H 	H 	0.76200 0.81580 0.11850 0.11100
H 	H 	0.45610 0.63540 0.46340 0.06000
H 	H 	0.59530 0.87040 0.35340 0.06300
H 	H 	0.65330 0.02040 0.35430 0.06900
H 	H 	0.67780 0.24040 0.46460 0.06200
H 	H 	0.64660 0.76400 0.38330 0.11400
H 	H 	0.62280 0.67760 0.32890 -0.01000
H 	H 	0.35860 0.59000 0.34100 -0.04300
H 	H 	0.38090 0.66820 0.39890 0.11400
H 	H 	0.56900 0.11740 0.36380 0.11900
H 	H 	0.62630 0.22740 0.31770 -0.01400
H 	H 	0.86460 0.32260 0.37280 -0.01300
H 	H 	0.80690 0.21400 0.41910 0.11600
H 	H 	0.20280 0.30120 0.03680 0.06400
H 	H 	0.05340 0.07340 0.14740 0.10000
H 	H 	0.13490 0.37020 0.14680 -0.01700
H 	H 	0.06320 0.27220 0.09700 0.09400
H 	H 	0.31550 0.29360 0.16260 -0.02000
H 	H 	0.23800 0.18420 0.11850 0.11100
H 	H 	0.17930 0.63540 0.96340 0.04800
H 	H 	0.27510 0.87040 0.85340 0.05900
H 	H 	0.36710 0.02040 0.85430 0.06500
H 	H 	0.56260 0.24040 0.96460 0.05000
H 	H 	0.11740 0.76400 0.88330 0.10200
H 	H 	0.05480 0.67760 0.82890 -0.02800
H 	H 	0.23140 0.59000 0.84100 -0.04500
H 	H 	0.28730 0.66820 0.89890 0.11700
H 	H 	0.54840 0.11740 0.86380 0.12000
H 	H 	0.60110 0.22740 0.81770 -0.01600
H 	H 	0.45800 0.32260 0.87280 -0.02700
H 	H 	0.40710 0.21400 0.91910 0.11000
H 	H 	0.09840 0.30120 0.53680 0.05400
H 	H 	0.02000 0.07340 0.64740 0.10100
H 	H 	0.23530 0.37020 0.64680 -0.00300
H 	H 	0.20900 0.27220 0.59700 0.10800
H 	H 	0.97810 0.29360 0.66260 0.05700
H 	H 	0.94620 0.18420 0.61850 0.18200
H 	H 	0.82070 0.36460 0.96340 0.06100
H 	H 	0.72490 0.12960 0.85340 0.06700
H 	H 	0.63290 0.97960 0.85430 0.06100
H 	H 	0.43740 0.75960 0.96460 0.05000
H 	H 	0.88260 0.23600 0.88330 0.12300
H 	H 	0.94520 0.32240 0.82890 0.00700
H 	H 	0.76860 0.41000 0.84100 -0.03900
H 	H 	0.71270 0.33180 0.89890 0.11500
H 	H 	0.45160 0.88260 0.86380 0.11900
H 	H 	0.39890 0.77260 0.81770 -0.01600
H 	H 	0.54200 0.67740 0.87280 -0.02700
H 	H 	0.59290 0.78600 0.91910 0.11000
H 	H 	0.90160 0.69880 0.53680 0.06300
H 	H 	0.98000 0.92660 0.64740 0.02900
H 	H 	0.76470 0.62980 0.64680 -0.00600
H 	H 	0.79100 0.72780 0.59700 0.10200
H 	H 	0.02190 0.70640 0.66260 -0.08500
H 	H 	0.05380 0.81580 0.61850 0.03600
H 	H 	0.45610 0.63540 0.53660 0.06000
H 	H 	0.59530 0.87040 0.64660 0.06300
H 	H 	0.65330 0.02040 0.64570 0.06900
H 	H 	0.67780 0.24040 0.53540 0.06200
H 	H 	0.64660 0.76400 0.61670 0.11400
H 	H 	0.62280 0.67760 0.67110 -0.01000
H 	H 	0.35860 0.59000 0.65900 -0.04300
H 	H 	0.38090 0.66820 0.60110 0.11400
H 	H 	0.56900 0.11740 0.63620 0.11900
H 	H 	0.62630 0.22740 0.68230 -0.01400
H 	H 	0.86460 0.32260 0.62720 -0.01300
H 	H 	0.80690 0.21400 0.58090 0.11600
H 	H 	0.20280 0.30120 0.96320 0.05200
H 	H 	0.05340 0.07340 0.85260 0.09900
H 	H 	0.13490 0.37020 0.85320 -0.01700
H 	H 	0.06320 0.27220 0.90300 0.09500
H 	H 	0.31550 0.29360 0.83740 -0.01900
H 	H 	0.23800 0.18420 0.88150 0.11100
H 	H 	0.54390 0.36460 0.53660 0.06100
H 	H 	0.40470 0.12960 0.64660 0.06300
H 	H 	0.34670 0.97960 0.64570 0.05700
H 	H 	0.32220 0.75960 0.53540 0.05700
H 	H 	0.35340 0.23600 0.61670 0.11100
H 	H 	0.37720 0.32240 0.67110 -0.01300
H 	H 	0.64140 0.41000 0.65900 -0.04200
H 	H 	0.61910 0.33180 0.60110 0.11800
H 	H 	0.43100 0.88260 0.63620 0.11900
H 	H 	0.37370 0.77260 0.68230 -0.01500
H 	H 	0.13540 0.67740 0.62720 -0.03500
H 	H 	0.19310 0.78600 0.58090 0.10000
H 	H 	0.79720 0.69880 0.96320 0.05500
H 	H 	0.94660 0.92660 0.85260 0.03100
H 	H 	0.86510 0.62980 0.85320 0.00400
H 	H 	0.93680 0.72780 0.90300 0.11900
H 	H 	0.68450 0.70640 0.83740 -0.01500
H 	H 	0.76200 0.81580 0.88150 0.11100
C 	C 	0.79426 0.31852 0.01995 -0.11200
C 	C 	0.74611 0.23442 0.03273 0.11500
C 	C 	0.74166 0.20752 0.07212 -0.17400
C 	C 	0.69972 0.12624 0.08356 0.10600
C 	C 	0.69720 0.09720 0.12430 -0.09000
C 	C 	0.64550 0.01460 0.12380 -0.08400
C 	C 	0.61384 0.99068 0.08360 0.10000
C 	C 	0.55780 0.91020 0.07170 -0.17200
C 	C 	0.53360 0.88560 0.03210 0.09000
C 	C 	0.47291 0.80402 0.01890 -0.12800
C 	C 	0.78940 0.27160 0.10422 0.18700
C 	C 	0.86030 0.27200 0.12450 -0.24000
C 	C 	0.89550 0.32100 0.15810 0.16100
C 	C 	0.85960 0.37140 0.17110 -0.23700
C 	C 	0.79200 0.37540 0.15007 0.17700
C 	C 	0.75677 0.32694 0.11606 -0.24200
C 	C 	0.88870 0.41500 0.21010 0.47700
C 	C 	0.52550 0.84280 0.10410 0.18400
C 	C 	0.46940 0.84140 0.13430 -0.24600
C 	C 	0.43860 0.77580 0.16220 0.16600
C 	C 	0.46680 0.71840 0.16030 -0.23800
C 	C 	0.52550 0.71960 0.12900 0.14800
C 	C 	0.55340 0.78260 0.10110 -0.24200
C 	C 	0.43600 0.64720 0.19100 0.52300
C 	C 	0.91550 0.74520 0.48020 -0.08500
C 	C 	0.93940 0.82560 0.46830 0.10900
C 	C 	0.94850 0.85240 0.42740 -0.15100
C 	C 	0.97650 0.93140 0.41520 0.10800
C 	C 	0.98820 0.96000 0.37490 0.05500
C 	C 	0.92750 0.78600 0.39680 0.14400
C 	C 	0.82370 0.66620 0.36000 0.15000
C 	C 	0.83850 0.72800 0.38860 -0.21400
C 	C 	0.89120 0.65780 0.34210 -0.25000
C 	C 	0.97540 0.71160 0.35010 0.23800
C 	C 	0.99440 0.77660 0.37730 -0.14800
C 	C 	0.87070 0.58660 0.31320 0.47000
C 	C 	0.20574 0.68148 0.01995 -0.11900
C 	C 	0.25389 0.76558 0.03273 0.10900
C 	C 	0.25834 0.79248 0.07212 -0.17900
C 	C 	0.30028 0.87376 0.08356 0.10000
C 	C 	0.30280 0.90280 0.12430 -0.08800
C 	C 	0.35450 0.98540 0.12380 -0.09900
C 	C 	0.38616 0.00932 0.08360 0.10500
C 	C 	0.44220 0.08980 0.07170 -0.17600
C 	C 	0.46640 0.11440 0.03210 0.09100
C 	C 	0.52709 0.19598 0.01890 -0.13000
C 	C 	0.21060 0.72840 0.10422 0.18700
C 	C 	0.13970 0.72800 0.12450 -0.25700
C 	C 	0.10450 0.67900 0.15810 0.16600
C 	C 	0.14040 0.62860 0.17110 -0.26300
C 	C 	0.20800 0.62460 0.15007 0.18300
C 	C 	0.24323 0.67306 0.11606 -0.25300
C 	C 	0.11130 0.58500 0.21010 0.48100
C 	C 	0.47450 0.15720 0.10410 0.18400
C 	C 	0.53060 0.15860 0.13430 -0.24700
C 	C 	0.56140 0.22420 0.16220 0.16600
C 	C 	0.53320 0.28160 0.16030 -0.23800
C 	C 	0.47450 0.28040 0.12900 0.14700
C 	C 	0.44660 0.21740 0.10110 -0.24300
C 	C 	0.56400 0.35280 0.19100 0.52300
C 	C 	0.08450 0.25480 0.48020 -0.09900
C 	C 	0.06060 0.17440 0.46830 0.11000
C 	C 	0.05150 0.14760 0.42740 -0.21700
C 	C 	0.02350 0.06860 0.41520 0.14400
C 	C 	0.01180 0.04000 0.37490 -0.23900
C 	C 	0.07250 0.21400 0.39680 0.20800
C 	C 	0.17630 0.33380 0.36000 0.13400
C 	C 	0.16150 0.27200 0.38860 -0.23500
C 	C 	0.10880 0.34220 0.34210 -0.20100
C 	C 	0.02460 0.28840 0.35010 0.06800
C 	C 	0.00560 0.22340 0.37730 -0.32100
C 	C 	0.12930 0.41340 0.31320 0.44700
C 	C 	0.52426 0.31852 0.48005 -0.08900
C 	C 	0.48831 0.23442 0.46727 0.10600
C 	C 	0.46586 0.20752 0.42788 -0.17400
C 	C 	0.42652 0.12624 0.41644 0.10300
C 	C 	0.40000 0.09720 0.37570 -0.09400
C 	C 	0.36910 0.01460 0.37620 -0.08400
C 	C 	0.37684 0.99068 0.41640 0.09500
C 	C 	0.35240 0.91020 0.42830 -0.16800
C 	C 	0.35200 0.88560 0.46790 0.07800
C 	C 	0.33111 0.80402 0.48110 -0.09600
C 	C 	0.48220 0.27160 0.39578 0.18700
C 	C 	0.41170 0.27200 0.37550 -0.24900
C 	C 	0.42550 0.32100 0.34190 0.16500
C 	C 	0.51180 0.37140 0.32890 -0.25300
C 	C 	0.58340 0.37540 0.34993 0.18200
C 	C 	0.57017 0.32694 0.38394 -0.24800
C 	C 	0.52630 0.41500 0.28990 0.48300
C 	C 	0.31730 0.84280 0.39590 0.17800
C 	C 	0.37200 0.84140 0.36570 -0.24300
C 	C 	0.33720 0.77580 0.33780 0.16200
C 	C 	0.25160 0.71840 0.33970 -0.23600
C 	C 	0.19410 0.71960 0.37100 0.14300
C 	C 	0.22920 0.78260 0.39890 -0.24000
C 	C 	0.21120 0.64720 0.30900 0.51600
C 	C 	0.82970 0.74520 0.01980 -0.11400
C 	C 	0.88620 0.82560 0.03170 0.11900
C 	C 	0.90390 0.85240 0.07260 -0.17200
C 	C 	0.95490 0.93140 0.08480 0.11600
C 	C 	0.97180 0.96000 0.12510 0.04600
C 	C 	0.85850 0.78600 0.10320 0.17700
C 	C 	0.84250 0.66620 0.14000 0.14700
C 	C 	0.88950 0.72800 0.11140 -0.22200
C 	C 	0.76660 0.65780 0.15790 -0.22800
C 	C 	0.73620 0.71160 0.14990 0.15700
C 	C 	0.78220 0.77660 0.12270 -0.23400
C 	C 	0.71590 0.58660 0.18680 0.46700
C 	C 	0.47574 0.68148 0.48005 -0.08900
C 	C 	0.51169 0.76558 0.46727 0.10600
C 	C 	0.53414 0.79248 0.42788 -0.17200
C 	C 	0.57348 0.87376 0.41644 0.10200
C 	C 	0.60000 0.90280 0.37570 -0.08400
C 	C 	0.63090 0.98540 0.37620 -0.09600
C 	C 	0.62316 0.00932 0.41640 0.10700
C 	C 	0.64760 0.08980 0.42830 -0.16800
C 	C 	0.64800 0.11440 0.46790 0.08400
C 	C 	0.66889 0.19598 0.48110 -0.09300
C 	C 	0.51780 0.72840 0.39578 0.18600
C 	C 	0.58830 0.72800 0.37550 -0.24800
C 	C 	0.57450 0.67900 0.34190 0.16500
C 	C 	0.48820 0.62860 0.32890 -0.25100
C 	C 	0.41660 0.62460 0.34993 0.18100
C 	C 	0.42983 0.67306 0.38394 -0.24700
C 	C 	0.47370 0.58500 0.28990 0.48300
C 	C 	0.68270 0.15720 0.39590 0.18000
C 	C 	0.62800 0.15860 0.36570 -0.24000
C 	C 	0.66280 0.22420 0.33780 0.15800
C 	C 	0.74840 0.28160 0.33970 -0.22500
C 	C 	0.80590 0.28040 0.37100 0.14100
C 	C 	0.77080 0.21740 0.39890 -0.23400
C 	C 	0.78880 0.35280 0.30900 0.51000
C 	C 	0.17030 0.25480 0.01980 -0.12100
C 	C 	0.11380 0.17440 0.03170 0.11400
C 	C 	0.09610 0.14760 0.07260 -0.20500
C 	C 	0.04510 0.06860 0.08480 0.14000
C 	C 	0.02820 0.04000 0.12510 -0.23200
C 	C 	0.14150 0.21400 0.10320 0.18300
C 	C 	0.15750 0.33380 0.14000 0.14800
C 	C 	0.11050 0.27200 0.11140 -0.23800
C 	C 	0.23340 0.34220 0.15790 -0.23900
C 	C 	0.26380 0.28840 0.14990 0.16100
C 	C 	0.21780 0.22340 0.12270 -0.24600
C 	C 	0.28410 0.41340 0.18680 0.46800
C 	C 	0.20574 0.68148 0.98005 -0.06800
C 	C 	0.25389 0.76558 0.96727 0.10500
C 	C 	0.25834 0.79248 0.92788 -0.17400
C 	C 	0.30028 0.87376 0.91644 0.10000
C 	C 	0.30280 0.90280 0.87570 -0.08700
C 	C 	0.35450 0.98540 0.87620 -0.10000
C 	C 	0.38616 0.00932 0.91640 0.10600
C 	C 	0.44220 0.08980 0.92830 -0.17000
C 	C 	0.46640 0.11440 0.96790 0.08200
C 	C 	0.52709 0.19598 0.98110 -0.06200
C 	C 	0.21060 0.72840 0.89578 0.18600
C 	C 	0.13970 0.72800 0.87550 -0.25600
C 	C 	0.10450 0.67900 0.84190 0.16600
C 	C 	0.14040 0.62860 0.82890 -0.26200
C 	C 	0.20800 0.62460 0.84993 0.18300
C 	C 	0.24323 0.67306 0.88394 -0.25200
C 	C 	0.11130 0.58500 0.78990 0.48100
C 	C 	0.47450 0.15720 0.89590 0.18100
C 	C 	0.53060 0.15860 0.86570 -0.24500
C 	C 	0.56140 0.22420 0.83780 0.16400
C 	C 	0.53320 0.28160 0.83970 -0.23700
C 	C 	0.47450 0.28040 0.87100 0.14600
C 	C 	0.44660 0.21740 0.89890 -0.24100
C 	C 	0.56400 0.35280 0.80900 0.52300
C 	C 	0.08450 0.25480 0.51980 -0.09900
C 	C 	0.06060 0.17440 0.53170 0.11000
C 	C 	0.05150 0.14760 0.57260 -0.21700
C 	C 	0.02350 0.06860 0.58480 0.14400
C 	C 	0.01180 0.04000 0.62510 -0.23900
C 	C 	0.07250 0.21400 0.60320 0.20800
C 	C 	0.17630 0.33380 0.64000 0.13400
C 	C 	0.16150 0.27200 0.61140 -0.23500
C 	C 	0.10880 0.34220 0.65790 -0.20100
C 	C 	0.02460 0.28840 0.64990 0.06800
C 	C 	0.00560 0.22340 0.62270 -0.32100
C 	C 	0.12930 0.41340 0.68680 0.44700
C 	C 	0.79426 0.31852 0.98005 -0.06200
C 	C 	0.74611 0.23442 0.96727 0.11200
C 	C 	0.74166 0.20752 0.92788 -0.17000
C 	C 	0.69972 0.12624 0.91644 0.10700
C 	C 	0.69720 0.09720 0.87570 -0.09100
C 	C 	0.64550 0.01460 0.87620 -0.08100
C 	C 	0.61384 0.99068 0.91640 0.09800
C 	C 	0.55780 0.91020 0.92830 -0.16500
C 	C 	0.53360 0.88560 0.96790 0.08100
C 	C 	0.47291 0.80402 0.98110 -0.06200
C 	C 	0.78940 0.27160 0.89578 0.18600
C 	C 	0.86030 0.27200 0.87550 -0.23800
C 	C 	0.89550 0.32100 0.84190 0.16100
C 	C 	0.85960 0.37140 0.82890 -0.23700
C 	C 	0.79200 0.37540 0.84993 0.17700
C 	C 	0.75677 0.32694 0.88394 -0.24100
C 	C 	0.88870 0.41500 0.78990 0.47700
C 	C 	0.52550 0.84280 0.89590 0.18000
C 	C 	0.46940 0.84140 0.86570 -0.24400
C 	C 	0.43860 0.77580 0.83780 0.16400
C 	C 	0.46680 0.71840 0.83970 -0.23600
C 	C 	0.52550 0.71960 0.87100 0.14600
C 	C 	0.55340 0.78260 0.89890 -0.23900
C 	C 	0.43600 0.64720 0.80900 0.52200
C 	C 	0.91550 0.74520 0.51980 -0.08500
C 	C 	0.93940 0.82560 0.53170 0.10900
C 	C 	0.94850 0.85240 0.57260 -0.15100
C 	C 	0.97650 0.93140 0.58480 0.10900
C 	C 	0.98820 0.96000 0.62510 0.05500
C 	C 	0.92750 0.78600 0.60320 0.14400
C 	C 	0.82370 0.66620 0.64000 0.15000
C 	C 	0.83850 0.72800 0.61140 -0.21400
C 	C 	0.89120 0.65780 0.65790 -0.25000
C 	C 	0.97540 0.71160 0.64990 0.23700
C 	C 	0.99440 0.77660 0.62270 -0.14800
C 	C 	0.87070 0.58660 0.68680 0.46900
C 	C 	0.47574 0.68148 0.51995 -0.08900
C 	C 	0.51169 0.76558 0.53273 0.10600
C 	C 	0.53414 0.79248 0.57212 -0.17200
C 	C 	0.57348 0.87376 0.58356 0.10200
C 	C 	0.60000 0.90280 0.62430 -0.08400
C 	C 	0.63090 0.98540 0.62380 -0.09600
C 	C 	0.62316 0.00932 0.58360 0.10700
C 	C 	0.64760 0.08980 0.57170 -0.16900
C 	C 	0.64800 0.11440 0.53210 0.08400
C 	C 	0.66889 0.19598 0.51890 -0.09300
C 	C 	0.51780 0.72840 0.60422 0.18600
C 	C 	0.58830 0.72800 0.62450 -0.24800
C 	C 	0.57450 0.67900 0.65810 0.16500
C 	C 	0.48820 0.62860 0.67110 -0.25100
C 	C 	0.41660 0.62460 0.65007 0.18100
C 	C 	0.42983 0.67306 0.61606 -0.24700
C 	C 	0.47370 0.58500 0.71010 0.48300
C 	C 	0.68270 0.15720 0.60410 0.18000
C 	C 	0.62800 0.15860 0.63430 -0.24000
C 	C 	0.66280 0.22420 0.66220 0.15900
C 	C 	0.74840 0.28160 0.66030 -0.22600
C 	C 	0.80590 0.28040 0.62900 0.14100
C 	C 	0.77080 0.21740 0.60110 -0.23400
C 	C 	0.78880 0.35280 0.69100 0.51000
C 	C 	0.17030 0.25480 0.98020 -0.07200
C 	C 	0.11380 0.17440 0.96830 0.11000
C 	C 	0.09610 0.14760 0.92740 -0.20100
C 	C 	0.04510 0.06860 0.91520 0.14000
C 	C 	0.02820 0.04000 0.87490 -0.23000
C 	C 	0.14150 0.21400 0.89680 0.18200
C 	C 	0.15750 0.33380 0.86000 0.14800
C 	C 	0.11050 0.27200 0.88860 -0.23600
C 	C 	0.23340 0.34220 0.84210 -0.23800
C 	C 	0.26380 0.28840 0.85010 0.16100
C 	C 	0.21780 0.22340 0.87730 -0.24500
C 	C 	0.28410 0.41340 0.81320 0.46800
C 	C 	0.52426 0.31852 0.51995 -0.08900
C 	C 	0.48831 0.23442 0.53273 0.10600
C 	C 	0.46586 0.20752 0.57212 -0.17400
C 	C 	0.42652 0.12624 0.58356 0.10300
C 	C 	0.40000 0.09720 0.62430 -0.09400
C 	C 	0.36910 0.01460 0.62380 -0.08400
C 	C 	0.37684 0.99068 0.58360 0.09400
C 	C 	0.35240 0.91020 0.57170 -0.16800
C 	C 	0.35200 0.88560 0.53210 0.07800
C 	C 	0.33111 0.80402 0.51890 -0.09600
C 	C 	0.48220 0.27160 0.60422 0.18700
C 	C 	0.41170 0.27200 0.62450 -0.24900
C 	C 	0.42550 0.32100 0.65810 0.16500
C 	C 	0.51180 0.37140 0.67110 -0.25300
C 	C 	0.58340 0.37540 0.65007 0.18200
C 	C 	0.57017 0.32694 0.61606 -0.24800
C 	C 	0.52630 0.41500 0.71010 0.48300
C 	C 	0.31730 0.84280 0.60410 0.17800
C 	C 	0.37200 0.84140 0.63430 -0.24300
C 	C 	0.33720 0.77580 0.66220 0.16200
C 	C 	0.25160 0.71840 0.66030 -0.23600
C 	C 	0.19410 0.71960 0.62900 0.14300
C 	C 	0.22920 0.78260 0.60110 -0.24000
C 	C 	0.21120 0.64720 0.69100 0.51600
C 	C 	0.82970 0.74520 0.98020 -0.06600
C 	C 	0.88620 0.82560 0.96830 0.11500
C 	C 	0.90390 0.85240 0.92740 -0.16800
C 	C 	0.95490 0.93140 0.91520 0.11600
C 	C 	0.97180 0.96000 0.87490 0.04500
C 	C 	0.85850 0.78600 0.89680 0.17500
C 	C 	0.84250 0.66620 0.86000 0.14700
C 	C 	0.88950 0.72800 0.88860 -0.22000
C 	C 	0.76660 0.65780 0.84210 -0.22700
C 	C 	0.73620 0.71160 0.85010 0.15700
C 	C 	0.78220 0.77660 0.87730 -0.23300
C 	C 	0.71590 0.58660 0.81320 0.46700
N 	N 	0.64907 0.05874 0.05841 -0.30400
N 	N 	0.35093 0.94126 0.05841 -0.30800
N 	N 	0.40967 0.05874 0.44159 -0.30400
N 	N 	0.59033 0.94126 0.44159 -0.30500
N 	N 	0.35093 0.94126 0.94159 -0.30400
N 	N 	0.64907 0.05874 0.94159 -0.29900
N 	N 	0.59033 0.94126 0.55841 -0.30500
N 	N 	0.40967 0.05874 0.55841 -0.30400
N 	N 	0.71680 0.18220 -0.00000 -0.30500
N 	N 	0.56790 0.93900 -0.00000 -0.32100
N 	N 	0.28320 0.81780 -0.00000 -0.30800
N 	N 	0.43210 0.06100 -0.00000 -0.32200
N 	N 	0.46540 0.18220 0.50000 -0.30000
N 	N 	0.37110 0.93900 0.50000 -0.31600
N 	N 	0.53460 0.81780 0.50000 -0.29900
N 	N 	0.62890 0.06100 0.50000 -0.31300
N 	N 	0.95740 0.87740 0.50000 -0.28900
N 	N 	0.04260 0.12260 0.50000 -0.31500
N 	N 	0.92000 0.87740 -0.00000 -0.29700
N 	N 	0.08000 0.12260 -0.00000 -0.32100
N 	N 	0.00000 0.00000 0.44030 -0.33700
N 	N 	0.00000 0.00000 0.05970 -0.33800
N 	N 	0.00000 0.00000 0.55970 -0.33600
N 	N 	-0.00000 0.00000 0.94030 -0.33300
O 	O 	0.85351 0.45802 0.22358 -0.56400
O 	O 	0.95380 0.41080 0.22849 -0.42400
O 	O 	0.36920 0.63780 0.21220 -0.56200
O 	O 	0.47975 0.60710 0.19288 -0.57300
O 	O 	0.93519 0.58018 0.29897 -0.52100
O 	O 	0.78660 0.55520 0.29700 -0.56000
O 	O 	0.14649 0.54198 0.22358 -0.58400
O 	O 	0.04620 0.58920 0.22849 -0.48100
O 	O 	0.63080 0.36220 0.21220 -0.56400
O 	O 	0.52025 0.39290 0.19288 -0.57400
O 	O 	0.06481 0.41982 0.29897 -0.57100
O 	O 	0.21340 0.44480 0.29700 -0.56100
O 	O 	0.60451 0.45802 0.27642 -0.58200
O 	O 	0.45700 0.41080 0.27151 -0.47200
O 	O 	0.26860 0.63780 0.28780 -0.56000
O 	O 	0.12735 0.60710 0.30712 -0.56300
O 	O 	0.64499 0.58018 0.20103 -0.57000
O 	O 	0.76860 0.55520 0.20300 -0.55900
O 	O 	0.39549 0.54198 0.27642 -0.58200
O 	O 	0.54300 0.58920 0.27151 -0.47000
O 	O 	0.73140 0.36220 0.28780 -0.55700
O 	O 	0.87265 0.39290 0.30712 -0.53400
O 	O 	0.35501 0.41982 0.20103 -0.57200
O 	O 	0.23140 0.44480 0.20300 -0.56900
O 	O 	0.14649 0.54198 0.77642 -0.58400
O 	O 	0.04620 0.58920 0.77151 -0.48100
O 	O 	0.63080 0.36220 0.78780 -0.56400
O 	O 	0.52025 0.39290 0.80712 -0.57300
O 	O 	0.06481 0.41982 0.70103 -0.57100
O 	O 	0.21340 0.44480 0.70300 -0.56100
O 	O 	0.85351 0.45802 0.77642 -0.56400
O 	O 	0.95380 0.41080 0.77151 -0.42400
O 	O 	0.36920 0.63780 0.78780 -0.56200
O 	O 	0.47975 0.60710 0.80712 -0.57300
O 	O 	0.93519 0.58018 0.70103 -0.52100
O 	O 	0.78660 0.55520 0.70300 -0.56000
O 	O 	0.39549 0.54198 0.72358 -0.58200
O 	O 	0.54300 0.58920 0.72849 -0.47100
O 	O 	0.73140 0.36220 0.71220 -0.55700
O 	O 	0.87265 0.39290 0.69288 -0.53400
O 	O 	0.35501 0.41982 0.79897 -0.57200
O 	O 	0.23140 0.44480 0.79700 -0.56900
O 	O 	0.60451 0.45802 0.72358 -0.58200
O 	O 	0.45700 0.41080 0.72849 -0.47300
O 	O 	0.26860 0.63780 0.71220 -0.56000
O 	O 	0.12735 0.60710 0.69288 -0.56300
O 	O 	0.64499 0.58018 0.79897 -0.57000
O 	O 	0.76860 0.55520 0.79700 -0.55900
