data_crystal

_cell_length_a 12.02720
_cell_length_b 14.07020
_cell_length_c 15.82580
_cell_angle_alpha 90.00000
_cell_angle_beta  91.14800
_cell_angle_gamma 90.00000

_symmetry_space_group_name_	'P 1'
_symmetry_space_group_name_H-M	'P 1'

loop_
_symmetry_equiv_pos_as_xyz
  x,y,z

loop_
_atom_site_label
_atom_site_type_symbol
_atom_site_fract_x
_atom_site_fract_y
_atom_site_fract_z
_atom_site_charge
Ag	Ag	0.83221 0.04164 0.83640 0.53800
C 	C 	0.57190 0.99780 0.86800 0.06900
C 	C 	0.53070 0.08730 0.84400 -0.11800
H 	H 	0.57490 0.13320 0.81900 0.05200
C 	C 	0.41790 0.10260 0.86050 0.00000
H 	H 	0.38670 0.16150 0.84780 0.02700
C 	C 	0.35090 0.03210 0.89560 -0.05500
H 	H 	0.27620 0.04520 0.90440 0.06100
C 	C 	0.39140 0.94560 0.91710 -0.05500
H 	H 	0.34670 0.89930 0.94100 0.05000
C 	C 	0.50510 0.92890 0.90140 0.04600
C 	C 	0.54900 0.75770 0.94430 -0.11200
H 	H 	0.61610 0.72830 0.96720 0.06900
H 	H 	0.49440 0.75960 0.98860 0.06300
C 	C 	0.50410 0.69910 0.87050 0.04100
C 	C 	0.39150 0.68120 0.85970 -0.06600
H 	H 	0.34080 0.70150 0.89950 0.04800
C 	C 	0.35630 0.63220 0.78820 -0.05800
H 	H 	0.28100 0.62130 0.77790 0.04800
C 	C 	0.43290 0.60010 0.73310 0.02700
H 	H 	0.40800 0.56710 0.68550 0.03200
C 	C 	0.57570 0.66330 0.81180 -0.01900
H 	H 	0.65140 0.67420 0.81970 0.02400
N 	N 	0.57360 0.85420 0.91660 -0.07400
N 	N 	0.67760 0.87520 0.89160 -0.05800
N 	N 	0.67750 0.96240 0.86290 -0.14700
N 	N 	0.54180 0.61360 0.74380 -0.16500
O 	O 	0.09030 0.05300 -0.00000 -0.09100
O 	O 	0.97300 0.97970 0.93120 -0.14600
O 	O 	0.97400 0.95600 0.05100 -0.08100
Ag	Ag	0.66779 0.54164 0.66360 0.54000
C 	C 	0.92810 0.49780 0.63200 0.05100
C 	C 	0.96930 0.58730 0.65600 -0.09100
H 	H 	0.92510 0.63320 0.68100 0.04400
C 	C 	0.08210 0.60260 0.63950 -0.02700
H 	H 	0.11330 0.66150 0.65220 0.03600
C 	C 	0.14910 0.53210 0.60440 -0.02500
H 	H 	0.22380 0.54520 0.59560 0.05200
C 	C 	0.10860 0.44560 0.58290 -0.08200
H 	H 	0.15330 0.39930 0.55900 0.05900
C 	C 	0.99490 0.42890 0.59860 0.06100
C 	C 	0.95100 0.25770 0.55570 -0.10900
H 	H 	0.88390 0.22830 0.53280 0.06900
H 	H 	0.00560 0.25960 0.51140 0.06100
C 	C 	0.99590 0.19910 0.62950 0.04200
C 	C 	0.10850 0.18120 0.64030 -0.06700
H 	H 	0.15920 0.20150 0.60050 0.04900
C 	C 	0.14370 0.13220 0.71180 -0.05700
H 	H 	0.21900 0.12130 0.72210 0.04800
C 	C 	0.06710 0.10010 0.76690 0.02500
H 	H 	0.09200 0.06710 0.81450 0.03200
C 	C 	0.92430 0.16330 0.68820 -0.01900
H 	H 	0.84860 0.17420 0.68030 0.02400
N 	N 	0.92640 0.35420 0.58340 -0.07700
N 	N 	0.82240 0.37520 0.60840 -0.05800
N 	N 	0.82250 0.46240 0.63710 -0.14600
N 	N 	0.95820 0.11360 0.75620 -0.16500
O 	O 	0.40970 0.55300 0.50000 -0.09700
O 	O 	0.52700 0.47970 0.56880 -0.15500
O 	O 	0.52600 0.45600 0.44900 -0.08700
Ag	Ag	0.16779 0.95836 0.16360 0.54000
C 	C 	0.42810 0.00220 0.13200 0.05000
C 	C 	0.46930 0.91270 0.15600 -0.09300
H 	H 	0.42510 0.86680 0.18100 0.04400
C 	C 	0.58210 0.89740 0.13950 -0.02300
H 	H 	0.61330 0.83850 0.15220 0.03600
C 	C 	0.64910 0.96790 0.10440 -0.02300
H 	H 	0.72380 0.95480 0.09560 0.05300
C 	C 	0.60860 0.05440 0.08290 -0.08300
H 	H 	0.65330 0.10070 0.05900 0.06000
C 	C 	0.49490 0.07110 0.09860 0.06000
C 	C 	0.45100 0.24230 0.05570 -0.11300
H 	H 	0.38390 0.27170 0.03280 0.07100
H 	H 	0.50560 0.24040 0.01140 0.06500
C 	C 	0.49590 0.30090 0.12950 0.04200
C 	C 	0.60850 0.31880 0.14030 -0.06600
H 	H 	0.65920 0.29850 0.10050 0.04900
C 	C 	0.64370 0.36780 0.21180 -0.05800
H 	H 	0.71900 0.37870 0.22210 0.04900
C 	C 	0.56710 0.39990 0.26690 0.02700
H 	H 	0.59200 0.43290 0.31450 0.03200
C 	C 	0.42430 0.33670 0.18820 -0.01900
H 	H 	0.34860 0.32580 0.18030 0.02400
N 	N 	0.42640 0.14580 0.08340 -0.07600
N 	N 	0.32240 0.12480 0.10840 -0.05800
N 	N 	0.32250 0.03760 0.13710 -0.14600
N 	N 	0.45820 0.38640 0.25620 -0.16500
O 	O 	0.90970 0.94700 -0.00000 -0.09700
O 	O 	0.02700 0.02030 0.06880 -0.15900
O 	O 	0.02600 0.04400 0.94900 -0.09900
Ag	Ag	0.33221 0.45836 0.33640 0.54000
C 	C 	0.07190 0.50220 0.36800 0.06000
C 	C 	0.03070 0.41270 0.34400 -0.11100
H 	H 	0.07490 0.36680 0.31900 0.04900
C 	C 	0.91790 0.39740 0.36050 -0.00500
H 	H 	0.88670 0.33850 0.34780 0.03000
C 	C 	0.85090 0.46790 0.39560 -0.04300
H 	H 	0.77620 0.45480 0.40440 0.05900
C 	C 	0.89140 0.55440 0.41710 -0.06200
H 	H 	0.84670 0.60070 0.44100 0.05300
C 	C 	0.00510 0.57110 0.40140 0.04700
C 	C 	0.04900 0.74230 0.44430 -0.11700
H 	H 	0.11610 0.77170 0.46720 0.07100
H 	H 	0.99440 0.74040 0.48860 0.06800
C 	C 	0.00410 0.80090 0.37050 0.03500
C 	C 	0.89150 0.81880 0.35970 -0.05500
H 	H 	0.84080 0.79850 0.39950 0.04600
C 	C 	0.85630 0.86780 0.28820 -0.06600
H 	H 	0.78100 0.87870 0.27790 0.05200
C 	C 	0.93290 0.89990 0.23310 0.03600
H 	H 	0.90800 0.93290 0.18550 0.03100
C 	C 	0.07570 0.83670 0.31180 -0.01600
H 	H 	0.15140 0.82580 0.31970 0.02400
N 	N 	0.07360 0.64580 0.41660 -0.07400
N 	N 	0.17760 0.62480 0.39160 -0.05800
N 	N 	0.17750 0.53760 0.36290 -0.14800
N 	N 	0.04180 0.88640 0.24380 -0.16900
O 	O 	0.59030 0.44700 0.50000 -0.09700
O 	O 	0.47300 0.52030 0.43120 -0.15400
O 	O 	0.47400 0.54400 0.55100 -0.08700
N 	N 	-0.00000 0.00000 -0.00000 0.12700
N 	N 	0.50000 0.50000 0.50000 0.12900
