data_crystal

_cell_length_a 13.87300
_cell_length_b 13.87300
_cell_length_c 18.45500
_cell_angle_alpha 90.00000
_cell_angle_beta  90.00000
_cell_angle_gamma 120.00000

_symmetry_space_group_name_	'P 1'
_symmetry_space_group_name_H-M	'P 1'

loop_
_symmetry_equiv_pos_as_xyz
  x,y,z

loop_
_atom_site_label
_atom_site_type_symbol
_atom_site_fract_x
_atom_site_fract_y
_atom_site_fract_z
_atom_site_charge
O 	O 	0.34890 0.48790 0.33630 -0.58800
C 	C 	0.39660 0.42540 0.46610 -0.03000
H 	H 	0.32870 0.37770 0.44420 -0.01600
O 	O 	0.51210 0.86100 0.33630 -0.58600
C 	C 	0.57460 0.97120 0.46610 0.54200
H 	H 	0.62230 0.95100 0.44420 -0.13400
O 	O 	0.13900 0.65110 0.33630 -0.56600
C 	C 	0.02880 0.60340 0.46610 -0.58600
H 	H 	0.04900 0.67130 0.44420 0.16500
O 	O 	0.65110 0.51210 0.83630 -0.57300
C 	C 	0.60340 0.57460 0.96610 -0.02000
H 	H 	0.67130 0.62230 0.94420 0.02500
O 	O 	0.48790 0.13900 0.83630 -0.57500
C 	C 	0.42540 0.02880 0.96610 -0.59100
H 	H 	0.37770 0.04900 0.94420 0.14200
O 	O 	0.86100 0.34890 0.83630 -0.59300
C 	C 	0.97120 0.39660 0.96610 0.53700
H 	H 	0.95100 0.32870 0.94420 -0.15100
O 	O 	0.48790 0.34890 0.66370 -0.58900
C 	C 	0.42540 0.39660 0.53390 -0.03100
H 	H 	0.37770 0.32870 0.55580 -0.01600
O 	O 	0.86100 0.51210 0.66370 -0.58600
C 	C 	0.97120 0.57460 0.53390 0.54200
H 	H 	0.95100 0.62230 0.55580 -0.13400
O 	O 	0.65110 0.13900 0.66370 -0.56600
C 	C 	0.60340 0.02880 0.53390 -0.58600
H 	H 	0.67130 0.04900 0.55580 0.16500
O 	O 	0.51210 0.65110 0.16370 -0.57300
C 	C 	0.57460 0.60340 0.03390 -0.02000
H 	H 	0.62230 0.67130 0.05580 0.02500
O 	O 	0.13900 0.48790 0.16370 -0.57500
C 	C 	0.02880 0.42540 0.03390 -0.59100
H 	H 	0.04900 0.37770 0.05580 0.14200
O 	O 	0.34890 0.86100 0.16370 -0.59300
C 	C 	0.39660 0.97120 0.03390 0.53700
H 	H 	0.32870 0.95100 0.05580 -0.15100
O 	O 	0.65110 0.51210 0.66370 -0.57300
C 	C 	0.60340 0.57460 0.53390 -0.01900
H 	H 	0.67130 0.62230 0.55580 0.02500
O 	O 	0.48790 0.13900 0.66370 -0.57500
C 	C 	0.42540 0.02880 0.53390 -0.59800
H 	H 	0.37770 0.04900 0.55580 0.14400
O 	O 	0.86100 0.34890 0.66370 -0.59400
C 	C 	0.97120 0.39660 0.53390 0.54400
H 	H 	0.95100 0.32870 0.55580 -0.15400
O 	O 	0.34890 0.48790 0.16370 -0.58900
C 	C 	0.39660 0.42540 0.03390 -0.03100
H 	H 	0.32870 0.37770 0.05580 -0.01600
O 	O 	0.51210 0.86100 0.16370 -0.58600
C 	C 	0.57460 0.97120 0.03390 0.53400
H 	H 	0.62230 0.95100 0.05580 -0.13200
O 	O 	0.13900 0.65110 0.16370 -0.56600
C 	C 	0.02880 0.60340 0.03390 -0.57700
H 	H 	0.04900 0.67130 0.05580 0.16300
O 	O 	0.51210 0.65110 0.33630 -0.57300
C 	C 	0.57460 0.60340 0.46610 -0.01900
H 	H 	0.62230 0.67130 0.44420 0.02500
O 	O 	0.13900 0.48790 0.33630 -0.57500
C 	C 	0.02880 0.42540 0.46610 -0.59800
H 	H 	0.04900 0.37770 0.44420 0.14400
O 	O 	0.34890 0.86100 0.33630 -0.59400
C 	C 	0.39660 0.97120 0.46610 0.54400
H 	H 	0.32870 0.95100 0.44420 -0.15400
O 	O 	0.48790 0.34890 0.83630 -0.58900
C 	C 	0.42540 0.39660 0.96610 -0.03100
H 	H 	0.37770 0.32870 0.94420 -0.01600
O 	O 	0.86100 0.51210 0.83630 -0.58600
C 	C 	0.97120 0.57460 0.96610 0.53400
H 	H 	0.95100 0.62230 0.94420 -0.13200
O 	O 	0.65110 0.13900 0.83630 -0.56600
C 	C 	0.60340 0.02880 0.96610 -0.57700
H 	H 	0.67130 0.04900 0.94420 0.16300
In	In	0.24877 0.49754 0.25000 1.99400
N 	N 	0.15830 0.31660 0.25000 -0.37500
In	In	0.50246 0.75123 0.25000 2.00000
N 	N 	0.68340 0.84170 0.25000 -0.35000
In	In	0.24877 0.75123 0.25000 1.99700
N 	N 	0.15830 0.84170 0.25000 -0.36200
In	In	0.75123 0.50246 0.75000 2.00000
N 	N 	0.84170 0.68340 0.75000 -0.35000
In	In	0.49754 0.24877 0.75000 1.99400
N 	N 	0.31660 0.15830 0.75000 -0.37500
In	In	0.75123 0.24877 0.75000 1.99700
N 	N 	0.84170 0.15830 0.75000 -0.36200
O 	O 	0.33333 0.66667 0.25000 -1.04000
O 	O 	0.66667 0.33333 0.75000 -1.04000
C 	C 	0.12450 0.24900 0.19800 0.14100
N 	N 	0.07400 0.14800 0.21330 -0.45100
H 	H 	0.13645 0.27290 0.15040 -0.17400
C 	C 	0.75100 0.87550 0.19800 0.18000
N 	N 	0.85200 0.92600 0.21330 -0.28300
H 	H 	0.72710 0.86355 0.15040 -0.09400
C 	C 	0.12450 0.87550 0.19800 0.16200
N 	N 	0.07400 0.92600 0.21330 -0.35900
H 	H 	0.13645 0.86355 0.15040 -0.13000
C 	C 	0.87550 0.75100 0.69800 0.18000
N 	N 	0.92600 0.85200 0.71330 -0.28200
H 	H 	0.86355 0.72710 0.65040 -0.09300
C 	C 	0.24900 0.12450 0.69800 0.14100
N 	N 	0.14800 0.07400 0.71330 -0.45100
H 	H 	0.27290 0.13645 0.65040 -0.17400
C 	C 	0.87550 0.12450 0.69800 0.16200
N 	N 	0.92600 0.07400 0.71330 -0.35900
H 	H 	0.86355 0.13645 0.65040 -0.13000
C 	C 	0.24900 0.12450 0.80200 0.14100
N 	N 	0.14800 0.07400 0.78670 -0.45100
H 	H 	0.27290 0.13645 0.84960 -0.17400
C 	C 	0.87550 0.75100 0.80200 0.18000
N 	N 	0.92600 0.85200 0.78670 -0.28300
H 	H 	0.86355 0.72710 0.84960 -0.09400
C 	C 	0.87550 0.12450 0.80200 0.16200
N 	N 	0.92600 0.07400 0.78670 -0.35900
H 	H 	0.86355 0.13645 0.84960 -0.13000
C 	C 	0.75100 0.87550 0.30200 0.18000
N 	N 	0.85200 0.92600 0.28670 -0.28200
H 	H 	0.72710 0.86355 0.34960 -0.09300
C 	C 	0.12450 0.24900 0.30200 0.14100
N 	N 	0.07400 0.14800 0.28670 -0.45100
H 	H 	0.13645 0.27290 0.34960 -0.17400
C 	C 	0.12450 0.87550 0.30200 0.16200
N 	N 	0.07400 0.92600 0.28670 -0.35900
H 	H 	0.13645 0.86355 0.34960 -0.13000
C 	C 	0.44140 0.55860 0.36240 0.42700
C 	C 	0.47270 0.52730 0.43280 -0.11000
C 	C 	0.44140 0.88280 0.36240 0.55300
C 	C 	0.47270 0.94540 0.43280 -0.41500
C 	C 	0.11720 0.55860 0.36240 0.30000
C 	C 	0.05460 0.52730 0.43280 0.19700
C 	C 	0.55860 0.44140 0.86240 0.42700
C 	C 	0.52730 0.47270 0.93280 -0.10900
C 	C 	0.55860 0.11720 0.86240 0.30200
C 	C 	0.52730 0.05460 0.93280 0.19300
C 	C 	0.88280 0.44140 0.86240 0.55200
C 	C 	0.94540 0.47270 0.93280 -0.41100
C 	C 	0.55860 0.44140 0.63760 0.42700
C 	C 	0.52730 0.47270 0.56720 -0.11000
C 	C 	0.88280 0.44140 0.63760 0.55300
C 	C 	0.94540 0.47270 0.56720 -0.41500
C 	C 	0.55860 0.11720 0.63760 0.30000
C 	C 	0.52730 0.05460 0.56720 0.19700
C 	C 	0.44140 0.55860 0.13760 0.42700
C 	C 	0.47270 0.52730 0.06720 -0.10900
C 	C 	0.11720 0.55860 0.13760 0.30200
C 	C 	0.05460 0.52730 0.06720 0.19300
C 	C 	0.44140 0.88280 0.13760 0.55200
C 	C 	0.47270 0.94540 0.06720 -0.41100
In	In	-0.00000 0.00000 0.13390 1.72200
In	In	-0.00000 0.00000 0.63390 1.72100
In	In	-0.00000 0.00000 0.86610 1.72200
In	In	-0.00000 0.00000 0.36610 1.72100
