data_crystal

_cell_length_a 13.81000
_cell_length_b 13.81000
_cell_length_c 18.33000
_cell_angle_alpha 90.00000
_cell_angle_beta  90.00000
_cell_angle_gamma 120.00000

_symmetry_space_group_name_	'P 1'
_symmetry_space_group_name_H-M	'P 1'

loop_
_symmetry_equiv_pos_as_xyz
  x,y,z

loop_
_atom_site_label
_atom_site_type_symbol
_atom_site_fract_x
_atom_site_fract_y
_atom_site_fract_z
_atom_site_charge
O 	O 	0.64900 0.13650 0.66450 -0.56900
C 	C 	0.59910 0.02600 0.53360 -0.00500
H 	H 	0.66540 0.04210 0.55670 0.05100
O 	O 	0.86350 0.51250 0.66450 -0.56900
C 	C 	0.97400 0.57310 0.53360 -0.00500
H 	H 	0.95790 0.62330 0.55670 0.05100
O 	O 	0.48750 0.35100 0.66450 -0.56900
C 	C 	0.42690 0.40090 0.53360 -0.00500
H 	H 	0.37670 0.33460 0.55670 0.05000
O 	O 	0.35100 0.86350 0.16450 -0.57000
C 	C 	0.40090 0.97400 0.03360 -0.00600
H 	H 	0.33460 0.95790 0.05670 0.05000
O 	O 	0.13650 0.48750 0.16450 -0.57000
C 	C 	0.02600 0.42690 0.03360 -0.00600
H 	H 	0.04210 0.37670 0.05670 0.05000
O 	O 	0.51250 0.64900 0.16450 -0.57000
C 	C 	0.57310 0.59910 0.03360 -0.00600
H 	H 	0.62330 0.66540 0.05670 0.05000
O 	O 	0.13650 0.64900 0.33550 -0.57000
C 	C 	0.02600 0.59910 0.46640 -0.00600
H 	H 	0.04210 0.66540 0.44330 0.05000
O 	O 	0.51250 0.86350 0.33550 -0.57000
C 	C 	0.57310 0.97400 0.46640 -0.00600
H 	H 	0.62330 0.95790 0.44330 0.05000
O 	O 	0.35100 0.48750 0.33550 -0.57000
C 	C 	0.40090 0.42690 0.46640 -0.00600
H 	H 	0.33460 0.37670 0.44330 0.05000
O 	O 	0.86350 0.35100 0.83550 -0.57000
C 	C 	0.97400 0.40090 0.96640 -0.00600
H 	H 	0.95790 0.33460 0.94330 0.05000
O 	O 	0.48750 0.13650 0.83550 -0.57000
C 	C 	0.42690 0.02600 0.96640 -0.00600
H 	H 	0.37670 0.04210 0.94330 0.05000
O 	O 	0.64900 0.51250 0.83550 -0.57000
C 	C 	0.59910 0.57310 0.96640 -0.00600
H 	H 	0.66540 0.62330 0.94330 0.05000
O 	O 	0.35100 0.86350 0.33550 -0.57000
C 	C 	0.40090 0.97400 0.46640 -0.00600
H 	H 	0.33460 0.95790 0.44330 0.05000
O 	O 	0.13650 0.48750 0.33550 -0.57000
C 	C 	0.02600 0.42690 0.46640 -0.00600
H 	H 	0.04210 0.37670 0.44330 0.05000
O 	O 	0.51250 0.64900 0.33550 -0.57000
C 	C 	0.57310 0.59910 0.46640 -0.00600
H 	H 	0.62330 0.66540 0.44330 0.05000
O 	O 	0.64900 0.13650 0.83550 -0.57000
C 	C 	0.59910 0.02600 0.96640 -0.00600
H 	H 	0.66540 0.04210 0.94330 0.05000
O 	O 	0.86350 0.51250 0.83550 -0.57000
C 	C 	0.97400 0.57310 0.96640 -0.00600
H 	H 	0.95790 0.62330 0.94330 0.05000
O 	O 	0.48750 0.35100 0.83550 -0.57000
C 	C 	0.42690 0.40090 0.96640 -0.00600
H 	H 	0.37670 0.33460 0.94330 0.05000
O 	O 	0.86350 0.35100 0.66450 -0.57000
C 	C 	0.97400 0.40090 0.53360 -0.00600
H 	H 	0.95790 0.33460 0.55670 0.05000
O 	O 	0.48750 0.13650 0.66450 -0.57000
C 	C 	0.42690 0.02600 0.53360 -0.00600
H 	H 	0.37670 0.04210 0.55670 0.05000
O 	O 	0.64900 0.51250 0.66450 -0.57000
C 	C 	0.59910 0.57310 0.53360 -0.00600
H 	H 	0.66540 0.62330 0.55670 0.05000
O 	O 	0.13650 0.64900 0.16450 -0.57000
C 	C 	0.02600 0.59910 0.03360 -0.00600
H 	H 	0.04210 0.66540 0.05670 0.05000
O 	O 	0.51250 0.86350 0.16450 -0.57000
C 	C 	0.57310 0.97400 0.03360 -0.00600
H 	H 	0.62330 0.95790 0.05670 0.05000
O 	O 	0.35100 0.48750 0.16450 -0.57000
C 	C 	0.40090 0.42690 0.03360 -0.00600
H 	H 	0.33460 0.37670 0.05670 0.05000
In	In	0.75119 0.24881 0.75000 2.00200
N 	N 	0.84080 0.15920 0.75000 -0.33700
In	In	0.75119 0.50238 0.75000 2.00200
N 	N 	0.84080 0.68160 0.75000 -0.33700
In	In	0.49762 0.24881 0.75000 2.00200
N 	N 	0.31840 0.15920 0.75000 -0.33700
In	In	0.24881 0.75119 0.25000 2.00200
N 	N 	0.15920 0.84080 0.25000 -0.33700
In	In	0.24881 0.49762 0.25000 2.00200
N 	N 	0.15920 0.31840 0.25000 -0.33700
In	In	0.50238 0.75119 0.25000 2.00200
N 	N 	0.68160 0.84080 0.25000 -0.33700
O 	O 	0.66667 0.33333 0.75000 -1.04500
O 	O 	0.33333 0.66667 0.25000 -1.04500
C 	C 	0.55710 0.11420 0.63780 0.45500
C 	C 	0.52700 0.05400 0.56630 -0.10500
C 	C 	0.88580 0.44290 0.63780 0.45500
C 	C 	0.94600 0.47300 0.56630 -0.10500
C 	C 	0.55710 0.44290 0.63780 0.45500
C 	C 	0.52700 0.47300 0.56630 -0.10500
C 	C 	0.44290 0.88580 0.13780 0.45500
C 	C 	0.47300 0.94600 0.06630 -0.10500
C 	C 	0.11420 0.55710 0.13780 0.45500
C 	C 	0.05400 0.52700 0.06630 -0.10500
C 	C 	0.44290 0.55710 0.13780 0.45500
C 	C 	0.47300 0.52700 0.06630 -0.10500
C 	C 	0.11420 0.55710 0.36220 0.45500
C 	C 	0.05400 0.52700 0.43370 -0.10500
C 	C 	0.44290 0.88580 0.36220 0.45500
C 	C 	0.47300 0.94600 0.43370 -0.10500
C 	C 	0.44290 0.55710 0.36220 0.45500
C 	C 	0.47300 0.52700 0.43370 -0.10500
C 	C 	0.88580 0.44290 0.86220 0.45500
C 	C 	0.94600 0.47300 0.93370 -0.10500
C 	C 	0.55710 0.11420 0.86220 0.45500
C 	C 	0.52700 0.05400 0.93370 -0.10500
C 	C 	0.55710 0.44290 0.86220 0.45500
C 	C 	0.52700 0.47300 0.93370 -0.10500
C 	C 	0.87360 0.12640 0.69620 0.14100
N 	N 	0.92730 0.07270 0.71240 -0.08200
H 	H 	0.86080 0.13920 0.64830 -0.01600
C 	C 	0.87360 0.74720 0.69620 0.14100
N 	N 	0.92730 0.85460 0.71240 -0.08200
H 	H 	0.86080 0.72160 0.64830 -0.01600
C 	C 	0.25280 0.12640 0.69620 0.14100
N 	N 	0.14540 0.07270 0.71240 -0.08200
H 	H 	0.27840 0.13920 0.64830 -0.01600
C 	C 	0.12640 0.87360 0.19620 0.14100
N 	N 	0.07270 0.92730 0.21240 -0.08200
H 	H 	0.13920 0.86080 0.14830 -0.01600
C 	C 	0.12640 0.25280 0.19620 0.14100
N 	N 	0.07270 0.14540 0.21240 -0.08200
H 	H 	0.13920 0.27840 0.14830 -0.01600
C 	C 	0.74720 0.87360 0.19620 0.14100
N 	N 	0.85460 0.92730 0.21240 -0.08200
H 	H 	0.72160 0.86080 0.14830 -0.01600
C 	C 	0.12640 0.87360 0.30380 0.14100
N 	N 	0.07270 0.92730 0.28760 -0.08200
H 	H 	0.13920 0.86080 0.35170 -0.01600
C 	C 	0.74720 0.87360 0.30380 0.14100
N 	N 	0.85460 0.92730 0.28760 -0.08200
H 	H 	0.72160 0.86080 0.35170 -0.01600
C 	C 	0.12640 0.25280 0.30380 0.14100
N 	N 	0.07270 0.14540 0.28760 -0.08200
H 	H 	0.13920 0.27840 0.35170 -0.01600
C 	C 	0.87360 0.12640 0.80380 0.14100
N 	N 	0.92730 0.07270 0.78760 -0.08200
H 	H 	0.86080 0.13920 0.85170 -0.01600
C 	C 	0.25280 0.12640 0.80380 0.14100
N 	N 	0.14540 0.07270 0.78760 -0.08200
H 	H 	0.27840 0.13920 0.85170 -0.01600
C 	C 	0.87360 0.74720 0.80380 0.14100
N 	N 	0.92730 0.85460 0.78760 -0.08200
H 	H 	0.86080 0.72160 0.85170 -0.01600
