data_crystal

_cell_length_a 13.63600
_cell_length_b 13.63600
_cell_length_c 14.92220
_cell_angle_alpha 90.00000
_cell_angle_beta  90.00000
_cell_angle_gamma 120.00000

_symmetry_space_group_name_	'P 1'
_symmetry_space_group_name_H-M	'P 1'

loop_
_symmetry_equiv_pos_as_xyz
  x,y,z

loop_
_atom_site_label
_atom_site_type_symbol
_atom_site_fract_x
_atom_site_fract_y
_atom_site_fract_z
_atom_site_charge
O 	O 	0.88560 0.39780 0.64690 -0.59700
O 	O 	0.77180 0.20870 0.65150 -0.61600
C 	C 	0.92880 0.28190 0.55770 -0.18600
C 	C 	0.85470 0.29680 0.62430 0.48500
C 	C 	0.93320 0.18290 0.55490 0.14400
H 	H 	0.88660 0.12470 0.59370 -0.03500
O 	O 	0.60220 0.48780 0.64690 -0.60700
O 	O 	0.79130 0.56310 0.65150 -0.60800
C 	C 	0.71810 0.64690 0.55770 -0.21300
C 	C 	0.70320 0.55790 0.62430 0.49100
C 	C 	0.81710 0.75030 0.55490 0.12500
H 	H 	0.87530 0.76190 0.59370 -0.01600
O 	O 	0.51220 0.11440 0.64690 -0.61100
O 	O 	0.43690 0.22820 0.65150 -0.61500
C 	C 	0.35310 0.07120 0.55770 -0.20800
C 	C 	0.44210 0.14530 0.62430 0.48600
C 	C 	0.24970 0.06680 0.55490 0.11100
H 	H 	0.23810 0.11340 0.59370 -0.02900
O 	O 	0.88560 0.39780 0.85310 -0.59500
O 	O 	0.77180 0.20870 0.84850 -0.61400
C 	C 	0.92880 0.28190 0.94230 -0.18200
C 	C 	0.85470 0.29680 0.87570 0.48400
C 	C 	0.93320 0.18290 0.94510 0.14700
H 	H 	0.88660 0.12470 0.90630 -0.03500
O 	O 	0.60220 0.48780 0.85310 -0.60600
O 	O 	0.79130 0.56310 0.84850 -0.60800
C 	C 	0.71810 0.64690 0.94230 -0.20900
C 	C 	0.70320 0.55790 0.87570 0.49000
C 	C 	0.81710 0.75030 0.94510 0.12700
H 	H 	0.87530 0.76190 0.90630 -0.01600
O 	O 	0.51220 0.11440 0.85310 -0.61000
O 	O 	0.43690 0.22820 0.84850 -0.61400
C 	C 	0.35310 0.07120 0.94230 -0.20300
C 	C 	0.44210 0.14530 0.87570 0.48500
C 	C 	0.24970 0.06680 0.94510 0.11400
H 	H 	0.23810 0.11340 0.90630 -0.03000
O 	O 	0.39780 0.88560 0.35310 -0.59600
O 	O 	0.20870 0.77180 0.34850 -0.61500
C 	C 	0.28190 0.92880 0.44230 -0.18500
C 	C 	0.29680 0.85470 0.37570 0.48400
C 	C 	0.18290 0.93320 0.44510 0.14500
H 	H 	0.12470 0.88660 0.40630 -0.03500
O 	O 	0.48780 0.60220 0.35310 -0.60700
O 	O 	0.56310 0.79130 0.34850 -0.60800
C 	C 	0.64690 0.71810 0.44230 -0.21300
C 	C 	0.55790 0.70320 0.37570 0.49100
C 	C 	0.75030 0.81710 0.44510 0.12500
H 	H 	0.76190 0.87530 0.40630 -0.01600
O 	O 	0.11440 0.51220 0.35310 -0.61100
O 	O 	0.22820 0.43690 0.34850 -0.61600
C 	C 	0.07120 0.35310 0.44230 -0.20900
C 	C 	0.14530 0.44210 0.37570 0.48600
C 	C 	0.06680 0.24970 0.44510 0.11100
H 	H 	0.11340 0.23810 0.40630 -0.03000
O 	O 	0.39780 0.88560 0.14690 -0.59600
O 	O 	0.20870 0.77180 0.15150 -0.61500
C 	C 	0.28190 0.92880 0.05770 -0.18300
C 	C 	0.29680 0.85470 0.12430 0.48300
C 	C 	0.18290 0.93320 0.05490 0.14300
H 	H 	0.12470 0.88660 0.09370 -0.03500
O 	O 	0.48780 0.60220 0.14690 -0.60700
O 	O 	0.56310 0.79130 0.15150 -0.60800
C 	C 	0.64690 0.71810 0.05770 -0.21200
C 	C 	0.55790 0.70320 0.12430 0.49000
C 	C 	0.75030 0.81710 0.05490 0.12300
H 	H 	0.76190 0.87530 0.09370 -0.01600
O 	O 	0.11440 0.51220 0.14690 -0.61100
O 	O 	0.22820 0.43690 0.15150 -0.61600
C 	C 	0.07120 0.35310 0.05770 -0.20800
C 	C 	0.14530 0.44210 0.12430 0.48500
C 	C 	0.06680 0.24970 0.05490 0.10900
H 	H 	0.11340 0.23810 0.09370 -0.03000
In	In	0.64127 0.17267 0.75000 1.98000
In	In	0.82733 0.46860 0.75000 1.98300
In	In	0.53140 0.35873 0.75000 1.98100
In	In	0.17267 0.64127 0.25000 1.98000
In	In	0.46860 0.82733 0.25000 1.98300
In	In	0.35873 0.53140 0.25000 1.98100
O 	O 	0.66667 0.33333 0.75000 -1.04300
O 	O 	0.33333 0.66667 0.25000 -1.04300
C 	C 	0.00000 0.37100 0.50000 0.08600
H 	H 	-0.00000 0.43920 0.50000 -0.00100
N 	N 	-0.00000 0.16600 0.50000 -0.23900
C 	C 	0.62900 0.62900 0.50000 0.13200
H 	H 	0.56080 0.56080 0.50000 -0.00600
N 	N 	0.83400 0.83400 0.50000 -0.20500
C 	C 	0.37100 0.00000 0.50000 0.08400
H 	H 	0.43920 0.00000 0.50000 -0.00000
N 	N 	0.16600 0.00000 0.50000 -0.23900
C 	C 	-0.00000 0.37100 -0.00000 0.08000
H 	H 	-0.00000 0.43920 -0.00000 -0.00000
N 	N 	-0.00000 0.16600 -0.00000 -0.24100
C 	C 	0.62900 0.62900 -0.00000 0.12600
H 	H 	0.56080 0.56080 -0.00000 -0.00600
N 	N 	0.83400 0.83400 -0.00000 -0.20700
C 	C 	0.37100 0.00000 -0.00000 0.07700
H 	H 	0.43920 0.00000 -0.00000 0.00100
N 	N 	0.16600 0.00000 -0.00000 -0.24200
Ag	Ag	-0.00000 0.00000 0.50000 0.48800
Ag	Ag	-0.00000 0.00000 -0.00000 0.48700
