data_crystal

_cell_length_a 13.83920
_cell_length_b 13.83920
_cell_length_c 23.26900
_cell_angle_alpha 90.00000
_cell_angle_beta  90.00000
_cell_angle_gamma 120.00000

_symmetry_space_group_name_	'P 1'
_symmetry_space_group_name_H-M	'P 1'

loop_
_symmetry_equiv_pos_as_xyz
  x,y,z

loop_
_atom_site_label
_atom_site_type_symbol
_atom_site_fract_x
_atom_site_fract_y
_atom_site_fract_z
_atom_site_charge
O 	O 	0.65020 0.13730 0.31750 -0.56500
O 	O 	0.86250 0.34900 0.31740 -0.54900
C 	C 	0.87480 0.12510 0.29460 0.12100
C 	C 	0.55940 0.11880 0.33910 0.41400
N 	N 	0.92810 0.07190 0.27930 -0.20000
H 	H 	0.86290 0.13690 0.33270 -0.00900
C 	C 	0.55770 0.06620 0.40040 -0.06300
C 	C 	0.64090 0.04470 0.41860 0.13900
C 	C 	0.46820 0.05190 0.43340 -0.05200
C 	C 	0.63040 0.00550 0.47490 -0.32400
C 	C 	0.45880 0.01070 0.48960 0.21100
C 	C 	0.50970 0.06740 0.39960 -0.05900
C 	C 	0.58380 0.05100 0.43270 -0.02800
C 	C 	0.55120 0.01040 0.48890 0.19600
C 	C 	0.37560 0.00540 0.47560 -0.35200
C 	C 	0.40590 0.04550 0.41960 0.15000
Cl	Cl	0.84700 0.92400 0.39190 -0.31200
O 	O 	0.86270 0.51290 0.31750 -0.54300
O 	O 	0.65100 0.51350 0.31740 -0.55100
C 	C 	0.87490 0.74970 0.29460 0.14600
C 	C 	0.88120 0.44060 0.33910 0.49100
N 	N 	0.92810 0.85620 0.27930 -0.14000
H 	H 	0.86310 0.72600 0.33270 0.02700
C 	C 	0.93380 0.49150 0.40040 -0.16100
C 	C 	0.95530 0.59620 0.41860 -0.12400
C 	C 	0.94810 0.41630 0.43340 0.32100
C 	C 	0.99450 0.62490 0.47490 0.35400
C 	C 	0.98930 0.44810 0.48960 -0.24500
C 	C 	0.93260 0.44230 0.39960 -0.10400
C 	C 	0.94900 0.53280 0.43270 0.23000
C 	C 	0.98960 0.54080 0.48890 -0.23600
C 	C 	0.99460 0.37020 0.47560 0.36300
C 	C 	0.95450 0.36040 0.41960 -0.24900
Cl	Cl	0.07600 0.92300 0.39190 -0.42200
O 	O 	0.48710 0.34980 0.31750 -0.56400
O 	O 	0.48650 0.13750 0.31740 -0.56600
C 	C 	0.25030 0.12520 0.29460 0.10900
C 	C 	0.55940 0.44060 0.33910 0.45700
N 	N 	0.14380 0.07190 0.27930 -0.24500
H 	H 	0.27400 0.13710 0.33270 -0.02600
C 	C 	0.50850 0.44230 0.40040 -0.06900
C 	C 	0.40380 0.35910 0.41860 -0.08700
C 	C 	0.58370 0.53180 0.43340 0.09400
C 	C 	0.37510 0.36960 0.47490 -0.00600
C 	C 	0.55190 0.54120 0.48960 -0.02400
C 	C 	0.55770 0.49030 0.39960 -0.13500
C 	C 	0.46720 0.41620 0.43270 0.16300
C 	C 	0.45920 0.44880 0.48890 -0.01900
C 	C 	0.62980 0.62440 0.47560 0.02100
C 	C 	0.63960 0.59410 0.41960 0.02300
O 	O 	0.86270 0.34980 0.18250 -0.54500
O 	O 	0.65100 0.13750 0.18260 -0.56500
C 	C 	0.87490 0.12520 0.20540 0.12600
C 	C 	0.88120 0.44060 0.16090 0.48600
N 	N 	0.92810 0.07190 0.22070 -0.19000
H 	H 	0.86310 0.13710 0.16730 0.00200
C 	C 	0.93380 0.44230 0.09960 -0.12500
C 	C 	0.95530 0.35910 0.08140 -0.15700
C 	C 	0.94810 0.53180 0.06660 0.26300
C 	C 	0.99450 0.36960 0.02510 0.36600
C 	C 	0.98930 0.54120 0.01040 -0.25200
C 	C 	0.93260 0.49030 0.10040 -0.11900
C 	C 	0.94900 0.41620 0.06730 0.24100
C 	C 	0.98960 0.44880 0.01110 -0.23700
C 	C 	0.99460 0.62440 0.02440 0.37800
C 	C 	0.95450 0.59410 0.08040 -0.17100
Cl	Cl	0.07600 0.15300 0.10810 -0.54200
O 	O 	0.48710 0.13730 0.18250 -0.56700
O 	O 	0.48650 0.34900 0.18260 -0.55800
C 	C 	0.25030 0.12510 0.20540 0.11600
C 	C 	0.55940 0.11880 0.16090 0.42000
N 	N 	0.14380 0.07190 0.22070 -0.22600
H 	H 	0.27400 0.13690 0.16730 -0.00300
C 	C 	0.50850 0.06620 0.09960 -0.05800
C 	C 	0.40380 0.04470 0.08140 0.10900
C 	C 	0.58370 0.05190 0.06660 -0.03600
C 	C 	0.37510 0.00550 0.02510 -0.32900
C 	C 	0.55190 0.01070 0.01040 0.20100
C 	C 	0.55770 0.06740 0.10040 -0.08100
C 	C 	0.46720 0.05100 0.06730 -0.00100
C 	C 	0.45920 0.01040 0.01110 0.17600
C 	C 	0.62980 0.00540 0.02440 -0.32700
C 	C 	0.63960 0.04550 0.08040 0.14200
Cl	Cl	0.07700 0.92400 0.10810 -0.40100
O 	O 	0.65020 0.51290 0.18250 -0.55400
O 	O 	0.86250 0.51350 0.18260 -0.54000
C 	C 	0.87480 0.74970 0.20540 0.14200
C 	C 	0.55940 0.44060 0.16090 0.45500
N 	N 	0.92810 0.85620 0.22070 -0.15100
H 	H 	0.86290 0.72600 0.16730 0.01500
C 	C 	0.55770 0.49150 0.09960 -0.10800
C 	C 	0.64090 0.59620 0.08140 -0.01400
C 	C 	0.46820 0.41630 0.06660 0.13500
C 	C 	0.63040 0.62490 0.02510 0.02400
C 	C 	0.45880 0.44810 0.01040 -0.03500
C 	C 	0.50970 0.44230 0.10040 -0.09200
C 	C 	0.58380 0.53280 0.06730 0.11900
C 	C 	0.55120 0.54080 0.01110 -0.02400
C 	C 	0.37560 0.37020 0.02440 0.01800
C 	C 	0.40590 0.36040 0.08040 -0.04400
O 	O 	0.34980 0.86270 0.68250 -0.54500
O 	O 	0.13750 0.65100 0.68260 -0.56500
C 	C 	0.12520 0.87490 0.70540 0.12600
C 	C 	0.44060 0.88120 0.66090 0.48500
N 	N 	0.07190 0.92810 0.72070 -0.19000
H 	H 	0.13710 0.86310 0.66730 0.00200
C 	C 	0.44230 0.93380 0.59960 -0.12400
C 	C 	0.35910 0.95530 0.58140 -0.15500
C 	C 	0.53180 0.94810 0.56660 0.26000
C 	C 	0.36960 0.99450 0.52510 0.36400
C 	C 	0.54120 0.98930 0.51040 -0.25000
C 	C 	0.49030 0.93260 0.60040 -0.11800
C 	C 	0.41620 0.94900 0.56730 0.24000
C 	C 	0.44880 0.98960 0.51110 -0.23500
C 	C 	0.62440 0.99460 0.52440 0.37500
C 	C 	0.59410 0.95450 0.58040 -0.16900
Cl	Cl	0.15300 0.07600 0.60810 -0.54400
O 	O 	0.13730 0.48710 0.68250 -0.56700
O 	O 	0.34900 0.48650 0.68260 -0.55800
C 	C 	0.12510 0.25030 0.70540 0.11500
C 	C 	0.11880 0.55940 0.66090 0.41900
N 	N 	0.07190 0.14380 0.72070 -0.22600
H 	H 	0.13690 0.27400 0.66730 -0.00300
C 	C 	0.06620 0.50850 0.59960 -0.05700
C 	C 	0.04470 0.40380 0.58140 0.11400
C 	C 	0.05190 0.58370 0.56660 -0.04100
C 	C 	0.00550 0.37510 0.52510 -0.33800
C 	C 	0.01070 0.55190 0.51040 0.20700
C 	C 	0.06740 0.55770 0.60040 -0.08000
C 	C 	0.05100 0.46720 0.56730 -0.00500
C 	C 	0.01040 0.45920 0.51110 0.18100
C 	C 	0.00540 0.62980 0.52440 -0.33400
C 	C 	0.04550 0.63960 0.58040 0.14700
Cl	Cl	0.92400 0.07700 0.60810 -0.40300
O 	O 	0.51290 0.65020 0.68250 -0.55400
O 	O 	0.51350 0.86250 0.68260 -0.54000
C 	C 	0.74970 0.87480 0.70540 0.14200
C 	C 	0.44060 0.55940 0.66090 0.45400
N 	N 	0.85620 0.92810 0.72070 -0.15100
H 	H 	0.72600 0.86290 0.66730 0.01500
C 	C 	0.49150 0.55770 0.59960 -0.10700
C 	C 	0.59620 0.64090 0.58140 -0.01100
C 	C 	0.41630 0.46820 0.56660 0.13100
C 	C 	0.62490 0.63040 0.52510 0.01800
C 	C 	0.44810 0.45880 0.51040 -0.03000
C 	C 	0.44230 0.50970 0.60040 -0.09100
C 	C 	0.53280 0.58380 0.56730 0.11600
C 	C 	0.54080 0.55120 0.51110 -0.02000
C 	C 	0.37020 0.37560 0.52440 0.01000
C 	C 	0.36040 0.40590 0.58040 -0.04000
O 	O 	0.13730 0.65020 0.81750 -0.56400
O 	O 	0.34900 0.86250 0.81740 -0.54800
C 	C 	0.12510 0.87480 0.79460 0.12300
C 	C 	0.11880 0.55940 0.83910 0.41400
N 	N 	0.07190 0.92810 0.77930 -0.19900
H 	H 	0.13690 0.86290 0.83270 -0.00800
C 	C 	0.06620 0.55770 0.90040 -0.06200
C 	C 	0.04470 0.64090 0.91860 0.14100
C 	C 	0.05190 0.46820 0.93340 -0.05300
C 	C 	0.00550 0.63040 0.97490 -0.32700
C 	C 	0.01070 0.45880 0.98960 0.21200
C 	C 	0.06740 0.50970 0.89960 -0.05900
C 	C 	0.05100 0.58380 0.93270 -0.02900
C 	C 	0.01040 0.55120 0.98890 0.19700
C 	C 	0.00540 0.37560 0.97560 -0.35400
C 	C 	0.04550 0.40590 0.91960 0.15100
Cl	Cl	0.92400 0.84700 0.89190 -0.31300
O 	O 	0.51290 0.86270 0.81750 -0.54300
O 	O 	0.51350 0.65100 0.81740 -0.55100
C 	C 	0.74970 0.87490 0.79460 0.14600
C 	C 	0.44060 0.88120 0.83910 0.49000
N 	N 	0.85620 0.92810 0.77930 -0.14000
H 	H 	0.72600 0.86310 0.83270 0.02600
C 	C 	0.49150 0.93380 0.90040 -0.16000
C 	C 	0.59620 0.95530 0.91860 -0.12000
C 	C 	0.41630 0.94810 0.93340 0.31600
C 	C 	0.62490 0.99450 0.97490 0.34600
C 	C 	0.44810 0.98930 0.98960 -0.24000
C 	C 	0.44230 0.93260 0.89960 -0.10300
C 	C 	0.53280 0.94900 0.93270 0.22600
C 	C 	0.54080 0.98960 0.98890 -0.23100
C 	C 	0.37020 0.99460 0.97560 0.35400
C 	C 	0.36040 0.95450 0.91960 -0.24400
Cl	Cl	0.92300 0.07600 0.89190 -0.42200
O 	O 	0.34980 0.48710 0.81750 -0.56400
O 	O 	0.13750 0.48650 0.81740 -0.56600
C 	C 	0.12520 0.25030 0.79460 0.10900
C 	C 	0.44060 0.55940 0.83910 0.45600
N 	N 	0.07190 0.14380 0.77930 -0.24600
H 	H 	0.13710 0.27400 0.83270 -0.02600
C 	C 	0.44230 0.50850 0.90040 -0.06800
C 	C 	0.35910 0.40380 0.91860 -0.08300
C 	C 	0.53180 0.58370 0.93340 0.09000
C 	C 	0.36960 0.37510 0.97490 -0.01300
C 	C 	0.54120 0.55190 0.98960 -0.01900
C 	C 	0.49030 0.55770 0.89960 -0.13500
C 	C 	0.41620 0.46720 0.93270 0.15900
C 	C 	0.44880 0.45920 0.98890 -0.01500
C 	C 	0.62440 0.62980 0.97560 0.01400
C 	C 	0.59410 0.63960 0.91960 0.02700
In	In	0.75120 0.24880 0.25000 2.00300
N 	N 	0.84020 0.15980 0.25000 -0.31500
In	In	0.75120 0.50240 0.25000 2.00400
N 	N 	0.84020 0.68040 0.25000 -0.31000
In	In	0.49760 0.24880 0.25000 2.00200
N 	N 	0.31960 0.15980 0.25000 -0.32000
In	In	0.24880 0.75120 0.75000 2.00300
N 	N 	0.15980 0.84020 0.75000 -0.31500
In	In	0.24880 0.49760 0.75000 2.00200
N 	N 	0.15980 0.31960 0.75000 -0.32000
In	In	0.50240 0.75120 0.75000 2.00400
N 	N 	0.68040 0.84020 0.75000 -0.31000
O 	O 	0.66667 0.33333 0.25000 -1.04500
O 	O 	0.33333 0.66667 0.75000 -1.04500
Co	Co	-0.00000 0.00000 0.33266 1.04300
Co	Co	-0.00000 -0.00000 0.16734 1.06600
Co	Co	-0.00000 0.00000 0.66734 1.06600
Co	Co	-0.00000 0.00000 0.83266 1.04200
