data_crystal

_cell_length_a 17.87290
_cell_length_b 8.72980
_cell_length_c 22.75240
_cell_angle_alpha 90.00000
_cell_angle_beta  96.07200
_cell_angle_gamma 90.00000

_symmetry_space_group_name_	'P 1'
_symmetry_space_group_name_H-M	'P 1'

loop_
_symmetry_equiv_pos_as_xyz
  x,y,z

loop_
_atom_site_label
_atom_site_type_symbol
_atom_site_fract_x
_atom_site_fract_y
_atom_site_fract_z
_atom_site_charge
Cu	Cu	0.56745 0.03755 0.75520 0.84500
N 	N 	0.63300 0.96500 0.68880 -0.23600
N 	N 	0.75010 0.75550 0.51665 -0.19500
H 	H 	0.70290 0.77360 0.50780 0.11500
N 	N 	0.64930 0.51490 0.32595 -0.23400
N 	N 	0.92570 0.85530 0.68580 -0.11900
N 	N 	0.93640 0.49850 0.41660 -0.12500
N 	N 	0.49840 0.35500 0.74230 -0.19400
C 	C 	0.68900 0.05350 0.67370 0.07800
H 	H 	0.69340 0.15190 0.68940 -0.02100
C 	C 	0.74080 0.00680 0.63600 -0.15000
H 	H 	0.77930 0.07170 0.62710 0.08700
C 	C 	0.73380 0.86250 0.61210 0.07400
C 	C 	0.67540 0.76960 0.62660 -0.15200
H 	H 	0.66890 0.67210 0.61050 0.07700
C 	C 	0.62710 0.82460 0.66550 0.08100
H 	H 	0.58890 0.76090 0.67580 -0.02600
C 	C 	0.78550 0.80370 0.57000 0.04300
C 	C 	0.86020 0.79300 0.58260 -0.03900
C 	C 	0.91300 0.73970 0.53760 -0.04800
H 	H 	0.94810 0.66390 0.55660 0.06100
C 	C 	0.86500 0.66280 0.48670 -0.03900
C 	C 	0.78970 0.67860 0.47730 0.04400
C 	C 	0.70910 0.60140 0.32060 0.07900
H 	H 	0.71960 0.62780 0.28270 -0.00600
C 	C 	0.75720 0.65500 0.36800 -0.14200
H 	H 	0.79860 0.71520 0.36190 0.08600
C 	C 	0.74200 0.61680 0.42490 0.06300
C 	C 	0.67980 0.52530 0.43140 -0.13900
H 	H 	0.66780 0.49850 0.46890 0.07300
C 	C 	0.63600 0.47460 0.38150 0.06500
H 	H 	0.59560 0.41010 0.38610 -0.02300
C 	C 	0.89540 0.82920 0.64020 0.08700
C 	C 	0.90310 0.57050 0.44730 0.08300
C 	C 	0.95810 0.87460 0.51710 0.04600
C 	C 	0.92450 0.98310 0.47880 -0.05900
H 	H 	0.87410 0.97300 0.46440 0.05800
C 	C 	0.96620 0.10860 0.46150 -0.06500
H 	H 	0.94320 0.18110 0.43560 0.06400
C 	C 	0.52760 0.23690 0.74780 -0.20300
Cu	Cu	0.43255 0.53755 0.74480 0.84700
N 	N 	0.36700 0.46500 0.81120 -0.23600
N 	N 	0.24990 0.25550 0.98335 -0.19500
H 	H 	0.29710 0.27360 0.99220 0.11600
N 	N 	0.35070 0.01490 0.17405 -0.23000
N 	N 	0.07430 0.35530 0.81420 -0.11800
N 	N 	0.06360 0.99850 0.08340 -0.12600
N 	N 	0.50160 0.85500 0.75770 -0.19300
C 	C 	0.31100 0.55350 0.82630 0.07900
H 	H 	0.30660 0.65190 0.81060 -0.02000
C 	C 	0.25920 0.50680 0.86400 -0.14800
H 	H 	0.22070 0.57170 0.87290 0.08600
C 	C 	0.26620 0.36250 0.88790 0.07100
C 	C 	0.32460 0.26960 0.87340 -0.15100
H 	H 	0.33110 0.17210 0.88950 0.07700
C 	C 	0.37290 0.32460 0.83450 0.08000
H 	H 	0.41110 0.26090 0.82420 -0.02600
C 	C 	0.21450 0.30370 0.93000 0.04300
C 	C 	0.13980 0.29300 0.91740 -0.03900
C 	C 	0.08700 0.23970 0.96240 -0.04800
H 	H 	0.05190 0.16390 0.94340 0.06100
C 	C 	0.13500 0.16280 0.01330 -0.04100
C 	C 	0.21030 0.17860 0.02270 0.04600
C 	C 	0.29090 0.10140 0.17940 0.07700
H 	H 	0.28040 0.12780 0.21730 -0.00500
C 	C 	0.24280 0.15500 0.13200 -0.13900
H 	H 	0.20140 0.21520 0.13810 0.08500
C 	C 	0.25800 0.11680 0.07510 0.05900
C 	C 	0.32020 0.02530 0.06860 -0.12900
H 	H 	0.33220 0.99850 0.03110 0.06900
C 	C 	0.36400 0.97460 0.11850 0.05600
H 	H 	0.40440 0.91010 0.11390 -0.02100
C 	C 	0.10460 0.32920 0.85980 0.08700
C 	C 	0.09690 0.07050 0.05270 0.08600
C 	C 	0.04190 0.37460 0.98290 0.04500
C 	C 	0.07550 0.48310 0.02120 -0.05800
H 	H 	0.12590 0.47300 0.03560 0.05800
C 	C 	0.03380 0.60860 0.03850 -0.06400
H 	H 	0.05680 0.68110 0.06440 0.06400
C 	C 	0.47240 0.73690 0.75220 -0.20300
Cu	Cu	0.43255 0.96245 0.24480 0.84600
N 	N 	0.36700 0.03500 0.31120 -0.23500
N 	N 	0.24990 0.24450 0.48335 -0.19400
H 	H 	0.29710 0.22640 0.49220 0.11600
N 	N 	0.35070 0.48510 0.67405 -0.23300
N 	N 	0.07430 0.14470 0.31420 -0.11800
N 	N 	0.06360 0.50150 0.58340 -0.12400
N 	N 	0.50160 0.64500 0.25770 -0.19300
C 	C 	0.31100 0.94650 0.32630 0.07800
H 	H 	0.30660 0.84810 0.31060 -0.02100
C 	C 	0.25920 0.99320 0.36400 -0.15000
H 	H 	0.22070 0.92830 0.37290 0.08700
C 	C 	0.26620 0.13750 0.38790 0.07400
C 	C 	0.32460 0.23040 0.37340 -0.15200
H 	H 	0.33110 0.32790 0.38950 0.07700
C 	C 	0.37290 0.17540 0.33450 0.08100
H 	H 	0.41110 0.23910 0.32420 -0.02600
C 	C 	0.21450 0.19630 0.43000 0.04300
C 	C 	0.13980 0.20700 0.41740 -0.03900
C 	C 	0.08700 0.26030 0.46240 -0.04800
H 	H 	0.05190 0.33610 0.44340 0.06100
C 	C 	0.13500 0.33720 0.51330 -0.03900
C 	C 	0.21030 0.32140 0.52270 0.04400
C 	C 	0.29090 0.39860 0.67940 0.07900
H 	H 	0.28040 0.37220 0.71730 -0.00600
C 	C 	0.24280 0.34500 0.63200 -0.14200
H 	H 	0.20140 0.28480 0.63810 0.08600
C 	C 	0.25800 0.38320 0.57510 0.06300
C 	C 	0.32020 0.47470 0.56860 -0.13900
H 	H 	0.33220 0.50150 0.53110 0.07300
C 	C 	0.36400 0.52540 0.61850 0.06500
H 	H 	0.40440 0.58990 0.61390 -0.02300
C 	C 	0.10460 0.17080 0.35980 0.08700
C 	C 	0.09690 0.42950 0.55270 0.08300
C 	C 	0.04190 0.12540 0.48290 0.04600
C 	C 	0.07550 0.01690 0.52120 -0.05900
H 	H 	0.12590 0.02700 0.53560 0.05800
C 	C 	0.03380 0.89140 0.53850 -0.06500
H 	H 	0.05680 0.81890 0.56440 0.06400
C 	C 	0.47240 0.76310 0.25220 -0.20300
Cu	Cu	0.56745 0.46245 0.25520 0.84700
N 	N 	0.63300 0.53500 0.18880 -0.23600
N 	N 	0.75010 0.74450 0.01665 -0.19500
H 	H 	0.70290 0.72640 0.00780 0.11600
N 	N 	0.64930 0.98510 0.82595 -0.23000
N 	N 	0.92570 0.64470 0.18580 -0.11800
N 	N 	0.93640 0.00150 0.91660 -0.12600
N 	N 	0.49840 0.14500 0.24230 -0.19300
C 	C 	0.68900 0.44650 0.17370 0.07900
H 	H 	0.69340 0.34810 0.18940 -0.02000
C 	C 	0.74080 0.49320 0.13600 -0.14800
H 	H 	0.77930 0.42830 0.12710 0.08600
C 	C 	0.73380 0.63750 0.11210 0.07100
C 	C 	0.67540 0.73040 0.12660 -0.15100
H 	H 	0.66890 0.82790 0.11050 0.07700
C 	C 	0.62710 0.67540 0.16550 0.08000
H 	H 	0.58890 0.73910 0.17580 -0.02600
C 	C 	0.78550 0.69630 0.07000 0.04300
C 	C 	0.86020 0.70700 0.08260 -0.03900
C 	C 	0.91300 0.76030 0.03760 -0.04800
H 	H 	0.94810 0.83610 0.05660 0.06100
C 	C 	0.86500 0.83720 0.98670 -0.04100
C 	C 	0.78970 0.82140 0.97730 0.04600
C 	C 	0.70910 0.89860 0.82060 0.07700
H 	H 	0.71960 0.87220 0.78270 -0.00500
C 	C 	0.75720 0.84500 0.86800 -0.13900
H 	H 	0.79860 0.78480 0.86190 0.08500
C 	C 	0.74200 0.88320 0.92490 0.05900
C 	C 	0.67980 0.97470 0.93140 -0.12900
H 	H 	0.66780 0.00150 0.96890 0.06900
C 	C 	0.63600 0.02540 0.88150 0.05600
H 	H 	0.59560 0.08990 0.88610 -0.02100
C 	C 	0.89540 0.67080 0.14020 0.08700
C 	C 	0.90310 0.92950 0.94730 0.08600
C 	C 	0.95810 0.62540 0.01710 0.04500
C 	C 	0.92450 0.51690 0.97880 -0.05800
H 	H 	0.87410 0.52700 0.96440 0.05800
C 	C 	0.96620 0.39140 0.96150 -0.06400
H 	H 	0.94320 0.31890 0.93560 0.06400
C 	C 	0.52760 0.26310 0.24780 -0.20300
