data_crystal

_cell_length_a 12.14670
_cell_length_b 18.10910
_cell_length_c 24.13380
_cell_angle_alpha 107.54100
_cell_angle_beta  98.67000
_cell_angle_gamma 91.33200

_symmetry_space_group_name_	'P 1'
_symmetry_space_group_name_H-M	'P 1'

loop_
_symmetry_equiv_pos_as_xyz
  x,y,z

loop_
_atom_site_label
_atom_site_type_symbol
_atom_site_fract_x
_atom_site_fract_y
_atom_site_fract_z
_atom_site_charge
C 	C 	0.85550 0.95120 0.77810 -0.09000
H 	H 	0.89210 0.93290 0.74490 0.09100
C 	C 	0.74670 0.92450 0.77549 0.13500
C 	C 	0.69180 0.95080 0.82390 -0.08600
H 	H 	0.61810 0.93070 0.82230 0.08200
C 	C 	0.62050 0.89740 0.68266 0.21700
C 	C 	0.57700 0.84320 0.62361 -0.05900
C 	C 	0.60700 0.76430 0.60935 0.03500
C 	C 	0.67210 0.73690 0.65075 -0.05600
C 	C 	0.71700 0.79090 0.71002 0.21700
C 	C 	0.69690 0.66020 0.63613 -0.01900
H 	H 	0.73930 0.64150 0.66480 0.05800
C 	C 	0.66010 0.60990 0.57950 -0.02100
H 	H 	0.67880 0.55740 0.56960 0.06300
C 	C 	0.59650 0.63610 0.53752 -0.04300
C 	C 	0.56920 0.71440 0.55186 0.02900
C 	C 	0.50620 0.74220 0.50966 -0.04700
C 	C 	0.47550 0.81810 0.52587 -0.02700
H 	H 	0.43130 0.83660 0.49760 0.06200
C 	C 	0.50850 0.86730 0.58296 -0.01700
H 	H 	0.48330 0.91820 0.59390 0.05300
C 	C 	0.47380 0.69110 0.44862 0.20700
C 	C 	0.55670 0.58160 0.47796 0.21600
C 	C 	0.44240 0.56060 0.38001 0.14200
C 	C 	0.32950 0.56080 0.36153 -0.10000
H 	H 	0.28580 0.59450 0.38630 0.09800
C 	C 	0.27970 0.51230 0.30725 -0.01800
C 	C 	0.34480 0.46170 0.27140 -0.02800
H 	H 	0.31110 0.42750 0.23410 0.06900
C 	C 	0.45870 0.46160 0.29052 -0.03200
C 	C 	0.50860 0.51190 0.34471 -0.09100
H 	H 	0.58670 0.51300 0.35750 0.10500
C 	C 	0.52740 0.40720 0.25285 0.33300
C 	C 	0.21100 0.37970 0.70428 0.33600
C 	C 	0.15710 0.51480 0.28452 0.28400
C 	C 	0.75990 0.40480 0.18107 0.07600
H 	H 	0.72710 0.43310 0.21370 -0.02000
C 	C 	0.78070 0.31910 0.10077 0.09800
C 	C 	0.87670 0.36910 0.12242 -0.03900
C 	C 	0.96680 0.35530 0.09083 0.14200
C 	C 	0.85630 0.25270 0.02243 0.08300
H 	H 	0.84990 0.21230 0.98600 0.00100
C 	C 	0.54490 0.20880 0.22319 0.10100
H 	H 	0.50750 0.25290 0.24160 -0.00200
C 	C 	0.62330 0.13997 0.14594 0.11000
C 	C 	0.70250 0.05070 0.09042 0.09500
H 	H 	0.73430 0.02190 0.05760 -0.03700
C 	C 	0.34370 0.32940 0.08052 0.09300
H 	H 	0.35080 0.37230 0.11550 -0.00500
C 	C 	0.22800 0.25500 0.99515 0.14700
C 	C 	0.31980 0.21050 0.98201 -0.03300
C 	C 	0.41880 0.23000 0.02145 0.10100
C 	C 	0.43740 0.12990 0.94953 0.08200
H 	H 	0.46990 0.08750 0.92520 -0.02100
C 	C 	0.68350 0.03600 0.92594 0.33000
C 	C 	0.74600 0.00651 0.87428 -0.03800
C 	C 	0.85510 0.03410 0.87732 -0.01700
H 	H 	0.89140 0.07270 0.91190 0.06300
C 	C 	0.64580 0.08390 0.17349 -0.03700
C 	C 	0.61540 0.09380 0.22924 0.16100
C 	C 	0.03080 0.03060 0.83260 0.29600
C 	C 	0.91160 0.00550 0.83006 -0.02800
C 	C 	0.25290 0.16800 0.79624 0.28700
C 	C 	0.27530 0.20040 0.74859 -0.02500
C 	C 	0.23890 0.27290 0.74858 -0.01800
H 	H 	0.20220 0.30190 0.77940 0.06000
C 	C 	0.25590 0.30260 0.70404 -0.03700
C 	C 	0.30740 0.26000 0.65806 -0.08100
H 	H 	0.31820 0.27980 0.62690 0.09400
C 	C 	0.34260 0.18790 0.65868 0.13900
C 	C 	0.32660 0.15790 0.70323 -0.08800
H 	H 	0.35070 0.10820 0.70270 0.08900
C 	C 	0.31820 0.10360 0.55721 0.21600
C 	C 	0.36670 0.04650 0.51074 -0.05400
C 	C 	0.30250 0.01120 0.45734 -0.02300
H 	H 	0.22760 0.02440 0.45010 0.06300
C 	C 	0.47740 0.02790 0.52181 0.02400
C 	C 	0.54770 0.06550 0.57662 -0.05200
C 	C 	0.50290 0.12350 0.62359 0.21800
C 	C 	0.65490 0.04430 0.58718 -0.02200
H 	H 	0.70010 0.06710 0.62460 0.06700
N 	N 	0.69200 0.86840 0.72134 -0.18100
N 	N 	0.49060 0.61265 0.43742 -0.17700
N 	N 	0.86160 0.42397 0.17415 -0.25300
N 	N 	0.70580 0.34215 0.13848 -0.31200
N 	N 	0.76760 0.25770 0.05078 -0.30100
N 	N 	0.95170 0.29727 0.03914 -0.15200
N 	N 	0.06580 0.39507 0.10799 -0.29700
H 	H 	0.11830 0.38320 0.08590 0.15800
H 	H 	0.07890 0.43330 0.14140 0.12800
N 	N 	0.66010 0.11936 0.09292 -0.31000
N 	N 	0.57120 0.20616 0.16962 -0.30200
N 	N 	0.43430 0.28882 0.07257 -0.30200
N 	N 	0.24560 0.31684 0.04548 -0.15300
N 	N 	0.12520 0.23931 0.96344 -0.30100
H 	H 	0.07100 0.26850 0.97520 0.16000
H 	H 	0.11170 0.19980 0.93080 0.15100
N 	N 	0.49520 0.17866 0.00006 -0.30900
N 	N 	0.33250 0.14523 0.93611 -0.24700
N 	N 	0.69740 0.02537 0.13628 -0.24700
N 	N 	0.63620 0.04560 0.26002 -0.30900
H 	H 	0.61710 0.05590 0.29520 0.16900
H 	H 	0.66930 0.00300 0.24550 0.16000
N 	N 	0.56380 0.15971 0.25269 -0.14500
N 	N 	0.39170 0.13996 0.61014 -0.17700
O 	O 	0.77700 0.77110 0.74697 -0.22300
O 	O 	0.59910 0.96462 0.69739 -0.22200
O 	O 	0.43230 0.71671 0.40902 -0.20600
O 	O 	0.57780 0.51389 0.46334 -0.21000
O 	O 	0.48174 0.37522 0.19981 -0.46900
O 	O 	0.62130 0.39518 0.27422 -0.29600
O 	O 	0.15880 0.41006 0.74650 -0.46600
O 	O 	0.22720 0.40798 0.66502 -0.27000
O 	O 	0.10700 0.57044 0.30931 -0.37400
O 	O 	0.11028 0.45994 0.24050 -0.41700
O 	O 	0.72375 0.10193 0.96247 -0.46900
O 	O 	0.60130 0.99816 0.92879 -0.30800
O 	O 	0.19580 0.20156 0.83399 -0.31800
O 	O 	0.29570 0.10315 0.79685 -0.43000
O 	O 	0.07690 0.00679 0.78882 -0.33400
O 	O 	0.08294 0.07439 0.88149 -0.43300
O 	O 	0.55750 0.15697 0.67169 -0.20400
O 	O 	0.22260 0.11980 0.55065 -0.21500
Zn	Zn	0.55578 0.30174 0.14322 1.17800
Zn	Zn	0.65469 0.16436 0.02706 1.17800
Zn	Zn	0.95569 0.51242 0.24024 1.18500
Zn	Zn	0.23687 0.07623 0.86112 1.21100
C 	C 	0.14450 0.04880 0.22190 -0.08900
H 	H 	0.10790 0.06710 0.25510 0.09200
C 	C 	0.25330 0.07550 0.22451 0.13600
C 	C 	0.30820 0.04920 0.17610 -0.08500
H 	H 	0.38190 0.06930 0.17770 0.08300
C 	C 	0.37950 0.10260 0.31734 0.21800
C 	C 	0.42300 0.15680 0.37639 -0.05800
C 	C 	0.39300 0.23570 0.39065 0.03600
C 	C 	0.32790 0.26310 0.34925 -0.05600
C 	C 	0.28300 0.20910 0.28998 0.21700
C 	C 	0.30310 0.33980 0.36387 -0.01900
H 	H 	0.26070 0.35850 0.33520 0.05800
C 	C 	0.33990 0.39010 0.42050 -0.02100
H 	H 	0.32120 0.44260 0.43040 0.06300
C 	C 	0.40350 0.36390 0.46248 -0.04300
C 	C 	0.43080 0.28560 0.44814 0.02900
C 	C 	0.49380 0.25780 0.49034 -0.04700
C 	C 	0.52450 0.18190 0.47413 -0.02700
H 	H 	0.56870 0.16340 0.50240 0.06200
C 	C 	0.49150 0.13270 0.41704 -0.01700
H 	H 	0.51670 0.08180 0.40610 0.05300
C 	C 	0.52620 0.30890 0.55138 0.20700
C 	C 	0.44330 0.41840 0.52204 0.21600
C 	C 	0.55760 0.43940 0.61999 0.14200
C 	C 	0.67050 0.43920 0.63847 -0.10000
H 	H 	0.71420 0.40550 0.61370 0.09800
C 	C 	0.72030 0.48770 0.69275 -0.01800
C 	C 	0.65520 0.53830 0.72860 -0.02800
H 	H 	0.68890 0.57250 0.76590 0.06900
C 	C 	0.54130 0.53840 0.70948 -0.03200
C 	C 	0.49140 0.48810 0.65529 -0.09100
H 	H 	0.41330 0.48700 0.64250 0.10500
C 	C 	0.47260 0.59280 0.74715 0.33300
C 	C 	0.78900 0.62030 0.29572 0.33600
C 	C 	0.84290 0.48520 0.71548 0.28400
C 	C 	0.24010 0.59520 0.81893 0.07600
H 	H 	0.27290 0.56690 0.78630 -0.02000
C 	C 	0.21930 0.68090 0.89923 0.09800
C 	C 	0.12330 0.63090 0.87758 -0.03900
C 	C 	0.03320 0.64470 0.90917 0.14200
C 	C 	0.14370 0.74730 0.97757 0.08300
H 	H 	0.15010 0.78770 0.01400 0.00100
C 	C 	0.45510 0.79120 0.77681 0.10100
H 	H 	0.49250 0.74710 0.75840 -0.00200
C 	C 	0.37670 0.86003 0.85406 0.11000
C 	C 	0.29750 0.94930 0.90958 0.09500
H 	H 	0.26570 0.97810 0.94240 -0.03700
C 	C 	0.65630 0.67060 0.91948 0.09300
H 	H 	0.64920 0.62770 0.88450 -0.00500
C 	C 	0.77200 0.74500 0.00485 0.14700
C 	C 	0.68020 0.78950 0.01799 -0.03300
C 	C 	0.58120 0.77000 0.97855 0.10100
C 	C 	0.56260 0.87010 0.05047 0.08200
H 	H 	0.53010 0.91250 0.07480 -0.02100
C 	C 	0.31650 0.96400 0.07406 0.33000
C 	C 	0.25400 0.99349 0.12572 -0.03800
C 	C 	0.14490 0.96590 0.12268 -0.01700
H 	H 	0.10860 0.92730 0.08810 0.06300
C 	C 	0.35420 0.91610 0.82651 -0.03700
C 	C 	0.38460 0.90620 0.77076 0.16100
C 	C 	0.96920 0.96940 0.16740 0.29600
C 	C 	0.08840 0.99450 0.16994 -0.02800
C 	C 	0.74710 0.83200 0.20376 0.28700
C 	C 	0.72470 0.79960 0.25141 -0.02500
C 	C 	0.76110 0.72710 0.25142 -0.01800
H 	H 	0.79780 0.69810 0.22060 0.06000
C 	C 	0.74410 0.69740 0.29596 -0.03700
C 	C 	0.69260 0.74000 0.34194 -0.08100
H 	H 	0.68180 0.72020 0.37310 0.09400
C 	C 	0.65740 0.81210 0.34132 0.13900
C 	C 	0.67340 0.84210 0.29677 -0.08800
H 	H 	0.64930 0.89180 0.29730 0.08900
C 	C 	0.68180 0.89640 0.44279 0.21600
C 	C 	0.63330 0.95350 0.48926 -0.05400
C 	C 	0.69750 0.98880 0.54266 -0.02300
H 	H 	0.77240 0.97560 0.54990 0.06300
C 	C 	0.52260 0.97210 0.47819 0.02400
C 	C 	0.45230 0.93450 0.42338 -0.05200
C 	C 	0.49710 0.87650 0.37641 0.21800
C 	C 	0.34510 0.95570 0.41282 -0.02200
H 	H 	0.29990 0.93290 0.37540 0.06700
N 	N 	0.30800 0.13160 0.27866 -0.18100
N 	N 	0.50940 0.38735 0.56258 -0.17700
N 	N 	0.13840 0.57603 0.82585 -0.25300
N 	N 	0.29420 0.65785 0.86152 -0.31200
N 	N 	0.23240 0.74230 0.94922 -0.30100
N 	N 	0.04830 0.70273 0.96086 -0.15200
N 	N 	0.93420 0.60493 0.89201 -0.29700
H 	H 	0.88170 0.61680 0.91410 0.15800
H 	H 	0.92110 0.56670 0.85860 0.12800
N 	N 	0.33990 0.88064 0.90708 -0.31000
N 	N 	0.42880 0.79384 0.83038 -0.30200
N 	N 	0.56570 0.71118 0.92743 -0.30200
N 	N 	0.75440 0.68316 0.95452 -0.15300
N 	N 	0.87480 0.76069 0.03656 -0.30100
H 	H 	0.92900 0.73150 0.02480 0.16000
H 	H 	0.88830 0.80020 0.06920 0.15100
N 	N 	0.50480 0.82134 0.99994 -0.30900
N 	N 	0.66750 0.85477 0.06389 -0.24700
N 	N 	0.30260 0.97463 0.86372 -0.24700
N 	N 	0.36380 0.95440 0.73998 -0.30900
H 	H 	0.38290 0.94410 0.70480 0.16900
H 	H 	0.33070 0.99700 0.75450 0.16000
N 	N 	0.43620 0.84029 0.74731 -0.14500
N 	N 	0.60830 0.86004 0.38986 -0.17700
O 	O 	0.22300 0.22890 0.25303 -0.22300
O 	O 	0.40090 0.03538 0.30261 -0.22200
O 	O 	0.56770 0.28329 0.59098 -0.20600
O 	O 	0.42220 0.48611 0.53666 -0.21000
O 	O 	0.51826 0.62478 0.80019 -0.46900
O 	O 	0.37870 0.60482 0.72578 -0.29600
O 	O 	0.84120 0.58994 0.25350 -0.46600
O 	O 	0.77280 0.59202 0.33498 -0.27000
O 	O 	0.89300 0.42956 0.69069 -0.37400
O 	O 	0.88972 0.54006 0.75950 -0.41700
O 	O 	0.27625 0.89807 0.03753 -0.46900
O 	O 	0.39870 0.00184 0.07121 -0.30800
O 	O 	0.80420 0.79844 0.16601 -0.31800
O 	O 	0.70430 0.89685 0.20315 -0.43000
O 	O 	0.92310 0.99321 0.21118 -0.33400
O 	O 	0.91706 0.92561 0.11851 -0.43300
O 	O 	0.44250 0.84303 0.32831 -0.20400
O 	O 	0.77740 0.88020 0.44935 -0.21500
Zn	Zn	0.44422 0.69826 0.85678 1.17800
Zn	Zn	0.34531 0.83564 0.97294 1.17800
Zn	Zn	0.04431 0.48758 0.75976 1.18500
Zn	Zn	0.76313 0.92377 0.13888 1.21100
