data_crystal

_cell_length_a 13.43770
_cell_length_b 13.43770
_cell_length_c 14.85300
_cell_angle_alpha 90.00000
_cell_angle_beta  90.00000
_cell_angle_gamma 120.00000

_symmetry_space_group_name_	'P 1'
_symmetry_space_group_name_H-M	'P 1'

loop_
_symmetry_equiv_pos_as_xyz
  x,y,z

loop_
_atom_site_label
_atom_site_type_symbol
_atom_site_fract_x
_atom_site_fract_y
_atom_site_fract_z
_atom_site_charge
Ce	Ce	0.66667 0.33334 0.16922 2.17000
Ce	Ce	0.33333 0.66666 0.33078 2.17200
Ce	Ce	0.33333 0.66666 0.83078 2.17100
Ce	Ce	0.66667 0.33334 0.66922 2.16900
Cu	Cu	0.50000 0.00000 -0.00000 0.88600
Cu	Cu	0.50000 0.50000 1.00000 0.94100
Cu	Cu	1.00000 0.50000 -0.00000 0.88600
Cu	Cu	0.50000 0.00000 0.50000 0.89600
Cu	Cu	1.00000 0.50000 0.50000 0.89600
Cu	Cu	0.50000 0.50000 0.50000 0.93200
H 	H 	0.64780 0.97390 0.92290 0.16400
H 	H 	0.81730 0.13630 0.97900 0.14100
H 	H 	0.74450 0.03760 0.04770 0.10400
H 	H 	0.72960 0.18980 0.87280 0.16700
H 	H 	0.68300 0.08200 0.81000 0.13000
H 	H 	0.32610 0.35220 0.92290 0.09600
H 	H 	0.31900 0.18270 0.97900 0.16000
H 	H 	0.29310 0.25550 0.04770 0.14600
H 	H 	0.46020 0.27040 0.87280 0.17400
H 	H 	0.39900 0.31700 0.81000 0.16000
H 	H 	0.02610 0.67390 0.92290 0.16800
H 	H 	0.86370 0.68100 0.97900 0.15900
H 	H 	0.96240 0.70690 0.04770 0.11900
H 	H 	0.81020 0.53980 0.87280 0.17300
H 	H 	0.91800 0.60100 0.81000 0.13800
H 	H 	0.67390 0.02610 0.57710 0.02300
H 	H 	0.68100 0.86370 0.52100 0.14200
H 	H 	0.70690 0.96240 0.45230 0.16100
H 	H 	0.53980 0.81020 0.62720 0.17400
H 	H 	0.60100 0.91800 0.69000 0.18300
H 	H 	0.97390 0.64780 0.57710 0.02700
H 	H 	0.13630 0.81730 0.52100 0.16500
H 	H 	0.03760 0.74450 0.45230 0.17800
H 	H 	0.18980 0.72960 0.62720 0.18100
H 	H 	0.08200 0.68300 0.69000 0.19100
H 	H 	0.35220 0.32610 0.57710 0.09600
H 	H 	0.18270 0.31900 0.52100 0.14300
H 	H 	0.25550 0.29310 0.45230 0.13400
H 	H 	0.27040 0.46020 0.62720 0.17500
H 	H 	0.31700 0.39900 0.69000 0.16300
H 	H 	0.35220 0.02610 0.07710 0.02500
H 	H 	0.18270 0.86370 0.02100 0.13600
H 	H 	0.25550 0.96240 0.95230 0.16300
H 	H 	0.27040 0.81020 0.12720 0.17700
H 	H 	0.31700 0.91800 0.19000 0.19100
H 	H 	0.67390 0.64780 0.07710 0.09500
H 	H 	0.68100 0.81730 0.02100 0.10800
H 	H 	0.70690 0.74450 0.95230 0.11800
H 	H 	0.53980 0.72960 0.12720 0.17100
H 	H 	0.60100 0.68300 0.19000 0.16200
H 	H 	0.97390 0.32610 0.07710 0.02100
H 	H 	0.13630 0.31900 0.02100 0.10900
H 	H 	0.03760 0.29310 0.95230 0.14500
H 	H 	0.18980 0.46020 0.12720 0.17000
H 	H 	0.08200 0.39900 0.19000 0.18200
H 	H 	0.32610 0.97390 0.42290 0.17100
H 	H 	0.31900 0.13630 0.47900 0.12200
H 	H 	0.29310 0.03760 0.54770 0.10100
H 	H 	0.46020 0.18980 0.37280 0.16800
H 	H 	0.39900 0.08200 0.31000 0.13600
H 	H 	0.02610 0.35220 0.42290 0.16600
H 	H 	0.86370 0.18270 0.47900 0.09900
H 	H 	0.96240 0.25550 0.54770 0.08500
H 	H 	0.81020 0.27040 0.37280 0.16200
H 	H 	0.91800 0.31700 0.31000 0.12700
H 	H 	0.64780 0.67390 0.42290 0.09600
H 	H 	0.81730 0.68100 0.47900 0.12300
H 	H 	0.74450 0.70690 0.54770 0.12900
H 	H 	0.72960 0.53980 0.37280 0.16900
H 	H 	0.68300 0.60100 0.31000 0.15800
C 	C 	0.72830 0.17980 0.06760 0.38600
C 	C 	0.74380 0.09580 0.00960 -0.36200
C 	C 	0.66510 0.11330 0.86230 -0.40700
C 	C 	0.56230 0.12190 0.84300 0.47400
C 	C 	0.45150 0.27170 0.06760 0.40100
C 	C 	0.35200 0.25620 0.00960 -0.38300
C 	C 	0.44820 0.33490 0.86230 -0.42400
C 	C 	0.55960 0.43770 0.84300 0.48600
C 	C 	0.82020 0.54850 0.06760 0.39000
C 	C 	0.90420 0.64800 0.00960 -0.37000
C 	C 	0.88670 0.55180 0.86230 -0.41200
C 	C 	0.87810 0.44040 0.84300 0.47700
C 	C 	0.54850 0.82020 0.43240 0.39700
C 	C 	0.64800 0.90420 0.49040 -0.33100
C 	C 	0.55180 0.88670 0.63770 -0.42800
C 	C 	0.44040 0.87810 0.65700 0.49000
C 	C 	0.17980 0.72830 0.43240 0.40300
C 	C 	0.09580 0.74380 0.49040 -0.34500
C 	C 	0.11330 0.66510 0.63770 -0.43400
C 	C 	0.12190 0.56230 0.65700 0.49300
C 	C 	0.27170 0.45150 0.43240 0.38700
C 	C 	0.25620 0.35200 0.49040 -0.32000
C 	C 	0.33490 0.44820 0.63770 -0.42400
C 	C 	0.43770 0.55960 0.65700 0.48400
C 	C 	0.27170 0.82020 0.93240 0.38900
C 	C 	0.25620 0.90420 0.99040 -0.28700
C 	C 	0.33490 0.88670 0.13770 -0.43100
C 	C 	0.43770 0.87810 0.15700 0.49100
C 	C 	0.54850 0.72830 0.93240 0.37000
C 	C 	0.64800 0.74380 0.99040 -0.25200
C 	C 	0.55180 0.66510 0.13770 -0.42200
C 	C 	0.44040 0.56230 0.15700 0.48200
C 	C 	0.17980 0.45150 0.93240 0.38000
C 	C 	0.09580 0.35200 0.99040 -0.26500
C 	C 	0.11330 0.44820 0.13770 -0.42500
C 	C 	0.12190 0.55960 0.15700 0.48800
C 	C 	0.45150 0.17980 0.56760 0.37200
C 	C 	0.35200 0.09580 0.50960 -0.29500
C 	C 	0.44820 0.11330 0.36230 -0.41000
C 	C 	0.55960 0.12190 0.34300 0.47400
C 	C 	0.82020 0.27170 0.56760 0.36600
C 	C 	0.90420 0.25620 0.50960 -0.28100
C 	C 	0.88670 0.33490 0.36230 -0.40400
C 	C 	0.87810 0.43770 0.34300 0.47200
C 	C 	0.72830 0.54850 0.56760 0.38300
C 	C 	0.74380 0.64800 0.50960 -0.31000
C 	C 	0.66510 0.55180 0.36230 -0.42000
C 	C 	0.56230 0.44040 0.34300 0.48300
N 	N 	0.65100 0.03980 0.94210 -0.18900
N 	N 	0.38880 0.34900 0.94210 -0.12900
N 	N 	0.96020 0.61120 0.94210 -0.18800
N 	N 	0.61120 0.96020 0.55790 -0.07400
N 	N 	0.03980 0.65100 0.55790 -0.07100
N 	N 	0.34900 0.38880 0.55790 -0.14400
N 	N 	0.34900 0.96020 0.05790 -0.08300
N 	N 	0.61120 0.65100 0.05790 -0.16300
N 	N 	0.03980 0.38880 0.05790 -0.08800
N 	N 	0.38880 0.03980 0.44210 -0.21100
N 	N 	0.96020 0.34900 0.44210 -0.21400
N 	N 	0.65100 0.61120 0.44210 -0.14700
O 	O 	0.63730 0.18460 0.05720 -0.52600
O 	O 	0.80270 0.24080 0.12430 -0.43200
O 	O 	0.56390 0.17790 0.77540 -0.52400
O 	O 	0.47640 0.07380 0.89460 -0.44100
O 	O 	0.54730 0.36270 0.05720 -0.52400
O 	O 	0.43810 0.19730 0.12430 -0.42700
O 	O 	0.61400 0.43610 0.77540 -0.51700
O 	O 	0.59740 0.52360 0.89460 -0.42200
O 	O 	0.81540 0.45270 0.05720 -0.52600
O 	O 	0.75920 0.56190 0.12430 -0.42200
O 	O 	0.82210 0.38600 0.77540 -0.52600
O 	O 	0.92620 0.40260 0.89460 -0.44300
O 	O 	0.45270 0.81540 0.44280 -0.50200
O 	O 	0.56190 0.75920 0.37570 -0.41300
O 	O 	0.38600 0.82210 0.72460 -0.50600
O 	O 	0.40260 0.92620 0.60540 -0.38600
O 	O 	0.18460 0.63730 0.44280 -0.50300
O 	O 	0.24080 0.80270 0.37570 -0.40100
O 	O 	0.17790 0.56390 0.72460 -0.50800
O 	O 	0.07380 0.47640 0.60540 -0.38800
O 	O 	0.36270 0.54730 0.44280 -0.51300
O 	O 	0.19730 0.43810 0.37570 -0.40600
O 	O 	0.43610 0.61400 0.72460 -0.51700
O 	O 	0.52360 0.59740 0.60540 -0.42500
O 	O 	0.36270 0.81540 0.94280 -0.49300
O 	O 	0.19730 0.75920 0.87570 -0.39500
O 	O 	0.43610 0.82210 0.22460 -0.50800
O 	O 	0.52360 0.92620 0.10540 -0.39100
O 	O 	0.45270 0.63730 0.94280 -0.50300
O 	O 	0.56190 0.80270 0.87570 -0.39800
O 	O 	0.38600 0.56390 0.22460 -0.51700
O 	O 	0.40260 0.47640 0.10540 -0.43200
O 	O 	0.18460 0.54730 0.94280 -0.49200
O 	O 	0.24080 0.43810 0.87570 -0.40500
O 	O 	0.17790 0.61400 0.22460 -0.50600
O 	O 	0.07380 0.59740 0.10540 -0.38700
O 	O 	0.54730 0.18460 0.55720 -0.51500
O 	O 	0.43810 0.24080 0.62430 -0.41300
O 	O 	0.61400 0.17790 0.27540 -0.52600
O 	O 	0.59740 0.07380 0.39460 -0.45200
O 	O 	0.81540 0.36270 0.55720 -0.51400
O 	O 	0.75920 0.19730 0.62430 -0.42300
O 	O 	0.82210 0.43610 0.27540 -0.52400
O 	O 	0.92620 0.52360 0.39460 -0.44900
O 	O 	0.63730 0.45270 0.55720 -0.51200
O 	O 	0.80270 0.56190 0.62430 -0.41900
O 	O 	0.56390 0.38600 0.27540 -0.51700
O 	O 	0.47640 0.40260 0.39460 -0.42500
