data_crystal

_cell_length_a 13.32380
_cell_length_b 13.32380
_cell_length_c 14.33680
_cell_angle_alpha 90.00000
_cell_angle_beta  90.00000
_cell_angle_gamma 120.00000

_symmetry_space_group_name_	'P 1'
_symmetry_space_group_name_H-M	'P 1'

loop_
_symmetry_equiv_pos_as_xyz
  x,y,z

loop_
_atom_site_label
_atom_site_type_symbol
_atom_site_fract_x
_atom_site_fract_y
_atom_site_fract_z
_atom_site_charge
Ho	Ho	0.66667 0.33334 0.16734 1.92400
Ho	Ho	0.33333 0.66666 0.33266 1.92300
Ho	Ho	0.33333 0.66666 0.83266 1.92700
Ho	Ho	0.66667 0.33334 0.66734 1.92800
Cu	Cu	0.50000 0.00000 -0.00000 0.87100
Cu	Cu	0.50000 0.50000 -0.00000 0.90200
Cu	Cu	-0.00000 0.50000 -0.00000 0.87300
Cu	Cu	0.50000 0.00000 0.50000 0.89900
Cu	Cu	-0.00000 0.50000 0.50000 0.90000
Cu	Cu	0.50000 0.50000 0.50000 0.93000
H 	H 	0.65000 0.97700 0.92100 0.16000
H 	H 	0.82060 0.13950 0.97940 0.22900
H 	H 	0.74650 0.04100 0.05130 0.15300
H 	H 	0.68620 0.08510 0.80550 0.13700
H 	H 	0.73350 0.19380 0.87090 0.17700
H 	H 	0.32700 0.35000 0.92100 0.09400
H 	H 	0.31890 0.17940 0.97940 0.21600
H 	H 	0.29450 0.25350 0.05130 0.16500
H 	H 	0.39890 0.31380 0.80550 0.14900
H 	H 	0.46030 0.26650 0.87090 0.17300
H 	H 	0.02300 0.67300 0.92100 0.04400
H 	H 	0.86050 0.68110 0.97940 0.24700
H 	H 	0.95900 0.70550 0.05130 0.21200
H 	H 	0.91490 0.60110 0.80550 0.17900
H 	H 	0.80620 0.53970 0.87090 0.18200
H 	H 	0.67300 0.02300 0.57900 0.03600
H 	H 	0.68110 0.86050 0.52060 0.14900
H 	H 	0.70550 0.95900 0.44870 0.16600
H 	H 	0.60110 0.91490 0.69450 0.17800
H 	H 	0.53970 0.80620 0.62910 0.17000
H 	H 	0.97700 0.65000 0.57900 0.15600
H 	H 	0.13950 0.82060 0.52060 0.13000
H 	H 	0.04100 0.74650 0.44870 0.10700
H 	H 	0.08510 0.68620 0.69450 0.13600
H 	H 	0.19380 0.73350 0.62910 0.16500
H 	H 	0.35000 0.32700 0.57900 0.09200
H 	H 	0.17940 0.31890 0.52060 0.11100
H 	H 	0.25350 0.29450 0.44870 0.11500
H 	H 	0.31380 0.39890 0.69450 0.14700
H 	H 	0.26650 0.46030 0.62910 0.16100
H 	H 	0.35000 0.02300 0.07900 0.03000
H 	H 	0.17940 0.86050 0.02060 0.02800
H 	H 	0.25350 0.95900 0.94870 0.10400
H 	H 	0.31380 0.91490 0.19450 0.16700
H 	H 	0.26650 0.80620 0.12910 0.15200
H 	H 	0.67300 0.65000 0.07900 0.09800
H 	H 	0.68110 0.82060 0.02060 0.04800
H 	H 	0.70550 0.74650 0.94870 0.09500
H 	H 	0.60110 0.68620 0.19450 0.15600
H 	H 	0.53970 0.73350 0.12910 0.15800
H 	H 	0.97700 0.32700 0.07900 0.15300
H 	H 	0.13950 0.31890 0.02060 0.00300
H 	H 	0.04100 0.29450 0.94870 0.04300
H 	H 	0.08510 0.39890 0.19450 0.12300
H 	H 	0.19380 0.46030 0.12910 0.14600
H 	H 	0.32700 0.97700 0.42100 0.15700
H 	H 	0.31890 0.13950 0.47940 0.10900
H 	H 	0.29450 0.04100 0.55130 0.09200
H 	H 	0.39890 0.08510 0.30550 0.12600
H 	H 	0.46030 0.19380 0.37090 0.15900
H 	H 	0.02300 0.35000 0.42100 0.03500
H 	H 	0.86050 0.17940 0.47940 0.12900
H 	H 	0.95900 0.25350 0.55130 0.15100
H 	H 	0.91490 0.31380 0.30550 0.17000
H 	H 	0.80620 0.26650 0.37090 0.16400
H 	H 	0.65000 0.67300 0.42100 0.09900
H 	H 	0.82060 0.68110 0.47940 0.14800
H 	H 	0.74650 0.70550 0.55130 0.14300
H 	H 	0.68620 0.60110 0.30550 0.16000
H 	H 	0.73350 0.53970 0.37090 0.17000
C 	C 	0.73160 0.18500 0.06970 0.43700
C 	C 	0.74650 0.09960 0.01120 -0.50400
C 	C 	0.66820 0.11690 0.85960 -0.38700
C 	C 	0.56300 0.12620 0.83930 0.49100
C 	C 	0.45340 0.26840 0.06970 0.44300
C 	C 	0.35310 0.25350 0.01120 -0.51200
C 	C 	0.44870 0.33180 0.85960 -0.39300
C 	C 	0.56320 0.43700 0.83930 0.49700
C 	C 	0.81500 0.54660 0.06970 0.45800
C 	C 	0.90040 0.64690 0.01120 -0.53200
C 	C 	0.88310 0.55130 0.85960 -0.40500
C 	C 	0.87380 0.43680 0.83930 0.50500
C 	C 	0.54660 0.81500 0.43030 0.41000
C 	C 	0.64690 0.90040 0.48880 -0.33700
C 	C 	0.55130 0.88310 0.64040 -0.39900
C 	C 	0.43680 0.87380 0.66070 0.50000
C 	C 	0.18500 0.73160 0.43030 0.38800
C 	C 	0.09960 0.74650 0.48880 -0.30400
C 	C 	0.11690 0.66820 0.64040 -0.38200
C 	C 	0.12620 0.56300 0.66070 0.48600
C 	C 	0.26840 0.45340 0.43030 0.39100
C 	C 	0.25350 0.35310 0.48880 -0.30300
C 	C 	0.33180 0.44870 0.64040 -0.38600
C 	C 	0.43700 0.56320 0.66070 0.49100
C 	C 	0.26840 0.81500 0.93030 0.35500
C 	C 	0.25350 0.90040 0.98880 -0.12100
C 	C 	0.33180 0.88310 0.14040 -0.38400
C 	C 	0.43700 0.87380 0.16070 0.49000
C 	C 	0.54660 0.73160 0.93030 0.35200
C 	C 	0.64690 0.74650 0.98880 -0.12500
C 	C 	0.55130 0.66820 0.14040 -0.38400
C 	C 	0.43680 0.56300 0.16070 0.48600
C 	C 	0.18500 0.45340 0.93030 0.33000
C 	C 	0.09960 0.35310 0.98880 -0.07700
C 	C 	0.11690 0.44870 0.14040 -0.36600
C 	C 	0.12620 0.56320 0.16070 0.47500
C 	C 	0.45340 0.18500 0.56970 0.38200
C 	C 	0.35310 0.09960 0.51120 -0.29000
C 	C 	0.44870 0.11690 0.35960 -0.37600
C 	C 	0.56320 0.12620 0.33930 0.48300
C 	C 	0.81500 0.26840 0.56970 0.40400
C 	C 	0.90040 0.25350 0.51120 -0.32300
C 	C 	0.88310 0.33180 0.35960 -0.39400
C 	C 	0.87380 0.43700 0.33930 0.49700
C 	C 	0.73160 0.54660 0.56970 0.40200
C 	C 	0.74650 0.64690 0.51120 -0.32800
C 	C 	0.66820 0.55130 0.35960 -0.39400
C 	C 	0.56300 0.43680 0.33930 0.49400
N 	N 	0.65240 0.04290 0.94120 -0.15200
N 	N 	0.39050 0.34760 0.94120 -0.09900
N 	N 	0.95710 0.60950 0.94120 -0.04100
N 	N 	0.60950 0.95710 0.55880 -0.08900
N 	N 	0.04290 0.65240 0.55880 -0.20400
N 	N 	0.34760 0.39050 0.55880 -0.15500
N 	N 	0.34760 0.95710 0.05880 -0.13900
N 	N 	0.60950 0.65240 0.05880 -0.19800
N 	N 	0.04290 0.39050 0.05880 -0.25900
N 	N 	0.39050 0.04290 0.44120 -0.21100
N 	N 	0.95710 0.34760 0.44120 -0.09500
N 	N 	0.65240 0.60950 0.44120 -0.15000
O 	O 	0.63940 0.18950 0.05940 -0.52700
O 	O 	0.80680 0.24610 0.12820 -0.39700
O 	O 	0.56560 0.18520 0.77060 -0.50700
O 	O 	0.47580 0.07380 0.89110 -0.43600
O 	O 	0.55010 0.36060 0.05940 -0.52500
O 	O 	0.43930 0.19320 0.12820 -0.41100
O 	O 	0.61960 0.43440 0.77060 -0.49800
O 	O 	0.59800 0.52420 0.89110 -0.41100
O 	O 	0.81050 0.44990 0.05940 -0.51600
O 	O 	0.75390 0.56070 0.12820 -0.39900
O 	O 	0.81480 0.38040 0.77060 -0.49400
O 	O 	0.92620 0.40200 0.89110 -0.38400
O 	O 	0.44990 0.81050 0.44060 -0.48800
O 	O 	0.56070 0.75390 0.37180 -0.37800
O 	O 	0.38040 0.81480 0.72940 -0.49400
O 	O 	0.40200 0.92620 0.60890 -0.40000
O 	O 	0.18950 0.63940 0.44060 -0.49800
O 	O 	0.24610 0.80680 0.37180 -0.37500
O 	O 	0.18520 0.56560 0.72940 -0.50700
O 	O 	0.07380 0.47580 0.60890 -0.45400
O 	O 	0.36060 0.55010 0.44060 -0.49600
O 	O 	0.19320 0.43930 0.37180 -0.38900
O 	O 	0.43440 0.61960 0.72940 -0.49900
O 	O 	0.52420 0.59800 0.60890 -0.43000
O 	O 	0.36060 0.81050 0.94060 -0.45400
O 	O 	0.19320 0.75390 0.87180 -0.36200
O 	O 	0.43440 0.81480 0.22940 -0.49100
O 	O 	0.52420 0.92620 0.10890 -0.40500
O 	O 	0.44990 0.63940 0.94060 -0.46300
O 	O 	0.56070 0.80680 0.87180 -0.34900
O 	O 	0.38040 0.56560 0.22940 -0.50100
O 	O 	0.40200 0.47580 0.10890 -0.44300
O 	O 	0.18950 0.55010 0.94060 -0.46300
O 	O 	0.24610 0.43930 0.87180 -0.36000
O 	O 	0.18520 0.61960 0.22940 -0.50500
O 	O 	0.07380 0.59800 0.10890 -0.46000
O 	O 	0.55010 0.18950 0.55940 -0.49900
O 	O 	0.43930 0.24610 0.62820 -0.38400
O 	O 	0.61960 0.18520 0.27060 -0.50400
O 	O 	0.59800 0.07380 0.39110 -0.45300
O 	O 	0.81050 0.36060 0.55940 -0.48900
O 	O 	0.75390 0.19320 0.62820 -0.38500
O 	O 	0.81480 0.43440 0.27060 -0.49100
O 	O 	0.92620 0.52420 0.39110 -0.39900
O 	O 	0.63940 0.44990 0.55940 -0.49700
O 	O 	0.80680 0.56070 0.62820 -0.37200
O 	O 	0.56560 0.38040 0.27060 -0.50100
O 	O 	0.47580 0.40200 0.39110 -0.43500
