data_crystal

_cell_length_a 6.17300
_cell_length_b 9.04500
_cell_length_c 14.65400
_cell_angle_alpha 90.00000
_cell_angle_beta  93.92000
_cell_angle_gamma 90.00000

_symmetry_space_group_name_	'P 1'
_symmetry_space_group_name_H-M	'P 1'

loop_
_symmetry_equiv_pos_as_xyz
  x,y,z

loop_
_atom_site_label
_atom_site_type_symbol
_atom_site_fract_x
_atom_site_fract_y
_atom_site_fract_z
_atom_site_charge
C 	C 	0.90350 0.76890 0.18590 0.35100
C 	C 	0.88530 0.75210 0.08150 0.06700
C 	C 	0.59280 0.21920 0.10570 0.45500
C 	C 	0.71560 0.35540 0.08420 -0.02700
Er	Er	0.07660 0.08000 0.11440 1.76300
O 	O 	0.86040 0.65940 0.23440 -0.42000
O 	O 	0.96750 0.89300 0.21510 -0.40500
O 	O 	0.95520 0.87750 0.03640 -0.56200
O 	O 	0.39260 0.22670 0.10180 -0.47100
O 	O 	0.70600 0.11500 0.12470 -0.50300
O 	O 	0.94550 0.33880 0.10640 -0.24600
C 	C 	0.09650 0.26890 0.31410 0.34900
C 	C 	0.11470 0.25210 0.41850 0.06300
C 	C 	0.40720 0.71920 0.39430 0.45700
C 	C 	0.28440 0.85540 0.41580 -0.02700
Er	Er	0.92340 0.58000 0.38560 1.79500
O 	O 	0.13960 0.15940 0.26560 -0.42100
O 	O 	0.03250 0.39300 0.28490 -0.41100
O 	O 	0.04480 0.37750 0.46360 -0.57400
O 	O 	0.60740 0.72670 0.39820 -0.47200
O 	O 	0.29400 0.61500 0.37530 -0.50800
O 	O 	0.05450 0.83880 0.39360 -0.25000
C 	C 	0.09650 0.23110 0.81410 0.35000
C 	C 	0.11470 0.24790 0.91850 0.06600
C 	C 	0.40720 0.78080 0.89430 0.45400
C 	C 	0.28440 0.64460 0.91580 -0.02800
Er	Er	0.92340 0.92000 0.88560 1.76200
O 	O 	0.13960 0.34060 0.76560 -0.42100
O 	O 	0.03250 0.10700 0.78490 -0.40500
O 	O 	0.04480 0.12250 0.96360 -0.56200
O 	O 	0.60740 0.77330 0.89820 -0.47100
O 	O 	0.29400 0.88500 0.87530 -0.50300
O 	O 	0.05450 0.66120 0.89360 -0.24600
C 	C 	0.90350 0.73110 0.68590 0.34900
C 	C 	0.88530 0.74790 0.58150 0.06300
C 	C 	0.59280 0.28080 0.60570 0.45700
C 	C 	0.71560 0.14460 0.58420 -0.02700
Er	Er	0.07660 0.42000 0.61440 1.79500
O 	O 	0.86040 0.84060 0.73440 -0.42100
O 	O 	0.96750 0.60700 0.71510 -0.41100
O 	O 	0.95520 0.62250 0.53640 -0.57400
O 	O 	0.39260 0.27330 0.60180 -0.47200
O 	O 	0.70600 0.38500 0.62470 -0.50800
O 	O 	0.94550 0.16120 0.60640 -0.25000
