data_crystal

_cell_length_a 13.52700
_cell_length_b 25.84700
_cell_length_c 26.65700
_cell_angle_alpha 98.87000
_cell_angle_beta  103.89200
_cell_angle_gamma 103.72500

_symmetry_space_group_name_	'P 1'
_symmetry_space_group_name_H-M	'P 1'

loop_
_symmetry_equiv_pos_as_xyz
  x,y,z

loop_
_atom_site_label
_atom_site_type_symbol
_atom_site_fract_x
_atom_site_fract_y
_atom_site_fract_z
_atom_site_charge
Ti	Ti	0.51685 0.12140 0.54975 3.08800
Ti	Ti	0.10039 0.08117 0.08526 3.09900
Ti	Ti	0.66289 0.07559 0.49156 3.09500
Ti	Ti	0.36642 0.03510 0.45032 3.08600
Ti	Ti	0.38313 0.42596 0.42986 3.09100
Ti	Ti	0.84650 0.96794 0.03029 3.08600
Ti	Ti	0.36135 0.55552 0.50330 3.09300
Ti	Ti	0.05295 0.96374 0.10856 3.08900
Ti	Ti	0.29231 0.43833 0.52559 3.08300
Ti	Ti	0.49027 0.47251 0.08136 3.08700
Ti	Ti	0.50100 0.40325 0.94933 3.09000
Ti	Ti	0.69082 0.45797 0.05249 3.08800
Cu	Cu	0.67207 0.24126 0.29369 0.72200
Cu	Cu	0.68309 0.24288 0.19620 0.72500
Cu	Cu	0.81434 0.20075 0.25520 0.72100
Cu	Cu	0.84358 0.30495 0.28391 0.71500
I 	I 	0.87094 0.24791 0.35772 -0.70700
I 	I 	0.65473 0.32939 0.25621 -0.69700
I 	I 	0.59984 0.14957 0.22026 -0.78900
I 	I 	0.88592 0.26364 0.19449 -0.67600
P 	P 	0.28960 0.42046 0.97746 0.64300
P 	P 	0.50800 0.98275 0.38860 0.64800
P 	P 	0.46190 0.54440 0.40421 0.65500
P 	P 	0.88850 0.08585 0.00107 0.66600
C 	C 	0.93770 0.41830 0.28470 -0.00700
H 	H 	0.88950 0.40770 0.25010 -0.02800
C 	C 	0.99890 0.47160 0.30310 -0.04300
H 	H 	0.99290 0.49630 0.28040 -0.00700
C 	C 	0.07250 0.45190 0.38080 -0.16500
C 	C 	0.85710 0.04840 0.27470 -0.04500
H 	H 	0.83650 0.02490 0.29680 0.00100
C 	C 	0.01220 0.39900 0.36210 0.03800
H 	H 	0.01930 0.37380 0.38420 -0.03300
C 	C 	0.15470 0.47110 0.43430 0.50100
C 	C 	0.42040 0.56630 0.34430 -0.21100
C 	C 	0.48640 0.58230 0.31540 0.11600
H 	H 	0.55800 0.58150 0.32730 -0.07300
C 	C 	0.45500 0.59960 0.26980 -0.26300
H 	H 	0.50550 0.61330 0.25200 0.03000
C 	C 	0.35500 0.59700 0.25110 0.13100
H 	H 	0.33270 0.60760 0.21860 -0.09600
C 	C 	0.28500 0.58060 0.27480 -0.22600
H 	H 	0.21240 0.57870 0.25950 0.05100
C 	C 	0.31560 0.56480 0.32520 0.07600
H 	H 	0.26570 0.55410 0.34410 -0.02100
C 	C 	0.28180 0.54250 0.60130 0.93500
H 	H 	0.31380 0.58250 0.60490 -0.31400
C 	C 	0.34470 0.52910 0.65010 -1.19500
H 	H 	0.32110 0.48970 0.64770 0.27600
H 	H 	0.33340 0.54870 0.68170 0.34300
H 	H 	0.42050 0.54010 0.65240 0.33700
C 	C 	0.16760 0.53520 0.59230 -1.24900
H 	H 	0.12990 0.49610 0.58320 0.30300
H 	H 	0.14140 0.55190 0.56310 0.33400
H 	H 	0.15510 0.55280 0.62460 0.37100
C 	C 	0.29320 0.32360 0.46850 1.57800
H 	H 	0.32100 0.31390 0.43780 -0.50400
C 	C 	0.35710 0.30730 0.50860 -2.09600
H 	H 	0.36570 0.33070 0.54290 0.54700
H 	H 	0.42680 0.31070 0.50260 0.59900
H 	H 	0.32370 0.26920 0.50840 0.56000
C 	C 	0.17650 0.29580 0.44570 -1.76200
H 	H 	0.16040 0.25910 0.45290 0.47200
H 	H 	0.15600 0.29290 0.40730 0.49100
H 	H 	0.13670 0.31710 0.46200 0.44200
C 	C 	0.60200 0.28660 0.10440 0.05500
H 	H 	0.65930 0.31790 0.12360 -0.03000
C 	C 	0.53520 0.28880 0.05690 -0.13000
C 	C 	0.44620 0.20230 0.04790 -0.01200
H 	H 	0.39080 0.17040 0.02800 -0.03500
C 	C 	0.50890 0.19940 0.09500 -0.01300
H 	H 	0.49530 0.16650 0.10720 -0.02200
C 	C 	0.55670 0.34110 0.03660 0.50000
C 	C 	0.16660 0.36780 0.96500 -0.16000
C 	C 	0.08840 0.35440 0.91670 0.02800
H 	H 	0.09820 0.37410 0.89010 -0.02700
C 	C 	0.99600 0.31230 0.90720 -0.14100
H 	H 	0.94260 0.30320 0.87420 0.00900
C 	C 	0.98160 0.28350 0.94610 -0.00500
H 	H 	0.91840 0.25470 0.93970 -0.00700
C 	C 	0.05970 0.29690 0.99450 -0.13800
H 	H 	0.04990 0.27720 0.02100 0.04900
C 	C 	0.15220 0.33900 0.00390 0.03900
H 	H 	0.20560 0.34810 0.03700 -0.02300
C 	C 	0.71300 0.51100 0.16680 1.66300
H 	H 	0.78560 0.52150 0.16190 -0.52100
C 	C 	0.70200 0.56230 0.18690 -2.11100
H 	H 	0.69400 0.56370 0.22260 0.55800
H 	H 	0.63920 0.56790 0.16370 0.52200
H 	H 	0.76540 0.59110 0.18840 0.59800
C 	C 	0.72290 0.47070 0.20010 -1.95200
H 	H 	0.78170 0.48770 0.23250 0.55600
H 	H 	0.73670 0.43930 0.18040 0.54000
H 	H 	0.65660 0.45860 0.20940 0.50500
C 	C 	0.73800 0.41050 0.95130 1.58100
C 	C 	0.76300 0.44140 0.92060 -2.60200
H 	H 	0.82410 0.47270 0.94090 0.67600
H 	H 	0.70290 0.45450 0.90520 0.68900
H 	H 	0.78220 0.42070 0.89210 0.69400
C 	C 	0.74400 0.35500 0.94760 -2.03700
H 	H 	0.76920 0.34410 0.91730 0.55100
H 	H 	0.67290 0.33040 0.94280 0.52200
H 	H 	0.79280 0.35270 0.98030 0.54000
C 	C 	0.83510 0.09730 0.27890 0.00400
H 	H 	0.79640 0.10610 0.30270 -0.01500
C 	C 	0.91830 0.11880 0.21750 0.04000
H 	H 	0.94160 0.14330 0.19670 -0.01200
C 	C 	0.93940 0.06830 0.21280 -0.15000
C 	C 	0.99450 0.05280 0.17250 0.49100
C 	C 	0.81550 0.13590 0.99870 -0.25400
C 	C 	0.75580 0.13940 0.95170 0.14400
H 	H 	0.75280 0.11540 0.92030 -0.11800
C 	C 	0.69750 0.17800 0.94810 -0.25000
H 	H 	0.65490 0.17980 0.91490 0.05600
C 	C 	0.70370 0.21190 0.99310 0.12800
H 	H 	0.66440 0.23790 0.99160 -0.05200
C 	C 	0.76400 0.20960 0.03910 -0.23500
H 	H 	0.76750 0.23400 0.07050 0.09400
C 	C 	0.82140 0.17170 0.04180 0.15100
H 	H 	0.86600 0.17130 0.07520 -0.03000
C 	C 	0.28270 0.04510 0.15180 3.89200
H 	H 	0.30310 0.08220 0.14410 -1.05300
C 	C 	0.30020 0.06390 0.20840 -4.22700
H 	H 	0.29130 0.03240 0.22490 1.12100
H 	H 	0.24870 0.08350 0.21400 1.18600
H 	H 	0.37240 0.08840 0.22430 1.23500
C 	C 	0.34280 0.02400 0.12720 -5.24200
H 	H 	0.41740 0.04530 0.14320 1.52400
H 	H 	0.32110 0.02500 0.08960 1.48500
H 	H 	0.33440 0.98610 0.13050 1.42200
C 	C 	0.84850 0.86540 0.07850 1.09300
H 	H 	0.91600 0.86100 0.10040 -0.32300
C 	C 	0.80700 0.86710 0.12340 -1.42700
H 	H 	0.73950 0.83850 0.11430 0.38000
H 	H 	0.79560 0.90290 0.13310 0.35400
H 	H 	0.85800 0.86120 0.15340 0.38200
C 	C 	0.84400 0.82540 0.03990 -0.99500
H 	H 	0.84510 0.79300 0.05460 0.30700
H 	H 	0.90700 0.83620 0.02750 0.29300
C 	C 	0.54200 0.27730 0.36090 -0.03200
H 	H 	0.53530 0.30300 0.33930 -0.00600
C 	C 	0.50290 0.28010 0.40380 -0.04400
H 	H 	0.47020 0.30790 0.41130 -0.02100
C 	C 	0.55770 0.20660 0.42330 -0.16400
C 	C 	0.59780 0.20420 0.38120 0.05600
H 	H 	0.63250 0.17690 0.37470 -0.02000
C 	C 	0.56910 0.16760 0.45940 0.51300
C 	C 	0.54300 0.01150 0.29640 0.17200
H 	H 	0.55680 0.04850 0.31400 -0.06300
C 	C 	0.54970 0.99980 0.24620 -0.33300
H 	H 	0.56790 0.02900 0.22930 0.09400
C 	C 	0.53210 0.94970 0.22010 0.17200
H 	H 	0.54260 0.94340 0.18600 -0.09800
C 	C 	0.49900 0.90750 0.24140 -0.28300
H 	H 	0.47750 0.87100 0.22090 0.06000
C 	C 	0.49780 0.91800 0.29470 0.13300
H 	H 	0.48370 0.88870 0.31190 -0.08900
C 	C 	0.27540 0.10240 0.52670 1.53000
H 	H 	0.31000 0.11940 0.56520 -0.47400
C 	C 	0.25280 0.15020 0.50840 -1.76500
H 	H 	0.22840 0.14170 0.46960 0.42500
H 	H 	0.31740 0.18110 0.52100 0.44300
H 	H 	0.19720 0.15980 0.52250 0.45500
C 	C 	0.20130 0.05650 0.53080 -1.98700
H 	H 	0.14800 0.06810 0.54540 0.52600
H 	H 	0.23760 0.03690 0.55440 0.54400
H 	H 	0.16620 0.03230 0.49570 0.46500
C 	C 	0.76230 0.15990 0.59870 2.00300
H 	H 	0.81470 0.14280 0.58740 -0.62200
C 	C 	0.80360 0.21500 0.59210 -2.29000
H 	H 	0.75000 0.23460 0.59220 0.58900
H 	H 	0.82080 0.21310 0.55830 0.62000
H 	H 	0.86800 0.23430 0.62120 0.61300
C 	C 	0.76800 0.14480 0.64670 -2.55300
H 	H 	0.69860 0.13860 0.65320 0.67000
H 	H 	0.82070 0.17400 0.67520 0.68000
H 	H 	0.78990 0.11110 0.64560 0.69900
C 	C 	0.51660 0.97090 0.32180 -0.25700
N 	N 	0.58800 0.24180 0.12380 -0.23200
N 	N 	0.59080 0.23820 0.34840 -0.23900
N 	N 	0.94300 0.38120 0.31330 -0.24300
N 	N 	0.86530 0.13300 0.25130 -0.23700
N 	N 	0.50900 0.24510 0.43520 -0.11800
N 	N 	0.45700 0.24680 0.02730 -0.09600
N 	N 	0.90840 0.03220 0.23910 -0.10900
N 	N 	0.06700 0.49000 0.35190 -0.09700
O 	O 	0.36510 0.09120 0.51240 -1.44200
O 	O 	0.37290 0.47930 0.48450 -1.58100
O 	O 	0.30850 0.97470 0.46840 -1.48100
O 	O 	0.52470 0.17100 0.49520 -0.87400
O 	O 	0.98990 0.00900 0.06310 -1.55200
O 	O 	0.51210 0.06370 0.49010 -1.57600
O 	O 	0.66880 0.12920 0.55740 -1.49500
O 	O 	0.83550 0.92900 0.96860 -1.47000
O 	O 	0.41450 0.00510 0.39080 -0.89100
O 	O 	0.90410 0.92020 0.07700 -1.33500
O 	O 	0.15890 0.43580 0.46270 -0.84600
O 	O 	0.99230 0.11050 0.04460 -0.82000
O 	O 	0.17040 0.03110 0.12310 -1.83500
O 	O 	0.02730 0.08850 0.14950 -0.78500
O 	O 	0.62650 0.13770 0.45130 -0.79500
O 	O 	0.61240 0.02410 0.42260 -0.85500
O 	O 	0.41460 0.48290 0.39080 -0.87900
O 	O 	0.31240 0.38150 0.47490 -1.45100
O 	O 	0.00400 0.00480 0.16700 -0.86400
O 	O 	0.30030 0.51530 0.55320 -1.27600
O 	O 	0.82020 0.03460 0.01110 -0.91800
O 	O 	0.53880 0.44980 0.02300 -1.58200
O 	O 	0.58200 0.56060 0.41970 -0.88700
O 	O 	0.49130 0.58630 0.55480 -1.43000
O 	O 	0.49130 0.92700 0.40290 -0.90600
O 	O 	0.41990 0.57220 0.44560 -0.87000
O 	O 	0.35240 0.39730 0.94470 -0.86800
O 	O 	0.49640 0.33990 0.99270 -0.80700
O 	O 	0.90450 0.07400 0.94640 -0.92500
O 	O 	0.21340 0.51800 0.44530 -0.82000
O 	O 	0.25920 0.46900 0.95800 -0.87500
O 	O 	0.48510 0.54080 0.08650 -1.51200
O 	O 	0.34520 0.43470 0.03610 -0.89100
O 	O 	0.64910 0.48570 0.11410 -1.47700
O 	O 	0.63580 0.37940 0.06590 -0.85000
O 	O 	0.66330 0.42110 0.97800 -1.46400
Ti	Ti	0.48315 0.87860 0.45025 3.08700
Ti	Ti	0.89961 0.91883 0.91474 3.09800
Ti	Ti	0.33711 0.92441 0.50844 3.09400
Ti	Ti	0.63358 0.96490 0.54968 3.08500
Ti	Ti	0.61687 0.57404 0.57014 3.09000
Ti	Ti	0.15350 0.03206 0.96971 3.08500
Ti	Ti	0.63865 0.44448 0.49670 3.09200
Ti	Ti	0.94705 0.03626 0.89144 3.08800
Ti	Ti	0.70769 0.56167 0.47441 3.08200
Ti	Ti	0.50973 0.52749 0.91864 3.08600
Ti	Ti	0.49900 0.59675 0.05067 3.08900
Ti	Ti	0.30918 0.54203 0.94751 3.08700
Cu	Cu	0.32793 0.75874 0.70631 0.72100
Cu	Cu	0.31691 0.75712 0.80380 0.72400
Cu	Cu	0.18566 0.79925 0.74480 0.72000
Cu	Cu	0.15642 0.69505 0.71609 0.71400
I 	I 	0.12906 0.75209 0.64228 -0.70700
I 	I 	0.34527 0.67061 0.74379 -0.69700
I 	I 	0.40016 0.85043 0.77974 -0.78900
I 	I 	0.11408 0.73636 0.80551 -0.67600
P 	P 	0.71040 0.57954 0.02254 0.64300
P 	P 	0.49200 0.01725 0.61140 0.64800
P 	P 	0.53810 0.45560 0.59579 0.65500
P 	P 	0.11150 0.91415 0.99893 0.66600
C 	C 	0.06230 0.58170 0.71530 -0.00700
H 	H 	0.11050 0.59230 0.74990 -0.02800
C 	C 	0.00110 0.52840 0.69690 -0.04300
H 	H 	0.00710 0.50370 0.71960 -0.00700
C 	C 	0.92750 0.54810 0.61920 -0.16500
C 	C 	0.14290 0.95160 0.72530 -0.04500
H 	H 	0.16350 0.97510 0.70320 0.00100
C 	C 	0.98780 0.60100 0.63790 0.03800
H 	H 	0.98070 0.62620 0.61580 -0.03300
C 	C 	0.84530 0.52890 0.56570 0.50100
C 	C 	0.57960 0.43370 0.65570 -0.21100
C 	C 	0.51360 0.41770 0.68460 0.11600
H 	H 	0.44200 0.41850 0.67270 -0.07300
C 	C 	0.54500 0.40040 0.73020 -0.26300
H 	H 	0.49450 0.38670 0.74800 0.03000
C 	C 	0.64500 0.40300 0.74890 0.13100
H 	H 	0.66730 0.39240 0.78140 -0.09600
C 	C 	0.71500 0.41940 0.72520 -0.22600
H 	H 	0.78760 0.42130 0.74050 0.05100
C 	C 	0.68440 0.43520 0.67480 0.07600
H 	H 	0.73430 0.44590 0.65590 -0.02100
C 	C 	0.71820 0.45750 0.39870 0.93500
H 	H 	0.68620 0.41750 0.39510 -0.31400
C 	C 	0.65530 0.47090 0.34990 -1.19500
H 	H 	0.67890 0.51030 0.35230 0.27600
H 	H 	0.66660 0.45130 0.31830 0.34300
H 	H 	0.57950 0.45990 0.34760 0.33700
C 	C 	0.83240 0.46480 0.40770 -1.24900
H 	H 	0.87010 0.50390 0.41680 0.30300
H 	H 	0.85860 0.44810 0.43690 0.33400
H 	H 	0.84490 0.44720 0.37540 0.37100
C 	C 	0.70680 0.67640 0.53150 1.57800
H 	H 	0.67900 0.68610 0.56220 -0.50400
C 	C 	0.64290 0.69270 0.49140 -2.09600
H 	H 	0.63430 0.66930 0.45710 0.54700
H 	H 	0.57320 0.68930 0.49740 0.59900
H 	H 	0.67630 0.73080 0.49160 0.56000
C 	C 	0.82350 0.70420 0.55430 -1.76200
H 	H 	0.83960 0.74090 0.54710 0.47200
H 	H 	0.84400 0.70710 0.59270 0.49100
H 	H 	0.86330 0.68290 0.53800 0.44200
C 	C 	0.39800 0.71340 0.89560 0.05500
H 	H 	0.34070 0.68210 0.87640 -0.03000
C 	C 	0.46480 0.71120 0.94310 -0.13000
C 	C 	0.55380 0.79770 0.95210 -0.01200
H 	H 	0.60920 0.82960 0.97200 -0.03500
C 	C 	0.49110 0.80060 0.90500 -0.01300
H 	H 	0.50470 0.83350 0.89280 -0.02200
C 	C 	0.44330 0.65890 0.96340 0.50000
C 	C 	0.83340 0.63220 0.03500 -0.16000
C 	C 	0.91160 0.64560 0.08330 0.02800
H 	H 	0.90180 0.62590 0.10990 -0.02700
C 	C 	0.00400 0.68770 0.09280 -0.14100
H 	H 	0.05740 0.69680 0.12580 0.00900
C 	C 	0.01840 0.71650 0.05390 -0.00500
H 	H 	0.08160 0.74530 0.06030 -0.00700
C 	C 	0.94030 0.70310 0.00550 -0.13800
H 	H 	0.95010 0.72280 0.97900 0.04900
C 	C 	0.84780 0.66100 0.99610 0.03900
H 	H 	0.79440 0.65190 0.96300 -0.02300
C 	C 	0.28700 0.48900 0.83320 1.66300
H 	H 	0.21440 0.47850 0.83810 -0.52100
C 	C 	0.29800 0.43770 0.81310 -2.11100
H 	H 	0.30600 0.43630 0.77740 0.55800
H 	H 	0.36080 0.43210 0.83630 0.52200
H 	H 	0.23460 0.40890 0.81160 0.59800
C 	C 	0.27710 0.52930 0.79990 -1.95200
H 	H 	0.21830 0.51230 0.76750 0.55600
H 	H 	0.26330 0.56070 0.81960 0.54000
H 	H 	0.34340 0.54140 0.79060 0.50500
C 	C 	0.26200 0.58950 0.04870 1.58100
C 	C 	0.23700 0.55860 0.07940 -2.60200
H 	H 	0.17590 0.52730 0.05910 0.67600
H 	H 	0.29710 0.54550 0.09480 0.68900
H 	H 	0.21780 0.57930 0.10790 0.69400
C 	C 	0.25600 0.64500 0.05240 -2.03700
H 	H 	0.23080 0.65590 0.08270 0.55100
H 	H 	0.32710 0.66960 0.05720 0.52200
H 	H 	0.20720 0.64730 0.01970 0.54000
C 	C 	0.16490 0.90270 0.72110 0.00400
H 	H 	0.20360 0.89390 0.69730 -0.01500
C 	C 	0.08170 0.88120 0.78250 0.04000
H 	H 	0.05840 0.85670 0.80330 -0.01200
C 	C 	0.06060 0.93170 0.78720 -0.15000
C 	C 	0.00550 0.94720 0.82750 0.49100
C 	C 	0.18450 0.86410 0.00130 -0.25400
C 	C 	0.24420 0.86060 0.04830 0.14400
H 	H 	0.24720 0.88460 0.07970 -0.11800
C 	C 	0.30250 0.82200 0.05190 -0.25000
H 	H 	0.34510 0.82020 0.08510 0.05600
C 	C 	0.29630 0.78810 0.00690 0.12800
H 	H 	0.33560 0.76210 0.00840 -0.05200
C 	C 	0.23600 0.79040 0.96090 -0.23500
H 	H 	0.23250 0.76600 0.92950 0.09400
C 	C 	0.17860 0.82830 0.95820 0.15100
H 	H 	0.13400 0.82870 0.92480 -0.03000
C 	C 	0.71730 0.95490 0.84820 3.89200
H 	H 	0.69690 0.91780 0.85590 -1.05300
C 	C 	0.69980 0.93610 0.79160 -4.22700
H 	H 	0.70870 0.96760 0.77510 1.12100
H 	H 	0.75130 0.91650 0.78600 1.18600
H 	H 	0.62760 0.91160 0.77570 1.23500
C 	C 	0.65720 0.97600 0.87280 -5.24200
H 	H 	0.58260 0.95470 0.85680 1.52400
H 	H 	0.67890 0.97500 0.91040 1.48500
H 	H 	0.66560 0.01390 0.86950 1.42200
C 	C 	0.15150 0.13460 0.92150 1.09300
H 	H 	0.08400 0.13900 0.89960 -0.32300
C 	C 	0.19300 0.13290 0.87660 -1.42700
H 	H 	0.26050 0.16150 0.88570 0.38000
H 	H 	0.20440 0.09710 0.86690 0.35400
H 	H 	0.14200 0.13880 0.84660 0.38200
C 	C 	0.15600 0.17460 0.96010 -0.99500
H 	H 	0.15490 0.20700 0.94540 0.30700
H 	H 	0.09300 0.16380 0.97250 0.29300
C 	C 	0.45800 0.72270 0.63910 -0.03200
H 	H 	0.46470 0.69700 0.66070 -0.00600
C 	C 	0.49710 0.71990 0.59620 -0.04400
H 	H 	0.52980 0.69210 0.58870 -0.02100
C 	C 	0.44230 0.79340 0.57670 -0.16400
C 	C 	0.40220 0.79580 0.61880 0.05600
H 	H 	0.36750 0.82310 0.62530 -0.02000
C 	C 	0.43090 0.83240 0.54060 0.51300
C 	C 	0.45700 0.98850 0.70360 0.17200
H 	H 	0.44320 0.95150 0.68600 -0.06300
C 	C 	0.45030 0.00020 0.75380 -0.33300
H 	H 	0.43210 0.97100 0.77070 0.09400
C 	C 	0.46790 0.05030 0.77990 0.17200
H 	H 	0.45740 0.05660 0.81400 -0.09800
C 	C 	0.50100 0.09250 0.75860 -0.28300
H 	H 	0.52250 0.12900 0.77910 0.06000
C 	C 	0.50220 0.08200 0.70530 0.13300
H 	H 	0.51630 0.11130 0.68810 -0.08900
C 	C 	0.72460 0.89760 0.47330 1.53000
H 	H 	0.69000 0.88060 0.43480 -0.47400
C 	C 	0.74720 0.84980 0.49160 -1.76500
H 	H 	0.77160 0.85830 0.53040 0.42500
H 	H 	0.68260 0.81890 0.47900 0.44300
H 	H 	0.80280 0.84020 0.47750 0.45500
C 	C 	0.79870 0.94350 0.46920 -1.98700
H 	H 	0.85200 0.93190 0.45460 0.52600
H 	H 	0.76240 0.96310 0.44560 0.54400
H 	H 	0.83380 0.96770 0.50430 0.46500
C 	C 	0.23770 0.84010 0.40130 2.00300
H 	H 	0.18530 0.85720 0.41260 -0.62200
C 	C 	0.19640 0.78500 0.40790 -2.29000
H 	H 	0.25000 0.76540 0.40780 0.58900
H 	H 	0.17920 0.78690 0.44170 0.62000
H 	H 	0.13200 0.76570 0.37880 0.61300
C 	C 	0.23200 0.85520 0.35330 -2.55300
H 	H 	0.30140 0.86140 0.34680 0.67000
H 	H 	0.17930 0.82600 0.32480 0.68000
H 	H 	0.21010 0.88890 0.35440 0.69900
C 	C 	0.48340 0.02910 0.67820 -0.25700
N 	N 	0.41200 0.75820 0.87620 -0.23200
N 	N 	0.40920 0.76180 0.65160 -0.23900
N 	N 	0.05700 0.61880 0.68670 -0.24300
N 	N 	0.13470 0.86700 0.74870 -0.23700
N 	N 	0.49100 0.75490 0.56480 -0.11800
N 	N 	0.54300 0.75320 0.97270 -0.09600
N 	N 	0.09160 0.96780 0.76090 -0.10900
N 	N 	0.93300 0.51000 0.64810 -0.09700
O 	O 	0.63490 0.90880 0.48760 -1.44200
O 	O 	0.62710 0.52070 0.51550 -1.58100
O 	O 	0.69150 0.02530 0.53160 -1.48100
O 	O 	0.47530 0.82900 0.50480 -0.87400
O 	O 	0.01010 0.99100 0.93690 -1.55200
O 	O 	0.48790 0.93630 0.50990 -1.57600
O 	O 	0.33120 0.87080 0.44260 -1.49500
O 	O 	0.16450 0.07100 0.03140 -1.47000
O 	O 	0.58550 0.99490 0.60920 -0.89100
O 	O 	0.09590 0.07980 0.92300 -1.33500
O 	O 	0.84110 0.56420 0.53730 -0.84600
O 	O 	0.00770 0.88950 0.95540 -0.82000
O 	O 	0.82960 0.96890 0.87690 -1.83500
O 	O 	0.97270 0.91150 0.85050 -0.78500
O 	O 	0.37350 0.86230 0.54870 -0.79500
O 	O 	0.38760 0.97590 0.57740 -0.85500
O 	O 	0.58540 0.51710 0.60920 -0.87900
O 	O 	0.68760 0.61850 0.52510 -1.45100
O 	O 	0.99600 0.99520 0.83300 -0.86400
O 	O 	0.69970 0.48470 0.44680 -1.27600
O 	O 	0.17980 0.96540 0.98890 -0.91800
O 	O 	0.46120 0.55020 0.97700 -1.58200
O 	O 	0.41800 0.43940 0.58030 -0.88700
O 	O 	0.50870 0.41370 0.44520 -1.43000
O 	O 	0.50870 0.07300 0.59710 -0.90600
O 	O 	0.58010 0.42780 0.55440 -0.87000
O 	O 	0.64760 0.60270 0.05530 -0.86800
O 	O 	0.50360 0.66010 0.00730 -0.80700
O 	O 	0.09550 0.92600 0.05360 -0.92500
O 	O 	0.78660 0.48200 0.55470 -0.82000
O 	O 	0.74080 0.53100 0.04200 -0.87500
O 	O 	0.51490 0.45920 0.91350 -1.51200
O 	O 	0.65480 0.56530 0.96390 -0.89100
O 	O 	0.35090 0.51430 0.88590 -1.47700
O 	O 	0.36420 0.62060 0.93410 -0.85000
O 	O 	0.33670 0.57890 0.02200 -1.46400
