data_crystal

_cell_length_a 13.54300
_cell_length_b 25.77800
_cell_length_c 26.75300
_cell_angle_alpha 98.78600
_cell_angle_beta  103.60900
_cell_angle_gamma 103.99100

_symmetry_space_group_name_	'P 1'
_symmetry_space_group_name_H-M	'P 1'

loop_
_symmetry_equiv_pos_as_xyz
  x,y,z

loop_
_atom_site_label
_atom_site_type_symbol
_atom_site_fract_x
_atom_site_fract_y
_atom_site_fract_z
_atom_site_charge
Ti	Ti	0.48172 0.37793 0.45077 3.08500
Ti	Ti	0.33708 0.42412 0.50916 3.09000
Ti	Ti	0.63295 0.46513 0.54883 3.08700
Ti	Ti	0.31013 0.04186 0.94756 3.08400
Ti	Ti	0.51038 0.02689 0.91868 3.08800
Ti	Ti	0.49890 0.09694 0.04951 3.09300
Ti	Ti	0.61665 0.07497 0.57024 3.09200
Ti	Ti	0.71283 0.05782 0.47730 3.08400
Ti	Ti	0.63648 0.94238 0.50107 3.09200
Ti	Ti	0.94091 0.53294 0.89069 3.08400
Ti	Ti	0.15062 0.53251 0.96811 3.08900
Ti	Ti	0.89921 0.41668 0.91686 3.09100
Cu	Cu	0.32928 0.25904 0.70757 0.72300
Cu	Cu	0.31628 0.25760 0.80509 0.72500
Cu	Cu	0.15883 0.19260 0.71701 0.71400
Cu	Cu	0.18111 0.29645 0.74503 0.71900
I 	I 	0.34821 0.17121 0.74569 -0.69000
I 	I 	0.13038 0.24900 0.64296 -0.70000
I 	I 	0.39655 0.35116 0.78029 -0.69000
I 	I 	0.11291 0.23362 0.80611 -0.67200
P 	P 	0.49270 0.51799 0.61071 0.65200
P 	P 	0.71100 0.07978 0.02194 0.65800
P 	P 	0.11450 0.41563 0.00007 0.64800
P 	P 	0.53010 0.95759 0.59706 0.69500
N 	N 	0.41410 0.26400 0.65500 -0.26300
N 	N 	0.41380 0.25990 0.87580 -0.26100
N 	N 	0.05890 0.11540 0.68930 -0.27100
N 	N 	0.13050 0.36410 0.74820 -0.26600
C 	C 	0.40380 0.29610 0.62060 0.12400
H 	H 	0.36170 0.32020 0.62440 -0.03600
C 	C 	0.44980 0.29660 0.57980 -0.29400
C 	C 	0.50610 0.26050 0.57240 0.10800
H 	H 	0.54000 0.26050 0.54500 -0.05500
C 	C 	0.51400 0.22300 0.60530 -0.19600
H 	H 	0.54900 0.19580 0.59930 0.02900
C 	C 	0.47000 0.22700 0.64600 0.04800
H 	H 	0.47810 0.20300 0.66940 -0.03100
C 	C 	0.43120 0.33260 0.54230 0.57400
C 	C 	0.48580 0.52950 0.67720 -0.22100
C 	C 	0.50980 0.58350 0.70630 0.11700
H 	H 	0.52850 0.61350 0.69040 -0.07000
C 	C 	0.50600 0.59280 0.75740 -0.24800
H 	H 	0.52870 0.62930 0.77780 0.05900
C 	C 	0.47110 0.55010 0.77940 0.14700
H 	H 	0.46030 0.55670 0.81340 -0.07000
C 	C 	0.45280 0.50120 0.75370 -0.26300
H 	H 	0.43500 0.47170 0.77040 0.09800
C 	C 	0.45810 0.48950 0.70170 0.13300
H 	H 	0.44160 0.45240 0.68370 -0.03700
C 	C 	0.23480 0.34250 0.40280 0.56900
C 	C 	0.19740 0.28340 0.40570 -0.87600
H 	H 	0.13290 0.26450 0.37670 0.21200
H 	H 	0.18210 0.28140 0.43950 0.19800
H 	H 	0.25280 0.26570 0.40270 0.19800
C 	C 	0.23200 0.35920 0.35570 -1.03800
H 	H 	0.27020 0.39840 0.36320 0.26000
H 	H 	0.15850 0.35290 0.33540 0.25200
H 	H 	0.26680 0.33820 0.33530 0.25200
C 	C 	0.72290 0.39710 0.47080 0.79200
C 	C 	0.74630 0.35110 0.49000 -1.16700
H 	H 	0.80760 0.34420 0.47980 0.28500
H 	H 	0.68470 0.31860 0.47490 0.25600
H 	H 	0.76250 0.35910 0.52860 0.26500
C 	C 	0.79300 0.44210 0.46590 -1.33900
H 	H 	0.75570 0.46910 0.45670 0.32400
H 	H 	0.82500 0.43170 0.43820 0.33700
H 	H 	0.84840 0.45810 0.49940 0.30700
C 	C 	0.50020 0.30150 0.90180 0.07300
H 	H 	0.51190 0.33370 0.88820 -0.03700
C 	C 	0.57140 0.30090 0.94570 -0.20000
H 	H 	0.63120 0.33190 0.96250 0.00300
C 	C 	0.55650 0.25370 0.96660 0.11500
H 	H 	0.60670 0.25180 0.99730 -0.06600
C 	C 	0.46820 0.21070 0.94190 -0.27500
C 	C 	0.40090 0.21450 0.89630 0.12000
H 	H 	0.34190 0.18360 0.87810 -0.04500
C 	C 	0.44320 0.15990 0.96250 0.55600
C 	C 	0.83380 0.13130 0.03210 -0.22900
C 	C 	0.86200 0.15980 0.00050 0.12100
H 	H 	0.81230 0.15140 0.96660 -0.05000
C 	C 	0.95500 0.20190 0.00850 -0.20300
H 	H 	0.96330 0.22100 0.98140 0.05700
C 	C 	0.02500 0.21420 0.05020 0.04100
C 	C 	0.98900 0.20150 0.08910 -0.18300
H 	H 	0.02020 0.22370 0.12370 0.02600
C 	C 	0.90100 0.15220 0.07800 0.08600
H 	H 	0.89260 0.13450 0.10610 -0.04500
C 	C 	0.28660 0.98800 0.83450 0.77200
C 	C 	0.29400 0.93580 0.81580 -1.26400
H 	H 	0.30250 0.91670 0.84480 0.31600
H 	H 	0.35460 0.93910 0.80160 0.31100
H 	H 	0.22850 0.91500 0.78800 0.32400
C 	C 	0.28060 0.02660 0.80100 -1.19900
H 	H 	0.23700 0.00710 0.76520 0.32600
H 	H 	0.35220 0.04520 0.80010 0.29900
H 	H 	0.24860 0.05380 0.81490 0.30500
C 	C 	0.26140 0.08650 0.04700 0.96300
C 	C 	0.25500 0.14570 0.05140 -1.25700
H 	H 	0.20380 0.15120 0.07050 0.34600
H 	H 	0.23280 0.15240 0.01600 0.32700
H 	H 	0.32520 0.17120 0.07050 0.31000
C 	C 	0.23700 0.05390 0.07780 -1.73300
H 	H 	0.25890 0.02080 0.06910 0.45500
H 	H 	0.16070 0.04390 0.07300 0.45600
H 	H 	0.27480 0.07270 0.11460 0.45600
C 	C 	0.06540 0.08010 0.71940 0.07600
H 	H 	0.11280 0.09270 0.75400 -0.05300
C 	C 	0.00700 0.02540 0.70350 -0.20400
H 	H 	0.01560 0.00070 0.72610 0.04400
C 	C 	0.93620 0.00780 0.65400 0.11400
H 	H 	0.89430 0.97060 0.64210 -0.03400
C 	C 	0.92570 0.04450 0.62130 -0.29200
C 	C 	0.98960 0.09730 0.64120 0.10000
H 	H 	0.98440 0.12290 0.61930 -0.05200
C 	C 	0.84640 0.02670 0.56930 0.54000
C 	C 	0.55890 0.93500 0.65650 -0.39200
C 	C 	0.66000 0.94120 0.68390 0.29400
H 	H 	0.71790 0.95590 0.67090 -0.09300
C 	C 	0.67700 0.92440 0.73460 -0.53700
H 	H 	0.74710 0.93100 0.75650 0.15700
C 	C 	0.59800 0.90090 0.74920 0.54700
H 	H 	0.60960 0.88440 0.77870 -0.23000
C 	C 	0.50500 0.89910 0.72520 -0.64800
H 	H 	0.44850 0.88650 0.73990 0.17200
C 	C 	0.48400 0.91490 0.67920 0.41100
H 	H 	0.41230 0.91150 0.66180 -0.16400
C 	C 	0.71720 0.95100 0.40330 0.99000
H 	H 	0.68270 0.91140 0.40070 -0.33600
C 	C 	0.65700 0.96460 0.35340 -1.23000
H 	H 	0.58170 0.95810 0.35260 0.34300
H 	H 	0.66180 0.94110 0.32230 0.36900
H 	H 	0.68720 0.00310 0.35340 0.30400
C 	C 	0.82960 0.95640 0.41150 -1.32800
H 	H 	0.84000 0.93590 0.38010 0.39300
H 	H 	0.85560 0.94160 0.44200 0.35500
H 	H 	0.86910 0.99510 0.41790 0.33200
C 	C 	0.71730 0.17530 0.53140 1.40900
H 	H 	0.68790 0.18770 0.56060 -0.46300
C 	C 	0.65760 0.18890 0.48700 -1.81800
H 	H 	0.58280 0.16800 0.47870 0.51400
H 	H 	0.68430 0.18000 0.45670 0.46200
H 	H 	0.66450 0.22830 0.49480 0.50100
C 	C 	0.83340 0.20380 0.55200 -1.63900
H 	H 	0.84540 0.24340 0.55510 0.45600
H 	H 	0.87000 0.19020 0.52770 0.41100
H 	H 	0.86100 0.19670 0.58680 0.45300
C 	C 	0.07860 0.37900 0.78230 0.11400
H 	H 	0.05420 0.35400 0.80250 -0.03300
C 	C 	0.05970 0.42960 0.78890 -0.28200
C 	C 	0.09510 0.46580 0.76020 0.12400
H 	H 	0.08340 0.50090 0.76450 -0.06200
C 	C 	0.14780 0.45060 0.72490 -0.21000
H 	H 	0.17340 0.47500 0.70450 0.05700
C 	C 	0.16260 0.39910 0.72000 0.08600
H 	H 	0.19750 0.38830 0.69500 -0.04100
C 	C 	0.00340 0.44450 0.82900 0.56000
C 	C 	0.18810 0.36650 0.00150 -0.20000
C 	C 	0.18590 0.33310 0.95780 0.10500
H 	H 	0.14640 0.33640 0.92460 -0.01800
C 	C 	0.23930 0.29380 0.95920 -0.19700
H 	H 	0.23180 0.26870 0.92760 0.08100
C 	C 	0.30040 0.29110 0.00410 0.08700
H 	H 	0.34330 0.26680 0.00400 -0.02900
C 	C 	0.30390 0.32240 0.05120 -0.19500
H 	H 	0.34440 0.31870 0.08390 0.04800
C 	C 	0.24480 0.36020 0.04860 0.09500
H 	H 	0.24410 0.38200 0.08050 -0.06100
C 	C 	0.14270 0.63310 0.91710 1.32100
C 	C 	0.18100 0.63090 0.87190 -1.82800
H 	H 	0.21790 0.66800 0.87030 0.48700
H 	H 	0.12120 0.61450 0.84000 0.46000
H 	H 	0.23030 0.60850 0.87410 0.46000
C 	C 	0.14100 0.67440 0.95280 -2.19300
H 	H 	0.12160 0.66050 0.98240 0.59000
H 	H 	0.08790 0.69170 0.93680 0.59900
H 	H 	0.21070 0.70140 0.96560 0.61300
C 	C 	0.71400 0.44710 0.84920 1.42400
H 	H 	0.68850 0.41060 0.85760 -0.45500
C 	C 	0.65400 0.47880 0.87210 -1.80000
H 	H 	0.67450 0.48290 0.91050 0.50100
H 	H 	0.57800 0.45980 0.85760 0.53700
H 	H 	0.66900 0.51510 0.86380 0.48000
C 	C 	0.69850 0.43260 0.79280 -1.77600
H 	H 	0.73990 0.40750 0.78530 0.48100
H 	H 	0.72220 0.46590 0.78010 0.44900
H 	H 	0.62310 0.41470 0.77490 0.53000
O 	O 	0.47330 0.32930 0.50570 -0.89500
O 	O 	0.37420 0.36290 0.55030 -0.81400
O 	O 	0.58700 0.49630 0.60840 -0.87600
O 	O 	0.38880 0.47760 0.57730 -0.85600
O 	O 	0.63300 0.40830 0.48660 -1.31200
O 	O 	0.50950 0.57440 0.59710 -0.90200
O 	O 	0.33030 0.37070 0.44390 -1.24000
O 	O 	0.30850 0.47460 0.46920 -1.49300
O 	O 	0.48810 0.43650 0.51000 -1.59700
O 	O 	0.36530 0.12030 0.93490 -0.87200
O 	O 	0.50470 0.16040 0.00610 -0.80900
O 	O 	0.65650 0.06520 0.96350 -0.88300
O 	O 	0.64750 0.10440 0.05380 -0.87200
O 	O 	0.35320 0.01350 0.88660 -1.32700
O 	O 	0.33870 0.07950 0.02160 -1.33300
O 	O 	0.48510 0.04080 0.08560 -1.49000
O 	O 	0.46170 0.05090 0.97710 -1.59900
O 	O 	0.73990 0.03130 0.04080 -0.89500
O 	O 	0.49340 0.08750 0.55040 -1.44300
O 	O 	0.78560 0.97900 0.55900 -0.81500
O 	O 	0.84320 0.06110 0.54050 -0.86000
O 	O 	0.41060 0.94290 0.57750 -0.88800
O 	O 	0.58140 0.01920 0.61040 -0.88100
O 	O 	0.57650 0.92790 0.55910 -0.86600
O 	O 	0.69280 0.11700 0.52600 -1.41300
O 	O 	0.70150 0.98040 0.45060 -1.29400
O 	O 	0.62980 0.01930 0.51890 -1.58800
O 	O 	0.97260 0.40890 0.85330 -0.80100
O 	O 	0.99130 0.49130 0.83350 -0.89300
O 	O 	0.10280 0.42770 0.05530 -0.90100
O 	O 	0.18020 0.46690 0.98830 -0.88700
O 	O 	0.00910 0.38990 0.95840 -0.85000
O 	O 	0.82620 0.46460 0.87810 -1.37900
O 	O 	0.09010 0.57890 0.92120 -1.41900
O 	O 	0.16600 0.57330 0.02960 -1.47600
O 	O 	0.00720 0.49070 0.93750 -1.58100
Ti	Ti	0.51828 0.62207 0.54923 3.08400
Ti	Ti	0.66292 0.57588 0.49084 3.08900
Ti	Ti	0.36705 0.53487 0.45117 3.08600
Ti	Ti	0.68987 0.95814 0.05244 3.08300
Ti	Ti	0.48962 0.97311 0.08132 3.08700
Ti	Ti	0.50110 0.90306 0.95049 3.09200
Ti	Ti	0.38335 0.92503 0.42976 3.09100
Ti	Ti	0.28717 0.94218 0.52270 3.08300
Ti	Ti	0.36352 0.05762 0.49893 3.09200
Ti	Ti	0.05909 0.46706 0.10931 3.08400
Ti	Ti	0.84938 0.46749 0.03189 3.08900
Ti	Ti	0.10079 0.58332 0.08314 3.09100
Cu	Cu	0.67072 0.74096 0.29243 0.72300
Cu	Cu	0.68372 0.74240 0.19491 0.72500
Cu	Cu	0.84117 0.80740 0.28299 0.71400
Cu	Cu	0.81889 0.70355 0.25497 0.71900
I 	I 	0.65179 0.82879 0.25431 -0.69000
I 	I 	0.86962 0.75100 0.35704 -0.70000
I 	I 	0.60345 0.64884 0.21971 -0.69000
I 	I 	0.88709 0.76638 0.19389 -0.67200
P 	P 	0.50730 0.48201 0.38929 0.65200
P 	P 	0.28900 0.92022 0.97806 0.65800
P 	P 	0.88550 0.58437 0.99993 0.64800
P 	P 	0.46990 0.04241 0.40294 0.69500
N 	N 	0.58590 0.73600 0.34500 -0.26300
N 	N 	0.58620 0.74010 0.12420 -0.26100
N 	N 	0.94110 0.88460 0.31070 -0.27100
N 	N 	0.86950 0.63590 0.25180 -0.26600
C 	C 	0.59620 0.70390 0.37940 0.12400
H 	H 	0.63830 0.67980 0.37560 -0.03600
C 	C 	0.55020 0.70340 0.42020 -0.29400
C 	C 	0.49390 0.73950 0.42760 0.10800
H 	H 	0.46000 0.73950 0.45500 -0.05500
C 	C 	0.48600 0.77700 0.39470 -0.19600
H 	H 	0.45100 0.80420 0.40070 0.02900
C 	C 	0.53000 0.77300 0.35400 0.04800
H 	H 	0.52190 0.79700 0.33060 -0.03100
C 	C 	0.56880 0.66740 0.45770 0.57400
C 	C 	0.51420 0.47050 0.32280 -0.22100
C 	C 	0.49020 0.41650 0.29370 0.11700
H 	H 	0.47150 0.38650 0.30960 -0.07000
C 	C 	0.49400 0.40720 0.24260 -0.24800
H 	H 	0.47130 0.37070 0.22220 0.05900
C 	C 	0.52890 0.44990 0.22060 0.14700
H 	H 	0.53970 0.44330 0.18660 -0.07000
C 	C 	0.54720 0.49880 0.24630 -0.26300
H 	H 	0.56500 0.52830 0.22960 0.09800
C 	C 	0.54190 0.51050 0.29830 0.13300
H 	H 	0.55840 0.54760 0.31630 -0.03700
C 	C 	0.76520 0.65750 0.59720 0.56900
C 	C 	0.80260 0.71660 0.59430 -0.87600
H 	H 	0.86710 0.73550 0.62330 0.21200
H 	H 	0.81790 0.71860 0.56050 0.19800
H 	H 	0.74720 0.73430 0.59730 0.19800
C 	C 	0.76800 0.64080 0.64430 -1.03800
H 	H 	0.72980 0.60160 0.63680 0.26000
H 	H 	0.84150 0.64710 0.66460 0.25200
H 	H 	0.73320 0.66180 0.66470 0.25200
C 	C 	0.27710 0.60290 0.52920 0.79200
C 	C 	0.25370 0.64890 0.51000 -1.16700
H 	H 	0.19240 0.65580 0.52020 0.28500
H 	H 	0.31530 0.68140 0.52510 0.25600
H 	H 	0.23750 0.64090 0.47140 0.26500
C 	C 	0.20700 0.55790 0.53410 -1.33900
H 	H 	0.24430 0.53090 0.54330 0.32400
H 	H 	0.17500 0.56830 0.56180 0.33700
H 	H 	0.15160 0.54190 0.50060 0.30700
C 	C 	0.49980 0.69850 0.09820 0.07300
H 	H 	0.48810 0.66630 0.11180 -0.03700
C 	C 	0.42860 0.69910 0.05430 -0.20000
H 	H 	0.36880 0.66810 0.03750 0.00300
C 	C 	0.44350 0.74630 0.03340 0.11500
H 	H 	0.39330 0.74820 0.00270 -0.06600
C 	C 	0.53180 0.78930 0.05810 -0.27500
C 	C 	0.59910 0.78550 0.10370 0.12000
H 	H 	0.65810 0.81640 0.12190 -0.04500
C 	C 	0.55680 0.84010 0.03750 0.55600
C 	C 	0.16620 0.86870 0.96790 -0.22900
C 	C 	0.13800 0.84020 0.99950 0.12100
H 	H 	0.18770 0.84860 0.03340 -0.05000
C 	C 	0.04500 0.79810 0.99150 -0.20300
H 	H 	0.03670 0.77900 0.01860 0.05700
C 	C 	0.97500 0.78580 0.94980 0.04100
C 	C 	0.01100 0.79850 0.91090 -0.18300
H 	H 	0.97980 0.77630 0.87630 0.02600
C 	C 	0.09900 0.84780 0.92200 0.08600
H 	H 	0.10740 0.86550 0.89390 -0.04500
C 	C 	0.71340 0.01200 0.16550 0.77200
C 	C 	0.70600 0.06420 0.18420 -1.26400
H 	H 	0.69750 0.08330 0.15520 0.31600
H 	H 	0.64540 0.06090 0.19840 0.31100
H 	H 	0.77150 0.08500 0.21200 0.32400
C 	C 	0.71940 0.97340 0.19900 -1.19900
H 	H 	0.76300 0.99290 0.23480 0.32600
H 	H 	0.64780 0.95480 0.19990 0.29900
H 	H 	0.75140 0.94620 0.18510 0.30500
C 	C 	0.73860 0.91350 0.95300 0.96300
C 	C 	0.74500 0.85430 0.94860 -1.25700
H 	H 	0.79620 0.84880 0.92950 0.34600
H 	H 	0.76720 0.84760 0.98400 0.32700
H 	H 	0.67480 0.82880 0.92950 0.31000
C 	C 	0.76300 0.94610 0.92220 -1.73300
H 	H 	0.74110 0.97920 0.93090 0.45500
H 	H 	0.83930 0.95610 0.92700 0.45600
H 	H 	0.72520 0.92730 0.88540 0.45600
C 	C 	0.93460 0.91990 0.28060 0.07600
H 	H 	0.88720 0.90730 0.24600 -0.05300
C 	C 	0.99300 0.97460 0.29650 -0.20400
H 	H 	0.98440 0.99930 0.27390 0.04400
C 	C 	0.06380 0.99220 0.34600 0.11400
H 	H 	0.10570 0.02940 0.35790 -0.03400
C 	C 	0.07430 0.95550 0.37870 -0.29200
C 	C 	0.01040 0.90270 0.35880 0.10000
H 	H 	0.01560 0.87710 0.38070 -0.05200
C 	C 	0.15360 0.97330 0.43070 0.54000
C 	C 	0.44110 0.06500 0.34350 -0.39200
C 	C 	0.34000 0.05880 0.31610 0.29400
H 	H 	0.28210 0.04410 0.32910 -0.09300
C 	C 	0.32300 0.07560 0.26540 -0.53700
H 	H 	0.25290 0.06900 0.24350 0.15700
C 	C 	0.40200 0.09910 0.25080 0.54700
H 	H 	0.39040 0.11560 0.22130 -0.23000
C 	C 	0.49500 0.10090 0.27480 -0.64800
H 	H 	0.55150 0.11350 0.26010 0.17200
C 	C 	0.51600 0.08510 0.32080 0.41100
H 	H 	0.58770 0.08850 0.33820 -0.16400
C 	C 	0.28280 0.04900 0.59670 0.99000
H 	H 	0.31730 0.08860 0.59930 -0.33600
C 	C 	0.34300 0.03540 0.64660 -1.23000
H 	H 	0.41830 0.04190 0.64740 0.34300
H 	H 	0.33820 0.05890 0.67770 0.36900
H 	H 	0.31280 0.99690 0.64660 0.30400
C 	C 	0.17040 0.04360 0.58850 -1.32800
H 	H 	0.16000 0.06410 0.61990 0.39300
H 	H 	0.14440 0.05840 0.55800 0.35500
H 	H 	0.13090 0.00490 0.58210 0.33200
C 	C 	0.28270 0.82470 0.46860 1.40900
H 	H 	0.31210 0.81230 0.43940 -0.46300
C 	C 	0.34240 0.81110 0.51300 -1.81800
H 	H 	0.41720 0.83200 0.52130 0.51400
H 	H 	0.31570 0.82000 0.54330 0.46200
H 	H 	0.33550 0.77170 0.50520 0.50100
C 	C 	0.16660 0.79620 0.44800 -1.63900
H 	H 	0.15460 0.75660 0.44490 0.45600
H 	H 	0.13000 0.80980 0.47230 0.41100
H 	H 	0.13900 0.80330 0.41320 0.45300
C 	C 	0.92140 0.62100 0.21770 0.11400
H 	H 	0.94580 0.64600 0.19750 -0.03300
C 	C 	0.94030 0.57040 0.21110 -0.28200
C 	C 	0.90490 0.53420 0.23980 0.12400
H 	H 	0.91660 0.49910 0.23550 -0.06200
C 	C 	0.85220 0.54940 0.27510 -0.21000
H 	H 	0.82660 0.52500 0.29550 0.05700
C 	C 	0.83740 0.60090 0.28000 0.08600
H 	H 	0.80250 0.61170 0.30500 -0.04100
C 	C 	0.99660 0.55550 0.17100 0.56000
C 	C 	0.81190 0.63350 0.99850 -0.20000
C 	C 	0.81410 0.66690 0.04220 0.10500
H 	H 	0.85360 0.66360 0.07540 -0.01800
C 	C 	0.76070 0.70620 0.04080 -0.19700
H 	H 	0.76820 0.73130 0.07240 0.08100
C 	C 	0.69960 0.70890 0.99590 0.08700
H 	H 	0.65670 0.73320 0.99600 -0.02900
C 	C 	0.69610 0.67760 0.94880 -0.19500
H 	H 	0.65560 0.68130 0.91610 0.04800
C 	C 	0.75520 0.63980 0.95140 0.09500
H 	H 	0.75590 0.61800 0.91950 -0.06100
C 	C 	0.85730 0.36690 0.08290 1.32100
C 	C 	0.81900 0.36910 0.12810 -1.82800
H 	H 	0.78210 0.33200 0.12970 0.48700
H 	H 	0.87880 0.38550 0.16000 0.46000
H 	H 	0.76970 0.39150 0.12590 0.46000
C 	C 	0.85900 0.32560 0.04720 -2.19300
H 	H 	0.87840 0.33950 0.01760 0.59000
H 	H 	0.91210 0.30830 0.06320 0.59900
H 	H 	0.78930 0.29860 0.03440 0.61300
C 	C 	0.28600 0.55290 0.15080 1.42400
H 	H 	0.31150 0.58940 0.14240 -0.45500
C 	C 	0.34600 0.52120 0.12790 -1.80000
H 	H 	0.32550 0.51710 0.08950 0.50100
H 	H 	0.42200 0.54020 0.14240 0.53700
H 	H 	0.33100 0.48490 0.13620 0.48000
C 	C 	0.30150 0.56740 0.20720 -1.77600
H 	H 	0.26010 0.59250 0.21470 0.48100
H 	H 	0.27780 0.53410 0.21990 0.44900
H 	H 	0.37690 0.58530 0.22510 0.53000
O 	O 	0.52670 0.67070 0.49430 -0.89500
O 	O 	0.62580 0.63710 0.44970 -0.81400
O 	O 	0.41300 0.50370 0.39160 -0.87600
O 	O 	0.61120 0.52240 0.42270 -0.85600
O 	O 	0.36700 0.59170 0.51340 -1.31200
O 	O 	0.49050 0.42560 0.40290 -0.90200
O 	O 	0.66970 0.62930 0.55610 -1.24000
O 	O 	0.69150 0.52540 0.53080 -1.49300
O 	O 	0.51190 0.56350 0.49000 -1.59700
O 	O 	0.63470 0.87970 0.06510 -0.87200
O 	O 	0.49530 0.83960 0.99390 -0.80900
O 	O 	0.34350 0.93480 0.03650 -0.88300
O 	O 	0.35250 0.89560 0.94620 -0.87200
O 	O 	0.64680 0.98650 0.11340 -1.32700
O 	O 	0.66130 0.92050 0.97840 -1.33300
O 	O 	0.51490 0.95920 0.91440 -1.49000
O 	O 	0.53830 0.94910 0.02290 -1.59900
O 	O 	0.26010 0.96870 0.95920 -0.89500
O 	O 	0.50660 0.91250 0.44960 -1.44300
O 	O 	0.21440 0.02100 0.44100 -0.81500
O 	O 	0.15680 0.93890 0.45950 -0.86000
O 	O 	0.58940 0.05710 0.42250 -0.88800
O 	O 	0.41860 0.98080 0.38960 -0.88100
O 	O 	0.42350 0.07210 0.44090 -0.86600
O 	O 	0.30720 0.88300 0.47400 -1.41300
O 	O 	0.29850 0.01960 0.54940 -1.29400
O 	O 	0.37020 0.98070 0.48110 -1.58800
O 	O 	0.02740 0.59110 0.14670 -0.80100
O 	O 	0.00870 0.50870 0.16650 -0.89300
O 	O 	0.89720 0.57230 0.94470 -0.90100
O 	O 	0.81980 0.53310 0.01170 -0.88700
O 	O 	0.99090 0.61010 0.04160 -0.85000
O 	O 	0.17380 0.53540 0.12190 -1.37900
O 	O 	0.90990 0.42110 0.07880 -1.41900
O 	O 	0.83400 0.42670 0.97040 -1.47600
O 	O 	0.99280 0.50930 0.06250 -1.58100
