data_crystal

_cell_length_a 11.38150
_cell_length_b 20.06760
_cell_length_c 29.43710
_cell_angle_alpha 90.00000
_cell_angle_beta  98.78200
_cell_angle_gamma 90.00000

_symmetry_space_group_name_	'P 1'
_symmetry_space_group_name_H-M	'P 1'

loop_
_symmetry_equiv_pos_as_xyz
  x,y,z

loop_
_atom_site_label
_atom_site_type_symbol
_atom_site_fract_x
_atom_site_fract_y
_atom_site_fract_z
_atom_site_charge
Zn	Zn	0.54099 0.92335 0.54722 1.22300
Zn	Zn	0.52707 0.57823 0.45579 1.22500
Zn	Zn	0.45901 0.42335 0.95278 1.22300
Zn	Zn	0.47293 0.07823 0.04421 1.22500
Zn	Zn	0.45901 0.07665 0.45278 1.22300
Zn	Zn	0.47293 0.42177 0.54421 1.22500
Zn	Zn	0.54099 0.57665 0.04722 1.22300
Zn	Zn	0.52707 0.92177 0.95579 1.22500
H 	H 	0.38540 0.61530 0.70760 0.12700
H 	H 	0.35900 0.62220 0.77510 0.12700
H 	H 	0.55010 0.69470 0.54850 0.06800
H 	H 	0.45960 0.56950 0.64530 0.07900
H 	H 	0.48200 0.77100 0.67030 0.10600
H 	H 	0.43690 0.57090 0.84710 0.08000
H 	H 	0.52290 0.69470 0.95610 0.06700
H 	H 	0.45740 0.77130 0.82660 0.10500
H 	H 	0.30080 0.88760 0.48360 -0.00200
H 	H 	0.10150 0.88890 0.48400 0.07400
H 	H 	0.16600 0.96120 0.61390 0.07600
H 	H 	0.36260 0.95930 0.60960 0.00800
H 	H 	0.93150 0.84550 0.50620 0.06900
H 	H 	0.73260 0.85000 0.50760 0.01300
H 	H 	0.77360 0.99620 0.59760 0.01100
H 	H 	0.97140 0.99910 0.59620 0.07100
H 	H 	0.29510 0.51420 0.40360 0.01000
H 	H 	0.09580 0.50990 0.40430 0.07300
H 	H 	0.14120 0.64550 0.50750 0.06900
H 	H 	0.34330 0.64780 0.50270 0.00400
H 	H 	0.93170 0.48430 0.43060 0.07400
H 	H 	0.72710 0.48780 0.43050 0.01100
H 	H 	0.74680 0.66630 0.48170 0.01300
H 	H 	0.95380 0.66440 0.48770 0.07100
H 	H 	0.61460 0.11530 0.79240 0.12800
H 	H 	0.64100 0.12220 0.72490 0.12800
H 	H 	0.44990 0.19470 0.95150 0.06900
H 	H 	0.54040 0.06950 0.85470 0.08000
H 	H 	0.51800 0.27100 0.82970 0.10600
H 	H 	0.56310 0.07090 0.65290 0.08000
H 	H 	0.47710 0.19470 0.54390 0.06700
H 	H 	0.54260 0.27130 0.67340 0.10600
H 	H 	0.69920 0.38760 0.01640 -0.00200
H 	H 	0.89850 0.38890 0.01600 0.07400
H 	H 	0.83400 0.46120 0.88610 0.07600
H 	H 	0.63740 0.45930 0.89040 0.00900
H 	H 	0.06850 0.34550 0.99380 0.06900
H 	H 	0.26740 0.35000 0.99240 0.01300
H 	H 	0.22640 0.49620 0.90240 0.01100
H 	H 	0.02860 0.49910 0.90380 0.07000
H 	H 	0.70490 0.01420 0.09640 0.01000
H 	H 	0.90420 0.00990 0.09570 0.07300
H 	H 	0.85880 0.14550 0.99250 0.07000
H 	H 	0.65670 0.14780 0.99730 0.00500
H 	H 	0.06830 0.98430 0.06940 0.07400
H 	H 	0.27290 0.98780 0.06950 0.01100
H 	H 	0.25320 0.16630 0.01830 0.01300
H 	H 	0.04620 0.16440 0.01230 0.07100
H 	H 	0.61460 0.38470 0.29240 0.12800
H 	H 	0.64100 0.37780 0.22490 0.12800
H 	H 	0.44990 0.30530 0.45150 0.06900
H 	H 	0.54040 0.43050 0.35470 0.08000
H 	H 	0.51800 0.22900 0.32970 0.10600
H 	H 	0.56310 0.42910 0.15290 0.08000
H 	H 	0.47710 0.30530 0.04390 0.06700
H 	H 	0.54260 0.22870 0.17340 0.10500
H 	H 	0.69920 0.11240 0.51640 -0.00200
H 	H 	0.89850 0.11110 0.51600 0.07400
H 	H 	0.83400 0.03880 0.38610 0.07600
H 	H 	0.63740 0.04070 0.39040 0.00800
H 	H 	0.06850 0.15450 0.49380 0.06900
H 	H 	0.26740 0.15000 0.49240 0.01300
H 	H 	0.22640 0.00380 0.40240 0.01100
H 	H 	0.02860 0.00090 0.40380 0.07100
H 	H 	0.70490 0.48580 0.59640 0.01000
H 	H 	0.90420 0.49010 0.59570 0.07300
H 	H 	0.85880 0.35450 0.49250 0.06900
H 	H 	0.65670 0.35220 0.49730 0.00400
H 	H 	0.06830 0.51570 0.56940 0.07400
H 	H 	0.27290 0.51220 0.56950 0.01100
H 	H 	0.25320 0.33370 0.51830 0.01300
H 	H 	0.04620 0.33560 0.51230 0.07100
H 	H 	0.38540 0.88470 0.20760 0.12800
H 	H 	0.35900 0.87780 0.27510 0.12800
H 	H 	0.55010 0.80530 0.04850 0.06900
H 	H 	0.45960 0.93050 0.14530 0.08000
H 	H 	0.48200 0.72900 0.17030 0.10600
H 	H 	0.43690 0.92910 0.34710 0.08000
H 	H 	0.52290 0.80530 0.45610 0.06700
H 	H 	0.45740 0.72870 0.32660 0.10600
H 	H 	0.30080 0.61240 0.98360 -0.00200
H 	H 	0.10150 0.61110 0.98400 0.07400
H 	H 	0.16600 0.53880 0.11390 0.07600
H 	H 	0.36260 0.54070 0.10960 0.00900
H 	H 	0.93150 0.65450 0.00620 0.06900
H 	H 	0.73260 0.65000 0.00760 0.01300
H 	H 	0.77360 0.50380 0.09760 0.01100
H 	H 	0.97140 0.50090 0.09620 0.07000
H 	H 	0.29510 0.98580 0.90360 0.01000
H 	H 	0.09580 0.99010 0.90430 0.07300
H 	H 	0.14120 0.85450 0.00750 0.07000
H 	H 	0.34330 0.85220 0.00270 0.00500
H 	H 	0.93170 0.01570 0.93060 0.07400
H 	H 	0.72710 0.01220 0.93050 0.01100
H 	H 	0.74680 0.83370 0.98170 0.01300
H 	H 	0.95380 0.83560 0.98770 0.07100
C 	C 	0.52910 0.81280 0.59020 0.26800
C 	C 	0.51210 0.74290 0.60590 -0.01300
C 	C 	0.52520 0.68820 0.57750 -0.02700
C 	C 	0.50200 0.62550 0.59190 -0.05200
C 	C 	0.47180 0.61370 0.63540 -0.09700
C 	C 	0.45990 0.66820 0.66460 0.14000
C 	C 	0.48440 0.73410 0.65020 -0.10800
C 	C 	0.51530 0.56510 0.56200 0.37500
C 	C 	0.44900 0.68760 0.74660 0.31000
C 	C 	0.44570 0.66890 0.82960 0.13700
C 	C 	0.45140 0.61460 0.85910 -0.09600
C 	C 	0.47850 0.62480 0.90640 -0.05400
C 	C 	0.50080 0.68830 0.92390 -0.02400
C 	C 	0.49070 0.74230 0.89440 -0.01700
C 	C 	0.46350 0.73400 0.84670 -0.10700
C 	C 	0.48810 0.56410 0.93750 0.38500
C 	C 	0.50780 0.81150 0.91200 0.26700
C 	C 	0.27210 0.90420 0.51010 0.07900
C 	C 	0.15360 0.90380 0.51040 -0.12700
C 	C 	0.10720 0.92470 0.54900 0.05500
C 	C 	0.19180 0.94630 0.58650 -0.12400
C 	C 	0.30810 0.94570 0.58350 0.07700
C 	C 	0.97960 0.92220 0.55100 0.04600
C 	C 	0.90120 0.87780 0.52500 -0.11300
C 	C 	0.78250 0.88030 0.52640 0.06800
C 	C 	0.80590 0.96550 0.57830 0.07200
C 	C 	0.92430 0.96700 0.57790 -0.11700
C 	C 	0.26260 0.54120 0.42510 0.07200
C 	C 	0.14420 0.53870 0.42490 -0.11900
C 	C 	0.09450 0.57840 0.45480 0.04800
C 	C 	0.17180 0.61870 0.48540 -0.11700
C 	C 	0.29270 0.61890 0.48300 0.07100
C 	C 	0.96230 0.57590 0.45600 0.06200
C 	C 	0.89630 0.52300 0.44130 -0.12600
C 	C 	0.77200 0.52570 0.44200 0.07400
C 	C 	0.78300 0.62730 0.47190 0.07100
C 	C 	0.90820 0.62800 0.47390 -0.12300
C 	C 	0.47090 0.31280 0.90980 0.26700
C 	C 	0.48790 0.24290 0.89410 -0.01300
C 	C 	0.47480 0.18820 0.92250 -0.02700
C 	C 	0.49800 0.12550 0.90810 -0.05100
C 	C 	0.52820 0.11370 0.86460 -0.09700
C 	C 	0.54010 0.16820 0.83540 0.14000
C 	C 	0.51560 0.23410 0.84980 -0.10800
C 	C 	0.48470 0.06510 0.93800 0.37500
C 	C 	0.55100 0.18760 0.75340 0.31000
C 	C 	0.55430 0.16890 0.67040 0.13700
C 	C 	0.54860 0.11460 0.64090 -0.09600
C 	C 	0.52150 0.12480 0.59360 -0.05400
C 	C 	0.49920 0.18830 0.57610 -0.02400
C 	C 	0.50930 0.24230 0.60560 -0.01600
C 	C 	0.53650 0.23400 0.65330 -0.10800
C 	C 	0.51190 0.06410 0.56250 0.38500
C 	C 	0.49220 0.31150 0.58800 0.26700
C 	C 	0.72790 0.40420 0.98990 0.07900
C 	C 	0.84640 0.40380 0.98960 -0.12600
C 	C 	0.89280 0.42470 0.95100 0.05500
C 	C 	0.80820 0.44630 0.91350 -0.12400
C 	C 	0.69190 0.44570 0.91650 0.07700
C 	C 	0.02040 0.42220 0.94900 0.04600
C 	C 	0.09880 0.37780 0.97500 -0.11300
C 	C 	0.21750 0.38030 0.97360 0.06800
C 	C 	0.19410 0.46550 0.92170 0.07200
C 	C 	0.07570 0.46700 0.92210 -0.11700
C 	C 	0.73740 0.04120 0.07490 0.07100
C 	C 	0.85580 0.03870 0.07510 -0.11900
C 	C 	0.90550 0.07840 0.04520 0.04800
C 	C 	0.82820 0.11870 0.01460 -0.11800
C 	C 	0.70730 0.11890 0.01700 0.07000
C 	C 	0.03770 0.07590 0.04400 0.06300
C 	C 	0.10370 0.02300 0.05870 -0.12700
C 	C 	0.22800 0.02570 0.05800 0.07300
C 	C 	0.21700 0.12730 0.02810 0.07100
C 	C 	0.09180 0.12800 0.02610 -0.12300
C 	C 	0.47090 0.18720 0.40980 0.26800
C 	C 	0.48790 0.25710 0.39410 -0.01300
C 	C 	0.47480 0.31180 0.42250 -0.02700
C 	C 	0.49800 0.37450 0.40810 -0.05200
C 	C 	0.52820 0.38630 0.36460 -0.09700
C 	C 	0.54010 0.33180 0.33540 0.14000
C 	C 	0.51560 0.26590 0.34980 -0.10800
C 	C 	0.48470 0.43490 0.43800 0.37500
C 	C 	0.55100 0.31240 0.25340 0.31000
C 	C 	0.55430 0.33110 0.17040 0.13700
C 	C 	0.54860 0.38540 0.14090 -0.09600
C 	C 	0.52150 0.37520 0.09360 -0.05400
C 	C 	0.49920 0.31170 0.07610 -0.02400
C 	C 	0.50930 0.25770 0.10560 -0.01700
C 	C 	0.53650 0.26600 0.15330 -0.10700
C 	C 	0.51190 0.43590 0.06250 0.38500
C 	C 	0.49220 0.18850 0.08800 0.26700
C 	C 	0.72790 0.09580 0.48990 0.07900
C 	C 	0.84640 0.09620 0.48960 -0.12700
C 	C 	0.89280 0.07530 0.45100 0.05500
C 	C 	0.80820 0.05370 0.41350 -0.12400
C 	C 	0.69190 0.05430 0.41650 0.07700
C 	C 	0.02040 0.07780 0.44900 0.04600
C 	C 	0.09880 0.12220 0.47500 -0.11300
C 	C 	0.21750 0.11970 0.47360 0.06800
C 	C 	0.19410 0.03450 0.42170 0.07200
C 	C 	0.07570 0.03300 0.42210 -0.11700
C 	C 	0.73740 0.45880 0.57490 0.07200
C 	C 	0.85580 0.46130 0.57510 -0.11900
C 	C 	0.90550 0.42160 0.54520 0.04800
C 	C 	0.82820 0.38130 0.51460 -0.11700
C 	C 	0.70730 0.38110 0.51700 0.07100
C 	C 	0.03770 0.42410 0.54400 0.06200
C 	C 	0.10370 0.47700 0.55870 -0.12600
C 	C 	0.22800 0.47430 0.55800 0.07400
C 	C 	0.21700 0.37270 0.52810 0.07100
C 	C 	0.09180 0.37200 0.52610 -0.12300
C 	C 	0.52910 0.68720 0.09020 0.26700
C 	C 	0.51210 0.75710 0.10590 -0.01300
C 	C 	0.52520 0.81180 0.07750 -0.02700
C 	C 	0.50200 0.87450 0.09190 -0.05100
C 	C 	0.47180 0.88630 0.13540 -0.09700
C 	C 	0.45990 0.83180 0.16460 0.14000
C 	C 	0.48440 0.76590 0.15020 -0.10800
C 	C 	0.51530 0.93490 0.06200 0.37500
C 	C 	0.44900 0.81240 0.24660 0.31000
C 	C 	0.44570 0.83110 0.32960 0.13700
C 	C 	0.45140 0.88540 0.35910 -0.09600
C 	C 	0.47850 0.87520 0.40640 -0.05400
C 	C 	0.50080 0.81170 0.42390 -0.02400
C 	C 	0.49070 0.75770 0.39440 -0.01600
C 	C 	0.46350 0.76600 0.34670 -0.10800
C 	C 	0.48810 0.93590 0.43750 0.38500
C 	C 	0.50780 0.68850 0.41200 0.26700
C 	C 	0.27210 0.59580 0.01010 0.07900
C 	C 	0.15360 0.59620 0.01040 -0.12600
C 	C 	0.10720 0.57530 0.04900 0.05500
C 	C 	0.19180 0.55370 0.08650 -0.12400
C 	C 	0.30810 0.55430 0.08350 0.07700
C 	C 	0.97960 0.57780 0.05100 0.04600
C 	C 	0.90120 0.62220 0.02500 -0.11300
C 	C 	0.78250 0.61970 0.02640 0.06800
C 	C 	0.80590 0.53450 0.07830 0.07200
C 	C 	0.92430 0.53300 0.07790 -0.11700
C 	C 	0.26260 0.95880 0.92510 0.07100
C 	C 	0.14420 0.96130 0.92490 -0.11900
C 	C 	0.09450 0.92160 0.95480 0.04800
C 	C 	0.17180 0.88130 0.98540 -0.11800
C 	C 	0.29270 0.88110 0.98300 0.07000
C 	C 	0.96230 0.92410 0.95600 0.06300
C 	C 	0.89630 0.97700 0.94130 -0.12700
C 	C 	0.77200 0.97430 0.94200 0.07300
C 	C 	0.78300 0.87270 0.97190 0.07100
C 	C 	0.90820 0.87200 0.97390 -0.12300
N 	N 	0.42620 0.65240 0.70660 -0.25300
N 	N 	0.41030 0.65480 0.78220 -0.25100
N 	N 	0.35200 0.92700 0.54520 -0.23400
N 	N 	0.73060 0.92320 0.55290 -0.22600
N 	N 	0.33960 0.58020 0.45430 -0.23500
N 	N 	0.71130 0.57590 0.45720 -0.23300
N 	N 	0.57380 0.15240 0.79340 -0.25300
N 	N 	0.58970 0.15480 0.71780 -0.25100
N 	N 	0.64800 0.42700 0.95480 -0.23400
N 	N 	0.26940 0.42320 0.94710 -0.22600
N 	N 	0.66040 0.08020 0.04570 -0.23500
N 	N 	0.28870 0.07590 0.04280 -0.23300
N 	N 	0.57380 0.34760 0.29340 -0.25300
N 	N 	0.58970 0.34520 0.21780 -0.25100
N 	N 	0.64800 0.07300 0.45480 -0.23400
N 	N 	0.26940 0.07680 0.44710 -0.22600
N 	N 	0.66040 0.41980 0.54570 -0.23500
N 	N 	0.28870 0.42410 0.54280 -0.23300
N 	N 	0.42620 0.84760 0.20660 -0.25300
N 	N 	0.41030 0.84520 0.28220 -0.25100
N 	N 	0.35200 0.57300 0.04520 -0.23400
N 	N 	0.73060 0.57680 0.05290 -0.22600
N 	N 	0.33960 0.91980 0.95430 -0.23500
N 	N 	0.71130 0.92410 0.95720 -0.23300
O 	O 	0.53690 0.86000 0.61780 -0.32400
O 	O 	0.53750 0.82050 0.54730 -0.38700
O 	O 	0.53560 0.57190 0.97810 -0.48100
O 	O 	0.44540 0.51090 0.91910 -0.45700
O 	O 	0.55870 0.57410 0.52570 -0.46500
O 	O 	0.47930 0.51030 0.57570 -0.45800
O 	O 	0.52860 0.81930 0.95640 -0.38500
O 	O 	0.50000 0.86010 0.88570 -0.33000
O 	O 	0.49680 0.74100 0.74990 -0.25300
O 	O 	0.46310 0.36000 0.88220 -0.32400
O 	O 	0.46250 0.32050 0.95270 -0.38700
O 	O 	0.46440 0.07190 0.52190 -0.48000
O 	O 	0.55460 0.01090 0.58090 -0.45700
O 	O 	0.44130 0.07410 0.97430 -0.46400
O 	O 	0.52070 0.01030 0.92430 -0.45800
O 	O 	0.47140 0.31930 0.54360 -0.38500
O 	O 	0.50000 0.36010 0.61430 -0.33000
O 	O 	0.50320 0.24100 0.75010 -0.25300
O 	O 	0.46310 0.14000 0.38220 -0.32400
O 	O 	0.46250 0.17950 0.45270 -0.38700
O 	O 	0.46440 0.42810 0.02190 -0.48100
O 	O 	0.55460 0.48910 0.08090 -0.45700
O 	O 	0.44130 0.42590 0.47430 -0.46500
O 	O 	0.52070 0.48970 0.42430 -0.45800
O 	O 	0.47140 0.18070 0.04360 -0.38500
O 	O 	0.50000 0.13990 0.11430 -0.33000
O 	O 	0.50320 0.25900 0.25010 -0.25300
O 	O 	0.53690 0.64000 0.11780 -0.32400
O 	O 	0.53750 0.67950 0.04730 -0.38700
O 	O 	0.53560 0.92810 0.47810 -0.48000
O 	O 	0.44540 0.98910 0.41910 -0.45700
O 	O 	0.55870 0.92590 0.02570 -0.46400
O 	O 	0.47930 0.98970 0.07570 -0.45800
O 	O 	0.52860 0.68070 0.45640 -0.38500
O 	O 	0.50000 0.63990 0.38570 -0.33000
O 	O 	0.49680 0.75900 0.24990 -0.25300
