data_crystal

_cell_length_a 21.89470
_cell_length_b 8.30620
_cell_length_c 23.20340
_cell_angle_alpha 90.00000
_cell_angle_beta  100.05300
_cell_angle_gamma 90.00000

_symmetry_space_group_name_	'P 1'
_symmetry_space_group_name_H-M	'P 1'

loop_
_symmetry_equiv_pos_as_xyz
  x,y,z

loop_
_atom_site_label
_atom_site_type_symbol
_atom_site_fract_x
_atom_site_fract_y
_atom_site_fract_z
_atom_site_charge
C 	C 	0.07880 0.83000 0.14920 -0.19600
H 	H 	0.07340 0.73180 0.16690 0.10100
C 	C 	0.12250 0.93880 0.17870 0.26400
C 	C 	0.12790 0.08740 0.15150 -0.20100
C 	C 	0.17090 0.21600 0.17680 0.36900
C 	C 	0.09170 0.11970 0.09670 0.00900
H 	H 	0.09570 0.21880 0.07910 0.06000
C 	C 	0.05060 0.00980 0.06840 0.04200
C 	C 	0.04400 0.86190 0.09580 0.01100
H 	H 	0.01580 0.78590 0.07760 0.04500
C 	C 	0.24010 0.79740 0.14180 0.43700
C 	C 	0.21920 0.85080 0.07960 -0.22200
C 	C 	0.17910 0.75370 0.03980 0.29900
C 	C 	0.15780 0.81110 0.98360 -0.21400
H 	H 	0.13070 0.74900 0.95730 0.12800
C 	C 	0.17640 0.95810 0.96680 0.04000
H 	H 	0.16170 0.99460 0.92910 0.02000
C 	C 	0.21690 0.05440 0.00500 0.02500
C 	C 	0.23710 0.99820 0.06136 0.04200
H 	H 	0.26360 0.06200 0.08760 0.03600
H 	H 	0.16960 0.59050 0.08940 0.26300
N 	N 	0.23500 0.20350 0.98187 -0.07500
N 	N 	0.01790 0.05370 0.01230 -0.07900
O 	O 	0.26556 0.90110 0.17698 -0.45700
O 	O 	0.22910 0.65460 0.15482 -0.47900
O 	O 	0.16951 0.35280 0.15388 -0.40800
O 	O 	0.21081 0.19150 0.22431 -0.54300
O 	O 	0.15584 0.89610 0.22950 -0.42200
O 	O 	0.15920 0.60560 0.05279 -0.41200
Tm	Tm	0.25245 0.96525 0.27162 1.51200
C 	C 	0.57880 0.33000 0.14920 -0.20200
H 	H 	0.57340 0.23180 0.16690 0.10500
C 	C 	0.62250 0.43880 0.17870 0.27300
C 	C 	0.62790 0.58740 0.15150 -0.20800
C 	C 	0.67090 0.71600 0.17680 0.37100
C 	C 	0.59170 0.61970 0.09670 0.01500
H 	H 	0.59570 0.71880 0.07910 0.05700
C 	C 	0.55060 0.50980 0.06840 0.03500
C 	C 	0.54400 0.36190 0.09580 0.02000
H 	H 	0.51580 0.28590 0.07760 0.04300
C 	C 	0.74010 0.29740 0.14180 0.43900
C 	C 	0.71920 0.35080 0.07960 -0.22700
C 	C 	0.67910 0.25370 0.03980 0.30400
C 	C 	0.65780 0.31110 0.98360 -0.22100
H 	H 	0.63070 0.24900 0.95730 0.13000
C 	C 	0.67640 0.45810 0.96680 0.04600
H 	H 	0.66170 0.49460 0.92910 0.01700
C 	C 	0.71690 0.55440 0.00500 0.01700
C 	C 	0.73710 0.49820 0.06136 0.05400
H 	H 	0.76360 0.56200 0.08760 0.03100
H 	H 	0.66960 0.09050 0.08940 0.26400
N 	N 	0.73500 0.70350 0.98187 -0.07200
N 	N 	0.51790 0.55370 0.01230 -0.07800
O 	O 	0.76556 0.40110 0.17698 -0.45600
O 	O 	0.72910 0.15460 0.15482 -0.47800
O 	O 	0.66951 0.85280 0.15388 -0.40900
O 	O 	0.71081 0.69150 0.22431 -0.54500
O 	O 	0.65584 0.39610 0.22950 -0.42300
O 	O 	0.65920 0.10560 0.05279 -0.41300
Tm	Tm	0.75245 0.46525 0.27162 1.51400
C 	C 	0.92120 0.83000 0.35080 -0.19700
H 	H 	0.92660 0.73180 0.33310 0.10300
C 	C 	0.87750 0.93880 0.32130 0.26600
C 	C 	0.87210 0.08740 0.34850 -0.20100
C 	C 	0.82910 0.21600 0.32320 0.36900
C 	C 	0.90830 0.11970 0.40330 0.01000
H 	H 	0.90430 0.21880 0.42090 0.05900
C 	C 	0.94940 0.00980 0.43160 0.04100
C 	C 	0.95600 0.86190 0.40420 0.01300
H 	H 	0.98420 0.78590 0.42240 0.04400
C 	C 	0.75990 0.79740 0.35820 0.43800
C 	C 	0.78080 0.85080 0.42040 -0.22500
C 	C 	0.82090 0.75370 0.46020 0.30200
C 	C 	0.84220 0.81110 0.51640 -0.21800
H 	H 	0.86930 0.74900 0.54270 0.12900
C 	C 	0.82360 0.95810 0.53320 0.04300
H 	H 	0.83830 0.99460 0.57090 0.01900
C 	C 	0.78310 0.05440 0.49500 0.02100
C 	C 	0.76290 0.99820 0.43864 0.04800
H 	H 	0.73640 0.06200 0.41240 0.03400
H 	H 	0.83040 0.59050 0.41060 0.26300
N 	N 	0.76500 0.20350 0.51813 -0.07400
N 	N 	0.98210 0.05370 0.48770 -0.07800
O 	O 	0.73444 0.90110 0.32302 -0.45700
O 	O 	0.77090 0.65460 0.34518 -0.47900
O 	O 	0.83049 0.35280 0.34612 -0.40800
O 	O 	0.78919 0.19150 0.27569 -0.54300
O 	O 	0.84416 0.89610 0.27050 -0.42300
O 	O 	0.84080 0.60560 0.44721 -0.41300
Tm	Tm	0.74755 0.96525 0.22838 1.51200
C 	C 	0.42120 0.33000 0.35080 -0.20100
H 	H 	0.42660 0.23180 0.33310 0.10500
C 	C 	0.37750 0.43880 0.32130 0.27200
C 	C 	0.37210 0.58740 0.34850 -0.20800
C 	C 	0.32910 0.71600 0.32320 0.37100
C 	C 	0.40830 0.61970 0.40330 0.01500
H 	H 	0.40430 0.71880 0.42090 0.05800
C 	C 	0.44940 0.50980 0.43160 0.03600
C 	C 	0.45600 0.36190 0.40420 0.02000
H 	H 	0.48420 0.28590 0.42240 0.04300
C 	C 	0.25990 0.29740 0.35820 0.43800
C 	C 	0.28080 0.35080 0.42040 -0.22700
C 	C 	0.32090 0.25370 0.46020 0.30300
C 	C 	0.34220 0.31110 0.51640 -0.21900
H 	H 	0.36930 0.24900 0.54270 0.12900
C 	C 	0.32360 0.45810 0.53320 0.04500
H 	H 	0.33830 0.49460 0.57090 0.01800
C 	C 	0.28310 0.55440 0.49500 0.01800
C 	C 	0.26290 0.49820 0.43864 0.05200
H 	H 	0.23640 0.56200 0.41240 0.03100
H 	H 	0.33040 0.09050 0.41060 0.26400
N 	N 	0.26500 0.70350 0.51813 -0.07300
N 	N 	0.48210 0.55370 0.48770 -0.07800
O 	O 	0.23444 0.40110 0.32302 -0.45600
O 	O 	0.27090 0.15460 0.34518 -0.47800
O 	O 	0.33049 0.85280 0.34612 -0.40900
O 	O 	0.28919 0.69150 0.27569 -0.54500
O 	O 	0.34416 0.39610 0.27050 -0.42300
O 	O 	0.34080 0.10560 0.44721 -0.41300
Tm	Tm	0.24755 0.46525 0.22838 1.51400
C 	C 	0.92120 0.17000 0.85080 -0.19500
H 	H 	0.92660 0.26820 0.83310 0.10200
C 	C 	0.87750 0.06120 0.82130 0.26500
C 	C 	0.87210 0.91260 0.84850 -0.20000
C 	C 	0.82910 0.78400 0.82320 0.36900
C 	C 	0.90830 0.88030 0.90330 0.00900
H 	H 	0.90430 0.78120 0.92090 0.06000
C 	C 	0.94940 0.99020 0.93160 0.04200
C 	C 	0.95600 0.13810 0.90420 0.01100
H 	H 	0.98420 0.21410 0.92240 0.04500
C 	C 	0.75990 0.20260 0.85820 0.43700
C 	C 	0.78080 0.14920 0.92040 -0.22200
C 	C 	0.82090 0.24630 0.96020 0.29900
C 	C 	0.84220 0.18890 0.01640 -0.21400
H 	H 	0.86930 0.25100 0.04270 0.12800
C 	C 	0.82360 0.04190 0.03320 0.04000
H 	H 	0.83830 0.00540 0.07090 0.02000
C 	C 	0.78310 0.94560 0.99500 0.02500
C 	C 	0.76290 0.00180 0.93864 0.04200
H 	H 	0.73640 0.93800 0.91240 0.03600
H 	H 	0.83040 0.40950 0.91060 0.26300
N 	N 	0.76500 0.79650 0.01813 -0.07500
N 	N 	0.98210 0.94630 0.98770 -0.07900
O 	O 	0.73444 0.09890 0.82302 -0.45700
O 	O 	0.77090 0.34540 0.84518 -0.47900
O 	O 	0.83049 0.64720 0.84612 -0.40800
O 	O 	0.78919 0.80850 0.77569 -0.54300
O 	O 	0.84416 0.10390 0.77050 -0.42200
O 	O 	0.84080 0.39440 0.94721 -0.41200
Tm	Tm	0.74755 0.03475 0.72838 1.51200
C 	C 	0.42120 0.67000 0.85080 -0.20200
H 	H 	0.42660 0.76820 0.83310 0.10500
C 	C 	0.37750 0.56120 0.82130 0.27300
C 	C 	0.37210 0.41260 0.84850 -0.20800
C 	C 	0.32910 0.28400 0.82320 0.37100
C 	C 	0.40830 0.38030 0.90330 0.01500
H 	H 	0.40430 0.28120 0.92090 0.05700
C 	C 	0.44940 0.49020 0.93160 0.03500
C 	C 	0.45600 0.63810 0.90420 0.02000
H 	H 	0.48420 0.71410 0.92240 0.04300
C 	C 	0.25990 0.70260 0.85820 0.43900
C 	C 	0.28080 0.64920 0.92040 -0.22700
C 	C 	0.32090 0.74630 0.96020 0.30400
C 	C 	0.34220 0.68890 0.01640 -0.22100
H 	H 	0.36930 0.75100 0.04270 0.13000
C 	C 	0.32360 0.54190 0.03320 0.04600
H 	H 	0.33830 0.50540 0.07090 0.01700
C 	C 	0.28310 0.44560 0.99500 0.01700
C 	C 	0.26290 0.50180 0.93864 0.05400
H 	H 	0.23640 0.43800 0.91240 0.03100
H 	H 	0.33040 0.90950 0.91060 0.26400
N 	N 	0.26500 0.29650 0.01813 -0.07200
N 	N 	0.48210 0.44630 0.98770 -0.07800
O 	O 	0.23444 0.59890 0.82302 -0.45600
O 	O 	0.27090 0.84540 0.84518 -0.47800
O 	O 	0.33049 0.14720 0.84612 -0.40900
O 	O 	0.28919 0.30850 0.77569 -0.54500
O 	O 	0.34416 0.60390 0.77050 -0.42300
O 	O 	0.34080 0.89440 0.94721 -0.41300
Tm	Tm	0.24755 0.53475 0.72838 1.51400
C 	C 	0.07880 0.17000 0.64920 -0.19700
H 	H 	0.07340 0.26820 0.66690 0.10300
C 	C 	0.12250 0.06120 0.67870 0.26600
C 	C 	0.12790 0.91260 0.65150 -0.20100
C 	C 	0.17090 0.78400 0.67680 0.36900
C 	C 	0.09170 0.88030 0.59670 0.01000
H 	H 	0.09570 0.78120 0.57910 0.05900
C 	C 	0.05060 0.99020 0.56840 0.04100
C 	C 	0.04400 0.13810 0.59580 0.01300
H 	H 	0.01580 0.21410 0.57760 0.04400
C 	C 	0.24010 0.20260 0.64180 0.43800
C 	C 	0.21920 0.14920 0.57960 -0.22500
C 	C 	0.17910 0.24630 0.53980 0.30200
C 	C 	0.15780 0.18890 0.48360 -0.21800
H 	H 	0.13070 0.25100 0.45730 0.12900
C 	C 	0.17640 0.04190 0.46680 0.04300
H 	H 	0.16170 0.00540 0.42910 0.01900
C 	C 	0.21690 0.94560 0.50500 0.02100
C 	C 	0.23710 0.00180 0.56136 0.04800
H 	H 	0.26360 0.93800 0.58760 0.03400
H 	H 	0.16960 0.40950 0.58940 0.26300
N 	N 	0.23500 0.79650 0.48187 -0.07400
N 	N 	0.01790 0.94630 0.51230 -0.07800
O 	O 	0.26556 0.09890 0.67698 -0.45700
O 	O 	0.22910 0.34540 0.65482 -0.47900
O 	O 	0.16951 0.64720 0.65388 -0.40800
O 	O 	0.21081 0.80850 0.72431 -0.54300
O 	O 	0.15584 0.10390 0.72950 -0.42300
O 	O 	0.15920 0.39440 0.55279 -0.41300
Tm	Tm	0.25245 0.03475 0.77162 1.51200
C 	C 	0.57880 0.67000 0.64920 -0.20100
H 	H 	0.57340 0.76820 0.66690 0.10500
C 	C 	0.62250 0.56120 0.67870 0.27200
C 	C 	0.62790 0.41260 0.65150 -0.20800
C 	C 	0.67090 0.28400 0.67680 0.37100
C 	C 	0.59170 0.38030 0.59670 0.01500
H 	H 	0.59570 0.28120 0.57910 0.05800
C 	C 	0.55060 0.49020 0.56840 0.03600
C 	C 	0.54400 0.63810 0.59580 0.02000
H 	H 	0.51580 0.71410 0.57760 0.04300
C 	C 	0.74010 0.70260 0.64180 0.43800
C 	C 	0.71920 0.64920 0.57960 -0.22700
C 	C 	0.67910 0.74630 0.53980 0.30300
C 	C 	0.65780 0.68890 0.48360 -0.21900
H 	H 	0.63070 0.75100 0.45730 0.12900
C 	C 	0.67640 0.54190 0.46680 0.04500
H 	H 	0.66170 0.50540 0.42910 0.01800
C 	C 	0.71690 0.44560 0.50500 0.01800
C 	C 	0.73710 0.50180 0.56136 0.05200
H 	H 	0.76360 0.43800 0.58760 0.03100
H 	H 	0.66960 0.90950 0.58940 0.26400
N 	N 	0.73500 0.29650 0.48187 -0.07300
N 	N 	0.51790 0.44630 0.51230 -0.07800
O 	O 	0.76556 0.59890 0.67698 -0.45600
O 	O 	0.72910 0.84540 0.65482 -0.47800
O 	O 	0.66951 0.14720 0.65388 -0.40900
O 	O 	0.71081 0.30850 0.72431 -0.54500
O 	O 	0.65584 0.60390 0.72950 -0.42300
O 	O 	0.65920 0.89440 0.55279 -0.41300
Tm	Tm	0.75245 0.53475 0.77162 1.51400
