data_crystal

_cell_length_a 13.56000
_cell_length_b 25.68300
_cell_length_c 26.59000
_cell_angle_alpha 99.18500
_cell_angle_beta  104.31400
_cell_angle_gamma 104.89500

_symmetry_space_group_name_	'P 1'
_symmetry_space_group_name_H-M	'P 1'

loop_
_symmetry_equiv_pos_as_xyz
  x,y,z

loop_
_atom_site_label
_atom_site_type_symbol
_atom_site_fract_x
_atom_site_fract_y
_atom_site_fract_z
_atom_site_charge
Ti	Ti	0.47669 0.37630 0.44799 3.08500
Ti	Ti	0.33455 0.42330 0.50717 3.09000
Ti	Ti	0.63278 0.46473 0.54864 3.08500
Ti	Ti	0.31037 0.04119 0.94473 3.08300
Ti	Ti	0.51281 0.02710 0.91846 3.08800
Ti	Ti	0.50046 0.09810 0.05012 3.09100
Ti	Ti	0.62849 0.07706 0.56965 3.08900
Ti	Ti	0.70680 0.05662 0.47041 3.08200
Ti	Ti	0.63162 0.94058 0.49578 3.09200
Ti	Ti	0.93299 0.53095 0.88917 3.08400
Ti	Ti	0.14787 0.53265 0.96628 3.08600
Ti	Ti	0.89258 0.41444 0.91636 3.09200
Cu	Cu	0.35319 0.27126 0.71662 0.76100
Cu	Cu	0.30996 0.26069 0.80747 0.76500
Cu	Cu	0.17487 0.19505 0.70784 0.74900
Cu	Cu	0.16511 0.29240 0.74150 0.76100
Br	Br	0.34927 0.18118 0.74602 -0.75600
Br	Br	0.14613 0.25434 0.64711 -0.75300
Br	Br	0.38379 0.35092 0.78571 -0.74200
Br	Br	0.11777 0.23166 0.79887 -0.72600
P 	P 	0.49618 0.51856 0.61188 0.64200
P 	P 	0.71419 0.08187 0.02528 0.63900
P 	P 	0.11313 0.41524 0.99919 0.64400
P 	P 	0.54329 0.95893 0.59826 0.65000
N 	N 	0.42980 0.27233 0.66118 -0.26200
N 	N 	0.41410 0.26156 0.87680 -0.25400
N 	N 	0.06870 0.11829 0.68241 -0.26800
N 	N 	0.12360 0.36187 0.74702 -0.26500
C 	C 	0.41520 0.30283 0.62563 0.10800
H 	H 	0.37580 0.32800 0.63010 -0.03100
C 	C 	0.45510 0.29955 0.58204 -0.27300
C 	C 	0.50990 0.26167 0.57482 0.08900
H 	H 	0.53750 0.25830 0.54530 -0.05400
C 	C 	0.52440 0.22871 0.61094 -0.19200
H 	H 	0.56130 0.20230 0.60660 0.02600
C 	C 	0.48360 0.23562 0.65329 0.05100
H 	H 	0.49380 0.21340 0.67830 -0.03100
C 	C 	0.43150 0.33337 0.54264 0.53000
C 	C 	0.48700 0.52825 0.67870 -0.20800
C 	C 	0.50320 0.57999 0.70812 0.09400
H 	H 	0.52200 0.61140 0.69370 -0.06900
C 	C 	0.49210 0.58690 0.75944 -0.21800
H 	H 	0.50190 0.62290 0.77950 0.04600
C 	C 	0.46750 0.54260 0.78061 0.10500
H 	H 	0.46280 0.54780 0.81600 -0.05200
C 	C 	0.44970 0.49187 0.75209 -0.22700
H 	H 	0.42920 0.46070 0.76660 0.09600
C 	C 	0.46090 0.48434 0.70133 0.10400
H 	H 	0.45020 0.44800 0.68180 -0.03100
C 	C 	0.22850 0.33824 0.39896 1.27500
C 	C 	0.18670 0.28170 0.40380 -1.65800
H 	H 	0.12080 0.26210 0.37440 0.41900
H 	H 	0.17120 0.28250 0.43800 0.40300
H 	H 	0.23990 0.26240 0.40230 0.41000
C 	C 	0.21040 0.35750 0.35690 -2.17100
H 	H 	0.24910 0.39720 0.36610 0.57200
H 	H 	0.13340 0.35160 0.34260 0.54800
H 	H 	0.23480 0.33820 0.32980 0.56400
C 	C 	0.71960 0.39864 0.46826 1.05400
C 	C 	0.74140 0.34920 0.48480 -1.36000
H 	H 	0.80260 0.34320 0.47410 0.32900
H 	H 	0.67820 0.31660 0.46750 0.30300
H 	H 	0.75780 0.35520 0.52370 0.31400
C 	C 	0.78180 0.43780 0.45530 -1.83700
H 	H 	0.74470 0.46460 0.44590 0.47200
H 	H 	0.80140 0.42200 0.42450 0.46500
H 	H 	0.84660 0.45650 0.48550 0.43900
C 	C 	0.50260 0.30400 0.90290 0.06900
H 	H 	0.51330 0.33680 0.89010 -0.02800
C 	C 	0.57810 0.30293 0.94656 -0.20000
H 	H 	0.64060 0.33390 0.96320 0.00700
C 	C 	0.56250 0.25617 0.96645 0.11800
H 	H 	0.61380 0.25450 0.99730 -0.05900
C 	C 	0.47300 0.21253 0.94146 -0.26900
C 	C 	0.40020 0.21586 0.89635 0.12100
H 	H 	0.33830 0.18490 0.87850 -0.04200
C 	C 	0.44960 0.16104 0.96205 0.53400
C 	C 	0.84000 0.13508 0.03765 -0.19800
C 	C 	0.86750 0.15860 0.00180 0.09300
H 	H 	0.81900 0.14740 0.96660 -0.04300
C 	C 	0.96580 0.20000 0.01190 -0.18000
H 	H 	0.98130 0.21410 0.98290 0.05400
C 	C 	0.03250 0.21900 0.05620 0.03900
C 	C 	0.00760 0.20050 0.09430 -0.17300
H 	H 	0.05550 0.21580 0.12950 0.02400
C 	C 	0.90640 0.15560 0.08620 0.06200
H 	H 	0.89040 0.14230 0.11550 -0.04600
C 	C 	0.28890 0.98730 0.82938 1.28100
C 	C 	0.28400 0.93540 0.81390 -2.11000
H 	H 	0.29320 0.91890 0.84490 0.55500
H 	H 	0.34080 0.93360 0.79770 0.53800
H 	H 	0.21420 0.91490 0.78770 0.55100
C 	C 	0.27840 0.02600 0.79659 -1.77100
H 	H 	0.23390 0.00590 0.76020 0.47700
H 	H 	0.34940 0.04690 0.79590 0.45300
H 	H 	0.24470 0.05180 0.81130 0.45900
C 	C 	0.26480 0.09020 0.04910 0.80100
C 	C 	0.25300 0.14390 0.04970 -1.28300
H 	H 	0.20160 0.14910 0.06880 0.35200
H 	H 	0.22690 0.14730 0.01300 0.33600
H 	H 	0.32240 0.17230 0.06790 0.31600
C 	C 	0.21730 0.04470 0.06670 -1.35700
H 	H 	0.24230 0.01360 0.05510 0.35800
H 	H 	0.13940 0.03400 0.05160 0.34600
H 	H 	0.23690 0.05440 0.10580 0.35200
C 	C 	0.07400 0.08311 0.71296 0.07500
H 	H 	0.12350 0.09640 0.74790 -0.04900
C 	C 	0.01260 0.02834 0.69782 -0.21400
H 	H 	0.01840 0.00440 0.72150 0.03800
C 	C 	0.94240 0.00969 0.64695 0.11900
H 	H 	0.90050 0.97170 0.63450 -0.04100
C 	C 	0.93200 0.04523 0.61385 -0.29400
C 	C 	0.99860 0.09958 0.63309 0.09000
H 	H 	0.99440 0.12460 0.61050 -0.05000
C 	C 	0.84920 0.02656 0.56080 0.54400
C 	C 	0.58250 0.93849 0.65956 -0.23900
C 	C 	0.68440 0.93960 0.68140 0.13200
H 	H 	0.73720 0.95080 0.66420 -0.04300
C 	C 	0.71120 0.92370 0.73060 -0.29000
H 	H 	0.78310 0.92470 0.74550 0.07300
C 	C 	0.64590 0.90860 0.75570 0.19900
H 	H 	0.66710 0.89750 0.78810 -0.11300
C 	C 	0.54880 0.90870 0.73570 -0.30300
H 	H 	0.49930 0.89950 0.75510 0.03800
C 	C 	0.51390 0.92180 0.68690 0.14400
H 	H 	0.44060 0.91900 0.67270 -0.08900
C 	C 	0.69490 0.94572 0.39363 1.28800
H 	H 	0.66380 0.90590 0.39360 -0.42400
C 	C 	0.62840 0.95350 0.34660 -1.71200
H 	H 	0.55500 0.94620 0.34860 0.47800
H 	H 	0.62880 0.92780 0.31520 0.49900
H 	H 	0.65550 0.99170 0.34370 0.43300
C 	C 	0.81070 0.95350 0.39930 -1.52400
H 	H 	0.81730 0.93230 0.36690 0.44900
H 	H 	0.84220 0.94040 0.43020 0.41700
H 	H 	0.84840 0.99290 0.40450 0.37900
C 	C 	0.72570 0.17755 0.52719 1.29900
H 	H 	0.70060 0.18990 0.55810 -0.42500
C 	C 	0.65940 0.19138 0.48530 -1.76300
H 	H 	0.58480 0.16930 0.47860 0.49400
H 	H 	0.68070 0.18370 0.45300 0.44100
H 	H 	0.66650 0.23090 0.49520 0.48300
C 	C 	0.84540 0.20404 0.54980 -1.49800
H 	H 	0.86310 0.24430 0.55390 0.41000
H 	H 	0.88040 0.18900 0.52540 0.36600
H 	H 	0.87060 0.19610 0.58470 0.41100
C 	C 	0.06890 0.37592 0.77989 0.11700
H 	H 	0.04050 0.34960 0.79810 -0.03400
C 	C 	0.05200 0.42690 0.78846 -0.28000
C 	C 	0.09200 0.46496 0.76163 0.11600
H 	H 	0.08220 0.50050 0.76670 -0.05900
C 	C 	0.14660 0.44997 0.72723 -0.21000
H 	H 	0.17390 0.47500 0.70760 0.05400
C 	C 	0.16110 0.39932 0.72171 0.09200
H 	H 	0.20030 0.39010 0.69840 -0.03700
C 	C 	0.99440 0.44117 0.82703 0.53800
C 	C 	0.18390 0.36510 0.99790 -0.17600
C 	C 	0.17550 0.33071 0.95202 0.07700
H 	H 	0.13160 0.33300 0.91900 -0.00800
C 	C 	0.23090 0.29168 0.95264 -0.16800
H 	H 	0.22230 0.26710 0.92000 0.07300
C 	C 	0.29510 0.28811 0.99751 0.06600
H 	H 	0.33410 0.26220 0.99700 -0.02300
C 	C 	0.30420 0.32174 0.04396 -0.17200
H 	H 	0.34940 0.31930 0.07650 0.04100
C 	C 	0.24840 0.35984 0.04481 0.07600
H 	H 	0.25450 0.38270 0.07800 -0.04900
C 	C 	0.13950 0.63299 0.91540 0.89200
C 	C 	0.16850 0.62990 0.86610 -1.28900
H 	H 	0.20600 0.66720 0.86410 0.33400
H 	H 	0.10360 0.61370 0.83550 0.30900
H 	H 	0.21540 0.60660 0.86550 0.31300
C 	C 	0.12730 0.67550 0.94790 -1.57100
H 	H 	0.10850 0.66310 0.97820 0.42700
H 	H 	0.07010 0.68790 0.92800 0.42900
H 	H 	0.19440 0.70630 0.96100 0.43400
C 	C 	0.70190 0.44195 0.84976 1.20200
H 	H 	0.67540 0.40580 0.85910 -0.39700
C 	C 	0.64880 0.47730 0.87322 -1.58200
H 	H 	0.66950 0.48150 0.91200 0.44200
H 	H 	0.57110 0.46040 0.85820 0.48000
H 	H 	0.67000 0.51380 0.86530 0.41600
C 	C 	0.68250 0.42671 0.79083 -1.47300
H 	H 	0.72300 0.40170 0.78260 0.39400
H 	H 	0.70560 0.46030 0.77830 0.36900
H 	H 	0.60590 0.40810 0.77290 0.43900
O 	O 	0.47159 0.32829 0.50429 -0.87800
O 	O 	0.37466 0.36345 0.54984 -0.80800
O 	O 	0.58791 0.49550 0.60917 -0.88400
O 	O 	0.38908 0.47874 0.57563 -0.87100
O 	O 	0.63058 0.40830 0.48397 -1.38000
O 	O 	0.51862 0.57636 0.60121 -0.90100
O 	O 	0.32471 0.36803 0.44117 -1.40300
O 	O 	0.30494 0.47344 0.46668 -1.51000
O 	O 	0.48594 0.43622 0.50745 -1.59000
O 	O 	0.36725 0.12047 0.93247 -0.85800
O 	O 	0.50931 0.16165 0.00602 -0.81100
O 	O 	0.65888 0.06670 0.96527 -0.88600
O 	O 	0.65051 0.10642 0.05687 -0.87800
O 	O 	0.35418 0.01315 0.88372 -1.43300
O 	O 	0.33899 0.07913 0.02017 -1.27400
O 	O 	0.48589 0.04190 0.08629 -1.48900
O 	O 	0.46268 0.05069 0.97656 -1.59500
O 	O 	0.74109 0.03303 0.04444 -0.89000
O 	O 	0.50503 0.09033 0.55252 -1.44600
O 	O 	0.78736 0.97814 0.55053 -0.82300
O 	O 	0.84450 0.06001 0.53141 -0.86300
O 	O 	0.42182 0.94397 0.58178 -0.89100
O 	O 	0.59653 0.02129 0.61056 -0.88400
O 	O 	0.58140 0.92728 0.55775 -0.84900
O 	O 	0.69879 0.11804 0.52223 -1.37800
O 	O 	0.68751 0.97737 0.44232 -1.35200
O 	O 	0.63071 0.01903 0.51535 -1.57600
O 	O 	0.96350 0.40613 0.85188 -0.79200
O 	O 	0.98175 0.48893 0.83148 -0.87500
O 	O 	0.10677 0.42852 0.05585 -0.89800
O 	O 	0.17675 0.46691 0.98647 -0.88700
O 	O 	0.00332 0.38842 0.95788 -0.84600
O 	O 	0.81659 0.46085 0.87670 -1.32700
O 	O 	0.08332 0.57786 0.91913 -1.32500
O 	O 	0.16970 0.57546 0.02944 -1.46400
O 	O 	0.00114 0.48931 0.93626 -1.58500
Ti	Ti	0.52331 0.62370 0.55201 3.08400
Ti	Ti	0.66545 0.57670 0.49283 3.08900
Ti	Ti	0.36722 0.53527 0.45136 3.08400
Ti	Ti	0.68963 0.95881 0.05527 3.08200
Ti	Ti	0.48719 0.97290 0.08154 3.08700
Ti	Ti	0.49954 0.90190 0.94988 3.09000
Ti	Ti	0.37151 0.92294 0.43035 3.08900
Ti	Ti	0.29320 0.94338 0.52959 3.08200
Ti	Ti	0.36838 0.05942 0.50422 3.09200
Ti	Ti	0.06701 0.46905 0.11083 3.08400
Ti	Ti	0.85213 0.46735 0.03372 3.08600
Ti	Ti	0.10742 0.58556 0.08364 3.09200
Cu	Cu	0.64681 0.72874 0.28338 0.76100
Cu	Cu	0.69004 0.73931 0.19253 0.76500
Cu	Cu	0.82513 0.80495 0.29216 0.74900
Cu	Cu	0.83489 0.70760 0.25850 0.76100
Br	Br	0.65073 0.81882 0.25398 -0.75600
Br	Br	0.85387 0.74566 0.35289 -0.75300
Br	Br	0.61621 0.64908 0.21429 -0.74200
Br	Br	0.88223 0.76834 0.20113 -0.72600
P 	P 	0.50382 0.48144 0.38812 0.64200
P 	P 	0.28581 0.91813 0.97472 0.63900
P 	P 	0.88687 0.58476 0.00081 0.64400
P 	P 	0.45671 0.04107 0.40174 0.65000
N 	N 	0.57020 0.72767 0.33882 -0.26200
N 	N 	0.58590 0.73844 0.12320 -0.25400
N 	N 	0.93130 0.88171 0.31759 -0.26800
N 	N 	0.87640 0.63813 0.25298 -0.26500
C 	C 	0.58480 0.69717 0.37437 0.10800
H 	H 	0.62420 0.67200 0.36990 -0.03100
C 	C 	0.54490 0.70045 0.41796 -0.27300
C 	C 	0.49010 0.73833 0.42518 0.08900
H 	H 	0.46250 0.74170 0.45470 -0.05400
C 	C 	0.47560 0.77129 0.38906 -0.19200
H 	H 	0.43870 0.79770 0.39340 0.02600
C 	C 	0.51640 0.76438 0.34671 0.05100
H 	H 	0.50620 0.78660 0.32170 -0.03100
C 	C 	0.56850 0.66663 0.45736 0.53000
C 	C 	0.51300 0.47175 0.32130 -0.20800
C 	C 	0.49680 0.42001 0.29188 0.09400
H 	H 	0.47800 0.38860 0.30630 -0.06900
C 	C 	0.50790 0.41310 0.24056 -0.21800
H 	H 	0.49810 0.37710 0.22050 0.04600
C 	C 	0.53250 0.45740 0.21939 0.10500
H 	H 	0.53720 0.45220 0.18400 -0.05200
C 	C 	0.55030 0.50813 0.24791 -0.22700
H 	H 	0.57080 0.53930 0.23340 0.09600
C 	C 	0.53910 0.51566 0.29867 0.10400
H 	H 	0.54980 0.55200 0.31820 -0.03100
C 	C 	0.77150 0.66176 0.60104 1.27500
C 	C 	0.81330 0.71830 0.59620 -1.65800
H 	H 	0.87920 0.73790 0.62560 0.41900
H 	H 	0.82880 0.71750 0.56200 0.40300
H 	H 	0.76010 0.73760 0.59770 0.41000
C 	C 	0.78960 0.64250 0.64310 -2.17100
H 	H 	0.75090 0.60280 0.63390 0.57200
H 	H 	0.86660 0.64840 0.65740 0.54800
H 	H 	0.76520 0.66180 0.67020 0.56400
C 	C 	0.28040 0.60136 0.53174 1.05400
C 	C 	0.25860 0.65080 0.51520 -1.36000
H 	H 	0.19740 0.65680 0.52590 0.32900
H 	H 	0.32180 0.68340 0.53250 0.30300
H 	H 	0.24220 0.64480 0.47630 0.31400
C 	C 	0.21820 0.56220 0.54470 -1.83700
H 	H 	0.25530 0.53540 0.55410 0.47200
H 	H 	0.19860 0.57800 0.57550 0.46500
H 	H 	0.15340 0.54350 0.51450 0.43900
C 	C 	0.49740 0.69600 0.09710 0.06900
H 	H 	0.48670 0.66320 0.10990 -0.02800
C 	C 	0.42190 0.69707 0.05344 -0.20000
H 	H 	0.35940 0.66610 0.03680 0.00700
C 	C 	0.43750 0.74383 0.03355 0.11800
H 	H 	0.38620 0.74550 0.00270 -0.05900
C 	C 	0.52700 0.78747 0.05854 -0.26900
C 	C 	0.59980 0.78414 0.10365 0.12100
H 	H 	0.66170 0.81510 0.12150 -0.04200
C 	C 	0.55040 0.83896 0.03795 0.53400
C 	C 	0.16000 0.86492 0.96235 -0.19800
C 	C 	0.13250 0.84140 0.99820 0.09300
H 	H 	0.18100 0.85260 0.03340 -0.04300
C 	C 	0.03420 0.80000 0.98810 -0.18000
H 	H 	0.01870 0.78590 0.01710 0.05400
C 	C 	0.96750 0.78100 0.94380 0.03900
C 	C 	0.99240 0.79950 0.90570 -0.17300
H 	H 	0.94450 0.78420 0.87050 0.02400
C 	C 	0.09360 0.84440 0.91380 0.06200
H 	H 	0.10960 0.85770 0.88450 -0.04600
C 	C 	0.71110 0.01270 0.17062 1.28100
C 	C 	0.71600 0.06460 0.18610 -2.11000
H 	H 	0.70680 0.08110 0.15510 0.55500
H 	H 	0.65920 0.06640 0.20230 0.53800
H 	H 	0.78580 0.08510 0.21230 0.55100
C 	C 	0.72160 0.97400 0.20341 -1.77100
H 	H 	0.76610 0.99410 0.23980 0.47700
H 	H 	0.65060 0.95310 0.20410 0.45300
H 	H 	0.75530 0.94820 0.18870 0.45900
C 	C 	0.73520 0.90980 0.95090 0.80100
C 	C 	0.74700 0.85610 0.95030 -1.28300
H 	H 	0.79840 0.85090 0.93120 0.35200
H 	H 	0.77310 0.85270 0.98700 0.33600
H 	H 	0.67760 0.82770 0.93210 0.31600
C 	C 	0.78270 0.95530 0.93330 -1.35700
H 	H 	0.75770 0.98640 0.94490 0.35800
H 	H 	0.86060 0.96600 0.94840 0.34600
H 	H 	0.76310 0.94560 0.89420 0.35200
C 	C 	0.92600 0.91689 0.28704 0.07500
H 	H 	0.87650 0.90360 0.25210 -0.04900
C 	C 	0.98740 0.97166 0.30218 -0.21400
H 	H 	0.98160 0.99560 0.27850 0.03800
C 	C 	0.05760 0.99031 0.35305 0.11900
H 	H 	0.09950 0.02830 0.36550 -0.04100
C 	C 	0.06800 0.95477 0.38615 -0.29400
C 	C 	0.00140 0.90042 0.36691 0.09000
H 	H 	0.00560 0.87540 0.38950 -0.05000
C 	C 	0.15080 0.97344 0.43920 0.54400
C 	C 	0.41750 0.06151 0.34044 -0.23900
C 	C 	0.31560 0.06040 0.31860 0.13200
H 	H 	0.26280 0.04920 0.33580 -0.04300
C 	C 	0.28880 0.07630 0.26940 -0.29000
H 	H 	0.21690 0.07530 0.25450 0.07300
C 	C 	0.35410 0.09140 0.24430 0.19900
H 	H 	0.33290 0.10250 0.21190 -0.11300
C 	C 	0.45120 0.09130 0.26430 -0.30300
H 	H 	0.50070 0.10050 0.24490 0.03800
C 	C 	0.48610 0.07820 0.31310 0.14400
H 	H 	0.55940 0.08100 0.32730 -0.08900
C 	C 	0.30510 0.05428 0.60637 1.28800
H 	H 	0.33620 0.09410 0.60640 -0.42400
C 	C 	0.37160 0.04650 0.65340 -1.71200
H 	H 	0.44500 0.05380 0.65140 0.47800
H 	H 	0.37120 0.07220 0.68480 0.49900
H 	H 	0.34450 0.00830 0.65630 0.43300
C 	C 	0.18930 0.04650 0.60070 -1.52400
H 	H 	0.18270 0.06770 0.63310 0.44900
H 	H 	0.15780 0.05960 0.56980 0.41700
H 	H 	0.15160 0.00710 0.59550 0.37900
C 	C 	0.27430 0.82245 0.47281 1.29900
H 	H 	0.29940 0.81010 0.44190 -0.42500
C 	C 	0.34060 0.80862 0.51470 -1.76300
H 	H 	0.41520 0.83070 0.52140 0.49400
H 	H 	0.31930 0.81630 0.54700 0.44100
H 	H 	0.33350 0.76910 0.50480 0.48300
C 	C 	0.15460 0.79596 0.45020 -1.49800
H 	H 	0.13690 0.75570 0.44610 0.41000
H 	H 	0.11960 0.81100 0.47460 0.36600
H 	H 	0.12940 0.80390 0.41530 0.41100
C 	C 	0.93110 0.62408 0.22011 0.11700
H 	H 	0.95950 0.65040 0.20190 -0.03400
C 	C 	0.94800 0.57310 0.21154 -0.28000
C 	C 	0.90800 0.53504 0.23837 0.11600
H 	H 	0.91780 0.49950 0.23330 -0.05900
C 	C 	0.85340 0.55003 0.27277 -0.21000
H 	H 	0.82610 0.52500 0.29240 0.05400
C 	C 	0.83890 0.60068 0.27829 0.09200
H 	H 	0.79970 0.60990 0.30160 -0.03700
C 	C 	0.00560 0.55883 0.17297 0.53800
C 	C 	0.81610 0.63490 0.00210 -0.17600
C 	C 	0.82450 0.66929 0.04798 0.07700
H 	H 	0.86840 0.66700 0.08100 -0.00800
C 	C 	0.76910 0.70832 0.04736 -0.16800
H 	H 	0.77770 0.73290 0.08000 0.07300
C 	C 	0.70490 0.71189 0.00249 0.06600
H 	H 	0.66590 0.73780 0.00300 -0.02300
C 	C 	0.69580 0.67826 0.95604 -0.17200
H 	H 	0.65060 0.68070 0.92350 0.04100
C 	C 	0.75160 0.64016 0.95519 0.07600
H 	H 	0.74550 0.61730 0.92200 -0.04900
C 	C 	0.86050 0.36701 0.08460 0.89200
C 	C 	0.83150 0.37010 0.13390 -1.28900
H 	H 	0.79400 0.33280 0.13590 0.33400
H 	H 	0.89640 0.38630 0.16450 0.30900
H 	H 	0.78460 0.39340 0.13450 0.31300
C 	C 	0.87270 0.32450 0.05210 -1.57100
H 	H 	0.89150 0.33690 0.02180 0.42700
H 	H 	0.92990 0.31210 0.07200 0.42900
H 	H 	0.80560 0.29370 0.03900 0.43400
C 	C 	0.29810 0.55805 0.15024 1.20200
H 	H 	0.32460 0.59420 0.14090 -0.39700
C 	C 	0.35120 0.52270 0.12678 -1.58200
H 	H 	0.33050 0.51850 0.08800 0.44200
H 	H 	0.42890 0.53960 0.14180 0.48000
H 	H 	0.33000 0.48620 0.13470 0.41600
C 	C 	0.31750 0.57329 0.20917 -1.47300
H 	H 	0.27700 0.59830 0.21740 0.39400
H 	H 	0.29440 0.53970 0.22170 0.36900
H 	H 	0.39410 0.59190 0.22710 0.43900
O 	O 	0.52841 0.67171 0.49571 -0.87800
O 	O 	0.62534 0.63655 0.45016 -0.80800
O 	O 	0.41209 0.50450 0.39083 -0.88400
O 	O 	0.61092 0.52126 0.42437 -0.87100
O 	O 	0.36942 0.59170 0.51603 -1.38000
O 	O 	0.48138 0.42364 0.39879 -0.90100
O 	O 	0.67529 0.63197 0.55883 -1.40300
O 	O 	0.69506 0.52656 0.53332 -1.51000
O 	O 	0.51406 0.56378 0.49255 -1.59000
O 	O 	0.63275 0.87953 0.06753 -0.85800
O 	O 	0.49069 0.83835 0.99398 -0.81100
O 	O 	0.34112 0.93330 0.03473 -0.88600
O 	O 	0.34949 0.89358 0.94313 -0.87800
O 	O 	0.64582 0.98685 0.11628 -1.43300
O 	O 	0.66101 0.92087 0.97983 -1.27400
O 	O 	0.51411 0.95810 0.91371 -1.48900
O 	O 	0.53732 0.94931 0.02344 -1.59500
O 	O 	0.25891 0.96697 0.95556 -0.89000
O 	O 	0.49497 0.90967 0.44748 -1.44600
O 	O 	0.21264 0.02186 0.44947 -0.82300
O 	O 	0.15550 0.93999 0.46859 -0.86300
O 	O 	0.57818 0.05603 0.41822 -0.89100
O 	O 	0.40347 0.97871 0.38944 -0.88400
O 	O 	0.41860 0.07272 0.44225 -0.84900
O 	O 	0.30121 0.88196 0.47777 -1.37800
O 	O 	0.31249 0.02263 0.55768 -1.35200
O 	O 	0.36929 0.98097 0.48465 -1.57600
O 	O 	0.03650 0.59387 0.14812 -0.79200
O 	O 	0.01825 0.51107 0.16852 -0.87500
O 	O 	0.89323 0.57148 0.94415 -0.89800
O 	O 	0.82325 0.53309 0.01353 -0.88700
O 	O 	0.99668 0.61158 0.04212 -0.84600
O 	O 	0.18341 0.53915 0.12330 -1.32700
O 	O 	0.91668 0.42214 0.08087 -1.32500
O 	O 	0.83030 0.42454 0.97056 -1.46400
O 	O 	0.99886 0.51069 0.06374 -1.58500
