data_crystal

_cell_length_a 21.61700
_cell_length_b 8.23780
_cell_length_c 23.15800
_cell_angle_alpha 90.00000
_cell_angle_beta  99.42600
_cell_angle_gamma 90.00000

_symmetry_space_group_name_	'P 1'
_symmetry_space_group_name_H-M	'P 1'

loop_
_symmetry_equiv_pos_as_xyz
  x,y,z

loop_
_atom_site_label
_atom_site_type_symbol
_atom_site_fract_x
_atom_site_fract_y
_atom_site_fract_z
_atom_site_charge
C 	C 	0.17230 0.78510 0.17800 0.34700
C 	C 	0.04920 0.99240 0.07020 0.05000
C 	C 	0.09240 0.88300 0.09750 -0.00200
H 	H 	0.09880 0.78630 0.07860 0.06600
C 	C 	0.25970 0.70310 0.35880 0.35300
C 	C 	0.26300 0.50280 0.43880 -0.02100
H 	H 	0.23620 0.43890 0.41270 0.06100
C 	C 	0.32540 0.53910 0.53310 -0.02700
H 	H 	0.34160 0.49820 0.56990 0.05000
C 	C 	0.12690 0.91320 0.15260 -0.17500
C 	C 	0.28160 0.65220 0.42150 -0.12900
C 	C 	0.28400 0.44690 0.49520 0.07300
C 	C 	0.04320 0.14030 0.09520 0.00300
H 	H 	0.01650 0.21860 0.07590 0.05000
C 	C 	0.32250 0.75140 0.45960 0.20000
C 	C 	0.34370 0.69390 0.51700 -0.13000
H 	H 	0.36950 0.75830 0.54390 0.09400
C 	C 	0.07790 0.17180 0.15010 -0.18600
H 	H 	0.07140 0.26910 0.16860 0.11000
C 	C 	0.12170 0.06370 0.17830 0.26500
Lu	Lu	0.24790 0.53693 0.22855 1.18500
N 	N 	0.01810 0.94830 0.01290 -0.07800
N 	N 	0.26460 0.30100 0.51840 -0.08000
O 	O 	0.23790 0.58790 0.32210 -0.37600
O 	O 	0.15460 0.10430 0.22940 -0.36100
O 	O 	0.21220 0.80930 0.22490 -0.45800
O 	O 	0.16840 0.64380 0.15530 -0.33600
O 	O 	0.27070 0.84930 0.34500 -0.36100
O 	O 	0.33990 0.89900 0.44590 -0.18100
C 	C 	0.67230 0.28510 0.17800 0.34800
C 	C 	0.54920 0.49240 0.07020 0.04300
C 	C 	0.59240 0.38300 0.09750 0.00300
H 	H 	0.59880 0.28630 0.07860 0.06400
C 	C 	0.75970 0.20310 0.35880 0.35300
C 	C 	0.76300 0.00280 0.43880 -0.02300
H 	H 	0.73620 0.93890 0.41270 0.06200
C 	C 	0.82540 0.03910 0.53310 -0.02300
H 	H 	0.84160 0.99820 0.56990 0.04800
C 	C 	0.62690 0.41320 0.15260 -0.18200
C 	C 	0.78160 0.15220 0.42150 -0.12900
C 	C 	0.78400 0.94690 0.49520 0.07200
C 	C 	0.54320 0.64030 0.09520 0.01100
H 	H 	0.51650 0.71860 0.07590 0.04800
C 	C 	0.82250 0.25140 0.45960 0.20000
C 	C 	0.84370 0.19390 0.51700 -0.13200
H 	H 	0.86950 0.25830 0.54390 0.09500
C 	C 	0.57790 0.67180 0.15010 -0.19100
H 	H 	0.57140 0.76910 0.16860 0.11300
C 	C 	0.62170 0.56370 0.17830 0.27200
Lu	Lu	0.74790 0.03693 0.22855 1.18200
N 	N 	0.51810 0.44830 0.01290 -0.07800
N 	N 	0.76460 0.80100 0.51840 -0.08000
O 	O 	0.73790 0.08790 0.32210 -0.37700
O 	O 	0.65460 0.60430 0.22940 -0.36200
O 	O 	0.71220 0.30930 0.22490 -0.46000
O 	O 	0.66840 0.14380 0.15530 -0.33800
O 	O 	0.77070 0.34930 0.34500 -0.36300
O 	O 	0.83990 0.39900 0.44590 -0.18200
C 	C 	0.82770 0.78510 0.32200 0.34700
C 	C 	0.95080 0.99240 0.42980 0.04700
C 	C 	0.90760 0.88300 0.40250 -0.00100
H 	H 	0.90120 0.78630 0.42140 0.06600
C 	C 	0.74030 0.70310 0.14120 0.35300
C 	C 	0.73700 0.50280 0.06120 -0.02000
H 	H 	0.76380 0.43890 0.08730 0.06000
C 	C 	0.67460 0.53910 0.96690 -0.02600
H 	H 	0.65840 0.49820 0.93010 0.05000
C 	C 	0.87310 0.91320 0.34740 -0.17600
C 	C 	0.71840 0.65220 0.07850 -0.13000
C 	C 	0.71600 0.44690 0.00480 0.07100
C 	C 	0.95680 0.14030 0.40480 0.00500
H 	H 	0.98350 0.21860 0.42410 0.05000
C 	C 	0.67750 0.75140 0.04040 0.20000
C 	C 	0.65630 0.69390 0.98300 -0.13100
H 	H 	0.63050 0.75830 0.95610 0.09500
C 	C 	0.92210 0.17180 0.34990 -0.18700
H 	H 	0.92860 0.26910 0.33140 0.11100
C 	C 	0.87830 0.06370 0.32170 0.26600
Lu	Lu	0.75210 0.53693 0.27145 1.18500
N 	N 	0.98190 0.94830 0.48710 -0.07800
N 	N 	0.73540 0.30100 0.98160 -0.07900
O 	O 	0.76210 0.58790 0.17790 -0.37600
O 	O 	0.84540 0.10430 0.27060 -0.36100
O 	O 	0.78780 0.80930 0.27510 -0.45800
O 	O 	0.83160 0.64380 0.34470 -0.33600
O 	O 	0.72930 0.84930 0.15500 -0.36100
O 	O 	0.66010 0.89900 0.05410 -0.18100
C 	C 	0.32770 0.28510 0.32200 0.34800
C 	C 	0.45080 0.49240 0.42980 0.04300
C 	C 	0.40760 0.38300 0.40250 0.00300
H 	H 	0.40120 0.28630 0.42140 0.06400
C 	C 	0.24030 0.20310 0.14120 0.35200
C 	C 	0.23700 0.00280 0.06120 -0.02700
H 	H 	0.26380 0.93890 0.08730 0.06400
C 	C 	0.17460 0.03910 0.96690 -0.02300
H 	H 	0.15840 0.99820 0.93010 0.04700
C 	C 	0.37310 0.41320 0.34740 -0.18200
C 	C 	0.21840 0.15220 0.07850 -0.12700
C 	C 	0.21600 0.94690 0.00480 0.07400
C 	C 	0.45680 0.64030 0.40480 0.01100
H 	H 	0.48350 0.71860 0.42410 0.04800
C 	C 	0.17750 0.25140 0.04040 0.19900
C 	C 	0.15630 0.19390 0.98300 -0.13100
H 	H 	0.13050 0.25830 0.95610 0.09500
C 	C 	0.42210 0.67180 0.34990 -0.19100
H 	H 	0.42860 0.76910 0.33140 0.11300
C 	C 	0.37830 0.56370 0.32170 0.27200
Lu	Lu	0.25210 0.03693 0.27145 1.18300
N 	N 	0.48190 0.44830 0.48710 -0.07700
N 	N 	0.23540 0.80100 0.98160 -0.08100
O 	O 	0.26210 0.08790 0.17790 -0.37700
O 	O 	0.34540 0.60430 0.27060 -0.36200
O 	O 	0.28780 0.30930 0.27510 -0.46000
O 	O 	0.33160 0.14380 0.34470 -0.33700
O 	O 	0.22930 0.34930 0.15500 -0.36300
O 	O 	0.16010 0.39900 0.05410 -0.18200
C 	C 	0.82770 0.21490 0.82200 0.34600
C 	C 	0.95080 0.00760 0.92980 0.04900
C 	C 	0.90760 0.11700 0.90250 -0.00200
H 	H 	0.90120 0.21370 0.92140 0.06600
C 	C 	0.74030 0.29690 0.64120 0.35300
C 	C 	0.73700 0.49720 0.56120 -0.02100
H 	H 	0.76380 0.56110 0.58730 0.06100
C 	C 	0.67460 0.46090 0.46690 -0.02700
H 	H 	0.65840 0.50180 0.43010 0.05000
C 	C 	0.87310 0.08680 0.84740 -0.17500
C 	C 	0.71840 0.34780 0.57850 -0.12900
C 	C 	0.71600 0.55310 0.50480 0.07300
C 	C 	0.95680 0.85970 0.90480 0.00300
H 	H 	0.98350 0.78140 0.92410 0.05000
C 	C 	0.67750 0.24860 0.54040 0.20000
C 	C 	0.65630 0.30610 0.48300 -0.13000
H 	H 	0.63050 0.24170 0.45610 0.09400
C 	C 	0.92210 0.82820 0.84990 -0.18600
H 	H 	0.92860 0.73090 0.83140 0.11000
C 	C 	0.87830 0.93630 0.82170 0.26500
Lu	Lu	0.75210 0.46307 0.77145 1.18500
N 	N 	0.98190 0.05170 0.98710 -0.07800
N 	N 	0.73540 0.69900 0.48160 -0.08000
O 	O 	0.76210 0.41210 0.67790 -0.37600
O 	O 	0.84540 0.89570 0.77060 -0.36100
O 	O 	0.78780 0.19070 0.77510 -0.45800
O 	O 	0.83160 0.35620 0.84470 -0.33600
O 	O 	0.72930 0.15070 0.65500 -0.36100
O 	O 	0.66010 0.10100 0.55410 -0.18100
C 	C 	0.32770 0.71490 0.82200 0.34800
C 	C 	0.45080 0.50760 0.92980 0.04300
C 	C 	0.40760 0.61700 0.90250 0.00300
H 	H 	0.40120 0.71370 0.92140 0.06400
C 	C 	0.24030 0.79690 0.64120 0.35300
C 	C 	0.23700 0.99720 0.56120 -0.02300
H 	H 	0.26380 0.06110 0.58730 0.06200
C 	C 	0.17460 0.96090 0.46690 -0.02300
H 	H 	0.15840 0.00180 0.43010 0.04800
C 	C 	0.37310 0.58680 0.84740 -0.18200
C 	C 	0.21840 0.84780 0.57850 -0.12900
C 	C 	0.21600 0.05310 0.50480 0.07200
C 	C 	0.45680 0.35970 0.90480 0.01100
H 	H 	0.48350 0.28140 0.92410 0.04800
C 	C 	0.17750 0.74860 0.54040 0.20000
C 	C 	0.15630 0.80610 0.48300 -0.13200
H 	H 	0.13050 0.74170 0.45610 0.09500
C 	C 	0.42210 0.32820 0.84990 -0.19100
H 	H 	0.42860 0.23090 0.83140 0.11300
C 	C 	0.37830 0.43630 0.82170 0.27200
Lu	Lu	0.25210 0.96307 0.77145 1.18200
N 	N 	0.48190 0.55170 0.98710 -0.07800
N 	N 	0.23540 0.19900 0.48160 -0.08000
O 	O 	0.26210 0.91210 0.67790 -0.37700
O 	O 	0.34540 0.39570 0.77060 -0.36200
O 	O 	0.28780 0.69070 0.77510 -0.46000
O 	O 	0.33160 0.85620 0.84470 -0.33800
O 	O 	0.22930 0.65070 0.65500 -0.36300
O 	O 	0.16010 0.60100 0.55410 -0.18200
C 	C 	0.17230 0.21490 0.67800 0.34700
C 	C 	0.04920 0.00760 0.57020 0.04700
C 	C 	0.09240 0.11700 0.59750 -0.00100
H 	H 	0.09880 0.21370 0.57860 0.06600
C 	C 	0.25970 0.29690 0.85880 0.35300
C 	C 	0.26300 0.49720 0.93880 -0.02000
H 	H 	0.23620 0.56110 0.91270 0.06000
C 	C 	0.32540 0.46090 0.03310 -0.02600
H 	H 	0.34160 0.50180 0.06990 0.05000
C 	C 	0.12690 0.08680 0.65260 -0.17600
C 	C 	0.28160 0.34780 0.92150 -0.13000
C 	C 	0.28400 0.55310 0.99520 0.07100
C 	C 	0.04320 0.85970 0.59520 0.00500
H 	H 	0.01650 0.78140 0.57590 0.05000
C 	C 	0.32250 0.24860 0.95960 0.20000
C 	C 	0.34370 0.30610 0.01700 -0.13100
H 	H 	0.36950 0.24170 0.04390 0.09500
C 	C 	0.07790 0.82820 0.65010 -0.18700
H 	H 	0.07140 0.73090 0.66860 0.11100
C 	C 	0.12170 0.93630 0.67830 0.26600
Lu	Lu	0.24790 0.46307 0.72855 1.18500
N 	N 	0.01810 0.05170 0.51290 -0.07800
N 	N 	0.26460 0.69900 0.01840 -0.07900
O 	O 	0.23790 0.41210 0.82210 -0.37600
O 	O 	0.15460 0.89570 0.72940 -0.36100
O 	O 	0.21220 0.19070 0.72490 -0.45800
O 	O 	0.16840 0.35620 0.65530 -0.33600
O 	O 	0.27070 0.15070 0.84500 -0.36100
O 	O 	0.33990 0.10100 0.94590 -0.18100
C 	C 	0.67230 0.71490 0.67800 0.34800
C 	C 	0.54920 0.50760 0.57020 0.04300
C 	C 	0.59240 0.61700 0.59750 0.00300
H 	H 	0.59880 0.71370 0.57860 0.06400
C 	C 	0.75970 0.79690 0.85880 0.35200
C 	C 	0.76300 0.99720 0.93880 -0.02700
H 	H 	0.73620 0.06110 0.91270 0.06400
C 	C 	0.82540 0.96090 0.03310 -0.02300
H 	H 	0.84160 0.00180 0.06990 0.04700
C 	C 	0.62690 0.58680 0.65260 -0.18200
C 	C 	0.78160 0.84780 0.92150 -0.12700
C 	C 	0.78400 0.05310 0.99520 0.07400
C 	C 	0.54320 0.35970 0.59520 0.01100
H 	H 	0.51650 0.28140 0.57590 0.04800
C 	C 	0.82250 0.74860 0.95960 0.19900
C 	C 	0.84370 0.80610 0.01700 -0.13100
H 	H 	0.86950 0.74170 0.04390 0.09500
C 	C 	0.57790 0.32820 0.65010 -0.19100
H 	H 	0.57140 0.23090 0.66860 0.11300
C 	C 	0.62170 0.43630 0.67830 0.27200
Lu	Lu	0.74790 0.96307 0.72855 1.18300
N 	N 	0.51810 0.55170 0.51290 -0.07700
N 	N 	0.76460 0.19900 0.01840 -0.08100
O 	O 	0.73790 0.91210 0.82210 -0.37700
O 	O 	0.65460 0.39570 0.72940 -0.36200
O 	O 	0.71220 0.69070 0.72490 -0.46000
O 	O 	0.66840 0.85620 0.65530 -0.33700
O 	O 	0.77070 0.65070 0.84500 -0.36300
O 	O 	0.83990 0.60100 0.94590 -0.18200
