data_crystal

_cell_length_a 11.62800
_cell_length_b 15.57800
_cell_length_c 13.06500
_cell_angle_alpha 90.00000
_cell_angle_beta  90.00000
_cell_angle_gamma 90.00000

_symmetry_space_group_name_	'P 1'
_symmetry_space_group_name_H-M	'P 1'

loop_
_symmetry_equiv_pos_as_xyz
  x,y,z

loop_
_atom_site_label
_atom_site_type_symbol
_atom_site_fract_x
_atom_site_fract_y
_atom_site_fract_z
_atom_site_charge
Nd	Nd	0.75000 0.71430 0.06014 1.88600
Nd	Nd	0.25000 0.78570 0.56014 1.89600
Nd	Nd	0.25000 0.28570 0.93986 1.89100
Nd	Nd	0.75000 0.21430 0.43986 1.89500
U 	U 	0.75000 0.75393 0.34056 0.01500
U 	U 	0.25000 0.74607 0.84056 0.01500
U 	U 	0.25000 0.24607 0.65944 0.01400
U 	U 	0.75000 0.25393 0.15944 0.01500
U 	U 	-0.00000 0.00000 -0.00000 0.02600
U 	U 	-0.00000 0.50000 0.50000 0.02400
U 	U 	0.50000 0.00000 -0.00000 0.02500
U 	U 	0.50000 0.50000 0.50000 0.02500
C 	C 	0.87050 0.76950 0.71700 -0.04600
C 	C 	0.00120 0.76620 0.71710 0.36200
C 	C 	0.81010 0.80940 0.79530 -0.07000
C 	C 	0.87300 0.85440 0.88110 0.34900
C 	C 	0.87480 0.67320 0.56360 0.27900
C 	C 	0.80980 0.72860 0.63830 -0.02300
C 	C 	0.12950 0.73050 0.21700 -0.05100
C 	C 	0.99880 0.73380 0.21710 0.36600
C 	C 	0.18990 0.69060 0.29530 -0.07000
C 	C 	0.12700 0.64560 0.38110 0.34900
C 	C 	0.12520 0.82680 0.06360 0.27500
C 	C 	0.19020 0.77140 0.13830 -0.02200
C 	C 	0.37050 0.23050 0.28300 -0.05100
C 	C 	0.50120 0.23380 0.28290 0.36600
C 	C 	0.31010 0.19060 0.20470 -0.07000
C 	C 	0.37300 0.14560 0.11890 0.34900
C 	C 	0.37480 0.32680 0.43640 0.27900
C 	C 	0.30980 0.27140 0.36170 -0.02200
C 	C 	0.62950 0.26950 0.78300 -0.05100
C 	C 	0.49880 0.26620 0.78290 0.36600
C 	C 	0.68990 0.30940 0.70470 -0.06900
C 	C 	0.62700 0.35440 0.61890 0.34900
C 	C 	0.62520 0.17320 0.93640 0.27700
C 	C 	0.69020 0.22860 0.86170 -0.02100
C 	C 	0.12950 0.23050 0.28300 -0.05100
C 	C 	0.99880 0.23380 0.28290 0.36600
C 	C 	0.18990 0.19060 0.20470 -0.07000
C 	C 	0.12700 0.14560 0.11890 0.34900
C 	C 	0.12520 0.32680 0.43640 0.27900
C 	C 	0.19020 0.27140 0.36170 -0.02200
C 	C 	0.87050 0.26950 0.78300 -0.04700
C 	C 	0.00120 0.26620 0.78290 0.36200
C 	C 	0.81010 0.30940 0.70470 -0.07100
C 	C 	0.87300 0.35440 0.61890 0.35000
C 	C 	0.87480 0.17320 0.93640 0.28000
C 	C 	0.80980 0.22860 0.86170 -0.02400
C 	C 	0.62950 0.76950 0.71700 -0.05100
C 	C 	0.49880 0.76620 0.71710 0.36600
C 	C 	0.68990 0.80940 0.79530 -0.06900
C 	C 	0.62700 0.85440 0.88110 0.34800
C 	C 	0.62520 0.67320 0.56360 0.27900
C 	C 	0.69020 0.72860 0.63830 -0.02100
C 	C 	0.37050 0.73050 0.21700 -0.05100
C 	C 	0.50120 0.73380 0.21710 0.36600
C 	C 	0.31010 0.69060 0.29530 -0.07000
C 	C 	0.37300 0.64560 0.38110 0.34900
C 	C 	0.37480 0.82680 0.06360 0.27300
C 	C 	0.30980 0.77140 0.13830 -0.02100
O 	O 	0.92610 0.92240 0.85780 -0.19300
O 	O 	0.86950 0.82510 0.96900 -0.38800
O 	O 	0.93030 0.61280 0.60370 -0.17900
O 	O 	0.86820 0.68540 0.46990 -0.16600
O 	O 	0.04700 0.73800 0.79860 -0.22900
O 	O 	0.05210 0.79110 0.63880 -0.42400
O 	O 	0.07390 0.57760 0.35780 -0.19800
O 	O 	0.13050 0.67490 0.46900 -0.39500
O 	O 	0.06970 0.88720 0.10370 -0.18200
O 	O 	0.13180 0.81460 0.96990 -0.16400
O 	O 	0.95300 0.76200 0.29860 -0.22800
O 	O 	0.94790 0.70890 0.13880 -0.42400
O 	O 	0.42610 0.07760 0.14220 -0.19800
O 	O 	0.36950 0.17490 0.03100 -0.39300
O 	O 	0.43030 0.38720 0.39630 -0.18000
O 	O 	0.36820 0.31460 0.53010 -0.16700
O 	O 	0.54700 0.26200 0.20140 -0.22800
O 	O 	0.55210 0.20890 0.36120 -0.42400
O 	O 	0.57390 0.42240 0.64220 -0.19700
O 	O 	0.63050 0.32510 0.53100 -0.39400
O 	O 	0.56970 0.11280 0.89630 -0.18300
O 	O 	0.63180 0.18540 0.03010 -0.16500
O 	O 	0.45300 0.23800 0.70140 -0.22900
O 	O 	0.44790 0.29110 0.86120 -0.42300
O 	O 	0.07390 0.07760 0.14220 -0.19800
O 	O 	0.13050 0.17490 0.03100 -0.39200
O 	O 	0.06970 0.38720 0.39630 -0.18100
O 	O 	0.13180 0.31460 0.53010 -0.16700
O 	O 	0.95300 0.26200 0.20140 -0.22900
O 	O 	0.94790 0.20890 0.36120 -0.42400
O 	O 	0.92610 0.42240 0.64220 -0.19700
O 	O 	0.86950 0.32510 0.53100 -0.39400
O 	O 	0.93030 0.11280 0.89630 -0.18200
O 	O 	0.86820 0.18540 0.03010 -0.16700
O 	O 	0.04700 0.23800 0.70140 -0.22900
O 	O 	0.05210 0.29110 0.86120 -0.42400
O 	O 	0.57390 0.92240 0.85780 -0.19500
O 	O 	0.63050 0.82510 0.96900 -0.38900
O 	O 	0.56970 0.61280 0.60370 -0.18000
O 	O 	0.63180 0.68540 0.46990 -0.16700
O 	O 	0.45300 0.73800 0.79860 -0.22800
O 	O 	0.44790 0.79110 0.63880 -0.42300
O 	O 	0.42610 0.57760 0.35780 -0.19800
O 	O 	0.36950 0.67490 0.46900 -0.39400
O 	O 	0.43030 0.88720 0.10370 -0.18100
O 	O 	0.36820 0.81460 0.96990 -0.16100
O 	O 	0.54700 0.76200 0.29860 -0.22900
O 	O 	0.55210 0.70890 0.13880 -0.42400
O 	O 	0.75000 0.65970 0.26370 -0.18500
O 	O 	0.75000 0.82260 0.18840 -0.27000
O 	O 	0.25000 0.84030 0.76370 -0.18500
O 	O 	0.25000 0.67740 0.68840 -0.27000
O 	O 	0.25000 0.34030 0.73630 -0.18600
O 	O 	0.25000 0.17740 0.81160 -0.27100
O 	O 	0.75000 0.15970 0.23630 -0.18600
O 	O 	0.75000 0.32260 0.31160 -0.26900
