data_crystal

_cell_length_a 11.61820
_cell_length_b 15.58870
_cell_length_c 13.11340
_cell_angle_alpha 90.00000
_cell_angle_beta  90.00000
_cell_angle_gamma 90.00000

_symmetry_space_group_name_	'P 1'
_symmetry_space_group_name_H-M	'P 1'

loop_
_symmetry_equiv_pos_as_xyz
  x,y,z

loop_
_atom_site_label
_atom_site_type_symbol
_atom_site_fract_x
_atom_site_fract_y
_atom_site_fract_z
_atom_site_charge
Ce	Ce	0.75000 0.71365 0.06121 2.08700
Ce	Ce	0.25000 0.78635 0.56121 2.08800
Ce	Ce	0.25000 0.28635 0.93879 2.08700
Ce	Ce	0.75000 0.21365 0.43879 2.08700
U 	U 	0.75000 0.75300 0.34295 0.01200
U 	U 	0.25000 0.74700 0.84295 0.01200
U 	U 	0.25000 0.24700 0.65705 0.01200
U 	U 	0.75000 0.25300 0.15705 0.01200
U 	U 	-0.00000 0.00000 -0.00000 0.03000
U 	U 	0.00000 0.50000 0.50000 0.02500
U 	U 	0.50000 1.00000 1.00000 0.02900
U 	U 	0.50000 0.50000 0.50000 0.02600
C 	C 	0.87020 0.76860 0.71890 -0.04200
C 	C 	0.00080 0.76610 0.71950 0.35100
C 	C 	0.81020 0.80920 0.79710 -0.08000
C 	C 	0.87340 0.85500 0.88120 0.33600
C 	C 	0.87410 0.67280 0.56630 0.27100
C 	C 	0.80980 0.72770 0.64040 -0.02300
C 	C 	0.12980 0.73140 0.21890 -0.04700
C 	C 	0.99920 0.73390 0.21950 0.35600
C 	C 	0.18980 0.69080 0.29710 -0.08000
C 	C 	0.12660 0.64500 0.38120 0.33500
C 	C 	0.12590 0.82720 0.06630 0.26900
C 	C 	0.19020 0.77230 0.14040 -0.02300
C 	C 	0.37020 0.23140 0.28110 -0.04600
C 	C 	0.50080 0.23390 0.28050 0.35600
C 	C 	0.31020 0.19080 0.20290 -0.08000
C 	C 	0.37340 0.14500 0.11880 0.33500
C 	C 	0.37410 0.32720 0.43370 0.27100
C 	C 	0.30980 0.27230 0.35960 -0.02200
C 	C 	0.62980 0.26860 0.78110 -0.04700
C 	C 	0.49920 0.26610 0.78050 0.35600
C 	C 	0.68980 0.30920 0.70290 -0.07900
C 	C 	0.62660 0.35500 0.61880 0.33500
C 	C 	0.62590 0.17280 0.93370 0.26700
C 	C 	0.69020 0.22770 0.85960 -0.02100
C 	C 	0.12980 0.23140 0.28110 -0.04600
C 	C 	0.99920 0.23390 0.28050 0.35600
C 	C 	0.18980 0.19080 0.20290 -0.07900
C 	C 	0.12660 0.14500 0.11880 0.33500
C 	C 	0.12590 0.32720 0.43370 0.27100
C 	C 	0.19020 0.27230 0.35960 -0.02200
C 	C 	0.87020 0.26860 0.78110 -0.04200
C 	C 	0.00080 0.26610 0.78050 0.35100
C 	C 	0.81020 0.30920 0.70290 -0.08100
C 	C 	0.87340 0.35500 0.61880 0.33600
C 	C 	0.87410 0.17280 0.93370 0.27000
C 	C 	0.80980 0.22770 0.85960 -0.02400
C 	C 	0.62980 0.76860 0.71890 -0.04700
C 	C 	0.49920 0.76610 0.71950 0.35600
C 	C 	0.68980 0.80920 0.79710 -0.07900
C 	C 	0.62660 0.85500 0.88120 0.33500
C 	C 	0.62590 0.67280 0.56630 0.27000
C 	C 	0.69020 0.72770 0.64040 -0.02200
C 	C 	0.37020 0.73140 0.21890 -0.04700
C 	C 	0.50080 0.73390 0.21950 0.35600
C 	C 	0.31020 0.69080 0.29710 -0.08000
C 	C 	0.37340 0.64500 0.38120 0.33500
C 	C 	0.37410 0.82720 0.06630 0.26700
C 	C 	0.30980 0.77230 0.14040 -0.02200
O 	O 	0.92530 0.92320 0.85740 -0.18800
O 	O 	0.87080 0.82620 0.96970 -0.40900
O 	O 	0.93110 0.61230 0.60480 -0.17600
O 	O 	0.86810 0.68550 0.47240 -0.16100
O 	O 	0.04700 0.73860 0.80070 -0.23100
O 	O 	0.05140 0.79100 0.64100 -0.45100
O 	O 	0.07470 0.57680 0.35740 -0.19200
O 	O 	0.12920 0.67380 0.46970 -0.41400
O 	O 	0.06890 0.88770 0.10480 -0.18100
O 	O 	0.13190 0.81450 0.97240 -0.16100
O 	O 	0.95300 0.76140 0.30070 -0.23100
O 	O 	0.94860 0.70900 0.14100 -0.45200
O 	O 	0.42530 0.07680 0.14260 -0.19000
O 	O 	0.37080 0.17380 0.03030 -0.41000
O 	O 	0.43110 0.38770 0.39520 -0.17800
O 	O 	0.36810 0.31450 0.52760 -0.16100
O 	O 	0.54700 0.26140 0.19930 -0.23000
O 	O 	0.55140 0.20900 0.35900 -0.45100
O 	O 	0.57470 0.42320 0.64260 -0.19100
O 	O 	0.62920 0.32620 0.53030 -0.41300
O 	O 	0.56890 0.11230 0.89520 -0.18000
O 	O 	0.63190 0.18550 0.02760 -0.15800
O 	O 	0.45300 0.23860 0.69930 -0.23100
O 	O 	0.44860 0.29100 0.85900 -0.45200
O 	O 	0.07470 0.07680 0.14260 -0.19000
O 	O 	0.12920 0.17380 0.03030 -0.41000
O 	O 	0.06890 0.38770 0.39520 -0.17800
O 	O 	0.13190 0.31450 0.52760 -0.16200
O 	O 	0.95300 0.26140 0.19930 -0.23100
O 	O 	0.94860 0.20900 0.35900 -0.45100
O 	O 	0.92530 0.42320 0.64260 -0.19000
O 	O 	0.87080 0.32620 0.53030 -0.41300
O 	O 	0.93110 0.11230 0.89520 -0.17900
O 	O 	0.86810 0.18550 0.02760 -0.16000
O 	O 	0.04700 0.23860 0.69930 -0.23100
O 	O 	0.05140 0.29100 0.85900 -0.45300
O 	O 	0.57470 0.92320 0.85740 -0.19000
O 	O 	0.62920 0.82620 0.96970 -0.41000
O 	O 	0.56890 0.61230 0.60480 -0.17800
O 	O 	0.63190 0.68550 0.47240 -0.16100
O 	O 	0.45300 0.73860 0.80070 -0.23000
O 	O 	0.44860 0.79100 0.64100 -0.45100
O 	O 	0.42530 0.57680 0.35740 -0.19100
O 	O 	0.37080 0.67380 0.46970 -0.41300
O 	O 	0.43110 0.88770 0.10480 -0.18000
O 	O 	0.36810 0.81450 0.97240 -0.15800
O 	O 	0.54700 0.76140 0.30070 -0.23100
O 	O 	0.55140 0.70900 0.14100 -0.45200
O 	O 	0.75000 0.65890 0.26640 -0.21100
O 	O 	0.75000 0.82210 0.19230 -0.29300
O 	O 	0.25000 0.84110 0.76640 -0.21200
O 	O 	0.25000 0.67790 0.69230 -0.29200
O 	O 	0.25000 0.34110 0.73360 -0.21200
O 	O 	0.25000 0.17790 0.80770 -0.29400
O 	O 	0.75000 0.15890 0.23360 -0.21100
O 	O 	0.75000 0.32210 0.30770 -0.29200
