data_crystal

_cell_length_a 10.92300
_cell_length_b 15.42400
_cell_length_c 15.03700
_cell_angle_alpha 90.00000
_cell_angle_beta  105.67000
_cell_angle_gamma 90.00000

_symmetry_space_group_name_	'P 1'
_symmetry_space_group_name_H-M	'P 1'

loop_
_symmetry_equiv_pos_as_xyz
  x,y,z

loop_
_atom_site_label
_atom_site_type_symbol
_atom_site_fract_x
_atom_site_fract_y
_atom_site_fract_z
_atom_site_charge
Bi	Bi	0.52917 0.34960 0.03254 1.89300
Bi	Bi	0.04259 0.53525 0.15542 1.86000
K 	K 	0.78100 0.19070 0.72540 0.62800
O 	O 	0.02600 0.37600 0.15900 -0.54500
O 	O 	0.92100 0.43800 0.02900 -0.53900
O 	O 	0.52000 0.21300 0.94700 -0.40200
O 	O 	0.57300 0.08000 0.92100 -0.24400
O 	O 	0.62700 0.38400 0.91700 -0.44400
O 	O 	0.76400 0.32100 0.85200 -0.36600
O 	O 	0.71800 0.30300 0.07900 -0.39700
O 	O 	0.61800 0.49800 0.07900 -0.51400
O 	O 	0.60400 0.40700 0.18800 -0.42600
O 	O 	0.03600 0.74600 0.36600 -0.52400
O 	O 	0.06700 0.65800 0.26100 -0.52600
O 	O 	0.87300 0.62000 0.08400 -0.46300
O 	O 	0.72200 0.69500 0.12300 -0.29000
O 	O 	0.90000 0.50730 0.22240 -0.39100
C 	C 	0.95800 0.37200 0.08000 0.40600
C 	C 	0.91600 0.28200 0.04200 -0.10800
C 	C 	0.77100 0.27600 0.00800 0.08200
C 	C 	0.74100 0.17800 0.98500 -0.12000
C 	C 	0.60400 0.15600 0.95000 0.33900
C 	C 	0.72200 0.33000 0.92300 0.21900
C 	C 	0.63600 0.48100 0.16200 0.33400
C 	C 	0.69300 0.54900 0.23500 -0.06500
C 	C 	0.82200 0.58100 0.22700 0.07200
C 	C 	0.87900 0.63600 0.31200 -0.08900
C 	C 	0.00000 0.68400 0.31200 0.39700
C 	C 	0.80300 0.63600 0.13800 0.25300
Bi	Bi	0.97083 0.84960 0.46746 1.90000
Bi	Bi	0.45741 0.03525 0.34458 1.86900
K 	K 	0.71900 0.69070 0.77460 0.62700
O 	O 	0.47400 0.87600 0.34100 -0.50600
O 	O 	0.57900 0.93800 0.47100 -0.54000
O 	O 	0.98000 0.71300 0.55300 -0.39000
O 	O 	0.92700 0.58000 0.57900 -0.23600
O 	O 	0.87300 0.88400 0.58300 -0.43700
O 	O 	0.73600 0.82100 0.64800 -0.36600
O 	O 	0.78200 0.80300 0.42100 -0.39700
O 	O 	0.88200 0.99800 0.42100 -0.50500
O 	O 	0.89600 0.90700 0.31200 -0.41700
O 	O 	0.46400 0.24600 0.13400 -0.52000
O 	O 	0.43300 0.15800 0.23900 -0.52600
O 	O 	0.62700 0.12000 0.41600 -0.47400
O 	O 	0.77800 0.19500 0.37700 -0.28400
O 	O 	0.60000 0.00730 0.27760 -0.40800
C 	C 	0.54200 0.87200 0.42000 0.36300
C 	C 	0.58400 0.78200 0.45800 -0.11500
C 	C 	0.72900 0.77600 0.49200 0.08100
C 	C 	0.75900 0.67800 0.51500 -0.12100
C 	C 	0.89600 0.65600 0.55000 0.33800
C 	C 	0.77800 0.83000 0.57700 0.22100
C 	C 	0.86400 0.98100 0.33800 0.33300
C 	C 	0.80700 0.04900 0.26500 -0.05700
C 	C 	0.67800 0.08100 0.27300 0.07700
C 	C 	0.62100 0.13600 0.18800 -0.11600
C 	C 	0.50000 0.18400 0.18800 0.42800
C 	C 	0.69700 0.13600 0.36200 0.24900
Bi	Bi	0.47083 0.65040 0.96746 1.89400
Bi	Bi	0.95741 0.46475 0.84458 1.87600
K 	K 	0.21900 0.80930 0.27460 0.62400
O 	O 	0.97400 0.62400 0.84100 -0.48000
O 	O 	0.07900 0.56200 0.97100 -0.54100
O 	O 	0.48000 0.78700 0.05300 -0.40100
O 	O 	0.42700 0.92000 0.07900 -0.24800
O 	O 	0.37300 0.61600 0.08300 -0.44500
O 	O 	0.23600 0.67900 0.14800 -0.37200
O 	O 	0.28200 0.69700 0.92100 -0.40100
O 	O 	0.38200 0.50200 0.92100 -0.51400
O 	O 	0.39600 0.59300 0.81200 -0.42900
O 	O 	0.96400 0.25400 0.63400 -0.47500
O 	O 	0.93300 0.34200 0.73900 -0.48800
O 	O 	0.12700 0.38000 0.91600 -0.48600
O 	O 	0.27800 0.30500 0.87700 -0.29500
O 	O 	0.10000 0.49270 0.77760 -0.41800
C 	C 	0.04200 0.62800 0.92000 0.33500
C 	C 	0.08400 0.71800 0.95800 -0.11800
C 	C 	0.22900 0.72400 0.99200 0.08400
C 	C 	0.25900 0.82200 0.01500 -0.13100
C 	C 	0.39600 0.84400 0.05000 0.34200
C 	C 	0.27800 0.67000 0.07700 0.21900
C 	C 	0.36400 0.51900 0.83800 0.33400
C 	C 	0.30700 0.45100 0.76500 -0.06800
C 	C 	0.17800 0.41900 0.77300 0.07400
C 	C 	0.12100 0.36400 0.68800 -0.10900
C 	C 	0.00000 0.31600 0.68800 0.36300
C 	C 	0.19700 0.36400 0.86200 0.25000
Bi	Bi	0.02917 0.15040 0.53254 1.88700
Bi	Bi	0.54259 0.96475 0.65542 1.87000
K 	K 	0.28100 0.30930 0.22540 0.62400
O 	O 	0.52600 0.12400 0.65900 -0.50300
O 	O 	0.42100 0.06200 0.52900 -0.54000
O 	O 	0.02000 0.28700 0.44700 -0.41500
O 	O 	0.07300 0.42000 0.42100 -0.25800
O 	O 	0.12700 0.11600 0.41700 -0.45300
O 	O 	0.26400 0.17900 0.35200 -0.37200
O 	O 	0.21800 0.19700 0.57900 -0.40100
O 	O 	0.11800 0.00200 0.57900 -0.52300
O 	O 	0.10400 0.09300 0.68800 -0.43600
O 	O 	0.53600 0.75400 0.86600 -0.51700
O 	O 	0.56700 0.84200 0.76100 -0.52300
O 	O 	0.37300 0.88000 0.58400 -0.47800
O 	O 	0.22200 0.80500 0.62300 -0.30100
O 	O 	0.40000 0.99270 0.72240 -0.40900
C 	C 	0.45800 0.12800 0.58000 0.36300
C 	C 	0.41600 0.21800 0.54200 -0.11300
C 	C 	0.27100 0.22400 0.50800 0.08100
C 	C 	0.24100 0.32200 0.48500 -0.12600
C 	C 	0.10400 0.34400 0.45000 0.34300
C 	C 	0.22200 0.17000 0.42300 0.22300
C 	C 	0.13600 0.01900 0.66200 0.33700
C 	C 	0.19300 0.95100 0.73500 -0.07500
C 	C 	0.32200 0.91900 0.72700 0.07900
C 	C 	0.37900 0.86400 0.81200 -0.12000
C 	C 	0.50000 0.81600 0.81200 0.42900
C 	C 	0.30300 0.86400 0.63800 0.25000
