data_crystal

_cell_length_a 29.24300
_cell_length_b 10.39400
_cell_length_c 26.16400
_cell_angle_alpha 90.00000
_cell_angle_beta  114.57000
_cell_angle_gamma 90.00000

_symmetry_space_group_name_	'P 1'
_symmetry_space_group_name_H-M	'P 1'

loop_
_symmetry_equiv_pos_as_xyz
  x,y,z

loop_
_atom_site_label
_atom_site_type_symbol
_atom_site_fract_x
_atom_site_fract_y
_atom_site_fract_z
_atom_site_charge
Zn	Zn	0.82090 0.62825 0.25307 1.22900
K 	K 	0.77383 0.36425 0.31349 0.65600
O 	O 	0.10820 0.79200 0.27460 -0.14400
O 	O 	0.18610 0.73330 0.31310 -0.48100
O 	O 	0.06660 0.03400 0.28630 -0.40200
O 	O 	0.03260 0.90800 0.32850 -0.26300
O 	O 	0.20350 0.38920 0.67090 -0.42200
O 	O 	0.19600 0.20940 0.70850 -0.43700
O 	O 	0.27901 0.02000 0.70890 -0.42900
O 	O 	0.21210 0.89200 0.67880 -0.34200
O 	O 	0.00610 0.20300 0.31920 -0.45000
O 	O 	0.94480 0.33580 0.26970 -0.26800
O 	O 	0.88850 0.57080 0.30320 -0.41400
O 	O 	0.86450 0.36980 0.31130 -0.31400
C 	C 	0.17670 0.00010 0.46740 0.04100
C 	C 	0.13080 0.00780 0.42080 -0.07800
H 	H 	0.10570 0.06050 0.42250 0.07100
C 	C 	0.12120 0.93950 0.37210 0.00600
C 	C 	0.15830 0.86190 0.36830 -0.09500
C 	C 	0.20450 0.85360 0.41460 0.02900
H 	H 	0.22970 0.80210 0.41260 0.01500
C 	C 	0.21360 0.92080 0.46360 -0.10600
H 	H 	0.24460 0.91290 0.49420 0.06800
C 	C 	0.06940 0.95880 0.32500 0.31700
C 	C 	0.14900 0.78190 0.31760 0.37100
C 	C 	0.18530 0.07050 0.51970 0.02800
C 	C 	0.20480 0.00530 0.57150 -0.06300
H 	H 	0.21260 0.91840 0.57250 0.05500
C 	C 	0.21240 0.06830 0.62080 -0.01100
C 	C 	0.19980 0.19840 0.62010 -0.08000
C 	C 	0.18120 0.26320 0.56870 0.02000
H 	H 	0.17360 0.35030 0.56750 0.02700
C 	C 	0.17400 0.19970 0.51950 -0.09100
H 	H 	0.16130 0.24470 0.48570 0.06700
C 	C 	0.23380 0.98730 0.67350 0.31400
C 	C 	0.20030 0.26870 0.66960 0.35000
C 	C 	0.99670 0.47000 0.47270 0.13300
C 	C 	0.95310 0.49180 0.42370 -0.10200
H 	H 	0.92810 0.54510 0.42530 0.07600
C 	C 	0.94620 0.43530 0.37270 0.00800
C 	C 	0.98260 0.35530 0.36940 -0.04900
C 	C 	0.02560 0.33630 0.41720 0.01900
H 	H 	0.05050 0.28370 0.41530 0.04000
C 	C 	0.03340 0.39150 0.46790 -0.15500
H 	H 	0.06340 0.37650 0.49920 0.08600
C 	C 	0.89520 0.45910 0.32380 0.33000
C 	C 	0.97670 0.29570 0.31460 0.37500
O 	O 	0.10540 0.74040 0.29050 -0.13600
Zn	Zn	0.32090 0.12825 0.25307 1.23000
K 	K 	0.27383 0.86425 0.31349 0.65600
O 	O 	0.60820 0.29200 0.27460 -0.14200
O 	O 	0.68610 0.23330 0.31310 -0.48100
O 	O 	0.56660 0.53400 0.28630 -0.39600
O 	O 	0.53260 0.40800 0.32850 -0.25200
O 	O 	0.70350 0.88920 0.67090 -0.42100
O 	O 	0.69600 0.70940 0.70850 -0.43600
O 	O 	0.77901 0.52000 0.70890 -0.42900
O 	O 	0.71210 0.39200 0.67880 -0.34100
O 	O 	0.50610 0.70300 0.31920 -0.42100
O 	O 	0.44480 0.83580 0.26970 -0.26500
O 	O 	0.38850 0.07080 0.30320 -0.41900
O 	O 	0.36450 0.86980 0.31130 -0.31800
C 	C 	0.67670 0.50010 0.46740 0.04200
C 	C 	0.63080 0.50780 0.42080 -0.07900
H 	H 	0.60570 0.56050 0.42250 0.07300
C 	C 	0.62120 0.43950 0.37210 0.00900
C 	C 	0.65830 0.36190 0.36830 -0.09500
C 	C 	0.70450 0.35360 0.41460 0.02900
H 	H 	0.72970 0.30210 0.41260 0.01600
C 	C 	0.71360 0.42080 0.46360 -0.10500
H 	H 	0.74460 0.41290 0.49420 0.06900
C 	C 	0.56940 0.45880 0.32500 0.31400
C 	C 	0.64900 0.28190 0.31760 0.37100
C 	C 	0.68530 0.57050 0.51970 0.02900
C 	C 	0.70480 0.50530 0.57150 -0.06300
H 	H 	0.71260 0.41840 0.57250 0.05600
C 	C 	0.71240 0.56830 0.62080 -0.01000
C 	C 	0.69980 0.69840 0.62010 -0.08000
C 	C 	0.68120 0.76320 0.56870 0.02100
H 	H 	0.67360 0.85030 0.56750 0.02800
C 	C 	0.67400 0.69970 0.51950 -0.09100
H 	H 	0.66130 0.74470 0.48570 0.06700
C 	C 	0.73380 0.48730 0.67350 0.31500
C 	C 	0.70030 0.76870 0.66960 0.35000
C 	C 	0.49670 0.97000 0.47270 0.03100
C 	C 	0.45310 0.99180 0.42370 -0.05600
H 	H 	0.42810 0.04510 0.42530 0.05600
C 	C 	0.44620 0.93530 0.37270 -0.01500
C 	C 	0.48260 0.85530 0.36940 -0.05300
C 	C 	0.52560 0.83630 0.41720 0.01300
H 	H 	0.55050 0.78370 0.41530 0.04700
C 	C 	0.53340 0.89150 0.46790 -0.07800
H 	H 	0.56340 0.87650 0.49920 0.06100
C 	C 	0.39520 0.95910 0.32380 0.33800
C 	C 	0.47670 0.79570 0.31460 0.34000
O 	O 	0.60540 0.24040 0.29050 -0.13300
Zn	Zn	0.17910 0.62825 0.24693 1.23000
K 	K 	0.22617 0.36425 0.18651 0.65600
O 	O 	0.89180 0.79200 0.22540 -0.14100
O 	O 	0.81390 0.73330 0.18690 -0.48000
O 	O 	0.93340 0.03400 0.21370 -0.38700
O 	O 	0.96740 0.90800 0.17150 -0.24000
O 	O 	0.79650 0.38920 0.82910 -0.42100
O 	O 	0.80400 0.20940 0.79150 -0.43500
O 	O 	0.72099 0.02000 0.79110 -0.42900
O 	O 	0.78790 0.89200 0.82120 -0.34000
O 	O 	0.99390 0.20300 0.18080 -0.38900
O 	O 	0.05520 0.33580 0.23030 -0.26200
O 	O 	0.11150 0.57080 0.19680 -0.42300
O 	O 	0.13550 0.36980 0.18870 -0.32000
C 	C 	0.82330 0.00010 0.03260 0.04600
C 	C 	0.86920 0.00780 0.07920 -0.08200
H 	H 	0.89430 0.06050 0.07750 0.07600
C 	C 	0.87880 0.93950 0.12790 0.01300
C 	C 	0.84170 0.86190 0.13170 -0.09500
C 	C 	0.79550 0.85360 0.08540 0.03100
H 	H 	0.77030 0.80210 0.08740 0.01500
C 	C 	0.78640 0.92080 0.03640 -0.10700
H 	H 	0.75540 0.91290 0.00580 0.07000
C 	C 	0.93060 0.95880 0.17500 0.31000
C 	C 	0.85100 0.78190 0.18240 0.37000
C 	C 	0.81470 0.07050 0.98030 0.02800
C 	C 	0.79520 0.00530 0.92850 -0.06100
H 	H 	0.78740 0.91840 0.92750 0.05500
C 	C 	0.78760 0.06830 0.87920 -0.00900
C 	C 	0.80020 0.19840 0.87990 -0.08000
C 	C 	0.81880 0.26320 0.93130 0.02400
H 	H 	0.82640 0.35030 0.93250 0.02700
C 	C 	0.82600 0.19970 0.98050 -0.09500
H 	H 	0.83870 0.24470 0.01430 0.07100
C 	C 	0.76620 0.98730 0.82650 0.31400
C 	C 	0.79970 0.26870 0.83040 0.35100
C 	C 	0.00330 0.47000 0.02730 -0.06200
C 	C 	0.04690 0.49180 0.07630 -0.01500
H 	H 	0.07190 0.54510 0.07470 0.03900
C 	C 	0.05380 0.43530 0.12730 -0.03500
C 	C 	0.01740 0.35530 0.13060 -0.05900
C 	C 	0.97440 0.33630 0.08280 0.01000
H 	H 	0.94950 0.28370 0.08470 0.05200
C 	C 	0.96660 0.39150 0.03210 -0.00600
H 	H 	0.93660 0.37650 0.00080 0.03900
C 	C 	0.10480 0.45910 0.17620 0.34300
C 	C 	0.02330 0.29570 0.18540 0.30500
O 	O 	0.89460 0.74040 0.20950 -0.12900
Zn	Zn	0.67910 0.12825 0.24693 1.23000
K 	K 	0.72617 0.86425 0.18651 0.65600
O 	O 	0.39180 0.29200 0.22540 -0.14300
O 	O 	0.31390 0.23330 0.18690 -0.48100
O 	O 	0.43340 0.53400 0.21370 -0.39600
O 	O 	0.46740 0.40800 0.17150 -0.25200
O 	O 	0.29650 0.88920 0.82910 -0.42200
O 	O 	0.30400 0.70940 0.79150 -0.43600
O 	O 	0.22099 0.52000 0.79110 -0.43000
O 	O 	0.28790 0.39200 0.82120 -0.34100
O 	O 	0.49390 0.70300 0.18080 -0.42100
O 	O 	0.55520 0.83580 0.23030 -0.26600
O 	O 	0.61150 0.07080 0.19680 -0.41900
O 	O 	0.63550 0.86980 0.18870 -0.31700
C 	C 	0.32330 0.50010 0.03260 0.04400
C 	C 	0.36920 0.50780 0.07920 -0.08000
H 	H 	0.39430 0.56050 0.07750 0.07400
C 	C 	0.37880 0.43950 0.12790 0.01000
C 	C 	0.34170 0.36190 0.13170 -0.09600
C 	C 	0.29550 0.35360 0.08540 0.03000
H 	H 	0.27030 0.30210 0.08740 0.01500
C 	C 	0.28640 0.42080 0.03640 -0.10700
H 	H 	0.25540 0.41290 0.00580 0.06900
C 	C 	0.43060 0.45880 0.17500 0.31400
C 	C 	0.35100 0.28190 0.18240 0.37100
C 	C 	0.31470 0.57050 0.98030 0.02800
C 	C 	0.29520 0.50530 0.92850 -0.06300
H 	H 	0.28740 0.41840 0.92750 0.05500
C 	C 	0.28760 0.56830 0.87920 -0.01000
C 	C 	0.30020 0.69840 0.87990 -0.08100
C 	C 	0.31880 0.76320 0.93130 0.02300
H 	H 	0.32640 0.85030 0.93250 0.02600
C 	C 	0.32600 0.69970 0.98050 -0.09600
H 	H 	0.33870 0.74470 0.01430 0.07100
C 	C 	0.26620 0.48730 0.82650 0.31500
C 	C 	0.29970 0.76870 0.83040 0.35000
C 	C 	0.50330 0.97000 0.02730 0.03600
C 	C 	0.54690 0.99180 0.07630 -0.05800
H 	H 	0.57190 0.04510 0.07470 0.05700
C 	C 	0.55380 0.93530 0.12730 -0.01400
C 	C 	0.51740 0.85530 0.13060 -0.05400
C 	C 	0.47440 0.83630 0.08280 0.01500
H 	H 	0.44950 0.78370 0.08470 0.04600
C 	C 	0.46660 0.89150 0.03210 -0.08100
H 	H 	0.43660 0.87650 0.00080 0.06300
C 	C 	0.60480 0.95910 0.17620 0.33700
C 	C 	0.52330 0.79570 0.18540 0.34000
O 	O 	0.39460 0.24040 0.20950 -0.13300
Zn	Zn	0.17910 0.37175 0.74693 1.23000
K 	K 	0.22617 0.63575 0.68651 0.65600
O 	O 	0.89180 0.20800 0.72540 -0.14100
O 	O 	0.81390 0.26670 0.68690 -0.48000
O 	O 	0.93340 0.96600 0.71370 -0.38700
O 	O 	0.96740 0.09200 0.67150 -0.24000
O 	O 	0.79650 0.61080 0.32910 -0.42100
O 	O 	0.80400 0.79060 0.29150 -0.43500
O 	O 	0.72099 0.98000 0.29110 -0.42900
O 	O 	0.78790 0.10800 0.32120 -0.34000
O 	O 	0.99390 0.79700 0.68080 -0.38900
O 	O 	0.05520 0.66420 0.73030 -0.26200
O 	O 	0.11150 0.42920 0.69680 -0.42300
O 	O 	0.13550 0.63020 0.68870 -0.32100
C 	C 	0.82330 0.99990 0.53260 0.04400
C 	C 	0.86920 0.99220 0.57920 -0.08000
H 	H 	0.89430 0.93950 0.57750 0.07500
C 	C 	0.87880 0.06050 0.62790 0.01200
C 	C 	0.84170 0.13810 0.63170 -0.09500
C 	C 	0.79550 0.14640 0.58540 0.03000
H 	H 	0.77030 0.19790 0.58740 0.01500
C 	C 	0.78640 0.07920 0.53640 -0.10600
H 	H 	0.75540 0.08710 0.50580 0.06900
C 	C 	0.93060 0.04120 0.67500 0.31100
C 	C 	0.85100 0.21810 0.68240 0.37000
C 	C 	0.81470 0.92950 0.48030 0.02900
C 	C 	0.79520 0.99470 0.42850 -0.06200
H 	H 	0.78740 0.08160 0.42750 0.05500
C 	C 	0.78760 0.93170 0.37920 -0.01000
C 	C 	0.80020 0.80160 0.37990 -0.07900
C 	C 	0.81880 0.73680 0.43130 0.02100
H 	H 	0.82640 0.64970 0.43250 0.02900
C 	C 	0.82600 0.80030 0.48050 -0.09000
H 	H 	0.83870 0.75530 0.51430 0.06800
C 	C 	0.76620 0.01270 0.32650 0.31400
C 	C 	0.79970 0.73130 0.33040 0.35000
C 	C 	0.00330 0.53000 0.52730 -0.07000
C 	C 	0.04690 0.50820 0.57630 -0.01100
H 	H 	0.07190 0.45490 0.57470 0.03600
C 	C 	0.05380 0.56470 0.62730 -0.03700
C 	C 	0.01740 0.64470 0.63060 -0.05700
C 	C 	0.97440 0.66370 0.58280 0.00700
H 	H 	0.94950 0.71630 0.58470 0.05300
C 	C 	0.96660 0.60850 0.53210 -0.00100
H 	H 	0.93660 0.62350 0.50080 0.03700
C 	C 	0.10480 0.54090 0.67620 0.34400
C 	C 	0.02330 0.70430 0.68540 0.30500
O 	O 	0.89460 0.25960 0.70950 -0.13000
Zn	Zn	0.67910 0.87175 0.74693 1.23000
K 	K 	0.72617 0.13575 0.68651 0.65600
O 	O 	0.39180 0.70800 0.72540 -0.14300
O 	O 	0.31390 0.76670 0.68690 -0.48100
O 	O 	0.43340 0.46600 0.71370 -0.39600
O 	O 	0.46740 0.59200 0.67150 -0.25200
O 	O 	0.29650 0.11080 0.32910 -0.42100
O 	O 	0.30400 0.29060 0.29150 -0.43600
O 	O 	0.22099 0.48000 0.29110 -0.43000
O 	O 	0.28790 0.60800 0.32120 -0.34100
O 	O 	0.49390 0.29700 0.68080 -0.42100
O 	O 	0.55520 0.16420 0.73030 -0.26500
O 	O 	0.61150 0.92920 0.69680 -0.41900
O 	O 	0.63550 0.13020 0.68870 -0.31800
C 	C 	0.32330 0.49990 0.53260 0.04200
C 	C 	0.36920 0.49220 0.57920 -0.07900
H 	H 	0.39430 0.43950 0.57750 0.07300
C 	C 	0.37880 0.56050 0.62790 0.00900
C 	C 	0.34170 0.63810 0.63170 -0.09500
C 	C 	0.29550 0.64640 0.58540 0.02900
H 	H 	0.27030 0.69790 0.58740 0.01500
C 	C 	0.28640 0.57920 0.53640 -0.10500
H 	H 	0.25540 0.58710 0.50580 0.06800
C 	C 	0.43060 0.54120 0.67500 0.31400
C 	C 	0.35100 0.71810 0.68240 0.37100
C 	C 	0.31470 0.42950 0.48030 0.02900
C 	C 	0.29520 0.49470 0.42850 -0.06300
H 	H 	0.28740 0.58160 0.42750 0.05500
C 	C 	0.28760 0.43170 0.37920 -0.01100
C 	C 	0.30020 0.30160 0.37990 -0.08000
C 	C 	0.31880 0.23680 0.43130 0.02100
H 	H 	0.32640 0.14970 0.43250 0.02800
C 	C 	0.32600 0.30030 0.48050 -0.09100
H 	H 	0.33870 0.25530 0.51430 0.06700
C 	C 	0.26620 0.51270 0.32650 0.31500
C 	C 	0.29970 0.23130 0.33040 0.35000
C 	C 	0.50330 0.03000 0.52730 0.03100
C 	C 	0.54690 0.00820 0.57630 -0.05600
H 	H 	0.57190 0.95490 0.57470 0.05600
C 	C 	0.55380 0.06470 0.62730 -0.01500
C 	C 	0.51740 0.14470 0.63060 -0.05300
C 	C 	0.47440 0.16370 0.58280 0.01300
H 	H 	0.44950 0.21630 0.58470 0.04700
C 	C 	0.46660 0.10850 0.53210 -0.07800
H 	H 	0.43660 0.12350 0.50080 0.06100
C 	C 	0.60480 0.04090 0.67620 0.33700
C 	C 	0.52330 0.20430 0.68540 0.34000
O 	O 	0.39460 0.75960 0.70950 -0.13300
Zn	Zn	0.82090 0.37175 0.75307 1.23000
K 	K 	0.77383 0.63575 0.81349 0.65600
O 	O 	0.10820 0.20800 0.77460 -0.14400
O 	O 	0.18610 0.26670 0.81310 -0.48100
O 	O 	0.06660 0.96600 0.78630 -0.40200
O 	O 	0.03260 0.09200 0.82850 -0.26300
O 	O 	0.20350 0.61080 0.17090 -0.42100
O 	O 	0.19600 0.79060 0.20850 -0.43600
O 	O 	0.27901 0.98000 0.20890 -0.42900
O 	O 	0.21210 0.10800 0.17880 -0.34200
O 	O 	0.00610 0.79700 0.81920 -0.44900
O 	O 	0.94480 0.66420 0.76970 -0.26800
O 	O 	0.88850 0.42920 0.80320 -0.41400
O 	O 	0.86450 0.63020 0.81130 -0.31500
C 	C 	0.17670 0.99990 0.96740 0.03800
C 	C 	0.13080 0.99220 0.92080 -0.07700
H 	H 	0.10570 0.93950 0.92250 0.07100
C 	C 	0.12120 0.06050 0.87210 0.00500
C 	C 	0.15830 0.13810 0.86830 -0.09500
C 	C 	0.20450 0.14640 0.91460 0.02700
H 	H 	0.22970 0.19790 0.91260 0.01600
C 	C 	0.21360 0.07920 0.96360 -0.10400
H 	H 	0.24460 0.08710 0.99420 0.06700
C 	C 	0.06940 0.04120 0.82500 0.31700
C 	C 	0.14900 0.21810 0.81760 0.37100
C 	C 	0.18530 0.92950 0.01970 0.03000
C 	C 	0.20480 0.99470 0.07150 -0.06200
H 	H 	0.21260 0.08160 0.07250 0.05500
C 	C 	0.21240 0.93170 0.12080 -0.01100
C 	C 	0.19980 0.80160 0.12010 -0.07900
C 	C 	0.18120 0.73680 0.06870 0.01700
H 	H 	0.17360 0.64970 0.06750 0.02900
C 	C 	0.17400 0.80030 0.01950 -0.08600
H 	H 	0.16130 0.75530 0.98570 0.06300
C 	C 	0.23380 0.01270 0.17350 0.31400
C 	C 	0.20030 0.73130 0.16960 0.35000
C 	C 	0.99670 0.53000 0.97270 0.12400
C 	C 	0.95310 0.50820 0.92370 -0.09800
H 	H 	0.92810 0.45490 0.92530 0.07300
C 	C 	0.94620 0.56470 0.87270 0.00600
C 	C 	0.98260 0.64470 0.86940 -0.04800
C 	C 	0.02560 0.66370 0.91720 0.01600
H 	H 	0.05050 0.71630 0.91530 0.04100
C 	C 	0.03340 0.60850 0.96790 -0.15000
H 	H 	0.06340 0.62350 0.99920 0.08300
C 	C 	0.89520 0.54090 0.82380 0.33100
C 	C 	0.97670 0.70430 0.81460 0.37400
O 	O 	0.10540 0.25960 0.79050 -0.13600
Zn	Zn	0.32090 0.87175 0.75307 1.23000
K 	K 	0.27383 0.13575 0.81349 0.65600
O 	O 	0.60820 0.70800 0.77460 -0.14200
O 	O 	0.68610 0.76670 0.81310 -0.48100
O 	O 	0.56660 0.46600 0.78630 -0.39600
O 	O 	0.53260 0.59200 0.82850 -0.25300
O 	O 	0.70350 0.11080 0.17090 -0.42100
O 	O 	0.69600 0.29060 0.20850 -0.43600
O 	O 	0.77901 0.48000 0.20890 -0.42900
O 	O 	0.71210 0.60800 0.17880 -0.34100
O 	O 	0.50610 0.29700 0.81920 -0.42100
O 	O 	0.44480 0.16420 0.76970 -0.26500
O 	O 	0.38850 0.92920 0.80320 -0.41900
O 	O 	0.36450 0.13020 0.81130 -0.31800
C 	C 	0.67670 0.49990 0.96740 0.03900
C 	C 	0.63080 0.49220 0.92080 -0.07800
H 	H 	0.60570 0.43950 0.92250 0.07200
C 	C 	0.62120 0.56050 0.87210 0.00800
C 	C 	0.65830 0.63810 0.86830 -0.09400
C 	C 	0.70450 0.64640 0.91460 0.02700
H 	H 	0.72970 0.69790 0.91260 0.01600
C 	C 	0.71360 0.57920 0.96360 -0.10400
H 	H 	0.74460 0.58710 0.99420 0.06700
C 	C 	0.56940 0.54120 0.82500 0.31400
C 	C 	0.64900 0.71810 0.81760 0.37000
C 	C 	0.68530 0.42950 0.01970 0.03100
C 	C 	0.70480 0.49470 0.07150 -0.06300
H 	H 	0.71260 0.58160 0.07250 0.05600
C 	C 	0.71240 0.43170 0.12080 -0.01100
C 	C 	0.69980 0.30160 0.12010 -0.07900
C 	C 	0.68120 0.23680 0.06870 0.01800
H 	H 	0.67360 0.14970 0.06750 0.02900
C 	C 	0.67400 0.30030 0.01950 -0.08600
H 	H 	0.66130 0.25530 0.98570 0.06400
C 	C 	0.73380 0.51270 0.17350 0.31500
C 	C 	0.70030 0.23130 0.16960 0.35000
C 	C 	0.49670 0.03000 0.97270 0.02600
C 	C 	0.45310 0.00820 0.92370 -0.05300
H 	H 	0.42810 0.95490 0.92530 0.05400
C 	C 	0.44620 0.06470 0.87270 -0.01700
C 	C 	0.48260 0.14470 0.86940 -0.05200
C 	C 	0.52560 0.16370 0.91720 0.01100
H 	H 	0.55050 0.21630 0.91530 0.04700
C 	C 	0.53340 0.10850 0.96790 -0.07500
H 	H 	0.56340 0.12350 0.99920 0.05900
C 	C 	0.39520 0.04090 0.82380 0.33800
C 	C 	0.47670 0.20430 0.81460 0.33900
O 	O 	0.60540 0.75960 0.79050 -0.13300
Zn	Zn	0.00000 0.11617 0.25000 1.23700
Zn	Zn	0.50000 0.61617 0.25000 1.24600
Zn	Zn	-0.00000 0.88383 0.75000 1.23700
Zn	Zn	0.50000 0.38383 0.75000 1.24600
