data_crystal

_cell_length_a 29.19250
_cell_length_b 10.43270
_cell_length_c 26.06590
_cell_angle_alpha 90.00000
_cell_angle_beta  114.23400
_cell_angle_gamma 90.00000

_symmetry_space_group_name_	'P 1'
_symmetry_space_group_name_H-M	'P 1'

loop_
_symmetry_equiv_pos_as_xyz
  x,y,z

loop_
_atom_site_label
_atom_site_type_symbol
_atom_site_fract_x
_atom_site_fract_y
_atom_site_fract_z
_atom_site_charge
Zn	Zn	0.82105 0.62583 0.25321 1.23100
K 	K 	0.77328 0.36410 0.31356 0.65700
O 	O 	0.10660 0.78770 0.27510 -0.15300
O 	O 	0.18547 0.73010 0.31273 -0.47600
O 	O 	0.06676 0.03280 0.28620 -0.39700
O 	O 	0.03240 0.90790 0.32930 -0.26400
O 	O 	0.20350 0.38960 0.67000 -0.42000
O 	O 	0.19605 0.21070 0.70860 -0.43600
O 	O 	0.27870 0.02190 0.70913 -0.43300
O 	O 	0.21275 0.89230 0.67946 -0.34100
O 	O 	0.00487 0.19780 0.31907 -0.44900
O 	O 	0.94497 0.33430 0.27007 -0.26600
O 	O 	0.88815 0.56660 0.30267 -0.41500
O 	O 	0.86424 0.36810 0.31123 -0.31600
C 	C 	0.17630 0.99770 0.46730 0.04000
C 	C 	0.13050 0.00710 0.42110 -0.07400
H 	H 	0.10580 0.06090 0.42310 0.07000
C 	C 	0.12034 0.93840 0.37190 -0.00000
C 	C 	0.15782 0.85950 0.36830 -0.08500
C 	C 	0.20340 0.85150 0.41420 0.02300
H 	H 	0.22830 0.79920 0.41210 0.01800
C 	C 	0.21320 0.91890 0.46350 -0.10300
H 	H 	0.24420 0.91150 0.49380 0.06700
C 	C 	0.06890 0.95680 0.32510 0.31500
C 	C 	0.14790 0.77870 0.31700 0.35300
C 	C 	0.18530 0.06870 0.51970 0.02500
C 	C 	0.20495 0.00540 0.57159 -0.05700
H 	H 	0.21350 0.91930 0.57280 0.05300
C 	C 	0.21204 0.06760 0.62124 -0.01800
C 	C 	0.19940 0.19730 0.61960 -0.07100
C 	C 	0.18140 0.26210 0.56880 0.01300
H 	H 	0.17420 0.34910 0.56800 0.03000
C 	C 	0.17380 0.19880 0.51920 -0.08600
H 	H 	0.16100 0.24340 0.48530 0.06500
C 	C 	0.23448 0.98840 0.67411 0.32000
C 	C 	0.20080 0.26970 0.67010 0.34700
C 	C 	0.99640 0.47010 0.47260 0.13800
C 	C 	0.95333 0.49130 0.42410 -0.10500
H 	H 	0.92870 0.54540 0.42580 0.07700
C 	C 	0.94567 0.43420 0.37280 0.00500
C 	C 	0.98200 0.35350 0.36930 -0.04900
C 	C 	0.02480 0.33180 0.41760 0.02000
H 	H 	0.04930 0.27680 0.41600 0.04000
C 	C 	0.03230 0.38920 0.46820 -0.15900
H 	H 	0.06190 0.37330 0.49970 0.08800
C 	C 	0.89525 0.45540 0.32420 0.33400
C 	C 	0.97600 0.29190 0.31510 0.37100
O 	O 	0.10340 0.74040 0.29010 -0.11400
Zn	Zn	0.32105 0.12583 0.25321 1.22900
K 	K 	0.27328 0.86410 0.31356 0.65600
O 	O 	0.60660 0.28770 0.27510 -0.15300
O 	O 	0.68547 0.23010 0.31273 -0.47600
O 	O 	0.56676 0.53280 0.28620 -0.39200
O 	O 	0.53240 0.40790 0.32930 -0.25400
O 	O 	0.70350 0.88960 0.67000 -0.42000
O 	O 	0.69605 0.71070 0.70860 -0.43600
O 	O 	0.77870 0.52190 0.70913 -0.43400
O 	O 	0.71275 0.39230 0.67946 -0.34100
O 	O 	0.50487 0.69780 0.31907 -0.42100
O 	O 	0.44497 0.83430 0.27007 -0.26300
O 	O 	0.38815 0.06660 0.30267 -0.42100
O 	O 	0.36424 0.86810 0.31123 -0.32000
C 	C 	0.67630 0.49770 0.46730 0.04300
C 	C 	0.63050 0.50710 0.42110 -0.07600
H 	H 	0.60580 0.56090 0.42310 0.07200
C 	C 	0.62034 0.43840 0.37190 0.00300
C 	C 	0.65782 0.35950 0.36830 -0.08500
C 	C 	0.70340 0.35150 0.41420 0.02400
H 	H 	0.72830 0.29920 0.41210 0.01700
C 	C 	0.71320 0.41890 0.46350 -0.10500
H 	H 	0.74420 0.41150 0.49380 0.06900
C 	C 	0.56890 0.45680 0.32510 0.31200
C 	C 	0.64790 0.27870 0.31700 0.35300
C 	C 	0.68530 0.56870 0.51970 0.02500
C 	C 	0.70495 0.50540 0.57159 -0.05700
H 	H 	0.71350 0.41930 0.57280 0.05300
C 	C 	0.71204 0.56760 0.62124 -0.01800
C 	C 	0.69940 0.69730 0.61960 -0.07000
C 	C 	0.68140 0.76210 0.56880 0.01300
H 	H 	0.67420 0.84910 0.56800 0.03100
C 	C 	0.67380 0.69880 0.51920 -0.08500
H 	H 	0.66100 0.74340 0.48530 0.06500
C 	C 	0.73448 0.48840 0.67411 0.32100
C 	C 	0.70080 0.76970 0.67010 0.34800
C 	C 	0.49640 0.97010 0.47260 0.03100
C 	C 	0.45333 0.99130 0.42410 -0.05300
H 	H 	0.42870 0.04540 0.42580 0.05500
C 	C 	0.44567 0.93420 0.37280 -0.02100
C 	C 	0.48200 0.85350 0.36930 -0.05100
C 	C 	0.52480 0.83180 0.41760 0.01000
H 	H 	0.54930 0.77680 0.41600 0.04700
C 	C 	0.53230 0.88920 0.46820 -0.07700
H 	H 	0.56190 0.87330 0.49970 0.06100
C 	C 	0.39525 0.95540 0.32420 0.34200
C 	C 	0.47600 0.79190 0.31510 0.33500
O 	O 	0.60340 0.24040 0.29010 -0.11000
Zn	Zn	0.17895 0.62583 0.24679 1.22900
K 	K 	0.22672 0.36410 0.18644 0.65600
O 	O 	0.89340 0.78770 0.22490 -0.15200
O 	O 	0.81453 0.73010 0.18727 -0.47600
O 	O 	0.93324 0.03280 0.21380 -0.38300
O 	O 	0.96760 0.90790 0.17070 -0.24200
O 	O 	0.79650 0.38960 0.83000 -0.42000
O 	O 	0.80395 0.21070 0.79140 -0.43500
O 	O 	0.72130 0.02190 0.79087 -0.43400
O 	O 	0.78725 0.89230 0.82054 -0.34000
O 	O 	0.99513 0.19780 0.18093 -0.38900
O 	O 	0.05503 0.33430 0.22993 -0.25900
O 	O 	0.11185 0.56660 0.19733 -0.42500
O 	O 	0.13576 0.36810 0.18877 -0.32300
C 	C 	0.82370 0.99770 0.03270 0.04600
C 	C 	0.86950 0.00710 0.07890 -0.07800
H 	H 	0.89420 0.06090 0.07690 0.07500
C 	C 	0.87966 0.93840 0.12810 0.00700
C 	C 	0.84218 0.85950 0.13170 -0.08500
C 	C 	0.79660 0.85150 0.08580 0.02600
H 	H 	0.77170 0.79920 0.08790 0.01700
C 	C 	0.78680 0.91890 0.03650 -0.10600
H 	H 	0.75580 0.91150 0.00620 0.07000
C 	C 	0.93110 0.95680 0.17490 0.30900
C 	C 	0.85210 0.77870 0.18300 0.35300
C 	C 	0.81470 0.06870 0.98030 0.02400
C 	C 	0.79505 0.00540 0.92841 -0.05600
H 	H 	0.78650 0.91930 0.92720 0.05200
C 	C 	0.78796 0.06760 0.87876 -0.01700
C 	C 	0.80060 0.19730 0.88040 -0.07100
C 	C 	0.81860 0.26210 0.93120 0.01600
H 	H 	0.82580 0.34910 0.93200 0.03000
C 	C 	0.82620 0.19880 0.98080 -0.09000
H 	H 	0.83900 0.24340 0.01470 0.06900
C 	C 	0.76552 0.98840 0.82589 0.32000
C 	C 	0.79920 0.26970 0.82990 0.34800
C 	C 	0.00360 0.47010 0.02740 -0.06900
C 	C 	0.04667 0.49130 0.07590 -0.00700
H 	H 	0.07130 0.54540 0.07420 0.03600
C 	C 	0.05433 0.43420 0.12720 -0.04400
C 	C 	0.01800 0.35350 0.13070 -0.05400
C 	C 	0.97520 0.33180 0.08240 0.00400
H 	H 	0.95070 0.27680 0.08400 0.05400
C 	C 	0.96770 0.38920 0.03180 0.00100
H 	H 	0.93810 0.37330 0.00030 0.03700
C 	C 	0.10475 0.45540 0.17580 0.34900
C 	C 	0.02400 0.29190 0.18490 0.30100
O 	O 	0.89660 0.74040 0.20990 -0.10600
Zn	Zn	0.67895 0.12583 0.24679 1.22900
K 	K 	0.72672 0.86410 0.18644 0.65600
O 	O 	0.39340 0.28770 0.22490 -0.15300
O 	O 	0.31453 0.23010 0.18727 -0.47600
O 	O 	0.43324 0.53280 0.21380 -0.39200
O 	O 	0.46760 0.40790 0.17070 -0.25400
O 	O 	0.29650 0.88960 0.83000 -0.42100
O 	O 	0.30395 0.71070 0.79140 -0.43600
O 	O 	0.22130 0.52190 0.79087 -0.43500
O 	O 	0.28725 0.39230 0.82054 -0.34100
O 	O 	0.49513 0.69780 0.18093 -0.42100
O 	O 	0.55503 0.83430 0.22993 -0.26300
O 	O 	0.61185 0.06660 0.19733 -0.42100
O 	O 	0.63576 0.86810 0.18877 -0.32000
C 	C 	0.32370 0.49770 0.03270 0.04500
C 	C 	0.36950 0.50710 0.07890 -0.07800
H 	H 	0.39420 0.56090 0.07690 0.07300
C 	C 	0.37966 0.43840 0.12810 0.00400
C 	C 	0.34218 0.35950 0.13170 -0.08600
C 	C 	0.29660 0.35150 0.08580 0.02500
H 	H 	0.27170 0.29920 0.08790 0.01700
C 	C 	0.28680 0.41890 0.03650 -0.10600
H 	H 	0.25580 0.41150 0.00620 0.06900
C 	C 	0.43110 0.45680 0.17490 0.31200
C 	C 	0.35210 0.27870 0.18300 0.35300
C 	C 	0.31470 0.56870 0.98030 0.02300
C 	C 	0.29505 0.50540 0.92841 -0.05700
H 	H 	0.28650 0.41930 0.92720 0.05300
C 	C 	0.28796 0.56760 0.87876 -0.01800
C 	C 	0.30060 0.69730 0.88040 -0.07100
C 	C 	0.31860 0.76210 0.93120 0.01600
H 	H 	0.32580 0.84910 0.93200 0.03000
C 	C 	0.32620 0.69880 0.98080 -0.09000
H 	H 	0.33900 0.74340 0.01470 0.06900
C 	C 	0.26552 0.48840 0.82589 0.32100
C 	C 	0.29920 0.76970 0.82990 0.34800
C 	C 	0.50360 0.97010 0.02740 0.03600
C 	C 	0.54667 0.99130 0.07590 -0.05600
H 	H 	0.57130 0.04540 0.07420 0.05600
C 	C 	0.55433 0.93420 0.12720 -0.02000
C 	C 	0.51800 0.85350 0.13070 -0.05200
C 	C 	0.47520 0.83180 0.08240 0.01300
H 	H 	0.45070 0.77680 0.08400 0.04700
C 	C 	0.46770 0.88920 0.03180 -0.08000
H 	H 	0.43810 0.87330 0.00030 0.06300
C 	C 	0.60475 0.95540 0.17580 0.34200
C 	C 	0.52400 0.79190 0.18490 0.33600
O 	O 	0.39660 0.24040 0.20990 -0.11000
Zn	Zn	0.17895 0.37417 0.74679 1.22900
K 	K 	0.22672 0.63590 0.68644 0.65600
O 	O 	0.89340 0.21230 0.72490 -0.15200
O 	O 	0.81453 0.26990 0.68727 -0.47600
O 	O 	0.93324 0.96720 0.71380 -0.38300
O 	O 	0.96760 0.09210 0.67070 -0.24200
O 	O 	0.79650 0.61040 0.33000 -0.42000
O 	O 	0.80395 0.78930 0.29140 -0.43500
O 	O 	0.72130 0.97810 0.29087 -0.43400
O 	O 	0.78725 0.10770 0.32054 -0.34000
O 	O 	0.99513 0.80220 0.68093 -0.38900
O 	O 	0.05503 0.66570 0.72993 -0.25900
O 	O 	0.11185 0.43340 0.69733 -0.42500
O 	O 	0.13576 0.63190 0.68877 -0.32300
C 	C 	0.82370 0.00230 0.53270 0.04300
C 	C 	0.86950 0.99290 0.57890 -0.07600
H 	H 	0.89420 0.93910 0.57690 0.07400
C 	C 	0.87966 0.06160 0.62810 0.00500
C 	C 	0.84218 0.14050 0.63170 -0.08500
C 	C 	0.79660 0.14850 0.58580 0.02400
H 	H 	0.77170 0.20080 0.58790 0.01700
C 	C 	0.78680 0.08110 0.53650 -0.10500
H 	H 	0.75580 0.08850 0.50620 0.06800
C 	C 	0.93110 0.04320 0.67490 0.30900
C 	C 	0.85210 0.22130 0.68300 0.35300
C 	C 	0.81470 0.93130 0.48030 0.02500
C 	C 	0.79505 0.99460 0.42841 -0.05600
H 	H 	0.78650 0.08070 0.42720 0.05300
C 	C 	0.78796 0.93240 0.37876 -0.01700
C 	C 	0.80060 0.80270 0.38040 -0.06900
C 	C 	0.81860 0.73790 0.43120 0.01400
H 	H 	0.82580 0.65090 0.43200 0.03200
C 	C 	0.82620 0.80120 0.48080 -0.08400
H 	H 	0.83900 0.75660 0.51470 0.06600
C 	C 	0.76552 0.01160 0.32589 0.32100
C 	C 	0.79920 0.73030 0.32990 0.34800
C 	C 	0.00360 0.52990 0.52740 -0.07700
C 	C 	0.04667 0.50870 0.57590 -0.00200
H 	H 	0.07130 0.45460 0.57420 0.03400
C 	C 	0.05433 0.56580 0.62720 -0.04700
C 	C 	0.01800 0.64650 0.63070 -0.05200
C 	C 	0.97520 0.66820 0.58240 0.00000
H 	H 	0.95070 0.72320 0.58400 0.05500
C 	C 	0.96770 0.61080 0.53180 0.00600
H 	H 	0.93810 0.62670 0.50030 0.03400
C 	C 	0.10475 0.54460 0.67580 0.35000
C 	C 	0.02400 0.70810 0.68490 0.30000
O 	O 	0.89660 0.25960 0.70990 -0.10600
Zn	Zn	0.67895 0.87417 0.74679 1.22900
K 	K 	0.72672 0.13590 0.68644 0.65600
O 	O 	0.39340 0.71230 0.72490 -0.15300
O 	O 	0.31453 0.76990 0.68727 -0.47600
O 	O 	0.43324 0.46720 0.71380 -0.39200
O 	O 	0.46760 0.59210 0.67070 -0.25400
O 	O 	0.29650 0.11040 0.33000 -0.42000
O 	O 	0.30395 0.28930 0.29140 -0.43600
O 	O 	0.22130 0.47810 0.29087 -0.43500
O 	O 	0.28725 0.60770 0.32054 -0.34100
O 	O 	0.49513 0.30220 0.68093 -0.42100
O 	O 	0.55503 0.16570 0.72993 -0.26300
O 	O 	0.61185 0.93340 0.69733 -0.42100
O 	O 	0.63576 0.13190 0.68877 -0.32000
C 	C 	0.32370 0.50230 0.53270 0.04200
C 	C 	0.36950 0.49290 0.57890 -0.07600
H 	H 	0.39420 0.43910 0.57690 0.07200
C 	C 	0.37966 0.56160 0.62810 0.00300
C 	C 	0.34218 0.64050 0.63170 -0.08500
C 	C 	0.29660 0.64850 0.58580 0.02400
H 	H 	0.27170 0.70080 0.58790 0.01700
C 	C 	0.28680 0.58110 0.53650 -0.10500
H 	H 	0.25580 0.58850 0.50620 0.06800
C 	C 	0.43110 0.54320 0.67490 0.31200
C 	C 	0.35210 0.72130 0.68300 0.35300
C 	C 	0.31470 0.43130 0.48030 0.02400
C 	C 	0.29505 0.49460 0.42841 -0.05700
H 	H 	0.28650 0.58070 0.42720 0.05300
C 	C 	0.28796 0.43240 0.37876 -0.01800
C 	C 	0.30060 0.30270 0.38040 -0.07000
C 	C 	0.31860 0.23790 0.43120 0.01300
H 	H 	0.32580 0.15090 0.43200 0.03100
C 	C 	0.32620 0.30120 0.48080 -0.08500
H 	H 	0.33900 0.25660 0.51470 0.06500
C 	C 	0.26552 0.51160 0.32589 0.32100
C 	C 	0.29920 0.23030 0.32990 0.34700
C 	C 	0.50360 0.02990 0.52740 0.03000
C 	C 	0.54667 0.00870 0.57590 -0.05300
H 	H 	0.57130 0.95460 0.57420 0.05500
C 	C 	0.55433 0.06580 0.62720 -0.02100
C 	C 	0.51800 0.14650 0.63070 -0.05100
C 	C 	0.47520 0.16820 0.58240 0.01000
H 	H 	0.45070 0.22320 0.58400 0.04700
C 	C 	0.46770 0.11080 0.53180 -0.07700
H 	H 	0.43810 0.12670 0.50030 0.06100
C 	C 	0.60475 0.04460 0.67580 0.34300
C 	C 	0.52400 0.20810 0.68490 0.33500
O 	O 	0.39660 0.75960 0.70990 -0.11000
Zn	Zn	0.82105 0.37417 0.75321 1.23000
K 	K 	0.77328 0.63590 0.81356 0.65600
O 	O 	0.10660 0.21230 0.77510 -0.15400
O 	O 	0.18547 0.26990 0.81273 -0.47700
O 	O 	0.06676 0.96720 0.78620 -0.39800
O 	O 	0.03240 0.09210 0.82930 -0.26500
O 	O 	0.20350 0.61040 0.17000 -0.42000
O 	O 	0.19605 0.78930 0.20860 -0.43600
O 	O 	0.27870 0.97810 0.20913 -0.43400
O 	O 	0.21275 0.10770 0.17946 -0.34200
O 	O 	0.00487 0.80220 0.81907 -0.44900
O 	O 	0.94497 0.66570 0.77007 -0.26600
O 	O 	0.88815 0.43340 0.80267 -0.41600
O 	O 	0.86424 0.63190 0.81123 -0.31700
C 	C 	0.17630 0.00230 0.96730 0.03900
C 	C 	0.13050 0.99290 0.92110 -0.07400
H 	H 	0.10580 0.93910 0.92310 0.07000
C 	C 	0.12034 0.06160 0.87190 -0.00000
C 	C 	0.15782 0.14050 0.86830 -0.08500
C 	C 	0.20340 0.14850 0.91420 0.02200
H 	H 	0.22830 0.20080 0.91210 0.01700
C 	C 	0.21320 0.08110 0.96350 -0.10300
H 	H 	0.24420 0.08850 0.99380 0.06700
C 	C 	0.06890 0.04320 0.82510 0.31500
C 	C 	0.14790 0.22130 0.81700 0.35300
C 	C 	0.18530 0.93130 0.01970 0.02500
C 	C 	0.20495 0.99460 0.07159 -0.05700
H 	H 	0.21350 0.08070 0.07280 0.05300
C 	C 	0.21204 0.93240 0.12124 -0.01900
C 	C 	0.19940 0.80270 0.11960 -0.06900
C 	C 	0.18140 0.73790 0.06880 0.01000
H 	H 	0.17420 0.65090 0.06800 0.03200
C 	C 	0.17380 0.80120 0.01920 -0.08000
H 	H 	0.16100 0.75660 0.98530 0.06100
C 	C 	0.23448 0.01160 0.17411 0.32100
C 	C 	0.20080 0.73030 0.17010 0.34700
C 	C 	0.99640 0.52990 0.97260 0.13000
C 	C 	0.95333 0.50870 0.92410 -0.10000
H 	H 	0.92870 0.45460 0.92580 0.07400
C 	C 	0.94567 0.56580 0.87280 0.00200
C 	C 	0.98200 0.64650 0.86930 -0.04800
C 	C 	0.02480 0.66820 0.91760 0.01700
H 	H 	0.04930 0.72320 0.91600 0.04100
C 	C 	0.03230 0.61080 0.96820 -0.15300
H 	H 	0.06190 0.62670 0.99970 0.08500
C 	C 	0.89525 0.54460 0.82420 0.33400
C 	C 	0.97600 0.70810 0.81510 0.36900
O 	O 	0.10340 0.25960 0.79010 -0.11400
Zn	Zn	0.32105 0.87417 0.75321 1.22900
K 	K 	0.27328 0.13590 0.81356 0.65600
O 	O 	0.60660 0.71230 0.77510 -0.15200
O 	O 	0.68547 0.76990 0.81273 -0.47600
O 	O 	0.56676 0.46720 0.78620 -0.39300
O 	O 	0.53240 0.59210 0.82930 -0.25500
O 	O 	0.70350 0.11040 0.17000 -0.42000
O 	O 	0.69605 0.28930 0.20860 -0.43600
O 	O 	0.77870 0.47810 0.20913 -0.43400
O 	O 	0.71275 0.60770 0.17946 -0.34100
O 	O 	0.50487 0.30220 0.81907 -0.42000
O 	O 	0.44497 0.16570 0.77007 -0.26300
O 	O 	0.38815 0.93340 0.80267 -0.42100
O 	O 	0.36424 0.13190 0.81123 -0.32000
C 	C 	0.67630 0.50230 0.96730 0.03900
C 	C 	0.63050 0.49290 0.92110 -0.07500
H 	H 	0.60580 0.43910 0.92310 0.07100
C 	C 	0.62034 0.56160 0.87190 0.00200
C 	C 	0.65782 0.64050 0.86830 -0.08500
C 	C 	0.70340 0.64850 0.91420 0.02300
H 	H 	0.72830 0.70080 0.91210 0.01800
C 	C 	0.71320 0.58110 0.96350 -0.10400
H 	H 	0.74420 0.58850 0.99380 0.06700
C 	C 	0.56890 0.54320 0.82510 0.31300
C 	C 	0.64790 0.72130 0.81700 0.35300
C 	C 	0.68530 0.43130 0.01970 0.02600
C 	C 	0.70495 0.49460 0.07159 -0.05700
H 	H 	0.71350 0.58070 0.07280 0.05400
C 	C 	0.71204 0.43240 0.12124 -0.01800
C 	C 	0.69940 0.30270 0.11960 -0.06900
C 	C 	0.68140 0.23790 0.06880 0.01100
H 	H 	0.67420 0.15090 0.06800 0.03300
C 	C 	0.67380 0.30120 0.01920 -0.08000
H 	H 	0.66100 0.25660 0.98530 0.06200
C 	C 	0.73448 0.51160 0.17411 0.32100
C 	C 	0.70080 0.23030 0.17010 0.34700
C 	C 	0.49640 0.02990 0.97260 0.02500
C 	C 	0.45333 0.00870 0.92410 -0.05000
H 	H 	0.42870 0.95460 0.92580 0.05300
C 	C 	0.44567 0.06580 0.87280 -0.02300
C 	C 	0.48200 0.14650 0.86930 -0.04900
C 	C 	0.52480 0.16820 0.91760 0.00800
H 	H 	0.54930 0.22320 0.91600 0.04800
C 	C 	0.53230 0.11080 0.96820 -0.07300
H 	H 	0.56190 0.12670 0.99970 0.05900
C 	C 	0.39525 0.04460 0.82420 0.34300
C 	C 	0.47600 0.20810 0.81510 0.33500
O 	O 	0.60340 0.75960 0.79010 -0.11100
Zn	Zn	0.00000 0.11405 0.25000 1.23700
Zn	Zn	0.50000 0.61405 0.25000 1.24600
Zn	Zn	-0.00000 0.88595 0.75000 1.23700
Zn	Zn	0.50000 0.38595 0.75000 1.24600
