data_crystal

_cell_length_a 12.39370
_cell_length_b 17.29920
_cell_length_c 19.33000
_cell_angle_alpha 90.00000
_cell_angle_beta  90.00000
_cell_angle_gamma 95.75000

_symmetry_space_group_name_	'P 1'
_symmetry_space_group_name_H-M	'P 1'

loop_
_symmetry_equiv_pos_as_xyz
  x,y,z

loop_
_atom_site_label
_atom_site_type_symbol
_atom_site_fract_x
_atom_site_fract_y
_atom_site_fract_z
_atom_site_charge
Ag	Ag	0.21684 0.01669 0.30161 0.51100
Ag	Ag	0.25234 0.00409 0.45417 0.50600
Ag	Ag	0.74983 0.50669 0.49818 0.47400
Ag	Ag	0.28316 0.48331 0.80161 0.52500
Ag	Ag	0.24766 0.49591 0.95417 0.52400
Ag	Ag	0.75017 0.99331 0.99818 0.49400
Ag	Ag	0.78316 0.98331 0.69839 0.53700
Ag	Ag	0.74766 0.99591 0.54583 0.53200
Ag	Ag	0.25017 0.49331 0.50182 0.47200
Ag	Ag	0.71684 0.51669 0.19839 0.52500
Ag	Ag	0.75234 0.50409 0.04583 0.51600
Ag	Ag	0.24983 0.00669 0.00182 0.45300
Ag	Ag	0.50000 0.50000 0.50000 0.41900
Ag	Ag	-0.00000 0.00000 -0.00000 0.39300
Ag	Ag	-0.00000 0.50000 0.50000 0.41400
Ag	Ag	0.50000 0.00000 -0.00000 0.39800
H 	H 	0.44940 0.98300 0.27800 0.01000
H 	H 	0.55060 0.88260 0.25440 0.08300
H 	H 	0.29340 0.73100 0.30210 0.08100
H 	H 	0.19620 0.83560 0.32450 0.00700
H 	H 	0.63190 0.10300 0.47790 0.04100
H 	H 	0.60860 0.19720 0.56930 0.03000
H 	H 	0.76030 0.21860 0.48730 0.06600
H 	H 	0.72540 0.24960 0.37920 0.06600
H 	H 	0.53700 0.26160 0.34530 0.03200
H 	H 	0.59740 0.13360 0.36980 0.06600
H 	H 	0.46700 0.27950 0.54860 0.04600
H 	H 	0.43050 0.31030 0.43480 0.02700
H 	H 	0.74440 0.68620 0.24180 0.01600
H 	H 	0.64810 0.78720 0.27430 0.07700
H 	H 	0.36960 0.64930 0.24000 0.07100
H 	H 	0.47510 0.55050 0.20800 0.01800
H 	H 	0.86560 0.90670 0.46040 0.04200
H 	H 	0.87310 0.79430 0.38320 0.04100
H 	H 	0.73660 0.79460 0.47580 0.05700
H 	H 	0.78730 0.78080 0.58530 0.05900
H 	H 	0.98000 0.77540 0.60840 0.03500
H 	H 	0.92140 0.89790 0.56900 0.03700
H 	H 	0.01710 0.71650 0.40750 0.02900
H 	H 	0.07000 0.70590 0.52280 0.04000
H 	H 	0.05060 0.51700 0.77800 -0.00700
H 	H 	0.94940 0.61740 0.75440 0.09300
H 	H 	0.20660 0.76900 0.80210 0.08600
H 	H 	0.30380 0.66440 0.82450 0.00400
H 	H 	0.86810 0.39700 0.97790 0.04000
H 	H 	0.89140 0.30280 0.06930 0.04700
H 	H 	0.73970 0.28140 0.98730 0.05400
H 	H 	0.77460 0.25040 0.87920 0.07300
H 	H 	0.96300 0.23840 0.84530 0.02600
H 	H 	0.90260 0.36640 0.86980 0.07400
H 	H 	0.03300 0.22050 0.04860 0.02100
H 	H 	0.06950 0.18970 0.93480 0.04100
H 	H 	0.75560 0.81380 0.74180 0.01800
H 	H 	0.85190 0.71280 0.77430 0.07200
H 	H 	0.13040 0.85070 0.74000 0.07500
H 	H 	0.02490 0.94950 0.70800 0.01700
H 	H 	0.63440 0.59330 0.96040 0.04000
H 	H 	0.62690 0.70570 0.88320 0.03900
H 	H 	0.76340 0.70540 0.97580 0.05800
H 	H 	0.71270 0.71920 0.08530 0.06100
H 	H 	0.52000 0.72460 0.10840 0.03400
H 	H 	0.57860 0.60210 0.06900 0.03600
H 	H 	0.48290 0.78350 0.90750 0.03900
H 	H 	0.43000 0.79410 0.02280 0.04000
H 	H 	0.55060 0.01700 0.72200 -0.00800
H 	H 	0.44940 0.11740 0.74560 0.07900
H 	H 	0.70660 0.26900 0.69790 0.08200
H 	H 	0.80380 0.16440 0.67550 0.00500
H 	H 	0.36810 0.89700 0.52210 0.05200
H 	H 	0.39140 0.80280 0.43070 0.03200
H 	H 	0.23970 0.78140 0.51270 0.06600
H 	H 	0.27460 0.75040 0.62080 0.06600
H 	H 	0.46300 0.73840 0.65470 0.03300
H 	H 	0.40260 0.86640 0.63020 0.07400
H 	H 	0.53300 0.72050 0.45140 0.04600
H 	H 	0.56950 0.68970 0.56520 0.02700
H 	H 	0.25560 0.31380 0.75820 0.01500
H 	H 	0.35190 0.21280 0.72570 0.07400
H 	H 	0.63040 0.35070 0.76000 0.07100
H 	H 	0.52490 0.44950 0.79200 0.01900
H 	H 	0.13440 0.09330 0.53960 0.04300
H 	H 	0.12690 0.20570 0.61680 0.02100
H 	H 	0.26340 0.20540 0.52420 0.06300
H 	H 	0.21270 0.21920 0.41470 0.05300
H 	H 	0.02000 0.22460 0.39160 0.04400
H 	H 	0.07860 0.10210 0.43100 0.02600
H 	H 	0.98290 0.28350 0.59250 0.07600
H 	H 	0.93000 0.29410 0.47720 0.01000
H 	H 	0.94940 0.48300 0.22200 0.00600
H 	H 	0.05060 0.38260 0.24560 0.06600
H 	H 	0.79340 0.23100 0.19790 0.07800
H 	H 	0.69620 0.33560 0.17550 0.00600
H 	H 	0.13190 0.60300 0.02210 0.04800
H 	H 	0.10860 0.69720 0.93070 0.02100
H 	H 	0.26030 0.71860 0.01270 0.07200
H 	H 	0.22540 0.74960 0.12080 0.06200
H 	H 	0.03700 0.76160 0.15470 0.03600
H 	H 	0.09740 0.63360 0.13020 0.06700
H 	H 	0.96700 0.77950 0.95140 0.06200
H 	H 	0.93050 0.81030 0.06520 0.02200
H 	H 	0.24440 0.18620 0.25820 0.01400
H 	H 	0.14810 0.28720 0.22570 0.07900
H 	H 	0.86960 0.14930 0.26000 0.06200
H 	H 	0.97510 0.05050 0.29200 0.03200
H 	H 	0.36560 0.40670 0.03960 0.04500
H 	H 	0.37310 0.29430 0.11680 0.02500
H 	H 	0.23660 0.29460 0.02420 0.06200
H 	H 	0.28730 0.28080 0.91470 0.05000
H 	H 	0.48000 0.27540 0.89160 0.04600
H 	H 	0.42140 0.39790 0.93100 0.02700
H 	H 	0.51710 0.21650 0.09250 0.06000
H 	H 	0.57000 0.20590 0.97720 0.01500
C 	C 	0.41670 0.93130 0.28280 0.06900
C 	C 	0.47730 0.87160 0.26870 -0.12500
C 	C 	0.43320 0.79560 0.27500 0.06100
C 	C 	0.32670 0.78250 0.29650 -0.12700
C 	C 	0.26950 0.84540 0.30990 0.06800
C 	C 	0.46730 0.08970 0.49960 0.21100
C 	C 	0.57010 0.13590 0.47630 -0.09300
C 	C 	0.59660 0.20960 0.51950 0.02300
C 	C 	0.69960 0.25250 0.48610 -0.10500
C 	C 	0.73480 0.32960 0.51940 0.20300
C 	C 	0.69690 0.36180 0.41010 0.19800
C 	C 	0.67500 0.27340 0.41150 -0.09800
C 	C 	0.55620 0.24580 0.39320 0.02300
C 	C 	0.54570 0.15660 0.40170 -0.10400
C 	C 	0.43200 0.11820 0.39010 0.22100
C 	C 	0.50610 0.26130 0.51060 -0.06100
C 	C 	0.48610 0.27870 0.44680 -0.05100
C 	C 	0.66740 0.67850 0.24150 0.06100
C 	C 	0.61060 0.73910 0.26040 -0.10600
C 	C 	0.49850 0.73020 0.25910 0.04200
C 	C 	0.44650 0.65820 0.24030 -0.10900
C 	C 	0.51050 0.59930 0.22170 0.05400
C 	C 	0.02620 0.91590 0.42670 0.21000
C 	C 	0.92800 0.87430 0.46260 -0.08700
C 	C 	0.89380 0.79210 0.43310 0.00600
C 	C 	0.79650 0.76010 0.47880 -0.09300
C 	C 	0.75570 0.67710 0.45840 0.19900
C 	C 	0.81550 0.66500 0.56670 0.20400
C 	C 	0.83260 0.75200 0.55330 -0.10600
C 	C 	0.95330 0.78170 0.56010 0.03400
C 	C 	0.96530 0.86710 0.53790 -0.09600
C 	C 	0.08120 0.90280 0.53640 0.21000
C 	C 	0.98420 0.74210 0.44430 -0.02100
C 	C 	0.01410 0.73640 0.50900 -0.08300
C 	C 	0.08330 0.56870 0.78280 0.07900
C 	C 	0.02270 0.62840 0.76870 -0.15100
C 	C 	0.06680 0.70440 0.77500 0.07300
C 	C 	0.17330 0.71750 0.79650 -0.13600
C 	C 	0.23050 0.65460 0.80990 0.07200
C 	C 	0.03270 0.41030 0.99960 0.21600
C 	C 	0.92990 0.36410 0.97630 -0.05700
C 	C 	0.90340 0.29040 0.01950 -0.03700
C 	C 	0.80040 0.24750 0.98610 -0.05000
C 	C 	0.76520 0.17040 0.01940 0.16300
C 	C 	0.80310 0.13820 0.91010 0.20700
C 	C 	0.82500 0.22660 0.91150 -0.12100
C 	C 	0.94380 0.25420 0.89320 0.05500
C 	C 	0.95430 0.34340 0.90170 -0.11400
C 	C 	0.06800 0.38180 0.89010 0.22100
C 	C 	0.99390 0.23870 0.01060 -0.01600
C 	C 	0.01390 0.22130 0.94680 -0.08900
C 	C 	0.83260 0.82150 0.74150 0.05700
C 	C 	0.88940 0.76090 0.76040 -0.09400
C 	C 	0.00150 0.76980 0.75910 0.03000
C 	C 	0.05350 0.84180 0.74030 -0.11500
C 	C 	0.98950 0.90070 0.72170 0.07000
C 	C 	0.47380 0.58410 0.92670 0.21200
C 	C 	0.57200 0.62570 0.96260 -0.08100
C 	C 	0.60620 0.70790 0.93310 0.00700
C 	C 	0.70350 0.73990 0.97880 -0.08400
C 	C 	0.74430 0.82290 0.95840 0.20700
C 	C 	0.68450 0.83500 0.06670 0.20600
C 	C 	0.66740 0.74800 0.05330 -0.11600
C 	C 	0.54670 0.71830 0.06010 0.03200
C 	C 	0.53470 0.63290 0.03790 -0.10900
C 	C 	0.41880 0.59720 0.03640 0.20300
C 	C 	0.51580 0.75790 0.94430 -0.02800
C 	C 	0.48590 0.76360 0.00900 -0.07800
C 	C 	0.58330 0.06870 0.71720 0.06700
C 	C 	0.52270 0.12840 0.73130 -0.12800
C 	C 	0.56680 0.20440 0.72500 0.06100
C 	C 	0.67330 0.21750 0.70350 -0.12800
C 	C 	0.73050 0.15460 0.69010 0.06700
C 	C 	0.53270 0.91030 0.50040 0.21800
C 	C 	0.42990 0.86410 0.52370 -0.09400
C 	C 	0.40340 0.79040 0.48050 0.02400
C 	C 	0.30040 0.74750 0.51390 -0.10600
C 	C 	0.26520 0.67040 0.48060 0.20200
C 	C 	0.30310 0.63820 0.58990 0.19700
C 	C 	0.32500 0.72660 0.58850 -0.09800
C 	C 	0.44380 0.75420 0.60680 0.02300
C 	C 	0.45430 0.84340 0.59830 -0.10400
C 	C 	0.56800 0.88180 0.60990 0.22700
C 	C 	0.49390 0.73870 0.48940 -0.06200
C 	C 	0.51390 0.72130 0.55320 -0.05100
C 	C 	0.33260 0.32150 0.75850 0.06000
C 	C 	0.38940 0.26090 0.73960 -0.10600
C 	C 	0.50150 0.26980 0.74090 0.04100
C 	C 	0.55350 0.34180 0.75970 -0.11000
C 	C 	0.48950 0.40070 0.77830 0.05400
C 	C 	0.97380 0.08410 0.57330 0.22800
C 	C 	0.07200 0.12570 0.53740 -0.12400
C 	C 	0.10620 0.20790 0.56690 0.05700
C 	C 	0.20350 0.23990 0.52120 -0.11600
C 	C 	0.24430 0.32290 0.54160 0.20500
C 	C 	0.18450 0.33500 0.43330 0.19500
C 	C 	0.16740 0.24800 0.44670 -0.08300
C 	C 	0.04670 0.21830 0.43990 -0.01800
C 	C 	0.03470 0.13290 0.46210 -0.08600
C 	C 	0.91880 0.09720 0.46360 0.21300
C 	C 	0.01580 0.25790 0.55570 -0.12900
C 	C 	0.98590 0.26360 0.49100 0.01600
C 	C 	0.91670 0.43130 0.21720 0.05600
C 	C 	0.97730 0.37160 0.23130 -0.10100
C 	C 	0.93320 0.29560 0.22500 0.05000
C 	C 	0.82670 0.28250 0.20350 -0.12100
C 	C 	0.76950 0.34540 0.19010 0.06200
C 	C 	0.96730 0.58970 0.00040 0.20800
C 	C 	0.07010 0.63590 0.02370 -0.11600
C 	C 	0.09660 0.70960 0.98050 0.06100
C 	C 	0.19960 0.75250 0.01390 -0.13800
C 	C 	0.23480 0.82960 0.98060 0.22700
C 	C 	0.19690 0.86180 0.08990 0.19400
C 	C 	0.17500 0.77340 0.08850 -0.08300
C 	C 	0.05620 0.74580 0.10680 0.00600
C 	C 	0.04570 0.65660 0.09830 -0.09900
C 	C 	0.93200 0.61820 0.10990 0.22700
C 	C 	0.00610 0.76130 0.98940 -0.08700
C 	C 	0.98610 0.77870 0.05320 -0.03000
C 	C 	0.16740 0.17850 0.25850 0.06300
C 	C 	0.11060 0.23910 0.23960 -0.12000
C 	C 	0.99850 0.23020 0.24090 0.05100
C 	C 	0.94650 0.15820 0.25970 -0.08800
C 	C 	0.01050 0.09930 0.27830 0.01500
C 	C 	0.52620 0.41590 0.07330 0.22000
C 	C 	0.42800 0.37430 0.03740 -0.12700
C 	C 	0.39380 0.29210 0.06690 0.05200
C 	C 	0.29650 0.26010 0.02120 -0.12700
C 	C 	0.25570 0.17710 0.04160 0.19100
C 	C 	0.31550 0.16500 0.93330 0.19500
C 	C 	0.33260 0.25200 0.94670 -0.06900
C 	C 	0.45330 0.28170 0.93990 -0.01400
C 	C 	0.46530 0.36710 0.96210 -0.06600
C 	C 	0.58120 0.40280 0.96360 0.21500
C 	C 	0.48420 0.24210 0.05570 -0.11200
C 	C 	0.51410 0.23640 0.99100 0.00600
N 	N 	0.31200 0.91980 0.30340 -0.19200
N 	N 	0.39250 0.08030 0.44740 -0.24800
N 	N 	0.72930 0.38970 0.47300 -0.26600
N 	N 	0.61890 0.60830 0.22240 -0.18900
N 	N 	0.10920 0.93300 0.47270 -0.23600
N 	N 	0.76950 0.62700 0.51080 -0.26300
N 	N 	0.18800 0.58020 0.80340 -0.20300
N 	N 	0.10750 0.41970 0.94740 -0.24400
N 	N 	0.77070 0.11030 0.97300 -0.25700
N 	N 	0.88110 0.89170 0.72240 -0.18800
N 	N 	0.39080 0.56700 0.97270 -0.23700
N 	N 	0.73050 0.87300 0.01080 -0.26700
N 	N 	0.68800 0.08020 0.69660 -0.20600
N 	N 	0.60750 0.91970 0.55260 -0.24300
N 	N 	0.27070 0.61030 0.52700 -0.26700
N 	N 	0.38110 0.39170 0.77760 -0.18900
N 	N 	0.89080 0.06700 0.52730 -0.25300
N 	N 	0.23050 0.37300 0.48920 -0.26400
N 	N 	0.81200 0.41980 0.19660 -0.19700
N 	N 	0.89250 0.58030 0.05260 -0.24600
N 	N 	0.22930 0.88970 0.02700 -0.26400
N 	N 	0.11890 0.10830 0.27760 -0.18700
N 	N 	0.60920 0.43300 0.02730 -0.25300
N 	N 	0.26950 0.12700 0.98920 -0.25200
O 	O 	0.68110 0.40160 0.35900 -0.28400
O 	O 	0.76540 0.33890 0.57860 -0.28200
O 	O 	0.45280 0.06200 0.55750 -0.26500
O 	O 	0.38290 0.12130 0.33530 -0.30700
O 	O 	0.14290 0.90480 0.58580 -0.24700
O 	O 	0.03140 0.93390 0.36550 -0.27700
O 	O 	0.71800 0.65810 0.40160 -0.27500
O 	O 	0.84080 0.63450 0.62060 -0.27500
O 	O 	0.81890 0.09840 0.85900 -0.28900
O 	O 	0.73460 0.16110 0.07860 -0.27800
O 	O 	0.04720 0.43800 0.05750 -0.27000
O 	O 	0.11710 0.37870 0.83530 -0.30300
O 	O 	0.35710 0.59520 0.08580 -0.25300
O 	O 	0.46860 0.56610 0.86550 -0.28700
O 	O 	0.78200 0.84190 0.90160 -0.27100
O 	O 	0.65920 0.86550 0.12060 -0.27100
O 	O 	0.31890 0.59840 0.64100 -0.28500
O 	O 	0.23460 0.66110 0.42140 -0.28200
O 	O 	0.54720 0.93800 0.44250 -0.24800
O 	O 	0.61710 0.87870 0.66470 -0.29800
O 	O 	0.85710 0.09520 0.41420 -0.25800
O 	O 	0.96860 0.06610 0.63450 -0.29700
O 	O 	0.28200 0.34190 0.59840 -0.27800
O 	O 	0.15920 0.36550 0.37940 -0.27600
O 	O 	0.18110 0.90160 0.14100 -0.27300
O 	O 	0.26540 0.83890 0.92140 -0.28000
O 	O 	0.95280 0.56200 0.94250 -0.24300
O 	O 	0.88290 0.62130 0.16470 -0.30200
O 	O 	0.64290 0.40480 0.91420 -0.25200
O 	O 	0.53140 0.43390 0.13450 -0.29000
O 	O 	0.21800 0.15810 0.09840 -0.27900
O 	O 	0.34080 0.13450 0.87940 -0.27600
