data_crystal

_cell_length_a 9.79090
_cell_length_b 17.29870
_cell_length_c 14.59290
_cell_angle_alpha 90.00000
_cell_angle_beta  97.13220
_cell_angle_gamma 90.00000

_symmetry_space_group_name_	'P 1'
_symmetry_space_group_name_H-M	'P 1'

loop_
_symmetry_equiv_pos_as_xyz
  x,y,z

loop_
_atom_site_label
_atom_site_type_symbol
_atom_site_fract_x
_atom_site_fract_y
_atom_site_fract_z
_atom_site_charge
Tb	Tb	0.50465 0.37811 0.34159 1.89700
Tb	Tb	0.01903 0.16358 0.41219 2.00800
O 	O 	0.39010 0.50080 0.29960 -0.36000
O 	O 	0.41880 0.61710 0.23690 -0.35300
O 	O 	0.62580 0.45300 0.23990 -0.39600
O 	O 	0.63700 0.56380 0.16360 -0.35800
O 	O 	0.25590 0.36610 0.33960 -0.36600
O 	O 	0.08840 0.29200 0.38220 -0.38700
O 	O 	0.43500 0.24970 0.37220 -0.39700
O 	O 	0.26370 0.17360 0.40740 -0.39800
O 	O 	0.84970 0.22010 0.29700 -0.37100
O 	O 	0.66780 0.29970 0.27290 -0.40800
O 	O 	0.85320 0.23850 0.47830 -0.38200
O 	O 	0.68300 0.32620 0.45330 -0.36100
O 	O 	0.42750 0.40880 0.48880 -0.36100
O 	O 	0.37410 0.50950 0.57390 -0.33200
O 	O 	0.91360 0.08440 0.52350 -0.38000
O 	O 	0.87130 0.96210 0.55870 -0.38600
O 	O 	0.13100 0.19490 0.56430 -0.88800
C 	C 	0.45230 0.54880 0.25460 0.25900
C 	C 	0.58280 0.51850 0.21660 0.26800
C 	C 	0.20950 0.30490 0.36670 0.27200
C 	C 	0.31290 0.23560 0.38360 0.28200
C 	C 	0.76020 0.26510 0.32250 0.29100
C 	C 	0.76710 0.27740 0.42800 0.27200
C 	C 	0.44220 0.47580 0.51810 0.27200
C 	C 	0.93830 0.01340 0.52420 0.26800
H 	H 	0.10700 0.18200 0.61500 0.44100
H 	H 	0.19100 0.18600 0.52900 0.35200
Tb	Tb	0.99535 0.87811 0.15841 1.87900
Tb	Tb	0.48097 0.66358 0.08781 2.01400
O 	O 	0.10990 0.00080 0.20040 -0.35800
O 	O 	0.08120 0.11710 0.26310 -0.35100
O 	O 	0.87420 0.95300 0.26010 -0.40000
O 	O 	0.86300 0.06380 0.33640 -0.35700
O 	O 	0.24410 0.86610 0.16040 -0.36300
O 	O 	0.41160 0.79200 0.11780 -0.38700
O 	O 	0.06500 0.74970 0.12780 -0.39000
O 	O 	0.23630 0.67360 0.09260 -0.39600
O 	O 	0.65030 0.72010 0.20300 -0.37200
O 	O 	0.83220 0.79970 0.22710 -0.40700
O 	O 	0.64680 0.73850 0.02170 -0.38500
O 	O 	0.81700 0.82620 0.04670 -0.36300
O 	O 	0.07250 0.90880 0.01120 -0.35100
O 	O 	0.12590 0.00950 0.92610 -0.33600
O 	O 	0.58640 0.58440 0.97650 -0.38100
O 	O 	0.62870 0.46210 0.94130 -0.38000
O 	O 	0.36900 0.69490 0.93570 -0.88700
C 	C 	0.04770 0.04880 0.24540 0.25500
C 	C 	0.91720 0.01850 0.28340 0.27600
C 	C 	0.29050 0.80490 0.13330 0.27200
C 	C 	0.18710 0.73560 0.11640 0.28100
C 	C 	0.73980 0.76510 0.17750 0.29100
C 	C 	0.73290 0.77740 0.07200 0.27300
C 	C 	0.05780 0.97580 0.98190 0.27000
C 	C 	0.56170 0.51340 0.97580 0.26200
H 	H 	0.39300 0.68200 0.88500 0.44100
H 	H 	0.30900 0.68600 0.97100 0.35000
Tb	Tb	0.49535 0.62189 0.65841 1.89800
Tb	Tb	0.98097 0.83642 0.58781 2.00900
O 	O 	0.60990 0.49920 0.70040 -0.35900
O 	O 	0.58120 0.38290 0.76310 -0.35200
O 	O 	0.37420 0.54700 0.76010 -0.39600
O 	O 	0.36300 0.43620 0.83640 -0.35800
O 	O 	0.74410 0.63390 0.66040 -0.36600
O 	O 	0.91160 0.70800 0.61780 -0.38700
O 	O 	0.56500 0.75030 0.62780 -0.39700
O 	O 	0.73630 0.82640 0.59260 -0.39800
O 	O 	0.15030 0.77990 0.70300 -0.37100
O 	O 	0.33220 0.70030 0.72710 -0.40800
O 	O 	0.14680 0.76150 0.52170 -0.38200
O 	O 	0.31700 0.67380 0.54670 -0.36100
O 	O 	0.57250 0.59120 0.51120 -0.36100
O 	O 	0.62590 0.49050 0.42610 -0.33200
O 	O 	0.08640 0.91560 0.47650 -0.38000
O 	O 	0.12870 0.03790 0.44130 -0.38600
O 	O 	0.86900 0.80510 0.43570 -0.88800
C 	C 	0.54770 0.45120 0.74540 0.25900
C 	C 	0.41720 0.48150 0.78340 0.26800
C 	C 	0.79050 0.69510 0.63330 0.27200
C 	C 	0.68710 0.76440 0.61640 0.28200
C 	C 	0.23980 0.73490 0.67750 0.29100
C 	C 	0.23290 0.72260 0.57200 0.27200
C 	C 	0.55780 0.52420 0.48190 0.27200
C 	C 	0.06170 0.98660 0.47580 0.26800
H 	H 	0.89300 0.81800 0.38500 0.44100
H 	H 	0.80900 0.81400 0.47100 0.35200
Tb	Tb	0.00465 0.12189 0.84159 1.87900
Tb	Tb	0.51903 0.33642 0.91219 2.01400
O 	O 	0.89010 0.99920 0.79960 -0.35800
O 	O 	0.91880 0.88290 0.73690 -0.35100
O 	O 	0.12580 0.04700 0.73990 -0.40000
O 	O 	0.13700 0.93620 0.66360 -0.35700
O 	O 	0.75590 0.13390 0.83960 -0.36300
O 	O 	0.58840 0.20800 0.88220 -0.38700
O 	O 	0.93500 0.25030 0.87220 -0.39000
O 	O 	0.76370 0.32640 0.90740 -0.39600
O 	O 	0.34970 0.27990 0.79700 -0.37200
O 	O 	0.16780 0.20030 0.77290 -0.40700
O 	O 	0.35320 0.26150 0.97830 -0.38500
O 	O 	0.18300 0.17380 0.95330 -0.36300
O 	O 	0.92750 0.09120 0.98880 -0.35100
O 	O 	0.87410 0.99050 0.07390 -0.33600
O 	O 	0.41360 0.41560 0.02350 -0.38100
O 	O 	0.37130 0.53790 0.05870 -0.38000
O 	O 	0.63100 0.30510 0.06430 -0.88700
C 	C 	0.95230 0.95120 0.75460 0.25500
C 	C 	0.08280 0.98150 0.71660 0.27600
C 	C 	0.70950 0.19510 0.86670 0.27200
C 	C 	0.81290 0.26440 0.88360 0.28100
C 	C 	0.26020 0.23490 0.82250 0.29100
C 	C 	0.26710 0.22260 0.92800 0.27300
C 	C 	0.94220 0.02420 0.01810 0.27000
C 	C 	0.43830 0.48660 0.02420 0.26200
H 	H 	0.60700 0.31800 0.11500 0.44100
H 	H 	0.69100 0.31400 0.02900 0.35000
