data_crystal

_cell_length_a 10.23550
_cell_length_b 10.23550
_cell_length_c 28.10500
_cell_angle_alpha 90.00000
_cell_angle_beta  90.00000
_cell_angle_gamma 90.00000

_symmetry_space_group_name_	'P 1'
_symmetry_space_group_name_H-M	'P 1'

loop_
_symmetry_equiv_pos_as_xyz
  x,y,z

loop_
_atom_site_label
_atom_site_type_symbol
_atom_site_fract_x
_atom_site_fract_y
_atom_site_fract_z
_atom_site_charge
Ag	Ag	0.60614 0.19679 0.23360 0.50600
N 	N 	0.81060 0.03620 0.02303 -0.19400
N 	N 	0.75190 0.04390 0.22032 -0.18400
O 	O 	0.78770 0.25960 0.16550 -0.28300
C 	C 	0.79220 0.04600 0.06988 0.01900
H 	H 	0.73930 0.98460 0.08490 0.01500
C 	C 	0.84850 0.14360 0.09707 -0.05500
C 	C 	0.92910 0.23360 0.07572 0.00500
H 	H 	0.96670 0.30080 0.09330 0.02600
C 	C 	0.95290 0.22170 0.02730 -0.10400
H 	H 	0.00880 0.27960 0.01190 0.05200
C 	C 	0.89280 0.12340 0.00247 0.04800
H 	H 	0.90910 0.11620 0.97000 -0.00600
C 	C 	0.81510 0.15510 0.14851 0.12200
C 	C 	0.82140 0.03660 0.17966 0.04200
C 	C 	0.90300 0.93430 0.16966 -0.10600
H 	H 	0.94590 0.93020 0.14050 0.05900
C 	C 	0.92140 0.83640 0.20342 0.03400
H 	H 	0.97760 0.76680 0.19770 0.00500
C 	C 	0.85410 0.84610 0.24511 -0.11600
H 	H 	0.86610 0.78360 0.26880 0.05700
C 	C 	0.76850 0.94800 0.25235 0.06100
H 	H 	0.72050 0.95040 0.28040 -0.00600
Ag	Ag	0.39386 0.80321 0.73360 0.50700
N 	N 	0.18940 0.96380 0.52303 -0.19300
N 	N 	0.24810 0.95610 0.72032 -0.18300
O 	O 	0.21230 0.74040 0.66550 -0.28200
C 	C 	0.20780 0.95400 0.56988 0.02000
H 	H 	0.26070 0.01540 0.58490 0.01600
C 	C 	0.15150 0.85640 0.59707 -0.05500
C 	C 	0.07090 0.76640 0.57572 0.00500
H 	H 	0.03330 0.69920 0.59330 0.02600
C 	C 	0.04710 0.77830 0.52730 -0.10400
H 	H 	0.99120 0.72040 0.51190 0.05200
C 	C 	0.10720 0.87660 0.50247 0.04700
H 	H 	0.09090 0.88380 0.47000 -0.00600
C 	C 	0.18490 0.84490 0.64851 0.12200
C 	C 	0.17860 0.96340 0.67966 0.04200
C 	C 	0.09700 0.06570 0.66966 -0.10600
H 	H 	0.05410 0.06980 0.64050 0.05900
C 	C 	0.07860 0.16360 0.70342 0.03400
H 	H 	0.02240 0.23320 0.69770 0.00500
C 	C 	0.14590 0.15390 0.74511 -0.11600
H 	H 	0.13390 0.21640 0.76880 0.05700
C 	C 	0.23150 0.05200 0.75235 0.06100
H 	H 	0.27950 0.04960 0.78040 -0.00600
Ag	Ag	0.30321 0.10614 0.48360 0.50600
N 	N 	0.46380 0.31060 0.27303 -0.19300
N 	N 	0.45610 0.25190 0.47032 -0.18300
O 	O 	0.24040 0.28770 0.41550 -0.28300
C 	C 	0.45400 0.29220 0.31988 0.01700
H 	H 	0.51540 0.23930 0.33490 0.01800
C 	C 	0.35640 0.34850 0.34707 -0.05500
C 	C 	0.26640 0.42910 0.32572 0.00400
H 	H 	0.19920 0.46670 0.34330 0.02600
C 	C 	0.27830 0.45290 0.27730 -0.10500
H 	H 	0.22040 0.50880 0.26190 0.05300
C 	C 	0.37660 0.39280 0.25247 0.04700
H 	H 	0.38380 0.40910 0.22000 -0.00600
C 	C 	0.34490 0.31510 0.39851 0.12200
C 	C 	0.46340 0.32140 0.42966 0.03900
C 	C 	0.56570 0.40300 0.41966 -0.10300
H 	H 	0.56980 0.44590 0.39050 0.05900
C 	C 	0.66360 0.42140 0.45342 0.03200
H 	H 	0.73320 0.47760 0.44770 0.00600
C 	C 	0.65390 0.35410 0.49511 -0.11500
H 	H 	0.71640 0.36610 0.51880 0.05700
C 	C 	0.55200 0.26850 0.50235 0.06200
H 	H 	0.54960 0.22050 0.53040 -0.00600
Ag	Ag	0.69679 0.89386 0.98360 0.50600
N 	N 	0.53620 0.68940 0.77303 -0.19300
N 	N 	0.54390 0.74810 0.97032 -0.18300
O 	O 	0.75960 0.71230 0.91550 -0.28300
C 	C 	0.54600 0.70780 0.81988 0.01700
H 	H 	0.48460 0.76070 0.83490 0.01800
C 	C 	0.64360 0.65150 0.84707 -0.05500
C 	C 	0.73360 0.57090 0.82572 0.00400
H 	H 	0.80080 0.53330 0.84330 0.02600
C 	C 	0.72170 0.54710 0.77730 -0.10500
H 	H 	0.77960 0.49120 0.76190 0.05300
C 	C 	0.62340 0.60720 0.75247 0.04700
H 	H 	0.61620 0.59090 0.72000 -0.00600
C 	C 	0.65510 0.68490 0.89851 0.12200
C 	C 	0.53660 0.67860 0.92966 0.03800
C 	C 	0.43430 0.59700 0.91966 -0.10200
H 	H 	0.43020 0.55410 0.89050 0.05900
C 	C 	0.33640 0.57860 0.95342 0.03200
H 	H 	0.26680 0.52240 0.94770 0.00600
C 	C 	0.34610 0.64590 0.99511 -0.11400
H 	H 	0.28360 0.63390 0.01880 0.05600
C 	C 	0.44800 0.73150 0.00235 0.06200
H 	H 	0.45040 0.77950 0.03040 -0.00600
Ag	Ag	0.89386 0.69679 0.01640 0.50600
N 	N 	0.68940 0.53620 0.22697 -0.19300
N 	N 	0.74810 0.54390 0.02968 -0.18300
O 	O 	0.71230 0.75960 0.08450 -0.28300
C 	C 	0.70780 0.54600 0.18012 0.01700
H 	H 	0.76070 0.48460 0.16510 0.01800
C 	C 	0.65150 0.64360 0.15293 -0.05500
C 	C 	0.57090 0.73360 0.17428 0.00400
H 	H 	0.53330 0.80080 0.15670 0.02600
C 	C 	0.54710 0.72170 0.22270 -0.10500
H 	H 	0.49120 0.77960 0.23810 0.05300
C 	C 	0.60720 0.62340 0.24753 0.04700
H 	H 	0.59090 0.61620 0.28000 -0.00600
C 	C 	0.68490 0.65510 0.10149 0.12200
C 	C 	0.67860 0.53660 0.07034 0.03800
C 	C 	0.59700 0.43430 0.08034 -0.10200
H 	H 	0.55410 0.43020 0.10950 0.05900
C 	C 	0.57860 0.33640 0.04658 0.03200
H 	H 	0.52240 0.26680 0.05230 0.00600
C 	C 	0.64590 0.34610 0.00489 -0.11400
H 	H 	0.63390 0.28360 0.98120 0.05600
C 	C 	0.73150 0.44800 0.99765 0.06200
H 	H 	0.77950 0.45040 0.96960 -0.00600
Ag	Ag	0.10614 0.30321 0.51640 0.50600
N 	N 	0.31060 0.46380 0.72697 -0.19300
N 	N 	0.25190 0.45610 0.52968 -0.18300
O 	O 	0.28770 0.24040 0.58450 -0.28300
C 	C 	0.29220 0.45400 0.68012 0.01700
H 	H 	0.23930 0.51540 0.66510 0.01800
C 	C 	0.34850 0.35640 0.65293 -0.05500
C 	C 	0.42910 0.26640 0.67428 0.00400
H 	H 	0.46670 0.19920 0.65670 0.02600
C 	C 	0.45290 0.27830 0.72270 -0.10500
H 	H 	0.50880 0.22040 0.73810 0.05300
C 	C 	0.39280 0.37660 0.74753 0.04700
H 	H 	0.40910 0.38380 0.78000 -0.00600
C 	C 	0.31510 0.34490 0.60149 0.12200
C 	C 	0.32140 0.46340 0.57034 0.03900
C 	C 	0.40300 0.56570 0.58034 -0.10300
H 	H 	0.44590 0.56980 0.60950 0.05900
C 	C 	0.42140 0.66360 0.54658 0.03200
H 	H 	0.47760 0.73320 0.55230 0.00600
C 	C 	0.35410 0.65390 0.50489 -0.11500
H 	H 	0.36610 0.71640 0.48120 0.05700
C 	C 	0.26850 0.55200 0.49765 0.06200
H 	H 	0.22050 0.54960 0.46960 -0.00600
Ag	Ag	0.19679 0.60614 0.76640 0.50700
N 	N 	0.03620 0.81060 0.97697 -0.19300
N 	N 	0.04390 0.75190 0.77968 -0.18300
O 	O 	0.25960 0.78770 0.83450 -0.28200
C 	C 	0.04600 0.79220 0.93012 0.02000
H 	H 	0.98460 0.73930 0.91510 0.01600
C 	C 	0.14360 0.84850 0.90293 -0.05500
C 	C 	0.23360 0.92910 0.92428 0.00500
H 	H 	0.30080 0.96670 0.90670 0.02600
C 	C 	0.22170 0.95290 0.97270 -0.10400
H 	H 	0.27960 0.00880 0.98810 0.05200
C 	C 	0.12340 0.89280 0.99753 0.04800
H 	H 	0.11620 0.90910 0.03000 -0.00600
C 	C 	0.15510 0.81510 0.85149 0.12200
C 	C 	0.03660 0.82140 0.82034 0.04200
C 	C 	0.93430 0.90300 0.83034 -0.10600
H 	H 	0.93020 0.94590 0.85950 0.05900
C 	C 	0.83640 0.92140 0.79658 0.03400
H 	H 	0.76680 0.97760 0.80230 0.00500
C 	C 	0.84610 0.85410 0.75489 -0.11600
H 	H 	0.78360 0.86610 0.73120 0.05700
C 	C 	0.94800 0.76850 0.74765 0.06100
H 	H 	0.95040 0.72050 0.71960 -0.00600
Ag	Ag	0.80321 0.39386 0.26640 0.50700
N 	N 	0.96380 0.18940 0.47697 -0.19300
N 	N 	0.95610 0.24810 0.27968 -0.18300
O 	O 	0.74040 0.21230 0.33450 -0.28200
C 	C 	0.95400 0.20780 0.43012 0.02000
H 	H 	0.01540 0.26070 0.41510 0.01600
C 	C 	0.85640 0.15150 0.40293 -0.05500
C 	C 	0.76640 0.07090 0.42428 0.00500
H 	H 	0.69920 0.03330 0.40670 0.02600
C 	C 	0.77830 0.04710 0.47270 -0.10400
H 	H 	0.72040 0.99120 0.48810 0.05200
C 	C 	0.87660 0.10720 0.49753 0.04700
H 	H 	0.88380 0.09090 0.53000 -0.00600
C 	C 	0.84490 0.18490 0.35149 0.12200
C 	C 	0.96340 0.17860 0.32034 0.04200
C 	C 	0.06570 0.09700 0.33034 -0.10600
H 	H 	0.06980 0.05410 0.35950 0.05900
C 	C 	0.16360 0.07860 0.29658 0.03400
H 	H 	0.23320 0.02240 0.30230 0.00500
C 	C 	0.15390 0.14590 0.25489 -0.11600
H 	H 	0.21640 0.13390 0.23120 0.05700
C 	C 	0.05200 0.23150 0.24765 0.06100
H 	H 	0.04960 0.27950 0.21960 -0.00600
