data_crystal

_cell_length_a 10.23640
_cell_length_b 10.23640
_cell_length_c 28.10900
_cell_angle_alpha 90.00000
_cell_angle_beta  90.00000
_cell_angle_gamma 90.00000

_symmetry_space_group_name_	'P 1'
_symmetry_space_group_name_H-M	'P 1'

loop_
_symmetry_equiv_pos_as_xyz
  x,y,z

loop_
_atom_site_label
_atom_site_type_symbol
_atom_site_fract_x
_atom_site_fract_y
_atom_site_fract_z
_atom_site_charge
Ag	Ag	0.80322 0.60615 0.51640 0.50800
N 	N 	0.96360 0.81080 0.72690 -0.19200
N 	N 	0.95620 0.75210 0.52959 -0.18300
O 	O 	0.74020 0.78800 0.58450 -0.28200
C 	C 	0.95410 0.79210 0.68016 0.02000
H 	H 	0.01540 0.73910 0.66520 0.01600
C 	C 	0.85640 0.84860 0.65286 -0.05500
C 	C 	0.76610 0.92900 0.67430 0.00400
H 	H 	0.69870 0.96650 0.65680 0.02600
C 	C 	0.77820 0.95270 0.72274 -0.10400
H 	H 	0.72030 0.00860 0.73810 0.05200
C 	C 	0.87640 0.89280 0.74756 0.04700
H 	H 	0.88350 0.90900 0.78000 -0.00600
C 	C 	0.84480 0.81520 0.60149 0.12200
C 	C 	0.96320 0.82150 0.57032 0.04100
C 	C 	0.06570 0.90330 0.58033 -0.10600
H 	H 	0.06980 0.94620 0.60950 0.05900
C 	C 	0.16330 0.92170 0.54666 0.03500
H 	H 	0.23280 0.97810 0.55240 0.00500
C 	C 	0.15400 0.85450 0.50490 -0.11700
H 	H 	0.21650 0.86650 0.48130 0.05700
C 	C 	0.05200 0.76870 0.49763 0.06200
H 	H 	0.04960 0.72060 0.46960 -0.00600
Ag	Ag	0.19678 0.39385 0.01640 0.50700
N 	N 	0.03640 0.18920 0.22690 -0.19300
N 	N 	0.04380 0.24790 0.02959 -0.18300
O 	O 	0.25980 0.21200 0.08450 -0.28200
C 	C 	0.04590 0.20790 0.18016 0.02000
H 	H 	0.98460 0.26090 0.16520 0.01600
C 	C 	0.14360 0.15140 0.15286 -0.05500
C 	C 	0.23390 0.07100 0.17430 0.00400
H 	H 	0.30130 0.03350 0.15680 0.02600
C 	C 	0.22180 0.04730 0.22274 -0.10400
H 	H 	0.27970 0.99140 0.23810 0.05200
C 	C 	0.12360 0.10720 0.24756 0.04700
H 	H 	0.11650 0.09100 0.28000 -0.00600
C 	C 	0.15520 0.18480 0.10149 0.12200
C 	C 	0.03680 0.17850 0.07032 0.04100
C 	C 	0.93430 0.09670 0.08033 -0.10500
H 	H 	0.93020 0.05380 0.10950 0.05900
C 	C 	0.83670 0.07830 0.04666 0.03300
H 	H 	0.76720 0.02190 0.05240 0.00500
C 	C 	0.84600 0.14550 0.00490 -0.11500
H 	H 	0.78350 0.13350 0.98130 0.05600
C 	C 	0.94800 0.23130 0.99763 0.06100
H 	H 	0.95040 0.27940 0.96960 -0.00600
Ag	Ag	0.89385 0.30322 0.26640 0.50600
N 	N 	0.68920 0.46360 0.47690 -0.19300
N 	N 	0.74790 0.45620 0.27959 -0.18300
O 	O 	0.71200 0.24020 0.33450 -0.28300
C 	C 	0.70790 0.45410 0.43016 0.01700
H 	H 	0.76090 0.51540 0.41520 0.01800
C 	C 	0.65140 0.35640 0.40286 -0.05500
C 	C 	0.57100 0.26610 0.42430 0.00400
H 	H 	0.53350 0.19870 0.40680 0.02600
C 	C 	0.54730 0.27820 0.47274 -0.10500
H 	H 	0.49140 0.22030 0.48810 0.05300
C 	C 	0.60720 0.37640 0.49756 0.04700
H 	H 	0.59100 0.38350 0.53000 -0.00600
C 	C 	0.68480 0.34480 0.35149 0.12200
C 	C 	0.67850 0.46320 0.32032 0.03800
C 	C 	0.59670 0.56570 0.33033 -0.10300
H 	H 	0.55380 0.56980 0.35950 0.05900
C 	C 	0.57830 0.66330 0.29666 0.03300
H 	H 	0.52190 0.73280 0.30240 0.00500
C 	C 	0.64550 0.65400 0.25490 -0.11600
H 	H 	0.63350 0.71650 0.23130 0.05700
C 	C 	0.73130 0.55200 0.24763 0.06300
H 	H 	0.77940 0.54960 0.21960 -0.00600
Ag	Ag	0.10615 0.69678 0.76640 0.50600
N 	N 	0.31080 0.53640 0.97690 -0.19300
N 	N 	0.25210 0.54380 0.77959 -0.18300
O 	O 	0.28800 0.75980 0.83450 -0.28300
C 	C 	0.29210 0.54590 0.93016 0.01700
H 	H 	0.23910 0.48460 0.91520 0.01800
C 	C 	0.34860 0.64360 0.90286 -0.05500
C 	C 	0.42900 0.73390 0.92430 0.00500
H 	H 	0.46650 0.80130 0.90680 0.02600
C 	C 	0.45270 0.72180 0.97274 -0.10500
H 	H 	0.50860 0.77970 0.98810 0.05300
C 	C 	0.39280 0.62360 0.99756 0.04800
H 	H 	0.40900 0.61650 0.03000 -0.00600
C 	C 	0.31520 0.65520 0.85149 0.12200
C 	C 	0.32150 0.53680 0.82032 0.03800
C 	C 	0.40330 0.43430 0.83033 -0.10300
H 	H 	0.44620 0.43020 0.85950 0.05900
C 	C 	0.42170 0.33670 0.79666 0.03300
H 	H 	0.47810 0.26720 0.80240 0.00500
C 	C 	0.35450 0.34600 0.75490 -0.11600
H 	H 	0.36650 0.28350 0.73130 0.05700
C 	C 	0.26870 0.44800 0.74763 0.06300
H 	H 	0.22060 0.45040 0.71960 -0.00600
Ag	Ag	0.69678 0.10615 0.23360 0.50600
N 	N 	0.53640 0.31080 0.02310 -0.19300
N 	N 	0.54380 0.25210 0.22041 -0.18300
O 	O 	0.75980 0.28800 0.16550 -0.28300
C 	C 	0.54590 0.29210 0.06984 0.01700
H 	H 	0.48460 0.23910 0.08480 0.01800
C 	C 	0.64360 0.34860 0.09714 -0.05500
C 	C 	0.73390 0.42900 0.07570 0.00500
H 	H 	0.80130 0.46650 0.09320 0.02600
C 	C 	0.72180 0.45270 0.02726 -0.10500
H 	H 	0.77970 0.50860 0.01190 0.05300
C 	C 	0.62360 0.39280 0.00244 0.04800
H 	H 	0.61650 0.40900 0.97000 -0.00600
C 	C 	0.65520 0.31520 0.14851 0.12200
C 	C 	0.53680 0.32150 0.17968 0.03800
C 	C 	0.43430 0.40330 0.16967 -0.10300
H 	H 	0.43020 0.44620 0.14050 0.05900
C 	C 	0.33670 0.42170 0.20334 0.03300
H 	H 	0.26720 0.47810 0.19760 0.00500
C 	C 	0.34600 0.35450 0.24510 -0.11600
H 	H 	0.28350 0.36650 0.26870 0.05700
C 	C 	0.44800 0.26870 0.25237 0.06300
H 	H 	0.45040 0.22060 0.28040 -0.00600
Ag	Ag	0.30322 0.89385 0.73360 0.50600
N 	N 	0.46360 0.68920 0.52310 -0.19300
N 	N 	0.45620 0.74790 0.72041 -0.18300
O 	O 	0.24020 0.71200 0.66550 -0.28300
C 	C 	0.45410 0.70790 0.56984 0.01700
H 	H 	0.51540 0.76090 0.58480 0.01800
C 	C 	0.35640 0.65140 0.59714 -0.05500
C 	C 	0.26610 0.57100 0.57570 0.00400
H 	H 	0.19870 0.53350 0.59320 0.02600
C 	C 	0.27820 0.54730 0.52726 -0.10500
H 	H 	0.22030 0.49140 0.51190 0.05300
C 	C 	0.37640 0.60720 0.50244 0.04700
H 	H 	0.38350 0.59100 0.47000 -0.00600
C 	C 	0.34480 0.68480 0.64851 0.12200
C 	C 	0.46320 0.67850 0.67968 0.03800
C 	C 	0.56570 0.59670 0.66967 -0.10300
H 	H 	0.56980 0.55380 0.64050 0.05900
C 	C 	0.66330 0.57830 0.70334 0.03300
H 	H 	0.73280 0.52190 0.69760 0.00500
C 	C 	0.65400 0.64550 0.74510 -0.11600
H 	H 	0.71650 0.63350 0.76870 0.05700
C 	C 	0.55200 0.73130 0.75237 0.06300
H 	H 	0.54960 0.77940 0.78040 -0.00600
Ag	Ag	0.60615 0.80322 0.48360 0.50700
N 	N 	0.81080 0.96360 0.27310 -0.19300
N 	N 	0.75210 0.95620 0.47041 -0.18300
O 	O 	0.78800 0.74020 0.41550 -0.28200
C 	C 	0.79210 0.95410 0.31984 0.02000
H 	H 	0.73910 0.01540 0.33480 0.01600
C 	C 	0.84860 0.85640 0.34714 -0.05500
C 	C 	0.92900 0.76610 0.32570 0.00400
H 	H 	0.96650 0.69870 0.34320 0.02600
C 	C 	0.95270 0.77820 0.27726 -0.10400
H 	H 	0.00860 0.72030 0.26190 0.05200
C 	C 	0.89280 0.87640 0.25244 0.04700
H 	H 	0.90900 0.88350 0.22000 -0.00600
C 	C 	0.81520 0.84480 0.39851 0.12200
C 	C 	0.82150 0.96320 0.42968 0.04100
C 	C 	0.90330 0.06570 0.41967 -0.10600
H 	H 	0.94620 0.06980 0.39050 0.05900
C 	C 	0.92170 0.16330 0.45334 0.03500
H 	H 	0.97810 0.23280 0.44760 0.00500
C 	C 	0.85450 0.15400 0.49510 -0.11700
H 	H 	0.86650 0.21650 0.51870 0.05700
C 	C 	0.76870 0.05200 0.50237 0.06200
H 	H 	0.72060 0.04960 0.53040 -0.00600
Ag	Ag	0.39385 0.19678 0.98360 0.50700
N 	N 	0.18920 0.03640 0.77310 -0.19300
N 	N 	0.24790 0.04380 0.97041 -0.18300
O 	O 	0.21200 0.25980 0.91550 -0.28200
C 	C 	0.20790 0.04590 0.81984 0.02000
H 	H 	0.26090 0.98460 0.83480 0.01600
C 	C 	0.15140 0.14360 0.84714 -0.05500
C 	C 	0.07100 0.23390 0.82570 0.00400
H 	H 	0.03350 0.30130 0.84320 0.02600
C 	C 	0.04730 0.22180 0.77726 -0.10400
H 	H 	0.99140 0.27970 0.76190 0.05200
C 	C 	0.10720 0.12360 0.75244 0.04700
H 	H 	0.09100 0.11650 0.72000 -0.00600
C 	C 	0.18480 0.15520 0.89851 0.12200
C 	C 	0.17850 0.03680 0.92968 0.04100
C 	C 	0.09670 0.93430 0.91967 -0.10500
H 	H 	0.05380 0.93020 0.89050 0.05900
C 	C 	0.07830 0.83670 0.95334 0.03300
H 	H 	0.02190 0.76720 0.94760 0.00500
C 	C 	0.14550 0.84600 0.99510 -0.11500
H 	H 	0.13350 0.78350 0.01870 0.05600
C 	C 	0.23130 0.94800 0.00237 0.06100
H 	H 	0.27940 0.95040 0.03040 -0.00600
