data_crystal

_cell_length_a 14.84900
_cell_length_b 14.84900
_cell_length_c 21.80600
_cell_angle_alpha 90.00000
_cell_angle_beta  90.00000
_cell_angle_gamma 120.00000

_symmetry_space_group_name_	'P 1'
_symmetry_space_group_name_H-M	'P 1'

loop_
_symmetry_equiv_pos_as_xyz
  x,y,z

loop_
_atom_site_label
_atom_site_type_symbol
_atom_site_fract_x
_atom_site_fract_y
_atom_site_fract_z
_atom_site_charge
I 	I 	0.71129 0.18518 0.24093 -0.77300
Cu	Cu	0.86343 0.37898 0.25162 0.78700
Cu	Cu	0.76036 0.23465 0.11806 0.82100
N 	N 	0.95060 0.39030 0.17580 -0.18800
N 	N 	0.05250 0.45690 0.17120 -0.17800
N 	N 	0.08240 0.46060 0.11230 -0.11800
N 	N 	0.91240 0.34820 0.12070 -0.22000
N 	N 	0.09070 0.40560 0.92170 -0.22400
C 	C 	0.08510 0.42430 0.98160 0.03400
H 	H 	0.14560 0.47240 0.00160 0.00500
C 	C 	0.99450 0.39370 0.08240 0.12200
C 	C 	0.99130 0.37400 0.01550 -0.07400
C 	C 	0.00130 0.34150 0.89140 0.03300
H 	H 	0.00460 0.32660 0.85040 0.01400
C 	C 	0.90370 0.29700 0.92050 -0.09800
H 	H 	0.84300 0.25830 0.89800 0.05400
C 	C 	0.89900 0.31140 0.98320 0.01200
H 	H 	0.83530 0.27990 0.00340 -0.01100
I 	I 	0.81482 0.52611 0.24093 -0.77400
Cu	Cu	0.62102 0.48445 0.25162 0.78600
Cu	Cu	0.76535 0.52571 0.11806 0.82000
N 	N 	0.60970 0.56030 0.17580 -0.18900
N 	N 	0.54310 0.59560 0.17120 -0.17900
N 	N 	0.53940 0.62180 0.11230 -0.11900
N 	N 	0.65180 0.56420 0.12070 -0.22100
N 	N 	0.59440 0.68510 0.92170 -0.22500
C 	C 	0.57570 0.66080 0.98160 0.03400
H 	H 	0.52760 0.67320 0.00160 0.00500
C 	C 	0.60630 0.60080 0.08240 0.12200
C 	C 	0.62600 0.61730 0.01550 -0.07300
C 	C 	0.65850 0.65980 0.89140 0.03300
H 	H 	0.67340 0.67800 0.85040 0.01400
C 	C 	0.70300 0.60670 0.92050 -0.09800
H 	H 	0.74170 0.58470 0.89800 0.05400
C 	C 	0.68860 0.58760 0.98320 0.01100
H 	H 	0.72010 0.55540 0.00340 -0.01000
I 	I 	0.47389 0.28871 0.24093 -0.77300
Cu	Cu	0.51555 0.13657 0.25162 0.78600
Cu	Cu	0.47429 0.23964 0.11806 0.82000
N 	N 	0.43970 0.04940 0.17580 -0.18900
N 	N 	0.40440 0.94750 0.17120 -0.17900
N 	N 	0.37820 0.91760 0.11230 -0.11900
N 	N 	0.43580 0.08760 0.12070 -0.22100
N 	N 	0.31490 0.90930 0.92170 -0.22500
C 	C 	0.33920 0.91490 0.98160 0.03300
H 	H 	0.32680 0.85440 0.00160 0.00500
C 	C 	0.39920 0.00550 0.08240 0.12200
C 	C 	0.38270 0.00870 0.01550 -0.07300
C 	C 	0.34020 0.99870 0.89140 0.03300
H 	H 	0.32200 0.99540 0.85040 0.01400
C 	C 	0.39330 0.09630 0.92050 -0.09700
H 	H 	0.41530 0.15700 0.89800 0.05400
C 	C 	0.41240 0.10100 0.98320 0.01100
H 	H 	0.44460 0.16470 0.00340 -0.01000
I 	I 	0.18518 0.71129 0.25907 -0.77300
Cu	Cu	0.37898 0.86343 0.24838 0.78600
Cu	Cu	0.23465 0.76036 0.38194 0.82000
N 	N 	0.39030 0.95060 0.32420 -0.18900
N 	N 	0.45690 0.05250 0.32880 -0.17900
N 	N 	0.46060 0.08240 0.38770 -0.11900
N 	N 	0.34820 0.91240 0.37930 -0.22100
N 	N 	0.40560 0.09070 0.57830 -0.22500
C 	C 	0.42430 0.08510 0.51840 0.03400
H 	H 	0.47240 0.14560 0.49840 0.00500
C 	C 	0.39370 0.99450 0.41760 0.12200
C 	C 	0.37400 0.99130 0.48450 -0.07400
C 	C 	0.34150 0.00130 0.60860 0.03300
H 	H 	0.32660 0.00460 0.64960 0.01400
C 	C 	0.29700 0.90370 0.57950 -0.09800
H 	H 	0.25830 0.84300 0.60200 0.05400
C 	C 	0.31140 0.89900 0.51680 0.01100
H 	H 	0.27990 0.83530 0.49660 -0.01000
I 	I 	0.52611 0.81482 0.25907 -0.77300
Cu	Cu	0.48445 0.62102 0.24838 0.78600
Cu	Cu	0.52571 0.76535 0.38194 0.82000
N 	N 	0.56030 0.60970 0.32420 -0.18900
N 	N 	0.59560 0.54310 0.32880 -0.17900
N 	N 	0.62180 0.53940 0.38770 -0.11900
N 	N 	0.56420 0.65180 0.37930 -0.22100
N 	N 	0.68510 0.59440 0.57830 -0.22500
C 	C 	0.66080 0.57570 0.51840 0.03400
H 	H 	0.67320 0.52760 0.49840 0.00500
C 	C 	0.60080 0.60630 0.41760 0.12200
C 	C 	0.61730 0.62600 0.48450 -0.07300
C 	C 	0.65980 0.65850 0.60860 0.03300
H 	H 	0.67800 0.67340 0.64960 0.01400
C 	C 	0.60670 0.70300 0.57950 -0.09800
H 	H 	0.58470 0.74170 0.60200 0.05400
C 	C 	0.58760 0.68860 0.51680 0.01100
H 	H 	0.55540 0.72010 0.49660 -0.01000
I 	I 	0.28871 0.47389 0.25907 -0.77300
Cu	Cu	0.13657 0.51555 0.24838 0.78600
Cu	Cu	0.23964 0.47429 0.38194 0.82000
N 	N 	0.04940 0.43970 0.32420 -0.18900
N 	N 	0.94750 0.40440 0.32880 -0.17900
N 	N 	0.91760 0.37820 0.38770 -0.11900
N 	N 	0.08760 0.43580 0.37930 -0.22100
N 	N 	0.90930 0.31490 0.57830 -0.22500
C 	C 	0.91490 0.33920 0.51840 0.03400
H 	H 	0.85440 0.32680 0.49840 0.00500
C 	C 	0.00550 0.39920 0.41760 0.12200
C 	C 	0.00870 0.38270 0.48450 -0.07300
C 	C 	0.99870 0.34020 0.60860 0.03300
H 	H 	0.99540 0.32200 0.64960 0.01400
C 	C 	0.09630 0.39330 0.57950 -0.09800
H 	H 	0.15700 0.41530 0.60200 0.05400
C 	C 	0.10100 0.41240 0.51680 0.01100
H 	H 	0.16470 0.44460 0.49660 -0.01000
I 	I 	0.28871 0.81482 0.75907 -0.77400
Cu	Cu	0.13657 0.62102 0.74838 0.78600
Cu	Cu	0.23964 0.76535 0.88194 0.82000
N 	N 	0.04940 0.60970 0.82420 -0.18900
N 	N 	0.94750 0.54310 0.82880 -0.17900
N 	N 	0.91760 0.53940 0.88770 -0.11900
N 	N 	0.08760 0.65180 0.87930 -0.22100
N 	N 	0.90930 0.59440 0.07830 -0.22500
C 	C 	0.91490 0.57570 0.01840 0.03400
H 	H 	0.85440 0.52760 0.99840 0.00500
C 	C 	0.00550 0.60630 0.91760 0.12200
C 	C 	0.00870 0.62600 0.98450 -0.07400
C 	C 	0.99870 0.65850 0.10860 0.03300
H 	H 	0.99540 0.67340 0.14960 0.01400
C 	C 	0.09630 0.70300 0.07950 -0.09800
H 	H 	0.15700 0.74170 0.10200 0.05400
C 	C 	0.10100 0.68860 0.01680 0.01200
H 	H 	0.16470 0.72010 0.99660 -0.01100
I 	I 	0.18518 0.47389 0.75907 -0.77400
Cu	Cu	0.37898 0.51555 0.74838 0.78600
Cu	Cu	0.23465 0.47429 0.88194 0.82000
N 	N 	0.39030 0.43970 0.82420 -0.18900
N 	N 	0.45690 0.40440 0.82880 -0.17900
N 	N 	0.46060 0.37820 0.88770 -0.11900
N 	N 	0.34820 0.43580 0.87930 -0.22100
N 	N 	0.40560 0.31490 0.07830 -0.22500
C 	C 	0.42430 0.33920 0.01840 0.03400
H 	H 	0.47240 0.32680 0.99840 0.00500
C 	C 	0.39370 0.39920 0.91760 0.12200
C 	C 	0.37400 0.38270 0.98450 -0.07300
C 	C 	0.34150 0.34020 0.10860 0.03300
H 	H 	0.32660 0.32200 0.14960 0.01400
C 	C 	0.29700 0.39330 0.07950 -0.09800
H 	H 	0.25830 0.41530 0.10200 0.05400
C 	C 	0.31140 0.41240 0.01680 0.01100
H 	H 	0.27990 0.44460 0.99660 -0.01000
I 	I 	0.52611 0.71129 0.75907 -0.77300
Cu	Cu	0.48445 0.86343 0.74838 0.78600
Cu	Cu	0.52571 0.76036 0.88194 0.82000
N 	N 	0.56030 0.95060 0.82420 -0.18900
N 	N 	0.59560 0.05250 0.82880 -0.17900
N 	N 	0.62180 0.08240 0.88770 -0.11900
N 	N 	0.56420 0.91240 0.87930 -0.22100
N 	N 	0.68510 0.09070 0.07830 -0.22500
C 	C 	0.66080 0.08510 0.01840 0.03300
H 	H 	0.67320 0.14560 0.99840 0.00500
C 	C 	0.60080 0.99450 0.91760 0.12200
C 	C 	0.61730 0.99130 0.98450 -0.07300
C 	C 	0.65980 0.00130 0.10860 0.03300
H 	H 	0.67800 0.00460 0.14960 0.01400
C 	C 	0.60670 0.90370 0.07950 -0.09700
H 	H 	0.58470 0.84300 0.10200 0.05400
C 	C 	0.58760 0.89900 0.01680 0.01100
H 	H 	0.55540 0.83530 0.99660 -0.01000
I 	I 	0.81482 0.28871 0.74093 -0.77300
Cu	Cu	0.62102 0.13657 0.75162 0.78600
Cu	Cu	0.76535 0.23964 0.61806 0.82000
N 	N 	0.60970 0.04940 0.67580 -0.18900
N 	N 	0.54310 0.94750 0.67120 -0.17900
N 	N 	0.53940 0.91760 0.61230 -0.11900
N 	N 	0.65180 0.08760 0.62070 -0.22100
N 	N 	0.59440 0.90930 0.42170 -0.22500
C 	C 	0.57570 0.91490 0.48160 0.03400
H 	H 	0.52760 0.85440 0.50160 0.00500
C 	C 	0.60630 0.00550 0.58240 0.12200
C 	C 	0.62600 0.00870 0.51550 -0.07400
C 	C 	0.65850 0.99870 0.39140 0.03300
H 	H 	0.67340 0.99540 0.35040 0.01400
C 	C 	0.70300 0.09630 0.42050 -0.09800
H 	H 	0.74170 0.15700 0.39800 0.05400
C 	C 	0.68860 0.10100 0.48320 0.01100
H 	H 	0.72010 0.16470 0.50340 -0.01000
I 	I 	0.47389 0.18518 0.74093 -0.77300
Cu	Cu	0.51555 0.37898 0.75162 0.78600
Cu	Cu	0.47429 0.23465 0.61806 0.82000
N 	N 	0.43970 0.39030 0.67580 -0.18900
N 	N 	0.40440 0.45690 0.67120 -0.17900
N 	N 	0.37820 0.46060 0.61230 -0.11900
N 	N 	0.43580 0.34820 0.62070 -0.22100
N 	N 	0.31490 0.40560 0.42170 -0.22500
C 	C 	0.33920 0.42430 0.48160 0.03400
H 	H 	0.32680 0.47240 0.50160 0.00500
C 	C 	0.39920 0.39370 0.58240 0.12200
C 	C 	0.38270 0.37400 0.51550 -0.07300
C 	C 	0.34020 0.34150 0.39140 0.03300
H 	H 	0.32200 0.32660 0.35040 0.01400
C 	C 	0.39330 0.29700 0.42050 -0.09800
H 	H 	0.41530 0.25830 0.39800 0.05400
C 	C 	0.41240 0.31140 0.48320 0.01100
H 	H 	0.44460 0.27990 0.50340 -0.01000
I 	I 	0.71129 0.52611 0.74093 -0.77300
Cu	Cu	0.86343 0.48445 0.75162 0.78600
Cu	Cu	0.76036 0.52571 0.61806 0.82000
N 	N 	0.95060 0.56030 0.67580 -0.18900
N 	N 	0.05250 0.59560 0.67120 -0.17900
N 	N 	0.08240 0.62180 0.61230 -0.11900
N 	N 	0.91240 0.56420 0.62070 -0.22100
N 	N 	0.09070 0.68510 0.42170 -0.22500
C 	C 	0.08510 0.66080 0.48160 0.03400
H 	H 	0.14560 0.67320 0.50160 0.00500
C 	C 	0.99450 0.60080 0.58240 0.12200
C 	C 	0.99130 0.61730 0.51550 -0.07300
C 	C 	0.00130 0.65980 0.39140 0.03300
H 	H 	0.00460 0.67800 0.35040 0.01400
C 	C 	0.90370 0.60670 0.42050 -0.09800
H 	H 	0.84300 0.58470 0.39800 0.05400
C 	C 	0.89900 0.58760 0.48320 0.01100
H 	H 	0.83530 0.55540 0.50340 -0.01000
I 	I 	0.66667 0.33333 0.06988 -0.66000
Cu	Cu	0.66667 0.33333 0.28341 0.68400
I 	I 	0.33333 0.66667 0.43012 -0.66000
Cu	Cu	0.33333 0.66667 0.21659 0.68400
I 	I 	0.33333 0.66667 0.93012 -0.66000
Cu	Cu	0.33333 0.66667 0.71659 0.68400
I 	I 	0.66667 0.33333 0.56988 -0.66000
Cu	Cu	0.66667 0.33333 0.78341 0.68400
