data_crystal

_cell_length_a 12.70310
_cell_length_b 12.70310
_cell_length_c 35.75900
_cell_angle_alpha 90.00000
_cell_angle_beta  90.00000
_cell_angle_gamma 90.00000

_symmetry_space_group_name_	'P 1'
_symmetry_space_group_name_H-M	'P 1'

loop_
_symmetry_equiv_pos_as_xyz
  x,y,z

loop_
_atom_site_label
_atom_site_type_symbol
_atom_site_fract_x
_atom_site_fract_y
_atom_site_fract_z
_atom_site_charge
O 	O 	0.56230 0.17970 0.95260 -0.43700
O 	O 	0.70360 0.53180 0.99440 -0.44100
O 	O 	0.51770 0.50470 0.04060 -0.31400
O 	O 	0.68130 0.35420 0.02950 -0.43500
O 	O 	0.47880 0.30680 0.07480 -0.43100
C 	C 	0.71770 0.14640 0.10660 -0.10800
O 	O 	0.38220 0.14190 0.99300 -0.47500
O 	O 	0.45090 0.33860 0.91660 -0.47100
O 	O 	0.61170 0.99390 0.10890 -0.32500
O 	O 	0.59480 0.48320 0.89750 -0.43300
O 	O 	0.28590 0.29760 0.95730 -0.50300
O 	O 	0.66700 0.36160 0.95630 -0.45600
O 	O 	0.57240 0.16720 0.02920 -0.43000
O 	O 	0.48000 0.31470 0.99498 -0.36100
O 	O 	0.38060 0.13050 0.91680 -0.45100
O 	O 	0.63670 0.44880 0.09378 -0.41900
O 	O 	0.65490 0.63800 0.05970 -0.41800
C 	C 	0.89010 0.25890 0.08520 0.06500
H 	H 	0.94820 0.29820 0.07770 0.02300
C 	C 	0.61880 0.08990 0.11790 0.31400
N 	N 	0.82560 0.29910 0.11150 -0.12600
O 	O 	0.54930 0.13940 0.13540 -0.29600
C 	C 	0.73290 0.24510 0.12170 0.07700
H 	H 	0.68410 0.27490 0.13800 0.02800
C 	C 	0.78600 0.10410 0.08000 0.05600
H 	H 	0.77350 0.03800 0.06980 0.03500
Ag	Ag	0.14640 0.17730 0.98227 0.43400
O 	O 	0.93270 0.03420 0.02700 -0.27100
O 	O 	0.01540 0.18790 0.02800 -0.37900
C 	C 	0.94690 0.12510 0.03870 0.32400
C 	C 	0.87350 0.16300 0.06890 -0.12700
W 	W 	0.69443 0.49956 0.04547 1.02700
W 	W 	0.67226 0.50278 0.94225 0.99500
W 	W 	0.64041 0.25313 0.99395 1.01000
W 	W 	0.41937 0.22751 0.94804 1.24400
W 	W 	0.42385 0.20730 0.03870 0.95500
W 	W 	0.48925 0.43895 0.09727 1.01600
Ag	Ag	0.95089 0.43331 0.89035 0.50500
O 	O 	0.43770 0.82030 0.45260 -0.43600
O 	O 	0.29640 0.46820 0.49440 -0.44000
O 	O 	0.48230 0.49530 0.54060 -0.31400
O 	O 	0.31870 0.64580 0.52950 -0.43500
O 	O 	0.52120 0.69320 0.57480 -0.43100
C 	C 	0.28230 0.85360 0.60660 -0.10800
O 	O 	0.61780 0.85810 0.49300 -0.47500
O 	O 	0.54910 0.66140 0.41660 -0.47100
O 	O 	0.38830 0.00610 0.60890 -0.32500
O 	O 	0.40520 0.51680 0.39750 -0.43300
O 	O 	0.71410 0.70240 0.45730 -0.50300
O 	O 	0.33300 0.63840 0.45630 -0.45600
O 	O 	0.42760 0.83280 0.52920 -0.43000
O 	O 	0.52000 0.68530 0.49498 -0.36100
O 	O 	0.61940 0.86950 0.41680 -0.45100
O 	O 	0.36330 0.55120 0.59378 -0.41900
O 	O 	0.34510 0.36200 0.55970 -0.41800
C 	C 	0.10990 0.74110 0.58520 0.06500
H 	H 	0.05180 0.70180 0.57770 0.02300
C 	C 	0.38120 0.91010 0.61790 0.31300
N 	N 	0.17440 0.70090 0.61150 -0.12600
O 	O 	0.45070 0.86060 0.63540 -0.29600
C 	C 	0.26710 0.75490 0.62170 0.07700
H 	H 	0.31590 0.72510 0.63800 0.02800
C 	C 	0.21400 0.89590 0.58000 0.05600
H 	H 	0.22650 0.96200 0.56980 0.03500
Ag	Ag	0.85360 0.82270 0.48227 0.43400
O 	O 	0.06730 0.96580 0.52700 -0.27200
O 	O 	0.98460 0.81210 0.52800 -0.37800
C 	C 	0.05310 0.87490 0.53870 0.32400
C 	C 	0.12650 0.83700 0.56890 -0.12700
W 	W 	0.30557 0.50044 0.54547 1.02700
W 	W 	0.32774 0.49722 0.44225 0.99500
W 	W 	0.35959 0.74687 0.49395 1.01000
W 	W 	0.58063 0.77249 0.44804 1.24400
W 	W 	0.57615 0.79270 0.53870 0.95500
W 	W 	0.51075 0.56105 0.59727 1.01600
Ag	Ag	0.04911 0.56669 0.39035 0.50500
O 	O 	0.32030 0.06230 0.20260 -0.43100
O 	O 	0.96820 0.20360 0.24440 -0.43800
O 	O 	0.99530 0.01770 0.29060 -0.30900
O 	O 	0.14580 0.18130 0.27950 -0.43400
O 	O 	0.19320 0.97880 0.32480 -0.43100
C 	C 	0.35360 0.21770 0.35660 -0.10600
O 	O 	0.35810 0.88220 0.24300 -0.47500
O 	O 	0.16140 0.95090 0.16660 -0.47100
O 	O 	0.50610 0.11170 0.35890 -0.32100
O 	O 	0.01680 0.09480 0.14750 -0.42700
O 	O 	0.20240 0.78590 0.20730 -0.50200
O 	O 	0.13840 0.16700 0.20630 -0.45500
O 	O 	0.33280 0.07240 0.27920 -0.42700
O 	O 	0.18530 0.98000 0.24498 -0.36500
O 	O 	0.36950 0.88060 0.16680 -0.45100
O 	O 	0.05120 0.13670 0.34378 -0.41400
O 	O 	0.86200 0.15490 0.30970 -0.41600
C 	C 	0.24110 0.39010 0.33520 0.06600
H 	H 	0.20180 0.44820 0.32770 0.02300
C 	C 	0.41010 0.11880 0.36790 0.30900
N 	N 	0.20090 0.32560 0.36150 -0.12600
O 	O 	0.36060 0.04930 0.38540 -0.29400
C 	C 	0.25490 0.23290 0.37170 0.07600
H 	H 	0.22510 0.18410 0.38800 0.02900
C 	C 	0.39590 0.28600 0.33000 0.05600
H 	H 	0.46200 0.27350 0.31980 0.03400
Ag	Ag	0.32270 0.64640 0.23227 0.43300
O 	O 	0.46580 0.43270 0.27700 -0.27200
O 	O 	0.31210 0.51540 0.27800 -0.38300
C 	C 	0.37490 0.44690 0.28870 0.32800
C 	C 	0.33700 0.37350 0.31890 -0.12800
W 	W 	0.00044 0.19443 0.29547 1.02200
W 	W 	0.99722 0.17226 0.19225 0.99600
W 	W 	0.24687 0.14041 0.24395 1.01400
W 	W 	0.27249 0.91937 0.19804 1.23800
W 	W 	0.29270 0.92385 0.28870 0.94800
W 	W 	0.06105 0.98925 0.34727 0.99700
Ag	Ag	0.06669 0.45089 0.14035 0.50600
O 	O 	0.67970 0.93770 0.70260 -0.43100
O 	O 	0.03180 0.79640 0.74440 -0.43800
O 	O 	0.00470 0.98230 0.79060 -0.30900
O 	O 	0.85420 0.81870 0.77950 -0.43400
O 	O 	0.80680 0.02120 0.82480 -0.43200
C 	C 	0.64640 0.78230 0.85660 -0.10600
O 	O 	0.64190 0.11780 0.74300 -0.47500
O 	O 	0.83860 0.04910 0.66660 -0.47100
O 	O 	0.49390 0.88830 0.85890 -0.32100
O 	O 	0.98320 0.90520 0.64750 -0.42700
O 	O 	0.79760 0.21410 0.70730 -0.50200
O 	O 	0.86160 0.83300 0.70630 -0.45500
O 	O 	0.66720 0.92760 0.77920 -0.42700
O 	O 	0.81470 0.02000 0.74498 -0.36500
O 	O 	0.63050 0.11940 0.66680 -0.45100
O 	O 	0.94880 0.86330 0.84378 -0.41400
O 	O 	0.13800 0.84510 0.80970 -0.41600
C 	C 	0.75890 0.60990 0.83520 0.06600
H 	H 	0.79820 0.55180 0.82770 0.02300
C 	C 	0.58990 0.88120 0.86790 0.30900
N 	N 	0.79910 0.67440 0.86150 -0.12600
O 	O 	0.63940 0.95070 0.88540 -0.29400
C 	C 	0.74510 0.76710 0.87170 0.07600
H 	H 	0.77490 0.81590 0.88800 0.02900
C 	C 	0.60410 0.71400 0.83000 0.05600
H 	H 	0.53800 0.72650 0.81980 0.03400
Ag	Ag	0.67730 0.35360 0.73227 0.43300
O 	O 	0.53420 0.56730 0.77700 -0.27200
O 	O 	0.68790 0.48460 0.77800 -0.38300
C 	C 	0.62510 0.55310 0.78870 0.32800
C 	C 	0.66300 0.62650 0.81890 -0.12800
W 	W 	0.99956 0.80557 0.79547 1.02200
W 	W 	0.00278 0.82774 0.69225 0.99600
W 	W 	0.75313 0.85959 0.74395 1.01400
W 	W 	0.72751 0.08063 0.69804 1.23800
W 	W 	0.70730 0.07615 0.78870 0.94800
W 	W 	0.93895 0.01075 0.84727 0.99600
Ag	Ag	0.93331 0.54911 0.64035 0.50600
O 	O 	0.93770 0.67970 0.29740 -0.43100
O 	O 	0.79640 0.03180 0.25560 -0.43800
O 	O 	0.98230 0.00470 0.20940 -0.30900
O 	O 	0.81870 0.85420 0.22050 -0.43400
O 	O 	0.02120 0.80680 0.17520 -0.43200
C 	C 	0.78230 0.64640 0.14340 -0.10600
O 	O 	0.11780 0.64190 0.25700 -0.47500
O 	O 	0.04910 0.83860 0.33340 -0.47100
O 	O 	0.88830 0.49390 0.14110 -0.32100
O 	O 	0.90520 0.98320 0.35250 -0.42700
O 	O 	0.21410 0.79760 0.29270 -0.50200
O 	O 	0.83300 0.86160 0.29370 -0.45500
O 	O 	0.92760 0.66720 0.22080 -0.42700
O 	O 	0.02000 0.81470 0.25502 -0.36500
O 	O 	0.11940 0.63050 0.33320 -0.45100
O 	O 	0.86330 0.94880 0.15622 -0.41400
O 	O 	0.84510 0.13800 0.19030 -0.41600
C 	C 	0.60990 0.75890 0.16480 0.06600
H 	H 	0.55180 0.79820 0.17230 0.02300
C 	C 	0.88120 0.58990 0.13210 0.30900
N 	N 	0.67440 0.79910 0.13850 -0.12600
O 	O 	0.95070 0.63940 0.11460 -0.29400
C 	C 	0.76710 0.74510 0.12830 0.07600
H 	H 	0.81590 0.77490 0.11200 0.02900
C 	C 	0.71400 0.60410 0.17000 0.05600
H 	H 	0.72650 0.53800 0.18020 0.03400
Ag	Ag	0.35360 0.67730 0.26773 0.43300
O 	O 	0.56730 0.53420 0.22300 -0.27200
O 	O 	0.48460 0.68790 0.22200 -0.38300
C 	C 	0.55310 0.62510 0.21130 0.32800
C 	C 	0.62650 0.66300 0.18110 -0.12800
W 	W 	0.80557 0.99956 0.20453 1.02200
W 	W 	0.82774 0.00278 0.30775 0.99600
W 	W 	0.85959 0.75313 0.25605 1.01400
W 	W 	0.08063 0.72751 0.30196 1.23800
W 	W 	0.07615 0.70730 0.21130 0.94800
W 	W 	0.01075 0.93895 0.15273 0.99600
Ag	Ag	0.54911 0.93331 0.35965 0.50600
O 	O 	0.06230 0.32030 0.79740 -0.43100
O 	O 	0.20360 0.96820 0.75560 -0.43800
O 	O 	0.01770 0.99530 0.70940 -0.30900
O 	O 	0.18130 0.14580 0.72050 -0.43400
O 	O 	0.97880 0.19320 0.67520 -0.43100
C 	C 	0.21770 0.35360 0.64340 -0.10600
O 	O 	0.88220 0.35810 0.75700 -0.47500
O 	O 	0.95090 0.16140 0.83340 -0.47100
O 	O 	0.11170 0.50610 0.64110 -0.32100
O 	O 	0.09480 0.01680 0.85250 -0.42700
O 	O 	0.78590 0.20240 0.79270 -0.50200
O 	O 	0.16700 0.13840 0.79370 -0.45500
O 	O 	0.07240 0.33280 0.72080 -0.42700
O 	O 	0.98000 0.18530 0.75502 -0.36500
O 	O 	0.88060 0.36950 0.83320 -0.45100
O 	O 	0.13670 0.05120 0.65622 -0.41400
O 	O 	0.15490 0.86200 0.69030 -0.41600
C 	C 	0.39010 0.24110 0.66480 0.06600
H 	H 	0.44820 0.20180 0.67230 0.02300
C 	C 	0.11880 0.41010 0.63210 0.30900
N 	N 	0.32560 0.20090 0.63850 -0.12600
O 	O 	0.04930 0.36060 0.61460 -0.29400
C 	C 	0.23290 0.25490 0.62830 0.07600
H 	H 	0.18410 0.22510 0.61200 0.02900
C 	C 	0.28600 0.39590 0.67000 0.05600
H 	H 	0.27350 0.46200 0.68020 0.03400
Ag	Ag	0.64640 0.32270 0.76773 0.43300
O 	O 	0.43270 0.46580 0.72300 -0.27200
O 	O 	0.51540 0.31210 0.72200 -0.38300
C 	C 	0.44690 0.37490 0.71130 0.32800
C 	C 	0.37350 0.33700 0.68110 -0.12800
W 	W 	0.19443 0.00044 0.70453 1.02200
W 	W 	0.17226 0.99722 0.80775 0.99600
W 	W 	0.14041 0.24687 0.75605 1.01400
W 	W 	0.91937 0.27249 0.80196 1.23800
W 	W 	0.92385 0.29270 0.71130 0.94800
W 	W 	0.98925 0.06105 0.65273 0.99700
Ag	Ag	0.45089 0.06669 0.85965 0.50600
O 	O 	0.17970 0.56230 0.04740 -0.43600
O 	O 	0.53180 0.70360 0.00560 -0.44000
O 	O 	0.50470 0.51770 0.95940 -0.31400
O 	O 	0.35420 0.68130 0.97050 -0.43500
O 	O 	0.30680 0.47880 0.92520 -0.43100
C 	C 	0.14640 0.71770 0.89340 -0.10800
O 	O 	0.14190 0.38220 0.00700 -0.47500
O 	O 	0.33860 0.45090 0.08340 -0.47100
O 	O 	0.99390 0.61170 0.89110 -0.32500
O 	O 	0.48320 0.59480 0.10250 -0.43300
O 	O 	0.29760 0.28590 0.04270 -0.50300
O 	O 	0.36160 0.66700 0.04370 -0.45600
O 	O 	0.16720 0.57240 0.97080 -0.43000
O 	O 	0.31470 0.48000 0.00502 -0.36100
O 	O 	0.13050 0.38060 0.08320 -0.45100
O 	O 	0.44880 0.63670 0.90622 -0.41900
O 	O 	0.63800 0.65490 0.94030 -0.41800
C 	C 	0.25890 0.89010 0.91480 0.06500
H 	H 	0.29820 0.94820 0.92230 0.02300
C 	C 	0.08990 0.61880 0.88210 0.31400
N 	N 	0.29910 0.82560 0.88850 -0.12600
O 	O 	0.13940 0.54930 0.86460 -0.29600
C 	C 	0.24510 0.73290 0.87830 0.07700
H 	H 	0.27490 0.68410 0.86200 0.02800
C 	C 	0.10410 0.78600 0.92000 0.05600
H 	H 	0.03800 0.77350 0.93020 0.03500
Ag	Ag	0.17730 0.14640 0.01773 0.43400
O 	O 	0.03420 0.93270 0.97300 -0.27100
O 	O 	0.18790 0.01540 0.97200 -0.37900
C 	C 	0.12510 0.94690 0.96130 0.32400
C 	C 	0.16300 0.87350 0.93110 -0.12700
W 	W 	0.49956 0.69443 0.95453 1.02700
W 	W 	0.50278 0.67226 0.05775 0.99500
W 	W 	0.25313 0.64041 0.00605 1.01000
W 	W 	0.22751 0.41937 0.05196 1.24400
W 	W 	0.20730 0.42385 0.96130 0.95500
W 	W 	0.43895 0.48925 0.90273 1.01600
Ag	Ag	0.43331 0.95089 0.10965 0.50500
O 	O 	0.82030 0.43770 0.54740 -0.43600
O 	O 	0.46820 0.29640 0.50560 -0.44000
O 	O 	0.49530 0.48230 0.45940 -0.31400
O 	O 	0.64580 0.31870 0.47050 -0.43500
O 	O 	0.69320 0.52120 0.42520 -0.43100
C 	C 	0.85360 0.28230 0.39340 -0.10800
O 	O 	0.85810 0.61780 0.50700 -0.47500
O 	O 	0.66140 0.54910 0.58340 -0.47100
O 	O 	0.00610 0.38830 0.39110 -0.32500
O 	O 	0.51680 0.40520 0.60250 -0.43300
O 	O 	0.70240 0.71410 0.54270 -0.50300
O 	O 	0.63840 0.33300 0.54370 -0.45600
O 	O 	0.83280 0.42760 0.47080 -0.43000
O 	O 	0.68530 0.52000 0.50502 -0.36100
O 	O 	0.86950 0.61940 0.58320 -0.45100
O 	O 	0.55120 0.36330 0.40622 -0.41900
O 	O 	0.36200 0.34510 0.44030 -0.41800
C 	C 	0.74110 0.10990 0.41480 0.06500
H 	H 	0.70180 0.05180 0.42230 0.02300
C 	C 	0.91010 0.38120 0.38210 0.31300
N 	N 	0.70090 0.17440 0.38850 -0.12600
O 	O 	0.86060 0.45070 0.36460 -0.29600
C 	C 	0.75490 0.26710 0.37830 0.07700
H 	H 	0.72510 0.31590 0.36200 0.02800
C 	C 	0.89590 0.21400 0.42000 0.05600
H 	H 	0.96200 0.22650 0.43020 0.03500
Ag	Ag	0.82270 0.85360 0.51773 0.43400
O 	O 	0.96580 0.06730 0.47300 -0.27200
O 	O 	0.81210 0.98460 0.47200 -0.37800
C 	C 	0.87490 0.05310 0.46130 0.32400
C 	C 	0.83700 0.12650 0.43110 -0.12700
W 	W 	0.50044 0.30557 0.45453 1.02700
W 	W 	0.49722 0.32774 0.55775 0.99500
W 	W 	0.74687 0.35959 0.50605 1.01000
W 	W 	0.77249 0.58063 0.55196 1.24400
W 	W 	0.79270 0.57615 0.46130 0.95500
W 	W 	0.56105 0.51075 0.40273 1.01600
Ag	Ag	0.56669 0.04911 0.60965 0.50500
