data_crystal

_cell_length_a 15.13160
_cell_length_b 24.73690
_cell_length_c 15.36130
_cell_angle_alpha 90.00000
_cell_angle_beta  110.84700
_cell_angle_gamma 90.00000

_symmetry_space_group_name_	'P 1'
_symmetry_space_group_name_H-M	'P 1'

loop_
_symmetry_equiv_pos_as_xyz
  x,y,z

loop_
_atom_site_label
_atom_site_type_symbol
_atom_site_fract_x
_atom_site_fract_y
_atom_site_fract_z
_atom_site_charge
Co	Co	0.89788 0.52065 0.11014 1.12000
N 	N 	0.94260 0.52130 0.26250 -0.24500
O 	O 	0.03950 0.50910 0.12220 -0.36700
N 	N 	0.74780 0.51450 0.07170 -0.25600
N 	N 	0.89840 0.60600 0.11160 -0.25300
O 	O 	0.11870 0.48410 0.02970 -0.37200
C 	C 	0.02380 0.47140 0.40010 -0.14700
H 	H 	0.06080 0.44180 0.42810 0.07700
C 	C 	0.99280 0.50580 0.45120 0.06300
C 	C 	0.04410 0.49830 0.04360 0.19200
C 	C 	0.59570 0.52100 0.95840 -0.16800
H 	H 	0.56010 0.52970 0.89700 0.08400
C 	C 	0.55190 0.50190 0.01500 0.06400
C 	C 	0.00110 0.48020 0.31000 0.07800
H 	H 	0.02610 0.45730 0.27670 -0.01500
C 	C 	0.90300 0.72200 0.11600 0.05600
C 	C 	0.71060 0.49790 0.13470 0.05600
H 	H 	0.74790 0.49170 0.19670 -0.01600
C 	C 	0.93760 0.54900 0.40780 -0.14100
H 	H 	0.91300 0.57230 0.44100 0.07300
C 	C 	0.68760 0.52740 0.98890 0.11400
H 	H 	0.71290 0.54260 0.94750 -0.01200
C 	C 	0.91880 0.55750 0.31090 0.08300
H 	H 	0.88940 0.58920 0.28250 -0.01300
C 	C 	0.61160 0.49040 0.10140 -0.13200
H 	H 	0.58540 0.47630 0.14280 0.07000
C 	C 	0.97500 0.63260 0.14650 0.08100
H 	H 	0.03080 0.61290 0.17030 -0.00700
C 	C 	0.98270 0.69110 0.15230 -0.14200
H 	H 	0.04140 0.70740 0.18050 0.07800
C 	C 	0.82170 0.69190 0.08130 -0.14100
H 	H 	0.76390 0.70980 0.05900 0.07400
C 	C 	0.82220 0.63570 0.07800 0.08700
H 	H 	0.76470 0.61810 0.05020 -0.01600
Co	Co	0.10212 0.02065 0.88986 1.11800
N 	N 	0.05740 0.02130 0.73750 -0.24600
O 	O 	0.96050 0.00910 0.87780 -0.36800
N 	N 	0.25220 0.01450 0.92830 -0.25800
N 	N 	0.10160 0.10600 0.88840 -0.25300
O 	O 	0.88130 0.98410 0.97030 -0.37200
C 	C 	0.97620 0.97140 0.59990 -0.14800
H 	H 	0.93920 0.94180 0.57190 0.07600
C 	C 	0.00720 0.00580 0.54880 0.06100
C 	C 	0.95590 0.99830 0.95640 0.19000
C 	C 	0.40430 0.02100 0.04160 -0.16600
H 	H 	0.43990 0.02970 0.10300 0.08400
C 	C 	0.44810 0.00190 0.98500 0.06200
C 	C 	0.99890 0.98020 0.69000 0.07800
H 	H 	0.97390 0.95730 0.72330 -0.01500
C 	C 	0.09700 0.22200 0.88400 0.05600
C 	C 	0.28940 0.99790 0.86530 0.05700
H 	H 	0.25210 0.99170 0.80330 -0.01600
C 	C 	0.06240 0.04900 0.59220 -0.14100
H 	H 	0.08700 0.07230 0.55900 0.07300
C 	C 	0.31240 0.02740 0.01110 0.11400
H 	H 	0.28710 0.04260 0.05250 -0.01200
C 	C 	0.08120 0.05750 0.68910 0.08300
H 	H 	0.11060 0.08920 0.71750 -0.01300
C 	C 	0.38840 0.99040 0.89860 -0.13000
H 	H 	0.41460 0.97630 0.85720 0.07000
C 	C 	0.02500 0.13260 0.85350 0.08000
H 	H 	0.96920 0.11290 0.82970 -0.00600
C 	C 	0.01730 0.19110 0.84770 -0.14200
H 	H 	0.95860 0.20740 0.81950 0.07800
C 	C 	0.17830 0.19190 0.91870 -0.14100
H 	H 	0.23610 0.20980 0.94100 0.07400
C 	C 	0.17780 0.13570 0.92200 0.08700
H 	H 	0.23530 0.11810 0.94980 -0.01600
Co	Co	0.10212 0.47935 0.88986 1.11900
N 	N 	0.05740 0.47870 0.73750 -0.24600
O 	O 	0.96050 0.49090 0.87780 -0.36800
N 	N 	0.25220 0.48550 0.92830 -0.25700
N 	N 	0.10160 0.39400 0.88840 -0.25400
O 	O 	0.88130 0.51590 0.97030 -0.37300
C 	C 	0.97620 0.52860 0.59990 -0.14800
H 	H 	0.93920 0.55820 0.57190 0.07600
C 	C 	0.00720 0.49420 0.54880 0.06200
C 	C 	0.95590 0.50170 0.95640 0.19100
C 	C 	0.40430 0.47900 0.04160 -0.16800
H 	H 	0.43990 0.47030 0.10300 0.08400
C 	C 	0.44810 0.49810 0.98500 0.06400
C 	C 	0.99890 0.51980 0.69000 0.07800
H 	H 	0.97390 0.54270 0.72330 -0.01500
C 	C 	0.09700 0.27800 0.88400 0.05600
C 	C 	0.28940 0.50210 0.86530 0.05600
H 	H 	0.25210 0.50830 0.80330 -0.01600
C 	C 	0.06240 0.45100 0.59220 -0.14100
H 	H 	0.08700 0.42770 0.55900 0.07300
C 	C 	0.31240 0.47260 0.01110 0.11400
H 	H 	0.28710 0.45740 0.05250 -0.01200
C 	C 	0.08120 0.44250 0.68910 0.08300
H 	H 	0.11060 0.41080 0.71750 -0.01300
C 	C 	0.38840 0.50960 0.89860 -0.13200
H 	H 	0.41460 0.52370 0.85720 0.07000
C 	C 	0.02500 0.36740 0.85350 0.08100
H 	H 	0.96920 0.38710 0.82970 -0.00700
C 	C 	0.01730 0.30890 0.84770 -0.14200
H 	H 	0.95860 0.29260 0.81950 0.07800
C 	C 	0.17830 0.30810 0.91870 -0.14100
H 	H 	0.23610 0.29020 0.94100 0.07400
C 	C 	0.17780 0.36430 0.92200 0.08700
H 	H 	0.23530 0.38190 0.94980 -0.01600
Co	Co	0.89788 0.97935 0.11014 1.11800
N 	N 	0.94260 0.97870 0.26250 -0.24600
O 	O 	0.03950 0.99090 0.12220 -0.36800
N 	N 	0.74780 0.98550 0.07170 -0.25800
N 	N 	0.89840 0.89400 0.11160 -0.25300
O 	O 	0.11870 0.01590 0.02970 -0.37200
C 	C 	0.02380 0.02860 0.40010 -0.14800
H 	H 	0.06080 0.05820 0.42810 0.07600
C 	C 	0.99280 0.99420 0.45120 0.06100
C 	C 	0.04410 0.00170 0.04360 0.19000
C 	C 	0.59570 0.97900 0.95840 -0.16600
H 	H 	0.56010 0.97030 0.89700 0.08400
C 	C 	0.55190 0.99810 0.01500 0.06200
C 	C 	0.00110 0.01980 0.31000 0.07800
H 	H 	0.02610 0.04270 0.27670 -0.01500
C 	C 	0.90300 0.77800 0.11600 0.05600
C 	C 	0.71060 0.00210 0.13470 0.05700
H 	H 	0.74790 0.00830 0.19670 -0.01600
C 	C 	0.93760 0.95100 0.40780 -0.14100
H 	H 	0.91300 0.92770 0.44100 0.07300
C 	C 	0.68760 0.97260 0.98890 0.11400
H 	H 	0.71290 0.95740 0.94750 -0.01200
C 	C 	0.91880 0.94250 0.31090 0.08300
H 	H 	0.88940 0.91080 0.28250 -0.01300
C 	C 	0.61160 0.00960 0.10140 -0.13000
H 	H 	0.58540 0.02370 0.14280 0.07000
C 	C 	0.97500 0.86740 0.14650 0.08000
H 	H 	0.03080 0.88710 0.17030 -0.00600
C 	C 	0.98270 0.80890 0.15230 -0.14200
H 	H 	0.04140 0.79260 0.18050 0.07800
C 	C 	0.82170 0.80810 0.08130 -0.14100
H 	H 	0.76390 0.79020 0.05900 0.07400
C 	C 	0.82220 0.86430 0.07800 0.08700
H 	H 	0.76470 0.88190 0.05020 -0.01600
