data_crystal

_cell_length_a 11.66500
_cell_length_b 13.91500
_cell_length_c 17.34300
_cell_angle_alpha 95.51400
_cell_angle_beta  99.79200
_cell_angle_gamma 101.31300

_symmetry_space_group_name_	'P 1'
_symmetry_space_group_name_H-M	'P 1'

loop_
_symmetry_equiv_pos_as_xyz
  x,y,z

loop_
_atom_site_label
_atom_site_type_symbol
_atom_site_fract_x
_atom_site_fract_y
_atom_site_fract_z
_atom_site_charge
Ce	Ce	0.84883 0.06065 0.00409 2.11700
O 	O 	0.70350 0.07890 0.08640 -0.67500
O 	O 	0.33160 0.93820 0.09120 -0.55700
O 	O 	0.97570 0.13320 0.92010 -0.50900
O 	O 	0.66530 0.90150 0.99360 -0.44700
O 	O 	0.89220 0.92850 0.92500 -0.52600
O 	O 	0.10840 0.04620 0.89830 -0.53300
O 	O 	0.99820 0.82330 0.89140 -0.41600
N 	N 	0.12340 0.39110 0.52160 -0.12200
N 	N 	0.17580 0.51810 0.40450 -0.12400
N 	N 	0.34020 0.49910 0.62430 -0.12500
N 	N 	0.39030 0.63000 0.50800 -0.12000
C 	C 	0.09790 0.18110 0.82910 -0.21200
C 	C 	0.61310 0.70070 0.70010 0.13200
C 	C 	0.90190 0.85600 0.88180 0.43100
C 	C 	0.38230 0.83920 0.19130 -0.18700
C 	C 	0.21790 0.58080 0.35420 0.11400
C 	C 	0.80490 0.80340 0.81570 -0.17600
C 	C 	0.16590 0.29920 0.71940 0.15700
C 	C 	0.07960 0.45380 0.36100 0.11500
C 	C 	0.28160 0.83550 0.22200 0.12400
H 	H 	0.22490 0.87210 0.20230 0.00600
C 	C 	0.05560 0.11520 0.88650 0.48500
C 	C 	0.60890 0.79140 0.73990 -0.16500
H 	H 	0.54040 0.81840 0.72710 0.11400
C 	C 	0.04540 0.25800 0.81360 0.13000
H 	H 	0.98410 0.27060 0.84030 0.00700
C 	C 	0.29960 0.43550 0.67340 0.11200
C 	C 	0.92820 0.21750 0.29730 -0.19400
H 	H 	0.99690 0.19540 0.31980 0.08700
C 	C 	0.70380 0.84250 0.79790 0.10400
H 	H 	0.70000 0.90390 0.82540 0.02600
C 	C 	0.37850 0.45930 0.75120 -0.08100
H 	H 	0.37050 0.42620 0.79610 0.07000
C 	C 	0.34190 0.72220 0.31000 0.14800
C 	C 	0.05910 0.47410 0.27980 -0.07000
H 	H 	0.99690 0.43920 0.23800 0.07200
C 	C 	0.50690 0.64140 0.64150 -0.10900
C 	C 	0.40760 0.90020 0.12850 0.48200
C 	C 	0.00950 0.37460 0.38630 -0.11400
C 	C 	0.26160 0.77820 0.28200 -0.18200
H 	H 	0.19220 0.77750 0.30390 0.10200
C 	C 	0.46340 0.53640 0.74670 -0.07800
H 	H 	0.52770 0.56920 0.78790 0.06800
C 	C 	0.11500 0.34050 0.58520 0.10800
C 	C 	0.14560 0.55220 0.27540 -0.08600
H 	H 	0.15710 0.58250 0.22970 0.06800
C 	C 	0.19720 0.36260 0.65670 -0.12400
C 	C 	0.84520 0.15730 0.23460 0.13300
H 	H 	0.85850 0.09590 0.21320 -0.03400
C 	C 	0.44010 0.56080 0.66810 0.11300
C 	C 	0.46180 0.78380 0.21940 0.12400
H 	H 	0.53210 0.78600 0.19830 0.01600
C 	C 	0.50120 0.75830 0.46590 -0.07300
H 	H 	0.52910 0.80510 0.43320 0.07300
C 	C 	0.91160 0.30760 0.32630 0.14500
C 	C 	0.74540 0.18870 0.20530 -0.22600
C 	C 	0.80940 0.71780 0.77510 0.10700
H 	H 	0.87940 0.69240 0.78660 0.02800
C 	C 	0.31640 0.65860 0.37260 -0.12100
C 	C 	0.21800 0.22130 0.73430 -0.20600
H 	H 	0.27790 0.20790 0.70660 0.09700
C 	C 	0.71560 0.66470 0.71670 -0.17400
H 	H 	0.72190 0.60450 0.68850 0.10400
C 	C 	0.44130 0.72430 0.27840 -0.19000
H 	H 	0.49650 0.68550 0.29640 0.10100
C 	C 	0.01070 0.26620 0.56530 -0.05800
H 	H 	0.98230 0.22140 0.59930 0.04000
C 	C 	0.39640 0.68020 0.44350 0.12000
C 	C 	0.48480 0.67350 0.56760 0.12000
C 	C 	0.02800 0.34760 0.46150 0.12600
C 	C 	0.55320 0.75420 0.54050 -0.07400
H 	H 	0.62350 0.79780 0.56980 0.07400
C 	C 	0.18350 0.16200 0.78960 0.13500
H 	H 	0.21980 0.10800 0.79990 -0.00100
C 	C 	0.72460 0.27550 0.23700 0.13800
H 	H 	0.65110 0.29310 0.21850 0.00400
C 	C 	0.80960 0.33940 0.29650 -0.19300
H 	H 	0.79770 0.40230 0.31560 0.11100
C 	C 	0.08090 0.31780 0.75920 -0.20800
H 	H 	0.04540 0.37250 0.74960 0.10700
C 	C 	0.95710 0.26820 0.49060 -0.10400
H 	H 	0.88570 0.22510 0.46250 0.06200
C 	C 	0.66380 0.12980 0.13480 0.47900
O 	O 	0.55150 0.10150 0.14200 -0.26500
O 	O 	0.48600 0.80960 0.00120 -0.34100
C 	C 	0.59500 0.81800 0.99050 0.38000
C 	C 	0.73840 0.71090 0.96440 0.05800
C 	C 	0.76100 0.61900 0.94180 0.01200
C 	C 	0.67410 0.53370 0.93790 0.08000
C 	C 	0.56440 0.54030 0.95670 -0.02300
C 	C 	0.54180 0.63230 0.97930 0.08900
C 	C 	0.62880 0.71760 0.98320 -0.09900
O 	O 	0.52360 0.94570 0.13970 -0.21700
O 	O 	0.81930 0.23820 0.00240 -0.49300
O 	O 	0.93140 0.34420 0.10180 -0.27400
O 	O 	0.56150 0.15070 0.10520 -0.27700
O 	O 	0.48780 0.87740 0.08700 -0.30900
C 	C 	0.85570 0.31860 0.03550 0.43600
C 	C 	0.82190 0.49330 0.05760 0.08800
C 	C 	0.80770 0.40500 0.00850 -0.22900
C 	C 	0.75120 0.39530 0.92990 0.16300
C 	C 	0.70900 0.47390 0.90050 -0.07200
C 	C 	0.77970 0.57180 0.02810 -0.09200
C 	C 	0.72300 0.56210 0.94960 0.00000
Ce	Ce	0.15117 0.93935 0.99591 2.21800
O 	O 	0.29650 0.92110 0.91360 -0.56700
O 	O 	0.66840 0.06180 0.90880 -0.59500
O 	O 	0.02430 0.86680 0.07990 -0.51700
O 	O 	0.33470 0.09850 0.00640 -0.53500
O 	O 	0.10780 0.07150 0.07500 -0.64400
O 	O 	0.89160 0.95380 0.10170 -0.46600
O 	O 	0.00180 0.17670 0.10860 -0.44500
N 	N 	0.87660 0.60890 0.47840 -0.12100
N 	N 	0.82420 0.48190 0.59550 -0.12500
N 	N 	0.65980 0.50090 0.37570 -0.12500
N 	N 	0.60970 0.37000 0.49200 -0.12100
C 	C 	0.90210 0.81890 0.17090 -0.19000
C 	C 	0.38690 0.29930 0.29990 0.14300
C 	C 	0.09810 0.14400 0.11820 0.45300
C 	C 	0.61770 0.16080 0.80870 -0.21100
C 	C 	0.78210 0.41920 0.64580 0.11300
C 	C 	0.19510 0.19660 0.18430 -0.21700
C 	C 	0.83410 0.70080 0.28060 0.14700
C 	C 	0.92040 0.54620 0.63900 0.11600
C 	C 	0.71840 0.16450 0.77800 0.12800
H 	H 	0.77510 0.12790 0.79770 -0.02000
C 	C 	0.94440 0.88480 0.11350 0.46500
C 	C 	0.39110 0.20860 0.26010 -0.19300
H 	H 	0.45960 0.18160 0.27290 0.10200
C 	C 	0.95460 0.74200 0.18640 0.10600
H 	H 	0.01590 0.72940 0.15970 0.01100
C 	C 	0.70040 0.56450 0.32660 0.10900
C 	C 	0.07180 0.78250 0.70270 -0.16600
H 	H 	0.00310 0.80460 0.68020 0.10000
C 	C 	0.29620 0.15750 0.20210 0.12700
H 	H 	0.30000 0.09610 0.17460 -0.02900
C 	C 	0.62150 0.54070 0.24880 -0.07600
H 	H 	0.62950 0.57380 0.20390 0.06200
C 	C 	0.65810 0.27780 0.69000 0.14900
C 	C 	0.94090 0.52590 0.72020 -0.08100
H 	H 	0.00310 0.56080 0.76200 0.07900
C 	C 	0.49310 0.35860 0.35850 -0.11700
C 	C 	0.59240 0.09980 0.87150 0.49500
C 	C 	0.99050 0.62540 0.61370 -0.11100
C 	C 	0.73840 0.22180 0.71800 -0.20000
H 	H 	0.80780 0.22250 0.69610 0.09400
C 	C 	0.53660 0.46360 0.25330 -0.08500
H 	H 	0.47230 0.43080 0.21210 0.07200
C 	C 	0.88500 0.65950 0.41480 0.12000
C 	C 	0.85440 0.44780 0.72460 -0.08200
H 	H 	0.84290 0.41750 0.77030 0.06900
C 	C 	0.80280 0.63740 0.34330 -0.12200
C 	C 	0.15480 0.84270 0.76540 0.11100
H 	H 	0.14150 0.90410 0.78680 0.02300
C 	C 	0.55990 0.43920 0.33190 0.11600
C 	C 	0.53820 0.21620 0.78060 0.12600
H 	H 	0.46790 0.21400 0.80170 0.01600
C 	C 	0.49880 0.24170 0.53410 -0.08100
H 	H 	0.47090 0.19490 0.56680 0.05100
C 	C 	0.08840 0.69240 0.67370 0.13800
C 	C 	0.25460 0.81130 0.79470 -0.17900
C 	C 	0.19060 0.28220 0.22490 0.12900
H 	H 	0.12060 0.30760 0.21340 0.02000
C 	C 	0.68360 0.34140 0.62740 -0.12500
C 	C 	0.78200 0.77870 0.26570 -0.18500
H 	H 	0.72210 0.79210 0.29340 0.10500
C 	C 	0.28440 0.33530 0.28330 -0.19400
H 	H 	0.27810 0.39550 0.31150 0.11000
C 	C 	0.55870 0.27570 0.72160 -0.20000
H 	H 	0.50350 0.31450 0.70360 0.10200
C 	C 	0.98930 0.73380 0.43470 -0.08200
H 	H 	0.01770 0.77860 0.40070 0.07200
C 	C 	0.60360 0.31980 0.55650 0.11400
C 	C 	0.51520 0.32650 0.43240 0.11700
C 	C 	0.97200 0.65240 0.53850 0.11800
C 	C 	0.44680 0.24580 0.45950 -0.08300
H 	H 	0.37650 0.20220 0.43020 0.05300
C 	C 	0.81650 0.83800 0.21040 0.11800
H 	H 	0.78020 0.89200 0.20010 0.03300
C 	C 	0.27540 0.72450 0.76300 0.11700
H 	H 	0.34890 0.70690 0.78150 0.01400
C 	C 	0.19040 0.66060 0.70350 -0.17400
H 	H 	0.20230 0.59770 0.68440 0.10700
C 	C 	0.91910 0.68220 0.24080 -0.19200
H 	H 	0.95460 0.62750 0.25040 0.09800
C 	C 	0.04290 0.73180 0.50940 -0.07000
H 	H 	0.11430 0.77490 0.53750 0.07200
C 	C 	0.33620 0.87020 0.86520 0.45300
O 	O 	0.44850 0.89850 0.85800 -0.19100
O 	O 	0.51400 0.19040 0.99880 -0.21400
C 	C 	0.40500 0.18200 0.00950 0.25900
C 	C 	0.26160 0.28910 0.03560 0.02500
C 	C 	0.23900 0.38100 0.05820 -0.03700
C 	C 	0.32590 0.46630 0.06210 -0.02800
C 	C 	0.43560 0.45970 0.04330 -0.03000
C 	C 	0.45820 0.36770 0.02070 0.02300
C 	C 	0.37120 0.28240 0.01680 -0.08500
O 	O 	0.47640 0.05430 0.86030 -0.29700
O 	O 	0.18070 0.76180 0.99760 -0.41700
O 	O 	0.06860 0.65580 0.89820 -0.25100
O 	O 	0.43850 0.84930 0.89480 -0.25300
O 	O 	0.51220 0.12260 0.91300 -0.29300
C 	C 	0.14430 0.68140 0.96450 0.38900
C 	C 	0.17810 0.50670 0.94240 0.02700
C 	C 	0.19230 0.59500 0.99150 -0.04600
C 	C 	0.24880 0.60470 0.07010 -0.00900
C 	C 	0.29100 0.52610 0.09950 -0.00200
C 	C 	0.22030 0.42820 0.97190 0.05000
C 	C 	0.27700 0.43790 0.05040 0.02100
Ce	Ce	0.50000 0.00000 -0.00000 2.11700
