data_crystal

_cell_length_a 11.10530
_cell_length_b 12.57670
_cell_length_c 20.07510
_cell_angle_alpha 82.84000
_cell_angle_beta  77.76500
_cell_angle_gamma 79.25800

_symmetry_space_group_name_	'P 1'
_symmetry_space_group_name_H-M	'P 1'

loop_
_symmetry_equiv_pos_as_xyz
  x,y,z

loop_
_atom_site_label
_atom_site_type_symbol
_atom_site_fract_x
_atom_site_fract_y
_atom_site_fract_z
_atom_site_charge
Mn	Mn	0.47676 0.76862 0.75526 1.20600
Mn	Mn	0.37142 0.51055 0.77220 1.24300
Mn	Mn	0.62848 0.28246 0.73460 1.26800
Mn	Mn	0.32630 0.25547 0.77027 1.26600
Mn	Mn	0.58037 0.02530 0.74234 1.28200
Mn	Mn	0.52324 0.23138 0.24474 1.20600
Mn	Mn	0.62858 0.48945 0.22780 1.24300
Mn	Mn	0.37152 0.71754 0.26540 1.26800
Mn	Mn	0.67370 0.74453 0.22973 1.26500
Mn	Mn	0.41963 0.97470 0.25766 1.28100
H 	H 	0.94370 0.88640 0.74950 0.01200
H 	H 	0.14740 0.80110 0.75100 0.06100
H 	H 	0.03110 0.18540 0.75750 0.06000
H 	H 	0.00490 0.64860 0.77260 0.00900
H 	H 	0.80070 0.73390 0.76960 0.05400
H 	H 	0.92420 0.35270 0.75220 0.06000
H 	H 	0.44950 0.93440 0.47230 0.01800
H 	H 	0.46500 0.90820 0.58780 0.07100
H 	H 	0.29780 0.66010 0.48680 0.06000
H 	H 	0.56990 0.55500 0.01610 0.00600
H 	H 	0.51830 0.60810 0.90940 0.05400
H 	H 	0.67860 0.84500 0.02340 0.06100
H 	H 	0.28620 0.61960 0.90640 0.95600
H 	H 	0.18400 0.67240 0.86240 0.95900
H 	H 	0.17460 0.75490 0.94570 -1.14600
H 	H 	0.31590 0.77490 0.92000 -1.11600
H 	H 	0.21200 0.82800 0.87580 -1.11400
H 	H 	0.77710 0.85720 0.65800 0.63800
H 	H 	0.68660 0.92220 0.61010 0.65400
H 	H 	0.79130 0.78350 0.57040 -0.70700
H 	H 	0.73640 0.70980 0.63670 -0.69700
H 	H 	0.64560 0.77560 0.58810 -0.69400
H 	H 	0.51730 0.16430 0.84050 0.16700
H 	H 	0.43760 0.38070 0.66780 0.16200
H 	H 	0.27950 0.69820 0.79120 -0.05600
H 	H 	0.58030 0.93770 0.69350 -0.28500
H 	H 	0.05630 0.11360 0.25050 0.01200
H 	H 	0.85260 0.19890 0.24900 0.06100
H 	H 	0.96890 0.81460 0.24250 0.06000
H 	H 	0.99510 0.35140 0.22740 0.00900
H 	H 	0.19930 0.26610 0.23040 0.05400
H 	H 	0.07580 0.64730 0.24780 0.06000
H 	H 	0.55050 0.06560 0.52770 0.01800
H 	H 	0.53500 0.09180 0.41220 0.07100
H 	H 	0.70220 0.33990 0.51320 0.06000
H 	H 	0.43010 0.44500 0.98390 0.00600
H 	H 	0.48170 0.39190 0.09060 0.05400
H 	H 	0.32140 0.15500 0.97660 0.06100
H 	H 	0.71380 0.38040 0.09360 0.95600
H 	H 	0.81600 0.32760 0.13760 0.95900
H 	H 	0.82540 0.24510 0.05430 -1.14600
H 	H 	0.68410 0.22510 0.08000 -1.11600
H 	H 	0.78800 0.17200 0.12420 -1.11400
H 	H 	0.22290 0.14280 0.34200 0.63800
H 	H 	0.31340 0.07780 0.38990 0.65400
H 	H 	0.20870 0.21650 0.42960 -0.70700
H 	H 	0.26360 0.29020 0.36330 -0.69700
H 	H 	0.35440 0.22440 0.41190 -0.69400
H 	H 	0.48270 0.83570 0.15950 0.16700
H 	H 	0.56240 0.61930 0.33220 0.16200
H 	H 	0.72050 0.30180 0.20880 -0.05600
H 	H 	0.41970 0.06230 0.30650 -0.28500
C 	C 	0.83690 0.09320 0.74710 0.39500
C 	C 	0.96960 0.04350 0.75190 -0.09600
C 	C 	0.00540 0.92880 0.75080 0.04600
C 	C 	0.12460 0.87760 0.75170 -0.11600
C 	C 	0.21280 0.94470 0.75380 0.12400
C 	C 	0.17740 0.05720 0.75650 0.04200
C 	C 	0.05470 0.10910 0.75560 -0.03700
C 	C 	0.11500 0.44420 0.76610 0.39000
C 	C 	0.98160 0.49260 0.76280 -0.09900
C 	C 	0.94460 0.60680 0.76810 0.04200
C 	C 	0.82470 0.65770 0.76690 -0.12700
C 	C 	0.73840 0.59110 0.76130 0.10300
C 	C 	0.77550 0.47910 0.75670 0.04100
C 	C 	0.89900 0.42830 0.75650 -0.03800
C 	C 	0.37590 0.81310 0.39250 0.35800
C 	C 	0.37680 0.79750 0.46820 -0.09900
C 	C 	0.42420 0.87190 0.49930 0.03400
C 	C 	0.43500 0.85690 0.56730 -0.10800
C 	C 	0.39940 0.76180 0.60440 0.09800
C 	C 	0.34980 0.68930 0.57460 0.03900
C 	C 	0.33510 0.70770 0.50630 -0.03200
C 	C 	0.65360 0.65970 0.10010 0.37300
C 	C 	0.62780 0.69520 0.02960 -0.11300
C 	C 	0.58070 0.62540 0.99490 0.04500
C 	C 	0.55010 0.65560 0.93200 -0.11400
C 	C 	0.56810 0.76080 0.90230 0.11600
C 	C 	0.61600 0.83010 0.93580 0.04200
C 	C 	0.64650 0.79800 0.00050 -0.02400
C 	C 	0.26440 0.68140 0.87310 -3.34100
C 	C 	0.24040 0.76430 0.90540 4.02400
C 	C 	0.69850 0.85660 0.64240 -2.18700
C 	C 	0.71910 0.77710 0.60750 2.51000
C 	C 	0.16310 0.90680 0.25290 0.39500
C 	C 	0.03040 0.95650 0.24810 -0.09600
C 	C 	0.99460 0.07120 0.24920 0.04600
C 	C 	0.87540 0.12240 0.24830 -0.11600
C 	C 	0.78720 0.05530 0.24620 0.12400
C 	C 	0.82260 0.94280 0.24350 0.04200
C 	C 	0.94530 0.89090 0.24440 -0.03700
C 	C 	0.88500 0.55580 0.23390 0.39000
C 	C 	0.01840 0.50740 0.23720 -0.09900
C 	C 	0.05540 0.39320 0.23190 0.04200
C 	C 	0.17530 0.34230 0.23310 -0.12700
C 	C 	0.26160 0.40890 0.23870 0.10300
C 	C 	0.22450 0.52090 0.24330 0.04100
C 	C 	0.10100 0.57170 0.24350 -0.03800
C 	C 	0.62410 0.18690 0.60750 0.35800
C 	C 	0.62320 0.20250 0.53180 -0.09900
C 	C 	0.57580 0.12810 0.50070 0.03400
C 	C 	0.56500 0.14310 0.43270 -0.10800
C 	C 	0.60060 0.23820 0.39560 0.09800
C 	C 	0.65020 0.31070 0.42540 0.03900
C 	C 	0.66490 0.29230 0.49370 -0.03200
C 	C 	0.34640 0.34030 0.89990 0.37300
C 	C 	0.37220 0.30480 0.97040 -0.11300
C 	C 	0.41930 0.37460 0.00510 0.04500
C 	C 	0.44990 0.34440 0.06800 -0.11400
C 	C 	0.43190 0.23920 0.09770 0.11600
C 	C 	0.38400 0.16990 0.06420 0.04200
C 	C 	0.35350 0.20200 0.99950 -0.02400
C 	C 	0.73560 0.31860 0.12690 -3.34100
C 	C 	0.75960 0.23570 0.09460 4.02400
C 	C 	0.30150 0.14340 0.35760 -2.18700
C 	C 	0.28090 0.22290 0.39250 2.51000
N 	N 	0.33770 0.92080 0.75320 -0.21000
N 	N 	0.37590 0.01400 0.75530 -0.17700
N 	N 	0.28330 0.09850 0.75740 -0.21100
N 	N 	0.67070 0.43790 0.75340 -0.20900
N 	N 	0.57700 0.52250 0.75570 -0.19500
N 	N 	0.61480 0.61490 0.76000 -0.22600
N 	N 	0.32770 0.60440 0.62170 -0.09300
N 	N 	0.36400 0.62360 0.67670 -0.18600
N 	N 	0.40720 0.71780 0.66910 -0.22800
N 	N 	0.54670 0.81540 0.84180 -0.22000
N 	N 	0.58120 0.91310 0.83970 -0.17300
N 	N 	0.62210 0.92620 0.89490 -0.08400
N 	N 	0.66230 0.07920 0.24680 -0.21000
N 	N 	0.62410 0.98600 0.24470 -0.17700
N 	N 	0.71670 0.90150 0.24260 -0.21100
N 	N 	0.32930 0.56210 0.24660 -0.20900
N 	N 	0.42300 0.47750 0.24430 -0.19500
N 	N 	0.38520 0.38510 0.24000 -0.22600
N 	N 	0.67230 0.39560 0.37830 -0.09300
N 	N 	0.63600 0.37640 0.32330 -0.18600
N 	N 	0.59280 0.28220 0.33090 -0.22800
N 	N 	0.45330 0.18460 0.15820 -0.22000
N 	N 	0.41880 0.08690 0.16030 -0.17300
N 	N 	0.37790 0.07380 0.10510 -0.08400
O 	O 	0.77150 0.03240 0.73241 -0.49400
O 	O 	0.80120 0.19190 0.75739 -0.45800
O 	O 	0.15270 0.34740 0.75094 -0.46100
O 	O 	0.17990 0.50330 0.78381 -0.50400
O 	O 	0.32620 0.74780 0.36883 -0.46400
O 	O 	0.42730 0.88910 0.35831 -0.47700
O 	O 	0.61150 0.57690 0.13050 -0.51500
O 	O 	0.71070 0.71710 0.12552 -0.46400
O 	O 	0.51400 0.17360 0.79069 -0.73700
O 	O 	0.44190 0.36680 0.71745 -0.73800
O 	O 	0.34410 0.66580 0.81909 0.41900
O 	O 	0.61190 0.87160 0.69402 0.30300
O 	O 	0.22850 0.96760 0.26759 -0.49400
O 	O 	0.19880 0.80810 0.24261 -0.45800
O 	O 	0.84730 0.65260 0.24906 -0.46100
O 	O 	0.82010 0.49670 0.21619 -0.50400
O 	O 	0.67380 0.25220 0.63117 -0.46400
O 	O 	0.57270 0.11090 0.64169 -0.47700
O 	O 	0.38850 0.42310 0.86950 -0.51500
O 	O 	0.28930 0.28290 0.87448 -0.46400
O 	O 	0.48600 0.82640 0.20931 -0.73700
O 	O 	0.55810 0.63320 0.28255 -0.73800
O 	O 	0.65590 0.33420 0.18091 0.41900
O 	O 	0.38810 0.12840 0.30598 0.30300
