data_crystal

_cell_length_a 11.60050
_cell_length_b 16.44880
_cell_length_c 12.08280
_cell_angle_alpha 90.00000
_cell_angle_beta  112.29500
_cell_angle_gamma 90.00000

_symmetry_space_group_name_	'P 1'
_symmetry_space_group_name_H-M	'P 1'

loop_
_symmetry_equiv_pos_as_xyz
  x,y,z

loop_
_atom_site_label
_atom_site_type_symbol
_atom_site_fract_x
_atom_site_fract_y
_atom_site_fract_z
_atom_site_charge
Nd	Nd	0.19376 0.02640 0.57694 2.34000
S 	S 	0.05450 0.21759 0.21010 0.09100
S 	S 	0.48990 0.28146 0.75360 0.07300
O 	O 	0.13730 0.07940 0.37410 -0.49800
O 	O 	0.95020 0.03190 0.34990 -0.58600
O 	O 	0.05480 0.36120 0.06800 -0.54500
O 	O 	0.85510 0.39750 0.02430 -0.53700
O 	O 	0.27520 0.10420 0.78130 -0.39600
O 	O 	0.34580 0.13840 0.64150 -0.44800
O 	O 	0.64460 0.43200 0.79080 -0.42800
O 	O 	0.61960 0.47330 0.95600 -0.40400
C 	C 	0.96130 0.15240 0.24960 -0.12200
C 	C 	0.84040 0.17610 0.20460 0.00200
H 	H 	0.77730 0.14860 0.21870 0.03800
C 	C 	0.82070 0.24650 0.13470 0.01100
H 	H 	0.74300 0.27050 0.09620 0.04300
C 	C 	0.92890 0.27600 0.12940 -0.14000
C 	C 	0.02090 0.08330 0.32970 0.43300
C 	C 	0.94810 0.35090 0.07000 0.49400
C 	C 	0.39520 0.22570 0.80520 -0.08000
C 	C 	0.38370 0.26310 0.90320 -0.00700
H 	H 	0.33510 0.24280 0.94290 0.05000
C 	C 	0.45390 0.33550 0.93620 -0.02000
H 	H 	0.45770 0.36760 0.00100 0.06600
C 	C 	0.51570 0.35350 0.86300 -0.06300
C 	C 	0.33500 0.15100 0.73960 0.32300
C 	C 	0.59890 0.42390 0.86990 0.29700
Nd	Nd	0.80624 0.52640 0.92306 2.35900
S 	S 	0.94550 0.71759 0.28990 0.10100
S 	S 	0.51010 0.78146 0.74640 0.07400
O 	O 	0.86270 0.57940 0.12590 -0.50300
O 	O 	0.04980 0.53190 0.15010 -0.60400
O 	O 	0.94520 0.86120 0.43200 -0.54500
O 	O 	0.14490 0.89750 0.47570 -0.53500
O 	O 	0.72480 0.60420 0.71870 -0.39500
O 	O 	0.65420 0.63840 0.85850 -0.44900
O 	O 	0.35540 0.93200 0.70920 -0.42400
O 	O 	0.38040 0.97330 0.54400 -0.40100
C 	C 	0.03870 0.65240 0.25040 -0.14200
C 	C 	0.15960 0.67610 0.29540 0.01200
H 	H 	0.22270 0.64860 0.28130 0.03300
C 	C 	0.17930 0.74650 0.36530 0.00700
H 	H 	0.25700 0.77050 0.40380 0.04400
C 	C 	0.07110 0.77600 0.37060 -0.14300
C 	C 	0.97910 0.58330 0.17030 0.45800
C 	C 	0.05190 0.85090 0.43000 0.49500
C 	C 	0.60480 0.72570 0.69480 -0.07900
C 	C 	0.61630 0.76310 0.59680 -0.00900
H 	H 	0.66490 0.74280 0.55710 0.05200
C 	C 	0.54610 0.83550 0.56380 -0.01700
H 	H 	0.54230 0.86760 0.49900 0.06400
C 	C 	0.48430 0.85350 0.63700 -0.06300
C 	C 	0.66500 0.65100 0.76040 0.32300
C 	C 	0.40110 0.92390 0.63010 0.29800
Nd	Nd	0.80624 0.97360 0.42306 2.34100
S 	S 	0.94550 0.78241 0.78990 0.09200
S 	S 	0.51010 0.71854 0.24640 0.07400
O 	O 	0.86270 0.92060 0.62590 -0.49700
O 	O 	0.04980 0.96810 0.65010 -0.58600
O 	O 	0.94520 0.63880 0.93200 -0.54500
O 	O 	0.14490 0.60250 0.97570 -0.53700
O 	O 	0.72480 0.89580 0.21870 -0.39600
O 	O 	0.65420 0.86160 0.35850 -0.44800
O 	O 	0.35540 0.56800 0.20920 -0.42800
O 	O 	0.38040 0.52670 0.04400 -0.40400
C 	C 	0.03870 0.84760 0.75040 -0.12200
C 	C 	0.15960 0.82390 0.79540 0.00200
H 	H 	0.22270 0.85140 0.78130 0.03800
C 	C 	0.17930 0.75350 0.86530 0.01100
H 	H 	0.25700 0.72950 0.90380 0.04300
C 	C 	0.07110 0.72400 0.87060 -0.14000
C 	C 	0.97910 0.91670 0.67030 0.43300
C 	C 	0.05190 0.64910 0.93000 0.49400
C 	C 	0.60480 0.77430 0.19480 -0.08000
C 	C 	0.61630 0.73690 0.09680 -0.00700
H 	H 	0.66490 0.75720 0.05710 0.05000
C 	C 	0.54610 0.66450 0.06380 -0.02000
H 	H 	0.54230 0.63240 0.99900 0.06600
C 	C 	0.48430 0.64650 0.13700 -0.06300
C 	C 	0.66500 0.84900 0.26040 0.32300
C 	C 	0.40110 0.57610 0.13010 0.29700
Nd	Nd	0.19376 0.47360 0.07694 2.35900
S 	S 	0.05450 0.28241 0.71010 0.10100
S 	S 	0.48990 0.21854 0.25360 0.07400
O 	O 	0.13730 0.42060 0.87410 -0.50300
O 	O 	0.95020 0.46810 0.84990 -0.60400
O 	O 	0.05480 0.13880 0.56800 -0.54500
O 	O 	0.85510 0.10250 0.52430 -0.53500
O 	O 	0.27520 0.39580 0.28130 -0.39500
O 	O 	0.34580 0.36160 0.14150 -0.44900
O 	O 	0.64460 0.06800 0.29080 -0.42400
O 	O 	0.61960 0.02670 0.45600 -0.40100
C 	C 	0.96130 0.34760 0.74960 -0.14200
C 	C 	0.84040 0.32390 0.70460 0.01200
H 	H 	0.77730 0.35140 0.71870 0.03300
C 	C 	0.82070 0.25350 0.63470 0.00700
H 	H 	0.74300 0.22950 0.59620 0.04400
C 	C 	0.92890 0.22400 0.62940 -0.14300
C 	C 	0.02090 0.41670 0.82970 0.45800
C 	C 	0.94810 0.14910 0.57000 0.49500
C 	C 	0.39520 0.27430 0.30520 -0.07900
C 	C 	0.38370 0.23690 0.40320 -0.00900
H 	H 	0.33510 0.25720 0.44290 0.05200
C 	C 	0.45390 0.16450 0.43620 -0.01700
H 	H 	0.45770 0.13240 0.50100 0.06400
C 	C 	0.51570 0.14650 0.36300 -0.06300
C 	C 	0.33500 0.34900 0.23960 0.32300
C 	C 	0.59890 0.07610 0.36990 0.29800
