data_crystal

_cell_length_a 11.60170
_cell_length_b 16.21880
_cell_length_c 12.02310
_cell_angle_alpha 90.00000
_cell_angle_beta  112.57100
_cell_angle_gamma 90.00000

_symmetry_space_group_name_	'P 1'
_symmetry_space_group_name_H-M	'P 1'

loop_
_symmetry_equiv_pos_as_xyz
  x,y,z

loop_
_atom_site_label
_atom_site_type_symbol
_atom_site_fract_x
_atom_site_fract_y
_atom_site_fract_z
_atom_site_charge
Tb	Tb	0.19438 0.02751 0.07881 1.99400
S 	S 	0.05305 0.21923 0.71255 0.10400
S 	S 	0.49007 0.28327 0.25105 0.07600
O 	O 	0.13060 0.07680 0.87950 -0.45800
O 	O 	0.93830 0.03050 0.84370 -0.52400
O 	O 	0.05680 0.36430 0.56920 -0.50900
O 	O 	0.85890 0.40110 0.52470 -0.50200
O 	O 	0.27510 0.10410 0.28010 -0.36200
O 	O 	0.33730 0.14030 0.13530 -0.41900
O 	O 	0.64830 0.43370 0.29270 -0.39600
O 	O 	0.62360 0.47690 0.45740 -0.37100
C 	C 	0.95780 0.15250 0.74940 -0.12400
C 	C 	0.83610 0.17800 0.70040 -0.00200
H 	H 	0.77120 0.15010 0.71130 0.04900
C 	C 	0.81940 0.24980 0.63270 0.01800
H 	H 	0.74230 0.27510 0.59380 0.04300
C 	C 	0.92830 0.27910 0.62940 -0.14200
C 	C 	0.01300 0.08180 0.82900 0.43800
C 	C 	0.95000 0.35450 0.56950 0.49700
C 	C 	0.39340 0.22840 0.30220 -0.07900
C 	C 	0.38280 0.26510 0.40000 -0.00600
H 	H 	0.33460 0.24430 0.44000 0.05600
C 	C 	0.45330 0.33830 0.43360 -0.01700
H 	H 	0.45530 0.37170 0.49720 0.07000
C 	C 	0.51780 0.35500 0.36310 -0.06600
C 	C 	0.33150 0.15290 0.23610 0.32000
C 	C 	0.60000 0.42630 0.37110 0.30000
Tb	Tb	0.80562 0.52751 0.42119 2.01900
S 	S 	0.94695 0.71923 0.78745 0.10200
S 	S 	0.50993 0.78327 0.24895 0.07700
O 	O 	0.86940 0.57680 0.62050 -0.46500
O 	O 	0.06170 0.53050 0.65630 -0.53600
O 	O 	0.94320 0.86430 0.93080 -0.51200
O 	O 	0.14110 0.90110 0.97530 -0.50200
O 	O 	0.72490 0.60410 0.21990 -0.36100
O 	O 	0.66270 0.64030 0.36470 -0.41800
O 	O 	0.35170 0.93370 0.20730 -0.39100
O 	O 	0.37640 0.97690 0.04260 -0.36500
C 	C 	0.04220 0.65250 0.75060 -0.12800
C 	C 	0.16390 0.67800 0.79960 0.00000
H 	H 	0.22880 0.65010 0.78870 0.04700
C 	C 	0.18060 0.74980 0.86730 0.01600
H 	H 	0.25770 0.77510 0.90620 0.04200
C 	C 	0.07170 0.77910 0.87060 -0.14100
C 	C 	0.98700 0.58180 0.67100 0.44500
C 	C 	0.05000 0.85450 0.93050 0.50100
C 	C 	0.60660 0.72840 0.19780 -0.07800
C 	C 	0.61720 0.76510 0.10000 -0.00600
H 	H 	0.66540 0.74430 0.06000 0.05700
C 	C 	0.54670 0.83830 0.06640 -0.01600
H 	H 	0.54470 0.87170 0.00280 0.07100
C 	C 	0.48220 0.85500 0.13690 -0.06600
C 	C 	0.66850 0.65290 0.26390 0.32000
C 	C 	0.40000 0.92630 0.12890 0.30000
Tb	Tb	0.80562 0.97249 0.92119 1.99400
S 	S 	0.94695 0.78077 0.28745 0.10400
S 	S 	0.50993 0.71673 0.74895 0.07600
O 	O 	0.86940 0.92320 0.12050 -0.45800
O 	O 	0.06170 0.96950 0.15630 -0.52400
O 	O 	0.94320 0.63570 0.43080 -0.50900
O 	O 	0.14110 0.59890 0.47530 -0.50200
O 	O 	0.72490 0.89590 0.71990 -0.36200
O 	O 	0.66270 0.85970 0.86470 -0.41900
O 	O 	0.35170 0.56630 0.70730 -0.39600
O 	O 	0.37640 0.52310 0.54260 -0.37100
C 	C 	0.04220 0.84750 0.25060 -0.12400
C 	C 	0.16390 0.82200 0.29960 -0.00200
H 	H 	0.22880 0.84990 0.28870 0.04900
C 	C 	0.18060 0.75020 0.36730 0.01800
H 	H 	0.25770 0.72490 0.40620 0.04300
C 	C 	0.07170 0.72090 0.37060 -0.14200
C 	C 	0.98700 0.91820 0.17100 0.43800
C 	C 	0.05000 0.64550 0.43050 0.49700
C 	C 	0.60660 0.77160 0.69780 -0.07900
C 	C 	0.61720 0.73490 0.60000 -0.00600
H 	H 	0.66540 0.75570 0.56000 0.05600
C 	C 	0.54670 0.66170 0.56640 -0.01700
H 	H 	0.54470 0.62830 0.50280 0.07000
C 	C 	0.48220 0.64500 0.63690 -0.06600
C 	C 	0.66850 0.84710 0.76390 0.32000
C 	C 	0.40000 0.57370 0.62890 0.30000
Tb	Tb	0.19438 0.47249 0.57881 2.01900
S 	S 	0.05305 0.28077 0.21255 0.10200
S 	S 	0.49007 0.21673 0.75105 0.07700
O 	O 	0.13060 0.42320 0.37950 -0.46500
O 	O 	0.93830 0.46950 0.34370 -0.53600
O 	O 	0.05680 0.13570 0.06920 -0.51200
O 	O 	0.85890 0.09890 0.02470 -0.50200
O 	O 	0.27510 0.39590 0.78010 -0.36100
O 	O 	0.33730 0.35970 0.63530 -0.41800
O 	O 	0.64830 0.06630 0.79270 -0.39100
O 	O 	0.62360 0.02310 0.95740 -0.36500
C 	C 	0.95780 0.34750 0.24940 -0.12800
C 	C 	0.83610 0.32200 0.20040 0.00000
H 	H 	0.77120 0.34990 0.21130 0.04700
C 	C 	0.81940 0.25020 0.13270 0.01600
H 	H 	0.74230 0.22490 0.09380 0.04200
C 	C 	0.92830 0.22090 0.12940 -0.14100
C 	C 	0.01300 0.41820 0.32900 0.44500
C 	C 	0.95000 0.14550 0.06950 0.50100
C 	C 	0.39340 0.27160 0.80220 -0.07800
C 	C 	0.38280 0.23490 0.90000 -0.00600
H 	H 	0.33460 0.25570 0.94000 0.05700
C 	C 	0.45330 0.16170 0.93360 -0.01600
H 	H 	0.45530 0.12830 0.99720 0.07100
C 	C 	0.51780 0.14500 0.86310 -0.06600
C 	C 	0.33150 0.34710 0.73610 0.32000
C 	C 	0.60000 0.07370 0.87110 0.30000
