data_crystal

_cell_length_a 11.61400
_cell_length_b 16.08880
_cell_length_c 12.02040
_cell_angle_alpha 90.00000
_cell_angle_beta  112.69900
_cell_angle_gamma 90.00000

_symmetry_space_group_name_	'P 1'
_symmetry_space_group_name_H-M	'P 1'

loop_
_symmetry_equiv_pos_as_xyz
  x,y,z

loop_
_atom_site_label
_atom_site_type_symbol
_atom_site_fract_x
_atom_site_fract_y
_atom_site_fract_z
_atom_site_charge
Er	Er	0.19445 0.02789 0.57939 1.87600
S 	S 	0.05297 0.21983 0.21461 0.10000
S 	S 	0.49008 0.28376 0.75024 0.07700
O 	O 	0.12760 0.07640 0.38260 -0.44800
O 	O 	0.93350 0.03000 0.34200 -0.49900
O 	O 	0.05880 0.36510 0.06930 -0.48300
O 	O 	0.85970 0.40410 0.02370 -0.48200
O 	O 	0.27510 0.10360 0.77880 -0.35300
O 	O 	0.33420 0.14050 0.63230 -0.40400
O 	O 	0.65020 0.43460 0.79390 -0.38700
O 	O 	0.62700 0.47750 0.95890 -0.35900
C 	C 	0.95730 0.15400 0.25020 -0.10700
C 	C 	0.83480 0.17770 0.19930 -0.01100
H 	H 	0.76940 0.14880 0.20790 0.05600
C 	C 	0.82060 0.25120 0.13250 0.02000
H 	H 	0.74400 0.27710 0.09330 0.04300
C 	C 	0.92910 0.28080 0.13070 -0.13300
C 	C 	0.01090 0.08080 0.33010 0.42800
C 	C 	0.95070 0.35610 0.06950 0.47600
C 	C 	0.39330 0.22850 0.80110 -0.07500
C 	C 	0.38390 0.26530 0.90010 -0.00900
H 	H 	0.33620 0.24390 0.94020 0.05800
C 	C 	0.45440 0.33900 0.93470 -0.01500
H 	H 	0.45670 0.37200 0.99910 0.07100
C 	C 	0.51850 0.35680 0.86420 -0.06700
C 	C 	0.33080 0.15210 0.73480 0.31900
C 	C 	0.60340 0.42670 0.87230 0.30400
Er	Er	0.80555 0.52789 0.92061 1.88900
S 	S 	0.94703 0.71983 0.28539 0.10500
S 	S 	0.50992 0.78376 0.74976 0.07700
O 	O 	0.87240 0.57640 0.11740 -0.45400
O 	O 	0.06650 0.53000 0.15800 -0.51400
O 	O 	0.94120 0.86510 0.43070 -0.48500
O 	O 	0.14030 0.90410 0.47630 -0.48000
O 	O 	0.72490 0.60360 0.72120 -0.35100
O 	O 	0.66580 0.64050 0.86770 -0.40400
O 	O 	0.34980 0.93460 0.70610 -0.38400
O 	O 	0.37300 0.97750 0.54110 -0.35600
C 	C 	0.04270 0.65400 0.24980 -0.12100
C 	C 	0.16520 0.67770 0.30070 -0.00400
H 	H 	0.23060 0.64880 0.29210 0.05200
C 	C 	0.17940 0.75120 0.36750 0.01700
H 	H 	0.25600 0.77710 0.40670 0.04400
C 	C 	0.07090 0.78080 0.36930 -0.13400
C 	C 	0.98910 0.58080 0.16990 0.44600
C 	C 	0.04930 0.85610 0.43050 0.47700
C 	C 	0.60670 0.72850 0.69890 -0.07500
C 	C 	0.61610 0.76530 0.59990 -0.00900
H 	H 	0.66380 0.74390 0.55980 0.05900
C 	C 	0.54560 0.83900 0.56530 -0.01500
H 	H 	0.54330 0.87200 0.50090 0.07100
C 	C 	0.48150 0.85680 0.63580 -0.06700
C 	C 	0.66920 0.65210 0.76520 0.31900
C 	C 	0.39660 0.92670 0.62770 0.30400
Er	Er	0.80555 0.97211 0.42061 1.87500
S 	S 	0.94703 0.78017 0.78539 0.09900
S 	S 	0.50992 0.71624 0.24976 0.07600
O 	O 	0.87240 0.92360 0.61740 -0.44900
O 	O 	0.06650 0.97000 0.65800 -0.50000
O 	O 	0.94120 0.63490 0.93070 -0.48400
O 	O 	0.14030 0.59590 0.97630 -0.48200
O 	O 	0.72490 0.89640 0.22120 -0.35300
O 	O 	0.66580 0.85950 0.36770 -0.40400
O 	O 	0.34980 0.56540 0.20610 -0.38700
O 	O 	0.37300 0.52250 0.04110 -0.35900
C 	C 	0.04270 0.84600 0.74980 -0.10700
C 	C 	0.16520 0.82230 0.80070 -0.01100
H 	H 	0.23060 0.85120 0.79210 0.05600
C 	C 	0.17940 0.74880 0.86750 0.02000
H 	H 	0.25600 0.72290 0.90670 0.04300
C 	C 	0.07090 0.71920 0.86930 -0.13300
C 	C 	0.98910 0.91920 0.66990 0.42800
C 	C 	0.04930 0.64390 0.93050 0.47600
C 	C 	0.60670 0.77150 0.19890 -0.07500
C 	C 	0.61610 0.73470 0.09990 -0.00900
H 	H 	0.66380 0.75610 0.05980 0.05800
C 	C 	0.54560 0.66100 0.06530 -0.01500
H 	H 	0.54330 0.62800 0.00090 0.07100
C 	C 	0.48150 0.64320 0.13580 -0.06700
C 	C 	0.66920 0.84790 0.26520 0.31900
C 	C 	0.39660 0.57330 0.12770 0.30400
Er	Er	0.19445 0.47211 0.07939 1.88900
S 	S 	0.05297 0.28017 0.71461 0.10500
S 	S 	0.49008 0.21624 0.25024 0.07700
O 	O 	0.12760 0.42360 0.88260 -0.45400
O 	O 	0.93350 0.47000 0.84200 -0.51400
O 	O 	0.05880 0.13490 0.56930 -0.48500
O 	O 	0.85970 0.09590 0.52370 -0.48000
O 	O 	0.27510 0.39640 0.27880 -0.35100
O 	O 	0.33420 0.35950 0.13230 -0.40400
O 	O 	0.65020 0.06540 0.29390 -0.38400
O 	O 	0.62700 0.02250 0.45890 -0.35600
C 	C 	0.95730 0.34600 0.75020 -0.12100
C 	C 	0.83480 0.32230 0.69930 -0.00400
H 	H 	0.76940 0.35120 0.70790 0.05200
C 	C 	0.82060 0.24880 0.63250 0.01700
H 	H 	0.74400 0.22290 0.59330 0.04400
C 	C 	0.92910 0.21920 0.63070 -0.13400
C 	C 	0.01090 0.41920 0.83010 0.44600
C 	C 	0.95070 0.14390 0.56950 0.47700
C 	C 	0.39330 0.27150 0.30110 -0.07500
C 	C 	0.38390 0.23470 0.40010 -0.00900
H 	H 	0.33620 0.25610 0.44020 0.05900
C 	C 	0.45440 0.16100 0.43470 -0.01500
H 	H 	0.45670 0.12800 0.49910 0.07100
C 	C 	0.51850 0.14320 0.36420 -0.06700
C 	C 	0.33080 0.34790 0.23480 0.31900
C 	C 	0.60340 0.07330 0.37230 0.30400
