data_crystal

_cell_length_a 11.60540
_cell_length_b 16.26620
_cell_length_c 12.04790
_cell_angle_alpha 90.00000
_cell_angle_beta  112.49700
_cell_angle_gamma 90.00000

_symmetry_space_group_name_	'P 1'
_symmetry_space_group_name_H-M	'P 1'

loop_
_symmetry_equiv_pos_as_xyz
  x,y,z

loop_
_atom_site_label
_atom_site_type_symbol
_atom_site_fract_x
_atom_site_fract_y
_atom_site_fract_z
_atom_site_charge
Gd	Gd	0.19417 0.02735 0.07825 1.67800
S 	S 	0.05329 0.21858 0.71196 0.10000
S 	S 	0.48992 0.28305 0.25164 0.07600
O 	O 	0.13170 0.07790 0.87880 -0.40900
O 	O 	0.94110 0.03046 0.84600 -0.46300
O 	O 	0.05620 0.36320 0.56840 -0.44300
O 	O 	0.85760 0.40046 0.52420 -0.43900
O 	O 	0.27500 0.10440 0.27930 -0.33400
O 	O 	0.33930 0.14000 0.13650 -0.37900
O 	O 	0.64730 0.43350 0.29230 -0.36000
O 	O 	0.62310 0.47571 0.45750 -0.33700
C 	C 	0.95880 0.15260 0.74920 -0.11000
C 	C 	0.83720 0.17660 0.70200 -0.00600
H 	H 	0.77290 0.14850 0.71370 0.05300
C 	C 	0.82030 0.24900 0.63320 0.01300
H 	H 	0.74330 0.27400 0.59430 0.04600
C 	C 	0.92850 0.27830 0.62970 -0.12500
C 	C 	0.01480 0.08210 0.82990 0.40700
C 	C 	0.94940 0.35330 0.56960 0.44400
C 	C 	0.39410 0.22800 0.30310 -0.08000
C 	C 	0.38390 0.26450 0.40080 -0.00300
H 	H 	0.33640 0.24320 0.44120 0.05600
C 	C 	0.45270 0.33740 0.43390 -0.02000
H 	H 	0.45450 0.37030 0.49760 0.07300
C 	C 	0.51680 0.35490 0.36240 -0.06400
C 	C 	0.33320 0.15250 0.23730 0.31900
C 	C 	0.60010 0.42570 0.37090 0.29800
Gd	Gd	0.80583 0.52735 0.42175 1.69700
S 	S 	0.94671 0.71858 0.78804 0.09900
S 	S 	0.51008 0.78305 0.24836 0.07700
O 	O 	0.86830 0.57790 0.62120 -0.41400
O 	O 	0.05890 0.53046 0.65400 -0.47300
O 	O 	0.94380 0.86320 0.93160 -0.44600
O 	O 	0.14240 0.90046 0.97580 -0.43900
O 	O 	0.72500 0.60440 0.22070 -0.33400
O 	O 	0.66070 0.64000 0.36350 -0.37800
O 	O 	0.35270 0.93350 0.20770 -0.35600
O 	O 	0.37690 0.97571 0.04250 -0.33200
C 	C 	0.04120 0.65260 0.75080 -0.11400
C 	C 	0.16280 0.67660 0.79800 -0.00400
H 	H 	0.22710 0.64850 0.78630 0.05200
C 	C 	0.17970 0.74900 0.86680 0.01200
H 	H 	0.25670 0.77400 0.90570 0.04500
C 	C 	0.07150 0.77830 0.87030 -0.12500
C 	C 	0.98520 0.58210 0.67010 0.41300
C 	C 	0.05060 0.85330 0.93040 0.44700
C 	C 	0.60590 0.72800 0.19690 -0.08000
C 	C 	0.61610 0.76450 0.09920 -0.00300
H 	H 	0.66360 0.74320 0.05880 0.05700
C 	C 	0.54730 0.83740 0.06610 -0.02000
H 	H 	0.54550 0.87030 0.00240 0.07500
C 	C 	0.48320 0.85490 0.13760 -0.06400
C 	C 	0.66680 0.65250 0.26270 0.31900
C 	C 	0.39990 0.92570 0.12910 0.29800
Gd	Gd	0.80583 0.97265 0.92175 1.67800
S 	S 	0.94671 0.78142 0.28804 0.10000
S 	S 	0.51008 0.71695 0.74836 0.07600
O 	O 	0.86830 0.92210 0.12120 -0.40900
O 	O 	0.05890 0.96954 0.15400 -0.46300
O 	O 	0.94380 0.63680 0.43160 -0.44300
O 	O 	0.14240 0.59954 0.47580 -0.43900
O 	O 	0.72500 0.89560 0.72070 -0.33400
O 	O 	0.66070 0.86000 0.86350 -0.37900
O 	O 	0.35270 0.56650 0.70770 -0.36000
O 	O 	0.37690 0.52429 0.54250 -0.33700
C 	C 	0.04120 0.84740 0.25080 -0.11000
C 	C 	0.16280 0.82340 0.29800 -0.00600
H 	H 	0.22710 0.85150 0.28630 0.05300
C 	C 	0.17970 0.75100 0.36680 0.01300
H 	H 	0.25670 0.72600 0.40570 0.04600
C 	C 	0.07150 0.72170 0.37030 -0.12500
C 	C 	0.98520 0.91790 0.17010 0.40700
C 	C 	0.05060 0.64670 0.43040 0.44400
C 	C 	0.60590 0.77200 0.69690 -0.08000
C 	C 	0.61610 0.73550 0.59920 -0.00300
H 	H 	0.66360 0.75680 0.55880 0.05600
C 	C 	0.54730 0.66260 0.56610 -0.02000
H 	H 	0.54550 0.62970 0.50240 0.07300
C 	C 	0.48320 0.64510 0.63760 -0.06400
C 	C 	0.66680 0.84750 0.76270 0.31900
C 	C 	0.39990 0.57430 0.62910 0.29800
Gd	Gd	0.19417 0.47265 0.57825 1.69700
S 	S 	0.05329 0.28142 0.21196 0.09900
S 	S 	0.48992 0.21695 0.75164 0.07700
O 	O 	0.13170 0.42210 0.37880 -0.41400
O 	O 	0.94110 0.46954 0.34600 -0.47300
O 	O 	0.05620 0.13680 0.06840 -0.44600
O 	O 	0.85760 0.09954 0.02420 -0.43900
O 	O 	0.27500 0.39560 0.77930 -0.33400
O 	O 	0.33930 0.36000 0.63650 -0.37800
O 	O 	0.64730 0.06650 0.79230 -0.35600
O 	O 	0.62310 0.02429 0.95750 -0.33200
C 	C 	0.95880 0.34740 0.24920 -0.11400
C 	C 	0.83720 0.32340 0.20200 -0.00400
H 	H 	0.77290 0.35150 0.21370 0.05200
C 	C 	0.82030 0.25100 0.13320 0.01200
H 	H 	0.74330 0.22600 0.09430 0.04500
C 	C 	0.92850 0.22170 0.12970 -0.12500
C 	C 	0.01480 0.41790 0.32990 0.41300
C 	C 	0.94940 0.14670 0.06960 0.44700
C 	C 	0.39410 0.27200 0.80310 -0.08000
C 	C 	0.38390 0.23550 0.90080 -0.00300
H 	H 	0.33640 0.25680 0.94120 0.05700
C 	C 	0.45270 0.16260 0.93390 -0.02000
H 	H 	0.45450 0.12970 0.99760 0.07500
C 	C 	0.51680 0.14510 0.86240 -0.06400
C 	C 	0.33320 0.34750 0.73730 0.31900
C 	C 	0.60010 0.07430 0.87090 0.29800
