data_crystal

_cell_length_a 18.90110
_cell_length_b 14.84880
_cell_length_c 12.93020
_cell_angle_alpha 90.00000
_cell_angle_beta  90.00000
_cell_angle_gamma 90.00000

_symmetry_space_group_name_	'P 1'
_symmetry_space_group_name_H-M	'P 1'

loop_
_symmetry_equiv_pos_as_xyz
  x,y,z

loop_
_atom_site_label
_atom_site_type_symbol
_atom_site_fract_x
_atom_site_fract_y
_atom_site_fract_z
_atom_site_charge
N 	N 	0.57110 0.42400 0.64610 -0.21600
N 	N 	0.68070 0.32810 0.55310 -0.21500
C 	C 	0.59990 0.44910 0.55500 -0.00600
H 	H 	0.58290 0.50030 0.52180 0.00800
C 	C 	0.65300 0.40160 0.51110 0.00500
H 	H 	0.67100 0.42150 0.44810 0.00200
C 	C 	0.65140 0.30250 0.64400 -0.00900
H 	H 	0.66810 0.25100 0.67690 0.00000
C 	C 	0.59790 0.35030 0.68830 0.00400
H 	H 	0.57940 0.33030 0.75090 -0.00600
N 	N 	0.57110 0.92400 0.14610 -0.21300
N 	N 	0.68070 0.82810 0.05310 -0.20900
C 	C 	0.59990 0.94910 0.05500 0.06400
H 	H 	0.58290 0.00030 0.02180 -0.04200
C 	C 	0.65300 0.90160 0.01110 0.04500
H 	H 	0.67100 0.92150 0.94810 -0.02800
C 	C 	0.65140 0.80250 0.14400 -0.00400
H 	H 	0.66810 0.75100 0.17690 0.01100
C 	C 	0.59790 0.85030 0.18830 0.01200
H 	H 	0.57940 0.83030 0.25090 0.00600
N 	N 	0.07110 0.42400 0.14610 -0.21700
N 	N 	0.18070 0.32810 0.05310 -0.22300
C 	C 	0.09990 0.44910 0.05500 -0.05400
H 	H 	0.08290 0.50030 0.02180 0.01900
C 	C 	0.15300 0.40160 0.01110 0.09400
H 	H 	0.17100 0.42150 0.94810 -0.06000
C 	C 	0.15140 0.30250 0.14400 -0.00500
H 	H 	0.16810 0.25100 0.17690 0.00000
C 	C 	0.09790 0.35030 0.18830 -0.00300
H 	H 	0.07940 0.33030 0.25090 -0.01200
N 	N 	0.07110 0.92400 0.64610 -0.23400
N 	N 	0.18070 0.82810 0.55310 -0.20400
C 	C 	0.09990 0.94910 0.55500 0.10800
H 	H 	0.08290 0.00030 0.52180 -0.08200
C 	C 	0.15300 0.90160 0.51110 -0.05600
H 	H 	0.17100 0.92150 0.44810 0.02900
C 	C 	0.15140 0.80250 0.64400 -0.02000
H 	H 	0.16810 0.75100 0.67690 0.00400
C 	C 	0.09790 0.85030 0.68830 0.01300
H 	H 	0.07940 0.83030 0.75090 -0.01300
N 	N 	0.42890 0.57600 0.64610 -0.21700
N 	N 	0.31930 0.67190 0.55310 -0.21600
C 	C 	0.40010 0.55090 0.55500 -0.00700
H 	H 	0.41710 0.49970 0.52180 0.00500
C 	C 	0.34700 0.59840 0.51110 0.00400
H 	H 	0.32900 0.57850 0.44810 0.00100
C 	C 	0.34860 0.69750 0.64400 -0.01000
H 	H 	0.33190 0.74900 0.67690 0.00700
C 	C 	0.40210 0.64970 0.68830 0.00700
H 	H 	0.42060 0.66970 0.75090 -0.00300
N 	N 	0.42890 0.07600 0.14610 -0.19400
N 	N 	0.31930 0.17190 0.05310 -0.23500
C 	C 	0.40010 0.05090 0.05500 -0.16500
H 	H 	0.41710 0.99970 0.02180 0.10500
C 	C 	0.34700 0.09840 0.01110 0.15200
H 	H 	0.32900 0.07850 0.94810 -0.08800
C 	C 	0.34860 0.19750 0.14400 0.00500
H 	H 	0.33190 0.24900 0.17690 0.00300
C 	C 	0.40210 0.14970 0.18830 -0.01000
H 	H 	0.42060 0.16970 0.25090 0.00100
N 	N 	0.92890 0.57600 0.14610 -0.18900
N 	N 	0.81930 0.67190 0.05310 -0.22100
C 	C 	0.90010 0.55090 0.05500 -0.04600
H 	H 	0.91710 0.49970 0.02180 0.04400
C 	C 	0.84700 0.59840 0.01110 0.10400
H 	H 	0.82900 0.57850 0.94810 -0.05500
C 	C 	0.84860 0.69750 0.14400 0.00600
H 	H 	0.83190 0.74900 0.17690 0.01400
C 	C 	0.90210 0.64970 0.18830 0.00500
H 	H 	0.92060 0.66970 0.25090 0.02000
N 	N 	0.92890 0.07600 0.64610 -0.18700
N 	N 	0.81930 0.17190 0.55310 -0.22800
C 	C 	0.90010 0.05090 0.55500 -0.11500
H 	H 	0.91710 0.99970 0.52180 0.09300
C 	C 	0.84700 0.09840 0.51110 0.06300
H 	H 	0.82900 0.07850 0.44810 -0.02400
C 	C 	0.84860 0.19750 0.64400 0.00100
H 	H 	0.83190 0.24900 0.67690 0.00300
C 	C 	0.90210 0.14970 0.68830 -0.00200
H 	H 	0.92060 0.16970 0.75090 0.01000
N 	N 	0.82110 0.82600 0.89610 -0.20400
N 	N 	0.93070 0.92190 0.80310 -0.19500
C 	C 	0.84990 0.80090 0.80500 -0.00700
H 	H 	0.83290 0.74970 0.77180 0.00900
C 	C 	0.90300 0.84840 0.76110 0.01600
H 	H 	0.92100 0.82850 0.69810 0.01700
C 	C 	0.90140 0.94750 0.89400 0.04100
H 	H 	0.91810 0.99900 0.92690 0.01100
C 	C 	0.84790 0.89970 0.93830 -0.07700
H 	H 	0.82940 0.91970 0.00090 0.06800
N 	N 	0.82110 0.32600 0.39610 -0.21700
N 	N 	0.93070 0.42190 0.30310 -0.19700
C 	C 	0.84990 0.30090 0.30500 0.00000
H 	H 	0.83290 0.24970 0.27180 0.00700
C 	C 	0.90300 0.34840 0.26110 0.00700
H 	H 	0.92100 0.32850 0.19810 0.01800
C 	C 	0.90140 0.44750 0.39400 -0.00600
H 	H 	0.91810 0.49900 0.42690 0.02100
C 	C 	0.84790 0.39970 0.43830 0.01200
H 	H 	0.82940 0.41970 0.50090 0.00200
N 	N 	0.32110 0.82600 0.39610 -0.21600
N 	N 	0.43070 0.92190 0.30310 -0.20300
C 	C 	0.34990 0.80090 0.30500 -0.00300
H 	H 	0.33290 0.74970 0.27180 0.00800
C 	C 	0.40300 0.84840 0.26110 0.00800
H 	H 	0.42100 0.82850 0.19810 0.00900
C 	C 	0.40140 0.94750 0.39400 -0.00400
H 	H 	0.41810 0.99900 0.42690 0.02100
C 	C 	0.34790 0.89970 0.43830 0.01000
H 	H 	0.32940 0.91970 0.50090 0.00500
N 	N 	0.32110 0.32600 0.89610 -0.20700
N 	N 	0.43070 0.42190 0.80310 -0.22600
C 	C 	0.34990 0.30090 0.80500 -0.01700
H 	H 	0.33290 0.24970 0.77180 0.00100
C 	C 	0.40300 0.34840 0.76110 0.00800
H 	H 	0.42100 0.32850 0.69810 -0.00500
C 	C 	0.40140 0.44750 0.89400 0.03300
H 	H 	0.41810 0.49900 0.92690 -0.01800
C 	C 	0.34790 0.39970 0.93830 -0.08800
H 	H 	0.32940 0.41970 0.00090 0.05900
N 	N 	0.67890 0.67400 0.89610 -0.20500
N 	N 	0.56930 0.57810 0.80310 -0.22500
C 	C 	0.65010 0.69910 0.80500 -0.01500
H 	H 	0.66710 0.75030 0.77180 0.01000
C 	C 	0.59700 0.65160 0.76110 0.01200
H 	H 	0.57900 0.67150 0.69810 0.00000
C 	C 	0.59860 0.55250 0.89400 0.03500
H 	H 	0.58190 0.50100 0.92690 -0.01900
C 	C 	0.65210 0.60030 0.93830 -0.08700
H 	H 	0.67060 0.58030 0.00090 0.06000
N 	N 	0.67890 0.17400 0.39610 -0.21700
N 	N 	0.56930 0.07810 0.30310 -0.22200
C 	C 	0.65010 0.19910 0.30500 -0.00800
H 	H 	0.66710 0.25030 0.27180 0.00800
C 	C 	0.59700 0.15160 0.26110 0.00200
H 	H 	0.57900 0.17150 0.19810 0.00300
C 	C 	0.59860 0.05250 0.39400 -0.01300
H 	H 	0.58190 0.00100 0.42690 -0.00900
C 	C 	0.65210 0.10030 0.43830 0.00300
H 	H 	0.67060 0.08030 0.50090 -0.00700
N 	N 	0.17890 0.67400 0.39610 -0.21700
N 	N 	0.06930 0.57810 0.30310 -0.22500
C 	C 	0.15010 0.69910 0.30500 -0.01100
H 	H 	0.16710 0.75030 0.27180 0.00900
C 	C 	0.09700 0.65160 0.26110 0.00400
H 	H 	0.07900 0.67150 0.19810 -0.00600
C 	C 	0.09860 0.55250 0.39400 -0.01100
H 	H 	0.08190 0.50100 0.42690 -0.00800
C 	C 	0.15210 0.60030 0.43830 0.00100
H 	H 	0.17060 0.58030 0.50090 -0.00400
N 	N 	0.17890 0.17400 0.89610 -0.20800
N 	N 	0.06930 0.07810 0.80310 -0.24200
C 	C 	0.15010 0.19910 0.80500 -0.02400
H 	H 	0.16710 0.25030 0.77180 0.00100
C 	C 	0.09700 0.15160 0.76110 0.00300
H 	H 	0.07900 0.17150 0.69810 -0.01800
C 	C 	0.09860 0.05250 0.89400 0.02400
H 	H 	0.08190 0.00100 0.92690 -0.04400
C 	C 	0.15210 0.10030 0.93830 -0.09400
H 	H 	0.17060 0.08030 0.00090 0.04900
Cu	Cu	0.50000 0.50000 0.72400 0.85100
Cu	Cu	0.50000 0.00000 0.22400 0.83200
Cu	Cu	0.00000 0.50000 0.22400 0.82300
Cu	Cu	0.00000 0.00000 0.72400 0.80200
Cu	Cu	0.75000 0.75000 0.97400 0.83700
Cu	Cu	0.75000 0.25000 0.47400 0.85100
Cu	Cu	0.25000 0.75000 0.47400 0.85100
Cu	Cu	0.25000 0.25000 0.97400 0.83300
