data_crystal

_cell_length_a 11.68710
_cell_length_b 17.34130
_cell_length_c 25.85120
_cell_angle_alpha 102.30100
_cell_angle_beta  90.00000
_cell_angle_gamma 90.00000

_symmetry_space_group_name_	'P 1'
_symmetry_space_group_name_H-M	'P 1'

loop_
_symmetry_equiv_pos_as_xyz
  x,y,z

loop_
_atom_site_label
_atom_site_type_symbol
_atom_site_fract_x
_atom_site_fract_y
_atom_site_fract_z
_atom_site_charge
Nd	Nd	0.02827 0.48678 0.41903 1.97100
Nd	Nd	0.49206 0.03928 0.58059 1.97400
Nd	Nd	0.02827 0.01322 0.08097 1.95000
Nd	Nd	0.49206 0.46072 0.91941 1.97100
Nd	Nd	0.97173 0.51322 0.58097 1.97000
Nd	Nd	0.50794 0.96072 0.41941 1.97300
Nd	Nd	0.97173 0.98678 0.91903 1.95000
Nd	Nd	0.50794 0.53928 0.08059 1.97100
H 	H 	0.77570 0.24950 0.39530 0.03200
H 	H 	0.67220 0.13460 0.41180 0.02900
H 	H 	0.02810 0.57650 0.23660 0.03000
H 	H 	0.91220 0.58010 0.15870 0.04300
H 	H 	0.73500 0.64420 0.57380 -0.03500
H 	H 	0.62830 0.76710 0.59220 0.02800
H 	H 	0.77570 0.25050 0.10470 0.03300
H 	H 	0.67220 0.36540 0.08820 0.02900
H 	H 	0.02810 0.92350 0.26340 0.03700
H 	H 	0.91220 0.91990 0.34130 0.04000
H 	H 	0.73500 0.85580 0.92620 -0.03400
H 	H 	0.62830 0.73290 0.90780 0.02700
H 	H 	0.22430 0.75050 0.60470 0.03200
H 	H 	0.32780 0.86540 0.58820 0.02900
H 	H 	0.97190 0.42350 0.76340 0.03000
H 	H 	0.08780 0.41990 0.84130 0.04300
H 	H 	0.26500 0.35580 0.42620 -0.03500
H 	H 	0.37170 0.23290 0.40780 0.02800
H 	H 	0.22430 0.74950 0.89530 0.03300
H 	H 	0.32780 0.63460 0.91180 0.02900
H 	H 	0.97190 0.07650 0.73660 0.03700
H 	H 	0.08780 0.08010 0.65870 0.04000
H 	H 	0.26500 0.14420 0.07380 -0.03400
H 	H 	0.37170 0.26710 0.09220 0.02700
C 	C 	0.81640 0.28200 0.47310 -0.14500
C 	C 	0.76910 0.23750 0.42860 0.00200
C 	C 	0.70900 0.17120 0.43810 0.00400
C 	C 	0.71090 0.16700 0.48990 -0.13200
C 	C 	0.88260 0.35680 0.48040 0.46800
C 	C 	0.65510 0.11040 0.51760 0.42900
C 	C 	0.90560 0.51150 0.26370 -0.09300
C 	C 	0.95670 0.55260 0.23030 -0.01500
C 	C 	0.88980 0.55470 0.18530 -0.02400
C 	C 	0.78980 0.51610 0.18510 -0.08900
C 	C 	0.94960 0.49999 0.31509 0.33000
C 	C 	0.69600 0.51190 0.14620 0.31100
C 	C 	0.76900 0.65885 0.49975 -0.16100
C 	C 	0.72530 0.67610 0.54940 0.02300
C 	C 	0.66420 0.74710 0.56000 -0.01900
C 	C 	0.66250 0.78370 0.51880 -0.14300
C 	C 	0.84050 0.59130 0.47480 0.42100
C 	C 	0.60930 0.86010 0.51480 0.47100
C 	C 	0.81640 0.21800 0.02690 -0.14400
C 	C 	0.76910 0.26250 0.07140 0.00100
C 	C 	0.70900 0.32880 0.06190 0.00400
C 	C 	0.71090 0.33300 0.01010 -0.13300
C 	C 	0.88260 0.14320 0.01960 0.46500
C 	C 	0.65510 0.38960 0.98240 0.42800
C 	C 	0.90560 0.98850 0.23630 -0.09600
C 	C 	0.95670 0.94740 0.26970 -0.02500
C 	C 	0.88980 0.94530 0.31470 -0.01900
C 	C 	0.78980 0.98390 0.31490 -0.09400
C 	C 	0.94960 0.00001 0.18491 0.33400
C 	C 	0.69600 0.98810 0.35380 0.31200
C 	C 	0.76900 0.84115 0.00025 -0.15800
C 	C 	0.72530 0.82390 0.95060 0.01900
C 	C 	0.66420 0.75290 0.94000 -0.01600
C 	C 	0.66250 0.71630 0.98120 -0.14500
C 	C 	0.84050 0.90870 0.02520 0.42300
C 	C 	0.60930 0.63990 0.98520 0.47000
C 	C 	0.18360 0.71800 0.52690 -0.14500
C 	C 	0.23090 0.76250 0.57140 0.00200
C 	C 	0.29100 0.82880 0.56190 0.00400
C 	C 	0.28910 0.83300 0.51010 -0.13200
C 	C 	0.11740 0.64320 0.51960 0.46800
C 	C 	0.34490 0.88960 0.48240 0.42900
C 	C 	0.09440 0.48850 0.73630 -0.09300
C 	C 	0.04330 0.44740 0.76970 -0.01500
C 	C 	0.11020 0.44530 0.81470 -0.02400
C 	C 	0.21020 0.48390 0.81490 -0.08900
C 	C 	0.05040 0.50001 0.68491 0.33000
C 	C 	0.30400 0.48810 0.85380 0.31100
C 	C 	0.23100 0.34115 0.50025 -0.16100
C 	C 	0.27470 0.32390 0.45060 0.02300
C 	C 	0.33580 0.25290 0.44000 -0.01900
C 	C 	0.33750 0.21630 0.48120 -0.14300
C 	C 	0.15950 0.40870 0.52520 0.42100
C 	C 	0.39070 0.13990 0.48520 0.47100
C 	C 	0.18360 0.78200 0.97310 -0.14400
C 	C 	0.23090 0.73750 0.92860 0.00100
C 	C 	0.29100 0.67120 0.93810 0.00400
C 	C 	0.28910 0.66700 0.98990 -0.13300
C 	C 	0.11740 0.85680 0.98040 0.46500
C 	C 	0.34490 0.61040 0.01760 0.42800
C 	C 	0.09440 0.01150 0.76370 -0.09600
C 	C 	0.04330 0.05260 0.73030 -0.02500
C 	C 	0.11020 0.05470 0.68530 -0.01900
C 	C 	0.21020 0.01610 0.68510 -0.09400
C 	C 	0.05040 0.99999 0.81509 0.33400
C 	C 	0.30400 0.01190 0.64620 0.31200
C 	C 	0.23100 0.15885 0.99975 -0.15800
C 	C 	0.27470 0.17610 0.04940 0.01900
C 	C 	0.33580 0.24710 0.06000 -0.01600
C 	C 	0.33750 0.28370 0.01880 -0.14500
C 	C 	0.15950 0.09130 0.97480 0.42300
C 	C 	0.39070 0.36010 0.01480 0.47000
S 	S 	0.78602 0.24407 0.52769 0.06500
S 	S 	0.73368 0.72917 0.46525 0.07500
S 	S 	0.77538 0.47443 0.23949 0.04600
S 	S 	0.78602 0.25593 0.97231 0.06500
S 	S 	0.73368 0.77083 0.03475 0.07700
S 	S 	0.77538 0.02557 0.26051 0.05200
S 	S 	0.21398 0.75593 0.47231 0.06500
S 	S 	0.26632 0.27083 0.53475 0.07500
S 	S 	0.22462 0.52557 0.76051 0.04600
S 	S 	0.21398 0.74407 0.02769 0.06500
S 	S 	0.26632 0.22917 0.96525 0.07700
S 	S 	0.22462 0.97443 0.73949 0.05200
O 	O 	0.90490 0.38222 0.43932 -0.50900
O 	O 	0.90960 0.38775 0.52675 -0.52400
O 	O 	0.64870 0.12976 0.56656 -0.50600
O 	O 	0.61240 0.04667 0.49187 -0.57000
O 	O 	0.03340 0.53951 0.33551 -0.45400
O 	O 	0.90110 0.44994 0.33664 -0.41400
O 	O 	0.60350 0.48025 0.15265 -0.44300
O 	O 	0.71370 0.54363 0.10703 -0.42200
O 	O 	0.88020 0.54575 0.50345 -0.58500
O 	O 	0.86300 0.58031 0.42681 -0.44200
O 	O 	0.59810 0.87240 0.46900 -0.51200
O 	O 	0.58120 0.90587 0.55717 -0.51100
O 	O 	0.90490 0.11778 0.06068 -0.50400
O 	O 	0.90960 0.11225 0.97325 -0.51800
O 	O 	0.64870 0.37024 0.93344 -0.50700
O 	O 	0.61240 0.45333 0.00813 -0.57000
O 	O 	0.03340 0.96049 0.16449 -0.45000
O 	O 	0.90110 0.05006 0.16336 -0.41200
O 	O 	0.60350 0.01975 0.34735 -0.44300
O 	O 	0.71370 0.95637 0.39297 -0.42300
O 	O 	0.88020 0.95425 0.99655 -0.58700
O 	O 	0.86300 0.91969 0.07319 -0.44100
O 	O 	0.59810 0.62760 0.03100 -0.51100
O 	O 	0.58120 0.59413 0.94283 -0.51000
O 	O 	0.09510 0.61778 0.56068 -0.50900
O 	O 	0.09040 0.61225 0.47325 -0.52400
O 	O 	0.35130 0.87024 0.43344 -0.50600
O 	O 	0.38760 0.95333 0.50813 -0.57000
O 	O 	0.96660 0.46049 0.66449 -0.45400
O 	O 	0.09890 0.55006 0.66336 -0.41400
O 	O 	0.39650 0.51975 0.84735 -0.44300
O 	O 	0.28630 0.45637 0.89297 -0.42200
O 	O 	0.11980 0.45425 0.49655 -0.58500
O 	O 	0.13700 0.41969 0.57319 -0.44200
O 	O 	0.40190 0.12760 0.53100 -0.51200
O 	O 	0.41880 0.09413 0.44283 -0.51100
O 	O 	0.09510 0.88222 0.93932 -0.50400
O 	O 	0.09040 0.88775 0.02675 -0.51800
O 	O 	0.35130 0.62976 0.06656 -0.50700
O 	O 	0.38760 0.54667 0.99187 -0.57000
O 	O 	0.96660 0.03951 0.83551 -0.45000
O 	O 	0.09890 0.94994 0.83664 -0.41200
O 	O 	0.39650 0.98025 0.65265 -0.44300
O 	O 	0.28630 0.04363 0.60703 -0.42300
O 	O 	0.11980 0.04575 0.00345 -0.58700
O 	O 	0.13700 0.08031 0.92681 -0.44100
O 	O 	0.40190 0.37240 0.96900 -0.51100
O 	O 	0.41880 0.40587 0.05717 -0.51000
