data_crystal

_cell_length_a 11.54080
_cell_length_b 16.15900
_cell_length_c 12.00190
_cell_angle_alpha 90.00000
_cell_angle_beta  112.73300
_cell_angle_gamma 90.00000

_symmetry_space_group_name_	'P 1'
_symmetry_space_group_name_H-M	'P 1'

loop_
_symmetry_equiv_pos_as_xyz
  x,y,z

loop_
_atom_site_label
_atom_site_type_symbol
_atom_site_fract_x
_atom_site_fract_y
_atom_site_fract_z
_atom_site_charge
Dy	Dy	0.19449 0.02781 0.07878 1.95000
S 	S 	0.05294 0.21891 0.71243 0.10700
S 	S 	0.48925 0.28359 0.25072 0.07900
O 	O 	0.12931 0.07623 0.87958 -0.45500
O 	O 	0.93691 0.02949 0.84311 -0.51900
O 	O 	0.05675 0.36373 0.56788 -0.49700
O 	O 	0.85725 0.40206 0.52329 -0.49200
O 	O 	0.27470 0.10433 0.27988 -0.36200
O 	O 	0.33740 0.13971 0.13568 -0.41700
O 	O 	0.64768 0.43479 0.29265 -0.39700
O 	O 	0.62348 0.47735 0.45693 -0.37100
C 	C 	0.95670 0.15240 0.74820 -0.12400
C 	C 	0.83380 0.17670 0.69870 -0.00200
H 	H 	0.76850 0.14830 0.70890 0.05000
C 	C 	0.81780 0.24951 0.63080 0.01800
H 	H 	0.74030 0.27490 0.59140 0.04300
C 	C 	0.92760 0.27939 0.62820 -0.14200
C 	C 	0.01160 0.08146 0.82880 0.44200
C 	C 	0.94910 0.35410 0.56860 0.48500
C 	C 	0.39290 0.22804 0.30340 -0.08300
C 	C 	0.38290 0.26540 0.40080 -0.00300
H 	H 	0.33480 0.24430 0.44120 0.05500
C 	C 	0.45210 0.33871 0.43410 -0.01800
H 	H 	0.45440 0.37190 0.49820 0.07200
C 	C 	0.51620 0.35627 0.36210 -0.06800
C 	C 	0.33120 0.15247 0.23730 0.32800
C 	C 	0.60010 0.42727 0.37090 0.31100
Dy	Dy	0.80551 0.52781 0.42122 1.97400
S 	S 	0.94706 0.71891 0.78757 0.10500
S 	S 	0.51075 0.78359 0.24928 0.07900
O 	O 	0.87069 0.57623 0.62042 -0.46200
O 	O 	0.06309 0.52949 0.65689 -0.53100
O 	O 	0.94325 0.86373 0.93212 -0.50000
O 	O 	0.14275 0.90206 0.97671 -0.49200
O 	O 	0.72530 0.60433 0.22012 -0.36200
O 	O 	0.66260 0.63971 0.36432 -0.41600
O 	O 	0.35232 0.93479 0.20735 -0.39200
O 	O 	0.37652 0.97735 0.04307 -0.36500
C 	C 	0.04330 0.65240 0.75180 -0.12800
C 	C 	0.16620 0.67670 0.80130 -0.00000
H 	H 	0.23150 0.64830 0.79110 0.04900
C 	C 	0.18220 0.74951 0.86920 0.01700
H 	H 	0.25970 0.77490 0.90860 0.04200
C 	C 	0.07240 0.77939 0.87180 -0.14200
C 	C 	0.98840 0.58146 0.67120 0.44900
C 	C 	0.05090 0.85410 0.93140 0.48800
C 	C 	0.60710 0.72804 0.19660 -0.08200
C 	C 	0.61710 0.76540 0.09920 -0.00200
H 	H 	0.66520 0.74430 0.05880 0.05600
C 	C 	0.54790 0.83871 0.06590 -0.01800
H 	H 	0.54560 0.87190 0.00180 0.07300
C 	C 	0.48380 0.85627 0.13790 -0.06700
C 	C 	0.66880 0.65247 0.26270 0.32800
C 	C 	0.39990 0.92727 0.12910 0.31100
Dy	Dy	0.80551 0.97219 0.92122 1.94900
S 	S 	0.94706 0.78109 0.28757 0.10600
S 	S 	0.51075 0.71641 0.74928 0.07800
O 	O 	0.87069 0.92377 0.12042 -0.45600
O 	O 	0.06309 0.97051 0.15689 -0.51900
O 	O 	0.94325 0.63627 0.43212 -0.49700
O 	O 	0.14275 0.59794 0.47671 -0.49200
O 	O 	0.72530 0.89567 0.72012 -0.36200
O 	O 	0.66260 0.86029 0.86432 -0.41700
O 	O 	0.35232 0.56521 0.70735 -0.39700
O 	O 	0.37652 0.52265 0.54307 -0.37100
C 	C 	0.04330 0.84760 0.25180 -0.12400
C 	C 	0.16620 0.82330 0.30130 -0.00200
H 	H 	0.23150 0.85170 0.29110 0.05000
C 	C 	0.18220 0.75049 0.36920 0.01800
H 	H 	0.25970 0.72510 0.40860 0.04300
C 	C 	0.07240 0.72061 0.37180 -0.14200
C 	C 	0.98840 0.91854 0.17120 0.44200
C 	C 	0.05090 0.64590 0.43140 0.48500
C 	C 	0.60710 0.77196 0.69660 -0.08300
C 	C 	0.61710 0.73460 0.59920 -0.00300
H 	H 	0.66520 0.75570 0.55880 0.05500
C 	C 	0.54790 0.66129 0.56590 -0.01800
H 	H 	0.54560 0.62810 0.50180 0.07200
C 	C 	0.48380 0.64373 0.63790 -0.06800
C 	C 	0.66880 0.84753 0.76270 0.32800
C 	C 	0.39990 0.57273 0.62910 0.31100
Dy	Dy	0.19449 0.47219 0.57878 1.97400
S 	S 	0.05294 0.28109 0.21243 0.10500
S 	S 	0.48925 0.21641 0.75072 0.07900
O 	O 	0.12931 0.42377 0.37958 -0.46200
O 	O 	0.93691 0.47051 0.34311 -0.53100
O 	O 	0.05675 0.13627 0.06788 -0.50000
O 	O 	0.85725 0.09794 0.02329 -0.49200
O 	O 	0.27470 0.39567 0.77988 -0.36200
O 	O 	0.33740 0.36029 0.63568 -0.41600
O 	O 	0.64768 0.06521 0.79265 -0.39200
O 	O 	0.62348 0.02265 0.95693 -0.36500
C 	C 	0.95670 0.34760 0.24820 -0.12800
C 	C 	0.83380 0.32330 0.19870 -0.00000
H 	H 	0.76850 0.35170 0.20890 0.04900
C 	C 	0.81780 0.25049 0.13080 0.01700
H 	H 	0.74030 0.22510 0.09140 0.04200
C 	C 	0.92760 0.22061 0.12820 -0.14200
C 	C 	0.01160 0.41854 0.32880 0.44900
C 	C 	0.94910 0.14590 0.06860 0.48800
C 	C 	0.39290 0.27196 0.80340 -0.08200
C 	C 	0.38290 0.23460 0.90080 -0.00200
H 	H 	0.33480 0.25570 0.94120 0.05600
C 	C 	0.45210 0.16129 0.93410 -0.01800
H 	H 	0.45440 0.12810 0.99820 0.07300
C 	C 	0.51620 0.14373 0.86210 -0.06700
C 	C 	0.33120 0.34753 0.73730 0.32800
C 	C 	0.60010 0.07273 0.87090 0.31100
