data_crystal

_cell_length_a 11.22190
_cell_length_b 13.24350
_cell_length_c 17.63510
_cell_angle_alpha 82.36500
_cell_angle_beta  72.78700
_cell_angle_gamma 68.60800

_symmetry_space_group_name_	'P 1'
_symmetry_space_group_name_H-M	'P 1'

loop_
_symmetry_equiv_pos_as_xyz
  x,y,z

loop_
_atom_site_label
_atom_site_type_symbol
_atom_site_fract_x
_atom_site_fract_y
_atom_site_fract_z
_atom_site_charge
La	La	0.04367 0.12706 0.36521 1.54000
La	La	0.39330 0.67765 0.01042 1.52300
Mo	Mo	0.34530 0.27567 0.62344 1.03800
Mo	Mo	0.82546 0.79801 0.25516 1.03700
Mo	Mo	0.81114 0.59592 0.24847 1.03900
S 	S 	0.11218 0.35051 0.65908 -0.45400
S 	S 	0.39411 0.11155 0.68994 -0.45600
S 	S 	0.41256 0.36252 0.69790 -0.44200
S 	S 	0.79660 0.73039 0.15095 -0.45500
O 	O 	0.33540 0.20030 0.52580 -0.37100
O 	O 	0.34280 0.39727 0.53135 -0.36000
O 	O 	0.44990 0.11940 0.41069 -0.28200
O 	O 	0.46120 0.44770 0.41732 -0.25800
O 	O 	0.84380 0.17170 0.47788 -0.41600
O 	O 	0.88700 0.05930 0.57910 -0.46400
N 	N 	0.56240 0.21960 0.54662 -0.06100
C 	C 	0.57390 0.13600 0.49306 -0.31300
H 	H 	0.64270 0.13740 0.44290 0.15000
H 	H 	0.60330 0.06340 0.51870 0.13400
C 	C 	0.44440 0.15370 0.47398 0.37800
C 	C 	0.58020 0.31750 0.49872 -0.32600
H 	H 	0.61040 0.35740 0.52850 0.15800
H 	H 	0.65020 0.29410 0.44850 0.16400
C 	C 	0.45340 0.39280 0.47966 0.38200
C 	C 	0.66370 0.17170 0.59282 -0.31300
H 	H 	0.65270 0.22720 0.62920 0.12500
H 	H 	0.64380 0.11050 0.62610 0.09700
C 	C 	0.80970 0.13060 0.54467 0.44700
O 	O 	0.03260 0.75889 0.19150 -0.40400
O 	O 	0.88940 0.87829 0.32276 -0.38900
O 	O 	0.17760 0.80130 0.08773 -0.45100
O 	O 	0.88850 0.03460 0.35440 -0.39100
O 	O 	0.80980 0.14990 0.08570 -0.32600
O 	O 	0.62710 0.15170 0.06520 -0.47300
N 	N 	0.83310 0.95550 0.18174 -0.06800
C 	C 	0.96280 0.92900 0.12150 -0.34100
H 	H 	0.99910 0.98730 0.12000 0.12900
H 	H 	0.94780 0.92930 0.06880 0.13900
C 	C 	0.06550 0.82220 0.13397 0.43400
C 	C 	0.82000 0.03390 0.23960 -0.30600
H 	H 	0.72510 0.07880 0.25900 0.13200
H 	H 	0.86920 0.08290 0.21210 0.12200
C 	C 	0.87160 0.97920 0.30960 0.37500
C 	C 	0.72560 0.00470 0.14140 -0.27700
H 	H 	0.63950 0.01860 0.18220 0.11000
H 	H 	0.73230 0.95070 0.10520 0.10200
C 	C 	0.72280 0.11050 0.09340 0.41500
O 	O 	0.85150 0.44112 0.30773 -0.38400
O 	O 	0.01500 0.51643 0.19042 -0.37900
O 	O 	0.85390 0.27115 0.31290 -0.40400
O 	O 	0.15760 0.43770 0.08019 -0.30600
O 	O 	0.58750 0.51510 0.03062 -0.54700
O 	O 	0.76260 0.37699 0.04636 -0.38800
N 	N 	0.80200 0.48490 0.16178 -0.06300
C 	C 	0.77860 0.38870 0.20970 -0.32800
H 	H 	0.82030 0.32480 0.17540 0.14200
H 	H 	0.68190 0.40230 0.22770 0.13400
C 	C 	0.83350 0.36290 0.28152 0.40100
C 	C 	0.93310 0.45390 0.10050 -0.31000
H 	H 	0.92230 0.49810 0.05150 0.13800
H 	H 	0.95950 0.37690 0.08760 0.14000
C 	C 	0.04430 0.46840 0.12525 0.36500
C 	C 	0.69360 0.53850 0.12169 -0.29900
H 	H 	0.70600 0.60560 0.09410 0.10200
H 	H 	0.60770 0.56040 0.16300 0.09200
C 	C 	0.68420 0.47090 0.06206 0.39400
O 	O 	0.00190 0.32720 0.40080 0.05000
O 	O 	0.93090 0.70350 0.61200 -0.32500
La	La	0.95633 0.87294 0.63479 1.54100
La	La	0.60670 0.32235 0.98958 1.52400
Mo	Mo	0.65470 0.72433 0.37656 1.03900
Mo	Mo	0.17454 0.20199 0.74484 1.03800
Mo	Mo	0.18886 0.40408 0.75153 1.03900
S 	S 	0.88782 0.64949 0.34092 -0.45400
S 	S 	0.60589 0.88845 0.31006 -0.45600
S 	S 	0.58744 0.63748 0.30210 -0.44200
S 	S 	0.20340 0.26961 0.84905 -0.45500
O 	O 	0.66460 0.79970 0.47420 -0.37100
O 	O 	0.65720 0.60273 0.46865 -0.36000
O 	O 	0.55010 0.88060 0.58931 -0.28200
O 	O 	0.53880 0.55230 0.58268 -0.25800
O 	O 	0.15620 0.82830 0.52212 -0.41600
O 	O 	0.11300 0.94070 0.42090 -0.46400
N 	N 	0.43760 0.78040 0.45338 -0.06100
C 	C 	0.42610 0.86400 0.50694 -0.31300
H 	H 	0.35730 0.86260 0.55710 0.15000
H 	H 	0.39670 0.93660 0.48130 0.13400
C 	C 	0.55560 0.84630 0.52602 0.37800
C 	C 	0.41980 0.68250 0.50128 -0.32600
H 	H 	0.38960 0.64260 0.47150 0.15800
H 	H 	0.34980 0.70590 0.55150 0.16400
C 	C 	0.54660 0.60720 0.52034 0.38200
C 	C 	0.33630 0.82830 0.40718 -0.31300
H 	H 	0.34730 0.77280 0.37080 0.12500
H 	H 	0.35620 0.88950 0.37390 0.09700
C 	C 	0.19030 0.86940 0.45533 0.44700
O 	O 	0.96740 0.24111 0.80850 -0.40400
O 	O 	0.11060 0.12171 0.67724 -0.38900
O 	O 	0.82240 0.19870 0.91227 -0.45100
O 	O 	0.11150 0.96540 0.64560 -0.39100
O 	O 	0.19020 0.85010 0.91430 -0.32600
O 	O 	0.37290 0.84830 0.93480 -0.47300
N 	N 	0.16690 0.04450 0.81826 -0.06800
C 	C 	0.03720 0.07100 0.87850 -0.34100
H 	H 	0.00090 0.01270 0.88000 0.12900
H 	H 	0.05220 0.07070 0.93120 0.13900
C 	C 	0.93450 0.17780 0.86603 0.43400
C 	C 	0.18000 0.96610 0.76040 -0.30600
H 	H 	0.27490 0.92120 0.74100 0.13200
H 	H 	0.13080 0.91710 0.78790 0.12200
C 	C 	0.12840 0.02080 0.69040 0.37500
C 	C 	0.27440 0.99530 0.85860 -0.27700
H 	H 	0.36050 0.98140 0.81780 0.11000
H 	H 	0.26770 0.04930 0.89480 0.10200
C 	C 	0.27720 0.88950 0.90660 0.41500
O 	O 	0.14850 0.55888 0.69227 -0.38400
O 	O 	0.98500 0.48357 0.80958 -0.37900
O 	O 	0.14610 0.72885 0.68710 -0.40400
O 	O 	0.84240 0.56230 0.91981 -0.30600
O 	O 	0.41250 0.48490 0.96938 -0.54700
O 	O 	0.23740 0.62301 0.95364 -0.38800
N 	N 	0.19800 0.51510 0.83822 -0.06300
C 	C 	0.22140 0.61130 0.79030 -0.32800
H 	H 	0.17970 0.67520 0.82460 0.14200
H 	H 	0.31810 0.59770 0.77230 0.13400
C 	C 	0.16650 0.63710 0.71848 0.40100
C 	C 	0.06690 0.54610 0.89950 -0.31000
H 	H 	0.07770 0.50190 0.94850 0.13800
H 	H 	0.04050 0.62310 0.91240 0.14000
C 	C 	0.95570 0.53160 0.87475 0.36500
C 	C 	0.30640 0.46150 0.87831 -0.29900
H 	H 	0.29400 0.39440 0.90590 0.10200
H 	H 	0.39230 0.43960 0.83700 0.09200
C 	C 	0.31580 0.52910 0.93794 0.39400
O 	O 	0.99810 0.67280 0.59920 0.05000
O 	O 	0.06910 0.29650 0.38800 -0.32500
