data_crystal

_cell_length_a 11.67550
_cell_length_b 12.25210
_cell_length_c 12.49480
_cell_angle_alpha 90.00000
_cell_angle_beta  117.04600
_cell_angle_gamma 90.00000

_symmetry_space_group_name_	'P 1'
_symmetry_space_group_name_H-M	'P 1'

loop_
_symmetry_equiv_pos_as_xyz
  x,y,z

loop_
_atom_site_label
_atom_site_type_symbol
_atom_site_fract_x
_atom_site_fract_y
_atom_site_fract_z
_atom_site_charge
Cu	Cu	0.17880 0.96438 0.46738 0.91900
Cu	Cu	0.32120 0.46438 0.03262 0.92100
H 	H 	0.11190 0.75740 0.14760 0.07300
H 	H 	0.13210 0.61930 0.03430 0.02800
H 	H 	0.50070 0.59980 0.24260 0.01900
H 	H 	0.49200 0.74340 0.35520 0.07400
H 	H 	0.38810 0.25740 0.35240 0.07500
H 	H 	0.36790 0.11930 0.46570 0.02800
H 	H 	0.99930 0.09980 0.25740 0.01400
H 	H 	0.00800 0.24340 0.14480 0.07600
H 	H 	0.02720 0.20460 0.74350 0.08200
H 	H 	0.09970 0.34160 0.88320 0.01300
H 	H 	0.38390 0.17220 0.78480 0.07400
H 	H 	0.44750 0.30770 0.92810 0.00900
H 	H 	0.47280 0.70460 0.75650 0.08000
H 	H 	0.40030 0.84160 0.61680 0.01200
H 	H 	0.11610 0.67220 0.71520 0.07300
H 	H 	0.05250 0.80770 0.57190 0.00700
C 	C 	0.29330 0.85090 0.35150 0.29700
C 	C 	0.19210 0.72670 0.16830 -0.07400
C 	C 	0.20500 0.64330 0.10140 0.05200
C 	C 	0.30110 0.76480 0.26790 -0.01200
C 	C 	0.42170 0.63250 0.22280 0.05600
C 	C 	0.41680 0.71770 0.29200 -0.08100
C 	C 	0.20670 0.35090 0.14850 0.29500
C 	C 	0.30790 0.22670 0.33170 -0.07600
C 	C 	0.29500 0.14330 0.39860 0.05400
C 	C 	0.19890 0.26480 0.23210 -0.00900
C 	C 	0.07830 0.13250 0.27720 0.06400
C 	C 	0.08320 0.21770 0.20800 -0.08600
C 	C 	0.14850 0.08580 0.64980 0.33900
C 	C 	0.19790 0.17310 0.74610 -0.02300
C 	C 	0.11340 0.22470 0.77860 -0.08300
C 	C 	0.15830 0.30640 0.86380 0.06300
C 	C 	0.32350 0.20530 0.80350 -0.07600
C 	C 	0.36140 0.28730 0.88980 0.06500
C 	C 	0.35150 0.58580 0.85020 0.33900
C 	C 	0.30210 0.67310 0.75390 -0.02400
C 	C 	0.38660 0.72470 0.72140 -0.08300
C 	C 	0.34170 0.80640 0.63620 0.06100
C 	C 	0.17650 0.70530 0.69650 -0.07600
C 	C 	0.13860 0.78730 0.61020 0.06400
N 	N 	0.31750 0.59490 0.12820 -0.20100
N 	N 	0.18250 0.09490 0.37180 -0.20100
N 	N 	0.27960 0.33730 0.91930 -0.20800
N 	N 	0.22040 0.83730 0.58070 -0.20900
O 	O 	0.18134 0.86713 0.34204 -0.37100
O 	O 	0.39250 0.89520 0.42450 -0.28300
O 	O 	0.31866 0.36713 0.15796 -0.37000
O 	O 	0.10750 0.39520 0.07550 -0.28300
O 	O 	0.04350 0.04360 0.62420 -0.35900
O 	O 	0.22230 0.06407 0.60330 -0.38700
O 	O 	0.45650 0.54360 0.87580 -0.36300
O 	O 	0.27770 0.56407 0.89670 -0.38800
Cu	Cu	0.82120 0.03562 0.53262 0.91900
Cu	Cu	0.67880 0.53562 0.96738 0.92100
H 	H 	0.97280 0.79540 0.25650 0.08200
H 	H 	0.90030 0.65840 0.11680 0.01300
H 	H 	0.61610 0.82780 0.21520 0.07400
H 	H 	0.55250 0.69230 0.07190 0.00900
H 	H 	0.52720 0.29540 0.24350 0.08000
H 	H 	0.59970 0.15840 0.38320 0.01200
H 	H 	0.88390 0.32780 0.28480 0.07300
H 	H 	0.94750 0.19230 0.42810 0.00700
H 	H 	0.88810 0.24260 0.85240 0.07300
H 	H 	0.86790 0.38070 0.96570 0.02800
H 	H 	0.49930 0.40020 0.75740 0.01900
H 	H 	0.50800 0.25660 0.64480 0.07400
H 	H 	0.61190 0.74260 0.64760 0.07500
H 	H 	0.63210 0.88070 0.53430 0.02800
H 	H 	0.00070 0.90020 0.74260 0.01400
H 	H 	0.99200 0.75660 0.85520 0.07600
C 	C 	0.85150 0.91420 0.35020 0.33900
C 	C 	0.80210 0.82690 0.25390 -0.02300
C 	C 	0.88660 0.77530 0.22140 -0.08300
C 	C 	0.84170 0.69360 0.13620 0.06300
C 	C 	0.67650 0.79470 0.19650 -0.07600
C 	C 	0.63860 0.71270 0.11020 0.06500
C 	C 	0.64850 0.41420 0.14980 0.33900
C 	C 	0.69790 0.32690 0.24610 -0.02400
C 	C 	0.61340 0.27530 0.27860 -0.08300
C 	C 	0.65830 0.19360 0.36380 0.06100
C 	C 	0.82350 0.29470 0.30350 -0.07600
C 	C 	0.86140 0.21270 0.38980 0.06400
C 	C 	0.70670 0.14910 0.64850 0.29700
C 	C 	0.80790 0.27330 0.83170 -0.07400
C 	C 	0.79500 0.35670 0.89860 0.05200
C 	C 	0.69890 0.23520 0.73210 -0.01200
C 	C 	0.57830 0.36750 0.77720 0.05600
C 	C 	0.58320 0.28230 0.70800 -0.08100
C 	C 	0.79330 0.64910 0.85150 0.29500
C 	C 	0.69210 0.77330 0.66830 -0.07600
C 	C 	0.70500 0.85670 0.60140 0.05400
C 	C 	0.80110 0.73520 0.76790 -0.00900
C 	C 	0.92170 0.86750 0.72280 0.06400
C 	C 	0.91680 0.78230 0.79200 -0.08600
N 	N 	0.72040 0.66270 0.08070 -0.20800
N 	N 	0.77960 0.16270 0.41930 -0.20900
N 	N 	0.68250 0.40510 0.87180 -0.20100
N 	N 	0.81750 0.90510 0.62820 -0.20100
O 	O 	0.95650 0.95640 0.37580 -0.35900
O 	O 	0.77770 0.93593 0.39670 -0.38700
O 	O 	0.54350 0.45640 0.12420 -0.36300
O 	O 	0.72230 0.43593 0.10330 -0.38800
O 	O 	0.81866 0.13287 0.65796 -0.37100
O 	O 	0.60750 0.10480 0.57550 -0.28300
O 	O 	0.68134 0.63287 0.84204 -0.37000
O 	O 	0.89250 0.60480 0.92450 -0.28300
