data_crystal

_cell_length_a 10.06310
_cell_length_b 14.51660
_cell_length_c 14.51660
_cell_angle_alpha 65.17110
_cell_angle_beta  76.63990
_cell_angle_gamma 103.36000

_symmetry_space_group_name_	'P 1'
_symmetry_space_group_name_H-M	'P 1'

loop_
_symmetry_equiv_pos_as_xyz
  x,y,z

loop_
_atom_site_label
_atom_site_type_symbol
_atom_site_fract_x
_atom_site_fract_y
_atom_site_fract_z
_atom_site_charge
Cu	Cu	0.38255 0.88760 0.54935 0.87100
Cu	Cu	0.93190 0.54935 0.56305 0.87100
Cu	Cu	0.49495 0.56305 0.88760 0.87000
Cu	Cu	0.61745 0.11240 0.45065 0.87000
Cu	Cu	0.06810 0.45065 0.43695 0.87000
Cu	Cu	0.50505 0.43695 0.11240 0.87000
H 	H 	0.47380 0.72500 0.69170 -0.05600
H 	H 	0.03150 0.65840 0.93200 0.08400
H 	H 	0.10560 0.77890 0.74830 -0.03500
H 	H 	0.09040 0.53460 0.07550 0.09600
H 	H 	0.24440 0.51300 0.04730 0.08200
H 	H 	0.62700 0.01940 0.29100 -0.00600
H 	H 	0.45180 0.96140 0.31370 0.00100
H 	H 	0.53280 0.09140 0.25770 0.01900
H 	H 	0.16550 0.69170 0.58330 -0.05600
H 	H 	0.96350 0.93200 0.40960 0.08100
H 	H 	0.85390 0.74830 0.47280 -0.03400
H 	H 	0.16590 0.07550 0.38990 0.09600
H 	H 	0.29170 0.04730 0.43970 0.08200
H 	H 	0.91800 0.29100 0.68960 -0.00600
H 	H 	0.76550 0.31370 0.72490 0.00100
H 	H 	0.79050 0.25770 0.65090 0.01900
H 	H 	0.74880 0.58330 0.72500 -0.05600
H 	H 	0.37310 0.40960 0.65840 0.08400
H 	H 	0.32670 0.47280 0.77890 -0.03500
H 	H 	0.55580 0.38990 0.53460 0.09600
H 	H 	0.73140 0.43970 0.51300 0.08200
H 	H 	0.60760 0.68960 0.01940 -0.00600
H 	H 	0.49040 0.72490 0.96140 0.00000
H 	H 	0.44140 0.65090 0.09140 0.01800
H 	H 	0.52620 0.27500 0.30830 -0.05600
H 	H 	0.96850 0.34160 0.06800 0.08400
H 	H 	0.89440 0.22110 0.25170 -0.03500
H 	H 	0.90960 0.46540 0.92450 0.09600
H 	H 	0.75560 0.48700 0.95270 0.08200
H 	H 	0.37300 0.98060 0.70900 -0.00600
H 	H 	0.54820 0.03860 0.68630 0.00100
H 	H 	0.46720 0.90860 0.74230 0.01900
H 	H 	0.83450 0.30830 0.41670 -0.05600
H 	H 	0.03650 0.06800 0.59040 0.08100
H 	H 	0.14610 0.25170 0.52720 -0.03400
H 	H 	0.83410 0.92450 0.61010 0.09600
H 	H 	0.70830 0.95270 0.56030 0.08200
H 	H 	0.08200 0.70900 0.31040 -0.00600
H 	H 	0.23450 0.68630 0.27510 0.00100
H 	H 	0.20950 0.74230 0.34910 0.01900
H 	H 	0.25120 0.41670 0.27500 -0.05600
H 	H 	0.62690 0.59040 0.34160 0.08400
H 	H 	0.67330 0.52720 0.22110 -0.03500
H 	H 	0.44420 0.61010 0.46540 0.09600
H 	H 	0.26860 0.56030 0.48700 0.08200
H 	H 	0.39240 0.31040 0.98060 -0.00600
H 	H 	0.50960 0.27510 0.03860 0.00000
H 	H 	0.55860 0.34910 0.90860 0.01800
C 	C 	0.12300 0.67170 0.88200 -0.21200
C 	C 	0.38190 0.71070 0.74190 0.10200
C 	C 	0.16700 0.74210 0.77420 0.09900
C 	C 	0.21680 0.61790 0.92000 0.17800
C 	C 	0.52260 0.02400 0.31090 0.01200
C 	C 	0.00500 0.88200 0.44630 -0.20500
C 	C 	0.12380 0.74190 0.54740 0.10200
C 	C 	0.94120 0.77420 0.48370 0.09400
C 	C 	0.13680 0.92000 0.46210 0.17800
C 	C 	0.83350 0.31090 0.66510 0.01300
C 	C 	0.45130 0.44630 0.67170 -0.21200
C 	C 	0.67120 0.54740 0.71070 0.10200
C 	C 	0.42490 0.48370 0.74210 0.09900
C 	C 	0.59890 0.46210 0.61790 0.17900
C 	C 	0.49860 0.66510 0.02400 0.01500
C 	C 	0.87700 0.32830 0.11800 -0.21200
C 	C 	0.61810 0.28930 0.25810 0.10200
C 	C 	0.83300 0.25790 0.22580 0.09900
C 	C 	0.78320 0.38210 0.08000 0.17800
C 	C 	0.47740 0.97600 0.68910 0.01200
C 	C 	0.99500 0.11800 0.55370 -0.20500
C 	C 	0.87620 0.25810 0.45260 0.10200
C 	C 	0.05880 0.22580 0.51630 0.09400
C 	C 	0.86320 0.08000 0.53790 0.17800
C 	C 	0.16650 0.68910 0.33490 0.01300
C 	C 	0.54870 0.55370 0.32830 -0.21200
C 	C 	0.32880 0.45260 0.28930 0.10200
C 	C 	0.57510 0.51630 0.25790 0.09900
C 	C 	0.40110 0.53790 0.38210 0.17900
C 	C 	0.50140 0.33490 0.97600 0.01500
N 	N 	0.29970 0.76390 0.70060 -0.25600
N 	N 	0.34830 0.63890 0.84590 -0.25300
N 	N 	0.18080 0.54880 0.02370 -0.26200
N 	N 	0.00030 0.70060 0.53550 -0.25400
N 	N 	0.19420 0.84590 0.51520 -0.25300
N 	N 	0.20450 0.02370 0.42750 -0.26200
N 	N 	0.53580 0.53550 0.76390 -0.25600
N 	N 	0.70940 0.51520 0.63890 -0.25300
N 	N 	0.63200 0.42750 0.54880 -0.26200
N 	N 	0.70030 0.23610 0.29940 -0.25600
N 	N 	0.65170 0.36110 0.15410 -0.25300
N 	N 	0.81920 0.45120 0.97630 -0.26200
N 	N 	0.99970 0.29940 0.46450 -0.25400
N 	N 	0.80580 0.15410 0.48480 -0.25300
N 	N 	0.79550 0.97630 0.57250 -0.26200
N 	N 	0.46420 0.46450 0.23610 -0.25600
N 	N 	0.29060 0.48480 0.36110 -0.25300
N 	N 	0.36800 0.57250 0.45120 -0.26200
O 	O 	0.48760 0.02170 0.41300 -0.46500
O 	O 	0.90060 0.41300 0.56530 -0.46500
O 	O 	0.46590 0.56530 0.02170 -0.46500
O 	O 	0.51240 0.97830 0.58700 -0.46500
O 	O 	0.09940 0.58700 0.43470 -0.46500
O 	O 	0.53410 0.43470 0.97830 -0.46500
