data_crystal

_cell_length_a 22.77300
_cell_length_b 8.54900
_cell_length_c 18.85000
_cell_angle_alpha 90.00000
_cell_angle_beta  90.00000
_cell_angle_gamma 90.00000

_symmetry_space_group_name_	'P 1'
_symmetry_space_group_name_H-M	'P 1'

loop_
_symmetry_equiv_pos_as_xyz
  x,y,z

loop_
_atom_site_label
_atom_site_type_symbol
_atom_site_fract_x
_atom_site_fract_y
_atom_site_fract_z
_atom_site_charge
N 	N 	0.32990 0.43900 0.82730 -0.20200
N 	N 	0.47670 0.44400 0.83750 -0.20800
C 	C 	0.29830 0.54000 0.82770 -0.29700
C 	C 	0.50680 0.54200 0.84830 -0.28500
C 	C 	0.48510 0.45100 0.50700 -0.26700
N 	N 	0.17010 0.56100 0.32730 -0.20100
N 	N 	0.02330 0.55600 0.33750 -0.20700
C 	C 	0.20170 0.46000 0.32770 -0.29700
C 	C 	0.99320 0.45800 0.34830 -0.28500
C 	C 	0.01490 0.54900 0.00700 -0.26700
N 	N 	0.67010 0.93900 0.17270 -0.20100
N 	N 	0.52330 0.94400 0.16250 -0.20700
C 	C 	0.70170 0.04000 0.17230 -0.29700
C 	C 	0.49320 0.04200 0.15170 -0.28500
C 	C 	0.51490 0.95100 0.49300 -0.26700
N 	N 	0.82990 0.06100 0.67270 -0.20100
N 	N 	0.97670 0.05600 0.66250 -0.20700
C 	C 	0.79830 0.96000 0.67230 -0.29700
C 	C 	0.00680 0.95800 0.65170 -0.28500
C 	C 	0.98510 0.04900 0.99300 -0.26800
N 	N 	0.67010 0.56100 0.17270 -0.20100
N 	N 	0.52330 0.55600 0.16250 -0.20700
C 	C 	0.70170 0.46000 0.17230 -0.29700
C 	C 	0.49320 0.45800 0.15170 -0.28500
C 	C 	0.51490 0.54900 0.49300 -0.26700
N 	N 	0.82990 0.43900 0.67270 -0.20100
N 	N 	0.97670 0.44400 0.66250 -0.20700
C 	C 	0.79830 0.54000 0.67230 -0.29700
C 	C 	0.00680 0.54200 0.65170 -0.28500
C 	C 	0.98510 0.45100 0.99300 -0.26700
N 	N 	0.32990 0.06100 0.82730 -0.20100
N 	N 	0.47670 0.05600 0.83750 -0.20700
C 	C 	0.29830 0.96000 0.82770 -0.29700
C 	C 	0.50680 0.95800 0.84830 -0.28500
C 	C 	0.48510 0.04900 0.50700 -0.26700
N 	N 	0.17010 0.93900 0.32730 -0.20100
N 	N 	0.02330 0.94400 0.33750 -0.20700
C 	C 	0.20170 0.04000 0.32770 -0.29700
C 	C 	0.99320 0.04200 0.34830 -0.28500
C 	C 	0.01490 0.95100 0.00700 -0.26800
Cd	Cd	0.40525 0.25000 0.83473 1.16100
Cd	Cd	0.42620 0.25000 0.53431 1.14900
Cd	Cd	0.43758 0.25000 0.12848 1.15000
N 	N 	0.40960 0.25000 0.70790 -0.19500
N 	N 	0.40130 0.25000 0.95900 -0.20200
C 	C 	0.41390 0.25000 0.64790 -0.31200
C 	C 	0.41050 0.25000 0.01660 -0.29700
C 	C 	0.35020 0.25000 0.45790 -0.27300
C 	C 	0.31760 0.25000 0.41620 -0.26500
Cd	Cd	0.09475 0.75000 0.33473 1.16100
Cd	Cd	0.07380 0.75000 0.03431 1.14800
Cd	Cd	0.06242 0.75000 0.62848 1.15000
N 	N 	0.09040 0.75000 0.20790 -0.19500
N 	N 	0.09870 0.75000 0.45900 -0.20200
C 	C 	0.08610 0.75000 0.14790 -0.31300
C 	C 	0.08950 0.75000 0.51660 -0.29800
C 	C 	0.14980 0.75000 0.95790 -0.27200
C 	C 	0.18240 0.75000 0.91620 -0.26500
Cd	Cd	0.59475 0.75000 0.16527 1.16100
Cd	Cd	0.57380 0.75000 0.46569 1.14900
Cd	Cd	0.56242 0.75000 0.87152 1.15000
N 	N 	0.59040 0.75000 0.29210 -0.19500
N 	N 	0.59870 0.75000 0.04100 -0.20200
C 	C 	0.58610 0.75000 0.35210 -0.31200
C 	C 	0.58950 0.75000 0.98340 -0.29700
C 	C 	0.64980 0.75000 0.54210 -0.27300
C 	C 	0.68240 0.75000 0.58380 -0.26500
Cd	Cd	0.90525 0.25000 0.66527 1.16100
Cd	Cd	0.92620 0.25000 0.96569 1.14800
Cd	Cd	0.93758 0.25000 0.37152 1.15000
N 	N 	0.90960 0.25000 0.79210 -0.19500
N 	N 	0.90130 0.25000 0.54100 -0.20200
C 	C 	0.91390 0.25000 0.85210 -0.31300
C 	C 	0.91050 0.25000 0.48340 -0.29800
C 	C 	0.85020 0.25000 0.04210 -0.27200
C 	C 	0.81760 0.25000 0.08380 -0.26500
Cd	Cd	0.24301 0.75000 0.82375 1.15300
C 	C 	0.17740 0.75000 0.73900 -0.28300
C 	C 	0.14050 0.75000 0.69950 -0.27000
Cd	Cd	0.25699 0.25000 0.32375 1.15300
C 	C 	0.32260 0.25000 0.23900 -0.28300
C 	C 	0.35950 0.25000 0.19950 -0.27000
Cd	Cd	0.75699 0.25000 0.17625 1.15300
C 	C 	0.82260 0.25000 0.26100 -0.28300
C 	C 	0.85950 0.25000 0.30050 -0.27000
Cd	Cd	0.74301 0.75000 0.67625 1.15300
C 	C 	0.67740 0.75000 0.76100 -0.28300
C 	C 	0.64050 0.75000 0.80050 -0.27000
