data_crystal

_cell_length_a 10.30390
_cell_length_b 24.94250
_cell_length_c 11.57400
_cell_angle_alpha 90.00000
_cell_angle_beta  93.19700
_cell_angle_gamma 90.00000

_symmetry_space_group_name_	'P 1'
_symmetry_space_group_name_H-M	'P 1'

loop_
_symmetry_equiv_pos_as_xyz
  x,y,z

loop_
_atom_site_label
_atom_site_type_symbol
_atom_site_fract_x
_atom_site_fract_y
_atom_site_fract_z
_atom_site_charge
Zn	Zn	0.56823 0.22009 0.41441 1.17000
Zn	Zn	0.06993 0.14678 0.43502 1.20100
O 	O 	0.76200 0.19164 0.41990 -0.48600
O 	O 	0.88390 0.11711 0.42720 -0.45000
O 	O 	0.26280 0.17874 0.44510 -0.46400
O 	O 	0.37960 0.25003 0.40050 -0.47600
N 	N 	0.63470 0.30147 0.43890 -0.25500
N 	N 	0.84850 0.56755 0.55480 -0.24100
N 	N 	0.06460 0.13940 0.23940 -0.22900
N 	N 	0.06630 0.14466 0.62570 -0.23500
N 	N 	0.53540 0.13638 0.40230 -0.32900
H 	H 	0.47460 0.12660 0.45370 0.09600
H 	H 	0.50240 0.12810 0.32900 0.08700
N 	N 	0.72760 0.90999 0.16810 -0.31100
H 	H 	0.65450 0.89250 0.14110 0.10700
H 	H 	0.79320 0.88590 0.18090 0.10700
H 	H 	0.75090 0.93450 0.11480 0.10700
N 	N 	0.03750 0.23065 0.42420 -0.32100
H 	H 	0.96360 0.23730 0.37810 0.10400
H 	H 	0.02500 0.24410 0.49680 0.09800
N 	N 	0.18940 0.44545 0.22570 -0.31400
H 	H 	0.19850 0.41230 0.19420 0.11200
H 	H 	0.26360 0.46460 0.21810 0.10800
H 	H 	0.12140 0.46270 0.18840 0.11200
C 	C 	0.57210 0.34315 0.39010 0.05700
H 	H 	0.50060 0.33660 0.33650 -0.01400
C 	C 	0.60790 0.39617 0.41480 -0.12200
H 	H 	0.56050 0.42490 0.37900 0.05800
C 	C 	0.71220 0.40660 0.49130 0.03900
C 	C 	0.77850 0.36297 0.54170 -0.12200
H 	H 	0.85150 0.36840 0.59420 0.05700
C 	C 	0.73600 0.31163 0.51390 0.05100
H 	H 	0.78070 0.28210 0.54960 -0.01900
C 	C 	0.75580 0.55603 0.47300 0.06900
H 	H 	0.71950 0.58470 0.42800 -0.01200
C 	C 	0.71060 0.50566 0.45030 -0.13100
H 	H 	0.64700 0.49980 0.38900 0.06100
C 	C 	0.75750 0.46277 0.51680 0.04600
C 	C 	0.84950 0.47439 0.60510 -0.12800
H 	H 	0.88230 0.44670 0.65490 0.06000
C 	C 	0.89350 0.52661 0.62050 0.06700
H 	H 	0.95830 0.53370 0.68010 -0.00700
C 	C 	0.17050 0.15080 0.18260 0.06100
H 	H 	0.24860 0.15860 0.22690 -0.01900
C 	C 	0.17350 0.15210 0.06370 -0.12700
H 	H 	0.25120 0.16190 0.02860 0.05700
C 	C 	0.06290 0.13896 0.99540 0.04300
C 	C 	0.95550 0.12388 0.05400 -0.12800
H 	H 	0.87890 0.11210 0.01200 0.05900
C 	C 	0.95890 0.12576 0.17230 0.06200
H 	H 	0.88190 0.11690 0.20940 -0.00400
C 	C 	0.14140 0.17658 0.69340 0.06200
H 	H 	0.19680 0.20110 0.65720 -0.01300
C 	C 	0.14370 0.17624 0.81180 -0.12600
H 	H 	0.19900 0.20010 0.85550 0.05700
C 	C 	0.06320 0.14021 0.86790 0.04000
C 	C 	0.98530 0.10713 0.79730 -0.12500
H 	H 	0.93000 0.08170 0.83060 0.05900
C 	C 	0.98810 0.11110 0.68000 0.06300
H 	H 	0.93130 0.08880 0.63390 -0.00100
C 	C 	0.77620 0.14177 0.42430 0.34000
C 	C 	0.65700 0.10546 0.42780 -0.12100
H 	H 	0.65400 0.09220 0.50910 0.05200
C 	C 	0.67040 0.05621 0.35120 -0.08000
H 	H 	0.66450 0.06800 0.26940 0.04200
H 	H 	0.75830 0.04090 0.36700 0.06000
C 	C 	0.57250 0.01250 0.36520 -0.05400
H 	H 	0.48400 0.02810 0.36160 0.04300
H 	H 	0.58810 0.99540 0.44190 0.03500
C 	C 	0.58180 0.96970 0.26920 -0.14500
H 	H 	0.50650 0.94520 0.27190 0.06000
H 	H 	0.57650 0.98780 0.19290 0.05600
C 	C 	0.70150 0.93830 0.28010 0.00200
H 	H 	0.69450 0.91140 0.34230 0.01800
H 	H 	0.77540 0.96220 0.30210 0.01800
C 	C 	0.27380 0.22627 0.41160 0.34700
C 	C 	0.15000 0.25806 0.37510 -0.11100
H 	H 	0.13780 0.25420 0.28920 0.04800
C 	C 	0.16060 0.31792 0.39920 -0.08200
H 	H 	0.16130 0.32390 0.48380 0.04700
H 	H 	0.24410 0.33120 0.37210 0.05500
C 	C 	0.05070 0.34975 0.34100 -0.06000
H 	H 	0.96710 0.33320 0.35990 0.04000
H 	H 	0.05720 0.34750 0.25610 0.03400
C 	C 	0.04970 0.40914 0.37680 -0.14700
H 	H 	0.97260 0.42650 0.33800 0.06600
H 	H 	0.03940 0.41100 0.46130 0.06500
C 	C 	0.16450 0.44000 0.35040 0.01500
H 	H 	0.24140 0.42300 0.39020 0.01500
H 	H 	0.15610 0.47640 0.38340 0.01500
Zn	Zn	0.43177 0.72009 0.58559 1.17100
Zn	Zn	0.93007 0.64678 0.56498 1.20200
O 	O 	0.23800 0.69164 0.58010 -0.48600
O 	O 	0.11610 0.61711 0.57280 -0.45100
O 	O 	0.73720 0.67874 0.55490 -0.46400
O 	O 	0.62040 0.75003 0.59950 -0.47600
N 	N 	0.36530 0.80147 0.56110 -0.25600
N 	N 	0.15150 0.06755 0.44520 -0.24000
N 	N 	0.93540 0.63940 0.76060 -0.22900
N 	N 	0.93370 0.64466 0.37430 -0.23500
N 	N 	0.46460 0.63638 0.59770 -0.32800
H 	H 	0.52540 0.62660 0.54630 0.09600
H 	H 	0.49760 0.62810 0.67100 0.08700
N 	N 	0.27240 0.40999 0.83190 -0.30900
H 	H 	0.34550 0.39250 0.85890 0.10800
H 	H 	0.20680 0.38590 0.81910 0.10700
H 	H 	0.24910 0.43450 0.88520 0.10800
N 	N 	0.96250 0.73065 0.57580 -0.32000
H 	H 	0.03640 0.73730 0.62190 0.10400
H 	H 	0.97500 0.74410 0.50320 0.09800
N 	N 	0.81060 0.94545 0.77430 -0.31300
H 	H 	0.80150 0.91230 0.80580 0.11100
H 	H 	0.73640 0.96460 0.78190 0.10700
H 	H 	0.87860 0.96270 0.81160 0.11100
C 	C 	0.42790 0.84315 0.60990 0.05900
H 	H 	0.49940 0.83660 0.66350 -0.01400
C 	C 	0.39210 0.89617 0.58520 -0.12600
H 	H 	0.43950 0.92490 0.62100 0.05900
C 	C 	0.28780 0.90660 0.50870 0.04400
C 	C 	0.22150 0.86297 0.45830 -0.12500
H 	H 	0.14850 0.86840 0.40580 0.05800
C 	C 	0.26400 0.81163 0.48610 0.05200
H 	H 	0.21930 0.78210 0.45040 -0.02000
C 	C 	0.24420 0.05603 0.52700 0.05800
H 	H 	0.28050 0.08470 0.57200 -0.00700
C 	C 	0.28940 0.00566 0.54970 -0.10400
H 	H 	0.35300 0.99980 0.61100 0.04900
C 	C 	0.24250 0.96277 0.48320 0.03300
C 	C 	0.15050 0.97439 0.39490 -0.13000
H 	H 	0.11770 0.94670 0.34510 0.06000
C 	C 	0.10650 0.02661 0.37950 0.07200
H 	H 	0.04170 0.03370 0.31990 -0.00700
C 	C 	0.82950 0.65080 0.81740 0.06100
H 	H 	0.75140 0.65860 0.77310 -0.01900
C 	C 	0.82650 0.65210 0.93630 -0.12700
H 	H 	0.74880 0.66190 0.97140 0.05700
C 	C 	0.93710 0.63896 0.00460 0.04200
C 	C 	0.04450 0.62388 0.94600 -0.12700
H 	H 	0.12110 0.61210 0.98800 0.05800
C 	C 	0.04110 0.62576 0.82770 0.06200
H 	H 	0.11810 0.61690 0.79060 -0.00400
C 	C 	0.85860 0.67658 0.30660 0.06200
H 	H 	0.80320 0.70110 0.34280 -0.01300
C 	C 	0.85630 0.67624 0.18820 -0.12600
H 	H 	0.80100 0.70010 0.14450 0.05700
C 	C 	0.93680 0.64021 0.13210 0.04000
C 	C 	0.01470 0.60713 0.20270 -0.12500
H 	H 	0.07000 0.58170 0.16940 0.05800
C 	C 	0.01190 0.61110 0.32000 0.06200
H 	H 	0.06870 0.58880 0.36610 -0.00200
C 	C 	0.22380 0.64177 0.57570 0.34200
C 	C 	0.34300 0.60546 0.57220 -0.12800
H 	H 	0.34600 0.59220 0.49090 0.05300
C 	C 	0.32960 0.55621 0.64880 -0.06300
H 	H 	0.33550 0.56800 0.73060 0.03700
H 	H 	0.24170 0.54090 0.63300 0.05300
C 	C 	0.42750 0.51250 0.63480 -0.08700
H 	H 	0.51600 0.52810 0.63840 0.05100
H 	H 	0.41190 0.49540 0.55810 0.04800
C 	C 	0.41820 0.46970 0.73080 -0.12200
H 	H 	0.49350 0.44520 0.72810 0.05400
H 	H 	0.42350 0.48780 0.80710 0.05200
C 	C 	0.29850 0.43830 0.71990 -0.01000
H 	H 	0.30550 0.41140 0.65770 0.02100
H 	H 	0.22460 0.46220 0.69790 0.02400
C 	C 	0.72620 0.72627 0.58840 0.34700
C 	C 	0.85000 0.75806 0.62490 -0.11100
H 	H 	0.86220 0.75420 0.71080 0.04800
C 	C 	0.83940 0.81792 0.60080 -0.08200
H 	H 	0.83870 0.82390 0.51620 0.04700
H 	H 	0.75590 0.83120 0.62790 0.05500
C 	C 	0.94930 0.84975 0.65900 -0.06000
H 	H 	0.03290 0.83320 0.64010 0.04000
H 	H 	0.94280 0.84750 0.74390 0.03300
C 	C 	0.95030 0.90914 0.62320 -0.14700
H 	H 	0.02740 0.92650 0.66200 0.06500
H 	H 	0.96060 0.91100 0.53870 0.06500
C 	C 	0.83550 0.94000 0.64960 0.01500
H 	H 	0.75860 0.92300 0.60980 0.01500
H 	H 	0.84390 0.97640 0.61660 0.01400
