data_crystal

_cell_length_a 16.07000
_cell_length_b 9.47100
_cell_length_c 23.54000
_cell_angle_alpha 90.00000
_cell_angle_beta  107.68500
_cell_angle_gamma 90.00000

_symmetry_space_group_name_	'P 1'
_symmetry_space_group_name_H-M	'P 1'

loop_
_symmetry_equiv_pos_as_xyz
  x,y,z

loop_
_atom_site_label
_atom_site_type_symbol
_atom_site_fract_x
_atom_site_fract_y
_atom_site_fract_z
_atom_site_charge
Eu	Eu	0.29625 0.50554 0.09731 1.90600
O 	O 	0.37360 0.32330 0.16621 -0.49300
O 	O 	0.40130 0.20000 0.25127 -0.53800
O 	O 	0.19290 0.67890 0.11297 -0.42700
O 	O 	0.11300 0.77220 0.16683 -0.26000
O 	O 	0.38860 0.68720 0.15705 -0.43900
O 	O 	0.51550 0.80580 0.18919 -0.41600
O 	O 	0.33440 0.33130 0.03339 -0.50700
O 	O 	0.43350 0.20950 0.00428 -0.63800
O 	O 	0.29990 0.68710 0.02212 -0.46900
O 	O 	0.24950 0.78580 0.93170 -0.26300
O 	O 	0.18230 0.32730 0.08688 -0.47000
O 	O 	0.06040 0.21420 0.03527 -0.62900
N 	N 	0.26240 0.48850 0.19488 -0.18300
N 	N 	0.45260 0.50880 0.09633 -0.17800
N 	N 	0.16930 0.50850 0.00041 -0.24900
C 	C 	0.36270 0.29410 0.21640 0.38100
C 	C 	0.29600 0.38230 0.23300 -0.07100
C 	C 	0.26800 0.35330 0.28200 -0.01000
H 	H 	0.29160 0.27650 0.30780 0.00100
C 	C 	0.20450 0.43960 0.29220 -0.06700
H 	H 	0.18380 0.42230 0.32530 0.04400
C 	C 	0.17110 0.55180 0.25390 -0.02900
H 	H 	0.12830 0.61280 0.26080 0.04800
C 	C 	0.20150 0.57270 0.20570 -0.02400
C 	C 	0.16590 0.68490 0.15850 0.31700
C 	C 	0.46860 0.70880 0.16100 0.35300
C 	C 	0.50840 0.60700 0.12670 -0.05200
C 	C 	0.59320 0.61580 0.12490 -0.01600
H 	H 	0.63110 0.68760 0.14640 0.04800
C 	C 	0.62180 0.51900 0.09150 -0.07100
H 	H 	0.68000 0.52330 0.08960 0.05300
C 	C 	0.56460 0.41420 0.06030 0.00400
H 	H 	0.58320 0.34580 0.03720 -0.02400
C 	C 	0.47970 0.41300 0.06400 -0.11400
C 	C 	0.41140 0.30980 0.03160 0.40200
C 	C 	0.24370 0.70170 0.97150 0.36400
C 	C 	0.16460 0.60810 0.95840 0.00000
C 	C 	0.09270 0.61960 0.90770 -0.03300
H 	H 	0.08980 0.69200 0.87930 0.04300
C 	C 	0.02540 0.52360 0.89980 -0.09800
H 	H 	0.97570 0.52850 0.86540 0.11000
C 	C 	0.03120 0.41970 0.94260 -0.15700
H 	H 	0.98580 0.35240 0.93780 0.10700
C 	C 	0.10380 0.41570 0.99210 0.05100
C 	C 	0.11560 0.31000 0.04150 0.31100
Eu	Eu	0.70375 0.50554 0.40268 1.92400
O 	O 	0.62640 0.32330 0.33379 -0.49200
O 	O 	0.59870 0.20000 0.24873 -0.53600
O 	O 	0.80710 0.67890 0.38703 -0.41000
O 	O 	0.88700 0.77220 0.33317 -0.22200
O 	O 	0.61140 0.68720 0.34295 -0.43900
O 	O 	0.48450 0.80580 0.31081 -0.41400
O 	O 	0.66560 0.33130 0.46661 -0.48900
O 	O 	0.56650 0.20950 0.49572 -0.61100
O 	O 	0.70010 0.68710 0.47788 -0.41400
O 	O 	0.75050 0.78580 0.56830 -0.25000
O 	O 	0.81770 0.32730 0.41312 -0.47800
O 	O 	0.93960 0.21420 0.46473 -0.56700
N 	N 	0.73760 0.48850 0.30512 -0.18400
N 	N 	0.54740 0.50880 0.40367 -0.17900
N 	N 	0.83070 0.50850 0.49959 -0.17800
C 	C 	0.63730 0.29410 0.28360 0.38200
C 	C 	0.70400 0.38230 0.26700 -0.06600
C 	C 	0.73200 0.35330 0.21800 -0.01100
H 	H 	0.70840 0.27650 0.19220 0.00500
C 	C 	0.79550 0.43960 0.20780 -0.05200
H 	H 	0.81620 0.42230 0.17470 0.04800
C 	C 	0.82890 0.55180 0.24610 -0.03500
H 	H 	0.87170 0.61280 0.23920 0.07100
C 	C 	0.79850 0.57270 0.29430 -0.01100
C 	C 	0.83410 0.68490 0.34150 0.30900
C 	C 	0.53140 0.70880 0.33900 0.35500
C 	C 	0.49160 0.60700 0.37330 -0.04700
C 	C 	0.40680 0.61580 0.37510 -0.01400
H 	H 	0.36890 0.68760 0.35360 0.05000
C 	C 	0.37820 0.51900 0.40850 -0.06000
H 	H 	0.32000 0.52330 0.41040 0.05700
C 	C 	0.43540 0.41420 0.43970 0.00400
H 	H 	0.41680 0.34580 0.46280 -0.01000
C 	C 	0.52030 0.41300 0.43600 -0.10200
C 	C 	0.58860 0.30980 0.46840 0.40200
C 	C 	0.75630 0.70170 0.52850 0.30100
C 	C 	0.83540 0.60810 0.54160 -0.01500
C 	C 	0.90730 0.61960 0.59230 -0.07800
H 	H 	0.91020 0.69200 0.62070 0.08600
C 	C 	0.97460 0.52360 0.60020 0.04900
H 	H 	0.02430 0.52850 0.63460 -0.02300
C 	C 	0.96880 0.41970 0.55740 0.08200
H 	H 	0.01420 0.35240 0.56220 -0.07500
C 	C 	0.89620 0.41570 0.50790 -0.11000
C 	C 	0.88440 0.31000 0.45850 0.41400
Eu	Eu	0.70375 0.49446 0.90268 1.93700
O 	O 	0.62640 0.67670 0.83379 -0.44200
O 	O 	0.59870 0.80000 0.74873 -0.41600
O 	O 	0.80710 0.32110 0.88703 -0.46000
O 	O 	0.88700 0.22780 0.83317 -0.33900
O 	O 	0.61140 0.31280 0.84295 -0.50000
O 	O 	0.48450 0.19420 0.81081 -0.56000
O 	O 	0.66560 0.66870 0.96661 -0.41600
O 	O 	0.56650 0.79050 0.99572 -0.44900
O 	O 	0.70010 0.31290 0.97788 -0.41700
O 	O 	0.75050 0.21420 0.06830 -0.36500
O 	O 	0.81770 0.67270 0.91312 -0.43300
O 	O 	0.93960 0.78580 0.96473 -0.43500
N 	N 	0.73760 0.51150 0.80512 -0.18600
N 	N 	0.54740 0.49120 0.90367 -0.17800
N 	N 	0.83070 0.49150 0.99959 -0.10700
C 	C 	0.63730 0.70590 0.78360 0.37400
C 	C 	0.70400 0.61770 0.76700 -0.03100
C 	C 	0.73200 0.64670 0.71800 -0.01500
H 	H 	0.70840 0.72350 0.69220 0.06200
C 	C 	0.79550 0.56040 0.70780 -0.03600
H 	H 	0.81620 0.57770 0.67470 0.05200
C 	C 	0.82890 0.44820 0.74610 -0.03100
H 	H 	0.87170 0.38720 0.73920 0.04000
C 	C 	0.79850 0.42730 0.79430 -0.03300
C 	C 	0.83410 0.31510 0.84150 0.31700
C 	C 	0.53140 0.29120 0.83900 0.37300
C 	C 	0.49160 0.39300 0.87330 -0.07600
C 	C 	0.40680 0.38420 0.87510 -0.00200
H 	H 	0.36890 0.31240 0.85360 0.00100
C 	C 	0.37820 0.48100 0.90850 -0.05400
H 	H 	0.32000 0.47670 0.91040 0.05000
C 	C 	0.43540 0.58580 0.93970 0.00300
H 	H 	0.41680 0.65420 0.96280 0.03400
C 	C 	0.52030 0.58700 0.93600 -0.06200
C 	C 	0.58860 0.69020 0.96840 0.38900
C 	C 	0.75630 0.29830 0.02850 0.25300
C 	C 	0.83540 0.39190 0.04160 -0.09300
C 	C 	0.90730 0.38040 0.09230 -0.02800
H 	H 	0.91020 0.30800 0.12070 0.02000
C 	C 	0.97460 0.47640 0.10020 -0.00500
H 	H 	0.02430 0.47150 0.13460 -0.01600
C 	C 	0.96880 0.58030 0.05740 0.14400
H 	H 	0.01420 0.64760 0.06220 -0.07600
C 	C 	0.89620 0.58430 0.00790 -0.20300
C 	C 	0.88440 0.69000 0.95850 0.47800
Eu	Eu	0.29625 0.49446 0.59732 1.91800
O 	O 	0.37360 0.67670 0.66621 -0.44300
O 	O 	0.40130 0.80000 0.75127 -0.41700
O 	O 	0.19290 0.32110 0.61297 -0.47900
O 	O 	0.11300 0.22780 0.66683 -0.38100
O 	O 	0.38860 0.31280 0.65705 -0.50100
O 	O 	0.51550 0.19420 0.68919 -0.56200
O 	O 	0.33440 0.66870 0.53339 -0.43300
O 	O 	0.43350 0.79050 0.50428 -0.47700
O 	O 	0.29990 0.31290 0.52212 -0.47600
O 	O 	0.24950 0.21420 0.43170 -0.38100
O 	O 	0.18230 0.67270 0.58688 -0.42400
O 	O 	0.06040 0.78580 0.53527 -0.49400
N 	N 	0.26240 0.51150 0.69488 -0.18400
N 	N 	0.45260 0.49120 0.59633 -0.17700
N 	N 	0.16930 0.49150 0.50041 -0.17500
C 	C 	0.36270 0.70590 0.71640 0.37200
C 	C 	0.29600 0.61770 0.73300 -0.03600
C 	C 	0.26800 0.64670 0.78200 -0.01400
H 	H 	0.29160 0.72350 0.80780 0.05900
C 	C 	0.20450 0.56040 0.79220 -0.05000
H 	H 	0.18380 0.57770 0.82530 0.04800
C 	C 	0.17110 0.44820 0.75390 -0.02500
H 	H 	0.12830 0.38720 0.76080 0.01600
C 	C 	0.20150 0.42730 0.70570 -0.04700
C 	C 	0.16590 0.31510 0.65850 0.32600
C 	C 	0.46860 0.29120 0.66100 0.37100
C 	C 	0.50840 0.39300 0.62670 -0.08100
C 	C 	0.59320 0.38420 0.62490 -0.00400
H 	H 	0.63110 0.31240 0.64640 -0.00100
C 	C 	0.62180 0.48100 0.59150 -0.06600
H 	H 	0.68000 0.47670 0.58960 0.04700
C 	C 	0.56460 0.58580 0.56030 0.00300
H 	H 	0.58320 0.65420 0.53720 0.01900
C 	C 	0.47970 0.58700 0.56400 -0.07500
C 	C 	0.41140 0.69020 0.53160 0.38900
C 	C 	0.24370 0.29830 0.47150 0.32000
C 	C 	0.16460 0.39190 0.45840 -0.08500
C 	C 	0.09270 0.38040 0.40770 0.02600
H 	H 	0.08980 0.30800 0.37930 -0.02900
C 	C 	0.02540 0.47640 0.39980 -0.16900
H 	H 	0.97570 0.47150 0.36540 0.12500
C 	C 	0.03120 0.58030 0.44260 -0.07800
H 	H 	0.98580 0.64760 0.43780 0.09600
C 	C 	0.10380 0.58430 0.49210 -0.05300
C 	C 	0.11560 0.69000 0.54150 0.38100
Ca	Ca	0.50000 0.00000 -0.00000 1.42000
Ca	Ca	0.50000 0.00000 0.50000 1.42900
Ca	Ca	0.50000 0.00350 0.25000 1.44800
Ca	Ca	0.50000 0.99650 0.75000 1.52300
Ca	Ca	-0.00000 0.00000 -0.00000 1.41200
Ca	Ca	0.00000 0.00000 0.50000 1.42100
