data_crystal

_cell_length_a 6.69090
_cell_length_b 20.04200
_cell_length_c 9.66080
_cell_angle_alpha 90.00000
_cell_angle_beta  96.35700
_cell_angle_gamma 90.00000

_symmetry_space_group_name_	'P 1'
_symmetry_space_group_name_H-M	'P 1'

loop_
_symmetry_equiv_pos_as_xyz
  x,y,z

loop_
_atom_site_label
_atom_site_type_symbol
_atom_site_fract_x
_atom_site_fract_y
_atom_site_fract_z
_atom_site_charge
Ag	Ag	0.75895 0.32936 0.64440 0.41800
Ag	Ag	0.70693 0.69822 0.77742 0.39600
C 	C 	0.74050 0.48910 0.59150 0.02400
C 	C 	0.72240 0.47520 0.82440 0.00200
H 	H 	0.72000 0.44790 0.90210 -0.00000
C 	C 	0.71000 0.54469 0.84110 0.01000
H 	H 	0.70130 0.56190 0.92960 -0.00900
C 	C 	0.72490 0.55896 0.60640 0.04400
C 	C 	0.72660 0.60167 0.48720 -0.07500
H 	H 	0.71490 0.64760 0.49750 -0.04000
C 	C 	0.74520 0.57547 0.35910 -0.08300
H 	H 	0.74580 0.60370 0.28280 -0.00100
C 	C 	0.76390 0.50507 0.34080 0.05900
C 	C 	0.76090 0.46146 0.45560 0.01600
C 	C 	0.80080 0.37175 0.31610 -0.01500
H 	H 	0.81360 0.32610 0.30250 -0.07100
C 	C 	0.80560 0.41537 0.20190 -0.00800
H 	H 	0.82330 0.39710 0.11560 -0.01600
N 	N 	0.73750 0.44725 0.70170 -0.16600
N 	N 	0.71020 0.58642 0.73470 -0.18600
N 	N 	0.77840 0.39443 0.44220 -0.17700
N 	N 	0.78630 0.48064 0.21100 -0.12400
Ag	Ag	0.24105 0.82936 0.85560 0.41900
Ag	Ag	0.29307 0.19822 0.72258 0.39700
C 	C 	0.25950 0.98910 0.90850 0.02200
C 	C 	0.27760 0.97520 0.67560 0.00100
H 	H 	0.28000 0.94790 0.59790 -0.00000
C 	C 	0.29000 0.04469 0.65890 0.01000
H 	H 	0.29870 0.06190 0.57040 -0.00900
C 	C 	0.27510 0.05896 0.89360 0.04600
C 	C 	0.27340 0.10167 0.01280 -0.07700
H 	H 	0.28510 0.14760 0.00250 -0.03900
C 	C 	0.25480 0.07547 0.14090 -0.08100
H 	H 	0.25420 0.10370 0.21720 -0.00200
C 	C 	0.23610 0.00507 0.15920 0.05700
C 	C 	0.23910 0.96146 0.04440 0.01900
C 	C 	0.19920 0.87175 0.18390 -0.01500
H 	H 	0.18640 0.82610 0.19750 -0.07100
C 	C 	0.19440 0.91537 0.29810 -0.00800
H 	H 	0.17670 0.89710 0.38440 -0.01600
N 	N 	0.26250 0.94725 0.79830 -0.16500
N 	N 	0.28980 0.08642 0.76530 -0.18600
N 	N 	0.22160 0.89443 0.05780 -0.17700
N 	N 	0.21370 0.98064 0.28900 -0.12400
Ag	Ag	0.24105 0.67064 0.35560 0.41900
Ag	Ag	0.29307 0.30178 0.22258 0.39700
C 	C 	0.25950 0.51090 0.40850 0.02400
C 	C 	0.27760 0.52480 0.17560 0.00200
H 	H 	0.28000 0.55210 0.09790 -0.00000
C 	C 	0.29000 0.45531 0.15890 0.01000
H 	H 	0.29870 0.43810 0.07040 -0.00900
C 	C 	0.27510 0.44104 0.39360 0.04400
C 	C 	0.27340 0.39833 0.51280 -0.07500
H 	H 	0.28510 0.35240 0.50250 -0.04000
C 	C 	0.25480 0.42453 0.64090 -0.08300
H 	H 	0.25420 0.39630 0.71720 -0.00100
C 	C 	0.23610 0.49493 0.65920 0.05900
C 	C 	0.23910 0.53854 0.54440 0.01600
C 	C 	0.19920 0.62825 0.68390 -0.01500
H 	H 	0.18640 0.67390 0.69750 -0.07100
C 	C 	0.19440 0.58463 0.79810 -0.00800
H 	H 	0.17670 0.60290 0.88440 -0.01600
N 	N 	0.26250 0.55275 0.29830 -0.16600
N 	N 	0.28980 0.41358 0.26530 -0.18600
N 	N 	0.22160 0.60557 0.55780 -0.17700
N 	N 	0.21370 0.51936 0.78900 -0.12400
Ag	Ag	0.75895 0.17064 0.14440 0.41900
Ag	Ag	0.70693 0.80178 0.27742 0.39700
C 	C 	0.74050 0.01090 0.09150 0.02200
C 	C 	0.72240 0.02480 0.32440 0.00100
H 	H 	0.72000 0.05210 0.40210 -0.00000
C 	C 	0.71000 0.95531 0.34110 0.01000
H 	H 	0.70130 0.93810 0.42960 -0.00900
C 	C 	0.72490 0.94104 0.10640 0.04600
C 	C 	0.72660 0.89833 0.98720 -0.07700
H 	H 	0.71490 0.85240 0.99750 -0.03900
C 	C 	0.74520 0.92453 0.85910 -0.08100
H 	H 	0.74580 0.89630 0.78280 -0.00200
C 	C 	0.76390 0.99493 0.84080 0.05700
C 	C 	0.76090 0.03854 0.95560 0.01900
C 	C 	0.80080 0.12825 0.81610 -0.01500
H 	H 	0.81360 0.17390 0.80250 -0.07100
C 	C 	0.80560 0.08463 0.70190 -0.00800
H 	H 	0.82330 0.10290 0.61560 -0.01600
N 	N 	0.73750 0.05275 0.20170 -0.16500
N 	N 	0.71020 0.91358 0.23470 -0.18600
N 	N 	0.77840 0.10557 0.94220 -0.17700
N 	N 	0.78630 0.01936 0.71100 -0.12400
