data_crystal

_cell_length_a 8.75470
_cell_length_b 11.16970
_cell_length_c 17.73590
_cell_angle_alpha 95.24680
_cell_angle_beta  104.28900
_cell_angle_gamma 68.25250

_symmetry_space_group_name_	'P 1'
_symmetry_space_group_name_H-M	'P 1'

loop_
_symmetry_equiv_pos_as_xyz
  x,y,z

loop_
_atom_site_label
_atom_site_type_symbol
_atom_site_fract_x
_atom_site_fract_y
_atom_site_fract_z
_atom_site_charge
Sc	Sc	0.36556 0.25000 0.73112 2.34700
Sc	Sc	0.63444 0.75000 0.26888 2.34800
Sc	Sc	0.88669 0.25000 0.77338 2.34800
Sc	Sc	0.11331 0.75000 0.22662 2.34800
C 	C 	0.02440 0.47652 0.75260 0.51800
C 	C 	0.94920 0.61631 0.75360 -0.15200
C 	C 	0.04500 0.68980 0.74920 0.01200
C 	C 	0.77840 0.67640 0.75320 0.01700
C 	C 	0.25919 0.14010 0.87058 0.53700
C 	C 	0.38785 0.06310 0.93370 -0.16700
C 	C 	0.55848 0.04310 0.94556 0.02300
C 	C 	0.32750 0.03050 0.99140 0.01800
C 	C 	0.54437 0.35980 0.63394 0.51900
C 	C 	0.51688 0.43550 0.56636 -0.15800
C 	C 	0.36977 0.46250 0.50794 0.01900
C 	C 	0.64901 0.46950 0.55762 0.01800
C 	C 	0.72820 0.02348 0.75260 0.51300
C 	C 	0.80440 0.88369 0.75360 -0.15500
C 	C 	0.70420 0.81020 0.74920 0.01900
C 	C 	0.97480 0.82360 0.75320 0.02700
C 	C 	0.61139 0.35990 0.87058 0.53700
C 	C 	0.54585 0.43690 0.93370 -0.16800
C 	C 	0.38708 0.45690 0.94556 0.02700
C 	C 	0.66390 0.46950 0.99140 0.01600
C 	C 	0.08957 0.14020 0.63394 0.51700
C 	C 	0.04948 0.06450 0.56636 -0.15000
C 	C 	0.13817 0.03750 0.50794 0.02600
C 	C 	0.90861 0.03050 0.55762 0.00500
C 	C 	0.97560 0.52348 0.24740 0.51800
C 	C 	0.05080 0.38369 0.24640 -0.15200
C 	C 	0.95500 0.31020 0.25080 0.01200
C 	C 	0.22160 0.32360 0.24680 0.01700
C 	C 	0.74081 0.85990 0.12942 0.53700
C 	C 	0.61215 0.93690 0.06630 -0.16700
C 	C 	0.44152 0.95690 0.05444 0.02300
C 	C 	0.67250 0.96950 0.00860 0.01900
C 	C 	0.45563 0.64020 0.36606 0.51900
C 	C 	0.48312 0.56450 0.43364 -0.15800
C 	C 	0.63023 0.53750 0.49206 0.02000
C 	C 	0.35099 0.53050 0.44238 0.01800
C 	C 	0.27180 0.97652 0.24740 0.51300
C 	C 	0.19560 0.11631 0.24640 -0.15400
C 	C 	0.29580 0.18980 0.25080 0.01900
C 	C 	0.02520 0.17640 0.24680 0.02700
C 	C 	0.38861 0.64010 0.12942 0.53700
C 	C 	0.45415 0.56310 0.06630 -0.16800
C 	C 	0.61292 0.54310 0.05444 0.02700
C 	C 	0.33610 0.53050 0.00860 0.01600
C 	C 	0.91043 0.85980 0.36606 0.51700
C 	C 	0.95052 0.93550 0.43364 -0.15000
C 	C 	0.86183 0.96250 0.49206 0.02600
C 	C 	0.09139 0.96950 0.44238 0.00500
O 	O 	0.16246 0.42230 0.73052 -0.61900
O 	O 	0.95000 0.41080 0.77360 -0.63200
O 	O 	0.30931 0.17630 0.81902 -0.65300
O 	O 	0.10228 0.16450 0.86136 -0.60300
O 	O 	0.42854 0.32380 0.64348 -0.60800
O 	O 	0.67787 0.34370 0.68694 -0.64000
O 	O 	0.56806 0.07770 0.73052 -0.61900
O 	O 	0.82360 0.08920 0.77360 -0.63200
O 	O 	0.50971 0.32370 0.81902 -0.65400
O 	O 	0.75908 0.33550 0.86136 -0.60700
O 	O 	0.21494 0.17620 0.64348 -0.60700
O 	O 	0.00907 0.15630 0.68694 -0.63500
O 	O 	0.83754 0.57770 0.26948 -0.61900
O 	O 	0.05000 0.58920 0.22640 -0.63200
O 	O 	0.69069 0.82370 0.18098 -0.65300
O 	O 	0.89772 0.83550 0.13864 -0.60300
O 	O 	0.57146 0.67620 0.35652 -0.60800
O 	O 	0.32213 0.65630 0.31306 -0.64000
O 	O 	0.43194 0.92230 0.26948 -0.61900
O 	O 	0.17640 0.91080 0.22640 -0.63200
O 	O 	0.49029 0.67630 0.18098 -0.65400
O 	O 	0.24092 0.66450 0.13864 -0.60700
O 	O 	0.78506 0.82380 0.35652 -0.60700
O 	O 	0.99093 0.84370 0.31306 -0.63500
H 	H 	0.18046 0.64039 0.74234 0.03600
H 	H 	0.69974 0.61605 0.75614 0.03400
H 	H 	0.60369 0.08690 0.90378 0.02300
H 	H 	0.18563 0.06413 0.98671 0.04300
H 	H 	0.26527 0.42888 0.51397 0.03800
H 	H 	0.77220 0.44160 0.60414 0.02600
H 	H 	0.56189 0.85961 0.74234 0.03500
H 	H 	0.05679 0.88364 0.75614 0.02900
H 	H 	0.30009 0.41310 0.90378 0.02400
H 	H 	0.80108 0.43587 0.98671 0.04100
H 	H 	0.24869 0.07112 0.51397 0.03700
H 	H 	0.83194 0.05840 0.60414 0.02800
H 	H 	0.81954 0.35961 0.25766 0.03600
H 	H 	0.30026 0.38395 0.24386 0.03400
H 	H 	0.39631 0.91310 0.09622 0.02300
H 	H 	0.81411 0.93637 0.01272 0.04300
H 	H 	0.73515 0.57088 0.48635 0.03800
H 	H 	0.22780 0.55840 0.39586 0.02600
H 	H 	0.43811 0.14039 0.25766 0.03500
H 	H 	0.94359 0.11605 0.24386 0.02900
H 	H 	0.70103 0.58640 0.09582 0.02400
H 	H 	0.19892 0.56413 0.01329 0.04100
H 	H 	0.75131 0.92888 0.48603 0.03700
H 	H 	0.16847 0.94182 0.39603 0.02800
