data_crystal

_cell_length_a 8.75290
_cell_length_b 11.26260
_cell_length_c 17.72760
_cell_angle_alpha 84.49510
_cell_angle_beta  75.70760
_cell_angle_gamma 67.13400

_symmetry_space_group_name_	'P 1'
_symmetry_space_group_name_H-M	'P 1'

loop_
_symmetry_equiv_pos_as_xyz
  x,y,z

loop_
_atom_site_label
_atom_site_type_symbol
_atom_site_fract_x
_atom_site_fract_y
_atom_site_fract_z
_atom_site_charge
Sc	Sc	0.63578 0.25000 0.72844 2.34900
Sc	Sc	0.11422 0.25000 0.77156 2.34800
Sc	Sc	0.36422 0.75000 0.27156 2.34900
Sc	Sc	0.88578 0.75000 0.22844 2.34700
C 	C 	0.02117 0.68308 0.74922 0.02100
C 	C 	0.90562 0.35908 0.63028 0.53100
C 	C 	0.95265 0.43380 0.56450 -0.16800
C 	C 	0.85941 0.46634 0.50738 0.02000
C 	C 	0.09764 0.46110 0.55578 0.02300
C 	C 	0.22961 0.81692 0.74922 0.02400
C 	C 	0.46410 0.14092 0.63028 0.53100
C 	C 	0.48285 0.06620 0.56450 -0.16800
C 	C 	0.63321 0.03366 0.50738 0.02100
C 	C 	0.34658 0.03890 0.55578 0.02200
C 	C 	0.29575 0.68308 0.75078 0.02200
C 	C 	0.73530 0.35908 0.86972 0.53100
C 	C 	0.61355 0.43380 0.93550 -0.16800
C 	C 	0.67425 0.46634 0.99262 0.02000
C 	C 	0.44126 0.46110 0.94422 0.02300
C 	C 	0.95347 0.81692 0.75078 0.02400
C 	C 	0.39498 0.14092 0.86972 0.53100
C 	C 	0.45095 0.06620 0.93550 -0.16800
C 	C 	0.33313 0.03366 0.99262 0.01900
C 	C 	0.61452 0.03890 0.94422 0.02400
C 	C 	0.97883 0.31692 0.25078 0.02100
C 	C 	0.09438 0.64092 0.36972 0.53100
C 	C 	0.04735 0.56620 0.43550 -0.16800
C 	C 	0.14059 0.53366 0.49262 0.02000
C 	C 	0.90236 0.53890 0.44422 0.02300
C 	C 	0.77039 0.18308 0.25078 0.02400
C 	C 	0.53590 0.85908 0.36972 0.53100
C 	C 	0.51715 0.93380 0.43550 -0.16800
C 	C 	0.36679 0.96634 0.49262 0.02100
C 	C 	0.65342 0.96110 0.44422 0.02300
C 	C 	0.70425 0.31692 0.24922 0.02200
C 	C 	0.26470 0.64092 0.13028 0.53100
C 	C 	0.38645 0.56620 0.06450 -0.16800
C 	C 	0.32575 0.53366 0.00738 0.02000
C 	C 	0.55874 0.53890 0.05578 0.02300
C 	C 	0.04653 0.18308 0.24922 0.02400
C 	C 	0.60502 0.85908 0.13028 0.53100
C 	C 	0.54905 0.93380 0.06450 -0.16800
C 	C 	0.66687 0.96634 0.00738 0.01900
C 	C 	0.38548 0.96110 0.05578 0.02400
C 	C 	0.26101 0.47798 0.75000 0.53800
C 	C 	0.19162 0.61676 0.75000 -0.16900
C 	C 	0.98899 0.02202 0.75000 0.54200
C 	C 	0.05838 0.88324 0.75000 -0.17200
C 	C 	0.73899 0.52202 0.25000 0.53800
C 	C 	0.80838 0.38324 0.25000 -0.16900
C 	C 	0.01101 0.97798 0.25000 0.54200
C 	C 	0.94162 0.11676 0.25000 -0.17200
O 	O 	0.42046 0.41640 0.72908 -0.63100
O 	O 	0.77582 0.33038 0.63998 -0.60500
O 	O 	0.98543 0.33256 0.68438 -0.64400
O 	O 	0.85046 0.08360 0.72908 -0.63200
O 	O 	0.58420 0.16962 0.63998 -0.60500
O 	O 	0.33019 0.16744 0.68438 -0.64500
O 	O 	0.16314 0.41640 0.77092 -0.63200
O 	O 	0.89380 0.33038 0.86002 -0.60400
O 	O 	0.68201 0.33256 0.81562 -0.64400
O 	O 	0.06594 0.08360 0.77092 -0.63400
O 	O 	0.24618 0.16962 0.86002 -0.60500
O 	O 	0.50237 0.16744 0.81562 -0.64500
O 	O 	0.57954 0.58360 0.27092 -0.63100
O 	O 	0.22418 0.66962 0.36002 -0.60500
O 	O 	0.01457 0.66744 0.31562 -0.64400
O 	O 	0.14954 0.91640 0.27092 -0.63200
O 	O 	0.41580 0.83038 0.36002 -0.60500
O 	O 	0.66981 0.83256 0.31562 -0.64500
O 	O 	0.83686 0.58360 0.22908 -0.63200
O 	O 	0.10620 0.66962 0.13998 -0.60400
O 	O 	0.31799 0.66744 0.18438 -0.64400
O 	O 	0.93406 0.91640 0.22908 -0.63400
O 	O 	0.75382 0.83038 0.13998 -0.60500
O 	O 	0.49763 0.83256 0.18438 -0.64500
H 	H 	0.93680 0.62820 0.74731 0.03300
H 	H 	0.74937 0.43337 0.51291 0.03900
H 	H 	0.17984 0.42391 0.60032 0.02300
H 	H 	0.31589 0.87180 0.74731 0.03200
H 	H 	0.73772 0.06663 0.51291 0.03900
H 	H 	0.21983 0.07609 0.60032 0.02300
H 	H 	0.43500 0.62821 0.75269 0.03200
H 	H 	0.81726 0.43337 0.98709 0.03900
H 	H 	0.39625 0.42391 0.89968 0.02300
H 	H 	0.81231 0.87179 0.75269 0.03200
H 	H 	0.19565 0.06663 0.98709 0.03800
H 	H 	0.70407 0.07609 0.89968 0.02300
H 	H 	0.06320 0.37180 0.25269 0.03300
H 	H 	0.25063 0.56663 0.48709 0.03900
H 	H 	0.81898 0.57547 0.40013 0.02300
H 	H 	0.68411 0.12820 0.25269 0.03200
H 	H 	0.26090 0.93422 0.48806 0.03800
H 	H 	0.78090 0.92453 0.40013 0.02200
H 	H 	0.56500 0.37179 0.24731 0.03200
H 	H 	0.18274 0.56663 0.01291 0.03900
H 	H 	0.60556 0.57547 0.09987 0.02300
H 	H 	0.18769 0.12821 0.24731 0.03200
H 	H 	0.80435 0.93337 0.01291 0.03800
H 	H 	0.29457 0.92453 0.09987 0.02300
