data_crystal

_cell_length_a 8.73460
_cell_length_b 11.24890
_cell_length_c 17.72290
_cell_angle_alpha 84.51020
_cell_angle_beta  75.73450
_cell_angle_gamma 67.15510

_symmetry_space_group_name_	'P 1'
_symmetry_space_group_name_H-M	'P 1'

loop_
_symmetry_equiv_pos_as_xyz
  x,y,z

loop_
_atom_site_label
_atom_site_type_symbol
_atom_site_fract_x
_atom_site_fract_y
_atom_site_fract_z
_atom_site_charge
Sc	Sc	0.36427 0.25000 0.27146 2.35100
Sc	Sc	0.88573 0.25000 0.22854 2.35100
Sc	Sc	0.63573 0.75000 0.72854 2.35100
Sc	Sc	0.11427 0.75000 0.77146 2.35000
C 	C 	0.76915 0.68054 0.24936 0.01200
C 	C 	0.53331 0.35948 0.36650 0.54300
C 	C 	0.52062 0.43746 0.43850 -0.13100
C 	C 	0.35662 0.46946 0.48990 -0.00200
C 	C 	0.65650 0.46074 0.44366 0.02200
C 	C 	0.98149 0.81946 0.24936 0.02100
C 	C 	0.10019 0.14052 0.36650 0.54100
C 	C 	0.04088 0.06254 0.43850 -0.12100
C 	C 	0.15348 0.03054 0.48990 0.00300
C 	C 	0.89984 0.03926 0.44366 0.00700
C 	C 	0.05031 0.68054 0.25064 0.00800
C 	C 	0.60721 0.35948 0.13350 0.54300
C 	C 	0.54192 0.43746 0.06150 -0.13100
C 	C 	0.67392 0.46946 0.01010 -0.00200
C 	C 	0.38276 0.46074 0.05634 0.02200
C 	C 	0.69905 0.81946 0.25064 0.01400
C 	C 	0.25929 0.14052 0.13350 0.54300
C 	C 	0.39658 0.06254 0.06150 -0.13000
C 	C 	0.31598 0.03054 0.01010 0.00100
C 	C 	0.56090 0.03926 0.05634 0.01900
C 	C 	0.23085 0.31946 0.75064 0.01200
C 	C 	0.46669 0.64052 0.63350 0.54300
C 	C 	0.47938 0.56254 0.56150 -0.13100
C 	C 	0.64338 0.53054 0.51010 -0.00200
C 	C 	0.34350 0.53926 0.55634 0.02200
C 	C 	0.01851 0.18054 0.75064 0.02100
C 	C 	0.89981 0.85948 0.63350 0.54200
C 	C 	0.95912 0.93746 0.56150 -0.12200
C 	C 	0.84652 0.96946 0.51010 0.00700
C 	C 	0.10016 0.96074 0.55634 0.00900
C 	C 	0.94969 0.31946 0.74936 0.00800
C 	C 	0.39279 0.64052 0.86650 0.54400
C 	C 	0.45808 0.56254 0.93850 -0.13100
C 	C 	0.32608 0.53054 0.98990 -0.00200
C 	C 	0.61724 0.53926 0.94366 0.02200
C 	C 	0.30095 0.18054 0.74936 0.01400
C 	C 	0.74071 0.85948 0.86650 0.54300
C 	C 	0.60342 0.93746 0.93850 -0.12900
C 	C 	0.68402 0.96946 0.98990 0.00000
C 	C 	0.43910 0.96074 0.94366 0.01800
C 	C 	0.01364 0.47272 0.25000 0.54300
C 	C 	0.93922 0.62156 0.25000 -0.13300
C 	C 	0.73636 0.02728 0.25000 0.53900
C 	C 	0.81078 0.87844 0.25000 -0.13600
C 	C 	0.98636 0.52728 0.75000 0.54300
C 	C 	0.06078 0.37844 0.75000 -0.13300
C 	C 	0.26364 0.97272 0.75000 0.53800
C 	C 	0.18922 0.12156 0.75000 -0.13500
O 	O 	0.15099 0.41614 0.27078 -0.64300
O 	O 	0.41687 0.33076 0.35936 -0.62900
O 	O 	0.67233 0.32996 0.31578 -0.65700
O 	O 	0.57823 0.08386 0.27078 -0.64300
O 	O 	0.22377 0.16924 0.35936 -0.62800
O 	O 	0.01189 0.17004 0.31578 -0.65300
O 	O 	0.93287 0.41614 0.22922 -0.64500
O 	O 	0.75237 0.33076 0.14064 -0.62900
O 	O 	0.49771 0.32996 0.18422 -0.65700
O 	O 	0.83791 0.08386 0.22922 -0.64500
O 	O 	0.10699 0.16924 0.14064 -0.62500
O 	O 	0.31807 0.17004 0.18422 -0.65600
O 	O 	0.84901 0.58386 0.72922 -0.64300
O 	O 	0.58313 0.66924 0.64064 -0.62800
O 	O 	0.32767 0.67004 0.68422 -0.65700
O 	O 	0.42177 0.91614 0.72922 -0.64200
O 	O 	0.77623 0.83076 0.64064 -0.62700
O 	O 	0.98811 0.82996 0.68422 -0.65300
O 	O 	0.06713 0.58386 0.77078 -0.64500
O 	O 	0.24763 0.66924 0.85936 -0.62900
O 	O 	0.50229 0.67004 0.81578 -0.65700
O 	O 	0.16209 0.91614 0.77078 -0.64500
O 	O 	0.89301 0.83076 0.85936 -0.62500
O 	O 	0.68193 0.82996 0.81578 -0.65600
H 	H 	0.68434 0.62559 0.24790 0.03300
H 	H 	0.25695 0.43931 0.47516 0.04600
H 	H 	0.77857 0.42537 0.39601 0.02400
H 	H 	0.06776 0.87441 0.24790 0.02900
H 	H 	0.26789 0.06069 0.47516 0.04500
H 	H 	0.82542 0.07463 0.39600 0.02600
H 	H 	0.19007 0.62559 0.25210 0.03400
H 	H 	0.80375 0.43931 0.02484 0.04500
H 	H 	0.29605 0.42537 0.10400 0.02500
H 	H 	0.55783 0.87441 0.25210 0.03200
H 	H 	0.17141 0.06069 0.02484 0.04700
H 	H 	0.59995 0.07463 0.10400 0.02500
H 	H 	0.31566 0.37441 0.75210 0.03300
H 	H 	0.74305 0.56069 0.52484 0.04600
H 	H 	0.22143 0.57463 0.60399 0.02400
H 	H 	0.93224 0.12559 0.75210 0.02900
H 	H 	0.72760 0.94697 0.51596 0.04100
H 	H 	0.17755 0.92675 0.60295 0.02600
H 	H 	0.80993 0.37441 0.74790 0.03400
H 	H 	0.19625 0.56069 0.97516 0.04500
H 	H 	0.70725 0.57325 0.89705 0.02500
H 	H 	0.44217 0.12559 0.74790 0.03200
H 	H 	0.82859 0.93931 0.97516 0.04700
H 	H 	0.40005 0.92537 0.89600 0.02500
