data_crystal

_cell_length_a 11.07630
_cell_length_b 11.07630
_cell_length_c 27.43070
_cell_angle_alpha 90.00000
_cell_angle_beta  90.00000
_cell_angle_gamma 90.00000

_symmetry_space_group_name_	'P 1'
_symmetry_space_group_name_H-M	'P 1'

loop_
_symmetry_equiv_pos_as_xyz
  x,y,z

loop_
_atom_site_label
_atom_site_type_symbol
_atom_site_fract_x
_atom_site_fract_y
_atom_site_fract_z
_atom_site_charge
N 	N 	0.53390 0.50280 0.92688 -0.24000
N 	N 	0.59350 0.70630 0.91961 -0.17200
N 	N 	0.53510 0.48460 0.82564 -0.24700
C 	C 	0.51220 0.39680 0.90407 -0.01100
H 	H 	0.49590 0.32700 0.92310 -0.02100
C 	C 	0.51290 0.38720 0.85424 -0.01900
H 	H 	0.49770 0.31110 0.83950 -0.01600
C 	C 	0.55850 0.58840 0.84807 -0.05400
H 	H 	0.57380 0.65830 0.82900 -0.01000
C 	C 	0.56140 0.59800 0.89911 0.09500
C 	C 	0.66220 0.72080 0.96204 0.11500
C 	C 	0.74770 0.81230 0.96293 -0.03300
H 	H 	0.86750 0.75170 0.06350 0.02300
N 	N 	0.46610 0.49720 0.42688 -0.24700
N 	N 	0.40650 0.29370 0.41961 -0.17300
N 	N 	0.46490 0.51540 0.32564 -0.24800
C 	C 	0.48780 0.60320 0.40407 -0.01300
H 	H 	0.50410 0.67300 0.42310 -0.02800
C 	C 	0.48710 0.61280 0.35424 -0.02100
H 	H 	0.50230 0.68890 0.33950 -0.01700
C 	C 	0.44150 0.41160 0.34807 -0.05400
H 	H 	0.42620 0.34170 0.32900 -0.01200
C 	C 	0.43860 0.40200 0.39911 0.09000
C 	C 	0.33780 0.27920 0.46204 0.09400
C 	C 	0.25230 0.18770 0.46293 -0.06100
H 	H 	0.13250 0.24830 0.56350 0.02400
N 	N 	0.50280 0.53390 0.07312 -0.24900
N 	N 	0.70630 0.59350 0.08039 -0.17400
N 	N 	0.48460 0.53510 0.17436 -0.24800
C 	C 	0.39680 0.51220 0.09593 -0.01400
H 	H 	0.32700 0.49590 0.07690 -0.03200
C 	C 	0.38720 0.51290 0.14576 -0.02200
H 	H 	0.31110 0.49770 0.16050 -0.01800
C 	C 	0.58840 0.55850 0.15193 -0.05400
H 	H 	0.65830 0.57380 0.17100 -0.01200
C 	C 	0.59800 0.56140 0.10089 0.08800
C 	C 	0.72080 0.66220 0.03796 0.08900
C 	C 	0.81230 0.74770 0.03707 -0.06600
H 	H 	0.75170 0.86750 0.93650 0.02000
N 	N 	0.49720 0.46610 0.57312 -0.24700
N 	N 	0.29370 0.40650 0.58039 -0.17300
N 	N 	0.51540 0.46490 0.67436 -0.24700
C 	C 	0.60320 0.48780 0.59593 -0.01300
H 	H 	0.67300 0.50410 0.57690 -0.02800
C 	C 	0.61280 0.48710 0.64576 -0.02100
H 	H 	0.68890 0.50230 0.66050 -0.01700
C 	C 	0.41160 0.44150 0.65193 -0.05400
H 	H 	0.34170 0.42620 0.67100 -0.01100
C 	C 	0.40200 0.43860 0.60089 0.09000
C 	C 	0.27920 0.33780 0.53796 0.09400
C 	C 	0.18770 0.25230 0.53707 -0.06100
H 	H 	0.24830 0.13250 0.43650 0.02400
Cu	Cu	0.51609 0.51609 -0.00000 0.79900
N 	N 	0.64600 0.64600 -0.00000 -0.26500
N 	N 	0.82450 0.82450 -0.00000 -0.21900
Cu	Cu	0.48391 0.48391 0.50000 0.81000
N 	N 	0.35400 0.35400 0.50000 -0.24800
N 	N 	0.17550 0.17550 0.50000 -0.19900
Ni	Ni	0.52836 0.47164 0.75000 0.96600
Ni	Ni	0.47164 0.52836 0.25000 0.96500
N 	N 	0.99720 0.03390 0.67688 -0.24600
N 	N 	0.79370 0.09350 0.66961 -0.17300
N 	N 	0.01540 0.03510 0.57564 -0.24800
C 	C 	0.10320 0.01220 0.65407 -0.01600
H 	H 	0.17300 0.99590 0.67310 -0.02500
C 	C 	0.11280 0.01290 0.60424 -0.02200
H 	H 	0.18890 0.99770 0.58950 -0.01600
C 	C 	0.91160 0.05850 0.59807 -0.05300
H 	H 	0.84170 0.07380 0.57900 -0.01200
C 	C 	0.90200 0.06140 0.64911 0.09000
C 	C 	0.77920 0.16220 0.71204 0.09400
C 	C 	0.68770 0.24770 0.71293 -0.06100
H 	H 	0.74830 0.36750 0.81350 0.02500
N 	N 	0.00280 0.96610 0.17688 -0.24600
N 	N 	0.20630 0.90650 0.16961 -0.17300
N 	N 	0.98460 0.96490 0.07564 -0.25100
C 	C 	0.89680 0.98780 0.15407 -0.01600
H 	H 	0.82700 0.00410 0.17310 -0.02700
C 	C 	0.88720 0.98710 0.10424 -0.02200
H 	H 	0.81110 0.00230 0.08950 -0.02000
C 	C 	0.08840 0.94150 0.09807 -0.05300
H 	H 	0.15830 0.92620 0.07900 -0.01600
C 	C 	0.09800 0.93860 0.14911 0.08800
C 	C 	0.22080 0.83780 0.21204 0.09400
C 	C 	0.31230 0.75230 0.21293 -0.06100
H 	H 	0.25170 0.63250 0.31350 0.02400
N 	N 	0.96610 0.00280 0.82312 -0.24700
N 	N 	0.90650 0.20630 0.83039 -0.17200
N 	N 	0.96490 0.98460 0.92436 -0.24000
C 	C 	0.98780 0.89680 0.84593 -0.01200
H 	H 	0.00410 0.82700 0.82690 -0.02600
C 	C 	0.98710 0.88720 0.89576 -0.02000
H 	H 	0.00230 0.81110 0.91050 -0.01100
C 	C 	0.94150 0.08840 0.90193 -0.05300
H 	H 	0.92620 0.15830 0.92100 -0.00500
C 	C 	0.93860 0.09800 0.85089 0.09200
C 	C 	0.83780 0.22080 0.78796 0.09500
C 	C 	0.75230 0.31230 0.78707 -0.06100
H 	H 	0.63250 0.25170 0.68650 0.02400
N 	N 	0.03390 0.99720 0.32312 -0.24600
N 	N 	0.09350 0.79370 0.33039 -0.17300
N 	N 	0.03510 0.01540 0.42436 -0.24800
C 	C 	0.01220 0.10320 0.34593 -0.01500
H 	H 	0.99590 0.17300 0.32690 -0.02700
C 	C 	0.01290 0.11280 0.39576 -0.02100
H 	H 	0.99770 0.18890 0.41050 -0.01700
C 	C 	0.05850 0.91160 0.40193 -0.05200
H 	H 	0.07380 0.84170 0.42100 -0.01200
C 	C 	0.06140 0.90200 0.35089 0.09000
C 	C 	0.16220 0.77920 0.28796 0.09400
C 	C 	0.24770 0.68770 0.28707 -0.06100
H 	H 	0.36750 0.74830 0.18650 0.02300
Cu	Cu	0.98391 0.01609 0.75000 0.81000
N 	N 	0.85400 0.14600 0.75000 -0.24800
N 	N 	0.67550 0.32450 0.75000 -0.19900
Cu	Cu	0.01609 0.98391 0.25000 0.81000
N 	N 	0.14600 0.85400 0.25000 -0.24800
N 	N 	0.32450 0.67550 0.25000 -0.19900
Ni	Ni	0.02836 0.02836 0.50000 0.96500
Ni	Ni	0.97164 0.97164 -0.00000 0.95500
