data_crystal

_cell_length_a 9.69700
_cell_length_b 17.55780
_cell_length_c 17.93450
_cell_angle_alpha 90.00000
_cell_angle_beta  90.32700
_cell_angle_gamma 90.00000

_symmetry_space_group_name_	'P 1'
_symmetry_space_group_name_H-M	'P 1'

loop_
_symmetry_equiv_pos_as_xyz
  x,y,z

loop_
_atom_site_label
_atom_site_type_symbol
_atom_site_fract_x
_atom_site_fract_y
_atom_site_fract_z
_atom_site_charge
U 	U 	0.39866 0.27548 0.21925 -0.00600
U 	U 	0.90375 0.21020 0.43887 -0.02400
Zn	Zn	0.23369 0.00750 0.44257 1.20200
P 	P 	0.27270 0.17122 0.38441 0.36400
P 	P 	0.77380 0.23446 0.24135 0.40000
P 	P 	0.20710 0.15085 0.54754 0.36700
P 	P 	0.70170 0.33550 0.11015 0.38200
O 	O 	0.36410 0.21700 0.33320 -0.16400
O 	O 	0.56210 0.29740 0.12400 -0.20200
O 	O 	0.62300 0.23130 0.26090 -0.17100
O 	O 	0.26720 0.16610 0.62440 -0.17800
O 	O 	0.12060 0.19350 0.37840 -0.19900
O 	O 	0.78200 0.29400 0.05000 -0.19300
O 	O 	0.06550 0.18930 0.53730 -0.19900
O 	O 	0.86910 0.23100 0.30900 -0.18300
O 	O 	0.80910 0.17260 0.18260 -0.39600
H 	H 	0.89240 0.17260 0.17510 0.27300
O 	O 	0.29670 0.08620 0.37230 -0.39900
O 	O 	0.95030 0.33070 0.17460 -0.34200
H 	H 	0.96740 0.37310 0.15810 0.21900
O 	O 	0.45820 0.16340 0.49190 -0.40200
H 	H 	0.49280 0.18230 0.52940 0.28800
O 	O 	0.19970 0.06670 0.53160 -0.45000
O 	O 	0.68140 0.41940 0.09350 -0.45600
C 	C 	0.32250 0.19580 0.47970 0.15900
C 	C 	0.32270 0.28310 0.48810 -0.71000
H 	H 	0.35410 0.29650 0.53720 0.27100
H 	H 	0.23090 0.30220 0.48050 0.26900
H 	H 	0.38320 0.30500 0.45180 0.27400
C 	C 	0.80550 0.32700 0.19620 0.13400
C 	C 	0.78020 0.39110 0.25390 -0.64000
H 	H 	0.84890 0.38830 0.29260 0.24800
H 	H 	0.69040 0.38500 0.27530 0.24600
H 	H 	0.78580 0.43970 0.22960 0.21700
U 	U 	0.60134 0.77548 0.28075 -0.00700
U 	U 	0.09625 0.71020 0.06113 -0.02400
Zn	Zn	0.76631 0.50750 0.05743 1.20100
P 	P 	0.72730 0.67122 0.11559 0.36300
P 	P 	0.22620 0.73446 0.25865 0.40000
P 	P 	0.79290 0.65085 0.95246 0.36800
P 	P 	0.29830 0.83550 0.38985 0.38100
O 	O 	0.63590 0.71700 0.16680 -0.16400
O 	O 	0.43790 0.79740 0.37600 -0.20200
O 	O 	0.37700 0.73130 0.23910 -0.17000
O 	O 	0.73280 0.66610 0.87560 -0.17800
O 	O 	0.87940 0.69350 0.12160 -0.20000
O 	O 	0.21800 0.79400 0.45000 -0.19200
O 	O 	0.93450 0.68930 0.96270 -0.19800
O 	O 	0.13090 0.73100 0.19100 -0.18200
O 	O 	0.19090 0.67260 0.31740 -0.39600
H 	H 	0.10760 0.67260 0.32490 0.27300
O 	O 	0.70330 0.58620 0.12770 -0.39900
O 	O 	0.04970 0.83070 0.32540 -0.34200
H 	H 	0.03260 0.87310 0.34190 0.22000
O 	O 	0.54180 0.66340 0.00810 -0.40200
H 	H 	0.50720 0.68230 0.97060 0.28800
O 	O 	0.80030 0.56670 0.96840 -0.45000
O 	O 	0.31860 0.91940 0.40650 -0.45500
C 	C 	0.67750 0.69580 0.02030 0.15800
C 	C 	0.67730 0.78310 0.01190 -0.70800
H 	H 	0.64590 0.79650 0.96280 0.27100
H 	H 	0.76910 0.80220 0.01950 0.26800
H 	H 	0.61680 0.80500 0.04820 0.27300
C 	C 	0.19450 0.82700 0.30380 0.13500
C 	C 	0.21980 0.89110 0.24610 -0.64200
H 	H 	0.15110 0.88830 0.20740 0.24900
H 	H 	0.30960 0.88500 0.22470 0.24700
H 	H 	0.21420 0.93970 0.27040 0.21900
U 	U 	0.60134 0.72452 0.78075 -0.00700
U 	U 	0.09625 0.78980 0.56113 -0.02500
Zn	Zn	0.76631 0.99250 0.55743 1.20100
P 	P 	0.72730 0.82878 0.61559 0.36300
P 	P 	0.22620 0.76554 0.75865 0.40000
P 	P 	0.79290 0.84915 0.45246 0.36700
P 	P 	0.29830 0.66450 0.88985 0.38200
O 	O 	0.63590 0.78300 0.66680 -0.16400
O 	O 	0.43790 0.70260 0.87600 -0.20200
O 	O 	0.37700 0.76870 0.73910 -0.17100
O 	O 	0.73280 0.83390 0.37560 -0.17800
O 	O 	0.87940 0.80650 0.62160 -0.19900
O 	O 	0.21800 0.70600 0.95000 -0.19300
O 	O 	0.93450 0.81070 0.46270 -0.19900
O 	O 	0.13090 0.76900 0.69100 -0.18300
O 	O 	0.19090 0.82740 0.81740 -0.39600
H 	H 	0.10760 0.82740 0.82490 0.27300
O 	O 	0.70330 0.91380 0.62770 -0.39900
O 	O 	0.04970 0.66930 0.82540 -0.34200
H 	H 	0.03260 0.62690 0.84190 0.21900
O 	O 	0.54180 0.83660 0.50810 -0.40200
H 	H 	0.50720 0.81770 0.47060 0.28800
O 	O 	0.80030 0.93330 0.46840 -0.45000
O 	O 	0.31860 0.58060 0.90650 -0.45600
C 	C 	0.67750 0.80420 0.52030 0.15900
C 	C 	0.67730 0.71690 0.51190 -0.71000
H 	H 	0.64590 0.70350 0.46280 0.27100
H 	H 	0.76910 0.69780 0.51950 0.26900
H 	H 	0.61680 0.69500 0.54820 0.27400
C 	C 	0.19450 0.67300 0.80380 0.13400
C 	C 	0.21980 0.60890 0.74610 -0.64000
H 	H 	0.15110 0.61170 0.70740 0.24800
H 	H 	0.30960 0.61500 0.72470 0.24600
H 	H 	0.21420 0.56030 0.77040 0.21700
U 	U 	0.39866 0.22452 0.71925 -0.00700
U 	U 	0.90375 0.28980 0.93887 -0.02400
Zn	Zn	0.23369 0.49250 0.94257 1.20100
P 	P 	0.27270 0.32878 0.88441 0.36300
P 	P 	0.77380 0.26554 0.74135 0.40000
P 	P 	0.20710 0.34915 0.04754 0.36800
P 	P 	0.70170 0.16450 0.61015 0.38100
O 	O 	0.36410 0.28300 0.83320 -0.16400
O 	O 	0.56210 0.20260 0.62400 -0.20200
O 	O 	0.62300 0.26870 0.76090 -0.17000
O 	O 	0.26720 0.33390 0.12440 -0.17800
O 	O 	0.12060 0.30650 0.87840 -0.20000
O 	O 	0.78200 0.20600 0.55000 -0.19200
O 	O 	0.06550 0.31070 0.03730 -0.19800
O 	O 	0.86910 0.26900 0.80900 -0.18200
O 	O 	0.80910 0.32740 0.68260 -0.39600
H 	H 	0.89240 0.32740 0.67510 0.27300
O 	O 	0.29670 0.41380 0.87230 -0.39900
O 	O 	0.95030 0.16930 0.67460 -0.34200
H 	H 	0.96740 0.12690 0.65810 0.22000
O 	O 	0.45820 0.33660 0.99190 -0.40200
H 	H 	0.49280 0.31770 0.02940 0.28800
O 	O 	0.19970 0.43330 0.03160 -0.45000
O 	O 	0.68140 0.08060 0.59350 -0.45500
C 	C 	0.32250 0.30420 0.97970 0.15800
C 	C 	0.32270 0.21690 0.98810 -0.70800
H 	H 	0.35410 0.20350 0.03720 0.27100
H 	H 	0.23090 0.19780 0.98050 0.26800
H 	H 	0.38320 0.19500 0.95180 0.27300
C 	C 	0.80550 0.17300 0.69620 0.13500
C 	C 	0.78020 0.10890 0.75390 -0.64200
H 	H 	0.84890 0.11170 0.79260 0.24900
H 	H 	0.69040 0.11500 0.77530 0.24700
H 	H 	0.78580 0.06030 0.72960 0.21900
