data_crystal

_cell_length_a 9.71110
_cell_length_b 16.73870
_cell_length_c 18.02260
_cell_angle_alpha 90.00000
_cell_angle_beta  90.29000
_cell_angle_gamma 90.00000

_symmetry_space_group_name_	'P 1'
_symmetry_space_group_name_H-M	'P 1'

loop_
_symmetry_equiv_pos_as_xyz
  x,y,z

loop_
_atom_site_label
_atom_site_type_symbol
_atom_site_fract_x
_atom_site_fract_y
_atom_site_fract_z
_atom_site_charge
U 	U 	0.88808 0.71409 0.50330 -0.00600
U 	U 	0.39974 0.70951 0.78784 0.00400
P 	P 	0.58690 0.64918 0.61129 0.36300
P 	P 	0.52320 0.68719 0.45171 0.37600
P 	P 	0.02080 0.74901 0.80997 0.39800
P 	P 	0.08990 0.64997 0.67464 0.38400
O 	O 	0.67400 0.71320 0.44570 -0.17700
O 	O 	0.01760 0.69430 0.61450 -0.18300
O 	O 	0.92690 0.75140 0.87590 -0.16400
O 	O 	0.73190 0.68210 0.60190 -0.18900
O 	O 	0.53130 0.66470 0.68860 -0.17400
O 	O 	0.43070 0.74150 0.40540 -0.15800
O 	O 	0.23340 0.67970 0.69210 -0.19700
O 	O 	0.17290 0.75010 0.82900 -0.15400
O 	O 	0.57480 0.56280 0.59050 -0.37600
O 	O 	0.10200 0.55930 0.65500 -0.41800
H 	H 	0.04300 0.54750 0.62420 0.26600
O 	O 	0.50200 0.60060 0.43430 -0.36800
O 	O 	0.99300 0.81990 0.75490 -0.38500
H 	H 	0.91030 0.82990 0.75400 0.27800
O 	O 	0.33830 0.68280 0.55840 -0.39600
H 	H 	0.32470 0.67240 0.60220 0.28500
O 	O 	0.84420 0.65160 0.73850 -0.35900
H 	H 	0.83520 0.62190 0.70260 0.25800
C 	C 	0.47820 0.70810 0.54900 0.17600
C 	C 	0.48750 0.79770 0.56510 -0.73800
H 	H 	0.42160 0.82570 0.53500 0.29500
H 	H 	0.57850 0.81640 0.55390 0.28400
H 	H 	0.46830 0.80710 0.61660 0.29100
C 	C 	0.98650 0.65530 0.75950 0.17500
C 	C 	0.01760 0.58640 0.81270 -0.71100
H 	H 	0.96160 0.59150 0.85610 0.28200
H 	H 	0.11310 0.58790 0.82670 0.27500
H 	H 	0.99780 0.53650 0.78850 0.27300
U 	U 	0.11192 0.21409 0.99670 0.01500
U 	U 	0.60026 0.20951 0.71216 -0.00600
P 	P 	0.41310 0.14918 0.88871 0.36200
P 	P 	0.47680 0.18719 0.04829 0.34600
P 	P 	0.97920 0.24901 0.69003 0.38900
P 	P 	0.91010 0.14997 0.82536 0.38300
O 	O 	0.32600 0.21320 0.05430 -0.20300
O 	O 	0.98240 0.19430 0.88550 -0.18300
O 	O 	0.07310 0.25140 0.62410 -0.18200
O 	O 	0.26810 0.18210 0.89810 -0.18600
O 	O 	0.46870 0.16470 0.81140 -0.18100
O 	O 	0.56930 0.24150 0.09460 -0.17500
O 	O 	0.76660 0.17970 0.80790 -0.20100
O 	O 	0.82710 0.25010 0.67100 -0.16800
O 	O 	0.42520 0.06280 0.90950 -0.37800
O 	O 	0.89800 0.05930 0.84500 -0.42800
H 	H 	0.95700 0.04750 0.87580 0.26300
O 	O 	0.49800 0.10060 0.06570 -0.39600
O 	O 	0.00700 0.31990 0.74510 -0.38800
H 	H 	0.08970 0.32990 0.74600 0.27100
O 	O 	0.66170 0.18280 0.94160 -0.39000
H 	H 	0.67530 0.17240 0.89780 0.28200
O 	O 	0.15580 0.15160 0.76150 -0.36300
H 	H 	0.16480 0.12190 0.79740 0.25600
C 	C 	0.52180 0.20810 0.95100 0.20800
C 	C 	0.51250 0.29770 0.93490 -0.76200
H 	H 	0.57840 0.32570 0.96500 0.30800
H 	H 	0.42150 0.31640 0.94610 0.29600
H 	H 	0.53170 0.30710 0.88340 0.29400
C 	C 	0.01350 0.15530 0.74050 0.17400
C 	C 	0.98240 0.08640 0.68730 -0.69300
H 	H 	0.03840 0.09150 0.64390 0.26200
H 	H 	0.88690 0.08790 0.67330 0.25600
H 	H 	0.00220 0.03650 0.71150 0.25500
U 	U 	0.11192 0.28591 0.49670 -0.01200
U 	U 	0.60026 0.29049 0.21216 -0.00900
P 	P 	0.41310 0.35082 0.38871 0.36500
P 	P 	0.47680 0.31281 0.54829 0.37800
P 	P 	0.97920 0.25099 0.19003 0.38700
P 	P 	0.91010 0.35003 0.32536 0.38100
O 	O 	0.32600 0.28680 0.55430 -0.18100
O 	O 	0.98240 0.30570 0.38550 -0.19100
O 	O 	0.07310 0.24860 0.12410 -0.19900
O 	O 	0.26810 0.31790 0.39810 -0.19300
O 	O 	0.46870 0.33530 0.31140 -0.18000
O 	O 	0.56930 0.25850 0.59460 -0.16500
O 	O 	0.76660 0.32030 0.30790 -0.20200
O 	O 	0.82710 0.24990 0.17100 -0.17800
O 	O 	0.42520 0.43720 0.40950 -0.37700
O 	O 	0.89800 0.44070 0.34500 -0.42000
H 	H 	0.95700 0.45250 0.37580 0.26500
O 	O 	0.49800 0.39940 0.56570 -0.36800
O 	O 	0.00700 0.18010 0.24510 -0.40200
H 	H 	0.08970 0.17010 0.24600 0.26300
O 	O 	0.66170 0.31720 0.44160 -0.39500
H 	H 	0.67530 0.32760 0.39780 0.28300
O 	O 	0.15580 0.34840 0.26150 -0.36700
H 	H 	0.16480 0.37810 0.29740 0.26000
C 	C 	0.52180 0.29190 0.45100 0.15900
C 	C 	0.51250 0.20230 0.43490 -0.67700
H 	H 	0.57840 0.17430 0.46500 0.26100
H 	H 	0.42150 0.18360 0.44610 0.25200
H 	H 	0.53170 0.19290 0.38340 0.25900
C 	C 	0.01350 0.34470 0.24050 0.18300
C 	C 	0.98240 0.41360 0.18730 -0.72300
H 	H 	0.03840 0.40850 0.14390 0.27300
H 	H 	0.88690 0.41210 0.17330 0.26800
H 	H 	0.00220 0.46350 0.21150 0.27500
U 	U 	0.88808 0.78591 0.00330 -0.03100
U 	U 	0.39974 0.79049 0.28784 0.00100
P 	P 	0.58690 0.85082 0.11129 0.36500
P 	P 	0.52320 0.81281 0.95171 0.40600
P 	P 	0.02080 0.75099 0.30997 0.39500
P 	P 	0.08990 0.85003 0.17464 0.38400
O 	O 	0.67400 0.78680 0.94570 -0.15400
O 	O 	0.01760 0.80570 0.11450 -0.18900
O 	O 	0.92690 0.74860 0.37590 -0.18000
O 	O 	0.73190 0.81790 0.10190 -0.19600
O 	O 	0.53130 0.83530 0.18860 -0.17100
O 	O 	0.43070 0.75850 0.90540 -0.14800
O 	O 	0.23340 0.82030 0.19210 -0.19800
O 	O 	0.17290 0.74990 0.32900 -0.16500
O 	O 	0.57480 0.93720 0.09050 -0.36100
O 	O 	0.10200 0.94070 0.15500 -0.40800
H 	H 	0.04300 0.95250 0.12420 0.27000
O 	O 	0.50200 0.89940 0.93430 -0.32800
O 	O 	0.99300 0.68010 0.25490 -0.39700
H 	H 	0.91030 0.67010 0.25400 0.27000
O 	O 	0.33830 0.81720 0.05840 -0.39900
H 	H 	0.32470 0.82760 0.10220 0.28600
O 	O 	0.84420 0.84840 0.23850 -0.36100
H 	H 	0.83520 0.87810 0.20260 0.26300
C 	C 	0.47820 0.79190 0.04900 0.13100
C 	C 	0.48750 0.70230 0.06510 -0.65800
H 	H 	0.42160 0.67430 0.03500 0.24900
H 	H 	0.57850 0.68360 0.05390 0.24200
H 	H 	0.46830 0.69290 0.11660 0.25800
C 	C 	0.98650 0.84470 0.25950 0.17900
C 	C 	0.01760 0.91360 0.31270 -0.72300
H 	H 	0.96160 0.90850 0.35610 0.28700
H 	H 	0.11310 0.91210 0.32670 0.28300
H 	H 	0.99780 0.96350 0.28850 0.28700
Zn	Zn	0.50000 0.50000 0.50000 1.21300
Zn	Zn	0.50000 0.00000 -0.00000 1.17800
