data_crystal

_cell_length_a 7.33520
_cell_length_b 11.32000
_cell_length_c 17.67600
_cell_angle_alpha 90.00000
_cell_angle_beta  90.12000
_cell_angle_gamma 90.00000

_symmetry_space_group_name_	'P 1'
_symmetry_space_group_name_H-M	'P 1'

loop_
_symmetry_equiv_pos_as_xyz
  x,y,z

loop_
_atom_site_label
_atom_site_type_symbol
_atom_site_fract_x
_atom_site_fract_y
_atom_site_fract_z
_atom_site_charge
Co	Co	-0.00000 0.50000 -0.00000 1.03300
Co	Co	0.00000 0.00000 0.50000 1.05200
Co	Co	0.50000 0.50000 -0.00000 1.06200
Co	Co	0.50000 0.00000 0.50000 1.08300
H 	H 	0.70940 0.47530 0.73290 0.05500
H 	H 	0.92480 0.69950 0.58230 0.06000
H 	H 	0.96100 0.49220 0.80850 0.06200
H 	H 	0.69200 0.58320 0.61770 0.05000
H 	H 	0.50600 0.79510 0.67710 0.06200
H 	H 	0.52100 0.69010 0.79200 0.06500
H 	H 	0.29060 0.97530 0.76710 0.16800
H 	H 	0.07520 0.19950 0.91770 0.10200
H 	H 	0.03900 0.99220 0.69150 0.21000
H 	H 	0.30800 0.08320 0.88230 0.00400
H 	H 	0.49400 0.29510 0.82290 0.04200
H 	H 	0.47900 0.19010 0.70800 0.02100
H 	H 	0.29060 0.52470 0.26710 0.03300
H 	H 	0.07520 0.30050 0.41770 0.06800
H 	H 	0.03900 0.50780 0.19150 0.08800
H 	H 	0.30800 0.41680 0.38230 0.03300
H 	H 	0.49400 0.20490 0.32290 0.01800
H 	H 	0.47900 0.30990 0.20800 0.01400
H 	H 	0.70940 0.02470 0.23290 -0.08300
H 	H 	0.92480 0.80050 0.08230 0.02500
H 	H 	0.96100 0.00780 0.30850 -0.04600
H 	H 	0.69200 0.91680 0.11770 0.08300
H 	H 	0.50600 0.70490 0.17710 0.04100
H 	H 	0.52100 0.80990 0.29200 0.05500
C 	C 	0.26333 0.62197 0.78913 -0.07500
C 	C 	0.40060 0.74585 0.69327 -0.00800
C 	C 	0.09259 0.67339 0.67346 -0.01800
C 	C 	0.24434 0.74477 0.65072 -0.08700
C 	C 	0.10196 0.61031 0.74355 -0.02700
C 	C 	0.27349 0.57457 0.86923 0.36700
C 	C 	0.23394 0.82853 0.58414 0.37400
C 	C 	0.40930 0.68417 0.76254 -0.01200
C 	C 	0.80490 0.52432 0.71842 -0.04400
C 	C 	0.93360 0.65904 0.62796 0.02600
C 	C 	0.95490 0.53500 0.76365 0.03200
C 	C 	0.79430 0.58736 0.64985 -0.03800
C 	C 	0.73667 0.12197 0.71087 -0.15900
C 	C 	0.59940 0.24585 0.80673 -0.02000
C 	C 	0.90741 0.17339 0.82654 0.11900
C 	C 	0.75566 0.24477 0.84928 -0.10800
C 	C 	0.89804 0.11031 0.75645 0.16000
C 	C 	0.72651 0.07457 0.63077 0.40200
C 	C 	0.76606 0.32853 0.91586 0.38300
C 	C 	0.59070 0.18417 0.73746 0.01500
C 	C 	0.19510 0.02432 0.78158 -0.15700
C 	C 	0.06640 0.15904 0.87204 -0.22200
C 	C 	0.04510 0.03500 0.73635 -0.31900
C 	C 	0.20570 0.08736 0.85015 0.07000
C 	C 	0.73667 0.37803 0.21087 -0.13400
C 	C 	0.59940 0.25415 0.30673 -0.00800
C 	C 	0.90741 0.32661 0.32654 0.11400
C 	C 	0.75566 0.25523 0.34928 -0.12700
C 	C 	0.89804 0.38969 0.25645 0.12300
C 	C 	0.72651 0.42543 0.13077 0.39700
C 	C 	0.76606 0.17147 0.41586 0.39700
C 	C 	0.59070 0.31583 0.23746 -0.00300
C 	C 	0.19510 0.47568 0.28158 0.00100
C 	C 	0.06640 0.34096 0.37204 -0.18700
C 	C 	0.04510 0.46500 0.23635 -0.20600
C 	C 	0.20570 0.41264 0.35015 -0.01700
C 	C 	0.26333 0.87803 0.28913 -0.05900
C 	C 	0.40060 0.75415 0.19327 -0.00200
C 	C 	0.09259 0.82661 0.17346 -0.03200
C 	C 	0.24434 0.75523 0.15072 -0.10100
C 	C 	0.10196 0.88969 0.24355 -0.04800
C 	C 	0.27349 0.92543 0.36923 0.36900
C 	C 	0.23394 0.67147 0.08414 0.38200
C 	C 	0.40930 0.81583 0.26254 -0.02300
C 	C 	0.80490 0.97568 0.21842 0.12600
C 	C 	0.93360 0.84096 0.12796 0.07000
C 	C 	0.95490 0.96500 0.26365 0.11900
C 	C 	0.79430 0.91264 0.14985 -0.13500
O 	O 	0.13034 0.58055 0.90803 -0.40700
O 	O 	0.37780 0.84750 0.54748 -0.41200
O 	O 	0.08230 0.87601 0.57290 -0.46300
O 	O 	0.42577 0.53864 0.89176 -0.40700
O 	O 	0.86966 0.08055 0.59197 -0.45000
O 	O 	0.62220 0.34750 0.95252 -0.38100
O 	O 	0.91770 0.37601 0.92710 -0.38200
O 	O 	0.57423 0.03864 0.60824 -0.50200
O 	O 	0.86966 0.41945 0.09197 -0.46300
O 	O 	0.62220 0.15250 0.45252 -0.46600
O 	O 	0.91770 0.12399 0.42710 -0.45600
O 	O 	0.57423 0.46136 0.10824 -0.49000
O 	O 	0.13034 0.91945 0.40803 -0.43100
O 	O 	0.37780 0.65250 0.04748 -0.48600
O 	O 	0.08230 0.62399 0.07290 -0.52900
O 	O 	0.42577 0.96136 0.39176 -0.40500
