data_crystal

_cell_length_a 8.31880
_cell_length_b 15.85230
_cell_length_c 21.58840
_cell_angle_alpha 90.00000
_cell_angle_beta  90.00000
_cell_angle_gamma 90.00000

_symmetry_space_group_name_	'P 1'
_symmetry_space_group_name_H-M	'P 1'

loop_
_symmetry_equiv_pos_as_xyz
  x,y,z

loop_
_atom_site_label
_atom_site_type_symbol
_atom_site_fract_x
_atom_site_fract_y
_atom_site_fract_z
_atom_site_charge
Ce	Ce	0.14518 0.15677 0.72753 1.96400
Ce	Ce	0.85482 0.84323 0.22753 1.96300
Ce	Ce	0.35482 0.65677 0.72753 1.96300
Ce	Ce	0.64518 0.34323 0.22753 1.96400
U 	U 	0.97775 0.64397 0.97620 -0.02300
U 	U 	0.98467 0.36591 0.97183 -0.02200
U 	U 	0.02225 0.35603 0.47620 -0.00700
U 	U 	0.01533 0.63409 0.47183 -0.00600
U 	U 	0.52225 0.14397 0.97620 -0.02100
U 	U 	0.51533 0.86591 0.97183 -0.02000
U 	U 	0.47775 0.85603 0.47620 -0.01000
U 	U 	0.48467 0.13409 0.47183 -0.00900
C 	C 	0.01790 0.18740 0.97820 0.26800
C 	C 	0.02000 0.09230 0.98170 -0.04400
C 	C 	0.01460 0.91640 0.97900 -0.03200
C 	C 	0.01020 0.82150 0.98170 0.26200
C 	C 	0.18900 0.91300 0.88390 0.29400
C 	C 	0.19960 0.09100 0.88480 0.37100
C 	C 	0.83480 0.09530 0.07530 0.30300
C 	C 	0.10100 0.95970 0.93520 -0.01400
C 	C 	0.92340 0.96070 0.02440 -0.04600
C 	C 	0.10680 0.04690 0.93580 -0.05000
C 	C 	0.92950 0.04960 0.02450 0.00900
C 	C 	0.82440 0.91570 0.07260 0.37900
C 	C 	0.98210 0.81260 0.47820 0.28200
C 	C 	0.98000 0.90770 0.48170 -0.03000
C 	C 	0.98540 0.08360 0.47900 -0.02300
C 	C 	0.98980 0.17850 0.48170 0.27800
C 	C 	0.81100 0.08700 0.38390 0.29400
C 	C 	0.80040 0.90900 0.38480 0.37200
C 	C 	0.16520 0.90470 0.57530 0.30700
C 	C 	0.89900 0.04030 0.43520 -0.01400
C 	C 	0.07660 0.03930 0.52440 -0.05600
C 	C 	0.89320 0.95310 0.43580 -0.05200
C 	C 	0.07050 0.95040 0.52450 -0.00800
C 	C 	0.17560 0.08430 0.57260 0.38100
C 	C 	0.48210 0.68740 0.97820 0.26400
C 	C 	0.48000 0.59230 0.98170 -0.04500
C 	C 	0.48540 0.41640 0.97900 -0.03800
C 	C 	0.48980 0.32150 0.98170 0.25600
C 	C 	0.31100 0.41300 0.88390 0.29400
C 	C 	0.30040 0.59100 0.88480 0.37100
C 	C 	0.66520 0.59530 0.07530 0.30300
C 	C 	0.39900 0.45970 0.93520 -0.01400
C 	C 	0.57660 0.46070 0.02440 -0.03800
C 	C 	0.39320 0.54690 0.93580 -0.04900
C 	C 	0.57050 0.54960 0.02450 0.00800
C 	C 	0.67560 0.41570 0.07260 0.37700
C 	C 	0.51790 0.31260 0.47820 0.28800
C 	C 	0.52000 0.40770 0.48170 -0.02300
C 	C 	0.51460 0.58360 0.47900 -0.02100
C 	C 	0.51020 0.67850 0.48170 0.28300
C 	C 	0.68900 0.58700 0.38390 0.29400
C 	C 	0.69960 0.40900 0.38480 0.37200
C 	C 	0.33480 0.40470 0.57530 0.30900
C 	C 	0.60100 0.54030 0.43520 -0.01500
C 	C 	0.42340 0.53930 0.52440 -0.05800
C 	C 	0.60680 0.45310 0.43580 -0.05100
C 	C 	0.42950 0.45040 0.52450 -0.01600
C 	C 	0.32440 0.58430 0.57260 0.38100
O 	O 	0.95500 0.22730 0.02290 -0.18500
O 	O 	0.07700 0.22530 0.93350 -0.22300
O 	O 	0.94080 0.78350 0.02410 -0.20800
O 	O 	0.33400 0.89450 0.89050 -0.23100
O 	O 	0.11160 0.90090 0.83420 -0.29600
O 	O 	0.34230 0.11700 0.89390 -0.26700
O 	O 	0.13220 0.09310 0.83330 -0.55700
O 	O 	0.88220 0.90800 0.12540 -0.57700
O 	O 	0.68310 0.89200 0.05810 -0.25500
O 	O 	0.92230 0.50490 0.95270 -0.09600
O 	O 	0.69070 0.11600 0.06250 -0.22000
O 	O 	0.89860 0.10820 0.12480 -0.31500
O 	O 	0.08060 0.78140 0.93860 -0.19600
O 	O 	0.04500 0.77270 0.52290 -0.20100
O 	O 	0.92300 0.77470 0.43350 -0.22700
O 	O 	0.05920 0.21650 0.52410 -0.22500
O 	O 	0.66600 0.10550 0.39050 -0.22900
O 	O 	0.88840 0.09910 0.33420 -0.29700
O 	O 	0.65770 0.88300 0.39390 -0.26500
O 	O 	0.86780 0.90690 0.33330 -0.55700
O 	O 	0.11780 0.09200 0.62540 -0.57800
O 	O 	0.31690 0.10800 0.55810 -0.26400
O 	O 	0.07770 0.49510 0.45270 -0.08400
O 	O 	0.30930 0.88400 0.56250 -0.23000
O 	O 	0.10140 0.89180 0.62480 -0.31700
O 	O 	0.91940 0.21860 0.43860 -0.19900
O 	O 	0.54500 0.72730 0.02290 -0.18200
O 	O 	0.42300 0.72530 0.93350 -0.22300
O 	O 	0.55920 0.28350 0.02410 -0.20300
O 	O 	0.16600 0.39450 0.89050 -0.22900
O 	O 	0.38840 0.40090 0.83420 -0.29700
O 	O 	0.15770 0.61700 0.89390 -0.26500
O 	O 	0.36780 0.59310 0.83330 -0.55700
O 	O 	0.61780 0.40800 0.12540 -0.57500
O 	O 	0.81690 0.39200 0.05810 -0.25500
O 	O 	0.57770 0.00490 0.95270 -0.09500
O 	O 	0.80930 0.61600 0.06250 -0.22100
O 	O 	0.60140 0.60820 0.12480 -0.31400
O 	O 	0.41940 0.28140 0.93860 -0.19600
O 	O 	0.45500 0.27270 0.52290 -0.20700
O 	O 	0.57700 0.27470 0.43350 -0.22600
O 	O 	0.44080 0.71650 0.52410 -0.22900
O 	O 	0.83400 0.60550 0.39050 -0.23200
O 	O 	0.61160 0.59910 0.33420 -0.29600
O 	O 	0.84230 0.38300 0.39390 -0.26700
O 	O 	0.63220 0.40690 0.33330 -0.55600
O 	O 	0.38220 0.59200 0.62540 -0.57800
O 	O 	0.18310 0.60800 0.55810 -0.26300
O 	O 	0.42230 0.99510 0.45270 -0.08600
O 	O 	0.19070 0.38400 0.56250 -0.23000
O 	O 	0.39860 0.39180 0.62480 -0.31900
O 	O 	0.58060 0.71860 0.43860 -0.19900
