data_crystal

_cell_length_a 4.69300
_cell_length_b 11.09600
_cell_length_c 19.84900
_cell_angle_alpha 90.00000
_cell_angle_beta  90.00000
_cell_angle_gamma 96.90000

_symmetry_space_group_name_	'P 1'
_symmetry_space_group_name_H-M	'P 1'

loop_
_symmetry_equiv_pos_as_xyz
  x,y,z

loop_
_atom_site_label
_atom_site_type_symbol
_atom_site_fract_x
_atom_site_fract_y
_atom_site_fract_z
_atom_site_charge
Cu	Cu	0.28000 0.93580 0.83935 0.92600
Cu	Cu	0.72000 0.56420 0.33935 0.92600
Cu	Cu	0.72000 0.06420 0.16065 0.92600
Cu	Cu	0.28000 0.43580 0.66065 0.92600
H 	H 	0.23950 0.89720 0.58660 0.04700
H 	H 	0.41960 0.99150 0.68640 0.06100
H 	H 	0.56280 0.82240 0.94920 0.03600
H 	H 	0.24740 0.13290 0.94580 0.04000
H 	H 	0.76050 0.60280 0.08660 0.04700
H 	H 	0.58040 0.50850 0.18640 0.06100
H 	H 	0.43720 0.67760 0.44920 0.03600
H 	H 	0.75260 0.36710 0.44580 0.04000
H 	H 	0.76050 0.10280 0.41340 0.04700
H 	H 	0.58040 0.00850 0.31360 0.06100
H 	H 	0.43720 0.17760 0.05080 0.03600
H 	H 	0.75260 0.86710 0.05420 0.04000
H 	H 	0.23950 0.39720 0.91340 0.04700
H 	H 	0.41960 0.49150 0.81360 0.06100
H 	H 	0.56280 0.32240 0.55080 0.03600
H 	H 	0.24740 0.63290 0.55420 0.04000
C 	C 	0.03800 0.76300 0.74890 -0.01000
C 	C 	0.93100 0.70800 0.69040 -0.00900
C 	C 	0.18200 0.86000 0.63020 0.03300
C 	C 	0.28900 0.91900 0.68760 0.01700
C 	C 	0.97900 0.71200 0.81990 0.31400
C 	C 	0.74300 0.59000 0.68410 0.34600
C 	C 	0.53500 0.89900 0.96860 0.01900
C 	C 	0.35300 0.07700 0.96720 0.01600
C 	C 	0.96200 0.73700 0.24890 -0.00600
C 	C 	0.06900 0.79200 0.19040 -0.01300
C 	C 	0.81800 0.64000 0.13020 0.03200
C 	C 	0.71100 0.58100 0.18760 0.01800
C 	C 	0.02100 0.78800 0.31990 0.31000
C 	C 	0.25700 0.91000 0.18410 0.34600
C 	C 	0.46500 0.60100 0.46860 0.01900
C 	C 	0.64700 0.42300 0.46720 0.01500
C 	C 	0.96200 0.23700 0.25110 -0.01000
C 	C 	0.06900 0.29200 0.30960 -0.00900
C 	C 	0.81800 0.14000 0.36980 0.03300
C 	C 	0.71100 0.08100 0.31240 0.01700
C 	C 	0.02100 0.28800 0.18010 0.31400
C 	C 	0.25700 0.41000 0.31590 0.34600
C 	C 	0.46500 0.10100 0.03140 0.01900
C 	C 	0.64700 0.92300 0.03280 0.01600
C 	C 	0.03800 0.26300 0.75110 -0.00600
C 	C 	0.93100 0.20800 0.80960 -0.01300
C 	C 	0.18200 0.36000 0.86980 0.03200
C 	C 	0.28900 0.41900 0.81240 0.01800
C 	C 	0.97900 0.21200 0.68010 0.31000
C 	C 	0.74300 0.09000 0.81590 0.34600
C 	C 	0.53500 0.39900 0.53140 0.01900
C 	C 	0.35300 0.57700 0.53280 0.01500
N 	N 	0.21200 0.86740 0.74740 -0.17800
N 	N 	0.00600 0.75800 0.63140 -0.09500
N 	N 	0.39500 0.97500 0.93660 -0.18400
N 	N 	0.78800 0.63260 0.24740 -0.17900
N 	N 	0.99400 0.74200 0.13140 -0.09300
N 	N 	0.60500 0.52500 0.43660 -0.18400
N 	N 	0.78800 0.13260 0.25260 -0.17800
N 	N 	0.99400 0.24200 0.36860 -0.09500
N 	N 	0.60500 0.02500 0.06340 -0.18400
N 	N 	0.21200 0.36740 0.75260 -0.17900
N 	N 	0.00600 0.25800 0.86860 -0.09300
N 	N 	0.39500 0.47500 0.56340 -0.18400
O 	O 	0.10400 0.77450 0.86510 -0.37300
O 	O 	0.83800 0.61310 0.82660 -0.24600
O 	O 	0.47900 0.59370 0.69030 -0.37100
O 	O 	0.85200 0.49830 0.66850 -0.38900
O 	O 	0.89600 0.72550 0.36510 -0.37100
O 	O 	0.16200 0.88690 0.32660 -0.24500
O 	O 	0.52100 0.90630 0.19030 -0.37100
O 	O 	0.14800 0.00170 0.16850 -0.38800
O 	O 	0.89600 0.22550 0.13490 -0.37300
O 	O 	0.16200 0.38690 0.17340 -0.24600
O 	O 	0.52100 0.40630 0.30970 -0.37100
O 	O 	0.14800 0.50170 0.33150 -0.38900
O 	O 	0.10400 0.27450 0.63490 -0.37100
O 	O 	0.83800 0.11310 0.67340 -0.24500
O 	O 	0.47900 0.09370 0.80970 -0.37100
O 	O 	0.85200 0.99830 0.83150 -0.38800
