data_crystal

_cell_length_a 10.59300
_cell_length_b 17.00500
_cell_length_c 24.00130
_cell_angle_alpha 91.21500
_cell_angle_beta  90.00000
_cell_angle_gamma 90.00000

_symmetry_space_group_name_	'P 1'
_symmetry_space_group_name_H-M	'P 1'

loop_
_symmetry_equiv_pos_as_xyz
  x,y,z

loop_
_atom_site_label
_atom_site_type_symbol
_atom_site_fract_x
_atom_site_fract_y
_atom_site_fract_z
_atom_site_charge
Ni	Ni	0.31313 0.25007 0.37791 1.07700
Ni	Ni	0.81313 0.24993 0.12209 1.07600
Ni	Ni	0.68687 0.74993 0.62209 1.07700
Ni	Ni	0.18687 0.75007 0.87791 1.07600
H 	H 	0.01740 0.23700 0.38910 -0.00500
H 	H 	0.86790 0.23910 0.45840 0.09300
H 	H 	0.13940 0.25950 0.57390 0.08400
H 	H 	0.28840 0.26210 0.50450 0.01000
H 	H 	0.79610 0.14980 0.54070 0.01700
H 	H 	0.63960 0.14990 0.60630 0.08500
H 	H 	0.78300 0.34700 0.67480 0.09100
H 	H 	0.94220 0.34660 0.60920 0.01700
H 	H 	0.21770 0.81670 0.75250 -0.01600
H 	H 	0.31610 0.91810 0.71000 0.11400
H 	H 	0.43050 0.00070 0.85800 0.08700
H 	H 	0.34450 0.89280 0.90020 -0.00500
H 	H 	0.61630 0.02000 0.77640 0.02700
H 	H 	0.70440 0.13410 0.74080 0.08800
H 	H 	0.36650 0.19550 0.67860 0.08200
H 	H 	0.27940 0.08090 0.71360 0.02800
H 	H 	0.28340 0.58880 0.90560 -0.00300
H 	H 	0.36840 0.48230 0.86590 0.08800
H 	H 	0.37710 0.59160 0.71810 0.11100
H 	H 	0.28430 0.69740 0.75920 -0.01900
H 	H 	0.45550 0.38120 0.82990 0.01600
H 	H 	0.53680 0.27260 0.78860 0.09300
H 	H 	0.54450 0.38460 0.64200 0.08500
H 	H 	0.45890 0.49540 0.68390 0.02600
H 	H 	0.57970 0.37270 0.51680 0.05500
H 	H 	0.44620 0.41040 0.52980 0.05700
H 	H 	0.59580 0.47420 0.44010 0.08100
H 	H 	0.33480 0.48510 0.47780 0.05800
H 	H 	0.37130 0.51890 0.41890 0.05100
H 	H 	0.55490 0.97300 0.40660 0.05300
H 	H 	0.41720 0.97620 0.43030 0.05000
H 	H 	0.61810 0.06840 0.46750 0.07200
H 	H 	0.48360 0.13010 0.53250 0.05600
H 	H 	0.36960 0.07800 0.51240 0.06500
H 	H 	0.51740 0.26300 0.11090 -0.00600
H 	H 	0.36790 0.26090 0.04160 0.09100
H 	H 	0.63940 0.24050 0.92610 0.08300
H 	H 	0.78840 0.23790 0.99550 0.01000
H 	H 	0.29610 0.35020 0.95930 0.01700
H 	H 	0.13960 0.35010 0.89370 0.08500
H 	H 	0.28300 0.15300 0.82520 0.09100
H 	H 	0.44220 0.15340 0.89080 0.01700
H 	H 	0.71770 0.68330 0.74750 -0.01600
H 	H 	0.81610 0.58190 0.79000 0.11400
H 	H 	0.93050 0.49930 0.64200 0.08700
H 	H 	0.84450 0.60720 0.59980 -0.00400
H 	H 	0.11630 0.48000 0.72360 0.02800
H 	H 	0.20440 0.36590 0.75920 0.08700
H 	H 	0.86650 0.30450 0.82140 0.08200
H 	H 	0.77940 0.41910 0.78640 0.02800
H 	H 	0.78340 0.91120 0.59440 -0.00200
H 	H 	0.86840 0.01770 0.63410 0.08600
H 	H 	0.87710 0.90840 0.78190 0.11100
H 	H 	0.78430 0.80260 0.74080 -0.01800
H 	H 	0.95550 0.11880 0.67010 0.01600
H 	H 	0.03680 0.22740 0.71140 0.09200
H 	H 	0.04450 0.11540 0.85800 0.08400
H 	H 	0.95890 0.00460 0.81610 0.02500
H 	H 	0.07970 0.12730 0.98320 0.05600
H 	H 	0.94620 0.08960 0.97020 0.05700
H 	H 	0.09580 0.02580 0.05990 0.08000
H 	H 	0.83480 0.01490 0.02220 0.05700
H 	H 	0.87130 0.98110 0.08110 0.05100
H 	H 	0.05490 0.52700 0.09340 0.05200
H 	H 	0.91720 0.52380 0.06970 0.04900
H 	H 	0.11810 0.43160 0.03250 0.07200
H 	H 	0.98360 0.36990 0.96750 0.05700
H 	H 	0.86960 0.42200 0.98760 0.06500
H 	H 	0.98260 0.76300 0.61090 -0.00600
H 	H 	0.13210 0.76090 0.54160 0.09200
H 	H 	0.86060 0.74050 0.42610 0.08300
H 	H 	0.71160 0.73790 0.49550 0.00900
H 	H 	0.20390 0.85020 0.45930 0.01700
H 	H 	0.36040 0.85010 0.39370 0.08500
H 	H 	0.21700 0.65300 0.32520 0.09100
H 	H 	0.05780 0.65340 0.39080 0.01700
H 	H 	0.78230 0.18330 0.24750 -0.01600
H 	H 	0.68390 0.08190 0.29000 0.11400
H 	H 	0.56950 0.99930 0.14200 0.08700
H 	H 	0.65550 0.10720 0.09980 -0.00500
H 	H 	0.38370 0.98000 0.22360 0.02700
H 	H 	0.29560 0.86590 0.25920 0.08800
H 	H 	0.63350 0.80450 0.32140 0.08200
H 	H 	0.72060 0.91910 0.28640 0.02800
H 	H 	0.71660 0.41120 0.09440 -0.00300
H 	H 	0.63160 0.51770 0.13410 0.08800
H 	H 	0.62290 0.40840 0.28190 0.11100
H 	H 	0.71570 0.30260 0.24080 -0.01900
H 	H 	0.54450 0.61880 0.17010 0.01600
H 	H 	0.46320 0.72740 0.21140 0.09300
H 	H 	0.45550 0.61540 0.35800 0.08500
H 	H 	0.54110 0.50460 0.31610 0.02600
H 	H 	0.42030 0.62730 0.48320 0.05500
H 	H 	0.55380 0.58960 0.47020 0.05700
H 	H 	0.40420 0.52580 0.55990 0.08100
H 	H 	0.66520 0.51490 0.52220 0.05800
H 	H 	0.62870 0.48110 0.58110 0.05100
H 	H 	0.44510 0.02700 0.59340 0.05300
H 	H 	0.58280 0.02380 0.56970 0.05000
H 	H 	0.38190 0.93160 0.53250 0.07200
H 	H 	0.51640 0.86990 0.46750 0.05600
H 	H 	0.63040 0.92200 0.48760 0.06500
H 	H 	0.48260 0.73700 0.88910 -0.00600
H 	H 	0.63210 0.73910 0.95840 0.09100
H 	H 	0.36060 0.75950 0.07390 0.08300
H 	H 	0.21160 0.76210 0.00450 0.01000
H 	H 	0.70390 0.64980 0.04070 0.01700
H 	H 	0.86040 0.64990 0.10630 0.08500
H 	H 	0.71700 0.84700 0.17480 0.09100
H 	H 	0.55780 0.84660 0.10920 0.01700
H 	H 	0.28230 0.31670 0.25250 -0.01600
H 	H 	0.18390 0.41810 0.21000 0.11400
H 	H 	0.06950 0.50070 0.35800 0.08700
H 	H 	0.15550 0.39280 0.40020 -0.00400
H 	H 	0.88370 0.52000 0.27640 0.02800
H 	H 	0.79560 0.63410 0.24080 0.08700
H 	H 	0.13350 0.69550 0.17860 0.08200
H 	H 	0.22060 0.58090 0.21360 0.02800
H 	H 	0.21660 0.08880 0.40560 -0.00200
H 	H 	0.13160 0.98230 0.36590 0.08600
H 	H 	0.12290 0.09160 0.21810 0.11100
H 	H 	0.21570 0.19740 0.25920 -0.01800
H 	H 	0.04450 0.88120 0.32990 0.01600
H 	H 	0.96320 0.77260 0.28860 0.09200
H 	H 	0.95550 0.88460 0.14200 0.08400
H 	H 	0.04110 0.99540 0.18390 0.02500
H 	H 	0.92030 0.87270 0.01680 0.05600
H 	H 	0.05380 0.91040 0.02980 0.05700
H 	H 	0.90420 0.97420 0.94010 0.08000
H 	H 	0.16520 0.98510 0.97780 0.05700
H 	H 	0.12870 0.01890 0.91890 0.05100
H 	H 	0.94510 0.47300 0.90660 0.05200
H 	H 	0.08280 0.47620 0.93030 0.04900
H 	H 	0.88190 0.56840 0.96750 0.07200
H 	H 	0.01640 0.63010 0.03250 0.05700
H 	H 	0.13040 0.57800 0.01240 0.06500
C 	C 	0.04190 0.24277 0.42612 0.07800
C 	C 	0.95280 0.24344 0.46777 -0.16200
C 	C 	0.98660 0.25046 0.52314 0.10600
C 	C 	0.11450 0.25626 0.53676 -0.15800
C 	C 	0.20350 0.25713 0.49516 0.08000
C 	C 	0.88480 0.24856 0.56668 -0.07000
C 	C 	0.79360 0.18995 0.56753 0.03000
C 	C 	0.69970 0.18976 0.60700 -0.15900
C 	C 	0.69380 0.24863 0.64791 0.14500
C 	C 	0.78560 0.30712 0.64769 -0.16000
C 	C 	0.88100 0.30736 0.60814 0.02900
C 	C 	0.26370 0.85271 0.77404 0.09600
C 	C 	0.32000 0.91452 0.74857 -0.18500
C 	C 	0.38080 0.97029 0.77853 0.11800
C 	C 	0.38930 0.96240 0.83658 -0.16500
C 	C 	0.33670 0.89812 0.86183 0.07900
C 	C 	0.43940 0.03917 0.74868 -0.06000
C 	C 	0.56630 0.05488 0.75685 0.01900
C 	C 	0.61910 0.12358 0.73545 -0.14700
C 	C 	0.54450 0.17643 0.70608 0.13200
C 	C 	0.41680 0.16056 0.69799 -0.14500
C 	C 	0.36460 0.09174 0.71916 0.01400
C 	C 	0.30160 0.58835 0.86768 0.08900
C 	C 	0.35270 0.52603 0.84435 -0.16800
C 	C 	0.38540 0.52319 0.78629 0.11300
C 	C 	0.35750 0.59058 0.75582 -0.18200
C 	C 	0.30280 0.65366 0.78040 0.09800
C 	C 	0.44660 0.45212 0.76142 -0.07300
C 	C 	0.47330 0.38161 0.79196 0.03800
C 	C 	0.52230 0.31728 0.76792 -0.16600
C 	C 	0.55140 0.31783 0.71163 0.14300
C 	C 	0.52630 0.38504 0.67987 -0.15600
C 	C 	0.47490 0.45116 0.70488 0.02800
C 	C 	0.48760 0.37999 0.41383 0.35100
C 	C 	0.52890 0.41993 0.51407 -0.07300
C 	C 	0.51880 0.44737 0.45186 -0.13600
C 	C 	0.40290 0.50586 0.45550 -0.07700
C 	C 	0.49470 0.12693 0.41716 0.34400
C 	C 	0.50550 0.98229 0.44010 -0.06600
C 	C 	0.52730 0.06376 0.46041 -0.11700
C 	C 	0.46030 0.07843 0.51793 -0.08400
C 	C 	0.54190 0.25723 0.07388 0.07500
C 	C 	0.45280 0.25656 0.03223 -0.15900
C 	C 	0.48660 0.24954 0.97686 0.10500
C 	C 	0.61450 0.24374 0.96324 -0.15800
C 	C 	0.70350 0.24287 0.00484 0.07800
C 	C 	0.38480 0.25144 0.93332 -0.07000
C 	C 	0.29360 0.31005 0.93247 0.03000
C 	C 	0.19970 0.31024 0.89300 -0.15900
C 	C 	0.19380 0.25137 0.85209 0.14400
C 	C 	0.28560 0.19288 0.85231 -0.16000
C 	C 	0.38100 0.19264 0.89186 0.02800
C 	C 	0.76370 0.64729 0.72596 0.09600
C 	C 	0.82000 0.58548 0.75143 -0.18400
C 	C 	0.88080 0.52971 0.72147 0.11800
C 	C 	0.88930 0.53760 0.66342 -0.16400
C 	C 	0.83670 0.60188 0.63817 0.07900
C 	C 	0.93940 0.46083 0.75132 -0.05900
C 	C 	0.06630 0.44512 0.74315 0.01700
C 	C 	0.11910 0.37642 0.76455 -0.14600
C 	C 	0.04450 0.32357 0.79392 0.13100
C 	C 	0.91680 0.33944 0.80201 -0.14300
C 	C 	0.86460 0.40826 0.78084 0.01300
C 	C 	0.80160 0.91165 0.63232 0.08700
C 	C 	0.85270 0.97397 0.65565 -0.16300
C 	C 	0.88540 0.97681 0.71371 0.11400
C 	C 	0.85750 0.90942 0.74418 -0.18200
C 	C 	0.80280 0.84634 0.71960 0.09800
C 	C 	0.94660 0.04788 0.73858 -0.07300
C 	C 	0.97330 0.11839 0.70804 0.03700
C 	C 	0.02230 0.18272 0.73208 -0.16400
C 	C 	0.05140 0.18217 0.78837 0.14200
C 	C 	0.02630 0.11496 0.82013 -0.15400
C 	C 	0.97490 0.04884 0.79512 0.02700
C 	C 	0.98760 0.12001 0.08617 0.34300
C 	C 	0.02890 0.08007 0.98593 -0.07500
C 	C 	0.01880 0.05263 0.04814 -0.12800
C 	C 	0.90290 0.99414 0.04450 -0.07800
C 	C 	0.99470 0.37307 0.08284 0.34000
C 	C 	0.00550 0.51771 0.05990 -0.06500
C 	C 	0.02730 0.43624 0.03959 -0.11400
C 	C 	0.96030 0.42157 0.98207 -0.08500
C 	C 	0.95810 0.75723 0.57388 0.07800
C 	C 	0.04720 0.75656 0.53223 -0.16200
C 	C 	0.01340 0.74954 0.47686 0.10600
C 	C 	0.88550 0.74374 0.46324 -0.15800
C 	C 	0.79650 0.74287 0.50484 0.08000
C 	C 	0.11520 0.75144 0.43332 -0.07000
C 	C 	0.20640 0.81005 0.43247 0.03000
C 	C 	0.30030 0.81024 0.39300 -0.15900
C 	C 	0.30620 0.75137 0.35209 0.14500
C 	C 	0.21440 0.69288 0.35231 -0.16000
C 	C 	0.11900 0.69264 0.39186 0.02900
C 	C 	0.73630 0.14729 0.22596 0.09600
C 	C 	0.68000 0.08548 0.25143 -0.18500
C 	C 	0.61920 0.02971 0.22147 0.11800
C 	C 	0.61070 0.03760 0.16342 -0.16500
C 	C 	0.66330 0.10188 0.13817 0.07900
C 	C 	0.56060 0.96083 0.25132 -0.06000
C 	C 	0.43370 0.94512 0.24315 0.01900
C 	C 	0.38090 0.87642 0.26455 -0.14700
C 	C 	0.45550 0.82357 0.29392 0.13200
C 	C 	0.58320 0.83944 0.30201 -0.14500
C 	C 	0.63540 0.90826 0.28084 0.01400
C 	C 	0.69840 0.41165 0.13232 0.08900
C 	C 	0.64730 0.47397 0.15565 -0.16800
C 	C 	0.61460 0.47681 0.21371 0.11300
C 	C 	0.64250 0.40942 0.24418 -0.18200
C 	C 	0.69720 0.34634 0.21960 0.09800
C 	C 	0.55340 0.54788 0.23858 -0.07300
C 	C 	0.52670 0.61839 0.20804 0.03800
C 	C 	0.47770 0.68272 0.23208 -0.16600
C 	C 	0.44860 0.68217 0.28837 0.14300
C 	C 	0.47370 0.61496 0.32013 -0.15600
C 	C 	0.52510 0.54884 0.29512 0.02800
C 	C 	0.51240 0.62001 0.58617 0.35100
C 	C 	0.47110 0.58007 0.48593 -0.07300
C 	C 	0.48120 0.55263 0.54814 -0.13600
C 	C 	0.59710 0.49414 0.54450 -0.07700
C 	C 	0.50530 0.87307 0.58284 0.34400
C 	C 	0.49450 0.01771 0.55990 -0.06600
C 	C 	0.47270 0.93624 0.53959 -0.11700
C 	C 	0.53970 0.92157 0.48207 -0.08400
C 	C 	0.45810 0.74277 0.92612 0.07500
C 	C 	0.54720 0.74344 0.96777 -0.15900
C 	C 	0.51340 0.75046 0.02314 0.10500
C 	C 	0.38550 0.75626 0.03676 -0.15800
C 	C 	0.29650 0.75713 0.99516 0.07800
C 	C 	0.61520 0.74856 0.06668 -0.07000
C 	C 	0.70640 0.68995 0.06753 0.03000
C 	C 	0.80030 0.68976 0.10700 -0.15900
C 	C 	0.80620 0.74863 0.14791 0.14400
C 	C 	0.71440 0.80712 0.14769 -0.16000
C 	C 	0.61900 0.80736 0.10814 0.02800
C 	C 	0.23630 0.35271 0.27404 0.09600
C 	C 	0.18000 0.41452 0.24857 -0.18400
C 	C 	0.11920 0.47029 0.27853 0.11800
C 	C 	0.11070 0.46240 0.33658 -0.16400
C 	C 	0.16330 0.39812 0.36183 0.07900
C 	C 	0.06060 0.53917 0.24868 -0.05900
C 	C 	0.93370 0.55488 0.25685 0.01700
C 	C 	0.88090 0.62358 0.23545 -0.14600
C 	C 	0.95550 0.67643 0.20608 0.13100
C 	C 	0.08320 0.66056 0.19799 -0.14300
C 	C 	0.13540 0.59174 0.21916 0.01300
C 	C 	0.19840 0.08835 0.36768 0.08700
C 	C 	0.14730 0.02603 0.34435 -0.16300
C 	C 	0.11460 0.02319 0.28629 0.11400
C 	C 	0.14250 0.09058 0.25582 -0.18200
C 	C 	0.19720 0.15366 0.28040 0.09800
C 	C 	0.05340 0.95212 0.26142 -0.07300
C 	C 	0.02670 0.88161 0.29196 0.03700
C 	C 	0.97770 0.81728 0.26792 -0.16400
C 	C 	0.94860 0.81783 0.21163 0.14200
C 	C 	0.97370 0.88504 0.17987 -0.15400
C 	C 	0.02510 0.95116 0.20488 0.02700
C 	C 	0.01240 0.87999 0.91383 0.34300
C 	C 	0.97110 0.91993 0.01407 -0.07500
C 	C 	0.98120 0.94737 0.95186 -0.12800
C 	C 	0.09710 0.00586 0.95550 -0.07800
C 	C 	0.00530 0.62693 0.91716 0.34000
C 	C 	0.99450 0.48229 0.94010 -0.06500
C 	C 	0.97270 0.56376 0.96041 -0.11400
C 	C 	0.03970 0.57843 0.01793 -0.08500
N 	N 	0.16920 0.25080 0.43971 -0.21900
N 	N 	0.27290 0.84185 0.83100 -0.23700
N 	N 	0.27380 0.65468 0.83611 -0.24200
N 	N 	0.59620 0.24773 0.68731 -0.18000
N 	N 	0.66920 0.24920 0.06029 -0.21800
N 	N 	0.77290 0.65815 0.66900 -0.23600
N 	N 	0.77380 0.84532 0.66389 -0.24200
N 	N 	0.09620 0.25227 0.81269 -0.18000
N 	N 	0.83080 0.74920 0.56029 -0.21900
N 	N 	0.72710 0.15815 0.16900 -0.23700
N 	N 	0.72620 0.34532 0.16389 -0.24200
N 	N 	0.40380 0.75227 0.31269 -0.18000
N 	N 	0.33080 0.75080 0.93971 -0.21800
N 	N 	0.22710 0.34185 0.33100 -0.23600
N 	N 	0.22620 0.15468 0.33611 -0.24200
N 	N 	0.90380 0.74773 0.18731 -0.18000
O 	O 	0.39620 0.33736 0.42408 -0.41600
O 	O 	0.56260 0.37052 0.37295 -0.29300
O 	O 	0.40267 0.16881 0.42718 -0.41100
O 	O 	0.56367 0.12925 0.37461 -0.29100
O 	O 	0.89620 0.16264 0.07592 -0.41500
O 	O 	0.06260 0.12948 0.12705 -0.28900
O 	O 	0.90267 0.33119 0.07282 -0.41000
O 	O 	0.06367 0.37075 0.12539 -0.28800
O 	O 	0.60380 0.66264 0.57592 -0.41600
O 	O 	0.43740 0.62948 0.62705 -0.29300
O 	O 	0.59733 0.83119 0.57282 -0.41100
O 	O 	0.43633 0.87075 0.62539 -0.29100
O 	O 	0.10380 0.83736 0.92408 -0.41500
O 	O 	0.93740 0.87052 0.87295 -0.28900
O 	O 	0.09733 0.66881 0.92718 -0.41000
O 	O 	0.93633 0.62925 0.87461 -0.28800
