data_crystal

_cell_length_a 9.94450
_cell_length_b 18.53910
_cell_length_c 20.28890
_cell_angle_alpha 88.90400
_cell_angle_beta  83.64800
_cell_angle_gamma 86.71300

_symmetry_space_group_name_	'P 1'
_symmetry_space_group_name_H-M	'P 1'

loop_
_symmetry_equiv_pos_as_xyz
  x,y,z

loop_
_atom_site_label
_atom_site_type_symbol
_atom_site_fract_x
_atom_site_fract_y
_atom_site_fract_z
_atom_site_charge
Ba	Ba	0.04270 0.24190 0.57638 1.14300
Cd	Cd	0.61289 0.45305 0.03887 1.24000
Cd	Cd	0.89934 0.95876 0.45562 1.22800
C 	C 	0.01560 0.11490 0.41570 0.40000
C 	C 	0.03530 0.16790 0.35880 -0.18400
C 	C 	0.11410 0.22720 0.36310 0.08300
H 	H 	0.15630 0.23430 0.40200 -0.05300
C 	C 	0.13040 0.27560 0.31050 -0.16900
H 	H 	0.18460 0.31570 0.31360 0.05900
C 	C 	0.06850 0.26640 0.25310 0.08600
C 	C 	0.99300 0.20620 0.24880 -0.15200
H 	H 	0.95360 0.19830 0.20920 0.08300
C 	C 	0.97430 0.15760 0.30120 0.08000
H 	H 	0.92020 0.11750 0.29800 0.01100
C 	C 	0.08040 0.31880 0.19740 -0.04600
C 	C 	0.20660 0.34620 0.17500 -0.00600
H 	H 	0.28370 0.33220 0.19700 0.03900
C 	C 	0.21990 0.39360 0.12090 -0.09900
C 	C 	0.10840 0.41620 0.08930 0.01200
H 	H 	0.11660 0.44910 0.05290 0.04700
C 	C 	0.98290 0.38920 0.11240 -0.07300
C 	C 	0.97110 0.34150 0.16460 -0.01200
H 	H 	0.88500 0.32340 0.17860 0.04300
C 	C 	0.85840 0.41500 0.07930 0.29900
C 	C 	0.35750 0.41610 0.09300 0.35000
C 	C 	0.52830 0.39780 0.90430 0.37500
C 	C 	0.53470 0.34070 0.85160 -0.14000
C 	C 	0.45360 0.34850 0.80270 0.05000
H 	H 	0.39200 0.38960 0.80220 0.01100
C 	C 	0.45820 0.29700 0.75230 -0.14600
H 	H 	0.40150 0.30390 0.71770 0.03800
C 	C 	0.54580 0.23610 0.75330 0.08600
C 	C 	0.62270 0.22690 0.80510 -0.15600
H 	H 	0.68020 0.18450 0.80760 0.08900
C 	C 	0.61790 0.27840 0.85380 0.05600
H 	H 	0.67240 0.27100 0.88930 0.02900
C 	C 	0.55260 0.18330 0.69960 -0.09800
C 	C 	0.43540 0.16350 0.67490 0.04200
H 	H 	0.35020 0.18560 0.69160 -0.00900
C 	C 	0.44200 0.11080 0.62530 -0.17400
C 	C 	0.56560 0.07950 0.59930 0.08400
H 	H 	0.56980 0.04400 0.56590 0.02200
C 	C 	0.68420 0.10060 0.62260 -0.18100
C 	C 	0.67730 0.15120 0.67290 0.04300
H 	H 	0.75830 0.16410 0.68940 -0.01600
C 	C 	0.81910 0.07060 0.59010 0.43600
C 	C 	0.31550 0.08730 0.59840 0.42200
O 	O 	0.92970 0.06770 0.41040 -0.45000
O 	O 	0.08120 0.12300 0.46310 -0.52600
O 	O 	0.76300 0.37180 0.08250 -0.36400
O 	O 	0.85390 0.47410 0.05160 -0.35500
O 	O 	0.36480 0.45120 0.03890 -0.47500
O 	O 	0.45890 0.39600 0.12020 -0.37600
O 	O 	0.61120 0.38760 0.94780 -0.42800
O 	O 	0.44160 0.44780 0.89970 -0.43100
O 	O 	0.92320 0.09440 0.60620 -0.52800
O 	O 	0.81730 0.02250 0.55020 -0.48400
O 	O 	0.32060 0.03340 0.56710 -0.43600
O 	O 	0.21070 0.12560 0.60990 -0.52400
Ba	Ba	0.95730 0.75810 0.42362 1.14200
Cd	Cd	0.38711 0.54695 0.96113 1.23900
Cd	Cd	0.10066 0.04124 0.54438 1.22700
C 	C 	0.98440 0.88510 0.58430 0.39900
C 	C 	0.96470 0.83210 0.64120 -0.18500
C 	C 	0.88590 0.77280 0.63690 0.08200
H 	H 	0.84370 0.76570 0.59800 -0.05400
C 	C 	0.86960 0.72440 0.68950 -0.17000
H 	H 	0.81540 0.68430 0.68640 0.05800
C 	C 	0.93150 0.73360 0.74690 0.08500
C 	C 	0.00700 0.79380 0.75120 -0.15300
H 	H 	0.04640 0.80170 0.79080 0.08200
C 	C 	0.02570 0.84240 0.69880 0.07900
H 	H 	0.07980 0.88250 0.70200 0.01000
C 	C 	0.91960 0.68120 0.80260 -0.04700
C 	C 	0.79340 0.65380 0.82500 -0.00700
H 	H 	0.71630 0.66780 0.80300 0.03900
C 	C 	0.78010 0.60640 0.87910 -0.09900
C 	C 	0.89160 0.58380 0.91070 0.01200
H 	H 	0.88340 0.55090 0.94710 0.04700
C 	C 	0.01710 0.61080 0.88760 -0.07300
C 	C 	0.02890 0.65850 0.83540 -0.01200
H 	H 	0.11500 0.67660 0.82140 0.04300
C 	C 	0.14160 0.58500 0.92070 0.29900
C 	C 	0.64250 0.58390 0.90700 0.35000
C 	C 	0.47170 0.60220 0.09570 0.37500
C 	C 	0.46530 0.65930 0.14840 -0.14000
C 	C 	0.54640 0.65150 0.19730 0.05000
H 	H 	0.60800 0.61040 0.19780 0.01100
C 	C 	0.54180 0.70300 0.24770 -0.14600
H 	H 	0.59850 0.69610 0.28230 0.03800
C 	C 	0.45420 0.76390 0.24670 0.08600
C 	C 	0.37730 0.77310 0.19490 -0.15600
H 	H 	0.31980 0.81550 0.19240 0.08900
C 	C 	0.38210 0.72160 0.14620 0.05600
H 	H 	0.32760 0.72900 0.11070 0.02900
C 	C 	0.44740 0.81670 0.30040 -0.09800
C 	C 	0.56460 0.83650 0.32510 0.04200
H 	H 	0.64980 0.81440 0.30840 -0.00900
C 	C 	0.55800 0.88920 0.37470 -0.17400
C 	C 	0.43440 0.92050 0.40070 0.08400
H 	H 	0.43020 0.95600 0.43410 0.02200
C 	C 	0.31580 0.89940 0.37740 -0.18100
C 	C 	0.32270 0.84880 0.32710 0.04300
H 	H 	0.24170 0.83590 0.31060 -0.01600
C 	C 	0.18090 0.92940 0.40990 0.43600
C 	C 	0.68450 0.91270 0.40160 0.42200
O 	O 	0.07030 0.93230 0.58960 -0.45000
O 	O 	0.91880 0.87700 0.53690 -0.52600
O 	O 	0.23700 0.62820 0.91750 -0.36400
O 	O 	0.14610 0.52590 0.94840 -0.35500
O 	O 	0.63520 0.54880 0.96110 -0.47500
O 	O 	0.54110 0.60400 0.87980 -0.37600
O 	O 	0.38880 0.61240 0.05220 -0.42800
O 	O 	0.55840 0.55220 0.10030 -0.43100
O 	O 	0.07680 0.90560 0.39380 -0.52800
O 	O 	0.18270 0.97750 0.44980 -0.48400
O 	O 	0.67940 0.96660 0.43290 -0.43600
O 	O 	0.78930 0.87440 0.39010 -0.52400
Cd	Cd	0.41284 0.97102 0.01904 1.12100
C 	C 	0.04170 0.60460 0.09550 -0.27700
H 	H 	0.00740 0.56000 0.08040 0.13100
H 	H 	0.13600 0.60860 0.07650 0.11600
H 	H 	0.03700 0.60370 0.14410 0.09600
C 	C 	0.83250 0.65960 0.06060 0.09100
H 	H 	0.79720 0.61300 0.06280 0.02000
C 	C 	0.75480 0.71920 0.04390 -0.17800
H 	H 	0.66520 0.71290 0.03380 0.09800
C 	C 	0.80150 0.78800 0.04100 0.15500
C 	C 	0.93410 0.79330 0.05540 -0.20500
H 	H 	0.97210 0.83920 0.05520 0.12500
C 	C 	0.00710 0.73430 0.06950 0.11300
H 	H 	0.09880 0.73860 0.07710 0.01300
C 	C 	0.67040 0.89880 0.08320 0.08500
C 	C 	0.70560 0.88420 0.14930 -0.07500
H 	H 	0.75940 0.84420 0.16360 0.05500
C 	C 	0.64710 0.93860 0.18630 -0.07500
H 	H 	0.65190 0.94420 0.23240 0.06100
C 	C 	0.57500 0.98750 0.14420 0.07500
C 	C 	0.71110 0.85280 0.02660 -0.17300
C 	C 	0.67950 0.86210 0.96170 0.08700
C 	C 	0.72630 0.81640 0.90690 -0.08100
H 	H 	0.78750 0.77520 0.90810 0.06800
C 	C 	0.66860 0.84180 0.85360 -0.07100
H 	H 	0.67890 0.82110 0.81070 0.05900
C 	C 	0.58730 0.90710 0.87410 0.08300
C 	C 	0.49450 0.04980 0.16430 -0.15800
C 	C 	0.49550 0.06920 0.23490 0.13300
C 	C 	0.37520 0.07490 0.27950 -0.15900
H 	H 	0.28990 0.06730 0.26470 0.08800
C 	C 	0.38390 0.09150 0.34490 0.07800
H 	H 	0.30320 0.09670 0.37450 0.01500
C 	C 	0.50290 0.11710 0.43740 -0.23700
H 	H 	0.45500 0.08050 0.46480 0.10900
H 	H 	0.45800 0.16480 0.44660 0.06700
H 	H 	0.59690 0.11700 0.44770 0.09600
C 	C 	0.61700 0.09650 0.32590 0.08200
H 	H 	0.70080 0.10420 0.34230 0.01000
C 	C 	0.61480 0.08150 0.26100 -0.16800
H 	H 	0.69750 0.07950 0.23250 0.08600
Cl	Cl	0.22000 0.89910 0.06720 -0.54300
N 	N 	0.59230 0.91560 0.94040 -0.33600
N 	N 	0.59700 0.96150 0.08020 -0.34100
N 	N 	0.95690 0.66840 0.07350 -0.11700
N 	N 	0.50130 0.10050 0.36720 -0.10900
Cd	Cd	0.58716 0.02898 0.98096 1.12100
C 	C 	0.95830 0.39540 0.90450 -0.27700
H 	H 	0.99260 0.44000 0.91960 0.13100
H 	H 	0.86400 0.39140 0.92350 0.11600
H 	H 	0.96300 0.39630 0.85590 0.09600
C 	C 	0.16750 0.34040 0.93940 0.09100
H 	H 	0.20280 0.38700 0.93720 0.02000
C 	C 	0.24520 0.28080 0.95610 -0.17800
H 	H 	0.33480 0.28710 0.96620 0.09800
C 	C 	0.19850 0.21200 0.95900 0.15500
C 	C 	0.06590 0.20670 0.94460 -0.20500
H 	H 	0.02790 0.16080 0.94480 0.12500
C 	C 	0.99290 0.26570 0.93050 0.11300
H 	H 	0.90120 0.26140 0.92290 0.01300
C 	C 	0.32960 0.10120 0.91680 0.08500
C 	C 	0.29440 0.11580 0.85070 -0.07500
H 	H 	0.24060 0.15580 0.83640 0.05500
C 	C 	0.35290 0.06140 0.81370 -0.07500
H 	H 	0.34810 0.05580 0.76760 0.06100
C 	C 	0.42500 0.01250 0.85580 0.07500
C 	C 	0.28890 0.14720 0.97340 -0.17300
C 	C 	0.32050 0.13790 0.03830 0.08700
C 	C 	0.27370 0.18360 0.09310 -0.08100
H 	H 	0.21250 0.22480 0.09190 0.06800
C 	C 	0.33140 0.15820 0.14640 -0.07100
H 	H 	0.32110 0.17890 0.18930 0.05900
C 	C 	0.41270 0.09290 0.12590 0.08300
C 	C 	0.50550 0.95020 0.83570 -0.15800
C 	C 	0.50450 0.93080 0.76510 0.13300
C 	C 	0.62480 0.92510 0.72050 -0.15900
H 	H 	0.71010 0.93270 0.73530 0.08800
C 	C 	0.61610 0.90850 0.65510 0.07800
H 	H 	0.69680 0.90330 0.62550 0.01500
C 	C 	0.49710 0.88290 0.56260 -0.23700
H 	H 	0.54500 0.91950 0.53520 0.10900
H 	H 	0.54200 0.83520 0.55340 0.06700
H 	H 	0.40310 0.88300 0.55230 0.09600
C 	C 	0.38300 0.90350 0.67410 0.08200
H 	H 	0.29920 0.89580 0.65770 0.01000
C 	C 	0.38520 0.91850 0.73900 -0.16800
H 	H 	0.30250 0.92050 0.76750 0.08600
Cl	Cl	0.78000 0.10090 0.93280 -0.54300
N 	N 	0.40770 0.08440 0.05960 -0.33600
N 	N 	0.40300 0.03850 0.91980 -0.34100
N 	N 	0.04310 0.33160 0.92650 -0.11700
N 	N 	0.49870 0.89950 0.63280 -0.10900
