data_crystal

_cell_length_a 12.76300
_cell_length_b 17.70750
_cell_length_c 17.70750
_cell_angle_alpha 65.58040
_cell_angle_beta  76.09840
_cell_angle_gamma 103.90200

_symmetry_space_group_name_	'P 1'
_symmetry_space_group_name_H-M	'P 1'

loop_
_symmetry_equiv_pos_as_xyz
  x,y,z

loop_
_atom_site_label
_atom_site_type_symbol
_atom_site_fract_x
_atom_site_fract_y
_atom_site_fract_z
_atom_site_charge
Mn	Mn	0.86427 0.30059 0.16879 1.25700
Mn	Mn	0.53870 0.75149 0.82913 1.24500
Mn	Mn	0.03306 0.16879 0.53062 1.24200
Mn	Mn	0.36783 0.82913 0.41938 1.24500
Mn	Mn	0.56368 0.53062 0.30059 1.25100
Mn	Mn	0.78721 0.41938 0.75149 1.24600
Mo	Mo	0.71820 0.53319 0.99543 1.04300
Mo	Mo	0.71363 0.99543 0.47138 1.04000
Mo	Mo	0.18501 0.47138 0.53319 1.06100
H 	H 	0.53640 0.14360 0.23800 0.06100
H 	H 	0.60670 0.24160 0.15570 0.05300
H 	H 	0.52870 0.24680 0.28840 0.05800
H 	H 	0.59840 0.19170 0.33230 0.05500
H 	H 	0.73480 0.29980 0.34350 0.05000
H 	H 	0.66170 0.36000 0.32150 0.05700
H 	H 	0.75340 0.82190 0.88430 0.03200
H 	H 	0.81370 0.92590 0.81610 0.03400
H 	H 	0.05540 0.53440 0.91690 0.01900
H 	H 	0.27040 0.52830 0.08030 0.04500
H 	H 	0.82050 0.74760 0.68220 0.06700
H 	H 	0.74070 0.79820 0.64970 0.04600
H 	H 	0.82440 0.48090 0.20480 0.04600
H 	H 	0.86000 0.44460 0.28820 0.05200
H 	H 	0.37930 0.46310 0.02320 0.03600
H 	H 	0.02920 0.58260 0.15050 0.21300
H 	H 	0.15710 0.58730 0.11590 0.22600
H 	H 	0.08170 0.53520 0.21950 0.22100
H 	H 	0.65010 0.65620 0.67600 0.04800
H 	H 	0.66530 0.61140 0.76800 0.03700
H 	H 	0.81150 0.89930 0.69740 0.04200
H 	H 	0.88190 0.85030 0.74770 0.06200
H 	H 	0.84920 0.09600 0.16790 0.05800
H 	H 	0.88890 0.14460 0.06260 0.06000
H 	H 	0.28410 0.33220 0.02610 0.05100
H 	H 	0.05360 0.12660 0.09350 0.14700
H 	H 	0.17270 0.19000 0.08220 0.14500
H 	H 	0.13710 0.21030 0.99930 0.11300
H 	H 	0.09050 0.64810 0.95050 0.01600
H 	H 	0.41270 0.52470 0.73860 0.25400
H 	H 	0.36680 0.46380 0.84330 0.23600
H 	H 	0.50110 0.50510 0.78470 0.24500
H 	H 	0.62460 0.92510 0.91400 0.03600
H 	H 	0.58030 0.82000 0.96640 0.02900
H 	H 	0.20860 0.50540 0.85220 0.03600
H 	H 	0.22260 0.79780 0.00480 0.27400
H 	H 	0.14080 0.75570 0.96720 0.24200
H 	H 	0.23500 0.85390 0.90550 0.23900
H 	H 	0.75490 0.21310 0.06840 0.05500
H 	H 	0.68630 0.10910 0.13420 0.07000
H 	H 	0.41520 0.85210 0.98020 0.00600
H 	H 	0.46330 0.91990 0.87610 0.01200
H 	H 	0.77440 0.23800 0.61840 0.05200
H 	H 	0.76240 0.15570 0.60270 0.05000
H 	H 	0.81710 0.28840 0.46480 0.06300
H 	H 	0.93070 0.33230 0.47600 0.06500
H 	H 	0.07830 0.34350 0.35670 0.08500
H 	H 	0.98320 0.32150 0.31850 0.12300
H 	H 	0.63770 0.88430 0.29380 0.03400
H 	H 	0.62980 0.81610 0.25800 0.04600
H 	H 	0.97230 0.91690 0.54870 0.08900
H 	H 	0.35070 0.08030 0.39140 0.03700
H 	H 	0.50270 0.68220 0.57020 0.06400
H 	H 	0.39040 0.64970 0.55210 0.04700
H 	H 	0.02920 0.20480 0.31430 0.00600
H 	H 	0.14820 0.28820 0.26720 0.02000
H 	H 	0.40250 0.02320 0.51370 0.04400
H 	H 	0.17970 0.15050 0.26690 0.24600
H 	H 	0.27300 0.11590 0.29680 0.25100
H 	H 	0.30120 0.21950 0.24530 0.25300
H 	H 	0.32610 0.67600 0.66780 0.04800
H 	H 	0.43330 0.76800 0.62060 0.03700
H 	H 	0.50890 0.69740 0.40330 0.05100
H 	H 	0.62960 0.74770 0.40200 0.06000
H 	H 	0.01710 0.16790 0.73610 -0.02100
H 	H 	0.95150 0.06260 0.79280 0.01400
H 	H 	0.31020 0.02610 0.64170 0.04300
H 	H 	0.14710 0.09350 0.77990 0.15100
H 	H 	0.25490 0.08220 0.72780 0.14900
H 	H 	0.13640 0.99930 0.79040 0.10800
H 	H 	0.04100 0.95050 0.40140 -0.01400
H 	H 	0.15130 0.73860 0.73670 0.24700
H 	H 	0.21010 0.84330 0.69290 0.23200
H 	H 	0.28580 0.78470 0.71020 0.24400
H 	H 	0.53860 0.91400 0.16090 0.05200
H 	H 	0.54670 0.96640 0.21360 0.03100
H 	H 	0.06080 0.85220 0.64240 0.00100
H 	H 	0.22740 0.00480 0.19740 0.30000
H 	H 	0.10800 0.96720 0.27710 0.25900
H 	H 	0.14050 0.90550 0.24060 0.25700
H 	H 	0.82330 0.06840 0.71850 0.07400
H 	H 	0.82050 0.13420 0.75670 0.07900
H 	H 	0.39540 0.98020 0.16770 0.01300
H 	H 	0.33940 0.87610 0.20400 0.02300
H 	H 	0.39280 0.61840 0.14360 0.05800
H 	H 	0.36510 0.60270 0.24160 0.04800
H 	H 	0.28190 0.46480 0.24680 0.05700
H 	H 	0.40670 0.47600 0.19170 0.05500
H 	H 	0.43500 0.35670 0.29980 0.05100
H 	H 	0.30170 0.31850 0.36000 0.05900
H 	H 	0.93150 0.29380 0.82190 0.06300
H 	H 	0.88780 0.25800 0.92590 0.06000
H 	H 	0.52100 0.54870 0.53440 0.03400
H 	H 	0.74210 0.39140 0.52830 0.02800
H 	H 	0.07290 0.57020 0.74760 0.03000
H 	H 	0.94250 0.55210 0.79820 0.03400
H 	H 	0.34350 0.31430 0.48090 0.03800
H 	H 	0.41540 0.26720 0.44460 0.04300
H 	H 	0.91620 0.51370 0.46310 0.04400
H 	H 	0.44660 0.26690 0.58260 0.24200
H 	H 	0.56980 0.29680 0.58730 0.24100
H 	H 	0.54650 0.24530 0.53520 0.24900
H 	H 	0.99390 0.66780 0.65620 0.04700
H 	H 	0.05390 0.62060 0.61140 0.00600
H 	H 	0.91220 0.40330 0.89930 0.01800
H 	H 	0.03160 0.40200 0.85030 0.00700
H 	H 	0.75320 0.73610 0.09600 0.04400
H 	H 	0.74430 0.79280 0.14460 0.03300
H 	H 	0.95190 0.64170 0.33220 0.03100
H 	H 	0.92700 0.77990 0.12660 0.23700
H 	H 	0.98270 0.72780 0.19000 0.23100
H 	H 	0.92680 0.79040 0.21030 0.22600
H 	H 	0.44240 0.40140 0.64810 0.03700
H 	H 	0.88800 0.73670 0.52470 0.27200
H 	H 	0.90300 0.69290 0.46380 0.25900
H 	H 	0.99600 0.71020 0.50510 0.27300
H 	H 	0.69950 0.16090 0.92510 0.05300
H 	H 	0.76030 0.21360 0.82000 0.04500
H 	H 	0.70320 0.64240 0.50540 0.03800
H 	H 	0.42480 0.19740 0.79780 0.21100
H 	H 	0.38510 0.27710 0.75570 0.21600
H 	H 	0.38110 0.24060 0.85390 0.20600
H 	H 	0.54180 0.71850 0.21310 0.04500
H 	H 	0.57720 0.75670 0.10910 0.06400
H 	H 	0.56310 0.16770 0.85210 0.02700
H 	H 	0.54340 0.20400 0.91990 0.02200
C 	C 	0.60520 0.19800 0.21200 -0.09300
C 	C 	0.33440 0.60440 0.84590 -0.03800
C 	C 	0.59950 0.23500 0.27600 -0.09000
C 	C 	0.04950 0.24350 0.08410 0.10300
C 	C 	0.03450 0.46670 0.15790 0.16600
C 	C 	0.81390 0.44940 0.02360 -0.12100
C 	C 	0.12250 0.32480 0.08110 0.01700
C 	C 	0.60530 0.60560 0.97250 -0.17600
C 	C 	0.72630 0.34720 0.29520 -0.10200
C 	C 	0.66020 0.50480 0.13000 -0.11400
C 	C 	0.85120 0.63630 0.86790 -0.16100
C 	C 	0.75970 0.86930 0.82820 -0.07500
C 	C 	0.30510 0.75930 0.92250 0.21600
C 	C 	0.13160 0.56880 0.90420 -0.04100
C 	C 	0.23360 0.47570 0.08110 -0.05800
C 	C 	0.74390 0.75000 0.70050 -0.09800
C 	C 	0.26700 0.68610 0.90420 -0.05600
C 	C 	0.83690 0.43040 0.24580 -0.05900
C 	C 	0.29810 0.43720 0.04680 -0.00200
C 	C 	0.07970 0.55040 0.16120 -0.67100
C 	C 	0.64990 0.66110 0.72860 -0.05900
C 	C 	0.80490 0.85170 0.75360 -0.09900
C 	C 	0.86000 0.15010 0.11520 -0.06500
C 	C 	0.24170 0.35990 0.04780 -0.08200
C 	C 	0.10850 0.18770 0.06280 -0.44000
C 	C 	0.15200 0.63610 0.92410 -0.05000
C 	C 	0.42970 0.51530 0.79100 -0.74500
C 	C 	0.44260 0.59550 0.80100 0.22900
C 	C 	0.83780 0.62520 0.01430 -0.11300
C 	C 	0.58410 0.87110 0.91430 -0.09900
C 	C 	0.11320 0.43530 0.11660 -0.00900
C 	C 	0.56370 0.41070 0.07100 -0.12300
C 	C 	0.22230 0.55180 0.86530 -0.04800
C 	C 	0.21810 0.79490 0.95270 -0.81600
C 	C 	0.74540 0.16250 0.12370 -0.10300
C 	C 	0.46170 0.86430 0.92130 -0.03300
C 	C 	0.70130 0.48520 0.90280 -0.14700
C 	C 	0.81720 0.21200 0.59000 -0.08700
C 	C 	0.18030 0.84590 0.54970 -0.07100
C 	C 	0.87550 0.27600 0.48900 -0.10200
C 	C 	0.13360 0.08410 0.67240 0.14600
C 	C 	0.19240 0.15790 0.37540 0.22600
C 	C 	0.83750 0.02360 0.52700 -0.12000
C 	C 	0.20360 0.08110 0.59410 -0.00200
C 	C 	0.57780 0.97250 0.42190 -0.17900
C 	C 	0.02150 0.29520 0.35760 -0.24200
C 	C 	0.79020 0.13000 0.36520 -0.10800
C 	C 	0.71910 0.86790 0.49580 -0.16500
C 	C 	0.58790 0.82820 0.30250 -0.07800
C 	C 	0.22760 0.92250 0.31820 0.23900
C 	C 	0.03580 0.90420 0.52700 -0.16600
C 	C 	0.31470 0.08110 0.44320 -0.03600
C 	C 	0.44440 0.70050 0.54950 -0.09600
C 	C 	0.17120 0.90420 0.40970 -0.09400
C 	C 	0.08270 0.24580 0.32380 0.01800
C 	C 	0.34490 0.04680 0.51600 -0.02100
C 	C 	0.24090 0.16120 0.28840 -0.74800
C 	C 	0.37850 0.72860 0.61030 -0.06000
C 	C 	0.55850 0.75360 0.39470 -0.09900
C 	C 	0.97520 0.11520 0.73470 0.07500
C 	C 	0.28950 0.04780 0.59230 -0.06300
C 	C 	0.17130 0.06280 0.74950 -0.46000
C 	C 	0.07610 0.92410 0.43980 0.02100
C 	C 	0.22070 0.79100 0.69370 -0.74300
C 	C 	0.24360 0.80100 0.60350 0.23400
C 	C 	0.85210 0.01430 0.36050 -0.10800
C 	C 	0.49840 0.91430 0.21460 -0.10000
C 	C 	0.22980 0.11660 0.44810 -0.03200
C 	C 	0.63470 0.07100 0.51830 -0.12000
C 	C 	0.08760 0.86530 0.58290 0.02200
C 	C 	0.17080 0.95270 0.25240 -0.86900
C 	C 	0.86910 0.12370 0.71380 -0.16200
C 	C 	0.38300 0.92130 0.21440 -0.03500
C 	C 	0.60410 0.90280 0.61200 -0.15100
C 	C 	0.40720 0.59000 0.19800 -0.09100
C 	C 	0.73000 0.54970 0.60440 -0.03900
C 	C 	0.36450 0.48900 0.23500 -0.09100
C 	C 	0.80600 0.67240 0.24350 0.21500
C 	C 	0.56780 0.37540 0.46670 0.22000
C 	C 	0.36450 0.52700 0.44940 -0.15300
C 	C 	0.79770 0.59410 0.32480 -0.03400
C 	C 	0.99970 0.42190 0.60560 -0.12800
C 	C 	0.37910 0.35760 0.34720 -0.10800
C 	C 	0.15540 0.36520 0.50480 -0.13600
C 	C 	0.21490 0.49580 0.63630 -0.16100
C 	C 	0.89040 0.30250 0.86930 -0.13300
C 	C 	0.54580 0.31820 0.75930 0.18300
C 	C 	0.56280 0.52700 0.56880 -0.03200
C 	C 	0.75790 0.44320 0.47570 -0.03200
C 	C 	0.99390 0.54950 0.75000 -0.04300
C 	C 	0.58090 0.40970 0.68610 -0.03400
C 	C 	0.40650 0.32380 0.43040 -0.04800
C 	C 	0.86090 0.51600 0.43720 -0.03900
C 	C 	0.52930 0.28840 0.55040 -0.73600
C 	C 	0.98880 0.61030 0.66110 -0.02400
C 	C 	0.95320 0.39470 0.85170 0.00000
C 	C 	0.70990 0.73470 0.15010 -0.04800
C 	C 	0.88180 0.59230 0.35990 -0.04200
C 	C 	0.92080 0.74950 0.18770 -0.71600
C 	C 	0.51590 0.43980 0.63610 -0.05800
C 	C 	0.91440 0.69370 0.51530 -0.79200
C 	C 	0.84710 0.60350 0.59550 0.25000
C 	C 	0.21260 0.36050 0.62520 -0.15200
C 	C 	0.71300 0.21460 0.87110 -0.10700
C 	C 	0.67790 0.44810 0.43530 -0.03700
C 	C 	0.15300 0.51830 0.41070 -0.15600
C 	C 	0.67050 0.58290 0.55180 -0.04300
C 	C 	0.42320 0.25240 0.79490 -0.66900
C 	C 	0.58290 0.71380 0.16250 -0.10600
C 	C 	0.59740 0.21440 0.86430 -0.03800
C 	C 	0.21610 0.61200 0.48520 -0.13900
N 	N 	0.70890 0.17830 0.19650 -0.17300
N 	N 	0.35410 0.66860 0.86510 -0.21200
N 	N 	0.92620 0.41300 0.19720 -0.22900
N 	N 	0.92260 0.69470 0.80120 -0.08000
N 	N 	0.06180 0.36230 0.11470 -0.22500
N 	N 	0.85730 0.39910 0.04320 -0.19200
N 	N 	0.94190 0.22770 0.10700 -0.21400
N 	N 	0.54770 0.64740 0.95820 -0.19300
N 	N 	0.53560 0.65800 0.77560 -0.27000
N 	N 	0.70130 0.31740 0.23450 -0.18400
N 	N 	0.64800 0.87340 0.83500 -0.19200
N 	N 	0.72640 0.76710 0.77280 -0.18600
N 	N 	0.48280 0.34560 0.11210 -0.09500
N 	N 	0.41370 0.79120 0.90700 -0.26800
N 	N 	0.90170 0.67190 0.02620 -0.08900
N 	N 	0.63210 0.49170 0.20120 -0.20400
N 	N 	0.70030 0.45370 0.85720 -0.19900
N 	N 	0.90540 0.19650 0.62520 -0.16200
N 	N 	0.21920 0.86510 0.46630 -0.20100
N 	N 	0.12340 0.19720 0.38980 -0.26900
N 	N 	0.72380 0.80120 0.50410 -0.08600
N 	N 	0.17650 0.11470 0.52300 -0.20900
N 	N 	0.90050 0.04320 0.55770 -0.19000
N 	N 	0.04890 0.10700 0.66530 -0.27400
N 	N 	0.50590 0.95820 0.39440 -0.19400
N 	N 	0.31120 0.77560 0.56640 -0.27200
N 	N 	0.93580 0.23450 0.44810 -0.14900
N 	N 	0.48300 0.83500 0.29160 -0.18600
N 	N 	0.49920 0.77280 0.46010 -0.18700
N 	N 	0.59490 0.11210 0.54230 -0.09600
N 	N 	0.32070 0.90700 0.30180 -0.27200
N 	N 	0.92790 0.02620 0.30190 -0.08200
N 	N 	0.83330 0.20120 0.30710 -0.20000
N 	N 	0.55750 0.85720 0.68910 -0.19900
N 	N 	0.53060 0.62520 0.17830 -0.17400
N 	N 	0.68550 0.46630 0.66860 -0.21300
N 	N 	0.51320 0.38980 0.41300 -0.25600
N 	N 	0.22790 0.50410 0.69470 -0.08800
N 	N 	0.69950 0.52300 0.36230 -0.20300
N 	N 	0.45820 0.55770 0.39910 -0.20200
N 	N 	0.71420 0.66530 0.22770 -0.26100
N 	N 	0.90030 0.39440 0.64740 -0.19200
N 	N 	0.87760 0.56640 0.65800 -0.27700
N 	N 	0.38390 0.44810 0.31740 -0.18300
N 	N 	0.77460 0.29160 0.87340 -0.18200
N 	N 	0.95930 0.46010 0.76710 -0.20000
N 	N 	0.13720 0.54230 0.34560 -0.09900
N 	N 	0.62250 0.30180 0.79120 -0.25500
N 	N 	0.22980 0.30190 0.67190 -0.09900
N 	N 	0.14040 0.30710 0.49170 -0.20500
N 	N 	0.24660 0.68910 0.45370 -0.19900
