data_crystal

_cell_length_a 10.00600
_cell_length_b 18.34000
_cell_length_c 20.26000
_cell_angle_alpha 88.72000
_cell_angle_beta  83.46000
_cell_angle_gamma 86.86000

_symmetry_space_group_name_	'P 1'
_symmetry_space_group_name_H-M	'P 1'

loop_
_symmetry_equiv_pos_as_xyz
  x,y,z

loop_
_atom_site_label
_atom_site_type_symbol
_atom_site_fract_x
_atom_site_fract_y
_atom_site_fract_z
_atom_site_charge
Na	Na	0.89290 0.72080 0.87910 0.56600
Cd	Cd	0.88666 0.54786 0.96064 1.24000
Cd	Cd	0.38930 0.95980 0.45490 1.25700
C 	C 	0.96400 0.59710 0.10070 0.36600
C 	C 	0.95700 0.65640 0.15340 -0.12300
C 	C 	0.04320 0.65130 0.20150 0.06200
H 	H 	0.10690 0.61240 0.20150 0.02100
C 	C 	0.03560 0.70450 0.25070 -0.15000
H 	H 	0.09220 0.69900 0.28400 0.08500
C 	C 	0.94990 0.76240 0.25110 0.09700
C 	C 	0.86260 0.76810 0.20110 -0.13900
H 	H 	0.79790 0.80660 0.20260 0.09000
C 	C 	0.86920 0.71840 0.14970 0.04900
H 	H 	0.81780 0.72600 0.11450 0.03100
C 	C 	0.93460 0.82070 0.30430 -0.06000
C 	C 	0.81130 0.84920 0.33040 0.04100
H 	H 	0.73390 0.83510 0.31380 0.03400
C 	C 	0.80030 0.89970 0.38240 -0.16700
C 	C 	0.91630 0.92410 0.40400 0.07800
H 	H 	0.91100 0.95960 0.43630 0.02800
C 	C 	0.03930 0.89490 0.37700 -0.12600
C 	C 	0.05080 0.84020 0.33030 0.01800
H 	H 	0.13400 0.81690 0.31670 0.03700
C 	C 	0.16870 0.91210 0.40070 0.34900
C 	C 	0.66690 0.93050 0.41180 0.52400
C 	C 	0.48270 0.89330 0.58520 0.36800
C 	C 	0.46300 0.83780 0.64480 -0.09200
C 	C 	0.38700 0.77620 0.63640 0.02300
H 	H 	0.35030 0.76920 0.59700 0.03300
C 	C 	0.36840 0.72380 0.69250 -0.13100
H 	H 	0.31590 0.68360 0.69170 0.07400
C 	C 	0.43270 0.73850 0.74490 0.08600
C 	C 	0.50280 0.79710 0.75230 -0.13100
H 	H 	0.53540 0.80450 0.79270 0.06600
C 	C 	0.52950 0.85050 0.69710 0.02500
H 	H 	0.58630 0.88890 0.69850 0.03200
C 	C 	0.41990 0.68120 0.80010 -0.05600
C 	C 	0.29310 0.65400 0.82270 0.01300
H 	H 	0.21880 0.66460 0.79980 0.01900
C 	C 	0.28200 0.60900 0.88290 -0.14100
C 	C 	0.39390 0.58720 0.91020 0.06300
H 	H 	0.38710 0.55410 0.94580 0.03400
C 	C 	0.52030 0.61250 0.88710 -0.12900
C 	C 	0.52960 0.66010 0.83090 0.01900
H 	H 	0.61300 0.67720 0.81460 0.01100
C 	C 	0.65000 0.58360 0.91650 0.41900
C 	C 	0.14800 0.58440 0.91300 0.39500
O 	O 	0.65090 0.53370 0.94810 -0.42900
O 	O 	0.74350 0.62950 0.91260 -0.48100
O 	O 	0.13880 0.54800 0.96410 -0.49700
O 	O 	0.04200 0.60820 0.88770 -0.45900
O 	O 	0.40520 0.88820 0.54110 -0.43100
O 	O 	0.57820 0.93090 0.59280 -0.42400
O 	O 	0.16920 0.96500 0.44150 -0.37500
O 	O 	0.27920 0.88940 0.38150 -0.36900
O 	O 	0.67500 0.96650 0.45790 -0.51400
O 	O 	0.56760 0.90870 0.39560 -0.47400
O 	O 	0.88780 0.61190 0.05360 -0.42700
O 	O 	0.05410 0.54910 0.10300 -0.42900
Na	Na	0.10710 0.27920 0.12090 0.56500
Cd	Cd	0.11334 0.45214 0.03936 1.23900
Cd	Cd	0.61070 0.04020 0.54510 1.25600
C 	C 	0.03600 0.40290 0.89930 0.36500
C 	C 	0.04300 0.34360 0.84660 -0.12300
C 	C 	0.95680 0.34870 0.79850 0.06200
H 	H 	0.89310 0.38760 0.79850 0.02100
C 	C 	0.96440 0.29550 0.74930 -0.15000
H 	H 	0.90780 0.30100 0.71600 0.08500
C 	C 	0.05010 0.23760 0.74890 0.09700
C 	C 	0.13740 0.23190 0.79890 -0.13900
H 	H 	0.20210 0.19340 0.79740 0.09000
C 	C 	0.13080 0.28160 0.85030 0.04900
H 	H 	0.18220 0.27400 0.88550 0.03100
C 	C 	0.06540 0.17930 0.69570 -0.06000
C 	C 	0.18870 0.15080 0.66960 0.04100
H 	H 	0.26610 0.16490 0.68620 0.03400
C 	C 	0.19970 0.10030 0.61760 -0.16700
C 	C 	0.08370 0.07590 0.59600 0.07800
H 	H 	0.08900 0.04040 0.56370 0.02800
C 	C 	0.96070 0.10510 0.62300 -0.12600
C 	C 	0.94920 0.15980 0.66970 0.01800
H 	H 	0.86600 0.18310 0.68330 0.03700
C 	C 	0.83130 0.08790 0.59930 0.34900
C 	C 	0.33310 0.06950 0.58820 0.52400
C 	C 	0.51730 0.10670 0.41480 0.36800
C 	C 	0.53700 0.16220 0.35520 -0.09200
C 	C 	0.61300 0.22380 0.36360 0.02300
H 	H 	0.64970 0.23080 0.40300 0.03300
C 	C 	0.63160 0.27620 0.30750 -0.13100
H 	H 	0.68410 0.31640 0.30830 0.07400
C 	C 	0.56730 0.26150 0.25510 0.08600
C 	C 	0.49720 0.20290 0.24770 -0.13100
H 	H 	0.46460 0.19550 0.20730 0.06600
C 	C 	0.47050 0.14950 0.30290 0.02500
H 	H 	0.41370 0.11110 0.30150 0.03200
C 	C 	0.58010 0.31880 0.19990 -0.05600
C 	C 	0.70690 0.34600 0.17730 0.01300
H 	H 	0.78120 0.33540 0.20020 0.01900
C 	C 	0.71800 0.39100 0.11710 -0.14100
C 	C 	0.60610 0.41280 0.08980 0.06300
H 	H 	0.61290 0.44590 0.05420 0.03400
C 	C 	0.47970 0.38750 0.11290 -0.12900
C 	C 	0.47040 0.33990 0.16910 0.01900
H 	H 	0.38700 0.32280 0.18540 0.01100
C 	C 	0.35000 0.41640 0.08350 0.41900
C 	C 	0.85200 0.41560 0.08700 0.39500
O 	O 	0.34910 0.46630 0.05190 -0.42900
O 	O 	0.25650 0.37050 0.08740 -0.48100
O 	O 	0.86120 0.45200 0.03590 -0.49700
O 	O 	0.95800 0.39180 0.11230 -0.45900
O 	O 	0.59480 0.11180 0.45890 -0.43100
O 	O 	0.42180 0.06910 0.40720 -0.42400
O 	O 	0.83080 0.03500 0.55850 -0.37500
O 	O 	0.72080 0.11060 0.61850 -0.36900
O 	O 	0.32500 0.03350 0.54210 -0.51400
O 	O 	0.43240 0.09130 0.60440 -0.47400
O 	O 	0.11220 0.38810 0.94640 -0.42700
O 	O 	0.94590 0.45090 0.89700 -0.42900
Cd	Cd	0.91568 0.96922 0.01845 1.11600
Cl	Cl	0.72950 0.88230 0.05250 -0.55500
N 	N 	0.90020 0.08350 0.06060 -0.33600
N 	N 	0.90190 0.03620 0.92190 -0.34400
N 	N 	0.00140 0.10660 0.36740 -0.09100
N 	N 	0.54000 0.33670 0.92320 -0.09800
C 	C 	0.46650 0.40010 0.89760 -0.37000
H 	H 	0.42830 0.38690 0.85850 0.14700
H 	H 	0.52710 0.43850 0.88670 0.15800
H 	H 	0.39580 0.41670 0.93080 0.15400
C 	C 	0.66180 0.34270 0.93350 0.07300
H 	H 	0.69610 0.38890 0.92870 0.02700
C 	C 	0.75270 0.28200 0.95240 -0.16400
H 	H 	0.83840 0.29010 0.96340 0.08700
C 	C 	0.70750 0.21520 0.95330 0.12700
C 	C 	0.55680 0.21190 0.95170 -0.17200
H 	H 	0.50980 0.17100 0.96580 0.11900
C 	C 	0.49700 0.27250 0.92840 0.09400
H 	H 	0.41310 0.26710 0.91410 0.02100
C 	C 	0.78660 0.14640 0.97260 -0.16100
C 	C 	0.81940 0.13660 0.03940 0.08100
C 	C 	0.77350 0.18860 0.09190 -0.09500
H 	H 	0.71960 0.23130 0.08920 0.06600
C 	C 	0.82930 0.15940 0.14640 -0.09800
H 	H 	0.81550 0.17810 0.18900 0.05400
C 	C 	0.91230 0.09550 0.12660 0.06400
C 	C 	0.82420 0.10370 0.91610 0.07200
C 	C 	0.79460 0.11680 0.84890 -0.07300
H 	H 	0.74300 0.15620 0.83390 0.06600
C 	C 	0.85480 0.06220 0.81170 -0.07600
H 	H 	0.85250 0.05740 0.76630 0.06900
C 	C 	0.92440 0.01170 0.85420 0.06600
C 	C 	0.99360 0.04930 0.16480 -0.15700
C 	C 	0.99420 0.07030 0.23730 0.12400
C 	C 	0.87940 0.07780 0.28050 -0.17200
H 	H 	0.79630 0.07090 0.26580 0.09500
C 	C 	0.88620 0.09580 0.34600 0.07900
H 	H 	0.80750 0.10020 0.37520 0.02000
C 	C 	0.12210 0.08150 0.26130 -0.17600
H 	H 	0.20340 0.07420 0.23450 0.08300
C 	C 	0.11640 0.10350 0.32510 0.07200
H 	H 	0.19530 0.11710 0.34050 0.01700
C 	C 	0.01100 0.12850 0.43760 -0.40400
H 	H 	0.93070 0.15670 0.45390 0.15700
H 	H 	0.02010 0.08560 0.46500 0.17800
H 	H 	0.08780 0.15730 0.43880 0.15900
Cd	Cd	0.08432 0.03078 0.98155 1.11600
Cl	Cl	0.27050 0.11770 0.94750 -0.55500
N 	N 	0.09980 0.91650 0.93940 -0.33600
N 	N 	0.09810 0.96380 0.07810 -0.34400
N 	N 	0.99860 0.89340 0.63260 -0.09100
N 	N 	0.46000 0.66330 0.07680 -0.09800
C 	C 	0.53350 0.59990 0.10240 -0.37000
H 	H 	0.57170 0.61310 0.14150 0.14700
H 	H 	0.47290 0.56150 0.11330 0.15800
H 	H 	0.60420 0.58330 0.06920 0.15400
C 	C 	0.33820 0.65730 0.06650 0.07300
H 	H 	0.30390 0.61110 0.07130 0.02700
C 	C 	0.24730 0.71800 0.04760 -0.16400
H 	H 	0.16160 0.70990 0.03660 0.08700
C 	C 	0.29250 0.78480 0.04670 0.12700
C 	C 	0.44320 0.78810 0.04830 -0.17200
H 	H 	0.49020 0.82900 0.03420 0.11900
C 	C 	0.50300 0.72750 0.07160 0.09400
H 	H 	0.58690 0.73290 0.08590 0.02100
C 	C 	0.21340 0.85360 0.02740 -0.16100
C 	C 	0.18060 0.86340 0.96060 0.08100
C 	C 	0.22650 0.81140 0.90810 -0.09500
H 	H 	0.28040 0.76870 0.91080 0.06600
C 	C 	0.17070 0.84060 0.85360 -0.09800
H 	H 	0.18450 0.82190 0.81100 0.05400
C 	C 	0.08770 0.90450 0.87340 0.06400
C 	C 	0.17580 0.89630 0.08390 0.07200
C 	C 	0.20540 0.88320 0.15110 -0.07300
H 	H 	0.25700 0.84380 0.16610 0.06600
C 	C 	0.14520 0.93780 0.18830 -0.07600
H 	H 	0.14750 0.94260 0.23370 0.06900
C 	C 	0.07560 0.98830 0.14580 0.06600
C 	C 	0.00640 0.95070 0.83520 -0.15700
C 	C 	0.00580 0.92970 0.76270 0.12400
C 	C 	0.12060 0.92220 0.71950 -0.17200
H 	H 	0.20370 0.92910 0.73420 0.09500
C 	C 	0.11380 0.90420 0.65400 0.07900
H 	H 	0.19250 0.89980 0.62480 0.02000
C 	C 	0.87790 0.91850 0.73870 -0.17600
H 	H 	0.79660 0.92580 0.76550 0.08300
C 	C 	0.88360 0.89650 0.67490 0.07200
H 	H 	0.80470 0.88290 0.65950 0.01700
C 	C 	0.98900 0.87150 0.56240 -0.40400
H 	H 	0.06930 0.84330 0.54610 0.15700
H 	H 	0.97990 0.91440 0.53500 0.17800
H 	H 	0.91220 0.84270 0.56120 0.15900
