data_crystal

_cell_length_a 15.65300
_cell_length_b 16.07910
_cell_length_c 16.07910
_cell_angle_alpha 112.32300
_cell_angle_beta  90.81180
_cell_angle_gamma 90.81180

_symmetry_space_group_name_	'P 1'
_symmetry_space_group_name_H-M	'P 1'

loop_
_symmetry_equiv_pos_as_xyz
  x,y,z

loop_
_atom_site_label
_atom_site_type_symbol
_atom_site_fract_x
_atom_site_fract_y
_atom_site_fract_z
_atom_site_charge
Cu	Cu	0.06538 0.20490 0.71796 0.92500
Cu	Cu	0.43136 0.81254 0.34094 0.93500
Cu	Cu	0.43462 0.28204 0.79510 0.92600
Cu	Cu	0.06864 0.65906 0.18746 0.93500
Cu	Cu	0.93462 0.79510 0.28204 0.92500
Cu	Cu	0.56864 0.18746 0.65906 0.93500
Cu	Cu	0.56538 0.71796 0.20490 0.92600
Cu	Cu	0.93136 0.34094 0.81254 0.93500
Cu	Cu	0.25000 0.77131 0.22869 0.93500
Cu	Cu	0.75000 0.22869 0.77131 0.93500
H 	H 	0.15860 0.15600 0.09220 0.04100
H 	H 	0.10420 0.15750 0.95710 0.07700
H 	H 	0.05630 0.42150 0.08550 0.08300
H 	H 	0.12170 0.41690 0.21490 0.03700
H 	H 	0.77360 0.89690 0.71070 0.03300
H 	H 	0.85720 0.01930 0.71650 0.08600
H 	H 	0.06440 0.89020 0.75780 0.10200
H 	H 	0.97580 0.77180 0.75080 0.03400
H 	H 	0.77840 0.40930 0.45950 0.03200
H 	H 	0.85070 0.41300 0.58840 0.08800
H 	H 	0.88750 0.14410 0.46410 0.06900
H 	H 	0.80830 0.14760 0.34000 0.03800
H 	H 	0.33160 0.54070 0.71830 0.03600
H 	H 	0.26290 0.41810 0.73290 0.07400
H 	H 	0.03640 0.53680 0.73020 0.08100
H 	H 	0.11120 0.65360 0.71140 0.04100
H 	H 	0.03770 0.07900 0.52900 0.02300
H 	H 	0.10600 0.96390 0.41930 0.08900
H 	H 	0.32410 0.03770 0.56810 0.08100
H 	H 	0.24960 0.15090 0.67650 0.02000
H 	H 	0.34140 0.90780 0.84400 0.04100
H 	H 	0.39580 0.04290 0.84250 0.07900
H 	H 	0.44370 0.91450 0.57850 0.08200
H 	H 	0.37830 0.78510 0.58310 0.03700
H 	H 	0.72640 0.28930 0.10310 0.03300
H 	H 	0.64280 0.28350 0.98070 0.08400
H 	H 	0.43560 0.24220 0.10980 0.10300
H 	H 	0.52420 0.24920 0.22820 0.03400
H 	H 	0.72160 0.54050 0.59070 0.03200
H 	H 	0.64930 0.41160 0.58700 0.08800
H 	H 	0.61250 0.53590 0.85590 0.06800
H 	H 	0.69170 0.66000 0.85240 0.03800
H 	H 	0.16840 0.28170 0.45930 0.03600
H 	H 	0.23710 0.26710 0.58190 0.07400
H 	H 	0.46360 0.26980 0.46320 0.08200
H 	H 	0.38880 0.28860 0.34640 0.04100
H 	H 	0.46230 0.47100 0.92100 0.02500
H 	H 	0.39400 0.58070 0.03610 0.08500
H 	H 	0.17590 0.43190 0.96230 0.07900
H 	H 	0.25040 0.32350 0.84910 0.02100
H 	H 	0.84140 0.84400 0.90780 0.04100
H 	H 	0.89580 0.84250 0.04290 0.07700
H 	H 	0.94370 0.57850 0.91450 0.08300
H 	H 	0.87830 0.58310 0.78510 0.03700
H 	H 	0.22640 0.10310 0.28930 0.03300
H 	H 	0.14280 0.98070 0.28350 0.08600
H 	H 	0.93560 0.10980 0.24220 0.10200
H 	H 	0.02420 0.22820 0.24920 0.03400
H 	H 	0.22160 0.59070 0.54050 0.03200
H 	H 	0.14930 0.58700 0.41160 0.08800
H 	H 	0.11250 0.85590 0.53590 0.06900
H 	H 	0.19170 0.85240 0.66000 0.03800
H 	H 	0.66840 0.45930 0.28170 0.03600
H 	H 	0.73710 0.58190 0.26710 0.07400
H 	H 	0.96360 0.46320 0.26980 0.08100
H 	H 	0.88880 0.34640 0.28860 0.04100
H 	H 	0.96230 0.92100 0.47100 0.02300
H 	H 	0.89400 0.03610 0.58070 0.08900
H 	H 	0.67590 0.96230 0.43190 0.08100
H 	H 	0.75040 0.84910 0.32350 0.02000
H 	H 	0.65860 0.09220 0.15600 0.04100
H 	H 	0.60420 0.95710 0.15750 0.07900
H 	H 	0.55630 0.08550 0.42150 0.08200
H 	H 	0.62170 0.21490 0.41690 0.03700
H 	H 	0.27360 0.71070 0.89690 0.03300
H 	H 	0.35720 0.71650 0.01930 0.08400
H 	H 	0.56440 0.75780 0.89020 0.10300
H 	H 	0.47580 0.75080 0.77180 0.03400
H 	H 	0.27840 0.45950 0.40930 0.03200
H 	H 	0.35070 0.58840 0.41300 0.08800
H 	H 	0.38750 0.46410 0.14410 0.06800
H 	H 	0.30830 0.34000 0.14760 0.03800
H 	H 	0.83160 0.71830 0.54070 0.03600
H 	H 	0.76290 0.73290 0.41810 0.07400
H 	H 	0.53640 0.73020 0.53680 0.08200
H 	H 	0.61120 0.71140 0.65360 0.04100
H 	H 	0.53770 0.52900 0.07900 0.02500
H 	H 	0.60600 0.41930 0.96390 0.08500
H 	H 	0.82410 0.56810 0.03770 0.07900
H 	H 	0.74960 0.67650 0.15090 0.02100
Rh	Rh	0.20934 0.28449 0.27735 0.93300
Rh	Rh	0.29066 0.72265 0.71551 0.93300
Rh	Rh	0.79066 0.71551 0.72265 0.93300
Rh	Rh	0.70934 0.27735 0.28449 0.93300
C 	C 	0.14040 0.21120 0.09000 0.05000
C 	C 	0.10690 0.21130 0.00930 -0.04600
C 	C 	0.07750 0.29120 0.00640 -0.02700
C 	C 	0.08000 0.36720 0.08460 -0.05400
C 	C 	0.11740 0.36350 0.16210 0.04500
C 	C 	0.04510 0.29400 0.92020 0.33000
C 	C 	0.83370 0.89570 0.71950 0.05800
C 	C 	0.88290 0.96880 0.72280 -0.07800
C 	C 	0.97100 0.96710 0.73530 -0.00200
C 	C 	0.00480 0.89240 0.74700 -0.07800
C 	C 	0.95180 0.82220 0.74300 0.06400
C 	C 	0.03120 0.04230 0.73530 0.29600
C 	C 	0.79900 0.35470 0.46170 0.05800
C 	C 	0.84190 0.35750 0.53870 -0.06000
C 	C 	0.87210 0.27730 0.54210 -0.02400
C 	C 	0.86320 0.19850 0.46590 -0.05300
C 	C 	0.81720 0.20160 0.39140 0.04300
C 	C 	0.91190 0.27810 0.62830 0.32200
C 	C 	0.27110 0.54010 0.72150 0.05000
C 	C 	0.23050 0.46650 0.73010 -0.05600
C 	C 	0.14310 0.46440 0.73460 -0.02900
C 	C 	0.09710 0.53630 0.72790 -0.05000
C 	C 	0.14210 0.60600 0.71800 0.05100
C 	C 	0.09360 0.39100 0.75060 0.34200
C 	C 	0.09650 0.07000 0.53760 0.05200
C 	C 	0.13690 0.00140 0.47180 -0.08400
C 	C 	0.22120 0.98730 0.48210 -0.00800
C 	C 	0.26490 0.04470 0.55950 -0.07500
C 	C 	0.21980 0.11240 0.62380 0.06400
C 	C 	0.26850 0.91040 0.41340 0.32100
C 	C 	0.35960 0.91000 0.78880 0.05100
C 	C 	0.39310 0.99070 0.78870 -0.04700
C 	C 	0.42250 0.99360 0.70880 -0.02900
C 	C 	0.42000 0.91540 0.63280 -0.05300
C 	C 	0.38260 0.83790 0.63650 0.04400
C 	C 	0.45490 0.07980 0.70600 0.33500
C 	C 	0.66630 0.28050 0.10430 0.05700
C 	C 	0.61710 0.27720 0.03120 -0.07400
C 	C 	0.52900 0.26470 0.03290 -0.00300
C 	C 	0.49520 0.25300 0.10760 -0.08200
C 	C 	0.54820 0.25700 0.17780 0.06700
C 	C 	0.46880 0.26470 0.95770 0.30200
C 	C 	0.70100 0.53830 0.64530 0.05800
C 	C 	0.65810 0.46130 0.64250 -0.05900
C 	C 	0.62790 0.45790 0.72270 -0.02400
C 	C 	0.63680 0.53410 0.80150 -0.05300
C 	C 	0.68280 0.60860 0.79840 0.04300
C 	C 	0.58810 0.37170 0.72190 0.32300
C 	C 	0.22890 0.27850 0.45990 0.05000
C 	C 	0.26950 0.26990 0.53350 -0.05600
C 	C 	0.35690 0.26540 0.53560 -0.02900
C 	C 	0.40290 0.27210 0.46370 -0.05000
C 	C 	0.35790 0.28200 0.39400 0.05100
C 	C 	0.40640 0.24940 0.60900 0.34200
C 	C 	0.40350 0.46240 0.93000 0.04800
C 	C 	0.36310 0.52820 0.99860 -0.07600
C 	C 	0.27880 0.51790 0.01270 -0.01400
C 	C 	0.23510 0.44050 0.95530 -0.07100
C 	C 	0.28020 0.37620 0.88760 0.06200
C 	C 	0.23150 0.58660 0.08960 0.32300
C 	C 	0.85960 0.78880 0.91000 0.05000
C 	C 	0.89310 0.78870 0.99070 -0.04600
C 	C 	0.92250 0.70880 0.99360 -0.02700
C 	C 	0.92000 0.63280 0.91540 -0.05400
C 	C 	0.88260 0.63650 0.83790 0.04500
C 	C 	0.95490 0.70600 0.07980 0.33000
C 	C 	0.16630 0.10430 0.28050 0.05800
C 	C 	0.11710 0.03120 0.27720 -0.07800
C 	C 	0.02900 0.03290 0.26470 -0.00200
C 	C 	0.99520 0.10760 0.25300 -0.07800
C 	C 	0.04820 0.17780 0.25700 0.06400
C 	C 	0.96880 0.95770 0.26470 0.29600
C 	C 	0.20100 0.64530 0.53830 0.05800
C 	C 	0.15810 0.64250 0.46130 -0.06000
C 	C 	0.12790 0.72270 0.45790 -0.02400
C 	C 	0.13680 0.80150 0.53410 -0.05300
C 	C 	0.18280 0.79840 0.60860 0.04300
C 	C 	0.08810 0.72190 0.37170 0.32200
C 	C 	0.72890 0.45990 0.27850 0.05000
C 	C 	0.76950 0.53350 0.26990 -0.05600
C 	C 	0.85690 0.53560 0.26540 -0.02900
C 	C 	0.90290 0.46370 0.27210 -0.05000
C 	C 	0.85790 0.39400 0.28200 0.05100
C 	C 	0.90640 0.60900 0.24940 0.34200
C 	C 	0.90350 0.93000 0.46240 0.05200
C 	C 	0.86310 0.99860 0.52820 -0.08400
C 	C 	0.77880 0.01270 0.51790 -0.00800
C 	C 	0.73510 0.95530 0.44050 -0.07500
C 	C 	0.78020 0.88760 0.37620 0.06400
C 	C 	0.73150 0.08960 0.58660 0.32100
C 	C 	0.64040 0.09000 0.21120 0.05100
C 	C 	0.60690 0.00930 0.21130 -0.04700
C 	C 	0.57750 0.00640 0.29120 -0.02900
C 	C 	0.58000 0.08460 0.36720 -0.05300
C 	C 	0.61740 0.16210 0.36350 0.04400
C 	C 	0.54510 0.92020 0.29400 0.33500
C 	C 	0.33370 0.71950 0.89570 0.05700
C 	C 	0.38290 0.72280 0.96880 -0.07400
C 	C 	0.47100 0.73530 0.96710 -0.00300
C 	C 	0.50480 0.74700 0.89240 -0.08200
C 	C 	0.45180 0.74300 0.82220 0.06700
C 	C 	0.53120 0.73530 0.04230 0.30200
C 	C 	0.29900 0.46170 0.35470 0.05800
C 	C 	0.34190 0.53870 0.35750 -0.05900
C 	C 	0.37210 0.54210 0.27730 -0.02400
C 	C 	0.36320 0.46590 0.19850 -0.05300
C 	C 	0.31720 0.39140 0.20160 0.04300
C 	C 	0.41190 0.62830 0.27810 0.32300
C 	C 	0.77110 0.72150 0.54010 0.05000
C 	C 	0.73050 0.73010 0.46650 -0.05600
C 	C 	0.64310 0.73460 0.46440 -0.02900
C 	C 	0.59710 0.72790 0.53630 -0.05000
C 	C 	0.64210 0.71800 0.60600 0.05100
C 	C 	0.59360 0.75060 0.39100 0.34200
C 	C 	0.59650 0.53760 0.07000 0.04800
C 	C 	0.63690 0.47180 0.00140 -0.07600
C 	C 	0.72120 0.48210 0.98730 -0.01400
C 	C 	0.76490 0.55950 0.04470 -0.07100
C 	C 	0.71980 0.62380 0.11240 0.06200
C 	C 	0.76850 0.41340 0.91040 0.32300
N 	N 	0.14790 0.28580 0.16460 -0.18800
N 	N 	0.86710 0.82240 0.72840 -0.19200
N 	N 	0.78540 0.27880 0.39060 -0.18800
N 	N 	0.22870 0.60990 0.71750 -0.18800
N 	N 	0.13740 0.12600 0.61520 -0.19600
N 	N 	0.35210 0.83540 0.71420 -0.18800
N 	N 	0.63290 0.27160 0.17760 -0.19200
N 	N 	0.71460 0.60940 0.72120 -0.18800
N 	N 	0.27130 0.28250 0.39010 -0.18800
N 	N 	0.36260 0.38480 0.87400 -0.19500
N 	N 	0.85210 0.71420 0.83540 -0.18800
N 	N 	0.13290 0.17760 0.27160 -0.19200
N 	N 	0.21460 0.72120 0.60940 -0.18800
N 	N 	0.77130 0.39010 0.28250 -0.18800
N 	N 	0.86260 0.87400 0.38480 -0.19600
N 	N 	0.64790 0.16460 0.28580 -0.18800
N 	N 	0.36710 0.72840 0.82240 -0.19200
N 	N 	0.28540 0.39060 0.27880 -0.18800
N 	N 	0.72870 0.71750 0.60990 -0.18800
N 	N 	0.63740 0.61520 0.12600 -0.19500
Cl	Cl	0.30879 0.18507 0.18893 -0.43100
Cl	Cl	0.11059 0.38511 0.36833 -0.43200
Cl	Cl	0.19121 0.81107 0.81493 -0.43100
Cl	Cl	0.38941 0.63167 0.61489 -0.43200
Cl	Cl	0.69121 0.81493 0.81107 -0.43100
Cl	Cl	0.88941 0.61489 0.63167 -0.43200
Cl	Cl	0.80879 0.18893 0.18507 -0.43100
Cl	Cl	0.61059 0.36833 0.38511 -0.43200
O 	O 	0.98630 0.34810 0.92470 -0.36400
O 	O 	0.07980 0.24210 0.84970 -0.39000
O 	O 	0.99540 0.10300 0.71420 -0.35800
O 	O 	0.10690 0.03770 0.75050 -0.25900
O 	O 	0.88280 0.33610 0.69870 -0.39500
O 	O 	0.96860 0.22170 0.62350 -0.35800
O 	O 	0.12520 0.31380 0.72020 -0.39500
O 	O 	0.02620 0.41430 0.79310 -0.38600
O 	O 	0.34020 0.89140 0.43520 -0.34500
O 	O 	0.22680 0.87270 0.33950 -0.38500
O 	O 	0.36620 0.80570 0.23210 -0.39800
O 	O 	0.51370 0.07530 0.65190 -0.36800
O 	O 	0.42020 0.15030 0.75790 -0.39100
O 	O 	0.50460 0.28580 0.89700 -0.36300
O 	O 	0.39310 0.24950 0.96230 -0.26000
O 	O 	0.61720 0.30130 0.66390 -0.39600
O 	O 	0.53140 0.37650 0.77830 -0.36000
O 	O 	0.37480 0.27980 0.68620 -0.39500
O 	O 	0.47380 0.20690 0.58570 -0.38500
O 	O 	0.15980 0.56480 0.10860 -0.34500
O 	O 	0.27320 0.66050 0.12730 -0.38500
O 	O 	0.13380 0.76790 0.19430 -0.39700
O 	O 	0.01370 0.65190 0.07530 -0.36400
O 	O 	0.92020 0.75790 0.15030 -0.39000
O 	O 	0.00460 0.89700 0.28580 -0.35800
O 	O 	0.89310 0.96230 0.24950 -0.25900
O 	O 	0.11720 0.66390 0.30130 -0.39500
O 	O 	0.03140 0.77830 0.37650 -0.35800
O 	O 	0.87480 0.68620 0.27980 -0.39500
O 	O 	0.97380 0.58570 0.20690 -0.38600
O 	O 	0.65980 0.10860 0.56480 -0.34500
O 	O 	0.77320 0.12730 0.66050 -0.38500
O 	O 	0.63380 0.19430 0.76790 -0.39800
O 	O 	0.48630 0.92470 0.34810 -0.36800
O 	O 	0.57980 0.84970 0.24210 -0.39100
O 	O 	0.49540 0.71420 0.10300 -0.36300
O 	O 	0.60690 0.75050 0.03770 -0.26000
O 	O 	0.38280 0.69870 0.33610 -0.39600
O 	O 	0.46860 0.62350 0.22170 -0.36000
O 	O 	0.62520 0.72020 0.31380 -0.39500
O 	O 	0.52620 0.79310 0.41430 -0.38500
O 	O 	0.84020 0.43520 0.89140 -0.34500
O 	O 	0.72680 0.33950 0.87270 -0.38500
O 	O 	0.86620 0.23210 0.80570 -0.39700
