data_crystal

_cell_length_a 11.86800
_cell_length_b 13.03000
_cell_length_c 7.71130
_cell_angle_alpha 105.95600
_cell_angle_beta  94.95100
_cell_angle_gamma 91.58400

_symmetry_space_group_name_	'P 1'
_symmetry_space_group_name_H-M	'P 1'

loop_
_symmetry_equiv_pos_as_xyz
  x,y,z

loop_
_atom_site_label
_atom_site_type_symbol
_atom_site_fract_x
_atom_site_fract_y
_atom_site_fract_z
_atom_site_charge
Cd	Cd	0.24562 0.19412 0.11275 1.16400
N 	N 	0.14840 0.09020 0.27510 -0.18900
N 	N 	0.13240 0.12710 0.84310 -0.18400
N 	N 	0.35890 0.30310 0.98790 -0.17500
N 	N 	0.42420 0.60070 0.36570 -0.06800
N 	N 	0.12060 0.32620 0.22730 -0.27600
N 	N 	0.33970 0.29210 0.39270 -0.28400
N 	N 	0.35030 0.04390 0.02020 -0.32300
C 	C 	0.09360 0.05570 0.36140 -0.31500
C 	C 	0.08180 0.08090 0.71150 -0.30600
C 	C 	0.41210 0.37660 0.98850 -0.21700
C 	C 	0.45460 0.56280 0.22980 -0.27800
C 	C 	0.18270 0.40530 0.39060 -0.07800
C 	C 	0.26400 0.36170 0.49320 -0.02900
C 	C 	0.47400 0.05210 0.04080 -0.19600
H 	H 	0.05252 0.29329 0.26347 0.02700
H 	H 	0.09641 0.36291 0.13330 0.02200
H 	H 	0.11952 0.44306 0.48070 0.01100
H 	H 	0.22691 0.46635 0.34335 0.01700
H 	H 	0.21766 0.31684 0.56896 0.00400
H 	H 	0.31469 0.42870 0.58903 0.01400
H 	H 	0.40556 0.33503 0.37135 0.06300
H 	H 	0.36727 0.24178 0.46224 0.05500
H 	H 	0.32700 0.01191 0.88809 0.06200
H 	H 	0.32709 0.99327 0.08902 0.08200
H 	H 	0.50267 0.11132 0.97410 0.05800
H 	H 	0.50299 0.07918 0.18623 0.02000
Cd	Cd	0.75438 0.80588 0.88725 1.19200
N 	N 	0.85160 0.90980 0.72490 -0.17400
N 	N 	0.86760 0.87290 0.15690 -0.20700
N 	N 	0.64110 0.69690 0.01210 -0.18900
N 	N 	0.57580 0.39930 0.63430 -0.07200
N 	N 	0.87940 0.67380 0.77270 -0.27700
N 	N 	0.66030 0.70790 0.60730 -0.28100
N 	N 	0.64970 0.95610 0.97980 -0.25700
C 	C 	0.90640 0.94430 0.63860 -0.17300
C 	C 	0.91820 0.91910 0.28850 -0.18400
C 	C 	0.58790 0.62340 0.01150 -0.26400
C 	C 	0.54540 0.43720 0.77020 -0.23900
C 	C 	0.81730 0.59470 0.60940 -0.07400
C 	C 	0.73600 0.63830 0.50680 -0.02400
C 	C 	0.52600 0.94790 0.95920 0.11800
H 	H 	0.94748 0.70671 0.73653 0.07600
H 	H 	0.90359 0.63709 0.86670 0.07600
H 	H 	0.88048 0.55694 0.51930 0.04000
H 	H 	0.77309 0.53365 0.65665 0.03500
H 	H 	0.78234 0.68316 0.43104 0.01000
H 	H 	0.68531 0.57130 0.41097 0.01300
H 	H 	0.59444 0.66497 0.62865 0.07400
H 	H 	0.63273 0.75822 0.53776 0.06300
H 	H 	0.67300 0.98809 0.11191 0.04400
H 	H 	0.67291 0.00673 0.91098 0.02400
H 	H 	0.49733 0.88868 0.02590 -0.04700
H 	H 	0.49701 0.92082 0.81377 -0.01400
Ni	Ni	-0.00000 0.00000 0.50000 0.99500
Ni	Ni	0.50000 0.50000 -0.00000 1.03500
