data_crystal

_cell_length_a 23.69650
_cell_length_b 23.69650
_cell_length_c 13.54370
_cell_angle_alpha 90.00000
_cell_angle_beta  90.00000
_cell_angle_gamma 120.00000

_symmetry_space_group_name_	'P 1'
_symmetry_space_group_name_H-M	'P 1'

loop_
_symmetry_equiv_pos_as_xyz
  x,y,z

loop_
_atom_site_label
_atom_site_type_symbol
_atom_site_fract_x
_atom_site_fract_y
_atom_site_fract_z
_atom_site_charge
Fe	Fe	0.36123 0.09308 0.11893 1.24300
Ga	Ga	0.34990 0.24363 0.91668 2.05200
P 	P 	0.41936 0.23695 0.12064 0.56300
P 	P 	0.32701 0.98661 0.27598 0.62100
O 	O 	0.36890 0.21180 0.03800 -0.65500
O 	O 	0.42340 0.17680 0.15680 -0.43700
O 	O 	0.39160 0.25980 0.20710 -0.64100
O 	O 	0.48470 0.29080 0.09140 -0.26600
O 	O 	0.37620 0.04500 0.21270 -0.48700
O 	O 	0.36610 0.95710 0.32280 -0.44500
O 	O 	0.27160 0.93610 0.21560 -0.58100
O 	O 	0.30030 0.00970 0.35930 -0.64500
N 	N 	0.44440 0.27770 0.86940 -0.41200
N 	N 	0.33350 0.15680 0.85270 -0.26300
N 	N 	0.25140 0.18880 0.94260 -0.39500
C 	C 	0.44830 0.22050 0.82800 -0.02200
C 	C 	0.38520 0.17440 0.77950 -0.08600
C 	C 	0.26610 0.12360 0.81860 -0.08200
C 	C 	0.22470 0.12080 0.90490 -0.05600
H 	H 	0.47620 0.29130 0.92040 0.12100
H 	H 	0.45760 0.31240 0.82500 0.11900
H 	H 	0.22470 0.20600 0.90940 0.10700
H 	H 	0.24870 0.18300 0.01420 0.08800
H 	H 	0.45120 0.19710 0.89350 0.02500
H 	H 	0.38890 0.13120 0.76340 0.07000
H 	H 	0.37990 0.20900 0.72430 0.04000
H 	H 	0.26420 0.14860 0.75130 0.04600
H 	H 	0.24240 0.07560 0.78960 0.05800
H 	H 	0.17460 0.09780 0.87880 0.06100
H 	H 	0.22290 0.09420 0.97320 0.05100
Ga	Ga	0.30544 0.24025 0.21440 2.06400
Fe	Fe	0.02790 0.42641 0.45226 1.24100
Ga	Ga	0.01657 0.57696 0.25001 2.05300
P 	P 	0.08603 0.57028 0.45397 0.56200
P 	P 	0.99368 0.31994 0.60931 0.60200
O 	O 	0.03557 0.54513 0.37133 -0.66200
O 	O 	0.09007 0.51013 0.49013 -0.44000
O 	O 	0.05827 0.59313 0.54043 -0.64000
O 	O 	0.15137 0.62413 0.42473 -0.27400
O 	O 	0.04287 0.37833 0.54603 -0.47800
O 	O 	0.03277 0.29043 0.65613 -0.43900
O 	O 	0.93827 0.26943 0.54893 -0.58100
O 	O 	0.96697 0.34303 0.69263 -0.64000
N 	N 	0.11107 0.61103 0.20273 -0.41200
N 	N 	0.00017 0.49013 0.18603 -0.25700
N 	N 	0.91807 0.52213 0.27593 -0.38600
C 	C 	0.11497 0.55383 0.16133 -0.01900
C 	C 	0.05187 0.50773 0.11283 -0.08600
C 	C 	0.93277 0.45693 0.15193 -0.08700
C 	C 	0.89137 0.45413 0.23823 -0.05600
H 	H 	0.14287 0.62463 0.25373 0.12600
H 	H 	0.12427 0.64573 0.15833 0.12100
H 	H 	0.89137 0.53933 0.24273 0.10800
H 	H 	0.91537 0.51633 0.34753 0.07500
H 	H 	0.11787 0.53043 0.22683 0.02700
H 	H 	0.05557 0.46453 0.09673 0.07400
H 	H 	0.04657 0.54233 0.05763 0.04500
H 	H 	0.93087 0.48193 0.08463 0.05100
H 	H 	0.90907 0.40893 0.12293 0.06500
H 	H 	0.84127 0.43113 0.21213 0.06600
H 	H 	0.88957 0.42753 0.30653 0.05800
Ga	Ga	0.97210 0.57359 0.54774 2.06300
Fe	Fe	0.69456 0.75975 0.78560 1.23800
Ga	Ga	0.68323 0.91030 0.58335 2.05200
P 	P 	0.75269 0.90362 0.78731 0.56200
P 	P 	0.66034 0.65328 0.94265 0.60100
O 	O 	0.70223 0.87847 0.70467 -0.66400
O 	O 	0.75673 0.84347 0.82347 -0.44200
O 	O 	0.72493 0.92647 0.87377 -0.64400
O 	O 	0.81803 0.95747 0.75807 -0.27200
O 	O 	0.70953 0.71167 0.87937 -0.48400
O 	O 	0.69943 0.62377 0.98947 -0.45400
O 	O 	0.60493 0.60277 0.88227 -0.58200
O 	O 	0.63363 0.67637 0.02597 -0.62600
N 	N 	0.77773 0.94437 0.53607 -0.41200
N 	N 	0.66683 0.82347 0.51937 -0.26100
N 	N 	0.58473 0.85547 0.60927 -0.38400
C 	C 	0.78163 0.88717 0.49467 -0.02100
C 	C 	0.71853 0.84107 0.44617 -0.08600
C 	C 	0.59943 0.79027 0.48527 -0.08100
C 	C 	0.55803 0.78747 0.57157 -0.05700
H 	H 	0.80953 0.95797 0.58707 0.12700
H 	H 	0.79093 0.97907 0.49167 0.12200
H 	H 	0.55803 0.87267 0.57607 0.10800
H 	H 	0.58203 0.84967 0.68087 0.07600
H 	H 	0.78453 0.86377 0.56017 0.02800
H 	H 	0.72223 0.79787 0.43007 0.07000
H 	H 	0.71323 0.87567 0.39097 0.04000
H 	H 	0.59753 0.81527 0.41797 0.04600
H 	H 	0.57573 0.74227 0.45627 0.06000
H 	H 	0.50793 0.76447 0.54547 0.06500
H 	H 	0.55623 0.76087 0.63987 0.05900
Ga	Ga	0.63877 0.90692 0.88107 2.06300
Fe	Fe	0.90692 0.26815 0.11893 1.24300
Ga	Ga	0.75637 0.10627 0.91668 2.05100
P 	P 	0.76305 0.18241 0.12064 0.56200
P 	P 	0.01339 0.34040 0.27598 0.62000
O 	O 	0.78820 0.15710 0.03800 -0.65400
O 	O 	0.82320 0.24660 0.15680 -0.43800
O 	O 	0.74020 0.13180 0.20710 -0.64300
O 	O 	0.70920 0.19390 0.09140 -0.26700
O 	O 	0.95500 0.33120 0.21270 -0.48600
O 	O 	0.04290 0.40900 0.32280 -0.44500
O 	O 	0.06390 0.33550 0.21560 -0.58100
O 	O 	0.99030 0.29060 0.35930 -0.64400
N 	N 	0.72230 0.16670 0.86940 -0.41200
N 	N 	0.84320 0.17670 0.85270 -0.26300
N 	N 	0.81120 0.06260 0.94260 -0.39800
C 	C 	0.77950 0.22780 0.82800 -0.02200
C 	C 	0.82560 0.21080 0.77950 -0.08600
C 	C 	0.87640 0.14250 0.81860 -0.08200
C 	C 	0.87920 0.10390 0.90490 -0.05600
H 	H 	0.70870 0.18490 0.92040 0.12100
H 	H 	0.68760 0.14520 0.82500 0.11900
H 	H 	0.79400 0.01870 0.90940 0.10400
H 	H 	0.81700 0.06570 0.01420 0.09000
H 	H 	0.80290 0.25410 0.89350 0.02400
H 	H 	0.86880 0.25770 0.76340 0.07000
H 	H 	0.79100 0.17090 0.72430 0.04000
H 	H 	0.85140 0.11560 0.75130 0.04500
H 	H 	0.92440 0.16680 0.78960 0.05800
H 	H 	0.90220 0.07680 0.87880 0.05900
H 	H 	0.90580 0.12870 0.97320 0.04900
Ga	Ga	0.75975 0.06518 0.21440 2.06400
Fe	Fe	0.57359 0.60148 0.45226 1.23800
Ga	Ga	0.42304 0.43960 0.25001 2.05200
P 	P 	0.42972 0.51574 0.45397 0.56200
P 	P 	0.68006 0.67373 0.60931 0.61200
O 	O 	0.45487 0.49043 0.37133 -0.66400
O 	O 	0.48987 0.57993 0.49013 -0.44000
O 	O 	0.40687 0.46513 0.54043 -0.64300
O 	O 	0.37587 0.52723 0.42473 -0.27400
O 	O 	0.62167 0.66453 0.54603 -0.48300
O 	O 	0.70957 0.74233 0.65613 -0.44500
O 	O 	0.73057 0.66883 0.54893 -0.58200
O 	O 	0.65697 0.62393 0.69263 -0.63900
N 	N 	0.38897 0.50003 0.20273 -0.41200
N 	N 	0.50987 0.51003 0.18603 -0.26000
N 	N 	0.47787 0.39593 0.27593 -0.38400
C 	C 	0.44617 0.56113 0.16133 -0.01900
C 	C 	0.49227 0.54413 0.11283 -0.08600
C 	C 	0.54307 0.47583 0.15193 -0.08200
C 	C 	0.54587 0.43723 0.23823 -0.05700
H 	H 	0.37537 0.51823 0.25373 0.12600
H 	H 	0.35427 0.47853 0.15833 0.12100
H 	H 	0.46067 0.35203 0.24273 0.10900
H 	H 	0.48367 0.39903 0.34753 0.07600
H 	H 	0.46957 0.58743 0.22683 0.02700
H 	H 	0.53547 0.59103 0.09673 0.07300
H 	H 	0.45767 0.50423 0.05763 0.04400
H 	H 	0.51807 0.44893 0.08463 0.05000
H 	H 	0.59107 0.50013 0.12293 0.06400
H 	H 	0.56887 0.41013 0.21213 0.06600
H 	H 	0.57247 0.46203 0.30653 0.05900
Ga	Ga	0.42641 0.39852 0.54774 2.06400
Fe	Fe	0.24025 0.93482 0.78560 1.23900
Ga	Ga	0.08970 0.77294 0.58335 2.05200
P 	P 	0.09638 0.84908 0.78731 0.56200
P 	P 	0.34672 0.00707 0.94265 0.59000
O 	O 	0.12153 0.82377 0.70467 -0.66400
O 	O 	0.15653 0.91327 0.82347 -0.44000
O 	O 	0.07353 0.79847 0.87377 -0.64300
O 	O 	0.04253 0.86057 0.75807 -0.27000
O 	O 	0.28833 0.99787 0.87937 -0.47500
O 	O 	0.37623 0.07567 0.98947 -0.45400
O 	O 	0.39723 0.00217 0.88227 -0.58500
O 	O 	0.32363 0.95727 0.02597 -0.62200
N 	N 	0.05563 0.83337 0.53607 -0.41300
N 	N 	0.17653 0.84337 0.51937 -0.26100
N 	N 	0.14453 0.72927 0.60927 -0.38400
C 	C 	0.11283 0.89447 0.49467 -0.01800
C 	C 	0.15893 0.87747 0.44617 -0.08700
C 	C 	0.20973 0.80917 0.48527 -0.08100
C 	C 	0.21253 0.77057 0.57157 -0.05700
H 	H 	0.04203 0.85157 0.58707 0.12800
H 	H 	0.02093 0.81187 0.49167 0.12300
H 	H 	0.12733 0.68537 0.57607 0.10800
H 	H 	0.15033 0.73237 0.68087 0.07600
H 	H 	0.13623 0.92077 0.56017 0.02900
H 	H 	0.20213 0.92437 0.43007 0.07200
H 	H 	0.12433 0.83757 0.39097 0.04000
H 	H 	0.18473 0.78227 0.41797 0.04600
H 	H 	0.25773 0.83347 0.45627 0.06000
H 	H 	0.23553 0.74347 0.54547 0.06400
H 	H 	0.23913 0.79537 0.63987 0.05900
Ga	Ga	0.09308 0.73185 0.88107 2.06300
Fe	Fe	0.73185 0.63877 0.11893 1.24200
Ga	Ga	0.89373 0.65010 0.91668 2.05100
P 	P 	0.81759 0.58064 0.12064 0.56200
P 	P 	0.65960 0.67299 0.27598 0.61200
O 	O 	0.84290 0.63110 0.03800 -0.65500
O 	O 	0.75340 0.57660 0.15680 -0.43800
O 	O 	0.86820 0.60840 0.20710 -0.64300
O 	O 	0.80610 0.51530 0.09140 -0.26700
O 	O 	0.66880 0.62380 0.21270 -0.48200
O 	O 	0.59100 0.63390 0.32280 -0.44500
O 	O 	0.66450 0.72840 0.21560 -0.58100
O 	O 	0.70940 0.69970 0.35930 -0.63900
N 	N 	0.83330 0.55560 0.86940 -0.41200
N 	N 	0.82330 0.66650 0.85270 -0.26300
N 	N 	0.93740 0.74860 0.94260 -0.39500
C 	C 	0.77220 0.55170 0.82800 -0.02200
C 	C 	0.78920 0.61480 0.77950 -0.08600
C 	C 	0.85750 0.73390 0.81860 -0.08200
C 	C 	0.89610 0.77530 0.90490 -0.05700
H 	H 	0.81510 0.52380 0.92040 0.12100
H 	H 	0.85480 0.54240 0.82500 0.11900
H 	H 	0.98130 0.77530 0.90940 0.10400
H 	H 	0.93430 0.75130 0.01420 0.08800
H 	H 	0.74590 0.54880 0.89350 0.02500
H 	H 	0.74230 0.61110 0.76340 0.07000
H 	H 	0.82910 0.62010 0.72430 0.04000
H 	H 	0.88440 0.73580 0.75130 0.04500
H 	H 	0.83320 0.75760 0.78960 0.06000
H 	H 	0.92320 0.82540 0.87880 0.06100
H 	H 	0.87130 0.77710 0.97320 0.05200
Ga	Ga	0.93482 0.69456 0.21440 2.06400
Fe	Fe	0.39852 0.97210 0.45226 1.24100
Ga	Ga	0.56040 0.98343 0.25001 2.05300
P 	P 	0.48426 0.91397 0.45397 0.56200
P 	P 	0.32627 0.00632 0.60931 0.60200
O 	O 	0.50957 0.96443 0.37133 -0.66200
O 	O 	0.42007 0.90993 0.49013 -0.44000
O 	O 	0.53487 0.94173 0.54043 -0.64000
O 	O 	0.47277 0.84863 0.42473 -0.27400
O 	O 	0.33547 0.95713 0.54603 -0.47800
O 	O 	0.25767 0.96723 0.65613 -0.43900
O 	O 	0.33117 0.06173 0.54893 -0.58100
O 	O 	0.37607 0.03303 0.69263 -0.64000
N 	N 	0.49997 0.88893 0.20273 -0.41200
N 	N 	0.48997 0.99983 0.18603 -0.25700
N 	N 	0.60407 0.08193 0.27593 -0.38500
C 	C 	0.43887 0.88503 0.16133 -0.01900
C 	C 	0.45587 0.94813 0.11283 -0.08600
C 	C 	0.52417 0.06723 0.15193 -0.08700
C 	C 	0.56277 0.10863 0.23823 -0.05600
H 	H 	0.48177 0.85713 0.25373 0.12600
H 	H 	0.52147 0.87573 0.15833 0.12100
H 	H 	0.64797 0.10863 0.24273 0.10800
H 	H 	0.60097 0.08463 0.34753 0.07500
H 	H 	0.41257 0.88213 0.22683 0.02700
H 	H 	0.40897 0.94443 0.09673 0.07400
H 	H 	0.49577 0.95343 0.05763 0.04500
H 	H 	0.55107 0.06913 0.08463 0.05100
H 	H 	0.49987 0.09093 0.12293 0.06500
H 	H 	0.58987 0.15873 0.21213 0.06600
H 	H 	0.53797 0.11043 0.30653 0.05800
Ga	Ga	0.60148 0.02790 0.54774 2.06300
Fe	Fe	0.06518 0.30544 0.78560 1.23900
Ga	Ga	0.22706 0.31677 0.58335 2.05200
P 	P 	0.15092 0.24731 0.78731 0.56200
P 	P 	0.99293 0.33966 0.94265 0.58900
O 	O 	0.17623 0.29777 0.70467 -0.66400
O 	O 	0.08673 0.24327 0.82347 -0.44100
O 	O 	0.20153 0.27507 0.87377 -0.64700
O 	O 	0.13943 0.18197 0.75807 -0.27500
O 	O 	0.00213 0.29047 0.87937 -0.47500
O 	O 	0.92433 0.30057 0.98947 -0.45500
O 	O 	0.99783 0.39507 0.88227 -0.58500
O 	O 	0.04273 0.36637 0.02597 -0.62100
N 	N 	0.16663 0.22227 0.53607 -0.41200
N 	N 	0.15663 0.33317 0.51937 -0.26100
N 	N 	0.27073 0.41527 0.60927 -0.38400
C 	C 	0.10553 0.21837 0.49467 -0.02000
C 	C 	0.12253 0.28147 0.44617 -0.08700
C 	C 	0.19083 0.40057 0.48527 -0.08100
C 	C 	0.22943 0.44197 0.57157 -0.05700
H 	H 	0.14843 0.19047 0.58707 0.12600
H 	H 	0.18813 0.20907 0.49167 0.12000
H 	H 	0.31463 0.44197 0.57607 0.10800
H 	H 	0.26763 0.41797 0.68087 0.07600
H 	H 	0.07923 0.21547 0.56017 0.02900
H 	H 	0.07563 0.27777 0.43007 0.07200
H 	H 	0.16243 0.28677 0.39097 0.04000
H 	H 	0.21773 0.40247 0.41797 0.04600
H 	H 	0.16653 0.42427 0.45627 0.06000
H 	H 	0.25653 0.49207 0.54547 0.06500
H 	H 	0.20463 0.44377 0.63987 0.05900
Ga	Ga	0.26815 0.36123 0.88107 2.06300
Ga	Ga	0.65010 0.75637 0.08332 2.05500
P 	P 	0.58064 0.76305 0.87936 0.56000
P 	P 	0.67299 0.01339 0.72402 0.63800
O 	O 	0.63110 0.78820 0.96200 -0.68100
O 	O 	0.57660 0.82320 0.84320 -0.61700
O 	O 	0.60840 0.74020 0.79290 -0.46700
O 	O 	0.51530 0.70920 0.90860 -0.28000
O 	O 	0.62380 0.95500 0.78730 -0.66500
O 	O 	0.63390 0.04290 0.67720 -0.62500
O 	O 	0.72840 0.06390 0.78440 -0.59900
O 	O 	0.69970 0.99030 0.64070 -0.66700
N 	N 	0.55560 0.72230 0.13060 -0.41200
N 	N 	0.66650 0.84320 0.14730 -0.26400
N 	N 	0.74860 0.81120 0.05740 -0.37400
C 	C 	0.55170 0.77950 0.17200 -0.01900
C 	C 	0.61480 0.82560 0.22050 -0.08800
C 	C 	0.73390 0.87640 0.18140 -0.07500
C 	C 	0.77530 0.87920 0.09510 -0.06300
H 	H 	0.52380 0.70870 0.07960 0.12900
H 	H 	0.54240 0.68760 0.17500 0.12000
H 	H 	0.77530 0.79400 0.09060 0.11400
H 	H 	0.75130 0.81700 0.98580 0.07700
H 	H 	0.54880 0.80290 0.10650 0.02500
H 	H 	0.61110 0.86880 0.23660 0.07000
H 	H 	0.62010 0.79100 0.27570 0.04100
H 	H 	0.73580 0.85140 0.24870 0.04400
H 	H 	0.75760 0.92440 0.21040 0.04600
H 	H 	0.82540 0.90220 0.12120 0.06700
H 	H 	0.77710 0.90580 0.02680 0.06300
Ga	Ga	0.31677 0.08970 0.41665 2.05300
P 	P 	0.24731 0.09638 0.21269 0.56100
P 	P 	0.33966 0.34672 0.05735 0.66000
O 	O 	0.29777 0.12153 0.29533 -0.67300
O 	O 	0.24327 0.15653 0.17653 -0.61300
O 	O 	0.27507 0.07353 0.12623 -0.46400
O 	O 	0.18197 0.04253 0.24193 -0.27500
O 	O 	0.29047 0.28833 0.12063 -0.67000
O 	O 	0.30057 0.37623 0.01053 -0.61700
O 	O 	0.39507 0.39723 0.11773 -0.59800
O 	O 	0.36637 0.32363 0.97403 -0.68800
N 	N 	0.22227 0.05563 0.46393 -0.41200
N 	N 	0.33317 0.17653 0.48063 -0.26600
N 	N 	0.41527 0.14453 0.39073 -0.38400
C 	C 	0.21837 0.11283 0.50533 -0.02000
C 	C 	0.28147 0.15893 0.55383 -0.08800
C 	C 	0.40057 0.20973 0.51473 -0.07700
C 	C 	0.44197 0.21253 0.42843 -0.06200
H 	H 	0.19047 0.04203 0.41293 0.12400
H 	H 	0.20907 0.02093 0.50833 0.11700
H 	H 	0.44197 0.12733 0.42393 0.11300
H 	H 	0.41797 0.15033 0.31913 0.08800
H 	H 	0.21547 0.13623 0.43983 0.02300
H 	H 	0.27777 0.20213 0.56993 0.06900
H 	H 	0.28677 0.12433 0.60903 0.04000
H 	H 	0.40247 0.18473 0.58203 0.04400
H 	H 	0.42427 0.25773 0.54373 0.04500
H 	H 	0.49207 0.23553 0.45453 0.06400
H 	H 	0.44377 0.23913 0.36013 0.05600
Ga	Ga	0.98343 0.42304 0.74999 2.05300
P 	P 	0.91397 0.42972 0.54603 0.56100
P 	P 	0.00632 0.68006 0.39069 0.65800
O 	O 	0.96443 0.45487 0.62867 -0.67500
O 	O 	0.90993 0.48987 0.50987 -0.61600
O 	O 	0.94173 0.40687 0.45957 -0.46900
O 	O 	0.84863 0.37587 0.57527 -0.27500
O 	O 	0.95713 0.62167 0.45397 -0.67600
O 	O 	0.96723 0.70957 0.34387 -0.62900
O 	O 	0.06173 0.73057 0.45107 -0.59900
O 	O 	0.03303 0.65697 0.30737 -0.67400
N 	N 	0.88893 0.38897 0.79727 -0.41200
N 	N 	0.99983 0.50987 0.81397 -0.27100
N 	N 	0.08193 0.47787 0.72407 -0.38200
C 	C 	0.88503 0.44617 0.83867 -0.02300
C 	C 	0.94813 0.49227 0.88717 -0.08800
C 	C 	0.06723 0.54307 0.84807 -0.06800
C 	C 	0.10863 0.54587 0.76177 -0.06400
H 	H 	0.85713 0.37537 0.74627 0.12500
H 	H 	0.87573 0.35427 0.84167 0.11800
H 	H 	0.10863 0.46067 0.75727 0.11300
H 	H 	0.08463 0.48367 0.65247 0.08900
H 	H 	0.88213 0.46957 0.77317 0.02300
H 	H 	0.94443 0.53547 0.90327 0.06500
H 	H 	0.95343 0.45767 0.94237 0.03400
H 	H 	0.06913 0.51807 0.91537 0.04100
H 	H 	0.09093 0.59107 0.87707 0.04100
H 	H 	0.15873 0.56887 0.78787 0.06300
H 	H 	0.11043 0.57247 0.69347 0.05700
Ga	Ga	0.24363 0.89373 0.08332 2.05400
P 	P 	0.23695 0.81759 0.87936 0.56100
P 	P 	0.98661 0.65960 0.72402 0.63800
O 	O 	0.21180 0.84290 0.96200 -0.67900
O 	O 	0.17680 0.75340 0.84320 -0.61700
O 	O 	0.25980 0.86820 0.79290 -0.46600
O 	O 	0.29080 0.80610 0.90860 -0.27900
O 	O 	0.04500 0.66880 0.78730 -0.66500
O 	O 	0.95710 0.59100 0.67720 -0.62500
O 	O 	0.93610 0.66450 0.78440 -0.59900
O 	O 	0.00970 0.70940 0.64070 -0.66700
N 	N 	0.27770 0.83330 0.13060 -0.41200
N 	N 	0.15680 0.82330 0.14730 -0.26400
N 	N 	0.18880 0.93740 0.05740 -0.37700
C 	C 	0.22050 0.77220 0.17200 -0.01900
C 	C 	0.17440 0.78920 0.22050 -0.08800
C 	C 	0.12360 0.85750 0.18140 -0.07600
C 	C 	0.12080 0.89610 0.09510 -0.06200
H 	H 	0.29130 0.81510 0.07960 0.12900
H 	H 	0.31240 0.85480 0.17500 0.12000
H 	H 	0.20600 0.98130 0.09060 0.11600
H 	H 	0.18300 0.93430 0.98580 0.08100
H 	H 	0.19710 0.74590 0.10650 0.02400
H 	H 	0.13120 0.74230 0.23660 0.07000
H 	H 	0.20900 0.82910 0.27570 0.04100
H 	H 	0.14860 0.88440 0.24870 0.04500
H 	H 	0.07560 0.83320 0.21040 0.04600
H 	H 	0.09780 0.92320 0.12120 0.06800
H 	H 	0.09420 0.87130 0.02680 0.06200
Ga	Ga	0.91030 0.22706 0.41665 2.05300
P 	P 	0.90362 0.15092 0.21269 0.56100
P 	P 	0.65328 0.99293 0.05735 0.66800
O 	O 	0.87847 0.17623 0.29533 -0.67300
O 	O 	0.84347 0.08673 0.17653 -0.61400
O 	O 	0.92647 0.20153 0.12623 -0.46300
O 	O 	0.95747 0.13943 0.24193 -0.27600
O 	O 	0.71167 0.00213 0.12063 -0.67400
O 	O 	0.62377 0.92433 0.01053 -0.61800
O 	O 	0.60277 0.99783 0.11773 -0.59600
O 	O 	0.67637 0.04273 0.97403 -0.69500
N 	N 	0.94437 0.16663 0.46393 -0.41200
N 	N 	0.82347 0.15663 0.48063 -0.26600
N 	N 	0.85547 0.27073 0.39073 -0.38400
C 	C 	0.88717 0.10553 0.50533 -0.02200
C 	C 	0.84107 0.12253 0.55383 -0.08700
C 	C 	0.79027 0.19083 0.51473 -0.07700
C 	C 	0.78747 0.22943 0.42843 -0.06200
H 	H 	0.95797 0.14843 0.41293 0.12300
H 	H 	0.97907 0.18813 0.50833 0.11600
H 	H 	0.87267 0.31463 0.42393 0.11300
H 	H 	0.84967 0.26763 0.31913 0.08800
H 	H 	0.86377 0.07923 0.43983 0.02200
H 	H 	0.79787 0.07563 0.56993 0.06700
H 	H 	0.87567 0.16243 0.60903 0.04000
H 	H 	0.81527 0.21773 0.58203 0.04400
H 	H 	0.74227 0.16653 0.54373 0.04400
H 	H 	0.76447 0.25653 0.45453 0.06400
H 	H 	0.76087 0.20463 0.36013 0.05600
Ga	Ga	0.57696 0.56040 0.74999 2.05300
P 	P 	0.57028 0.48426 0.54603 0.56100
P 	P 	0.31994 0.32627 0.39069 0.64900
O 	O 	0.54513 0.50957 0.62867 -0.67200
O 	O 	0.51013 0.42007 0.50987 -0.61500
O 	O 	0.59313 0.53487 0.45957 -0.46600
O 	O 	0.62413 0.47277 0.57527 -0.27500
O 	O 	0.37833 0.33547 0.45397 -0.67000
O 	O 	0.29043 0.25767 0.34387 -0.62400
O 	O 	0.26943 0.33117 0.45107 -0.59800
O 	O 	0.34303 0.37607 0.30737 -0.67500
N 	N 	0.61103 0.49997 0.79727 -0.41200
N 	N 	0.49013 0.48997 0.81397 -0.26600
N 	N 	0.52213 0.60407 0.72407 -0.38400
C 	C 	0.55383 0.43887 0.83867 -0.02200
C 	C 	0.50773 0.45587 0.88717 -0.08800
C 	C 	0.45693 0.52417 0.84807 -0.07500
C 	C 	0.45413 0.56277 0.76177 -0.06300
H 	H 	0.62463 0.48177 0.74627 0.12500
H 	H 	0.64573 0.52147 0.84167 0.11800
H 	H 	0.53933 0.64797 0.75727 0.11300
H 	H 	0.51633 0.60097 0.65247 0.08800
H 	H 	0.53043 0.41257 0.77317 0.02300
H 	H 	0.46453 0.40897 0.90327 0.06700
H 	H 	0.54233 0.49577 0.94237 0.03600
H 	H 	0.48193 0.55107 0.91537 0.04000
H 	H 	0.40893 0.49987 0.87707 0.04100
H 	H 	0.43113 0.58987 0.78787 0.06300
H 	H 	0.42753 0.53797 0.69347 0.05600
Ga	Ga	0.10627 0.34990 0.08332 2.05500
P 	P 	0.18241 0.41936 0.87936 0.56100
P 	P 	0.34040 0.32701 0.72402 0.64900
O 	O 	0.15710 0.36890 0.96200 -0.68000
O 	O 	0.24660 0.42340 0.84320 -0.61700
O 	O 	0.13180 0.39160 0.79290 -0.46600
O 	O 	0.19390 0.48470 0.90860 -0.28000
O 	O 	0.33120 0.37620 0.78730 -0.67200
O 	O 	0.40900 0.36610 0.67720 -0.62400
O 	O 	0.33550 0.27160 0.78440 -0.59900
O 	O 	0.29060 0.30030 0.64070 -0.67500
N 	N 	0.16670 0.44440 0.13060 -0.41200
N 	N 	0.17670 0.33350 0.14730 -0.26400
N 	N 	0.06260 0.25140 0.05740 -0.37500
C 	C 	0.22780 0.44830 0.17200 -0.01900
C 	C 	0.21080 0.38520 0.22050 -0.08800
C 	C 	0.14250 0.26610 0.18140 -0.07600
C 	C 	0.10390 0.22470 0.09510 -0.06300
H 	H 	0.18490 0.47620 0.07960 0.12900
H 	H 	0.14520 0.45760 0.17500 0.12000
H 	H 	0.01870 0.22470 0.09060 0.11600
H 	H 	0.06570 0.24870 0.98580 0.07800
H 	H 	0.25410 0.45120 0.10650 0.02500
H 	H 	0.25770 0.38890 0.23660 0.06900
H 	H 	0.17090 0.37990 0.27570 0.04100
H 	H 	0.11560 0.26420 0.24870 0.04500
H 	H 	0.16680 0.24240 0.21040 0.04500
H 	H 	0.07680 0.17460 0.12120 0.06700
H 	H 	0.12870 0.22290 0.02680 0.06200
Ga	Ga	0.77294 0.68323 0.41665 2.05300
P 	P 	0.84908 0.75269 0.21269 0.56100
P 	P 	0.00707 0.66034 0.05735 0.66700
O 	O 	0.82377 0.70223 0.29533 -0.67200
O 	O 	0.91327 0.75673 0.17653 -0.61400
O 	O 	0.79847 0.72493 0.12623 -0.46300
O 	O 	0.86057 0.81803 0.24193 -0.27300
O 	O 	0.99787 0.70953 0.12063 -0.67400
O 	O 	0.07567 0.69943 0.01053 -0.61900
O 	O 	0.00217 0.60493 0.11773 -0.59600
O 	O 	0.95727 0.63363 0.97403 -0.69300
N 	N 	0.83337 0.77773 0.46393 -0.41200
N 	N 	0.84337 0.66683 0.48063 -0.26600
N 	N 	0.72927 0.58473 0.39073 -0.38400
C 	C 	0.89447 0.78163 0.50533 -0.02100
C 	C 	0.87747 0.71853 0.55383 -0.08700
C 	C 	0.80917 0.59943 0.51473 -0.07700
C 	C 	0.77057 0.55803 0.42843 -0.06200
H 	H 	0.85157 0.80953 0.41293 0.12500
H 	H 	0.81187 0.79093 0.50833 0.11900
H 	H 	0.68537 0.55803 0.42393 0.11300
H 	H 	0.73237 0.58203 0.31913 0.08900
H 	H 	0.92077 0.78453 0.43983 0.02200
H 	H 	0.92437 0.72223 0.56993 0.06700
H 	H 	0.83757 0.71323 0.60903 0.04100
H 	H 	0.78227 0.59753 0.58203 0.04400
H 	H 	0.83347 0.57573 0.54373 0.04400
H 	H 	0.74347 0.50793 0.45453 0.06400
H 	H 	0.79537 0.55623 0.36013 0.05600
Ga	Ga	0.43960 0.01657 0.74999 2.05300
P 	P 	0.51574 0.08603 0.54603 0.56100
P 	P 	0.67373 0.99368 0.39069 0.65800
O 	O 	0.49043 0.03557 0.62867 -0.67500
O 	O 	0.57993 0.09007 0.50987 -0.61600
O 	O 	0.46513 0.05827 0.45957 -0.46900
O 	O 	0.52723 0.15137 0.57527 -0.27500
O 	O 	0.66453 0.04287 0.45397 -0.67600
O 	O 	0.74233 0.03277 0.34387 -0.62900
O 	O 	0.66883 0.93827 0.45107 -0.59900
O 	O 	0.62393 0.96697 0.30737 -0.67400
N 	N 	0.50003 0.11107 0.79727 -0.41200
N 	N 	0.51003 0.00017 0.81397 -0.27100
N 	N 	0.39593 0.91807 0.72407 -0.38200
C 	C 	0.56113 0.11497 0.83867 -0.02300
C 	C 	0.54413 0.05187 0.88717 -0.08800
C 	C 	0.47583 0.93277 0.84807 -0.06800
C 	C 	0.43723 0.89137 0.76177 -0.06400
H 	H 	0.51823 0.14287 0.74627 0.12500
H 	H 	0.47853 0.12427 0.84167 0.11800
H 	H 	0.35203 0.89137 0.75727 0.11300
H 	H 	0.39903 0.91537 0.65247 0.08900
H 	H 	0.58743 0.11787 0.77317 0.02300
H 	H 	0.59103 0.05557 0.90327 0.06500
H 	H 	0.50423 0.04657 0.94237 0.03400
H 	H 	0.44893 0.93087 0.91537 0.04100
H 	H 	0.50013 0.90907 0.87707 0.04000
H 	H 	0.41013 0.84127 0.78787 0.06300
H 	H 	0.46203 0.88957 0.69347 0.05700
