data_crystal

_cell_length_a 10.07140
_cell_length_b 11.19630
_cell_length_c 18.94200
_cell_angle_alpha 99.98660
_cell_angle_beta  90.00000
_cell_angle_gamma 116.72900

_symmetry_space_group_name_	'P 1'
_symmetry_space_group_name_H-M	'P 1'

loop_
_symmetry_equiv_pos_as_xyz
  x,y,z

loop_
_atom_site_label
_atom_site_type_symbol
_atom_site_fract_x
_atom_site_fract_y
_atom_site_fract_z
_atom_site_charge
Cd	Cd	0.45623 0.81026 0.97412 1.20700
Cd	Cd	0.64597 0.18974 0.52588 1.23000
Cd	Cd	0.54377 0.18974 0.02588 1.24600
Cd	Cd	0.35403 0.81026 0.47412 1.22600
Cd	Cd	0.50000 0.50000 1.00000 1.18000
Cd	Cd	-0.00000 0.50000 0.50000 1.19000
H 	H 	0.33570 0.34760 0.84370 -0.04400
H 	H 	0.20280 0.15400 0.75740 0.10300
H 	H 	0.82910 0.12540 0.64110 0.01600
H 	H 	0.04380 0.35980 0.65960 0.07500
H 	H 	0.18350 0.04860 0.63010 0.05000
H 	H 	0.17160 0.54860 0.74890 -0.00800
H 	H 	0.79690 0.78240 0.51680 0.04500
H 	H 	0.98810 0.65240 0.65630 -0.00700
H 	H 	0.04880 0.84600 0.74260 0.04100
H 	H 	0.70370 0.87460 0.85890 0.02800
H 	H 	0.68400 0.64020 0.84040 0.05300
H 	H 	0.13490 0.95140 0.86990 0.04800
H 	H 	0.62300 0.45140 0.75110 0.01600
H 	H 	0.01450 0.21760 0.98320 -0.01200
H 	H 	0.66430 0.65240 0.15630 -0.03300
H 	H 	0.79720 0.84600 0.24260 0.09400
H 	H 	0.17090 0.87460 0.35890 0.03000
H 	H 	0.95620 0.64020 0.34040 0.08100
H 	H 	0.81650 0.95140 0.36990 0.03000
H 	H 	0.82840 0.45140 0.25110 0.00900
H 	H 	0.20310 0.21760 0.48320 0.03200
H 	H 	0.01190 0.34760 0.34370 -0.06100
H 	H 	0.95120 0.15400 0.25740 0.13500
H 	H 	0.29630 0.12540 0.14110 0.02500
H 	H 	0.31600 0.35980 0.15960 0.09500
H 	H 	0.86510 0.04860 0.13010 0.04500
H 	H 	0.37700 0.54860 0.24890 -0.00800
H 	H 	0.98550 0.78240 0.01680 0.09900
C 	C 	0.27480 0.34980 0.80750 0.13800
C 	C 	0.07010 0.81400 0.53630 0.32400
C 	C 	0.19580 0.23340 0.75520 -0.19800
C 	C 	0.87220 0.06960 0.62310 0.04300
C 	C 	0.78820 0.94780 0.57430 -0.12000
C 	C 	0.10010 0.35560 0.69720 -0.18700
C 	C 	0.10750 0.23440 0.70030 0.12600
C 	C 	0.08440 0.02380 0.61670 -0.01400
C 	C 	0.99950 0.90260 0.56820 -0.06300
C 	C 	0.02140 0.10780 0.64510 -0.07000
C 	C 	0.17790 0.46880 0.75070 0.11500
C 	C 	0.26460 0.46780 0.80680 -0.21400
C 	C 	0.34390 0.59000 0.86480 0.42300
C 	C 	0.85320 0.86460 0.54820 0.03700
C 	C 	0.63090 0.91040 0.54840 0.35100
C 	C 	0.92500 0.65020 0.69250 0.06100
C 	C 	0.25610 0.18600 0.96370 0.39300
C 	C 	0.96240 0.76660 0.74480 -0.08000
C 	C 	0.80260 0.93040 0.87690 -0.02300
C 	C 	0.84040 0.05220 0.92570 -0.12400
C 	C 	0.74450 0.64440 0.80280 -0.12500
C 	C 	0.87310 0.76560 0.79970 0.05400
C 	C 	0.06060 0.97620 0.88330 -0.05000
C 	C 	0.09690 0.09740 0.93180 -0.13900
C 	C 	0.91360 0.89220 0.85490 0.00300
C 	C 	0.70910 0.53120 0.74930 0.06200
C 	C 	0.79680 0.53220 0.69320 -0.15600
C 	C 	0.75390 0.41000 0.63520 0.40100
C 	C 	0.98860 0.13540 0.95180 0.11900
C 	C 	0.72050 0.08960 0.95160 0.35100
C 	C 	0.72520 0.65020 0.19250 0.12100
C 	C 	0.92990 0.18600 0.46370 0.44200
C 	C 	0.80420 0.76660 0.24480 -0.17600
C 	C 	0.12780 0.93040 0.37690 -0.03500
C 	C 	0.21180 0.05220 0.42570 -0.10200
C 	C 	0.89990 0.64440 0.30280 -0.16400
C 	C 	0.89250 0.76560 0.29970 0.11100
C 	C 	0.91560 0.97620 0.38330 0.04200
C 	C 	0.00050 0.09740 0.43180 -0.16400
C 	C 	0.97860 0.89220 0.35490 -0.02800
C 	C 	0.82210 0.53120 0.24930 0.10200
C 	C 	0.73540 0.53220 0.19320 -0.18800
C 	C 	0.65610 0.41000 0.13520 0.41100
C 	C 	0.14680 0.13540 0.45180 0.06800
C 	C 	0.36910 0.08960 0.45160 0.34400
C 	C 	0.07500 0.34980 0.30750 0.17400
C 	C 	0.74390 0.81400 0.03630 0.37000
C 	C 	0.03760 0.23340 0.25520 -0.25700
C 	C 	0.19740 0.06960 0.12310 0.00700
C 	C 	0.15960 0.94780 0.07430 -0.07600
C 	C 	0.25550 0.35560 0.19720 -0.20400
C 	C 	0.12690 0.23440 0.20030 0.15500
C 	C 	0.93940 0.02380 0.11670 0.01700
C 	C 	0.90310 0.90260 0.06820 -0.05200
C 	C 	0.08640 0.10780 0.14510 -0.06600
C 	C 	0.29090 0.46880 0.25070 0.13800
C 	C 	0.20320 0.46780 0.30680 -0.23000
C 	C 	0.24610 0.59000 0.36480 0.42800
C 	C 	0.01140 0.86460 0.04820 -0.04100
C 	C 	0.27950 0.91040 0.04840 0.33600
O 	O 	0.40220 0.58380 0.92050 -0.58400
O 	O 	0.34960 0.70060 0.85710 -0.41800
O 	O 	0.55750 0.79600 0.50870 -0.41900
O 	O 	0.57860 0.99240 0.56680 -0.48000
O 	O 	0.98410 0.69380 0.50790 -0.44100
O 	O 	0.21020 0.86940 0.54160 -0.46100
O 	O 	0.81840 0.41620 0.57950 -0.55400
O 	O 	0.64900 0.29940 0.64290 -0.39700
O 	O 	0.76150 0.20400 0.99130 -0.44100
O 	O 	0.58620 0.00760 0.93320 -0.48500
O 	O 	0.29030 0.30620 0.99210 -0.50200
O 	O 	0.34080 0.13060 0.95840 -0.49100
O 	O 	0.59780 0.41620 0.07950 -0.54100
O 	O 	0.65040 0.29940 0.14290 -0.39100
O 	O 	0.44250 0.20400 0.49130 -0.41600
O 	O 	0.42140 0.00760 0.43320 -0.46900
O 	O 	0.01590 0.30620 0.49210 -0.50400
O 	O 	0.78980 0.13060 0.45840 -0.47800
O 	O 	0.18160 0.58380 0.42050 -0.57300
O 	O 	0.35100 0.70060 0.35710 -0.40700
O 	O 	0.23850 0.79600 0.00870 -0.39000
O 	O 	0.41380 0.99240 0.06680 -0.45700
O 	O 	0.70970 0.69380 0.00790 -0.43900
O 	O 	0.65920 0.86940 0.04160 -0.43900
