data_crystal

_cell_length_a 13.14300
_cell_length_b 25.47200
_cell_length_c 25.47200
_cell_angle_alpha 120.00000
_cell_angle_beta  90.00000
_cell_angle_gamma 90.00000

_symmetry_space_group_name_	'P 1'
_symmetry_space_group_name_H-M	'P 1'

loop_
_symmetry_equiv_pos_as_xyz
  x,y,z

loop_
_atom_site_label
_atom_site_type_symbol
_atom_site_fract_x
_atom_site_fract_y
_atom_site_fract_z
_atom_site_charge
Co	Co	0.80881 0.61090 0.88745 1.14100
Co	Co	0.14214 0.27655 0.38910 1.13600
Co	Co	0.47548 0.11255 0.72345 1.13800
Co	Co	0.19119 0.72345 0.11255 1.13700
Co	Co	0.85786 0.88745 0.61090 1.14200
Co	Co	0.52452 0.38910 0.27655 1.13900
Co	Co	0.00000 0.68476 -0.00000 1.17900
Co	Co	0.33333 0.31524 0.31524 1.19700
Co	Co	0.66667 0.00000 0.68476 1.18800
H 	H 	0.59040 0.75980 0.01580 0.01200
H 	H 	0.53040 0.83940 0.10910 0.06800
H 	H 	0.76100 0.80560 0.19350 0.06900
H 	H 	0.82160 0.73070 0.10110 0.02000
H 	H 	0.79730 0.87150 0.43940 0.02000
H 	H 	0.75600 0.87770 0.35470 0.06600
H 	H 	0.49090 0.96060 0.43580 0.06900
H 	H 	0.53970 0.95800 0.52180 0.02600
H 	H 	0.28990 0.13010 0.37050 0.01500
H 	H 	0.37090 0.04460 0.35650 0.05100
H 	H 	0.54380 0.04120 0.22350 0.05600
H 	H 	0.45620 0.12530 0.23380 0.02800
H 	H 	0.65640 0.84510 0.27180 0.05300
H 	H 	0.52260 0.00710 0.37460 0.03500
H 	H 	0.54110 0.93500 0.19220 0.06200
H 	H 	0.92373 0.25600 0.24020 0.00800
H 	H 	0.86373 0.26970 0.16060 0.07900
H 	H 	0.09433 0.38790 0.19440 0.08000
H 	H 	0.15493 0.37040 0.26930 0.01000
H 	H 	0.13063 0.56790 0.12850 0.00300
H 	H 	0.08933 0.47700 0.12230 0.07600
H 	H 	0.82423 0.47520 0.03940 0.07300
H 	H 	0.87303 0.56380 0.04200 0.00300
H 	H 	0.62323 0.24040 0.86990 0.01100
H 	H 	0.70423 0.31190 0.95540 0.07200
H 	H 	0.87713 0.18230 0.95880 0.07800
H 	H 	0.78953 0.10850 0.87470 0.02400
H 	H 	0.98973 0.42670 0.15490 0.05500
H 	H 	0.85593 0.36750 0.99290 0.07600
H 	H 	0.87443 0.25720 0.06500 0.04700
H 	H 	0.25707 0.98420 0.74400 0.03900
H 	H 	0.19707 0.89090 0.73030 0.06100
H 	H 	0.42767 0.80650 0.61210 0.05900
H 	H 	0.48827 0.89890 0.62960 0.03600
H 	H 	0.46397 0.56060 0.43210 0.01900
H 	H 	0.42267 0.64530 0.52300 0.06200
H 	H 	0.15757 0.56420 0.52480 0.06100
H 	H 	0.20637 0.47820 0.43620 0.02200
H 	H 	0.95657 0.62950 0.75960 0.03700
H 	H 	0.03757 0.64350 0.68810 0.05100
H 	H 	0.21047 0.77650 0.81770 0.06600
H 	H 	0.12287 0.76620 0.89150 0.03000
H 	H 	0.32307 0.72820 0.57330 0.05700
H 	H 	0.18927 0.62540 0.63250 0.06100
H 	H 	0.20777 0.80780 0.74280 0.06200
H 	H 	0.40960 0.74400 0.98420 0.04100
H 	H 	0.46960 0.73030 0.89090 0.06300
H 	H 	0.23900 0.61210 0.80650 0.05800
H 	H 	0.17840 0.62960 0.89890 0.03500
H 	H 	0.20270 0.43210 0.56060 0.01600
H 	H 	0.24400 0.52300 0.64530 0.06200
H 	H 	0.50910 0.52480 0.56420 0.06400
H 	H 	0.46030 0.43620 0.47820 0.02400
H 	H 	0.71010 0.75960 0.62950 0.01800
H 	H 	0.62910 0.68810 0.64350 0.06200
H 	H 	0.45620 0.81770 0.77650 0.06700
H 	H 	0.54380 0.89150 0.76620 0.03300
H 	H 	0.34360 0.57330 0.72820 0.05700
H 	H 	0.47740 0.63250 0.62540 0.06100
H 	H 	0.45890 0.74280 0.80780 0.06200
H 	H 	0.07627 0.01580 0.75980 0.02400
H 	H 	0.13627 0.10910 0.83940 0.05600
H 	H 	0.90567 0.19350 0.80560 0.05600
H 	H 	0.84507 0.10110 0.73070 0.03100
H 	H 	0.86937 0.43940 0.87150 0.02900
H 	H 	0.91067 0.35470 0.87770 0.05400
H 	H 	0.17577 0.43580 0.96060 0.05900
H 	H 	0.12697 0.52180 0.95800 0.04000
H 	H 	0.37677 0.37050 0.13010 0.01800
H 	H 	0.29577 0.35650 0.04460 0.05000
H 	H 	0.12287 0.22350 0.04120 0.05000
H 	H 	0.21047 0.23380 0.12530 0.02700
H 	H 	0.01027 0.27180 0.84510 0.05400
H 	H 	0.14407 0.37460 0.00710 0.03700
H 	H 	0.12557 0.19220 0.93500 0.06700
H 	H 	0.74293 0.24020 0.25600 0.02500
H 	H 	0.80293 0.16060 0.26970 0.06500
H 	H 	0.57233 0.19440 0.38790 0.06400
H 	H 	0.51173 0.26930 0.37040 0.02700
H 	H 	0.53603 0.12850 0.56790 0.01700
H 	H 	0.57733 0.12230 0.47700 0.06000
H 	H 	0.84243 0.03940 0.47520 0.05900
H 	H 	0.79363 0.04200 0.56380 0.02000
H 	H 	0.04343 0.86990 0.24040 -0.01300
H 	H 	0.96243 0.95540 0.31190 0.08100
H 	H 	0.78953 0.95880 0.18230 0.07500
H 	H 	0.87713 0.87470 0.10850 0.02700
H 	H 	0.67693 0.15490 0.42670 0.05800
H 	H 	0.81073 0.99290 0.36750 0.08500
H 	H 	0.79223 0.06500 0.25720 0.05200
C 	C 	0.75290 0.69120 0.99010 0.38300
C 	C 	0.71120 0.73950 0.04950 -0.15900
C 	C 	0.62630 0.77010 0.05210 0.06600
C 	C 	0.58950 0.81750 0.10820 -0.12200
C 	C 	0.63930 0.83200 0.16150 0.05100
C 	C 	0.72650 0.79750 0.15740 -0.11600
C 	C 	0.76220 0.75270 0.10270 0.06000
C 	C 	0.70690 0.91500 0.54660 0.38900
C 	C 	0.67390 0.91560 0.49020 -0.13100
C 	C 	0.73580 0.89100 0.43910 0.05300
C 	C 	0.71110 0.89380 0.38840 -0.11800
C 	C 	0.61790 0.92080 0.38640 0.05600
C 	C 	0.55470 0.94340 0.43640 -0.11400
C 	C 	0.58360 0.94130 0.48760 0.05500
C 	C 	0.31150 0.19400 0.31390 0.40900
C 	C 	0.36710 0.13680 0.30280 -0.12600
C 	C 	0.34090 0.11170 0.34030 0.03300
C 	C 	0.39000 0.06130 0.33200 -0.10000
C 	C 	0.46660 0.03290 0.28960 0.01900
C 	C 	0.49130 0.05890 0.25300 -0.09600
C 	C 	0.44010 0.10960 0.25970 0.04000
C 	C 	0.60560 0.88160 0.21980 0.02000
C 	C 	0.62310 0.87960 0.27470 -0.08300
C 	C 	0.59310 0.92600 0.33200 0.01400
C 	C 	0.54320 0.97510 0.33590 -0.05600
C 	C 	0.55460 0.93210 0.22730 -0.09300
C 	C 	0.52150 0.97920 0.28320 0.04000
C 	C 	0.08623 0.29890 0.30880 0.37600
C 	C 	0.04453 0.31000 0.26050 -0.18500
C 	C 	0.95963 0.28200 0.22990 0.11100
C 	C 	0.92283 0.29070 0.18250 -0.15400
C 	C 	0.97263 0.32950 0.16800 0.09600
C 	C 	0.05983 0.35990 0.20250 -0.16500
C 	C 	0.09553 0.35000 0.24730 0.09000
C 	C 	0.04023 0.63160 0.08500 0.37700
C 	C 	0.00723 0.57460 0.08440 -0.18000
C 	C 	0.06913 0.54810 0.10900 0.08600
C 	C 	0.04443 0.49460 0.10620 -0.17200
C 	C 	0.95123 0.46560 0.07920 0.09000
C 	C 	0.88803 0.49300 0.05660 -0.15400
C 	C 	0.91693 0.54630 0.05870 0.10500
C 	C 	0.64483 0.11990 0.80600 0.41600
C 	C 	0.70043 0.16600 0.86320 -0.14000
C 	C 	0.67423 0.22860 0.88830 0.05900
C 	C 	0.72333 0.27070 0.93870 -0.13000
C 	C 	0.79993 0.25670 0.96710 0.07500
C 	C 	0.82463 0.19410 0.94110 -0.12100
C 	C 	0.77343 0.15010 0.89040 0.06400
C 	C 	0.93893 0.33820 0.11840 0.00000
C 	C 	0.95643 0.39510 0.12040 -0.07100
C 	C 	0.92643 0.40600 0.07400 0.01400
C 	C 	0.87653 0.36080 0.02490 -0.10200
C 	C 	0.88793 0.29520 0.06790 -0.06900
C 	C 	0.85483 0.30400 0.02080 0.00200
C 	C 	0.41957 0.00990 0.70110 0.33200
C 	C 	0.37787 0.95050 0.69000 -0.09500
C 	C 	0.29297 0.94790 0.71800 0.02700
C 	C 	0.25617 0.89180 0.70930 -0.09300
C 	C 	0.30597 0.83850 0.67050 0.03000
C 	C 	0.39317 0.84260 0.64010 -0.08900
C 	C 	0.42887 0.89730 0.65000 0.02300
C 	C 	0.37357 0.45340 0.36840 0.38800
C 	C 	0.34057 0.50980 0.42540 -0.13200
C 	C 	0.40247 0.56090 0.45190 0.04800
C 	C 	0.37777 0.61160 0.50540 -0.11400
C 	C 	0.28457 0.61360 0.53440 0.04300
C 	C 	0.22137 0.56360 0.50700 -0.11100
C 	C 	0.25027 0.51240 0.45370 0.04900
C 	C 	0.97817 0.68610 0.88010 0.43900
C 	C 	0.03377 0.69720 0.83400 -0.13500
C 	C 	0.00757 0.65970 0.77140 0.01100
C 	C 	0.05667 0.66800 0.72930 -0.09400
C 	C 	0.13327 0.71040 0.74330 0.03400
C 	C 	0.15797 0.74700 0.80590 -0.10100
C 	C 	0.10677 0.74030 0.84990 0.04900
C 	C 	0.27227 0.78020 0.66180 0.03200
C 	C 	0.28977 0.72530 0.60490 -0.09600
C 	C 	0.25977 0.66800 0.59400 0.03000
C 	C 	0.20987 0.66410 0.63920 -0.09600
C 	C 	0.22127 0.77270 0.70480 -0.09900
C 	C 	0.18817 0.71680 0.69600 0.03300
C 	C 	0.24710 0.70110 0.00990 0.33100
C 	C 	0.28880 0.69000 0.95050 -0.09300
C 	C 	0.37370 0.71800 0.94790 0.02700
C 	C 	0.41050 0.70930 0.89180 -0.09200
C 	C 	0.36070 0.67050 0.83850 0.03100
C 	C 	0.27350 0.64010 0.84260 -0.08800
C 	C 	0.23780 0.65000 0.89730 0.02300
C 	C 	0.29310 0.36840 0.45340 0.38900
C 	C 	0.32610 0.42540 0.50980 -0.13400
C 	C 	0.26420 0.45190 0.56090 0.04900
C 	C 	0.28890 0.50540 0.61160 -0.11600
C 	C 	0.38210 0.53440 0.61360 0.04500
C 	C 	0.44530 0.50700 0.56360 -0.11200
C 	C 	0.41640 0.45370 0.51240 0.05100
C 	C 	0.68850 0.88010 0.68610 0.40900
C 	C 	0.63290 0.83400 0.69720 -0.12500
C 	C 	0.65910 0.77140 0.65970 0.04200
C 	C 	0.61000 0.72930 0.66800 -0.10900
C 	C 	0.53340 0.74330 0.71040 0.04200
C 	C 	0.50870 0.80590 0.74700 -0.10200
C 	C 	0.55990 0.84990 0.74030 0.04800
C 	C 	0.39440 0.66180 0.78020 0.03200
C 	C 	0.37690 0.60490 0.72530 -0.09400
C 	C 	0.40690 0.59400 0.66800 0.03000
C 	C 	0.45680 0.63920 0.66410 -0.09300
C 	C 	0.44540 0.70480 0.77270 -0.09700
C 	C 	0.47850 0.69600 0.71680 0.03100
C 	C 	0.91377 0.99010 0.69120 0.37300
C 	C 	0.95547 0.04950 0.73950 -0.11800
C 	C 	0.04037 0.05210 0.77010 0.01600
C 	C 	0.07717 0.10820 0.81750 -0.08800
C 	C 	0.02737 0.16150 0.83200 0.00900
C 	C 	0.94017 0.15740 0.79750 -0.06900
C 	C 	0.90447 0.10270 0.75270 0.02400
C 	C 	0.95977 0.54660 0.91500 0.39600
C 	C 	0.99277 0.49020 0.91560 -0.09700
C 	C 	0.93087 0.43910 0.89100 0.02300
C 	C 	0.95557 0.38840 0.89380 -0.07500
C 	C 	0.04877 0.38640 0.92080 0.01700
C 	C 	0.11197 0.43640 0.94340 -0.08200
C 	C 	0.08307 0.48760 0.94130 0.01200
C 	C 	0.35517 0.31390 0.19400 0.40800
C 	C 	0.29957 0.30280 0.13680 -0.12300
C 	C 	0.32577 0.34030 0.11170 0.02900
C 	C 	0.27667 0.33200 0.06130 -0.09500
C 	C 	0.20007 0.28960 0.03290 0.01000
C 	C 	0.17537 0.25300 0.05890 -0.09200
C 	C 	0.22657 0.25970 0.10960 0.03500
C 	C 	0.06107 0.21980 0.88160 0.03900
C 	C 	0.04357 0.27470 0.87960 -0.10100
C 	C 	0.07357 0.33200 0.92600 0.03100
C 	C 	0.12347 0.33590 0.97510 -0.06800
C 	C 	0.11207 0.22730 0.93210 -0.10900
C 	C 	0.14517 0.28320 0.97920 0.05000
C 	C 	0.58043 0.30880 0.29890 0.35900
C 	C 	0.62213 0.26050 0.31000 -0.12900
C 	C 	0.70703 0.22990 0.28200 0.04800
C 	C 	0.74383 0.18250 0.29070 -0.10900
C 	C 	0.69403 0.16800 0.32950 0.04200
C 	C 	0.60683 0.20250 0.35990 -0.10300
C 	C 	0.57113 0.24730 0.35000 0.04300
C 	C 	0.62643 0.08500 0.63160 0.38700
C 	C 	0.65943 0.08440 0.57460 -0.13400
C 	C 	0.59753 0.10900 0.54810 0.04600
C 	C 	0.62223 0.10620 0.49460 -0.11300
C 	C 	0.71543 0.07920 0.46560 0.03700
C 	C 	0.77863 0.05660 0.49300 -0.11000
C 	C 	0.74973 0.05870 0.54630 0.04700
C 	C 	0.02183 0.80600 0.11990 0.37400
C 	C 	0.96623 0.86320 0.16600 -0.12500
C 	C 	0.99243 0.88830 0.22860 0.09100
C 	C 	0.94333 0.93870 0.27070 -0.14500
C 	C 	0.86673 0.96710 0.25670 0.07800
C 	C 	0.84203 0.94110 0.19410 -0.12000
C 	C 	0.89323 0.89040 0.15010 0.05700
C 	C 	0.72773 0.11840 0.33820 0.02500
C 	C 	0.71023 0.12040 0.39510 -0.09500
C 	C 	0.74023 0.07400 0.40600 0.03900
C 	C 	0.79013 0.02490 0.36080 -0.12400
C 	C 	0.77873 0.06790 0.29520 -0.08700
C 	C 	0.81183 0.02080 0.30400 0.01000
O 	O 	0.69590 0.66690 0.94310 -0.43100
O 	O 	0.84260 0.67292 0.98553 -0.49800
O 	O 	0.79540 0.89260 0.54332 -0.47000
O 	O 	0.64910 0.93582 0.59050 -0.42300
O 	O 	0.23600 0.20732 0.34725 -0.49800
O 	O 	0.34920 0.22292 0.29089 -0.42300
O 	O 	0.02923 0.27620 0.33310 -0.44400
O 	O 	0.17593 0.31261 0.32708 -0.51200
O 	O 	0.12873 0.65072 0.10740 -0.47600
O 	O 	0.98243 0.65468 0.06418 -0.41300
O 	O 	0.56933 0.13993 0.79268 -0.49600
O 	O 	0.68253 0.06797 0.77708 -0.42700
O 	O 	0.36257 0.05690 0.72380 -0.43200
O 	O 	0.50927 0.01447 0.68739 -0.50700
O 	O 	0.46207 0.45668 0.34928 -0.47400
O 	O 	0.31577 0.40950 0.34532 -0.42900
O 	O 	0.90267 0.65275 0.86007 -0.49600
O 	O 	0.01587 0.70911 0.93203 -0.43100
O 	O 	0.30410 0.72380 0.05690 -0.43200
O 	O 	0.15740 0.68739 0.01447 -0.51000
O 	O 	0.20460 0.34928 0.45668 -0.47700
O 	O 	0.35090 0.34532 0.40950 -0.42900
O 	O 	0.76400 0.86007 0.65275 -0.49100
O 	O 	0.65080 0.93203 0.70911 -0.41200
O 	O 	0.97077 0.94310 0.66690 -0.42300
O 	O 	0.82407 0.98553 0.67292 -0.49800
O 	O 	0.87127 0.54332 0.89260 -0.47200
O 	O 	0.01757 0.59050 0.93582 -0.43500
O 	O 	0.43067 0.34725 0.20732 -0.49600
O 	O 	0.31747 0.29089 0.22292 -0.42200
O 	O 	0.63743 0.33310 0.27620 -0.43200
O 	O 	0.49073 0.32708 0.31261 -0.50600
O 	O 	0.53793 0.10740 0.65072 -0.47700
O 	O 	0.68423 0.06418 0.65468 -0.43400
O 	O 	0.09733 0.79268 0.13993 -0.49000
O 	O 	0.98413 0.77708 0.06797 -0.40000
