data_crystal

_cell_length_a 27.74500
_cell_length_b 16.15830
_cell_length_c 22.81920
_cell_angle_alpha 90.00000
_cell_angle_beta  90.00000
_cell_angle_gamma 90.00000

_symmetry_space_group_name_	'P 1'
_symmetry_space_group_name_H-M	'P 1'

loop_
_symmetry_equiv_pos_as_xyz
  x,y,z

loop_
_atom_site_label
_atom_site_type_symbol
_atom_site_fract_x
_atom_site_fract_y
_atom_site_fract_z
_atom_site_charge
Mo	Mo	0.04952 0.79899 0.43920 1.09000
Mo	Mo	0.93319 0.10353 0.37375 1.09000
Mo	Mo	0.06018 0.11225 0.36951 1.08000
Mo	Mo	0.88931 0.96777 0.40365 1.10300
Mo	Mo	0.10993 0.98124 0.39677 1.10500
Mo	Mo	0.95576 0.79250 0.44344 1.10100
P 	P 	0.86866 0.78076 0.34321 0.52400
P 	P 	0.13351 0.79653 0.33514 0.52900
P 	P 	0.99145 0.18598 0.26103 0.52300
P 	P 	0.99800 0.93280 0.33956 0.54800
O 	O 	0.82337 0.72990 0.34061 -0.40900
O 	O 	0.90436 0.74510 0.38777 -0.36600
O 	O 	0.85739 0.87280 0.35515 -0.38700
O 	O 	0.89435 0.78160 0.28100 -0.18200
O 	O 	0.17809 0.74430 0.33203 -0.42200
O 	O 	0.09782 0.75810 0.37850 -0.37100
O 	O 	0.14546 0.88760 0.35083 -0.38800
O 	O 	0.10968 0.79780 0.27210 -0.18600
O 	O 	0.98172 0.27760 0.25500 -0.16900
O 	O 	0.03997 0.16670 0.29031 -0.36800
O 	O 	0.94793 0.14710 0.29228 -0.35600
O 	O 	0.99319 0.14510 0.19820 -0.16200
O 	O 	0.99728 0.02710 0.34587 -0.43000
O 	O 	0.04487 0.89810 0.36576 -0.39800
O 	O 	0.95455 0.89410 0.37189 -0.39600
O 	O 	0.99401 0.91610 0.27288 -0.14500
O 	O 	0.10162 0.88780 0.45955 -0.46000
O 	O 	0.00175 0.87420 0.47645 -0.60400
O 	O 	0.00238 0.73960 0.39201 -0.45200
O 	O 	0.94109 0.03110 0.44399 -0.60300
O 	O 	0.99584 0.16680 0.40041 -0.44500
O 	O 	0.89631 0.02300 0.32862 -0.47600
O 	O 	0.05746 0.03880 0.43956 -0.61100
O 	O 	0.09753 0.03530 0.32231 -0.48600
O 	O 	0.90150 0.87570 0.46659 -0.45700
C 	C 	0.77740 0.69880 0.21850 0.05400
H 	H 	0.79690 0.66200 0.23880 0.00200
C 	C 	0.77860 0.69690 0.15790 -0.09700
H 	H 	0.79870 0.65970 0.13870 0.02700
C 	C 	0.78470 0.71190 0.96720 0.11300
H 	H 	0.80920 0.68520 0.94680 -0.03400
C 	C 	0.78600 0.71040 0.02800 -0.19400
H 	H 	0.81080 0.68300 0.04740 0.05300
C 	C 	0.21640 0.71070 0.21020 0.03900
H 	H 	0.19230 0.68300 0.23050 0.01300
C 	C 	0.21550 0.70860 0.14940 -0.08100
H 	H 	0.19140 0.67910 0.13020 0.01700
C 	C 	0.21290 0.72070 0.95890 0.12000
H 	H 	0.18650 0.70000 0.93850 -0.02700
C 	C 	0.21170 0.71930 0.01990 -0.21200
H 	H 	0.18510 0.69780 0.03930 0.06100
Mo	Mo	0.45048 0.70101 0.43920 1.09200
Mo	Mo	0.56681 0.39647 0.37375 1.09000
Mo	Mo	0.43982 0.38775 0.36951 1.08800
Mo	Mo	0.61069 0.53223 0.40365 1.08500
Mo	Mo	0.39007 0.51876 0.39677 1.08400
Mo	Mo	0.54424 0.70750 0.44344 1.09200
P 	P 	0.63134 0.71924 0.34321 0.52300
P 	P 	0.36649 0.70347 0.33514 0.53000
P 	P 	0.50855 0.31402 0.26103 0.50600
P 	P 	0.50200 0.56720 0.33956 0.50800
O 	O 	0.67663 0.77010 0.34061 -0.40700
O 	O 	0.59564 0.75490 0.38777 -0.36700
O 	O 	0.64261 0.62720 0.35515 -0.39500
O 	O 	0.60565 0.71840 0.28100 -0.18800
O 	O 	0.32191 0.75570 0.33203 -0.42000
O 	O 	0.40218 0.74190 0.37850 -0.36700
O 	O 	0.35454 0.61240 0.35083 -0.39700
O 	O 	0.39032 0.70220 0.27210 -0.18800
O 	O 	0.51828 0.22240 0.25500 -0.18000
O 	O 	0.46003 0.33330 0.29031 -0.34700
O 	O 	0.55207 0.35290 0.29228 -0.35400
O 	O 	0.50681 0.35490 0.19820 -0.16200
O 	O 	0.50272 0.47290 0.34587 -0.41800
O 	O 	0.45513 0.60190 0.36576 -0.39100
O 	O 	0.54545 0.60590 0.37189 -0.40300
O 	O 	0.50599 0.58390 0.27288 -0.16300
O 	O 	0.39838 0.61220 0.45955 -0.46600
O 	O 	0.49825 0.62580 0.47645 -0.60000
O 	O 	0.49762 0.76040 0.39201 -0.43700
O 	O 	0.55891 0.46890 0.44399 -0.59300
O 	O 	0.50416 0.33320 0.40041 -0.46000
O 	O 	0.60369 0.47700 0.32862 -0.45700
O 	O 	0.44254 0.46120 0.43956 -0.58600
O 	O 	0.40247 0.46470 0.32231 -0.46100
O 	O 	0.59850 0.62430 0.46659 -0.46500
C 	C 	0.72260 0.80120 0.21850 0.05500
H 	H 	0.70310 0.83800 0.23880 0.00600
C 	C 	0.72140 0.80310 0.15790 -0.09700
H 	H 	0.70130 0.84030 0.13870 0.03000
C 	C 	0.71530 0.78810 0.96720 0.11400
H 	H 	0.69080 0.81480 0.94680 -0.03300
C 	C 	0.71400 0.78960 0.02800 -0.19300
H 	H 	0.68920 0.81700 0.04740 0.05500
C 	C 	0.28360 0.78930 0.21020 0.04000
H 	H 	0.30770 0.81700 0.23050 0.01600
C 	C 	0.28450 0.79140 0.14940 -0.08000
H 	H 	0.30860 0.82090 0.13020 0.01900
C 	C 	0.28710 0.77930 0.95890 0.12000
H 	H 	0.31350 0.80000 0.93850 -0.02600
C 	C 	0.28830 0.78070 0.01990 -0.21100
H 	H 	0.31490 0.80220 0.03930 0.06200
Mo	Mo	0.95048 0.29899 0.06080 1.08800
Mo	Mo	0.06681 0.60353 0.12625 1.08900
Mo	Mo	0.93982 0.61225 0.13049 1.09400
Mo	Mo	0.11069 0.46777 0.09635 1.08300
Mo	Mo	0.89007 0.48124 0.10323 1.08200
Mo	Mo	0.04424 0.29250 0.05656 1.07300
P 	P 	0.13134 0.28076 0.15679 0.52300
P 	P 	0.86649 0.29653 0.16486 0.52900
P 	P 	0.00855 0.68598 0.23897 0.49000
P 	P 	0.00200 0.43280 0.16044 0.48900
O 	O 	0.17663 0.22990 0.15939 -0.41700
O 	O 	0.09564 0.24510 0.11223 -0.38300
O 	O 	0.14261 0.37280 0.14485 -0.39600
O 	O 	0.10565 0.28160 0.21900 -0.19300
O 	O 	0.82191 0.24430 0.16797 -0.42700
O 	O 	0.90218 0.25810 0.12150 -0.37500
O 	O 	0.85454 0.38760 0.14917 -0.39800
O 	O 	0.89032 0.29780 0.22790 -0.18700
O 	O 	0.01828 0.77760 0.24500 -0.18200
O 	O 	0.96003 0.66670 0.20969 -0.32600
O 	O 	0.05207 0.64710 0.20772 -0.35200
O 	O 	0.00681 0.64510 0.30180 -0.16700
O 	O 	0.00272 0.52710 0.15413 -0.42500
O 	O 	0.95513 0.39810 0.13424 -0.37600
O 	O 	0.04545 0.39410 0.12811 -0.40600
O 	O 	0.00599 0.41610 0.22712 -0.17100
O 	O 	0.89838 0.38780 0.04045 -0.47700
O 	O 	0.99825 0.37420 0.02355 -0.59400
O 	O 	0.99762 0.23960 0.10799 -0.43200
O 	O 	0.05891 0.53110 0.05601 -0.60300
O 	O 	0.00416 0.66680 0.09959 -0.47400
O 	O 	0.10369 0.52300 0.17138 -0.45700
O 	O 	0.94254 0.53880 0.06044 -0.58400
O 	O 	0.90247 0.53530 0.17769 -0.45700
O 	O 	0.09850 0.37570 0.03341 -0.47900
C 	C 	0.22260 0.19880 0.28150 0.06100
H 	H 	0.20310 0.16200 0.26120 -0.00600
C 	C 	0.22140 0.19690 0.34210 -0.11600
H 	H 	0.20130 0.15970 0.36130 0.03000
C 	C 	0.21530 0.21190 0.53280 0.04400
H 	H 	0.19080 0.18520 0.55320 -0.01800
C 	C 	0.21400 0.21040 0.47200 -0.11900
H 	H 	0.18920 0.18300 0.45260 0.02800
C 	C 	0.78360 0.21070 0.28980 0.04700
H 	H 	0.80770 0.18300 0.26950 0.00800
C 	C 	0.78450 0.20860 0.35060 -0.10000
H 	H 	0.80860 0.17910 0.36980 0.02300
C 	C 	0.78710 0.22070 0.54110 0.04700
H 	H 	0.81350 0.20000 0.56150 -0.00800
C 	C 	0.78830 0.21930 0.48010 -0.12800
H 	H 	0.81490 0.19780 0.46070 0.03600
Mo	Mo	0.54952 0.20101 0.06080 1.08700
Mo	Mo	0.43319 0.89647 0.12625 1.09000
Mo	Mo	0.56018 0.88775 0.13049 1.08800
Mo	Mo	0.38931 0.03223 0.09635 1.06300
Mo	Mo	0.60993 0.01876 0.10323 1.06200
Mo	Mo	0.45576 0.20750 0.05656 1.08700
P 	P 	0.36866 0.21924 0.15679 0.52400
P 	P 	0.63351 0.20347 0.16486 0.53000
P 	P 	0.49145 0.81402 0.23897 0.50500
P 	P 	0.49800 0.06720 0.16044 0.48000
O 	O 	0.32337 0.27010 0.15939 -0.41300
O 	O 	0.40436 0.25490 0.11223 -0.37300
O 	O 	0.35739 0.12720 0.14485 -0.40500
O 	O 	0.39435 0.21840 0.21900 -0.19200
O 	O 	0.67809 0.25570 0.16797 -0.42600
O 	O 	0.59782 0.24190 0.12150 -0.37300
O 	O 	0.64546 0.11240 0.14917 -0.40700
O 	O 	0.60968 0.20220 0.22790 -0.19200
O 	O 	0.48172 0.72240 0.24500 -0.17800
O 	O 	0.53997 0.83330 0.20969 -0.34400
O 	O 	0.44793 0.85290 0.20772 -0.35000
O 	O 	0.49319 0.85490 0.30180 -0.15300
O 	O 	0.49728 0.97290 0.15413 -0.39300
O 	O 	0.54487 0.10190 0.13424 -0.39400
O 	O 	0.45455 0.10590 0.12811 -0.40700
O 	O 	0.49401 0.08390 0.22712 -0.17100
O 	O 	0.60162 0.11220 0.04045 -0.48300
O 	O 	0.50175 0.12580 0.02355 -0.61400
O 	O 	0.50238 0.26040 0.10799 -0.44200
O 	O 	0.44109 0.96890 0.05601 -0.57700
O 	O 	0.49584 0.83320 0.09959 -0.46500
O 	O 	0.39631 0.97700 0.17138 -0.43500
O 	O 	0.55746 0.96120 0.06044 -0.57100
O 	O 	0.59753 0.96470 0.17769 -0.44000
O 	O 	0.40150 0.12430 0.03341 -0.48200
C 	C 	0.27740 0.30120 0.28150 0.06200
H 	H 	0.29690 0.33800 0.26120 -0.00100
C 	C 	0.27860 0.30310 0.34210 -0.11500
H 	H 	0.29870 0.34030 0.36130 0.03400
C 	C 	0.28470 0.28810 0.53280 0.04500
H 	H 	0.30920 0.31480 0.55320 -0.01700
C 	C 	0.28600 0.28960 0.47200 -0.11900
H 	H 	0.31080 0.31700 0.45260 0.03100
C 	C 	0.71640 0.28930 0.28980 0.04700
H 	H 	0.69230 0.31700 0.26950 0.01000
C 	C 	0.71550 0.29140 0.35060 -0.10000
H 	H 	0.69140 0.32090 0.36980 0.02500
C 	C 	0.71290 0.27930 0.54110 0.04700
H 	H 	0.68650 0.30000 0.56150 -0.00800
C 	C 	0.71170 0.28070 0.48010 -0.12800
H 	H 	0.68510 0.30220 0.46070 0.03600
Mo	Mo	0.95048 0.20101 0.56080 1.09200
Mo	Mo	0.06681 0.89647 0.62625 1.09200
Mo	Mo	0.93982 0.88775 0.63049 1.09600
Mo	Mo	0.11069 0.03223 0.59635 1.06600
Mo	Mo	0.89007 0.01876 0.60323 1.06700
Mo	Mo	0.04424 0.20750 0.55656 1.07800
P 	P 	0.13134 0.21924 0.65679 0.52400
P 	P 	0.86649 0.20347 0.66486 0.53000
P 	P 	0.00855 0.81402 0.73897 0.49100
P 	P 	0.00200 0.06720 0.66044 0.46200
O 	O 	0.17663 0.27010 0.65939 -0.41200
O 	O 	0.09564 0.25490 0.61223 -0.37600
O 	O 	0.14261 0.12720 0.64485 -0.40300
O 	O 	0.10565 0.21840 0.71900 -0.19500
O 	O 	0.82191 0.25570 0.66797 -0.42400
O 	O 	0.90218 0.24190 0.62150 -0.36900
O 	O 	0.85454 0.11240 0.64917 -0.40400
O 	O 	0.89032 0.20220 0.72790 -0.18900
O 	O 	0.01828 0.72240 0.74500 -0.18400
O 	O 	0.96003 0.83330 0.70969 -0.32700
O 	O 	0.05207 0.85290 0.70772 -0.34900
O 	O 	0.00681 0.85490 0.80180 -0.15700
O 	O 	0.00272 0.97290 0.65413 -0.40000
O 	O 	0.95513 0.10190 0.63424 -0.37900
O 	O 	0.04545 0.10590 0.62811 -0.41100
O 	O 	0.00599 0.08390 0.72712 -0.17900
O 	O 	0.89838 0.11220 0.54045 -0.47200
O 	O 	0.99825 0.12580 0.52355 -0.58800
O 	O 	0.99762 0.26040 0.60799 -0.42700
O 	O 	0.05891 0.96890 0.55601 -0.57200
O 	O 	0.00416 0.83320 0.59959 -0.46900
O 	O 	0.10369 0.97700 0.67138 -0.43500
O 	O 	0.94254 0.96120 0.56044 -0.55800
O 	O 	0.90247 0.96470 0.67769 -0.43800
O 	O 	0.09850 0.12430 0.53341 -0.47400
C 	C 	0.22260 0.30120 0.78150 0.07300
H 	H 	0.20310 0.33800 0.76120 -0.00500
C 	C 	0.22140 0.30310 0.84210 -0.13500
H 	H 	0.20130 0.34030 0.86130 0.04300
C 	C 	0.21530 0.28810 0.03280 -0.03000
H 	H 	0.19080 0.31480 0.05320 0.00400
C 	C 	0.21400 0.28960 0.97200 -0.02900
H 	H 	0.18920 0.31700 0.95260 0.00700
C 	C 	0.78360 0.28930 0.78980 0.05900
H 	H 	0.80770 0.31700 0.76950 0.00700
C 	C 	0.78450 0.29140 0.85060 -0.12000
H 	H 	0.80860 0.32090 0.86980 0.03500
C 	C 	0.78710 0.27930 0.04110 -0.02700
H 	H 	0.81350 0.30000 0.06150 0.01400
C 	C 	0.78830 0.28070 0.98010 -0.03600
H 	H 	0.81490 0.30220 0.96070 0.01200
Mo	Mo	0.54952 0.29899 0.56080 1.08900
Mo	Mo	0.43319 0.60353 0.62625 1.09100
Mo	Mo	0.56018 0.61225 0.63049 1.08900
Mo	Mo	0.38931 0.46777 0.59635 1.08500
Mo	Mo	0.60993 0.48124 0.60323 1.08400
Mo	Mo	0.45576 0.29250 0.55656 1.08900
P 	P 	0.36866 0.28076 0.65679 0.52300
P 	P 	0.63351 0.29653 0.66486 0.53000
P 	P 	0.49145 0.68598 0.73897 0.50500
P 	P 	0.49800 0.43280 0.66044 0.50700
O 	O 	0.32337 0.22990 0.65939 -0.41300
O 	O 	0.40436 0.24510 0.61223 -0.37400
O 	O 	0.35739 0.37280 0.64485 -0.39400
O 	O 	0.39435 0.28160 0.71900 -0.18800
O 	O 	0.67809 0.24430 0.66797 -0.42600
O 	O 	0.59782 0.25810 0.62150 -0.37300
O 	O 	0.64546 0.38760 0.64917 -0.39600
O 	O 	0.60968 0.29780 0.72790 -0.18800
O 	O 	0.48172 0.77760 0.74500 -0.17400
O 	O 	0.53997 0.66670 0.70969 -0.34400
O 	O 	0.44793 0.64710 0.70772 -0.35100
O 	O 	0.49319 0.64510 0.80180 -0.15900
O 	O 	0.49728 0.52710 0.65413 -0.41700
O 	O 	0.54487 0.39810 0.63424 -0.39100
O 	O 	0.45455 0.39410 0.62811 -0.40300
O 	O 	0.49401 0.41610 0.72712 -0.16000
O 	O 	0.60162 0.38780 0.54045 -0.46700
O 	O 	0.50175 0.37420 0.52355 -0.60100
O 	O 	0.50238 0.23960 0.60799 -0.44300
O 	O 	0.44109 0.53110 0.55601 -0.59200
O 	O 	0.49584 0.66680 0.59959 -0.45600
O 	O 	0.39631 0.52300 0.67138 -0.45500
O 	O 	0.55746 0.53880 0.56044 -0.58500
O 	O 	0.59753 0.53530 0.67769 -0.46000
O 	O 	0.40150 0.37570 0.53341 -0.46600
C 	C 	0.27740 0.19880 0.78150 0.07200
H 	H 	0.29690 0.16200 0.76120 -0.00800
C 	C 	0.27860 0.19690 0.84210 -0.13500
H 	H 	0.29870 0.15970 0.86130 0.04000
C 	C 	0.28470 0.21190 0.03280 -0.03100
H 	H 	0.30920 0.18520 0.05320 0.00300
C 	C 	0.28600 0.21040 0.97200 -0.02900
H 	H 	0.31080 0.18300 0.95260 0.00500
C 	C 	0.71640 0.21070 0.78980 0.05900
H 	H 	0.69230 0.18300 0.76950 0.00400
C 	C 	0.71550 0.20860 0.85060 -0.12100
H 	H 	0.69140 0.17910 0.86980 0.03400
C 	C 	0.71290 0.22070 0.04110 -0.02900
H 	H 	0.68650 0.20000 0.06150 0.01300
C 	C 	0.71170 0.21930 0.98010 -0.03600
H 	H 	0.68510 0.19780 0.96070 0.01100
Mo	Mo	0.04952 0.70101 0.93920 1.09300
Mo	Mo	0.93319 0.39647 0.87375 1.09200
Mo	Mo	0.06018 0.38775 0.86951 1.08300
Mo	Mo	0.88931 0.53223 0.90365 1.08700
Mo	Mo	0.10993 0.51876 0.89677 1.08600
Mo	Mo	0.95576 0.70750 0.94344 1.10400
P 	P 	0.86866 0.71924 0.84321 0.52300
P 	P 	0.13351 0.70347 0.83514 0.53000
P 	P 	0.99145 0.31402 0.76103 0.52100
P 	P 	0.99800 0.56720 0.83956 0.52400
O 	O 	0.82337 0.77010 0.84061 -0.40500
O 	O 	0.90436 0.75490 0.88777 -0.36000
O 	O 	0.85739 0.62720 0.85515 -0.39300
O 	O 	0.89435 0.71840 0.78100 -0.18400
O 	O 	0.17809 0.75570 0.83203 -0.41900
O 	O 	0.09782 0.74190 0.87850 -0.36500
O 	O 	0.14546 0.61240 0.85083 -0.39500
O 	O 	0.10968 0.70220 0.77210 -0.18900
O 	O 	0.98172 0.22240 0.75500 -0.17000
O 	O 	0.03997 0.33330 0.79031 -0.36500
O 	O 	0.94793 0.35290 0.79228 -0.35300
O 	O 	0.99319 0.35490 0.69820 -0.15400
O 	O 	0.99728 0.47290 0.84587 -0.41000
O 	O 	0.04487 0.60190 0.86576 -0.40400
O 	O 	0.95455 0.60590 0.87189 -0.40000
O 	O 	0.99401 0.58390 0.77288 -0.15400
O 	O 	0.10162 0.61220 0.95955 -0.45600
O 	O 	0.00175 0.62580 0.97645 -0.59900
O 	O 	0.00238 0.76040 0.89201 -0.44600
O 	O 	0.94109 0.46890 0.94399 -0.57600
O 	O 	0.99584 0.33320 0.90041 -0.44100
O 	O 	0.89631 0.47700 0.82862 -0.45500
O 	O 	0.05746 0.46120 0.93956 -0.58100
O 	O 	0.09753 0.46470 0.82231 -0.46400
O 	O 	0.90150 0.62430 0.96659 -0.45200
C 	C 	0.77740 0.80120 0.71850 0.06400
H 	H 	0.79690 0.83800 0.73880 0.00300
C 	C 	0.77860 0.80310 0.65790 -0.11300
H 	H 	0.79870 0.84030 0.63870 0.03800
C 	C 	0.78470 0.78810 0.46720 0.05100
H 	H 	0.80920 0.81480 0.44680 -0.01500
C 	C 	0.78600 0.78960 0.52800 -0.11800
H 	H 	0.81080 0.81700 0.54740 0.03500
C 	C 	0.21640 0.78930 0.71020 0.05000
H 	H 	0.19230 0.81700 0.73050 0.01300
C 	C 	0.21550 0.79140 0.64940 -0.09800
H 	H 	0.19140 0.82090 0.63020 0.02800
C 	C 	0.21290 0.77930 0.45890 0.05100
H 	H 	0.18650 0.80000 0.43850 -0.00700
C 	C 	0.21170 0.78070 0.51990 -0.12700
H 	H 	0.18510 0.80220 0.53930 0.03900
Mo	Mo	0.45048 0.79899 0.93920 1.09300
Mo	Mo	0.56681 0.10353 0.87375 1.09100
Mo	Mo	0.43982 0.11225 0.86951 1.08900
Mo	Mo	0.61069 0.96777 0.90365 1.10400
Mo	Mo	0.39007 0.98124 0.89677 1.10400
Mo	Mo	0.54424 0.79250 0.94344 1.09300
P 	P 	0.63134 0.78076 0.84321 0.52300
P 	P 	0.36649 0.79653 0.83514 0.53000
P 	P 	0.50855 0.18598 0.76103 0.50500
P 	P 	0.50200 0.93280 0.83956 0.53200
O 	O 	0.67663 0.72990 0.84061 -0.40800
O 	O 	0.59564 0.74510 0.88777 -0.36800
O 	O 	0.64261 0.87280 0.85515 -0.38500
O 	O 	0.60565 0.78160 0.78100 -0.18500
O 	O 	0.32191 0.74430 0.83203 -0.42000
O 	O 	0.40218 0.75810 0.87850 -0.36800
O 	O 	0.35454 0.88760 0.85083 -0.38700
O 	O 	0.39032 0.79780 0.77210 -0.18400
O 	O 	0.51828 0.27760 0.75500 -0.17600
O 	O 	0.46003 0.16670 0.79031 -0.34600
O 	O 	0.55207 0.14710 0.79228 -0.35400
O 	O 	0.50681 0.14510 0.69820 -0.16700
O 	O 	0.50272 0.02710 0.84587 -0.43800
O 	O 	0.45513 0.89810 0.86576 -0.38700
O 	O 	0.54545 0.89410 0.87189 -0.40000
O 	O 	0.50599 0.91610 0.77288 -0.15300
O 	O 	0.39838 0.88780 0.95955 -0.45100
O 	O 	0.49825 0.87420 0.97645 -0.58200
O 	O 	0.49762 0.73960 0.89201 -0.43800
O 	O 	0.55891 0.03110 0.94399 -0.59500
O 	O 	0.50416 0.16680 0.90041 -0.44900
O 	O 	0.60369 0.02300 0.82862 -0.47400
O 	O 	0.44254 0.03880 0.93956 -0.58900
O 	O 	0.40247 0.03530 0.82231 -0.47800
O 	O 	0.59850 0.87570 0.96659 -0.45100
C 	C 	0.72260 0.69880 0.71850 0.06400
H 	H 	0.70310 0.66200 0.73880 -0.00100
C 	C 	0.72140 0.69690 0.65790 -0.11400
H 	H 	0.70130 0.65970 0.63870 0.03500
C 	C 	0.71530 0.71190 0.46720 0.05000
H 	H 	0.69080 0.68520 0.44680 -0.01700
C 	C 	0.71400 0.71040 0.52800 -0.11800
H 	H 	0.68920 0.68300 0.54740 0.03300
C 	C 	0.28360 0.71070 0.71020 0.05000
H 	H 	0.30770 0.68300 0.73050 0.01100
C 	C 	0.28450 0.70860 0.64940 -0.09900
H 	H 	0.30860 0.67910 0.63020 0.02600
C 	C 	0.28710 0.72070 0.45890 0.05100
H 	H 	0.31350 0.70000 0.43850 -0.00700
C 	C 	0.28830 0.71930 0.51990 -0.12700
H 	H 	0.31490 0.69780 0.53930 0.03800
Ni	Ni	0.00000 0.00000 0.50000 1.10000
Ni	Ni	0.50000 0.50000 0.50000 1.12700
Ni	Ni	-0.00000 0.50000 -0.00000 1.10500
Ni	Ni	0.50000 0.00000 -0.00000 1.09900
Ni	Ni	0.75000 0.75000 0.34202 1.05000
N 	N 	0.75000 0.75000 0.24920 -0.23000
N 	N 	0.75000 0.75000 0.93630 -0.25200
C 	C 	0.75000 0.75000 0.12560 0.01000
C 	C 	0.75000 0.75000 0.06000 0.08000
Ni	Ni	0.25000 0.25000 0.15798 1.04700
N 	N 	0.25000 0.25000 0.25080 -0.23500
N 	N 	0.25000 0.25000 0.56370 -0.23500
C 	C 	0.25000 0.25000 0.37440 0.03400
C 	C 	0.25000 0.25000 0.44000 0.02800
Ni	Ni	0.25000 0.25000 0.65798 1.04800
N 	N 	0.25000 0.25000 0.75080 -0.23900
N 	N 	0.25000 0.25000 0.06370 -0.21300
C 	C 	0.25000 0.25000 0.87440 0.06600
C 	C 	0.25000 0.25000 0.94000 -0.02800
Ni	Ni	0.75000 0.75000 0.84202 1.05100
N 	N 	0.75000 0.75000 0.74920 -0.23300
N 	N 	0.75000 0.75000 0.43630 -0.23300
C 	C 	0.75000 0.75000 0.62560 0.03700
C 	C 	0.75000 0.75000 0.56000 0.03300
Ni	Ni	0.25000 0.75000 0.33384 1.05800
N 	N 	0.25000 0.75000 0.24090 -0.22200
N 	N 	0.25000 0.75000 0.92840 -0.25400
C 	C 	0.25000 0.75000 0.11730 -0.00700
C 	C 	0.25000 0.75000 0.05110 0.09900
Ni	Ni	0.75000 0.25000 0.16616 1.05500
N 	N 	0.75000 0.25000 0.25910 -0.22700
N 	N 	0.75000 0.25000 0.57160 -0.23400
C 	C 	0.75000 0.25000 0.38270 0.02100
C 	C 	0.75000 0.25000 0.44890 0.04100
Ni	Ni	0.75000 0.25000 0.66616 1.05600
N 	N 	0.75000 0.25000 0.75910 -0.23100
N 	N 	0.75000 0.25000 0.07160 -0.21100
C 	C 	0.75000 0.25000 0.88270 0.05400
C 	C 	0.75000 0.25000 0.94890 -0.01900
Ni	Ni	0.25000 0.75000 0.83384 1.05900
N 	N 	0.25000 0.75000 0.74090 -0.22600
N 	N 	0.25000 0.75000 0.42840 -0.23300
C 	C 	0.25000 0.75000 0.61730 0.02300
C 	C 	0.25000 0.75000 0.55110 0.04400
