data_crystal

_cell_length_a 10.20330
_cell_length_b 10.20330
_cell_length_c 9.55450
_cell_angle_alpha 90.00000
_cell_angle_beta  90.00000
_cell_angle_gamma 90.00000

_symmetry_space_group_name_	'P 1'
_symmetry_space_group_name_H-M	'P 1'

loop_
_symmetry_equiv_pos_as_xyz
  x,y,z

loop_
_atom_site_label
_atom_site_type_symbol
_atom_site_fract_x
_atom_site_fract_y
_atom_site_fract_z
_atom_site_charge
O 	O 	0.19720 0.02440 0.22020 -0.45400
O 	O 	0.28790 0.76440 0.20100 -0.21500
O 	O 	0.69720 0.52440 0.72020 -0.45400
O 	O 	0.78790 0.26440 0.70100 -0.21500
O 	O 	0.80280 0.97560 0.22020 -0.45400
O 	O 	0.71210 0.23560 0.20100 -0.21500
O 	O 	0.30280 0.47560 0.72020 -0.45400
O 	O 	0.21210 0.73560 0.70100 -0.21500
O 	O 	0.02440 0.80280 0.77980 -0.45300
O 	O 	0.76440 0.71210 0.79900 -0.21400
O 	O 	0.52440 0.30280 0.27980 -0.45300
O 	O 	0.26440 0.21210 0.29900 -0.21400
O 	O 	0.97560 0.19720 0.77980 -0.45300
O 	O 	0.23560 0.28790 0.79900 -0.21400
O 	O 	0.47560 0.69720 0.27980 -0.45300
O 	O 	0.73560 0.78790 0.29900 -0.21400
O 	O 	0.80280 0.02440 0.77980 -0.45300
O 	O 	0.71210 0.76440 0.79900 -0.21400
O 	O 	0.30280 0.52440 0.27980 -0.45300
O 	O 	0.21210 0.26440 0.29900 -0.21400
O 	O 	0.19720 0.97560 0.77980 -0.45300
O 	O 	0.28790 0.23560 0.79900 -0.21400
O 	O 	0.69720 0.47560 0.27980 -0.45300
O 	O 	0.78790 0.73560 0.29900 -0.21400
O 	O 	0.97560 0.80280 0.22020 -0.45300
O 	O 	0.23560 0.71210 0.20100 -0.21400
O 	O 	0.47560 0.30280 0.72020 -0.45300
O 	O 	0.73560 0.21210 0.70100 -0.21400
O 	O 	0.02440 0.19720 0.22020 -0.45300
O 	O 	0.76440 0.28790 0.20100 -0.21400
O 	O 	0.52440 0.69720 0.72020 -0.45300
O 	O 	0.26440 0.78790 0.70100 -0.21400
Co	Co	0.13302 0.86698 0.13280 1.14600
P 	P 	0.16368 0.83632 0.80760 0.53600
O 	O 	0.20310 0.79690 0.95750 -0.44400
H 	H 	0.26600 0.73400 0.79880 0.09700
Co	Co	0.63302 0.36698 0.63280 1.14600
P 	P 	0.66368 0.33632 0.30760 0.53600
O 	O 	0.70310 0.29690 0.45750 -0.44400
H 	H 	0.76600 0.23400 0.29880 0.09700
Co	Co	0.86698 0.13302 0.13280 1.14600
P 	P 	0.83632 0.16368 0.80760 0.53600
O 	O 	0.79690 0.20310 0.95750 -0.44400
H 	H 	0.73400 0.26600 0.79880 0.09700
Co	Co	0.36698 0.63302 0.63280 1.14600
P 	P 	0.33632 0.66368 0.30760 0.53600
O 	O 	0.29690 0.70310 0.45750 -0.44400
H 	H 	0.23400 0.76600 0.29880 0.09700
Co	Co	0.86698 0.86698 0.86720 1.14600
P 	P 	0.83632 0.83632 0.19240 0.53600
O 	O 	0.79690 0.79690 0.04250 -0.44400
H 	H 	0.73400 0.73400 0.20120 0.09700
Co	Co	0.36698 0.36698 0.36720 1.14600
P 	P 	0.33632 0.33632 0.69240 0.53600
O 	O 	0.29690 0.29690 0.54250 -0.44400
H 	H 	0.23400 0.23400 0.70120 0.09700
Co	Co	0.13302 0.13302 0.86720 1.14600
P 	P 	0.16368 0.16368 0.19240 0.53600
O 	O 	0.20310 0.20310 0.04250 -0.44400
H 	H 	0.26600 0.26600 0.20120 0.09700
Co	Co	0.63302 0.63302 0.36720 1.14600
P 	P 	0.66368 0.66368 0.69240 0.53600
O 	O 	0.70310 0.70310 0.54250 -0.44400
H 	H 	0.76600 0.76600 0.70120 0.09700
