data_crystal

_cell_length_a 17.47000
_cell_length_b 16.43700
_cell_length_c 7.15500
_cell_angle_alpha 90.00000
_cell_angle_beta  99.00000
_cell_angle_gamma 90.00000

_symmetry_space_group_name_	'P 1'
_symmetry_space_group_name_H-M	'P 1'

loop_
_symmetry_equiv_pos_as_xyz
  x,y,z

loop_
_atom_site_label
_atom_site_type_symbol
_atom_site_fract_x
_atom_site_fract_y
_atom_site_fract_z
_atom_site_charge
C 	C 	0.29010 0.14400 0.84840 0.02700
C 	C 	0.27890 0.08060 0.70600 -0.02600
C 	C 	0.30170 0.20100 0.71450 -0.03000
C 	C 	0.29050 0.14160 0.57700 0.00100
C 	C 	0.24430 0.21910 0.57180 -0.00300
C 	C 	0.16720 0.19900 0.60900 -0.10400
C 	C 	0.19300 0.21840 0.67900 0.08300
C 	C 	0.16300 0.13100 0.72700 0.03000
C 	C 	0.18000 0.15700 0.79800 0.01200
C 	C 	0.08700 0.06300 0.19100 0.01600
C 	C 	0.11900 0.06900 0.25500 -0.00200
C 	C 	0.03900 0.06970 0.32600 0.06400
C 	C 	0.06500 0.06620 0.39200 -0.08600
N 	N 	0.22260 0.09980 0.83750 -0.22300
C 	C 	0.44740 0.05250 0.29000 -0.01700
C 	C 	0.40390 0.05090 0.45960 -0.01900
C 	C 	0.37670 0.05410 0.17200 0.01200
C 	C 	0.33350 0.04970 0.33160 0.01700
C 	C 	0.79010 0.64400 0.84840 0.02700
C 	C 	0.77890 0.58060 0.70600 -0.01300
C 	C 	0.80170 0.70100 0.71450 -0.02900
C 	C 	0.79050 0.64160 0.57700 -0.00000
C 	C 	0.74430 0.71910 0.57180 -0.00200
C 	C 	0.66720 0.69900 0.60900 -0.09800
C 	C 	0.69300 0.71840 0.67900 0.07600
C 	C 	0.66300 0.63100 0.72700 0.03200
C 	C 	0.68000 0.65700 0.79800 0.01200
C 	C 	0.58700 0.56300 0.19100 0.02500
C 	C 	0.61900 0.56900 0.25500 -0.00600
C 	C 	0.53900 0.56970 0.32600 0.06600
C 	C 	0.56500 0.56620 0.39200 -0.09000
N 	N 	0.72260 0.59980 0.83750 -0.22200
C 	C 	0.94740 0.55250 0.29000 -0.01700
C 	C 	0.90390 0.55090 0.45960 -0.01800
C 	C 	0.87670 0.55410 0.17200 0.02000
C 	C 	0.83350 0.54970 0.33160 0.02700
C 	C 	0.70990 0.14400 0.15160 0.02800
C 	C 	0.72110 0.08060 0.29400 -0.02500
C 	C 	0.69830 0.20100 0.28550 -0.03000
C 	C 	0.70950 0.14160 0.42300 0.00100
C 	C 	0.75570 0.21910 0.42820 -0.00300
C 	C 	0.83280 0.19900 0.39100 -0.10400
C 	C 	0.80700 0.21840 0.32100 0.08300
C 	C 	0.83700 0.13100 0.27300 0.03000
C 	C 	0.82000 0.15700 0.20200 0.01200
C 	C 	0.91300 0.06300 0.80900 0.01600
C 	C 	0.88100 0.06900 0.74500 -0.00200
C 	C 	0.96100 0.06970 0.67400 0.06400
C 	C 	0.93500 0.06620 0.60800 -0.08600
N 	N 	0.77740 0.09980 0.16250 -0.22300
C 	C 	0.55260 0.05250 0.71000 -0.01700
C 	C 	0.59610 0.05090 0.54040 -0.01900
C 	C 	0.62330 0.05410 0.82800 0.01200
C 	C 	0.66650 0.04970 0.66840 0.01700
C 	C 	0.20990 0.64400 0.15160 0.02700
C 	C 	0.22110 0.58060 0.29400 -0.01300
C 	C 	0.19830 0.70100 0.28550 -0.02900
C 	C 	0.20950 0.64160 0.42300 -0.00000
C 	C 	0.25570 0.71910 0.42820 -0.00200
C 	C 	0.33280 0.69900 0.39100 -0.09800
C 	C 	0.30700 0.71840 0.32100 0.07600
C 	C 	0.33700 0.63100 0.27300 0.03200
C 	C 	0.32000 0.65700 0.20200 0.01200
C 	C 	0.41300 0.56300 0.80900 0.02500
C 	C 	0.38100 0.56900 0.74500 -0.00600
C 	C 	0.46100 0.56970 0.67400 0.06600
C 	C 	0.43500 0.56620 0.60800 -0.09000
N 	N 	0.27740 0.59980 0.16250 -0.22200
C 	C 	0.05260 0.55250 0.71000 -0.01700
C 	C 	0.09610 0.55090 0.54040 -0.01800
C 	C 	0.12330 0.55410 0.82800 0.02000
C 	C 	0.16650 0.54970 0.66840 0.02700
C 	C 	0.70990 0.85600 0.15160 0.02600
C 	C 	0.72110 0.91940 0.29400 -0.00000
C 	C 	0.69830 0.79900 0.28550 -0.02800
C 	C 	0.70950 0.85840 0.42300 -0.00400
C 	C 	0.75570 0.78090 0.42820 0.00200
C 	C 	0.83280 0.80100 0.39100 -0.08700
C 	C 	0.80700 0.78160 0.32100 0.06300
C 	C 	0.83700 0.86900 0.27300 0.03700
C 	C 	0.82000 0.84300 0.20200 0.01100
C 	C 	0.91300 0.93700 0.80900 0.03300
C 	C 	0.88100 0.93100 0.74500 0.00500
C 	C 	0.96100 0.93030 0.67400 0.09000
C 	C 	0.93500 0.93380 0.60800 -0.09200
N 	N 	0.77740 0.90020 0.16250 -0.21700
C 	C 	0.55260 0.94750 0.71000 0.00500
C 	C 	0.59610 0.94910 0.54040 0.00200
C 	C 	0.62330 0.94590 0.82800 0.03000
C 	C 	0.66650 0.95030 0.66840 0.04400
C 	C 	0.20990 0.35600 0.15160 0.02600
C 	C 	0.22110 0.41940 0.29400 -0.01300
C 	C 	0.19830 0.29900 0.28550 -0.02900
C 	C 	0.20950 0.35840 0.42300 -0.00100
C 	C 	0.25570 0.28090 0.42820 -0.00100
C 	C 	0.33280 0.30100 0.39100 -0.09800
C 	C 	0.30700 0.28160 0.32100 0.07600
C 	C 	0.33700 0.36900 0.27300 0.03300
C 	C 	0.32000 0.34300 0.20200 0.01100
C 	C 	0.41300 0.43700 0.80900 0.02500
C 	C 	0.38100 0.43100 0.74500 -0.00600
C 	C 	0.46100 0.43030 0.67400 0.06600
C 	C 	0.43500 0.43380 0.60800 -0.09100
N 	N 	0.27740 0.40020 0.16250 -0.22200
C 	C 	0.05260 0.44750 0.71000 -0.01700
C 	C 	0.09610 0.44910 0.54040 -0.01800
C 	C 	0.12330 0.44590 0.82800 0.02000
C 	C 	0.16650 0.45030 0.66840 0.02700
C 	C 	0.29010 0.85600 0.84840 0.02600
C 	C 	0.27890 0.91940 0.70600 -0.00000
C 	C 	0.30170 0.79900 0.71450 -0.02800
C 	C 	0.29050 0.85840 0.57700 -0.00400
C 	C 	0.24430 0.78090 0.57180 0.00200
C 	C 	0.16720 0.80100 0.60900 -0.08700
C 	C 	0.19300 0.78160 0.67900 0.06300
C 	C 	0.16300 0.86900 0.72700 0.03700
C 	C 	0.18000 0.84300 0.79800 0.01100
C 	C 	0.08700 0.93700 0.19100 0.03300
C 	C 	0.11900 0.93100 0.25500 0.00500
C 	C 	0.03900 0.93030 0.32600 0.09000
C 	C 	0.06500 0.93380 0.39200 -0.09200
N 	N 	0.22260 0.90020 0.83750 -0.21700
C 	C 	0.44740 0.94750 0.29000 0.00500
C 	C 	0.40390 0.94910 0.45960 0.00200
C 	C 	0.37670 0.94590 0.17200 0.03000
C 	C 	0.33350 0.95030 0.33160 0.04400
C 	C 	0.79010 0.35600 0.84840 0.02600
C 	C 	0.77890 0.41940 0.70600 -0.01300
C 	C 	0.80170 0.29900 0.71450 -0.02900
C 	C 	0.79050 0.35840 0.57700 -0.00100
C 	C 	0.74430 0.28090 0.57180 -0.00100
C 	C 	0.66720 0.30100 0.60900 -0.09800
C 	C 	0.69300 0.28160 0.67900 0.07600
C 	C 	0.66300 0.36900 0.72700 0.03300
C 	C 	0.68000 0.34300 0.79800 0.01100
C 	C 	0.58700 0.43700 0.19100 0.02500
C 	C 	0.61900 0.43100 0.25500 -0.00600
C 	C 	0.53900 0.43030 0.32600 0.06600
C 	C 	0.56500 0.43380 0.39200 -0.09100
N 	N 	0.72260 0.40020 0.83750 -0.22200
C 	C 	0.94740 0.44750 0.29000 -0.01700
C 	C 	0.90390 0.44910 0.45960 -0.01800
C 	C 	0.87670 0.44590 0.17200 0.02000
C 	C 	0.83350 0.45030 0.33160 0.02700
Cu	Cu	0.21484 0.00000 0.00751 0.84500
C 	C 	0.02570 0.00000 0.42570 -0.02000
N 	N 	0.12640 0.00000 0.15600 -0.24300
N 	N 	0.32030 0.00000 0.19040 -0.24100
C 	C 	0.46180 0.00000 0.43320 -0.01500
Cu	Cu	0.71484 0.50000 0.00751 0.85300
C 	C 	0.52570 0.50000 0.42570 0.00400
N 	N 	0.62640 0.50000 0.15600 -0.22800
N 	N 	0.82030 0.50000 0.19040 -0.22500
C 	C 	0.96180 0.50000 0.43320 0.01900
Cu	Cu	0.78516 0.00000 0.99249 0.84500
C 	C 	0.97430 0.00000 0.57430 -0.02000
N 	N 	0.87360 0.00000 0.84400 -0.24300
N 	N 	0.67970 0.00000 0.80960 -0.24100
C 	C 	0.53820 0.00000 0.56680 -0.01500
Cu	Cu	0.28516 0.50000 0.99249 0.85300
C 	C 	0.47430 0.50000 0.57430 0.00400
N 	N 	0.37360 0.50000 0.84400 -0.22800
N 	N 	0.17970 0.50000 0.80960 -0.22500
C 	C 	0.03820 0.50000 0.56680 0.01900
