data_crystal

_cell_length_a 17.12400
_cell_length_b 17.12400
_cell_length_c 14.72400
_cell_angle_alpha 90.00000
_cell_angle_beta  90.00000
_cell_angle_gamma 90.00000

_symmetry_space_group_name_	'P 1'
_symmetry_space_group_name_H-M	'P 1'

loop_
_symmetry_equiv_pos_as_xyz
  x,y,z

loop_
_atom_site_label
_atom_site_type_symbol
_atom_site_fract_x
_atom_site_fract_y
_atom_site_fract_z
_atom_site_charge
V 	V 	0.06438 0.07189 0.77040 1.75400
V 	V 	0.96989 0.81246 0.91410 1.66200
V 	V 	0.18314 0.05149 0.91155 1.69400
V 	V 	0.12228 0.89045 0.87366 1.80200
O 	O 	0.11910 0.13520 0.87840 -1.03600
O 	O 	0.18211 0.83371 0.81860 -0.73400
O 	O 	0.12810 0.99370 0.82050 -1.03200
O 	O 	0.07550 0.82345 0.96360 -1.00600
O 	O 	0.02030 0.87300 0.82040 -0.96400
O 	O 	0.18630 0.94460 0.96190 -1.03700
N 	N 	0.22220 0.66090 0.84080 -0.24000
N 	N 	0.21270 0.35090 0.15770 -0.24100
C 	C 	0.19470 0.67260 0.92500 0.03400
H 	H 	0.17890 0.72260 0.94160 -0.04600
C 	C 	0.24020 0.58770 0.81700 0.04100
H 	H 	0.25720 0.57850 0.75790 -0.06400
C 	C 	0.19500 0.33850 0.07100 0.05000
H 	H 	0.18320 0.28780 0.05300 -0.04500
C 	C 	0.22610 0.42470 0.18260 0.05100
H 	H 	0.23750 0.43470 0.24330 -0.06100
C 	C 	0.22410 0.48690 0.12330 -0.14800
H 	H 	0.23300 0.53750 0.14390 0.00400
C 	C 	0.23470 0.52500 0.87540 -0.13800
H 	H 	0.24730 0.47500 0.85580 -0.00500
C 	C 	0.19310 0.39670 0.00650 -0.15000
H 	H 	0.18170 0.38490 0.94620 0.02000
C 	C 	0.20830 0.47280 0.03230 0.02700
C 	C 	0.20990 0.53790 0.96460 0.01400
C 	C 	0.18900 0.61360 0.98770 -0.13700
H 	H 	0.17110 0.62440 0.04600 0.00800
V 	V 	0.93562 0.92811 0.77040 1.69000
V 	V 	0.03011 0.18754 0.91410 1.70100
V 	V 	0.81686 0.94851 0.91155 1.65500
V 	V 	0.87772 0.10955 0.87366 1.80200
O 	O 	0.88090 0.86480 0.87840 -1.07500
O 	O 	0.81789 0.16629 0.81860 -0.73300
O 	O 	0.87190 0.00630 0.82050 -0.97700
O 	O 	0.92450 0.17655 0.96360 -1.04100
O 	O 	0.97970 0.12700 0.82040 -1.01700
O 	O 	0.81370 0.05540 0.96190 -1.00000
N 	N 	0.77780 0.33910 0.84080 -0.24100
N 	N 	0.78730 0.64910 0.15770 -0.24100
C 	C 	0.80530 0.32740 0.92500 0.02500
H 	H 	0.82110 0.27740 0.94160 -0.04800
C 	C 	0.75980 0.41230 0.81700 0.03400
H 	H 	0.74280 0.42150 0.75790 -0.06600
C 	C 	0.80500 0.66150 0.07100 0.04100
H 	H 	0.81680 0.71220 0.05300 -0.04600
C 	C 	0.77390 0.57530 0.18260 0.04500
H 	H 	0.76250 0.56530 0.24330 -0.06400
C 	C 	0.77590 0.51310 0.12330 -0.15000
H 	H 	0.76700 0.46250 0.14390 0.00000
C 	C 	0.76530 0.47500 0.87540 -0.13900
H 	H 	0.75270 0.52500 0.85580 -0.00900
C 	C 	0.80690 0.60330 0.00650 -0.15000
H 	H 	0.81830 0.61510 0.94620 0.00900
C 	C 	0.79170 0.52720 0.03230 0.02000
C 	C 	0.79010 0.46210 0.96460 0.00600
C 	C 	0.81100 0.38640 0.98770 -0.13800
H 	H 	0.82890 0.37560 0.04600 -0.00300
V 	V 	0.07189 0.93562 0.22960 1.71800
V 	V 	0.81246 0.03011 0.08590 1.69800
V 	V 	0.05149 0.81686 0.08845 1.69100
V 	V 	0.89045 0.87772 0.12634 1.79900
O 	O 	0.13520 0.88090 0.12160 -1.05800
O 	O 	0.83371 0.81789 0.18140 -0.73600
O 	O 	0.99370 0.87190 0.17950 -1.04300
O 	O 	0.82345 0.92450 0.03640 -1.04300
O 	O 	0.87300 0.97970 0.17960 -1.02800
O 	O 	0.94460 0.81370 0.03810 -1.03800
N 	N 	0.66090 0.77780 0.15920 -0.24000
N 	N 	0.35090 0.78730 0.84230 -0.24100
C 	C 	0.67260 0.80530 0.07500 0.02500
H 	H 	0.72260 0.82110 0.05840 -0.04800
C 	C 	0.58770 0.75980 0.18300 0.03500
H 	H 	0.57850 0.74280 0.24210 -0.06600
C 	C 	0.33850 0.80500 0.92900 0.04100
H 	H 	0.28780 0.81680 0.94700 -0.04600
C 	C 	0.42470 0.77390 0.81740 0.04400
H 	H 	0.43470 0.76250 0.75670 -0.06400
C 	C 	0.48690 0.77590 0.87670 -0.15000
H 	H 	0.53750 0.76700 0.85610 -0.00000
C 	C 	0.52500 0.76530 0.12460 -0.13900
H 	H 	0.47500 0.75270 0.14420 -0.00900
C 	C 	0.39670 0.80690 0.99350 -0.15000
H 	H 	0.38490 0.81830 0.05380 0.00900
C 	C 	0.47280 0.79170 0.96770 0.02000
C 	C 	0.53790 0.79010 0.03540 0.00700
C 	C 	0.61360 0.81100 0.01230 -0.13800
H 	H 	0.62440 0.82890 0.95400 -0.00400
V 	V 	0.92811 0.06438 0.22960 1.71800
V 	V 	0.18754 0.96989 0.08590 1.66000
V 	V 	0.94851 0.18314 0.08845 1.65400
V 	V 	0.10955 0.12228 0.12634 1.80400
O 	O 	0.86480 0.11910 0.12160 -1.05700
O 	O 	0.16629 0.18211 0.18140 -0.73100
O 	O 	0.00630 0.12810 0.17950 -0.95900
O 	O 	0.17655 0.07550 0.03640 -1.00100
O 	O 	0.12700 0.02030 0.17960 -0.94600
O 	O 	0.05540 0.18630 0.03810 -0.99500
N 	N 	0.33910 0.22220 0.15920 -0.24000
N 	N 	0.64910 0.21270 0.84230 -0.24000
C 	C 	0.32740 0.19470 0.07500 0.03500
H 	H 	0.27740 0.17890 0.05840 -0.04700
C 	C 	0.41230 0.24020 0.18300 0.04100
H 	H 	0.42150 0.25720 0.24210 -0.06500
C 	C 	0.66150 0.19500 0.92900 0.04900
H 	H 	0.71220 0.18320 0.94700 -0.04500
C 	C 	0.57530 0.22610 0.81740 0.05100
H 	H 	0.56530 0.23750 0.75670 -0.06100
C 	C 	0.51310 0.22410 0.87670 -0.14800
H 	H 	0.46250 0.23300 0.85610 0.00500
C 	C 	0.47500 0.23470 0.12460 -0.13800
H 	H 	0.52500 0.24730 0.14420 -0.00500
C 	C 	0.60330 0.19310 0.99350 -0.14900
H 	H 	0.61510 0.18170 0.05380 0.01800
C 	C 	0.52720 0.20830 0.96770 0.02700
C 	C 	0.46210 0.20990 0.03540 0.01500
C 	C 	0.38640 0.18900 0.01230 -0.13800
H 	H 	0.37560 0.17110 0.95400 0.00900
V 	V 	0.56438 0.42811 0.27040 1.73400
V 	V 	0.46989 0.68754 0.41410 1.67900
V 	V 	0.68314 0.44851 0.41155 1.67300
V 	V 	0.62228 0.60955 0.37366 1.80300
O 	O 	0.61910 0.36480 0.37840 -1.05400
O 	O 	0.68211 0.66629 0.31860 -0.73300
O 	O 	0.62810 0.50630 0.32050 -0.99200
O 	O 	0.57550 0.67655 0.46360 -1.02300
O 	O 	0.52030 0.62700 0.32040 -0.97900
O 	O 	0.68630 0.55540 0.46190 -1.01800
N 	N 	0.72220 0.83910 0.34080 -0.25400
N 	N 	0.71270 0.14910 0.65770 -0.22700
C 	C 	0.69470 0.82740 0.42500 0.03800
H 	H 	0.67890 0.77740 0.44160 -0.05100
C 	C 	0.74020 0.91230 0.31700 0.09400
H 	H 	0.75720 0.92150 0.25790 -0.09600
C 	C 	0.69500 0.16150 0.57100 0.03400
H 	H 	0.68320 0.21220 0.55300 -0.04100
C 	C 	0.72610 0.07530 0.68260 -0.01600
H 	H 	0.73750 0.06530 0.74330 -0.03100
C 	C 	0.72410 0.01310 0.62330 -0.01200
H 	H 	0.73300 0.96250 0.64390 -0.08400
C 	C 	0.73470 0.97500 0.37540 -0.27600
H 	H 	0.74730 0.02500 0.35580 0.07400
C 	C 	0.69310 0.10330 0.50650 -0.13000
H 	H 	0.68170 0.11510 0.44620 0.01400
C 	C 	0.70830 0.02720 0.53230 0.00900
C 	C 	0.70990 0.96210 0.46460 0.01900
C 	C 	0.68900 0.88640 0.48770 -0.15700
H 	H 	0.67110 0.87560 0.54600 0.00100
V 	V 	0.43562 0.57189 0.27040 1.73400
V 	V 	0.53011 0.31246 0.41410 1.68100
V 	V 	0.31686 0.55149 0.41155 1.67500
V 	V 	0.37772 0.39045 0.37366 1.80300
O 	O 	0.38090 0.63520 0.37840 -1.05500
O 	O 	0.31789 0.33371 0.31860 -0.73300
O 	O 	0.37190 0.49370 0.32050 -0.99200
O 	O 	0.42450 0.32345 0.46360 -1.02100
O 	O 	0.47970 0.37300 0.32040 -0.97800
O 	O 	0.31370 0.44460 0.46190 -1.01500
N 	N 	0.27780 0.16090 0.34080 -0.22500
N 	N 	0.28730 0.85090 0.65770 -0.25600
C 	C 	0.30530 0.17260 0.42500 0.02000
H 	H 	0.32110 0.22260 0.44160 -0.04300
C 	C 	0.25980 0.08770 0.31700 -0.02600
H 	H 	0.24280 0.07850 0.25790 -0.03200
C 	C 	0.30500 0.83850 0.57100 0.05700
H 	H 	0.31680 0.78780 0.55300 -0.05000
C 	C 	0.27390 0.92470 0.68260 0.11400
H 	H 	0.26250 0.93470 0.74330 -0.09600
C 	C 	0.27590 0.98690 0.62330 -0.29800
H 	H 	0.26700 0.03750 0.64390 0.09400
C 	C 	0.26530 0.02500 0.37540 0.00900
H 	H 	0.25270 0.97500 0.35580 -0.09700
C 	C 	0.30690 0.89670 0.50650 -0.17100
H 	H 	0.31830 0.88490 0.44620 0.01400
C 	C 	0.29170 0.97280 0.53230 0.03800
C 	C 	0.29010 0.03790 0.46460 -0.00200
C 	C 	0.31100 0.11360 0.48770 -0.11700
H 	H 	0.32890 0.12440 0.54600 0.00400
V 	V 	0.57189 0.56438 0.72960 1.73400
V 	V 	0.31246 0.46989 0.58590 1.68200
V 	V 	0.55149 0.68314 0.58845 1.67300
V 	V 	0.39045 0.62228 0.62634 1.80300
O 	O 	0.63520 0.61910 0.62160 -1.05600
O 	O 	0.33371 0.68211 0.68140 -0.73300
O 	O 	0.49370 0.62810 0.67950 -0.99300
O 	O 	0.32345 0.57550 0.53640 -1.02100
O 	O 	0.37300 0.52030 0.67960 -0.97800
O 	O 	0.44460 0.68630 0.53810 -1.01800
N 	N 	0.16090 0.72220 0.65920 -0.22700
N 	N 	0.85090 0.71270 0.34230 -0.25500
C 	C 	0.17260 0.69470 0.57500 0.01900
H 	H 	0.22260 0.67890 0.55840 -0.04300
C 	C 	0.08770 0.74020 0.68300 -0.02500
H 	H 	0.07850 0.75720 0.74210 -0.03500
C 	C 	0.83850 0.69500 0.42900 0.05300
H 	H 	0.78780 0.68320 0.44700 -0.05000
C 	C 	0.92470 0.72610 0.31740 0.10500
H 	H 	0.93470 0.73750 0.25670 -0.09400
C 	C 	0.98690 0.72410 0.37670 -0.28800
H 	H 	0.03750 0.73300 0.35610 0.08400
C 	C 	0.02500 0.73470 0.62460 -0.00300
H 	H 	0.97500 0.74730 0.64420 -0.09400
C 	C 	0.89670 0.69310 0.49350 -0.17000
H 	H 	0.88490 0.68170 0.55380 0.01200
C 	C 	0.97280 0.70830 0.46770 0.03300
C 	C 	0.03790 0.70990 0.53540 -0.00300
C 	C 	0.11360 0.68900 0.51230 -0.12000
H 	H 	0.12440 0.67110 0.45400 0.00300
V 	V 	0.42811 0.43562 0.72960 1.73400
V 	V 	0.68754 0.53011 0.58590 1.67900
V 	V 	0.44851 0.31686 0.58845 1.67500
V 	V 	0.60955 0.37772 0.62634 1.80300
O 	O 	0.36480 0.38090 0.62160 -1.05300
O 	O 	0.66629 0.31789 0.68140 -0.73300
O 	O 	0.50630 0.37190 0.67950 -0.99100
O 	O 	0.67655 0.42450 0.53640 -1.02300
O 	O 	0.62700 0.47970 0.67960 -0.97900
O 	O 	0.55540 0.31370 0.53810 -1.01500
N 	N 	0.83910 0.27780 0.65920 -0.25500
N 	N 	0.14910 0.28730 0.34230 -0.22500
C 	C 	0.82740 0.30530 0.57500 0.04100
H 	H 	0.77740 0.32110 0.55840 -0.05200
C 	C 	0.91230 0.25980 0.68300 0.10300
H 	H 	0.92150 0.24280 0.74210 -0.09800
C 	C 	0.16150 0.30500 0.42900 0.03500
H 	H 	0.21220 0.31680 0.44700 -0.04000
C 	C 	0.07530 0.27390 0.31740 -0.01700
H 	H 	0.06530 0.26250 0.25670 -0.02900
C 	C 	0.01310 0.27590 0.37670 -0.00100
H 	H 	0.96250 0.26700 0.35610 -0.08800
C 	C 	0.97500 0.26530 0.62460 -0.28700
H 	H 	0.02500 0.25270 0.64420 0.08500
C 	C 	0.10330 0.30690 0.49350 -0.12700
H 	H 	0.11510 0.31830 0.55380 0.01500
C 	C 	0.02720 0.29170 0.46770 0.01000
C 	C 	0.96210 0.29010 0.53540 0.02400
C 	C 	0.88640 0.31100 0.51230 -0.15800
H 	H 	0.87560 0.32890 0.45400 0.00200
O 	O 	0.00000 0.00000 0.71580 -0.49700
O 	O 	0.00000 0.00000 0.79780 -0.66300
O 	O 	0.00000 0.00000 0.28420 -0.49600
O 	O 	0.00000 0.00000 0.20220 -0.66400
O 	O 	0.50000 0.50000 0.21580 -0.54300
O 	O 	0.50000 0.50000 0.29780 -0.71800
O 	O 	0.50000 0.50000 0.78420 -0.54300
O 	O 	0.50000 0.50000 0.70220 -0.71800
Zn	Zn	0.25571 0.75571 0.75000 1.21100
Zn	Zn	0.74429 0.24429 0.75000 1.21100
Zn	Zn	0.75571 0.74429 0.25000 1.21100
Zn	Zn	0.24429 0.25571 0.25000 1.21100
