data_crystal

_cell_length_a 24.05690
_cell_length_b 16.08400
_cell_length_c 16.56790
_cell_angle_alpha 90.00000
_cell_angle_beta  132.76200
_cell_angle_gamma 90.00000

_symmetry_space_group_name_	'P 1'
_symmetry_space_group_name_H-M	'P 1'

loop_
_symmetry_equiv_pos_as_xyz
  x,y,z

loop_
_atom_site_label
_atom_site_type_symbol
_atom_site_fract_x
_atom_site_fract_y
_atom_site_fract_z
_atom_site_charge
C 	C 	0.00870 0.85610 0.35830 -0.14800
H 	H 	0.05760 0.84660 0.42870 0.03900
C 	C 	0.98560 0.80590 0.27360 0.07900
H 	H 	0.01730 0.76260 0.28550 -0.03800
C 	C 	0.91460 0.81970 0.16950 0.07900
C 	C 	0.87110 0.88330 0.15740 -0.13700
H 	H 	0.82280 0.89560 0.08750 0.06600
C 	C 	0.89930 0.92900 0.24920 0.05200
H 	H 	0.86830 0.97150 0.24080 -0.02300
C 	C 	0.03690 0.67780 0.10890 0.13200
H 	H 	0.08800 0.68910 0.14510 -0.05600
C 	C 	0.00030 0.73550 0.11840 -0.30700
H 	H 	0.02440 0.78610 0.15690 0.10200
C 	C 	0.92580 0.71820 0.06960 0.25900
C 	C 	0.89260 0.64500 0.00740 -0.21800
H 	H 	0.84130 0.63230 0.96920 0.06400
C 	C 	0.93460 0.59200 0.00210 0.23900
H 	H 	0.91110 0.54240 0.96040 -0.09600
C 	C 	0.95080 0.15040 0.34470 0.10500
H 	H 	0.99710 0.13790 0.36370 -0.01000
C 	C 	0.91010 0.21960 0.27990 -0.20400
H 	H 	0.92830 0.25330 0.25480 0.10000
C 	C 	0.84260 0.23930 0.25180 0.19800
C 	C 	0.81850 0.18690 0.28990 -0.21900
H 	H 	0.77270 0.19780 0.27270 0.08600
C 	C 	0.86140 0.12020 0.35170 0.11800
H 	H 	0.84320 0.08490 0.37540 -0.06300
C 	C 	0.64140 0.44550 0.02050 0.21100
H 	H 	0.61950 0.48390 0.96210 -0.10100
C 	C 	0.70560 0.40400 0.05940 -0.26300
H 	H 	0.72660 0.41340 0.02800 0.12200
C 	C 	0.73960 0.34740 0.14680 0.22500
C 	C 	0.70620 0.33840 0.18920 -0.24000
H 	H 	0.72710 0.30220 0.24930 0.09800
C 	C 	0.64170 0.38400 0.14090 0.14000
H 	H 	0.61960 0.37680 0.17090 -0.06000
C 	C 	0.19610 0.57200 0.04870 0.05400
H 	H 	0.22620 0.52670 0.09620 -0.02000
C 	C 	0.22350 0.62000 0.01260 -0.10800
H 	H 	0.27020 0.60700 0.03310 0.06000
C 	C 	0.18010 0.68820 0.94490 0.08500
C 	C 	0.11330 0.70400 0.91930 -0.15200
H 	H 	0.08340 0.75080 0.87520 0.05800
C 	C 	0.09010 0.65260 0.95730 0.00800
H 	H 	0.04360 0.66490 0.93760 -0.03000
C 	C 	0.15410 0.89920 0.71360 0.08100
H 	H 	0.17830 0.94360 0.70990 -0.02500
C 	C 	0.19770 0.85140 0.80670 -0.18400
H 	H 	0.25010 0.86260 0.86480 0.07100
C 	C 	0.16380 0.78660 0.81470 0.13000
C 	C 	0.08650 0.77210 0.72400 -0.13600
H 	H 	0.06080 0.72770 0.72460 0.04000
C 	C 	0.04930 0.82360 0.63470 -0.04100
H 	H 	0.99740 0.81220 0.57320 0.03500
C 	C 	0.21430 0.35710 0.20850 0.10400
H 	H 	0.22290 0.38000 0.26900 -0.06000
C 	C 	0.25820 0.28930 0.22930 -0.21400
H 	H 	0.29430 0.26600 0.30080 0.08800
C 	C 	0.24770 0.25720 0.14340 0.17500
C 	C 	0.19270 0.29360 0.03880 -0.16400
H 	H 	0.18420 0.27280 0.97740 0.03500
C 	C 	0.15260 0.35820 0.02760 0.15700
H 	H 	0.11550 0.38190 0.95650 -0.09400
C 	C 	0.46840 0.14590 0.43170 0.08500
H 	H 	0.50260 0.17220 0.50150 -0.04000
C 	C 	0.40530 0.18950 0.34510 -0.20000
H 	H 	0.39790 0.24520 0.35520 0.08300
C 	C 	0.35290 0.15180 0.24340 0.18800
C 	C 	0.37140 0.07240 0.23270 -0.21600
H 	H 	0.33960 0.04610 0.16280 0.09600
C 	C 	0.43450 0.03300 0.32190 0.11700
H 	H 	0.44380 0.97810 0.31230 -0.03900
Cd	Cd	0.00275 0.99065 0.49744 1.14000
Cd	Cd	0.08613 0.50076 0.08056 1.15700
N 	N 	0.00660 0.60570 0.05210 -0.32000
N 	N 	0.88550 0.77120 0.07840 -0.23700
H 	H 	0.83650 0.77500 0.02100 0.12400
N 	N 	0.96750 0.91680 0.34900 -0.19200
N 	N 	0.92750 0.09980 0.38220 -0.26500
N 	N 	0.80460 0.30890 0.18520 -0.25300
H 	H 	0.82600 0.33240 0.16400 0.12600
N 	N 	0.60740 0.43590 0.05860 -0.28600
N 	N 	0.12940 0.58520 0.02110 -0.23400
N 	N 	0.20710 0.73600 0.90840 -0.22400
H 	H 	0.25620 0.73460 0.94780 0.09300
N 	N 	0.08030 0.88820 0.62760 -0.25800
N 	N 	0.16130 0.39230 0.11100 -0.28500
N 	N 	0.28700 0.18900 0.15060 -0.24400
H 	H 	0.26700 0.16650 0.08750 0.12600
N 	N 	0.48450 0.06650 0.42270 -0.27000
C 	C 	0.50870 0.64390 0.85830 0.11000
H 	H 	0.55760 0.65340 0.92870 -0.04800
C 	C 	0.48560 0.69410 0.77360 -0.22300
H 	H 	0.51730 0.73740 0.78550 0.09600
C 	C 	0.41460 0.68030 0.66950 0.18200
C 	C 	0.37110 0.61670 0.65740 -0.21800
H 	H 	0.32280 0.60440 0.58750 0.08500
C 	C 	0.39930 0.57100 0.74920 0.09600
H 	H 	0.36830 0.52850 0.74080 -0.04100
C 	C 	0.53690 0.82220 0.60890 0.09200
H 	H 	0.58800 0.81090 0.64510 -0.04700
C 	C 	0.50030 0.76450 0.61840 -0.20700
H 	H 	0.52440 0.71390 0.65690 0.07600
C 	C 	0.42580 0.78180 0.56960 0.17500
C 	C 	0.39260 0.85500 0.50740 -0.20500
H 	H 	0.34130 0.86770 0.46920 0.08600
C 	C 	0.43460 0.90800 0.50210 0.09700
H 	H 	0.41110 0.95760 0.46040 -0.03300
C 	C 	0.45080 0.34960 0.84470 0.09200
H 	H 	0.49710 0.36210 0.86370 -0.04000
C 	C 	0.41010 0.28040 0.77990 -0.21100
H 	H 	0.42830 0.24670 0.75480 0.08300
C 	C 	0.34260 0.26070 0.75180 0.18600
C 	C 	0.31850 0.31310 0.78990 -0.22200
H 	H 	0.27270 0.30220 0.77270 0.08100
C 	C 	0.36140 0.37980 0.85170 0.10900
H 	H 	0.34320 0.41510 0.87540 -0.07500
C 	C 	0.14140 0.05450 0.52050 0.10900
H 	H 	0.11950 0.01610 0.46210 -0.04700
C 	C 	0.20560 0.09600 0.55940 -0.21600
H 	H 	0.22660 0.08660 0.52800 0.09000
C 	C 	0.23960 0.15260 0.64680 0.19400
C 	C 	0.20620 0.16160 0.68920 -0.22600
H 	H 	0.22710 0.19780 0.74930 0.08800
C 	C 	0.14170 0.11600 0.64090 0.12300
H 	H 	0.11960 0.12320 0.67090 -0.06800
C 	C 	0.69610 0.92800 0.54870 0.08900
H 	H 	0.72620 0.97330 0.59620 -0.03400
C 	C 	0.72350 0.88000 0.51260 -0.20500
H 	H 	0.77020 0.89300 0.53310 0.08200
C 	C 	0.68010 0.81180 0.44490 0.17800
C 	C 	0.61330 0.79600 0.41930 -0.21100
H 	H 	0.58340 0.74920 0.37520 0.09600
C 	C 	0.59010 0.84740 0.45730 0.09500
H 	H 	0.54360 0.83510 0.43760 -0.02800
C 	C 	0.65410 0.60080 0.21360 0.10600
H 	H 	0.67830 0.55640 0.20990 -0.02700
C 	C 	0.69770 0.64860 0.30670 -0.21300
H 	H 	0.75010 0.63740 0.36480 0.09100
C 	C 	0.66380 0.71340 0.31470 0.17500
C 	C 	0.58650 0.72790 0.22400 -0.21200
H 	H 	0.56080 0.77230 0.22460 0.08200
C 	C 	0.54930 0.67640 0.13470 0.09800
H 	H 	0.49740 0.68780 0.07320 -0.04300
C 	C 	0.71430 0.14290 0.70850 0.10900
H 	H 	0.72290 0.12000 0.76900 -0.06400
C 	C 	0.75820 0.21070 0.72930 -0.22300
H 	H 	0.79430 0.23400 0.80080 0.08900
C 	C 	0.74770 0.24280 0.64340 0.19200
C 	C 	0.69270 0.20640 0.53880 -0.22000
H 	H 	0.68420 0.22720 0.47740 0.08600
C 	C 	0.65260 0.14180 0.52760 0.11100
H 	H 	0.61550 0.11810 0.45650 -0.04000
C 	C 	0.96840 0.35410 0.93170 0.12100
H 	H 	0.00260 0.32780 0.00150 -0.06200
C 	C 	0.90530 0.31050 0.84510 -0.21500
H 	H 	0.89790 0.25480 0.85520 0.09000
C 	C 	0.85290 0.34820 0.74340 0.19300
C 	C 	0.87140 0.42760 0.73270 -0.21600
H 	H 	0.83960 0.45390 0.66280 0.09300
C 	C 	0.93450 0.46700 0.82190 0.12100
H 	H 	0.94380 0.52190 0.81230 -0.03100
Cd	Cd	0.50275 0.50935 0.99744 1.14600
Cd	Cd	0.58613 0.99924 0.58056 1.15700
N 	N 	0.50660 0.89430 0.55210 -0.27100
N 	N 	0.38550 0.72880 0.57840 -0.24900
H 	H 	0.33650 0.72500 0.52100 0.11200
N 	N 	0.46750 0.58320 0.84900 -0.28200
N 	N 	0.42750 0.40020 0.88220 -0.28300
N 	N 	0.30460 0.19110 0.68520 -0.24800
H 	H 	0.32600 0.16760 0.66400 0.11500
N 	N 	0.10740 0.06410 0.55860 -0.28700
N 	N 	0.62940 0.91480 0.52110 -0.27200
N 	N 	0.70710 0.76400 0.40840 -0.24700
H 	H 	0.75620 0.76540 0.44780 0.11400
N 	N 	0.58030 0.61180 0.12760 -0.26800
N 	N 	0.66130 0.10770 0.61100 -0.28000
N 	N 	0.78700 0.31100 0.65060 -0.24700
H 	H 	0.76700 0.33350 0.58750 0.11700
N 	N 	0.98450 0.43350 0.92270 -0.26700
C 	C 	0.50870 0.35610 0.35830 0.11100
H 	H 	0.55760 0.34660 0.42870 -0.03500
C 	C 	0.48560 0.30590 0.27360 -0.22100
H 	H 	0.51730 0.26260 0.28550 0.09900
C 	C 	0.41460 0.31970 0.16950 0.18800
C 	C 	0.37110 0.38330 0.15740 -0.21900
H 	H 	0.32280 0.39560 0.08750 0.09300
C 	C 	0.39930 0.42900 0.24920 0.09900
H 	H 	0.36830 0.47150 0.24080 -0.04000
C 	C 	0.53690 0.17780 0.10890 0.09300
H 	H 	0.58800 0.18910 0.14510 -0.04100
C 	C 	0.50030 0.23550 0.11840 -0.19700
H 	H 	0.52440 0.28610 0.15690 0.07800
C 	C 	0.42580 0.21820 0.06960 0.16400
C 	C 	0.39260 0.14500 0.00740 -0.14600
H 	H 	0.34130 0.13230 0.96920 0.03700
C 	C 	0.43460 0.09200 0.00210 0.14500
H 	H 	0.41110 0.04240 0.96040 -0.07400
C 	C 	0.45080 0.65040 0.34470 0.09800
H 	H 	0.49710 0.63790 0.36370 -0.03300
C 	C 	0.41010 0.71960 0.27990 -0.20900
H 	H 	0.42830 0.75330 0.25480 0.08800
C 	C 	0.34260 0.73930 0.25180 0.19500
C 	C 	0.31850 0.68690 0.28990 -0.22100
H 	H 	0.27270 0.69780 0.27270 0.08600
C 	C 	0.36140 0.62020 0.35170 0.11500
H 	H 	0.34320 0.58490 0.37540 -0.06800
C 	C 	0.14140 0.94550 0.02050 0.21100
H 	H 	0.11950 0.98390 0.96210 -0.11000
C 	C 	0.20560 0.90400 0.05940 -0.26500
H 	H 	0.22660 0.91340 0.02800 0.12100
C 	C 	0.23960 0.84740 0.14680 0.22400
C 	C 	0.20620 0.83840 0.18920 -0.24200
H 	H 	0.22710 0.80220 0.24930 0.09800
C 	C 	0.14170 0.88400 0.14090 0.13800
H 	H 	0.11960 0.87680 0.17090 -0.06600
C 	C 	0.69610 0.07200 0.04870 0.06000
H 	H 	0.72620 0.02670 0.09620 -0.02100
C 	C 	0.72350 0.12000 0.01260 -0.11700
H 	H 	0.77020 0.10700 0.03310 0.06500
C 	C 	0.68010 0.18820 0.94490 0.09600
C 	C 	0.61330 0.20400 0.91930 -0.15700
H 	H 	0.58340 0.25080 0.87520 0.07200
C 	C 	0.59010 0.15260 0.95730 0.01900
H 	H 	0.54360 0.16490 0.93760 -0.01500
C 	C 	0.65410 0.39920 0.71360 0.09900
H 	H 	0.67830 0.44360 0.70990 -0.02900
C 	C 	0.69770 0.35140 0.80670 -0.20900
H 	H 	0.75010 0.36260 0.86480 0.08200
C 	C 	0.66380 0.28660 0.81470 0.16400
C 	C 	0.58650 0.27210 0.72400 -0.20800
H 	H 	0.56080 0.22770 0.72460 0.07800
C 	C 	0.54930 0.32360 0.63470 0.09400
H 	H 	0.49740 0.31220 0.57320 -0.05400
C 	C 	0.71430 0.85710 0.20850 0.10500
H 	H 	0.72290 0.88000 0.26900 -0.05800
C 	C 	0.75820 0.78930 0.22930 -0.21500
H 	H 	0.79430 0.76600 0.30080 0.09000
C 	C 	0.74770 0.75720 0.14340 0.17900
C 	C 	0.69270 0.79360 0.03880 -0.16600
H 	H 	0.68420 0.77280 0.97740 0.04000
C 	C 	0.65260 0.85820 0.02760 0.15300
H 	H 	0.61550 0.88190 0.95650 -0.08000
C 	C 	0.96840 0.64590 0.43170 0.21900
H 	H 	0.00260 0.67220 0.50150 -0.12500
C 	C 	0.90530 0.68950 0.34510 -0.26600
H 	H 	0.89790 0.74520 0.35520 0.11400
C 	C 	0.85290 0.65180 0.24340 0.21800
C 	C 	0.87140 0.57240 0.23270 -0.23300
H 	H 	0.83960 0.54610 0.16280 0.10400
C 	C 	0.93450 0.53300 0.32190 0.13300
H 	H 	0.94380 0.47810 0.31230 -0.02900
Cd	Cd	0.50275 0.49065 0.49744 1.15900
Cd	Cd	0.58613 0.00076 0.08056 1.16500
N 	N 	0.50660 0.10570 0.05210 -0.26900
N 	N 	0.38550 0.27120 0.07840 -0.24600
H 	H 	0.33650 0.27500 0.02100 0.12500
N 	N 	0.46750 0.41680 0.34900 -0.27700
N 	N 	0.42750 0.59980 0.38220 -0.27700
N 	N 	0.30460 0.80890 0.18520 -0.25300
H 	H 	0.32600 0.83240 0.16400 0.12200
N 	N 	0.10740 0.93590 0.05860 -0.29500
N 	N 	0.62940 0.08520 0.02110 -0.23300
N 	N 	0.70710 0.23600 0.90840 -0.23200
H 	H 	0.75620 0.23460 0.94780 0.09700
N 	N 	0.58030 0.38820 0.62760 -0.27600
N 	N 	0.66130 0.89230 0.11100 -0.28100
N 	N 	0.78700 0.68900 0.15060 -0.25000
H 	H 	0.76700 0.66650 0.08750 0.12800
N 	N 	0.98450 0.56650 0.42270 -0.27300
C 	C 	0.00870 0.14390 0.85830 -0.16200
H 	H 	0.05760 0.15340 0.92870 0.03100
C 	C 	0.98560 0.19410 0.77360 0.09400
H 	H 	0.01730 0.23740 0.78550 -0.04700
C 	C 	0.91460 0.18030 0.66950 0.07000
C 	C 	0.87110 0.11670 0.65740 -0.13000
H 	H 	0.82280 0.10440 0.58750 0.05900
C 	C 	0.89930 0.07100 0.74920 0.04700
H 	H 	0.86830 0.02850 0.74080 -0.02100
C 	C 	0.03690 0.32220 0.60890 0.13400
H 	H 	0.08800 0.31090 0.64510 -0.06400
C 	C 	0.00030 0.26450 0.61840 -0.32600
H 	H 	0.02440 0.21390 0.65690 0.10200
C 	C 	0.92580 0.28180 0.56960 0.27600
C 	C 	0.89260 0.35500 0.50740 -0.27800
H 	H 	0.84130 0.36770 0.46920 0.11200
C 	C 	0.93460 0.40800 0.50210 0.20100
H 	H 	0.91110 0.45760 0.46040 -0.05900
C 	C 	0.95080 0.84960 0.84470 0.09900
H 	H 	0.99710 0.86210 0.86370 -0.01700
C 	C 	0.91010 0.78040 0.77990 -0.20500
H 	H 	0.92830 0.74670 0.75480 0.09600
C 	C 	0.84260 0.76070 0.75180 0.19000
C 	C 	0.81850 0.81310 0.78990 -0.22100
H 	H 	0.77270 0.80220 0.77270 0.08100
C 	C 	0.86140 0.87980 0.85170 0.11200
H 	H 	0.84320 0.91510 0.87540 -0.07000
C 	C 	0.64140 0.55450 0.52050 0.11400
H 	H 	0.61950 0.51610 0.46210 -0.04000
C 	C 	0.70560 0.59600 0.55940 -0.21600
H 	H 	0.72660 0.58660 0.52800 0.09200
C 	C 	0.73960 0.65260 0.64680 0.19600
C 	C 	0.70620 0.66160 0.68920 -0.22500
H 	H 	0.72710 0.69780 0.74930 0.08800
C 	C 	0.64170 0.61600 0.64090 0.12500
H 	H 	0.61960 0.62320 0.67090 -0.06200
C 	C 	0.19610 0.42800 0.54870 0.08500
H 	H 	0.22620 0.47330 0.59620 -0.03400
C 	C 	0.22350 0.38000 0.51260 -0.20300
H 	H 	0.27020 0.39300 0.53310 0.07900
C 	C 	0.18010 0.31180 0.44490 0.17300
C 	C 	0.11330 0.29600 0.41930 -0.21100
H 	H 	0.08340 0.24920 0.37520 0.08400
C 	C 	0.09010 0.34740 0.45730 0.09000
H 	H 	0.04360 0.33510 0.43760 -0.04300
C 	C 	0.15410 0.10080 0.21360 0.08900
H 	H 	0.17830 0.05640 0.20990 -0.02300
C 	C 	0.19770 0.14860 0.30670 -0.19000
H 	H 	0.25010 0.13740 0.36480 0.08100
C 	C 	0.16380 0.21340 0.31470 0.14400
C 	C 	0.08650 0.22790 0.22400 -0.14500
H 	H 	0.06080 0.27230 0.22460 0.04700
C 	C 	0.04930 0.17640 0.13470 -0.02700
H 	H 	0.99740 0.18780 0.07320 0.04000
C 	C 	0.21430 0.64290 0.70850 0.10900
H 	H 	0.22290 0.62000 0.76900 -0.06700
C 	C 	0.25820 0.71070 0.72930 -0.22200
H 	H 	0.29430 0.73400 0.80080 0.08800
C 	C 	0.24770 0.74280 0.64340 0.18900
C 	C 	0.19270 0.70640 0.53880 -0.22200
H 	H 	0.18420 0.72720 0.47740 0.08500
C 	C 	0.15260 0.64180 0.52760 0.11000
H 	H 	0.11550 0.61810 0.45650 -0.05000
C 	C 	0.46840 0.85410 0.93170 -0.00700
H 	H 	0.50260 0.82780 0.00150 0.01800
C 	C 	0.40530 0.81050 0.84510 -0.15100
H 	H 	0.39790 0.75480 0.85520 0.05900
C 	C 	0.35290 0.84820 0.74340 0.16300
C 	C 	0.37140 0.92760 0.73270 -0.19800
H 	H 	0.33960 0.95390 0.66280 0.08500
C 	C 	0.43450 0.96700 0.82190 0.10300
H 	H 	0.44380 0.02190 0.81230 -0.04000
Cd	Cd	0.00275 0.00935 0.99744 1.12500
Cd	Cd	0.08613 0.49924 0.58056 1.14800
N 	N 	0.00660 0.39430 0.55210 -0.32600
N 	N 	0.88550 0.22880 0.57840 -0.24000
H 	H 	0.83650 0.22500 0.52100 0.11200
N 	N 	0.96750 0.08320 0.84900 -0.19200
N 	N 	0.92750 0.90020 0.88220 -0.27100
N 	N 	0.80460 0.69110 0.68520 -0.24900
H 	H 	0.82600 0.66760 0.66400 0.11800
N 	N 	0.60740 0.56410 0.55860 -0.27900
N 	N 	0.12940 0.41480 0.52110 -0.27600
N 	N 	0.20710 0.26400 0.40840 -0.24000
H 	H 	0.25620 0.26540 0.44780 0.11000
N 	N 	0.08030 0.11180 0.12760 -0.25100
N 	N 	0.16130 0.60770 0.61100 -0.28400
N 	N 	0.28700 0.81100 0.65060 -0.24200
H 	H 	0.26700 0.83350 0.58750 0.11500
N 	N 	0.48450 0.93350 0.92270 -0.26400
