data_crystal

_cell_length_a 17.26800
_cell_length_b 15.46500
_cell_length_c 17.92900
_cell_angle_alpha 90.00000
_cell_angle_beta  90.00000
_cell_angle_gamma 90.00000

_symmetry_space_group_name_	'P 1'
_symmetry_space_group_name_H-M	'P 1'

loop_
_symmetry_equiv_pos_as_xyz
  x,y,z

loop_
_atom_site_label
_atom_site_type_symbol
_atom_site_fract_x
_atom_site_fract_y
_atom_site_fract_z
_atom_site_charge
C 	C 	0.78780 0.03070 0.89500 0.10500
H 	H 	0.80880 0.97640 0.90430 -0.02700
C 	C 	0.81060 0.07330 0.83130 -0.21300
H 	H 	0.84560 0.04770 0.79850 0.08300
C 	C 	0.78040 0.15610 0.81640 0.18800
C 	C 	0.72950 0.19110 0.86910 -0.21900
H 	H 	0.70910 0.24620 0.86260 0.09900
C 	C 	0.71010 0.14260 0.93090 0.10400
H 	H 	0.67610 0.16690 0.96530 -0.05300
C 	C 	0.67940 0.37190 0.67970 0.11600
H 	H 	0.63040 0.39530 0.68690 -0.05900
C 	C 	0.70160 0.30480 0.72510 -0.22200
H 	H 	0.66830 0.28360 0.76150 0.09900
C 	C 	0.77550 0.26900 0.71543 0.18900
C 	C 	0.82300 0.30600 0.66090 -0.22900
H 	H 	0.87310 0.28560 0.65400 0.08800
C 	C 	0.79530 0.37230 0.61770 0.11700
H 	H 	0.82760 0.39520 0.58110 -0.03800
C 	C 	0.81880 0.91810 0.15194 0.10700
H 	H 	0.79100 0.95350 0.18420 -0.03800
C 	C 	0.88620 0.88200 0.17740 -0.21400
H 	H 	0.90340 0.89370 0.22550 0.08800
C 	C 	0.92940 0.82710 0.13050 0.18200
C 	C 	0.89870 0.81170 0.05880 -0.21500
H 	H 	0.92400 0.77490 0.02580 0.08700
C 	C 	0.83100 0.85190 0.03840 0.10200
H 	H 	0.81210 0.84150 0.99070 -0.02800
C 	C 	0.11660 0.69540 0.00980 0.10400
H 	H 	0.13090 0.70760 0.96090 -0.05700
C 	C 	0.07010 0.75430 0.04620 -0.23600
H 	H 	0.05480 0.80510 0.02260 0.10500
C 	C 	0.04660 0.73650 0.11850 0.19400
C 	C 	0.07560 0.66260 0.15210 -0.23700
H 	H 	0.06370 0.65020 0.20150 0.09900
C 	C 	0.12240 0.60730 0.11130 0.10100
H 	H 	0.14080 0.55760 0.13440 -0.03800
N 	N 	0.73707 0.06273 0.94482 -0.26800
N 	N 	0.80443 0.19700 0.75240 -0.25200
H 	H 	0.84440 0.17410 0.73170 0.10200
N 	N 	0.72368 0.40610 0.62552 -0.27700
N 	N 	0.79029 0.90537 0.08254 -0.27000
N 	N 	0.99541 0.78980 0.15786 -0.25900
H 	H 	0.00650 0.80010 0.20380 0.11800
N 	N 	0.14249 0.62200 0.04008 -0.27900
Cd	Cd	0.68298 0.98433 0.04444 1.15100
C 	C 	0.28780 0.46930 0.10500 0.11500
H 	H 	0.30880 0.52360 0.09570 -0.03600
C 	C 	0.31060 0.42670 0.16870 -0.22000
H 	H 	0.34560 0.45230 0.20150 0.08500
C 	C 	0.28040 0.34390 0.18360 0.19000
C 	C 	0.22950 0.30890 0.13090 -0.22100
H 	H 	0.20910 0.25380 0.13740 0.10000
C 	C 	0.21010 0.35740 0.06910 0.10600
H 	H 	0.17610 0.33310 0.03470 -0.05200
C 	C 	0.17940 0.12810 0.32030 0.11600
H 	H 	0.13040 0.10470 0.31310 -0.05800
C 	C 	0.20160 0.19520 0.27490 -0.22200
H 	H 	0.16830 0.21640 0.23850 0.09900
C 	C 	0.27550 0.23100 0.28457 0.18900
C 	C 	0.32300 0.19400 0.33910 -0.22900
H 	H 	0.37310 0.21440 0.34600 0.08900
C 	C 	0.29530 0.12770 0.38230 0.11700
H 	H 	0.32760 0.10480 0.41890 -0.03800
C 	C 	0.31880 0.58190 0.84806 0.10800
H 	H 	0.29100 0.54650 0.81580 -0.03800
C 	C 	0.38620 0.61800 0.82260 -0.21700
H 	H 	0.40340 0.60630 0.77450 0.08900
C 	C 	0.42940 0.67290 0.86950 0.18500
C 	C 	0.39870 0.68830 0.94120 -0.22200
H 	H 	0.42400 0.72510 0.97420 0.09100
C 	C 	0.33100 0.64810 0.96160 0.11500
H 	H 	0.31210 0.65850 0.00930 -0.03600
C 	C 	0.61660 0.80460 0.99020 0.10900
H 	H 	0.63090 0.79240 0.03910 -0.06000
C 	C 	0.57010 0.74570 0.95380 -0.23900
H 	H 	0.55480 0.69490 0.97740 0.10700
C 	C 	0.54660 0.76350 0.88150 0.19400
C 	C 	0.57560 0.83740 0.84790 -0.23700
H 	H 	0.56370 0.84980 0.79850 0.09900
C 	C 	0.62240 0.89270 0.88870 0.10100
H 	H 	0.64080 0.94240 0.86560 -0.03700
N 	N 	0.23707 0.43727 0.05518 -0.26900
N 	N 	0.30443 0.30300 0.24760 -0.25300
H 	H 	0.34440 0.32590 0.26830 0.10300
N 	N 	0.22368 0.09390 0.37448 -0.27600
N 	N 	0.29029 0.59463 0.91746 -0.27200
N 	N 	0.49541 0.71020 0.84214 -0.25800
H 	H 	0.50650 0.69990 0.79620 0.11800
N 	N 	0.64249 0.87800 0.95992 -0.27900
Cd	Cd	0.18298 0.51567 0.95557 1.15100
C 	C 	0.28780 0.03070 0.60500 0.11600
H 	H 	0.30880 0.97640 0.59570 -0.03600
C 	C 	0.31060 0.07330 0.66870 -0.22100
H 	H 	0.34560 0.04770 0.70150 0.08500
C 	C 	0.28040 0.15610 0.68360 0.19000
C 	C 	0.22950 0.19110 0.63090 -0.22100
H 	H 	0.20910 0.24620 0.63740 0.10000
C 	C 	0.21010 0.14260 0.56910 0.10600
H 	H 	0.17610 0.16690 0.53470 -0.05300
C 	C 	0.17940 0.37190 0.82030 0.11600
H 	H 	0.13040 0.39530 0.81310 -0.06000
C 	C 	0.20160 0.30480 0.77490 -0.22200
H 	H 	0.16830 0.28360 0.73850 0.09900
C 	C 	0.27550 0.26900 0.78457 0.18900
C 	C 	0.32300 0.30600 0.83910 -0.22900
H 	H 	0.37310 0.28560 0.84600 0.08800
C 	C 	0.29530 0.37230 0.88230 0.11600
H 	H 	0.32760 0.39520 0.91890 -0.03900
C 	C 	0.31880 0.91810 0.34806 0.10800
H 	H 	0.29100 0.95350 0.31580 -0.03900
C 	C 	0.38620 0.88200 0.32260 -0.21600
H 	H 	0.40340 0.89370 0.27450 0.08900
C 	C 	0.42940 0.82710 0.36950 0.18500
C 	C 	0.39870 0.81170 0.44120 -0.22100
H 	H 	0.42400 0.77490 0.47420 0.09100
C 	C 	0.33100 0.85190 0.46160 0.11400
H 	H 	0.31210 0.84150 0.50930 -0.03600
C 	C 	0.61660 0.69540 0.49020 0.10100
H 	H 	0.63090 0.70760 0.53910 -0.05500
C 	C 	0.57010 0.75430 0.45380 -0.23500
H 	H 	0.55480 0.80510 0.47740 0.10500
C 	C 	0.54660 0.73650 0.38150 0.19200
C 	C 	0.57560 0.66260 0.34790 -0.23600
H 	H 	0.56370 0.65020 0.29850 0.09900
C 	C 	0.62240 0.60730 0.38870 0.10000
H 	H 	0.64080 0.55760 0.36560 -0.03800
N 	N 	0.23707 0.06273 0.55518 -0.26900
N 	N 	0.30443 0.19700 0.74760 -0.25300
H 	H 	0.34440 0.17410 0.76830 0.10200
N 	N 	0.22368 0.40610 0.87448 -0.27700
N 	N 	0.29029 0.90537 0.41746 -0.27200
N 	N 	0.49541 0.78980 0.34214 -0.25800
H 	H 	0.50650 0.80010 0.29620 0.11700
N 	N 	0.64249 0.62200 0.45992 -0.27900
Cd	Cd	0.18298 0.98433 0.45557 1.15100
C 	C 	0.78780 0.46930 0.39500 0.11500
H 	H 	0.80880 0.52360 0.40430 -0.03600
C 	C 	0.81060 0.42670 0.33130 -0.22000
H 	H 	0.84560 0.45230 0.29850 0.08500
C 	C 	0.78040 0.34390 0.31640 0.19000
C 	C 	0.72950 0.30890 0.36910 -0.22100
H 	H 	0.70910 0.25380 0.36260 0.10000
C 	C 	0.71010 0.35740 0.43090 0.10600
H 	H 	0.67610 0.33310 0.46530 -0.05300
C 	C 	0.67940 0.12810 0.17970 0.11600
H 	H 	0.63040 0.10470 0.18690 -0.05900
C 	C 	0.70160 0.19520 0.22510 -0.22200
H 	H 	0.66830 0.21640 0.26150 0.09900
C 	C 	0.77550 0.23100 0.21543 0.18900
C 	C 	0.82300 0.19400 0.16090 -0.22800
H 	H 	0.87310 0.21440 0.15400 0.08800
C 	C 	0.79530 0.12770 0.11770 0.11700
H 	H 	0.82760 0.10480 0.08110 -0.03800
C 	C 	0.81880 0.58190 0.65194 0.10800
H 	H 	0.79100 0.54650 0.68420 -0.03800
C 	C 	0.88620 0.61800 0.67740 -0.21600
H 	H 	0.90340 0.60630 0.72550 0.09000
C 	C 	0.92940 0.67290 0.63050 0.18500
C 	C 	0.89870 0.68830 0.55880 -0.22100
H 	H 	0.92400 0.72510 0.52580 0.09100
C 	C 	0.83100 0.64810 0.53840 0.11400
H 	H 	0.81210 0.65850 0.49070 -0.03600
C 	C 	0.11660 0.80460 0.50980 0.10000
H 	H 	0.13090 0.79240 0.46090 -0.05500
C 	C 	0.07010 0.74570 0.54620 -0.23300
H 	H 	0.05480 0.69490 0.52260 0.10400
C 	C 	0.04660 0.76350 0.61850 0.18900
C 	C 	0.07560 0.83740 0.65210 -0.23400
H 	H 	0.06370 0.84980 0.70150 0.09800
C 	C 	0.12240 0.89270 0.61130 0.09900
H 	H 	0.14080 0.94240 0.63440 -0.03700
N 	N 	0.73707 0.43727 0.44482 -0.27000
N 	N 	0.80443 0.30300 0.25240 -0.25300
H 	H 	0.84440 0.32590 0.23170 0.10200
N 	N 	0.72368 0.09390 0.12552 -0.27600
N 	N 	0.79029 0.59463 0.58254 -0.27100
N 	N 	0.99541 0.71020 0.65786 -0.25500
H 	H 	0.00650 0.69990 0.70380 0.11500
N 	N 	0.14249 0.87800 0.54008 -0.27900
Cd	Cd	0.68298 0.51567 0.54444 1.15200
C 	C 	0.71220 0.96930 0.39500 0.11600
H 	H 	0.69120 0.02360 0.40430 -0.03600
C 	C 	0.68940 0.92670 0.33130 -0.22100
H 	H 	0.65440 0.95230 0.29850 0.08500
C 	C 	0.71960 0.84390 0.31640 0.19000
C 	C 	0.77050 0.80890 0.36910 -0.22100
H 	H 	0.79090 0.75380 0.36260 0.10000
C 	C 	0.78990 0.85740 0.43090 0.10600
H 	H 	0.82390 0.83310 0.46530 -0.05300
C 	C 	0.82060 0.62810 0.17970 0.11600
H 	H 	0.86960 0.60470 0.18690 -0.06000
C 	C 	0.79840 0.69520 0.22510 -0.22200
H 	H 	0.83170 0.71640 0.26150 0.09900
C 	C 	0.72450 0.73100 0.21543 0.18900
C 	C 	0.67700 0.69400 0.16090 -0.22900
H 	H 	0.62690 0.71440 0.15400 0.08800
C 	C 	0.70470 0.62770 0.11770 0.11600
H 	H 	0.67240 0.60480 0.08110 -0.03900
C 	C 	0.68120 0.08190 0.65194 0.10800
H 	H 	0.70900 0.04650 0.68420 -0.03900
C 	C 	0.61380 0.11800 0.67740 -0.21600
H 	H 	0.59660 0.10630 0.72550 0.08900
C 	C 	0.57060 0.17290 0.63050 0.18500
C 	C 	0.60130 0.18830 0.55880 -0.22100
H 	H 	0.57600 0.22510 0.52580 0.09100
C 	C 	0.66900 0.14810 0.53840 0.11400
H 	H 	0.68790 0.15850 0.49070 -0.03600
C 	C 	0.38340 0.30460 0.50980 0.10100
H 	H 	0.36910 0.29240 0.46090 -0.05500
C 	C 	0.42990 0.24570 0.54620 -0.23500
H 	H 	0.44520 0.19490 0.52260 0.10500
C 	C 	0.45340 0.26350 0.61850 0.19200
C 	C 	0.42440 0.33740 0.65210 -0.23600
H 	H 	0.43630 0.34980 0.70150 0.09900
C 	C 	0.37760 0.39270 0.61130 0.10000
H 	H 	0.35920 0.44240 0.63440 -0.03800
N 	N 	0.76293 0.93727 0.44482 -0.26900
N 	N 	0.69557 0.80300 0.25240 -0.25300
H 	H 	0.65560 0.82590 0.23170 0.10200
N 	N 	0.77632 0.59390 0.12552 -0.27700
N 	N 	0.70971 0.09463 0.58254 -0.27200
N 	N 	0.50459 0.21020 0.65786 -0.25800
H 	H 	0.49350 0.19990 0.70380 0.11700
N 	N 	0.35751 0.37800 0.54008 -0.27900
Cd	Cd	0.81702 0.01567 0.54444 1.15100
C 	C 	0.21220 0.53070 0.60500 0.11500
H 	H 	0.19120 0.47640 0.59570 -0.03600
C 	C 	0.18940 0.57330 0.66870 -0.22000
H 	H 	0.15440 0.54770 0.70150 0.08500
C 	C 	0.21960 0.65610 0.68360 0.19000
C 	C 	0.27050 0.69110 0.63090 -0.22100
H 	H 	0.29090 0.74620 0.63740 0.10000
C 	C 	0.28990 0.64260 0.56910 0.10600
H 	H 	0.32390 0.66690 0.53470 -0.05300
C 	C 	0.32060 0.87190 0.82030 0.11600
H 	H 	0.36960 0.89530 0.81310 -0.05900
C 	C 	0.29840 0.80480 0.77490 -0.22200
H 	H 	0.33170 0.78360 0.73850 0.09900
C 	C 	0.22450 0.76900 0.78457 0.18900
C 	C 	0.17700 0.80600 0.83910 -0.22800
H 	H 	0.12690 0.78560 0.84600 0.08800
C 	C 	0.20470 0.87230 0.88230 0.11700
H 	H 	0.17240 0.89520 0.91890 -0.03800
C 	C 	0.18120 0.41810 0.34806 0.10800
H 	H 	0.20900 0.45350 0.31580 -0.03800
C 	C 	0.11380 0.38200 0.32260 -0.21600
H 	H 	0.09660 0.39370 0.27450 0.09000
C 	C 	0.07060 0.32710 0.36950 0.18500
C 	C 	0.10130 0.31170 0.44120 -0.22100
H 	H 	0.07600 0.27490 0.47420 0.09100
C 	C 	0.16900 0.35190 0.46160 0.11400
H 	H 	0.18790 0.34150 0.50930 -0.03600
C 	C 	0.88340 0.19540 0.49020 0.10000
H 	H 	0.86910 0.20760 0.53910 -0.05500
C 	C 	0.92990 0.25430 0.45380 -0.23300
H 	H 	0.94520 0.30510 0.47740 0.10400
C 	C 	0.95340 0.23650 0.38150 0.18900
C 	C 	0.92440 0.16260 0.34790 -0.23400
H 	H 	0.93630 0.15020 0.29850 0.09800
C 	C 	0.87760 0.10730 0.38870 0.09900
H 	H 	0.85920 0.05760 0.36560 -0.03700
N 	N 	0.26293 0.56273 0.55518 -0.27000
N 	N 	0.19557 0.69700 0.74760 -0.25300
H 	H 	0.15560 0.67410 0.76830 0.10200
N 	N 	0.27632 0.90610 0.87448 -0.27600
N 	N 	0.20971 0.40537 0.41746 -0.27100
N 	N 	0.00459 0.28980 0.34214 -0.25500
H 	H 	0.99350 0.30010 0.29620 0.11500
N 	N 	0.85751 0.12200 0.45992 -0.27900
Cd	Cd	0.31702 0.48433 0.45557 1.15200
C 	C 	0.21220 0.96930 0.10500 0.10400
H 	H 	0.19120 0.02360 0.09570 -0.02800
C 	C 	0.18940 0.92670 0.16870 -0.21400
H 	H 	0.15440 0.95230 0.20150 0.08200
C 	C 	0.21960 0.84390 0.18360 0.18800
C 	C 	0.27050 0.80890 0.13090 -0.21900
H 	H 	0.29090 0.75380 0.13740 0.09900
C 	C 	0.28990 0.85740 0.06910 0.10400
H 	H 	0.32390 0.83310 0.03470 -0.05300
C 	C 	0.32060 0.62810 0.32030 0.11600
H 	H 	0.36960 0.60470 0.31310 -0.05900
C 	C 	0.29840 0.69520 0.27490 -0.22200
H 	H 	0.33170 0.71640 0.23850 0.09900
C 	C 	0.22450 0.73100 0.28457 0.18900
C 	C 	0.17700 0.69400 0.33910 -0.22900
H 	H 	0.12690 0.71440 0.34600 0.08800
C 	C 	0.20470 0.62770 0.38230 0.11700
H 	H 	0.17240 0.60480 0.41890 -0.03800
C 	C 	0.18120 0.08190 0.84806 0.10700
H 	H 	0.20900 0.04650 0.81580 -0.03800
C 	C 	0.11380 0.11800 0.82260 -0.21400
H 	H 	0.09660 0.10630 0.77450 0.08800
C 	C 	0.07060 0.17290 0.86950 0.18200
C 	C 	0.10130 0.18830 0.94120 -0.21500
H 	H 	0.07600 0.22510 0.97420 0.08700
C 	C 	0.16900 0.14810 0.96160 0.10200
H 	H 	0.18790 0.15850 0.00930 -0.02800
C 	C 	0.88340 0.30460 0.99020 0.10400
H 	H 	0.86910 0.29240 0.03910 -0.05700
C 	C 	0.92990 0.24570 0.95380 -0.23600
H 	H 	0.94520 0.19490 0.97740 0.10500
C 	C 	0.95340 0.26350 0.88150 0.19400
C 	C 	0.92440 0.33740 0.84790 -0.23700
H 	H 	0.93630 0.34980 0.79850 0.09900
C 	C 	0.87760 0.39270 0.88870 0.10100
H 	H 	0.85920 0.44240 0.86560 -0.03800
N 	N 	0.26293 0.93727 0.05518 -0.26800
N 	N 	0.19557 0.80300 0.24760 -0.25200
H 	H 	0.15560 0.82590 0.26830 0.10200
N 	N 	0.27632 0.59390 0.37448 -0.27700
N 	N 	0.20971 0.09463 0.91746 -0.27000
N 	N 	0.00459 0.21020 0.84214 -0.25900
H 	H 	0.99350 0.19990 0.79620 0.11800
N 	N 	0.85751 0.37800 0.95992 -0.27900
Cd	Cd	0.31702 0.01567 0.95557 1.15100
C 	C 	0.71220 0.53070 0.89500 0.11500
H 	H 	0.69120 0.47640 0.90430 -0.03600
C 	C 	0.68940 0.57330 0.83130 -0.22000
H 	H 	0.65440 0.54770 0.79850 0.08500
C 	C 	0.71960 0.65610 0.81640 0.19000
C 	C 	0.77050 0.69110 0.86910 -0.22100
H 	H 	0.79090 0.74620 0.86260 0.10000
C 	C 	0.78990 0.64260 0.93090 0.10600
H 	H 	0.82390 0.66690 0.96530 -0.05200
C 	C 	0.82060 0.87190 0.67970 0.11600
H 	H 	0.86960 0.89530 0.68690 -0.05800
C 	C 	0.79840 0.80480 0.72510 -0.22200
H 	H 	0.83170 0.78360 0.76150 0.09900
C 	C 	0.72450 0.76900 0.71543 0.18900
C 	C 	0.67700 0.80600 0.66090 -0.22900
H 	H 	0.62690 0.78560 0.65400 0.08900
C 	C 	0.70470 0.87230 0.61770 0.11700
H 	H 	0.67240 0.89520 0.58110 -0.03800
C 	C 	0.68120 0.41810 0.15194 0.10800
H 	H 	0.70900 0.45350 0.18420 -0.03800
C 	C 	0.61380 0.38200 0.17740 -0.21700
H 	H 	0.59660 0.39370 0.22550 0.08900
C 	C 	0.57060 0.32710 0.13050 0.18500
C 	C 	0.60130 0.31170 0.05880 -0.22200
H 	H 	0.57600 0.27490 0.02580 0.09100
C 	C 	0.66900 0.35190 0.03840 0.11500
H 	H 	0.68790 0.34150 0.99070 -0.03600
C 	C 	0.38340 0.19540 0.00980 0.10900
H 	H 	0.36910 0.20760 0.96090 -0.06000
C 	C 	0.42990 0.25430 0.04620 -0.23900
H 	H 	0.44520 0.30510 0.02260 0.10700
C 	C 	0.45340 0.23650 0.11850 0.19400
C 	C 	0.42440 0.16260 0.15210 -0.23700
H 	H 	0.43630 0.15020 0.20150 0.09900
C 	C 	0.37760 0.10730 0.11130 0.10100
H 	H 	0.35920 0.05760 0.13440 -0.03700
N 	N 	0.76293 0.56273 0.94482 -0.26900
N 	N 	0.69557 0.69700 0.75240 -0.25300
H 	H 	0.65560 0.67410 0.73170 0.10300
N 	N 	0.77632 0.90610 0.62552 -0.27600
N 	N 	0.70971 0.40537 0.08254 -0.27200
N 	N 	0.50459 0.28980 0.15786 -0.25800
H 	H 	0.49350 0.30010 0.20380 0.11800
N 	N 	0.35751 0.12200 0.04008 -0.27900
Cd	Cd	0.81702 0.48433 0.04444 1.15100
