data_crystal

_cell_length_a 35.08580
_cell_length_b 35.08580
_cell_length_c 35.08580
_cell_angle_alpha 60.00000
_cell_angle_beta  60.00000
_cell_angle_gamma 60.00000

_symmetry_space_group_name_	'P 1'
_symmetry_space_group_name_H-M	'P 1'

loop_
_symmetry_equiv_pos_as_xyz
  x,y,z

loop_
_atom_site_label
_atom_site_type_symbol
_atom_site_fract_x
_atom_site_fract_y
_atom_site_fract_z
_atom_site_charge
Cu	Cu	0.50993 0.03637 0.49007 0.91700
Cu	Cu	0.03637 0.50993 0.96363 0.91700
Cu	Cu	0.49007 0.96363 0.50993 0.91700
Cu	Cu	0.96363 0.49007 0.03637 0.91700
Cu	Cu	0.50993 0.49007 0.96363 0.91700
Cu	Cu	0.03637 0.96363 0.49007 0.91700
Cu	Cu	0.49007 0.50993 0.03637 0.91700
Cu	Cu	0.96363 0.03637 0.50993 0.91700
Cu	Cu	0.50993 0.96363 0.03637 0.91700
Cu	Cu	0.03637 0.49007 0.50993 0.91700
Cu	Cu	0.49007 0.03637 0.96363 0.91700
Cu	Cu	0.96363 0.50993 0.49007 0.91700
H 	H 	0.51030 0.06230 0.22730 0.13200
H 	H 	0.52670 0.11730 0.27070 0.13600
H 	H 	0.53150 0.09090 0.34190 -0.00100
H 	H 	0.49560 0.98600 0.37840 -0.00500
H 	H 	0.49180 0.00960 0.30640 0.11900
H 	H 	0.06230 0.51030 0.20010 0.13200
H 	H 	0.11730 0.52670 0.08530 0.13600
H 	H 	0.09090 0.53150 0.03570 -0.00100
H 	H 	0.98600 0.49560 0.14000 -0.00500
H 	H 	0.00960 0.49180 0.19220 0.11900
H 	H 	0.22730 0.20010 0.51030 0.13200
H 	H 	0.27070 0.08530 0.52670 0.13600
H 	H 	0.34190 0.03570 0.53150 -0.00100
H 	H 	0.37840 0.14000 0.49560 -0.00500
H 	H 	0.30640 0.19220 0.49180 0.11900
H 	H 	0.20010 0.22730 0.06230 0.13200
H 	H 	0.08530 0.27070 0.11730 0.13600
H 	H 	0.03570 0.34190 0.09090 -0.00100
H 	H 	0.14000 0.37840 0.98600 -0.00500
H 	H 	0.19220 0.30640 0.00960 0.11900
H 	H 	0.51030 0.22730 0.20010 0.13200
H 	H 	0.52670 0.27070 0.08530 0.13600
H 	H 	0.53150 0.34190 0.03570 -0.00100
H 	H 	0.49560 0.37840 0.14000 -0.00500
H 	H 	0.49180 0.30640 0.19220 0.11900
H 	H 	0.06230 0.20010 0.22730 0.13200
H 	H 	0.11730 0.08530 0.27070 0.13600
H 	H 	0.09090 0.03570 0.34190 -0.00100
H 	H 	0.98600 0.14000 0.37840 -0.00500
H 	H 	0.00960 0.19220 0.30640 0.11900
H 	H 	0.22730 0.51030 0.06230 0.13200
H 	H 	0.27070 0.52670 0.11730 0.13600
H 	H 	0.34190 0.53150 0.09090 -0.00100
H 	H 	0.37840 0.49560 0.98600 -0.00500
H 	H 	0.30640 0.49180 0.00960 0.11900
H 	H 	0.20010 0.06230 0.51030 0.13200
H 	H 	0.08530 0.11730 0.52670 0.13600
H 	H 	0.03570 0.09090 0.53150 -0.00100
H 	H 	0.14000 0.98600 0.49560 -0.00500
H 	H 	0.19220 0.00960 0.49180 0.11900
H 	H 	0.51030 0.20010 0.06230 0.13200
H 	H 	0.52670 0.08530 0.11730 0.13600
H 	H 	0.53150 0.03570 0.09090 -0.00100
H 	H 	0.49560 0.14000 0.98600 -0.00500
H 	H 	0.49180 0.19220 0.00960 0.11900
H 	H 	0.06230 0.22730 0.51030 0.13200
H 	H 	0.11730 0.27070 0.52670 0.13600
H 	H 	0.09090 0.34190 0.53150 -0.00100
H 	H 	0.98600 0.37840 0.49560 -0.00500
H 	H 	0.00960 0.30640 0.49180 0.11900
H 	H 	0.22730 0.06230 0.20010 0.13200
H 	H 	0.27070 0.11730 0.08530 0.13600
H 	H 	0.34190 0.09090 0.03570 -0.00100
H 	H 	0.37840 0.98600 0.14000 -0.00500
H 	H 	0.30640 0.00960 0.19220 0.11900
H 	H 	0.20010 0.51030 0.22730 0.13200
H 	H 	0.08530 0.52670 0.27070 0.13600
H 	H 	0.03570 0.53150 0.34190 -0.00100
H 	H 	0.14000 0.49560 0.37840 -0.00500
H 	H 	0.19220 0.49180 0.30640 0.11900
H 	H 	0.48970 0.93770 0.77270 0.13200
H 	H 	0.47330 0.88270 0.72930 0.13600
H 	H 	0.46850 0.90910 0.65810 -0.00100
H 	H 	0.50440 0.01400 0.62160 -0.00500
H 	H 	0.50820 0.99040 0.69360 0.11900
H 	H 	0.93770 0.48970 0.79990 0.13200
H 	H 	0.88270 0.47330 0.91470 0.13600
H 	H 	0.90910 0.46850 0.96430 -0.00100
H 	H 	0.01400 0.50440 0.86000 -0.00500
H 	H 	0.99040 0.50820 0.80780 0.11900
H 	H 	0.77270 0.79990 0.48970 0.13200
H 	H 	0.72930 0.91470 0.47330 0.13600
H 	H 	0.65810 0.96430 0.46850 -0.00100
H 	H 	0.62160 0.86000 0.50440 -0.00500
H 	H 	0.69360 0.80780 0.50820 0.11900
H 	H 	0.79990 0.77270 0.93770 0.13200
H 	H 	0.91470 0.72930 0.88270 0.13600
H 	H 	0.96430 0.65810 0.90910 -0.00100
H 	H 	0.86000 0.62160 0.01400 -0.00500
H 	H 	0.80780 0.69360 0.99040 0.11900
H 	H 	0.48970 0.77270 0.79990 0.13200
H 	H 	0.47330 0.72930 0.91470 0.13600
H 	H 	0.46850 0.65810 0.96430 -0.00100
H 	H 	0.50440 0.62160 0.86000 -0.00500
H 	H 	0.50820 0.69360 0.80780 0.11900
H 	H 	0.93770 0.79990 0.77270 0.13200
H 	H 	0.88270 0.91470 0.72930 0.13600
H 	H 	0.90910 0.96430 0.65810 -0.00100
H 	H 	0.01400 0.86000 0.62160 -0.00500
H 	H 	0.99040 0.80780 0.69360 0.11900
H 	H 	0.77270 0.48970 0.93770 0.13200
H 	H 	0.72930 0.47330 0.88270 0.13600
H 	H 	0.65810 0.46850 0.90910 -0.00100
H 	H 	0.62160 0.50440 0.01400 -0.00500
H 	H 	0.69360 0.50820 0.99040 0.11900
H 	H 	0.79990 0.93770 0.48970 0.13200
H 	H 	0.91470 0.88270 0.47330 0.13600
H 	H 	0.96430 0.90910 0.46850 -0.00100
H 	H 	0.86000 0.01400 0.50440 -0.00500
H 	H 	0.80780 0.99040 0.50820 0.11900
H 	H 	0.48970 0.79990 0.93770 0.13200
H 	H 	0.47330 0.91470 0.88270 0.13600
H 	H 	0.46850 0.96430 0.90910 -0.00100
H 	H 	0.50440 0.86000 0.01400 -0.00500
H 	H 	0.50820 0.80780 0.99040 0.11900
H 	H 	0.93770 0.77270 0.48970 0.13200
H 	H 	0.88270 0.72930 0.47330 0.13600
H 	H 	0.90910 0.65810 0.46850 -0.00100
H 	H 	0.01400 0.62160 0.50440 -0.00500
H 	H 	0.99040 0.69360 0.50820 0.11900
H 	H 	0.77270 0.93770 0.79990 0.13200
H 	H 	0.72930 0.88270 0.91470 0.13600
H 	H 	0.65810 0.90910 0.96430 -0.00100
H 	H 	0.62160 0.01400 0.86000 -0.00500
H 	H 	0.69360 0.99040 0.80780 0.11900
H 	H 	0.79990 0.48970 0.77270 0.13200
H 	H 	0.91470 0.47330 0.72930 0.13600
H 	H 	0.96430 0.46850 0.65810 -0.00100
H 	H 	0.86000 0.50440 0.62160 -0.00500
H 	H 	0.80780 0.50820 0.69360 0.11900
C 	C 	0.50680 0.12460 0.19640 0.17900
C 	C 	0.50880 0.06720 0.27980 0.23800
C 	C 	0.52000 0.08980 0.29260 -0.25600
C 	C 	0.52210 0.07450 0.33550 0.14900
C 	C 	0.51070 0.03510 0.37110 -0.19300
C 	C 	0.50150 0.01390 0.35650 0.16400
C 	C 	0.49940 0.02740 0.31300 -0.25900
C 	C 	0.51190 0.02430 0.41670 0.34400
C 	C 	0.12460 0.50680 0.17220 0.17900
C 	C 	0.06720 0.50880 0.14420 0.23800
C 	C 	0.08980 0.52000 0.09760 -0.25600
C 	C 	0.07450 0.52210 0.06790 0.14900
C 	C 	0.03510 0.51070 0.08310 -0.19300
C 	C 	0.01390 0.50150 0.12810 0.16500
C 	C 	0.02740 0.49940 0.16020 -0.25900
C 	C 	0.02430 0.51190 0.04710 0.34400
C 	C 	0.19640 0.17220 0.50680 0.17900
C 	C 	0.27980 0.14420 0.50880 0.23800
C 	C 	0.29260 0.09760 0.52000 -0.25600
C 	C 	0.33550 0.06790 0.52210 0.14900
C 	C 	0.37110 0.08310 0.51070 -0.19300
C 	C 	0.35650 0.12810 0.50150 0.16400
C 	C 	0.31300 0.16020 0.49940 -0.25900
C 	C 	0.41670 0.04710 0.51190 0.34400
C 	C 	0.17220 0.19640 0.12460 0.17900
C 	C 	0.14420 0.27980 0.06720 0.23800
C 	C 	0.09760 0.29260 0.08980 -0.25600
C 	C 	0.06790 0.33550 0.07450 0.14900
C 	C 	0.08310 0.37110 0.03510 -0.19300
C 	C 	0.12810 0.35650 0.01390 0.16500
C 	C 	0.16020 0.31300 0.02740 -0.25900
C 	C 	0.04710 0.41670 0.02430 0.34400
C 	C 	0.50680 0.19640 0.17220 0.17900
C 	C 	0.50880 0.27980 0.14420 0.23800
C 	C 	0.52000 0.29260 0.09760 -0.25600
C 	C 	0.52210 0.33550 0.06790 0.14900
C 	C 	0.51070 0.37110 0.08310 -0.19300
C 	C 	0.50150 0.35650 0.12810 0.16400
C 	C 	0.49940 0.31300 0.16020 -0.25900
C 	C 	0.51190 0.41670 0.04710 0.34400
C 	C 	0.12460 0.17220 0.19640 0.17900
C 	C 	0.06720 0.14420 0.27980 0.23800
C 	C 	0.08980 0.09760 0.29260 -0.25600
C 	C 	0.07450 0.06790 0.33550 0.14900
C 	C 	0.03510 0.08310 0.37110 -0.19300
C 	C 	0.01390 0.12810 0.35650 0.16500
C 	C 	0.02740 0.16020 0.31300 -0.25900
C 	C 	0.02430 0.04710 0.41670 0.34400
C 	C 	0.19640 0.50680 0.12460 0.17900
C 	C 	0.27980 0.50880 0.06720 0.23800
C 	C 	0.29260 0.52000 0.08980 -0.25600
C 	C 	0.33550 0.52210 0.07450 0.14900
C 	C 	0.37110 0.51070 0.03510 -0.19300
C 	C 	0.35650 0.50150 0.01390 0.16400
C 	C 	0.31300 0.49940 0.02740 -0.25900
C 	C 	0.41670 0.51190 0.02430 0.34400
C 	C 	0.17220 0.12460 0.50680 0.17900
C 	C 	0.14420 0.06720 0.50880 0.23800
C 	C 	0.09760 0.08980 0.52000 -0.25600
C 	C 	0.06790 0.07450 0.52210 0.14900
C 	C 	0.08310 0.03510 0.51070 -0.19300
C 	C 	0.12810 0.01390 0.50150 0.16500
C 	C 	0.16020 0.02740 0.49940 -0.25900
C 	C 	0.04710 0.02430 0.51190 0.34400
C 	C 	0.50680 0.17220 0.12460 0.17900
C 	C 	0.50880 0.14420 0.06720 0.23800
C 	C 	0.52000 0.09760 0.08980 -0.25600
C 	C 	0.52210 0.06790 0.07450 0.14900
C 	C 	0.51070 0.08310 0.03510 -0.19300
C 	C 	0.50150 0.12810 0.01390 0.16500
C 	C 	0.49940 0.16020 0.02740 -0.25900
C 	C 	0.51190 0.04710 0.02430 0.34400
C 	C 	0.12460 0.19640 0.50680 0.17900
C 	C 	0.06720 0.27980 0.50880 0.23800
C 	C 	0.08980 0.29260 0.52000 -0.25600
C 	C 	0.07450 0.33550 0.52210 0.14900
C 	C 	0.03510 0.37110 0.51070 -0.19300
C 	C 	0.01390 0.35650 0.50150 0.16400
C 	C 	0.02740 0.31300 0.49940 -0.25900
C 	C 	0.02430 0.41670 0.51190 0.34400
C 	C 	0.19640 0.12460 0.17220 0.17900
C 	C 	0.27980 0.06720 0.14420 0.23800
C 	C 	0.29260 0.08980 0.09760 -0.25600
C 	C 	0.33550 0.07450 0.06790 0.14900
C 	C 	0.37110 0.03510 0.08310 -0.19300
C 	C 	0.35650 0.01390 0.12810 0.16500
C 	C 	0.31300 0.02740 0.16020 -0.25900
C 	C 	0.41670 0.02430 0.04710 0.34400
C 	C 	0.17220 0.50680 0.19640 0.17900
C 	C 	0.14420 0.50880 0.27980 0.23800
C 	C 	0.09760 0.52000 0.29260 -0.25600
C 	C 	0.06790 0.52210 0.33550 0.14900
C 	C 	0.08310 0.51070 0.37110 -0.19300
C 	C 	0.12810 0.50150 0.35650 0.16400
C 	C 	0.16020 0.49940 0.31300 -0.25900
C 	C 	0.04710 0.51190 0.41670 0.34400
C 	C 	0.49320 0.87540 0.80360 0.17900
C 	C 	0.49120 0.93280 0.72020 0.23800
C 	C 	0.48000 0.91020 0.70740 -0.25600
C 	C 	0.47790 0.92550 0.66450 0.14900
C 	C 	0.48930 0.96490 0.62890 -0.19300
C 	C 	0.49850 0.98610 0.64350 0.16400
C 	C 	0.50060 0.97260 0.68700 -0.25900
C 	C 	0.48810 0.97570 0.58330 0.34400
C 	C 	0.87540 0.49320 0.82780 0.17900
C 	C 	0.93280 0.49120 0.85580 0.23800
C 	C 	0.91020 0.48000 0.90240 -0.25600
C 	C 	0.92550 0.47790 0.93210 0.14900
C 	C 	0.96490 0.48930 0.91690 -0.19300
C 	C 	0.98610 0.49850 0.87190 0.16500
C 	C 	0.97260 0.50060 0.83980 -0.25900
C 	C 	0.97570 0.48810 0.95290 0.34400
C 	C 	0.80360 0.82780 0.49320 0.17900
C 	C 	0.72020 0.85580 0.49120 0.23800
C 	C 	0.70740 0.90240 0.48000 -0.25600
C 	C 	0.66450 0.93210 0.47790 0.14900
C 	C 	0.62890 0.91690 0.48930 -0.19300
C 	C 	0.64350 0.87190 0.49850 0.16400
C 	C 	0.68700 0.83980 0.50060 -0.25900
C 	C 	0.58330 0.95290 0.48810 0.34400
C 	C 	0.82780 0.80360 0.87540 0.17900
C 	C 	0.85580 0.72020 0.93280 0.23800
C 	C 	0.90240 0.70740 0.91020 -0.25600
C 	C 	0.93210 0.66450 0.92550 0.14900
C 	C 	0.91690 0.62890 0.96490 -0.19300
C 	C 	0.87190 0.64350 0.98610 0.16500
C 	C 	0.83980 0.68700 0.97260 -0.25900
C 	C 	0.95290 0.58330 0.97570 0.34400
C 	C 	0.49320 0.80360 0.82780 0.17900
C 	C 	0.49120 0.72020 0.85580 0.23800
C 	C 	0.48000 0.70740 0.90240 -0.25600
C 	C 	0.47790 0.66450 0.93210 0.14900
C 	C 	0.48930 0.62890 0.91690 -0.19300
C 	C 	0.49850 0.64350 0.87190 0.16400
C 	C 	0.50060 0.68700 0.83980 -0.25900
C 	C 	0.48810 0.58330 0.95290 0.34400
C 	C 	0.87540 0.82780 0.80360 0.17900
C 	C 	0.93280 0.85580 0.72020 0.23800
C 	C 	0.91020 0.90240 0.70740 -0.25600
C 	C 	0.92550 0.93210 0.66450 0.14900
C 	C 	0.96490 0.91690 0.62890 -0.19300
C 	C 	0.98610 0.87190 0.64350 0.16500
C 	C 	0.97260 0.83980 0.68700 -0.25900
C 	C 	0.97570 0.95290 0.58330 0.34400
C 	C 	0.80360 0.49320 0.87540 0.17900
C 	C 	0.72020 0.49120 0.93280 0.23800
C 	C 	0.70740 0.48000 0.91020 -0.25600
C 	C 	0.66450 0.47790 0.92550 0.14900
C 	C 	0.62890 0.48930 0.96490 -0.19300
C 	C 	0.64350 0.49850 0.98610 0.16400
C 	C 	0.68700 0.50060 0.97260 -0.25900
C 	C 	0.58330 0.48810 0.97570 0.34400
C 	C 	0.82780 0.87540 0.49320 0.17900
C 	C 	0.85580 0.93280 0.49120 0.23800
C 	C 	0.90240 0.91020 0.48000 -0.25600
C 	C 	0.93210 0.92550 0.47790 0.14900
C 	C 	0.91690 0.96490 0.48930 -0.19300
C 	C 	0.87190 0.98610 0.49850 0.16500
C 	C 	0.83980 0.97260 0.50060 -0.25900
C 	C 	0.95290 0.97570 0.48810 0.34400
C 	C 	0.49320 0.82780 0.87540 0.17900
C 	C 	0.49120 0.85580 0.93280 0.23800
C 	C 	0.48000 0.90240 0.91020 -0.25600
C 	C 	0.47790 0.93210 0.92550 0.14900
C 	C 	0.48930 0.91690 0.96490 -0.19300
C 	C 	0.49850 0.87190 0.98610 0.16500
C 	C 	0.50060 0.83980 0.97260 -0.25900
C 	C 	0.48810 0.95290 0.97570 0.34400
C 	C 	0.87540 0.80360 0.49320 0.17900
C 	C 	0.93280 0.72020 0.49120 0.23800
C 	C 	0.91020 0.70740 0.48000 -0.25600
C 	C 	0.92550 0.66450 0.47790 0.14900
C 	C 	0.96490 0.62890 0.48930 -0.19300
C 	C 	0.98610 0.64350 0.49850 0.16400
C 	C 	0.97260 0.68700 0.50060 -0.25900
C 	C 	0.97570 0.58330 0.48810 0.34400
C 	C 	0.80360 0.87540 0.82780 0.17900
C 	C 	0.72020 0.93280 0.85580 0.23800
C 	C 	0.70740 0.91020 0.90240 -0.25600
C 	C 	0.66450 0.92550 0.93210 0.14900
C 	C 	0.62890 0.96490 0.91690 -0.19300
C 	C 	0.64350 0.98610 0.87190 0.16500
C 	C 	0.68700 0.97260 0.83980 -0.25900
C 	C 	0.58330 0.97570 0.95290 0.34400
C 	C 	0.82780 0.49320 0.80360 0.17900
C 	C 	0.85580 0.49120 0.72020 0.23800
C 	C 	0.90240 0.48000 0.70740 -0.25600
C 	C 	0.93210 0.47790 0.66450 0.14900
C 	C 	0.91690 0.48930 0.62890 -0.19300
C 	C 	0.87190 0.49850 0.64350 0.16400
C 	C 	0.83980 0.50060 0.68700 -0.25900
C 	C 	0.95290 0.48810 0.58330 0.34400
N 	N 	0.50820 0.15720 0.20860 -0.16500
N 	N 	0.50880 0.08420 0.23360 -0.24400
N 	N 	0.15720 0.50820 0.12600 -0.16500
N 	N 	0.08420 0.50880 0.17340 -0.24400
N 	N 	0.20860 0.12600 0.50820 -0.16500
N 	N 	0.23360 0.17340 0.50880 -0.24400
N 	N 	0.12600 0.20860 0.15720 -0.16500
N 	N 	0.17340 0.23360 0.08420 -0.24400
N 	N 	0.50820 0.20860 0.12600 -0.16500
N 	N 	0.50880 0.23360 0.17340 -0.24400
N 	N 	0.15720 0.12600 0.20860 -0.16500
N 	N 	0.08420 0.17340 0.23360 -0.24400
N 	N 	0.20860 0.50820 0.15720 -0.16500
N 	N 	0.23360 0.50880 0.08420 -0.24400
N 	N 	0.12600 0.15720 0.50820 -0.16500
N 	N 	0.17340 0.08420 0.50880 -0.24400
N 	N 	0.50820 0.12600 0.15720 -0.16500
N 	N 	0.50880 0.17340 0.08420 -0.24400
N 	N 	0.15720 0.20860 0.50820 -0.16500
N 	N 	0.08420 0.23360 0.50880 -0.24400
N 	N 	0.20860 0.15720 0.12600 -0.16500
N 	N 	0.23360 0.08420 0.17340 -0.24400
N 	N 	0.12600 0.50820 0.20860 -0.16500
N 	N 	0.17340 0.50880 0.23360 -0.24400
N 	N 	0.49180 0.84280 0.79140 -0.16500
N 	N 	0.49120 0.91580 0.76640 -0.24400
N 	N 	0.84280 0.49180 0.87400 -0.16500
N 	N 	0.91580 0.49120 0.82660 -0.24400
N 	N 	0.79140 0.87400 0.49180 -0.16500
N 	N 	0.76640 0.82660 0.49120 -0.24400
N 	N 	0.87400 0.79140 0.84280 -0.16500
N 	N 	0.82660 0.76640 0.91580 -0.24400
N 	N 	0.49180 0.79140 0.87400 -0.16500
N 	N 	0.49120 0.76640 0.82660 -0.24400
N 	N 	0.84280 0.87400 0.79140 -0.16500
N 	N 	0.91580 0.82660 0.76640 -0.24400
N 	N 	0.79140 0.49180 0.84280 -0.16500
N 	N 	0.76640 0.49120 0.91580 -0.24400
N 	N 	0.87400 0.84280 0.49180 -0.16500
N 	N 	0.82660 0.91580 0.49120 -0.24400
N 	N 	0.49180 0.87400 0.84280 -0.16500
N 	N 	0.49120 0.82660 0.91580 -0.24400
N 	N 	0.84280 0.79140 0.49180 -0.16500
N 	N 	0.91580 0.76640 0.49120 -0.24400
N 	N 	0.79140 0.84280 0.87400 -0.16500
N 	N 	0.76640 0.91580 0.82660 -0.24400
N 	N 	0.87400 0.49180 0.79140 -0.16500
N 	N 	0.82660 0.49120 0.76640 -0.24400
O 	O 	0.52355 0.04561 0.42423 -0.40400
O 	O 	0.49583 0.98435 0.44919 -0.39300
O 	O 	0.04561 0.52355 0.00661 -0.40400
O 	O 	0.98435 0.49583 0.07063 -0.39300
O 	O 	0.42423 0.00661 0.52355 -0.40400
O 	O 	0.44919 0.07063 0.49583 -0.39300
O 	O 	0.00661 0.42423 0.04561 -0.40400
O 	O 	0.07063 0.44919 0.98435 -0.39300
O 	O 	0.52355 0.42423 0.00661 -0.40400
O 	O 	0.49583 0.44919 0.07063 -0.39300
O 	O 	0.04561 0.00661 0.42423 -0.40400
O 	O 	0.98435 0.07063 0.44919 -0.39300
O 	O 	0.42423 0.52355 0.04561 -0.40400
O 	O 	0.44919 0.49583 0.98435 -0.39300
O 	O 	0.00661 0.04561 0.52355 -0.40400
O 	O 	0.07063 0.98435 0.49583 -0.39300
O 	O 	0.52355 0.00661 0.04561 -0.40400
O 	O 	0.49583 0.07063 0.98435 -0.39300
O 	O 	0.04561 0.42423 0.52355 -0.40400
O 	O 	0.98435 0.44919 0.49583 -0.39300
O 	O 	0.42423 0.04561 0.00661 -0.40400
O 	O 	0.44919 0.98435 0.07063 -0.39300
O 	O 	0.00661 0.52355 0.42423 -0.40400
O 	O 	0.07063 0.49583 0.44919 -0.39300
O 	O 	0.47645 0.95439 0.57577 -0.40400
O 	O 	0.50417 0.01565 0.55081 -0.39300
O 	O 	0.95439 0.47645 0.99339 -0.40400
O 	O 	0.01565 0.50417 0.92937 -0.39300
O 	O 	0.57577 0.99339 0.47645 -0.40400
O 	O 	0.55081 0.92937 0.50417 -0.39300
O 	O 	0.99339 0.57577 0.95439 -0.40400
O 	O 	0.92937 0.55081 0.01565 -0.39300
O 	O 	0.47645 0.57577 0.99339 -0.40400
O 	O 	0.50417 0.55081 0.92937 -0.39300
O 	O 	0.95439 0.99339 0.57577 -0.40400
O 	O 	0.01565 0.92937 0.55081 -0.39300
O 	O 	0.57577 0.47645 0.95439 -0.40400
O 	O 	0.55081 0.50417 0.01565 -0.39300
O 	O 	0.99339 0.95439 0.47645 -0.40400
O 	O 	0.92937 0.01565 0.50417 -0.39300
O 	O 	0.47645 0.99339 0.95439 -0.40400
O 	O 	0.50417 0.92937 0.01565 -0.39300
O 	O 	0.95439 0.57577 0.47645 -0.40400
O 	O 	0.01565 0.55081 0.50417 -0.39300
O 	O 	0.57577 0.95439 0.99339 -0.40400
O 	O 	0.55081 0.01565 0.92937 -0.39300
O 	O 	0.99339 0.47645 0.57577 -0.40400
O 	O 	0.92937 0.50417 0.55081 -0.39300
