data_crystal

_cell_length_a 9.19280
_cell_length_b 14.20900
_cell_length_c 32.29710
_cell_angle_alpha 90.00000
_cell_angle_beta  90.00000
_cell_angle_gamma 90.00000

_symmetry_space_group_name_	'P 1'
_symmetry_space_group_name_H-M	'P 1'

loop_
_symmetry_equiv_pos_as_xyz
  x,y,z

loop_
_atom_site_label
_atom_site_type_symbol
_atom_site_fract_x
_atom_site_fract_y
_atom_site_fract_z
_atom_site_charge
P 	P 	0.39400 0.06560 0.55978 0.54600
O 	O 	0.27840 0.12950 0.58190 -0.35800
O 	O 	0.51350 0.03890 0.59070 -0.43200
O 	O 	0.44750 0.12560 0.52360 -0.43800
O 	O 	0.31900 0.97770 0.54480 -0.40000
P 	P 	0.39400 0.56560 0.05978 0.54700
O 	O 	0.27840 0.62950 0.08190 -0.35800
O 	O 	0.51350 0.53890 0.09070 -0.43100
O 	O 	0.44750 0.62560 0.02360 -0.43800
O 	O 	0.31900 0.47770 0.04480 -0.40100
P 	P 	0.89400 0.06560 0.05978 0.55000
O 	O 	0.77840 0.12950 0.08190 -0.35800
O 	O 	0.01350 0.03890 0.09070 -0.43400
O 	O 	0.94750 0.12560 0.02360 -0.43700
O 	O 	0.81900 0.97770 0.04480 -0.40100
P 	P 	0.89400 0.56560 0.55978 0.54800
O 	O 	0.77840 0.62950 0.58190 -0.35700
O 	O 	0.01350 0.53890 0.59070 -0.43000
O 	O 	0.94750 0.62560 0.52360 -0.43800
O 	O 	0.81900 0.47770 0.54480 -0.40000
P 	P 	0.35600 0.68440 0.55978 0.54800
O 	O 	0.47160 0.62050 0.58190 -0.35700
O 	O 	0.23650 0.71110 0.59070 -0.43000
O 	O 	0.30250 0.62440 0.52360 -0.43700
O 	O 	0.43100 0.77230 0.54480 -0.40000
P 	P 	0.35600 0.18440 0.05978 0.54800
O 	O 	0.47160 0.12050 0.08190 -0.35700
O 	O 	0.23650 0.21110 0.09070 -0.43100
O 	O 	0.30250 0.12440 0.02360 -0.43700
O 	O 	0.43100 0.27230 0.04480 -0.40000
P 	P 	0.85600 0.68440 0.05978 0.54800
O 	O 	0.97160 0.62050 0.08190 -0.35700
O 	O 	0.73650 0.71110 0.09070 -0.43100
O 	O 	0.80250 0.62440 0.02360 -0.43700
O 	O 	0.93100 0.77230 0.04480 -0.40000
P 	P 	0.85600 0.18440 0.55978 0.54800
O 	O 	0.97160 0.12050 0.58190 -0.35600
O 	O 	0.73650 0.21110 0.59070 -0.43000
O 	O 	0.80250 0.12440 0.52360 -0.43700
O 	O 	0.93100 0.27230 0.54480 -0.39900
P 	P 	0.35600 0.06560 0.19022 0.54800
O 	O 	0.47160 0.12950 0.16810 -0.35700
O 	O 	0.23650 0.03890 0.15930 -0.43100
O 	O 	0.30250 0.12560 0.22640 -0.43700
O 	O 	0.43100 0.97770 0.20520 -0.39900
P 	P 	0.35600 0.56560 0.69022 0.54800
O 	O 	0.47160 0.62950 0.66810 -0.35700
O 	O 	0.23650 0.53890 0.65930 -0.43000
O 	O 	0.30250 0.62560 0.72640 -0.43700
O 	O 	0.43100 0.47770 0.70520 -0.40000
P 	P 	0.85600 0.06560 0.69022 0.54900
O 	O 	0.97160 0.12950 0.66810 -0.35600
O 	O 	0.73650 0.03890 0.65930 -0.43000
O 	O 	0.80250 0.12560 0.72640 -0.43700
O 	O 	0.93100 0.97770 0.70520 -0.40200
P 	P 	0.85600 0.56560 0.19022 0.54800
O 	O 	0.97160 0.62950 0.16810 -0.35700
O 	O 	0.73650 0.53890 0.15930 -0.43000
O 	O 	0.80250 0.62560 0.22640 -0.43700
O 	O 	0.93100 0.47770 0.20520 -0.39900
P 	P 	0.39400 0.68440 0.19022 0.54800
O 	O 	0.27840 0.62050 0.16810 -0.35700
O 	O 	0.51350 0.71110 0.15930 -0.43000
O 	O 	0.44750 0.62440 0.22640 -0.43700
O 	O 	0.31900 0.77230 0.20520 -0.39900
P 	P 	0.39400 0.18440 0.69022 0.54800
O 	O 	0.27840 0.12050 0.66810 -0.35800
O 	O 	0.51350 0.21110 0.65930 -0.43000
O 	O 	0.44750 0.12440 0.72640 -0.43800
O 	O 	0.31900 0.27230 0.70520 -0.40000
P 	P 	0.89400 0.68440 0.69022 0.54700
O 	O 	0.77840 0.62050 0.66810 -0.35700
O 	O 	0.01350 0.71110 0.65930 -0.43000
O 	O 	0.94750 0.62440 0.72640 -0.43700
O 	O 	0.81900 0.77230 0.70520 -0.40000
P 	P 	0.89400 0.18440 0.19022 0.54900
O 	O 	0.77840 0.12050 0.16810 -0.35700
O 	O 	0.01350 0.21110 0.15930 -0.43200
O 	O 	0.94750 0.12440 0.22640 -0.43600
O 	O 	0.81900 0.27230 0.20520 -0.40000
P 	P 	0.60600 0.93440 0.44022 0.54700
O 	O 	0.72160 0.87050 0.41810 -0.35700
O 	O 	0.48650 0.96110 0.40930 -0.43100
O 	O 	0.55250 0.87440 0.47640 -0.43700
O 	O 	0.68100 0.02230 0.45520 -0.39900
P 	P 	0.60600 0.43440 0.94022 0.54800
O 	O 	0.72160 0.37050 0.91810 -0.35700
O 	O 	0.48650 0.46110 0.90930 -0.43000
O 	O 	0.55250 0.37440 0.97640 -0.43700
O 	O 	0.68100 0.52230 0.95520 -0.40000
P 	P 	0.10600 0.93440 0.94022 0.55100
O 	O 	0.22160 0.87050 0.91810 -0.35700
O 	O 	0.98650 0.96110 0.90930 -0.43300
O 	O 	0.05250 0.87440 0.97640 -0.43600
O 	O 	0.18100 0.02230 0.95520 -0.40100
P 	P 	0.10600 0.43440 0.44022 0.54800
O 	O 	0.22160 0.37050 0.41810 -0.35700
O 	O 	0.98650 0.46110 0.40930 -0.43000
O 	O 	0.05250 0.37440 0.47640 -0.43800
O 	O 	0.18100 0.52230 0.45520 -0.40000
P 	P 	0.64400 0.31560 0.44022 0.54800
O 	O 	0.52840 0.37950 0.41810 -0.35700
O 	O 	0.76350 0.28890 0.40930 -0.43000
O 	O 	0.69750 0.37560 0.47640 -0.43700
O 	O 	0.56900 0.22770 0.45520 -0.40000
P 	P 	0.64400 0.81560 0.94022 0.54800
O 	O 	0.52840 0.87950 0.91810 -0.35700
O 	O 	0.76350 0.78890 0.90930 -0.43100
O 	O 	0.69750 0.87560 0.97640 -0.43700
O 	O 	0.56900 0.72770 0.95520 -0.40000
P 	P 	0.14400 0.31560 0.94022 0.54800
O 	O 	0.02840 0.37950 0.91810 -0.35700
O 	O 	0.26350 0.28890 0.90930 -0.43100
O 	O 	0.19750 0.37560 0.97640 -0.43700
O 	O 	0.06900 0.22770 0.95520 -0.40000
P 	P 	0.14400 0.81560 0.44022 0.54800
O 	O 	0.02840 0.87950 0.41810 -0.35600
O 	O 	0.26350 0.78890 0.40930 -0.43000
O 	O 	0.19750 0.87560 0.47640 -0.43700
O 	O 	0.06900 0.72770 0.45520 -0.39900
P 	P 	0.64400 0.93440 0.80978 0.54800
O 	O 	0.52840 0.87050 0.83190 -0.35700
O 	O 	0.76350 0.96110 0.84070 -0.43100
O 	O 	0.69750 0.87440 0.77360 -0.43700
O 	O 	0.56900 0.02230 0.79480 -0.39900
P 	P 	0.64400 0.43440 0.30978 0.54800
O 	O 	0.52840 0.37050 0.33190 -0.35700
O 	O 	0.76350 0.46110 0.34070 -0.43000
O 	O 	0.69750 0.37440 0.27360 -0.43700
O 	O 	0.56900 0.52230 0.29480 -0.40000
P 	P 	0.14400 0.93440 0.30978 0.54900
O 	O 	0.02840 0.87050 0.33190 -0.35600
O 	O 	0.26350 0.96110 0.34070 -0.43000
O 	O 	0.19750 0.87440 0.27360 -0.43700
O 	O 	0.06900 0.02230 0.29480 -0.40200
P 	P 	0.14400 0.43440 0.80978 0.54800
O 	O 	0.02840 0.37050 0.83190 -0.35700
O 	O 	0.26350 0.46110 0.84070 -0.43000
O 	O 	0.19750 0.37440 0.77360 -0.43700
O 	O 	0.06900 0.52230 0.79480 -0.39900
P 	P 	0.60600 0.31560 0.80978 0.54800
O 	O 	0.72160 0.37950 0.83190 -0.35700
O 	O 	0.48650 0.28890 0.84070 -0.43000
O 	O 	0.55250 0.37560 0.77360 -0.43700
O 	O 	0.68100 0.22770 0.79480 -0.39900
P 	P 	0.60600 0.81560 0.30978 0.54800
O 	O 	0.72160 0.87950 0.33190 -0.35800
O 	O 	0.48650 0.78890 0.34070 -0.43000
O 	O 	0.55250 0.87560 0.27360 -0.43800
O 	O 	0.68100 0.72770 0.29480 -0.40000
P 	P 	0.10600 0.31560 0.30978 0.54700
O 	O 	0.22160 0.37950 0.33190 -0.35700
O 	O 	0.98650 0.28890 0.34070 -0.43000
O 	O 	0.05250 0.37560 0.27360 -0.43700
O 	O 	0.18100 0.22770 0.29480 -0.40000
P 	P 	0.10600 0.81560 0.80978 0.54900
O 	O 	0.22160 0.87950 0.83190 -0.35700
O 	O 	0.98650 0.78890 0.84070 -0.43200
O 	O 	0.05250 0.87560 0.77360 -0.43600
O 	O 	0.18100 0.72770 0.79480 -0.40000
Nb	Nb	0.12500 0.12500 0.62500 1.58400
Nb	Nb	0.62500 0.62500 0.62500 1.58500
Nb	Nb	0.62500 0.12500 0.12500 1.58600
Nb	Nb	0.12500 0.62500 0.12500 1.58600
Nb	Nb	0.87500 0.87500 0.37500 1.58400
Nb	Nb	0.37500 0.37500 0.37500 1.58500
Nb	Nb	0.37500 0.87500 0.87500 1.58600
Nb	Nb	0.87500 0.37500 0.87500 1.58600
Zn	Zn	0.62500 0.12500 0.49133 1.23700
Zn	Zn	0.62500 0.62500 0.99133 1.23700
Zn	Zn	0.12500 0.62500 0.49133 1.23700
Zn	Zn	0.12500 0.12500 0.99133 1.23600
Zn	Zn	0.12500 0.12500 0.25867 1.23600
Zn	Zn	0.12500 0.62500 0.75867 1.23700
Zn	Zn	0.62500 0.62500 0.25867 1.23700
Zn	Zn	0.62500 0.12500 0.75867 1.23700
Zn	Zn	0.37500 0.87500 0.50867 1.23700
Zn	Zn	0.37500 0.37500 0.00867 1.23700
Zn	Zn	0.87500 0.37500 0.50867 1.23700
Zn	Zn	0.87500 0.87500 0.00867 1.23600
Zn	Zn	0.87500 0.87500 0.74133 1.23600
Zn	Zn	0.87500 0.37500 0.24133 1.23700
Zn	Zn	0.37500 0.37500 0.74133 1.23700
Zn	Zn	0.37500 0.87500 0.24133 1.23700
Zn	Zn	0.62500 0.12500 0.62500 1.24000
Zn	Zn	0.12500 0.62500 0.62500 1.24000
Zn	Zn	0.12500 0.12500 0.12500 1.24000
Zn	Zn	0.62500 0.62500 0.12500 1.24000
Zn	Zn	0.37500 0.87500 0.37500 1.24000
Zn	Zn	0.87500 0.37500 0.37500 1.24000
Zn	Zn	0.87500 0.87500 0.87500 1.24000
Zn	Zn	0.37500 0.37500 0.87500 1.24000
F 	F 	0.12500 0.98960 0.62500 -0.49500
F 	F 	0.12500 0.48960 0.12500 -0.49600
F 	F 	0.62500 0.76040 0.62500 -0.49600
F 	F 	0.62500 0.26040 0.12500 -0.49600
F 	F 	0.62500 0.98960 0.12500 -0.49700
F 	F 	0.62500 0.48960 0.62500 -0.49600
F 	F 	0.12500 0.76040 0.12500 -0.49600
F 	F 	0.12500 0.26040 0.62500 -0.49700
F 	F 	0.87500 0.01040 0.37500 -0.49500
F 	F 	0.87500 0.51040 0.87500 -0.49600
F 	F 	0.37500 0.23960 0.37500 -0.49600
F 	F 	0.37500 0.73960 0.87500 -0.49600
F 	F 	0.37500 0.01040 0.87500 -0.49700
F 	F 	0.37500 0.51040 0.37500 -0.49600
F 	F 	0.87500 0.23960 0.87500 -0.49600
F 	F 	0.87500 0.73960 0.37500 -0.49700
