data_crystal

_cell_length_a 8.21300
_cell_length_b 10.02570
_cell_length_c 15.51330
_cell_angle_alpha 80.84200
_cell_angle_beta  75.67100
_cell_angle_gamma 89.02000

_symmetry_space_group_name_	'P 1'
_symmetry_space_group_name_H-M	'P 1'

loop_
_symmetry_equiv_pos_as_xyz
  x,y,z

loop_
_atom_site_label
_atom_site_type_symbol
_atom_site_fract_x
_atom_site_fract_y
_atom_site_fract_z
_atom_site_charge
Zn	Zn	0.15924 0.26109 0.22170 1.23700
Zn	Zn	0.75812 0.49598 0.02330 1.23300
Zn	Zn	0.86509 0.85692 0.48061 1.22800
Zn	Zn	0.71293 0.48402 0.53938 1.23000
P 	P 	0.97416 0.26598 0.06147 0.55100
P 	P 	0.37785 0.51083 0.13885 0.54800
P 	P 	0.19541 0.99095 0.35647 0.55100
P 	P 	0.00459 0.39984 0.39011 0.54900
P 	P 	0.51975 0.73438 0.48321 0.53500
O 	O 	0.82000 0.34310 0.10390 -0.43100
O 	O 	0.08660 0.35580 0.98095 -0.45200
O 	O 	0.00810 0.96330 0.37358 -0.45200
O 	O 	0.54530 0.56670 0.07798 -0.43100
O 	O 	0.23410 0.54960 0.09394 -0.45500
O 	O 	0.54700 0.62590 0.55765 -0.46100
O 	O 	0.37750 0.35900 0.16826 -0.44600
O 	O 	0.68610 0.80360 0.42679 -0.41200
O 	O 	0.84570 0.48000 0.42043 -0.44200
O 	O 	0.06430 0.20400 0.13135 -0.41900
O 	O 	0.25800 0.10840 0.28077 -0.41100
O 	O 	0.16130 0.49460 0.37347 -0.47800
O 	O 	0.42900 0.68320 0.41919 -0.43300
O 	O 	0.01530 0.27620 0.45864 -0.52500
O 	O 	0.24480 0.01220 0.44234 -0.47300
O 	O 	0.00110 0.36420 0.29700 -0.41600
O 	O 	0.91280 0.14550 0.02390 -0.38500
H 	H 	0.81610 0.15820 0.01930 0.26800
O 	O 	0.40630 0.83850 0.53436 -0.44500
H 	H 	0.36240 0.88740 0.49930 0.29400
O 	O 	0.35220 0.58470 0.22252 -0.41400
H 	H 	0.28580 0.54060 0.26560 0.28200
O 	O 	0.29510 0.86710 0.32089 -0.41000
H 	H 	0.32680 0.82110 0.36200 0.28400
Zn	Zn	0.84076 0.73891 0.77830 1.23800
Zn	Zn	0.24188 0.50402 0.97670 1.23400
Zn	Zn	0.13491 0.14308 0.51939 1.22800
Zn	Zn	0.28707 0.51598 0.46062 1.23000
P 	P 	0.02584 0.73402 0.93853 0.55100
P 	P 	0.62215 0.48917 0.86115 0.54800
P 	P 	0.80459 0.00905 0.64353 0.55100
P 	P 	0.99541 0.60016 0.60989 0.54900
P 	P 	0.48025 0.26562 0.51679 0.53500
O 	O 	0.18000 0.65690 0.89610 -0.43100
O 	O 	0.91340 0.64420 0.01905 -0.45200
O 	O 	0.99190 0.03670 0.62642 -0.45200
O 	O 	0.45470 0.43330 0.92202 -0.43100
O 	O 	0.76590 0.45040 0.90606 -0.45500
O 	O 	0.45300 0.37410 0.44235 -0.46100
O 	O 	0.62250 0.64100 0.83174 -0.44600
O 	O 	0.31390 0.19640 0.57321 -0.41200
O 	O 	0.15430 0.52000 0.57957 -0.44200
O 	O 	0.93570 0.79600 0.86865 -0.41900
O 	O 	0.74200 0.89160 0.71923 -0.41100
O 	O 	0.83870 0.50540 0.62653 -0.47800
O 	O 	0.57100 0.31680 0.58081 -0.43300
O 	O 	0.98470 0.72380 0.54136 -0.52500
O 	O 	0.75520 0.98780 0.55766 -0.47300
O 	O 	0.99890 0.63580 0.70300 -0.41600
O 	O 	0.08720 0.85450 0.97610 -0.38500
H 	H 	0.18390 0.84180 0.98070 0.26800
O 	O 	0.59370 0.16150 0.46564 -0.44500
H 	H 	0.63760 0.11260 0.50070 0.29400
O 	O 	0.64780 0.41530 0.77748 -0.41400
H 	H 	0.71420 0.45940 0.73440 0.28200
O 	O 	0.70490 0.13290 0.67911 -0.41000
H 	H 	0.67320 0.17890 0.63800 0.28400
