data_crystal

_cell_length_a 10.46400
_cell_length_b 17.14200
_cell_length_c 8.44810
_cell_angle_alpha 90.00000
_cell_angle_beta  90.00000
_cell_angle_gamma 90.00000

_symmetry_space_group_name_	'P 1'
_symmetry_space_group_name_H-M	'P 1'

loop_
_symmetry_equiv_pos_as_xyz
  x,y,z

loop_
_atom_site_label
_atom_site_type_symbol
_atom_site_fract_x
_atom_site_fract_y
_atom_site_fract_z
_atom_site_charge
V 	V 	0.85891 0.43838 0.22045 1.69600
P 	P 	0.62872 0.41284 0.47438 0.54800
O 	O 	0.84236 0.32603 0.25430 -1.17800
O 	O 	0.66278 0.45293 0.63259 -0.55000
O 	O 	0.48260 0.41388 0.45157 -0.58700
O 	O 	0.67482 0.32784 0.49053 -0.56900
O 	O 	0.69461 0.45521 0.33579 -0.62800
H 	H 	0.90100 0.31000 0.21900 0.42000
V 	V 	0.64109 0.56162 0.72045 1.69500
P 	P 	0.87128 0.58716 0.97438 0.54200
O 	O 	0.65764 0.67397 0.75430 -1.17900
O 	O 	0.83722 0.54707 0.13259 -0.54900
O 	O 	0.01740 0.58612 0.95157 -0.58500
O 	O 	0.82518 0.67216 0.99053 -0.57200
O 	O 	0.80539 0.54479 0.83579 -0.62800
H 	H 	0.59900 0.69000 0.71900 0.41900
V 	V 	0.14109 0.93838 0.77955 1.69500
P 	P 	0.37128 0.91284 0.52562 0.54700
O 	O 	0.15764 0.82603 0.74570 -1.17900
O 	O 	0.33722 0.95293 0.36741 -0.55000
O 	O 	0.51740 0.91388 0.54843 -0.58700
O 	O 	0.32518 0.82784 0.50947 -0.57000
O 	O 	0.30539 0.95521 0.66421 -0.62900
H 	H 	0.09900 0.81000 0.78100 0.42000
V 	V 	0.35891 0.06162 0.27955 1.69500
P 	P 	0.12872 0.08716 0.02562 0.54000
O 	O 	0.34236 0.17397 0.24570 -1.17900
O 	O 	0.16278 0.04707 0.86741 -0.54500
O 	O 	0.98260 0.08612 0.04843 -0.58600
O 	O 	0.17482 0.17216 0.00947 -0.57200
O 	O 	0.19461 0.04479 0.16421 -0.62900
H 	H 	0.40100 0.19000 0.28100 0.41900
V 	V 	0.14109 0.56162 0.77955 1.69500
P 	P 	0.37128 0.58716 0.52562 0.54700
O 	O 	0.15764 0.67397 0.74570 -1.17900
O 	O 	0.33722 0.54707 0.36741 -0.55100
O 	O 	0.51740 0.58612 0.54843 -0.58800
O 	O 	0.32518 0.67216 0.50947 -0.57000
O 	O 	0.30539 0.54479 0.66421 -0.62800
H 	H 	0.09900 0.69000 0.78100 0.42000
V 	V 	0.35891 0.43838 0.27955 1.69500
P 	P 	0.12872 0.41284 0.02562 0.54200
O 	O 	0.34236 0.32603 0.24570 -1.17900
O 	O 	0.16278 0.45293 0.86741 -0.54900
O 	O 	0.98260 0.41388 0.04843 -0.58500
O 	O 	0.17482 0.32784 0.00947 -0.57200
O 	O 	0.19461 0.45521 0.16421 -0.62800
H 	H 	0.40100 0.31000 0.28100 0.41900
V 	V 	0.85891 0.06162 0.22045 1.69500
P 	P 	0.62872 0.08716 0.47438 0.54700
O 	O 	0.84236 0.17397 0.25430 -1.17900
O 	O 	0.66278 0.04707 0.63259 -0.55000
O 	O 	0.48260 0.08612 0.45157 -0.58700
O 	O 	0.67482 0.17216 0.49053 -0.57000
O 	O 	0.69461 0.04479 0.33579 -0.62900
H 	H 	0.90100 0.19000 0.21900 0.42000
V 	V 	0.64109 0.93838 0.72045 1.69500
P 	P 	0.87128 0.91284 0.97438 0.54000
O 	O 	0.65764 0.82603 0.75430 -1.17900
O 	O 	0.83722 0.95293 0.13259 -0.54500
O 	O 	0.01740 0.91388 0.95157 -0.58600
O 	O 	0.82518 0.82784 0.99053 -0.57200
O 	O 	0.80539 0.95521 0.83579 -0.62900
H 	H 	0.59900 0.81000 0.71900 0.41900
V 	V 	0.71662 0.25000 0.32863 1.70900
V 	V 	0.78338 0.75000 0.82863 1.70900
V 	V 	0.28338 0.75000 0.67137 1.70900
V 	V 	0.21662 0.25000 0.17137 1.70900
