data_crystal

_cell_length_a 8.71700
_cell_length_b 10.56800
_cell_length_c 19.37400
_cell_angle_alpha 90.00000
_cell_angle_beta  100.39000
_cell_angle_gamma 90.00000

_symmetry_space_group_name_	'P 1'
_symmetry_space_group_name_H-M	'P 1'

loop_
_symmetry_equiv_pos_as_xyz
  x,y,z

loop_
_atom_site_label
_atom_site_type_symbol
_atom_site_fract_x
_atom_site_fract_y
_atom_site_fract_z
_atom_site_charge
Sr	Sr	0.32856 0.15100 0.04967 1.51200
Sr	Sr	0.67144 0.65100 0.45033 1.51300
Sr	Sr	0.67144 0.84900 0.95033 1.51100
Sr	Sr	0.32856 0.34900 0.54967 1.51200
Cu	Cu	0.23169 0.87093 0.19336 0.93100
Cu	Cu	0.76831 0.37093 0.30664 0.93000
Cu	Cu	0.76831 0.12907 0.80664 0.93100
Cu	Cu	0.23169 0.62907 0.69336 0.93000
H 	H 	0.23840 0.58830 0.27200 0.02700
H 	H 	0.14710 0.50820 0.24520 0.04200
H 	H 	0.35360 0.53870 0.16950 0.07800
H 	H 	0.17150 0.60450 0.12770 0.06600
H 	H 	0.11100 0.75560 0.32340 0.08500
H 	H 	0.95570 0.80220 0.29000 0.09500
H 	H 	0.87200 0.77920 0.17320 0.09000
H 	H 	0.85960 0.63510 0.14120 0.10900
H 	H 	0.49300 0.65920 0.11200 0.08200
H 	H 	0.51430 0.70360 0.08660 0.01100
H 	H 	0.53000 0.61450 0.24030 0.09200
H 	H 	0.50600 0.67890 0.28470 0.00200
H 	H 	0.76160 0.08830 0.22800 0.02600
H 	H 	0.85290 0.00820 0.25480 0.04200
H 	H 	0.64640 0.03870 0.33050 0.07800
H 	H 	0.82850 0.10450 0.37230 0.06700
H 	H 	0.88900 0.25560 0.17660 0.08400
H 	H 	0.04430 0.30220 0.21000 0.09300
H 	H 	0.12800 0.27920 0.32680 0.08900
H 	H 	0.14040 0.13510 0.35880 0.10900
H 	H 	0.50700 0.15920 0.38800 0.08200
H 	H 	0.48570 0.20360 0.41340 0.01100
H 	H 	0.47000 0.11450 0.25970 0.09200
H 	H 	0.49400 0.17890 0.21530 0.00100
H 	H 	0.76160 0.41170 0.72800 0.02700
H 	H 	0.85290 0.49180 0.75480 0.04200
H 	H 	0.64640 0.46130 0.83050 0.07800
H 	H 	0.82850 0.39550 0.87230 0.06600
H 	H 	0.88900 0.24440 0.67660 0.08500
H 	H 	0.04430 0.19780 0.71000 0.09500
H 	H 	0.12800 0.22080 0.82680 0.09000
H 	H 	0.14040 0.36490 0.85880 0.10900
H 	H 	0.50700 0.34080 0.88800 0.08200
H 	H 	0.48570 0.29640 0.91340 0.01100
H 	H 	0.47000 0.38550 0.75970 0.09200
H 	H 	0.49400 0.32110 0.71530 0.00200
H 	H 	0.23840 0.91170 0.77200 0.02600
H 	H 	0.14710 0.99180 0.74520 0.04200
H 	H 	0.35360 0.96130 0.66950 0.07800
H 	H 	0.17150 0.89550 0.62770 0.06700
H 	H 	0.11100 0.74440 0.82340 0.08400
H 	H 	0.95570 0.69780 0.79000 0.09300
H 	H 	0.87200 0.72080 0.67320 0.08900
H 	H 	0.85960 0.86490 0.64120 0.10900
H 	H 	0.49300 0.84080 0.61200 0.08200
H 	H 	0.51430 0.79640 0.58660 0.01100
H 	H 	0.53000 0.88550 0.74030 0.09200
H 	H 	0.50600 0.82110 0.78470 0.00100
C 	C 	0.16812 0.59283 0.22425 -0.03500
C 	C 	0.26404 0.60004 0.16748 -0.11100
C 	C 	0.92256 0.61587 0.32029 0.40400
C 	C 	0.01553 0.72001 0.29218 -0.23600
C 	C 	0.93407 0.70144 0.16508 -0.24700
C 	C 	0.96837 0.76708 0.09945 0.39400
C 	C 	0.42403 0.73685 0.10731 -0.20200
C 	C 	0.47366 0.87390 0.10095 0.40000
C 	C 	0.49679 0.70582 0.23415 -0.17600
C 	C 	0.49110 0.80065 0.29127 0.36900
C 	C 	0.83188 0.09283 0.27575 -0.03400
C 	C 	0.73596 0.10004 0.33252 -0.11200
C 	C 	0.07744 0.11587 0.17971 0.40200
C 	C 	0.98447 0.22001 0.20782 -0.23200
C 	C 	0.06593 0.20144 0.33492 -0.24900
C 	C 	0.03163 0.26708 0.40055 0.39400
C 	C 	0.57597 0.23685 0.39269 -0.20200
C 	C 	0.52634 0.37390 0.39905 0.40100
C 	C 	0.50321 0.20582 0.26585 -0.17600
C 	C 	0.50890 0.30065 0.20873 0.36900
C 	C 	0.83188 0.40717 0.77575 -0.03500
C 	C 	0.73596 0.39996 0.83252 -0.11100
C 	C 	0.07744 0.38413 0.67971 0.40400
C 	C 	0.98447 0.27999 0.70782 -0.23600
C 	C 	0.06593 0.29856 0.83492 -0.24700
C 	C 	0.03163 0.23292 0.90055 0.39400
C 	C 	0.57597 0.26315 0.89269 -0.20200
C 	C 	0.52634 0.12610 0.89905 0.40000
C 	C 	0.50321 0.29418 0.76585 -0.17600
C 	C 	0.50890 0.19935 0.70873 0.36900
C 	C 	0.16812 0.90717 0.72425 -0.03400
C 	C 	0.26404 0.89996 0.66748 -0.11200
C 	C 	0.92256 0.88413 0.82029 0.40200
C 	C 	0.01553 0.77999 0.79218 -0.23200
C 	C 	0.93407 0.79856 0.66508 -0.24900
C 	C 	0.96837 0.73292 0.59945 0.39400
C 	C 	0.42403 0.76315 0.60731 -0.20200
C 	C 	0.47366 0.62610 0.60095 0.40100
C 	C 	0.49679 0.79418 0.73415 -0.17600
C 	C 	0.49110 0.69935 0.79127 0.36900
N 	N 	0.06423 0.70235 0.22488 -0.08300
N 	N 	0.36466 0.71510 0.17444 -0.12200
N 	N 	0.93577 0.20235 0.27512 -0.08300
N 	N 	0.63534 0.21510 0.32556 -0.12200
N 	N 	0.93577 0.29765 0.77512 -0.08300
N 	N 	0.63534 0.28490 0.82556 -0.12200
N 	N 	0.06423 0.79765 0.72488 -0.08300
N 	N 	0.36466 0.78490 0.67444 -0.12200
O 	O 	0.89878 0.63044 0.38150 -0.44300
O 	O 	0.87756 0.52292 0.28029 -0.40000
O 	O 	0.87795 0.74519 0.04385 -0.45000
O 	O 	0.08438 0.84046 0.10474 -0.42400
O 	O 	0.56798 0.89482 0.06182 -0.51500
O 	O 	0.40954 0.95703 0.13194 -0.49600
O 	O 	0.59815 0.79779 0.34227 -0.43800
O 	O 	0.37801 0.87902 0.28234 -0.40300
O 	O 	0.10122 0.13044 0.11850 -0.44400
O 	O 	0.12244 0.02292 0.21971 -0.40200
O 	O 	0.12205 0.24519 0.45615 -0.45200
O 	O 	0.91562 0.34046 0.39526 -0.42400
O 	O 	0.43202 0.39482 0.43818 -0.51700
O 	O 	0.59046 0.45703 0.36806 -0.49800
O 	O 	0.40185 0.29779 0.15773 -0.43900
O 	O 	0.62199 0.37902 0.21766 -0.40400
O 	O 	0.10122 0.36956 0.61850 -0.44300
O 	O 	0.12244 0.47708 0.71971 -0.40000
O 	O 	0.12205 0.25481 0.95615 -0.45000
O 	O 	0.91562 0.15954 0.89526 -0.42400
O 	O 	0.43202 0.10518 0.93818 -0.51500
O 	O 	0.59046 0.04297 0.86806 -0.49600
O 	O 	0.40185 0.20221 0.65773 -0.43800
O 	O 	0.62199 0.12098 0.71766 -0.40300
O 	O 	0.89878 0.86956 0.88150 -0.44400
O 	O 	0.87756 0.97708 0.78029 -0.40200
O 	O 	0.87795 0.75481 0.54385 -0.45200
O 	O 	0.08438 0.65954 0.60474 -0.42400
O 	O 	0.56798 0.60518 0.56182 -0.51700
O 	O 	0.40954 0.54297 0.63194 -0.49800
O 	O 	0.59815 0.70221 0.84227 -0.43900
O 	O 	0.37801 0.62098 0.78234 -0.40400
