data_crystal

_cell_length_a 8.81800
_cell_length_b 10.20000
_cell_length_c 19.73700
_cell_angle_alpha 90.00000
_cell_angle_beta  102.40000
_cell_angle_gamma 90.00000

_symmetry_space_group_name_	'P 1'
_symmetry_space_group_name_H-M	'P 1'

loop_
_symmetry_equiv_pos_as_xyz
  x,y,z

loop_
_atom_site_label
_atom_site_type_symbol
_atom_site_fract_x
_atom_site_fract_y
_atom_site_fract_z
_atom_site_charge
Ba	Ba	0.65658 0.81035 0.96774 1.78100
Ba	Ba	0.34342 0.31035 0.53226 1.78600
Ba	Ba	0.34342 0.18965 0.03226 1.78100
Ba	Ba	0.65658 0.68965 0.46774 1.78600
Cu	Cu	0.76377 0.06618 0.79623 0.92700
Cu	Cu	0.23623 0.56618 0.70377 0.92700
Cu	Cu	0.23623 0.93382 0.20377 0.92800
Cu	Cu	0.76377 0.43382 0.29623 0.92800
H 	H 	0.73740 0.32020 0.68830 0.02000
H 	H 	0.86510 0.41670 0.74250 0.05600
H 	H 	0.61530 0.41940 0.77470 0.05600
H 	H 	0.75440 0.35740 0.83680 0.04300
H 	H 	0.90140 0.17550 0.65870 0.07000
H 	H 	0.05810 0.12750 0.69490 0.08100
H 	H 	0.14140 0.23950 0.82280 0.08500
H 	H 	0.05550 0.36710 0.82710 0.10300
H 	H 	0.62970 0.26040 0.89240 0.07000
H 	H 	0.44740 0.27200 0.84940 0.09200
H 	H 	0.42590 0.27610 0.70960 0.08400
H 	H 	0.39640 0.14860 0.74760 0.09400
H 	H 	0.26260 0.82020 0.81170 0.01900
H 	H 	0.13490 0.91670 0.75750 0.05600
H 	H 	0.38470 0.91940 0.72530 0.05500
H 	H 	0.24560 0.85740 0.66320 0.04200
H 	H 	0.09860 0.67550 0.84130 0.06900
H 	H 	0.94190 0.62750 0.80510 0.07500
H 	H 	0.85860 0.73950 0.67720 0.08700
H 	H 	0.94450 0.86710 0.67290 0.10500
H 	H 	0.37030 0.76040 0.60760 0.07000
H 	H 	0.55260 0.77200 0.65060 0.09200
H 	H 	0.57410 0.77610 0.79040 0.08400
H 	H 	0.60360 0.64860 0.75240 0.09400
H 	H 	0.26260 0.67980 0.31170 0.02000
H 	H 	0.13490 0.58330 0.25750 0.05600
H 	H 	0.38470 0.58060 0.22530 0.05600
H 	H 	0.24560 0.64260 0.16320 0.04300
H 	H 	0.09860 0.82450 0.34130 0.07000
H 	H 	0.94190 0.87250 0.30510 0.08100
H 	H 	0.85860 0.76050 0.17720 0.08500
H 	H 	0.94450 0.63290 0.17290 0.10300
H 	H 	0.37030 0.73960 0.10760 0.07000
H 	H 	0.55260 0.72800 0.15060 0.09200
H 	H 	0.57410 0.72390 0.29040 0.08400
H 	H 	0.60360 0.85140 0.25240 0.09400
H 	H 	0.73740 0.17980 0.18830 0.01900
H 	H 	0.86510 0.08330 0.24250 0.05600
H 	H 	0.61530 0.08060 0.27470 0.05500
H 	H 	0.75440 0.14260 0.33680 0.04200
H 	H 	0.90140 0.32450 0.15870 0.06900
H 	H 	0.05810 0.37250 0.19490 0.07500
H 	H 	0.14140 0.26050 0.32280 0.08700
H 	H 	0.05550 0.13290 0.32710 0.10500
H 	H 	0.62970 0.23960 0.39240 0.07000
H 	H 	0.44740 0.22800 0.34940 0.09200
H 	H 	0.42590 0.22390 0.20960 0.08400
H 	H 	0.39640 0.35140 0.24760 0.09400
C 	C 	0.79606 0.33707 0.73747 -0.07200
C 	C 	0.69066 0.34404 0.78834 -0.08200
C 	C 	0.07871 0.31430 0.67119 0.40600
C 	C 	0.98796 0.20443 0.69842 -0.23300
C 	C 	0.03196 0.27035 0.82067 -0.26100
C 	C 	0.99962 0.21524 0.88760 0.40200
C 	C 	0.54472 0.21720 0.85711 -0.28300
C 	C 	0.51454 0.07862 0.88044 0.41700
C 	C 	0.48312 0.19601 0.73153 -0.27200
C 	C 	0.53019 0.10336 0.67937 0.38700
C 	C 	0.20394 0.83707 0.76253 -0.07200
C 	C 	0.30934 0.84404 0.71166 -0.08100
C 	C 	0.92129 0.81430 0.82881 0.40100
C 	C 	0.01204 0.70443 0.80158 -0.22300
C 	C 	0.96804 0.77035 0.67933 -0.27000
C 	C 	0.00038 0.71524 0.61240 0.41100
C 	C 	0.45528 0.71720 0.64289 -0.28200
C 	C 	0.48546 0.57862 0.61956 0.41500
C 	C 	0.51688 0.69601 0.76847 -0.27200
C 	C 	0.46981 0.60336 0.82063 0.38700
C 	C 	0.20394 0.66293 0.26253 -0.07200
C 	C 	0.30934 0.65596 0.21166 -0.08200
C 	C 	0.92129 0.68570 0.32881 0.40600
C 	C 	0.01204 0.79557 0.30158 -0.23300
C 	C 	0.96804 0.72965 0.17933 -0.26100
C 	C 	0.00038 0.78476 0.11240 0.40200
C 	C 	0.45528 0.78280 0.14289 -0.28300
C 	C 	0.48546 0.92138 0.11956 0.41700
C 	C 	0.51688 0.80399 0.26847 -0.27200
C 	C 	0.46981 0.89664 0.32063 0.38700
C 	C 	0.79606 0.16293 0.23747 -0.07200
C 	C 	0.69066 0.15596 0.28834 -0.08100
C 	C 	0.07871 0.18570 0.17119 0.40100
C 	C 	0.98796 0.29557 0.19842 -0.22300
C 	C 	0.03196 0.22965 0.32067 -0.27000
C 	C 	0.99962 0.28476 0.38760 0.41100
C 	C 	0.54472 0.28280 0.35711 -0.28200
C 	C 	0.51454 0.42138 0.38044 0.41500
C 	C 	0.48312 0.30399 0.23153 -0.27200
C 	C 	0.53019 0.39664 0.17937 0.38700
N 	N 	0.91832 0.23700 0.75741 -0.08100
N 	N 	0.60952 0.21814 0.79384 -0.11200
N 	N 	0.08168 0.73700 0.74259 -0.08000
N 	N 	0.39048 0.71814 0.70616 -0.11200
N 	N 	0.08168 0.76300 0.24259 -0.08100
N 	N 	0.39048 0.78186 0.20616 -0.11200
N 	N 	0.91832 0.26300 0.25741 -0.08000
N 	N 	0.60952 0.28186 0.29384 -0.11200
O 	O 	0.11789 0.29501 0.61486 -0.45400
O 	O 	0.10883 0.41470 0.70901 -0.42400
O 	O 	0.07985 0.25587 0.94255 -0.48600
O 	O 	0.89389 0.12907 0.88473 -0.44600
O 	O 	0.43477 0.06762 0.92412 -0.56600
O 	O 	0.57910 0.98547 0.85601 -0.51000
O 	O 	0.44662 0.09961 0.62063 -0.47400
O 	O 	0.64736 0.03024 0.70071 -0.41700
O 	O 	0.88211 0.79501 0.88514 -0.45300
O 	O 	0.89117 0.91470 0.79099 -0.42300
O 	O 	0.92015 0.75587 0.55745 -0.49300
O 	O 	0.10611 0.62907 0.61527 -0.44800
O 	O 	0.56523 0.56762 0.57588 -0.56900
O 	O 	0.42090 0.48547 0.64399 -0.50900
O 	O 	0.55338 0.59961 0.87937 -0.47400
O 	O 	0.35264 0.53024 0.79929 -0.41600
O 	O 	0.88211 0.70499 0.38514 -0.45400
O 	O 	0.89117 0.58530 0.29099 -0.42400
O 	O 	0.92015 0.74413 0.05745 -0.48600
O 	O 	0.10611 0.87093 0.11527 -0.44600
O 	O 	0.56523 0.93238 0.07588 -0.56600
O 	O 	0.42090 0.01453 0.14399 -0.51000
O 	O 	0.55338 0.90039 0.37937 -0.47400
O 	O 	0.35264 0.96976 0.29929 -0.41700
O 	O 	0.11789 0.20499 0.11486 -0.45300
O 	O 	0.10883 0.08530 0.20901 -0.42300
O 	O 	0.07985 0.24413 0.44255 -0.49300
O 	O 	0.89389 0.37093 0.38473 -0.44800
O 	O 	0.43477 0.43238 0.42412 -0.56900
O 	O 	0.57910 0.51453 0.35601 -0.50900
O 	O 	0.44662 0.40039 0.12063 -0.47400
O 	O 	0.64736 0.46976 0.20071 -0.41600
