data_crystal

_cell_length_a 9.16300
_cell_length_b 14.05700
_cell_length_c 16.27600
_cell_angle_alpha 90.00000
_cell_angle_beta  92.88000
_cell_angle_gamma 90.00000

_symmetry_space_group_name_	'P 1'
_symmetry_space_group_name_H-M	'P 1'

loop_
_symmetry_equiv_pos_as_xyz
  x,y,z

loop_
_atom_site_label
_atom_site_type_symbol
_atom_site_fract_x
_atom_site_fract_y
_atom_site_fract_z
_atom_site_charge
Co	Co	0.51867 0.65011 0.75340 1.07600
Co	Co	0.98133 0.15011 0.74660 1.07500
Co	Co	0.48133 0.34989 0.24660 1.07500
Co	Co	0.01867 0.84989 0.25340 1.07400
Hg	Hg	0.01529 0.79639 0.58161 -0.02800
Hg	Hg	0.48471 0.29639 0.91839 -0.02800
Hg	Hg	0.98471 0.20361 0.41839 -0.02800
Hg	Hg	0.51529 0.70361 0.08161 -0.02800
C 	C 	0.84300 0.74150 0.74120 0.09900
C 	C 	0.87410 0.99750 0.60820 0.10700
C 	C 	0.36170 0.78270 0.61240 0.09300
C 	C 	0.94630 0.71400 0.40480 0.10700
C 	C 	0.65700 0.24150 0.75880 0.09800
C 	C 	0.62590 0.49750 0.89180 0.10500
C 	C 	0.13830 0.28270 0.88760 0.09400
C 	C 	0.55370 0.21400 0.09520 0.10600
C 	C 	0.15700 0.25850 0.25880 0.09900
C 	C 	0.12590 0.00250 0.39180 0.10700
C 	C 	0.63830 0.21730 0.38760 0.09300
C 	C 	0.05370 0.28600 0.59520 0.10700
C 	C 	0.34300 0.75850 0.24120 0.09800
C 	C 	0.37410 0.50250 0.10820 0.10500
C 	C 	0.86170 0.71730 0.11240 0.09400
C 	C 	0.44630 0.78600 0.90480 0.10600
S 	S 	0.01590 0.77102 0.73343 -0.10400
S 	S 	0.82212 0.91688 0.54069 -0.07200
S 	S 	0.26809 0.84293 0.54094 -0.07300
S 	S 	0.93438 0.65283 0.49355 -0.08800
S 	S 	0.48410 0.27102 0.76657 -0.10400
S 	S 	0.67788 0.41688 0.95931 -0.07400
S 	S 	0.23191 0.34293 0.95906 -0.07100
S 	S 	0.56562 0.15283 0.00645 -0.08900
S 	S 	0.98410 0.22898 0.26657 -0.10400
S 	S 	0.17788 0.08312 0.45931 -0.07200
S 	S 	0.73191 0.15707 0.45906 -0.07300
S 	S 	0.06562 0.34717 0.50645 -0.08800
S 	S 	0.51590 0.72898 0.23343 -0.10400
S 	S 	0.32212 0.58312 0.04069 -0.07400
S 	S 	0.76809 0.65707 0.04094 -0.07100
S 	S 	0.43438 0.84717 0.99355 -0.08900
N 	N 	0.72690 0.71600 0.74610 -0.27300
N 	N 	0.90730 0.05430 0.65490 -0.28600
N 	N 	0.42230 0.73770 0.66100 -0.28500
N 	N 	0.95750 0.75510 0.34740 -0.27200
N 	N 	0.77310 0.21600 0.75390 -0.27300
N 	N 	0.59270 0.55430 0.84510 -0.28400
N 	N 	0.07770 0.23770 0.83900 -0.28300
N 	N 	0.54250 0.25510 0.15260 -0.27200
N 	N 	0.27310 0.28400 0.25390 -0.27300
N 	N 	0.09270 0.94570 0.34510 -0.28600
N 	N 	0.57770 0.26230 0.33900 -0.28500
N 	N 	0.04250 0.24490 0.65260 -0.27200
N 	N 	0.22690 0.78400 0.24610 -0.27300
N 	N 	0.40730 0.44570 0.15490 -0.28400
N 	N 	0.92230 0.76230 0.16100 -0.28300
N 	N 	0.45750 0.74490 0.84740 -0.27200
