data_crystal

_cell_length_a 9.85300
_cell_length_b 11.31500
_cell_length_c 14.40000
_cell_angle_alpha 91.32000
_cell_angle_beta  90.00000
_cell_angle_gamma 90.00000

_symmetry_space_group_name_	'P 1'
_symmetry_space_group_name_H-M	'P 1'

loop_
_symmetry_equiv_pos_as_xyz
  x,y,z

loop_
_atom_site_label
_atom_site_type_symbol
_atom_site_fract_x
_atom_site_fract_y
_atom_site_fract_z
_atom_site_charge
Mg	Mg	0.91807 0.74451 0.86508 1.49100
Mg	Mg	0.10788 0.76124 0.68845 1.47600
Mg	Mg	0.41807 0.75549 0.63492 1.47800
Mg	Mg	0.60788 0.73876 0.81155 1.48100
Mg	Mg	0.08193 0.25549 0.13492 1.46100
Mg	Mg	0.89212 0.23876 0.31155 1.48500
Mg	Mg	0.58193 0.24451 0.36508 1.47700
Mg	Mg	0.39212 0.26124 0.18845 1.48000
Mg	Mg	-0.00000 0.00000 -0.00000 1.44300
Mg	Mg	0.50000 0.50000 0.50000 1.48200
Mg	Mg	-0.00000 0.50000 -0.00000 1.45400
Mg	Mg	0.50000 0.00000 0.50000 1.47100
H 	H 	0.03320 0.02520 0.73330 -0.30500
H 	H 	0.61740 0.94310 0.95760 -0.04200
H 	H 	0.75600 0.63630 0.63000 -0.11200
H 	H 	0.70450 0.50930 0.99140 -0.05700
H 	H 	0.18680 0.51860 0.76500 -0.14700
H 	H 	0.15850 0.80170 0.07020 -0.05900
H 	H 	0.53320 0.47480 0.76670 -0.11500
H 	H 	0.11740 0.55690 0.54240 -0.17000
H 	H 	0.25600 0.86370 0.87000 -0.07600
H 	H 	0.20450 0.99070 0.50860 -0.09600
H 	H 	0.68680 0.98140 0.73500 -0.14600
H 	H 	0.65850 0.69830 0.42980 -0.09700
H 	H 	0.96680 0.97480 0.26670 0.03700
H 	H 	0.38260 0.05690 0.04240 -0.19900
H 	H 	0.24400 0.36370 0.37000 -0.14400
H 	H 	0.29550 0.49070 0.00860 -0.17100
H 	H 	0.81320 0.48140 0.23500 -0.12500
H 	H 	0.84150 0.19830 0.92980 -0.16000
H 	H 	0.46680 0.52520 0.23330 -0.13500
H 	H 	0.88260 0.44310 0.45760 -0.06800
H 	H 	0.74400 0.13630 0.13000 -0.17500
H 	H 	0.79550 0.00930 0.49140 -0.12600
H 	H 	0.31320 0.01860 0.26500 -0.13100
H 	H 	0.34150 0.30170 0.57020 -0.13700
C 	C 	0.01314 0.98208 0.78744 0.74300
C 	C 	0.71083 0.92524 0.94928 0.51700
C 	C 	0.82551 0.66931 0.66826 0.53500
C 	C 	0.72205 0.57065 0.94914 0.51100
C 	C 	0.12575 0.54675 0.81154 0.56400
C 	C 	0.10168 0.75800 0.02857 0.33300
C 	C 	0.51314 0.51792 0.71256 0.56600
C 	C 	0.21083 0.57476 0.55072 0.57100
C 	C 	0.32551 0.83069 0.83174 0.54000
C 	C 	0.22205 0.92935 0.55086 0.54500
C 	C 	0.62575 0.95325 0.68846 0.75400
C 	C 	0.60168 0.74200 0.47143 0.53700
C 	C 	0.98686 0.01792 0.21256 0.42900
C 	C 	0.28917 0.07476 0.05072 0.60000
C 	C 	0.17449 0.33069 0.33174 0.55900
C 	C 	0.27795 0.42935 0.05086 0.57200
C 	C 	0.87425 0.45325 0.18846 0.55700
C 	C 	0.89832 0.24200 0.97143 0.74300
C 	C 	0.48686 0.48208 0.28744 0.57100
C 	C 	0.78917 0.42524 0.44928 0.54700
C 	C 	0.67449 0.16931 0.16826 0.55300
C 	C 	0.77795 0.07065 0.44914 0.53500
C 	C 	0.37425 0.04675 0.31154 0.36200
C 	C 	0.39832 0.25800 0.52857 0.57400
O 	O 	0.00219 0.87000 0.77825 -0.76800
O 	O 	0.74092 0.84374 0.88951 -0.60600
O 	O 	0.79624 0.69068 0.75330 -0.62300
O 	O 	0.84578 0.60203 0.93925 -0.55400
O 	O 	0.07818 0.65068 0.80224 -0.70600
O 	O 	0.02458 0.81698 0.97471 -0.54900
O 	O 	0.99975 0.03898 0.86107 -0.46600
O 	O 	0.79294 0.98262 0.99700 -0.33100
O 	O 	0.62284 0.61293 0.90864 -0.46400
O 	O 	0.09985 0.47917 0.87544 -0.51100
O 	O 	0.10802 0.64901 0.03068 -0.55400
O 	O 	0.93749 0.68803 0.63116 -0.39800
O 	O 	0.50219 0.63000 0.72175 -0.67100
O 	O 	0.24092 0.65626 0.61049 -0.68800
O 	O 	0.29624 0.80932 0.74670 -0.64900
O 	O 	0.34578 0.89797 0.56075 -0.63500
O 	O 	0.57818 0.84932 0.69776 -0.69800
O 	O 	0.52458 0.68302 0.52529 -0.65500
O 	O 	0.49975 0.46102 0.63893 -0.50300
O 	O 	0.29294 0.51738 0.50300 -0.51800
O 	O 	0.12284 0.88707 0.59136 -0.52000
O 	O 	0.59985 0.02083 0.62456 -0.63300
O 	O 	0.60802 0.85099 0.46932 -0.46500
O 	O 	0.43749 0.81197 0.86884 -0.45100
O 	O 	0.99781 0.13000 0.22175 -0.58500
O 	O 	0.25908 0.15626 0.11049 -0.73300
O 	O 	0.20376 0.30932 0.24670 -0.71400
O 	O 	0.15422 0.39797 0.06075 -0.76700
O 	O 	0.92182 0.34932 0.19776 -0.62100
O 	O 	0.97542 0.18302 0.02529 -0.73400
O 	O 	0.00025 0.96102 0.13893 -0.54100
O 	O 	0.20706 0.01738 0.00300 -0.68000
O 	O 	0.37716 0.38707 0.09136 -0.54700
O 	O 	0.90015 0.52083 0.12456 -0.47600
O 	O 	0.89198 0.35099 0.96932 -0.46600
O 	O 	0.06251 0.31197 0.36884 -0.61000
O 	O 	0.49781 0.37000 0.27825 -0.68400
O 	O 	0.75908 0.34374 0.38951 -0.64500
O 	O 	0.70376 0.19068 0.25330 -0.68100
O 	O 	0.65422 0.10203 0.43925 -0.67900
O 	O 	0.42182 0.15068 0.30224 -0.63800
O 	O 	0.47542 0.31698 0.47471 -0.67100
O 	O 	0.50025 0.53898 0.36107 -0.50900
O 	O 	0.70706 0.48262 0.49700 -0.48400
O 	O 	0.87716 0.11293 0.40864 -0.48500
O 	O 	0.40015 0.97917 0.37544 -0.36300
O 	O 	0.39198 0.14901 0.53068 -0.56600
O 	O 	0.56251 0.18803 0.13116 -0.54600
