data_crystal

_cell_length_a 10.16500
_cell_length_b 11.62400
_cell_length_c 14.73800
_cell_angle_alpha 91.40200
_cell_angle_beta  90.00000
_cell_angle_gamma 90.00000

_symmetry_space_group_name_	'P 1'
_symmetry_space_group_name_H-M	'P 1'

loop_
_symmetry_equiv_pos_as_xyz
  x,y,z

loop_
_atom_site_label
_atom_site_type_symbol
_atom_site_fract_x
_atom_site_fract_y
_atom_site_fract_z
_atom_site_charge
Mn	Mn	0.91451 0.74394 0.86828 1.33400
Mn	Mn	0.09925 0.76155 0.68359 1.28700
Mn	Mn	0.41451 0.75606 0.63172 1.30500
Mn	Mn	0.59925 0.73845 0.81641 1.31700
Mn	Mn	0.08549 0.25606 0.13172 1.26700
Mn	Mn	0.90075 0.23845 0.31641 1.34300
Mn	Mn	0.58549 0.24394 0.36828 1.29900
Mn	Mn	0.40075 0.26155 0.18359 1.31100
Mn	Mn	-0.00000 0.00000 -0.00000 1.19700
Mn	Mn	0.50000 0.50000 0.50000 1.32400
Mn	Mn	-0.00000 0.50000 -0.00000 1.23600
Mn	Mn	0.50000 0.00000 0.50000 1.28200
H 	H 	0.02240 0.02390 0.73250 -0.21500
H 	H 	0.61750 0.94370 0.96200 -0.03700
H 	H 	0.74790 0.63660 0.63350 -0.10200
H 	H 	0.70230 0.50770 0.99420 -0.05200
H 	H 	0.17850 0.51980 0.76210 -0.12600
H 	H 	0.16020 0.80030 0.06980 -0.05100
H 	H 	0.52240 0.47610 0.76750 -0.10100
H 	H 	0.11750 0.55630 0.53800 -0.13800
H 	H 	0.24790 0.86340 0.86650 -0.07500
H 	H 	0.20230 0.99230 0.50580 -0.07800
H 	H 	0.67850 0.98020 0.73790 -0.13100
H 	H 	0.66020 0.69970 0.43020 -0.08700
H 	H 	0.97760 0.97610 0.26750 -0.00100
H 	H 	0.38250 0.05630 0.03800 -0.16900
H 	H 	0.25210 0.36340 0.36650 -0.12400
H 	H 	0.29770 0.49230 0.00580 -0.14100
H 	H 	0.82150 0.48020 0.23790 -0.10600
H 	H 	0.83980 0.19970 0.93020 -0.13900
H 	H 	0.47760 0.52390 0.23250 -0.11600
H 	H 	0.88250 0.44370 0.46200 -0.07000
H 	H 	0.75210 0.13660 0.13350 -0.14400
H 	H 	0.79770 0.00770 0.49420 -0.11600
H 	H 	0.32150 0.01980 0.26210 -0.10400
H 	H 	0.33980 0.30030 0.56980 -0.12000
C 	C 	0.00560 0.98309 0.78634 0.50300
C 	C 	0.70797 0.92594 0.95334 0.45000
C 	C 	0.81668 0.66939 0.66928 0.47500
C 	C 	0.71762 0.56808 0.95320 0.45500
C 	C 	0.12014 0.54638 0.80847 0.49500
C 	C 	0.10503 0.75744 0.02940 0.31700
C 	C 	0.50560 0.51691 0.71366 0.49700
C 	C 	0.20797 0.57406 0.54666 0.49500
C 	C 	0.31668 0.83061 0.83072 0.47800
C 	C 	0.21762 0.93192 0.54680 0.47900
C 	C 	0.62014 0.95362 0.69153 0.66200
C 	C 	0.60503 0.74256 0.47060 0.48200
C 	C 	0.99440 0.01691 0.21366 0.49900
C 	C 	0.29203 0.07406 0.04666 0.51200
C 	C 	0.18332 0.33061 0.33072 0.49100
C 	C 	0.28238 0.43192 0.04680 0.49400
C 	C 	0.87986 0.45362 0.19153 0.47700
C 	C 	0.89497 0.24256 0.97060 0.64800
C 	C 	0.49440 0.48309 0.28634 0.50100
C 	C 	0.79203 0.42594 0.45334 0.48000
C 	C 	0.68332 0.16939 0.16928 0.48600
C 	C 	0.78238 0.06808 0.45320 0.47400
C 	C 	0.37986 0.04638 0.30847 0.31200
C 	C 	0.39497 0.25744 0.52940 0.51400
O 	O 	0.99823 0.87383 0.77908 -0.47300
O 	O 	0.73600 0.84684 0.89442 -0.54100
O 	O 	0.79133 0.69108 0.75264 -0.55900
O 	O 	0.83673 0.60053 0.94275 -0.50100
O 	O 	0.07444 0.64788 0.80131 -0.62000
O 	O 	0.02826 0.81430 0.97809 -0.48500
O 	O 	0.99272 0.04033 0.85731 -0.40000
O 	O 	0.78838 0.98127 0.99991 -0.29400
O 	O 	0.61992 0.60871 0.91429 -0.42000
O 	O 	0.09571 0.47911 0.87011 -0.44700
O 	O 	0.11317 0.65189 0.03067 -0.47900
O 	O 	0.92325 0.68718 0.63019 -0.38800
O 	O 	0.49823 0.62617 0.72092 -0.58400
O 	O 	0.23600 0.65316 0.60558 -0.59500
O 	O 	0.29133 0.80892 0.74736 -0.56900
O 	O 	0.33673 0.89947 0.55725 -0.55400
O 	O 	0.57444 0.85212 0.69869 -0.60900
O 	O 	0.52826 0.68570 0.52191 -0.58100
O 	O 	0.49272 0.45967 0.64269 -0.45200
O 	O 	0.28838 0.51873 0.50009 -0.45900
O 	O 	0.11992 0.89129 0.58571 -0.46300
O 	O 	0.59571 0.02089 0.62989 -0.56700
O 	O 	0.61317 0.84811 0.46933 -0.41600
O 	O 	0.42325 0.81282 0.86981 -0.41000
O 	O 	0.00177 0.12617 0.22092 -0.71100
O 	O 	0.26400 0.15316 0.10558 -0.61800
O 	O 	0.20867 0.30892 0.24736 -0.59900
O 	O 	0.16327 0.39947 0.05725 -0.64100
O 	O 	0.92556 0.35212 0.19869 -0.53300
O 	O 	0.97174 0.18570 0.02191 -0.63700
O 	O 	0.00728 0.95967 0.14269 -0.46900
O 	O 	0.21162 0.01873 0.00009 -0.57000
O 	O 	0.38008 0.39129 0.08571 -0.48500
O 	O 	0.90429 0.52089 0.12989 -0.42400
O 	O 	0.88683 0.34811 0.96933 -0.42100
O 	O 	0.07675 0.31282 0.36981 -0.51900
O 	O 	0.50177 0.37383 0.27908 -0.59400
O 	O 	0.76400 0.34684 0.39442 -0.56900
O 	O 	0.70867 0.19108 0.25264 -0.58600
O 	O 	0.66327 0.10053 0.44275 -0.59600
O 	O 	0.42556 0.14788 0.30131 -0.55200
O 	O 	0.47174 0.31430 0.47809 -0.59500
O 	O 	0.50728 0.54033 0.35731 -0.45500
O 	O 	0.71162 0.48127 0.49991 -0.43600
O 	O 	0.88008 0.10871 0.41429 -0.44200
O 	O 	0.40429 0.97911 0.37011 -0.32200
O 	O 	0.38683 0.15189 0.53067 -0.50300
O 	O 	0.57675 0.18718 0.13019 -0.49200
