data_crystal

_cell_length_a 6.50520
_cell_length_b 17.50050
_cell_length_c 8.18110
_cell_angle_alpha 90.00000
_cell_angle_beta  107.65600
_cell_angle_gamma 90.00000

_symmetry_space_group_name_	'P 1'
_symmetry_space_group_name_H-M	'P 1'

loop_
_symmetry_equiv_pos_as_xyz
  x,y,z

loop_
_atom_site_label
_atom_site_type_symbol
_atom_site_fract_x
_atom_site_fract_y
_atom_site_fract_z
_atom_site_charge
P 	P 	0.73610 0.04740 0.75700 0.44700
P 	P 	0.39400 0.09130 0.15820 0.58300
P 	P 	0.07050 0.83674 0.87070 0.50600
O 	O 	0.55180 0.98830 0.72730 -0.30400
O 	O 	0.95320 0.00660 0.83240 -0.53500
O 	O 	0.70810 0.11270 0.87170 -0.50200
O 	O 	0.72930 0.08240 0.58140 -0.21600
O 	O 	0.40660 0.02820 0.03220 -0.57300
O 	O 	0.41910 0.05260 0.33310 -0.24500
O 	O 	0.18680 0.13670 0.09280 -0.51100
O 	O 	0.57780 0.14930 0.17630 -0.45100
O 	O 	0.23830 0.88090 0.81510 -0.38900
O 	O 	0.86140 0.82970 0.72250 -0.15700
O 	O 	0.01720 0.88070 0.02120 -0.10900
O 	O 	0.16180 0.75980 0.94700 -0.43200
O 	O 	0.21150 0.11450 0.65090 -0.45100
O 	O 	0.04510 0.17020 0.40140 -0.40000
O 	O 	0.08180 0.97550 0.50830 -0.20700
O 	O 	0.92690 0.03070 0.25620 -0.40700
C 	C 	0.10280 0.11330 0.49520 0.29300
C 	C 	0.03220 0.03340 0.41210 0.05500
In	In	0.25563 0.00250 0.77951 1.97200
In	In	0.88092 0.14147 0.12599 2.00700
P 	P 	0.26390 0.54740 0.24300 0.55000
P 	P 	0.60600 0.59130 0.84180 0.57900
P 	P 	0.92950 0.33674 0.12930 0.51400
O 	O 	0.44820 0.48830 0.27270 -0.44800
O 	O 	0.04680 0.50660 0.16760 -0.48200
O 	O 	0.29190 0.61270 0.12830 -0.50100
O 	O 	0.27070 0.58240 0.41860 -0.20800
O 	O 	0.59340 0.52820 0.96780 -0.52300
O 	O 	0.58090 0.55260 0.66690 -0.20500
O 	O 	0.81320 0.63670 0.90720 -0.50400
O 	O 	0.42220 0.64930 0.82370 -0.44700
O 	O 	0.76170 0.38090 0.18490 -0.43100
O 	O 	0.13860 0.32970 0.27750 -0.18400
O 	O 	0.98280 0.38070 0.97880 -0.16400
O 	O 	0.83820 0.25980 0.05300 -0.43400
O 	O 	0.78850 0.61450 0.34910 -0.41200
O 	O 	0.95490 0.67020 0.59860 -0.38000
O 	O 	0.91820 0.47550 0.49170 -0.38600
O 	O 	0.07310 0.53070 0.74380 -0.42400
C 	C 	0.89720 0.61330 0.50480 0.24700
C 	C 	0.96780 0.53340 0.58790 0.25200
In	In	0.74437 0.50250 0.22049 2.01100
In	In	0.11908 0.64147 0.87401 2.00600
