data_crystal

_cell_length_a 18.40800
_cell_length_b 9.39230
_cell_length_c 10.07000
_cell_angle_alpha 90.00000
_cell_angle_beta  90.00000
_cell_angle_gamma 90.00000

_symmetry_space_group_name_	'P 1'
_symmetry_space_group_name_H-M	'P 1'

loop_
_symmetry_equiv_pos_as_xyz
  x,y,z

loop_
_atom_site_label
_atom_site_type_symbol
_atom_site_fract_x
_atom_site_fract_y
_atom_site_fract_z
_atom_site_charge
O 	O 	0.62000 0.00170 0.42770 -0.43300
O 	O 	0.53490 0.76540 0.51550 -0.52100
O 	O 	0.54510 0.65820 0.70850 -0.45200
Ru	Ru	0.48527 0.05914 0.59396 0.94400
O 	O 	0.50490 0.88020 0.70380 -0.49800
O 	O 	0.70370 0.11940 0.53970 -0.48600
O 	O 	0.59030 0.11870 0.61570 -0.51400
O 	O 	0.70850 0.11410 0.82990 -0.75400
H 	H 	0.69870 0.16200 0.89930 0.27100
H 	H 	0.67000 0.07490 0.80090 0.25700
C 	C 	0.52790 0.76770 0.64410 0.49600
C 	C 	0.63840 0.08130 0.52890 0.49900
K 	K 	0.43060 0.50360 0.55210 0.61800
O 	O 	0.88000 0.49830 0.42770 -0.43300
O 	O 	0.96510 0.73460 0.51550 -0.52200
O 	O 	0.95490 0.84180 0.70850 -0.45400
Ru	Ru	0.01473 0.44086 0.59396 0.94400
O 	O 	0.99510 0.61980 0.70380 -0.49900
O 	O 	0.79630 0.38060 0.53970 -0.48600
O 	O 	0.90970 0.38130 0.61570 -0.51500
O 	O 	0.79150 0.38590 0.82990 -0.75400
H 	H 	0.80130 0.33800 0.89930 0.27100
H 	H 	0.83000 0.42510 0.80090 0.25600
C 	C 	0.97210 0.73230 0.64410 0.49600
C 	C 	0.86160 0.41870 0.52890 0.49900
K 	K 	0.06940 0.99640 0.55210 0.61800
O 	O 	0.38000 0.50170 0.07230 -0.43400
O 	O 	0.46510 0.26540 0.98450 -0.52000
O 	O 	0.45490 0.15820 0.79150 -0.45200
Ru	Ru	0.51473 0.55914 0.90604 0.94200
O 	O 	0.49510 0.38020 0.79620 -0.49700
O 	O 	0.29630 0.61940 0.96030 -0.48500
O 	O 	0.40970 0.61870 0.88430 -0.51500
O 	O 	0.29150 0.61410 0.67010 -0.75400
H 	H 	0.30130 0.66200 0.60070 0.27100
H 	H 	0.33000 0.57490 0.69910 0.25700
C 	C 	0.47210 0.26770 0.85590 0.49500
C 	C 	0.36160 0.58130 0.97110 0.50000
K 	K 	0.56940 0.00360 0.94790 0.61800
O 	O 	0.12000 0.99830 0.07230 -0.43200
O 	O 	0.03490 0.23460 0.98450 -0.51600
O 	O 	0.04510 0.34180 0.79150 -0.45100
Ru	Ru	0.98527 0.94086 0.90604 0.93700
O 	O 	0.00490 0.11980 0.79620 -0.49300
O 	O 	0.20370 0.88060 0.96030 -0.48600
O 	O 	0.09030 0.88130 0.88430 -0.51300
O 	O 	0.20850 0.88590 0.67010 -0.75400
H 	H 	0.19870 0.83800 0.60070 0.27100
H 	H 	0.17000 0.92510 0.69910 0.25700
C 	C 	0.02790 0.23230 0.85590 0.49500
C 	C 	0.13840 0.91870 0.97110 0.49800
K 	K 	0.93060 0.49640 0.94790 0.61700
O 	O 	0.38000 0.99830 0.57230 -0.43400
O 	O 	0.46510 0.23460 0.48450 -0.52200
O 	O 	0.45490 0.34180 0.29150 -0.45300
Ru	Ru	0.51473 0.94086 0.40604 0.94300
O 	O 	0.49510 0.11980 0.29620 -0.49800
O 	O 	0.29630 0.88060 0.46030 -0.48600
O 	O 	0.40970 0.88130 0.38430 -0.51400
O 	O 	0.29150 0.88590 0.17010 -0.75400
H 	H 	0.30130 0.83800 0.10070 0.27100
H 	H 	0.33000 0.92510 0.19910 0.25700
C 	C 	0.47210 0.23230 0.35590 0.49600
C 	C 	0.36160 0.91870 0.47110 0.49900
K 	K 	0.56940 0.49640 0.44790 0.61800
O 	O 	0.12000 0.50170 0.57230 -0.43300
O 	O 	0.03490 0.26540 0.48450 -0.52200
O 	O 	0.04510 0.15820 0.29150 -0.45400
Ru	Ru	0.98527 0.55914 0.40604 0.94400
O 	O 	0.00490 0.38020 0.29620 -0.49900
O 	O 	0.20370 0.61940 0.46030 -0.48600
O 	O 	0.09030 0.61870 0.38430 -0.51500
O 	O 	0.20850 0.61410 0.17010 -0.75400
H 	H 	0.19870 0.66200 0.10070 0.27100
H 	H 	0.17000 0.57490 0.19910 0.25600
C 	C 	0.02790 0.26770 0.35590 0.49600
C 	C 	0.13840 0.58130 0.47110 0.49900
K 	K 	0.93060 0.00360 0.44790 0.61800
O 	O 	0.62000 0.49830 0.92770 -0.43400
O 	O 	0.53490 0.73460 0.01550 -0.52000
O 	O 	0.54510 0.84180 0.20850 -0.45200
Ru	Ru	0.48527 0.44086 0.09396 0.94200
O 	O 	0.50490 0.61980 0.20380 -0.49700
O 	O 	0.70370 0.38060 0.03970 -0.48500
O 	O 	0.59030 0.38130 0.11570 -0.51500
O 	O 	0.70850 0.38590 0.32990 -0.75400
H 	H 	0.69870 0.33800 0.39930 0.27100
H 	H 	0.67000 0.42510 0.30090 0.25700
C 	C 	0.52790 0.73230 0.14410 0.49500
C 	C 	0.63840 0.41870 0.02890 0.50000
K 	K 	0.43060 0.99640 0.05210 0.61800
O 	O 	0.88000 0.00170 0.92770 -0.43200
O 	O 	0.96510 0.76540 0.01550 -0.51600
O 	O 	0.95490 0.65820 0.20850 -0.45100
Ru	Ru	0.01473 0.05914 0.09396 0.93700
O 	O 	0.99510 0.88020 0.20380 -0.49300
O 	O 	0.79630 0.11940 0.03970 -0.48600
O 	O 	0.90970 0.11870 0.11570 -0.51300
O 	O 	0.79150 0.11410 0.32990 -0.75400
H 	H 	0.80130 0.16200 0.39930 0.27100
H 	H 	0.83000 0.07490 0.30090 0.25700
C 	C 	0.97210 0.76770 0.14410 0.49500
C 	C 	0.86160 0.08130 0.02890 0.49800
K 	K 	0.06940 0.50360 0.05210 0.61700
Co	Co	0.75000 0.25000 0.68458 1.14900
Co	Co	0.25000 0.75000 0.81542 1.14900
Co	Co	0.25000 0.75000 0.31542 1.14900
Co	Co	0.75000 0.25000 0.18458 1.14900
