data_crystal

_cell_length_a 14.64840
_cell_length_b 16.43580
_cell_length_c 16.59230
_cell_angle_alpha 90.00000
_cell_angle_beta  90.00000
_cell_angle_gamma 90.00000

_symmetry_space_group_name_	'P 1'
_symmetry_space_group_name_H-M	'P 1'

loop_
_symmetry_equiv_pos_as_xyz
  x,y,z

loop_
_atom_site_label
_atom_site_type_symbol
_atom_site_fract_x
_atom_site_fract_y
_atom_site_fract_z
_atom_site_charge
O 	O 	0.94460 0.90340 0.52450 -0.63100
O 	O 	0.04350 0.85630 0.61560 -0.50200
O 	O 	0.22380 0.57110 0.41640 -0.47300
O 	O 	0.23490 0.61640 0.53480 -0.46700
C 	C 	0.03520 0.76700 0.26340 2.33400
H 	H 	0.06440 0.72030 0.24000 -0.69100
H 	H 	0.06440 0.81360 0.24010 -0.63500
O 	O 	0.86870 0.03370 0.63530 -0.33400
O 	O 	0.89780 0.93400 0.72280 -0.52600
O 	O 	0.64310 0.25240 0.72420 -0.10500
O 	O 	0.56780 0.22260 0.83290 0.01900
C 	C 	0.76050 0.02970 0.98580 -12.84700
H 	H 	0.70250 0.05160 0.00160 2.95400
H 	H 	0.80470 0.05880 0.01740 2.89300
C 	C 	0.00850 0.85910 0.54540 0.53300
C 	C 	0.20110 0.61960 0.46600 0.55200
C 	C 	0.04950 0.80520 0.48360 -0.50600
C 	C 	0.10950 0.74270 0.50520 0.42900
H 	H 	0.12610 0.73540 0.55880 -0.10000
C 	C 	0.14440 0.69120 0.44550 -0.53700
C 	C 	0.12160 0.70540 0.36710 0.73400
H 	H 	0.14570 0.67220 0.32700 -0.22400
C 	C 	0.06270 0.76910 0.34540 -1.19800
C 	C 	0.02400 0.81480 0.40360 0.61400
H 	H 	0.97980 0.85300 0.39000 -0.14100
C 	C 	0.86500 0.00190 0.70390 0.13000
C 	C 	0.62740 0.20700 0.78680 -0.75600
C 	C 	0.81150 0.04630 0.76790 2.12700
C 	C 	0.75400 0.10810 0.74730 -2.49500
H 	H 	0.75030 0.12570 0.69410 0.91100
C 	C 	0.70100 0.14450 0.80690 3.00600
C 	C 	0.70970 0.11950 0.88720 -6.25500
H 	H 	0.67700 0.13990 0.92180 2.86300
C 	C 	0.77280 0.06100 0.90890 7.57400
C 	C 	0.81950 0.01750 0.84640 -3.65200
H 	H 	0.85410 0.97150 0.85790 1.37000
O 	O 	0.44460 0.40340 0.52450 -0.52200
O 	O 	0.54350 0.35630 0.61560 -0.48800
O 	O 	0.72380 0.07110 0.41640 -0.38600
O 	O 	0.73490 0.11640 0.53480 -0.45500
C 	C 	0.53520 0.26700 0.26340 1.60000
H 	H 	0.56440 0.22030 0.24000 -0.44200
H 	H 	0.56440 0.31360 0.24010 -0.40900
O 	O 	0.36870 0.53370 0.63530 -0.24300
O 	O 	0.39780 0.43400 0.72280 -0.23200
O 	O 	0.14310 0.75240 0.72420 -0.11500
O 	O 	0.06780 0.72260 0.83290 -0.03500
C 	C 	0.26050 0.52970 0.98580 -11.33500
H 	H 	0.20250 0.55160 0.00160 2.42500
H 	H 	0.30470 0.55880 0.01740 2.41800
C 	C 	0.50850 0.35910 0.54540 0.59400
C 	C 	0.70110 0.11960 0.46600 0.51600
C 	C 	0.54950 0.30520 0.48360 -0.46600
C 	C 	0.60950 0.24270 0.50520 0.36400
H 	H 	0.62610 0.23540 0.55880 -0.06700
C 	C 	0.64440 0.19120 0.44550 -0.41000
C 	C 	0.62160 0.20540 0.36710 0.54400
H 	H 	0.64570 0.17220 0.32700 -0.12600
C 	C 	0.56270 0.26910 0.34540 -0.87500
C 	C 	0.52400 0.31480 0.40360 0.60700
H 	H 	0.47980 0.35300 0.39000 -0.17100
C 	C 	0.36500 0.50190 0.70390 -0.38000
C 	C 	0.12740 0.70700 0.78680 -0.73000
C 	C 	0.31150 0.54630 0.76790 2.32800
C 	C 	0.25400 0.60810 0.74730 -2.56400
H 	H 	0.25030 0.62570 0.69410 0.92400
C 	C 	0.20100 0.64450 0.80690 2.87900
C 	C 	0.20970 0.61950 0.88720 -5.87800
H 	H 	0.17700 0.63990 0.92180 2.69000
C 	C 	0.27280 0.56100 0.90890 7.02300
C 	C 	0.31950 0.51750 0.84640 -4.10000
H 	H 	0.35410 0.47150 0.85790 1.70000
O 	O 	0.05540 0.09660 0.02450 -0.32400
O 	O 	0.95650 0.14370 0.11560 -0.02400
O 	O 	0.77620 0.42890 0.91640 -0.09500
O 	O 	0.76510 0.38360 0.03480 -0.88600
C 	C 	0.96480 0.23300 0.76340 0.28200
H 	H 	0.93560 0.27970 0.74000 -0.00500
H 	H 	0.93560 0.18640 0.74010 -0.03700
O 	O 	0.13130 0.96630 0.13530 -0.38700
O 	O 	0.10220 0.06600 0.22280 -0.13500
O 	O 	0.35690 0.74760 0.22420 -0.46200
O 	O 	0.43220 0.77740 0.33290 -0.43200
C 	C 	0.23950 0.97030 0.48580 1.65300
H 	H 	0.29750 0.94840 0.50160 -0.49800
H 	H 	0.19530 0.94120 0.51740 -0.44800
C 	C 	0.99150 0.14090 0.04540 -1.15700
C 	C 	0.79890 0.38040 0.96600 0.61600
C 	C 	0.95050 0.19480 0.98360 3.06500
C 	C 	0.89050 0.25730 0.00520 -3.80400
H 	H 	0.87390 0.26460 0.05880 1.19300
C 	C 	0.85560 0.30880 0.94550 2.14000
C 	C 	0.87840 0.29460 0.86710 -1.40100
H 	H 	0.85430 0.32780 0.82700 0.52600
C 	C 	0.93730 0.23090 0.84540 1.03300
C 	C 	0.97600 0.18520 0.90360 -1.63100
H 	H 	0.02020 0.14700 0.89000 0.67500
C 	C 	0.13500 0.99810 0.20390 -0.01200
C 	C 	0.37260 0.79300 0.28680 0.38000
C 	C 	0.18850 0.95370 0.26790 0.03100
C 	C 	0.24600 0.89190 0.24730 0.03100
H 	H 	0.24970 0.87430 0.19410 0.01000
C 	C 	0.29900 0.85550 0.30690 -0.25400
C 	C 	0.29030 0.88050 0.38720 0.41600
H 	H 	0.32300 0.86010 0.42180 -0.13500
C 	C 	0.22720 0.93900 0.40890 -0.66600
C 	C 	0.18050 0.98250 0.34640 -0.35300
H 	H 	0.14590 0.02850 0.35790 0.32700
O 	O 	0.55540 0.59660 0.02450 -0.16600
O 	O 	0.45650 0.64370 0.11560 -0.04800
O 	O 	0.27620 0.92890 0.91640 -0.32300
O 	O 	0.26510 0.88360 0.03480 -1.03900
C 	C 	0.46480 0.73300 0.76340 1.14800
H 	H 	0.43560 0.77970 0.74000 -0.28800
H 	H 	0.43560 0.68640 0.74010 -0.29900
O 	O 	0.63130 0.46630 0.13530 -0.29300
O 	O 	0.60220 0.56600 0.22280 -0.41900
O 	O 	0.85690 0.24760 0.22420 -0.39100
O 	O 	0.93220 0.27740 0.33290 -0.30800
C 	C 	0.73950 0.47030 0.48580 -0.18900
H 	H 	0.79750 0.44840 0.50160 0.10100
H 	H 	0.69530 0.44120 0.51740 0.09400
C 	C 	0.49150 0.64090 0.04540 -1.41300
C 	C 	0.29890 0.88040 0.96600 0.67900
C 	C 	0.45050 0.69480 0.98360 3.18200
C 	C 	0.39050 0.75730 0.00520 -3.87800
H 	H 	0.37390 0.76460 0.05880 1.19900
C 	C 	0.35560 0.80880 0.94550 2.07100
C 	C 	0.37840 0.79460 0.86710 -1.23600
H 	H 	0.35430 0.82780 0.82700 0.43800
C 	C 	0.43730 0.73090 0.84540 0.70700
C 	C 	0.47600 0.68520 0.90360 -1.69600
H 	H 	0.52020 0.64700 0.89000 0.74500
C 	C 	0.63500 0.49810 0.20390 0.38800
C 	C 	0.87260 0.29300 0.28680 0.30400
C 	C 	0.68850 0.45370 0.26790 -0.03800
C 	C 	0.74600 0.39190 0.24730 -0.02200
H 	H 	0.74970 0.37430 0.19410 0.04900
C 	C 	0.79900 0.35550 0.30690 -0.00500
C 	C 	0.79030 0.38050 0.38720 -0.16800
H 	H 	0.82300 0.36010 0.42180 0.12900
C 	C 	0.72720 0.43900 0.40890 0.12300
C 	C 	0.68050 0.48250 0.34640 -0.09200
H 	H 	0.64590 0.52850 0.35790 0.08100
O 	O 	0.05540 0.90340 0.97550 -0.46000
O 	O 	0.95650 0.85630 0.88440 -0.72900
O 	O 	0.77620 0.57110 0.08360 -0.24900
O 	O 	0.76510 0.61640 0.96520 0.55100
C 	C 	0.96480 0.76700 0.23660 -2.03100
H 	H 	0.93560 0.72030 0.26000 0.62300
H 	H 	0.93560 0.81360 0.25990 0.64600
O 	O 	0.13130 0.03370 0.86470 -0.17500
O 	O 	0.10220 0.93400 0.77720 -0.72200
O 	O 	0.35690 0.25240 0.77580 -0.22200
O 	O 	0.43220 0.22260 0.66710 -0.33200
C 	C 	0.23950 0.02970 0.51420 -1.95100
H 	H 	0.29750 0.05160 0.49840 0.65800
H 	H 	0.19530 0.05880 0.48260 0.60500
C 	C 	0.99150 0.85910 0.95460 2.17000
C 	C 	0.79890 0.61960 0.03400 -0.05900
C 	C 	0.95050 0.80520 0.01640 -3.20100
C 	C 	0.89050 0.74270 0.99480 3.74500
H 	H 	0.87390 0.73540 0.94120 -1.02900
C 	C 	0.85560 0.69120 0.05450 -2.06300
C 	C 	0.87840 0.70540 0.13290 0.93700
H 	H 	0.85430 0.67220 0.17300 -0.25800
C 	C 	0.93730 0.76910 0.15460 -0.30400
C 	C 	0.97600 0.81480 0.09640 1.57100
H 	H 	0.02020 0.85300 0.11000 -0.64900
C 	C 	0.13500 0.00190 0.79610 0.75200
C 	C 	0.37260 0.20700 0.71320 0.21800
C 	C 	0.18850 0.04630 0.73210 -0.12300
C 	C 	0.24600 0.10810 0.75270 -0.09500
H 	H 	0.24970 0.12570 0.80590 0.15500
C 	C 	0.29900 0.14450 0.69310 0.25600
C 	C 	0.29030 0.11950 0.61280 -0.73000
H 	H 	0.32300 0.13990 0.57820 0.36500
C 	C 	0.22720 0.06100 0.59110 0.86300
C 	C 	0.18050 0.01750 0.65360 0.17300
H 	H 	0.14590 0.97150 0.64210 -0.19200
O 	O 	0.55540 0.40340 0.97550 -0.20000
O 	O 	0.45650 0.35630 0.88440 -0.73400
O 	O 	0.27620 0.07110 0.08360 -0.20100
O 	O 	0.26510 0.11640 0.96520 0.54400
C 	C 	0.46480 0.26700 0.23660 -1.31500
H 	H 	0.43560 0.22030 0.26000 0.41700
H 	H 	0.43560 0.31360 0.25990 0.42900
O 	O 	0.63130 0.53370 0.86470 -0.08200
O 	O 	0.60220 0.43400 0.77720 -0.40800
O 	O 	0.85690 0.75240 0.77580 -0.21500
O 	O 	0.93220 0.72260 0.66710 -0.30700
C 	C 	0.73950 0.52970 0.51420 -0.12900
H 	H 	0.79750 0.55160 0.49840 0.08300
H 	H 	0.69530 0.55880 0.48260 0.07800
C 	C 	0.49150 0.35910 0.95460 2.07200
C 	C 	0.29890 0.11960 0.03400 -0.03900
C 	C 	0.45050 0.30520 0.01640 -3.27500
C 	C 	0.39050 0.24270 0.99480 3.86200
H 	H 	0.37390 0.23540 0.94120 -1.06700
C 	C 	0.35560 0.19120 0.05450 -2.17000
C 	C 	0.37840 0.20540 0.13290 1.10900
H 	H 	0.35430 0.17220 0.17300 -0.29500
C 	C 	0.43730 0.26910 0.15460 -0.60000
C 	C 	0.47600 0.31480 0.09640 1.54500
H 	H 	0.52020 0.35300 0.11000 -0.56100
C 	C 	0.63500 0.50190 0.79610 0.30400
C 	C 	0.87260 0.70700 0.71320 0.26400
C 	C 	0.68850 0.54630 0.73210 -0.00400
C 	C 	0.74600 0.60810 0.75270 -0.09900
H 	H 	0.74970 0.62570 0.80590 0.14400
C 	C 	0.79900 0.64450 0.69310 0.06900
C 	C 	0.79030 0.61950 0.61280 -0.20800
H 	H 	0.82300 0.63990 0.57820 0.14600
C 	C 	0.72720 0.56100 0.59110 0.12200
C 	C 	0.68050 0.51750 0.65360 -0.11700
H 	H 	0.64590 0.47150 0.64210 0.08300
O 	O 	0.94460 0.09660 0.47550 -0.35900
O 	O 	0.04350 0.14370 0.38440 -0.36700
O 	O 	0.22380 0.42890 0.58360 -0.35900
O 	O 	0.23490 0.38360 0.46520 -0.30800
C 	C 	0.03520 0.23300 0.73660 -1.11100
H 	H 	0.06440 0.27970 0.76000 0.38600
H 	H 	0.06440 0.18640 0.75990 0.33900
O 	O 	0.86870 0.96630 0.36470 -0.71700
O 	O 	0.89780 0.06600 0.27720 -0.31600
O 	O 	0.64310 0.74760 0.27580 -0.58100
O 	O 	0.56780 0.77740 0.16710 -0.77200
C 	C 	0.76050 0.97030 0.01420 12.56300
H 	H 	0.70250 0.94840 0.99840 -2.80000
H 	H 	0.80470 0.94120 0.98260 -2.72000
C 	C 	0.00850 0.14090 0.45460 0.19300
C 	C 	0.20110 0.38040 0.53400 0.23400
C 	C 	0.04950 0.19480 0.51640 0.23100
C 	C 	0.10950 0.25730 0.49480 -0.28600
H 	H 	0.12610 0.26460 0.44120 0.16200
C 	C 	0.14440 0.30880 0.55450 0.19800
C 	C 	0.12160 0.29460 0.63290 -0.49200
H 	H 	0.14570 0.32780 0.67300 0.23000
C 	C 	0.06270 0.23090 0.65460 0.68300
C 	C 	0.02400 0.18520 0.59640 -0.73600
H 	H 	0.97980 0.14700 0.61000 0.37400
C 	C 	0.86500 0.99810 0.29610 0.80600
C 	C 	0.62740 0.79300 0.21320 1.36200
C 	C 	0.81150 0.95370 0.23210 -2.31700
C 	C 	0.75400 0.89190 0.25270 2.47200
H 	H 	0.75030 0.87430 0.30590 -0.79500
C 	C 	0.70100 0.85550 0.19310 -3.03300
C 	C 	0.70970 0.88050 0.11280 5.95400
H 	H 	0.67700 0.86010 0.07820 -2.63300
C 	C 	0.77280 0.93900 0.09110 -7.38800
C 	C 	0.81950 0.98250 0.15360 3.54100
H 	H 	0.85410 0.02850 0.14210 -1.21400
O 	O 	0.44460 0.59660 0.47550 -0.46100
O 	O 	0.54350 0.64370 0.38440 -0.39900
O 	O 	0.72380 0.92890 0.58360 -0.57100
O 	O 	0.73490 0.88360 0.46520 -0.44100
C 	C 	0.53520 0.73300 0.73660 -1.96800
H 	H 	0.56440 0.77970 0.76000 0.62800
H 	H 	0.56440 0.68640 0.75990 0.59500
O 	O 	0.36870 0.46630 0.36470 -0.64400
O 	O 	0.39780 0.56600 0.27720 -0.69700
O 	O 	0.14310 0.24760 0.27580 -0.56000
O 	O 	0.06780 0.27740 0.16710 -0.77500
C 	C 	0.26050 0.47030 0.01420 11.05000
H 	H 	0.20250 0.44840 0.99840 -2.28600
H 	H 	0.30470 0.44120 0.98260 -2.24600
C 	C 	0.50850 0.64090 0.45460 0.33800
C 	C 	0.70110 0.88040 0.53400 0.26600
C 	C 	0.54950 0.69480 0.51640 0.21900
C 	C 	0.60950 0.75730 0.49480 -0.28000
H 	H 	0.62610 0.76460 0.44120 0.16200
C 	C 	0.64440 0.80880 0.55450 0.22400
C 	C 	0.62160 0.79460 0.63290 -0.64200
H 	H 	0.64570 0.82780 0.67300 0.25600
C 	C 	0.56270 0.73090 0.65460 1.00400
C 	C 	0.52400 0.68520 0.59640 -0.69000
H 	H 	0.47980 0.64700 0.61000 0.29200
C 	C 	0.36500 0.49810 0.29610 1.27200
C 	C 	0.12740 0.29300 0.21320 1.34000
C 	C 	0.31150 0.45370 0.23210 -2.50700
C 	C 	0.25400 0.39190 0.25270 2.54700
H 	H 	0.25030 0.37430 0.30590 -0.80200
C 	C 	0.20100 0.35550 0.19310 -2.93000
C 	C 	0.20970 0.38050 0.11280 5.59900
H 	H 	0.17700 0.36010 0.07820 -2.49100
C 	C 	0.27280 0.43900 0.09110 -6.85100
C 	C 	0.31950 0.48250 0.15360 3.97800
H 	H 	0.35410 0.52850 0.14210 -1.55800
Gd	Gd	0.83793 -0.00000 0.50000 2.48900
Gd	Gd	0.33793 0.50000 0.50000 1.77500
Gd	Gd	0.16207 0.00000 -0.00000 0.54700
Gd	Gd	0.66207 0.50000 -0.00000 -0.14300
Gd	Gd	0.00000 0.83214 0.75000 1.61100
Gd	Gd	0.50000 0.33214 0.75000 1.75800
Gd	Gd	-0.00000 0.16786 0.25000 1.40300
Gd	Gd	0.50000 0.66786 0.25000 1.69600
