data_crystal

_cell_length_a 9.39930
_cell_length_b 10.27830
_cell_length_c 17.55160
_cell_angle_alpha 103.05500
_cell_angle_beta  90.00000
_cell_angle_gamma 90.00000

_symmetry_space_group_name_	'P 1'
_symmetry_space_group_name_H-M	'P 1'

loop_
_symmetry_equiv_pos_as_xyz
  x,y,z

loop_
_atom_site_label
_atom_site_type_symbol
_atom_site_fract_x
_atom_site_fract_y
_atom_site_fract_z
_atom_site_charge
Cd	Cd	0.16105 0.22595 0.75020 1.19100
Cd	Cd	0.66105 0.77405 0.74980 1.19100
Cd	Cd	0.83895 0.77405 0.24980 1.19100
Cd	Cd	0.33895 0.22595 0.25020 1.19100
H 	H 	0.13430 0.84670 0.63620 0.05300
H 	H 	0.12240 0.76180 0.50180 0.03700
H 	H 	0.32500 0.74750 0.42600 0.05300
H 	H 	0.55350 0.90770 0.61740 0.03800
H 	H 	0.54110 0.73870 0.35050 0.03200
H 	H 	0.90800 0.87230 0.44110 -0.02500
H 	H 	0.27960 0.40760 0.01460 0.05600
H 	H 	0.59170 0.48860 0.87630 0.02900
H 	H 	0.73960 0.89680 0.54370 0.14300
H 	H 	0.63430 0.15330 0.86380 0.05300
H 	H 	0.62240 0.23820 0.99820 0.03600
H 	H 	0.82500 0.25250 0.07400 0.05400
H 	H 	0.05350 0.09230 0.88260 0.03300
H 	H 	0.04110 0.26130 0.14950 0.03200
H 	H 	0.40800 0.12770 0.05890 -0.02400
H 	H 	0.77960 0.59240 0.48540 0.05500
H 	H 	0.09170 0.51140 0.62370 0.02900
H 	H 	0.23960 0.10320 0.95630 0.14100
H 	H 	0.86570 0.15330 0.36380 0.05300
H 	H 	0.87760 0.23820 0.49820 0.03700
H 	H 	0.67500 0.25250 0.57400 0.05300
H 	H 	0.44650 0.09230 0.38260 0.03800
H 	H 	0.45890 0.26130 0.64950 0.03200
H 	H 	0.09200 0.12770 0.55890 -0.02500
H 	H 	0.72040 0.59240 0.98540 0.05600
H 	H 	0.40830 0.51140 0.12370 0.02900
H 	H 	0.26040 0.10320 0.45630 0.14300
H 	H 	0.36570 0.84670 0.13620 0.05300
H 	H 	0.37760 0.76180 0.00180 0.03600
H 	H 	0.17500 0.74750 0.92600 0.05400
H 	H 	0.94650 0.90770 0.11740 0.03300
H 	H 	0.95890 0.73870 0.85050 0.03200
H 	H 	0.59200 0.87230 0.94110 -0.02400
H 	H 	0.22040 0.40760 0.51460 0.05500
H 	H 	0.90830 0.48860 0.37630 0.02900
H 	H 	0.76040 0.89680 0.04370 0.14100
C 	C 	0.34510 0.88510 0.64003 -0.03300
C 	C 	0.21590 0.84180 0.60577 -0.06300
C 	C 	0.20910 0.79060 0.52516 -0.01100
C 	C 	0.33070 0.78240 0.47960 -0.07200
C 	C 	0.46160 0.82600 0.51355 0.01600
C 	C 	0.46710 0.87770 0.59398 -0.07000
C 	C 	0.35620 0.93300 0.72564 0.10300
C 	C 	0.58940 0.81810 0.46535 0.06300
C 	C 	0.61090 0.77510 0.38661 -0.03200
C 	C 	0.81260 0.84800 0.43575 0.12200
C 	C 	0.36800 0.44470 0.00871 -0.03300
C 	C 	0.42280 0.43780 0.93414 -0.06800
C 	C 	0.55470 0.49320 0.92597 -0.02300
C 	C 	0.33970 0.36810 0.86347 0.31100
C 	C 	0.84510 0.11490 0.85997 -0.03500
C 	C 	0.71590 0.15820 0.89423 -0.06300
C 	C 	0.70910 0.20940 0.97484 -0.00900
C 	C 	0.83070 0.21760 0.02040 -0.07500
C 	C 	0.96160 0.17400 0.98645 0.01700
C 	C 	0.96710 0.12230 0.90602 -0.06300
C 	C 	0.85620 0.06700 0.77436 0.10400
C 	C 	0.08940 0.18190 0.03465 0.06200
C 	C 	0.11090 0.22490 0.11339 -0.03100
C 	C 	0.31260 0.15200 0.06425 0.12200
C 	C 	0.86800 0.55530 0.49129 -0.03400
C 	C 	0.92280 0.56220 0.56586 -0.06700
C 	C 	0.05470 0.50680 0.57403 -0.02300
C 	C 	0.83970 0.63190 0.63653 0.31100
C 	C 	0.65490 0.11490 0.35997 -0.03300
C 	C 	0.78410 0.15820 0.39423 -0.06300
C 	C 	0.79090 0.20940 0.47484 -0.01100
C 	C 	0.66930 0.21760 0.52040 -0.07200
C 	C 	0.53840 0.17400 0.48645 0.01600
C 	C 	0.53290 0.12230 0.40602 -0.07000
C 	C 	0.64380 0.06700 0.27436 0.10300
C 	C 	0.41060 0.18190 0.53465 0.06300
C 	C 	0.38910 0.22490 0.61339 -0.03200
C 	C 	0.18740 0.15200 0.56425 0.12200
C 	C 	0.63200 0.55530 0.99129 -0.03300
C 	C 	0.57720 0.56220 0.06586 -0.06800
C 	C 	0.44530 0.50680 0.07403 -0.02300
C 	C 	0.66030 0.63190 0.13653 0.31100
C 	C 	0.15490 0.88510 0.14003 -0.03500
C 	C 	0.28410 0.84180 0.10577 -0.06300
C 	C 	0.29090 0.79060 0.02516 -0.00900
C 	C 	0.16930 0.78240 0.97960 -0.07500
C 	C 	0.03840 0.82600 0.01355 0.01700
C 	C 	0.03290 0.87770 0.09398 -0.06300
C 	C 	0.14380 0.93300 0.22564 0.10400
C 	C 	0.91060 0.81810 0.96535 0.06200
C 	C 	0.88910 0.77510 0.88661 -0.03100
C 	C 	0.68740 0.84800 0.93575 0.12200
C 	C 	0.13200 0.44470 0.50871 -0.03400
C 	C 	0.07720 0.43780 0.43414 -0.06700
C 	C 	0.94530 0.49320 0.42597 -0.02300
C 	C 	0.16030 0.36810 0.36347 0.31100
N 	N 	0.45110 0.88490 0.76934 -0.22300
N 	N 	0.42130 0.94470 0.84451 -0.07600
N 	N 	0.31490 0.02430 0.84519 -0.07000
N 	N 	0.27100 0.02040 0.77079 -0.18900
N 	N 	0.72040 0.86380 0.49523 -0.21400
N 	N 	0.75110 0.79350 0.36851 -0.25500
N 	N 	0.95110 0.11510 0.73066 -0.22200
N 	N 	0.92130 0.05530 0.65549 -0.07500
N 	N 	0.81490 0.97570 0.65481 -0.07000
N 	N 	0.77100 0.97960 0.72921 -0.18900
N 	N 	0.22040 0.13620 0.00477 -0.21300
N 	N 	0.25110 0.20650 0.13149 -0.25400
N 	N 	0.54890 0.11510 0.23066 -0.22300
N 	N 	0.57870 0.05530 0.15549 -0.07600
N 	N 	0.68510 0.97570 0.15481 -0.07000
N 	N 	0.72900 0.97960 0.22921 -0.18900
N 	N 	0.27960 0.13620 0.50477 -0.21400
N 	N 	0.24890 0.20650 0.63149 -0.25500
N 	N 	0.04890 0.88490 0.26934 -0.22200
N 	N 	0.07870 0.94470 0.34451 -0.07500
N 	N 	0.18510 0.02430 0.34519 -0.07000
N 	N 	0.22900 0.02040 0.27079 -0.18900
N 	N 	0.77960 0.86380 0.99523 -0.21300
N 	N 	0.74890 0.79350 0.86851 -0.25400
O 	O 	0.21840 0.32260 0.87395 -0.41800
O 	O 	0.38990 0.35950 0.79744 -0.37400
O 	O 	0.71840 0.67740 0.62605 -0.41700
O 	O 	0.88990 0.64050 0.70256 -0.37400
O 	O 	0.78160 0.67740 0.12605 -0.41800
O 	O 	0.61010 0.64050 0.20256 -0.37400
O 	O 	0.28160 0.32260 0.37395 -0.41700
O 	O 	0.11010 0.35950 0.29744 -0.37400
