data_crystal

_cell_length_a 14.67020
_cell_length_b 16.36860
_cell_length_c 16.57470
_cell_angle_alpha 90.00000
_cell_angle_beta  90.00000
_cell_angle_gamma 90.00000

_symmetry_space_group_name_	'P 1'
_symmetry_space_group_name_H-M	'P 1'

loop_
_symmetry_equiv_pos_as_xyz
  x,y,z

loop_
_atom_site_label
_atom_site_type_symbol
_atom_site_fract_x
_atom_site_fract_y
_atom_site_fract_z
_atom_site_charge
O 	O 	0.76220 0.11660 0.53480 -0.41600
O 	O 	0.77350 0.07160 0.41620 -0.45900
O 	O 	0.95740 0.35710 0.61540 -0.50000
O 	O 	0.05520 0.40310 0.52410 -0.66400
O 	O 	0.60160 0.93220 0.72250 -0.43100
O 	O 	0.63110 0.03470 0.63440 -0.45800
O 	O 	0.85900 0.25330 0.72340 -0.33600
O 	O 	0.93400 0.22060 0.83070 -0.33700
C 	C 	0.96520 0.26630 0.26200 -0.46000
H 	H 	0.93770 0.31450 0.23960 0.18300
H 	H 	0.93980 0.22560 0.23930 0.21700
C 	C 	0.79730 0.12030 0.46620 0.40000
C 	C 	0.99260 0.35870 0.54620 0.68800
C 	C 	0.85400 0.19000 0.44530 -0.14100
C 	C 	0.89010 0.24190 0.50580 0.14100
H 	H 	0.87520 0.23390 0.55790 0.01300
C 	C 	0.95080 0.30490 0.48460 -0.28700
C 	C 	0.97480 0.31440 0.40390 0.26000
H 	H 	0.01090 0.34900 0.39200 -0.12700
C 	C 	0.93920 0.26520 0.34340 0.06600
C 	C 	0.87660 0.20520 0.36470 -0.03000
H 	H 	0.84910 0.17440 0.32440 0.05200
C 	C 	0.63550 0.00150 0.70280 0.29700
C 	C 	0.87130 0.20570 0.78480 0.24700
C 	C 	0.68730 0.04560 0.76800 0.07900
C 	C 	0.67890 0.02080 0.84630 -0.37300
H 	H 	0.63990 0.97790 0.85930 0.22400
C 	C 	0.72870 0.05970 0.90710 0.28400
C 	C 	0.78450 0.12110 0.88780 -0.37100
H 	H 	0.81110 0.14450 0.92310 0.22200
C 	C 	0.80030 0.14440 0.80580 0.11300
C 	C 	0.74660 0.10780 0.74790 -0.15200
H 	H 	0.75040 0.12530 0.69460 0.11000
C 	C 	0.73390 0.03070 0.98690 -0.24300
H 	H 	0.68330 0.05640 0.01330 0.05900
H 	H 	0.78720 0.03840 0.99410 0.13400
O 	O 	0.26220 0.61660 0.53480 -0.41900
O 	O 	0.27350 0.57160 0.41620 -0.44500
O 	O 	0.45740 0.85710 0.61540 -0.50100
O 	O 	0.55520 0.90310 0.52410 -0.50900
O 	O 	0.10160 0.43220 0.72250 -0.51100
O 	O 	0.13110 0.53470 0.63440 -0.49100
O 	O 	0.35900 0.75330 0.72340 -0.37200
O 	O 	0.43400 0.72060 0.83070 -0.39700
C 	C 	0.46520 0.76630 0.26200 -0.09600
H 	H 	0.43770 0.81450 0.23960 0.06900
H 	H 	0.43980 0.72560 0.23930 0.07700
C 	C 	0.29730 0.62030 0.46620 0.38200
C 	C 	0.49260 0.85870 0.54620 0.51000
C 	C 	0.35400 0.69000 0.44530 -0.10500
C 	C 	0.39010 0.74190 0.50580 0.05000
H 	H 	0.37520 0.73390 0.55790 0.04000
C 	C 	0.45080 0.80490 0.48460 -0.13800
C 	C 	0.47480 0.81440 0.40390 -0.04400
H 	H 	0.51090 0.84900 0.39200 0.07000
C 	C 	0.43920 0.76520 0.34340 0.02900
C 	C 	0.37660 0.70520 0.36470 -0.03100
H 	H 	0.34910 0.67440 0.32440 0.05600
C 	C 	0.13550 0.50150 0.70280 0.42800
C 	C 	0.37130 0.70570 0.78480 0.27000
C 	C 	0.18730 0.54560 0.76800 -0.02000
C 	C 	0.17890 0.52080 0.84630 -0.18800
H 	H 	0.13990 0.47790 0.85930 0.10300
C 	C 	0.22870 0.55970 0.90710 0.29100
C 	C 	0.28450 0.62110 0.88780 -0.35200
H 	H 	0.31110 0.64450 0.92310 0.20900
C 	C 	0.30030 0.64440 0.80580 0.07500
C 	C 	0.24660 0.60780 0.74790 -0.08100
H 	H 	0.25040 0.62530 0.69460 0.08700
C 	C 	0.23390 0.53070 0.98690 -0.44500
H 	H 	0.18330 0.55640 0.01330 0.13600
H 	H 	0.28720 0.53840 0.99410 0.24300
O 	O 	0.23780 0.88340 0.03480 -0.39500
O 	O 	0.22650 0.92840 0.91620 -0.35700
O 	O 	0.04260 0.64290 0.11540 -0.44100
O 	O 	0.94480 0.59690 0.02410 -0.43800
O 	O 	0.39840 0.06780 0.22250 -0.60300
O 	O 	0.36890 0.96530 0.13440 -0.45700
O 	O 	0.14100 0.74670 0.22340 -0.38300
O 	O 	0.06600 0.77940 0.33070 -0.42800
C 	C 	0.03480 0.73370 0.76200 0.22500
H 	H 	0.06230 0.68550 0.73960 -0.03600
H 	H 	0.06020 0.77440 0.73930 -0.04600
C 	C 	0.20270 0.87970 0.96620 0.34900
C 	C 	0.00740 0.64130 0.04620 0.22400
C 	C 	0.14600 0.81000 0.94530 0.09700
C 	C 	0.10990 0.75810 0.00580 -0.30900
H 	H 	0.12480 0.76610 0.05790 0.15900
C 	C 	0.04920 0.69510 0.98460 0.25200
C 	C 	0.02520 0.68560 0.90390 -0.55900
H 	H 	0.98910 0.65100 0.89200 0.35600
C 	C 	0.06080 0.73480 0.84340 0.11900
C 	C 	0.12340 0.79480 0.86470 -0.15500
H 	H 	0.15090 0.82560 0.82440 0.10300
C 	C 	0.36450 0.99850 0.20280 0.58700
C 	C 	0.12870 0.79430 0.28480 0.30800
C 	C 	0.31270 0.95440 0.26800 -0.16600
C 	C 	0.32110 0.97920 0.34630 0.09100
H 	H 	0.36010 0.02210 0.35930 -0.04500
C 	C 	0.27130 0.94030 0.40710 0.17000
C 	C 	0.21550 0.87890 0.38780 -0.21600
H 	H 	0.18890 0.85550 0.42310 0.13500
C 	C 	0.19970 0.85560 0.30580 -0.02300
C 	C 	0.25340 0.89220 0.24790 0.03500
H 	H 	0.24960 0.87470 0.19460 0.04800
C 	C 	0.26610 0.96930 0.48690 -0.47500
H 	H 	0.31670 0.94360 0.51330 0.20200
H 	H 	0.21280 0.96160 0.49410 0.25900
O 	O 	0.73780 0.38340 0.03480 -0.44000
O 	O 	0.72650 0.42840 0.91620 -0.41300
O 	O 	0.54260 0.14290 0.11540 -0.47700
O 	O 	0.44480 0.09690 0.02410 -0.52600
O 	O 	0.89840 0.56780 0.22250 -0.46600
O 	O 	0.86890 0.46530 0.13440 -0.47000
O 	O 	0.64100 0.24670 0.22340 -0.38900
O 	O 	0.56600 0.27940 0.33070 -0.41200
C 	C 	0.53480 0.23370 0.76200 -0.15100
H 	H 	0.56230 0.18550 0.73960 0.08100
H 	H 	0.56020 0.27440 0.73930 0.09900
C 	C 	0.70270 0.37970 0.96620 0.38000
C 	C 	0.50740 0.14130 0.04620 0.36600
C 	C 	0.64600 0.31000 0.94530 0.08000
C 	C 	0.60990 0.25810 0.00580 -0.25900
H 	H 	0.62480 0.26610 0.05790 0.14100
C 	C 	0.54920 0.19510 0.98460 0.14600
C 	C 	0.52520 0.18560 0.90390 -0.29300
H 	H 	0.48910 0.15100 0.89200 0.17800
C 	C 	0.56080 0.23480 0.84340 0.17900
C 	C 	0.62340 0.29480 0.86470 -0.17200
H 	H 	0.65090 0.32560 0.82440 0.10500
C 	C 	0.86450 0.49850 0.20280 0.44200
C 	C 	0.62870 0.29430 0.28480 0.29300
C 	C 	0.81270 0.45440 0.26800 -0.05700
C 	C 	0.82110 0.47920 0.34630 -0.11200
H 	H 	0.86010 0.52210 0.35930 0.08800
C 	C 	0.77130 0.44030 0.40710 0.16800
C 	C 	0.71550 0.37890 0.38780 -0.24000
H 	H 	0.68890 0.35550 0.42310 0.14900
C 	C 	0.69970 0.35560 0.30580 0.01400
C 	C 	0.75340 0.39220 0.24790 -0.04100
H 	H 	0.74960 0.37470 0.19460 0.06900
C 	C 	0.76610 0.46930 0.48690 -0.27800
H 	H 	0.81670 0.44360 0.51330 0.13100
H 	H 	0.71280 0.46160 0.49410 0.15000
O 	O 	0.23780 0.11660 0.96520 -0.35400
O 	O 	0.22650 0.07160 0.08380 -0.45200
O 	O 	0.04260 0.35710 0.88460 -0.49300
O 	O 	0.94480 0.40310 0.97590 -0.44200
O 	O 	0.39840 0.93220 0.77750 -0.43400
O 	O 	0.36890 0.03470 0.86560 -0.43800
O 	O 	0.14100 0.25330 0.77660 -0.36900
O 	O 	0.06600 0.22060 0.66930 -0.43300
C 	C 	0.03480 0.26630 0.23800 0.17700
H 	H 	0.06230 0.31450 0.26040 -0.02200
H 	H 	0.06020 0.22560 0.26070 -0.04200
C 	C 	0.20270 0.12030 0.03380 0.34800
C 	C 	0.00740 0.35870 0.95380 0.46300
C 	C 	0.14600 0.19000 0.05470 -0.23300
C 	C 	0.10990 0.24190 0.99420 0.23800
H 	H 	0.12480 0.23390 0.94210 -0.02400
C 	C 	0.04920 0.30490 0.01540 -0.24300
C 	C 	0.02520 0.31440 0.09610 -0.15600
H 	H 	0.98910 0.34900 0.10800 0.16200
C 	C 	0.06080 0.26520 0.15660 -0.08700
C 	C 	0.12340 0.20520 0.13530 0.06000
H 	H 	0.15090 0.17440 0.17560 0.01400
C 	C 	0.36450 0.00150 0.79720 0.31000
C 	C 	0.12870 0.20570 0.71520 0.28700
C 	C 	0.31270 0.04560 0.73200 0.01200
C 	C 	0.32110 0.02080 0.65370 -0.27700
H 	H 	0.36010 0.97790 0.64070 0.18500
C 	C 	0.27130 0.05970 0.59290 0.11300
C 	C 	0.21550 0.12110 0.61220 -0.20300
H 	H 	0.18890 0.14450 0.57690 0.12300
C 	C 	0.19970 0.14440 0.69420 0.00800
C 	C 	0.25340 0.10780 0.75210 -0.08300
H 	H 	0.24960 0.12530 0.80540 0.08300
C 	C 	0.26610 0.03070 0.51310 -0.04100
H 	H 	0.31670 0.05640 0.48670 0.04000
H 	H 	0.21280 0.03840 0.50590 0.01100
O 	O 	0.73780 0.61660 0.96520 -0.35300
O 	O 	0.72650 0.57160 0.08380 -0.42900
O 	O 	0.54260 0.85710 0.88460 -0.51800
O 	O 	0.44480 0.90310 0.97590 -0.48900
O 	O 	0.89840 0.43220 0.77750 -0.46400
O 	O 	0.86890 0.53470 0.86560 -0.45800
O 	O 	0.64100 0.75330 0.77660 -0.37000
O 	O 	0.56600 0.72060 0.66930 -0.40800
C 	C 	0.53480 0.76630 0.23800 -0.21300
H 	H 	0.56230 0.81450 0.26040 0.10100
H 	H 	0.56020 0.72560 0.26070 0.11900
C 	C 	0.70270 0.62030 0.03380 0.35500
C 	C 	0.50740 0.85870 0.95380 0.60900
C 	C 	0.64600 0.69000 0.05470 -0.22600
C 	C 	0.60990 0.74190 0.99420 0.29000
H 	H 	0.62480 0.73390 0.94210 -0.03500
C 	C 	0.54920 0.80490 0.01540 -0.34200
C 	C 	0.52520 0.81440 0.09610 0.08000
H 	H 	0.48910 0.84900 0.10800 0.01100
C 	C 	0.56080 0.76520 0.15660 -0.00300
C 	C 	0.62340 0.70520 0.13530 0.02700
H 	H 	0.65090 0.67440 0.17560 0.03800
C 	C 	0.86450 0.50150 0.79720 0.43700
C 	C 	0.62870 0.70570 0.71520 0.28900
C 	C 	0.81270 0.54560 0.73200 -0.05400
C 	C 	0.82110 0.52080 0.65370 -0.11600
H 	H 	0.86010 0.47790 0.64070 0.08900
C 	C 	0.77130 0.55970 0.59290 0.17000
C 	C 	0.71550 0.62110 0.61220 -0.24500
H 	H 	0.68890 0.64450 0.57690 0.15100
C 	C 	0.69970 0.64440 0.69420 0.02200
C 	C 	0.75340 0.60780 0.75210 -0.04700
H 	H 	0.74960 0.62530 0.80540 0.07600
C 	C 	0.76610 0.53070 0.51310 -0.27500
H 	H 	0.81670 0.55640 0.48670 0.12900
H 	H 	0.71280 0.53840 0.50590 0.14800
O 	O 	0.76220 0.88340 0.46520 -0.36900
O 	O 	0.77350 0.92840 0.58380 -0.37200
O 	O 	0.95740 0.64290 0.38460 -0.49100
O 	O 	0.05520 0.59690 0.47590 -0.65500
O 	O 	0.60160 0.06780 0.27750 -0.60900
O 	O 	0.63110 0.96530 0.36560 -0.47300
O 	O 	0.85900 0.74670 0.27660 -0.35100
O 	O 	0.93400 0.77940 0.16930 -0.35800
C 	C 	0.96520 0.73370 0.73800 -0.67400
H 	H 	0.93770 0.68550 0.76040 0.24200
H 	H 	0.93980 0.77440 0.76070 0.30900
C 	C 	0.79730 0.87970 0.53380 0.36100
C 	C 	0.99260 0.64130 0.45380 0.66100
C 	C 	0.85400 0.81000 0.55470 -0.06200
C 	C 	0.89010 0.75810 0.49420 0.07600
H 	H 	0.87520 0.76610 0.44210 0.04200
C 	C 	0.95080 0.69510 0.51540 -0.21300
C 	C 	0.97480 0.68560 0.59610 0.12800
H 	H 	0.01090 0.65100 0.60800 -0.06900
C 	C 	0.93920 0.73480 0.65660 0.21100
C 	C 	0.87660 0.79480 0.63530 -0.12600
H 	H 	0.84910 0.82560 0.67560 0.10200
C 	C 	0.63550 0.99850 0.29720 0.60600
C 	C 	0.87130 0.79430 0.21520 0.31900
C 	C 	0.68730 0.95440 0.23200 -0.20600
C 	C 	0.67890 0.97920 0.15370 0.16300
H 	H 	0.63990 0.02210 0.14070 -0.07600
C 	C 	0.72870 0.94030 0.09290 0.05900
C 	C 	0.78450 0.87890 0.11220 -0.11800
H 	H 	0.81110 0.85550 0.07690 0.09900
C 	C 	0.80030 0.85560 0.19420 -0.05200
C 	C 	0.74660 0.89220 0.25210 0.07500
H 	H 	0.75040 0.87470 0.30540 0.04100
C 	C 	0.73390 0.96930 0.01310 -0.30800
H 	H 	0.68330 0.94360 0.98670 0.19200
H 	H 	0.78720 0.96160 0.00590 0.17900
O 	O 	0.26220 0.38340 0.46520 -0.41400
O 	O 	0.27350 0.42840 0.58380 -0.43900
O 	O 	0.45740 0.14290 0.38460 -0.50600
O 	O 	0.55520 0.09690 0.47590 -0.55300
O 	O 	0.10160 0.56780 0.27750 -0.52100
O 	O 	0.13110 0.46530 0.36560 -0.49800
O 	O 	0.35900 0.24670 0.27660 -0.38900
O 	O 	0.43400 0.27940 0.16930 -0.42400
C 	C 	0.46520 0.23370 0.73800 -0.29000
H 	H 	0.43770 0.18550 0.76040 0.12000
H 	H 	0.43980 0.27440 0.76070 0.15000
C 	C 	0.29730 0.37970 0.53380 0.36500
C 	C 	0.49260 0.14130 0.45380 0.49900
C 	C 	0.35400 0.31000 0.55470 -0.06500
C 	C 	0.39010 0.25810 0.49420 0.01200
H 	H 	0.37520 0.26610 0.44210 0.05400
C 	C 	0.45080 0.19510 0.51540 -0.09400
C 	C 	0.47480 0.18560 0.59610 -0.14200
H 	H 	0.51090 0.15100 0.60800 0.10400
C 	C 	0.43920 0.23480 0.65660 0.14100
C 	C 	0.37660 0.29480 0.63530 -0.10200
H 	H 	0.34910 0.32560 0.67560 0.08100
C 	C 	0.13550 0.49850 0.29720 0.46500
C 	C 	0.37130 0.29430 0.21520 0.32200
C 	C 	0.18730 0.45440 0.23200 -0.12500
C 	C 	0.17890 0.47920 0.15370 -0.02200
H 	H 	0.13990 0.52210 0.14070 0.03400
C 	C 	0.22870 0.44030 0.09290 0.02000
C 	C 	0.28450 0.37890 0.11220 -0.09300
H 	H 	0.31110 0.35550 0.07690 0.07700
C 	C 	0.30030 0.35560 0.19420 -0.06000
C 	C 	0.24660 0.39220 0.25210 0.03000
H 	H 	0.25040 0.37470 0.30540 0.04900
C 	C 	0.23390 0.46930 0.01310 -0.09600
H 	H 	0.18330 0.44360 0.98670 0.11100
H 	H 	0.28720 0.46160 0.00590 0.05100
Tb	Tb	0.66159 0.00000 0.50000 1.91400
Tb	Tb	0.16159 0.50000 0.50000 2.14700
Tb	Tb	0.33841 0.00000 -0.00000 1.76800
Tb	Tb	0.83841 0.50000 -0.00000 1.95400
Tb	Tb	0.50000 0.83227 0.75000 2.07500
Tb	Tb	0.00000 0.33227 0.75000 1.88800
Tb	Tb	0.50000 0.16773 0.25000 2.09700
Tb	Tb	-0.00000 0.66773 0.25000 1.88400
