data_crystal

_cell_length_a 30.40400
_cell_length_b 19.65700
_cell_length_c 19.68300
_cell_angle_alpha 90.00000
_cell_angle_beta  127.63000
_cell_angle_gamma 90.00000

_symmetry_space_group_name_	'P 1'
_symmetry_space_group_name_H-M	'P 1'

loop_
_symmetry_equiv_pos_as_xyz
  x,y,z

loop_
_atom_site_label
_atom_site_type_symbol
_atom_site_fract_x
_atom_site_fract_y
_atom_site_fract_z
_atom_site_charge
W 	W 	0.23458 0.44484 0.21149 0.46200
S 	S 	0.17066 0.48330 0.22486 -0.41800
S 	S 	0.31284 0.47494 0.33855 -0.41600
S 	S 	0.23124 0.32716 0.21965 -0.56400
Cu	Cu	0.18039 0.37390 0.25343 0.78600
Cu	Cu	0.29626 0.36841 0.34955 0.78500
Cu	Cu	0.09471 0.25377 0.37022 0.83400
B 	B 	0.22540 0.50830 0.04250 1.54800
H 	H 	0.22400 0.52900 0.99500 -0.58800
N 	N 	0.16830 0.43670 0.06770 -0.16700
N 	N 	0.17040 0.47450 0.01070 -0.42600
N 	N 	0.23680 0.55250 0.17380 -0.17500
N 	N 	0.23850 0.56500 0.10520 -0.42800
N 	N 	0.28550 0.42610 0.16420 -0.17100
N 	N 	0.27290 0.45630 0.09040 -0.42700
N 	N 	0.06620 0.33540 0.40830 -0.23300
C 	C 	0.11630 0.40590 0.01660 0.32900
C 	C 	0.08790 0.42610 0.93250 -0.43000
H 	H 	0.05170 0.41370 0.88570 0.16100
C 	C 	0.12430 0.46890 0.93130 0.40000
C 	C 	0.09490 0.35980 0.05120 -0.71200
H 	H 	0.11660 0.31820 0.07220 0.20600
H 	H 	0.05630 0.34900 0.00600 0.22300
H 	H 	0.09810 0.38240 0.09790 0.18300
C 	C 	0.11390 0.50540 0.85610 -0.79700
H 	H 	0.11460 0.55410 0.86470 0.23500
H 	H 	0.07780 0.49240 0.80440 0.24200
H 	H 	0.14250 0.49340 0.85050 0.23300
C 	C 	0.24640 0.61310 0.21110 0.38900
C 	C 	0.25290 0.66090 0.17000 -0.52000
H 	H 	0.25870 0.70740 0.18370 0.17400
C 	C 	0.24970 0.63130 0.10600 0.42700
C 	C 	0.24230 0.62680 0.28520 -0.77400
H 	H 	0.20480 0.61770 0.26520 0.24600
H 	H 	0.25160 0.67400 0.30310 0.24400
H 	H 	0.26800 0.59730 0.33340 0.24200
C 	C 	0.25500 0.66270 0.04200 -0.76600
H 	H 	0.27640 0.63290 0.03300 0.20800
H 	H 	0.27370 0.70630 0.06340 0.20700
H 	H 	0.21830 0.66940 0.98810 0.20400
C 	C 	0.33170 0.38640 0.19500 0.33300
C 	C 	0.34730 0.39450 0.14110 -0.44800
H 	H 	0.37800 0.37450 0.14810 0.16100
C 	C 	0.30880 0.43720 0.07660 0.41200
C 	C 	0.36240 0.34610 0.27550 -0.73600
H 	H 	0.37440 0.37580 0.32330 0.19700
H 	H 	0.39460 0.32520 0.28480 0.22200
H 	H 	0.33840 0.31090 0.27090 0.20300
C 	C 	0.30740 0.46450 0.00490 -0.80300
H 	H 	0.27390 0.44920 0.95070 0.23000
H 	H 	0.33960 0.44840 0.01050 0.23900
H 	H 	0.30790 0.51390 0.00690 0.22000
C 	C 	0.01400 0.36090 0.35780 0.06600
H 	H 	0.98910 0.34470 0.30130 -0.03500
C 	C 	0.99570 0.41050 0.38670 -0.16200
H 	H 	0.95920 0.42720 0.35050 0.05600
C 	C 	0.03420 0.43490 0.47270 0.09400
C 	C 	0.08530 0.40650 0.52180 -0.16300
H 	H 	0.11050 0.42010 0.57940 0.08200
C 	C 	0.10190 0.35810 0.49040 0.06000
H 	H 	0.13820 0.34070 0.52640 -0.02200
C 	C 	0.02140 0.48400 0.51790 -0.08500
H 	H 	0.04830 0.49000 0.57730 0.05000
N 	N 	0.12990 0.29830 0.32430 -0.20600
C 	C 	0.14690 0.32630 0.29370 -0.25500
N 	N 	0.35950 0.29380 0.51860 -0.20100
C 	C 	0.33620 0.32180 0.45450 -0.25700
N 	N 	0.02310 0.21300 0.27850 -0.21100
C 	C 	0.97690 0.21300 0.22150 -0.19300
W 	W 	0.73458 0.94484 0.21149 0.46400
S 	S 	0.67066 0.98330 0.22486 -0.41600
S 	S 	0.81284 0.97494 0.33855 -0.41500
S 	S 	0.73124 0.82716 0.21965 -0.56500
Cu	Cu	0.68039 0.87390 0.25343 0.78400
Cu	Cu	0.79626 0.86841 0.34955 0.78400
Cu	Cu	0.59471 0.75377 0.37022 0.83300
B 	B 	0.72540 0.00830 0.04250 1.49900
H 	H 	0.72400 0.02900 0.99500 -0.56500
N 	N 	0.66830 0.93670 0.06770 -0.16700
N 	N 	0.67040 0.97450 0.01070 -0.40800
N 	N 	0.73680 0.05250 0.17380 -0.17800
N 	N 	0.73850 0.06500 0.10520 -0.42400
N 	N 	0.78550 0.92610 0.16420 -0.16900
N 	N 	0.77290 0.95630 0.09040 -0.41200
N 	N 	0.56620 0.83540 0.40830 -0.23300
C 	C 	0.61630 0.90590 0.01660 0.33600
C 	C 	0.58790 0.92610 0.93250 -0.42600
H 	H 	0.55170 0.91370 0.88570 0.15800
C 	C 	0.62430 0.96890 0.93130 0.37000
C 	C 	0.59490 0.85980 0.05120 -0.72000
H 	H 	0.61660 0.81820 0.07220 0.20900
H 	H 	0.55630 0.84900 0.00600 0.22800
H 	H 	0.59810 0.88240 0.09790 0.18600
C 	C 	0.61390 0.00540 0.85610 -0.72500
H 	H 	0.61460 0.05410 0.86470 0.21600
H 	H 	0.57780 0.99240 0.80440 0.21800
H 	H 	0.64250 0.99340 0.85050 0.20900
C 	C 	0.74640 0.11310 0.21110 0.39000
C 	C 	0.75290 0.16090 0.17000 -0.52600
H 	H 	0.75870 0.20740 0.18370 0.17600
C 	C 	0.74970 0.13130 0.10600 0.43500
C 	C 	0.74230 0.12680 0.28520 -0.77500
H 	H 	0.70480 0.11770 0.26520 0.24500
H 	H 	0.75160 0.17400 0.30310 0.24400
H 	H 	0.76800 0.09730 0.33340 0.24100
C 	C 	0.75500 0.16270 0.04200 -0.80000
H 	H 	0.77640 0.13290 0.03300 0.21600
H 	H 	0.77370 0.20630 0.06340 0.21500
H 	H 	0.71830 0.16940 0.98810 0.22000
C 	C 	0.83170 0.88640 0.19500 0.32700
C 	C 	0.84730 0.89450 0.14110 -0.43100
H 	H 	0.87800 0.87450 0.14810 0.15700
C 	C 	0.80880 0.93720 0.07660 0.38800
C 	C 	0.86240 0.84610 0.27550 -0.73000
H 	H 	0.87440 0.87580 0.32330 0.19500
H 	H 	0.89460 0.82520 0.28480 0.22100
H 	H 	0.83840 0.81090 0.27090 0.20200
C 	C 	0.80740 0.96450 0.00490 -0.72300
H 	H 	0.77390 0.94920 0.95070 0.20200
H 	H 	0.83960 0.94840 0.01050 0.21800
H 	H 	0.80790 0.01390 0.00690 0.19000
C 	C 	0.51400 0.86090 0.35780 0.06500
H 	H 	0.48910 0.84470 0.30130 -0.03300
C 	C 	0.49570 0.91050 0.38670 -0.16100
H 	H 	0.45920 0.92720 0.35050 0.05700
C 	C 	0.53420 0.93490 0.47270 0.09400
C 	C 	0.58530 0.90650 0.52180 -0.16200
H 	H 	0.61050 0.92010 0.57940 0.08200
C 	C 	0.60190 0.85810 0.49040 0.06000
H 	H 	0.63820 0.84070 0.52640 -0.02200
C 	C 	0.52140 0.98400 0.51790 -0.08500
H 	H 	0.54830 0.99000 0.57730 0.05000
N 	N 	0.62990 0.79830 0.32430 -0.20500
C 	C 	0.64690 0.82630 0.29370 -0.25500
N 	N 	0.85950 0.79380 0.51860 -0.20100
C 	C 	0.83620 0.82180 0.45450 -0.25700
N 	N 	0.52310 0.71300 0.27850 -0.21100
C 	C 	0.47690 0.71300 0.22150 -0.19100
W 	W 	0.76542 0.44484 0.28851 0.46100
S 	S 	0.82934 0.48330 0.27514 -0.42000
S 	S 	0.68716 0.47494 0.16145 -0.41700
S 	S 	0.76876 0.32716 0.28035 -0.56500
Cu	Cu	0.81961 0.37390 0.24657 0.78400
Cu	Cu	0.70374 0.36841 0.15045 0.78400
Cu	Cu	0.90529 0.25377 0.12978 0.83100
B 	B 	0.77460 0.50830 0.45750 1.54600
H 	H 	0.77600 0.52900 0.50500 -0.58800
N 	N 	0.83170 0.43670 0.43230 -0.16700
N 	N 	0.82960 0.47450 0.48930 -0.42600
N 	N 	0.76320 0.55250 0.32620 -0.17600
N 	N 	0.76150 0.56500 0.39480 -0.42800
N 	N 	0.71450 0.42610 0.33580 -0.17100
N 	N 	0.72710 0.45630 0.40960 -0.42600
N 	N 	0.93380 0.33540 0.09170 -0.23100
C 	C 	0.88370 0.40590 0.48340 0.33100
C 	C 	0.91210 0.42610 0.56750 -0.43300
H 	H 	0.94830 0.41370 0.61430 0.16200
C 	C 	0.87570 0.46890 0.56870 0.40000
C 	C 	0.90510 0.35980 0.44880 -0.71500
H 	H 	0.88340 0.31820 0.42780 0.20700
H 	H 	0.94370 0.34900 0.49400 0.22500
H 	H 	0.90190 0.38240 0.40210 0.18400
C 	C 	0.88610 0.50540 0.64390 -0.79700
H 	H 	0.88540 0.55410 0.63530 0.23500
H 	H 	0.92220 0.49240 0.69560 0.24200
H 	H 	0.85750 0.49340 0.64950 0.23300
C 	C 	0.75360 0.61310 0.28890 0.39000
C 	C 	0.74710 0.66090 0.33000 -0.52300
H 	H 	0.74130 0.70740 0.31630 0.17500
C 	C 	0.75030 0.63130 0.39400 0.43100
C 	C 	0.75770 0.62680 0.21480 -0.77600
H 	H 	0.79520 0.61770 0.23480 0.24600
H 	H 	0.74840 0.67400 0.19690 0.24400
H 	H 	0.73200 0.59730 0.16660 0.24300
C 	C 	0.74500 0.66270 0.45800 -0.77800
H 	H 	0.72360 0.63290 0.46700 0.21100
H 	H 	0.72630 0.70630 0.43660 0.21000
H 	H 	0.78170 0.66940 0.51190 0.20900
C 	C 	0.66830 0.38640 0.30500 0.33200
C 	C 	0.65270 0.39450 0.35890 -0.44700
H 	H 	0.62200 0.37450 0.35190 0.16100
C 	C 	0.69120 0.43720 0.42340 0.41100
C 	C 	0.63760 0.34610 0.22450 -0.73500
H 	H 	0.62560 0.37580 0.17670 0.19600
H 	H 	0.60540 0.32520 0.21520 0.22200
H 	H 	0.66160 0.31090 0.22910 0.20300
C 	C 	0.69260 0.46450 0.49510 -0.79900
H 	H 	0.72610 0.44920 0.54930 0.22900
H 	H 	0.66040 0.44840 0.48950 0.23800
H 	H 	0.69210 0.51390 0.49310 0.21900
C 	C 	0.98600 0.36090 0.14220 0.05900
H 	H 	0.01090 0.34470 0.19870 -0.03200
C 	C 	0.00430 0.41050 0.11330 -0.15500
H 	H 	0.04080 0.42720 0.14950 0.05400
C 	C 	0.96580 0.43490 0.02730 0.08600
C 	C 	0.91470 0.40650 0.97820 -0.15000
H 	H 	0.88950 0.42010 0.92060 0.07800
C 	C 	0.89810 0.35810 0.00960 0.04800
H 	H 	0.86180 0.34070 0.97360 -0.01600
C 	C 	0.97860 0.48400 0.98210 -0.08300
H 	H 	0.95170 0.49000 0.92270 0.05000
N 	N 	0.87010 0.29830 0.17570 -0.20600
C 	C 	0.85310 0.32630 0.20630 -0.25500
N 	N 	0.64050 0.29380 0.98140 -0.19800
C 	C 	0.66380 0.32180 0.04550 -0.26100
W 	W 	0.26542 0.94484 0.28851 0.46100
S 	S 	0.32934 0.98330 0.27514 -0.41500
S 	S 	0.18716 0.97494 0.16145 -0.41200
S 	S 	0.26876 0.82716 0.28035 -0.56500
Cu	Cu	0.31961 0.87390 0.24657 0.78500
Cu	Cu	0.20374 0.86841 0.15045 0.78400
Cu	Cu	0.40529 0.75377 0.12978 0.83100
B 	B 	0.27460 0.00830 0.45750 1.54400
H 	H 	0.27600 0.02900 0.50500 -0.58600
N 	N 	0.33170 0.93670 0.43230 -0.16700
N 	N 	0.32960 0.97450 0.48930 -0.42300
N 	N 	0.26320 0.05250 0.32620 -0.17600
N 	N 	0.26150 0.06500 0.39480 -0.42800
N 	N 	0.21450 0.92610 0.33580 -0.17100
N 	N 	0.22710 0.95630 0.40960 -0.42600
N 	N 	0.43380 0.83540 0.09170 -0.23900
C 	C 	0.38370 0.90590 0.48340 0.32900
C 	C 	0.41210 0.92610 0.56750 -0.42500
H 	H 	0.44830 0.91370 0.61430 0.15900
C 	C 	0.37570 0.96890 0.56870 0.38800
C 	C 	0.40510 0.85980 0.44880 -0.71200
H 	H 	0.38340 0.81820 0.42780 0.20700
H 	H 	0.44370 0.84900 0.49400 0.22400
H 	H 	0.40190 0.88240 0.40210 0.18300
C 	C 	0.38610 0.00540 0.64390 -0.76300
H 	H 	0.38540 0.05410 0.63530 0.22600
H 	H 	0.42220 0.99240 0.69560 0.23000
H 	H 	0.35750 0.99340 0.64950 0.22100
C 	C 	0.25360 0.11310 0.28890 0.38900
C 	C 	0.24710 0.16090 0.33000 -0.52200
H 	H 	0.24130 0.20740 0.31630 0.17500
C 	C 	0.25030 0.13130 0.39400 0.43000
C 	C 	0.25770 0.12680 0.21480 -0.77400
H 	H 	0.29520 0.11770 0.23480 0.24600
H 	H 	0.24840 0.17400 0.19690 0.24300
H 	H 	0.23200 0.09730 0.16660 0.24100
C 	C 	0.24500 0.16270 0.45800 -0.77700
H 	H 	0.22360 0.13290 0.46700 0.21100
H 	H 	0.22630 0.20630 0.43660 0.21000
H 	H 	0.28170 0.16940 0.51190 0.20900
C 	C 	0.16830 0.88640 0.30500 0.33300
C 	C 	0.15270 0.89450 0.35890 -0.44800
H 	H 	0.12200 0.87450 0.35190 0.16200
C 	C 	0.19120 0.93720 0.42340 0.41200
C 	C 	0.13760 0.84610 0.22450 -0.73700
H 	H 	0.12560 0.87580 0.17670 0.19800
H 	H 	0.10540 0.82520 0.21520 0.22300
H 	H 	0.16160 0.81090 0.22910 0.20400
C 	C 	0.19260 0.96450 0.49510 -0.80100
H 	H 	0.22610 0.94920 0.54930 0.22900
H 	H 	0.16040 0.94840 0.48950 0.23800
H 	H 	0.19210 0.01390 0.49310 0.21900
C 	C 	0.48600 0.86090 0.14220 0.07400
H 	H 	0.51090 0.84470 0.19870 -0.03600
C 	C 	0.50430 0.91050 0.11330 -0.17500
H 	H 	0.54080 0.92720 0.14950 0.06200
C 	C 	0.46580 0.93490 0.02730 0.12200
C 	C 	0.41470 0.90650 0.97820 -0.20100
H 	H 	0.38950 0.92010 0.92060 0.09400
C 	C 	0.39810 0.85810 0.00960 0.09300
H 	H 	0.36180 0.84070 0.97360 -0.03700
C 	C 	0.47860 0.98400 0.98210 -0.09700
H 	H 	0.45170 0.99000 0.92270 0.05100
N 	N 	0.37010 0.79830 0.17570 -0.20500
C 	C 	0.35310 0.82630 0.20630 -0.25400
N 	N 	0.14050 0.79380 0.98140 -0.20600
C 	C 	0.16380 0.82180 0.04550 -0.25100
W 	W 	0.76542 0.55516 0.78851 0.46100
S 	S 	0.82934 0.51670 0.77514 -0.41900
S 	S 	0.68716 0.52506 0.66145 -0.41700
S 	S 	0.76876 0.67284 0.78035 -0.56500
Cu	Cu	0.81961 0.62610 0.74657 0.78500
Cu	Cu	0.70374 0.63159 0.65045 0.78400
Cu	Cu	0.90529 0.74623 0.62978 0.83300
B 	B 	0.77460 0.49170 0.95750 1.54700
H 	H 	0.77600 0.47100 0.00500 -0.58800
N 	N 	0.83170 0.56330 0.93230 -0.16700
N 	N 	0.82960 0.52550 0.98930 -0.42600
N 	N 	0.76320 0.44750 0.82620 -0.17500
N 	N 	0.76150 0.43500 0.89480 -0.42800
N 	N 	0.71450 0.57390 0.83580 -0.17100
N 	N 	0.72710 0.54370 0.90960 -0.42700
N 	N 	0.93380 0.66460 0.59170 -0.23300
C 	C 	0.88370 0.59410 0.98340 0.32900
C 	C 	0.91210 0.57390 0.06750 -0.43000
H 	H 	0.94830 0.58630 0.11430 0.16100
C 	C 	0.87570 0.53110 0.06870 0.40000
C 	C 	0.90510 0.64020 0.94880 -0.71200
H 	H 	0.88340 0.68180 0.92780 0.20600
H 	H 	0.94370 0.65100 0.99400 0.22300
H 	H 	0.90190 0.61760 0.90210 0.18300
C 	C 	0.88610 0.49460 0.14390 -0.79700
H 	H 	0.88540 0.44590 0.13530 0.23500
H 	H 	0.92220 0.50760 0.19560 0.24200
H 	H 	0.85750 0.50660 0.14950 0.23300
C 	C 	0.75360 0.38690 0.78890 0.38900
C 	C 	0.74710 0.33910 0.83000 -0.52000
H 	H 	0.74130 0.29260 0.81630 0.17400
C 	C 	0.75030 0.36870 0.89400 0.42700
C 	C 	0.75770 0.37320 0.71480 -0.77400
H 	H 	0.79520 0.38230 0.73480 0.24600
H 	H 	0.74840 0.32600 0.69690 0.24400
H 	H 	0.73200 0.40270 0.66660 0.24200
C 	C 	0.74500 0.33730 0.95800 -0.76600
H 	H 	0.72360 0.36710 0.96700 0.20800
H 	H 	0.72630 0.29370 0.93660 0.20700
H 	H 	0.78170 0.33060 0.01190 0.20400
C 	C 	0.66830 0.61360 0.80500 0.33300
C 	C 	0.65270 0.60550 0.85890 -0.44800
H 	H 	0.62200 0.62550 0.85190 0.16100
C 	C 	0.69120 0.56280 0.92340 0.41200
C 	C 	0.63760 0.65390 0.72450 -0.73600
H 	H 	0.62560 0.62420 0.67670 0.19700
H 	H 	0.60540 0.67480 0.71520 0.22200
H 	H 	0.66160 0.68910 0.72910 0.20300
C 	C 	0.69260 0.53550 0.99510 -0.80300
H 	H 	0.72610 0.55080 0.04930 0.23000
H 	H 	0.66040 0.55160 0.98950 0.23900
H 	H 	0.69210 0.48610 0.99310 0.22000
C 	C 	0.98600 0.63910 0.64220 0.06600
H 	H 	0.01090 0.65530 0.69870 -0.03500
C 	C 	0.00430 0.58950 0.61330 -0.16200
H 	H 	0.04080 0.57280 0.64950 0.05600
C 	C 	0.96580 0.56510 0.52730 0.09400
C 	C 	0.91470 0.59350 0.47820 -0.16300
H 	H 	0.88950 0.57990 0.42060 0.08200
C 	C 	0.89810 0.64190 0.50960 0.06000
H 	H 	0.86180 0.65930 0.47360 -0.02200
C 	C 	0.97860 0.51600 0.48210 -0.08500
H 	H 	0.95170 0.51000 0.42270 0.05000
N 	N 	0.87010 0.70170 0.67570 -0.20600
C 	C 	0.85310 0.67370 0.70630 -0.25500
N 	N 	0.64050 0.70620 0.48140 -0.20100
C 	C 	0.66380 0.67820 0.54550 -0.25700
N 	N 	0.97690 0.78700 0.72150 -0.21100
C 	C 	0.02310 0.78700 0.77850 -0.19300
W 	W 	0.26542 0.05516 0.78851 0.46400
S 	S 	0.32934 0.01670 0.77514 -0.41600
S 	S 	0.18716 0.02506 0.66145 -0.41500
S 	S 	0.26876 0.17284 0.78035 -0.56500
Cu	Cu	0.31961 0.12610 0.74657 0.78400
Cu	Cu	0.20374 0.13159 0.65045 0.78400
Cu	Cu	0.40529 0.24623 0.62978 0.83300
B 	B 	0.27460 0.99170 0.95750 1.49900
H 	H 	0.27600 0.97100 0.00500 -0.56500
N 	N 	0.33170 0.06330 0.93230 -0.16700
N 	N 	0.32960 0.02550 0.98930 -0.40800
N 	N 	0.26320 0.94750 0.82620 -0.17800
N 	N 	0.26150 0.93500 0.89480 -0.42400
N 	N 	0.21450 0.07390 0.83580 -0.16900
N 	N 	0.22710 0.04370 0.90960 -0.41200
N 	N 	0.43380 0.16460 0.59170 -0.23300
C 	C 	0.38370 0.09410 0.98340 0.33600
C 	C 	0.41210 0.07390 0.06750 -0.42600
H 	H 	0.44830 0.08630 0.11430 0.15800
C 	C 	0.37570 0.03110 0.06870 0.37000
C 	C 	0.40510 0.14020 0.94880 -0.72000
H 	H 	0.38340 0.18180 0.92780 0.20900
H 	H 	0.44370 0.15100 0.99400 0.22800
H 	H 	0.40190 0.11760 0.90210 0.18600
C 	C 	0.38610 0.99460 0.14390 -0.72500
H 	H 	0.38540 0.94590 0.13530 0.21600
H 	H 	0.42220 0.00760 0.19560 0.21800
H 	H 	0.35750 0.00660 0.14950 0.20900
C 	C 	0.25360 0.88690 0.78890 0.39000
C 	C 	0.24710 0.83910 0.83000 -0.52600
H 	H 	0.24130 0.79260 0.81630 0.17600
C 	C 	0.25030 0.86870 0.89400 0.43500
C 	C 	0.25770 0.87320 0.71480 -0.77500
H 	H 	0.29520 0.88230 0.73480 0.24500
H 	H 	0.24840 0.82600 0.69690 0.24400
H 	H 	0.23200 0.90270 0.66660 0.24100
C 	C 	0.24500 0.83730 0.95800 -0.80000
H 	H 	0.22360 0.86710 0.96700 0.21600
H 	H 	0.22630 0.79370 0.93660 0.21500
H 	H 	0.28170 0.83060 0.01190 0.22000
C 	C 	0.16830 0.11360 0.80500 0.32700
C 	C 	0.15270 0.10550 0.85890 -0.43100
H 	H 	0.12200 0.12550 0.85190 0.15700
C 	C 	0.19120 0.06280 0.92340 0.38800
C 	C 	0.13760 0.15390 0.72450 -0.73000
H 	H 	0.12560 0.12420 0.67670 0.19500
H 	H 	0.10540 0.17480 0.71520 0.22100
H 	H 	0.16160 0.18910 0.72910 0.20200
C 	C 	0.19260 0.03550 0.99510 -0.72300
H 	H 	0.22610 0.05080 0.04930 0.20200
H 	H 	0.16040 0.05160 0.98950 0.21800
H 	H 	0.19210 0.98610 0.99310 0.19000
C 	C 	0.48600 0.13910 0.64220 0.06500
H 	H 	0.51090 0.15530 0.69870 -0.03300
C 	C 	0.50430 0.08950 0.61330 -0.16100
H 	H 	0.54080 0.07280 0.64950 0.05700
C 	C 	0.46580 0.06510 0.52730 0.09400
C 	C 	0.41470 0.09350 0.47820 -0.16200
H 	H 	0.38950 0.07990 0.42060 0.08200
C 	C 	0.39810 0.14190 0.50960 0.06000
H 	H 	0.36180 0.15930 0.47360 -0.02200
C 	C 	0.47860 0.01600 0.48210 -0.08500
H 	H 	0.45170 0.01000 0.42270 0.05000
N 	N 	0.37010 0.20170 0.67570 -0.20500
C 	C 	0.35310 0.17370 0.70630 -0.25500
N 	N 	0.14050 0.20620 0.48140 -0.20100
C 	C 	0.16380 0.17820 0.54550 -0.25700
N 	N 	0.47690 0.28700 0.72150 -0.21100
C 	C 	0.52310 0.28700 0.77850 -0.19100
W 	W 	0.23458 0.55516 0.71149 0.46100
S 	S 	0.17066 0.51670 0.72486 -0.42000
S 	S 	0.31284 0.52506 0.83855 -0.41700
S 	S 	0.23124 0.67284 0.71965 -0.56500
Cu	Cu	0.18039 0.62610 0.75343 0.78400
Cu	Cu	0.29626 0.63159 0.84955 0.78400
Cu	Cu	0.09471 0.74623 0.87022 0.83100
B 	B 	0.22540 0.49170 0.54250 1.54600
H 	H 	0.22400 0.47100 0.49500 -0.58800
N 	N 	0.16830 0.56330 0.56770 -0.16700
N 	N 	0.17040 0.52550 0.51070 -0.42600
N 	N 	0.23680 0.44750 0.67380 -0.17600
N 	N 	0.23850 0.43500 0.60520 -0.42800
N 	N 	0.28550 0.57390 0.66420 -0.17100
N 	N 	0.27290 0.54370 0.59040 -0.42600
N 	N 	0.06620 0.66460 0.90830 -0.23100
C 	C 	0.11630 0.59410 0.51660 0.33100
C 	C 	0.08790 0.57390 0.43250 -0.43300
H 	H 	0.05170 0.58630 0.38570 0.16200
C 	C 	0.12430 0.53110 0.43130 0.40000
C 	C 	0.09490 0.64020 0.55120 -0.71500
H 	H 	0.11660 0.68180 0.57220 0.20700
H 	H 	0.05630 0.65100 0.50600 0.22500
H 	H 	0.09810 0.61760 0.59790 0.18400
C 	C 	0.11390 0.49460 0.35610 -0.79700
H 	H 	0.11460 0.44590 0.36470 0.23500
H 	H 	0.07780 0.50760 0.30440 0.24200
H 	H 	0.14250 0.50660 0.35050 0.23300
C 	C 	0.24640 0.38690 0.71110 0.39000
C 	C 	0.25290 0.33910 0.67000 -0.52300
H 	H 	0.25870 0.29260 0.68370 0.17500
C 	C 	0.24970 0.36870 0.60600 0.43100
C 	C 	0.24230 0.37320 0.78520 -0.77600
H 	H 	0.20480 0.38230 0.76520 0.24600
H 	H 	0.25160 0.32600 0.80310 0.24400
H 	H 	0.26800 0.40270 0.83340 0.24300
C 	C 	0.25500 0.33730 0.54200 -0.77800
H 	H 	0.27640 0.36710 0.53300 0.21100
H 	H 	0.27370 0.29370 0.56340 0.21000
H 	H 	0.21830 0.33060 0.48810 0.20900
C 	C 	0.33170 0.61360 0.69500 0.33200
C 	C 	0.34730 0.60550 0.64110 -0.44700
H 	H 	0.37800 0.62550 0.64810 0.16100
C 	C 	0.30880 0.56280 0.57660 0.41100
C 	C 	0.36240 0.65390 0.77550 -0.73500
H 	H 	0.37440 0.62420 0.82330 0.19600
H 	H 	0.39460 0.67480 0.78480 0.22200
H 	H 	0.33840 0.68910 0.77090 0.20300
C 	C 	0.30740 0.53550 0.50490 -0.79900
H 	H 	0.27390 0.55080 0.45070 0.22900
H 	H 	0.33960 0.55160 0.51050 0.23800
H 	H 	0.30790 0.48610 0.50690 0.21900
C 	C 	0.01400 0.63910 0.85780 0.05900
H 	H 	0.98910 0.65530 0.80130 -0.03200
C 	C 	0.99570 0.58950 0.88670 -0.15500
H 	H 	0.95920 0.57280 0.85050 0.05400
C 	C 	0.03420 0.56510 0.97270 0.08600
C 	C 	0.08530 0.59350 0.02180 -0.15000
H 	H 	0.11050 0.57990 0.07940 0.07800
C 	C 	0.10190 0.64190 0.99040 0.04800
H 	H 	0.13820 0.65930 0.02640 -0.01600
C 	C 	0.02140 0.51600 0.01790 -0.08300
H 	H 	0.04830 0.51000 0.07730 0.05000
N 	N 	0.12990 0.70170 0.82430 -0.20600
C 	C 	0.14690 0.67370 0.79370 -0.25500
N 	N 	0.35950 0.70620 0.01860 -0.19800
C 	C 	0.33620 0.67820 0.95450 -0.26100
W 	W 	0.73458 0.05516 0.71149 0.46100
S 	S 	0.67066 0.01670 0.72486 -0.41500
S 	S 	0.81284 0.02506 0.83855 -0.41200
S 	S 	0.73124 0.17284 0.71965 -0.56500
Cu	Cu	0.68039 0.12610 0.75343 0.78500
Cu	Cu	0.79626 0.13159 0.84955 0.78400
Cu	Cu	0.59471 0.24623 0.87022 0.83100
B 	B 	0.72540 0.99170 0.54250 1.54400
H 	H 	0.72400 0.97100 0.49500 -0.58600
N 	N 	0.66830 0.06330 0.56770 -0.16700
N 	N 	0.67040 0.02550 0.51070 -0.42300
N 	N 	0.73680 0.94750 0.67380 -0.17600
N 	N 	0.73850 0.93500 0.60520 -0.42800
N 	N 	0.78550 0.07390 0.66420 -0.17100
N 	N 	0.77290 0.04370 0.59040 -0.42600
N 	N 	0.56620 0.16460 0.90830 -0.23900
C 	C 	0.61630 0.09410 0.51660 0.32900
C 	C 	0.58790 0.07390 0.43250 -0.42500
H 	H 	0.55170 0.08630 0.38570 0.15900
C 	C 	0.62430 0.03110 0.43130 0.38800
C 	C 	0.59490 0.14020 0.55120 -0.71200
H 	H 	0.61660 0.18180 0.57220 0.20700
H 	H 	0.55630 0.15100 0.50600 0.22400
H 	H 	0.59810 0.11760 0.59790 0.18300
C 	C 	0.61390 0.99460 0.35610 -0.76300
H 	H 	0.61460 0.94590 0.36470 0.22600
H 	H 	0.57780 0.00760 0.30440 0.23000
H 	H 	0.64250 0.00660 0.35050 0.22100
C 	C 	0.74640 0.88690 0.71110 0.38900
C 	C 	0.75290 0.83910 0.67000 -0.52200
H 	H 	0.75870 0.79260 0.68370 0.17500
C 	C 	0.74970 0.86870 0.60600 0.43000
C 	C 	0.74230 0.87320 0.78520 -0.77400
H 	H 	0.70480 0.88230 0.76520 0.24600
H 	H 	0.75160 0.82600 0.80310 0.24300
H 	H 	0.76800 0.90270 0.83340 0.24100
C 	C 	0.75500 0.83730 0.54200 -0.77700
H 	H 	0.77640 0.86710 0.53300 0.21100
H 	H 	0.77370 0.79370 0.56340 0.21000
H 	H 	0.71830 0.83060 0.48810 0.20900
C 	C 	0.83170 0.11360 0.69500 0.33300
C 	C 	0.84730 0.10550 0.64110 -0.44800
H 	H 	0.87800 0.12550 0.64810 0.16200
C 	C 	0.80880 0.06280 0.57660 0.41200
C 	C 	0.86240 0.15390 0.77550 -0.73700
H 	H 	0.87440 0.12420 0.82330 0.19800
H 	H 	0.89460 0.17480 0.78480 0.22300
H 	H 	0.83840 0.18910 0.77090 0.20400
C 	C 	0.80740 0.03550 0.50490 -0.80100
H 	H 	0.77390 0.05080 0.45070 0.22900
H 	H 	0.83960 0.05160 0.51050 0.23800
H 	H 	0.80790 0.98610 0.50690 0.21900
C 	C 	0.51400 0.13910 0.85780 0.07400
H 	H 	0.48910 0.15530 0.80130 -0.03600
C 	C 	0.49570 0.08950 0.88670 -0.17500
H 	H 	0.45920 0.07280 0.85050 0.06200
C 	C 	0.53420 0.06510 0.97270 0.12200
C 	C 	0.58530 0.09350 0.02180 -0.20100
H 	H 	0.61050 0.07990 0.07940 0.09400
C 	C 	0.60190 0.14190 0.99040 0.09300
H 	H 	0.63820 0.15930 0.02640 -0.03700
C 	C 	0.52140 0.01600 0.01790 -0.09700
H 	H 	0.54830 0.01000 0.07730 0.05100
N 	N 	0.62990 0.20170 0.82430 -0.20500
C 	C 	0.64690 0.17370 0.79370 -0.25400
N 	N 	0.85950 0.20620 0.01860 -0.20600
C 	C 	0.83620 0.17820 0.95450 -0.25100
