data_crystal

_cell_length_a 13.99850
_cell_length_b 13.99850
_cell_length_c 16.68800
_cell_angle_alpha 80.95150
_cell_angle_beta  80.95150
_cell_angle_gamma 61.63480

_symmetry_space_group_name_	'P 1'
_symmetry_space_group_name_H-M	'P 1'

loop_
_symmetry_equiv_pos_as_xyz
  x,y,z

loop_
_atom_site_label
_atom_site_type_symbol
_atom_site_fract_x
_atom_site_fract_y
_atom_site_fract_z
_atom_site_charge
Fe	Fe	0.83911 0.78031 0.41840 1.17100
Fe	Fe	0.21969 0.16089 0.08160 1.17100
Fe	Fe	0.16089 0.21969 0.58160 1.17100
Fe	Fe	0.78031 0.83911 0.91840 1.17100
Ni	Ni	0.95366 0.59122 0.69343 1.05600
Ni	Ni	0.40878 0.04634 0.80657 1.05600
Ni	Ni	0.04634 0.40878 0.30657 1.05700
Ni	Ni	0.59122 0.95366 0.19343 1.05700
Ni	Ni	0.10709 0.89291 0.25000 1.03400
Ni	Ni	0.89291 0.10709 0.75000 1.03400
H 	H 	0.13520 0.59100 0.65240 0.10500
H 	H 	0.07750 0.66810 0.71470 0.10900
H 	H 	0.21770 0.44750 0.73950 -0.11100
H 	H 	0.21720 0.54120 0.78060 -0.11500
H 	H 	0.09450 0.54510 0.86460 0.24400
H 	H 	0.19910 0.43130 0.86260 0.25300
H 	H 	0.05300 0.41080 0.89800 -0.08400
H 	H 	0.11080 0.36080 0.81470 -0.08300
H 	H 	0.93540 0.54400 0.83920 0.08600
H 	H 	0.88380 0.44880 0.88330 -0.03200
H 	H 	0.94100 0.37240 0.81320 -0.03600
H 	H 	0.74810 0.53330 0.83500 0.12500
H 	H 	0.78890 0.41750 0.80750 0.10500
H 	H 	0.77440 0.47700 0.67730 -0.02200
H 	H 	0.67970 0.58030 0.71780 -0.01600
H 	H 	0.75730 0.66930 0.67700 0.10200
H 	H 	0.81610 0.59010 0.61760 0.10000
H 	H 	0.16480 0.86920 0.38950 0.10900
H 	H 	0.22270 0.92090 0.33490 0.11500
H 	H 	0.09320 0.99420 0.44540 -0.16600
H 	H 	0.14160 0.05500 0.37820 -0.16300
H 	H 	0.00150 0.16130 0.37180 0.27300
H 	H 	0.95350 0.08830 0.42390 0.29000
H 	H 	0.92290 0.17990 0.28360 -0.13900
H 	H 	0.86510 0.11810 0.33970 -0.13100
H 	H 	0.92470 0.00470 0.28250 0.09300
H 	H 	0.40900 0.86480 0.84760 0.10500
H 	H 	0.33190 0.92250 0.78530 0.10900
H 	H 	0.55250 0.78230 0.76050 -0.11200
H 	H 	0.45880 0.78280 0.71940 -0.11500
H 	H 	0.45490 0.90550 0.63540 0.24400
H 	H 	0.56870 0.80090 0.63740 0.25300
H 	H 	0.58920 0.94700 0.60200 -0.08400
H 	H 	0.63920 0.88920 0.68530 -0.08300
H 	H 	0.45600 0.06460 0.66080 0.08700
H 	H 	0.55120 0.11620 0.61670 -0.03200
H 	H 	0.62760 0.05900 0.68680 -0.03600
H 	H 	0.46670 0.25190 0.66500 0.12500
H 	H 	0.58250 0.21110 0.69250 0.10500
H 	H 	0.52300 0.22560 0.82270 -0.02300
H 	H 	0.41970 0.32030 0.78220 -0.01600
H 	H 	0.33070 0.24270 0.82300 0.10200
H 	H 	0.40990 0.18390 0.88240 0.10000
H 	H 	0.13080 0.83520 0.11050 0.10700
H 	H 	0.07910 0.77730 0.16510 0.11300
H 	H 	0.00580 0.90680 0.05460 -0.15800
H 	H 	0.94500 0.85840 0.12180 -0.15400
H 	H 	0.83870 0.99850 0.12820 0.26000
H 	H 	0.91170 0.04650 0.07610 0.28000
H 	H 	0.82010 0.07710 0.21640 -0.13100
H 	H 	0.88190 0.13490 0.16030 -0.12400
H 	H 	0.99530 0.07530 0.21750 0.09300
H 	H 	0.86480 0.40900 0.34760 0.10500
H 	H 	0.92250 0.33190 0.28530 0.10900
H 	H 	0.78230 0.55250 0.26050 -0.11100
H 	H 	0.78280 0.45880 0.21940 -0.11500
H 	H 	0.90550 0.45490 0.13540 0.24400
H 	H 	0.80090 0.56870 0.13740 0.25300
H 	H 	0.94700 0.58920 0.10200 -0.08400
H 	H 	0.88920 0.63920 0.18530 -0.08300
H 	H 	0.06460 0.45600 0.16080 0.08600
H 	H 	0.11620 0.55120 0.11670 -0.03200
H 	H 	0.05900 0.62760 0.18680 -0.03600
H 	H 	0.25190 0.46670 0.16500 0.12500
H 	H 	0.21110 0.58250 0.19250 0.10500
H 	H 	0.22560 0.52300 0.32270 -0.02200
H 	H 	0.32030 0.41970 0.28220 -0.01600
H 	H 	0.24270 0.33070 0.32300 0.10200
H 	H 	0.18390 0.40990 0.38240 0.10000
H 	H 	0.83520 0.13080 0.61050 0.10900
H 	H 	0.77730 0.07910 0.66510 0.11500
H 	H 	0.90680 0.00580 0.55460 -0.16600
H 	H 	0.85840 0.94500 0.62180 -0.16300
H 	H 	0.99850 0.83870 0.62820 0.27300
H 	H 	0.04650 0.91170 0.57610 0.29000
H 	H 	0.07710 0.82010 0.71640 -0.13900
H 	H 	0.13490 0.88190 0.66030 -0.13100
H 	H 	0.07530 0.99530 0.71750 0.09300
H 	H 	0.59100 0.13520 0.15240 0.10500
H 	H 	0.66810 0.07750 0.21470 0.10900
H 	H 	0.44750 0.21770 0.23950 -0.11200
H 	H 	0.54120 0.21720 0.28060 -0.11500
H 	H 	0.54510 0.09450 0.36460 0.24400
H 	H 	0.43130 0.19910 0.36260 0.25300
H 	H 	0.41080 0.05300 0.39800 -0.08400
H 	H 	0.36080 0.11080 0.31470 -0.08300
H 	H 	0.54400 0.93540 0.33920 0.08700
H 	H 	0.44880 0.88380 0.38330 -0.03200
H 	H 	0.37240 0.94100 0.31320 -0.03600
H 	H 	0.53330 0.74810 0.33500 0.12500
H 	H 	0.41750 0.78890 0.30750 0.10500
H 	H 	0.47700 0.77440 0.17730 -0.02300
H 	H 	0.58030 0.67970 0.21780 -0.01600
H 	H 	0.66930 0.75730 0.17700 0.10200
H 	H 	0.59010 0.81610 0.11760 0.10000
H 	H 	0.86920 0.16480 0.88950 0.10700
H 	H 	0.92090 0.22270 0.83490 0.11300
H 	H 	0.99420 0.09320 0.94540 -0.15800
H 	H 	0.05500 0.14160 0.87820 -0.15400
H 	H 	0.16130 0.00150 0.87180 0.26000
H 	H 	0.08830 0.95350 0.92390 0.28000
H 	H 	0.17990 0.92290 0.78360 -0.13100
H 	H 	0.11810 0.86510 0.83970 -0.12400
H 	H 	0.00470 0.92470 0.78250 0.09300
C 	C 	0.90180 0.72800 0.52180 -0.20700
C 	C 	0.96030 0.80130 0.36470 -0.21800
C 	C 	0.91480 0.63260 0.38750 -0.19200
C 	C 	0.76640 0.93100 0.44480 -0.22600
C 	C 	0.71590 0.75510 0.46500 -0.22100
C 	C 	0.77160 0.83160 0.31760 -0.20200
C 	C 	0.17000 0.51300 0.76750 0.45500
C 	C 	0.13510 0.48130 0.83350 -0.77400
C 	C 	0.06880 0.42940 0.84010 0.36600
C 	C 	0.89860 0.44920 0.82390 0.18700
C 	C 	0.80040 0.48240 0.79680 -0.35800
C 	C 	0.75890 0.53470 0.71120 0.10100
C 	C 	0.09660 0.01720 0.38690 0.61000
C 	C 	0.99850 0.09230 0.37360 -0.91800
C 	C 	0.93590 0.10870 0.31220 0.50400
C 	C 	0.27200 0.09820 0.97820 -0.20900
C 	C 	0.19870 0.03970 0.13530 -0.21600
C 	C 	0.36740 0.08520 0.11250 -0.19200
C 	C 	0.06900 0.23360 0.05520 -0.22600
C 	C 	0.24490 0.28410 0.03500 -0.22100
C 	C 	0.16840 0.22840 0.18240 -0.20200
C 	C 	0.48700 0.83000 0.73250 0.45600
C 	C 	0.51870 0.86490 0.66650 -0.77500
C 	C 	0.57060 0.93120 0.65990 0.36700
C 	C 	0.55080 0.10140 0.67610 0.18700
C 	C 	0.51760 0.19960 0.70320 -0.35800
C 	C 	0.46530 0.24110 0.78880 0.10100
C 	C 	0.98280 0.90340 0.11310 0.58000
C 	C 	0.90770 0.00150 0.12640 -0.87800
C 	C 	0.89130 0.06410 0.18780 0.48100
C 	C 	0.09820 0.27200 0.47820 -0.20700
C 	C 	0.03970 0.19870 0.63530 -0.21800
C 	C 	0.08520 0.36740 0.61250 -0.19200
C 	C 	0.23360 0.06900 0.55520 -0.22600
C 	C 	0.28410 0.24490 0.53500 -0.22100
C 	C 	0.22840 0.16840 0.68240 -0.20200
C 	C 	0.83000 0.48700 0.23250 0.45500
C 	C 	0.86490 0.51870 0.16650 -0.77400
C 	C 	0.93120 0.57060 0.15990 0.36600
C 	C 	0.10140 0.55080 0.17610 0.18700
C 	C 	0.19960 0.51760 0.20320 -0.35800
C 	C 	0.24110 0.46530 0.28880 0.10100
C 	C 	0.90340 0.98280 0.61310 0.61000
C 	C 	0.00150 0.90770 0.62640 -0.91800
C 	C 	0.06410 0.89130 0.68780 0.50400
C 	C 	0.72800 0.90180 0.02180 -0.20900
C 	C 	0.80130 0.96030 0.86470 -0.21600
C 	C 	0.63260 0.91480 0.88750 -0.19200
C 	C 	0.93100 0.76640 0.94480 -0.22600
C 	C 	0.75510 0.71590 0.96500 -0.22100
C 	C 	0.83160 0.77160 0.81760 -0.20200
C 	C 	0.51300 0.17000 0.26750 0.45600
C 	C 	0.48130 0.13510 0.33350 -0.77500
C 	C 	0.42940 0.06880 0.34010 0.36700
C 	C 	0.44920 0.89860 0.32390 0.18700
C 	C 	0.48240 0.80040 0.29680 -0.35800
C 	C 	0.53470 0.75890 0.21120 0.10100
C 	C 	0.01720 0.09660 0.88690 0.58000
C 	C 	0.09230 0.99850 0.87360 -0.87800
C 	C 	0.10870 0.93590 0.81220 0.48100
N 	N 	0.93620 0.69100 0.58330 -0.18900
N 	N 	0.02810 0.81850 0.32800 -0.19600
N 	N 	0.96070 0.54750 0.36680 -0.18500
N 	N 	0.72510 0.02050 0.45690 -0.06200
N 	N 	0.64810 0.73310 0.49030 -0.07400
N 	N 	0.72590 0.86630 0.26030 -0.18700
N 	N 	0.09580 0.60020 0.70200 -0.39100
N 	N 	0.96800 0.48960 0.80460 -0.34400
N 	N 	0.80840 0.59900 0.67140 -0.34700
N 	N 	0.15550 0.92530 0.35040 -0.46000
N 	N 	0.30900 0.06380 0.91670 -0.18900
N 	N 	0.18150 0.97190 0.17200 -0.19800
N 	N 	0.45250 0.03930 0.13320 -0.18500
N 	N 	0.97950 0.27490 0.04310 -0.06100
N 	N 	0.26690 0.35190 0.00970 -0.07400
N 	N 	0.13370 0.27410 0.23970 -0.18700
N 	N 	0.39980 0.90420 0.79800 -0.39100
N 	N 	0.51040 0.03200 0.69540 -0.34500
N 	N 	0.40100 0.19160 0.82860 -0.34700
N 	N 	0.07470 0.84450 0.14960 -0.45400
N 	N 	0.06380 0.30900 0.41670 -0.18900
N 	N 	0.97190 0.18150 0.67200 -0.19600
N 	N 	0.03930 0.45250 0.63320 -0.18500
N 	N 	0.27490 0.97950 0.54310 -0.06200
N 	N 	0.35190 0.26690 0.50970 -0.07400
N 	N 	0.27410 0.13370 0.73970 -0.18700
N 	N 	0.90420 0.39980 0.29800 -0.39100
N 	N 	0.03200 0.51040 0.19540 -0.34400
N 	N 	0.19160 0.40100 0.32860 -0.34700
N 	N 	0.84450 0.07470 0.64960 -0.46000
N 	N 	0.69100 0.93620 0.08330 -0.18900
N 	N 	0.81850 0.02810 0.82800 -0.19800
N 	N 	0.54750 0.96070 0.86680 -0.18500
N 	N 	0.02050 0.72510 0.95690 -0.06100
N 	N 	0.73310 0.64810 0.99030 -0.07400
N 	N 	0.86630 0.72590 0.76030 -0.18700
N 	N 	0.60020 0.09580 0.20200 -0.39100
N 	N 	0.48960 0.96800 0.30460 -0.34500
N 	N 	0.59900 0.80840 0.17140 -0.34700
N 	N 	0.92530 0.15550 0.85040 -0.45400
N 	N 	0.96000 0.04000 0.25000 -0.45100
N 	N 	0.04000 0.96000 0.75000 -0.45100
