data_crystal

_cell_length_a 15.42340
_cell_length_b 15.77610
_cell_length_c 19.10340
_cell_angle_alpha 90.00000
_cell_angle_beta  108.59100
_cell_angle_gamma 90.00000

_symmetry_space_group_name_	'P 1'
_symmetry_space_group_name_H-M	'P 1'

loop_
_symmetry_equiv_pos_as_xyz
  x,y,z

loop_
_atom_site_label
_atom_site_type_symbol
_atom_site_fract_x
_atom_site_fract_y
_atom_site_fract_z
_atom_site_charge
Cu	Cu	0.09598 0.29100 0.57719 0.83200
O 	O 	0.18438 0.21623 0.56348 -0.74300
H 	H 	0.18470 0.16850 0.58010 0.29700
N 	N 	0.25228 0.37269 0.54909 -0.17900
N 	N 	0.18604 0.38876 0.57896 -0.20900
N 	N 	0.51032 0.69717 0.58240 -0.21100
N 	N 	0.48003 0.64559 0.52465 -0.10800
C 	C 	0.31335 0.43136 0.55012 -0.01300
H 	H 	0.36010 0.41860 0.52850 0.00700
C 	C 	0.31321 0.51230 0.58166 0.00300
C 	C 	0.24530 0.52810 0.61170 -0.10000
H 	H 	0.24100 0.58200 0.63370 0.04000
C 	C 	0.18250 0.46367 0.60935 0.02900
H 	H 	0.13490 0.47400 0.63060 -0.03600
C 	C 	0.41710 0.58563 0.52363 -0.01200
H 	H 	0.39530 0.54910 0.48150 0.02200
C 	C 	0.38343 0.57597 0.58236 0.00600
C 	C 	0.41800 0.63015 0.64197 -0.09700
H 	H 	0.39730 0.62550 0.68420 0.04700
C 	C 	0.48100 0.68970 0.64072 0.03200
H 	H 	0.50470 0.72680 0.68230 -0.03200
Cu	Cu	0.59598 0.79100 0.57719 0.83100
O 	O 	0.68438 0.71623 0.56348 -0.74400
H 	H 	0.68470 0.66850 0.58010 0.29600
N 	N 	0.75228 0.87269 0.54909 -0.17900
N 	N 	0.68604 0.88876 0.57896 -0.20900
N 	N 	0.01032 0.19717 0.58240 -0.20700
N 	N 	0.98003 0.14559 0.52465 -0.10900
C 	C 	0.81335 0.93136 0.55012 -0.01500
H 	H 	0.86010 0.91860 0.52850 0.00700
C 	C 	0.81321 0.01230 0.58166 0.00500
C 	C 	0.74530 0.02810 0.61170 -0.10000
H 	H 	0.74100 0.08200 0.63370 0.04000
C 	C 	0.68250 0.96367 0.60935 0.02800
H 	H 	0.63490 0.97400 0.63060 -0.03700
C 	C 	0.91710 0.08563 0.52363 -0.01100
H 	H 	0.89530 0.04910 0.48150 0.02100
C 	C 	0.88343 0.07597 0.58236 0.00300
C 	C 	0.91800 0.13015 0.64197 -0.09200
H 	H 	0.89730 0.12550 0.68420 0.04500
C 	C 	0.98100 0.18970 0.64072 0.02400
H 	H 	0.00470 0.22680 0.68230 -0.02700
Cu	Cu	0.90402 0.70900 0.42281 0.82900
O 	O 	0.81562 0.78377 0.43652 -0.74500
H 	H 	0.81530 0.83150 0.41990 0.29500
N 	N 	0.74772 0.62731 0.45091 -0.17900
N 	N 	0.81396 0.61124 0.42104 -0.21000
N 	N 	0.48968 0.30283 0.41760 -0.21100
N 	N 	0.51997 0.35441 0.47535 -0.10700
C 	C 	0.68665 0.56864 0.44988 -0.01400
H 	H 	0.63990 0.58140 0.47150 0.00700
C 	C 	0.68679 0.48770 0.41834 0.00300
C 	C 	0.75470 0.47190 0.38830 -0.10200
H 	H 	0.75900 0.41800 0.36630 0.03800
C 	C 	0.81750 0.53633 0.39065 0.02800
H 	H 	0.86510 0.52600 0.36940 -0.04000
C 	C 	0.58290 0.41437 0.47637 -0.01200
H 	H 	0.60470 0.45090 0.51850 0.02300
C 	C 	0.61657 0.42403 0.41764 0.00500
C 	C 	0.58200 0.36985 0.35803 -0.09700
H 	H 	0.60270 0.37450 0.31580 0.04500
C 	C 	0.51900 0.31030 0.35928 0.03200
H 	H 	0.49530 0.27320 0.31770 -0.03400
Cu	Cu	0.40402 0.20900 0.42281 0.83000
O 	O 	0.31562 0.28377 0.43652 -0.74500
H 	H 	0.31530 0.33150 0.41990 0.29500
N 	N 	0.24772 0.12731 0.45091 -0.17900
N 	N 	0.31396 0.11124 0.42104 -0.21000
N 	N 	0.98968 0.80283 0.41760 -0.21400
N 	N 	0.01997 0.85441 0.47535 -0.10600
C 	C 	0.18665 0.06864 0.44988 -0.01300
H 	H 	0.13990 0.08140 0.47150 0.00700
C 	C 	0.18679 0.98770 0.41834 0.00200
C 	C 	0.25470 0.97190 0.38830 -0.10200
H 	H 	0.25900 0.91800 0.36630 0.03900
C 	C 	0.31750 0.03633 0.39065 0.02900
H 	H 	0.36510 0.02600 0.36940 -0.04000
C 	C 	0.08290 0.91437 0.47637 -0.01300
H 	H 	0.10470 0.95090 0.51850 0.02300
C 	C 	0.11657 0.92403 0.41764 0.00700
C 	C 	0.08200 0.86985 0.35803 -0.10100
H 	H 	0.10270 0.87450 0.31580 0.04600
C 	C 	0.01900 0.81030 0.35928 0.03800
H 	H 	0.99530 0.77320 0.31770 -0.03800
Cu	Cu	0.25000 0.25000 0.50000 0.87500
Cu	Cu	0.75000 0.75000 0.50000 0.87500
Cu	Cu	0.90402 0.29100 0.92281 0.83600
O 	O 	0.81562 0.21623 0.93652 -0.72600
H 	H 	0.81530 0.16850 0.91990 0.29900
N 	N 	0.74772 0.37269 0.95091 -0.16600
N 	N 	0.81396 0.38876 0.92104 -0.20700
N 	N 	0.48968 0.69717 0.91760 -0.20400
N 	N 	0.51997 0.64559 0.97535 -0.11200
C 	C 	0.68665 0.43136 0.94988 -0.02000
H 	H 	0.63990 0.41860 0.97150 0.02700
C 	C 	0.68679 0.51230 0.91834 0.03100
C 	C 	0.75470 0.52810 0.88830 -0.11200
H 	H 	0.75900 0.58200 0.86630 0.04800
C 	C 	0.81750 0.46367 0.89065 0.03900
H 	H 	0.86510 0.47400 0.86940 -0.03600
C 	C 	0.58290 0.58563 0.97637 0.08300
H 	H 	0.60470 0.54910 0.01850 -0.04200
C 	C 	0.61657 0.57597 0.91764 -0.03100
C 	C 	0.58200 0.63015 0.85803 -0.07300
H 	H 	0.60270 0.62550 0.81580 0.03900
C 	C 	0.51900 0.68970 0.85928 0.02100
H 	H 	0.49530 0.72680 0.81770 -0.02700
Cu	Cu	0.40402 0.79100 0.92281 0.83600
O 	O 	0.31562 0.71623 0.93652 -0.72500
H 	H 	0.31530 0.66850 0.91990 0.29900
N 	N 	0.24772 0.87269 0.95091 -0.16500
N 	N 	0.31396 0.88876 0.92104 -0.20700
N 	N 	0.98968 0.19717 0.91760 -0.20800
N 	N 	0.01997 0.14559 0.97535 -0.11000
C 	C 	0.18665 0.93136 0.94988 -0.02000
H 	H 	0.13990 0.91860 0.97150 0.02700
C 	C 	0.18679 0.01230 0.91834 0.03000
C 	C 	0.25470 0.02810 0.88830 -0.11000
H 	H 	0.25900 0.08200 0.86630 0.04800
C 	C 	0.31750 0.96367 0.89065 0.03800
H 	H 	0.36510 0.97400 0.86940 -0.03600
C 	C 	0.08290 0.08563 0.97637 0.08200
H 	H 	0.10470 0.04910 0.01850 -0.04100
C 	C 	0.11657 0.07597 0.91764 -0.02800
C 	C 	0.08200 0.13015 0.85803 -0.07800
H 	H 	0.10270 0.12550 0.81580 0.04200
C 	C 	0.01900 0.18970 0.85928 0.03100
H 	H 	0.99530 0.22680 0.81770 -0.03300
Cu	Cu	0.09598 0.70900 0.07719 0.82500
O 	O 	0.18438 0.78377 0.06348 -0.75300
H 	H 	0.18470 0.83150 0.08010 0.29000
N 	N 	0.25228 0.62731 0.04909 -0.18800
N 	N 	0.18604 0.61124 0.07896 -0.21200
N 	N 	0.51032 0.30283 0.08240 -0.21700
N 	N 	0.48003 0.35441 0.02465 -0.10300
C 	C 	0.31335 0.56864 0.05012 -0.00700
H 	H 	0.36010 0.58140 0.02850 -0.01100
C 	C 	0.31321 0.48770 0.08166 -0.02400
C 	C 	0.24530 0.47190 0.11170 -0.09000
H 	H 	0.24100 0.41800 0.13370 0.03000
C 	C 	0.18250 0.53633 0.10935 0.01800
H 	H 	0.13490 0.52600 0.13060 -0.04000
C 	C 	0.41710 0.41437 0.02363 -0.10700
H 	H 	0.39530 0.45090 0.98150 0.08800
C 	C 	0.38343 0.42403 0.08236 0.04300
C 	C 	0.41800 0.36985 0.14197 -0.12200
H 	H 	0.39730 0.37450 0.18420 0.05200
C 	C 	0.48100 0.31030 0.14072 0.04300
H 	H 	0.50470 0.27320 0.18230 -0.03900
Cu	Cu	0.59598 0.20900 0.07719 0.82500
O 	O 	0.68438 0.28377 0.06348 -0.75300
H 	H 	0.68470 0.33150 0.08010 0.29000
N 	N 	0.75228 0.12731 0.04909 -0.18700
N 	N 	0.68604 0.11124 0.07896 -0.21200
N 	N 	0.01032 0.80283 0.08240 -0.21500
N 	N 	0.98003 0.85441 0.02465 -0.10500
C 	C 	0.81335 0.06864 0.05012 -0.00800
H 	H 	0.86010 0.08140 0.02850 -0.01100
C 	C 	0.81321 0.98770 0.08166 -0.02300
C 	C 	0.74530 0.97190 0.11170 -0.09200
H 	H 	0.74100 0.91800 0.13370 0.03100
C 	C 	0.68250 0.03633 0.10935 0.01800
H 	H 	0.63490 0.02600 0.13060 -0.04000
C 	C 	0.91710 0.91437 0.02363 -0.10100
H 	H 	0.89530 0.95090 0.98150 0.08300
C 	C 	0.88343 0.92403 0.08236 0.03900
C 	C 	0.91800 0.86985 0.14197 -0.11800
H 	H 	0.89730 0.87450 0.18420 0.05000
C 	C 	0.98100 0.81030 0.14072 0.03600
H 	H 	0.00470 0.77320 0.18230 -0.03600
Cu	Cu	0.75000 0.25000 -0.00000 0.85500
Cu	Cu	0.25000 0.75000 -0.00000 0.85500
