data_crystal

_cell_length_a 16.28450
_cell_length_b 16.28450
_cell_length_c 27.63900
_cell_angle_alpha 85.56360
_cell_angle_beta  85.56360
_cell_angle_gamma 71.75330

_symmetry_space_group_name_	'P 1'
_symmetry_space_group_name_H-M	'P 1'

loop_
_symmetry_equiv_pos_as_xyz
  x,y,z

loop_
_atom_site_label
_atom_site_type_symbol
_atom_site_fract_x
_atom_site_fract_y
_atom_site_fract_z
_atom_site_charge
Cd	Cd	0.33785 0.91127 0.18904 1.24800
Cd	Cd	0.08873 0.66215 0.31096 1.24800
Cd	Cd	0.66215 0.08873 0.81096 1.24800
Cd	Cd	0.91127 0.33785 0.68904 1.24800
H 	H 	0.28790 0.70270 0.07890 0.00400
H 	H 	0.28500 0.64700 0.00520 0.12900
H 	H 	0.40740 0.81260 0.94270 0.13200
H 	H 	0.40490 0.86710 0.01800 0.01100
H 	H 	0.24880 0.65000 0.92860 0.04500
H 	H 	0.34130 0.58170 0.92190 0.04600
H 	H 	0.37230 0.63430 0.79430 0.04200
H 	H 	0.40090 0.68030 0.83510 0.04300
H 	H 	0.51720 0.63120 0.77590 0.14400
H 	H 	0.64580 0.57080 0.73480 -0.01500
H 	H 	0.68260 0.35120 0.81810 0.00700
H 	H 	0.55000 0.41020 0.85740 0.15000
H 	H 	0.25370 0.77610 0.84820 0.03600
H 	H 	0.22550 0.73270 0.80610 0.03300
H 	H 	0.12460 0.87300 0.80340 0.15300
H 	H 	0.98850 0.97110 0.78810 -0.01900
H 	H 	0.87100 0.84680 0.88260 -0.02400
H 	H 	0.00820 0.74720 0.90010 0.15300
H 	H 	0.30210 0.51290 0.85430 0.04900
H 	H 	0.20710 0.57210 0.86740 0.04600
H 	H 	0.17200 0.61020 0.71770 0.11800
H 	H 	0.08590 0.54190 0.68390 0.01400
H 	H 	0.10010 0.38350 0.80670 0.01900
H 	H 	0.19270 0.45330 0.83760 0.12100
H 	H 	0.80850 0.49890 0.72420 0.22200
H 	H 	0.74830 0.93370 0.83560 0.23000
H 	H 	0.29730 0.71210 0.42110 0.00300
H 	H 	0.35300 0.71500 0.49480 0.12800
H 	H 	0.18740 0.59260 0.55730 0.13200
H 	H 	0.13290 0.59510 0.48200 0.01100
H 	H 	0.35000 0.75120 0.57140 0.04500
H 	H 	0.41830 0.65870 0.57810 0.04600
H 	H 	0.36570 0.62770 0.70570 0.04200
H 	H 	0.31970 0.59910 0.66490 0.04300
H 	H 	0.36880 0.48280 0.72410 0.14400
H 	H 	0.42920 0.35420 0.76520 -0.01500
H 	H 	0.64880 0.31740 0.68190 0.00700
H 	H 	0.58980 0.45000 0.64260 0.15000
H 	H 	0.22390 0.74630 0.65180 0.03600
H 	H 	0.26730 0.77450 0.69390 0.03300
H 	H 	0.12700 0.87540 0.69660 0.15300
H 	H 	0.02890 0.01150 0.71190 -0.01900
H 	H 	0.15320 0.12900 0.61740 -0.02400
H 	H 	0.25280 0.99180 0.59990 0.15300
H 	H 	0.48710 0.69790 0.64570 0.04900
H 	H 	0.42790 0.79290 0.63260 0.04600
H 	H 	0.38980 0.82800 0.78230 0.11800
H 	H 	0.45810 0.91410 0.81610 0.01400
H 	H 	0.61650 0.89990 0.69330 0.01900
H 	H 	0.54670 0.80730 0.66240 0.12100
H 	H 	0.50110 0.19150 0.77580 0.22200
H 	H 	0.06630 0.25170 0.66440 0.23000
H 	H 	0.71210 0.29730 0.92110 0.00300
H 	H 	0.71500 0.35300 0.99480 0.12800
H 	H 	0.59260 0.18740 0.05730 0.13200
H 	H 	0.59510 0.13290 0.98200 0.01100
H 	H 	0.75120 0.35000 0.07140 0.04500
H 	H 	0.65870 0.41830 0.07810 0.04600
H 	H 	0.62770 0.36570 0.20570 0.04200
H 	H 	0.59910 0.31970 0.16490 0.04300
H 	H 	0.48280 0.36880 0.22410 0.14400
H 	H 	0.35420 0.42920 0.26520 -0.01500
H 	H 	0.31740 0.64880 0.18190 0.00700
H 	H 	0.45000 0.58980 0.14260 0.15000
H 	H 	0.74630 0.22390 0.15180 0.03600
H 	H 	0.77450 0.26730 0.19390 0.03300
H 	H 	0.87540 0.12700 0.19660 0.15300
H 	H 	0.01150 0.02890 0.21190 -0.01900
H 	H 	0.12900 0.15320 0.11740 -0.02400
H 	H 	0.99180 0.25280 0.09990 0.15300
H 	H 	0.69790 0.48710 0.14570 0.04900
H 	H 	0.79290 0.42790 0.13260 0.04600
H 	H 	0.82800 0.38980 0.28230 0.11800
H 	H 	0.91410 0.45810 0.31610 0.01400
H 	H 	0.89990 0.61650 0.19330 0.01900
H 	H 	0.80730 0.54670 0.16240 0.12100
H 	H 	0.19150 0.50110 0.27580 0.22200
H 	H 	0.25170 0.06630 0.16440 0.23000
H 	H 	0.70270 0.28790 0.57890 0.00300
H 	H 	0.64700 0.28500 0.50520 0.12800
H 	H 	0.81260 0.40740 0.44270 0.13200
H 	H 	0.86710 0.40490 0.51800 0.01100
H 	H 	0.65000 0.24880 0.42860 0.04500
H 	H 	0.58170 0.34130 0.42190 0.04600
H 	H 	0.63430 0.37230 0.29430 0.04200
H 	H 	0.68030 0.40090 0.33510 0.04300
H 	H 	0.63120 0.51720 0.27590 0.14400
H 	H 	0.57080 0.64580 0.23480 -0.01500
H 	H 	0.35120 0.68260 0.31810 0.00700
H 	H 	0.41020 0.55000 0.35740 0.15000
H 	H 	0.77610 0.25370 0.34820 0.03600
H 	H 	0.73270 0.22550 0.30610 0.03300
H 	H 	0.87300 0.12460 0.30340 0.15300
H 	H 	0.97110 0.98850 0.28810 -0.01900
H 	H 	0.84680 0.87100 0.38260 -0.02400
H 	H 	0.74720 0.00820 0.40010 0.15300
H 	H 	0.51290 0.30210 0.35430 0.04900
H 	H 	0.57210 0.20710 0.36740 0.04600
H 	H 	0.61020 0.17200 0.21770 0.11800
H 	H 	0.54190 0.08590 0.18390 0.01400
H 	H 	0.38350 0.10010 0.30670 0.01900
H 	H 	0.45330 0.19270 0.33760 0.12100
H 	H 	0.49890 0.80850 0.22420 0.22200
H 	H 	0.93370 0.74830 0.33560 0.23000
C 	C 	0.34250 0.82690 0.10380 0.33400
C 	C 	0.34390 0.79070 0.05650 -0.17000
C 	C 	0.31070 0.72590 0.05120 0.14400
C 	C 	0.30860 0.69160 0.00710 -0.25600
C 	C 	0.34310 0.72630 0.96600 0.26300
C 	C 	0.38160 0.79120 0.97000 -0.23700
C 	C 	0.38050 0.82310 0.01520 0.13100
C 	C 	0.30476 0.63836 0.91095 0.00900
C 	C 	0.29440 0.64200 0.85703 0.01700
C 	C 	0.37960 0.63300 0.82889 0.01700
C 	C 	0.51910 0.52430 0.82000 0.29400
C 	C 	0.54990 0.57430 0.78360 -0.28700
C 	C 	0.62700 0.53900 0.76010 0.17600
C 	C 	0.67960 0.45500 0.77310 -0.20200
C 	C 	0.64920 0.40740 0.80940 0.17100
C 	C 	0.56970 0.44250 0.83260 -0.28300
C 	C 	0.76400 0.41520 0.74420 0.38400
C 	C 	0.23190 0.72970 0.84080 0.03300
C 	C 	0.07890 0.80150 0.85300 0.33600
C 	C 	0.07490 0.86650 0.81990 -0.33500
C 	C 	0.99220 0.92500 0.81080 0.21600
C 	C 	0.91830 0.91730 0.83340 -0.26700
C 	C 	0.92140 0.85280 0.86650 0.20800
C 	C 	0.00460 0.79260 0.87700 -0.30300
C 	C 	0.83590 0.98210 0.81950 0.45500
C 	C 	0.25960 0.56860 0.84735 -0.00500
C 	C 	0.18930 0.53410 0.78120 0.25200
C 	C 	0.15800 0.56420 0.73450 -0.22200
C 	C 	0.10680 0.52400 0.71460 0.10100
C 	C 	0.08660 0.45660 0.74120 -0.12700
C 	C 	0.11570 0.42750 0.78870 0.09200
C 	C 	0.17050 0.47050 0.80720 -0.24100
C 	C 	0.02390 0.41250 0.72210 0.32000
C 	C 	0.17310 0.65750 0.39620 0.33400
C 	C 	0.20930 0.65610 0.44350 -0.17000
C 	C 	0.27410 0.68930 0.44880 0.14400
C 	C 	0.30840 0.69140 0.49290 -0.25600
C 	C 	0.27370 0.65690 0.53400 0.26300
C 	C 	0.20880 0.61840 0.53000 -0.23700
C 	C 	0.17690 0.61950 0.48480 0.13100
C 	C 	0.36164 0.69524 0.58905 0.00900
C 	C 	0.35800 0.70560 0.64297 0.01700
C 	C 	0.36700 0.62040 0.67111 0.01700
C 	C 	0.47570 0.48090 0.68000 0.29400
C 	C 	0.42570 0.45010 0.71640 -0.28700
C 	C 	0.46100 0.37300 0.73990 0.17600
C 	C 	0.54500 0.32040 0.72690 -0.20200
C 	C 	0.59260 0.35080 0.69060 0.17100
C 	C 	0.55750 0.43030 0.66740 -0.28300
C 	C 	0.58480 0.23600 0.75580 0.38400
C 	C 	0.27030 0.76810 0.65920 0.03300
C 	C 	0.19850 0.92110 0.64700 0.33600
C 	C 	0.13350 0.92510 0.68010 -0.33600
C 	C 	0.07500 0.00780 0.68920 0.21600
C 	C 	0.08270 0.08170 0.66660 -0.26700
C 	C 	0.14720 0.07860 0.63350 0.20900
C 	C 	0.20740 0.99540 0.62300 -0.30300
C 	C 	0.01790 0.16410 0.68050 0.45600
C 	C 	0.43140 0.74040 0.65265 -0.00500
C 	C 	0.46590 0.81070 0.71880 0.25200
C 	C 	0.43580 0.84200 0.76550 -0.22200
C 	C 	0.47600 0.89320 0.78540 0.10100
C 	C 	0.54340 0.91340 0.75880 -0.12700
C 	C 	0.57250 0.88430 0.71130 0.09200
C 	C 	0.52950 0.82950 0.69280 -0.24100
C 	C 	0.58750 0.97610 0.77790 0.32000
C 	C 	0.65750 0.17310 0.89620 0.33400
C 	C 	0.65610 0.20930 0.94350 -0.17000
C 	C 	0.68930 0.27410 0.94880 0.14400
C 	C 	0.69140 0.30840 0.99290 -0.25600
C 	C 	0.65690 0.27370 0.03400 0.26300
C 	C 	0.61840 0.20880 0.03000 -0.23700
C 	C 	0.61950 0.17690 0.98480 0.13100
C 	C 	0.69524 0.36164 0.08905 0.00900
C 	C 	0.70560 0.35800 0.14297 0.01700
C 	C 	0.62040 0.36700 0.17111 0.01700
C 	C 	0.48090 0.47570 0.18000 0.29400
C 	C 	0.45010 0.42570 0.21640 -0.28700
C 	C 	0.37300 0.46100 0.23990 0.17600
C 	C 	0.32040 0.54500 0.22690 -0.20200
C 	C 	0.35080 0.59260 0.19060 0.17100
C 	C 	0.43030 0.55750 0.16740 -0.28300
C 	C 	0.23600 0.58480 0.25580 0.38400
C 	C 	0.76810 0.27030 0.15920 0.03300
C 	C 	0.92110 0.19850 0.14700 0.33600
C 	C 	0.92510 0.13350 0.18010 -0.33500
C 	C 	0.00780 0.07500 0.18920 0.21600
C 	C 	0.08170 0.08270 0.16660 -0.26700
C 	C 	0.07860 0.14720 0.13350 0.20800
C 	C 	0.99540 0.20740 0.12300 -0.30300
C 	C 	0.16410 0.01790 0.18050 0.45500
C 	C 	0.74040 0.43140 0.15265 -0.00500
C 	C 	0.81070 0.46590 0.21880 0.25200
C 	C 	0.84200 0.43580 0.26550 -0.22200
C 	C 	0.89320 0.47600 0.28540 0.10100
C 	C 	0.91340 0.54340 0.25880 -0.12700
C 	C 	0.88430 0.57250 0.21130 0.09200
C 	C 	0.82950 0.52950 0.19280 -0.24100
C 	C 	0.97610 0.58750 0.27790 0.32000
C 	C 	0.82690 0.34250 0.60380 0.33400
C 	C 	0.79070 0.34390 0.55650 -0.17000
C 	C 	0.72590 0.31070 0.55120 0.14400
C 	C 	0.69160 0.30860 0.50710 -0.25600
C 	C 	0.72630 0.34310 0.46600 0.26300
C 	C 	0.79120 0.38160 0.47000 -0.23700
C 	C 	0.82310 0.38050 0.51520 0.13100
C 	C 	0.63836 0.30476 0.41095 0.00900
C 	C 	0.64200 0.29440 0.35703 0.01700
C 	C 	0.63300 0.37960 0.32889 0.01700
C 	C 	0.52430 0.51910 0.32000 0.29400
C 	C 	0.57430 0.54990 0.28360 -0.28700
C 	C 	0.53900 0.62700 0.26010 0.17600
C 	C 	0.45500 0.67960 0.27310 -0.20200
C 	C 	0.40740 0.64920 0.30940 0.17100
C 	C 	0.44250 0.56970 0.33260 -0.28300
C 	C 	0.41520 0.76400 0.24420 0.38400
C 	C 	0.72970 0.23190 0.34080 0.03300
C 	C 	0.80150 0.07890 0.35300 0.33600
C 	C 	0.86650 0.07490 0.31990 -0.33600
C 	C 	0.92500 0.99220 0.31080 0.21600
C 	C 	0.91730 0.91830 0.33340 -0.26700
C 	C 	0.85280 0.92140 0.36650 0.20900
C 	C 	0.79260 0.00460 0.37700 -0.30300
C 	C 	0.98210 0.83590 0.31950 0.45600
C 	C 	0.56860 0.25960 0.34735 -0.00500
C 	C 	0.53410 0.18930 0.28120 0.25200
C 	C 	0.56420 0.15800 0.23450 -0.22200
C 	C 	0.52400 0.10680 0.21460 0.10100
C 	C 	0.45660 0.08660 0.24120 -0.12700
C 	C 	0.42750 0.11570 0.28870 0.09200
C 	C 	0.47050 0.17050 0.30720 -0.24100
C 	C 	0.41250 0.02390 0.22210 0.32000
O 	O 	0.38536 0.87856 0.10781 -0.34500
O 	O 	0.29614 0.80774 0.13869 -0.31600
O 	O 	0.34367 0.70327 0.91899 -0.23300
O 	O 	0.43901 0.55261 0.84434 -0.24200
O 	O 	0.80512 0.33792 0.75357 -0.35500
O 	O 	0.78864 0.46112 0.71038 -0.52600
O 	O 	0.15200 0.73740 0.86633 -0.25900
O 	O 	0.76901 0.97221 0.84610 -0.55400
O 	O 	0.82668 0.03828 0.78954 -0.36800
O 	O 	0.24150 0.58010 0.79566 -0.23300
O 	O 	0.00200 0.35860 0.74900 -0.36800
O 	O 	0.99891 0.43591 0.68040 -0.35500
O 	O 	0.12144 0.61464 0.39219 -0.34500
O 	O 	0.19226 0.70386 0.36131 -0.31600
O 	O 	0.29673 0.65633 0.58101 -0.23300
O 	O 	0.44739 0.56099 0.65566 -0.24200
O 	O 	0.66208 0.19488 0.74643 -0.35500
O 	O 	0.53888 0.21136 0.78962 -0.52600
O 	O 	0.26260 0.84800 0.63367 -0.25900
O 	O 	0.02779 0.23099 0.65390 -0.55400
O 	O 	0.96172 0.17332 0.71046 -0.36800
O 	O 	0.41990 0.75850 0.70434 -0.23300
O 	O 	0.64140 0.99800 0.75100 -0.36800
O 	O 	0.56409 0.00109 0.81960 -0.35500
O 	O 	0.61464 0.12144 0.89219 -0.34500
O 	O 	0.70386 0.19226 0.86131 -0.31600
O 	O 	0.65633 0.29673 0.08101 -0.23300
O 	O 	0.56099 0.44739 0.15566 -0.24200
O 	O 	0.19488 0.66208 0.24643 -0.35500
O 	O 	0.21136 0.53888 0.28962 -0.52600
O 	O 	0.84800 0.26260 0.13367 -0.25900
O 	O 	0.23099 0.02779 0.15390 -0.55400
O 	O 	0.17332 0.96172 0.21046 -0.36800
O 	O 	0.75850 0.41990 0.20434 -0.23300
O 	O 	0.99800 0.64140 0.25100 -0.36800
O 	O 	0.00109 0.56409 0.31960 -0.35500
O 	O 	0.87856 0.38536 0.60781 -0.34500
O 	O 	0.80774 0.29614 0.63869 -0.31600
O 	O 	0.70327 0.34367 0.41899 -0.23300
O 	O 	0.55261 0.43901 0.34434 -0.24200
O 	O 	0.33792 0.80512 0.25357 -0.35500
O 	O 	0.46112 0.78864 0.21038 -0.52600
O 	O 	0.73740 0.15200 0.36633 -0.25900
O 	O 	0.97221 0.76901 0.34610 -0.55400
O 	O 	0.03828 0.82668 0.28954 -0.36800
O 	O 	0.58010 0.24150 0.29566 -0.23300
O 	O 	0.35860 0.00200 0.24900 -0.36800
O 	O 	0.43591 0.99891 0.18040 -0.35500
