data_crystal

_cell_length_a 16.03460
_cell_length_b 16.03460
_cell_length_c 26.47100
_cell_angle_alpha 84.31170
_cell_angle_beta  84.31170
_cell_angle_gamma 84.36830

_symmetry_space_group_name_	'P 1'
_symmetry_space_group_name_H-M	'P 1'

loop_
_symmetry_equiv_pos_as_xyz
  x,y,z

loop_
_atom_site_label
_atom_site_type_symbol
_atom_site_fract_x
_atom_site_fract_y
_atom_site_fract_z
_atom_site_charge
Co	Co	0.72722 0.32122 0.49349 1.15300
Co	Co	0.89754 0.30618 0.47033 1.15200
Co	Co	0.32122 0.72722 0.99349 1.15200
Co	Co	0.30618 0.89754 0.97033 1.15100
H 	H 	0.67800 0.55920 0.39410 -0.02600
H 	H 	0.67590 0.68690 0.34460 0.15000
H 	H 	0.92580 0.66460 0.32940 0.16000
H 	H 	0.92790 0.53810 0.37740 -0.03100
H 	H 	0.69760 0.82320 0.29960 0.03700
H 	H 	0.71430 0.75050 0.26300 0.03300
H 	H 	0.64680 0.92040 0.22140 0.03100
H 	H 	0.70850 0.92710 0.17120 0.03600
H 	H 	0.60070 0.69850 0.16320 0.16000
H 	H 	0.49400 0.69200 0.11150 -0.02400
H 	H 	0.46940 0.94080 0.08870 -0.02500
H 	H 	0.57440 0.94820 0.14250 0.15800
H 	H 	0.85060 0.91400 0.27380 0.03300
H 	H 	0.82350 0.97330 0.22610 0.03400
H 	H 	0.64830 0.05290 0.34410 0.14900
H 	H 	0.67440 0.15860 0.39100 -0.01600
H 	H 	0.91820 0.13260 0.34330 -0.01100
H 	H 	0.89030 0.03070 0.29070 0.13300
H 	H 	0.88660 0.79600 0.21700 0.02900
H 	H 	0.81950 0.76830 0.18410 0.03200
H 	H 	0.96150 0.73210 0.15350 0.14200
H 	H 	0.08720 0.71020 0.10080 -0.01900
H 	H 	0.06870 0.95050 0.04960 -0.02100
H 	H 	0.93980 0.97060 0.09570 0.16300
H 	H 	0.02580 0.39320 0.51510 0.00000
H 	H 	0.16770 0.39030 0.51750 0.10100
H 	H 	0.19730 0.20590 0.42680 0.10300
H 	H 	0.05270 0.21150 0.42750 -0.00100
H 	H 	0.32190 0.24990 0.45570 0.05800
H 	H 	0.30200 0.37960 0.51210 0.07500
H 	H 	0.43510 0.45670 0.50480 0.11200
H 	H 	0.57510 0.44070 0.51810 -0.02300
H 	H 	0.59120 0.20840 0.49050 -0.01500
H 	H 	0.44790 0.21570 0.48210 0.10700
H 	H 	0.55920 0.67800 0.89410 -0.02600
H 	H 	0.68690 0.67590 0.84460 0.15000
H 	H 	0.66460 0.92580 0.82940 0.16000
H 	H 	0.53810 0.92790 0.87740 -0.03100
H 	H 	0.82320 0.69760 0.79960 0.03700
H 	H 	0.75050 0.71430 0.76300 0.03300
H 	H 	0.92040 0.64680 0.72140 0.03100
H 	H 	0.92710 0.70850 0.67120 0.03500
H 	H 	0.69850 0.60070 0.66320 0.16000
H 	H 	0.69200 0.49400 0.61150 -0.02400
H 	H 	0.94080 0.46940 0.58870 -0.02600
H 	H 	0.94820 0.57440 0.64250 0.15800
H 	H 	0.91400 0.85060 0.77380 0.03300
H 	H 	0.97330 0.82350 0.72610 0.03300
H 	H 	0.05290 0.64830 0.84410 0.14900
H 	H 	0.15860 0.67440 0.89100 -0.01600
H 	H 	0.13260 0.91820 0.84330 -0.01200
H 	H 	0.03070 0.89030 0.79070 0.13300
H 	H 	0.79600 0.88660 0.71700 0.02900
H 	H 	0.76830 0.81950 0.68410 0.03200
H 	H 	0.73210 0.96150 0.65350 0.14100
H 	H 	0.71020 0.08720 0.60080 -0.01800
H 	H 	0.95050 0.06870 0.54960 -0.02100
H 	H 	0.97060 0.93980 0.59570 0.16200
H 	H 	0.39320 0.02580 0.01510 -0.00300
H 	H 	0.39030 0.16770 0.01750 0.10000
H 	H 	0.20590 0.19730 0.92680 0.10300
H 	H 	0.21150 0.05270 0.92750 -0.00100
H 	H 	0.24990 0.32190 0.95570 0.05800
H 	H 	0.37960 0.30200 0.01210 0.07300
H 	H 	0.45670 0.43510 0.00480 0.11200
H 	H 	0.44070 0.57510 0.01810 -0.02300
H 	H 	0.20840 0.59120 0.99050 -0.01500
H 	H 	0.21570 0.44790 0.98210 0.10700
C 	C 	0.80612 0.45304 0.42286 0.41800
C 	C 	0.80341 0.53479 0.39045 -0.24800
C 	C 	0.72836 0.58012 0.38064 0.20400
C 	C 	0.72686 0.65668 0.35093 -0.32500
C 	C 	0.80109 0.68729 0.33100 0.33100
C 	C 	0.87522 0.64302 0.34189 -0.33100
C 	C 	0.87651 0.56755 0.37088 0.21700
C 	C 	0.73950 0.79548 0.27629 0.04700
C 	C 	0.76778 0.85840 0.23269 -0.01500
C 	C 	0.69093 0.89023 0.20081 0.05200
C 	C 	0.59794 0.82414 0.15637 0.34300
C 	C 	0.57435 0.74763 0.14810 -0.33000
C 	C 	0.51061 0.74411 0.11694 0.21300
C 	C 	0.47162 0.81550 0.09410 -0.24600
C 	C 	0.49564 0.89146 0.10366 0.21200
C 	C 	0.55918 0.89618 0.13563 -0.33800
C 	C 	0.40881 0.81027 0.05660 0.42100
C 	C 	0.80361 0.93433 0.25409 0.05000
C 	C 	0.76657 0.03557 0.31207 0.30000
C 	C 	0.70213 0.07053 0.34272 -0.29800
C 	C 	0.71857 0.13237 0.37131 0.18100
C 	C 	0.79905 0.15755 0.37203 -0.21200
C 	C 	0.86348 0.11838 0.34266 0.16700
C 	C 	0.84705 0.05651 0.31135 -0.28800
C 	C 	0.81463 0.22031 0.40752 0.40400
C 	C 	0.83925 0.81619 0.19756 0.05000
C 	C 	0.93926 0.85426 0.12921 0.32300
C 	C 	0.98221 0.77601 0.13179 -0.31100
C 	C 	0.05883 0.76361 0.10070 0.19100
C 	C 	0.09133 0.82853 0.07083 -0.23800
C 	C 	0.04691 0.90551 0.06977 0.20600
C 	C 	0.97009 0.91807 0.09813 -0.32400
C 	C 	0.17494 0.81654 0.04073 0.42200
C 	C 	0.06050 0.35396 0.49730 0.11200
C 	C 	0.14605 0.35245 0.49888 -0.18000
C 	C 	0.20019 0.29549 0.47328 0.13500
C 	C 	0.16367 0.24419 0.44590 -0.18000
C 	C 	0.07594 0.24832 0.44609 0.11200
C 	C 	0.29116 0.29188 0.47325 -0.07500
C 	C 	0.33290 0.33850 0.49395 -0.10900
C 	C 	0.42510 0.33630 0.49320 0.16500
C 	C 	0.46560 0.40480 0.50200 -0.21500
C 	C 	0.55020 0.39680 0.50670 0.13200
C 	C 	0.55940 0.26020 0.49120 0.13300
C 	C 	0.47260 0.26360 0.48790 -0.21300
C 	C 	0.45304 0.80612 0.92286 0.41800
C 	C 	0.53479 0.80341 0.89045 -0.24900
C 	C 	0.58012 0.72836 0.88064 0.20400
C 	C 	0.65668 0.72686 0.85093 -0.32600
C 	C 	0.68729 0.80109 0.83100 0.33100
C 	C 	0.64302 0.87522 0.84189 -0.33100
C 	C 	0.56755 0.87651 0.87088 0.21700
C 	C 	0.79548 0.73950 0.77629 0.04800
C 	C 	0.85840 0.76778 0.73269 -0.01500
C 	C 	0.89023 0.69093 0.70081 0.05300
C 	C 	0.82414 0.59794 0.65637 0.34400
C 	C 	0.74763 0.57435 0.64810 -0.33000
C 	C 	0.74411 0.51061 0.61694 0.21300
C 	C 	0.81550 0.47162 0.59410 -0.24700
C 	C 	0.89146 0.49564 0.60366 0.21200
C 	C 	0.89618 0.55918 0.63563 -0.33800
C 	C 	0.81027 0.40881 0.55660 0.42100
C 	C 	0.93433 0.80361 0.75409 0.05100
C 	C 	0.03557 0.76657 0.81207 0.30000
C 	C 	0.07053 0.70213 0.84272 -0.29800
C 	C 	0.13237 0.71857 0.87131 0.18200
C 	C 	0.15755 0.79905 0.87203 -0.21200
C 	C 	0.11838 0.86348 0.84266 0.16800
C 	C 	0.05651 0.84705 0.81135 -0.28900
C 	C 	0.22031 0.81463 0.90752 0.40400
C 	C 	0.81619 0.83925 0.69756 0.05000
C 	C 	0.85426 0.93926 0.62921 0.32100
C 	C 	0.77601 0.98221 0.63179 -0.30900
C 	C 	0.76361 0.05883 0.60070 0.18900
C 	C 	0.82853 0.09133 0.57083 -0.23700
C 	C 	0.90551 0.04691 0.56977 0.20400
C 	C 	0.91807 0.97009 0.59813 -0.32200
C 	C 	0.81654 0.17494 0.54073 0.42200
C 	C 	0.35396 0.06050 0.99730 0.11700
C 	C 	0.35245 0.14605 0.99888 -0.17900
C 	C 	0.29549 0.20019 0.97328 0.13600
C 	C 	0.24419 0.16367 0.94590 -0.18000
C 	C 	0.24832 0.07594 0.94609 0.11200
C 	C 	0.29188 0.29116 0.97325 -0.07700
C 	C 	0.33850 0.33290 0.99395 -0.10700
C 	C 	0.33630 0.42510 0.99320 0.16400
C 	C 	0.40480 0.46560 0.00200 -0.21400
C 	C 	0.39680 0.55020 0.00670 0.13300
C 	C 	0.26020 0.55940 0.99120 0.13300
C 	C 	0.26360 0.47260 0.98790 -0.21300
N 	N 	0.59700 0.32700 0.49500 -0.25100
N 	N 	0.02513 0.30209 0.47147 -0.24700
N 	N 	0.32700 0.59700 0.99500 -0.25100
N 	N 	0.30209 0.02513 0.97147 -0.24700
O 	O 	0.73718 0.42876 0.44381 -0.44700
O 	O 	0.87711 0.41419 0.42720 -0.46700
O 	O 	0.80852 0.76238 0.30198 -0.26500
O 	O 	0.66352 0.81758 0.18638 -0.27200
O 	O 	0.39114 0.73698 0.05014 -0.45200
O 	O 	0.37887 0.87621 0.03368 -0.45400
O 	O 	0.74104 0.97400 0.28424 -0.25100
O 	O 	0.88920 0.23516 0.41167 -0.43600
O 	O 	0.75063 0.25241 0.43308 -0.46900
O 	O 	0.86453 0.87403 0.15770 -0.26500
O 	O 	0.21142 0.74422 0.03862 -0.44800
O 	O 	0.20284 0.88268 0.01799 -0.46400
O 	O 	0.42876 0.73718 0.94381 -0.44700
O 	O 	0.41419 0.87711 0.92720 -0.46700
O 	O 	0.76238 0.80852 0.80198 -0.26600
O 	O 	0.81758 0.66352 0.68638 -0.27200
O 	O 	0.73698 0.39114 0.55014 -0.45300
O 	O 	0.87621 0.37887 0.53368 -0.45600
O 	O 	0.97400 0.74104 0.78424 -0.25200
O 	O 	0.23516 0.88920 0.91167 -0.43700
O 	O 	0.25241 0.75063 0.93308 -0.46900
O 	O 	0.87403 0.86453 0.65770 -0.26500
O 	O 	0.74422 0.21142 0.53862 -0.44900
O 	O 	0.88268 0.20284 0.51799 -0.46500
Co	Co	0.67878 0.27278 0.00651 1.15200
Co	Co	0.69382 0.10246 0.02967 1.15100
Co	Co	0.27278 0.67878 0.50651 1.15300
Co	Co	0.10246 0.69382 0.52967 1.15200
H 	H 	0.44080 0.32200 0.10590 -0.02600
H 	H 	0.31310 0.32410 0.15540 0.15000
H 	H 	0.33540 0.07420 0.17060 0.16000
H 	H 	0.46190 0.07210 0.12260 -0.03100
H 	H 	0.17680 0.30240 0.20040 0.03700
H 	H 	0.24950 0.28570 0.23700 0.03300
H 	H 	0.07960 0.35320 0.27860 0.03100
H 	H 	0.07290 0.29150 0.32880 0.03500
H 	H 	0.30150 0.39930 0.33680 0.16000
H 	H 	0.30800 0.50600 0.38850 -0.02400
H 	H 	0.05920 0.53060 0.41130 -0.02600
H 	H 	0.05180 0.42560 0.35750 0.15800
H 	H 	0.08600 0.14940 0.22620 0.03300
H 	H 	0.02670 0.17650 0.27390 0.03300
H 	H 	0.94710 0.35170 0.15590 0.14900
H 	H 	0.84140 0.32560 0.10900 -0.01600
H 	H 	0.86740 0.08180 0.15670 -0.01200
H 	H 	0.96930 0.10970 0.20930 0.13300
H 	H 	0.20400 0.11340 0.28300 0.02900
H 	H 	0.23170 0.18050 0.31590 0.03200
H 	H 	0.26790 0.03850 0.34650 0.14100
H 	H 	0.28980 0.91280 0.39920 -0.01800
H 	H 	0.04950 0.93130 0.45040 -0.02100
H 	H 	0.02940 0.06020 0.40430 0.16200
H 	H 	0.60680 0.97420 0.98490 -0.00300
H 	H 	0.60970 0.83230 0.98250 0.10000
H 	H 	0.79410 0.80270 0.07320 0.10300
H 	H 	0.78850 0.94730 0.07250 -0.00100
H 	H 	0.75010 0.67810 0.04430 0.05800
H 	H 	0.62040 0.69800 0.98790 0.07300
H 	H 	0.54330 0.56490 0.99520 0.11200
H 	H 	0.55930 0.42490 0.98190 -0.02300
H 	H 	0.79160 0.40880 0.00950 -0.01500
H 	H 	0.78430 0.55210 0.01790 0.10700
H 	H 	0.32200 0.44080 0.60590 -0.02600
H 	H 	0.32410 0.31310 0.65540 0.15000
H 	H 	0.07420 0.33540 0.67060 0.16000
H 	H 	0.07210 0.46190 0.62260 -0.03100
H 	H 	0.30240 0.17680 0.70040 0.03700
H 	H 	0.28570 0.24950 0.73700 0.03300
H 	H 	0.35320 0.07960 0.77860 0.03100
H 	H 	0.29150 0.07290 0.82880 0.03600
H 	H 	0.39930 0.30150 0.83680 0.16000
H 	H 	0.50600 0.30800 0.88850 -0.02400
H 	H 	0.53060 0.05920 0.91130 -0.02500
H 	H 	0.42560 0.05180 0.85750 0.15800
H 	H 	0.14940 0.08600 0.72620 0.03300
H 	H 	0.17650 0.02670 0.77390 0.03400
H 	H 	0.35170 0.94710 0.65590 0.14900
H 	H 	0.32560 0.84140 0.60900 -0.01600
H 	H 	0.08180 0.86740 0.65670 -0.01100
H 	H 	0.10970 0.96930 0.70930 0.13300
H 	H 	0.11340 0.20400 0.78300 0.02900
H 	H 	0.18050 0.23170 0.81590 0.03200
H 	H 	0.03850 0.26790 0.84650 0.14200
H 	H 	0.91280 0.28980 0.89920 -0.01900
H 	H 	0.93130 0.04950 0.95040 -0.02100
H 	H 	0.06020 0.02940 0.90430 0.16300
H 	H 	0.97420 0.60680 0.48490 0.00000
H 	H 	0.83230 0.60970 0.48250 0.10100
H 	H 	0.80270 0.79410 0.57320 0.10300
H 	H 	0.94730 0.78850 0.57250 -0.00100
H 	H 	0.67810 0.75010 0.54430 0.05800
H 	H 	0.69800 0.62040 0.48790 0.07500
H 	H 	0.56490 0.54330 0.49520 0.11200
H 	H 	0.42490 0.55930 0.48190 -0.02300
H 	H 	0.40880 0.79160 0.50950 -0.01500
H 	H 	0.55210 0.78430 0.51790 0.10700
C 	C 	0.54696 0.19388 0.07714 0.41800
C 	C 	0.46521 0.19659 0.10955 -0.24900
C 	C 	0.41988 0.27164 0.11936 0.20400
C 	C 	0.34332 0.27314 0.14907 -0.32600
C 	C 	0.31271 0.19891 0.16900 0.33100
C 	C 	0.35698 0.12478 0.15811 -0.33100
C 	C 	0.43245 0.12349 0.12912 0.21700
C 	C 	0.20452 0.26050 0.22371 0.04800
C 	C 	0.14160 0.23222 0.26731 -0.01500
C 	C 	0.10977 0.30907 0.29919 0.05300
C 	C 	0.17586 0.40206 0.34363 0.34400
C 	C 	0.25237 0.42565 0.35190 -0.33000
C 	C 	0.25589 0.48939 0.38306 0.21300
C 	C 	0.18450 0.52838 0.40590 -0.24700
C 	C 	0.10854 0.50436 0.39634 0.21200
C 	C 	0.10382 0.44082 0.36437 -0.33800
C 	C 	0.18973 0.59119 0.44340 0.42100
C 	C 	0.06567 0.19639 0.24591 0.05100
C 	C 	0.96443 0.23343 0.18793 0.30000
C 	C 	0.92947 0.29787 0.15728 -0.29800
C 	C 	0.86763 0.28143 0.12869 0.18200
C 	C 	0.84245 0.20095 0.12797 -0.21200
C 	C 	0.88162 0.13652 0.15734 0.16800
C 	C 	0.94349 0.15295 0.18865 -0.28900
C 	C 	0.77969 0.18537 0.09248 0.40400
C 	C 	0.18381 0.16075 0.30244 0.05000
C 	C 	0.14574 0.06074 0.37079 0.32100
C 	C 	0.22399 0.01779 0.36821 -0.30900
C 	C 	0.23639 0.94117 0.39930 0.18900
C 	C 	0.17147 0.90867 0.42917 -0.23700
C 	C 	0.09449 0.95309 0.43023 0.20400
C 	C 	0.08193 0.02991 0.40187 -0.32200
C 	C 	0.18346 0.82506 0.45927 0.42200
C 	C 	0.64604 0.93950 0.00270 0.11700
C 	C 	0.64755 0.85395 0.00112 -0.17900
C 	C 	0.70451 0.79981 0.02672 0.13600
C 	C 	0.75581 0.83633 0.05410 -0.18000
C 	C 	0.75168 0.92406 0.05391 0.11200
C 	C 	0.70812 0.70884 0.02675 -0.07700
C 	C 	0.66150 0.66710 0.00605 -0.10700
C 	C 	0.66370 0.57490 0.00680 0.16400
C 	C 	0.59520 0.53440 0.99800 -0.21400
C 	C 	0.60320 0.44980 0.99330 0.13300
C 	C 	0.73980 0.44060 0.00880 0.13300
C 	C 	0.73640 0.52740 0.01210 -0.21300
C 	C 	0.19388 0.54696 0.57714 0.41800
C 	C 	0.19659 0.46521 0.60955 -0.24800
C 	C 	0.27164 0.41988 0.61936 0.20400
C 	C 	0.27314 0.34332 0.64907 -0.32500
C 	C 	0.19891 0.31271 0.66900 0.33100
C 	C 	0.12478 0.35698 0.65811 -0.33100
C 	C 	0.12349 0.43245 0.62912 0.21700
C 	C 	0.26050 0.20452 0.72371 0.04700
C 	C 	0.23222 0.14160 0.76731 -0.01500
C 	C 	0.30907 0.10977 0.79919 0.05200
C 	C 	0.40206 0.17586 0.84363 0.34300
C 	C 	0.42565 0.25237 0.85190 -0.33000
C 	C 	0.48939 0.25589 0.88306 0.21300
C 	C 	0.52838 0.18450 0.90590 -0.24600
C 	C 	0.50436 0.10854 0.89634 0.21200
C 	C 	0.44082 0.10382 0.86437 -0.33800
C 	C 	0.59119 0.18973 0.94340 0.42100
C 	C 	0.19639 0.06567 0.74591 0.05000
C 	C 	0.23343 0.96443 0.68793 0.30000
C 	C 	0.29787 0.92947 0.65728 -0.29800
C 	C 	0.28143 0.86763 0.62869 0.18100
C 	C 	0.20095 0.84245 0.62797 -0.21200
C 	C 	0.13652 0.88162 0.65734 0.16700
C 	C 	0.15295 0.94349 0.68865 -0.28800
C 	C 	0.18537 0.77969 0.59248 0.40400
C 	C 	0.16075 0.18381 0.80244 0.05000
C 	C 	0.06074 0.14574 0.87079 0.32300
C 	C 	0.01779 0.22399 0.86821 -0.31100
C 	C 	0.94117 0.23639 0.89930 0.19100
C 	C 	0.90867 0.17147 0.92917 -0.23800
C 	C 	0.95309 0.09449 0.93023 0.20600
C 	C 	0.02991 0.08193 0.90187 -0.32400
C 	C 	0.82506 0.18346 0.95927 0.42200
C 	C 	0.93950 0.64604 0.50270 0.11200
C 	C 	0.85395 0.64755 0.50112 -0.18000
C 	C 	0.79981 0.70451 0.52672 0.13500
C 	C 	0.83633 0.75581 0.55410 -0.18000
C 	C 	0.92406 0.75168 0.55391 0.11200
C 	C 	0.70884 0.70812 0.52675 -0.07500
C 	C 	0.66710 0.66150 0.50605 -0.10900
C 	C 	0.57490 0.66370 0.50680 0.16500
C 	C 	0.53440 0.59520 0.49800 -0.21500
C 	C 	0.44980 0.60320 0.49330 0.13200
C 	C 	0.44060 0.73980 0.50880 0.13300
C 	C 	0.52740 0.73640 0.51210 -0.21300
N 	N 	0.67300 0.40300 0.00500 -0.25100
N 	N 	0.69791 0.97487 0.02853 -0.24700
N 	N 	0.40300 0.67300 0.50500 -0.25100
N 	N 	0.97487 0.69791 0.52853 -0.24700
O 	O 	0.57124 0.26282 0.05619 -0.44700
O 	O 	0.58581 0.12289 0.07280 -0.46700
O 	O 	0.23762 0.19148 0.19802 -0.26600
O 	O 	0.18242 0.33648 0.31362 -0.27200
O 	O 	0.26302 0.60886 0.44986 -0.45300
O 	O 	0.12379 0.62113 0.46632 -0.45600
O 	O 	0.02600 0.25896 0.21576 -0.25200
O 	O 	0.76484 0.11080 0.08833 -0.43700
O 	O 	0.74759 0.24937 0.06692 -0.46900
O 	O 	0.12597 0.13547 0.34230 -0.26500
O 	O 	0.25578 0.78858 0.46138 -0.44900
O 	O 	0.11732 0.79716 0.48201 -0.46500
O 	O 	0.26282 0.57124 0.55619 -0.44700
O 	O 	0.12289 0.58581 0.57280 -0.46700
O 	O 	0.19148 0.23762 0.69802 -0.26500
O 	O 	0.33648 0.18242 0.81362 -0.27200
O 	O 	0.60886 0.26302 0.94986 -0.45200
O 	O 	0.62113 0.12379 0.96632 -0.45400
O 	O 	0.25896 0.02600 0.71576 -0.25100
O 	O 	0.11080 0.76484 0.58833 -0.43600
O 	O 	0.24937 0.74759 0.56692 -0.46900
O 	O 	0.13547 0.12597 0.84230 -0.26500
O 	O 	0.78858 0.25578 0.96138 -0.44800
O 	O 	0.79716 0.11732 0.98201 -0.46400
