data_crystal

_cell_length_a 17.77560
_cell_length_b 17.77560
_cell_length_c 24.83700
_cell_angle_alpha 90.00000
_cell_angle_beta  90.00000
_cell_angle_gamma 116.39600

_symmetry_space_group_name_	'P 1'
_symmetry_space_group_name_H-M	'P 1'

loop_
_symmetry_equiv_pos_as_xyz
  x,y,z

loop_
_atom_site_label
_atom_site_type_symbol
_atom_site_fract_x
_atom_site_fract_y
_atom_site_fract_z
_atom_site_charge
Eu	Eu	0.62939 0.01716 -0.00000 1.75800
Eu	Eu	0.68346 0.77171 -0.00000 1.44100
Eu	Eu	0.37061 0.98284 -0.00000 1.81300
Eu	Eu	0.31654 0.22829 -0.00000 1.42200
Eu	Eu	0.98284 0.37061 0.50000 2.13600
Eu	Eu	0.22829 0.31654 0.50000 1.71400
Eu	Eu	0.01716 0.62939 0.50000 2.08000
Eu	Eu	0.77171 0.68346 0.50000 1.73400
Si	Si	0.00000 0.00000 0.75000 0.59900
Si	Si	0.00000 0.00000 0.25000 0.58200
Si	Si	0.61619 0.38381 0.25000 0.87900
Si	Si	0.38381 0.61619 0.25000 0.88000
Si	Si	0.38381 0.61619 0.75000 0.90700
Si	Si	0.61619 0.38381 0.75000 0.90700
H 	H 	0.83630 0.08410 0.87010 0.04800
H 	H 	0.85820 0.85420 0.80040 0.02400
H 	H 	0.80000 0.32220 0.36670 0.05300
H 	H 	0.76330 0.83710 0.86750 0.01300
H 	H 	0.70230 0.29410 0.29960 -0.02400
H 	H 	0.73550 0.52710 0.30580 -0.02100
H 	H 	0.93140 0.10280 0.80260 0.03200
H 	H 	0.83030 0.55710 0.37410 0.05800
H 	H 	0.77770 0.63690 0.14010 0.12200
H 	H 	0.75980 0.54040 0.20540 -0.06900
H 	H 	0.51430 0.46030 0.19730 -0.04800
H 	H 	0.53500 0.55700 0.13090 0.13500
H 	H 	0.16370 0.91590 0.87010 0.04300
H 	H 	0.14180 0.14580 0.80040 0.01100
H 	H 	0.20000 0.67780 0.36670 0.05300
H 	H 	0.23670 0.16290 0.86750 0.01700
H 	H 	0.29770 0.70590 0.29960 -0.02100
H 	H 	0.26450 0.47290 0.30580 -0.02100
H 	H 	0.06860 0.89720 0.80260 0.00700
H 	H 	0.16970 0.44290 0.37410 0.05500
H 	H 	0.22230 0.36310 0.14010 0.11700
H 	H 	0.24020 0.45960 0.20540 -0.07200
H 	H 	0.48570 0.53970 0.19730 -0.04800
H 	H 	0.46500 0.44300 0.13090 0.13500
H 	H 	0.91590 0.16370 0.62990 0.01900
H 	H 	0.14580 0.14180 0.69960 0.01400
H 	H 	0.67780 0.20000 0.13330 0.05300
H 	H 	0.16290 0.23670 0.63250 -0.00700
H 	H 	0.70590 0.29770 0.20040 -0.02800
H 	H 	0.47290 0.26450 0.19420 -0.02400
H 	H 	0.89720 0.06860 0.69740 0.00900
H 	H 	0.44290 0.16970 0.12590 0.06200
H 	H 	0.36310 0.22230 0.35990 0.13400
H 	H 	0.45960 0.24020 0.29460 -0.07400
H 	H 	0.53970 0.48570 0.30270 -0.05300
H 	H 	0.44300 0.46500 0.36910 0.14800
H 	H 	0.08410 0.83630 0.62990 0.02400
H 	H 	0.85420 0.85820 0.69960 0.02800
H 	H 	0.32220 0.80000 0.13330 0.05400
H 	H 	0.83710 0.76330 0.63250 -0.01100
H 	H 	0.29410 0.70230 0.20040 -0.03000
H 	H 	0.52710 0.73550 0.19420 -0.02400
H 	H 	0.10280 0.93140 0.69740 0.03400
H 	H 	0.55710 0.83030 0.12590 0.06600
H 	H 	0.63690 0.77770 0.35990 0.13900
H 	H 	0.54040 0.75980 0.29460 -0.07100
H 	H 	0.46030 0.51430 0.30270 -0.05300
H 	H 	0.55700 0.53500 0.36910 0.14800
H 	H 	0.16370 0.91590 0.12990 0.01500
H 	H 	0.14180 0.14580 0.19960 0.01200
H 	H 	0.20000 0.67780 0.63330 0.05600
H 	H 	0.23670 0.16290 0.13250 -0.00200
H 	H 	0.29770 0.70590 0.70040 -0.02400
H 	H 	0.26450 0.47290 0.69420 -0.02300
H 	H 	0.06860 0.89720 0.19740 0.00600
H 	H 	0.16970 0.44290 0.62590 0.05800
H 	H 	0.22230 0.36310 0.85990 0.15800
H 	H 	0.24020 0.45960 0.79460 -0.07700
H 	H 	0.48570 0.53970 0.80270 -0.06000
H 	H 	0.46500 0.44300 0.86910 0.16100
H 	H 	0.83630 0.08410 0.12990 0.02000
H 	H 	0.85820 0.85420 0.19960 0.02500
H 	H 	0.80000 0.32220 0.63330 0.05600
H 	H 	0.76330 0.83710 0.13250 -0.00600
H 	H 	0.70230 0.29410 0.70040 -0.02600
H 	H 	0.73550 0.52710 0.69420 -0.02400
H 	H 	0.93140 0.10280 0.19740 0.03000
H 	H 	0.83030 0.55710 0.62590 0.06100
H 	H 	0.77770 0.63690 0.85990 0.16300
H 	H 	0.75980 0.54040 0.79460 -0.07400
H 	H 	0.51430 0.46030 0.80270 -0.06000
H 	H 	0.53500 0.55700 0.86910 0.16100
H 	H 	0.08410 0.83630 0.37010 0.02200
H 	H 	0.85420 0.85820 0.30040 0.03000
H 	H 	0.32220 0.80000 0.86670 0.07900
H 	H 	0.83710 0.76330 0.36750 -0.01300
H 	H 	0.29410 0.70230 0.79960 -0.03000
H 	H 	0.52710 0.73550 0.80580 -0.03100
H 	H 	0.10280 0.93140 0.30260 0.03600
H 	H 	0.55710 0.83030 0.87410 0.08100
H 	H 	0.63690 0.77770 0.64010 0.14200
H 	H 	0.54040 0.75980 0.70540 -0.07500
H 	H 	0.46030 0.51430 0.69730 -0.05600
H 	H 	0.55700 0.53500 0.63090 0.15000
H 	H 	0.91590 0.16370 0.37010 0.01800
H 	H 	0.14580 0.14180 0.30040 0.01600
H 	H 	0.67780 0.20000 0.86670 0.07900
H 	H 	0.16290 0.23670 0.36750 -0.00900
H 	H 	0.70590 0.29770 0.79960 -0.02800
H 	H 	0.47290 0.26450 0.80580 -0.03100
H 	H 	0.89720 0.06860 0.30260 0.01100
H 	H 	0.44290 0.16970 0.87410 0.07700
H 	H 	0.36310 0.22230 0.64010 0.13700
H 	H 	0.45960 0.24020 0.70540 -0.07800
H 	H 	0.53970 0.48570 0.69730 -0.05600
H 	H 	0.44300 0.46500 0.63090 0.15000
C 	C 	0.88698 0.46102 0.42373 0.54000
C 	C 	0.82622 0.44278 0.37769 -0.10200
C 	C 	0.72987 0.94833 0.92036 0.49500
C 	C 	0.78962 0.95918 0.87541 -0.12000
C 	C 	0.91005 0.98155 0.79472 -0.14800
C 	C 	0.70737 0.40763 0.29530 -0.32000
C 	C 	0.84068 0.03772 0.85610 -0.01800
C 	C 	0.85523 0.90117 0.81462 -0.01200
C 	C 	0.78702 0.36458 0.35481 -0.07000
C 	C 	0.79747 0.89073 0.85453 0.00300
C 	C 	0.72816 0.34784 0.31422 0.10500
C 	C 	0.74774 0.48446 0.31836 0.10900
C 	C 	0.89897 0.04903 0.81590 -0.02200
C 	C 	0.80558 0.50342 0.35925 -0.07200
C 	C 	0.63586 0.47474 0.20378 -0.37600
C 	C 	0.67447 0.66713 0.08621 0.08400
C 	C 	0.66202 0.59798 0.12694 0.19400
C 	C 	0.72380 0.59740 0.14940 -0.32000
C 	C 	0.71220 0.53780 0.18830 0.24400
C 	C 	0.56810 0.49110 0.18340 0.19600
C 	C 	0.57970 0.54950 0.14480 -0.26500
C 	C 	0.11302 0.53898 0.42373 0.54300
C 	C 	0.17378 0.55722 0.37769 -0.10800
C 	C 	0.27013 0.05167 0.92036 0.45100
C 	C 	0.21038 0.04082 0.87541 -0.14100
C 	C 	0.08995 0.01845 0.79472 -0.22300
C 	C 	0.29263 0.59237 0.29530 -0.31900
C 	C 	0.15932 0.96228 0.85610 -0.00100
C 	C 	0.14477 0.09883 0.81462 0.01100
C 	C 	0.21298 0.63542 0.35481 -0.06800
C 	C 	0.20253 0.10927 0.85453 -0.01400
C 	C 	0.27184 0.65216 0.31422 0.10200
C 	C 	0.25226 0.51554 0.31836 0.10500
C 	C 	0.10103 0.95097 0.81590 0.03300
C 	C 	0.19442 0.49658 0.35925 -0.07000
C 	C 	0.36414 0.52526 0.20378 -0.37700
C 	C 	0.32553 0.33287 0.08621 0.08300
C 	C 	0.33798 0.40202 0.12694 0.19200
C 	C 	0.27620 0.40260 0.14940 -0.32000
C 	C 	0.28780 0.46220 0.18830 0.24300
C 	C 	0.43190 0.50890 0.18340 0.19500
C 	C 	0.42030 0.45050 0.14480 -0.26500
C 	C 	0.53898 0.11302 0.07627 0.50500
C 	C 	0.55722 0.17378 0.12231 -0.09200
C 	C 	0.05167 0.27013 0.57964 0.50100
C 	C 	0.04082 0.21038 0.62459 -0.19100
C 	C 	0.01845 0.08995 0.70528 -0.21300
C 	C 	0.59237 0.29263 0.20470 -0.32700
C 	C 	0.96228 0.15932 0.64390 0.02600
C 	C 	0.09883 0.14477 0.68538 -0.01500
C 	C 	0.63542 0.21298 0.14519 -0.08500
C 	C 	0.10927 0.20253 0.64547 0.01200
C 	C 	0.65216 0.27184 0.18578 0.11100
C 	C 	0.51554 0.25226 0.18164 0.11600
C 	C 	0.95097 0.10103 0.68410 0.00800
C 	C 	0.49658 0.19442 0.14075 -0.08800
C 	C 	0.52526 0.36414 0.29622 -0.38300
C 	C 	0.33287 0.32553 0.41379 0.05700
C 	C 	0.40202 0.33798 0.37306 0.22600
C 	C 	0.40260 0.27620 0.35060 -0.34400
C 	C 	0.46220 0.28780 0.31170 0.26300
C 	C 	0.50890 0.43190 0.31660 0.21100
C 	C 	0.45050 0.42030 0.35520 -0.28300
C 	C 	0.46102 0.88698 0.07627 0.50200
C 	C 	0.44278 0.82622 0.12231 -0.08600
C 	C 	0.94833 0.72987 0.57964 0.54500
C 	C 	0.95918 0.78962 0.62459 -0.17000
C 	C 	0.98155 0.91005 0.70528 -0.13800
C 	C 	0.40763 0.70737 0.20470 -0.32900
C 	C 	0.03772 0.84068 0.64390 0.00900
C 	C 	0.90117 0.85523 0.68538 -0.03700
C 	C 	0.36458 0.78702 0.14519 -0.08700
C 	C 	0.89073 0.79747 0.64547 0.02900
C 	C 	0.34784 0.72816 0.18578 0.11400
C 	C 	0.48446 0.74774 0.18164 0.12000
C 	C 	0.04903 0.89897 0.68410 -0.04600
C 	C 	0.50342 0.80558 0.14075 -0.09000
C 	C 	0.47474 0.63586 0.29622 -0.38300
C 	C 	0.66713 0.67447 0.41379 0.05900
C 	C 	0.59798 0.66202 0.37306 0.22700
C 	C 	0.59740 0.72380 0.35060 -0.34400
C 	C 	0.53780 0.71220 0.31170 0.26400
C 	C 	0.49110 0.56810 0.31660 0.21100
C 	C 	0.54950 0.57970 0.35520 -0.28400
C 	C 	0.11302 0.53898 0.57627 0.54200
C 	C 	0.17378 0.55722 0.62231 -0.10200
C 	C 	0.27013 0.05167 0.07964 0.46900
C 	C 	0.21038 0.04082 0.12459 -0.18100
C 	C 	0.08995 0.01845 0.20528 -0.21400
C 	C 	0.29263 0.59237 0.70470 -0.32800
C 	C 	0.15932 0.96228 0.14390 0.01600
C 	C 	0.14477 0.09883 0.18538 -0.01300
C 	C 	0.21298 0.63542 0.64519 -0.07300
C 	C 	0.20253 0.10927 0.14547 -0.00100
C 	C 	0.27184 0.65216 0.68578 0.11300
C 	C 	0.25226 0.51554 0.68164 0.11500
C 	C 	0.10103 0.95097 0.18410 0.00900
C 	C 	0.19442 0.49658 0.64075 -0.07600
C 	C 	0.36414 0.52526 0.79622 -0.39800
C 	C 	0.32553 0.33287 0.91379 0.04600
C 	C 	0.33798 0.40202 0.87306 0.25800
C 	C 	0.27620 0.40260 0.85060 -0.36900
C 	C 	0.28780 0.46220 0.81170 0.28900
C 	C 	0.43190 0.50890 0.81660 0.23200
C 	C 	0.42030 0.45050 0.85520 -0.30300
C 	C 	0.88698 0.46102 0.57627 0.53900
C 	C 	0.82622 0.44278 0.62231 -0.09600
C 	C 	0.72987 0.94833 0.07964 0.51300
C 	C 	0.78962 0.95918 0.12459 -0.16000
C 	C 	0.91005 0.98155 0.20528 -0.14000
C 	C 	0.70737 0.40763 0.70470 -0.33000
C 	C 	0.84068 0.03772 0.14390 -0.00100
C 	C 	0.85523 0.90117 0.18538 -0.03500
C 	C 	0.78702 0.36458 0.64519 -0.07500
C 	C 	0.79747 0.89073 0.14547 0.01700
C 	C 	0.72816 0.34784 0.68578 0.11600
C 	C 	0.74774 0.48446 0.68164 0.11900
C 	C 	0.89897 0.04903 0.18410 -0.04600
C 	C 	0.80558 0.50342 0.64075 -0.07800
C 	C 	0.63586 0.47474 0.79622 -0.39700
C 	C 	0.67447 0.66713 0.91379 0.04800
C 	C 	0.66202 0.59798 0.87306 0.26000
C 	C 	0.72380 0.59740 0.85060 -0.36900
C 	C 	0.71220 0.53780 0.81170 0.29000
C 	C 	0.56810 0.49110 0.81660 0.23200
C 	C 	0.57970 0.54950 0.85520 -0.30300
C 	C 	0.46102 0.88698 0.92373 0.48400
C 	C 	0.44278 0.82622 0.87769 -0.04600
C 	C 	0.94833 0.72987 0.42036 0.54500
C 	C 	0.95918 0.78962 0.37541 -0.17300
C 	C 	0.98155 0.91005 0.29472 -0.13300
C 	C 	0.40763 0.70737 0.79530 -0.34500
C 	C 	0.03772 0.84068 0.35610 0.01100
C 	C 	0.90117 0.85523 0.31462 -0.04300
C 	C 	0.36458 0.78702 0.85481 -0.10500
C 	C 	0.89073 0.79747 0.35453 0.03200
C 	C 	0.34784 0.72816 0.81422 0.14300
C 	C 	0.48446 0.74774 0.81836 0.14600
C 	C 	0.04903 0.89897 0.31590 -0.05100
C 	C 	0.50342 0.80558 0.85925 -0.10800
C 	C 	0.47474 0.63586 0.70378 -0.39400
C 	C 	0.66713 0.67447 0.58621 0.05700
C 	C 	0.59798 0.66202 0.62694 0.23300
C 	C 	0.59740 0.72380 0.64940 -0.35300
C 	C 	0.53780 0.71220 0.68830 0.27300
C 	C 	0.49110 0.56810 0.68340 0.21900
C 	C 	0.54950 0.57970 0.64480 -0.29000
C 	C 	0.53898 0.11302 0.92373 0.48700
C 	C 	0.55722 0.17378 0.87769 -0.05200
C 	C 	0.05167 0.27013 0.42036 0.50100
C 	C 	0.04082 0.21038 0.37541 -0.19400
C 	C 	0.01845 0.08995 0.29472 -0.20800
C 	C 	0.59237 0.29263 0.79530 -0.34400
C 	C 	0.96228 0.15932 0.35610 0.02900
C 	C 	0.09883 0.14477 0.31462 -0.02000
C 	C 	0.63542 0.21298 0.85481 -0.10300
C 	C 	0.10927 0.20253 0.35453 0.01500
C 	C 	0.65216 0.27184 0.81422 0.14000
C 	C 	0.51554 0.25226 0.81836 0.14200
C 	C 	0.95097 0.10103 0.31590 0.00400
C 	C 	0.49658 0.19442 0.85925 -0.10600
C 	C 	0.52526 0.36414 0.70378 -0.39400
C 	C 	0.33287 0.32553 0.58621 0.05500
C 	C 	0.40202 0.33798 0.62694 0.23200
C 	C 	0.40260 0.27620 0.64940 -0.35300
C 	C 	0.46220 0.28780 0.68830 0.27200
C 	C 	0.50890 0.43190 0.68340 0.21800
C 	C 	0.45050 0.42030 0.64480 -0.29000
O 	O 	0.69298 0.87762 0.94159 -0.47000
O 	O 	0.72005 0.00873 0.93410 -0.48700
O 	O 	0.90047 0.40227 0.43929 -0.56900
O 	O 	0.92018 0.53126 0.44250 -0.56800
O 	O 	0.60260 0.66880 0.06400 -0.32500
O 	O 	0.68210 0.64290 0.03870 -0.31000
O 	O 	0.30702 0.12238 0.94159 -0.46400
O 	O 	0.27995 0.99127 0.93410 -0.45500
O 	O 	0.09953 0.59773 0.43929 -0.57000
O 	O 	0.07982 0.46874 0.44250 -0.58900
O 	O 	0.39740 0.33120 0.06400 -0.32400
O 	O 	0.31790 0.35710 0.03870 -0.31100
O 	O 	0.12238 0.30702 0.55841 -0.57300
O 	O 	0.99127 0.27995 0.56590 -0.55200
O 	O 	0.59773 0.09953 0.06071 -0.54700
O 	O 	0.46874 0.07982 0.05750 -0.56300
O 	O 	0.33120 0.39740 0.43600 -0.32100
O 	O 	0.35710 0.31790 0.46130 -0.26800
O 	O 	0.87762 0.69298 0.55841 -0.57900
O 	O 	0.00873 0.72005 0.56590 -0.58300
O 	O 	0.40227 0.90047 0.06071 -0.54600
O 	O 	0.53126 0.92018 0.05750 -0.54300
O 	O 	0.66880 0.60260 0.43600 -0.32200
O 	O 	0.64290 0.68210 0.46130 -0.26700
O 	O 	0.30702 0.12238 0.05841 -0.55200
O 	O 	0.27995 0.99127 0.06590 -0.52900
O 	O 	0.09953 0.59773 0.56071 -0.56900
O 	O 	0.07982 0.46874 0.55750 -0.58800
O 	O 	0.39740 0.33120 0.93600 -0.24800
O 	O 	0.31790 0.35710 0.96130 -0.17200
O 	O 	0.69298 0.87762 0.05841 -0.55700
O 	O 	0.72005 0.00873 0.06590 -0.56100
O 	O 	0.90047 0.40227 0.56071 -0.56800
O 	O 	0.92018 0.53126 0.55750 -0.56700
O 	O 	0.60260 0.66880 0.93600 -0.25000
O 	O 	0.68210 0.64290 0.96130 -0.17100
O 	O 	0.87762 0.69298 0.44159 -0.57900
O 	O 	0.00873 0.72005 0.43410 -0.58400
O 	O 	0.40227 0.90047 0.93929 -0.46600
O 	O 	0.53126 0.92018 0.94250 -0.46200
O 	O 	0.66880 0.60260 0.56400 -0.32200
O 	O 	0.64290 0.68210 0.53870 -0.26600
O 	O 	0.12238 0.30702 0.44159 -0.57400
O 	O 	0.99127 0.27995 0.43410 -0.55200
O 	O 	0.59773 0.09953 0.93929 -0.46700
O 	O 	0.46874 0.07982 0.94250 -0.48300
O 	O 	0.33120 0.39740 0.56400 -0.32000
O 	O 	0.35710 0.31790 0.53870 -0.26800
