data_crystal

_cell_length_a 17.24700
_cell_length_b 17.24700
_cell_length_c 10.83170
_cell_angle_alpha 90.00000
_cell_angle_beta  90.00000
_cell_angle_gamma 90.00000

_symmetry_space_group_name_	'P 1'
_symmetry_space_group_name_H-M	'P 1'

loop_
_symmetry_equiv_pos_as_xyz
  x,y,z

loop_
_atom_site_label
_atom_site_type_symbol
_atom_site_fract_x
_atom_site_fract_y
_atom_site_fract_z
_atom_site_charge
Mo	Mo	0.80836 0.41175 0.05860 1.22100
P 	P 	0.63410 0.33550 0.05350 0.43600
O 	O 	0.70310 0.36950 0.97840 -0.25500
O 	O 	0.65830 0.25960 0.11590 -0.38900
O 	O 	0.56610 0.32600 0.96610 -0.34500
O 	O 	0.60820 0.39650 0.15020 -0.33200
O 	O 	0.75040 0.46460 0.16970 -0.40000
O 	O 	0.89740 0.45750 0.08520 -0.42300
O 	O 	0.82090 0.32460 0.14050 -0.46200
Mo	Mo	0.30836 0.91175 0.55860 1.25600
P 	P 	0.13410 0.83550 0.55350 0.51800
O 	O 	0.20310 0.86950 0.47840 -0.30800
O 	O 	0.15830 0.75960 0.61590 -0.40200
O 	O 	0.06610 0.82600 0.46610 -0.45300
O 	O 	0.10820 0.89650 0.65020 -0.34400
O 	O 	0.25040 0.96460 0.66970 -0.36800
O 	O 	0.39740 0.95750 0.58520 -0.43600
O 	O 	0.32090 0.82460 0.64050 -0.46800
Mo	Mo	0.69164 0.58825 0.55860 1.24600
P 	P 	0.86590 0.66450 0.55350 0.51700
O 	O 	0.79690 0.63050 0.47840 -0.30200
O 	O 	0.84170 0.74040 0.61590 -0.35000
O 	O 	0.93390 0.67400 0.46610 -0.29900
O 	O 	0.89180 0.60350 0.65020 -0.28900
O 	O 	0.74960 0.53540 0.66970 -0.39400
O 	O 	0.60260 0.54250 0.58520 -0.47400
O 	O 	0.67910 0.67540 0.64050 -0.46800
Mo	Mo	0.19164 0.08825 0.05860 1.20700
P 	P 	0.36590 0.16450 0.05350 0.43100
O 	O 	0.29690 0.13050 0.97840 -0.26600
O 	O 	0.34170 0.24040 0.11590 -0.38800
O 	O 	0.43390 0.17400 0.96610 -0.35100
O 	O 	0.39180 0.10350 0.15020 -0.34900
O 	O 	0.24960 0.03540 0.16970 -0.45000
O 	O 	0.10260 0.04250 0.08520 -0.57900
O 	O 	0.17910 0.17540 0.14050 -0.51000
Mo	Mo	0.33825 0.05836 0.30860 1.23100
P 	P 	0.41450 0.88410 0.30350 0.52000
O 	O 	0.38050 0.95310 0.22840 -0.27600
O 	O 	0.49040 0.90830 0.36590 -0.35300
O 	O 	0.42400 0.81610 0.21610 -0.40100
O 	O 	0.35350 0.85820 0.40020 -0.32000
O 	O 	0.28540 0.00040 0.41970 -0.45600
O 	O 	0.29250 0.14740 0.33520 -0.48400
O 	O 	0.42540 0.07090 0.39050 -0.49500
Mo	Mo	0.83825 0.55836 0.80860 1.24700
P 	P 	0.91450 0.38410 0.80350 0.51800
O 	O 	0.88050 0.45310 0.72840 -0.28700
O 	O 	0.99040 0.40830 0.86590 -0.24500
O 	O 	0.92400 0.31610 0.71610 -0.31600
O 	O 	0.85350 0.35820 0.90020 -0.28700
O 	O 	0.78540 0.50040 0.91970 -0.37100
O 	O 	0.79250 0.64740 0.83520 -0.45600
O 	O 	0.92540 0.57090 0.89050 -0.36900
Mo	Mo	0.16175 0.94164 0.80860 1.25700
P 	P 	0.08550 0.11590 0.80350 0.51500
O 	O 	0.11950 0.04690 0.72840 -0.37500
O 	O 	0.00960 0.09170 0.86590 -0.45600
O 	O 	0.07600 0.18390 0.71610 -0.44400
O 	O 	0.14650 0.14180 0.90020 -0.32000
O 	O 	0.21460 0.99960 0.91970 -0.32500
O 	O 	0.20750 0.85260 0.83520 -0.47300
O 	O 	0.07460 0.92910 0.89050 -0.47300
Mo	Mo	0.66175 0.44164 0.30860 1.24500
P 	P 	0.58550 0.61590 0.30350 0.52000
O 	O 	0.61950 0.54690 0.22840 -0.32100
O 	O 	0.50960 0.59170 0.36590 -0.38200
O 	O 	0.57600 0.68390 0.21610 -0.40100
O 	O 	0.64650 0.64180 0.40020 -0.32500
O 	O 	0.71460 0.49960 0.41970 -0.38900
O 	O 	0.70750 0.35260 0.33520 -0.47200
O 	O 	0.57460 0.42910 0.39050 -0.47300
Mo	Mo	0.19164 0.58825 0.94140 1.27000
P 	P 	0.36590 0.66450 0.94650 0.60000
O 	O 	0.29690 0.63050 0.02160 -0.37000
O 	O 	0.34170 0.74040 0.88410 -0.37300
O 	O 	0.43390 0.67400 0.03390 -0.44600
O 	O 	0.39180 0.60350 0.84980 -0.32300
O 	O 	0.24960 0.53540 0.83030 -0.39300
O 	O 	0.10260 0.54250 0.91480 -0.49500
O 	O 	0.17910 0.67540 0.85950 -0.47800
Mo	Mo	0.69164 0.08825 0.44140 1.23500
P 	P 	0.86590 0.16450 0.44650 0.51800
O 	O 	0.79690 0.13050 0.52160 -0.31500
O 	O 	0.84170 0.24040 0.38410 -0.35400
O 	O 	0.93390 0.17400 0.53390 -0.30800
O 	O 	0.89180 0.10350 0.34980 -0.30700
O 	O 	0.74960 0.03540 0.33030 -0.42700
O 	O 	0.60260 0.04250 0.41480 -0.50900
O 	O 	0.67910 0.17540 0.35950 -0.47500
Mo	Mo	0.30836 0.41175 0.44140 1.24500
P 	P 	0.13410 0.33550 0.44650 0.51800
O 	O 	0.20310 0.36950 0.52160 -0.32100
O 	O 	0.15830 0.25960 0.38410 -0.40700
O 	O 	0.06610 0.32600 0.53390 -0.46200
O 	O 	0.10820 0.39650 0.34980 -0.36400
O 	O 	0.25040 0.46460 0.33030 -0.40100
O 	O 	0.39740 0.45750 0.41480 -0.48000
O 	O 	0.32090 0.32460 0.35950 -0.47400
Mo	Mo	0.80836 0.91175 0.94140 1.27800
P 	P 	0.63410 0.83550 0.94650 0.59200
O 	O 	0.70310 0.86950 0.02160 -0.34600
O 	O 	0.65830 0.75960 0.88410 -0.37300
O 	O 	0.56610 0.82600 0.03390 -0.43300
O 	O 	0.60820 0.89650 0.84980 -0.30800
O 	O 	0.75040 0.96460 0.83030 -0.34800
O 	O 	0.89740 0.95750 0.91480 -0.34300
O 	O 	0.82090 0.82460 0.85950 -0.43500
Mo	Mo	0.66175 0.94164 0.69140 1.25800
P 	P 	0.58550 0.11590 0.69650 0.51900
O 	O 	0.61950 0.04690 0.77160 -0.34400
O 	O 	0.50960 0.09170 0.63410 -0.39700
O 	O 	0.57600 0.18390 0.78390 -0.39200
O 	O 	0.64650 0.14180 0.59980 -0.33300
O 	O 	0.71460 0.99960 0.58030 -0.33800
O 	O 	0.70750 0.85260 0.66480 -0.47000
O 	O 	0.57460 0.92910 0.60950 -0.44000
Mo	Mo	0.16175 0.44164 0.19140 1.24300
P 	P 	0.08550 0.61590 0.19650 0.51700
O 	O 	0.11950 0.54690 0.27160 -0.33400
O 	O 	0.00960 0.59170 0.13410 -0.48300
O 	O 	0.07600 0.68390 0.28390 -0.44700
O 	O 	0.14650 0.64180 0.09980 -0.36300
O 	O 	0.21460 0.49960 0.08030 -0.42400
O 	O 	0.20750 0.35260 0.16480 -0.49900
O 	O 	0.07460 0.42910 0.10950 -0.54500
Mo	Mo	0.83825 0.05836 0.19140 1.23200
P 	P 	0.91450 0.88410 0.19650 0.51900
O 	O 	0.88050 0.95310 0.27160 -0.24200
O 	O 	0.99040 0.90830 0.13410 -0.25200
O 	O 	0.92400 0.81610 0.28390 -0.31800
O 	O 	0.85350 0.85820 0.09980 -0.32100
O 	O 	0.78540 0.00040 0.08030 -0.47000
O 	O 	0.79250 0.14740 0.16480 -0.48100
O 	O 	0.92540 0.07090 0.10950 -0.42800
Mo	Mo	0.33825 0.55836 0.69140 1.24500
P 	P 	0.41450 0.38410 0.69650 0.52000
O 	O 	0.38050 0.45310 0.77160 -0.30400
O 	O 	0.49040 0.40830 0.63410 -0.37900
O 	O 	0.42400 0.31610 0.78390 -0.39200
O 	O 	0.35350 0.35820 0.59980 -0.32900
O 	O 	0.28540 0.50040 0.58030 -0.40400
O 	O 	0.29250 0.64740 0.66480 -0.48200
O 	O 	0.42540 0.57090 0.60950 -0.46900
Mn	Mn	0.50000 0.25000 0.87500 1.32900
Mn	Mn	-0.00000 0.75000 0.37500 1.24800
Mn	Mn	0.50000 0.75000 0.12500 1.32400
Mn	Mn	-0.00000 0.25000 0.62500 1.24900
Mn	Mn	0.75000 0.25000 0.25000 1.33400
Mn	Mn	0.75000 0.75000 0.75000 1.33700
Mn	Mn	0.50000 0.00000 0.50000 1.30300
Mn	Mn	-0.00000 0.50000 -0.00000 1.23100
Mn	Mn	-0.00000 0.00000 -0.00000 1.19900
Mn	Mn	0.50000 0.50000 0.50000 1.33400
Mn	Mn	0.25000 0.75000 0.75000 1.33400
Mn	Mn	0.25000 0.25000 0.25000 1.33100
