data_crystal

_cell_length_a 17.58390
_cell_length_b 18.27910
_cell_length_c 18.27910
_cell_angle_alpha 90.00000
_cell_angle_beta  90.00000
_cell_angle_gamma 90.00000

_symmetry_space_group_name_	'P 1'
_symmetry_space_group_name_H-M	'P 1'

loop_
_symmetry_equiv_pos_as_xyz
  x,y,z

loop_
_atom_site_label
_atom_site_type_symbol
_atom_site_fract_x
_atom_site_fract_y
_atom_site_fract_z
_atom_site_charge
Co	Co	0.66529 0.65367 0.06646 1.09600
Co	Co	0.16529 0.34633 0.93354 1.09500
Co	Co	0.41529 0.56646 0.84633 1.09500
Co	Co	0.00000 0.94319 0.94319 1.04900
Co	Co	0.00000 0.34072 0.34072 1.09400
Co	Co	0.08471 0.15367 0.43354 1.08500
Co	Co	0.33471 0.06646 0.65367 1.09500
Co	Co	0.50000 0.05681 0.05681 1.06800
Co	Co	0.50000 0.65928 0.65928 1.11300
Co	Co	0.75000 0.44319 0.55681 1.06900
Co	Co	0.25000 0.15928 0.84072 1.11200
Co	Co	0.91529 0.43354 0.15367 1.10500
Co	Co	0.25000 0.55681 0.44319 1.06500
Co	Co	0.83471 0.93354 0.34633 1.09500
Co	Co	0.75000 0.84072 0.15928 1.11300
Co	Co	0.58471 0.84633 0.56646 1.09400
H 	H 	0.53130 0.15520 0.47640 0.09400
H 	H 	0.46870 0.47640 0.15520 0.09400
H 	H 	0.97390 0.31230 0.66640 0.09900
H 	H 	0.48480 0.06300 0.23790 -0.02100
H 	H 	0.94980 0.32320 0.78710 -0.00300
H 	H 	0.69980 0.28710 0.17680 -0.01700
H 	H 	0.19980 0.71290 0.82320 -0.01800
H 	H 	0.14080 0.27400 0.23720 -0.01500
H 	H 	0.15980 0.38650 0.75690 -0.02100
H 	H 	0.59790 0.32040 0.11570 0.09600
H 	H 	0.84790 0.38430 0.82040 0.10100
H 	H 	0.00190 0.72570 0.53250 -0.09800
H 	H 	0.80020 0.82320 0.71290 -0.01600
H 	H 	0.34790 0.61570 0.17960 0.09500
H 	H 	0.89080 0.73720 0.22600 -0.00700
H 	H 	0.65280 0.96890 0.81670 0.09300
H 	H 	0.24820 0.24250 0.45130 -0.01300
H 	H 	0.35920 0.76280 0.72600 -0.01500
H 	H 	0.25190 0.96750 0.22570 -0.02500
H 	H 	0.47390 0.68770 0.33360 0.08600
H 	H 	0.02610 0.66640 0.31230 0.07300
H 	H 	0.84720 0.18330 0.03110 0.10100
H 	H 	0.51520 0.23790 0.06300 -0.02100
H 	H 	0.03130 0.84480 0.52360 0.05300
H 	H 	0.99810 0.53250 0.72570 0.04000
H 	H 	0.90280 0.68330 0.46890 0.12700
H 	H 	0.49820 0.04870 0.74250 -0.01300
H 	H 	0.34720 0.81670 0.96890 0.09000
H 	H 	0.15210 0.82040 0.38430 0.09100
H 	H 	0.05020 0.78710 0.32320 -0.03000
H 	H 	0.71870 0.34480 0.97640 0.09800
H 	H 	0.22390 0.83360 0.81230 0.08500
H 	H 	0.59020 0.88650 0.74310 -0.03200
H 	H 	0.76520 0.43700 0.73790 -0.02100
H 	H 	0.27610 0.18770 0.16640 0.08500
H 	H 	0.72390 0.16640 0.18770 0.08700
H 	H 	0.39080 0.26280 0.77400 -0.01400
H 	H 	0.09790 0.67960 0.88430 0.09100
H 	H 	0.85920 0.23720 0.27400 -0.01200
H 	H 	0.65210 0.17960 0.61570 0.09600
H 	H 	0.78130 0.02360 0.65520 0.09500
H 	H 	0.84020 0.75690 0.38650 -0.04400
H 	H 	0.44980 0.67680 0.21290 -0.01700
H 	H 	0.15280 0.03110 0.18330 0.08400
H 	H 	0.50190 0.27430 0.46750 -0.02900
H 	H 	0.09720 0.46890 0.68330 0.05900
H 	H 	0.40210 0.11570 0.32040 0.09600
H 	H 	0.23480 0.73790 0.43700 -0.02200
H 	H 	0.55020 0.21290 0.67680 -0.01700
H 	H 	0.40980 0.74310 0.88650 -0.03100
H 	H 	0.30020 0.17680 0.28710 -0.01700
H 	H 	0.10920 0.22600 0.73720 -0.02100
H 	H 	0.90210 0.88430 0.67960 0.10100
H 	H 	0.73480 0.26210 0.56300 -0.02000
H 	H 	0.21870 0.65520 0.02360 0.08700
H 	H 	0.90980 0.25690 0.11350 -0.02300
H 	H 	0.59720 0.53110 0.31670 0.09300
H 	H 	0.74810 0.22570 0.96750 -0.03100
H 	H 	0.25180 0.54870 0.75750 -0.01400
H 	H 	0.00180 0.25750 0.95130 -0.02400
H 	H 	0.34020 0.24310 0.61350 -0.03300
H 	H 	0.75180 0.45130 0.24250 -0.01200
H 	H 	0.24810 0.77430 0.03250 -0.02800
H 	H 	0.60920 0.77400 0.26280 -0.01400
H 	H 	0.77610 0.81230 0.83360 0.08700
H 	H 	0.65980 0.61350 0.24310 -0.03200
H 	H 	0.75190 0.03250 0.77430 -0.02600
H 	H 	0.96870 0.52360 0.84480 0.13400
H 	H 	0.74820 0.75750 0.54870 -0.01200
H 	H 	0.52610 0.33360 0.68770 0.08600
H 	H 	0.49810 0.46750 0.27430 -0.02900
H 	H 	0.50180 0.74250 0.04870 -0.01300
H 	H 	0.01520 0.76210 0.93700 -0.03400
H 	H 	0.40280 0.31670 0.53110 0.09300
H 	H 	0.98480 0.93700 0.76210 -0.00700
H 	H 	0.28130 0.97640 0.34480 0.08800
H 	H 	0.64080 0.72600 0.76280 -0.01300
H 	H 	0.99820 0.95130 0.25750 -0.00100
H 	H 	0.26520 0.56300 0.26210 -0.02200
H 	H 	0.09020 0.11350 0.25690 -0.04000
C 	C 	0.90370 0.89850 0.13340 0.05300
C 	C 	0.58230 0.24760 0.65600 0.12600
C 	C 	0.35830 0.29060 0.80290 0.09000
C 	C 	0.87940 0.77650 0.41440 0.16900
C 	C 	0.19220 0.72110 0.41190 0.09500
C 	C 	0.66790 0.96340 0.76830 -0.21200
C 	C 	0.03950 0.22670 0.93320 0.09400
C 	C 	0.05780 0.77890 0.91190 0.09300
C 	C 	0.69220 0.27890 0.58810 0.09800
C 	C 	0.72460 0.00150 0.74370 0.13900
C 	C 	0.72140 0.93650 0.55080 0.06100
C 	C 	0.27860 0.55080 0.93650 0.06100
C 	C 	0.21050 0.27330 0.43320 0.09700
C 	C 	0.33230 0.15600 0.25240 0.12500
C 	C 	0.89170 0.20940 0.30290 0.09400
C 	C 	0.62400 0.93880 0.11980 0.05500
C 	C 	0.64530 0.05060 0.13490 0.05400
C 	C 	0.43120 0.66180 0.31840 -0.16800
C 	C 	0.78950 0.43320 0.27330 0.09900
C 	C 	0.15370 0.36660 0.39850 0.04600
C 	C 	0.31000 0.37800 0.85930 0.04200
C 	C 	0.50770 0.50500 0.17410 -0.18400
C 	C 	0.87600 0.88020 0.06120 0.06000
C 	C 	0.12940 0.08560 0.27650 0.11900
C 	C 	0.12060 0.41440 0.77650 0.08900
C 	C 	0.87400 0.38020 0.43880 0.06000
C 	C 	0.79520 0.37180 0.05280 0.08000
C 	C 	0.94000 0.12200 0.35930 0.04000
C 	C 	0.11560 0.62930 0.36910 0.05700
C 	C 	0.44000 0.87800 0.64070 0.04200
C 	C 	0.29020 0.44580 0.89600 0.06700
C 	C 	0.85840 0.37950 0.77080 -0.19100
C 	C 	0.96050 0.93320 0.22670 0.10200
C 	C 	0.80780 0.41190 0.72110 0.10100
C 	C 	0.89530 0.36510 0.55060 0.05700
C 	C 	0.95980 0.05420 0.39600 0.10500
C 	C 	0.47140 0.05080 0.56350 0.06000
C 	C 	0.61560 0.37070 0.63090 0.06300
C 	C 	0.85830 0.70940 0.19710 0.09300
C 	C 	0.08230 0.75240 0.34400 0.12000
C 	C 	0.31880 0.16180 0.18160 -0.16700
C 	C 	0.97460 0.75630 0.50150 0.25100
C 	C 	0.86560 0.86910 0.87070 0.06800
C 	C 	0.62600 0.56120 0.61980 0.05700
C 	C 	0.60470 0.44940 0.63490 0.05400
C 	C 	0.45480 0.12820 0.55280 0.07600
C 	C 	0.79020 0.55420 0.10400 0.06900
C 	C 	0.19000 0.14070 0.62200 0.04000
C 	C 	0.46050 0.06680 0.77330 0.09800
C 	C 	0.63440 0.12930 0.13090 0.06300
C 	C 	0.37400 0.61980 0.56120 0.05600
C 	C 	0.53950 0.77330 0.06680 0.09800
C 	C 	0.83210 0.23170 0.03660 -0.21900
C 	C 	0.38440 0.63090 0.37070 0.06200
C 	C 	0.22140 0.06350 0.44920 0.06100
C 	C 	0.77540 0.25630 0.99850 0.15400
C 	C 	0.36560 0.13090 0.12930 0.06200
C 	C 	0.25770 0.67410 0.99500 -0.17400
C 	C 	0.81000 0.62200 0.14070 0.04400
C 	C 	0.94220 0.91190 0.77890 0.10300
C 	C 	0.30780 0.58810 0.27890 0.09800
C 	C 	0.10840 0.72920 0.87950 -0.19600
C 	C 	0.59630 0.86660 0.10150 0.04800
C 	C 	0.60840 0.27080 0.12050 -0.19300
C 	C 	0.40370 0.10150 0.86660 0.04800
C 	C 	0.24230 0.00500 0.32590 -0.17000
C 	C 	0.75770 0.32590 0.00500 -0.19100
C 	C 	0.91770 0.34400 0.75240 0.13200
C 	C 	0.34630 0.60150 0.63340 0.04800
C 	C 	0.47460 0.24370 0.49850 0.14300
C 	C 	0.02540 0.50150 0.75630 0.03500
C 	C 	0.41790 0.26830 0.53660 -0.21500
C 	C 	0.93120 0.33820 0.68160 -0.16600
C 	C 	0.44220 0.08810 0.22110 0.09700
C 	C 	0.35840 0.62050 0.22920 -0.19300
C 	C 	0.12400 0.06120 0.88020 0.05200
C 	C 	0.49230 0.17410 0.50500 -0.18400
C 	C 	0.87060 0.27650 0.08560 0.13600
C 	C 	0.14170 0.19710 0.70940 0.08700
C 	C 	0.37060 0.72350 0.91440 0.12400
C 	C 	0.04020 0.39600 0.05420 0.03000
C 	C 	0.14160 0.77080 0.37950 -0.19500
C 	C 	0.39530 0.63490 0.44940 0.05300
C 	C 	0.20980 0.10400 0.55420 0.06500
C 	C 	0.91790 0.73170 0.46340 -0.28400
C 	C 	0.04520 0.44720 0.87180 0.08300
C 	C 	0.89160 0.87950 0.72920 -0.18900
C 	C 	0.35470 0.13490 0.05060 0.05400
C 	C 	0.55780 0.22110 0.08810 0.09800
C 	C 	0.65370 0.63340 0.60150 0.04900
C 	C 	0.39160 0.12050 0.27080 -0.19200
C 	C 	0.64160 0.22920 0.62050 -0.19200
C 	C 	0.56000 0.64070 0.87800 0.04200
C 	C 	0.20480 0.05280 0.37180 0.06900
C 	C 	0.69000 0.85930 0.37800 0.04200
C 	C 	0.60830 0.69710 0.79060 0.09000
C 	C 	0.71050 0.72670 0.56680 0.09900
C 	C 	0.28950 0.56680 0.72670 0.09800
C 	C 	0.66770 0.25240 0.15600 0.12700
C 	C 	0.95480 0.87180 0.44720 0.06800
C 	C 	0.02860 0.43650 0.94920 0.01700
C 	C 	0.39170 0.79060 0.69710 0.09000
C 	C 	0.10470 0.55060 0.36510 0.05000
C 	C 	0.33210 0.76830 0.96340 -0.20600
C 	C 	0.81880 0.83820 0.81840 -0.16700
C 	C 	0.54520 0.55280 0.12820 0.07600
C 	C 	0.00770 0.49500 0.82590 -0.21600
C 	C 	0.54020 0.60400 0.94580 0.06800
C 	C 	0.52540 0.49850 0.24370 0.14300
C 	C 	0.52860 0.56350 0.05080 0.06000
C 	C 	0.13440 0.87070 0.86910 0.05900
C 	C 	0.99230 0.82590 0.49500 -0.15100
C 	C 	0.45980 0.94580 0.60400 0.06700
C 	C 	0.10830 0.30290 0.20940 0.08600
C 	C 	0.09630 0.13340 0.89850 0.04400
C 	C 	0.56880 0.31840 0.66180 -0.16800
C 	C 	0.18120 0.81840 0.83820 -0.16900
C 	C 	0.27540 0.74370 0.00150 0.13100
C 	C 	0.22460 0.99850 0.25630 0.12400
C 	C 	0.97140 0.94920 0.43650 0.10400
C 	C 	0.16790 0.03660 0.23170 -0.20400
C 	C 	0.70980 0.89600 0.44580 0.06700
C 	C 	0.64170 0.80290 0.29060 0.09000
C 	C 	0.06000 0.35930 0.12200 0.04500
C 	C 	0.62940 0.91440 0.72350 0.12800
C 	C 	0.37940 0.22350 0.58560 0.12900
C 	C 	0.16770 0.74760 0.84400 0.12400
C 	C 	0.70480 0.94720 0.62820 0.07500
C 	C 	0.37600 0.11980 0.93880 0.05600
C 	C 	0.84630 0.39850 0.36660 0.05100
C 	C 	0.68120 0.18160 0.16180 -0.16800
C 	C 	0.29520 0.62820 0.94720 0.07200
C 	C 	0.62060 0.58560 0.22350 0.12900
C 	C 	0.08210 0.46340 0.73170 -0.14500
C 	C 	0.58210 0.53660 0.26830 -0.21500
C 	C 	0.14530 0.94940 0.86510 0.05000
C 	C 	0.41770 0.65600 0.24760 0.12600
C 	C 	0.88440 0.36910 0.62930 0.06800
C 	C 	0.77860 0.44920 0.06350 0.06000
C 	C 	0.74230 0.99500 0.67410 -0.18100
C 	C 	0.12600 0.43880 0.38020 0.05300
C 	C 	0.85470 0.86510 0.94940 0.05900
C 	C 	0.06880 0.68160 0.33820 -0.17000
C 	C 	0.83230 0.84400 0.74760 0.12800
N 	N 	0.15910 0.50530 0.38910 -0.25900
N 	N 	0.07140 0.85130 0.90640 -0.25200
N 	N 	0.39315 0.08750 0.74870 -0.23800
N 	N 	0.90910 0.88910 0.99470 -0.24700
N 	N 	0.10533 0.31268 0.38908 -0.22700
N 	N 	0.87920 0.13760 0.31890 -0.14600
N 	N 	0.09090 0.99470 0.88910 -0.26400
N 	N 	0.10320 0.40680 0.84490 -0.23600
N 	N 	0.84090 0.38910 0.50530 -0.25700
N 	N 	0.22090 0.51440 0.96630 -0.09700
N 	N 	0.98740 0.17820 0.36894 -0.20500
N 	N 	0.35533 0.11092 0.81268 -0.22100
N 	N 	0.22060 0.34580 0.42630 -0.15700
N 	N 	0.02910 0.98560 0.46630 -0.12400
N 	N 	0.17700 0.10814 0.48946 -0.24900
N 	N 	0.67860 0.35130 0.59360 -0.24500
N 	N 	0.57140 0.14870 0.09360 -0.24600
N 	N 	0.29470 0.26420 0.83300 -0.22300
N 	N 	0.69280 0.94360 0.14770 -0.20700
N 	N 	0.89680 0.84490 0.40680 -0.24600
N 	N 	0.30720 0.14770 0.94360 -0.20700
N 	N 	0.05720 0.44360 0.35230 -0.21300
N 	N 	0.60320 0.59320 0.15510 -0.24100
N 	N 	0.19280 0.05640 0.85230 -0.20700
N 	N 	0.37920 0.86240 0.68110 -0.14900
N 	N 	0.73740 0.86894 0.32180 -0.22100
N 	N 	0.39680 0.15510 0.59320 -0.24100
N 	N 	0.85320 0.34490 0.09320 -0.23900
N 	N 	0.57300 0.60814 0.01054 -0.24800
N 	N 	0.80720 0.85230 0.05640 -0.20700
N 	N 	0.17860 0.64870 0.40640 -0.24600
N 	N 	0.97060 0.92630 0.15420 -0.14600
N 	N 	0.95740 0.34110 0.51690 -0.09900
N 	N 	0.14315 0.24870 0.41250 -0.24200
N 	N 	0.65910 0.49470 0.61090 -0.25800
N 	N 	0.70530 0.83300 0.26420 -0.22300
N 	N 	0.40910 0.11090 0.00530 -0.25800
N 	N 	0.35685 0.58750 0.75130 -0.23800
N 	N 	0.42700 0.01054 0.60814 -0.24800
N 	N 	0.82300 0.48946 0.10814 -0.24600
N 	N 	0.70740 0.01690 0.15890 -0.10800
N 	N 	0.12080 0.31890 0.13760 -0.15000
N 	N 	0.94280 0.35230 0.44360 -0.19500
N 	N 	0.55720 0.55640 0.64770 -0.20700
N 	N 	0.45530 0.76420 0.66700 -0.22300
N 	N 	0.82140 0.40640 0.64870 -0.24500
N 	N 	0.62080 0.68110 0.86240 -0.14700
N 	N 	0.92700 0.98946 0.39186 -0.25700
N 	N 	0.52940 0.84580 0.07370 -0.15700
N 	N 	0.77910 0.96630 0.51440 -0.09400
N 	N 	0.77940 0.42630 0.34580 -0.15600
N 	N 	0.64315 0.75130 0.58750 -0.23800
N 	N 	0.97980 0.43940 0.05430 -0.18000
N 	N 	0.52020 0.94570 0.56060 -0.20700
N 	N 	0.48740 0.82180 0.63106 -0.22200
N 	N 	0.39467 0.61092 0.68732 -0.22100
N 	N 	0.02940 0.15420 0.92630 -0.16500
N 	N 	0.64467 0.81268 0.11092 -0.22100
N 	N 	0.45740 0.65890 0.48310 -0.10900
N 	N 	0.54260 0.48310 0.65890 -0.10900
N 	N 	0.85685 0.41250 0.24870 -0.23400
N 	N 	0.47060 0.07370 0.84580 -0.15600
N 	N 	0.64680 0.90680 0.65510 -0.24000
N 	N 	0.42860 0.09360 0.14870 -0.24500
N 	N 	0.20740 0.98310 0.84110 -0.11000
N 	N 	0.62920 0.81890 0.36240 -0.14800
N 	N 	0.51260 0.63106 0.82180 -0.22100
N 	N 	0.47980 0.56060 0.94570 -0.20700
N 	N 	0.29260 0.15890 0.01690 -0.10900
N 	N 	0.72060 0.65420 0.57370 -0.15500
N 	N 	0.95530 0.23580 0.33300 -0.21100
N 	N 	0.14680 0.09320 0.34490 -0.24100
N 	N 	0.85533 0.88908 0.18732 -0.22100
N 	N 	0.01260 0.36894 0.17820 -0.23700
N 	N 	0.44280 0.64770 0.55640 -0.20700
N 	N 	0.67700 0.89186 0.51054 -0.24800
N 	N 	0.20530 0.16700 0.73580 -0.22400
N 	N 	0.34090 0.61090 0.49470 -0.25900
N 	N 	0.37080 0.36240 0.81890 -0.14800
N 	N 	0.72090 0.48560 0.03370 -0.09500
N 	N 	0.32140 0.59360 0.35130 -0.24600
N 	N 	0.89315 0.91250 0.25130 -0.23600
N 	N 	0.76260 0.67820 0.13106 -0.22100
N 	N 	0.22980 0.44570 0.93940 -0.20700
N 	N 	0.27020 0.06060 0.55430 -0.20700
N 	N 	0.54470 0.66700 0.76420 -0.22300
N 	N 	0.77020 0.93940 0.44570 -0.20700
N 	N 	0.79260 0.84110 0.98310 -0.10700
N 	N 	0.72980 0.55430 0.06060 -0.20700
N 	N 	0.52910 0.01440 0.53370 -0.09500
N 	N 	0.12920 0.18110 0.63760 -0.15400
N 	N 	0.02020 0.05430 0.43940 -0.23400
N 	N 	0.97090 0.46630 0.98560 -0.06700
N 	N 	0.32300 0.51054 0.89186 -0.24800
N 	N 	0.89467 0.38908 0.31268 -0.21100
N 	N 	0.60533 0.68732 0.61092 -0.22100
N 	N 	0.27910 0.03370 0.48560 -0.09600
N 	N 	0.07300 0.39186 0.98946 -0.23800
N 	N 	0.47090 0.53370 0.01440 -0.09600
N 	N 	0.27940 0.57370 0.65420 -0.15800
N 	N 	0.26260 0.32180 0.86894 -0.22200
N 	N 	0.60685 0.74870 0.08750 -0.23800
N 	N 	0.79470 0.73580 0.16700 -0.22200
N 	N 	0.10685 0.25130 0.91250 -0.24000
N 	N 	0.14467 0.18732 0.88908 -0.22200
N 	N 	0.87080 0.63760 0.18110 -0.14100
N 	N 	0.59090 0.00530 0.11090 -0.25800
N 	N 	0.92860 0.90640 0.85130 -0.23400
N 	N 	0.23740 0.13106 0.67820 -0.22200
N 	N 	0.35320 0.65510 0.90680 -0.23900
N 	N 	0.04470 0.33300 0.23580 -0.22900
N 	N 	0.04260 0.51690 0.34110 -0.11800
