data_crystal

_cell_length_a 26.21100
_cell_length_b 13.52950
_cell_length_c 6.74810
_cell_angle_alpha 90.00000
_cell_angle_beta  92.29400
_cell_angle_gamma 90.00000

_symmetry_space_group_name_	'P 1'
_symmetry_space_group_name_H-M	'P 1'

loop_
_symmetry_equiv_pos_as_xyz
  x,y,z

loop_
_atom_site_label
_atom_site_type_symbol
_atom_site_fract_x
_atom_site_fract_y
_atom_site_fract_z
_atom_site_charge
Ce	Ce	0.10348 0.19284 0.50963 2.10700
N 	N 	0.29573 0.86900 0.40880 -0.15100
O 	O 	0.31348 0.22089 0.42510 -0.45100
O 	O 	0.37924 0.12650 0.50870 -0.46400
O 	O 	0.13721 0.04084 0.40180 -0.57600
O 	O 	0.14023 0.88475 0.30450 -0.55800
O 	O 	0.01627 0.26100 0.42280 -0.52100
O 	O 	0.04463 0.13920 0.20700 -0.50900
C 	C 	0.16117 0.96420 0.36240 0.49100
C 	C 	0.21857 0.96490 0.38710 -0.21900
C 	C 	0.24475 0.87540 0.38460 0.11800
H 	H 	0.22610 0.81740 0.36540 0.00800
C 	C 	0.32221 0.95320 0.43320 0.08600
H 	H 	0.35750 0.94930 0.45060 0.01400
C 	C 	0.29941 0.04640 0.43380 -0.13600
C 	C 	0.24661 0.05240 0.41090 0.11700
H 	H 	0.23020 0.11330 0.41140 -0.00900
C 	C 	0.33233 0.13720 0.45720 0.32400
Ce	Ce	0.60348 0.69284 0.50963 2.10800
N 	N 	0.79573 0.36900 0.40880 -0.15000
O 	O 	0.81348 0.72089 0.42510 -0.45000
O 	O 	0.87924 0.62650 0.50870 -0.46000
O 	O 	0.63721 0.54084 0.40180 -0.57400
O 	O 	0.64023 0.38475 0.30450 -0.55400
O 	O 	0.51627 0.76100 0.42280 -0.52300
O 	O 	0.54463 0.63920 0.20700 -0.51600
C 	C 	0.66117 0.46420 0.36240 0.49200
C 	C 	0.71857 0.46490 0.38710 -0.21800
C 	C 	0.74475 0.37540 0.38460 0.11800
H 	H 	0.72610 0.31740 0.36540 0.00800
C 	C 	0.82221 0.45320 0.43320 0.08600
H 	H 	0.85750 0.44930 0.45060 0.01600
C 	C 	0.79941 0.54640 0.43380 -0.13500
C 	C 	0.74661 0.55240 0.41090 0.11600
H 	H 	0.73020 0.61330 0.41140 -0.00900
C 	C 	0.83233 0.63720 0.45720 0.32300
Ce	Ce	0.89652 0.19284 0.99037 2.10800
N 	N 	0.70427 0.86900 0.09120 -0.15100
O 	O 	0.68652 0.22089 0.07490 -0.45100
O 	O 	0.62076 0.12650 0.99130 -0.46300
O 	O 	0.86279 0.04084 0.09820 -0.57000
O 	O 	0.85977 0.88475 0.19550 -0.55200
O 	O 	0.98373 0.26100 0.07720 -0.48100
O 	O 	0.95537 0.13920 0.29300 -0.48000
C 	C 	0.83883 0.96420 0.13760 0.48900
C 	C 	0.78143 0.96490 0.11290 -0.21900
C 	C 	0.75525 0.87540 0.11540 0.11800
H 	H 	0.77390 0.81740 0.13460 0.00800
C 	C 	0.67779 0.95320 0.06680 0.08400
H 	H 	0.64250 0.94930 0.04940 0.01400
C 	C 	0.70059 0.04640 0.06620 -0.13400
C 	C 	0.75339 0.05240 0.08910 0.11800
H 	H 	0.76980 0.11330 0.08860 -0.00900
C 	C 	0.66767 0.13720 0.04280 0.32300
Ce	Ce	0.39652 0.69284 0.99037 2.10800
N 	N 	0.20427 0.36900 0.09120 -0.15200
O 	O 	0.18652 0.72089 0.07490 -0.45200
O 	O 	0.12076 0.62650 0.99130 -0.46400
O 	O 	0.36279 0.54084 0.09820 -0.57400
O 	O 	0.35977 0.38475 0.19550 -0.55400
O 	O 	0.48373 0.76100 0.07720 -0.52300
O 	O 	0.45537 0.63920 0.29300 -0.51600
C 	C 	0.33883 0.46420 0.13760 0.49200
C 	C 	0.28143 0.46490 0.11290 -0.21800
C 	C 	0.25525 0.37540 0.11540 0.11800
H 	H 	0.27390 0.31740 0.13460 0.00800
C 	C 	0.17779 0.45320 0.06680 0.08700
H 	H 	0.14250 0.44930 0.04940 0.01100
C 	C 	0.20059 0.54640 0.06620 -0.13700
C 	C 	0.25339 0.55240 0.08910 0.11700
H 	H 	0.26980 0.61330 0.08860 -0.00900
C 	C 	0.16767 0.63720 0.04280 0.32100
Ce	Ce	0.89652 0.80716 0.49037 2.10900
N 	N 	0.70427 0.13100 0.59120 -0.15100
O 	O 	0.68652 0.77911 0.57490 -0.45100
O 	O 	0.62076 0.87350 0.49130 -0.46400
O 	O 	0.86279 0.95916 0.59820 -0.57200
O 	O 	0.85977 0.11525 0.69550 -0.55300
O 	O 	0.98373 0.73900 0.57720 -0.48400
O 	O 	0.95537 0.86080 0.79300 -0.48200
C 	C 	0.83883 0.03580 0.63760 0.49000
C 	C 	0.78143 0.03510 0.61290 -0.21800
C 	C 	0.75525 0.12460 0.61540 0.11800
H 	H 	0.77390 0.18260 0.63460 0.00800
C 	C 	0.67779 0.04680 0.56680 0.08600
H 	H 	0.64250 0.05070 0.54940 0.01400
C 	C 	0.70059 0.95360 0.56620 -0.13600
C 	C 	0.75339 0.94760 0.58910 0.11700
H 	H 	0.76980 0.88670 0.58860 -0.00900
C 	C 	0.66767 0.86280 0.54280 0.32400
Ce	Ce	0.39652 0.30716 0.49037 2.10800
N 	N 	0.20427 0.63100 0.59120 -0.15200
O 	O 	0.18652 0.27911 0.57490 -0.45200
O 	O 	0.12076 0.37350 0.49130 -0.46800
O 	O 	0.36279 0.45916 0.59820 -0.57400
O 	O 	0.35977 0.61525 0.69550 -0.55400
O 	O 	0.48373 0.23900 0.57720 -0.52300
O 	O 	0.45537 0.36080 0.79300 -0.51600
C 	C 	0.33883 0.53580 0.63760 0.49200
C 	C 	0.28143 0.53510 0.61290 -0.21800
C 	C 	0.25525 0.62460 0.61540 0.11900
H 	H 	0.27390 0.68260 0.63460 0.00800
C 	C 	0.17779 0.54680 0.56680 0.08800
H 	H 	0.14250 0.55070 0.54940 0.01100
C 	C 	0.20059 0.45360 0.56620 -0.13800
C 	C 	0.25339 0.44760 0.58910 0.11700
H 	H 	0.26980 0.38670 0.58860 -0.00900
C 	C 	0.16767 0.36280 0.54280 0.32500
Ce	Ce	0.10348 0.80716 0.00963 2.10400
N 	N 	0.29573 0.13100 0.90880 -0.15100
O 	O 	0.31348 0.77911 0.92510 -0.45100
O 	O 	0.37924 0.87350 0.00870 -0.46500
O 	O 	0.13721 0.95916 0.90180 -0.57300
O 	O 	0.14023 0.11525 0.80450 -0.55700
O 	O 	0.01627 0.73900 0.92280 -0.51900
O 	O 	0.04463 0.86080 0.70700 -0.50900
C 	C 	0.16117 0.03580 0.86240 0.49000
C 	C 	0.21857 0.03510 0.88710 -0.21900
C 	C 	0.24475 0.12460 0.88460 0.11900
H 	H 	0.22610 0.18260 0.86540 0.00800
C 	C 	0.32221 0.04680 0.93320 0.08500
H 	H 	0.35750 0.05070 0.95060 0.01400
C 	C 	0.29941 0.95360 0.93380 -0.13500
C 	C 	0.24661 0.94760 0.91090 0.11800
H 	H 	0.23020 0.88670 0.91140 -0.00900
C 	C 	0.33233 0.86280 0.95720 0.32500
Ce	Ce	0.60348 0.30716 0.00963 2.10800
N 	N 	0.79573 0.63100 0.90880 -0.15000
O 	O 	0.81348 0.27911 0.92510 -0.45000
O 	O 	0.87924 0.37350 0.00870 -0.45700
O 	O 	0.63721 0.45916 0.90180 -0.57300
O 	O 	0.64023 0.61525 0.80450 -0.55400
O 	O 	0.51627 0.23900 0.92280 -0.52200
O 	O 	0.54463 0.36080 0.70700 -0.51600
C 	C 	0.66117 0.53580 0.86240 0.49200
C 	C 	0.71857 0.53510 0.88710 -0.21700
C 	C 	0.74475 0.62460 0.88460 0.11800
H 	H 	0.72610 0.68260 0.86540 0.00900
C 	C 	0.82221 0.54680 0.93320 0.08600
H 	H 	0.85750 0.55070 0.95060 0.01600
C 	C 	0.79941 0.45360 0.93380 -0.13400
C 	C 	0.74661 0.44760 0.91090 0.11500
H 	H 	0.73020 0.38670 0.91140 -0.00900
C 	C 	0.83233 0.36280 0.95720 0.32000
S 	S 	0.00000 0.20065 0.25000 0.57500
S 	S 	0.50000 0.70065 0.25000 0.65800
S 	S 	0.00000 0.79935 0.75000 0.57800
S 	S 	0.50000 0.29935 0.75000 0.65800
