data_crystal

_cell_length_a 10.66360
_cell_length_b 13.32530
_cell_length_c 20.08590
_cell_angle_alpha 90.00000
_cell_angle_beta  90.00000
_cell_angle_gamma 90.00000

_symmetry_space_group_name_	'P 1'
_symmetry_space_group_name_H-M	'P 1'

loop_
_symmetry_equiv_pos_as_xyz
  x,y,z

loop_
_atom_site_label
_atom_site_type_symbol
_atom_site_fract_x
_atom_site_fract_y
_atom_site_fract_z
_atom_site_charge
O 	O 	0.65760 0.39170 0.18400 -0.16800
O 	O 	0.76680 0.30530 0.10640 -0.16400
O 	O 	0.86290 0.12660 0.31580 -0.17000
O 	O 	0.76800 0.22080 0.39390 -0.16700
C 	C 	0.79740 0.19920 0.33510 0.30600
C 	C 	0.73130 0.32330 0.16520 0.29600
C 	C 	0.78500 0.25850 0.21970 -0.08300
H 	H 	0.84900 0.21370 0.20940 0.10800
C 	C 	0.74420 0.26330 0.28100 -0.09700
H 	H 	0.68020 0.30810 0.29130 0.11400
O 	O 	0.35400 0.49100 0.05620 0.00700
O 	O 	0.50950 0.38540 0.05400 0.00700
C 	C 	0.01100 0.35600 0.02350 0.24300
O 	O 	0.29770 0.48780 0.07080 -0.02500
O 	O 	0.51360 0.34060 0.07700 -0.03300
O 	O 	0.34240 0.60830 0.18400 -0.16700
O 	O 	0.23320 0.69470 0.10640 -0.16500
O 	O 	0.13710 0.87340 0.31580 -0.17000
O 	O 	0.23200 0.77920 0.39390 -0.16700
C 	C 	0.20260 0.80080 0.33510 0.30600
C 	C 	0.26870 0.67670 0.16520 0.29600
C 	C 	0.21500 0.74150 0.21970 -0.08300
H 	H 	0.15100 0.78630 0.20940 0.10800
C 	C 	0.25580 0.73670 0.28100 -0.09700
H 	H 	0.31980 0.69190 0.29130 0.11400
O 	O 	0.64600 0.50900 0.05620 0.00700
O 	O 	0.49050 0.61460 0.05400 0.00700
C 	C 	0.98900 0.64400 0.02350 0.24800
O 	O 	0.70230 0.51220 0.07080 -0.02400
O 	O 	0.48640 0.65940 0.07700 -0.03200
O 	O 	0.84240 0.89170 0.31600 -0.16500
O 	O 	0.73320 0.80530 0.39360 -0.16300
O 	O 	0.63710 0.62660 0.18420 -0.17100
O 	O 	0.73200 0.72080 0.10610 -0.16700
C 	C 	0.70260 0.69920 0.16490 0.30700
C 	C 	0.76870 0.82330 0.33480 0.29500
C 	C 	0.71500 0.75850 0.28030 -0.08100
H 	H 	0.65100 0.71370 0.29060 0.10800
C 	C 	0.75580 0.76330 0.21900 -0.09700
H 	H 	0.81980 0.80810 0.20870 0.11400
O 	O 	0.14600 0.99100 0.44380 0.00000
O 	O 	0.99050 0.88540 0.44600 0.00500
C 	C 	0.48900 0.85600 0.47650 0.21100
O 	O 	0.20230 0.98780 0.42920 -0.01700
O 	O 	0.98640 0.84060 0.42300 -0.03000
O 	O 	0.15760 0.10830 0.31600 -0.16800
O 	O 	0.26680 0.19470 0.39360 -0.16400
O 	O 	0.36290 0.37340 0.18420 -0.17100
O 	O 	0.26800 0.27920 0.10610 -0.16800
C 	C 	0.29740 0.30080 0.16490 0.30600
C 	C 	0.23130 0.17670 0.33480 0.29600
C 	C 	0.28500 0.24150 0.28030 -0.08300
H 	H 	0.34900 0.28630 0.29060 0.10800
C 	C 	0.24420 0.23670 0.21900 -0.09700
H 	H 	0.18020 0.19190 0.20870 0.11300
O 	O 	0.85400 0.00900 0.44380 0.00100
O 	O 	0.00950 0.11460 0.44600 0.00100
C 	C 	0.51100 0.14400 0.47650 0.21000
O 	O 	0.79770 0.01220 0.42920 -0.02100
O 	O 	0.01360 0.15940 0.42300 -0.03000
O 	O 	0.34240 0.60830 0.81600 -0.16700
O 	O 	0.23320 0.69470 0.89360 -0.17000
O 	O 	0.13710 0.87340 0.68420 -0.17100
O 	O 	0.23200 0.77920 0.60610 -0.16700
C 	C 	0.20260 0.80080 0.66490 0.30600
C 	C 	0.26870 0.67670 0.83480 0.29700
C 	C 	0.21500 0.74150 0.78030 -0.08300
H 	H 	0.15100 0.78630 0.79060 0.10800
C 	C 	0.25580 0.73670 0.71900 -0.09700
H 	H 	0.31980 0.69190 0.70870 0.11300
O 	O 	0.64600 0.50900 0.94380 -0.01000
O 	O 	0.49050 0.61460 0.94600 -0.00500
C 	C 	0.98900 0.64400 0.97650 0.14900
O 	O 	0.70230 0.51220 0.92920 -0.01800
O 	O 	0.48640 0.65940 0.92300 -0.03200
O 	O 	0.65760 0.39170 0.81600 -0.16700
O 	O 	0.76680 0.30530 0.89360 -0.16900
O 	O 	0.86290 0.12660 0.68420 -0.17100
O 	O 	0.76800 0.22080 0.60610 -0.16700
C 	C 	0.79740 0.19920 0.66490 0.30600
C 	C 	0.73130 0.32330 0.83480 0.29700
C 	C 	0.78500 0.25850 0.78030 -0.08300
H 	H 	0.84900 0.21370 0.79060 0.10800
C 	C 	0.74420 0.26330 0.71900 -0.09700
H 	H 	0.68020 0.30810 0.70870 0.11300
O 	O 	0.35400 0.49100 0.94380 -0.00900
O 	O 	0.50950 0.38540 0.94600 -0.00500
C 	C 	0.01100 0.35600 0.97650 0.14400
O 	O 	0.29770 0.48780 0.92920 -0.01900
O 	O 	0.51360 0.34060 0.92300 -0.03200
O 	O 	0.15760 0.10830 0.68400 -0.16900
O 	O 	0.26680 0.19470 0.60640 -0.16400
O 	O 	0.36290 0.37340 0.81580 -0.17200
O 	O 	0.26800 0.27920 0.89390 -0.17400
C 	C 	0.29740 0.30080 0.83510 0.30700
C 	C 	0.23130 0.17670 0.66520 0.29600
C 	C 	0.28500 0.24150 0.71970 -0.08300
H 	H 	0.34900 0.28630 0.70940 0.10800
C 	C 	0.24420 0.23670 0.78100 -0.09800
H 	H 	0.18020 0.19190 0.79130 0.11200
O 	O 	0.85400 0.00900 0.55620 0.00100
O 	O 	0.00950 0.11460 0.55400 0.00100
C 	C 	0.51100 0.14400 0.52350 0.21000
O 	O 	0.79770 0.01220 0.57080 -0.02100
O 	O 	0.01360 0.15940 0.57700 -0.03000
O 	O 	0.84240 0.89170 0.68400 -0.16500
O 	O 	0.73320 0.80530 0.60640 -0.16300
O 	O 	0.63710 0.62660 0.81580 -0.17200
O 	O 	0.73200 0.72080 0.89390 -0.17300
C 	C 	0.70260 0.69920 0.83510 0.30800
C 	C 	0.76870 0.82330 0.66520 0.29500
C 	C 	0.71500 0.75850 0.71970 -0.08100
H 	H 	0.65100 0.71370 0.70940 0.10800
C 	C 	0.75580 0.76330 0.78100 -0.09900
H 	H 	0.81980 0.80810 0.79130 0.11400
O 	O 	0.14600 0.99100 0.55620 0.00000
O 	O 	0.99050 0.88540 0.55400 0.00500
C 	C 	0.48900 0.85600 0.52350 0.21000
O 	O 	0.20230 0.98780 0.57080 -0.01800
O 	O 	0.98640 0.84060 0.57700 -0.03000
U 	U 	0.50000 0.50000 0.13779 0.04200
U 	U 	0.00000 0.00000 0.36221 0.03900
U 	U 	0.50000 0.50000 0.86221 0.04300
U 	U 	-0.00000 0.00000 0.63779 0.03900
U 	U 	0.33732 0.34711 -0.00000 0.05500
U 	U 	0.68772 0.36737 -0.00000 0.05400
O 	O 	0.63270 0.19250 -0.00000 -0.16300
O 	O 	0.42500 0.17840 -0.00000 -0.16700
C 	C 	0.54860 0.03100 -0.00000 -0.09800
H 	H 	0.62920 0.00430 -0.00000 0.11800
C 	C 	0.53280 0.14300 -0.00000 0.31000
O 	O 	0.91190 0.38460 -0.00000 -0.18100
O 	O 	0.11360 0.35890 -0.00000 -0.19000
U 	U 	0.66268 0.65289 -0.00000 0.05500
U 	U 	0.31228 0.63263 -0.00000 0.05400
O 	O 	0.36730 0.80750 -0.00000 -0.16100
O 	O 	0.57500 0.82160 -0.00000 -0.16500
C 	C 	0.45140 0.96900 -0.00000 -0.08300
H 	H 	0.37080 0.99570 -0.00000 0.11500
C 	C 	0.46720 0.85700 -0.00000 0.30600
O 	O 	0.08810 0.61540 -0.00000 -0.18700
O 	O 	0.88640 0.64110 -0.00000 -0.19200
U 	U 	0.16268 0.84711 0.50000 0.04800
U 	U 	0.81228 0.86737 0.50000 0.04800
O 	O 	0.86730 0.69250 0.50000 -0.16700
O 	O 	0.07500 0.67840 0.50000 -0.17200
C 	C 	0.95140 0.53100 0.50000 -0.08800
H 	H 	0.87080 0.50430 0.50000 0.11400
C 	C 	0.96720 0.64300 0.50000 0.30900
O 	O 	0.58810 0.88460 0.50000 -0.20100
O 	O 	0.38640 0.85890 0.50000 -0.20900
U 	U 	0.83732 0.15289 0.50000 0.04900
U 	U 	0.18772 0.13263 0.50000 0.04600
O 	O 	0.13270 0.30750 0.50000 -0.16700
O 	O 	0.92500 0.32160 0.50000 -0.16800
C 	C 	0.04860 0.46900 0.50000 -0.09500
H 	H 	0.12920 0.49570 0.50000 0.11500
C 	C 	0.03280 0.35700 0.50000 0.30500
O 	O 	0.41190 0.11540 0.50000 -0.20300
O 	O 	0.61360 0.14110 0.50000 -0.20900
