data_crystal

_cell_length_a 16.31700
_cell_length_b 13.02000
_cell_length_c 13.59100
_cell_angle_alpha 90.00000
_cell_angle_beta  100.30300
_cell_angle_gamma 90.00000

_symmetry_space_group_name_	'P 1'
_symmetry_space_group_name_H-M	'P 1'

loop_
_symmetry_equiv_pos_as_xyz
  x,y,z

loop_
_atom_site_label
_atom_site_type_symbol
_atom_site_fract_x
_atom_site_fract_y
_atom_site_fract_z
_atom_site_charge
O 	O 	0.05536 0.24280 0.66660 -0.42200
O 	O 	0.13960 0.20130 0.80890 -0.28500
O 	O 	0.36860 0.95640 0.81340 -0.28200
O 	O 	0.41503 0.92570 0.67030 -0.40700
N 	N 	0.21280 0.09410 0.40070 -0.17000
H 	H 	0.23200 0.04380 0.37050 0.12900
C 	C 	0.11940 0.19670 0.71550 0.29000
C 	C 	0.17280 0.13670 0.65890 -0.02900
C 	C 	0.16450 0.14430 0.55390 -0.10700
H 	H 	0.12260 0.18500 0.51820 0.08500
C 	C 	0.21850 0.09130 0.50350 0.12400
C 	C 	0.28240 0.03160 0.55850 -0.11300
H 	H 	0.31950 0.99710 0.52550 0.10200
C 	C 	0.29080 0.02360 0.66300 -0.01600
C 	C 	0.23650 0.07560 0.71180 -0.04300
H 	H 	0.24210 0.07000 0.78100 0.06300
C 	C 	0.36310 0.96360 0.72120 0.28800
C 	C 	0.17560 0.18200 0.34310 -0.22900
H 	H 	0.20570 0.19360 0.28860 0.11300
H 	H 	0.18380 0.24210 0.38590 0.10800
C 	C 	0.08300 0.17360 0.29910 0.28500
C 	C 	0.04210 0.08250 0.27390 -0.37900
H 	H 	0.07000 0.02050 0.28840 0.16600
C 	C 	0.04100 0.26350 0.27410 -0.40200
H 	H 	0.06820 0.32580 0.28980 0.16600
O 	O 	0.55536 0.74280 0.66660 -0.39800
O 	O 	0.63960 0.70130 0.80890 -0.27000
O 	O 	0.86860 0.45640 0.81340 -0.26600
O 	O 	0.91503 0.42570 0.67030 -0.37500
N 	N 	0.71280 0.59410 0.40070 -0.19100
H 	H 	0.73200 0.54380 0.37050 0.13900
C 	C 	0.61940 0.69670 0.71550 0.28600
C 	C 	0.67280 0.63670 0.65890 -0.01300
C 	C 	0.66450 0.64430 0.55390 -0.11700
H 	H 	0.62260 0.68500 0.51820 0.09700
C 	C 	0.71850 0.59130 0.50350 0.14200
C 	C 	0.78240 0.53160 0.55850 -0.12100
H 	H 	0.81950 0.49710 0.52550 0.11200
C 	C 	0.79080 0.52360 0.66300 -0.00100
C 	C 	0.73650 0.57560 0.71180 -0.05000
H 	H 	0.74210 0.57000 0.78100 0.06900
C 	C 	0.86310 0.46360 0.72120 0.28500
C 	C 	0.67560 0.68200 0.34310 -0.10100
H 	H 	0.70570 0.69360 0.28860 0.07800
H 	H 	0.68380 0.74210 0.38590 0.07300
C 	C 	0.58300 0.67360 0.29910 0.06000
C 	C 	0.54210 0.58250 0.27390 -0.06200
H 	H 	0.57000 0.52050 0.28840 0.07100
C 	C 	0.54100 0.76350 0.27410 -0.06300
H 	H 	0.56820 0.82580 0.28980 0.06400
O 	O 	0.94464 0.24280 0.83340 -0.36400
O 	O 	0.86040 0.20130 0.69110 -0.25400
O 	O 	0.63140 0.95640 0.68660 -0.28100
O 	O 	0.58497 0.92570 0.82970 -0.40600
N 	N 	0.78720 0.09410 0.09930 -0.20900
H 	H 	0.76800 0.04380 0.12950 0.14600
C 	C 	0.88060 0.19670 0.78450 0.28200
C 	C 	0.82720 0.13670 0.84110 -0.00400
C 	C 	0.83550 0.14430 0.94610 -0.12100
H 	H 	0.87740 0.18500 0.98180 0.10600
C 	C 	0.78150 0.09130 0.99650 0.14600
C 	C 	0.71760 0.03160 0.94150 -0.12200
H 	H 	0.68050 0.99710 0.97450 0.10500
C 	C 	0.70920 0.02360 0.83700 -0.00600
C 	C 	0.76350 0.07560 0.78820 -0.05200
H 	H 	0.75790 0.07000 0.71900 0.06900
C 	C 	0.63690 0.96360 0.77880 0.28700
C 	C 	0.82440 0.18200 0.15690 0.02400
H 	H 	0.79430 0.19360 0.21140 0.04300
H 	H 	0.81620 0.24210 0.11410 0.03900
C 	C 	0.91700 0.17360 0.20090 -0.16200
C 	C 	0.95790 0.08250 0.22610 0.25300
H 	H 	0.93000 0.02050 0.21160 -0.02400
C 	C 	0.95900 0.26350 0.22590 0.27300
H 	H 	0.93180 0.32580 0.21020 -0.03600
O 	O 	0.44464 0.74280 0.83340 -0.39900
O 	O 	0.36040 0.70130 0.69110 -0.27400
O 	O 	0.13140 0.45640 0.68660 -0.29400
O 	O 	0.08497 0.42570 0.82970 -0.42900
N 	N 	0.28720 0.59410 0.09930 -0.18800
H 	H 	0.26800 0.54380 0.12950 0.13700
C 	C 	0.38060 0.69670 0.78450 0.28700
C 	C 	0.32720 0.63670 0.84110 -0.02100
C 	C 	0.33550 0.64430 0.94610 -0.11100
H 	H 	0.37740 0.68500 0.98180 0.09400
C 	C 	0.28150 0.59130 0.99650 0.12900
C 	C 	0.21760 0.53160 0.94150 -0.11500
H 	H 	0.18050 0.49710 0.97450 0.09600
C 	C 	0.20920 0.52360 0.83700 -0.02100
C 	C 	0.26350 0.57560 0.78820 -0.04500
H 	H 	0.25790 0.57000 0.71900 0.06300
C 	C 	0.13690 0.46360 0.77880 0.28900
C 	C 	0.32440 0.68200 0.15690 -0.10400
H 	H 	0.29430 0.69360 0.21140 0.07800
H 	H 	0.31620 0.74210 0.11410 0.07500
C 	C 	0.41700 0.67360 0.20090 0.06300
C 	C 	0.45790 0.58250 0.22610 -0.06400
H 	H 	0.43000 0.52050 0.21160 0.07200
C 	C 	0.45900 0.76350 0.22590 -0.06600
H 	H 	0.43180 0.82580 0.21020 0.06600
Zn	Zn	-0.00000 0.33665 0.75000 1.21800
Zn	Zn	0.50000 0.83665 0.75000 1.24000
O 	O 	0.94464 0.75720 0.33340 -0.36300
O 	O 	0.86040 0.79870 0.19110 -0.25400
O 	O 	0.63140 0.04360 0.18660 -0.28000
O 	O 	0.58497 0.07430 0.32970 -0.40500
N 	N 	0.78720 0.90590 0.59930 -0.21100
H 	H 	0.76800 0.95620 0.62950 0.14600
C 	C 	0.88060 0.80330 0.28450 0.28100
C 	C 	0.82720 0.86330 0.34110 -0.00200
C 	C 	0.83550 0.85570 0.44610 -0.12300
H 	H 	0.87740 0.81500 0.48180 0.10800
C 	C 	0.78150 0.90870 0.49650 0.15100
C 	C 	0.71760 0.96840 0.44150 -0.12500
H 	H 	0.68050 0.00290 0.47450 0.10700
C 	C 	0.70920 0.97640 0.33700 -0.00400
C 	C 	0.76350 0.92440 0.28820 -0.05400
H 	H 	0.75790 0.93000 0.21900 0.07000
C 	C 	0.63690 0.03640 0.27880 0.28600
C 	C 	0.82440 0.81800 0.65690 0.02500
H 	H 	0.79430 0.80640 0.71140 0.04200
H 	H 	0.81620 0.75790 0.61410 0.03800
C 	C 	0.91700 0.82640 0.70090 -0.16300
C 	C 	0.95790 0.91750 0.72610 0.25300
H 	H 	0.93000 0.97950 0.71160 -0.02400
C 	C 	0.95900 0.73650 0.72590 0.27300
H 	H 	0.93180 0.67420 0.71020 -0.03600
O 	O 	0.44464 0.25720 0.33340 -0.39800
O 	O 	0.36040 0.29870 0.19110 -0.27300
O 	O 	0.13140 0.54360 0.18660 -0.29300
O 	O 	0.08497 0.57430 0.32970 -0.42800
N 	N 	0.28720 0.40590 0.59930 -0.19000
H 	H 	0.26800 0.45620 0.62950 0.13700
C 	C 	0.38060 0.30330 0.28450 0.28700
C 	C 	0.32720 0.36330 0.34110 -0.01900
C 	C 	0.33550 0.35570 0.44610 -0.11400
H 	H 	0.37740 0.31500 0.48180 0.09600
C 	C 	0.28150 0.40870 0.49650 0.13400
C 	C 	0.21760 0.46840 0.44150 -0.11700
H 	H 	0.18050 0.50290 0.47450 0.09800
C 	C 	0.20920 0.47640 0.33700 -0.01900
C 	C 	0.26350 0.42440 0.28820 -0.04600
H 	H 	0.25790 0.43000 0.21900 0.06400
C 	C 	0.13690 0.53640 0.27880 0.28900
C 	C 	0.32440 0.31800 0.65690 -0.10300
H 	H 	0.29430 0.30640 0.71140 0.07800
H 	H 	0.31620 0.25790 0.61410 0.07400
C 	C 	0.41700 0.32640 0.70090 0.06200
C 	C 	0.45790 0.41750 0.72610 -0.06400
H 	H 	0.43000 0.47950 0.71160 0.07200
C 	C 	0.45900 0.23650 0.72590 -0.06600
H 	H 	0.43180 0.17420 0.71020 0.06500
O 	O 	0.05536 0.75720 0.16660 -0.42200
O 	O 	0.13960 0.79870 0.30890 -0.28500
O 	O 	0.36860 0.04360 0.31340 -0.28100
O 	O 	0.41503 0.07430 0.17030 -0.40600
N 	N 	0.21280 0.90590 0.90070 -0.17200
H 	H 	0.23200 0.95620 0.87050 0.12900
C 	C 	0.11940 0.80330 0.21550 0.28900
C 	C 	0.17280 0.86330 0.15890 -0.02700
C 	C 	0.16450 0.85570 0.05390 -0.10900
H 	H 	0.12260 0.81500 0.01820 0.08700
C 	C 	0.21850 0.90870 0.00350 0.12900
C 	C 	0.28240 0.96840 0.05850 -0.11400
H 	H 	0.31950 0.00290 0.02550 0.10300
C 	C 	0.29080 0.97640 0.16300 -0.01500
C 	C 	0.23650 0.92440 0.21180 -0.04400
H 	H 	0.24210 0.93000 0.28100 0.06400
C 	C 	0.36310 0.03640 0.22120 0.28800
C 	C 	0.17560 0.81800 0.84310 -0.22900
H 	H 	0.20570 0.80640 0.78860 0.11300
H 	H 	0.18380 0.75790 0.88590 0.10700
C 	C 	0.08300 0.82640 0.79910 0.28400
C 	C 	0.04210 0.91750 0.77390 -0.38000
H 	H 	0.07000 0.97950 0.78840 0.16600
C 	C 	0.04100 0.73650 0.77410 -0.40200
H 	H 	0.06820 0.67420 0.78980 0.16600
O 	O 	0.55536 0.25720 0.16660 -0.39700
O 	O 	0.63960 0.29870 0.30890 -0.26900
O 	O 	0.86860 0.54360 0.31340 -0.26500
O 	O 	0.91503 0.57430 0.17030 -0.37400
N 	N 	0.71280 0.40590 0.90070 -0.19300
H 	H 	0.73200 0.45620 0.87050 0.13900
C 	C 	0.61940 0.30330 0.21550 0.28500
C 	C 	0.67280 0.36330 0.15890 -0.01100
C 	C 	0.66450 0.35570 0.05390 -0.11800
H 	H 	0.62260 0.31500 0.01820 0.09800
C 	C 	0.71850 0.40870 0.00350 0.14600
C 	C 	0.78240 0.46840 0.05850 -0.12300
H 	H 	0.81950 0.50290 0.02550 0.11300
C 	C 	0.79080 0.47640 0.16300 0.00000
C 	C 	0.73650 0.42440 0.21180 -0.05100
H 	H 	0.74210 0.43000 0.28100 0.07000
C 	C 	0.86310 0.53640 0.22120 0.28400
C 	C 	0.67560 0.31800 0.84310 -0.10100
H 	H 	0.70570 0.30640 0.78860 0.07700
H 	H 	0.68380 0.25790 0.88590 0.07200
C 	C 	0.58300 0.32640 0.79910 0.05900
C 	C 	0.54210 0.41750 0.77390 -0.06200
H 	H 	0.57000 0.47950 0.78840 0.07100
C 	C 	0.54100 0.23650 0.77410 -0.06400
H 	H 	0.56820 0.17420 0.78980 0.06400
Zn	Zn	0.00000 0.66335 0.25000 1.21800
Zn	Zn	0.50000 0.16335 0.25000 1.24000
