data_crystal

_cell_length_a 17.24540
_cell_length_b 17.24540
_cell_length_c 29.80990
_cell_angle_alpha 73.18660
_cell_angle_beta  73.18660
_cell_angle_gamma 60.00000

_symmetry_space_group_name_	'P 1'
_symmetry_space_group_name_H-M	'P 1'

loop_
_symmetry_equiv_pos_as_xyz
  x,y,z

loop_
_atom_site_label
_atom_site_type_symbol
_atom_site_fract_x
_atom_site_fract_y
_atom_site_fract_z
_atom_site_charge
Co	Co	0.75891 0.44105 0.06237 1.15600
Co	Co	0.94105 0.25891 0.56237 1.15600
Co	Co	0.85799 0.04062 0.32321 1.18300
Co	Co	0.85892 0.85892 0.42324 1.16700
Co	Co	0.64108 0.64108 0.07676 1.16700
Co	Co	0.73767 0.75891 0.06237 1.15700
Co	Co	0.14201 0.95938 0.67679 1.18300
Co	Co	0.76233 0.05895 0.43763 1.15700
Co	Co	0.95938 0.22182 0.67679 1.18300
Co	Co	0.22182 0.14201 0.67679 1.18300
Co	Co	0.27818 0.54062 0.82321 1.18300
Co	Co	0.44105 0.73767 0.06237 1.15700
Co	Co	0.55895 0.26233 0.93763 1.15700
Co	Co	0.14108 0.14108 0.57676 1.16700
Co	Co	0.35799 0.27818 0.82321 1.18300
Co	Co	0.24109 0.55895 0.93763 1.15700
Co	Co	0.25891 0.23767 0.56237 1.15700
Co	Co	0.04062 0.77818 0.32321 1.18300
Co	Co	0.35892 0.35892 0.92324 1.16700
Co	Co	0.54062 0.35799 0.82321 1.18300
Co	Co	0.77818 0.85799 0.32321 1.18300
Co	Co	0.45938 0.64201 0.17679 1.18300
Co	Co	0.64201 0.72182 0.17679 1.18300
Co	Co	0.72182 0.45938 0.17679 1.18300
Co	Co	0.23767 0.94105 0.56237 1.15700
Co	Co	0.05895 0.74109 0.43763 1.15700
Co	Co	0.26233 0.24109 0.93763 1.15700
Co	Co	0.74109 0.76233 0.43763 1.15700
H 	H 	0.15270 0.20300 0.10140 0.10100
H 	H 	0.70300 0.65270 0.60140 0.10100
H 	H 	0.44050 0.18250 0.12540 0.10600
H 	H 	0.37780 0.48880 0.88060 0.31700
H 	H 	0.87780 0.75280 0.38060 0.31700
H 	H 	0.95250 0.06110 0.17090 0.09600
H 	H 	0.66640 0.25340 0.72880 0.06100
H 	H 	0.94050 0.75160 0.62540 0.10400
H 	H 	0.56110 0.45250 0.67090 0.09900
H 	H 	0.98950 0.16180 0.97070 0.10800
H 	H 	0.83360 0.14860 0.77120 0.06100
H 	H 	0.01120 0.12220 0.61940 0.31700
H 	H 	0.65270 0.04290 0.60140 0.09800
H 	H 	0.56140 0.52620 0.51400 0.09300
H 	H 	0.97380 0.93860 0.98600 0.09200
H 	H 	0.04560 0.90320 0.53090 0.05100
H 	H 	0.43860 0.47380 0.48600 0.09300
H 	H 	0.51120 0.74720 0.11940 0.31700
H 	H 	0.75160 0.68250 0.62540 0.10600
H 	H 	0.54750 0.68450 0.32910 0.09900
H 	H 	0.06110 0.81550 0.17090 0.09900
H 	H 	0.97470 0.48390 0.15390 0.09200
H 	H 	0.31750 0.05950 0.37460 0.10500
H 	H 	0.04290 0.70300 0.60140 0.09800
H 	H 	0.45710 0.84730 0.89860 0.10100
H 	H 	0.35140 0.66640 0.72880 0.06100
H 	H 	0.02530 0.51610 0.84610 0.09200
H 	H 	0.79700 0.45710 0.89860 0.10100
H 	H 	0.84730 0.79700 0.89860 0.10100
H 	H 	0.03800 0.06510 0.95690 0.12100
H 	H 	0.81750 0.74840 0.87460 0.10700
H 	H 	0.98390 0.47470 0.65390 0.09400
H 	H 	0.66180 0.48950 0.47070 0.10800
H 	H 	0.18450 0.04750 0.82910 0.09900
H 	H 	0.53800 0.44000 0.45690 0.12200
H 	H 	0.62200 0.33820 0.52930 0.10800
H 	H 	0.06000 0.96200 0.04310 0.11900
H 	H 	0.45250 0.31550 0.67090 0.09900
H 	H 	0.42710 0.68240 0.58450 0.08400
H 	H 	0.39840 0.56140 0.51400 0.09300
H 	H 	0.09680 0.47970 0.46910 0.05300
H 	H 	0.18250 0.25160 0.12540 0.10700
H 	H 	0.25340 0.35140 0.72880 0.06100
H 	H 	0.94000 0.03800 0.95690 0.11900
H 	H 	0.30600 0.42710 0.58450 0.08400
H 	H 	0.55950 0.81750 0.87460 0.10600
H 	H 	0.31550 0.56110 0.67090 0.09900
H 	H 	0.16640 0.85140 0.22880 0.06100
H 	H 	0.54510 0.71760 0.94150 0.06500
H 	H 	0.81550 0.95250 0.17090 0.09900
H 	H 	0.68450 0.43890 0.32910 0.09900
H 	H 	0.95440 0.09680 0.46910 0.05100
H 	H 	0.07290 0.19400 0.91550 0.08400
H 	H 	0.52530 0.11250 0.34610 0.09400
H 	H 	0.43490 0.46200 0.54310 0.12200
H 	H 	0.51610 0.61250 0.84610 0.09400
H 	H 	0.70420 0.78240 0.55850 0.06400
H 	H 	0.47970 0.95440 0.46910 0.05200
H 	H 	0.04750 0.93890 0.82910 0.09600
H 	H 	0.54560 0.02030 0.03090 0.05200
H 	H 	0.40320 0.54560 0.03090 0.05300
H 	H 	0.75340 0.16640 0.22880 0.06100
H 	H 	0.88750 0.98390 0.65390 0.09500
H 	H 	0.56510 0.53800 0.45690 0.12200
H 	H 	0.33820 0.51050 0.52930 0.10800
H 	H 	0.45490 0.28240 0.05850 0.06500
H 	H 	0.29700 0.34730 0.39860 0.10100
H 	H 	0.11250 0.01610 0.34610 0.09500
H 	H 	0.47380 0.60160 0.48600 0.09300
H 	H 	0.25160 0.44050 0.12540 0.10700
H 	H 	0.34730 0.95710 0.39860 0.09800
H 	H 	0.74660 0.64860 0.27120 0.06100
H 	H 	0.61530 0.01760 0.65540 0.11400
H 	H 	0.60160 0.43860 0.48600 0.09300
H 	H 	0.19400 0.81760 0.91550 0.08400
H 	H 	0.37800 0.66180 0.47070 0.10800
H 	H 	0.68250 0.94050 0.62540 0.10500
H 	H 	0.29580 0.21760 0.44150 0.06400
H 	H 	0.16180 0.87800 0.97070 0.10700
H 	H 	0.87800 0.98950 0.97070 0.10700
H 	H 	0.38750 0.97470 0.15390 0.09100
H 	H 	0.74720 0.62220 0.11940 0.31700
H 	H 	0.93860 0.10160 0.98600 0.09200
H 	H 	0.02620 0.06140 0.01400 0.09200
H 	H 	0.06510 0.94000 0.95690 0.12000
H 	H 	0.47470 0.88750 0.65390 0.09400
H 	H 	0.38470 0.98240 0.34460 0.11400
H 	H 	0.28830 0.38470 0.34460 0.11600
H 	H 	0.12220 0.24720 0.61940 0.31700
H 	H 	0.89840 0.02620 0.01400 0.09200
H 	H 	0.75280 0.98880 0.38060 0.31700
H 	H 	0.57290 0.31760 0.41550 0.08400
H 	H 	0.81760 0.07290 0.91550 0.08500
H 	H 	0.01760 0.71170 0.65540 0.11300
H 	H 	0.01610 0.52530 0.34610 0.09400
H 	H 	0.05950 0.24840 0.37460 0.10400
H 	H 	0.54290 0.15270 0.10140 0.10100
H 	H 	0.20300 0.54290 0.10140 0.10100
H 	H 	0.93890 0.18450 0.82910 0.09900
H 	H 	0.48880 0.25280 0.88060 0.31700
H 	H 	0.20420 0.45490 0.05850 0.06400
H 	H 	0.25280 0.37780 0.88060 0.31700
H 	H 	0.04510 0.29580 0.44150 0.06500
H 	H 	0.46200 0.56000 0.54310 0.12200
H 	H 	0.11530 0.21170 0.15540 0.11700
H 	H 	0.21170 0.51760 0.15540 0.11600
H 	H 	0.51760 0.11530 0.15540 0.11600
H 	H 	0.56000 0.43490 0.54310 0.12200
H 	H 	0.62220 0.51120 0.11940 0.31700
H 	H 	0.79580 0.54510 0.94150 0.06400
H 	H 	0.78830 0.48240 0.84460 0.11600
H 	H 	0.18240 0.92710 0.08450 0.08500
H 	H 	0.14860 0.24660 0.77120 0.06100
H 	H 	0.83820 0.12200 0.02930 0.10700
H 	H 	0.10160 0.97380 0.98600 0.09200
H 	H 	0.21760 0.04510 0.44150 0.06500
H 	H 	0.45440 0.97970 0.96910 0.05200
H 	H 	0.12200 0.01050 0.02930 0.10700
H 	H 	0.85140 0.75340 0.22880 0.06100
H 	H 	0.28240 0.20420 0.05850 0.06400
H 	H 	0.88470 0.78830 0.84460 0.11700
H 	H 	0.90320 0.52030 0.53090 0.05300
H 	H 	0.06140 0.89840 0.01400 0.09200
H 	H 	0.24720 0.01120 0.61940 0.31700
H 	H 	0.97970 0.59680 0.96910 0.05200
H 	H 	0.24840 0.31750 0.37460 0.10600
H 	H 	0.71760 0.79580 0.94150 0.06400
H 	H 	0.51050 0.62200 0.52930 0.10800
H 	H 	0.02030 0.40320 0.03090 0.05200
H 	H 	0.31760 0.69400 0.41550 0.08400
H 	H 	0.69400 0.57290 0.41550 0.08400
H 	H 	0.61250 0.02530 0.84610 0.09100
H 	H 	0.48240 0.88470 0.84460 0.11600
H 	H 	0.43890 0.54750 0.32910 0.09900
H 	H 	0.98240 0.28830 0.34460 0.11300
H 	H 	0.95490 0.70420 0.55850 0.06500
H 	H 	0.52030 0.04560 0.53090 0.05200
H 	H 	0.59680 0.45440 0.96910 0.05300
H 	H 	0.80600 0.18240 0.08450 0.08400
H 	H 	0.74840 0.55950 0.87460 0.10700
H 	H 	0.48390 0.38750 0.15390 0.09400
H 	H 	0.24660 0.83360 0.77120 0.06100
H 	H 	0.52620 0.39840 0.51400 0.09300
H 	H 	0.92710 0.80600 0.08450 0.08400
H 	H 	0.48950 0.37800 0.47070 0.10800
H 	H 	0.64860 0.33360 0.27120 0.06100
H 	H 	0.93490 0.06000 0.04310 0.12000
H 	H 	0.98880 0.87780 0.38060 0.31700
H 	H 	0.33360 0.74660 0.27120 0.06100
H 	H 	0.78240 0.95490 0.55850 0.06500
H 	H 	0.95710 0.29700 0.39860 0.09800
H 	H 	0.01050 0.83820 0.02930 0.10800
H 	H 	0.71170 0.61530 0.65540 0.11600
H 	H 	0.68240 0.30600 0.58450 0.08400
H 	H 	0.96200 0.93490 0.04310 0.12100
H 	H 	0.44000 0.56510 0.45690 0.12200
C 	C 	0.43795 0.68475 0.37875 0.16600
C 	C 	0.89499 0.96889 0.62483 -0.10200
C 	C 	0.50042 0.83292 0.86974 -0.21600
C 	C 	0.90041 0.67821 0.49007 0.36000
C 	C 	0.69933 0.56523 0.38481 -0.11600
C 	C 	0.19773 0.98673 0.83321 -0.11300
C 	C 	0.93131 0.90041 0.49007 0.36100
C 	C 	0.53111 0.60501 0.87517 -0.10200
C 	C 	0.44308 0.73128 0.29286 -0.03700
C 	C 	0.66871 0.85071 0.93247 -0.10500
C 	C 	0.68475 0.49855 0.37875 0.16600
C 	C 	0.26871 0.48121 0.75457 0.33700
C 	C 	0.98923 0.92133 0.55091 -0.00900
C 	C 	0.98871 0.53111 0.87517 -0.09700
C 	C 	0.49551 0.26871 0.75457 0.33700
C 	C 	0.17821 0.40041 0.99007 0.36000
C 	C 	0.51129 0.89499 0.62483 -0.10200
C 	C 	0.06869 0.09959 0.50993 0.36100
C 	C 	0.97839 0.94309 0.59483 -0.04700
C 	C 	0.70308 0.66708 0.63026 -0.21600
C 	C 	0.44089 0.10479 0.89173 0.34100
C 	C 	0.81525 0.06205 0.12125 0.16600
C 	C 	0.50145 0.56205 0.62125 0.16600
C 	C 	0.18475 0.93795 0.87875 0.16600
C 	C 	0.57867 0.51077 0.94909 -0.01100
C 	C 	0.32179 0.06869 0.50993 0.36100
C 	C 	0.64929 0.83129 0.56753 -0.10600
C 	C 	0.51913 0.56053 0.53851 -0.27000
C 	C 	0.76871 0.99551 0.25457 0.33700
C 	C 	0.83292 0.79692 0.86974 -0.21700
C 	C 	0.62227 0.31007 0.34539 -0.02500
C 	C 	0.01327 0.01767 0.16679 -0.10700
C 	C 	0.55911 0.89521 0.10827 0.34100
C 	C 	0.43477 0.64937 0.61519 -0.11600
C 	C 	0.06053 0.01913 0.03851 -0.26300
C 	C 	0.14929 0.45189 0.06753 -0.10500
C 	C 	0.76096 0.14376 0.20162 -0.02300
C 	C 	0.23904 0.85624 0.79838 -0.02300
C 	C 	0.93947 0.98087 0.96149 -0.26300
C 	C 	0.10634 0.23904 0.79838 -0.02300
C 	C 	0.72227 0.62227 0.34539 -0.02500
C 	C 	0.51879 0.50449 0.24543 0.33700
C 	C 	0.61817 0.48087 0.46149 -0.27000
C 	C 	0.85063 0.06523 0.88481 -0.11700
C 	C 	0.55692 0.26872 0.70714 -0.03700
C 	C 	0.68821 0.20861 0.35427 0.33900
C 	C 	0.48087 0.43947 0.46149 -0.27000
C 	C 	0.05692 0.96722 0.20714 -0.04100
C 	C 	0.85071 0.54811 0.93247 -0.10500
C 	C 	0.07335 0.37965 0.46295 -0.07100
C 	C 	0.75109 0.29139 0.14573 0.33900
C 	C 	0.49958 0.16708 0.13026 -0.21600
C 	C 	0.09959 0.32179 0.50993 0.36000
C 	C 	0.33129 0.14929 0.06753 -0.10500
C 	C 	0.23128 0.94308 0.79286 -0.03700
C 	C 	0.01913 0.88183 0.03851 -0.26800
C 	C 	0.25109 0.31179 0.64573 0.33900
C 	C 	0.90520 0.52760 0.88870 0.14400
C 	C 	0.55691 0.52161 0.90517 -0.04800
C 	C 	0.58405 0.87965 0.96295 -0.07200
C 	C 	0.30227 0.51767 0.66679 -0.11300
C 	C 	0.81179 0.75109 0.14573 0.33900
C 	C 	0.88183 0.06053 0.03851 -0.26700
C 	C 	0.24891 0.70861 0.85427 0.33900
C 	C 	0.96722 0.76872 0.20714 -0.03700
C 	C 	0.93795 0.99855 0.87875 0.16600
C 	C 	0.16708 0.20308 0.13026 -0.21700
C 	C 	0.48673 0.69773 0.33321 -0.11300
C 	C 	0.11817 0.93947 0.96149 -0.26700
C 	C 	0.44309 0.47839 0.09483 -0.04800
C 	C 	0.87773 0.77773 0.15461 -0.02500
C 	C 	0.80067 0.14937 0.11519 -0.11600
C 	C 	0.64376 0.26096 0.70162 -0.02300
C 	C 	0.06523 0.19933 0.88481 -0.11600
C 	C 	0.98121 0.76871 0.25457 0.33600
C 	C 	0.01879 0.23129 0.74543 0.33600
C 	C 	0.10501 0.03111 0.37517 -0.10200
C 	C 	0.60479 0.94089 0.39173 0.34000
C 	C 	0.08405 0.07335 0.46295 -0.07200
C 	C 	0.14937 0.93477 0.11519 -0.11700
C 	C 	0.94089 0.06259 0.39173 0.33900
C 	C 	0.18993 0.87773 0.15461 -0.02500
C 	C 	0.50449 0.73129 0.24543 0.33700
C 	C 	0.73129 0.51879 0.24543 0.33700
C 	C 	0.33292 0.00042 0.36974 -0.21000
C 	C 	0.46147 0.01077 0.44909 -0.01000
C 	C 	0.27773 0.37773 0.65461 -0.02500
C 	C 	0.48233 0.48673 0.33321 -0.11300
C 	C 	0.94309 0.48369 0.59483 -0.04800
C 	C 	0.73128 0.53278 0.29286 -0.03700
C 	C 	0.12227 0.22227 0.84539 -0.02500
C 	C 	0.96889 0.51129 0.62483 -0.10200
C 	C 	0.81007 0.12227 0.84539 -0.02500
C 	C 	0.56869 0.82179 0.00993 0.36000
C 	C 	0.68993 0.27773 0.65461 -0.02500
C 	C 	0.59480 0.82150 0.61130 0.14600
C 	C 	0.57335 0.58405 0.96295 -0.07100
C 	C 	0.48369 0.97839 0.59483 -0.04800
C 	C 	0.14376 0.89366 0.20162 -0.02100
C 	C 	0.42665 0.41595 0.03705 -0.07100
C 	C 	0.56205 0.31525 0.62125 0.16600
C 	C 	0.00145 0.81525 0.12125 0.16600
C 	C 	0.37773 0.68993 0.65461 -0.02500
C 	C 	0.46722 0.55692 0.70714 -0.03700
C 	C 	0.37965 0.08405 0.46295 -0.07200
C 	C 	0.19933 0.85063 0.88481 -0.11600
C 	C 	0.40520 0.17850 0.38870 0.14600
C 	C 	0.32150 0.09480 0.11130 0.14400
C 	C 	0.01767 0.80227 0.16679 -0.11400
C 	C 	0.87965 0.57335 0.96295 -0.07200
C 	C 	0.82150 0.97240 0.61130 0.14700
C 	C 	0.10479 0.56259 0.89173 0.34100
C 	C 	0.97240 0.59480 0.61130 0.14700
C 	C 	0.01631 0.55691 0.90517 -0.05200
C 	C 	0.51631 0.02161 0.40517 -0.04800
C 	C 	0.39499 0.01129 0.12483 -0.09600
C 	C 	0.06205 0.00145 0.12125 0.16600
C 	C 	0.67850 0.90520 0.88870 0.14400
C 	C 	0.64937 0.30067 0.61519 -0.11600
C 	C 	0.93477 0.80067 0.11519 -0.11600
C 	C 	0.98087 0.11817 0.96149 -0.26800
C 	C 	0.05911 0.93741 0.60827 0.33900
C 	C 	0.40041 0.43131 0.99007 0.36000
C 	C 	0.82179 0.59959 0.00993 0.36000
C 	C 	0.99855 0.18475 0.87875 0.16600
C 	C 	0.60634 0.35624 0.29838 -0.02300
C 	C 	0.79139 0.25109 0.64573 0.33900
C 	C 	0.12035 0.42665 0.03705 -0.07200
C 	C 	0.69773 0.48233 0.33321 -0.11300
C 	C 	0.54811 0.66871 0.93247 -0.10700
C 	C 	0.94308 0.03278 0.79286 -0.04100
C 	C 	0.03278 0.23128 0.79286 -0.03700
C 	C 	0.70861 0.18821 0.85427 0.33900
C 	C 	0.31525 0.50145 0.62125 0.16600
C 	C 	0.48121 0.49551 0.75457 0.33700
C 	C 	0.96147 0.57867 0.94909 -0.00700
C 	C 	0.31179 0.79139 0.64573 0.33900
C 	C 	0.92665 0.62035 0.53705 -0.07100
C 	C 	0.92133 0.53853 0.55091 -0.01100
C 	C 	0.35071 0.16871 0.43247 -0.10600
C 	C 	0.04811 0.35071 0.43247 -0.10700
C 	C 	0.49855 0.43795 0.37875 0.16600
C 	C 	0.39521 0.05911 0.60827 0.34000
C 	C 	0.22227 0.81007 0.84539 -0.02500
C 	C 	0.16871 0.04811 0.43247 -0.10600
C 	C 	0.60501 0.98871 0.87517 -0.09600
C 	C 	0.80227 0.01327 0.16679 -0.11300
C 	C 	0.77773 0.18993 0.15461 -0.02500
C 	C 	0.53278 0.44308 0.29286 -0.03700
C 	C 	0.01129 0.46889 0.12483 -0.09700
C 	C 	0.43131 0.17821 0.99007 0.36000
C 	C 	0.07867 0.46147 0.44909 -0.01100
C 	C 	0.20861 0.74891 0.35427 0.33900
C 	C 	0.43741 0.55911 0.10827 0.34000
C 	C 	0.62035 0.91595 0.53705 -0.07200
C 	C 	0.59959 0.56869 0.00993 0.36000
C 	C 	0.66708 0.99958 0.63026 -0.21000
C 	C 	0.76872 0.05692 0.20714 -0.03700
C 	C 	0.05691 0.51631 0.40517 -0.04800
C 	C 	0.29692 0.33292 0.36974 -0.21600
C 	C 	0.01077 0.07867 0.44909 -0.00900
C 	C 	0.89521 0.43741 0.10827 0.34100
C 	C 	0.83129 0.95189 0.56753 -0.10600
C 	C 	0.51077 0.96147 0.94909 -0.00700
C 	C 	0.51327 0.30227 0.66679 -0.11300
C 	C 	0.48871 0.10501 0.37517 -0.10200
C 	C 	0.02760 0.40520 0.38870 0.14700
C 	C 	0.06259 0.60479 0.39173 0.34000
C 	C 	0.41595 0.12035 0.03705 -0.07200
C 	C 	0.48923 0.03853 0.05091 -0.00700
C 	C 	0.73904 0.60634 0.29838 -0.02300
C 	C 	0.18821 0.24891 0.85427 0.33900
C 	C 	0.09480 0.47240 0.11130 0.14400
C 	C 	0.98369 0.44309 0.09483 -0.05200
C 	C 	0.30067 0.43477 0.61519 -0.11600
C 	C 	0.26096 0.39366 0.70162 -0.02300
C 	C 	0.67821 0.93131 0.49007 0.36100
C 	C 	0.03111 0.48871 0.37517 -0.10200
C 	C 	0.93741 0.39521 0.60827 0.34000
C 	C 	0.79692 0.50042 0.86974 -0.21600
C 	C 	0.56259 0.44089 0.89173 0.34000
C 	C 	0.00042 0.29692 0.36974 -0.20800
C 	C 	0.46889 0.39499 0.12483 -0.10200
C 	C 	0.43947 0.61817 0.46149 -0.27000
C 	C 	0.74891 0.68821 0.35427 0.33900
C 	C 	0.99958 0.70308 0.63026 -0.20800
C 	C 	0.35063 0.69933 0.38481 -0.11600
C 	C 	0.47240 0.32150 0.11130 0.14700
C 	C 	0.42133 0.48923 0.05091 -0.01100
C 	C 	0.17850 0.02760 0.38870 0.14700
C 	C 	0.23129 0.00449 0.74543 0.33700
C 	C 	0.52161 0.01631 0.90517 -0.05200
C 	C 	0.56053 0.38183 0.53851 -0.27000
C 	C 	0.26872 0.46722 0.70714 -0.03700
C 	C 	0.35624 0.73904 0.29838 -0.02300
C 	C 	0.03853 0.42133 0.05091 -0.00700
C 	C 	0.98673 0.98233 0.83321 -0.10700
C 	C 	0.85624 0.10634 0.79838 -0.02100
C 	C 	0.53853 0.98923 0.55091 -0.01000
C 	C 	0.91595 0.92665 0.53705 -0.07200
C 	C 	0.39366 0.64376 0.70162 -0.02300
C 	C 	0.38183 0.51913 0.53851 -0.27000
C 	C 	0.02161 0.05691 0.40517 -0.04700
C 	C 	0.31007 0.72227 0.34539 -0.02500
C 	C 	0.45189 0.33129 0.06753 -0.10700
C 	C 	0.51767 0.51327 0.66679 -0.11300
C 	C 	0.99551 0.98121 0.25457 0.33900
C 	C 	0.52760 0.67850 0.88870 0.14700
C 	C 	0.20308 0.49958 0.13026 -0.21600
C 	C 	0.29139 0.81179 0.14573 0.33900
C 	C 	0.00449 0.01879 0.74543 0.33900
C 	C 	0.95189 0.64929 0.56753 -0.10700
C 	C 	0.56523 0.35063 0.38481 -0.11600
C 	C 	0.89366 0.76096 0.20162 -0.02300
C 	C 	0.98233 0.19773 0.83321 -0.11400
C 	C 	0.47839 0.98369 0.09483 -0.05200
O 	O 	0.34062 0.04553 0.64451 -0.43300
O 	O 	0.66870 0.17623 0.89666 -0.43000
O 	O 	0.46934 0.54553 0.14451 -0.43300
O 	O 	0.08325 0.20834 0.71120 -0.46600
O 	O 	0.97940 0.94550 0.91790 -0.17200
O 	O 	0.83130 0.24159 0.60334 -0.43000
O 	O 	0.24621 0.67645 0.82187 -0.39700
O 	O 	0.58325 0.49721 0.21120 -0.46600
O 	O 	0.61964 0.74114 0.64298 -0.16600
O 	O 	0.70090 0.66949 0.11586 -0.85600
O 	O 	0.48625 0.29910 0.88414 -0.85600
O 	O 	0.49721 0.70834 0.21120 -0.46600
O 	O 	0.65720 0.44550 0.41790 -0.17200
O 	O 	0.56137 0.43260 0.75814 -0.38400
O 	O 	0.03066 0.65938 0.35549 -0.43300
O 	O 	0.04553 0.96934 0.64451 -0.43300
O 	O 	0.01171 0.85047 0.47300 -0.43600
O 	O 	0.86197 0.92786 0.47117 -0.52300
O 	O 	0.11866 0.59798 0.91849 -0.43600
O 	O 	0.40202 0.63513 0.08151 -0.43600
O 	O 	0.66949 0.51375 0.11586 -0.85600
O 	O 	0.74621 0.75547 0.32187 -0.39700
O 	O 	0.96934 0.34062 0.64451 -0.43300
O 	O 	0.17623 0.25841 0.89666 -0.43000
O 	O 	0.45447 0.15938 0.85549 -0.43300
O 	O 	0.74789 0.93260 0.25814 -0.38400
O 	O 	0.13513 0.90202 0.58151 -0.43600
O 	O 	0.75379 0.32355 0.17813 -0.39700
O 	O 	0.33051 0.48625 0.88414 -0.85600
O 	O 	0.86487 0.09798 0.41849 -0.43600
O 	O 	0.29166 0.41675 0.78880 -0.46600
O 	O 	0.20834 0.99721 0.71120 -0.46600
O 	O 	0.15938 0.53066 0.85549 -0.43300
O 	O 	0.25379 0.24453 0.67813 -0.39700
O 	O 	0.23900 0.42786 0.97117 -0.52300
O 	O 	0.93260 0.06137 0.25814 -0.38500
O 	O 	0.79910 0.98625 0.38414 -0.85600
O 	O 	0.82377 0.74159 0.10334 -0.43000
O 	O 	0.36487 0.11866 0.91849 -0.43600
O 	O 	0.84062 0.46934 0.14451 -0.43300
O 	O 	0.24114 0.11964 0.14298 -0.16500
O 	O 	0.16949 0.20090 0.61586 -0.85600
O 	O 	0.02060 0.05450 0.08210 -0.17200
O 	O 	0.36197 0.23900 0.97117 -0.52300
O 	O 	0.52060 0.34280 0.58210 -0.17200
O 	O 	0.75886 0.88036 0.85702 -0.16500
O 	O 	0.99624 0.61964 0.64298 -0.16700
O 	O 	0.06740 0.93863 0.74186 -0.38500
O 	O 	0.05450 0.84280 0.08210 -0.17200
O 	O 	0.53066 0.45447 0.85549 -0.43300
O 	O 	0.74453 0.75379 0.17813 -0.39700
O 	O 	0.07214 0.26100 0.52883 -0.52300
O 	O 	0.79166 0.00279 0.28880 -0.46600
O 	O 	0.20090 0.01375 0.61586 -0.85600
O 	O 	0.55450 0.52060 0.58210 -0.17200
O 	O 	0.34280 0.55450 0.58210 -0.17200
O 	O 	0.75547 0.17645 0.32187 -0.39700
O 	O 	0.25547 0.24621 0.82187 -0.39700
O 	O 	0.64953 0.48829 0.02700 -0.43500
O 	O 	0.82355 0.25379 0.67813 -0.39700
O 	O 	0.47940 0.65720 0.41790 -0.17200
O 	O 	0.63513 0.88134 0.08151 -0.43600
O 	O 	0.50376 0.75886 0.85702 -0.16600
O 	O 	0.59798 0.36487 0.91849 -0.43600
O 	O 	0.01375 0.16949 0.61586 -0.85600
O 	O 	0.14953 0.33518 0.52700 -0.43500
O 	O 	0.09798 0.61866 0.41849 -0.43600
O 	O 	0.25211 0.06740 0.74186 -0.38400
O 	O 	0.67645 0.25547 0.82187 -0.39700
O 	O 	0.26100 0.13803 0.52883 -0.52300
O 	O 	0.76100 0.57214 0.02883 -0.52300
O 	O 	0.25841 0.66870 0.89666 -0.43000
O 	O 	0.43863 0.56740 0.24186 -0.38400
O 	O 	0.42786 0.36197 0.97117 -0.52300
O 	O 	0.51375 0.70090 0.11586 -0.85600
O 	O 	0.93863 0.25211 0.74186 -0.38400
O 	O 	0.75841 0.67623 0.39666 -0.43000
O 	O 	0.73900 0.86197 0.47117 -0.52300
O 	O 	0.24159 0.32377 0.60334 -0.43000
O 	O 	0.92786 0.73900 0.47117 -0.52300
O 	O 	0.24789 0.56137 0.75814 -0.38400
O 	O 	0.00279 0.91675 0.28880 -0.46700
O 	O 	0.11964 0.49624 0.14298 -0.16500
O 	O 	0.66482 0.01171 0.47300 -0.43600
O 	O 	0.90202 0.38134 0.58151 -0.43600
O 	O 	0.74159 0.33130 0.10334 -0.43000
O 	O 	0.25886 0.00376 0.35702 -0.16700
O 	O 	0.38134 0.13513 0.58151 -0.43600
O 	O 	0.84280 0.02060 0.08210 -0.17200
O 	O 	0.98625 0.83051 0.38414 -0.85600
O 	O 	0.88036 0.50376 0.85702 -0.16500
O 	O 	0.65938 0.95447 0.35549 -0.43300
O 	O 	0.16870 0.75841 0.39666 -0.43000
O 	O 	0.61866 0.86487 0.41849 -0.43600
O 	O 	0.99721 0.08325 0.71120 -0.46700
O 	O 	0.83518 0.64953 0.02700 -0.43500
O 	O 	0.00376 0.38036 0.35702 -0.16700
O 	O 	0.24453 0.82355 0.67813 -0.39700
O 	O 	0.48829 0.83518 0.02700 -0.43500
O 	O 	0.91675 0.79166 0.28880 -0.46600
O 	O 	0.63803 0.76100 0.02883 -0.52300
O 	O 	0.13803 0.07214 0.52883 -0.52300
O 	O 	0.95447 0.03066 0.35549 -0.43300
O 	O 	0.32355 0.74453 0.17813 -0.39700
O 	O 	0.43260 0.24789 0.75814 -0.38400
O 	O 	0.15720 0.97940 0.91790 -0.17200
O 	O 	0.35047 0.51171 0.97300 -0.43500
O 	O 	0.38036 0.25886 0.35702 -0.16600
O 	O 	0.56740 0.75211 0.24186 -0.38400
O 	O 	0.29910 0.33051 0.88414 -0.85600
O 	O 	0.33130 0.82377 0.10334 -0.43000
O 	O 	0.44550 0.47940 0.41790 -0.17200
O 	O 	0.51171 0.16482 0.97300 -0.43500
O 	O 	0.83051 0.79910 0.38414 -0.85600
O 	O 	0.54553 0.84062 0.14451 -0.43300
O 	O 	0.74114 0.99624 0.64298 -0.16700
O 	O 	0.16482 0.35047 0.97300 -0.43500
O 	O 	0.75211 0.43863 0.24186 -0.38400
O 	O 	0.67623 0.16870 0.39666 -0.43000
O 	O 	0.32377 0.83130 0.60334 -0.43000
O 	O 	0.17645 0.74621 0.32187 -0.39700
O 	O 	0.06137 0.74789 0.25814 -0.38400
O 	O 	0.41675 0.50279 0.78880 -0.46600
O 	O 	0.57214 0.63803 0.02883 -0.52300
O 	O 	0.85047 0.66482 0.47300 -0.43500
O 	O 	0.70834 0.58325 0.21120 -0.46600
O 	O 	0.33518 0.98829 0.52700 -0.43600
O 	O 	0.50279 0.29166 0.78880 -0.46600
O 	O 	0.94550 0.15720 0.91790 -0.17200
O 	O 	0.88134 0.40202 0.08151 -0.43600
O 	O 	0.98829 0.14953 0.52700 -0.43600
O 	O 	0.49624 0.24114 0.14298 -0.16600
