data_crystal

_cell_length_a 12.94900
_cell_length_b 13.86900
_cell_length_c 27.97200
_cell_angle_alpha 104.31500
_cell_angle_beta  98.30100
_cell_angle_gamma 94.34900

_symmetry_space_group_name_	'P 1'
_symmetry_space_group_name_H-M	'P 1'

loop_
_symmetry_equiv_pos_as_xyz
  x,y,z

loop_
_atom_site_label
_atom_site_type_symbol
_atom_site_fract_x
_atom_site_fract_y
_atom_site_fract_z
_atom_site_charge
Eu	Eu	0.61955 0.07470 0.55395 1.82700
Eu	Eu	0.01589 0.10482 0.08637 1.68200
Eu	Eu	0.53139 0.56414 0.93921 1.84500
Eu	Eu	0.02882 0.45434 0.41526 1.67700
C 	C 	0.57100 0.10070 0.43529 0.47100
C 	C 	0.65070 0.63260 0.06363 0.47600
O 	O 	0.09820 0.97367 0.04556 -0.53500
O 	O 	0.48170 0.05070 0.42273 -0.47900
C 	C 	0.13190 0.89920 0.02108 0.51300
C 	C 	0.20000 0.84030 0.04819 -0.21800
O 	O 	0.88750 0.95189 0.06672 -0.40800
O 	O 	0.05390 0.71890 0.40336 -0.33600
O 	O 	0.62400 0.64881 0.02162 -0.52100
O 	O 	0.63110 0.11120 0.47552 -0.52400
C 	C 	0.39970 0.82650 0.25822 0.07800
H 	H 	0.46330 0.81640 0.27540 0.01500
C 	C 	0.73410 0.25790 0.37465 -0.10800
C 	C 	0.56620 0.19980 0.31981 -0.06700
C 	C 	0.48970 0.20090 0.27527 0.11100
C 	C 	0.90150 0.62610 0.23027 -0.18200
H 	H 	0.87680 0.57490 0.20150 0.09000
C 	C 	0.90080 0.82850 0.16715 0.02000
H 	H 	0.95500 0.87160 0.18950 0.03100
O 	O 	0.90507 0.31624 0.42347 -0.40100
O 	O 	0.99490 0.98900 0.13915 -0.40900
O 	O 	0.89820 0.52370 0.45727 -0.53100
C 	C 	0.85560 0.74670 0.18048 -0.07400
O 	O 	0.17420 0.14960 0.14169 -0.48800
O 	O 	0.45290 0.53400 0.14513 -0.43100
O 	O 	0.70260 0.92526 0.52585 -0.46700
C 	C 	0.64300 0.87660 0.48704 0.44700
C 	C 	0.53850 0.14730 0.35398 0.03600
H 	H 	0.47350 0.10880 0.34710 0.03000
O 	O 	0.27870 0.93020 0.36428 -0.41700
O 	O 	0.41370 0.84500 0.36130 -0.43500
O 	O 	0.39180 0.64700 0.97411 -0.49100
C 	C 	0.67590 0.78180 0.45724 -0.18900
O 	O 	0.61040 0.56215 0.07825 -0.48900
O 	O 	0.55620 0.90492 0.47233 -0.56200
C 	C 	0.50410 0.59640 0.25034 0.08400
H 	H 	0.44100 0.61230 0.23540 0.01200
C 	C 	0.33260 0.21470 0.19731 -0.17400
O 	O 	0.87360 0.61940 0.52893 -0.53700
O 	O 	0.86030 0.37580 0.35833 -0.39500
C 	C 	0.66510 0.25580 0.33167 0.01200
H 	H 	0.68500 0.29250 0.31010 0.03500
O 	O 	0.00920 0.55920 0.36359 -0.51700
C 	C 	0.31390 0.71080 0.04474 -0.20500
C 	C 	0.93630 0.79850 0.27159 -0.17900
H 	H 	0.93460 0.86530 0.27130 0.09300
C 	C 	0.78410 0.64780 0.45586 -0.20900
C 	C 	0.41820 0.11980 0.24989 -0.17600
H 	H 	0.42140 0.05970 0.25880 0.09600
O 	O 	0.56720 0.42680 0.14168 -0.43200
C 	C 	0.24380 0.22550 0.15945 0.38300
O 	O 	0.40020 0.56478 0.03259 -0.55600
O 	O 	0.11370 0.86850 0.97435 -0.54600
C 	C 	0.01740 0.65060 0.36476 0.41200
C 	C 	0.85740 0.59400 0.48235 0.49200
C 	C 	0.94090 0.60200 0.27369 0.10300
H 	H 	0.94260 0.53520 0.27400 -0.00700
C 	C 	0.60650 0.15190 0.39781 -0.16100
C 	C 	0.53750 0.63480 0.30174 -0.17500
H 	H 	0.49610 0.67550 0.32060 0.09400
O 	O 	0.23980 0.30600 0.14755 -0.35200
C 	C 	0.28950 0.82080 0.18029 0.12200
C 	C 	0.21340 0.85770 0.09969 0.08300
H 	H 	0.18060 0.90820 0.11810 0.01000
C 	C 	0.86670 0.84680 0.12138 -0.11800
C 	C 	0.67070 0.65510 0.37970 -0.10000
C 	C 	0.37260 0.63420 0.01507 0.49000
C 	C 	0.40600 0.29610 0.22181 0.08500
H 	H 	0.40370 0.35550 0.21210 0.00400
C 	C 	0.32120 0.86050 0.28423 -0.14300
C 	C 	0.89780 0.72420 0.22828 0.12400
C 	C 	0.48270 0.29020 0.26056 -0.17000
H 	H 	0.53040 0.34630 0.27710 0.09100
C 	C 	0.56210 0.53600 0.22162 -0.14900
C 	C 	0.34120 0.12630 0.21121 0.09300
H 	H 	0.29440 0.07000 0.19420 0.00900
C 	C 	0.27440 0.80140 0.12443 -0.10300
C 	C 	0.63540 0.74100 0.40687 0.06200
H 	H 	0.58410 0.77140 0.39110 0.00800
C 	C 	0.32290 0.72530 0.09646 0.07000
H 	H 	0.36100 0.68430 0.11230 0.00900
C 	C 	0.38420 0.80760 0.20715 -0.17000
H 	H 	0.43800 0.78550 0.19000 0.09500
C 	C 	0.97710 0.77550 0.31535 0.10400
H 	H 	0.00400 0.82700 0.34380 0.00400
C 	C 	0.70390 0.20720 0.40814 0.06300
H 	H 	0.74930 0.21040 0.43760 0.01700
C 	C 	0.78580 0.78360 0.08755 0.06900
H 	H 	0.76390 0.79550 0.05660 0.00800
C 	C 	0.75020 0.73490 0.48144 0.12000
H 	H 	0.77730 0.76250 0.51520 0.00500
C 	C 	0.73760 0.70230 0.10025 -0.16900
C 	C 	0.83940 0.31980 0.38589 0.31400
C 	C 	0.63150 0.61330 0.32503 0.12400
C 	C 	0.25200 0.76810 0.02084 0.12900
H 	H 	0.24550 0.75800 0.98640 -0.00600
C 	C 	0.97840 0.67800 0.31733 -0.18200
C 	C 	0.65130 0.50810 0.24461 0.08400
H 	H 	0.68880 0.46260 0.22590 0.00900
C 	C 	0.77240 0.68490 0.14624 0.04500
H 	H 	0.73970 0.63080 0.15470 0.02700
C 	C 	0.68650 0.54720 0.29572 -0.17300
H 	H 	0.74820 0.52850 0.31050 0.09800
C 	C 	0.52590 0.49630 0.16626 0.35700
C 	C 	0.21160 0.85510 0.20686 -0.17300
H 	H 	0.14770 0.86480 0.18980 0.09700
C 	C 	0.74570 0.60990 0.40480 0.07500
H 	H 	0.77070 0.55310 0.38710 0.01100
C 	C 	0.91950 0.93410 0.10850 0.31300
C 	C 	0.22770 0.87530 0.25851 0.08100
H 	H 	0.17480 0.89910 0.27590 0.01300
C 	C 	0.33970 0.88010 0.34034 0.34900
Eu	Eu	0.38045 0.92530 0.44605 1.82800
Eu	Eu	0.98411 0.89518 0.91363 1.68300
Eu	Eu	0.46862 0.43586 0.06079 1.84600
Eu	Eu	0.97118 0.54566 0.58474 1.67800
C 	C 	0.42900 0.89930 0.56471 0.47200
C 	C 	0.34930 0.36740 0.93637 0.47700
O 	O 	0.90180 0.02633 0.95444 -0.53500
O 	O 	0.51830 0.94930 0.57727 -0.47900
C 	C 	0.86810 0.10080 0.97892 0.51300
C 	C 	0.80000 0.15970 0.95181 -0.21800
O 	O 	0.11250 0.04811 0.93328 -0.40800
O 	O 	0.94610 0.28110 0.59664 -0.33600
O 	O 	0.37600 0.35119 0.97838 -0.52100
O 	O 	0.36890 0.88880 0.52448 -0.52400
C 	C 	0.60030 0.17350 0.74178 0.07800
H 	H 	0.53670 0.18360 0.72460 0.01500
C 	C 	0.26590 0.74210 0.62535 -0.10800
C 	C 	0.43380 0.80020 0.68019 -0.06700
C 	C 	0.51030 0.79910 0.72473 0.11100
C 	C 	0.09850 0.37390 0.76973 -0.18200
H 	H 	0.12320 0.42510 0.79850 0.09000
C 	C 	0.09920 0.17150 0.83285 0.02000
H 	H 	0.04500 0.12840 0.81050 0.03100
O 	O 	0.09493 0.68376 0.57653 -0.40100
O 	O 	0.00510 0.01100 0.86085 -0.40900
O 	O 	0.10180 0.47630 0.54273 -0.53100
C 	C 	0.14440 0.25330 0.81952 -0.07400
O 	O 	0.82580 0.85040 0.85831 -0.48800
O 	O 	0.54710 0.46600 0.85487 -0.43100
O 	O 	0.29740 0.07474 0.47415 -0.46700
C 	C 	0.35700 0.12340 0.51296 0.44700
C 	C 	0.46150 0.85270 0.64602 0.03600
H 	H 	0.52650 0.89120 0.65290 0.03000
O 	O 	0.72130 0.06980 0.63572 -0.41700
O 	O 	0.58630 0.15500 0.63870 -0.43500
O 	O 	0.60820 0.35300 0.02589 -0.49100
C 	C 	0.32410 0.21820 0.54276 -0.18900
O 	O 	0.38960 0.43785 0.92175 -0.48900
O 	O 	0.44380 0.09508 0.52767 -0.56200
C 	C 	0.49590 0.40360 0.74966 0.08400
H 	H 	0.55900 0.38770 0.76460 0.01200
C 	C 	0.66740 0.78530 0.80269 -0.17400
O 	O 	0.12640 0.38060 0.47107 -0.53700
O 	O 	0.13970 0.62420 0.64167 -0.39500
C 	C 	0.33490 0.74420 0.66833 0.01200
H 	H 	0.31500 0.70750 0.68990 0.03500
O 	O 	0.99080 0.44080 0.63641 -0.51700
C 	C 	0.68610 0.28920 0.95526 -0.20500
C 	C 	0.06370 0.20150 0.72841 -0.17900
H 	H 	0.06540 0.13470 0.72870 0.09300
C 	C 	0.21590 0.35220 0.54414 -0.20900
C 	C 	0.58180 0.88020 0.75011 -0.17600
H 	H 	0.57860 0.94030 0.74120 0.09600
O 	O 	0.43280 0.57320 0.85832 -0.43200
C 	C 	0.75620 0.77450 0.84055 0.38300
O 	O 	0.59980 0.43522 0.96741 -0.55600
O 	O 	0.88630 0.13150 0.02565 -0.54600
C 	C 	0.98260 0.34940 0.63524 0.41200
C 	C 	0.14260 0.40600 0.51765 0.49200
C 	C 	0.05910 0.39800 0.72631 0.10300
H 	H 	0.05740 0.46480 0.72600 -0.00700
C 	C 	0.39350 0.84810 0.60219 -0.16100
C 	C 	0.46250 0.36520 0.69826 -0.17500
H 	H 	0.50390 0.32450 0.67940 0.09400
O 	O 	0.76020 0.69400 0.85245 -0.35200
C 	C 	0.71050 0.17920 0.81971 0.12200
C 	C 	0.78660 0.14230 0.90031 0.08300
H 	H 	0.81940 0.09180 0.88190 0.01000
C 	C 	0.13330 0.15320 0.87862 -0.11800
C 	C 	0.32930 0.34490 0.62030 -0.10000
C 	C 	0.62740 0.36580 0.98493 0.49000
C 	C 	0.59400 0.70390 0.77819 0.08500
H 	H 	0.59630 0.64450 0.78790 0.00400
C 	C 	0.67880 0.13950 0.71577 -0.14300
C 	C 	0.10220 0.27580 0.77172 0.12400
C 	C 	0.51730 0.70980 0.73944 -0.17000
H 	H 	0.46960 0.65370 0.72290 0.09100
C 	C 	0.43790 0.46400 0.77838 -0.14900
C 	C 	0.65880 0.87370 0.78879 0.09300
H 	H 	0.70560 0.93000 0.80580 0.00900
C 	C 	0.72560 0.19860 0.87557 -0.10300
C 	C 	0.36460 0.25900 0.59313 0.06200
H 	H 	0.41590 0.22860 0.60890 0.00800
C 	C 	0.67710 0.27470 0.90354 0.07000
H 	H 	0.63900 0.31570 0.88770 0.00900
C 	C 	0.61580 0.19240 0.79285 -0.17000
H 	H 	0.56200 0.21450 0.81000 0.09500
C 	C 	0.02290 0.22450 0.68465 0.10400
H 	H 	0.99600 0.17300 0.65620 0.00400
C 	C 	0.29610 0.79280 0.59186 0.06300
H 	H 	0.25070 0.78960 0.56240 0.01700
C 	C 	0.21420 0.21640 0.91245 0.06900
H 	H 	0.23610 0.20450 0.94340 0.00800
C 	C 	0.24980 0.26510 0.51856 0.12000
H 	H 	0.22270 0.23750 0.48480 0.00500
C 	C 	0.26240 0.29770 0.89975 -0.16900
C 	C 	0.16060 0.68020 0.61411 0.31400
C 	C 	0.36850 0.38670 0.67497 0.12400
C 	C 	0.74800 0.23190 0.97916 0.12900
H 	H 	0.75450 0.24200 0.01360 -0.00600
C 	C 	0.02160 0.32200 0.68267 -0.18200
C 	C 	0.34870 0.49190 0.75539 0.08400
H 	H 	0.31120 0.53740 0.77410 0.00900
C 	C 	0.22760 0.31510 0.85376 0.04500
H 	H 	0.26030 0.36920 0.84530 0.02700
C 	C 	0.31350 0.45280 0.70428 -0.17300
H 	H 	0.25180 0.47150 0.68950 0.09800
C 	C 	0.47410 0.50370 0.83374 0.35700
C 	C 	0.78840 0.14490 0.79314 -0.17300
H 	H 	0.85230 0.13520 0.81020 0.09700
C 	C 	0.25430 0.39010 0.59520 0.07500
H 	H 	0.22930 0.44690 0.61290 0.01100
C 	C 	0.08050 0.06590 0.89150 0.31300
C 	C 	0.77230 0.12470 0.74149 0.08100
H 	H 	0.82520 0.10090 0.72410 0.01300
C 	C 	0.66030 0.11990 0.65966 0.34900
