data_crystal

_cell_length_a 13.79500
_cell_length_b 12.83000
_cell_length_c 18.81500
_cell_angle_alpha 90.00000
_cell_angle_beta  89.95900
_cell_angle_gamma 90.00000

_symmetry_space_group_name_	'P 1'
_symmetry_space_group_name_H-M	'P 1'

loop_
_symmetry_equiv_pos_as_xyz
  x,y,z

loop_
_atom_site_label
_atom_site_type_symbol
_atom_site_fract_x
_atom_site_fract_y
_atom_site_fract_z
_atom_site_charge
P 	P 	0.77220 0.09630 0.05540 0.83400
P 	P 	0.88870 0.76760 0.06180 0.83400
P 	P 	0.11870 0.96430 0.16670 0.81900
Al	Al	0.88950 0.95960 0.16550 2.39400
Al	Al	0.11720 0.77460 0.06150 2.39500
Al	Al	0.22670 0.09610 0.04950 2.39300
O 	O 	0.18030 0.04740 0.13060 -0.77200
O 	O 	0.85950 0.82400 0.99390 -0.84300
O 	O 	0.99470 0.73850 0.05780 -0.79100
O 	O 	0.84660 0.16470 0.01780 -0.84200
O 	O 	0.81680 0.05380 0.12360 -0.77800
O 	O 	0.01240 0.99490 0.15820 -0.84800
O 	O 	0.13770 0.85830 0.13350 -0.82900
O 	O 	0.83190 0.66780 0.07020 -0.77400
O 	O 	0.14710 0.95900 0.24490 -0.77000
O 	O 	0.68370 0.16010 0.07580 -0.76800
O 	O 	0.87000 0.83640 0.12670 -0.82800
O 	O 	0.74000 0.00910 0.00710 -0.81700
P 	P 	0.27220 0.59630 0.05540 0.83300
P 	P 	0.38870 0.26760 0.06180 0.83700
P 	P 	0.61870 0.46430 0.16670 0.82200
Al	Al	0.38950 0.45960 0.16550 2.39300
Al	Al	0.61720 0.27460 0.06150 2.39500
Al	Al	0.72670 0.59610 0.04950 2.39200
O 	O 	0.68030 0.54740 0.13060 -0.77600
O 	O 	0.35950 0.32400 0.99390 -0.84800
O 	O 	0.49470 0.23850 0.05780 -0.78900
O 	O 	0.34660 0.66470 0.01780 -0.84800
O 	O 	0.31680 0.55380 0.12360 -0.78100
O 	O 	0.51240 0.49490 0.15820 -0.84500
O 	O 	0.63770 0.35830 0.13350 -0.82600
O 	O 	0.33190 0.16780 0.07020 -0.77400
O 	O 	0.64710 0.45900 0.24490 -0.76800
O 	O 	0.18370 0.66010 0.07580 -0.77100
O 	O 	0.37000 0.33640 0.12670 -0.82700
O 	O 	0.24000 0.50910 0.00710 -0.82100
P 	P 	0.22780 0.09630 0.44460 0.83300
P 	P 	0.11130 0.76760 0.43820 0.83500
P 	P 	0.88130 0.96430 0.33330 0.82100
Al	Al	0.11050 0.95960 0.33450 2.39300
Al	Al	0.88280 0.77460 0.43850 2.39400
Al	Al	0.77330 0.09610 0.45050 2.39200
O 	O 	0.81970 0.04740 0.36940 -0.77400
O 	O 	0.14050 0.82400 0.50610 -0.84600
O 	O 	0.00530 0.73850 0.44220 -0.79100
O 	O 	0.15340 0.16470 0.48220 -0.84600
O 	O 	0.18320 0.05380 0.37640 -0.78000
O 	O 	0.98760 0.99490 0.34180 -0.84500
O 	O 	0.86230 0.85830 0.36650 -0.82600
O 	O 	0.16810 0.66780 0.42980 -0.77400
O 	O 	0.85290 0.95900 0.25510 -0.77000
O 	O 	0.31630 0.16010 0.42420 -0.76900
O 	O 	0.13000 0.83640 0.37330 -0.82800
O 	O 	0.26000 0.00910 0.49290 -0.82100
P 	P 	0.72780 0.59630 0.44460 0.83300
P 	P 	0.61130 0.26760 0.43820 0.83500
P 	P 	0.38130 0.46430 0.33330 0.82200
Al	Al	0.61050 0.45960 0.33450 2.39300
Al	Al	0.38280 0.27460 0.43850 2.39400
Al	Al	0.27330 0.59610 0.45050 2.39200
O 	O 	0.31970 0.54740 0.36940 -0.77600
O 	O 	0.64050 0.32400 0.50610 -0.84600
O 	O 	0.50530 0.23850 0.44220 -0.79000
O 	O 	0.65340 0.66470 0.48220 -0.84600
O 	O 	0.68320 0.55380 0.37640 -0.78100
O 	O 	0.48760 0.49490 0.34180 -0.84500
O 	O 	0.36230 0.35830 0.36650 -0.82600
O 	O 	0.66810 0.16780 0.42980 -0.77400
O 	O 	0.35290 0.45900 0.25510 -0.76900
O 	O 	0.81630 0.66010 0.42420 -0.76900
O 	O 	0.63000 0.33640 0.37330 -0.82700
O 	O 	0.76000 0.50910 0.49290 -0.82100
P 	P 	0.22780 0.90370 0.94460 0.83300
P 	P 	0.11130 0.23240 0.93820 0.83300
P 	P 	0.88130 0.03570 0.83330 0.81800
Al	Al	0.11050 0.04040 0.83450 2.39300
Al	Al	0.88280 0.22540 0.93850 2.39400
Al	Al	0.77330 0.90390 0.95050 2.39200
O 	O 	0.81970 0.95260 0.86940 -0.77300
O 	O 	0.14050 0.17600 0.00610 -0.84400
O 	O 	0.00530 0.26150 0.94220 -0.79100
O 	O 	0.15340 0.83530 0.98220 -0.84200
O 	O 	0.18320 0.94620 0.87640 -0.77800
O 	O 	0.98760 0.00510 0.84180 -0.84800
O 	O 	0.86230 0.14170 0.86650 -0.82900
O 	O 	0.16810 0.33220 0.92980 -0.77400
O 	O 	0.85290 0.04100 0.75510 -0.77000
O 	O 	0.31630 0.83990 0.92420 -0.76800
O 	O 	0.13000 0.16360 0.87330 -0.82800
O 	O 	0.26000 0.99090 0.99290 -0.81700
P 	P 	0.72780 0.40370 0.94460 0.83300
P 	P 	0.61130 0.73240 0.93820 0.83700
P 	P 	0.38130 0.53570 0.83330 0.82200
Al	Al	0.61050 0.54040 0.83450 2.39300
Al	Al	0.38280 0.72540 0.93850 2.39500
Al	Al	0.27330 0.40390 0.95050 2.39200
O 	O 	0.31970 0.45260 0.86940 -0.77600
O 	O 	0.64050 0.67600 0.00610 -0.84800
O 	O 	0.50530 0.76150 0.94220 -0.78900
O 	O 	0.65340 0.33530 0.98220 -0.84800
O 	O 	0.68320 0.44620 0.87640 -0.78100
O 	O 	0.48760 0.50510 0.84180 -0.84500
O 	O 	0.36230 0.64170 0.86650 -0.82600
O 	O 	0.66810 0.83220 0.92980 -0.77400
O 	O 	0.35290 0.54100 0.75510 -0.76800
O 	O 	0.81630 0.33990 0.92420 -0.77100
O 	O 	0.63000 0.66360 0.87330 -0.82700
O 	O 	0.76000 0.49090 0.99290 -0.82100
P 	P 	0.77220 0.90370 0.55540 0.83300
P 	P 	0.88870 0.23240 0.56180 0.83500
P 	P 	0.11870 0.03570 0.66670 0.82100
Al	Al	0.88950 0.04040 0.66550 2.39300
Al	Al	0.11720 0.22540 0.56150 2.39400
Al	Al	0.22670 0.90390 0.54950 2.39200
O 	O 	0.18030 0.95260 0.63060 -0.77400
O 	O 	0.85950 0.17600 0.49390 -0.84600
O 	O 	0.99470 0.26150 0.55780 -0.79100
O 	O 	0.84660 0.83530 0.51780 -0.84600
O 	O 	0.81680 0.94620 0.62360 -0.78000
O 	O 	0.01240 0.00510 0.65820 -0.84500
O 	O 	0.13770 0.14170 0.63350 -0.82600
O 	O 	0.83190 0.33220 0.57020 -0.77400
O 	O 	0.14710 0.04100 0.74490 -0.77000
O 	O 	0.68370 0.83990 0.57580 -0.76900
O 	O 	0.87000 0.16360 0.62670 -0.82800
O 	O 	0.74000 0.99090 0.50710 -0.82100
P 	P 	0.27220 0.40370 0.55540 0.83300
P 	P 	0.38870 0.73240 0.56180 0.83500
P 	P 	0.61870 0.53570 0.66670 0.82200
Al	Al	0.38950 0.54040 0.66550 2.39300
Al	Al	0.61720 0.72540 0.56150 2.39400
Al	Al	0.72670 0.40390 0.54950 2.39200
O 	O 	0.68030 0.45260 0.63060 -0.77600
O 	O 	0.35950 0.67600 0.49390 -0.84600
O 	O 	0.49470 0.76150 0.55780 -0.79000
O 	O 	0.34660 0.33530 0.51780 -0.84600
O 	O 	0.31680 0.44620 0.62360 -0.78100
O 	O 	0.51240 0.50510 0.65820 -0.84500
O 	O 	0.63770 0.64170 0.63350 -0.82600
O 	O 	0.33190 0.83220 0.57020 -0.77400
O 	O 	0.64710 0.54100 0.74490 -0.76900
O 	O 	0.18370 0.33990 0.57580 -0.76900
O 	O 	0.37000 0.66360 0.62670 -0.82700
O 	O 	0.24000 0.49090 0.50710 -0.82100
