data_crystal

_cell_length_a 10.94700
_cell_length_b 17.90800
_cell_length_c 19.30800
_cell_angle_alpha 63.44600
_cell_angle_beta  75.22700
_cell_angle_gamma 73.78800

_symmetry_space_group_name_	'P 1'
_symmetry_space_group_name_H-M	'P 1'

loop_
_symmetry_equiv_pos_as_xyz
  x,y,z

loop_
_atom_site_label
_atom_site_type_symbol
_atom_site_fract_x
_atom_site_fract_y
_atom_site_fract_z
_atom_site_charge
Mn	Mn	0.50797 0.74245 0.25204 1.18400
Mn	Mn	0.83374 0.19317 0.42058 1.20000
Mn	Mn	0.24461 0.31254 0.06099 1.16300
Mn	Mn	0.49203 0.25755 0.74796 1.18400
Mn	Mn	0.16626 0.80683 0.57942 1.18200
Mn	Mn	0.75539 0.68746 0.93901 1.19800
Mn	Mn	-0.00000 0.00000 -0.00000 1.12700
Mn	Mn	0.00000 0.50000 0.50000 1.16800
Nb	Nb	0.10395 0.00417 0.26714 1.23200
Nb	Nb	0.93804 0.50510 0.22181 1.28100
Nb	Nb	0.89605 0.99583 0.73286 1.28700
Nb	Nb	0.06196 0.49490 0.77819 1.24500
H 	H 	0.90040 0.83320 0.03730 -0.01100
H 	H 	0.74060 0.75750 0.10990 -0.02600
H 	H 	0.59350 0.91840 0.20730 0.00500
H 	H 	0.75560 0.99290 0.13600 0.00900
H 	H 	0.40060 0.57950 0.29480 -0.01800
H 	H 	0.22930 0.51230 0.36250 -0.01400
H 	H 	0.10630 0.66550 0.46840 -0.02500
H 	H 	0.27330 0.73560 0.39780 -0.02100
H 	H 	0.87070 0.98360 0.49120 0.00700
H 	H 	0.79950 0.88130 0.48240 0.03900
H 	H 	0.51040 0.04640 0.38830 0.05300
H 	H 	0.58000 0.15090 0.39710 -0.01600
H 	H 	0.18050 0.23000 0.24550 -0.00700
H 	H 	0.23550 0.20990 0.35890 0.01600
H 	H 	0.53430 0.31220 0.24270 0.01800
H 	H 	0.47640 0.33450 0.12660 -0.03800
H 	H 	0.09960 0.16680 0.96270 -0.00800
H 	H 	0.25940 0.24250 0.89010 -0.01700
H 	H 	0.40650 0.08160 0.79270 -0.00900
H 	H 	0.24440 0.00710 0.86400 -0.02100
H 	H 	0.59940 0.42050 0.70520 -0.01200
H 	H 	0.77070 0.48770 0.63750 0.00700
H 	H 	0.89370 0.33450 0.53160 -0.00500
H 	H 	0.72670 0.26440 0.60220 -0.02300
H 	H 	0.12930 0.01640 0.50880 -0.00300
H 	H 	0.20050 0.11870 0.51760 0.00200
H 	H 	0.48960 0.95360 0.61170 0.03100
H 	H 	0.42000 0.84910 0.60290 0.00100
H 	H 	0.81950 0.77000 0.75450 0.00600
H 	H 	0.76450 0.79010 0.64110 0.03100
H 	H 	0.46570 0.68780 0.75730 0.01900
H 	H 	0.52360 0.66550 0.87340 -0.02100
C 	C 	0.07510 0.00636 0.15409 -0.19400
C 	C 	0.26750 0.90448 0.24696 -0.13300
C 	C 	0.28730 0.02240 0.28570 -0.19300
C 	C 	0.04310 0.08500 0.33558 -0.19300
C 	C 	0.14260 0.13055 0.17222 -0.18100
C 	C 	0.00310 0.89730 0.29860 -0.21900
C 	C 	0.89900 0.07230 0.25175 -0.12700
C 	C 	0.12060 0.91492 0.39349 -0.12500
C 	C 	0.03770 0.43240 0.14649 -0.21800
C 	C 	0.75030 0.58493 0.25121 -0.16100
C 	C 	0.88050 0.59599 0.10278 -0.14700
C 	C 	0.93380 0.37299 0.31743 -0.13300
C 	C 	0.95020 0.50401 0.33629 -0.12800
C 	C 	0.78050 0.45491 0.21030 -0.18600
C 	C 	0.99190 0.62830 0.19436 -0.09500
C 	C 	0.15090 0.47890 0.22510 -0.21800
C 	C 	0.83890 0.85130 0.07260 -0.00300
C 	C 	0.74180 0.80581 0.11622 -0.00600
C 	C 	0.65640 0.89940 0.17310 -0.01100
C 	C 	0.75420 0.94450 0.12990 -0.00100
C 	C 	0.34040 0.59860 0.32990 -0.01300
C 	C 	0.23780 0.55750 0.37130 -0.01600
C 	C 	0.16570 0.64700 0.43260 -0.00600
C 	C 	0.26680 0.68920 0.39020 -0.01200
C 	C 	0.79650 0.99840 0.46930 0.06000
C 	C 	0.75300 0.93670 0.46400 -0.01500
C 	C 	0.58530 0.03220 0.40950 -0.05100
C 	C 	0.62750 0.09570 0.41450 0.02500
C 	C 	0.25410 0.24770 0.24330 0.00400
C 	C 	0.28700 0.23530 0.31180 -0.00000
C 	C 	0.46050 0.29500 0.24420 -0.00700
C 	C 	0.42560 0.30820 0.17380 0.00900
C 	C 	0.92490 0.99364 0.84591 -0.10800
C 	C 	0.73250 0.09552 0.75304 -0.17800
C 	C 	0.71270 0.97760 0.71430 -0.15500
C 	C 	0.95690 0.91500 0.66442 -0.12600
C 	C 	0.85740 0.86945 0.82778 -0.13700
C 	C 	0.99690 0.10270 0.70140 -0.09900
C 	C 	0.10100 0.92770 0.74825 -0.21100
C 	C 	0.87940 0.08508 0.60651 -0.15200
C 	C 	0.96230 0.56760 0.85351 -0.10500
C 	C 	0.24970 0.41507 0.74879 -0.15400
C 	C 	0.11950 0.40401 0.89722 -0.16600
C 	C 	0.06620 0.62701 0.68257 -0.18700
C 	C 	0.04980 0.49599 0.66371 -0.16500
C 	C 	0.21950 0.54509 0.78970 -0.20200
C 	C 	0.00810 0.37170 0.80564 -0.24600
C 	C 	0.84910 0.52110 0.77490 -0.12300
C 	C 	0.16110 0.14870 0.92740 -0.00500
C 	C 	0.25820 0.19419 0.88378 -0.00900
C 	C 	0.34360 0.10060 0.82690 -0.01700
C 	C 	0.24580 0.05550 0.87010 -0.00700
C 	C 	0.65960 0.40140 0.67010 -0.00600
C 	C 	0.76220 0.44250 0.62870 -0.00900
C 	C 	0.83430 0.35300 0.56740 -0.00300
C 	C 	0.73320 0.31080 0.60980 -0.00200
C 	C 	0.20350 0.00160 0.53070 -0.06100
C 	C 	0.24700 0.06330 0.53600 0.01600
C 	C 	0.41470 0.96780 0.59050 0.06000
C 	C 	0.37250 0.90430 0.58550 -0.01500
C 	C 	0.74590 0.75230 0.75670 0.00800
C 	C 	0.71300 0.76470 0.68820 0.00600
C 	C 	0.53950 0.70500 0.75580 -0.00100
C 	C 	0.57440 0.69180 0.82620 0.01100
N 	N 	0.05440 0.00573 0.09905 -0.27200
N 	N 	0.35360 0.85314 0.23978 -0.25000
N 	N 	0.38160 0.02980 0.29480 -0.08900
N 	N 	0.00610 0.12348 0.37339 -0.24500
N 	N 	0.16460 0.19495 0.12532 -0.24900
N 	N 	0.95700 0.84200 0.31080 -0.02700
N 	N 	0.79730 0.11030 0.24090 -0.09800
N 	N 	0.12750 0.87115 0.45814 -0.24700
N 	N 	0.09160 0.39458 0.10921 -0.23900
N 	N 	0.65650 0.62982 0.26076 -0.25000
N 	N 	0.84110 0.64224 0.04583 -0.26000
N 	N 	0.91450 0.30917 0.36782 -0.23400
N 	N 	0.95840 0.50146 0.39548 -0.22800
N 	N 	0.69890 0.42740 0.20820 -0.10600
N 	N 	0.01910 0.68970 0.18620 -0.15700
N 	N 	0.25740 0.47480 0.22400 -0.08500
N 	N 	0.84650 0.92017 0.07974 -0.22500
N 	N 	0.65050 0.82921 0.16675 -0.24400
N 	N 	0.35480 0.66467 0.33899 -0.24300
N 	N 	0.15140 0.58134 0.42346 -0.25000
N 	N 	0.73430 0.07933 0.44356 -0.24900
N 	N 	0.64760 0.95220 0.43380 -0.07800
N 	N 	0.32250 0.28419 0.17321 -0.24500
N 	N 	0.39030 0.25870 0.31240 -0.11900
N 	N 	0.94560 0.99427 0.90095 -0.20300
N 	N 	0.64640 0.14686 0.76022 -0.24000
N 	N 	0.61840 0.97020 0.70520 -0.07600
N 	N 	0.99390 0.87652 0.62661 -0.20300
N 	N 	0.83540 0.80505 0.87468 -0.22300
N 	N 	0.04300 0.15800 0.68920 -0.14900
N 	N 	0.20270 0.88970 0.75910 -0.08100
N 	N 	0.87250 0.12885 0.54186 -0.22900
N 	N 	0.90840 0.60542 0.89079 -0.22100
N 	N 	0.34350 0.37018 0.73924 -0.25000
N 	N 	0.15890 0.35776 0.95417 -0.23100
N 	N 	0.08550 0.69083 0.63218 -0.24900
N 	N 	0.04160 0.49854 0.60452 -0.25600
N 	N 	0.30110 0.57260 0.79180 -0.10000
N 	N 	0.98090 0.31030 0.81380 -0.02400
N 	N 	0.74260 0.52520 0.77600 -0.08700
N 	N 	0.15350 0.07983 0.92026 -0.24000
N 	N 	0.34950 0.17079 0.83325 -0.24300
N 	N 	0.64520 0.33533 0.66101 -0.24300
N 	N 	0.84860 0.41866 0.57654 -0.22700
N 	N 	0.26570 0.92067 0.55644 -0.20000
N 	N 	0.35240 0.04780 0.56620 -0.14400
N 	N 	0.67750 0.71581 0.82679 -0.23500
N 	N 	0.60970 0.74130 0.68760 -0.11500
