data_crystal

_cell_length_a 10.37530
_cell_length_b 12.40360
_cell_length_c 15.76400
_cell_angle_alpha 90.00000
_cell_angle_beta  90.00000
_cell_angle_gamma 90.00000

_symmetry_space_group_name_	'P 1'
_symmetry_space_group_name_H-M	'P 1'

loop_
_symmetry_equiv_pos_as_xyz
  x,y,z

loop_
_atom_site_label
_atom_site_type_symbol
_atom_site_fract_x
_atom_site_fract_y
_atom_site_fract_z
_atom_site_charge
Zn	Zn	0.05568 0.73625 0.40018 1.23000
Zn	Zn	0.75326 0.08277 0.08860 1.23000
Zn	Zn	0.75932 0.40015 0.21151 1.23200
P 	P 	0.53920 0.93819 0.00697 0.37100
P 	P 	0.71020 0.32692 0.01973 0.41100
P 	P 	0.76456 0.16754 0.27920 0.44100
P 	P 	0.97952 0.53337 0.29660 0.44900
O 	O 	0.63570 0.95740 0.07844 -0.40700
O 	O 	0.40400 0.97023 0.03112 -0.47100
O 	O 	0.55130 0.82430 0.97332 -0.38900
O 	O 	0.70400 0.39960 0.09590 -0.45500
O 	O 	0.68290 0.21040 0.03900 -0.50600
O 	O 	0.82470 0.34830 0.96610 -0.42400
O 	O 	0.83300 0.27198 0.25820 -0.47700
O 	O 	0.77830 0.08467 0.20960 -0.43700
O 	O 	0.62600 0.18343 0.30620 -0.47400
O 	O 	0.89280 0.51441 0.22022 -0.41600
O 	O 	0.12030 0.53551 0.27621 -0.46000
O 	O 	0.93670 0.63234 0.34652 -0.41500
H 	H 	0.55930 0.01420 0.95560 -0.01000
H 	H 	0.62540 0.36130 0.97530 0.00200
H 	H 	0.83210 0.12680 0.34870 -0.02800
H 	H 	0.95750 0.45100 0.35370 -0.03000
Zn	Zn	0.94432 0.26375 0.90018 1.23100
Zn	Zn	0.24674 0.91723 0.58860 1.23400
Zn	Zn	0.24068 0.59985 0.71151 1.23400
P 	P 	0.46080 0.06181 0.50697 0.46300
P 	P 	0.28980 0.67308 0.51973 0.50800
P 	P 	0.23544 0.83246 0.77920 0.44200
P 	P 	0.02048 0.46663 0.79660 0.44900
O 	O 	0.36430 0.04260 0.57844 -0.40500
O 	O 	0.59600 0.02977 0.53112 -0.46000
O 	O 	0.44870 0.17570 0.47332 -0.44400
O 	O 	0.29600 0.60040 0.59590 -0.45100
O 	O 	0.31710 0.78960 0.53900 -0.49700
O 	O 	0.17530 0.65170 0.46610 -0.47500
O 	O 	0.16700 0.72802 0.75820 -0.47300
O 	O 	0.22170 0.91533 0.70960 -0.43200
O 	O 	0.37400 0.81657 0.80620 -0.46700
O 	O 	0.10720 0.48559 0.72022 -0.40800
O 	O 	0.87970 0.46449 0.77621 -0.45400
O 	O 	0.06330 0.36766 0.84652 -0.40800
H 	H 	0.44070 0.98580 0.45560 -0.06000
H 	H 	0.37460 0.63870 0.47530 -0.04800
H 	H 	0.16790 0.87320 0.84870 -0.01900
H 	H 	0.04250 0.54900 0.85370 -0.02500
Zn	Zn	0.55568 0.26375 0.40018 1.23000
Zn	Zn	0.25326 0.91723 0.08860 1.22800
Zn	Zn	0.25932 0.59985 0.21151 1.23200
P 	P 	0.03920 0.06181 0.00697 0.37000
P 	P 	0.21020 0.67308 0.01973 0.40600
P 	P 	0.26456 0.83246 0.27920 0.44100
P 	P 	0.47952 0.46663 0.29660 0.44700
O 	O 	0.13570 0.04260 0.07844 -0.40800
O 	O 	0.90400 0.02977 0.03112 -0.47000
O 	O 	0.05130 0.17570 0.97332 -0.38600
O 	O 	0.20400 0.60040 0.09590 -0.45500
O 	O 	0.18290 0.78960 0.03900 -0.50600
O 	O 	0.32470 0.65170 0.96610 -0.42100
O 	O 	0.33300 0.72802 0.25820 -0.47700
O 	O 	0.27830 0.91533 0.20960 -0.43800
O 	O 	0.12600 0.81657 0.30620 -0.47500
O 	O 	0.39280 0.48559 0.22022 -0.41700
O 	O 	0.62030 0.46449 0.27621 -0.45800
O 	O 	0.43670 0.36766 0.34652 -0.41600
H 	H 	0.05930 0.98580 0.95560 -0.01000
H 	H 	0.12540 0.63870 0.97530 0.00500
H 	H 	0.33210 0.87320 0.34870 -0.02800
H 	H 	0.45750 0.54900 0.35370 -0.03000
Zn	Zn	0.44432 0.73625 0.90018 1.23200
Zn	Zn	0.74674 0.08277 0.58860 1.23300
Zn	Zn	0.74068 0.40015 0.71151 1.23400
P 	P 	0.96080 0.93819 0.50697 0.46900
P 	P 	0.78980 0.32692 0.51973 0.50800
P 	P 	0.73544 0.16754 0.77920 0.44200
P 	P 	0.52048 0.53337 0.79660 0.44800
O 	O 	0.86430 0.95740 0.57844 -0.40500
O 	O 	0.09600 0.97023 0.53112 -0.46300
O 	O 	0.94870 0.82430 0.47332 -0.44400
O 	O 	0.79600 0.39960 0.59590 -0.45100
O 	O 	0.81710 0.21040 0.53900 -0.49800
O 	O 	0.67530 0.34830 0.46610 -0.47400
O 	O 	0.66700 0.27198 0.75820 -0.47200
O 	O 	0.72170 0.08467 0.70960 -0.43200
O 	O 	0.87400 0.18343 0.80620 -0.46900
O 	O 	0.60720 0.51441 0.72022 -0.40800
O 	O 	0.37970 0.53551 0.77621 -0.45300
O 	O 	0.56330 0.63234 0.84652 -0.40900
H 	H 	0.94070 0.01420 0.45560 -0.06200
H 	H 	0.87460 0.36130 0.47530 -0.04800
H 	H 	0.66790 0.12680 0.84870 -0.01900
H 	H 	0.54250 0.45100 0.85370 -0.02500
