data_crystal

_cell_length_a 10.68970
_cell_length_b 8.48570
_cell_length_c 17.29650
_cell_angle_alpha 90.00000
_cell_angle_beta  90.00000
_cell_angle_gamma 90.00000

_symmetry_space_group_name_	'P 1'
_symmetry_space_group_name_H-M	'P 1'

loop_
_symmetry_equiv_pos_as_xyz
  x,y,z

loop_
_atom_site_label
_atom_site_type_symbol
_atom_site_fract_x
_atom_site_fract_y
_atom_site_fract_z
_atom_site_charge
Zn	Zn	0.86911 0.62885 0.30064 1.24000
Zn	Zn	0.08628 0.35019 0.13499 1.23800
P 	P 	0.14628 0.65367 0.23569 0.45500
P 	P 	0.97320 0.53420 0.46465 0.51600
P 	P 	0.80705 0.39957 0.16187 0.50300
O 	O 	0.02470 0.71830 0.26600 -0.44500
O 	O 	0.25570 0.69030 0.28840 -0.40500
O 	O 	0.14350 0.47890 0.22100 -0.43600
O 	O 	0.91710 0.51930 0.54470 -0.44200
O 	O 	0.87500 0.57730 0.40820 -0.44400
O 	O 	0.04310 0.38970 0.44280 -0.23200
O 	O 	0.91310 0.28140 0.15620 -0.43500
O 	O 	0.79620 0.45750 0.24440 -0.44800
O 	O 	0.68450 0.33890 0.13220 -0.43000
H 	H 	0.16160 0.71670 0.15990 -0.02900
H 	H 	0.05160 0.62100 0.46510 -0.09400
H 	H 	0.82380 0.50290 0.12160 -0.09700
Zn	Zn	0.13089 0.37115 0.80064 1.23900
Zn	Zn	0.91372 0.64981 0.63499 1.23600
P 	P 	0.85372 0.34633 0.73569 0.45400
P 	P 	0.02680 0.46580 0.96465 0.50100
P 	P 	0.19295 0.60043 0.66187 0.50300
O 	O 	0.97530 0.28170 0.76600 -0.44700
O 	O 	0.74430 0.30970 0.78840 -0.40700
O 	O 	0.85650 0.52110 0.72100 -0.43700
O 	O 	0.08290 0.48070 0.04470 -0.42800
O 	O 	0.12500 0.42270 0.90820 -0.44600
O 	O 	0.95690 0.61030 0.94280 -0.23600
O 	O 	0.08690 0.71860 0.65620 -0.43700
O 	O 	0.20380 0.54250 0.74440 -0.44900
O 	O 	0.31550 0.66110 0.63220 -0.43300
H 	H 	0.83840 0.28330 0.65990 -0.03000
H 	H 	0.94840 0.37900 0.96510 -0.09600
H 	H 	0.17620 0.49710 0.62160 -0.09900
Zn	Zn	0.36911 0.87115 0.30064 1.23900
Zn	Zn	0.58628 0.14981 0.13499 1.23700
P 	P 	0.64628 0.84633 0.23569 0.45200
P 	P 	0.47320 0.96580 0.46465 0.51700
P 	P 	0.30705 0.10043 0.16187 0.50500
O 	O 	0.52470 0.78170 0.26600 -0.44600
O 	O 	0.75570 0.80970 0.28840 -0.40600
O 	O 	0.64350 0.02110 0.22100 -0.43400
O 	O 	0.41710 0.98070 0.54470 -0.44200
O 	O 	0.37500 0.92270 0.40820 -0.44400
O 	O 	0.54310 0.11030 0.44280 -0.23300
O 	O 	0.41310 0.21860 0.15620 -0.43500
O 	O 	0.29620 0.04250 0.24440 -0.44800
O 	O 	0.18450 0.16110 0.13220 -0.43000
H 	H 	0.66160 0.78330 0.15990 -0.02900
H 	H 	0.55160 0.87900 0.46510 -0.09500
H 	H 	0.32380 0.99710 0.12160 -0.09700
Zn	Zn	0.63089 0.12885 0.80064 1.23900
Zn	Zn	0.41372 0.85019 0.63499 1.23600
P 	P 	0.35372 0.15367 0.73569 0.45200
P 	P 	0.52680 0.03420 0.96465 0.50100
P 	P 	0.69295 0.89957 0.66187 0.50300
O 	O 	0.47530 0.21830 0.76600 -0.44800
O 	O 	0.24430 0.19030 0.78840 -0.40800
O 	O 	0.35650 0.97890 0.72100 -0.43500
O 	O 	0.58290 0.01930 0.04470 -0.42700
O 	O 	0.62500 0.07730 0.90820 -0.44500
O 	O 	0.45690 0.88970 0.94280 -0.23500
O 	O 	0.58690 0.78140 0.65620 -0.43700
O 	O 	0.70380 0.95750 0.74440 -0.44900
O 	O 	0.81550 0.83890 0.63220 -0.43400
H 	H 	0.33840 0.21670 0.65990 -0.03100
H 	H 	0.44840 0.12100 0.96510 -0.09700
H 	H 	0.67620 0.00290 0.62160 -0.09900
