data_crystal

_cell_length_a 8.55950
_cell_length_b 13.57590
_cell_length_c 9.32310
_cell_angle_alpha 90.00000
_cell_angle_beta  96.02400
_cell_angle_gamma 90.00000

_symmetry_space_group_name_	'P 1'
_symmetry_space_group_name_H-M	'P 1'

loop_
_symmetry_equiv_pos_as_xyz
  x,y,z

loop_
_atom_site_label
_atom_site_type_symbol
_atom_site_fract_x
_atom_site_fract_y
_atom_site_fract_z
_atom_site_charge
Zn	Zn	0.35885 0.01862 0.29844 1.20900
Zn	Zn	0.59558 0.13969 0.90782 1.23000
Zn	Zn	0.85052 0.75917 0.22691 1.23600
P 	P 	0.64116 0.95541 0.12928 0.55100
P 	P 	0.29432 0.20248 0.07469 0.46700
P 	P 	0.21491 0.79988 0.25689 0.44600
P 	P 	0.38997 0.12217 0.59978 0.48200
O 	O 	0.69330 0.03550 0.02960 -0.48600
O 	O 	0.57050 0.99520 0.25900 -0.42900
O 	O 	0.78040 0.88990 0.17000 -0.42800
O 	O 	0.27300 0.13170 0.19760 -0.45900
O 	O 	0.15940 0.18840 0.95570 -0.43900
O 	O 	0.45280 0.20320 0.02000 -0.50000
O 	O 	0.06380 0.77500 0.32400 -0.40300
O 	O 	0.24220 0.73450 0.13030 -0.43400
O 	O 	0.22200 0.90970 0.22160 -0.38600
O 	O 	0.33320 0.03570 0.50270 -0.45600
O 	O 	0.50030 0.08810 0.72650 -0.48000
O 	O 	0.25440 0.18140 0.64110 -0.47400
H 	H 	0.53510 0.90770 0.06470 -0.09000
H 	H 	0.27230 0.28850 0.12340 -0.04100
H 	H 	0.34480 0.78350 0.34140 -0.06500
H 	H 	0.47190 0.18070 0.52790 -0.07500
Zn	Zn	0.64115 0.51862 0.70156 1.23400
Zn	Zn	0.40442 0.63969 0.09218 1.23400
Zn	Zn	0.14948 0.25917 0.77309 1.23500
P 	P 	0.35884 0.45541 0.87072 0.49600
P 	P 	0.70568 0.70248 0.92531 0.47300
P 	P 	0.78509 0.29988 0.74311 0.44600
P 	P 	0.61003 0.62217 0.40022 0.48200
O 	O 	0.30670 0.53550 0.97040 -0.42400
O 	O 	0.42950 0.49520 0.74100 -0.46800
O 	O 	0.21960 0.38990 0.83000 -0.43700
O 	O 	0.72700 0.63170 0.80240 -0.43600
O 	O 	0.84060 0.68840 0.04430 -0.43000
O 	O 	0.54720 0.70320 0.98000 -0.48600
O 	O 	0.93620 0.27500 0.67600 -0.42000
O 	O 	0.75780 0.23450 0.86970 -0.44300
O 	O 	0.77800 0.40970 0.77840 -0.42300
O 	O 	0.66680 0.53570 0.49730 -0.42300
O 	O 	0.49970 0.58810 0.27350 -0.46200
O 	O 	0.74560 0.68140 0.35890 -0.46400
H 	H 	0.46490 0.40770 0.93530 -0.09400
H 	H 	0.72770 0.78850 0.87660 -0.02700
H 	H 	0.65520 0.28350 0.65860 -0.07400
H 	H 	0.52810 0.68070 0.47210 -0.06500
