data_crystal

_cell_length_a 9.94620
_cell_length_b 20.98530
_cell_length_c 10.60980
_cell_angle_alpha 90.00000
_cell_angle_beta  101.33100
_cell_angle_gamma 90.00000

_symmetry_space_group_name_	'P 1'
_symmetry_space_group_name_H-M	'P 1'

loop_
_symmetry_equiv_pos_as_xyz
  x,y,z

loop_
_atom_site_label
_atom_site_type_symbol
_atom_site_fract_x
_atom_site_fract_y
_atom_site_fract_z
_atom_site_charge
Zn	Zn	0.81809 0.75986 0.33598 1.23400
Zn	Zn	0.27085 0.60929 0.19467 1.23400
Zn	Zn	0.88066 0.86401 0.85559 1.23500
Zn	Zn	0.66567 0.51413 0.29017 1.23400
Zn	Zn	0.98936 0.64154 0.62151 1.23200
Zn	Zn	0.06487 0.98259 0.14127 1.23700
P 	P 	0.56896 0.66079 0.31877 0.47900
P 	P 	0.84371 0.44386 0.11811 0.45500
P 	P 	0.10040 0.68252 0.37366 0.43500
P 	P 	0.36453 0.46403 0.16349 0.47400
P 	P 	0.13130 0.60181 0.90253 0.45500
P 	P 	0.92373 0.85523 0.15390 0.58200
P 	P 	0.82114 0.76569 0.62122 0.42700
P 	P 	0.19954 0.02234 0.42115 0.46600
O 	O 	0.42290 0.66359 0.24760 -0.46100
O 	O 	0.63620 0.72401 0.30270 -0.43000
O 	O 	0.64880 0.60556 0.28300 -0.48000
O 	O 	0.80100 0.50281 0.18160 -0.41700
O 	O 	0.82520 0.45060 0.97470 -0.45300
O 	O 	0.98710 0.42600 0.18250 -0.44000
O 	O 	0.95820 0.70146 0.30390 -0.44400
O 	O 	0.14430 0.62328 0.31020 -0.41800
O 	O 	0.11220 0.67583 0.51630 -0.43900
O 	O 	0.28930 0.51908 0.20860 -0.48500
O 	O 	0.51410 0.46090 0.22170 -0.46000
O 	O 	0.29900 0.40059 0.18060 -0.44100
O 	O 	0.18720 0.63934 0.02390 -0.41900
O 	O 	0.11540 0.64582 0.78640 -0.41600
O 	O 	0.99950 0.56738 0.91180 -0.46800
O 	O 	0.80800 0.82604 0.20690 -0.43700
O 	O 	0.93760 0.82682 0.02580 -0.45500
O 	O 	0.91120 0.92728 0.14870 -0.47300
O 	O 	0.83030 0.69430 0.61550 -0.47100
O 	O 	0.89940 0.79276 0.74500 -0.43000
O 	O 	0.86580 0.79773 0.50590 -0.43800
O 	O 	0.24860 0.98301 0.53940 -0.40300
O 	O 	0.06500 0.05467 0.42850 -0.47100
O 	O 	0.19300 0.98260 0.30380 -0.42300
H 	H 	0.58340 0.65520 0.44850 -0.05100
H 	H 	0.73860 0.39710 0.12300 -0.02300
H 	H 	0.22030 0.73420 0.35160 -0.00400
H 	H 	0.36400 0.45930 0.03500 -0.04200
H 	H 	0.21530 0.55690 0.88710 -0.07300
H 	H 	0.00850 0.84510 0.21500 -0.16900
H 	H 	0.66750 0.78050 0.60970 -0.01400
H 	H 	0.27730 0.06460 0.43080 -0.10800
Zn	Zn	0.18191 0.25986 0.66402 1.23500
Zn	Zn	0.72915 0.10929 0.80533 1.23500
Zn	Zn	0.11934 0.36401 0.14441 1.23500
Zn	Zn	0.33433 0.01413 0.70983 1.22700
Zn	Zn	0.01064 0.14154 0.37849 1.23100
Zn	Zn	0.93513 0.48259 0.85873 1.23200
P 	P 	0.43104 0.16079 0.68123 0.47800
P 	P 	0.15629 0.94386 0.88189 0.46900
P 	P 	0.89960 0.18252 0.62634 0.43500
P 	P 	0.63547 0.96403 0.83651 0.49000
P 	P 	0.86870 0.10181 0.09747 0.45600
P 	P 	0.07627 0.35523 0.84610 0.58400
P 	P 	0.17886 0.26569 0.37878 0.42700
P 	P 	0.80046 0.52234 0.57885 0.50100
O 	O 	0.57710 0.16359 0.75240 -0.46200
O 	O 	0.36380 0.22401 0.69730 -0.43100
O 	O 	0.35120 0.10556 0.71700 -0.48400
O 	O 	0.19900 0.00281 0.81840 -0.43500
O 	O 	0.17480 0.95060 0.02530 -0.44900
O 	O 	0.01290 0.92600 0.81750 -0.43600
O 	O 	0.04180 0.20146 0.69610 -0.44500
O 	O 	0.85570 0.12328 0.68980 -0.42000
O 	O 	0.88780 0.17583 0.48370 -0.44000
O 	O 	0.71070 0.01908 0.79140 -0.50100
O 	O 	0.48590 0.96090 0.77830 -0.45300
O 	O 	0.70100 0.90059 0.81940 -0.44000
O 	O 	0.81280 0.13934 0.97610 -0.42000
O 	O 	0.88460 0.14582 0.21360 -0.41800
O 	O 	0.00050 0.06738 0.08820 -0.47700
O 	O 	0.19200 0.32604 0.79310 -0.43900
O 	O 	0.06240 0.32682 0.97420 -0.45500
O 	O 	0.08880 0.42728 0.85130 -0.47900
O 	O 	0.16970 0.19430 0.38450 -0.47200
O 	O 	0.10060 0.29276 0.25500 -0.43100
O 	O 	0.13420 0.29773 0.49410 -0.44000
O 	O 	0.75140 0.48301 0.46060 -0.42600
O 	O 	0.93500 0.55467 0.57150 -0.46900
O 	O 	0.80700 0.48260 0.69620 -0.44300
H 	H 	0.41660 0.15520 0.55150 -0.05200
H 	H 	0.26140 0.89710 0.87700 -0.02200
H 	H 	0.77970 0.23420 0.64840 -0.00400
H 	H 	0.63600 0.95930 0.96500 -0.03900
H 	H 	0.78470 0.05690 0.11290 -0.07900
H 	H 	0.99150 0.34510 0.78500 -0.17100
H 	H 	0.33250 0.28050 0.39030 -0.01500
H 	H 	0.72270 0.56460 0.56920 -0.11100
