data_crystal

_cell_length_a 14.32630
_cell_length_b 25.78390
_cell_length_c 8.11850
_cell_angle_alpha 90.00000
_cell_angle_beta  101.59800
_cell_angle_gamma 90.00000

_symmetry_space_group_name_	'P 1'
_symmetry_space_group_name_H-M	'P 1'

loop_
_symmetry_equiv_pos_as_xyz
  x,y,z

loop_
_atom_site_label
_atom_site_type_symbol
_atom_site_fract_x
_atom_site_fract_y
_atom_site_fract_z
_atom_site_charge
Zn	Zn	0.52545 0.51517 0.95410 1.19900
Zn	Zn	0.66635 0.68944 0.74038 1.24500
Zn	Zn	0.38592 0.68630 0.20223 1.22900
P 	P 	0.69762 0.77067 0.45900 0.45700
P 	P 	0.63855 0.56812 0.69149 0.43300
P 	P 	0.40920 0.56301 0.21261 0.49100
O 	O 	0.64750 0.74203 0.57170 -0.45100
O 	O 	0.76890 0.80933 0.53320 -0.43300
O 	O 	0.73400 0.72780 0.35400 -0.06700
O 	O 	0.56120 0.56321 0.79260 -0.48200
O 	O 	0.62900 0.52979 0.54710 -0.43800
O 	O 	0.64080 0.62309 0.62470 -0.40300
O 	O 	0.49210 0.56097 0.12230 -0.41800
O 	O 	0.41330 0.52239 0.34540 -0.44300
O 	O 	0.39990 0.61583 0.28550 -0.42100
H 	H 	0.63610 0.80190 0.34240 0.02000
H 	H 	0.73070 0.55920 0.84080 -0.02800
H 	H 	0.33270 0.56490 0.11980 -0.04600
P 	P 	0.88140 0.71567 0.91440 0.72200
O 	O 	0.90530 0.69960 0.09890 -0.02900
O 	O 	0.87290 0.77677 0.90230 -0.39900
O 	O 	0.79440 0.68933 0.85880 -0.50300
H 	H 	0.96080 0.70830 0.86840 -0.08800
P 	P 	0.52150 0.72796 0.96800 0.47600
O 	O 	0.49880 0.70620 0.12380 -0.37100
O 	O 	0.56300 0.69460 0.85400 -0.20800
H 	H 	0.56500 0.77860 0.99800 0.00900
O 	O 	0.42110 0.73490 0.83220 -0.17400
O 	O 	0.59500 0.69660 0.92400 -0.27500
O 	O 	0.75600 0.73900 0.35300 -0.10900
O 	O 	0.97400 0.72560 0.42800 -0.10800
O 	O 	0.85510 0.73680 0.16480 0.07000
P 	P 	0.86230 0.72870 0.98480 -0.34200
Zn	Zn	0.02545 0.01517 0.95410 1.16000
Zn	Zn	0.16635 0.18944 0.74038 1.23900
Zn	Zn	0.88592 0.18630 0.20223 1.23300
P 	P 	0.19762 0.27067 0.45900 0.45100
P 	P 	0.13855 0.06812 0.69149 0.42700
P 	P 	0.90920 0.06301 0.21261 0.49000
O 	O 	0.14750 0.24203 0.57170 -0.48700
O 	O 	0.26890 0.30933 0.53320 -0.44700
O 	O 	0.23400 0.22780 0.35400 -0.05000
O 	O 	0.06120 0.06321 0.79260 -0.53400
O 	O 	0.12900 0.02979 0.54710 -0.47400
O 	O 	0.14080 0.12309 0.62470 -0.43400
O 	O 	0.99210 0.06097 0.12230 -0.34200
O 	O 	0.91330 0.02239 0.34540 -0.38500
O 	O 	0.89990 0.11583 0.28550 -0.38900
H 	H 	0.13610 0.30190 0.34240 -0.01400
H 	H 	0.23070 0.05920 0.84080 -0.04300
H 	H 	0.83270 0.06490 0.11980 -0.02900
P 	P 	0.38140 0.21567 0.91440 0.69900
O 	O 	0.40530 0.19960 0.09890 -0.05800
O 	O 	0.37290 0.27677 0.90230 -0.42400
O 	O 	0.29440 0.18933 0.85880 -0.51300
H 	H 	0.46080 0.20830 0.86840 -0.11900
P 	P 	0.02150 0.22796 0.96800 0.24000
O 	O 	0.99880 0.20620 0.12380 -0.24700
O 	O 	0.06300 0.19460 0.85400 -0.28400
H 	H 	0.06500 0.27860 0.99800 -0.03800
O 	O 	0.92110 0.23490 0.83220 -0.11600
O 	O 	0.09500 0.19660 0.92400 -0.20000
O 	O 	0.25600 0.23900 0.35300 -0.14000
O 	O 	0.47400 0.22560 0.42800 -0.24100
O 	O 	0.35510 0.23680 0.16480 0.06400
P 	P 	0.36230 0.22870 0.98480 -0.32100
Zn	Zn	0.52545 0.48483 0.45410 1.23500
Zn	Zn	0.66635 0.31056 0.24038 1.26100
Zn	Zn	0.38592 0.31370 0.70223 1.23500
P 	P 	0.69762 0.22933 0.95900 0.28000
P 	P 	0.63855 0.43188 0.19149 0.44000
P 	P 	0.40920 0.43699 0.71261 0.49000
O 	O 	0.64750 0.25797 0.07170 -0.34600
O 	O 	0.76890 0.19067 0.03320 -0.33300
O 	O 	0.73400 0.27220 0.85400 -0.08500
O 	O 	0.56120 0.43679 0.29260 -0.44100
O 	O 	0.62900 0.47021 0.04710 -0.37600
O 	O 	0.64080 0.37691 0.12470 -0.36900
O 	O 	0.49210 0.43903 0.62230 -0.47500
O 	O 	0.41330 0.47761 0.84540 -0.49300
O 	O 	0.39990 0.38417 0.78550 -0.45200
H 	H 	0.63610 0.19810 0.84240 -0.00000
H 	H 	0.73070 0.44080 0.34080 0.00100
H 	H 	0.33270 0.43510 0.61980 -0.07400
P 	P 	0.88140 0.28433 0.41440 2.29700
O 	O 	0.90530 0.30040 0.59890 0.03700
O 	O 	0.87290 0.22323 0.40230 -0.25900
O 	O 	0.79440 0.31067 0.35880 -0.63400
H 	H 	0.96080 0.29170 0.36840 -0.35800
P 	P 	0.52150 0.27204 0.46800 0.55300
O 	O 	0.49880 0.29380 0.62380 -0.45400
O 	O 	0.56300 0.30540 0.35400 -0.25100
H 	H 	0.56500 0.22140 0.49800 0.04000
O 	O 	0.42110 0.26510 0.33220 -0.11800
O 	O 	0.59500 0.30340 0.42400 -0.20000
O 	O 	0.75600 0.26100 0.85300 -0.13000
O 	O 	0.97400 0.27440 0.92800 -0.13700
O 	O 	0.85510 0.26320 0.66480 0.27900
P 	P 	0.86230 0.27130 0.48480 -1.83300
Zn	Zn	0.02545 0.98483 0.45410 1.19400
Zn	Zn	0.16635 0.81056 0.24038 1.25500
Zn	Zn	0.88592 0.81370 0.70223 1.23800
P 	P 	0.19762 0.72933 0.95900 0.26900
P 	P 	0.13855 0.93188 0.19149 0.43400
P 	P 	0.90920 0.93699 0.71261 0.49000
O 	O 	0.14750 0.75797 0.07170 -0.38000
O 	O 	0.26890 0.69067 0.03320 -0.34300
O 	O 	0.23400 0.77220 0.85400 -0.06800
O 	O 	0.06120 0.93679 0.29260 -0.49500
O 	O 	0.12900 0.97021 0.04710 -0.41300
O 	O 	0.14080 0.87691 0.12470 -0.39900
O 	O 	0.99210 0.93903 0.62230 -0.39800
O 	O 	0.91330 0.97761 0.84540 -0.43600
O 	O 	0.89990 0.88417 0.78550 -0.42000
H 	H 	0.13610 0.69810 0.84240 -0.03500
H 	H 	0.23070 0.94080 0.34080 -0.01500
H 	H 	0.83270 0.93510 0.61980 -0.05700
P 	P 	0.38140 0.78433 0.41440 2.28400
O 	O 	0.40530 0.80040 0.59890 0.00700
O 	O 	0.37290 0.72323 0.40230 -0.28300
O 	O 	0.29440 0.81067 0.35880 -0.64600
H 	H 	0.46080 0.79170 0.36840 -0.39000
P 	P 	0.02150 0.77204 0.46800 0.31300
O 	O 	0.99880 0.79380 0.62380 -0.32600
O 	O 	0.06300 0.80540 0.35400 -0.32500
H 	H 	0.06500 0.72140 0.49800 -0.00700
O 	O 	0.92110 0.76510 0.33220 -0.06100
O 	O 	0.09500 0.80340 0.42400 -0.12600
O 	O 	0.25600 0.76100 0.85300 -0.16100
O 	O 	0.47400 0.77440 0.92800 -0.27100
O 	O 	0.35510 0.76320 0.66480 0.27300
P 	P 	0.36230 0.77130 0.48480 -1.82100
