data_crystal

_cell_length_a 6.88600
_cell_length_b 6.88600
_cell_length_c 8.30000
_cell_angle_alpha 90.00000
_cell_angle_beta  90.00000
_cell_angle_gamma 90.00000

_symmetry_space_group_name_	'P 1'
_symmetry_space_group_name_H-M	'P 1'

loop_
_symmetry_equiv_pos_as_xyz
  x,y,z

loop_
_atom_site_label
_atom_site_type_symbol
_atom_site_fract_x
_atom_site_fract_y
_atom_site_fract_z
_atom_site_charge
C 	C 	0.44050 0.10000 0.37240 0.07500
C 	C 	0.55950 0.90000 0.37240 0.07400
C 	C 	0.90000 0.44050 0.37240 0.07400
C 	C 	0.10000 0.55950 0.37240 0.07400
C 	C 	0.55950 0.10000 0.62760 0.07000
C 	C 	0.44050 0.90000 0.62760 0.07000
C 	C 	0.10000 0.44050 0.62760 0.07000
C 	C 	0.90000 0.55950 0.62760 0.07000
C 	C 	0.55950 0.90000 0.62760 0.07000
C 	C 	0.44050 0.10000 0.62760 0.07000
C 	C 	0.10000 0.55950 0.62760 0.07000
C 	C 	0.90000 0.44050 0.62760 0.07000
C 	C 	0.44050 0.90000 0.37240 0.07400
C 	C 	0.55950 0.10000 0.37240 0.07400
C 	C 	0.90000 0.55950 0.37240 0.07400
C 	C 	0.10000 0.44050 0.37240 0.07400
Cu	Cu	0.50000 0.50000 0.50000 0.96400
N 	N 	0.50000 0.20060 0.50000 -0.20000
N 	N 	0.50000 0.79940 0.50000 -0.20000
N 	N 	0.79940 0.50000 0.50000 -0.20000
N 	N 	0.20060 0.50000 0.50000 -0.20000
W 	W 	0.50000 0.50000 -0.00000 2.22500
F 	F 	0.50000 0.50000 0.22960 -0.56800
F 	F 	0.50000 0.50000 0.77040 -0.58200
F 	F 	0.41810 0.24110 -0.00000 -0.29900
F 	F 	0.58190 0.75890 -0.00000 -0.29900
F 	F 	0.75890 0.41810 -0.00000 -0.29900
F 	F 	0.24110 0.58190 -0.00000 -0.29900
F 	F 	0.58190 0.24110 -0.00000 -0.29900
F 	F 	0.41810 0.75890 -0.00000 -0.29900
F 	F 	0.24110 0.41810 -0.00000 -0.29900
F 	F 	0.75890 0.58190 -0.00000 -0.29900
