data_crystal

_cell_length_a 9.74500
_cell_length_b 9.74500
_cell_length_c 10.77420
_cell_angle_alpha 63.11250
_cell_angle_beta  63.11250
_cell_angle_gamma 89.99990

_symmetry_space_group_name_	'P 1'
_symmetry_space_group_name_H-M	'P 1'

loop_
_symmetry_equiv_pos_as_xyz
  x,y,z

loop_
_atom_site_label
_atom_site_type_symbol
_atom_site_fract_x
_atom_site_fract_y
_atom_site_fract_z
_atom_site_charge
Cu	Cu	0.75000 0.75000 0.50000 0.89800
Cu	Cu	0.25000 0.25000 0.50000 0.89400
W 	W 	-0.00000 0.00000 -0.00000 0.33400
W 	W 	0.50000 0.50000 -0.00000 0.44400
C 	C 	0.85490 0.91530 0.62800 0.06800
C 	C 	0.51710 0.45670 0.62800 0.01300
C 	C 	0.91530 0.51710 0.62800 0.06400
C 	C 	0.45670 0.85490 0.62800 0.00700
C 	C 	0.98290 0.58470 0.37200 0.05900
C 	C 	0.64510 0.04330 0.37200 -0.03400
C 	C 	0.04330 0.98290 0.37200 0.01600
C 	C 	0.58470 0.64510 0.37200 0.00700
C 	C 	0.14510 0.08470 0.37200 -0.03700
C 	C 	0.48290 0.54330 0.37200 0.00900
C 	C 	0.08470 0.48290 0.37200 -0.04400
C 	C 	0.54330 0.14510 0.37200 0.01500
C 	C 	0.01710 0.41530 0.62800 -0.03800
C 	C 	0.35490 0.95670 0.62800 0.05200
C 	C 	0.95670 0.01710 0.62800 0.02700
C 	C 	0.41530 0.35490 0.62800 0.01200
N 	N 	0.89960 0.89960 0.50000 -0.18400
N 	N 	0.60040 0.60040 0.50000 -0.19300
N 	N 	0.89960 0.60040 0.50000 -0.20500
N 	N 	0.60040 0.89960 0.50000 -0.17000
N 	N 	0.10040 0.10040 0.50000 -0.20800
N 	N 	0.39960 0.39960 0.50000 -0.19400
N 	N 	0.10040 0.39960 0.50000 -0.18100
N 	N 	0.39960 0.10040 0.50000 -0.21600
O 	O 	0.88570 0.88570 0.22860 -0.32800
O 	O 	0.61430 0.61430 0.77140 -0.32800
O 	O 	0.11430 0.11430 0.77140 -0.32900
O 	O 	0.38570 0.38570 0.22860 -0.38100
H 	H 	0.52916 0.41640 0.73895 0.02300
H 	H 	0.84464 0.52916 0.73895 0.02100
H 	H 	0.41640 0.73188 0.73895 0.02700
H 	H 	0.97084 0.65536 0.26105 0.00100
H 	H 	0.76812 0.08360 0.26105 0.00300
H 	H 	0.08360 0.97084 0.26105 -0.00400
H 	H 	0.65536 0.76812 0.26105 0.00900
H 	H 	0.26812 0.15536 0.26105 -0.00200
H 	H 	0.47084 0.58360 0.26105 0.00000
H 	H 	0.15536 0.47084 0.26105 0.00100
H 	H 	0.58360 0.26812 0.26105 -0.00400
H 	H 	0.02916 0.34464 0.73895 0.02900
H 	H 	0.23188 0.91640 0.73895 0.02600
H 	H 	0.34464 0.23188 0.73895 0.02100
