data_crystal

_cell_length_a 14.39500
_cell_length_b 15.20300
_cell_length_c 33.37100
_cell_angle_alpha 90.00000
_cell_angle_beta  90.00000
_cell_angle_gamma 90.00000

_symmetry_space_group_name_	'P 1'
_symmetry_space_group_name_H-M	'P 1'

loop_
_symmetry_equiv_pos_as_xyz
  x,y,z

loop_
_atom_site_label
_atom_site_type_symbol
_atom_site_fract_x
_atom_site_fract_y
_atom_site_fract_z
_atom_site_charge
K 	K 	0.68597 0.28411 0.04592 0.64500
K 	K 	0.68597 0.28411 0.45408 0.64500
K 	K 	0.18597 0.21589 0.95408 0.64500
K 	K 	0.19068 0.23297 0.14305 0.64800
K 	K 	0.80932 0.76703 0.85695 0.64900
K 	K 	0.18597 0.21589 0.54592 0.64600
K 	K 	0.18531 0.24250 0.75000 0.64800
K 	K 	0.69068 0.26703 0.64305 0.64900
K 	K 	0.81403 0.78411 0.04592 0.64600
K 	K 	0.68531 0.25750 0.25000 0.64800
K 	K 	0.30932 0.73297 0.14305 0.64900
K 	K 	0.80932 0.76703 0.64305 0.64900
K 	K 	0.81469 0.75750 0.25000 0.64800
K 	K 	0.31469 0.74250 0.75000 0.64800
K 	K 	0.31403 0.71589 0.95408 0.64600
K 	K 	0.31403 0.71589 0.54592 0.64600
K 	K 	0.19068 0.23297 0.35695 0.64900
K 	K 	0.81403 0.78411 0.45408 0.64600
K 	K 	0.69068 0.26703 0.85695 0.64900
K 	K 	0.30932 0.73297 0.35695 0.64900
Ho	Ho	0.87044 0.30395 0.15080 1.59200
Ho	Ho	0.37044 0.19605 0.84920 1.59200
Ho	Ho	0.11240 0.70201 0.05105 1.55300
Ho	Ho	0.88760 0.29799 0.55105 1.55300
Ho	Ho	0.64009 0.82088 0.75000 1.57200
Ho	Ho	0.87044 0.30395 0.34920 1.59200
Ho	Ho	0.14009 0.67912 0.25000 1.57200
Ho	Ho	0.85991 0.32088 0.75000 1.57200
Ho	Ho	0.37044 0.19605 0.65080 1.59200
Ho	Ho	0.61240 0.79799 0.94895 1.55300
Ho	Ho	0.62956 0.80395 0.15080 1.59200
Ho	Ho	0.61240 0.79799 0.55105 1.55300
Ho	Ho	0.62956 0.80395 0.34920 1.59200
Ho	Ho	0.12956 0.69605 0.84920 1.59200
Ho	Ho	0.35991 0.17912 0.25000 1.57200
Ho	Ho	0.88760 0.29799 0.94895 1.55300
Ho	Ho	0.38760 0.20201 0.05105 1.55300
Ho	Ho	0.11240 0.70201 0.44895 1.55300
Ho	Ho	0.38760 0.20201 0.44895 1.55300
Ho	Ho	0.12956 0.69605 0.65080 1.59200
C 	C 	0.83750 0.54150 0.75000 -0.00100
C 	C 	0.17150 0.48670 0.44922 -0.00200
C 	C 	0.00820 0.50760 0.64980 -0.00500
C 	C 	0.01660 0.59110 0.75000 -0.05700
C 	C 	0.13810 0.37210 0.25000 -0.02600
C 	C 	0.27910 0.81800 0.64684 0.33800
C 	C 	0.00290 0.41100 0.04976 -0.05600
C 	C 	0.48900 0.08190 0.35064 -0.05600
C 	C 	0.99290 0.50190 0.75000 -0.00400
C 	C 	0.38410 0.12410 0.75000 0.40500
C 	C 	0.10770 0.62320 0.15029 0.42000
C 	C 	0.93240 0.56780 0.04813 0.33900
C 	C 	0.56320 0.08170 0.85042 0.34100
C 	C 	0.14600 0.38920 0.64726 -0.02000
C 	C 	0.66260 0.10380 0.94933 -0.01600
C 	C 	0.16260 0.39620 0.05067 -0.01600
C 	C 	0.73780 0.46230 0.95040 0.33300
C 	C 	0.16260 0.39620 0.44933 -0.01600
C 	C 	0.56760 0.06780 0.04813 0.33900
C 	C 	0.93680 0.58170 0.85042 0.34100
C 	C 	0.05990 0.42390 0.75000 0.33800
C 	C 	0.29260 0.79660 0.25000 0.35200
C 	C 	0.33540 0.97860 0.64751 0.00000
C 	C 	0.98340 0.40890 0.25000 -0.05700
C 	C 	0.26220 0.53770 0.45040 0.33300
C 	C 	0.50820 0.99240 0.35020 -0.00600
C 	C 	0.24250 0.33180 0.05010 0.32700
C 	C 	0.83740 0.60380 0.94933 -0.01600
C 	C 	0.77910 0.68200 0.14684 0.33800
C 	C 	0.79260 0.70340 0.75000 0.35200
C 	C 	0.82850 0.51330 0.55078 -0.00200
C 	C 	0.23890 0.01990 0.64486 0.33100
C 	C 	0.44010 0.92390 0.75000 0.33900
C 	C 	0.51160 0.99820 0.54929 -0.00500
C 	C 	0.74250 0.16820 0.94990 0.32700
C 	C 	0.00820 0.50760 0.85020 -0.00500
C 	C 	0.63810 0.12790 0.75000 -0.02600
C 	C 	0.32850 0.98670 0.44922 -0.00300
C 	C 	0.41070 0.13870 0.95044 0.44100
C 	C 	0.76110 0.98010 0.35514 0.33100
C 	C 	0.82850 0.51330 0.94922 -0.00200
C 	C 	0.36190 0.87210 0.25000 -0.02600
C 	C 	0.23910 0.99630 0.25000 0.33300
C 	C 	0.73910 0.50370 0.75000 0.33400
C 	C 	0.26090 0.49630 0.25000 0.33400
C 	C 	0.55990 0.07610 0.25000 0.33900
C 	C 	0.67150 0.01330 0.94922 -0.00300
C 	C 	0.93240 0.56780 0.45187 0.33900
C 	C 	0.51660 0.90890 0.25000 -0.05700
C 	C 	0.06760 0.43220 0.95187 0.33900
C 	C 	0.26110 0.51990 0.64486 0.33200
C 	C 	0.72090 0.18200 0.35316 0.33800
C 	C 	0.91070 0.36130 0.45044 0.44100
C 	C 	0.48900 0.08190 0.14936 -0.05600
C 	C 	0.56320 0.08170 0.64958 0.34100
C 	C 	0.58930 0.86130 0.45044 0.44100
C 	C 	0.66460 0.02140 0.14751 0.00000
C 	C 	0.01160 0.50180 0.04929 -0.00400
C 	C 	0.66250 0.04150 0.75000 -0.00100
C 	C 	0.00290 0.41100 0.45024 -0.05600
C 	C 	0.61590 0.87590 0.25000 0.40500
C 	C 	0.48840 0.00180 0.45071 -0.00500
C 	C 	0.49710 0.91100 0.45024 -0.05700
C 	C 	0.08930 0.63870 0.54956 0.44100
C 	C 	0.24250 0.33180 0.44990 0.32700
C 	C 	0.76220 0.96230 0.54960 0.33400
C 	C 	0.85400 0.61080 0.35274 -0.02000
C 	C 	0.00710 0.49810 0.25000 -0.00400
C 	C 	0.23780 0.03770 0.45040 0.33400
C 	C 	0.93680 0.58170 0.64958 0.34100
C 	C 	0.98900 0.41810 0.64936 -0.05600
C 	C 	0.86190 0.62790 0.75000 -0.02600
C 	C 	0.22090 0.31800 0.64684 0.33800
C 	C 	0.85400 0.61080 0.14726 -0.02000
C 	C 	0.23780 0.03770 0.04960 0.33400
C 	C 	0.14600 0.38920 0.85274 -0.02000
C 	C 	0.91070 0.36130 0.04956 0.44200
C 	C 	0.76110 0.98010 0.14486 0.33100
C 	C 	0.16250 0.45850 0.25000 -0.00100
C 	C 	0.22090 0.31800 0.85316 0.33800
C 	C 	0.26110 0.51990 0.85514 0.33200
C 	C 	0.32850 0.98670 0.05078 -0.00300
C 	C 	0.60770 0.87680 0.84971 0.42000
C 	C 	0.10770 0.62320 0.34971 0.42000
C 	C 	0.72090 0.18200 0.14684 0.33800
C 	C 	0.16460 0.47860 0.64751 0.00000
C 	C 	0.49290 0.99810 0.25000 -0.00600
C 	C 	0.77910 0.68200 0.35316 0.33800
C 	C 	0.75750 0.66820 0.94990 0.32700
C 	C 	0.99180 0.49240 0.14980 -0.00500
C 	C 	0.43240 0.93220 0.54813 0.33900
C 	C 	0.51100 0.91810 0.64936 -0.05600
C 	C 	0.99710 0.58900 0.54976 -0.05600
C 	C 	0.89230 0.37680 0.84971 0.42000
C 	C 	0.25750 0.83180 0.44990 0.32700
C 	C 	0.17150 0.48670 0.05078 -0.00200
C 	C 	0.89230 0.37680 0.65029 0.42000
C 	C 	0.49180 0.00760 0.64980 -0.00600
C 	C 	0.49710 0.91100 0.04976 -0.05700
C 	C 	0.06320 0.41830 0.35042 0.34100
C 	C 	0.50290 0.08900 0.95024 -0.05700
C 	C 	0.64600 0.11080 0.14726 -0.02100
C 	C 	0.73890 0.48010 0.35514 0.33200
C 	C 	0.67150 0.01330 0.55078 -0.00300
C 	C 	0.39230 0.12320 0.15029 0.42000
C 	C 	0.43680 0.91830 0.35042 0.34100
C 	C 	0.41070 0.13870 0.54956 0.44100
C 	C 	0.01160 0.50180 0.45071 -0.00400
C 	C 	0.49180 0.00760 0.85020 -0.00600
C 	C 	0.35400 0.88920 0.64726 -0.02100
C 	C 	0.51100 0.91810 0.85064 -0.05600
C 	C 	0.27910 0.81800 0.85316 0.33800
C 	C 	0.25750 0.83180 0.05010 0.32700
C 	C 	0.60770 0.87680 0.65029 0.42000
C 	C 	0.43240 0.93220 0.95187 0.33900
C 	C 	0.33740 0.89620 0.44933 -0.01600
C 	C 	0.20740 0.29660 0.25000 0.35200
C 	C 	0.88410 0.37590 0.25000 0.40600
C 	C 	0.99710 0.58900 0.95024 -0.05600
C 	C 	0.73780 0.46230 0.54960 0.33300
C 	C 	0.50820 0.99240 0.14980 -0.00600
C 	C 	0.06760 0.43220 0.54813 0.33900
C 	C 	0.50710 0.00190 0.75000 -0.00600
C 	C 	0.48340 0.09110 0.75000 -0.05700
C 	C 	0.43680 0.91830 0.14958 0.34100
C 	C 	0.73890 0.48010 0.14486 0.33200
C 	C 	0.01100 0.58190 0.35064 -0.05600
C 	C 	0.98900 0.41810 0.85064 -0.05600
C 	C 	0.08930 0.63870 0.95044 0.44200
C 	C 	0.26220 0.53770 0.04960 0.33300
C 	C 	0.06320 0.41830 0.14958 0.34100
C 	C 	0.39230 0.12320 0.34971 0.42000
C 	C 	0.56760 0.06780 0.45187 0.33900
C 	C 	0.16460 0.47860 0.85249 0.00000
C 	C 	0.83740 0.60380 0.55067 -0.01600
C 	C 	0.66260 0.10380 0.55067 -0.01600
C 	C 	0.66460 0.02140 0.35249 0.00000
C 	C 	0.70740 0.20340 0.75000 0.35200
C 	C 	0.35400 0.88920 0.85274 -0.02100
C 	C 	0.83540 0.52140 0.35249 0.00000
C 	C 	0.50290 0.08900 0.54976 -0.05700
C 	C 	0.99180 0.49240 0.35020 -0.00500
C 	C 	0.74250 0.16820 0.55010 0.32700
C 	C 	0.33740 0.89620 0.05067 -0.01600
C 	C 	0.98840 0.49820 0.95071 -0.00400
C 	C 	0.11590 0.62410 0.75000 0.40600
C 	C 	0.64600 0.11080 0.35274 -0.02100
C 	C 	0.33540 0.97860 0.85249 0.00000
C 	C 	0.76090 0.00370 0.75000 0.33300
C 	C 	0.98840 0.49820 0.54929 -0.00400
C 	C 	0.01100 0.58190 0.14936 -0.05600
C 	C 	0.94010 0.57610 0.25000 0.33800
C 	C 	0.51160 0.99820 0.95071 -0.00500
C 	C 	0.75750 0.66820 0.55010 0.32700
C 	C 	0.83540 0.52140 0.14751 0.00000
C 	C 	0.23890 0.01990 0.85514 0.33100
C 	C 	0.48840 0.00180 0.04929 -0.00500
C 	C 	0.33750 0.95850 0.25000 -0.00100
C 	C 	0.58930 0.86130 0.04956 0.44100
C 	C 	0.76220 0.96230 0.95040 0.33400
N 	N 	0.05820 0.35830 0.64781 -0.11500
N 	N 	0.59600 0.96140 0.94976 -0.16700
N 	N 	0.05820 0.35830 0.85219 -0.11500
N 	N 	0.94180 0.64170 0.35219 -0.11500
N 	N 	0.09640 0.53630 0.85137 -0.17300
N 	N 	0.55820 0.14170 0.35219 -0.11500
N 	N 	0.59640 0.96370 0.14863 -0.17300
N 	N 	0.04790 0.34650 0.25000 -0.11300
N 	N 	0.07840 0.35860 0.05021 -0.11000
N 	N 	0.94180 0.64170 0.14781 -0.11500
N 	N 	0.57840 0.14140 0.55021 -0.11000
N 	N 	0.57840 0.14140 0.94979 -0.11000
N 	N 	0.40400 0.03860 0.05024 -0.16700
N 	N 	0.09600 0.53860 0.05024 -0.16700
N 	N 	0.92160 0.64140 0.55021 -0.11000
N 	N 	0.92160 0.64140 0.94979 -0.11000
N 	N 	0.44180 0.85830 0.64781 -0.11500
N 	N 	0.95210 0.65350 0.75000 -0.11300
N 	N 	0.59620 0.97800 0.75000 -0.17100
N 	N 	0.90400 0.46140 0.94976 -0.16700
N 	N 	0.44180 0.85830 0.85219 -0.11500
N 	N 	0.40360 0.03630 0.85137 -0.17300
N 	N 	0.90380 0.47800 0.75000 -0.17100
N 	N 	0.42160 0.85860 0.44979 -0.11000
N 	N 	0.40360 0.03630 0.64863 -0.17300
N 	N 	0.09640 0.53630 0.64863 -0.17300
N 	N 	0.90400 0.46140 0.55024 -0.16700
N 	N 	0.54790 0.15350 0.75000 -0.11400
N 	N 	0.07840 0.35860 0.44979 -0.11000
N 	N 	0.42160 0.85860 0.05021 -0.11000
N 	N 	0.59640 0.96370 0.35137 -0.17300
N 	N 	0.09620 0.52200 0.25000 -0.17100
N 	N 	0.55820 0.14170 0.14781 -0.11500
N 	N 	0.45210 0.84650 0.25000 -0.11400
N 	N 	0.40380 0.02200 0.25000 -0.17100
N 	N 	0.90360 0.46370 0.35137 -0.17300
N 	N 	0.40400 0.03860 0.44976 -0.16700
N 	N 	0.90360 0.46370 0.14863 -0.17300
N 	N 	0.09600 0.53860 0.44976 -0.16700
N 	N 	0.59600 0.96140 0.55024 -0.16700
O 	O 	0.12160 0.65900 0.51617 -0.48500
O 	O 	0.25790 0.78350 0.61445 -0.42300
O 	O 	0.75510 0.20560 0.32052 -0.45900
O 	O 	0.52130 0.15100 0.25000 -0.48400
O 	O 	0.14750 0.46110 0.95270 -0.27300
O 	O 	0.76130 0.89680 0.35546 -0.41100
O 	O 	0.34730 0.14080 0.78333 -0.46900
O 	O 	0.17020 0.97150 0.64290 -0.29400
O 	O 	0.12270 0.65870 0.58267 -0.48500
O 	O 	0.15270 0.64080 0.71667 -0.46900
O 	O 	0.67020 0.52850 0.35710 -0.29400
O 	O 	0.36320 0.15110 0.38273 -0.48100
O 	O 	0.37840 0.15900 0.51617 -0.48500
O 	O 	0.21580 0.81310 0.41798 -0.43700
O 	O 	0.02130 0.34900 0.75000 -0.48400
O 	O 	0.71580 0.68690 0.91798 -0.43700
O 	O 	0.73870 0.39680 0.14454 -0.41100
O 	O 	0.24210 0.28350 0.61445 -0.42300
O 	O 	0.85250 0.53890 0.45270 -0.27300
O 	O 	0.65270 0.85920 0.28333 -0.46900
O 	O 	0.24120 0.79350 0.48200 -0.41900
O 	O 	0.28420 0.31310 0.08202 -0.43700
O 	O 	0.14870 0.62630 0.31714 -0.46500
O 	O 	0.45790 0.85190 0.95172 -0.46700
O 	O 	0.62270 0.84130 0.41733 -0.48500
O 	O 	0.04210 0.35190 0.95172 -0.46700
O 	O 	0.62160 0.84100 0.01617 -0.48500
O 	O 	0.26630 0.76700 0.28256 -0.44900
O 	O 	0.23280 0.07880 0.25000 -0.39400
O 	O 	0.82980 0.02850 0.14290 -0.29400
O 	O 	0.66480 0.50440 0.54870 -0.29300
O 	O 	0.24490 0.79440 0.82052 -0.45900
O 	O 	0.17020 0.97150 0.85710 -0.29400
O 	O 	0.73370 0.23300 0.78256 -0.44900
O 	O 	0.35250 0.96110 0.54730 -0.27300
O 	O 	0.85670 0.55950 0.25000 -0.29000
O 	O 	0.73370 0.23300 0.71744 -0.44900
O 	O 	0.65270 0.85920 0.21667 -0.46900
O 	O 	0.78420 0.18690 0.91798 -0.43700
O 	O 	0.76630 0.73300 0.71744 -0.44900
O 	O 	0.24210 0.28350 0.88555 -0.42300
O 	O 	0.13680 0.65110 0.38273 -0.48100
O 	O 	0.63680 0.84890 0.88273 -0.48100
O 	O 	0.85400 0.56240 0.85266 -0.28200
O 	O 	0.85400 0.56240 0.64734 -0.28200
O 	O 	0.62270 0.84130 0.08267 -0.48500
O 	O 	0.73280 0.42120 0.75000 -0.39400
O 	O 	0.85130 0.37370 0.68286 -0.46500
O 	O 	0.86320 0.34890 0.88273 -0.48100
O 	O 	0.28420 0.31310 0.41798 -0.43700
O 	O 	0.35250 0.96110 0.95270 -0.27300
O 	O 	0.97140 0.65830 0.84947 -0.48200
O 	O 	0.64870 0.87370 0.81714 -0.46500
O 	O 	0.76630 0.73300 0.78256 -0.44900
O 	O 	0.23870 0.10320 0.85546 -0.41100
O 	O 	0.24530 0.12030 0.04971 -0.41500
O 	O 	0.52860 0.15830 0.65053 -0.48300
O 	O 	0.83520 0.00440 0.95130 -0.29400
O 	O 	0.74490 0.70560 0.32052 -0.45900
O 	O 	0.45790 0.85190 0.54828 -0.46700
O 	O 	0.34730 0.14080 0.71667 -0.46900
O 	O 	0.95790 0.64810 0.45172 -0.46700
O 	O 	0.71580 0.68690 0.58202 -0.43700
O 	O 	0.87730 0.34130 0.41733 -0.48500
O 	O 	0.75790 0.71650 0.38555 -0.42300
O 	O 	0.14870 0.62630 0.18286 -0.46500
O 	O 	0.04210 0.35190 0.54828 -0.46700
O 	O 	0.74120 0.70650 0.51800 -0.41900
O 	O 	0.74120 0.70650 0.98200 -0.41900
O 	O 	0.14750 0.46110 0.54730 -0.27300
O 	O 	0.14600 0.43760 0.35266 -0.28200
O 	O 	0.74490 0.70560 0.17948 -0.45900
O 	O 	0.47140 0.84170 0.15053 -0.48300
O 	O 	0.64870 0.87370 0.68286 -0.46500
O 	O 	0.15270 0.64080 0.78333 -0.46900
O 	O 	0.74210 0.21650 0.11445 -0.42300
O 	O 	0.84730 0.35920 0.28333 -0.46900
O 	O 	0.75880 0.20650 0.51800 -0.41900
O 	O 	0.25510 0.29440 0.82052 -0.45900
O 	O 	0.23870 0.10320 0.64454 -0.41100
O 	O 	0.25510 0.29440 0.67948 -0.45900
O 	O 	0.33520 0.49560 0.04870 -0.29300
O 	O 	0.78420 0.18690 0.58202 -0.43700
O 	O 	0.24530 0.12030 0.45029 -0.41500
O 	O 	0.64750 0.03890 0.45270 -0.27300
O 	O 	0.02860 0.34170 0.15053 -0.48200
O 	O 	0.75470 0.87970 0.95029 -0.41500
O 	O 	0.84730 0.35920 0.21667 -0.46900
O 	O 	0.25790 0.78350 0.88555 -0.42300
O 	O 	0.87840 0.34100 0.48383 -0.48500
O 	O 	0.74210 0.21650 0.38555 -0.42300
O 	O 	0.87840 0.34100 0.01617 -0.48500
O 	O 	0.32980 0.47150 0.64290 -0.29400
O 	O 	0.12270 0.65870 0.91733 -0.48500
O 	O 	0.35400 0.93760 0.35266 -0.28300
O 	O 	0.75790 0.71650 0.11445 -0.42300
O 	O 	0.13680 0.65110 0.11727 -0.48100
O 	O 	0.66480 0.50440 0.95130 -0.29300
O 	O 	0.76720 0.92120 0.75000 -0.39400
O 	O 	0.25880 0.29350 0.48200 -0.41900
O 	O 	0.64600 0.06240 0.64734 -0.28300
O 	O 	0.85130 0.37370 0.81714 -0.46500
O 	O 	0.02860 0.34170 0.34947 -0.48200
O 	O 	0.36320 0.15110 0.11727 -0.48100
O 	O 	0.87730 0.34130 0.08267 -0.48500
O 	O 	0.23370 0.26700 0.21744 -0.44900
O 	O 	0.97870 0.65100 0.25000 -0.48400
O 	O 	0.85250 0.53890 0.04730 -0.27300
O 	O 	0.37730 0.15870 0.58267 -0.48500
O 	O 	0.33520 0.49560 0.45130 -0.29300
O 	O 	0.47870 0.84900 0.75000 -0.48400
O 	O 	0.64750 0.03890 0.04730 -0.27300
O 	O 	0.24120 0.79350 0.01800 -0.41900
O 	O 	0.17370 0.94230 0.25000 -0.29500
O 	O 	0.16480 0.99560 0.04870 -0.29400
O 	O 	0.73870 0.39680 0.35546 -0.41100
O 	O 	0.82630 0.05770 0.75000 -0.29500
O 	O 	0.32630 0.44230 0.25000 -0.29500
O 	O 	0.95790 0.64810 0.04828 -0.46700
O 	O 	0.25880 0.29350 0.01800 -0.41900
O 	O 	0.54210 0.14810 0.45172 -0.46700
O 	O 	0.86320 0.34890 0.61727 -0.48100
O 	O 	0.26130 0.60320 0.64454 -0.41100
O 	O 	0.74530 0.37970 0.95029 -0.41500
O 	O 	0.67020 0.52850 0.14290 -0.29400
O 	O 	0.52860 0.15830 0.84947 -0.48300
O 	O 	0.12160 0.65900 0.98383 -0.48500
O 	O 	0.75510 0.20560 0.17948 -0.45900
O 	O 	0.83520 0.00440 0.54870 -0.29400
O 	O 	0.26720 0.57880 0.25000 -0.39400
O 	O 	0.82980 0.02850 0.35710 -0.29400
O 	O 	0.32980 0.47150 0.85710 -0.29400
O 	O 	0.76130 0.89680 0.14454 -0.41100
O 	O 	0.23370 0.26700 0.28256 -0.44900
O 	O 	0.25470 0.62030 0.04971 -0.41500
O 	O 	0.35130 0.12630 0.31714 -0.46500
O 	O 	0.35130 0.12630 0.18286 -0.46500
O 	O 	0.62160 0.84100 0.48383 -0.48500
O 	O 	0.21580 0.81310 0.08202 -0.43700
O 	O 	0.54210 0.14810 0.04828 -0.46700
O 	O 	0.35670 0.94050 0.75000 -0.29100
O 	O 	0.64330 0.05950 0.25000 -0.29100
O 	O 	0.16480 0.99560 0.45130 -0.29400
O 	O 	0.26130 0.60320 0.85546 -0.41100
O 	O 	0.75470 0.87970 0.54971 -0.41500
O 	O 	0.75880 0.20650 0.98200 -0.41900
O 	O 	0.64600 0.06240 0.85266 -0.28300
O 	O 	0.63680 0.84890 0.61727 -0.48100
O 	O 	0.35400 0.93760 0.14734 -0.28300
O 	O 	0.37730 0.15870 0.91733 -0.48500
O 	O 	0.47140 0.84170 0.34947 -0.48300
O 	O 	0.25470 0.62030 0.45029 -0.41500
O 	O 	0.24490 0.79440 0.67948 -0.45900
O 	O 	0.14330 0.44050 0.75000 -0.29000
O 	O 	0.26630 0.76700 0.21744 -0.44900
O 	O 	0.37840 0.15900 0.98383 -0.48500
O 	O 	0.74530 0.37970 0.54971 -0.41500
O 	O 	0.14600 0.43760 0.14734 -0.28200
O 	O 	0.97140 0.65830 0.65053 -0.48200
O 	O 	0.67370 0.55770 0.75000 -0.29500
