data_crystal

_cell_length_a 9.76400
_cell_length_b 12.19800
_cell_length_c 12.56400
_cell_angle_alpha 62.38000
_cell_angle_beta  67.67000
_cell_angle_gamma 73.03200

_symmetry_space_group_name_	'P 1'
_symmetry_space_group_name_H-M	'P 1'

loop_
_symmetry_equiv_pos_as_xyz
  x,y,z

loop_
_atom_site_label
_atom_site_type_symbol
_atom_site_fract_x
_atom_site_fract_y
_atom_site_fract_z
_atom_site_charge
C 	C 	0.21360 0.32110 0.97900 0.06000
C 	C 	0.34700 0.26200 0.02120 0.24600
C 	C 	0.24020 0.45060 0.87440 -0.12700
H 	H 	0.33090 0.48000 0.84570 0.08600
C 	C 	0.12250 0.52210 0.82440 0.12800
H 	H 	0.13260 0.60210 0.76190 0.00200
C 	C 	0.98970 0.47400 0.86780 -0.22500
H 	H 	0.91100 0.52190 0.83430 0.13000
C 	C 	0.97470 0.35450 0.96110 0.24100
C 	C 	0.09240 0.28300 0.01110 -0.44400
H 	H 	0.08030 0.20240 0.07180 0.17100
C 	C 	0.82670 0.30930 0.01090 0.18300
C 	C 	0.57200 0.88690 0.25610 0.45700
C 	C 	0.59390 0.77200 0.36810 -0.15400
C 	C 	0.64100 0.65730 0.35790 0.07500
H 	H 	0.66020 0.65330 0.28120 0.01600
C 	C 	0.65800 0.54850 0.46220 -0.13100
H 	H 	0.68900 0.47180 0.45530 0.07500
C 	C 	0.62800 0.55440 0.57680 0.06000
H 	H 	0.64000 0.48160 0.64660 0.02200
C 	C 	0.58180 0.66910 0.58710 -0.13300
C 	C 	0.56450 0.77790 0.48280 0.08500
H 	H 	0.53330 0.85460 0.48970 0.05100
C 	C 	0.54500 0.67150 0.71410 0.39600
C 	C 	0.15700 0.30400 0.02600 0.15700
C 	C 	0.61000 0.76000 0.98000 0.23000
Mn	Mn	0.59120 0.17120 0.12500 1.25300
O 	O 	0.36050 0.14250 0.07930 -0.49900
O 	O 	0.44350 0.31710 0.01830 -0.53500
O 	O 	0.71450 0.38530 0.98740 -0.37800
O 	O 	0.81710 0.19300 0.08120 -0.39100
O 	O 	0.54240 0.87590 0.17180 -0.35500
O 	O 	0.59150 0.98720 0.25190 -0.39100
O 	O 	0.49760 0.77510 0.72190 -0.42200
O 	O 	0.55930 0.56810 0.80480 -0.44300
O 	O 	0.86200 0.22600 0.94800 -0.14600
O 	O 	0.63900 0.93700 0.12200 -0.26800
C 	C 	0.78640 0.67890 0.02100 -0.16500
C 	C 	0.65300 0.73800 0.97880 0.16400
C 	C 	0.75980 0.54940 0.12560 0.10900
H 	H 	0.66910 0.52000 0.15430 -0.02000
C 	C 	0.87750 0.47790 0.17560 -0.29400
H 	H 	0.86740 0.39790 0.23810 0.12000
C 	C 	0.01030 0.52600 0.13220 0.30100
H 	H 	0.08900 0.47810 0.16570 -0.06500
C 	C 	0.02530 0.64550 0.03890 -0.47000
C 	C 	0.90760 0.71700 0.98890 0.58200
H 	H 	0.91970 0.79760 0.92820 -0.09800
C 	C 	0.17330 0.69070 0.98910 0.68300
C 	C 	0.42800 0.11310 0.74390 0.47900
C 	C 	0.40610 0.22800 0.63190 -0.19400
C 	C 	0.35900 0.34270 0.64210 0.10200
H 	H 	0.33980 0.34670 0.71880 0.01700
C 	C 	0.34200 0.45150 0.53780 -0.15800
H 	H 	0.31100 0.52820 0.54470 0.09500
C 	C 	0.37200 0.44560 0.42320 0.09000
H 	H 	0.36000 0.51840 0.35340 0.01600
C 	C 	0.41820 0.33090 0.41290 -0.17100
C 	C 	0.43550 0.22210 0.51720 0.11300
H 	H 	0.46670 0.14540 0.51030 -0.00100
C 	C 	0.45500 0.32850 0.28590 0.41500
C 	C 	0.84300 0.69600 0.97400 -0.22000
C 	C 	0.39000 0.24000 0.02000 -0.01300
Mn	Mn	0.40880 0.82880 0.87500 1.31400
O 	O 	0.63950 0.85750 0.92070 -0.44200
O 	O 	0.55650 0.68290 0.98170 -0.51400
O 	O 	0.28550 0.61470 0.01260 -0.60000
O 	O 	0.18290 0.80700 0.91880 -0.38300
O 	O 	0.45760 0.12410 0.82820 -0.37200
O 	O 	0.40850 0.01280 0.74810 -0.50000
O 	O 	0.50240 0.22490 0.27810 -0.48300
O 	O 	0.44070 0.43190 0.19520 -0.46500
O 	O 	0.13800 0.77400 0.05200 -0.24500
O 	O 	0.36100 0.06300 0.87800 -0.29700
Mn	Mn	0.50000 0.00000 -0.00000 1.19700
Mn	Mn	0.50000 0.50000 -0.00000 1.29100
