data_crystal

_cell_length_a 9.71600
_cell_length_b 12.19300
_cell_length_c 12.44230
_cell_angle_alpha 103.86300
_cell_angle_beta  112.12400
_cell_angle_gamma 107.28000

_symmetry_space_group_name_	'P 1'
_symmetry_space_group_name_H-M	'P 1'

loop_
_symmetry_equiv_pos_as_xyz
  x,y,z

loop_
_atom_site_label
_atom_site_type_symbol
_atom_site_fract_x
_atom_site_fract_y
_atom_site_fract_z
_atom_site_charge
Mn	Mn	0.21525 0.32873 0.12322 1.22800
Mn	Mn	0.78475 0.67127 0.87678 1.31500
Mn	Mn	-0.00000 0.00000 -0.00000 1.22100
Mn	Mn	-0.00000 0.50000 -0.00000 1.14700
H 	H 	0.47570 0.35510 0.51210 0.03100
H 	H 	0.56080 0.15130 0.71730 0.02000
H 	H 	0.34860 0.97230 0.54600 0.07100
H 	H 	0.21220 0.98290 0.35440 -0.00500
H 	H 	0.67900 0.01310 0.84720 0.07600
H 	H 	0.39800 0.89810 0.75510 0.00200
H 	H 	0.24670 0.97590 0.82820 0.05800
H 	H 	0.65320 0.29760 0.06850 0.11600
H 	H 	0.52430 0.64490 0.48790 0.03000
H 	H 	0.43920 0.84870 0.28270 0.01500
H 	H 	0.65140 0.02770 0.45400 0.09000
H 	H 	0.78780 0.01710 0.64560 0.04300
H 	H 	0.32100 0.98690 0.15280 -0.08900
H 	H 	0.60200 0.10190 0.24490 0.18000
H 	H 	0.75330 0.02410 0.17180 -0.04300
H 	H 	0.34680 0.70240 0.93150 -0.09900
C 	C 	0.24310 0.17280 0.28600 0.41000
C 	C 	0.33140 0.16940 0.41260 -0.16800
C 	C 	0.45290 0.27780 0.51810 0.08500
C 	C 	0.53990 0.27110 0.63200 -0.15000
C 	C 	0.50200 0.15630 0.64140 0.07000
C 	C 	0.37680 0.04890 0.53840 -0.15400
C 	C 	0.29400 0.05570 0.42420 0.06300
C 	C 	0.87610 0.24100 0.02590 0.27200
C 	C 	0.69450 0.16650 0.96760 0.07200
C 	C 	0.61740 0.04660 0.87390 -0.10900
C 	C 	0.44960 0.97690 0.82010 0.04400
C 	C 	0.35900 0.02390 0.86280 -0.11900
C 	C 	0.43510 0.14350 0.95790 0.09000
C 	C 	0.60300 0.21620 0.00820 -0.20200
C 	C 	0.67350 0.38690 0.74650 0.41400
C 	C 	0.33830 0.19070 0.00950 0.21100
C 	C 	0.75690 0.82720 0.71400 0.40200
C 	C 	0.66860 0.83060 0.58740 -0.13200
C 	C 	0.54710 0.72220 0.48190 0.08300
C 	C 	0.46010 0.72890 0.36800 -0.15900
C 	C 	0.49800 0.84370 0.35860 0.07100
C 	C 	0.62320 0.95110 0.46160 -0.12100
C 	C 	0.70600 0.94430 0.57580 0.06900
C 	C 	0.12390 0.75900 0.97410 0.53300
C 	C 	0.30550 0.83350 0.03240 -0.45300
C 	C 	0.38260 0.95340 0.12610 0.31500
C 	C 	0.55040 0.02310 0.17990 -0.38700
C 	C 	0.64100 0.97610 0.13720 0.31200
C 	C 	0.56490 0.85650 0.04210 -0.40400
C 	C 	0.39700 0.78380 0.99180 0.40200
C 	C 	0.32650 0.61310 0.25350 0.41500
C 	C 	0.66170 0.80930 0.99050 0.53500
O 	O 	0.28230 0.27675 0.27810 -0.48400
O 	O 	0.13693 0.06965 0.19663 -0.52200
O 	O 	0.96387 0.18350 0.02027 -0.44100
O 	O 	0.93991 0.35861 0.08001 -0.40400
O 	O 	0.78651 0.37497 0.82711 -0.43400
O 	O 	0.66105 0.48738 0.75165 -0.46300
O 	O 	0.39670 0.30530 0.07540 -0.43000
O 	O 	0.20120 0.11390 0.98450 -0.44900
O 	O 	0.71770 0.72325 0.72190 -0.42400
O 	O 	0.86307 0.93035 0.80337 -0.38600
O 	O 	0.03613 0.81650 0.97973 -0.64100
O 	O 	0.06009 0.64139 0.91999 -0.60200
O 	O 	0.21349 0.62503 0.17289 -0.55600
O 	O 	0.33895 0.51262 0.24835 -0.51200
O 	O 	0.60330 0.69470 0.92460 -0.47600
O 	O 	0.79880 0.88610 0.01550 -0.49300
