data_crystal

_cell_length_a 7.45230
_cell_length_b 9.77640
_cell_length_c 9.84690
_cell_angle_alpha 118.25500
_cell_angle_beta  102.11800
_cell_angle_gamma 91.35800

_symmetry_space_group_name_	'P 1'
_symmetry_space_group_name_H-M	'P 1'

loop_
_symmetry_equiv_pos_as_xyz
  x,y,z

loop_
_atom_site_label
_atom_site_type_symbol
_atom_site_fract_x
_atom_site_fract_y
_atom_site_fract_z
_atom_site_charge
Cd	Cd	0.76214 0.02622 0.51570 1.21100
Cd	Cd	0.23786 0.97378 0.48430 1.21100
H 	H 	0.82600 0.20030 0.12160 0.05100
H 	H 	0.06860 0.82500 0.09650 0.04200
H 	H 	0.27370 0.30330 0.78530 0.02100
H 	H 	0.81430 0.48560 0.00940 0.05100
H 	H 	0.17400 0.79970 0.87840 0.05100
H 	H 	0.93140 0.17500 0.90350 0.04200
H 	H 	0.72630 0.69670 0.21470 0.02100
H 	H 	0.18570 0.51440 0.99060 0.05100
C 	C 	0.87350 0.03220 0.27130 0.29400
C 	C 	0.93700 0.01390 0.12910 -0.07900
C 	C 	0.89630 0.11900 0.07230 -0.01900
C 	C 	0.04050 0.89600 0.05730 -0.03000
C 	C 	0.61360 0.24230 0.74570 0.32100
C 	C 	0.55350 0.37420 0.87830 -0.08000
C 	C 	0.36530 0.38290 0.87230 -0.01100
C 	C 	0.68650 0.49160 0.00590 -0.01800
C 	C 	0.12650 0.96780 0.72870 0.29400
C 	C 	0.06300 0.98610 0.87090 -0.07900
C 	C 	0.10370 0.88100 0.92770 -0.01900
C 	C 	0.95950 0.10400 0.94270 -0.03000
C 	C 	0.38640 0.75770 0.25430 0.32100
C 	C 	0.44650 0.62580 0.12170 -0.08000
C 	C 	0.63470 0.61710 0.12770 -0.01100
C 	C 	0.31350 0.50840 0.99410 -0.01800
O 	O 	0.76790 0.12900 0.32800 -0.35600
O 	O 	0.93040 0.94370 0.32960 -0.50300
O 	O 	0.52070 0.10610 0.67290 -0.48900
O 	O 	0.75910 0.27020 0.71260 -0.40600
O 	O 	0.23210 0.87100 0.67200 -0.35600
O 	O 	0.06960 0.05630 0.67040 -0.50300
O 	O 	0.47930 0.89390 0.32710 -0.48900
O 	O 	0.24090 0.72980 0.28740 -0.40600
