data_crystal

_cell_length_a 10.78850
_cell_length_b 13.65830
_cell_length_c 14.71880
_cell_angle_alpha 76.10280
_cell_angle_beta  68.50100
_cell_angle_gamma 66.73770

_symmetry_space_group_name_	'P 1'
_symmetry_space_group_name_H-M	'P 1'

loop_
_symmetry_equiv_pos_as_xyz
  x,y,z

loop_
_atom_site_label
_atom_site_type_symbol
_atom_site_fract_x
_atom_site_fract_y
_atom_site_fract_z
_atom_site_charge
Cd	Cd	0.99532 0.03870 0.61262 1.21800
Cd	Cd	0.64664 0.46130 0.88738 1.21900
Cd	Cd	0.00468 0.96130 0.38738 1.21700
Cd	Cd	0.35336 0.53870 0.11262 1.21800
Cd	Cd	0.71817 0.25000 0.75000 1.24300
Cd	Cd	0.28183 0.75000 0.25000 1.24300
H 	H 	0.45570 0.04070 0.90990 0.04900
H 	H 	0.36450 0.90850 0.01010 0.02900
H 	H 	0.68710 0.68460 0.84540 0.02400
H 	H 	0.78330 0.81590 0.75030 0.05100
H 	H 	0.14400 0.86850 0.89530 0.04100
H 	H 	0.86030 0.16440 0.94100 0.03600
H 	H 	0.40630 0.45930 0.59010 0.05300
H 	H 	0.28310 0.59150 0.48990 0.03600
H 	H 	0.21710 0.81540 0.65460 0.02400
H 	H 	0.34950 0.68410 0.74970 0.04900
H 	H 	0.90780 0.63150 0.60470 0.04500
H 	H 	0.96570 0.33560 0.55900 0.03200
H 	H 	0.54430 0.95930 0.09010 0.04900
H 	H 	0.63550 0.09150 0.98990 0.02900
H 	H 	0.31290 0.31540 0.15460 0.02400
H 	H 	0.21670 0.18410 0.24970 0.05100
H 	H 	0.85600 0.13150 0.10470 0.04100
H 	H 	0.13970 0.83560 0.05900 0.03600
H 	H 	0.59370 0.54070 0.40990 0.05300
H 	H 	0.71690 0.40850 0.51010 0.03600
H 	H 	0.78290 0.18460 0.34540 0.02400
H 	H 	0.65050 0.31590 0.25030 0.04900
H 	H 	0.09220 0.36850 0.39530 0.04500
H 	H 	0.03430 0.66440 0.44100 0.03200
C 	C 	0.69517 0.02415 0.76131 0.37100
C 	C 	0.62892 0.94109 0.82127 -0.07100
C 	C 	0.50434 0.96792 0.89760 -0.02600
C 	C 	0.44914 0.88937 0.95675 0.01600
C 	C 	0.51763 0.78346 0.93788 -0.12400
C 	C 	0.64081 0.75691 0.85987 0.00800
C 	C 	0.69731 0.83524 0.80254 -0.03300
C 	C 	0.46045 0.69873 0.00191 0.39100
C 	C 	0.00187 0.03840 0.79786 0.35600
C 	C 	0.00202 0.01922 0.90234 -0.08700
C 	C 	0.08482 0.92244 0.93792 -0.00400
C 	C 	0.91743 0.09697 0.96477 -0.03000
C 	C 	0.48063 0.47585 0.73869 0.38200
C 	C 	0.39128 0.55891 0.67873 -0.07800
C 	C 	0.36986 0.53208 0.60240 -0.03000
C 	C 	0.29526 0.61063 0.54325 0.00700
C 	C 	0.23897 0.71654 0.56212 -0.12400
C 	C 	0.25759 0.74309 0.64013 0.00600
C 	C 	0.33509 0.66476 0.69746 -0.03000
C 	C 	0.16109 0.80127 0.49809 0.39600
C 	C 	0.83813 0.46160 0.70214 0.35300
C 	C 	0.92358 0.48078 0.59766 -0.08600
C 	C 	0.94518 0.57756 0.56208 -0.01600
C 	C 	0.97917 0.40303 0.53523 -0.01700
C 	C 	0.30483 0.97585 0.23869 0.37100
C 	C 	0.37108 0.05891 0.17873 -0.07100
C 	C 	0.49566 0.03208 0.10240 -0.02600
C 	C 	0.55086 0.11063 0.04325 0.01600
C 	C 	0.48237 0.21654 0.06212 -0.12400
C 	C 	0.35919 0.24309 0.14013 0.00800
C 	C 	0.30269 0.16476 0.19746 -0.03300
C 	C 	0.53955 0.30127 0.99809 0.39100
C 	C 	0.99813 0.96160 0.20214 0.35600
C 	C 	0.99798 0.98078 0.09766 -0.08700
C 	C 	0.91518 0.07756 0.06208 -0.00400
C 	C 	0.08257 0.90303 0.03523 -0.03000
C 	C 	0.51937 0.52415 0.26131 0.38200
C 	C 	0.60872 0.44109 0.32127 -0.07800
C 	C 	0.63014 0.46792 0.39760 -0.03000
C 	C 	0.70474 0.38937 0.45675 0.00700
C 	C 	0.76103 0.28346 0.43788 -0.12400
C 	C 	0.74241 0.25691 0.35987 0.00600
C 	C 	0.66491 0.33524 0.30254 -0.03000
C 	C 	0.83891 0.19873 0.50191 0.39600
C 	C 	0.16187 0.53840 0.29786 0.35300
C 	C 	0.07642 0.51922 0.40234 -0.08600
C 	C 	0.05482 0.42244 0.43792 -0.01600
C 	C 	0.02083 0.59697 0.46477 -0.01700
O 	O 	0.63655 0.11657 0.78791 -0.43700
O 	O 	0.80279 0.99373 0.69109 -0.44400
O 	O 	0.36299 0.72006 0.08146 -0.50600
O 	O 	0.50777 0.60672 0.97482 -0.53800
O 	O 	0.93201 0.12864 0.76484 -0.49100
O 	O 	0.07370 0.96327 0.74573 -0.41700
O 	O 	0.54103 0.38343 0.71209 -0.43900
O 	O 	0.48761 0.50627 0.80891 -0.45200
O 	O 	0.16451 0.77994 0.41854 -0.50700
O 	O 	0.08931 0.89328 0.52518 -0.54100
O 	O 	0.82549 0.37136 0.73516 -0.48900
O 	O 	0.78270 0.53673 0.75427 -0.41700
O 	O 	0.36345 0.88343 0.21209 -0.43700
O 	O 	0.19721 0.00627 0.30891 -0.44400
O 	O 	0.63701 0.27994 0.91854 -0.50600
O 	O 	0.49223 0.39328 0.02518 -0.53800
O 	O 	0.06799 0.87136 0.23516 -0.49100
O 	O 	0.92630 0.03673 0.25427 -0.41700
O 	O 	0.45897 0.61657 0.28791 -0.43900
O 	O 	0.51239 0.49373 0.19109 -0.45200
O 	O 	0.83549 0.22006 0.58146 -0.50700
O 	O 	0.91069 0.10672 0.47482 -0.54100
O 	O 	0.17451 0.62864 0.26484 -0.48900
O 	O 	0.21730 0.46327 0.24573 -0.41700
