data_crystal

_cell_length_a 15.44880
_cell_length_b 18.11410
_cell_length_c 17.55410
_cell_angle_alpha 90.00000
_cell_angle_beta  103.17100
_cell_angle_gamma 90.00000

_symmetry_space_group_name_	'P 1'
_symmetry_space_group_name_H-M	'P 1'

loop_
_symmetry_equiv_pos_as_xyz
  x,y,z

loop_
_atom_site_label
_atom_site_type_symbol
_atom_site_fract_x
_atom_site_fract_y
_atom_site_fract_z
_atom_site_charge
C 	C 	0.96180 0.93460 0.66860 0.40000
C 	C 	0.97290 0.86260 0.71200 -0.18300
C 	C 	0.06060 0.83880 0.74120 0.05000
H 	H 	0.10860 0.86770 0.73240 0.01400
C 	C 	0.07740 0.77400 0.78250 -0.07500
H 	H 	0.13700 0.75830 0.80210 0.05500
C 	C 	0.00810 0.73160 0.79560 -0.02700
C 	C 	0.92000 0.75380 0.76490 -0.13600
H 	H 	0.87260 0.72330 0.77230 0.10800
C 	C 	0.90140 0.81870 0.72450 0.17600
C 	C 	0.73400 0.80790 0.69620 0.26500
C 	C 	0.65280 0.84900 0.66100 -0.18800
H 	H 	0.65670 0.86520 0.60800 0.08600
H 	H 	0.65070 0.89400 0.69260 0.09300
C 	C 	0.56670 0.80710 0.65440 -0.22200
H 	H 	0.51710 0.83690 0.62550 0.06900
H 	H 	0.55790 0.79660 0.70680 0.10900
H 	H 	0.56950 0.76060 0.62650 0.09900
C 	C 	0.02400 0.66020 0.84060 0.37300
C 	C 	0.69130 0.99600 0.52360 0.24700
C 	C 	0.59240 0.99560 0.51920 0.01100
C 	C 	0.54870 0.05670 0.54040 -0.96900
C 	C 	0.45680 0.05580 0.53010 -0.04000
H 	H 	0.42700 0.09760 0.54460 -0.18600
C 	C 	0.40860 0.99380 0.49880 0.10200
C 	C 	0.45220 0.93270 0.47760 0.12800
H 	H 	0.41930 0.89030 0.45620 1.88100
C 	C 	0.54410 0.93360 0.48790 0.27600
H 	H 	0.57400 0.89180 0.47350 0.17300
C 	C 	0.56760 0.19570 0.59450 0.90600
C 	C 	0.64550 0.24750 0.62540 -0.73300
H 	H 	0.69430 0.22000 0.66020 0.24600
H 	H 	0.66810 0.26760 0.58120 0.22100
C 	C 	0.61690 0.30660 0.66770 0.31000
H 	H 	0.66650 0.34070 0.68610 -0.07300
H 	H 	0.59690 0.28660 0.71270 -0.05700
H 	H 	0.56780 0.33300 0.63330 -0.05500
N 	N 	0.81100 0.84000 0.69300 -0.25900
H 	H 	0.80510 0.88180 0.66690 0.15800
N 	N 	0.59520 0.12780 0.56820 -2.13800
H 	H 	0.65210 0.12710 0.56800 0.52500
O 	O 	0.02718 0.96178 0.64968 -0.50400
O 	O 	0.88355 0.96327 0.65241 -0.49000
O 	O 	0.72900 0.74700 0.72640 -0.24200
O 	O 	0.95937 0.62947 0.85842 -0.50000
O 	O 	0.10329 0.63753 0.85696 -0.49000
O 	O 	0.72708 0.93789 0.51210 -0.31600
O 	O 	0.73328 0.05633 0.54670 -0.50400
O 	O 	0.49670 0.20660 0.60090 -0.47000
O 	O 	0.93030 0.04500 0.50296 -0.97100
Zn	Zn	0.06087 0.04038 0.57324 1.18700
Zn	Zn	0.86111 0.04729 0.58156 1.22600
H 	H 	0.92200 0.08500 0.48300 0.33200
C 	C 	0.03820 0.43460 0.83140 0.40600
C 	C 	0.02710 0.36260 0.78800 -0.17500
C 	C 	0.93940 0.33880 0.75880 0.03900
H 	H 	0.89140 0.36770 0.76760 0.01700
C 	C 	0.92260 0.27400 0.71750 -0.06800
H 	H 	0.86300 0.25830 0.69790 0.05200
C 	C 	0.99190 0.23160 0.70440 -0.03500
C 	C 	0.08000 0.25380 0.73510 -0.12600
H 	H 	0.12740 0.22330 0.72770 0.10600
C 	C 	0.09860 0.31870 0.77550 0.17200
C 	C 	0.26600 0.30790 0.80380 0.26500
C 	C 	0.34720 0.34900 0.83900 -0.18800
H 	H 	0.34330 0.36520 0.89200 0.08700
H 	H 	0.34930 0.39400 0.80740 0.09300
C 	C 	0.43330 0.30710 0.84560 -0.22200
H 	H 	0.48290 0.33690 0.87450 0.06800
H 	H 	0.44210 0.29660 0.79320 0.10900
H 	H 	0.43050 0.26060 0.87350 0.09900
C 	C 	0.97600 0.16020 0.65940 0.37200
C 	C 	0.30870 0.49600 0.97640 0.24900
C 	C 	0.40760 0.49560 0.98080 0.00900
C 	C 	0.45130 0.55670 0.95960 -0.96900
C 	C 	0.54320 0.55580 0.96990 -0.04000
H 	H 	0.57300 0.59760 0.95540 -0.18600
C 	C 	0.59140 0.49380 0.00120 0.10400
C 	C 	0.54780 0.43270 0.02240 0.12800
H 	H 	0.58070 0.39030 0.04380 1.88200
C 	C 	0.45590 0.43360 0.01210 0.27600
H 	H 	0.42600 0.39180 0.02650 0.17200
C 	C 	0.43240 0.69570 0.90550 0.90600
C 	C 	0.35450 0.74750 0.87460 -0.73300
H 	H 	0.30570 0.72000 0.83980 0.24600
H 	H 	0.33190 0.76760 0.91880 0.22100
C 	C 	0.38310 0.80660 0.83230 0.31000
H 	H 	0.33350 0.84070 0.81390 -0.07200
H 	H 	0.40310 0.78660 0.78730 -0.05700
H 	H 	0.43220 0.83300 0.86670 -0.05400
N 	N 	0.18900 0.34000 0.80700 -0.25800
H 	H 	0.19490 0.38180 0.83310 0.15800
N 	N 	0.40480 0.62780 0.93180 -2.13800
H 	H 	0.34790 0.62710 0.93200 0.52500
O 	O 	0.97282 0.46178 0.85032 -0.51200
O 	O 	0.11645 0.46327 0.84759 -0.49000
O 	O 	0.27100 0.24700 0.77360 -0.24200
O 	O 	0.04063 0.12947 0.64158 -0.49800
O 	O 	0.89671 0.13753 0.64304 -0.49100
O 	O 	0.27292 0.43789 0.98790 -0.31500
O 	O 	0.26672 0.55633 0.95330 -0.50400
O 	O 	0.50330 0.70660 0.89910 -0.47000
O 	O 	0.06970 0.54500 0.99704 -0.96500
Zn	Zn	0.93913 0.54038 0.92676 1.18700
Zn	Zn	0.13889 0.54729 0.91844 1.22600
H 	H 	0.07800 0.58500 0.01700 0.32600
C 	C 	0.03820 0.06540 0.33140 0.40000
C 	C 	0.02710 0.13740 0.28800 -0.18300
C 	C 	0.93940 0.16120 0.25880 0.05000
H 	H 	0.89140 0.13230 0.26760 0.01400
C 	C 	0.92260 0.22600 0.21750 -0.07500
H 	H 	0.86300 0.24170 0.19790 0.05500
C 	C 	0.99190 0.26840 0.20440 -0.02700
C 	C 	0.08000 0.24620 0.23510 -0.13600
H 	H 	0.12740 0.27670 0.22770 0.10800
C 	C 	0.09860 0.18130 0.27550 0.17600
C 	C 	0.26600 0.19210 0.30380 0.26500
C 	C 	0.34720 0.15100 0.33900 -0.18800
H 	H 	0.34330 0.13480 0.39200 0.08600
H 	H 	0.34930 0.10600 0.30740 0.09300
C 	C 	0.43330 0.19290 0.34560 -0.22200
H 	H 	0.48290 0.16310 0.37450 0.06900
H 	H 	0.44210 0.20340 0.29320 0.10900
H 	H 	0.43050 0.23940 0.37350 0.09900
C 	C 	0.97600 0.33980 0.15940 0.37300
C 	C 	0.30870 0.00400 0.47640 0.24700
C 	C 	0.40760 0.00440 0.48080 0.01100
C 	C 	0.45130 0.94330 0.45960 -0.96900
C 	C 	0.54320 0.94420 0.46990 -0.04000
H 	H 	0.57300 0.90240 0.45540 -0.18600
C 	C 	0.59140 0.00620 0.50120 0.10200
C 	C 	0.54780 0.06730 0.52240 0.12800
H 	H 	0.58070 0.10970 0.54380 1.88100
C 	C 	0.45590 0.06640 0.51210 0.27600
H 	H 	0.42600 0.10820 0.52650 0.17300
C 	C 	0.43240 0.80430 0.40550 0.90600
C 	C 	0.35450 0.75250 0.37460 -0.73300
H 	H 	0.30570 0.78000 0.33980 0.24600
H 	H 	0.33190 0.73240 0.41880 0.22100
C 	C 	0.38310 0.69340 0.33230 0.31000
H 	H 	0.33350 0.65930 0.31390 -0.07300
H 	H 	0.40310 0.71340 0.28730 -0.05700
H 	H 	0.43220 0.66700 0.36670 -0.05500
N 	N 	0.18900 0.16000 0.30700 -0.25900
H 	H 	0.19490 0.11820 0.33310 0.15800
N 	N 	0.40480 0.87220 0.43180 -2.13800
H 	H 	0.34790 0.87290 0.43200 0.52500
O 	O 	0.97282 0.03822 0.35032 -0.50400
O 	O 	0.11645 0.03673 0.34759 -0.49000
O 	O 	0.27100 0.25300 0.27360 -0.24200
O 	O 	0.04063 0.37053 0.14158 -0.50000
O 	O 	0.89671 0.36247 0.14304 -0.49000
O 	O 	0.27292 0.06211 0.48790 -0.31600
O 	O 	0.26672 0.94367 0.45330 -0.50400
O 	O 	0.50330 0.79340 0.39910 -0.47000
O 	O 	0.06970 0.95500 0.49704 -0.97100
Zn	Zn	0.93913 0.95962 0.42676 1.18700
Zn	Zn	0.13889 0.95271 0.41844 1.22600
H 	H 	0.07800 0.91500 0.51700 0.33200
C 	C 	0.96180 0.56540 0.16860 0.40600
C 	C 	0.97290 0.63740 0.21200 -0.17500
C 	C 	0.06060 0.66120 0.24120 0.03900
H 	H 	0.10860 0.63230 0.23240 0.01700
C 	C 	0.07740 0.72600 0.28250 -0.06800
H 	H 	0.13700 0.74170 0.30210 0.05200
C 	C 	0.00810 0.76840 0.29560 -0.03500
C 	C 	0.92000 0.74620 0.26490 -0.12600
H 	H 	0.87260 0.77670 0.27230 0.10600
C 	C 	0.90140 0.68130 0.22450 0.17200
C 	C 	0.73400 0.69210 0.19620 0.26500
C 	C 	0.65280 0.65100 0.16100 -0.18800
H 	H 	0.65670 0.63480 0.10800 0.08700
H 	H 	0.65070 0.60600 0.19260 0.09300
C 	C 	0.56670 0.69290 0.15440 -0.22200
H 	H 	0.51710 0.66310 0.12550 0.06800
H 	H 	0.55790 0.70340 0.20680 0.10900
H 	H 	0.56950 0.73940 0.12650 0.09900
C 	C 	0.02400 0.83980 0.34060 0.37200
C 	C 	0.69130 0.50400 0.02360 0.24900
C 	C 	0.59240 0.50440 0.01920 0.00900
C 	C 	0.54870 0.44330 0.04040 -0.96900
C 	C 	0.45680 0.44420 0.03010 -0.04000
H 	H 	0.42700 0.40240 0.04460 -0.18600
C 	C 	0.40860 0.50620 0.99880 0.10400
C 	C 	0.45220 0.56730 0.97760 0.12800
H 	H 	0.41930 0.60970 0.95620 1.88200
C 	C 	0.54410 0.56640 0.98790 0.27600
H 	H 	0.57400 0.60820 0.97350 0.17200
C 	C 	0.56760 0.30430 0.09450 0.90600
C 	C 	0.64550 0.25250 0.12540 -0.73300
H 	H 	0.69430 0.28000 0.16020 0.24600
H 	H 	0.66810 0.23240 0.08120 0.22100
C 	C 	0.61690 0.19340 0.16770 0.31000
H 	H 	0.66650 0.15930 0.18610 -0.07200
H 	H 	0.59690 0.21340 0.21270 -0.05700
H 	H 	0.56780 0.16700 0.13330 -0.05400
N 	N 	0.81100 0.66000 0.19300 -0.25800
H 	H 	0.80510 0.61820 0.16690 0.15800
N 	N 	0.59520 0.37220 0.06820 -2.13800
H 	H 	0.65210 0.37290 0.06800 0.52500
O 	O 	0.02718 0.53822 0.14968 -0.51200
O 	O 	0.88355 0.53673 0.15241 -0.49000
O 	O 	0.72900 0.75300 0.22640 -0.24200
O 	O 	0.95937 0.87053 0.35842 -0.49800
O 	O 	0.10329 0.86247 0.35696 -0.49100
O 	O 	0.72708 0.56211 0.01210 -0.31500
O 	O 	0.73328 0.44367 0.04670 -0.50400
O 	O 	0.49670 0.29340 0.10090 -0.47000
O 	O 	0.93030 0.45500 0.00296 -0.96500
Zn	Zn	0.06087 0.45962 0.07324 1.18700
Zn	Zn	0.86111 0.45271 0.08156 1.22600
H 	H 	0.92200 0.41500 0.98300 0.32600
