data_crystal

_cell_length_a 6.48700
_cell_length_b 24.77900
_cell_length_c 7.80500
_cell_angle_alpha 90.00000
_cell_angle_beta  91.02900
_cell_angle_gamma 90.00000

_symmetry_space_group_name_	'P 1'
_symmetry_space_group_name_H-M	'P 1'

loop_
_symmetry_equiv_pos_as_xyz
  x,y,z

loop_
_atom_site_label
_atom_site_type_symbol
_atom_site_fract_x
_atom_site_fract_y
_atom_site_fract_z
_atom_site_charge
Ni	Ni	0.66040 0.45169 0.68520 1.12300
Ni	Ni	0.83860 0.02113 0.80860 1.10100
N 	N 	0.82700 0.38050 0.71600 -0.22500
C 	C 	0.74900 0.33660 0.78800 0.09700
H 	H 	0.60880 0.33750 0.82250 0.00300
C 	C 	0.86100 0.28930 0.81700 -0.17900
H 	H 	0.80160 0.25930 0.87370 0.09900
C 	C 	0.06200 0.28770 0.75900 0.15300
C 	C 	0.15100 0.33410 0.69300 -0.17600
H 	H 	0.29230 0.33480 0.66310 0.11100
C 	C 	0.02700 0.37940 0.67100 0.09000
H 	H 	0.08560 0.41090 0.62200 0.00700
N 	N 	0.15800 0.23550 0.78800 -0.09800
N 	N 	0.65800 0.08950 0.77100 -0.23100
C 	C 	0.72400 0.13310 0.68700 0.09800
H 	H 	0.85690 0.13170 0.63820 0.00500
C 	C 	0.61100 0.18020 0.66700 -0.18600
H 	H 	0.66440 0.21000 0.60590 0.10200
C 	C 	0.41800 0.18270 0.74000 0.16100
C 	C 	0.34300 0.13820 0.82700 -0.18600
H 	H 	0.21080 0.13860 0.87650 0.11200
C 	C 	0.46900 0.09340 0.83900 0.10200
H 	H 	0.41910 0.06300 0.89940 -0.00900
N 	N 	0.31700 0.23490 0.71200 -0.09800
O 	O 	0.87600 0.48940 0.85130 -0.43400
C 	C 	0.90900 0.53850 0.87500 0.42200
O 	O 	0.00800 0.55840 0.00120 -0.42700
C 	C 	0.84300 0.58020 0.74080 -0.35000
H 	H 	0.96940 0.59740 0.69660 0.14000
H 	H 	0.76290 0.60860 0.79870 0.13500
C 	C 	0.71600 0.55960 0.58810 -0.01600
H 	H 	0.66100 0.59110 0.52140 0.04900
N 	N 	0.54100 0.52660 0.64900 -0.32900
H 	H 	0.43540 0.52590 0.56860 0.14300
H 	H 	0.49100 0.54020 0.74990 0.12200
C 	C 	0.85100 0.52500 0.47160 0.32500
O 	O 	0.83500 0.47500 0.48150 -0.40900
O 	O 	0.95700 0.55190 0.37220 -0.38900
O 	O 	0.36200 0.49190 0.01980 -0.42400
C 	C 	0.37900 0.44190 0.99100 0.40400
O 	O 	0.47100 0.42430 0.85960 -0.43300
C 	C 	0.34200 0.39560 0.11600 -0.34800
H 	H 	0.27690 0.36550 0.05140 0.14200
H 	H 	0.47790 0.38270 0.15880 0.14000
C 	C 	0.21200 0.40770 0.26700 -0.01000
H 	H 	0.15610 0.37400 0.31880 0.04100
N 	N 	0.04100 0.44290 0.19500 -0.32000
H 	H 	0.92680 0.44120 0.26280 0.13700
H 	H 	0.00400 0.43200 0.08580 0.12400
C 	C 	0.35200 0.43880 0.39600 0.33700
O 	O 	0.33300 0.48840 0.38610 -0.42200
O 	O 	0.46700 0.41280 0.49310 -0.38100
Ni	Ni	0.33960 0.95169 0.31480 1.13200
Ni	Ni	0.16140 0.52113 0.19140 1.12900
N 	N 	0.17300 0.88050 0.28400 -0.22400
C 	C 	0.25100 0.83660 0.21200 0.09600
H 	H 	0.39120 0.83750 0.17750 0.00400
C 	C 	0.13900 0.78930 0.18300 -0.17500
H 	H 	0.19840 0.75930 0.12630 0.09900
C 	C 	0.93800 0.78770 0.24100 0.15100
C 	C 	0.84900 0.83410 0.30700 -0.17300
H 	H 	0.70770 0.83480 0.33690 0.11000
C 	C 	0.97300 0.87940 0.32900 0.08600
H 	H 	0.91440 0.91090 0.37800 0.01000
N 	N 	0.84200 0.73550 0.21200 -0.09800
N 	N 	0.34200 0.58950 0.22900 -0.22300
C 	C 	0.27600 0.63310 0.31300 0.09800
H 	H 	0.14310 0.63170 0.36180 0.00700
C 	C 	0.38900 0.68020 0.33300 -0.18400
H 	H 	0.33560 0.71000 0.39410 0.10100
C 	C 	0.58200 0.68270 0.26000 0.16000
C 	C 	0.65700 0.63820 0.17300 -0.18300
H 	H 	0.78920 0.63860 0.12350 0.11100
C 	C 	0.53100 0.59340 0.16100 0.10100
H 	H 	0.58090 0.56300 0.10060 0.00500
N 	N 	0.68300 0.73490 0.28800 -0.09800
O 	O 	0.12400 0.98940 0.14870 -0.37400
C 	C 	0.09100 0.03850 0.12500 0.35500
O 	O 	0.99200 0.05840 0.99880 -0.42600
C 	C 	0.15700 0.08020 0.25920 -0.33300
H 	H 	0.03060 0.09740 0.30340 0.13500
H 	H 	0.23710 0.10860 0.20130 0.13100
C 	C 	0.28400 0.05960 0.41190 -0.01300
H 	H 	0.33900 0.09110 0.47860 0.04800
N 	N 	0.45900 0.02660 0.35100 -0.33900
H 	H 	0.56460 0.02590 0.43140 0.12400
H 	H 	0.50900 0.04020 0.25010 0.11100
C 	C 	0.14900 0.02500 0.52840 0.25000
O 	O 	0.16500 0.97500 0.51850 -0.35300
O 	O 	0.04300 0.05190 0.62780 -0.38100
O 	O 	0.63800 0.99190 0.98020 -0.39200
C 	C 	0.62100 0.94190 0.00900 0.40600
O 	O 	0.52900 0.92430 0.14040 -0.42600
C 	C 	0.65800 0.89560 0.88400 -0.34900
H 	H 	0.72310 0.86550 0.94860 0.14100
H 	H 	0.52210 0.88270 0.84120 0.14000
C 	C 	0.78800 0.90770 0.73300 -0.00500
H 	H 	0.84390 0.87400 0.68120 0.03800
N 	N 	0.95900 0.94290 0.80500 -0.31400
H 	H 	0.07320 0.94120 0.73720 0.14200
H 	H 	0.99600 0.93200 0.91420 0.12500
C 	C 	0.64800 0.93880 0.60400 0.33000
O 	O 	0.66700 0.98840 0.61390 -0.38300
O 	O 	0.53300 0.91280 0.50690 -0.37500
