data_crystal

_cell_length_a 30.84000
_cell_length_b 6.57400
_cell_length_c 7.70400
_cell_angle_alpha 90.00000
_cell_angle_beta  101.55700
_cell_angle_gamma 90.00000

_symmetry_space_group_name_	'P 1'
_symmetry_space_group_name_H-M	'P 1'

loop_
_symmetry_equiv_pos_as_xyz
  x,y,z

loop_
_atom_site_label
_atom_site_type_symbol
_atom_site_fract_x
_atom_site_fract_y
_atom_site_fract_z
_atom_site_charge
Ni	Ni	0.27864 0.26860 0.27578 1.12300
O 	O 	0.30640 0.48950 0.45890 -0.38200
O 	O 	0.30780 0.40950 0.09160 -0.42800
C 	C 	0.37870 0.79390 0.33630 -0.17200
H 	H 	0.37910 0.65960 0.29110 0.09600
O 	O 	0.24990 0.54690 0.91020 -0.43400
O 	O 	0.24550 0.62360 0.52910 -0.41000
C 	C 	0.37360 0.17360 0.45780 0.08700
H 	H 	0.37200 0.30780 0.50170 0.00600
C 	C 	0.45990 0.76900 0.46790 -0.05600
N 	N 	0.33640 0.09670 0.35090 -0.23000
C 	C 	0.33970 0.90760 0.30090 0.11400
H 	H 	0.31380 0.84370 0.23620 0.00000
C 	C 	0.41630 0.87620 0.43640 0.12000
C 	C 	0.41260 0.07320 0.50610 -0.17300
H 	H 	0.43690 0.13370 0.58480 0.09000
N 	N 	0.28450 0.89100 0.76880 -0.31200
H 	H 	0.28510 0.00850 0.70430 0.12600
H 	H 	0.29430 0.91980 0.88700 0.12600
C 	C 	0.31310 0.72500 0.70760 -0.02200
H 	H 	0.33950 0.78790 0.67150 0.04900
C 	C 	0.28610 0.60040 0.55260 0.32100
C 	C 	0.46180 0.56140 0.47300 0.03300
H 	H 	0.43470 0.48830 0.45660 0.02400
C 	C 	0.29020 0.51560 0.96300 0.41900
C 	C 	0.32730 0.58600 0.86070 -0.32400
H 	H 	0.35110 0.65430 0.94650 0.12900
H 	H 	0.34040 0.46310 0.81750 0.13200
Ni	Ni	0.77864 0.76860 0.27578 1.12300
O 	O 	0.80640 0.98950 0.45890 -0.36600
O 	O 	0.80780 0.90950 0.09160 -0.41500
C 	C 	0.87870 0.29390 0.33630 -0.14200
H 	H 	0.87910 0.15960 0.29110 0.08000
O 	O 	0.74990 0.04690 0.91020 -0.43700
O 	O 	0.74550 0.12360 0.52910 -0.40800
C 	C 	0.87360 0.67360 0.45780 0.07200
H 	H 	0.87200 0.80780 0.50170 0.01300
C 	C 	0.95990 0.26900 0.46790 -0.00800
N 	N 	0.83640 0.59670 0.35090 -0.21700
C 	C 	0.83970 0.40760 0.30090 0.08500
H 	H 	0.81380 0.34370 0.23620 0.00500
C 	C 	0.91630 0.37620 0.43640 0.07500
C 	C 	0.91260 0.57320 0.50610 -0.13600
H 	H 	0.93690 0.63370 0.58480 0.08000
N 	N 	0.78450 0.39100 0.76880 -0.32300
H 	H 	0.78510 0.50850 0.70430 0.13800
H 	H 	0.79430 0.41980 0.88700 0.12500
C 	C 	0.81310 0.22500 0.70760 -0.00800
H 	H 	0.83950 0.28790 0.67150 0.04000
C 	C 	0.78610 0.10040 0.55260 0.29800
C 	C 	0.96180 0.06140 0.47300 -0.03700
H 	H 	0.93470 0.98830 0.45660 0.05800
C 	C 	0.79020 0.01560 0.96300 0.40900
C 	C 	0.82730 0.08600 0.86070 -0.35400
H 	H 	0.85110 0.15430 0.94650 0.13400
H 	H 	0.84040 0.96310 0.81750 0.15100
Ni	Ni	0.72136 0.26860 0.72422 1.12200
O 	O 	0.69360 0.48950 0.54110 -0.38300
O 	O 	0.69220 0.40950 0.90840 -0.42800
C 	C 	0.62130 0.79390 0.66370 -0.17200
H 	H 	0.62090 0.65960 0.70890 0.09600
O 	O 	0.75010 0.54690 0.08980 -0.43400
O 	O 	0.75450 0.62360 0.47090 -0.41000
C 	C 	0.62640 0.17360 0.54220 0.08700
H 	H 	0.62800 0.30780 0.49830 0.00600
C 	C 	0.54010 0.76900 0.53210 -0.05600
N 	N 	0.66360 0.09670 0.64910 -0.23000
C 	C 	0.66030 0.90760 0.69910 0.11400
H 	H 	0.68620 0.84370 0.76380 0.00000
C 	C 	0.58370 0.87620 0.56360 0.12000
C 	C 	0.58740 0.07320 0.49390 -0.17300
H 	H 	0.56310 0.13370 0.41520 0.09000
N 	N 	0.71550 0.89100 0.23120 -0.31200
H 	H 	0.71490 0.00850 0.29570 0.12600
H 	H 	0.70570 0.91980 0.11300 0.12600
C 	C 	0.68690 0.72500 0.29240 -0.02200
H 	H 	0.66050 0.78790 0.32850 0.04900
C 	C 	0.71390 0.60040 0.44740 0.32100
C 	C 	0.53820 0.56140 0.52700 0.03300
H 	H 	0.56530 0.48830 0.54340 0.02400
C 	C 	0.70980 0.51560 0.03700 0.41900
C 	C 	0.67270 0.58600 0.13930 -0.32400
H 	H 	0.64890 0.65430 0.05350 0.12900
H 	H 	0.65960 0.46310 0.18250 0.13200
Ni	Ni	0.22136 0.76860 0.72422 1.12300
O 	O 	0.19360 0.98950 0.54110 -0.36600
O 	O 	0.19220 0.90950 0.90840 -0.41500
C 	C 	0.12130 0.29390 0.66370 -0.14200
H 	H 	0.12090 0.15960 0.70890 0.08000
O 	O 	0.25010 0.04690 0.08980 -0.43700
O 	O 	0.25450 0.12360 0.47090 -0.40800
C 	C 	0.12640 0.67360 0.54220 0.07200
H 	H 	0.12800 0.80780 0.49830 0.01300
C 	C 	0.04010 0.26900 0.53210 -0.00700
N 	N 	0.16360 0.59670 0.64910 -0.21700
C 	C 	0.16030 0.40760 0.69910 0.08500
H 	H 	0.18620 0.34370 0.76380 0.00500
C 	C 	0.08370 0.37620 0.56360 0.07600
C 	C 	0.08740 0.57320 0.49390 -0.13600
H 	H 	0.06310 0.63370 0.41520 0.08000
N 	N 	0.21550 0.39100 0.23120 -0.32300
H 	H 	0.21490 0.50850 0.29570 0.13800
H 	H 	0.20570 0.41980 0.11300 0.12500
C 	C 	0.18690 0.22500 0.29240 -0.00800
H 	H 	0.16050 0.28790 0.32850 0.04000
C 	C 	0.21390 0.10040 0.44740 0.29800
C 	C 	0.03820 0.06140 0.52700 -0.03500
H 	H 	0.06530 0.98830 0.54340 0.05800
C 	C 	0.20980 0.01560 0.03700 0.40900
C 	C 	0.17270 0.08600 0.13930 -0.35400
H 	H 	0.14890 0.15430 0.05350 0.13400
H 	H 	0.15960 0.96310 0.18250 0.15100
N 	N 	0.50000 0.45400 0.50000 -0.12000
C 	C 	0.50000 0.87500 0.50000 0.00100
H 	H 	0.50000 0.01960 0.50000 0.02900
N 	N 	-0.00000 0.95400 0.50000 -0.08400
C 	C 	0.00000 0.37500 0.50000 -0.05800
H 	H 	0.00000 0.51960 0.50000 0.05600
