data_crystal

_cell_length_a 8.87490
_cell_length_b 7.41040
_cell_length_c 15.23330
_cell_angle_alpha 90.00000
_cell_angle_beta  102.17200
_cell_angle_gamma 90.00000

_symmetry_space_group_name_	'P 1'
_symmetry_space_group_name_H-M	'P 1'

loop_
_symmetry_equiv_pos_as_xyz
  x,y,z

loop_
_atom_site_label
_atom_site_type_symbol
_atom_site_fract_x
_atom_site_fract_y
_atom_site_fract_z
_atom_site_charge
Co	Co	0.78969 0.52945 0.10589 1.19900
P 	P 	0.87064 0.88556 0.23356 0.46900
H 	H 	0.99600 0.94540 0.28450 -0.01600
O 	O 	0.81810 0.02850 0.15844 -0.40700
H 	H 	0.79990 0.12420 0.18120 0.28200
O 	O 	0.75340 0.86440 0.29171 -0.38700
O 	O 	0.91137 0.71650 0.19059 -0.35100
O 	O 	0.65498 0.35150 0.01205 -0.31000
O 	O 	0.42537 0.33880 0.91894 -0.31900
O 	O 	0.99412 0.38780 0.10056 -0.30200
O 	O 	0.15160 0.34830 0.00600 -0.30700
C 	C 	0.52300 0.41030 0.98032 0.22400
C 	C 	0.04170 0.42450 0.03060 0.22400
Co	Co	0.71031 0.02945 0.39411 1.20000
P 	P 	0.62936 0.38556 0.26644 0.46900
H 	H 	0.50400 0.44540 0.21550 -0.01600
O 	O 	0.68190 0.52850 0.34156 -0.40800
H 	H 	0.70010 0.62420 0.31880 0.28200
O 	O 	0.74660 0.36440 0.20829 -0.38700
O 	O 	0.58863 0.21650 0.30941 -0.35100
O 	O 	0.84502 0.85150 0.48795 -0.31000
O 	O 	0.07463 0.83880 0.58106 -0.31800
O 	O 	0.50588 0.88780 0.39944 -0.30200
O 	O 	0.34840 0.84830 0.49400 -0.30700
C 	C 	0.97700 0.91030 0.51968 0.22400
C 	C 	0.45830 0.92450 0.46940 0.22500
Co	Co	0.21031 0.47055 0.89411 1.19900
P 	P 	0.12936 0.11444 0.76644 0.46900
H 	H 	0.00400 0.05460 0.71550 -0.01600
O 	O 	0.18190 0.97150 0.84156 -0.40700
H 	H 	0.20010 0.87580 0.81880 0.28200
O 	O 	0.24660 0.13560 0.70829 -0.38700
O 	O 	0.08863 0.28350 0.80941 -0.35100
O 	O 	0.34502 0.64850 0.98795 -0.31000
O 	O 	0.57463 0.66120 0.08106 -0.31900
O 	O 	0.00588 0.61220 0.89944 -0.30200
O 	O 	0.84840 0.65170 0.99400 -0.30700
C 	C 	0.47700 0.58970 0.01968 0.22400
C 	C 	0.95830 0.57550 0.96940 0.22400
Co	Co	0.28969 0.97055 0.60589 1.20000
P 	P 	0.37064 0.61444 0.73356 0.46900
H 	H 	0.49600 0.55460 0.78450 -0.01600
O 	O 	0.31810 0.47150 0.65844 -0.40800
H 	H 	0.29990 0.37580 0.68120 0.28200
O 	O 	0.25340 0.63560 0.79171 -0.38700
O 	O 	0.41137 0.78350 0.69059 -0.35100
O 	O 	0.15498 0.14850 0.51205 -0.31000
O 	O 	0.92537 0.16120 0.41894 -0.31800
O 	O 	0.49412 0.11220 0.60056 -0.30200
O 	O 	0.65160 0.15170 0.50600 -0.30700
C 	C 	0.02300 0.08970 0.48032 0.22400
C 	C 	0.54170 0.07550 0.53060 0.22500
