data_crystal

_cell_length_a 9.72050
_cell_length_b 9.74680
_cell_length_c 10.89260
_cell_angle_alpha 83.98900
_cell_angle_beta  75.46700
_cell_angle_gamma 78.54500

_symmetry_space_group_name_	'P 1'
_symmetry_space_group_name_H-M	'P 1'

loop_
_symmetry_equiv_pos_as_xyz
  x,y,z

loop_
_atom_site_label
_atom_site_type_symbol
_atom_site_fract_x
_atom_site_fract_y
_atom_site_fract_z
_atom_site_charge
Mn	Mn	0.36465 0.25534 0.52307 1.30300
Mn	Mn	0.24086 0.55013 0.28165 1.27800
P 	P 	0.47556 0.97749 0.69689 0.56100
H 	H 	0.59300 0.04210 0.66860 -0.09800
O 	O 	0.41740 0.97630 0.83980 -0.28600
O 	O 	0.36790 0.06080 0.62540 -0.46800
O 	O 	0.52760 0.82830 0.65390 -0.38400
O 	O 	0.70210 0.04610 0.87820 -0.32700
O 	O 	0.80040 0.22210 0.76970 -0.33400
O 	O 	0.45710 0.23230 0.96790 -0.29200
O 	O 	0.56540 0.40390 0.85800 -0.32300
O 	O 	0.02990 0.55400 0.24170 -0.38700
O 	O 	0.79540 0.63860 0.31110 -0.33800
O 	O 	0.08020 0.62590 0.45530 -0.34200
O 	O 	0.84550 0.70890 0.52470 -0.37100
O 	O 	0.37550 0.47240 0.41860 -0.49500
O 	O 	0.46430 0.66510 0.42370 -0.38200
C 	C 	0.69980 0.17310 0.84320 0.23600
C 	C 	0.56080 0.27920 0.89370 0.23000
C 	C 	0.92350 0.61070 0.32190 0.24700
C 	C 	0.95280 0.65110 0.44520 0.23700
C 	C 	0.45360 0.54110 0.45470 0.26300
Mn	Mn	0.63535 0.74466 0.47693 1.31100
Mn	Mn	0.75914 0.44987 0.71835 1.29400
P 	P 	0.52444 0.02251 0.30311 0.31100
H 	H 	0.40700 0.95790 0.33140 0.02500
O 	O 	0.58260 0.02370 0.16020 -0.42600
O 	O 	0.63210 0.93920 0.37460 -0.31700
O 	O 	0.47240 0.17170 0.34610 -0.41100
O 	O 	0.29790 0.95390 0.12180 -0.33000
O 	O 	0.19960 0.77790 0.23030 -0.33100
O 	O 	0.54290 0.76770 0.03210 -0.37300
O 	O 	0.43460 0.59610 0.14200 -0.39100
O 	O 	0.97010 0.44600 0.75830 -0.31400
O 	O 	0.20460 0.36140 0.68890 -0.31400
O 	O 	0.91980 0.37410 0.54470 -0.35000
O 	O 	0.15450 0.29110 0.47530 -0.40800
O 	O 	0.62450 0.52760 0.58140 -0.48600
O 	O 	0.53570 0.33490 0.57630 -0.39700
C 	C 	0.30020 0.82690 0.15680 0.21300
C 	C 	0.43920 0.72080 0.10630 0.23400
C 	C 	0.07650 0.38930 0.67810 0.21800
C 	C 	0.04720 0.34890 0.55480 0.23100
C 	C 	0.54640 0.45890 0.54530 0.26300
Mn	Mn	0.50000 0.00000 -0.00000 1.22000
