data_crystal

_cell_length_a 9.04940
_cell_length_b 17.47500
_cell_length_c 10.53570
_cell_angle_alpha 90.00000
_cell_angle_beta  106.35900
_cell_angle_gamma 90.00000

_symmetry_space_group_name_	'P 1'
_symmetry_space_group_name_H-M	'P 1'

loop_
_symmetry_equiv_pos_as_xyz
  x,y,z

loop_
_atom_site_label
_atom_site_type_symbol
_atom_site_fract_x
_atom_site_fract_y
_atom_site_fract_z
_atom_site_charge
C 	C 	0.12040 0.14460 0.23120 -0.29700
N 	N 	0.08860 0.09290 0.16430 -0.22700
C 	C 	0.82040 0.14620 0.79050 -0.22700
N 	N 	0.85590 0.09510 0.85680 -0.15200
N 	N 	0.21800 0.03040 0.93430 -0.28000
H 	H 	0.22260 0.08180 0.93250 0.08200
H 	H 	0.29960 0.01490 0.00010 -0.02000
C 	C 	0.24410 0.00410 0.81410 0.13900
H 	H 	0.18540 0.95620 0.80180 -0.03100
C 	C 	0.15760 0.04570 0.69700 -0.28500
H 	H 	0.18870 0.09900 0.70610 0.07400
H 	H 	0.04890 0.04350 0.69170 0.04800
C 	C 	0.18100 0.01420 0.56760 0.09900
H 	H 	0.13060 0.96480 0.54780 -0.03100
H 	H 	0.13450 0.04870 0.49520 -0.05700
C 	C 	0.35000 0.00600 0.58170 -0.35900
H 	H 	0.40340 0.05360 0.61180 0.10800
H 	H 	0.36680 0.99180 0.49800 0.12200
C 	C 	0.40400 0.94310 0.68390 0.14900
H 	H 	0.50890 0.92830 0.68840 -0.04400
H 	H 	0.33860 0.89840 0.66000 -0.05000
C 	C 	0.39680 0.97440 0.81690 -0.25600
H 	H 	0.42450 0.93400 0.88250 0.09700
H 	H 	0.47200 0.01500 0.84400 0.07900
C 	C 	0.87960 0.64460 0.76880 -0.21700
N 	N 	0.91140 0.59290 0.83570 -0.14900
C 	C 	0.17960 0.64620 0.20950 -0.31700
N 	N 	0.14410 0.59510 0.14320 -0.21900
N 	N 	0.78200 0.53040 0.06570 -0.43000
H 	H 	0.77740 0.58180 0.06750 0.07400
H 	H 	0.70040 0.51490 0.99990 0.17100
C 	C 	0.75590 0.50410 0.18590 0.20600
H 	H 	0.81460 0.45620 0.19820 -0.04800
C 	C 	0.84240 0.54570 0.30300 -0.32800
H 	H 	0.81130 0.59900 0.29390 0.09400
H 	H 	0.95110 0.54350 0.30830 0.12800
C 	C 	0.81900 0.51420 0.43240 0.10000
H 	H 	0.86940 0.46480 0.45220 0.00500
H 	H 	0.86550 0.54870 0.50480 -0.01500
C 	C 	0.65000 0.50600 0.41830 -0.27000
H 	H 	0.59660 0.55360 0.38820 0.08000
H 	H 	0.63320 0.49180 0.50200 0.08400
C 	C 	0.59600 0.44310 0.31610 0.11100
H 	H 	0.49110 0.42830 0.31160 -0.04500
H 	H 	0.66140 0.39840 0.34000 -0.03100
C 	C 	0.60320 0.47440 0.18310 -0.31700
H 	H 	0.57550 0.43400 0.11750 0.06800
H 	H 	0.52800 0.51500 0.15600 0.07800
C 	C 	0.87960 0.85540 0.76880 -0.21600
N 	N 	0.91140 0.90710 0.83570 -0.14500
C 	C 	0.17960 0.85380 0.20950 -0.31700
N 	N 	0.14410 0.90490 0.14320 -0.21300
N 	N 	0.78200 0.96960 0.06570 -0.44800
H 	H 	0.77740 0.91820 0.06750 0.07700
H 	H 	0.70040 0.98510 0.99990 0.18000
C 	C 	0.75590 0.99590 0.18590 0.34800
H 	H 	0.81460 0.04380 0.19820 -0.09900
C 	C 	0.84240 0.95430 0.30300 -0.44300
H 	H 	0.81130 0.90100 0.29390 0.12600
H 	H 	0.95110 0.95650 0.30830 0.16700
C 	C 	0.81900 0.98580 0.43240 0.20800
H 	H 	0.86940 0.03520 0.45220 -0.03900
H 	H 	0.86550 0.95130 0.50480 -0.04500
C 	C 	0.65000 0.99400 0.41830 -0.29000
H 	H 	0.59660 0.94640 0.38820 0.08900
H 	H 	0.63320 0.00820 0.50200 0.07500
C 	C 	0.59600 0.05690 0.31610 0.18000
H 	H 	0.49110 0.07170 0.31160 -0.07100
H 	H 	0.66140 0.10160 0.34000 -0.05200
C 	C 	0.60320 0.02560 0.18310 -0.48900
H 	H 	0.57550 0.06600 0.11750 0.11800
H 	H 	0.52800 0.98500 0.15600 0.14400
C 	C 	0.12040 0.35540 0.23120 -0.29700
N 	N 	0.08860 0.40710 0.16430 -0.22500
C 	C 	0.82040 0.35380 0.79050 -0.22900
N 	N 	0.85590 0.40490 0.85680 -0.15000
N 	N 	0.21800 0.46960 0.93430 -0.30200
H 	H 	0.22260 0.41820 0.93250 0.08400
H 	H 	0.29960 0.48510 0.00010 -0.00700
C 	C 	0.24410 0.49590 0.81410 0.27100
H 	H 	0.18540 0.54380 0.80180 -0.08100
C 	C 	0.15760 0.45430 0.69700 -0.39500
H 	H 	0.18870 0.40100 0.70610 0.10500
H 	H 	0.04890 0.45650 0.69170 0.08600
C 	C 	0.18100 0.48580 0.56760 0.20400
H 	H 	0.13060 0.53520 0.54780 -0.07500
H 	H 	0.13450 0.45130 0.49520 -0.08500
C 	C 	0.35000 0.49400 0.58170 -0.37100
H 	H 	0.40340 0.44640 0.61180 0.11500
H 	H 	0.36680 0.50820 0.49800 0.11000
C 	C 	0.40400 0.55690 0.68390 0.20700
H 	H 	0.50890 0.57170 0.68840 -0.06600
H 	H 	0.33860 0.60160 0.66000 -0.06700
C 	C 	0.39680 0.52560 0.81690 -0.41100
H 	H 	0.42450 0.56600 0.88250 0.14200
H 	H 	0.47200 0.48500 0.84400 0.13800
Cd	Cd	-0.00000 0.00000 -0.00000 1.10500
Cd	Cd	-0.00000 0.50000 -0.00000 1.11300
Cd	Cd	0.16794 0.25000 0.34898 1.16000
Cd	Cd	0.77230 0.25000 0.66831 1.16500
C 	C 	0.40890 0.25000 0.46890 -0.25900
N 	N 	0.53310 0.25000 0.53200 -0.22300
C 	C 	0.02120 0.25000 0.48290 -0.36600
N 	N 	0.93720 0.25000 0.54160 -0.12800
Cd	Cd	0.83206 0.75000 0.65102 1.16700
Cd	Cd	0.22770 0.75000 0.33169 1.14900
C 	C 	0.59110 0.75000 0.53110 -0.25400
N 	N 	0.46690 0.75000 0.46800 -0.23000
C 	C 	0.97880 0.75000 0.51710 -0.13000
N 	N 	0.06280 0.75000 0.45840 -0.30900
