data_crystal

_cell_length_a 19.68500
_cell_length_b 14.33200
_cell_length_c 16.93000
_cell_angle_alpha 90.00000
_cell_angle_beta  121.20500
_cell_angle_gamma 90.00000

_symmetry_space_group_name_	'P 1'
_symmetry_space_group_name_H-M	'P 1'

loop_
_symmetry_equiv_pos_as_xyz
  x,y,z

loop_
_atom_site_label
_atom_site_type_symbol
_atom_site_fract_x
_atom_site_fract_y
_atom_site_fract_z
_atom_site_charge
Zn	Zn	0.24322 0.43239 0.36807 1.19900
N 	N 	0.24330 0.49470 0.25610 -0.23400
N 	N 	0.03530 0.45560 0.37280 -0.11500
N 	N 	0.14440 0.41840 0.37610 -0.26200
N 	N 	0.47240 0.48560 0.58910 -0.11200
N 	N 	0.35700 0.43290 0.47930 -0.25300
O 	O 	0.23940 0.57950 0.39260 -0.39800
O 	O 	0.23610 0.71920 0.33570 -0.24400
O 	O 	0.35650 0.76440 0.28580 -0.28400
O 	O 	0.24130 0.79600 0.15500 -0.44200
C 	C 	0.24200 0.63520 0.33640 0.30200
C 	C 	0.29030 0.74120 0.21730 0.34200
C 	C 	0.25080 0.58490 0.26290 -0.00800
C 	C 	0.26880 0.63910 0.20310 -0.08500
C 	C 	0.26690 0.59030 0.13160 0.03700
H 	H 	0.27410 0.62190 0.08850 0.00500
C 	C 	0.25450 0.49600 0.12340 -0.11500
H 	H 	0.25360 0.46460 0.07470 0.07400
C 	C 	0.24360 0.44700 0.18490 0.04400
H 	H 	0.23650 0.38270 0.17930 0.03200
C 	C 	0.10050 0.48770 0.37750 0.08800
H 	H 	0.11370 0.55050 0.38140 0.00700
C 	C 	0.10490 0.33920 0.37150 0.02500
H 	H 	0.12160 0.27900 0.36920 0.01300
C 	C 	0.03800 0.36050 0.37070 -0.01900
H 	H 	0.00110 0.31890 0.36910 0.05400
C 	C 	0.97390 0.51380 0.37300 -0.03500
H 	H 	0.92330 0.50110 0.31720 0.03100
H 	H 	0.98660 0.57890 0.37140 0.04700
C 	C 	0.96540 0.49830 0.45510 -0.10300
H 	H 	0.92840 0.54450 0.45280 0.07000
H 	H 	0.94090 0.43760 0.44800 0.07100
C 	C 	0.39680 0.50700 0.52630 0.08400
H 	H 	0.37530 0.56660 0.51710 0.00800
C 	C 	0.40970 0.36230 0.51450 0.01900
H 	H 	0.39890 0.30110 0.49330 0.02500
C 	C 	0.48030 0.39260 0.58470 -0.01600
H 	H 	0.52520 0.35680 0.62230 0.05300
C 	C 	0.53030 0.55080 0.65730 -0.04500
H 	H 	0.51310 0.61430 0.63680 0.05200
H 	H 	0.58130 0.54180 0.66250 0.04600
C 	C 	0.53940 0.53650 0.75150 -0.10100
H 	H 	0.57280 0.58570 0.79280 0.06800
H 	H 	0.56610 0.47750 0.77690 0.07100
Zn	Zn	0.74322 0.93239 0.36807 1.20000
N 	N 	0.74330 0.99470 0.25610 -0.23400
N 	N 	0.53530 0.95560 0.37280 -0.11400
N 	N 	0.64440 0.91840 0.37610 -0.26100
N 	N 	0.97240 0.98560 0.58910 -0.11200
N 	N 	0.85700 0.93290 0.47930 -0.25400
O 	O 	0.73940 0.07950 0.39260 -0.39800
O 	O 	0.73610 0.21920 0.33570 -0.24400
O 	O 	0.85650 0.26440 0.28580 -0.28400
O 	O 	0.74130 0.29600 0.15500 -0.44100
C 	C 	0.74200 0.13520 0.33640 0.30200
C 	C 	0.79030 0.24120 0.21730 0.34200
C 	C 	0.75080 0.08490 0.26290 -0.00600
C 	C 	0.76880 0.13910 0.20310 -0.08700
C 	C 	0.76690 0.09030 0.13160 0.04000
H 	H 	0.77410 0.12190 0.08850 0.00400
C 	C 	0.75450 0.99600 0.12340 -0.11800
H 	H 	0.75360 0.96460 0.07470 0.07400
C 	C 	0.74360 0.94700 0.18490 0.04500
H 	H 	0.73650 0.88270 0.17930 0.03100
C 	C 	0.60050 0.98770 0.37750 0.08700
H 	H 	0.61370 0.05050 0.38140 0.00700
C 	C 	0.60490 0.83920 0.37150 0.02500
H 	H 	0.62160 0.77900 0.36920 0.01300
C 	C 	0.53800 0.86050 0.37070 -0.01900
H 	H 	0.50110 0.81890 0.36910 0.05400
C 	C 	0.47390 0.01380 0.37300 -0.03500
H 	H 	0.42330 0.00110 0.31720 0.03100
H 	H 	0.48660 0.07890 0.37140 0.04700
C 	C 	0.46540 0.99830 0.45510 -0.10300
H 	H 	0.42840 0.04450 0.45280 0.07100
H 	H 	0.44090 0.93760 0.44800 0.07200
C 	C 	0.89680 0.00700 0.52630 0.08500
H 	H 	0.87530 0.06660 0.51710 0.00800
C 	C 	0.90970 0.86230 0.51450 0.01900
H 	H 	0.89890 0.80110 0.49330 0.02500
C 	C 	0.98030 0.89260 0.58470 -0.01600
H 	H 	0.02520 0.85680 0.62230 0.05300
C 	C 	0.03030 0.05080 0.65730 -0.04400
H 	H 	0.01310 0.11430 0.63680 0.05100
H 	H 	0.08130 0.04180 0.66250 0.04600
C 	C 	0.03940 0.03650 0.75150 -0.10500
H 	H 	0.07280 0.08570 0.79280 0.06900
H 	H 	0.06610 0.97750 0.77690 0.07200
Zn	Zn	0.75678 0.43239 0.13193 1.20000
N 	N 	0.75670 0.49470 0.24390 -0.23300
N 	N 	0.96470 0.45560 0.12720 -0.11400
N 	N 	0.85560 0.41840 0.12390 -0.26100
N 	N 	0.52760 0.48560 0.91090 -0.11200
N 	N 	0.64300 0.43290 0.02070 -0.25300
O 	O 	0.76060 0.57950 0.10740 -0.39800
O 	O 	0.76390 0.71920 0.16430 -0.24400
O 	O 	0.64350 0.76440 0.21420 -0.28400
O 	O 	0.75870 0.79600 0.34500 -0.44100
C 	C 	0.75800 0.63520 0.16360 0.30200
C 	C 	0.70970 0.74120 0.28270 0.34200
C 	C 	0.74920 0.58490 0.23710 -0.00800
C 	C 	0.73120 0.63910 0.29690 -0.08500
C 	C 	0.73310 0.59030 0.36840 0.03700
H 	H 	0.72590 0.62190 0.41150 0.00500
C 	C 	0.74550 0.49600 0.37660 -0.11500
H 	H 	0.74640 0.46460 0.42530 0.07400
C 	C 	0.75640 0.44700 0.31510 0.04400
H 	H 	0.76350 0.38270 0.32070 0.03200
C 	C 	0.89950 0.48770 0.12250 0.08800
H 	H 	0.88630 0.55050 0.11860 0.00700
C 	C 	0.89510 0.33920 0.12850 0.02500
H 	H 	0.87840 0.27900 0.13080 0.01300
C 	C 	0.96200 0.36050 0.12930 -0.01900
H 	H 	0.99890 0.31890 0.13090 0.05400
C 	C 	0.02610 0.51380 0.12700 -0.03500
H 	H 	0.07670 0.50110 0.18280 0.03100
H 	H 	0.01340 0.57890 0.12860 0.04700
C 	C 	0.03460 0.49830 0.04490 -0.10300
H 	H 	0.07160 0.54450 0.04720 0.07000
H 	H 	0.05910 0.43760 0.05200 0.07200
C 	C 	0.60320 0.50700 0.97370 0.08400
H 	H 	0.62470 0.56660 0.98290 0.00900
C 	C 	0.59030 0.36230 0.98550 0.01700
H 	H 	0.60110 0.30110 0.00670 0.02600
C 	C 	0.51970 0.39260 0.91530 -0.01500
H 	H 	0.47480 0.35680 0.87770 0.05300
C 	C 	0.46970 0.55080 0.84270 -0.04500
H 	H 	0.48690 0.61430 0.86320 0.05200
H 	H 	0.41870 0.54180 0.83750 0.04600
C 	C 	0.46060 0.53650 0.74850 -0.10100
H 	H 	0.42720 0.58570 0.70720 0.06800
H 	H 	0.43390 0.47750 0.72310 0.07000
Zn	Zn	0.25678 0.93239 0.13193 1.20000
N 	N 	0.25670 0.99470 0.24390 -0.23300
N 	N 	0.46470 0.95560 0.12720 -0.11400
N 	N 	0.35560 0.91840 0.12390 -0.26100
N 	N 	0.02760 0.98560 0.91090 -0.11000
N 	N 	0.14300 0.93290 0.02070 -0.25400
O 	O 	0.26060 0.07950 0.10740 -0.39700
O 	O 	0.26390 0.21920 0.16430 -0.24400
O 	O 	0.14350 0.26440 0.21420 -0.28400
O 	O 	0.25870 0.29600 0.34500 -0.44100
C 	C 	0.25800 0.13520 0.16360 0.30200
C 	C 	0.20970 0.24120 0.28270 0.34200
C 	C 	0.24920 0.08490 0.23710 -0.00700
C 	C 	0.23120 0.13910 0.29690 -0.08600
C 	C 	0.23310 0.09030 0.36840 0.03800
H 	H 	0.22590 0.12190 0.41150 0.00400
C 	C 	0.24550 0.99600 0.37660 -0.11500
H 	H 	0.24640 0.96460 0.42530 0.07400
C 	C 	0.25640 0.94700 0.31510 0.04400
H 	H 	0.26350 0.88270 0.32070 0.03200
C 	C 	0.39950 0.98770 0.12250 0.08600
H 	H 	0.38630 0.05050 0.11860 0.00800
C 	C 	0.39510 0.83920 0.12850 0.02500
H 	H 	0.37840 0.77900 0.13080 0.01300
C 	C 	0.46200 0.86050 0.12930 -0.01900
H 	H 	0.49890 0.81890 0.13090 0.05300
C 	C 	0.52610 0.01380 0.12700 -0.03200
H 	H 	0.57670 0.00110 0.18280 0.03100
H 	H 	0.51340 0.07890 0.12860 0.04600
C 	C 	0.53460 0.99830 0.04490 -0.10600
H 	H 	0.57160 0.04450 0.04720 0.07200
H 	H 	0.55910 0.93760 0.05200 0.07200
C 	C 	0.10320 0.00700 0.97370 0.08200
H 	H 	0.12470 0.06660 0.98290 0.00900
C 	C 	0.09030 0.86230 0.98550 0.02200
H 	H 	0.10110 0.80110 0.00670 0.02400
C 	C 	0.01970 0.89260 0.91530 -0.01700
H 	H 	0.97480 0.85680 0.87770 0.05400
C 	C 	0.96970 0.05080 0.84270 -0.04700
H 	H 	0.98690 0.11430 0.86320 0.05200
H 	H 	0.91870 0.04180 0.83750 0.04700
C 	C 	0.96060 0.03650 0.74850 -0.10000
H 	H 	0.92720 0.08570 0.70720 0.06700
H 	H 	0.93390 0.97750 0.72310 0.07000
Zn	Zn	0.75678 0.56761 0.63193 1.20000
N 	N 	0.75670 0.50530 0.74390 -0.23300
N 	N 	0.96470 0.54440 0.62720 -0.11400
N 	N 	0.85560 0.58160 0.62390 -0.26100
N 	N 	0.52760 0.51440 0.41090 -0.11200
N 	N 	0.64300 0.56710 0.52070 -0.25300
O 	O 	0.76060 0.42050 0.60740 -0.39800
O 	O 	0.76390 0.28080 0.66430 -0.24400
O 	O 	0.64350 0.23560 0.71420 -0.28400
O 	O 	0.75870 0.20400 0.84500 -0.44200
C 	C 	0.75800 0.36480 0.66360 0.30200
C 	C 	0.70970 0.25880 0.78270 0.34200
C 	C 	0.74920 0.41510 0.73710 -0.00800
C 	C 	0.73120 0.36090 0.79690 -0.08500
C 	C 	0.73310 0.40970 0.86840 0.03700
H 	H 	0.72590 0.37810 0.91150 0.00500
C 	C 	0.74550 0.50400 0.87660 -0.11500
H 	H 	0.74640 0.53540 0.92530 0.07400
C 	C 	0.75640 0.55300 0.81510 0.04400
H 	H 	0.76350 0.61730 0.82070 0.03200
C 	C 	0.89950 0.51230 0.62250 0.08800
H 	H 	0.88630 0.44950 0.61860 0.00700
C 	C 	0.89510 0.66080 0.62850 0.02500
H 	H 	0.87840 0.72100 0.63080 0.01300
C 	C 	0.96200 0.63950 0.62930 -0.01900
H 	H 	0.99890 0.68110 0.63090 0.05400
C 	C 	0.02610 0.48620 0.62700 -0.03500
H 	H 	0.07670 0.49890 0.68280 0.03100
H 	H 	0.01340 0.42110 0.62860 0.04700
C 	C 	0.03460 0.50170 0.54490 -0.10300
H 	H 	0.07160 0.45550 0.54720 0.07000
H 	H 	0.05910 0.56240 0.55200 0.07100
C 	C 	0.60320 0.49300 0.47370 0.08400
H 	H 	0.62470 0.43340 0.48290 0.00800
C 	C 	0.59030 0.63770 0.48550 0.01900
H 	H 	0.60110 0.69890 0.50670 0.02500
C 	C 	0.51970 0.60740 0.41530 -0.01600
H 	H 	0.47480 0.64320 0.37770 0.05300
C 	C 	0.46970 0.44920 0.34270 -0.04500
H 	H 	0.48690 0.38570 0.36320 0.05200
H 	H 	0.41870 0.45820 0.33750 0.04600
C 	C 	0.46060 0.46350 0.24850 -0.10100
H 	H 	0.42720 0.41430 0.20720 0.06800
H 	H 	0.43390 0.52250 0.22310 0.07100
Zn	Zn	0.25678 0.06761 0.63193 1.20000
N 	N 	0.25670 0.00530 0.74390 -0.23400
N 	N 	0.46470 0.04440 0.62720 -0.11400
N 	N 	0.35560 0.08160 0.62390 -0.26100
N 	N 	0.02760 0.01440 0.41090 -0.11200
N 	N 	0.14300 0.06710 0.52070 -0.25400
O 	O 	0.26060 0.92050 0.60740 -0.39800
O 	O 	0.26390 0.78080 0.66430 -0.24400
O 	O 	0.14350 0.73560 0.71420 -0.28400
O 	O 	0.25870 0.70400 0.84500 -0.44100
C 	C 	0.25800 0.86480 0.66360 0.30200
C 	C 	0.20970 0.75880 0.78270 0.34200
C 	C 	0.24920 0.91510 0.73710 -0.00600
C 	C 	0.23120 0.86090 0.79690 -0.08700
C 	C 	0.23310 0.90970 0.86840 0.04000
H 	H 	0.22590 0.87810 0.91150 0.00400
C 	C 	0.24550 0.00400 0.87660 -0.11800
H 	H 	0.24640 0.03540 0.92530 0.07400
C 	C 	0.25640 0.05300 0.81510 0.04500
H 	H 	0.26350 0.11730 0.82070 0.03100
C 	C 	0.39950 0.01230 0.62250 0.08700
H 	H 	0.38630 0.94950 0.61860 0.00700
C 	C 	0.39510 0.16080 0.62850 0.02500
H 	H 	0.37840 0.22100 0.63080 0.01300
C 	C 	0.46200 0.13950 0.62930 -0.01900
H 	H 	0.49890 0.18110 0.63090 0.05400
C 	C 	0.52610 0.98620 0.62700 -0.03500
H 	H 	0.57670 0.99890 0.68280 0.03100
H 	H 	0.51340 0.92110 0.62860 0.04700
C 	C 	0.53460 0.00170 0.54490 -0.10300
H 	H 	0.57160 0.95550 0.54720 0.07100
H 	H 	0.55910 0.06240 0.55200 0.07200
C 	C 	0.10320 0.99300 0.47370 0.08500
H 	H 	0.12470 0.93340 0.48290 0.00800
C 	C 	0.09030 0.13770 0.48550 0.01900
H 	H 	0.10110 0.19890 0.50670 0.02500
C 	C 	0.01970 0.10740 0.41530 -0.01600
H 	H 	0.97480 0.14320 0.37770 0.05300
C 	C 	0.96970 0.94920 0.34270 -0.04400
H 	H 	0.98690 0.88570 0.36320 0.05100
H 	H 	0.91870 0.95820 0.33750 0.04600
C 	C 	0.96060 0.96350 0.24850 -0.10500
H 	H 	0.92720 0.91430 0.20720 0.06900
H 	H 	0.93390 0.02250 0.22310 0.07200
Zn	Zn	0.24322 0.56761 0.86807 1.20000
N 	N 	0.24330 0.50530 0.75610 -0.23300
N 	N 	0.03530 0.54440 0.87280 -0.11400
N 	N 	0.14440 0.58160 0.87610 -0.26100
N 	N 	0.47240 0.51440 0.08910 -0.11200
N 	N 	0.35700 0.56710 0.97930 -0.25300
O 	O 	0.23940 0.42050 0.89260 -0.39800
O 	O 	0.23610 0.28080 0.83570 -0.24400
O 	O 	0.35650 0.23560 0.78580 -0.28400
O 	O 	0.24130 0.20400 0.65500 -0.44100
C 	C 	0.24200 0.36480 0.83640 0.30200
C 	C 	0.29030 0.25880 0.71730 0.34200
C 	C 	0.25080 0.41510 0.76290 -0.00800
C 	C 	0.26880 0.36090 0.70310 -0.08500
C 	C 	0.26690 0.40970 0.63160 0.03700
H 	H 	0.27410 0.37810 0.58850 0.00500
C 	C 	0.25450 0.50400 0.62340 -0.11500
H 	H 	0.25360 0.53540 0.57470 0.07400
C 	C 	0.24360 0.55300 0.68490 0.04400
H 	H 	0.23650 0.61730 0.67930 0.03200
C 	C 	0.10050 0.51230 0.87750 0.08800
H 	H 	0.11370 0.44950 0.88140 0.00700
C 	C 	0.10490 0.66080 0.87150 0.02500
H 	H 	0.12160 0.72100 0.86920 0.01300
C 	C 	0.03800 0.63950 0.87070 -0.01900
H 	H 	0.00110 0.68110 0.86910 0.05400
C 	C 	0.97390 0.48620 0.87300 -0.03500
H 	H 	0.92330 0.49890 0.81720 0.03100
H 	H 	0.98660 0.42110 0.87140 0.04700
C 	C 	0.96540 0.50170 0.95510 -0.10300
H 	H 	0.92840 0.45550 0.95280 0.07000
H 	H 	0.94090 0.56240 0.94800 0.07200
C 	C 	0.39680 0.49300 0.02630 0.08400
H 	H 	0.37530 0.43340 0.01710 0.00900
C 	C 	0.40970 0.63770 0.01450 0.01700
H 	H 	0.39890 0.69890 0.99330 0.02600
C 	C 	0.48030 0.60740 0.08470 -0.01500
H 	H 	0.52520 0.64320 0.12230 0.05300
C 	C 	0.53030 0.44920 0.15730 -0.04500
H 	H 	0.51310 0.38570 0.13680 0.05200
H 	H 	0.58130 0.45820 0.16250 0.04600
C 	C 	0.53940 0.46350 0.25150 -0.10100
H 	H 	0.57280 0.41430 0.29280 0.06800
H 	H 	0.56610 0.52250 0.27690 0.07000
Zn	Zn	0.74322 0.06761 0.86807 1.20000
N 	N 	0.74330 0.00530 0.75610 -0.23300
N 	N 	0.53530 0.04440 0.87280 -0.11400
N 	N 	0.64440 0.08160 0.87610 -0.26100
N 	N 	0.97240 0.01440 0.08910 -0.11000
N 	N 	0.85700 0.06710 0.97930 -0.25400
O 	O 	0.73940 0.92050 0.89260 -0.39700
O 	O 	0.73610 0.78080 0.83570 -0.24400
O 	O 	0.85650 0.73560 0.78580 -0.28400
O 	O 	0.74130 0.70400 0.65500 -0.44100
C 	C 	0.74200 0.86480 0.83640 0.30200
C 	C 	0.79030 0.75880 0.71730 0.34200
C 	C 	0.75080 0.91510 0.76290 -0.00700
C 	C 	0.76880 0.86090 0.70310 -0.08600
C 	C 	0.76690 0.90970 0.63160 0.03800
H 	H 	0.77410 0.87810 0.58850 0.00400
C 	C 	0.75450 0.00400 0.62340 -0.11500
H 	H 	0.75360 0.03540 0.57470 0.07400
C 	C 	0.74360 0.05300 0.68490 0.04400
H 	H 	0.73650 0.11730 0.67930 0.03200
C 	C 	0.60050 0.01230 0.87750 0.08600
H 	H 	0.61370 0.94950 0.88140 0.00800
C 	C 	0.60490 0.16080 0.87150 0.02500
H 	H 	0.62160 0.22100 0.86920 0.01300
C 	C 	0.53800 0.13950 0.87070 -0.01900
H 	H 	0.50110 0.18110 0.86910 0.05300
C 	C 	0.47390 0.98620 0.87300 -0.03200
H 	H 	0.42330 0.99890 0.81720 0.03100
H 	H 	0.48660 0.92110 0.87140 0.04600
C 	C 	0.46540 0.00170 0.95510 -0.10600
H 	H 	0.42840 0.95550 0.95280 0.07200
H 	H 	0.44090 0.06240 0.94800 0.07200
C 	C 	0.89680 0.99300 0.02630 0.08200
H 	H 	0.87530 0.93340 0.01710 0.00900
C 	C 	0.90970 0.13770 0.01450 0.02200
H 	H 	0.89890 0.19890 0.99330 0.02400
C 	C 	0.98030 0.10740 0.08470 -0.01700
H 	H 	0.02520 0.14320 0.12230 0.05400
C 	C 	0.03030 0.94920 0.15730 -0.04700
H 	H 	0.01310 0.88570 0.13680 0.05200
H 	H 	0.08130 0.95820 0.16250 0.04700
C 	C 	0.03940 0.96350 0.25150 -0.10000
H 	H 	0.07280 0.91430 0.29280 0.06700
H 	H 	0.06610 0.02250 0.27690 0.07000
