data_crystal

_cell_length_a 11.12400
_cell_length_b 15.70900
_cell_length_c 11.33700
_cell_angle_alpha 90.00000
_cell_angle_beta  106.48000
_cell_angle_gamma 90.00000

_symmetry_space_group_name_	'P 1'
_symmetry_space_group_name_H-M	'P 1'

loop_
_symmetry_equiv_pos_as_xyz
  x,y,z

loop_
_atom_site_label
_atom_site_type_symbol
_atom_site_fract_x
_atom_site_fract_y
_atom_site_fract_z
_atom_site_charge
Cu	Cu	0.76105 0.12696 0.03342 0.84900
N 	N 	0.75970 0.20714 0.89000 -0.21200
N 	N 	0.76540 0.30509 0.68550 -0.22100
N 	N 	0.90300 0.04938 0.02040 -0.21700
N 	N 	0.60420 0.05176 0.00940 -0.21400
C 	C 	0.84850 0.26390 0.89380 0.00200
H 	H 	0.91160 0.27130 0.96700 0.00300
C 	C 	0.67420 0.20080 0.78110 -0.00400
H 	H 	0.60960 0.16160 0.77260 0.00500
C 	C 	0.85100 0.31220 0.79370 -0.00000
H 	H 	0.91540 0.35160 0.80200 0.00200
C 	C 	0.67650 0.24880 0.68150 0.00400
H 	H 	0.61320 0.24160 0.60840 -0.00200
C 	C 	0.02400 0.06680 0.07460 0.00000
H 	H 	0.04420 0.11320 0.12730 0.00100
C 	C 	0.88110 0.98160 0.94510 -0.00400
H 	H 	0.79860 0.96700 0.90490 0.00600
C 	C 	0.61460 0.97210 0.05270 -0.00400
H 	H 	0.69410 0.95050 0.09060 0.00400
C 	C 	0.48770 0.07880 0.95700 0.00300
H 	H 	0.47550 0.13390 0.92600 0.00300
Cu	Cu	0.23895 0.62696 0.46658 0.84900
N 	N 	0.24030 0.70714 0.61000 -0.21400
N 	N 	0.23460 0.80509 0.81450 -0.22200
N 	N 	0.09700 0.54938 0.47960 -0.21600
N 	N 	0.39580 0.55176 0.49060 -0.21300
C 	C 	0.15150 0.76390 0.60620 0.00200
H 	H 	0.08840 0.77130 0.53300 0.00200
C 	C 	0.32580 0.70080 0.71890 -0.00400
H 	H 	0.39040 0.66160 0.72740 0.00400
C 	C 	0.14900 0.81220 0.70630 -0.00000
H 	H 	0.08460 0.85160 0.69800 0.00100
C 	C 	0.32350 0.74880 0.81850 0.00400
H 	H 	0.38680 0.74160 0.89160 -0.00200
C 	C 	0.97600 0.56680 0.42540 -0.00100
H 	H 	0.95580 0.61320 0.37270 0.00100
C 	C 	0.11890 0.48160 0.55490 -0.00400
H 	H 	0.20140 0.46700 0.59510 0.00600
C 	C 	0.38540 0.47210 0.44730 -0.00500
H 	H 	0.30590 0.45050 0.40940 0.00500
C 	C 	0.51230 0.57880 0.54300 0.00100
H 	H 	0.52450 0.63390 0.57400 0.00300
Cu	Cu	0.23895 0.87304 0.96658 0.84800
N 	N 	0.24030 0.79286 0.11000 -0.21300
N 	N 	0.23460 0.69491 0.31450 -0.22100
N 	N 	0.09700 0.95062 0.97960 -0.21700
N 	N 	0.39580 0.94824 0.99060 -0.21400
C 	C 	0.15150 0.73610 0.10620 0.00200
H 	H 	0.08840 0.72870 0.03300 0.00300
C 	C 	0.32580 0.79920 0.21890 -0.00400
H 	H 	0.39040 0.83840 0.22740 0.00500
C 	C 	0.14900 0.68780 0.20630 -0.00000
H 	H 	0.08460 0.64840 0.19800 0.00200
C 	C 	0.32350 0.75120 0.31850 0.00400
H 	H 	0.38680 0.75840 0.39160 -0.00200
C 	C 	0.97600 0.93320 0.92540 0.00000
H 	H 	0.95580 0.88680 0.87270 0.00100
C 	C 	0.11890 0.01840 0.05490 -0.00400
H 	H 	0.20140 0.03300 0.09510 0.00600
C 	C 	0.38540 0.02790 0.94730 -0.00400
H 	H 	0.30590 0.04950 0.90940 0.00400
C 	C 	0.51230 0.92120 0.04300 0.00300
H 	H 	0.52450 0.86610 0.07400 0.00300
Cu	Cu	0.76105 0.37304 0.53342 0.84900
N 	N 	0.75970 0.29286 0.39000 -0.21400
N 	N 	0.76540 0.19491 0.18550 -0.22200
N 	N 	0.90300 0.45062 0.52040 -0.21600
N 	N 	0.60420 0.44824 0.50940 -0.21300
C 	C 	0.84850 0.23610 0.39380 0.00200
H 	H 	0.91160 0.22870 0.46700 0.00200
C 	C 	0.67420 0.29920 0.28110 -0.00400
H 	H 	0.60960 0.33840 0.27260 0.00400
C 	C 	0.85100 0.18780 0.29370 -0.00000
H 	H 	0.91540 0.14840 0.30200 0.00100
C 	C 	0.67650 0.25120 0.18150 0.00400
H 	H 	0.61320 0.25840 0.10840 -0.00200
C 	C 	0.02400 0.43320 0.57460 -0.00100
H 	H 	0.04420 0.38680 0.62730 0.00100
C 	C 	0.88110 0.51840 0.44510 -0.00400
H 	H 	0.79860 0.53300 0.40490 0.00600
C 	C 	0.61460 0.52790 0.55270 -0.00500
H 	H 	0.69410 0.54950 0.59060 0.00500
C 	C 	0.48770 0.42120 0.45700 0.00100
H 	H 	0.47550 0.36610 0.42600 0.00300
