data_crystal

_cell_length_a 23.10920
_cell_length_b 18.80310
_cell_length_c 29.80620
_cell_angle_alpha 90.00000
_cell_angle_beta  105.32500
_cell_angle_gamma 90.00000

_symmetry_space_group_name_	'P 1'
_symmetry_space_group_name_H-M	'P 1'

loop_
_symmetry_equiv_pos_as_xyz
  x,y,z

loop_
_atom_site_label
_atom_site_type_symbol
_atom_site_fract_x
_atom_site_fract_y
_atom_site_fract_z
_atom_site_charge
C 	C 	0.31130 0.63230 0.01470 0.30000
C 	C 	0.34480 0.56700 0.01650 -0.04900
C 	C 	0.40140 0.56430 0.01150 -0.05200
H 	H 	0.41850 0.60800 0.00790 0.07800
C 	C 	0.29450 0.77280 0.09460 0.30400
O 	O 	0.58440 0.92450 0.24753 -0.33500
O 	O 	0.44480 0.93090 0.26950 -0.40600
C 	C 	0.10360 0.94360 0.00260 -0.04600
H 	H 	0.08830 0.89830 0.00450 0.07800
C 	C 	0.72130 0.77550 0.42160 0.33300
C 	C 	0.69920 0.78370 0.37240 -0.05400
C 	C 	0.73250 0.75040 0.34370 -0.06500
H 	H 	0.76370 0.71920 0.35620 0.08500
C 	C 	0.71600 0.76690 0.29570 0.09500
C 	C 	0.67280 0.82260 0.27910 -0.05900
H 	H 	0.66570 0.83780 0.24850 0.08500
C 	C 	0.64120 0.85450 0.30800 -0.05200
C 	C 	0.65430 0.83390 0.35630 0.00100
H 	H 	0.63330 0.85350 0.37600 0.06700
C 	C 	0.59270 0.90200 0.29090 0.32200
C 	C 	0.19790 0.87640 0.99970 0.28400
C 	C 	0.16280 0.94460 0.00010 0.07400
C 	C 	0.43390 0.91310 0.22970 0.34000
C 	C 	0.38490 0.85770 0.20990 -0.01300
C 	C 	0.36760 0.83710 0.16400 -0.03500
H 	H 	0.39250 0.84800 0.14500 0.08100
C 	C 	0.31580 0.80150 0.14520 0.00300
C 	C 	0.28270 0.77560 0.17580 -0.11600
H 	H 	0.24860 0.74810 0.16420 0.10200
C 	C 	0.30030 0.79080 0.22090 0.13100
C 	C 	0.35000 0.83350 0.23920 -0.09900
H 	H 	0.36030 0.84600 0.27050 0.09600
H 	H 	0.41124 0.86973 0.99704 0.26600
H 	H 	0.87062 0.65960 0.51797 0.17100
Cu	Cu	0.30287 0.78934 0.00228 0.91600
Cu	Cu	0.70835 0.77908 0.51577 0.89800
N 	N 	0.75550 0.74030 0.27000 -0.08200
N 	N 	0.27120 0.76820 0.25600 -0.08400
O 	O 	0.76630 0.73060 0.43534 -0.36000
O 	O 	0.68790 0.78980 0.44630 -0.39400
O 	O 	0.33710 0.69130 0.00850 -0.37000
O 	O 	0.25790 0.63500 0.02288 -0.37900
O 	O 	0.32620 0.80970 0.06887 -0.36500
O 	O 	0.24560 0.74880 0.08060 -0.40500
O 	O 	0.25150 0.87580 0.99879 -0.35000
O 	O 	0.16970 0.81780 0.00720 -0.35600
O 	O 	0.37910 0.84440 0.99050 -0.55100
O 	O 	0.56290 0.92350 0.31705 -0.36600
O 	O 	0.46340 0.92900 0.19940 -0.33500
C 	C 	0.81130 0.13230 0.51470 0.29400
C 	C 	0.84480 0.06700 0.51650 -0.04700
C 	C 	0.90140 0.06430 0.51150 -0.05500
H 	H 	0.91850 0.10800 0.50790 0.07300
C 	C 	0.79450 0.27280 0.59460 0.30500
O 	O 	0.08440 0.42450 0.74753 -0.36300
O 	O 	0.94480 0.43090 0.76950 -0.43400
C 	C 	0.60360 0.44360 0.50260 -0.09100
H 	H 	0.58830 0.39830 0.50450 0.08600
C 	C 	0.22130 0.27550 0.92160 0.33300
C 	C 	0.19920 0.28370 0.87240 -0.06200
C 	C 	0.23250 0.25040 0.84370 -0.06300
H 	H 	0.26370 0.21920 0.85620 0.08000
C 	C 	0.21600 0.26690 0.79570 0.08600
C 	C 	0.17280 0.32260 0.77910 -0.05500
H 	H 	0.16570 0.33780 0.74850 0.07700
C 	C 	0.14120 0.35450 0.80800 -0.06500
C 	C 	0.15430 0.33390 0.85630 0.00500
H 	H 	0.13330 0.35350 0.87600 0.06000
C 	C 	0.09270 0.40200 0.79090 0.32800
C 	C 	0.69790 0.37640 0.49970 0.29900
C 	C 	0.66280 0.44460 0.50010 -0.00400
C 	C 	0.93390 0.41310 0.72970 0.34500
C 	C 	0.88490 0.35770 0.70990 -0.02700
C 	C 	0.86760 0.33710 0.66400 -0.03000
H 	H 	0.89250 0.34800 0.64500 0.07200
C 	C 	0.81580 0.30150 0.64520 -0.00800
C 	C 	0.78270 0.27560 0.67580 -0.11200
H 	H 	0.74860 0.24810 0.66420 0.09500
C 	C 	0.80030 0.29080 0.72090 0.12000
C 	C 	0.85000 0.33350 0.73920 -0.09500
H 	H 	0.86030 0.34600 0.77050 0.08800
H 	H 	0.91124 0.36973 0.49704 0.25600
H 	H 	0.37062 0.15960 0.01797 0.17000
Cu	Cu	0.80287 0.28934 0.50228 0.91500
Cu	Cu	0.20835 0.27908 0.01577 0.89600
N 	N 	0.25550 0.24030 0.77000 -0.08500
N 	N 	0.77120 0.26820 0.75600 -0.08700
O 	O 	0.26630 0.23060 0.93534 -0.36500
O 	O 	0.18790 0.28980 0.94630 -0.40000
O 	O 	0.83710 0.19130 0.50850 -0.37300
O 	O 	0.75790 0.13500 0.52288 -0.38500
O 	O 	0.82620 0.30970 0.56887 -0.37100
O 	O 	0.74560 0.24880 0.58060 -0.41000
O 	O 	0.75150 0.37580 0.49879 -0.36900
O 	O 	0.66970 0.31780 0.50720 -0.36500
O 	O 	0.87910 0.34440 0.49050 -0.55200
O 	O 	0.06290 0.42350 0.81705 -0.39000
O 	O 	0.96340 0.42900 0.69940 -0.36400
C 	C 	0.68870 0.63230 0.98530 0.29900
C 	C 	0.65520 0.56700 0.98350 -0.05100
C 	C 	0.59860 0.56430 0.98850 -0.05200
H 	H 	0.58150 0.60800 0.99210 0.07600
C 	C 	0.70550 0.77280 0.90540 0.30300
O 	O 	0.41560 0.92450 0.75247 -0.33600
O 	O 	0.55520 0.93090 0.73050 -0.40600
C 	C 	0.89640 0.94360 0.99740 -0.03400
H 	H 	0.91170 0.89830 0.99550 0.07200
C 	C 	0.27870 0.77550 0.57840 0.33300
C 	C 	0.30080 0.78370 0.62760 -0.05300
C 	C 	0.26750 0.75040 0.65630 -0.06500
H 	H 	0.23630 0.71920 0.64380 0.08500
C 	C 	0.28400 0.76690 0.70430 0.09500
C 	C 	0.32720 0.82260 0.72090 -0.05900
H 	H 	0.33430 0.83780 0.75150 0.08500
C 	C 	0.35880 0.85450 0.69200 -0.05200
C 	C 	0.34570 0.83390 0.64370 0.00100
H 	H 	0.36670 0.85350 0.62400 0.06700
C 	C 	0.40730 0.90200 0.70910 0.32200
C 	C 	0.80210 0.87640 0.00030 0.29300
C 	C 	0.83720 0.94460 0.99990 0.05700
C 	C 	0.56610 0.91310 0.77030 0.34000
C 	C 	0.61510 0.85770 0.79010 -0.01300
C 	C 	0.63240 0.83710 0.83600 -0.03500
H 	H 	0.60750 0.84800 0.85500 0.08000
C 	C 	0.68420 0.80150 0.85480 0.00300
C 	C 	0.71730 0.77560 0.82420 -0.11600
H 	H 	0.75140 0.74810 0.83580 0.10100
C 	C 	0.69970 0.79080 0.77910 0.13000
C 	C 	0.65000 0.83350 0.76080 -0.09900
H 	H 	0.63970 0.84600 0.72950 0.09600
H 	H 	0.58876 0.86973 0.00296 0.26600
H 	H 	0.12938 0.65960 0.48203 0.17200
Cu	Cu	0.69713 0.78934 0.99772 0.91500
Cu	Cu	0.29165 0.77908 0.48423 0.89800
N 	N 	0.24450 0.74030 0.73000 -0.08200
N 	N 	0.72880 0.76820 0.74400 -0.08400
O 	O 	0.23370 0.73060 0.56466 -0.36000
O 	O 	0.31210 0.78980 0.55370 -0.39400
O 	O 	0.66290 0.69130 0.99150 -0.37100
O 	O 	0.74210 0.63500 0.97712 -0.38000
O 	O 	0.67380 0.80970 0.93113 -0.36500
O 	O 	0.75440 0.74880 0.91940 -0.40500
O 	O 	0.74850 0.87580 0.00121 -0.35200
O 	O 	0.83030 0.81780 0.99280 -0.36000
O 	O 	0.62090 0.84440 0.00950 -0.54700
O 	O 	0.43710 0.92350 0.68295 -0.36600
O 	O 	0.53660 0.92900 0.80060 -0.33500
C 	C 	0.18870 0.13230 0.48530 0.29400
C 	C 	0.15520 0.06700 0.48350 -0.04600
C 	C 	0.09860 0.06430 0.48850 -0.05600
H 	H 	0.08150 0.10800 0.49210 0.07500
C 	C 	0.20550 0.27280 0.40540 0.30500
O 	O 	0.91560 0.42450 0.25247 -0.36400
O 	O 	0.05520 0.43090 0.23050 -0.43100
C 	C 	0.39640 0.44360 0.49740 -0.09100
H 	H 	0.41170 0.39830 0.49550 0.08600
C 	C 	0.77870 0.27550 0.07840 0.33300
C 	C 	0.80080 0.28370 0.12760 -0.06200
C 	C 	0.76750 0.25040 0.15630 -0.06300
H 	H 	0.73630 0.21920 0.14380 0.08000
C 	C 	0.78400 0.26690 0.20430 0.08600
C 	C 	0.82720 0.32260 0.22090 -0.05500
H 	H 	0.83430 0.33780 0.25150 0.07700
C 	C 	0.85880 0.35450 0.19200 -0.06600
C 	C 	0.84570 0.33390 0.14370 0.00500
H 	H 	0.86670 0.35350 0.12400 0.05900
C 	C 	0.90730 0.40200 0.20910 0.32800
C 	C 	0.30210 0.37640 0.50030 0.29900
C 	C 	0.33720 0.44460 0.49990 -0.00400
C 	C 	0.06610 0.41310 0.27030 0.34400
C 	C 	0.11510 0.35770 0.29010 -0.02500
C 	C 	0.13240 0.33710 0.33600 -0.03100
H 	H 	0.10750 0.34800 0.35500 0.07300
C 	C 	0.18420 0.30150 0.35480 -0.00700
C 	C 	0.21730 0.27560 0.32420 -0.11200
H 	H 	0.25140 0.24810 0.33580 0.09600
C 	C 	0.19970 0.29080 0.27910 0.12100
C 	C 	0.15000 0.33350 0.26080 -0.09600
H 	H 	0.13970 0.34600 0.22950 0.08900
H 	H 	0.08876 0.36973 0.50296 0.25700
H 	H 	0.62938 0.15960 0.98203 0.16700
Cu	Cu	0.19713 0.28934 0.49772 0.91500
Cu	Cu	0.79165 0.27908 0.98423 0.89500
N 	N 	0.74450 0.24030 0.23000 -0.08500
N 	N 	0.22880 0.26820 0.24400 -0.08700
O 	O 	0.73370 0.23060 0.06466 -0.36400
O 	O 	0.81210 0.28980 0.05370 -0.39900
O 	O 	0.16290 0.19130 0.49150 -0.37200
O 	O 	0.24210 0.13500 0.47712 -0.38500
O 	O 	0.17380 0.30970 0.43113 -0.37000
O 	O 	0.25440 0.24880 0.41940 -0.41000
O 	O 	0.24850 0.37580 0.50121 -0.36800
O 	O 	0.33030 0.31780 0.49280 -0.36500
O 	O 	0.12090 0.34440 0.50950 -0.55200
O 	O 	0.93710 0.42350 0.18295 -0.39100
O 	O 	0.03660 0.42900 0.30060 -0.36100
C 	C 	0.68870 0.36770 0.98530 0.29900
C 	C 	0.65520 0.43300 0.98350 -0.05200
C 	C 	0.59860 0.43570 0.98850 -0.05200
H 	H 	0.58150 0.39200 0.99210 0.07500
C 	C 	0.70550 0.22720 0.90540 0.30600
O 	O 	0.41560 0.07550 0.75247 -0.37200
O 	O 	0.55520 0.06910 0.73050 -0.44400
C 	C 	0.89640 0.05640 0.99740 -0.08900
H 	H 	0.91170 0.10170 0.99550 0.08600
C 	C 	0.27870 0.22450 0.57840 0.33200
C 	C 	0.30080 0.21630 0.62760 -0.06200
C 	C 	0.26750 0.24960 0.65630 -0.06300
H 	H 	0.23630 0.28080 0.64380 0.08200
C 	C 	0.28400 0.23310 0.70430 0.08700
C 	C 	0.32720 0.17740 0.72090 -0.05400
H 	H 	0.33430 0.16220 0.75150 0.07400
C 	C 	0.35880 0.14550 0.69200 -0.07100
C 	C 	0.34570 0.16610 0.64370 0.00500
H 	H 	0.36670 0.14650 0.62400 0.05500
C 	C 	0.40730 0.09800 0.70910 0.32800
C 	C 	0.80210 0.12360 0.00030 0.29600
C 	C 	0.83720 0.05540 0.99990 0.00600
C 	C 	0.56610 0.08690 0.77030 0.34200
C 	C 	0.61510 0.14230 0.79010 -0.03000
C 	C 	0.63240 0.16290 0.83600 -0.03000
H 	H 	0.60750 0.15200 0.85500 0.07000
C 	C 	0.68420 0.19850 0.85480 -0.01100
C 	C 	0.71730 0.22440 0.82420 -0.11100
H 	H 	0.75140 0.25190 0.83580 0.09600
C 	C 	0.69970 0.20920 0.77910 0.11800
C 	C 	0.65000 0.16650 0.76080 -0.09500
H 	H 	0.63970 0.15400 0.72950 0.08400
H 	H 	0.58876 0.13027 0.00296 0.24900
H 	H 	0.12938 0.34040 0.48203 0.17100
Cu	Cu	0.69713 0.21066 0.99772 0.91400
Cu	Cu	0.29165 0.22092 0.48423 0.89400
N 	N 	0.24450 0.25970 0.73000 -0.08400
N 	N 	0.72880 0.23180 0.74400 -0.08800
O 	O 	0.23370 0.26940 0.56466 -0.36300
O 	O 	0.31210 0.21020 0.55370 -0.40200
O 	O 	0.66290 0.30870 0.99150 -0.37200
O 	O 	0.74210 0.36500 0.97712 -0.38000
O 	O 	0.67380 0.19030 0.93113 -0.37300
O 	O 	0.75440 0.25120 0.91940 -0.40900
O 	O 	0.74850 0.12420 0.00121 -0.37300
O 	O 	0.83030 0.18220 0.99280 -0.36600
O 	O 	0.62090 0.15560 0.00950 -0.55100
O 	O 	0.43710 0.07650 0.68295 -0.40200
O 	O 	0.53660 0.07100 0.80060 -0.37200
C 	C 	0.18870 0.86770 0.48530 0.29300
C 	C 	0.15520 0.93300 0.48350 -0.00700
C 	C 	0.09860 0.93570 0.48850 -0.00100
H 	H 	0.08150 0.89200 0.49210 0.07000
C 	C 	0.20550 0.72720 0.40540 0.30600
O 	O 	0.91560 0.57550 0.25247 -0.36200
O 	O 	0.05520 0.56910 0.23050 -0.42900
C 	C 	0.39640 0.55640 0.49740 -0.09200
H 	H 	0.41170 0.60170 0.49550 0.08900
C 	C 	0.77870 0.72450 0.07840 0.33100
C 	C 	0.80080 0.71630 0.12760 -0.05400
C 	C 	0.76750 0.74960 0.15630 -0.06500
H 	H 	0.73630 0.78080 0.14380 0.08900
C 	C 	0.78400 0.73310 0.20430 0.09500
C 	C 	0.82720 0.67740 0.22090 -0.05600
H 	H 	0.83430 0.66220 0.25150 0.08000
C 	C 	0.85880 0.64550 0.19200 -0.06100
C 	C 	0.84570 0.66610 0.14370 0.00300
H 	H 	0.86670 0.64650 0.12400 0.06200
C 	C 	0.90730 0.59800 0.20910 0.32800
C 	C 	0.30210 0.62360 0.50030 0.29800
C 	C 	0.33720 0.55540 0.49990 -0.00300
C 	C 	0.06610 0.58690 0.27030 0.34400
C 	C 	0.11510 0.64230 0.29010 -0.02000
C 	C 	0.13240 0.66290 0.33600 -0.03200
H 	H 	0.10750 0.65200 0.35500 0.07600
C 	C 	0.18420 0.69850 0.35480 -0.00200
C 	C 	0.21730 0.72440 0.32420 -0.11400
H 	H 	0.25140 0.75190 0.33580 0.10300
C 	C 	0.19970 0.70920 0.27910 0.12800
C 	C 	0.15000 0.66650 0.26080 -0.09700
H 	H 	0.13970 0.65400 0.22950 0.09100
H 	H 	0.08876 0.63027 0.50296 0.25800
H 	H 	0.62938 0.84040 0.98203 0.17400
Cu	Cu	0.19713 0.71066 0.49772 0.91500
Cu	Cu	0.79165 0.72092 0.98423 0.89600
N 	N 	0.74450 0.75970 0.23000 -0.08100
N 	N 	0.22880 0.73180 0.24400 -0.08400
O 	O 	0.73370 0.76940 0.06466 -0.35700
O 	O 	0.81210 0.71020 0.05370 -0.39600
O 	O 	0.16290 0.80870 0.49150 -0.36600
O 	O 	0.24210 0.86500 0.47712 -0.36400
O 	O 	0.17380 0.69030 0.43113 -0.36900
O 	O 	0.25440 0.75120 0.41940 -0.40400
O 	O 	0.24850 0.62420 0.50121 -0.36800
O 	O 	0.33030 0.68220 0.49280 -0.36100
O 	O 	0.12090 0.65560 0.50950 -0.55000
O 	O 	0.93710 0.57650 0.18295 -0.39000
O 	O 	0.03660 0.57100 0.30060 -0.35900
C 	C 	0.31130 0.36770 0.01470 0.29900
C 	C 	0.34480 0.43300 0.01650 -0.05100
C 	C 	0.40140 0.43570 0.01150 -0.05200
H 	H 	0.41850 0.39200 0.00790 0.07600
C 	C 	0.29450 0.22720 0.09460 0.30600
O 	O 	0.58440 0.07550 0.24753 -0.37200
O 	O 	0.44480 0.06910 0.26950 -0.44400
C 	C 	0.10360 0.05640 0.00260 -0.10100
H 	H 	0.08830 0.10170 0.00450 0.09200
C 	C 	0.72130 0.22450 0.42160 0.33200
C 	C 	0.69920 0.21630 0.37240 -0.06200
C 	C 	0.73250 0.24960 0.34370 -0.06300
H 	H 	0.76370 0.28080 0.35620 0.08200
C 	C 	0.71600 0.23310 0.29570 0.08700
C 	C 	0.67280 0.17740 0.27910 -0.05400
H 	H 	0.66570 0.16220 0.24850 0.07400
C 	C 	0.64120 0.14550 0.30800 -0.07100
C 	C 	0.65430 0.16610 0.35630 0.00500
H 	H 	0.63330 0.14650 0.37600 0.05500
C 	C 	0.59270 0.09800 0.29090 0.32800
C 	C 	0.19790 0.12360 0.99970 0.28700
C 	C 	0.16280 0.05540 0.00010 0.02400
C 	C 	0.43390 0.08690 0.22970 0.34200
C 	C 	0.38490 0.14230 0.20990 -0.03000
C 	C 	0.36760 0.16290 0.16400 -0.03000
H 	H 	0.39250 0.15200 0.14500 0.07000
C 	C 	0.31580 0.19850 0.14520 -0.01000
C 	C 	0.28270 0.22440 0.17580 -0.11100
H 	H 	0.24860 0.25190 0.16420 0.09700
C 	C 	0.30030 0.20920 0.22090 0.11900
C 	C 	0.35000 0.16650 0.23920 -0.09500
H 	H 	0.36030 0.15400 0.27050 0.08400
H 	H 	0.41124 0.13027 0.99704 0.25000
H 	H 	0.87062 0.34040 0.51797 0.17100
Cu	Cu	0.30287 0.21066 0.00228 0.91500
Cu	Cu	0.70835 0.22092 0.51577 0.89400
N 	N 	0.75550 0.25970 0.27000 -0.08400
N 	N 	0.27120 0.23180 0.25600 -0.08800
O 	O 	0.76630 0.26940 0.43534 -0.36300
O 	O 	0.68790 0.21020 0.44630 -0.40200
O 	O 	0.33710 0.30870 0.00850 -0.37100
O 	O 	0.25790 0.36500 0.02288 -0.37900
O 	O 	0.32620 0.19030 0.06887 -0.37300
O 	O 	0.24560 0.25120 0.08060 -0.40900
O 	O 	0.25150 0.12420 0.99879 -0.37100
O 	O 	0.16970 0.18220 0.00720 -0.36200
O 	O 	0.37910 0.15560 0.99050 -0.55500
O 	O 	0.56290 0.07650 0.31705 -0.40200
O 	O 	0.46340 0.07100 0.19940 -0.37200
C 	C 	0.81130 0.86770 0.51470 0.29300
C 	C 	0.84480 0.93300 0.51650 -0.00800
C 	C 	0.90140 0.93570 0.51150 0.00000
H 	H 	0.91850 0.89200 0.50790 0.06800
C 	C 	0.79450 0.72720 0.59460 0.30600
O 	O 	0.08440 0.57550 0.74753 -0.36100
O 	O 	0.94480 0.56910 0.76950 -0.43200
C 	C 	0.60360 0.55640 0.50260 -0.09200
H 	H 	0.58830 0.60170 0.50450 0.08900
C 	C 	0.22130 0.72450 0.92160 0.33100
C 	C 	0.19920 0.71630 0.87240 -0.05400
C 	C 	0.23250 0.74960 0.84370 -0.06500
H 	H 	0.26370 0.78080 0.85620 0.08900
C 	C 	0.21600 0.73310 0.79570 0.09500
C 	C 	0.17280 0.67740 0.77910 -0.05600
H 	H 	0.16570 0.66220 0.74850 0.08000
C 	C 	0.14120 0.64550 0.80800 -0.06100
C 	C 	0.15430 0.66610 0.85630 0.00300
H 	H 	0.13330 0.64650 0.87600 0.06200
C 	C 	0.09270 0.59800 0.79090 0.32800
C 	C 	0.69790 0.62360 0.49970 0.29800
C 	C 	0.66280 0.55540 0.50010 -0.00300
C 	C 	0.93390 0.58690 0.72970 0.34400
C 	C 	0.88490 0.64230 0.70990 -0.02200
C 	C 	0.86760 0.66290 0.66400 -0.03200
H 	H 	0.89250 0.65200 0.64500 0.07500
C 	C 	0.81580 0.69850 0.64520 -0.00200
C 	C 	0.78270 0.72440 0.67580 -0.11300
H 	H 	0.74860 0.75190 0.66420 0.10200
C 	C 	0.80030 0.70920 0.72090 0.12700
C 	C 	0.85000 0.66650 0.73920 -0.09600
H 	H 	0.86030 0.65400 0.77050 0.09100
H 	H 	0.91124 0.63027 0.49704 0.25700
H 	H 	0.37062 0.84040 0.01797 0.17600
Cu	Cu	0.80287 0.71066 0.50228 0.91500
Cu	Cu	0.20835 0.72092 0.01577 0.89600
N 	N 	0.25550 0.75970 0.77000 -0.08100
N 	N 	0.77120 0.73180 0.75600 -0.08500
O 	O 	0.26630 0.76940 0.93534 -0.35800
O 	O 	0.18790 0.71020 0.94630 -0.39600
O 	O 	0.83710 0.80870 0.50850 -0.36600
O 	O 	0.75790 0.86500 0.52288 -0.36400
O 	O 	0.82620 0.69030 0.56887 -0.36900
O 	O 	0.74560 0.75120 0.58060 -0.40400
O 	O 	0.75150 0.62420 0.49879 -0.36800
O 	O 	0.66970 0.68220 0.50720 -0.36100
O 	O 	0.87910 0.65560 0.49050 -0.55000
O 	O 	0.06290 0.57650 0.81705 -0.38800
O 	O 	0.96340 0.57100 0.69940 -0.36200
C 	C 	0.44090 0.50000 0.01080 0.07300
C 	C 	0.31190 0.50000 0.01940 -0.01200
H 	H 	0.27300 0.50000 0.02280 0.06200
C 	C 	0.94090 0.00000 0.51080 0.01900
C 	C 	0.81190 0.00000 0.51940 -0.07500
H 	H 	0.77300 0.00000 0.52280 0.06600
C 	C 	0.55910 0.50000 0.98920 0.07100
C 	C 	0.68810 0.50000 0.98060 -0.01200
H 	H 	0.72700 0.50000 0.97720 0.06200
C 	C 	0.05910 0.00000 0.48920 0.02400
C 	C 	0.18810 0.00000 0.48060 -0.07500
H 	H 	0.22700 0.00000 0.47720 0.06600
N 	N 	0.50000 0.50000 -0.00000 -0.11500
N 	N 	0.00000 0.00000 0.50000 -0.11400
C 	C 	0.06220 0.00000 0.00270 0.04300
C 	C 	0.19610 0.00000 0.99910 -0.17100
H 	H 	0.23590 0.00000 0.99790 0.11000
H 	H 	0.57543 0.00000 0.18019 -0.36100
H 	H 	0.53752 0.00000 0.15943 -1.38500
Cu	Cu	0.52714 0.00000 0.21719 0.95900
Cu	Cu	0.50048 0.00000 0.29883 0.88800
O 	O 	0.55330 -0.00000 0.15330 1.67100
C 	C 	0.56220 0.50000 0.50270 0.10900
C 	C 	0.69610 0.50000 0.49910 -0.06000
H 	H 	0.73590 0.50000 0.49790 0.08900
H 	H 	0.07543 0.50000 0.68019 -0.34500
H 	H 	0.03752 0.50000 0.65943 -1.35800
Cu	Cu	0.02714 0.50000 0.71719 0.97800
Cu	Cu	0.00048 0.50000 0.79883 0.91300
O 	O 	0.05330 0.50000 0.65330 1.65400
C 	C 	0.93780 0.00000 0.99730 0.03100
C 	C 	0.80390 0.00000 0.00090 -0.14700
H 	H 	0.76410 0.00000 0.00210 0.10200
H 	H 	0.42457 0.00000 0.81981 -0.36100
H 	H 	0.46248 0.00000 0.84057 -1.38600
Cu	Cu	0.47286 0.00000 0.78281 0.95900
Cu	Cu	0.49952 0.00000 0.70117 0.88800
O 	O 	0.44670 0.00000 0.84670 1.67200
C 	C 	0.43780 0.50000 0.49730 0.10900
C 	C 	0.30390 0.50000 0.50090 -0.06000
H 	H 	0.26410 0.50000 0.50210 0.08900
H 	H 	0.92457 0.50000 0.31981 -0.34500
H 	H 	0.96248 0.50000 0.34057 -1.36000
Cu	Cu	0.97286 0.50000 0.28281 0.97600
Cu	Cu	0.99952 0.50000 0.20117 0.91000
O 	O 	0.94670 0.50000 0.34670 1.65300
N 	N 	-0.00000 0.98400 -0.00000 0.10200
N 	N 	0.50000 0.48400 0.50000 -0.07300
N 	N 	-0.00000 0.01600 -0.00000 -0.20400
N 	N 	0.50000 0.51600 0.50000 -0.07100
