data_crystal

_cell_length_a 17.48100
_cell_length_b 24.50500
_cell_length_c 21.04900
_cell_angle_alpha 90.00000
_cell_angle_beta  92.99500
_cell_angle_gamma 90.00000

_symmetry_space_group_name_	'P 1'
_symmetry_space_group_name_H-M	'P 1'

loop_
_symmetry_equiv_pos_as_xyz
  x,y,z

loop_
_atom_site_label
_atom_site_type_symbol
_atom_site_fract_x
_atom_site_fract_y
_atom_site_fract_z
_atom_site_charge
Ru	Ru	0.96438 0.53267 0.47402 0.95300
Ru	Ru	0.55706 0.61762 0.27879 0.93000
S 	S 	0.56192 0.75916 0.44241 0.12900
F 	F 	0.17260 0.56930 0.20930 -0.55500
F 	F 	0.34510 0.46730 0.32740 -0.54500
F 	F 	0.15140 0.75790 0.60970 -0.63900
F 	F 	0.24920 0.63580 0.73290 -0.66200
F 	F 	0.19130 0.60770 0.46830 -0.47500
F 	F 	0.60580 0.33370 0.31320 -0.53600
F 	F 	0.58990 0.90330 0.30500 -0.92900
O 	O 	0.04100 0.53618 0.40610 -0.33300
O 	O 	0.11210 0.47204 0.45660 -0.33300
O 	O 	0.02420 0.59115 0.52490 -0.31500
O 	O 	0.09360 0.52644 0.57650 -0.31600
O 	O 	0.38600 0.61626 0.30420 -0.34800
O 	O 	0.49800 0.61912 0.36060 -0.36300
O 	O 	0.55540 0.53312 0.27998 -0.34100
O 	O 	0.55680 0.70162 0.27720 -0.30100
N 	N 	0.88850 0.59410 0.42590 -0.17100
N 	N 	0.66870 0.62010 0.33820 -0.18500
N 	N 	0.62560 0.71450 0.42800 -0.11200
N 	N 	0.61000 0.79930 0.49100 -0.10500
C 	C 	0.09980 0.50540 0.41100 0.22800
C 	C 	0.15630 0.50910 0.36120 0.34400
C 	C 	0.13640 0.53760 0.30490 -0.49300
C 	C 	0.18990 0.54140 0.25890 0.74700
C 	C 	0.26110 0.51670 0.26590 -0.69300
C 	C 	0.27820 0.48730 0.32110 0.77800
C 	C 	0.22650 0.48340 0.36790 -0.50800
C 	C 	0.07600 0.57580 0.56570 0.15300
C 	C 	0.11930 0.61770 0.60270 0.48900
C 	C 	0.11380 0.67050 0.58630 -0.69900
C 	C 	0.15770 0.71040 0.61750 0.93800
C 	C 	0.20660 0.69540 0.67060 -0.81800
C 	C 	0.21150 0.63970 0.68810 1.03300
C 	C 	0.16590 0.60230 0.65490 -0.73900
C 	C 	0.42580 0.61830 0.35600 0.29000
C 	C 	0.38410 0.61990 0.41710 0.14500
C 	C 	0.30460 0.61360 0.41390 -0.30500
C 	C 	0.26880 0.61550 0.46920 0.50700
C 	C 	0.30540 0.62510 0.52780 -0.32300
C 	C 	0.38560 0.63150 0.53000 0.19000
C 	C 	0.42370 0.62820 0.47480 -0.17700
C 	C 	0.55870 0.42000 0.28270 -0.47300
C 	C 	0.55870 0.36300 0.28180 0.75300
C 	C 	0.55600 0.81540 0.28320 -1.15900
C 	C 	0.55660 0.87200 0.28490 1.58300
C 	C 	0.83610 0.62180 0.42510 0.18800
C 	C 	0.76830 0.65340 0.42220 -0.09400
C 	C 	0.71140 0.63500 0.37680 0.18100
C 	C 	0.75960 0.69970 0.46070 0.02600
C 	C 	0.68940 0.72920 0.46070 0.04600
C 	C 	0.68000 0.77750 0.49810 0.04900
H 	H 	0.08730 0.55380 0.29850 0.25800
H 	H 	0.29710 0.51970 0.23380 0.32700
H 	H 	0.23920 0.46280 0.40520 0.26600
H 	H 	0.07880 0.68090 0.55240 0.31900
H 	H 	0.23550 0.72230 0.69390 0.40900
H 	H 	0.16650 0.56520 0.66810 0.33600
H 	H 	0.27690 0.60820 0.37440 0.19800
H 	H 	0.27760 0.62740 0.56530 0.19400
H 	H 	0.41300 0.63800 0.56940 0.02100
H 	H 	0.47790 0.63170 0.47620 0.12800
H 	H 	0.59840 0.43950 0.30540 0.25200
H 	H 	0.59570 0.79600 0.30590 0.46000
Ru	Ru	0.46438 0.03267 0.47402 0.94700
Ru	Ru	0.05706 0.11762 0.27879 0.92600
S 	S 	0.06192 0.25916 0.44241 0.12400
F 	F 	0.67260 0.06930 0.20930 -0.55400
F 	F 	0.84510 0.96730 0.32740 -0.54200
F 	F 	0.65140 0.25790 0.60970 -0.63700
F 	F 	0.74920 0.13580 0.73290 -0.66200
F 	F 	0.69130 0.10770 0.46830 -0.47500
F 	F 	0.10580 0.83370 0.31320 -0.53800
F 	F 	0.08990 0.40330 0.30500 -0.93100
O 	O 	0.54100 0.03618 0.40610 -0.32800
O 	O 	0.61210 0.97204 0.45660 -0.33200
O 	O 	0.52420 0.09115 0.52490 -0.31000
O 	O 	0.59360 0.02644 0.57650 -0.31400
O 	O 	0.88600 0.11626 0.30420 -0.34700
O 	O 	0.99800 0.11912 0.36060 -0.35700
O 	O 	0.05540 0.03312 0.27998 -0.34000
O 	O 	0.05680 0.20162 0.27720 -0.30000
N 	N 	0.38850 0.09410 0.42590 -0.17200
N 	N 	0.16870 0.12010 0.33820 -0.18500
N 	N 	0.12560 0.21450 0.42800 -0.11200
N 	N 	0.11000 0.29930 0.49100 -0.10500
C 	C 	0.59980 0.00540 0.41100 0.22800
C 	C 	0.65630 0.00910 0.36120 0.34400
C 	C 	0.63640 0.03760 0.30490 -0.49400
C 	C 	0.68990 0.04140 0.25890 0.74800
C 	C 	0.76110 0.01670 0.26590 -0.69400
C 	C 	0.77820 0.98730 0.32110 0.77900
C 	C 	0.72650 0.98340 0.36790 -0.50800
C 	C 	0.57600 0.07580 0.56570 0.15200
C 	C 	0.61930 0.11770 0.60270 0.49100
C 	C 	0.61380 0.17050 0.58630 -0.69900
C 	C 	0.65770 0.21040 0.61750 0.94000
C 	C 	0.70660 0.19540 0.67060 -0.81900
C 	C 	0.71150 0.13970 0.68810 1.03400
C 	C 	0.66590 0.10230 0.65490 -0.74000
C 	C 	0.92580 0.11830 0.35600 0.29000
C 	C 	0.88410 0.11990 0.41710 0.14700
C 	C 	0.80460 0.11360 0.41390 -0.30600
C 	C 	0.76880 0.11550 0.46920 0.50800
C 	C 	0.80540 0.12510 0.52780 -0.32300
C 	C 	0.88560 0.13150 0.53000 0.19200
C 	C 	0.92370 0.12820 0.47480 -0.17800
C 	C 	0.05870 0.92000 0.28270 -0.47400
C 	C 	0.05870 0.86300 0.28180 0.75600
C 	C 	0.05600 0.31540 0.28320 -1.16000
C 	C 	0.05660 0.37200 0.28490 1.58600
C 	C 	0.33610 0.12180 0.42510 0.18700
C 	C 	0.26830 0.15340 0.42220 -0.09400
C 	C 	0.21140 0.13500 0.37680 0.18000
C 	C 	0.25960 0.19970 0.46070 0.02500
C 	C 	0.18940 0.22920 0.46070 0.04600
C 	C 	0.18000 0.27750 0.49810 0.04900
H 	H 	0.58730 0.05380 0.29850 0.26000
H 	H 	0.79710 0.01970 0.23380 0.32800
H 	H 	0.73920 0.96280 0.40520 0.26700
H 	H 	0.57880 0.18090 0.55240 0.32100
H 	H 	0.73550 0.22230 0.69390 0.41000
H 	H 	0.66650 0.06520 0.66810 0.33700
H 	H 	0.77690 0.10820 0.37440 0.19900
H 	H 	0.77760 0.12740 0.56530 0.19500
H 	H 	0.91300 0.13800 0.56940 0.02200
H 	H 	0.97790 0.13170 0.47620 0.13100
H 	H 	0.09840 0.93950 0.30540 0.25200
H 	H 	0.09570 0.29600 0.30590 0.46000
Ru	Ru	0.03562 0.53267 0.02598 0.94100
Ru	Ru	0.44294 0.61762 0.22121 0.93100
S 	S 	0.43808 0.75916 0.05759 0.13100
F 	F 	0.82740 0.56930 0.29070 -0.55300
F 	F 	0.65490 0.46730 0.17260 -0.54400
F 	F 	0.84860 0.75790 0.89030 -0.63700
F 	F 	0.75080 0.63580 0.76710 -0.66200
F 	F 	0.80870 0.60770 0.03170 -0.47400
F 	F 	0.39420 0.33370 0.18680 -0.53600
F 	F 	0.41010 0.90330 0.19500 -0.92900
O 	O 	0.95900 0.53618 0.09390 -0.32200
O 	O 	0.88790 0.47204 0.04340 -0.33000
O 	O 	0.97580 0.59115 0.97510 -0.30500
O 	O 	0.90640 0.52644 0.92350 -0.31300
O 	O 	0.61400 0.61626 0.19580 -0.34800
O 	O 	0.50200 0.61912 0.13940 -0.36300
O 	O 	0.44460 0.53312 0.22002 -0.34100
O 	O 	0.44320 0.70162 0.22280 -0.30100
N 	N 	0.11150 0.59410 0.07410 -0.17400
N 	N 	0.33130 0.62010 0.16180 -0.18500
N 	N 	0.37440 0.71450 0.07200 -0.11200
N 	N 	0.39000 0.79930 0.00900 -0.10500
C 	C 	0.90020 0.50540 0.08900 0.22700
C 	C 	0.84370 0.50910 0.13880 0.34700
C 	C 	0.86360 0.53760 0.19510 -0.49500
C 	C 	0.81010 0.54140 0.24110 0.74900
C 	C 	0.73890 0.51670 0.23410 -0.69400
C 	C 	0.72180 0.48730 0.17890 0.77900
C 	C 	0.77350 0.48340 0.13210 -0.50900
C 	C 	0.92400 0.57580 0.93430 0.15200
C 	C 	0.88070 0.61770 0.89730 0.49300
C 	C 	0.88620 0.67050 0.91370 -0.70000
C 	C 	0.84230 0.71040 0.88250 0.94100
C 	C 	0.79340 0.69540 0.82940 -0.81900
C 	C 	0.78850 0.63970 0.81190 1.03400
C 	C 	0.83410 0.60230 0.84510 -0.74100
C 	C 	0.57420 0.61830 0.14400 0.29000
C 	C 	0.61590 0.61990 0.08290 0.14500
C 	C 	0.69540 0.61360 0.08610 -0.30500
C 	C 	0.73120 0.61550 0.03080 0.50900
C 	C 	0.69460 0.62510 0.97220 -0.32400
C 	C 	0.61440 0.63150 0.97000 0.18900
C 	C 	0.57630 0.62820 0.02520 -0.17600
C 	C 	0.44130 0.42000 0.21730 -0.47300
C 	C 	0.44130 0.36300 0.21820 0.75300
C 	C 	0.44400 0.81540 0.21680 -1.15900
C 	C 	0.44340 0.87200 0.21510 1.58300
C 	C 	0.16390 0.62180 0.07490 0.18700
C 	C 	0.23170 0.65340 0.07780 -0.09400
C 	C 	0.28860 0.63500 0.12320 0.18000
C 	C 	0.24040 0.69970 0.03930 0.02600
C 	C 	0.31060 0.72920 0.03930 0.04600
C 	C 	0.32000 0.77750 0.00190 0.05000
H 	H 	0.91270 0.55380 0.20150 0.26300
H 	H 	0.70290 0.51970 0.26620 0.32800
H 	H 	0.76080 0.46280 0.09480 0.26700
H 	H 	0.92120 0.68090 0.94760 0.32300
H 	H 	0.76450 0.72230 0.80610 0.40900
H 	H 	0.83350 0.56520 0.83190 0.33700
H 	H 	0.72310 0.60820 0.12560 0.19900
H 	H 	0.72240 0.62740 0.93470 0.19500
H 	H 	0.58700 0.63800 0.93060 0.02100
H 	H 	0.52210 0.63170 0.02380 0.12800
H 	H 	0.40160 0.43950 0.19460 0.25200
H 	H 	0.40430 0.79600 0.19410 0.46000
Ru	Ru	0.53562 0.03267 0.02598 0.94600
Ru	Ru	0.94294 0.11762 0.22121 0.93600
S 	S 	0.93808 0.25916 0.05759 0.13800
F 	F 	0.32740 0.06930 0.29070 -0.55400
F 	F 	0.15490 0.96730 0.17260 -0.54500
F 	F 	0.34860 0.25790 0.89030 -0.63700
F 	F 	0.25080 0.13580 0.76710 -0.66200
F 	F 	0.30870 0.10770 0.03170 -0.47500
F 	F 	0.89420 0.83370 0.18680 -0.53600
F 	F 	0.91010 0.40330 0.19500 -0.93000
O 	O 	0.45900 0.03618 0.09390 -0.32800
O 	O 	0.38790 0.97204 0.04340 -0.33000
O 	O 	0.47580 0.09115 0.97510 -0.30900
O 	O 	0.40640 0.02644 0.92350 -0.31400
O 	O 	0.11400 0.11626 0.19580 -0.34900
O 	O 	0.00200 0.11912 0.13940 -0.37000
O 	O 	0.94460 0.03312 0.22002 -0.33200
O 	O 	0.94320 0.20162 0.22280 -0.29200
N 	N 	0.61150 0.09410 0.07410 -0.17300
N 	N 	0.83130 0.12010 0.16180 -0.18500
N 	N 	0.87440 0.21450 0.07200 -0.11200
N 	N 	0.89000 0.29930 0.00900 -0.10400
C 	C 	0.40020 0.00540 0.08900 0.22600
C 	C 	0.34370 0.00910 0.13880 0.34400
C 	C 	0.36360 0.03760 0.19510 -0.49400
C 	C 	0.31010 0.04140 0.24110 0.74800
C 	C 	0.23890 0.01670 0.23410 -0.69500
C 	C 	0.22180 0.98730 0.17890 0.77900
C 	C 	0.27350 0.98340 0.13210 -0.50700
C 	C 	0.42400 0.07580 0.93430 0.15200
C 	C 	0.38070 0.11770 0.89730 0.49100
C 	C 	0.38620 0.17050 0.91370 -0.69900
C 	C 	0.34230 0.21040 0.88250 0.94000
C 	C 	0.29340 0.19540 0.82940 -0.81900
C 	C 	0.28850 0.13970 0.81190 1.03400
C 	C 	0.33410 0.10230 0.84510 -0.74100
C 	C 	0.07420 0.11830 0.14400 0.29000
C 	C 	0.11590 0.11990 0.08290 0.14400
C 	C 	0.19540 0.11360 0.08610 -0.30400
C 	C 	0.23120 0.11550 0.03080 0.50500
C 	C 	0.19460 0.12510 0.97220 -0.32100
C 	C 	0.11440 0.13150 0.97000 0.19200
C 	C 	0.07630 0.12820 0.02520 -0.18000
C 	C 	0.94130 0.92000 0.21730 -0.46400
C 	C 	0.94130 0.86300 0.21820 0.76400
C 	C 	0.94400 0.31540 0.21680 -1.14900
C 	C 	0.94340 0.37200 0.21510 1.59300
C 	C 	0.66390 0.12180 0.07490 0.18700
C 	C 	0.73170 0.15340 0.07780 -0.09400
C 	C 	0.78860 0.13500 0.12320 0.18100
C 	C 	0.74040 0.19970 0.03930 0.02500
C 	C 	0.81060 0.22920 0.03930 0.04700
C 	C 	0.82000 0.27750 0.00190 0.04900
H 	H 	0.41270 0.05380 0.20150 0.26000
H 	H 	0.20290 0.01970 0.26620 0.32800
H 	H 	0.26080 0.96280 0.09480 0.26600
H 	H 	0.42120 0.18090 0.94760 0.32100
H 	H 	0.26450 0.22230 0.80610 0.40900
H 	H 	0.33350 0.06520 0.83190 0.33700
H 	H 	0.22310 0.10820 0.12560 0.19800
H 	H 	0.22240 0.12740 0.93470 0.19400
H 	H 	0.08700 0.13800 0.93060 0.01900
H 	H 	0.02210 0.13170 0.02380 0.12600
H 	H 	0.90160 0.93950 0.19460 0.25100
H 	H 	0.90430 0.29600 0.19410 0.45800
Ru	Ru	0.03562 0.46733 0.52598 0.94100
Ru	Ru	0.44294 0.38238 0.72121 0.93100
S 	S 	0.43808 0.24084 0.55759 0.13000
F 	F 	0.82740 0.43070 0.79070 -0.55300
F 	F 	0.65490 0.53270 0.67260 -0.54400
F 	F 	0.84860 0.24210 0.39030 -0.63600
F 	F 	0.75080 0.36420 0.26710 -0.66200
F 	F 	0.80870 0.39230 0.53170 -0.47500
F 	F 	0.39420 0.66630 0.68680 -0.53600
F 	F 	0.41010 0.09670 0.69500 -0.92900
O 	O 	0.95900 0.46382 0.59390 -0.32300
O 	O 	0.88790 0.52796 0.54340 -0.33100
O 	O 	0.97580 0.40885 0.47510 -0.30400
O 	O 	0.90640 0.47356 0.42350 -0.31300
O 	O 	0.61400 0.38374 0.69580 -0.34800
O 	O 	0.50200 0.38088 0.63940 -0.36300
O 	O 	0.44460 0.46688 0.72002 -0.34100
O 	O 	0.44320 0.29838 0.72280 -0.30100
N 	N 	0.11150 0.40590 0.57410 -0.17400
N 	N 	0.33130 0.37990 0.66180 -0.18500
N 	N 	0.37440 0.28550 0.57200 -0.11200
N 	N 	0.39000 0.20070 0.50900 -0.10500
C 	C 	0.90020 0.49460 0.58900 0.22700
C 	C 	0.84370 0.49090 0.63880 0.34600
C 	C 	0.86360 0.46240 0.69510 -0.49400
C 	C 	0.81010 0.45860 0.74110 0.74900
C 	C 	0.73890 0.48330 0.73410 -0.69300
C 	C 	0.72180 0.51270 0.67890 0.77900
C 	C 	0.77350 0.51660 0.63210 -0.50900
C 	C 	0.92400 0.42420 0.43430 0.15200
C 	C 	0.88070 0.38230 0.39730 0.49300
C 	C 	0.88620 0.32950 0.41370 -0.70000
C 	C 	0.84230 0.28960 0.38250 0.94100
C 	C 	0.79340 0.30460 0.32940 -0.81900
C 	C 	0.78850 0.36030 0.31190 1.03500
C 	C 	0.83410 0.39770 0.34510 -0.74100
C 	C 	0.57420 0.38170 0.64400 0.29000
C 	C 	0.61590 0.38010 0.58290 0.14500
C 	C 	0.69540 0.38640 0.58610 -0.30500
C 	C 	0.73120 0.38450 0.53080 0.50700
C 	C 	0.69460 0.37490 0.47220 -0.32300
C 	C 	0.61440 0.36850 0.47000 0.19000
C 	C 	0.57630 0.37180 0.52520 -0.17700
C 	C 	0.44130 0.58000 0.71730 -0.47300
C 	C 	0.44130 0.63700 0.71820 0.75300
C 	C 	0.44400 0.18460 0.71680 -1.15900
C 	C 	0.44340 0.12800 0.71510 1.58300
C 	C 	0.16390 0.37820 0.57490 0.18700
C 	C 	0.23170 0.34660 0.57780 -0.09400
C 	C 	0.28860 0.36500 0.62320 0.18000
C 	C 	0.24040 0.30030 0.53930 0.02500
C 	C 	0.31060 0.27080 0.53930 0.04600
C 	C 	0.32000 0.22250 0.50190 0.04900
H 	H 	0.91270 0.44620 0.70150 0.26200
H 	H 	0.70290 0.48030 0.76620 0.32700
H 	H 	0.76080 0.53720 0.59480 0.26600
H 	H 	0.92120 0.31910 0.44760 0.32400
H 	H 	0.76450 0.27770 0.30610 0.41000
H 	H 	0.83350 0.43480 0.33190 0.33800
H 	H 	0.72310 0.39180 0.62560 0.19900
H 	H 	0.72240 0.37260 0.43470 0.19400
H 	H 	0.58700 0.36200 0.43060 0.02100
H 	H 	0.52210 0.36830 0.52380 0.12800
H 	H 	0.40160 0.56050 0.69460 0.25200
H 	H 	0.40430 0.20400 0.69410 0.46000
Ru	Ru	0.53562 0.96733 0.52598 0.94700
Ru	Ru	0.94294 0.88238 0.72121 0.93500
S 	S 	0.93808 0.74084 0.55759 0.13800
F 	F 	0.32740 0.93070 0.79070 -0.55400
F 	F 	0.15490 0.03270 0.67260 -0.54500
F 	F 	0.34860 0.74210 0.39030 -0.63700
F 	F 	0.25080 0.86420 0.26710 -0.66200
F 	F 	0.30870 0.89230 0.53170 -0.47500
F 	F 	0.89420 0.16630 0.68680 -0.53600
F 	F 	0.91010 0.59670 0.69500 -0.93000
O 	O 	0.45900 0.96382 0.59390 -0.32800
O 	O 	0.38790 0.02796 0.54340 -0.33200
O 	O 	0.47580 0.90885 0.47510 -0.31000
O 	O 	0.40640 0.97356 0.42350 -0.31500
O 	O 	0.11400 0.88374 0.69580 -0.34900
O 	O 	0.00200 0.88088 0.63940 -0.36900
O 	O 	0.94460 0.96688 0.72002 -0.33300
O 	O 	0.94320 0.79838 0.72280 -0.29300
N 	N 	0.61150 0.90590 0.57410 -0.17200
N 	N 	0.83130 0.87990 0.66180 -0.18500
N 	N 	0.87440 0.78550 0.57200 -0.11200
N 	N 	0.89000 0.70070 0.50900 -0.10400
C 	C 	0.40020 0.99460 0.58900 0.22800
C 	C 	0.34370 0.99090 0.63880 0.34400
C 	C 	0.36360 0.96240 0.69510 -0.49400
C 	C 	0.31010 0.95860 0.74110 0.74800
C 	C 	0.23890 0.98330 0.73410 -0.69400
C 	C 	0.22180 0.01270 0.67890 0.77900
C 	C 	0.27350 0.01660 0.63210 -0.50800
C 	C 	0.42400 0.92420 0.43430 0.15200
C 	C 	0.38070 0.88230 0.39730 0.49100
C 	C 	0.38620 0.82950 0.41370 -0.69900
C 	C 	0.34230 0.78960 0.38250 0.93900
C 	C 	0.29340 0.80460 0.32940 -0.81900
C 	C 	0.28850 0.86030 0.31190 1.03400
C 	C 	0.33410 0.89770 0.34510 -0.74000
C 	C 	0.07420 0.88170 0.64400 0.29100
C 	C 	0.11590 0.88010 0.58290 0.14400
C 	C 	0.19540 0.88640 0.58610 -0.30400
C 	C 	0.23120 0.88450 0.53080 0.50700
C 	C 	0.19460 0.87490 0.47220 -0.32200
C 	C 	0.11440 0.86850 0.47000 0.18900
C 	C 	0.07630 0.87180 0.52520 -0.17700
C 	C 	0.94130 0.08000 0.71730 -0.46600
C 	C 	0.94130 0.13700 0.71820 0.76200
C 	C 	0.94400 0.68460 0.71680 -1.15000
C 	C 	0.94340 0.62800 0.71510 1.59200
C 	C 	0.66390 0.87820 0.57490 0.18800
C 	C 	0.73170 0.84660 0.57780 -0.09400
C 	C 	0.78860 0.86500 0.62320 0.18100
C 	C 	0.74040 0.80030 0.53930 0.02600
C 	C 	0.81060 0.77080 0.53930 0.04700
C 	C 	0.82000 0.72250 0.50190 0.04900
H 	H 	0.41270 0.94620 0.70150 0.26000
H 	H 	0.20290 0.98030 0.76620 0.32700
H 	H 	0.26080 0.03720 0.59480 0.26600
H 	H 	0.42120 0.81910 0.44760 0.32100
H 	H 	0.26450 0.77770 0.30610 0.40900
H 	H 	0.33350 0.93480 0.33190 0.33700
H 	H 	0.22310 0.89180 0.62560 0.19800
H 	H 	0.22240 0.87260 0.43470 0.19400
H 	H 	0.08700 0.86200 0.43060 0.02000
H 	H 	0.02210 0.86830 0.52380 0.12600
H 	H 	0.90160 0.06050 0.69460 0.25100
H 	H 	0.90430 0.70400 0.69410 0.45800
Ru	Ru	0.96438 0.46733 0.97402 0.95300
Ru	Ru	0.55706 0.38238 0.77879 0.93100
S 	S 	0.56192 0.24084 0.94241 0.13100
F 	F 	0.17260 0.43070 0.70930 -0.55400
F 	F 	0.34510 0.53270 0.82740 -0.54400
F 	F 	0.15140 0.24210 0.10970 -0.63800
F 	F 	0.24920 0.36420 0.23290 -0.66200
F 	F 	0.19130 0.39230 0.96830 -0.47500
F 	F 	0.60580 0.66630 0.81320 -0.53600
F 	F 	0.58990 0.09670 0.80500 -0.92900
O 	O 	0.04100 0.46382 0.90610 -0.33200
O 	O 	0.11210 0.52796 0.95660 -0.33300
O 	O 	0.02420 0.40885 0.02490 -0.31500
O 	O 	0.09360 0.47356 0.07650 -0.31700
O 	O 	0.38600 0.38374 0.80420 -0.34800
O 	O 	0.49800 0.38088 0.86060 -0.36300
O 	O 	0.55540 0.46688 0.77998 -0.34100
O 	O 	0.55680 0.29838 0.77720 -0.30100
N 	N 	0.88850 0.40590 0.92590 -0.17100
N 	N 	0.66870 0.37990 0.83820 -0.18500
N 	N 	0.62560 0.28550 0.92800 -0.11200
N 	N 	0.61000 0.20070 0.99100 -0.10500
C 	C 	0.09980 0.49460 0.91100 0.22800
C 	C 	0.15630 0.49090 0.86120 0.34400
C 	C 	0.13640 0.46240 0.80490 -0.49300
C 	C 	0.18990 0.45860 0.75890 0.74700
C 	C 	0.26110 0.48330 0.76590 -0.69300
C 	C 	0.27820 0.51270 0.82110 0.77800
C 	C 	0.22650 0.51660 0.86790 -0.50800
C 	C 	0.07600 0.42420 0.06570 0.15300
C 	C 	0.11930 0.38230 0.10270 0.48900
C 	C 	0.11380 0.32950 0.08630 -0.69800
C 	C 	0.15770 0.28960 0.11750 0.93800
C 	C 	0.20660 0.30460 0.17060 -0.81800
C 	C 	0.21150 0.36030 0.18810 1.03300
C 	C 	0.16590 0.39770 0.15490 -0.73900
C 	C 	0.42580 0.38170 0.85600 0.29000
C 	C 	0.38410 0.38010 0.91710 0.14500
C 	C 	0.30460 0.38640 0.91390 -0.30500
C 	C 	0.26880 0.38450 0.96920 0.50800
C 	C 	0.30540 0.37490 0.02780 -0.32400
C 	C 	0.38560 0.36850 0.03000 0.19000
C 	C 	0.42370 0.37180 0.97480 -0.17700
C 	C 	0.55870 0.58000 0.78270 -0.47300
C 	C 	0.55870 0.63700 0.78180 0.75300
C 	C 	0.55600 0.18460 0.78320 -1.15900
C 	C 	0.55660 0.12800 0.78490 1.58300
C 	C 	0.83610 0.37820 0.92510 0.18800
C 	C 	0.76830 0.34660 0.92220 -0.09400
C 	C 	0.71140 0.36500 0.87680 0.18100
C 	C 	0.75960 0.30030 0.96070 0.02600
C 	C 	0.68940 0.27080 0.96070 0.04600
C 	C 	0.68000 0.22250 0.99810 0.05000
H 	H 	0.08730 0.44620 0.79850 0.25800
H 	H 	0.29710 0.48030 0.73380 0.32700
H 	H 	0.23920 0.53720 0.90520 0.26600
H 	H 	0.07880 0.31910 0.05240 0.31900
H 	H 	0.23550 0.27770 0.19390 0.40900
H 	H 	0.16650 0.43480 0.16810 0.33600
H 	H 	0.27690 0.39180 0.87440 0.19800
H 	H 	0.27760 0.37260 0.06530 0.19500
H 	H 	0.41300 0.36200 0.06940 0.02100
H 	H 	0.47790 0.36830 0.97620 0.12800
H 	H 	0.59840 0.56050 0.80540 0.25200
H 	H 	0.59570 0.20400 0.80590 0.46000
Ru	Ru	0.46438 0.96733 0.97402 0.94600
Ru	Ru	0.05706 0.88238 0.77879 0.92700
S 	S 	0.06192 0.74084 0.94241 0.12500
F 	F 	0.67260 0.93070 0.70930 -0.55400
F 	F 	0.84510 0.03270 0.82740 -0.54200
F 	F 	0.65140 0.74210 0.10970 -0.63700
F 	F 	0.74920 0.86420 0.23290 -0.66200
F 	F 	0.69130 0.89230 0.96830 -0.47500
F 	F 	0.10580 0.16630 0.81320 -0.53700
F 	F 	0.08990 0.59670 0.80500 -0.93100
O 	O 	0.54100 0.96382 0.90610 -0.32800
O 	O 	0.61210 0.02796 0.95660 -0.33000
O 	O 	0.52420 0.90885 0.02490 -0.30800
O 	O 	0.59360 0.97356 0.07650 -0.31300
O 	O 	0.88600 0.88374 0.80420 -0.34700
O 	O 	0.99800 0.88088 0.86060 -0.35800
O 	O 	0.05540 0.96688 0.77998 -0.34000
O 	O 	0.05680 0.79838 0.77720 -0.30000
N 	N 	0.38850 0.90590 0.92590 -0.17300
N 	N 	0.16870 0.87990 0.83820 -0.18500
N 	N 	0.12560 0.78550 0.92800 -0.11200
N 	N 	0.11000 0.70070 0.99100 -0.10500
C 	C 	0.59980 0.99460 0.91100 0.22600
C 	C 	0.65630 0.99090 0.86120 0.34400
C 	C 	0.63640 0.96240 0.80490 -0.49400
C 	C 	0.68990 0.95860 0.75890 0.74800
C 	C 	0.76110 0.98330 0.76590 -0.69400
C 	C 	0.77820 0.01270 0.82110 0.77900
C 	C 	0.72650 0.01660 0.86790 -0.50700
C 	C 	0.57600 0.92420 0.06570 0.15200
C 	C 	0.61930 0.88230 0.10270 0.49200
C 	C 	0.61380 0.82950 0.08630 -0.70000
C 	C 	0.65770 0.78960 0.11750 0.94000
C 	C 	0.70660 0.80460 0.17060 -0.81900
C 	C 	0.71150 0.86030 0.18810 1.03400
C 	C 	0.66590 0.89770 0.15490 -0.74100
C 	C 	0.92580 0.88170 0.85600 0.28900
C 	C 	0.88410 0.88010 0.91710 0.14800
C 	C 	0.80460 0.88640 0.91390 -0.30500
C 	C 	0.76880 0.88450 0.96920 0.50500
C 	C 	0.80540 0.87490 0.02780 -0.32100
C 	C 	0.88560 0.86850 0.03000 0.19600
C 	C 	0.92370 0.87180 0.97480 -0.18200
C 	C 	0.05870 0.08000 0.78270 -0.47400
C 	C 	0.05870 0.13700 0.78180 0.75600
C 	C 	0.05600 0.68460 0.78320 -1.16000
C 	C 	0.05660 0.62800 0.78490 1.58600
C 	C 	0.33610 0.87820 0.92510 0.18700
C 	C 	0.26830 0.84660 0.92220 -0.09400
C 	C 	0.21140 0.86500 0.87680 0.17900
C 	C 	0.25960 0.80030 0.96070 0.02400
C 	C 	0.18940 0.77080 0.96070 0.04600
C 	C 	0.18000 0.72250 0.99810 0.04800
H 	H 	0.58730 0.94620 0.79850 0.26000
H 	H 	0.79710 0.98030 0.73380 0.32800
H 	H 	0.73920 0.03720 0.90520 0.26700
H 	H 	0.57880 0.81910 0.05240 0.32200
H 	H 	0.73550 0.77770 0.19390 0.41000
H 	H 	0.66650 0.93480 0.16810 0.33700
H 	H 	0.77690 0.89180 0.87440 0.19900
H 	H 	0.77760 0.87260 0.06530 0.19400
H 	H 	0.91300 0.86200 0.06940 0.02100
H 	H 	0.97790 0.86830 0.97620 0.13200
H 	H 	0.09840 0.06050 0.80540 0.25200
H 	H 	0.09570 0.70400 0.80590 0.46000
C 	C 	0.50000 0.50880 0.25000 0.22600
C 	C 	0.50000 0.44760 0.25000 0.32700
C 	C 	0.50000 0.33340 0.25000 -0.64600
C 	C 	0.50000 0.72470 0.25000 0.05000
C 	C 	0.50000 0.78690 0.25000 0.79700
C 	C 	0.50000 0.90050 0.25000 -1.33600
H 	H 	0.50000 0.29470 0.25000 0.33900
H 	H 	0.50000 0.93920 0.25000 0.59800
C 	C 	0.00000 0.00880 0.25000 0.21500
C 	C 	0.00000 0.94760 0.25000 0.32000
C 	C 	0.00000 0.83340 0.25000 -0.66000
C 	C 	0.00000 0.22470 0.25000 0.03900
C 	C 	0.00000 0.28690 0.25000 0.78800
C 	C 	0.00000 0.40050 0.25000 -1.35100
H 	H 	-0.00000 0.79470 0.25000 0.34100
H 	H 	0.00000 0.43920 0.25000 0.59900
C 	C 	0.50000 0.49120 0.75000 0.22600
C 	C 	0.50000 0.55240 0.75000 0.32700
C 	C 	0.50000 0.66660 0.75000 -0.64600
C 	C 	0.50000 0.27530 0.75000 0.05000
C 	C 	0.50000 0.21310 0.75000 0.79700
C 	C 	0.50000 0.09950 0.75000 -1.33600
H 	H 	0.50000 0.70530 0.75000 0.33900
H 	H 	0.50000 0.06080 0.75000 0.59800
C 	C 	0.00000 0.99120 0.75000 0.21600
C 	C 	0.00000 0.05240 0.75000 0.32100
C 	C 	0.00000 0.16660 0.75000 -0.65900
C 	C 	-0.00000 0.77530 0.75000 0.04100
C 	C 	0.00000 0.71310 0.75000 0.78900
C 	C 	0.00000 0.59950 0.75000 -1.34900
H 	H 	0.00000 0.20530 0.75000 0.34000
H 	H 	0.00000 0.56080 0.75000 0.59900
