data_crystal

_cell_length_a 8.83450
_cell_length_b 35.59100
_cell_length_c 16.24600
_cell_angle_alpha 90.00000
_cell_angle_beta  93.43700
_cell_angle_gamma 90.00000

_symmetry_space_group_name_	'P 1'
_symmetry_space_group_name_H-M	'P 1'

loop_
_symmetry_equiv_pos_as_xyz
  x,y,z

loop_
_atom_site_label
_atom_site_type_symbol
_atom_site_fract_x
_atom_site_fract_y
_atom_site_fract_z
_atom_site_charge
C 	C 	0.78580 0.23910 0.29300 0.22900
C 	C 	0.32950 0.12420 0.30990 0.21000
C 	C 	0.41040 0.14231 0.38670 0.23300
C 	C 	0.50080 0.02214 0.36020 0.21300
C 	C 	0.34580 0.00271 0.36520 0.23500
C 	C 	0.27070 0.06728 0.59980 0.25400
C 	C 	0.11710 0.08000 0.55820 0.22000
C 	C 	0.95800 0.36598 0.29050 0.36100
C 	C 	0.72020 0.25833 0.21260 0.24300
Cr	Cr	0.31644 0.07284 0.43526 1.56800
O 	O 	0.91410 0.25227 0.32120 -0.29200
O 	O 	0.71280 0.21379 0.32310 -0.26700
O 	O 	0.79910 0.28591 0.18770 -0.31600
O 	O 	0.93510 0.33273 0.32030 -0.32300
O 	O 	0.47100 0.17323 0.37830 -0.29100
O 	O 	0.32850 0.14141 0.24360 -0.29000
O 	O 	0.40380 0.12339 0.45340 -0.36600
O 	O 	0.26300 0.09273 0.32390 -0.38900
O 	O 	0.51180 0.05419 0.39790 -0.35300
O 	O 	0.24610 0.02196 0.40280 -0.39500
O 	O 	0.12050 0.08567 0.48040 -0.40100
O 	O 	0.37280 0.05957 0.55010 -0.41300
O 	O 	0.32320 0.97180 0.33350 -0.30800
O 	O 	0.59910 0.00686 0.32260 -0.24900
O 	O 	0.92740 0.39604 0.32200 -0.23700
O 	O 	0.28330 0.06594 0.67610 -0.32000
O 	O 	0.00530 0.08490 0.59820 -0.19600
O 	O 	0.60220 0.24659 0.18110 -0.28200
C 	C 	0.28580 0.73910 0.29300 0.22500
C 	C 	0.82950 0.62420 0.30990 0.22700
C 	C 	0.91040 0.64231 0.38670 0.24600
C 	C 	0.00080 0.52214 0.36020 0.07100
C 	C 	0.84580 0.50271 0.36520 0.37100
C 	C 	0.77070 0.56728 0.59980 0.25800
C 	C 	0.61710 0.58000 0.55820 0.22700
C 	C 	0.45800 0.86598 0.29050 0.22800
C 	C 	0.22020 0.75833 0.21260 0.23300
Cr	Cr	0.81644 0.57284 0.43526 1.59000
O 	O 	0.41410 0.75227 0.32120 -0.37600
O 	O 	0.21280 0.71379 0.32310 -0.32600
O 	O 	0.29910 0.78591 0.18770 -0.38300
O 	O 	0.43510 0.83273 0.32030 -0.37800
O 	O 	0.97100 0.67323 0.37830 -0.22200
O 	O 	0.82850 0.64141 0.24360 -0.22400
O 	O 	0.90380 0.62339 0.45340 -0.32100
O 	O 	0.76300 0.59273 0.32390 -0.34800
O 	O 	0.01180 0.55419 0.39790 -0.42200
O 	O 	0.74610 0.52196 0.40280 -0.37900
O 	O 	0.62050 0.58567 0.48040 -0.36900
O 	O 	0.87280 0.55957 0.55010 -0.35800
O 	O 	0.82320 0.47180 0.33350 -0.27300
O 	O 	0.09910 0.50686 0.32260 -0.26400
O 	O 	0.42740 0.89604 0.32200 -0.28900
O 	O 	0.78330 0.56594 0.67610 -0.26400
O 	O 	0.50530 0.58490 0.59820 -0.13600
O 	O 	0.10220 0.74659 0.18110 -0.33500
C 	C 	0.21420 0.23910 0.20700 0.22800
C 	C 	0.67050 0.12420 0.19010 0.21100
C 	C 	0.58960 0.14231 0.11330 0.24400
C 	C 	0.49920 0.02214 0.13980 0.22600
C 	C 	0.65420 0.00271 0.13480 0.22700
C 	C 	0.72930 0.06728 0.90020 0.28000
C 	C 	0.88290 0.08000 0.94180 0.20800
C 	C 	0.04200 0.36598 0.20950 0.09200
C 	C 	0.27980 0.25833 0.28740 0.22800
Cr	Cr	0.68356 0.07284 0.06474 1.57100
O 	O 	0.08590 0.25227 0.17880 -0.42800
O 	O 	0.28720 0.21379 0.17690 -0.30900
O 	O 	0.20090 0.28591 0.31230 -0.39800
O 	O 	0.06490 0.33273 0.17970 -0.38800
O 	O 	0.52900 0.17323 0.12170 -0.29700
O 	O 	0.67150 0.14141 0.25640 -0.24800
O 	O 	0.59620 0.12339 0.04660 -0.37000
O 	O 	0.73700 0.09273 0.17610 -0.34200
O 	O 	0.48820 0.05419 0.10210 -0.37900
O 	O 	0.75390 0.02196 0.09720 -0.33500
O 	O 	0.87950 0.08567 0.01960 -0.32500
O 	O 	0.62720 0.05957 0.94990 -0.42100
O 	O 	0.67680 0.97180 0.16650 -0.25600
O 	O 	0.40090 0.00686 0.17740 -0.27900
O 	O 	0.07260 0.39604 0.17800 -0.29500
O 	O 	0.71670 0.06594 0.82390 -0.29100
O 	O 	0.99470 0.08490 0.90180 -0.06100
O 	O 	0.39780 0.24659 0.31890 -0.28900
C 	C 	0.71420 0.73910 0.20700 0.23300
C 	C 	0.17050 0.62420 0.19010 0.19500
C 	C 	0.08960 0.64231 0.11330 0.23000
C 	C 	0.99920 0.52214 0.13980 0.36900
C 	C 	0.15420 0.50271 0.13480 0.09100
C 	C 	0.22930 0.56728 0.90020 0.27300
C 	C 	0.38290 0.58000 0.94180 0.20400
C 	C 	0.54200 0.86598 0.20950 0.22500
C 	C 	0.77980 0.75833 0.28740 0.23700
Cr	Cr	0.18356 0.57284 0.06474 1.54900
O 	O 	0.58590 0.75227 0.17880 -0.36200
O 	O 	0.78720 0.71379 0.17690 -0.23500
O 	O 	0.70090 0.78591 0.31230 -0.35000
O 	O 	0.56490 0.83273 0.17970 -0.35200
O 	O 	0.02900 0.67323 0.12170 -0.35000
O 	O 	0.17150 0.64141 0.25640 -0.30200
O 	O 	0.09620 0.62339 0.04660 -0.41300
O 	O 	0.23700 0.59273 0.17610 -0.38300
O 	O 	0.98820 0.55419 0.10210 -0.30900
O 	O 	0.25390 0.52196 0.09720 -0.35000
O 	O 	0.37950 0.58567 0.01960 -0.35600
O 	O 	0.12720 0.55957 0.94990 -0.47100
O 	O 	0.17680 0.47180 0.16650 -0.27500
O 	O 	0.90090 0.50686 0.17740 -0.25300
O 	O 	0.57260 0.89604 0.17800 -0.25800
O 	O 	0.21670 0.56594 0.82390 -0.33000
O 	O 	0.49470 0.58490 0.90180 -0.12000
O 	O 	0.89780 0.74659 0.31890 -0.22300
C 	C 	0.21420 0.76090 0.70700 0.22800
C 	C 	0.67050 0.87580 0.69010 0.21100
C 	C 	0.58960 0.85769 0.61330 0.24400
C 	C 	0.49920 0.97786 0.63980 0.22500
C 	C 	0.65420 0.99729 0.63480 0.22700
C 	C 	0.72930 0.93272 0.40020 0.27900
C 	C 	0.88290 0.92000 0.44180 0.21400
C 	C 	0.04200 0.63402 0.70950 0.09300
C 	C 	0.27980 0.74167 0.78740 0.22800
Cr	Cr	0.68356 0.92716 0.56474 1.57000
O 	O 	0.08590 0.74773 0.67880 -0.42900
O 	O 	0.28720 0.78621 0.67690 -0.30900
O 	O 	0.20090 0.71409 0.81230 -0.39900
O 	O 	0.06490 0.66727 0.67970 -0.38800
O 	O 	0.52900 0.82677 0.62170 -0.29700
O 	O 	0.67150 0.85859 0.75640 -0.24900
O 	O 	0.59620 0.87661 0.54660 -0.37100
O 	O 	0.73700 0.90727 0.67610 -0.34200
O 	O 	0.48820 0.94581 0.60210 -0.37900
O 	O 	0.75390 0.97804 0.59720 -0.33600
O 	O 	0.87950 0.91433 0.51960 -0.32800
O 	O 	0.62720 0.94043 0.44990 -0.41900
O 	O 	0.67680 0.02820 0.66650 -0.25700
O 	O 	0.40090 0.99314 0.67740 -0.27900
O 	O 	0.07260 0.60396 0.67800 -0.29600
O 	O 	0.71670 0.93406 0.32390 -0.29000
O 	O 	0.99470 0.91510 0.40180 -0.06100
O 	O 	0.39780 0.75341 0.81890 -0.28900
C 	C 	0.71420 0.26090 0.70700 0.23300
C 	C 	0.17050 0.37580 0.69010 0.19400
C 	C 	0.08960 0.35769 0.61330 0.23000
C 	C 	0.99920 0.47786 0.63980 0.36900
C 	C 	0.15420 0.49729 0.63480 0.09000
C 	C 	0.22930 0.43272 0.40020 0.27200
C 	C 	0.38290 0.42000 0.44180 0.20800
C 	C 	0.54200 0.13402 0.70950 0.22500
C 	C 	0.77980 0.24167 0.78740 0.23800
Cr	Cr	0.18356 0.42716 0.56474 1.54800
O 	O 	0.58590 0.24773 0.67880 -0.36300
O 	O 	0.78720 0.28621 0.67690 -0.23500
O 	O 	0.70090 0.21409 0.81230 -0.35100
O 	O 	0.56490 0.16727 0.67970 -0.35300
O 	O 	0.02900 0.32677 0.62170 -0.35000
O 	O 	0.17150 0.35859 0.75640 -0.30200
O 	O 	0.09620 0.37661 0.54660 -0.41500
O 	O 	0.23700 0.40727 0.67610 -0.38300
O 	O 	0.98820 0.44581 0.60210 -0.30900
O 	O 	0.25390 0.47804 0.59720 -0.35100
O 	O 	0.37950 0.41433 0.51960 -0.36000
O 	O 	0.12720 0.44043 0.44990 -0.46900
O 	O 	0.17680 0.52820 0.66650 -0.27600
O 	O 	0.90090 0.49314 0.67740 -0.25300
O 	O 	0.57260 0.10396 0.67800 -0.25800
O 	O 	0.21670 0.43406 0.32390 -0.32900
O 	O 	0.49470 0.41510 0.40180 -0.12000
O 	O 	0.89780 0.25341 0.81890 -0.22400
C 	C 	0.78580 0.76090 0.79300 0.23000
C 	C 	0.32950 0.87580 0.80990 0.21000
C 	C 	0.41040 0.85769 0.88670 0.23300
C 	C 	0.50080 0.97786 0.86020 0.21200
C 	C 	0.34580 0.99729 0.86520 0.23400
C 	C 	0.27070 0.93272 0.09980 0.25300
C 	C 	0.11710 0.92000 0.05820 0.22500
C 	C 	0.95800 0.63402 0.79050 0.36100
C 	C 	0.72020 0.74167 0.71260 0.24200
Cr	Cr	0.31644 0.92716 0.93526 1.56700
O 	O 	0.91410 0.74773 0.82120 -0.29300
O 	O 	0.71280 0.78621 0.82310 -0.26800
O 	O 	0.79910 0.71409 0.68770 -0.31700
O 	O 	0.93510 0.66727 0.82030 -0.32400
O 	O 	0.47100 0.82677 0.87830 -0.29200
O 	O 	0.32850 0.85859 0.74360 -0.29000
O 	O 	0.40380 0.87661 0.95340 -0.36800
O 	O 	0.26300 0.90727 0.82390 -0.38900
O 	O 	0.51180 0.94581 0.89790 -0.35400
O 	O 	0.24610 0.97804 0.90280 -0.39500
O 	O 	0.12050 0.91433 0.98040 -0.40400
O 	O 	0.37280 0.94043 0.05010 -0.41100
O 	O 	0.32320 0.02820 0.83350 -0.30800
O 	O 	0.59910 0.99314 0.82260 -0.24900
O 	O 	0.92740 0.60396 0.82200 -0.23800
O 	O 	0.28330 0.93406 0.17610 -0.31900
O 	O 	0.00530 0.91510 0.09820 -0.19600
O 	O 	0.60220 0.75341 0.68110 -0.28200
C 	C 	0.28580 0.26090 0.79300 0.22500
C 	C 	0.82950 0.37580 0.80990 0.22700
C 	C 	0.91040 0.35769 0.88670 0.24600
C 	C 	0.00080 0.47786 0.86020 0.07300
C 	C 	0.84580 0.49729 0.86520 0.36900
C 	C 	0.77070 0.43272 0.09980 0.25700
C 	C 	0.61710 0.42000 0.05820 0.23200
C 	C 	0.45800 0.13402 0.79050 0.22800
C 	C 	0.22020 0.24167 0.71260 0.23300
Cr	Cr	0.81644 0.42716 0.93526 1.58900
O 	O 	0.41410 0.24773 0.82120 -0.37700
O 	O 	0.21280 0.28621 0.82310 -0.32600
O 	O 	0.29910 0.21409 0.68770 -0.38300
O 	O 	0.43510 0.16727 0.82030 -0.37900
O 	O 	0.97100 0.32677 0.87830 -0.22400
O 	O 	0.82850 0.35859 0.74360 -0.22400
O 	O 	0.90380 0.37661 0.95340 -0.32400
O 	O 	0.76300 0.40727 0.82390 -0.34800
O 	O 	0.01180 0.44581 0.89790 -0.42200
O 	O 	0.74610 0.47804 0.90280 -0.38000
O 	O 	0.62050 0.41433 0.98040 -0.37300
O 	O 	0.87280 0.44043 0.05010 -0.35600
O 	O 	0.82320 0.52820 0.83350 -0.27300
O 	O 	0.09910 0.49314 0.82260 -0.26400
O 	O 	0.42740 0.10396 0.82200 -0.28900
O 	O 	0.78330 0.43406 0.17610 -0.26300
O 	O 	0.50530 0.41510 0.09820 -0.13600
O 	O 	0.10220 0.25341 0.68110 -0.33500
Cr	Cr	-0.00000 0.29117 0.25000 1.50500
Mn	Mn	-0.00000 0.44948 0.25000 1.25800
Cr	Cr	0.50000 0.79117 0.25000 1.56400
Mn	Mn	0.50000 0.94948 0.25000 1.31600
Cr	Cr	-0.00000 0.70883 0.75000 1.50500
Mn	Mn	0.00000 0.55052 0.75000 1.25800
Cr	Cr	0.50000 0.20883 0.75000 1.56400
Mn	Mn	0.50000 0.05052 0.75000 1.31600
Mn	Mn	0.50000 0.19466 0.25000 1.31100
Mn	Mn	-0.00000 0.69466 0.25000 1.25300
Mn	Mn	0.50000 0.80534 0.75000 1.31100
Mn	Mn	-0.00000 0.30534 0.75000 1.25400
