data_crystal

_cell_length_a 19.42530
_cell_length_b 19.42530
_cell_length_c 21.70500
_cell_angle_alpha 64.17890
_cell_angle_beta  64.17890
_cell_angle_gamma 60.61990

_symmetry_space_group_name_	'P 1'
_symmetry_space_group_name_H-M	'P 1'

loop_
_symmetry_equiv_pos_as_xyz
  x,y,z

loop_
_atom_site_label
_atom_site_type_symbol
_atom_site_fract_x
_atom_site_fract_y
_atom_site_fract_z
_atom_site_charge
Zn	Zn	0.30204 0.18801 0.31260 1.19800
Zn	Zn	0.26091 0.27532 0.17311 1.19800
Zn	Zn	0.82041 0.26986 0.18076 1.19800
Zn	Zn	0.81199 0.69796 0.18740 1.19700
Zn	Zn	0.72468 0.73909 0.32689 1.19700
Zn	Zn	0.73014 0.17959 0.31924 1.19800
Zn	Zn	0.69796 0.81199 0.68740 1.19700
Zn	Zn	0.73909 0.72468 0.82689 1.19700
Zn	Zn	0.17959 0.73014 0.81924 1.19800
Zn	Zn	0.18801 0.30204 0.81260 1.19700
Zn	Zn	0.27532 0.26091 0.67311 1.19700
Zn	Zn	0.26986 0.82041 0.68076 1.19800
H 	H 	0.13290 0.37830 0.40850 0.06000
H 	H 	0.03970 0.48570 0.24010 0.04400
H 	H 	0.92020 0.57900 0.40990 0.06500
H 	H 	0.41410 0.41430 0.08550 0.06700
H 	H 	0.62570 0.40610 0.08910 0.06100
H 	H 	0.51520 0.25140 0.24870 0.04500
H 	H 	0.13620 0.07200 0.40140 0.06000
H 	H 	0.92470 0.07410 0.40670 0.06500
H 	H 	0.04660 0.20600 0.23030 0.04400
H 	H 	0.62170 0.86710 0.09150 0.06000
H 	H 	0.51430 0.96030 0.25990 0.04400
H 	H 	0.42100 0.07980 0.09010 0.06500
H 	H 	0.58570 0.58590 0.41450 0.06700
H 	H 	0.59390 0.37430 0.41090 0.06100
H 	H 	0.74860 0.48480 0.25130 0.04500
H 	H 	0.92800 0.86380 0.09860 0.06000
H 	H 	0.92590 0.07530 0.09330 0.06500
H 	H 	0.79400 0.95340 0.26970 0.04400
H 	H 	0.86710 0.62170 0.59150 0.06000
H 	H 	0.96030 0.51430 0.75990 0.04400
H 	H 	0.07980 0.42100 0.59010 0.06500
H 	H 	0.58590 0.58570 0.91450 0.06700
H 	H 	0.37430 0.59390 0.91090 0.06100
H 	H 	0.48480 0.74860 0.75130 0.04500
H 	H 	0.86380 0.92800 0.59860 0.06000
H 	H 	0.07530 0.92590 0.59330 0.06500
H 	H 	0.95340 0.79400 0.76970 0.04400
H 	H 	0.37830 0.13290 0.90850 0.06000
H 	H 	0.48570 0.03970 0.74010 0.04400
H 	H 	0.57900 0.92020 0.90990 0.06500
H 	H 	0.41430 0.41410 0.58550 0.06700
H 	H 	0.40610 0.62570 0.58910 0.06100
H 	H 	0.25140 0.51520 0.74870 0.04500
H 	H 	0.07200 0.13620 0.90140 0.06000
H 	H 	0.07410 0.92470 0.90670 0.06500
H 	H 	0.20600 0.04660 0.73030 0.04400
C 	C 	0.16580 0.35658 0.28566 0.39000
C 	C 	0.09561 0.42249 0.31958 -0.08600
C 	C 	0.09144 0.42002 0.38580 -0.04300
C 	C 	0.03562 0.48316 0.28619 0.02800
C 	C 	0.02608 0.47912 0.41910 0.07300
C 	C 	0.96472 0.53916 0.38680 -0.04100
C 	C 	0.96827 0.54123 0.32113 -0.08600
C 	C 	0.90077 0.60537 0.28805 0.38500
C 	C 	0.39031 0.29149 0.20124 0.37900
C 	C 	0.45643 0.32587 0.17049 -0.08100
C 	C 	0.45651 0.39071 0.10770 -0.04500
C 	C 	0.51995 0.42015 0.07850 0.07400
C 	C 	0.58240 0.38580 0.11020 -0.04400
C 	C 	0.58176 0.32188 0.17251 -0.08500
C 	C 	0.51751 0.29299 0.20436 0.02400
C 	C 	0.65068 0.28300 0.20563 0.39000
C 	C 	0.16922 0.17740 0.27622 0.38200
C 	C 	0.10081 0.14679 0.31051 -0.08800
C 	C 	0.09488 0.09128 0.37920 -0.04400
C 	C 	0.02985 0.06425 0.41500 0.07400
C 	C 	0.96993 0.09173 0.38201 -0.04200
C 	C 	0.97579 0.14411 0.31387 -0.08400
C 	C 	0.04189 0.17089 0.27781 0.03000
C 	C 	0.90818 0.17556 0.28120 0.38200
C 	C 	0.64342 0.83420 0.21434 0.39000
C 	C 	0.57751 0.90439 0.18042 -0.08600
C 	C 	0.57998 0.90856 0.11420 -0.04300
C 	C 	0.51684 0.96438 0.21381 0.02800
C 	C 	0.52088 0.97392 0.08090 0.07300
C 	C 	0.46084 0.03528 0.11320 -0.04100
C 	C 	0.45877 0.03173 0.17887 -0.08600
C 	C 	0.39463 0.09923 0.21195 0.38500
C 	C 	0.70851 0.60969 0.29876 0.37900
C 	C 	0.67413 0.54357 0.32951 -0.08100
C 	C 	0.60929 0.54349 0.39230 -0.04500
C 	C 	0.57985 0.48005 0.42150 0.07400
C 	C 	0.61420 0.41760 0.38980 -0.04400
C 	C 	0.67812 0.41824 0.32749 -0.08500
C 	C 	0.70701 0.48249 0.29564 0.02400
C 	C 	0.71700 0.34932 0.29437 0.39000
C 	C 	0.82260 0.83078 0.22378 0.38200
C 	C 	0.85321 0.89919 0.18949 -0.08800
C 	C 	0.90872 0.90512 0.12080 -0.04400
C 	C 	0.93575 0.97015 0.08500 0.07500
C 	C 	0.90827 0.03007 0.11799 -0.04200
C 	C 	0.85589 0.02421 0.18613 -0.08400
C 	C 	0.82911 0.95811 0.22219 0.03000
C 	C 	0.82444 0.09182 0.21880 0.38200
C 	C 	0.83420 0.64342 0.71434 0.39000
C 	C 	0.90439 0.57751 0.68042 -0.08600
C 	C 	0.90856 0.57998 0.61420 -0.04300
C 	C 	0.96438 0.51684 0.71381 0.02800
C 	C 	0.97392 0.52088 0.58090 0.07300
C 	C 	0.03528 0.46084 0.61320 -0.04100
C 	C 	0.03173 0.45877 0.67887 -0.08600
C 	C 	0.09923 0.39463 0.71195 0.38500
C 	C 	0.60969 0.70851 0.79876 0.37900
C 	C 	0.54357 0.67413 0.82951 -0.08100
C 	C 	0.54349 0.60929 0.89230 -0.04500
C 	C 	0.48005 0.57985 0.92150 0.07400
C 	C 	0.41760 0.61420 0.88980 -0.04400
C 	C 	0.41824 0.67812 0.82749 -0.08500
C 	C 	0.48249 0.70701 0.79564 0.02400
C 	C 	0.34932 0.71700 0.79437 0.39000
C 	C 	0.83078 0.82260 0.72378 0.38200
C 	C 	0.89919 0.85321 0.68949 -0.08800
C 	C 	0.90512 0.90872 0.62080 -0.04400
C 	C 	0.97015 0.93575 0.58500 0.07400
C 	C 	0.03007 0.90827 0.61799 -0.04200
C 	C 	0.02421 0.85589 0.68613 -0.08400
C 	C 	0.95811 0.82911 0.72219 0.03000
C 	C 	0.09182 0.82444 0.71880 0.38200
C 	C 	0.35658 0.16580 0.78566 0.39000
C 	C 	0.42249 0.09561 0.81958 -0.08600
C 	C 	0.42002 0.09144 0.88580 -0.04300
C 	C 	0.48316 0.03562 0.78619 0.02800
C 	C 	0.47912 0.02608 0.91910 0.07300
C 	C 	0.53916 0.96472 0.88680 -0.04100
C 	C 	0.54123 0.96827 0.82113 -0.08600
C 	C 	0.60537 0.90077 0.78805 0.38500
C 	C 	0.29149 0.39031 0.70124 0.37900
C 	C 	0.32587 0.45643 0.67049 -0.08100
C 	C 	0.39071 0.45651 0.60770 -0.04500
C 	C 	0.42015 0.51995 0.57850 0.07400
C 	C 	0.38580 0.58240 0.61020 -0.04400
C 	C 	0.32188 0.58176 0.67251 -0.08500
C 	C 	0.29299 0.51751 0.70436 0.02400
C 	C 	0.28300 0.65068 0.70563 0.39000
C 	C 	0.17740 0.16922 0.77622 0.38200
C 	C 	0.14679 0.10081 0.81051 -0.08800
C 	C 	0.09128 0.09488 0.87920 -0.04400
C 	C 	0.06425 0.02985 0.91500 0.07500
C 	C 	0.09173 0.96993 0.88201 -0.04200
C 	C 	0.14411 0.97579 0.81387 -0.08400
C 	C 	0.17089 0.04189 0.77781 0.03000
C 	C 	0.17556 0.90818 0.78120 0.38200
N 	N 	0.02841 0.47321 0.48630 -0.08600
N 	N 	0.52597 0.48697 0.01440 -0.08500
N 	N 	0.02991 0.00951 0.48479 -0.08700
N 	N 	0.52679 0.97159 0.01370 -0.08600
N 	N 	0.51303 0.47403 0.48560 -0.08500
N 	N 	0.99049 0.97009 0.01521 -0.08600
N 	N 	0.97159 0.52679 0.51370 -0.08600
N 	N 	0.47403 0.51303 0.98560 -0.08500
N 	N 	0.97009 0.99049 0.51521 -0.08700
N 	N 	0.47321 0.02841 0.98630 -0.08600
N 	N 	0.48697 0.52597 0.51440 -0.08500
N 	N 	0.00951 0.02991 0.98479 -0.08600
O 	O 	0.21384 0.30038 0.32225 -0.48300
O 	O 	0.17008 0.36142 0.22461 -0.46600
O 	O 	0.91083 0.61267 0.22442 -0.46100
O 	O 	0.83751 0.64577 0.32779 -0.48800
O 	O 	0.38769 0.23879 0.26237 -0.46900
O 	O 	0.34375 0.31701 0.16359 -0.47900
O 	O 	0.21094 0.16090 0.31510 -0.48600
O 	O 	0.17786 0.22120 0.21148 -0.45800
O 	O 	0.70829 0.30947 0.17070 -0.49000
O 	O 	0.64636 0.22726 0.26408 -0.46400
O 	O 	0.91975 0.21669 0.21621 -0.46600
O 	O 	0.84467 0.15943 0.32134 -0.47900
O 	O 	0.69962 0.78616 0.17775 -0.48300
O 	O 	0.63858 0.82992 0.27539 -0.46600
O 	O 	0.38733 0.08917 0.27558 -0.46100
O 	O 	0.35423 0.16249 0.17221 -0.48800
O 	O 	0.76121 0.61231 0.23763 -0.46900
O 	O 	0.68299 0.65625 0.33641 -0.47900
O 	O 	0.83910 0.78906 0.18490 -0.48500
O 	O 	0.77880 0.82214 0.28852 -0.45800
O 	O 	0.69053 0.29171 0.32930 -0.49000
O 	O 	0.77274 0.35364 0.23592 -0.46400
O 	O 	0.78331 0.08025 0.28379 -0.46600
O 	O 	0.84057 0.15533 0.17866 -0.47900
O 	O 	0.78616 0.69962 0.67775 -0.48300
O 	O 	0.82992 0.63858 0.77539 -0.46600
O 	O 	0.08917 0.38733 0.77558 -0.46100
O 	O 	0.16249 0.35423 0.67221 -0.48800
O 	O 	0.61231 0.76121 0.73763 -0.46900
O 	O 	0.65625 0.68299 0.83641 -0.47900
O 	O 	0.78906 0.83910 0.68490 -0.48600
O 	O 	0.82214 0.77880 0.78852 -0.45800
O 	O 	0.29171 0.69053 0.82930 -0.49000
O 	O 	0.35364 0.77274 0.73592 -0.46400
O 	O 	0.08025 0.78331 0.78379 -0.46600
O 	O 	0.15533 0.84057 0.67866 -0.47900
O 	O 	0.30038 0.21384 0.82225 -0.48300
O 	O 	0.36142 0.17008 0.72461 -0.46600
O 	O 	0.61267 0.91083 0.72442 -0.46100
O 	O 	0.64577 0.83751 0.82779 -0.48800
O 	O 	0.23879 0.38769 0.76237 -0.46900
O 	O 	0.31701 0.34375 0.66359 -0.47900
O 	O 	0.16090 0.21094 0.81510 -0.48500
O 	O 	0.22120 0.17786 0.71148 -0.45800
O 	O 	0.30947 0.70829 0.67070 -0.49000
O 	O 	0.22726 0.64636 0.76408 -0.46400
O 	O 	0.21669 0.91975 0.71621 -0.46600
O 	O 	0.15943 0.84467 0.82134 -0.47900
