data_crystal

_cell_length_a 18.07000
_cell_length_b 18.07000
_cell_length_c 19.34000
_cell_angle_alpha 90.00000
_cell_angle_beta  90.00000
_cell_angle_gamma 120.00000

_symmetry_space_group_name_	'P 1'
_symmetry_space_group_name_H-M	'P 1'

loop_
_symmetry_equiv_pos_as_xyz
  x,y,z

loop_
_atom_site_label
_atom_site_type_symbol
_atom_site_fract_x
_atom_site_fract_y
_atom_site_fract_z
_atom_site_charge
Cu	Cu	0.52678 0.05356 0.05348 0.90100
Cu	Cu	0.52678 0.47322 0.05348 0.90500
Cu	Cu	0.94644 0.47322 0.05348 0.90100
Cu	Cu	0.47322 0.94644 0.55348 0.90500
Cu	Cu	0.47322 0.52678 0.55348 0.90600
Cu	Cu	0.05356 0.52678 0.55348 0.90500
Cu	Cu	0.47322 0.94644 0.94652 0.90100
Cu	Cu	0.05356 0.52678 0.94652 0.90100
Cu	Cu	0.47322 0.52678 0.94652 0.90500
Cu	Cu	0.52678 0.05356 0.44652 0.90500
Cu	Cu	0.94644 0.47322 0.44652 0.90500
Cu	Cu	0.52678 0.47322 0.44652 0.90600
H 	H 	0.71260 0.06410 0.82750 0.09800
H 	H 	0.35150 0.28740 0.82750 0.09700
H 	H 	0.93590 0.64850 0.82750 0.09700
H 	H 	0.28740 0.93590 0.32750 0.09700
H 	H 	0.64850 0.71260 0.32750 0.09700
H 	H 	0.06410 0.35150 0.32750 0.09700
H 	H 	0.64850 0.93590 0.17250 0.09700
H 	H 	0.06410 0.71260 0.17250 0.09800
H 	H 	0.28740 0.35150 0.17250 0.09700
H 	H 	0.35150 0.06410 0.67250 0.09700
H 	H 	0.93590 0.28740 0.67250 0.09700
H 	H 	0.71260 0.64850 0.67250 0.09700
H 	H 	0.28740 0.93590 0.17250 0.09800
H 	H 	0.64850 0.71260 0.17250 0.09700
H 	H 	0.06410 0.35150 0.17250 0.09700
H 	H 	0.71260 0.06410 0.67250 0.09700
H 	H 	0.35150 0.28740 0.67250 0.09700
H 	H 	0.93590 0.64850 0.67250 0.09700
H 	H 	0.35150 0.06410 0.82750 0.09700
H 	H 	0.93590 0.28740 0.82750 0.09800
H 	H 	0.71260 0.64850 0.82750 0.09700
H 	H 	0.64850 0.93590 0.32750 0.09700
H 	H 	0.06410 0.71260 0.32750 0.09700
H 	H 	0.28740 0.35150 0.32750 0.09700
H 	H 	0.76160 0.23840 0.97040 0.08100
H 	H 	0.47680 0.23840 0.97040 0.08000
H 	H 	0.76160 0.52320 0.97040 0.08000
H 	H 	0.23840 0.76160 0.47040 0.08000
H 	H 	0.52320 0.76160 0.47040 0.08000
H 	H 	0.23840 0.47680 0.47040 0.08000
H 	H 	0.52320 0.76160 0.02960 0.08000
H 	H 	0.23840 0.76160 0.02960 0.08100
H 	H 	0.23840 0.47680 0.02960 0.08000
H 	H 	0.47680 0.23840 0.52960 0.08000
H 	H 	0.76160 0.23840 0.52960 0.08000
H 	H 	0.76160 0.52320 0.52960 0.08000
H 	H 	0.91810 0.16950 0.75000 0.14100
H 	H 	0.25140 0.08190 0.75000 0.13900
H 	H 	0.83050 0.74860 0.75000 0.13900
H 	H 	0.08190 0.83050 0.25000 0.14100
H 	H 	0.74860 0.91810 0.25000 0.13900
H 	H 	0.16950 0.25140 0.25000 0.13900
H 	H 	0.74860 0.83050 0.25000 0.13900
H 	H 	0.16950 0.91810 0.25000 0.14100
H 	H 	0.08190 0.25140 0.25000 0.13900
H 	H 	0.25140 0.16950 0.75000 0.13900
H 	H 	0.83050 0.08190 0.75000 0.14100
H 	H 	0.91810 0.74860 0.75000 0.13900
C 	C 	0.72590 0.14300 0.90400 0.00700
C 	C 	0.75020 0.11680 0.84560 -0.14800
C 	C 	0.63980 0.08390 0.93670 0.29700
C 	C 	0.41710 0.27410 0.90400 0.00500
C 	C 	0.36660 0.24980 0.84560 -0.14700
C 	C 	0.44410 0.36020 0.93670 0.29800
C 	C 	0.85700 0.58290 0.90400 0.00500
C 	C 	0.88320 0.63340 0.84560 -0.14700
C 	C 	0.91610 0.55590 0.93670 0.29700
C 	C 	0.27410 0.85700 0.40400 0.00500
C 	C 	0.24980 0.88320 0.34560 -0.14800
C 	C 	0.36020 0.91610 0.43670 0.29800
C 	C 	0.58290 0.72590 0.40400 0.00500
C 	C 	0.63340 0.75020 0.34560 -0.14700
C 	C 	0.55590 0.63980 0.43670 0.29800
C 	C 	0.14300 0.41710 0.40400 0.00500
C 	C 	0.11680 0.36660 0.34560 -0.14700
C 	C 	0.08390 0.44410 0.43670 0.29800
C 	C 	0.58290 0.85700 0.09600 0.00500
C 	C 	0.63340 0.88320 0.15440 -0.14700
C 	C 	0.55590 0.91610 0.06330 0.29700
C 	C 	0.14300 0.72590 0.09600 0.00700
C 	C 	0.11680 0.75020 0.15440 -0.14800
C 	C 	0.08390 0.63980 0.06330 0.29700
C 	C 	0.27410 0.41710 0.09600 0.00500
C 	C 	0.24980 0.36660 0.15440 -0.14700
C 	C 	0.36020 0.44410 0.06330 0.29800
C 	C 	0.41710 0.14300 0.59600 0.00500
C 	C 	0.36660 0.11680 0.65440 -0.14700
C 	C 	0.44410 0.08390 0.56330 0.29800
C 	C 	0.85700 0.27410 0.59600 0.00500
C 	C 	0.88320 0.24980 0.65440 -0.14800
C 	C 	0.91610 0.36020 0.56330 0.29800
C 	C 	0.72590 0.58290 0.59600 0.00500
C 	C 	0.75020 0.63340 0.65440 -0.14700
C 	C 	0.63980 0.55590 0.56330 0.29800
C 	C 	0.27410 0.85700 0.09600 0.00700
C 	C 	0.24980 0.88320 0.15440 -0.14800
C 	C 	0.36020 0.91610 0.06330 0.29700
C 	C 	0.58290 0.72590 0.09600 0.00500
C 	C 	0.63340 0.75020 0.15440 -0.14700
C 	C 	0.55590 0.63980 0.06330 0.29800
C 	C 	0.14300 0.41710 0.09600 0.00500
C 	C 	0.11680 0.36660 0.15440 -0.14700
C 	C 	0.08390 0.44410 0.06330 0.29700
C 	C 	0.72590 0.14300 0.59600 0.00500
C 	C 	0.75020 0.11680 0.65440 -0.14800
C 	C 	0.63980 0.08390 0.56330 0.29800
C 	C 	0.41710 0.27410 0.59600 0.00500
C 	C 	0.36660 0.24980 0.65440 -0.14700
C 	C 	0.44410 0.36020 0.56330 0.29800
C 	C 	0.85700 0.58290 0.59600 0.00500
C 	C 	0.88320 0.63340 0.65440 -0.14700
C 	C 	0.91610 0.55590 0.56330 0.29800
C 	C 	0.41710 0.14300 0.90400 0.00500
C 	C 	0.36660 0.11680 0.84560 -0.14700
C 	C 	0.44410 0.08390 0.93670 0.29700
C 	C 	0.85700 0.27410 0.90400 0.00700
C 	C 	0.88320 0.24980 0.84560 -0.14800
C 	C 	0.91610 0.36020 0.93670 0.29700
C 	C 	0.72590 0.58290 0.90400 0.00500
C 	C 	0.75020 0.63340 0.84560 -0.14700
C 	C 	0.63980 0.55590 0.93670 0.29800
C 	C 	0.58290 0.85700 0.40400 0.00500
C 	C 	0.63340 0.88320 0.34560 -0.14700
C 	C 	0.55590 0.91610 0.43670 0.29800
C 	C 	0.14300 0.72590 0.40400 0.00500
C 	C 	0.11680 0.75020 0.34560 -0.14800
C 	C 	0.08390 0.63980 0.43670 0.29800
C 	C 	0.27410 0.41710 0.40400 0.00500
C 	C 	0.24980 0.36660 0.34560 -0.14700
C 	C 	0.36020 0.44410 0.43670 0.29800
C 	C 	0.82960 0.17040 0.81400 0.16800
C 	C 	0.77910 0.22090 0.93150 -0.05900
C 	C 	0.34080 0.17040 0.81400 0.16600
C 	C 	0.44180 0.22090 0.93150 -0.05800
C 	C 	0.82960 0.65920 0.81400 0.16600
C 	C 	0.77910 0.55820 0.93150 -0.05800
C 	C 	0.17040 0.82960 0.31400 0.16700
C 	C 	0.22090 0.77910 0.43150 -0.05800
C 	C 	0.65920 0.82960 0.31400 0.16600
C 	C 	0.55820 0.77910 0.43150 -0.05700
C 	C 	0.17040 0.34080 0.31400 0.16600
C 	C 	0.22090 0.44180 0.43150 -0.05700
C 	C 	0.65920 0.82960 0.18600 0.16600
C 	C 	0.55820 0.77910 0.06850 -0.05800
C 	C 	0.17040 0.82960 0.18600 0.16800
C 	C 	0.22090 0.77910 0.06850 -0.05900
C 	C 	0.17040 0.34080 0.18600 0.16600
C 	C 	0.22090 0.44180 0.06850 -0.05800
C 	C 	0.34080 0.17040 0.68600 0.16600
C 	C 	0.44180 0.22090 0.56850 -0.05700
C 	C 	0.82960 0.17040 0.68600 0.16700
C 	C 	0.77910 0.22090 0.56850 -0.05800
C 	C 	0.82960 0.65920 0.68600 0.16600
C 	C 	0.77910 0.55820 0.56850 -0.05700
C 	C 	0.85695 0.14305 0.75000 -0.36800
C 	C 	0.28610 0.14305 0.75000 -0.36500
C 	C 	0.85695 0.71390 0.75000 -0.36500
C 	C 	0.14305 0.85695 0.25000 -0.36800
C 	C 	0.71390 0.85695 0.25000 -0.36500
C 	C 	0.14305 0.28610 0.25000 -0.36500
O 	O 	0.63080 0.10900 0.99730 -0.38600
O 	O 	0.58400 0.01720 0.90550 -0.38800
O 	O 	0.47820 0.36920 0.99730 -0.38800
O 	O 	0.43320 0.41600 0.90550 -0.39100
O 	O 	0.89100 0.52180 0.99730 -0.38700
O 	O 	0.98280 0.56680 0.90550 -0.38900
O 	O 	0.36920 0.89100 0.49730 -0.38900
O 	O 	0.41600 0.98280 0.40550 -0.39000
O 	O 	0.52180 0.63080 0.49730 -0.38800
O 	O 	0.56680 0.58400 0.40550 -0.39000
O 	O 	0.10900 0.47820 0.49730 -0.38900
O 	O 	0.01720 0.43320 0.40550 -0.39000
O 	O 	0.52180 0.89100 0.00270 -0.38700
O 	O 	0.56680 0.98280 0.09450 -0.38900
O 	O 	0.10900 0.63080 0.00270 -0.38600
O 	O 	0.01720 0.58400 0.09450 -0.38800
O 	O 	0.36920 0.47820 0.00270 -0.38800
O 	O 	0.41600 0.43320 0.09450 -0.39100
O 	O 	0.47820 0.10900 0.50270 -0.38900
O 	O 	0.43320 0.01720 0.59450 -0.39000
O 	O 	0.89100 0.36920 0.50270 -0.38900
O 	O 	0.98280 0.41600 0.59450 -0.39000
O 	O 	0.63080 0.52180 0.50270 -0.38800
O 	O 	0.58400 0.56680 0.59450 -0.39000
O 	O 	0.36920 0.89100 0.00270 -0.38600
O 	O 	0.41600 0.98280 0.09450 -0.38800
O 	O 	0.52180 0.63080 0.00270 -0.38800
O 	O 	0.56680 0.58400 0.09450 -0.39100
O 	O 	0.10900 0.47820 0.00270 -0.38700
O 	O 	0.01720 0.43320 0.09450 -0.38900
O 	O 	0.63080 0.10900 0.50270 -0.38900
O 	O 	0.58400 0.01720 0.59450 -0.39000
O 	O 	0.47820 0.36920 0.50270 -0.38800
O 	O 	0.43320 0.41600 0.59450 -0.39000
O 	O 	0.89100 0.52180 0.50270 -0.38900
O 	O 	0.98280 0.56680 0.59450 -0.39000
O 	O 	0.47820 0.10900 0.99730 -0.38700
O 	O 	0.43320 0.01720 0.90550 -0.38900
O 	O 	0.89100 0.36920 0.99730 -0.38600
O 	O 	0.98280 0.41600 0.90550 -0.38800
O 	O 	0.63080 0.52180 0.99730 -0.38800
O 	O 	0.58400 0.56680 0.90550 -0.39100
O 	O 	0.52180 0.89100 0.49730 -0.38900
O 	O 	0.56680 0.98280 0.40550 -0.39000
O 	O 	0.10900 0.63080 0.49730 -0.38900
O 	O 	0.01720 0.58400 0.40550 -0.39000
O 	O 	0.36920 0.47820 0.49730 -0.38800
O 	O 	0.41600 0.43320 0.40550 -0.39000
