data_crystal

_cell_length_a 6.43550
_cell_length_b 13.46200
_cell_length_c 13.75300
_cell_angle_alpha 61.53200
_cell_angle_beta  82.43300
_cell_angle_gamma 81.24400

_symmetry_space_group_name_	'P 1'
_symmetry_space_group_name_H-M	'P 1'

loop_
_symmetry_equiv_pos_as_xyz
  x,y,z

loop_
_atom_site_label
_atom_site_type_symbol
_atom_site_fract_x
_atom_site_fract_y
_atom_site_fract_z
_atom_site_charge
Gd	Gd	0.57850 0.45097 0.82929 1.65800
O 	O 	0.63640 0.60560 0.84690 -0.43500
O 	O 	0.44710 0.63600 0.97889 -0.44500
O 	O 	0.79270 0.54047 0.10536 -0.42000
O 	O 	0.07280 0.60170 0.12754 -0.44300
O 	O 	0.58760 0.38050 0.32120 -0.44400
O 	O 	0.92730 0.35130 0.27550 -0.55100
H 	H 	0.89120 0.38580 0.21320 0.33000
O 	O 	0.39070 0.37840 0.73430 -0.37000
O 	O 	0.58240 0.25310 0.86950 -0.38700
C 	C 	0.60120 0.65080 0.90950 0.42600
C 	C 	0.91990 0.61570 0.07350 0.40900
C 	C 	0.88620 0.72350 0.96850 -0.08000
C 	C 	0.74800 0.73690 0.89140 -0.07400
C 	C 	0.74120 0.83590 0.79100 -0.00900
H 	H 	0.65420 0.84320 0.73860 0.04400
C 	C 	0.85940 0.92490 0.76560 -0.03000
C 	C 	0.98890 0.91530 0.84600 -0.01000
C 	C 	0.00210 0.81280 0.94430 -0.01800
H 	H 	0.09250 0.80390 0.99600 0.05100
C 	C 	0.84050 0.02720 0.65210 0.10100
C 	C 	0.01340 0.06900 0.58250 -0.16100
H 	H 	0.14730 0.03350 0.60400 0.09100
C 	C 	0.99030 0.16460 0.47940 0.09500
H 	H 	0.10810 0.19240 0.43190 0.02000
C 	C 	0.78950 0.21840 0.44810 -0.18400
C 	C 	0.61410 0.17440 0.51850 0.10000
H 	H 	0.47980 0.20930 0.49740 0.00600
C 	C 	0.63890 0.07920 0.61950 -0.16900
H 	H 	0.52110 0.04940 0.66610 0.09200
C 	C 	0.75980 0.32360 0.34140 0.47900
C 	C 	0.10740 0.00990 0.83310 0.06700
C 	C 	0.01970 0.12210 0.78270 -0.12500
H 	H 	0.88620 0.13960 0.75620 0.08300
C 	C 	0.13000 0.20820 0.77150 0.04800
H 	H 	0.07160 0.28340 0.73580 0.02200
C 	C 	0.32660 0.18330 0.81320 -0.10500
C 	C 	0.41300 0.06990 0.86670 0.03500
H 	H 	0.54370 0.05200 0.89610 0.03200
C 	C 	0.30400 0.98400 0.87580 -0.12100
H 	H 	0.36280 0.90890 0.91070 0.08600
C 	C 	0.44240 0.27590 0.80440 0.30700
Gd	Gd	0.42150 0.54903 0.17071 1.65700
O 	O 	0.36360 0.39440 0.15310 -0.43600
O 	O 	0.55290 0.36400 0.02111 -0.44500
O 	O 	0.20730 0.45953 0.89464 -0.42000
O 	O 	0.92720 0.39830 0.87246 -0.44300
O 	O 	0.41240 0.61950 0.67880 -0.44400
O 	O 	0.07270 0.64870 0.72450 -0.55100
H 	H 	0.10880 0.61420 0.78680 0.33000
O 	O 	0.60930 0.62160 0.26570 -0.37000
O 	O 	0.41760 0.74690 0.13050 -0.38700
C 	C 	0.39880 0.34920 0.09050 0.42600
C 	C 	0.08010 0.38430 0.92650 0.40900
C 	C 	0.11380 0.27650 0.03150 -0.08000
C 	C 	0.25200 0.26310 0.10860 -0.07400
C 	C 	0.25880 0.16410 0.20900 -0.00900
H 	H 	0.34580 0.15680 0.26140 0.04400
C 	C 	0.14060 0.07510 0.23440 -0.03000
C 	C 	0.01110 0.08470 0.15400 -0.01000
C 	C 	0.99790 0.18720 0.05570 -0.01800
H 	H 	0.90750 0.19610 0.00400 0.05100
C 	C 	0.15950 0.97280 0.34790 0.10100
C 	C 	0.98660 0.93100 0.41750 -0.16100
H 	H 	0.85270 0.96650 0.39600 0.09100
C 	C 	0.00970 0.83540 0.52060 0.09500
H 	H 	0.89190 0.80760 0.56810 0.02000
C 	C 	0.21050 0.78160 0.55190 -0.18400
C 	C 	0.38590 0.82560 0.48150 0.10000
H 	H 	0.52020 0.79070 0.50260 0.00600
C 	C 	0.36110 0.92080 0.38050 -0.16900
H 	H 	0.47890 0.95060 0.33390 0.09200
C 	C 	0.24020 0.67640 0.65860 0.47900
C 	C 	0.89260 0.99010 0.16690 0.06700
C 	C 	0.98030 0.87790 0.21730 -0.12500
H 	H 	0.11380 0.86040 0.24380 0.08300
C 	C 	0.87000 0.79180 0.22850 0.04800
H 	H 	0.92840 0.71660 0.26420 0.02200
C 	C 	0.67340 0.81670 0.18680 -0.10500
C 	C 	0.58700 0.93010 0.13330 0.03500
H 	H 	0.45630 0.94800 0.10390 0.03200
C 	C 	0.69600 0.01600 0.12420 -0.12100
H 	H 	0.63720 0.09110 0.08930 0.08600
C 	C 	0.55760 0.72410 0.19560 0.30700
