data_crystal

_cell_length_a 13.42400
_cell_length_b 13.42400
_cell_length_c 14.75200
_cell_angle_alpha 90.00000
_cell_angle_beta  90.00000
_cell_angle_gamma 120.00000

_symmetry_space_group_name_	'P 1'
_symmetry_space_group_name_H-M	'P 1'

loop_
_symmetry_equiv_pos_as_xyz
  x,y,z

loop_
_atom_site_label
_atom_site_type_symbol
_atom_site_fract_x
_atom_site_fract_y
_atom_site_fract_z
_atom_site_charge
O 	O 	0.19850 0.44240 0.12780 -0.37600
O 	O 	0.36140 0.54900 0.05930 -0.50300
O 	O 	0.43630 0.61440 0.77400 -0.43000
O 	O 	0.52880 0.59930 0.89550 -0.30200
N 	N 	0.34800 0.38760 0.94300 -0.08600
C 	C 	0.27060 0.44950 0.06990 0.30900
C 	C 	0.25680 0.35400 0.00800 -0.12500
C 	C 	0.33900 0.44800 0.86000 -0.04100
C 	C 	0.43620 0.55910 0.84200 0.33900
O 	O 	0.55760 0.75610 0.12780 -0.33700
O 	O 	0.45100 0.81240 0.05930 -0.48300
O 	O 	0.38560 0.82190 0.77400 -0.41600
O 	O 	0.40070 0.92950 0.89550 -0.26100
N 	N 	0.61240 0.96040 0.94300 -0.06300
C 	C 	0.55050 0.82110 0.06990 0.30300
C 	C 	0.64600 0.90280 0.00800 -0.05000
C 	C 	0.55200 0.89100 0.86000 -0.00100
C 	C 	0.44090 0.87710 0.84200 0.33300
O 	O 	0.24390 0.80150 0.12780 -0.33600
O 	O 	0.18760 0.63860 0.05930 -0.50700
O 	O 	0.17810 0.56370 0.77400 -0.44300
O 	O 	0.07050 0.47120 0.89550 -0.33500
N 	N 	0.03960 0.65200 0.94300 -0.10200
C 	C 	0.17890 0.72940 0.06990 0.29900
C 	C 	0.09720 0.74320 0.00800 -0.10300
C 	C 	0.10900 0.66100 0.86000 -0.04300
C 	C 	0.12290 0.56380 0.84200 0.33600
O 	O 	0.44240 0.19850 0.37220 -0.36400
O 	O 	0.54900 0.36140 0.44070 -0.47400
O 	O 	0.61440 0.43630 0.72600 -0.43400
O 	O 	0.59930 0.52880 0.60450 -0.33900
N 	N 	0.38760 0.34800 0.55700 -0.15100
C 	C 	0.44950 0.27060 0.43010 0.29300
C 	C 	0.35400 0.25680 0.49200 -0.02300
C 	C 	0.44800 0.33900 0.64000 -0.06500
C 	C 	0.55910 0.43620 0.65800 0.33700
O 	O 	0.75610 0.55760 0.37220 -0.32600
O 	O 	0.81240 0.45100 0.44070 -0.45500
O 	O 	0.82190 0.38560 0.72600 -0.42300
O 	O 	0.92950 0.40070 0.60450 -0.30100
N 	N 	0.96040 0.61240 0.55700 -0.12700
C 	C 	0.82110 0.55050 0.43010 0.28700
C 	C 	0.90280 0.64600 0.49200 0.05000
C 	C 	0.89100 0.55200 0.64000 -0.02400
C 	C 	0.87710 0.44090 0.65800 0.33200
O 	O 	0.80150 0.24390 0.37220 -0.32600
O 	O 	0.63860 0.18760 0.44070 -0.47900
O 	O 	0.56370 0.17810 0.72600 -0.44900
O 	O 	0.47120 0.07050 0.60450 -0.37600
N 	N 	0.65200 0.03960 0.55700 -0.16800
C 	C 	0.72940 0.17890 0.43010 0.28300
C 	C 	0.74320 0.09720 0.49200 -0.00300
C 	C 	0.66100 0.10900 0.64000 -0.06800
C 	C 	0.56380 0.12290 0.65800 0.33400
O 	O 	0.80150 0.55760 0.87220 -0.29700
O 	O 	0.63860 0.45100 0.94070 -0.43200
O 	O 	0.56370 0.38560 0.22600 -0.44300
O 	O 	0.47120 0.40070 0.10450 -0.37000
N 	N 	0.65200 0.61240 0.05700 -0.20600
C 	C 	0.72940 0.55050 0.93010 0.26800
C 	C 	0.74320 0.64600 0.99200 0.14300
C 	C 	0.66100 0.55200 0.14000 -0.06200
C 	C 	0.56380 0.44090 0.15800 0.33100
O 	O 	0.44240 0.24390 0.87220 -0.33500
O 	O 	0.54900 0.18760 0.94070 -0.44400
O 	O 	0.61440 0.17810 0.22600 -0.45500
O 	O 	0.59930 0.07050 0.10450 -0.39600
N 	N 	0.38760 0.03960 0.05700 -0.22300
C 	C 	0.44950 0.17890 0.93010 0.27400
C 	C 	0.35400 0.09720 0.99200 0.07600
C 	C 	0.44800 0.10900 0.14000 -0.10200
C 	C 	0.55910 0.12290 0.15800 0.33600
O 	O 	0.75610 0.19850 0.87220 -0.33600
O 	O 	0.81240 0.36140 0.94070 -0.42100
O 	O 	0.82190 0.43630 0.22600 -0.42800
O 	O 	0.92950 0.52880 0.10450 -0.32000
N 	N 	0.96040 0.34800 0.05700 -0.18000
C 	C 	0.82110 0.27060 0.93010 0.27900
C 	C 	0.90280 0.25680 0.99200 0.12100
C 	C 	0.89100 0.33900 0.14000 -0.05700
C 	C 	0.87710 0.43620 0.15800 0.33400
O 	O 	0.55760 0.80150 0.62780 -0.30900
O 	O 	0.45100 0.63860 0.55930 -0.46900
O 	O 	0.38560 0.56370 0.27400 -0.43700
O 	O 	0.40070 0.47120 0.39550 -0.34800
N 	N 	0.61240 0.65200 0.44300 -0.15200
C 	C 	0.55050 0.72940 0.56990 0.28300
C 	C 	0.64600 0.74320 0.50800 0.03900
C 	C 	0.55200 0.66100 0.36000 -0.04300
C 	C 	0.44090 0.56380 0.34200 0.33300
O 	O 	0.24390 0.44240 0.62780 -0.34800
O 	O 	0.18760 0.54900 0.55930 -0.48100
O 	O 	0.17810 0.61440 0.27400 -0.44900
O 	O 	0.07050 0.59930 0.39550 -0.37300
N 	N 	0.03960 0.38760 0.44300 -0.16800
C 	C 	0.17890 0.44950 0.56990 0.28900
C 	C 	0.09720 0.35400 0.50800 -0.03100
C 	C 	0.10900 0.44800 0.36000 -0.08200
C 	C 	0.12290 0.55910 0.34200 0.33800
O 	O 	0.19850 0.75610 0.62780 -0.34700
O 	O 	0.36140 0.81240 0.55930 -0.45700
O 	O 	0.43630 0.82190 0.27400 -0.42100
O 	O 	0.52880 0.92950 0.39550 -0.29700
N 	N 	0.34800 0.96040 0.44300 -0.12700
C 	C 	0.27060 0.82110 0.56990 0.29300
C 	C 	0.25680 0.90280 0.50800 0.02100
C 	C 	0.33900 0.89100 0.36000 -0.03800
C 	C 	0.43620 0.87710 0.34200 0.33500
Pr	Pr	0.33333 0.66667 0.16880 2.10200
Pr	Pr	0.66667 0.33333 0.33120 2.10100
Pr	Pr	0.66667 0.33333 0.83120 2.10200
Pr	Pr	0.33333 0.66667 0.66880 2.10200
Cu	Cu	0.50000 0.50000 -0.00000 0.88000
Cu	Cu	0.50000 0.00000 -0.00000 0.84300
Cu	Cu	-0.00000 0.50000 -0.00000 0.84300
Cu	Cu	0.50000 0.50000 0.50000 0.92500
Cu	Cu	0.00000 0.50000 0.50000 0.88900
Cu	Cu	0.50000 0.00000 0.50000 0.88700
