data_crystal

_cell_length_a 10.48390
_cell_length_b 11.84000
_cell_length_c 14.03400
_cell_angle_alpha 105.64500
_cell_angle_beta  101.22200
_cell_angle_gamma 112.35800

_symmetry_space_group_name_	'P 1'
_symmetry_space_group_name_H-M	'P 1'

loop_
_symmetry_equiv_pos_as_xyz
  x,y,z

loop_
_atom_site_label
_atom_site_type_symbol
_atom_site_fract_x
_atom_site_fract_y
_atom_site_fract_z
_atom_site_charge
Fe	Fe	0.81388 0.00651 0.78586 1.17700
Fe	Fe	0.44780 0.72517 0.69138 1.18300
N 	N 	0.04902 0.06856 0.84100 -0.22300
C 	C 	0.11110 0.10811 0.94487 0.08500
H 	H 	0.05130 0.10430 0.98620 0.01500
C 	C 	0.25960 0.15451 0.99427 -0.14200
C 	C 	0.34930 0.15900 0.93286 0.07900
H 	H 	0.44980 0.19230 0.96330 0.03200
C 	C 	0.13570 0.06920 0.78213 0.08800
H 	H 	0.09390 0.03960 0.70970 0.00200
C 	C 	0.28430 0.11190 0.82397 -0.14100
H 	H 	0.34030 0.10930 0.78030 0.10300
O 	O 	0.44759 0.25845 0.16001 -0.42200
O 	O 	0.21583 0.14511 0.15080 -0.41400
N 	N 	0.27412 0.74846 0.75216 -0.21200
C 	C 	0.31200 0.18928 0.11118 0.38000
C 	C 	0.30550 0.79991 0.85627 0.07300
H 	H 	0.40040 0.82920 0.89910 0.03100
C 	C 	0.20440 0.81208 0.90405 -0.11000
C 	C 	0.06390 0.77301 0.84083 0.04700
H 	H 	0.99370 0.78020 0.87010 0.03800
N 	N 	0.83664 0.16589 0.72951 -0.22300
C 	C 	0.76000 0.13734 0.63036 0.08300
H 	H 	0.70470 0.04910 0.58560 0.02300
C 	C 	0.92360 0.39480 0.75988 -0.13900
H 	H 	0.98140 0.48220 0.80570 0.08600
C 	C 	0.91730 0.29360 0.79299 0.08000
H 	H 	0.97090 0.31480 0.86190 0.00000
C 	C 	0.75950 0.23289 0.59158 -0.12000
C 	C 	0.84350 0.36490 0.65822 0.06400
H 	H 	0.84560 0.43170 0.63470 0.02300
O 	O 	0.57459 0.94110 0.74247 -0.35200
O 	O 	0.39677 0.30250 0.38165 -0.41500
O 	O 	0.15885 0.87205 0.06435 -0.40300
O 	O 	0.21066 0.11131 0.36027 -0.43300
O 	O 	0.66502 0.28485 0.45179 -0.40100
O 	O 	0.60069 0.07212 0.42347 -0.25600
N 	N 	0.32698 0.51021 0.63441 -0.22400
O 	O 	0.38789 0.91699 0.07018 -0.26300
C 	C 	0.33470 0.43986 0.54515 0.09100
H 	H 	0.38580 0.48530 0.50910 0.01700
C 	C 	0.25490 0.87117 0.02246 0.33800
C 	C 	0.29500 0.23382 0.40689 0.38900
C 	C 	0.13730 0.71060 0.69151 0.07600
H 	H 	0.11320 0.67480 0.61900 0.00500
C 	C 	0.03070 0.72270 0.73231 -0.12900
H 	H 	0.93810 0.69750 0.68780 0.08500
C 	C 	0.66740 0.19203 0.47942 0.34500
C 	C 	0.27080 0.30341 0.50364 -0.14500
C 	C 	0.25150 0.44380 0.68472 0.08900
H 	H 	0.24540 0.49110 0.74690 -0.00300
C 	C 	0.19040 0.23550 0.55567 0.07900
H 	H 	0.14330 0.14370 0.52910 0.02000
C 	C 	0.18190 0.30710 0.64770 -0.14400
H 	H 	0.12980 0.26400 0.68450 0.08500
Fe	Fe	0.18612 0.99349 0.21414 1.17800
Fe	Fe	0.55220 0.27483 0.30861 1.18400
N 	N 	0.95098 0.93144 0.15900 -0.22200
C 	C 	0.88890 0.89189 0.05513 0.08600
H 	H 	0.94870 0.89570 0.01380 0.01600
C 	C 	0.74040 0.84549 0.00573 -0.14100
C 	C 	0.65070 0.84100 0.06714 0.07900
H 	H 	0.55020 0.80770 0.03670 0.03200
C 	C 	0.86430 0.93080 0.21787 0.08800
H 	H 	0.90610 0.96040 0.29030 0.00200
C 	C 	0.71570 0.88810 0.17603 -0.14100
H 	H 	0.65970 0.89070 0.21970 0.10300
O 	O 	0.55241 0.74155 0.83999 -0.42200
O 	O 	0.78417 0.85489 0.84920 -0.41400
N 	N 	0.72588 0.25154 0.24784 -0.21200
C 	C 	0.68800 0.81072 0.88882 0.38000
C 	C 	0.69450 0.20009 0.14373 0.07300
H 	H 	0.59960 0.17080 0.10090 0.03100
C 	C 	0.79560 0.18792 0.09595 -0.11000
C 	C 	0.93610 0.22699 0.15917 0.04700
H 	H 	0.00630 0.21980 0.12990 0.03800
N 	N 	0.16336 0.83411 0.27049 -0.22300
C 	C 	0.24000 0.86266 0.36964 0.08300
H 	H 	0.29530 0.95090 0.41440 0.02300
C 	C 	0.07640 0.60520 0.24012 -0.13900
H 	H 	0.01860 0.51780 0.19430 0.08600
C 	C 	0.08270 0.70640 0.20701 0.08000
H 	H 	0.02910 0.68520 0.13810 0.00000
C 	C 	0.24050 0.76711 0.40842 -0.12000
C 	C 	0.15650 0.63510 0.34178 0.06400
H 	H 	0.15440 0.56830 0.36530 0.02300
O 	O 	0.42541 0.05890 0.25753 -0.35200
O 	O 	0.60323 0.69750 0.61835 -0.41500
O 	O 	0.84115 0.12795 0.93565 -0.40300
O 	O 	0.78934 0.88869 0.63973 -0.43300
O 	O 	0.33498 0.71515 0.54821 -0.40100
O 	O 	0.39931 0.92788 0.57653 -0.25600
N 	N 	0.67302 0.48979 0.36559 -0.22400
O 	O 	0.61211 0.08301 0.92982 -0.26300
C 	C 	0.66530 0.56014 0.45485 0.09100
H 	H 	0.61420 0.51470 0.49090 0.01700
C 	C 	0.74510 0.12883 0.97754 0.33800
C 	C 	0.70500 0.76618 0.59311 0.38900
C 	C 	0.86270 0.28940 0.30849 0.07600
H 	H 	0.88680 0.32520 0.38100 0.00500
C 	C 	0.96930 0.27730 0.26769 -0.12900
H 	H 	0.06190 0.30250 0.31220 0.08500
C 	C 	0.33260 0.80797 0.52058 0.34500
C 	C 	0.72920 0.69659 0.49636 -0.14500
C 	C 	0.74850 0.55620 0.31528 0.08900
H 	H 	0.75460 0.50890 0.25310 -0.00300
C 	C 	0.80960 0.76450 0.44433 0.07900
H 	H 	0.85670 0.85630 0.47090 0.02000
C 	C 	0.81810 0.69290 0.35230 -0.14400
H 	H 	0.87020 0.73600 0.31550 0.08500
