data_crystal

_cell_length_a 8.40300
_cell_length_b 10.98500
_cell_length_c 24.23500
_cell_angle_alpha 90.00000
_cell_angle_beta  90.00000
_cell_angle_gamma 90.00000

_symmetry_space_group_name_	'P 1'
_symmetry_space_group_name_H-M	'P 1'

loop_
_symmetry_equiv_pos_as_xyz
  x,y,z

loop_
_atom_site_label
_atom_site_type_symbol
_atom_site_fract_x
_atom_site_fract_y
_atom_site_fract_z
_atom_site_charge
Ni	Ni	0.60223 0.11499 0.48555 1.08900
O 	O 	0.64270 0.94970 0.44746 -0.38500
O 	O 	0.86000 0.83930 0.46401 -0.24100
O 	O 	0.84190 0.15616 0.49065 -0.41000
O 	O 	0.08200 0.22645 0.46911 -0.40000
O 	O 	0.16550 0.26570 0.27101 -0.14800
O 	O 	0.15450 0.10030 0.22315 -0.14900
N 	N 	0.12460 0.15870 0.26470 -0.01700
N 	N 	0.58330 0.20050 0.40856 -0.26600
N 	N 	0.86770 0.97880 0.05987 -0.26100
C 	C 	0.87670 0.98920 0.39519 -0.08600
C 	C 	0.95910 0.09770 0.40429 -0.03700
C 	C 	0.04050 0.15180 0.36098 -0.09700
H 	H 	0.09580 0.22400 0.36670 0.08600
C 	C 	0.03950 0.09930 0.31013 0.11000
C 	C 	0.95770 0.99120 0.29966 -0.14400
H 	H 	0.95820 0.95620 0.26470 0.10000
C 	C 	0.87620 0.93790 0.34269 0.03500
H 	H 	0.81980 0.86640 0.33650 0.03200
C 	C 	0.78720 0.92130 0.44011 0.31600
C 	C 	0.95900 0.16290 0.45898 0.33400
C 	C 	0.51570 0.14080 0.36683 0.16400
H 	H 	0.47060 0.06500 0.37380 -0.03300
C 	C 	0.50950 0.18590 0.31406 -0.28900
H 	H 	0.45990 0.14080 0.28650 0.14300
C 	C 	0.57590 0.29680 0.30150 0.27900
C 	C 	0.64840 0.35820 0.34440 -0.29800
H 	H 	0.69740 0.43290 0.33820 0.14600
C 	C 	0.64770 0.30770 0.39693 0.17600
H 	H 	0.69490 0.35130 0.42550 -0.03600
C 	C 	0.56800 0.35260 0.24415 -0.42900
H 	H 	0.64560 0.41780 0.24200 0.16400
H 	H 	0.46360 0.38850 0.23920 0.16300
C 	C 	0.59860 0.26410 0.19649 0.21900
H 	H 	0.51700 0.20170 0.19660 -0.02900
H 	H 	0.59100 0.30790 0.16180 -0.02600
C 	C 	0.76160 0.20390 0.20036 -0.44700
H 	H 	0.84200 0.26680 0.20360 0.17600
H 	H 	0.76550 0.15520 0.23370 0.17200
C 	C 	0.76320 0.94530 0.09815 0.18100
H 	H 	0.71110 0.87130 0.09370 -0.02100
C 	C 	0.72780 0.01420 0.14400 -0.29700
H 	H 	0.65380 0.98610 0.16950 0.14100
C 	C 	0.80170 0.12430 0.15209 0.30400
C 	C 	0.91060 0.15840 0.11321 -0.29300
H 	H 	0.96520 0.23150 0.11710 0.15400
C 	C 	0.93960 0.08510 0.06837 0.17600
H 	H 	0.01380 0.11130 0.04250 -0.01800
Ni	Ni	0.89777 0.88501 0.98555 1.08800
O 	O 	0.85730 0.05030 0.94746 -0.38700
O 	O 	0.64000 0.16070 0.96401 -0.24200
O 	O 	0.65810 0.84384 0.99065 -0.41000
O 	O 	0.41800 0.77355 0.96911 -0.40000
O 	O 	0.33450 0.73430 0.77101 -0.14800
O 	O 	0.34550 0.89970 0.72315 -0.14900
N 	N 	0.37540 0.84130 0.76470 -0.01700
N 	N 	0.91670 0.79950 0.90856 -0.26600
N 	N 	0.63230 0.02120 0.55987 -0.26200
C 	C 	0.62330 0.01080 0.89519 -0.08700
C 	C 	0.54090 0.90230 0.90429 -0.03600
C 	C 	0.45950 0.84820 0.86098 -0.09800
H 	H 	0.40420 0.77600 0.86670 0.08700
C 	C 	0.46050 0.90070 0.81013 0.11000
C 	C 	0.54230 0.00880 0.79966 -0.14500
H 	H 	0.54180 0.04380 0.76470 0.10100
C 	C 	0.62380 0.06210 0.84269 0.03600
H 	H 	0.68020 0.13360 0.83650 0.03200
C 	C 	0.71280 0.07870 0.94011 0.31600
C 	C 	0.54100 0.83710 0.95898 0.33400
C 	C 	0.98430 0.85920 0.86683 0.16400
H 	H 	0.02940 0.93500 0.87380 -0.03300
C 	C 	0.99050 0.81410 0.81406 -0.28700
H 	H 	0.04010 0.85920 0.78650 0.14200
C 	C 	0.92410 0.70320 0.80150 0.27700
C 	C 	0.85160 0.64180 0.84440 -0.29700
H 	H 	0.80260 0.56710 0.83820 0.14600
C 	C 	0.85230 0.69230 0.89693 0.17500
H 	H 	0.80510 0.64870 0.92550 -0.03600
C 	C 	0.93200 0.64740 0.74415 -0.42700
H 	H 	0.85440 0.58220 0.74200 0.16300
H 	H 	0.03640 0.61150 0.73920 0.16200
C 	C 	0.90140 0.73590 0.69649 0.21700
H 	H 	0.98300 0.79830 0.69660 -0.02800
H 	H 	0.90900 0.69210 0.66180 -0.02600
C 	C 	0.73840 0.79610 0.70036 -0.44500
H 	H 	0.65800 0.73320 0.70360 0.17500
H 	H 	0.73450 0.84480 0.73370 0.17200
C 	C 	0.73680 0.05470 0.59815 0.17700
H 	H 	0.78890 0.12870 0.59370 -0.02000
C 	C 	0.77220 0.98580 0.64400 -0.29100
H 	H 	0.84620 0.01390 0.66950 0.13900
C 	C 	0.69830 0.87570 0.65209 0.30200
C 	C 	0.58940 0.84160 0.61321 -0.29300
H 	H 	0.53480 0.76850 0.61710 0.15400
C 	C 	0.56040 0.91490 0.56837 0.17800
H 	H 	0.48620 0.88870 0.54250 -0.02000
Ni	Ni	0.39777 0.61499 0.01445 1.08800
O 	O 	0.35730 0.44970 0.05254 -0.38700
O 	O 	0.14000 0.33930 0.03599 -0.24200
O 	O 	0.15810 0.65616 0.00935 -0.41000
O 	O 	0.91800 0.72645 0.03089 -0.39900
O 	O 	0.83450 0.76570 0.22899 -0.14800
O 	O 	0.84550 0.60030 0.27685 -0.14900
N 	N 	0.87540 0.65870 0.23530 -0.01800
N 	N 	0.41670 0.70050 0.09144 -0.26600
N 	N 	0.13230 0.47880 0.44013 -0.26200
C 	C 	0.12330 0.48920 0.10481 -0.08900
C 	C 	0.04090 0.59770 0.09571 -0.03400
C 	C 	0.95950 0.65180 0.13902 -0.09900
H 	H 	0.90420 0.72400 0.13330 0.08700
C 	C 	0.96050 0.59930 0.18987 0.11200
C 	C 	0.04230 0.49120 0.20034 -0.14700
H 	H 	0.04180 0.45620 0.23530 0.10100
C 	C 	0.12380 0.43790 0.15731 0.03800
H 	H 	0.18020 0.36640 0.16350 0.03100
C 	C 	0.21280 0.42130 0.05989 0.31700
C 	C 	0.04100 0.66290 0.04102 0.33300
C 	C 	0.48430 0.64080 0.13317 0.16400
H 	H 	0.52940 0.56500 0.12620 -0.03300
C 	C 	0.49050 0.68590 0.18594 -0.28800
H 	H 	0.54010 0.64080 0.21350 0.14300
C 	C 	0.42410 0.79680 0.19850 0.27800
C 	C 	0.35160 0.85820 0.15560 -0.29800
H 	H 	0.30260 0.93290 0.16180 0.14600
C 	C 	0.35230 0.80770 0.10307 0.17600
H 	H 	0.30510 0.85130 0.07450 -0.03600
C 	C 	0.43200 0.85260 0.25585 -0.42800
H 	H 	0.35440 0.91780 0.25800 0.16300
H 	H 	0.53640 0.88850 0.26080 0.16300
C 	C 	0.40140 0.76410 0.30351 0.21800
H 	H 	0.48300 0.70170 0.30340 -0.02900
H 	H 	0.40900 0.80790 0.33820 -0.02600
C 	C 	0.23840 0.70390 0.29964 -0.44700
H 	H 	0.15800 0.76680 0.29640 0.17500
H 	H 	0.23450 0.65520 0.26630 0.17200
C 	C 	0.23680 0.44530 0.40185 0.18100
H 	H 	0.28890 0.37130 0.40630 -0.02100
C 	C 	0.27220 0.51420 0.35600 -0.29600
H 	H 	0.34620 0.48610 0.33050 0.14100
C 	C 	0.19830 0.62430 0.34791 0.30400
C 	C 	0.08940 0.65840 0.38679 -0.29300
H 	H 	0.03480 0.73150 0.38290 0.15300
C 	C 	0.06040 0.58510 0.43163 0.17600
H 	H 	0.98620 0.61130 0.45750 -0.01800
Ni	Ni	0.10223 0.38501 0.51445 1.08800
O 	O 	0.14270 0.55030 0.55254 -0.38700
O 	O 	0.36000 0.66070 0.53599 -0.24200
O 	O 	0.34190 0.34384 0.50935 -0.41000
O 	O 	0.58200 0.27355 0.53089 -0.40000
O 	O 	0.66550 0.23430 0.72899 -0.14800
O 	O 	0.65450 0.39970 0.77685 -0.14900
N 	N 	0.62460 0.34130 0.73530 -0.01800
N 	N 	0.08330 0.29950 0.59144 -0.26600
N 	N 	0.36770 0.52120 0.94013 -0.26200
C 	C 	0.37670 0.51080 0.60481 -0.08900
C 	C 	0.45910 0.40230 0.59571 -0.03400
C 	C 	0.54050 0.34820 0.63902 -0.09900
H 	H 	0.59580 0.27600 0.63330 0.08700
C 	C 	0.53950 0.40070 0.68987 0.11200
C 	C 	0.45770 0.50880 0.70034 -0.14700
H 	H 	0.45820 0.54380 0.73530 0.10100
C 	C 	0.37620 0.56210 0.65731 0.03700
H 	H 	0.31980 0.63360 0.66350 0.03100
C 	C 	0.28720 0.57870 0.55989 0.31700
C 	C 	0.45900 0.33710 0.54102 0.33400
C 	C 	0.01570 0.35920 0.63317 0.16200
H 	H 	0.97060 0.43500 0.62620 -0.03200
C 	C 	0.00950 0.31410 0.68594 -0.28600
H 	H 	0.95990 0.35920 0.71350 0.14200
C 	C 	0.07590 0.20320 0.69850 0.27700
C 	C 	0.14840 0.14180 0.65560 -0.29600
H 	H 	0.19740 0.06710 0.66180 0.14600
C 	C 	0.14770 0.19230 0.60307 0.17500
H 	H 	0.19490 0.14870 0.57450 -0.03500
C 	C 	0.06800 0.14740 0.75585 -0.42400
H 	H 	0.14560 0.08220 0.75800 0.16300
H 	H 	0.96360 0.11150 0.76080 0.16100
C 	C 	0.09860 0.23590 0.80351 0.21600
H 	H 	0.01700 0.29830 0.80340 -0.02800
H 	H 	0.09100 0.19210 0.83820 -0.02500
C 	C 	0.26160 0.29610 0.79964 -0.44600
H 	H 	0.34200 0.23320 0.79640 0.17600
H 	H 	0.26550 0.34480 0.76630 0.17200
C 	C 	0.26320 0.55470 0.90185 0.18100
H 	H 	0.21110 0.62870 0.90630 -0.02100
C 	C 	0.22780 0.48580 0.85600 -0.29700
H 	H 	0.15380 0.51390 0.83050 0.14100
C 	C 	0.30170 0.37570 0.84791 0.30500
C 	C 	0.41060 0.34160 0.88679 -0.29400
H 	H 	0.46520 0.26850 0.88290 0.15500
C 	C 	0.43960 0.41490 0.93163 0.17800
H 	H 	0.51380 0.38870 0.95750 -0.01900
