data_crystal

_cell_length_a 8.71300
_cell_length_b 13.05400
_cell_length_c 13.56800
_cell_angle_alpha 90.00000
_cell_angle_beta  90.00000
_cell_angle_gamma 90.18400

_symmetry_space_group_name_	'P 1'
_symmetry_space_group_name_H-M	'P 1'

loop_
_symmetry_equiv_pos_as_xyz
  x,y,z

loop_
_atom_site_label
_atom_site_type_symbol
_atom_site_fract_x
_atom_site_fract_y
_atom_site_fract_z
_atom_site_charge
Cu	Cu	0.95483 0.41238 0.95983 0.91500
Cu	Cu	0.54517 0.58762 0.45983 0.91900
Cu	Cu	0.04517 0.58762 0.04017 0.91500
Cu	Cu	0.45483 0.41238 0.54017 0.91900
H 	H 	0.78570 0.37810 0.77210 0.00300
H 	H 	0.73710 0.26200 0.65020 0.11900
H 	H 	0.91400 0.04370 0.82290 0.09900
H 	H 	0.95980 0.16630 0.93980 -0.01700
H 	H 	0.71670 0.09130 0.59420 0.08900
H 	H 	0.72700 0.00370 0.67280 0.08800
H 	H 	0.81300 0.88730 0.55290 0.05000
H 	H 	0.79340 0.97510 0.47490 0.05400
H 	H 	0.93230 0.13520 0.49550 0.04500
H 	H 	0.04140 0.14990 0.58650 0.05500
H 	H 	0.40970 0.30340 0.05370 0.21200
H 	H 	0.49050 0.39620 0.00150 0.22800
H 	H 	0.57900 0.38250 0.16360 -0.09000
H 	H 	0.49440 0.48750 0.14990 -0.06800
H 	H 	0.36030 0.31200 0.23800 0.21200
H 	H 	0.26980 0.41370 0.22000 0.22300
H 	H 	0.71430 0.62190 0.27210 0.00400
H 	H 	0.76290 0.73800 0.15020 0.12100
H 	H 	0.58600 0.95630 0.32290 0.10000
H 	H 	0.54020 0.83370 0.43980 -0.01500
H 	H 	0.78330 0.90870 0.09420 0.09100
H 	H 	0.77300 0.99630 0.17280 0.09000
H 	H 	0.68700 0.11270 0.05290 0.05000
H 	H 	0.70660 0.02490 0.97490 0.05100
H 	H 	0.56770 0.86480 0.99550 0.04600
H 	H 	0.45860 0.85010 0.08650 0.05500
H 	H 	0.09030 0.69660 0.55370 0.21600
H 	H 	0.00950 0.60380 0.50150 0.23000
H 	H 	0.92100 0.61750 0.66360 -0.09400
H 	H 	0.00560 0.51250 0.64990 -0.07100
H 	H 	0.13970 0.68800 0.73800 0.21400
H 	H 	0.23020 0.58630 0.72000 0.22500
H 	H 	0.21430 0.62190 0.22790 0.00400
H 	H 	0.26290 0.73800 0.34980 0.12000
H 	H 	0.08600 0.95630 0.17710 0.09900
H 	H 	0.04020 0.83370 0.06020 -0.01700
H 	H 	0.28330 0.90870 0.40580 0.08900
H 	H 	0.27300 0.99630 0.32720 0.08800
H 	H 	0.18700 0.11270 0.44710 0.05000
H 	H 	0.20660 0.02490 0.52510 0.05400
H 	H 	0.06770 0.86480 0.50450 0.04500
H 	H 	0.95860 0.85010 0.41350 0.05500
H 	H 	0.59030 0.69660 0.94630 0.21200
H 	H 	0.50950 0.60380 0.99850 0.22800
H 	H 	0.42100 0.61750 0.83640 -0.09000
H 	H 	0.50560 0.51250 0.85010 -0.06800
H 	H 	0.63970 0.68800 0.76200 0.21200
H 	H 	0.73020 0.58630 0.78000 0.22300
H 	H 	0.28570 0.37810 0.72790 0.00400
H 	H 	0.23710 0.26200 0.84980 0.12100
H 	H 	0.41400 0.04370 0.67710 0.10000
H 	H 	0.45980 0.16630 0.56020 -0.01500
H 	H 	0.21670 0.09130 0.90580 0.09100
H 	H 	0.22700 0.00370 0.82720 0.09000
H 	H 	0.31300 0.88730 0.94710 0.05000
H 	H 	0.29340 0.97510 0.02510 0.05100
H 	H 	0.43230 0.13520 0.00450 0.04600
H 	H 	0.54140 0.14990 0.91350 0.05500
H 	H 	0.90970 0.30340 0.44630 0.21600
H 	H 	0.99050 0.39620 0.49850 0.23000
H 	H 	0.07900 0.38250 0.33640 -0.09400
H 	H 	0.99440 0.48750 0.35010 -0.07100
H 	H 	0.86030 0.31200 0.26200 0.21400
H 	H 	0.76980 0.41370 0.28000 0.22500
C 	C 	0.81300 0.31000 0.78230 0.12200
C 	C 	0.78270 0.24050 0.70860 -0.21600
C 	C 	0.82020 0.13820 0.72167 0.17200
C 	C 	0.88750 0.11140 0.81059 -0.21200
C 	C 	0.91480 0.18580 0.88061 0.11300
C 	C 	0.78320 0.06000 0.64290 -0.19900
C 	C 	0.86580 0.94270 0.51920 -0.06800
C 	C 	0.00260 0.10028 0.53950 -0.05900
C 	C 	0.26280 0.42260 0.02817 0.49300
C 	C 	0.41810 0.37760 0.05281 -0.60100
C 	C 	0.48000 0.41380 0.15162 0.38700
C 	C 	0.37020 0.38600 0.23520 -0.58900
C 	C 	0.41860 0.42430 0.33539 0.49700
C 	C 	0.68700 0.69000 0.28230 0.12300
C 	C 	0.71730 0.75950 0.20860 -0.21600
C 	C 	0.67980 0.86180 0.22167 0.17400
C 	C 	0.61250 0.88860 0.31059 -0.21200
C 	C 	0.58520 0.81420 0.38061 0.11500
C 	C 	0.71680 0.94000 0.14290 -0.20000
C 	C 	0.63420 0.05730 0.01920 -0.06400
C 	C 	0.49740 0.89972 0.03950 -0.06200
C 	C 	0.23720 0.57740 0.52817 0.50100
C 	C 	0.08190 0.62240 0.55281 -0.60900
C 	C 	0.02000 0.58620 0.65162 0.39700
C 	C 	0.12980 0.61400 0.73520 -0.59400
C 	C 	0.08140 0.57570 0.83539 0.49800
C 	C 	0.18700 0.69000 0.21770 0.12200
C 	C 	0.21730 0.75950 0.29140 -0.21600
C 	C 	0.17980 0.86180 0.27833 0.17200
C 	C 	0.11250 0.88860 0.18941 -0.21200
C 	C 	0.08520 0.81420 0.11939 0.11300
C 	C 	0.21680 0.94000 0.35710 -0.19900
C 	C 	0.13420 0.05730 0.48080 -0.06800
C 	C 	0.99740 0.89972 0.46050 -0.05900
C 	C 	0.73720 0.57740 0.97183 0.49300
C 	C 	0.58190 0.62240 0.94719 -0.60100
C 	C 	0.52000 0.58620 0.84838 0.38700
C 	C 	0.62980 0.61400 0.76480 -0.58900
C 	C 	0.58140 0.57570 0.66461 0.49700
C 	C 	0.31300 0.31000 0.71770 0.12300
C 	C 	0.28270 0.24050 0.79140 -0.21600
C 	C 	0.32020 0.13820 0.77833 0.17400
C 	C 	0.38750 0.11140 0.68941 -0.21200
C 	C 	0.41480 0.18580 0.61939 0.11500
C 	C 	0.28320 0.06000 0.85710 -0.20000
C 	C 	0.36580 0.94270 0.98080 -0.06400
C 	C 	0.50260 0.10028 0.96050 -0.06200
C 	C 	0.76280 0.42260 0.47183 0.50100
C 	C 	0.91810 0.37760 0.44719 -0.60900
C 	C 	0.98000 0.41380 0.34838 0.39700
C 	C 	0.87020 0.38600 0.26480 -0.59400
C 	C 	0.91860 0.42430 0.16461 0.49800
N 	N 	0.87970 0.28494 0.86774 -0.20600
N 	N 	0.91990 0.01846 0.59237 -0.07300
N 	N 	0.62030 0.71506 0.36774 -0.20500
N 	N 	0.58010 0.98154 0.09237 -0.07200
N 	N 	0.12030 0.71506 0.13226 -0.20600
N 	N 	0.08010 0.98154 0.40763 -0.07300
N 	N 	0.37970 0.28494 0.63226 -0.20500
N 	N 	0.41990 0.01846 0.90763 -0.07200
O 	O 	0.16430 0.36451 0.98947 -0.44700
O 	O 	0.24210 0.51502 0.04939 -0.45300
O 	O 	0.40000 0.36478 0.40791 -0.44400
O 	O 	0.47160 0.51367 0.34126 -0.44700
O 	O 	0.33570 0.63549 0.48947 -0.45400
O 	O 	0.25790 0.48498 0.54939 -0.45400
O 	O 	0.10000 0.63522 0.90791 -0.44200
O 	O 	0.02840 0.48633 0.84126 -0.44400
O 	O 	0.83570 0.63549 0.01053 -0.44700
O 	O 	0.75790 0.48498 0.95061 -0.45300
O 	O 	0.60000 0.63522 0.59209 -0.44400
O 	O 	0.52840 0.48633 0.65874 -0.44700
O 	O 	0.66430 0.36451 0.51053 -0.45400
O 	O 	0.74210 0.51502 0.45061 -0.45400
O 	O 	0.90000 0.36478 0.09209 -0.44200
O 	O 	0.97160 0.51367 0.15874 -0.44400
