data_crystal

_cell_length_a 21.33600
_cell_length_b 23.76600
_cell_length_c 15.80800
_cell_angle_alpha 90.00000
_cell_angle_beta  101.56800
_cell_angle_gamma 90.00000

_symmetry_space_group_name_	'P 1'
_symmetry_space_group_name_H-M	'P 1'

loop_
_symmetry_equiv_pos_as_xyz
  x,y,z

loop_
_atom_site_label
_atom_site_type_symbol
_atom_site_fract_x
_atom_site_fract_y
_atom_site_fract_z
_atom_site_charge
Zn	Zn	0.95006 0.98967 0.26580 1.22300
Zn	Zn	0.02913 0.00973 0.13147 1.21600
O 	O 	0.00850 0.03990 0.34740 -0.46800
O 	O 	0.06350 0.05470 0.24280 -0.48400
O 	O 	0.40880 0.44130 0.70410 -0.47600
O 	O 	0.46390 0.42720 0.59690 -0.42900
O 	O 	0.00720 0.92260 0.29250 -0.51200
O 	O 	0.06600 0.93600 0.19200 -0.44900
O 	O 	0.41540 0.55000 0.64830 -0.46700
O 	O 	0.46990 0.53730 0.54230 -0.43500
N 	N 	0.22930 0.21060 0.52650 -0.09100
N 	N 	0.26740 0.22940 0.50240 -0.10200
N 	N 	0.20700 0.72470 0.39900 -0.11700
N 	N 	0.26440 0.71870 0.36620 -0.10700
C 	C 	0.05200 0.06030 0.31780 0.39900
C 	C 	0.09500 0.10290 0.37670 -0.13300
C 	C 	0.09240 0.10960 0.46330 0.06700
H 	H 	0.06240 0.08880 0.48750 0.02700
C 	C 	0.13380 0.14700 0.51440 -0.16000
H 	H 	0.13200 0.15160 0.57350 0.09200
C 	C 	0.17770 0.17750 0.47890 0.12700
C 	C 	0.18030 0.17070 0.39230 -0.15800
H 	H 	0.21030 0.19160 0.36810 0.08100
C 	C 	0.13890 0.13340 0.34120 0.05800
H 	H 	0.14070 0.12880 0.28210 0.01600
C 	C 	0.30530 0.27230 0.54410 0.14100
C 	C 	0.28480 0.31130 0.59820 -0.16900
H 	H 	0.24430 0.30690 0.61360 0.09200
C 	C 	0.32360 0.35670 0.62990 0.07200
H 	H 	0.30960 0.38330 0.66690 0.01400
C 	C 	0.38290 0.36310 0.60740 -0.14800
C 	C 	0.40340 0.32410 0.55320 0.08100
H 	H 	0.44390 0.32850 0.53780 0.01200
C 	C 	0.36460 0.27880 0.52160 -0.17000
H 	H 	0.37860 0.25210 0.48450 0.08400
C 	C 	0.42060 0.41310 0.64620 0.37800
C 	C 	0.05000 0.91220 0.26140 0.42500
C 	C 	0.09350 0.86110 0.28470 -0.15300
C 	C 	0.07580 0.82660 0.34700 0.07400
H 	H 	0.03740 0.83390 0.36680 0.01600
C 	C 	0.11440 0.78150 0.38040 -0.16700
H 	H 	0.10230 0.75790 0.42290 0.08200
C 	C 	0.17060 0.77080 0.35140 0.14100
C 	C 	0.18820 0.80520 0.28910 -0.17000
H 	H 	0.22660 0.79790 0.26930 0.09700
C 	C 	0.14970 0.85040 0.25570 0.08300
H 	H 	0.16180 0.87400 0.21320 0.01100
C 	C 	0.29330 0.67300 0.42490 0.13900
C 	C 	0.28740 0.65950 0.50850 -0.17900
H 	H 	0.25470 0.67650 0.53280 0.08300
C 	C 	0.32930 0.62130 0.55670 0.07400
H 	H 	0.32520 0.61210 0.61380 0.01000
C 	C 	0.37710 0.59640 0.52120 -0.15800
C 	C 	0.38300 0.60980 0.43760 0.07800
H 	H 	0.41560 0.59290 0.41330 0.02400
C 	C 	0.34110 0.64810 0.38940 -0.16700
H 	H 	0.34510 0.65730 0.33230 0.09600
C 	C 	0.42500 0.56040 0.57370 0.38500
N 	N 	0.87240 0.96980 0.31740 -0.24700
C 	C 	0.81550 0.96830 0.25670 0.08000
H 	H 	0.81600 0.97250 0.19710 0.00000
C 	C 	0.75770 0.96080 0.28320 -0.19400
H 	H 	0.71880 0.95980 0.24170 0.09000
C 	C 	0.75700 0.95470 0.37040 0.18100
C 	C 	0.81390 0.95620 0.43120 -0.19500
H 	H 	0.81340 0.95200 0.49080 0.10300
C 	C 	0.87170 0.96370 0.40460 0.09400
H 	H 	0.91060 0.96460 0.44620 0.00800
C 	C 	0.69100 0.95540 0.39560 -0.30600
C 	C 	0.65510 0.90620 0.38700 0.35000
C 	C 	0.59340 0.90660 0.40310 -0.34000
H 	H 	0.56880 0.87300 0.39730 0.13600
C 	C 	0.56760 0.95620 0.42780 0.21200
C 	C 	0.60360 0.00540 0.43600 -0.33600
H 	H 	0.58590 0.03940 0.45330 0.13100
C 	C 	0.66520 0.00500 0.42030 0.35100
C 	C 	0.68390 0.85160 0.36500 -0.71100
H 	H 	0.65250 0.82130 0.36350 0.22800
H 	H 	0.72190 0.84320 0.40970 0.23600
H 	H 	0.69610 0.85490 0.30900 0.23100
C 	C 	0.69690 0.06170 0.42000 -0.71200
H 	H 	0.66910 0.09080 0.43630 0.22900
H 	H 	0.70420 0.06960 0.36170 0.23700
H 	H 	0.73790 0.06150 0.46100 0.24100
N 	N 	0.99100 0.45790 0.45300 -0.16000
H 	H 	0.97080 0.48830 0.46480 0.09100
C 	C 	0.97080 0.41070 0.45280 -0.15300
H 	H 	0.99620 0.38780 0.49980 0.07000
H 	H 	0.97040 0.39190 0.39670 0.06900
C 	C 	0.90340 0.42090 0.46720 0.26200
C 	C 	0.87390 0.47310 0.45130 -0.37800
H 	H 	0.89530 0.50300 0.42920 0.14400
C 	C 	0.81300 0.48140 0.46790 0.37800
C 	C 	0.78160 0.43760 0.50040 -0.35200
C 	C 	0.81120 0.38550 0.51630 0.42400
C 	C 	0.87200 0.37710 0.49970 -0.40600
H 	H 	0.89220 0.34150 0.51050 0.16100
C 	C 	0.77600 0.53430 0.43600 -0.73600
H 	H 	0.80460 0.56020 0.41270 0.22700
H 	H 	0.76120 0.55240 0.48340 0.24900
H 	H 	0.73980 0.52460 0.38990 0.24400
C 	C 	0.77790 0.34050 0.55400 -0.81100
H 	H 	0.73580 0.35400 0.56050 0.26300
H 	H 	0.80320 0.33000 0.61050 0.25200
H 	H 	0.77270 0.30770 0.51570 0.26500
C 	C 	0.72140 0.45160 0.52940 0.21100
C 	C 	0.66320 0.44690 0.47170 -0.22100
H 	H 	0.66210 0.43520 0.41400 0.10700
C 	C 	0.60660 0.45960 0.49850 0.10000
H 	H 	0.56680 0.45640 0.45910 -0.00700
N 	N 	0.60820 0.47680 0.58290 -0.26000
C 	C 	0.66650 0.48140 0.64060 0.09600
H 	H 	0.66760 0.49320 0.69830 -0.01300
C 	C 	0.72310 0.46880 0.61380 -0.22300
H 	H 	0.76280 0.47200 0.65320 0.09800
N 	N 	0.49100 0.04210 0.95300 -0.15700
H 	H 	0.47080 0.01170 0.96480 0.09000
C 	C 	0.47080 0.08930 0.95280 -0.16300
H 	H 	0.49620 0.11220 0.99980 0.07000
H 	H 	0.47040 0.10810 0.89670 0.07100
C 	C 	0.40340 0.07910 0.96720 0.27800
C 	C 	0.37390 0.02690 0.95130 -0.38700
H 	H 	0.39530 0.99700 0.92920 0.14500
C 	C 	0.31300 0.01860 0.96790 0.37700
C 	C 	0.28160 0.06240 0.00040 -0.35800
C 	C 	0.31120 0.11450 0.01630 0.45500
C 	C 	0.37200 0.12290 0.99970 -0.44800
H 	H 	0.39220 0.15850 0.01050 0.18100
C 	C 	0.27600 0.96570 0.93600 -0.73500
H 	H 	0.30460 0.93980 0.91270 0.22600
H 	H 	0.26120 0.94760 0.98340 0.24600
H 	H 	0.23980 0.97540 0.88990 0.24200
C 	C 	0.27790 0.15950 0.05400 -0.84300
H 	H 	0.23580 0.14600 0.06050 0.27400
H 	H 	0.30320 0.17000 0.11050 0.26200
H 	H 	0.27270 0.19230 0.01570 0.27600
C 	C 	0.22140 0.04840 0.02940 0.22600
C 	C 	0.16320 0.05310 0.97170 -0.23500
H 	H 	0.16210 0.06480 0.91400 0.11100
C 	C 	0.10660 0.04040 0.99850 0.09700
H 	H 	0.06680 0.04360 0.95910 -0.00800
N 	N 	0.10820 0.02320 0.08290 -0.25700
C 	C 	0.16650 0.01860 0.14060 0.10100
H 	H 	0.16760 0.00680 0.19830 -0.01400
C 	C 	0.22310 0.03120 0.11380 -0.22900
H 	H 	0.26280 0.02800 0.15320 0.10200
Zn	Zn	0.45006 0.51033 0.76580 1.22200
Zn	Zn	0.52913 0.49027 0.63147 1.21400
O 	O 	0.50850 0.46010 0.84740 -0.46800
O 	O 	0.56350 0.44530 0.74280 -0.48300
O 	O 	0.90880 0.05870 0.20410 -0.47500
O 	O 	0.96390 0.07280 0.09690 -0.42600
O 	O 	0.50720 0.57740 0.79250 -0.51300
O 	O 	0.56600 0.56400 0.69200 -0.45000
O 	O 	0.91540 0.95000 0.14830 -0.46400
O 	O 	0.96990 0.96270 0.04230 -0.42800
N 	N 	0.72930 0.28940 0.02650 -0.08200
N 	N 	0.76740 0.27060 0.00240 -0.09800
N 	N 	0.70700 0.77530 0.89900 -0.11900
N 	N 	0.76440 0.78130 0.86620 -0.10500
C 	C 	0.55200 0.43970 0.81780 0.39300
C 	C 	0.59500 0.39710 0.87670 -0.11600
C 	C 	0.59240 0.39040 0.96330 0.03100
H 	H 	0.56240 0.41120 0.98750 0.03500
C 	C 	0.63380 0.35300 0.01440 -0.11300
H 	H 	0.63200 0.34840 0.07350 0.07800
C 	C 	0.67770 0.32250 0.97890 0.09200
C 	C 	0.68030 0.32930 0.89230 -0.13600
H 	H 	0.71030 0.30840 0.86810 0.07200
C 	C 	0.63890 0.36660 0.84120 0.03800
H 	H 	0.64070 0.37120 0.78210 0.02200
C 	C 	0.80530 0.22770 0.04410 0.13300
C 	C 	0.78480 0.18870 0.09820 -0.16000
H 	H 	0.74430 0.19310 0.11360 0.09000
C 	C 	0.82360 0.14330 0.12990 0.06600
H 	H 	0.80960 0.11670 0.16690 0.01700
C 	C 	0.88290 0.13690 0.10740 -0.13800
C 	C 	0.90340 0.17590 0.05320 0.06600
H 	H 	0.94390 0.17150 0.03780 0.02000
C 	C 	0.86460 0.22120 0.02160 -0.14200
H 	H 	0.87860 0.24790 0.98450 0.06800
C 	C 	0.92060 0.08690 0.14620 0.37600
C 	C 	0.55000 0.58780 0.76140 0.42500
C 	C 	0.59350 0.63890 0.78470 -0.15400
C 	C 	0.57580 0.67340 0.84700 0.07300
H 	H 	0.53740 0.66610 0.86680 0.01500
C 	C 	0.61440 0.71850 0.88040 -0.16800
H 	H 	0.60230 0.74210 0.92290 0.08000
C 	C 	0.67060 0.72920 0.85140 0.13900
C 	C 	0.68820 0.69480 0.78910 -0.17100
H 	H 	0.72660 0.70210 0.76930 0.09600
C 	C 	0.64970 0.64960 0.75570 0.08200
H 	H 	0.66180 0.62600 0.71320 0.01000
C 	C 	0.79330 0.82700 0.92490 0.11400
C 	C 	0.78740 0.84050 0.00850 -0.14700
H 	H 	0.75470 0.82350 0.03280 0.07600
C 	C 	0.82930 0.87870 0.05670 0.05200
H 	H 	0.82520 0.88790 0.11380 0.01900
C 	C 	0.87710 0.90360 0.02120 -0.12900
C 	C 	0.88300 0.89020 0.93760 0.04600
H 	H 	0.91560 0.90710 0.91330 0.03200
C 	C 	0.84110 0.85190 0.88940 -0.14500
H 	H 	0.84510 0.84270 0.83230 0.08800
C 	C 	0.92500 0.93960 0.07370 0.37600
N 	N 	0.37240 0.53020 0.81740 -0.24700
C 	C 	0.31550 0.53170 0.75670 0.07900
H 	H 	0.31600 0.52750 0.69710 -0.00000
C 	C 	0.25770 0.53920 0.78320 -0.19300
H 	H 	0.21880 0.54020 0.74170 0.08900
C 	C 	0.25700 0.54530 0.87040 0.17900
C 	C 	0.31390 0.54380 0.93120 -0.19500
H 	H 	0.31340 0.54800 0.99080 0.09900
C 	C 	0.37170 0.53630 0.90460 0.09200
H 	H 	0.41060 0.53540 0.94620 0.00500
C 	C 	0.19100 0.54460 0.89560 -0.30400
C 	C 	0.15510 0.59380 0.88700 0.34600
C 	C 	0.09340 0.59340 0.90310 -0.33800
H 	H 	0.06880 0.62700 0.89730 0.13400
C 	C 	0.06760 0.54380 0.92780 0.21000
C 	C 	0.10360 0.49460 0.93600 -0.33400
H 	H 	0.08590 0.46060 0.95330 0.12900
C 	C 	0.16520 0.49500 0.92030 0.34600
C 	C 	0.18390 0.64840 0.86500 -0.70500
H 	H 	0.15250 0.67870 0.86350 0.22400
H 	H 	0.22190 0.65680 0.90970 0.23200
H 	H 	0.19610 0.64510 0.80900 0.22800
C 	C 	0.19690 0.43830 0.92000 -0.70400
H 	H 	0.16910 0.40920 0.93630 0.22600
H 	H 	0.20420 0.43040 0.86170 0.23400
H 	H 	0.23790 0.43850 0.96100 0.23600
N 	N 	0.49100 0.95790 0.45300 -0.16000
H 	H 	0.47080 0.98830 0.46480 0.09200
C 	C 	0.47080 0.91070 0.45280 -0.15300
H 	H 	0.49620 0.88780 0.49980 0.07000
H 	H 	0.47040 0.89190 0.39670 0.06900
C 	C 	0.40340 0.92090 0.46720 0.26200
C 	C 	0.37390 0.97310 0.45130 -0.37900
H 	H 	0.39530 0.00300 0.42920 0.14400
C 	C 	0.31300 0.98140 0.46790 0.37800
C 	C 	0.28160 0.93760 0.50040 -0.35300
C 	C 	0.31120 0.88550 0.51630 0.42400
C 	C 	0.37200 0.87710 0.49970 -0.40600
H 	H 	0.39220 0.84150 0.51050 0.16100
C 	C 	0.27600 0.03430 0.43600 -0.73700
H 	H 	0.30460 0.06020 0.41270 0.22700
H 	H 	0.26120 0.05240 0.48340 0.24900
H 	H 	0.23980 0.02460 0.38990 0.24400
C 	C 	0.27790 0.84050 0.55400 -0.81100
H 	H 	0.23580 0.85400 0.56050 0.26300
H 	H 	0.30320 0.83000 0.61050 0.25200
H 	H 	0.27270 0.80770 0.51570 0.26500
C 	C 	0.22140 0.95160 0.52940 0.21200
C 	C 	0.16320 0.94690 0.47170 -0.22200
H 	H 	0.16210 0.93520 0.41400 0.10700
C 	C 	0.10660 0.95960 0.49850 0.10000
H 	H 	0.06680 0.95640 0.45910 -0.00700
N 	N 	0.10820 0.97680 0.58290 -0.26000
C 	C 	0.16650 0.98140 0.64060 0.09600
H 	H 	0.16760 0.99320 0.69830 -0.01300
C 	C 	0.22310 0.96880 0.61380 -0.22300
H 	H 	0.26280 0.97200 0.65320 0.09900
Zn	Zn	0.45006 0.48967 0.26580 1.22200
Zn	Zn	0.52913 0.50973 0.13147 1.21500
O 	O 	0.50850 0.53990 0.34740 -0.46900
O 	O 	0.56350 0.55470 0.24280 -0.48400
O 	O 	0.90880 0.94130 0.70410 -0.47600
O 	O 	0.96390 0.92720 0.59690 -0.42900
O 	O 	0.50720 0.42260 0.29250 -0.51200
O 	O 	0.56600 0.43600 0.19200 -0.44900
O 	O 	0.91540 0.05000 0.64830 -0.46700
O 	O 	0.96990 0.03730 0.54230 -0.43500
N 	N 	0.72930 0.71060 0.52650 -0.09200
N 	N 	0.76740 0.72940 0.50240 -0.10200
N 	N 	0.70700 0.22470 0.39900 -0.11700
N 	N 	0.76440 0.21870 0.36620 -0.10700
C 	C 	0.55200 0.56030 0.31780 0.39900
C 	C 	0.59500 0.60290 0.37670 -0.13300
C 	C 	0.59240 0.60960 0.46330 0.06700
H 	H 	0.56240 0.58880 0.48750 0.02700
C 	C 	0.63380 0.64700 0.51440 -0.16000
H 	H 	0.63200 0.65160 0.57350 0.09200
C 	C 	0.67770 0.67750 0.47890 0.12700
C 	C 	0.68030 0.67070 0.39230 -0.15800
H 	H 	0.71030 0.69160 0.36810 0.08100
C 	C 	0.63890 0.63340 0.34120 0.05800
H 	H 	0.64070 0.62880 0.28210 0.01600
C 	C 	0.80530 0.77230 0.54410 0.14100
C 	C 	0.78480 0.81130 0.59820 -0.16900
H 	H 	0.74430 0.80690 0.61360 0.09200
C 	C 	0.82360 0.85670 0.62990 0.07200
H 	H 	0.80960 0.88330 0.66690 0.01400
C 	C 	0.88290 0.86310 0.60740 -0.14800
C 	C 	0.90340 0.82410 0.55320 0.08000
H 	H 	0.94390 0.82850 0.53780 0.01200
C 	C 	0.86460 0.77880 0.52160 -0.17000
H 	H 	0.87860 0.75210 0.48450 0.08400
C 	C 	0.92060 0.91310 0.64620 0.37800
C 	C 	0.55000 0.41220 0.26140 0.42500
C 	C 	0.59350 0.36110 0.28470 -0.15300
C 	C 	0.57580 0.32660 0.34700 0.07400
H 	H 	0.53740 0.33390 0.36680 0.01600
C 	C 	0.61440 0.28150 0.38040 -0.16700
H 	H 	0.60230 0.25790 0.42290 0.08200
C 	C 	0.67060 0.27080 0.35140 0.14100
C 	C 	0.68820 0.30520 0.28910 -0.17000
H 	H 	0.72660 0.29790 0.26930 0.09700
C 	C 	0.64970 0.35040 0.25570 0.08300
H 	H 	0.66180 0.37400 0.21320 0.01100
C 	C 	0.79330 0.17300 0.42490 0.13900
C 	C 	0.78740 0.15950 0.50850 -0.17900
H 	H 	0.75470 0.17650 0.53280 0.08300
C 	C 	0.82930 0.12130 0.55670 0.07400
H 	H 	0.82520 0.11210 0.61380 0.01000
C 	C 	0.87710 0.09640 0.52120 -0.15800
C 	C 	0.88300 0.10980 0.43760 0.07800
H 	H 	0.91560 0.09290 0.41330 0.02400
C 	C 	0.84110 0.14810 0.38940 -0.16700
H 	H 	0.84510 0.15730 0.33230 0.09600
C 	C 	0.92500 0.06040 0.57370 0.38500
N 	N 	0.37240 0.46980 0.31740 -0.24700
C 	C 	0.31550 0.46830 0.25670 0.08000
H 	H 	0.31600 0.47250 0.19710 0.00000
C 	C 	0.25770 0.46080 0.28320 -0.19400
H 	H 	0.21880 0.45980 0.24170 0.09000
C 	C 	0.25700 0.45470 0.37040 0.18100
C 	C 	0.31390 0.45620 0.43120 -0.19500
H 	H 	0.31340 0.45200 0.49080 0.10300
C 	C 	0.37170 0.46370 0.40460 0.09400
H 	H 	0.41060 0.46460 0.44620 0.00800
C 	C 	0.19100 0.45540 0.39560 -0.30600
C 	C 	0.15510 0.40620 0.38700 0.35000
C 	C 	0.09340 0.40660 0.40310 -0.34000
H 	H 	0.06880 0.37300 0.39730 0.13600
C 	C 	0.06760 0.45620 0.42780 0.21200
C 	C 	0.10360 0.50540 0.43600 -0.33600
H 	H 	0.08590 0.53940 0.45330 0.13100
C 	C 	0.16520 0.50500 0.42030 0.35100
C 	C 	0.18390 0.35160 0.36500 -0.71100
H 	H 	0.15250 0.32130 0.36350 0.22700
H 	H 	0.22190 0.34320 0.40970 0.23600
H 	H 	0.19610 0.35490 0.30900 0.23000
C 	C 	0.19690 0.56170 0.42000 -0.71100
H 	H 	0.16910 0.59080 0.43630 0.22900
H 	H 	0.20420 0.56960 0.36170 0.23700
H 	H 	0.23790 0.56150 0.46100 0.24000
Zn	Zn	0.95006 0.01033 0.76580 1.22200
Zn	Zn	0.02913 0.99027 0.63147 1.21400
O 	O 	0.00850 0.96010 0.84740 -0.46800
O 	O 	0.06350 0.94530 0.74280 -0.48300
O 	O 	0.40880 0.55870 0.20410 -0.47500
O 	O 	0.46390 0.57280 0.09690 -0.42600
O 	O 	0.00720 0.07740 0.79250 -0.51200
O 	O 	0.06600 0.06400 0.69200 -0.45000
O 	O 	0.41540 0.45000 0.14830 -0.46400
O 	O 	0.46990 0.46270 0.04230 -0.42900
N 	N 	0.22930 0.78940 0.02650 -0.08300
N 	N 	0.26740 0.77060 0.00240 -0.09900
N 	N 	0.20700 0.27530 0.89900 -0.11900
N 	N 	0.26440 0.28130 0.86620 -0.10600
C 	C 	0.05200 0.93970 0.81780 0.39300
C 	C 	0.09500 0.89710 0.87670 -0.11700
C 	C 	0.09240 0.89040 0.96330 0.03300
H 	H 	0.06240 0.91120 0.98750 0.03500
C 	C 	0.13380 0.85300 0.01440 -0.11500
H 	H 	0.13200 0.84840 0.07350 0.07900
C 	C 	0.17770 0.82250 0.97890 0.09400
C 	C 	0.18030 0.82930 0.89230 -0.13700
H 	H 	0.21030 0.80840 0.86810 0.07200
C 	C 	0.13890 0.86660 0.84120 0.03900
H 	H 	0.14070 0.87120 0.78210 0.02100
C 	C 	0.30530 0.72770 0.04410 0.13300
C 	C 	0.28480 0.68870 0.09820 -0.16100
H 	H 	0.24430 0.69310 0.11360 0.09000
C 	C 	0.32360 0.64330 0.12990 0.06600
H 	H 	0.30960 0.61670 0.16690 0.01700
C 	C 	0.38290 0.63690 0.10740 -0.13800
C 	C 	0.40340 0.67590 0.05320 0.06600
H 	H 	0.44390 0.67150 0.03780 0.02000
C 	C 	0.36460 0.72120 0.02160 -0.14300
H 	H 	0.37860 0.74790 0.98450 0.06900
C 	C 	0.42060 0.58690 0.14620 0.37600
C 	C 	0.05000 0.08780 0.76140 0.42500
C 	C 	0.09350 0.13890 0.78470 -0.15400
C 	C 	0.07580 0.17340 0.84700 0.07300
H 	H 	0.03740 0.16610 0.86680 0.01500
C 	C 	0.11440 0.21850 0.88040 -0.16700
H 	H 	0.10230 0.24210 0.92290 0.08000
C 	C 	0.17060 0.22920 0.85140 0.13900
C 	C 	0.18820 0.19480 0.78910 -0.17100
H 	H 	0.22660 0.20210 0.76930 0.09600
C 	C 	0.14970 0.14960 0.75570 0.08200
H 	H 	0.16180 0.12600 0.71320 0.01000
C 	C 	0.29330 0.32700 0.92490 0.11700
C 	C 	0.28740 0.34050 0.00850 -0.15100
H 	H 	0.25470 0.32350 0.03280 0.07700
C 	C 	0.32930 0.37870 0.05670 0.05500
H 	H 	0.32520 0.38790 0.11380 0.01800
C 	C 	0.37710 0.40360 0.02120 -0.13200
C 	C 	0.38300 0.39020 0.93760 0.04900
H 	H 	0.41560 0.40710 0.91330 0.03200
C 	C 	0.34110 0.35190 0.88940 -0.14700
H 	H 	0.34510 0.34270 0.83230 0.08900
C 	C 	0.42500 0.43960 0.07370 0.37700
N 	N 	0.87240 0.03020 0.81740 -0.24700
C 	C 	0.81550 0.03170 0.75670 0.07900
H 	H 	0.81600 0.02750 0.69710 -0.00000
C 	C 	0.75770 0.03920 0.78320 -0.19300
H 	H 	0.71880 0.04020 0.74170 0.08900
C 	C 	0.75700 0.04530 0.87040 0.17900
C 	C 	0.81390 0.04380 0.93120 -0.19500
H 	H 	0.81340 0.04800 0.99080 0.09900
C 	C 	0.87170 0.03630 0.90460 0.09300
H 	H 	0.91060 0.03540 0.94620 0.00500
C 	C 	0.69100 0.04460 0.89560 -0.30300
C 	C 	0.65510 0.09380 0.88700 0.34500
C 	C 	0.59340 0.09340 0.90310 -0.33700
H 	H 	0.56880 0.12700 0.89730 0.13400
C 	C 	0.56760 0.04380 0.92780 0.21000
C 	C 	0.60360 0.99460 0.93600 -0.33400
H 	H 	0.58590 0.96060 0.95330 0.12800
C 	C 	0.66520 0.99500 0.92030 0.34500
C 	C 	0.68390 0.14840 0.86500 -0.70400
H 	H 	0.65250 0.17870 0.86350 0.22400
H 	H 	0.72190 0.15680 0.90970 0.23200
H 	H 	0.69610 0.14510 0.80900 0.22700
C 	C 	0.69690 0.93830 0.92000 -0.70300
H 	H 	0.66910 0.90920 0.93630 0.22500
H 	H 	0.70420 0.93040 0.86170 0.23400
H 	H 	0.73790 0.93850 0.96100 0.23500
N 	N 	0.99100 0.54210 0.95300 -0.15700
H 	H 	0.97080 0.51170 0.96480 0.08900
C 	C 	0.97080 0.58930 0.95280 -0.16400
H 	H 	0.99620 0.61220 0.99980 0.07000
H 	H 	0.97040 0.60810 0.89670 0.07100
C 	C 	0.90340 0.57910 0.96720 0.28000
C 	C 	0.87390 0.52690 0.95130 -0.38900
H 	H 	0.89530 0.49700 0.92920 0.14600
C 	C 	0.81300 0.51860 0.96790 0.37500
C 	C 	0.78160 0.56240 0.00040 -0.35800
C 	C 	0.81120 0.61450 0.01630 0.45900
C 	C 	0.87200 0.62290 0.99970 -0.45400
H 	H 	0.89220 0.65850 0.01050 0.18400
C 	C 	0.77600 0.46570 0.93600 -0.73400
H 	H 	0.80460 0.43980 0.91270 0.22500
H 	H 	0.76120 0.44760 0.98340 0.24500
H 	H 	0.73980 0.47540 0.88990 0.24200
C 	C 	0.77790 0.65950 0.05400 -0.84700
H 	H 	0.73580 0.64600 0.06050 0.27500
H 	H 	0.80320 0.67000 0.11050 0.26400
H 	H 	0.77270 0.69230 0.01570 0.27800
C 	C 	0.72140 0.54840 0.02940 0.22800
C 	C 	0.66320 0.55310 0.97170 -0.23800
H 	H 	0.66210 0.56480 0.91400 0.11100
C 	C 	0.60660 0.54040 0.99850 0.09600
H 	H 	0.56680 0.54360 0.95910 -0.00800
N 	N 	0.60820 0.52320 0.08290 -0.25700
C 	C 	0.66650 0.51860 0.14060 0.10100
H 	H 	0.66760 0.50680 0.19830 -0.01400
C 	C 	0.72310 0.53120 0.11380 -0.23000
H 	H 	0.76280 0.52800 0.15320 0.10200
