data_crystal

_cell_length_a 8.76820
_cell_length_b 20.46940
_cell_length_c 33.85100
_cell_angle_alpha 90.00000
_cell_angle_beta  90.00000
_cell_angle_gamma 90.00000

_symmetry_space_group_name_	'P 1'
_symmetry_space_group_name_H-M	'P 1'

loop_
_symmetry_equiv_pos_as_xyz
  x,y,z

loop_
_atom_site_label
_atom_site_type_symbol
_atom_site_fract_x
_atom_site_fract_y
_atom_site_fract_z
_atom_site_charge
O 	O 	0.24560 0.33170 0.67900 -0.61800
C 	C 	0.10630 0.31970 0.68170 0.56100
O 	O 	0.00940 0.33690 0.65700 -0.67800
C 	C 	0.05140 0.28460 0.71760 -0.15600
C 	C 	0.15200 0.26490 0.74620 0.01300
C 	C 	0.10140 0.22880 0.77810 0.00300
O 	O 	0.24730 0.45690 0.63340 -0.65300
C 	C 	0.25970 0.59150 0.62470 0.01100
H 	H 	0.25570 0.27570 0.74360 0.04400
H 	H 	0.17250 0.21440 0.79700 0.03300
H 	H 	0.35260 0.56870 0.62600 0.03900
O 	O 	0.24560 0.83170 0.17900 -0.61700
C 	C 	0.10630 0.81970 0.18170 0.55700
O 	O 	0.00940 0.83690 0.15700 -0.67600
C 	C 	0.05140 0.78460 0.21760 -0.14300
C 	C 	0.15200 0.76490 0.24620 0.00100
C 	C 	0.10140 0.72880 0.27810 0.01900
O 	O 	0.24730 0.95690 0.13340 -0.65300
C 	C 	0.25970 0.09150 0.12470 0.01500
H 	H 	0.25570 0.77570 0.24360 0.04900
H 	H 	0.17250 0.71440 0.29700 0.03000
H 	H 	0.35260 0.06870 0.12600 0.03800
O 	O 	0.74560 0.33170 0.17900 -0.61700
C 	C 	0.60630 0.31970 0.18170 0.56000
O 	O 	0.50940 0.33690 0.15700 -0.67700
C 	C 	0.55140 0.28460 0.21760 -0.14900
C 	C 	0.65200 0.26490 0.24620 0.00800
C 	C 	0.60140 0.22880 0.27810 0.01300
O 	O 	0.74730 0.45690 0.13340 -0.65300
C 	C 	0.75970 0.59150 0.12470 0.01100
H 	H 	0.75570 0.27570 0.24360 0.04700
H 	H 	0.67250 0.21440 0.29700 0.03200
H 	H 	0.85260 0.56870 0.12600 0.03900
O 	O 	0.74560 0.83170 0.67900 -0.61700
C 	C 	0.60630 0.81970 0.68170 0.56000
O 	O 	0.50940 0.83690 0.65700 -0.67700
C 	C 	0.55140 0.78460 0.71760 -0.15000
C 	C 	0.65200 0.76490 0.74620 0.00800
C 	C 	0.60140 0.72880 0.77810 0.01200
O 	O 	0.74730 0.95690 0.63340 -0.65300
C 	C 	0.75970 0.09150 0.62470 0.01100
H 	H 	0.75570 0.77570 0.74360 0.04700
H 	H 	0.67250 0.71440 0.79700 0.03200
H 	H 	0.85260 0.06870 0.62600 0.04000
O 	O 	0.50440 0.41830 0.67900 -0.61600
C 	C 	0.64370 0.43030 0.68170 0.56000
O 	O 	0.74060 0.41310 0.65700 -0.67700
C 	C 	0.69860 0.46540 0.71760 -0.14900
C 	C 	0.59800 0.48510 0.74620 0.00800
C 	C 	0.64860 0.52120 0.77810 0.01300
O 	O 	0.50270 0.29310 0.63340 -0.65200
C 	C 	0.49030 0.15850 0.62470 0.01200
H 	H 	0.49430 0.47430 0.74360 0.04700
H 	H 	0.57750 0.53560 0.79700 0.03200
H 	H 	0.39740 0.18130 0.62600 0.03900
O 	O 	0.50440 0.91830 0.17900 -0.61600
C 	C 	0.64370 0.93030 0.18170 0.55700
O 	O 	0.74060 0.91310 0.15700 -0.67700
C 	C 	0.69860 0.96540 0.21760 -0.14200
C 	C 	0.59800 0.98510 0.24620 -0.00000
C 	C 	0.64860 0.02120 0.27810 0.02100
O 	O 	0.50270 0.79310 0.13340 -0.65200
C 	C 	0.49030 0.65850 0.12470 0.01100
H 	H 	0.49430 0.97430 0.24360 0.05000
H 	H 	0.57750 0.03560 0.29700 0.02900
H 	H 	0.39740 0.68130 0.12600 0.04000
O 	O 	0.00440 0.41830 0.17900 -0.61600
C 	C 	0.14370 0.43030 0.18170 0.56000
O 	O 	0.24060 0.41310 0.15700 -0.67700
C 	C 	0.19860 0.46540 0.21760 -0.15000
C 	C 	0.09800 0.48510 0.24620 0.00900
C 	C 	0.14860 0.52120 0.27810 0.01200
O 	O 	0.00270 0.29310 0.13340 -0.65200
C 	C 	0.99030 0.15850 0.12470 0.00800
H 	H 	0.99430 0.47430 0.24360 0.04600
H 	H 	0.07750 0.53560 0.29700 0.03200
H 	H 	0.89740 0.18130 0.12600 0.04100
O 	O 	0.00440 0.91830 0.67900 -0.61600
C 	C 	0.14370 0.93030 0.68170 0.56300
O 	O 	0.24060 0.91310 0.65700 -0.67700
C 	C 	0.19860 0.96540 0.71760 -0.15700
C 	C 	0.09800 0.98510 0.74620 0.02400
C 	C 	0.14860 0.02120 0.77810 -0.00000
O 	O 	0.00270 0.79310 0.63340 -0.65100
C 	C 	0.99030 0.65850 0.62470 0.00800
H 	H 	0.99430 0.97430 0.74360 0.04000
H 	H 	0.07750 0.03560 0.79700 0.03500
H 	H 	0.89740 0.68130 0.62600 0.04000
O 	O 	0.50440 0.33170 0.07100 -0.61600
C 	C 	0.64370 0.31970 0.06830 0.55800
O 	O 	0.74060 0.33690 0.09300 -0.67700
C 	C 	0.69860 0.28460 0.03240 -0.14500
C 	C 	0.59800 0.26490 0.00380 0.00400
C 	C 	0.64860 0.22880 0.97190 0.01700
O 	O 	0.50270 0.45690 0.11660 -0.65200
C 	C 	0.49030 0.59150 0.12530 0.01100
H 	H 	0.49430 0.27570 0.00640 0.04800
H 	H 	0.57750 0.21440 0.95300 0.03000
H 	H 	0.39740 0.56870 0.12400 0.04000
O 	O 	0.50440 0.83170 0.57100 -0.61700
C 	C 	0.64370 0.81970 0.56830 0.56000
O 	O 	0.74060 0.83690 0.59300 -0.67800
C 	C 	0.69860 0.78460 0.53240 -0.15100
C 	C 	0.59800 0.76490 0.50380 0.01000
C 	C 	0.64860 0.72880 0.47190 0.01100
O 	O 	0.50270 0.95690 0.61660 -0.65200
C 	C 	0.49030 0.09150 0.62530 0.01100
H 	H 	0.49430 0.77570 0.50640 0.04700
H 	H 	0.57750 0.71440 0.45300 0.03200
H 	H 	0.39740 0.06870 0.62400 0.04000
O 	O 	0.00440 0.33170 0.57100 -0.61700
C 	C 	0.14370 0.31970 0.56830 0.55900
O 	O 	0.24060 0.33690 0.59300 -0.67700
C 	C 	0.19860 0.28460 0.53240 -0.14700
C 	C 	0.09800 0.26490 0.50380 0.00400
C 	C 	0.14860 0.22880 0.47190 0.01500
O 	O 	0.00270 0.45690 0.61660 -0.65200
C 	C 	0.99030 0.59150 0.62530 0.01100
H 	H 	0.99430 0.27570 0.50640 0.04900
H 	H 	0.07750 0.21440 0.45300 0.03000
H 	H 	0.89740 0.56870 0.62400 0.04000
O 	O 	0.00440 0.83170 0.07100 -0.61500
C 	C 	0.14370 0.81970 0.06830 0.56200
O 	O 	0.24060 0.83690 0.09300 -0.67700
C 	C 	0.19860 0.78460 0.03240 -0.15400
C 	C 	0.09800 0.76490 0.00380 0.01800
C 	C 	0.14860 0.72880 0.97190 0.00600
O 	O 	0.00270 0.95690 0.11660 -0.65100
C 	C 	0.99030 0.09150 0.12530 0.01600
H 	H 	0.99430 0.77570 0.00640 0.04200
H 	H 	0.07750 0.71440 0.95300 0.03400
H 	H 	0.89740 0.06870 0.12400 0.03800
O 	O 	0.24560 0.41830 0.07100 -0.61600
C 	C 	0.10630 0.43030 0.06830 0.55900
O 	O 	0.00940 0.41310 0.09300 -0.67600
C 	C 	0.05140 0.46540 0.03240 -0.14800
C 	C 	0.15200 0.48510 0.00380 0.00900
C 	C 	0.10140 0.52120 0.97190 0.01000
O 	O 	0.24730 0.29310 0.11660 -0.65200
C 	C 	0.25970 0.15850 0.12530 0.00800
H 	H 	0.25570 0.47430 0.00640 0.04700
H 	H 	0.17250 0.53560 0.95300 0.03200
H 	H 	0.35260 0.18130 0.12400 0.04100
O 	O 	0.24560 0.91830 0.57100 -0.61600
C 	C 	0.10630 0.93030 0.56830 0.55900
O 	O 	0.00940 0.91310 0.59300 -0.67500
C 	C 	0.05140 0.96540 0.53240 -0.14600
C 	C 	0.15200 0.98510 0.50380 0.01200
C 	C 	0.10140 0.02120 0.47190 0.00500
O 	O 	0.24730 0.79310 0.61660 -0.65200
C 	C 	0.25970 0.65850 0.62530 0.01000
H 	H 	0.25570 0.97430 0.50640 0.04600
H 	H 	0.17250 0.03560 0.45300 0.03400
H 	H 	0.35260 0.68130 0.62400 0.04000
O 	O 	0.74560 0.41830 0.57100 -0.61700
C 	C 	0.60630 0.43030 0.56830 0.56000
O 	O 	0.50940 0.41310 0.59300 -0.67700
C 	C 	0.55140 0.46540 0.53240 -0.14900
C 	C 	0.65200 0.48510 0.50380 0.00800
C 	C 	0.60140 0.52120 0.47190 0.01300
O 	O 	0.74730 0.29310 0.61660 -0.65200
C 	C 	0.75970 0.15850 0.62530 0.01200
H 	H 	0.75570 0.47430 0.50640 0.04700
H 	H 	0.67250 0.53560 0.45300 0.03200
H 	H 	0.85260 0.18130 0.62400 0.04000
O 	O 	0.74560 0.91830 0.07100 -0.61800
C 	C 	0.60630 0.93030 0.06830 0.56000
O 	O 	0.50940 0.91310 0.09300 -0.67700
C 	C 	0.55140 0.96540 0.03240 -0.15000
C 	C 	0.65200 0.98510 0.00380 0.00700
C 	C 	0.60140 0.02120 0.97190 0.01400
O 	O 	0.74730 0.79310 0.11660 -0.65300
C 	C 	0.75970 0.65850 0.12530 0.01100
H 	H 	0.75570 0.97430 0.00640 0.04700
H 	H 	0.67250 0.03560 0.95300 0.03200
H 	H 	0.85260 0.68130 0.12400 0.03900
O 	O 	0.75440 0.66830 0.32100 -0.61700
C 	C 	0.89370 0.68030 0.31830 0.56200
O 	O 	0.99060 0.66310 0.34300 -0.67700
C 	C 	0.94860 0.71540 0.28240 -0.15500
C 	C 	0.84800 0.73510 0.25380 0.01400
C 	C 	0.89860 0.77120 0.22190 0.00400
O 	O 	0.75270 0.54310 0.36660 -0.65200
C 	C 	0.74030 0.40850 0.37530 0.01200
H 	H 	0.74430 0.72430 0.25640 0.04500
H 	H 	0.82750 0.78560 0.20300 0.03400
H 	H 	0.64740 0.43130 0.37400 0.04000
O 	O 	0.75440 0.16830 0.82100 -0.61600
C 	C 	0.89370 0.18030 0.81830 0.55800
O 	O 	0.99060 0.16310 0.84300 -0.67500
C 	C 	0.94860 0.21540 0.78240 -0.14200
C 	C 	0.84800 0.23510 0.75380 0.00200
C 	C 	0.89860 0.27120 0.72190 0.01900
O 	O 	0.75270 0.04310 0.86660 -0.65300
C 	C 	0.74030 0.90850 0.87530 0.01500
H 	H 	0.74430 0.22430 0.75640 0.04900
H 	H 	0.82750 0.28560 0.70300 0.03000
H 	H 	0.64740 0.93130 0.87400 0.03800
O 	O 	0.25440 0.66830 0.82100 -0.61700
C 	C 	0.39370 0.68030 0.81830 0.56000
O 	O 	0.49060 0.66310 0.84300 -0.67700
C 	C 	0.44860 0.71540 0.78240 -0.14900
C 	C 	0.34800 0.73510 0.75380 0.00800
C 	C 	0.39860 0.77120 0.72190 0.01300
O 	O 	0.25270 0.54310 0.86660 -0.65300
C 	C 	0.24030 0.40850 0.87530 0.01100
H 	H 	0.24430 0.72430 0.75640 0.04700
H 	H 	0.32750 0.78560 0.70300 0.03200
H 	H 	0.14740 0.43130 0.87400 0.03900
O 	O 	0.25440 0.16830 0.32100 -0.61700
C 	C 	0.39370 0.18030 0.31830 0.56000
O 	O 	0.49060 0.16310 0.34300 -0.67700
C 	C 	0.44860 0.21540 0.28240 -0.15000
C 	C 	0.34800 0.23510 0.25380 0.00800
C 	C 	0.39860 0.27120 0.22190 0.01200
O 	O 	0.25270 0.04310 0.36660 -0.65300
C 	C 	0.24030 0.90850 0.37530 0.01100
H 	H 	0.24430 0.22430 0.25640 0.04700
H 	H 	0.32750 0.28560 0.20300 0.03200
H 	H 	0.14740 0.93130 0.37400 0.04000
O 	O 	0.49560 0.58170 0.32100 -0.61600
C 	C 	0.35630 0.56970 0.31830 0.56000
O 	O 	0.25940 0.58690 0.34300 -0.67700
C 	C 	0.30140 0.53460 0.28240 -0.14900
C 	C 	0.40200 0.51490 0.25380 0.00800
C 	C 	0.35140 0.47880 0.22190 0.01300
O 	O 	0.49730 0.70690 0.36660 -0.65200
C 	C 	0.50970 0.84150 0.37530 0.01200
H 	H 	0.50570 0.52570 0.25640 0.04700
H 	H 	0.42250 0.46440 0.20300 0.03200
H 	H 	0.60260 0.81870 0.37400 0.03900
O 	O 	0.49560 0.08170 0.82100 -0.61600
C 	C 	0.35630 0.06970 0.81830 0.55700
O 	O 	0.25940 0.08690 0.84300 -0.67700
C 	C 	0.30140 0.03460 0.78240 -0.14200
C 	C 	0.40200 0.01490 0.75380 -0.00000
C 	C 	0.35140 0.97880 0.72190 0.02100
O 	O 	0.49730 0.20690 0.86660 -0.65200
C 	C 	0.50970 0.34150 0.87530 0.01100
H 	H 	0.50570 0.02570 0.75640 0.05000
H 	H 	0.42250 0.96440 0.70300 0.02900
H 	H 	0.60260 0.31870 0.87400 0.04000
O 	O 	0.99560 0.58170 0.82100 -0.61600
C 	C 	0.85630 0.56970 0.81830 0.56000
O 	O 	0.75940 0.58690 0.84300 -0.67700
C 	C 	0.80140 0.53460 0.78240 -0.15000
C 	C 	0.90200 0.51490 0.75380 0.00900
C 	C 	0.85140 0.47880 0.72190 0.01200
O 	O 	0.99730 0.70690 0.86660 -0.65200
C 	C 	0.00970 0.84150 0.87530 0.00800
H 	H 	0.00570 0.52570 0.75640 0.04600
H 	H 	0.92250 0.46440 0.70300 0.03200
H 	H 	0.10260 0.81870 0.87400 0.04100
O 	O 	0.99560 0.08170 0.32100 -0.61600
C 	C 	0.85630 0.06970 0.31830 0.56300
O 	O 	0.75940 0.08690 0.34300 -0.67700
C 	C 	0.80140 0.03460 0.28240 -0.15700
C 	C 	0.90200 0.01490 0.25380 0.02400
C 	C 	0.85140 0.97880 0.22190 -0.00000
O 	O 	0.99730 0.20690 0.36660 -0.65100
C 	C 	0.00970 0.34150 0.37530 0.00800
H 	H 	0.00570 0.02570 0.25640 0.04000
H 	H 	0.92250 0.96440 0.20300 0.03500
H 	H 	0.10260 0.31870 0.37400 0.04000
O 	O 	0.49560 0.66830 0.92900 -0.61600
C 	C 	0.35630 0.68030 0.93170 0.55800
O 	O 	0.25940 0.66310 0.90700 -0.67700
C 	C 	0.30140 0.71540 0.96760 -0.14500
C 	C 	0.40200 0.73510 0.99620 0.00400
C 	C 	0.35140 0.77120 0.02810 0.01700
O 	O 	0.49730 0.54310 0.88340 -0.65200
C 	C 	0.50970 0.40850 0.87470 0.01100
H 	H 	0.50570 0.72430 0.99360 0.04800
H 	H 	0.42250 0.78560 0.04700 0.03000
H 	H 	0.60260 0.43130 0.87600 0.04000
O 	O 	0.49560 0.16830 0.42900 -0.61700
C 	C 	0.35630 0.18030 0.43170 0.56000
O 	O 	0.25940 0.16310 0.40700 -0.67800
C 	C 	0.30140 0.21540 0.46760 -0.15100
C 	C 	0.40200 0.23510 0.49620 0.01000
C 	C 	0.35140 0.27120 0.52810 0.01100
O 	O 	0.49730 0.04310 0.38340 -0.65200
C 	C 	0.50970 0.90850 0.37470 0.01100
H 	H 	0.50570 0.22430 0.49360 0.04700
H 	H 	0.42250 0.28560 0.54700 0.03200
H 	H 	0.60260 0.93130 0.37600 0.04000
O 	O 	0.99560 0.66830 0.42900 -0.61700
C 	C 	0.85630 0.68030 0.43170 0.55900
O 	O 	0.75940 0.66310 0.40700 -0.67700
C 	C 	0.80140 0.71540 0.46760 -0.14700
C 	C 	0.90200 0.73510 0.49620 0.00400
C 	C 	0.85140 0.77120 0.52810 0.01500
O 	O 	0.99730 0.54310 0.38340 -0.65200
C 	C 	0.00970 0.40850 0.37470 0.01100
H 	H 	0.00570 0.72430 0.49360 0.04900
H 	H 	0.92250 0.78560 0.54700 0.03000
H 	H 	0.10260 0.43130 0.37600 0.04000
O 	O 	0.99560 0.16830 0.92900 -0.61500
C 	C 	0.85630 0.18030 0.93170 0.56200
O 	O 	0.75940 0.16310 0.90700 -0.67700
C 	C 	0.80140 0.21540 0.96760 -0.15400
C 	C 	0.90200 0.23510 0.99620 0.01800
C 	C 	0.85140 0.27120 0.02810 0.00600
O 	O 	0.99730 0.04310 0.88340 -0.65100
C 	C 	0.00970 0.90850 0.87470 0.01600
H 	H 	0.00570 0.22430 0.99360 0.04200
H 	H 	0.92250 0.28560 0.04700 0.03400
H 	H 	0.10260 0.93130 0.87600 0.03800
O 	O 	0.75440 0.58170 0.92900 -0.61600
C 	C 	0.89370 0.56970 0.93170 0.55900
O 	O 	0.99060 0.58690 0.90700 -0.67600
C 	C 	0.94860 0.53460 0.96760 -0.14800
C 	C 	0.84800 0.51490 0.99620 0.00900
C 	C 	0.89860 0.47880 0.02810 0.01000
O 	O 	0.75270 0.70690 0.88340 -0.65200
C 	C 	0.74030 0.84150 0.87470 0.00800
H 	H 	0.74430 0.52570 0.99360 0.04700
H 	H 	0.82750 0.46440 0.04700 0.03200
H 	H 	0.64740 0.81870 0.87600 0.04100
O 	O 	0.75440 0.08170 0.42900 -0.61600
C 	C 	0.89370 0.06970 0.43170 0.55900
O 	O 	0.99060 0.08690 0.40700 -0.67500
C 	C 	0.94860 0.03460 0.46760 -0.14600
C 	C 	0.84800 0.01490 0.49620 0.01200
C 	C 	0.89860 0.97880 0.52810 0.00500
O 	O 	0.75270 0.20690 0.38340 -0.65200
C 	C 	0.74030 0.34150 0.37470 0.01000
H 	H 	0.74430 0.02570 0.49360 0.04600
H 	H 	0.82750 0.96440 0.54700 0.03400
H 	H 	0.64740 0.31870 0.37600 0.04000
O 	O 	0.25440 0.58170 0.42900 -0.61700
C 	C 	0.39370 0.56970 0.43170 0.56000
O 	O 	0.49060 0.58690 0.40700 -0.67700
C 	C 	0.44860 0.53460 0.46760 -0.14900
C 	C 	0.34800 0.51490 0.49620 0.00800
C 	C 	0.39860 0.47880 0.52810 0.01300
O 	O 	0.25270 0.70690 0.38340 -0.65200
C 	C 	0.24030 0.84150 0.37470 0.01200
H 	H 	0.24430 0.52570 0.49360 0.04700
H 	H 	0.32750 0.46440 0.54700 0.03200
H 	H 	0.14740 0.81870 0.37600 0.04000
O 	O 	0.25440 0.08170 0.92900 -0.61800
C 	C 	0.39370 0.06970 0.93170 0.56000
O 	O 	0.49060 0.08690 0.90700 -0.67700
C 	C 	0.44860 0.03460 0.96760 -0.15000
C 	C 	0.34800 0.01490 0.99620 0.00700
C 	C 	0.39860 0.97880 0.02810 0.01400
O 	O 	0.25270 0.20690 0.88340 -0.65300
C 	C 	0.24030 0.34150 0.87470 0.01100
H 	H 	0.24430 0.02570 0.99360 0.04700
H 	H 	0.32750 0.96440 0.04700 0.03200
H 	H 	0.14740 0.31870 0.87600 0.03900
Sc	Sc	0.37500 0.37500 0.63495 2.35900
Sc	Sc	0.37500 0.87500 0.13495 2.35900
Sc	Sc	0.87500 0.37500 0.13495 2.35800
Sc	Sc	0.87500 0.87500 0.63495 2.35800
Sc	Sc	0.37500 0.37500 0.11505 2.35900
Sc	Sc	0.37500 0.87500 0.61505 2.35900
Sc	Sc	0.87500 0.37500 0.61505 2.35900
Sc	Sc	0.87500 0.87500 0.11505 2.35800
Sc	Sc	0.62500 0.62500 0.36505 2.35900
Sc	Sc	0.62500 0.12500 0.86505 2.35900
Sc	Sc	0.12500 0.62500 0.86505 2.35800
Sc	Sc	0.12500 0.12500 0.36505 2.35800
Sc	Sc	0.62500 0.62500 0.88495 2.35900
Sc	Sc	0.62500 0.12500 0.38495 2.35900
Sc	Sc	0.12500 0.62500 0.38495 2.35900
Sc	Sc	0.12500 0.12500 0.88495 2.35800
C 	C 	0.12500 0.48550 0.62500 0.56100
C 	C 	0.12500 0.55820 0.62500 -0.15000
C 	C 	0.12500 0.98550 0.12500 0.56500
C 	C 	0.12500 0.05820 0.12500 -0.15600
C 	C 	0.62500 0.98550 0.62500 0.56100
C 	C 	0.62500 0.05820 0.62500 -0.14900
C 	C 	0.62500 0.26450 0.62500 0.56200
C 	C 	0.62500 0.19180 0.62500 -0.15100
C 	C 	0.62500 0.76450 0.12500 0.56200
C 	C 	0.62500 0.69180 0.12500 -0.15100
C 	C 	0.62500 0.48550 0.12500 0.56200
C 	C 	0.62500 0.55820 0.12500 -0.15000
C 	C 	0.12500 0.26450 0.12500 0.56100
C 	C 	0.12500 0.19180 0.12500 -0.14900
C 	C 	0.12500 0.76450 0.62500 0.56100
C 	C 	0.12500 0.69180 0.62500 -0.14700
C 	C 	0.87500 0.51450 0.37500 0.56100
C 	C 	0.87500 0.44180 0.37500 -0.15000
C 	C 	0.87500 0.01450 0.87500 0.56500
C 	C 	0.87500 0.94180 0.87500 -0.15600
C 	C 	0.37500 0.73550 0.37500 0.56200
C 	C 	0.37500 0.80820 0.37500 -0.15100
C 	C 	0.37500 0.23550 0.87500 0.56200
C 	C 	0.37500 0.30820 0.87500 -0.15100
C 	C 	0.37500 0.51450 0.87500 0.56200
C 	C 	0.37500 0.44180 0.87500 -0.15000
C 	C 	0.37500 0.01450 0.37500 0.56100
C 	C 	0.37500 0.94180 0.37500 -0.14900
C 	C 	0.87500 0.73550 0.87500 0.56100
C 	C 	0.87500 0.80820 0.87500 -0.14900
C 	C 	0.87500 0.23550 0.37500 0.56100
C 	C 	0.87500 0.30820 0.37500 -0.14700
