data_crystal

_cell_length_a 8.86410
_cell_length_b 20.69800
_cell_length_c 34.22900
_cell_angle_alpha 90.00000
_cell_angle_beta  90.00000
_cell_angle_gamma 90.00000

_symmetry_space_group_name_	'P 1'
_symmetry_space_group_name_H-M	'P 1'

loop_
_symmetry_equiv_pos_as_xyz
  x,y,z

loop_
_atom_site_label
_atom_site_type_symbol
_atom_site_fract_x
_atom_site_fract_y
_atom_site_fract_z
_atom_site_charge
O 	O 	0.24100 0.33310 0.67910 -0.61100
C 	C 	0.10250 0.32040 0.68220 0.54900
O 	O 	0.00720 0.33610 0.65750 -0.66600
C 	C 	0.04970 0.28300 0.71720 -0.14900
C 	C 	0.14930 0.26510 0.74580 0.01300
C 	C 	0.10070 0.23120 0.77820 0.00400
O 	O 	0.24460 0.45760 0.63450 -0.64000
C 	C 	0.25850 0.59150 0.62560 0.00900
H 	H 	0.25300 0.27580 0.74320 0.04300
H 	H 	0.17180 0.21680 0.79700 0.03300
H 	H 	0.35140 0.56880 0.62690 0.03800
O 	O 	0.24100 0.83310 0.17910 -0.61100
C 	C 	0.10250 0.82040 0.18220 0.54500
O 	O 	0.00720 0.83610 0.15750 -0.66400
C 	C 	0.04970 0.78300 0.21720 -0.13900
C 	C 	0.14930 0.76510 0.24580 0.00200
C 	C 	0.10070 0.73120 0.27820 0.01600
O 	O 	0.24460 0.95760 0.13450 -0.64000
C 	C 	0.25850 0.09150 0.12560 0.01100
H 	H 	0.25300 0.77580 0.24320 0.04600
H 	H 	0.17180 0.71680 0.29700 0.02900
H 	H 	0.35140 0.06880 0.12690 0.03700
O 	O 	0.74100 0.33310 0.17910 -0.61200
C 	C 	0.60250 0.32040 0.18220 0.54700
O 	O 	0.50720 0.33610 0.15750 -0.66600
C 	C 	0.54970 0.28300 0.21720 -0.14500
C 	C 	0.64930 0.26510 0.24580 0.00700
C 	C 	0.60070 0.23120 0.27820 0.01100
O 	O 	0.74460 0.45760 0.13450 -0.64000
C 	C 	0.75850 0.59150 0.12560 0.00800
H 	H 	0.75300 0.27580 0.24320 0.04500
H 	H 	0.67180 0.21680 0.29700 0.03100
H 	H 	0.85140 0.56880 0.12690 0.03800
O 	O 	0.74100 0.83310 0.67910 -0.61300
C 	C 	0.60250 0.82040 0.68220 0.54700
O 	O 	0.50720 0.83610 0.65750 -0.66600
C 	C 	0.54970 0.78300 0.71720 -0.14600
C 	C 	0.64930 0.76510 0.74580 0.00700
C 	C 	0.60070 0.73120 0.77820 0.01000
O 	O 	0.74460 0.95760 0.63450 -0.64100
C 	C 	0.75850 0.09150 0.62560 0.00800
H 	H 	0.75300 0.77580 0.74320 0.04400
H 	H 	0.67180 0.71680 0.79700 0.03100
H 	H 	0.85140 0.06880 0.62690 0.03900
O 	O 	0.50900 0.41690 0.67910 -0.61200
C 	C 	0.64750 0.42960 0.68220 0.54700
O 	O 	0.74280 0.41390 0.65750 -0.66600
C 	C 	0.70030 0.46700 0.71720 -0.14500
C 	C 	0.60070 0.48490 0.74580 0.00700
C 	C 	0.64930 0.51880 0.77820 0.01100
O 	O 	0.50540 0.29240 0.63450 -0.64000
C 	C 	0.49150 0.15850 0.62560 0.00900
H 	H 	0.49700 0.47420 0.74320 0.04500
H 	H 	0.57820 0.53320 0.79700 0.03100
H 	H 	0.39860 0.18120 0.62690 0.03800
O 	O 	0.50900 0.91690 0.17910 -0.61100
C 	C 	0.64750 0.92960 0.18220 0.54400
O 	O 	0.74280 0.91390 0.15750 -0.66700
C 	C 	0.70030 0.96700 0.21720 -0.13900
C 	C 	0.60070 0.98490 0.24580 -0.00100
C 	C 	0.64930 0.01880 0.27820 0.01800
O 	O 	0.50540 0.79240 0.13450 -0.64000
C 	C 	0.49150 0.65850 0.12560 0.00900
H 	H 	0.49700 0.97420 0.24320 0.04700
H 	H 	0.57820 0.03320 0.29700 0.02800
H 	H 	0.39860 0.68120 0.12690 0.03900
O 	O 	0.00900 0.41690 0.17910 -0.61200
C 	C 	0.14750 0.42960 0.18220 0.54700
O 	O 	0.24280 0.41390 0.15750 -0.66600
C 	C 	0.20030 0.46700 0.21720 -0.14600
C 	C 	0.10070 0.48490 0.24580 0.00800
C 	C 	0.14930 0.51880 0.27820 0.01000
O 	O 	0.00540 0.29240 0.13450 -0.64000
C 	C 	0.99150 0.15850 0.12560 0.00700
H 	H 	0.99700 0.47420 0.24320 0.04400
H 	H 	0.07820 0.53320 0.29700 0.03100
H 	H 	0.89860 0.18120 0.12690 0.03900
O 	O 	0.00900 0.91690 0.67910 -0.61100
C 	C 	0.14750 0.92960 0.68220 0.54900
O 	O 	0.24280 0.91390 0.65750 -0.66700
C 	C 	0.20030 0.96700 0.71720 -0.15300
C 	C 	0.10070 0.98490 0.74580 0.02100
C 	C 	0.14930 0.01880 0.77820 -0.00100
O 	O 	0.00540 0.79240 0.63450 -0.63800
C 	C 	0.99150 0.65850 0.62560 0.00600
H 	H 	0.99700 0.97420 0.74320 0.03800
H 	H 	0.07820 0.03320 0.79700 0.03300
H 	H 	0.89860 0.68120 0.62690 0.03900
O 	O 	0.50900 0.33310 0.07090 -0.61200
C 	C 	0.64750 0.32040 0.06780 0.54500
O 	O 	0.74280 0.33610 0.09250 -0.66600
C 	C 	0.70030 0.28300 0.03280 -0.14200
C 	C 	0.60070 0.26510 0.00420 0.00300
C 	C 	0.64930 0.23120 0.97180 0.01400
O 	O 	0.50540 0.45760 0.11550 -0.64000
C 	C 	0.49150 0.59150 0.12440 0.00900
H 	H 	0.49700 0.27580 0.00680 0.04600
H 	H 	0.57820 0.21680 0.95300 0.03000
H 	H 	0.39860 0.56880 0.12310 0.03900
O 	O 	0.50900 0.83310 0.57090 -0.61200
C 	C 	0.64750 0.82040 0.56780 0.54700
O 	O 	0.74280 0.83610 0.59250 -0.66700
C 	C 	0.70030 0.78300 0.53280 -0.14700
C 	C 	0.60070 0.76510 0.50420 0.00800
C 	C 	0.64930 0.73120 0.47180 0.00900
O 	O 	0.50540 0.95760 0.61550 -0.63900
C 	C 	0.49150 0.09150 0.62440 0.00800
H 	H 	0.49700 0.77580 0.50680 0.04400
H 	H 	0.57820 0.71680 0.45300 0.03100
H 	H 	0.39860 0.06880 0.62310 0.03800
O 	O 	0.00900 0.33310 0.57090 -0.61200
C 	C 	0.14750 0.32040 0.56780 0.54600
O 	O 	0.24280 0.33610 0.59250 -0.66600
C 	C 	0.20030 0.28300 0.53280 -0.14400
C 	C 	0.10070 0.26510 0.50420 0.00300
C 	C 	0.14930 0.23120 0.47180 0.01300
O 	O 	0.00540 0.45760 0.61550 -0.63900
C 	C 	0.99150 0.59150 0.62440 0.00800
H 	H 	0.99700 0.27580 0.50680 0.04700
H 	H 	0.07820 0.21680 0.45300 0.02900
H 	H 	0.89860 0.56880 0.62310 0.03800
O 	O 	0.00900 0.83310 0.07090 -0.61100
C 	C 	0.14750 0.82040 0.06780 0.54800
O 	O 	0.24280 0.83610 0.09250 -0.66600
C 	C 	0.20030 0.78300 0.03280 -0.15000
C 	C 	0.10070 0.76510 0.00420 0.01600
C 	C 	0.14930 0.73120 0.97180 0.00400
O 	O 	0.00540 0.95760 0.11550 -0.63900
C 	C 	0.99150 0.09150 0.12440 0.01300
H 	H 	0.99700 0.77580 0.00680 0.04000
H 	H 	0.07820 0.71680 0.95300 0.03300
H 	H 	0.89860 0.06880 0.12310 0.03700
O 	O 	0.24100 0.41690 0.07090 -0.61200
C 	C 	0.10250 0.42960 0.06780 0.54600
O 	O 	0.00720 0.41390 0.09250 -0.66600
C 	C 	0.04970 0.46700 0.03280 -0.14400
C 	C 	0.14930 0.48490 0.00420 0.00800
C 	C 	0.10070 0.51880 0.97180 0.00800
O 	O 	0.24460 0.29240 0.11550 -0.64000
C 	C 	0.25850 0.15850 0.12440 0.00700
H 	H 	0.25300 0.47420 0.00680 0.04500
H 	H 	0.17180 0.53320 0.95300 0.03100
H 	H 	0.35140 0.18120 0.12310 0.03900
O 	O 	0.24100 0.91690 0.57090 -0.61100
C 	C 	0.10250 0.92960 0.56780 0.54600
O 	O 	0.00720 0.91390 0.59250 -0.66500
C 	C 	0.04970 0.96700 0.53280 -0.14200
C 	C 	0.14930 0.98490 0.50420 0.01100
C 	C 	0.10070 0.01880 0.47180 0.00300
O 	O 	0.24460 0.79240 0.61550 -0.63900
C 	C 	0.25850 0.65850 0.62440 0.00800
H 	H 	0.25300 0.97420 0.50680 0.04400
H 	H 	0.17180 0.03320 0.45300 0.03300
H 	H 	0.35140 0.68120 0.62310 0.03900
O 	O 	0.74100 0.41690 0.57090 -0.61200
C 	C 	0.60250 0.42960 0.56780 0.54700
O 	O 	0.50720 0.41390 0.59250 -0.66600
C 	C 	0.54970 0.46700 0.53280 -0.14500
C 	C 	0.64930 0.48490 0.50420 0.00700
C 	C 	0.60070 0.51880 0.47180 0.01000
O 	O 	0.74460 0.29240 0.61550 -0.64000
C 	C 	0.75850 0.15850 0.62440 0.00900
H 	H 	0.75300 0.47420 0.50680 0.04500
H 	H 	0.67180 0.53320 0.45300 0.03100
H 	H 	0.85140 0.18120 0.62310 0.03900
O 	O 	0.74100 0.91690 0.07090 -0.61300
C 	C 	0.60250 0.92960 0.06780 0.54700
O 	O 	0.50720 0.91390 0.09250 -0.66600
C 	C 	0.54970 0.96700 0.03280 -0.14600
C 	C 	0.64930 0.98490 0.00420 0.00600
C 	C 	0.60070 0.01880 0.97180 0.01200
O 	O 	0.74460 0.79240 0.11550 -0.64100
C 	C 	0.75850 0.65850 0.12440 0.00900
H 	H 	0.75300 0.97420 0.00680 0.04400
H 	H 	0.67180 0.03320 0.95300 0.03100
H 	H 	0.85140 0.68120 0.12310 0.03800
O 	O 	0.75900 0.66690 0.32090 -0.61200
C 	C 	0.89750 0.67960 0.31780 0.54800
O 	O 	0.99280 0.66390 0.34250 -0.66700
C 	C 	0.95030 0.71700 0.28280 -0.15000
C 	C 	0.85070 0.73490 0.25420 0.01200
C 	C 	0.89930 0.76880 0.22180 0.00300
O 	O 	0.75540 0.54240 0.36550 -0.64000
C 	C 	0.74150 0.40850 0.37440 0.00900
H 	H 	0.74700 0.72420 0.25680 0.04300
H 	H 	0.82820 0.78320 0.20300 0.03300
H 	H 	0.64860 0.43120 0.37310 0.03800
O 	O 	0.75900 0.16690 0.82090 -0.61100
C 	C 	0.89750 0.17960 0.81780 0.54500
O 	O 	0.99280 0.16390 0.84250 -0.66400
C 	C 	0.95030 0.21700 0.78280 -0.13900
C 	C 	0.85070 0.23490 0.75420 0.00200
C 	C 	0.89930 0.26880 0.72180 0.01600
O 	O 	0.75540 0.04240 0.86550 -0.64000
C 	C 	0.74150 0.90850 0.87440 0.01100
H 	H 	0.74700 0.22420 0.75680 0.04600
H 	H 	0.82820 0.28320 0.70300 0.02900
H 	H 	0.64860 0.93120 0.87310 0.03700
O 	O 	0.25900 0.66690 0.82090 -0.61200
C 	C 	0.39750 0.67960 0.81780 0.54700
O 	O 	0.49280 0.66390 0.84250 -0.66600
C 	C 	0.45030 0.71700 0.78280 -0.14500
C 	C 	0.35070 0.73490 0.75420 0.00700
C 	C 	0.39930 0.76880 0.72180 0.01100
O 	O 	0.25540 0.54240 0.86550 -0.64000
C 	C 	0.24150 0.40850 0.87440 0.00800
H 	H 	0.24700 0.72420 0.75680 0.04500
H 	H 	0.32820 0.78320 0.70300 0.03100
H 	H 	0.14860 0.43120 0.87310 0.03800
O 	O 	0.25900 0.16690 0.32090 -0.61300
C 	C 	0.39750 0.17960 0.31780 0.54700
O 	O 	0.49280 0.16390 0.34250 -0.66600
C 	C 	0.45030 0.21700 0.28280 -0.14600
C 	C 	0.35070 0.23490 0.25420 0.00700
C 	C 	0.39930 0.26880 0.22180 0.01000
O 	O 	0.25540 0.04240 0.36550 -0.64100
C 	C 	0.24150 0.90850 0.37440 0.00800
H 	H 	0.24700 0.22420 0.25680 0.04400
H 	H 	0.32820 0.28320 0.20300 0.03100
H 	H 	0.14860 0.93120 0.37310 0.03900
O 	O 	0.49100 0.58310 0.32090 -0.61200
C 	C 	0.35250 0.57040 0.31780 0.54700
O 	O 	0.25720 0.58610 0.34250 -0.66600
C 	C 	0.29970 0.53300 0.28280 -0.14500
C 	C 	0.39930 0.51510 0.25420 0.00700
C 	C 	0.35070 0.48120 0.22180 0.01100
O 	O 	0.49460 0.70760 0.36550 -0.64000
C 	C 	0.50850 0.84150 0.37440 0.00900
H 	H 	0.50300 0.52580 0.25680 0.04500
H 	H 	0.42180 0.46680 0.20300 0.03100
H 	H 	0.60140 0.81880 0.37310 0.03800
O 	O 	0.49100 0.08310 0.82090 -0.61100
C 	C 	0.35250 0.07040 0.81780 0.54400
O 	O 	0.25720 0.08610 0.84250 -0.66700
C 	C 	0.29970 0.03300 0.78280 -0.13900
C 	C 	0.39930 0.01510 0.75420 -0.00100
C 	C 	0.35070 0.98120 0.72180 0.01800
O 	O 	0.49460 0.20760 0.86550 -0.64000
C 	C 	0.50850 0.34150 0.87440 0.00900
H 	H 	0.50300 0.02580 0.75680 0.04700
H 	H 	0.42180 0.96680 0.70300 0.02800
H 	H 	0.60140 0.31880 0.87310 0.03900
O 	O 	0.99100 0.58310 0.82090 -0.61200
C 	C 	0.85250 0.57040 0.81780 0.54700
O 	O 	0.75720 0.58610 0.84250 -0.66600
C 	C 	0.79970 0.53300 0.78280 -0.14600
C 	C 	0.89930 0.51510 0.75420 0.00800
C 	C 	0.85070 0.48120 0.72180 0.01000
O 	O 	0.99460 0.70760 0.86550 -0.64000
C 	C 	0.00850 0.84150 0.87440 0.00700
H 	H 	0.00300 0.52580 0.75680 0.04400
H 	H 	0.92180 0.46680 0.70300 0.03100
H 	H 	0.10140 0.81880 0.87310 0.03900
O 	O 	0.99100 0.08310 0.32090 -0.61100
C 	C 	0.85250 0.07040 0.31780 0.54900
O 	O 	0.75720 0.08610 0.34250 -0.66700
C 	C 	0.79970 0.03300 0.28280 -0.15300
C 	C 	0.89930 0.01510 0.25420 0.02100
C 	C 	0.85070 0.98120 0.22180 -0.00100
O 	O 	0.99460 0.20760 0.36550 -0.63800
C 	C 	0.00850 0.34150 0.37440 0.00600
H 	H 	0.00300 0.02580 0.25680 0.03800
H 	H 	0.92180 0.96680 0.20300 0.03300
H 	H 	0.10140 0.31880 0.37310 0.03900
O 	O 	0.49100 0.66690 0.92910 -0.61200
C 	C 	0.35250 0.67960 0.93220 0.54500
O 	O 	0.25720 0.66390 0.90750 -0.66600
C 	C 	0.29970 0.71700 0.96720 -0.14200
C 	C 	0.39930 0.73490 0.99580 0.00300
C 	C 	0.35070 0.76880 0.02820 0.01400
O 	O 	0.49460 0.54240 0.88450 -0.64000
C 	C 	0.50850 0.40850 0.87560 0.00900
H 	H 	0.50300 0.72420 0.99320 0.04600
H 	H 	0.42180 0.78320 0.04700 0.03000
H 	H 	0.60140 0.43120 0.87690 0.03900
O 	O 	0.49100 0.16690 0.42910 -0.61200
C 	C 	0.35250 0.17960 0.43220 0.54700
O 	O 	0.25720 0.16390 0.40750 -0.66700
C 	C 	0.29970 0.21700 0.46720 -0.14700
C 	C 	0.39930 0.23490 0.49580 0.00800
C 	C 	0.35070 0.26880 0.52820 0.00900
O 	O 	0.49460 0.04240 0.38450 -0.63900
C 	C 	0.50850 0.90850 0.37560 0.00800
H 	H 	0.50300 0.22420 0.49320 0.04400
H 	H 	0.42180 0.28320 0.54700 0.03100
H 	H 	0.60140 0.93120 0.37690 0.03800
O 	O 	0.99100 0.66690 0.42910 -0.61200
C 	C 	0.85250 0.67960 0.43220 0.54600
O 	O 	0.75720 0.66390 0.40750 -0.66600
C 	C 	0.79970 0.71700 0.46720 -0.14400
C 	C 	0.89930 0.73490 0.49580 0.00300
C 	C 	0.85070 0.76880 0.52820 0.01300
O 	O 	0.99460 0.54240 0.38450 -0.63900
C 	C 	0.00850 0.40850 0.37560 0.00800
H 	H 	0.00300 0.72420 0.49320 0.04700
H 	H 	0.92180 0.78320 0.54700 0.02900
H 	H 	0.10140 0.43120 0.37690 0.03800
O 	O 	0.99100 0.16690 0.92910 -0.61100
C 	C 	0.85250 0.17960 0.93220 0.54800
O 	O 	0.75720 0.16390 0.90750 -0.66600
C 	C 	0.79970 0.21700 0.96720 -0.15000
C 	C 	0.89930 0.23490 0.99580 0.01600
C 	C 	0.85070 0.26880 0.02820 0.00400
O 	O 	0.99460 0.04240 0.88450 -0.63900
C 	C 	0.00850 0.90850 0.87560 0.01300
H 	H 	0.00300 0.22420 0.99320 0.04000
H 	H 	0.92180 0.28320 0.04700 0.03300
H 	H 	0.10140 0.93120 0.87690 0.03700
O 	O 	0.75900 0.58310 0.92910 -0.61200
C 	C 	0.89750 0.57040 0.93220 0.54600
O 	O 	0.99280 0.58610 0.90750 -0.66600
C 	C 	0.95030 0.53300 0.96720 -0.14400
C 	C 	0.85070 0.51510 0.99580 0.00800
C 	C 	0.89930 0.48120 0.02820 0.00800
O 	O 	0.75540 0.70760 0.88450 -0.64000
C 	C 	0.74150 0.84150 0.87560 0.00700
H 	H 	0.74700 0.52580 0.99320 0.04500
H 	H 	0.82820 0.46680 0.04700 0.03100
H 	H 	0.64860 0.81880 0.87690 0.03900
O 	O 	0.75900 0.08310 0.42910 -0.61100
C 	C 	0.89750 0.07040 0.43220 0.54600
O 	O 	0.99280 0.08610 0.40750 -0.66500
C 	C 	0.95030 0.03300 0.46720 -0.14200
C 	C 	0.85070 0.01510 0.49580 0.01100
C 	C 	0.89930 0.98120 0.52820 0.00300
O 	O 	0.75540 0.20760 0.38450 -0.63900
C 	C 	0.74150 0.34150 0.37560 0.00800
H 	H 	0.74700 0.02580 0.49320 0.04400
H 	H 	0.82820 0.96680 0.54700 0.03300
H 	H 	0.64860 0.31880 0.37690 0.03900
O 	O 	0.25900 0.58310 0.42910 -0.61200
C 	C 	0.39750 0.57040 0.43220 0.54700
O 	O 	0.49280 0.58610 0.40750 -0.66600
C 	C 	0.45030 0.53300 0.46720 -0.14500
C 	C 	0.35070 0.51510 0.49580 0.00700
C 	C 	0.39930 0.48120 0.52820 0.01000
O 	O 	0.25540 0.70760 0.38450 -0.64000
C 	C 	0.24150 0.84150 0.37560 0.00900
H 	H 	0.24700 0.52580 0.49320 0.04500
H 	H 	0.32820 0.46680 0.54700 0.03100
H 	H 	0.14860 0.81880 0.37690 0.03900
O 	O 	0.25900 0.08310 0.92910 -0.61300
C 	C 	0.39750 0.07040 0.93220 0.54700
O 	O 	0.49280 0.08610 0.90750 -0.66600
C 	C 	0.45030 0.03300 0.96720 -0.14600
C 	C 	0.35070 0.01510 0.99580 0.00600
C 	C 	0.39930 0.98120 0.02820 0.01200
O 	O 	0.25540 0.20760 0.88450 -0.64100
C 	C 	0.24150 0.34150 0.87560 0.00900
H 	H 	0.24700 0.02580 0.99320 0.04400
H 	H 	0.32820 0.96680 0.04700 0.03100
H 	H 	0.14860 0.31880 0.87690 0.03800
Sc	Sc	0.37500 0.37500 0.63544 2.35100
Sc	Sc	0.37500 0.87500 0.13544 2.35100
Sc	Sc	0.87500 0.37500 0.13544 2.35100
Sc	Sc	0.87500 0.87500 0.63544 2.35100
Sc	Sc	0.37500 0.37500 0.11456 2.35100
Sc	Sc	0.37500 0.87500 0.61456 2.35100
Sc	Sc	0.87500 0.37500 0.61456 2.35100
Sc	Sc	0.87500 0.87500 0.11456 2.35100
Sc	Sc	0.62500 0.62500 0.36456 2.35100
Sc	Sc	0.62500 0.12500 0.86456 2.35100
Sc	Sc	0.12500 0.62500 0.86456 2.35100
Sc	Sc	0.12500 0.12500 0.36456 2.35100
Sc	Sc	0.62500 0.62500 0.88544 2.35100
Sc	Sc	0.62500 0.12500 0.38544 2.35100
Sc	Sc	0.12500 0.62500 0.38544 2.35100
Sc	Sc	0.12500 0.12500 0.88544 2.35100
C 	C 	0.12500 0.48580 0.62500 0.54700
C 	C 	0.12500 0.55800 0.62500 -0.14400
C 	C 	0.12500 0.98580 0.12500 0.55000
C 	C 	0.12500 0.05800 0.12500 -0.15000
C 	C 	0.62500 0.98580 0.62500 0.54600
C 	C 	0.62500 0.05800 0.62500 -0.14400
C 	C 	0.62500 0.26420 0.62500 0.54700
C 	C 	0.62500 0.19200 0.62500 -0.14500
C 	C 	0.62500 0.76420 0.12500 0.54700
C 	C 	0.62500 0.69200 0.12500 -0.14500
C 	C 	0.62500 0.48580 0.12500 0.54700
C 	C 	0.62500 0.55800 0.12500 -0.14500
C 	C 	0.12500 0.26420 0.12500 0.54600
C 	C 	0.12500 0.19200 0.12500 -0.14400
C 	C 	0.12500 0.76420 0.62500 0.54600
C 	C 	0.12500 0.69200 0.62500 -0.14200
C 	C 	0.87500 0.51420 0.37500 0.54700
C 	C 	0.87500 0.44200 0.37500 -0.14400
C 	C 	0.87500 0.01420 0.87500 0.55000
C 	C 	0.87500 0.94200 0.87500 -0.15000
C 	C 	0.37500 0.73580 0.37500 0.54700
C 	C 	0.37500 0.80800 0.37500 -0.14500
C 	C 	0.37500 0.23580 0.87500 0.54700
C 	C 	0.37500 0.30800 0.87500 -0.14500
C 	C 	0.37500 0.51420 0.87500 0.54700
C 	C 	0.37500 0.44200 0.87500 -0.14500
C 	C 	0.37500 0.01420 0.37500 0.54600
C 	C 	0.37500 0.94200 0.37500 -0.14400
C 	C 	0.87500 0.73580 0.87500 0.54600
C 	C 	0.87500 0.80800 0.87500 -0.14400
C 	C 	0.87500 0.23580 0.37500 0.54600
C 	C 	0.87500 0.30800 0.37500 -0.14200
