data_crystal

_cell_length_a 8.85670
_cell_length_b 20.69300
_cell_length_c 34.24900
_cell_angle_alpha 90.00000
_cell_angle_beta  90.00000
_cell_angle_gamma 90.00000

_symmetry_space_group_name_	'P 1'
_symmetry_space_group_name_H-M	'P 1'

loop_
_symmetry_equiv_pos_as_xyz
  x,y,z

loop_
_atom_site_label
_atom_site_type_symbol
_atom_site_fract_x
_atom_site_fract_y
_atom_site_fract_z
_atom_site_charge
O 	O 	0.24040 0.33340 0.67940 -0.60600
C 	C 	0.10220 0.31990 0.68220 0.54400
O 	O 	0.00610 0.33520 0.65730 -0.66600
C 	C 	0.04970 0.28390 0.71750 -0.15000
C 	C 	0.15040 0.26240 0.74490 0.01300
C 	C 	0.10090 0.22910 0.77750 0.00500
O 	O 	0.24450 0.45760 0.63540 -0.63200
C 	C 	0.25850 0.59167 0.62520 0.00700
H 	H 	0.25410 0.27320 0.74230 0.04400
H 	H 	0.17200 0.21480 0.79640 0.03200
H 	H 	0.35140 0.56890 0.62650 0.03900
O 	O 	0.24040 0.83340 0.17940 -0.60600
C 	C 	0.10220 0.81990 0.18220 0.53900
O 	O 	0.00610 0.83520 0.15730 -0.66400
C 	C 	0.04970 0.78390 0.21750 -0.13900
C 	C 	0.15040 0.76240 0.24490 0.00200
C 	C 	0.10090 0.72910 0.27750 0.01700
O 	O 	0.24450 0.95760 0.13540 -0.63200
C 	C 	0.25850 0.09167 0.12520 0.01000
H 	H 	0.25410 0.77320 0.24230 0.04700
H 	H 	0.17200 0.71480 0.29640 0.02900
H 	H 	0.35140 0.06890 0.12650 0.03800
O 	O 	0.74040 0.33340 0.17940 -0.60700
C 	C 	0.60220 0.31990 0.18220 0.54100
O 	O 	0.50610 0.33520 0.15730 -0.66600
C 	C 	0.54970 0.28390 0.21750 -0.14600
C 	C 	0.65040 0.26240 0.24490 0.00700
C 	C 	0.60090 0.22910 0.27750 0.01200
O 	O 	0.74450 0.45760 0.13540 -0.63200
C 	C 	0.75850 0.59167 0.12520 0.00600
H 	H 	0.75410 0.27320 0.24230 0.04600
H 	H 	0.67200 0.21480 0.29640 0.03000
H 	H 	0.85140 0.56890 0.12650 0.03900
O 	O 	0.74040 0.83340 0.67940 -0.60700
C 	C 	0.60220 0.81990 0.68220 0.54100
O 	O 	0.50610 0.83520 0.65730 -0.66600
C 	C 	0.54970 0.78390 0.71750 -0.14600
C 	C 	0.65040 0.76240 0.74490 0.00700
C 	C 	0.60090 0.72910 0.77750 0.01100
O 	O 	0.74450 0.95760 0.63540 -0.63300
C 	C 	0.75850 0.09167 0.62520 0.00600
H 	H 	0.75410 0.77320 0.74230 0.04500
H 	H 	0.67200 0.71480 0.79640 0.03000
H 	H 	0.85140 0.06890 0.62650 0.04000
O 	O 	0.50960 0.41660 0.67940 -0.60600
C 	C 	0.64780 0.43010 0.68220 0.54100
O 	O 	0.74390 0.41480 0.65730 -0.66600
C 	C 	0.70030 0.46610 0.71750 -0.14500
C 	C 	0.59960 0.48760 0.74490 0.00600
C 	C 	0.64910 0.52090 0.77750 0.01200
O 	O 	0.50550 0.29240 0.63540 -0.63200
C 	C 	0.49150 0.15833 0.62520 0.00700
H 	H 	0.49590 0.47680 0.74230 0.04600
H 	H 	0.57800 0.53520 0.79640 0.03000
H 	H 	0.39860 0.18110 0.62650 0.03900
O 	O 	0.50960 0.91660 0.17940 -0.60600
C 	C 	0.64780 0.93010 0.18220 0.53900
O 	O 	0.74390 0.91480 0.15730 -0.66700
C 	C 	0.70030 0.96610 0.21750 -0.13900
C 	C 	0.59960 0.98760 0.24490 -0.00100
C 	C 	0.64910 0.02090 0.27750 0.01900
O 	O 	0.50550 0.79240 0.13540 -0.63200
C 	C 	0.49150 0.65833 0.12520 0.00700
H 	H 	0.49590 0.97680 0.24230 0.04800
H 	H 	0.57800 0.03520 0.29640 0.02800
H 	H 	0.39860 0.68110 0.12650 0.03900
O 	O 	0.00960 0.41660 0.17940 -0.60600
C 	C 	0.14780 0.43010 0.18220 0.54100
O 	O 	0.24390 0.41480 0.15730 -0.66600
C 	C 	0.20030 0.46610 0.21750 -0.14600
C 	C 	0.09960 0.48760 0.24490 0.00800
C 	C 	0.14910 0.52090 0.27750 0.01100
O 	O 	0.00550 0.29240 0.13540 -0.63200
C 	C 	0.99150 0.15833 0.12520 0.00500
H 	H 	0.99590 0.47680 0.24230 0.04500
H 	H 	0.07800 0.53520 0.29640 0.03100
H 	H 	0.89860 0.18110 0.12650 0.04000
O 	O 	0.00960 0.91660 0.67940 -0.60600
C 	C 	0.14780 0.93010 0.68220 0.54400
O 	O 	0.24390 0.91480 0.65730 -0.66700
C 	C 	0.20030 0.96610 0.71750 -0.15300
C 	C 	0.09960 0.98760 0.74490 0.02100
C 	C 	0.14910 0.02090 0.77750 -0.00000
O 	O 	0.00550 0.79240 0.63540 -0.63100
C 	C 	0.99150 0.65833 0.62520 0.00400
H 	H 	0.99590 0.97680 0.74230 0.03900
H 	H 	0.07800 0.03520 0.79640 0.03300
H 	H 	0.89860 0.68110 0.62650 0.04000
O 	O 	0.50960 0.33340 0.07060 -0.60600
C 	C 	0.64780 0.31990 0.06780 0.54000
O 	O 	0.74390 0.33520 0.09270 -0.66600
C 	C 	0.70030 0.28390 0.03250 -0.14200
C 	C 	0.59960 0.26240 0.00510 0.00300
C 	C 	0.64910 0.22910 0.97250 0.01500
O 	O 	0.50550 0.45760 0.11460 -0.63200
C 	C 	0.49150 0.59167 0.12480 0.00700
H 	H 	0.49590 0.27320 0.00770 0.04700
H 	H 	0.57800 0.21480 0.95360 0.02900
H 	H 	0.39860 0.56890 0.12350 0.03900
O 	O 	0.50960 0.83340 0.57060 -0.60700
C 	C 	0.64780 0.81990 0.56780 0.54200
O 	O 	0.74390 0.83520 0.59270 -0.66700
C 	C 	0.70030 0.78390 0.53250 -0.14700
C 	C 	0.59960 0.76240 0.50510 0.00800
C 	C 	0.64910 0.72910 0.47250 0.01000
O 	O 	0.50550 0.95760 0.61460 -0.63200
C 	C 	0.49150 0.09167 0.62480 0.00600
H 	H 	0.49590 0.77320 0.50770 0.04500
H 	H 	0.57800 0.71480 0.45360 0.03100
H 	H 	0.39860 0.06890 0.62350 0.03900
O 	O 	0.00960 0.33340 0.57060 -0.60700
C 	C 	0.14780 0.31990 0.56780 0.54000
O 	O 	0.24390 0.33520 0.59270 -0.66600
C 	C 	0.20030 0.28390 0.53250 -0.14400
C 	C 	0.09960 0.26240 0.50510 0.00300
C 	C 	0.14910 0.22910 0.47250 0.01400
O 	O 	0.00550 0.45760 0.61460 -0.63200
C 	C 	0.99150 0.59167 0.62480 0.00600
H 	H 	0.99590 0.27320 0.50770 0.04800
H 	H 	0.07800 0.21480 0.45360 0.02900
H 	H 	0.89860 0.56890 0.62350 0.03900
O 	O 	0.00960 0.83340 0.07060 -0.60500
C 	C 	0.14780 0.81990 0.06780 0.54300
O 	O 	0.24390 0.83520 0.09270 -0.66700
C 	C 	0.20030 0.78390 0.03250 -0.15000
C 	C 	0.09960 0.76240 0.00510 0.01600
C 	C 	0.14910 0.72910 0.97250 0.00500
O 	O 	0.00550 0.95760 0.11460 -0.63100
C 	C 	0.99150 0.09167 0.12480 0.01100
H 	H 	0.99590 0.77320 0.00770 0.04100
H 	H 	0.07800 0.71480 0.95360 0.03200
H 	H 	0.89860 0.06890 0.12350 0.03800
O 	O 	0.24040 0.41660 0.07060 -0.60600
C 	C 	0.10220 0.43010 0.06780 0.54100
O 	O 	0.00610 0.41480 0.09270 -0.66600
C 	C 	0.04970 0.46610 0.03250 -0.14500
C 	C 	0.15040 0.48760 0.00510 0.00800
C 	C 	0.10090 0.52090 0.97250 0.00900
O 	O 	0.24450 0.29240 0.11460 -0.63200
C 	C 	0.25850 0.15833 0.12480 0.00500
H 	H 	0.25410 0.47680 0.00770 0.04500
H 	H 	0.17200 0.53520 0.95360 0.03100
H 	H 	0.35140 0.18110 0.12350 0.04000
O 	O 	0.24040 0.91660 0.57060 -0.60600
C 	C 	0.10220 0.93010 0.56780 0.54000
O 	O 	0.00610 0.91480 0.59270 -0.66500
C 	C 	0.04970 0.96610 0.53250 -0.14200
C 	C 	0.15040 0.98760 0.50510 0.01100
C 	C 	0.10090 0.02090 0.47250 0.00400
O 	O 	0.24450 0.79240 0.61460 -0.63100
C 	C 	0.25850 0.65833 0.62480 0.00600
H 	H 	0.25410 0.97680 0.50770 0.04500
H 	H 	0.17200 0.03520 0.45360 0.03200
H 	H 	0.35140 0.68110 0.62350 0.03900
O 	O 	0.74040 0.41660 0.57060 -0.60700
C 	C 	0.60220 0.43010 0.56780 0.54100
O 	O 	0.50610 0.41480 0.59270 -0.66600
C 	C 	0.54970 0.46610 0.53250 -0.14600
C 	C 	0.65040 0.48760 0.50510 0.00700
C 	C 	0.60090 0.52090 0.47250 0.01100
O 	O 	0.74450 0.29240 0.61460 -0.63200
C 	C 	0.75850 0.15833 0.62480 0.00700
H 	H 	0.75410 0.47680 0.50770 0.04600
H 	H 	0.67200 0.53520 0.45360 0.03000
H 	H 	0.85140 0.18110 0.62350 0.03900
O 	O 	0.74040 0.91660 0.07060 -0.60800
C 	C 	0.60220 0.93010 0.06780 0.54100
O 	O 	0.50610 0.91480 0.09270 -0.66600
C 	C 	0.54970 0.96610 0.03250 -0.14600
C 	C 	0.65040 0.98760 0.00510 0.00600
C 	C 	0.60090 0.02090 0.97250 0.01300
O 	O 	0.74450 0.79240 0.11460 -0.63300
C 	C 	0.75850 0.65833 0.12480 0.00700
H 	H 	0.75410 0.97680 0.00770 0.04500
H 	H 	0.67200 0.03520 0.95360 0.03000
H 	H 	0.85140 0.68110 0.12350 0.03800
O 	O 	0.75960 0.66660 0.32060 -0.60700
C 	C 	0.89780 0.68010 0.31780 0.54300
O 	O 	0.99390 0.66480 0.34270 -0.66700
C 	C 	0.95030 0.71610 0.28250 -0.15100
C 	C 	0.84960 0.73760 0.25510 0.01200
C 	C 	0.89910 0.77090 0.22250 0.00400
O 	O 	0.75550 0.54240 0.36460 -0.63200
C 	C 	0.74150 0.40833 0.37480 0.00700
H 	H 	0.74590 0.72680 0.25770 0.04400
H 	H 	0.82800 0.78520 0.20360 0.03200
H 	H 	0.64860 0.43110 0.37350 0.03900
O 	O 	0.75960 0.16660 0.82060 -0.60600
C 	C 	0.89780 0.18010 0.81780 0.53900
O 	O 	0.99390 0.16480 0.84270 -0.66400
C 	C 	0.95030 0.21610 0.78250 -0.13900
C 	C 	0.84960 0.23760 0.75510 0.00200
C 	C 	0.89910 0.27090 0.72250 0.01700
O 	O 	0.75550 0.04240 0.86460 -0.63200
C 	C 	0.74150 0.90833 0.87480 0.01000
H 	H 	0.74590 0.22680 0.75770 0.04700
H 	H 	0.82800 0.28520 0.70360 0.02900
H 	H 	0.64860 0.93110 0.87350 0.03800
O 	O 	0.25960 0.66660 0.82060 -0.60700
C 	C 	0.39780 0.68010 0.81780 0.54100
O 	O 	0.49390 0.66480 0.84270 -0.66600
C 	C 	0.45030 0.71610 0.78250 -0.14600
C 	C 	0.34960 0.73760 0.75510 0.00700
C 	C 	0.39910 0.77090 0.72250 0.01200
O 	O 	0.25550 0.54240 0.86460 -0.63200
C 	C 	0.24150 0.40833 0.87480 0.00600
H 	H 	0.24590 0.72680 0.75770 0.04600
H 	H 	0.32800 0.78520 0.70360 0.03000
H 	H 	0.14860 0.43110 0.87350 0.03900
O 	O 	0.25960 0.16660 0.32060 -0.60700
C 	C 	0.39780 0.18010 0.31780 0.54100
O 	O 	0.49390 0.16480 0.34270 -0.66600
C 	C 	0.45030 0.21610 0.28250 -0.14600
C 	C 	0.34960 0.23760 0.25510 0.00700
C 	C 	0.39910 0.27090 0.22250 0.01100
O 	O 	0.25550 0.04240 0.36460 -0.63300
C 	C 	0.24150 0.90833 0.37480 0.00600
H 	H 	0.24590 0.22680 0.25770 0.04500
H 	H 	0.32800 0.28520 0.20360 0.03000
H 	H 	0.14860 0.93110 0.37350 0.04000
O 	O 	0.49040 0.58340 0.32060 -0.60600
C 	C 	0.35220 0.56990 0.31780 0.54100
O 	O 	0.25610 0.58520 0.34270 -0.66600
C 	C 	0.29970 0.53390 0.28250 -0.14500
C 	C 	0.40040 0.51240 0.25510 0.00600
C 	C 	0.35090 0.47910 0.22250 0.01200
O 	O 	0.49450 0.70760 0.36460 -0.63200
C 	C 	0.50850 0.84167 0.37480 0.00700
H 	H 	0.50410 0.52320 0.25770 0.04600
H 	H 	0.42200 0.46480 0.20360 0.03000
H 	H 	0.60140 0.81890 0.37350 0.03900
O 	O 	0.49040 0.08340 0.82060 -0.60600
C 	C 	0.35220 0.06990 0.81780 0.53900
O 	O 	0.25610 0.08520 0.84270 -0.66700
C 	C 	0.29970 0.03390 0.78250 -0.13900
C 	C 	0.40040 0.01240 0.75510 -0.00100
C 	C 	0.35090 0.97910 0.72250 0.01900
O 	O 	0.49450 0.20760 0.86460 -0.63200
C 	C 	0.50850 0.34167 0.87480 0.00700
H 	H 	0.50410 0.02320 0.75770 0.04800
H 	H 	0.42200 0.96480 0.70360 0.02800
H 	H 	0.60140 0.31890 0.87350 0.03900
O 	O 	0.99040 0.58340 0.82060 -0.60600
C 	C 	0.85220 0.56990 0.81780 0.54100
O 	O 	0.75610 0.58520 0.84270 -0.66600
C 	C 	0.79970 0.53390 0.78250 -0.14600
C 	C 	0.90040 0.51240 0.75510 0.00800
C 	C 	0.85090 0.47910 0.72250 0.01100
O 	O 	0.99450 0.70760 0.86460 -0.63200
C 	C 	0.00850 0.84167 0.87480 0.00500
H 	H 	0.00410 0.52320 0.75770 0.04500
H 	H 	0.92200 0.46480 0.70360 0.03100
H 	H 	0.10140 0.81890 0.87350 0.04000
O 	O 	0.99040 0.08340 0.32060 -0.60600
C 	C 	0.85220 0.06990 0.31780 0.54400
O 	O 	0.75610 0.08520 0.34270 -0.66700
C 	C 	0.79970 0.03390 0.28250 -0.15300
C 	C 	0.90040 0.01240 0.25510 0.02100
C 	C 	0.85090 0.97910 0.22250 -0.00000
O 	O 	0.99450 0.20760 0.36460 -0.63100
C 	C 	0.00850 0.34167 0.37480 0.00400
H 	H 	0.00410 0.02320 0.25770 0.03900
H 	H 	0.92200 0.96480 0.20360 0.03300
H 	H 	0.10140 0.31890 0.37350 0.04000
O 	O 	0.49040 0.66660 0.92940 -0.60600
C 	C 	0.35220 0.68010 0.93220 0.54000
O 	O 	0.25610 0.66480 0.90730 -0.66600
C 	C 	0.29970 0.71610 0.96750 -0.14200
C 	C 	0.40040 0.73760 0.99490 0.00300
C 	C 	0.35090 0.77090 0.02750 0.01500
O 	O 	0.49450 0.54240 0.88540 -0.63200
C 	C 	0.50850 0.40833 0.87520 0.00700
H 	H 	0.50410 0.72680 0.99230 0.04700
H 	H 	0.42200 0.78520 0.04640 0.02900
H 	H 	0.60140 0.43110 0.87650 0.03900
O 	O 	0.49040 0.16660 0.42940 -0.60700
C 	C 	0.35220 0.18010 0.43220 0.54200
O 	O 	0.25610 0.16480 0.40730 -0.66700
C 	C 	0.29970 0.21610 0.46750 -0.14700
C 	C 	0.40040 0.23760 0.49490 0.00800
C 	C 	0.35090 0.27090 0.52750 0.01000
O 	O 	0.49450 0.04240 0.38540 -0.63200
C 	C 	0.50850 0.90833 0.37520 0.00600
H 	H 	0.50410 0.22680 0.49230 0.04500
H 	H 	0.42200 0.28520 0.54640 0.03100
H 	H 	0.60140 0.93110 0.37650 0.03900
O 	O 	0.99040 0.66660 0.42940 -0.60700
C 	C 	0.85220 0.68010 0.43220 0.54000
O 	O 	0.75610 0.66480 0.40730 -0.66600
C 	C 	0.79970 0.71610 0.46750 -0.14400
C 	C 	0.90040 0.73760 0.49490 0.00300
C 	C 	0.85090 0.77090 0.52750 0.01400
O 	O 	0.99450 0.54240 0.38540 -0.63200
C 	C 	0.00850 0.40833 0.37520 0.00600
H 	H 	0.00410 0.72680 0.49230 0.04800
H 	H 	0.92200 0.78520 0.54640 0.02900
H 	H 	0.10140 0.43110 0.37650 0.03900
O 	O 	0.99040 0.16660 0.92940 -0.60500
C 	C 	0.85220 0.18010 0.93220 0.54300
O 	O 	0.75610 0.16480 0.90730 -0.66700
C 	C 	0.79970 0.21610 0.96750 -0.15000
C 	C 	0.90040 0.23760 0.99490 0.01600
C 	C 	0.85090 0.27090 0.02750 0.00500
O 	O 	0.99450 0.04240 0.88540 -0.63100
C 	C 	0.00850 0.90833 0.87520 0.01100
H 	H 	0.00410 0.22680 0.99230 0.04100
H 	H 	0.92200 0.28520 0.04640 0.03200
H 	H 	0.10140 0.93110 0.87650 0.03800
O 	O 	0.75960 0.58340 0.92940 -0.60600
C 	C 	0.89780 0.56990 0.93220 0.54100
O 	O 	0.99390 0.58520 0.90730 -0.66600
C 	C 	0.95030 0.53390 0.96750 -0.14500
C 	C 	0.84960 0.51240 0.99490 0.00800
C 	C 	0.89910 0.47910 0.02750 0.00900
O 	O 	0.75550 0.70760 0.88540 -0.63200
C 	C 	0.74150 0.84167 0.87520 0.00500
H 	H 	0.74590 0.52320 0.99230 0.04500
H 	H 	0.82800 0.46480 0.04640 0.03100
H 	H 	0.64860 0.81890 0.87650 0.04000
O 	O 	0.75960 0.08340 0.42940 -0.60600
C 	C 	0.89780 0.06990 0.43220 0.54000
O 	O 	0.99390 0.08520 0.40730 -0.66500
C 	C 	0.95030 0.03390 0.46750 -0.14200
C 	C 	0.84960 0.01240 0.49490 0.01100
C 	C 	0.89910 0.97910 0.52750 0.00400
O 	O 	0.75550 0.20760 0.38540 -0.63100
C 	C 	0.74150 0.34167 0.37520 0.00600
H 	H 	0.74590 0.02320 0.49230 0.04500
H 	H 	0.82800 0.96480 0.54640 0.03200
H 	H 	0.64860 0.31890 0.37650 0.03900
O 	O 	0.25960 0.58340 0.42940 -0.60700
C 	C 	0.39780 0.56990 0.43220 0.54100
O 	O 	0.49390 0.58520 0.40730 -0.66600
C 	C 	0.45030 0.53390 0.46750 -0.14600
C 	C 	0.34960 0.51240 0.49490 0.00700
C 	C 	0.39910 0.47910 0.52750 0.01100
O 	O 	0.25550 0.70760 0.38540 -0.63200
C 	C 	0.24150 0.84167 0.37520 0.00700
H 	H 	0.24590 0.52320 0.49230 0.04600
H 	H 	0.32800 0.46480 0.54640 0.03000
H 	H 	0.14860 0.81890 0.37650 0.03900
O 	O 	0.25960 0.08340 0.92940 -0.60800
C 	C 	0.39780 0.06990 0.93220 0.54100
O 	O 	0.49390 0.08520 0.90730 -0.66600
C 	C 	0.45030 0.03390 0.96750 -0.14600
C 	C 	0.34960 0.01240 0.99490 0.00600
C 	C 	0.39910 0.97910 0.02750 0.01300
O 	O 	0.25550 0.20760 0.88540 -0.63300
C 	C 	0.24150 0.34167 0.87520 0.00700
H 	H 	0.24590 0.02320 0.99230 0.04500
H 	H 	0.32800 0.96480 0.04640 0.03000
H 	H 	0.14860 0.31890 0.87650 0.03800
Sc	Sc	0.37500 0.37500 0.63538 2.35000
Sc	Sc	0.37500 0.87500 0.13538 2.35000
Sc	Sc	0.87500 0.37500 0.13538 2.35000
Sc	Sc	0.87500 0.87500 0.63538 2.35000
Sc	Sc	0.37500 0.37500 0.11462 2.35000
Sc	Sc	0.37500 0.87500 0.61462 2.35000
Sc	Sc	0.87500 0.37500 0.61462 2.35000
Sc	Sc	0.87500 0.87500 0.11462 2.35000
Sc	Sc	0.62500 0.62500 0.36462 2.35000
Sc	Sc	0.62500 0.12500 0.86462 2.35000
Sc	Sc	0.12500 0.62500 0.86462 2.35000
Sc	Sc	0.12500 0.12500 0.36462 2.35000
Sc	Sc	0.62500 0.62500 0.88538 2.35000
Sc	Sc	0.62500 0.12500 0.38538 2.35000
Sc	Sc	0.12500 0.62500 0.38538 2.35000
Sc	Sc	0.12500 0.12500 0.88538 2.35000
C 	C 	0.12500 0.48610 0.62500 0.52600
C 	C 	0.12500 0.55840 0.62500 -0.13700
C 	C 	0.12500 0.98610 0.12500 0.52900
C 	C 	0.12500 0.05840 0.12500 -0.14300
C 	C 	0.62500 0.98610 0.62500 0.52500
C 	C 	0.62500 0.05840 0.62500 -0.13700
C 	C 	0.62500 0.26390 0.62500 0.52600
C 	C 	0.62500 0.19160 0.62500 -0.13800
C 	C 	0.62500 0.76390 0.12500 0.52600
C 	C 	0.62500 0.69160 0.12500 -0.13800
C 	C 	0.62500 0.48610 0.12500 0.52600
C 	C 	0.62500 0.55840 0.12500 -0.13700
C 	C 	0.12500 0.26390 0.12500 0.52500
C 	C 	0.12500 0.19160 0.12500 -0.13600
C 	C 	0.12500 0.76390 0.62500 0.52500
C 	C 	0.12500 0.69160 0.62500 -0.13500
C 	C 	0.87500 0.51390 0.37500 0.52600
C 	C 	0.87500 0.44160 0.37500 -0.13700
C 	C 	0.87500 0.01390 0.87500 0.52900
C 	C 	0.87500 0.94160 0.87500 -0.14300
C 	C 	0.37500 0.73610 0.37500 0.52600
C 	C 	0.37500 0.80840 0.37500 -0.13800
C 	C 	0.37500 0.23610 0.87500 0.52600
C 	C 	0.37500 0.30840 0.87500 -0.13800
C 	C 	0.37500 0.51390 0.87500 0.52600
C 	C 	0.37500 0.44160 0.87500 -0.13700
C 	C 	0.37500 0.01390 0.37500 0.52500
C 	C 	0.37500 0.94160 0.37500 -0.13700
C 	C 	0.87500 0.73610 0.87500 0.52500
C 	C 	0.87500 0.80840 0.87500 -0.13600
C 	C 	0.87500 0.23610 0.37500 0.52500
C 	C 	0.87500 0.30840 0.37500 -0.13500
