data_crystal

_cell_length_a 8.79770
_cell_length_b 20.73230
_cell_length_c 34.36520
_cell_angle_alpha 90.00000
_cell_angle_beta  90.00000
_cell_angle_gamma 90.00000

_symmetry_space_group_name_	'P 1'
_symmetry_space_group_name_H-M	'P 1'

loop_
_symmetry_equiv_pos_as_xyz
  x,y,z

loop_
_atom_site_label
_atom_site_type_symbol
_atom_site_fract_x
_atom_site_fract_y
_atom_site_fract_z
_atom_site_charge
O 	O 	0.24170 0.33272 0.67941 -0.60800
C 	C 	0.10220 0.31980 0.68245 0.54700
O 	O 	0.00620 0.33468 0.65749 -0.66500
C 	C 	0.05030 0.28430 0.71740 -0.15200
C 	C 	0.15240 0.26260 0.74495 0.01400
C 	C 	0.10330 0.22870 0.77735 0.00500
O 	O 	0.24470 0.45810 0.63527 -0.63500
C 	C 	0.25920 0.59220 0.62540 0.01000
H 	H 	0.25770 0.27110 0.74160 0.04500
H 	H 	0.17480 0.21400 0.79600 0.03300
H 	H 	0.35300 0.56910 0.62640 0.04000
O 	O 	0.24170 0.83272 0.17941 -0.60700
C 	C 	0.10220 0.81980 0.18245 0.54200
O 	O 	0.00620 0.83468 0.15749 -0.66400
C 	C 	0.05030 0.78430 0.21740 -0.14300
C 	C 	0.15240 0.76260 0.24495 0.00400
C 	C 	0.10330 0.72870 0.27735 0.01500
O 	O 	0.24470 0.95810 0.13527 -0.63600
C 	C 	0.25920 0.09220 0.12540 0.01200
H 	H 	0.25770 0.77110 0.24160 0.04700
H 	H 	0.17480 0.71400 0.29600 0.02900
H 	H 	0.35300 0.06910 0.12640 0.03800
O 	O 	0.74170 0.33272 0.17941 -0.60900
C 	C 	0.60220 0.31980 0.18245 0.54400
O 	O 	0.50620 0.33468 0.15749 -0.66600
C 	C 	0.55030 0.28430 0.21740 -0.14900
C 	C 	0.65240 0.26260 0.24495 0.00800
C 	C 	0.60330 0.22870 0.27735 0.01100
O 	O 	0.74470 0.45810 0.13527 -0.63600
C 	C 	0.75920 0.59220 0.12540 0.00900
H 	H 	0.75770 0.27110 0.24160 0.04500
H 	H 	0.67480 0.21400 0.29600 0.03100
H 	H 	0.85300 0.56910 0.12640 0.03900
O 	O 	0.74170 0.83272 0.67941 -0.60900
C 	C 	0.60220 0.81980 0.68245 0.54400
O 	O 	0.50620 0.83468 0.65749 -0.66600
C 	C 	0.55030 0.78430 0.71740 -0.14900
C 	C 	0.65240 0.76260 0.74495 0.00900
C 	C 	0.60330 0.72870 0.77735 0.01000
O 	O 	0.74470 0.95810 0.63527 -0.63700
C 	C 	0.75920 0.09220 0.62540 0.00800
H 	H 	0.75770 0.77110 0.74160 0.04500
H 	H 	0.67480 0.71400 0.79600 0.03100
H 	H 	0.85300 0.06910 0.62640 0.04000
O 	O 	0.50830 0.41728 0.67941 -0.60800
C 	C 	0.64780 0.43020 0.68245 0.54400
O 	O 	0.74380 0.41532 0.65749 -0.66600
C 	C 	0.69970 0.46570 0.71740 -0.14800
C 	C 	0.59760 0.48740 0.74495 0.00800
C 	C 	0.64670 0.52130 0.77735 0.01100
O 	O 	0.50530 0.29190 0.63527 -0.63600
C 	C 	0.49080 0.15780 0.62540 0.00900
H 	H 	0.49230 0.47890 0.74160 0.04500
H 	H 	0.57520 0.53600 0.79600 0.03100
H 	H 	0.39700 0.18090 0.62640 0.03900
O 	O 	0.50830 0.91728 0.17941 -0.60800
C 	C 	0.64780 0.93020 0.18245 0.54200
O 	O 	0.74380 0.91532 0.15749 -0.66600
C 	C 	0.69970 0.96570 0.21740 -0.14300
C 	C 	0.59760 0.98740 0.24495 0.00200
C 	C 	0.64670 0.02130 0.27735 0.01700
O 	O 	0.50530 0.79190 0.13527 -0.63600
C 	C 	0.49080 0.65780 0.12540 0.00900
H 	H 	0.49230 0.97890 0.24160 0.04800
H 	H 	0.57520 0.03600 0.29600 0.02900
H 	H 	0.39700 0.68090 0.12640 0.03900
O 	O 	0.00830 0.41728 0.17941 -0.60800
C 	C 	0.14780 0.43020 0.18245 0.54400
O 	O 	0.24380 0.41532 0.15749 -0.66600
C 	C 	0.19970 0.46570 0.21740 -0.14900
C 	C 	0.09760 0.48740 0.24495 0.01000
C 	C 	0.14670 0.52130 0.27735 0.01000
O 	O 	0.00530 0.29190 0.13527 -0.63600
C 	C 	0.99080 0.15780 0.12540 0.00700
H 	H 	0.99230 0.47890 0.24160 0.04400
H 	H 	0.07520 0.53600 0.29600 0.03100
H 	H 	0.89700 0.18090 0.12640 0.04000
O 	O 	0.00830 0.91728 0.67941 -0.60800
C 	C 	0.14780 0.93020 0.68245 0.54700
O 	O 	0.24380 0.91532 0.65749 -0.66600
C 	C 	0.19970 0.96570 0.71740 -0.15500
C 	C 	0.09760 0.98740 0.74495 0.02200
C 	C 	0.14670 0.02130 0.77735 -0.00000
O 	O 	0.00530 0.79190 0.63527 -0.63500
C 	C 	0.99080 0.65780 0.62540 0.00600
H 	H 	0.99230 0.97890 0.74160 0.03900
H 	H 	0.07520 0.03600 0.79600 0.03300
H 	H 	0.89700 0.68090 0.62640 0.04000
O 	O 	0.50830 0.33272 0.07059 -0.60800
C 	C 	0.64780 0.31980 0.06755 0.54300
O 	O 	0.74380 0.33468 0.09251 -0.66500
C 	C 	0.69970 0.28430 0.03260 -0.14600
C 	C 	0.59760 0.26260 0.00505 0.00500
C 	C 	0.64670 0.22870 0.97265 0.01400
O 	O 	0.50530 0.45810 0.11473 -0.63600
C 	C 	0.49080 0.59220 0.12460 0.00900
H 	H 	0.49230 0.27110 0.00840 0.04600
H 	H 	0.57520 0.21400 0.95400 0.03000
H 	H 	0.39700 0.56910 0.12360 0.03900
O 	O 	0.50830 0.83272 0.57059 -0.60900
C 	C 	0.64780 0.81980 0.56755 0.54500
O 	O 	0.74380 0.83468 0.59251 -0.66600
C 	C 	0.69970 0.78430 0.53260 -0.15000
C 	C 	0.59760 0.76260 0.50505 0.01000
C 	C 	0.64670 0.72870 0.47265 0.00900
O 	O 	0.50530 0.95810 0.61473 -0.63600
C 	C 	0.49080 0.09220 0.62460 0.00800
H 	H 	0.49230 0.77110 0.50840 0.04500
H 	H 	0.57520 0.71400 0.45400 0.03100
H 	H 	0.39700 0.06910 0.62360 0.03900
O 	O 	0.00830 0.33272 0.57059 -0.60900
C 	C 	0.14780 0.31980 0.56755 0.54300
O 	O 	0.24380 0.33468 0.59251 -0.66500
C 	C 	0.19970 0.28430 0.53260 -0.14700
C 	C 	0.09760 0.26260 0.50505 0.00500
C 	C 	0.14670 0.22870 0.47265 0.01200
O 	O 	0.00530 0.45810 0.61473 -0.63600
C 	C 	0.99080 0.59220 0.62460 0.00800
H 	H 	0.99230 0.27110 0.50840 0.04700
H 	H 	0.07520 0.21400 0.45400 0.02900
H 	H 	0.89700 0.56910 0.62360 0.03900
O 	O 	0.00830 0.83272 0.07059 -0.60700
C 	C 	0.14780 0.81980 0.06755 0.54600
O 	O 	0.24380 0.83468 0.09251 -0.66600
C 	C 	0.19970 0.78430 0.03260 -0.15200
C 	C 	0.09760 0.76260 0.00505 0.01700
C 	C 	0.14670 0.72870 0.97265 0.00500
O 	O 	0.00530 0.95810 0.11473 -0.63500
C 	C 	0.99080 0.09220 0.12460 0.01300
H 	H 	0.99230 0.77110 0.00840 0.04100
H 	H 	0.07520 0.71400 0.95400 0.03300
H 	H 	0.89700 0.06910 0.12360 0.03800
O 	O 	0.24170 0.41728 0.07059 -0.60800
C 	C 	0.10220 0.43020 0.06755 0.54400
O 	O 	0.00620 0.41532 0.09251 -0.66500
C 	C 	0.05030 0.46570 0.03260 -0.14800
C 	C 	0.15240 0.48740 0.00505 0.00900
C 	C 	0.10330 0.52130 0.97265 0.00800
O 	O 	0.24470 0.29190 0.11473 -0.63600
C 	C 	0.25920 0.15780 0.12460 0.00700
H 	H 	0.25770 0.47890 0.00840 0.04500
H 	H 	0.17480 0.53600 0.95400 0.03100
H 	H 	0.35300 0.18090 0.12360 0.04000
O 	O 	0.24170 0.91728 0.57059 -0.60800
C 	C 	0.10220 0.93020 0.56755 0.54300
O 	O 	0.00620 0.91532 0.59251 -0.66400
C 	C 	0.05030 0.96570 0.53260 -0.14500
C 	C 	0.15240 0.98740 0.50505 0.01200
C 	C 	0.10330 0.02130 0.47265 0.00300
O 	O 	0.24470 0.79190 0.61473 -0.63600
C 	C 	0.25920 0.65780 0.62460 0.00800
H 	H 	0.25770 0.97890 0.50840 0.04400
H 	H 	0.17480 0.03600 0.45400 0.03200
H 	H 	0.35300 0.68090 0.62360 0.04000
O 	O 	0.74170 0.41728 0.57059 -0.60900
C 	C 	0.60220 0.43020 0.56755 0.54400
O 	O 	0.50620 0.41532 0.59251 -0.66600
C 	C 	0.55030 0.46570 0.53260 -0.14900
C 	C 	0.65240 0.48740 0.50505 0.00900
C 	C 	0.60330 0.52130 0.47265 0.01000
O 	O 	0.74470 0.29190 0.61473 -0.63600
C 	C 	0.75920 0.15780 0.62460 0.00900
H 	H 	0.75770 0.47890 0.50840 0.04500
H 	H 	0.67480 0.53600 0.45400 0.03100
H 	H 	0.85300 0.18090 0.62360 0.03900
O 	O 	0.74170 0.91728 0.07059 -0.61000
C 	C 	0.60220 0.93020 0.06755 0.54400
O 	O 	0.50620 0.91532 0.09251 -0.66600
C 	C 	0.55030 0.96570 0.03260 -0.14900
C 	C 	0.65240 0.98740 0.00505 0.00800
C 	C 	0.60330 0.02130 0.97265 0.01200
O 	O 	0.74470 0.79190 0.11473 -0.63700
C 	C 	0.75920 0.65780 0.12460 0.00900
H 	H 	0.75770 0.97890 0.00840 0.04500
H 	H 	0.67480 0.03600 0.95400 0.03100
H 	H 	0.85300 0.68090 0.12360 0.03800
O 	O 	0.75830 0.66728 0.32059 -0.60900
C 	C 	0.89780 0.68020 0.31755 0.54600
O 	O 	0.99380 0.66532 0.34251 -0.66600
C 	C 	0.94970 0.71570 0.28260 -0.15300
C 	C 	0.84760 0.73740 0.25505 0.01300
C 	C 	0.89670 0.77130 0.22265 0.00400
O 	O 	0.75530 0.54190 0.36473 -0.63600
C 	C 	0.74080 0.40780 0.37460 0.00900
H 	H 	0.74230 0.72890 0.25840 0.04400
H 	H 	0.82520 0.78600 0.20400 0.03200
H 	H 	0.64700 0.43090 0.37360 0.03900
O 	O 	0.75830 0.16728 0.82059 -0.60800
C 	C 	0.89780 0.18020 0.81755 0.54200
O 	O 	0.99380 0.16532 0.84251 -0.66400
C 	C 	0.94970 0.21570 0.78260 -0.14300
C 	C 	0.84760 0.23740 0.75505 0.00400
C 	C 	0.89670 0.27130 0.72265 0.01500
O 	O 	0.75530 0.04190 0.86473 -0.63600
C 	C 	0.74080 0.90780 0.87460 0.01200
H 	H 	0.74230 0.22890 0.75840 0.04700
H 	H 	0.82520 0.28600 0.70400 0.02900
H 	H 	0.64700 0.93090 0.87360 0.03800
O 	O 	0.25830 0.66728 0.82059 -0.60900
C 	C 	0.39780 0.68020 0.81755 0.54400
O 	O 	0.49380 0.66532 0.84251 -0.66600
C 	C 	0.44970 0.71570 0.78260 -0.14900
C 	C 	0.34760 0.73740 0.75505 0.00800
C 	C 	0.39670 0.77130 0.72265 0.01100
O 	O 	0.25530 0.54190 0.86473 -0.63600
C 	C 	0.24080 0.40780 0.87460 0.00900
H 	H 	0.24230 0.72890 0.75840 0.04500
H 	H 	0.32520 0.78600 0.70400 0.03100
H 	H 	0.14700 0.43090 0.87360 0.03900
O 	O 	0.25830 0.16728 0.32059 -0.60900
C 	C 	0.39780 0.18020 0.31755 0.54400
O 	O 	0.49380 0.16532 0.34251 -0.66600
C 	C 	0.44970 0.21570 0.28260 -0.14900
C 	C 	0.34760 0.23740 0.25505 0.00900
C 	C 	0.39670 0.27130 0.22265 0.01000
O 	O 	0.25530 0.04190 0.36473 -0.63700
C 	C 	0.24080 0.90780 0.37460 0.00800
H 	H 	0.24230 0.22890 0.25840 0.04500
H 	H 	0.32520 0.28600 0.20400 0.03100
H 	H 	0.14700 0.93090 0.37360 0.04000
O 	O 	0.49170 0.58272 0.32059 -0.60800
C 	C 	0.35220 0.56980 0.31755 0.54400
O 	O 	0.25620 0.58468 0.34251 -0.66600
C 	C 	0.30030 0.53430 0.28260 -0.14800
C 	C 	0.40240 0.51260 0.25505 0.00800
C 	C 	0.35330 0.47870 0.22265 0.01100
O 	O 	0.49470 0.70810 0.36473 -0.63600
C 	C 	0.50920 0.84220 0.37460 0.00900
H 	H 	0.50770 0.52110 0.25840 0.04500
H 	H 	0.42480 0.46400 0.20400 0.03100
H 	H 	0.60300 0.81910 0.37360 0.03900
O 	O 	0.49170 0.08272 0.82059 -0.60800
C 	C 	0.35220 0.06980 0.81755 0.54200
O 	O 	0.25620 0.08468 0.84251 -0.66600
C 	C 	0.30030 0.03430 0.78260 -0.14300
C 	C 	0.40240 0.01260 0.75505 0.00200
C 	C 	0.35330 0.97870 0.72265 0.01700
O 	O 	0.49470 0.20810 0.86473 -0.63600
C 	C 	0.50920 0.34220 0.87460 0.00900
H 	H 	0.50770 0.02110 0.75840 0.04800
H 	H 	0.42480 0.96400 0.70400 0.02900
H 	H 	0.60300 0.31910 0.87360 0.03900
O 	O 	0.99170 0.58272 0.82059 -0.60800
C 	C 	0.85220 0.56980 0.81755 0.54400
O 	O 	0.75620 0.58468 0.84251 -0.66600
C 	C 	0.80030 0.53430 0.78260 -0.14900
C 	C 	0.90240 0.51260 0.75505 0.01000
C 	C 	0.85330 0.47870 0.72265 0.01000
O 	O 	0.99470 0.70810 0.86473 -0.63600
C 	C 	0.00920 0.84220 0.87460 0.00700
H 	H 	0.00770 0.52110 0.75840 0.04400
H 	H 	0.92480 0.46400 0.70400 0.03100
H 	H 	0.10300 0.81910 0.87360 0.04000
O 	O 	0.99170 0.08272 0.32059 -0.60800
C 	C 	0.85220 0.06980 0.31755 0.54700
O 	O 	0.75620 0.08468 0.34251 -0.66600
C 	C 	0.80030 0.03430 0.28260 -0.15500
C 	C 	0.90240 0.01260 0.25505 0.02200
C 	C 	0.85330 0.97870 0.22265 -0.00000
O 	O 	0.99470 0.20810 0.36473 -0.63500
C 	C 	0.00920 0.34220 0.37460 0.00600
H 	H 	0.00770 0.02110 0.25840 0.03900
H 	H 	0.92480 0.96400 0.20400 0.03300
H 	H 	0.10300 0.31910 0.37360 0.04000
O 	O 	0.49170 0.66728 0.92941 -0.60800
C 	C 	0.35220 0.68020 0.93245 0.54300
O 	O 	0.25620 0.66532 0.90749 -0.66500
C 	C 	0.30030 0.71570 0.96740 -0.14600
C 	C 	0.40240 0.73740 0.99495 0.00500
C 	C 	0.35330 0.77130 0.02735 0.01400
O 	O 	0.49470 0.54190 0.88527 -0.63600
C 	C 	0.50920 0.40780 0.87540 0.00900
H 	H 	0.50770 0.72890 0.99160 0.04600
H 	H 	0.42480 0.78600 0.04600 0.03000
H 	H 	0.60300 0.43090 0.87640 0.03900
O 	O 	0.49170 0.16728 0.42941 -0.60900
C 	C 	0.35220 0.18020 0.43245 0.54500
O 	O 	0.25620 0.16532 0.40749 -0.66600
C 	C 	0.30030 0.21570 0.46740 -0.15000
C 	C 	0.40240 0.23740 0.49495 0.01000
C 	C 	0.35330 0.27130 0.52735 0.00900
O 	O 	0.49470 0.04190 0.38527 -0.63600
C 	C 	0.50920 0.90780 0.37540 0.00800
H 	H 	0.50770 0.22890 0.49160 0.04500
H 	H 	0.42480 0.28600 0.54600 0.03100
H 	H 	0.60300 0.93090 0.37640 0.03900
O 	O 	0.99170 0.66728 0.42941 -0.60900
C 	C 	0.85220 0.68020 0.43245 0.54300
O 	O 	0.75620 0.66532 0.40749 -0.66500
C 	C 	0.80030 0.71570 0.46740 -0.14700
C 	C 	0.90240 0.73740 0.49495 0.00500
C 	C 	0.85330 0.77130 0.52735 0.01200
O 	O 	0.99470 0.54190 0.38527 -0.63600
C 	C 	0.00920 0.40780 0.37540 0.00800
H 	H 	0.00770 0.72890 0.49160 0.04700
H 	H 	0.92480 0.78600 0.54600 0.02900
H 	H 	0.10300 0.43090 0.37640 0.03900
O 	O 	0.99170 0.16728 0.92941 -0.60700
C 	C 	0.85220 0.18020 0.93245 0.54600
O 	O 	0.75620 0.16532 0.90749 -0.66600
C 	C 	0.80030 0.21570 0.96740 -0.15200
C 	C 	0.90240 0.23740 0.99495 0.01700
C 	C 	0.85330 0.27130 0.02735 0.00500
O 	O 	0.99470 0.04190 0.88527 -0.63500
C 	C 	0.00920 0.90780 0.87540 0.01300
H 	H 	0.00770 0.22890 0.99160 0.04100
H 	H 	0.92480 0.28600 0.04600 0.03300
H 	H 	0.10300 0.93090 0.87640 0.03800
O 	O 	0.75830 0.58272 0.92941 -0.60800
C 	C 	0.89780 0.56980 0.93245 0.54400
O 	O 	0.99380 0.58468 0.90749 -0.66500
C 	C 	0.94970 0.53430 0.96740 -0.14800
C 	C 	0.84760 0.51260 0.99495 0.00900
C 	C 	0.89670 0.47870 0.02735 0.00800
O 	O 	0.75530 0.70810 0.88527 -0.63600
C 	C 	0.74080 0.84220 0.87540 0.00700
H 	H 	0.74230 0.52110 0.99160 0.04500
H 	H 	0.82520 0.46400 0.04600 0.03100
H 	H 	0.64700 0.81910 0.87640 0.04000
O 	O 	0.75830 0.08272 0.42941 -0.60800
C 	C 	0.89780 0.06980 0.43245 0.54300
O 	O 	0.99380 0.08468 0.40749 -0.66400
C 	C 	0.94970 0.03430 0.46740 -0.14500
C 	C 	0.84760 0.01260 0.49495 0.01200
C 	C 	0.89670 0.97870 0.52735 0.00300
O 	O 	0.75530 0.20810 0.38527 -0.63600
C 	C 	0.74080 0.34220 0.37540 0.00800
H 	H 	0.74230 0.02110 0.49160 0.04400
H 	H 	0.82520 0.96400 0.54600 0.03200
H 	H 	0.64700 0.31910 0.37640 0.04000
O 	O 	0.25830 0.58272 0.42941 -0.60900
C 	C 	0.39780 0.56980 0.43245 0.54400
O 	O 	0.49380 0.58468 0.40749 -0.66600
C 	C 	0.44970 0.53430 0.46740 -0.14900
C 	C 	0.34760 0.51260 0.49495 0.00900
C 	C 	0.39670 0.47870 0.52735 0.01000
O 	O 	0.25530 0.70810 0.38527 -0.63600
C 	C 	0.24080 0.84220 0.37540 0.00900
H 	H 	0.24230 0.52110 0.49160 0.04500
H 	H 	0.32520 0.46400 0.54600 0.03100
H 	H 	0.14700 0.81910 0.37640 0.03900
O 	O 	0.25830 0.08272 0.92941 -0.61000
C 	C 	0.39780 0.06980 0.93245 0.54400
O 	O 	0.49380 0.08468 0.90749 -0.66600
C 	C 	0.44970 0.03430 0.96740 -0.14900
C 	C 	0.34760 0.01260 0.99495 0.00800
C 	C 	0.39670 0.97870 0.02735 0.01200
O 	O 	0.25530 0.20810 0.88527 -0.63700
C 	C 	0.24080 0.34220 0.87540 0.00900
H 	H 	0.24230 0.02110 0.99160 0.04500
H 	H 	0.32520 0.96400 0.04600 0.03100
H 	H 	0.14700 0.31910 0.87640 0.03800
Sc	Sc	0.37500 0.37500 0.63547 2.35000
Sc	Sc	0.37500 0.87500 0.13547 2.35000
Sc	Sc	0.87500 0.37500 0.13547 2.34900
Sc	Sc	0.87500 0.87500 0.63547 2.34900
Sc	Sc	0.37500 0.37500 0.11453 2.35000
Sc	Sc	0.37500 0.87500 0.61453 2.35000
Sc	Sc	0.87500 0.37500 0.61453 2.35000
Sc	Sc	0.87500 0.87500 0.11453 2.34900
Sc	Sc	0.62500 0.62500 0.36453 2.35000
Sc	Sc	0.62500 0.12500 0.86453 2.35000
Sc	Sc	0.12500 0.62500 0.86453 2.34900
Sc	Sc	0.12500 0.12500 0.36453 2.34900
Sc	Sc	0.62500 0.62500 0.88547 2.35000
Sc	Sc	0.62500 0.12500 0.38547 2.35000
Sc	Sc	0.12500 0.62500 0.38547 2.35000
Sc	Sc	0.12500 0.12500 0.88547 2.34900
C 	C 	0.12500 0.48650 0.62500 0.53700
C 	C 	0.12500 0.55820 0.62500 -0.14300
C 	C 	0.12500 0.98650 0.12500 0.54000
C 	C 	0.12500 0.05820 0.12500 -0.14900
C 	C 	0.62500 0.98650 0.62500 0.53700
C 	C 	0.62500 0.05820 0.62500 -0.14300
C 	C 	0.62500 0.26350 0.62500 0.53700
C 	C 	0.62500 0.19180 0.62500 -0.14400
C 	C 	0.62500 0.76350 0.12500 0.53800
C 	C 	0.62500 0.69180 0.12500 -0.14400
C 	C 	0.62500 0.48650 0.12500 0.53700
C 	C 	0.62500 0.55820 0.12500 -0.14400
C 	C 	0.12500 0.26350 0.12500 0.53700
C 	C 	0.12500 0.19180 0.12500 -0.14200
C 	C 	0.12500 0.76350 0.62500 0.53600
C 	C 	0.12500 0.69180 0.62500 -0.14100
C 	C 	0.87500 0.51350 0.37500 0.53700
C 	C 	0.87500 0.44180 0.37500 -0.14300
C 	C 	0.87500 0.01350 0.87500 0.54000
C 	C 	0.87500 0.94180 0.87500 -0.14900
C 	C 	0.37500 0.73650 0.37500 0.53700
C 	C 	0.37500 0.80820 0.37500 -0.14400
C 	C 	0.37500 0.23650 0.87500 0.53800
C 	C 	0.37500 0.30820 0.87500 -0.14400
C 	C 	0.37500 0.51350 0.87500 0.53700
C 	C 	0.37500 0.44180 0.87500 -0.14400
C 	C 	0.37500 0.01350 0.37500 0.53700
C 	C 	0.37500 0.94180 0.37500 -0.14300
C 	C 	0.87500 0.73650 0.87500 0.53700
C 	C 	0.87500 0.80820 0.87500 -0.14200
C 	C 	0.87500 0.23650 0.37500 0.53600
C 	C 	0.87500 0.30820 0.37500 -0.14100
