data_crystal

_cell_length_a 8.85100
_cell_length_b 20.67600
_cell_length_c 34.20300
_cell_angle_alpha 90.00000
_cell_angle_beta  90.00000
_cell_angle_gamma 90.00000

_symmetry_space_group_name_	'P 1'
_symmetry_space_group_name_H-M	'P 1'

loop_
_symmetry_equiv_pos_as_xyz
  x,y,z

loop_
_atom_site_label
_atom_site_type_symbol
_atom_site_fract_x
_atom_site_fract_y
_atom_site_fract_z
_atom_site_charge
O 	O 	0.24130 0.33310 0.67920 -0.60800
C 	C 	0.10240 0.32040 0.68190 0.54000
O 	O 	0.00600 0.33590 0.65700 -0.67100
C 	C 	0.04960 0.28390 0.71720 -0.14800
C 	C 	0.14940 0.26460 0.74570 0.01000
C 	C 	0.10020 0.23060 0.77850 0.00200
O 	O 	0.24580 0.45750 0.63470 -0.63500
C 	C 	0.25900 0.59150 0.62500 0.00600
H 	H 	0.25310 0.27530 0.74310 0.04400
H 	H 	0.17130 0.21630 0.79730 0.03200
H 	H 	0.35190 0.56870 0.62630 0.03900
O 	O 	0.24130 0.83310 0.17920 -0.60700
C 	C 	0.10240 0.82040 0.18190 0.53700
O 	O 	0.00600 0.83590 0.15700 -0.66800
C 	C 	0.04960 0.78390 0.21720 -0.13700
C 	C 	0.14940 0.76460 0.24570 0.00000
C 	C 	0.10020 0.73060 0.27850 0.01600
O 	O 	0.24580 0.95750 0.13470 -0.63500
C 	C 	0.25900 0.09150 0.12500 0.00900
H 	H 	0.25310 0.77530 0.24310 0.04800
H 	H 	0.17130 0.71630 0.29730 0.03000
H 	H 	0.35190 0.06870 0.12630 0.03900
O 	O 	0.74130 0.33310 0.17920 -0.60600
C 	C 	0.60240 0.32040 0.18190 0.54000
O 	O 	0.50600 0.33590 0.15700 -0.66900
C 	C 	0.54960 0.28390 0.21720 -0.14200
C 	C 	0.64940 0.26460 0.24570 0.00600
C 	C 	0.60020 0.23060 0.27850 0.01000
O 	O 	0.74580 0.45750 0.13470 -0.63500
C 	C 	0.75900 0.59150 0.12500 0.00600
H 	H 	0.75310 0.27530 0.24310 0.04600
H 	H 	0.67130 0.21630 0.29730 0.03200
H 	H 	0.85190 0.56870 0.12630 0.04000
O 	O 	0.74130 0.83310 0.67920 -0.60700
C 	C 	0.60240 0.82040 0.68190 0.54000
O 	O 	0.50600 0.83590 0.65700 -0.66900
C 	C 	0.54960 0.78390 0.71720 -0.14300
C 	C 	0.64940 0.76460 0.74570 0.00600
C 	C 	0.60020 0.73060 0.77850 0.01000
O 	O 	0.74580 0.95750 0.63470 -0.63500
C 	C 	0.75900 0.09150 0.62500 0.00600
H 	H 	0.75310 0.77530 0.74310 0.04600
H 	H 	0.67130 0.71630 0.79730 0.03200
H 	H 	0.85190 0.06870 0.62630 0.04100
O 	O 	0.50870 0.41690 0.67920 -0.60600
C 	C 	0.64760 0.42960 0.68190 0.53900
O 	O 	0.74400 0.41410 0.65700 -0.66900
C 	C 	0.70040 0.46610 0.71720 -0.14200
C 	C 	0.60060 0.48540 0.74570 0.00500
C 	C 	0.64980 0.51940 0.77850 0.01100
O 	O 	0.50420 0.29250 0.63470 -0.63400
C 	C 	0.49100 0.15850 0.62500 0.00700
H 	H 	0.49690 0.47470 0.74310 0.04600
H 	H 	0.57870 0.53370 0.79730 0.03100
H 	H 	0.39810 0.18130 0.62630 0.04000
O 	O 	0.50870 0.91690 0.17920 -0.60600
C 	C 	0.64760 0.92960 0.18190 0.53700
O 	O 	0.74400 0.91410 0.15700 -0.67000
C 	C 	0.70040 0.96610 0.21720 -0.13700
C 	C 	0.60060 0.98540 0.24570 -0.00100
C 	C 	0.64980 0.01940 0.27850 0.01700
O 	O 	0.50420 0.79250 0.13470 -0.63400
C 	C 	0.49100 0.65850 0.12500 0.00700
H 	H 	0.49690 0.97470 0.24310 0.04900
H 	H 	0.57870 0.03370 0.29730 0.02900
H 	H 	0.39810 0.68130 0.12630 0.04000
O 	O 	0.00870 0.41690 0.17920 -0.60600
C 	C 	0.14760 0.42960 0.18190 0.54000
O 	O 	0.24400 0.41410 0.15700 -0.66900
C 	C 	0.20040 0.46610 0.21720 -0.14300
C 	C 	0.10060 0.48540 0.24570 0.00700
C 	C 	0.14980 0.51940 0.27850 0.01000
O 	O 	0.00420 0.29250 0.13470 -0.63400
C 	C 	0.99100 0.15850 0.12500 0.00500
H 	H 	0.99690 0.47470 0.24310 0.04500
H 	H 	0.07870 0.53370 0.29730 0.03200
H 	H 	0.89810 0.18130 0.12630 0.04100
O 	O 	0.00870 0.91690 0.67920 -0.60600
C 	C 	0.14760 0.92960 0.68190 0.54200
O 	O 	0.24400 0.91410 0.65700 -0.67000
C 	C 	0.20040 0.96610 0.71720 -0.14900
C 	C 	0.10060 0.98540 0.74570 0.02000
C 	C 	0.14980 0.01940 0.77850 -0.00100
O 	O 	0.00420 0.79250 0.63470 -0.63300
C 	C 	0.99100 0.65850 0.62500 0.00400
H 	H 	0.99690 0.97470 0.74310 0.04000
H 	H 	0.07870 0.03370 0.79730 0.03400
H 	H 	0.89810 0.68130 0.62630 0.04100
O 	O 	0.50870 0.33310 0.07080 -0.60600
C 	C 	0.64760 0.32040 0.06810 0.53800
O 	O 	0.74400 0.33590 0.09300 -0.66900
C 	C 	0.70040 0.28390 0.03280 -0.13900
C 	C 	0.60060 0.26460 0.00430 0.00200
C 	C 	0.64980 0.23060 0.97150 0.01400
O 	O 	0.50420 0.45750 0.11530 -0.63400
C 	C 	0.49100 0.59150 0.12500 0.00700
H 	H 	0.49690 0.27530 0.00690 0.04700
H 	H 	0.57870 0.21630 0.95270 0.03000
H 	H 	0.39810 0.56870 0.12370 0.04000
O 	O 	0.50870 0.83310 0.57080 -0.60700
C 	C 	0.64760 0.82040 0.56810 0.54000
O 	O 	0.74400 0.83590 0.59300 -0.67000
C 	C 	0.70040 0.78390 0.53280 -0.14400
C 	C 	0.60060 0.76460 0.50430 0.00700
C 	C 	0.64980 0.73060 0.47150 0.00900
O 	O 	0.50420 0.95750 0.61530 -0.63400
C 	C 	0.49100 0.09150 0.62500 0.00600
H 	H 	0.49690 0.77530 0.50690 0.04600
H 	H 	0.57870 0.71630 0.45270 0.03200
H 	H 	0.39810 0.06870 0.62370 0.04000
O 	O 	0.00870 0.33310 0.57080 -0.60600
C 	C 	0.14760 0.32040 0.56810 0.53900
O 	O 	0.24400 0.33590 0.59300 -0.66900
C 	C 	0.20040 0.28390 0.53280 -0.14100
C 	C 	0.10060 0.26460 0.50430 0.00200
C 	C 	0.14980 0.23060 0.47150 0.01200
O 	O 	0.00420 0.45750 0.61530 -0.63400
C 	C 	0.99100 0.59150 0.62500 0.00600
H 	H 	0.99690 0.27530 0.50690 0.04800
H 	H 	0.07870 0.21630 0.45270 0.03000
H 	H 	0.89810 0.56870 0.62370 0.04000
O 	O 	0.00870 0.83310 0.07080 -0.60500
C 	C 	0.14760 0.82040 0.06810 0.54100
O 	O 	0.24400 0.83590 0.09300 -0.66900
C 	C 	0.20040 0.78390 0.03280 -0.14600
C 	C 	0.10060 0.76460 0.00430 0.01500
C 	C 	0.14980 0.73060 0.97150 0.00400
O 	O 	0.00420 0.95750 0.11530 -0.63300
C 	C 	0.99100 0.09150 0.12500 0.01100
H 	H 	0.99690 0.77530 0.00690 0.04100
H 	H 	0.07870 0.71630 0.95270 0.03300
H 	H 	0.89810 0.06870 0.12370 0.03900
O 	O 	0.24130 0.41690 0.07080 -0.60600
C 	C 	0.10240 0.42960 0.06810 0.53900
O 	O 	0.00600 0.41410 0.09300 -0.66900
C 	C 	0.04960 0.46610 0.03280 -0.14100
C 	C 	0.14940 0.48540 0.00430 0.00700
C 	C 	0.10020 0.51940 0.97150 0.00800
O 	O 	0.24580 0.29250 0.11530 -0.63400
C 	C 	0.25900 0.15850 0.12500 0.00500
H 	H 	0.25310 0.47470 0.00690 0.04600
H 	H 	0.17130 0.53370 0.95270 0.03200
H 	H 	0.35190 0.18130 0.12370 0.04100
O 	O 	0.24130 0.91690 0.57080 -0.60600
C 	C 	0.10240 0.92960 0.56810 0.53900
O 	O 	0.00600 0.91410 0.59300 -0.66800
C 	C 	0.04960 0.96610 0.53280 -0.13900
C 	C 	0.14940 0.98540 0.50430 0.01000
C 	C 	0.10020 0.01940 0.47150 0.00300
O 	O 	0.24580 0.79250 0.61530 -0.63400
C 	C 	0.25900 0.65850 0.62500 0.00600
H 	H 	0.25310 0.97470 0.50690 0.04500
H 	H 	0.17130 0.03370 0.45270 0.03300
H 	H 	0.35190 0.68130 0.62370 0.04000
O 	O 	0.74130 0.41690 0.57080 -0.60600
C 	C 	0.60240 0.42960 0.56810 0.54000
O 	O 	0.50600 0.41410 0.59300 -0.66900
C 	C 	0.54960 0.46610 0.53280 -0.14200
C 	C 	0.64940 0.48540 0.50430 0.00600
C 	C 	0.60020 0.51940 0.47150 0.01000
O 	O 	0.74580 0.29250 0.61530 -0.63400
C 	C 	0.75900 0.15850 0.62500 0.00700
H 	H 	0.75310 0.47470 0.50690 0.04600
H 	H 	0.67130 0.53370 0.45270 0.03200
H 	H 	0.85190 0.18130 0.62370 0.04000
O 	O 	0.74130 0.91690 0.07080 -0.60700
C 	C 	0.60240 0.92960 0.06810 0.54000
O 	O 	0.50600 0.91410 0.09300 -0.66900
C 	C 	0.54960 0.96610 0.03280 -0.14300
C 	C 	0.64940 0.98540 0.00430 0.00500
C 	C 	0.60020 0.01940 0.97150 0.01200
O 	O 	0.74580 0.79250 0.11530 -0.63500
C 	C 	0.75900 0.65850 0.12500 0.00700
H 	H 	0.75310 0.97470 0.00690 0.04600
H 	H 	0.67130 0.03370 0.95270 0.03200
H 	H 	0.85190 0.68130 0.12370 0.03900
O 	O 	0.75870 0.66690 0.32080 -0.60700
C 	C 	0.89760 0.67960 0.31810 0.54100
O 	O 	0.99400 0.66410 0.34300 -0.67000
C 	C 	0.95040 0.71610 0.28280 -0.14700
C 	C 	0.85060 0.73540 0.25430 0.01100
C 	C 	0.89980 0.76940 0.22150 0.00300
O 	O 	0.75420 0.54250 0.36530 -0.63400
C 	C 	0.74100 0.40850 0.37500 0.00700
H 	H 	0.74690 0.72470 0.25690 0.04500
H 	H 	0.82870 0.78370 0.20270 0.03300
H 	H 	0.64810 0.43130 0.37370 0.04000
O 	O 	0.75870 0.16690 0.82080 -0.60600
C 	C 	0.89760 0.17960 0.81810 0.53800
O 	O 	0.99400 0.16410 0.84300 -0.66700
C 	C 	0.95040 0.21610 0.78280 -0.13600
C 	C 	0.85060 0.23540 0.75430 0.00100
C 	C 	0.89980 0.26940 0.72150 0.01600
O 	O 	0.75420 0.04250 0.86530 -0.63500
C 	C 	0.74100 0.90850 0.87500 0.00900
H 	H 	0.74690 0.22470 0.75690 0.04800
H 	H 	0.82870 0.28370 0.70270 0.03000
H 	H 	0.64810 0.93130 0.87370 0.03900
O 	O 	0.25870 0.66690 0.82080 -0.60600
C 	C 	0.39760 0.67960 0.81810 0.54000
O 	O 	0.49400 0.66410 0.84300 -0.66900
C 	C 	0.45040 0.71610 0.78280 -0.14200
C 	C 	0.35060 0.73540 0.75430 0.00600
C 	C 	0.39980 0.76940 0.72150 0.01000
O 	O 	0.25420 0.54250 0.86530 -0.63500
C 	C 	0.24100 0.40850 0.87500 0.00600
H 	H 	0.24690 0.72470 0.75690 0.04600
H 	H 	0.32870 0.78370 0.70270 0.03200
H 	H 	0.14810 0.43130 0.87370 0.04000
O 	O 	0.25870 0.16690 0.32080 -0.60700
C 	C 	0.39760 0.17960 0.31810 0.54000
O 	O 	0.49400 0.16410 0.34300 -0.66900
C 	C 	0.45040 0.21610 0.28280 -0.14300
C 	C 	0.35060 0.23540 0.25430 0.00600
C 	C 	0.39980 0.26940 0.22150 0.01000
O 	O 	0.25420 0.04250 0.36530 -0.63500
C 	C 	0.24100 0.90850 0.37500 0.00600
H 	H 	0.24690 0.22470 0.25690 0.04600
H 	H 	0.32870 0.28370 0.20270 0.03200
H 	H 	0.14810 0.93130 0.37370 0.04100
O 	O 	0.49130 0.58310 0.32080 -0.60600
C 	C 	0.35240 0.57040 0.31810 0.53900
O 	O 	0.25600 0.58590 0.34300 -0.66900
C 	C 	0.29960 0.53390 0.28280 -0.14200
C 	C 	0.39940 0.51460 0.25430 0.00500
C 	C 	0.35020 0.48060 0.22150 0.01100
O 	O 	0.49580 0.70750 0.36530 -0.63400
C 	C 	0.50900 0.84150 0.37500 0.00700
H 	H 	0.50310 0.52530 0.25690 0.04600
H 	H 	0.42130 0.46630 0.20270 0.03100
H 	H 	0.60190 0.81870 0.37370 0.04000
O 	O 	0.49130 0.08310 0.82080 -0.60600
C 	C 	0.35240 0.07040 0.81810 0.53700
O 	O 	0.25600 0.08590 0.84300 -0.67000
C 	C 	0.29960 0.03390 0.78280 -0.13700
C 	C 	0.39940 0.01460 0.75430 -0.00100
C 	C 	0.35020 0.98060 0.72150 0.01700
O 	O 	0.49580 0.20750 0.86530 -0.63400
C 	C 	0.50900 0.34150 0.87500 0.00700
H 	H 	0.50310 0.02530 0.75690 0.04900
H 	H 	0.42130 0.96630 0.70270 0.02900
H 	H 	0.60190 0.31870 0.87370 0.04000
O 	O 	0.99130 0.58310 0.82080 -0.60600
C 	C 	0.85240 0.57040 0.81810 0.54000
O 	O 	0.75600 0.58590 0.84300 -0.66900
C 	C 	0.79960 0.53390 0.78280 -0.14300
C 	C 	0.89940 0.51460 0.75430 0.00700
C 	C 	0.85020 0.48060 0.72150 0.01000
O 	O 	0.99580 0.70750 0.86530 -0.63400
C 	C 	0.00900 0.84150 0.87500 0.00500
H 	H 	0.00310 0.52530 0.75690 0.04500
H 	H 	0.92130 0.46630 0.70270 0.03200
H 	H 	0.10190 0.81870 0.87370 0.04100
O 	O 	0.99130 0.08310 0.32080 -0.60600
C 	C 	0.85240 0.07040 0.31810 0.54200
O 	O 	0.75600 0.08590 0.34300 -0.67000
C 	C 	0.79960 0.03390 0.28280 -0.14900
C 	C 	0.89940 0.01460 0.25430 0.02000
C 	C 	0.85020 0.98060 0.22150 -0.00100
O 	O 	0.99580 0.20750 0.36530 -0.63300
C 	C 	0.00900 0.34150 0.37500 0.00400
H 	H 	0.00310 0.02530 0.25690 0.04000
H 	H 	0.92130 0.96630 0.20270 0.03400
H 	H 	0.10190 0.31870 0.37370 0.04100
O 	O 	0.49130 0.66690 0.92920 -0.60600
C 	C 	0.35240 0.67960 0.93190 0.53800
O 	O 	0.25600 0.66410 0.90700 -0.66900
C 	C 	0.29960 0.71610 0.96720 -0.13900
C 	C 	0.39940 0.73540 0.99570 0.00200
C 	C 	0.35020 0.76940 0.02850 0.01400
O 	O 	0.49580 0.54250 0.88470 -0.63400
C 	C 	0.50900 0.40850 0.87500 0.00700
H 	H 	0.50310 0.72470 0.99310 0.04700
H 	H 	0.42130 0.78370 0.04730 0.03000
H 	H 	0.60190 0.43130 0.87630 0.04000
O 	O 	0.49130 0.16690 0.42920 -0.60700
C 	C 	0.35240 0.17960 0.43190 0.54000
O 	O 	0.25600 0.16410 0.40700 -0.67000
C 	C 	0.29960 0.21610 0.46720 -0.14400
C 	C 	0.39940 0.23540 0.49570 0.00700
C 	C 	0.35020 0.26940 0.52850 0.00900
O 	O 	0.49580 0.04250 0.38470 -0.63400
C 	C 	0.50900 0.90850 0.37500 0.00600
H 	H 	0.50310 0.22470 0.49310 0.04600
H 	H 	0.42130 0.28370 0.54730 0.03200
H 	H 	0.60190 0.93130 0.37630 0.04000
O 	O 	0.99130 0.66690 0.42920 -0.60600
C 	C 	0.85240 0.67960 0.43190 0.53900
O 	O 	0.75600 0.66410 0.40700 -0.66900
C 	C 	0.79960 0.71610 0.46720 -0.14100
C 	C 	0.89940 0.73540 0.49570 0.00200
C 	C 	0.85020 0.76940 0.52850 0.01200
O 	O 	0.99580 0.54250 0.38470 -0.63400
C 	C 	0.00900 0.40850 0.37500 0.00600
H 	H 	0.00310 0.72470 0.49310 0.04800
H 	H 	0.92130 0.78370 0.54730 0.03000
H 	H 	0.10190 0.43130 0.37630 0.04000
O 	O 	0.99130 0.16690 0.92920 -0.60500
C 	C 	0.85240 0.17960 0.93190 0.54100
O 	O 	0.75600 0.16410 0.90700 -0.66900
C 	C 	0.79960 0.21610 0.96720 -0.14600
C 	C 	0.89940 0.23540 0.99570 0.01500
C 	C 	0.85020 0.26940 0.02850 0.00400
O 	O 	0.99580 0.04250 0.88470 -0.63300
C 	C 	0.00900 0.90850 0.87500 0.01100
H 	H 	0.00310 0.22470 0.99310 0.04100
H 	H 	0.92130 0.28370 0.04730 0.03300
H 	H 	0.10190 0.93130 0.87630 0.03900
O 	O 	0.75870 0.58310 0.92920 -0.60600
C 	C 	0.89760 0.57040 0.93190 0.53900
O 	O 	0.99400 0.58590 0.90700 -0.66900
C 	C 	0.95040 0.53390 0.96720 -0.14100
C 	C 	0.85060 0.51460 0.99570 0.00700
C 	C 	0.89980 0.48060 0.02850 0.00800
O 	O 	0.75420 0.70750 0.88470 -0.63400
C 	C 	0.74100 0.84150 0.87500 0.00500
H 	H 	0.74690 0.52530 0.99310 0.04600
H 	H 	0.82870 0.46630 0.04730 0.03200
H 	H 	0.64810 0.81870 0.87630 0.04100
O 	O 	0.75870 0.08310 0.42920 -0.60600
C 	C 	0.89760 0.07040 0.43190 0.53900
O 	O 	0.99400 0.08590 0.40700 -0.66800
C 	C 	0.95040 0.03390 0.46720 -0.13900
C 	C 	0.85060 0.01460 0.49570 0.01000
C 	C 	0.89980 0.98060 0.52850 0.00300
O 	O 	0.75420 0.20750 0.38470 -0.63400
C 	C 	0.74100 0.34150 0.37500 0.00600
H 	H 	0.74690 0.02530 0.49310 0.04500
H 	H 	0.82870 0.96630 0.54730 0.03300
H 	H 	0.64810 0.31870 0.37630 0.04000
O 	O 	0.25870 0.58310 0.42920 -0.60600
C 	C 	0.39760 0.57040 0.43190 0.54000
O 	O 	0.49400 0.58590 0.40700 -0.66900
C 	C 	0.45040 0.53390 0.46720 -0.14200
C 	C 	0.35060 0.51460 0.49570 0.00600
C 	C 	0.39980 0.48060 0.52850 0.01000
O 	O 	0.25420 0.70750 0.38470 -0.63400
C 	C 	0.24100 0.84150 0.37500 0.00700
H 	H 	0.24690 0.52530 0.49310 0.04600
H 	H 	0.32870 0.46630 0.54730 0.03200
H 	H 	0.14810 0.81870 0.37630 0.04000
O 	O 	0.25870 0.08310 0.92920 -0.60700
C 	C 	0.39760 0.07040 0.93190 0.54000
O 	O 	0.49400 0.08590 0.90700 -0.66900
C 	C 	0.45040 0.03390 0.96720 -0.14300
C 	C 	0.35060 0.01460 0.99570 0.00500
C 	C 	0.39980 0.98060 0.02850 0.01200
O 	O 	0.25420 0.20750 0.88470 -0.63500
C 	C 	0.24100 0.34150 0.87500 0.00700
H 	H 	0.24690 0.02530 0.99310 0.04600
H 	H 	0.32870 0.96630 0.04730 0.03200
H 	H 	0.14810 0.31870 0.87630 0.03900
Sc	Sc	0.37500 0.37500 0.63530 2.35300
Sc	Sc	0.37500 0.87500 0.13530 2.35300
Sc	Sc	0.87500 0.37500 0.13530 2.35200
Sc	Sc	0.87500 0.87500 0.63530 2.35200
Sc	Sc	0.37500 0.37500 0.11470 2.35300
Sc	Sc	0.37500 0.87500 0.61470 2.35300
Sc	Sc	0.87500 0.37500 0.61470 2.35300
Sc	Sc	0.87500 0.87500 0.11470 2.35200
Sc	Sc	0.62500 0.62500 0.36470 2.35300
Sc	Sc	0.62500 0.12500 0.86470 2.35300
Sc	Sc	0.12500 0.62500 0.86470 2.35200
Sc	Sc	0.12500 0.12500 0.36470 2.35200
Sc	Sc	0.62500 0.62500 0.88530 2.35300
Sc	Sc	0.62500 0.12500 0.38530 2.35300
Sc	Sc	0.12500 0.62500 0.38530 2.35300
Sc	Sc	0.12500 0.12500 0.88530 2.35200
C 	C 	0.12500 0.48570 0.62500 0.53100
C 	C 	0.12500 0.55780 0.62500 -0.13800
C 	C 	0.12500 0.98570 0.12500 0.53400
C 	C 	0.12500 0.05780 0.12500 -0.14400
C 	C 	0.62500 0.98570 0.62500 0.53000
C 	C 	0.62500 0.05780 0.62500 -0.13800
C 	C 	0.62500 0.26430 0.62500 0.53100
C 	C 	0.62500 0.19220 0.62500 -0.13900
C 	C 	0.62500 0.76430 0.12500 0.53100
C 	C 	0.62500 0.69220 0.12500 -0.13900
C 	C 	0.62500 0.48570 0.12500 0.53100
C 	C 	0.62500 0.55780 0.12500 -0.13900
C 	C 	0.12500 0.26430 0.12500 0.53000
C 	C 	0.12500 0.19220 0.12500 -0.13800
C 	C 	0.12500 0.76430 0.62500 0.53000
C 	C 	0.12500 0.69220 0.62500 -0.13600
C 	C 	0.87500 0.51430 0.37500 0.53100
C 	C 	0.87500 0.44220 0.37500 -0.13800
C 	C 	0.87500 0.01430 0.87500 0.53400
C 	C 	0.87500 0.94220 0.87500 -0.14400
C 	C 	0.37500 0.73570 0.37500 0.53100
C 	C 	0.37500 0.80780 0.37500 -0.13900
C 	C 	0.37500 0.23570 0.87500 0.53100
C 	C 	0.37500 0.30780 0.87500 -0.13900
C 	C 	0.37500 0.51430 0.87500 0.53100
C 	C 	0.37500 0.44220 0.87500 -0.13900
C 	C 	0.37500 0.01430 0.37500 0.53000
C 	C 	0.37500 0.94220 0.37500 -0.13800
C 	C 	0.87500 0.73570 0.87500 0.53000
C 	C 	0.87500 0.80780 0.87500 -0.13800
C 	C 	0.87500 0.23570 0.37500 0.53000
C 	C 	0.87500 0.30780 0.37500 -0.13600
