data_crystal

_cell_length_a 8.80410
_cell_length_b 20.62500
_cell_length_c 34.06200
_cell_angle_alpha 90.00000
_cell_angle_beta  90.00000
_cell_angle_gamma 90.00000

_symmetry_space_group_name_	'P 1'
_symmetry_space_group_name_H-M	'P 1'

loop_
_symmetry_equiv_pos_as_xyz
  x,y,z

loop_
_atom_site_label
_atom_site_type_symbol
_atom_site_fract_x
_atom_site_fract_y
_atom_site_fract_z
_atom_site_charge
O 	O 	0.24450 0.33190 0.67880 -0.61000
C 	C 	0.10460 0.31990 0.68190 0.54300
O 	O 	0.00770 0.33640 0.65710 -0.67100
C 	C 	0.05020 0.28390 0.71760 -0.14600
C 	C 	0.15040 0.26610 0.74620 0.01200
C 	C 	0.10160 0.22970 0.77780 0.00300
O 	O 	0.24550 0.45810 0.63450 -0.63600
C 	C 	0.25980 0.59160 0.62440 0.01100
H 	H 	0.25410 0.27690 0.74360 0.04600
H 	H 	0.17270 0.21530 0.79670 0.03400
H 	H 	0.35270 0.56880 0.62570 0.04100
O 	O 	0.24450 0.83190 0.17880 -0.60900
C 	C 	0.10460 0.81990 0.18190 0.54000
O 	O 	0.00770 0.83640 0.15710 -0.66900
C 	C 	0.05020 0.78390 0.21760 -0.13400
C 	C 	0.15040 0.76610 0.24620 0.00100
C 	C 	0.10160 0.72970 0.27780 0.01700
O 	O 	0.24550 0.95810 0.13450 -0.63600
C 	C 	0.25980 0.09160 0.12440 0.01300
H 	H 	0.25410 0.77690 0.24360 0.04900
H 	H 	0.17270 0.71530 0.29670 0.03000
H 	H 	0.35270 0.06880 0.12570 0.03800
O 	O 	0.74450 0.33190 0.17880 -0.61100
C 	C 	0.60460 0.31990 0.18190 0.54100
O 	O 	0.50770 0.33640 0.15710 -0.67200
C 	C 	0.55020 0.28390 0.21760 -0.14100
C 	C 	0.65040 0.26610 0.24620 0.00500
C 	C 	0.60160 0.22970 0.27780 0.01000
O 	O 	0.74550 0.45810 0.13450 -0.63700
C 	C 	0.75980 0.59160 0.12440 0.00900
H 	H 	0.75410 0.27690 0.24360 0.04700
H 	H 	0.67270 0.21530 0.29670 0.03100
H 	H 	0.85270 0.56880 0.12570 0.03900
O 	O 	0.74450 0.83190 0.67880 -0.61200
C 	C 	0.60460 0.81990 0.68190 0.54100
O 	O 	0.50770 0.83640 0.65710 -0.67200
C 	C 	0.55020 0.78390 0.71760 -0.14200
C 	C 	0.65040 0.76610 0.74620 0.00600
C 	C 	0.60160 0.72970 0.77780 0.01000
O 	O 	0.74550 0.95810 0.63450 -0.63800
C 	C 	0.75980 0.09160 0.62440 0.00900
H 	H 	0.75410 0.77690 0.74360 0.04600
H 	H 	0.67270 0.71530 0.79670 0.03100
H 	H 	0.85270 0.06880 0.62570 0.04000
O 	O 	0.50550 0.41810 0.67880 -0.61100
C 	C 	0.64540 0.43010 0.68190 0.54100
O 	O 	0.74230 0.41360 0.65710 -0.67100
C 	C 	0.69980 0.46610 0.71760 -0.14100
C 	C 	0.59960 0.48390 0.74620 0.00500
C 	C 	0.64840 0.52030 0.77780 0.01000
O 	O 	0.50450 0.29190 0.63450 -0.63700
C 	C 	0.49020 0.15840 0.62440 0.01000
H 	H 	0.49590 0.47310 0.74360 0.04700
H 	H 	0.57730 0.53470 0.79670 0.03100
H 	H 	0.39730 0.18120 0.62570 0.03900
O 	O 	0.50550 0.91810 0.17880 -0.61000
C 	C 	0.64540 0.93010 0.18190 0.53800
O 	O 	0.74230 0.91360 0.15710 -0.67200
C 	C 	0.69980 0.96610 0.21760 -0.13500
C 	C 	0.59960 0.98390 0.24620 -0.00300
C 	C 	0.64840 0.02030 0.27780 0.01800
O 	O 	0.50450 0.79190 0.13450 -0.63700
C 	C 	0.49020 0.65840 0.12440 0.01000
H 	H 	0.49590 0.97310 0.24360 0.05000
H 	H 	0.57730 0.03470 0.29670 0.02900
H 	H 	0.39730 0.68120 0.12570 0.04000
O 	O 	0.00550 0.41810 0.17880 -0.61100
C 	C 	0.14540 0.43010 0.18190 0.54100
O 	O 	0.24230 0.41360 0.15710 -0.67200
C 	C 	0.19980 0.46610 0.21760 -0.14200
C 	C 	0.09960 0.48390 0.24620 0.00700
C 	C 	0.14840 0.52030 0.27780 0.00900
O 	O 	0.00450 0.29190 0.13450 -0.63700
C 	C 	0.99020 0.15840 0.12440 0.00700
H 	H 	0.99590 0.47310 0.24360 0.04600
H 	H 	0.07730 0.53470 0.29670 0.03200
H 	H 	0.89730 0.18120 0.12570 0.04100
O 	O 	0.00550 0.91810 0.67880 -0.61000
C 	C 	0.14540 0.93010 0.68190 0.54400
O 	O 	0.24230 0.91360 0.65710 -0.67200
C 	C 	0.19980 0.96610 0.71760 -0.14900
C 	C 	0.09960 0.98390 0.74620 0.02000
C 	C 	0.14840 0.02030 0.77780 -0.00200
O 	O 	0.00450 0.79190 0.63450 -0.63600
C 	C 	0.99020 0.65840 0.62440 0.00600
H 	H 	0.99590 0.97310 0.74360 0.04000
H 	H 	0.07730 0.03470 0.79670 0.03400
H 	H 	0.89730 0.68120 0.62570 0.04000
O 	O 	0.50550 0.33190 0.07120 -0.61100
C 	C 	0.64540 0.31990 0.06810 0.53900
O 	O 	0.74230 0.33640 0.09290 -0.67100
C 	C 	0.69980 0.28390 0.03240 -0.13800
C 	C 	0.59960 0.26610 0.00380 0.00100
C 	C 	0.64840 0.22970 0.97220 0.01400
O 	O 	0.50450 0.45810 0.11550 -0.63700
C 	C 	0.49020 0.59160 0.12560 0.00900
H 	H 	0.49590 0.27690 0.00640 0.04800
H 	H 	0.57730 0.21530 0.95330 0.03000
H 	H 	0.39730 0.56880 0.12430 0.04000
O 	O 	0.50550 0.83190 0.57120 -0.61100
C 	C 	0.64540 0.81990 0.56810 0.54100
O 	O 	0.74230 0.83640 0.59290 -0.67200
C 	C 	0.69980 0.78390 0.53240 -0.14300
C 	C 	0.59960 0.76610 0.50380 0.00700
C 	C 	0.64840 0.72970 0.47220 0.00800
O 	O 	0.50450 0.95810 0.61550 -0.63700
C 	C 	0.49020 0.09160 0.62560 0.00900
H 	H 	0.49590 0.77690 0.50640 0.04600
H 	H 	0.57730 0.71530 0.45330 0.03200
H 	H 	0.39730 0.06880 0.62430 0.04000
O 	O 	0.00550 0.33190 0.57120 -0.61100
C 	C 	0.14540 0.31990 0.56810 0.54000
O 	O 	0.24230 0.33640 0.59290 -0.67100
C 	C 	0.19980 0.28390 0.53240 -0.14000
C 	C 	0.09960 0.26610 0.50380 0.00200
C 	C 	0.14840 0.22970 0.47220 0.01200
O 	O 	0.00450 0.45810 0.61550 -0.63700
C 	C 	0.99020 0.59160 0.62560 0.00900
H 	H 	0.99590 0.27690 0.50640 0.04900
H 	H 	0.07730 0.21530 0.45330 0.03000
H 	H 	0.89730 0.56880 0.62430 0.04000
O 	O 	0.00550 0.83190 0.07120 -0.61000
C 	C 	0.14540 0.81990 0.06810 0.54200
O 	O 	0.24230 0.83640 0.09290 -0.67200
C 	C 	0.19980 0.78390 0.03240 -0.14600
C 	C 	0.09960 0.76610 0.00380 0.01500
C 	C 	0.14840 0.72970 0.97220 0.00400
O 	O 	0.00450 0.95810 0.11550 -0.63600
C 	C 	0.99020 0.09160 0.12560 0.01400
H 	H 	0.99590 0.77690 0.00640 0.04200
H 	H 	0.07730 0.71530 0.95330 0.03300
H 	H 	0.89730 0.06880 0.12430 0.03800
O 	O 	0.24450 0.41810 0.07120 -0.61100
C 	C 	0.10460 0.43010 0.06810 0.54000
O 	O 	0.00770 0.41360 0.09290 -0.67100
C 	C 	0.05020 0.46610 0.03240 -0.14000
C 	C 	0.15040 0.48390 0.00380 0.00600
C 	C 	0.10160 0.52030 0.97220 0.00800
O 	O 	0.24550 0.29190 0.11550 -0.63700
C 	C 	0.25980 0.15840 0.12560 0.00700
H 	H 	0.25410 0.47310 0.00640 0.04700
H 	H 	0.17270 0.53470 0.95330 0.03200
H 	H 	0.35270 0.18120 0.12430 0.04000
O 	O 	0.24450 0.91810 0.57120 -0.61100
C 	C 	0.10460 0.93010 0.56810 0.54000
O 	O 	0.00770 0.91360 0.59290 -0.67000
C 	C 	0.05020 0.96610 0.53240 -0.13800
C 	C 	0.15040 0.98390 0.50380 0.00900
C 	C 	0.10160 0.02030 0.47220 0.00200
O 	O 	0.24550 0.79190 0.61550 -0.63700
C 	C 	0.25980 0.65840 0.62560 0.00800
H 	H 	0.25410 0.97310 0.50640 0.04600
H 	H 	0.17270 0.03470 0.45330 0.03300
H 	H 	0.35270 0.68120 0.62430 0.04000
O 	O 	0.74450 0.41810 0.57120 -0.61100
C 	C 	0.60460 0.43010 0.56810 0.54100
O 	O 	0.50770 0.41360 0.59290 -0.67200
C 	C 	0.55020 0.46610 0.53240 -0.14100
C 	C 	0.65040 0.48390 0.50380 0.00500
C 	C 	0.60160 0.52030 0.47220 0.01000
O 	O 	0.74550 0.29190 0.61550 -0.63700
C 	C 	0.75980 0.15840 0.62560 0.01000
H 	H 	0.75410 0.47310 0.50640 0.04700
H 	H 	0.67270 0.53470 0.45330 0.03100
H 	H 	0.85270 0.18120 0.62430 0.04000
O 	O 	0.74450 0.91810 0.07120 -0.61200
C 	C 	0.60460 0.93010 0.06810 0.54100
O 	O 	0.50770 0.91360 0.09290 -0.67200
C 	C 	0.55020 0.96610 0.03240 -0.14200
C 	C 	0.65040 0.98390 0.00380 0.00400
C 	C 	0.60160 0.02030 0.97220 0.01100
O 	O 	0.74550 0.79190 0.11550 -0.63800
C 	C 	0.75980 0.65840 0.12560 0.01000
H 	H 	0.75410 0.97310 0.00640 0.04600
H 	H 	0.67270 0.03470 0.95330 0.03100
H 	H 	0.85270 0.68120 0.12430 0.03900
O 	O 	0.75550 0.66810 0.32120 -0.61100
C 	C 	0.89540 0.68010 0.31810 0.54200
O 	O 	0.99230 0.66360 0.34290 -0.67200
C 	C 	0.94980 0.71610 0.28240 -0.14700
C 	C 	0.84960 0.73390 0.25380 0.01100
C 	C 	0.89840 0.77030 0.22220 0.00200
O 	O 	0.75450 0.54190 0.36550 -0.63700
C 	C 	0.74020 0.40840 0.37560 0.01000
H 	H 	0.74590 0.72310 0.25640 0.04500
H 	H 	0.82730 0.78470 0.20330 0.03300
H 	H 	0.64730 0.43120 0.37430 0.04000
O 	O 	0.75550 0.16810 0.82120 -0.61000
C 	C 	0.89540 0.18010 0.81810 0.53900
O 	O 	0.99230 0.16360 0.84290 -0.67000
C 	C 	0.94980 0.21610 0.78240 -0.13500
C 	C 	0.84960 0.23390 0.75380 0.00000
C 	C 	0.89840 0.27030 0.72220 0.01600
O 	O 	0.75450 0.04190 0.86550 -0.63700
C 	C 	0.74020 0.90840 0.87560 0.01300
H 	H 	0.74590 0.22310 0.75640 0.04900
H 	H 	0.82730 0.28470 0.70330 0.03000
H 	H 	0.64730 0.93120 0.87430 0.03800
O 	O 	0.25550 0.66810 0.82120 -0.61100
C 	C 	0.39540 0.68010 0.81810 0.54100
O 	O 	0.49230 0.66360 0.84290 -0.67200
C 	C 	0.44980 0.71610 0.78240 -0.14100
C 	C 	0.34960 0.73390 0.75380 0.00500
C 	C 	0.39840 0.77030 0.72220 0.01000
O 	O 	0.25450 0.54190 0.86550 -0.63700
C 	C 	0.24020 0.40840 0.87560 0.00900
H 	H 	0.24590 0.72310 0.75640 0.04700
H 	H 	0.32730 0.78470 0.70330 0.03100
H 	H 	0.14730 0.43120 0.87430 0.03900
O 	O 	0.25550 0.16810 0.32120 -0.61200
C 	C 	0.39540 0.18010 0.31810 0.54100
O 	O 	0.49230 0.16360 0.34290 -0.67200
C 	C 	0.44980 0.21610 0.28240 -0.14200
C 	C 	0.34960 0.23390 0.25380 0.00600
C 	C 	0.39840 0.27030 0.22220 0.01000
O 	O 	0.25450 0.04190 0.36550 -0.63800
C 	C 	0.24020 0.90840 0.37560 0.00900
H 	H 	0.24590 0.22310 0.25640 0.04600
H 	H 	0.32730 0.28470 0.20330 0.03100
H 	H 	0.14730 0.93120 0.37430 0.04000
O 	O 	0.49450 0.58190 0.32120 -0.61100
C 	C 	0.35460 0.56990 0.31810 0.54100
O 	O 	0.25770 0.58640 0.34290 -0.67100
C 	C 	0.30020 0.53390 0.28240 -0.14100
C 	C 	0.40040 0.51610 0.25380 0.00500
C 	C 	0.35160 0.47970 0.22220 0.01000
O 	O 	0.49550 0.70810 0.36550 -0.63700
C 	C 	0.50980 0.84160 0.37560 0.01000
H 	H 	0.50410 0.52690 0.25640 0.04700
H 	H 	0.42270 0.46530 0.20330 0.03100
H 	H 	0.60270 0.81880 0.37430 0.03900
O 	O 	0.49450 0.08190 0.82120 -0.61000
C 	C 	0.35460 0.06990 0.81810 0.53800
O 	O 	0.25770 0.08640 0.84290 -0.67200
C 	C 	0.30020 0.03390 0.78240 -0.13500
C 	C 	0.40040 0.01610 0.75380 -0.00300
C 	C 	0.35160 0.97970 0.72220 0.01800
O 	O 	0.49550 0.20810 0.86550 -0.63700
C 	C 	0.50980 0.34160 0.87560 0.01000
H 	H 	0.50410 0.02690 0.75640 0.05000
H 	H 	0.42270 0.96530 0.70330 0.02900
H 	H 	0.60270 0.31880 0.87430 0.04000
O 	O 	0.99450 0.58190 0.82120 -0.61100
C 	C 	0.85460 0.56990 0.81810 0.54100
O 	O 	0.75770 0.58640 0.84290 -0.67200
C 	C 	0.80020 0.53390 0.78240 -0.14200
C 	C 	0.90040 0.51610 0.75380 0.00700
C 	C 	0.85160 0.47970 0.72220 0.00900
O 	O 	0.99550 0.70810 0.86550 -0.63700
C 	C 	0.00980 0.84160 0.87560 0.00700
H 	H 	0.00410 0.52690 0.75640 0.04600
H 	H 	0.92270 0.46530 0.70330 0.03200
H 	H 	0.10270 0.81880 0.87430 0.04100
O 	O 	0.99450 0.08190 0.32120 -0.61000
C 	C 	0.85460 0.06990 0.31810 0.54400
O 	O 	0.75770 0.08640 0.34290 -0.67200
C 	C 	0.80020 0.03390 0.28240 -0.14900
C 	C 	0.90040 0.01610 0.25380 0.02000
C 	C 	0.85160 0.97970 0.22220 -0.00200
O 	O 	0.99550 0.20810 0.36550 -0.63600
C 	C 	0.00980 0.34160 0.37560 0.00600
H 	H 	0.00410 0.02690 0.25640 0.04000
H 	H 	0.92270 0.96530 0.20330 0.03400
H 	H 	0.10270 0.31880 0.37430 0.04000
O 	O 	0.49450 0.66810 0.92880 -0.61100
C 	C 	0.35460 0.68010 0.93190 0.53900
O 	O 	0.25770 0.66360 0.90710 -0.67100
C 	C 	0.30020 0.71610 0.96760 -0.13800
C 	C 	0.40040 0.73390 0.99620 0.00100
C 	C 	0.35160 0.77030 0.02780 0.01400
O 	O 	0.49550 0.54190 0.88450 -0.63700
C 	C 	0.50980 0.40840 0.87440 0.00900
H 	H 	0.50410 0.72310 0.99360 0.04800
H 	H 	0.42270 0.78470 0.04670 0.03000
H 	H 	0.60270 0.43120 0.87570 0.04000
O 	O 	0.49450 0.16810 0.42880 -0.61100
C 	C 	0.35460 0.18010 0.43190 0.54100
O 	O 	0.25770 0.16360 0.40710 -0.67200
C 	C 	0.30020 0.21610 0.46760 -0.14300
C 	C 	0.40040 0.23390 0.49620 0.00700
C 	C 	0.35160 0.27030 0.52780 0.00800
O 	O 	0.49550 0.04190 0.38450 -0.63700
C 	C 	0.50980 0.90840 0.37440 0.00900
H 	H 	0.50410 0.22310 0.49360 0.04600
H 	H 	0.42270 0.28470 0.54670 0.03200
H 	H 	0.60270 0.93120 0.37570 0.04000
O 	O 	0.99450 0.66810 0.42880 -0.61100
C 	C 	0.85460 0.68010 0.43190 0.54000
O 	O 	0.75770 0.66360 0.40710 -0.67100
C 	C 	0.80020 0.71610 0.46760 -0.14000
C 	C 	0.90040 0.73390 0.49620 0.00200
C 	C 	0.85160 0.77030 0.52780 0.01200
O 	O 	0.99550 0.54190 0.38450 -0.63700
C 	C 	0.00980 0.40840 0.37440 0.00900
H 	H 	0.00410 0.72310 0.49360 0.04900
H 	H 	0.92270 0.78470 0.54670 0.03000
H 	H 	0.10270 0.43120 0.37570 0.04000
O 	O 	0.99450 0.16810 0.92880 -0.61000
C 	C 	0.85460 0.18010 0.93190 0.54200
O 	O 	0.75770 0.16360 0.90710 -0.67200
C 	C 	0.80020 0.21610 0.96760 -0.14600
C 	C 	0.90040 0.23390 0.99620 0.01500
C 	C 	0.85160 0.27030 0.02780 0.00400
O 	O 	0.99550 0.04190 0.88450 -0.63600
C 	C 	0.00980 0.90840 0.87440 0.01400
H 	H 	0.00410 0.22310 0.99360 0.04200
H 	H 	0.92270 0.28470 0.04670 0.03300
H 	H 	0.10270 0.93120 0.87570 0.03800
O 	O 	0.75550 0.58190 0.92880 -0.61100
C 	C 	0.89540 0.56990 0.93190 0.54000
O 	O 	0.99230 0.58640 0.90710 -0.67100
C 	C 	0.94980 0.53390 0.96760 -0.14000
C 	C 	0.84960 0.51610 0.99620 0.00600
C 	C 	0.89840 0.47970 0.02780 0.00800
O 	O 	0.75450 0.70810 0.88450 -0.63700
C 	C 	0.74020 0.84160 0.87440 0.00700
H 	H 	0.74590 0.52690 0.99360 0.04700
H 	H 	0.82730 0.46530 0.04670 0.03200
H 	H 	0.64730 0.81880 0.87570 0.04000
O 	O 	0.75550 0.08190 0.42880 -0.61100
C 	C 	0.89540 0.06990 0.43190 0.54000
O 	O 	0.99230 0.08640 0.40710 -0.67000
C 	C 	0.94980 0.03390 0.46760 -0.13800
C 	C 	0.84960 0.01610 0.49620 0.00900
C 	C 	0.89840 0.97970 0.52780 0.00200
O 	O 	0.75450 0.20810 0.38450 -0.63700
C 	C 	0.74020 0.34160 0.37440 0.00800
H 	H 	0.74590 0.02690 0.49360 0.04600
H 	H 	0.82730 0.96530 0.54670 0.03300
H 	H 	0.64730 0.31880 0.37570 0.04000
O 	O 	0.25550 0.58190 0.42880 -0.61100
C 	C 	0.39540 0.56990 0.43190 0.54100
O 	O 	0.49230 0.58640 0.40710 -0.67200
C 	C 	0.44980 0.53390 0.46760 -0.14100
C 	C 	0.34960 0.51610 0.49620 0.00500
C 	C 	0.39840 0.47970 0.52780 0.01000
O 	O 	0.25450 0.70810 0.38450 -0.63700
C 	C 	0.24020 0.84160 0.37440 0.01000
H 	H 	0.24590 0.52690 0.49360 0.04700
H 	H 	0.32730 0.46530 0.54670 0.03100
H 	H 	0.14730 0.81880 0.37570 0.04000
O 	O 	0.25550 0.08190 0.92880 -0.61200
C 	C 	0.39540 0.06990 0.93190 0.54100
O 	O 	0.49230 0.08640 0.90710 -0.67200
C 	C 	0.44980 0.03390 0.96760 -0.14200
C 	C 	0.34960 0.01610 0.99620 0.00400
C 	C 	0.39840 0.97970 0.02780 0.01100
O 	O 	0.25450 0.20810 0.88450 -0.63800
C 	C 	0.24020 0.34160 0.87440 0.01000
H 	H 	0.24590 0.02690 0.99360 0.04600
H 	H 	0.32730 0.96530 0.04670 0.03100
H 	H 	0.14730 0.31880 0.87570 0.03900
Sc	Sc	0.37500 0.37500 0.63509 2.35400
Sc	Sc	0.37500 0.87500 0.13509 2.35400
Sc	Sc	0.87500 0.37500 0.13509 2.35400
Sc	Sc	0.87500 0.87500 0.63509 2.35400
Sc	Sc	0.37500 0.37500 0.11491 2.35400
Sc	Sc	0.37500 0.87500 0.61491 2.35400
Sc	Sc	0.87500 0.37500 0.61491 2.35400
Sc	Sc	0.87500 0.87500 0.11491 2.35400
Sc	Sc	0.62500 0.62500 0.36491 2.35400
Sc	Sc	0.62500 0.12500 0.86491 2.35400
Sc	Sc	0.12500 0.62500 0.86491 2.35400
Sc	Sc	0.12500 0.12500 0.36491 2.35400
Sc	Sc	0.62500 0.62500 0.88509 2.35400
Sc	Sc	0.62500 0.12500 0.38509 2.35400
Sc	Sc	0.12500 0.62500 0.38509 2.35400
Sc	Sc	0.12500 0.12500 0.88509 2.35400
C 	C 	0.12500 0.48640 0.62500 0.54700
C 	C 	0.12500 0.55830 0.62500 -0.14600
C 	C 	0.12500 0.98640 0.12500 0.55100
C 	C 	0.12500 0.05830 0.12500 -0.15200
C 	C 	0.62500 0.98640 0.62500 0.54700
C 	C 	0.62500 0.05830 0.62500 -0.14600
C 	C 	0.62500 0.26360 0.62500 0.54800
C 	C 	0.62500 0.19170 0.62500 -0.14700
C 	C 	0.62500 0.76360 0.12500 0.54800
C 	C 	0.62500 0.69170 0.12500 -0.14700
C 	C 	0.62500 0.48640 0.12500 0.54800
C 	C 	0.62500 0.55830 0.12500 -0.14700
C 	C 	0.12500 0.26360 0.12500 0.54700
C 	C 	0.12500 0.19170 0.12500 -0.14600
C 	C 	0.12500 0.76360 0.62500 0.54700
C 	C 	0.12500 0.69170 0.62500 -0.14400
C 	C 	0.87500 0.51360 0.37500 0.54700
C 	C 	0.87500 0.44170 0.37500 -0.14600
C 	C 	0.87500 0.01360 0.87500 0.55100
C 	C 	0.87500 0.94170 0.87500 -0.15200
C 	C 	0.37500 0.73640 0.37500 0.54800
C 	C 	0.37500 0.80830 0.37500 -0.14700
C 	C 	0.37500 0.23640 0.87500 0.54800
C 	C 	0.37500 0.30830 0.87500 -0.14700
C 	C 	0.37500 0.51360 0.87500 0.54800
C 	C 	0.37500 0.44170 0.87500 -0.14700
C 	C 	0.37500 0.01360 0.37500 0.54700
C 	C 	0.37500 0.94170 0.37500 -0.14600
C 	C 	0.87500 0.73640 0.87500 0.54700
C 	C 	0.87500 0.80830 0.87500 -0.14600
C 	C 	0.87500 0.23640 0.37500 0.54700
C 	C 	0.87500 0.30830 0.37500 -0.14400
