data_crystal

_cell_length_a 8.82440
_cell_length_b 20.62230
_cell_length_c 34.12300
_cell_angle_alpha 90.00000
_cell_angle_beta  90.00000
_cell_angle_gamma 90.00000

_symmetry_space_group_name_	'P 1'
_symmetry_space_group_name_H-M	'P 1'

loop_
_symmetry_equiv_pos_as_xyz
  x,y,z

loop_
_atom_site_label
_atom_site_type_symbol
_atom_site_fract_x
_atom_site_fract_y
_atom_site_fract_z
_atom_site_charge
O 	O 	0.24200 0.33260 0.67920 -0.61100
C 	C 	0.10340 0.32000 0.68210 0.55200
O 	O 	0.00810 0.33550 0.65700 -0.67200
C 	C 	0.04950 0.28440 0.71780 -0.15300
C 	C 	0.14980 0.26480 0.74580 0.01300
C 	C 	0.10110 0.23010 0.77790 0.00400
O 	O 	0.24490 0.45750 0.63430 -0.64500
C 	C 	0.25930 0.59149 0.62490 0.01100
H 	H 	0.25350 0.27560 0.74320 0.04300
H 	H 	0.17220 0.21580 0.79680 0.03200
H 	H 	0.35220 0.56870 0.62620 0.03900
O 	O 	0.24200 0.83260 0.17920 -0.61000
C 	C 	0.10340 0.82000 0.18210 0.54800
O 	O 	0.00810 0.83550 0.15700 -0.66900
C 	C 	0.04950 0.78440 0.21780 -0.14100
C 	C 	0.14980 0.76480 0.24580 0.00200
C 	C 	0.10110 0.73010 0.27790 0.01800
O 	O 	0.24490 0.95750 0.13430 -0.64500
C 	C 	0.25930 0.09149 0.12490 0.01300
H 	H 	0.25350 0.77560 0.24320 0.04700
H 	H 	0.17220 0.71580 0.29680 0.02800
H 	H 	0.35220 0.06870 0.12620 0.03800
O 	O 	0.74200 0.33260 0.17920 -0.61000
C 	C 	0.60340 0.32000 0.18210 0.55000
O 	O 	0.50810 0.33550 0.15700 -0.67100
C 	C 	0.54950 0.28440 0.21780 -0.14700
C 	C 	0.64980 0.26480 0.24580 0.00800
C 	C 	0.60110 0.23010 0.27790 0.01200
O 	O 	0.74490 0.45750 0.13430 -0.64500
C 	C 	0.75930 0.59149 0.12490 0.01000
H 	H 	0.75350 0.27560 0.24320 0.04600
H 	H 	0.67220 0.21580 0.29680 0.03000
H 	H 	0.85220 0.56870 0.12620 0.03800
O 	O 	0.74200 0.83260 0.67920 -0.61100
C 	C 	0.60340 0.82000 0.68210 0.55000
O 	O 	0.50810 0.83550 0.65700 -0.67100
C 	C 	0.54950 0.78440 0.71780 -0.14800
C 	C 	0.64980 0.76480 0.74580 0.00800
C 	C 	0.60110 0.73010 0.77790 0.01100
O 	O 	0.74490 0.95750 0.63430 -0.64600
C 	C 	0.75930 0.09149 0.62490 0.01000
H 	H 	0.75350 0.77560 0.74320 0.04500
H 	H 	0.67220 0.71580 0.79680 0.03000
H 	H 	0.85220 0.06870 0.62620 0.03900
O 	O 	0.50800 0.41740 0.67920 -0.61000
C 	C 	0.64660 0.43000 0.68210 0.55000
O 	O 	0.74190 0.41450 0.65700 -0.67100
C 	C 	0.70050 0.46560 0.71780 -0.14700
C 	C 	0.60020 0.48520 0.74580 0.00700
C 	C 	0.64890 0.51990 0.77790 0.01200
O 	O 	0.50510 0.29250 0.63430 -0.64500
C 	C 	0.49070 0.15851 0.62490 0.01100
H 	H 	0.49650 0.47440 0.74320 0.04600
H 	H 	0.57780 0.53420 0.79680 0.03000
H 	H 	0.39780 0.18130 0.62620 0.03800
O 	O 	0.50800 0.91740 0.17920 -0.61000
C 	C 	0.64660 0.93000 0.18210 0.54800
O 	O 	0.74190 0.91450 0.15700 -0.67100
C 	C 	0.70050 0.96560 0.21780 -0.14000
C 	C 	0.60020 0.98520 0.24580 -0.00100
C 	C 	0.64890 0.01990 0.27790 0.02000
O 	O 	0.50510 0.79250 0.13430 -0.64500
C 	C 	0.49070 0.65851 0.12490 0.01100
H 	H 	0.49650 0.97440 0.24320 0.04800
H 	H 	0.57780 0.03420 0.29680 0.02700
H 	H 	0.39780 0.68130 0.12620 0.03900
O 	O 	0.00800 0.41740 0.17920 -0.61000
C 	C 	0.14660 0.43000 0.18210 0.55000
O 	O 	0.24190 0.41450 0.15700 -0.67100
C 	C 	0.20050 0.46560 0.21780 -0.14800
C 	C 	0.10020 0.48520 0.24580 0.00900
C 	C 	0.14890 0.51990 0.27790 0.01100
O 	O 	0.00510 0.29250 0.13430 -0.64500
C 	C 	0.99070 0.15851 0.12490 0.00800
H 	H 	0.99650 0.47440 0.24320 0.04500
H 	H 	0.07780 0.53420 0.29680 0.03000
H 	H 	0.89780 0.18130 0.12620 0.04000
O 	O 	0.00800 0.91740 0.67920 -0.61000
C 	C 	0.14660 0.93000 0.68210 0.55300
O 	O 	0.24190 0.91450 0.65700 -0.67200
C 	C 	0.20050 0.96560 0.71780 -0.15500
C 	C 	0.10020 0.98520 0.74580 0.02300
C 	C 	0.14890 0.01990 0.77790 -0.00100
O 	O 	0.00510 0.79250 0.63430 -0.64300
C 	C 	0.99070 0.65851 0.62490 0.00700
H 	H 	0.99650 0.97440 0.74320 0.03800
H 	H 	0.07780 0.03420 0.79680 0.03300
H 	H 	0.89780 0.68130 0.62620 0.03900
O 	O 	0.50800 0.33260 0.07080 -0.61000
C 	C 	0.64660 0.32000 0.06790 0.54900
O 	O 	0.74190 0.33550 0.09300 -0.67100
C 	C 	0.70050 0.28440 0.03220 -0.14300
C 	C 	0.60020 0.26480 0.00420 0.00400
C 	C 	0.64890 0.23010 0.97210 0.01600
O 	O 	0.50510 0.45750 0.11570 -0.64500
C 	C 	0.49070 0.59149 0.12510 0.01000
H 	H 	0.49650 0.27560 0.00680 0.04700
H 	H 	0.57780 0.21580 0.95320 0.02900
H 	H 	0.39780 0.56870 0.12380 0.03900
O 	O 	0.50800 0.83260 0.57080 -0.61100
C 	C 	0.64660 0.82000 0.56790 0.55100
O 	O 	0.74190 0.83550 0.59300 -0.67200
C 	C 	0.70050 0.78440 0.53220 -0.14900
C 	C 	0.60020 0.76480 0.50420 0.00900
C 	C 	0.64890 0.73010 0.47210 0.01000
O 	O 	0.50510 0.95750 0.61570 -0.64400
C 	C 	0.49070 0.09149 0.62510 0.01000
H 	H 	0.49650 0.77560 0.50680 0.04500
H 	H 	0.57780 0.71580 0.45320 0.03100
H 	H 	0.39780 0.06870 0.62380 0.03900
O 	O 	0.00800 0.33260 0.57080 -0.61000
C 	C 	0.14660 0.32000 0.56790 0.54900
O 	O 	0.24190 0.33550 0.59300 -0.67100
C 	C 	0.20050 0.28440 0.53220 -0.14500
C 	C 	0.10020 0.26480 0.50420 0.00400
C 	C 	0.14890 0.23010 0.47210 0.01400
O 	O 	0.00510 0.45750 0.61570 -0.64400
C 	C 	0.99070 0.59149 0.62510 0.01000
H 	H 	0.99650 0.27560 0.50680 0.04700
H 	H 	0.07780 0.21580 0.45320 0.02800
H 	H 	0.89780 0.56870 0.62380 0.03900
O 	O 	0.00800 0.83260 0.07080 -0.60900
C 	C 	0.14660 0.82000 0.06790 0.55200
O 	O 	0.24190 0.83550 0.09300 -0.67100
C 	C 	0.20050 0.78440 0.03220 -0.15200
C 	C 	0.10020 0.76480 0.00420 0.01700
C 	C 	0.14890 0.73010 0.97210 0.00500
O 	O 	0.00510 0.95750 0.11570 -0.64400
C 	C 	0.99070 0.09149 0.12510 0.01400
H 	H 	0.99650 0.77560 0.00680 0.04000
H 	H 	0.07780 0.71580 0.95320 0.03200
H 	H 	0.89780 0.06870 0.12380 0.03800
O 	O 	0.24200 0.41740 0.07080 -0.61000
C 	C 	0.10340 0.43000 0.06790 0.55000
O 	O 	0.00810 0.41450 0.09300 -0.67100
C 	C 	0.04950 0.46560 0.03220 -0.14600
C 	C 	0.14980 0.48520 0.00420 0.00900
C 	C 	0.10110 0.51990 0.97210 0.00900
O 	O 	0.24490 0.29250 0.11570 -0.64500
C 	C 	0.25930 0.15851 0.12510 0.00800
H 	H 	0.25350 0.47440 0.00680 0.04500
H 	H 	0.17220 0.53420 0.95320 0.03100
H 	H 	0.35220 0.18130 0.12380 0.03900
O 	O 	0.24200 0.91740 0.57080 -0.61000
C 	C 	0.10340 0.93000 0.56790 0.54900
O 	O 	0.00810 0.91450 0.59300 -0.66900
C 	C 	0.04950 0.96560 0.53220 -0.14400
C 	C 	0.14980 0.98520 0.50420 0.01200
C 	C 	0.10110 0.01990 0.47210 0.00400
O 	O 	0.24490 0.79250 0.61570 -0.64400
C 	C 	0.25930 0.65851 0.62510 0.00900
H 	H 	0.25350 0.97440 0.50680 0.04400
H 	H 	0.17220 0.03420 0.45320 0.03200
H 	H 	0.35220 0.68130 0.62380 0.03900
O 	O 	0.74200 0.41740 0.57080 -0.61000
C 	C 	0.60340 0.43000 0.56790 0.55000
O 	O 	0.50810 0.41450 0.59300 -0.67100
C 	C 	0.54950 0.46560 0.53220 -0.14700
C 	C 	0.64980 0.48520 0.50420 0.00800
C 	C 	0.60110 0.51990 0.47210 0.01200
O 	O 	0.74490 0.29250 0.61570 -0.64500
C 	C 	0.75930 0.15851 0.62510 0.01100
H 	H 	0.75350 0.47440 0.50680 0.04500
H 	H 	0.67220 0.53420 0.45320 0.03000
H 	H 	0.85220 0.18130 0.62380 0.03900
O 	O 	0.74200 0.91740 0.07080 -0.61100
C 	C 	0.60340 0.93000 0.06790 0.55000
O 	O 	0.50810 0.91450 0.09300 -0.67100
C 	C 	0.54950 0.96560 0.03220 -0.14800
C 	C 	0.64980 0.98520 0.00420 0.00700
C 	C 	0.60110 0.01990 0.97210 0.01300
O 	O 	0.74490 0.79250 0.11570 -0.64600
C 	C 	0.75930 0.65851 0.12510 0.01100
H 	H 	0.75350 0.97440 0.00680 0.04500
H 	H 	0.67220 0.03420 0.95320 0.03000
H 	H 	0.85220 0.68130 0.12380 0.03800
O 	O 	0.75800 0.66740 0.32080 -0.61100
C 	C 	0.89660 0.68000 0.31790 0.55200
O 	O 	0.99190 0.66450 0.34300 -0.67200
C 	C 	0.95050 0.71560 0.28220 -0.15300
C 	C 	0.85020 0.73520 0.25420 0.01300
C 	C 	0.89890 0.76990 0.22210 0.00400
O 	O 	0.75510 0.54250 0.36570 -0.64500
C 	C 	0.74070 0.40851 0.37510 0.01100
H 	H 	0.74650 0.72440 0.25680 0.04300
H 	H 	0.82780 0.78420 0.20320 0.03200
H 	H 	0.64780 0.43130 0.37380 0.03900
O 	O 	0.75800 0.16740 0.82080 -0.61000
C 	C 	0.89660 0.18000 0.81790 0.54800
O 	O 	0.99190 0.16450 0.84300 -0.66900
C 	C 	0.95050 0.21560 0.78220 -0.14100
C 	C 	0.85020 0.23520 0.75420 0.00200
C 	C 	0.89890 0.26990 0.72210 0.01800
O 	O 	0.75510 0.04250 0.86570 -0.64500
C 	C 	0.74070 0.90851 0.87510 0.01300
H 	H 	0.74650 0.22440 0.75680 0.04700
H 	H 	0.82780 0.28420 0.70320 0.02800
H 	H 	0.64780 0.93130 0.87380 0.03800
O 	O 	0.25800 0.66740 0.82080 -0.61000
C 	C 	0.39660 0.68000 0.81790 0.55000
O 	O 	0.49190 0.66450 0.84300 -0.67100
C 	C 	0.45050 0.71560 0.78220 -0.14700
C 	C 	0.35020 0.73520 0.75420 0.00800
C 	C 	0.39890 0.76990 0.72210 0.01200
O 	O 	0.25510 0.54250 0.86570 -0.64500
C 	C 	0.24070 0.40851 0.87510 0.01000
H 	H 	0.24650 0.72440 0.75680 0.04600
H 	H 	0.32780 0.78420 0.70320 0.03000
H 	H 	0.14780 0.43130 0.87380 0.03800
O 	O 	0.25800 0.16740 0.32080 -0.61100
C 	C 	0.39660 0.18000 0.31790 0.55000
O 	O 	0.49190 0.16450 0.34300 -0.67100
C 	C 	0.45050 0.21560 0.28220 -0.14800
C 	C 	0.35020 0.23520 0.25420 0.00800
C 	C 	0.39890 0.26990 0.22210 0.01100
O 	O 	0.25510 0.04250 0.36570 -0.64600
C 	C 	0.24070 0.90851 0.37510 0.01000
H 	H 	0.24650 0.22440 0.25680 0.04500
H 	H 	0.32780 0.28420 0.20320 0.03000
H 	H 	0.14780 0.93130 0.37380 0.03900
O 	O 	0.49200 0.58260 0.32080 -0.61000
C 	C 	0.35340 0.57000 0.31790 0.55000
O 	O 	0.25810 0.58550 0.34300 -0.67100
C 	C 	0.29950 0.53440 0.28220 -0.14700
C 	C 	0.39980 0.51480 0.25420 0.00700
C 	C 	0.35110 0.48010 0.22210 0.01200
O 	O 	0.49490 0.70750 0.36570 -0.64500
C 	C 	0.50930 0.84149 0.37510 0.01100
H 	H 	0.50350 0.52560 0.25680 0.04600
H 	H 	0.42220 0.46580 0.20320 0.03000
H 	H 	0.60220 0.81870 0.37380 0.03800
O 	O 	0.49200 0.08260 0.82080 -0.61000
C 	C 	0.35340 0.07000 0.81790 0.54800
O 	O 	0.25810 0.08550 0.84300 -0.67100
C 	C 	0.29950 0.03440 0.78220 -0.14000
C 	C 	0.39980 0.01480 0.75420 -0.00100
C 	C 	0.35110 0.98010 0.72210 0.02000
O 	O 	0.49490 0.20750 0.86570 -0.64500
C 	C 	0.50930 0.34149 0.87510 0.01100
H 	H 	0.50350 0.02560 0.75680 0.04800
H 	H 	0.42220 0.96580 0.70320 0.02700
H 	H 	0.60220 0.31870 0.87380 0.03900
O 	O 	0.99200 0.58260 0.82080 -0.61000
C 	C 	0.85340 0.57000 0.81790 0.55000
O 	O 	0.75810 0.58550 0.84300 -0.67100
C 	C 	0.79950 0.53440 0.78220 -0.14800
C 	C 	0.89980 0.51480 0.75420 0.00900
C 	C 	0.85110 0.48010 0.72210 0.01100
O 	O 	0.99490 0.70750 0.86570 -0.64500
C 	C 	0.00930 0.84149 0.87510 0.00800
H 	H 	0.00350 0.52560 0.75680 0.04500
H 	H 	0.92220 0.46580 0.70320 0.03000
H 	H 	0.10220 0.81870 0.87380 0.04000
O 	O 	0.99200 0.08260 0.32080 -0.61000
C 	C 	0.85340 0.07000 0.31790 0.55300
O 	O 	0.75810 0.08550 0.34300 -0.67200
C 	C 	0.79950 0.03440 0.28220 -0.15500
C 	C 	0.89980 0.01480 0.25420 0.02300
C 	C 	0.85110 0.98010 0.22210 -0.00100
O 	O 	0.99490 0.20750 0.36570 -0.64300
C 	C 	0.00930 0.34149 0.37510 0.00700
H 	H 	0.00350 0.02560 0.25680 0.03800
H 	H 	0.92220 0.96580 0.20320 0.03300
H 	H 	0.10220 0.31870 0.37380 0.03900
O 	O 	0.49200 0.66740 0.92920 -0.61000
C 	C 	0.35340 0.68000 0.93210 0.54900
O 	O 	0.25810 0.66450 0.90700 -0.67100
C 	C 	0.29950 0.71560 0.96780 -0.14300
C 	C 	0.39980 0.73520 0.99580 0.00400
C 	C 	0.35110 0.76990 0.02790 0.01600
O 	O 	0.49490 0.54250 0.88430 -0.64500
C 	C 	0.50930 0.40851 0.87490 0.01000
H 	H 	0.50350 0.72440 0.99320 0.04700
H 	H 	0.42220 0.78420 0.04680 0.02900
H 	H 	0.60220 0.43130 0.87620 0.03900
O 	O 	0.49200 0.16740 0.42920 -0.61100
C 	C 	0.35340 0.18000 0.43210 0.55100
O 	O 	0.25810 0.16450 0.40700 -0.67200
C 	C 	0.29950 0.21560 0.46780 -0.14900
C 	C 	0.39980 0.23520 0.49580 0.00900
C 	C 	0.35110 0.26990 0.52790 0.01000
O 	O 	0.49490 0.04250 0.38430 -0.64400
C 	C 	0.50930 0.90851 0.37490 0.01000
H 	H 	0.50350 0.22440 0.49320 0.04500
H 	H 	0.42220 0.28420 0.54680 0.03100
H 	H 	0.60220 0.93130 0.37620 0.03900
O 	O 	0.99200 0.66740 0.42920 -0.61000
C 	C 	0.85340 0.68000 0.43210 0.54900
O 	O 	0.75810 0.66450 0.40700 -0.67100
C 	C 	0.79950 0.71560 0.46780 -0.14500
C 	C 	0.89980 0.73520 0.49580 0.00400
C 	C 	0.85110 0.76990 0.52790 0.01400
O 	O 	0.99490 0.54250 0.38430 -0.64400
C 	C 	0.00930 0.40851 0.37490 0.01000
H 	H 	0.00350 0.72440 0.49320 0.04700
H 	H 	0.92220 0.78420 0.54680 0.02800
H 	H 	0.10220 0.43130 0.37620 0.03900
O 	O 	0.99200 0.16740 0.92920 -0.60900
C 	C 	0.85340 0.18000 0.93210 0.55200
O 	O 	0.75810 0.16450 0.90700 -0.67100
C 	C 	0.79950 0.21560 0.96780 -0.15200
C 	C 	0.89980 0.23520 0.99580 0.01700
C 	C 	0.85110 0.26990 0.02790 0.00500
O 	O 	0.99490 0.04250 0.88430 -0.64400
C 	C 	0.00930 0.90851 0.87490 0.01400
H 	H 	0.00350 0.22440 0.99320 0.04000
H 	H 	0.92220 0.28420 0.04680 0.03200
H 	H 	0.10220 0.93130 0.87620 0.03800
O 	O 	0.75800 0.58260 0.92920 -0.61000
C 	C 	0.89660 0.57000 0.93210 0.55000
O 	O 	0.99190 0.58550 0.90700 -0.67100
C 	C 	0.95050 0.53440 0.96780 -0.14600
C 	C 	0.85020 0.51480 0.99580 0.00900
C 	C 	0.89890 0.48010 0.02790 0.00900
O 	O 	0.75510 0.70750 0.88430 -0.64500
C 	C 	0.74070 0.84149 0.87490 0.00800
H 	H 	0.74650 0.52560 0.99320 0.04500
H 	H 	0.82780 0.46580 0.04680 0.03100
H 	H 	0.64780 0.81870 0.87620 0.03900
O 	O 	0.75800 0.08260 0.42920 -0.61000
C 	C 	0.89660 0.07000 0.43210 0.54900
O 	O 	0.99190 0.08550 0.40700 -0.66900
C 	C 	0.95050 0.03440 0.46780 -0.14400
C 	C 	0.85020 0.01480 0.49580 0.01200
C 	C 	0.89890 0.98010 0.52790 0.00400
O 	O 	0.75510 0.20750 0.38430 -0.64400
C 	C 	0.74070 0.34149 0.37490 0.00900
H 	H 	0.74650 0.02560 0.49320 0.04400
H 	H 	0.82780 0.96580 0.54680 0.03200
H 	H 	0.64780 0.31870 0.37620 0.03900
O 	O 	0.25800 0.58260 0.42920 -0.61000
C 	C 	0.39660 0.57000 0.43210 0.55000
O 	O 	0.49190 0.58550 0.40700 -0.67100
C 	C 	0.45050 0.53440 0.46780 -0.14700
C 	C 	0.35020 0.51480 0.49580 0.00800
C 	C 	0.39890 0.48010 0.52790 0.01200
O 	O 	0.25510 0.70750 0.38430 -0.64500
C 	C 	0.24070 0.84149 0.37490 0.01100
H 	H 	0.24650 0.52560 0.49320 0.04500
H 	H 	0.32780 0.46580 0.54680 0.03000
H 	H 	0.14780 0.81870 0.37620 0.03900
O 	O 	0.25800 0.08260 0.92920 -0.61100
C 	C 	0.39660 0.07000 0.93210 0.55000
O 	O 	0.49190 0.08550 0.90700 -0.67100
C 	C 	0.45050 0.03440 0.96780 -0.14800
C 	C 	0.35020 0.01480 0.99580 0.00700
C 	C 	0.39890 0.98010 0.02790 0.01300
O 	O 	0.25510 0.20750 0.88430 -0.64600
C 	C 	0.24070 0.34149 0.87490 0.01100
H 	H 	0.24650 0.02560 0.99320 0.04500
H 	H 	0.32780 0.96580 0.04680 0.03000
H 	H 	0.14780 0.31870 0.87620 0.03800
Sc	Sc	0.37500 0.37500 0.63518 2.35300
Sc	Sc	0.37500 0.87500 0.13518 2.35300
Sc	Sc	0.87500 0.37500 0.13518 2.35300
Sc	Sc	0.87500 0.87500 0.63518 2.35300
Sc	Sc	0.37500 0.37500 0.11482 2.35300
Sc	Sc	0.37500 0.87500 0.61482 2.35300
Sc	Sc	0.87500 0.37500 0.61482 2.35300
Sc	Sc	0.87500 0.87500 0.11482 2.35300
Sc	Sc	0.62500 0.62500 0.36482 2.35300
Sc	Sc	0.62500 0.12500 0.86482 2.35300
Sc	Sc	0.12500 0.62500 0.86482 2.35300
Sc	Sc	0.12500 0.12500 0.36482 2.35300
Sc	Sc	0.62500 0.62500 0.88518 2.35300
Sc	Sc	0.62500 0.12500 0.38518 2.35300
Sc	Sc	0.12500 0.62500 0.38518 2.35300
Sc	Sc	0.12500 0.12500 0.88518 2.35300
C 	C 	0.12500 0.48600 0.62500 0.55600
C 	C 	0.12500 0.55820 0.62500 -0.14900
C 	C 	0.12500 0.98600 0.12500 0.55900
C 	C 	0.12500 0.05820 0.12500 -0.15500
C 	C 	0.62500 0.98600 0.62500 0.55500
C 	C 	0.62500 0.05820 0.62500 -0.14900
C 	C 	0.62500 0.26400 0.62500 0.55600
C 	C 	0.62500 0.19180 0.62500 -0.15000
C 	C 	0.62500 0.76400 0.12500 0.55600
C 	C 	0.62500 0.69180 0.12500 -0.15000
C 	C 	0.62500 0.48600 0.12500 0.55600
C 	C 	0.62500 0.55820 0.12500 -0.15000
C 	C 	0.12500 0.26400 0.12500 0.55500
C 	C 	0.12500 0.19180 0.12500 -0.14800
C 	C 	0.12500 0.76400 0.62500 0.55500
C 	C 	0.12500 0.69180 0.62500 -0.14700
C 	C 	0.87500 0.51400 0.37500 0.55600
C 	C 	0.87500 0.44180 0.37500 -0.14900
C 	C 	0.87500 0.01400 0.87500 0.55900
C 	C 	0.87500 0.94180 0.87500 -0.15500
C 	C 	0.37500 0.73600 0.37500 0.55600
C 	C 	0.37500 0.80820 0.37500 -0.15000
C 	C 	0.37500 0.23600 0.87500 0.55600
C 	C 	0.37500 0.30820 0.87500 -0.15000
C 	C 	0.37500 0.51400 0.87500 0.55600
C 	C 	0.37500 0.44180 0.87500 -0.15000
C 	C 	0.37500 0.01400 0.37500 0.55500
C 	C 	0.37500 0.94180 0.37500 -0.14900
C 	C 	0.87500 0.73600 0.87500 0.55500
C 	C 	0.87500 0.80820 0.87500 -0.14800
C 	C 	0.87500 0.23600 0.37500 0.55500
C 	C 	0.87500 0.30820 0.37500 -0.14700
