data_crystal

_cell_length_a 16.44400
_cell_length_b 16.44400
_cell_length_c 14.17800
_cell_angle_alpha 90.00000
_cell_angle_beta  90.00000
_cell_angle_gamma 90.00000

_symmetry_space_group_name_	'P 1'
_symmetry_space_group_name_H-M	'P 1'

loop_
_symmetry_equiv_pos_as_xyz
  x,y,z

loop_
_atom_site_label
_atom_site_type_symbol
_atom_site_fract_x
_atom_site_fract_y
_atom_site_fract_z
_atom_site_charge
Co	Co	0.66950 0.34630 0.60730 1.13400
O 	O 	0.67650 0.46840 0.42120 -0.54100
N 	N 	0.67370 0.22270 0.33320 -0.23900
C 	C 	0.62900 0.15770 0.35900 0.07200
C 	C 	0.63600 0.08700 0.30800 -0.15800
C 	C 	0.69400 0.08100 0.24200 0.08600
N 	N 	0.73970 0.14500 0.21730 -0.23800
C 	C 	0.77340 0.28590 0.23530 0.04600
H 	H 	0.89700 0.45800 0.17500 0.08000
H 	H 	0.79800 0.47000 0.29100 -0.01000
H 	H 	0.91030 0.33690 0.09100 -0.00100
Co	Co	0.16950 0.84630 0.10730 1.14000
O 	O 	0.17650 0.96840 0.92120 -0.59600
N 	N 	0.17370 0.72270 0.83320 -0.24500
C 	C 	0.12900 0.65770 0.85900 0.06600
C 	C 	0.13600 0.58700 0.80800 -0.16000
C 	C 	0.19400 0.58100 0.74200 0.07900
N 	N 	0.23970 0.64500 0.71730 -0.24000
C 	C 	0.27340 0.78590 0.73530 0.04000
H 	H 	0.39700 0.95800 0.67500 0.07500
H 	H 	0.29800 0.97000 0.79100 -0.01300
H 	H 	0.41030 0.83690 0.59100 -0.00900
Co	Co	0.33050 0.65370 0.60730 1.13500
O 	O 	0.32350 0.53160 0.42120 -0.54000
N 	N 	0.32630 0.77730 0.33320 -0.23800
C 	C 	0.37100 0.84230 0.35900 0.07300
C 	C 	0.36400 0.91300 0.30800 -0.15800
C 	C 	0.30600 0.91900 0.24200 0.08600
N 	N 	0.26030 0.85500 0.21730 -0.23800
C 	C 	0.22660 0.71410 0.23530 0.04600
H 	H 	0.10300 0.54200 0.17500 0.08000
H 	H 	0.20200 0.53000 0.29100 -0.01000
H 	H 	0.08970 0.66310 0.09100 -0.00100
Co	Co	0.83050 0.15370 0.10730 1.14000
O 	O 	0.82350 0.03160 0.92120 -0.59600
N 	N 	0.82630 0.27730 0.83320 -0.24500
C 	C 	0.87100 0.34230 0.85900 0.06600
C 	C 	0.86400 0.41300 0.80800 -0.16000
C 	C 	0.80600 0.41900 0.74200 0.07900
N 	N 	0.76030 0.35500 0.71730 -0.24000
C 	C 	0.72660 0.21410 0.73530 0.04000
H 	H 	0.60300 0.04200 0.67500 0.07500
H 	H 	0.70200 0.03000 0.79100 -0.01300
H 	H 	0.58970 0.16310 0.59100 -0.00900
Co	Co	0.65370 0.66950 0.60730 1.13500
O 	O 	0.53160 0.67650 0.42120 -0.54000
N 	N 	0.77730 0.67370 0.33320 -0.23800
C 	C 	0.84230 0.62900 0.35900 0.07300
C 	C 	0.91300 0.63600 0.30800 -0.15800
C 	C 	0.91900 0.69400 0.24200 0.08600
N 	N 	0.85500 0.73970 0.21730 -0.23800
C 	C 	0.71410 0.77340 0.23530 0.04600
H 	H 	0.54200 0.89700 0.17500 0.08000
H 	H 	0.53000 0.79800 0.29100 -0.01000
H 	H 	0.66310 0.91030 0.09100 -0.00100
Co	Co	0.15370 0.16950 0.10730 1.14000
O 	O 	0.03160 0.17650 0.92120 -0.59600
N 	N 	0.27730 0.17370 0.83320 -0.24500
C 	C 	0.34230 0.12900 0.85900 0.06600
C 	C 	0.41300 0.13600 0.80800 -0.16000
C 	C 	0.41900 0.19400 0.74200 0.07900
N 	N 	0.35500 0.23970 0.71730 -0.24000
C 	C 	0.21410 0.27340 0.73530 0.04000
H 	H 	0.04200 0.39700 0.67500 0.07500
H 	H 	0.03000 0.29800 0.79100 -0.01300
H 	H 	0.16310 0.41030 0.59100 -0.00900
Co	Co	0.34630 0.33050 0.60730 1.13500
O 	O 	0.46840 0.32350 0.42120 -0.54000
N 	N 	0.22270 0.32630 0.33320 -0.23800
C 	C 	0.15770 0.37100 0.35900 0.07300
C 	C 	0.08700 0.36400 0.30800 -0.15800
C 	C 	0.08100 0.30600 0.24200 0.08600
N 	N 	0.14500 0.26030 0.21730 -0.23800
C 	C 	0.28590 0.22660 0.23530 0.04600
H 	H 	0.45800 0.10300 0.17500 0.08000
H 	H 	0.47000 0.20200 0.29100 -0.01000
H 	H 	0.33690 0.08970 0.09100 -0.00100
Co	Co	0.84630 0.83050 0.10730 1.14000
O 	O 	0.96840 0.82350 0.92120 -0.59600
N 	N 	0.72270 0.82630 0.83320 -0.24500
C 	C 	0.65770 0.87100 0.85900 0.06600
C 	C 	0.58700 0.86400 0.80800 -0.16000
C 	C 	0.58100 0.80600 0.74200 0.07900
N 	N 	0.64500 0.76030 0.71730 -0.24000
C 	C 	0.78590 0.72660 0.73530 0.04000
H 	H 	0.95800 0.60300 0.67500 0.07500
H 	H 	0.97000 0.70200 0.79100 -0.01300
H 	H 	0.83690 0.58970 0.59100 -0.00900
Co	Co	0.33050 0.65370 0.39270 1.13700
O 	O 	0.32350 0.53160 0.57880 -0.54300
N 	N 	0.32630 0.77730 0.66680 -0.23900
C 	C 	0.37100 0.84230 0.64100 0.07100
C 	C 	0.36400 0.91300 0.69200 -0.15900
C 	C 	0.30600 0.91900 0.75800 0.08100
N 	N 	0.26030 0.85500 0.78270 -0.24200
C 	C 	0.22660 0.71410 0.76470 0.03900
H 	H 	0.10300 0.54200 0.82500 0.06800
H 	H 	0.20200 0.53000 0.70900 -0.01200
H 	H 	0.08970 0.66310 0.90900 -0.02500
Co	Co	0.83050 0.15370 0.89270 1.12100
O 	O 	0.82350 0.03160 0.07880 -0.55100
N 	N 	0.82630 0.27730 0.16680 -0.23700
C 	C 	0.87100 0.34230 0.14100 0.07600
C 	C 	0.86400 0.41300 0.19200 -0.15700
C 	C 	0.80600 0.41900 0.25800 0.08700
N 	N 	0.76030 0.35500 0.28270 -0.23800
C 	C 	0.72660 0.21410 0.26470 0.04500
H 	H 	0.60300 0.04200 0.32500 0.07600
H 	H 	0.70200 0.03000 0.20900 -0.00900
H 	H 	0.58970 0.16310 0.40900 -0.00900
Co	Co	0.66950 0.34630 0.39270 1.13700
O 	O 	0.67650 0.46840 0.57880 -0.54300
N 	N 	0.67370 0.22270 0.66680 -0.23900
C 	C 	0.62900 0.15770 0.64100 0.07100
C 	C 	0.63600 0.08700 0.69200 -0.15900
C 	C 	0.69400 0.08100 0.75800 0.08100
N 	N 	0.73970 0.14500 0.78270 -0.24200
C 	C 	0.77340 0.28590 0.76470 0.03900
H 	H 	0.89700 0.45800 0.82500 0.06800
H 	H 	0.79800 0.47000 0.70900 -0.01200
H 	H 	0.91030 0.33690 0.90900 -0.02500
Co	Co	0.16950 0.84630 0.89270 1.12100
O 	O 	0.17650 0.96840 0.07880 -0.55100
N 	N 	0.17370 0.72270 0.16680 -0.23700
C 	C 	0.12900 0.65770 0.14100 0.07600
C 	C 	0.13600 0.58700 0.19200 -0.15700
C 	C 	0.19400 0.58100 0.25800 0.08700
N 	N 	0.23970 0.64500 0.28270 -0.23800
C 	C 	0.27340 0.78590 0.26470 0.04500
H 	H 	0.39700 0.95800 0.32500 0.07600
H 	H 	0.29800 0.97000 0.20900 -0.00900
H 	H 	0.41030 0.83690 0.40900 -0.00900
Co	Co	0.34630 0.33050 0.39270 1.13700
O 	O 	0.46840 0.32350 0.57880 -0.54300
N 	N 	0.22270 0.32630 0.66680 -0.23900
C 	C 	0.15770 0.37100 0.64100 0.07100
C 	C 	0.08700 0.36400 0.69200 -0.15900
C 	C 	0.08100 0.30600 0.75800 0.08100
N 	N 	0.14500 0.26030 0.78270 -0.24200
C 	C 	0.28590 0.22660 0.76470 0.03900
H 	H 	0.45800 0.10300 0.82500 0.06800
H 	H 	0.47000 0.20200 0.70900 -0.01200
H 	H 	0.33690 0.08970 0.90900 -0.02500
Co	Co	0.84630 0.83050 0.89270 1.12100
O 	O 	0.96840 0.82350 0.07880 -0.55100
N 	N 	0.72270 0.82630 0.16680 -0.23700
C 	C 	0.65770 0.87100 0.14100 0.07600
C 	C 	0.58700 0.86400 0.19200 -0.15700
C 	C 	0.58100 0.80600 0.25800 0.08700
N 	N 	0.64500 0.76030 0.28270 -0.23800
C 	C 	0.78590 0.72660 0.26470 0.04500
H 	H 	0.95800 0.60300 0.32500 0.07600
H 	H 	0.97000 0.70200 0.20900 -0.00900
H 	H 	0.83690 0.58970 0.40900 -0.00900
Co	Co	0.65370 0.66950 0.39270 1.13700
O 	O 	0.53160 0.67650 0.57880 -0.54300
N 	N 	0.77730 0.67370 0.66680 -0.23900
C 	C 	0.84230 0.62900 0.64100 0.07100
C 	C 	0.91300 0.63600 0.69200 -0.15900
C 	C 	0.91900 0.69400 0.75800 0.08100
N 	N 	0.85500 0.73970 0.78270 -0.24200
C 	C 	0.71410 0.77340 0.76470 0.03900
H 	H 	0.54200 0.89700 0.82500 0.06800
H 	H 	0.53000 0.79800 0.70900 -0.01200
H 	H 	0.66310 0.91030 0.90900 -0.02500
Co	Co	0.15370 0.16950 0.89270 1.12100
O 	O 	0.03160 0.17650 0.07880 -0.55100
N 	N 	0.27730 0.17370 0.16680 -0.23700
C 	C 	0.34230 0.12900 0.14100 0.07600
C 	C 	0.41300 0.13600 0.19200 -0.15700
C 	C 	0.41900 0.19400 0.25800 0.08700
N 	N 	0.35500 0.23970 0.28270 -0.23800
C 	C 	0.21410 0.27340 0.26470 0.04500
H 	H 	0.04200 0.39700 0.32500 0.07600
H 	H 	0.03000 0.29800 0.20900 -0.00900
H 	H 	0.16310 0.41030 0.40900 -0.00900
O 	O 	0.74660 0.31660 0.50000 -0.65800
O 	O 	0.67730 0.58430 0.50000 -0.60900
C 	C 	0.67700 0.50500 0.50000 0.59200
H 	H 	0.76190 0.26750 0.50000 0.24700
O 	O 	0.24660 0.81660 -0.00000 -0.63500
O 	O 	0.17730 0.08430 -0.00000 -0.60000
C 	C 	0.17700 0.00500 -0.00000 0.65700
H 	H 	0.26190 0.76750 -0.00000 0.25500
O 	O 	0.25340 0.68340 0.50000 -0.65800
O 	O 	0.32270 0.41570 0.50000 -0.60900
C 	C 	0.32300 0.49500 0.50000 0.59200
H 	H 	0.23810 0.73250 0.50000 0.24700
O 	O 	0.75340 0.18340 -0.00000 -0.63500
O 	O 	0.82270 0.91570 -0.00000 -0.60000
C 	C 	0.82300 0.99500 -0.00000 0.65700
H 	H 	0.73810 0.23250 -0.00000 0.25500
O 	O 	0.68340 0.74660 0.50000 -0.65800
O 	O 	0.41570 0.67730 0.50000 -0.60900
C 	C 	0.49500 0.67700 0.50000 0.59200
H 	H 	0.73250 0.76190 0.50000 0.24700
O 	O 	0.18340 0.24660 -0.00000 -0.63500
O 	O 	0.91570 0.17730 -0.00000 -0.60000
C 	C 	0.99500 0.17700 -0.00000 0.65700
H 	H 	0.23250 0.26190 -0.00000 0.25500
O 	O 	0.31660 0.25340 0.50000 -0.65800
O 	O 	0.58430 0.32270 0.50000 -0.60900
C 	C 	0.50500 0.32300 0.50000 0.59200
H 	H 	0.26750 0.23810 0.50000 0.24700
O 	O 	0.81660 0.75340 -0.00000 -0.63500
O 	O 	0.08430 0.82270 -0.00000 -0.60000
C 	C 	0.00500 0.82300 -0.00000 0.65700
H 	H 	0.76750 0.73810 -0.00000 0.25500
