data_crystal

_cell_length_a 11.20150
_cell_length_b 14.96930
_cell_length_c 21.45850
_cell_angle_alpha 90.00000
_cell_angle_beta  92.09800
_cell_angle_gamma 90.00000

_symmetry_space_group_name_	'P 1'
_symmetry_space_group_name_H-M	'P 1'

loop_
_symmetry_equiv_pos_as_xyz
  x,y,z

loop_
_atom_site_label
_atom_site_type_symbol
_atom_site_fract_x
_atom_site_fract_y
_atom_site_fract_z
_atom_site_charge
Cu	Cu	0.59755 0.23778 0.30033 0.85200
C 	C 	0.42690 0.38540 0.29170 0.07900
H 	H 	0.41890 0.38470 0.33470 -0.01500
C 	C 	0.47500 0.35300 0.19920 0.07800
H 	H 	0.50900 0.32360 0.16600 -0.00600
C 	C 	0.31760 0.53160 0.27110 -0.04500
H 	H 	0.25570 0.54570 0.24000 0.04500
H 	H 	0.27940 0.52110 0.31030 0.03900
C 	C 	0.40000 0.60990 0.27850 -0.11100
H 	H 	0.44390 0.61700 0.24070 0.07400
H 	H 	0.35320 0.66350 0.28410 0.06000
C 	C 	0.48940 0.59980 0.33400 -0.09000
H 	H 	0.55570 0.56320 0.32130 0.05600
H 	H 	0.45050 0.56860 0.36730 0.04800
C 	C 	0.53800 0.68730 0.35900 -0.05100
H 	H 	0.57690 0.67710 0.39940 0.04400
H 	H 	0.47160 0.72800 0.36490 0.05000
C 	C 	0.70970 0.69410 0.28620 0.08400
H 	H 	0.72420 0.63330 0.28210 -0.01300
C 	C 	0.72500 0.83300 0.28140 0.09200
H 	H 	0.75390 0.88960 0.27220 -0.00800
C 	C 	0.36770 0.17520 0.35920 0.07800
H 	H 	0.32180 0.17460 0.32220 -0.00900
C 	C 	0.51080 0.19850 0.42780 0.07800
H 	H 	0.58150 0.21590 0.44840 -0.01200
C 	C 	0.42200 0.11550 0.51770 -0.06100
H 	H 	0.34550 0.12630 0.53560 0.05900
H 	H 	0.48320 0.14420 0.54420 0.05100
C 	C 	0.44600 0.01620 0.51560 -0.09400
H 	H 	0.37710 0.98810 0.49520 0.06600
H 	H 	0.45040 0.99460 0.55820 0.06600
C 	C 	0.69390 0.05790 0.33750 0.08000
H 	H 	0.62820 0.03100 0.31740 -0.01200
C 	C 	0.81080 0.15570 0.37300 0.11100
H 	H 	0.84660 0.20980 0.38390 -0.02300
C 	C 	0.96650 0.05530 0.42110 -0.03600
H 	H 	0.00890 0.01010 0.39820 0.05500
H 	H 	0.01750 0.10760 0.42490 0.04300
C 	C 	0.94200 0.02070 0.48480 -0.10600
H 	H 	0.91400 0.06910 0.51060 0.06300
H 	H 	0.87960 0.97570 0.48180 0.06800
N 	N 	0.48540 0.32600 0.25980 -0.24300
N 	N 	0.40700 0.42830 0.19410 -0.09300
N 	N 	0.38000 0.44780 0.25220 -0.09000
N 	N 	0.63130 0.82010 0.31640 -0.10000
N 	N 	0.62090 0.72830 0.31870 -0.09300
N 	N 	0.77520 0.75790 0.26040 -0.24700
N 	N 	0.48090 0.21380 0.36650 -0.23800
N 	N 	0.42340 0.15560 0.45270 -0.09000
N 	N 	0.33600 0.14030 0.41130 -0.09600
N 	N 	0.70830 0.14890 0.34250 -0.24500
N 	N 	0.78270 0.01290 0.36400 -0.09500
N 	N 	0.85650 0.07900 0.38630 -0.10200
Cu	Cu	0.90245 0.73778 0.19967 0.85200
C 	C 	0.07310 0.88540 0.20830 0.08000
H 	H 	0.08110 0.88470 0.16530 -0.01300
C 	C 	0.02500 0.85300 0.30080 0.08400
H 	H 	0.99100 0.82360 0.33400 -0.00900
C 	C 	0.18240 0.03160 0.22890 -0.04900
H 	H 	0.24430 0.04570 0.26000 0.04600
H 	H 	0.22060 0.02110 0.18970 0.04000
C 	C 	0.10000 0.10990 0.22150 -0.10400
H 	H 	0.05610 0.11700 0.25930 0.07100
H 	H 	0.14680 0.16350 0.21590 0.05800
C 	C 	0.01060 0.09980 0.16600 -0.10000
H 	H 	0.94430 0.06320 0.17870 0.06000
H 	H 	0.04950 0.06860 0.13270 0.05000
C 	C 	0.96200 0.18730 0.14100 -0.04400
H 	H 	0.92310 0.17710 0.10060 0.04200
H 	H 	0.02840 0.22800 0.13510 0.04800
C 	C 	0.79030 0.19410 0.21380 0.08500
H 	H 	0.77580 0.13330 0.21790 -0.01400
C 	C 	0.77500 0.33300 0.21860 0.09200
H 	H 	0.74610 0.38960 0.22780 -0.00800
C 	C 	0.13230 0.67520 0.14080 0.07800
H 	H 	0.17820 0.67460 0.17780 -0.00900
C 	C 	0.98920 0.69850 0.07220 0.07300
H 	H 	0.91850 0.71590 0.05160 -0.01000
C 	C 	0.07800 0.61550 0.98230 -0.06200
H 	H 	0.15450 0.62630 0.96440 0.05900
H 	H 	0.01680 0.64420 0.95580 0.05100
C 	C 	0.05400 0.51620 0.98440 -0.09400
H 	H 	0.12290 0.48810 0.00480 0.06700
H 	H 	0.04960 0.49460 0.94180 0.06500
C 	C 	0.80610 0.55790 0.16250 0.08000
H 	H 	0.87180 0.53100 0.18260 -0.01200
C 	C 	0.68920 0.65570 0.12700 0.11000
H 	H 	0.65340 0.70980 0.11610 -0.02300
C 	C 	0.53350 0.55530 0.07890 -0.04500
H 	H 	0.49110 0.51010 0.10180 0.06000
H 	H 	0.48250 0.60760 0.07510 0.04700
C 	C 	0.55800 0.52070 0.01520 -0.10800
H 	H 	0.58600 0.56910 0.98940 0.06300
H 	H 	0.62040 0.47570 0.01820 0.07000
N 	N 	0.01460 0.82600 0.24020 -0.24300
N 	N 	0.09300 0.92830 0.30590 -0.09300
N 	N 	0.12000 0.94780 0.24780 -0.08900
N 	N 	0.86870 0.32010 0.18360 -0.10000
N 	N 	0.87910 0.22830 0.18130 -0.09400
N 	N 	0.72480 0.25790 0.23960 -0.24700
N 	N 	0.01910 0.71380 0.13350 -0.23600
N 	N 	0.07660 0.65560 0.04730 -0.08700
N 	N 	0.16400 0.64030 0.08870 -0.09500
N 	N 	0.79170 0.64890 0.15750 -0.24500
N 	N 	0.71730 0.51290 0.13600 -0.09500
N 	N 	0.64350 0.57900 0.11370 -0.10100
Cu	Cu	0.40245 0.76222 0.69967 0.85300
C 	C 	0.57310 0.61460 0.70830 0.08000
H 	H 	0.58110 0.61530 0.66530 -0.01400
C 	C 	0.52500 0.64700 0.80080 0.07900
H 	H 	0.49100 0.67640 0.83400 -0.00500
C 	C 	0.68240 0.46840 0.72890 -0.04400
H 	H 	0.74430 0.45430 0.76000 0.04500
H 	H 	0.72060 0.47890 0.68970 0.03900
C 	C 	0.60000 0.39010 0.72150 -0.11100
H 	H 	0.55610 0.38300 0.75930 0.07400
H 	H 	0.64680 0.33650 0.71590 0.06000
C 	C 	0.51060 0.40020 0.66600 -0.09000
H 	H 	0.44430 0.43680 0.67870 0.05600
H 	H 	0.54950 0.43140 0.63270 0.04800
C 	C 	0.46200 0.31270 0.64100 -0.05100
H 	H 	0.42310 0.32290 0.60060 0.04400
H 	H 	0.52840 0.27200 0.63510 0.05000
C 	C 	0.29030 0.30590 0.71380 0.08400
H 	H 	0.27580 0.36670 0.71790 -0.01300
C 	C 	0.27500 0.16700 0.71860 0.09200
H 	H 	0.24610 0.11040 0.72780 -0.00800
C 	C 	0.63230 0.82480 0.64080 0.07800
H 	H 	0.67820 0.82540 0.67780 -0.00900
C 	C 	0.48920 0.80150 0.57220 0.07800
H 	H 	0.41850 0.78410 0.55160 -0.01200
C 	C 	0.57800 0.88450 0.48230 -0.06100
H 	H 	0.65450 0.87370 0.46440 0.05900
H 	H 	0.51680 0.85580 0.45580 0.05100
C 	C 	0.55400 0.98380 0.48440 -0.09400
H 	H 	0.62290 0.01190 0.50480 0.06600
H 	H 	0.54960 0.00540 0.44180 0.06600
C 	C 	0.30610 0.94210 0.66250 0.08000
H 	H 	0.37180 0.96900 0.68260 -0.01200
C 	C 	0.18920 0.84430 0.62700 0.11100
H 	H 	0.15340 0.79020 0.61610 -0.02300
C 	C 	0.03350 0.94470 0.57890 -0.03600
H 	H 	0.99110 0.98990 0.60180 0.05500
H 	H 	0.98250 0.89240 0.57510 0.04300
C 	C 	0.05800 0.97930 0.51520 -0.10600
H 	H 	0.08600 0.93090 0.48940 0.06300
H 	H 	0.12040 0.02430 0.51820 0.06800
N 	N 	0.51460 0.67400 0.74020 -0.24300
N 	N 	0.59300 0.57170 0.80590 -0.09300
N 	N 	0.62000 0.55220 0.74780 -0.09000
N 	N 	0.36870 0.17990 0.68360 -0.10000
N 	N 	0.37910 0.27170 0.68130 -0.09300
N 	N 	0.22480 0.24210 0.73960 -0.24700
N 	N 	0.51910 0.78620 0.63350 -0.23800
N 	N 	0.57660 0.84440 0.54730 -0.09000
N 	N 	0.66400 0.85970 0.58870 -0.09600
N 	N 	0.29170 0.85110 0.65750 -0.24500
N 	N 	0.21730 0.98710 0.63600 -0.09500
N 	N 	0.14350 0.92100 0.61370 -0.10200
Cu	Cu	0.09755 0.26222 0.80033 0.85200
C 	C 	0.92690 0.11460 0.79170 0.08000
H 	H 	0.91890 0.11530 0.83470 -0.01300
C 	C 	0.97500 0.14700 0.69920 0.08400
H 	H 	0.00900 0.17640 0.66600 -0.00900
C 	C 	0.81760 0.96840 0.77110 -0.04900
H 	H 	0.75570 0.95430 0.74000 0.04600
H 	H 	0.77940 0.97890 0.81030 0.04000
C 	C 	0.90000 0.89010 0.77850 -0.10400
H 	H 	0.94390 0.88300 0.74070 0.07100
H 	H 	0.85320 0.83650 0.78410 0.05800
C 	C 	0.98940 0.90020 0.83400 -0.10000
H 	H 	0.05570 0.93680 0.82130 0.06000
H 	H 	0.95050 0.93140 0.86730 0.05000
C 	C 	0.03800 0.81270 0.85900 -0.04400
H 	H 	0.07690 0.82290 0.89940 0.04200
H 	H 	0.97160 0.77200 0.86490 0.04800
C 	C 	0.20970 0.80590 0.78620 0.08500
H 	H 	0.22420 0.86670 0.78210 -0.01400
C 	C 	0.22500 0.66700 0.78140 0.09200
H 	H 	0.25390 0.61040 0.77220 -0.00800
C 	C 	0.86770 0.32480 0.85920 0.07800
H 	H 	0.82180 0.32540 0.82220 -0.00900
C 	C 	0.01080 0.30150 0.92780 0.07300
H 	H 	0.08150 0.28410 0.94840 -0.01000
C 	C 	0.92200 0.38450 0.01770 -0.06200
H 	H 	0.84550 0.37370 0.03560 0.05900
H 	H 	0.98320 0.35580 0.04420 0.05100
C 	C 	0.94600 0.48380 0.01560 -0.09400
H 	H 	0.87710 0.51190 0.99520 0.06700
H 	H 	0.95040 0.50540 0.05820 0.06500
C 	C 	0.19390 0.44210 0.83750 0.08000
H 	H 	0.12820 0.46900 0.81740 -0.01200
C 	C 	0.31080 0.34430 0.87300 0.11000
H 	H 	0.34660 0.29020 0.88390 -0.02300
C 	C 	0.46650 0.44470 0.92110 -0.04500
H 	H 	0.50890 0.48990 0.89820 0.06000
H 	H 	0.51750 0.39240 0.92490 0.04700
C 	C 	0.44200 0.47930 0.98480 -0.10800
H 	H 	0.41400 0.43090 0.01060 0.06300
H 	H 	0.37960 0.52430 0.98180 0.07000
N 	N 	0.98540 0.17400 0.75980 -0.24300
N 	N 	0.90700 0.07170 0.69410 -0.09300
N 	N 	0.88000 0.05220 0.75220 -0.08900
N 	N 	0.13130 0.67990 0.81640 -0.10000
N 	N 	0.12090 0.77170 0.81870 -0.09400
N 	N 	0.27520 0.74210 0.76040 -0.24700
N 	N 	0.98090 0.28620 0.86650 -0.23600
N 	N 	0.92340 0.34440 0.95270 -0.08700
N 	N 	0.83600 0.35970 0.91130 -0.09500
N 	N 	0.20830 0.35110 0.84250 -0.24500
N 	N 	0.28270 0.48710 0.86400 -0.09500
N 	N 	0.35650 0.42100 0.88630 -0.10100
