data_crystal

_cell_length_a 7.90300
_cell_length_b 9.35500
_cell_length_c 7.48500
_cell_angle_alpha 90.00000
_cell_angle_beta  118.25000
_cell_angle_gamma 90.00000

_symmetry_space_group_name_	'P 1'
_symmetry_space_group_name_H-M	'P 1'

loop_
_symmetry_equiv_pos_as_xyz
  x,y,z

loop_
_atom_site_label
_atom_site_type_symbol
_atom_site_fract_x
_atom_site_fract_y
_atom_site_fract_z
_atom_site_charge
P 	P 	0.19180 0.48400 0.36830 0.49400
O 	O 	0.18570 0.38850 0.18880 -0.51300
O 	O 	0.06550 0.61140 0.29490 -0.70200
O 	O 	0.14200 0.40720 0.50860 -0.61300
C 	C 	0.42830 0.57190 0.46050 -0.11400
P 	P 	0.80820 0.98400 0.63170 0.48000
O 	O 	0.81430 0.88850 0.81120 -0.51300
O 	O 	0.93450 0.11140 0.70510 -0.69300
O 	O 	0.85800 0.90720 0.49140 -0.61800
C 	C 	0.57170 0.07190 0.53950 -0.11200
P 	P 	0.80820 0.51600 0.63170 0.49500
O 	O 	0.81430 0.61150 0.81120 -0.51200
O 	O 	0.93450 0.38860 0.70510 -0.70200
O 	O 	0.85800 0.59280 0.49140 -0.61300
C 	C 	0.57170 0.42810 0.53950 -0.11400
P 	P 	0.19180 0.01600 0.36830 0.48000
O 	O 	0.18570 0.11150 0.18880 -0.51300
O 	O 	0.06550 0.88860 0.29490 -0.69300
O 	O 	0.14200 0.09280 0.50860 -0.61800
C 	C 	0.42830 0.92810 0.46050 -0.11200
V 	V 	0.96180 0.75000 0.43400 1.73400
O 	O 	0.72850 0.75000 0.10410 -0.47500
V 	V 	0.03820 0.25000 0.56600 1.73400
O 	O 	0.27150 0.25000 0.89590 -0.47500
V 	V 	0.00510 0.25000 0.96080 1.64400
V 	V 	0.99490 0.75000 0.03920 1.64400
