data_crystal

_cell_length_a 10.00490
_cell_length_b 8.27450
_cell_length_c 11.83040
_cell_angle_alpha 90.00000
_cell_angle_beta  103.09300
_cell_angle_gamma 90.00000

_symmetry_space_group_name_	'P 1'
_symmetry_space_group_name_H-M	'P 1'

loop_
_symmetry_equiv_pos_as_xyz
  x,y,z

loop_
_atom_site_label
_atom_site_type_symbol
_atom_site_fract_x
_atom_site_fract_y
_atom_site_fract_z
_atom_site_charge
Zn	Zn	0.32276 0.67570 0.02965 1.22200
Zn	Zn	0.62163 0.65398 0.92951 1.22700
Zn	Zn	0.07314 0.88043 0.33641 1.22300
Zn	Zn	0.33633 0.26391 0.71462 1.23000
P 	P 	0.58300 0.44980 0.12550 0.52100
P 	P 	0.35420 0.86130 0.25930 0.50800
P 	P 	0.07350 0.11100 0.54570 0.57100
P 	P 	0.17330 0.37710 0.89740 0.55500
O 	O 	0.50950 0.58450 0.03980 -0.65400
O 	O 	0.68900 0.36530 0.07010 -0.47600
O 	O 	0.16920 0.53000 0.96860 -0.42500
O 	O 	0.29650 0.71730 0.18300 -0.46700
O 	O 	0.47650 0.33580 0.15480 -0.45500
O 	O 	0.20590 0.23090 0.97690 -0.42600
O 	O 	0.35010 0.01470 0.18840 -0.42700
O 	O 	0.26880 0.88880 0.35040 -0.42400
O 	O 	0.02660 0.07270 0.41710 -0.37400
O 	O 	0.03210 0.34990 0.81880 -0.43400
O 	O 	0.95360 0.16510 0.59570 -0.38600
O 	O 	0.12700 0.94480 0.60580 -0.29100
O 	O 	0.19060 0.23180 0.56820 -0.41800
O 	O 	0.28540 0.40220 0.82860 -0.52600
O 	O 	0.49890 0.82390 0.32880 -0.45500
O 	O 	0.65820 0.53290 0.23860 -0.39700
Zn	Zn	0.67724 0.17570 0.97035 1.22800
Zn	Zn	0.37837 0.15398 0.07049 1.23600
Zn	Zn	0.92686 0.38043 0.66359 1.23900
Zn	Zn	0.66367 0.76391 0.28538 1.22500
P 	P 	0.41700 0.94980 0.87450 0.41400
P 	P 	0.64580 0.36130 0.74070 0.56500
P 	P 	0.92650 0.61100 0.45430 0.52300
P 	P 	0.82670 0.87710 0.10260 0.50000
O 	O 	0.49050 0.08450 0.96020 -0.59500
O 	O 	0.31100 0.86530 0.92990 -0.49700
O 	O 	0.83080 0.03000 0.03140 -0.35800
O 	O 	0.70350 0.21730 0.81700 -0.45400
O 	O 	0.52350 0.83580 0.84520 -0.47100
O 	O 	0.79410 0.73090 0.02310 -0.44200
O 	O 	0.64990 0.51470 0.81160 -0.50200
O 	O 	0.73120 0.38880 0.64960 -0.39900
O 	O 	0.97340 0.57270 0.58290 -0.41500
O 	O 	0.96790 0.84990 0.18120 -0.44900
O 	O 	0.04640 0.66510 0.40430 -0.40500
O 	O 	0.87300 0.44480 0.39420 -0.21700
O 	O 	0.80940 0.73180 0.43180 -0.43600
O 	O 	0.71460 0.90220 0.17140 -0.54900
O 	O 	0.50110 0.32390 0.67120 -0.43700
O 	O 	0.34180 0.03290 0.76140 -0.32600
