data_crystal

_cell_length_a 10.02100
_cell_length_b 8.28600
_cell_length_c 11.85600
_cell_angle_alpha 90.00000
_cell_angle_beta  103.13000
_cell_angle_gamma 90.00000

_symmetry_space_group_name_	'P 1'
_symmetry_space_group_name_H-M	'P 1'

loop_
_symmetry_equiv_pos_as_xyz
  x,y,z

loop_
_atom_site_label
_atom_site_type_symbol
_atom_site_fract_x
_atom_site_fract_y
_atom_site_fract_z
_atom_site_charge
Zn	Zn	0.67730 0.53030 0.47040 1.22500
Zn	Zn	0.62190 0.05210 0.42960 1.19000
Zn	Zn	0.92680 0.32540 0.16320 1.23300
Zn	Zn	0.66370 0.94220 0.78580 1.24800
P 	P 	0.64560 0.34440 0.24040 0.55200
P 	P 	0.58280 0.25650 0.62580 0.53300
P 	P 	0.92700 0.09540 0.95500 0.45700
P 	P 	0.82690 0.82870 0.60290 0.53800
O 	O 	0.70580 0.48970 0.31730 -0.45400
O 	O 	0.82980 0.67430 0.53020 -0.41900
O 	O 	0.68730 0.33860 0.56910 -0.50300
O 	O 	0.50960 0.12370 0.54030 -0.69900
O 	O 	0.65000 0.19110 0.31090 -0.53200
O 	O 	0.47790 0.36850 0.65530 -0.48000
O 	O 	0.79630 0.97780 0.52310 -0.36200
O 	O 	0.73020 0.31880 0.14710 -0.42300
O 	O 	0.96890 0.85670 0.68200 -0.40700
O 	O 	0.97120 0.13360 0.08190 -0.45200
O 	O 	0.04820 0.03960 0.90470 -0.45700
O 	O 	0.71650 0.80420 0.67260 -0.50600
O 	O 	0.50130 0.38330 0.17200 -0.46100
O 	O 	0.65890 0.17410 0.73900 -0.46300
O 	O 	0.80800 0.97420 0.93110 -0.33700
O 	O 	0.87400 0.26010 0.89350 -0.43600
H 	H 	0.80980 0.29380 0.91900 0.24300
Zn	Zn	0.32270 0.03030 0.52960 1.18500
Zn	Zn	0.37810 0.55210 0.57040 1.22700
Zn	Zn	0.07320 0.82540 0.83680 1.25000
Zn	Zn	0.33630 0.44220 0.21420 1.22600
P 	P 	0.35440 0.84440 0.75960 0.55200
P 	P 	0.41720 0.75650 0.37420 0.53300
P 	P 	0.07300 0.59540 0.04500 0.55200
P 	P 	0.17310 0.32870 0.39710 0.53700
O 	O 	0.29420 0.98970 0.68270 -0.39100
O 	O 	0.17020 0.17430 0.46980 -0.46500
O 	O 	0.31270 0.83860 0.43090 -0.44300
O 	O 	0.49040 0.62370 0.45970 -0.64900
O 	O 	0.35000 0.69110 0.68910 -0.49200
O 	O 	0.52210 0.86850 0.34470 -0.41500
O 	O 	0.20370 0.47780 0.47690 -0.43400
O 	O 	0.26980 0.81880 0.85290 -0.38800
O 	O 	0.03110 0.35670 0.31800 -0.44300
O 	O 	0.02880 0.63360 0.91810 -0.42500
O 	O 	0.95180 0.53960 0.09530 -0.39500
O 	O 	0.28350 0.30420 0.32740 -0.54000
O 	O 	0.49870 0.88330 0.82800 -0.42200
O 	O 	0.34110 0.67410 0.26100 -0.39900
O 	O 	0.19200 0.47420 0.06890 -0.44000
O 	O 	0.12600 0.76010 0.10650 -0.41700
H 	H 	0.19020 0.79380 0.08100 0.26800
