data_crystal

_cell_length_a 18.11900
_cell_length_b 17.22940
_cell_length_c 13.47800
_cell_angle_alpha 90.00000
_cell_angle_beta  129.38000
_cell_angle_gamma 90.00000

_symmetry_space_group_name_	'P 1'
_symmetry_space_group_name_H-M	'P 1'

loop_
_symmetry_equiv_pos_as_xyz
  x,y,z

loop_
_atom_site_label
_atom_site_type_symbol
_atom_site_fract_x
_atom_site_fract_y
_atom_site_fract_z
_atom_site_charge
O 	O 	0.23013 0.18662 0.35500 -0.46300
O 	O 	0.07555 0.20013 0.18620 -0.50900
O 	O 	0.23052 0.85104 0.06190 -0.49900
O 	O 	0.08837 0.88808 0.88000 -0.53200
O 	O 	0.09988 0.27906 0.38970 -0.45500
N 	N 	0.07407 0.33972 0.42280 -0.06100
C 	C 	0.16170 0.10198 0.17720 -0.04200
C 	C 	0.23960 0.05230 0.24400 -0.06200
H 	H 	0.29400 0.06500 0.33500 0.06900
C 	C 	0.24070 0.98710 0.18560 0.04700
H 	H 	0.29100 0.95300 0.22700 0.03000
C 	C 	0.16460 0.97055 0.05860 -0.18800
C 	C 	0.08780 0.02130 0.99150 0.11000
H 	H 	0.03800 0.00800 0.91500 -0.01000
C 	C 	0.08610 0.08580 0.05050 -0.13400
H 	H 	0.04100 0.12300 0.01300 0.07100
C 	C 	0.15640 0.16822 0.24510 0.37900
C 	C 	0.16100 0.89730 0.99470 0.47300
C 	C 	0.08620 0.41130 0.39770 0.02600
H 	H 	0.11100 0.41700 0.36500 0.03500
C 	C 	0.05690 0.47490 0.42540 -0.13500
H 	H 	0.06600 0.52100 0.40400 0.06800
C 	C 	0.01540 0.46580 0.48330 0.05400
C 	C 	0.00730 0.39090 0.51210 -0.24900
H 	H 	0.97500 0.37800 0.54500 0.16500
C 	C 	0.03680 0.32860 0.48150 0.09100
H 	H 	0.02900 0.28000 0.48900 -0.00400
O 	O 	0.73013 0.68662 0.35500 -0.45700
O 	O 	0.57555 0.70013 0.18620 -0.47700
O 	O 	0.73052 0.35104 0.06190 -0.49500
O 	O 	0.58837 0.38808 0.88000 -0.50700
O 	O 	0.59988 0.77906 0.38970 -0.44300
N 	N 	0.57407 0.83972 0.42280 -0.03400
C 	C 	0.66170 0.60198 0.17720 -0.03500
C 	C 	0.73960 0.55230 0.24400 -0.05200
H 	H 	0.79400 0.56500 0.33500 0.06900
C 	C 	0.74070 0.48710 0.18560 0.04300
H 	H 	0.79100 0.45300 0.22700 0.04200
C 	C 	0.66460 0.47055 0.05860 -0.17800
C 	C 	0.58780 0.52130 0.99150 0.11100
H 	H 	0.53800 0.50800 0.91500 0.01200
C 	C 	0.58610 0.58580 0.05050 -0.12200
H 	H 	0.54100 0.62300 0.01300 0.08800
C 	C 	0.65640 0.66822 0.24510 0.37700
C 	C 	0.66100 0.39730 0.99470 0.47500
C 	C 	0.58620 0.91130 0.39770 0.00200
H 	H 	0.61100 0.91700 0.36500 0.05600
C 	C 	0.55690 0.97490 0.42540 -0.08700
H 	H 	0.56600 0.02100 0.40400 0.06500
C 	C 	0.51540 0.96580 0.48330 0.02900
C 	C 	0.50730 0.89090 0.51210 -0.06600
H 	H 	0.47500 0.87800 0.54500 0.05600
C 	C 	0.53680 0.82860 0.48150 0.00100
H 	H 	0.52900 0.78000 0.48900 0.05800
O 	O 	0.76987 0.18662 0.14500 -0.46600
O 	O 	0.92445 0.20013 0.31380 -0.44600
O 	O 	0.76948 0.85104 0.43810 -0.46500
O 	O 	0.91163 0.88808 0.62000 -0.46500
O 	O 	0.90012 0.27906 0.11030 -0.43700
N 	N 	0.92593 0.33972 0.07720 0.02200
C 	C 	0.83830 0.10198 0.32280 -0.09300
C 	C 	0.76040 0.05230 0.25600 0.01000
H 	H 	0.70600 0.06500 0.16500 0.04500
C 	C 	0.75930 0.98710 0.31440 -0.03600
H 	H 	0.70900 0.95300 0.27300 0.06300
C 	C 	0.83540 0.97055 0.44140 -0.05500
C 	C 	0.91220 0.02130 0.50850 -0.04600
H 	H 	0.96200 0.00800 0.58500 0.09300
C 	C 	0.91390 0.08580 0.44950 0.01300
H 	H 	0.95900 0.12300 0.48700 0.06600
C 	C 	0.84360 0.16822 0.25490 0.39600
C 	C 	0.83900 0.89730 0.50530 0.40300
C 	C 	0.91380 0.41130 0.10230 -0.09900
H 	H 	0.88900 0.41700 0.13500 0.11100
C 	C 	0.94310 0.47490 0.07460 0.05500
H 	H 	0.93400 0.52100 0.09600 0.02300
C 	C 	0.98460 0.46580 0.01670 -0.11800
C 	C 	0.99270 0.39090 0.98790 0.24000
H 	H 	0.02500 0.37800 0.95500 -0.08900
C 	C 	0.96320 0.32860 0.01850 -0.18300
H 	H 	0.97100 0.28000 0.01100 0.15100
O 	O 	0.26987 0.68662 0.14500 -0.47000
O 	O 	0.42445 0.70013 0.31380 -0.48000
O 	O 	0.26948 0.35104 0.43810 -0.47300
O 	O 	0.41163 0.38808 0.62000 -0.49300
O 	O 	0.40012 0.77906 0.11030 -0.45100
N 	N 	0.42593 0.83972 0.07720 -0.00400
C 	C 	0.33830 0.60198 0.32280 -0.09600
C 	C 	0.26040 0.55230 0.25600 -0.00000
H 	H 	0.20600 0.56500 0.16500 0.04600
C 	C 	0.25930 0.48710 0.31440 -0.03000
H 	H 	0.20900 0.45300 0.27300 0.05000
C 	C 	0.33540 0.47055 0.44140 -0.07600
C 	C 	0.41220 0.52130 0.50850 -0.03800
H 	H 	0.46200 0.50800 0.58500 0.06700
C 	C 	0.41390 0.58580 0.44950 -0.00500
H 	H 	0.45900 0.62300 0.48700 0.05000
C 	C 	0.34360 0.66822 0.25490 0.39800
C 	C 	0.33900 0.39730 0.50530 0.40900
C 	C 	0.41380 0.91130 0.10230 -0.08200
H 	H 	0.38900 0.91700 0.13500 0.09200
C 	C 	0.44310 0.97490 0.07460 0.01700
H 	H 	0.43400 0.02100 0.09600 0.02000
C 	C 	0.48460 0.96580 0.01670 -0.09900
C 	C 	0.49270 0.89090 0.98790 0.05600
H 	H 	0.52500 0.87800 0.95500 0.01900
C 	C 	0.46320 0.82860 0.01850 -0.09100
H 	H 	0.47100 0.78000 0.01100 0.08900
O 	O 	0.76987 0.81338 0.64500 -0.46500
O 	O 	0.92445 0.79987 0.81380 -0.44800
O 	O 	0.76948 0.14896 0.93810 -0.43500
O 	O 	0.91163 0.11192 0.12000 -0.45300
O 	O 	0.90012 0.72094 0.61030 -0.43000
N 	N 	0.92593 0.66028 0.57720 -0.00800
C 	C 	0.83830 0.89802 0.82280 -0.15100
C 	C 	0.76040 0.94770 0.75600 0.07500
H 	H 	0.70600 0.93500 0.66500 0.03100
C 	C 	0.75930 0.01290 0.81440 -0.11500
H 	H 	0.70900 0.04700 0.77300 0.09300
C 	C 	0.83540 0.02945 0.94140 0.05200
C 	C 	0.91220 0.97870 0.00850 -0.19300
H 	H 	0.96200 0.99200 0.08500 0.14700
C 	C 	0.91390 0.91420 0.94950 0.13000
H 	H 	0.95900 0.87700 0.98700 0.02700
C 	C 	0.84360 0.83178 0.75490 0.41800
C 	C 	0.83900 0.10270 0.00530 0.33400
C 	C 	0.91380 0.58870 0.60230 -0.02000
H 	H 	0.88900 0.58300 0.63500 0.07600
C 	C 	0.94310 0.52510 0.57460 -0.04400
H 	H 	0.93400 0.47900 0.59600 0.06400
C 	C 	0.98460 0.53420 0.51670 0.00600
C 	C 	0.99270 0.60910 0.48790 0.11400
H 	H 	0.02500 0.62200 0.45500 -0.05200
C 	C 	0.96320 0.67140 0.51850 -0.09000
H 	H 	0.97100 0.72000 0.51100 0.11900
O 	O 	0.26987 0.31338 0.64500 -0.47000
O 	O 	0.42445 0.29987 0.81380 -0.48200
O 	O 	0.26948 0.64896 0.93810 -0.44600
O 	O 	0.41163 0.61192 0.12000 -0.48100
O 	O 	0.40012 0.22094 0.61030 -0.44500
N 	N 	0.42593 0.16028 0.57720 -0.03500
C 	C 	0.33830 0.39802 0.82280 -0.15400
C 	C 	0.26040 0.44770 0.75600 0.06200
H 	H 	0.20600 0.43500 0.66500 0.03200
C 	C 	0.25930 0.51290 0.81440 -0.10500
H 	H 	0.20900 0.54700 0.77300 0.07900
C 	C 	0.33540 0.52945 0.94140 0.02900
C 	C 	0.41220 0.47870 0.00850 -0.18500
H 	H 	0.46200 0.49200 0.08500 0.12000
C 	C 	0.41390 0.41420 0.94950 0.11300
H 	H 	0.45900 0.37700 0.98700 0.01200
C 	C 	0.34360 0.33178 0.75490 0.42000
C 	C 	0.33900 0.60270 0.00530 0.34600
C 	C 	0.41380 0.08870 0.60230 0.00100
H 	H 	0.38900 0.08300 0.63500 0.05500
C 	C 	0.44310 0.02510 0.57460 -0.09000
H 	H 	0.43400 0.97900 0.59600 0.06500
C 	C 	0.48460 0.03420 0.51670 0.02900
C 	C 	0.49270 0.10910 0.48790 -0.06800
H 	H 	0.52500 0.12200 0.45500 0.05700
C 	C 	0.46320 0.17140 0.51850 -0.00100
H 	H 	0.47100 0.22000 0.51100 0.05700
O 	O 	0.23013 0.81338 0.85500 -0.46100
O 	O 	0.07555 0.79987 0.68620 -0.51200
O 	O 	0.23052 0.14896 0.56190 -0.47400
O 	O 	0.08837 0.11192 0.38000 -0.52000
O 	O 	0.09988 0.72094 0.88970 -0.45000
N 	N 	0.07407 0.66028 0.92280 -0.08900
C 	C 	0.16170 0.89802 0.67720 -0.09900
C 	C 	0.23960 0.94770 0.74400 -0.00100
H 	H 	0.29400 0.93500 0.83500 0.05500
C 	C 	0.24070 0.01290 0.68560 -0.02600
H 	H 	0.29100 0.04700 0.72700 0.05900
C 	C 	0.16460 0.02945 0.55860 -0.08800
C 	C 	0.08780 0.97870 0.49150 -0.03500
H 	H 	0.03800 0.99200 0.41500 0.04200
C 	C 	0.08610 0.91420 0.55050 -0.01800
H 	H 	0.04100 0.87700 0.51300 0.03200
C 	C 	0.15640 0.83178 0.74510 0.40000
C 	C 	0.16100 0.10270 0.49470 0.41300
C 	C 	0.08620 0.58870 0.89770 0.10000
H 	H 	0.11100 0.58300 0.86500 0.00200
C 	C 	0.05690 0.52510 0.92540 -0.22900
H 	H 	0.06600 0.47900 0.90400 0.10700
C 	C 	0.01540 0.53420 0.98330 0.17100
C 	C 	0.00730 0.60910 0.01210 -0.36000
H 	H 	0.97500 0.62200 0.04500 0.19600
C 	C 	0.03680 0.67140 0.98150 0.17200
H 	H 	0.02900 0.72000 0.98900 -0.03200
O 	O 	0.73013 0.31338 0.85500 -0.45600
O 	O 	0.57555 0.29987 0.68620 -0.47900
O 	O 	0.73052 0.64896 0.56190 -0.46600
O 	O 	0.58837 0.61192 0.38000 -0.49500
O 	O 	0.59988 0.22094 0.88970 -0.43600
N 	N 	0.57407 0.16028 0.92280 -0.06600
C 	C 	0.66170 0.39802 0.67720 -0.09500
C 	C 	0.73960 0.44770 0.74400 0.01200
H 	H 	0.79400 0.43500 0.83500 0.05500
C 	C 	0.74070 0.51290 0.68560 -0.03500
H 	H 	0.79100 0.54700 0.72700 0.07200
C 	C 	0.66460 0.52945 0.55860 -0.06800
C 	C 	0.58780 0.47870 0.49150 -0.04100
H 	H 	0.53800 0.49200 0.41500 0.06600
C 	C 	0.58610 0.41420 0.55050 -0.00100
H 	H 	0.54100 0.37700 0.51300 0.04800
C 	C 	0.65640 0.33178 0.74510 0.39900
C 	C 	0.66100 0.60270 0.49470 0.40800
C 	C 	0.58620 0.08870 0.89770 0.08600
H 	H 	0.61100 0.08300 0.86500 0.01900
C 	C 	0.55690 0.02510 0.92540 -0.19200
H 	H 	0.56600 0.97900 0.90400 0.10800
C 	C 	0.51540 0.03420 0.98330 0.16000
C 	C 	0.50730 0.10910 0.01210 -0.20000
H 	H 	0.47500 0.12200 0.04500 0.09500
C 	C 	0.53680 0.17140 0.98150 0.09800
H 	H 	0.52900 0.22000 0.98900 0.02400
Mg	Mg	0.25000 0.25000 0.50000 1.47700
Mg	Mg	0.75000 0.25000 -0.00000 1.47500
Mg	Mg	0.75000 0.75000 0.50000 1.47700
Mg	Mg	0.25000 0.75000 -0.00000 1.47500
Mg	Mg	0.00000 0.19470 0.25000 1.47200
Mg	Mg	0.50000 0.69470 0.25000 1.47800
Mg	Mg	0.00000 0.80530 0.75000 1.47200
Mg	Mg	0.50000 0.30530 0.75000 1.47800
