data_crystal

_cell_length_a 18.51000
_cell_length_b 16.89400
_cell_length_c 13.92400
_cell_angle_alpha 90.00000
_cell_angle_beta  130.54200
_cell_angle_gamma 90.00000

_symmetry_space_group_name_	'P 1'
_symmetry_space_group_name_H-M	'P 1'

loop_
_symmetry_equiv_pos_as_xyz
  x,y,z

loop_
_atom_site_label
_atom_site_type_symbol
_atom_site_fract_x
_atom_site_fract_y
_atom_site_fract_z
_atom_site_charge
O 	O 	0.58840 0.39131 0.38060 -0.49900
O 	O 	0.73061 0.35318 0.55848 -0.47200
O 	O 	0.57600 0.69797 0.69239 -0.48600
O 	O 	0.73030 0.68590 0.85797 -0.45700
O 	O 	0.40079 0.21990 0.11233 -0.44000
N 	N 	0.42669 0.15949 0.07910 -0.02100
C 	C 	0.66494 0.47305 0.55860 -0.09000
C 	C 	0.58830 0.52371 0.49450 -0.01200
H 	H 	0.53700 0.51490 0.40940 0.05200
C 	C 	0.58670 0.58751 0.55530 -0.01400
H 	H 	0.53400 0.62070 0.51090 0.05000
C 	C 	0.66245 0.60262 0.68090 -0.08400
C 	C 	0.73980 0.55330 0.74360 -0.01100
H 	H 	0.79230 0.56350 0.82770 0.06200
C 	C 	0.74100 0.48842 0.68370 -0.01100
H 	H 	0.79360 0.45510 0.72830 0.06300
C 	C 	0.66110 0.40000 0.49380 0.42200
C 	C 	0.65645 0.66775 0.74930 0.40600
C 	C 	0.46300 0.17348 0.02320 -0.05500
H 	H 	0.46840 0.22520 0.00560 0.06600
C 	C 	0.49220 0.11144 0.99190 0.03600
H 	H 	0.51740 0.12170 0.95330 0.02500
C 	C 	0.48461 0.03385 0.01700 -0.08700
C 	C 	0.44400 0.02244 0.07170 -0.01400
H 	H 	0.43640 0.97130 0.08860 0.02800
C 	C 	0.41490 0.08566 0.10120 -0.02400
H 	H 	0.38690 0.07710 0.13660 0.06100
O 	O 	0.08840 0.89131 0.38060 -0.52400
O 	O 	0.23061 0.85318 0.55848 -0.48000
O 	O 	0.07600 0.19797 0.69239 -0.51700
O 	O 	0.23030 0.18590 0.85797 -0.46200
O 	O 	0.90079 0.71990 0.11233 -0.42500
N 	N 	0.92669 0.65949 0.07910 0.00000
C 	C 	0.16494 0.97305 0.55860 -0.10500
C 	C 	0.08830 0.02371 0.49450 -0.01300
H 	H 	0.03700 0.01490 0.40940 0.03100
C 	C 	0.08670 0.08751 0.55530 -0.02300
H 	H 	0.03400 0.12070 0.51090 0.03000
C 	C 	0.16245 0.10262 0.68090 -0.09200
C 	C 	0.23980 0.05330 0.74360 -0.01900
H 	H 	0.29230 0.06350 0.82770 0.06100
C 	C 	0.24100 0.98842 0.68370 -0.00800
H 	H 	0.29360 0.95510 0.72830 0.05100
C 	C 	0.16110 0.90000 0.49380 0.42600
C 	C 	0.15645 0.16775 0.74930 0.40900
C 	C 	0.96300 0.67348 0.02320 -0.13500
H 	H 	0.96840 0.72520 0.00560 0.11800
C 	C 	0.99220 0.61144 0.99190 0.22100
H 	H 	0.01740 0.62170 0.95330 -0.08800
C 	C 	0.98461 0.53385 0.01700 -0.10500
C 	C 	0.94400 0.52244 0.07170 0.01200
H 	H 	0.93640 0.47130 0.08860 0.03500
C 	C 	0.91490 0.58566 0.10120 -0.03000
H 	H 	0.88690 0.57710 0.13660 0.07300
O 	O 	0.41160 0.39131 0.11940 -0.48500
O 	O 	0.26939 0.35318 0.94152 -0.44900
O 	O 	0.42400 0.69797 0.80761 -0.49100
O 	O 	0.26970 0.68590 0.64203 -0.47200
O 	O 	0.59921 0.21990 0.38767 -0.43400
N 	N 	0.57331 0.15949 0.42090 -0.04300
C 	C 	0.33506 0.47305 0.94140 0.00800
C 	C 	0.41170 0.52371 0.00550 -0.13800
H 	H 	0.46300 0.51490 0.09060 0.09200
C 	C 	0.41330 0.58751 0.94470 0.08400
H 	H 	0.46600 0.62070 0.98910 0.02200
C 	C 	0.33755 0.60262 0.81910 -0.14100
C 	C 	0.26020 0.55330 0.75640 0.04400
H 	H 	0.20770 0.56350 0.67230 0.03500
C 	C 	0.25900 0.48842 0.81630 -0.08200
H 	H 	0.20640 0.45510 0.77170 0.06900
C 	C 	0.33890 0.40000 0.00620 0.35500
C 	C 	0.34355 0.66775 0.75070 0.42700
C 	C 	0.53700 0.17348 0.47680 0.02600
H 	H 	0.53160 0.22520 0.49440 0.04500
C 	C 	0.50780 0.11144 0.50810 -0.08800
H 	H 	0.48260 0.12170 0.54670 0.06400
C 	C 	0.51539 0.03385 0.48300 0.03400
C 	C 	0.55600 0.02244 0.42830 -0.09000
H 	H 	0.56360 0.97130 0.41140 0.06100
C 	C 	0.58510 0.08566 0.39880 0.02700
H 	H 	0.61310 0.07710 0.36340 0.04400
O 	O 	0.91160 0.89131 0.11940 -0.45800
O 	O 	0.76939 0.85318 0.94152 -0.43900
O 	O 	0.92400 0.19797 0.80761 -0.45800
O 	O 	0.76970 0.18590 0.64203 -0.46700
O 	O 	0.09921 0.71990 0.38767 -0.44700
N 	N 	0.07331 0.65949 0.42090 -0.06500
C 	C 	0.83506 0.97305 0.94140 0.02700
C 	C 	0.91170 0.02371 0.00550 -0.13600
H 	H 	0.96300 0.01490 0.09060 0.11400
C 	C 	0.91330 0.08751 0.94470 0.09400
H 	H 	0.96600 0.12070 0.98910 0.04100
C 	C 	0.83755 0.10262 0.81910 -0.13500
C 	C 	0.76020 0.05330 0.75640 0.05600
H 	H 	0.70770 0.06350 0.67230 0.03400
C 	C 	0.75900 0.98842 0.81630 -0.09100
H 	H 	0.70640 0.95510 0.77170 0.08200
C 	C 	0.83890 0.90000 0.00620 0.34400
C 	C 	0.84355 0.16775 0.75070 0.42400
C 	C 	0.03700 0.67348 0.47680 0.10300
H 	H 	0.03160 0.72520 0.49440 -0.00600
C 	C 	0.00780 0.61144 0.50810 -0.27000
H 	H 	0.98260 0.62170 0.54670 0.17600
C 	C 	0.01539 0.53385 0.48300 0.05500
C 	C 	0.05600 0.52244 0.42830 -0.12800
H 	H 	0.06360 0.47130 0.41140 0.06100
C 	C 	0.08510 0.58566 0.39880 0.03700
H 	H 	0.11310 0.57710 0.36340 0.03000
O 	O 	0.41160 0.60869 0.61940 -0.49800
O 	O 	0.26939 0.64682 0.44152 -0.48000
O 	O 	0.42400 0.30203 0.30761 -0.48800
O 	O 	0.26970 0.31410 0.14203 -0.47300
O 	O 	0.59921 0.78010 0.88767 -0.42800
N 	N 	0.57331 0.84051 0.92090 -0.06700
C 	C 	0.33506 0.52695 0.44140 -0.09700
C 	C 	0.41170 0.47629 0.50550 -0.00900
H 	H 	0.46300 0.48510 0.59060 0.05300
C 	C 	0.41330 0.41249 0.44470 -0.01800
H 	H 	0.46600 0.37930 0.48910 0.05200
C 	C 	0.33755 0.39738 0.31910 -0.08600
C 	C 	0.26020 0.44670 0.25640 -0.02400
H 	H 	0.20770 0.43650 0.17230 0.05300
C 	C 	0.25900 0.51158 0.31630 -0.00600
H 	H 	0.20640 0.54490 0.27170 0.04000
C 	C 	0.33890 0.60000 0.50620 0.42400
C 	C 	0.34355 0.33225 0.25070 0.40600
C 	C 	0.53700 0.82652 0.97680 0.11300
H 	H 	0.53160 0.77480 0.99440 0.02000
C 	C 	0.50780 0.88856 0.00810 -0.22200
H 	H 	0.48260 0.87830 0.04670 0.10500
C 	C 	0.51539 0.96615 0.98300 0.15900
C 	C 	0.55600 0.97756 0.92830 -0.17200
H 	H 	0.56360 0.02870 0.91140 0.09600
C 	C 	0.58510 0.91434 0.89880 0.07800
H 	H 	0.61310 0.92290 0.86340 0.02700
O 	O 	0.91160 0.10869 0.61940 -0.47100
O 	O 	0.76939 0.14682 0.44152 -0.47300
O 	O 	0.92400 0.80203 0.30761 -0.45500
O 	O 	0.76970 0.81410 0.14203 -0.46900
O 	O 	0.09921 0.28010 0.88767 -0.44200
N 	N 	0.07331 0.34051 0.92090 -0.08500
C 	C 	0.83506 0.02695 0.44140 -0.08100
C 	C 	0.91170 0.97629 0.50550 -0.00900
H 	H 	0.96300 0.98510 0.59060 0.07400
C 	C 	0.91330 0.91249 0.44470 -0.00900
H 	H 	0.96600 0.87930 0.48910 0.07200
C 	C 	0.83755 0.89738 0.31910 -0.07700
C 	C 	0.76020 0.94670 0.25640 -0.01800
H 	H 	0.70770 0.93650 0.17230 0.05300
C 	C 	0.75900 0.01158 0.31630 -0.00700
H 	H 	0.70640 0.04490 0.27170 0.05100
C 	C 	0.83890 0.10000 0.50620 0.41900
C 	C 	0.84355 0.83225 0.25070 0.40300
C 	C 	0.03700 0.32652 0.97680 0.17400
H 	H 	0.03160 0.27480 0.99440 -0.02600
C 	C 	0.00780 0.38856 0.00810 -0.38000
H 	H 	0.98260 0.37830 0.04670 0.20900
C 	C 	0.01539 0.46615 0.98300 0.16700
C 	C 	0.05600 0.47756 0.92830 -0.19700
H 	H 	0.06360 0.52870 0.91140 0.09000
C 	C 	0.08510 0.41434 0.89880 0.08000
H 	H 	0.11310 0.42290 0.86340 0.01500
O 	O 	0.58840 0.60869 0.88060 -0.51400
O 	O 	0.73061 0.64682 0.05848 -0.50600
O 	O 	0.57600 0.30203 0.19239 -0.48400
O 	O 	0.73030 0.31410 0.35797 -0.46000
O 	O 	0.40079 0.78010 0.61233 -0.43500
N 	N 	0.42669 0.84051 0.57910 -0.04400
C 	C 	0.66494 0.52695 0.05860 -0.20000
C 	C 	0.58830 0.47629 0.99450 0.12200
H 	H 	0.53700 0.48510 0.90940 0.01100
C 	C 	0.58670 0.41249 0.05530 -0.11900
H 	H 	0.53400 0.37930 0.01090 0.08000
C 	C 	0.66245 0.39738 0.18090 -0.02600
C 	C 	0.73980 0.44670 0.24360 -0.08100
H 	H 	0.79230 0.43650 0.32770 0.08000
C 	C 	0.74100 0.51158 0.18370 0.06900
H 	H 	0.79360 0.54490 0.22830 0.03200
C 	C 	0.66110 0.60000 0.99380 0.49500
C 	C 	0.65645 0.33225 0.24930 0.38500
C 	C 	0.46300 0.82652 0.52320 0.02500
H 	H 	0.46840 0.77480 0.50560 0.04300
C 	C 	0.49220 0.88856 0.49190 -0.09000
H 	H 	0.51740 0.87830 0.45330 0.06400
C 	C 	0.48461 0.96615 0.51700 0.03400
C 	C 	0.44400 0.97756 0.57170 -0.09800
H 	H 	0.43640 0.02870 0.58860 0.06500
C 	C 	0.41490 0.91434 0.60120 0.02700
H 	H 	0.38690 0.92290 0.63660 0.04300
O 	O 	0.08840 0.10869 0.88060 -0.53600
O 	O 	0.23061 0.14682 0.05848 -0.50800
O 	O 	0.07600 0.80203 0.19239 -0.51400
O 	O 	0.23030 0.81410 0.35797 -0.46500
O 	O 	0.90079 0.28010 0.61233 -0.42000
N 	N 	0.92669 0.34051 0.57910 -0.02200
C 	C 	0.16494 0.02695 0.05860 -0.20300
C 	C 	0.08830 0.97629 0.99450 0.10800
H 	H 	0.03700 0.98510 0.90940 -0.00600
C 	C 	0.08670 0.91249 0.05530 -0.12100
H 	H 	0.03400 0.87930 0.01090 0.05900
C 	C 	0.16245 0.89738 0.18090 -0.03700
C 	C 	0.23980 0.94670 0.24360 -0.08800
H 	H 	0.29230 0.93650 0.32770 0.07900
C 	C 	0.24100 0.01158 0.18370 0.06900
H 	H 	0.29360 0.04490 0.22830 0.02200
C 	C 	0.16110 0.10000 0.99380 0.49000
C 	C 	0.15645 0.83225 0.24930 0.38900
C 	C 	0.96300 0.32652 0.52320 -0.05100
H 	H 	0.96840 0.27480 0.50560 0.09500
C 	C 	0.99220 0.38856 0.49190 0.09200
H 	H 	0.01740 0.37830 0.45330 -0.04800
C 	C 	0.98461 0.46615 0.51700 0.01400
C 	C 	0.94400 0.47756 0.57170 -0.06200
H 	H 	0.93640 0.52870 0.58860 0.06600
C 	C 	0.91490 0.41434 0.60120 0.01800
H 	H 	0.88690 0.42290 0.63660 0.05800
Mg	Mg	0.50000 0.30790 0.25000 1.47800
Mg	Mg	0.00000 0.80790 0.25000 1.47200
Mg	Mg	0.50000 0.69210 0.75000 1.47800
Mg	Mg	0.00000 0.19210 0.75000 1.47200
Mg	Mg	0.75000 0.25000 0.50000 1.47600
Mg	Mg	0.25000 0.25000 -0.00000 1.47500
Mg	Mg	0.25000 0.75000 0.50000 1.47600
Mg	Mg	0.75000 0.75000 -0.00000 1.47400
