data_crystal

_cell_length_a 18.18760
_cell_length_b 17.24410
_cell_length_c 13.53130
_cell_angle_alpha 90.00000
_cell_angle_beta  129.50500
_cell_angle_gamma 90.00000

_symmetry_space_group_name_	'P 1'
_symmetry_space_group_name_H-M	'P 1'

loop_
_symmetry_equiv_pos_as_xyz
  x,y,z

loop_
_atom_site_label
_atom_site_type_symbol
_atom_site_fract_x
_atom_site_fract_y
_atom_site_fract_z
_atom_site_charge
O 	O 	0.07536 0.19999 0.68640 -0.50900
O 	O 	0.23031 0.18661 0.85510 -0.45800
O 	O 	0.08853 0.88815 0.37990 -0.52000
O 	O 	0.23045 0.85113 0.56140 -0.47400
O 	O 	0.09975 0.27907 0.88930 -0.44900
N 	N 	0.07407 0.33990 0.92280 -0.09200
C 	C 	0.16190 0.10229 0.67750 -0.09400
C 	C 	0.23990 0.05320 0.74370 0.00200
H 	H 	0.29500 0.07100 0.84100 0.05600
C 	C 	0.24050 0.98720 0.68440 -0.02600
H 	H 	0.29000 0.95300 0.72500 0.06000
C 	C 	0.16470 0.97093 0.55860 -0.09300
C 	C 	0.08750 0.02150 0.49130 -0.01700
H 	H 	0.03500 0.00900 0.40700 0.03100
C 	C 	0.08640 0.08600 0.55080 -0.03200
H 	H 	0.04000 0.12000 0.51300 0.03800
C 	C 	0.15630 0.16831 0.74510 0.39300
C 	C 	0.16090 0.89743 0.49440 0.41300
C 	C 	0.08620 0.41180 0.89760 0.11800
H 	H 	0.11100 0.41600 0.86300 -0.00600
C 	C 	0.05670 0.47510 0.92560 -0.26600
H 	H 	0.07200 0.51900 0.91200 0.12800
C 	C 	0.01530 0.46610 0.98300 0.18700
C 	C 	0.00680 0.39070 0.01110 -0.36600
H 	H 	0.97700 0.37800 0.04700 0.19900
C 	C 	0.03640 0.32830 0.98030 0.16600
H 	H 	0.03000 0.27700 0.99100 -0.02500
O 	O 	0.57536 0.69999 0.68640 -0.47600
O 	O 	0.73031 0.68661 0.85510 -0.45200
O 	O 	0.58853 0.38815 0.37990 -0.49600
O 	O 	0.73045 0.35113 0.56140 -0.46700
O 	O 	0.59975 0.77907 0.88930 -0.43400
N 	N 	0.57407 0.83990 0.92280 -0.07300
C 	C 	0.66190 0.60229 0.67750 -0.08700
C 	C 	0.73990 0.55320 0.74370 0.01200
H 	H 	0.79500 0.57100 0.84100 0.05600
C 	C 	0.74050 0.48720 0.68440 -0.03100
H 	H 	0.79000 0.45300 0.72500 0.07100
C 	C 	0.66470 0.47093 0.55860 -0.07800
C 	C 	0.58750 0.52150 0.49130 -0.01300
H 	H 	0.53500 0.50900 0.40700 0.05200
C 	C 	0.58640 0.58600 0.55080 -0.02300
H 	H 	0.54000 0.62000 0.51300 0.05600
C 	C 	0.65630 0.66831 0.74510 0.39100
C 	C 	0.66090 0.39743 0.49440 0.41000
C 	C 	0.58620 0.91180 0.89760 0.10900
H 	H 	0.61100 0.91600 0.86300 0.01000
C 	C 	0.55670 0.97510 0.92560 -0.23100
H 	H 	0.57200 0.01900 0.91200 0.12800
C 	C 	0.51530 0.96610 0.98300 0.18300
C 	C 	0.50680 0.89070 0.01110 -0.21800
H 	H 	0.47700 0.87800 0.04700 0.10100
C 	C 	0.53640 0.82830 0.98030 0.11000
H 	H 	0.53000 0.77700 0.99100 0.02200
O 	O 	0.92464 0.19999 0.81360 -0.44400
O 	O 	0.76969 0.18661 0.64490 -0.46100
O 	O 	0.91147 0.88815 0.12010 -0.45400
O 	O 	0.76955 0.85113 0.93860 -0.43400
O 	O 	0.90025 0.27907 0.61070 -0.42700
N 	N 	0.92593 0.33990 0.57720 -0.02000
C 	C 	0.83810 0.10229 0.82250 -0.13000
C 	C 	0.76010 0.05320 0.75630 0.05700
H 	H 	0.70500 0.07100 0.65900 0.03900
C 	C 	0.75950 0.98720 0.81560 -0.09800
H 	H 	0.71000 0.95300 0.77500 0.08700
C 	C 	0.83530 0.97093 0.94140 0.03000
C 	C 	0.91250 0.02150 0.00870 -0.13300
H 	H 	0.96500 0.00900 0.09300 0.11500
C 	C 	0.91360 0.08600 0.94920 0.08900
H 	H 	0.96000 0.12000 0.98700 0.04200
C 	C 	0.84370 0.16831 0.75490 0.40600
C 	C 	0.83910 0.89743 0.00560 0.33700
C 	C 	0.91380 0.41180 0.60240 0.00500
H 	H 	0.88900 0.41600 0.63700 0.06500
C 	C 	0.94330 0.47510 0.57440 -0.07300
H 	H 	0.92800 0.51900 0.58800 0.07600
C 	C 	0.98470 0.46610 0.51700 0.02300
C 	C 	0.99320 0.39070 0.48890 0.09000
H 	H 	0.02300 0.37800 0.45300 -0.04500
C 	C 	0.96360 0.32830 0.51970 -0.05400
H 	H 	0.97000 0.27700 0.50900 0.10100
O 	O 	0.42464 0.69999 0.81360 -0.47900
O 	O 	0.26969 0.68661 0.64490 -0.46600
O 	O 	0.41147 0.38815 0.12010 -0.48200
O 	O 	0.26955 0.35113 0.93860 -0.44500
O 	O 	0.40025 0.77907 0.61070 -0.44300
N 	N 	0.42593 0.83990 0.57720 -0.04200
C 	C 	0.33810 0.60229 0.82250 -0.13800
C 	C 	0.26010 0.55320 0.75630 0.04800
H 	H 	0.20500 0.57100 0.65900 0.03900
C 	C 	0.25950 0.48720 0.81560 -0.09200
H 	H 	0.21000 0.45300 0.77500 0.07500
C 	C 	0.33530 0.47093 0.94140 0.01100
C 	C 	0.41250 0.52150 0.00870 -0.13500
H 	H 	0.46500 0.50900 0.09300 0.09200
C 	C 	0.41360 0.58600 0.94920 0.08000
H 	H 	0.46000 0.62000 0.98700 0.02300
C 	C 	0.34370 0.66831 0.75490 0.40900
C 	C 	0.33910 0.39743 0.00560 0.34700
C 	C 	0.41380 0.91180 0.60240 0.01900
H 	H 	0.38900 0.91600 0.63700 0.04700
C 	C 	0.44330 0.97510 0.57440 -0.11200
H 	H 	0.42800 0.01900 0.58800 0.07600
C 	C 	0.48470 0.96610 0.51700 0.03700
C 	C 	0.49320 0.89070 0.48890 -0.07900
H 	H 	0.52300 0.87800 0.45300 0.06000
C 	C 	0.46360 0.82830 0.51970 0.01500
H 	H 	0.47000 0.77700 0.50900 0.04900
O 	O 	0.92464 0.80001 0.31360 -0.44300
O 	O 	0.76969 0.81339 0.14490 -0.46400
O 	O 	0.91147 0.11185 0.62010 -0.46700
O 	O 	0.76955 0.14887 0.43860 -0.46700
O 	O 	0.90025 0.72093 0.11070 -0.43500
N 	N 	0.92593 0.66010 0.07720 0.00900
C 	C 	0.83810 0.89771 0.32250 -0.07900
C 	C 	0.76010 0.94680 0.25630 0.00500
H 	H 	0.70500 0.92900 0.15900 0.04600
C 	C 	0.75950 0.01280 0.31560 -0.02800
H 	H 	0.71000 0.04700 0.27500 0.06000
C 	C 	0.83530 0.02907 0.44140 -0.07200
C 	C 	0.91250 0.97850 0.50870 -0.00600
H 	H 	0.96500 0.99100 0.59300 0.07600
C 	C 	0.91360 0.91400 0.44920 -0.01900
H 	H 	0.96000 0.88000 0.48700 0.07800
C 	C 	0.84370 0.83169 0.25490 0.38700
C 	C 	0.83910 0.10257 0.50560 0.40700
C 	C 	0.91380 0.58820 0.10240 -0.08000
H 	H 	0.88900 0.58400 0.13700 0.10000
C 	C 	0.94330 0.52490 0.07440 0.04300
H 	H 	0.92800 0.48100 0.08800 0.02600
C 	C 	0.98470 0.53390 0.01700 -0.11600
C 	C 	0.99320 0.60930 0.98890 0.22400
H 	H 	0.02300 0.62200 0.95300 -0.08500
C 	C 	0.96360 0.67170 0.01970 -0.14400
H 	H 	0.97000 0.72300 0.00900 0.12700
O 	O 	0.42464 0.30001 0.31360 -0.47700
O 	O 	0.26969 0.31339 0.14490 -0.46800
O 	O 	0.41147 0.61185 0.62010 -0.49400
O 	O 	0.26955 0.64887 0.43860 -0.47400
O 	O 	0.40025 0.22093 0.11070 -0.44900
N 	N 	0.42593 0.16010 0.07720 -0.01200
C 	C 	0.33810 0.39771 0.32250 -0.08700
C 	C 	0.26010 0.44680 0.25630 -0.00300
H 	H 	0.20500 0.42900 0.15900 0.04700
C 	C 	0.25950 0.51280 0.31560 -0.02500
H 	H 	0.21000 0.54700 0.27500 0.04900
C 	C 	0.33530 0.52907 0.44140 -0.08700
C 	C 	0.41250 0.47850 0.50870 -0.00900
H 	H 	0.46500 0.49100 0.59300 0.05400
C 	C 	0.41360 0.41400 0.44920 -0.02900
H 	H 	0.46000 0.38000 0.48700 0.05900
C 	C 	0.34370 0.33169 0.25490 0.39000
C 	C 	0.33910 0.60257 0.50560 0.41200
C 	C 	0.41380 0.08820 0.10240 -0.06700
H 	H 	0.38900 0.08400 0.13700 0.08300
C 	C 	0.44330 0.02490 0.07440 0.00800
H 	H 	0.42800 0.98100 0.08800 0.02400
C 	C 	0.48470 0.03390 0.01700 -0.10400
C 	C 	0.49320 0.10930 0.98890 0.05200
H 	H 	0.52300 0.12200 0.95300 0.02100
C 	C 	0.46360 0.17170 0.01970 -0.07100
H 	H 	0.47000 0.22300 0.00900 0.07600
O 	O 	0.07536 0.80001 0.18640 -0.50600
O 	O 	0.23031 0.81339 0.35510 -0.46000
O 	O 	0.08853 0.11185 0.87990 -0.53200
O 	O 	0.23045 0.14887 0.06140 -0.50100
O 	O 	0.09975 0.72093 0.38930 -0.45500
N 	N 	0.07407 0.66010 0.42280 -0.06400
C 	C 	0.16190 0.89771 0.17750 -0.04500
C 	C 	0.23990 0.94680 0.24370 -0.04700
H 	H 	0.29500 0.92900 0.34100 0.06300
C 	C 	0.24050 0.01280 0.18440 0.03800
H 	H 	0.29000 0.04700 0.22500 0.03400
C 	C 	0.16470 0.02907 0.05860 -0.18600
C 	C 	0.08750 0.97850 0.99130 0.10700
H 	H 	0.03500 0.99100 0.90700 -0.00600
C 	C 	0.08640 0.91400 0.05080 -0.13900
H 	H 	0.04000 0.88000 0.01300 0.07400
C 	C 	0.15630 0.83169 0.24510 0.37500
C 	C 	0.16090 0.10257 0.99440 0.47400
C 	C 	0.08620 0.58820 0.39760 0.03900
H 	H 	0.11100 0.58400 0.36300 0.02800
C 	C 	0.05670 0.52490 0.42560 -0.15600
H 	H 	0.07200 0.48100 0.41200 0.08100
C 	C 	0.01530 0.53390 0.48300 0.05400
C 	C 	0.00680 0.60930 0.51110 -0.24900
H 	H 	0.97700 0.62200 0.54700 0.16500
C 	C 	0.03640 0.67170 0.48030 0.08700
H 	H 	0.03000 0.72300 0.49100 -0.00100
O 	O 	0.57536 0.30001 0.18640 -0.47500
O 	O 	0.73031 0.31339 0.35510 -0.45500
O 	O 	0.58853 0.61185 0.87990 -0.50900
O 	O 	0.73045 0.64887 0.06140 -0.49800
O 	O 	0.59975 0.22093 0.38930 -0.44200
N 	N 	0.57407 0.16010 0.42280 -0.04200
C 	C 	0.66190 0.39771 0.17750 -0.03400
C 	C 	0.73990 0.44680 0.24370 -0.04000
H 	H 	0.79500 0.42900 0.34100 0.06400
C 	C 	0.74050 0.51280 0.18440 0.03900
H 	H 	0.79000 0.54700 0.22500 0.04400
C 	C 	0.66470 0.52907 0.05860 -0.18100
C 	C 	0.58750 0.47850 0.99130 0.11700
H 	H 	0.53500 0.49100 0.90700 0.01300
C 	C 	0.58640 0.41400 0.05080 -0.13500
H 	H 	0.54000 0.38000 0.01300 0.09400
C 	C 	0.65630 0.33169 0.24510 0.37100
C 	C 	0.66090 0.60257 0.99440 0.47800
C 	C 	0.58620 0.08820 0.39760 0.02200
H 	H 	0.61100 0.08400 0.36300 0.04600
C 	C 	0.55670 0.02490 0.42560 -0.11400
H 	H 	0.57200 0.98100 0.41200 0.07800
C 	C 	0.51530 0.03390 0.48300 0.03900
C 	C 	0.50680 0.10930 0.51110 -0.07900
H 	H 	0.47700 0.12200 0.54700 0.06000
C 	C 	0.53640 0.17170 0.48030 0.01700
H 	H 	0.53000 0.22300 0.49100 0.05000
Mg	Mg	0.00000 0.19446 0.75000 1.47100
Mg	Mg	0.50000 0.69446 0.75000 1.47800
Mg	Mg	0.00000 0.80554 0.25000 1.47100
Mg	Mg	0.50000 0.30554 0.25000 1.47800
Mg	Mg	0.25000 0.25000 -0.00000 1.47500
Mg	Mg	0.75000 0.25000 0.50000 1.47600
Mg	Mg	0.75000 0.75000 -0.00000 1.47400
Mg	Mg	0.25000 0.75000 0.50000 1.47600
