data_crystal

_cell_length_a 12.56690
_cell_length_b 12.56690
_cell_length_c 13.54830
_cell_angle_alpha 65.70860
_cell_angle_beta  62.39750
_cell_angle_gamma 93.26660

_symmetry_space_group_name_	'P 1'
_symmetry_space_group_name_H-M	'P 1'

loop_
_symmetry_equiv_pos_as_xyz
  x,y,z

loop_
_atom_site_label
_atom_site_type_symbol
_atom_site_fract_x
_atom_site_fract_y
_atom_site_fract_z
_atom_site_charge
Mg	Mg	0.55532 0.80532 0.25000 1.47700
Mg	Mg	0.44468 0.19468 0.75000 1.47600
Mg	Mg	0.50000 0.00000 -0.00000 1.46900
Mg	Mg	0.50000 0.50000 0.50000 1.47500
H 	H 	0.35730 0.02430 0.59700 0.09300
H 	H 	0.10720 0.75430 0.23370 0.04600
H 	H 	0.90920 0.84940 0.00320 0.05900
H 	H 	0.32540 0.69650 0.13910 0.05900
H 	H 	0.95330 0.36260 0.44730 0.06300
H 	H 	0.66440 0.53550 0.63910 0.04500
H 	H 	0.69010 0.59940 0.94730 0.01900
H 	H 	0.12130 0.95430 0.90300 0.04900
H 	H 	0.68520 0.46200 0.90560 0.09100
H 	H 	0.47710 0.22850 0.16820 0.01000
H 	H 	0.09080 0.15060 0.99680 0.02200
H 	H 	0.51200 0.65910 0.73370 0.02700
H 	H 	0.33560 0.46450 0.36090 0.04500
H 	H 	0.64270 0.97570 0.40300 0.01900
H 	H 	0.31480 0.53800 0.09440 0.02800
H 	H 	0.67460 0.30350 0.86090 0.02900
H 	H 	0.89670 0.64530 0.33180 0.05900
H 	H 	0.30990 0.40060 0.05270 0.10800
H 	H 	0.10330 0.35470 0.66820 0.04000
H 	H 	0.52290 0.77150 0.83180 0.09500
H 	H 	0.48800 0.34090 0.26630 0.07900
H 	H 	0.04670 0.63740 0.55270 0.05400
H 	H 	0.25330 0.69070 0.50180 0.05200
H 	H 	0.89280 0.24570 0.76630 0.07600
H 	H 	0.35260 0.91240 0.49680 -0.01000
H 	H 	0.74670 0.30930 0.49820 0.04100
H 	H 	0.64740 0.08760 0.50320 0.10100
H 	H 	0.87870 0.04570 0.09700 0.08400
H 	H 	0.86760 0.59080 0.59440 0.06700
H 	H 	0.13240 0.40920 0.40560 0.05000
H 	H 	0.30750 0.24490 0.00180 -0.02400
H 	H 	0.69250 0.75510 0.99820 0.09800
C 	C 	0.07537 0.89265 0.99080 0.03000
C 	C 	0.84473 0.53275 0.57420 -0.09500
C 	C 	0.77206 0.36586 0.51870 0.02600
C 	C 	0.26890 0.94226 0.99498 0.47200
C 	C 	0.05077 0.17039 0.94970 0.07900
C 	C 	0.74183 0.67683 0.24556 0.38800
C 	C 	0.38345 0.06617 0.50920 -0.16500
C 	C 	0.60081 0.32569 0.89800 0.07600
C 	C 	0.41607 0.05947 0.32204 -0.25600
C 	C 	0.10496 0.60192 0.51200 -0.06800
C 	C 	0.49825 0.45041 0.98382 0.16800
C 	C 	0.56276 0.73612 0.49498 0.43900
C 	C 	0.22794 0.63414 0.48130 0.01600
C 	C 	0.61655 0.93383 0.49080 0.12100
C 	C 	0.92463 0.10735 0.00920 -0.16000
C 	C 	0.11849 0.26189 0.82204 -0.13000
C 	C 	0.42239 0.98739 0.25444 0.52100
C 	C 	0.86545 0.13397 0.94082 0.04900
C 	C 	0.94923 0.82961 0.05030 -0.03500
C 	C 	0.05839 0.29057 0.75490 0.02700
C 	C 	0.57479 0.80627 0.55918 -0.15700
C 	C 	0.27631 0.50119 0.39800 0.01700
C 	C 	0.53987 0.74617 0.68640 0.07200
C 	C 	0.06743 0.77373 0.18640 0.00100
C 	C 	0.62009 0.00047 0.55030 -0.18900
C 	C 	0.61392 0.61696 0.98800 0.05500
C 	C 	0.72369 0.49881 0.60200 0.02700
C 	C 	0.88151 0.73811 0.17796 -0.06900
C 	C 	0.50175 0.54959 0.01618 -0.10000
C 	C 	0.25817 0.32317 0.75444 0.40800
C 	C 	0.37991 0.99953 0.44970 0.18600
C 	C 	0.93257 0.22627 0.81360 -0.07800
C 	C 	0.39919 0.67431 0.10200 -0.02400
C 	C 	0.57761 0.01261 0.74556 0.29600
C 	C 	0.89504 0.39808 0.48800 -0.09000
C 	C 	0.39305 0.58107 0.07420 -0.01200
C 	C 	0.94161 0.70943 0.24510 -0.01900
C 	C 	0.93423 0.48207 0.51618 0.04700
C 	C 	0.38456 0.29076 0.98130 0.16400
C 	C 	0.61544 0.70924 0.01870 -0.08700
C 	C 	0.15527 0.46725 0.42580 -0.07500
C 	C 	0.73110 0.05774 0.00502 0.26200
C 	C 	0.60695 0.41893 0.92580 -0.16400
C 	C 	0.06577 0.51793 0.48382 0.00900
C 	C 	0.13455 0.86603 0.05918 -0.12500
C 	C 	0.46013 0.25383 0.31360 -0.10600
C 	C 	0.42521 0.19373 0.44082 -0.00700
C 	C 	0.54547 0.81329 0.74510 -0.11200
C 	C 	0.45453 0.18671 0.25490 0.09700
C 	C 	0.58393 0.94053 0.67796 0.06500
C 	C 	0.38608 0.38304 0.01200 -0.24200
C 	C 	0.43724 0.26388 0.50502 0.38200
N 	N 	0.50823 0.73411 0.07736 -0.01700
N 	N 	0.49177 0.26589 0.92264 -0.07400
N 	N 	0.68853 0.41441 0.57736 -0.04500
N 	N 	0.31147 0.58559 0.42264 -0.04000
O 	O 	0.48091 0.37932 0.43785 -0.46400
O 	O 	0.68283 0.08124 0.93785 -0.41900
O 	O 	0.31717 0.91876 0.06215 -0.48000
O 	O 	0.43117 0.62053 0.38916 -0.44000
O 	O 	0.55983 0.95663 0.85542 -0.41300
O 	O 	0.31058 0.27440 0.81414 -0.47700
O 	O 	0.68795 0.58475 0.35542 -0.46300
O 	O 	0.44017 0.04337 0.14458 -0.53500
O 	O 	0.58854 0.12472 0.68586 -0.45600
O 	O 	0.32047 0.02396 0.88025 -0.52600
O 	O 	0.40421 0.20072 0.61975 -0.49100
O 	O 	0.41146 0.87528 0.31414 -0.50400
O 	O 	0.59579 0.79928 0.38025 -0.50000
O 	O 	0.49031 0.17967 0.88916 -0.43400
O 	O 	0.50969 0.82033 0.11084 -0.44000
O 	O 	0.56883 0.37947 0.61084 -0.44100
O 	O 	0.67953 0.97604 0.11975 -0.42900
O 	O 	0.68942 0.72560 0.18586 -0.47700
O 	O 	0.31205 0.41525 0.64458 -0.46600
O 	O 	0.51909 0.62068 0.56215 -0.47500
