data_crystal

_cell_length_a 18.05410
_cell_length_b 17.25270
_cell_length_c 13.41280
_cell_angle_alpha 90.00000
_cell_angle_beta  129.27400
_cell_angle_gamma 90.00000

_symmetry_space_group_name_	'P 1'
_symmetry_space_group_name_H-M	'P 1'

loop_
_symmetry_equiv_pos_as_xyz
  x,y,z

loop_
_atom_site_label
_atom_site_type_symbol
_atom_site_fract_x
_atom_site_fract_y
_atom_site_fract_z
_atom_site_charge
O 	O 	0.07549 0.29957 0.18533 -0.50900
O 	O 	0.22992 0.31351 0.35459 -0.46300
O 	O 	0.08841 0.61257 0.87990 -0.53900
O 	O 	0.23029 0.64939 0.06227 -0.51100
O 	O 	0.09995 0.22088 0.38967 -0.45800
N 	N 	0.07411 0.16020 0.42280 -0.05600
C 	C 	0.16150 0.39827 0.17720 -0.02400
C 	C 	0.08620 0.41430 0.04970 -0.15300
H 	H 	0.03700 0.38200 0.01000 0.07600
C 	C 	0.08750 0.47920 0.99050 0.12400
H 	H 	0.03700 0.49300 0.90300 -0.01100
C 	C 	0.16430 0.52976 0.05840 -0.21200
C 	C 	0.24010 0.51360 0.18570 0.06900
H 	H 	0.29100 0.55200 0.23000 0.02400
C 	C 	0.23900 0.44790 0.24390 -0.09000
H 	H 	0.28600 0.44300 0.33300 0.07900
C 	C 	0.15600 0.33147 0.24480 0.37900
C 	C 	0.16070 0.60342 0.99480 0.49500
C 	C 	0.03670 0.17140 0.48150 0.07300
H 	H 	0.03500 0.22400 0.49600 0.00600
C 	C 	0.00710 0.10880 0.51210 -0.22300
H 	H 	0.97900 0.12000 0.55300 0.15500
C 	C 	0.01550 0.03399 0.48350 0.02800
C 	C 	0.05720 0.02505 0.42530 -0.10500
H 	H 	0.06900 0.97800 0.40400 0.05200
C 	C 	0.08670 0.08861 0.39710 0.01700
H 	H 	0.11900 0.08600 0.36400 0.03800
O 	O 	0.57549 0.79957 0.18533 -0.47700
O 	O 	0.72992 0.81351 0.35459 -0.45800
O 	O 	0.58841 0.11257 0.87990 -0.51500
O 	O 	0.73029 0.14939 0.06227 -0.50500
O 	O 	0.59995 0.72088 0.38967 -0.44400
N 	N 	0.57411 0.66020 0.42280 -0.04000
C 	C 	0.66150 0.89827 0.17720 -0.00700
C 	C 	0.58620 0.91430 0.04970 -0.16100
H 	H 	0.53700 0.88200 0.01000 0.10100
C 	C 	0.58750 0.97920 0.99050 0.14300
H 	H 	0.53700 0.99300 0.90300 0.00700
C 	C 	0.66430 0.02976 0.05840 -0.20700
C 	C 	0.74010 0.01360 0.18570 0.07900
H 	H 	0.79100 0.05200 0.23000 0.03200
C 	C 	0.73900 0.94790 0.24390 -0.09400
H 	H 	0.78600 0.94300 0.33300 0.08300
C 	C 	0.65600 0.83147 0.24480 0.37200
C 	C 	0.66070 0.10342 0.99480 0.49500
C 	C 	0.53670 0.67140 0.48150 0.01600
H 	H 	0.53500 0.72400 0.49600 0.05100
C 	C 	0.50710 0.60880 0.51210 -0.07100
H 	H 	0.47900 0.62000 0.55300 0.05600
C 	C 	0.51550 0.53399 0.48350 0.03100
C 	C 	0.55720 0.52505 0.42530 -0.08900
H 	H 	0.56900 0.47800 0.40400 0.06300
C 	C 	0.58670 0.58861 0.39710 0.02100
H 	H 	0.61900 0.58600 0.36400 0.04800
O 	O 	0.92451 0.29957 0.31467 -0.44500
O 	O 	0.77008 0.31351 0.14541 -0.46800
O 	O 	0.91159 0.61257 0.62010 -0.47100
O 	O 	0.76971 0.64939 0.43773 -0.47200
O 	O 	0.90005 0.22088 0.11033 -0.43500
N 	N 	0.92589 0.16020 0.07720 -0.00300
C 	C 	0.83850 0.39827 0.32280 -0.06200
C 	C 	0.91380 0.41430 0.45030 -0.03500
H 	H 	0.96300 0.38200 0.49000 0.08500
C 	C 	0.91250 0.47920 0.50950 0.01500
H 	H 	0.96300 0.49300 0.59700 0.07100
C 	C 	0.83570 0.52976 0.44160 -0.09300
C 	C 	0.75990 0.51360 0.31430 0.00300
H 	H 	0.70900 0.55200 0.27000 0.04700
C 	C 	0.76100 0.44790 0.25610 -0.02600
H 	H 	0.71400 0.44300 0.16700 0.05500
C 	C 	0.84400 0.33147 0.25520 0.39100
C 	C 	0.83930 0.60342 0.50520 0.42000
C 	C 	0.96330 0.17140 0.01850 -0.12200
H 	H 	0.96500 0.22400 0.00400 0.11700
C 	C 	0.99290 0.10880 0.98790 0.20100
H 	H 	0.02100 0.12000 0.94700 -0.07500
C 	C 	0.98450 0.03399 0.01650 -0.08600
C 	C 	0.94280 0.02505 0.07470 0.00900
H 	H 	0.93100 0.97800 0.09600 0.03700
C 	C 	0.91330 0.08861 0.10290 -0.02800
H 	H 	0.88100 0.08600 0.13600 0.07400
O 	O 	0.42451 0.79957 0.31467 -0.48100
O 	O 	0.27008 0.81351 0.14541 -0.47300
O 	O 	0.41159 0.11257 0.62010 -0.49900
O 	O 	0.26971 0.14939 0.43773 -0.47900
O 	O 	0.40005 0.72088 0.11033 -0.45200
N 	N 	0.42589 0.66020 0.07720 -0.01900
C 	C 	0.33850 0.89827 0.32280 -0.07100
C 	C 	0.41380 0.91430 0.45030 -0.04100
H 	H 	0.46300 0.88200 0.49000 0.06300
C 	C 	0.41250 0.97920 0.50950 0.00500
H 	H 	0.46300 0.99300 0.59700 0.04900
C 	C 	0.33570 0.02976 0.44160 -0.10500
C 	C 	0.25990 0.01360 0.31430 0.00600
H 	H 	0.20900 0.05200 0.27000 0.03600
C 	C 	0.26100 0.94790 0.25610 -0.03500
H 	H 	0.21400 0.94300 0.16700 0.05600
C 	C 	0.34400 0.83147 0.25520 0.39500
C 	C 	0.33930 0.10342 0.50520 0.42400
C 	C 	0.46330 0.67140 0.01850 -0.06800
H 	H 	0.46500 0.72400 0.00400 0.07300
C 	C 	0.49290 0.60880 0.98790 0.05300
H 	H 	0.52100 0.62000 0.94700 0.02200
C 	C 	0.48450 0.53399 0.01650 -0.09400
C 	C 	0.44280 0.52505 0.07470 -0.01400
H 	H 	0.43100 0.47800 0.09600 0.03100
C 	C 	0.41330 0.58861 0.10290 -0.03000
H 	H 	0.38100 0.58600 0.13600 0.06400
O 	O 	0.92451 0.70043 0.81467 -0.44800
O 	O 	0.77008 0.68649 0.64541 -0.46500
O 	O 	0.91159 0.38743 0.12010 -0.45800
O 	O 	0.76971 0.35061 0.93773 -0.43800
O 	O 	0.90005 0.77912 0.61033 -0.42900
N 	N 	0.92589 0.83980 0.57720 -0.02500
C 	C 	0.83850 0.60173 0.82280 -0.12300
C 	C 	0.91380 0.58570 0.95030 0.08500
H 	H 	0.96300 0.61800 0.99000 0.04600
C 	C 	0.91250 0.52080 0.00950 -0.12500
H 	H 	0.96300 0.50700 0.09700 0.11100
C 	C 	0.83570 0.47024 0.94160 0.01700
C 	C 	0.75990 0.48640 0.81430 -0.07000
H 	H 	0.70900 0.44800 0.77000 0.07400
C 	C 	0.76100 0.55210 0.75610 0.04200
H 	H 	0.71400 0.55700 0.66700 0.03900
C 	C 	0.84400 0.66853 0.75520 0.41400
C 	C 	0.83930 0.39658 0.00520 0.34500
C 	C 	0.96330 0.82860 0.51850 -0.04100
H 	H 	0.96500 0.77600 0.50400 0.09500
C 	C 	0.99290 0.89120 0.48790 0.07900
H 	H 	0.02100 0.88000 0.44700 -0.04000
C 	C 	0.98450 0.96601 0.51650 0.03400
C 	C 	0.94280 0.97495 0.57470 -0.07500
H 	H 	0.93100 0.02200 0.59600 0.07400
C 	C 	0.91330 0.91139 0.60290 0.02300
H 	H 	0.88100 0.91400 0.63600 0.05700
O 	O 	0.42451 0.20043 0.81467 -0.48300
O 	O 	0.27008 0.18649 0.64541 -0.47100
O 	O 	0.41159 0.88743 0.12010 -0.48700
O 	O 	0.26971 0.85061 0.93773 -0.44500
O 	O 	0.40005 0.27912 0.61033 -0.44500
N 	N 	0.42589 0.33980 0.57720 -0.04100
C 	C 	0.33850 0.10173 0.82280 -0.12800
C 	C 	0.41380 0.08570 0.95030 0.07000
H 	H 	0.46300 0.11800 0.99000 0.02800
C 	C 	0.41250 0.02080 0.00950 -0.12000
H 	H 	0.46300 0.00700 0.09700 0.08600
C 	C 	0.33570 0.97024 0.94160 -0.00200
C 	C 	0.25990 0.98640 0.81430 -0.06600
H 	H 	0.20900 0.94800 0.77000 0.06100
C 	C 	0.26100 0.05210 0.75610 0.03100
H 	H 	0.21400 0.05700 0.66700 0.04000
C 	C 	0.34400 0.16853 0.75520 0.41700
C 	C 	0.33930 0.89658 0.00520 0.35100
C 	C 	0.46330 0.32860 0.51850 0.01400
H 	H 	0.46500 0.27600 0.50400 0.05000
C 	C 	0.49290 0.39120 0.48790 -0.07200
H 	H 	0.52100 0.38000 0.44700 0.05700
C 	C 	0.48450 0.46601 0.51650 0.03000
C 	C 	0.44280 0.47495 0.57470 -0.09000
H 	H 	0.43100 0.52200 0.59600 0.06200
C 	C 	0.41330 0.41139 0.60290 0.01800
H 	H 	0.38100 0.41400 0.63600 0.04700
O 	O 	0.07549 0.70043 0.68533 -0.51200
O 	O 	0.22992 0.68649 0.85459 -0.46000
O 	O 	0.08841 0.38743 0.37990 -0.52700
O 	O 	0.23029 0.35061 0.56227 -0.47900
O 	O 	0.09995 0.77912 0.88967 -0.45200
N 	N 	0.07411 0.83980 0.92280 -0.07600
C 	C 	0.16150 0.60173 0.67720 -0.07900
C 	C 	0.08620 0.58570 0.54970 -0.04400
H 	H 	0.03700 0.61800 0.51000 0.04000
C 	C 	0.08750 0.52080 0.49050 -0.00200
H 	H 	0.03700 0.50700 0.40300 0.02600
C 	C 	0.16430 0.47024 0.55840 -0.11200
C 	C 	0.24010 0.48640 0.68570 0.00300
H 	H 	0.29100 0.44800 0.73000 0.04800
C 	C 	0.23900 0.55210 0.74390 -0.02900
H 	H 	0.28600 0.55700 0.83300 0.06500
C 	C 	0.15600 0.66853 0.74480 0.39900
C 	C 	0.16070 0.39658 0.49480 0.42500
C 	C 	0.03670 0.82860 0.98150 0.14600
H 	H 	0.03500 0.77600 0.99600 -0.01500
C 	C 	0.00710 0.89120 0.01210 -0.33300
H 	H 	0.97900 0.88000 0.05300 0.18200
C 	C 	0.01550 0.96601 0.98350 0.14200
C 	C 	0.05720 0.97495 0.92530 -0.17900
H 	H 	0.06900 0.02200 0.90400 0.08300
C 	C 	0.08670 0.91139 0.89710 0.06200
H 	H 	0.11900 0.91400 0.86400 0.02200
O 	O 	0.57549 0.20043 0.68533 -0.47900
O 	O 	0.72992 0.18649 0.85459 -0.45600
O 	O 	0.58841 0.88743 0.37990 -0.50200
O 	O 	0.73029 0.85061 0.56227 -0.47200
O 	O 	0.59995 0.27912 0.88967 -0.43800
N 	N 	0.57411 0.33980 0.92280 -0.06200
C 	C 	0.66150 0.10173 0.67720 -0.06900
C 	C 	0.58620 0.08570 0.54970 -0.03900
H 	H 	0.53700 0.11800 0.51000 0.06200
C 	C 	0.58750 0.02080 0.49050 0.00800
H 	H 	0.53700 0.00700 0.40300 0.04700
C 	C 	0.66430 0.97024 0.55840 -0.10100
C 	C 	0.74010 0.98640 0.68570 0.00100
H 	H 	0.79100 0.94800 0.73000 0.06000
C 	C 	0.73900 0.05210 0.74390 -0.02000
H 	H 	0.78600 0.05700 0.83300 0.06500
C 	C 	0.65600 0.16853 0.74480 0.39600
C 	C 	0.66070 0.89658 0.49480 0.42300
C 	C 	0.53670 0.32860 0.98150 0.09800
H 	H 	0.53500 0.27600 0.99600 0.02800
C 	C 	0.50710 0.39120 0.01210 -0.19400
H 	H 	0.47900 0.38000 0.05300 0.09100
C 	C 	0.51550 0.46601 0.98350 0.15400
C 	C 	0.55720 0.47495 0.92530 -0.16400
H 	H 	0.56900 0.52200 0.90400 0.09400
C 	C 	0.58670 0.41139 0.89710 0.06800
H 	H 	0.61900 0.41400 0.86400 0.03100
Mg	Mg	0.00000 0.30499 0.25000 1.47200
Mg	Mg	0.50000 0.80499 0.25000 1.47800
Mg	Mg	0.00000 0.69501 0.75000 1.47200
Mg	Mg	0.50000 0.19501 0.75000 1.47900
Mg	Mg	0.25000 0.25000 0.50000 1.47700
Mg	Mg	0.75000 0.25000 -0.00000 1.47500
Mg	Mg	0.75000 0.75000 0.50000 1.47700
Mg	Mg	0.25000 0.75000 -0.00000 1.47500
