data_crystal

_cell_length_a 17.32880
_cell_length_b 17.74910
_cell_length_c 12.85700
_cell_angle_alpha 90.00000
_cell_angle_beta  126.53000
_cell_angle_gamma 90.00000

_symmetry_space_group_name_	'P 1'
_symmetry_space_group_name_H-M	'P 1'

loop_
_symmetry_equiv_pos_as_xyz
  x,y,z

loop_
_atom_site_label
_atom_site_type_symbol
_atom_site_fract_x
_atom_site_fract_y
_atom_site_fract_z
_atom_site_charge
O 	O 	0.27454 0.15291 0.43710 -0.47800
O 	O 	0.41385 0.11508 0.61930 -0.49600
O 	O 	0.26395 0.81384 0.14670 -0.46600
O 	O 	0.41793 0.79930 0.31410 -0.48000
O 	O 	0.40262 0.27875 0.61320 -0.44000
N 	N 	0.43010 0.33944 0.58260 -0.04200
C 	C 	0.33500 0.03140 0.44270 -0.08900
C 	C 	0.40710 0.97870 0.51100 -0.01500
H 	H 	0.45670 0.98720 0.59780 0.05600
C 	C 	0.40660 0.91350 0.45200 -0.01600
H 	H 	0.45640 0.87900 0.49910 0.05200
C 	C 	0.33300 0.89898 0.32440 -0.08300
C 	C 	0.25870 0.95000 0.25710 -0.02500
H 	H 	0.20710 0.93970 0.17200 0.04800
C 	C 	0.26030 0.01650 0.31520 -0.00900
H 	H 	0.21070 0.05120 0.26800 0.04200
C 	C 	0.34170 0.10570 0.50490 0.41300
C 	C 	0.33750 0.83194 0.25620 0.38900
C 	C 	0.47850 0.33200 0.53200 0.02000
H 	H 	0.49330 0.28420 0.51900 0.04800
C 	C 	0.50630 0.39400 0.49930 -0.08800
H 	H 	0.53920 0.38790 0.46330 0.06300
C 	C 	0.48620 0.46600 0.51880 0.03200
C 	C 	0.43680 0.47130 0.57260 -0.09300
H 	H 	0.42230 0.51860 0.58820 0.06300
C 	C 	0.40890 0.40740 0.60330 0.02200
H 	H 	0.37520 0.41170 0.63850 0.04500
O 	O 	0.77454 0.65291 0.43710 -0.47200
O 	O 	0.91385 0.61508 0.61930 -0.47700
O 	O 	0.76395 0.31384 0.14670 -0.46300
O 	O 	0.91793 0.29930 0.31410 -0.45800
O 	O 	0.90262 0.77875 0.61320 -0.42100
N 	N 	0.93010 0.83944 0.58260 -0.10000
C 	C 	0.83500 0.53140 0.44270 -0.08000
C 	C 	0.90710 0.47870 0.51100 -0.01100
H 	H 	0.95670 0.48720 0.59780 0.07100
C 	C 	0.90660 0.41350 0.45200 -0.00900
H 	H 	0.95640 0.37900 0.49910 0.06400
C 	C 	0.83300 0.39898 0.32440 -0.07900
C 	C 	0.75870 0.45000 0.25710 -0.01500
H 	H 	0.70710 0.43970 0.17200 0.04800
C 	C 	0.76030 0.51650 0.31520 -0.01500
H 	H 	0.71070 0.55120 0.26800 0.05000
C 	C 	0.84170 0.60570 0.50490 0.41100
C 	C 	0.83750 0.33194 0.25620 0.38800
C 	C 	0.97850 0.83200 0.53200 0.24000
H 	H 	0.99330 0.78420 0.51900 -0.00900
C 	C 	0.00630 0.89400 0.49930 -0.42200
H 	H 	0.03920 0.88790 0.46330 0.17000
C 	C 	0.98620 0.96600 0.51880 0.34900
C 	C 	0.93680 0.97130 0.57260 -0.29200
H 	H 	0.92230 0.01860 0.58820 0.14700
C 	C 	0.90890 0.90740 0.60330 0.15000
H 	H 	0.87520 0.91170 0.63850 0.00700
O 	O 	0.72546 0.15291 0.06290 -0.51900
O 	O 	0.58615 0.11508 0.88070 -0.52000
O 	O 	0.73605 0.81384 0.35330 -0.44700
O 	O 	0.58207 0.79930 0.18590 -0.47300
O 	O 	0.59738 0.27875 0.88680 -0.42900
N 	N 	0.56990 0.33944 0.91740 -0.07800
C 	C 	0.66500 0.03140 0.05730 -0.25600
C 	C 	0.59290 0.97870 0.98900 0.19700
H 	H 	0.54330 0.98720 0.90220 -0.01300
C 	C 	0.59340 0.91350 0.04800 -0.18600
H 	H 	0.54360 0.87900 0.00090 0.10000
C 	C 	0.66700 0.89898 0.17560 0.01700
C 	C 	0.74130 0.95000 0.24290 -0.13200
H 	H 	0.79290 0.93970 0.32800 0.09700
C 	C 	0.73970 0.01650 0.18480 0.11900
H 	H 	0.78930 0.05120 0.23200 0.01000
C 	C 	0.65830 0.10570 0.99510 0.52200
C 	C 	0.66250 0.83194 0.24380 0.35300
C 	C 	0.52150 0.33200 0.96800 0.15900
H 	H 	0.50670 0.28420 0.98100 0.00900
C 	C 	0.49370 0.39400 0.00070 -0.29600
H 	H 	0.46080 0.38790 0.03670 0.12900
C 	C 	0.51380 0.46600 0.98120 0.23100
C 	C 	0.56320 0.47130 0.92740 -0.21300
H 	H 	0.57770 0.51860 0.91180 0.11300
C 	C 	0.59110 0.40740 0.89670 0.10300
H 	H 	0.62480 0.41170 0.86150 0.01800
O 	O 	0.22546 0.65291 0.06290 -0.52400
O 	O 	0.08615 0.61508 0.88070 -0.53700
O 	O 	0.23605 0.31384 0.35330 -0.44900
O 	O 	0.08207 0.29930 0.18590 -0.49200
O 	O 	0.09738 0.77875 0.88680 -0.44700
N 	N 	0.06990 0.83944 0.91740 -0.02100
C 	C 	0.16500 0.53140 0.05730 -0.26300
C 	C 	0.09290 0.47870 0.98900 0.19000
H 	H 	0.04330 0.48720 0.90220 -0.02500
C 	C 	0.09340 0.41350 0.04800 -0.18500
H 	H 	0.04360 0.37900 0.00090 0.08700
C 	C 	0.16700 0.39898 0.17560 0.00700
C 	C 	0.24130 0.45000 0.24290 -0.12800
H 	H 	0.29290 0.43970 0.32800 0.09300
C 	C 	0.23970 0.51650 0.18480 0.11200
H 	H 	0.28930 0.55120 0.23200 0.00600
C 	C 	0.15830 0.60570 0.99510 0.52400
C 	C 	0.16250 0.33194 0.24380 0.35600
C 	C 	0.02150 0.83200 0.96800 -0.05800
H 	H 	0.00670 0.78420 0.98100 0.06600
C 	C 	0.99370 0.89400 0.00070 0.03600
H 	H 	0.96080 0.88790 0.03670 0.02300
C 	C 	0.01380 0.96600 0.98120 -0.08600
C 	C 	0.06320 0.97130 0.92740 -0.02100
H 	H 	0.07770 0.01860 0.91180 0.03400
C 	C 	0.09110 0.90740 0.89670 -0.02100
H 	H 	0.12480 0.91170 0.86150 0.05500
O 	O 	0.72546 0.84709 0.56290 -0.47100
O 	O 	0.58615 0.88492 0.38070 -0.50100
O 	O 	0.73605 0.18616 0.85330 -0.44300
O 	O 	0.58207 0.20070 0.68590 -0.47700
O 	O 	0.59738 0.72125 0.38680 -0.43800
N 	N 	0.56990 0.66056 0.41740 -0.04100
C 	C 	0.66500 0.96860 0.55730 -0.09300
C 	C 	0.59290 0.02130 0.48900 -0.00400
H 	H 	0.54330 0.01280 0.40220 0.04900
C 	C 	0.59340 0.08650 0.54800 -0.02200
H 	H 	0.54360 0.12100 0.50090 0.05300
C 	C 	0.66700 0.10102 0.67560 -0.07300
C 	C 	0.74130 0.05000 0.74290 -0.01800
H 	H 	0.79290 0.06030 0.82800 0.06700
C 	C 	0.73970 0.98350 0.68480 -0.00800
H 	H 	0.78930 0.94880 0.73200 0.05900
C 	C 	0.65830 0.89430 0.49510 0.41500
C 	C 	0.66250 0.16806 0.74380 0.38600
C 	C 	0.52150 0.66800 0.46800 0.02300
H 	H 	0.50670 0.71580 0.48100 0.04900
C 	C 	0.49370 0.60600 0.50070 -0.08600
H 	H 	0.46080 0.61210 0.53670 0.06400
C 	C 	0.51380 0.53400 0.48120 0.03400
C 	C 	0.56320 0.52870 0.42740 -0.09100
H 	H 	0.57770 0.48140 0.41180 0.06300
C 	C 	0.59110 0.59260 0.39670 0.02600
H 	H 	0.62480 0.58830 0.36150 0.04400
O 	O 	0.22546 0.34709 0.56290 -0.47600
O 	O 	0.08615 0.38492 0.38070 -0.51700
O 	O 	0.23605 0.68616 0.85330 -0.44400
O 	O 	0.08207 0.70070 0.68590 -0.49500
O 	O 	0.09738 0.22125 0.38680 -0.45600
N 	N 	0.06990 0.16056 0.41740 0.01700
C 	C 	0.16500 0.46860 0.55730 -0.10100
C 	C 	0.09290 0.52130 0.48900 -0.00800
H 	H 	0.04330 0.51280 0.40220 0.03500
C 	C 	0.09340 0.58650 0.54800 -0.02800
H 	H 	0.04360 0.62100 0.50090 0.04100
C 	C 	0.16700 0.60102 0.67560 -0.07700
C 	C 	0.24130 0.55000 0.74290 -0.02700
H 	H 	0.29290 0.56030 0.82800 0.06700
C 	C 	0.23970 0.48350 0.68480 -0.00400
H 	H 	0.28930 0.44880 0.73200 0.05100
C 	C 	0.15830 0.39430 0.49510 0.41700
C 	C 	0.16250 0.66806 0.74380 0.38700
C 	C 	0.02150 0.16800 0.46800 -0.19800
H 	H 	0.00670 0.21580 0.48100 0.10700
C 	C 	0.99370 0.10600 0.50070 0.25200
H 	H 	0.96080 0.11210 0.53670 -0.04300
C 	C 	0.01380 0.03400 0.48120 -0.28400
C 	C 	0.06320 0.02870 0.42740 0.10800
H 	H 	0.07770 0.98140 0.41180 -0.02100
C 	C 	0.09110 0.09260 0.39670 -0.10200
H 	H 	0.12480 0.08830 0.36150 0.08300
O 	O 	0.27454 0.84709 0.93710 -0.42600
O 	O 	0.41385 0.88492 0.11930 -0.47600
O 	O 	0.26395 0.18616 0.64670 -0.46200
O 	O 	0.41793 0.20070 0.81410 -0.48200
O 	O 	0.40262 0.72125 0.11320 -0.44900
N 	N 	0.43010 0.66056 0.08260 -0.00400
C 	C 	0.33500 0.96860 0.94270 0.07300
C 	C 	0.40710 0.02130 0.01100 -0.20800
H 	H 	0.45670 0.01280 0.09780 0.11600
C 	C 	0.40660 0.08650 0.95200 0.14000
H 	H 	0.45640 0.12100 0.99910 0.00700
C 	C 	0.33300 0.10102 0.82440 -0.16900
C 	C 	0.25870 0.05000 0.75710 0.08400
H 	H 	0.20710 0.06030 0.67200 0.02000
C 	C 	0.26030 0.98350 0.81520 -0.13200
H 	H 	0.21070 0.94880 0.76800 0.08900
C 	C 	0.34170 0.89430 0.00490 0.30400
C 	C 	0.33750 0.16806 0.75620 0.42100
C 	C 	0.47850 0.66800 0.03200 -0.11700
H 	H 	0.49330 0.71580 0.01900 0.08800
C 	C 	0.50630 0.60600 0.99930 0.12400
H 	H 	0.53920 0.61210 0.96330 -0.00300
C 	C 	0.48620 0.53400 0.01880 -0.16600
C 	C 	0.43680 0.52870 0.07260 0.03000
H 	H 	0.42230 0.48140 0.08820 0.01300
C 	C 	0.40890 0.59260 0.10330 -0.05500
H 	H 	0.37520 0.58830 0.13850 0.07100
O 	O 	0.77454 0.34709 0.93710 -0.42200
O 	O 	0.91385 0.38492 0.11930 -0.45600
O 	O 	0.76395 0.68616 0.64670 -0.46000
O 	O 	0.91793 0.70070 0.81410 -0.46200
O 	O 	0.90262 0.22125 0.11320 -0.42900
N 	N 	0.93010 0.16056 0.08260 -0.06200
C 	C 	0.83500 0.46860 0.94270 0.08700
C 	C 	0.90710 0.52130 0.01100 -0.21600
H 	H 	0.95670 0.51280 0.09780 0.13200
C 	C 	0.90660 0.58650 0.95200 0.15200
H 	H 	0.95640 0.62100 0.99910 0.01700
C 	C 	0.83300 0.60102 0.82440 -0.16600
C 	C 	0.75870 0.55000 0.75710 0.09000
H 	H 	0.70710 0.56030 0.67200 0.02100
C 	C 	0.76030 0.48350 0.81520 -0.13400
H 	H 	0.71070 0.44880 0.76800 0.09600
C 	C 	0.84170 0.39430 0.00490 0.30100
C 	C 	0.83750 0.66806 0.75620 0.42000
C 	C 	0.97850 0.16800 0.03200 0.10900
H 	H 	0.99330 0.21580 0.01900 0.02900
C 	C 	0.00630 0.10600 0.99930 -0.21900
H 	H 	0.03920 0.11210 0.96330 0.10600
C 	C 	0.98620 0.03400 0.01880 0.15600
C 	C 	0.93680 0.02870 0.07260 -0.15800
H 	H 	0.92230 0.98140 0.08820 0.08900
C 	C 	0.90890 0.09260 0.10330 0.06800
H 	H 	0.87520 0.08830 0.13850 0.03600
Mg	Mg	0.25000 0.25000 0.50000 1.47600
Mg	Mg	0.75000 0.25000 -0.00000 1.47300
Mg	Mg	0.75000 0.75000 0.50000 1.47500
Mg	Mg	0.25000 0.75000 -0.00000 1.47300
Mg	Mg	0.50000 0.19483 0.75000 1.47900
Mg	Mg	0.00000 0.69483 0.75000 1.47400
Mg	Mg	0.50000 0.80517 0.25000 1.47800
Mg	Mg	0.00000 0.30517 0.25000 1.47400
