data_crystal

_cell_length_a 19.21190
_cell_length_b 16.19350
_cell_length_c 14.06170
_cell_angle_alpha 90.00000
_cell_angle_beta  130.11300
_cell_angle_gamma 90.00000

_symmetry_space_group_name_	'P 1'
_symmetry_space_group_name_H-M	'P 1'

loop_
_symmetry_equiv_pos_as_xyz
  x,y,z

loop_
_atom_site_label
_atom_site_type_symbol
_atom_site_fract_x
_atom_site_fract_y
_atom_site_fract_z
_atom_site_charge
O 	O 	0.07099 0.39078 0.05620 -0.57900
O 	O 	0.03863 0.35074 0.87910 -0.59800
O 	O 	0.37458 0.05536 0.19680 -0.54700
O 	O 	0.38196 0.06386 0.36150 -0.49700
O 	O 	0.96237 0.53026 0.61270 -0.33900
N 	N 	0.90350 0.59090 0.57940 -0.04000
C 	C 	0.14110 0.27030 0.05740 -0.20500
C 	C 	0.20340 0.26760 0.19190 0.05600
C 	C 	0.26660 0.20600 0.25210 0.10200
C 	C 	0.27200 0.14400 0.18280 -0.10500
C 	C 	0.22530 0.15970 0.05810 -0.04600
C 	C 	0.16010 0.22140 0.99610 0.07000
C 	C 	0.07740 0.34260 0.99150 0.49700
C 	C 	0.34830 0.08220 0.25270 0.41200
C 	C 	0.93080 0.66910 0.59860 0.06300
H 	H 	0.99000 0.68110 0.63200 0.12000
C 	C 	0.87200 0.73250 0.56950 -0.08000
H 	H 	0.89250 0.78680 0.58520 0.10800
C 	C 	0.78290 0.71630 0.51720 0.05200
C 	C 	0.75630 0.63370 0.49460 -0.08700
H 	H 	0.69680 0.61990 0.45860 0.06800
C 	C 	0.81740 0.57220 0.52530 0.04800
H 	H 	0.79850 0.51730 0.50830 0.04200
C 	C 	0.16940 0.23920 0.17090 -0.03300
C 	C 	0.23180 0.17610 0.23040 -0.09300
O 	O 	0.57099 0.89078 0.05620 -0.45900
O 	O 	0.53863 0.85074 0.87910 -0.48800
O 	O 	0.87458 0.55536 0.19680 -0.43600
O 	O 	0.88196 0.56386 0.36150 -0.40600
O 	O 	0.46237 0.03026 0.61270 -0.49000
N 	N 	0.40350 0.09090 0.57940 -0.04100
C 	C 	0.64110 0.77030 0.05740 -0.16200
C 	C 	0.70340 0.76760 0.19190 0.07900
C 	C 	0.76660 0.70600 0.25210 0.08000
C 	C 	0.77200 0.64400 0.18280 -0.09000
C 	C 	0.72530 0.65970 0.05810 0.00300
C 	C 	0.66010 0.72140 0.99610 0.09200
C 	C 	0.57740 0.84260 0.99150 0.48000
C 	C 	0.84830 0.58220 0.25270 0.42400
C 	C 	0.43080 0.16910 0.59860 0.02200
H 	H 	0.49000 0.18110 0.63200 0.04700
C 	C 	0.37200 0.23250 0.56950 -0.08800
H 	H 	0.39250 0.28680 0.58520 0.06300
C 	C 	0.28290 0.21630 0.51720 0.03100
C 	C 	0.25630 0.13370 0.49460 -0.08600
H 	H 	0.19680 0.11990 0.45860 0.02900
C 	C 	0.31740 0.07220 0.52530 0.01300
H 	H 	0.29850 0.01730 0.50830 0.00400
C 	C 	0.66940 0.73920 0.17090 -0.01600
C 	C 	0.73180 0.67610 0.23040 -0.03800
O 	O 	0.92901 0.39078 0.44380 -0.38900
O 	O 	0.96137 0.35074 0.62090 -0.39800
O 	O 	0.62542 0.05536 0.30320 -0.54500
O 	O 	0.61804 0.06386 0.13850 -0.50400
O 	O 	0.03763 0.53026 0.88730 -0.51500
N 	N 	0.09650 0.59090 0.92060 -0.06800
C 	C 	0.85890 0.27030 0.44260 -0.10200
C 	C 	0.79660 0.26760 0.30810 0.01100
C 	C 	0.73340 0.20600 0.24790 -0.05300
C 	C 	0.72800 0.14400 0.31720 -0.12300
C 	C 	0.77470 0.15970 0.44190 0.02700
C 	C 	0.83990 0.22140 0.50390 0.06500
C 	C 	0.92260 0.34260 0.50850 0.42600
C 	C 	0.65170 0.08220 0.24730 0.43200
C 	C 	0.06920 0.66910 0.90140 0.05200
H 	H 	0.01000 0.68110 0.86800 -0.04100
C 	C 	0.12800 0.73250 0.93050 -0.17700
H 	H 	0.10750 0.78680 0.91480 0.06900
C 	C 	0.21710 0.71630 0.98280 0.14900
C 	C 	0.24370 0.63370 0.00540 -0.20600
H 	H 	0.30320 0.61990 0.04140 0.10200
C 	C 	0.18260 0.57220 0.97470 0.09500
H 	H 	0.20150 0.51730 0.99170 0.03000
C 	C 	0.83060 0.23920 0.32910 0.04700
C 	C 	0.76820 0.17610 0.26960 0.09000
O 	O 	0.42901 0.89078 0.44380 -0.43900
O 	O 	0.46137 0.85074 0.62090 -0.47700
O 	O 	0.12542 0.55536 0.30320 -0.53700
O 	O 	0.11804 0.56386 0.13850 -0.51700
O 	O 	0.53763 0.03026 0.88730 -0.48000
N 	N 	0.59650 0.09090 0.92060 -0.06900
C 	C 	0.35890 0.77030 0.44260 -0.11800
C 	C 	0.29660 0.76760 0.30810 -0.04000
C 	C 	0.23340 0.70600 0.24790 0.01300
C 	C 	0.22800 0.64400 0.31720 -0.12300
C 	C 	0.27470 0.65970 0.44190 0.03200
C 	C 	0.33990 0.72140 0.50390 0.04000
C 	C 	0.42260 0.84260 0.50850 0.43200
C 	C 	0.15170 0.58220 0.24730 0.41700
C 	C 	0.56920 0.16910 0.90140 0.08400
H 	H 	0.51000 0.18110 0.86800 0.02600
C 	C 	0.62800 0.23250 0.93050 -0.17600
H 	H 	0.60750 0.28680 0.91480 0.10100
C 	C 	0.71710 0.21630 0.98280 0.18100
C 	C 	0.74370 0.13370 0.00540 -0.24100
H 	H 	0.80320 0.11990 0.04140 0.12000
C 	C 	0.68260 0.07220 0.97470 0.12500
H 	H 	0.70150 0.01730 0.99170 -0.00900
C 	C 	0.33060 0.73920 0.32910 0.07800
C 	C 	0.26820 0.67610 0.26960 0.01100
O 	O 	0.92901 0.60922 0.94380 -0.36500
O 	O 	0.96137 0.64926 0.12090 -0.38100
O 	O 	0.62542 0.94464 0.80320 -0.43600
O 	O 	0.61804 0.93614 0.63850 -0.42600
O 	O 	0.03763 0.46974 0.38730 -0.52200
N 	N 	0.09650 0.40910 0.42060 -0.04500
C 	C 	0.85890 0.72970 0.94260 -0.05300
C 	C 	0.79660 0.73240 0.80810 -0.04500
C 	C 	0.73340 0.79400 0.74790 -0.06400
C 	C 	0.72800 0.85600 0.81720 -0.12000
C 	C 	0.77470 0.84030 0.94190 0.09800
C 	C 	0.83990 0.77860 0.00390 0.03300
C 	C 	0.92260 0.65740 0.00850 0.38400
C 	C 	0.65170 0.91780 0.74730 0.43400
C 	C 	0.06920 0.33090 0.40140 -0.00100
H 	H 	0.01000 0.31890 0.36800 -0.02800
C 	C 	0.12800 0.26750 0.43050 -0.10200
H 	H 	0.10750 0.21320 0.41480 0.02300
C 	C 	0.21710 0.28370 0.48280 0.02800
C 	C 	0.24370 0.36630 0.50540 -0.08200
H 	H 	0.30320 0.38010 0.54140 0.06300
C 	C 	0.18260 0.42780 0.47470 0.01200
H 	H 	0.20150 0.48270 0.49170 0.05200
C 	C 	0.83060 0.76080 0.82910 0.09900
C 	C 	0.76820 0.82390 0.76960 0.12600
O 	O 	0.42901 0.10922 0.94380 -0.46900
O 	O 	0.46137 0.14926 0.12090 -0.49400
O 	O 	0.12542 0.44464 0.80320 -0.53800
O 	O 	0.11804 0.43614 0.63850 -0.51300
O 	O 	0.53763 0.96974 0.38730 -0.37800
N 	N 	0.59650 0.90910 0.42060 -0.04400
C 	C 	0.35890 0.22970 0.94260 -0.05400
C 	C 	0.29660 0.23240 0.80810 -0.07300
C 	C 	0.23340 0.29400 0.74790 -0.03300
C 	C 	0.22800 0.35600 0.81720 -0.14400
C 	C 	0.27470 0.34030 0.94190 0.07600
C 	C 	0.33990 0.27860 0.00390 -0.03000
C 	C 	0.42260 0.15740 0.00850 0.36400
C 	C 	0.15170 0.41780 0.74730 0.42300
C 	C 	0.56920 0.83090 0.40140 0.03900
H 	H 	0.51000 0.81890 0.36800 0.04400
C 	C 	0.62800 0.76750 0.43050 -0.09300
H 	H 	0.60750 0.71320 0.41480 0.06700
C 	C 	0.71710 0.78370 0.48280 0.04900
C 	C 	0.74370 0.86630 0.50540 -0.08200
H 	H 	0.80320 0.88010 0.54140 0.10300
C 	C 	0.68260 0.92780 0.47470 0.04600
H 	H 	0.70150 0.98270 0.49170 0.09200
C 	C 	0.33060 0.26080 0.82910 0.07700
C 	C 	0.26820 0.32390 0.76960 0.07000
O 	O 	0.07099 0.60922 0.55620 -0.54800
O 	O 	0.03863 0.64926 0.37910 -0.58100
O 	O 	0.37458 0.94464 0.69680 -0.43900
O 	O 	0.38196 0.93614 0.86150 -0.42400
O 	O 	0.96237 0.46974 0.11270 -0.34400
N 	N 	0.90350 0.40910 0.07940 -0.01400
C 	C 	0.14110 0.72970 0.55740 -0.13400
C 	C 	0.20340 0.73240 0.69190 -0.00400
C 	C 	0.26660 0.79400 0.75210 0.09300
C 	C 	0.27200 0.85600 0.68280 -0.10800
C 	C 	0.22530 0.84030 0.55810 0.04000
C 	C 	0.16010 0.77860 0.49610 0.01500
C 	C 	0.07740 0.65740 0.49150 0.43700
C 	C 	0.34830 0.91780 0.75270 0.41600
C 	C 	0.93080 0.33090 0.09860 0.00400
H 	H 	0.99000 0.31890 0.13200 0.13500
C 	C 	0.87200 0.26750 0.06950 0.00700
H 	H 	0.89250 0.21320 0.08520 0.05600
C 	C 	0.78290 0.28370 0.01720 -0.08800
C 	C 	0.75630 0.36630 0.99460 0.05100
H 	H 	0.69680 0.38010 0.95860 0.02400
C 	C 	0.81740 0.42780 0.02530 -0.04300
H 	H 	0.79850 0.48270 0.00830 0.06800
C 	C 	0.16940 0.76080 0.67090 0.01800
C 	C 	0.23180 0.82390 0.73040 -0.05500
O 	O 	0.57099 0.10922 0.55620 -0.50100
O 	O 	0.53863 0.14926 0.37910 -0.50900
O 	O 	0.87458 0.44464 0.69680 -0.43700
O 	O 	0.88196 0.43614 0.86150 -0.40100
O 	O 	0.46237 0.96974 0.11270 -0.38400
N 	N 	0.40350 0.90910 0.07940 -0.02100
C 	C 	0.64110 0.22970 0.55740 -0.11900
C 	C 	0.70340 0.23240 0.69190 0.04900
C 	C 	0.76660 0.29400 0.75210 0.03000
C 	C 	0.77200 0.35600 0.68280 -0.10700
C 	C 	0.72530 0.34030 0.55810 0.03500
C 	C 	0.66010 0.27860 0.49610 0.03900
C 	C 	0.57740 0.15740 0.49150 0.43300
C 	C 	0.84830 0.41780 0.75270 0.42900
C 	C 	0.43080 0.83090 0.09860 -0.01100
H 	H 	0.49000 0.81890 0.13200 0.06200
C 	C 	0.37200 0.76750 0.06950 -0.02100
H 	H 	0.39250 0.71320 0.08520 0.03600
C 	C 	0.28290 0.78370 0.01720 -0.07500
C 	C 	0.25630 0.86630 0.99460 0.03900
H 	H 	0.19680 0.88010 0.95860 0.02100
C 	C 	0.31740 0.92780 0.02530 -0.04300
H 	H 	0.29850 0.98270 0.00830 0.10000
C 	C 	0.66940 0.26080 0.67090 -0.01500
C 	C 	0.73180 0.32390 0.73040 0.02200
Mg	Mg	0.00000 0.43811 0.75000 1.46000
Mg	Mg	0.50000 0.93811 0.75000 1.48500
Mg	Mg	0.00000 0.56189 0.25000 1.45900
Mg	Mg	0.50000 0.06189 0.25000 1.47200
Mg	Mg	-0.00000 0.50000 -0.00000 1.45500
Mg	Mg	0.50000 0.00000 -0.00000 1.46300
Mg	Mg	0.00000 0.50000 0.50000 1.45700
Mg	Mg	0.50000 0.00000 0.50000 1.46500
