data_crystal

_cell_length_a 6.51750
_cell_length_b 9.50540
_cell_length_c 17.08780
_cell_angle_alpha 90.00000
_cell_angle_beta  90.00000
_cell_angle_gamma 90.00000

_symmetry_space_group_name_	'P 1'
_symmetry_space_group_name_H-M	'P 1'

loop_
_symmetry_equiv_pos_as_xyz
  x,y,z

loop_
_atom_site_label
_atom_site_type_symbol
_atom_site_fract_x
_atom_site_fract_y
_atom_site_fract_z
_atom_site_charge
Yb	Yb	0.75000 0.78080 0.62088 1.51700
Yb	Yb	0.25000 0.71920 0.12088 1.51700
Yb	Yb	0.25000 0.21920 0.37912 1.51800
Yb	Yb	0.75000 0.28080 0.87912 1.51800
H 	H 	0.75000 0.22740 0.65210 0.04000
H 	H 	0.25000 0.27260 0.15210 0.04000
H 	H 	0.25000 0.77260 0.34790 0.04000
H 	H 	0.75000 0.72740 0.84790 0.04000
C 	C 	0.75000 0.63030 0.45190 0.31100
C 	C 	0.75000 0.50190 0.50480 -0.00600
C 	C 	0.75000 0.35930 0.48380 -0.05100
C 	C 	0.75000 0.30770 0.40000 0.38300
C 	C 	0.75000 0.29620 0.61340 0.05600
C 	C 	0.75000 0.43590 0.63470 -0.04800
C 	C 	0.75000 0.48960 0.71710 0.40700
C 	C 	0.25000 0.86970 0.95190 0.31300
C 	C 	0.25000 0.99810 0.00480 -0.00800
C 	C 	0.25000 0.14070 0.98380 -0.04900
C 	C 	0.25000 0.19230 0.90000 0.38300
C 	C 	0.25000 0.20380 0.11340 0.05600
C 	C 	0.25000 0.06410 0.13470 -0.04900
C 	C 	0.25000 0.01040 0.21710 0.40600
C 	C 	0.25000 0.36970 0.54810 0.31100
C 	C 	0.25000 0.49810 0.49520 -0.00600
C 	C 	0.25000 0.64070 0.51620 -0.05100
C 	C 	0.25000 0.69230 0.60000 0.38300
C 	C 	0.25000 0.70380 0.38660 0.05600
C 	C 	0.25000 0.56410 0.36530 -0.04800
C 	C 	0.25000 0.51040 0.28290 0.40700
C 	C 	0.75000 0.13030 0.04810 0.31300
C 	C 	0.75000 0.00190 0.99520 -0.00800
C 	C 	0.75000 0.85930 0.01620 -0.04900
C 	C 	0.75000 0.80770 0.10000 0.38300
C 	C 	0.75000 0.79620 0.88660 0.05600
C 	C 	0.75000 0.93590 0.86530 -0.04900
C 	C 	0.75000 0.98960 0.78290 0.40600
N 	N 	0.75000 0.53540 0.58080 -0.16400
N 	N 	0.75000 0.25690 0.53760 -0.12100
N 	N 	0.25000 0.96460 0.08080 -0.16300
N 	N 	0.25000 0.24310 0.03760 -0.12200
N 	N 	0.25000 0.46460 0.41920 -0.16400
N 	N 	0.25000 0.74310 0.46240 -0.12100
N 	N 	0.75000 0.03540 0.91920 -0.16300
N 	N 	0.75000 0.75690 0.96240 -0.12200
O 	O 	0.91950 0.28920 0.36752 -0.41800
O 	O 	0.08050 0.21080 0.86752 -0.41800
O 	O 	0.41950 0.71080 0.63248 -0.41900
O 	O 	0.58050 0.78920 0.13248 -0.41900
O 	O 	0.08050 0.71080 0.63248 -0.41800
O 	O 	0.91950 0.78920 0.13248 -0.41800
O 	O 	0.58050 0.28920 0.36752 -0.41900
O 	O 	0.41950 0.21080 0.86752 -0.41900
O 	O 	0.75000 0.74780 0.48830 -0.42100
O 	O 	0.75000 0.61320 0.38071 -0.23100
O 	O 	0.75000 0.40240 0.77070 -0.45200
O 	O 	0.75000 0.61950 0.72540 -0.38500
O 	O 	0.25000 0.75220 0.98830 -0.42000
O 	O 	0.25000 0.88680 0.88071 -0.23000
O 	O 	0.25000 0.09760 0.27070 -0.45200
O 	O 	0.25000 0.88050 0.22540 -0.38400
O 	O 	0.25000 0.25220 0.51170 -0.42100
O 	O 	0.25000 0.38680 0.61929 -0.23100
O 	O 	0.25000 0.59760 0.22930 -0.45200
O 	O 	0.25000 0.38050 0.27460 -0.38500
O 	O 	0.75000 0.24780 0.01170 -0.42000
O 	O 	0.75000 0.11320 0.11929 -0.23000
O 	O 	0.75000 0.90240 0.72930 -0.45200
O 	O 	0.75000 0.11950 0.77460 -0.38400
