data_crystal

_cell_length_a 6.54950
_cell_length_b 9.53840
_cell_length_c 17.16930
_cell_angle_alpha 90.00000
_cell_angle_beta  90.00000
_cell_angle_gamma 90.00000

_symmetry_space_group_name_	'P 1'
_symmetry_space_group_name_H-M	'P 1'

loop_
_symmetry_equiv_pos_as_xyz
  x,y,z

loop_
_atom_site_label
_atom_site_type_symbol
_atom_site_fract_x
_atom_site_fract_y
_atom_site_fract_z
_atom_site_charge
Er	Er	0.75000 0.78338 0.62035 1.67500
Er	Er	0.25000 0.71662 0.12035 1.67400
Er	Er	0.25000 0.21662 0.37965 1.67600
Er	Er	0.75000 0.28338 0.87965 1.67500
H 	H 	0.75000 0.22890 0.65190 0.02800
H 	H 	0.25000 0.27110 0.15190 0.02700
H 	H 	0.25000 0.77110 0.34810 0.02800
H 	H 	0.75000 0.72890 0.84810 0.02700
C 	C 	0.75000 0.62910 0.45110 0.33800
C 	C 	0.75000 0.50210 0.50540 -0.00400
C 	C 	0.75000 0.35970 0.48400 -0.06900
C 	C 	0.75000 0.30840 0.40060 0.45300
C 	C 	0.75000 0.29730 0.61340 0.06500
C 	C 	0.75000 0.43780 0.63450 -0.06300
C 	C 	0.75000 0.49180 0.71670 0.46400
C 	C 	0.25000 0.87090 0.95110 0.34000
C 	C 	0.25000 0.99790 0.00540 -0.00700
C 	C 	0.25000 0.14030 0.98400 -0.06700
C 	C 	0.25000 0.19160 0.90060 0.45200
C 	C 	0.25000 0.20270 0.11340 0.06500
C 	C 	0.25000 0.06220 0.13450 -0.06400
C 	C 	0.25000 0.00820 0.21670 0.46300
C 	C 	0.25000 0.37090 0.54890 0.33800
C 	C 	0.25000 0.49790 0.49460 -0.00400
C 	C 	0.25000 0.64030 0.51600 -0.06900
C 	C 	0.25000 0.69160 0.59940 0.45300
C 	C 	0.25000 0.70270 0.38660 0.06500
C 	C 	0.25000 0.56220 0.36550 -0.06300
C 	C 	0.25000 0.50820 0.28330 0.46400
C 	C 	0.75000 0.12910 0.04890 0.34000
C 	C 	0.75000 0.00210 0.99460 -0.00700
C 	C 	0.75000 0.85970 0.01600 -0.06700
C 	C 	0.75000 0.80840 0.09940 0.45200
C 	C 	0.75000 0.79730 0.88660 0.06500
C 	C 	0.75000 0.93780 0.86550 -0.06400
C 	C 	0.75000 0.99180 0.78330 0.46300
N 	N 	0.75000 0.53650 0.58057 -0.16900
N 	N 	0.75000 0.25860 0.53840 -0.13200
N 	N 	0.25000 0.96350 0.08057 -0.16800
N 	N 	0.25000 0.24140 0.03840 -0.13400
N 	N 	0.25000 0.46350 0.41943 -0.16900
N 	N 	0.25000 0.74140 0.46160 -0.13200
N 	N 	0.75000 0.03650 0.91943 -0.16800
N 	N 	0.75000 0.75860 0.96160 -0.13400
O 	O 	0.91840 0.28690 0.36922 -0.47200
O 	O 	0.08160 0.21310 0.86922 -0.47200
O 	O 	0.41840 0.71310 0.63078 -0.47400
O 	O 	0.58160 0.78690 0.13078 -0.47400
O 	O 	0.08160 0.71310 0.63078 -0.47200
O 	O 	0.91840 0.78690 0.13078 -0.47200
O 	O 	0.58160 0.28690 0.36922 -0.47400
O 	O 	0.41840 0.21310 0.86922 -0.47400
O 	O 	0.75000 0.74630 0.48701 -0.45700
O 	O 	0.75000 0.61000 0.38082 -0.25400
O 	O 	0.75000 0.40500 0.77014 -0.50300
O 	O 	0.75000 0.62180 0.72443 -0.42400
O 	O 	0.25000 0.75370 0.98701 -0.45700
O 	O 	0.25000 0.89000 0.88082 -0.25400
O 	O 	0.25000 0.09500 0.27014 -0.50400
O 	O 	0.25000 0.87820 0.22443 -0.42300
O 	O 	0.25000 0.25370 0.51299 -0.45700
O 	O 	0.25000 0.39000 0.61918 -0.25400
O 	O 	0.25000 0.59500 0.22986 -0.50300
O 	O 	0.25000 0.37820 0.27557 -0.42400
O 	O 	0.75000 0.24630 0.01299 -0.45700
O 	O 	0.75000 0.11000 0.11918 -0.25400
O 	O 	0.75000 0.90500 0.72986 -0.50400
O 	O 	0.75000 0.12180 0.77557 -0.42300
