data_crystal

_cell_length_a 21.29700
_cell_length_b 21.29700
_cell_length_c 15.38000
_cell_angle_alpha 90.00000
_cell_angle_beta  90.00000
_cell_angle_gamma 120.00000

_symmetry_space_group_name_	'P 1'
_symmetry_space_group_name_H-M	'P 1'

loop_
_symmetry_equiv_pos_as_xyz
  x,y,z

loop_
_atom_site_label
_atom_site_type_symbol
_atom_site_fract_x
_atom_site_fract_y
_atom_site_fract_z
_atom_site_charge
N 	N 	0.16292 0.98695 0.17130 -0.06300
N 	N 	0.07117 0.96842 0.08750 -0.20800
N 	N 	0.20934 0.13412 0.35680 -0.11300
N 	N 	0.09889 0.07910 0.41180 -0.23900
C 	C 	0.28033 0.09850 0.19910 0.05600
C 	C 	0.30902 0.15940 0.25300 0.00900
C 	C 	0.30560 0.10710 0.11400 -0.11300
H 	H 	0.28650 0.06570 0.07730 0.05900
C 	C 	0.22570 0.02300 0.23030 -0.19600
H 	H 	0.24960 0.99340 0.23450 0.10600
H 	H 	0.20860 0.02620 0.28910 0.08100
C 	C 	0.12290 0.01460 0.13880 0.00200
H 	H 	0.13120 0.06180 0.15160 0.01200
C 	C 	0.07780 0.90740 0.08750 0.00900
H 	H 	0.04760 0.86430 0.05600 0.00700
C 	C 	0.13380 0.91800 0.13930 -0.01900
H 	H 	0.14970 0.88440 0.15090 0.03200
C 	C 	0.28670 0.15670 0.34710 -0.08500
H 	H 	0.29670 0.12230 0.37930 0.04700
H 	H 	0.31640 0.20520 0.37350 0.05300
C 	C 	0.16410 0.08720 0.41750 0.07000
H 	H 	0.17780 0.06320 0.45890 -0.01800
C 	C 	0.10250 0.12340 0.34380 -0.00400
H 	H 	0.06330 0.12920 0.32400 0.01100
C 	C 	0.17010 0.15740 0.30980 -0.00700
H 	H 	0.18710 0.19070 0.26260 0.03300
N 	N 	0.82959 0.32028 0.50463 -0.11100
N 	N 	0.73784 0.30175 0.42083 -0.23100
N 	N 	0.87601 0.46745 0.69013 -0.10400
N 	N 	0.76556 0.41243 0.74513 -0.23000
C 	C 	0.94700 0.43183 0.53243 -0.01100
C 	C 	0.97569 0.49273 0.58633 0.09500
C 	C 	0.97227 0.44043 0.44733 -0.01900
H 	H 	0.95317 0.39903 0.41063 0.04800
C 	C 	0.89237 0.35633 0.56363 -0.07500
H 	H 	0.91627 0.32673 0.56783 0.05600
H 	H 	0.87527 0.35953 0.62243 0.05800
C 	C 	0.78957 0.34793 0.47213 0.08000
H 	H 	0.79787 0.39513 0.48493 -0.00600
C 	C 	0.74447 0.24073 0.42083 0.00500
H 	H 	0.71427 0.19763 0.38933 0.01400
C 	C 	0.80047 0.25133 0.47263 -0.01200
H 	H 	0.81637 0.21773 0.48423 0.02900
C 	C 	0.95337 0.49003 0.68043 -0.12800
H 	H 	0.96337 0.45563 0.71263 0.07100
H 	H 	0.98307 0.53853 0.70683 0.07600
C 	C 	0.83077 0.42053 0.75083 0.07300
H 	H 	0.84447 0.39653 0.79223 -0.00800
C 	C 	0.76917 0.45673 0.67713 0.00100
H 	H 	0.72997 0.46253 0.65733 0.02000
C 	C 	0.83677 0.49073 0.64313 -0.00600
H 	H 	0.85377 0.52403 0.59593 0.03800
N 	N 	0.49625 0.65362 0.83797 -0.10800
N 	N 	0.40450 0.63509 0.75417 -0.23100
N 	N 	0.54267 0.80079 0.02347 -0.11900
N 	N 	0.43222 0.74577 0.07847 -0.22500
C 	C 	0.61366 0.76517 0.86577 0.03600
C 	C 	0.64235 0.82607 0.91967 0.03000
C 	C 	0.63893 0.77377 0.78067 -0.10500
H 	H 	0.61983 0.73237 0.74397 0.06700
C 	C 	0.55903 0.68967 0.89697 -0.10000
H 	H 	0.58293 0.66007 0.90117 0.06000
H 	H 	0.54193 0.69287 0.95577 0.06700
C 	C 	0.45623 0.68127 0.80547 0.07800
H 	H 	0.46453 0.72847 0.81827 -0.00500
C 	C 	0.41113 0.57407 0.75417 0.00600
H 	H 	0.38093 0.53097 0.72267 0.01600
C 	C 	0.46713 0.58467 0.80597 -0.01300
H 	H 	0.48303 0.55107 0.81757 0.03100
C 	C 	0.62003 0.82337 0.01377 -0.10200
H 	H 	0.63003 0.78897 0.04597 0.05400
H 	H 	0.64973 0.87187 0.04017 0.05900
C 	C 	0.49743 0.75387 0.08417 0.07200
H 	H 	0.51113 0.72987 0.12557 -0.01100
C 	C 	0.43583 0.79007 0.01047 -0.04400
H 	H 	0.39663 0.79587 0.99067 0.04300
C 	C 	0.50343 0.82407 0.97647 0.03600
H 	H 	0.52043 0.85737 0.92927 0.02600
N 	N 	0.01305 0.17597 0.17130 -0.15500
N 	N 	0.03158 0.10275 0.08750 -0.26300
N 	N 	0.86588 0.07522 0.35680 -0.09100
N 	N 	0.92090 0.01979 0.41180 -0.25200
C 	C 	0.90150 0.18183 0.19910 -0.00100
C 	C 	0.84060 0.14962 0.25300 0.04300
C 	C 	0.89290 0.19850 0.11400 -0.07400
H 	H 	0.93430 0.22080 0.07730 0.06000
C 	C 	0.97700 0.20270 0.23030 0.00100
H 	H 	0.00660 0.25620 0.23450 0.00900
H 	H 	0.97380 0.18240 0.28910 0.04500
C 	C 	0.98540 0.10830 0.13880 0.14600
H 	H 	0.93820 0.06940 0.15160 -0.03300
C 	C 	0.09260 0.17040 0.08750 -0.00400
H 	H 	0.13570 0.18330 0.05600 0.01300
C 	C 	0.08200 0.21580 0.13930 -0.01100
H 	H 	0.11560 0.26530 0.15090 0.02500
C 	C 	0.84330 0.13000 0.34710 -0.10900
H 	H 	0.87770 0.17440 0.37930 0.06100
H 	H 	0.79480 0.11120 0.37350 0.05700
C 	C 	0.91280 0.07690 0.41750 0.07300
H 	H 	0.93680 0.11460 0.45890 -0.00400
C 	C 	0.87660 0.97910 0.34380 0.11000
H 	H 	0.87080 0.93410 0.32400 -0.01000
C 	C 	0.84260 0.01270 0.30980 -0.12600
H 	H 	0.80930 0.99640 0.26260 0.09500
N 	N 	0.67972 0.50930 0.50463 -0.10900
N 	N 	0.69825 0.43608 0.42083 -0.23100
N 	N 	0.53255 0.40855 0.69013 -0.11000
N 	N 	0.58757 0.35312 0.74513 -0.23000
C 	C 	0.56817 0.51516 0.53243 0.03200
C 	C 	0.50727 0.48295 0.58633 0.02400
C 	C 	0.55957 0.53183 0.44733 -0.09900
H 	H 	0.60097 0.55413 0.41063 0.06500
C 	C 	0.64367 0.53603 0.56363 -0.09700
H 	H 	0.67327 0.58953 0.56783 0.05800
H 	H 	0.64047 0.51573 0.62243 0.06400
C 	C 	0.65207 0.44163 0.47213 0.07800
H 	H 	0.60487 0.40273 0.48493 -0.00600
C 	C 	0.75927 0.50373 0.42083 0.00500
H 	H 	0.80237 0.51663 0.38933 0.01700
C 	C 	0.74867 0.54913 0.47263 -0.01300
H 	H 	0.78227 0.59863 0.48423 0.03100
C 	C 	0.50997 0.46333 0.68043 -0.09200
H 	H 	0.54437 0.50773 0.71263 0.05400
H 	H 	0.46147 0.44453 0.70683 0.05600
C 	C 	0.57947 0.41023 0.75083 0.07400
H 	H 	0.60347 0.44793 0.79223 -0.01000
C 	C 	0.54327 0.31243 0.67713 -0.00100
H 	H 	0.53747 0.26743 0.65733 0.02000
C 	C 	0.50927 0.34603 0.64313 -0.00400
H 	H 	0.47597 0.32973 0.59593 0.03400
N 	N 	0.34638 0.84264 0.83797 -0.10800
N 	N 	0.36491 0.76942 0.75417 -0.23100
N 	N 	0.19921 0.74189 0.02347 -0.12000
N 	N 	0.25423 0.68646 0.07847 -0.22400
C 	C 	0.23483 0.84850 0.86577 0.02600
C 	C 	0.17393 0.81629 0.91967 0.04400
C 	C 	0.22623 0.86517 0.78067 -0.08600
H 	H 	0.26763 0.88747 0.74397 0.06600
C 	C 	0.31033 0.86937 0.89697 -0.09700
H 	H 	0.33993 0.92287 0.90117 0.06500
H 	H 	0.30713 0.84907 0.95577 0.06800
C 	C 	0.31873 0.77497 0.80547 0.07900
H 	H 	0.27153 0.73607 0.81827 -0.00600
C 	C 	0.42593 0.83707 0.75417 0.00800
H 	H 	0.46903 0.84997 0.72267 0.01800
C 	C 	0.41533 0.88247 0.80597 -0.01200
H 	H 	0.44893 0.93197 0.81757 0.03900
C 	C 	0.17663 0.79667 0.01377 -0.10900
H 	H 	0.21103 0.84107 0.04597 0.05800
H 	H 	0.12813 0.77787 0.04017 0.05500
C 	C 	0.24613 0.74357 0.08417 0.07100
H 	H 	0.27013 0.78127 0.12557 -0.01000
C 	C 	0.20993 0.64577 0.01047 -0.05000
H 	H 	0.20413 0.60077 0.99067 0.04400
C 	C 	0.17593 0.67937 0.97647 0.03700
H 	H 	0.14263 0.66307 0.92927 0.01900
N 	N 	0.82403 0.83708 0.17130 -0.10800
N 	N 	0.89725 0.92883 0.08750 -0.22100
N 	N 	0.92478 0.79066 0.35680 -0.12700
N 	N 	0.98021 0.90111 0.41180 -0.19500
C 	C 	0.81817 0.71967 0.19910 0.03000
C 	C 	0.85038 0.69098 0.25300 0.02700
C 	C 	0.80150 0.69440 0.11400 -0.09300
H 	H 	0.77920 0.71350 0.07730 0.06100
C 	C 	0.79730 0.77430 0.23030 -0.09600
H 	H 	0.74380 0.75040 0.23450 0.05700
H 	H 	0.81760 0.79140 0.28910 0.06500
C 	C 	0.89170 0.87710 0.13880 0.08000
H 	H 	0.93060 0.86880 0.15160 0.00200
C 	C 	0.82960 0.92220 0.08750 0.00700
H 	H 	0.81670 0.95240 0.05600 0.01900
C 	C 	0.78420 0.86620 0.13930 -0.01300
H 	H 	0.73470 0.85030 0.15090 0.03000
C 	C 	0.87000 0.71330 0.34710 -0.08600
H 	H 	0.82560 0.70330 0.37930 0.05200
H 	H 	0.88880 0.68360 0.37350 0.05700
C 	C 	0.92310 0.83590 0.41750 0.07900
H 	H 	0.88540 0.82220 0.45890 -0.00900
C 	C 	0.02090 0.89750 0.34380 -0.10500
H 	H 	0.06590 0.93670 0.32400 0.06100
C 	C 	0.98730 0.82990 0.30980 0.11600
H 	H 	0.00360 0.81290 0.26260 -0.02500
N 	N 	0.49070 0.17041 0.50463 -0.10600
N 	N 	0.56392 0.26216 0.42083 -0.23100
N 	N 	0.59145 0.12399 0.69013 -0.11600
N 	N 	0.64688 0.23444 0.74513 -0.23000
C 	C 	0.48484 0.05300 0.53243 0.07600
C 	C 	0.51705 0.02431 0.58633 -0.04600
C 	C 	0.46817 0.02773 0.44733 -0.18000
H 	H 	0.44587 0.04683 0.41063 0.08300
C 	C 	0.46397 0.10763 0.56363 -0.11900
H 	H 	0.41047 0.08373 0.56783 0.05900
H 	H 	0.48427 0.12473 0.62243 0.06900
C 	C 	0.55837 0.21043 0.47213 0.07600
H 	H 	0.59727 0.20213 0.48493 -0.00700
C 	C 	0.49627 0.25553 0.42083 0.00500
H 	H 	0.48337 0.28573 0.38933 0.01500
C 	C 	0.45087 0.19953 0.47263 -0.01600
H 	H 	0.40137 0.18363 0.48423 0.02900
C 	C 	0.53667 0.04663 0.68043 -0.05700
H 	H 	0.49227 0.03663 0.71263 0.03700
H 	H 	0.55547 0.01693 0.70683 0.03700
C 	C 	0.58977 0.16923 0.75083 0.07500
H 	H 	0.55207 0.15553 0.79223 -0.01300
C 	C 	0.68757 0.23083 0.67713 -0.00200
H 	H 	0.73257 0.27003 0.65733 0.02100
C 	C 	0.65397 0.16323 0.64313 -0.00200
H 	H 	0.67027 0.14623 0.59593 0.03100
N 	N 	0.15736 0.50375 0.83797 -0.11000
N 	N 	0.23058 0.59550 0.75417 -0.23100
N 	N 	0.25811 0.45733 0.02347 -0.12100
N 	N 	0.31354 0.56778 0.07847 -0.22400
C 	C 	0.15150 0.38634 0.86577 0.02500
C 	C 	0.18371 0.35765 0.91967 0.03800
C 	C 	0.13483 0.36107 0.78067 -0.09800
H 	H 	0.11253 0.38017 0.74397 0.06100
C 	C 	0.13063 0.44097 0.89697 -0.09300
H 	H 	0.07713 0.41707 0.90117 0.05200
H 	H 	0.15093 0.45807 0.95577 0.06400
C 	C 	0.22503 0.54377 0.80547 0.07800
H 	H 	0.26393 0.53547 0.81827 -0.00600
C 	C 	0.16293 0.58887 0.75417 0.00300
H 	H 	0.15003 0.61907 0.72267 0.01300
C 	C 	0.11753 0.53287 0.80597 -0.01400
H 	H 	0.06803 0.51697 0.81757 0.02200
C 	C 	0.20333 0.37997 0.01377 -0.10600
H 	H 	0.15893 0.36997 0.04597 0.05200
H 	H 	0.22213 0.35027 0.04017 0.05600
C 	C 	0.25643 0.50257 0.08417 0.07100
H 	H 	0.21873 0.48887 0.12557 -0.01200
C 	C 	0.35423 0.56417 0.01047 -0.05100
H 	H 	0.39923 0.60337 0.99067 0.04500
C 	C 	0.32063 0.49657 0.97647 0.04000
H 	H 	0.33693 0.47957 0.92927 0.02100
N 	N 	0.83708 0.01305 0.82870 -0.14500
N 	N 	0.92883 0.03158 0.91250 -0.24200
N 	N 	0.79066 0.86588 0.64320 -0.10900
N 	N 	0.90111 0.92090 0.58820 -0.21900
C 	C 	0.71967 0.90150 0.80090 0.01300
C 	C 	0.69098 0.84060 0.74700 0.03600
C 	C 	0.69440 0.89290 0.88600 -0.08900
H 	H 	0.71350 0.93430 0.92270 0.07000
C 	C 	0.77430 0.97700 0.76970 -0.01800
H 	H 	0.75040 0.00660 0.76550 0.01800
H 	H 	0.79140 0.97380 0.71090 0.05000
C 	C 	0.87710 0.98540 0.86120 0.13600
H 	H 	0.86880 0.93820 0.84840 -0.01900
C 	C 	0.92220 0.09260 0.91250 0.00300
H 	H 	0.95240 0.13570 0.94400 0.02600
C 	C 	0.86620 0.08200 0.86070 -0.00800
H 	H 	0.85030 0.11560 0.84910 0.02800
C 	C 	0.71330 0.84330 0.65290 -0.09800
H 	H 	0.70330 0.87770 0.62070 0.05800
H 	H 	0.68360 0.79480 0.62650 0.05800
C 	C 	0.83590 0.91280 0.58250 0.07800
H 	H 	0.82220 0.93680 0.54110 -0.00400
C 	C 	0.89750 0.87660 0.65620 0.00200
H 	H 	0.93670 0.87080 0.67600 0.03000
C 	C 	0.82990 0.84260 0.69020 -0.00200
H 	H 	0.81290 0.80930 0.73740 0.03500
N 	N 	0.50375 0.34638 0.16203 -0.10900
N 	N 	0.59550 0.36491 0.24583 -0.23100
N 	N 	0.45733 0.19921 0.97653 -0.10000
N 	N 	0.56778 0.25423 0.92153 -0.23700
C 	C 	0.38634 0.23483 0.13423 0.02900
C 	C 	0.35765 0.17393 0.08033 0.01700
C 	C 	0.36107 0.22623 0.21933 -0.09300
H 	H 	0.38017 0.26763 0.25603 0.06300
C 	C 	0.44097 0.31033 0.10303 -0.09400
H 	H 	0.41707 0.33993 0.09883 0.05400
H 	H 	0.45807 0.30713 0.04423 0.05900
C 	C 	0.54377 0.31873 0.19453 0.07800
H 	H 	0.53547 0.27153 0.18173 -0.00700
C 	C 	0.58887 0.42593 0.24583 0.00500
H 	H 	0.61907 0.46903 0.27733 0.01500
C 	C 	0.53287 0.41533 0.19403 -0.01300
H 	H 	0.51697 0.44893 0.18243 0.02800
C 	C 	0.37997 0.17663 0.98623 -0.08000
H 	H 	0.36997 0.21103 0.95403 0.05300
H 	H 	0.35027 0.12813 0.95983 0.05300
C 	C 	0.50257 0.24613 0.91583 0.07600
H 	H 	0.48887 0.27013 0.87443 -0.01100
C 	C 	0.56417 0.20993 0.98953 0.05400
H 	H 	0.60337 0.20413 0.00933 -0.00700
C 	C 	0.49657 0.17593 0.02353 -0.05400
H 	H 	0.47957 0.14263 0.07073 0.04500
N 	N 	0.17041 0.67972 0.49537 -0.10600
N 	N 	0.26216 0.69825 0.57917 -0.23100
N 	N 	0.12399 0.53255 0.30987 -0.11700
N 	N 	0.23444 0.58757 0.25487 -0.23100
C 	C 	0.05300 0.56817 0.46757 0.07600
C 	C 	0.02431 0.50727 0.41367 -0.04700
C 	C 	0.02773 0.55957 0.55267 -0.17900
H 	H 	0.04683 0.60097 0.58937 0.08300
C 	C 	0.10763 0.64367 0.43637 -0.12000
H 	H 	0.08373 0.67327 0.43217 0.05900
H 	H 	0.12473 0.64047 0.37757 0.06900
C 	C 	0.21043 0.65207 0.52787 0.07600
H 	H 	0.20213 0.60487 0.51507 -0.00700
C 	C 	0.25553 0.75927 0.57917 0.00500
H 	H 	0.28573 0.80237 0.61067 0.01700
C 	C 	0.19953 0.74867 0.52737 -0.01500
H 	H 	0.18363 0.78227 0.51577 0.03000
C 	C 	0.04663 0.50997 0.31957 -0.05600
H 	H 	0.03663 0.54437 0.28737 0.03600
H 	H 	0.01693 0.46147 0.29317 0.03500
C 	C 	0.16923 0.57947 0.24917 0.07500
H 	H 	0.15553 0.60347 0.20777 -0.01400
C 	C 	0.23083 0.54327 0.32287 -0.00300
H 	H 	0.27003 0.53747 0.34267 0.02100
C 	C 	0.16323 0.50927 0.35687 -0.00300
H 	H 	0.14623 0.47597 0.40407 0.03100
N 	N 	0.98695 0.82403 0.82870 -0.07000
N 	N 	0.96842 0.89725 0.91250 -0.20000
N 	N 	0.13412 0.92478 0.64320 -0.13100
N 	N 	0.07910 0.98021 0.58820 -0.20000
C 	C 	0.09850 0.81817 0.80090 0.06100
C 	C 	0.15940 0.85038 0.74700 0.00800
C 	C 	0.10710 0.80150 0.88600 -0.12100
H 	H 	0.06570 0.77920 0.92270 0.07000
C 	C 	0.02300 0.79730 0.76970 -0.18200
H 	H 	0.99340 0.74380 0.76550 0.10000
H 	H 	0.02620 0.81760 0.71090 0.08000
C 	C 	0.01460 0.89170 0.86120 0.02200
H 	H 	0.06180 0.93060 0.84840 0.01800
C 	C 	0.90740 0.82960 0.91250 0.01200
H 	H 	0.86430 0.81670 0.94400 0.01800
C 	C 	0.91800 0.78420 0.86070 -0.01500
H 	H 	0.88440 0.73470 0.84910 0.03300
C 	C 	0.15670 0.87000 0.65290 -0.07600
H 	H 	0.12230 0.82560 0.62070 0.04600
H 	H 	0.20520 0.88880 0.62650 0.05400
C 	C 	0.08720 0.92310 0.58250 0.07700
H 	H 	0.06320 0.88540 0.54110 -0.01600
C 	C 	0.12340 0.02090 0.65620 -0.12300
H 	H 	0.12920 0.06590 0.67600 0.05500
C 	C 	0.15740 0.98730 0.69020 0.13000
H 	H 	0.19070 0.00360 0.73740 -0.03200
N 	N 	0.65362 0.15736 0.16203 -0.11000
N 	N 	0.63509 0.23058 0.24583 -0.23100
N 	N 	0.80079 0.25811 0.97653 -0.10000
N 	N 	0.74577 0.31354 0.92153 -0.23600
C 	C 	0.76517 0.15150 0.13423 0.04000
C 	C 	0.82607 0.18371 0.08033 0.00100
C 	C 	0.77377 0.13483 0.21933 -0.11400
H 	H 	0.73237 0.11253 0.25603 0.06600
C 	C 	0.68967 0.13063 0.10303 -0.09800
H 	H 	0.66007 0.07713 0.09883 0.04900
H 	H 	0.69287 0.15093 0.04423 0.05900
C 	C 	0.68127 0.22503 0.19453 0.07700
H 	H 	0.72847 0.26393 0.18173 -0.00600
C 	C 	0.57407 0.16293 0.24583 0.00200
H 	H 	0.53097 0.15003 0.27733 0.01200
C 	C 	0.58467 0.11753 0.19403 -0.01500
H 	H 	0.55107 0.06803 0.18243 0.01900
C 	C 	0.82337 0.20333 0.98623 -0.07200
H 	H 	0.78897 0.15893 0.95403 0.04900
H 	H 	0.87187 0.22213 0.95983 0.05600
C 	C 	0.75387 0.25643 0.91583 0.07800
H 	H 	0.72987 0.21873 0.87443 -0.01100
C 	C 	0.79007 0.35423 0.98953 0.05200
H 	H 	0.79587 0.39923 0.00933 -0.00400
C 	C 	0.82407 0.32063 0.02353 -0.04900
H 	H 	0.85737 0.33693 0.07073 0.05100
N 	N 	0.32028 0.49070 0.49537 -0.10900
N 	N 	0.30175 0.56392 0.57917 -0.23100
N 	N 	0.46745 0.59145 0.30987 -0.11100
N 	N 	0.41243 0.64688 0.25487 -0.23000
C 	C 	0.43183 0.48484 0.46757 0.03200
C 	C 	0.49273 0.51705 0.41367 0.02400
C 	C 	0.44043 0.46817 0.55267 -0.09900
H 	H 	0.39903 0.44587 0.58937 0.06500
C 	C 	0.35633 0.46397 0.43637 -0.09700
H 	H 	0.32673 0.41047 0.43217 0.05700
H 	H 	0.35953 0.48427 0.37757 0.06300
C 	C 	0.34793 0.55837 0.52787 0.07800
H 	H 	0.39513 0.59727 0.51507 -0.00600
C 	C 	0.24073 0.49627 0.57917 0.00500
H 	H 	0.19763 0.48337 0.61067 0.01300
C 	C 	0.25133 0.45087 0.52737 -0.01400
H 	H 	0.21773 0.40137 0.51577 0.02800
C 	C 	0.49003 0.53667 0.31957 -0.09200
H 	H 	0.45563 0.49227 0.28737 0.05300
H 	H 	0.53853 0.55547 0.29317 0.05500
C 	C 	0.42053 0.58977 0.24917 0.07400
H 	H 	0.39653 0.55207 0.20777 -0.01100
C 	C 	0.45673 0.68757 0.32287 -0.00100
H 	H 	0.46253 0.73257 0.34267 0.02100
C 	C 	0.49073 0.65397 0.35687 -0.00400
H 	H 	0.52403 0.67027 0.40407 0.03400
N 	N 	0.17597 0.16292 0.82870 -0.10900
N 	N 	0.10275 0.07117 0.91250 -0.23600
N 	N 	0.07522 0.20934 0.64320 -0.09100
N 	N 	0.01979 0.09889 0.58820 -0.26500
C 	C 	0.18183 0.28033 0.80090 0.03500
C 	C 	0.14962 0.30902 0.74700 0.02100
C 	C 	0.19850 0.30560 0.88600 -0.10700
H 	H 	0.22080 0.28650 0.92270 0.07100
C 	C 	0.20270 0.22570 0.76970 -0.09900
H 	H 	0.25620 0.24960 0.76550 0.05800
H 	H 	0.18240 0.20860 0.71090 0.06200
C 	C 	0.10830 0.12290 0.86120 0.07600
H 	H 	0.06940 0.13120 0.84840 -0.01400
C 	C 	0.17040 0.07780 0.91250 0.00400
H 	H 	0.18330 0.04760 0.94400 0.01300
C 	C 	0.21580 0.13380 0.86070 -0.01300
H 	H 	0.26530 0.14970 0.84910 0.02900
C 	C 	0.13000 0.28670 0.65290 -0.09900
H 	H 	0.17440 0.29670 0.62070 0.05500
H 	H 	0.11120 0.31640 0.62650 0.05400
C 	C 	0.07690 0.16410 0.58250 0.06800
H 	H 	0.11460 0.17780 0.54110 -0.01100
C 	C 	0.97910 0.10250 0.65620 0.12100
H 	H 	0.93410 0.06330 0.67600 -0.02300
C 	C 	0.01270 0.17010 0.69020 -0.14200
H 	H 	0.99640 0.18710 0.73740 0.10200
N 	N 	0.84264 0.49625 0.16203 -0.10700
N 	N 	0.76942 0.40450 0.24583 -0.23100
N 	N 	0.74189 0.54267 0.97653 -0.10000
N 	N 	0.68646 0.43222 0.92153 -0.23600
C 	C 	0.84850 0.61366 0.13423 0.03900
C 	C 	0.81629 0.64235 0.08033 0.01300
C 	C 	0.86517 0.63893 0.21933 -0.10100
H 	H 	0.88747 0.61983 0.25603 0.07000
C 	C 	0.86937 0.55903 0.10303 -0.10100
H 	H 	0.92287 0.58293 0.09883 0.06300
H 	H 	0.84907 0.54193 0.04423 0.06300
C 	C 	0.77497 0.45623 0.19453 0.07800
H 	H 	0.73607 0.46453 0.18173 -0.00700
C 	C 	0.83707 0.41113 0.24583 0.00700
H 	H 	0.84997 0.38093 0.27733 0.01800
C 	C 	0.88247 0.46713 0.19403 -0.01300
H 	H 	0.93197 0.48303 0.18243 0.03800
C 	C 	0.79667 0.62003 0.98623 -0.08000
H 	H 	0.84107 0.63003 0.95403 0.05500
H 	H 	0.77787 0.64973 0.95983 0.05600
C 	C 	0.74357 0.49743 0.91583 0.07600
H 	H 	0.78127 0.51113 0.87443 -0.00900
C 	C 	0.64577 0.43583 0.98953 0.05000
H 	H 	0.60077 0.39663 0.00933 -0.00400
C 	C 	0.67937 0.50343 0.02353 -0.04900
H 	H 	0.66307 0.52043 0.07073 0.04700
N 	N 	0.50930 0.82959 0.49537 -0.11100
N 	N 	0.43608 0.73784 0.57917 -0.23100
N 	N 	0.40855 0.87601 0.30987 -0.10400
N 	N 	0.35312 0.76556 0.25487 -0.23000
C 	C 	0.51516 0.94700 0.46757 -0.01200
C 	C 	0.48295 0.97569 0.41367 0.09600
C 	C 	0.53183 0.97227 0.55267 -0.02000
H 	H 	0.55413 0.95317 0.58937 0.04700
C 	C 	0.53603 0.89237 0.43637 -0.07500
H 	H 	0.58953 0.91627 0.43217 0.05600
H 	H 	0.51573 0.87527 0.37757 0.05800
C 	C 	0.44163 0.78957 0.52787 0.08000
H 	H 	0.40273 0.79787 0.51507 -0.00600
C 	C 	0.50373 0.74447 0.57917 0.00500
H 	H 	0.51663 0.71427 0.61067 0.01600
C 	C 	0.54913 0.80047 0.52737 -0.01100
H 	H 	0.59863 0.81637 0.51577 0.03000
C 	C 	0.46333 0.95337 0.31957 -0.12900
H 	H 	0.50773 0.96337 0.28737 0.07100
H 	H 	0.44453 0.98307 0.29317 0.07600
C 	C 	0.41023 0.83077 0.24917 0.07300
H 	H 	0.44793 0.84447 0.20777 -0.00800
C 	C 	0.31243 0.76917 0.32287 0.00100
H 	H 	0.26743 0.72997 0.34267 0.02000
C 	C 	0.34603 0.83677 0.35687 -0.00600
H 	H 	0.32973 0.85377 0.40407 0.03800
Cd	Cd	-0.00000 0.00000 -0.00000 1.16500
Cd	Cd	0.66667 0.33333 0.33333 1.18800
Cd	Cd	0.33333 0.66667 0.66667 1.18800
Cd	Cd	-0.00000 0.00000 0.50000 1.16900
Cd	Cd	0.66667 0.33333 0.83333 1.18900
Cd	Cd	0.33333 0.66667 0.16667 1.18700
