data_crystal

_cell_length_a 21.21800
_cell_length_b 21.21800
_cell_length_c 15.25900
_cell_angle_alpha 90.00000
_cell_angle_beta  90.00000
_cell_angle_gamma 120.00000

_symmetry_space_group_name_	'P 1'
_symmetry_space_group_name_H-M	'P 1'

loop_
_symmetry_equiv_pos_as_xyz
  x,y,z

loop_
_atom_site_label
_atom_site_type_symbol
_atom_site_fract_x
_atom_site_fract_y
_atom_site_fract_z
_atom_site_charge
N 	N 	0.07582 0.20983 0.14198 -0.09100
N 	N 	0.02033 0.09891 0.08844 -0.27100
N 	N 	0.17681 0.16347 0.32731 -0.10900
N 	N 	0.10297 0.07179 0.41154 -0.23900
C 	C 	0.14991 0.30920 0.24603 0.02400
C 	C 	0.18282 0.28130 0.29985 0.03000
C 	C 	0.13391 0.36065 0.27997 -0.10000
H 	H 	0.11110 0.37950 0.24330 0.06100
C 	C 	0.13088 0.28742 0.15133 -0.09900
H 	H 	0.11210 0.31740 0.12470 0.05200
H 	H 	0.17540 0.29730 0.11920 0.05300
C 	C 	0.07749 0.16410 0.08234 0.07000
H 	H 	0.11550 0.17740 0.04080 -0.01800
C 	C 	0.97976 0.10329 0.15580 0.12400
H 	H 	0.93480 0.06410 0.17590 -0.02600
C 	C 	0.01308 0.17151 0.18940 -0.14600
H 	H 	0.99640 0.18910 0.23610 0.10200
C 	C 	0.20445 0.22710 0.26873 -0.09500
H 	H 	0.18510 0.21060 0.20890 0.06000
H 	H 	0.25820 0.25130 0.26580 0.05500
C 	C 	0.10896 0.12415 0.36000 0.07500
H 	H 	0.07030 0.13310 0.34730 -0.01500
C 	C 	0.16980 0.07724 0.41060 0.00500
H 	H 	0.18220 0.04620 0.44180 0.00700
C 	C 	0.21581 0.13326 0.35910 -0.01600
H 	H 	0.26540 0.14850 0.34730 0.02800
N 	N 	0.74249 0.54316 0.47531 -0.11100
N 	N 	0.68700 0.43224 0.42177 -0.23200
N 	N 	0.84348 0.49680 0.66064 -0.10700
N 	N 	0.76964 0.40512 0.74487 -0.23200
C 	C 	0.81658 0.64253 0.57936 0.02600
C 	C 	0.84949 0.61463 0.63318 0.03500
C 	C 	0.80058 0.69398 0.61330 -0.09800
H 	H 	0.77777 0.71283 0.57663 0.06500
C 	C 	0.79755 0.62075 0.48466 -0.09300
H 	H 	0.77877 0.65073 0.45803 0.05600
H 	H 	0.84207 0.63063 0.45253 0.05600
C 	C 	0.74416 0.49743 0.41567 0.07700
H 	H 	0.78217 0.51073 0.37413 -0.01100
C 	C 	0.64643 0.43662 0.48913 0.00300
H 	H 	0.60147 0.39743 0.50923 0.01900
C 	C 	0.67975 0.50484 0.52273 -0.00600
H 	H 	0.66307 0.52243 0.56943 0.03400
C 	C 	0.87112 0.56043 0.60206 -0.10000
H 	H 	0.85177 0.54393 0.54223 0.06600
H 	H 	0.92487 0.58463 0.59913 0.06400
C 	C 	0.77563 0.45748 0.69333 0.07800
H 	H 	0.73697 0.46643 0.68063 -0.00600
C 	C 	0.83647 0.41057 0.74393 0.01000
H 	H 	0.84887 0.37953 0.77513 0.01700
C 	C 	0.88248 0.46659 0.69243 -0.01300
H 	H 	0.93207 0.48183 0.68063 0.03800
N 	N 	0.40915 0.87650 0.80865 -0.10700
N 	N 	0.35366 0.76558 0.75511 -0.23200
N 	N 	0.51014 0.83014 0.99398 -0.09100
N 	N 	0.43630 0.73846 0.07821 -0.23100
C 	C 	0.48324 0.97587 0.91270 0.06800
C 	C 	0.51615 0.94797 0.96652 0.02700
C 	C 	0.46724 0.02732 0.94664 -0.13000
H 	H 	0.44443 0.04617 0.90997 0.07000
C 	C 	0.46421 0.95409 0.81800 -0.11400
H 	H 	0.44543 0.98407 0.79137 0.07200
H 	H 	0.50873 0.96397 0.78587 0.06700
C 	C 	0.41082 0.83077 0.74901 0.07800
H 	H 	0.44883 0.84407 0.70747 -0.01000
C 	C 	0.31309 0.76996 0.82247 0.00600
H 	H 	0.26813 0.73077 0.84257 0.02100
C 	C 	0.34641 0.83818 0.85607 -0.00600
H 	H 	0.32973 0.85577 0.90277 0.04200
C 	C 	0.53778 0.89377 0.93540 -0.09300
H 	H 	0.51843 0.87727 0.87557 0.06400
H 	H 	0.59153 0.91797 0.93247 0.06500
C 	C 	0.44229 0.79082 0.02667 0.06200
H 	H 	0.40363 0.79977 0.01397 -0.00500
C 	C 	0.50313 0.74391 0.07727 0.01400
H 	H 	0.51553 0.71287 0.10847 0.01000
C 	C 	0.54914 0.79993 0.02577 -0.03300
H 	H 	0.59873 0.81517 0.01397 0.03200
N 	N 	0.79017 0.86599 0.14198 -0.11100
N 	N 	0.90109 0.92142 0.08844 -0.22400
N 	N 	0.83653 0.01334 0.32731 -0.15000
N 	N 	0.92821 0.03118 0.41154 -0.24800
C 	C 	0.69080 0.84071 0.24603 0.04000
C 	C 	0.71870 0.90152 0.29985 0.00500
C 	C 	0.63935 0.77326 0.27997 -0.10800
H 	H 	0.62050 0.73160 0.24330 0.06800
C 	C 	0.71258 0.84346 0.15133 -0.09900
H 	H 	0.68260 0.79470 0.12470 0.05600
H 	H 	0.70270 0.87810 0.11920 0.05700
C 	C 	0.83590 0.91339 0.08234 0.08000
H 	H 	0.82260 0.93810 0.04080 -0.00900
C 	C 	0.89671 0.87647 0.15580 0.00400
H 	H 	0.93590 0.87070 0.17590 0.02800
C 	C 	0.82849 0.84157 0.18940 -0.00400
H 	H 	0.81090 0.80730 0.23610 0.03500
C 	C 	0.77290 0.97735 0.26873 -0.00500
H 	H 	0.78940 0.97450 0.20890 0.04600
H 	H 	0.74870 0.00690 0.26580 0.01100
C 	C 	0.87585 0.98481 0.36000 0.14200
H 	H 	0.86690 0.93720 0.34730 -0.02200
C 	C 	0.92276 0.09256 0.41060 0.00400
H 	H 	0.95380 0.13600 0.44180 0.02200
C 	C 	0.86674 0.08255 0.35910 -0.01000
H 	H 	0.85150 0.11690 0.34730 0.02600
N 	N 	0.45684 0.19932 0.47531 -0.11200
N 	N 	0.56776 0.25475 0.42177 -0.23300
N 	N 	0.50320 0.34667 0.66064 -0.10900
N 	N 	0.59488 0.36451 0.74487 -0.23200
C 	C 	0.35747 0.17404 0.57936 0.03200
C 	C 	0.38537 0.23485 0.63318 0.02400
C 	C 	0.30602 0.10659 0.61330 -0.11800
H 	H 	0.28717 0.06493 0.57663 0.06500
C 	C 	0.37925 0.17679 0.48466 -0.09600
H 	H 	0.34927 0.12803 0.45803 0.05300
H 	H 	0.36937 0.21143 0.45253 0.05400
C 	C 	0.50257 0.24672 0.41567 0.07700
H 	H 	0.48927 0.27143 0.37413 -0.01200
C 	C 	0.56338 0.20980 0.48913 0.00100
H 	H 	0.60257 0.20403 0.50923 0.01900
C 	C 	0.49516 0.17490 0.52273 -0.00700
H 	H 	0.47757 0.14063 0.56943 0.03100
C 	C 	0.43957 0.31068 0.60206 -0.09300
H 	H 	0.45607 0.30783 0.54223 0.06200
H 	H 	0.41537 0.34023 0.59913 0.05600
C 	C 	0.54252 0.31814 0.69333 0.07800
H 	H 	0.53357 0.27053 0.68063 -0.00600
C 	C 	0.58943 0.42589 0.74393 0.00800
H 	H 	0.62047 0.46933 0.77513 0.01400
C 	C 	0.53341 0.41588 0.69243 -0.01400
H 	H 	0.51817 0.45023 0.68063 0.03000
N 	N 	0.12350 0.53266 0.80865 -0.11900
N 	N 	0.23442 0.58809 0.75511 -0.23300
N 	N 	0.16986 0.68001 0.99398 -0.08400
N 	N 	0.26154 0.69785 0.07821 -0.23100
C 	C 	0.02413 0.50738 0.91270 -0.07000
C 	C 	0.05203 0.56819 0.96652 0.11700
C 	C 	0.97268 0.43993 0.94664 0.02200
H 	H 	0.95383 0.39827 0.90997 0.03700
C 	C 	0.04591 0.51013 0.81800 -0.04300
H 	H 	0.01593 0.46137 0.79137 0.03200
H 	H 	0.03603 0.54477 0.78587 0.03200
C 	C 	0.16923 0.58006 0.74901 0.08000
H 	H 	0.15593 0.60477 0.70747 -0.01500
C 	C 	0.23004 0.54314 0.82247 0.00300
H 	H 	0.26923 0.53737 0.84257 0.02200
C 	C 	0.16182 0.50824 0.85607 -0.00200
H 	H 	0.14423 0.47397 0.90277 0.03500
C 	C 	0.10623 0.64402 0.93540 -0.13900
H 	H 	0.12273 0.64117 0.87557 0.07600
H 	H 	0.08203 0.67357 0.93247 0.06900
C 	C 	0.20918 0.65148 0.02667 0.05700
H 	H 	0.20023 0.60387 0.01397 -0.00500
C 	C 	0.25609 0.75923 0.07727 0.01500
H 	H 	0.28713 0.80267 0.10847 0.01200
C 	C 	0.20007 0.74922 0.02577 -0.03900
H 	H 	0.18483 0.78357 0.01397 0.03300
N 	N 	0.13401 0.92418 0.14198 -0.13500
N 	N 	0.07858 0.97967 0.08844 -0.20100
N 	N 	0.98666 0.82319 0.32731 -0.07000
N 	N 	0.96882 0.89703 0.41154 -0.20300
C 	C 	0.15929 0.85009 0.24603 0.00900
C 	C 	0.09848 0.81718 0.29985 0.05700
C 	C 	0.22674 0.86609 0.27997 -0.08800
H 	H 	0.26840 0.88890 0.24330 0.06600
C 	C 	0.15654 0.86912 0.15133 -0.07400
H 	H 	0.20530 0.88790 0.12470 0.05200
H 	H 	0.12190 0.82460 0.11920 0.04300
C 	C 	0.08661 0.92251 0.08234 0.07900
H 	H 	0.06190 0.88450 0.04080 -0.02200
C 	C 	0.12353 0.02024 0.15580 -0.13400
H 	H 	0.12930 0.06520 0.17590 0.05700
C 	C 	0.15843 0.98692 0.18940 0.14100
H 	H 	0.19270 0.00360 0.23610 -0.03900
C 	C 	0.02265 0.79555 0.26873 -0.18000
H 	H 	0.02550 0.81490 0.20890 0.07800
H 	H 	0.99310 0.74180 0.26580 0.09800
C 	C 	0.01519 0.89104 0.36000 0.02100
H 	H 	0.06280 0.92970 0.34730 0.01900
C 	C 	0.90744 0.83020 0.41060 0.01400
H 	H 	0.86400 0.81780 0.44180 0.01400
C 	C 	0.91745 0.78419 0.35910 -0.01700
H 	H 	0.88310 0.73460 0.34730 0.03300
N 	N 	0.80068 0.25751 0.47531 -0.11100
N 	N 	0.74525 0.31300 0.42177 -0.23300
N 	N 	0.65333 0.15652 0.66064 -0.11000
N 	N 	0.63549 0.23036 0.74487 -0.23100
C 	C 	0.82596 0.18342 0.57936 0.01600
C 	C 	0.76515 0.15051 0.63318 0.03500
C 	C 	0.89341 0.19942 0.61330 -0.08100
H 	H 	0.93507 0.22223 0.57663 0.06500
C 	C 	0.82321 0.20245 0.48466 -0.08800
H 	H 	0.87197 0.22123 0.45803 0.05700
H 	H 	0.78857 0.15793 0.45253 0.05000
C 	C 	0.75328 0.25584 0.41567 0.07800
H 	H 	0.72857 0.21783 0.37413 -0.01300
C 	C 	0.79020 0.35357 0.48913 0.00400
H 	H 	0.79597 0.39853 0.50923 0.02000
C 	C 	0.82510 0.32025 0.52273 -0.00500
H 	H 	0.85937 0.33693 0.56943 0.03800
C 	C 	0.68932 0.12888 0.60206 -0.09600
H 	H 	0.69217 0.14823 0.54223 0.06100
H 	H 	0.65977 0.07513 0.59913 0.05000
C 	C 	0.68186 0.22437 0.69333 0.07800
H 	H 	0.72947 0.26303 0.68063 -0.00500
C 	C 	0.57411 0.16353 0.74393 0.00600
H 	H 	0.53067 0.15113 0.77513 0.01200
C 	C 	0.58412 0.11752 0.69243 -0.01500
H 	H 	0.54977 0.06793 0.68063 0.02100
N 	N 	0.46734 0.59085 0.80865 -0.11300
N 	N 	0.41191 0.64634 0.75511 -0.23200
N 	N 	0.31999 0.48986 0.99398 -0.08600
N 	N 	0.30215 0.56370 0.07821 -0.23100
C 	C 	0.49262 0.51676 0.91270 -0.00300
C 	C 	0.43181 0.48385 0.96652 0.07500
C 	C 	0.56007 0.53276 0.94664 -0.05100
H 	H 	0.60173 0.55557 0.90997 0.05300
C 	C 	0.48987 0.53579 0.81800 -0.07700
H 	H 	0.53863 0.55457 0.79137 0.05200
H 	H 	0.45523 0.49127 0.78587 0.04900
C 	C 	0.41994 0.58918 0.74901 0.07900
H 	H 	0.39523 0.55117 0.70747 -0.01200
C 	C 	0.45686 0.68691 0.82247 0.00400
H 	H 	0.46263 0.73187 0.84257 0.02200
C 	C 	0.49176 0.65359 0.85607 -0.00400
H 	H 	0.52603 0.67027 0.90277 0.03900
C 	C 	0.35598 0.46222 0.93540 -0.11700
H 	H 	0.35883 0.48157 0.87557 0.07000
H 	H 	0.32643 0.40847 0.93247 0.06700
C 	C 	0.34852 0.55771 0.02667 0.05800
H 	H 	0.39613 0.59637 0.01397 -0.00500
C 	C 	0.24077 0.49687 0.07727 0.01500
H 	H 	0.19733 0.48447 0.10847 0.00800
C 	C 	0.25078 0.45086 0.02577 -0.03800
H 	H 	0.21643 0.40127 0.01397 0.03100
N 	N 	0.92418 0.79017 0.85802 -0.12600
N 	N 	0.97967 0.90109 0.91156 -0.19500
N 	N 	0.82319 0.83653 0.67269 -0.10800
N 	N 	0.89703 0.92821 0.58846 -0.22100
C 	C 	0.85009 0.69080 0.75397 0.02600
C 	C 	0.81718 0.71870 0.70015 0.03200
C 	C 	0.86609 0.63935 0.72003 -0.09800
H 	H 	0.88890 0.62050 0.75670 0.06900
C 	C 	0.86912 0.71258 0.84867 -0.08700
H 	H 	0.88790 0.68260 0.87530 0.05900
H 	H 	0.82460 0.70270 0.88080 0.05400
C 	C 	0.92251 0.83590 0.91766 0.08400
H 	H 	0.88450 0.82260 0.95920 -0.00600
C 	C 	0.02024 0.89671 0.84420 -0.09500
H 	H 	0.06520 0.93590 0.82410 0.05900
C 	C 	0.98692 0.82849 0.81060 0.10900
H 	H 	0.00360 0.81090 0.76390 -0.02000
C 	C 	0.79555 0.77290 0.73127 -0.09700
H 	H 	0.81490 0.78940 0.79110 0.06600
H 	H 	0.74180 0.74870 0.73420 0.05800
C 	C 	0.89104 0.87585 0.64000 0.08100
H 	H 	0.92970 0.86690 0.65270 0.00200
C 	C 	0.83020 0.92276 0.58940 0.01000
H 	H 	0.81780 0.95380 0.55820 0.02100
C 	C 	0.78419 0.86674 0.64090 -0.01300
H 	H 	0.73460 0.85150 0.65270 0.03100
N 	N 	0.59085 0.12350 0.19135 -0.11600
N 	N 	0.64634 0.23442 0.24489 -0.23300
N 	N 	0.48986 0.16986 0.00602 -0.12900
N 	N 	0.56370 0.26154 0.92179 -0.23300
C 	C 	0.51676 0.02413 0.08730 -0.02200
C 	C 	0.48385 0.05203 0.03348 0.03100
C 	C 	0.53276 0.97268 0.05336 -0.06100
H 	H 	0.55557 0.95383 0.09003 0.05800
C 	C 	0.53579 0.04591 0.18200 -0.06800
H 	H 	0.55457 0.01593 0.20863 0.03800
H 	H 	0.49127 0.03603 0.21413 0.03900
C 	C 	0.58918 0.16923 0.25099 0.07800
H 	H 	0.55117 0.15593 0.29253 -0.01500
C 	C 	0.68691 0.23004 0.17753 -0.00100
H 	H 	0.73187 0.26923 0.15743 0.01800
C 	C 	0.65359 0.16182 0.14393 -0.00600
H 	H 	0.67027 0.14423 0.09723 0.02700
C 	C 	0.46222 0.10623 0.06460 -0.09700
H 	H 	0.48157 0.12273 0.12443 0.06100
H 	H 	0.40847 0.08203 0.06753 0.04800
C 	C 	0.55771 0.20918 0.97333 0.09700
H 	H 	0.59637 0.20023 0.98603 -0.00700
C 	C 	0.49687 0.25609 0.92273 0.00100
H 	H 	0.48447 0.28713 0.89153 0.01800
C 	C 	0.45086 0.20007 0.97423 0.00800
H 	H 	0.40127 0.18483 0.98603 0.02700
N 	N 	0.25751 0.45684 0.52469 -0.11100
N 	N 	0.31300 0.56776 0.57823 -0.23300
N 	N 	0.15652 0.50320 0.33936 -0.11000
N 	N 	0.23036 0.59488 0.25513 -0.23200
C 	C 	0.18342 0.35747 0.42064 0.02400
C 	C 	0.15051 0.38537 0.36682 0.02700
C 	C 	0.19942 0.30602 0.38670 -0.10000
H 	H 	0.22223 0.28717 0.42337 0.06500
C 	C 	0.20245 0.37925 0.51534 -0.09100
H 	H 	0.22123 0.34927 0.54197 0.05500
H 	H 	0.15793 0.36937 0.54747 0.05100
C 	C 	0.25584 0.50257 0.58433 0.07800
H 	H 	0.21783 0.48927 0.62587 -0.01300
C 	C 	0.35357 0.56338 0.51087 0.00200
H 	H 	0.39853 0.60257 0.49077 0.01900
C 	C 	0.32025 0.49516 0.47727 -0.00600
H 	H 	0.33693 0.47757 0.43057 0.03400
C 	C 	0.12888 0.43957 0.39794 -0.09300
H 	H 	0.14823 0.45607 0.45777 0.06000
H 	H 	0.07513 0.41537 0.40087 0.04900
C 	C 	0.22437 0.54252 0.30667 0.07800
H 	H 	0.26303 0.53357 0.31937 -0.00600
C 	C 	0.16353 0.58943 0.25607 0.00500
H 	H 	0.15113 0.62047 0.22487 0.01100
C 	C 	0.11752 0.53341 0.30757 -0.01500
H 	H 	0.06793 0.51817 0.31937 0.02100
N 	N 	0.20983 0.13401 0.85802 -0.11200
N 	N 	0.09891 0.07858 0.91156 -0.23600
N 	N 	0.16347 0.98666 0.67269 -0.06300
N 	N 	0.07179 0.96882 0.58846 -0.20600
C 	C 	0.30920 0.15929 0.75397 0.00800
C 	C 	0.28130 0.09848 0.70015 0.06000
C 	C 	0.36065 0.22674 0.72003 -0.08900
H 	H 	0.37950 0.26840 0.75670 0.06200
C 	C 	0.28742 0.15654 0.84867 -0.08500
H 	H 	0.31740 0.20530 0.87530 0.05500
H 	H 	0.29730 0.12190 0.88080 0.05000
C 	C 	0.16410 0.08661 0.91766 0.07600
H 	H 	0.17740 0.06190 0.95920 -0.01300
C 	C 	0.10329 0.12353 0.84420 0.00100
H 	H 	0.06410 0.12930 0.82410 0.01100
C 	C 	0.17151 0.15843 0.81060 -0.00700
H 	H 	0.18910 0.19270 0.76390 0.03400
C 	C 	0.22710 0.02265 0.73127 -0.19400
H 	H 	0.21060 0.02550 0.79110 0.08200
H 	H 	0.25130 0.99310 0.73420 0.10600
C 	C 	0.12415 0.01519 0.64000 0.00600
H 	H 	0.13310 0.06280 0.65270 0.01300
C 	C 	0.07724 0.90744 0.58940 0.01300
H 	H 	0.04620 0.86400 0.55820 0.00800
C 	C 	0.13326 0.91745 0.64090 -0.01900
H 	H 	0.14850 0.88310 0.65270 0.03300
N 	N 	0.87650 0.46734 0.19135 -0.10300
N 	N 	0.76558 0.41191 0.24489 -0.23200
N 	N 	0.83014 0.31999 0.00602 -0.13300
N 	N 	0.73846 0.30215 0.92179 -0.23300
C 	C 	0.97587 0.49262 0.08730 0.12200
C 	C 	0.94797 0.43181 0.03348 -0.05200
C 	C 	0.02732 0.56007 0.05336 -0.22500
H 	H 	0.04617 0.60173 0.09003 0.09500
C 	C 	0.95409 0.48987 0.18200 -0.14300
H 	H 	0.98407 0.53863 0.20863 0.07900
H 	H 	0.96397 0.45523 0.21413 0.07500
C 	C 	0.83077 0.41994 0.25099 0.07500
H 	H 	0.84407 0.39523 0.29253 -0.00900
C 	C 	0.76996 0.45686 0.17753 0.00200
H 	H 	0.73077 0.46263 0.15743 0.01700
C 	C 	0.83818 0.49176 0.14393 -0.00900
H 	H 	0.85577 0.52603 0.09723 0.03400
C 	C 	0.89377 0.35598 0.06460 -0.05500
H 	H 	0.87727 0.35883 0.12443 0.05100
H 	H 	0.91797 0.32643 0.06753 0.04600
C 	C 	0.79082 0.34852 0.97333 0.09900
H 	H 	0.79977 0.39613 0.98603 -0.00700
C 	C 	0.74391 0.24077 0.92273 0.00100
H 	H 	0.71287 0.19733 0.89153 0.01600
C 	C 	0.79993 0.25078 0.97423 0.01000
H 	H 	0.81517 0.21643 0.98603 0.02700
N 	N 	0.54316 0.80068 0.52469 -0.11100
N 	N 	0.43224 0.74525 0.57823 -0.23200
N 	N 	0.49680 0.65333 0.33936 -0.10800
N 	N 	0.40512 0.63549 0.25513 -0.23200
C 	C 	0.64253 0.82596 0.42064 0.01800
C 	C 	0.61463 0.76515 0.36682 0.03800
C 	C 	0.69398 0.89341 0.38670 -0.08100
H 	H 	0.71283 0.93507 0.42337 0.06500
C 	C 	0.62075 0.82321 0.51534 -0.08900
H 	H 	0.65073 0.87197 0.54197 0.05800
H 	H 	0.63063 0.78857 0.54747 0.05300
C 	C 	0.49743 0.75328 0.58433 0.07800
H 	H 	0.51073 0.72857 0.62587 -0.01200
C 	C 	0.43662 0.79020 0.51087 0.00400
H 	H 	0.39743 0.79597 0.49077 0.02000
C 	C 	0.50484 0.82510 0.47727 -0.00500
H 	H 	0.52243 0.85937 0.43057 0.03800
C 	C 	0.56043 0.68932 0.39794 -0.10000
H 	H 	0.54393 0.69217 0.45777 0.06400
H 	H 	0.58463 0.65977 0.40087 0.05800
C 	C 	0.45748 0.68186 0.30667 0.07800
H 	H 	0.46643 0.72947 0.31937 -0.00600
C 	C 	0.41057 0.57411 0.25607 0.00800
H 	H 	0.37953 0.53067 0.22487 0.01300
C 	C 	0.46659 0.58412 0.30757 -0.01500
H 	H 	0.48183 0.54977 0.31937 0.03000
N 	N 	0.86599 0.07582 0.85802 -0.09200
N 	N 	0.92142 0.02033 0.91156 -0.25000
N 	N 	0.01334 0.17681 0.67269 -0.15200
N 	N 	0.03118 0.10297 0.58846 -0.26000
C 	C 	0.84071 0.14991 0.75397 0.04200
C 	C 	0.90152 0.18282 0.70015 0.00400
C 	C 	0.77326 0.13391 0.72003 -0.11000
H 	H 	0.73160 0.11110 0.75670 0.06500
C 	C 	0.84346 0.13088 0.84867 -0.10900
H 	H 	0.79470 0.11210 0.87530 0.05900
H 	H 	0.87810 0.17540 0.88080 0.06300
C 	C 	0.91339 0.07749 0.91766 0.07700
H 	H 	0.93810 0.11550 0.95920 -0.00000
C 	C 	0.87647 0.97976 0.84420 0.11100
H 	H 	0.87070 0.93480 0.82410 -0.00900
C 	C 	0.84157 0.01308 0.81060 -0.12300
H 	H 	0.80730 0.99640 0.76390 0.09400
C 	C 	0.97735 0.20445 0.73127 -0.00500
H 	H 	0.97450 0.18510 0.79110 0.04600
H 	H 	0.00690 0.25820 0.73420 0.01300
C 	C 	0.98481 0.10896 0.64000 0.14400
H 	H 	0.93720 0.07030 0.65270 -0.03100
C 	C 	0.09256 0.16980 0.58940 0.00100
H 	H 	0.13600 0.18220 0.55820 0.01400
C 	C 	0.08255 0.21581 0.64090 -0.01100
H 	H 	0.11690 0.26540 0.65270 0.02600
N 	N 	0.53266 0.40915 0.19135 -0.10900
N 	N 	0.58809 0.35366 0.24489 -0.23300
N 	N 	0.68001 0.51014 0.00602 -0.13000
N 	N 	0.69785 0.43630 0.92179 -0.23200
C 	C 	0.50738 0.48324 0.08730 0.05300
C 	C 	0.56819 0.51615 0.03348 -0.01200
C 	C 	0.43993 0.46724 0.05336 -0.14700
H 	H 	0.39827 0.44443 0.09003 0.07700
C 	C 	0.51013 0.46421 0.18200 -0.10700
H 	H 	0.46137 0.44543 0.20863 0.05900
H 	H 	0.54477 0.50873 0.21413 0.05800
C 	C 	0.58006 0.41082 0.25099 0.07600
H 	H 	0.60477 0.44883 0.29253 -0.01200
C 	C 	0.54314 0.31309 0.17753 0.00100
H 	H 	0.53737 0.26813 0.15743 0.01700
C 	C 	0.50824 0.34641 0.14393 -0.00800
H 	H 	0.47397 0.32973 0.09723 0.03000
C 	C 	0.64402 0.53778 0.06460 -0.07600
H 	H 	0.64117 0.51843 0.12443 0.05600
H 	H 	0.67357 0.59153 0.06753 0.04700
C 	C 	0.65148 0.44229 0.97333 0.09700
H 	H 	0.60387 0.40363 0.98603 -0.00700
C 	C 	0.75923 0.50313 0.92273 0.00100
H 	H 	0.80267 0.51553 0.89153 0.01900
C 	C 	0.74922 0.54914 0.97423 0.00800
H 	H 	0.78357 0.59873 0.98603 0.02800
N 	N 	0.19932 0.74249 0.52469 -0.11100
N 	N 	0.25475 0.68700 0.57823 -0.23200
N 	N 	0.34667 0.84348 0.33936 -0.10800
N 	N 	0.36451 0.76964 0.25513 -0.23200
C 	C 	0.17404 0.81658 0.42064 0.03300
C 	C 	0.23485 0.84949 0.36682 0.02800
C 	C 	0.10659 0.80058 0.38670 -0.11500
H 	H 	0.06493 0.77777 0.42337 0.06500
C 	C 	0.17679 0.79755 0.51534 -0.09700
H 	H 	0.12803 0.77877 0.54197 0.05400
H 	H 	0.21143 0.84207 0.54747 0.05700
C 	C 	0.24672 0.74416 0.58433 0.07700
H 	H 	0.27143 0.78217 0.62587 -0.01100
C 	C 	0.20980 0.64643 0.51087 0.00100
H 	H 	0.20403 0.60147 0.49077 0.01900
C 	C 	0.17490 0.67975 0.47727 -0.00700
H 	H 	0.14063 0.66307 0.43057 0.03100
C 	C 	0.31068 0.87112 0.39794 -0.09700
H 	H 	0.30783 0.85177 0.45777 0.06500
H 	H 	0.34023 0.92487 0.40087 0.06400
C 	C 	0.31814 0.77563 0.30667 0.07800
H 	H 	0.27053 0.73697 0.31937 -0.00700
C 	C 	0.42589 0.83647 0.25607 0.01000
H 	H 	0.46933 0.84887 0.22487 0.01600
C 	C 	0.41588 0.88248 0.30757 -0.01300
H 	H 	0.45023 0.93207 0.31937 0.03900
Cd	Cd	-0.00000 0.00000 -0.00000 1.16500
Cd	Cd	0.66667 0.33333 0.33333 1.19000
Cd	Cd	0.33333 0.66667 0.66667 1.19000
Cd	Cd	-0.00000 0.00000 0.50000 1.16900
Cd	Cd	0.66667 0.33333 0.83333 1.18800
Cd	Cd	0.33333 0.66667 0.16667 1.18700
