data_crystal

_cell_length_a 21.55940
_cell_length_b 21.55940
_cell_length_c 14.91950
_cell_angle_alpha 90.00000
_cell_angle_beta  90.00000
_cell_angle_gamma 120.00000

_symmetry_space_group_name_	'P 1'
_symmetry_space_group_name_H-M	'P 1'

loop_
_symmetry_equiv_pos_as_xyz
  x,y,z

loop_
_atom_site_label
_atom_site_type_symbol
_atom_site_fract_x
_atom_site_fract_y
_atom_site_fract_z
_atom_site_charge
N 	N 	0.07510 0.20810 0.14140 -0.08700
N 	N 	0.02150 0.09790 0.08970 -0.27100
N 	N 	0.17490 0.16480 0.32880 -0.10700
N 	N 	0.10110 0.07190 0.41070 -0.24000
C 	C 	0.14880 0.30830 0.24610 0.02900
C 	C 	0.13430 0.35920 0.27930 -0.11300
H 	H 	0.11210 0.37670 0.24180 0.06700
C 	C 	0.18220 0.28120 0.30160 0.03800
C 	C 	0.12920 0.28420 0.14880 -0.11400
H 	H 	0.17200 0.29290 0.11670 0.05800
H 	H 	0.11110 0.31250 0.12060 0.05800
C 	C 	0.07810 0.16210 0.08310 0.07000
H 	H 	0.11560 0.17420 0.04310 -0.01800
C 	C 	0.98060 0.10320 0.15620 0.12900
H 	H 	0.93690 0.06590 0.17610 -0.02900
C 	C 	0.01350 0.17080 0.18840 -0.15400
H 	H 	0.99710 0.18830 0.23400 0.10600
C 	C 	0.20330 0.22770 0.27020 -0.11100
H 	H 	0.18550 0.21240 0.20980 0.06600
H 	H 	0.25510 0.25060 0.26860 0.06100
C 	C 	0.10770 0.12440 0.35910 0.07700
H 	H 	0.07030 0.13250 0.34530 -0.01500
C 	C 	0.16700 0.07860 0.41100 0.01000
H 	H 	0.17880 0.04810 0.44110 0.00600
C 	C 	0.21270 0.13490 0.36240 -0.02200
H 	H 	0.26100 0.15070 0.35310 0.03100
N 	N 	0.74177 0.54143 0.47473 -0.10900
N 	N 	0.68817 0.43123 0.42303 -0.23300
N 	N 	0.84157 0.49813 0.66213 -0.10500
N 	N 	0.76777 0.40523 0.74403 -0.23400
C 	C 	0.81547 0.64163 0.57943 0.03000
C 	C 	0.80097 0.69253 0.61263 -0.11200
H 	H 	0.77877 0.71003 0.57513 0.07100
C 	C 	0.84887 0.61453 0.63493 0.04300
C 	C 	0.79587 0.61753 0.48213 -0.10600
H 	H 	0.83867 0.62623 0.45003 0.06000
H 	H 	0.77777 0.64583 0.45393 0.06100
C 	C 	0.74477 0.49543 0.41643 0.07700
H 	H 	0.78227 0.50753 0.37643 -0.01200
C 	C 	0.64727 0.43653 0.48953 0.00100
H 	H 	0.60357 0.39923 0.50943 0.02000
C 	C 	0.68017 0.50413 0.52173 -0.00600
H 	H 	0.66377 0.52163 0.56733 0.03500
C 	C 	0.86997 0.56103 0.60353 -0.11600
H 	H 	0.85217 0.54573 0.54313 0.07200
H 	H 	0.92177 0.58393 0.60193 0.07000
C 	C 	0.77437 0.45773 0.69243 0.08000
H 	H 	0.73697 0.46583 0.67863 -0.00700
C 	C 	0.83367 0.41193 0.74433 0.01500
H 	H 	0.84547 0.38143 0.77443 0.01600
C 	C 	0.87937 0.46823 0.69573 -0.02000
H 	H 	0.92767 0.48403 0.68643 0.04100
N 	N 	0.40843 0.87477 0.80807 -0.10500
N 	N 	0.35483 0.76457 0.75637 -0.23200
N 	N 	0.50823 0.83147 0.99547 -0.08900
N 	N 	0.43443 0.73857 0.07737 -0.23300
C 	C 	0.48213 0.97497 0.91277 0.07600
C 	C 	0.46763 0.02587 0.94597 -0.14700
H 	H 	0.44543 0.04337 0.90847 0.07800
C 	C 	0.51553 0.94787 0.96827 0.03100
C 	C 	0.46253 0.95087 0.81547 -0.13000
H 	H 	0.50533 0.95957 0.78337 0.07200
H 	H 	0.44443 0.97917 0.78727 0.07700
C 	C 	0.41143 0.82877 0.74977 0.07700
H 	H 	0.44893 0.84087 0.70977 -0.01000
C 	C 	0.31393 0.76987 0.82287 0.00400
H 	H 	0.27023 0.73257 0.84277 0.02100
C 	C 	0.34683 0.83747 0.85507 -0.00700
H 	H 	0.33043 0.85497 0.90067 0.04200
C 	C 	0.53663 0.89437 0.93687 -0.10700
H 	H 	0.51883 0.87907 0.87647 0.07000
H 	H 	0.58843 0.91727 0.93527 0.07000
C 	C 	0.44103 0.79107 0.02577 0.06400
H 	H 	0.40363 0.79917 0.01197 -0.00600
C 	C 	0.50033 0.74527 0.07767 0.01900
H 	H 	0.51213 0.71477 0.10777 0.00900
C 	C 	0.54603 0.80157 0.02907 -0.03900
H 	H 	0.59433 0.81737 0.01977 0.03500
N 	N 	0.79190 0.86700 0.14140 -0.10900
N 	N 	0.90210 0.92360 0.08970 -0.22400
N 	N 	0.83520 0.01010 0.32880 -0.14900
N 	N 	0.92810 0.02920 0.41070 -0.25000
C 	C 	0.69170 0.84050 0.24610 0.04800
C 	C 	0.64080 0.77510 0.27930 -0.12500
H 	H 	0.62330 0.73540 0.24180 0.07500
C 	C 	0.71880 0.90100 0.30160 0.00800
C 	C 	0.71580 0.84500 0.14880 -0.11400
H 	H 	0.70710 0.87910 0.11670 0.06200
H 	H 	0.68750 0.79860 0.12060 0.06100
C 	C 	0.83790 0.91600 0.08310 0.07900
H 	H 	0.82580 0.94140 0.04310 -0.00900
C 	C 	0.89680 0.87740 0.15620 0.00200
H 	H 	0.93410 0.87100 0.17610 0.02800
C 	C 	0.82920 0.84270 0.18840 -0.00500
H 	H 	0.81170 0.80880 0.23400 0.03500
C 	C 	0.77230 0.97560 0.27020 -0.01200
H 	H 	0.78760 0.97310 0.20980 0.04800
H 	H 	0.74940 0.00450 0.26860 0.01400
C 	C 	0.87560 0.98330 0.35910 0.14400
H 	H 	0.86750 0.93780 0.34530 -0.02400
C 	C 	0.92140 0.08840 0.41100 0.00600
H 	H 	0.95190 0.13070 0.44110 0.02100
C 	C 	0.86510 0.07780 0.36240 -0.01400
H 	H 	0.84930 0.11030 0.35310 0.02800
N 	N 	0.45857 0.20033 0.47473 -0.11000
N 	N 	0.56877 0.25693 0.42303 -0.23300
N 	N 	0.50187 0.34343 0.66213 -0.10700
N 	N 	0.59477 0.36253 0.74403 -0.23300
C 	C 	0.35837 0.17383 0.57943 0.04100
C 	C 	0.30747 0.10843 0.61263 -0.13800
H 	H 	0.28997 0.06873 0.57513 0.07400
C 	C 	0.38547 0.23433 0.63493 0.03000
C 	C 	0.38247 0.17833 0.48213 -0.11100
H 	H 	0.37377 0.21243 0.45003 0.05900
H 	H 	0.35417 0.13193 0.45393 0.05900
C 	C 	0.50457 0.24933 0.41643 0.07600
H 	H 	0.49247 0.27473 0.37643 -0.01300
C 	C 	0.56347 0.21073 0.48953 -0.00000
H 	H 	0.60077 0.20433 0.50943 0.01900
C 	C 	0.49587 0.17603 0.52173 -0.00700
H 	H 	0.47837 0.14213 0.56733 0.03200
C 	C 	0.43897 0.30893 0.60353 -0.10700
H 	H 	0.45427 0.30643 0.54313 0.06700
H 	H 	0.41607 0.33783 0.60193 0.06200
C 	C 	0.54227 0.31663 0.69243 0.08000
H 	H 	0.53417 0.27113 0.67863 -0.00700
C 	C 	0.58807 0.42173 0.74433 0.01200
H 	H 	0.61857 0.46403 0.77443 0.01300
C 	C 	0.53177 0.41113 0.69573 -0.01900
H 	H 	0.51597 0.44363 0.68643 0.03200
N 	N 	0.12523 0.53367 0.80807 -0.11900
N 	N 	0.23543 0.59027 0.75637 -0.23300
N 	N 	0.16853 0.67677 0.99547 -0.08000
N 	N 	0.26143 0.69587 0.07737 -0.23300
C 	C 	0.02503 0.50717 0.91277 -0.07800
C 	C 	0.97413 0.44177 0.94597 0.02900
H 	H 	0.95663 0.40207 0.90847 0.03500
C 	C 	0.05213 0.56767 0.96827 0.14000
C 	C 	0.04913 0.51167 0.81547 -0.04700
H 	H 	0.04043 0.54577 0.78337 0.03400
H 	H 	0.02083 0.46527 0.78727 0.03500
C 	C 	0.17123 0.58267 0.74977 0.08000
H 	H 	0.15913 0.60807 0.70977 -0.01500
C 	C 	0.23013 0.54407 0.82287 0.00100
H 	H 	0.26743 0.53767 0.84277 0.02200
C 	C 	0.16253 0.50937 0.85507 -0.00100
H 	H 	0.14503 0.47547 0.90067 0.03500
C 	C 	0.10563 0.64227 0.93687 -0.16800
H 	H 	0.12093 0.63977 0.87647 0.08600
H 	H 	0.08273 0.67117 0.93527 0.08000
C 	C 	0.20893 0.64997 0.02577 0.05800
H 	H 	0.20083 0.60447 0.01197 -0.00500
C 	C 	0.25473 0.75507 0.07767 0.02100
H 	H 	0.28523 0.79737 0.10777 0.01000
C 	C 	0.19843 0.74447 0.02907 -0.04600
H 	H 	0.18263 0.77697 0.01977 0.03600
N 	N 	0.13300 0.92490 0.14140 -0.13600
N 	N 	0.07640 0.97850 0.08970 -0.20000
N 	N 	0.98990 0.82510 0.32880 -0.06700
N 	N 	0.97080 0.89890 0.41070 -0.20600
C 	C 	0.15950 0.85120 0.24610 0.01000
C 	C 	0.22490 0.86570 0.27930 -0.09800
H 	H 	0.26460 0.88790 0.24180 0.07000
C 	C 	0.09900 0.81780 0.30160 0.07000
C 	C 	0.15500 0.87080 0.14880 -0.08300
H 	H 	0.12090 0.82800 0.11670 0.04600
H 	H 	0.20140 0.88890 0.12060 0.05500
C 	C 	0.08400 0.92190 0.08310 0.07900
H 	H 	0.05860 0.88440 0.04310 -0.02200
C 	C 	0.12260 0.01940 0.15620 -0.14300
H 	H 	0.12900 0.06310 0.17610 0.06200
C 	C 	0.15730 0.98650 0.18840 0.15000
H 	H 	0.19120 0.00290 0.23400 -0.04400
C 	C 	0.02440 0.79670 0.27020 -0.20300
H 	H 	0.02690 0.81450 0.20980 0.08800
H 	H 	0.99550 0.74490 0.26860 0.10600
C 	C 	0.01670 0.89230 0.35910 0.02300
H 	H 	0.06220 0.92970 0.34530 0.01900
C 	C 	0.91160 0.83300 0.41100 0.01900
H 	H 	0.86930 0.82120 0.44110 0.01300
C 	C 	0.92220 0.78730 0.36240 -0.02400
H 	H 	0.88970 0.73900 0.35310 0.03500
N 	N 	0.79967 0.25823 0.47473 -0.11000
N 	N 	0.74307 0.31183 0.42303 -0.23300
N 	N 	0.65657 0.15843 0.66213 -0.10700
N 	N 	0.63747 0.23223 0.74403 -0.23300
C 	C 	0.82617 0.18453 0.57943 0.01800
C 	C 	0.89157 0.19903 0.61263 -0.08900
H 	H 	0.93127 0.22123 0.57513 0.06900
C 	C 	0.76567 0.15113 0.63493 0.04600
C 	C 	0.82167 0.20413 0.48213 -0.09900
H 	H 	0.78757 0.16133 0.45003 0.05400
H 	H 	0.86807 0.22223 0.45393 0.06100
C 	C 	0.75067 0.25523 0.41643 0.07800
H 	H 	0.72527 0.21773 0.37643 -0.01400
C 	C 	0.78927 0.35273 0.48953 0.00200
H 	H 	0.79567 0.39643 0.50943 0.02000
C 	C 	0.82397 0.31983 0.52173 -0.00500
H 	H 	0.85787 0.33623 0.56733 0.03800
C 	C 	0.69107 0.13003 0.60353 -0.11400
H 	H 	0.69357 0.14783 0.54313 0.06800
H 	H 	0.66217 0.07823 0.60193 0.05700
C 	C 	0.68337 0.22563 0.69243 0.07900
H 	H 	0.72887 0.26303 0.67863 -0.00600
C 	C 	0.57827 0.16633 0.74433 0.01000
H 	H 	0.53597 0.15453 0.77443 0.01100
C 	C 	0.58887 0.12063 0.69573 -0.02000
H 	H 	0.55637 0.07233 0.68643 0.02400
N 	N 	0.46633 0.59157 0.80807 -0.11200
N 	N 	0.40973 0.64517 0.75637 -0.23200
N 	N 	0.32323 0.49177 0.99547 -0.08300
N 	N 	0.30413 0.56557 0.07737 -0.23300
C 	C 	0.49283 0.51787 0.91277 -0.00400
C 	C 	0.55823 0.53237 0.94597 -0.05600
H 	H 	0.59793 0.55457 0.90847 0.05500
C 	C 	0.43233 0.48447 0.96827 0.08900
C 	C 	0.48833 0.53747 0.81547 -0.08700
H 	H 	0.45423 0.49467 0.78337 0.05200
H 	H 	0.53473 0.55557 0.78727 0.05600
C 	C 	0.41733 0.58857 0.74977 0.07900
H 	H 	0.39193 0.55107 0.70977 -0.01300
C 	C 	0.45593 0.68607 0.82287 0.00300
H 	H 	0.46233 0.72977 0.84277 0.02200
C 	C 	0.49063 0.65317 0.85507 -0.00400
H 	H 	0.52453 0.66957 0.90067 0.03900
C 	C 	0.35773 0.46337 0.93687 -0.14000
H 	H 	0.36023 0.48117 0.87647 0.07800
H 	H 	0.32883 0.41157 0.93527 0.07500
C 	C 	0.35003 0.55897 0.02577 0.06000
H 	H 	0.39553 0.59637 0.01197 -0.00500
C 	C 	0.24493 0.49967 0.07767 0.02100
H 	H 	0.20263 0.48787 0.10777 0.00600
C 	C 	0.25553 0.45397 0.02907 -0.04500
H 	H 	0.22303 0.40567 0.01977 0.03400
N 	N 	0.92490 0.79190 0.85860 -0.12700
N 	N 	0.97850 0.90210 0.91030 -0.19600
N 	N 	0.82510 0.83520 0.67120 -0.10500
N 	N 	0.89890 0.92810 0.58930 -0.22300
C 	C 	0.85120 0.69170 0.75390 0.03100
C 	C 	0.86570 0.64080 0.72070 -0.11200
H 	H 	0.88790 0.62330 0.75820 0.07500
C 	C 	0.81780 0.71880 0.69840 0.04100
C 	C 	0.87080 0.71580 0.85120 -0.09900
H 	H 	0.82800 0.70710 0.88330 0.05900
H 	H 	0.88890 0.68750 0.87940 0.06400
C 	C 	0.92190 0.83790 0.91690 0.08400
H 	H 	0.88440 0.82580 0.95690 -0.00700
C 	C 	0.01940 0.89680 0.84380 -0.10100
H 	H 	0.06310 0.93410 0.82390 0.06200
C 	C 	0.98650 0.82920 0.81160 0.11400
H 	H 	0.00290 0.81170 0.76600 -0.02300
C 	C 	0.79670 0.77230 0.72980 -0.11300
H 	H 	0.81450 0.78760 0.79020 0.07200
H 	H 	0.74490 0.74940 0.73140 0.06500
C 	C 	0.89230 0.87560 0.64090 0.08200
H 	H 	0.92970 0.86750 0.65470 0.00100
C 	C 	0.83300 0.92140 0.58900 0.01400
H 	H 	0.82120 0.95190 0.55890 0.01900
C 	C 	0.78730 0.86510 0.63760 -0.01800
H 	H 	0.73900 0.84930 0.64690 0.03300
N 	N 	0.59157 0.12523 0.19193 -0.11500
N 	N 	0.64517 0.23543 0.24363 -0.23300
N 	N 	0.49177 0.16853 0.00453 -0.12600
N 	N 	0.56557 0.26143 0.92263 -0.23400
C 	C 	0.51787 0.02503 0.08723 -0.02000
C 	C 	0.53237 0.97413 0.05403 -0.06900
H 	H 	0.55457 0.95663 0.09153 0.06200
C 	C 	0.48447 0.05213 0.03173 0.04300
C 	C 	0.53747 0.04913 0.18453 -0.07900
H 	H 	0.49467 0.04043 0.21663 0.04300
H 	H 	0.55557 0.02083 0.21273 0.04300
C 	C 	0.58857 0.17123 0.25023 0.07800
H 	H 	0.55107 0.15913 0.29023 -0.01500
C 	C 	0.68607 0.23013 0.17713 -0.00200
H 	H 	0.72977 0.26743 0.15723 0.01800
C 	C 	0.65317 0.16253 0.14493 -0.00500
H 	H 	0.66957 0.14503 0.09933 0.02700
C 	C 	0.46337 0.10563 0.06313 -0.11500
H 	H 	0.48117 0.12093 0.12353 0.06700
H 	H 	0.41157 0.08273 0.06473 0.05400
C 	C 	0.55897 0.20893 0.97423 0.09800
H 	H 	0.59637 0.20083 0.98803 -0.00800
C 	C 	0.49967 0.25473 0.92233 0.00400
H 	H 	0.48787 0.28523 0.89223 0.01700
C 	C 	0.45397 0.19843 0.97093 0.00200
H 	H 	0.40567 0.18263 0.98023 0.02800
N 	N 	0.25823 0.45857 0.52527 -0.11000
N 	N 	0.31183 0.56877 0.57697 -0.23300
N 	N 	0.15843 0.50187 0.33787 -0.10800
N 	N 	0.23223 0.59477 0.25597 -0.23400
C 	C 	0.18453 0.35837 0.42057 0.02900
C 	C 	0.19903 0.30747 0.38737 -0.11300
H 	H 	0.22123 0.28997 0.42487 0.07100
C 	C 	0.15113 0.38547 0.36507 0.03600
C 	C 	0.20413 0.38247 0.51787 -0.10500
H 	H 	0.16133 0.37377 0.54997 0.05600
H 	H 	0.22223 0.35417 0.54607 0.06000
C 	C 	0.25523 0.50457 0.58357 0.07700
H 	H 	0.21773 0.49247 0.62357 -0.01300
C 	C 	0.35273 0.56347 0.51047 0.00100
H 	H 	0.39643 0.60077 0.49057 0.02000
C 	C 	0.31983 0.49587 0.47827 -0.00600
H 	H 	0.33623 0.47837 0.43267 0.03500
C 	C 	0.13003 0.43897 0.39647 -0.10800
H 	H 	0.14783 0.45427 0.45687 0.06600
H 	H 	0.07823 0.41607 0.39807 0.05600
C 	C 	0.22563 0.54227 0.30757 0.08000
H 	H 	0.26303 0.53417 0.32137 -0.00700
C 	C 	0.16633 0.58807 0.25567 0.01000
H 	H 	0.15453 0.61857 0.22557 0.01000
C 	C 	0.12063 0.53177 0.30427 -0.02000
H 	H 	0.07233 0.51597 0.31357 0.02300
N 	N 	0.20810 0.13300 0.85860 -0.11000
N 	N 	0.09790 0.07640 0.91030 -0.23600
N 	N 	0.16480 0.98990 0.67120 -0.05900
N 	N 	0.07190 0.97080 0.58930 -0.20900
C 	C 	0.30830 0.15950 0.75390 0.01000
C 	C 	0.35920 0.22490 0.72070 -0.09900
H 	H 	0.37670 0.26460 0.75820 0.06700
C 	C 	0.28120 0.09900 0.69840 0.07400
C 	C 	0.28420 0.15500 0.85120 -0.09600
H 	H 	0.29290 0.12090 0.88330 0.05400
H 	H 	0.31250 0.20140 0.87940 0.06000
C 	C 	0.16210 0.08400 0.91690 0.07600
H 	H 	0.17420 0.05860 0.95690 -0.01400
C 	C 	0.10320 0.12260 0.84380 0.00100
H 	H 	0.06590 0.12900 0.82390 0.01200
C 	C 	0.17080 0.15730 0.81160 -0.00700
H 	H 	0.18830 0.19120 0.76600 0.03500
C 	C 	0.22770 0.02440 0.72980 -0.22000
H 	H 	0.21240 0.02690 0.79020 0.09300
H 	H 	0.25060 0.99550 0.73140 0.11600
C 	C 	0.12440 0.01670 0.64090 0.00700
H 	H 	0.13250 0.06220 0.65470 0.01400
C 	C 	0.07860 0.91160 0.58900 0.01900
H 	H 	0.04810 0.86930 0.55890 0.00600
C 	C 	0.13490 0.92220 0.63760 -0.02600
H 	H 	0.15070 0.88970 0.64690 0.03600
N 	N 	0.87477 0.46633 0.19193 -0.10000
N 	N 	0.76457 0.40973 0.24363 -0.23300
N 	N 	0.83147 0.32323 0.00453 -0.13200
N 	N 	0.73857 0.30413 0.92263 -0.23400
C 	C 	0.97497 0.49283 0.08723 0.13900
C 	C 	0.02587 0.55823 0.05403 -0.25800
H 	H 	0.04337 0.59793 0.09153 0.10900
C 	C 	0.94787 0.43233 0.03173 -0.05900
C 	C 	0.95087 0.48833 0.18453 -0.16500
H 	H 	0.95957 0.45423 0.21663 0.08200
H 	H 	0.97917 0.53473 0.21273 0.08600
C 	C 	0.82877 0.41733 0.25023 0.07500
H 	H 	0.84087 0.39193 0.29023 -0.00900
C 	C 	0.76987 0.45593 0.17713 0.00200
H 	H 	0.73257 0.46233 0.15723 0.01700
C 	C 	0.83747 0.49063 0.14493 -0.01100
H 	H 	0.85497 0.52453 0.09933 0.03500
C 	C 	0.89437 0.35773 0.06313 -0.05800
H 	H 	0.87907 0.36023 0.12353 0.05300
H 	H 	0.91727 0.32883 0.06473 0.04700
C 	C 	0.79107 0.35003 0.97423 0.10100
H 	H 	0.79917 0.39553 0.98803 -0.00800
C 	C 	0.74527 0.24493 0.92233 0.00400
H 	H 	0.71477 0.20263 0.89223 0.01600
C 	C 	0.80157 0.25553 0.97093 0.00600
H 	H 	0.81737 0.22303 0.98023 0.02800
N 	N 	0.54143 0.79967 0.52527 -0.10900
N 	N 	0.43123 0.74307 0.57697 -0.23300
N 	N 	0.49813 0.65657 0.33787 -0.10600
N 	N 	0.40523 0.63747 0.25597 -0.23400
C 	C 	0.64163 0.82617 0.42057 0.01900
C 	C 	0.69253 0.89157 0.38737 -0.08900
H 	H 	0.71003 0.93127 0.42487 0.06900
C 	C 	0.61453 0.76567 0.36507 0.04900
C 	C 	0.61753 0.82167 0.51787 -0.10000
H 	H 	0.62623 0.78757 0.54997 0.05700
H 	H 	0.64583 0.86807 0.54607 0.06200
C 	C 	0.49543 0.75067 0.58357 0.07800
H 	H 	0.50753 0.72527 0.62357 -0.01200
C 	C 	0.43653 0.78927 0.51047 0.00200
H 	H 	0.39923 0.79567 0.49057 0.02000
C 	C 	0.50413 0.82397 0.47827 -0.00500
H 	H 	0.52163 0.85787 0.43267 0.03800
C 	C 	0.56103 0.69107 0.39647 -0.11800
H 	H 	0.54573 0.69357 0.45687 0.07100
H 	H 	0.58393 0.66217 0.39807 0.06500
C 	C 	0.45773 0.68337 0.30757 0.07900
H 	H 	0.46583 0.72887 0.32137 -0.00600
C 	C 	0.41193 0.57827 0.25567 0.01200
H 	H 	0.38143 0.53597 0.22557 0.01200
C 	C 	0.46823 0.58887 0.30427 -0.02100
H 	H 	0.48403 0.55637 0.31357 0.03200
N 	N 	0.86700 0.07510 0.85860 -0.08800
N 	N 	0.92360 0.02150 0.91030 -0.25100
N 	N 	0.01010 0.17490 0.67120 -0.15100
N 	N 	0.02920 0.10110 0.58930 -0.26100
C 	C 	0.84050 0.14880 0.75390 0.05000
C 	C 	0.77510 0.13430 0.72070 -0.12800
H 	H 	0.73540 0.11210 0.75820 0.07300
C 	C 	0.90100 0.18220 0.69840 0.00600
C 	C 	0.84500 0.12920 0.85120 -0.12600
H 	H 	0.87910 0.17200 0.88330 0.07000
H 	H 	0.79860 0.11110 0.87940 0.06600
C 	C 	0.91600 0.07810 0.91690 0.07700
H 	H 	0.94140 0.11560 0.95690 -0.00100
C 	C 	0.87740 0.98060 0.84380 0.11500
H 	H 	0.87100 0.93690 0.82390 -0.01300
C 	C 	0.84270 0.01350 0.81160 -0.13000
H 	H 	0.80880 0.99710 0.76600 0.09800
C 	C 	0.97560 0.20330 0.72980 -0.01200
H 	H 	0.97310 0.18550 0.79020 0.04800
H 	H 	0.00450 0.25510 0.73140 0.01600
C 	C 	0.98330 0.10770 0.64090 0.14600
H 	H 	0.93780 0.07030 0.65470 -0.03300
C 	C 	0.08840 0.16700 0.58900 0.00400
H 	H 	0.13070 0.17880 0.55890 0.01400
C 	C 	0.07780 0.21270 0.63760 -0.01500
H 	H 	0.11030 0.26100 0.64690 0.02800
N 	N 	0.53367 0.40843 0.19193 -0.10700
N 	N 	0.59027 0.35483 0.24363 -0.23300
N 	N 	0.67677 0.50823 0.00453 -0.12800
N 	N 	0.69587 0.43443 0.92263 -0.23400
C 	C 	0.50717 0.48213 0.08723 0.06300
C 	C 	0.44177 0.46763 0.05403 -0.16900
H 	H 	0.40207 0.44543 0.09153 0.08700
C 	C 	0.56767 0.51553 0.03173 -0.00900
C 	C 	0.51167 0.46253 0.18453 -0.12400
H 	H 	0.54577 0.50533 0.21663 0.06400
H 	H 	0.46527 0.44443 0.21273 0.06500
C 	C 	0.58267 0.41143 0.25023 0.07600
H 	H 	0.60807 0.44893 0.29023 -0.01200
C 	C 	0.54407 0.31393 0.17713 -0.00100
H 	H 	0.53767 0.27023 0.15723 0.01700
C 	C 	0.50937 0.34683 0.14493 -0.00900
H 	H 	0.47547 0.33043 0.09933 0.03100
C 	C 	0.64227 0.53663 0.06313 -0.08600
H 	H 	0.63977 0.51883 0.12353 0.06000
H 	H 	0.67117 0.58843 0.06473 0.05100
C 	C 	0.64997 0.44103 0.97423 0.09900
H 	H 	0.60447 0.40363 0.98803 -0.00800
C 	C 	0.75507 0.50033 0.92233 0.00400
H 	H 	0.79737 0.51213 0.89223 0.01900
C 	C 	0.74447 0.54603 0.97093 0.00400
H 	H 	0.77697 0.59433 0.98023 0.02900
N 	N 	0.20033 0.74177 0.52527 -0.10900
N 	N 	0.25693 0.68817 0.57697 -0.23200
N 	N 	0.34343 0.84157 0.33787 -0.10500
N 	N 	0.36253 0.76777 0.25597 -0.23400
C 	C 	0.17383 0.81547 0.42057 0.04100
C 	C 	0.10843 0.80097 0.38737 -0.13400
H 	H 	0.06873 0.77877 0.42487 0.07400
C 	C 	0.23433 0.84887 0.36507 0.03400
C 	C 	0.17833 0.79587 0.51787 -0.11100
H 	H 	0.21243 0.83867 0.54997 0.06200
H 	H 	0.13193 0.77777 0.54607 0.06000
C 	C 	0.24933 0.74477 0.58357 0.07600
H 	H 	0.27473 0.78227 0.62357 -0.01100
C 	C 	0.21073 0.64727 0.51047 0.00000
H 	H 	0.20433 0.60357 0.49057 0.01900
C 	C 	0.17603 0.68017 0.47827 -0.00700
H 	H 	0.14213 0.66377 0.43267 0.03200
C 	C 	0.30893 0.86997 0.39647 -0.11200
H 	H 	0.30643 0.85217 0.45687 0.07100
H 	H 	0.33783 0.92177 0.39807 0.07000
C 	C 	0.31663 0.77437 0.30757 0.08000
H 	H 	0.27113 0.73697 0.32137 -0.00700
C 	C 	0.42173 0.83367 0.25567 0.01500
H 	H 	0.46403 0.84547 0.22557 0.01500
C 	C 	0.41113 0.87937 0.30427 -0.02000
H 	H 	0.44363 0.92767 0.31357 0.04100
Cd	Cd	-0.00000 0.00000 0.50000 1.17100
Cd	Cd	0.66667 0.33333 0.83333 1.18900
Cd	Cd	0.33333 0.66667 0.16667 1.18900
Cd	Cd	-0.00000 0.00000 -0.00000 1.16600
Cd	Cd	0.66667 0.33333 0.33333 1.19000
Cd	Cd	0.33333 0.66667 0.66667 1.19100
