data_crystal

_cell_length_a 10.25200
_cell_length_b 13.22800
_cell_length_c 20.55300
_cell_angle_alpha 90.00000
_cell_angle_beta  90.00000
_cell_angle_gamma 90.00000

_symmetry_space_group_name_	'P 1'
_symmetry_space_group_name_H-M	'P 1'

loop_
_symmetry_equiv_pos_as_xyz
  x,y,z

loop_
_atom_site_label
_atom_site_type_symbol
_atom_site_fract_x
_atom_site_fract_y
_atom_site_fract_z
_atom_site_charge
C 	C 	0.68970 0.48040 0.27040 0.12600
H 	H 	0.68720 0.44020 0.30750 -0.02400
C 	C 	0.64130 0.59360 0.19980 -0.06900
C 	C 	0.74690 0.54360 0.17790 -0.06600
C 	C 	0.55500 0.67460 0.17200 0.33800
C 	C 	0.83190 0.54410 0.11970 0.33000
C 	C 	0.41050 0.73970 0.41020 0.09900
H 	H 	0.36630 0.68350 0.42610 -0.01100
C 	C 	0.42840 0.82170 0.45110 -0.20000
H 	H 	0.39630 0.81970 0.49340 0.10300
C 	C 	0.49370 0.90630 0.42930 0.12900
C 	C 	0.53470 0.90370 0.36520 -0.18900
H 	H 	0.57710 0.95940 0.34750 0.08400
C 	C 	0.51330 0.81950 0.32740 0.09500
H 	H 	0.54200 0.81980 0.28450 -0.02600
C 	C 	0.51910 0.99470 0.46980 -0.09600
H 	H 	0.56590 0.04770 0.45130 0.06700
N 	N 	0.60460 0.55460 0.25870 -0.25800
N 	N 	0.77650 0.47000 0.22460 -0.26300
N 	N 	0.45320 0.73790 0.34990 -0.28400
O 	O 	0.92430 0.48070 0.11990 -0.40400
O 	O 	0.80620 0.60300 0.07280 -0.42500
O 	O 	0.45070 0.68950 0.20350 -0.42100
O 	O 	0.58350 0.72190 0.12200 -0.44700
Zn	Zn	0.43702 0.61067 0.29377 1.19600
C 	C 	0.81030 0.01960 0.27040 0.12600
H 	H 	0.81280 0.05980 0.30750 -0.02300
C 	C 	0.85870 0.90640 0.19980 -0.06800
C 	C 	0.75310 0.95640 0.17790 -0.06500
C 	C 	0.94500 0.82540 0.17200 0.34000
C 	C 	0.66810 0.95590 0.11970 0.33000
C 	C 	0.08950 0.76030 0.41020 0.10000
H 	H 	0.13370 0.81650 0.42610 -0.01100
C 	C 	0.07160 0.67830 0.45110 -0.19900
H 	H 	0.10370 0.68030 0.49340 0.10400
C 	C 	0.00630 0.59370 0.42930 0.12900
C 	C 	0.96530 0.59630 0.36520 -0.18900
H 	H 	0.92290 0.54060 0.34750 0.08400
C 	C 	0.98670 0.68050 0.32740 0.09500
H 	H 	0.95800 0.68020 0.28450 -0.02600
C 	C 	0.98090 0.50530 0.46980 -0.09600
H 	H 	0.93410 0.45230 0.45130 0.06700
N 	N 	0.89540 0.94540 0.25870 -0.25800
N 	N 	0.72350 0.03000 0.22460 -0.26300
N 	N 	0.04680 0.76210 0.34990 -0.28500
O 	O 	0.57570 0.01930 0.11990 -0.40300
O 	O 	0.69380 0.89700 0.07280 -0.42500
O 	O 	0.04930 0.81050 0.20350 -0.42100
O 	O 	0.91650 0.77810 0.12200 -0.44700
Zn	Zn	0.06298 0.88933 0.29377 1.19600
C 	C 	0.31030 0.98040 0.22960 0.12500
H 	H 	0.31280 0.94020 0.19250 -0.02300
C 	C 	0.35870 0.09360 0.30020 -0.06800
C 	C 	0.25310 0.04360 0.32210 -0.06500
C 	C 	0.44500 0.17460 0.32800 0.33900
C 	C 	0.16810 0.04410 0.38030 0.33200
C 	C 	0.58950 0.23970 0.08980 0.10000
H 	H 	0.63370 0.18350 0.07390 -0.01000
C 	C 	0.57160 0.32170 0.04890 -0.19900
H 	H 	0.60370 0.31970 0.00660 0.10400
C 	C 	0.50630 0.40630 0.07070 0.12900
C 	C 	0.46530 0.40370 0.13480 -0.18900
H 	H 	0.42290 0.45940 0.15250 0.08400
C 	C 	0.48670 0.31950 0.17260 0.09500
H 	H 	0.45800 0.31980 0.21550 -0.02600
C 	C 	0.48090 0.49470 0.03020 -0.09600
H 	H 	0.43410 0.54770 0.04870 0.06700
N 	N 	0.39540 0.05460 0.24130 -0.25700
N 	N 	0.22350 0.97000 0.27540 -0.26300
N 	N 	0.54680 0.23790 0.15010 -0.28400
O 	O 	0.07570 0.98070 0.38010 -0.40500
O 	O 	0.19380 0.10300 0.42720 -0.42500
O 	O 	0.54930 0.18950 0.29650 -0.42100
O 	O 	0.41650 0.22190 0.37800 -0.44700
Zn	Zn	0.56298 0.11067 0.20623 1.19600
C 	C 	0.18970 0.51960 0.22960 0.12700
H 	H 	0.18720 0.55980 0.19250 -0.02300
C 	C 	0.14130 0.40640 0.30020 -0.06800
C 	C 	0.24690 0.45640 0.32210 -0.06500
C 	C 	0.05500 0.32540 0.32800 0.34000
C 	C 	0.33190 0.45590 0.38030 0.33100
C 	C 	0.91050 0.26030 0.08980 0.09900
H 	H 	0.86630 0.31650 0.07390 -0.01000
C 	C 	0.92840 0.17830 0.04890 -0.19600
H 	H 	0.89630 0.18030 0.00660 0.10300
C 	C 	0.99370 0.09370 0.07070 0.12400
C 	C 	0.03470 0.09630 0.13480 -0.18500
H 	H 	0.07710 0.04060 0.15250 0.08400
C 	C 	0.01330 0.18050 0.17260 0.09400
H 	H 	0.04200 0.18020 0.21550 -0.02600
C 	C 	0.01910 0.00530 0.03020 -0.09200
H 	H 	0.06590 0.95230 0.04870 0.06400
N 	N 	0.10460 0.44540 0.24130 -0.25800
N 	N 	0.27650 0.53000 0.27540 -0.26300
N 	N 	0.95320 0.26210 0.15010 -0.28400
O 	O 	0.42430 0.51930 0.38010 -0.40400
O 	O 	0.30620 0.39700 0.42720 -0.42500
O 	O 	0.95070 0.31050 0.29650 -0.42200
O 	O 	0.08350 0.27810 0.37800 -0.44700
Zn	Zn	0.93702 0.38933 0.20623 1.19600
C 	C 	0.31030 0.51960 0.72960 0.12700
H 	H 	0.31280 0.55980 0.69250 -0.02300
C 	C 	0.35870 0.40640 0.80020 -0.06800
C 	C 	0.25310 0.45640 0.82210 -0.06500
C 	C 	0.44500 0.32540 0.82800 0.33900
C 	C 	0.16810 0.45590 0.88030 0.33100
C 	C 	0.58950 0.26030 0.58980 0.10000
H 	H 	0.63370 0.31650 0.57390 -0.01000
C 	C 	0.57160 0.17830 0.54890 -0.19900
H 	H 	0.60370 0.18030 0.50660 0.10400
C 	C 	0.50630 0.09370 0.57070 0.12900
C 	C 	0.46530 0.09630 0.63480 -0.18900
H 	H 	0.42290 0.04060 0.65250 0.08400
C 	C 	0.48670 0.18050 0.67260 0.09500
H 	H 	0.45800 0.18020 0.71550 -0.02600
C 	C 	0.48090 0.00530 0.53020 -0.09600
H 	H 	0.43410 0.95230 0.54870 0.06700
N 	N 	0.39540 0.44540 0.74130 -0.25800
N 	N 	0.22350 0.53000 0.77540 -0.26300
N 	N 	0.54680 0.26210 0.65010 -0.28400
O 	O 	0.07570 0.51930 0.88010 -0.40400
O 	O 	0.19380 0.39700 0.92720 -0.42500
O 	O 	0.54930 0.31050 0.79650 -0.42100
O 	O 	0.41650 0.27810 0.87800 -0.44700
Zn	Zn	0.56298 0.38933 0.70623 1.19600
C 	C 	0.18970 0.98040 0.72960 0.12600
H 	H 	0.18720 0.94020 0.69250 -0.02300
C 	C 	0.14130 0.09360 0.80020 -0.06800
C 	C 	0.24690 0.04360 0.82210 -0.06500
C 	C 	0.05500 0.17460 0.82800 0.34000
C 	C 	0.33190 0.04410 0.88030 0.33000
C 	C 	0.91050 0.23970 0.58980 0.10000
H 	H 	0.86630 0.18350 0.57390 -0.01100
C 	C 	0.92840 0.32170 0.54890 -0.19900
H 	H 	0.89630 0.31970 0.50660 0.10400
C 	C 	0.99370 0.40630 0.57070 0.12900
C 	C 	0.03470 0.40370 0.63480 -0.18900
H 	H 	0.07710 0.45940 0.65250 0.08400
C 	C 	0.01330 0.31950 0.67260 0.09500
H 	H 	0.04200 0.31980 0.71550 -0.02600
C 	C 	0.01910 0.49470 0.53020 -0.09600
H 	H 	0.06590 0.54770 0.54870 0.06700
N 	N 	0.10460 0.05460 0.74130 -0.25800
N 	N 	0.27650 0.97000 0.77540 -0.26300
N 	N 	0.95320 0.23790 0.65010 -0.28500
O 	O 	0.42430 0.98070 0.88010 -0.40300
O 	O 	0.30620 0.10300 0.92720 -0.42500
O 	O 	0.95070 0.18950 0.79650 -0.42100
O 	O 	0.08350 0.22190 0.87800 -0.44700
Zn	Zn	0.93702 0.11067 0.70623 1.19600
C 	C 	0.68970 0.01960 0.77040 0.12500
H 	H 	0.68720 0.05980 0.80750 -0.02300
C 	C 	0.64130 0.90640 0.69980 -0.06800
C 	C 	0.74690 0.95640 0.67790 -0.06500
C 	C 	0.55500 0.82540 0.67200 0.33900
C 	C 	0.83190 0.95590 0.61970 0.33200
C 	C 	0.41050 0.76030 0.91020 0.10000
H 	H 	0.36630 0.81650 0.92610 -0.01000
C 	C 	0.42840 0.67830 0.95110 -0.19900
H 	H 	0.39630 0.68030 0.99340 0.10400
C 	C 	0.49370 0.59370 0.92930 0.12900
C 	C 	0.53470 0.59630 0.86520 -0.18900
H 	H 	0.57710 0.54060 0.84750 0.08400
C 	C 	0.51330 0.68050 0.82740 0.09500
H 	H 	0.54200 0.68020 0.78450 -0.02600
C 	C 	0.51910 0.50530 0.96980 -0.09600
H 	H 	0.56590 0.45230 0.95130 0.06700
N 	N 	0.60460 0.94540 0.75870 -0.25700
N 	N 	0.77650 0.03000 0.72460 -0.26300
N 	N 	0.45320 0.76210 0.84990 -0.28400
O 	O 	0.92430 0.01930 0.61990 -0.40500
O 	O 	0.80620 0.89700 0.57280 -0.42500
O 	O 	0.45070 0.81050 0.70350 -0.42100
O 	O 	0.58350 0.77810 0.62200 -0.44700
Zn	Zn	0.43702 0.88933 0.79377 1.19600
C 	C 	0.81030 0.48040 0.77040 0.12700
H 	H 	0.81280 0.44020 0.80750 -0.02300
C 	C 	0.85870 0.59360 0.69980 -0.06800
C 	C 	0.75310 0.54360 0.67790 -0.06500
C 	C 	0.94500 0.67460 0.67200 0.34000
C 	C 	0.66810 0.54410 0.61970 0.33100
C 	C 	0.08950 0.73970 0.91020 0.09900
H 	H 	0.13370 0.68350 0.92610 -0.01000
C 	C 	0.07160 0.82170 0.95110 -0.19600
H 	H 	0.10370 0.81970 0.99340 0.10300
C 	C 	0.00630 0.90630 0.92930 0.12400
C 	C 	0.96530 0.90370 0.86520 -0.18500
H 	H 	0.92290 0.95940 0.84750 0.08400
C 	C 	0.98670 0.81950 0.82740 0.09400
H 	H 	0.95800 0.81980 0.78450 -0.02600
C 	C 	0.98090 0.99470 0.96980 -0.09200
H 	H 	0.93410 0.04770 0.95130 0.06400
N 	N 	0.89540 0.55460 0.75870 -0.25800
N 	N 	0.72350 0.47000 0.72460 -0.26300
N 	N 	0.04680 0.73790 0.84990 -0.28400
O 	O 	0.57570 0.48070 0.61990 -0.40400
O 	O 	0.69380 0.60300 0.57280 -0.42500
O 	O 	0.04930 0.68950 0.70350 -0.42200
O 	O 	0.91650 0.72190 0.62200 -0.44700
Zn	Zn	0.06298 0.61067 0.79377 1.19600
Zn	Zn	0.75000 0.75000 0.07546 1.21600
Zn	Zn	0.25000 0.25000 0.42454 1.21600
Zn	Zn	0.25000 0.25000 0.92454 1.21600
Zn	Zn	0.75000 0.75000 0.57546 1.21600
