data_crystal

_cell_length_a 23.57280
_cell_length_b 6.42480
_cell_length_c 31.12760
_cell_angle_alpha 90.00000
_cell_angle_beta  94.77300
_cell_angle_gamma 90.00000

_symmetry_space_group_name_	'P 1'
_symmetry_space_group_name_H-M	'P 1'

loop_
_symmetry_equiv_pos_as_xyz
  x,y,z

loop_
_atom_site_label
_atom_site_type_symbol
_atom_site_fract_x
_atom_site_fract_y
_atom_site_fract_z
_atom_site_charge
Zn	Zn	0.30005 0.69690 0.67207 1.03200
O 	O 	0.30130 0.77370 0.60550 -0.59200
O 	O 	0.58310 0.26970 0.37360 -0.19800
O 	O 	0.33740 0.58350 0.20200 -0.12800
H 	H 	0.33080 0.59190 0.22830 -0.89400
Zn	Zn	0.33566 0.39580 0.59272 1.22900
Zn	Zn	0.19263 0.52361 0.18978 1.23400
Zn	Zn	0.19722 0.05751 0.21089 1.21600
Zn	Zn	0.32676 0.30872 0.18804 1.22200
C 	C 	0.22470 0.43010 0.56230 0.37200
C 	C 	0.17650 0.47360 0.52850 -0.10400
C 	C 	0.12590 0.54810 0.54060 0.01800
H 	H 	0.12110 0.56330 0.56980 0.03100
C 	C 	0.08160 0.60180 0.51060 -0.07800
H 	H 	0.04740 0.65060 0.51970 0.05800
C 	C 	0.08830 0.58250 0.46630 -0.01200
C 	C 	0.14110 0.50620 0.45370 -0.04700
C 	C 	0.18340 0.45560 0.48530 0.00200
H 	H 	0.21810 0.40740 0.47690 0.04500
C 	C 	0.03990 0.63360 0.43540 0.11100
C 	C 	0.01420 0.82270 0.43510 -0.19300
H 	H 	0.02770 0.92310 0.45490 0.09500
C 	C 	0.96990 0.86840 0.40720 0.11700
H 	H 	0.95250 0.99790 0.40860 0.00000
C 	C 	0.94900 0.72410 0.37570 -0.18800
C 	C 	0.97510 0.53750 0.37610 0.11700
H 	H 	0.96150 0.43700 0.35640 0.00200
C 	C 	0.02080 0.48970 0.40440 -0.18300
H 	H 	0.03890 0.36170 0.40270 0.09700
C 	C 	0.89930 0.77200 0.34480 0.42300
C 	C 	0.15250 0.48480 0.40820 0.10600
C 	C 	0.14420 0.65100 0.37960 -0.15500
H 	H 	0.13180 0.77950 0.38880 0.08700
C 	C 	0.15570 0.61800 0.33480 0.07900
H 	H 	0.15110 0.72340 0.31440 0.01200
C 	C 	0.17390 0.41800 0.32430 -0.18600
C 	C 	0.18020 0.26500 0.35220 0.13600
H 	H 	0.18960 0.13260 0.34280 -0.00200
C 	C 	0.17330 0.29500 0.39350 -0.19500
H 	H 	0.18240 0.18900 0.41320 0.09800
C 	C 	0.18140 0.39200 0.27600 0.45400
C 	C 	0.31400 0.94340 0.58700 0.49900
C 	C 	0.31510 0.95680 0.53940 -0.22900
C 	C 	0.27010 0.88620 0.51310 0.11200
H 	H 	0.23880 0.82860 0.52500 -0.00200
C 	C 	0.27050 0.89940 0.46860 -0.13900
H 	H 	0.23880 0.85520 0.45110 0.07900
C 	C 	0.31780 0.97820 0.44950 0.03800
C 	C 	0.36450 0.04840 0.47670 -0.09200
C 	C 	0.36210 0.03800 0.52080 0.07200
H 	H 	0.39280 0.08670 0.53860 -0.00200
C 	C 	0.31440 0.99870 0.40170 0.07200
C 	C 	0.29690 0.83730 0.37610 -0.14700
H 	H 	0.28660 0.71160 0.38800 0.08400
C 	C 	0.29450 0.86170 0.33190 0.08100
H 	H 	0.28290 0.75000 0.31430 0.02100
C 	C 	0.30890 0.04710 0.31310 -0.14500
C 	C 	0.32840 0.20780 0.33980 0.07400
H 	H 	0.34080 0.33110 0.32810 0.02400
C 	C 	0.32950 0.18560 0.38350 -0.13900
H 	H 	0.34050 0.29730 0.40130 0.08400
C 	C 	0.30580 0.07380 0.26510 0.39700
C 	C 	0.41710 0.12870 0.45870 0.15000
C 	C 	0.44730 0.00890 0.43140 -0.20200
H 	H 	0.43530 0.87390 0.42480 0.10800
C 	C 	0.49470 0.08510 0.41380 0.13100
H 	H 	0.51470 0.00170 0.39590 -0.00600
C 	C 	0.51250 0.28690 0.42280 -0.19800
C 	C 	0.48350 0.40090 0.45080 0.13500
H 	H 	0.49610 0.53440 0.45810 -0.00500
C 	C 	0.43630 0.32510 0.46850 -0.21400
H 	H 	0.41730 0.40750 0.48730 0.11300
C 	C 	0.56220 0.37260 0.40330 0.41900
O 	O 	0.21410 0.42400 0.60060 -0.44300
O 	O 	0.27330 0.40910 0.54930 -0.47900
O 	O 	0.87930 0.95550 0.34400 -0.48700
O 	O 	0.87990 0.62760 0.32100 -0.49100
O 	O 	0.18450 0.52990 0.25230 -0.55100
O 	O 	0.19010 0.19400 0.26530 -0.50100
O 	O 	0.33400 0.09210 0.61010 -0.57500
O 	O 	0.27630 0.94760 0.24180 -0.51600
O 	O 	0.33320 0.22310 0.24990 -0.47700
O 	O 	0.59150 0.50740 0.42430 -0.48100
O 	O 	0.33740 0.45740 0.65590 -0.89500
H 	H 	0.37750 0.49060 0.66350 0.19700
O 	O 	0.23890 0.27740 0.17650 -0.77600
H 	H 	0.23070 0.24600 0.14580 0.17300
O 	O 	0.20830 0.80440 0.17180 -0.87200
H 	H 	0.19070 0.83010 0.14260 0.16000
Zn	Zn	0.27173 0.68610 0.65034 0.96900
O 	O 	0.27460 0.82660 0.59770 -0.10700
O 	O 	0.56450 0.36000 0.36270 -0.18900
O 	O 	0.29240 0.60800 0.19570 -1.43500
H 	H 	0.30930 0.57870 0.22020 1.37200
Zn	Zn	0.69995 0.19690 0.82793 1.03100
O 	O 	0.69870 0.27370 0.89450 -0.59300
O 	O 	0.41690 0.76970 0.12640 -0.19800
O 	O 	0.66260 0.08350 0.29800 -0.13000
H 	H 	0.66920 0.09190 0.27170 -0.89700
Zn	Zn	0.66434 0.89580 0.90728 1.22800
Zn	Zn	0.80737 0.02361 0.31022 1.23300
Zn	Zn	0.80278 0.55751 0.28911 1.21700
Zn	Zn	0.67324 0.80872 0.31196 1.22300
C 	C 	0.77530 0.93010 0.93770 0.37400
C 	C 	0.82350 0.97360 0.97150 -0.11100
C 	C 	0.87410 0.04810 0.95940 0.02600
H 	H 	0.87890 0.06330 0.93020 0.02900
C 	C 	0.91840 0.10180 0.98940 -0.08700
H 	H 	0.95260 0.15060 0.98030 0.06200
C 	C 	0.91170 0.08250 0.03370 -0.00000
C 	C 	0.85890 0.00620 0.04630 -0.05800
C 	C 	0.81660 0.95560 0.01470 0.01100
H 	H 	0.78190 0.90740 0.02310 0.04200
C 	C 	0.96010 0.13360 0.06460 0.09000
C 	C 	0.98580 0.32270 0.06490 -0.17300
H 	H 	0.97230 0.42310 0.04510 0.08800
C 	C 	0.03010 0.36840 0.09280 0.09900
H 	H 	0.04750 0.49790 0.09140 0.00500
C 	C 	0.05100 0.22410 0.12430 -0.17100
C 	C 	0.02490 0.03750 0.12390 0.08600
H 	H 	0.03850 0.93700 0.14360 0.01600
C 	C 	0.97920 0.98970 0.09560 -0.15400
H 	H 	0.96110 0.86170 0.09730 0.08800
C 	C 	0.10070 0.27200 0.15520 0.41700
C 	C 	0.84750 0.98480 0.09180 0.11500
C 	C 	0.85580 0.15100 0.12040 -0.16100
H 	H 	0.86820 0.27950 0.11120 0.08900
C 	C 	0.84430 0.11800 0.16520 0.07800
H 	H 	0.84890 0.22340 0.18560 0.01100
C 	C 	0.82610 0.91800 0.17570 -0.18600
C 	C 	0.81980 0.76500 0.14780 0.13900
H 	H 	0.81040 0.63260 0.15720 -0.00300
C 	C 	0.82670 0.79500 0.10650 -0.20000
H 	H 	0.81760 0.68900 0.08680 0.10000
C 	C 	0.81860 0.89200 0.22400 0.46100
C 	C 	0.68600 0.44340 0.91300 0.50200
C 	C 	0.68490 0.45680 0.96060 -0.22700
C 	C 	0.72990 0.38620 0.98690 0.11200
H 	H 	0.76120 0.32860 0.97500 -0.00200
C 	C 	0.72950 0.39940 0.03140 -0.14000
H 	H 	0.76120 0.35520 0.04890 0.07900
C 	C 	0.68220 0.47820 0.05050 0.04000
C 	C 	0.63550 0.54840 0.02330 -0.09100
C 	C 	0.63790 0.53800 0.97920 0.07000
H 	H 	0.60720 0.58670 0.96140 -0.00200
C 	C 	0.68560 0.49870 0.09830 0.06500
C 	C 	0.70310 0.33730 0.12390 -0.14000
H 	H 	0.71340 0.21160 0.11200 0.08200
C 	C 	0.70550 0.36170 0.16810 0.07200
H 	H 	0.71710 0.25000 0.18570 0.02300
C 	C 	0.69110 0.54710 0.18690 -0.13800
C 	C 	0.67160 0.70780 0.16020 0.06700
H 	H 	0.65920 0.83110 0.17190 0.02700
C 	C 	0.67050 0.68560 0.11650 -0.13200
H 	H 	0.65950 0.79730 0.09870 0.08200
C 	C 	0.69420 0.57380 0.23490 0.39900
C 	C 	0.58290 0.62870 0.04130 0.14900
C 	C 	0.55270 0.50890 0.06860 -0.19900
H 	H 	0.56470 0.37390 0.07520 0.10600
C 	C 	0.50530 0.58510 0.08620 0.12900
H 	H 	0.48530 0.50170 0.10410 -0.00500
C 	C 	0.48750 0.78690 0.07720 -0.19700
C 	C 	0.51650 0.90090 0.04920 0.13500
H 	H 	0.50390 0.03440 0.04190 -0.00500
C 	C 	0.56370 0.82510 0.03150 -0.21300
H 	H 	0.58270 0.90750 0.01270 0.11300
C 	C 	0.43780 0.87260 0.09670 0.42000
O 	O 	0.78590 0.92400 0.89940 -0.44500
O 	O 	0.72670 0.90910 0.95070 -0.48000
O 	O 	0.12070 0.45550 0.15600 -0.48800
O 	O 	0.12010 0.12760 0.17900 -0.49100
O 	O 	0.81550 0.02990 0.24770 -0.55700
O 	O 	0.80990 0.69400 0.23470 -0.50100
O 	O 	0.66600 0.59210 0.88990 -0.57800
O 	O 	0.72370 0.44760 0.25820 -0.52000
O 	O 	0.66680 0.72310 0.25010 -0.47600
O 	O 	0.40850 0.00740 0.07570 -0.48200
O 	O 	0.66260 0.95740 0.84410 -0.89600
H 	H 	0.62250 0.99060 0.83650 0.19700
O 	O 	0.76110 0.77740 0.32350 -0.77400
H 	H 	0.76930 0.74600 0.35420 0.17300
O 	O 	0.79170 0.30440 0.32820 -0.87300
H 	H 	0.80930 0.33010 0.35740 0.15900
Zn	Zn	0.72827 0.18610 0.84966 0.96900
O 	O 	0.72540 0.32660 0.90230 -0.10600
O 	O 	0.43550 0.86000 0.13730 -0.18900
O 	O 	0.70760 0.10800 0.30430 -1.43700
H 	H 	0.69070 0.07870 0.27980 1.37400
Zn	Zn	0.69995 0.30310 0.32793 1.03100
O 	O 	0.69870 0.22630 0.39450 -0.59300
O 	O 	0.41690 0.73030 0.62640 -0.19900
O 	O 	0.66260 0.41650 0.79800 -0.12900
H 	H 	0.66920 0.40810 0.77170 -0.89500
Zn	Zn	0.66434 0.60420 0.40728 1.22800
Zn	Zn	0.80737 0.47639 0.81022 1.23400
Zn	Zn	0.80278 0.94249 0.78911 1.21600
Zn	Zn	0.67324 0.69128 0.81196 1.22200
C 	C 	0.77530 0.56990 0.43770 0.37200
C 	C 	0.82350 0.52640 0.47150 -0.10400
C 	C 	0.87410 0.45190 0.45940 0.01800
H 	H 	0.87890 0.43670 0.43020 0.03100
C 	C 	0.91840 0.39820 0.48940 -0.07800
H 	H 	0.95260 0.34940 0.48030 0.05800
C 	C 	0.91170 0.41750 0.53370 -0.01200
C 	C 	0.85890 0.49380 0.54630 -0.04700
C 	C 	0.81660 0.54440 0.51470 0.00200
H 	H 	0.78190 0.59260 0.52310 0.04500
C 	C 	0.96010 0.36640 0.56460 0.11100
C 	C 	0.98580 0.17730 0.56490 -0.19300
H 	H 	0.97230 0.07690 0.54510 0.09500
C 	C 	0.03010 0.13160 0.59280 0.11700
H 	H 	0.04750 0.00210 0.59140 0.00000
C 	C 	0.05100 0.27590 0.62430 -0.18800
C 	C 	0.02490 0.46250 0.62390 0.11700
H 	H 	0.03850 0.56300 0.64360 0.00200
C 	C 	0.97920 0.51030 0.59560 -0.18300
H 	H 	0.96110 0.63830 0.59730 0.09700
C 	C 	0.10070 0.22800 0.65520 0.42300
C 	C 	0.84750 0.51520 0.59180 0.10600
C 	C 	0.85580 0.34900 0.62040 -0.15500
H 	H 	0.86820 0.22050 0.61120 0.08700
C 	C 	0.84430 0.38200 0.66520 0.07900
H 	H 	0.84890 0.27660 0.68560 0.01200
C 	C 	0.82610 0.58200 0.67570 -0.18600
C 	C 	0.81980 0.73500 0.64780 0.13600
H 	H 	0.81040 0.86740 0.65720 -0.00200
C 	C 	0.82670 0.70500 0.60650 -0.19500
H 	H 	0.81760 0.81100 0.58680 0.09800
C 	C 	0.81860 0.60800 0.72400 0.45400
C 	C 	0.68600 0.05660 0.41300 0.49900
C 	C 	0.68490 0.04320 0.46060 -0.22900
C 	C 	0.72990 0.11380 0.48690 0.11200
H 	H 	0.76120 0.17140 0.47500 -0.00200
C 	C 	0.72950 0.10060 0.53140 -0.13900
H 	H 	0.76120 0.14480 0.54890 0.07900
C 	C 	0.68220 0.02180 0.55050 0.03800
C 	C 	0.63550 0.95160 0.52330 -0.09200
C 	C 	0.63790 0.96200 0.47920 0.07200
H 	H 	0.60720 0.91330 0.46140 -0.00200
C 	C 	0.68560 0.00130 0.59830 0.07200
C 	C 	0.70310 0.16270 0.62390 -0.14700
H 	H 	0.71340 0.28840 0.61200 0.08400
C 	C 	0.70550 0.13830 0.66810 0.08100
H 	H 	0.71710 0.25000 0.68570 0.02100
C 	C 	0.69110 0.95290 0.68690 -0.14500
C 	C 	0.67160 0.79220 0.66020 0.07400
H 	H 	0.65920 0.66890 0.67190 0.02400
C 	C 	0.67050 0.81440 0.61650 -0.13900
H 	H 	0.65950 0.70270 0.59870 0.08400
C 	C 	0.69420 0.92620 0.73490 0.39700
C 	C 	0.58290 0.87130 0.54130 0.15000
C 	C 	0.55270 0.99110 0.56860 -0.20200
H 	H 	0.56470 0.12610 0.57520 0.10800
C 	C 	0.50530 0.91490 0.58620 0.13100
H 	H 	0.48530 0.99830 0.60410 -0.00600
C 	C 	0.48750 0.71310 0.57720 -0.19800
C 	C 	0.51650 0.59910 0.54920 0.13500
H 	H 	0.50390 0.46560 0.54190 -0.00500
C 	C 	0.56370 0.67490 0.53150 -0.21400
H 	H 	0.58270 0.59250 0.51270 0.11300
C 	C 	0.43780 0.62740 0.59670 0.41900
O 	O 	0.78590 0.57600 0.39940 -0.44300
O 	O 	0.72670 0.59090 0.45070 -0.47900
O 	O 	0.12070 0.04450 0.65600 -0.48700
O 	O 	0.12010 0.37240 0.67900 -0.49100
O 	O 	0.81550 0.47010 0.74770 -0.55100
O 	O 	0.80990 0.80600 0.73470 -0.50100
O 	O 	0.66600 0.90790 0.38990 -0.57500
O 	O 	0.72370 0.05240 0.75820 -0.51600
O 	O 	0.66680 0.77690 0.75010 -0.47700
O 	O 	0.40850 0.49260 0.57570 -0.48100
O 	O 	0.66260 0.54260 0.34410 -0.89500
H 	H 	0.62250 0.50940 0.33650 0.19700
O 	O 	0.76110 0.72260 0.82350 -0.77600
H 	H 	0.76930 0.75400 0.85420 0.17300
O 	O 	0.79170 0.19560 0.82820 -0.87200
H 	H 	0.80930 0.16990 0.85740 0.16000
Zn	Zn	0.72827 0.31390 0.34966 0.96900
O 	O 	0.72540 0.17340 0.40230 -0.10700
O 	O 	0.43550 0.64000 0.63730 -0.18900
O 	O 	0.70760 0.39200 0.80430 -1.43500
H 	H 	0.69070 0.42130 0.77980 1.37200
Zn	Zn	0.30005 0.80310 0.17207 1.03100
O 	O 	0.30130 0.72630 0.10550 -0.59300
O 	O 	0.58310 0.23030 0.87360 -0.19800
O 	O 	0.33740 0.91650 0.70200 -0.13000
H 	H 	0.33080 0.90810 0.72830 -0.89700
Zn	Zn	0.33566 0.10420 0.09272 1.22800
Zn	Zn	0.19263 0.97639 0.68978 1.23300
Zn	Zn	0.19722 0.44249 0.71089 1.21700
Zn	Zn	0.32676 0.19128 0.68804 1.22300
C 	C 	0.22470 0.06990 0.06230 0.37400
C 	C 	0.17650 0.02640 0.02850 -0.11100
C 	C 	0.12590 0.95190 0.04060 0.02600
H 	H 	0.12110 0.93670 0.06980 0.02900
C 	C 	0.08160 0.89820 0.01060 -0.08700
H 	H 	0.04740 0.84940 0.01970 0.06200
C 	C 	0.08830 0.91750 0.96630 -0.00000
C 	C 	0.14110 0.99380 0.95370 -0.05800
C 	C 	0.18340 0.04440 0.98530 0.01100
H 	H 	0.21810 0.09260 0.97690 0.04200
C 	C 	0.03990 0.86640 0.93540 0.09000
C 	C 	0.01420 0.67730 0.93510 -0.17300
H 	H 	0.02770 0.57690 0.95490 0.08800
C 	C 	0.96990 0.63160 0.90720 0.09900
H 	H 	0.95250 0.50210 0.90860 0.00500
C 	C 	0.94900 0.77590 0.87570 -0.17100
C 	C 	0.97510 0.96250 0.87610 0.08600
H 	H 	0.96150 0.06300 0.85640 0.01600
C 	C 	0.02080 0.01030 0.90440 -0.15400
H 	H 	0.03890 0.13830 0.90270 0.08800
C 	C 	0.89930 0.72800 0.84480 0.41700
C 	C 	0.15250 0.01520 0.90820 0.11500
C 	C 	0.14420 0.84900 0.87960 -0.16100
H 	H 	0.13180 0.72050 0.88880 0.08900
C 	C 	0.15570 0.88200 0.83480 0.07800
H 	H 	0.15110 0.77660 0.81440 0.01100
C 	C 	0.17390 0.08200 0.82430 -0.18600
C 	C 	0.18020 0.23500 0.85220 0.13900
H 	H 	0.18960 0.36740 0.84280 -0.00300
C 	C 	0.17330 0.20500 0.89350 -0.20000
H 	H 	0.18240 0.31100 0.91320 0.10000
C 	C 	0.18140 0.10800 0.77600 0.46100
C 	C 	0.31400 0.55660 0.08700 0.50200
C 	C 	0.31510 0.54320 0.03940 -0.22700
C 	C 	0.27010 0.61380 0.01310 0.11200
H 	H 	0.23880 0.67140 0.02500 -0.00200
C 	C 	0.27050 0.60060 0.96860 -0.14000
H 	H 	0.23880 0.64480 0.95110 0.07900
C 	C 	0.31780 0.52180 0.94950 0.04000
C 	C 	0.36450 0.45160 0.97670 -0.09100
C 	C 	0.36210 0.46200 0.02080 0.07000
H 	H 	0.39280 0.41330 0.03860 -0.00200
C 	C 	0.31440 0.50130 0.90170 0.06500
C 	C 	0.29690 0.66270 0.87610 -0.14000
H 	H 	0.28660 0.78840 0.88800 0.08200
C 	C 	0.29450 0.63830 0.83190 0.07200
H 	H 	0.28290 0.75000 0.81430 0.02300
C 	C 	0.30890 0.45290 0.81310 -0.13800
C 	C 	0.32840 0.29220 0.83980 0.06700
H 	H 	0.34080 0.16890 0.82810 0.02700
C 	C 	0.32950 0.31440 0.88350 -0.13200
H 	H 	0.34050 0.20270 0.90130 0.08200
C 	C 	0.30580 0.42620 0.76510 0.39900
C 	C 	0.41710 0.37130 0.95870 0.14900
C 	C 	0.44730 0.49110 0.93140 -0.19900
H 	H 	0.43530 0.62610 0.92480 0.10600
C 	C 	0.49470 0.41490 0.91380 0.12900
H 	H 	0.51470 0.49830 0.89590 -0.00500
C 	C 	0.51250 0.21310 0.92280 -0.19700
C 	C 	0.48350 0.09910 0.95080 0.13500
H 	H 	0.49610 0.96560 0.95810 -0.00500
C 	C 	0.43630 0.17490 0.96850 -0.21300
H 	H 	0.41730 0.09250 0.98730 0.11300
C 	C 	0.56220 0.12740 0.90330 0.42000
O 	O 	0.21410 0.07600 0.10060 -0.44500
O 	O 	0.27330 0.09090 0.04930 -0.48000
O 	O 	0.87930 0.54450 0.84400 -0.48800
O 	O 	0.87990 0.87240 0.82100 -0.49100
O 	O 	0.18450 0.97010 0.75230 -0.55700
O 	O 	0.19010 0.30600 0.76530 -0.50100
O 	O 	0.33400 0.40790 0.11010 -0.57800
O 	O 	0.27630 0.55240 0.74180 -0.52000
O 	O 	0.33320 0.27690 0.74990 -0.47600
O 	O 	0.59150 0.99260 0.92430 -0.48200
O 	O 	0.33740 0.04260 0.15590 -0.89600
H 	H 	0.37750 0.00940 0.16350 0.19700
O 	O 	0.23890 0.22260 0.67650 -0.77400
H 	H 	0.23070 0.25400 0.64580 0.17300
O 	O 	0.20830 0.69560 0.67180 -0.87300
H 	H 	0.19070 0.66990 0.64260 0.15900
Zn	Zn	0.27173 0.81390 0.15034 0.96900
O 	O 	0.27460 0.67340 0.09770 -0.10600
O 	O 	0.56450 0.14000 0.86270 -0.18900
O 	O 	0.29240 0.89200 0.69570 -1.43700
H 	H 	0.30930 0.92130 0.72020 1.37400
