data_crystal

_cell_length_a 9.49900
_cell_length_b 9.58540
_cell_length_c 11.49450
_cell_angle_alpha 101.90600
_cell_angle_beta  95.74800
_cell_angle_gamma 119.38700

_symmetry_space_group_name_	'P 1'
_symmetry_space_group_name_H-M	'P 1'

loop_
_symmetry_equiv_pos_as_xyz
  x,y,z

loop_
_atom_site_label
_atom_site_type_symbol
_atom_site_fract_x
_atom_site_fract_y
_atom_site_fract_z
_atom_site_charge
Er	Er	0.73141 0.36122 0.49497 1.93100
Ag	Ag	0.51032 0.80804 0.17762 0.54900
O 	O 	0.41470 0.81060 0.38528 -0.43800
O 	O 	0.20570 0.66930 0.69310 -0.50300
O 	O 	0.93050 0.51750 0.67350 -0.51600
O 	O 	0.13170 0.78100 0.48230 -0.48900
O 	O 	0.85760 0.62440 0.46620 -0.49800
O 	O 	0.49520 0.64480 0.61760 -0.39300
O 	O 	0.62880 0.50710 0.62245 -0.38600
N 	N 	0.28260 0.75650 0.06820 -0.20500
N 	N 	0.76080 0.87030 0.24610 -0.21000
C 	C 	0.15840 0.74690 0.11860 0.10500
H 	H 	0.17540 0.77180 0.20330 -0.00100
C 	C 	0.00670 0.70190 0.05120 -0.18100
H 	H 	0.92550 0.70220 0.09000 0.08900
C 	C 	0.97680 0.65650 0.92620 0.12400
H 	H 	0.87350 0.62120 0.87880 -0.01100
C 	C 	0.10280 0.66420 0.87130 -0.21200
C 	C 	0.25400 0.71680 0.94440 0.10700
H 	H 	0.33970 0.72550 0.90760 -0.01400
C 	C 	0.07770 0.61360 0.73430 0.50300
C 	C 	0.79380 0.78830 0.31690 0.11700
H 	H 	0.70580 0.69400 0.32860 -0.00800
C 	C 	0.95520 0.84080 0.37250 -0.21200
C 	C 	0.08450 0.98150 0.35600 0.13500
H 	H 	0.19370 0.02010 0.39300 -0.00400
C 	C 	0.05040 0.06470 0.28400 -0.19200
H 	H 	0.13620 0.15980 0.27140 0.11500
C 	C 	0.88850 0.00510 0.23120 0.11300
H 	H 	0.86660 0.06170 0.18250 -0.02000
C 	C 	0.98350 0.74190 0.44740 0.49200
C 	C 	0.48680 0.96670 0.43030 0.26200
C 	C 	0.53570 0.54300 0.56910 0.25400
O 	O 	0.54020 0.07260 0.37366 -0.40200
Er	Er	0.26859 0.63878 0.50503 1.93000
Ag	Ag	0.48968 0.19196 0.82238 0.54800
O 	O 	0.58530 0.18940 0.61472 -0.43800
O 	O 	0.79430 0.33070 0.30690 -0.50300
O 	O 	0.06950 0.48250 0.32650 -0.51600
O 	O 	0.86830 0.21900 0.51770 -0.48900
O 	O 	0.14240 0.37560 0.53380 -0.49800
O 	O 	0.50480 0.35520 0.38240 -0.39300
O 	O 	0.37120 0.49290 0.37755 -0.38600
N 	N 	0.71740 0.24350 0.93180 -0.20500
N 	N 	0.23920 0.12970 0.75390 -0.21000
C 	C 	0.84160 0.25310 0.88140 0.10500
H 	H 	0.82460 0.22820 0.79670 -0.00100
C 	C 	0.99330 0.29810 0.94880 -0.18100
H 	H 	0.07450 0.29780 0.91000 0.08900
C 	C 	0.02320 0.34350 0.07380 0.12400
H 	H 	0.12650 0.37880 0.12120 -0.01100
C 	C 	0.89720 0.33580 0.12870 -0.21200
C 	C 	0.74600 0.28320 0.05560 0.10700
H 	H 	0.66030 0.27450 0.09240 -0.01400
C 	C 	0.92230 0.38640 0.26570 0.50300
C 	C 	0.20620 0.21170 0.68310 0.11700
H 	H 	0.29420 0.30600 0.67140 -0.00800
C 	C 	0.04480 0.15920 0.62750 -0.21200
C 	C 	0.91550 0.01850 0.64400 0.13500
H 	H 	0.80630 0.97990 0.60700 -0.00400
C 	C 	0.94960 0.93530 0.71600 -0.19200
H 	H 	0.86380 0.84020 0.72860 0.11500
C 	C 	0.11150 0.99490 0.76880 0.11300
H 	H 	0.13340 0.93830 0.81750 -0.02000
C 	C 	0.01650 0.25810 0.55260 0.49200
C 	C 	0.51320 0.03330 0.56970 0.26200
C 	C 	0.46430 0.45700 0.43090 0.25400
O 	O 	0.45980 0.92740 0.62634 -0.40200
