data_crystal

_cell_length_a 19.31840
_cell_length_b 19.31840
_cell_length_c 19.31840
_cell_angle_alpha 90.00000
_cell_angle_beta  90.00000
_cell_angle_gamma 90.00000

_symmetry_space_group_name_	'P 1'
_symmetry_space_group_name_H-M	'P 1'

loop_
_symmetry_equiv_pos_as_xyz
  x,y,z

loop_
_atom_site_label
_atom_site_type_symbol
_atom_site_fract_x
_atom_site_fract_y
_atom_site_fract_z
_atom_site_charge
N 	N 	0.45636 0.53280 0.09650 -0.23700
C 	C 	0.31240 0.55860 0.21490 0.00400
C 	C 	0.25200 0.56040 0.17990 -0.04700
H 	H 	0.25270 0.56230 0.13080 0.03400
C 	C 	0.18690 0.55970 0.21540 -0.07100
H 	H 	0.14450 0.55990 0.19050 0.04000
C 	C 	0.38840 0.52750 0.11340 -0.01600
H 	H 	0.35360 0.50730 0.08510 0.00900
C 	C 	0.48580 0.56250 0.14930 0.07000
H 	H 	0.53390 0.57220 0.15240 -0.00500
C 	C 	0.43850 0.57820 0.19980 -0.12100
H 	H 	0.44750 0.60070 0.24260 0.06700
C 	C 	0.37780 0.55570 0.17700 0.02500
N 	N 	0.04364 0.96720 0.09650 -0.21500
C 	C 	0.18760 0.94140 0.21490 0.02700
C 	C 	0.24800 0.93960 0.17990 -0.06200
H 	H 	0.24730 0.93770 0.13080 0.04600
C 	C 	0.31310 0.94030 0.21540 -0.04800
H 	H 	0.35550 0.94010 0.19050 0.04500
C 	C 	0.11160 0.97250 0.11340 -0.00100
H 	H 	0.14640 0.99270 0.08510 0.01900
C 	C 	0.01420 0.93750 0.14930 -0.04200
H 	H 	0.96610 0.92780 0.15240 0.06900
C 	C 	0.06150 0.92180 0.19980 -0.05600
H 	H 	0.05250 0.89930 0.24260 0.03700
C 	C 	0.12220 0.94430 0.17700 -0.00500
N 	N 	0.04364 0.53280 0.40350 -0.22200
C 	C 	0.18760 0.55860 0.28510 0.02800
C 	C 	0.24800 0.56040 0.32010 -0.06800
H 	H 	0.24730 0.56230 0.36920 0.05000
C 	C 	0.31310 0.55970 0.28460 -0.04700
H 	H 	0.35550 0.55990 0.30950 0.04200
C 	C 	0.11160 0.52750 0.38660 -0.00200
H 	H 	0.14640 0.50730 0.41490 0.01600
C 	C 	0.01420 0.56250 0.35070 -0.05400
H 	H 	0.96610 0.57220 0.34760 0.06800
C 	C 	0.06150 0.57820 0.30020 -0.05400
H 	H 	0.05250 0.60070 0.25740 0.03000
C 	C 	0.12220 0.55570 0.32300 -0.01200
N 	N 	0.45636 0.96720 0.40350 -0.21900
C 	C 	0.31240 0.94140 0.28510 0.01100
C 	C 	0.25200 0.93960 0.32010 -0.04700
H 	H 	0.25270 0.93770 0.36920 0.04700
C 	C 	0.18690 0.94030 0.28460 -0.06200
H 	H 	0.14450 0.94010 0.30950 0.04900
C 	C 	0.38840 0.97250 0.38660 -0.01000
H 	H 	0.35360 0.99270 0.41490 0.03700
C 	C 	0.48580 0.93750 0.35070 0.07500
H 	H 	0.53390 0.92780 0.34760 0.00000
C 	C 	0.43850 0.92180 0.30020 -0.11800
H 	H 	0.44750 0.89930 0.25740 0.06800
C 	C 	0.37780 0.94430 0.32300 0.03000
N 	N 	0.09650 0.45636 0.53280 -0.23800
C 	C 	0.21490 0.31240 0.55860 0.00300
C 	C 	0.17990 0.25200 0.56040 -0.04800
H 	H 	0.13080 0.25270 0.56230 0.03300
C 	C 	0.21540 0.18690 0.55970 -0.07100
H 	H 	0.19050 0.14450 0.55990 0.04000
C 	C 	0.11340 0.38840 0.52750 -0.01600
H 	H 	0.08510 0.35360 0.50730 0.00900
C 	C 	0.14930 0.48580 0.56250 0.07000
H 	H 	0.15240 0.53390 0.57220 -0.00500
C 	C 	0.19980 0.43850 0.57820 -0.12100
H 	H 	0.24260 0.44750 0.60070 0.06700
C 	C 	0.17700 0.37780 0.55570 0.02500
N 	N 	0.09650 0.04364 0.96720 -0.21500
C 	C 	0.21490 0.18760 0.94140 0.02700
C 	C 	0.17990 0.24800 0.93960 -0.06200
H 	H 	0.13080 0.24730 0.93770 0.04600
C 	C 	0.21540 0.31310 0.94030 -0.04800
H 	H 	0.19050 0.35550 0.94010 0.04500
C 	C 	0.11340 0.11160 0.97250 -0.00100
H 	H 	0.08510 0.14640 0.99270 0.01900
C 	C 	0.14930 0.01420 0.93750 -0.04200
H 	H 	0.15240 0.96610 0.92780 0.06900
C 	C 	0.19980 0.06150 0.92180 -0.05600
H 	H 	0.24260 0.05250 0.89930 0.03700
C 	C 	0.17700 0.12220 0.94430 -0.00500
N 	N 	0.40350 0.04364 0.53280 -0.22200
C 	C 	0.28510 0.18760 0.55860 0.02800
C 	C 	0.32010 0.24800 0.56040 -0.06800
H 	H 	0.36920 0.24730 0.56230 0.05000
C 	C 	0.28460 0.31310 0.55970 -0.04700
H 	H 	0.30950 0.35550 0.55990 0.04200
C 	C 	0.38660 0.11160 0.52750 -0.00200
H 	H 	0.41490 0.14640 0.50730 0.01600
C 	C 	0.35070 0.01420 0.56250 -0.05400
H 	H 	0.34760 0.96610 0.57220 0.06800
C 	C 	0.30020 0.06150 0.57820 -0.05400
H 	H 	0.25740 0.05250 0.60070 0.03000
C 	C 	0.32300 0.12220 0.55570 -0.01200
N 	N 	0.40350 0.45636 0.96720 -0.21900
C 	C 	0.28510 0.31240 0.94140 0.01100
C 	C 	0.32010 0.25200 0.93960 -0.04700
H 	H 	0.36920 0.25270 0.93770 0.04700
C 	C 	0.28460 0.18690 0.94030 -0.06200
H 	H 	0.30950 0.14450 0.94010 0.04900
C 	C 	0.38660 0.38840 0.97250 -0.01000
H 	H 	0.41490 0.35360 0.99270 0.03700
C 	C 	0.35070 0.48580 0.93750 0.07500
H 	H 	0.34760 0.53390 0.92780 0.00000
C 	C 	0.30020 0.43850 0.92180 -0.11800
H 	H 	0.25740 0.44750 0.89930 0.06800
C 	C 	0.32300 0.37780 0.94430 0.03000
N 	N 	0.53280 0.09650 0.45636 -0.23800
C 	C 	0.55860 0.21490 0.31240 0.00300
C 	C 	0.56040 0.17990 0.25200 -0.04800
H 	H 	0.56230 0.13080 0.25270 0.03300
C 	C 	0.55970 0.21540 0.18690 -0.07100
H 	H 	0.55990 0.19050 0.14450 0.04000
C 	C 	0.52750 0.11340 0.38840 -0.01600
H 	H 	0.50730 0.08510 0.35360 0.00900
C 	C 	0.56250 0.14930 0.48580 0.07000
H 	H 	0.57220 0.15240 0.53390 -0.00500
C 	C 	0.57820 0.19980 0.43850 -0.12100
H 	H 	0.60070 0.24260 0.44750 0.06700
C 	C 	0.55570 0.17700 0.37780 0.02500
N 	N 	0.96720 0.09650 0.04364 -0.21500
C 	C 	0.94140 0.21490 0.18760 0.02700
C 	C 	0.93960 0.17990 0.24800 -0.06200
H 	H 	0.93770 0.13080 0.24730 0.04600
C 	C 	0.94030 0.21540 0.31310 -0.04800
H 	H 	0.94010 0.19050 0.35550 0.04500
C 	C 	0.97250 0.11340 0.11160 -0.00100
H 	H 	0.99270 0.08510 0.14640 0.01900
C 	C 	0.93750 0.14930 0.01420 -0.04200
H 	H 	0.92780 0.15240 0.96610 0.06900
C 	C 	0.92180 0.19980 0.06150 -0.05600
H 	H 	0.89930 0.24260 0.05250 0.03700
C 	C 	0.94430 0.17700 0.12220 -0.00500
N 	N 	0.53280 0.40350 0.04364 -0.22200
C 	C 	0.55860 0.28510 0.18760 0.02800
C 	C 	0.56040 0.32010 0.24800 -0.06800
H 	H 	0.56230 0.36920 0.24730 0.05000
C 	C 	0.55970 0.28460 0.31310 -0.04700
H 	H 	0.55990 0.30950 0.35550 0.04200
C 	C 	0.52750 0.38660 0.11160 -0.00200
H 	H 	0.50730 0.41490 0.14640 0.01600
C 	C 	0.56250 0.35070 0.01420 -0.05400
H 	H 	0.57220 0.34760 0.96610 0.06800
C 	C 	0.57820 0.30020 0.06150 -0.05400
H 	H 	0.60070 0.25740 0.05250 0.03000
C 	C 	0.55570 0.32300 0.12220 -0.01200
N 	N 	0.96720 0.40350 0.45636 -0.21900
C 	C 	0.94140 0.28510 0.31240 0.01100
C 	C 	0.93960 0.32010 0.25200 -0.04700
H 	H 	0.93770 0.36920 0.25270 0.04700
C 	C 	0.94030 0.28460 0.18690 -0.06200
H 	H 	0.94010 0.30950 0.14450 0.04900
C 	C 	0.97250 0.38660 0.38840 -0.01000
H 	H 	0.99270 0.41490 0.35360 0.03700
C 	C 	0.93750 0.35070 0.48580 0.07500
H 	H 	0.92780 0.34760 0.53390 0.00000
C 	C 	0.92180 0.30020 0.43850 -0.11800
H 	H 	0.89930 0.25740 0.44750 0.06800
C 	C 	0.94430 0.32300 0.37780 0.03000
N 	N 	0.54364 0.46720 0.90350 -0.22100
C 	C 	0.68760 0.44140 0.78510 0.02300
C 	C 	0.74800 0.43960 0.82010 -0.06000
H 	H 	0.74730 0.43770 0.86920 0.05800
C 	C 	0.81310 0.44030 0.78460 -0.03700
H 	H 	0.85550 0.44010 0.80950 0.05100
C 	C 	0.61160 0.47250 0.88660 -0.00900
H 	H 	0.64640 0.49270 0.91490 0.03800
C 	C 	0.51420 0.43750 0.85070 0.06800
H 	H 	0.46610 0.42780 0.84760 -0.00200
C 	C 	0.56150 0.42180 0.80020 -0.11600
H 	H 	0.55250 0.39930 0.75740 0.06600
C 	C 	0.62220 0.44430 0.82300 0.02400
N 	N 	0.95636 0.03280 0.90350 -0.23300
C 	C 	0.81240 0.05860 0.78510 -0.00100
C 	C 	0.75200 0.06040 0.82010 -0.04600
H 	H 	0.75270 0.06230 0.86920 0.04600
C 	C 	0.68690 0.05970 0.78460 -0.06000
H 	H 	0.64450 0.05990 0.80950 0.04700
C 	C 	0.88840 0.02750 0.88660 -0.02400
H 	H 	0.85360 0.00730 0.91490 0.03100
C 	C 	0.98580 0.06250 0.85070 0.18200
H 	H 	0.03390 0.07220 0.84760 -0.07400
C 	C 	0.93850 0.07820 0.80020 -0.18100
H 	H 	0.94750 0.10070 0.75740 0.09700
C 	C 	0.87780 0.05570 0.82300 0.05400
N 	N 	0.95636 0.46720 0.59650 -0.23700
C 	C 	0.81240 0.44140 0.71490 -0.00300
C 	C 	0.75200 0.43960 0.67990 -0.04000
H 	H 	0.75270 0.43770 0.63080 0.04200
C 	C 	0.68690 0.44030 0.71540 -0.06100
H 	H 	0.64450 0.44010 0.69050 0.04900
C 	C 	0.88840 0.47250 0.61340 -0.02300
H 	H 	0.85360 0.49270 0.58510 0.03100
C 	C 	0.98580 0.43750 0.64930 0.19100
H 	H 	0.03390 0.42780 0.65240 -0.07300
C 	C 	0.93850 0.42180 0.69980 -0.18300
H 	H 	0.94750 0.39930 0.74260 0.10300
C 	C 	0.87780 0.44430 0.67700 0.06000
N 	N 	0.54364 0.03280 0.59650 -0.23900
C 	C 	0.68760 0.05860 0.71490 0.01500
C 	C 	0.74800 0.06040 0.67990 -0.06000
H 	H 	0.74730 0.06230 0.63080 0.04400
C 	C 	0.81310 0.05970 0.71540 -0.04600
H 	H 	0.85550 0.05990 0.69050 0.04300
C 	C 	0.61160 0.02750 0.61340 -0.01500
H 	H 	0.64640 0.00730 0.58510 0.01100
C 	C 	0.51420 0.06250 0.64930 0.06300
H 	H 	0.46610 0.07220 0.65240 -0.00700
C 	C 	0.56150 0.07820 0.69980 -0.11900
H 	H 	0.55250 0.10070 0.74260 0.06500
C 	C 	0.62220 0.05570 0.67700 0.01900
N 	N 	0.90350 0.54364 0.46720 -0.22100
C 	C 	0.78510 0.68760 0.44140 0.02300
C 	C 	0.82010 0.74800 0.43960 -0.06000
H 	H 	0.86920 0.74730 0.43770 0.05800
C 	C 	0.78460 0.81310 0.44030 -0.03700
H 	H 	0.80950 0.85550 0.44010 0.05100
C 	C 	0.88660 0.61160 0.47250 -0.00900
H 	H 	0.91490 0.64640 0.49270 0.03800
C 	C 	0.85070 0.51420 0.43750 0.06800
H 	H 	0.84760 0.46610 0.42780 -0.00200
C 	C 	0.80020 0.56150 0.42180 -0.11600
H 	H 	0.75740 0.55250 0.39930 0.06600
C 	C 	0.82300 0.62220 0.44430 0.02400
N 	N 	0.90350 0.95636 0.03280 -0.23300
C 	C 	0.78510 0.81240 0.05860 -0.00100
C 	C 	0.82010 0.75200 0.06040 -0.04600
H 	H 	0.86920 0.75270 0.06230 0.04600
C 	C 	0.78460 0.68690 0.05970 -0.06000
H 	H 	0.80950 0.64450 0.05990 0.04700
C 	C 	0.88660 0.88840 0.02750 -0.02400
H 	H 	0.91490 0.85360 0.00730 0.03100
C 	C 	0.85070 0.98580 0.06250 0.18200
H 	H 	0.84760 0.03390 0.07220 -0.07400
C 	C 	0.80020 0.93850 0.07820 -0.18100
H 	H 	0.75740 0.94750 0.10070 0.09700
C 	C 	0.82300 0.87780 0.05570 0.05400
N 	N 	0.59650 0.95636 0.46720 -0.23700
C 	C 	0.71490 0.81240 0.44140 -0.00300
C 	C 	0.67990 0.75200 0.43960 -0.04000
H 	H 	0.63080 0.75270 0.43770 0.04200
C 	C 	0.71540 0.68690 0.44030 -0.06100
H 	H 	0.69050 0.64450 0.44010 0.04900
C 	C 	0.61340 0.88840 0.47250 -0.02300
H 	H 	0.58510 0.85360 0.49270 0.03100
C 	C 	0.64930 0.98580 0.43750 0.19100
H 	H 	0.65240 0.03390 0.42780 -0.07300
C 	C 	0.69980 0.93850 0.42180 -0.18300
H 	H 	0.74260 0.94750 0.39930 0.10300
C 	C 	0.67700 0.87780 0.44430 0.06000
N 	N 	0.59650 0.54364 0.03280 -0.23900
C 	C 	0.71490 0.68760 0.05860 0.01500
C 	C 	0.67990 0.74800 0.06040 -0.06000
H 	H 	0.63080 0.74730 0.06230 0.04400
C 	C 	0.71540 0.81310 0.05970 -0.04600
H 	H 	0.69050 0.85550 0.05990 0.04300
C 	C 	0.61340 0.61160 0.02750 -0.01500
H 	H 	0.58510 0.64640 0.00730 0.01100
C 	C 	0.64930 0.51420 0.06250 0.06300
H 	H 	0.65240 0.46610 0.07220 -0.00700
C 	C 	0.69980 0.56150 0.07820 -0.11900
H 	H 	0.74260 0.55250 0.10070 0.06500
C 	C 	0.67700 0.62220 0.05570 0.01900
N 	N 	0.46720 0.90350 0.54364 -0.22100
C 	C 	0.44140 0.78510 0.68760 0.02300
C 	C 	0.43960 0.82010 0.74800 -0.06000
H 	H 	0.43770 0.86920 0.74730 0.05800
C 	C 	0.44030 0.78460 0.81310 -0.03700
H 	H 	0.44010 0.80950 0.85550 0.05100
C 	C 	0.47250 0.88660 0.61160 -0.00900
H 	H 	0.49270 0.91490 0.64640 0.03800
C 	C 	0.43750 0.85070 0.51420 0.06800
H 	H 	0.42780 0.84760 0.46610 -0.00200
C 	C 	0.42180 0.80020 0.56150 -0.11600
H 	H 	0.39930 0.75740 0.55250 0.06600
C 	C 	0.44430 0.82300 0.62220 0.02400
N 	N 	0.03280 0.90350 0.95636 -0.23300
C 	C 	0.05860 0.78510 0.81240 -0.00100
C 	C 	0.06040 0.82010 0.75200 -0.04600
H 	H 	0.06230 0.86920 0.75270 0.04600
C 	C 	0.05970 0.78460 0.68690 -0.06000
H 	H 	0.05990 0.80950 0.64450 0.04700
C 	C 	0.02750 0.88660 0.88840 -0.02400
H 	H 	0.00730 0.91490 0.85360 0.03100
C 	C 	0.06250 0.85070 0.98580 0.18200
H 	H 	0.07220 0.84760 0.03390 -0.07400
C 	C 	0.07820 0.80020 0.93850 -0.18100
H 	H 	0.10070 0.75740 0.94750 0.09700
C 	C 	0.05570 0.82300 0.87780 0.05400
N 	N 	0.46720 0.59650 0.95636 -0.23700
C 	C 	0.44140 0.71490 0.81240 -0.00300
C 	C 	0.43960 0.67990 0.75200 -0.04000
H 	H 	0.43770 0.63080 0.75270 0.04200
C 	C 	0.44030 0.71540 0.68690 -0.06100
H 	H 	0.44010 0.69050 0.64450 0.04900
C 	C 	0.47250 0.61340 0.88840 -0.02300
H 	H 	0.49270 0.58510 0.85360 0.03100
C 	C 	0.43750 0.64930 0.98580 0.19100
H 	H 	0.42780 0.65240 0.03390 -0.07300
C 	C 	0.42180 0.69980 0.93850 -0.18300
H 	H 	0.39930 0.74260 0.94750 0.10300
C 	C 	0.44430 0.67700 0.87780 0.06000
N 	N 	0.03280 0.59650 0.54364 -0.23900
C 	C 	0.05860 0.71490 0.68760 0.01500
C 	C 	0.06040 0.67990 0.74800 -0.06000
H 	H 	0.06230 0.63080 0.74730 0.04400
C 	C 	0.05970 0.71540 0.81310 -0.04600
H 	H 	0.05990 0.69050 0.85550 0.04300
C 	C 	0.02750 0.61340 0.61160 -0.01500
H 	H 	0.00730 0.58510 0.64640 0.01100
C 	C 	0.06250 0.64930 0.51420 0.06300
H 	H 	0.07220 0.65240 0.46610 -0.00700
C 	C 	0.07820 0.69980 0.56150 -0.11900
H 	H 	0.10070 0.74260 0.55250 0.06500
C 	C 	0.05570 0.67700 0.62220 0.01900
Co	Co	0.50000 0.50000 -0.00000 1.09800
Co	Co	-0.00000 0.00000 -0.00000 1.05500
Co	Co	-0.00000 0.50000 0.50000 1.09800
Co	Co	0.50000 0.00000 0.50000 1.09800
