data_crystal

_cell_length_a 14.95800
_cell_length_b 14.95800
_cell_length_c 9.05000
_cell_angle_alpha 90.00000
_cell_angle_beta  90.00000
_cell_angle_gamma 90.00000

_symmetry_space_group_name_	'P 1'
_symmetry_space_group_name_H-M	'P 1'

loop_
_symmetry_equiv_pos_as_xyz
  x,y,z

loop_
_atom_site_label
_atom_site_type_symbol
_atom_site_fract_x
_atom_site_fract_y
_atom_site_fract_z
_atom_site_charge
Mn	Mn	0.50589 0.36823 0.57369 1.29600
Mn	Mn	0.62836 0.00618 0.37762 1.29000
Mn	Mn	0.98546 0.12389 0.55507 1.29500
Mn	Mn	0.12751 0.51370 0.38196 1.29300
P 	P 	0.34618 0.48575 0.43652 0.56600
P 	P 	0.49504 0.15023 0.51818 0.54500
P 	P 	0.84789 0.99793 0.41957 0.54000
P 	P 	0.65514 0.01171 0.01161 0.26400
O 	O 	0.38050 0.41410 0.54480 -0.45600
O 	O 	0.40070 0.57060 0.45120 -0.49600
O 	O 	0.35260 0.44710 0.28210 -0.50800
O 	O 	0.24940 0.50620 0.47750 -0.43200
O 	O 	0.50960 0.24690 0.46670 -0.42700
O 	O 	0.58580 0.10370 0.51880 -0.46800
O 	O 	0.45100 0.14740 0.66980 -0.48200
O 	O 	0.43380 0.11060 0.40070 -0.50200
O 	O 	0.75070 0.99040 0.47140 -0.42200
O 	O 	0.87440 0.09680 0.41910 -0.44700
O 	O 	0.85880 0.95270 0.27000 -0.50500
O 	O 	0.90430 0.95170 0.53740 -0.50000
O 	O 	0.64240 0.04800 0.16730 -0.49100
O 	O 	0.60580 0.06980 0.90160 -0.37500
O 	O 	0.75370 0.01880 0.96440 -0.27000
O 	O 	0.62460 0.91480 0.99740 -0.33600
Mn	Mn	0.49411 0.63177 0.57369 1.29500
Mn	Mn	0.37164 0.99382 0.37762 1.28900
Mn	Mn	0.01454 0.87611 0.55507 1.29400
Mn	Mn	0.87249 0.48630 0.38196 1.29200
P 	P 	0.65382 0.51425 0.43652 0.56500
P 	P 	0.50496 0.84977 0.51818 0.54400
P 	P 	0.15211 0.00207 0.41957 0.54000
P 	P 	0.34486 0.98829 0.01161 0.26400
O 	O 	0.61950 0.58590 0.54480 -0.45600
O 	O 	0.59930 0.42940 0.45120 -0.49600
O 	O 	0.64740 0.55290 0.28210 -0.50800
O 	O 	0.75060 0.49380 0.47750 -0.43200
O 	O 	0.49040 0.75310 0.46670 -0.42700
O 	O 	0.41420 0.89630 0.51880 -0.46800
O 	O 	0.54900 0.85260 0.66980 -0.48200
O 	O 	0.56620 0.88940 0.40070 -0.50200
O 	O 	0.24930 0.00960 0.47140 -0.42200
O 	O 	0.12560 0.90320 0.41910 -0.44700
O 	O 	0.14120 0.04730 0.27000 -0.50500
O 	O 	0.09570 0.04830 0.53740 -0.50000
O 	O 	0.35760 0.95200 0.16730 -0.49100
O 	O 	0.39420 0.93020 0.90160 -0.37500
O 	O 	0.24630 0.98120 0.96440 -0.27000
O 	O 	0.37540 0.08520 0.99740 -0.33600
Mn	Mn	0.63177 0.50589 0.07369 1.24500
Mn	Mn	0.99382 0.62836 0.87762 1.32200
Mn	Mn	0.87611 0.98546 0.05507 1.24500
Mn	Mn	0.48630 0.12751 0.88196 1.30100
P 	P 	0.51425 0.34618 0.93652 0.65600
P 	P 	0.84977 0.49504 0.01818 0.35600
P 	P 	0.00207 0.84789 0.91957 0.63200
P 	P 	0.98829 0.65514 0.51161 0.55000
O 	O 	0.58590 0.38050 0.04480 -0.57500
O 	O 	0.42940 0.40070 0.95120 -0.44500
O 	O 	0.55290 0.35260 0.78210 -0.47700
O 	O 	0.49380 0.24940 0.97750 -0.39700
O 	O 	0.75310 0.50960 0.96670 -0.27900
O 	O 	0.89630 0.58580 0.01880 -0.52200
O 	O 	0.85260 0.45100 0.16980 -0.48900
O 	O 	0.88940 0.43380 0.90070 -0.37600
O 	O 	0.00960 0.75070 0.97140 -0.37100
O 	O 	0.90320 0.87440 0.91910 -0.39900
O 	O 	0.04730 0.85880 0.77000 -0.47700
O 	O 	0.04830 0.90430 0.03740 -0.61300
O 	O 	0.95200 0.64240 0.66730 -0.47600
O 	O 	0.93020 0.60580 0.40160 -0.49200
O 	O 	0.98120 0.75370 0.46440 -0.42000
O 	O 	0.08520 0.62460 0.49740 -0.46800
Mn	Mn	0.36823 0.49411 0.07369 1.24500
Mn	Mn	0.00618 0.37164 0.87762 1.32200
Mn	Mn	0.12389 0.01454 0.05507 1.24500
Mn	Mn	0.51370 0.87249 0.88196 1.30100
P 	P 	0.48575 0.65382 0.93652 0.65600
P 	P 	0.15023 0.50496 0.01818 0.35600
P 	P 	0.99793 0.15211 0.91957 0.63200
P 	P 	0.01171 0.34486 0.51161 0.55000
O 	O 	0.41410 0.61950 0.04480 -0.57500
O 	O 	0.57060 0.59930 0.95120 -0.44500
O 	O 	0.44710 0.64740 0.78210 -0.47700
O 	O 	0.50620 0.75060 0.97750 -0.39700
O 	O 	0.24690 0.49040 0.96670 -0.27900
O 	O 	0.10370 0.41420 0.01880 -0.52200
O 	O 	0.14740 0.54900 0.16980 -0.48900
O 	O 	0.11060 0.56620 0.90070 -0.37600
O 	O 	0.99040 0.24930 0.97140 -0.37100
O 	O 	0.09680 0.12560 0.91910 -0.39900
O 	O 	0.95270 0.14120 0.77000 -0.47700
O 	O 	0.95170 0.09570 0.03740 -0.61300
O 	O 	0.04800 0.35760 0.66730 -0.47600
O 	O 	0.06980 0.39420 0.40160 -0.49200
O 	O 	0.01880 0.24630 0.46440 -0.42000
O 	O 	0.91480 0.37540 0.49740 -0.46800
