data_crystal

_cell_length_a 12.86600
_cell_length_b 12.77600
_cell_length_c 16.80200
_cell_angle_alpha 90.00000
_cell_angle_beta  105.30300
_cell_angle_gamma 90.00000

_symmetry_space_group_name_	'P 1'
_symmetry_space_group_name_H-M	'P 1'

loop_
_symmetry_equiv_pos_as_xyz
  x,y,z

loop_
_atom_site_label
_atom_site_type_symbol
_atom_site_fract_x
_atom_site_fract_y
_atom_site_fract_z
_atom_site_charge
Ag	Ag	0.08520 0.65692 0.90537 0.52100
Ag	Ag	0.14402 0.38866 0.02428 0.50400
N 	N 	0.28190 0.24670 0.63670 -0.15000
N 	N 	0.17360 0.24330 0.59530 -0.10600
N 	N 	0.19180 0.32750 0.70980 -0.10900
N 	N 	0.16760 0.37690 0.77600 -0.11000
N 	N 	0.13050 0.39940 0.89240 -0.17000
N 	N 	0.13100 0.49690 0.85530 -0.15900
N 	N 	0.42340 0.78020 0.33010 -0.16600
N 	N 	0.33400 0.79820 0.35960 -0.17200
N 	N 	0.28080 0.71970 0.24310 -0.11100
N 	N 	0.21500 0.67490 0.17250 -0.11000
N 	N 	0.12480 0.65280 0.04570 -0.17600
N 	N 	0.13290 0.55640 0.08740 -0.17000
C 	C 	0.15430 0.48080 0.78540 0.08900
H 	H 	0.16080 0.53240 0.74800 -0.00000
C 	C 	0.15310 0.32870 0.84350 0.08700
H 	H 	0.15820 0.25710 0.85350 -0.00800
C 	C 	0.28970 0.29800 0.70580 0.08600
H 	H 	0.35360 0.31150 0.74570 -0.00300
C 	C 	0.12060 0.29230 0.63950 0.08500
H 	H 	0.04630 0.30190 0.62570 0.00600
C 	C 	0.38750 0.73410 0.25870 0.09100
H 	H 	0.42950 0.71430 0.22390 -0.00400
C 	C 	0.24990 0.76210 0.30690 0.09100
H 	H 	0.17970 0.76480 0.31190 -0.00700
C 	C 	0.17460 0.72110 0.09830 0.08900
H 	H 	0.18180 0.79160 0.08700 -0.00700
C 	C 	0.18660 0.57280 0.16190 0.08700
H 	H 	0.20360 0.52200 0.20290 -0.00300
Ag	Ag	0.41480 0.15692 0.59463 0.52200
Ag	Ag	0.35598 0.88866 0.47572 0.50500
N 	N 	0.21810 0.74670 0.86330 -0.14900
N 	N 	0.32640 0.74330 0.90470 -0.10500
N 	N 	0.30820 0.82750 0.79020 -0.10800
N 	N 	0.33240 0.87690 0.72400 -0.10900
N 	N 	0.36950 0.89940 0.60760 -0.16900
N 	N 	0.36900 0.99690 0.64470 -0.15800
N 	N 	0.07660 0.28020 0.16990 -0.16500
N 	N 	0.16600 0.29820 0.14040 -0.17200
N 	N 	0.21920 0.21970 0.25690 -0.11100
N 	N 	0.28500 0.17490 0.32750 -0.11000
N 	N 	0.37520 0.15280 0.45430 -0.17700
N 	N 	0.36710 0.05640 0.41260 -0.17100
C 	C 	0.34570 0.98080 0.71460 0.08800
H 	H 	0.33920 0.03240 0.75200 0.00000
C 	C 	0.34690 0.82870 0.65650 0.08700
H 	H 	0.34180 0.75710 0.64650 -0.00800
C 	C 	0.21030 0.79800 0.79420 0.08600
H 	H 	0.14640 0.81150 0.75430 -0.00300
C 	C 	0.37940 0.79230 0.86050 0.08500
H 	H 	0.45370 0.80190 0.87430 0.00600
C 	C 	0.11250 0.23410 0.24130 0.09100
H 	H 	0.07050 0.21430 0.27610 -0.00400
C 	C 	0.25010 0.26210 0.19310 0.09100
H 	H 	0.32030 0.26480 0.18810 -0.00700
C 	C 	0.32540 0.22110 0.40170 0.08900
H 	H 	0.31820 0.29160 0.41300 -0.00700
C 	C 	0.31340 0.07280 0.33810 0.08700
H 	H 	0.29640 0.02200 0.29710 -0.00300
Ag	Ag	0.91480 0.34308 0.09463 0.52200
Ag	Ag	0.85598 0.61134 0.97572 0.50500
N 	N 	0.71810 0.75330 0.36330 -0.14900
N 	N 	0.82640 0.75670 0.40470 -0.10500
N 	N 	0.80820 0.67250 0.29020 -0.10800
N 	N 	0.83240 0.62310 0.22400 -0.10900
N 	N 	0.86950 0.60060 0.10760 -0.16900
N 	N 	0.86900 0.50310 0.14470 -0.15800
N 	N 	0.57660 0.21980 0.66990 -0.16600
N 	N 	0.66600 0.20180 0.64040 -0.17200
N 	N 	0.71920 0.28030 0.75690 -0.11100
N 	N 	0.78500 0.32510 0.82750 -0.11000
N 	N 	0.87520 0.34720 0.95430 -0.17600
N 	N 	0.86710 0.44360 0.91260 -0.17000
C 	C 	0.84570 0.51920 0.21460 0.08900
H 	H 	0.83920 0.46760 0.25200 -0.00000
C 	C 	0.84690 0.67130 0.15650 0.08700
H 	H 	0.84180 0.74290 0.14650 -0.00800
C 	C 	0.71030 0.70200 0.29420 0.08600
H 	H 	0.64640 0.68850 0.25430 -0.00300
C 	C 	0.87940 0.70770 0.36050 0.08500
H 	H 	0.95370 0.69810 0.37430 0.00600
C 	C 	0.61250 0.26590 0.74130 0.09100
H 	H 	0.57050 0.28570 0.77610 -0.00400
C 	C 	0.75010 0.23790 0.69310 0.09100
H 	H 	0.82030 0.23520 0.68810 -0.00700
C 	C 	0.82540 0.27890 0.90170 0.08900
H 	H 	0.81820 0.20840 0.91300 -0.00700
C 	C 	0.81340 0.42720 0.83810 0.08700
H 	H 	0.79640 0.47800 0.79710 -0.00300
Ag	Ag	0.58520 0.84308 0.40537 0.52200
Ag	Ag	0.64402 0.11134 0.52428 0.50500
N 	N 	0.78190 0.25330 0.13670 -0.14900
N 	N 	0.67360 0.25670 0.09530 -0.10500
N 	N 	0.69180 0.17250 0.20980 -0.10800
N 	N 	0.66760 0.12310 0.27600 -0.10900
N 	N 	0.63050 0.10060 0.39240 -0.16900
N 	N 	0.63100 0.00310 0.35530 -0.15800
N 	N 	0.92340 0.71980 0.83010 -0.16500
N 	N 	0.83400 0.70180 0.85960 -0.17200
N 	N 	0.78080 0.78030 0.74310 -0.11100
N 	N 	0.71500 0.82510 0.67250 -0.11000
N 	N 	0.62480 0.84720 0.54570 -0.17700
N 	N 	0.63290 0.94360 0.58740 -0.17100
C 	C 	0.65430 0.01920 0.28540 0.08800
H 	H 	0.66080 0.96760 0.24800 0.00000
C 	C 	0.65310 0.17130 0.34350 0.08700
H 	H 	0.65820 0.24290 0.35350 -0.00800
C 	C 	0.78970 0.20200 0.20580 0.08600
H 	H 	0.85360 0.18850 0.24570 -0.00300
C 	C 	0.62060 0.20770 0.13950 0.08500
H 	H 	0.54630 0.19810 0.12570 0.00600
C 	C 	0.88750 0.76590 0.75870 0.09100
H 	H 	0.92950 0.78570 0.72390 -0.00400
C 	C 	0.74990 0.73790 0.80690 0.09100
H 	H 	0.67970 0.73520 0.81190 -0.00700
C 	C 	0.67460 0.77890 0.59830 0.08900
H 	H 	0.68180 0.70840 0.58700 -0.00700
C 	C 	0.68660 0.92720 0.66190 0.08700
H 	H 	0.70360 0.97800 0.70290 -0.00300
