data_crystal

_cell_length_a 13.13380
_cell_length_b 13.13380
_cell_length_c 44.09300
_cell_angle_alpha 90.00000
_cell_angle_beta  90.00000
_cell_angle_gamma 90.00000

_symmetry_space_group_name_	'P 1'
_symmetry_space_group_name_H-M	'P 1'

loop_
_symmetry_equiv_pos_as_xyz
  x,y,z

loop_
_atom_site_label
_atom_site_type_symbol
_atom_site_fract_x
_atom_site_fract_y
_atom_site_fract_z
_atom_site_charge
Ag	Ag	0.11829 0.08075 0.18006 0.48900
N 	N 	0.33280 0.36250 0.25236 -0.10800
N 	N 	0.36820 0.45180 0.29232 -0.14500
N 	N 	0.43930 0.37960 0.28934 -0.16600
N 	N 	0.28310 0.32510 0.22738 -0.10900
N 	N 	0.19080 0.22560 0.19934 -0.16200
N 	N 	0.22870 0.30140 0.18118 -0.12000
C 	C 	0.30290 0.44640 0.26890 0.06600
H 	H 	0.24900 0.49010 0.26470 0.00800
C 	C 	0.41610 0.32580 0.26580 0.09100
H 	H 	0.45250 0.26930 0.25910 -0.01100
C 	C 	0.28750 0.35870 0.19816 0.07600
H 	H 	0.32610 0.41340 0.19130 0.00200
C 	C 	0.22280 0.24080 0.22623 0.08800
H 	H 	0.20710 0.19990 0.24280 -0.00700
Ag	Ag	0.88171 0.91925 0.18006 0.49000
N 	N 	0.66720 0.63750 0.25236 -0.10700
N 	N 	0.63180 0.54820 0.29232 -0.14400
N 	N 	0.56070 0.62040 0.28934 -0.16500
N 	N 	0.71690 0.67490 0.22738 -0.10800
N 	N 	0.80920 0.77440 0.19934 -0.16100
N 	N 	0.77130 0.69860 0.18118 -0.11900
C 	C 	0.69710 0.55360 0.26890 0.06700
H 	H 	0.75100 0.50990 0.26470 0.00800
C 	C 	0.58390 0.67420 0.26580 0.09100
H 	H 	0.54750 0.73070 0.25910 -0.01100
C 	C 	0.71250 0.64130 0.19816 0.07600
H 	H 	0.67390 0.58660 0.19130 0.00200
C 	C 	0.77720 0.75920 0.22623 0.08800
H 	H 	0.79290 0.80010 0.24280 -0.00700
Ag	Ag	0.58075 0.38171 0.31994 0.49000
N 	N 	0.86250 0.16720 0.24764 -0.10700
N 	N 	0.95180 0.13180 0.20768 -0.14400
N 	N 	0.87960 0.06070 0.21066 -0.16500
N 	N 	0.82510 0.21690 0.27262 -0.10800
N 	N 	0.72560 0.30920 0.30066 -0.16100
N 	N 	0.80140 0.27130 0.31882 -0.11900
C 	C 	0.94640 0.19710 0.23110 0.06700
H 	H 	0.99010 0.25100 0.23530 0.00800
C 	C 	0.82580 0.08390 0.23420 0.09100
H 	H 	0.76930 0.04750 0.24090 -0.01000
C 	C 	0.85870 0.21250 0.30184 0.07600
H 	H 	0.91340 0.17390 0.30870 0.00200
C 	C 	0.74080 0.27720 0.27377 0.08800
H 	H 	0.69990 0.29290 0.25720 -0.00700
Ag	Ag	0.41925 0.61829 0.31994 0.49000
N 	N 	0.13750 0.83280 0.24764 -0.10700
N 	N 	0.04820 0.86820 0.20768 -0.14400
N 	N 	0.12040 0.93930 0.21066 -0.16500
N 	N 	0.17490 0.78310 0.27262 -0.10800
N 	N 	0.27440 0.69080 0.30066 -0.16100
N 	N 	0.19860 0.72870 0.31882 -0.11900
C 	C 	0.05360 0.80290 0.23110 0.06700
H 	H 	0.00990 0.74900 0.23530 0.00800
C 	C 	0.17420 0.91610 0.23420 0.09100
H 	H 	0.23070 0.95250 0.24090 -0.01000
C 	C 	0.14130 0.78750 0.30184 0.07600
H 	H 	0.08660 0.82610 0.30870 0.00200
C 	C 	0.25920 0.72280 0.27377 0.08800
H 	H 	0.30010 0.70710 0.25720 -0.00700
Ag	Ag	0.61829 0.58075 0.68006 0.49000
N 	N 	0.83280 0.86250 0.75236 -0.10700
N 	N 	0.86820 0.95180 0.79232 -0.14400
N 	N 	0.93930 0.87960 0.78934 -0.16500
N 	N 	0.78310 0.82510 0.72738 -0.10800
N 	N 	0.69080 0.72560 0.69934 -0.16100
N 	N 	0.72870 0.80140 0.68118 -0.11900
C 	C 	0.80290 0.94640 0.76890 0.06700
H 	H 	0.74900 0.99010 0.76470 0.00800
C 	C 	0.91610 0.82580 0.76580 0.09100
H 	H 	0.95250 0.76930 0.75910 -0.01000
C 	C 	0.78750 0.85870 0.69816 0.07600
H 	H 	0.82610 0.91340 0.69130 0.00200
C 	C 	0.72280 0.74080 0.72623 0.08800
H 	H 	0.70710 0.69990 0.74280 -0.00700
Ag	Ag	0.38171 0.41925 0.68006 0.49000
N 	N 	0.16720 0.13750 0.75236 -0.10700
N 	N 	0.13180 0.04820 0.79232 -0.14400
N 	N 	0.06070 0.12040 0.78934 -0.16500
N 	N 	0.21690 0.17490 0.72738 -0.10800
N 	N 	0.30920 0.27440 0.69934 -0.16100
N 	N 	0.27130 0.19860 0.68118 -0.11900
C 	C 	0.19710 0.05360 0.76890 0.06700
H 	H 	0.25100 0.00990 0.76470 0.00800
C 	C 	0.08390 0.17420 0.76580 0.09100
H 	H 	0.04750 0.23070 0.75910 -0.01000
C 	C 	0.21250 0.14130 0.69816 0.07600
H 	H 	0.17390 0.08660 0.69130 0.00200
C 	C 	0.27720 0.25920 0.72623 0.08800
H 	H 	0.29290 0.30010 0.74280 -0.00700
Ag	Ag	0.08075 0.88171 0.81994 0.49000
N 	N 	0.36250 0.66720 0.74764 -0.10700
N 	N 	0.45180 0.63180 0.70768 -0.14400
N 	N 	0.37960 0.56070 0.71066 -0.16500
N 	N 	0.32510 0.71690 0.77262 -0.10800
N 	N 	0.22560 0.80920 0.80066 -0.16100
N 	N 	0.30140 0.77130 0.81882 -0.11900
C 	C 	0.44640 0.69710 0.73110 0.06700
H 	H 	0.49010 0.75100 0.73530 0.00800
C 	C 	0.32580 0.58390 0.73420 0.09100
H 	H 	0.26930 0.54750 0.74090 -0.01100
C 	C 	0.35870 0.71250 0.80184 0.07600
H 	H 	0.41340 0.67390 0.80870 0.00200
C 	C 	0.24080 0.77720 0.77377 0.08800
H 	H 	0.19990 0.79290 0.75720 -0.00700
Ag	Ag	0.91925 0.11829 0.81994 0.49000
N 	N 	0.63750 0.33280 0.74764 -0.10700
N 	N 	0.54820 0.36820 0.70768 -0.14400
N 	N 	0.62040 0.43930 0.71066 -0.16500
N 	N 	0.67490 0.28310 0.77262 -0.10800
N 	N 	0.77440 0.19080 0.80066 -0.16100
N 	N 	0.69860 0.22870 0.81882 -0.11900
C 	C 	0.55360 0.30290 0.73110 0.06700
H 	H 	0.50990 0.24900 0.73530 0.00800
C 	C 	0.67420 0.41610 0.73420 0.09100
H 	H 	0.73070 0.45250 0.74090 -0.01100
C 	C 	0.64130 0.28750 0.80184 0.07600
H 	H 	0.58660 0.32610 0.80870 0.00200
C 	C 	0.75920 0.22280 0.77377 0.08800
H 	H 	0.80010 0.20710 0.75720 -0.00700
Ag	Ag	0.38171 0.08075 0.56994 0.49000
N 	N 	0.16720 0.36250 0.49764 -0.10700
N 	N 	0.13180 0.45180 0.45768 -0.14400
N 	N 	0.06070 0.37960 0.46066 -0.16500
N 	N 	0.21690 0.32510 0.52262 -0.10800
N 	N 	0.30920 0.22560 0.55066 -0.16100
N 	N 	0.27130 0.30140 0.56882 -0.11900
C 	C 	0.19710 0.44640 0.48110 0.06700
H 	H 	0.25100 0.49010 0.48530 0.00800
C 	C 	0.08390 0.32580 0.48420 0.09100
H 	H 	0.04750 0.26930 0.49090 -0.01000
C 	C 	0.21250 0.35870 0.55184 0.07600
H 	H 	0.17390 0.41340 0.55870 0.00200
C 	C 	0.27720 0.24080 0.52377 0.08800
H 	H 	0.29290 0.19990 0.50720 -0.00700
Ag	Ag	0.61829 0.91925 0.56994 0.49000
N 	N 	0.83280 0.63750 0.49764 -0.10700
N 	N 	0.86820 0.54820 0.45768 -0.14400
N 	N 	0.93930 0.62040 0.46066 -0.16500
N 	N 	0.78310 0.67490 0.52262 -0.10800
N 	N 	0.69080 0.77440 0.55066 -0.16100
N 	N 	0.72870 0.69860 0.56882 -0.11900
C 	C 	0.80290 0.55360 0.48110 0.06700
H 	H 	0.74900 0.50990 0.48530 0.00800
C 	C 	0.91610 0.67420 0.48420 0.09100
H 	H 	0.95250 0.73070 0.49090 -0.01000
C 	C 	0.78750 0.64130 0.55184 0.07600
H 	H 	0.82610 0.58660 0.55870 0.00200
C 	C 	0.72280 0.75920 0.52377 0.08800
H 	H 	0.70710 0.80010 0.50720 -0.00700
Ag	Ag	0.91925 0.38171 0.43006 0.49000
N 	N 	0.63750 0.16720 0.50236 -0.10700
N 	N 	0.54820 0.13180 0.54232 -0.14400
N 	N 	0.62040 0.06070 0.53934 -0.16500
N 	N 	0.67490 0.21690 0.47738 -0.10800
N 	N 	0.77440 0.30920 0.44934 -0.16100
N 	N 	0.69860 0.27130 0.43118 -0.11900
C 	C 	0.55360 0.19710 0.51890 0.06700
H 	H 	0.50990 0.25100 0.51470 0.00800
C 	C 	0.67420 0.08390 0.51580 0.09100
H 	H 	0.73070 0.04750 0.50910 -0.01000
C 	C 	0.64130 0.21250 0.44816 0.07600
H 	H 	0.58660 0.17390 0.44130 0.00200
C 	C 	0.75920 0.27720 0.47623 0.08800
H 	H 	0.80010 0.29290 0.49280 -0.00700
Ag	Ag	0.08075 0.61829 0.43006 0.49000
N 	N 	0.36250 0.83280 0.50236 -0.10700
N 	N 	0.45180 0.86820 0.54232 -0.14400
N 	N 	0.37960 0.93930 0.53934 -0.16500
N 	N 	0.32510 0.78310 0.47738 -0.10800
N 	N 	0.22560 0.69080 0.44934 -0.16100
N 	N 	0.30140 0.72870 0.43118 -0.11900
C 	C 	0.44640 0.80290 0.51890 0.06700
H 	H 	0.49010 0.74900 0.51470 0.00800
C 	C 	0.32580 0.91610 0.51580 0.09100
H 	H 	0.26930 0.95250 0.50910 -0.01000
C 	C 	0.35870 0.78750 0.44816 0.07600
H 	H 	0.41340 0.82610 0.44130 0.00200
C 	C 	0.24080 0.72280 0.47623 0.08800
H 	H 	0.19990 0.70710 0.49280 -0.00700
Ag	Ag	0.88171 0.58075 0.06994 0.49000
N 	N 	0.66720 0.86250 0.99764 -0.10700
N 	N 	0.63180 0.95180 0.95768 -0.14400
N 	N 	0.56070 0.87960 0.96066 -0.16500
N 	N 	0.71690 0.82510 0.02262 -0.10800
N 	N 	0.80920 0.72560 0.05066 -0.16100
N 	N 	0.77130 0.80140 0.06882 -0.11900
C 	C 	0.69710 0.94640 0.98110 0.06700
H 	H 	0.75100 0.99010 0.98530 0.00800
C 	C 	0.58390 0.82580 0.98420 0.09100
H 	H 	0.54750 0.76930 0.99090 -0.01100
C 	C 	0.71250 0.85870 0.05184 0.07600
H 	H 	0.67390 0.91340 0.05870 0.00200
C 	C 	0.77720 0.74080 0.02377 0.08800
H 	H 	0.79290 0.69990 0.00720 -0.00700
Ag	Ag	0.11829 0.41925 0.06994 0.49000
N 	N 	0.33280 0.13750 0.99764 -0.10700
N 	N 	0.36820 0.04820 0.95768 -0.14400
N 	N 	0.43930 0.12040 0.96066 -0.16500
N 	N 	0.28310 0.17490 0.02262 -0.10800
N 	N 	0.19080 0.27440 0.05066 -0.16100
N 	N 	0.22870 0.19860 0.06882 -0.11900
C 	C 	0.30290 0.05360 0.98110 0.06700
H 	H 	0.24900 0.00990 0.98530 0.00800
C 	C 	0.41610 0.17420 0.98420 0.09100
H 	H 	0.45250 0.23070 0.99090 -0.01100
C 	C 	0.28750 0.14130 0.05184 0.07600
H 	H 	0.32610 0.08660 0.05870 0.00200
C 	C 	0.22280 0.25920 0.02377 0.08800
H 	H 	0.20710 0.30010 0.00720 -0.00700
Ag	Ag	0.41925 0.88171 0.93006 0.49000
N 	N 	0.13750 0.66720 0.00236 -0.10700
N 	N 	0.04820 0.63180 0.04232 -0.14400
N 	N 	0.12040 0.56070 0.03934 -0.16500
N 	N 	0.17490 0.71690 0.97738 -0.10800
N 	N 	0.27440 0.80920 0.94934 -0.16100
N 	N 	0.19860 0.77130 0.93118 -0.11900
C 	C 	0.05360 0.69710 0.01890 0.06700
H 	H 	0.00990 0.75100 0.01470 0.00800
C 	C 	0.17420 0.58390 0.01580 0.09100
H 	H 	0.23070 0.54750 0.00910 -0.01100
C 	C 	0.14130 0.71250 0.94816 0.07600
H 	H 	0.08660 0.67390 0.94130 0.00200
C 	C 	0.25920 0.77720 0.97623 0.08800
H 	H 	0.30010 0.79290 0.99280 -0.00700
Ag	Ag	0.58075 0.11829 0.93006 0.49000
N 	N 	0.86250 0.33280 0.00236 -0.10700
N 	N 	0.95180 0.36820 0.04232 -0.14400
N 	N 	0.87960 0.43930 0.03934 -0.16500
N 	N 	0.82510 0.28310 0.97738 -0.10800
N 	N 	0.72560 0.19080 0.94934 -0.16100
N 	N 	0.80140 0.22870 0.93118 -0.11900
C 	C 	0.94640 0.30290 0.01890 0.06700
H 	H 	0.99010 0.24900 0.01470 0.00800
C 	C 	0.82580 0.41610 0.01580 0.09100
H 	H 	0.76930 0.45250 0.00910 -0.01100
C 	C 	0.85870 0.28750 0.94816 0.07600
H 	H 	0.91340 0.32610 0.94130 0.00200
C 	C 	0.74080 0.22280 0.97623 0.08800
H 	H 	0.69990 0.20710 0.99280 -0.00700
