data_crystal

_cell_length_a 13.19900
_cell_length_b 13.64500
_cell_length_c 20.03300
_cell_angle_alpha 90.00000
_cell_angle_beta  90.00000
_cell_angle_gamma 90.00000

_symmetry_space_group_name_	'P 1'
_symmetry_space_group_name_H-M	'P 1'

loop_
_symmetry_equiv_pos_as_xyz
  x,y,z

loop_
_atom_site_label
_atom_site_type_symbol
_atom_site_fract_x
_atom_site_fract_y
_atom_site_fract_z
_atom_site_charge
Cd	Cd	0.13371 0.56158 0.64890 1.19800
Cd	Cd	0.36629 0.56158 0.35110 1.20000
Cd	Cd	0.36629 0.06158 0.14890 1.19900
Cd	Cd	0.13371 0.06158 0.85110 1.19900
H 	H 	0.79350 0.16170 0.73310 0.08000
H 	H 	0.90910 0.06220 0.78430 0.01700
H 	H 	0.12490 0.25070 0.75390 0.01100
H 	H 	0.42490 0.95380 0.00640 0.00800
H 	H 	0.39900 0.87230 0.05900 0.02600
H 	H 	0.30210 0.07840 0.98120 0.01800
H 	H 	0.34070 0.95390 0.90040 0.03300
H 	H 	0.26040 0.87230 0.88410 0.03500
H 	H 	0.22150 0.75480 0.96580 0.03600
H 	H 	0.70650 0.16170 0.26690 0.08000
H 	H 	0.59090 0.06220 0.21570 0.01700
H 	H 	0.37510 0.25070 0.24610 0.01000
H 	H 	0.07510 0.95380 0.99360 0.00800
H 	H 	0.10100 0.87230 0.94100 0.02700
H 	H 	0.19790 0.07840 0.01880 0.01900
H 	H 	0.15930 0.95390 0.09960 0.03400
H 	H 	0.23960 0.87230 0.11590 0.03500
H 	H 	0.27850 0.75480 0.03420 0.03700
H 	H 	0.70650 0.66170 0.23310 0.07900
H 	H 	0.59090 0.56220 0.28430 0.01700
H 	H 	0.37510 0.75070 0.25390 0.01000
H 	H 	0.07510 0.45380 0.50640 0.00800
H 	H 	0.10100 0.37230 0.55900 0.02600
H 	H 	0.19790 0.57840 0.48120 0.02000
H 	H 	0.15930 0.45390 0.40040 0.03200
H 	H 	0.23960 0.37230 0.38410 0.03500
H 	H 	0.27850 0.25480 0.46580 0.03800
H 	H 	0.79350 0.66170 0.76690 0.08000
H 	H 	0.90910 0.56220 0.71570 0.01700
H 	H 	0.12490 0.75070 0.74610 0.01000
H 	H 	0.42490 0.45380 0.49360 0.00800
H 	H 	0.39900 0.37230 0.44100 0.02700
H 	H 	0.30210 0.57840 0.51880 0.02000
H 	H 	0.34070 0.45390 0.59960 0.03200
H 	H 	0.26040 0.37230 0.61590 0.03500
H 	H 	0.22150 0.25480 0.53420 0.03800
C 	C 	0.03710 0.88790 0.81300 0.31700
C 	C 	0.99470 0.79660 0.78390 -0.09000
C 	C 	0.88980 0.77170 0.78830 0.00600
C 	C 	0.80880 0.33900 0.68590 0.28700
C 	C 	0.86060 0.68190 0.76310 -0.09100
C 	C 	0.93060 0.62240 0.73230 0.05400
C 	C 	0.05730 0.23320 0.74900 0.05400
C 	C 	0.12940 0.91380 0.97570 -0.00400
C 	C 	0.21240 0.91330 0.08060 -0.02400
C 	C 	0.46290 0.88790 0.18700 0.31700
C 	C 	0.50530 0.79660 0.21610 -0.09100
C 	C 	0.61020 0.77170 0.21170 0.00600
C 	C 	0.69120 0.33900 0.31410 0.28600
C 	C 	0.63940 0.68190 0.23690 -0.09100
C 	C 	0.56940 0.62240 0.26770 0.05300
C 	C 	0.44270 0.23320 0.25100 0.05900
C 	C 	0.37060 0.91380 0.02430 -0.00100
C 	C 	0.28760 0.91330 0.91940 -0.02400
C 	C 	0.46290 0.38790 0.31300 0.31700
C 	C 	0.50530 0.29660 0.28390 -0.09100
C 	C 	0.61020 0.27170 0.28830 0.00600
C 	C 	0.69120 0.83900 0.18590 0.28600
C 	C 	0.63940 0.18190 0.26310 -0.09100
C 	C 	0.56940 0.12240 0.23230 0.05300
C 	C 	0.44270 0.73320 0.24900 0.05900
C 	C 	0.37060 0.41380 0.47570 -0.00200
C 	C 	0.28760 0.41330 0.58060 -0.02400
C 	C 	0.03710 0.38790 0.68700 0.31200
C 	C 	0.99470 0.29660 0.71610 -0.08500
C 	C 	0.88980 0.27170 0.71170 0.00500
C 	C 	0.80880 0.83900 0.81410 0.28600
C 	C 	0.86060 0.18190 0.73690 -0.09100
C 	C 	0.93060 0.12240 0.76770 0.05600
C 	C 	0.05730 0.73320 0.75100 0.05800
C 	C 	0.12940 0.41380 0.52430 -0.00200
C 	C 	0.21240 0.41330 0.41940 -0.02400
C 	C 	0.25000 0.03660 -0.00000 -0.00800
C 	C 	0.25000 0.79680 -0.00000 0.01600
C 	C 	0.25000 0.53660 0.50000 -0.00900
C 	C 	0.25000 0.29680 0.50000 0.01200
N 	N 	0.02700 0.64670 0.72530 -0.22500
N 	N 	0.20590 0.97660 0.94690 -0.18500
N 	N 	0.17060 0.85240 0.02870 -0.10400
N 	N 	0.47300 0.64670 0.27470 -0.22400
N 	N 	0.29410 0.97660 0.05310 -0.18400
N 	N 	0.32940 0.85240 0.97130 -0.10700
N 	N 	0.47300 0.14670 0.22530 -0.22400
N 	N 	0.29410 0.47660 0.44690 -0.18500
N 	N 	0.32940 0.35240 0.52870 -0.10500
N 	N 	0.02700 0.14670 0.77470 -0.22600
N 	N 	0.20590 0.47660 0.55310 -0.18500
N 	N 	0.17060 0.35240 0.47130 -0.10500
O 	O 	0.12590 0.91310 0.79600 -0.38900
O 	O 	0.98560 0.43860 0.64790 -0.36000
O 	O 	0.76820 0.31390 0.63070 -0.35800
O 	O 	0.78010 0.40870 0.71970 -0.35700
O 	O 	0.37410 0.91310 0.20400 -0.38900
O 	O 	0.51440 0.43860 0.35210 -0.36200
O 	O 	0.73180 0.31390 0.36930 -0.35800
O 	O 	0.71990 0.40870 0.28030 -0.35700
O 	O 	0.37410 0.41310 0.29600 -0.38900
O 	O 	0.51440 0.93860 0.14790 -0.36200
O 	O 	0.73180 0.81390 0.13070 -0.35900
O 	O 	0.71990 0.90870 0.21970 -0.35700
O 	O 	0.12590 0.41310 0.70400 -0.38800
O 	O 	0.98560 0.93860 0.85210 -0.36200
O 	O 	0.76820 0.81390 0.86930 -0.35800
O 	O 	0.78010 0.90870 0.78030 -0.35700
Cd	Cd	0.63371 0.93842 0.85110 1.19900
Cd	Cd	0.86629 0.93842 0.14890 1.19900
Cd	Cd	0.86629 0.43842 0.35110 1.19900
Cd	Cd	0.63371 0.43842 0.64890 1.20000
H 	H 	0.29350 0.33830 0.76690 0.07900
H 	H 	0.40910 0.43780 0.71570 0.01700
H 	H 	0.62490 0.24930 0.74610 0.01000
H 	H 	0.92490 0.54620 0.49360 0.00800
H 	H 	0.89900 0.62770 0.44100 0.02600
H 	H 	0.80210 0.42160 0.51880 0.02000
H 	H 	0.84070 0.54610 0.59960 0.03200
H 	H 	0.76040 0.62770 0.61590 0.03500
H 	H 	0.72150 0.74520 0.53420 0.03800
H 	H 	0.20650 0.33830 0.23310 0.08000
H 	H 	0.09090 0.43780 0.28430 0.01700
H 	H 	0.87510 0.24930 0.25390 0.01000
H 	H 	0.57510 0.54620 0.50640 0.00800
H 	H 	0.60100 0.62770 0.55900 0.02700
H 	H 	0.69790 0.42160 0.48120 0.02000
H 	H 	0.65930 0.54610 0.40040 0.03200
H 	H 	0.73960 0.62770 0.38410 0.03500
H 	H 	0.77850 0.74520 0.46580 0.03800
H 	H 	0.20650 0.83830 0.26690 0.08000
H 	H 	0.09090 0.93780 0.21570 0.01700
H 	H 	0.87510 0.74930 0.24610 0.01100
H 	H 	0.57510 0.04620 0.99360 0.00800
H 	H 	0.60100 0.12770 0.94100 0.02700
H 	H 	0.69790 0.92160 0.01880 0.02100
H 	H 	0.65930 0.04610 0.09960 0.03300
H 	H 	0.73960 0.12770 0.11590 0.03500
H 	H 	0.77850 0.24520 0.03420 0.03900
H 	H 	0.29350 0.83830 0.73310 0.08000
H 	H 	0.40910 0.93780 0.78430 0.01700
H 	H 	0.62490 0.74930 0.75390 0.01000
H 	H 	0.92490 0.04620 0.00640 0.00800
H 	H 	0.89900 0.12770 0.05900 0.02700
H 	H 	0.80210 0.92160 0.98120 0.02200
H 	H 	0.84070 0.04610 0.90040 0.03300
H 	H 	0.76040 0.12770 0.88410 0.03500
H 	H 	0.72150 0.24520 0.96580 0.04100
C 	C 	0.53710 0.61210 0.68700 0.31700
C 	C 	0.49470 0.70340 0.71610 -0.09100
C 	C 	0.38980 0.72830 0.71170 0.00600
C 	C 	0.30880 0.16100 0.81410 0.28600
C 	C 	0.36060 0.81810 0.73690 -0.09100
C 	C 	0.43060 0.87760 0.76770 0.05300
C 	C 	0.55730 0.26680 0.75100 0.05900
C 	C 	0.62940 0.58620 0.52430 -0.00200
C 	C 	0.71240 0.58670 0.41940 -0.02400
C 	C 	0.96290 0.61210 0.31300 0.31200
C 	C 	0.00530 0.70340 0.28390 -0.08500
C 	C 	0.11020 0.72830 0.28830 0.00500
C 	C 	0.19120 0.16100 0.18590 0.28600
C 	C 	0.13940 0.81810 0.26310 -0.09100
C 	C 	0.06940 0.87760 0.23230 0.05600
C 	C 	0.94270 0.26680 0.24900 0.05800
C 	C 	0.87060 0.58620 0.47570 -0.00200
C 	C 	0.78760 0.58670 0.58060 -0.02400
C 	C 	0.96290 0.11210 0.18700 0.31700
C 	C 	0.00530 0.20340 0.21610 -0.09000
C 	C 	0.11020 0.22830 0.21170 0.00600
C 	C 	0.19120 0.66100 0.31410 0.28700
C 	C 	0.13940 0.31810 0.23690 -0.09100
C 	C 	0.06940 0.37760 0.26770 0.05400
C 	C 	0.94270 0.76680 0.25100 0.05300
C 	C 	0.87060 0.08620 0.02430 -0.00400
C 	C 	0.78760 0.08670 0.91940 -0.02400
C 	C 	0.53710 0.11210 0.81300 0.31700
C 	C 	0.49470 0.20340 0.78390 -0.09100
C 	C 	0.38980 0.22830 0.78830 0.00600
C 	C 	0.30880 0.66100 0.68590 0.28600
C 	C 	0.36060 0.31810 0.76310 -0.09100
C 	C 	0.43060 0.37760 0.73230 0.05300
C 	C 	0.55730 0.76680 0.74900 0.05900
C 	C 	0.62940 0.08620 0.97570 -0.00200
C 	C 	0.71240 0.08670 0.08060 -0.02400
C 	C 	0.75000 0.46340 0.50000 -0.00900
C 	C 	0.75000 0.70320 0.50000 0.01200
C 	C 	0.75000 0.96340 -0.00000 -0.01600
C 	C 	0.75000 0.20320 -0.00000 0.00600
N 	N 	0.52700 0.85330 0.77470 -0.22400
N 	N 	0.70590 0.52340 0.55310 -0.18500
N 	N 	0.67060 0.64760 0.47130 -0.10500
N 	N 	0.97300 0.85330 0.22530 -0.22600
N 	N 	0.79410 0.52340 0.44690 -0.18500
N 	N 	0.82940 0.64760 0.52870 -0.10500
N 	N 	0.97300 0.35330 0.27470 -0.22500
N 	N 	0.79410 0.02340 0.05310 -0.18300
N 	N 	0.82940 0.14760 0.97130 -0.10300
N 	N 	0.52700 0.35330 0.72530 -0.22400
N 	N 	0.70590 0.02340 0.94690 -0.18300
N 	N 	0.67060 0.14760 0.02870 -0.10500
O 	O 	0.62590 0.58690 0.70400 -0.38900
O 	O 	0.48560 0.06140 0.85210 -0.36200
O 	O 	0.26820 0.18610 0.86930 -0.35900
O 	O 	0.28010 0.09130 0.78030 -0.35700
O 	O 	0.87410 0.58690 0.29600 -0.38800
O 	O 	0.01440 0.06140 0.14790 -0.36200
O 	O 	0.23180 0.18610 0.13070 -0.35800
O 	O 	0.21990 0.09130 0.21970 -0.35700
O 	O 	0.87410 0.08690 0.20400 -0.38900
O 	O 	0.01440 0.56140 0.35210 -0.36000
O 	O 	0.23180 0.68610 0.36930 -0.35800
O 	O 	0.21990 0.59130 0.28030 -0.35700
O 	O 	0.62590 0.08690 0.79600 -0.38900
O 	O 	0.48560 0.56140 0.64790 -0.36200
O 	O 	0.26820 0.68610 0.63070 -0.35800
O 	O 	0.28010 0.59130 0.71970 -0.35700
