data_crystal

_cell_length_a 14.08400
_cell_length_b 21.63200
_cell_length_c 25.79400
_cell_angle_alpha 106.27000
_cell_angle_beta  90.00000
_cell_angle_gamma 90.00000

_symmetry_space_group_name_	'P 1'
_symmetry_space_group_name_H-M	'P 1'

loop_
_symmetry_equiv_pos_as_xyz
  x,y,z

loop_
_atom_site_label
_atom_site_type_symbol
_atom_site_fract_x
_atom_site_fract_y
_atom_site_fract_z
_atom_site_charge
Zn	Zn	0.87154 0.61010 0.71156 1.20700
Zn	Zn	0.37719 0.88139 0.77370 1.19000
Zn	Zn	0.37167 0.57550 0.60070 1.18800
Zn	Zn	0.85770 0.91621 0.87629 1.18700
Zn	Zn	0.37154 0.38990 0.78844 1.20700
Zn	Zn	0.87719 0.11861 0.72630 1.18900
Zn	Zn	0.87167 0.42450 0.89930 1.18800
Zn	Zn	0.35770 0.08379 0.62371 1.18700
Zn	Zn	0.12846 0.38990 0.28844 1.20700
Zn	Zn	0.62281 0.11861 0.22630 1.19000
Zn	Zn	0.62833 0.42450 0.39930 1.18800
Zn	Zn	0.14230 0.08379 0.12371 1.18700
Zn	Zn	0.62846 0.61010 0.21156 1.20700
Zn	Zn	0.12281 0.88139 0.27370 1.18900
Zn	Zn	0.12833 0.57550 0.10070 1.18800
Zn	Zn	0.64230 0.91621 0.37629 1.18700
H 	H 	0.66950 0.58190 0.66270 0.00900
H 	H 	0.66560 0.43850 0.76190 0.06400
H 	H 	0.79950 0.49570 0.75600 0.03300
H 	H 	0.07540 0.60160 0.66890 0.01400
H 	H 	0.08300 0.81400 0.76200 0.06500
H 	H 	0.94520 0.75180 0.75800 0.03300
H 	H 	0.19450 0.91330 0.83340 -0.00800
H 	H 	0.15500 0.03100 0.71300 0.06500
H 	H 	0.29130 0.97620 0.71680 0.00200
H 	H 	0.57550 0.88010 0.80900 -0.00500
H 	H 	0.58130 0.69040 0.67670 0.07600
H 	H 	0.44520 0.74920 0.69780 0.01900
H 	H 	0.90300 0.47990 0.63360 -0.00200
H 	H 	0.96800 0.43310 0.55080 0.07500
H 	H 	0.97120 0.60630 0.52390 0.07600
H 	H 	0.90540 0.64770 0.60730 0.00800
H 	H 	0.62930 0.77080 0.35820 0.00100
H 	H 	0.57130 0.69910 0.40010 0.09700
H 	H 	0.50750 0.63310 0.43860 0.08500
H 	H 	0.44660 0.56750 0.48590 -0.03900
H 	H 	0.38020 0.71460 0.60580 0.00900
H 	H 	0.44300 0.78390 0.56330 0.08400
H 	H 	0.49270 0.84570 0.52430 0.08000
H 	H 	0.55150 0.91450 0.47950 -0.02800
H 	H 	0.16950 0.41810 0.83730 0.00900
H 	H 	0.16560 0.56150 0.73810 0.06400
H 	H 	0.29950 0.50430 0.74400 0.03300
H 	H 	0.57540 0.39840 0.83110 0.01400
H 	H 	0.58300 0.18600 0.73800 0.06500
H 	H 	0.44520 0.24820 0.74200 0.03200
H 	H 	0.69450 0.08670 0.66660 -0.00800
H 	H 	0.65500 0.96900 0.78700 0.06500
H 	H 	0.79130 0.02380 0.78320 0.00200
H 	H 	0.07550 0.11990 0.69100 -0.00600
H 	H 	0.08130 0.30960 0.82330 0.07700
H 	H 	0.94520 0.25080 0.80220 0.01700
H 	H 	0.40300 0.52010 0.86640 -0.00200
H 	H 	0.46800 0.56690 0.94920 0.07600
H 	H 	0.47120 0.39370 0.97610 0.07600
H 	H 	0.40540 0.35230 0.89270 0.00800
H 	H 	0.12930 0.22920 0.14180 0.00100
H 	H 	0.07130 0.30090 0.09990 0.09600
H 	H 	0.00750 0.36690 0.06140 0.08200
H 	H 	0.94660 0.43250 0.01410 -0.03600
H 	H 	0.88020 0.28540 0.89420 0.00900
H 	H 	0.94300 0.21610 0.93670 0.08400
H 	H 	0.99270 0.15430 0.97570 0.07900
H 	H 	0.05150 0.08550 0.02050 -0.02800
H 	H 	0.33050 0.41810 0.33730 0.00900
H 	H 	0.33440 0.56150 0.23810 0.06400
H 	H 	0.20050 0.50430 0.24400 0.03300
H 	H 	0.92460 0.39840 0.33110 0.01400
H 	H 	0.91700 0.18600 0.23800 0.06500
H 	H 	0.05480 0.24820 0.24200 0.03300
H 	H 	0.80550 0.08670 0.16660 -0.00800
H 	H 	0.84500 0.96900 0.28700 0.06500
H 	H 	0.70870 0.02380 0.28320 0.00200
H 	H 	0.42450 0.11990 0.19100 -0.00500
H 	H 	0.41870 0.30960 0.32330 0.07600
H 	H 	0.55480 0.25080 0.30220 0.01900
H 	H 	0.09700 0.52010 0.36640 -0.00200
H 	H 	0.03200 0.56690 0.44920 0.07500
H 	H 	0.02880 0.39370 0.47610 0.07600
H 	H 	0.09460 0.35230 0.39270 0.00800
H 	H 	0.37070 0.22920 0.64180 0.00100
H 	H 	0.42870 0.30090 0.59990 0.09700
H 	H 	0.49250 0.36690 0.56140 0.08500
H 	H 	0.55340 0.43250 0.51410 -0.03900
H 	H 	0.61980 0.28540 0.39420 0.00900
H 	H 	0.55700 0.21610 0.43670 0.08400
H 	H 	0.50730 0.15430 0.47570 0.08000
H 	H 	0.44850 0.08550 0.52050 -0.02800
H 	H 	0.83050 0.58190 0.16270 0.00900
H 	H 	0.83440 0.43850 0.26190 0.06400
H 	H 	0.70050 0.49570 0.25600 0.03300
H 	H 	0.42460 0.60160 0.16890 0.01400
H 	H 	0.41700 0.81400 0.26200 0.06500
H 	H 	0.55480 0.75180 0.25800 0.03200
H 	H 	0.30550 0.91330 0.33340 -0.00800
H 	H 	0.34500 0.03100 0.21300 0.06500
H 	H 	0.20870 0.97620 0.21680 0.00200
H 	H 	0.92450 0.88010 0.30900 -0.00600
H 	H 	0.91870 0.69040 0.17670 0.07700
H 	H 	0.05480 0.74920 0.19780 0.01700
H 	H 	0.59700 0.47990 0.13360 -0.00200
H 	H 	0.53200 0.43310 0.05080 0.07600
H 	H 	0.52880 0.60630 0.02390 0.07600
H 	H 	0.59460 0.64770 0.10730 0.00800
H 	H 	0.87070 0.77080 0.85820 0.00100
H 	H 	0.92870 0.69910 0.90010 0.09600
H 	H 	0.99250 0.63310 0.93860 0.08200
H 	H 	0.05340 0.56750 0.98590 -0.03600
H 	H 	0.11980 0.71460 0.10580 0.00900
H 	H 	0.05700 0.78390 0.06330 0.08400
H 	H 	0.00730 0.84570 0.02430 0.07900
H 	H 	0.94850 0.91450 0.97950 -0.02800
C 	C 	0.66830 0.55290 0.68340 0.06500
C 	C 	0.58410 0.52080 0.68580 -0.08500
C 	C 	0.49540 0.53790 0.65960 0.33800
C 	C 	0.58110 0.47600 0.71550 -0.01400
C 	C 	0.49540 0.43580 0.71910 0.34100
C 	C 	0.66430 0.46780 0.74150 -0.06600
C 	C 	0.74510 0.50230 0.73780 0.04100
C 	C 	0.07650 0.64500 0.68810 0.06600
C 	C 	0.16090 0.67820 0.68870 -0.08500
C 	C 	0.24590 0.64320 0.66020 0.32600
C 	C 	0.16270 0.74350 0.71670 -0.00700
C 	C 	0.24820 0.78640 0.71940 0.32700
C 	C 	0.08000 0.77050 0.74230 -0.06800
C 	C 	0.99960 0.73280 0.74000 0.04800
C 	C 	0.18580 0.93770 0.80930 0.06500
C 	C 	0.10030 0.96950 0.81100 -0.09100
C 	C 	0.02480 0.95720 0.84830 0.34700
C 	C 	0.08720 0.00630 0.77520 0.00000
C 	C 	0.99980 0.04760 0.77550 0.33400
C 	C 	0.16060 0.00780 0.73950 -0.08200
C 	C 	0.24300 0.97440 0.74100 0.06600
C 	C 	0.57750 0.84150 0.78160 0.06700
C 	C 	0.66330 0.80990 0.77120 -0.09400
C 	C 	0.74850 0.84110 0.80250 0.33600
C 	C 	0.66650 0.75130 0.73100 0.00900
C 	C 	0.75300 0.70910 0.71550 0.30600
C 	C 	0.58220 0.72930 0.70370 -0.09200
C 	C 	0.50050 0.76480 0.71670 0.06800
C 	C 	0.91680 0.50570 0.61120 0.08000
C 	C 	0.95600 0.47720 0.56140 -0.13500
C 	C 	0.97760 0.51440 0.52700 0.05500
C 	C 	0.95790 0.57930 0.54540 -0.13200
C 	C 	0.91840 0.60380 0.59580 0.07500
C 	C 	0.60150 0.78630 0.39210 0.08500
C 	C 	0.56670 0.74300 0.41730 -0.14400
C 	C 	0.52510 0.76300 0.46740 0.06500
C 	C 	0.48520 0.71770 0.49570 0.06000
C 	C 	0.48330 0.65100 0.47310 -0.14700
C 	C 	0.44580 0.61180 0.50170 0.08800
C 	C 	0.40750 0.69770 0.57190 0.07600
C 	C 	0.44490 0.73990 0.54630 -0.13300
C 	C 	0.52020 0.82920 0.49040 -0.14000
C 	C 	0.55600 0.87040 0.46330 0.08300
C 	C 	0.16830 0.44710 0.81660 0.06500
C 	C 	0.08410 0.47920 0.81420 -0.08300
C 	C 	0.99540 0.46210 0.84040 0.33500
C 	C 	0.08110 0.52400 0.78450 -0.01400
C 	C 	0.99540 0.56420 0.78090 0.34100
C 	C 	0.16430 0.53220 0.75850 -0.06600
C 	C 	0.24510 0.49770 0.76220 0.04100
C 	C 	0.57650 0.35500 0.81190 0.06600
C 	C 	0.66090 0.32180 0.81130 -0.08600
C 	C 	0.74590 0.35680 0.83980 0.32600
C 	C 	0.66270 0.25650 0.78330 -0.00700
C 	C 	0.74820 0.21360 0.78060 0.32700
C 	C 	0.58000 0.22950 0.75770 -0.06900
C 	C 	0.49960 0.26720 0.76000 0.04900
C 	C 	0.68580 0.06230 0.69070 0.06500
C 	C 	0.60030 0.03050 0.68900 -0.09000
C 	C 	0.52480 0.04280 0.65170 0.34600
C 	C 	0.58720 0.99370 0.72480 -0.00100
C 	C 	0.49980 0.95240 0.72450 0.33500
C 	C 	0.66060 0.99220 0.76050 -0.08200
C 	C 	0.74300 0.02560 0.75900 0.06500
C 	C 	0.07750 0.15850 0.71840 0.06900
C 	C 	0.16330 0.19010 0.72880 -0.09500
C 	C 	0.24850 0.15890 0.69750 0.33700
C 	C 	0.16650 0.24870 0.76900 0.01000
C 	C 	0.25300 0.29090 0.78450 0.30600
C 	C 	0.08220 0.27070 0.79630 -0.09400
C 	C 	0.00050 0.23520 0.78330 0.07200
C 	C 	0.41680 0.49430 0.88880 0.08000
C 	C 	0.45600 0.52280 0.93860 -0.13500
C 	C 	0.47760 0.48560 0.97300 0.05500
C 	C 	0.45790 0.42070 0.95460 -0.13200
C 	C 	0.41840 0.39620 0.90420 0.07600
C 	C 	0.10150 0.21370 0.10790 0.08500
C 	C 	0.06670 0.25700 0.08270 -0.14400
C 	C 	0.02510 0.23700 0.03260 0.06400
C 	C 	0.98520 0.28230 0.00430 0.06100
C 	C 	0.98330 0.34900 0.02690 -0.14100
C 	C 	0.94580 0.38820 0.99830 0.08100
C 	C 	0.90750 0.30230 0.92810 0.07700
C 	C 	0.94490 0.26010 0.95370 -0.13400
C 	C 	0.02020 0.17080 0.00960 -0.13900
C 	C 	0.05600 0.12960 0.03670 0.08200
C 	C 	0.33170 0.44710 0.31660 0.06500
C 	C 	0.41590 0.47920 0.31420 -0.08500
C 	C 	0.50460 0.46210 0.34040 0.33800
C 	C 	0.41890 0.52400 0.28450 -0.01400
C 	C 	0.50460 0.56420 0.28090 0.34100
C 	C 	0.33570 0.53220 0.25850 -0.06600
C 	C 	0.25490 0.49770 0.26220 0.04100
C 	C 	0.92350 0.35500 0.31190 0.06600
C 	C 	0.83910 0.32180 0.31130 -0.08500
C 	C 	0.75410 0.35680 0.33980 0.32600
C 	C 	0.83730 0.25650 0.28330 -0.00700
C 	C 	0.75180 0.21360 0.28060 0.32700
C 	C 	0.92000 0.22950 0.25770 -0.06800
C 	C 	0.00040 0.26720 0.26000 0.04800
C 	C 	0.81420 0.06230 0.19070 0.06500
C 	C 	0.89970 0.03050 0.18900 -0.09100
C 	C 	0.97520 0.04280 0.15170 0.34700
C 	C 	0.91280 0.99370 0.22480 0.00000
C 	C 	0.00020 0.95240 0.22450 0.33400
C 	C 	0.83940 0.99220 0.26050 -0.08200
C 	C 	0.75700 0.02560 0.25900 0.06600
C 	C 	0.42250 0.15850 0.21840 0.06700
C 	C 	0.33670 0.19010 0.22880 -0.09400
C 	C 	0.25150 0.15890 0.19750 0.33600
C 	C 	0.33350 0.24870 0.26900 0.00900
C 	C 	0.24700 0.29090 0.28450 0.30600
C 	C 	0.41780 0.27070 0.29630 -0.09200
C 	C 	0.49950 0.23520 0.28330 0.06800
C 	C 	0.08320 0.49430 0.38880 0.08000
C 	C 	0.04400 0.52280 0.43860 -0.13500
C 	C 	0.02240 0.48560 0.47300 0.05500
C 	C 	0.04210 0.42070 0.45460 -0.13200
C 	C 	0.08160 0.39620 0.40420 0.07500
C 	C 	0.39850 0.21370 0.60790 0.08500
C 	C 	0.43330 0.25700 0.58270 -0.14400
C 	C 	0.47490 0.23700 0.53260 0.06500
C 	C 	0.51480 0.28230 0.50430 0.06000
C 	C 	0.51670 0.34900 0.52690 -0.14700
C 	C 	0.55420 0.38820 0.49830 0.08800
C 	C 	0.59250 0.30230 0.42810 0.07600
C 	C 	0.55510 0.26010 0.45370 -0.13300
C 	C 	0.47980 0.17080 0.50960 -0.14000
C 	C 	0.44400 0.12960 0.53670 0.08300
C 	C 	0.83170 0.55290 0.18340 0.06500
C 	C 	0.91590 0.52080 0.18580 -0.08300
C 	C 	0.00460 0.53790 0.15960 0.33500
C 	C 	0.91890 0.47600 0.21550 -0.01400
C 	C 	0.00460 0.43580 0.21910 0.34100
C 	C 	0.83570 0.46780 0.24150 -0.06600
C 	C 	0.75490 0.50230 0.23780 0.04100
C 	C 	0.42350 0.64500 0.18810 0.06600
C 	C 	0.33910 0.67820 0.18870 -0.08600
C 	C 	0.25410 0.64320 0.16020 0.32600
C 	C 	0.33730 0.74350 0.21670 -0.00700
C 	C 	0.25180 0.78640 0.21940 0.32700
C 	C 	0.42000 0.77050 0.24230 -0.06900
C 	C 	0.50040 0.73280 0.24000 0.04900
C 	C 	0.31420 0.93770 0.30930 0.06500
C 	C 	0.39970 0.96950 0.31100 -0.09000
C 	C 	0.47520 0.95720 0.34830 0.34600
C 	C 	0.41280 0.00630 0.27520 -0.00100
C 	C 	0.50020 0.04760 0.27550 0.33500
C 	C 	0.33940 0.00780 0.23950 -0.08200
C 	C 	0.25700 0.97440 0.24100 0.06500
C 	C 	0.92250 0.84150 0.28160 0.06900
C 	C 	0.83670 0.80990 0.27120 -0.09500
C 	C 	0.75150 0.84110 0.30250 0.33700
C 	C 	0.83350 0.75130 0.23100 0.01000
C 	C 	0.74700 0.70910 0.21550 0.30600
C 	C 	0.91780 0.72930 0.20370 -0.09400
C 	C 	0.99950 0.76480 0.21670 0.07200
C 	C 	0.58320 0.50570 0.11120 0.08000
C 	C 	0.54400 0.47720 0.06140 -0.13500
C 	C 	0.52240 0.51440 0.02700 0.05500
C 	C 	0.54210 0.57930 0.04540 -0.13200
C 	C 	0.58160 0.60380 0.09580 0.07600
C 	C 	0.89850 0.78630 0.89210 0.08500
C 	C 	0.93330 0.74300 0.91730 -0.14400
C 	C 	0.97490 0.76300 0.96740 0.06400
C 	C 	0.01480 0.71770 0.99570 0.06100
C 	C 	0.01670 0.65100 0.97310 -0.14100
C 	C 	0.05420 0.61180 0.00170 0.08100
C 	C 	0.09250 0.69770 0.07190 0.07700
C 	C 	0.05510 0.73990 0.04630 -0.13400
C 	C 	0.97980 0.82920 0.99040 -0.13900
C 	C 	0.94400 0.87040 0.96330 0.08200
N 	N 	0.74790 0.54490 0.70876 -0.21800
N 	N 	0.99710 0.67050 0.71312 -0.22400
N 	N 	0.25700 0.93970 0.77546 -0.24900
N 	N 	0.49670 0.82070 0.75508 -0.24900
N 	N 	0.89780 0.56820 0.62893 -0.25100
N 	N 	0.59700 0.85010 0.41460 -0.27500
N 	N 	0.40810 0.63390 0.55110 -0.26600
N 	N 	0.24790 0.45510 0.79124 -0.21800
N 	N 	0.49710 0.32950 0.78688 -0.22400
N 	N 	0.75700 0.06030 0.72454 -0.24900
N 	N 	0.99670 0.17930 0.74492 -0.25000
N 	N 	0.39780 0.43180 0.87107 -0.25100
N 	N 	0.09700 0.14990 0.08540 -0.27500
N 	N 	0.90810 0.36610 0.94890 -0.26500
N 	N 	0.25210 0.45510 0.29124 -0.21800
N 	N 	0.00290 0.32950 0.28688 -0.22400
N 	N 	0.74300 0.06030 0.22454 -0.24900
N 	N 	0.50330 0.17930 0.24492 -0.24900
N 	N 	0.10220 0.43180 0.37107 -0.25100
N 	N 	0.40300 0.14990 0.58540 -0.27500
N 	N 	0.59190 0.36610 0.44890 -0.26600
N 	N 	0.75210 0.54490 0.20876 -0.21800
N 	N 	0.50290 0.67050 0.21312 -0.22400
N 	N 	0.24300 0.93970 0.27546 -0.24900
N 	N 	0.00330 0.82070 0.25508 -0.25000
N 	N 	0.60220 0.56820 0.12893 -0.25100
N 	N 	0.90300 0.85010 0.91460 -0.27500
N 	N 	0.09190 0.63390 0.05110 -0.26500
O 	O 	0.50630 0.56560 0.62317 -0.45700
O 	O 	0.41720 0.52590 0.67440 -0.35200
O 	O 	0.47550 0.39090 0.67973 -0.29700
O 	O 	0.45410 0.45141 0.76406 -0.44000
O 	O 	0.23290 0.59190 0.62324 -0.44400
O 	O 	0.32670 0.66520 0.67258 -0.35700
O 	O 	0.27150 0.80270 0.67910 -0.29800
O 	O 	0.28670 0.80483 0.76502 -0.43700
O 	O 	0.04800 0.95370 0.89350 -0.33900
O 	O 	0.94210 0.94939 0.82987 -0.46000
O 	O 	0.97590 0.08390 0.81930 -0.29700
O 	O 	0.96270 0.04383 0.73088 -0.44600
O 	O 	0.73270 0.88881 0.84402 -0.47200
O 	O 	0.82830 0.82157 0.78776 -0.32700
O 	O 	0.78390 0.70070 0.66940 -0.30600
O 	O 	0.78320 0.68144 0.74930 -0.42500
O 	O 	0.00630 0.43440 0.87683 -0.45500
O 	O 	0.91720 0.47410 0.82560 -0.35200
O 	O 	0.97550 0.60910 0.82027 -0.29700
O 	O 	0.95410 0.54859 0.73594 -0.44000
O 	O 	0.73290 0.40810 0.87676 -0.44400
O 	O 	0.82670 0.33480 0.82742 -0.35700
O 	O 	0.77150 0.19730 0.82090 -0.29800
O 	O 	0.78670 0.19517 0.73498 -0.43700
O 	O 	0.54800 0.04630 0.60650 -0.34000
O 	O 	0.44210 0.05061 0.67013 -0.45900
O 	O 	0.47590 0.91610 0.68070 -0.29700
O 	O 	0.46270 0.95617 0.76912 -0.44600
O 	O 	0.23270 0.11119 0.65598 -0.47300
O 	O 	0.32830 0.17843 0.71224 -0.32700
O 	O 	0.28390 0.29930 0.83060 -0.30600
O 	O 	0.28320 0.31856 0.75070 -0.42500
O 	O 	0.49370 0.43440 0.37683 -0.45700
O 	O 	0.58280 0.47410 0.32560 -0.35200
O 	O 	0.52450 0.60910 0.32027 -0.29700
O 	O 	0.54590 0.54859 0.23594 -0.44000
O 	O 	0.76710 0.40810 0.37676 -0.44400
O 	O 	0.67330 0.33480 0.32742 -0.35700
O 	O 	0.72850 0.19730 0.32090 -0.29800
O 	O 	0.71330 0.19517 0.23498 -0.43700
O 	O 	0.95200 0.04630 0.10650 -0.33900
O 	O 	0.05790 0.05061 0.17013 -0.46000
O 	O 	0.02410 0.91610 0.18070 -0.29700
O 	O 	0.03730 0.95617 0.26912 -0.44600
O 	O 	0.26730 0.11119 0.15598 -0.47200
O 	O 	0.17170 0.17843 0.21224 -0.32700
O 	O 	0.21610 0.29930 0.33060 -0.30600
O 	O 	0.21680 0.31856 0.25070 -0.42500
O 	O 	0.99370 0.56560 0.12317 -0.45500
O 	O 	0.08280 0.52590 0.17440 -0.35200
O 	O 	0.02450 0.39090 0.17973 -0.29700
O 	O 	0.04590 0.45141 0.26406 -0.44000
O 	O 	0.26710 0.59190 0.12324 -0.44400
O 	O 	0.17330 0.66520 0.17258 -0.35700
O 	O 	0.22850 0.80270 0.17910 -0.29800
O 	O 	0.21330 0.80483 0.26502 -0.43700
O 	O 	0.45200 0.95370 0.39350 -0.34000
O 	O 	0.55790 0.94939 0.32987 -0.45900
O 	O 	0.52410 0.08390 0.31930 -0.29700
O 	O 	0.53730 0.04383 0.23088 -0.44600
O 	O 	0.76730 0.88881 0.34402 -0.47300
O 	O 	0.67170 0.82157 0.28776 -0.32700
O 	O 	0.71610 0.70070 0.16940 -0.30600
O 	O 	0.71680 0.68144 0.24930 -0.42500
