data_crystal

_cell_length_a 7.57700
_cell_length_b 15.07100
_cell_length_c 27.32000
_cell_angle_alpha 90.00000
_cell_angle_beta  90.00000
_cell_angle_gamma 90.00000

_symmetry_space_group_name_	'P 1'
_symmetry_space_group_name_H-M	'P 1'

loop_
_symmetry_equiv_pos_as_xyz
  x,y,z

loop_
_atom_site_label
_atom_site_type_symbol
_atom_site_fract_x
_atom_site_fract_y
_atom_site_fract_z
_atom_site_charge
Cd	Cd	0.61652 0.74471 0.66160 1.20500
Cd	Cd	0.76345 0.16995 0.59431 1.20400
Cd	Cd	0.38348 0.75529 0.16160 1.20500
Cd	Cd	0.23655 0.33005 0.09431 1.20400
Cd	Cd	0.38348 0.25529 0.33840 1.20500
Cd	Cd	0.23655 0.83005 0.40569 1.20400
Cd	Cd	0.61652 0.24471 0.83840 1.20500
Cd	Cd	0.76345 0.66995 0.90569 1.20400
H 	H 	0.06030 0.73500 0.73200 0.07000
H 	H 	0.83450 0.73300 0.78660 0.01400
H 	H 	0.16650 0.72370 0.89520 0.01000
H 	H 	0.21320 0.76540 0.64440 0.00300
H 	H 	0.55900 0.94950 0.61730 0.01100
H 	H 	0.34210 0.04380 0.59160 0.05600
H 	H 	0.46380 0.55590 0.63680 -0.00400
H 	H 	0.43380 0.45290 0.57590 0.08500
H 	H 	0.55610 0.64200 0.47920 0.08600
H 	H 	0.57360 0.73970 0.54230 -0.00800
H 	H 	0.92380 0.74750 0.01160 -0.00100
H 	H 	0.02210 0.87500 0.04640 0.06500
H 	H 	0.89630 0.00340 0.92310 0.06700
H 	H 	0.79980 0.87160 0.89270 -0.01000
H 	H 	0.93970 0.76500 0.23200 0.07100
H 	H 	0.16550 0.76700 0.28660 0.01600
H 	H 	0.83350 0.77630 0.39520 0.01000
H 	H 	0.78680 0.73460 0.14440 0.00400
H 	H 	0.44100 0.55050 0.11730 0.01100
H 	H 	0.65790 0.45620 0.09160 0.05500
H 	H 	0.53620 0.94410 0.13680 -0.00400
H 	H 	0.56620 0.04710 0.07590 0.08500
H 	H 	0.44390 0.85800 0.97920 0.08600
H 	H 	0.42640 0.76030 0.04230 -0.00800
H 	H 	0.07620 0.75250 0.51160 -0.00500
H 	H 	0.97790 0.62500 0.54640 0.07000
H 	H 	0.10370 0.49660 0.42310 0.07000
H 	H 	0.20020 0.62840 0.39270 -0.01100
H 	H 	0.93970 0.26500 0.26800 0.07100
H 	H 	0.16550 0.26700 0.21340 0.01500
H 	H 	0.83350 0.27630 0.10480 0.01000
H 	H 	0.78680 0.23460 0.35560 0.00300
H 	H 	0.44100 0.05050 0.38270 0.01100
H 	H 	0.65790 0.95620 0.40840 0.05600
H 	H 	0.53620 0.44410 0.36320 -0.00400
H 	H 	0.56620 0.54710 0.42410 0.08500
H 	H 	0.44390 0.35800 0.52080 0.08600
H 	H 	0.42640 0.26030 0.45770 -0.00800
H 	H 	0.07620 0.25250 0.98840 -0.00100
H 	H 	0.97790 0.12500 0.95360 0.06500
H 	H 	0.10370 0.99660 0.07690 0.06700
H 	H 	0.20020 0.12840 0.10730 -0.01000
H 	H 	0.06030 0.23500 0.76800 0.07100
H 	H 	0.83450 0.23300 0.71340 0.01600
H 	H 	0.16650 0.22370 0.60480 0.01000
H 	H 	0.21320 0.26540 0.85560 0.00400
H 	H 	0.55900 0.44950 0.88270 0.01100
H 	H 	0.34210 0.54380 0.90840 0.05500
H 	H 	0.46380 0.05590 0.86320 -0.00400
H 	H 	0.43380 0.95290 0.92410 0.08500
H 	H 	0.55610 0.14200 0.02080 0.08600
H 	H 	0.57360 0.23970 0.95770 -0.00800
H 	H 	0.92380 0.24750 0.48840 -0.00500
H 	H 	0.02210 0.37500 0.45360 0.07000
H 	H 	0.89630 0.50340 0.57690 0.07000
H 	H 	0.79980 0.37160 0.60730 -0.01100
C 	C 	0.40470 0.72580 0.74250 0.30100
C 	C 	0.25910 0.72580 0.78070 0.00600
C 	C 	0.08510 0.73070 0.76520 -0.08300
C 	C 	0.94990 0.72940 0.79810 0.05200
C 	C 	0.14540 0.72340 0.86170 0.06200
C 	C 	0.28760 0.72320 0.83080 -0.08600
C 	C 	0.46770 0.71110 0.85460 0.33900
C 	C 	0.91460 0.83800 0.62430 0.32800
C 	C 	0.09920 0.87640 0.62020 -0.08000
C 	C 	0.23850 0.82280 0.63400 0.05600
C 	C 	0.44240 0.93030 0.61790 0.05200
C 	C 	0.31220 0.98740 0.60270 -0.08600
C 	C 	0.13750 0.96190 0.60400 0.00100
C 	C 	0.99610 0.02880 0.59210 0.27800
C 	C 	0.48560 0.57280 0.60460 0.06500
C 	C 	0.46870 0.51040 0.56820 -0.13500
C 	C 	0.50360 0.53300 0.52000 0.06200
C 	C 	0.53980 0.62210 0.51110 -0.14600
C 	C 	0.55120 0.68030 0.54930 0.08500
C 	C 	0.91930 0.79970 0.99340 0.07300
C 	C 	0.97770 0.87650 0.01470 -0.11500
C 	C 	0.97160 0.95800 0.98920 0.05000
C 	C 	0.90380 0.95260 0.94230 -0.12300
C 	C 	0.84750 0.87250 0.92400 0.07400
C 	C 	0.59530 0.77420 0.24250 0.30100
C 	C 	0.74090 0.77420 0.28070 0.00500
C 	C 	0.91490 0.76930 0.26520 -0.08100
C 	C 	0.05010 0.77060 0.29810 0.05000
C 	C 	0.85460 0.77660 0.36170 0.06300
C 	C 	0.71240 0.77680 0.33080 -0.08500
C 	C 	0.53230 0.78890 0.35460 0.33900
C 	C 	0.08540 0.66200 0.12430 0.32600
C 	C 	0.90080 0.62360 0.12020 -0.07800
C 	C 	0.76150 0.67720 0.13400 0.05500
C 	C 	0.55760 0.56970 0.11790 0.05100
C 	C 	0.68780 0.51260 0.10270 -0.08400
C 	C 	0.86250 0.53810 0.10400 0.00000
C 	C 	0.00390 0.47120 0.09210 0.28000
C 	C 	0.51440 0.92720 0.10460 0.06400
C 	C 	0.53130 0.98960 0.06820 -0.13400
C 	C 	0.49640 0.96700 0.02000 0.06200
C 	C 	0.46020 0.87790 0.01110 -0.14500
C 	C 	0.44880 0.81970 0.04930 0.08500
C 	C 	0.08070 0.70030 0.49340 0.08000
C 	C 	0.02230 0.62350 0.51470 -0.12500
C 	C 	0.02840 0.54200 0.48920 0.05300
C 	C 	0.09620 0.54740 0.44230 -0.12800
C 	C 	0.15250 0.62750 0.42400 0.07700
C 	C 	0.59530 0.27420 0.25750 0.30100
C 	C 	0.74090 0.27420 0.21930 0.00600
C 	C 	0.91490 0.26930 0.23480 -0.08300
C 	C 	0.05010 0.27060 0.20190 0.05200
C 	C 	0.85460 0.27660 0.13830 0.06200
C 	C 	0.71240 0.27680 0.16920 -0.08600
C 	C 	0.53230 0.28890 0.14540 0.33900
C 	C 	0.08540 0.16200 0.37570 0.32800
C 	C 	0.90080 0.12360 0.37980 -0.08000
C 	C 	0.76150 0.17720 0.36600 0.05600
C 	C 	0.55760 0.06970 0.38210 0.05200
C 	C 	0.68780 0.01260 0.39730 -0.08600
C 	C 	0.86250 0.03810 0.39600 0.00100
C 	C 	0.00390 0.97120 0.40790 0.27800
C 	C 	0.51440 0.42720 0.39540 0.06500
C 	C 	0.53130 0.48960 0.43180 -0.13500
C 	C 	0.49640 0.46700 0.48000 0.06200
C 	C 	0.46020 0.37790 0.48890 -0.14600
C 	C 	0.44880 0.31970 0.45070 0.08500
C 	C 	0.08070 0.20030 0.00660 0.07300
C 	C 	0.02230 0.12350 0.98530 -0.11500
C 	C 	0.02840 0.04200 0.01080 0.05000
C 	C 	0.09620 0.04740 0.05770 -0.12300
C 	C 	0.15250 0.12750 0.07600 0.07400
C 	C 	0.40470 0.22580 0.75750 0.30100
C 	C 	0.25910 0.22580 0.71930 0.00500
C 	C 	0.08510 0.23070 0.73480 -0.08100
C 	C 	0.94990 0.22940 0.70190 0.05000
C 	C 	0.14540 0.22340 0.63830 0.06300
C 	C 	0.28760 0.22320 0.66920 -0.08500
C 	C 	0.46770 0.21110 0.64540 0.33900
C 	C 	0.91460 0.33800 0.87570 0.32600
C 	C 	0.09920 0.37640 0.87980 -0.07800
C 	C 	0.23850 0.32280 0.86600 0.05500
C 	C 	0.44240 0.43030 0.88210 0.05100
C 	C 	0.31220 0.48740 0.89730 -0.08400
C 	C 	0.13750 0.46190 0.89600 0.00000
C 	C 	0.99610 0.52880 0.90790 0.28000
C 	C 	0.48560 0.07280 0.89540 0.06400
C 	C 	0.46870 0.01040 0.93180 -0.13400
C 	C 	0.50360 0.03300 0.98000 0.06200
C 	C 	0.53980 0.12210 0.98890 -0.14500
C 	C 	0.55120 0.18030 0.95070 0.08500
C 	C 	0.91930 0.29970 0.50660 0.08000
C 	C 	0.97770 0.37650 0.48530 -0.12500
C 	C 	0.97160 0.45800 0.51080 0.05300
C 	C 	0.90380 0.45260 0.55770 -0.12800
C 	C 	0.84750 0.37250 0.57600 0.07700
N 	N 	0.97790 0.72310 0.84640 -0.20900
N 	N 	0.40780 0.84840 0.63330 -0.21900
N 	N 	0.53230 0.65710 0.59560 -0.24300
N 	N 	0.85680 0.79630 0.94830 -0.23600
N 	N 	0.02210 0.77690 0.34640 -0.20900
N 	N 	0.59220 0.65160 0.13330 -0.21900
N 	N 	0.46770 0.84290 0.09560 -0.24300
N 	N 	0.14320 0.70370 0.44830 -0.23800
N 	N 	0.02210 0.27690 0.15360 -0.20900
N 	N 	0.59220 0.15160 0.36670 -0.21900
N 	N 	0.46770 0.34290 0.40440 -0.24300
N 	N 	0.14320 0.20370 0.05170 -0.23600
N 	N 	0.97790 0.22310 0.65360 -0.20900
N 	N 	0.40780 0.34840 0.86670 -0.21900
N 	N 	0.53230 0.15710 0.90440 -0.24300
N 	N 	0.85680 0.29630 0.55170 -0.23800
O 	O 	0.52700 0.78020 0.74650 -0.35200
O 	O 	0.38660 0.67630 0.70680 -0.38200
O 	O 	0.56910 0.65690 0.83750 -0.38300
O 	O 	0.49870 0.75310 0.89290 -0.39600
O 	O 	0.86830 0.81660 0.66720 -0.41900
O 	O 	0.82610 0.82470 0.58720 -0.32900
O 	O 	0.85580 0.02610 0.61640 -0.36600
O 	O 	0.02700 0.08770 0.56117 -0.35100
O 	O 	0.47300 0.71980 0.24650 -0.35200
O 	O 	0.61340 0.82370 0.20680 -0.38200
O 	O 	0.43090 0.84310 0.33750 -0.38300
O 	O 	0.50130 0.74690 0.39290 -0.39600
O 	O 	0.13170 0.68340 0.16720 -0.41900
O 	O 	0.17390 0.67530 0.08720 -0.32900
O 	O 	0.14420 0.47390 0.11640 -0.36600
O 	O 	0.97300 0.41230 0.06117 -0.35300
O 	O 	0.47300 0.21980 0.25350 -0.35200
O 	O 	0.61340 0.32370 0.29320 -0.38200
O 	O 	0.43090 0.34310 0.16250 -0.38300
O 	O 	0.50130 0.24690 0.10710 -0.39600
O 	O 	0.13170 0.18340 0.33280 -0.41900
O 	O 	0.17390 0.17530 0.41280 -0.32900
O 	O 	0.14420 0.97390 0.38360 -0.36600
O 	O 	0.97300 0.91230 0.43883 -0.35100
O 	O 	0.52700 0.28020 0.75350 -0.35200
O 	O 	0.38660 0.17630 0.79320 -0.38200
O 	O 	0.56910 0.15690 0.66250 -0.38300
O 	O 	0.49870 0.25310 0.60710 -0.39600
O 	O 	0.86830 0.31660 0.83280 -0.41900
O 	O 	0.82610 0.32470 0.91280 -0.32900
O 	O 	0.85580 0.52610 0.88360 -0.36600
O 	O 	0.02700 0.58770 0.93883 -0.35300
