data_crystal

_cell_length_a 13.09130
_cell_length_b 13.20870
_cell_length_c 26.91600
_cell_angle_alpha 90.00000
_cell_angle_beta  90.00000
_cell_angle_gamma 90.00000

_symmetry_space_group_name_	'P 1'
_symmetry_space_group_name_H-M	'P 1'

loop_
_symmetry_equiv_pos_as_xyz
  x,y,z

loop_
_atom_site_label
_atom_site_type_symbol
_atom_site_fract_x
_atom_site_fract_y
_atom_site_fract_z
_atom_site_charge
Cd	Cd	0.80519 0.80353 0.82913 1.20500
Cd	Cd	0.19481 0.69647 0.32913 1.20600
Cd	Cd	0.30519 0.19647 0.67088 1.20500
Cd	Cd	0.69481 0.30353 0.17088 1.20600
Cd	Cd	0.19481 0.19647 0.17088 1.20500
Cd	Cd	0.80519 0.30353 0.67088 1.20600
Cd	Cd	0.69481 0.80353 0.32913 1.20500
Cd	Cd	0.30519 0.69647 0.82913 1.20600
H 	H 	0.82280 0.99670 0.75600 0.01700
H 	H 	0.04180 0.81210 0.79220 0.01000
H 	H 	0.65850 0.09170 0.75130 0.07900
H 	H 	0.80160 0.00270 0.89470 0.00900
H 	H 	0.87920 0.08460 0.96040 0.07300
H 	H 	0.06460 0.85460 0.97360 0.07400
H 	H 	0.99180 0.78630 0.90580 -0.01800
H 	H 	0.17720 0.50330 0.25600 0.01500
H 	H 	0.95820 0.68790 0.29220 0.00900
H 	H 	0.34150 0.40830 0.25130 0.07900
H 	H 	0.19840 0.49730 0.39470 0.00700
H 	H 	0.12080 0.41540 0.46040 0.07400
H 	H 	0.93540 0.64540 0.47360 0.07500
H 	H 	0.00820 0.71370 0.40580 -0.01900
H 	H 	0.32280 0.00330 0.74400 0.01500
H 	H 	0.54180 0.18790 0.70780 0.00900
H 	H 	0.15850 0.90830 0.74870 0.07800
H 	H 	0.30160 0.99730 0.60530 0.00800
H 	H 	0.37920 0.91540 0.53960 0.07400
H 	H 	0.56460 0.14540 0.52640 0.07500
H 	H 	0.49180 0.21370 0.59420 -0.01900
H 	H 	0.67720 0.49670 0.24400 0.01500
H 	H 	0.45820 0.31210 0.20780 0.00900
H 	H 	0.84150 0.59170 0.24870 0.07900
H 	H 	0.69840 0.50270 0.10530 0.00700
H 	H 	0.62080 0.58460 0.03960 0.07400
H 	H 	0.43540 0.35460 0.02640 0.07500
H 	H 	0.50820 0.28630 0.09420 -0.01900
H 	H 	0.17720 0.00330 0.24400 0.01600
H 	H 	0.95820 0.18790 0.20780 0.01000
H 	H 	0.34150 0.90830 0.24870 0.07900
H 	H 	0.19840 0.99730 0.10530 0.00900
H 	H 	0.12080 0.91540 0.03960 0.07300
H 	H 	0.93540 0.14540 0.02640 0.07400
H 	H 	0.00820 0.21370 0.09420 -0.01800
H 	H 	0.82280 0.49670 0.74400 0.01500
H 	H 	0.04180 0.31210 0.70780 0.00900
H 	H 	0.65850 0.59170 0.74870 0.07900
H 	H 	0.80160 0.50270 0.60530 0.00700
H 	H 	0.87920 0.58460 0.53960 0.07400
H 	H 	0.06460 0.35460 0.52640 0.07500
H 	H 	0.99180 0.28630 0.59420 -0.01900
H 	H 	0.67720 0.99670 0.25600 0.01500
H 	H 	0.45820 0.81210 0.29220 0.00900
H 	H 	0.84150 0.09170 0.25130 0.07800
H 	H 	0.69840 0.00270 0.39470 0.00800
H 	H 	0.62080 0.08460 0.46040 0.07400
H 	H 	0.43540 0.85460 0.47360 0.07500
H 	H 	0.50820 0.78630 0.40580 -0.01900
H 	H 	0.32280 0.50330 0.75600 0.01500
H 	H 	0.54180 0.68790 0.79220 0.00900
H 	H 	0.15850 0.40830 0.75130 0.07900
H 	H 	0.30160 0.49730 0.89470 0.00700
H 	H 	0.37920 0.41540 0.96040 0.07400
H 	H 	0.56460 0.64540 0.97360 0.07500
H 	H 	0.49180 0.71370 0.90580 -0.01900
C 	C 	0.64000 0.92300 0.80000 0.31300
C 	C 	0.55890 0.98700 0.77650 -0.00200
C 	C 	0.45530 0.96100 0.77410 -0.08400
C 	C 	0.41090 0.87020 0.79990 0.32400
C 	C 	0.89130 0.97840 0.75400 0.05900
C 	C 	0.01940 0.87000 0.77590 0.05500
C 	C 	0.59010 0.07260 0.75080 -0.08500
C 	C 	0.85470 0.97060 0.91130 0.06600
C 	C 	0.90100 0.01990 0.95180 -0.12900
C 	C 	0.97620 0.97600 0.97830 0.05900
C 	C 	0.00940 0.88740 0.95900 -0.15000
C 	C 	0.96350 0.84540 0.91850 0.09100
C 	C 	0.36000 0.57700 0.30000 0.31300
C 	C 	0.44110 0.51300 0.27650 -0.00200
C 	C 	0.54470 0.53900 0.27410 -0.08500
C 	C 	0.58910 0.62980 0.29990 0.32400
C 	C 	0.10870 0.52160 0.25400 0.06100
C 	C 	0.98060 0.63000 0.27590 0.05500
C 	C 	0.40990 0.42740 0.25080 -0.08600
C 	C 	0.14530 0.52940 0.41130 0.07100
C 	C 	0.09900 0.48010 0.45180 -0.13400
C 	C 	0.02380 0.52400 0.47830 0.06200
C 	C 	0.99060 0.61260 0.45900 -0.15500
C 	C 	0.03650 0.65460 0.41850 0.09500
C 	C 	0.14000 0.07700 0.70000 0.31400
C 	C 	0.05890 0.01300 0.72350 -0.00500
C 	C 	0.95530 0.03900 0.72590 -0.08200
C 	C 	0.91090 0.12980 0.70010 0.32400
C 	C 	0.39130 0.02160 0.74600 0.06100
C 	C 	0.51940 0.13000 0.72410 0.05500
C 	C 	0.09010 0.92740 0.74920 -0.08400
C 	C 	0.35470 0.02940 0.58870 0.06900
C 	C 	0.40100 0.98010 0.54820 -0.13300
C 	C 	0.47620 0.02400 0.52170 0.06200
C 	C 	0.50940 0.11260 0.54100 -0.15400
C 	C 	0.46350 0.15460 0.58150 0.09400
C 	C 	0.86000 0.42300 0.20000 0.31300
C 	C 	0.94110 0.48700 0.22350 -0.00200
C 	C 	0.04470 0.46100 0.22590 -0.08400
C 	C 	0.08910 0.37020 0.20010 0.32400
C 	C 	0.60870 0.47840 0.24600 0.06100
C 	C 	0.48060 0.37000 0.22410 0.05600
C 	C 	0.90990 0.57260 0.24920 -0.08600
C 	C 	0.64530 0.47060 0.08870 0.07100
C 	C 	0.59900 0.51990 0.04820 -0.13400
C 	C 	0.52380 0.47600 0.02170 0.06200
C 	C 	0.49060 0.38740 0.04100 -0.15400
C 	C 	0.53650 0.34540 0.08150 0.09400
C 	C 	0.36000 0.07700 0.20000 0.31300
C 	C 	0.44110 0.01300 0.22350 -0.00200
C 	C 	0.54470 0.03900 0.22590 -0.08400
C 	C 	0.58910 0.12980 0.20010 0.32400
C 	C 	0.10870 0.02160 0.24600 0.05900
C 	C 	0.98060 0.13000 0.22410 0.05500
C 	C 	0.40990 0.92740 0.24920 -0.08500
C 	C 	0.14530 0.02940 0.08870 0.06600
C 	C 	0.09900 0.98010 0.04820 -0.12900
C 	C 	0.02380 0.02400 0.02170 0.05900
C 	C 	0.99060 0.11260 0.04100 -0.15000
C 	C 	0.03650 0.15460 0.08150 0.09100
C 	C 	0.64000 0.42300 0.70000 0.31300
C 	C 	0.55890 0.48700 0.72350 -0.00200
C 	C 	0.45530 0.46100 0.72590 -0.08500
C 	C 	0.41090 0.37020 0.70010 0.32400
C 	C 	0.89130 0.47840 0.74600 0.06100
C 	C 	0.01940 0.37000 0.72410 0.05500
C 	C 	0.59010 0.57260 0.74920 -0.08600
C 	C 	0.85470 0.47060 0.58870 0.07100
C 	C 	0.90100 0.51990 0.54820 -0.13400
C 	C 	0.97620 0.47600 0.52170 0.06200
C 	C 	0.00940 0.38740 0.54100 -0.15500
C 	C 	0.96350 0.34540 0.58150 0.09500
C 	C 	0.86000 0.92300 0.30000 0.31400
C 	C 	0.94110 0.98700 0.27650 -0.00500
C 	C 	0.04470 0.96100 0.27410 -0.08200
C 	C 	0.08910 0.87020 0.29990 0.32400
C 	C 	0.60870 0.97840 0.25400 0.06100
C 	C 	0.48060 0.87000 0.27590 0.05500
C 	C 	0.90990 0.07260 0.25080 -0.08400
C 	C 	0.64530 0.97060 0.41130 0.06900
C 	C 	0.59900 0.01990 0.45180 -0.13300
C 	C 	0.52380 0.97600 0.47830 0.06200
C 	C 	0.49060 0.88740 0.45900 -0.15400
C 	C 	0.53650 0.84540 0.41850 0.09400
C 	C 	0.14000 0.57700 0.80000 0.31300
C 	C 	0.05890 0.51300 0.77650 -0.00200
C 	C 	0.95530 0.53900 0.77410 -0.08400
C 	C 	0.91090 0.62980 0.79990 0.32400
C 	C 	0.39130 0.52160 0.75400 0.06100
C 	C 	0.51940 0.63000 0.77590 0.05600
C 	C 	0.09010 0.42740 0.75080 -0.08600
C 	C 	0.35470 0.52940 0.91130 0.07100
C 	C 	0.40100 0.48010 0.95180 -0.13400
C 	C 	0.47620 0.52400 0.97830 0.06200
C 	C 	0.50940 0.61260 0.95900 -0.15400
C 	C 	0.46350 0.65460 0.91850 0.09400
N 	N 	0.92110 0.89490 0.77882 -0.21800
N 	N 	0.88400 0.88110 0.89650 -0.24900
N 	N 	0.07890 0.60510 0.27882 -0.21800
N 	N 	0.11600 0.61890 0.39650 -0.25000
N 	N 	0.42110 0.10510 0.72118 -0.21800
N 	N 	0.38400 0.11890 0.60350 -0.25000
N 	N 	0.57890 0.39490 0.22118 -0.21800
N 	N 	0.61600 0.38110 0.10350 -0.25000
N 	N 	0.07890 0.10510 0.22118 -0.21800
N 	N 	0.11600 0.11890 0.10350 -0.24900
N 	N 	0.92110 0.39490 0.72118 -0.21800
N 	N 	0.88400 0.38110 0.60350 -0.25000
N 	N 	0.57890 0.89490 0.27882 -0.21800
N 	N 	0.61600 0.88110 0.39650 -0.25000
N 	N 	0.42110 0.60510 0.77882 -0.21800
N 	N 	0.38400 0.61890 0.89650 -0.25000
O 	O 	0.68440 0.95750 0.83650 -0.35300
O 	O 	0.66620 0.84370 0.77920 -0.38400
O 	O 	0.45640 0.83090 0.83521 -0.35400
O 	O 	0.32720 0.83780 0.78340 -0.40700
O 	O 	0.31560 0.54250 0.33650 -0.35200
O 	O 	0.33380 0.65630 0.27920 -0.38400
O 	O 	0.54360 0.66910 0.33521 -0.35400
O 	O 	0.67280 0.66220 0.28340 -0.40700
O 	O 	0.18440 0.04250 0.66350 -0.35300
O 	O 	0.16620 0.15630 0.72080 -0.38500
O 	O 	0.95640 0.16910 0.66479 -0.35400
O 	O 	0.82720 0.16220 0.71660 -0.40700
O 	O 	0.81560 0.45750 0.16350 -0.35200
O 	O 	0.83380 0.34370 0.22080 -0.38400
O 	O 	0.04360 0.33090 0.16479 -0.35500
O 	O 	0.17280 0.33780 0.21660 -0.40700
O 	O 	0.31560 0.04250 0.16350 -0.35300
O 	O 	0.33380 0.15630 0.22080 -0.38400
O 	O 	0.54360 0.16910 0.16479 -0.35400
O 	O 	0.67280 0.16220 0.21660 -0.40700
O 	O 	0.68440 0.45750 0.66350 -0.35200
O 	O 	0.66620 0.34370 0.72080 -0.38400
O 	O 	0.45640 0.33090 0.66479 -0.35400
O 	O 	0.32720 0.33780 0.71660 -0.40700
O 	O 	0.81560 0.95750 0.33650 -0.35300
O 	O 	0.83380 0.84370 0.27920 -0.38500
O 	O 	0.04360 0.83090 0.33521 -0.35400
O 	O 	0.17280 0.83780 0.28340 -0.40700
O 	O 	0.18440 0.54250 0.83650 -0.35300
O 	O 	0.16620 0.65630 0.77920 -0.38400
O 	O 	0.95640 0.66910 0.83521 -0.35500
O 	O 	0.82720 0.66220 0.78340 -0.40700
