data_crystal

_cell_length_a 19.47780
_cell_length_b 13.95420
_cell_length_c 23.76100
_cell_angle_alpha 90.00000
_cell_angle_beta  104.44400
_cell_angle_gamma 90.00000

_symmetry_space_group_name_	'P 1'
_symmetry_space_group_name_H-M	'P 1'

loop_
_symmetry_equiv_pos_as_xyz
  x,y,z

loop_
_atom_site_label
_atom_site_type_symbol
_atom_site_fract_x
_atom_site_fract_y
_atom_site_fract_z
_atom_site_charge
Ba	Ba	0.68237 0.75179 0.27033 1.73500
Ba	Ba	0.83590 0.92812 0.19408 1.95800
Ba	Ba	0.68011 0.43885 0.31513 1.87300
Ba	Ba	0.46847 0.44796 0.36189 2.03100
Ba	Ba	0.15623 0.67145 0.18658 1.93300
Ba	Ba	0.97790 0.44319 0.37340 1.98200
C 	C 	0.74710 0.42590 0.51450 0.05800
C 	C 	0.68720 0.36820 0.49550 -0.16200
C 	C 	0.68940 0.27300 0.51040 0.06200
H 	H 	0.64830 0.23620 0.50000 -0.00200
C 	C 	0.75220 0.23130 0.54100 -0.16900
H 	H 	0.75370 0.16670 0.55070 0.06500
C 	C 	0.81230 0.28650 0.55680 0.05300
H 	H 	0.85520 0.25770 0.57490 -0.02400
C 	C 	0.81020 0.38280 0.54630 -0.18600
C 	C 	0.74800 0.53170 0.50420 0.10800
C 	C 	0.78910 0.57170 0.46960 -0.24300
C 	C 	0.79720 0.66960 0.46760 0.10800
H 	H 	0.82610 0.69530 0.44550 -0.06200
C 	C 	0.76310 0.73030 0.49780 -0.24300
H 	H 	0.76840 0.79630 0.49550 0.07500
C 	C 	0.72180 0.69310 0.53090 0.12200
H 	H 	0.69850 0.73380 0.55100 -0.05200
C 	C 	0.71430 0.59490 0.53470 -0.23900
C 	C 	0.61950 0.40000 0.45280 0.38200
C 	C 	0.87750 0.44000 0.57040 0.40100
C 	C 	0.82500 0.50890 0.43520 0.42300
C 	C 	0.67070 0.55870 0.57450 0.42100
C 	C 	0.41540 0.62620 0.19860 0.03000
C 	C 	0.48190 0.58750 0.19860 -0.19200
C 	C 	0.49590 0.55490 0.14710 0.06400
H 	H 	0.54060 0.53060 0.14770 -0.02100
C 	C 	0.44460 0.55810 0.09550 -0.17400
H 	H 	0.45390 0.53500 0.06140 0.06800
C 	C 	0.37880 0.59630 0.09510 0.06200
H 	H 	0.34390 0.59800 0.06040 -0.00300
C 	C 	0.36360 0.63190 0.14490 -0.17400
C 	C 	0.40160 0.66390 0.25350 0.13800
C 	C 	0.43600 0.74740 0.27740 -0.31000
C 	C 	0.42720 0.78110 0.33060 0.14700
H 	H 	0.45230 0.83460 0.34790 -0.06600
C 	C 	0.38190 0.73570 0.35720 -0.30300
H 	H 	0.37630 0.75870 0.39250 0.10300
C 	C 	0.34460 0.65680 0.33280 0.14000
H 	H 	0.31200 0.62880 0.35040 -0.08800
C 	C 	0.35530 0.61760 0.28100 -0.34700
C 	C 	0.54160 0.57960 0.25300 0.42100
C 	C 	0.29180 0.67470 0.14130 0.38900
C 	C 	0.48190 0.80220 0.24630 0.51900
C 	C 	0.31670 0.52680 0.25790 0.46900
C 	C 	0.89200 0.60570 0.19810 0.05700
C 	C 	0.82350 0.61200 0.15980 -0.18000
C 	C 	0.80910 0.56090 0.10780 0.06900
H 	H 	0.76370 0.56270 0.08330 -0.00800
C 	C 	0.86110 0.50720 0.09190 -0.17900
H 	H 	0.85150 0.47640 0.05610 0.06300
C 	C 	0.92820 0.49980 0.13010 0.08100
H 	H 	0.96300 0.46330 0.11970 -0.03400
C 	C 	0.94330 0.54570 0.18280 -0.20600
C 	C 	0.91350 0.66200 0.25260 0.09800
C 	C 	0.96470 0.73460 0.25600 -0.27000
C 	C 	0.99430 0.77930 0.30880 0.08900
H 	H 	0.03050 0.82380 0.31140 -0.05000
C 	C 	0.97030 0.75820 0.35720 -0.22200
H 	H 	0.99050 0.78800 0.39240 0.07000
C 	C 	0.91630 0.69280 0.35320 0.06600
H 	H 	0.89840 0.68120 0.38540 -0.04700
C 	C 	0.88790 0.64350 0.30090 -0.28500
C 	C 	0.76570 0.67360 0.17270 0.40200
C 	C 	0.01480 0.52470 0.22470 0.44700
C 	C 	0.98420 0.77190 0.20240 0.43100
C 	C 	0.83130 0.56730 0.29880 0.44400
O 	O 	0.62410 0.45630 0.41238 -0.54500
O 	O 	0.56210 0.36570 0.45854 -0.45600
O 	O 	0.93470 0.40850 0.56281 -0.46200
O 	O 	0.87440 0.51380 0.59927 -0.59400
O 	O 	0.88810 0.52660 0.43412 -0.49200
O 	O 	0.78990 0.43860 0.40797 -0.53000
O 	O 	0.60690 0.54360 0.55418 -0.49200
O 	O 	0.70150 0.54960 0.62820 -0.54600
O 	O 	0.52820 0.56670 0.30113 -0.56700
O 	O 	0.60370 0.58510 0.24569 -0.58900
O 	O 	0.23980 0.63040 0.11110 -0.47500
O 	O 	0.28640 0.74900 0.16930 -0.59700
O 	O 	0.45150 0.85380 0.20480 -0.63100
O 	O 	0.54700 0.79450 0.26360 -0.54700
O 	O 	0.35070 0.45190 0.25847 -0.60300
O 	O 	0.24890 0.53300 0.24016 -0.63400
O 	O 	0.78090 0.75230 0.19703 -0.61300
O 	O 	0.70390 0.64030 0.15730 -0.39100
O 	O 	0.06870 0.52300 0.20409 -0.59100
O 	O 	0.01760 0.50540 0.27630 -0.58200
O 	O 	0.04830 0.77610 0.20242 -0.62100
O 	O 	0.93500 0.80340 0.16211 -0.57800
O 	O 	0.84860 0.48200 0.29660 -0.55800
O 	O 	0.77030 0.59630 0.30030 -0.61500
O 	O 	0.41150 0.25940 0.35360 -0.90200
H 	H 	0.38730 0.25060 0.37840 0.32900
H 	H 	0.44420 0.21760 0.35870 0.33400
O 	O 	0.14660 0.63960 0.30570 -1.35300
H 	H 	0.17470 0.66290 0.32670 0.63100
H 	H 	0.10660 0.65630 0.31080 0.46800
O 	O 	0.11760 0.80330 0.09732 -0.98000
H 	H 	0.14620 0.85040 0.10380 0.32500
H 	H 	0.11930 0.77650 0.06550 0.33800
Ba	Ba	0.31763 0.25179 0.22967 1.73700
Ba	Ba	0.16410 0.42812 0.30592 1.96100
Ba	Ba	0.31989 0.93885 0.18487 1.86800
Ba	Ba	0.53153 0.94796 0.13811 2.02700
Ba	Ba	0.84377 0.17145 0.31342 1.93500
Ba	Ba	0.02210 0.94319 0.12660 1.96500
C 	C 	0.25290 0.92590 0.98550 0.08000
C 	C 	0.31280 0.86820 0.00450 -0.18500
C 	C 	0.31060 0.77300 0.98960 0.09100
H 	H 	0.35170 0.73620 -0.00000 -0.01400
C 	C 	0.24780 0.73130 0.95900 -0.19000
H 	H 	0.24630 0.66670 0.94930 0.07300
C 	C 	0.18770 0.78650 0.94320 0.07000
H 	H 	0.14480 0.75770 0.92510 -0.03000
C 	C 	0.18980 0.88280 0.95370 -0.19900
C 	C 	0.25200 0.03170 0.99580 0.08900
C 	C 	0.21090 0.07170 0.03040 -0.22900
C 	C 	0.20280 0.16960 0.03240 0.09500
H 	H 	0.17390 0.19530 0.05450 -0.05700
C 	C 	0.23690 0.23030 0.00220 -0.22500
H 	H 	0.23160 0.29630 0.00450 0.06900
C 	C 	0.27820 0.19310 0.96910 0.10600
H 	H 	0.30150 0.23380 0.94900 -0.04600
C 	C 	0.28570 0.09490 0.96530 -0.22800
C 	C 	0.38050 0.90000 0.04720 0.38900
C 	C 	0.12250 0.94000 0.92960 0.40800
C 	C 	0.17500 0.00890 0.06480 0.42400
C 	C 	0.32930 0.05870 0.92550 0.41700
C 	C 	0.58460 0.12620 0.30140 0.03000
C 	C 	0.51810 0.08750 0.30140 -0.19100
C 	C 	0.50410 0.05490 0.35290 0.06300
H 	H 	0.45940 0.03060 0.35230 -0.02100
C 	C 	0.55540 0.05810 0.40450 -0.17400
H 	H 	0.54610 0.03500 0.43860 0.06700
C 	C 	0.62120 0.09630 0.40490 0.06100
H 	H 	0.65610 0.09800 0.43960 -0.00200
C 	C 	0.63640 0.13190 0.35510 -0.17400
C 	C 	0.59840 0.16390 0.24650 0.13900
C 	C 	0.56400 0.24740 0.22260 -0.31000
C 	C 	0.57280 0.28110 0.16940 0.14800
H 	H 	0.54770 0.33460 0.15210 -0.06600
C 	C 	0.61810 0.23570 0.14280 -0.30300
H 	H 	0.62370 0.25870 0.10750 0.10400
C 	C 	0.65540 0.15680 0.16720 0.14100
H 	H 	0.68800 0.12880 0.14960 -0.08700
C 	C 	0.64470 0.11760 0.21900 -0.34800
C 	C 	0.45840 0.07960 0.24700 0.42100
C 	C 	0.70820 0.17470 0.35870 0.38900
C 	C 	0.51810 0.30220 0.25370 0.51900
C 	C 	0.68330 0.02680 0.24210 0.47200
C 	C 	0.10800 0.10570 0.30190 0.05000
C 	C 	0.17650 0.11200 0.34020 -0.17200
C 	C 	0.19090 0.06090 0.39220 0.05600
H 	H 	0.23630 0.06270 0.41670 -0.00300
C 	C 	0.13890 0.00720 0.40810 -0.15600
H 	H 	0.14850 0.97640 0.44390 0.05300
C 	C 	0.07180 0.99980 0.36990 0.05800
H 	H 	0.03700 0.96330 0.38030 -0.02800
C 	C 	0.05670 0.04570 0.31720 -0.19300
C 	C 	0.08650 0.16200 0.24740 0.10000
C 	C 	0.03530 0.23460 0.24400 -0.26900
C 	C 	0.00570 0.27930 0.19120 0.08300
H 	H 	0.96950 0.32380 0.18860 -0.04600
C 	C 	0.02970 0.25820 0.14280 -0.21900
H 	H 	0.00950 0.28800 0.10760 0.06900
C 	C 	0.08370 0.19280 0.14680 0.06600
H 	H 	0.10160 0.18120 0.11460 -0.04600
C 	C 	0.11210 0.14350 0.19910 -0.28500
C 	C 	0.23430 0.17360 0.32730 0.40000
C 	C 	0.98520 0.02470 0.27530 0.44200
C 	C 	0.01580 0.27190 0.29760 0.42800
C 	C 	0.16870 0.06730 0.20120 0.44900
O 	O 	0.37590 0.95630 0.08762 -0.54800
O 	O 	0.43790 0.86570 0.04146 -0.45900
O 	O 	0.06530 0.90850 0.93719 -0.46100
O 	O 	0.12560 0.01380 0.90073 -0.59600
O 	O 	0.11190 0.02660 0.06588 -0.48900
O 	O 	0.21010 0.93860 0.09203 -0.53400
O 	O 	0.39310 0.04360 0.94582 -0.49100
O 	O 	0.29850 0.04960 0.87180 -0.54500
O 	O 	0.47180 0.06670 0.19887 -0.56500
O 	O 	0.39630 0.08510 0.25431 -0.58700
O 	O 	0.76020 0.13040 0.38890 -0.47400
O 	O 	0.71360 0.24900 0.33070 -0.59700
O 	O 	0.54850 0.35380 0.29520 -0.63100
O 	O 	0.45300 0.29450 0.23640 -0.54700
O 	O 	0.64930 0.95190 0.24153 -0.60400
O 	O 	0.75110 0.03300 0.25984 -0.63400
O 	O 	0.21910 0.25230 0.30297 -0.61300
O 	O 	0.29610 0.14030 0.34270 -0.39000
O 	O 	0.93130 0.02300 0.29591 -0.58900
O 	O 	0.98240 0.00540 0.22370 -0.57700
O 	O 	0.95170 0.27610 0.29758 -0.62000
O 	O 	0.06500 0.30340 0.33789 -0.57900
O 	O 	0.15140 0.98200 0.20340 -0.56100
O 	O 	0.22970 0.09630 0.19970 -0.61500
O 	O 	0.58850 0.75940 0.14640 -0.90100
H 	H 	0.61270 0.75060 0.12160 0.32800
H 	H 	0.55580 0.71760 0.14130 0.33400
O 	O 	0.85340 0.13960 0.19430 -1.35300
H 	H 	0.82530 0.16290 0.17330 0.63200
H 	H 	0.89340 0.15630 0.18920 0.46900
O 	O 	0.88240 0.30330 0.40268 -0.98100
H 	H 	0.85380 0.35040 0.39620 0.32500
H 	H 	0.88070 0.27650 0.43450 0.33900
Ba	Ba	0.31763 0.24821 0.72967 1.73600
Ba	Ba	0.16410 0.07188 0.80592 1.95900
Ba	Ba	0.31989 0.56115 0.68487 1.87400
Ba	Ba	0.53153 0.55204 0.63811 2.03200
Ba	Ba	0.84377 0.32855 0.81342 1.93400
Ba	Ba	0.02210 0.55681 0.62660 1.98200
C 	C 	0.25290 0.57410 0.48550 0.05800
C 	C 	0.31280 0.63180 0.50450 -0.16200
C 	C 	0.31060 0.72700 0.48960 0.06200
H 	H 	0.35170 0.76380 0.50000 -0.00200
C 	C 	0.24780 0.76870 0.45900 -0.16900
H 	H 	0.24630 0.83330 0.44930 0.06500
C 	C 	0.18770 0.71350 0.44320 0.05300
H 	H 	0.14480 0.74230 0.42510 -0.02400
C 	C 	0.18980 0.61720 0.45370 -0.18600
C 	C 	0.25200 0.46830 0.49580 0.10800
C 	C 	0.21090 0.42830 0.53040 -0.24300
C 	C 	0.20280 0.33040 0.53240 0.10800
H 	H 	0.17390 0.30470 0.55450 -0.06200
C 	C 	0.23690 0.26970 0.50220 -0.24300
H 	H 	0.23160 0.20370 0.50450 0.07500
C 	C 	0.27820 0.30690 0.46910 0.12200
H 	H 	0.30150 0.26620 0.44900 -0.05200
C 	C 	0.28570 0.40510 0.46530 -0.23900
C 	C 	0.38050 0.60000 0.54720 0.38200
C 	C 	0.12250 0.56000 0.42960 0.40100
C 	C 	0.17500 0.49110 0.56480 0.42300
C 	C 	0.32930 0.44130 0.42550 0.42100
C 	C 	0.58460 0.37380 0.80140 0.03000
C 	C 	0.51810 0.41250 0.80140 -0.19200
C 	C 	0.50410 0.44510 0.85290 0.06400
H 	H 	0.45940 0.46940 0.85230 -0.02100
C 	C 	0.55540 0.44190 0.90450 -0.17500
H 	H 	0.54610 0.46500 0.93860 0.06700
C 	C 	0.62120 0.40370 0.90490 0.06200
H 	H 	0.65610 0.40200 0.93960 -0.00300
C 	C 	0.63640 0.36810 0.85510 -0.17400
C 	C 	0.59840 0.33610 0.74650 0.13800
C 	C 	0.56400 0.25260 0.72260 -0.31000
C 	C 	0.57280 0.21890 0.66940 0.14700
H 	H 	0.54770 0.16540 0.65210 -0.06600
C 	C 	0.61810 0.26430 0.64280 -0.30300
H 	H 	0.62370 0.24130 0.60750 0.10300
C 	C 	0.65540 0.34320 0.66720 0.14000
H 	H 	0.68800 0.37120 0.64960 -0.08800
C 	C 	0.64470 0.38240 0.71900 -0.34700
C 	C 	0.45840 0.42040 0.74700 0.42100
C 	C 	0.70820 0.32530 0.85870 0.38900
C 	C 	0.51810 0.19780 0.75370 0.51800
C 	C 	0.68330 0.47320 0.74210 0.46900
C 	C 	0.10800 0.39430 0.80190 0.05700
C 	C 	0.17650 0.38800 0.84020 -0.18000
C 	C 	0.19090 0.43910 0.89220 0.06900
H 	H 	0.23630 0.43730 0.91670 -0.00800
C 	C 	0.13890 0.49280 0.90810 -0.17900
H 	H 	0.14850 0.52360 0.94390 0.06300
C 	C 	0.07180 0.50020 0.86990 0.08100
H 	H 	0.03700 0.53670 0.88030 -0.03500
C 	C 	0.05670 0.45430 0.81720 -0.20600
C 	C 	0.08650 0.33800 0.74740 0.09800
C 	C 	0.03530 0.26540 0.74400 -0.27000
C 	C 	0.00570 0.22070 0.69120 0.08900
H 	H 	0.96950 0.17620 0.68860 -0.05000
C 	C 	0.02970 0.24180 0.64280 -0.22200
H 	H 	0.00950 0.21200 0.60760 0.07000
C 	C 	0.08370 0.30720 0.64680 0.06600
H 	H 	0.10160 0.31880 0.61460 -0.04700
C 	C 	0.11210 0.35650 0.69910 -0.28500
C 	C 	0.23430 0.32640 0.82730 0.40200
C 	C 	0.98520 0.47530 0.77530 0.44700
C 	C 	0.01580 0.22810 0.79760 0.43100
C 	C 	0.16870 0.43270 0.70120 0.44400
O 	O 	0.37590 0.54370 0.58762 -0.54500
O 	O 	0.43790 0.63430 0.54146 -0.45600
O 	O 	0.06530 0.59150 0.43719 -0.46200
O 	O 	0.12560 0.48620 0.40073 -0.59400
O 	O 	0.11190 0.47340 0.56588 -0.49200
O 	O 	0.21010 0.56140 0.59203 -0.53000
O 	O 	0.39310 0.45640 0.44582 -0.49200
O 	O 	0.29850 0.45040 0.37180 -0.54600
O 	O 	0.47180 0.43330 0.69887 -0.56700
O 	O 	0.39630 0.41490 0.75431 -0.58900
O 	O 	0.76020 0.36960 0.88890 -0.47500
O 	O 	0.71360 0.25100 0.83070 -0.59700
O 	O 	0.54850 0.14620 0.79520 -0.63100
O 	O 	0.45300 0.20550 0.73640 -0.54700
O 	O 	0.64930 0.54810 0.74153 -0.60300
O 	O 	0.75110 0.46700 0.75984 -0.63400
O 	O 	0.21910 0.24770 0.80297 -0.61300
O 	O 	0.29610 0.35970 0.84270 -0.39100
O 	O 	0.93130 0.47700 0.79591 -0.59100
O 	O 	0.98240 0.49460 0.72370 -0.58200
O 	O 	0.95170 0.22390 0.79758 -0.62100
O 	O 	0.06500 0.19660 0.83789 -0.57800
O 	O 	0.15140 0.51800 0.70340 -0.55800
O 	O 	0.22970 0.40370 0.69970 -0.61500
O 	O 	0.58850 0.74060 0.64640 -0.90200
H 	H 	0.61270 0.74940 0.62160 0.32900
H 	H 	0.55580 0.78240 0.64130 0.33400
O 	O 	0.85340 0.36040 0.69430 -1.35300
H 	H 	0.82530 0.33710 0.67330 0.63100
H 	H 	0.89340 0.34370 0.68920 0.46800
O 	O 	0.88240 0.19670 0.90268 -0.98000
H 	H 	0.85380 0.14960 0.89620 0.32500
H 	H 	0.88070 0.22350 0.93450 0.33800
Ba	Ba	0.68237 0.74821 0.77033 1.73700
Ba	Ba	0.83590 0.57188 0.69408 1.96100
Ba	Ba	0.68011 0.06115 0.81513 1.86800
Ba	Ba	0.46847 0.05204 0.86189 2.02700
Ba	Ba	0.15623 0.82855 0.68658 1.93500
Ba	Ba	0.97790 0.05681 0.87340 1.96400
C 	C 	0.74710 0.07410 0.01450 0.07900
C 	C 	0.68720 0.13180 0.99550 -0.18500
C 	C 	0.68940 0.22700 0.01040 0.08500
H 	H 	0.64830 0.26380 -0.00000 -0.00900
C 	C 	0.75220 0.26870 0.04100 -0.18600
H 	H 	0.75370 0.33330 0.05070 0.07200
C 	C 	0.81230 0.21350 0.05680 0.06800
H 	H 	0.85520 0.24230 0.07490 -0.02900
C 	C 	0.81020 0.11720 0.04630 -0.19800
C 	C 	0.74800 0.96830 0.00420 0.09200
C 	C 	0.78910 0.92830 0.96960 -0.23200
C 	C 	0.79720 0.83040 0.96760 0.09800
H 	H 	0.82610 0.80470 0.94550 -0.05900
C 	C 	0.76310 0.76970 0.99780 -0.23000
H 	H 	0.76840 0.70370 0.99550 0.07000
C 	C 	0.72180 0.80690 0.03090 0.11000
H 	H 	0.69850 0.76620 0.05100 -0.04700
C 	C 	0.71430 0.90510 0.03470 -0.23000
C 	C 	0.61950 0.10000 0.95280 0.38900
C 	C 	0.87750 0.06000 0.07040 0.40800
C 	C 	0.82500 0.99110 0.93520 0.42500
C 	C 	0.67070 0.94130 0.07450 0.41700
C 	C 	0.41540 0.87380 0.69860 0.03000
C 	C 	0.48190 0.91250 0.69860 -0.19100
C 	C 	0.49590 0.94510 0.64710 0.06300
H 	H 	0.54060 0.96940 0.64770 -0.02100
C 	C 	0.44460 0.94190 0.59550 -0.17400
H 	H 	0.45390 0.96500 0.56140 0.06700
C 	C 	0.37880 0.90370 0.59510 0.06100
H 	H 	0.34390 0.90200 0.56040 -0.00200
C 	C 	0.36360 0.86810 0.64490 -0.17400
C 	C 	0.40160 0.83610 0.75350 0.13900
C 	C 	0.43600 0.75260 0.77740 -0.31000
C 	C 	0.42720 0.71890 0.83060 0.14800
H 	H 	0.45230 0.66540 0.84790 -0.06600
C 	C 	0.38190 0.76430 0.85720 -0.30300
H 	H 	0.37630 0.74130 0.89250 0.10400
C 	C 	0.34460 0.84320 0.83280 0.14100
H 	H 	0.31200 0.87120 0.85040 -0.08700
C 	C 	0.35530 0.88240 0.78100 -0.34800
C 	C 	0.54160 0.92040 0.75300 0.42100
C 	C 	0.29180 0.82530 0.64130 0.38900
C 	C 	0.48190 0.69780 0.74630 0.51900
C 	C 	0.31670 0.97320 0.75790 0.47200
C 	C 	0.89200 0.89430 0.69810 0.05000
C 	C 	0.82350 0.88800 0.65980 -0.17300
C 	C 	0.80910 0.93910 0.60780 0.05600
H 	H 	0.76370 0.93730 0.58330 -0.00300
C 	C 	0.86110 0.99280 0.59190 -0.15600
H 	H 	0.85150 0.02360 0.55610 0.05400
C 	C 	0.92820 0.00020 0.63010 0.05900
H 	H 	0.96300 0.03670 0.61970 -0.02800
C 	C 	0.94330 0.95430 0.68280 -0.19300
C 	C 	0.91350 0.83800 0.75260 0.10000
C 	C 	0.96470 0.76540 0.75600 -0.26900
C 	C 	0.99430 0.72070 0.80880 0.08400
H 	H 	0.03050 0.67620 0.81140 -0.04600
C 	C 	0.97030 0.74180 0.85720 -0.21900
H 	H 	0.99050 0.71200 0.89240 0.06900
C 	C 	0.91630 0.80720 0.85320 0.06600
H 	H 	0.89840 0.81880 0.88540 -0.04600
C 	C 	0.88790 0.85650 0.80090 -0.28500
C 	C 	0.76570 0.82640 0.67270 0.40000
C 	C 	0.01480 0.97530 0.72470 0.44200
C 	C 	0.98420 0.72810 0.70240 0.42800
C 	C 	0.83130 0.93270 0.79880 0.44900
O 	O 	0.62410 0.04370 0.91238 -0.54800
O 	O 	0.56210 0.13430 0.95854 -0.45900
O 	O 	0.93470 0.09150 0.06281 -0.46100
O 	O 	0.87440 0.98620 0.09927 -0.59600
O 	O 	0.88810 0.97340 0.93412 -0.48900
O 	O 	0.78990 0.06140 0.90797 -0.53400
O 	O 	0.60690 0.95640 0.05418 -0.49100
O 	O 	0.70150 0.95040 0.12820 -0.54500
O 	O 	0.52820 0.93330 0.80113 -0.56500
O 	O 	0.60370 0.91490 0.74569 -0.58700
O 	O 	0.23980 0.86960 0.61110 -0.47400
O 	O 	0.28640 0.75100 0.66930 -0.59700
O 	O 	0.45150 0.64620 0.70480 -0.63100
O 	O 	0.54700 0.70550 0.76360 -0.54700
O 	O 	0.35070 0.04810 0.75847 -0.60400
O 	O 	0.24890 0.96700 0.74016 -0.63400
O 	O 	0.78090 0.74770 0.69703 -0.61300
O 	O 	0.70390 0.85970 0.65730 -0.39000
O 	O 	0.06870 0.97700 0.70409 -0.58900
O 	O 	0.01760 0.99460 0.77630 -0.57700
O 	O 	0.04830 0.72390 0.70242 -0.62000
O 	O 	0.93500 0.69660 0.66211 -0.57900
O 	O 	0.84860 0.01800 0.79660 -0.56100
O 	O 	0.77030 0.90370 0.80030 -0.61500
O 	O 	0.41150 0.24060 0.85360 -0.90100
H 	H 	0.38730 0.24940 0.87840 0.32800
H 	H 	0.44420 0.28240 0.85870 0.33400
O 	O 	0.14660 0.86040 0.80570 -1.35300
H 	H 	0.17470 0.83710 0.82670 0.63200
H 	H 	0.10660 0.84370 0.81080 0.46900
O 	O 	0.11760 0.69670 0.59732 -0.98100
H 	H 	0.14620 0.64960 0.60380 0.32500
H 	H 	0.11930 0.72350 0.56550 0.33900
