data_crystal

_cell_length_a 9.32340
_cell_length_b 18.82300
_cell_length_c 18.82300
_cell_angle_alpha 62.67030
_cell_angle_beta  80.49660
_cell_angle_gamma 99.50340

_symmetry_space_group_name_	'P 1'
_symmetry_space_group_name_H-M	'P 1'

loop_
_symmetry_equiv_pos_as_xyz
  x,y,z

loop_
_atom_site_label
_atom_site_type_symbol
_atom_site_fract_x
_atom_site_fract_y
_atom_site_fract_z
_atom_site_charge
Sn	Sn	0.88542 0.49437 0.44323 1.34700
Sn	Sn	0.57114 0.00209 0.66504 1.35300
Sn	Sn	0.32865 0.44323 0.06240 1.34700
Sn	Sn	0.23618 0.66504 0.33287 1.35300
Sn	Sn	0.39105 0.06240 0.49437 1.34700
Sn	Sn	0.56905 0.33287 0.00209 1.35400
Sn	Sn	0.11458 0.50563 0.55677 1.34700
Sn	Sn	0.42886 0.99791 0.33496 1.35300
Sn	Sn	0.67135 0.55677 0.93760 1.34700
Sn	Sn	0.76382 0.33496 0.66713 1.35300
Sn	Sn	0.60895 0.93760 0.50563 1.34600
Sn	Sn	0.43095 0.66713 0.99791 1.35300
H 	H 	0.39640 0.21920 0.69330 0.14500
H 	H 	0.25310 0.14620 0.71450 0.13500
H 	H 	0.11930 0.15960 0.62050 0.08800
H 	H 	0.06910 0.23320 0.49400 -0.04000
H 	H 	0.24970 0.35320 0.38540 0.07100
H 	H 	0.47650 0.39930 0.40750 -0.01400
H 	H 	0.86100 0.05560 0.59660 0.22900
H 	H 	0.82980 0.06030 0.68020 0.22400
H 	H 	0.80440 0.13090 0.59780 0.22900
H 	H 	0.30650 0.94980 0.76950 0.23600
H 	H 	0.41200 0.89680 0.81700 0.25300
H 	H 	0.33640 0.87460 0.75670 0.22600
H 	H 	0.05900 0.44920 0.35810 0.23900
H 	H 	0.94650 0.36690 0.43750 0.22800
H 	H 	0.88870 0.41780 0.35820 0.25100
H 	H 	0.68170 0.57500 0.43320 0.24900
H 	H 	0.83530 0.63170 0.42840 0.23000
H 	H 	0.81400 0.62750 0.34770 0.23500
H 	H 	0.08970 0.69330 0.08750 0.14500
H 	H 	0.96760 0.71450 0.13930 0.13400
H 	H 	0.73980 0.62050 0.21990 0.08800
H 	H 	0.56310 0.49400 0.27280 -0.03900
H 	H 	0.63510 0.38540 0.26140 0.07100
H 	H 	0.88400 0.40750 0.19320 -0.01400
H 	H 	0.45760 0.59660 0.34780 0.22800
H 	H 	0.51000 0.68020 0.25950 0.22300
H 	H 	0.40220 0.59780 0.27130 0.22900
H 	H 	0.07600 0.76950 0.28070 0.23600
H 	H 	0.22900 0.81700 0.28620 0.25300
H 	H 	0.09310 0.75670 0.36870 0.22600
H 	H 	0.41710 0.35810 0.19270 0.24000
H 	H 	0.38400 0.43750 0.19560 0.22800
H 	H 	0.24690 0.35820 0.22400 0.25100
H 	H 	0.11490 0.43320 0.99180 0.24800
H 	H 	0.26370 0.42840 0.93990 0.22900
H 	H 	0.16170 0.34770 0.02480 0.23300
H 	H 	0.17720 0.08750 0.21920 0.14400
H 	H 	0.10690 0.13930 0.14620 0.13300
H 	H 	0.95970 0.21990 0.15960 0.08700
H 	H 	0.83590 0.27280 0.23320 -0.03700
H 	H 	0.89650 0.26140 0.35320 0.06900
H 	H 	0.07720 0.19320 0.39930 -0.01200
H 	H 	0.80540 0.34780 0.05560 0.22800
H 	H 	0.76950 0.25950 0.06030 0.22400
H 	H 	0.67350 0.27130 0.13090 0.22900
H 	H 	0.35670 0.28070 0.94980 0.23500
H 	H 	0.51520 0.28620 0.89680 0.25300
H 	H 	0.46180 0.36870 0.87460 0.22600
H 	H 	0.60980 0.19270 0.44920 0.24000
H 	H 	0.57960 0.19560 0.36690 0.22800
H 	H 	0.47090 0.22400 0.41780 0.25100
H 	H 	0.10670 0.99180 0.57500 0.24800
H 	H 	0.20360 0.93990 0.63170 0.22900
H 	H 	0.18650 0.02480 0.62750 0.23200
H 	H 	0.60360 0.78080 0.30670 0.14500
H 	H 	0.74690 0.85380 0.28550 0.13500
H 	H 	0.88070 0.84040 0.37950 0.08800
H 	H 	0.93090 0.76680 0.50600 -0.04000
H 	H 	0.75030 0.64680 0.61460 0.07100
H 	H 	0.52350 0.60070 0.59250 -0.01400
H 	H 	0.13900 0.94440 0.40340 0.22900
H 	H 	0.17020 0.93970 0.31980 0.22400
H 	H 	0.19560 0.86910 0.40220 0.22900
H 	H 	0.69350 0.05020 0.23050 0.23600
H 	H 	0.58800 0.10320 0.18300 0.25300
H 	H 	0.66360 0.12540 0.24330 0.22600
H 	H 	0.94100 0.55080 0.64190 0.23900
H 	H 	0.05350 0.63310 0.56250 0.22800
H 	H 	0.11130 0.58220 0.64180 0.25100
H 	H 	0.31830 0.42500 0.56680 0.24900
H 	H 	0.16470 0.36830 0.57160 0.23000
H 	H 	0.18600 0.37250 0.65230 0.23500
H 	H 	0.91030 0.30670 0.91250 0.14500
H 	H 	0.03240 0.28550 0.86070 0.13400
H 	H 	0.26020 0.37950 0.78010 0.08800
H 	H 	0.43690 0.50600 0.72720 -0.03900
H 	H 	0.36490 0.61460 0.73860 0.07100
H 	H 	0.11600 0.59250 0.80680 -0.01400
H 	H 	0.54240 0.40340 0.65220 0.22800
H 	H 	0.49000 0.31980 0.74050 0.22300
H 	H 	0.59780 0.40220 0.72870 0.22900
H 	H 	0.92400 0.23050 0.71930 0.23600
H 	H 	0.77100 0.18300 0.71380 0.25300
H 	H 	0.90690 0.24330 0.63130 0.22600
H 	H 	0.58290 0.64190 0.80730 0.24000
H 	H 	0.61600 0.56250 0.80440 0.22800
H 	H 	0.75310 0.64180 0.77600 0.25100
H 	H 	0.88510 0.56680 0.00820 0.24800
H 	H 	0.73630 0.57160 0.06010 0.22900
H 	H 	0.83830 0.65230 0.97520 0.23300
H 	H 	0.82280 0.91250 0.78080 0.14400
H 	H 	0.89310 0.86070 0.85380 0.13300
H 	H 	0.04030 0.78010 0.84040 0.08700
H 	H 	0.16410 0.72720 0.76680 -0.03700
H 	H 	0.10350 0.73860 0.64680 0.06900
H 	H 	0.92280 0.80680 0.60070 -0.01200
H 	H 	0.19460 0.65220 0.94440 0.22800
H 	H 	0.23050 0.74050 0.93970 0.22400
H 	H 	0.32650 0.72870 0.86910 0.22900
H 	H 	0.64330 0.71930 0.05020 0.23500
H 	H 	0.48480 0.71380 0.10320 0.25300
H 	H 	0.53820 0.63130 0.12540 0.22600
H 	H 	0.39020 0.80730 0.55080 0.24000
H 	H 	0.42040 0.80440 0.63310 0.22800
H 	H 	0.52910 0.77600 0.58220 0.25100
H 	H 	0.89330 0.00820 0.42500 0.24800
H 	H 	0.79640 0.06010 0.36830 0.22900
H 	H 	0.81350 0.97520 0.37250 0.23200
C 	C 	0.45454 0.12583 0.67781 0.42800
C 	C 	0.35317 0.18124 0.67463 -0.45200
C 	C 	0.33055 0.23256 0.59041 0.24500
C 	C 	0.19386 0.20797 0.57689 -0.27500
C 	C 	0.16328 0.25196 0.50172 0.10600
C 	C 	0.26938 0.32317 0.43763 -0.21400
C 	C 	0.40433 0.34975 0.45086 0.10400
C 	C 	0.43710 0.30587 0.52587 -0.24500
C 	C 	0.58482 0.34138 0.53492 0.39100
C 	C 	0.79666 0.07148 0.63030 -0.86200
C 	C 	0.38118 0.91989 0.76545 -0.87900
C 	C 	0.95404 0.42249 0.39247 -0.88200
C 	C 	0.79163 0.59568 0.40849 -0.88600
C 	C 	0.13235 0.67781 0.19636 0.42800
C 	C 	0.02780 0.67463 0.14413 -0.45100
C 	C 	0.92096 0.59041 0.17703 0.24500
C 	C 	0.77075 0.57689 0.21514 -0.27500
C 	C 	0.66500 0.50172 0.24632 0.10600
C 	C 	0.70701 0.43763 0.23920 -0.21300
C 	C 	0.85519 0.45086 0.19939 0.10400
C 	C 	0.96297 0.52587 0.16826 -0.24400
C 	C 	0.11974 0.53492 0.12370 0.39000
C 	C 	0.42696 0.63030 0.29822 -0.86200
C 	C 	0.14663 0.76545 0.31466 -0.87900
C 	C 	0.34651 0.39247 0.18504 -0.88300
C 	C 	0.20012 0.40849 0.99583 -0.88300
C 	C 	0.32871 0.19636 0.12583 0.42700
C 	C 	0.17193 0.14413 0.18124 -0.44900
C 	C 	0.09799 0.17703 0.23256 0.23900
C 	C 	0.98589 0.21514 0.20797 -0.26800
C 	C 	0.91132 0.24632 0.25196 0.10000
C 	C 	0.94621 0.23920 0.32317 -0.20600
C 	C 	0.05458 0.19939 0.34975 0.09700
C 	C 	0.13123 0.16826 0.30587 -0.24100
C 	C 	0.24344 0.12370 0.34138 0.38900
C 	C 	0.72518 0.29822 0.07148 -0.86200
C 	C 	0.46129 0.31466 0.91989 -0.87800
C 	C 	0.53155 0.18504 0.42249 -0.88300
C 	C 	0.19595 0.99583 0.59568 -0.88100
C 	C 	0.54546 0.87417 0.32219 0.42800
C 	C 	0.64683 0.81876 0.32537 -0.45200
C 	C 	0.66945 0.76744 0.40959 0.24500
C 	C 	0.80614 0.79203 0.42311 -0.27500
C 	C 	0.83672 0.74804 0.49828 0.10600
C 	C 	0.73062 0.67683 0.56237 -0.21400
C 	C 	0.59567 0.65025 0.54914 0.10400
C 	C 	0.56290 0.69413 0.47413 -0.24500
C 	C 	0.41518 0.65862 0.46508 0.39100
C 	C 	0.20334 0.92852 0.36970 -0.86200
C 	C 	0.61882 0.08011 0.23455 -0.87900
C 	C 	0.04596 0.57751 0.60753 -0.88200
C 	C 	0.20837 0.40432 0.59151 -0.88600
C 	C 	0.86765 0.32219 0.80364 0.42800
C 	C 	0.97220 0.32537 0.85587 -0.45100
C 	C 	0.07904 0.40959 0.82297 0.24500
C 	C 	0.22925 0.42311 0.78486 -0.27500
C 	C 	0.33500 0.49828 0.75368 0.10600
C 	C 	0.29299 0.56237 0.76080 -0.21300
C 	C 	0.14481 0.54914 0.80061 0.10400
C 	C 	0.03703 0.47413 0.83174 -0.24400
C 	C 	0.88026 0.46508 0.87630 0.39000
C 	C 	0.57304 0.36970 0.70178 -0.86200
C 	C 	0.85337 0.23455 0.68534 -0.87900
C 	C 	0.65349 0.60753 0.81496 -0.88300
C 	C 	0.79988 0.59151 0.00417 -0.88300
C 	C 	0.67129 0.80364 0.87417 0.42700
C 	C 	0.82807 0.85587 0.81876 -0.44900
C 	C 	0.90201 0.82297 0.76744 0.23900
C 	C 	0.01411 0.78486 0.79203 -0.26800
C 	C 	0.08868 0.75368 0.74804 0.10000
C 	C 	0.05379 0.76080 0.67683 -0.20600
C 	C 	0.94542 0.80061 0.65025 0.09700
C 	C 	0.86877 0.83174 0.69413 -0.24100
C 	C 	0.75656 0.87630 0.65862 0.38900
C 	C 	0.27482 0.70178 0.92852 -0.86200
C 	C 	0.53871 0.68534 0.08011 -0.87800
C 	C 	0.46845 0.81496 0.57751 -0.88300
C 	C 	0.80405 0.00417 0.40432 -0.88100
O 	O 	0.47034 0.10503 0.62131 -0.49500
O 	O 	0.51293 0.09774 0.73585 -0.39800
O 	O 	0.63969 0.29515 0.58988 -0.44700
O 	O 	0.64538 0.41832 0.48568 -0.46300
O 	O 	0.89592 0.43979 0.56313 -0.68900
O 	O 	0.09165 0.62131 0.27366 -0.49500
O 	O 	0.24878 0.73585 0.16641 -0.39800
O 	O 	0.22957 0.58988 0.11497 -0.44700
O 	O 	0.13106 0.48568 0.09600 -0.46400
O 	O 	0.45905 0.56313 0.99708 -0.68900
O 	O 	0.36531 0.27366 0.10503 -0.49400
O 	O 	0.41519 0.16641 0.09774 -0.39700
O 	O 	0.34454 0.11497 0.29515 -0.44700
O 	O 	0.22706 0.09600 0.41832 -0.46400
O 	O 	0.45613 0.99708 0.43979 -0.68900
O 	O 	0.52966 0.89497 0.37869 -0.49500
O 	O 	0.48707 0.90226 0.26415 -0.39800
O 	O 	0.36031 0.70485 0.41012 -0.44700
O 	O 	0.35462 0.58168 0.51432 -0.46300
O 	O 	0.10408 0.56021 0.43687 -0.68900
O 	O 	0.90835 0.37869 0.72634 -0.49500
O 	O 	0.75122 0.26415 0.83359 -0.39800
O 	O 	0.77043 0.41012 0.88503 -0.44700
O 	O 	0.86894 0.51432 0.90400 -0.46400
O 	O 	0.54095 0.43687 0.00292 -0.68900
O 	O 	0.63469 0.72634 0.89497 -0.49400
O 	O 	0.58481 0.83359 0.90226 -0.39700
O 	O 	0.65546 0.88503 0.70485 -0.44700
O 	O 	0.77294 0.90400 0.58168 -0.46400
O 	O 	0.54387 0.00292 0.56021 -0.68900
