data_crystal

_cell_length_a 15.38500
_cell_length_b 6.72600
_cell_length_c 14.24100
_cell_angle_alpha 90.00000
_cell_angle_beta  90.00000
_cell_angle_gamma 90.00000

_symmetry_space_group_name_	'P 1'
_symmetry_space_group_name_H-M	'P 1'

loop_
_symmetry_equiv_pos_as_xyz
  x,y,z

loop_
_atom_site_label
_atom_site_type_symbol
_atom_site_fract_x
_atom_site_fract_y
_atom_site_fract_z
_atom_site_charge
O 	O 	0.14660 0.58580 0.64020 -0.53500
O 	O 	0.21030 0.59010 0.25000 -0.45400
O 	O 	0.31680 0.06900 0.56910 -0.94200
H 	H 	0.31530 0.95630 0.59090 0.58600
H 	H 	0.29040 0.90190 0.56030 -0.36700
O 	O 	0.29220 0.01100 0.53500 0.40900
O 	O 	0.35340 0.41420 0.14020 -0.53500
O 	O 	0.28970 0.40990 0.75000 -0.45400
O 	O 	0.18320 0.93100 0.06910 -0.96000
H 	H 	0.18470 0.04370 0.09090 0.59500
H 	H 	0.20960 0.09810 0.06030 -0.38000
O 	O 	0.20780 0.98900 0.03500 0.42900
O 	O 	0.85340 0.08580 0.35980 -0.53400
O 	O 	0.78970 0.09010 0.75000 -0.45400
O 	O 	0.68320 0.56900 0.43090 -0.97300
H 	H 	0.68470 0.45630 0.40910 0.60300
H 	H 	0.70960 0.40190 0.43970 -0.38800
O 	O 	0.70780 0.51100 0.46500 0.44000
O 	O 	0.64660 0.91420 0.85980 -0.53500
O 	O 	0.71030 0.90990 0.25000 -0.45500
O 	O 	0.81680 0.43100 0.93090 -0.96100
H 	H 	0.81530 0.54370 0.90910 0.59700
H 	H 	0.79040 0.59810 0.93970 -0.38000
O 	O 	0.79220 0.48900 0.96500 0.42800
O 	O 	0.85340 0.41420 0.35980 -0.53500
O 	O 	0.78970 0.40990 0.75000 -0.45400
O 	O 	0.68320 0.93100 0.43090 -0.94200
H 	H 	0.68470 0.04370 0.40910 0.58600
H 	H 	0.70960 0.09810 0.43970 -0.36700
O 	O 	0.70780 0.98900 0.46500 0.40900
O 	O 	0.64660 0.58580 0.85980 -0.53500
O 	O 	0.71030 0.59010 0.25000 -0.45400
O 	O 	0.81680 0.06900 0.93090 -0.96000
H 	H 	0.81530 0.95630 0.90910 0.59500
H 	H 	0.79040 0.90190 0.93970 -0.38000
O 	O 	0.79220 0.01100 0.96500 0.42900
O 	O 	0.14660 0.91420 0.64020 -0.53400
O 	O 	0.21030 0.90990 0.25000 -0.45400
O 	O 	0.31680 0.43100 0.56910 -0.97300
H 	H 	0.31530 0.54370 0.59090 0.60300
H 	H 	0.29040 0.59810 0.56030 -0.38800
O 	O 	0.29220 0.48900 0.53500 0.44000
O 	O 	0.35340 0.08580 0.14020 -0.53500
O 	O 	0.28970 0.09010 0.75000 -0.45500
O 	O 	0.18320 0.56900 0.06910 -0.96100
H 	H 	0.18470 0.45630 0.09090 0.59700
H 	H 	0.20960 0.40190 0.06030 -0.38000
O 	O 	0.20780 0.51100 0.03500 0.42800
C 	C 	0.92780 0.75000 0.56770 0.32300
C 	C 	0.99750 0.75000 0.49310 -0.00400
C 	C 	0.08550 0.75000 0.50850 -0.08000
C 	C 	0.12850 0.75000 0.60450 0.49300
C 	C 	0.17640 0.75000 0.27340 0.39100
C 	C 	0.10880 0.75000 0.34770 -0.03900
C 	C 	0.02110 0.75000 0.33300 0.02000
C 	C 	0.97470 0.75000 0.23730 0.32000
N 	N 	0.96670 0.75000 0.40450 -0.20700
N 	N 	0.14220 0.75000 0.43740 -0.09600
O 	O 	0.84860 0.75000 0.53590 -0.49800
O 	O 	0.95020 0.75000 0.65050 -0.26800
O 	O 	0.02140 0.75000 0.16580 -0.19500
O 	O 	0.89330 0.75000 0.23840 -0.44300
C 	C 	0.57220 0.25000 0.06770 0.32300
C 	C 	0.50250 0.25000 0.99310 -0.00200
C 	C 	0.41450 0.25000 0.00850 -0.08100
C 	C 	0.37150 0.25000 0.10450 0.49400
C 	C 	0.32360 0.25000 0.77340 0.39100
C 	C 	0.39120 0.25000 0.84770 -0.03900
C 	C 	0.47890 0.25000 0.83300 0.01700
C 	C 	0.52530 0.25000 0.73730 0.32400
N 	N 	0.53330 0.25000 0.90450 -0.20600
N 	N 	0.35780 0.25000 0.93740 -0.09600
O 	O 	0.65140 0.25000 0.03590 -0.49800
O 	O 	0.54980 0.25000 0.15050 -0.26800
O 	O 	0.47860 0.25000 0.66580 -0.19700
O 	O 	0.60670 0.25000 0.73840 -0.44300
C 	C 	0.07220 0.25000 0.43230 0.32300
C 	C 	0.00250 0.25000 0.50690 -0.00400
C 	C 	0.91450 0.25000 0.49150 -0.08000
C 	C 	0.87150 0.25000 0.39550 0.49300
C 	C 	0.82360 0.25000 0.72660 0.39100
C 	C 	0.89120 0.25000 0.65230 -0.03900
C 	C 	0.97890 0.25000 0.66700 0.02000
C 	C 	0.02530 0.25000 0.76270 0.32000
N 	N 	0.03330 0.25000 0.59550 -0.20700
N 	N 	0.85780 0.25000 0.56260 -0.09600
O 	O 	0.15140 0.25000 0.46410 -0.49800
O 	O 	0.04980 0.25000 0.34950 -0.26800
O 	O 	0.97860 0.25000 0.83420 -0.19500
O 	O 	0.10670 0.25000 0.76160 -0.44300
C 	C 	0.42780 0.75000 0.93230 0.32300
C 	C 	0.49750 0.75000 0.00690 -0.00200
C 	C 	0.58550 0.75000 0.99150 -0.08100
C 	C 	0.62850 0.75000 0.89550 0.49400
C 	C 	0.67640 0.75000 0.22660 0.39100
C 	C 	0.60880 0.75000 0.15230 -0.03900
C 	C 	0.52110 0.75000 0.16700 0.01700
C 	C 	0.47470 0.75000 0.26270 0.32400
N 	N 	0.46670 0.75000 0.09550 -0.20600
N 	N 	0.64220 0.75000 0.06260 -0.09600
O 	O 	0.34860 0.75000 0.96410 -0.49800
O 	O 	0.45020 0.75000 0.84950 -0.26800
O 	O 	0.52140 0.75000 0.33420 -0.19700
O 	O 	0.39330 0.75000 0.26160 -0.44300
Eu	Eu	0.19677 0.25000 0.62385 2.23100
K 	K 	0.26830 0.25000 0.31010 0.65900
Eu	Eu	0.30323 0.75000 0.12385 2.23400
K 	K 	0.23170 0.75000 0.81010 0.66000
Eu	Eu	0.80323 0.75000 0.37615 2.23100
K 	K 	0.73170 0.75000 0.68990 0.65900
Eu	Eu	0.69677 0.25000 0.87615 2.23400
K 	K 	0.76830 0.25000 0.18990 0.66000
