data_crystal

_cell_length_a 15.09330
_cell_length_b 15.09330
_cell_length_c 10.05870
_cell_angle_alpha 90.00000
_cell_angle_beta  90.00000
_cell_angle_gamma 90.00000

_symmetry_space_group_name_	'P 1'
_symmetry_space_group_name_H-M	'P 1'

loop_
_symmetry_equiv_pos_as_xyz
  x,y,z

loop_
_atom_site_label
_atom_site_type_symbol
_atom_site_fract_x
_atom_site_fract_y
_atom_site_fract_z
_atom_site_charge
Li	Li	0.44400 0.19060 0.36170 0.54600
O 	O 	0.39032 0.12306 0.49200 -0.53900
O 	O 	0.33320 0.07630 0.68130 -0.55800
O 	O 	0.08849 0.43546 0.62030 -0.52300
O 	O 	0.07092 0.34479 0.79400 -0.47000
N 	N 	0.20990 0.31920 0.50670 -0.15300
H 	H 	0.19600 0.35700 0.44800 0.10800
N 	N 	0.27270 0.25950 0.47900 -0.08500
C 	C 	0.33480 0.12890 0.58470 0.37800
C 	C 	0.26930 0.20210 0.57930 -0.10600
C 	C 	0.20450 0.22510 0.67120 0.01500
H 	H 	0.18960 0.19510 0.74880 -0.01700
C 	C 	0.16730 0.30160 0.62310 -0.08400
C 	C 	0.10340 0.36480 0.68260 0.33400
Li	Li	0.55600 0.80940 0.36170 0.54900
O 	O 	0.60968 0.87694 0.49200 -0.44200
O 	O 	0.66680 0.92370 0.68130 -0.40000
O 	O 	0.91151 0.56454 0.62030 -0.40400
O 	O 	0.92908 0.65521 0.79400 -0.32800
N 	N 	0.79010 0.68080 0.50670 -0.15800
H 	H 	0.80400 0.64300 0.44800 0.13400
N 	N 	0.72730 0.74050 0.47900 -0.07500
C 	C 	0.66520 0.87110 0.58470 0.36400
C 	C 	0.73070 0.79790 0.57930 -0.03200
C 	C 	0.79550 0.77490 0.67120 -0.00900
H 	H 	0.81040 0.80490 0.74880 0.06100
C 	C 	0.83270 0.69840 0.62310 -0.00100
C 	C 	0.89660 0.63520 0.68260 0.32200
Li	Li	0.19060 0.55600 0.63830 0.54700
O 	O 	0.12306 0.60968 0.50800 -0.53100
O 	O 	0.07630 0.66680 0.31870 -0.53900
O 	O 	0.43546 0.91151 0.37970 -0.40700
O 	O 	0.34479 0.92908 0.20600 -0.34400
N 	N 	0.31920 0.79010 0.49330 -0.15700
H 	H 	0.35700 0.80400 0.55200 0.12800
N 	N 	0.25950 0.72730 0.52100 -0.07900
C 	C 	0.12890 0.66520 0.41530 0.37800
C 	C 	0.20210 0.73070 0.42070 -0.07800
C 	C 	0.22510 0.79550 0.32880 0.00300
H 	H 	0.19510 0.81040 0.25120 0.02200
C 	C 	0.30160 0.83270 0.37690 -0.02500
C 	C 	0.36480 0.89660 0.31740 0.32500
Li	Li	0.80940 0.44400 0.63830 0.54900
O 	O 	0.87694 0.39032 0.50800 -0.44900
O 	O 	0.92370 0.33320 0.31870 -0.41900
O 	O 	0.56454 0.08849 0.37970 -0.52000
O 	O 	0.65521 0.07092 0.20600 -0.45400
N 	N 	0.68080 0.20990 0.49330 -0.15300
H 	H 	0.64300 0.19600 0.55200 0.11300
N 	N 	0.74050 0.27270 0.52100 -0.08100
C 	C 	0.87110 0.33480 0.41530 0.36300
C 	C 	0.79790 0.26930 0.42070 -0.05900
C 	C 	0.77490 0.20450 0.32880 0.00300
H 	H 	0.80490 0.18960 0.25120 0.02200
C 	C 	0.69840 0.16730 0.37690 -0.06000
C 	C 	0.63520 0.10340 0.31740 0.33100
Li	Li	0.05600 0.69060 0.13830 0.54000
O 	O 	0.10968 0.62306 0.00800 -0.54000
O 	O 	0.16680 0.57630 0.81870 -0.50300
O 	O 	0.41151 0.93546 0.87970 -0.38400
O 	O 	0.42908 0.84479 0.70600 -0.37300
N 	N 	0.29010 0.81920 0.99330 -0.16100
H 	H 	0.30400 0.85700 0.05200 0.13400
N 	N 	0.22730 0.75950 0.02100 -0.08000
C 	C 	0.16520 0.62890 0.91530 0.37100
C 	C 	0.23070 0.70210 0.92070 -0.07800
C 	C 	0.29550 0.72510 0.82880 -0.00000
H 	H 	0.31040 0.69510 0.75120 0.02200
C 	C 	0.33270 0.80160 0.87690 -0.02900
C 	C 	0.39660 0.86480 0.81740 0.31700
Li	Li	0.94400 0.30940 0.13830 0.55600
O 	O 	0.89032 0.37694 0.00800 -0.44200
O 	O 	0.83320 0.42370 0.81870 -0.45600
O 	O 	0.58849 0.06454 0.87970 -0.54300
O 	O 	0.57092 0.15521 0.70600 -0.42600
N 	N 	0.70990 0.18080 0.99330 -0.15000
H 	H 	0.69600 0.14300 0.05200 0.10700
N 	N 	0.77270 0.24050 0.02100 -0.08100
C 	C 	0.83480 0.37110 0.91530 0.37100
C 	C 	0.76930 0.29790 0.92070 -0.06100
C 	C 	0.70450 0.27490 0.82880 0.00700
H 	H 	0.68960 0.30490 0.75120 0.02100
C 	C 	0.66730 0.19840 0.87690 -0.05700
C 	C 	0.60340 0.13520 0.81740 0.33800
Li	Li	0.30940 0.05600 0.86170 0.53700
O 	O 	0.37694 0.10968 0.99200 -0.54900
O 	O 	0.42370 0.16680 0.18130 -0.50700
O 	O 	0.06454 0.41151 0.12030 -0.54900
O 	O 	0.15521 0.42908 0.29400 -0.42900
N 	N 	0.18080 0.29010 0.00670 -0.15700
H 	H 	0.14300 0.30400 0.94800 0.10000
N 	N 	0.24050 0.22730 0.97900 -0.09600
C 	C 	0.37110 0.16520 0.08470 0.36900
C 	C 	0.29790 0.23070 0.07930 -0.09100
C 	C 	0.27490 0.29550 0.17120 0.00800
H 	H 	0.30490 0.31040 0.24880 0.01500
C 	C 	0.19840 0.33270 0.12310 -0.07000
C 	C 	0.13520 0.39660 0.18260 0.33500
Li	Li	0.69060 0.94400 0.86170 0.55900
O 	O 	0.62306 0.89032 0.99200 -0.43200
O 	O 	0.57630 0.83320 0.18130 -0.45100
O 	O 	0.93546 0.58849 0.12030 -0.37800
O 	O 	0.84479 0.57092 0.29400 -0.37000
N 	N 	0.81920 0.70990 0.00670 -0.15400
H 	H 	0.85700 0.69600 0.94800 0.14200
N 	N 	0.75950 0.77270 0.97900 -0.06500
C 	C 	0.62890 0.83480 0.08470 0.37200
C 	C 	0.70210 0.76930 0.07930 -0.04800
C 	C 	0.72510 0.70450 0.17120 -0.00100
H 	H 	0.69510 0.68960 0.24880 0.02800
C 	C 	0.80160 0.66730 0.12310 -0.01600
C 	C 	0.86480 0.60340 0.18260 0.32000
Ba	Ba	0.50000 0.00000 0.60891 1.57800
Ba	Ba	0.00000 0.50000 0.39109 1.57700
Ba	Ba	-0.00000 0.50000 0.89109 1.57400
Ba	Ba	0.50000 0.00000 0.10891 1.57300
