data_crystal

_cell_length_a 14.72460
_cell_length_b 14.72460
_cell_length_c 10.22360
_cell_angle_alpha 90.00000
_cell_angle_beta  90.00000
_cell_angle_gamma 90.00000

_symmetry_space_group_name_	'P 1'
_symmetry_space_group_name_H-M	'P 1'

loop_
_symmetry_equiv_pos_as_xyz
  x,y,z

loop_
_atom_site_label
_atom_site_type_symbol
_atom_site_fract_x
_atom_site_fract_y
_atom_site_fract_z
_atom_site_charge
Li	Li	0.44940 0.18190 0.36370 0.55000
O 	O 	0.39131 0.11764 0.49580 -0.54300
O 	O 	0.34170 0.07351 0.68731 -0.55400
O 	O 	0.08477 0.43701 0.61237 -0.53000
O 	O 	0.07493 0.35931 0.79901 -0.47400
N 	N 	0.20223 0.31331 0.50880 -0.14800
H 	H 	0.18800 0.35270 0.45100 0.11000
N 	N 	0.26547 0.25151 0.48060 -0.07900
C 	C 	0.33785 0.12455 0.58980 0.38500
C 	C 	0.26825 0.19772 0.58550 -0.10200
C 	C 	0.20631 0.22502 0.68000 0.01900
H 	H 	0.19520 0.19790 0.76060 -0.01000
C 	C 	0.16490 0.30076 0.62870 -0.08200
C 	C 	0.10206 0.37004 0.68350 0.34400
Li	Li	0.55060 0.81810 0.36370 0.55300
O 	O 	0.60869 0.88236 0.49580 -0.44500
O 	O 	0.65830 0.92649 0.68731 -0.40000
O 	O 	0.91523 0.56299 0.61237 -0.40900
O 	O 	0.92507 0.64069 0.79901 -0.34300
N 	N 	0.79777 0.68669 0.50880 -0.15000
H 	H 	0.81200 0.64730 0.45100 0.13600
N 	N 	0.73453 0.74849 0.48060 -0.06500
C 	C 	0.66215 0.87545 0.58980 0.37000
C 	C 	0.73175 0.80228 0.58550 -0.02700
C 	C 	0.79369 0.77498 0.68000 -0.00300
H 	H 	0.80480 0.80210 0.76060 0.06300
C 	C 	0.83510 0.69924 0.62870 -0.00000
C 	C 	0.89794 0.62996 0.68350 0.33600
Li	Li	0.18190 0.55060 0.63630 0.55100
O 	O 	0.11764 0.60869 0.50420 -0.53500
O 	O 	0.07351 0.65830 0.31269 -0.53700
O 	O 	0.43701 0.91523 0.38763 -0.41200
O 	O 	0.35931 0.92507 0.20099 -0.35600
N 	N 	0.31331 0.79777 0.49120 -0.15000
H 	H 	0.35270 0.81200 0.54900 0.13100
N 	N 	0.25151 0.73453 0.51940 -0.07100
C 	C 	0.12455 0.66215 0.41020 0.38600
C 	C 	0.19772 0.73175 0.41450 -0.07500
C 	C 	0.22502 0.79369 0.32000 0.00800
H 	H 	0.19790 0.80480 0.23940 0.02600
C 	C 	0.30076 0.83510 0.37130 -0.02300
C 	C 	0.37004 0.89794 0.31650 0.33700
Li	Li	0.81810 0.44940 0.63630 0.55200
O 	O 	0.88236 0.39131 0.50420 -0.45200
O 	O 	0.92649 0.34170 0.31269 -0.41700
O 	O 	0.56299 0.08477 0.38763 -0.52600
O 	O 	0.64069 0.07493 0.20099 -0.46000
N 	N 	0.68669 0.20223 0.49120 -0.14800
H 	H 	0.64730 0.18800 0.54900 0.11500
N 	N 	0.74849 0.26547 0.51940 -0.07300
C 	C 	0.87545 0.33785 0.41020 0.36900
C 	C 	0.80228 0.26825 0.41450 -0.05400
C 	C 	0.77498 0.20631 0.32000 0.00800
H 	H 	0.80210 0.19520 0.23940 0.02700
C 	C 	0.69924 0.16490 0.37130 -0.05800
C 	C 	0.62996 0.10206 0.31650 0.34300
Li	Li	0.05060 0.68190 0.13630 0.54400
O 	O 	0.10869 0.61764 0.00420 -0.54100
O 	O 	0.15830 0.57351 0.81269 -0.50300
O 	O 	0.41523 0.93701 0.88763 -0.39100
O 	O 	0.42507 0.85931 0.70099 -0.37700
N 	N 	0.29777 0.81331 0.99120 -0.15500
H 	H 	0.31200 0.85270 0.04900 0.13600
N 	N 	0.23453 0.75151 0.01940 -0.07100
C 	C 	0.16215 0.62455 0.91020 0.37800
C 	C 	0.23175 0.69772 0.91450 -0.07300
C 	C 	0.29369 0.72502 0.82000 0.00500
H 	H 	0.30480 0.69790 0.73940 0.02700
C 	C 	0.33510 0.80076 0.87130 -0.02700
C 	C 	0.39794 0.87004 0.81650 0.33000
Li	Li	0.94940 0.31810 0.13630 0.56000
O 	O 	0.89131 0.38236 0.00420 -0.44700
O 	O 	0.84170 0.42649 0.81269 -0.45200
O 	O 	0.58477 0.06299 0.88763 -0.54700
O 	O 	0.57493 0.14069 0.70099 -0.44000
N 	N 	0.70223 0.18669 0.99120 -0.14300
H 	H 	0.68800 0.14730 0.04900 0.11000
N 	N 	0.76547 0.24849 0.01940 -0.07400
C 	C 	0.83785 0.37545 0.91020 0.37700
C 	C 	0.76825 0.30228 0.91450 -0.05600
C 	C 	0.70631 0.27498 0.82000 0.01100
H 	H 	0.69520 0.30210 0.73940 0.02600
C 	C 	0.66490 0.19924 0.87130 -0.05500
C 	C 	0.60206 0.12996 0.81650 0.35000
Li	Li	0.31810 0.05060 0.86370 0.54100
O 	O 	0.38236 0.10869 0.99580 -0.55000
O 	O 	0.42649 0.15830 0.18731 -0.50700
O 	O 	0.06299 0.41523 0.11237 -0.55300
O 	O 	0.14069 0.42507 0.29901 -0.44400
N 	N 	0.18669 0.29777 0.00880 -0.14900
H 	H 	0.14730 0.31200 0.95100 0.10300
N 	N 	0.24849 0.23453 0.98060 -0.08500
C 	C 	0.37545 0.16215 0.08980 0.37600
C 	C 	0.30228 0.23175 0.08550 -0.08600
C 	C 	0.27498 0.29369 0.18000 0.01100
H 	H 	0.30210 0.30480 0.26060 0.02000
C 	C 	0.19924 0.33510 0.12870 -0.06700
C 	C 	0.12996 0.39794 0.18350 0.34700
Li	Li	0.68190 0.94940 0.86370 0.56300
O 	O 	0.61764 0.89131 0.99580 -0.43800
O 	O 	0.57351 0.84170 0.18731 -0.44700
O 	O 	0.93701 0.58477 0.11237 -0.38500
O 	O 	0.85931 0.57493 0.29901 -0.37300
N 	N 	0.81331 0.70223 0.00880 -0.14900
H 	H 	0.85270 0.68800 0.95100 0.14300
N 	N 	0.75151 0.76547 0.98060 -0.06000
C 	C 	0.62455 0.83785 0.08980 0.37800
C 	C 	0.69772 0.76825 0.08550 -0.04300
C 	C 	0.72502 0.70631 0.18000 0.00500
H 	H 	0.69790 0.69520 0.26060 0.03300
C 	C 	0.80076 0.66490 0.12870 -0.01500
C 	C 	0.87004 0.60206 0.18350 0.33300
Sr	Sr	0.50000 0.00000 0.59449 1.49700
Sr	Sr	-0.00000 0.50000 0.40551 1.49700
Sr	Sr	0.00000 0.50000 0.90551 1.49700
Sr	Sr	0.50000 0.00000 0.09449 1.49700
