data_crystal

_cell_length_a 10.87830
_cell_length_b 28.39450
_cell_length_c 9.21410
_cell_angle_alpha 90.00000
_cell_angle_beta  90.00000
_cell_angle_gamma 90.00000

_symmetry_space_group_name_	'P 1'
_symmetry_space_group_name_H-M	'P 1'

loop_
_symmetry_equiv_pos_as_xyz
  x,y,z

loop_
_atom_site_label
_atom_site_type_symbol
_atom_site_fract_x
_atom_site_fract_y
_atom_site_fract_z
_atom_site_charge
Ba	Ba	0.14080 0.44519 0.02788 1.90400
Li	Li	0.41000 0.16130 0.84250 0.54500
Li	Li	0.41820 0.38530 0.94090 0.55200
Li	Li	0.72230 0.43960 0.08840 0.55300
O 	O 	0.07470 0.34533 0.07850 -0.50200
O 	O 	0.26580 0.35896 0.00250 -0.49900
O 	O 	0.08230 0.13693 0.04340 -0.41800
O 	O 	0.26260 0.12653 0.92860 -0.45500
O 	O 	0.42130 0.44529 0.06140 -0.58000
O 	O 	0.58210 0.45078 0.21160 -0.40800
O 	O 	0.17200 0.41855 0.72660 -0.43100
O 	O 	0.37480 0.42055 0.76810 -0.56900
O 	O 	0.72670 0.47477 0.90490 -0.64300
O 	O 	0.92340 0.45523 0.88530 -0.51100
O 	O 	0.84700 0.47275 0.19240 -0.55700
O 	O 	0.00880 0.43460 0.28200 -0.51800
N 	N 	0.29970 0.26627 0.93480 -0.12900
H 	H 	0.35500 0.28550 0.89810 0.09200
N 	N 	0.30350 0.21928 0.92070 -0.12300
N 	N 	0.26850 0.42856 0.29180 -0.14900
N 	N 	0.22170 0.42172 0.42420 -0.13000
H 	H 	0.14300 0.41720 0.44120 0.10600
N 	N 	0.70100 0.46605 0.60500 -0.14400
N 	N 	0.73020 0.46405 0.46340 -0.13300
H 	H 	0.67660 0.46820 0.39300 0.11100
C 	C 	0.17930 0.33220 0.03440 0.37000
C 	C 	0.20110 0.28053 0.01200 -0.05800
C 	C 	0.13740 0.24067 0.05160 0.01400
H 	H 	0.06410 0.23890 0.10750 0.00200
C 	C 	0.20420 0.20350 0.99170 -0.06900
C 	C 	0.18070 0.15140 0.98920 0.34300
C 	C 	0.47030 0.44411 0.18550 0.38000
C 	C 	0.38960 0.43380 0.31150 -0.07200
C 	C 	0.41900 0.43006 0.45980 0.01600
H 	H 	0.49820 0.43220 0.50270 -0.01200
C 	C 	0.30870 0.42258 0.52970 -0.07600
C 	C 	0.28050 0.41952 0.68680 0.37000
C 	C 	0.82080 0.46200 0.83240 0.38900
C 	C 	0.80890 0.45850 0.67250 -0.09000
C 	C 	0.90410 0.45118 0.57490 0.03600
H 	H 	0.98790 0.44490 0.59660 0.04500
C 	C 	0.85150 0.45499 0.44070 -0.07500
C 	C 	0.90640 0.45372 0.29350 0.45800
Ba	Ba	0.85920 0.55481 0.02788 2.02600
Li	Li	0.59000 0.83870 0.84250 0.54500
Li	Li	0.58180 0.61470 0.94090 0.55100
Li	Li	0.27770 0.56040 0.08840 0.55300
O 	O 	0.92530 0.65467 0.07850 -0.47000
O 	O 	0.73420 0.64104 0.00250 -0.50100
O 	O 	0.91770 0.86307 0.04340 -0.36300
O 	O 	0.73740 0.87347 0.92860 -0.44700
O 	O 	0.57870 0.55471 0.06140 -0.58500
O 	O 	0.41790 0.54922 0.21160 -0.40900
O 	O 	0.82800 0.58145 0.72660 -0.40900
O 	O 	0.62520 0.57945 0.76810 -0.57000
O 	O 	0.27330 0.52523 0.90490 -0.64400
O 	O 	0.07660 0.54477 0.88530 -0.56500
O 	O 	0.15300 0.52725 0.19240 -0.53400
O 	O 	0.99120 0.56540 0.28200 -0.41400
N 	N 	0.70030 0.73373 0.93480 -0.13100
H 	H 	0.64500 0.71450 0.89810 0.09400
N 	N 	0.69650 0.78072 0.92070 -0.12300
N 	N 	0.73150 0.57144 0.29180 -0.15300
N 	N 	0.77830 0.57828 0.42420 -0.13400
H 	H 	0.85700 0.58280 0.44120 0.12300
N 	N 	0.29900 0.53395 0.60500 -0.14400
N 	N 	0.26980 0.53595 0.46340 -0.13900
H 	H 	0.32340 0.53180 0.39300 0.11300
C 	C 	0.82070 0.66780 0.03440 0.36600
C 	C 	0.79890 0.71947 0.01200 -0.03900
C 	C 	0.86260 0.75933 0.05160 0.01000
H 	H 	0.93590 0.76110 0.10750 0.03500
C 	C 	0.79580 0.79650 0.99170 -0.05200
C 	C 	0.81930 0.84860 0.98920 0.33300
C 	C 	0.52970 0.55589 0.18550 0.38000
C 	C 	0.61040 0.56620 0.31150 -0.07200
C 	C 	0.58100 0.56994 0.45980 0.01200
H 	H 	0.50180 0.56780 0.50270 -0.01200
C 	C 	0.69130 0.57742 0.52970 -0.06600
C 	C 	0.71950 0.58048 0.68680 0.36400
C 	C 	0.17920 0.53800 0.83240 0.40000
C 	C 	0.19110 0.54150 0.67250 -0.10300
C 	C 	0.09590 0.54882 0.57490 0.01200
H 	H 	0.01210 0.55510 0.59660 0.00700
C 	C 	0.14850 0.54501 0.44070 -0.05800
C 	C 	0.09360 0.54628 0.29350 0.32100
Ba	Ba	0.35920 0.94519 0.97212 2.00800
Li	Li	0.09000 0.66130 0.15750 0.54100
Li	Li	0.08180 0.88530 0.05910 0.54900
Li	Li	0.77770 0.93960 0.91160 0.55300
O 	O 	0.42530 0.84533 0.92150 -0.49000
O 	O 	0.23420 0.85896 0.99750 -0.51200
O 	O 	0.41770 0.63693 0.95660 -0.40400
O 	O 	0.23740 0.62653 0.07140 -0.46400
O 	O 	0.07870 0.94529 0.93860 -0.55500
O 	O 	0.91790 0.95078 0.78840 -0.34400
O 	O 	0.32800 0.91855 0.27340 -0.41400
O 	O 	0.12520 0.92055 0.23190 -0.55400
O 	O 	0.77330 0.97477 0.09510 -0.58900
O 	O 	0.57660 0.95523 0.11470 -0.52400
O 	O 	0.65300 0.97275 0.80760 -0.53000
O 	O 	0.49120 0.93460 0.71800 -0.46300
N 	N 	0.20030 0.76627 0.06520 -0.12700
H 	H 	0.14500 0.78550 0.10190 0.07900
N 	N 	0.19650 0.71928 0.07930 -0.13400
N 	N 	0.23150 0.92856 0.70820 -0.15200
N 	N 	0.27830 0.92172 0.57580 -0.13200
H 	H 	0.35700 0.91720 0.55880 0.11600
N 	N 	0.79900 0.96605 0.39500 -0.11800
N 	N 	0.76980 0.96405 0.53660 -0.13500
H 	H 	0.82340 0.96820 0.60700 0.12700
C 	C 	0.32070 0.83220 0.96560 0.36900
C 	C 	0.29890 0.78053 0.98800 -0.05900
C 	C 	0.36260 0.74067 0.94840 0.00700
H 	H 	0.43590 0.73890 0.89250 0.01800
C 	C 	0.29580 0.70350 0.00830 -0.06100
C 	C 	0.31930 0.65140 0.01080 0.34500
C 	C 	0.02970 0.94411 0.81450 0.30800
C 	C 	0.11040 0.93380 0.68850 -0.05500
C 	C 	0.08100 0.93006 0.54020 0.00100
H 	H 	0.00180 0.93220 0.49730 -0.01800
C 	C 	0.19130 0.92258 0.47030 -0.06200
C 	C 	0.21950 0.91952 0.31320 0.36500
C 	C 	0.67920 0.96200 0.16760 0.39000
C 	C 	0.69110 0.95850 0.32750 -0.07900
C 	C 	0.59590 0.95118 0.42510 0.02200
H 	H 	0.51210 0.94490 0.40340 0.03300
C 	C 	0.64850 0.95499 0.55930 -0.05500
C 	C 	0.59360 0.95372 0.70650 0.39000
Ba	Ba	0.64080 0.05481 0.97212 1.90500
Li	Li	0.91000 0.33870 0.15750 0.54900
Li	Li	0.91820 0.11470 0.05910 0.55600
Li	Li	0.22230 0.06040 0.91160 0.55300
O 	O 	0.57470 0.15467 0.92150 -0.48200
O 	O 	0.76580 0.14104 0.99750 -0.49100
O 	O 	0.58230 0.36307 0.95660 -0.40100
O 	O 	0.76260 0.37347 0.07140 -0.44300
O 	O 	0.92130 0.05471 0.93860 -0.57100
O 	O 	0.08210 0.04922 0.78840 -0.46100
O 	O 	0.67200 0.08145 0.27340 -0.41400
O 	O 	0.87480 0.07945 0.23190 -0.52900
O 	O 	0.22670 0.02523 0.09510 -0.63500
O 	O 	0.42340 0.04477 0.11470 -0.53700
O 	O 	0.34700 0.02725 0.80760 -0.55900
O 	O 	0.50880 0.06540 0.71800 -0.46700
N 	N 	0.79970 0.23373 0.06520 -0.12700
H 	H 	0.85500 0.21450 0.10190 0.10900
N 	N 	0.80350 0.28072 0.07930 -0.11400
N 	N 	0.76850 0.07144 0.70820 -0.15000
N 	N 	0.72170 0.07828 0.57580 -0.13400
H 	H 	0.64300 0.08280 0.55880 0.11400
N 	N 	0.20100 0.03395 0.39500 -0.14800
N 	N 	0.23020 0.03595 0.53660 -0.13800
H 	H 	0.17660 0.03180 0.60700 0.10100
C 	C 	0.67930 0.16780 0.96560 0.36700
C 	C 	0.70110 0.21947 0.98800 -0.04700
C 	C 	0.63740 0.25933 0.94840 0.00400
H 	H 	0.56410 0.26110 0.89250 0.02100
C 	C 	0.70420 0.29650 0.00830 -0.05000
C 	C 	0.68070 0.34860 0.01080 0.34500
C 	C 	0.97030 0.05589 0.81450 0.44000
C 	C 	0.88960 0.06620 0.68850 -0.08100
C 	C 	0.91900 0.06994 0.54020 0.01900
H 	H 	0.99820 0.06780 0.49730 0.01200
C 	C 	0.80870 0.07742 0.47030 -0.06300
C 	C 	0.78050 0.08048 0.31320 0.35700
C 	C 	0.32080 0.03800 0.16760 0.38400
C 	C 	0.30890 0.04150 0.32750 -0.09700
C 	C 	0.40410 0.04882 0.42510 0.02000
H 	H 	0.48790 0.05510 0.40340 0.02400
C 	C 	0.35150 0.04501 0.55930 -0.07300
C 	C 	0.40640 0.04628 0.70650 0.38900
Ba	Ba	0.50000 0.50000 0.82337 1.97500
Ba	Ba	-0.00000 -0.00000 0.17663 1.73400
