data_crystal

_cell_length_a 12.90200
_cell_length_b 13.03000
_cell_length_c 13.10100
_cell_angle_alpha 70.26000
_cell_angle_beta  73.03000
_cell_angle_gamma 71.98000

_symmetry_space_group_name_	'P 1'
_symmetry_space_group_name_H-M	'P 1'

loop_
_symmetry_equiv_pos_as_xyz
  x,y,z

loop_
_atom_site_label
_atom_site_type_symbol
_atom_site_fract_x
_atom_site_fract_y
_atom_site_fract_z
_atom_site_charge
Yb	Yb	0.66271 0.65707 0.66437 1.54500
Na	Na	0.68350 0.15180 0.66390 0.59300
Na	Na	0.67840 0.67320 0.15350 0.58200
Na	Na	0.15760 0.65150 0.67890 0.59000
H 	H 	0.70010 0.89900 0.24270 0.03700
H 	H 	0.66290 0.07630 0.27100 0.04900
H 	H 	0.62440 0.09040 0.45340 0.06300
H 	H 	0.08810 0.44170 0.63050 0.07100
H 	H 	0.06760 0.26020 0.67350 0.04600
H 	H 	0.88960 0.22950 0.71320 0.05500
H 	H 	0.23990 0.70020 0.88550 0.04300
H 	H 	0.26960 0.66920 0.06130 0.04900
H 	H 	0.45320 0.63030 0.08420 0.06100
H 	H 	0.54170 0.31630 0.50480 0.22500
H 	H 	0.77530 0.02320 0.84720 0.31500
H 	H 	0.28850 0.60860 0.48370 0.19600
H 	H 	0.06150 0.49480 0.87410 0.16200
C 	C 	0.68090 0.81590 0.40540 -0.02600
C 	C 	0.68400 0.90730 0.31380 -0.02700
C 	C 	0.66230 0.01260 0.33090 -0.02800
C 	C 	0.63960 0.02130 0.43940 -0.03900
C 	C 	0.64060 0.92350 0.52490 -0.01700
C 	C 	0.62010 0.92360 0.64390 0.31800
C 	C 	0.70770 0.69650 0.39710 0.32300
C 	C 	0.92490 0.51540 0.64410 -0.02100
C 	C 	0.01760 0.42820 0.64620 -0.04200
C 	C 	0.00540 0.32000 0.67200 -0.01700
C 	C 	0.90000 0.30150 0.69540 -0.04200
C 	C 	0.81070 0.39370 0.69150 -0.02300
C 	C 	0.69100 0.38650 0.71720 0.31000
C 	C 	0.92810 0.63580 0.62010 0.33000
C 	C 	0.40220 0.68050 0.80900 -0.03000
C 	C 	0.31170 0.68490 0.89670 -0.02600
C 	C 	0.32930 0.66620 0.00120 -0.02900
C 	C 	0.43850 0.64280 0.01500 -0.04000
C 	C 	0.52380 0.63890 0.92250 -0.01700
C 	C 	0.64570 0.61620 0.92780 0.32600
C 	C 	0.39320 0.70650 0.69090 0.31300
N 	N 	0.65950 0.82460 0.50870 -0.17000
N 	N 	0.82380 0.49810 0.66600 -0.16900
N 	N 	0.50740 0.65660 0.82290 -0.17000
O 	O 	0.61570 0.82810 0.71390 -0.36300
O 	O 	0.61350 0.00990 0.66760 -0.31600
O 	O 	0.73300 0.67950 0.30560 -0.32500
O 	O 	0.70400 0.62110 0.49050 -0.35800
O 	O 	0.61980 0.47960 0.71180 -0.36500
O 	O 	0.67100 0.29270 0.74480 -0.31900
O 	O 	0.01720 0.65900 0.60740 -0.33100
O 	O 	0.83540 0.70630 0.61280 -0.37200
O 	O 	0.71440 0.60470 0.83540 -0.36900
O 	O 	0.66990 0.60980 0.01250 -0.33300
O 	O 	0.29910 0.73350 0.66900 -0.32600
O 	O 	0.48600 0.70270 0.62030 -0.38300
O 	O 	0.55740 0.29510 0.57470 -0.34000
O 	O 	0.79750 0.03070 0.78690 -0.49400
O 	O 	0.29600 0.57140 0.55200 -0.32400
O 	O 	0.13810 0.49340 0.84120 -0.34800
Yb	Yb	0.33729 0.34293 0.33563 1.54400
Na	Na	0.31650 0.84820 0.33610 0.59200
Na	Na	0.32160 0.32680 0.84650 0.58100
Na	Na	0.84240 0.34850 0.32110 0.58900
H 	H 	0.93850 0.50520 0.12590 0.16200
H 	H 	0.29990 0.10100 0.75730 0.03600
H 	H 	0.33710 0.92370 0.72900 0.04800
H 	H 	0.37560 0.90960 0.54660 0.06300
H 	H 	0.91190 0.55830 0.36950 0.07100
H 	H 	0.93240 0.73980 0.32650 0.04600
H 	H 	0.11040 0.77050 0.28680 0.05500
H 	H 	0.76010 0.29980 0.11450 0.04300
H 	H 	0.73040 0.33080 0.93870 0.04900
H 	H 	0.54680 0.36970 0.91580 0.06100
H 	H 	0.45830 0.68370 0.49520 0.22500
H 	H 	0.22470 0.97680 0.15280 0.31500
H 	H 	0.71150 0.39140 0.51630 0.19600
C 	C 	0.31910 0.18410 0.59460 -0.02600
C 	C 	0.31600 0.09270 0.68620 -0.02700
C 	C 	0.33770 0.98740 0.66910 -0.02800
C 	C 	0.36040 0.97870 0.56060 -0.03900
C 	C 	0.35940 0.07650 0.47510 -0.01700
C 	C 	0.37990 0.07640 0.35610 0.31800
C 	C 	0.29230 0.30350 0.60290 0.32300
C 	C 	0.07510 0.48460 0.35590 -0.02100
C 	C 	0.98240 0.57180 0.35380 -0.04200
C 	C 	0.99460 0.68000 0.32800 -0.01700
C 	C 	0.10000 0.69850 0.30460 -0.04200
C 	C 	0.18930 0.60630 0.30850 -0.02300
C 	C 	0.30900 0.61350 0.28280 0.31000
C 	C 	0.07190 0.36420 0.37990 0.33000
C 	C 	0.59780 0.31950 0.19100 -0.03000
C 	C 	0.68830 0.31510 0.10330 -0.02600
C 	C 	0.67070 0.33380 0.99880 -0.02900
C 	C 	0.56150 0.35720 0.98500 -0.04000
C 	C 	0.47620 0.36110 0.07750 -0.01700
C 	C 	0.35430 0.38380 0.07220 0.32600
C 	C 	0.60680 0.29350 0.30910 0.31300
N 	N 	0.34050 0.17540 0.49130 -0.17000
N 	N 	0.17620 0.50190 0.33400 -0.16900
N 	N 	0.49260 0.34340 0.17710 -0.17000
O 	O 	0.86190 0.50660 0.15880 -0.34800
O 	O 	0.38430 0.17190 0.28610 -0.36300
O 	O 	0.38650 0.99010 0.33240 -0.31600
O 	O 	0.26700 0.32050 0.69440 -0.32500
O 	O 	0.29600 0.37890 0.50950 -0.35800
O 	O 	0.38020 0.52040 0.28820 -0.36500
O 	O 	0.32900 0.70730 0.25520 -0.31900
O 	O 	0.98280 0.34100 0.39260 -0.33100
O 	O 	0.16460 0.29370 0.38720 -0.37200
O 	O 	0.28560 0.39530 0.16460 -0.36900
O 	O 	0.33010 0.39020 0.98750 -0.33300
O 	O 	0.70090 0.26650 0.33100 -0.32600
O 	O 	0.51400 0.29730 0.37970 -0.38300
O 	O 	0.44260 0.70490 0.42530 -0.34000
O 	O 	0.20250 0.96930 0.21310 -0.49400
O 	O 	0.70400 0.42860 0.44800 -0.32400
