data_crystal

_cell_length_a 12.83310
_cell_length_b 15.62600
_cell_length_c 7.54500
_cell_angle_alpha 90.00000
_cell_angle_beta  93.22500
_cell_angle_gamma 90.00000

_symmetry_space_group_name_	'P 1'
_symmetry_space_group_name_H-M	'P 1'

loop_
_symmetry_equiv_pos_as_xyz
  x,y,z

loop_
_atom_site_label
_atom_site_type_symbol
_atom_site_fract_x
_atom_site_fract_y
_atom_site_fract_z
_atom_site_charge
O 	O 	0.16880 0.54100 0.73390 -0.43400
O 	O 	0.06190 0.57110 0.94200 -0.57300
N 	N 	0.38020 0.73300 0.89100 -0.16500
N 	N 	0.49750 0.62250 0.00090 -0.21300
C 	C 	0.22180 0.64770 0.94700 -0.34200
H 	H 	0.26300 0.62130 0.04390 0.10100
H 	H 	0.18350 0.69500 0.99540 0.12100
C 	C 	0.14480 0.58270 0.86740 0.41800
N 	N 	0.62490 0.53570 0.12570 -0.34300
H 	H 	0.68420 0.52760 0.18180 0.17300
H 	H 	0.58670 0.49270 0.09300 0.16400
C 	C 	0.52780 0.77490 0.02810 -0.09300
N 	N 	0.65540 0.68030 0.14400 -0.16100
N 	N 	0.47220 0.84940 0.98160 -0.14900
C 	C 	0.47040 0.70330 0.97700 0.21900
C 	C 	0.29520 0.68220 0.80980 0.09900
H 	H 	0.32410 0.63450 0.74660 0.01700
H 	H 	0.25540 0.71720 0.72400 -0.00600
C 	C 	0.59220 0.61460 0.08950 0.20700
C 	C 	0.38680 0.81940 0.90060 0.10000
H 	H 	0.33440 0.85500 0.85310 0.00900
C 	C 	0.62330 0.75900 0.11740 0.04600
H 	H 	0.66470 0.80450 0.15860 0.03200
O 	O 	0.41010 0.99110 0.22480 -0.36900
O 	O 	0.83120 0.54100 0.76610 -0.36300
O 	O 	0.93810 0.57110 0.55800 -0.42200
N 	N 	0.61980 0.73300 0.60900 -0.15100
N 	N 	0.50250 0.62250 0.49910 -0.17000
C 	C 	0.77820 0.64770 0.55300 -0.42500
H 	H 	0.73700 0.62130 0.45610 0.16600
H 	H 	0.81650 0.69500 0.50460 0.18000
C 	C 	0.85520 0.58270 0.63260 0.43500
N 	N 	0.37510 0.53570 0.37430 -0.34400
H 	H 	0.31580 0.52760 0.31820 0.16800
H 	H 	0.41330 0.49270 0.40700 0.17600
C 	C 	0.47220 0.77490 0.47190 0.00100
N 	N 	0.34460 0.68030 0.35600 -0.16500
N 	N 	0.52780 0.84940 0.51840 -0.18400
C 	C 	0.52960 0.70330 0.52300 0.12500
C 	C 	0.70480 0.68220 0.69020 0.11300
H 	H 	0.67590 0.63450 0.75340 0.02300
H 	H 	0.74460 0.71720 0.77600 0.03100
C 	C 	0.40780 0.61460 0.41050 0.21000
C 	C 	0.61320 0.81940 0.59940 0.09600
H 	H 	0.66560 0.85500 0.64690 0.03400
C 	C 	0.37670 0.75900 0.38260 0.01000
H 	H 	0.33530 0.80450 0.34140 0.02000
O 	O 	0.58990 0.99110 0.27520 -0.34000
O 	O 	0.83120 0.45900 0.26610 -0.38500
O 	O 	0.93810 0.42890 0.05800 -0.45700
N 	N 	0.61980 0.26700 0.10900 -0.15500
N 	N 	0.50250 0.37750 0.99910 -0.12800
C 	C 	0.77820 0.35230 0.05300 -0.53700
H 	H 	0.73700 0.37870 0.95610 0.22900
H 	H 	0.81650 0.30500 0.00460 0.18300
C 	C 	0.85520 0.41730 0.13260 0.46200
N 	N 	0.37510 0.46430 0.87430 -0.34700
H 	H 	0.31580 0.47240 0.81820 0.17600
H 	H 	0.41330 0.50730 0.90700 0.19200
C 	C 	0.47220 0.22510 0.97190 0.09300
N 	N 	0.34460 0.31970 0.85600 -0.15400
N 	N 	0.52780 0.15060 0.01840 -0.26800
C 	C 	0.52960 0.29670 0.02300 0.02500
C 	C 	0.70480 0.31780 0.19020 0.15800
H 	H 	0.67590 0.36550 0.25340 -0.00100
H 	H 	0.74460 0.28280 0.27600 -0.00900
C 	C 	0.40780 0.38540 0.91050 0.22000
C 	C 	0.61320 0.18060 0.09940 0.08300
H 	H 	0.66560 0.14500 0.14690 -0.03900
C 	C 	0.37670 0.24100 0.88260 -0.02200
H 	H 	0.33530 0.19550 0.84140 0.01400
O 	O 	0.58990 0.00890 0.77520 -0.50200
O 	O 	0.16880 0.45900 0.23390 -0.45600
O 	O 	0.06190 0.42890 0.44200 -0.60800
N 	N 	0.38020 0.26700 0.39100 -0.16900
N 	N 	0.49750 0.37750 0.50090 -0.17200
C 	C 	0.22180 0.35230 0.44700 -0.45700
H 	H 	0.26300 0.37870 0.54390 0.16600
H 	H 	0.18350 0.30500 0.49540 0.12500
C 	C 	0.14480 0.41730 0.36740 0.44600
N 	N 	0.62490 0.46430 0.62570 -0.34600
H 	H 	0.68420 0.47240 0.68180 0.18100
H 	H 	0.58670 0.50730 0.59300 0.18000
C 	C 	0.52780 0.22510 0.52810 -0.00900
N 	N 	0.65540 0.31970 0.64400 -0.15100
N 	N 	0.47220 0.15060 0.48160 -0.23200
C 	C 	0.47040 0.29670 0.47700 0.12500
C 	C 	0.29520 0.31780 0.30980 0.14600
H 	H 	0.32410 0.36550 0.24660 -0.00800
H 	H 	0.25540 0.28280 0.22400 -0.04700
C 	C 	0.59220 0.38540 0.58950 0.21800
C 	C 	0.38680 0.18060 0.40060 0.08800
H 	H 	0.33440 0.14500 0.35310 -0.06400
C 	C 	0.62330 0.24100 0.61740 0.01600
H 	H 	0.66470 0.19550 0.65860 0.02400
O 	O 	0.41010 0.00890 0.72480 -0.53300
Cd	Cd	0.00000 0.45889 0.75000 1.14600
Cd	Cd	0.00000 0.54111 0.25000 1.13700
Cd	Cd	0.50000 0.00000 -0.00000 1.16300
Cd	Cd	0.50000 0.00000 0.50000 1.17800
