data_crystal

_cell_length_a 38.18610
_cell_length_b 5.00420
_cell_length_c 8.38100
_cell_angle_alpha 90.00000
_cell_angle_beta  102.53500
_cell_angle_gamma 90.00000

_symmetry_space_group_name_	'P 1'
_symmetry_space_group_name_H-M	'P 1'

loop_
_symmetry_equiv_pos_as_xyz
  x,y,z

loop_
_atom_site_label
_atom_site_type_symbol
_atom_site_fract_x
_atom_site_fract_y
_atom_site_fract_z
_atom_site_charge
O 	O 	0.35778 0.75100 0.20450 -0.44800
O 	O 	0.16559 0.24620 0.31360 -0.71600
O 	O 	0.40497 0.76340 0.04630 -0.63100
O 	O 	0.85778 0.25100 0.20450 -0.68100
O 	O 	0.66559 0.74620 0.31360 -0.57200
O 	O 	0.90497 0.26340 0.04630 -0.87500
O 	O 	0.64222 0.75100 0.79550 -0.44800
O 	O 	0.83441 0.24620 0.68640 -0.71600
O 	O 	0.59503 0.76340 0.95370 -0.63200
O 	O 	0.14222 0.25100 0.79550 -0.68200
O 	O 	0.33441 0.74620 0.68640 -0.57300
O 	O 	0.09503 0.26340 0.95370 -0.87600
O 	O 	0.64222 0.24900 0.79550 -0.60400
O 	O 	0.83441 0.75380 0.68640 -0.51900
O 	O 	0.59503 0.23660 0.95370 -0.78700
O 	O 	0.14222 0.74900 0.79550 -0.49000
O 	O 	0.33441 0.25380 0.68640 -0.73700
O 	O 	0.09503 0.73660 0.95370 -0.69000
O 	O 	0.35778 0.24900 0.20450 -0.60400
O 	O 	0.16559 0.75380 0.31360 -0.51900
O 	O 	0.40497 0.23660 0.04630 -0.78700
O 	O 	0.85778 0.74900 0.20450 -0.49000
O 	O 	0.66559 0.25380 0.31360 -0.73700
O 	O 	0.90497 0.73660 0.04630 -0.69000
Al	Al	0.10799 0.00000 0.84580 2.37100
P 	P 	0.34711 0.00000 0.28780 0.50200
O 	O 	0.36584 0.00000 0.46370 -0.98800
O 	O 	0.15639 0.00000 0.04570 -0.50200
P 	P 	0.17615 0.00000 0.23130 0.41400
Al	Al	0.36248 0.00000 0.64530 2.40300
P 	P 	0.41614 0.00000 0.95810 0.59700
O 	O 	0.39864 0.00000 0.77780 -0.93900
C 	C 	0.29855 -0.00000 0.27170 -0.13900
C 	C 	0.27548 -0.00000 0.11960 -0.00500
C 	C 	0.23843 0.00000 0.10730 -0.07400
C 	C 	0.22477 0.00000 0.24740 -0.06300
C 	C 	0.24784 0.00000 0.39960 -0.07800
C 	C 	0.28489 0.00000 0.41180 0.00800
C 	C 	0.46314 0.00000 0.98240 -0.15600
C 	C 	0.47829 0.00000 0.84569 -0.01800
C 	C 	0.48465 -0.00000 0.13510 -0.02500
H 	H 	0.28496 0.00000 0.02242 -0.00300
H 	H 	0.22242 0.00000 0.00175 0.02500
H 	H 	0.23837 -0.00000 0.49671 0.00800
H 	H 	0.30089 0.00000 0.51737 -0.06300
H 	H 	0.46313 0.00000 0.73810 -0.01000
H 	H 	0.47420 0.00000 0.22949 -0.05200
Al	Al	0.60799 0.50000 0.84580 2.38800
P 	P 	0.84711 0.50000 0.28780 0.65400
O 	O 	0.86584 0.50000 0.46370 -0.95600
O 	O 	0.65639 0.50000 0.04570 -0.40400
P 	P 	0.67615 0.50000 0.23130 0.60400
Al	Al	0.86248 0.50000 0.64530 2.40900
P 	P 	0.91614 0.50000 0.95810 0.75000
O 	O 	0.89864 0.50000 0.77780 -0.89500
C 	C 	0.79855 0.50000 0.27170 -0.10800
C 	C 	0.77548 0.50000 0.11960 0.04800
C 	C 	0.73843 0.50000 0.10730 -0.04000
C 	C 	0.72477 0.50000 0.24740 -0.01100
C 	C 	0.74784 0.50000 0.39960 -0.03600
C 	C 	0.78489 0.50000 0.41180 0.05600
C 	C 	0.96314 0.50000 0.98240 -0.15600
C 	C 	0.97829 0.50000 0.84569 -0.00800
C 	C 	0.98465 0.50000 0.13510 -0.01200
H 	H 	0.78496 0.50000 0.02242 0.08000
H 	H 	0.72242 0.50000 0.00175 0.10400
H 	H 	0.73837 0.50000 0.49671 0.10900
H 	H 	0.80089 0.50000 0.51737 -0.00700
H 	H 	0.96313 0.50000 0.73810 0.00200
H 	H 	0.97420 0.50000 0.22949 -0.03200
Al	Al	0.89201 -0.00000 0.15420 2.37100
P 	P 	0.65289 0.00000 0.71220 0.50200
O 	O 	0.63416 0.00000 0.53630 -0.98800
O 	O 	0.84361 0.00000 0.95430 -0.50200
P 	P 	0.82385 0.00000 0.76870 0.41400
Al	Al	0.63752 0.00000 0.35470 2.40300
P 	P 	0.58386 0.00000 0.04190 0.59700
O 	O 	0.60136 -0.00000 0.22220 -0.93900
C 	C 	0.70145 0.00000 0.72830 -0.13900
C 	C 	0.72452 -0.00000 0.88040 -0.00500
C 	C 	0.76157 0.00000 0.89270 -0.07400
C 	C 	0.77523 0.00000 0.75260 -0.06300
C 	C 	0.75216 -0.00000 0.60040 -0.07800
C 	C 	0.71511 0.00000 0.58820 0.00800
C 	C 	0.53686 0.00000 0.01760 -0.15600
C 	C 	0.52171 0.00000 0.15431 -0.01800
C 	C 	0.51535 -0.00000 0.86490 -0.02500
H 	H 	0.71504 -0.00000 0.97758 -0.00300
H 	H 	0.77758 0.00000 0.99825 0.02500
H 	H 	0.76163 0.00000 0.50329 0.00800
H 	H 	0.69911 0.00000 0.48263 -0.06300
H 	H 	0.53687 0.00000 0.26190 -0.01000
H 	H 	0.52580 0.00000 0.77051 -0.05200
Al	Al	0.39201 0.50000 0.15420 2.38800
P 	P 	0.15289 0.50000 0.71220 0.65400
O 	O 	0.13416 0.50000 0.53630 -0.95600
O 	O 	0.34361 0.50000 0.95430 -0.40400
P 	P 	0.32385 0.50000 0.76870 0.60400
Al	Al	0.13752 0.50000 0.35470 2.40900
P 	P 	0.08386 0.50000 0.04190 0.75000
O 	O 	0.10136 0.50000 0.22220 -0.89500
C 	C 	0.20145 0.50000 0.72830 -0.10800
C 	C 	0.22452 0.50000 0.88040 0.04800
C 	C 	0.26157 0.50000 0.89270 -0.04000
C 	C 	0.27523 0.50000 0.75260 -0.01100
C 	C 	0.25216 0.50000 0.60040 -0.03600
C 	C 	0.21511 0.50000 0.58820 0.05600
C 	C 	0.03686 0.50000 0.01760 -0.15600
C 	C 	0.02171 0.50000 0.15431 -0.00800
C 	C 	0.01535 0.50000 0.86490 -0.01200
H 	H 	0.21504 0.50000 0.97758 0.08000
H 	H 	0.27758 0.50000 0.99825 0.10400
H 	H 	0.26163 0.50000 0.50329 0.10900
H 	H 	0.19911 0.50000 0.48263 -0.00700
H 	H 	0.03687 0.50000 0.26190 0.00200
H 	H 	0.02580 0.50000 0.77051 -0.03200
