data_crystal

_cell_length_a 18.61080
_cell_length_b 18.61080
_cell_length_c 19.37340
_cell_angle_alpha 90.00000
_cell_angle_beta  90.00000
_cell_angle_gamma 120.00000

_symmetry_space_group_name_	'P 1'
_symmetry_space_group_name_H-M	'P 1'

loop_
_symmetry_equiv_pos_as_xyz
  x,y,z

loop_
_atom_site_label
_atom_site_type_symbol
_atom_site_fract_x
_atom_site_fract_y
_atom_site_fract_z
_atom_site_charge
Li	Li	0.16760 0.50670 0.14122 0.56100
O 	O 	0.89797 0.34892 0.56221 -0.36500
O 	O 	0.03250 0.42767 0.58573 -0.39000
H 	H 	0.02810 0.43200 0.63620 0.24200
C 	C 	0.97028 0.38985 0.54400 0.39800
C 	C 	0.99288 0.40023 0.46915 -0.11000
C 	C 	0.93101 0.35869 0.42070 0.02600
H 	H 	0.87540 0.32300 0.43510 0.04100
C 	C 	0.95061 0.36939 0.35100 -0.05100
H 	H 	0.90780 0.34150 0.31790 0.07100
C 	C 	0.03220 0.42042 0.32865 -0.02300
C 	C 	0.09463 0.46098 0.37775 -0.11100
C 	C 	0.07450 0.45119 0.44784 0.05500
H 	H 	0.11680 0.47950 0.48120 0.03500
C 	C 	0.04913 0.43189 0.25189 0.33300
O 	O 	0.98692 0.40551 0.21347 -0.29100
O 	O 	0.12232 0.46648 0.23151 -0.40000
C 	C 	0.18580 0.51524 0.36142 0.40900
O 	O 	0.21701 0.59195 0.36965 -0.52700
O 	O 	0.22604 0.47975 0.34665 -0.44900
Li	Li	0.49330 0.66090 0.14122 0.56000
O 	O 	0.65108 0.54905 0.56221 -0.36600
O 	O 	0.57233 0.60483 0.58573 -0.39100
H 	H 	0.56800 0.59610 0.63620 0.24100
C 	C 	0.61015 0.58043 0.54400 0.39800
C 	C 	0.59977 0.59265 0.46915 -0.11200
C 	C 	0.64131 0.57232 0.42070 0.02800
H 	H 	0.67700 0.55240 0.43510 0.04000
C 	C 	0.63061 0.58122 0.35100 -0.05300
H 	H 	0.65850 0.56630 0.31790 0.07200
C 	C 	0.57958 0.61178 0.32865 -0.02200
C 	C 	0.53902 0.63365 0.37775 -0.11200
C 	C 	0.54881 0.62331 0.44784 0.05600
H 	H 	0.52050 0.63730 0.48120 0.03400
C 	C 	0.56811 0.61724 0.25189 0.33500
O 	O 	0.59449 0.58141 0.21347 -0.29300
O 	O 	0.53352 0.65584 0.23151 -0.40100
C 	C 	0.48476 0.67056 0.36142 0.40900
O 	O 	0.40805 0.62506 0.36965 -0.52700
O 	O 	0.52025 0.74629 0.34665 -0.44900
Li	Li	0.33910 0.83240 0.14122 0.56000
O 	O 	0.45095 0.10203 0.56221 -0.36600
O 	O 	0.39517 0.96750 0.58573 -0.39100
H 	H 	0.40390 0.97190 0.63620 0.24100
C 	C 	0.41957 0.02972 0.54400 0.39700
C 	C 	0.40735 0.00712 0.46915 -0.11100
C 	C 	0.42768 0.06899 0.42070 0.02600
H 	H 	0.44760 0.12460 0.43510 0.04100
C 	C 	0.41878 0.04939 0.35100 -0.05100
H 	H 	0.43370 0.09220 0.31790 0.07100
C 	C 	0.38822 0.96780 0.32865 -0.02300
C 	C 	0.36635 0.90537 0.37775 -0.11100
C 	C 	0.37669 0.92550 0.44784 0.05500
H 	H 	0.36270 0.88320 0.48120 0.03500
C 	C 	0.38276 0.95087 0.25189 0.33300
O 	O 	0.41859 0.01308 0.21347 -0.29100
O 	O 	0.34416 0.87768 0.23151 -0.40100
C 	C 	0.32944 0.81420 0.36142 0.40900
O 	O 	0.37494 0.78299 0.36965 -0.52700
O 	O 	0.25371 0.77396 0.34665 -0.44900
Li	Li	0.49330 0.83240 0.35878 0.56000
O 	O 	0.65108 0.10203 0.93779 -0.36400
O 	O 	0.57233 0.96750 0.91427 -0.38600
H 	H 	0.56800 0.97190 0.86380 0.24000
C 	C 	0.61015 0.02972 0.95600 0.38700
C 	C 	0.59977 0.00712 0.03085 -0.09900
C 	C 	0.64131 0.06899 0.07930 0.01900
H 	H 	0.67700 0.12460 0.06490 0.04400
C 	C 	0.63061 0.04939 0.14900 -0.04400
H 	H 	0.65850 0.09220 0.18210 0.06900
C 	C 	0.57958 0.96780 0.17135 -0.02800
C 	C 	0.53902 0.90537 0.12225 -0.10600
C 	C 	0.54881 0.92550 0.05216 0.04500
H 	H 	0.52050 0.88320 0.01880 0.03700
C 	C 	0.56811 0.95087 0.24811 0.33500
O 	O 	0.59449 0.01308 0.28653 -0.29200
O 	O 	0.53352 0.87768 0.26849 -0.40100
C 	C 	0.48476 0.81420 0.13858 0.40700
O 	O 	0.40805 0.78299 0.13035 -0.52700
O 	O 	0.52025 0.77396 0.15335 -0.44900
Li	Li	0.33910 0.50670 0.35878 0.56000
O 	O 	0.45095 0.34892 0.93779 -0.36600
O 	O 	0.39517 0.42767 0.91427 -0.39100
H 	H 	0.40390 0.43200 0.86380 0.24100
C 	C 	0.41957 0.38985 0.95600 0.39800
C 	C 	0.40735 0.40023 0.03085 -0.11200
C 	C 	0.42768 0.35869 0.07930 0.02700
H 	H 	0.44760 0.32300 0.06490 0.04100
C 	C 	0.41878 0.36939 0.14900 -0.05300
H 	H 	0.43370 0.34150 0.18210 0.07200
C 	C 	0.38822 0.42042 0.17135 -0.02200
C 	C 	0.36635 0.46098 0.12225 -0.11200
C 	C 	0.37669 0.45119 0.05216 0.05600
H 	H 	0.36270 0.47950 0.01880 0.03400
C 	C 	0.38276 0.43189 0.24811 0.33500
O 	O 	0.41859 0.40551 0.28653 -0.29300
O 	O 	0.34416 0.46648 0.26849 -0.40100
C 	C 	0.32944 0.51524 0.13858 0.40900
O 	O 	0.37494 0.59195 0.13035 -0.52700
O 	O 	0.25371 0.47975 0.15335 -0.44900
Li	Li	0.16760 0.66090 0.35878 0.56000
O 	O 	0.89797 0.54905 0.93779 -0.36400
O 	O 	0.03250 0.60483 0.91427 -0.38600
H 	H 	0.02810 0.59610 0.86380 0.24000
C 	C 	0.97028 0.58043 0.95600 0.38900
C 	C 	0.99288 0.59265 0.03085 -0.10100
C 	C 	0.93101 0.57232 0.07930 0.01900
H 	H 	0.87540 0.55240 0.06490 0.04400
C 	C 	0.95061 0.58122 0.14900 -0.04500
H 	H 	0.90780 0.56630 0.18210 0.06900
C 	C 	0.03220 0.61178 0.17135 -0.02800
C 	C 	0.09463 0.63365 0.12225 -0.10700
C 	C 	0.07450 0.62331 0.05216 0.04500
H 	H 	0.11680 0.63730 0.01880 0.03600
C 	C 	0.04913 0.61724 0.24811 0.33500
O 	O 	0.98692 0.58141 0.28653 -0.29200
O 	O 	0.12232 0.65584 0.26849 -0.40100
C 	C 	0.18580 0.67056 0.13858 0.40700
O 	O 	0.21701 0.62506 0.13035 -0.52700
O 	O 	0.22604 0.74629 0.15335 -0.44900
Li	Li	0.83240 0.49330 0.85878 0.56000
O 	O 	0.10203 0.65108 0.43779 -0.36600
O 	O 	0.96750 0.57233 0.41427 -0.39100
H 	H 	0.97190 0.56800 0.36380 0.24100
C 	C 	0.02972 0.61015 0.45600 0.39700
C 	C 	0.00712 0.59977 0.53085 -0.11100
C 	C 	0.06899 0.64131 0.57930 0.02600
H 	H 	0.12460 0.67700 0.56490 0.04100
C 	C 	0.04939 0.63061 0.64900 -0.05100
H 	H 	0.09220 0.65850 0.68210 0.07100
C 	C 	0.96780 0.57958 0.67135 -0.02300
C 	C 	0.90537 0.53902 0.62225 -0.11100
C 	C 	0.92550 0.54881 0.55216 0.05500
H 	H 	0.88320 0.52050 0.51880 0.03500
C 	C 	0.95087 0.56811 0.74811 0.33300
O 	O 	0.01308 0.59449 0.78653 -0.29100
O 	O 	0.87768 0.53352 0.76849 -0.40000
C 	C 	0.81420 0.48476 0.63858 0.40900
O 	O 	0.78299 0.40805 0.63035 -0.52700
O 	O 	0.77396 0.52025 0.65335 -0.44900
Li	Li	0.50670 0.33910 0.85878 0.56000
O 	O 	0.34892 0.45095 0.43779 -0.36600
O 	O 	0.42767 0.39517 0.41427 -0.39100
H 	H 	0.43200 0.40390 0.36380 0.24100
C 	C 	0.38985 0.41957 0.45600 0.39800
C 	C 	0.40023 0.40735 0.53085 -0.11200
C 	C 	0.35869 0.42768 0.57930 0.02800
H 	H 	0.32300 0.44760 0.56490 0.04000
C 	C 	0.36939 0.41878 0.64900 -0.05300
H 	H 	0.34150 0.43370 0.68210 0.07200
C 	C 	0.42042 0.38822 0.67135 -0.02200
C 	C 	0.46098 0.36635 0.62225 -0.11200
C 	C 	0.45119 0.37669 0.55216 0.05600
H 	H 	0.47950 0.36270 0.51880 0.03400
C 	C 	0.43189 0.38276 0.74811 0.33500
O 	O 	0.40551 0.41859 0.78653 -0.29300
O 	O 	0.46648 0.34416 0.76849 -0.40100
C 	C 	0.51524 0.32944 0.63858 0.40900
O 	O 	0.59195 0.37494 0.63035 -0.52700
O 	O 	0.47975 0.25371 0.65335 -0.44900
Li	Li	0.66090 0.16760 0.85878 0.56000
O 	O 	0.54905 0.89797 0.43779 -0.36600
O 	O 	0.60483 0.03250 0.41427 -0.39100
H 	H 	0.59610 0.02810 0.36380 0.24100
C 	C 	0.58043 0.97028 0.45600 0.39700
C 	C 	0.59265 0.99288 0.53085 -0.11100
C 	C 	0.57232 0.93101 0.57930 0.02600
H 	H 	0.55240 0.87540 0.56490 0.04100
C 	C 	0.58122 0.95061 0.64900 -0.05100
H 	H 	0.56630 0.90780 0.68210 0.07100
C 	C 	0.61178 0.03220 0.67135 -0.02300
C 	C 	0.63365 0.09463 0.62225 -0.11100
C 	C 	0.62331 0.07450 0.55216 0.05500
H 	H 	0.63730 0.11680 0.51880 0.03500
C 	C 	0.61724 0.04913 0.74811 0.33300
O 	O 	0.58141 0.98692 0.78653 -0.29100
O 	O 	0.65584 0.12232 0.76849 -0.40100
C 	C 	0.67056 0.18580 0.63858 0.40900
O 	O 	0.62506 0.21701 0.63035 -0.52700
O 	O 	0.74629 0.22604 0.65335 -0.44900
Li	Li	0.50670 0.16760 0.64122 0.56000
O 	O 	0.34892 0.89797 0.06221 -0.36400
O 	O 	0.42767 0.03250 0.08573 -0.38600
H 	H 	0.43200 0.02810 0.13620 0.24000
C 	C 	0.38985 0.97028 0.04400 0.38700
C 	C 	0.40023 0.99288 0.96915 -0.09900
C 	C 	0.35869 0.93101 0.92070 0.01900
H 	H 	0.32300 0.87540 0.93510 0.04400
C 	C 	0.36939 0.95061 0.85100 -0.04400
H 	H 	0.34150 0.90780 0.81790 0.06900
C 	C 	0.42042 0.03220 0.82865 -0.02800
C 	C 	0.46098 0.09463 0.87775 -0.10600
C 	C 	0.45119 0.07450 0.94784 0.04500
H 	H 	0.47950 0.11680 0.98120 0.03700
C 	C 	0.43189 0.04913 0.75189 0.33500
O 	O 	0.40551 0.98692 0.71347 -0.29200
O 	O 	0.46648 0.12232 0.73151 -0.40100
C 	C 	0.51524 0.18580 0.86142 0.40700
O 	O 	0.59195 0.21701 0.86965 -0.52700
O 	O 	0.47975 0.22604 0.84665 -0.44900
Li	Li	0.66090 0.49330 0.64122 0.56000
O 	O 	0.54905 0.65108 0.06221 -0.36600
O 	O 	0.60483 0.57233 0.08573 -0.39100
H 	H 	0.59610 0.56800 0.13620 0.24100
C 	C 	0.58043 0.61015 0.04400 0.39800
C 	C 	0.59265 0.59977 0.96915 -0.11200
C 	C 	0.57232 0.64131 0.92070 0.02700
H 	H 	0.55240 0.67700 0.93510 0.04100
C 	C 	0.58122 0.63061 0.85100 -0.05300
H 	H 	0.56630 0.65850 0.81790 0.07200
C 	C 	0.61178 0.57958 0.82865 -0.02200
C 	C 	0.63365 0.53902 0.87775 -0.11200
C 	C 	0.62331 0.54881 0.94784 0.05600
H 	H 	0.63730 0.52050 0.98120 0.03400
C 	C 	0.61724 0.56811 0.75189 0.33500
O 	O 	0.58141 0.59449 0.71347 -0.29300
O 	O 	0.65584 0.53352 0.73151 -0.40100
C 	C 	0.67056 0.48476 0.86142 0.40900
O 	O 	0.62506 0.40805 0.86965 -0.52700
O 	O 	0.74629 0.52025 0.84665 -0.44900
Li	Li	0.83240 0.33910 0.64122 0.56000
O 	O 	0.10203 0.45095 0.06221 -0.36400
O 	O 	0.96750 0.39517 0.08573 -0.38600
H 	H 	0.97190 0.40390 0.13620 0.24000
C 	C 	0.02972 0.41957 0.04400 0.38900
C 	C 	0.00712 0.40735 0.96915 -0.10100
C 	C 	0.06899 0.42768 0.92070 0.01900
H 	H 	0.12460 0.44760 0.93510 0.04400
C 	C 	0.04939 0.41878 0.85100 -0.04500
H 	H 	0.09220 0.43370 0.81790 0.06900
C 	C 	0.96780 0.38822 0.82865 -0.02800
C 	C 	0.90537 0.36635 0.87775 -0.10700
C 	C 	0.92550 0.37669 0.94784 0.04500
H 	H 	0.88320 0.36270 0.98120 0.03600
C 	C 	0.95087 0.38276 0.75189 0.33500
O 	O 	0.01308 0.41859 0.71347 -0.29200
O 	O 	0.87768 0.34416 0.73151 -0.40100
C 	C 	0.81420 0.32944 0.86142 0.40700
O 	O 	0.78299 0.37494 0.86965 -0.52700
O 	O 	0.77396 0.25371 0.84665 -0.44900
Li	Li	0.21785 0.43570 0.25000 0.55200
Li	Li	0.56430 0.78215 0.25000 0.55200
Li	Li	0.21785 0.78215 0.25000 0.55200
Li	Li	0.78215 0.56430 0.75000 0.55200
Li	Li	0.43570 0.21785 0.75000 0.55200
Li	Li	0.78215 0.21785 0.75000 0.55200
Li	Li	0.33333 0.66667 0.34640 0.51400
Li	Li	0.33333 0.66667 0.39200 0.50800
Li	Li	0.33333 0.66667 0.15360 0.51400
Li	Li	0.33333 0.66667 0.10800 0.50800
Li	Li	0.66667 0.33333 0.65360 0.51400
Li	Li	0.66667 0.33333 0.60800 0.50800
Li	Li	0.66667 0.33333 0.84640 0.51400
Li	Li	0.66667 0.33333 0.89200 0.50800
O 	O 	0.33333 0.66667 0.25000 -0.38300
O 	O 	0.66667 0.33333 0.75000 -0.38300
