data_crystal

_cell_length_a 13.49100
_cell_length_b 36.22100
_cell_length_c 13.77900
_cell_angle_alpha 90.00000
_cell_angle_beta  100.79400
_cell_angle_gamma 90.00000

_symmetry_space_group_name_	'P 1'
_symmetry_space_group_name_H-M	'P 1'

loop_
_symmetry_equiv_pos_as_xyz
  x,y,z

loop_
_atom_site_label
_atom_site_type_symbol
_atom_site_fract_x
_atom_site_fract_y
_atom_site_fract_z
_atom_site_charge
Cd	Cd	0.35079 0.15050 0.00519 1.17300
Cd	Cd	0.20738 0.09158 0.79387 1.20200
Cd	Cd	0.40075 0.05259 0.61680 1.18400
Cd	Cd	0.98965 0.14760 0.63691 1.16200
Cl	Cl	0.23830 0.09260 0.98490 -0.57900
Cl	Cl	0.01130 0.08880 0.75950 -0.57000
Cl	Cl	0.26210 0.19180 0.11610 -0.68400
N 	N 	0.25380 0.08500 0.56240 -0.21900
N 	N 	0.20070 0.10150 0.62030 -0.15700
N 	N 	0.12070 0.11820 0.57280 -0.16100
N 	N 	0.12470 0.11460 0.47630 -0.21300
C 	C 	0.20670 0.09260 0.47130 0.21100
N 	N 	0.23610 0.08150 0.38510 -0.33400
H 	H 	0.28970 0.06840 0.38770 0.15500
H 	H 	0.20090 0.08770 0.32890 0.17000
N 	N 	0.11370 0.17790 0.74470 -0.22000
N 	N 	0.18400 0.15620 0.80150 -0.16700
N 	N 	0.23530 0.17720 0.87160 -0.15200
N 	N 	0.19760 0.21080 0.86580 -0.20700
C 	C 	0.12280 0.21120 0.78880 0.22500
N 	N 	0.06540 0.24070 0.75290 -0.34500
H 	H 	0.07620 0.26190 0.78100 0.17600
H 	H 	0.01810 0.23820 0.70190 0.16900
N 	N 	0.41930 0.23860 0.99500 -0.17300
N 	N 	0.45330 0.20320 0.99510 -0.12300
H 	H 	0.44420 0.30960 0.99650 0.22800
N 	N 	0.52780 0.12870 0.86720 -0.22500
N 	N 	0.43060 0.12330 0.88410 -0.16800
N 	N 	0.38340 0.10430 0.80780 -0.16900
N 	N 	0.44640 0.09620 0.74520 -0.23000
C 	C 	0.53270 0.11240 0.78720 0.21900
N 	N 	0.61690 0.11330 0.74100 -0.33400
H 	H 	0.66960 0.12570 0.76720 0.16300
H 	H 	0.61580 0.10160 0.68650 0.14800
N 	N 	0.23500 0.02990 0.77580 -0.23800
N 	N 	0.30620 0.01820 0.72390 -0.16800
H 	H 	0.11000 0.02050 0.88220 0.22200
Cd	Cd	0.85079 0.65050 0.00519 1.16800
Cd	Cd	0.70738 0.59158 0.79387 1.19900
Cd	Cd	0.90075 0.55259 0.61680 1.17000
Cd	Cd	0.48965 0.64760 0.63691 1.18900
Cl	Cl	0.73830 0.59260 0.98490 -0.59700
Cl	Cl	0.51130 0.58880 0.75950 -0.61100
Cl	Cl	0.76210 0.69180 0.11610 -0.69800
N 	N 	0.75380 0.58500 0.56240 -0.22300
N 	N 	0.70070 0.60150 0.62030 -0.16000
N 	N 	0.62070 0.61820 0.57280 -0.17200
N 	N 	0.62470 0.61460 0.47630 -0.22200
C 	C 	0.70670 0.59260 0.47130 0.19600
N 	N 	0.73610 0.58150 0.38510 -0.32800
H 	H 	0.78970 0.56840 0.38770 0.14200
H 	H 	0.70090 0.58770 0.32890 0.15400
N 	N 	0.61370 0.67790 0.74470 -0.22700
N 	N 	0.68400 0.65620 0.80150 -0.17100
N 	N 	0.73530 0.67720 0.87160 -0.15600
N 	N 	0.69760 0.71080 0.86580 -0.20800
C 	C 	0.62280 0.71120 0.78880 0.21600
N 	N 	0.56540 0.74070 0.75290 -0.34100
H 	H 	0.57620 0.76190 0.78100 0.16600
H 	H 	0.51810 0.73820 0.70190 0.15400
N 	N 	0.91930 0.73860 0.99500 -0.20300
N 	N 	0.95330 0.70320 0.99510 -0.15300
H 	H 	0.94420 0.80960 0.99650 0.17700
N 	N 	0.02780 0.62870 0.86720 -0.20900
N 	N 	0.93060 0.62330 0.88410 -0.19400
N 	N 	0.88340 0.60430 0.80780 -0.17500
N 	N 	0.94640 0.59620 0.74520 -0.26900
C 	C 	0.03270 0.61240 0.78720 0.27200
N 	N 	0.11690 0.61330 0.74100 -0.34400
H 	H 	0.16960 0.62570 0.76720 0.17100
H 	H 	0.11580 0.60160 0.68650 0.15900
N 	N 	0.73500 0.52990 0.77580 -0.24000
N 	N 	0.80620 0.51820 0.72390 -0.17800
H 	H 	0.61000 0.52050 0.88220 0.21300
Cd	Cd	0.64921 0.15050 0.99481 1.22500
Cd	Cd	0.79262 0.09158 0.20613 1.19600
Cd	Cd	0.59925 0.05259 0.38320 1.18100
Cd	Cd	0.01035 0.14760 0.36309 1.20700
Cl	Cl	0.76170 0.09260 0.01510 -0.70200
Cl	Cl	0.98870 0.08880 0.24050 -0.67800
Cl	Cl	0.73790 0.19180 0.88390 -0.64000
N 	N 	0.74620 0.08500 0.43760 -0.22000
N 	N 	0.79930 0.10150 0.37970 -0.16100
N 	N 	0.87930 0.11820 0.42720 -0.18400
N 	N 	0.87530 0.11460 0.52370 -0.23300
C 	C 	0.79330 0.09260 0.52870 0.19600
N 	N 	0.76390 0.08150 0.61490 -0.33200
H 	H 	0.71030 0.06840 0.61230 0.15300
H 	H 	0.79910 0.08770 0.67110 0.15400
N 	N 	0.88630 0.17790 0.25530 -0.23800
N 	N 	0.81600 0.15620 0.19850 -0.17800
N 	N 	0.76470 0.17720 0.12840 -0.17800
N 	N 	0.80240 0.21080 0.13420 -0.22900
C 	C 	0.87720 0.21120 0.21120 0.18900
N 	N 	0.93460 0.24070 0.24710 -0.33100
H 	H 	0.92380 0.26190 0.21900 0.14000
H 	H 	0.98190 0.23820 0.29810 0.12600
N 	N 	0.58070 0.23860 0.00500 -0.22900
N 	N 	0.54670 0.20320 0.00490 -0.21300
H 	H 	0.55580 0.30960 0.00350 0.15200
N 	N 	0.47220 0.12870 0.13280 -0.24500
N 	N 	0.56940 0.12330 0.11590 -0.19600
N 	N 	0.61660 0.10430 0.19220 -0.17500
N 	N 	0.55360 0.09620 0.25480 -0.23300
C 	C 	0.46730 0.11240 0.21280 0.20700
N 	N 	0.38310 0.11330 0.25900 -0.33500
H 	H 	0.33040 0.12570 0.23280 0.15700
H 	H 	0.38420 0.10160 0.31350 0.14600
N 	N 	0.76500 0.02990 0.22420 -0.24200
N 	N 	0.69380 0.01820 0.27610 -0.17500
H 	H 	0.89000 0.02050 0.11780 0.17800
Cd	Cd	0.14921 0.65050 0.99481 1.22800
Cd	Cd	0.29262 0.59158 0.20613 1.19800
Cd	Cd	0.09925 0.55259 0.38320 1.18600
Cd	Cd	0.51035 0.64760 0.36309 1.18600
Cl	Cl	0.26170 0.59260 0.01510 -0.68800
Cl	Cl	0.48870 0.58880 0.24050 -0.63800
Cl	Cl	0.23790 0.69180 0.88390 -0.62600
N 	N 	0.24620 0.58500 0.43760 -0.21900
N 	N 	0.29930 0.60150 0.37970 -0.15800
N 	N 	0.37930 0.61820 0.42720 -0.17000
N 	N 	0.37530 0.61460 0.52370 -0.22100
C 	C 	0.29330 0.59260 0.52870 0.20600
N 	N 	0.26390 0.58150 0.61490 -0.33600
H 	H 	0.21030 0.56840 0.61230 0.15900
H 	H 	0.29910 0.58770 0.67110 0.16800
N 	N 	0.38630 0.67790 0.25530 -0.22700
N 	N 	0.31600 0.65620 0.19850 -0.17400
N 	N 	0.26470 0.67720 0.12840 -0.17500
N 	N 	0.30240 0.71080 0.13420 -0.22700
C 	C 	0.37720 0.71120 0.21120 0.20400
N 	N 	0.43460 0.74070 0.24710 -0.33700
H 	H 	0.42380 0.76190 0.21900 0.15400
H 	H 	0.48190 0.73820 0.29810 0.14900
N 	N 	0.08070 0.73860 0.00500 -0.23100
N 	N 	0.04670 0.70320 0.00490 -0.18300
H 	H 	0.05580 0.80960 0.00350 0.15000
N 	N 	0.97220 0.62870 0.13280 -0.26100
N 	N 	0.06940 0.62330 0.11590 -0.16900
N 	N 	0.11660 0.60430 0.19220 -0.16900
N 	N 	0.05360 0.59620 0.25480 -0.19700
C 	C 	0.96730 0.61240 0.21280 0.14700
N 	N 	0.88310 0.61330 0.25900 -0.32300
H 	H 	0.83040 0.62570 0.23280 0.14700
H 	H 	0.88420 0.60160 0.31350 0.12600
N 	N 	0.26500 0.52990 0.22420 -0.23900
N 	N 	0.19380 0.51820 0.27610 -0.17500
H 	H 	0.39000 0.52050 0.11780 0.19000
Cd	Cd	0.64921 0.84950 0.99481 1.22500
Cd	Cd	0.79262 0.90842 0.20613 1.19600
Cd	Cd	0.59925 0.94741 0.38320 1.17800
Cd	Cd	0.01035 0.85240 0.36309 1.20700
Cl	Cl	0.76170 0.90740 0.01510 -0.70600
Cl	Cl	0.98870 0.91120 0.24050 -0.68200
Cl	Cl	0.73790 0.80820 0.88390 -0.64000
N 	N 	0.74620 0.91500 0.43760 -0.22100
N 	N 	0.79930 0.89850 0.37970 -0.16100
N 	N 	0.87930 0.88180 0.42720 -0.18400
N 	N 	0.87530 0.88540 0.52370 -0.23400
C 	C 	0.79330 0.90740 0.52870 0.19400
N 	N 	0.76390 0.91850 0.61490 -0.33100
H 	H 	0.71030 0.93160 0.61230 0.15000
H 	H 	0.79910 0.91230 0.67110 0.15300
N 	N 	0.88630 0.82210 0.25530 -0.23800
N 	N 	0.81600 0.84380 0.19850 -0.17800
N 	N 	0.76470 0.82280 0.12840 -0.17800
N 	N 	0.80240 0.78920 0.13420 -0.22900
C 	C 	0.87720 0.78880 0.21120 0.18900
N 	N 	0.93460 0.75930 0.24710 -0.33100
H 	H 	0.92380 0.73810 0.21900 0.14100
H 	H 	0.98190 0.76180 0.29810 0.12600
N 	N 	0.58070 0.76140 0.00500 -0.22900
N 	N 	0.54670 0.79680 0.00490 -0.21300
H 	H 	0.55580 0.69040 0.00350 0.15200
N 	N 	0.47220 0.87130 0.13280 -0.24500
N 	N 	0.56940 0.87670 0.11590 -0.19600
N 	N 	0.61660 0.89570 0.19220 -0.17500
N 	N 	0.55360 0.90380 0.25480 -0.23400
C 	C 	0.46730 0.88760 0.21280 0.20500
N 	N 	0.38310 0.88670 0.25900 -0.33500
H 	H 	0.33040 0.87430 0.23280 0.15700
H 	H 	0.38420 0.89840 0.31350 0.14600
N 	N 	0.76500 0.97010 0.22420 -0.24700
N 	N 	0.69380 0.98180 0.27610 -0.18500
H 	H 	0.89000 0.97950 0.11780 0.16900
Cd	Cd	0.14921 0.34950 0.99481 1.22800
Cd	Cd	0.29262 0.40842 0.20613 1.19800
Cd	Cd	0.09925 0.44741 0.38320 1.18600
Cd	Cd	0.51035 0.35240 0.36309 1.18600
Cl	Cl	0.26170 0.40740 0.01510 -0.68800
Cl	Cl	0.48870 0.41120 0.24050 -0.63800
Cl	Cl	0.23790 0.30820 0.88390 -0.62600
N 	N 	0.24620 0.41500 0.43760 -0.21900
N 	N 	0.29930 0.39850 0.37970 -0.15800
N 	N 	0.37930 0.38180 0.42720 -0.17000
N 	N 	0.37530 0.38540 0.52370 -0.22100
C 	C 	0.29330 0.40740 0.52870 0.20600
N 	N 	0.26390 0.41850 0.61490 -0.33600
H 	H 	0.21030 0.43160 0.61230 0.15900
H 	H 	0.29910 0.41230 0.67110 0.16800
N 	N 	0.38630 0.32210 0.25530 -0.22700
N 	N 	0.31600 0.34380 0.19850 -0.17400
N 	N 	0.26470 0.32280 0.12840 -0.17500
N 	N 	0.30240 0.28920 0.13420 -0.22700
C 	C 	0.37720 0.28880 0.21120 0.20400
N 	N 	0.43460 0.25930 0.24710 -0.33700
H 	H 	0.42380 0.23810 0.21900 0.15400
H 	H 	0.48190 0.26180 0.29810 0.14900
N 	N 	0.08070 0.26140 0.00500 -0.23100
N 	N 	0.04670 0.29680 0.00490 -0.18300
H 	H 	0.05580 0.19040 0.00350 0.15000
N 	N 	0.97220 0.37130 0.13280 -0.26100
N 	N 	0.06940 0.37670 0.11590 -0.16900
N 	N 	0.11660 0.39570 0.19220 -0.16900
N 	N 	0.05360 0.40380 0.25480 -0.19700
C 	C 	0.96730 0.38760 0.21280 0.14700
N 	N 	0.88310 0.38670 0.25900 -0.32300
H 	H 	0.83040 0.37430 0.23280 0.14700
H 	H 	0.88420 0.39840 0.31350 0.12600
N 	N 	0.26500 0.47010 0.22420 -0.23900
N 	N 	0.19380 0.48180 0.27610 -0.17500
H 	H 	0.39000 0.47950 0.11780 0.19000
Cd	Cd	0.35079 0.84950 0.00519 1.17100
Cd	Cd	0.20738 0.90842 0.79387 1.20000
Cd	Cd	0.40075 0.94741 0.61680 1.18100
Cd	Cd	0.98965 0.85240 0.63691 1.16200
Cl	Cl	0.23830 0.90740 0.98490 -0.58300
Cl	Cl	0.01130 0.91120 0.75950 -0.57300
Cl	Cl	0.26210 0.80820 0.11610 -0.68400
N 	N 	0.25380 0.91500 0.56240 -0.22000
N 	N 	0.20070 0.89850 0.62030 -0.15700
N 	N 	0.12070 0.88180 0.57280 -0.16200
N 	N 	0.12470 0.88540 0.47630 -0.21300
C 	C 	0.20670 0.90740 0.47130 0.20900
N 	N 	0.23610 0.91850 0.38510 -0.33300
H 	H 	0.28970 0.93160 0.38770 0.15200
H 	H 	0.20090 0.91230 0.32890 0.16800
N 	N 	0.11370 0.82210 0.74470 -0.21900
N 	N 	0.18400 0.84380 0.80150 -0.16700
N 	N 	0.23530 0.82280 0.87160 -0.15200
N 	N 	0.19760 0.78920 0.86580 -0.20700
C 	C 	0.12280 0.78880 0.78880 0.22500
N 	N 	0.06540 0.75930 0.75290 -0.34500
H 	H 	0.07620 0.73810 0.78100 0.17600
H 	H 	0.01810 0.76180 0.70190 0.16900
N 	N 	0.41930 0.76140 0.99500 -0.17300
N 	N 	0.45330 0.79680 0.99510 -0.12300
H 	H 	0.44420 0.69040 0.99650 0.22800
N 	N 	0.52780 0.87130 0.86720 -0.22500
N 	N 	0.43060 0.87670 0.88410 -0.16800
N 	N 	0.38340 0.89570 0.80780 -0.16900
N 	N 	0.44640 0.90380 0.74520 -0.23100
C 	C 	0.53270 0.88760 0.78720 0.21800
N 	N 	0.61690 0.88670 0.74100 -0.33400
H 	H 	0.66960 0.87430 0.76720 0.16300
H 	H 	0.61580 0.89840 0.68650 0.14800
N 	N 	0.23500 0.97010 0.77580 -0.24400
N 	N 	0.30620 0.98180 0.72390 -0.17900
H 	H 	0.11000 0.97950 0.88220 0.21300
Cd	Cd	0.85079 0.34950 0.00519 1.16800
Cd	Cd	0.70738 0.40842 0.79387 1.19900
Cd	Cd	0.90075 0.44741 0.61680 1.17000
Cd	Cd	0.48965 0.35240 0.63691 1.18900
Cl	Cl	0.73830 0.40740 0.98490 -0.59700
Cl	Cl	0.51130 0.41120 0.75950 -0.61100
Cl	Cl	0.76210 0.30820 0.11610 -0.69900
N 	N 	0.75380 0.41500 0.56240 -0.22300
N 	N 	0.70070 0.39850 0.62030 -0.16000
N 	N 	0.62070 0.38180 0.57280 -0.17200
N 	N 	0.62470 0.38540 0.47630 -0.22200
C 	C 	0.70670 0.40740 0.47130 0.19600
N 	N 	0.73610 0.41850 0.38510 -0.32800
H 	H 	0.78970 0.43160 0.38770 0.14200
H 	H 	0.70090 0.41230 0.32890 0.15400
N 	N 	0.61370 0.32210 0.74470 -0.22700
N 	N 	0.68400 0.34380 0.80150 -0.17100
N 	N 	0.73530 0.32280 0.87160 -0.15600
N 	N 	0.69760 0.28920 0.86580 -0.20800
C 	C 	0.62280 0.28880 0.78880 0.21600
N 	N 	0.56540 0.25930 0.75290 -0.34100
H 	H 	0.57620 0.23810 0.78100 0.16600
H 	H 	0.51810 0.26180 0.70190 0.15400
N 	N 	0.91930 0.26140 0.99500 -0.20300
N 	N 	0.95330 0.29680 0.99510 -0.15300
H 	H 	0.94420 0.19040 0.99650 0.17700
N 	N 	0.02780 0.37130 0.86720 -0.20900
N 	N 	0.93060 0.37670 0.88410 -0.19400
N 	N 	0.88340 0.39570 0.80780 -0.17500
N 	N 	0.94640 0.40380 0.74520 -0.26900
C 	C 	0.03270 0.38760 0.78720 0.27200
N 	N 	0.11690 0.38670 0.74100 -0.34400
H 	H 	0.16960 0.37430 0.76720 0.17100
H 	H 	0.11580 0.39840 0.68650 0.15900
N 	N 	0.73500 0.47010 0.77580 -0.24000
N 	N 	0.80620 0.48180 0.72390 -0.17800
H 	H 	0.61000 0.47950 0.88220 0.21300
Cd	Cd	0.25000 0.25000 -0.00000 1.18200
Cd	Cd	0.75000 0.25000 -0.00000 1.18000
Cd	Cd	0.75000 0.75000 -0.00000 1.18000
Cd	Cd	0.25000 0.75000 -0.00000 1.18200
Cl	Cl	0.50000 0.08863 0.50000 -0.68000
Cl	Cl	0.00000 0.58863 0.50000 -0.63300
Cl	Cl	0.50000 0.91137 0.50000 -0.68300
Cl	Cl	0.00000 0.41137 0.50000 -0.63300
Cl	Cl	0.34110 0.00000 0.49150 -0.70100
C 	C 	0.19500 0.00000 0.80400 0.28100
N 	N 	0.12700 -0.00000 0.86200 -0.39100
Cl	Cl	0.84110 0.50000 0.49150 -0.73900
C 	C 	0.69500 0.50000 0.80400 0.26400
N 	N 	0.62700 0.50000 0.86200 -0.39600
Cl	Cl	0.65890 0.00000 0.50850 -0.70900
C 	C 	0.80500 0.00000 0.19600 0.25500
N 	N 	0.87300 0.00000 0.13800 -0.37100
Cl	Cl	0.15890 0.50000 0.50850 -0.69700
C 	C 	0.30500 0.50000 0.19600 0.25400
N 	N 	0.37300 0.50000 0.13800 -0.38500
Cl	Cl	0.00000 0.19798 0.50000 -0.61200
Cl	Cl	0.50000 0.69798 0.50000 -0.65800
Cl	Cl	0.00000 0.80202 0.50000 -0.61200
Cl	Cl	0.50000 0.30202 0.50000 -0.65800
C 	C 	0.50000 0.26070 -0.00000 0.14400
N 	N 	0.50000 0.29780 -0.00000 -0.40100
C 	C 	0.00000 0.76070 -0.00000 0.19400
N 	N 	-0.00000 0.79780 -0.00000 -0.35300
C 	C 	0.50000 0.73930 -0.00000 0.14400
N 	N 	0.50000 0.70220 -0.00000 -0.40100
C 	C 	-0.00000 0.23930 -0.00000 0.19400
N 	N 	-0.00000 0.20220 -0.00000 -0.35300
