data_crystal

_cell_length_a 22.28070
_cell_length_b 22.28070
_cell_length_c 12.60440
_cell_angle_alpha 90.00000
_cell_angle_beta  90.00000
_cell_angle_gamma 120.00000

_symmetry_space_group_name_	'P 1'
_symmetry_space_group_name_H-M	'P 1'

loop_
_symmetry_equiv_pos_as_xyz
  x,y,z

loop_
_atom_site_label
_atom_site_type_symbol
_atom_site_fract_x
_atom_site_fract_y
_atom_site_fract_z
_atom_site_charge
Cu	Cu	0.20851 0.36943 0.83003 0.88100
N 	N 	0.15230 0.29670 0.52160 -0.11900
N 	N 	0.19480 0.33150 0.68300 -0.21500
N 	N 	0.17140 0.37010 0.15040 -0.11600
N 	N 	0.21060 0.38580 0.98520 -0.19900
N 	N 	0.03840 0.39850 0.81240 -0.12100
N 	N 	0.11530 0.36410 0.82200 -0.22800
N 	N 	0.01940 0.58760 0.76530 -0.14000
N 	N 	0.08330 0.69200 0.82830 -0.21100
C 	C 	0.11350 0.28920 0.42420 -0.03800
H 	H 	0.08150 0.30600 0.43580 0.03700
H 	H 	0.08690 0.24060 0.40470 0.04200
C 	C 	0.16340 0.33020 0.33460 -0.13200
H 	H 	0.19680 0.37610 0.36000 0.07000
H 	H 	0.18850 0.30710 0.31280 0.05900
C 	C 	0.12520 0.33650 0.24110 -0.04400
H 	H 	0.08880 0.29080 0.22030 0.04600
H 	H 	0.10370 0.36340 0.26150 0.04600
C 	C 	0.15760 0.33740 0.60480 0.07700
H 	H 	0.13810 0.36570 0.60720 -0.01100
C 	C 	0.20970 0.28210 0.64700 0.00600
H 	H 	0.23290 0.26450 0.68580 0.03800
C 	C 	0.18560 0.26280 0.54600 -0.00100
H 	H 	0.19120 0.23210 0.50290 0.03400
C 	C 	0.16090 0.34350 0.04970 0.06500
H 	H 	0.12340 0.30120 0.02950 -0.00100
C 	C 	0.25510 0.44140 0.04300 -0.01600
H 	H 	0.29500 0.47980 0.01760 0.01000
C 	C 	0.23120 0.43170 0.14720 -0.00300
H 	H 	0.25230 0.46190 0.20370 0.02500
C 	C 	0.00810 0.44400 0.80570 -0.02900
H 	H 	0.02360 0.47580 0.86540 0.04200
H 	H 	0.95790 0.41630 0.80880 0.04600
C 	C 	0.02920 0.48370 0.70510 -0.17300
H 	H 	0.01600 0.45180 0.64590 0.07300
H 	H 	0.07920 0.51310 0.70400 0.07700
C 	C 	0.99530 0.52870 0.69270 0.02900
H 	H 	0.00300 0.54620 0.62060 0.00700
H 	H 	0.94570 0.49920 0.70220 0.02200
C 	C 	0.10330 0.41550 0.82990 0.09900
H 	H 	0.13770 0.46040 0.84660 -0.02300
C 	C 	0.05250 0.30830 0.80300 0.03700
H 	H 	0.04250 0.26260 0.79690 -0.00700
C 	C 	0.00620 0.33150 0.79440 -0.03800
H 	H 	0.95940 0.30410 0.77840 0.04900
C 	C 	0.07470 0.65010 0.74800 0.08300
H 	H 	0.10300 0.66240 0.68830 -0.02000
C 	C 	0.02950 0.65370 0.89570 -0.01100
H 	H 	0.02140 0.66970 0.95920 0.04600
C 	C 	0.99060 0.59010 0.85690 0.03200
H 	H 	0.95090 0.55420 0.88770 0.02300
Cu	Cu	0.63057 0.83908 0.83003 0.88100
N 	N 	0.70330 0.85560 0.52160 -0.11900
N 	N 	0.66850 0.86330 0.68300 -0.21600
N 	N 	0.62990 0.80130 0.15040 -0.11600
N 	N 	0.61420 0.82480 0.98520 -0.20200
N 	N 	0.60150 0.63990 0.81240 -0.12600
N 	N 	0.63590 0.75120 0.82200 -0.22700
N 	N 	0.41240 0.43180 0.76530 -0.12100
N 	N 	0.30800 0.39130 0.82830 -0.21500
C 	C 	0.71080 0.82430 0.42420 -0.04200
H 	H 	0.69400 0.77550 0.43580 0.04200
H 	H 	0.75940 0.84630 0.40470 0.04600
C 	C 	0.66980 0.83320 0.33460 -0.12800
H 	H 	0.62390 0.82070 0.36000 0.06900
H 	H 	0.69290 0.88140 0.31280 0.05900
C 	C 	0.66350 0.78870 0.24110 -0.04800
H 	H 	0.70920 0.79800 0.22030 0.05000
H 	H 	0.63660 0.74030 0.26150 0.05000
C 	C 	0.66260 0.82020 0.60480 0.07800
H 	H 	0.63430 0.77240 0.60720 -0.01000
C 	C 	0.71790 0.92760 0.64700 0.00700
H 	H 	0.73550 0.96840 0.68580 0.04100
C 	C 	0.73720 0.92280 0.54600 0.00000
H 	H 	0.76790 0.95910 0.50290 0.03700
C 	C 	0.65650 0.81740 0.04970 0.06700
H 	H 	0.69880 0.82220 0.02950 0.00100
C 	C 	0.55860 0.81370 0.04300 -0.01300
H 	H 	0.52020 0.81520 0.01760 0.00900
C 	C 	0.56830 0.79950 0.14720 -0.00400
H 	H 	0.53810 0.79040 0.20370 0.02600
C 	C 	0.55600 0.56410 0.80570 -0.02300
H 	H 	0.52420 0.54780 0.86540 0.04400
H 	H 	0.58370 0.54160 0.80880 0.03800
C 	C 	0.51630 0.54550 0.70510 -0.14300
H 	H 	0.54820 0.56420 0.64590 0.06700
H 	H 	0.48690 0.56610 0.70400 0.06900
C 	C 	0.47130 0.46660 0.69270 -0.02800
H 	H 	0.45380 0.45680 0.62060 0.03200
H 	H 	0.50080 0.44650 0.70220 0.03600
C 	C 	0.58450 0.68780 0.82990 0.09900
H 	H 	0.53960 0.67730 0.84660 -0.02300
C 	C 	0.69170 0.74420 0.80300 0.02500
H 	H 	0.73740 0.77990 0.79690 0.00100
C 	C 	0.66850 0.67470 0.79440 -0.01000
H 	H 	0.69590 0.65530 0.77840 0.03300
C 	C 	0.34990 0.42460 0.74800 0.08100
H 	H 	0.33760 0.44060 0.68830 -0.01800
C 	C 	0.34630 0.37580 0.89570 0.01600
H 	H 	0.33030 0.35170 0.95920 0.04000
C 	C 	0.40990 0.40050 0.85690 -0.00400
H 	H 	0.44580 0.39670 0.88770 0.03400
Cu	Cu	0.16092 0.79149 0.83003 0.88100
N 	N 	0.14440 0.84770 0.52160 -0.11700
N 	N 	0.13670 0.80520 0.68300 -0.21600
N 	N 	0.19870 0.82860 0.15040 -0.11500
N 	N 	0.17520 0.78940 0.98520 -0.19900
N 	N 	0.36010 0.96160 0.81240 -0.13100
N 	N 	0.24880 0.88470 0.82200 -0.22400
N 	N 	0.56820 0.98060 0.76530 -0.10000
N 	N 	0.60870 0.91670 0.82830 -0.21900
C 	C 	0.17570 0.88650 0.42420 -0.04800
H 	H 	0.22450 0.91850 0.43580 0.04600
H 	H 	0.15370 0.91310 0.40470 0.04900
C 	C 	0.16680 0.83660 0.33460 -0.12000
H 	H 	0.17930 0.80320 0.36000 0.06700
H 	H 	0.11860 0.81150 0.31280 0.05400
C 	C 	0.21130 0.87480 0.24110 -0.05400
H 	H 	0.20200 0.91120 0.22030 0.05400
H 	H 	0.25970 0.89630 0.26150 0.05300
C 	C 	0.17980 0.84240 0.60480 0.07700
H 	H 	0.22760 0.86190 0.60720 -0.00900
C 	C 	0.07240 0.79030 0.64700 0.00600
H 	H 	0.03160 0.76710 0.68580 0.03500
C 	C 	0.07720 0.81440 0.54600 -0.00100
H 	H 	0.04090 0.80880 0.50290 0.03200
C 	C 	0.18260 0.83910 0.04970 0.06300
H 	H 	0.17780 0.87660 0.02950 0.00200
C 	C 	0.18630 0.74490 0.04300 -0.01700
H 	H 	0.18480 0.70500 0.01760 0.00900
C 	C 	0.20050 0.76880 0.14720 -0.00300
H 	H 	0.20960 0.74770 0.20370 0.02500
C 	C 	0.43590 0.99190 0.80570 -0.01300
H 	H 	0.45220 0.97640 0.86540 0.04500
H 	H 	0.45840 0.04210 0.80880 0.02800
C 	C 	0.45450 0.97080 0.70510 -0.11200
H 	H 	0.43580 0.98400 0.64590 0.06100
H 	H 	0.43390 0.92080 0.70400 0.06100
C 	C 	0.53340 0.00470 0.69270 -0.08500
H 	H 	0.54320 0.99700 0.62060 0.05700
H 	H 	0.55350 0.05430 0.70220 0.05100
C 	C 	0.31220 0.89670 0.82990 0.10100
H 	H 	0.32270 0.86230 0.84660 -0.02300
C 	C 	0.25580 0.94750 0.80300 0.01100
H 	H 	0.22010 0.95750 0.79690 0.00900
C 	C 	0.32530 0.99380 0.79440 0.02200
H 	H 	0.34470 0.04060 0.77840 0.01400
C 	C 	0.57540 0.92530 0.74800 0.07900
H 	H 	0.55940 0.89700 0.68830 -0.01600
C 	C 	0.62420 0.97050 0.89570 0.04800
H 	H 	0.64830 0.97860 0.95920 0.03200
C 	C 	0.59950 0.00940 0.85690 -0.04600
H 	H 	0.60330 0.04910 0.88770 0.04700
Cu	Cu	0.79149 0.63057 0.16997 0.87800
N 	N 	0.84770 0.70330 0.47840 -0.11800
N 	N 	0.80520 0.66850 0.31700 -0.21600
N 	N 	0.82860 0.62990 0.84960 -0.11700
N 	N 	0.78940 0.61420 0.01480 -0.23800
N 	N 	0.96160 0.60150 0.18760 -0.13400
N 	N 	0.88470 0.63590 0.17800 -0.22700
N 	N 	0.98060 0.41240 0.23470 -0.09400
N 	N 	0.91670 0.30800 0.17170 -0.22200
C 	C 	0.88650 0.71080 0.57580 -0.04600
H 	H 	0.91850 0.69400 0.56420 0.04600
H 	H 	0.91310 0.75940 0.59530 0.04900
C 	C 	0.83660 0.66980 0.66540 -0.12400
H 	H 	0.80320 0.62390 0.64000 0.06800
H 	H 	0.81150 0.69290 0.68720 0.05700
C 	C 	0.87480 0.66350 0.75890 -0.05000
H 	H 	0.91120 0.70920 0.77970 0.05300
H 	H 	0.89630 0.63660 0.73850 0.05200
C 	C 	0.84240 0.66260 0.39520 0.07800
H 	H 	0.86190 0.63430 0.39280 -0.00900
C 	C 	0.79030 0.71790 0.35300 0.00700
H 	H 	0.76710 0.73550 0.31420 0.03800
C 	C 	0.81440 0.73720 0.45400 -0.00000
H 	H 	0.80880 0.76790 0.49710 0.03500
C 	C 	0.83910 0.65650 0.95030 0.10300
H 	H 	0.87660 0.69880 0.97050 0.00100
C 	C 	0.74490 0.55860 0.95700 0.02700
H 	H 	0.70500 0.52020 0.98240 0.00600
C 	C 	0.76880 0.56830 0.85280 -0.01700
H 	H 	0.74770 0.53810 0.79630 0.03200
C 	C 	0.99190 0.55600 0.19430 -0.00900
H 	H 	0.97640 0.52420 0.13460 0.03800
H 	H 	0.04210 0.58370 0.19120 0.02200
C 	C 	0.97080 0.51630 0.29490 -0.10700
H 	H 	0.98400 0.54820 0.35410 0.06000
H 	H 	0.92080 0.48690 0.29600 0.05800
C 	C 	0.00470 0.47130 0.30730 -0.09900
H 	H 	0.99700 0.45380 0.37940 0.06200
H 	H 	0.05430 0.50080 0.29780 0.05300
C 	C 	0.89670 0.58450 0.17010 0.09700
H 	H 	0.86230 0.53960 0.15340 -0.02800
C 	C 	0.94750 0.69170 0.19700 0.00600
H 	H 	0.95750 0.73740 0.20310 0.01000
C 	C 	0.99380 0.66850 0.20560 0.02300
H 	H 	0.04060 0.69590 0.22160 0.01100
C 	C 	0.92530 0.34990 0.25200 0.07600
H 	H 	0.89700 0.33760 0.31170 -0.01600
C 	C 	0.97050 0.34630 0.10430 0.05700
H 	H 	0.97860 0.33030 0.04080 0.02000
C 	C 	0.00940 0.40990 0.14310 -0.06300
H 	H 	0.04910 0.44580 0.11230 0.04500
Cu	Cu	0.36943 0.16092 0.16997 0.87800
N 	N 	0.29670 0.14440 0.47840 -0.11900
N 	N 	0.33150 0.13670 0.31700 -0.21600
N 	N 	0.37010 0.19870 0.84960 -0.11800
N 	N 	0.38580 0.17520 0.01480 -0.24000
N 	N 	0.39850 0.36010 0.18760 -0.12900
N 	N 	0.36410 0.24880 0.17800 -0.22900
N 	N 	0.58760 0.56820 0.23470 -0.12200
N 	N 	0.69200 0.60870 0.17170 -0.21800
C 	C 	0.28920 0.17570 0.57580 -0.04400
H 	H 	0.30600 0.22450 0.56420 0.04200
H 	H 	0.24060 0.15370 0.59530 0.04500
C 	C 	0.33020 0.16680 0.66540 -0.12700
H 	H 	0.37610 0.17930 0.64000 0.06800
H 	H 	0.30710 0.11860 0.68720 0.05700
C 	C 	0.33650 0.21130 0.75890 -0.04700
H 	H 	0.29080 0.20200 0.77970 0.05100
H 	H 	0.36340 0.25970 0.73850 0.05000
C 	C 	0.33740 0.17980 0.39520 0.07700
H 	H 	0.36570 0.22760 0.39280 -0.01000
C 	C 	0.28210 0.07240 0.35300 0.00600
H 	H 	0.26450 0.03160 0.31420 0.03500
C 	C 	0.26280 0.07720 0.45400 -0.00200
H 	H 	0.23210 0.04090 0.49710 0.03100
C 	C 	0.34350 0.18260 0.95030 0.10400
H 	H 	0.30120 0.17780 0.97050 0.00000
C 	C 	0.44140 0.18630 0.95700 0.02900
H 	H 	0.47980 0.18480 0.98240 0.00500
C 	C 	0.43170 0.20050 0.85280 -0.01700
H 	H 	0.46190 0.20960 0.79630 0.03100
C 	C 	0.44400 0.43590 0.19430 -0.01900
H 	H 	0.47580 0.45220 0.13460 0.03500
H 	H 	0.41630 0.45840 0.19120 0.03400
C 	C 	0.48370 0.45450 0.29490 -0.14500
H 	H 	0.45180 0.43580 0.35410 0.06800
H 	H 	0.51310 0.43390 0.29600 0.06900
C 	C 	0.52870 0.53340 0.30730 -0.02700
H 	H 	0.54620 0.54320 0.37940 0.03200
H 	H 	0.49920 0.55350 0.29780 0.03500
C 	C 	0.41550 0.31220 0.17010 0.09600
H 	H 	0.46040 0.32270 0.15340 -0.02900
C 	C 	0.30830 0.25580 0.19700 0.02100
H 	H 	0.26260 0.22010 0.20310 0.00000
C 	C 	0.33150 0.32530 0.20560 -0.01300
H 	H 	0.30410 0.34470 0.22160 0.03100
C 	C 	0.65010 0.57540 0.25200 0.07900
H 	H 	0.66240 0.55940 0.31170 -0.01900
C 	C 	0.65370 0.62420 0.10430 0.01400
H 	H 	0.66970 0.64830 0.04080 0.02900
C 	C 	0.59010 0.59950 0.14310 -0.00700
H 	H 	0.55420 0.60330 0.11230 0.02900
Cu	Cu	0.83908 0.20851 0.16997 0.87800
N 	N 	0.85560 0.15230 0.47840 -0.12000
N 	N 	0.86330 0.19480 0.31700 -0.21600
N 	N 	0.80130 0.17140 0.84960 -0.11900
N 	N 	0.82480 0.21060 0.01480 -0.23700
N 	N 	0.63990 0.03840 0.18760 -0.12500
N 	N 	0.75120 0.11530 0.17800 -0.23100
N 	N 	0.43180 0.01940 0.23470 -0.14200
N 	N 	0.39130 0.08330 0.17170 -0.21400
C 	C 	0.82430 0.11350 0.57580 -0.03800
H 	H 	0.77550 0.08150 0.56420 0.03800
H 	H 	0.84630 0.08690 0.59530 0.04300
C 	C 	0.83320 0.16340 0.66540 -0.13400
H 	H 	0.82070 0.19680 0.64000 0.07100
H 	H 	0.88140 0.18850 0.68720 0.06100
C 	C 	0.78870 0.12520 0.75890 -0.04200
H 	H 	0.79800 0.08880 0.77970 0.04700
H 	H 	0.74030 0.10370 0.73850 0.04700
C 	C 	0.82020 0.15760 0.39520 0.07700
H 	H 	0.77240 0.13810 0.39280 -0.01100
C 	C 	0.92760 0.20970 0.35300 0.00700
H 	H 	0.96840 0.23290 0.31420 0.04200
C 	C 	0.92280 0.18560 0.45400 0.00100
H 	H 	0.95910 0.19120 0.49710 0.03700
C 	C 	0.81740 0.16090 0.95030 0.10100
H 	H 	0.82220 0.12340 0.97050 -0.00100
C 	C 	0.81370 0.25510 0.95700 0.02600
H 	H 	0.81520 0.29500 0.98240 0.00700
C 	C 	0.79950 0.23120 0.85280 -0.01600
H 	H 	0.79040 0.25230 0.79630 0.03100
C 	C 	0.56410 0.00810 0.19430 -0.02400
H 	H 	0.54780 0.02360 0.13460 0.03400
H 	H 	0.54160 0.95790 0.19120 0.04100
C 	C 	0.54550 0.02920 0.29490 -0.17600
H 	H 	0.56420 0.01600 0.35410 0.07400
H 	H 	0.56610 0.07920 0.29600 0.07700
C 	C 	0.46660 0.99530 0.30730 0.02800
H 	H 	0.45680 0.00300 0.37940 0.00800
H 	H 	0.44650 0.94570 0.29780 0.02100
C 	C 	0.68780 0.10330 0.17010 0.09500
H 	H 	0.67730 0.13770 0.15340 -0.02900
C 	C 	0.74420 0.05250 0.19700 0.03200
H 	H 	0.77990 0.04250 0.20310 -0.00600
C 	C 	0.67470 0.00620 0.20560 -0.03600
H 	H 	0.65530 0.95940 0.22160 0.04600
C 	C 	0.42460 0.07470 0.25200 0.08100
H 	H 	0.44060 0.10300 0.31170 -0.02100
C 	C 	0.37580 0.02950 0.10430 -0.01500
H 	H 	0.35170 0.02140 0.04080 0.03600
C 	C 	0.40050 0.99060 0.14310 0.03100
H 	H 	0.39670 0.95090 0.11230 0.01700
Mo	Mo	0.13950 0.16130 0.91480 0.79000
Mo	Mo	0.97398 0.10071 0.80720 0.97200
O 	O 	0.06800 0.13330 0.80130 -0.59100
O 	O 	0.14080 0.17720 0.06430 -0.41200
O 	O 	0.20980 0.23710 0.88200 -0.26900
O 	O 	0.88710 0.02430 0.80320 -0.57000
O 	O 	0.04700 0.04900 0.90500 -0.40200
Mo	Mo	0.11650 0.17170 0.92930 0.69800
Mo	Mo	0.98150 0.05150 0.74210 0.84400
O 	O 	0.16600 0.14000 0.01800 -0.40700
O 	O 	0.16000 0.25260 0.87800 -0.34800
O 	O 	0.97000 0.07100 0.61600 -0.45400
O 	O 	0.01500 0.07280 0.97000 -0.24600
Mo	Mo	0.83870 0.97820 0.91480 0.79500
Mo	Mo	0.89929 0.87327 0.80720 0.96900
O 	O 	0.86670 0.93470 0.80130 -0.58300
O 	O 	0.82280 0.96360 0.06430 -0.40500
O 	O 	0.76290 0.97270 0.88200 -0.26500
O 	O 	0.97570 0.86280 0.80320 -0.55700
O 	O 	0.95100 0.99800 0.90500 -0.38300
Mo	Mo	0.82830 0.94480 0.92930 0.69500
Mo	Mo	0.94850 0.93000 0.74210 0.84700
O 	O 	0.86000 0.02600 0.01800 -0.41100
O 	O 	0.74740 0.90740 0.87800 -0.34800
O 	O 	0.92900 0.89900 0.61600 -0.45200
O 	O 	0.92720 0.94220 0.97000 -0.23700
Mo	Mo	0.02180 0.86050 0.91480 0.78300
Mo	Mo	0.12673 0.02602 0.80720 0.96500
O 	O 	0.06530 0.93200 0.80130 -0.58500
O 	O 	0.03640 0.85920 0.06430 -0.42100
O 	O 	0.02730 0.79020 0.88200 -0.27200
O 	O 	0.13720 0.11290 0.80320 -0.56300
O 	O 	0.00200 0.95300 0.90500 -0.40100
Mo	Mo	0.05520 0.88350 0.92930 0.70100
Mo	Mo	0.07000 0.01850 0.74210 0.83700
O 	O 	0.97400 0.83400 0.01800 -0.39500
O 	O 	0.09260 0.84000 0.87800 -0.34700
O 	O 	0.10100 0.03000 0.61600 -0.46300
O 	O 	0.05780 0.98500 0.97000 -0.22600
Mo	Mo	0.86050 0.83870 0.08520 0.78100
Mo	Mo	0.02602 0.89929 0.19280 0.96500
O 	O 	0.93200 0.86670 0.19870 -0.58100
O 	O 	0.85920 0.82280 0.93570 -0.40100
O 	O 	0.79020 0.76290 0.11800 -0.27500
O 	O 	0.11290 0.97570 0.19680 -0.55700
O 	O 	0.95300 0.95100 0.09500 -0.39300
Mo	Mo	0.88350 0.82830 0.07070 0.69300
Mo	Mo	0.01850 0.94850 0.25790 0.84200
O 	O 	0.83400 0.86000 0.98200 -0.38900
O 	O 	0.84000 0.74740 0.12200 -0.35200
O 	O 	0.03000 0.92900 0.38400 -0.45800
O 	O 	0.98500 0.92720 0.03000 -0.25000
Mo	Mo	0.16130 0.02180 0.08520 0.77300
Mo	Mo	0.10071 0.12673 0.19280 0.96900
O 	O 	0.13330 0.06530 0.19870 -0.58900
O 	O 	0.17720 0.03640 0.93570 -0.40800
O 	O 	0.23710 0.02730 0.11800 -0.28000
O 	O 	0.02430 0.13720 0.19680 -0.57600
O 	O 	0.04900 0.00200 0.09500 -0.41600
Mo	Mo	0.17170 0.05520 0.07070 0.69600
Mo	Mo	0.05150 0.07000 0.25790 0.83800
O 	O 	0.14000 0.97400 0.98200 -0.37700
O 	O 	0.25260 0.09260 0.12200 -0.35300
O 	O 	0.07100 0.10100 0.38400 -0.46200
O 	O 	0.07280 0.05780 0.03000 -0.26400
Mo	Mo	0.97820 0.13950 0.08520 0.79100
Mo	Mo	0.87327 0.97398 0.19280 0.97100
O 	O 	0.93470 0.06800 0.19870 -0.58400
O 	O 	0.96360 0.14080 0.93570 -0.39500
O 	O 	0.97270 0.20980 0.11800 -0.26900
O 	O 	0.86280 0.88710 0.19680 -0.56400
O 	O 	0.99800 0.04700 0.09500 -0.38700
Mo	Mo	0.94480 0.11650 0.07070 0.69000
Mo	Mo	0.93000 0.98150 0.25790 0.84800
O 	O 	0.02600 0.16600 0.98200 -0.39700
O 	O 	0.90740 0.16000 0.12200 -0.35300
O 	O 	0.89900 0.97000 0.38400 -0.45100
O 	O 	0.94220 0.01500 0.03000 -0.26300
P 	P 	-0.00000 0.00000 -0.00000 1.00600
