data_crystal

_cell_length_a 8.91470
_cell_length_b 12.71500
_cell_length_c 21.22600
_cell_angle_alpha 90.21000
_cell_angle_beta  94.14000
_cell_angle_gamma 91.29000

_symmetry_space_group_name_	'P 1'
_symmetry_space_group_name_H-M	'P 1'

loop_
_symmetry_equiv_pos_as_xyz
  x,y,z

loop_
_atom_site_label
_atom_site_type_symbol
_atom_site_fract_x
_atom_site_fract_y
_atom_site_fract_z
_atom_site_charge
O 	O 	0.16700 0.42800 0.27670 -0.51600
Mn	Mn	0.60220 0.27080 0.23740 1.31700
Mn	Mn	0.97410 0.36080 0.24690 1.32000
Mn	Mn	0.27950 0.14510 0.26260 1.31700
O 	O 	0.51700 0.12600 0.28110 -0.57300
O 	O 	0.73900 0.07500 0.31410 -0.33200
O 	O 	0.09600 0.66400 0.65600 -0.44800
O 	O 	0.33800 0.68100 0.67190 -0.53000
O 	O 	0.35900 0.31400 0.26540 -0.56300
O 	O 	0.48200 0.74900 0.29110 -0.24600
O 	O 	0.57000 0.84900 0.48860 -0.26700
O 	O 	0.31700 0.55000 0.45750 -0.25000
O 	O 	0.83600 0.23200 0.20420 -0.55300
O 	O 	0.05300 0.18900 0.24040 -0.61700
O 	O 	0.81500 0.83700 0.20730 -0.24100
O 	O 	0.76000 0.02500 0.02970 -0.23900
O 	O 	0.80400 0.66900 0.01960 -0.23000
O 	O 	0.46200 0.77100 0.85570 -0.45500
O 	O 	0.66500 0.86600 0.83550 -0.42900
O 	O 	0.62500 0.42500 0.19230 -0.50700
O 	O 	0.83000 0.48800 0.23230 -0.54000
O 	O 	0.20600 0.15600 0.36250 -0.48300
H 	H 	0.11520 0.16520 0.36130 0.26200
O 	O 	0.24000 0.97500 0.25800 -0.49200
H 	H 	0.19220 0.95620 0.28730 0.25700
O 	O 	0.07100 0.37700 0.14800 -0.45000
H 	H 	0.11200 0.43490 0.14520 0.25600
C 	C 	0.60100 0.06700 0.31530 0.48800
C 	C 	0.52400 0.98500 0.35600 -0.48600
H 	H 	0.51000 0.01410 0.39710 0.20200
H 	H 	0.42640 0.96500 0.33580 0.18900
C 	C 	0.62200 0.88900 0.36300 0.16000
H 	H 	0.65590 0.86910 0.32180 0.02600
H 	H 	0.71050 0.90470 0.39080 0.01200
C 	C 	0.51900 0.78800 0.45400 0.32200
C 	C 	0.46900 0.73400 0.34700 0.30100
C 	C 	0.38000 0.62700 0.43800 0.30300
C 	C 	0.30700 0.58200 0.33200 0.20400
H 	H 	0.27790 0.61930 0.29340 -0.00100
H 	H 	0.21620 0.56030 0.35110 0.00700
C 	C 	0.39300 0.48100 0.31400 -0.57200
H 	H 	0.47250 0.50190 0.28760 0.21400
H 	H 	0.44060 0.45220 0.35270 0.22400
C 	C 	0.30100 0.40100 0.28260 0.57300
C 	C 	0.42200 0.68000 0.54390 0.11900
H 	H 	0.49870 0.72060 0.56860 0.02600
H 	H 	0.43900 0.60640 0.55280 0.02400
C 	C 	0.26400 0.70800 0.56900 -0.43500
H 	H 	0.25150 0.78330 0.56300 0.17400
H 	H 	0.18700 0.67320 0.54090 0.18400
C 	C 	0.23000 0.68200 0.63730 0.52200
C 	C 	0.94200 0.16600 0.21120 0.54500
C 	C 	0.93600 0.05700 0.18200 -0.30900
H 	H 	0.01790 0.01270 0.18010 0.17000
C 	C 	0.78600 0.03100 0.15700 0.12200
H 	H 	0.74660 0.08790 0.13040 0.03300
H 	H 	0.72010 0.02050 0.19090 0.02100
C 	C 	0.77800 0.94200 0.05500 0.29900
C 	C 	0.80900 0.84100 0.15100 0.30000
C 	C 	0.80100 0.75000 0.05000 0.29200
C 	C 	0.75400 0.85000 0.95500 0.05400
H 	H 	0.81300 0.79710 0.93590 0.05400
H 	H 	0.78160 0.91850 0.93960 0.05400
C 	C 	0.59200 0.82800 0.94300 -0.21400
H 	H 	0.51960 0.81950 0.97190 0.15000
C 	C 	0.57100 0.82100 0.87200 0.44500
C 	C 	0.84100 0.64900 0.14500 0.18100
H 	H 	0.91200 0.65850 0.18180 0.00800
H 	H 	0.88420 0.60060 0.11640 0.00200
C 	C 	0.69300 0.60000 0.16700 -0.53600
H 	H 	0.64900 0.64900 0.19500 0.22300
H 	H 	0.62220 0.59000 0.13000 0.21500
C 	C 	0.71800 0.49500 0.20000 0.61700
N 	N 	0.39100 0.65000 0.37320 -0.22300
N 	N 	0.44300 0.69800 0.47540 -0.21700
N 	N 	0.53400 0.79800 0.38880 -0.22000
N 	N 	0.79500 0.93400 0.11960 -0.20500
N 	N 	0.81600 0.75100 0.11390 -0.21500
N 	N 	0.77800 0.84700 0.02280 -0.19400
O 	O 	0.83300 0.57200 0.72330 -0.51600
Mn	Mn	0.39780 0.72920 0.76260 1.31700
Mn	Mn	0.02590 0.63920 0.75310 1.32000
Mn	Mn	0.72050 0.85490 0.73740 1.31700
O 	O 	0.48300 0.87400 0.71890 -0.57300
O 	O 	0.26100 0.92500 0.68590 -0.33200
O 	O 	0.90400 0.33600 0.34400 -0.44800
O 	O 	0.66200 0.31900 0.32810 -0.53000
O 	O 	0.64100 0.68600 0.73460 -0.56300
O 	O 	0.51800 0.25100 0.70890 -0.24600
O 	O 	0.43000 0.15100 0.51140 -0.26700
O 	O 	0.68300 0.45000 0.54250 -0.25000
O 	O 	0.16400 0.76800 0.79580 -0.55300
O 	O 	0.94700 0.81100 0.75960 -0.61700
O 	O 	0.18500 0.16300 0.79270 -0.24100
O 	O 	0.24000 0.97500 0.97030 -0.23900
O 	O 	0.19600 0.33100 0.98040 -0.23000
O 	O 	0.53800 0.22900 0.14430 -0.45500
O 	O 	0.33500 0.13400 0.16450 -0.42900
O 	O 	0.37500 0.57500 0.80770 -0.50700
O 	O 	0.17000 0.51200 0.76770 -0.54000
O 	O 	0.79400 0.84400 0.63750 -0.48300
H 	H 	0.88480 0.83480 0.63870 0.26200
O 	O 	0.76000 0.02500 0.74200 -0.49200
H 	H 	0.80780 0.04380 0.71270 0.25700
O 	O 	0.92900 0.62300 0.85200 -0.45000
H 	H 	0.88800 0.56510 0.85480 0.25600
C 	C 	0.39900 0.93300 0.68470 0.48800
C 	C 	0.47600 0.01500 0.64400 -0.48600
H 	H 	0.49000 0.98590 0.60290 0.20200
H 	H 	0.57360 0.03500 0.66420 0.18900
C 	C 	0.37800 0.11100 0.63700 0.16000
H 	H 	0.34410 0.13090 0.67820 0.02600
H 	H 	0.28950 0.09530 0.60920 0.01200
C 	C 	0.48100 0.21200 0.54600 0.32200
C 	C 	0.53100 0.26600 0.65300 0.30100
C 	C 	0.62000 0.37300 0.56200 0.30300
C 	C 	0.69300 0.41800 0.66800 0.20400
H 	H 	0.72210 0.38070 0.70660 -0.00100
H 	H 	0.78380 0.43970 0.64890 0.00700
C 	C 	0.60700 0.51900 0.68600 -0.57200
H 	H 	0.52750 0.49810 0.71240 0.21400
H 	H 	0.55940 0.54780 0.64730 0.22400
C 	C 	0.69900 0.59900 0.71740 0.57300
C 	C 	0.57800 0.32000 0.45610 0.11900
H 	H 	0.50130 0.27940 0.43140 0.02600
H 	H 	0.56100 0.39360 0.44720 0.02400
C 	C 	0.73600 0.29200 0.43100 -0.43500
H 	H 	0.74850 0.21670 0.43700 0.17400
H 	H 	0.81300 0.32680 0.45910 0.18400
C 	C 	0.77000 0.31800 0.36270 0.52200
C 	C 	0.05800 0.83400 0.78880 0.54500
C 	C 	0.06400 0.94300 0.81800 -0.30900
H 	H 	0.98210 0.98730 0.81990 0.17000
C 	C 	0.21400 0.96900 0.84300 0.12200
H 	H 	0.25340 0.91210 0.86960 0.03300
H 	H 	0.27990 0.97950 0.80910 0.02100
C 	C 	0.22200 0.05800 0.94500 0.29900
C 	C 	0.19100 0.15900 0.84900 0.30000
C 	C 	0.19900 0.25000 0.95000 0.29200
C 	C 	0.24600 0.15000 0.04500 0.05400
H 	H 	0.18700 0.20290 0.06410 0.05400
H 	H 	0.21840 0.08150 0.06040 0.05400
C 	C 	0.40800 0.17200 0.05700 -0.21400
H 	H 	0.48040 0.18050 0.02810 0.15000
C 	C 	0.42900 0.17900 0.12800 0.44500
C 	C 	0.15900 0.35100 0.85500 0.18100
H 	H 	0.08800 0.34150 0.81820 0.00800
H 	H 	0.11580 0.39940 0.88360 0.00200
C 	C 	0.30700 0.40000 0.83300 -0.53600
H 	H 	0.35100 0.35100 0.80500 0.22300
H 	H 	0.37780 0.41000 0.87000 0.21500
C 	C 	0.28200 0.50500 0.80000 0.61700
N 	N 	0.60900 0.35000 0.62680 -0.22300
N 	N 	0.55700 0.30200 0.52460 -0.21700
N 	N 	0.46600 0.20200 0.61120 -0.22000
N 	N 	0.20500 0.06600 0.88040 -0.20500
N 	N 	0.18400 0.24900 0.88610 -0.21500
N 	N 	0.22200 0.15300 0.97720 -0.19400
