data_crystal

_cell_length_a 9.17260
_cell_length_b 9.71450
_cell_length_c 22.34440
_cell_angle_alpha 90.00000
_cell_angle_beta  90.00000
_cell_angle_gamma 117.29500

_symmetry_space_group_name_	'P 1'
_symmetry_space_group_name_H-M	'P 1'

loop_
_symmetry_equiv_pos_as_xyz
  x,y,z

loop_
_atom_site_label
_atom_site_type_symbol
_atom_site_fract_x
_atom_site_fract_y
_atom_site_fract_z
_atom_site_charge
Sm	Sm	0.88233 0.14285 0.00869 2.21200
Sm	Sm	0.61767 0.85715 0.50868 2.24000
Sm	Sm	0.11767 0.85715 0.99131 2.21100
Sm	Sm	0.38233 0.14285 0.49132 2.23900
Ag	Ag	0.51691 0.17933 0.14763 0.55000
Ag	Ag	0.98309 0.82067 0.64763 0.55100
Ag	Ag	0.48309 0.82067 0.85237 0.55000
Ag	Ag	0.01691 0.17933 0.35237 0.55100
H 	H 	0.75600 0.46960 0.86810 0.11400
H 	H 	0.31660 0.52910 0.93340 -0.01400
H 	H 	0.72210 0.67880 0.84100 -0.02500
H 	H 	0.56080 0.27950 0.92790 -0.00900
H 	H 	0.98830 0.13950 0.21840 -0.00700
H 	H 	0.10060 0.81240 0.15890 -0.00600
H 	H 	0.11410 0.90970 0.33220 -0.00700
H 	H 	0.14000 0.76350 0.25730 0.09500
H 	H 	0.74400 0.53040 0.36810 0.11400
H 	H 	0.18340 0.47090 0.43340 -0.01400
H 	H 	0.77790 0.32120 0.34100 -0.02500
H 	H 	0.93920 0.72050 0.42790 -0.01100
H 	H 	0.51170 0.86050 0.71840 -0.01200
H 	H 	0.39940 0.18760 0.65890 -0.01100
H 	H 	0.38590 0.09030 0.83220 -0.00800
H 	H 	0.36000 0.23650 0.75730 0.09800
H 	H 	0.24400 0.53040 0.13190 0.11400
H 	H 	0.68340 0.47090 0.06660 -0.01400
H 	H 	0.27790 0.32120 0.15900 -0.02500
H 	H 	0.43920 0.72050 0.07210 -0.00900
H 	H 	0.01170 0.86050 0.78160 -0.00700
H 	H 	0.89940 0.18760 0.84110 -0.00600
H 	H 	0.88590 0.09030 0.66780 -0.00700
H 	H 	0.86000 0.23650 0.74270 0.09500
H 	H 	0.25600 0.46960 0.63190 0.11400
H 	H 	0.81660 0.52910 0.56660 -0.01400
H 	H 	0.22210 0.67880 0.65900 -0.02500
H 	H 	0.06080 0.27950 0.57210 -0.01100
H 	H 	0.48830 0.13950 0.28160 -0.01200
H 	H 	0.60060 0.81240 0.34110 -0.01100
H 	H 	0.61410 0.90970 0.16780 -0.00800
H 	H 	0.64000 0.76350 0.24270 0.09800
C 	C 	0.41470 0.38340 0.93617 -0.22200
C 	C 	0.66480 0.47890 0.88129 -0.19800
C 	C 	0.40470 0.51540 0.91951 0.13100
C 	C 	0.64410 0.60420 0.86566 0.11600
C 	C 	0.28110 0.25860 0.97226 0.50700
C 	C 	0.54900 0.36620 0.91690 0.14200
C 	C 	0.02080 0.06360 0.22618 0.09200
C 	C 	0.08640 0.86910 0.18990 0.10800
C 	C 	0.09310 0.92780 0.29305 0.11200
C 	C 	0.04010 0.98310 0.17816 -0.19600
C 	C 	0.11110 0.84120 0.24830 -0.18800
C 	C 	0.49720 0.02070 0.03303 0.25300
C 	C 	0.00780 0.02290 0.11643 0.47100
C 	C 	0.00830 0.50810 0.03469 0.27300
C 	C 	0.08530 0.61660 0.43617 -0.22400
C 	C 	0.83520 0.52110 0.38129 -0.19900
C 	C 	0.09530 0.48460 0.41951 0.13200
C 	C 	0.85590 0.39580 0.36566 0.11700
C 	C 	0.21890 0.74140 0.47226 0.51000
C 	C 	0.95100 0.63380 0.41690 0.14300
C 	C 	0.47920 0.93640 0.72618 0.10400
C 	C 	0.41360 0.13090 0.68990 0.11900
C 	C 	0.40690 0.07220 0.79305 0.11600
C 	C 	0.45990 0.01690 0.67816 -0.21400
C 	C 	0.38890 0.15880 0.74830 -0.19600
C 	C 	0.00280 0.97930 0.53303 0.26400
C 	C 	0.49220 0.97710 0.61643 0.48900
C 	C 	0.49170 0.49190 0.53469 0.26900
C 	C 	0.58530 0.61660 0.06383 -0.22200
C 	C 	0.33520 0.52110 0.11871 -0.19800
C 	C 	0.59530 0.48460 0.08049 0.13100
C 	C 	0.35590 0.39580 0.13434 0.11600
C 	C 	0.71890 0.74140 0.02774 0.50700
C 	C 	0.45100 0.63380 0.08310 0.14200
C 	C 	0.97920 0.93640 0.77382 0.09200
C 	C 	0.91360 0.13090 0.81010 0.10800
C 	C 	0.90690 0.07220 0.70695 0.11200
C 	C 	0.95990 0.01690 0.82184 -0.19600
C 	C 	0.88890 0.15880 0.75170 -0.18800
C 	C 	0.50280 0.97930 0.96697 0.25300
C 	C 	0.99220 0.97710 0.88357 0.47100
C 	C 	0.99170 0.49190 0.96531 0.27300
C 	C 	0.91470 0.38340 0.56383 -0.22400
C 	C 	0.16480 0.47890 0.61871 -0.19900
C 	C 	0.90470 0.51540 0.58049 0.13200
C 	C 	0.14410 0.60420 0.63434 0.11700
C 	C 	0.78110 0.25860 0.52774 0.51000
C 	C 	0.04900 0.36620 0.58310 0.14300
C 	C 	0.52080 0.06360 0.27382 0.10400
C 	C 	0.58640 0.86910 0.31010 0.11900
C 	C 	0.59310 0.92780 0.20695 0.11600
C 	C 	0.54010 0.98310 0.32184 -0.21400
C 	C 	0.61110 0.84120 0.25170 -0.19600
C 	C 	0.99720 0.02070 0.46697 0.26400
C 	C 	0.50780 0.02290 0.38357 0.48900
C 	C 	0.50830 0.50810 0.46531 0.26900
N 	N 	0.51630 0.62540 0.88411 -0.21400
N 	N 	0.04630 0.03810 0.28296 -0.20900
N 	N 	0.98370 0.37460 0.38411 -0.21300
N 	N 	0.45370 0.96190 0.78296 -0.21300
N 	N 	0.48370 0.37460 0.11589 -0.21400
N 	N 	0.95370 0.96190 0.71704 -0.20900
N 	N 	0.01630 0.62540 0.61589 -0.21300
N 	N 	0.54630 0.03810 0.21704 -0.21300
O 	O 	0.63050 0.11650 0.05598 -0.46700
O 	O 	0.17690 0.29000 0.99674 -0.51800
O 	O 	0.28340 0.13090 0.97383 -0.52600
O 	O 	0.95040 0.38440 0.06382 -0.42200
O 	O 	0.36140 0.95820 0.05886 -0.42500
O 	O 	0.07870 0.64200 0.05570 -0.43300
O 	O 	0.94430 0.11180 0.11157 -0.50400
O 	O 	0.04480 0.96500 0.07246 -0.58300
O 	O 	0.86950 0.88350 0.55598 -0.47100
O 	O 	0.32310 0.71000 0.49674 -0.52200
O 	O 	0.21660 0.86910 0.47383 -0.53200
O 	O 	0.54960 0.61560 0.56382 -0.42000
O 	O 	0.13860 0.04180 0.55886 -0.43700
O 	O 	0.42130 0.35800 0.55570 -0.43800
O 	O 	0.55570 0.88820 0.61157 -0.50900
O 	O 	0.45520 0.03500 0.57246 -0.59900
O 	O 	0.36950 0.88350 0.94402 -0.46700
O 	O 	0.82310 0.71000 0.00326 -0.51800
O 	O 	0.71660 0.86910 0.02617 -0.52600
O 	O 	0.04960 0.61560 0.93618 -0.42200
O 	O 	0.63860 0.04180 0.94114 -0.42500
O 	O 	0.92130 0.35800 0.94430 -0.43300
O 	O 	0.05570 0.88820 0.88843 -0.50400
O 	O 	0.95520 0.03500 0.92754 -0.58300
O 	O 	0.13050 0.11650 0.44402 -0.47100
O 	O 	0.67690 0.29000 0.50326 -0.52200
O 	O 	0.78340 0.13090 0.52617 -0.53200
O 	O 	0.45040 0.38440 0.43618 -0.42000
O 	O 	0.86140 0.95820 0.44114 -0.43700
O 	O 	0.57870 0.64200 0.44430 -0.43800
O 	O 	0.44430 0.11180 0.38843 -0.50900
O 	O 	0.54480 0.96500 0.42754 -0.59900
