data_crystal

_cell_length_a 18.94500
_cell_length_b 18.94500
_cell_length_c 27.56100
_cell_angle_alpha 90.00000
_cell_angle_beta  90.00000
_cell_angle_gamma 90.00000

_symmetry_space_group_name_	'P 1'
_symmetry_space_group_name_H-M	'P 1'

loop_
_symmetry_equiv_pos_as_xyz
  x,y,z

loop_
_atom_site_label
_atom_site_type_symbol
_atom_site_fract_x
_atom_site_fract_y
_atom_site_fract_z
_atom_site_charge
O 	O 	0.86855 0.76446 0.75031 -0.40000
O 	O 	0.78640 0.68700 0.68714 -0.43100
C 	C 	0.86520 0.73690 0.79314 0.36700
C 	C 	0.93580 0.73690 0.81815 -0.09100
C 	C 	0.93600 0.73050 0.86902 -0.03400
H 	H 	0.89370 0.72750 0.88600 0.04900
C 	C 	0.96810 0.86220 0.94700 -0.18000
C 	C 	0.97080 0.59340 0.94770 -0.18200
H 	H 	0.95120 0.89970 0.96730 0.06100
H 	H 	0.95120 0.86900 0.91450 0.07600
H 	H 	0.95120 0.81780 0.95920 0.10400
H 	H 	0.95400 0.55680 0.96880 0.06500
H 	H 	0.95400 0.58500 0.91530 0.07700
H 	H 	0.95400 0.63830 0.95880 0.11200
O 	O 	0.36855 0.26446 0.25031 -0.39800
O 	O 	0.28640 0.18700 0.18714 -0.43100
C 	C 	0.36520 0.23690 0.29314 0.36400
C 	C 	0.43580 0.23690 0.31815 -0.08600
C 	C 	0.43600 0.23050 0.36902 -0.02700
H 	H 	0.39370 0.22750 0.38600 0.04600
C 	C 	0.46810 0.36220 0.44700 -0.19600
C 	C 	0.47080 0.09340 0.44770 -0.19700
H 	H 	0.45120 0.39970 0.46730 0.06500
H 	H 	0.45120 0.36900 0.41450 0.08100
H 	H 	0.45120 0.31780 0.45920 0.11200
H 	H 	0.45400 0.05680 0.46880 0.07100
H 	H 	0.45400 0.08500 0.41530 0.08400
H 	H 	0.45400 0.13830 0.45880 0.12000
O 	O 	0.13145 0.23554 0.75031 -0.39700
O 	O 	0.21360 0.31300 0.68714 -0.43000
C 	C 	0.13480 0.26310 0.79314 0.36500
C 	C 	0.06420 0.26310 0.81815 -0.08600
C 	C 	0.06400 0.26950 0.86902 -0.03000
H 	H 	0.10630 0.27250 0.88600 0.04600
C 	C 	0.03190 0.13780 0.94700 -0.21000
C 	C 	0.02920 0.40660 0.94770 -0.20800
H 	H 	0.04880 0.10030 0.96730 0.07000
H 	H 	0.04880 0.13100 0.91450 0.08700
H 	H 	0.04880 0.18220 0.95920 0.11400
H 	H 	0.04600 0.44320 0.96880 0.07400
H 	H 	0.04600 0.41500 0.91530 0.08700
H 	H 	0.04600 0.36170 0.95880 0.12100
O 	O 	0.63145 0.73554 0.25031 -0.39900
O 	O 	0.71360 0.81300 0.18714 -0.43200
C 	C 	0.63480 0.76310 0.29314 0.36400
C 	C 	0.56420 0.76310 0.31815 -0.08700
C 	C 	0.56400 0.76950 0.36902 -0.02600
H 	H 	0.60630 0.77250 0.38600 0.04500
C 	C 	0.53190 0.63780 0.44700 -0.19600
C 	C 	0.52920 0.90660 0.44770 -0.19500
H 	H 	0.54880 0.60030 0.46730 0.06500
H 	H 	0.54880 0.63100 0.41450 0.08100
H 	H 	0.54880 0.68220 0.45920 0.11200
H 	H 	0.54600 0.94320 0.46880 0.06700
H 	H 	0.54600 0.91500 0.41530 0.08100
H 	H 	0.54600 0.86170 0.45880 0.11900
O 	O 	0.23554 0.86855 0.75031 -0.40000
O 	O 	0.31300 0.78640 0.68714 -0.43200
C 	C 	0.26310 0.86520 0.79314 0.36600
C 	C 	0.26310 0.93580 0.81815 -0.09200
C 	C 	0.26950 0.93600 0.86902 -0.03500
H 	H 	0.27250 0.89370 0.88600 0.04800
C 	C 	0.13780 0.96810 0.94700 -0.18000
C 	C 	0.40660 0.97080 0.94770 -0.18300
H 	H 	0.10030 0.95120 0.96730 0.05900
H 	H 	0.13100 0.95120 0.91450 0.07500
H 	H 	0.18220 0.95120 0.95920 0.10300
H 	H 	0.44320 0.95400 0.96880 0.06400
H 	H 	0.41500 0.95400 0.91530 0.07600
H 	H 	0.36170 0.95400 0.95880 0.11100
O 	O 	0.73554 0.36855 0.25031 -0.39900
O 	O 	0.81300 0.28640 0.18714 -0.43200
C 	C 	0.76310 0.36520 0.29314 0.36400
C 	C 	0.76310 0.43580 0.31815 -0.08700
C 	C 	0.76950 0.43600 0.36902 -0.02700
H 	H 	0.77250 0.39370 0.38600 0.04500
C 	C 	0.63780 0.46810 0.44700 -0.19600
C 	C 	0.90660 0.47080 0.44770 -0.19500
H 	H 	0.60030 0.45120 0.46730 0.06500
H 	H 	0.63100 0.45120 0.41450 0.08100
H 	H 	0.68220 0.45120 0.45920 0.11200
H 	H 	0.94320 0.45400 0.46880 0.06700
H 	H 	0.91500 0.45400 0.41530 0.08100
H 	H 	0.86170 0.45400 0.45880 0.11900
O 	O 	0.76446 0.13145 0.75031 -0.39800
O 	O 	0.68700 0.21360 0.68714 -0.43100
C 	C 	0.73690 0.13480 0.79314 0.36500
C 	C 	0.73690 0.06420 0.81815 -0.08700
C 	C 	0.73050 0.06400 0.86902 -0.03000
H 	H 	0.72750 0.10630 0.88600 0.04600
C 	C 	0.86220 0.03190 0.94700 -0.21100
C 	C 	0.59340 0.02920 0.94770 -0.20800
H 	H 	0.89970 0.04880 0.96730 0.07100
H 	H 	0.86900 0.04880 0.91450 0.08700
H 	H 	0.81780 0.04880 0.95920 0.11500
H 	H 	0.55680 0.04600 0.96880 0.07400
H 	H 	0.58500 0.04600 0.91530 0.08700
H 	H 	0.63830 0.04600 0.95880 0.12100
O 	O 	0.26446 0.63145 0.25031 -0.39800
O 	O 	0.18700 0.71360 0.18714 -0.43100
C 	C 	0.23690 0.63480 0.29314 0.36400
C 	C 	0.23690 0.56420 0.31815 -0.08600
C 	C 	0.23050 0.56400 0.36902 -0.02700
H 	H 	0.22750 0.60630 0.38600 0.04500
C 	C 	0.36220 0.53190 0.44700 -0.19600
C 	C 	0.09340 0.52920 0.44770 -0.19800
H 	H 	0.39970 0.54880 0.46730 0.06500
H 	H 	0.36900 0.54880 0.41450 0.08100
H 	H 	0.31780 0.54880 0.45920 0.11200
H 	H 	0.05680 0.54600 0.46880 0.07100
H 	H 	0.08500 0.54600 0.41530 0.08400
H 	H 	0.13830 0.54600 0.45880 0.12000
O 	O 	0.13145 0.76446 0.24969 -0.39800
O 	O 	0.21360 0.68700 0.31286 -0.43100
C 	C 	0.13480 0.73690 0.20686 0.36500
C 	C 	0.06420 0.73690 0.18185 -0.08700
C 	C 	0.06400 0.73050 0.13098 -0.03000
H 	H 	0.10630 0.72750 0.11400 0.04600
C 	C 	0.03190 0.86220 0.05300 -0.21100
C 	C 	0.02920 0.59340 0.05230 -0.20800
H 	H 	0.04880 0.89970 0.03270 0.07100
H 	H 	0.04880 0.86900 0.08550 0.08700
H 	H 	0.04880 0.81780 0.04080 0.11500
H 	H 	0.04600 0.55680 0.03120 0.07400
H 	H 	0.04600 0.58500 0.08470 0.08700
H 	H 	0.04600 0.63830 0.04120 0.12100
O 	O 	0.63145 0.26446 0.74969 -0.39800
O 	O 	0.71360 0.18700 0.81286 -0.43100
C 	C 	0.63480 0.23690 0.70686 0.36400
C 	C 	0.56420 0.23690 0.68185 -0.08600
C 	C 	0.56400 0.23050 0.63098 -0.02700
H 	H 	0.60630 0.22750 0.61400 0.04500
C 	C 	0.53190 0.36220 0.55300 -0.19600
C 	C 	0.52920 0.09340 0.55230 -0.19800
H 	H 	0.54880 0.39970 0.53270 0.06500
H 	H 	0.54880 0.36900 0.58550 0.08100
H 	H 	0.54880 0.31780 0.54080 0.11200
H 	H 	0.54600 0.05680 0.53120 0.07100
H 	H 	0.54600 0.08500 0.58470 0.08400
H 	H 	0.54600 0.13830 0.54120 0.12000
O 	O 	0.86855 0.23554 0.24969 -0.40000
O 	O 	0.78640 0.31300 0.31286 -0.43200
C 	C 	0.86520 0.26310 0.20686 0.36600
C 	C 	0.93580 0.26310 0.18185 -0.09200
C 	C 	0.93600 0.26950 0.13098 -0.03500
H 	H 	0.89370 0.27250 0.11400 0.04800
C 	C 	0.96810 0.13780 0.05300 -0.18000
C 	C 	0.97080 0.40660 0.05230 -0.18300
H 	H 	0.95120 0.10030 0.03270 0.05900
H 	H 	0.95120 0.13100 0.08550 0.07500
H 	H 	0.95120 0.18220 0.04080 0.10300
H 	H 	0.95400 0.44320 0.03120 0.06400
H 	H 	0.95400 0.41500 0.08470 0.07600
H 	H 	0.95400 0.36170 0.04120 0.11100
O 	O 	0.36855 0.73554 0.74969 -0.39900
O 	O 	0.28640 0.81300 0.81286 -0.43200
C 	C 	0.36520 0.76310 0.70686 0.36400
C 	C 	0.43580 0.76310 0.68185 -0.08700
C 	C 	0.43600 0.76950 0.63098 -0.02700
H 	H 	0.39370 0.77250 0.61400 0.04500
C 	C 	0.46810 0.63780 0.55300 -0.19600
C 	C 	0.47080 0.90660 0.55230 -0.19500
H 	H 	0.45120 0.60030 0.53270 0.06500
H 	H 	0.45120 0.63100 0.58550 0.08100
H 	H 	0.45120 0.68220 0.54080 0.11200
H 	H 	0.45400 0.94320 0.53120 0.06700
H 	H 	0.45400 0.91500 0.58470 0.08100
H 	H 	0.45400 0.86170 0.54120 0.11900
O 	O 	0.76446 0.86855 0.24969 -0.40100
O 	O 	0.68700 0.78640 0.31286 -0.43200
C 	C 	0.73690 0.86520 0.20686 0.36600
C 	C 	0.73690 0.93580 0.18185 -0.09200
C 	C 	0.73050 0.93600 0.13098 -0.03500
H 	H 	0.72750 0.89370 0.11400 0.04800
C 	C 	0.86220 0.96810 0.05300 -0.18100
C 	C 	0.59340 0.97080 0.05230 -0.18300
H 	H 	0.89970 0.95120 0.03270 0.06000
H 	H 	0.86900 0.95120 0.08550 0.07500
H 	H 	0.81780 0.95120 0.04080 0.10300
H 	H 	0.55680 0.95400 0.03120 0.06400
H 	H 	0.58500 0.95400 0.08470 0.07600
H 	H 	0.63830 0.95400 0.04120 0.11100
O 	O 	0.26446 0.36855 0.74969 -0.39800
O 	O 	0.18700 0.28640 0.81286 -0.43100
C 	C 	0.23690 0.36520 0.70686 0.36400
C 	C 	0.23690 0.43580 0.68185 -0.08600
C 	C 	0.23050 0.43600 0.63098 -0.02700
H 	H 	0.22750 0.39370 0.61400 0.04600
C 	C 	0.36220 0.46810 0.55300 -0.19600
C 	C 	0.09340 0.47080 0.55230 -0.19700
H 	H 	0.39970 0.45120 0.53270 0.06500
H 	H 	0.36900 0.45120 0.58550 0.08100
H 	H 	0.31780 0.45120 0.54080 0.11200
H 	H 	0.05680 0.45400 0.53120 0.07100
H 	H 	0.08500 0.45400 0.58470 0.08400
H 	H 	0.13830 0.45400 0.54120 0.12000
O 	O 	0.23554 0.13145 0.24969 -0.39700
O 	O 	0.31300 0.21360 0.31286 -0.43000
C 	C 	0.26310 0.13480 0.20686 0.36500
C 	C 	0.26310 0.06420 0.18185 -0.08600
C 	C 	0.26950 0.06400 0.13098 -0.03000
H 	H 	0.27250 0.10630 0.11400 0.04600
C 	C 	0.13780 0.03190 0.05300 -0.21000
C 	C 	0.40660 0.02920 0.05230 -0.20800
H 	H 	0.10030 0.04880 0.03270 0.07000
H 	H 	0.13100 0.04880 0.08550 0.08700
H 	H 	0.18220 0.04880 0.04080 0.11400
H 	H 	0.44320 0.04600 0.03120 0.07400
H 	H 	0.41500 0.04600 0.08470 0.08700
H 	H 	0.36170 0.04600 0.04120 0.12100
O 	O 	0.73554 0.63145 0.74969 -0.39900
O 	O 	0.81300 0.71360 0.81286 -0.43200
C 	C 	0.76310 0.63480 0.70686 0.36400
C 	C 	0.76310 0.56420 0.68185 -0.08700
C 	C 	0.76950 0.56400 0.63098 -0.02600
H 	H 	0.77250 0.60630 0.61400 0.04500
C 	C 	0.63780 0.53190 0.55300 -0.19600
C 	C 	0.90660 0.52920 0.55230 -0.19500
H 	H 	0.60030 0.54880 0.53270 0.06500
H 	H 	0.63100 0.54880 0.58550 0.08100
H 	H 	0.68220 0.54880 0.54080 0.11200
H 	H 	0.94320 0.54600 0.53120 0.06700
H 	H 	0.91500 0.54600 0.58470 0.08100
H 	H 	0.86170 0.54600 0.54120 0.11900
O 	O 	0.13145 0.23554 0.24969 -0.39700
O 	O 	0.21360 0.31300 0.31286 -0.43000
C 	C 	0.13480 0.26310 0.20686 0.36500
C 	C 	0.06420 0.26310 0.18185 -0.08600
C 	C 	0.06400 0.26950 0.13098 -0.03000
H 	H 	0.10630 0.27250 0.11400 0.04600
C 	C 	0.03190 0.13780 0.05300 -0.21000
C 	C 	0.02920 0.40660 0.05230 -0.20800
H 	H 	0.04880 0.10030 0.03270 0.07000
H 	H 	0.04880 0.13100 0.08550 0.08700
H 	H 	0.04880 0.18220 0.04080 0.11400
H 	H 	0.04600 0.44320 0.03120 0.07400
H 	H 	0.04600 0.41500 0.08470 0.08700
H 	H 	0.04600 0.36170 0.04120 0.12100
O 	O 	0.63145 0.73554 0.74969 -0.39900
O 	O 	0.71360 0.81300 0.81286 -0.43200
C 	C 	0.63480 0.76310 0.70686 0.36400
C 	C 	0.56420 0.76310 0.68185 -0.08700
C 	C 	0.56400 0.76950 0.63098 -0.02600
H 	H 	0.60630 0.77250 0.61400 0.04500
C 	C 	0.53190 0.63780 0.55300 -0.19600
C 	C 	0.52920 0.90660 0.55230 -0.19500
H 	H 	0.54880 0.60030 0.53270 0.06500
H 	H 	0.54880 0.63100 0.58550 0.08100
H 	H 	0.54880 0.68220 0.54080 0.11200
H 	H 	0.54600 0.94320 0.53120 0.06700
H 	H 	0.54600 0.91500 0.58470 0.08100
H 	H 	0.54600 0.86170 0.54120 0.11900
O 	O 	0.86855 0.76446 0.24969 -0.40100
O 	O 	0.78640 0.68700 0.31286 -0.43200
C 	C 	0.86520 0.73690 0.20686 0.36600
C 	C 	0.93580 0.73690 0.18185 -0.09200
C 	C 	0.93600 0.73050 0.13098 -0.03500
H 	H 	0.89370 0.72750 0.11400 0.04800
C 	C 	0.96810 0.86220 0.05300 -0.18100
C 	C 	0.97080 0.59340 0.05230 -0.18300
H 	H 	0.95120 0.89970 0.03270 0.06000
H 	H 	0.95120 0.86900 0.08550 0.07500
H 	H 	0.95120 0.81780 0.04080 0.10300
H 	H 	0.95400 0.55680 0.03120 0.06400
H 	H 	0.95400 0.58500 0.08470 0.07600
H 	H 	0.95400 0.63830 0.04120 0.11100
O 	O 	0.36855 0.26446 0.74969 -0.39800
O 	O 	0.28640 0.18700 0.81286 -0.43100
C 	C 	0.36520 0.23690 0.70686 0.36400
C 	C 	0.43580 0.23690 0.68185 -0.08600
C 	C 	0.43600 0.23050 0.63098 -0.02700
H 	H 	0.39370 0.22750 0.61400 0.04600
C 	C 	0.46810 0.36220 0.55300 -0.19600
C 	C 	0.47080 0.09340 0.55230 -0.19700
H 	H 	0.45120 0.39970 0.53270 0.06500
H 	H 	0.45120 0.36900 0.58550 0.08100
H 	H 	0.45120 0.31780 0.54080 0.11200
H 	H 	0.45400 0.05680 0.53120 0.07100
H 	H 	0.45400 0.08500 0.58470 0.08400
H 	H 	0.45400 0.13830 0.54120 0.12000
O 	O 	0.76446 0.13145 0.24969 -0.39800
O 	O 	0.68700 0.21360 0.31286 -0.43100
C 	C 	0.73690 0.13480 0.20686 0.36500
C 	C 	0.73690 0.06420 0.18185 -0.08700
C 	C 	0.73050 0.06400 0.13098 -0.03000
H 	H 	0.72750 0.10630 0.11400 0.04600
C 	C 	0.86220 0.03190 0.05300 -0.21100
C 	C 	0.59340 0.02920 0.05230 -0.20800
H 	H 	0.89970 0.04880 0.03270 0.07100
H 	H 	0.86900 0.04880 0.08550 0.08700
H 	H 	0.81780 0.04880 0.04080 0.11500
H 	H 	0.55680 0.04600 0.03120 0.07400
H 	H 	0.58500 0.04600 0.08470 0.08700
H 	H 	0.63830 0.04600 0.04120 0.12100
O 	O 	0.26446 0.63145 0.74969 -0.39800
O 	O 	0.18700 0.71360 0.81286 -0.43100
C 	C 	0.23690 0.63480 0.70686 0.36400
C 	C 	0.23690 0.56420 0.68185 -0.08600
C 	C 	0.23050 0.56400 0.63098 -0.02700
H 	H 	0.22750 0.60630 0.61400 0.04500
C 	C 	0.36220 0.53190 0.55300 -0.19600
C 	C 	0.09340 0.52920 0.55230 -0.19800
H 	H 	0.39970 0.54880 0.53270 0.06500
H 	H 	0.36900 0.54880 0.58550 0.08100
H 	H 	0.31780 0.54880 0.54080 0.11200
H 	H 	0.05680 0.54600 0.53120 0.07100
H 	H 	0.08500 0.54600 0.58470 0.08400
H 	H 	0.13830 0.54600 0.54120 0.12000
O 	O 	0.23554 0.86855 0.24969 -0.40000
O 	O 	0.31300 0.78640 0.31286 -0.43200
C 	C 	0.26310 0.86520 0.20686 0.36600
C 	C 	0.26310 0.93580 0.18185 -0.09200
C 	C 	0.26950 0.93600 0.13098 -0.03500
H 	H 	0.27250 0.89370 0.11400 0.04800
C 	C 	0.13780 0.96810 0.05300 -0.18000
C 	C 	0.40660 0.97080 0.05230 -0.18300
H 	H 	0.10030 0.95120 0.03270 0.05900
H 	H 	0.13100 0.95120 0.08550 0.07500
H 	H 	0.18220 0.95120 0.04080 0.10300
H 	H 	0.44320 0.95400 0.03120 0.06400
H 	H 	0.41500 0.95400 0.08470 0.07600
H 	H 	0.36170 0.95400 0.04120 0.11100
O 	O 	0.73554 0.36855 0.74969 -0.39900
O 	O 	0.81300 0.28640 0.81286 -0.43200
C 	C 	0.76310 0.36520 0.70686 0.36400
C 	C 	0.76310 0.43580 0.68185 -0.08700
C 	C 	0.76950 0.43600 0.63098 -0.02700
H 	H 	0.77250 0.39370 0.61400 0.04500
C 	C 	0.63780 0.46810 0.55300 -0.19600
C 	C 	0.90660 0.47080 0.55230 -0.19500
H 	H 	0.60030 0.45120 0.53270 0.06500
H 	H 	0.63100 0.45120 0.58550 0.08100
H 	H 	0.68220 0.45120 0.54080 0.11200
H 	H 	0.94320 0.45400 0.53120 0.06700
H 	H 	0.91500 0.45400 0.58470 0.08100
H 	H 	0.86170 0.45400 0.54120 0.11900
O 	O 	0.86855 0.23554 0.75031 -0.40000
O 	O 	0.78640 0.31300 0.68714 -0.43200
C 	C 	0.86520 0.26310 0.79314 0.36600
C 	C 	0.93580 0.26310 0.81815 -0.09200
C 	C 	0.93600 0.26950 0.86902 -0.03500
H 	H 	0.89370 0.27250 0.88600 0.04800
C 	C 	0.96810 0.13780 0.94700 -0.18000
C 	C 	0.97080 0.40660 0.94770 -0.18300
H 	H 	0.95120 0.10030 0.96730 0.05900
H 	H 	0.95120 0.13100 0.91450 0.07500
H 	H 	0.95120 0.18220 0.95920 0.10300
H 	H 	0.95400 0.44320 0.96880 0.06400
H 	H 	0.95400 0.41500 0.91530 0.07600
H 	H 	0.95400 0.36170 0.95880 0.11100
O 	O 	0.36855 0.73554 0.25031 -0.39900
O 	O 	0.28640 0.81300 0.18714 -0.43200
C 	C 	0.36520 0.76310 0.29314 0.36400
C 	C 	0.43580 0.76310 0.31815 -0.08700
C 	C 	0.43600 0.76950 0.36902 -0.02700
H 	H 	0.39370 0.77250 0.38600 0.04500
C 	C 	0.46810 0.63780 0.44700 -0.19600
C 	C 	0.47080 0.90660 0.44770 -0.19500
H 	H 	0.45120 0.60030 0.46730 0.06500
H 	H 	0.45120 0.63100 0.41450 0.08100
H 	H 	0.45120 0.68220 0.45920 0.11200
H 	H 	0.45400 0.94320 0.46880 0.06700
H 	H 	0.45400 0.91500 0.41530 0.08100
H 	H 	0.45400 0.86170 0.45880 0.11900
O 	O 	0.13145 0.76446 0.75031 -0.39800
O 	O 	0.21360 0.68700 0.68714 -0.43100
C 	C 	0.13480 0.73690 0.79314 0.36500
C 	C 	0.06420 0.73690 0.81815 -0.08700
C 	C 	0.06400 0.73050 0.86902 -0.03000
H 	H 	0.10630 0.72750 0.88600 0.04600
C 	C 	0.03190 0.86220 0.94700 -0.21100
C 	C 	0.02920 0.59340 0.94770 -0.20800
H 	H 	0.04880 0.89970 0.96730 0.07100
H 	H 	0.04880 0.86900 0.91450 0.08700
H 	H 	0.04880 0.81780 0.95920 0.11500
H 	H 	0.04600 0.55680 0.96880 0.07400
H 	H 	0.04600 0.58500 0.91530 0.08700
H 	H 	0.04600 0.63830 0.95880 0.12100
O 	O 	0.63145 0.26446 0.25031 -0.39800
O 	O 	0.71360 0.18700 0.18714 -0.43100
C 	C 	0.63480 0.23690 0.29314 0.36400
C 	C 	0.56420 0.23690 0.31815 -0.08600
C 	C 	0.56400 0.23050 0.36902 -0.02700
H 	H 	0.60630 0.22750 0.38600 0.04500
C 	C 	0.53190 0.36220 0.44700 -0.19600
C 	C 	0.52920 0.09340 0.44770 -0.19800
H 	H 	0.54880 0.39970 0.46730 0.06500
H 	H 	0.54880 0.36900 0.41450 0.08100
H 	H 	0.54880 0.31780 0.45920 0.11200
H 	H 	0.54600 0.05680 0.46880 0.07100
H 	H 	0.54600 0.08500 0.41530 0.08400
H 	H 	0.54600 0.13830 0.45880 0.12000
O 	O 	0.23554 0.13145 0.75031 -0.39700
O 	O 	0.31300 0.21360 0.68714 -0.43000
C 	C 	0.26310 0.13480 0.79314 0.36500
C 	C 	0.26310 0.06420 0.81815 -0.08600
C 	C 	0.26950 0.06400 0.86902 -0.03000
H 	H 	0.27250 0.10630 0.88600 0.04600
C 	C 	0.13780 0.03190 0.94700 -0.21000
C 	C 	0.40660 0.02920 0.94770 -0.20800
H 	H 	0.10030 0.04880 0.96730 0.07000
H 	H 	0.13100 0.04880 0.91450 0.08700
H 	H 	0.18220 0.04880 0.95920 0.11400
H 	H 	0.44320 0.04600 0.96880 0.07400
H 	H 	0.41500 0.04600 0.91530 0.08700
H 	H 	0.36170 0.04600 0.95880 0.12100
O 	O 	0.73554 0.63145 0.25031 -0.39900
O 	O 	0.81300 0.71360 0.18714 -0.43200
C 	C 	0.76310 0.63480 0.29314 0.36400
C 	C 	0.76310 0.56420 0.31815 -0.08700
C 	C 	0.76950 0.56400 0.36902 -0.02600
H 	H 	0.77250 0.60630 0.38600 0.04500
C 	C 	0.63780 0.53190 0.44700 -0.19600
C 	C 	0.90660 0.52920 0.44770 -0.19500
H 	H 	0.60030 0.54880 0.46730 0.06500
H 	H 	0.63100 0.54880 0.41450 0.08100
H 	H 	0.68220 0.54880 0.45920 0.11200
H 	H 	0.94320 0.54600 0.46880 0.06700
H 	H 	0.91500 0.54600 0.41530 0.08100
H 	H 	0.86170 0.54600 0.45880 0.11900
O 	O 	0.76446 0.86855 0.75031 -0.40100
O 	O 	0.68700 0.78640 0.68714 -0.43200
C 	C 	0.73690 0.86520 0.79314 0.36600
C 	C 	0.73690 0.93580 0.81815 -0.09200
C 	C 	0.73050 0.93600 0.86902 -0.03500
H 	H 	0.72750 0.89370 0.88600 0.04800
C 	C 	0.86220 0.96810 0.94700 -0.18100
C 	C 	0.59340 0.97080 0.94770 -0.18300
H 	H 	0.89970 0.95120 0.96730 0.06000
H 	H 	0.86900 0.95120 0.91450 0.07500
H 	H 	0.81780 0.95120 0.95920 0.10300
H 	H 	0.55680 0.95400 0.96880 0.06400
H 	H 	0.58500 0.95400 0.91530 0.07600
H 	H 	0.63830 0.95400 0.95880 0.11100
O 	O 	0.26446 0.36855 0.25031 -0.39800
O 	O 	0.18700 0.28640 0.18714 -0.43100
C 	C 	0.23690 0.36520 0.29314 0.36400
C 	C 	0.23690 0.43580 0.31815 -0.08600
C 	C 	0.23050 0.43600 0.36902 -0.02700
H 	H 	0.22750 0.39370 0.38600 0.04600
C 	C 	0.36220 0.46810 0.44700 -0.19600
C 	C 	0.09340 0.47080 0.44770 -0.19700
H 	H 	0.39970 0.45120 0.46730 0.06500
H 	H 	0.36900 0.45120 0.41450 0.08100
H 	H 	0.31780 0.45120 0.45920 0.11200
H 	H 	0.05680 0.45400 0.46880 0.07100
H 	H 	0.08500 0.45400 0.41530 0.08400
H 	H 	0.13830 0.45400 0.45880 0.12000
Cu	Cu	0.78116 0.78116 0.71259 0.90600
Cu	Cu	0.28116 0.28116 0.21259 0.90600
Cu	Cu	0.21884 0.21884 0.71259 0.90700
Cu	Cu	0.71884 0.71884 0.21259 0.90600
Cu	Cu	0.21884 0.78116 0.71259 0.90600
Cu	Cu	0.71884 0.28116 0.21259 0.90600
Cu	Cu	0.78116 0.21884 0.71259 0.90600
Cu	Cu	0.28116 0.71884 0.21259 0.90600
Cu	Cu	0.21884 0.78116 0.28741 0.90600
Cu	Cu	0.71884 0.28116 0.78741 0.90600
Cu	Cu	0.78116 0.21884 0.28741 0.90600
Cu	Cu	0.28116 0.71884 0.78741 0.90600
Cu	Cu	0.78116 0.78116 0.28741 0.90600
Cu	Cu	0.28116 0.28116 0.78741 0.90600
Cu	Cu	0.21884 0.21884 0.28741 0.90700
Cu	Cu	0.71884 0.71884 0.78741 0.90600
C 	C 	0.00000 0.74150 0.79340 0.03500
C 	C 	0.00000 0.72880 0.89370 -0.00400
H 	H 	0.00000 0.74770 0.75990 0.04800
C 	C 	-0.00000 0.72920 0.95010 0.00400
C 	C 	-0.00000 0.79270 0.97320 -0.07700
C 	C 	0.00000 0.66590 0.97270 -0.09300
C 	C 	0.50000 0.24150 0.29340 0.02600
C 	C 	0.50000 0.22880 0.39370 -0.01400
H 	H 	0.50000 0.24770 0.25990 0.04900
C 	C 	0.50000 0.22920 0.45010 0.00900
C 	C 	0.50000 0.29270 0.47320 -0.08400
C 	C 	0.50000 0.16590 0.47270 -0.10100
C 	C 	0.00000 0.25850 0.79340 0.03500
C 	C 	0.00000 0.27120 0.89370 -0.00300
H 	H 	0.00000 0.25230 0.75990 0.04900
C 	C 	0.00000 0.27080 0.95010 0.00400
C 	C 	0.00000 0.20730 0.97320 -0.07700
C 	C 	-0.00000 0.33410 0.97270 -0.09300
C 	C 	0.50000 0.75850 0.29340 0.02600
C 	C 	0.50000 0.77120 0.39370 -0.01400
H 	H 	0.50000 0.75230 0.25990 0.04900
C 	C 	0.50000 0.77080 0.45010 0.00900
C 	C 	0.50000 0.70730 0.47320 -0.08400
C 	C 	0.50000 0.83410 0.47270 -0.10100
C 	C 	0.25850 0.00000 0.79340 0.03500
C 	C 	0.27120 0.00000 0.89370 -0.00300
H 	H 	0.25230 0.00000 0.75990 0.04900
C 	C 	0.27080 0.00000 0.95010 0.00400
C 	C 	0.20730 0.00000 0.97320 -0.07700
C 	C 	0.33410 0.00000 0.97270 -0.09300
C 	C 	0.75850 0.50000 0.29340 0.02600
C 	C 	0.77120 0.50000 0.39370 -0.01400
H 	H 	0.75230 0.50000 0.25990 0.04900
C 	C 	0.77080 0.50000 0.45010 0.00900
C 	C 	0.70730 0.50000 0.47320 -0.08400
C 	C 	0.83410 0.50000 0.47270 -0.10100
C 	C 	0.74150 0.00000 0.79340 0.03500
C 	C 	0.72880 0.00000 0.89370 -0.00400
H 	H 	0.74770 0.00000 0.75990 0.04800
C 	C 	0.72920 0.00000 0.95010 0.00400
C 	C 	0.79270 0.00000 0.97320 -0.07700
C 	C 	0.66590 0.00000 0.97270 -0.09300
C 	C 	0.24150 0.50000 0.29340 0.02600
C 	C 	0.22880 0.50000 0.39370 -0.01400
H 	H 	0.24770 0.50000 0.25990 0.04900
C 	C 	0.22920 0.50000 0.45010 0.00900
C 	C 	0.29270 0.50000 0.47320 -0.08400
C 	C 	0.16590 0.50000 0.47270 -0.10100
C 	C 	0.00000 0.74150 0.20660 0.03500
C 	C 	-0.00000 0.72880 0.10630 -0.00400
H 	H 	-0.00000 0.74770 0.24010 0.04800
C 	C 	-0.00000 0.72920 0.04990 0.00400
C 	C 	-0.00000 0.79270 0.02680 -0.07700
C 	C 	0.00000 0.66590 0.02730 -0.09300
C 	C 	0.50000 0.24150 0.70660 0.02600
C 	C 	0.50000 0.22880 0.60630 -0.01400
H 	H 	0.50000 0.24770 0.74010 0.04900
C 	C 	0.50000 0.22920 0.54990 0.00900
C 	C 	0.50000 0.29270 0.52680 -0.08400
C 	C 	0.50000 0.16590 0.52730 -0.10100
C 	C 	0.00000 0.25850 0.20660 0.03500
C 	C 	0.00000 0.27120 0.10630 -0.00300
H 	H 	0.00000 0.25230 0.24010 0.04900
C 	C 	0.00000 0.27080 0.04990 0.00400
C 	C 	-0.00000 0.20730 0.02680 -0.07700
C 	C 	-0.00000 0.33410 0.02730 -0.09300
C 	C 	0.50000 0.75850 0.70660 0.02600
C 	C 	0.50000 0.77120 0.60630 -0.01400
H 	H 	0.50000 0.75230 0.74010 0.04900
C 	C 	0.50000 0.77080 0.54990 0.00900
C 	C 	0.50000 0.70730 0.52680 -0.08400
C 	C 	0.50000 0.83410 0.52730 -0.10100
C 	C 	0.74150 0.00000 0.20660 0.03500
C 	C 	0.72880 0.00000 0.10630 -0.00400
H 	H 	0.74770 0.00000 0.24010 0.04800
C 	C 	0.72920 0.00000 0.04990 0.00400
C 	C 	0.79270 0.00000 0.02680 -0.07700
C 	C 	0.66590 0.00000 0.02730 -0.09300
C 	C 	0.24150 0.50000 0.70660 0.02600
C 	C 	0.22880 0.50000 0.60630 -0.01400
H 	H 	0.24770 0.50000 0.74010 0.04900
C 	C 	0.22920 0.50000 0.54990 0.00900
C 	C 	0.29270 0.50000 0.52680 -0.08400
C 	C 	0.16590 0.50000 0.52730 -0.10100
C 	C 	0.25850 0.00000 0.20660 0.03500
C 	C 	0.27120 0.00000 0.10630 -0.00300
H 	H 	0.25230 0.00000 0.24010 0.04900
C 	C 	0.27080 0.00000 0.04990 0.00400
C 	C 	0.20730 0.00000 0.02680 -0.07700
C 	C 	0.33410 0.00000 0.02730 -0.09300
C 	C 	0.75850 0.50000 0.70660 0.02600
C 	C 	0.77120 0.50000 0.60630 -0.01400
H 	H 	0.75230 0.50000 0.74010 0.04900
C 	C 	0.77080 0.50000 0.54990 0.00900
C 	C 	0.70730 0.50000 0.52680 -0.08400
C 	C 	0.83410 0.50000 0.52730 -0.10100
