data_crystal

_cell_length_a 16.29540
_cell_length_b 8.76190
_cell_length_c 20.75500
_cell_angle_alpha 90.00000
_cell_angle_beta  95.31600
_cell_angle_gamma 90.00000

_symmetry_space_group_name_	'P 1'
_symmetry_space_group_name_H-M	'P 1'

loop_
_symmetry_equiv_pos_as_xyz
  x,y,z

loop_
_atom_site_label
_atom_site_type_symbol
_atom_site_fract_x
_atom_site_fract_y
_atom_site_fract_z
_atom_site_charge
Sm	Sm	0.24185 0.21970 0.71171 2.12100
O 	O 	0.12250 0.35630 0.66120 -0.47900
O 	O 	0.37140 0.31820 0.74790 -0.57000
O 	O 	0.17970 0.53420 0.84210 -0.55200
O 	O 	0.17840 0.29780 0.80390 -0.54000
O 	O 	0.36510 0.54050 0.79840 -0.56200
O 	O 	0.21050 0.52720 0.70418 -0.56500
N 	N 	0.98450 0.93490 0.49890 -0.10100
N 	N 	0.75720 0.46050 0.83940 -0.10000
N 	N 	0.78710 0.36140 0.81160 -0.09900
C 	C 	0.14930 0.49010 0.66530 0.39700
C 	C 	0.10820 0.60740 0.61980 -0.18200
C 	C 	0.14760 0.74630 0.60990 0.10700
H 	H 	0.19990 0.76480 0.63020 -0.01600
C 	C 	0.10910 0.85560 0.57010 -0.18600
H 	H 	0.13500 0.94840 0.56400 0.09300
C 	C 	0.03100 0.82610 0.53880 0.16000
C 	C 	0.99450 0.68570 0.54580 -0.19000
H 	H 	0.94400 0.66450 0.52290 0.10000
C 	C 	0.03210 0.57630 0.58640 0.10100
H 	H 	0.00670 0.48250 0.59130 0.00700
C 	C 	0.40410 0.42830 0.77980 0.54600
C 	C 	0.49590 0.42380 0.79650 -0.25300
C 	C 	0.53390 0.53780 0.83530 0.17000
H 	H 	0.50210 0.61410 0.85180 -0.01200
C 	C 	0.61790 0.53810 0.84950 -0.24600
H 	H 	0.64300 0.61150 0.87710 0.12300
C 	C 	0.66410 0.42990 0.82270 0.19100
C 	C 	0.62820 0.31200 0.78550 -0.23300
H 	H 	0.66050 0.23560 0.76960 0.12400
C 	C 	0.54220 0.31040 0.77230 0.16300
H 	H 	0.51670 0.23270 0.74730 -0.01700
C 	C 	0.14380 0.41410 0.82440 0.52600
C 	C 	0.05160 0.40450 0.82750 -0.25700
C 	C 	0.01010 0.51640 0.85890 0.16200
H 	H 	0.03910 0.59510 0.88080 -0.02900
C 	C 	0.92360 0.50960 0.85730 -0.23800
H 	H 	0.89520 0.58290 0.87880 0.11800
C 	C 	0.88120 0.39410 0.82380 0.19500
C 	C 	0.92300 0.28380 0.79420 -0.25400
H 	H 	0.89410 0.20450 0.77270 0.12900
C 	C 	0.00800 0.28840 0.79580 0.18400
H 	H 	0.03580 0.21240 0.77530 -0.03000
Sm	Sm	0.25815 0.71970 0.78829 2.11700
O 	O 	0.37750 0.85630 0.83880 -0.47900
O 	O 	0.12860 0.81820 0.75210 -0.57200
O 	O 	0.32030 0.03420 0.65790 -0.55000
O 	O 	0.32160 0.79780 0.69610 -0.54100
O 	O 	0.13490 0.04050 0.70160 -0.56000
O 	O 	0.28950 0.02720 0.79582 -0.56100
N 	N 	0.51550 0.43490 0.00110 -0.10400
N 	N 	0.74280 0.96050 0.66060 -0.10100
N 	N 	0.71290 0.86140 0.68840 -0.09900
C 	C 	0.35070 0.99010 0.83470 0.39100
C 	C 	0.39180 0.10740 0.88020 -0.18200
C 	C 	0.35240 0.24630 0.89010 0.11000
H 	H 	0.30010 0.26480 0.86980 -0.01600
C 	C 	0.39090 0.35560 0.92990 -0.19000
H 	H 	0.36500 0.44840 0.93600 0.09500
C 	C 	0.46900 0.32610 0.96120 0.16700
C 	C 	0.50550 0.18570 0.95420 -0.19900
H 	H 	0.55600 0.16450 0.97710 0.10300
C 	C 	0.46790 0.07630 0.91360 0.11000
H 	H 	0.49330 0.98250 0.90870 0.00200
C 	C 	0.09590 0.92830 0.72020 0.54300
C 	C 	0.00410 0.92380 0.70350 -0.26000
C 	C 	0.96610 0.03780 0.66470 0.17600
H 	H 	0.99790 0.11410 0.64820 -0.01400
C 	C 	0.88210 0.03810 0.65050 -0.25100
H 	H 	0.85700 0.11150 0.62290 0.12500
C 	C 	0.83590 0.92990 0.67730 0.19500
C 	C 	0.87180 0.81200 0.71450 -0.23800
H 	H 	0.83950 0.73560 0.73040 0.12600
C 	C 	0.95780 0.81040 0.72770 0.17100
H 	H 	0.98330 0.73270 0.75270 -0.02000
C 	C 	0.35620 0.91410 0.67560 0.52300
C 	C 	0.44840 0.90450 0.67250 -0.25800
C 	C 	0.48990 0.01640 0.64110 0.16400
H 	H 	0.46090 0.09510 0.61920 -0.02900
C 	C 	0.57640 0.00960 0.64270 -0.23700
H 	H 	0.60480 0.08290 0.62120 0.11800
C 	C 	0.61880 0.89410 0.67620 0.19300
C 	C 	0.57700 0.78380 0.70580 -0.25200
H 	H 	0.60590 0.70450 0.72730 0.12900
C 	C 	0.49200 0.78840 0.70420 0.18200
H 	H 	0.46420 0.71240 0.72470 -0.03000
Sm	Sm	0.75815 0.78030 0.28829 2.12000
O 	O 	0.87750 0.64370 0.33880 -0.48000
O 	O 	0.62860 0.68180 0.25210 -0.57100
O 	O 	0.82030 0.46580 0.15790 -0.55300
O 	O 	0.82160 0.70220 0.19610 -0.54100
O 	O 	0.63490 0.45950 0.20160 -0.56300
O 	O 	0.78950 0.47280 0.29582 -0.56500
N 	N 	0.01550 0.06510 0.50110 -0.10100
N 	N 	0.24280 0.53950 0.16060 -0.10000
N 	N 	0.21290 0.63860 0.18840 -0.09900
C 	C 	0.85070 0.50990 0.33470 0.39700
C 	C 	0.89180 0.39260 0.38020 -0.18200
C 	C 	0.85240 0.25370 0.39010 0.10700
H 	H 	0.80010 0.23520 0.36980 -0.01600
C 	C 	0.89090 0.14440 0.42990 -0.18600
H 	H 	0.86500 0.05160 0.43600 0.09300
C 	C 	0.96900 0.17390 0.46120 0.16000
C 	C 	0.00550 0.31430 0.45420 -0.19000
H 	H 	0.05600 0.33550 0.47710 0.10000
C 	C 	0.96790 0.42370 0.41360 0.10100
H 	H 	0.99330 0.51750 0.40870 0.00700
C 	C 	0.59590 0.57170 0.22020 0.54600
C 	C 	0.50410 0.57620 0.20350 -0.25300
C 	C 	0.46610 0.46220 0.16470 0.17000
H 	H 	0.49790 0.38590 0.14820 -0.01200
C 	C 	0.38210 0.46190 0.15050 -0.24600
H 	H 	0.35700 0.38850 0.12290 0.12300
C 	C 	0.33590 0.57010 0.17730 0.19100
C 	C 	0.37180 0.68800 0.21450 -0.23300
H 	H 	0.33950 0.76440 0.23040 0.12400
C 	C 	0.45780 0.68960 0.22770 0.16300
H 	H 	0.48330 0.76730 0.25270 -0.01700
C 	C 	0.85620 0.58590 0.17560 0.52600
C 	C 	0.94840 0.59550 0.17250 -0.25700
C 	C 	0.98990 0.48360 0.14110 0.16200
H 	H 	0.96090 0.40490 0.11920 -0.02900
C 	C 	0.07640 0.49040 0.14270 -0.23800
H 	H 	0.10480 0.41710 0.12120 0.11800
C 	C 	0.11880 0.60590 0.17620 0.19500
C 	C 	0.07700 0.71620 0.20580 -0.25400
H 	H 	0.10590 0.79550 0.22730 0.12900
C 	C 	0.99200 0.71160 0.20420 0.18400
H 	H 	0.96420 0.78760 0.22470 -0.03000
Sm	Sm	0.74185 0.28030 0.21171 2.11700
O 	O 	0.62250 0.14370 0.16120 -0.47900
O 	O 	0.87140 0.18180 0.24790 -0.57200
O 	O 	0.67970 0.96580 0.34210 -0.55000
O 	O 	0.67840 0.20220 0.30390 -0.54100
O 	O 	0.86510 0.95950 0.29840 -0.56000
O 	O 	0.71050 0.97280 0.20418 -0.56100
N 	N 	0.48450 0.56510 0.99890 -0.10400
N 	N 	0.25720 0.03950 0.33940 -0.10100
N 	N 	0.28710 0.13860 0.31160 -0.09900
C 	C 	0.64930 0.00990 0.16530 0.39100
C 	C 	0.60820 0.89260 0.11980 -0.18200
C 	C 	0.64760 0.75370 0.10990 0.11000
H 	H 	0.69990 0.73520 0.13020 -0.01600
C 	C 	0.60910 0.64440 0.07010 -0.19000
H 	H 	0.63500 0.55160 0.06400 0.09500
C 	C 	0.53100 0.67390 0.03880 0.16700
C 	C 	0.49450 0.81430 0.04580 -0.19900
H 	H 	0.44400 0.83550 0.02290 0.10300
C 	C 	0.53210 0.92370 0.08640 0.11000
H 	H 	0.50670 0.01750 0.09130 0.00200
C 	C 	0.90410 0.07170 0.27980 0.54300
C 	C 	0.99590 0.07620 0.29650 -0.26000
C 	C 	0.03390 0.96220 0.33530 0.17600
H 	H 	0.00210 0.88590 0.35180 -0.01400
C 	C 	0.11790 0.96190 0.34950 -0.25100
H 	H 	0.14300 0.88850 0.37710 0.12500
C 	C 	0.16410 0.07010 0.32270 0.19500
C 	C 	0.12820 0.18800 0.28550 -0.23800
H 	H 	0.16050 0.26440 0.26960 0.12600
C 	C 	0.04220 0.18960 0.27230 0.17100
H 	H 	0.01670 0.26730 0.24730 -0.02000
C 	C 	0.64380 0.08590 0.32440 0.52300
C 	C 	0.55160 0.09550 0.32750 -0.25800
C 	C 	0.51010 0.98360 0.35890 0.16400
H 	H 	0.53910 0.90490 0.38080 -0.02900
C 	C 	0.42360 0.99040 0.35730 -0.23700
H 	H 	0.39520 0.91710 0.37880 0.11800
C 	C 	0.38120 0.10590 0.32380 0.19300
C 	C 	0.42300 0.21620 0.29420 -0.25200
H 	H 	0.39410 0.29550 0.27270 0.12900
C 	C 	0.50800 0.21160 0.29580 0.18200
H 	H 	0.53580 0.28760 0.27530 -0.03000
