data_crystal

_cell_length_a 16.24990
_cell_length_b 8.74510
_cell_length_c 20.73170
_cell_angle_alpha 90.00000
_cell_angle_beta  95.21300
_cell_angle_gamma 90.00000

_symmetry_space_group_name_	'P 1'
_symmetry_space_group_name_H-M	'P 1'

loop_
_symmetry_equiv_pos_as_xyz
  x,y,z

loop_
_atom_site_label
_atom_site_type_symbol
_atom_site_fract_x
_atom_site_fract_y
_atom_site_fract_z
_atom_site_charge
Eu	Eu	0.24212 0.22074 0.71197 2.04300
O 	O 	0.12400 0.35710 0.66150 -0.47000
O 	O 	0.37090 0.31990 0.74820 -0.56300
O 	O 	0.17950 0.53620 0.84130 -0.54200
O 	O 	0.17860 0.29890 0.80310 -0.53500
O 	O 	0.36420 0.54230 0.79890 -0.55400
O 	O 	0.21090 0.52970 0.70450 -0.55100
N 	N 	0.98450 0.93450 0.49940 -0.10200
N 	N 	0.75520 0.46020 0.83990 -0.10300
N 	N 	0.78760 0.36340 0.81220 -0.10000
C 	C 	0.15070 0.49230 0.66530 0.40100
C 	C 	0.10980 0.60950 0.61990 -0.18900
C 	C 	0.14730 0.74890 0.60990 0.12100
H 	H 	0.19930 0.76900 0.63080 -0.01800
C 	C 	0.10950 0.85730 0.57020 -0.19800
H 	H 	0.13510 0.95050 0.56410 0.09900
C 	C 	0.03140 0.82570 0.53870 0.16800
C 	C 	0.99420 0.68590 0.54630 -0.19700
H 	H 	0.94300 0.66540 0.52430 0.10300
C 	C 	0.03270 0.57650 0.58620 0.10600
H 	H 	0.00800 0.48180 0.59080 0.00600
C 	C 	0.40290 0.42960 0.78030 0.55200
C 	C 	0.49490 0.42670 0.79680 -0.26900
C 	C 	0.53360 0.53780 0.83620 0.19400
H 	H 	0.50200 0.61360 0.85350 -0.01900
C 	C 	0.61740 0.53810 0.85010 -0.27100
H 	H 	0.64260 0.61170 0.87760 0.13200
C 	C 	0.66310 0.43080 0.82350 0.20900
C 	C 	0.62710 0.31430 0.78530 -0.25000
H 	H 	0.65940 0.23910 0.76840 0.13000
C 	C 	0.54090 0.31290 0.77290 0.18100
H 	H 	0.51500 0.23460 0.74840 -0.02200
C 	C 	0.14430 0.41460 0.82410 0.53000
C 	C 	0.05200 0.40620 0.82730 -0.26200
C 	C 	0.00960 0.51600 0.85870 0.17300
H 	H 	0.03850 0.59440 0.88100 -0.03100
C 	C 	0.92310 0.51010 0.85730 -0.24900
H 	H 	0.89470 0.58310 0.87920 0.12200
C 	C 	0.88120 0.39590 0.82340 0.20300
C 	C 	0.92300 0.28550 0.79350 -0.26000
H 	H 	0.89400 0.20580 0.77220 0.13200
C 	C 	0.00790 0.29060 0.79460 0.18800
H 	H 	0.03560 0.21580 0.77320 -0.02900
Eu	Eu	0.25788 0.72074 0.78803 2.04000
O 	O 	0.37600 0.85710 0.83850 -0.47100
O 	O 	0.12910 0.81990 0.75180 -0.56400
O 	O 	0.32050 0.03620 0.65870 -0.54100
O 	O 	0.32140 0.79890 0.69690 -0.53600
O 	O 	0.13580 0.04230 0.70110 -0.55100
O 	O 	0.28910 0.02970 0.79550 -0.54700
N 	N 	0.51550 0.43450 0.00060 -0.10500
N 	N 	0.74480 0.96020 0.66010 -0.10400
N 	N 	0.71240 0.86340 0.68780 -0.10000
C 	C 	0.34930 0.99230 0.83470 0.39500
C 	C 	0.39020 0.10950 0.88010 -0.18900
C 	C 	0.35270 0.24890 0.89010 0.12300
H 	H 	0.30070 0.26900 0.86920 -0.01800
C 	C 	0.39050 0.35730 0.92980 -0.20200
H 	H 	0.36490 0.45050 0.93590 0.10200
C 	C 	0.46860 0.32570 0.96130 0.17400
C 	C 	0.50580 0.18590 0.95370 -0.20600
H 	H 	0.55700 0.16540 0.97570 0.10600
C 	C 	0.46730 0.07650 0.91380 0.11500
H 	H 	0.49200 0.98180 0.90920 0.00100
C 	C 	0.09710 0.92960 0.71970 0.55000
C 	C 	0.00510 0.92670 0.70320 -0.27700
C 	C 	0.96640 0.03780 0.66380 0.20100
H 	H 	0.99800 0.11360 0.64650 -0.02200
C 	C 	0.88260 0.03810 0.64990 -0.27700
H 	H 	0.85740 0.11170 0.62240 0.13400
C 	C 	0.83690 0.93080 0.67650 0.21300
C 	C 	0.87290 0.81430 0.71470 -0.25600
H 	H 	0.84060 0.73910 0.73160 0.13200
C 	C 	0.95910 0.81290 0.72710 0.18800
H 	H 	0.98500 0.73460 0.75160 -0.02500
C 	C 	0.35570 0.91460 0.67590 0.52600
C 	C 	0.44800 0.90620 0.67270 -0.26200
C 	C 	0.49040 0.01600 0.64130 0.17500
H 	H 	0.46150 0.09440 0.61900 -0.03100
C 	C 	0.57690 0.01010 0.64270 -0.24800
H 	H 	0.60530 0.08310 0.62080 0.12200
C 	C 	0.61880 0.89590 0.67660 0.20100
C 	C 	0.57700 0.78550 0.70650 -0.25900
H 	H 	0.60600 0.70580 0.72780 0.13100
C 	C 	0.49210 0.79060 0.70540 0.18600
H 	H 	0.46440 0.71580 0.72680 -0.03000
Eu	Eu	0.75788 0.77926 0.28803 2.04200
O 	O 	0.87600 0.64290 0.33850 -0.47100
O 	O 	0.62910 0.68010 0.25180 -0.56400
O 	O 	0.82050 0.46380 0.15870 -0.54300
O 	O 	0.82140 0.70110 0.19690 -0.53600
O 	O 	0.63580 0.45770 0.20110 -0.55500
O 	O 	0.78910 0.47030 0.29550 -0.55100
N 	N 	0.01550 0.06550 0.50060 -0.10200
N 	N 	0.24480 0.53980 0.16010 -0.10300
N 	N 	0.21240 0.63660 0.18780 -0.10000
C 	C 	0.84930 0.50770 0.33470 0.40100
C 	C 	0.89020 0.39050 0.38010 -0.18900
C 	C 	0.85270 0.25110 0.39010 0.12100
H 	H 	0.80070 0.23100 0.36920 -0.01800
C 	C 	0.89050 0.14270 0.42980 -0.19800
H 	H 	0.86490 0.04950 0.43590 0.09900
C 	C 	0.96860 0.17430 0.46130 0.16800
C 	C 	0.00580 0.31410 0.45370 -0.19700
H 	H 	0.05700 0.33460 0.47570 0.10300
C 	C 	0.96730 0.42350 0.41380 0.10600
H 	H 	0.99200 0.51820 0.40920 0.00600
C 	C 	0.59710 0.57040 0.21970 0.55200
C 	C 	0.50510 0.57330 0.20320 -0.26900
C 	C 	0.46640 0.46220 0.16380 0.19400
H 	H 	0.49800 0.38640 0.14650 -0.01900
C 	C 	0.38260 0.46190 0.14990 -0.27100
H 	H 	0.35740 0.38830 0.12240 0.13200
C 	C 	0.33690 0.56920 0.17650 0.20900
C 	C 	0.37290 0.68570 0.21470 -0.25000
H 	H 	0.34060 0.76090 0.23160 0.13000
C 	C 	0.45910 0.68710 0.22710 0.18100
H 	H 	0.48500 0.76540 0.25160 -0.02200
C 	C 	0.85570 0.58540 0.17590 0.53000
C 	C 	0.94800 0.59380 0.17270 -0.26200
C 	C 	0.99040 0.48400 0.14130 0.17300
H 	H 	0.96150 0.40560 0.11900 -0.03100
C 	C 	0.07690 0.48990 0.14270 -0.24900
H 	H 	0.10530 0.41690 0.12080 0.12200
C 	C 	0.11880 0.60410 0.17660 0.20300
C 	C 	0.07700 0.71450 0.20650 -0.26000
H 	H 	0.10600 0.79420 0.22780 0.13200
C 	C 	0.99210 0.70940 0.20540 0.18800
H 	H 	0.96440 0.78420 0.22680 -0.02900
Eu	Eu	0.74212 0.27926 0.21197 2.04000
O 	O 	0.62400 0.14290 0.16150 -0.47100
O 	O 	0.87090 0.18010 0.24820 -0.56400
O 	O 	0.67950 0.96380 0.34130 -0.54100
O 	O 	0.67860 0.20110 0.30310 -0.53600
O 	O 	0.86420 0.95770 0.29890 -0.55100
O 	O 	0.71090 0.97030 0.20450 -0.54700
N 	N 	0.48450 0.56550 0.99940 -0.10500
N 	N 	0.25520 0.03980 0.33990 -0.10400
N 	N 	0.28760 0.13660 0.31220 -0.10000
C 	C 	0.65070 0.00770 0.16530 0.39500
C 	C 	0.60980 0.89050 0.11990 -0.18900
C 	C 	0.64730 0.75110 0.10990 0.12300
H 	H 	0.69930 0.73100 0.13080 -0.01800
C 	C 	0.60950 0.64270 0.07020 -0.20200
H 	H 	0.63510 0.54950 0.06410 0.10200
C 	C 	0.53140 0.67430 0.03870 0.17400
C 	C 	0.49420 0.81410 0.04630 -0.20600
H 	H 	0.44300 0.83460 0.02430 0.10600
C 	C 	0.53270 0.92350 0.08620 0.11500
H 	H 	0.50800 0.01820 0.09080 0.00100
C 	C 	0.90290 0.07040 0.28030 0.55000
C 	C 	0.99490 0.07330 0.29680 -0.27700
C 	C 	0.03360 0.96220 0.33620 0.20100
H 	H 	0.00200 0.88640 0.35350 -0.02200
C 	C 	0.11740 0.96190 0.35010 -0.27700
H 	H 	0.14260 0.88830 0.37760 0.13400
C 	C 	0.16310 0.06920 0.32350 0.21300
C 	C 	0.12710 0.18570 0.28530 -0.25600
H 	H 	0.15940 0.26090 0.26840 0.13200
C 	C 	0.04090 0.18710 0.27290 0.18800
H 	H 	0.01500 0.26540 0.24840 -0.02500
C 	C 	0.64430 0.08540 0.32410 0.52600
C 	C 	0.55200 0.09380 0.32730 -0.26200
C 	C 	0.50960 0.98400 0.35870 0.17500
H 	H 	0.53850 0.90560 0.38100 -0.03100
C 	C 	0.42310 0.98990 0.35730 -0.24800
H 	H 	0.39470 0.91690 0.37920 0.12200
C 	C 	0.38120 0.10410 0.32340 0.20100
C 	C 	0.42300 0.21450 0.29350 -0.25900
H 	H 	0.39400 0.29420 0.27220 0.13100
C 	C 	0.50790 0.20940 0.29460 0.18600
H 	H 	0.53560 0.28420 0.27320 -0.03000
