data_crystal

_cell_length_a 16.23180
_cell_length_b 8.72520
_cell_length_c 20.77730
_cell_angle_alpha 90.00000
_cell_angle_beta  94.98400
_cell_angle_gamma 90.00000

_symmetry_space_group_name_	'P 1'
_symmetry_space_group_name_H-M	'P 1'

loop_
_symmetry_equiv_pos_as_xyz
  x,y,z

loop_
_atom_site_label
_atom_site_type_symbol
_atom_site_fract_x
_atom_site_fract_y
_atom_site_fract_z
_atom_site_charge
Gd	Gd	0.24231 0.22108 0.71218 1.64300
O 	O 	0.17880 0.29900 0.80261 -0.46100
O 	O 	0.12530 0.35740 0.66190 -0.41900
O 	O 	0.37040 0.31990 0.74849 -0.48700
O 	O 	0.36360 0.54310 0.79908 -0.47900
O 	O 	0.17980 0.53670 0.84086 -0.47100
O 	O 	0.21170 0.53130 0.70468 -0.47100
N 	N 	0.98490 0.93390 0.49950 -0.10100
C 	C 	0.99510 0.68560 0.54640 -0.19300
H 	H 	0.94420 0.66380 0.52430 0.10500
C 	C 	0.10930 0.85830 0.57020 -0.19200
H 	H 	0.13460 0.95220 0.56430 0.10500
C 	C 	0.03440 0.57660 0.58700 0.10200
H 	H 	0.00980 0.48150 0.59200 0.00900
C 	C 	0.40250 0.43010 0.78070 0.49500
C 	C 	0.14770 0.74800 0.61000 0.10900
H 	H 	0.20000 0.76760 0.63030 -0.00200
C 	C 	0.14370 0.41570 0.82340 0.47400
C 	C 	0.03190 0.82600 0.53900 0.16900
C 	C 	0.05170 0.40630 0.82690 -0.22500
C 	C 	0.11010 0.60920 0.62010 -0.17600
C 	C 	0.00720 0.29000 0.79440 0.15900
H 	H 	0.03510 0.21470 0.77320 -0.01300
C 	C 	0.15120 0.49320 0.66570 0.37900
C 	C 	0.49400 0.42560 0.79730 -0.23300
C 	C 	0.53260 0.53810 0.83650 0.16300
H 	H 	0.50110 0.61410 0.85400 -0.00600
C 	C 	0.00970 0.51590 0.85870 0.14500
H 	H 	0.03840 0.59420 0.88130 -0.01600
N 	N 	0.75650 0.45990 0.83990 -0.10000
C 	C 	0.54060 0.31210 0.77310 0.15500
H 	H 	0.51530 0.23430 0.74800 -0.01100
C 	C 	0.92290 0.50840 0.85680 -0.22400
H 	H 	0.89440 0.58180 0.87860 0.11600
C 	C 	0.66320 0.43080 0.82430 0.19500
N 	N 	0.78480 0.36130 0.81130 -0.09600
C 	C 	0.61680 0.53790 0.84970 -0.24700
H 	H 	0.64190 0.61280 0.87660 0.12500
C 	C 	0.88020 0.39460 0.82350 0.18600
C 	C 	0.92270 0.28460 0.79310 -0.23500
H 	H 	0.89390 0.20530 0.77130 0.12400
C 	C 	0.62640 0.31370 0.78630 -0.22800
H 	H 	0.65860 0.23750 0.76980 0.12400
Gd	Gd	0.25769 0.72108 0.78782 1.64100
O 	O 	0.32120 0.79900 0.69739 -0.46000
O 	O 	0.37470 0.85740 0.83810 -0.41800
O 	O 	0.12960 0.81990 0.75151 -0.48600
O 	O 	0.13640 0.04310 0.70092 -0.47500
O 	O 	0.32020 0.03670 0.65914 -0.46700
O 	O 	0.28830 0.03130 0.79532 -0.46800
N 	N 	0.51510 0.43390 0.00050 -0.10300
C 	C 	0.50490 0.18560 0.95360 -0.20100
H 	H 	0.55580 0.16380 0.97570 0.10800
C 	C 	0.39070 0.35830 0.92980 -0.19500
H 	H 	0.36540 0.45220 0.93570 0.10700
C 	C 	0.46560 0.07660 0.91300 0.11000
H 	H 	0.49020 0.98150 0.90800 0.00500
C 	C 	0.09750 0.93010 0.71930 0.49300
C 	C 	0.35230 0.24800 0.89000 0.11200
H 	H 	0.30000 0.26760 0.86970 -0.00200
C 	C 	0.35630 0.91570 0.67660 0.47100
C 	C 	0.46810 0.32600 0.96100 0.17500
C 	C 	0.44830 0.90630 0.67310 -0.22500
C 	C 	0.38990 0.10920 0.87990 -0.17600
C 	C 	0.49280 0.79000 0.70560 0.15800
H 	H 	0.46490 0.71470 0.72680 -0.01400
C 	C 	0.34880 0.99320 0.83430 0.37400
C 	C 	0.00600 0.92560 0.70270 -0.24000
C 	C 	0.96740 0.03810 0.66350 0.16900
H 	H 	0.99890 0.11410 0.64600 -0.00800
C 	C 	0.49030 0.01590 0.64130 0.14700
H 	H 	0.46160 0.09420 0.61870 -0.01600
N 	N 	0.74350 0.95990 0.66010 -0.10000
C 	C 	0.95940 0.81210 0.72690 0.16200
H 	H 	0.98470 0.73430 0.75200 -0.01300
C 	C 	0.57710 0.00840 0.64320 -0.22300
H 	H 	0.60560 0.08180 0.62140 0.11500
C 	C 	0.83680 0.93080 0.67570 0.19900
N 	N 	0.71520 0.86130 0.68870 -0.09600
C 	C 	0.88320 0.03790 0.65030 -0.25200
H 	H 	0.85810 0.11280 0.62340 0.12700
C 	C 	0.61980 0.89460 0.67650 0.18400
C 	C 	0.57730 0.78460 0.70690 -0.23300
H 	H 	0.60610 0.70530 0.72870 0.12300
C 	C 	0.87360 0.81370 0.71370 -0.23300
H 	H 	0.84140 0.73750 0.73020 0.12500
Gd	Gd	0.75769 0.77892 0.28782 1.64400
O 	O 	0.82120 0.70100 0.19739 -0.46000
O 	O 	0.87470 0.64260 0.33810 -0.41800
O 	O 	0.62960 0.68010 0.25151 -0.48600
O 	O 	0.63640 0.45690 0.20092 -0.47800
O 	O 	0.82020 0.46330 0.15914 -0.47000
O 	O 	0.78830 0.46870 0.29532 -0.47100
N 	N 	0.01510 0.06610 0.50050 -0.10100
C 	C 	0.00490 0.31440 0.45360 -0.19300
H 	H 	0.05580 0.33620 0.47570 0.10500
C 	C 	0.89070 0.14170 0.42980 -0.19200
H 	H 	0.86540 0.04780 0.43570 0.10500
C 	C 	0.96560 0.42340 0.41300 0.10200
H 	H 	0.99020 0.51850 0.40800 0.00900
C 	C 	0.59750 0.56990 0.21930 0.49500
C 	C 	0.85230 0.25200 0.39000 0.10900
H 	H 	0.80000 0.23240 0.36970 -0.00200
C 	C 	0.85630 0.58430 0.17660 0.47400
C 	C 	0.96810 0.17400 0.46100 0.16900
C 	C 	0.94830 0.59370 0.17310 -0.22500
C 	C 	0.88990 0.39080 0.37990 -0.17600
C 	C 	0.99280 0.71000 0.20560 0.15900
H 	H 	0.96490 0.78530 0.22680 -0.01300
C 	C 	0.84880 0.50680 0.33430 0.37900
C 	C 	0.50600 0.57440 0.20270 -0.23300
C 	C 	0.46740 0.46190 0.16350 0.16300
H 	H 	0.49890 0.38590 0.14600 -0.00600
C 	C 	0.99030 0.48410 0.14130 0.14500
H 	H 	0.96160 0.40580 0.11870 -0.01600
N 	N 	0.24350 0.54010 0.16010 -0.10000
C 	C 	0.45940 0.68790 0.22690 0.15500
H 	H 	0.48470 0.76570 0.25200 -0.01100
C 	C 	0.07710 0.49160 0.14320 -0.22400
H 	H 	0.10560 0.41820 0.12140 0.11600
C 	C 	0.33680 0.56920 0.17570 0.19500
N 	N 	0.21520 0.63870 0.18870 -0.09600
C 	C 	0.38320 0.46210 0.15030 -0.24700
H 	H 	0.35810 0.38720 0.12340 0.12500
C 	C 	0.11980 0.60540 0.17650 0.18600
C 	C 	0.07730 0.71540 0.20690 -0.23500
H 	H 	0.10610 0.79470 0.22870 0.12400
C 	C 	0.37360 0.68630 0.21370 -0.22800
H 	H 	0.34140 0.76250 0.23020 0.12400
Gd	Gd	0.74231 0.27892 0.21218 1.64100
O 	O 	0.67880 0.20100 0.30261 -0.46000
O 	O 	0.62530 0.14260 0.16190 -0.41800
O 	O 	0.87040 0.18010 0.24849 -0.48600
O 	O 	0.86360 0.95690 0.29908 -0.47500
O 	O 	0.67980 0.96330 0.34086 -0.46700
O 	O 	0.71170 0.96870 0.20468 -0.46800
N 	N 	0.48490 0.56610 0.99950 -0.10300
C 	C 	0.49510 0.81440 0.04640 -0.20100
H 	H 	0.44420 0.83620 0.02430 0.10800
C 	C 	0.60930 0.64170 0.07020 -0.19500
H 	H 	0.63460 0.54780 0.06430 0.10700
C 	C 	0.53440 0.92340 0.08700 0.11000
H 	H 	0.50980 0.01850 0.09200 0.00500
C 	C 	0.90250 0.06990 0.28070 0.49300
C 	C 	0.64770 0.75200 0.11000 0.11200
H 	H 	0.70000 0.73240 0.13030 -0.00200
C 	C 	0.64370 0.08430 0.32340 0.47100
C 	C 	0.53190 0.67400 0.03900 0.17500
C 	C 	0.55170 0.09370 0.32690 -0.22500
C 	C 	0.61010 0.89080 0.12010 -0.17600
C 	C 	0.50720 0.21000 0.29440 0.15800
H 	H 	0.53510 0.28530 0.27320 -0.01400
C 	C 	0.65120 0.00680 0.16570 0.37400
C 	C 	0.99400 0.07440 0.29730 -0.24000
C 	C 	0.03260 0.96190 0.33650 0.16900
H 	H 	0.00110 0.88590 0.35400 -0.00800
C 	C 	0.50970 0.98410 0.35870 0.14700
H 	H 	0.53840 0.90580 0.38130 -0.01600
N 	N 	0.25650 0.04010 0.33990 -0.10000
C 	C 	0.04060 0.18790 0.27310 0.16200
H 	H 	0.01530 0.26570 0.24800 -0.01300
C 	C 	0.42290 0.99160 0.35680 -0.22300
H 	H 	0.39440 0.91820 0.37860 0.11500
C 	C 	0.16320 0.06920 0.32430 0.19900
N 	N 	0.28480 0.13870 0.31130 -0.09600
C 	C 	0.11680 0.96210 0.34970 -0.25200
H 	H 	0.14190 0.88720 0.37660 0.12700
C 	C 	0.38020 0.10540 0.32350 0.18400
C 	C 	0.42270 0.21540 0.29310 -0.23300
H 	H 	0.39390 0.29470 0.27130 0.12300
C 	C 	0.12640 0.18630 0.28630 -0.23300
H 	H 	0.15860 0.26250 0.26980 0.12500
