data_crystal

_cell_length_a 16.19250
_cell_length_b 8.69260
_cell_length_c 20.88150
_cell_angle_alpha 90.00000
_cell_angle_beta  94.79700
_cell_angle_gamma 90.00000

_symmetry_space_group_name_	'P 1'
_symmetry_space_group_name_H-M	'P 1'

loop_
_symmetry_equiv_pos_as_xyz
  x,y,z

loop_
_atom_site_label
_atom_site_type_symbol
_atom_site_fract_x
_atom_site_fract_y
_atom_site_fract_z
_atom_site_charge
Ho	Ho	0.24299 0.22276 0.71292 1.87000
O 	O 	0.12870 0.35980 0.66300 -0.46000
O 	O 	0.36720 0.32460 0.74910 -0.54200
O 	O 	0.17830 0.54150 0.83790 -0.51500
O 	O 	0.17880 0.30210 0.80030 -0.50700
O 	O 	0.36190 0.54820 0.79970 -0.52800
O 	O 	0.21380 0.53690 0.70520 -0.51300
N 	N 	0.98570 0.93310 0.49910 -0.10200
N 	N 	0.75500 0.45880 0.84100 -0.10000
N 	N 	0.78390 0.36050 0.81130 -0.09700
C 	C 	0.15340 0.49540 0.66630 0.40100
C 	C 	0.11200 0.61100 0.62050 -0.18500
C 	C 	0.14930 0.75180 0.61000 0.11500
H 	H 	0.20140 0.77300 0.63020 -0.00800
C 	C 	0.11020 0.86020 0.57010 -0.19600
H 	H 	0.13520 0.95480 0.56400 0.10300
C 	C 	0.03290 0.82650 0.53910 0.17000
C 	C 	0.99700 0.68430 0.54660 -0.19800
H 	H 	0.94670 0.66050 0.52410 0.10600
C 	C 	0.03590 0.57720 0.58780 0.10800
H 	H 	0.01110 0.48230 0.59360 0.00600
C 	C 	0.40000 0.43410 0.78110 0.53800
C 	C 	0.49130 0.42820 0.79840 -0.24600
C 	C 	0.53060 0.54110 0.83750 0.17100
H 	H 	0.49930 0.61850 0.85440 -0.01000
C 	C 	0.61470 0.53930 0.85110 -0.25100
H 	H 	0.63980 0.61290 0.87860 0.12600
C 	C 	0.66120 0.43190 0.82520 0.19500
C 	C 	0.62440 0.31420 0.78740 -0.22800
H 	H 	0.65690 0.23700 0.77160 0.12300
C 	C 	0.53830 0.31270 0.77340 0.15500
H 	H 	0.51300 0.23570 0.74770 -0.01300
C 	C 	0.14290 0.41840 0.82110 0.50700
C 	C 	0.05140 0.40780 0.82540 -0.23800
C 	C 	0.00840 0.51630 0.85850 0.15000
H 	H 	0.03680 0.59450 0.88130 -0.02100
C 	C 	0.92130 0.50670 0.85700 -0.22900
H 	H 	0.89250 0.57840 0.87950 0.11700
C 	C 	0.87900 0.39370 0.82310 0.18800
C 	C 	0.92210 0.28490 0.79170 -0.23600
H 	H 	0.89340 0.20560 0.76970 0.12400
C 	C 	0.00720 0.29110 0.79220 0.16400
H 	H 	0.03530 0.21710 0.77030 -0.01700
Ho	Ho	0.25701 0.72276 0.78708 1.86900
O 	O 	0.37130 0.85980 0.83700 -0.45800
O 	O 	0.13280 0.82460 0.75090 -0.54100
O 	O 	0.32170 0.04150 0.66210 -0.51200
O 	O 	0.32120 0.80210 0.69970 -0.50700
O 	O 	0.13810 0.04820 0.70030 -0.52400
O 	O 	0.28620 0.03690 0.79480 -0.50900
N 	N 	0.51430 0.43310 0.00090 -0.10400
N 	N 	0.74500 0.95880 0.65900 -0.10100
N 	N 	0.71610 0.86050 0.68870 -0.09700
C 	C 	0.34660 0.99540 0.83370 0.39500
C 	C 	0.38800 0.11100 0.87950 -0.18500
C 	C 	0.35070 0.25180 0.89000 0.11800
H 	H 	0.29860 0.27300 0.86980 -0.00800
C 	C 	0.38980 0.36020 0.92990 -0.19900
H 	H 	0.36480 0.45480 0.93600 0.10500
C 	C 	0.46710 0.32650 0.96090 0.17700
C 	C 	0.50300 0.18430 0.95340 -0.20600
H 	H 	0.55330 0.16050 0.97590 0.10900
C 	C 	0.46410 0.07720 0.91220 0.11600
H 	H 	0.48890 0.98230 0.90640 0.00100
C 	C 	0.10000 0.93410 0.71890 0.53400
C 	C 	0.00870 0.92820 0.70160 -0.24900
C 	C 	0.96940 0.04110 0.66250 0.17100
H 	H 	0.00070 0.11850 0.64560 -0.00800
C 	C 	0.88530 0.03930 0.64890 -0.25200
H 	H 	0.86020 0.11290 0.62140 0.12600
C 	C 	0.83880 0.93190 0.67480 0.19600
C 	C 	0.87560 0.81420 0.71260 -0.23000
H 	H 	0.84310 0.73700 0.72840 0.12400
C 	C 	0.96170 0.81270 0.72660 0.16000
H 	H 	0.98700 0.73570 0.75230 -0.01400
C 	C 	0.35710 0.91840 0.67890 0.50400
C 	C 	0.44860 0.90780 0.67460 -0.23900
C 	C 	0.49160 0.01630 0.64150 0.15200
H 	H 	0.46320 0.09450 0.61870 -0.02000
C 	C 	0.57870 0.00670 0.64300 -0.22800
H 	H 	0.60750 0.07840 0.62050 0.11700
C 	C 	0.62100 0.89370 0.67690 0.18600
C 	C 	0.57790 0.78490 0.70830 -0.23500
H 	H 	0.60660 0.70560 0.73030 0.12300
C 	C 	0.49280 0.79110 0.70780 0.16200
H 	H 	0.46470 0.71710 0.72970 -0.01700
Ho	Ho	0.75701 0.77724 0.28708 1.87100
O 	O 	0.87130 0.64020 0.33700 -0.45900
O 	O 	0.63280 0.67540 0.25090 -0.54200
O 	O 	0.82170 0.45850 0.16210 -0.51500
O 	O 	0.82120 0.69790 0.19970 -0.50700
O 	O 	0.63810 0.45180 0.20030 -0.52800
O 	O 	0.78620 0.46310 0.29480 -0.51300
N 	N 	0.01430 0.06690 0.50090 -0.10200
N 	N 	0.24500 0.54120 0.15900 -0.10000
N 	N 	0.21610 0.63950 0.18870 -0.09700
C 	C 	0.84660 0.50460 0.33370 0.40100
C 	C 	0.88800 0.38900 0.37950 -0.18500
C 	C 	0.85070 0.24820 0.39000 0.11500
H 	H 	0.79860 0.22700 0.36980 -0.00800
C 	C 	0.88980 0.13980 0.42990 -0.19600
H 	H 	0.86480 0.04520 0.43600 0.10300
C 	C 	0.96710 0.17350 0.46090 0.17000
C 	C 	0.00300 0.31570 0.45340 -0.19800
H 	H 	0.05330 0.33950 0.47590 0.10600
C 	C 	0.96410 0.42280 0.41220 0.10800
H 	H 	0.98890 0.51770 0.40640 0.00600
C 	C 	0.60000 0.56590 0.21890 0.53800
C 	C 	0.50870 0.57180 0.20160 -0.24600
C 	C 	0.46940 0.45890 0.16250 0.17100
H 	H 	0.50070 0.38150 0.14560 -0.01000
C 	C 	0.38530 0.46070 0.14890 -0.25100
H 	H 	0.36020 0.38710 0.12140 0.12600
C 	C 	0.33880 0.56810 0.17480 0.19500
C 	C 	0.37560 0.68580 0.21260 -0.22800
H 	H 	0.34310 0.76300 0.22840 0.12300
C 	C 	0.46170 0.68730 0.22660 0.15500
H 	H 	0.48700 0.76430 0.25230 -0.01300
C 	C 	0.85710 0.58160 0.17890 0.50700
C 	C 	0.94860 0.59220 0.17460 -0.23800
C 	C 	0.99160 0.48370 0.14150 0.15000
H 	H 	0.96320 0.40550 0.11870 -0.02100
C 	C 	0.07870 0.49330 0.14300 -0.22900
H 	H 	0.10750 0.42160 0.12050 0.11700
C 	C 	0.12100 0.60630 0.17690 0.18800
C 	C 	0.07790 0.71510 0.20830 -0.23600
H 	H 	0.10660 0.79440 0.23030 0.12400
C 	C 	0.99280 0.70890 0.20780 0.16400
H 	H 	0.96470 0.78290 0.22970 -0.01700
Ho	Ho	0.74299 0.27724 0.21292 1.86900
O 	O 	0.62870 0.14020 0.16300 -0.45800
O 	O 	0.86720 0.17540 0.24910 -0.54100
O 	O 	0.67830 0.95850 0.33790 -0.51200
O 	O 	0.67880 0.19790 0.30030 -0.50700
O 	O 	0.86190 0.95180 0.29970 -0.52400
O 	O 	0.71380 0.96310 0.20520 -0.50900
N 	N 	0.48570 0.56690 0.99910 -0.10400
N 	N 	0.25500 0.04120 0.34100 -0.10100
N 	N 	0.28390 0.13950 0.31130 -0.09700
C 	C 	0.65340 0.00460 0.16630 0.39500
C 	C 	0.61200 0.88900 0.12050 -0.18500
C 	C 	0.64930 0.74820 0.11000 0.11800
H 	H 	0.70140 0.72700 0.13020 -0.00800
C 	C 	0.61020 0.63980 0.07010 -0.19900
H 	H 	0.63520 0.54520 0.06400 0.10500
C 	C 	0.53290 0.67350 0.03910 0.17700
C 	C 	0.49700 0.81570 0.04660 -0.20600
H 	H 	0.44670 0.83950 0.02410 0.10900
C 	C 	0.53590 0.92280 0.08780 0.11600
H 	H 	0.51110 0.01770 0.09360 0.00100
C 	C 	0.90000 0.06590 0.28110 0.53400
C 	C 	0.99130 0.07180 0.29840 -0.24900
C 	C 	0.03060 0.95890 0.33750 0.17100
H 	H 	0.99930 0.88150 0.35440 -0.00800
C 	C 	0.11470 0.96070 0.35110 -0.25200
H 	H 	0.13980 0.88710 0.37860 0.12600
C 	C 	0.16120 0.06810 0.32520 0.19600
C 	C 	0.12440 0.18580 0.28740 -0.23000
H 	H 	0.15690 0.26300 0.27160 0.12400
C 	C 	0.03830 0.18730 0.27340 0.16000
H 	H 	0.01300 0.26430 0.24770 -0.01400
C 	C 	0.64290 0.08160 0.32110 0.50400
C 	C 	0.55140 0.09220 0.32540 -0.23900
C 	C 	0.50840 0.98370 0.35850 0.15200
H 	H 	0.53680 0.90550 0.38130 -0.02000
C 	C 	0.42130 0.99330 0.35700 -0.22800
H 	H 	0.39250 0.92160 0.37950 0.11700
C 	C 	0.37900 0.10630 0.32310 0.18600
C 	C 	0.42210 0.21510 0.29170 -0.23500
H 	H 	0.39340 0.29440 0.26970 0.12300
C 	C 	0.50720 0.20890 0.29220 0.16200
H 	H 	0.53530 0.28290 0.27030 -0.01700
