data_crystal

_cell_length_a 13.11910
_cell_length_b 13.11910
_cell_length_c 16.01400
_cell_angle_alpha 90.00000
_cell_angle_beta  90.00000
_cell_angle_gamma 120.00000

_symmetry_space_group_name_	'P 1'
_symmetry_space_group_name_H-M	'P 1'

loop_
_symmetry_equiv_pos_as_xyz
  x,y,z

loop_
_atom_site_label
_atom_site_type_symbol
_atom_site_fract_x
_atom_site_fract_y
_atom_site_fract_z
_atom_site_charge
Co	Co	0.47336 0.51793 0.27171 1.14700
C 	C 	0.56330 0.69180 0.14600 0.38000
O 	O 	0.38120 0.37390 0.37520 -0.37500
O 	O 	0.47490 0.64070 0.19470 -0.49300
C 	C 	0.55180 0.76630 0.07870 -0.21200
H 	H 	0.48550 0.77470 0.07770 0.10400
C 	C 	0.33220 0.43170 0.39230 0.37800
O 	O 	0.65010 0.68130 0.15090 -0.32100
O 	O 	0.34100 0.51260 0.34240 -0.47600
C 	C 	0.54530 0.90260 0.91440 -0.02900
H 	H 	0.46830 0.86970 0.93350 0.04800
C 	C 	0.63230 0.81850 0.02250 -0.01400
H 	H 	0.69930 0.81200 0.02890 0.05800
C 	C 	0.63190 0.88710 0.94930 0.08900
N 	N 	0.72750 0.94740 0.90310 -0.12400
C 	C 	0.26860 0.40880 0.47160 -0.25600
H 	H 	0.26560 0.35010 0.50580 0.15300
C 	C 	0.21540 0.46540 0.49780 0.06000
H 	H 	0.21150 0.51880 0.46150 0.01700
C 	C 	0.16210 0.44940 0.58020 0.02900
N 	N 	0.18330 0.39440 0.64550 -0.10900
C 	C 	0.08800 0.48330 0.61120 -0.00800
H 	H 	0.05900 0.52420 0.58140 0.03400
C 	C 	0.12400 0.39850 0.71220 0.09000
H 	H 	0.12660 0.36980 0.76480 0.01500
C 	C 	0.70020 0.99770 0.84400 0.11500
H 	H 	0.75320 0.04570 0.80340 -0.00100
N 	N 	0.06130 0.44870 0.69330 -0.24500
N 	N 	0.59090 0.97410 0.84730 -0.24400
Co	Co	0.48207 0.95543 0.27171 1.14500
C 	C 	0.30820 0.87150 0.14600 0.37900
O 	O 	0.62610 0.00730 0.37520 -0.37300
O 	O 	0.35930 0.83420 0.19470 -0.49500
C 	C 	0.23370 0.78550 0.07870 -0.21100
H 	H 	0.22530 0.71080 0.07770 0.10300
C 	C 	0.56830 0.90050 0.39230 0.37300
O 	O 	0.31870 0.96880 0.15090 -0.32300
O 	O 	0.48740 0.82840 0.34240 -0.47600
C 	C 	0.09740 0.64270 0.91440 -0.03000
H 	H 	0.13030 0.59860 0.93350 0.04900
C 	C 	0.18150 0.81380 0.02250 -0.02000
H 	H 	0.18800 0.88730 0.02890 0.05700
C 	C 	0.11290 0.74480 0.94930 0.09300
N 	N 	0.05260 0.78010 0.90310 -0.12400
C 	C 	0.59120 0.85980 0.47160 -0.25400
H 	H 	0.64990 0.91550 0.50580 0.15200
C 	C 	0.53460 0.75000 0.49780 0.05900
H 	H 	0.48120 0.69270 0.46150 0.01800
C 	C 	0.55060 0.71270 0.58020 0.03000
N 	N 	0.60560 0.78890 0.64550 -0.10900
C 	C 	0.51670 0.60470 0.61120 -0.00800
H 	H 	0.47580 0.53480 0.58140 0.03500
C 	C 	0.60150 0.72550 0.71220 0.09000
H 	H 	0.63020 0.75680 0.76480 0.01500
C 	C 	0.00230 0.70250 0.84400 0.11500
H 	H 	0.95430 0.70750 0.80340 -0.00100
N 	N 	0.55130 0.61260 0.69330 -0.24500
N 	N 	0.02590 0.61680 0.84730 -0.24400
Co	Co	0.04457 0.52664 0.27171 1.14500
C 	C 	0.12850 0.43670 0.14600 0.38000
O 	O 	0.99270 0.61880 0.37520 -0.37300
O 	O 	0.16580 0.52510 0.19470 -0.49500
C 	C 	0.21450 0.44820 0.07870 -0.21500
H 	H 	0.28920 0.51450 0.07770 0.10500
C 	C 	0.09950 0.66780 0.39230 0.37300
O 	O 	0.03120 0.34990 0.15090 -0.32300
O 	O 	0.17160 0.65900 0.34240 -0.47600
C 	C 	0.35730 0.45470 0.91440 -0.02800
H 	H 	0.40140 0.53170 0.93350 0.04800
C 	C 	0.18620 0.36770 0.02250 -0.01200
H 	H 	0.11270 0.30070 0.02890 0.05600
C 	C 	0.25520 0.36810 0.94930 0.08800
N 	N 	0.21990 0.27250 0.90310 -0.12300
C 	C 	0.14020 0.73140 0.47160 -0.25500
H 	H 	0.08450 0.73440 0.50580 0.15200
C 	C 	0.25000 0.78460 0.49780 0.05900
H 	H 	0.30730 0.78850 0.46150 0.01800
C 	C 	0.28730 0.83790 0.58020 0.03000
N 	N 	0.21110 0.81670 0.64550 -0.10900
C 	C 	0.39530 0.91200 0.61120 -0.00800
H 	H 	0.46520 0.94100 0.58140 0.03400
C 	C 	0.27450 0.87600 0.71220 0.09000
H 	H 	0.24320 0.87340 0.76480 0.01500
C 	C 	0.29750 0.29980 0.84400 0.11200
H 	H 	0.29250 0.24680 0.80340 0.00100
N 	N 	0.38740 0.93870 0.69330 -0.24500
N 	N 	0.38320 0.40910 0.84730 -0.24400
Co	Co	0.52664 0.48207 0.77171 1.14700
C 	C 	0.43670 0.30820 0.64600 0.39200
O 	O 	0.61880 0.62610 0.87520 -0.36700
O 	O 	0.52510 0.35930 0.69470 -0.49700
C 	C 	0.44820 0.23370 0.57870 -0.24300
H 	H 	0.51450 0.22530 0.57770 0.12000
C 	C 	0.66780 0.56830 0.89230 0.36400
O 	O 	0.34990 0.31870 0.65090 -0.32200
O 	O 	0.65900 0.48740 0.84240 -0.47200
C 	C 	0.45470 0.09740 0.41440 -0.01100
H 	H 	0.53170 0.13030 0.43350 0.03400
C 	C 	0.36770 0.18150 0.52250 0.04400
H 	H 	0.30070 0.18800 0.52890 0.04500
C 	C 	0.36810 0.11290 0.44930 0.04500
N 	N 	0.27250 0.05260 0.40310 -0.12200
C 	C 	0.73140 0.59120 0.97160 -0.21100
H 	H 	0.73440 0.64990 0.00580 0.12100
C 	C 	0.78460 0.53460 0.99780 0.07000
H 	H 	0.78850 0.48120 0.96150 0.01700
C 	C 	0.83790 0.55060 0.08020 0.00800
N 	N 	0.81670 0.60560 0.14550 -0.10800
C 	C 	0.91200 0.51670 0.11120 0.00000
H 	H 	0.94100 0.47580 0.08140 0.02700
C 	C 	0.87600 0.60150 0.21220 0.08900
H 	H 	0.87340 0.63020 0.26480 0.01400
C 	C 	0.29980 0.00230 0.34400 0.11700
H 	H 	0.24680 0.95430 0.30340 -0.00400
N 	N 	0.93870 0.55130 0.19330 -0.24600
N 	N 	0.40910 0.02590 0.34730 -0.24700
Co	Co	0.51793 0.04457 0.77171 1.14600
C 	C 	0.69180 0.12850 0.64600 0.39200
O 	O 	0.37390 0.99270 0.87520 -0.36500
O 	O 	0.64070 0.16580 0.69470 -0.49700
C 	C 	0.76630 0.21450 0.57870 -0.24300
H 	H 	0.77470 0.28920 0.57770 0.12000
C 	C 	0.43170 0.09950 0.89230 0.36300
O 	O 	0.68130 0.03120 0.65090 -0.32200
O 	O 	0.51260 0.17160 0.84240 -0.47200
C 	C 	0.90260 0.35730 0.41440 -0.01100
H 	H 	0.86970 0.40140 0.43350 0.03400
C 	C 	0.81850 0.18620 0.52250 0.04400
H 	H 	0.81200 0.11270 0.52890 0.04500
C 	C 	0.88710 0.25520 0.44930 0.04500
N 	N 	0.94740 0.21990 0.40310 -0.12100
C 	C 	0.40880 0.14020 0.97160 -0.21600
H 	H 	0.35010 0.08450 0.00580 0.12400
C 	C 	0.46540 0.25000 0.99780 0.07400
H 	H 	0.51880 0.30730 0.96150 0.01600
C 	C 	0.44940 0.28730 0.08020 0.00600
N 	N 	0.39440 0.21110 0.14550 -0.10700
C 	C 	0.48330 0.39530 0.11120 0.00100
H 	H 	0.52420 0.46520 0.08140 0.02500
C 	C 	0.39850 0.27450 0.21220 0.08800
H 	H 	0.36980 0.24320 0.26480 0.01400
C 	C 	0.99770 0.29750 0.34400 0.11700
H 	H 	0.04570 0.29250 0.30340 -0.00300
N 	N 	0.44870 0.38740 0.19330 -0.24700
N 	N 	0.97410 0.38320 0.34730 -0.24700
Co	Co	0.95543 0.47336 0.77171 1.14600
C 	C 	0.87150 0.56330 0.64600 0.39200
O 	O 	0.00730 0.38120 0.87520 -0.36600
O 	O 	0.83420 0.47490 0.69470 -0.49700
C 	C 	0.78550 0.55180 0.57870 -0.24300
H 	H 	0.71080 0.48550 0.57770 0.12000
C 	C 	0.90050 0.33220 0.89230 0.36500
O 	O 	0.96880 0.65010 0.65090 -0.32200
O 	O 	0.82840 0.34100 0.84240 -0.47300
C 	C 	0.64270 0.54530 0.41440 -0.01100
H 	H 	0.59860 0.46830 0.43350 0.03400
C 	C 	0.81380 0.63230 0.52250 0.04400
H 	H 	0.88730 0.69930 0.52890 0.04500
C 	C 	0.74480 0.63190 0.44930 0.04500
N 	N 	0.78010 0.72750 0.40310 -0.12100
C 	C 	0.85980 0.26860 0.97160 -0.22200
H 	H 	0.91550 0.26560 0.00580 0.12900
C 	C 	0.75000 0.21540 0.99780 0.07300
H 	H 	0.69270 0.21150 0.96150 0.01600
C 	C 	0.71270 0.16210 0.08020 0.00900
N 	N 	0.78890 0.18330 0.14550 -0.10700
C 	C 	0.60470 0.08800 0.11120 0.00000
H 	H 	0.53480 0.05900 0.08140 0.02700
C 	C 	0.72550 0.12400 0.21220 0.08900
H 	H 	0.75680 0.12660 0.26480 0.01400
C 	C 	0.70250 0.70020 0.34400 0.11200
H 	H 	0.70750 0.75320 0.30340 0.00000
N 	N 	0.61260 0.06130 0.19330 -0.24600
N 	N 	0.61680 0.59090 0.34730 -0.24700
Na	Na	0.33333 0.66667 0.27040 0.58900
Na	Na	0.66667 0.33333 0.77040 0.58900
