data_crystal

_cell_length_a 13.11770
_cell_length_b 13.11770
_cell_length_c 16.00500
_cell_angle_alpha 90.00000
_cell_angle_beta  90.00000
_cell_angle_gamma 120.00000

_symmetry_space_group_name_	'P 1'
_symmetry_space_group_name_H-M	'P 1'

loop_
_symmetry_equiv_pos_as_xyz
  x,y,z

loop_
_atom_site_label
_atom_site_type_symbol
_atom_site_fract_x
_atom_site_fract_y
_atom_site_fract_z
_atom_site_charge
Co	Co	0.04430 0.52597 0.09155 1.14300
O 	O 	0.16570 0.52500 0.16780 -0.50200
O 	O 	0.17200 0.65880 0.02020 -0.48800
C 	C 	0.12720 0.43620 0.21650 0.40400
C 	C 	0.09940 0.66750 0.97080 0.38400
O 	O 	0.03130 0.35060 0.21160 -0.36000
O 	O 	0.99260 0.61870 0.98720 -0.37500
C 	C 	0.18630 0.36780 0.34030 0.02100
H 	H 	0.11310 0.30060 0.33360 0.03800
C 	C 	0.25090 0.78560 0.86480 0.03000
H 	H 	0.30850 0.79000 0.90100 0.03100
C 	C 	0.28770 0.83860 0.78140 0.04900
C 	C 	0.14100 0.73210 0.89130 -0.24000
H 	H 	0.08540 0.73540 0.85710 0.13200
C 	C 	0.39570 0.91390 0.75040 -0.00300
N 	N 	0.21140 0.81800 0.71720 -0.21700
H 	H 	0.13600 0.77520 0.71910 0.15200
N 	N 	0.38680 0.93900 0.66970 -0.25500
C 	C 	0.35740 0.45450 0.44710 -0.03100
H 	H 	0.40250 0.53080 0.42680 0.04100
N 	N 	0.38300 0.40880 0.51620 -0.25300
C 	C 	0.29670 0.30010 0.51860 0.14100
H 	H 	0.29140 0.24660 0.55890 -0.02400
C 	C 	0.27650 0.87740 0.64990 0.11100
N 	N 	0.21850 0.27290 0.45970 -0.22400
H 	H 	0.15590 0.20580 0.45230 0.13000
C 	C 	0.25460 0.36880 0.41360 0.07000
C 	C 	0.21530 0.44910 0.28380 -0.23600
H 	H 	0.29010 0.51530 0.28440 0.11600
H 	H 	0.48600 0.93500 0.77000 0.02600
Co	Co	0.47403 0.51833 0.09155 1.14200
O 	O 	0.47500 0.64070 0.16780 -0.50300
O 	O 	0.34120 0.51320 0.02020 -0.49000
C 	C 	0.56380 0.69100 0.21650 0.40400
C 	C 	0.33250 0.43190 0.97080 0.38500
O 	O 	0.64940 0.68070 0.21160 -0.36000
O 	O 	0.38130 0.37390 0.98720 -0.37500
C 	C 	0.63220 0.81850 0.34030 0.02100
H 	H 	0.69940 0.81250 0.33360 0.03800
C 	C 	0.21440 0.46530 0.86480 0.03000
H 	H 	0.21000 0.51850 0.90100 0.03100
C 	C 	0.16140 0.44910 0.78140 0.04900
C 	C 	0.26790 0.40890 0.89130 -0.24000
H 	H 	0.26460 0.35000 0.85710 0.13300
C 	C 	0.08610 0.48180 0.75040 -0.00300
N 	N 	0.18200 0.39340 0.71720 -0.21700
H 	H 	0.22480 0.36080 0.71910 0.15200
N 	N 	0.06100 0.44780 0.66970 -0.25500
C 	C 	0.54550 0.90290 0.44710 -0.03100
H 	H 	0.46920 0.87170 0.42680 0.04100
N 	N 	0.59120 0.97420 0.51620 -0.25300
C 	C 	0.69990 0.99660 0.51860 0.14100
H 	H 	0.75340 0.04480 0.55890 -0.02400
C 	C 	0.12260 0.39910 0.64990 0.11100
N 	N 	0.72710 0.94560 0.45970 -0.22400
H 	H 	0.79420 0.95010 0.45230 0.13000
C 	C 	0.63120 0.88580 0.41360 0.07000
C 	C 	0.55090 0.76620 0.28380 -0.23600
H 	H 	0.48470 0.77480 0.28440 0.11600
H 	H 	0.06500 0.55100 0.77000 0.02600
Co	Co	0.48167 0.95570 0.09155 1.14200
O 	O 	0.35930 0.83430 0.16780 -0.50300
O 	O 	0.48680 0.82800 0.02020 -0.48900
C 	C 	0.30900 0.87280 0.21650 0.40400
C 	C 	0.56810 0.90060 0.97080 0.38500
O 	O 	0.31930 0.96870 0.21160 -0.36000
O 	O 	0.62610 0.00740 0.98720 -0.37500
C 	C 	0.18150 0.81370 0.34030 0.02100
H 	H 	0.18750 0.88690 0.33360 0.03800
C 	C 	0.53470 0.74910 0.86480 0.03000
H 	H 	0.48150 0.69150 0.90100 0.03100
C 	C 	0.55090 0.71230 0.78140 0.05000
C 	C 	0.59110 0.85900 0.89130 -0.24000
H 	H 	0.65000 0.91460 0.85710 0.13200
C 	C 	0.51820 0.60430 0.75040 -0.00300
N 	N 	0.60660 0.78860 0.71720 -0.21700
H 	H 	0.63920 0.86400 0.71910 0.15200
N 	N 	0.55220 0.61320 0.66970 -0.25500
C 	C 	0.09710 0.64260 0.44710 -0.03100
H 	H 	0.12830 0.59750 0.42680 0.04100
N 	N 	0.02580 0.61700 0.51620 -0.25300
C 	C 	0.00340 0.70330 0.51860 0.14100
H 	H 	0.95520 0.70860 0.55890 -0.02400
C 	C 	0.60090 0.72350 0.64990 0.11100
N 	N 	0.05440 0.78150 0.45970 -0.22400
H 	H 	0.04990 0.84410 0.45230 0.13000
C 	C 	0.11420 0.74540 0.41360 0.07000
C 	C 	0.23380 0.78470 0.28380 -0.23600
H 	H 	0.22520 0.70990 0.28440 0.11600
H 	H 	0.44900 0.51400 0.77000 0.02600
Co	Co	0.95570 0.47403 0.59155 1.14500
O 	O 	0.83430 0.47500 0.66780 -0.50300
O 	O 	0.82800 0.34120 0.52020 -0.47200
C 	C 	0.87280 0.56380 0.71650 0.40500
C 	C 	0.90060 0.33250 0.47080 0.36300
O 	O 	0.96870 0.64940 0.71160 -0.36000
O 	O 	0.00740 0.38130 0.48720 -0.37800
C 	C 	0.81370 0.63220 0.84030 0.02700
H 	H 	0.88690 0.69940 0.83360 0.03700
C 	C 	0.74910 0.21440 0.36480 0.02500
H 	H 	0.69150 0.21000 0.40100 0.02800
C 	C 	0.71230 0.16140 0.28140 0.05000
C 	C 	0.85900 0.26790 0.39130 -0.23400
H 	H 	0.91460 0.26460 0.35710 0.13000
C 	C 	0.60430 0.08610 0.25040 -0.00400
N 	N 	0.78860 0.18200 0.21720 -0.21600
H 	H 	0.86400 0.22480 0.21910 0.15100
N 	N 	0.61320 0.06100 0.16970 -0.25500
C 	C 	0.64260 0.54550 0.94710 -0.01000
H 	H 	0.59750 0.46920 0.92680 0.03600
N 	N 	0.61700 0.59120 0.01620 -0.26100
C 	C 	0.70330 0.69990 0.01860 0.11800
H 	H 	0.70860 0.75340 0.05890 -0.02000
C 	C 	0.72350 0.12260 0.14990 0.10500
N 	N 	0.78150 0.72710 0.95970 -0.21100
H 	H 	0.84410 0.79420 0.95230 0.13100
C 	C 	0.74540 0.63120 0.91360 0.06400
C 	C 	0.78470 0.55090 0.78380 -0.23800
H 	H 	0.70990 0.48470 0.78440 0.11700
H 	H 	0.51400 0.06500 0.27000 0.02600
Co	Co	0.52597 0.48167 0.59155 1.14500
O 	O 	0.52500 0.35930 0.66780 -0.50300
O 	O 	0.65880 0.48680 0.52020 -0.47200
C 	C 	0.43620 0.30900 0.71650 0.40500
C 	C 	0.66750 0.56810 0.47080 0.36300
O 	O 	0.35060 0.31930 0.71160 -0.36000
O 	O 	0.61870 0.62610 0.48720 -0.37800
C 	C 	0.36780 0.18150 0.84030 0.02700
H 	H 	0.30060 0.18750 0.83360 0.03700
C 	C 	0.78560 0.53470 0.36480 0.02500
H 	H 	0.79000 0.48150 0.40100 0.02800
C 	C 	0.83860 0.55090 0.28140 0.05000
C 	C 	0.73210 0.59110 0.39130 -0.23400
H 	H 	0.73540 0.65000 0.35710 0.13000
C 	C 	0.91390 0.51820 0.25040 -0.00400
N 	N 	0.81800 0.60660 0.21720 -0.21600
H 	H 	0.77520 0.63920 0.21910 0.15100
N 	N 	0.93900 0.55220 0.16970 -0.25500
C 	C 	0.45450 0.09710 0.94710 -0.00900
H 	H 	0.53080 0.12830 0.92680 0.03600
N 	N 	0.40880 0.02580 0.01620 -0.26100
C 	C 	0.30010 0.00340 0.01860 0.11700
H 	H 	0.24660 0.95520 0.05890 -0.01900
C 	C 	0.87740 0.60090 0.14990 0.10500
N 	N 	0.27290 0.05440 0.95970 -0.21100
H 	H 	0.20580 0.04990 0.95230 0.13100
C 	C 	0.36880 0.11420 0.91360 0.06400
C 	C 	0.44910 0.23380 0.78380 -0.23900
H 	H 	0.51530 0.22520 0.78440 0.11700
H 	H 	0.93500 0.44900 0.27000 0.02600
Co	Co	0.51833 0.04430 0.59155 1.14500
O 	O 	0.64070 0.16570 0.66780 -0.50300
O 	O 	0.51320 0.17200 0.52020 -0.47200
C 	C 	0.69100 0.12720 0.71650 0.40500
C 	C 	0.43190 0.09940 0.47080 0.36300
O 	O 	0.68070 0.03130 0.71160 -0.36000
O 	O 	0.37390 0.99260 0.48720 -0.37800
C 	C 	0.81850 0.18630 0.84030 0.02700
H 	H 	0.81250 0.11310 0.83360 0.03700
C 	C 	0.46530 0.25090 0.36480 0.02500
H 	H 	0.51850 0.30850 0.40100 0.02800
C 	C 	0.44910 0.28770 0.28140 0.05000
C 	C 	0.40890 0.14100 0.39130 -0.23400
H 	H 	0.35000 0.08540 0.35710 0.13000
C 	C 	0.48180 0.39570 0.25040 -0.00400
N 	N 	0.39340 0.21140 0.21720 -0.21600
H 	H 	0.36080 0.13600 0.21910 0.15100
N 	N 	0.44780 0.38680 0.16970 -0.25500
C 	C 	0.90290 0.35740 0.94710 -0.00900
H 	H 	0.87170 0.40250 0.92680 0.03600
N 	N 	0.97420 0.38300 0.01620 -0.26100
C 	C 	0.99660 0.29670 0.01860 0.11800
H 	H 	0.04480 0.29140 0.05890 -0.01900
C 	C 	0.39910 0.27650 0.14990 0.10500
N 	N 	0.94560 0.21850 0.95970 -0.21100
H 	H 	0.95010 0.15590 0.95230 0.13100
C 	C 	0.88580 0.25460 0.91360 0.06400
C 	C 	0.76620 0.21530 0.78380 -0.23800
H 	H 	0.77480 0.29010 0.78440 0.11700
H 	H 	0.55100 0.48600 0.27000 0.02600
Na	Na	0.33333 0.66667 0.09310 0.59000
Na	Na	0.66667 0.33333 0.59310 0.59000
