data_crystal

_cell_length_a 12.07900
_cell_length_b 12.38200
_cell_length_c 12.56800
_cell_angle_alpha 99.99000
_cell_angle_beta  96.00000
_cell_angle_gamma 91.29000

_symmetry_space_group_name_	'P 1'
_symmetry_space_group_name_H-M	'P 1'

loop_
_symmetry_equiv_pos_as_xyz
  x,y,z

loop_
_atom_site_label
_atom_site_type_symbol
_atom_site_fract_x
_atom_site_fract_y
_atom_site_fract_z
_atom_site_charge
C 	C 	0.68610 0.24380 0.52150 0.38300
C 	C 	0.75590 0.34750 0.54190 -0.23200
C 	C 	0.79100 0.39720 0.45820 0.30800
C 	C 	0.85340 0.49660 0.48290 -0.25800
H 	H 	0.87620 0.53000 0.42670 0.13400
C 	C 	0.88130 0.54530 0.58900 0.10600
H 	H 	0.92130 0.61310 0.60450 -0.00200
C 	C 	0.85150 0.49630 0.67580 -0.12600
C 	C 	0.78610 0.39960 0.65160 0.09000
H 	H 	0.76150 0.36820 0.70830 0.02000
C 	C 	0.88190 0.55030 0.79200 0.17200
C 	C 	0.80750 0.54740 0.87000 -0.24800
H 	H 	0.73800 0.50990 0.84920 0.13600
C 	C 	0.83440 0.59940 0.97870 0.24300
C 	C 	0.93500 0.65570 0.00660 -0.29500
H 	H 	0.95240 0.69200 0.07880 0.13500
C 	C 	0.01250 0.66180 0.93390 0.18700
C 	C 	0.98400 0.60650 0.82740 -0.21000
H 	H 	0.03630 0.60720 0.77710 0.10800
C 	C 	0.74620 0.59990 0.05520 -0.17700
C 	C 	0.68000 0.50660 0.05020 0.13500
H 	H 	0.69140 0.44230 0.00110 -0.01300
C 	C 	0.59520 0.50840 0.11910 -0.27300
H 	H 	0.55320 0.44360 0.11920 0.14000
C 	C 	0.57300 0.60320 0.18620 0.32300
C 	C 	0.63880 0.69790 0.19350 -0.24700
C 	C 	0.72470 0.69490 0.12590 0.12400
H 	H 	0.76890 0.75900 0.12840 0.00300
C 	C 	0.61920 0.80090 0.26790 0.41200
C 	C 	0.12120 0.72230 0.96770 -0.09100
C 	C 	0.17270 0.73090 0.07400 0.04400
H 	H 	0.13910 0.69570 0.12360 0.01300
C 	C 	0.27450 0.79150 0.10780 -0.20400
H 	H 	0.30920 0.79300 0.17860 0.12100
C 	C 	0.32390 0.84860 0.03920 0.23500
C 	C 	0.27400 0.83870 0.92960 -0.19700
C 	C 	0.17360 0.77780 0.89860 0.08500
H 	H 	0.13970 0.77420 0.82720 0.01900
C 	C 	0.32360 0.89810 0.84960 0.42300
Cu	Cu	0.46319 0.90391 0.41747 0.91500
Cu	Cu	0.67281 0.03833 0.35389 0.88800
O 	O 	0.65970 0.19880 0.42190 -0.42600
O 	O 	0.65650 0.20690 0.60110 -0.42800
O 	O 	0.48110 0.59580 0.24400 -0.42400
H 	H 	0.50240 0.60380 0.31000 0.25800
O 	O 	0.53580 0.79630 0.32130 -0.41800
O 	O 	0.68030 0.88540 0.27230 -0.39900
O 	O 	0.41820 0.90810 0.07810 -0.33900
O 	O 	0.41910 0.94300 0.87230 -0.43100
O 	O 	0.26900 0.89840 0.76030 -0.41000
O 	O 	0.76720 0.35110 0.35080 -0.43600
H 	H 	0.76940 0.28330 0.34400 0.26900
O 	O 	0.60510 0.98910 0.47460 -0.71400
H 	H 	0.64960 0.94940 0.50490 0.25300
C 	C 	0.31390 0.75620 0.47850 0.38400
C 	C 	0.24410 0.65250 0.45810 -0.22600
C 	C 	0.20900 0.60280 0.54180 0.30600
C 	C 	0.14660 0.50340 0.51710 -0.25600
H 	H 	0.12380 0.47000 0.57330 0.12800
C 	C 	0.11870 0.45470 0.41100 0.09600
H 	H 	0.07870 0.38690 0.39550 -0.00900
C 	C 	0.14850 0.50370 0.32420 -0.11600
C 	C 	0.21390 0.60040 0.34840 0.08200
H 	H 	0.23850 0.63180 0.29170 0.02200
C 	C 	0.11810 0.44970 0.20800 0.13400
C 	C 	0.19250 0.45260 0.13000 -0.17600
H 	H 	0.26200 0.49010 0.15080 0.10200
C 	C 	0.16560 0.40060 0.02130 0.07000
C 	C 	0.06500 0.34430 0.99340 -0.13200
H 	H 	0.04760 0.30800 0.92120 0.07800
C 	C 	0.98750 0.33820 0.06610 0.13400
C 	C 	0.01600 0.39350 0.17260 -0.21700
H 	H 	0.96370 0.39280 0.22290 0.11800
C 	C 	0.25380 0.40010 0.94480 -0.06600
C 	C 	0.32000 0.49340 0.94980 0.07200
H 	H 	0.30860 0.55770 0.99890 0.02900
C 	C 	0.40480 0.49160 0.88090 -0.22800
H 	H 	0.44680 0.55640 0.88080 0.13500
C 	C 	0.42700 0.39680 0.81380 0.30200
C 	C 	0.36120 0.30210 0.80650 -0.22400
C 	C 	0.27530 0.30510 0.87410 0.06800
H 	H 	0.23110 0.24100 0.87160 0.01600
C 	C 	0.38080 0.19910 0.73210 0.40900
C 	C 	0.87880 0.27770 0.03230 -0.17000
C 	C 	0.82730 0.26910 0.92600 0.15200
H 	H 	0.86090 0.30430 0.87640 -0.01700
C 	C 	0.72550 0.20850 0.89220 -0.28400
H 	H 	0.69080 0.20700 0.82140 0.14300
C 	C 	0.67610 0.15140 0.96080 0.32700
C 	C 	0.72600 0.16130 0.07040 -0.29900
C 	C 	0.82640 0.22220 0.10140 0.13900
H 	H 	0.86030 0.22580 0.17280 -0.00600
C 	C 	0.67640 0.10190 0.15040 0.45100
Cu	Cu	0.53681 0.09609 0.58253 0.88800
Cu	Cu	0.32719 0.96167 0.64611 0.93300
O 	O 	0.34030 0.80120 0.57810 -0.41000
O 	O 	0.34350 0.79310 0.39890 -0.41200
O 	O 	0.51890 0.40420 0.75600 -0.41300
H 	H 	0.49760 0.39620 0.69000 0.25400
O 	O 	0.46420 0.20370 0.67870 -0.42700
O 	O 	0.31970 0.11460 0.72770 -0.44500
O 	O 	0.58180 0.09190 0.92190 -0.38400
O 	O 	0.58090 0.05700 0.12770 -0.50200
O 	O 	0.73100 0.10160 0.23970 -0.44400
O 	O 	0.23280 0.64890 0.64920 -0.43500
H 	H 	0.23060 0.71670 0.65600 0.27100
O 	O 	0.39490 0.01090 0.52540 -0.79000
H 	H 	0.35040 0.05060 0.49510 0.24700
Cu	Cu	0.50000 0.00000 -0.00000 0.91400
