data_crystal

_cell_length_a 28.95890
_cell_length_b 28.95890
_cell_length_c 14.56530
_cell_angle_alpha 90.00000
_cell_angle_beta  90.00000
_cell_angle_gamma 120.00000

_symmetry_space_group_name_	'P 1'
_symmetry_space_group_name_H-M	'P 1'

loop_
_symmetry_equiv_pos_as_xyz
  x,y,z

loop_
_atom_site_label
_atom_site_type_symbol
_atom_site_fract_x
_atom_site_fract_y
_atom_site_fract_z
_atom_site_charge
Ag	Ag	0.60166 0.06353 0.74324 0.53100
C 	C 	0.70250 0.11460 0.60830 0.11400
N 	N 	0.79136 0.20348 0.87670 -0.15900
N 	N 	0.65483 0.06975 0.62210 -0.18400
C 	C 	0.72775 0.16557 0.75590 0.11700
N 	N 	0.69089 0.12840 0.81200 -0.16600
C 	C 	0.77770 0.20186 0.78730 -0.06500
H 	H 	0.80320 0.22650 0.74540 0.03400
C 	C 	0.71250 0.16430 0.65730 -0.26900
H 	H 	0.74140 0.19560 0.62540 0.09400
H 	H 	0.67990 0.16720 0.65410 0.08300
N 	N 	0.73122 0.06960 0.50570 -0.14600
C 	C 	0.75480 0.16650 0.93150 -0.00400
H 	H 	0.76310 0.16650 0.99460 0.00600
C 	C 	0.74030 0.11370 0.55070 -0.06000
H 	H 	0.77360 0.14540 0.54290 0.03600
C 	C 	0.70580 0.12870 0.90060 -0.00300
H 	H 	0.68170 0.10200 0.94170 0.02100
C 	C 	0.68340 0.02630 0.51840 -0.01300
H 	H 	0.67490 0.99470 0.48580 0.02400
C 	C 	0.64620 0.02620 0.57750 0.00900
H 	H 	0.61340 0.99400 0.58660 0.00500
Ag	Ag	0.26833 0.39686 0.07657 0.53100
C 	C 	0.36917 0.44793 0.94163 0.11300
N 	N 	0.45803 0.53681 0.21003 -0.16000
N 	N 	0.32150 0.40308 0.95543 -0.18500
C 	C 	0.39442 0.49890 0.08923 0.11600
N 	N 	0.35756 0.46173 0.14533 -0.16700
C 	C 	0.44437 0.53519 0.12063 -0.06500
H 	H 	0.46987 0.55983 0.07873 0.03400
C 	C 	0.37917 0.49763 0.99063 -0.26900
H 	H 	0.40807 0.52893 0.95873 0.09400
H 	H 	0.34657 0.50053 0.98743 0.08300
N 	N 	0.39789 0.40293 0.83903 -0.14600
C 	C 	0.42147 0.49983 0.26483 -0.00400
H 	H 	0.42977 0.49983 0.32793 0.00600
C 	C 	0.40697 0.44703 0.88403 -0.06000
H 	H 	0.44027 0.47873 0.87623 0.03600
C 	C 	0.37247 0.46203 0.23393 -0.00300
H 	H 	0.34837 0.43533 0.27503 0.02100
C 	C 	0.35007 0.35963 0.85173 -0.01300
H 	H 	0.34157 0.32803 0.81913 0.02400
C 	C 	0.31287 0.35953 0.91083 0.00900
H 	H 	0.28007 0.32733 0.91993 0.00500
Ag	Ag	0.93499 0.73020 0.40991 0.53100
C 	C 	0.03583 0.78127 0.27497 0.11300
N 	N 	0.12469 0.87015 0.54337 -0.16000
N 	N 	0.98816 0.73642 0.28877 -0.18500
C 	C 	0.06108 0.83224 0.42257 0.11600
N 	N 	0.02422 0.79507 0.47867 -0.16700
C 	C 	0.11103 0.86853 0.45397 -0.06500
H 	H 	0.13653 0.89317 0.41207 0.03400
C 	C 	0.04583 0.83097 0.32397 -0.26900
H 	H 	0.07473 0.86227 0.29207 0.09400
H 	H 	0.01323 0.83387 0.32077 0.08300
N 	N 	0.06455 0.73627 0.17237 -0.14600
C 	C 	0.08813 0.83317 0.59817 -0.00400
H 	H 	0.09643 0.83317 0.66127 0.00600
C 	C 	0.07363 0.78037 0.21737 -0.06000
H 	H 	0.10693 0.81207 0.20957 0.03600
C 	C 	0.03913 0.79537 0.56727 -0.00300
H 	H 	0.01503 0.76867 0.60837 0.02100
C 	C 	0.01673 0.69297 0.18507 -0.01400
H 	H 	0.00823 0.66137 0.15247 0.02400
C 	C 	0.97953 0.69287 0.24417 0.01000
H 	H 	0.94673 0.66067 0.25327 0.00500
Ag	Ag	0.93647 0.53813 0.74324 0.53100
C 	C 	0.88540 0.58790 0.60830 0.11300
N 	N 	0.79652 0.58788 0.87670 -0.16000
N 	N 	0.93025 0.58508 0.62210 -0.18500
C 	C 	0.83443 0.56218 0.75590 0.11600
N 	N 	0.87160 0.56249 0.81200 -0.16700
C 	C 	0.79814 0.57584 0.78730 -0.06500
H 	H 	0.77350 0.57670 0.74540 0.03400
C 	C 	0.83570 0.54820 0.65730 -0.26900
H 	H 	0.80440 0.54580 0.62540 0.09400
H 	H 	0.83280 0.51270 0.65410 0.08300
N 	N 	0.93040 0.66162 0.50570 -0.14600
C 	C 	0.83350 0.58830 0.93150 -0.00400
H 	H 	0.83350 0.59660 0.99460 0.00600
C 	C 	0.88630 0.62660 0.55070 -0.06000
H 	H 	0.85460 0.62820 0.54290 0.03600
C 	C 	0.87130 0.57710 0.90060 -0.00300
H 	H 	0.89800 0.57970 0.94170 0.02100
C 	C 	0.97370 0.65710 0.51840 -0.01300
H 	H 	0.00530 0.68020 0.48580 0.02400
C 	C 	0.97380 0.62000 0.57750 0.00900
H 	H 	0.00600 0.61940 0.58660 0.00500
Ag	Ag	0.60314 0.87146 0.07657 0.53000
C 	C 	0.55207 0.92123 0.94163 0.11300
N 	N 	0.46319 0.92121 0.21003 -0.16000
N 	N 	0.59692 0.91841 0.95543 -0.18500
C 	C 	0.50110 0.89551 0.08923 0.11500
N 	N 	0.53827 0.89582 0.14533 -0.16700
C 	C 	0.46481 0.90917 0.12063 -0.06500
H 	H 	0.44017 0.91003 0.07873 0.03400
C 	C 	0.50237 0.88153 0.99063 -0.26800
H 	H 	0.47107 0.87913 0.95873 0.09400
H 	H 	0.49947 0.84603 0.98743 0.08300
N 	N 	0.59707 0.99495 0.83903 -0.14600
C 	C 	0.50017 0.92163 0.26483 -0.00400
H 	H 	0.50017 0.92993 0.32793 0.00600
C 	C 	0.55297 0.95993 0.88403 -0.06000
H 	H 	0.52127 0.96153 0.87623 0.03600
C 	C 	0.53797 0.91043 0.23393 -0.00300
H 	H 	0.56467 0.91303 0.27503 0.02100
C 	C 	0.64037 0.99043 0.85173 -0.01200
H 	H 	0.67197 0.01353 0.81913 0.02300
C 	C 	0.64047 0.95333 0.91083 0.00900
H 	H 	0.67267 0.95273 0.91993 0.00500
Ag	Ag	0.26980 0.20480 0.40991 0.53100
C 	C 	0.21873 0.25457 0.27497 0.11300
N 	N 	0.12985 0.25455 0.54337 -0.16000
N 	N 	0.26358 0.25175 0.28877 -0.18500
C 	C 	0.16776 0.22885 0.42257 0.11600
N 	N 	0.20493 0.22916 0.47867 -0.16700
C 	C 	0.13147 0.24251 0.45397 -0.06500
H 	H 	0.10683 0.24337 0.41207 0.03400
C 	C 	0.16903 0.21487 0.32397 -0.26900
H 	H 	0.13773 0.21247 0.29207 0.09400
H 	H 	0.16613 0.17937 0.32077 0.08300
N 	N 	0.26373 0.32829 0.17237 -0.14600
C 	C 	0.16683 0.25497 0.59817 -0.00400
H 	H 	0.16683 0.26327 0.66127 0.00600
C 	C 	0.21963 0.29327 0.21737 -0.06000
H 	H 	0.18793 0.29487 0.20957 0.03600
C 	C 	0.20463 0.24377 0.56727 -0.00300
H 	H 	0.23133 0.24637 0.60837 0.02100
C 	C 	0.30703 0.32377 0.18507 -0.01300
H 	H 	0.33863 0.34687 0.15247 0.02400
C 	C 	0.30713 0.28667 0.24417 0.00900
H 	H 	0.33933 0.28607 0.25327 0.00500
Ag	Ag	0.46187 0.39834 0.74324 0.53100
C 	C 	0.41210 0.29750 0.60830 0.11300
N 	N 	0.41212 0.20864 0.87670 -0.16000
N 	N 	0.41492 0.34517 0.62210 -0.18500
C 	C 	0.43782 0.27225 0.75590 0.11600
N 	N 	0.43751 0.30911 0.81200 -0.16700
C 	C 	0.42416 0.22230 0.78730 -0.06500
H 	H 	0.42330 0.19680 0.74540 0.03400
C 	C 	0.45180 0.28750 0.65730 -0.26900
H 	H 	0.45420 0.25860 0.62540 0.09400
H 	H 	0.48730 0.32010 0.65410 0.08300
N 	N 	0.33838 0.26878 0.50570 -0.14600
C 	C 	0.41170 0.24520 0.93150 -0.00400
H 	H 	0.40340 0.23690 0.99460 0.00600
C 	C 	0.37340 0.25970 0.55070 -0.06000
H 	H 	0.37180 0.22640 0.54290 0.03600
C 	C 	0.42290 0.29420 0.90060 -0.00300
H 	H 	0.42030 0.31830 0.94170 0.02100
C 	C 	0.34290 0.31660 0.51840 -0.01300
H 	H 	0.31980 0.32510 0.48580 0.02400
C 	C 	0.38000 0.35380 0.57750 0.00900
H 	H 	0.38060 0.38660 0.58660 0.00500
Ag	Ag	0.12854 0.73167 0.07657 0.53000
C 	C 	0.07877 0.63083 0.94163 0.11300
N 	N 	0.07879 0.54197 0.21003 -0.16000
N 	N 	0.08159 0.67850 0.95543 -0.18500
C 	C 	0.10449 0.60558 0.08923 0.11500
N 	N 	0.10418 0.64244 0.14533 -0.16700
C 	C 	0.09083 0.55563 0.12063 -0.06500
H 	H 	0.08997 0.53013 0.07873 0.03400
C 	C 	0.11847 0.62083 0.99063 -0.26800
H 	H 	0.12087 0.59193 0.95873 0.09400
H 	H 	0.15397 0.65343 0.98743 0.08300
N 	N 	0.00505 0.60211 0.83903 -0.14600
C 	C 	0.07837 0.57853 0.26483 -0.00400
H 	H 	0.07007 0.57023 0.32793 0.00600
C 	C 	0.04007 0.59303 0.88403 -0.06000
H 	H 	0.03847 0.55973 0.87623 0.03600
C 	C 	0.08957 0.62753 0.23393 -0.00300
H 	H 	0.08697 0.65163 0.27503 0.02100
C 	C 	0.00957 0.64993 0.85173 -0.01200
H 	H 	0.98647 0.65843 0.81913 0.02300
C 	C 	0.04667 0.68713 0.91083 0.00900
H 	H 	0.04727 0.71993 0.91993 0.00500
Ag	Ag	0.79520 0.06501 0.40991 0.53100
C 	C 	0.74543 0.96417 0.27497 0.11300
N 	N 	0.74545 0.87531 0.54337 -0.16000
N 	N 	0.74825 0.01184 0.28877 -0.18500
C 	C 	0.77115 0.93892 0.42257 0.11600
N 	N 	0.77084 0.97578 0.47867 -0.16700
C 	C 	0.75749 0.88897 0.45397 -0.06500
H 	H 	0.75663 0.86347 0.41207 0.03400
C 	C 	0.78513 0.95417 0.32397 -0.26900
H 	H 	0.78753 0.92527 0.29207 0.09400
H 	H 	0.82063 0.98677 0.32077 0.08300
N 	N 	0.67171 0.93545 0.17237 -0.14600
C 	C 	0.74503 0.91187 0.59817 -0.00400
H 	H 	0.73673 0.90357 0.66127 0.00600
C 	C 	0.70673 0.92637 0.21737 -0.06000
H 	H 	0.70513 0.89307 0.20957 0.03600
C 	C 	0.75623 0.96087 0.56727 -0.00300
H 	H 	0.75363 0.98497 0.60837 0.02100
C 	C 	0.67623 0.98327 0.18507 -0.01400
H 	H 	0.65313 0.99177 0.15247 0.02400
C 	C 	0.71333 0.02047 0.24417 0.01000
H 	H 	0.71393 0.05327 0.25327 0.00500
Ag	Ag	0.39834 0.93647 0.25676 0.53000
C 	C 	0.29750 0.88540 0.39170 0.11300
N 	N 	0.20864 0.79652 0.12330 -0.16000
N 	N 	0.34517 0.93025 0.37790 -0.18500
C 	C 	0.27225 0.83443 0.24410 0.11600
N 	N 	0.30911 0.87160 0.18800 -0.16700
C 	C 	0.22230 0.79814 0.21270 -0.06500
H 	H 	0.19680 0.77350 0.25460 0.03400
C 	C 	0.28750 0.83570 0.34270 -0.26900
H 	H 	0.25860 0.80440 0.37460 0.09400
H 	H 	0.32010 0.83280 0.34590 0.08300
N 	N 	0.26878 0.93040 0.49430 -0.14600
C 	C 	0.24520 0.83350 0.06850 -0.00400
H 	H 	0.23690 0.83350 0.00540 0.00600
C 	C 	0.25970 0.88630 0.44930 -0.06000
H 	H 	0.22640 0.85460 0.45710 0.03600
C 	C 	0.29420 0.87130 0.09940 -0.00300
H 	H 	0.31830 0.89800 0.05830 0.02100
C 	C 	0.31660 0.97370 0.48160 -0.01300
H 	H 	0.32510 0.00530 0.51420 0.02400
C 	C 	0.35380 0.97380 0.42250 0.00900
H 	H 	0.38660 0.00600 0.41340 0.00500
Ag	Ag	0.06501 0.26980 0.59009 0.53100
C 	C 	0.96417 0.21873 0.72503 0.11300
N 	N 	0.87531 0.12985 0.45663 -0.16000
N 	N 	0.01184 0.26358 0.71123 -0.18500
C 	C 	0.93892 0.16776 0.57743 0.11600
N 	N 	0.97578 0.20493 0.52133 -0.16700
C 	C 	0.88897 0.13147 0.54603 -0.06500
H 	H 	0.86347 0.10683 0.58793 0.03400
C 	C 	0.95417 0.16903 0.67603 -0.26900
H 	H 	0.92527 0.13773 0.70793 0.09400
H 	H 	0.98677 0.16613 0.67923 0.08300
N 	N 	0.93545 0.26373 0.82763 -0.14600
C 	C 	0.91187 0.16683 0.40183 -0.00400
H 	H 	0.90357 0.16683 0.33873 0.00600
C 	C 	0.92637 0.21963 0.78263 -0.06000
H 	H 	0.89307 0.18793 0.79043 0.03600
C 	C 	0.96087 0.20463 0.43273 -0.00300
H 	H 	0.98497 0.23133 0.39163 0.02100
C 	C 	0.98327 0.30703 0.81493 -0.01400
H 	H 	0.99177 0.33863 0.84753 0.02400
C 	C 	0.02047 0.30713 0.75583 0.01000
H 	H 	0.05327 0.33933 0.74673 0.00500
Ag	Ag	0.73167 0.60314 0.92343 0.53100
C 	C 	0.63083 0.55207 0.05837 0.11300
N 	N 	0.54197 0.46319 0.78997 -0.16000
N 	N 	0.67850 0.59692 0.04457 -0.18500
C 	C 	0.60558 0.50110 0.91077 0.11600
N 	N 	0.64244 0.53827 0.85467 -0.16700
C 	C 	0.55563 0.46481 0.87937 -0.06500
H 	H 	0.53013 0.44017 0.92127 0.03400
C 	C 	0.62083 0.50237 0.00937 -0.26900
H 	H 	0.59193 0.47107 0.04127 0.09400
H 	H 	0.65343 0.49947 0.01257 0.08300
N 	N 	0.60211 0.59707 0.16097 -0.14600
C 	C 	0.57853 0.50017 0.73517 -0.00400
H 	H 	0.57023 0.50017 0.67207 0.00600
C 	C 	0.59303 0.55297 0.11597 -0.06000
H 	H 	0.55973 0.52127 0.12377 0.03600
C 	C 	0.62753 0.53797 0.76607 -0.00300
H 	H 	0.65163 0.56467 0.72497 0.02100
C 	C 	0.64993 0.64037 0.14827 -0.01300
H 	H 	0.65843 0.67197 0.18087 0.02400
C 	C 	0.68713 0.64047 0.08917 0.00900
H 	H 	0.71993 0.67267 0.08007 0.00500
Ag	Ag	0.06353 0.46187 0.25676 0.53100
C 	C 	0.11460 0.41210 0.39170 0.11300
N 	N 	0.20348 0.41212 0.12330 -0.16000
N 	N 	0.06975 0.41492 0.37790 -0.18500
C 	C 	0.16557 0.43782 0.24410 0.11600
N 	N 	0.12840 0.43751 0.18800 -0.16700
C 	C 	0.20186 0.42416 0.21270 -0.06500
H 	H 	0.22650 0.42330 0.25460 0.03400
C 	C 	0.16430 0.45180 0.34270 -0.26900
H 	H 	0.19560 0.45420 0.37460 0.09400
H 	H 	0.16720 0.48730 0.34590 0.08300
N 	N 	0.06960 0.33838 0.49430 -0.14600
C 	C 	0.16650 0.41170 0.06850 -0.00400
H 	H 	0.16650 0.40340 0.00540 0.00600
C 	C 	0.11370 0.37340 0.44930 -0.06000
H 	H 	0.14540 0.37180 0.45710 0.03600
C 	C 	0.12870 0.42290 0.09940 -0.00300
H 	H 	0.10200 0.42030 0.05830 0.02100
C 	C 	0.02630 0.34290 0.48160 -0.01300
H 	H 	0.99470 0.31980 0.51420 0.02400
C 	C 	0.02620 0.38000 0.42250 0.00900
H 	H 	0.99400 0.38060 0.41340 0.00500
Ag	Ag	0.73020 0.79520 0.59009 0.53100
C 	C 	0.78127 0.74543 0.72503 0.11300
N 	N 	0.87015 0.74545 0.45663 -0.16000
N 	N 	0.73642 0.74825 0.71123 -0.18500
C 	C 	0.83224 0.77115 0.57743 0.11600
N 	N 	0.79507 0.77084 0.52133 -0.16700
C 	C 	0.86853 0.75749 0.54603 -0.06500
H 	H 	0.89317 0.75663 0.58793 0.03400
C 	C 	0.83097 0.78513 0.67603 -0.26900
H 	H 	0.86227 0.78753 0.70793 0.09400
H 	H 	0.83387 0.82063 0.67923 0.08300
N 	N 	0.73627 0.67171 0.82763 -0.14600
C 	C 	0.83317 0.74503 0.40183 -0.00400
H 	H 	0.83317 0.73673 0.33873 0.00600
C 	C 	0.78037 0.70673 0.78263 -0.06000
H 	H 	0.81207 0.70513 0.79043 0.03600
C 	C 	0.79537 0.75623 0.43273 -0.00300
H 	H 	0.76867 0.75363 0.39163 0.02100
C 	C 	0.69297 0.67623 0.81493 -0.01300
H 	H 	0.66137 0.65313 0.84753 0.02400
C 	C 	0.69287 0.71333 0.75583 0.00900
H 	H 	0.66067 0.71393 0.74673 0.00500
Ag	Ag	0.39686 0.12854 0.92343 0.53000
C 	C 	0.44793 0.07877 0.05837 0.11300
N 	N 	0.53681 0.07879 0.78997 -0.16000
N 	N 	0.40308 0.08159 0.04457 -0.18500
C 	C 	0.49890 0.10449 0.91077 0.11500
N 	N 	0.46173 0.10418 0.85467 -0.16700
C 	C 	0.53519 0.09083 0.87937 -0.06500
H 	H 	0.55983 0.08997 0.92127 0.03400
C 	C 	0.49763 0.11847 0.00937 -0.26800
H 	H 	0.52893 0.12087 0.04127 0.09400
H 	H 	0.50053 0.15397 0.01257 0.08300
N 	N 	0.40293 0.00505 0.16097 -0.14600
C 	C 	0.49983 0.07837 0.73517 -0.00400
H 	H 	0.49983 0.07007 0.67207 0.00600
C 	C 	0.44703 0.04007 0.11597 -0.06000
H 	H 	0.47873 0.03847 0.12377 0.03600
C 	C 	0.46203 0.08957 0.76607 -0.00300
H 	H 	0.43533 0.08697 0.72497 0.02100
C 	C 	0.35963 0.00957 0.14827 -0.01200
H 	H 	0.32803 0.98647 0.18087 0.02300
C 	C 	0.35953 0.04667 0.08917 0.00900
H 	H 	0.32733 0.04727 0.08007 0.00500
Ag	Ag	0.53813 0.60166 0.25676 0.53100
C 	C 	0.58790 0.70250 0.39170 0.11300
N 	N 	0.58788 0.79136 0.12330 -0.16000
N 	N 	0.58508 0.65483 0.37790 -0.18500
C 	C 	0.56218 0.72775 0.24410 0.11600
N 	N 	0.56249 0.69089 0.18800 -0.16700
C 	C 	0.57584 0.77770 0.21270 -0.06500
H 	H 	0.57670 0.80320 0.25460 0.03400
C 	C 	0.54820 0.71250 0.34270 -0.26900
H 	H 	0.54580 0.74140 0.37460 0.09400
H 	H 	0.51270 0.67990 0.34590 0.08300
N 	N 	0.66162 0.73122 0.49430 -0.14600
C 	C 	0.58830 0.75480 0.06850 -0.00400
H 	H 	0.59660 0.76310 0.00540 0.00600
C 	C 	0.62660 0.74030 0.44930 -0.06000
H 	H 	0.62820 0.77360 0.45710 0.03600
C 	C 	0.57710 0.70580 0.09940 -0.00300
H 	H 	0.57970 0.68170 0.05830 0.02100
C 	C 	0.65710 0.68340 0.48160 -0.01300
H 	H 	0.68020 0.67490 0.51420 0.02400
C 	C 	0.62000 0.64620 0.42250 0.00900
H 	H 	0.61940 0.61340 0.41340 0.00500
Ag	Ag	0.20480 0.93499 0.59009 0.53100
C 	C 	0.25457 0.03583 0.72503 0.11300
N 	N 	0.25455 0.12469 0.45663 -0.16000
N 	N 	0.25175 0.98816 0.71123 -0.18500
C 	C 	0.22885 0.06108 0.57743 0.11600
N 	N 	0.22916 0.02422 0.52133 -0.16700
C 	C 	0.24251 0.11103 0.54603 -0.06500
H 	H 	0.24337 0.13653 0.58793 0.03400
C 	C 	0.21487 0.04583 0.67603 -0.26900
H 	H 	0.21247 0.07473 0.70793 0.09400
H 	H 	0.17937 0.01323 0.67923 0.08300
N 	N 	0.32829 0.06455 0.82763 -0.14600
C 	C 	0.25497 0.08813 0.40183 -0.00400
H 	H 	0.26327 0.09643 0.33873 0.00600
C 	C 	0.29327 0.07363 0.78263 -0.06000
H 	H 	0.29487 0.10693 0.79043 0.03600
C 	C 	0.24377 0.03913 0.43273 -0.00300
H 	H 	0.24637 0.01503 0.39163 0.02100
C 	C 	0.32377 0.01673 0.81493 -0.01400
H 	H 	0.34687 0.00823 0.84753 0.02400
C 	C 	0.28667 0.97953 0.75583 0.01000
H 	H 	0.28607 0.94673 0.74673 0.00500
Ag	Ag	0.87146 0.26833 0.92343 0.53000
C 	C 	0.92123 0.36917 0.05837 0.11300
N 	N 	0.92121 0.45803 0.78997 -0.16000
N 	N 	0.91841 0.32150 0.04457 -0.18500
C 	C 	0.89551 0.39442 0.91077 0.11500
N 	N 	0.89582 0.35756 0.85467 -0.16700
C 	C 	0.90917 0.44437 0.87937 -0.06500
H 	H 	0.91003 0.46987 0.92127 0.03400
C 	C 	0.88153 0.37917 0.00937 -0.26800
H 	H 	0.87913 0.40807 0.04127 0.09400
H 	H 	0.84603 0.34657 0.01257 0.08300
N 	N 	0.99495 0.39789 0.16097 -0.14600
C 	C 	0.92163 0.42147 0.73517 -0.00400
H 	H 	0.92993 0.42977 0.67207 0.00600
C 	C 	0.95993 0.40697 0.11597 -0.06000
H 	H 	0.96153 0.44027 0.12377 0.03600
C 	C 	0.91043 0.37247 0.76607 -0.00300
H 	H 	0.91303 0.34837 0.72497 0.02100
C 	C 	0.99043 0.35007 0.14827 -0.01200
H 	H 	0.01353 0.34157 0.18087 0.02300
C 	C 	0.95333 0.31287 0.08917 0.00900
H 	H 	0.95273 0.28007 0.08007 0.00500
