data_crystal

_cell_length_a 29.46450
_cell_length_b 29.46450
_cell_length_c 14.26320
_cell_angle_alpha 90.00000
_cell_angle_beta  90.00000
_cell_angle_gamma 120.00000

_symmetry_space_group_name_	'P 1'
_symmetry_space_group_name_H-M	'P 1'

loop_
_symmetry_equiv_pos_as_xyz
  x,y,z

loop_
_atom_site_label
_atom_site_type_symbol
_atom_site_fract_x
_atom_site_fract_y
_atom_site_fract_z
_atom_site_charge
Ag	Ag	0.46208 0.07037 0.74835 0.53100
C 	C 	0.44910 0.16430 0.65530 -0.27500
H 	H 	0.48340 0.16630 0.64630 0.08200
H 	H 	0.44990 0.19390 0.62100 0.09500
N 	N 	0.44840 0.13950 0.81680 -0.17500
C 	C 	0.44090 0.16900 0.75670 0.11900
C 	C 	0.42650 0.20530 0.78910 -0.06100
H 	H 	0.42010 0.22540 0.74450 0.03100
N 	N 	0.42150 0.21230 0.88020 -0.16100
C 	C 	0.42860 0.18140 0.93910 -0.00900
H 	H 	0.42410 0.18420 0.00440 0.00700
C 	C 	0.44220 0.14530 0.90780 0.00500
H 	H 	0.44730 0.12420 0.95220 0.01400
N 	N 	0.40580 0.06920 0.63780 -0.18900
C 	C 	0.40630 0.11310 0.61520 0.11300
C 	C 	0.36770 0.11140 0.55530 -0.05800
H 	H 	0.36790 0.14300 0.54120 0.03300
N 	N 	0.33090 0.06700 0.51780 -0.14600
C 	C 	0.33020 0.02300 0.54330 -0.01700
H 	H 	0.30340 0.99020 0.52040 0.02300
C 	C 	0.36800 0.02490 0.60260 0.01300
H 	H 	0.36690 0.99310 0.61880 0.00600
Ag	Ag	0.12875 0.40370 0.08168 0.53200
C 	C 	0.11577 0.49763 0.98863 -0.27400
H 	H 	0.15007 0.49963 0.97963 0.08300
H 	H 	0.11657 0.52723 0.95433 0.09600
N 	N 	0.11507 0.47283 0.15013 -0.17400
C 	C 	0.10757 0.50233 0.09003 0.12000
C 	C 	0.09317 0.53863 0.12243 -0.06000
H 	H 	0.08677 0.55873 0.07783 0.03200
N 	N 	0.08817 0.54563 0.21353 -0.16000
C 	C 	0.09527 0.51473 0.27243 -0.00800
H 	H 	0.09077 0.51753 0.33773 0.00800
C 	C 	0.10887 0.47863 0.24113 0.00600
H 	H 	0.11397 0.45753 0.28553 0.01500
N 	N 	0.07247 0.40253 0.97113 -0.18800
C 	C 	0.07297 0.44643 0.94853 0.11400
C 	C 	0.03437 0.44473 0.88863 -0.05700
H 	H 	0.03457 0.47633 0.87453 0.03400
N 	N 	0.99757 0.40033 0.85113 -0.14500
C 	C 	0.99687 0.35633 0.87663 -0.01700
H 	H 	0.97007 0.32353 0.85373 0.02400
C 	C 	0.03467 0.35823 0.93593 0.01400
H 	H 	0.03357 0.32643 0.95213 0.00500
Ag	Ag	0.79541 0.73704 0.41502 0.53200
C 	C 	0.78243 0.83097 0.32197 -0.27400
H 	H 	0.81673 0.83297 0.31297 0.08300
H 	H 	0.78323 0.86057 0.28767 0.09600
N 	N 	0.78173 0.80617 0.48347 -0.17400
C 	C 	0.77423 0.83567 0.42337 0.12000
C 	C 	0.75983 0.87197 0.45577 -0.06000
H 	H 	0.75343 0.89207 0.41117 0.03200
N 	N 	0.75483 0.87897 0.54687 -0.16000
C 	C 	0.76193 0.84807 0.60577 -0.00800
H 	H 	0.75743 0.85087 0.67107 0.00800
C 	C 	0.77553 0.81197 0.57447 0.00600
H 	H 	0.78063 0.79087 0.61887 0.01500
N 	N 	0.73913 0.73587 0.30447 -0.18800
C 	C 	0.73963 0.77977 0.28187 0.11400
C 	C 	0.70103 0.77807 0.22197 -0.05700
H 	H 	0.70123 0.80967 0.20787 0.03400
N 	N 	0.66423 0.73367 0.18447 -0.14500
C 	C 	0.66353 0.68967 0.20997 -0.01600
H 	H 	0.63673 0.65687 0.18707 0.02400
C 	C 	0.70133 0.69157 0.26927 0.01400
H 	H 	0.70023 0.65977 0.28547 0.00600
Ag	Ag	0.92963 0.39171 0.74835 0.53200
C 	C 	0.83570 0.28480 0.65530 -0.27400
H 	H 	0.83370 0.31710 0.64630 0.08300
H 	H 	0.80610 0.25600 0.62100 0.09600
N 	N 	0.86050 0.30890 0.81680 -0.17400
C 	C 	0.83100 0.27190 0.75670 0.12000
C 	C 	0.79470 0.22120 0.78910 -0.06000
H 	H 	0.77460 0.19470 0.74450 0.03200
N 	N 	0.78770 0.20920 0.88020 -0.16000
C 	C 	0.81860 0.24720 0.93910 -0.00900
H 	H 	0.81580 0.23990 0.00440 0.00900
C 	C 	0.85470 0.29690 0.90780 0.00600
H 	H 	0.87580 0.32310 0.95220 0.01500
N 	N 	0.93080 0.33660 0.63780 -0.18800
C 	C 	0.88690 0.29320 0.61520 0.11400
C 	C 	0.88860 0.25630 0.55530 -0.05700
H 	H 	0.85700 0.22490 0.54120 0.03400
N 	N 	0.93300 0.26390 0.51780 -0.14500
C 	C 	0.97700 0.30720 0.54330 -0.01600
H 	H 	0.00980 0.31320 0.52040 0.02400
C 	C 	0.97510 0.34310 0.60260 0.01300
H 	H 	0.00690 0.37380 0.61880 0.00600
Ag	Ag	0.59630 0.72504 0.08168 0.53200
C 	C 	0.50237 0.61813 0.98863 -0.27400
H 	H 	0.50037 0.65043 0.97963 0.08300
H 	H 	0.47277 0.58933 0.95433 0.09600
N 	N 	0.52717 0.64223 0.15013 -0.17400
C 	C 	0.49767 0.60523 0.09003 0.12000
C 	C 	0.46137 0.55453 0.12243 -0.06000
H 	H 	0.44127 0.52803 0.07783 0.03200
N 	N 	0.45437 0.54253 0.21353 -0.16000
C 	C 	0.48527 0.58053 0.27243 -0.00800
H 	H 	0.48247 0.57323 0.33773 0.00800
C 	C 	0.52137 0.63023 0.24113 0.00600
H 	H 	0.54247 0.65643 0.28553 0.01500
N 	N 	0.59747 0.66993 0.97113 -0.18800
C 	C 	0.55357 0.62653 0.94853 0.11400
C 	C 	0.55527 0.58963 0.88863 -0.05700
H 	H 	0.52367 0.55823 0.87453 0.03400
N 	N 	0.59967 0.59723 0.85113 -0.14500
C 	C 	0.64367 0.64053 0.87663 -0.01600
H 	H 	0.67647 0.64653 0.85373 0.02400
C 	C 	0.64177 0.67643 0.93593 0.01400
H 	H 	0.67357 0.70713 0.95213 0.00600
Ag	Ag	0.26296 0.05838 0.41502 0.53200
C 	C 	0.16903 0.95147 0.32197 -0.27400
H 	H 	0.16703 0.98377 0.31297 0.08300
H 	H 	0.13943 0.92267 0.28767 0.09500
N 	N 	0.19383 0.97557 0.48347 -0.17400
C 	C 	0.16433 0.93857 0.42337 0.12000
C 	C 	0.12803 0.88787 0.45577 -0.06000
H 	H 	0.10793 0.86137 0.41117 0.03200
N 	N 	0.12103 0.87587 0.54687 -0.16000
C 	C 	0.15193 0.91387 0.60577 -0.00800
H 	H 	0.14913 0.90657 0.67107 0.00800
C 	C 	0.18803 0.96357 0.57447 0.00600
H 	H 	0.20913 0.98977 0.61887 0.01500
N 	N 	0.26413 0.00327 0.30447 -0.18800
C 	C 	0.22023 0.95987 0.28187 0.11300
C 	C 	0.22193 0.92297 0.22197 -0.05700
H 	H 	0.19033 0.89157 0.20787 0.03400
N 	N 	0.26633 0.93057 0.18447 -0.14500
C 	C 	0.31033 0.97387 0.20997 -0.01700
H 	H 	0.34313 0.97987 0.18707 0.02400
C 	C 	0.30843 0.00977 0.26927 0.01400
H 	H 	0.34023 0.04047 0.28547 0.00500
Ag	Ag	0.60829 0.53792 0.74835 0.53200
C 	C 	0.71520 0.55090 0.65530 -0.27400
H 	H 	0.68290 0.51660 0.64630 0.08300
H 	H 	0.74400 0.55010 0.62100 0.09600
N 	N 	0.69110 0.55160 0.81680 -0.17400
C 	C 	0.72810 0.55910 0.75670 0.12000
C 	C 	0.77880 0.57350 0.78910 -0.06000
H 	H 	0.80530 0.57990 0.74450 0.03200
N 	N 	0.79080 0.57850 0.88020 -0.16000
C 	C 	0.75280 0.57140 0.93910 -0.00800
H 	H 	0.76010 0.57590 0.00440 0.00800
C 	C 	0.70310 0.55780 0.90780 0.00600
H 	H 	0.67690 0.55270 0.95220 0.01500
N 	N 	0.66340 0.59420 0.63780 -0.18800
C 	C 	0.70680 0.59370 0.61520 0.11400
C 	C 	0.74370 0.63230 0.55530 -0.05700
H 	H 	0.77510 0.63210 0.54120 0.03400
N 	N 	0.73610 0.66910 0.51780 -0.14500
C 	C 	0.69280 0.66980 0.54330 -0.01600
H 	H 	0.68680 0.69660 0.52040 0.02400
C 	C 	0.65690 0.63200 0.60260 0.01400
H 	H 	0.62620 0.63310 0.61880 0.00600
Ag	Ag	0.27496 0.87125 0.08168 0.53200
C 	C 	0.38187 0.88423 0.98863 -0.27300
H 	H 	0.34957 0.84993 0.97963 0.08300
H 	H 	0.41067 0.88343 0.95433 0.09600
N 	N 	0.35777 0.88493 0.15013 -0.17400
C 	C 	0.39477 0.89243 0.09003 0.12000
C 	C 	0.44547 0.90683 0.12243 -0.06000
H 	H 	0.47197 0.91323 0.07783 0.03200
N 	N 	0.45747 0.91183 0.21353 -0.16000
C 	C 	0.41947 0.90473 0.27243 -0.00800
H 	H 	0.42677 0.90923 0.33773 0.00800
C 	C 	0.36977 0.89113 0.24113 0.00500
H 	H 	0.34357 0.88603 0.28553 0.01500
N 	N 	0.33007 0.92753 0.97113 -0.18700
C 	C 	0.37347 0.92703 0.94853 0.11400
C 	C 	0.41037 0.96563 0.88863 -0.05700
H 	H 	0.44177 0.96543 0.87453 0.03400
N 	N 	0.40277 0.00243 0.85113 -0.14500
C 	C 	0.35947 0.00313 0.87663 -0.01700
H 	H 	0.35347 0.02993 0.85373 0.02400
C 	C 	0.32357 0.96533 0.93593 0.01400
H 	H 	0.29287 0.96643 0.95213 0.00600
Ag	Ag	0.94162 0.20459 0.41502 0.53200
C 	C 	0.04853 0.21757 0.32197 -0.27400
H 	H 	0.01623 0.18327 0.31297 0.08300
H 	H 	0.07733 0.21677 0.28767 0.09600
N 	N 	0.02443 0.21827 0.48347 -0.17400
C 	C 	0.06143 0.22577 0.42337 0.12000
C 	C 	0.11213 0.24017 0.45577 -0.06000
H 	H 	0.13863 0.24657 0.41117 0.03200
N 	N 	0.12413 0.24517 0.54687 -0.16000
C 	C 	0.08613 0.23807 0.60577 -0.00800
H 	H 	0.09343 0.24257 0.67107 0.00800
C 	C 	0.03643 0.22447 0.57447 0.00600
H 	H 	0.01023 0.21937 0.61887 0.01500
N 	N 	0.99673 0.26087 0.30447 -0.18800
C 	C 	0.04013 0.26037 0.28187 0.11400
C 	C 	0.07703 0.29897 0.22197 -0.05700
H 	H 	0.10843 0.29877 0.20787 0.03400
N 	N 	0.06943 0.33577 0.18447 -0.14500
C 	C 	0.02613 0.33647 0.20997 -0.01600
H 	H 	0.02013 0.36327 0.18707 0.02400
C 	C 	0.99023 0.29867 0.26927 0.01400
H 	H 	0.95953 0.29977 0.28547 0.00600
Ag	Ag	0.53792 0.92963 0.25165 0.53200
C 	C 	0.55090 0.83570 0.34470 -0.27400
H 	H 	0.51660 0.83370 0.35370 0.08300
H 	H 	0.55010 0.80610 0.37900 0.09600
N 	N 	0.55160 0.86050 0.18320 -0.17400
C 	C 	0.55910 0.83100 0.24330 0.12000
C 	C 	0.57350 0.79470 0.21090 -0.06000
H 	H 	0.57990 0.77460 0.25550 0.03200
N 	N 	0.57850 0.78770 0.11980 -0.16000
C 	C 	0.57140 0.81860 0.06090 -0.00800
H 	H 	0.57590 0.81580 0.99560 0.00800
C 	C 	0.55780 0.85470 0.09220 0.00600
H 	H 	0.55270 0.87580 0.04780 0.01500
N 	N 	0.59420 0.93080 0.36220 -0.18800
C 	C 	0.59370 0.88690 0.38480 0.11400
C 	C 	0.63230 0.88860 0.44470 -0.05700
H 	H 	0.63210 0.85700 0.45880 0.03400
N 	N 	0.66910 0.93300 0.48220 -0.14500
C 	C 	0.66980 0.97700 0.45670 -0.01600
H 	H 	0.69660 0.00980 0.47960 0.02400
C 	C 	0.63200 0.97510 0.39740 0.01300
H 	H 	0.63310 0.00690 0.38120 0.00600
Ag	Ag	0.20459 0.26296 0.58498 0.53200
C 	C 	0.21757 0.16903 0.67803 -0.27400
H 	H 	0.18327 0.16703 0.68703 0.08300
H 	H 	0.21677 0.13943 0.71233 0.09600
N 	N 	0.21827 0.19383 0.51653 -0.17400
C 	C 	0.22577 0.16433 0.57663 0.12000
C 	C 	0.24017 0.12803 0.54423 -0.06000
H 	H 	0.24657 0.10793 0.58883 0.03200
N 	N 	0.24517 0.12103 0.45313 -0.16000
C 	C 	0.23807 0.15193 0.39423 -0.00800
H 	H 	0.24257 0.14913 0.32893 0.00800
C 	C 	0.22447 0.18803 0.42553 0.00600
H 	H 	0.21937 0.20913 0.38113 0.01500
N 	N 	0.26087 0.26413 0.69553 -0.18800
C 	C 	0.26037 0.22023 0.71813 0.11400
C 	C 	0.29897 0.22193 0.77803 -0.05700
H 	H 	0.29877 0.19033 0.79213 0.03400
N 	N 	0.33577 0.26633 0.81553 -0.14500
C 	C 	0.33647 0.31033 0.79003 -0.01600
H 	H 	0.36327 0.34313 0.81293 0.02400
C 	C 	0.29867 0.30843 0.73073 0.01400
H 	H 	0.29977 0.34023 0.71453 0.00600
Ag	Ag	0.87125 0.59630 0.91832 0.53200
C 	C 	0.88423 0.50237 0.01137 -0.27400
H 	H 	0.84993 0.50037 0.02037 0.08300
H 	H 	0.88343 0.47277 0.04567 0.09600
N 	N 	0.88493 0.52717 0.84987 -0.17400
C 	C 	0.89243 0.49767 0.90997 0.12000
C 	C 	0.90683 0.46137 0.87757 -0.06000
H 	H 	0.91323 0.44127 0.92217 0.03200
N 	N 	0.91183 0.45437 0.78647 -0.16000
C 	C 	0.90473 0.48527 0.72757 -0.00800
H 	H 	0.90923 0.48247 0.66227 0.00800
C 	C 	0.89113 0.52137 0.75887 0.00600
H 	H 	0.88603 0.54247 0.71447 0.01500
N 	N 	0.92753 0.59747 0.02887 -0.18800
C 	C 	0.92703 0.55357 0.05147 0.11400
C 	C 	0.96563 0.55527 0.11137 -0.05700
H 	H 	0.96543 0.52367 0.12547 0.03400
N 	N 	0.00243 0.59967 0.14887 -0.14500
C 	C 	0.00313 0.64367 0.12337 -0.01700
H 	H 	0.02993 0.67647 0.14627 0.02400
C 	C 	0.96533 0.64177 0.06407 0.01400
H 	H 	0.96643 0.67357 0.04787 0.00500
Ag	Ag	0.07037 0.60829 0.25165 0.53200
C 	C 	0.16430 0.71520 0.34470 -0.27400
H 	H 	0.16630 0.68290 0.35370 0.08300
H 	H 	0.19390 0.74400 0.37900 0.09600
N 	N 	0.13950 0.69110 0.18320 -0.17400
C 	C 	0.16900 0.72810 0.24330 0.12000
C 	C 	0.20530 0.77880 0.21090 -0.06000
H 	H 	0.22540 0.80530 0.25550 0.03200
N 	N 	0.21230 0.79080 0.11980 -0.16000
C 	C 	0.18140 0.75280 0.06090 -0.00900
H 	H 	0.18420 0.76010 0.99560 0.00900
C 	C 	0.14530 0.70310 0.09220 0.00600
H 	H 	0.12420 0.67690 0.04780 0.01500
N 	N 	0.06920 0.66340 0.36220 -0.18800
C 	C 	0.11310 0.70680 0.38480 0.11400
C 	C 	0.11140 0.74370 0.44470 -0.05700
H 	H 	0.14300 0.77510 0.45880 0.03400
N 	N 	0.06700 0.73610 0.48220 -0.14500
C 	C 	0.02300 0.69280 0.45670 -0.01600
H 	H 	0.99020 0.68680 0.47960 0.02400
C 	C 	0.02490 0.65690 0.39740 0.01300
H 	H 	0.99310 0.62620 0.38120 0.00600
Ag	Ag	0.73704 0.94162 0.58498 0.53200
C 	C 	0.83097 0.04853 0.67803 -0.27400
H 	H 	0.83297 0.01623 0.68703 0.08300
H 	H 	0.86057 0.07733 0.71233 0.09500
N 	N 	0.80617 0.02443 0.51653 -0.17400
C 	C 	0.83567 0.06143 0.57663 0.12000
C 	C 	0.87197 0.11213 0.54423 -0.06000
H 	H 	0.89207 0.13863 0.58883 0.03200
N 	N 	0.87897 0.12413 0.45313 -0.16000
C 	C 	0.84807 0.08613 0.39423 -0.00800
H 	H 	0.85087 0.09343 0.32893 0.00800
C 	C 	0.81197 0.03643 0.42553 0.00600
H 	H 	0.79087 0.01023 0.38113 0.01500
N 	N 	0.73587 0.99673 0.69553 -0.18800
C 	C 	0.77977 0.04013 0.71813 0.11300
C 	C 	0.77807 0.07703 0.77803 -0.05700
H 	H 	0.80967 0.10843 0.79213 0.03400
N 	N 	0.73367 0.06943 0.81553 -0.14500
C 	C 	0.68967 0.02613 0.79003 -0.01700
H 	H 	0.65687 0.02013 0.81293 0.02400
C 	C 	0.69157 0.99023 0.73073 0.01400
H 	H 	0.65977 0.95953 0.71453 0.00500
Ag	Ag	0.40370 0.27496 0.91832 0.53200
C 	C 	0.49763 0.38187 0.01137 -0.27400
H 	H 	0.49963 0.34957 0.02037 0.08300
H 	H 	0.52723 0.41067 0.04567 0.09600
N 	N 	0.47283 0.35777 0.84987 -0.17400
C 	C 	0.50233 0.39477 0.90997 0.12000
C 	C 	0.53863 0.44547 0.87757 -0.06000
H 	H 	0.55873 0.47197 0.92217 0.03200
N 	N 	0.54563 0.45747 0.78647 -0.16000
C 	C 	0.51473 0.41947 0.72757 -0.00800
H 	H 	0.51753 0.42677 0.66227 0.00800
C 	C 	0.47863 0.36977 0.75887 0.00600
H 	H 	0.45753 0.34357 0.71447 0.01500
N 	N 	0.40253 0.33007 0.02887 -0.18800
C 	C 	0.44643 0.37347 0.05147 0.11400
C 	C 	0.44473 0.41037 0.11137 -0.05700
H 	H 	0.47633 0.44177 0.12547 0.03400
N 	N 	0.40033 0.40277 0.14887 -0.14500
C 	C 	0.35633 0.35947 0.12337 -0.01600
H 	H 	0.32353 0.35347 0.14627 0.02400
C 	C 	0.35823 0.32357 0.06407 0.01400
H 	H 	0.32643 0.29287 0.04787 0.00600
Ag	Ag	0.39171 0.46208 0.25165 0.53200
C 	C 	0.28480 0.44910 0.34470 -0.27400
H 	H 	0.31710 0.48340 0.35370 0.08300
H 	H 	0.25600 0.44990 0.37900 0.09600
N 	N 	0.30890 0.44840 0.18320 -0.17400
C 	C 	0.27190 0.44090 0.24330 0.12000
C 	C 	0.22120 0.42650 0.21090 -0.06000
H 	H 	0.19470 0.42010 0.25550 0.03200
N 	N 	0.20920 0.42150 0.11980 -0.16000
C 	C 	0.24720 0.42860 0.06090 -0.00800
H 	H 	0.23990 0.42410 0.99560 0.00800
C 	C 	0.29690 0.44220 0.09220 0.00600
H 	H 	0.32310 0.44730 0.04780 0.01500
N 	N 	0.33660 0.40580 0.36220 -0.18800
C 	C 	0.29320 0.40630 0.38480 0.11400
C 	C 	0.25630 0.36770 0.44470 -0.05700
H 	H 	0.22490 0.36790 0.45880 0.03400
N 	N 	0.26390 0.33090 0.48220 -0.14500
C 	C 	0.30720 0.33020 0.45670 -0.01600
H 	H 	0.31320 0.30340 0.47960 0.02400
C 	C 	0.34310 0.36800 0.39740 0.01400
H 	H 	0.37380 0.36690 0.38120 0.00600
Ag	Ag	0.05838 0.79541 0.58498 0.53200
C 	C 	0.95147 0.78243 0.67803 -0.27400
H 	H 	0.98377 0.81673 0.68703 0.08300
H 	H 	0.92267 0.78323 0.71233 0.09600
N 	N 	0.97557 0.78173 0.51653 -0.17400
C 	C 	0.93857 0.77423 0.57663 0.12000
C 	C 	0.88787 0.75983 0.54423 -0.06000
H 	H 	0.86137 0.75343 0.58883 0.03200
N 	N 	0.87587 0.75483 0.45313 -0.16000
C 	C 	0.91387 0.76193 0.39423 -0.00800
H 	H 	0.90657 0.75743 0.32893 0.00800
C 	C 	0.96357 0.77553 0.42553 0.00600
H 	H 	0.98977 0.78063 0.38113 0.01500
N 	N 	0.00327 0.73913 0.69553 -0.18800
C 	C 	0.95987 0.73963 0.71813 0.11400
C 	C 	0.92297 0.70103 0.77803 -0.05700
H 	H 	0.89157 0.70123 0.79213 0.03400
N 	N 	0.93057 0.66423 0.81553 -0.14500
C 	C 	0.97387 0.66353 0.79003 -0.01600
H 	H 	0.97987 0.63673 0.81293 0.02400
C 	C 	0.00977 0.70133 0.73073 0.01400
H 	H 	0.04047 0.70023 0.71453 0.00600
Ag	Ag	0.72504 0.12875 0.91832 0.53200
C 	C 	0.61813 0.11577 0.01137 -0.27300
H 	H 	0.65043 0.15007 0.02037 0.08300
H 	H 	0.58933 0.11657 0.04567 0.09600
N 	N 	0.64223 0.11507 0.84987 -0.17400
C 	C 	0.60523 0.10757 0.90997 0.12000
C 	C 	0.55453 0.09317 0.87757 -0.06000
H 	H 	0.52803 0.08677 0.92217 0.03200
N 	N 	0.54253 0.08817 0.78647 -0.16000
C 	C 	0.58053 0.09527 0.72757 -0.00800
H 	H 	0.57323 0.09077 0.66227 0.00800
C 	C 	0.63023 0.10887 0.75887 0.00500
H 	H 	0.65643 0.11397 0.71447 0.01500
N 	N 	0.66993 0.07247 0.02887 -0.18700
C 	C 	0.62653 0.07297 0.05147 0.11400
C 	C 	0.58963 0.03437 0.11137 -0.05700
H 	H 	0.55823 0.03457 0.12547 0.03400
N 	N 	0.59723 0.99757 0.14887 -0.14500
C 	C 	0.64053 0.99687 0.12337 -0.01700
H 	H 	0.64653 0.97007 0.14627 0.02400
C 	C 	0.67643 0.03467 0.06407 0.01400
H 	H 	0.70713 0.03357 0.04787 0.00600
