data_crystal

_cell_length_a 28.91050
_cell_length_b 28.91050
_cell_length_c 14.38630
_cell_angle_alpha 90.00000
_cell_angle_beta  90.00000
_cell_angle_gamma 120.00000

_symmetry_space_group_name_	'P 1'
_symmetry_space_group_name_H-M	'P 1'

loop_
_symmetry_equiv_pos_as_xyz
  x,y,z

loop_
_atom_site_label
_atom_site_type_symbol
_atom_site_fract_x
_atom_site_fract_y
_atom_site_fract_z
_atom_site_charge
Ag	Ag	0.80207 0.06580 0.39295 0.52400
N 	N 	0.73293 0.99703 0.29810 -0.17600
C 	C 	0.76840 0.92660 0.60060 -0.01100
H 	H 	0.76500 0.92270 0.66620 0.00600
C 	C 	0.73800 0.95522 0.27140 0.10800
C 	C 	0.77775 0.94139 0.41570 0.11500
C 	C 	0.78267 0.94900 0.31210 -0.26400
H 	H 	0.78240 0.91780 0.28310 0.09200
H 	H 	0.81730 0.98110 0.29730 0.07900
C 	C 	0.75820 0.89128 0.45550 -0.05800
H 	H 	0.74720 0.86120 0.41600 0.03600
N 	N 	0.79250 0.98433 0.46850 -0.17100
C 	C 	0.65870 0.96590 0.19720 -0.01300
H 	H 	0.63110 0.97080 0.17230 0.02500
N 	N 	0.75429 0.88383 0.54720 -0.15500
C 	C 	0.70230 0.91860 0.20710 -0.05900
H 	H 	0.70610 0.88890 0.18990 0.03300
C 	C 	0.78790 0.97650 0.56100 0.00500
H 	H 	0.79840 0.00640 0.60060 0.01600
N 	N 	0.66270 0.92398 0.16880 -0.14600
C 	C 	0.69350 0.00230 0.26160 0.00700
H 	H 	0.68910 0.03140 0.28000 0.00800
Ag	Ag	0.46874 0.39913 0.72628 0.52300
N 	N 	0.39960 0.33036 0.63143 -0.17700
C 	C 	0.43507 0.25993 0.93393 -0.01000
H 	H 	0.43167 0.25603 0.99953 0.00600
C 	C 	0.40467 0.28855 0.60473 0.10800
C 	C 	0.44442 0.27472 0.74903 0.11500
C 	C 	0.44934 0.28233 0.64543 -0.26400
H 	H 	0.44907 0.25113 0.61643 0.09200
H 	H 	0.48397 0.31443 0.63063 0.07900
C 	C 	0.42487 0.22461 0.78883 -0.05800
H 	H 	0.41387 0.19453 0.74933 0.03600
N 	N 	0.45917 0.31766 0.80183 -0.17100
C 	C 	0.32537 0.29923 0.53053 -0.01300
H 	H 	0.29777 0.30413 0.50563 0.02500
N 	N 	0.42096 0.21716 0.88053 -0.15500
C 	C 	0.36897 0.25193 0.54043 -0.05900
H 	H 	0.37277 0.22223 0.52323 0.03300
C 	C 	0.45457 0.30983 0.89433 0.00500
H 	H 	0.46507 0.33973 0.93393 0.01600
N 	N 	0.32937 0.25731 0.50213 -0.14600
C 	C 	0.36017 0.33563 0.59493 0.00600
H 	H 	0.35577 0.36473 0.61333 0.00800
Ag	Ag	0.13540 0.73247 0.05962 0.52300
N 	N 	0.06626 0.66370 0.96477 -0.17700
C 	C 	0.10173 0.59327 0.26727 -0.01000
H 	H 	0.09833 0.58937 0.33287 0.00600
C 	C 	0.07133 0.62189 0.93807 0.10800
C 	C 	0.11108 0.60806 0.08237 0.11500
C 	C 	0.11600 0.61567 0.97877 -0.26300
H 	H 	0.11573 0.58447 0.94977 0.09200
H 	H 	0.15063 0.64777 0.96397 0.07900
C 	C 	0.09153 0.55795 0.12217 -0.05800
H 	H 	0.08053 0.52787 0.08267 0.03600
N 	N 	0.12583 0.65100 0.13517 -0.17100
C 	C 	0.99203 0.63257 0.86387 -0.01300
H 	H 	0.96443 0.63747 0.83897 0.02500
N 	N 	0.08762 0.55050 0.21387 -0.15500
C 	C 	0.03563 0.58527 0.87377 -0.05800
H 	H 	0.03943 0.55557 0.85657 0.03300
C 	C 	0.12123 0.64317 0.22767 0.00500
H 	H 	0.13173 0.67307 0.26727 0.01600
N 	N 	0.99603 0.59065 0.83547 -0.14600
C 	C 	0.02683 0.66897 0.92827 0.00700
H 	H 	0.02243 0.69807 0.94667 0.00800
Ag	Ag	0.93420 0.73627 0.39295 0.52300
N 	N 	0.00297 0.73590 0.29810 -0.17700
C 	C 	0.07340 0.84180 0.60060 -0.01000
H 	H 	0.07730 0.84230 0.66620 0.00600
C 	C 	0.04478 0.78278 0.27140 0.10800
C 	C 	0.05861 0.83636 0.41570 0.11500
C 	C 	0.05100 0.83367 0.31210 -0.26300
H 	H 	0.08220 0.86460 0.28310 0.09200
H 	H 	0.01890 0.83620 0.29730 0.07900
C 	C 	0.10872 0.86692 0.45550 -0.05800
H 	H 	0.13880 0.88600 0.41600 0.03600
N 	N 	0.01567 0.80817 0.46850 -0.17100
C 	C 	0.03410 0.69280 0.19720 -0.01300
H 	H 	0.02920 0.66030 0.17230 0.02500
N 	N 	0.11617 0.87046 0.54720 -0.15500
C 	C 	0.08140 0.78370 0.20710 -0.05900
H 	H 	0.11110 0.81720 0.18990 0.03300
C 	C 	0.02350 0.81140 0.56100 0.00500
H 	H 	0.99360 0.79200 0.60060 0.01600
N 	N 	0.07602 0.73872 0.16880 -0.14600
C 	C 	0.99770 0.69120 0.26160 0.00700
H 	H 	0.96860 0.65770 0.28000 0.00800
Ag	Ag	0.60087 0.06960 0.72628 0.52300
N 	N 	0.66964 0.06923 0.63143 -0.17700
C 	C 	0.74007 0.17513 0.93393 -0.01100
H 	H 	0.74397 0.17563 0.99953 0.00600
C 	C 	0.71145 0.11611 0.60473 0.10800
C 	C 	0.72528 0.16969 0.74903 0.11500
C 	C 	0.71767 0.16700 0.64543 -0.26400
H 	H 	0.74887 0.19793 0.61643 0.09200
H 	H 	0.68557 0.16953 0.63063 0.07900
C 	C 	0.77539 0.20025 0.78883 -0.05800
H 	H 	0.80547 0.21933 0.74933 0.03600
N 	N 	0.68234 0.14150 0.80183 -0.17100
C 	C 	0.70077 0.02613 0.53053 -0.01300
H 	H 	0.69587 0.99363 0.50563 0.02500
N 	N 	0.78284 0.20379 0.88053 -0.15500
C 	C 	0.74807 0.11703 0.54043 -0.05900
H 	H 	0.77777 0.15053 0.52323 0.03300
C 	C 	0.69017 0.14473 0.89433 0.00500
H 	H 	0.66027 0.12533 0.93393 0.01600
N 	N 	0.74269 0.07205 0.50213 -0.14600
C 	C 	0.66437 0.02453 0.59493 0.00600
H 	H 	0.63527 0.99103 0.61333 0.00800
Ag	Ag	0.26753 0.40294 0.05962 0.52300
N 	N 	0.33630 0.40257 0.96477 -0.17700
C 	C 	0.40673 0.50847 0.26727 -0.01000
H 	H 	0.41063 0.50897 0.33287 0.00600
C 	C 	0.37811 0.44945 0.93807 0.10800
C 	C 	0.39194 0.50303 0.08237 0.11500
C 	C 	0.38433 0.50034 0.97877 -0.26300
H 	H 	0.41553 0.53127 0.94977 0.09200
H 	H 	0.35223 0.50287 0.96397 0.07900
C 	C 	0.44205 0.53359 0.12217 -0.05800
H 	H 	0.47213 0.55267 0.08267 0.03600
N 	N 	0.34900 0.47484 0.13517 -0.17100
C 	C 	0.36743 0.35947 0.86387 -0.01300
H 	H 	0.36253 0.32697 0.83897 0.02500
N 	N 	0.44950 0.53713 0.21387 -0.15500
C 	C 	0.41473 0.45037 0.87377 -0.05900
H 	H 	0.44443 0.48387 0.85657 0.03300
C 	C 	0.35683 0.47807 0.22767 0.00500
H 	H 	0.32693 0.45867 0.26727 0.01600
N 	N 	0.40935 0.40539 0.83547 -0.14600
C 	C 	0.33103 0.35787 0.92827 0.00600
H 	H 	0.30193 0.32437 0.94667 0.00800
Ag	Ag	0.26373 0.19793 0.39295 0.52300
N 	N 	0.26410 0.26707 0.29810 -0.17700
C 	C 	0.15820 0.23160 0.60060 -0.01000
H 	H 	0.15770 0.23500 0.66620 0.00600
C 	C 	0.21722 0.26200 0.27140 0.10800
C 	C 	0.16364 0.22225 0.41570 0.11500
C 	C 	0.16633 0.21733 0.31210 -0.26400
H 	H 	0.13540 0.21760 0.28310 0.09200
H 	H 	0.16380 0.18270 0.29730 0.07900
C 	C 	0.13308 0.24180 0.45550 -0.05800
H 	H 	0.11400 0.25280 0.41600 0.03600
N 	N 	0.19183 0.20750 0.46850 -0.17100
C 	C 	0.30720 0.34130 0.19720 -0.01300
H 	H 	0.33970 0.36890 0.17230 0.02500
N 	N 	0.12954 0.24571 0.54720 -0.15500
C 	C 	0.21630 0.29770 0.20710 -0.05900
H 	H 	0.18280 0.29390 0.18990 0.03300
C 	C 	0.18860 0.21210 0.56100 0.00500
H 	H 	0.20800 0.20160 0.60060 0.01600
N 	N 	0.26128 0.33730 0.16880 -0.14600
C 	C 	0.30880 0.30650 0.26160 0.00600
H 	H 	0.34230 0.31090 0.28000 0.00800
Ag	Ag	0.93040 0.53126 0.72628 0.52300
N 	N 	0.93077 0.60040 0.63143 -0.17700
C 	C 	0.82487 0.56493 0.93393 -0.01000
H 	H 	0.82437 0.56833 0.99953 0.00600
C 	C 	0.88389 0.59533 0.60473 0.10800
C 	C 	0.83031 0.55558 0.74903 0.11500
C 	C 	0.83300 0.55066 0.64543 -0.26400
H 	H 	0.80207 0.55093 0.61643 0.09200
H 	H 	0.83047 0.51603 0.63063 0.07900
C 	C 	0.79975 0.57513 0.78883 -0.05800
H 	H 	0.78067 0.58613 0.74933 0.03600
N 	N 	0.85850 0.54083 0.80183 -0.17100
C 	C 	0.97387 0.67463 0.53053 -0.01300
H 	H 	0.00637 0.70223 0.50563 0.02500
N 	N 	0.79621 0.57904 0.88053 -0.15500
C 	C 	0.88297 0.63103 0.54043 -0.05900
H 	H 	0.84947 0.62723 0.52323 0.03300
C 	C 	0.85527 0.54543 0.89433 0.00500
H 	H 	0.87467 0.53493 0.93393 0.01600
N 	N 	0.92795 0.67063 0.50213 -0.14600
C 	C 	0.97547 0.63983 0.59493 0.00600
H 	H 	0.00897 0.64423 0.61333 0.00800
Ag	Ag	0.59706 0.86460 0.05962 0.52300
N 	N 	0.59743 0.93374 0.96477 -0.17700
C 	C 	0.49153 0.89827 0.26727 -0.01000
H 	H 	0.49103 0.90167 0.33287 0.00600
C 	C 	0.55055 0.92867 0.93807 0.10800
C 	C 	0.49697 0.88892 0.08237 0.11500
C 	C 	0.49966 0.88400 0.97877 -0.26300
H 	H 	0.46873 0.88427 0.94977 0.09200
H 	H 	0.49713 0.84937 0.96397 0.07900
C 	C 	0.46641 0.90847 0.12217 -0.05800
H 	H 	0.44733 0.91947 0.08267 0.03600
N 	N 	0.52516 0.87417 0.13517 -0.17100
C 	C 	0.64053 0.00797 0.86387 -0.01300
H 	H 	0.67303 0.03557 0.83897 0.02500
N 	N 	0.46287 0.91238 0.21387 -0.15500
C 	C 	0.54963 0.96437 0.87377 -0.05800
H 	H 	0.51613 0.96057 0.85657 0.03300
C 	C 	0.52193 0.87877 0.22767 0.00500
H 	H 	0.54133 0.86827 0.26727 0.01600
N 	N 	0.59461 0.00397 0.83547 -0.14600
C 	C 	0.64213 0.97317 0.92827 0.00700
H 	H 	0.67563 0.97757 0.94667 0.00800
Ag	Ag	0.19793 0.93420 0.60705 0.52300
N 	N 	0.26707 0.00297 0.70190 -0.17700
C 	C 	0.23160 0.07340 0.39940 -0.01100
H 	H 	0.23500 0.07730 0.33380 0.00600
C 	C 	0.26200 0.04478 0.72860 0.10800
C 	C 	0.22225 0.05861 0.58430 0.11500
C 	C 	0.21733 0.05100 0.68790 -0.26400
H 	H 	0.21760 0.08220 0.71690 0.09200
H 	H 	0.18270 0.01890 0.70270 0.07900
C 	C 	0.24180 0.10872 0.54450 -0.05800
H 	H 	0.25280 0.13880 0.58400 0.03600
N 	N 	0.20750 0.01567 0.53150 -0.17100
C 	C 	0.34130 0.03410 0.80280 -0.01300
H 	H 	0.36890 0.02920 0.82770 0.02500
N 	N 	0.24571 0.11617 0.45280 -0.15500
C 	C 	0.29770 0.08140 0.79290 -0.05900
H 	H 	0.29390 0.11110 0.81010 0.03300
C 	C 	0.21210 0.02350 0.43900 0.00500
H 	H 	0.20160 0.99360 0.39940 0.01600
N 	N 	0.33730 0.07602 0.83120 -0.14600
C 	C 	0.30650 0.99770 0.73840 0.00700
H 	H 	0.31090 0.96860 0.72000 0.00800
Ag	Ag	0.86460 0.26753 0.94038 0.52300
N 	N 	0.93374 0.33630 0.03523 -0.17700
C 	C 	0.89827 0.40673 0.73273 -0.01000
H 	H 	0.90167 0.41063 0.66713 0.00600
C 	C 	0.92867 0.37811 0.06193 0.10800
C 	C 	0.88892 0.39194 0.91763 0.11500
C 	C 	0.88400 0.38433 0.02123 -0.26300
H 	H 	0.88427 0.41553 0.05023 0.09200
H 	H 	0.84937 0.35223 0.03603 0.07900
C 	C 	0.90847 0.44205 0.87783 -0.05800
H 	H 	0.91947 0.47213 0.91733 0.03600
N 	N 	0.87417 0.34900 0.86483 -0.17100
C 	C 	0.00797 0.36743 0.13613 -0.01300
H 	H 	0.03557 0.36253 0.16103 0.02500
N 	N 	0.91238 0.44950 0.78613 -0.15500
C 	C 	0.96437 0.41473 0.12623 -0.05800
H 	H 	0.96057 0.44443 0.14343 0.03300
C 	C 	0.87877 0.35683 0.77233 0.00500
H 	H 	0.86827 0.32693 0.73273 0.01600
N 	N 	0.00397 0.40935 0.16453 -0.14600
C 	C 	0.97317 0.33103 0.07173 0.00700
H 	H 	0.97757 0.30193 0.05333 0.00800
Ag	Ag	0.53126 0.60087 0.27372 0.52300
N 	N 	0.60040 0.66964 0.36857 -0.17700
C 	C 	0.56493 0.74007 0.06607 -0.01000
H 	H 	0.56833 0.74397 0.00047 0.00600
C 	C 	0.59533 0.71145 0.39527 0.10800
C 	C 	0.55558 0.72528 0.25097 0.11500
C 	C 	0.55066 0.71767 0.35457 -0.26400
H 	H 	0.55093 0.74887 0.38357 0.09200
H 	H 	0.51603 0.68557 0.36937 0.07900
C 	C 	0.57513 0.77539 0.21117 -0.05800
H 	H 	0.58613 0.80547 0.25067 0.03600
N 	N 	0.54083 0.68234 0.19817 -0.17100
C 	C 	0.67463 0.70077 0.46947 -0.01300
H 	H 	0.70223 0.69587 0.49437 0.02500
N 	N 	0.57904 0.78284 0.11947 -0.15500
C 	C 	0.63103 0.74807 0.45957 -0.05900
H 	H 	0.62723 0.77777 0.47677 0.03300
C 	C 	0.54543 0.69017 0.10567 0.00500
H 	H 	0.53493 0.66027 0.06607 0.01600
N 	N 	0.67063 0.74269 0.49787 -0.14600
C 	C 	0.63983 0.66437 0.40507 0.00600
H 	H 	0.64423 0.63527 0.38667 0.00800
Ag	Ag	0.06580 0.26373 0.60705 0.52300
N 	N 	0.99703 0.26410 0.70190 -0.17700
C 	C 	0.92660 0.15820 0.39940 -0.01000
H 	H 	0.92270 0.15770 0.33380 0.00600
C 	C 	0.95522 0.21722 0.72860 0.10800
C 	C 	0.94139 0.16364 0.58430 0.11500
C 	C 	0.94900 0.16633 0.68790 -0.26300
H 	H 	0.91780 0.13540 0.71690 0.09200
H 	H 	0.98110 0.16380 0.70270 0.07900
C 	C 	0.89128 0.13308 0.54450 -0.05800
H 	H 	0.86120 0.11400 0.58400 0.03600
N 	N 	0.98433 0.19183 0.53150 -0.17100
C 	C 	0.96590 0.30720 0.80280 -0.01300
H 	H 	0.97080 0.33970 0.82770 0.02500
N 	N 	0.88383 0.12954 0.45280 -0.15500
C 	C 	0.91860 0.21630 0.79290 -0.05900
H 	H 	0.88890 0.18280 0.81010 0.03300
C 	C 	0.97650 0.18860 0.43900 0.00500
H 	H 	0.00640 0.20800 0.39940 0.01600
N 	N 	0.92398 0.26128 0.83120 -0.14600
C 	C 	0.00230 0.30880 0.73840 0.00700
H 	H 	0.03140 0.34230 0.72000 0.00800
Ag	Ag	0.73247 0.59706 0.94038 0.52300
N 	N 	0.66370 0.59743 0.03523 -0.17700
C 	C 	0.59327 0.49153 0.73273 -0.01000
H 	H 	0.58937 0.49103 0.66713 0.00600
C 	C 	0.62189 0.55055 0.06193 0.10800
C 	C 	0.60806 0.49697 0.91763 0.11500
C 	C 	0.61567 0.49966 0.02123 -0.26300
H 	H 	0.58447 0.46873 0.05023 0.09200
H 	H 	0.64777 0.49713 0.03603 0.07900
C 	C 	0.55795 0.46641 0.87783 -0.05800
H 	H 	0.52787 0.44733 0.91733 0.03600
N 	N 	0.65100 0.52516 0.86483 -0.17100
C 	C 	0.63257 0.64053 0.13613 -0.01300
H 	H 	0.63747 0.67303 0.16103 0.02500
N 	N 	0.55050 0.46287 0.78613 -0.15500
C 	C 	0.58527 0.54963 0.12623 -0.05900
H 	H 	0.55557 0.51613 0.14343 0.03300
C 	C 	0.64317 0.52193 0.77233 0.00500
H 	H 	0.67307 0.54133 0.73273 0.01600
N 	N 	0.59065 0.59461 0.16453 -0.14600
C 	C 	0.66897 0.64213 0.07173 0.00600
H 	H 	0.69807 0.67563 0.05333 0.00800
Ag	Ag	0.39913 0.93040 0.27372 0.52300
N 	N 	0.33036 0.93077 0.36857 -0.17700
C 	C 	0.25993 0.82487 0.06607 -0.01100
H 	H 	0.25603 0.82437 0.00047 0.00600
C 	C 	0.28855 0.88389 0.39527 0.10800
C 	C 	0.27472 0.83031 0.25097 0.11500
C 	C 	0.28233 0.83300 0.35457 -0.26400
H 	H 	0.25113 0.80207 0.38357 0.09200
H 	H 	0.31443 0.83047 0.36937 0.07900
C 	C 	0.22461 0.79975 0.21117 -0.05800
H 	H 	0.19453 0.78067 0.25067 0.03600
N 	N 	0.31766 0.85850 0.19817 -0.17100
C 	C 	0.29923 0.97387 0.46947 -0.01300
H 	H 	0.30413 0.00637 0.49437 0.02500
N 	N 	0.21716 0.79621 0.11947 -0.15500
C 	C 	0.25193 0.88297 0.45957 -0.05900
H 	H 	0.22223 0.84947 0.47677 0.03300
C 	C 	0.30983 0.85527 0.10567 0.00500
H 	H 	0.33973 0.87467 0.06607 0.01600
N 	N 	0.25731 0.92795 0.49787 -0.14600
C 	C 	0.33563 0.97547 0.40507 0.00600
H 	H 	0.36473 0.00897 0.38667 0.00800
Ag	Ag	0.73627 0.80207 0.60705 0.52300
N 	N 	0.73590 0.73293 0.70190 -0.17700
C 	C 	0.84180 0.76840 0.39940 -0.01000
H 	H 	0.84230 0.76500 0.33380 0.00600
C 	C 	0.78278 0.73800 0.72860 0.10800
C 	C 	0.83636 0.77775 0.58430 0.11500
C 	C 	0.83367 0.78267 0.68790 -0.26400
H 	H 	0.86460 0.78240 0.71690 0.09200
H 	H 	0.83620 0.81730 0.70270 0.07900
C 	C 	0.86692 0.75820 0.54450 -0.05800
H 	H 	0.88600 0.74720 0.58400 0.03600
N 	N 	0.80817 0.79250 0.53150 -0.17100
C 	C 	0.69280 0.65870 0.80280 -0.01300
H 	H 	0.66030 0.63110 0.82770 0.02500
N 	N 	0.87046 0.75429 0.45280 -0.15500
C 	C 	0.78370 0.70230 0.79290 -0.05900
H 	H 	0.81720 0.70610 0.81010 0.03300
C 	C 	0.81140 0.78790 0.43900 0.00500
H 	H 	0.79200 0.79840 0.39940 0.01600
N 	N 	0.73872 0.66270 0.83120 -0.14600
C 	C 	0.69120 0.69350 0.73840 0.00600
H 	H 	0.65770 0.68910 0.72000 0.00800
Ag	Ag	0.40294 0.13540 0.94038 0.52300
N 	N 	0.40257 0.06626 0.03523 -0.17700
C 	C 	0.50847 0.10173 0.73273 -0.01000
H 	H 	0.50897 0.09833 0.66713 0.00600
C 	C 	0.44945 0.07133 0.06193 0.10800
C 	C 	0.50303 0.11108 0.91763 0.11500
C 	C 	0.50034 0.11600 0.02123 -0.26300
H 	H 	0.53127 0.11573 0.05023 0.09200
H 	H 	0.50287 0.15063 0.03603 0.07900
C 	C 	0.53359 0.09153 0.87783 -0.05800
H 	H 	0.55267 0.08053 0.91733 0.03600
N 	N 	0.47484 0.12583 0.86483 -0.17100
C 	C 	0.35947 0.99203 0.13613 -0.01300
H 	H 	0.32697 0.96443 0.16103 0.02500
N 	N 	0.53713 0.08762 0.78613 -0.15500
C 	C 	0.45037 0.03563 0.12623 -0.05800
H 	H 	0.48387 0.03943 0.14343 0.03300
C 	C 	0.47807 0.12123 0.77233 0.00500
H 	H 	0.45867 0.13173 0.73273 0.01600
N 	N 	0.40539 0.99603 0.16453 -0.14600
C 	C 	0.35787 0.02683 0.07173 0.00700
H 	H 	0.32437 0.02243 0.05333 0.00800
Ag	Ag	0.06960 0.46874 0.27372 0.52300
N 	N 	0.06923 0.39960 0.36857 -0.17700
C 	C 	0.17513 0.43507 0.06607 -0.01000
H 	H 	0.17563 0.43167 0.00047 0.00600
C 	C 	0.11611 0.40467 0.39527 0.10800
C 	C 	0.16969 0.44442 0.25097 0.11500
C 	C 	0.16700 0.44934 0.35457 -0.26400
H 	H 	0.19793 0.44907 0.38357 0.09200
H 	H 	0.16953 0.48397 0.36937 0.07900
C 	C 	0.20025 0.42487 0.21117 -0.05800
H 	H 	0.21933 0.41387 0.25067 0.03600
N 	N 	0.14150 0.45917 0.19817 -0.17100
C 	C 	0.02613 0.32537 0.46947 -0.01300
H 	H 	0.99363 0.29777 0.49437 0.02500
N 	N 	0.20379 0.42096 0.11947 -0.15500
C 	C 	0.11703 0.36897 0.45957 -0.05900
H 	H 	0.15053 0.37277 0.47677 0.03300
C 	C 	0.14473 0.45457 0.10567 0.00500
H 	H 	0.12533 0.46507 0.06607 0.01600
N 	N 	0.07205 0.32937 0.49787 -0.14600
C 	C 	0.02453 0.36017 0.40507 0.00600
H 	H 	0.99103 0.35577 0.38667 0.00800
