data_crystal

_cell_length_a 29.05400
_cell_length_b 29.05400
_cell_length_c 12.66380
_cell_angle_alpha 90.00000
_cell_angle_beta  90.00000
_cell_angle_gamma 120.00000

_symmetry_space_group_name_	'P 1'
_symmetry_space_group_name_H-M	'P 1'

loop_
_symmetry_equiv_pos_as_xyz
  x,y,z

loop_
_atom_site_label
_atom_site_type_symbol
_atom_site_fract_x
_atom_site_fract_y
_atom_site_fract_z
_atom_site_charge
Ag	Ag	0.47070 0.07052 0.21322 0.52800
N 	N 	0.44400 0.13040 0.29820 -0.16900
N 	N 	0.41800 0.20180 0.38650 -0.16000
N 	N 	0.34400 0.07820 0.95110 -0.14600
N 	N 	0.42560 0.07960 0.07120 -0.18500
C 	C 	0.44320 0.16930 0.23990 0.11100
C 	C 	0.37840 0.12090 0.00580 -0.06000
H 	H 	0.37480 0.15160 0.00440 0.03400
C 	C 	0.39250 0.03700 0.01510 0.01100
H 	H 	0.39660 0.00660 0.01680 0.00500
C 	C 	0.41940 0.12230 0.06470 0.11100
C 	C 	0.35260 0.03590 0.95490 -0.02000
H 	H 	0.33030 0.00490 0.91490 0.02600
C 	C 	0.41530 0.16250 0.44160 0.00000
H 	H 	0.40380 0.15820 0.51290 0.00400
C 	C 	0.42860 0.12770 0.39990 -0.00500
H 	H 	0.42710 0.10040 0.44370 0.01900
C 	C 	0.43050 0.20440 0.28410 -0.06200
H 	H 	0.43070 0.23130 0.24120 0.03200
C 	C 	0.45810 0.17130 0.12600 -0.26400
H 	H 	0.49390 0.17520 0.12170 0.08200
H 	H 	0.45990 0.20300 0.09270 0.09300
Ag	Ag	0.13737 0.40385 0.54655 0.52900
N 	N 	0.11067 0.46373 0.63153 -0.16800
N 	N 	0.08467 0.53513 0.71983 -0.15900
N 	N 	0.01067 0.41153 0.28443 -0.14500
N 	N 	0.09227 0.41293 0.40453 -0.18400
C 	C 	0.10987 0.50263 0.57323 0.11200
C 	C 	0.04507 0.45423 0.33913 -0.05900
H 	H 	0.04147 0.48493 0.33773 0.03500
C 	C 	0.05917 0.37033 0.34843 0.01200
H 	H 	0.06327 0.33993 0.35013 0.00600
C 	C 	0.08607 0.45563 0.39803 0.11200
C 	C 	0.01927 0.36923 0.28823 -0.01900
H 	H 	0.99697 0.33823 0.24823 0.02700
C 	C 	0.08197 0.49583 0.77493 0.00100
H 	H 	0.07047 0.49153 0.84623 0.00500
C 	C 	0.09527 0.46103 0.73323 -0.00400
H 	H 	0.09377 0.43373 0.77703 0.01900
C 	C 	0.09717 0.53773 0.61743 -0.06200
H 	H 	0.09737 0.56463 0.57453 0.03200
C 	C 	0.12477 0.50463 0.45933 -0.26400
H 	H 	0.16057 0.50853 0.45503 0.08200
H 	H 	0.12657 0.53633 0.42603 0.09300
Ag	Ag	0.80403 0.73719 0.87989 0.52900
N 	N 	0.77733 0.79707 0.96487 -0.16800
N 	N 	0.75133 0.86847 0.05317 -0.15900
N 	N 	0.67733 0.74487 0.61777 -0.14500
N 	N 	0.75893 0.74627 0.73787 -0.18400
C 	C 	0.77653 0.83597 0.90657 0.11200
C 	C 	0.71173 0.78757 0.67247 -0.05900
H 	H 	0.70813 0.81827 0.67107 0.03500
C 	C 	0.72583 0.70367 0.68177 0.01200
H 	H 	0.72993 0.67327 0.68347 0.00600
C 	C 	0.75273 0.78897 0.73137 0.11200
C 	C 	0.68593 0.70257 0.62157 -0.01900
H 	H 	0.66363 0.67157 0.58157 0.02700
C 	C 	0.74863 0.82917 0.10827 0.00100
H 	H 	0.73713 0.82487 0.17957 0.00500
C 	C 	0.76193 0.79437 0.06657 -0.00400
H 	H 	0.76043 0.76707 0.11037 0.01900
C 	C 	0.76383 0.87107 0.95077 -0.06200
H 	H 	0.76403 0.89797 0.90787 0.03200
C 	C 	0.79143 0.83797 0.79267 -0.26400
H 	H 	0.82723 0.84187 0.78837 0.08200
H 	H 	0.79323 0.86967 0.75937 0.09300
Ag	Ag	0.92948 0.40018 0.21322 0.52900
N 	N 	0.86960 0.31360 0.29820 -0.16800
N 	N 	0.79820 0.21620 0.38650 -0.15900
N 	N 	0.92180 0.26580 0.95110 -0.14500
N 	N 	0.92040 0.34600 0.07120 -0.18400
C 	C 	0.83070 0.27390 0.23990 0.11200
C 	C 	0.87910 0.25750 0.00580 -0.05900
H 	H 	0.84840 0.22320 0.00440 0.03500
C 	C 	0.96300 0.35550 0.01510 0.01200
H 	H 	0.99340 0.39000 0.01680 0.00600
C 	C 	0.87770 0.29710 0.06470 0.11200
C 	C 	0.96410 0.31670 0.95490 -0.01900
H 	H 	0.99510 0.32540 0.91490 0.02700
C 	C 	0.83750 0.25280 0.44160 0.00100
H 	H 	0.84180 0.24560 0.51290 0.00500
C 	C 	0.87230 0.30090 0.39990 -0.00400
H 	H 	0.89960 0.32670 0.44370 0.01900
C 	C 	0.79560 0.22610 0.28410 -0.06200
H 	H 	0.76870 0.19940 0.24120 0.03200
C 	C 	0.82870 0.28680 0.12600 -0.26400
H 	H 	0.82480 0.31870 0.12170 0.08200
H 	H 	0.79700 0.25690 0.09270 0.09300
Ag	Ag	0.59615 0.73351 0.54655 0.52900
N 	N 	0.53627 0.64693 0.63153 -0.16800
N 	N 	0.46487 0.54953 0.71983 -0.15900
N 	N 	0.58847 0.59913 0.28443 -0.14500
N 	N 	0.58707 0.67933 0.40453 -0.18400
C 	C 	0.49737 0.60723 0.57323 0.11200
C 	C 	0.54577 0.59083 0.33913 -0.05900
H 	H 	0.51507 0.55653 0.33773 0.03500
C 	C 	0.62967 0.68883 0.34843 0.01200
H 	H 	0.66007 0.72333 0.35013 0.00600
C 	C 	0.54437 0.63043 0.39803 0.11200
C 	C 	0.63077 0.65003 0.28823 -0.01900
H 	H 	0.66177 0.65873 0.24823 0.02700
C 	C 	0.50417 0.58613 0.77493 0.00100
H 	H 	0.50847 0.57893 0.84623 0.00500
C 	C 	0.53897 0.63423 0.73323 -0.00400
H 	H 	0.56627 0.66003 0.77703 0.01900
C 	C 	0.46227 0.55943 0.61743 -0.06200
H 	H 	0.43537 0.53273 0.57453 0.03200
C 	C 	0.49537 0.62013 0.45933 -0.26400
H 	H 	0.49147 0.65203 0.45503 0.08200
H 	H 	0.46367 0.59023 0.42603 0.09300
Ag	Ag	0.26281 0.06685 0.87989 0.52900
N 	N 	0.20293 0.98027 0.96487 -0.16800
N 	N 	0.13153 0.88287 0.05317 -0.15900
N 	N 	0.25513 0.93247 0.61777 -0.14500
N 	N 	0.25373 0.01267 0.73787 -0.18400
C 	C 	0.16403 0.94057 0.90657 0.11200
C 	C 	0.21243 0.92417 0.67247 -0.05900
H 	H 	0.18173 0.88987 0.67107 0.03500
C 	C 	0.29633 0.02217 0.68177 0.01200
H 	H 	0.32673 0.05667 0.68347 0.00600
C 	C 	0.21103 0.96377 0.73137 0.11200
C 	C 	0.29743 0.98337 0.62157 -0.01900
H 	H 	0.32843 0.99207 0.58157 0.02700
C 	C 	0.17083 0.91947 0.10827 0.00100
H 	H 	0.17513 0.91227 0.17957 0.00500
C 	C 	0.20563 0.96757 0.06657 -0.00400
H 	H 	0.23293 0.99337 0.11037 0.01900
C 	C 	0.12893 0.89277 0.95077 -0.06200
H 	H 	0.10203 0.86607 0.90787 0.03200
C 	C 	0.16203 0.95347 0.79267 -0.26400
H 	H 	0.15813 0.98537 0.78837 0.08100
H 	H 	0.13033 0.92357 0.75937 0.09300
Ag	Ag	0.59982 0.52930 0.21322 0.52900
N 	N 	0.68640 0.55600 0.29820 -0.16800
N 	N 	0.78380 0.58200 0.38650 -0.15900
N 	N 	0.73420 0.65600 0.95110 -0.14500
N 	N 	0.65400 0.57440 0.07120 -0.18400
C 	C 	0.72610 0.55680 0.23990 0.11200
C 	C 	0.74250 0.62160 0.00580 -0.05900
H 	H 	0.77680 0.62520 0.00440 0.03500
C 	C 	0.64450 0.60750 0.01510 0.01200
H 	H 	0.61000 0.60340 0.01680 0.00600
C 	C 	0.70290 0.58060 0.06470 0.11200
C 	C 	0.68330 0.64740 0.95490 -0.01900
H 	H 	0.67460 0.66970 0.91490 0.02700
C 	C 	0.74720 0.58470 0.44160 0.00100
H 	H 	0.75440 0.59620 0.51290 0.00500
C 	C 	0.69910 0.57140 0.39990 -0.00400
H 	H 	0.67330 0.57290 0.44370 0.01900
C 	C 	0.77390 0.56950 0.28410 -0.06200
H 	H 	0.80060 0.56930 0.24120 0.03200
C 	C 	0.71320 0.54190 0.12600 -0.26400
H 	H 	0.68130 0.50610 0.12170 0.08200
H 	H 	0.74310 0.54010 0.09270 0.09300
Ag	Ag	0.26649 0.86263 0.54655 0.52900
N 	N 	0.35307 0.88933 0.63153 -0.16800
N 	N 	0.45047 0.91533 0.71983 -0.15900
N 	N 	0.40087 0.98933 0.28443 -0.14500
N 	N 	0.32067 0.90773 0.40453 -0.18400
C 	C 	0.39277 0.89013 0.57323 0.11200
C 	C 	0.40917 0.95493 0.33913 -0.05900
H 	H 	0.44347 0.95853 0.33773 0.03500
C 	C 	0.31117 0.94083 0.34843 0.01200
H 	H 	0.27667 0.93673 0.35013 0.00600
C 	C 	0.36957 0.91393 0.39803 0.11200
C 	C 	0.34997 0.98073 0.28823 -0.01900
H 	H 	0.34127 0.00303 0.24823 0.02700
C 	C 	0.41387 0.91803 0.77493 0.00100
H 	H 	0.42107 0.92953 0.84623 0.00500
C 	C 	0.36577 0.90473 0.73323 -0.00400
H 	H 	0.33997 0.90623 0.77703 0.01900
C 	C 	0.44057 0.90283 0.61743 -0.06200
H 	H 	0.46727 0.90263 0.57453 0.03200
C 	C 	0.37987 0.87523 0.45933 -0.26400
H 	H 	0.34797 0.83943 0.45503 0.08200
H 	H 	0.40977 0.87343 0.42603 0.09300
Ag	Ag	0.93315 0.19597 0.87989 0.52900
N 	N 	0.01973 0.22267 0.96487 -0.16800
N 	N 	0.11713 0.24867 0.05317 -0.15900
N 	N 	0.06753 0.32267 0.61777 -0.14500
N 	N 	0.98733 0.24107 0.73787 -0.18400
C 	C 	0.05943 0.22347 0.90657 0.11200
C 	C 	0.07583 0.28827 0.67247 -0.05900
H 	H 	0.11013 0.29187 0.67107 0.03500
C 	C 	0.97783 0.27417 0.68177 0.01200
H 	H 	0.94333 0.27007 0.68347 0.00600
C 	C 	0.03623 0.24727 0.73137 0.11200
C 	C 	0.01663 0.31407 0.62157 -0.01900
H 	H 	0.00793 0.33637 0.58157 0.02700
C 	C 	0.08053 0.25137 0.10827 0.00100
H 	H 	0.08773 0.26287 0.17957 0.00500
C 	C 	0.03243 0.23807 0.06657 -0.00400
H 	H 	0.00663 0.23957 0.11037 0.01900
C 	C 	0.10723 0.23617 0.95077 -0.06200
H 	H 	0.13393 0.23597 0.90787 0.03200
C 	C 	0.04653 0.20857 0.79267 -0.26400
H 	H 	0.01463 0.17277 0.78837 0.08200
H 	H 	0.07643 0.20677 0.75937 0.09300
Ag	Ag	0.52930 0.92948 0.78678 0.52900
N 	N 	0.55600 0.86960 0.70180 -0.16800
N 	N 	0.58200 0.79820 0.61350 -0.15900
N 	N 	0.65600 0.92180 0.04890 -0.14500
N 	N 	0.57440 0.92040 0.92880 -0.18400
C 	C 	0.55680 0.83070 0.76010 0.11200
C 	C 	0.62160 0.87910 0.99420 -0.05900
H 	H 	0.62520 0.84840 0.99560 0.03500
C 	C 	0.60750 0.96300 0.98490 0.01200
H 	H 	0.60340 0.99340 0.98320 0.00600
C 	C 	0.58060 0.87770 0.93530 0.11200
C 	C 	0.64740 0.96410 0.04510 -0.01900
H 	H 	0.66970 0.99510 0.08510 0.02700
C 	C 	0.58470 0.83750 0.55840 0.00100
H 	H 	0.59620 0.84180 0.48710 0.00500
C 	C 	0.57140 0.87230 0.60010 -0.00400
H 	H 	0.57290 0.89960 0.55630 0.01900
C 	C 	0.56950 0.79560 0.71590 -0.06200
H 	H 	0.56930 0.76870 0.75880 0.03200
C 	C 	0.54190 0.82870 0.87400 -0.26400
H 	H 	0.50610 0.82480 0.87830 0.08200
H 	H 	0.54010 0.79700 0.90730 0.09300
Ag	Ag	0.19597 0.26281 0.12011 0.52900
N 	N 	0.22267 0.20293 0.03513 -0.16800
N 	N 	0.24867 0.13153 0.94683 -0.15900
N 	N 	0.32267 0.25513 0.38223 -0.14500
N 	N 	0.24107 0.25373 0.26213 -0.18400
C 	C 	0.22347 0.16403 0.09343 0.11200
C 	C 	0.28827 0.21243 0.32753 -0.05900
H 	H 	0.29187 0.18173 0.32893 0.03500
C 	C 	0.27417 0.29633 0.31823 0.01200
H 	H 	0.27007 0.32673 0.31653 0.00600
C 	C 	0.24727 0.21103 0.26863 0.11200
C 	C 	0.31407 0.29743 0.37843 -0.01900
H 	H 	0.33637 0.32843 0.41843 0.02700
C 	C 	0.25137 0.17083 0.89173 0.00100
H 	H 	0.26287 0.17513 0.82043 0.00500
C 	C 	0.23807 0.20563 0.93343 -0.00400
H 	H 	0.23957 0.23293 0.88963 0.01900
C 	C 	0.23617 0.12893 0.04923 -0.06200
H 	H 	0.23597 0.10203 0.09213 0.03200
C 	C 	0.20857 0.16203 0.20733 -0.26400
H 	H 	0.17277 0.15813 0.21163 0.08200
H 	H 	0.20677 0.13033 0.24063 0.09300
Ag	Ag	0.86263 0.59615 0.45345 0.52900
N 	N 	0.88933 0.53627 0.36847 -0.16800
N 	N 	0.91533 0.46487 0.28017 -0.15900
N 	N 	0.98933 0.58847 0.71557 -0.14500
N 	N 	0.90773 0.58707 0.59547 -0.18400
C 	C 	0.89013 0.49737 0.42677 0.11200
C 	C 	0.95493 0.54577 0.66087 -0.05900
H 	H 	0.95853 0.51507 0.66227 0.03500
C 	C 	0.94083 0.62967 0.65157 0.01200
H 	H 	0.93673 0.66007 0.64987 0.00600
C 	C 	0.91393 0.54437 0.60197 0.11200
C 	C 	0.98073 0.63077 0.71177 -0.01900
H 	H 	0.00303 0.66177 0.75177 0.02700
C 	C 	0.91803 0.50417 0.22507 0.00100
H 	H 	0.92953 0.50847 0.15377 0.00500
C 	C 	0.90473 0.53897 0.26677 -0.00400
H 	H 	0.90623 0.56627 0.22297 0.01900
C 	C 	0.90283 0.46227 0.38257 -0.06200
H 	H 	0.90263 0.43537 0.42547 0.03200
C 	C 	0.87523 0.49537 0.54067 -0.26400
H 	H 	0.83943 0.49147 0.54497 0.08200
H 	H 	0.87343 0.46367 0.57397 0.09300
Ag	Ag	0.07052 0.59982 0.78678 0.52900
N 	N 	0.13040 0.68640 0.70180 -0.16800
N 	N 	0.20180 0.78380 0.61350 -0.15900
N 	N 	0.07820 0.73420 0.04890 -0.14500
N 	N 	0.07960 0.65400 0.92880 -0.18400
C 	C 	0.16930 0.72610 0.76010 0.11200
C 	C 	0.12090 0.74250 0.99420 -0.05900
H 	H 	0.15160 0.77680 0.99560 0.03500
C 	C 	0.03700 0.64450 0.98490 0.01200
H 	H 	0.00660 0.61000 0.98320 0.00600
C 	C 	0.12230 0.70290 0.93530 0.11200
C 	C 	0.03590 0.68330 0.04510 -0.01900
H 	H 	0.00490 0.67460 0.08510 0.02700
C 	C 	0.16250 0.74720 0.55840 0.00100
H 	H 	0.15820 0.75440 0.48710 0.00500
C 	C 	0.12770 0.69910 0.60010 -0.00400
H 	H 	0.10040 0.67330 0.55630 0.01900
C 	C 	0.20440 0.77390 0.71590 -0.06200
H 	H 	0.23130 0.80060 0.75880 0.03200
C 	C 	0.17130 0.71320 0.87400 -0.26400
H 	H 	0.17520 0.68130 0.87830 0.08200
H 	H 	0.20300 0.74310 0.90730 0.09300
Ag	Ag	0.73719 0.93315 0.12011 0.52900
N 	N 	0.79707 0.01973 0.03513 -0.16800
N 	N 	0.86847 0.11713 0.94683 -0.15900
N 	N 	0.74487 0.06753 0.38223 -0.14500
N 	N 	0.74627 0.98733 0.26213 -0.18400
C 	C 	0.83597 0.05943 0.09343 0.11200
C 	C 	0.78757 0.07583 0.32753 -0.05900
H 	H 	0.81827 0.11013 0.32893 0.03500
C 	C 	0.70367 0.97783 0.31823 0.01200
H 	H 	0.67327 0.94333 0.31653 0.00600
C 	C 	0.78897 0.03623 0.26863 0.11200
C 	C 	0.70257 0.01663 0.37843 -0.01900
H 	H 	0.67157 0.00793 0.41843 0.02700
C 	C 	0.82917 0.08053 0.89173 0.00100
H 	H 	0.82487 0.08773 0.82043 0.00500
C 	C 	0.79437 0.03243 0.93343 -0.00400
H 	H 	0.76707 0.00663 0.88963 0.01900
C 	C 	0.87107 0.10723 0.04923 -0.06200
H 	H 	0.89797 0.13393 0.09213 0.03200
C 	C 	0.83797 0.04653 0.20733 -0.26400
H 	H 	0.84187 0.01463 0.21163 0.08100
H 	H 	0.86967 0.07643 0.24063 0.09300
Ag	Ag	0.40385 0.26649 0.45345 0.52900
N 	N 	0.46373 0.35307 0.36847 -0.16800
N 	N 	0.53513 0.45047 0.28017 -0.15900
N 	N 	0.41153 0.40087 0.71557 -0.14500
N 	N 	0.41293 0.32067 0.59547 -0.18400
C 	C 	0.50263 0.39277 0.42677 0.11200
C 	C 	0.45423 0.40917 0.66087 -0.05900
H 	H 	0.48493 0.44347 0.66227 0.03500
C 	C 	0.37033 0.31117 0.65157 0.01200
H 	H 	0.33993 0.27667 0.64987 0.00600
C 	C 	0.45563 0.36957 0.60197 0.11200
C 	C 	0.36923 0.34997 0.71177 -0.01900
H 	H 	0.33823 0.34127 0.75177 0.02700
C 	C 	0.49583 0.41387 0.22507 0.00100
H 	H 	0.49153 0.42107 0.15377 0.00500
C 	C 	0.46103 0.36577 0.26677 -0.00400
H 	H 	0.43373 0.33997 0.22297 0.01900
C 	C 	0.53773 0.44057 0.38257 -0.06200
H 	H 	0.56463 0.46727 0.42547 0.03200
C 	C 	0.50463 0.37987 0.54067 -0.26400
H 	H 	0.50853 0.34797 0.54497 0.08200
H 	H 	0.53633 0.40977 0.57397 0.09300
Ag	Ag	0.40018 0.47070 0.78678 0.52900
N 	N 	0.31360 0.44400 0.70180 -0.16800
N 	N 	0.21620 0.41800 0.61350 -0.15900
N 	N 	0.26580 0.34400 0.04890 -0.14500
N 	N 	0.34600 0.42560 0.92880 -0.18400
C 	C 	0.27390 0.44320 0.76010 0.11200
C 	C 	0.25750 0.37840 0.99420 -0.05900
H 	H 	0.22320 0.37480 0.99560 0.03500
C 	C 	0.35550 0.39250 0.98490 0.01200
H 	H 	0.39000 0.39660 0.98320 0.00600
C 	C 	0.29710 0.41940 0.93530 0.11200
C 	C 	0.31670 0.35260 0.04510 -0.01900
H 	H 	0.32540 0.33030 0.08510 0.02700
C 	C 	0.25280 0.41530 0.55840 0.00100
H 	H 	0.24560 0.40380 0.48710 0.00500
C 	C 	0.30090 0.42860 0.60010 -0.00400
H 	H 	0.32670 0.42710 0.55630 0.01900
C 	C 	0.22610 0.43050 0.71590 -0.06200
H 	H 	0.19940 0.43070 0.75880 0.03200
C 	C 	0.28680 0.45810 0.87400 -0.26400
H 	H 	0.31870 0.49390 0.87830 0.08200
H 	H 	0.25690 0.45990 0.90730 0.09300
Ag	Ag	0.06685 0.80403 0.12011 0.52900
N 	N 	0.98027 0.77733 0.03513 -0.16800
N 	N 	0.88287 0.75133 0.94683 -0.15900
N 	N 	0.93247 0.67733 0.38223 -0.14500
N 	N 	0.01267 0.75893 0.26213 -0.18400
C 	C 	0.94057 0.77653 0.09343 0.11200
C 	C 	0.92417 0.71173 0.32753 -0.05900
H 	H 	0.88987 0.70813 0.32893 0.03500
C 	C 	0.02217 0.72583 0.31823 0.01200
H 	H 	0.05667 0.72993 0.31653 0.00600
C 	C 	0.96377 0.75273 0.26863 0.11200
C 	C 	0.98337 0.68593 0.37843 -0.01900
H 	H 	0.99207 0.66363 0.41843 0.02700
C 	C 	0.91947 0.74863 0.89173 0.00100
H 	H 	0.91227 0.73713 0.82043 0.00500
C 	C 	0.96757 0.76193 0.93343 -0.00400
H 	H 	0.99337 0.76043 0.88963 0.01900
C 	C 	0.89277 0.76383 0.04923 -0.06200
H 	H 	0.86607 0.76403 0.09213 0.03200
C 	C 	0.95347 0.79143 0.20733 -0.26400
H 	H 	0.98537 0.82723 0.21163 0.08200
H 	H 	0.92357 0.79323 0.24063 0.09300
Ag	Ag	0.73351 0.13737 0.45345 0.52900
N 	N 	0.64693 0.11067 0.36847 -0.16800
N 	N 	0.54953 0.08467 0.28017 -0.15900
N 	N 	0.59913 0.01067 0.71557 -0.14500
N 	N 	0.67933 0.09227 0.59547 -0.18400
C 	C 	0.60723 0.10987 0.42677 0.11200
C 	C 	0.59083 0.04507 0.66087 -0.05900
H 	H 	0.55653 0.04147 0.66227 0.03500
C 	C 	0.68883 0.05917 0.65157 0.01200
H 	H 	0.72333 0.06327 0.64987 0.00600
C 	C 	0.63043 0.08607 0.60197 0.11200
C 	C 	0.65003 0.01927 0.71177 -0.01900
H 	H 	0.65873 0.99697 0.75177 0.02700
C 	C 	0.58613 0.08197 0.22507 0.00100
H 	H 	0.57893 0.07047 0.15377 0.00500
C 	C 	0.63423 0.09527 0.26677 -0.00400
H 	H 	0.66003 0.09377 0.22297 0.01900
C 	C 	0.55943 0.09717 0.38257 -0.06200
H 	H 	0.53273 0.09737 0.42547 0.03200
C 	C 	0.62013 0.12477 0.54067 -0.26400
H 	H 	0.65203 0.16057 0.54497 0.08200
H 	H 	0.59023 0.12657 0.57397 0.09300
