data_crystal

_cell_length_a 28.15900
_cell_length_b 28.15900
_cell_length_c 11.93650
_cell_angle_alpha 90.00000
_cell_angle_beta  90.00000
_cell_angle_gamma 120.00000

_symmetry_space_group_name_	'P 1'
_symmetry_space_group_name_H-M	'P 1'

loop_
_symmetry_equiv_pos_as_xyz
  x,y,z

loop_
_atom_site_label
_atom_site_type_symbol
_atom_site_fract_x
_atom_site_fract_y
_atom_site_fract_z
_atom_site_charge
Ag	Ag	0.58905 0.06801 0.19037 0.52700
C 	C 	0.64450 0.03690 0.99090 0.00100
H 	H 	0.60990 0.00420 0.98980 0.00700
C 	C 	0.76540 0.20040 0.28900 -0.06000
H 	H 	0.79430 0.22790 0.24540 0.03200
N 	N 	0.65090 0.08060 0.04880 -0.18400
N 	N 	0.73770 0.08360 0.93280 -0.15000
C 	C 	0.71700 0.16690 0.23950 0.11600
C 	C 	0.68340 0.12030 0.39820 0.02300
H 	H 	0.65460 0.09100 0.43880 0.00900
C 	C 	0.68880 0.03950 0.93210 -0.00500
H 	H 	0.68340 0.00840 0.89050 0.02200
C 	C 	0.70040 0.12600 0.04870 0.11500
N 	N 	0.67580 0.12670 0.29430 -0.17600
C 	C 	0.74250 0.12590 0.98950 -0.05900
H 	H 	0.77720 0.15860 0.98960 0.03100
C 	C 	0.73220 0.15450 0.45290 -0.02600
H 	H 	0.73650 0.14920 0.53000 0.01200
N 	N 	0.77390 0.19610 0.39460 -0.15600
C 	C 	0.70720 0.17320 0.11570 -0.27000
H 	H 	0.67390 0.17640 0.10830 0.08200
H 	H 	0.73860 0.20730 0.08620 0.09400
Ag	Ag	0.25572 0.40134 0.52370 0.52800
C 	C 	0.31117 0.37023 0.32423 0.00200
H 	H 	0.27657 0.33753 0.32313 0.00800
C 	C 	0.43207 0.53373 0.62233 -0.05900
H 	H 	0.46097 0.56123 0.57873 0.03300
N 	N 	0.31757 0.41393 0.38213 -0.18300
N 	N 	0.40437 0.41693 0.26613 -0.14900
C 	C 	0.38367 0.50023 0.57283 0.11700
C 	C 	0.35007 0.45363 0.73153 0.02400
H 	H 	0.32127 0.42433 0.77213 0.01000
C 	C 	0.35547 0.37283 0.26543 -0.00400
H 	H 	0.35007 0.34173 0.22383 0.02300
C 	C 	0.36707 0.45933 0.38203 0.11600
N 	N 	0.34247 0.46003 0.62763 -0.17500
C 	C 	0.40917 0.45923 0.32283 -0.05800
H 	H 	0.44387 0.49193 0.32293 0.03200
C 	C 	0.39887 0.48783 0.78623 -0.02600
H 	H 	0.40317 0.48253 0.86333 0.01200
N 	N 	0.44057 0.52943 0.72793 -0.15600
C 	C 	0.37387 0.50653 0.44903 -0.27000
H 	H 	0.34057 0.50973 0.44163 0.08200
H 	H 	0.40527 0.54063 0.41953 0.09400
Ag	Ag	0.92238 0.73468 0.85704 0.52800
C 	C 	0.97783 0.70357 0.65757 0.00200
H 	H 	0.94323 0.67087 0.65647 0.00800
C 	C 	0.09873 0.86707 0.95567 -0.05900
H 	H 	0.12763 0.89457 0.91207 0.03300
N 	N 	0.98423 0.74727 0.71547 -0.18300
N 	N 	0.07103 0.75027 0.59947 -0.14900
C 	C 	0.05033 0.83357 0.90617 0.11700
C 	C 	0.01673 0.78697 0.06487 0.02400
H 	H 	0.98793 0.75767 0.10547 0.01000
C 	C 	0.02213 0.70617 0.59877 -0.00500
H 	H 	0.01673 0.67507 0.55717 0.02300
C 	C 	0.03373 0.79267 0.71537 0.11600
N 	N 	0.00913 0.79337 0.96097 -0.17500
C 	C 	0.07583 0.79257 0.65617 -0.05800
H 	H 	0.11053 0.82527 0.65627 0.03200
C 	C 	0.06553 0.82117 0.11957 -0.02600
H 	H 	0.06983 0.81587 0.19667 0.01200
N 	N 	0.10723 0.86277 0.06127 -0.15600
C 	C 	0.04053 0.83987 0.78237 -0.27000
H 	H 	0.00723 0.84307 0.77497 0.08200
H 	H 	0.07193 0.87397 0.75287 0.09400
Ag	Ag	0.93199 0.52104 0.19037 0.52800
C 	C 	0.96310 0.60760 0.99090 0.00200
H 	H 	0.99580 0.60570 0.98980 0.00800
C 	C 	0.79960 0.56500 0.28900 -0.05900
H 	H 	0.77210 0.56640 0.24540 0.03300
N 	N 	0.91940 0.57030 0.04880 -0.18300
N 	N 	0.91640 0.65410 0.93280 -0.14900
C 	C 	0.83310 0.55010 0.23950 0.11700
C 	C 	0.87970 0.56310 0.39820 0.02400
H 	H 	0.90900 0.56360 0.43880 0.01000
C 	C 	0.96050 0.64930 0.93210 -0.00400
H 	H 	0.99160 0.67500 0.89050 0.02300
C 	C 	0.87400 0.57440 0.04870 0.11600
N 	N 	0.87330 0.54910 0.29430 -0.17500
C 	C 	0.87410 0.61660 0.98950 -0.05800
H 	H 	0.84140 0.61860 0.98960 0.03200
C 	C 	0.84550 0.57770 0.45290 -0.02600
H 	H 	0.85080 0.58730 0.53000 0.01200
N 	N 	0.80390 0.57780 0.39460 -0.15600
C 	C 	0.82680 0.53400 0.11570 -0.27000
H 	H 	0.82360 0.49750 0.10830 0.08200
H 	H 	0.79270 0.53130 0.08620 0.09400
Ag	Ag	0.59866 0.85437 0.52370 0.52800
C 	C 	0.62977 0.94093 0.32423 0.00200
H 	H 	0.66247 0.93903 0.32313 0.00800
C 	C 	0.46627 0.89833 0.62233 -0.05900
H 	H 	0.43877 0.89973 0.57873 0.03300
N 	N 	0.58607 0.90363 0.38213 -0.18300
N 	N 	0.58307 0.98743 0.26613 -0.14900
C 	C 	0.49977 0.88343 0.57283 0.11700
C 	C 	0.54637 0.89643 0.73153 0.02400
H 	H 	0.57567 0.89693 0.77213 0.01000
C 	C 	0.62717 0.98263 0.26543 -0.00400
H 	H 	0.65827 0.00833 0.22383 0.02300
C 	C 	0.54067 0.90773 0.38203 0.11600
N 	N 	0.53997 0.88243 0.62763 -0.17500
C 	C 	0.54077 0.94993 0.32283 -0.05800
H 	H 	0.50807 0.95193 0.32293 0.03200
C 	C 	0.51217 0.91103 0.78623 -0.02600
H 	H 	0.51747 0.92063 0.86333 0.01200
N 	N 	0.47057 0.91113 0.72793 -0.15600
C 	C 	0.49347 0.86733 0.44903 -0.27000
H 	H 	0.49027 0.83083 0.44163 0.08200
H 	H 	0.45937 0.86463 0.41953 0.09400
Ag	Ag	0.26532 0.18771 0.85704 0.52800
C 	C 	0.29643 0.27427 0.65757 0.00200
H 	H 	0.32913 0.27237 0.65647 0.00800
C 	C 	0.13293 0.23167 0.95567 -0.05900
H 	H 	0.10543 0.23307 0.91207 0.03300
N 	N 	0.25273 0.23697 0.71547 -0.18300
N 	N 	0.24973 0.32077 0.59947 -0.14900
C 	C 	0.16643 0.21677 0.90617 0.11700
C 	C 	0.21303 0.22977 0.06487 0.02400
H 	H 	0.24233 0.23027 0.10547 0.01000
C 	C 	0.29383 0.31597 0.59877 -0.00400
H 	H 	0.32493 0.34167 0.55717 0.02300
C 	C 	0.20733 0.24107 0.71537 0.11600
N 	N 	0.20663 0.21577 0.96097 -0.17500
C 	C 	0.20743 0.28327 0.65617 -0.05800
H 	H 	0.17473 0.28527 0.65627 0.03200
C 	C 	0.17883 0.24437 0.11957 -0.02600
H 	H 	0.18413 0.25397 0.19667 0.01200
N 	N 	0.13723 0.24447 0.06127 -0.15600
C 	C 	0.16013 0.20067 0.78237 -0.27000
H 	H 	0.15693 0.16417 0.77497 0.08200
H 	H 	0.12603 0.19797 0.75287 0.09400
Ag	Ag	0.47896 0.41095 0.19037 0.52800
C 	C 	0.39240 0.35550 0.99090 0.00200
H 	H 	0.39430 0.39010 0.98980 0.00800
C 	C 	0.43500 0.23460 0.28900 -0.05900
H 	H 	0.43360 0.20570 0.24540 0.03300
N 	N 	0.42970 0.34910 0.04880 -0.18300
N 	N 	0.34590 0.26230 0.93280 -0.14900
C 	C 	0.44990 0.28300 0.23950 0.11700
C 	C 	0.43690 0.31660 0.39820 0.02400
H 	H 	0.43640 0.34540 0.43880 0.01000
C 	C 	0.35070 0.31120 0.93210 -0.00400
H 	H 	0.32500 0.31660 0.89050 0.02300
C 	C 	0.42560 0.29960 0.04870 0.11600
N 	N 	0.45090 0.32420 0.29430 -0.17500
C 	C 	0.38340 0.25750 0.98950 -0.05800
H 	H 	0.38140 0.22280 0.98960 0.03200
C 	C 	0.42230 0.26780 0.45290 -0.02600
H 	H 	0.41270 0.26350 0.53000 0.01200
N 	N 	0.42220 0.22610 0.39460 -0.15600
C 	C 	0.46600 0.29280 0.11570 -0.27000
H 	H 	0.50250 0.32610 0.10830 0.08200
H 	H 	0.46870 0.26140 0.08620 0.09400
Ag	Ag	0.14563 0.74428 0.52370 0.52800
C 	C 	0.05907 0.68883 0.32423 0.00200
H 	H 	0.06097 0.72343 0.32313 0.00800
C 	C 	0.10167 0.56793 0.62233 -0.05900
H 	H 	0.10027 0.53903 0.57873 0.03300
N 	N 	0.09637 0.68243 0.38213 -0.18300
N 	N 	0.01257 0.59563 0.26613 -0.14900
C 	C 	0.11657 0.61633 0.57283 0.11700
C 	C 	0.10357 0.64993 0.73153 0.02400
H 	H 	0.10307 0.67873 0.77213 0.01000
C 	C 	0.01737 0.64453 0.26543 -0.00400
H 	H 	0.99167 0.64993 0.22383 0.02300
C 	C 	0.09227 0.63293 0.38203 0.11600
N 	N 	0.11757 0.65753 0.62763 -0.17500
C 	C 	0.05007 0.59083 0.32283 -0.05800
H 	H 	0.04807 0.55613 0.32293 0.03200
C 	C 	0.08897 0.60113 0.78623 -0.02600
H 	H 	0.07937 0.59683 0.86333 0.01200
N 	N 	0.08887 0.55943 0.72793 -0.15600
C 	C 	0.13267 0.62613 0.44903 -0.27000
H 	H 	0.16917 0.65943 0.44163 0.08200
H 	H 	0.13537 0.59473 0.41953 0.09400
Ag	Ag	0.81229 0.07762 0.85704 0.52800
C 	C 	0.72573 0.02217 0.65757 0.00200
H 	H 	0.72763 0.05677 0.65647 0.00800
C 	C 	0.76833 0.90127 0.95567 -0.05900
H 	H 	0.76693 0.87237 0.91207 0.03300
N 	N 	0.76303 0.01577 0.71547 -0.18300
N 	N 	0.67923 0.92897 0.59947 -0.14900
C 	C 	0.78323 0.94967 0.90617 0.11700
C 	C 	0.77023 0.98327 0.06487 0.02400
H 	H 	0.76973 0.01207 0.10547 0.01000
C 	C 	0.68403 0.97787 0.59877 -0.00400
H 	H 	0.65833 0.98327 0.55717 0.02300
C 	C 	0.75893 0.96627 0.71537 0.11600
N 	N 	0.78423 0.99087 0.96097 -0.17500
C 	C 	0.71673 0.92417 0.65617 -0.05800
H 	H 	0.71473 0.88947 0.65627 0.03200
C 	C 	0.75563 0.93447 0.11957 -0.02600
H 	H 	0.74603 0.93017 0.19667 0.01200
N 	N 	0.75553 0.89277 0.06127 -0.15600
C 	C 	0.79933 0.95947 0.78237 -0.27000
H 	H 	0.83583 0.99277 0.77497 0.08200
H 	H 	0.80203 0.92807 0.75287 0.09400
Ag	Ag	0.41095 0.93199 0.80963 0.52800
C 	C 	0.35550 0.96310 0.00910 0.00200
H 	H 	0.39010 0.99580 0.01020 0.00800
C 	C 	0.23460 0.79960 0.71100 -0.05900
H 	H 	0.20570 0.77210 0.75460 0.03300
N 	N 	0.34910 0.91940 0.95120 -0.18300
N 	N 	0.26230 0.91640 0.06720 -0.14900
C 	C 	0.28300 0.83310 0.76050 0.11700
C 	C 	0.31660 0.87970 0.60180 0.02400
H 	H 	0.34540 0.90900 0.56120 0.01000
C 	C 	0.31120 0.96050 0.06790 -0.00400
H 	H 	0.31660 0.99160 0.10950 0.02300
C 	C 	0.29960 0.87400 0.95130 0.11600
N 	N 	0.32420 0.87330 0.70570 -0.17500
C 	C 	0.25750 0.87410 0.01050 -0.05800
H 	H 	0.22280 0.84140 0.01040 0.03200
C 	C 	0.26780 0.84550 0.54710 -0.02600
H 	H 	0.26350 0.85080 0.47000 0.01200
N 	N 	0.22610 0.80390 0.60540 -0.15600
C 	C 	0.29280 0.82680 0.88430 -0.27000
H 	H 	0.32610 0.82360 0.89170 0.08200
H 	H 	0.26140 0.79270 0.91380 0.09400
Ag	Ag	0.07762 0.26532 0.14296 0.52800
C 	C 	0.02217 0.29643 0.34243 0.00200
H 	H 	0.05677 0.32913 0.34353 0.00800
C 	C 	0.90127 0.13293 0.04433 -0.05900
H 	H 	0.87237 0.10543 0.08793 0.03300
N 	N 	0.01577 0.25273 0.28453 -0.18300
N 	N 	0.92897 0.24973 0.40053 -0.14900
C 	C 	0.94967 0.16643 0.09383 0.11700
C 	C 	0.98327 0.21303 0.93513 0.02400
H 	H 	0.01207 0.24233 0.89453 0.01000
C 	C 	0.97787 0.29383 0.40123 -0.00500
H 	H 	0.98327 0.32493 0.44283 0.02300
C 	C 	0.96627 0.20733 0.28463 0.11600
N 	N 	0.99087 0.20663 0.03903 -0.17500
C 	C 	0.92417 0.20743 0.34383 -0.05800
H 	H 	0.88947 0.17473 0.34373 0.03200
C 	C 	0.93447 0.17883 0.88043 -0.02600
H 	H 	0.93017 0.18413 0.80333 0.01200
N 	N 	0.89277 0.13723 0.93873 -0.15600
C 	C 	0.95947 0.16013 0.21763 -0.27000
H 	H 	0.99277 0.15693 0.22503 0.08200
H 	H 	0.92807 0.12603 0.24713 0.09400
Ag	Ag	0.74428 0.59866 0.47630 0.52800
C 	C 	0.68883 0.62977 0.67577 0.00200
H 	H 	0.72343 0.66247 0.67687 0.00800
C 	C 	0.56793 0.46627 0.37767 -0.05900
H 	H 	0.53903 0.43877 0.42127 0.03300
N 	N 	0.68243 0.58607 0.61787 -0.18300
N 	N 	0.59563 0.58307 0.73387 -0.14900
C 	C 	0.61633 0.49977 0.42717 0.11700
C 	C 	0.64993 0.54637 0.26847 0.02400
H 	H 	0.67873 0.57567 0.22787 0.01000
C 	C 	0.64453 0.62717 0.73457 -0.00400
H 	H 	0.64993 0.65827 0.77617 0.02300
C 	C 	0.63293 0.54067 0.61797 0.11600
N 	N 	0.65753 0.53997 0.37237 -0.17500
C 	C 	0.59083 0.54077 0.67717 -0.05800
H 	H 	0.55613 0.50807 0.67707 0.03200
C 	C 	0.60113 0.51217 0.21377 -0.02600
H 	H 	0.59683 0.51747 0.13667 0.01200
N 	N 	0.55943 0.47057 0.27207 -0.15600
C 	C 	0.62613 0.49347 0.55097 -0.27000
H 	H 	0.65943 0.49027 0.55837 0.08200
H 	H 	0.59473 0.45937 0.58047 0.09400
Ag	Ag	0.06801 0.47896 0.80963 0.52800
C 	C 	0.03690 0.39240 0.00910 0.00200
H 	H 	0.00420 0.39430 0.01020 0.00800
C 	C 	0.20040 0.43500 0.71100 -0.05900
H 	H 	0.22790 0.43360 0.75460 0.03300
N 	N 	0.08060 0.42970 0.95120 -0.18300
N 	N 	0.08360 0.34590 0.06720 -0.14900
C 	C 	0.16690 0.44990 0.76050 0.11700
C 	C 	0.12030 0.43690 0.60180 0.02400
H 	H 	0.09100 0.43640 0.56120 0.01000
C 	C 	0.03950 0.35070 0.06790 -0.00400
H 	H 	0.00840 0.32500 0.10950 0.02300
C 	C 	0.12600 0.42560 0.95130 0.11600
N 	N 	0.12670 0.45090 0.70570 -0.17500
C 	C 	0.12590 0.38340 0.01050 -0.05800
H 	H 	0.15860 0.38140 0.01040 0.03200
C 	C 	0.15450 0.42230 0.54710 -0.02600
H 	H 	0.14920 0.41270 0.47000 0.01200
N 	N 	0.19610 0.42220 0.60540 -0.15600
C 	C 	0.17320 0.46600 0.88430 -0.27000
H 	H 	0.17640 0.50250 0.89170 0.08200
H 	H 	0.20730 0.46870 0.91380 0.09400
Ag	Ag	0.73468 0.81229 0.14296 0.52800
C 	C 	0.70357 0.72573 0.34243 0.00200
H 	H 	0.67087 0.72763 0.34353 0.00800
C 	C 	0.86707 0.76833 0.04433 -0.05900
H 	H 	0.89457 0.76693 0.08793 0.03300
N 	N 	0.74727 0.76303 0.28453 -0.18300
N 	N 	0.75027 0.67923 0.40053 -0.14900
C 	C 	0.83357 0.78323 0.09383 0.11700
C 	C 	0.78697 0.77023 0.93513 0.02400
H 	H 	0.75767 0.76973 0.89453 0.01000
C 	C 	0.70617 0.68403 0.40123 -0.00400
H 	H 	0.67507 0.65833 0.44283 0.02300
C 	C 	0.79267 0.75893 0.28463 0.11600
N 	N 	0.79337 0.78423 0.03903 -0.17500
C 	C 	0.79257 0.71673 0.34383 -0.05800
H 	H 	0.82527 0.71473 0.34373 0.03200
C 	C 	0.82117 0.75563 0.88043 -0.02600
H 	H 	0.81587 0.74603 0.80333 0.01200
N 	N 	0.86277 0.75553 0.93873 -0.15600
C 	C 	0.83987 0.79933 0.21763 -0.27000
H 	H 	0.84307 0.83583 0.22503 0.08200
H 	H 	0.87397 0.80203 0.24713 0.09400
Ag	Ag	0.40134 0.14563 0.47630 0.52800
C 	C 	0.37023 0.05907 0.67577 0.00200
H 	H 	0.33753 0.06097 0.67687 0.00800
C 	C 	0.53373 0.10167 0.37767 -0.05900
H 	H 	0.56123 0.10027 0.42127 0.03300
N 	N 	0.41393 0.09637 0.61787 -0.18300
N 	N 	0.41693 0.01257 0.73387 -0.14900
C 	C 	0.50023 0.11657 0.42717 0.11700
C 	C 	0.45363 0.10357 0.26847 0.02400
H 	H 	0.42433 0.10307 0.22787 0.01000
C 	C 	0.37283 0.01737 0.73457 -0.00400
H 	H 	0.34173 0.99167 0.77617 0.02300
C 	C 	0.45933 0.09227 0.61797 0.11600
N 	N 	0.46003 0.11757 0.37237 -0.17500
C 	C 	0.45923 0.05007 0.67717 -0.05800
H 	H 	0.49193 0.04807 0.67707 0.03200
C 	C 	0.48783 0.08897 0.21377 -0.02600
H 	H 	0.48253 0.07937 0.13667 0.01200
N 	N 	0.52943 0.08887 0.27207 -0.15600
C 	C 	0.50653 0.13267 0.55097 -0.27000
H 	H 	0.50973 0.16917 0.55837 0.08200
H 	H 	0.54063 0.13537 0.58047 0.09400
Ag	Ag	0.52104 0.58905 0.80963 0.52800
C 	C 	0.60760 0.64450 0.00910 0.00200
H 	H 	0.60570 0.60990 0.01020 0.00800
C 	C 	0.56500 0.76540 0.71100 -0.05900
H 	H 	0.56640 0.79430 0.75460 0.03300
N 	N 	0.57030 0.65090 0.95120 -0.18300
N 	N 	0.65410 0.73770 0.06720 -0.14900
C 	C 	0.55010 0.71700 0.76050 0.11700
C 	C 	0.56310 0.68340 0.60180 0.02400
H 	H 	0.56360 0.65460 0.56120 0.01000
C 	C 	0.64930 0.68880 0.06790 -0.00400
H 	H 	0.67500 0.68340 0.10950 0.02300
C 	C 	0.57440 0.70040 0.95130 0.11600
N 	N 	0.54910 0.67580 0.70570 -0.17500
C 	C 	0.61660 0.74250 0.01050 -0.05800
H 	H 	0.61860 0.77720 0.01040 0.03200
C 	C 	0.57770 0.73220 0.54710 -0.02600
H 	H 	0.58730 0.73650 0.47000 0.01200
N 	N 	0.57780 0.77390 0.60540 -0.15600
C 	C 	0.53400 0.70720 0.88430 -0.27000
H 	H 	0.49750 0.67390 0.89170 0.08200
H 	H 	0.53130 0.73860 0.91380 0.09400
Ag	Ag	0.18771 0.92238 0.14296 0.52800
C 	C 	0.27427 0.97783 0.34243 0.00200
H 	H 	0.27237 0.94323 0.34353 0.00800
C 	C 	0.23167 0.09873 0.04433 -0.05900
H 	H 	0.23307 0.12763 0.08793 0.03300
N 	N 	0.23697 0.98423 0.28453 -0.18300
N 	N 	0.32077 0.07103 0.40053 -0.14900
C 	C 	0.21677 0.05033 0.09383 0.11700
C 	C 	0.22977 0.01673 0.93513 0.02400
H 	H 	0.23027 0.98793 0.89453 0.01000
C 	C 	0.31597 0.02213 0.40123 -0.00400
H 	H 	0.34167 0.01673 0.44283 0.02300
C 	C 	0.24107 0.03373 0.28463 0.11600
N 	N 	0.21577 0.00913 0.03903 -0.17500
C 	C 	0.28327 0.07583 0.34383 -0.05800
H 	H 	0.28527 0.11053 0.34373 0.03200
C 	C 	0.24437 0.06553 0.88043 -0.02600
H 	H 	0.25397 0.06983 0.80333 0.01200
N 	N 	0.24447 0.10723 0.93873 -0.15600
C 	C 	0.20067 0.04053 0.21763 -0.27000
H 	H 	0.16417 0.00723 0.22503 0.08200
H 	H 	0.19797 0.07193 0.24713 0.09400
Ag	Ag	0.85437 0.25572 0.47630 0.52800
C 	C 	0.94093 0.31117 0.67577 0.00200
H 	H 	0.93903 0.27657 0.67687 0.00800
C 	C 	0.89833 0.43207 0.37767 -0.05900
H 	H 	0.89973 0.46097 0.42127 0.03300
N 	N 	0.90363 0.31757 0.61787 -0.18300
N 	N 	0.98743 0.40437 0.73387 -0.14900
C 	C 	0.88343 0.38367 0.42717 0.11700
C 	C 	0.89643 0.35007 0.26847 0.02400
H 	H 	0.89693 0.32127 0.22787 0.01000
C 	C 	0.98263 0.35547 0.73457 -0.00400
H 	H 	0.00833 0.35007 0.77617 0.02300
C 	C 	0.90773 0.36707 0.61797 0.11600
N 	N 	0.88243 0.34247 0.37237 -0.17500
C 	C 	0.94993 0.40917 0.67717 -0.05800
H 	H 	0.95193 0.44387 0.67707 0.03200
C 	C 	0.91103 0.39887 0.21377 -0.02600
H 	H 	0.92063 0.40317 0.13667 0.01200
N 	N 	0.91113 0.44057 0.27207 -0.15600
C 	C 	0.86733 0.37387 0.55097 -0.27000
H 	H 	0.83083 0.34057 0.55837 0.08200
H 	H 	0.86463 0.40527 0.58047 0.09400
