data_crystal

_cell_length_a 28.12300
_cell_length_b 28.12300
_cell_length_c 14.43600
_cell_angle_alpha 90.00000
_cell_angle_beta  90.00000
_cell_angle_gamma 120.00000

_symmetry_space_group_name_	'P 1'
_symmetry_space_group_name_H-M	'P 1'

loop_
_symmetry_equiv_pos_as_xyz
  x,y,z

loop_
_atom_site_label
_atom_site_type_symbol
_atom_site_fract_x
_atom_site_fract_y
_atom_site_fract_z
_atom_site_charge
Ag	Ag	0.79960 0.07384 0.39670 0.53200
N 	N 	0.74320 0.88080 0.54840 -0.16500
C 	C 	0.75790 0.89160 0.45860 -0.05700
H 	H 	0.75700 0.86370 0.42020 0.03300
N 	N 	0.75120 0.01400 0.28080 -0.18100
C 	C 	0.74510 0.92000 0.59620 0.01300
H 	H 	0.73660 0.91350 0.66030 -0.00100
N 	N 	0.67690 0.93490 0.15790 -0.14700
N 	N 	0.77570 0.98400 0.47240 -0.16900
C 	C 	0.67720 0.98210 0.16830 -0.00100
H 	H 	0.65220 0.98850 0.13380 0.02000
C 	C 	0.74900 0.96630 0.26530 0.11100
C 	C 	0.71480 0.92700 0.20520 -0.06900
H 	H 	0.71690 0.89470 0.19600 0.03800
C 	C 	0.77520 0.94610 0.41990 0.12300
C 	C 	0.79240 0.95790 0.32410 -0.26700
H 	H 	0.79560 0.92710 0.29770 0.09400
H 	H 	0.82890 0.99150 0.32060 0.08300
C 	C 	0.75860 0.97100 0.56170 -0.01200
H 	H 	0.75590 0.99700 0.60020 0.02500
C 	C 	0.71240 0.02080 0.22680 -0.01400
H 	H 	0.71150 0.05400 0.23250 0.01400
Ag	Ag	0.46627 0.40717 0.73003 0.53100
N 	N 	0.40987 0.21413 0.88173 -0.16600
C 	C 	0.42457 0.22493 0.79193 -0.05800
H 	H 	0.42367 0.19703 0.75353 0.03200
N 	N 	0.41787 0.34733 0.61413 -0.18100
C 	C 	0.41177 0.25333 0.92953 0.01300
H 	H 	0.40327 0.24683 0.99363 -0.00100
N 	N 	0.34357 0.26823 0.49123 -0.14700
N 	N 	0.44237 0.31733 0.80573 -0.16900
C 	C 	0.34387 0.31543 0.50163 -0.00000
H 	H 	0.31887 0.32183 0.46713 0.02000
C 	C 	0.41567 0.29963 0.59863 0.11200
C 	C 	0.38147 0.26033 0.53853 -0.06900
H 	H 	0.38357 0.22803 0.52933 0.03800
C 	C 	0.44187 0.27943 0.75323 0.12300
C 	C 	0.45907 0.29123 0.65743 -0.26800
H 	H 	0.46227 0.26043 0.63103 0.09400
H 	H 	0.49557 0.32483 0.65393 0.08300
C 	C 	0.42527 0.30433 0.89503 -0.01200
H 	H 	0.42257 0.33033 0.93353 0.02500
C 	C 	0.37907 0.35413 0.56013 -0.01500
H 	H 	0.37817 0.38733 0.56583 0.01400
Ag	Ag	0.13293 0.74051 0.06337 0.53100
N 	N 	0.07653 0.54747 0.21507 -0.16600
C 	C 	0.09123 0.55827 0.12527 -0.05800
H 	H 	0.09033 0.53037 0.08687 0.03200
N 	N 	0.08453 0.68067 0.94747 -0.18100
C 	C 	0.07843 0.58667 0.26287 0.01300
H 	H 	0.06993 0.58017 0.32697 -0.00100
N 	N 	0.01023 0.60157 0.82457 -0.14700
N 	N 	0.10903 0.65067 0.13907 -0.16900
C 	C 	0.01053 0.64877 0.83497 0.00100
H 	H 	0.98553 0.65517 0.80047 0.02000
C 	C 	0.08233 0.63297 0.93197 0.11200
C 	C 	0.04813 0.59367 0.87187 -0.06800
H 	H 	0.05023 0.56137 0.86267 0.03800
C 	C 	0.10853 0.61277 0.08657 0.12200
C 	C 	0.12573 0.62457 0.99077 -0.26600
H 	H 	0.12893 0.59377 0.96437 0.09300
H 	H 	0.16223 0.65817 0.98727 0.08300
C 	C 	0.09193 0.63767 0.22837 -0.01200
H 	H 	0.08923 0.66367 0.26687 0.02500
C 	C 	0.04573 0.68747 0.89347 -0.01500
H 	H 	0.04483 0.72067 0.89917 0.01500
Ag	Ag	0.92616 0.72576 0.39670 0.53100
N 	N 	0.11920 0.86240 0.54840 -0.16600
C 	C 	0.10840 0.86630 0.45860 -0.05800
H 	H 	0.13630 0.89330 0.42020 0.03200
N 	N 	0.98600 0.73720 0.28080 -0.18100
C 	C 	0.08000 0.82510 0.59620 0.01300
H 	H 	0.08650 0.82310 0.66030 -0.00100
N 	N 	0.06510 0.74200 0.15790 -0.14700
N 	N 	0.01600 0.79170 0.47240 -0.16900
C 	C 	0.01790 0.69510 0.16830 -0.00100
H 	H 	0.01150 0.66370 0.13380 0.02000
C 	C 	0.03370 0.78270 0.26530 0.11100
C 	C 	0.07300 0.78780 0.20520 -0.06900
H 	H 	0.10530 0.82220 0.19600 0.03800
C 	C 	0.05390 0.82910 0.41990 0.12300
C 	C 	0.04210 0.83450 0.32410 -0.26700
H 	H 	0.07290 0.86850 0.29770 0.09300
H 	H 	0.00850 0.83740 0.32060 0.08300
C 	C 	0.02900 0.78760 0.56170 -0.01200
H 	H 	0.00300 0.75890 0.60020 0.02500
C 	C 	0.97920 0.69160 0.22680 -0.01400
H 	H 	0.94600 0.65750 0.23250 0.01400
Ag	Ag	0.59283 0.05909 0.73003 0.53100
N 	N 	0.78587 0.19573 0.88173 -0.16600
C 	C 	0.77507 0.19963 0.79193 -0.05800
H 	H 	0.80297 0.22663 0.75353 0.03200
N 	N 	0.65267 0.07053 0.61413 -0.18100
C 	C 	0.74667 0.15843 0.92953 0.01300
H 	H 	0.75317 0.15643 0.99363 -0.00100
N 	N 	0.73177 0.07533 0.49123 -0.14700
N 	N 	0.68267 0.12503 0.80573 -0.16900
C 	C 	0.68457 0.02843 0.50163 -0.00000
H 	H 	0.67817 0.99703 0.46713 0.02000
C 	C 	0.70037 0.11603 0.59863 0.11200
C 	C 	0.73967 0.12113 0.53853 -0.06900
H 	H 	0.77197 0.15553 0.52933 0.03800
C 	C 	0.72057 0.16243 0.75323 0.12300
C 	C 	0.70877 0.16783 0.65743 -0.26800
H 	H 	0.73957 0.20183 0.63103 0.09400
H 	H 	0.67517 0.17073 0.65393 0.08300
C 	C 	0.69567 0.12093 0.89503 -0.01200
H 	H 	0.66967 0.09223 0.93353 0.02500
C 	C 	0.64587 0.02493 0.56013 -0.01500
H 	H 	0.61267 0.99083 0.56583 0.01400
Ag	Ag	0.25949 0.39243 0.06337 0.53100
N 	N 	0.45253 0.52907 0.21507 -0.16600
C 	C 	0.44173 0.53297 0.12527 -0.05800
H 	H 	0.46963 0.55997 0.08687 0.03200
N 	N 	0.31933 0.40387 0.94747 -0.18100
C 	C 	0.41333 0.49177 0.26287 0.01300
H 	H 	0.41983 0.48977 0.32697 -0.00100
N 	N 	0.39843 0.40867 0.82457 -0.14700
N 	N 	0.34933 0.45837 0.13907 -0.16900
C 	C 	0.35123 0.36177 0.83497 -0.00000
H 	H 	0.34483 0.33037 0.80047 0.02000
C 	C 	0.36703 0.44937 0.93197 0.11200
C 	C 	0.40633 0.45447 0.87187 -0.06800
H 	H 	0.43863 0.48887 0.86267 0.03800
C 	C 	0.38723 0.49577 0.08657 0.12300
C 	C 	0.37543 0.50117 0.99077 -0.26700
H 	H 	0.40623 0.53517 0.96437 0.09400
H 	H 	0.34183 0.50407 0.98727 0.08300
C 	C 	0.36233 0.45427 0.22837 -0.01200
H 	H 	0.33633 0.42557 0.26687 0.02500
C 	C 	0.31253 0.35827 0.89347 -0.01500
H 	H 	0.27933 0.32417 0.89917 0.01400
Ag	Ag	0.27424 0.20040 0.39670 0.53100
N 	N 	0.13760 0.25680 0.54840 -0.16600
C 	C 	0.13370 0.24210 0.45860 -0.05800
H 	H 	0.10670 0.24300 0.42020 0.03200
N 	N 	0.26280 0.24880 0.28080 -0.18100
C 	C 	0.17490 0.25490 0.59620 0.01300
H 	H 	0.17690 0.26340 0.66030 -0.00100
N 	N 	0.25800 0.32310 0.15790 -0.14700
N 	N 	0.20830 0.22430 0.47240 -0.16900
C 	C 	0.30490 0.32280 0.16830 -0.00000
H 	H 	0.33630 0.34780 0.13380 0.02000
C 	C 	0.21730 0.25100 0.26530 0.11200
C 	C 	0.21220 0.28520 0.20520 -0.06900
H 	H 	0.17780 0.28310 0.19600 0.03800
C 	C 	0.17090 0.22480 0.41990 0.12300
C 	C 	0.16550 0.20760 0.32410 -0.26700
H 	H 	0.13150 0.20440 0.29770 0.09400
H 	H 	0.16260 0.17110 0.32060 0.08300
C 	C 	0.21240 0.24140 0.56170 -0.01200
H 	H 	0.24110 0.24410 0.60020 0.02500
C 	C 	0.30840 0.28760 0.22680 -0.01500
H 	H 	0.34250 0.28850 0.23250 0.01400
Ag	Ag	0.94091 0.53373 0.73003 0.53100
N 	N 	0.80427 0.59013 0.88173 -0.16600
C 	C 	0.80037 0.57543 0.79193 -0.05800
H 	H 	0.77337 0.57633 0.75353 0.03200
N 	N 	0.92947 0.58213 0.61413 -0.18100
C 	C 	0.84157 0.58823 0.92953 0.01300
H 	H 	0.84357 0.59673 0.99363 -0.00100
N 	N 	0.92467 0.65643 0.49123 -0.14700
N 	N 	0.87497 0.55763 0.80573 -0.16900
C 	C 	0.97157 0.65613 0.50163 -0.00000
H 	H 	0.00297 0.68113 0.46713 0.02000
C 	C 	0.88397 0.58433 0.59863 0.11200
C 	C 	0.87887 0.61853 0.53853 -0.06900
H 	H 	0.84447 0.61643 0.52933 0.03800
C 	C 	0.83757 0.55813 0.75323 0.12300
C 	C 	0.83217 0.54093 0.65743 -0.26800
H 	H 	0.79817 0.53773 0.63103 0.09400
H 	H 	0.82927 0.50443 0.65393 0.08300
C 	C 	0.87907 0.57473 0.89503 -0.01200
H 	H 	0.90777 0.57743 0.93353 0.02500
C 	C 	0.97507 0.62093 0.56013 -0.01500
H 	H 	0.00917 0.62183 0.56583 0.01400
Ag	Ag	0.60757 0.86707 0.06337 0.53100
N 	N 	0.47093 0.92347 0.21507 -0.16600
C 	C 	0.46703 0.90877 0.12527 -0.05800
H 	H 	0.44003 0.90967 0.08687 0.03200
N 	N 	0.59613 0.91547 0.94747 -0.18100
C 	C 	0.50823 0.92157 0.26287 0.01300
H 	H 	0.51023 0.93007 0.32697 -0.00100
N 	N 	0.59133 0.98977 0.82457 -0.14700
N 	N 	0.54163 0.89097 0.13907 -0.16900
C 	C 	0.63823 0.98947 0.83497 0.00100
H 	H 	0.66963 0.01447 0.80047 0.02000
C 	C 	0.55063 0.91767 0.93197 0.11200
C 	C 	0.54553 0.95187 0.87187 -0.06800
H 	H 	0.51113 0.94977 0.86267 0.03800
C 	C 	0.50423 0.89147 0.08657 0.12200
C 	C 	0.49883 0.87427 0.99077 -0.26700
H 	H 	0.46483 0.87107 0.96437 0.09400
H 	H 	0.49593 0.83777 0.98727 0.08300
C 	C 	0.54573 0.90807 0.22837 -0.01200
H 	H 	0.57443 0.91077 0.26687 0.02500
C 	C 	0.64173 0.95427 0.89347 -0.01600
H 	H 	0.67583 0.95517 0.89917 0.01500
Ag	Ag	0.20040 0.92616 0.60330 0.53100
N 	N 	0.25680 0.11920 0.45160 -0.16600
C 	C 	0.24210 0.10840 0.54140 -0.05800
H 	H 	0.24300 0.13630 0.57980 0.03200
N 	N 	0.24880 0.98600 0.71920 -0.18100
C 	C 	0.25490 0.08000 0.40380 0.01300
H 	H 	0.26340 0.08650 0.33970 -0.00100
N 	N 	0.32310 0.06510 0.84210 -0.14700
N 	N 	0.22430 0.01600 0.52760 -0.16900
C 	C 	0.32280 0.01790 0.83170 -0.00100
H 	H 	0.34780 0.01150 0.86620 0.02000
C 	C 	0.25100 0.03370 0.73470 0.11100
C 	C 	0.28520 0.07300 0.79480 -0.06900
H 	H 	0.28310 0.10530 0.80400 0.03800
C 	C 	0.22480 0.05390 0.58010 0.12300
C 	C 	0.20760 0.04210 0.67590 -0.26700
H 	H 	0.20440 0.07290 0.70230 0.09400
H 	H 	0.17110 0.00850 0.67940 0.08300
C 	C 	0.24140 0.02900 0.43830 -0.01200
H 	H 	0.24410 0.00300 0.39980 0.02500
C 	C 	0.28760 0.97920 0.77320 -0.01400
H 	H 	0.28850 0.94600 0.76750 0.01400
Ag	Ag	0.86707 0.25949 0.93663 0.53100
N 	N 	0.92347 0.45253 0.78493 -0.16600
C 	C 	0.90877 0.44173 0.87473 -0.05800
H 	H 	0.90967 0.46963 0.91313 0.03200
N 	N 	0.91547 0.31933 0.05253 -0.18100
C 	C 	0.92157 0.41333 0.73713 0.01300
H 	H 	0.93007 0.41983 0.67303 -0.00100
N 	N 	0.98977 0.39843 0.17543 -0.14700
N 	N 	0.89097 0.34933 0.86093 -0.16900
C 	C 	0.98947 0.35123 0.16503 0.00100
H 	H 	0.01447 0.34483 0.19953 0.02000
C 	C 	0.91767 0.36703 0.06803 0.11200
C 	C 	0.95187 0.40633 0.12813 -0.06800
H 	H 	0.94977 0.43863 0.13733 0.03800
C 	C 	0.89147 0.38723 0.91343 0.12200
C 	C 	0.87427 0.37543 0.00923 -0.26600
H 	H 	0.87107 0.40623 0.03563 0.09300
H 	H 	0.83777 0.34183 0.01273 0.08300
C 	C 	0.90807 0.36233 0.77163 -0.01200
H 	H 	0.91077 0.33633 0.73313 0.02500
C 	C 	0.95427 0.31253 0.10653 -0.01500
H 	H 	0.95517 0.27933 0.10083 0.01500
Ag	Ag	0.53373 0.59283 0.26997 0.53100
N 	N 	0.59013 0.78587 0.11827 -0.16600
C 	C 	0.57543 0.77507 0.20807 -0.05800
H 	H 	0.57633 0.80297 0.24647 0.03200
N 	N 	0.58213 0.65267 0.38587 -0.18100
C 	C 	0.58823 0.74667 0.07047 0.01300
H 	H 	0.59673 0.75317 0.00637 -0.00100
N 	N 	0.65643 0.73177 0.50877 -0.14700
N 	N 	0.55763 0.68267 0.19427 -0.16900
C 	C 	0.65613 0.68457 0.49837 -0.00000
H 	H 	0.68113 0.67817 0.53287 0.02000
C 	C 	0.58433 0.70037 0.40137 0.11200
C 	C 	0.61853 0.73967 0.46147 -0.06900
H 	H 	0.61643 0.77197 0.47067 0.03800
C 	C 	0.55813 0.72057 0.24677 0.12300
C 	C 	0.54093 0.70877 0.34257 -0.26800
H 	H 	0.53773 0.73957 0.36897 0.09400
H 	H 	0.50443 0.67517 0.34607 0.08300
C 	C 	0.57473 0.69567 0.10497 -0.01200
H 	H 	0.57743 0.66967 0.06647 0.02500
C 	C 	0.62093 0.64587 0.43987 -0.01500
H 	H 	0.62183 0.61267 0.43417 0.01400
Ag	Ag	0.07384 0.27424 0.60330 0.53100
N 	N 	0.88080 0.13760 0.45160 -0.16600
C 	C 	0.89160 0.13370 0.54140 -0.05800
H 	H 	0.86370 0.10670 0.57980 0.03200
N 	N 	0.01400 0.26280 0.71920 -0.18100
C 	C 	0.92000 0.17490 0.40380 0.01300
H 	H 	0.91350 0.17690 0.33970 -0.00100
N 	N 	0.93490 0.25800 0.84210 -0.14700
N 	N 	0.98400 0.20830 0.52760 -0.16900
C 	C 	0.98210 0.30490 0.83170 -0.00100
H 	H 	0.98850 0.33630 0.86620 0.02000
C 	C 	0.96630 0.21730 0.73470 0.11100
C 	C 	0.92700 0.21220 0.79480 -0.06900
H 	H 	0.89470 0.17780 0.80400 0.03800
C 	C 	0.94610 0.17090 0.58010 0.12300
C 	C 	0.95790 0.16550 0.67590 -0.26700
H 	H 	0.92710 0.13150 0.70230 0.09300
H 	H 	0.99150 0.16260 0.67940 0.08300
C 	C 	0.97100 0.21240 0.43830 -0.01200
H 	H 	0.99700 0.24110 0.39980 0.02500
C 	C 	0.02080 0.30840 0.77320 -0.01400
H 	H 	0.05400 0.34250 0.76750 0.01400
Ag	Ag	0.74051 0.60757 0.93663 0.53100
N 	N 	0.54747 0.47093 0.78493 -0.16600
C 	C 	0.55827 0.46703 0.87473 -0.05800
H 	H 	0.53037 0.44003 0.91313 0.03200
N 	N 	0.68067 0.59613 0.05253 -0.18100
C 	C 	0.58667 0.50823 0.73713 0.01300
H 	H 	0.58017 0.51023 0.67303 -0.00100
N 	N 	0.60157 0.59133 0.17543 -0.14700
N 	N 	0.65067 0.54163 0.86093 -0.16900
C 	C 	0.64877 0.63823 0.16503 -0.00000
H 	H 	0.65517 0.66963 0.19953 0.02000
C 	C 	0.63297 0.55063 0.06803 0.11200
C 	C 	0.59367 0.54553 0.12813 -0.06800
H 	H 	0.56137 0.51113 0.13733 0.03800
C 	C 	0.61277 0.50423 0.91343 0.12300
C 	C 	0.62457 0.49883 0.00923 -0.26700
H 	H 	0.59377 0.46483 0.03563 0.09400
H 	H 	0.65817 0.49593 0.01273 0.08300
C 	C 	0.63767 0.54573 0.77163 -0.01200
H 	H 	0.66367 0.57443 0.73313 0.02500
C 	C 	0.68747 0.64173 0.10653 -0.01500
H 	H 	0.72067 0.67583 0.10083 0.01400
Ag	Ag	0.40717 0.94091 0.26997 0.53100
N 	N 	0.21413 0.80427 0.11827 -0.16600
C 	C 	0.22493 0.80037 0.20807 -0.05800
H 	H 	0.19703 0.77337 0.24647 0.03200
N 	N 	0.34733 0.92947 0.38587 -0.18100
C 	C 	0.25333 0.84157 0.07047 0.01300
H 	H 	0.24683 0.84357 0.00637 -0.00100
N 	N 	0.26823 0.92467 0.50877 -0.14700
N 	N 	0.31733 0.87497 0.19427 -0.16900
C 	C 	0.31543 0.97157 0.49837 -0.00000
H 	H 	0.32183 0.00297 0.53287 0.02000
C 	C 	0.29963 0.88397 0.40137 0.11200
C 	C 	0.26033 0.87887 0.46147 -0.06900
H 	H 	0.22803 0.84447 0.47067 0.03800
C 	C 	0.27943 0.83757 0.24677 0.12300
C 	C 	0.29123 0.83217 0.34257 -0.26800
H 	H 	0.26043 0.79817 0.36897 0.09400
H 	H 	0.32483 0.82927 0.34607 0.08300
C 	C 	0.30433 0.87907 0.10497 -0.01200
H 	H 	0.33033 0.90777 0.06647 0.02500
C 	C 	0.35413 0.97507 0.43987 -0.01500
H 	H 	0.38733 0.00917 0.43417 0.01400
Ag	Ag	0.72576 0.79960 0.60330 0.53100
N 	N 	0.86240 0.74320 0.45160 -0.16600
C 	C 	0.86630 0.75790 0.54140 -0.05800
H 	H 	0.89330 0.75700 0.57980 0.03200
N 	N 	0.73720 0.75120 0.71920 -0.18100
C 	C 	0.82510 0.74510 0.40380 0.01300
H 	H 	0.82310 0.73660 0.33970 -0.00100
N 	N 	0.74200 0.67690 0.84210 -0.14700
N 	N 	0.79170 0.77570 0.52760 -0.16900
C 	C 	0.69510 0.67720 0.83170 -0.00000
H 	H 	0.66370 0.65220 0.86620 0.02000
C 	C 	0.78270 0.74900 0.73470 0.11200
C 	C 	0.78780 0.71480 0.79480 -0.06900
H 	H 	0.82220 0.71690 0.80400 0.03800
C 	C 	0.82910 0.77520 0.58010 0.12300
C 	C 	0.83450 0.79240 0.67590 -0.26700
H 	H 	0.86850 0.79560 0.70230 0.09400
H 	H 	0.83740 0.82890 0.67940 0.08300
C 	C 	0.78760 0.75860 0.43830 -0.01200
H 	H 	0.75890 0.75590 0.39980 0.02500
C 	C 	0.69160 0.71240 0.77320 -0.01500
H 	H 	0.65750 0.71150 0.76750 0.01400
Ag	Ag	0.39243 0.13293 0.93663 0.53100
N 	N 	0.52907 0.07653 0.78493 -0.16600
C 	C 	0.53297 0.09123 0.87473 -0.05800
H 	H 	0.55997 0.09033 0.91313 0.03200
N 	N 	0.40387 0.08453 0.05253 -0.18100
C 	C 	0.49177 0.07843 0.73713 0.01300
H 	H 	0.48977 0.06993 0.67303 -0.00100
N 	N 	0.40867 0.01023 0.17543 -0.14700
N 	N 	0.45837 0.10903 0.86093 -0.16900
C 	C 	0.36177 0.01053 0.16503 0.00100
H 	H 	0.33037 0.98553 0.19953 0.02000
C 	C 	0.44937 0.08233 0.06803 0.11200
C 	C 	0.45447 0.04813 0.12813 -0.06800
H 	H 	0.48887 0.05023 0.13733 0.03800
C 	C 	0.49577 0.10853 0.91343 0.12200
C 	C 	0.50117 0.12573 0.00923 -0.26700
H 	H 	0.53517 0.12893 0.03563 0.09400
H 	H 	0.50407 0.16223 0.01273 0.08300
C 	C 	0.45427 0.09193 0.77163 -0.01200
H 	H 	0.42557 0.08923 0.73313 0.02500
C 	C 	0.35827 0.04573 0.10653 -0.01600
H 	H 	0.32417 0.04483 0.10083 0.01500
Ag	Ag	0.05909 0.46627 0.26997 0.53100
N 	N 	0.19573 0.40987 0.11827 -0.16600
C 	C 	0.19963 0.42457 0.20807 -0.05800
H 	H 	0.22663 0.42367 0.24647 0.03200
N 	N 	0.07053 0.41787 0.38587 -0.18100
C 	C 	0.15843 0.41177 0.07047 0.01300
H 	H 	0.15643 0.40327 0.00637 -0.00100
N 	N 	0.07533 0.34357 0.50877 -0.14700
N 	N 	0.12503 0.44237 0.19427 -0.16900
C 	C 	0.02843 0.34387 0.49837 -0.00000
H 	H 	0.99703 0.31887 0.53287 0.02000
C 	C 	0.11603 0.41567 0.40137 0.11200
C 	C 	0.12113 0.38147 0.46147 -0.06900
H 	H 	0.15553 0.38357 0.47067 0.03800
C 	C 	0.16243 0.44187 0.24677 0.12300
C 	C 	0.16783 0.45907 0.34257 -0.26800
H 	H 	0.20183 0.46227 0.36897 0.09400
H 	H 	0.17073 0.49557 0.34607 0.08300
C 	C 	0.12093 0.42527 0.10497 -0.01200
H 	H 	0.09223 0.42257 0.06647 0.02500
C 	C 	0.02493 0.37907 0.43987 -0.01500
H 	H 	0.99083 0.37817 0.43417 0.01400
