data_crystal

_cell_length_a 15.17900
_cell_length_b 16.74600
_cell_length_c 28.86300
_cell_angle_alpha 90.00000
_cell_angle_beta  97.96000
_cell_angle_gamma 90.00000

_symmetry_space_group_name_	'P 1'
_symmetry_space_group_name_H-M	'P 1'

loop_
_symmetry_equiv_pos_as_xyz
  x,y,z

loop_
_atom_site_label
_atom_site_type_symbol
_atom_site_fract_x
_atom_site_fract_y
_atom_site_fract_z
_atom_site_charge
Ag	Ag	0.79500 0.09481 0.23692 0.54100
Ag	Ag	0.18136 0.08679 0.41445 0.53700
Ag	Ag	0.42045 0.37047 0.27752 0.51000
Ag	Ag	0.05253 0.34523 0.08299 0.53800
Ag	Ag	0.60382 0.91063 0.00968 0.49500
C 	C 	0.90670 0.08220 0.33890 -0.05600
H 	H 	0.85040 0.09770 0.34680 0.03400
C 	C 	0.15510 0.38650 0.18540 0.00100
H 	H 	0.09600 0.39150 0.19230 0.01800
N 	N 	0.69790 0.99680 0.27544 -0.16700
N 	N 	0.91300 0.06470 0.29452 -0.15200
N 	N 	0.73930 0.03490 0.16249 -0.17500
N 	N 	0.06030 0.06220 0.36372 -0.18500
N 	N 	0.16800 0.38030 0.14120 -0.17900
N 	N 	0.16120 0.26380 0.05640 -0.17600
C 	C 	0.96860 0.09380 0.42480 -0.26500
H 	H 	0.99990 0.05130 0.44450 0.08100
H 	H 	0.90460 0.09080 0.42820 0.09300
N 	N 	0.54030 0.29080 0.26060 -0.15300
C 	C 	0.32230 0.37140 0.17010 -0.05700
H 	H 	0.38130 0.36450 0.16320 0.03200
C 	C 	0.39220 0.09770 0.39740 -0.26900
H 	H 	0.45560 0.09650 0.39280 0.09700
H 	H 	0.36240 0.05160 0.38030 0.08700
C 	C 	0.72140 0.95670 0.15770 0.00000
H 	H 	0.72660 0.92460 0.18510 0.01800
C 	C 	0.74720 0.16630 0.12690 -0.27000
H 	H 	0.71160 0.18830 0.15020 0.09300
H 	H 	0.72600 0.19160 0.09640 0.09500
N 	N 	0.67910 0.18710 0.24876 -0.17500
N 	N 	0.88230 0.16580 0.18438 -0.17100
N 	N 	0.30920 0.37890 0.21480 -0.15700
C 	C 	0.38600 0.08820 0.44900 0.10500
C 	C 	0.97940 0.07890 0.37450 0.11100
C 	C 	0.35090 0.17360 0.37650 0.11500
C 	C 	0.22420 0.38600 0.22200 -0.01100
H 	H 	0.21110 0.39090 0.25310 0.01300
C 	C 	0.00450 0.17390 0.44210 0.10900
C 	C 	0.67500 0.91670 0.34010 -0.00300
H 	H 	0.69910 0.87850 0.36280 0.02700
N 	N 	0.09280 0.18310 0.44730 -0.17400
C 	C 	0.27100 0.36720 0.08280 -0.25700
H 	H 	0.23670 0.40910 0.06390 0.07600
H 	H 	0.33500 0.37740 0.08180 0.08200
N 	N 	0.26410 0.18430 0.37890 -0.17400
C 	C 	0.01620 0.22480 0.16530 -0.01400
H 	H 	0.07810 0.23370 0.17400 0.02300
C 	C 	0.25280 0.37340 0.13330 0.09700
C 	C 	0.39900 0.23020 0.35510 -0.06300
H 	H 	0.46030 0.22080 0.35360 0.03800
N 	N 	0.68750 0.96350 0.07600 -0.15700
C 	C 	0.72840 0.94510 0.30960 0.00300
H 	H 	0.78860 0.92800 0.31260 0.02100
C 	C 	0.57600 0.07400 0.23510 -0.27600
H 	H 	0.51080 0.06620 0.22850 0.09600
H 	H 	0.60150 0.05940 0.20650 0.09700
C 	C 	0.59450 0.16110 0.24540 0.11300
C 	C 	0.52580 0.21370 0.25110 -0.05800
H 	H 	0.46660 0.19390 0.24820 0.03200
C 	C 	0.69330 0.26420 0.25860 0.00300
H 	H 	0.75240 0.28420 0.26180 0.01700
C 	C 	0.45690 0.10690 0.48280 -0.05400
H 	H 	0.50980 0.12750 0.47310 0.03400
C 	C 	0.62380 0.31650 0.26440 -0.00600
H 	H 	0.63650 0.37120 0.27120 0.00900
C 	C 	0.96780 0.18360 0.19600 0.00900
H 	H 	0.99710 0.16810 0.22580 0.01600
C 	C 	0.73060 0.07800 0.12280 0.11500
C 	C 	0.06750 0.04710 0.31840 -0.00900
H 	H 	0.12450 0.03630 0.30990 0.01100
N 	N 	0.30860 0.06090 0.46160 -0.18900
C 	C 	0.61250 0.01920 0.27360 0.12100
C 	C 	0.84310 0.18860 0.14120 0.11300
C 	C 	0.89040 0.23360 0.11200 -0.05400
H 	H 	0.86060 0.25180 0.08280 0.03500
C 	C 	0.31020 0.23890 0.04500 -0.06200
H 	H 	0.36980 0.25740 0.04780 0.03300
C 	C 	0.24670 0.28660 0.06110 0.11100
C 	C 	0.99530 0.04700 0.28470 -0.00300
H 	H 	0.00300 0.03410 0.25350 -0.00800
C 	C 	0.69590 0.92110 0.11540 -0.01200
H 	H 	0.68410 0.86540 0.11410 0.01700
C 	C 	0.70630 0.04160 0.08000 -0.06900
H 	H 	0.70280 0.07310 0.05240 0.02600
C 	C 	0.30640 0.04960 0.50700 0.00700
H 	H 	0.25360 0.02910 0.51680 0.00400
C 	C 	0.94950 0.23550 0.45280 -0.05600
H 	H 	0.88700 0.22750 0.44860 0.03500
C 	C 	0.22690 0.25120 0.36070 0.00500
H 	H 	0.16540 0.26040 0.36170 0.01800
C 	C 	0.55980 0.99110 0.30600 -0.06100
H 	H 	0.50000 0.00900 0.30400 0.04300
C 	C 	0.12570 0.25400 0.46310 -0.00100
H 	H 	0.18820 0.26250 0.46720 0.01700
N 	N 	0.59100 0.93960 0.33990 -0.10900
C 	C 	0.14310 0.19120 0.03700 0.00200
H 	H 	0.08370 0.17210 0.03400 0.01400
N 	N 	0.36140 0.29780 0.33630 -0.15200
N 	N 	0.98240 0.30580 0.46880 -0.15800
N 	N 	0.45370 0.09710 0.52820 -0.15400
N 	N 	0.97570 0.25150 0.12390 -0.14300
C 	C 	0.37860 0.06680 0.54060 -0.01800
H 	H 	0.37470 0.05700 0.57260 0.02600
C 	C 	0.27590 0.30800 0.34020 -0.00900
H 	H 	0.24730 0.35580 0.32850 0.01000
N 	N 	0.29020 0.16700 0.02540 -0.15100
C 	C 	0.07030 0.31490 0.47360 -0.00800
H 	H 	0.09550 0.36450 0.48440 -0.01000
C 	C 	0.20580 0.14450 0.02170 -0.00800
H 	H 	0.18890 0.09420 0.00800 0.01300
Ag	Ag	0.70500 0.59481 0.26308 0.54200
Ag	Ag	0.31864 0.58679 0.08555 0.53800
Ag	Ag	0.07955 0.87047 0.22248 0.51100
Ag	Ag	0.44747 0.84523 0.41701 0.54000
Ag	Ag	0.89618 0.41063 0.49032 0.49600
C 	C 	0.59330 0.58220 0.16110 -0.05500
H 	H 	0.64960 0.59770 0.15320 0.03500
C 	C 	0.34490 0.88650 0.31460 0.00200
H 	H 	0.40400 0.89150 0.30770 0.01800
N 	N 	0.80210 0.49680 0.22456 -0.16600
N 	N 	0.58700 0.56470 0.20548 -0.15100
N 	N 	0.76070 0.53490 0.33751 -0.17500
N 	N 	0.43970 0.56220 0.13628 -0.18500
N 	N 	0.33200 0.88030 0.35880 -0.17900
N 	N 	0.33880 0.76380 0.44360 -0.17600
C 	C 	0.53140 0.59380 0.07520 -0.26600
H 	H 	0.50010 0.55130 0.05550 0.08100
H 	H 	0.59540 0.59080 0.07180 0.09300
N 	N 	0.95970 0.79080 0.23940 -0.15300
C 	C 	0.17770 0.87140 0.32990 -0.05700
H 	H 	0.11870 0.86450 0.33680 0.03100
C 	C 	0.10780 0.59770 0.10260 -0.27000
H 	H 	0.04440 0.59650 0.10720 0.09700
H 	H 	0.13760 0.55160 0.11970 0.08700
C 	C 	0.77860 0.45670 0.34230 0.00000
H 	H 	0.77340 0.42460 0.31490 0.01800
C 	C 	0.75280 0.66630 0.37310 -0.27000
H 	H 	0.78840 0.68830 0.34980 0.09300
H 	H 	0.77400 0.69160 0.40360 0.09500
N 	N 	0.82090 0.68710 0.25124 -0.17500
N 	N 	0.61770 0.66580 0.31562 -0.17100
N 	N 	0.19080 0.87890 0.28520 -0.15700
C 	C 	0.11400 0.58820 0.05100 0.10600
C 	C 	0.52060 0.57890 0.12550 0.11100
C 	C 	0.14910 0.67360 0.12350 0.11500
C 	C 	0.27580 0.88600 0.27800 -0.01100
H 	H 	0.28890 0.89090 0.24690 0.01300
C 	C 	0.49550 0.67390 0.05790 0.11100
C 	C 	0.82500 0.41670 0.15990 -0.00300
H 	H 	0.80090 0.37850 0.13720 0.02700
N 	N 	0.40720 0.68310 0.05270 -0.17400
C 	C 	0.22900 0.86720 0.41720 -0.25700
H 	H 	0.26330 0.90910 0.43610 0.07600
H 	H 	0.16500 0.87740 0.41820 0.08100
N 	N 	0.23590 0.68430 0.12110 -0.17400
C 	C 	0.48380 0.72480 0.33470 -0.01100
H 	H 	0.42190 0.73370 0.32600 0.02200
C 	C 	0.24720 0.87340 0.36670 0.09700
C 	C 	0.10100 0.73020 0.14490 -0.06300
H 	H 	0.03970 0.72080 0.14640 0.03700
N 	N 	0.81250 0.46350 0.42400 -0.15700
C 	C 	0.77160 0.44510 0.19040 0.00300
H 	H 	0.71140 0.42800 0.18740 0.02100
C 	C 	0.92400 0.57400 0.26490 -0.27500
H 	H 	0.98920 0.56620 0.27150 0.09700
H 	H 	0.89850 0.55940 0.29350 0.09600
C 	C 	0.90550 0.66110 0.25460 0.11200
C 	C 	0.97420 0.71370 0.24890 -0.05500
H 	H 	0.03340 0.69390 0.25180 0.03000
C 	C 	0.80670 0.76420 0.24140 0.00300
H 	H 	0.74760 0.78420 0.23820 0.01700
C 	C 	0.04310 0.60690 0.01720 -0.05800
H 	H 	0.99020 0.62750 0.02690 0.03600
C 	C 	0.87620 0.81650 0.23560 -0.00500
H 	H 	0.86350 0.87120 0.22880 0.00900
C 	C 	0.53220 0.68360 0.30400 0.00600
H 	H 	0.50290 0.66810 0.27420 0.01600
C 	C 	0.76940 0.57800 0.37720 0.11500
C 	C 	0.43250 0.54710 0.18160 -0.00600
H 	H 	0.37550 0.53630 0.19010 0.00900
N 	N 	0.19140 0.56090 0.03840 -0.19000
C 	C 	0.88750 0.51920 0.22640 0.12000
C 	C 	0.65690 0.68860 0.35880 0.11300
C 	C 	0.60960 0.73360 0.38800 -0.05300
H 	H 	0.63940 0.75180 0.41720 0.03500
C 	C 	0.18980 0.73890 0.45500 -0.06200
H 	H 	0.13020 0.75740 0.45220 0.03300
C 	C 	0.25330 0.78660 0.43890 0.11100
C 	C 	0.50470 0.54700 0.21530 -0.00700
H 	H 	0.49700 0.53410 0.24650 -0.00500
C 	C 	0.80410 0.42110 0.38460 -0.01200
H 	H 	0.81590 0.36540 0.38590 0.01700
C 	C 	0.79370 0.54160 0.42000 -0.06900
H 	H 	0.79720 0.57310 0.44760 0.02600
C 	C 	0.19360 0.54960 0.99300 0.00800
H 	H 	0.24640 0.52910 0.98320 0.00400
C 	C 	0.55050 0.73550 0.04720 -0.05800
H 	H 	0.61300 0.72750 0.05140 0.03500
C 	C 	0.27310 0.75120 0.13930 0.00500
H 	H 	0.33460 0.76040 0.13830 0.01800
C 	C 	0.94020 0.49110 0.19400 -0.05800
H 	H 	0.00000 0.50900 0.19600 0.04100
C 	C 	0.37430 0.75400 0.03690 -0.00200
H 	H 	0.31180 0.76250 0.03280 0.01700
N 	N 	0.90900 0.43960 0.16010 -0.11000
C 	C 	0.35690 0.69120 0.46300 0.00200
H 	H 	0.41630 0.67210 0.46600 0.01500
N 	N 	0.13860 0.79780 0.16370 -0.15200
N 	N 	0.51760 0.80580 0.03120 -0.15900
N 	N 	0.04630 0.59710 0.97180 -0.15300
N 	N 	0.52430 0.75150 0.37610 -0.14400
C 	C 	0.12140 0.56680 0.95940 -0.01900
H 	H 	0.12530 0.55700 0.92740 0.02600
C 	C 	0.22410 0.80800 0.15980 -0.00900
H 	H 	0.25270 0.85580 0.17150 0.01000
N 	N 	0.20980 0.66700 0.47460 -0.15100
C 	C 	0.42970 0.81490 0.02640 -0.00700
H 	H 	0.40450 0.86450 0.01560 -0.01000
C 	C 	0.29420 0.64450 0.47830 -0.00700
H 	H 	0.31110 0.59420 0.49200 0.01300
Ag	Ag	0.20500 0.90519 0.76308 0.54200
Ag	Ag	0.81864 0.91321 0.58555 0.53800
Ag	Ag	0.57955 0.62953 0.72248 0.51100
Ag	Ag	0.94747 0.65477 0.91701 0.54000
Ag	Ag	0.39618 0.08937 0.99032 0.49600
C 	C 	0.09330 0.91780 0.66110 -0.05500
H 	H 	0.14960 0.90230 0.65320 0.03500
C 	C 	0.84490 0.61350 0.81460 0.00200
H 	H 	0.90400 0.60850 0.80770 0.01900
N 	N 	0.30210 0.00320 0.72456 -0.16700
N 	N 	0.08700 0.93530 0.70548 -0.15100
N 	N 	0.26070 0.96510 0.83751 -0.17500
N 	N 	0.93970 0.93780 0.63628 -0.18500
N 	N 	0.83200 0.61970 0.85880 -0.17900
N 	N 	0.83880 0.73620 0.94360 -0.17600
C 	C 	0.03140 0.90620 0.57520 -0.26800
H 	H 	0.00010 0.94870 0.55550 0.08100
H 	H 	0.09540 0.90920 0.57180 0.09400
N 	N 	0.45970 0.70920 0.73940 -0.15300
C 	C 	0.67770 0.62860 0.82990 -0.05700
H 	H 	0.61870 0.63550 0.83680 0.03200
C 	C 	0.60780 0.90230 0.60260 -0.26900
H 	H 	0.54440 0.90350 0.60720 0.09700
H 	H 	0.63760 0.94840 0.61970 0.08700
C 	C 	0.27860 0.04330 0.84230 -0.00000
H 	H 	0.27340 0.07540 0.81490 0.01800
C 	C 	0.25280 0.83370 0.87310 -0.27000
H 	H 	0.28840 0.81170 0.84980 0.09300
H 	H 	0.27400 0.80840 0.90360 0.09500
N 	N 	0.32090 0.81290 0.75124 -0.17500
N 	N 	0.11770 0.83420 0.81562 -0.17000
N 	N 	0.69080 0.62110 0.78520 -0.15700
C 	C 	0.61400 0.91180 0.55100 0.10500
C 	C 	0.02060 0.92110 0.62550 0.11000
C 	C 	0.64910 0.82640 0.62350 0.11500
C 	C 	0.77580 0.61400 0.77800 -0.01100
H 	H 	0.78890 0.60910 0.74690 0.01300
C 	C 	0.99550 0.82610 0.55790 0.11300
C 	C 	0.32500 0.08330 0.65990 -0.00300
H 	H 	0.30090 0.12150 0.63720 0.02700
N 	N 	0.90720 0.81690 0.55270 -0.17400
C 	C 	0.72900 0.63280 0.91720 -0.25700
H 	H 	0.76330 0.59090 0.93610 0.07600
H 	H 	0.66500 0.62260 0.91820 0.08200
N 	N 	0.73590 0.81570 0.62110 -0.17400
C 	C 	0.98380 0.77520 0.83470 -0.00900
H 	H 	0.92190 0.76630 0.82600 0.02200
C 	C 	0.74720 0.62660 0.86670 0.09800
C 	C 	0.60100 0.76980 0.64490 -0.06300
H 	H 	0.53970 0.77920 0.64640 0.03800
N 	N 	0.31250 0.03650 0.92400 -0.15700
C 	C 	0.27160 0.05490 0.69040 0.00300
H 	H 	0.21140 0.07200 0.68740 0.02100
C 	C 	0.42400 0.92600 0.76490 -0.27600
H 	H 	0.48920 0.93380 0.77150 0.09600
H 	H 	0.39850 0.94060 0.79350 0.09700
C 	C 	0.40550 0.83890 0.75460 0.11300
C 	C 	0.47420 0.78630 0.74890 -0.05800
H 	H 	0.53340 0.80610 0.75180 0.03200
C 	C 	0.30670 0.73580 0.74140 0.00300
H 	H 	0.24760 0.71580 0.73820 0.01700
C 	C 	0.54310 0.89310 0.51720 -0.05400
H 	H 	0.49020 0.87250 0.52690 0.03400
C 	C 	0.37620 0.68350 0.73560 -0.00600
H 	H 	0.36350 0.62880 0.72880 0.00900
C 	C 	0.03220 0.81640 0.80400 0.00500
H 	H 	0.00290 0.83190 0.77420 0.01600
C 	C 	0.26940 0.92200 0.87720 0.11500
C 	C 	0.93250 0.95290 0.68160 -0.00300
H 	H 	0.87550 0.96370 0.69010 0.00900
N 	N 	0.69140 0.93910 0.53840 -0.18900
C 	C 	0.38750 0.98080 0.72640 0.12100
C 	C 	0.15690 0.81140 0.85880 0.11300
C 	C 	0.10960 0.76640 0.88800 -0.05300
H 	H 	0.13940 0.74820 0.91720 0.03500
C 	C 	0.68980 0.76110 0.95500 -0.06200
H 	H 	0.63020 0.74260 0.95220 0.03300
C 	C 	0.75330 0.71340 0.93890 0.11100
C 	C 	0.00470 0.95300 0.71530 -0.01000
H 	H 	0.99700 0.96590 0.74650 -0.00400
C 	C 	0.30410 0.07890 0.88460 -0.01200
H 	H 	0.31590 0.13460 0.88590 0.01700
C 	C 	0.29370 0.95840 0.92000 -0.06900
H 	H 	0.29720 0.92690 0.94760 0.02600
C 	C 	0.69360 0.95040 0.49300 0.00700
H 	H 	0.74640 0.97090 0.48320 0.00400
C 	C 	0.05050 0.76450 0.54720 -0.06000
H 	H 	0.11300 0.77250 0.55140 0.03600
C 	C 	0.77310 0.74880 0.63930 0.00500
H 	H 	0.83460 0.73960 0.63830 0.01800
C 	C 	0.44020 0.00890 0.69400 -0.06100
H 	H 	0.50000 0.99100 0.69600 0.04300
C 	C 	0.87430 0.74600 0.53690 -0.00200
H 	H 	0.81180 0.73750 0.53280 0.01700
N 	N 	0.40900 0.06040 0.66010 -0.10900
C 	C 	0.85690 0.80880 0.96300 0.00200
H 	H 	0.91630 0.82790 0.96600 0.01500
N 	N 	0.63860 0.70220 0.66370 -0.15200
N 	N 	0.01760 0.69420 0.53120 -0.15900
N 	N 	0.54630 0.90290 0.47180 -0.15400
N 	N 	0.02430 0.74850 0.87610 -0.14500
C 	C 	0.62140 0.93320 0.45940 -0.01800
H 	H 	0.62530 0.94300 0.42740 0.02600
C 	C 	0.72410 0.69200 0.65980 -0.00900
H 	H 	0.75270 0.64420 0.67150 0.01000
N 	N 	0.70980 0.83300 0.97460 -0.15100
C 	C 	0.92970 0.68510 0.52640 -0.00600
H 	H 	0.90450 0.63550 0.51560 -0.01000
C 	C 	0.79420 0.85550 0.97830 -0.00700
H 	H 	0.81110 0.90580 0.99200 0.01300
Ag	Ag	0.29500 0.40519 0.73692 0.54200
Ag	Ag	0.68136 0.41321 0.91445 0.53800
Ag	Ag	0.92045 0.12953 0.77752 0.51100
Ag	Ag	0.55253 0.15477 0.58299 0.54000
Ag	Ag	0.10382 0.58937 0.50968 0.49600
C 	C 	0.40670 0.41780 0.83890 -0.05500
H 	H 	0.35040 0.40230 0.84680 0.03500
C 	C 	0.65510 0.11350 0.68540 0.00200
H 	H 	0.59600 0.10850 0.69230 0.01800
N 	N 	0.19790 0.50320 0.77544 -0.16700
N 	N 	0.41300 0.43530 0.79452 -0.15100
N 	N 	0.23930 0.46510 0.66249 -0.17500
N 	N 	0.56030 0.43780 0.86372 -0.18500
N 	N 	0.66800 0.11970 0.64120 -0.17900
N 	N 	0.66120 0.23620 0.55640 -0.17600
C 	C 	0.46860 0.40620 0.92480 -0.26600
H 	H 	0.49990 0.44870 0.94450 0.08100
H 	H 	0.40460 0.40920 0.92820 0.09300
N 	N 	0.04030 0.20920 0.76060 -0.15300
C 	C 	0.82230 0.12860 0.67010 -0.05700
H 	H 	0.88130 0.13550 0.66320 0.03200
C 	C 	0.89220 0.40230 0.89740 -0.27000
H 	H 	0.95560 0.40350 0.89280 0.09700
H 	H 	0.86240 0.44840 0.88030 0.08700
C 	C 	0.22140 0.54330 0.65770 -0.00000
H 	H 	0.22660 0.57540 0.68510 0.01800
C 	C 	0.24720 0.33370 0.62690 -0.27000
H 	H 	0.21160 0.31170 0.65020 0.09300
H 	H 	0.22600 0.30840 0.59640 0.09500
N 	N 	0.17910 0.31290 0.74876 -0.17500
N 	N 	0.38230 0.33420 0.68438 -0.17100
N 	N 	0.80920 0.12110 0.71480 -0.15700
C 	C 	0.88600 0.41180 0.94900 0.10500
C 	C 	0.47940 0.42110 0.87450 0.11100
C 	C 	0.85090 0.32640 0.87650 0.11500
C 	C 	0.72420 0.11400 0.72200 -0.01100
H 	H 	0.71110 0.10910 0.75310 0.01300
C 	C 	0.50450 0.32610 0.94210 0.11100
C 	C 	0.17500 0.58330 0.84010 -0.00300
H 	H 	0.19910 0.62150 0.86280 0.02700
N 	N 	0.59280 0.31690 0.94730 -0.17400
C 	C 	0.77100 0.13280 0.58280 -0.25800
H 	H 	0.73670 0.09090 0.56390 0.07600
H 	H 	0.83500 0.12260 0.58180 0.08200
N 	N 	0.76410 0.31570 0.87890 -0.17400
C 	C 	0.51620 0.27520 0.66530 -0.01100
H 	H 	0.57810 0.26630 0.67400 0.02200
C 	C 	0.75280 0.12660 0.63330 0.09800
C 	C 	0.89900 0.26980 0.85510 -0.06300
H 	H 	0.96030 0.27920 0.85360 0.03800
N 	N 	0.18750 0.53650 0.57600 -0.15700
C 	C 	0.22840 0.55490 0.80960 0.00300
H 	H 	0.28860 0.57200 0.81260 0.02100
C 	C 	0.07600 0.42600 0.73510 -0.27600
H 	H 	0.01080 0.43380 0.72850 0.09600
H 	H 	0.10150 0.44060 0.70650 0.09600
C 	C 	0.09450 0.33890 0.74540 0.11300
C 	C 	0.02580 0.28630 0.75110 -0.05900
H 	H 	0.96660 0.30610 0.74820 0.03200
C 	C 	0.19330 0.23580 0.75860 0.00300
H 	H 	0.25240 0.21580 0.76180 0.01700
C 	C 	0.95690 0.39310 0.98280 -0.05400
H 	H 	0.00980 0.37250 0.97310 0.03400
C 	C 	0.12380 0.18350 0.76440 -0.00600
H 	H 	0.13650 0.12880 0.77120 0.00900
C 	C 	0.46780 0.31640 0.69600 0.00600
H 	H 	0.49710 0.33190 0.72580 0.01600
C 	C 	0.23060 0.42200 0.62280 0.11400
C 	C 	0.56750 0.45290 0.81840 -0.00600
H 	H 	0.62450 0.46370 0.80990 0.00900
N 	N 	0.80860 0.43910 0.96160 -0.18900
C 	C 	0.11250 0.48080 0.77360 0.12100
C 	C 	0.34310 0.31140 0.64120 0.11300
C 	C 	0.39040 0.26640 0.61200 -0.05300
H 	H 	0.36060 0.24820 0.58280 0.03500
C 	C 	0.81020 0.26110 0.54500 -0.06200
H 	H 	0.86980 0.24260 0.54780 0.03300
C 	C 	0.74670 0.21340 0.56110 0.11100
C 	C 	0.49530 0.45300 0.78470 -0.00700
H 	H 	0.50300 0.46590 0.75350 -0.00500
C 	C 	0.19590 0.57890 0.61540 -0.01200
H 	H 	0.18410 0.63460 0.61410 0.01700
C 	C 	0.20630 0.45840 0.58000 -0.06900
H 	H 	0.20280 0.42690 0.55240 0.02600
C 	C 	0.80640 0.45040 0.00700 0.00800
H 	H 	0.75360 0.47090 0.01680 0.00400
C 	C 	0.44950 0.26450 0.95280 -0.05800
H 	H 	0.38700 0.27250 0.94860 0.03500
C 	C 	0.72690 0.24880 0.86070 0.00500
H 	H 	0.66540 0.23960 0.86170 0.01800
C 	C 	0.05980 0.50890 0.80600 -0.06100
H 	H 	-0.00000 0.49100 0.80400 0.04300
C 	C 	0.62570 0.24600 0.96310 -0.00200
H 	H 	0.68820 0.23750 0.96720 0.01700
N 	N 	0.09100 0.56040 0.83990 -0.11000
C 	C 	0.64310 0.30880 0.53700 0.00200
H 	H 	0.58370 0.32790 0.53400 0.01500
N 	N 	0.86140 0.20220 0.83630 -0.15200
N 	N 	0.48240 0.19420 0.96880 -0.15900
N 	N 	0.95370 0.40290 0.02820 -0.15300
N 	N 	0.47570 0.24850 0.62390 -0.14400
C 	C 	0.87860 0.43320 0.04060 -0.01900
H 	H 	0.87470 0.44300 0.07260 0.02600
C 	C 	0.77590 0.19200 0.84020 -0.00900
H 	H 	0.74730 0.14420 0.82850 0.01000
N 	N 	0.79020 0.33300 0.52540 -0.15100
C 	C 	0.57030 0.18510 0.97360 -0.00700
H 	H 	0.59550 0.13550 0.98440 -0.01000
C 	C 	0.70580 0.35550 0.52170 -0.00700
H 	H 	0.68890 0.40580 0.50800 0.01300
