data_crystal

_cell_length_a 14.23840
_cell_length_b 16.38620
_cell_length_c 6.84500
_cell_angle_alpha 90.00000
_cell_angle_beta  90.00000
_cell_angle_gamma 90.00000

_symmetry_space_group_name_	'P 1'
_symmetry_space_group_name_H-M	'P 1'

loop_
_symmetry_equiv_pos_as_xyz
  x,y,z

loop_
_atom_site_label
_atom_site_type_symbol
_atom_site_fract_x
_atom_site_fract_y
_atom_site_fract_z
_atom_site_charge
C 	C 	0.42089 0.90723 0.11040 0.22400
C 	C 	0.35909 0.83114 0.10580 -0.19000
C 	C 	0.26770 0.83188 0.17710 0.26000
C 	C 	0.21220 0.76207 0.17460 0.23600
C 	C 	0.24531 0.68841 0.10200 -0.08000
C 	C 	0.18469 0.61164 0.10150 0.08100
C 	C 	0.33733 0.68761 0.03300 0.08200
C 	C 	0.39250 0.75743 0.03240 0.11800
Ca	Ca	0.43129 0.96948 0.61280 1.51100
F 	F 	0.23114 0.90132 0.24960 -0.39900
F 	F 	0.12394 0.76737 0.24430 -0.36300
F 	F 	0.37551 0.61711 0.96920 -0.15600
F 	F 	0.48097 0.75264 0.96260 -0.18200
O 	O 	0.45002 0.93487 0.95060 -0.30000
O 	O 	0.44135 0.93656 0.27260 -0.48300
O 	O 	0.15338 0.58776 0.26260 -0.29100
O 	O 	0.17047 0.57706 0.94150 -0.06100
C 	C 	0.57911 0.09277 0.61040 0.54100
C 	C 	0.64091 0.16886 0.60580 -0.26900
C 	C 	0.73230 0.16812 0.67710 0.30600
C 	C 	0.78780 0.23793 0.67460 0.28300
C 	C 	0.75469 0.31159 0.60200 -0.15700
C 	C 	0.81531 0.38836 0.60150 0.41100
C 	C 	0.66267 0.31239 0.53300 0.26900
C 	C 	0.60750 0.24257 0.53240 0.30200
Ca	Ca	0.56871 0.03052 0.11280 1.47300
F 	F 	0.76886 0.09868 0.74960 -0.36200
F 	F 	0.87606 0.23263 0.74430 -0.32500
F 	F 	0.62449 0.38289 0.46920 -0.35200
F 	F 	0.51903 0.24736 0.46260 -0.40000
O 	O 	0.54998 0.06513 0.45060 -0.58900
O 	O 	0.55865 0.06344 0.77260 -0.49700
O 	O 	0.84662 0.41224 0.76260 -0.29400
O 	O 	0.82953 0.42294 0.44150 -0.34700
C 	C 	0.92089 0.59277 0.11040 0.22600
C 	C 	0.85909 0.66886 0.10580 -0.19100
C 	C 	0.76770 0.66812 0.17710 0.25900
C 	C 	0.71220 0.73793 0.17460 0.23500
C 	C 	0.74531 0.81159 0.10200 -0.08400
C 	C 	0.68469 0.88836 0.10150 0.08500
C 	C 	0.83733 0.81239 0.03300 0.08500
C 	C 	0.89250 0.74257 0.03240 0.11900
Ca	Ca	0.93129 0.53052 0.61280 1.50900
F 	F 	0.73114 0.59868 0.24960 -0.40300
F 	F 	0.62394 0.73263 0.24430 -0.36900
F 	F 	0.87551 0.88289 0.96920 -0.16200
F 	F 	0.98097 0.74736 0.96260 -0.19000
O 	O 	0.95002 0.56513 0.95060 -0.30800
O 	O 	0.94135 0.56344 0.27260 -0.49100
O 	O 	0.65338 0.91224 0.26260 -0.29500
O 	O 	0.67047 0.92294 0.94150 -0.06700
C 	C 	0.07911 0.40723 0.61040 0.54100
C 	C 	0.14091 0.33114 0.60580 -0.26700
C 	C 	0.23230 0.33188 0.67710 0.30700
C 	C 	0.28780 0.26207 0.67460 0.28400
C 	C 	0.25469 0.18841 0.60200 -0.15500
C 	C 	0.31531 0.11164 0.60150 0.41100
C 	C 	0.16267 0.18761 0.53300 0.27000
C 	C 	0.10750 0.25743 0.53240 0.30300
Ca	Ca	0.06871 0.46948 0.11280 1.47500
F 	F 	0.26886 0.40132 0.74960 -0.36000
F 	F 	0.37606 0.26737 0.74430 -0.31900
F 	F 	0.12449 0.11711 0.46920 -0.34800
F 	F 	0.01903 0.25264 0.46260 -0.39400
O 	O 	0.04998 0.43487 0.45060 -0.58200
O 	O 	0.05865 0.43656 0.77260 -0.49100
O 	O 	0.34662 0.08776 0.76260 -0.28900
O 	O 	0.32953 0.07706 0.44150 -0.34400
