data_crystal

_cell_length_a 14.26860
_cell_length_b 16.73260
_cell_length_c 7.01810
_cell_angle_alpha 90.00000
_cell_angle_beta  90.00000
_cell_angle_gamma 90.00000

_symmetry_space_group_name_	'P 1'
_symmetry_space_group_name_H-M	'P 1'

loop_
_symmetry_equiv_pos_as_xyz
  x,y,z

loop_
_atom_site_label
_atom_site_type_symbol
_atom_site_fract_x
_atom_site_fract_y
_atom_site_fract_z
_atom_site_charge
Sr	Sr	0.42725 0.53210 0.96686 1.52100
F 	F 	0.48053 0.74490 0.61690 -0.36800
F 	F 	0.37575 0.87751 0.61210 -0.33300
F 	F 	0.12703 0.73259 0.33230 -0.32200
F 	F 	0.23331 0.60104 0.32840 -0.35200
O 	O 	0.44000 0.56530 0.31190 -0.48500
O 	O 	0.44830 0.56820 0.62570 -0.53200
O 	O 	0.17190 0.91650 0.63150 -0.31200
O 	O 	0.16050 0.90913 0.31640 -0.28600
O 	O 	0.21180 0.71400 0.90860 -0.04500
O 	O 	0.24990 0.58832 0.87650 -0.14900
O 	O 	0.35210 0.67343 0.97480 -0.22600
N 	N 	0.26860 0.65910 0.91840 0.05100
C 	C 	0.42000 0.59430 0.46900 0.54700
C 	C 	0.35980 0.66910 0.47220 -0.25000
C 	C 	0.39250 0.74040 0.54600 0.32300
C 	C 	0.33830 0.80890 0.54580 0.28600
C 	C 	0.24740 0.80890 0.47570 -0.14900
C 	C 	0.18770 0.88420 0.47560 0.41700
C 	C 	0.21440 0.73700 0.40130 0.29800
C 	C 	0.26960 0.66870 0.40060 0.32800
Sr	Sr	0.57275 0.46790 0.46686 1.53900
F 	F 	0.51947 0.25510 0.11690 -0.34200
F 	F 	0.62425 0.12249 0.11210 -0.31000
F 	F 	0.87297 0.26741 0.83230 -0.36200
F 	F 	0.76669 0.39896 0.82840 -0.39100
O 	O 	0.56000 0.43470 0.81190 -0.49900
O 	O 	0.55170 0.43180 0.12570 -0.40100
O 	O 	0.82810 0.08350 0.13150 -0.17800
O 	O 	0.83950 0.09087 0.81640 -0.30100
O 	O 	0.78820 0.28600 0.40860 0.01600
O 	O 	0.75010 0.41168 0.37650 -0.08800
O 	O 	0.64790 0.32657 0.47480 -0.17200
N 	N 	0.73140 0.34090 0.41840 0.05000
C 	C 	0.58000 0.40570 0.96900 0.41800
C 	C 	0.64020 0.33090 0.97220 -0.36400
C 	C 	0.60750 0.25960 0.04600 0.42600
C 	C 	0.66170 0.19110 0.04580 0.38500
C 	C 	0.75260 0.19110 0.97570 -0.25700
C 	C 	0.81230 0.11580 0.97560 0.28500
C 	C 	0.78560 0.26300 0.90130 0.28300
C 	C 	0.73040 0.33130 0.90060 0.31200
Sr	Sr	0.92725 0.96790 0.96686 1.52200
F 	F 	0.98053 0.75510 0.61690 -0.36700
F 	F 	0.87575 0.62249 0.61210 -0.33300
F 	F 	0.62703 0.76741 0.33230 -0.31900
F 	F 	0.73331 0.89896 0.32840 -0.35000
O 	O 	0.94000 0.93470 0.31190 -0.48000
O 	O 	0.94830 0.93180 0.62570 -0.52800
O 	O 	0.67190 0.58350 0.63150 -0.31400
O 	O 	0.66050 0.59087 0.31640 -0.28700
O 	O 	0.71180 0.78600 0.90860 -0.04400
O 	O 	0.74990 0.91168 0.87650 -0.14700
O 	O 	0.85210 0.82657 0.97480 -0.22500
N 	N 	0.76860 0.84090 0.91840 0.05100
C 	C 	0.92000 0.90570 0.46900 0.54600
C 	C 	0.85980 0.83090 0.47220 -0.24900
C 	C 	0.89250 0.75960 0.54600 0.32400
C 	C 	0.83830 0.69110 0.54580 0.28600
C 	C 	0.74740 0.69110 0.47570 -0.14900
C 	C 	0.68770 0.61580 0.47560 0.41700
C 	C 	0.71440 0.76300 0.40130 0.29900
C 	C 	0.76960 0.83130 0.40060 0.32900
Sr	Sr	0.07275 0.03210 0.46686 1.53700
F 	F 	0.01947 0.24490 0.11690 -0.34700
F 	F 	0.12425 0.37751 0.11210 -0.31100
F 	F 	0.37297 0.23259 0.83230 -0.36600
F 	F 	0.26669 0.10104 0.82840 -0.39300
O 	O 	0.06000 0.06530 0.81190 -0.50600
O 	O 	0.05170 0.06820 0.12570 -0.41200
O 	O 	0.32810 0.41650 0.13150 -0.17900
O 	O 	0.33950 0.40913 0.81640 -0.30300
O 	O 	0.28820 0.21400 0.40860 0.01300
O 	O 	0.25010 0.08832 0.37650 -0.09200
O 	O 	0.14790 0.17343 0.47480 -0.17400
N 	N 	0.23140 0.15910 0.41840 0.05100
C 	C 	0.08000 0.09430 0.96900 0.42500
C 	C 	0.14020 0.16910 0.97220 -0.36400
C 	C 	0.10750 0.24040 0.04600 0.42300
C 	C 	0.16170 0.30890 0.04580 0.38500
C 	C 	0.25260 0.30890 0.97570 -0.25700
C 	C 	0.31230 0.38420 0.97560 0.28300
C 	C 	0.28560 0.23700 0.90130 0.28200
C 	C 	0.23040 0.16870 0.90060 0.31200
