data_crystal

_cell_length_a 19.09130
_cell_length_b 19.09130
_cell_length_c 11.79290
_cell_angle_alpha 90.00000
_cell_angle_beta  90.00000
_cell_angle_gamma 120.00000

_symmetry_space_group_name_	'P 1'
_symmetry_space_group_name_H-M	'P 1'

loop_
_symmetry_equiv_pos_as_xyz
  x,y,z

loop_
_atom_site_label
_atom_site_type_symbol
_atom_site_fract_x
_atom_site_fract_y
_atom_site_fract_z
_atom_site_charge
C 	C 	0.36960 0.78470 0.30560 0.26200
C 	C 	0.38140 0.73640 0.21600 -0.15500
H 	H 	0.37040 0.75170 0.14250 0.10100
H 	H 	0.34280 0.67950 0.22760 0.10100
C 	C 	0.46570 0.74830 0.21520 -0.30400
H 	H 	0.47440 0.73070 0.28840 0.14600
H 	H 	0.46660 0.71170 0.15900 0.15100
C 	C 	0.53560 0.82880 0.19300 0.39500
C 	C 	0.44230 0.56270 0.05040 0.44800
C 	C 	0.41210 0.52040 0.15440 -0.35800
H 	H 	0.37850 0.46360 0.13550 0.16000
H 	H 	0.37640 0.53790 0.18590 0.15600
C 	C 	0.47090 0.52570 0.25360 -0.16500
H 	H 	0.49180 0.57770 0.29060 0.11000
H 	H 	0.43920 0.48440 0.30920 0.12100
C 	C 	0.54160 0.51590 0.22020 0.28500
C 	C 	0.75500 0.28630 0.30590 0.32400
C 	C 	0.71410 0.27220 0.19480 -0.23600
H 	H 	0.74610 0.26260 0.13960 0.13700
H 	H 	0.71550 0.32180 0.17280 0.12400
C 	C 	0.62610 0.20280 0.18440 -0.22200
H 	H 	0.59330 0.20080 0.24840 0.12600
H 	H 	0.60100 0.20550 0.11420 0.13200
C 	C 	0.64340 0.13300 0.18520 0.34000
C 	C 	0.79600 0.54650 0.34490 0.41200
C 	C 	0.86470 0.56840 0.42150 -0.30300
H 	H 	0.91540 0.60710 0.38610 0.14800
H 	H 	0.86760 0.52100 0.44380 0.15100
C 	C 	0.84600 0.60500 0.52110 -0.20300
H 	H 	0.88670 0.61830 0.57920 0.12000
H 	H 	0.79400 0.56570 0.55260 0.12400
C 	C 	0.84370 0.68420 0.48730 0.40700
C 	C 	0.89460 0.90540 0.26860 0.33200
C 	C 	0.91230 0.94890 0.15320 -0.20000
H 	H 	0.87390 0.91060 0.09930 0.12600
H 	H 	0.96550 0.95990 0.12960 0.12400
C 	C 	0.91050 0.03140 0.13890 -0.26400
H 	H 	0.94600 0.07090 0.19410 0.14000
H 	H 	0.92880 0.05350 0.06360 0.14200
C 	C 	0.82850 0.01360 0.15600 0.33300
C 	C 	0.78100 0.87930 0.64520 0.35500
C 	C 	0.75790 0.91510 0.73700 -0.24900
H 	H 	0.71190 0.91860 0.70970 0.14400
H 	H 	0.80200 0.97020 0.74530 0.13900
C 	C 	0.73640 0.88000 0.85560 -0.20700
H 	H 	0.77420 0.86350 0.88140 0.12500
H 	H 	0.73750 0.91950 0.90830 0.11100
C 	C 	0.65290 0.80850 0.84690 0.35300
O 	O 	0.41010 0.81430 0.39040 -0.18300
O 	O 	0.30660 0.79860 0.31980 -0.14300
O 	O 	0.60830 0.84530 0.20260 -0.19700
O 	O 	0.51720 0.88070 0.15590 -0.35200
H 	H 	0.48080 0.88670 0.20710 0.20700
O 	O 	0.41160 0.55530 0.96100 -0.25200
O 	O 	0.51210 0.62910 0.04180 -0.34800
H 	H 	0.55710 0.62030 0.05690 0.22100
O 	O 	0.55090 0.49430 0.11590 -0.19000
O 	O 	0.59010 0.53340 0.29900 -0.18700
O 	O 	0.81840 0.35190 0.31210 -0.21500
O 	O 	0.71890 0.23900 0.39610 -0.18100
O 	O 	0.70780 0.13500 0.17230 -0.20300
O 	O 	0.58480 0.06170 0.16600 -0.19200
O 	O 	0.73540 0.54660 0.36990 -0.25700
O 	O 	0.80810 0.51900 0.25010 -0.34100
O 	O 	0.81510 0.70270 0.56900 -0.21200
O 	O 	0.86770 0.72360 0.40310 -0.38500
H 	H 	0.83660 0.69410 0.33710 0.22600
O 	O 	0.87390 0.83580 0.27090 -0.20700
O 	O 	0.88160 0.94300 0.35310 -0.18500
O 	O 	0.76560 0.94620 0.18190 -0.16900
O 	O 	0.81610 0.07300 0.15490 -0.18000
O 	O 	0.78990 0.91610 0.55800 -0.20800
O 	O 	0.79390 0.82020 0.67230 -0.19100
O 	O 	0.61640 0.78970 0.76270 -0.22300
O 	O 	0.64490 0.76340 0.93570 -0.19400
U 	U 	0.51180 0.66758 0.85105 0.01300
U 	U 	0.67882 0.50607 0.18216 0.00100
U 	U 	0.83508 0.82871 0.46676 0.00700
U 	U 	0.66754 0.98966 0.17476 0.01500
H 	H 	0.80850 0.46840 0.25320 0.20600
C 	C 	0.21530 0.58490 0.97227 0.24200
C 	C 	0.26360 0.64500 0.88267 -0.14400
H 	H 	0.24830 0.61870 0.80917 0.09300
H 	H 	0.32050 0.66330 0.89427 0.09400
C 	C 	0.25170 0.71740 0.88187 -0.31200
H 	H 	0.26930 0.74370 0.95507 0.14400
H 	H 	0.28830 0.75490 0.82567 0.15100
C 	C 	0.17120 0.70680 0.85967 0.39600
C 	C 	0.43730 0.87960 0.71707 0.42800
C 	C 	0.47960 0.89170 0.82107 -0.34300
H 	H 	0.53640 0.91490 0.80217 0.15400
H 	H 	0.46210 0.83850 0.85257 0.14900
C 	C 	0.47430 0.94520 0.92027 -0.17000
H 	H 	0.42230 0.91410 0.95727 0.10900
H 	H 	0.51560 0.95480 0.97587 0.11900
C 	C 	0.48410 0.02570 0.88687 0.28800
C 	C 	0.71370 0.46870 0.97257 0.31100
C 	C 	0.72780 0.44190 0.86147 -0.22900
H 	H 	0.73740 0.48350 0.80627 0.13200
H 	H 	0.67820 0.39370 0.83947 0.12000
C 	C 	0.79720 0.42330 0.85107 -0.22500
H 	H 	0.79920 0.39250 0.91507 0.12500
H 	H 	0.79450 0.39550 0.78087 0.13000
C 	C 	0.86700 0.51040 0.85187 0.33900
C 	C 	0.45350 0.24950 0.01157 0.42700
C 	C 	0.43160 0.29630 0.08817 -0.31400
H 	H 	0.39290 0.30830 0.05277 0.15300
H 	H 	0.47900 0.34660 0.11047 0.15500
C 	C 	0.39500 0.24100 0.18777 -0.19700
H 	H 	0.38170 0.26840 0.24587 0.11800
H 	H 	0.43430 0.22830 0.21927 0.12200
C 	C 	0.31580 0.15950 0.15397 0.40600
C 	C 	0.09460 0.98920 0.93527 0.31500
C 	C 	0.05110 0.96340 0.81987 -0.19400
H 	H 	0.08940 0.96330 0.76597 0.12100
H 	H 	0.04010 0.00560 0.79627 0.12000
C 	C 	0.96860 0.87910 0.80557 -0.26700
H 	H 	0.92910 0.87510 0.86077 0.13900
H 	H 	0.94650 0.87530 0.73027 0.14100
C 	C 	0.98640 0.81490 0.82267 0.33500
C 	C 	0.12070 0.90170 0.31187 0.35400
C 	C 	0.08490 0.84280 0.40367 -0.24700
H 	H 	0.08140 0.79330 0.37637 0.14400
H 	H 	0.02980 0.83180 0.41197 0.13900
C 	C 	0.12000 0.85640 0.52227 -0.20900
H 	H 	0.13650 0.91070 0.54807 0.12800
H 	H 	0.08050 0.81800 0.57497 0.11500
C 	C 	0.19150 0.84440 0.51357 0.35400
O 	O 	0.18570 0.59580 0.05707 -0.16800
O 	O 	0.20140 0.50800 0.98647 -0.14700
O 	O 	0.15470 0.76300 0.86927 -0.20100
O 	O 	0.11930 0.63650 0.82257 -0.35600
H 	H 	0.11330 0.59410 0.87377 0.20500
O 	O 	0.44470 0.85630 0.62767 -0.23600
O 	O 	0.37090 0.88300 0.70847 -0.34700
H 	H 	0.37970 0.93680 0.72357 0.21800
O 	O 	0.50570 0.05660 0.78257 -0.19400
O 	O 	0.46660 0.05670 0.96567 -0.19200
O 	O 	0.64810 0.46650 0.97877 -0.21800
O 	O 	0.76100 0.47990 0.06277 -0.17000
O 	O 	0.86500 0.57280 0.83897 -0.20500
O 	O 	0.93830 0.52310 0.83267 -0.19500
O 	O 	0.45340 0.18880 0.03657 -0.25800
O 	O 	0.48100 0.28910 0.91677 -0.35300
O 	O 	0.29730 0.11240 0.23567 -0.21100
O 	O 	0.27640 0.14410 0.06977 -0.38300
H 	H 	0.30590 0.14250 0.00377 0.22800
O 	O 	0.16420 0.03810 0.93757 -0.20900
O 	O 	0.05700 0.93860 0.01977 -0.17100
O 	O 	0.05380 0.81940 0.84857 -0.17500
O 	O 	0.92700 0.74310 0.82157 -0.18300
O 	O 	0.08390 0.87380 0.22467 -0.20500
O 	O 	0.17980 0.97370 0.33897 -0.18900
O 	O 	0.21030 0.82670 0.42937 -0.22200
O 	O 	0.23660 0.88150 0.60237 -0.18900
U 	U 	0.33242 0.84422 0.51772 0.01500
U 	U 	0.49393 0.17275 0.84883 -0.00400
U 	U 	0.17129 0.00637 0.13343 0.00900
U 	U 	0.01034 0.67788 0.84143 0.01000
H 	H 	0.53160 0.34010 0.91987 0.20600
C 	C 	0.41510 0.63040 0.63893 0.25900
C 	C 	0.35500 0.61860 0.54933 -0.15300
H 	H 	0.38130 0.62960 0.47583 0.09600
H 	H 	0.33670 0.65720 0.56093 0.09800
C 	C 	0.28260 0.53430 0.54853 -0.30700
H 	H 	0.25630 0.52560 0.62173 0.14600
H 	H 	0.24510 0.53340 0.49233 0.15000
C 	C 	0.29320 0.46440 0.52633 0.39500
C 	C 	0.12040 0.55770 0.38373 0.42800
C 	C 	0.10830 0.58790 0.48773 -0.34300
H 	H 	0.08510 0.62150 0.46883 0.15500
H 	H 	0.16150 0.62360 0.51923 0.15100
C 	C 	0.05480 0.52910 0.58693 -0.17200
H 	H 	0.08590 0.50820 0.62393 0.11200
H 	H 	0.04520 0.56080 0.64253 0.12300
C 	C 	0.97430 0.45840 0.55353 0.28800
C 	C 	0.53130 0.24500 0.63923 0.32300
C 	C 	0.55810 0.28590 0.52813 -0.23400
H 	H 	0.51650 0.25390 0.47293 0.13400
H 	H 	0.60630 0.28450 0.50613 0.12200
C 	C 	0.57670 0.37390 0.51773 -0.22200
H 	H 	0.60750 0.40670 0.58173 0.12600
H 	H 	0.60450 0.39900 0.44753 0.12900
C 	C 	0.48960 0.35660 0.51853 0.33900
C 	C 	0.75050 0.20400 0.67823 0.41200
C 	C 	0.70370 0.13530 0.75483 -0.30400
H 	H 	0.69170 0.08460 0.71943 0.14800
H 	H 	0.65340 0.13240 0.77713 0.15000
C 	C 	0.75900 0.15400 0.85443 -0.20100
H 	H 	0.73160 0.11330 0.91253 0.11700
H 	H 	0.77170 0.20600 0.88593 0.12100
C 	C 	0.84050 0.15630 0.82063 0.40700
C 	C 	0.01080 0.10540 0.60193 0.33200
C 	C 	0.03660 0.08770 0.48653 -0.20000
H 	H 	0.03670 0.12610 0.43263 0.12300
H 	H 	0.99440 0.03450 0.46293 0.12200
C 	C 	0.12090 0.08950 0.47223 -0.26300
H 	H 	0.12490 0.05400 0.52743 0.14000
H 	H 	0.12470 0.07120 0.39693 0.14000
C 	C 	0.18510 0.17150 0.48933 0.33400
C 	C 	0.09830 0.21900 0.97853 0.32300
C 	C 	0.15720 0.24210 0.07033 -0.21700
H 	H 	0.20670 0.28810 0.04303 0.13700
H 	H 	0.16820 0.19800 0.07863 0.13200
C 	C 	0.14360 0.26360 0.18893 -0.22600
H 	H 	0.08930 0.22580 0.21473 0.13300
H 	H 	0.18200 0.26250 0.24163 0.12000
C 	C 	0.15560 0.34710 0.18023 0.35800
O 	O 	0.40420 0.58990 0.72373 -0.18300
O 	O 	0.49200 0.69340 0.65313 -0.14400
O 	O 	0.23700 0.39170 0.53593 -0.19900
O 	O 	0.36350 0.48280 0.48923 -0.35600
H 	H 	0.40590 0.51920 0.54043 0.20700
O 	O 	0.14370 0.58840 0.29433 -0.23500
O 	O 	0.11700 0.48790 0.37513 -0.34700
H 	H 	0.06320 0.44290 0.39023 0.21800
O 	O 	0.94340 0.44910 0.44923 -0.19300
O 	O 	0.94330 0.40990 0.63233 -0.18800
O 	O 	0.53350 0.18160 0.64543 -0.21600
O 	O 	0.52010 0.28110 0.72943 -0.18100
O 	O 	0.42720 0.29220 0.50563 -0.20400
O 	O 	0.47690 0.41520 0.49933 -0.19400
O 	O 	0.81120 0.26460 0.70323 -0.25800
O 	O 	0.71090 0.19190 0.58343 -0.34200
O 	O 	0.88760 0.18490 0.90233 -0.21600
O 	O 	0.85590 0.13230 0.73643 -0.38600
H 	H 	0.85750 0.16340 0.67043 0.22600
O 	O 	0.96190 0.12610 0.60423 -0.20900
O 	O 	0.06140 0.11840 0.68643 -0.18700
O 	O 	0.18060 0.23440 0.51523 -0.17300
O 	O 	0.25690 0.18390 0.48823 -0.18200
O 	O 	0.12620 0.21010 0.89133 -0.20300
O 	O 	0.02630 0.20610 0.00563 -0.17400
O 	O 	0.17330 0.38360 0.09603 -0.22000
O 	O 	0.11850 0.35510 0.26903 -0.19000
U 	U 	0.15578 0.48820 0.18438 0.01700
U 	U 	0.82725 0.32118 0.51549 -0.00100
U 	U 	0.99363 0.16492 0.80009 0.00600
U 	U 	0.32212 0.33246 0.50809 0.01100
H 	H 	0.65990 0.19150 0.58653 0.20600
