data_crystal

_cell_length_a 20.01920
_cell_length_b 20.24970
_cell_length_c 20.32160
_cell_angle_alpha 119.17900
_cell_angle_beta  100.96800
_cell_angle_gamma 101.34100

_symmetry_space_group_name_	'P 1'
_symmetry_space_group_name_H-M	'P 1'

loop_
_symmetry_equiv_pos_as_xyz
  x,y,z

loop_
_atom_site_label
_atom_site_type_symbol
_atom_site_fract_x
_atom_site_fract_y
_atom_site_fract_z
_atom_site_charge
Er	Er	0.17813 0.09234 0.25593 1.40400
Er	Er	0.02459 0.73281 0.88417 1.36600
Er	Er	0.80599 0.91514 0.08555 1.37600
Cu	Cu	0.89048 0.08928 0.09491 0.93500
Cu	Cu	0.99063 0.00720 0.16858 0.93700
Cu	Cu	0.09812 0.91434 0.07164 0.94000
Cu	Cu	0.18117 0.08484 0.08362 0.93800
Cu	Cu	0.91843 0.83140 0.98737 0.94900
Cu	Cu	0.07312 0.17524 0.18093 0.94200
Cu	Cu	0.69984 0.74560 0.07333 0.86600
Cu	Cu	0.87320 0.38101 0.21308 0.79700
Cu	Cu	0.77123 0.91123 0.24760 0.81700
Cu	Cu	0.04493 0.46245 0.29268 0.79600
Cu	Cu	0.36469 0.18430 0.36562 0.90300
Cu	Cu	0.29307 0.03007 0.35141 0.86900
N 	N 	0.44230 0.22750 0.33640 -0.27900
H 	H 	0.46400 0.28050 0.37300 0.10600
H 	H 	0.47560 0.20340 0.33590 0.06900
N 	N 	0.29520 0.92000 0.31230 -0.27500
H 	H 	0.34100 0.92020 0.31780 0.06800
H 	H 	0.27870 0.90270 0.34130 0.06300
N 	N 	0.52910 0.25460 0.59670 -0.28400
H 	H 	0.55940 0.27050 0.64390 0.09200
H 	H 	0.50950 0.29210 0.60240 0.11400
H 	H 	0.55300 0.24700 0.56240 0.10600
N 	N 	0.40290 0.50530 0.48020 -0.28300
H 	H 	0.40250 0.55130 0.52120 0.07400
H 	H 	0.38960 0.50560 0.43550 0.07100
N 	N 	0.20690 0.65240 0.75440 -0.27900
H 	H 	0.24600 0.64400 0.77480 0.04200
H 	H 	0.19410 0.62270 0.70080 0.03900
N 	N 	0.12310 0.50110 0.39220 -0.28000
H 	H 	0.10860 0.52670 0.43450 0.03300
H 	H 	0.16240 0.53630 0.39770 0.04400
N 	N 	0.70200 0.63580 0.01010 -0.30600
H 	H 	0.69720 0.61200 0.03730 0.07000
H 	H 	0.66460 0.60700 0.96390 0.09300
N 	N 	0.83960 0.96280 0.35650 -0.28000
H 	H 	0.82940 0.00530 0.39100 0.04300
H 	H 	0.83540 0.92780 0.37170 0.04500
N 	N 	0.49300 0.56860 0.10670 -0.27400
H 	H 	0.44670 0.56600 0.10180 0.06400
H 	H 	0.50690 0.55040 0.13770 0.06400
C 	C 	0.33330 0.16580 0.21690 0.40700
C 	C 	0.41280 0.21380 0.25780 -0.30600
H 	H 	0.43900 0.18580 0.22410 0.08600
H 	H 	0.42080 0.26530 0.26340 0.09400
C 	C 	0.20790 0.90470 0.19710 0.40700
C 	C 	0.24990 0.86590 0.22780 -0.32200
H 	H 	0.21640 0.81960 0.22100 0.08900
H 	H 	0.28050 0.84690 0.19600 0.08900
C 	C 	0.41910 0.15080 0.48560 0.39400
C 	C 	0.47140 0.17880 0.56610 -0.24100
H 	H 	0.44560 0.18680 0.60380 0.07700
H 	H 	0.49260 0.13800 0.56050 0.08000
C 	C 	0.38390 0.37000 0.45280 0.38700
C 	C 	0.35160 0.43720 0.47120 -0.29200
H 	H 	0.30710 0.41740 0.42810 0.09600
H 	H 	0.34020 0.45390 0.52010 0.08500
C 	C 	0.17150 0.77360 0.81870 0.40700
C 	C 	0.22470 0.73750 0.78300 -0.33800
H 	H 	0.22410 0.74200 0.73800 0.09900
H 	H 	0.27240 0.76800 0.82170 0.09800
C 	C 	0.10390 0.35630 0.30960 0.38900
C 	C 	0.14130 0.43530 0.39070 -0.30300
H 	H 	0.19320 0.44780 0.40390 0.09500
H 	H 	0.12770 0.42910 0.43120 0.07900
C 	C 	0.80780 0.71650 0.00580 0.35300
C 	C 	0.76920 0.63710 0.99340 -0.22500
H 	H 	0.75920 0.59410 0.93850 0.06800
H 	H 	0.80030 0.62740 0.02800 0.04300
C 	C 	0.91680 0.98240 0.28120 0.39800
C 	C 	0.91370 0.98940 0.35750 -0.31800
H 	H 	0.93970 0.95740 0.36680 0.08800
H 	H 	0.93800 0.04490 0.40160 0.08900
C 	C 	0.57790 0.65950 0.09180 0.38800
C 	C 	0.53820 0.65130 0.14420 -0.31600
H 	H 	0.57270 0.66900 0.19500 0.09100
H 	H 	0.50850 0.68530 0.15450 0.09200
O 	O 	0.01240 0.81730 0.01450 -0.62100
H 	H 	0.01170 0.79000 0.04320 0.12900
O 	O 	0.92100 0.89780 0.09750 -0.60300
H 	H 	0.92570 0.86820 0.12350 0.15400
O 	O 	0.07490 0.97160 0.16990 -0.60900
H 	H 	0.07220 0.93970 0.19390 0.14000
O 	O 	0.06320 0.11540 0.23350 -0.62000
H 	H 	0.05560 0.14750 0.28440 0.13400
O 	O 	0.97700 0.18460 0.16840 -0.60000
H 	H 	0.97170 0.21270 0.22130 0.15300
O 	O 	0.90490 0.03930 0.15570 -0.61500
H 	H 	0.90210 0.07410 0.20870 0.14000
O 	O 	0.17330 0.15100 0.04010 -0.62000
H 	H 	0.21170 0.20340 0.07630 0.14200
O 	O 	0.08190 0.22880 0.12260 -0.61000
H 	H 	0.12480 0.27740 0.15460 0.14300
O 	O 	0.16480 0.15620 0.18320 -0.60700
H 	H 	0.20380 0.20830 0.21300 0.14800
O 	O 	0.19150 0.01160 0.98080 -0.61000
H 	H 	0.23670 0.00040 0.98960 0.13500
O 	O 	0.17910 0.01370 0.12280 -0.60800
H 	H 	0.22400 0.00110 0.12500 0.14800
O 	O 	0.11730 0.86440 0.97040 -0.60300
H 	H 	0.16470 0.85790 0.97970 0.14200
O 	O 	0.27550 0.12680 0.36820 -0.66900
H 	H 	0.26710 0.15740 0.41900 0.14000
O 	O 	0.96400 0.39850 0.19040 -0.70200
H 	H 	0.96390 0.42450 0.16040 0.08300
O 	O 	0.72080 0.86320 0.13350 -0.67700
H 	H 	0.67660 0.87640 0.12530 0.10800
O 	O 	0.07000 0.98400 0.01900 -0.26000
O 	O 	0.98800 0.94800 0.03100 -0.26500
O 	O 	0.05800 0.07420 0.06200 -0.23900
O 	O 	0.01200 0.95400 0.92530 -0.23800
O 	O 	0.30290 0.14650 0.14820 -0.43600
O 	O 	0.30070 0.14970 0.25860 -0.53800
O 	O 	0.21880 0.97960 0.24620 -0.55100
O 	O 	0.16730 0.86490 0.12720 -0.43800
O 	O 	0.37160 0.08410 0.45260 -0.49000
O 	O 	0.42790 0.19650 0.46060 -0.45600
O 	O 	0.34430 0.30260 0.43050 -0.40300
O 	O 	0.45010 0.38880 0.46370 -0.46200
O 	O 	0.12280 0.72870 0.82720 -0.56200
O 	O 	0.17840 0.84330 0.84010 -0.43800
O 	O 	0.05810 0.35750 0.25630 -0.55500
O 	O 	0.11920 0.29660 0.29860 -0.42400
O 	O 	0.78320 0.77380 0.04100 -0.55000
O 	O 	0.86000 0.72240 0.98270 -0.41300
O 	O 	0.85590 0.94850 0.22290 -0.55700
O 	O 	0.97590 0.00820 0.27670 -0.43500
O 	O 	0.62670 0.72590 0.12140 -0.48900
O 	O 	0.56270 0.60070 0.02210 -0.49400
Er	Er	0.82187 0.90766 0.74407 1.40900
Er	Er	0.97541 0.26719 0.11583 1.35100
Er	Er	0.19401 0.08486 0.91445 1.40000
Cu	Cu	0.10952 0.91072 0.90509 0.93800
Cu	Cu	0.00937 0.99280 0.83142 0.93600
Cu	Cu	0.90188 0.08566 0.92836 0.94500
Cu	Cu	0.81883 0.91516 0.91638 0.94300
Cu	Cu	0.08157 0.16860 0.01263 0.93600
Cu	Cu	0.92688 0.82476 0.81907 0.94400
Cu	Cu	0.30016 0.25440 0.92667 0.87000
Cu	Cu	0.12680 0.61899 0.78692 0.79800
Cu	Cu	0.22877 0.08877 0.75240 0.81700
Cu	Cu	0.95507 0.53755 0.70732 0.79900
Cu	Cu	0.63531 0.81570 0.63438 0.90300
Cu	Cu	0.70693 0.96993 0.64859 0.87200
N 	N 	0.55770 0.77250 0.66360 -0.27900
H 	H 	0.53600 0.71950 0.62700 0.10600
H 	H 	0.52440 0.79660 0.66410 0.07000
N 	N 	0.70480 0.08000 0.68770 -0.27500
H 	H 	0.65900 0.07980 0.68220 0.06800
H 	H 	0.72130 0.09730 0.65870 0.06300
N 	N 	0.47090 0.74540 0.40330 -0.28400
H 	H 	0.44060 0.72950 0.35610 0.09000
H 	H 	0.49050 0.70790 0.39760 0.11300
H 	H 	0.44700 0.75300 0.43760 0.10600
N 	N 	0.59710 0.49470 0.51980 -0.28300
H 	H 	0.59750 0.44870 0.47880 0.07300
H 	H 	0.61040 0.49440 0.56450 0.07100
N 	N 	0.79310 0.34760 0.24560 -0.27900
H 	H 	0.75400 0.35600 0.22520 0.03900
H 	H 	0.80590 0.37730 0.29920 0.03900
N 	N 	0.87690 0.49890 0.60780 -0.28000
H 	H 	0.89140 0.47330 0.56550 0.03400
H 	H 	0.83760 0.46370 0.60230 0.04500
N 	N 	0.29800 0.36420 0.98990 -0.24900
H 	H 	0.30280 0.38800 0.96270 0.06400
H 	H 	0.33540 0.39300 0.03610 0.05900
N 	N 	0.16040 0.03720 0.64350 -0.28300
H 	H 	0.17060 0.99470 0.60900 0.04700
H 	H 	0.16460 0.07220 0.62830 0.04400
N 	N 	0.50700 0.43140 0.89330 -0.27300
H 	H 	0.55330 0.43400 0.89820 0.06900
H 	H 	0.49310 0.44960 0.86230 0.06900
C 	C 	0.66670 0.83420 0.78310 0.40800
C 	C 	0.58720 0.78620 0.74220 -0.30700
H 	H 	0.56100 0.81420 0.77590 0.09000
H 	H 	0.57920 0.73470 0.73660 0.09600
C 	C 	0.79210 0.09530 0.80290 0.40800
C 	C 	0.75010 0.13410 0.77220 -0.32400
H 	H 	0.78360 0.18040 0.77900 0.09200
H 	H 	0.71950 0.15310 0.80400 0.09300
C 	C 	0.58090 0.84920 0.51440 0.39400
C 	C 	0.52860 0.82120 0.43390 -0.24100
H 	H 	0.55440 0.81320 0.39620 0.07700
H 	H 	0.50740 0.86200 0.43950 0.08000
C 	C 	0.61610 0.63000 0.54720 0.38700
C 	C 	0.64840 0.56280 0.52880 -0.29200
H 	H 	0.69290 0.58260 0.57190 0.09600
H 	H 	0.65980 0.54610 0.47990 0.08500
C 	C 	0.82850 0.22640 0.18130 0.40500
C 	C 	0.77530 0.26250 0.21700 -0.33600
H 	H 	0.77590 0.25800 0.26200 0.09800
H 	H 	0.72760 0.23200 0.17830 0.09400
C 	C 	0.89610 0.64370 0.69040 0.39000
C 	C 	0.85870 0.56470 0.60930 -0.30300
H 	H 	0.80680 0.55220 0.59610 0.09500
H 	H 	0.87230 0.57090 0.56880 0.07900
C 	C 	0.19220 0.28350 0.99420 0.46000
C 	C 	0.23080 0.36290 0.00660 -0.39600
H 	H 	0.24080 0.40590 0.06150 0.11100
H 	H 	0.19970 0.37260 0.97200 0.11200
C 	C 	0.08320 0.01760 0.71880 0.39400
C 	C 	0.08630 0.01060 0.64250 -0.32500
H 	H 	0.06030 0.04260 0.63320 0.08700
H 	H 	0.06200 0.95510 0.59840 0.09300
C 	C 	0.42210 0.34050 0.90820 0.38700
C 	C 	0.46180 0.34870 0.85580 -0.31200
H 	H 	0.42730 0.33100 0.80500 0.09100
H 	H 	0.49150 0.31470 0.84550 0.09400
O 	O 	0.98760 0.18270 0.98550 -0.60000
H 	H 	0.98830 0.21000 0.95680 0.13500
O 	O 	0.07900 0.10220 0.90250 -0.59900
H 	H 	0.07430 0.13180 0.87650 0.15300
O 	O 	0.92510 0.02840 0.83010 -0.61100
H 	H 	0.92780 0.06030 0.80610 0.14100
O 	O 	0.93680 0.88460 0.76650 -0.61800
H 	H 	0.94440 0.85250 0.71560 0.13500
O 	O 	0.02300 0.81540 0.83160 -0.60300
H 	H 	0.02830 0.78730 0.77870 0.15100
O 	O 	0.09510 0.96070 0.84430 -0.61400
H 	H 	0.09790 0.92590 0.79130 0.14000
O 	O 	0.82670 0.84900 0.95990 -0.60500
H 	H 	0.78830 0.79660 0.92370 0.14500
O 	O 	0.91810 0.77120 0.87740 -0.60500
H 	H 	0.87520 0.72260 0.84540 0.14300
O 	O 	0.83520 0.84380 0.81680 -0.60800
H 	H 	0.79620 0.79170 0.78700 0.14900
O 	O 	0.80850 0.98840 0.01920 -0.61900
H 	H 	0.76330 0.99960 0.01040 0.13100
O 	O 	0.82090 0.98630 0.87720 -0.60400
H 	H 	0.77600 0.99890 0.87500 0.15400
O 	O 	0.88270 0.13560 0.02960 -0.61500
H 	H 	0.83530 0.14210 0.02030 0.13600
O 	O 	0.72450 0.87320 0.63180 -0.66900
H 	H 	0.73290 0.84260 0.58100 0.14000
O 	O 	0.03600 0.60150 0.80960 -0.70500
H 	H 	0.03610 0.57550 0.83960 0.08600
O 	O 	0.27920 0.13680 0.86650 -0.67700
H 	H 	0.32340 0.12360 0.87470 0.11000
O 	O 	0.93000 0.01600 0.98100 -0.24600
O 	O 	0.01200 0.05200 0.96900 -0.25600
O 	O 	0.94200 0.92580 0.93800 -0.22700
O 	O 	0.98800 0.04600 0.07470 -0.24400
O 	O 	0.69710 0.85350 0.85180 -0.42900
O 	O 	0.69930 0.85030 0.74140 -0.53800
O 	O 	0.78120 0.02040 0.75380 -0.55400
O 	O 	0.83270 0.13510 0.87280 -0.43100
O 	O 	0.62840 0.91590 0.54740 -0.48800
O 	O 	0.57210 0.80350 0.53940 -0.45600
O 	O 	0.65570 0.69740 0.56950 -0.40300
O 	O 	0.54990 0.61120 0.53630 -0.46200
O 	O 	0.87720 0.27130 0.17280 -0.56200
O 	O 	0.82160 0.15670 0.15990 -0.44000
O 	O 	0.94190 0.64250 0.74370 -0.55300
O 	O 	0.88080 0.70340 0.70140 -0.42400
O 	O 	0.21680 0.22620 0.95900 -0.57000
O 	O 	0.14000 0.27760 0.01730 -0.46900
O 	O 	0.14410 0.05150 0.77710 -0.55900
O 	O 	0.02410 0.99180 0.72330 -0.43300
O 	O 	0.37330 0.27410 0.87860 -0.48600
O 	O 	0.43730 0.39930 0.97790 -0.47900
Cu	Cu	0.50000 0.50000 -0.00000 0.86500
Cu	Cu	0.50000 0.50000 0.50000 0.87900
Cl	Cl	-0.00000 0.00000 -0.00000 0.18900
