data_crystal

_cell_length_a 9.03200
_cell_length_b 9.03200
_cell_length_c 31.32200
_cell_angle_alpha 90.00000
_cell_angle_beta  90.00000
_cell_angle_gamma 90.00000

_symmetry_space_group_name_	'P 1'
_symmetry_space_group_name_H-M	'P 1'

loop_
_symmetry_equiv_pos_as_xyz
  x,y,z

loop_
_atom_site_label
_atom_site_type_symbol
_atom_site_fract_x
_atom_site_fract_y
_atom_site_fract_z
_atom_site_charge
N 	N 	0.62650 0.61840 0.04515 -0.19400
N 	N 	0.60700 0.47100 0.04427 -0.16500
N 	N 	0.32650 0.64060 0.20510 -0.19200
N 	N 	0.31460 0.49210 0.20437 -0.17800
C 	C 	0.56230 0.66380 0.08129 0.01300
C 	C 	0.50120 0.54420 0.10354 -0.01500
C 	C 	0.53320 0.42380 0.07870 0.01000
C 	C 	0.39490 0.67530 0.16866 0.02200
C 	C 	0.42580 0.54960 0.14464 -0.02900
C 	C 	0.37230 0.43540 0.16901 0.03500
H 	H 	0.56000 0.77800 0.09030 0.00900
H 	H 	0.63400 0.42100 0.02340 0.09400
H 	H 	0.52300 0.33700 0.08290 0.02400
H 	H 	0.37200 0.34100 0.16350 0.01300
H 	H 	0.28900 0.44800 0.22560 0.10500
H 	H 	0.40700 0.78000 0.16190 0.00500
N 	N 	0.37350 0.38160 0.54515 -0.19100
N 	N 	0.39300 0.52900 0.54427 -0.16400
N 	N 	0.67350 0.35940 0.70510 -0.19100
N 	N 	0.68540 0.50790 0.70437 -0.17700
C 	C 	0.43770 0.33620 0.58129 0.01600
C 	C 	0.49880 0.45580 0.60354 -0.01500
C 	C 	0.46680 0.57620 0.57870 0.01300
C 	C 	0.60510 0.32470 0.66866 0.02200
C 	C 	0.57420 0.45040 0.64464 -0.02800
C 	C 	0.62770 0.56460 0.66901 0.03400
H 	H 	0.44000 0.22200 0.59030 0.01000
H 	H 	0.36600 0.57900 0.52340 0.09800
H 	H 	0.47700 0.66300 0.58290 0.02400
H 	H 	0.62800 0.65900 0.66350 0.01300
H 	H 	0.71100 0.55200 0.72560 0.10500
H 	H 	0.59300 0.22000 0.66190 0.00600
N 	N 	0.88160 0.12650 0.79515 -0.19100
N 	N 	0.02900 0.10700 0.79427 -0.16400
N 	N 	0.85940 0.82650 0.95510 -0.18700
N 	N 	0.00790 0.81460 0.95437 -0.17700
C 	C 	0.83620 0.06230 0.83129 0.01600
C 	C 	0.95580 0.00120 0.85354 -0.01500
C 	C 	0.07620 0.03320 0.82870 0.01400
C 	C 	0.82470 0.89490 0.91866 0.02300
C 	C 	0.95040 0.92580 0.89464 -0.02900
C 	C 	0.06460 0.87230 0.91901 0.03700
H 	H 	0.72200 0.06000 0.84030 0.01100
H 	H 	0.07900 0.13400 0.77340 0.09900
H 	H 	0.16300 0.02300 0.83290 0.02400
H 	H 	0.15900 0.87200 0.91350 0.01300
H 	H 	0.05200 0.78900 0.97560 0.10900
H 	H 	0.72000 0.90700 0.91190 0.00700
N 	N 	0.11840 0.87350 0.29515 -0.19100
N 	N 	0.97100 0.89300 0.29427 -0.16400
N 	N 	0.14060 0.17350 0.45510 -0.19100
N 	N 	0.99210 0.18540 0.45437 -0.17700
C 	C 	0.16380 0.93770 0.33129 0.01600
C 	C 	0.04420 0.99880 0.35354 -0.01700
C 	C 	0.92380 0.96680 0.32870 0.01600
C 	C 	0.17530 0.10510 0.41866 0.02200
C 	C 	0.04960 0.07420 0.39464 -0.02900
C 	C 	0.93540 0.12770 0.41901 0.03500
H 	H 	0.27800 0.94000 0.34030 0.01000
H 	H 	0.92100 0.86600 0.27340 0.09900
H 	H 	0.83700 0.97700 0.33290 0.02200
H 	H 	0.84100 0.12800 0.41350 0.01300
H 	H 	0.94800 0.21100 0.47560 0.10500
H 	H 	0.28000 0.09300 0.41190 0.00600
N 	N 	0.87350 0.11840 0.70485 -0.19100
N 	N 	0.89300 0.97100 0.70573 -0.16400
N 	N 	0.17350 0.14060 0.54490 -0.19100
N 	N 	0.18540 0.99210 0.54563 -0.17700
C 	C 	0.93770 0.16380 0.66871 0.01600
C 	C 	0.99880 0.04420 0.64646 -0.01600
C 	C 	0.96680 0.92380 0.67130 0.01400
C 	C 	0.10510 0.17530 0.58134 0.02200
C 	C 	0.07420 0.04960 0.60536 -0.02900
C 	C 	0.12770 0.93540 0.58099 0.03500
H 	H 	0.94000 0.27800 0.65970 0.01000
H 	H 	0.86600 0.92100 0.72660 0.09900
H 	H 	0.97700 0.83700 0.66710 0.02300
H 	H 	0.12800 0.84100 0.58650 0.01300
H 	H 	0.21100 0.94800 0.52440 0.10500
H 	H 	0.09300 0.28000 0.58810 0.00600
N 	N 	0.12650 0.88160 0.20485 -0.19200
N 	N 	0.10700 0.02900 0.20573 -0.16400
N 	N 	0.82650 0.85940 0.04490 -0.19300
N 	N 	0.81460 0.00790 0.04563 -0.17600
C 	C 	0.06230 0.83620 0.16871 0.01600
C 	C 	0.00120 0.95580 0.14646 -0.01800
C 	C 	0.03320 0.07620 0.17130 0.01600
C 	C 	0.89490 0.82470 0.08134 0.02100
C 	C 	0.92580 0.95040 0.10536 -0.02800
C 	C 	0.87230 0.06460 0.08099 0.03300
H 	H 	0.06000 0.72200 0.15970 0.01000
H 	H 	0.13400 0.07900 0.22660 0.09900
H 	H 	0.02300 0.16300 0.16710 0.02200
H 	H 	0.87200 0.15900 0.08650 0.01200
H 	H 	0.78900 0.05200 0.02440 0.10100
H 	H 	0.90700 0.72000 0.08810 0.00500
N 	N 	0.61840 0.62650 0.95485 -0.18700
N 	N 	0.47100 0.60700 0.95573 -0.16400
N 	N 	0.64060 0.32650 0.79490 -0.19100
N 	N 	0.49210 0.31460 0.79563 -0.17700
C 	C 	0.66380 0.56230 0.91871 0.01700
C 	C 	0.54420 0.50120 0.89646 -0.01500
C 	C 	0.42380 0.53320 0.92130 0.01600
C 	C 	0.67530 0.39490 0.83134 0.02200
C 	C 	0.54960 0.42580 0.85536 -0.02700
C 	C 	0.43540 0.37230 0.83099 0.03400
H 	H 	0.77800 0.56000 0.90970 0.01100
H 	H 	0.42100 0.63400 0.97660 0.10300
H 	H 	0.33700 0.52300 0.91710 0.02400
H 	H 	0.34100 0.37200 0.83650 0.01300
H 	H 	0.44800 0.28900 0.77440 0.10500
H 	H 	0.78000 0.40700 0.83810 0.00600
N 	N 	0.38160 0.37350 0.45485 -0.19100
N 	N 	0.52900 0.39300 0.45573 -0.16400
N 	N 	0.35940 0.67350 0.29490 -0.19100
N 	N 	0.50790 0.68540 0.29563 -0.17700
C 	C 	0.33620 0.43770 0.41871 0.01600
C 	C 	0.45580 0.49880 0.39646 -0.01500
C 	C 	0.57620 0.46680 0.42130 0.01300
C 	C 	0.32470 0.60510 0.33134 0.02200
C 	C 	0.45040 0.57420 0.35536 -0.02800
C 	C 	0.56460 0.62770 0.33099 0.03400
H 	H 	0.22200 0.44000 0.40970 0.01000
H 	H 	0.57900 0.36600 0.47660 0.09900
H 	H 	0.66300 0.47700 0.41710 0.02400
H 	H 	0.65900 0.62800 0.33650 0.01300
H 	H 	0.55200 0.71100 0.27440 0.10500
H 	H 	0.22000 0.59300 0.33810 0.00600
Cu	Cu	0.73262 0.73262 -0.00000 0.84500
Cu	Cu	0.26738 0.26738 0.50000 0.85100
Cu	Cu	0.76738 0.23262 0.75000 0.85100
Cu	Cu	0.23262 0.76738 0.25000 0.85100
