data_crystal

_cell_length_a 11.35500
_cell_length_b 11.35500
_cell_length_c 8.06250
_cell_angle_alpha 90.00000
_cell_angle_beta  90.00000
_cell_angle_gamma 120.00000

_symmetry_space_group_name_	'P 1'
_symmetry_space_group_name_H-M	'P 1'

loop_
_symmetry_equiv_pos_as_xyz
  x,y,z

loop_
_atom_site_label
_atom_site_type_symbol
_atom_site_fract_x
_atom_site_fract_y
_atom_site_fract_z
_atom_site_charge
N 	N 	0.12580 0.17210 0.15400 -0.15800
N 	N 	0.30600 0.35700 0.24400 -0.10200
C 	C 	0.07500 0.21500 0.28500 -0.06900
C 	C 	0.19600 0.34000 0.33300 0.04900
N 	N 	0.82790 0.95370 0.15400 -0.08200
N 	N 	0.64300 0.94900 0.24400 -0.02800
C 	C 	0.78500 0.86000 0.28500 0.01700
C 	C 	0.66000 0.85600 0.33300 0.04800
N 	N 	0.04630 0.87420 0.15400 -0.19100
N 	N 	0.05100 0.69400 0.24400 -0.11800
C 	C 	0.14000 0.92500 0.28500 0.08400
C 	C 	0.14400 0.80400 0.33300 0.03000
N 	N 	0.82790 0.87420 0.84600 -0.13500
N 	N 	0.64300 0.69400 0.75600 -0.10700
C 	C 	0.78500 0.92500 0.71500 0.09400
C 	C 	0.66000 0.80400 0.66700 0.04600
N 	N 	0.04630 0.17210 0.84600 -0.18400
N 	N 	0.05100 0.35700 0.75600 -0.12600
C 	C 	0.14000 0.21500 0.71500 0.01100
C 	C 	0.14400 0.34000 0.66700 0.04600
N 	N 	0.12580 0.95370 0.84600 -0.06800
N 	N 	0.30600 0.94900 0.75600 -0.03700
C 	C 	0.07500 0.86000 0.71500 -0.04000
C 	C 	0.19600 0.85600 0.66700 0.07500
N 	N 	0.87420 0.82790 0.84600 -0.13500
N 	N 	0.69400 0.64300 0.75600 -0.10700
C 	C 	0.92500 0.78500 0.71500 0.09400
C 	C 	0.80400 0.66000 0.66700 0.04600
N 	N 	0.17210 0.04630 0.84600 -0.18400
N 	N 	0.35700 0.05100 0.75600 -0.12600
C 	C 	0.21500 0.14000 0.71500 0.01100
C 	C 	0.34000 0.14400 0.66700 0.04600
N 	N 	0.95370 0.12580 0.84600 -0.06800
N 	N 	0.94900 0.30600 0.75600 -0.03700
C 	C 	0.86000 0.07500 0.71500 -0.04000
C 	C 	0.85600 0.19600 0.66700 0.07500
N 	N 	0.17210 0.12580 0.15400 -0.15900
N 	N 	0.35700 0.30600 0.24400 -0.10300
C 	C 	0.21500 0.07500 0.28500 -0.07000
C 	C 	0.34000 0.19600 0.33300 0.04900
N 	N 	0.95370 0.82790 0.15400 -0.08200
N 	N 	0.94900 0.64300 0.24400 -0.02800
C 	C 	0.86000 0.78500 0.28500 0.01700
C 	C 	0.85600 0.66000 0.33300 0.04800
N 	N 	0.87420 0.04630 0.15400 -0.19100
N 	N 	0.69400 0.05100 0.24400 -0.11800
C 	C 	0.92500 0.14000 0.28500 0.08400
C 	C 	0.80400 0.14400 0.33300 0.03000
Co	Co	-0.00000 0.00000 -0.00000 1.05700
C 	C 	0.25870 0.25870 0.13500 0.14100
C 	C 	0.45870 0.45870 0.24600 0.02900
C 	C 	0.49200 0.49200 0.43100 0.00400
C 	C 	0.74130 -0.00000 0.13500 0.05400
C 	C 	0.54130 0.00000 0.24600 -0.01500
C 	C 	0.50800 0.00000 0.43100 -0.01100
C 	C 	-0.00000 0.74130 0.13500 0.05400
C 	C 	0.00000 0.54130 0.24600 -0.01500
C 	C 	-0.00000 0.50800 0.43100 -0.01100
C 	C 	0.74130 0.74130 0.86500 0.21600
C 	C 	0.54130 0.54130 0.75400 0.09100
C 	C 	0.50800 0.50800 0.56900 -0.00900
C 	C 	0.00000 0.25870 0.86500 0.13400
C 	C 	-0.00000 0.45870 0.75400 0.04700
C 	C 	0.00000 0.49200 0.56900 -0.02700
C 	C 	0.25870 0.00000 0.86500 0.13400
C 	C 	0.45870 0.00000 0.75400 0.04700
C 	C 	0.49200 0.00000 0.56900 -0.02700
