data_crystal

_cell_length_a 18.87300
_cell_length_b 19.32900
_cell_length_c 25.91100
_cell_angle_alpha 90.00000
_cell_angle_beta  101.04000
_cell_angle_gamma 90.00000

_symmetry_space_group_name_	'P 1'
_symmetry_space_group_name_H-M	'P 1'

loop_
_symmetry_equiv_pos_as_xyz
  x,y,z

loop_
_atom_site_label
_atom_site_type_symbol
_atom_site_fract_x
_atom_site_fract_y
_atom_site_fract_z
_atom_site_charge
O 	O 	0.23430 0.05940 0.51730 -0.44000
O 	O 	0.31320 0.02920 0.46950 -0.47900
C 	C 	0.29690 0.04750 0.51180 0.39100
O 	O 	0.30570 0.08160 0.70650 -0.42700
O 	O 	0.40980 0.11010 0.74090 -0.41100
C 	C 	0.36970 0.09050 0.70340 0.41400
O 	O 	0.67080 0.43150 0.45240 -0.45700
O 	O 	0.76330 0.36920 0.49550 -0.40100
C 	C 	0.69930 0.39020 0.48850 0.34500
O 	O 	0.44450 0.39410 0.60110 -0.42700
O 	O 	0.44510 0.44260 0.52970 -0.40800
C 	C 	0.47250 0.40460 0.56290 0.39900
C 	C 	0.54480 0.37200 0.56200 -0.13500
C 	C 	0.86460 0.93850 0.80070 -0.01200
H 	H 	0.87670 0.93200 0.83690 0.04500
Cd	Cd	0.69654 0.07855 0.57095 1.22200
Cd	Cd	0.67811 0.11975 0.70645 1.21100
Cd	Cd	0.83646 0.94740 0.56226 1.21000
O 	O 	0.57500 0.08540 0.55150 -0.39800
C 	C 	0.48090 0.06910 0.59890 -0.15300
C 	C 	0.46200 0.07720 0.64770 0.09500
H 	H 	0.49780 0.08390 0.67740 0.02400
C 	C 	0.33770 0.06740 0.60730 0.10300
H 	H 	0.28940 0.06980 0.61020 0.02300
C 	C 	0.55890 0.06940 0.59550 0.37100
N 	N 	0.76830 0.02810 0.64360 -0.17100
O 	O 	0.70360 0.18290 0.61790 -0.46300
O 	O 	0.61900 0.20980 0.66360 -0.40600
C 	C 	0.67410 0.30650 0.55720 0.06400
H 	H 	0.71770 0.28460 0.55610 0.03500
C 	C 	0.65400 0.36190 0.52620 -0.11700
N 	N 	0.75810 0.04120 0.69170 -0.21800
C 	C 	0.63070 0.28180 0.59060 -0.13200
C 	C 	0.35440 0.05610 0.55900 -0.17000
C 	C 	0.65220 0.22210 0.62580 0.32900
C 	C 	0.42700 0.05720 0.55530 0.09400
H 	H 	0.43970 0.04990 0.52280 0.02500
C 	C 	0.58740 0.39600 0.52740 0.05500
H 	H 	0.57270 0.43360 0.50560 0.04100
N 	N 	0.81600 0.98120 0.64180 -0.20900
O 	O 	0.60580 0.05530 0.63440 -0.46600
C 	C 	0.56750 0.31600 0.59420 0.06500
H 	H 	0.54010 0.30130 0.61840 0.03300
C 	C 	0.39060 0.07550 0.65230 -0.17000
C 	C 	0.83890 0.95930 0.69090 0.06500
C 	C 	0.80210 0.99780 0.72140 0.06500
C 	C 	0.81550 0.98760 0.77960 -0.11400
H 	H 	0.79110 0.01370 0.80080 0.08500
C 	C 	0.88850 0.90670 0.70870 -0.11600
H 	H 	0.91270 0.88110 0.68710 0.07400
C 	C 	0.89730 0.89710 0.76520 -0.02500
H 	H 	0.92680 0.86080 0.77990 0.04800
O 	O 	0.73430 0.55940 0.51730 -0.44100
O 	O 	0.81320 0.52920 0.46950 -0.48000
C 	C 	0.79690 0.54750 0.51180 0.39000
O 	O 	0.80570 0.58160 0.70650 -0.42800
O 	O 	0.90980 0.61010 0.74090 -0.41200
C 	C 	0.86970 0.59050 0.70340 0.41300
O 	O 	0.17080 0.93150 0.45240 -0.45800
O 	O 	0.26330 0.86920 0.49550 -0.40200
C 	C 	0.19930 0.89020 0.48850 0.34500
O 	O 	0.94450 0.89410 0.60110 -0.42700
O 	O 	0.94510 0.94260 0.52970 -0.40800
C 	C 	0.97250 0.90460 0.56290 0.39900
C 	C 	0.04480 0.87200 0.56200 -0.13500
C 	C 	0.36460 0.43850 0.80070 -0.01200
H 	H 	0.37670 0.43200 0.83690 0.04500
Cd	Cd	0.19654 0.57855 0.57095 1.22200
Cd	Cd	0.17811 0.61975 0.70645 1.21100
Cd	Cd	0.33646 0.44740 0.56226 1.21000
O 	O 	0.07500 0.58540 0.55150 -0.39800
C 	C 	0.98090 0.56910 0.59890 -0.15300
C 	C 	0.96200 0.57720 0.64770 0.09500
H 	H 	0.99780 0.58390 0.67740 0.02400
C 	C 	0.83770 0.56740 0.60730 0.10300
H 	H 	0.78940 0.56980 0.61020 0.02300
C 	C 	0.05890 0.56940 0.59550 0.37100
N 	N 	0.26830 0.52810 0.64360 -0.17100
O 	O 	0.20360 0.68290 0.61790 -0.46300
O 	O 	0.11900 0.70980 0.66360 -0.40600
C 	C 	0.17410 0.80650 0.55720 0.06500
H 	H 	0.21770 0.78460 0.55610 0.03500
C 	C 	0.15400 0.86190 0.52620 -0.11700
N 	N 	0.25810 0.54120 0.69170 -0.21800
C 	C 	0.13070 0.78180 0.59060 -0.13200
C 	C 	0.85440 0.55610 0.55900 -0.17000
C 	C 	0.15220 0.72210 0.62580 0.32900
C 	C 	0.92700 0.55720 0.55530 0.09400
H 	H 	0.93970 0.54990 0.52280 0.02500
C 	C 	0.08740 0.89600 0.52740 0.05500
H 	H 	0.07270 0.93360 0.50560 0.04100
N 	N 	0.31600 0.48120 0.64180 -0.20900
O 	O 	0.10580 0.55530 0.63440 -0.46600
C 	C 	0.06750 0.81600 0.59420 0.06500
H 	H 	0.04010 0.80130 0.61840 0.03300
C 	C 	0.89060 0.57550 0.65230 -0.17000
C 	C 	0.33890 0.45930 0.69090 0.06500
C 	C 	0.30210 0.49780 0.72140 0.06500
C 	C 	0.31550 0.48760 0.77960 -0.11400
H 	H 	0.29110 0.51370 0.80080 0.08500
C 	C 	0.38850 0.40670 0.70870 -0.11500
H 	H 	0.41270 0.38110 0.68710 0.07400
C 	C 	0.39730 0.39710 0.76520 -0.02500
H 	H 	0.42680 0.36080 0.77990 0.04800
O 	O 	0.76570 0.05940 0.98270 -0.44100
O 	O 	0.68680 0.02920 0.03050 -0.48100
C 	C 	0.70310 0.04750 0.98820 0.39000
O 	O 	0.69430 0.08160 0.79350 -0.42800
O 	O 	0.59020 0.11010 0.75910 -0.41200
C 	C 	0.63030 0.09050 0.79660 0.41300
O 	O 	0.32920 0.43150 0.04760 -0.45800
O 	O 	0.23670 0.36920 0.00450 -0.40200
C 	C 	0.30070 0.39020 0.01150 0.34500
O 	O 	0.55550 0.39410 0.89890 -0.42700
O 	O 	0.55490 0.44260 0.97030 -0.40800
C 	C 	0.52750 0.40460 0.93710 0.39900
C 	C 	0.45520 0.37200 0.93800 -0.13500
C 	C 	0.13540 0.93850 0.69930 -0.01200
H 	H 	0.12330 0.93200 0.66310 0.04500
Cd	Cd	0.30346 0.07855 0.92905 1.22200
Cd	Cd	0.32189 0.11975 0.79355 1.21100
Cd	Cd	0.16354 0.94740 0.93774 1.21000
O 	O 	0.42500 0.08540 0.94850 -0.39800
C 	C 	0.51910 0.06910 0.90110 -0.15300
C 	C 	0.53800 0.07720 0.85230 0.09500
H 	H 	0.50220 0.08390 0.82260 0.02400
C 	C 	0.66230 0.06740 0.89270 0.10300
H 	H 	0.71060 0.06980 0.88980 0.02300
C 	C 	0.44110 0.06940 0.90450 0.37100
N 	N 	0.23170 0.02810 0.85640 -0.17100
O 	O 	0.29640 0.18290 0.88210 -0.46400
O 	O 	0.38100 0.20980 0.83640 -0.40600
C 	C 	0.32590 0.30650 0.94280 0.06500
H 	H 	0.28230 0.28460 0.94390 0.03500
C 	C 	0.34600 0.36190 0.97380 -0.11700
N 	N 	0.24190 0.04120 0.80830 -0.21800
C 	C 	0.36930 0.28180 0.90940 -0.13200
C 	C 	0.64560 0.05610 0.94100 -0.17000
C 	C 	0.34780 0.22210 0.87420 0.32900
C 	C 	0.57300 0.05720 0.94470 0.09400
H 	H 	0.56030 0.04990 0.97720 0.02500
C 	C 	0.41260 0.39600 0.97260 0.05500
H 	H 	0.42730 0.43360 0.99440 0.04100
N 	N 	0.18400 0.98120 0.85820 -0.21000
O 	O 	0.39420 0.05530 0.86560 -0.46600
C 	C 	0.43250 0.31600 0.90580 0.06500
H 	H 	0.45990 0.30130 0.88160 0.03300
C 	C 	0.60940 0.07550 0.84770 -0.17000
C 	C 	0.16110 0.95930 0.80910 0.06500
C 	C 	0.19790 0.99780 0.77860 0.06500
C 	C 	0.18450 0.98760 0.72040 -0.11400
H 	H 	0.20890 0.01370 0.69920 0.08500
C 	C 	0.11150 0.90670 0.79130 -0.11600
H 	H 	0.08730 0.88110 0.81290 0.07400
C 	C 	0.10270 0.89710 0.73480 -0.02500
H 	H 	0.07320 0.86080 0.72010 0.04800
O 	O 	0.26570 0.55940 0.98270 -0.44100
O 	O 	0.18680 0.52920 0.03050 -0.48000
C 	C 	0.20310 0.54750 0.98820 0.39000
O 	O 	0.19430 0.58160 0.79350 -0.42800
O 	O 	0.09020 0.61010 0.75910 -0.41200
C 	C 	0.13030 0.59050 0.79660 0.41300
O 	O 	0.82920 0.93150 0.04760 -0.45800
O 	O 	0.73670 0.86920 0.00450 -0.40200
C 	C 	0.80070 0.89020 0.01150 0.34500
O 	O 	0.05550 0.89410 0.89890 -0.42700
O 	O 	0.05490 0.94260 0.97030 -0.40800
C 	C 	0.02750 0.90460 0.93710 0.39900
C 	C 	0.95520 0.87200 0.93800 -0.13500
C 	C 	0.63540 0.43850 0.69930 -0.01200
H 	H 	0.62330 0.43200 0.66310 0.04500
Cd	Cd	0.80346 0.57855 0.92905 1.22200
Cd	Cd	0.82189 0.61975 0.79355 1.21100
Cd	Cd	0.66354 0.44740 0.93774 1.21000
O 	O 	0.92500 0.58540 0.94850 -0.39800
C 	C 	0.01910 0.56910 0.90110 -0.15300
C 	C 	0.03800 0.57720 0.85230 0.09600
H 	H 	0.00220 0.58390 0.82260 0.02400
C 	C 	0.16230 0.56740 0.89270 0.10300
H 	H 	0.21060 0.56980 0.88980 0.02300
C 	C 	0.94110 0.56940 0.90450 0.37200
N 	N 	0.73170 0.52810 0.85640 -0.17100
O 	O 	0.79640 0.68290 0.88210 -0.46300
O 	O 	0.88100 0.70980 0.83640 -0.40600
C 	C 	0.82590 0.80650 0.94280 0.06400
H 	H 	0.78230 0.78460 0.94390 0.03500
C 	C 	0.84600 0.86190 0.97380 -0.11600
N 	N 	0.74190 0.54120 0.80830 -0.21800
C 	C 	0.86930 0.78180 0.90940 -0.13200
C 	C 	0.14560 0.55610 0.94100 -0.17000
C 	C 	0.84780 0.72210 0.87420 0.32900
C 	C 	0.07300 0.55720 0.94470 0.09400
H 	H 	0.06030 0.54990 0.97720 0.02500
C 	C 	0.91260 0.89600 0.97260 0.05500
H 	H 	0.92730 0.93360 0.99440 0.04100
N 	N 	0.68400 0.48120 0.85820 -0.20900
O 	O 	0.89420 0.55530 0.86560 -0.46600
C 	C 	0.93250 0.81600 0.90580 0.06400
H 	H 	0.95990 0.80130 0.88160 0.03400
C 	C 	0.10940 0.57550 0.84770 -0.17000
C 	C 	0.66110 0.45930 0.80910 0.06500
C 	C 	0.69790 0.49780 0.77860 0.06500
C 	C 	0.68450 0.48760 0.72040 -0.11400
H 	H 	0.70890 0.51370 0.69920 0.08500
C 	C 	0.61150 0.40670 0.79130 -0.11500
H 	H 	0.58730 0.38110 0.81290 0.07400
C 	C 	0.60270 0.39710 0.73480 -0.02500
H 	H 	0.57320 0.36080 0.72010 0.04800
O 	O 	0.76570 0.94060 0.48270 -0.44100
O 	O 	0.68680 0.97080 0.53050 -0.48000
C 	C 	0.70310 0.95250 0.48820 0.39000
O 	O 	0.69430 0.91840 0.29350 -0.42800
O 	O 	0.59020 0.88990 0.25910 -0.41200
C 	C 	0.63030 0.90950 0.29660 0.41300
O 	O 	0.32920 0.56850 0.54760 -0.45800
O 	O 	0.23670 0.63080 0.50450 -0.40200
C 	C 	0.30070 0.60980 0.51150 0.34500
O 	O 	0.55550 0.60590 0.39890 -0.42700
O 	O 	0.55490 0.55740 0.47030 -0.40800
C 	C 	0.52750 0.59540 0.43710 0.39900
C 	C 	0.45520 0.62800 0.43800 -0.13500
C 	C 	0.13540 0.06150 0.19930 -0.01200
H 	H 	0.12330 0.06800 0.16310 0.04500
Cd	Cd	0.30346 0.92145 0.42905 1.22200
Cd	Cd	0.32189 0.88025 0.29355 1.21100
Cd	Cd	0.16354 0.05260 0.43774 1.21000
O 	O 	0.42500 0.91460 0.44850 -0.39800
C 	C 	0.51910 0.93090 0.40110 -0.15300
C 	C 	0.53800 0.92280 0.35230 0.09500
H 	H 	0.50220 0.91610 0.32260 0.02400
C 	C 	0.66230 0.93260 0.39270 0.10300
H 	H 	0.71060 0.93020 0.38980 0.02300
C 	C 	0.44110 0.93060 0.40450 0.37100
N 	N 	0.23170 0.97190 0.35640 -0.17100
O 	O 	0.29640 0.81710 0.38210 -0.46300
O 	O 	0.38100 0.79020 0.33640 -0.40600
C 	C 	0.32590 0.69350 0.44280 0.06400
H 	H 	0.28230 0.71540 0.44390 0.03500
C 	C 	0.34600 0.63810 0.47380 -0.11700
N 	N 	0.24190 0.95880 0.30830 -0.21800
C 	C 	0.36930 0.71820 0.40940 -0.13200
C 	C 	0.64560 0.94390 0.44100 -0.17000
C 	C 	0.34780 0.77790 0.37420 0.32900
C 	C 	0.57300 0.94280 0.44470 0.09400
H 	H 	0.56030 0.95010 0.47720 0.02500
C 	C 	0.41260 0.60400 0.47260 0.05500
H 	H 	0.42730 0.56640 0.49440 0.04100
N 	N 	0.18400 0.01880 0.35820 -0.20900
O 	O 	0.39420 0.94470 0.36560 -0.46600
C 	C 	0.43250 0.68400 0.40580 0.06500
H 	H 	0.45990 0.69870 0.38160 0.03300
C 	C 	0.60940 0.92450 0.34770 -0.17000
C 	C 	0.16110 0.04070 0.30910 0.06500
C 	C 	0.19790 0.00220 0.27860 0.06500
C 	C 	0.18450 0.01240 0.22040 -0.11400
H 	H 	0.20890 0.98630 0.19920 0.08500
C 	C 	0.11150 0.09330 0.29130 -0.11600
H 	H 	0.08730 0.11890 0.31290 0.07400
C 	C 	0.10270 0.10290 0.23480 -0.02500
H 	H 	0.07320 0.13920 0.22010 0.04800
O 	O 	0.26570 0.44060 0.48270 -0.44100
O 	O 	0.18680 0.47080 0.53050 -0.48000
C 	C 	0.20310 0.45250 0.48820 0.39000
O 	O 	0.19430 0.41840 0.29350 -0.42800
O 	O 	0.09020 0.38990 0.25910 -0.41200
C 	C 	0.13030 0.40950 0.29660 0.41300
O 	O 	0.82920 0.06850 0.54760 -0.45800
O 	O 	0.73670 0.13080 0.50450 -0.40200
C 	C 	0.80070 0.10980 0.51150 0.34500
O 	O 	0.05550 0.10590 0.39890 -0.42700
O 	O 	0.05490 0.05740 0.47030 -0.40800
C 	C 	0.02750 0.09540 0.43710 0.39900
C 	C 	0.95520 0.12800 0.43800 -0.13500
C 	C 	0.63540 0.56150 0.19930 -0.01200
H 	H 	0.62330 0.56800 0.16310 0.04500
Cd	Cd	0.80346 0.42145 0.42905 1.22200
Cd	Cd	0.82189 0.38025 0.29355 1.21100
Cd	Cd	0.66354 0.55260 0.43774 1.21000
O 	O 	0.92500 0.41460 0.44850 -0.39800
C 	C 	0.01910 0.43090 0.40110 -0.15300
C 	C 	0.03800 0.42280 0.35230 0.09500
H 	H 	0.00220 0.41610 0.32260 0.02400
C 	C 	0.16230 0.43260 0.39270 0.10300
H 	H 	0.21060 0.43020 0.38980 0.02300
C 	C 	0.94110 0.43060 0.40450 0.37100
N 	N 	0.73170 0.47190 0.35640 -0.17100
O 	O 	0.79640 0.31710 0.38210 -0.46300
O 	O 	0.88100 0.29020 0.33640 -0.40600
C 	C 	0.82590 0.19350 0.44280 0.06500
H 	H 	0.78230 0.21540 0.44390 0.03500
C 	C 	0.84600 0.13810 0.47380 -0.11700
N 	N 	0.74190 0.45880 0.30830 -0.21800
C 	C 	0.86930 0.21820 0.40940 -0.13200
C 	C 	0.14560 0.44390 0.44100 -0.17000
C 	C 	0.84780 0.27790 0.37420 0.32900
C 	C 	0.07300 0.44280 0.44470 0.09400
H 	H 	0.06030 0.45010 0.47720 0.02500
C 	C 	0.91260 0.10400 0.47260 0.05500
H 	H 	0.92730 0.06640 0.49440 0.04100
N 	N 	0.68400 0.51880 0.35820 -0.20900
O 	O 	0.89420 0.44470 0.36560 -0.46600
C 	C 	0.93250 0.18400 0.40580 0.06500
H 	H 	0.95990 0.19870 0.38160 0.03300
C 	C 	0.10940 0.42450 0.34770 -0.17000
C 	C 	0.66110 0.54070 0.30910 0.06500
C 	C 	0.69790 0.50220 0.27860 0.06500
C 	C 	0.68450 0.51240 0.22040 -0.11400
H 	H 	0.70890 0.48630 0.19920 0.08500
C 	C 	0.61150 0.59330 0.29130 -0.11500
H 	H 	0.58730 0.61890 0.31290 0.07400
C 	C 	0.60270 0.60290 0.23480 -0.02500
H 	H 	0.57320 0.63920 0.22010 0.04800
O 	O 	0.23430 0.94060 0.01730 -0.44100
O 	O 	0.31320 0.97080 0.96950 -0.48100
C 	C 	0.29690 0.95250 0.01180 0.39000
O 	O 	0.30570 0.91840 0.20650 -0.42800
O 	O 	0.40980 0.88990 0.24090 -0.41200
C 	C 	0.36970 0.90950 0.20340 0.41300
O 	O 	0.67080 0.56850 0.95240 -0.45800
O 	O 	0.76330 0.63080 0.99550 -0.40200
C 	C 	0.69930 0.60980 0.98850 0.34500
O 	O 	0.44450 0.60590 0.10110 -0.42700
O 	O 	0.44510 0.55740 0.02970 -0.40800
C 	C 	0.47250 0.59540 0.06290 0.39900
C 	C 	0.54480 0.62800 0.06200 -0.13500
C 	C 	0.86460 0.06150 0.30070 -0.01200
H 	H 	0.87670 0.06800 0.33690 0.04500
Cd	Cd	0.69654 0.92145 0.07095 1.22200
Cd	Cd	0.67811 0.88025 0.20645 1.21100
Cd	Cd	0.83646 0.05260 0.06226 1.21000
O 	O 	0.57500 0.91460 0.05150 -0.39800
C 	C 	0.48090 0.93090 0.09890 -0.15300
C 	C 	0.46200 0.92280 0.14770 0.09500
H 	H 	0.49780 0.91610 0.17740 0.02400
C 	C 	0.33770 0.93260 0.10730 0.10300
H 	H 	0.28940 0.93020 0.11020 0.02300
C 	C 	0.55890 0.93060 0.09550 0.37100
N 	N 	0.76830 0.97190 0.14360 -0.17100
O 	O 	0.70360 0.81710 0.11790 -0.46400
O 	O 	0.61900 0.79020 0.16360 -0.40600
C 	C 	0.67410 0.69350 0.05720 0.06500
H 	H 	0.71770 0.71540 0.05610 0.03500
C 	C 	0.65400 0.63810 0.02620 -0.11700
N 	N 	0.75810 0.95880 0.19170 -0.21800
C 	C 	0.63070 0.71820 0.09060 -0.13200
C 	C 	0.35440 0.94390 0.05900 -0.17000
C 	C 	0.65220 0.77790 0.12580 0.32900
C 	C 	0.42700 0.94280 0.05530 0.09400
H 	H 	0.43970 0.95010 0.02280 0.02500
C 	C 	0.58740 0.60400 0.02740 0.05500
H 	H 	0.57270 0.56640 0.00560 0.04100
N 	N 	0.81600 0.01880 0.14180 -0.21000
O 	O 	0.60580 0.94470 0.13440 -0.46600
C 	C 	0.56750 0.68400 0.09420 0.06500
H 	H 	0.54010 0.69870 0.11840 0.03300
C 	C 	0.39060 0.92450 0.15230 -0.17000
C 	C 	0.83890 0.04070 0.19090 0.06500
C 	C 	0.80210 0.00220 0.22140 0.06500
C 	C 	0.81550 0.01240 0.27960 -0.11400
H 	H 	0.79110 0.98630 0.30080 0.08500
C 	C 	0.88850 0.09330 0.20870 -0.11600
H 	H 	0.91270 0.11890 0.18710 0.07400
C 	C 	0.89730 0.10290 0.26520 -0.02500
H 	H 	0.92680 0.13920 0.27990 0.04800
O 	O 	0.73430 0.44060 0.01730 -0.44100
O 	O 	0.81320 0.47080 0.96950 -0.48000
C 	C 	0.79690 0.45250 0.01180 0.39000
O 	O 	0.80570 0.41840 0.20650 -0.42800
O 	O 	0.90980 0.38990 0.24090 -0.41200
C 	C 	0.86970 0.40950 0.20340 0.41300
O 	O 	0.17080 0.06850 0.95240 -0.45800
O 	O 	0.26330 0.13080 0.99550 -0.40200
C 	C 	0.19930 0.10980 0.98850 0.34500
O 	O 	0.94450 0.10590 0.10110 -0.42700
O 	O 	0.94510 0.05740 0.02970 -0.40800
C 	C 	0.97250 0.09540 0.06290 0.39900
C 	C 	0.04480 0.12800 0.06200 -0.13500
C 	C 	0.36460 0.56150 0.30070 -0.01200
H 	H 	0.37670 0.56800 0.33690 0.04500
Cd	Cd	0.19654 0.42145 0.07095 1.22200
Cd	Cd	0.17811 0.38025 0.20645 1.21100
Cd	Cd	0.33646 0.55260 0.06226 1.21000
O 	O 	0.07500 0.41460 0.05150 -0.39800
C 	C 	0.98090 0.43090 0.09890 -0.15300
C 	C 	0.96200 0.42280 0.14770 0.09600
H 	H 	0.99780 0.41610 0.17740 0.02400
C 	C 	0.83770 0.43260 0.10730 0.10300
H 	H 	0.78940 0.43020 0.11020 0.02300
C 	C 	0.05890 0.43060 0.09550 0.37200
N 	N 	0.26830 0.47190 0.14360 -0.17100
O 	O 	0.20360 0.31710 0.11790 -0.46300
O 	O 	0.11900 0.29020 0.16360 -0.40600
C 	C 	0.17410 0.19350 0.05720 0.06400
H 	H 	0.21770 0.21540 0.05610 0.03500
C 	C 	0.15400 0.13810 0.02620 -0.11600
N 	N 	0.25810 0.45880 0.19170 -0.21800
C 	C 	0.13070 0.21820 0.09060 -0.13200
C 	C 	0.85440 0.44390 0.05900 -0.17000
C 	C 	0.15220 0.27790 0.12580 0.32900
C 	C 	0.92700 0.44280 0.05530 0.09400
H 	H 	0.93970 0.45010 0.02280 0.02500
C 	C 	0.08740 0.10400 0.02740 0.05500
H 	H 	0.07270 0.06640 0.00560 0.04100
N 	N 	0.31600 0.51880 0.14180 -0.20900
O 	O 	0.10580 0.44470 0.13440 -0.46600
C 	C 	0.06750 0.18400 0.09420 0.06400
H 	H 	0.04010 0.19870 0.11840 0.03400
C 	C 	0.89060 0.42450 0.15230 -0.17000
C 	C 	0.33890 0.54070 0.19090 0.06500
C 	C 	0.30210 0.50220 0.22140 0.06500
C 	C 	0.31550 0.51240 0.27960 -0.11400
H 	H 	0.29110 0.48630 0.30080 0.08500
C 	C 	0.38850 0.59330 0.20870 -0.11500
H 	H 	0.41270 0.61890 0.18710 0.07400
C 	C 	0.39730 0.60290 0.26520 -0.02500
H 	H 	0.42680 0.63920 0.27990 0.04800
