data_crystal

_cell_length_a 13.71700
_cell_length_b 13.71700
_cell_length_c 58.97000
_cell_angle_alpha 90.00000
_cell_angle_beta  90.00000
_cell_angle_gamma 120.00000

_symmetry_space_group_name_	'P 1'
_symmetry_space_group_name_H-M	'P 1'

loop_
_symmetry_equiv_pos_as_xyz
  x,y,z

loop_
_atom_site_label
_atom_site_type_symbol
_atom_site_fract_x
_atom_site_fract_y
_atom_site_fract_z
_atom_site_charge
C 	C 	0.85330 0.01880 0.03903 0.06500
H 	H 	0.84140 0.95190 0.04550 0.02500
C 	C 	0.91000 0.16030 0.01742 0.00500
H 	H 	0.94590 0.21140 0.00570 0.02900
C 	C 	0.84320 0.16950 0.03295 0.00500
H 	H 	0.82550 0.22650 0.03410 0.03200
C 	C 	0.73350 0.05100 0.06584 0.10600
C 	C 	0.70100 0.12090 0.07431 -0.04600
H 	H 	0.72540 0.19130 0.06790 0.05000
N 	N 	0.91810 0.06700 0.02104 -0.22600
N 	N 	0.80700 0.07870 0.04666 -0.13000
N 	N 	0.70020 0.95180 0.07378 -0.07900
C 	C 	0.51997 0.35213 0.37236 0.10100
H 	H 	0.50807 0.28523 0.37883 -0.00100
C 	C 	0.57667 0.49363 0.35075 0.00500
H 	H 	0.61257 0.54473 0.33903 0.02500
C 	C 	0.50987 0.50283 0.36628 0.00700
H 	H 	0.49217 0.55983 0.36743 0.03100
C 	C 	0.40017 0.38433 0.39917 0.14000
C 	C 	0.36767 0.45423 0.40764 -0.09100
H 	H 	0.39207 0.52463 0.40123 0.06400
N 	N 	0.58477 0.40033 0.35437 -0.23400
N 	N 	0.47367 0.41203 0.37999 -0.14000
N 	N 	0.36687 0.28513 0.40711 -0.09800
C 	C 	0.18663 0.68547 0.70570 0.10200
H 	H 	0.17473 0.61857 0.71217 -0.00100
C 	C 	0.24333 0.82697 0.68409 0.00500
H 	H 	0.27923 0.87807 0.67237 0.02600
C 	C 	0.17653 0.83617 0.69962 0.00900
H 	H 	0.15883 0.89317 0.70077 0.03100
C 	C 	0.06683 0.71767 0.73251 0.15600
C 	C 	0.03433 0.78757 0.74098 -0.13900
H 	H 	0.05873 0.85797 0.73457 0.08100
N 	N 	0.25143 0.73367 0.68771 -0.23400
N 	N 	0.14033 0.74537 0.71333 -0.14300
N 	N 	0.03353 0.61847 0.74045 -0.10900
C 	C 	0.98120 0.83450 0.03903 0.13900
H 	H 	0.04810 0.88950 0.04550 -0.01800
C 	C 	0.83970 0.74970 0.01742 0.00500
H 	H 	0.78860 0.73450 0.00570 0.02700
C 	C 	0.83050 0.67370 0.03295 0.01200
H 	H 	0.77350 0.59900 0.03410 0.02900
C 	C 	0.94900 0.68250 0.06584 0.17700
C 	C 	0.87910 0.58010 0.07431 -0.13100
H 	H 	0.80870 0.53410 0.06790 0.08000
N 	N 	0.93300 0.85110 0.02104 -0.23100
N 	N 	0.92130 0.72830 0.04666 -0.14900
N 	N 	0.04820 0.74840 0.07378 -0.11100
C 	C 	0.64787 0.16783 0.37236 0.09800
H 	H 	0.71477 0.22283 0.37883 0.00200
C 	C 	0.50637 0.08303 0.35075 0.02900
H 	H 	0.45527 0.06783 0.33903 0.01100
C 	C 	0.49717 0.00703 0.36628 -0.04300
H 	H 	0.44017 0.93233 0.36743 0.06100
C 	C 	0.61567 0.01583 0.39917 0.09900
C 	C 	0.54577 0.91343 0.40764 -0.02700
H 	H 	0.47537 0.86743 0.40123 0.04600
N 	N 	0.59967 0.18443 0.35437 -0.23800
N 	N 	0.58797 0.06163 0.37999 -0.12700
N 	N 	0.71487 0.08173 0.40711 -0.08800
C 	C 	0.31453 0.50117 0.70570 0.10000
H 	H 	0.38143 0.55617 0.71217 0.00100
C 	C 	0.17303 0.41637 0.68409 0.00300
H 	H 	0.12193 0.40117 0.67237 0.02100
C 	C 	0.16383 0.34037 0.69962 0.00600
H 	H 	0.10683 0.26567 0.70077 0.02500
C 	C 	0.28233 0.34917 0.73251 0.13800
C 	C 	0.21243 0.24677 0.74098 -0.09000
H 	H 	0.14203 0.20077 0.73457 0.05800
N 	N 	0.26633 0.51777 0.68771 -0.23400
N 	N 	0.25463 0.39497 0.71333 -0.14000
N 	N 	0.38153 0.41507 0.74045 -0.09600
C 	C 	0.16550 0.14670 0.03903 0.09800
H 	H 	0.11050 0.15860 0.04550 -0.00600
C 	C 	0.25030 0.09000 0.01742 0.00400
H 	H 	0.26550 0.05410 0.00570 0.01800
C 	C 	0.32630 0.15680 0.03295 0.00400
H 	H 	0.40100 0.17450 0.03410 0.02900
C 	C 	0.31750 0.26650 0.06584 0.13700
C 	C 	0.41990 0.29900 0.07431 -0.08900
H 	H 	0.46590 0.27460 0.06790 0.06300
N 	N 	0.14890 0.08190 0.02104 -0.24000
N 	N 	0.27170 0.19300 0.04666 -0.14000
N 	N 	0.25160 0.29980 0.07378 -0.09800
C 	C 	0.83217 0.48003 0.37236 0.10500
H 	H 	0.77717 0.49193 0.37883 -0.00000
C 	C 	0.91697 0.42333 0.35075 -0.01900
H 	H 	0.93217 0.38743 0.33903 0.03600
C 	C 	0.99297 0.49013 0.36628 0.05900
H 	H 	0.06767 0.50783 0.36743 -0.00100
C 	C 	0.98417 0.59983 0.39917 0.18200
C 	C 	0.08657 0.63233 0.40764 -0.14900
H 	H 	0.13257 0.60793 0.40123 0.08200
N 	N 	0.81557 0.41523 0.35437 -0.23000
N 	N 	0.93837 0.52633 0.37999 -0.15200
N 	N 	0.91827 0.63313 0.40711 -0.10200
C 	C 	0.49883 0.81337 0.70570 0.10100
H 	H 	0.44383 0.82527 0.71217 0.00200
C 	C 	0.58363 0.75667 0.68409 0.00700
H 	H 	0.59883 0.72077 0.67237 0.02600
C 	C 	0.65963 0.82347 0.69962 0.00800
H 	H 	0.73433 0.84117 0.70077 0.03500
C 	C 	0.65083 0.93317 0.73251 0.12600
C 	C 	0.75323 0.96567 0.74098 -0.03700
H 	H 	0.79923 0.94127 0.73457 0.05300
N 	N 	0.48223 0.74857 0.68771 -0.23400
N 	N 	0.60503 0.85967 0.71333 -0.13600
N 	N 	0.58493 0.96647 0.74045 -0.08400
C 	C 	0.01880 0.85330 0.46097 0.06600
H 	H 	0.95190 0.84140 0.45450 0.02600
C 	C 	0.16030 0.91000 0.48258 0.00600
H 	H 	0.21140 0.94590 0.49430 0.03000
C 	C 	0.16950 0.84320 0.46705 0.00600
H 	H 	0.22650 0.82550 0.46590 0.03300
C 	C 	0.05100 0.73350 0.43416 0.10600
C 	C 	0.12090 0.70100 0.42569 -0.04600
H 	H 	0.19130 0.72540 0.43210 0.05000
N 	N 	0.06700 0.91810 0.47896 -0.22600
N 	N 	0.07870 0.80700 0.45334 -0.13000
N 	N 	0.95180 0.70020 0.42622 -0.07900
C 	C 	0.68547 0.18663 0.79430 0.10200
H 	H 	0.61857 0.17473 0.78783 -0.00100
C 	C 	0.82697 0.24333 0.81591 0.00500
H 	H 	0.87807 0.27923 0.82763 0.02600
C 	C 	0.83617 0.17653 0.80038 0.00900
H 	H 	0.89317 0.15883 0.79923 0.03100
C 	C 	0.71767 0.06683 0.76749 0.15600
C 	C 	0.78757 0.03433 0.75902 -0.13900
H 	H 	0.85797 0.05873 0.76543 0.08100
N 	N 	0.73367 0.25143 0.81229 -0.23400
N 	N 	0.74537 0.14033 0.78667 -0.14300
N 	N 	0.61847 0.03353 0.75955 -0.10900
C 	C 	0.35213 0.51997 0.12764 0.10100
H 	H 	0.28523 0.50807 0.12117 -0.00100
C 	C 	0.49363 0.57667 0.14925 0.00500
H 	H 	0.54473 0.61257 0.16097 0.02500
C 	C 	0.50283 0.50987 0.13372 0.00700
H 	H 	0.55983 0.49217 0.13257 0.03100
C 	C 	0.38433 0.40017 0.10083 0.14000
C 	C 	0.45423 0.36767 0.09236 -0.09100
H 	H 	0.52463 0.39207 0.09877 0.06400
N 	N 	0.40033 0.58477 0.14563 -0.23400
N 	N 	0.41203 0.47367 0.12001 -0.14000
N 	N 	0.28513 0.36687 0.09289 -0.09800
C 	C 	0.83450 0.98120 0.46097 0.13900
H 	H 	0.88950 0.04810 0.45450 -0.01800
C 	C 	0.74970 0.83970 0.48258 0.00500
H 	H 	0.73450 0.78860 0.49430 0.02700
C 	C 	0.67370 0.83050 0.46705 0.01200
H 	H 	0.59900 0.77350 0.46590 0.02900
C 	C 	0.68250 0.94900 0.43416 0.17700
C 	C 	0.58010 0.87910 0.42569 -0.13100
H 	H 	0.53410 0.80870 0.43210 0.08000
N 	N 	0.85110 0.93300 0.47896 -0.23100
N 	N 	0.72830 0.92130 0.45334 -0.14900
N 	N 	0.74840 0.04820 0.42622 -0.11100
C 	C 	0.50117 0.31453 0.79430 0.10000
H 	H 	0.55617 0.38143 0.78783 0.00100
C 	C 	0.41637 0.17303 0.81591 0.00300
H 	H 	0.40117 0.12193 0.82763 0.02100
C 	C 	0.34037 0.16383 0.80038 0.00600
H 	H 	0.26567 0.10683 0.79923 0.02500
C 	C 	0.34917 0.28233 0.76749 0.13800
C 	C 	0.24677 0.21243 0.75902 -0.09000
H 	H 	0.20077 0.14203 0.76543 0.05800
N 	N 	0.51777 0.26633 0.81229 -0.23400
N 	N 	0.39497 0.25463 0.78667 -0.14000
N 	N 	0.41507 0.38153 0.75955 -0.09600
C 	C 	0.16783 0.64787 0.12764 0.09800
H 	H 	0.22283 0.71477 0.12117 0.00200
C 	C 	0.08303 0.50637 0.14925 0.02900
H 	H 	0.06783 0.45527 0.16097 0.01100
C 	C 	0.00703 0.49717 0.13372 -0.04300
H 	H 	0.93233 0.44017 0.13257 0.06100
C 	C 	0.01583 0.61567 0.10083 0.09900
C 	C 	0.91343 0.54577 0.09236 -0.02700
H 	H 	0.86743 0.47537 0.09877 0.04600
N 	N 	0.18443 0.59967 0.14563 -0.23800
N 	N 	0.06163 0.58797 0.12001 -0.12700
N 	N 	0.08173 0.71487 0.09289 -0.08800
C 	C 	0.14670 0.16550 0.46097 0.09800
H 	H 	0.15860 0.11050 0.45450 -0.00600
C 	C 	0.09000 0.25030 0.48258 0.00400
H 	H 	0.05410 0.26550 0.49430 0.01800
C 	C 	0.15680 0.32630 0.46705 0.00400
H 	H 	0.17450 0.40100 0.46590 0.02900
C 	C 	0.26650 0.31750 0.43416 0.13700
C 	C 	0.29900 0.41990 0.42569 -0.08900
H 	H 	0.27460 0.46590 0.43210 0.06300
N 	N 	0.08190 0.14890 0.47896 -0.24000
N 	N 	0.19300 0.27170 0.45334 -0.14000
N 	N 	0.29980 0.25160 0.42622 -0.09800
C 	C 	0.81337 0.49883 0.79430 0.10100
H 	H 	0.82527 0.44383 0.78783 0.00200
C 	C 	0.75667 0.58363 0.81591 0.00700
H 	H 	0.72077 0.59883 0.82763 0.02600
C 	C 	0.82347 0.65963 0.80038 0.00800
H 	H 	0.84117 0.73433 0.79923 0.03500
C 	C 	0.93317 0.65083 0.76749 0.12600
C 	C 	0.96567 0.75323 0.75902 -0.03700
H 	H 	0.94127 0.79923 0.76543 0.05300
N 	N 	0.74857 0.48223 0.81229 -0.23400
N 	N 	0.85967 0.60503 0.78667 -0.13600
N 	N 	0.96647 0.58493 0.75955 -0.08400
C 	C 	0.48003 0.83217 0.12764 0.10500
H 	H 	0.49193 0.77717 0.12117 -0.00000
C 	C 	0.42333 0.91697 0.14925 -0.01900
H 	H 	0.38743 0.93217 0.16097 0.03600
C 	C 	0.49013 0.99297 0.13372 0.05900
H 	H 	0.50783 0.06767 0.13257 -0.00100
C 	C 	0.59983 0.98417 0.10083 0.18200
C 	C 	0.63233 0.08657 0.09236 -0.14900
H 	H 	0.60793 0.13257 0.09877 0.08200
N 	N 	0.41523 0.81557 0.14563 -0.23000
N 	N 	0.52633 0.93837 0.12001 -0.15200
N 	N 	0.63313 0.91827 0.09289 -0.10200
C 	C 	0.14670 0.98120 0.96097 0.14100
H 	H 	0.15860 0.04810 0.95450 -0.02800
C 	C 	0.09000 0.83970 0.98258 0.00300
H 	H 	0.05410 0.78860 0.99430 0.02000
C 	C 	0.15680 0.83050 0.96705 0.00900
H 	H 	0.17450 0.77350 0.96590 0.02800
C 	C 	0.26650 0.94900 0.93416 0.17700
C 	C 	0.29900 0.87910 0.92569 -0.13300
H 	H 	0.27460 0.80870 0.93210 0.07900
N 	N 	0.08190 0.93300 0.97896 -0.23800
N 	N 	0.19300 0.92130 0.95334 -0.15100
N 	N 	0.29980 0.04820 0.92622 -0.11500
C 	C 	0.81337 0.31453 0.29430 0.10100
H 	H 	0.82527 0.38143 0.28783 0.00200
C 	C 	0.75667 0.17303 0.31591 0.00500
H 	H 	0.72077 0.12193 0.32763 0.02300
C 	C 	0.82347 0.16383 0.30038 0.00600
H 	H 	0.84117 0.10683 0.29923 0.03000
C 	C 	0.93317 0.28233 0.26749 0.12300
C 	C 	0.96567 0.21243 0.25902 -0.03400
H 	H 	0.94127 0.14203 0.26543 0.04600
N 	N 	0.74857 0.26633 0.31229 -0.23400
N 	N 	0.85967 0.25463 0.28667 -0.13600
N 	N 	0.96647 0.38153 0.25955 -0.08300
C 	C 	0.48003 0.64787 0.62764 0.10100
H 	H 	0.49193 0.71477 0.62117 0.00200
C 	C 	0.42333 0.50637 0.64925 0.00500
H 	H 	0.38743 0.45527 0.66097 0.02300
C 	C 	0.49013 0.49717 0.63372 0.00700
H 	H 	0.50783 0.44017 0.63257 0.03000
C 	C 	0.59983 0.61567 0.60083 0.14100
C 	C 	0.63233 0.54577 0.59236 -0.08700
H 	H 	0.60793 0.47537 0.59877 0.06400
N 	N 	0.41523 0.59967 0.64563 -0.23400
N 	N 	0.52633 0.58797 0.62001 -0.14000
N 	N 	0.63313 0.71487 0.59289 -0.09400
C 	C 	0.01880 0.16550 0.96097 0.05800
H 	H 	0.95190 0.11050 0.95450 0.02400
C 	C 	0.16030 0.25030 0.98258 0.00500
H 	H 	0.21140 0.26550 0.99430 0.02300
C 	C 	0.16950 0.32630 0.96705 0.00300
H 	H 	0.22650 0.40100 0.96590 0.03200
C 	C 	0.05100 0.31750 0.93416 0.10100
C 	C 	0.12090 0.41990 0.92569 -0.04400
H 	H 	0.19130 0.46590 0.93210 0.04700
N 	N 	0.06700 0.14890 0.97896 -0.23300
N 	N 	0.07870 0.27170 0.95334 -0.13000
N 	N 	0.95180 0.25160 0.92622 -0.07900
C 	C 	0.68547 0.49883 0.29430 0.10200
H 	H 	0.61857 0.44383 0.28783 0.00000
C 	C 	0.82697 0.58363 0.31591 0.00700
H 	H 	0.87807 0.59883 0.32763 0.02700
C 	C 	0.83617 0.65963 0.30038 0.00900
H 	H 	0.89317 0.73433 0.29923 0.03600
C 	C 	0.71767 0.65083 0.26749 0.14200
C 	C 	0.78757 0.75323 0.25902 -0.08800
H 	H 	0.85797 0.79923 0.26543 0.07000
N 	N 	0.73367 0.48223 0.31229 -0.23400
N 	N 	0.74537 0.60503 0.28667 -0.13900
N 	N 	0.61847 0.58493 0.25955 -0.09600
C 	C 	0.35213 0.83217 0.62764 0.10400
H 	H 	0.28523 0.77717 0.62117 -0.00100
C 	C 	0.49363 0.91697 0.64925 -0.01900
H 	H 	0.54473 0.93217 0.66097 0.03700
C 	C 	0.50283 0.99297 0.63372 0.05800
H 	H 	0.55983 0.06767 0.63257 0.00000
C 	C 	0.38433 0.98417 0.60083 0.18300
C 	C 	0.45423 0.08657 0.59236 -0.15400
H 	H 	0.52463 0.13257 0.59877 0.08300
N 	N 	0.40033 0.81557 0.64563 -0.23000
N 	N 	0.41203 0.93837 0.62001 -0.15300
N 	N 	0.28513 0.91827 0.59289 -0.10400
C 	C 	0.83450 0.85330 0.96097 0.10400
H 	H 	0.88950 0.84140 0.95450 0.00700
C 	C 	0.74970 0.91000 0.98258 0.00600
H 	H 	0.73450 0.94590 0.99430 0.03100
C 	C 	0.67370 0.84320 0.96705 0.01100
H 	H 	0.59900 0.82550 0.96590 0.03200
C 	C 	0.68250 0.73350 0.93416 0.14300
C 	C 	0.58010 0.70100 0.92569 -0.08900
H 	H 	0.53410 0.72540 0.93210 0.06600
N 	N 	0.85110 0.91810 0.97896 -0.22500
N 	N 	0.72830 0.80700 0.95334 -0.13900
N 	N 	0.74840 0.70020 0.92622 -0.09400
C 	C 	0.50117 0.18663 0.29430 0.10100
H 	H 	0.55617 0.17473 0.28783 -0.00100
C 	C 	0.41637 0.24333 0.31591 0.00300
H 	H 	0.40117 0.27923 0.32763 0.02300
C 	C 	0.34037 0.17653 0.30038 0.00700
H 	H 	0.26567 0.15883 0.29923 0.02500
C 	C 	0.34917 0.06683 0.26749 0.15500
C 	C 	0.24677 0.03433 0.25902 -0.14500
H 	H 	0.20077 0.05873 0.26543 0.07600
N 	N 	0.51777 0.25143 0.31229 -0.23400
N 	N 	0.39497 0.14033 0.28667 -0.14400
N 	N 	0.41507 0.03353 0.25955 -0.10900
C 	C 	0.16783 0.51997 0.62764 0.09800
H 	H 	0.22283 0.50807 0.62117 0.00100
C 	C 	0.08303 0.57667 0.64925 0.02900
H 	H 	0.06783 0.61257 0.66097 0.01200
C 	C 	0.00703 0.50987 0.63372 -0.04300
H 	H 	0.93233 0.49217 0.63257 0.06100
C 	C 	0.01583 0.40017 0.60083 0.09700
C 	C 	0.91343 0.36767 0.59236 -0.02600
H 	H 	0.86743 0.39207 0.59877 0.04500
N 	N 	0.18443 0.58477 0.64563 -0.23800
N 	N 	0.06163 0.47367 0.62001 -0.12700
N 	N 	0.08173 0.36687 0.59289 -0.09000
C 	C 	0.98120 0.14670 0.53903 0.14100
H 	H 	0.04810 0.15860 0.54550 -0.02800
C 	C 	0.83970 0.09000 0.51742 0.00300
H 	H 	0.78860 0.05410 0.50570 0.02000
C 	C 	0.83050 0.15680 0.53295 0.00900
H 	H 	0.77350 0.17450 0.53410 0.02800
C 	C 	0.94900 0.26650 0.56584 0.17700
C 	C 	0.87910 0.29900 0.57431 -0.13300
H 	H 	0.80870 0.27460 0.56790 0.07900
N 	N 	0.93300 0.08190 0.52104 -0.23800
N 	N 	0.92130 0.19300 0.54666 -0.15100
N 	N 	0.04820 0.29980 0.57378 -0.11500
C 	C 	0.64787 0.48003 0.87236 0.10100
H 	H 	0.71477 0.49193 0.87883 0.00200
C 	C 	0.50637 0.42333 0.85075 0.00500
H 	H 	0.45527 0.38743 0.83903 0.02300
C 	C 	0.49717 0.49013 0.86628 0.00700
H 	H 	0.44017 0.50783 0.86743 0.03000
C 	C 	0.61567 0.59983 0.89917 0.14100
C 	C 	0.54577 0.63233 0.90764 -0.08700
H 	H 	0.47537 0.60793 0.90123 0.06400
N 	N 	0.59967 0.41523 0.85437 -0.23400
N 	N 	0.58797 0.52633 0.87999 -0.14000
N 	N 	0.71487 0.63313 0.90711 -0.09400
C 	C 	0.31453 0.81337 0.20570 0.10100
H 	H 	0.38143 0.82527 0.21217 0.00200
C 	C 	0.17303 0.75667 0.18409 0.00500
H 	H 	0.12193 0.72077 0.17237 0.02300
C 	C 	0.16383 0.82347 0.19962 0.00600
H 	H 	0.10683 0.84117 0.20077 0.03000
C 	C 	0.28233 0.93317 0.23251 0.12300
C 	C 	0.21243 0.96567 0.24098 -0.03400
H 	H 	0.14203 0.94127 0.23457 0.04600
N 	N 	0.26633 0.74857 0.18771 -0.23400
N 	N 	0.25463 0.85967 0.21333 -0.13600
N 	N 	0.38153 0.96647 0.24045 -0.08300
C 	C 	0.16550 0.01880 0.53903 0.05800
H 	H 	0.11050 0.95190 0.54550 0.02400
C 	C 	0.25030 0.16030 0.51742 0.00500
H 	H 	0.26550 0.21140 0.50570 0.02300
C 	C 	0.32630 0.16950 0.53295 0.00300
H 	H 	0.40100 0.22650 0.53410 0.03200
C 	C 	0.31750 0.05100 0.56584 0.10100
C 	C 	0.41990 0.12090 0.57431 -0.04400
H 	H 	0.46590 0.19130 0.56790 0.04700
N 	N 	0.14890 0.06700 0.52104 -0.23300
N 	N 	0.27170 0.07870 0.54666 -0.13000
N 	N 	0.25160 0.95180 0.57378 -0.07900
C 	C 	0.83217 0.35213 0.87236 0.10400
H 	H 	0.77717 0.28523 0.87883 -0.00100
C 	C 	0.91697 0.49363 0.85075 -0.01900
H 	H 	0.93217 0.54473 0.83903 0.03700
C 	C 	0.99297 0.50283 0.86628 0.05800
H 	H 	0.06767 0.55983 0.86743 0.00000
C 	C 	0.98417 0.38433 0.89917 0.18300
C 	C 	0.08657 0.45423 0.90764 -0.15400
H 	H 	0.13257 0.52463 0.90123 0.08300
N 	N 	0.81557 0.40033 0.85437 -0.23000
N 	N 	0.93837 0.41203 0.87999 -0.15300
N 	N 	0.91827 0.28513 0.90711 -0.10400
C 	C 	0.49883 0.68547 0.20570 0.10200
H 	H 	0.44383 0.61857 0.21217 0.00000
C 	C 	0.58363 0.82697 0.18409 0.00700
H 	H 	0.59883 0.87807 0.17237 0.02700
C 	C 	0.65963 0.83617 0.19962 0.00900
H 	H 	0.73433 0.89317 0.20077 0.03600
C 	C 	0.65083 0.71767 0.23251 0.14200
C 	C 	0.75323 0.78757 0.24098 -0.08800
H 	H 	0.79923 0.85797 0.23457 0.07000
N 	N 	0.48223 0.73367 0.18771 -0.23400
N 	N 	0.60503 0.74537 0.21333 -0.13900
N 	N 	0.58493 0.61847 0.24045 -0.09600
C 	C 	0.85330 0.83450 0.53903 0.10400
H 	H 	0.84140 0.88950 0.54550 0.00700
C 	C 	0.91000 0.74970 0.51742 0.00600
H 	H 	0.94590 0.73450 0.50570 0.03100
C 	C 	0.84320 0.67370 0.53295 0.01100
H 	H 	0.82550 0.59900 0.53410 0.03200
C 	C 	0.73350 0.68250 0.56584 0.14300
C 	C 	0.70100 0.58010 0.57431 -0.08900
H 	H 	0.72540 0.53410 0.56790 0.06600
N 	N 	0.91810 0.85110 0.52104 -0.22500
N 	N 	0.80700 0.72830 0.54666 -0.13900
N 	N 	0.70020 0.74840 0.57378 -0.09400
C 	C 	0.51997 0.16783 0.87236 0.09800
H 	H 	0.50807 0.22283 0.87883 0.00100
C 	C 	0.57667 0.08303 0.85075 0.02900
H 	H 	0.61257 0.06783 0.83903 0.01200
C 	C 	0.50987 0.00703 0.86628 -0.04300
H 	H 	0.49217 0.93233 0.86743 0.06100
C 	C 	0.40017 0.01583 0.89917 0.09700
C 	C 	0.36767 0.91343 0.90764 -0.02600
H 	H 	0.39207 0.86743 0.90123 0.04500
N 	N 	0.58477 0.18443 0.85437 -0.23800
N 	N 	0.47367 0.06163 0.87999 -0.12700
N 	N 	0.36687 0.08173 0.90711 -0.09000
C 	C 	0.18663 0.50117 0.20570 0.10100
H 	H 	0.17473 0.55617 0.21217 -0.00100
C 	C 	0.24333 0.41637 0.18409 0.00300
H 	H 	0.27923 0.40117 0.17237 0.02300
C 	C 	0.17653 0.34037 0.19962 0.00700
H 	H 	0.15883 0.26567 0.20077 0.02500
C 	C 	0.06683 0.34917 0.23251 0.15500
C 	C 	0.03433 0.24677 0.24098 -0.14500
H 	H 	0.05873 0.20077 0.23457 0.07600
N 	N 	0.25143 0.51777 0.18771 -0.23400
N 	N 	0.14033 0.39497 0.21333 -0.14400
N 	N 	0.03353 0.41507 0.24045 -0.10900
Co	Co	-0.00000 0.00000 -0.00000 1.09900
Co	Co	0.66667 0.33333 0.33333 1.11600
Co	Co	0.33333 0.66667 0.66667 1.11600
Co	Co	-0.00000 0.00000 0.50000 1.09900
Co	Co	0.66667 0.33333 0.83333 1.11600
Co	Co	0.33333 0.66667 0.16667 1.11600
