data_crystal

_cell_length_a 11.10660
_cell_length_b 12.98420
_cell_length_c 13.42940
_cell_angle_alpha 117.34500
_cell_angle_beta  93.68800
_cell_angle_gamma 93.87900

_symmetry_space_group_name_	'P 1'
_symmetry_space_group_name_H-M	'P 1'

loop_
_symmetry_equiv_pos_as_xyz
  x,y,z

loop_
_atom_site_label
_atom_site_type_symbol
_atom_site_fract_x
_atom_site_fract_y
_atom_site_fract_z
_atom_site_charge
As	As	0.99170 0.58690 0.88380 0.43600
As	As	0.22800 0.82440 0.76720 0.35700
As	As	0.06990 0.91950 0.10530 0.45100
As	As	0.24890 0.33350 0.75140 0.36500
As	As	0.55230 0.94300 0.62290 0.45800
As	As	0.57180 0.45100 0.63070 0.47500
Fe	Fe	0.94560 0.79800 0.82290 1.24300
Fe	Fe	0.49660 0.20580 0.65670 1.24800
Fe	Fe	0.97490 0.30820 0.83410 1.24600
Fe	Fe	0.47030 0.69990 0.64650 1.24600
O 	O 	0.98200 0.44220 0.80680 -0.37500
O 	O 	0.94980 0.62740 0.01320 -0.38500
O 	O 	0.90750 0.63490 0.80810 -0.33100
O 	O 	0.08900 0.75170 0.74270 -0.35200
O 	O 	0.32500 0.72150 0.72370 -0.34900
O 	O 	0.99390 0.84720 0.97910 -0.41400
O 	O 	0.03030 0.05250 0.18020 -0.37300
O 	O 	0.05380 0.85300 0.18590 -0.35500
O 	O 	0.11910 0.26210 0.75540 -0.33300
O 	O 	0.35380 0.24060 0.73850 -0.33400
O 	O 	0.58290 0.90290 0.49130 -0.37800
O 	O 	0.50340 0.07320 0.69470 -0.34600
O 	O 	0.45330 0.84370 0.62970 -0.36800
O 	O 	0.48180 0.34810 0.63760 -0.38000
O 	O 	0.51410 0.57780 0.69280 -0.34800
O 	O 	0.60470 0.41450 0.50040 -0.38200
O 	O 	0.77160 0.83440 0.86790 -0.33500
O 	O 	0.84080 0.72590 0.66270 -0.29800
O 	O 	0.60470 0.30810 0.80810 -0.32600
O 	O 	0.66930 0.18590 0.60170 -0.32900
O 	O 	0.80030 0.34230 0.88110 -0.34900
O 	O 	0.86610 0.22780 0.67170 -0.28900
O 	O 	0.57880 0.80840 0.79530 -0.32900
O 	O 	0.64570 0.68910 0.58670 -0.31700
C 	C 	0.71860 0.30130 0.80100 0.22100
C 	C 	0.75530 0.23290 0.68060 0.20900
C 	C 	0.69100 0.79750 0.78700 0.22000
C 	C 	0.72860 0.73290 0.66830 0.20100
As	As	0.00830 0.41310 0.11620 0.43500
As	As	0.77200 0.17560 0.23280 0.35600
As	As	0.93010 0.08050 0.89470 0.45100
As	As	0.75110 0.66650 0.24860 0.36500
As	As	0.44770 0.05700 0.37710 0.45800
As	As	0.42820 0.54900 0.36930 0.47500
Fe	Fe	0.05440 0.20200 0.17710 1.24300
Fe	Fe	0.50340 0.79420 0.34330 1.24800
Fe	Fe	0.02510 0.69180 0.16590 1.24600
Fe	Fe	0.52970 0.30010 0.35350 1.24600
O 	O 	0.01800 0.55780 0.19320 -0.37500
O 	O 	0.05020 0.37260 0.98680 -0.38500
O 	O 	0.09250 0.36510 0.19190 -0.33100
O 	O 	0.91100 0.24830 0.25730 -0.35200
O 	O 	0.67500 0.27850 0.27630 -0.34900
O 	O 	0.00610 0.15280 0.02090 -0.41400
O 	O 	0.96970 0.94750 0.81980 -0.37300
O 	O 	0.94620 0.14700 0.81410 -0.35500
O 	O 	0.88090 0.73790 0.24460 -0.33300
O 	O 	0.64620 0.75940 0.26150 -0.33400
O 	O 	0.41710 0.09710 0.50870 -0.37800
O 	O 	0.49660 0.92680 0.30530 -0.34600
O 	O 	0.54670 0.15630 0.37030 -0.36800
O 	O 	0.51820 0.65190 0.36240 -0.38000
O 	O 	0.48590 0.42220 0.30720 -0.34800
O 	O 	0.39530 0.58550 0.49960 -0.38200
O 	O 	0.22840 0.16560 0.13210 -0.33500
O 	O 	0.15920 0.27410 0.33730 -0.29800
O 	O 	0.39530 0.69190 0.19190 -0.32600
O 	O 	0.33070 0.81410 0.39830 -0.32900
O 	O 	0.19970 0.65770 0.11890 -0.34900
O 	O 	0.13390 0.77220 0.32830 -0.28900
O 	O 	0.42120 0.19160 0.20470 -0.32900
O 	O 	0.35430 0.31090 0.41330 -0.31700
C 	C 	0.28140 0.69870 0.19900 0.22100
C 	C 	0.24470 0.76710 0.31940 0.20900
C 	C 	0.30900 0.20250 0.21300 0.22000
C 	C 	0.27140 0.26710 0.33170 0.20100
