data_crystal

_cell_length_a 7.93910
_cell_length_b 9.43820
_cell_length_c 15.48150
_cell_angle_alpha 82.23300
_cell_angle_beta  82.86800
_cell_angle_gamma 75.51300

_symmetry_space_group_name_	'P 1'
_symmetry_space_group_name_H-M	'P 1'

loop_
_symmetry_equiv_pos_as_xyz
  x,y,z

loop_
_atom_site_label
_atom_site_type_symbol
_atom_site_fract_x
_atom_site_fract_y
_atom_site_fract_z
_atom_site_charge
Zn	Zn	0.08060 0.25340 0.91420 1.23000
Zn	Zn	0.41220 0.24670 0.58240 1.23700
K 	K 	0.56430 0.32050 0.93500 0.65900
O 	O 	0.04190 0.34900 0.78730 -0.35100
O 	O 	0.86390 0.39710 0.97200 -0.41000
O 	O 	0.79710 0.59980 0.04180 -0.41300
O 	O 	0.31910 0.15200 0.84790 -0.37500
O 	O 	0.14620 0.09790 0.02320 -0.35200
O 	O 	0.08790 0.88840 0.09100 -0.37700
O 	O 	0.29360 0.10300 0.53620 -0.33000
O 	O 	0.36530 0.90080 0.46690 -0.32700
O 	O 	0.54590 0.40470 0.60220 -0.33400
O 	O 	0.17750 0.35060 0.65180 -0.32800
O 	O 	0.62050 0.60910 0.53520 -0.32500
O 	O 	0.45080 0.14360 0.71190 -0.33900
C 	C 	0.90200 0.49820 0.00340 0.24000
C 	C 	0.16980 0.30650 0.73120 0.21800
C 	C 	0.06730 0.99570 0.03280 0.21100
C 	C 	0.32870 0.19090 0.76620 0.21800
C 	C 	0.40270 0.00020 0.50190 0.21800
C 	C 	0.54840 0.50430 0.53940 0.22700
O 	O 	0.50630 0.62030 0.87810 -0.19700
Zn	Zn	0.91940 0.74660 0.08580 1.23000
Zn	Zn	0.58780 0.75330 0.41760 1.23700
K 	K 	0.43570 0.67950 0.06500 0.65900
O 	O 	0.95810 0.65100 0.21270 -0.35100
O 	O 	0.13610 0.60290 0.02800 -0.41000
O 	O 	0.20290 0.40020 0.95820 -0.41300
O 	O 	0.68090 0.84800 0.15210 -0.37500
O 	O 	0.85380 0.90210 0.97680 -0.35200
O 	O 	0.91210 0.11160 0.90900 -0.37700
O 	O 	0.70640 0.89700 0.46380 -0.33000
O 	O 	0.63470 0.09920 0.53310 -0.32700
O 	O 	0.45410 0.59530 0.39780 -0.33400
O 	O 	0.82250 0.64940 0.34820 -0.32800
O 	O 	0.37950 0.39090 0.46480 -0.32500
O 	O 	0.54920 0.85640 0.28810 -0.33900
C 	C 	0.09800 0.50180 0.99660 0.24000
C 	C 	0.83020 0.69350 0.26880 0.21800
C 	C 	0.93270 0.00430 0.96720 0.21100
C 	C 	0.67130 0.80910 0.23380 0.21800
C 	C 	0.59730 0.99980 0.49810 0.21800
C 	C 	0.45160 0.49570 0.46060 0.22700
O 	O 	0.49370 0.37970 0.12190 -0.19700
