data_crystal

_cell_length_a 13.08100
_cell_length_b 16.37900
_cell_length_c 15.40700
_cell_angle_alpha 90.00000
_cell_angle_beta  102.36800
_cell_angle_gamma 90.00000

_symmetry_space_group_name_	'P 1'
_symmetry_space_group_name_H-M	'P 1'

loop_
_symmetry_equiv_pos_as_xyz
  x,y,z

loop_
_atom_site_label
_atom_site_type_symbol
_atom_site_fract_x
_atom_site_fract_y
_atom_site_fract_z
_atom_site_charge
Ni	Ni	0.48884 0.30586 0.57391 1.00500
V 	V 	0.34094 0.33234 0.35453 1.71200
V 	V 	0.27631 0.65855 0.25152 1.73500
V 	V 	0.21851 0.50397 0.37800 1.71900
O 	O 	0.11347 0.49888 0.42107 -0.72600
O 	O 	0.20195 0.58293 0.29693 -0.91400
O 	O 	0.62118 0.31387 0.67173 -0.83600
O 	O 	0.23726 0.40738 0.33093 -0.91600
O 	O 	0.30330 0.24596 0.28597 -0.90600
O 	O 	0.36682 0.30945 0.46192 -0.82900
N 	N 	0.01124 0.36893 0.51236 -0.25800
N 	N 	0.38089 0.02037 0.88675 -0.26100
N 	N 	0.01578 0.67877 0.92433 -0.29500
N 	N 	0.38962 0.30581 0.66265 -0.28700
C 	C 	0.39260 0.07092 0.82090 0.12700
H 	H 	0.45940 0.08960 0.81980 -0.02600
C 	C 	0.01790 0.19754 0.51764 0.14100
C 	C 	0.24710 0.30951 0.77491 0.22300
C 	C 	0.42160 0.31970 0.74970 0.14800
H 	H 	0.49250 0.32860 0.77280 -0.10300
C 	C 	0.94550 0.63502 0.86790 0.14900
H 	H 	0.88730 0.66170 0.83460 -0.06000
C 	C 	0.21630 0.29613 0.68490 -0.26400
H 	H 	0.14580 0.28830 0.65950 0.11300
C 	C 	0.07650 0.24181 0.46991 -0.20300
H 	H 	0.11980 0.21490 0.43860 0.04100
C 	C 	0.95490 0.55175 0.85650 -0.23200
H 	H 	0.90350 0.52380 0.81640 0.07400
C 	C 	0.95370 0.32597 0.55850 0.12200
H 	H 	0.91160 0.35430 0.58980 -0.06900
C 	C 	0.28500 0.99280 0.88435 0.14300
H 	H 	0.27550 0.95630 0.92820 -0.10100
C 	C 	0.20950 0.06882 0.75405 0.18900
C 	C 	0.31040 0.09623 0.75519 -0.24400
H 	H 	0.32220 0.13180 0.71130 0.11800
C 	C 	0.02680 0.10586 0.52260 -0.33400
H 	H 	0.03030 0.08460 0.46450 0.08200
H 	H 	0.96480 0.08350 0.53870 0.11100
C 	C 	0.19880 0.01517 0.82060 -0.29300
H 	H 	0.13330 0.99410 0.82240 0.04900
C 	C 	0.35290 0.32130 0.80660 -0.27100
H 	H 	0.37840 0.33040 0.86700 0.11500
C 	C 	0.07130 0.32570 0.46843 0.09500
H 	H 	0.11140 0.35390 0.43530 -0.05100
C 	C 	0.11510 0.09480 0.68650 -0.29500
H 	H 	0.05430 0.06610 0.69770 0.04300
H 	H 	0.10380 0.15270 0.69340 0.08300
C 	C 	0.12460 0.07824 0.59110 0.09400
H 	H 	0.13530 0.02020 0.58390 -0.02700
H 	H 	0.18540 0.10670 0.57980 -0.01000
C 	C 	0.09750 0.63795 0.97196 0.16700
H 	H 	0.14710 0.66680 0.01280 -0.10200
C 	C 	0.03960 0.51019 0.90390 0.21100
C 	C 	0.11150 0.55524 0.96330 -0.27600
H 	H 	0.16980 0.52970 0.99760 0.09800
C 	C 	0.95370 0.24141 0.56190 -0.20300
H 	H 	0.91100 0.21420 0.59360 0.05300
C 	C 	0.16950 0.31666 0.83320 -0.32900
H 	H 	0.20090 0.29820 0.89280 0.08900
H 	H 	0.10900 0.28270 0.81020 0.06900
C 	C 	0.28800 0.29429 0.63262 0.13600
H 	H 	0.26430 0.28430 0.57220 -0.03700
C 	C 	0.13610 0.40553 0.83560 0.12200
H 	H 	0.19750 0.43860 0.85830 -0.00900
H 	H 	0.10660 0.42340 0.77550 -0.01300
C 	C 	0.05620 0.42021 0.89260 -0.38500
H 	H 	0.99030 0.39490 0.86480 0.12200
H 	H 	0.08040 0.39520 0.95040 0.11900
Ni	Ni	0.01116 0.80586 0.92609 1.00200
V 	V 	0.15906 0.83234 0.14547 1.71000
V 	V 	0.22369 0.15855 0.24848 1.73200
V 	V 	0.28149 0.00397 0.12200 1.70100
O 	O 	0.38653 0.99888 0.07893 -0.70500
O 	O 	0.29805 0.08293 0.20307 -0.92600
O 	O 	0.87882 0.81387 0.82827 -0.82000
O 	O 	0.26274 0.90738 0.16907 -0.90800
O 	O 	0.19670 0.74596 0.21403 -0.90500
O 	O 	0.13318 0.80945 0.03808 -0.83700
N 	N 	0.48876 0.86893 0.98764 -0.22800
N 	N 	0.11911 0.52037 0.61325 -0.25500
N 	N 	0.48422 0.17877 0.57567 -0.26500
N 	N 	0.11038 0.80581 0.83735 -0.28500
C 	C 	0.10740 0.57092 0.67910 0.11100
H 	H 	0.04060 0.58960 0.68020 -0.03100
C 	C 	0.48210 0.69754 0.98236 0.16800
C 	C 	0.25290 0.80951 0.72509 0.19500
C 	C 	0.07840 0.81970 0.75030 0.13600
H 	H 	0.00750 0.82860 0.72720 -0.10900
C 	C 	0.55450 0.13502 0.63210 0.09400
H 	H 	0.61270 0.16170 0.66540 -0.04800
C 	C 	0.28370 0.79613 0.81510 -0.24400
H 	H 	0.35420 0.78830 0.84050 0.11200
C 	C 	0.42350 0.74181 0.03009 -0.22300
H 	H 	0.38020 0.71490 0.06140 0.04600
C 	C 	0.54510 0.05175 0.64350 -0.21100
H 	H 	0.59650 0.02380 0.68360 0.05600
C 	C 	0.54630 0.82597 0.94150 0.10600
H 	H 	0.58840 0.85430 0.91020 -0.06300
C 	C 	0.21500 0.49280 0.61565 0.09200
H 	H 	0.22450 0.45630 0.57180 -0.09000
C 	C 	0.29050 0.56882 0.74595 0.15100
C 	C 	0.18960 0.59623 0.74481 -0.21700
H 	H 	0.17780 0.63180 0.78870 0.10700
C 	C 	0.47320 0.60586 0.97740 -0.22600
H 	H 	0.46970 0.58460 0.03550 0.04600
H 	H 	0.53520 0.58350 0.96130 0.07300
C 	C 	0.30120 0.51517 0.67940 -0.22900
H 	H 	0.36670 0.49410 0.67760 0.02200
C 	C 	0.14710 0.82130 0.69340 -0.25200
H 	H 	0.12160 0.83040 0.63300 0.10000
C 	C 	0.42870 0.82570 0.03157 0.09000
H 	H 	0.38860 0.85390 0.06470 -0.04800
C 	C 	0.38490 0.59480 0.81350 -0.24400
H 	H 	0.44570 0.56610 0.80230 0.03900
H 	H 	0.39620 0.65270 0.80660 0.07200
C 	C 	0.37540 0.57824 0.90890 0.02600
H 	H 	0.36470 0.52020 0.91610 0.00600
H 	H 	0.31460 0.60670 0.92020 0.01400
C 	C 	0.40250 0.13795 0.52804 0.09500
H 	H 	0.35290 0.16680 0.48720 -0.06300
C 	C 	0.46040 0.01019 0.59610 0.15000
C 	C 	0.38850 0.05524 0.53670 -0.21300
H 	H 	0.33020 0.02970 0.50240 0.06100
C 	C 	0.54630 0.74141 0.93810 -0.22300
H 	H 	0.58900 0.71420 0.90640 0.06000
C 	C 	0.33050 0.81666 0.66680 -0.26700
H 	H 	0.29910 0.79820 0.60720 0.06700
H 	H 	0.39100 0.78270 0.68980 0.05600
C 	C 	0.21200 0.79429 0.86738 0.12600
H 	H 	0.23570 0.78430 0.92780 -0.02700
C 	C 	0.36390 0.90553 0.66440 0.02800
H 	H 	0.30250 0.93860 0.64170 0.02300
H 	H 	0.39340 0.92340 0.72450 0.02400
C 	C 	0.44380 0.92021 0.60740 -0.24000
H 	H 	0.50970 0.89490 0.63520 0.06200
H 	H 	0.41960 0.89520 0.54960 0.07600
Ni	Ni	0.51116 0.69414 0.42609 1.00400
V 	V 	0.65906 0.66766 0.64547 1.71200
V 	V 	0.72369 0.34145 0.74848 1.73500
V 	V 	0.78149 0.49603 0.62200 1.71900
O 	O 	0.88653 0.50112 0.57893 -0.71100
O 	O 	0.79805 0.41707 0.70307 -0.90900
O 	O 	0.37882 0.68613 0.32827 -0.83700
O 	O 	0.76274 0.59262 0.66907 -0.91200
O 	O 	0.69670 0.75404 0.71403 -0.90000
O 	O 	0.63318 0.69055 0.53808 -0.82700
N 	N 	0.98876 0.63107 0.48764 -0.22400
N 	N 	0.61911 0.97963 0.11325 -0.20500
N 	N 	0.98422 0.32123 0.07567 -0.24400
N 	N 	0.61038 0.69419 0.33735 -0.28400
C 	C 	0.60740 0.92908 0.17910 0.07400
H 	H 	0.54060 0.91040 0.18020 -0.00700
C 	C 	0.98210 0.80246 0.48236 0.17000
C 	C 	0.75290 0.69049 0.22509 0.19300
C 	C 	0.57840 0.68030 0.25030 0.13600
H 	H 	0.50750 0.67140 0.22720 -0.10000
C 	C 	0.05450 0.36498 0.13210 0.07000
H 	H 	0.11270 0.33830 0.16540 -0.04600
C 	C 	0.78370 0.70387 0.31510 -0.24600
H 	H 	0.85420 0.71170 0.34050 0.11500
C 	C 	0.92350 0.75819 0.53009 -0.20100
H 	H 	0.88020 0.78510 0.56140 0.04600
C 	C 	0.04510 0.44825 0.14350 -0.23200
H 	H 	0.09650 0.47620 0.18360 0.06200
C 	C 	0.04630 0.67403 0.44150 0.07800
H 	H 	0.08840 0.64570 0.41020 -0.06200
C 	C 	0.71500 0.00720 0.11565 -0.05400
H 	H 	0.72450 0.04370 0.07180 -0.05300
C 	C 	0.79050 0.93118 0.24595 0.06600
C 	C 	0.68960 0.90377 0.24481 -0.15100
H 	H 	0.67780 0.86820 0.28870 0.08700
C 	C 	0.97320 0.89414 0.47740 -0.21100
H 	H 	0.96970 0.91540 0.53550 0.06900
H 	H 	0.03520 0.91650 0.46130 0.04900
C 	C 	0.80120 0.98483 0.17940 -0.04900
H 	H 	0.86670 0.00590 0.17760 -0.05800
C 	C 	0.64710 0.67870 0.19340 -0.25000
H 	H 	0.62160 0.66960 0.13300 0.09900
C 	C 	0.92870 0.67430 0.53157 0.10800
H 	H 	0.88860 0.64610 0.56470 -0.04900
C 	C 	0.88490 0.90520 0.31350 -0.18300
H 	H 	0.94570 0.93390 0.30230 0.03300
H 	H 	0.89620 0.84730 0.30660 0.05900
C 	C 	0.87540 0.92176 0.40890 -0.00300
H 	H 	0.86470 0.97980 0.41610 0.02100
H 	H 	0.81460 0.89330 0.42020 0.02200
C 	C 	0.90250 0.36205 0.02804 0.02700
H 	H 	0.85290 0.33320 0.98720 -0.01600
C 	C 	0.96040 0.48981 0.09610 0.16600
C 	C 	0.88850 0.44476 0.03670 -0.18200
H 	H 	0.83020 0.47030 0.00240 0.04800
C 	C 	0.04630 0.75859 0.43810 -0.24500
H 	H 	0.08900 0.78580 0.40640 0.06000
C 	C 	0.83050 0.68334 0.16680 -0.25900
H 	H 	0.79910 0.70180 0.10720 0.06400
H 	H 	0.89100 0.71730 0.18980 0.06000
C 	C 	0.71200 0.70571 0.36738 0.12800
H 	H 	0.73570 0.71570 0.42780 -0.03400
C 	C 	0.86390 0.59447 0.16440 0.01200
H 	H 	0.80250 0.56140 0.14170 0.02100
H 	H 	0.89340 0.57660 0.22450 0.03000
C 	C 	0.94380 0.57979 0.10740 -0.20400
H 	H 	0.00970 0.60510 0.13520 0.03000
H 	H 	0.91960 0.60480 0.04960 0.06100
Ni	Ni	0.98884 0.19414 0.07391 1.00100
V 	V 	0.84094 0.16766 0.85453 1.71400
V 	V 	0.77631 0.84145 0.75152 1.73700
V 	V 	0.71851 0.99603 0.87800 1.72600
O 	O 	0.61347 0.00112 0.92107 -0.71200
O 	O 	0.70195 0.91707 0.79693 -0.90400
O 	O 	0.12118 0.18613 0.17173 -0.85500
O 	O 	0.73726 0.09262 0.83093 -0.91300
O 	O 	0.80330 0.25404 0.78597 -0.90000
O 	O 	0.86682 0.19055 0.96192 -0.80900
N 	N 	0.51124 0.13107 0.01236 -0.26600
N 	N 	0.88089 0.47963 0.38675 -0.24800
N 	N 	0.51578 0.82123 0.42433 -0.27700
N 	N 	0.88962 0.19419 0.16265 -0.28800
C 	C 	0.89260 0.42908 0.32090 0.11600
H 	H 	0.95940 0.41040 0.31980 -0.01300
C 	C 	0.51790 0.30246 0.01764 0.13900
C 	C 	0.74710 0.19049 0.27491 0.22300
C 	C 	0.92160 0.18030 0.24970 0.14900
H 	H 	0.99250 0.17140 0.27280 -0.09500
C 	C 	0.44550 0.86498 0.36790 0.13100
H 	H 	0.38730 0.83830 0.33460 -0.06000
C 	C 	0.71630 0.20387 0.18490 -0.26900
H 	H 	0.64580 0.21170 0.15950 0.11600
C 	C 	0.57650 0.25819 0.96991 -0.17600
H 	H 	0.61980 0.28510 0.93860 0.04200
C 	C 	0.45490 0.94825 0.35650 -0.27100
H 	H 	0.40350 0.97620 0.31640 0.08900
C 	C 	0.45370 0.17403 0.05850 0.09200
H 	H 	0.41160 0.14570 0.08980 -0.07200
C 	C 	0.78500 0.50720 0.38435 0.09800
H 	H 	0.77550 0.54370 0.42820 -0.09100
C 	C 	0.70950 0.43118 0.25405 0.16800
C 	C 	0.81040 0.40377 0.25519 -0.22600
H 	H 	0.82220 0.36820 0.21130 0.11400
C 	C 	0.52680 0.39414 0.02260 -0.34700
H 	H 	0.53030 0.41540 0.96450 0.11700
H 	H 	0.46480 0.41650 0.03870 0.09500
C 	C 	0.69880 0.48483 0.32060 -0.24000
H 	H 	0.63330 0.50590 0.32240 0.02500
C 	C 	0.85290 0.17870 0.30660 -0.27200
H 	H 	0.87840 0.16960 0.36700 0.11300
C 	C 	0.57130 0.17430 0.96843 0.13400
H 	H 	0.61140 0.14610 0.93530 -0.05500
C 	C 	0.61510 0.40520 0.18650 -0.28800
H 	H 	0.55430 0.43390 0.19770 0.05000
H 	H 	0.60380 0.34730 0.19340 0.08500
C 	C 	0.62460 0.42176 0.09110 0.10100
H 	H 	0.63530 0.47980 0.08390 -0.02600
H 	H 	0.68540 0.39330 0.07980 -0.01600
C 	C 	0.59750 0.86205 0.47196 0.13200
H 	H 	0.64710 0.83320 0.51280 -0.07300
C 	C 	0.53960 0.98981 0.40390 0.25300
C 	C 	0.61150 0.94476 0.46330 -0.27100
H 	H 	0.66980 0.97030 0.49760 0.09500
C 	C 	0.45370 0.25859 0.06190 -0.22800
H 	H 	0.41100 0.28580 0.09360 0.05300
C 	C 	0.66950 0.18334 0.33320 -0.32800
H 	H 	0.70090 0.20180 0.39280 0.08400
H 	H 	0.60900 0.21730 0.31020 0.07300
C 	C 	0.78800 0.20571 0.13262 0.14000
H 	H 	0.76430 0.21570 0.07220 -0.05100
C 	C 	0.63610 0.09447 0.33560 0.11900
H 	H 	0.69750 0.06140 0.35830 -0.01800
H 	H 	0.60660 0.07660 0.27550 -0.01400
C 	C 	0.55620 0.07979 0.39260 -0.36900
H 	H 	0.49030 0.10510 0.36480 0.09300
H 	H 	0.58040 0.10480 0.45040 0.10800
Ni	Ni	-0.00000 0.50000 0.50000 1.08000
Ni	Ni	0.50000 0.00000 -0.00000 1.06500
