data_crystal

_cell_length_a 19.91300
_cell_length_b 20.88400
_cell_length_c 21.48600
_cell_angle_alpha 116.07600
_cell_angle_beta  98.55000
_cell_angle_gamma 101.66100

_symmetry_space_group_name_	'P 1'
_symmetry_space_group_name_H-M	'P 1'

loop_
_symmetry_equiv_pos_as_xyz
  x,y,z

loop_
_atom_site_label
_atom_site_type_symbol
_atom_site_fract_x
_atom_site_fract_y
_atom_site_fract_z
_atom_site_charge
C 	C 	0.34150 0.61110 0.06700 0.14000
C 	C 	0.38590 0.65770 0.12830 -0.16400
H 	H 	0.37080 0.69010 0.16550 0.08800
C 	C 	0.36670 0.57030 0.00760 -0.18500
H 	H 	0.33500 0.54010 0.96210 0.10700
C 	C 	0.64750 0.57580 0.97440 0.37400
C 	C 	0.60740 0.47460 0.19710 0.04000
H 	H 	0.59860 0.45080 0.14730 0.02800
C 	C 	0.46440 0.65960 0.13980 0.06400
H 	H 	0.49610 0.68760 0.18540 0.01800
C 	C 	0.62970 0.44170 0.74870 0.09100
C 	C 	0.64070 0.53060 0.89640 -0.14700
C 	C 	0.62020 0.55560 0.23840 -0.10600
C 	C 	0.67120 0.86080 0.22250 -0.13800
C 	C 	0.62390 0.40030 0.66990 -0.05200
C 	C 	0.56870 0.45790 0.77230 -0.15000
H 	H 	0.52460 0.44040 0.73940 0.09100
C 	C 	0.57670 0.49950 0.84420 0.08100
H 	H 	0.53620 0.50760 0.85910 0.01800
C 	C 	0.67910 0.78710 0.17370 0.38000
C 	C 	0.65780 0.00200 0.30610 0.08200
C 	C 	0.26690 0.60670 0.05640 -0.09400
H 	H 	0.23750 0.57060 0.01110 0.07000
C 	C 	0.23630 0.64420 0.09920 -0.08600
H 	H 	0.26250 0.67510 0.14700 0.05800
C 	C 	0.04260 0.59640 0.01830 0.12000
H 	H 	0.00770 0.56080 0.97630 -0.01000
C 	C 	0.61610 0.59960 0.19940 0.33000
C 	C 	0.69500 0.47290 0.80260 -0.14600
H 	H 	0.73580 0.46440 0.78860 0.08700
C 	C 	0.16080 0.64310 0.07930 0.16000
C 	C 	0.43590 0.57510 0.01660 0.10700
H 	H 	0.45030 0.54690 0.97660 -0.00300
C 	C 	0.60860 0.43530 0.23250 -0.13300
H 	H 	0.59910 0.38390 0.20500 0.07700
C 	C 	0.10770 0.58720 0.03250 -0.22400
H 	H 	0.11370 0.54030 0.00820 0.12000
C 	C 	0.62290 0.46500 0.30720 0.08300
C 	C 	0.15700 0.70160 0.13760 -0.16300
H 	H 	0.19510 0.73370 0.17800 0.08700
C 	C 	0.70100 0.51440 0.87300 0.07000
H 	H 	0.74490 0.53250 0.90650 0.02400
C 	C 	0.07650 0.70920 0.12850 0.06100
H 	H 	0.06470 0.74670 0.16460 0.02200
C 	C 	0.62300 0.33450 0.41450 0.13400
C 	C 	0.63600 0.22310 0.41790 0.12500
C 	C 	0.66850 0.35460 0.64690 0.01700
H 	H 	0.69920 0.34940 0.68030 0.02200
C 	C 	0.63000 0.54350 0.34740 -0.12700
H 	H 	0.63410 0.56480 0.39650 0.07400
C 	C 	0.57860 0.40810 0.61920 0.01900
H 	H 	0.55110 0.44010 0.63420 0.02500
C 	C 	0.73070 0.99580 0.30630 -0.12600
H 	H 	0.77140 0.03670 0.33200 0.07800
C 	C 	0.63110 0.58750 0.31500 0.03500
H 	H 	0.63890 0.63860 0.34300 0.03100
C 	C 	0.65010 0.07910 0.34590 -0.04800
C 	C 	0.60860 0.86970 0.22870 0.07300
H 	H 	0.56860 0.82780 0.20530 0.02100
C 	C 	0.73290 0.92220 0.26400 0.05100
H 	H 	0.77700 0.91400 0.26360 0.03200
C 	C 	0.59960 0.94100 0.26970 -0.14500
H 	H 	0.55440 0.94560 0.27160 0.08300
C 	C 	0.62410 0.42080 0.34280 -0.07500
C 	C 	0.66020 0.45340 0.41550 0.03400
H 	H 	0.68370 0.50450 0.44050 0.01700
C 	C 	0.66630 0.31820 0.57590 -0.13700
H 	H 	0.69560 0.28800 0.56080 0.08100
C 	C 	0.66250 0.41430 0.45020 -0.15200
H 	H 	0.68960 0.43790 0.49780 0.08800
C 	C 	0.57450 0.36860 0.54680 -0.14600
H 	H 	0.54130 0.37090 0.51310 0.08600
C 	C 	0.61900 0.32620 0.52460 0.12900
C 	C 	0.60400 0.09500 0.38850 0.01000
H 	H 	0.57920 0.05640 0.39470 0.02800
C 	C 	0.58640 0.30200 0.34040 -0.16400
H 	H 	0.56200 0.25110 0.31360 0.09200
C 	C 	0.58780 0.34480 0.31120 0.04700
H 	H 	0.56150 0.32210 0.26340 0.01300
C 	C 	0.69030 0.13740 0.34230 0.00900
H 	H 	0.72260 0.12920 0.31470 0.03100
C 	C 	0.68460 0.21120 0.37960 -0.14500
H 	H 	0.71400 0.25050 0.37760 0.08600
C 	C 	0.59100 0.16320 0.42310 -0.13400
H 	H 	0.55610 0.16980 0.44760 0.08200
N 	N 	0.02860 0.65870 0.06640 -0.20200
N 	N 	0.48660 0.61870 0.08090 -0.21900
N 	N 	0.62040 0.29350 0.45060 -0.17000
O 	O 	0.73940 0.78080 0.17160 -0.41600
O 	O 	0.61620 0.57000 0.13650 -0.40600
O 	O 	0.59020 0.58350 0.99070 -0.41500
O 	O 	0.60750 0.66410 0.23400 -0.28600
O 	O 	0.62030 0.73490 0.13580 -0.43100
O 	O 	0.70750 0.60210 0.01850 -0.44100
Cu	Cu	0.58952 0.62921 0.09287 0.92000
Cu	Cu	0.76347 0.70376 0.09075 0.91400
C 	C 	0.90350 0.87660 0.16500 -0.18600
C 	C 	0.88970 0.01670 0.23600 0.13900
C 	C 	0.88320 0.09720 0.27830 -0.08500
C 	C 	0.85260 0.12650 0.24390 0.04400
H 	H 	0.83750 0.10010 0.19390 0.01500
C 	C 	0.90910 0.13560 0.34990 0.03400
H 	H 	0.92970 0.11360 0.37390 0.01700
C 	C 	0.95150 0.92440 0.22480 0.12000
H 	H 	0.98740 0.91080 0.24420 0.00200
C 	C 	0.84370 0.96440 0.17350 -0.20800
H 	H 	0.80630 0.97620 0.15390 0.10400
C 	C 	0.84420 0.61860 0.13570 0.36600
C 	C 	0.84960 0.89470 0.13740 0.13500
H 	H 	0.81660 0.85950 0.09390 -0.02100
C 	C 	0.94690 0.99850 0.25930 -0.18500
H 	H 	0.98370 0.03550 0.29880 0.09600
C 	C 	0.87000 0.24060 0.35390 0.14800
C 	C 	0.85140 0.48590 0.24260 0.09200
C 	C 	0.84850 0.57650 0.17510 -0.12900
C 	C 	0.88430 0.49140 0.80420 0.10500
H 	H 	0.87870 0.46660 0.83090 0.00700
C 	C 	0.90950 0.43060 0.50470 -0.15500
H 	H 	0.92890 0.45470 0.48100 0.08900
C 	C 	0.84470 0.32020 0.50410 -0.16700
H 	H 	0.82260 0.26890 0.48020 0.09100
C 	C 	0.79770 0.56540 0.20930 0.05500
H 	H 	0.76100 0.58670 0.20870 0.03300
C 	C 	0.88020 0.45090 0.73470 -0.19100
H 	H 	0.87190 0.39960 0.71540 0.09600
C 	C 	0.88610 0.43590 0.61260 -0.08200
C 	C 	0.89680 0.57000 0.84000 -0.17000
C 	C 	0.85330 0.44040 0.28160 -0.06600
C 	C 	0.90100 0.61730 0.91300 0.37000
C 	C 	0.87450 0.35390 0.46780 0.13400
C 	C 	0.84170 0.19770 0.28060 -0.16600
H 	H 	0.81560 0.21500 0.25520 0.09300
C 	C 	0.90400 0.60270 0.79480 0.09200
H 	H 	0.91240 0.65390 0.81360 0.01100
C 	C 	0.85870 0.35560 0.35080 0.14400
C 	C 	0.84750 0.36160 0.57400 0.05000
H 	H 	0.82280 0.33940 0.59640 0.00900
C 	C 	0.90570 0.40710 0.28110 0.02000
H 	H 	0.93820 0.41130 0.25510 0.02600
C 	C 	0.79920 0.52210 0.24580 -0.13600
H 	H 	0.76590 0.51830 0.27110 0.08500
C 	C 	0.80350 0.38550 0.34860 -0.17200
H 	H 	0.76580 0.37600 0.36730 0.09600
C 	C 	0.91460 0.46990 0.57710 0.04000
H 	H 	0.93820 0.52090 0.60230 0.01400
C 	C 	0.90560 0.21010 0.39010 -0.15900
H 	H 	0.92670 0.23780 0.43950 0.08900
C 	C 	0.88780 0.48170 0.69110 0.12200
C 	C 	0.89800 0.53790 0.17390 0.06500
H 	H 	0.92730 0.53660 0.14380 0.02400
C 	C 	0.90790 0.50130 0.21320 -0.14400
H 	H 	0.94900 0.48770 0.21990 0.08600
C 	C 	0.91250 0.36510 0.31990 -0.15400
H 	H 	0.95060 0.34620 0.32320 0.08800
C 	C 	0.91190 0.79860 0.12380 0.35600
C 	C 	0.80740 0.42980 0.31730 0.04600
H 	H 	0.77400 0.45570 0.32150 0.01600
C 	C 	0.89890 0.55950 0.72480 -0.17300
H 	H 	0.90290 0.58270 0.69660 0.09000
N 	N 	0.86740 0.31360 0.38850 -0.17500
O 	O 	0.80500 0.66300 0.15270 -0.37400
O 	O 	0.85300 0.74250 0.07480 -0.45600
O 	O 	0.96580 0.78340 0.12930 -0.37300
O 	O 	0.93050 0.68350 0.94870 -0.33900
O 	O 	0.88320 0.58250 0.94690 -0.37900
O 	O 	0.89040 0.61590 0.10270 -0.41200
Cu	Cu	0.92389 0.66733 0.04995 0.92200
C 	C 	0.65850 0.38890 0.93300 0.14100
C 	C 	0.61410 0.34230 0.87170 -0.16300
H 	H 	0.62920 0.30990 0.83450 0.08900
C 	C 	0.63330 0.42970 0.99240 -0.18400
H 	H 	0.66500 0.45990 0.03790 0.10700
C 	C 	0.35250 0.42420 0.02560 0.37400
C 	C 	0.39260 0.52540 0.80290 0.04000
H 	H 	0.40140 0.54920 0.85270 0.02800
C 	C 	0.53560 0.34040 0.86020 0.06400
H 	H 	0.50390 0.31240 0.81460 0.01800
C 	C 	0.37030 0.55830 0.25130 0.09100
C 	C 	0.35930 0.46940 0.10360 -0.14700
C 	C 	0.37980 0.44440 0.76160 -0.10600
C 	C 	0.32880 0.13920 0.77750 -0.13800
C 	C 	0.37610 0.59970 0.33010 -0.05200
C 	C 	0.43130 0.54210 0.22770 -0.15000
H 	H 	0.47540 0.55960 0.26060 0.09100
C 	C 	0.42330 0.50050 0.15580 0.08100
H 	H 	0.46380 0.49240 0.14090 0.01800
C 	C 	0.32090 0.21290 0.82630 0.38000
C 	C 	0.34220 0.99800 0.69390 0.08200
C 	C 	0.73310 0.39330 0.94360 -0.09400
H 	H 	0.76250 0.42940 0.98890 0.07000
C 	C 	0.76370 0.35580 0.90080 -0.08600
H 	H 	0.73750 0.32490 0.85300 0.05800
C 	C 	0.95740 0.40360 0.98170 0.12000
H 	H 	0.99230 0.43920 0.02370 -0.01000
C 	C 	0.38390 0.40040 0.80060 0.33000
C 	C 	0.30500 0.52710 0.19740 -0.14600
H 	H 	0.26420 0.53560 0.21140 0.08700
C 	C 	0.83920 0.35690 0.92070 0.16000
C 	C 	0.56410 0.42490 0.98340 0.10700
H 	H 	0.54970 0.45310 0.02340 -0.00300
C 	C 	0.39140 0.56470 0.76750 -0.13300
H 	H 	0.40090 0.61610 0.79500 0.07700
C 	C 	0.89230 0.41280 0.96750 -0.22400
H 	H 	0.88630 0.45970 0.99180 0.12000
C 	C 	0.37710 0.53500 0.69280 0.08300
C 	C 	0.84300 0.29840 0.86240 -0.16300
H 	H 	0.80490 0.26630 0.82200 0.08700
C 	C 	0.29900 0.48560 0.12700 0.07000
H 	H 	0.25510 0.46750 0.09350 0.02400
C 	C 	0.92350 0.29080 0.87150 0.06100
H 	H 	0.93530 0.25330 0.83540 0.02200
C 	C 	0.37700 0.66550 0.58550 0.13400
C 	C 	0.36400 0.77690 0.58210 0.12500
C 	C 	0.33150 0.64540 0.35310 0.01700
H 	H 	0.30080 0.65060 0.31970 0.02200
C 	C 	0.37000 0.45650 0.65260 -0.12700
H 	H 	0.36590 0.43520 0.60350 0.07400
C 	C 	0.42140 0.59190 0.38080 0.01900
H 	H 	0.44890 0.55990 0.36580 0.02500
C 	C 	0.26930 0.00420 0.69370 -0.12600
H 	H 	0.22860 0.96330 0.66800 0.07800
C 	C 	0.36890 0.41250 0.68500 0.03500
H 	H 	0.36110 0.36140 0.65700 0.03100
C 	C 	0.34990 0.92090 0.65410 -0.04800
C 	C 	0.39140 0.13030 0.77130 0.07300
H 	H 	0.43140 0.17220 0.79470 0.02100
C 	C 	0.26710 0.07780 0.73600 0.05100
H 	H 	0.22300 0.08600 0.73640 0.03200
C 	C 	0.40040 0.05900 0.73030 -0.14500
H 	H 	0.44560 0.05440 0.72840 0.08300
C 	C 	0.37590 0.57920 0.65720 -0.07500
C 	C 	0.33980 0.54660 0.58450 0.03400
H 	H 	0.31630 0.49550 0.55950 0.01700
C 	C 	0.33370 0.68180 0.42410 -0.13700
H 	H 	0.30440 0.71200 0.43920 0.08100
C 	C 	0.33750 0.58570 0.54980 -0.15200
H 	H 	0.31040 0.56210 0.50220 0.08800
C 	C 	0.42550 0.63140 0.45320 -0.14600
H 	H 	0.45870 0.62910 0.48690 0.08600
C 	C 	0.38100 0.67380 0.47540 0.12900
C 	C 	0.39600 0.90500 0.61150 0.01000
H 	H 	0.42080 0.94360 0.60530 0.02800
C 	C 	0.41360 0.69800 0.65960 -0.16400
H 	H 	0.43800 0.74890 0.68640 0.09200
C 	C 	0.41220 0.65520 0.68880 0.04700
H 	H 	0.43850 0.67790 0.73660 0.01300
C 	C 	0.30970 0.86260 0.65770 0.00900
H 	H 	0.27740 0.87080 0.68530 0.03100
C 	C 	0.31540 0.78880 0.62040 -0.14500
H 	H 	0.28600 0.74950 0.62240 0.08600
C 	C 	0.40900 0.83680 0.57690 -0.13400
H 	H 	0.44390 0.83020 0.55240 0.08200
N 	N 	0.97140 0.34130 0.93360 -0.20200
N 	N 	0.51340 0.38130 0.91910 -0.21900
N 	N 	0.37960 0.70650 0.54940 -0.17000
O 	O 	0.26060 0.21920 0.82840 -0.41600
O 	O 	0.38380 0.43000 0.86350 -0.40600
O 	O 	0.40980 0.41650 0.00930 -0.41500
O 	O 	0.39250 0.33590 0.76600 -0.28600
O 	O 	0.37970 0.26510 0.86420 -0.43100
O 	O 	0.29250 0.39790 0.98150 -0.44100
Cu	Cu	0.41048 0.37079 0.90713 0.92000
Cu	Cu	0.23653 0.29624 0.90925 0.91400
C 	C 	0.09650 0.12340 0.83500 -0.18600
C 	C 	0.11030 0.98330 0.76400 0.13900
C 	C 	0.11680 0.90280 0.72170 -0.08500
C 	C 	0.14740 0.87350 0.75610 0.04400
H 	H 	0.16250 0.89990 0.80610 0.01500
C 	C 	0.09090 0.86440 0.65010 0.03400
H 	H 	0.07030 0.88640 0.62610 0.01700
C 	C 	0.04850 0.07560 0.77520 0.12000
H 	H 	0.01260 0.08920 0.75580 0.00200
C 	C 	0.15630 0.03560 0.82650 -0.20800
H 	H 	0.19370 0.02380 0.84610 0.10400
C 	C 	0.15580 0.38140 0.86430 0.36600
C 	C 	0.15040 0.10530 0.86260 0.13500
H 	H 	0.18340 0.14050 0.90610 -0.02100
C 	C 	0.05310 0.00150 0.74070 -0.18500
H 	H 	0.01630 0.96450 0.70120 0.09600
C 	C 	0.13000 0.75940 0.64610 0.14800
C 	C 	0.14860 0.51410 0.75740 0.09200
C 	C 	0.15150 0.42350 0.82490 -0.12900
C 	C 	0.11570 0.50860 0.19580 0.10500
H 	H 	0.12130 0.53340 0.16910 0.00700
C 	C 	0.09050 0.56940 0.49530 -0.15500
H 	H 	0.07110 0.54530 0.51900 0.08900
C 	C 	0.15530 0.67980 0.49590 -0.16700
H 	H 	0.17740 0.73110 0.51980 0.09100
C 	C 	0.20230 0.43460 0.79070 0.05500
H 	H 	0.23900 0.41330 0.79130 0.03300
C 	C 	0.11980 0.54910 0.26530 -0.19100
H 	H 	0.12810 0.60040 0.28460 0.09600
C 	C 	0.11390 0.56410 0.38740 -0.08200
C 	C 	0.10320 0.43000 0.16000 -0.17000
C 	C 	0.14670 0.55960 0.71840 -0.06600
C 	C 	0.09900 0.38270 0.08700 0.37000
C 	C 	0.12550 0.64610 0.53220 0.13400
C 	C 	0.15830 0.80230 0.71940 -0.16600
H 	H 	0.18440 0.78500 0.74480 0.09300
C 	C 	0.09600 0.39730 0.20520 0.09200
H 	H 	0.08760 0.34610 0.18640 0.01100
C 	C 	0.14130 0.64440 0.64920 0.14400
C 	C 	0.15250 0.63840 0.42600 0.05000
H 	H 	0.17720 0.66060 0.40360 0.00900
C 	C 	0.09430 0.59290 0.71890 0.02000
H 	H 	0.06180 0.58870 0.74490 0.02600
C 	C 	0.20080 0.47790 0.75420 -0.13600
H 	H 	0.23410 0.48170 0.72890 0.08500
C 	C 	0.19650 0.61450 0.65140 -0.17200
H 	H 	0.23420 0.62400 0.63270 0.09600
C 	C 	0.08540 0.53010 0.42290 0.04000
H 	H 	0.06180 0.47910 0.39770 0.01400
C 	C 	0.09440 0.78990 0.60990 -0.15900
H 	H 	0.07330 0.76220 0.56050 0.08900
C 	C 	0.11220 0.51830 0.30890 0.12200
C 	C 	0.10200 0.46210 0.82610 0.06500
H 	H 	0.07270 0.46340 0.85620 0.02400
C 	C 	0.09210 0.49870 0.78680 -0.14400
H 	H 	0.05100 0.51230 0.78010 0.08600
C 	C 	0.08750 0.63490 0.68010 -0.15400
H 	H 	0.04940 0.65380 0.67680 0.08800
C 	C 	0.08810 0.20140 0.87620 0.35600
C 	C 	0.19260 0.57020 0.68270 0.04600
H 	H 	0.22600 0.54430 0.67850 0.01600
C 	C 	0.10110 0.44050 0.27520 -0.17300
H 	H 	0.09710 0.41730 0.30340 0.09000
N 	N 	0.13260 0.68640 0.61150 -0.17500
O 	O 	0.19500 0.33700 0.84730 -0.37400
O 	O 	0.14700 0.25750 0.92520 -0.45600
O 	O 	0.03420 0.21660 0.87070 -0.37300
O 	O 	0.06950 0.31650 0.05130 -0.33900
O 	O 	0.11680 0.41750 0.05310 -0.37900
O 	O 	0.10960 0.38410 0.89730 -0.41200
Cu	Cu	0.07611 0.33267 0.95005 0.92200
