data_crystal

_cell_length_a 19.79200
_cell_length_b 20.60400
_cell_length_c 21.47100
_cell_angle_alpha 115.79900
_cell_angle_beta  98.32200
_cell_angle_gamma 100.88200

_symmetry_space_group_name_	'P 1'
_symmetry_space_group_name_H-M	'P 1'

loop_
_symmetry_equiv_pos_as_xyz
  x,y,z

loop_
_atom_site_label
_atom_site_type_symbol
_atom_site_fract_x
_atom_site_fract_y
_atom_site_fract_z
_atom_site_charge
C 	C 	0.11060 0.33990 0.36510 -0.12500
H 	H 	0.12590 0.31130 0.32560 0.07300
C 	C 	0.13270 0.43000 0.49320 -0.15700
H 	H 	0.16500 0.46050 0.53770 0.09400
C 	C 	0.23100 0.39450 0.44550 -0.02500
H 	H 	0.25950 0.43150 0.49020 0.04600
C 	C 	0.15660 0.38920 0.43500 0.08800
C 	C 	0.26300 0.35770 0.40460 -0.16100
H 	H 	0.23470 0.32430 0.35860 0.08200
C 	C 	0.85300 0.42620 0.52910 0.36700
C 	C 	0.38710 0.40990 0.47000 -0.27400
H 	H 	0.37500 0.45170 0.50080 0.13700
C 	C 	0.34060 0.35680 0.41550 0.25200
C 	C 	0.46060 0.40460 0.48420 0.14600
H 	H 	0.49480 0.44270 0.52460 -0.02200
C 	C 	0.35490 0.30380 0.36640 -0.27200
H 	H 	0.32020 0.26930 0.32460 0.12300
C 	C 	0.03530 0.34000 0.36330 0.05500
H 	H 	0.00090 0.30980 0.32010 0.01200
C 	C 	0.82360 0.21370 0.32970 0.44100
C 	C 	0.42600 0.29830 0.37680 0.12300
H 	H 	0.43820 0.26120 0.34000 -0.00700
C 	C 	0.92600 0.50100 0.65660 0.06900
H 	H 	0.96620 0.49110 0.64120 0.02000
C 	C 	0.87260 0.56040 0.75390 0.10000
C 	C 	0.83060 0.14190 0.28110 -0.22300
C 	C 	0.88180 0.44520 0.26430 -0.11800
C 	C 	0.88640 0.40000 0.30120 0.33400
C 	C 	0.87740 0.60180 0.82980 -0.06900
C 	C 	0.87830 0.53250 0.19290 0.09500
C 	C 	0.87080 0.41100 0.18870 0.03800
H 	H 	0.86230 0.35930 0.16180 0.03000
C 	C 	0.89120 0.52370 0.30370 0.05300
H 	H 	0.89860 0.54720 0.35320 0.02400
C 	C 	0.87280 0.45760 0.15470 -0.13800
H 	H 	0.87050 0.43660 0.10610 0.07800
C 	C 	0.76970 0.08040 0.23920 0.12900
H 	H 	0.72430 0.08670 0.23760 0.00300
C 	C 	0.85900 0.47290 0.60760 -0.13500
C 	C 	0.93040 0.54380 0.72820 -0.15100
H 	H 	0.97460 0.56240 0.76070 0.09100
C 	C 	0.91340 0.65310 0.19060 0.04500
H 	H 	0.93540 0.67600 0.23930 0.01200
C 	C 	0.92660 0.63000 0.95180 -0.15700
H 	H 	0.95910 0.62630 0.98520 0.09000
C 	C 	0.88150 0.67410 0.97480 0.13900
C 	C 	0.79880 0.48700 0.63110 0.06200
H 	H 	0.75430 0.46690 0.59860 0.02700
C 	C 	0.77940 0.00940 0.20000 -0.20800
H 	H 	0.73970 0.96770 0.17650 0.10500
C 	C 	0.06260 0.42630 0.48640 0.08600
H 	H 	0.04740 0.45410 0.52630 -0.00800
C 	C 	0.84470 0.99930 0.19500 0.16700
C 	C 	0.85120 0.92110 0.15120 -0.11600
C 	C 	0.87740 0.66440 0.08390 0.15900
C 	C 	0.82120 0.79060 0.12090 -0.19300
H 	H 	0.79400 0.75100 0.12450 0.10000
C 	C 	0.92390 0.59220 0.88190 0.03400
H 	H 	0.95200 0.55980 0.86690 0.01900
C 	C 	0.80540 0.53090 0.70270 -0.14300
H 	H 	0.76540 0.54170 0.71810 0.08600
C 	C 	0.91110 0.83990 0.07710 -0.18200
H 	H 	0.94550 0.83440 0.05140 0.09800
C 	C 	0.84640 0.54770 0.08680 0.06100
H 	H 	0.82610 0.49590 0.06140 0.00700
C 	C 	0.83690 0.68520 0.92540 -0.16000
H 	H 	0.81010 0.71890 0.94120 0.08800
C 	C 	0.86820 0.77750 0.08170 0.16500
C 	C 	0.90090 0.05900 0.23160 -0.23000
H 	H 	0.94630 0.05370 0.22960 0.11200
C 	C 	0.91650 0.69540 0.15430 -0.17000
H 	H 	0.94500 0.74490 0.17760 0.09400
C 	C 	0.83310 0.64730 0.85570 0.04000
H 	H 	0.79980 0.65130 0.82320 0.01400
C 	C 	0.87830 0.57860 0.15500 -0.08600
C 	C 	0.88920 0.56370 0.26750 -0.14400
H 	H 	0.89540 0.61510 0.29380 0.08000
C 	C 	0.81110 0.86240 0.15710 0.06100
H 	H 	0.77810 0.87000 0.18440 0.01000
C 	C 	0.84200 0.58880 0.05200 -0.18600
H 	H 	0.81430 0.56530 0.00510 0.09900
C 	C 	0.89260 0.13040 0.27340 0.16100
H 	H 	0.93300 0.17140 0.29680 -0.01000
C 	C 	0.89740 0.90760 0.11330 0.07500
H 	H 	0.92400 0.94800 0.11030 0.00400
N 	N 	0.47750 0.34690 0.44030 -0.27000
N 	N 	0.01440 0.38250 0.42220 -0.25300
N 	N 	0.88360 0.70900 0.05080 -0.18600
O 	O 	0.76220 0.22200 0.33030 -0.49800
O 	O 	0.88090 0.26450 0.37010 -0.52900
O 	O 	0.90890 0.41660 0.51170 -0.49100
O 	O 	0.88510 0.43130 0.36620 -0.46400
O 	O 	0.78950 0.40120 0.48680 -0.50000
O 	O 	0.89330 0.33530 0.26950 -0.31500
Zn	Zn	0.90931 0.37072 0.40987 1.21900
Zn	Zn	0.73785 0.29748 0.41203 1.21200
C 	C 	0.58820 0.20160 0.37640 0.37500
C 	C 	0.55090 0.07680 0.27200 0.15600
H 	H 	0.51690 0.09230 0.25170 -0.01000
C 	C 	0.65420 0.38120 0.36230 0.46000
C 	C 	0.65140 0.42440 0.32400 -0.20300
C 	C 	0.65590 0.03350 0.32470 -0.24000
H 	H 	0.69190 0.01910 0.34380 0.11400
C 	C 	0.64680 0.51200 0.25280 0.15400
C 	C 	0.59830 0.12610 0.33680 -0.22500
C 	C 	0.62750 0.64640 0.03170 0.13100
C 	C 	0.64580 0.55650 0.21580 -0.11200
C 	C 	0.63120 0.75840 0.14320 0.15500
C 	C 	0.65030 0.10450 0.36190 0.17200
H 	H 	0.68320 0.13820 0.40530 -0.04200
C 	C 	0.61040 0.98420 0.26130 0.16600
C 	C 	0.60370 0.43040 0.66190 -0.16000
C 	C 	0.61690 0.90290 0.21740 -0.10100
C 	C 	0.65910 0.67800 0.99540 -0.15600
H 	H 	0.68460 0.72860 0.02010 0.08500
C 	C 	0.65590 0.80130 0.21780 -0.17700
H 	H 	0.67830 0.78100 0.24310 0.09500
C 	C 	0.61590 0.50790 0.69480 0.08900
H 	H 	0.62150 0.53280 0.66780 0.01300
C 	C 	0.65500 0.63830 0.92410 0.03100
H 	H 	0.67700 0.66190 0.90090 0.01500
C 	C 	0.69830 0.47600 0.25210 -0.20200
H 	H 	0.73180 0.47880 0.22650 0.10700
C 	C 	0.59360 0.49830 0.28510 -0.20200
H 	H 	0.55580 0.51860 0.28220 0.10500
C 	C 	0.55420 0.00480 0.23790 -0.22400
H 	H 	0.51780 0.96900 0.19820 0.11000
C 	C 	0.61670 0.56050 0.88530 -0.06600
C 	C 	0.61320 0.51630 0.80910 0.11500
C 	C 	0.60010 0.79420 0.10950 -0.17300
H 	H 	0.58520 0.76950 0.05980 0.09300
C 	C 	0.58450 0.52500 0.92170 0.01600
H 	H 	0.56030 0.47410 0.89740 0.02200
C 	C 	0.59040 0.86460 0.14640 0.05600
H 	H 	0.56590 0.88470 0.12240 0.00800
C 	C 	0.63890 0.64350 0.14520 0.17300
C 	C 	0.64870 0.87080 0.25470 0.06000
H 	H 	0.66480 0.89690 0.30430 0.00700
C 	C 	0.61990 0.54810 0.76600 -0.17600
H 	H 	0.62760 0.59980 0.78580 0.09000
C 	C 	0.70120 0.43460 0.29000 0.12900
H 	H 	0.73870 0.41370 0.29150 0.00500
C 	C 	0.59480 0.39520 0.70490 0.08300
H 	H 	0.58460 0.34330 0.68510 0.01500
C 	C 	0.58980 0.56870 0.99580 -0.13600
H 	H 	0.56880 0.54660 0.02060 0.08200
C 	C 	0.59790 0.38550 0.58710 0.36600
C 	C 	0.58720 0.63120 0.17700 -0.19900
H 	H 	0.54930 0.65140 0.17480 0.10200
C 	C 	0.69480 0.56860 0.18360 0.07200
H 	H 	0.73120 0.54580 0.18300 0.00500
C 	C 	0.59280 0.45770 0.32020 0.12100
H 	H 	0.55610 0.45100 0.34140 -0.00200
C 	C 	0.69510 0.61450 0.14980 -0.19200
H 	H 	0.73290 0.62460 0.13110 0.10200
C 	C 	0.58940 0.58980 0.21210 0.07100
H 	H 	0.55340 0.58310 0.23400 0.00500
C 	C 	0.60150 0.43880 0.77630 -0.16600
H 	H 	0.59800 0.41520 0.80450 0.08600
N 	N 	0.63390 0.68490 0.10770 -0.18600
O 	O 	0.64650 0.25620 0.42670 -0.56100
O 	O 	0.69460 0.33910 0.34960 -0.46800
O 	O 	0.61760 0.41900 0.55250 -0.43500
O 	O 	0.53300 0.21580 0.36790 -0.41500
O 	O 	0.56980 0.31840 0.55430 -0.37400
O 	O 	0.61620 0.38880 0.40420 -0.50400
Zn	Zn	0.57720 0.33341 0.45233 1.22600
C 	C 	0.88940 0.66010 0.63490 -0.12400
H 	H 	0.87410 0.68870 0.67440 0.07400
C 	C 	0.86730 0.57000 0.50680 -0.15600
H 	H 	0.83500 0.53950 0.46230 0.09500
C 	C 	0.76900 0.60550 0.55450 -0.02400
H 	H 	0.74050 0.56850 0.50980 0.04700
C 	C 	0.84340 0.61080 0.56500 0.08900
C 	C 	0.73700 0.64230 0.59540 -0.16000
H 	H 	0.76530 0.67570 0.64140 0.08300
C 	C 	0.14700 0.57380 0.47090 0.36800
C 	C 	0.61290 0.59010 0.53000 -0.27300
H 	H 	0.62500 0.54830 0.49920 0.13800
C 	C 	0.65940 0.64320 0.58450 0.25200
C 	C 	0.53940 0.59540 0.51580 0.14600
H 	H 	0.50520 0.55730 0.47540 -0.02200
C 	C 	0.64510 0.69620 0.63360 -0.27200
H 	H 	0.67980 0.73070 0.67540 0.12300
C 	C 	0.96470 0.66000 0.63670 0.05500
H 	H 	0.99910 0.69020 0.67990 0.01200
C 	C 	0.17640 0.78630 0.67030 0.44100
C 	C 	0.57400 0.70170 0.62320 0.12300
H 	H 	0.56180 0.73880 0.66000 -0.00700
C 	C 	0.07400 0.49900 0.34340 0.06900
H 	H 	0.03380 0.50890 0.35880 0.02000
C 	C 	0.12740 0.43960 0.24610 0.10000
C 	C 	0.16940 0.85810 0.71890 -0.22300
C 	C 	0.11820 0.55480 0.73570 -0.11800
C 	C 	0.11360 0.60000 0.69880 0.33400
C 	C 	0.12260 0.39820 0.17020 -0.06900
C 	C 	0.12170 0.46750 0.80710 0.09500
C 	C 	0.12920 0.58900 0.81130 0.03800
H 	H 	0.13770 0.64070 0.83820 0.03000
C 	C 	0.10880 0.47630 0.69630 0.05300
H 	H 	0.10140 0.45280 0.64680 0.02400
C 	C 	0.12720 0.54240 0.84530 -0.13800
H 	H 	0.12950 0.56340 0.89390 0.07800
C 	C 	0.23030 0.91960 0.76080 0.12900
H 	H 	0.27570 0.91330 0.76240 0.00300
C 	C 	0.14100 0.52710 0.39240 -0.13500
C 	C 	0.06960 0.45620 0.27180 -0.15100
H 	H 	0.02540 0.43760 0.23930 0.09100
C 	C 	0.08660 0.34690 0.80940 0.04500
H 	H 	0.06460 0.32400 0.76070 0.01200
C 	C 	0.07340 0.37000 0.04820 -0.15700
H 	H 	0.04090 0.37370 0.01480 0.09000
C 	C 	0.11850 0.32590 0.02520 0.13900
C 	C 	0.20120 0.51300 0.36890 0.06200
H 	H 	0.24570 0.53310 0.40140 0.02700
C 	C 	0.22060 0.99060 0.80000 -0.20800
H 	H 	0.26030 0.03230 0.82350 0.10500
C 	C 	0.93740 0.57370 0.51360 0.08600
H 	H 	0.95260 0.54590 0.47370 -0.00800
C 	C 	0.15530 0.00070 0.80500 0.16700
C 	C 	0.14880 0.07890 0.84880 -0.11600
C 	C 	0.12260 0.33560 0.91610 0.15900
C 	C 	0.17880 0.20940 0.87910 -0.19300
H 	H 	0.20600 0.24900 0.87550 0.10000
C 	C 	0.07610 0.40780 0.11810 0.03400
H 	H 	0.04800 0.44020 0.13310 0.01900
C 	C 	0.19460 0.46910 0.29730 -0.14300
H 	H 	0.23460 0.45830 0.28190 0.08600
C 	C 	0.08890 0.16010 0.92290 -0.18200
H 	H 	0.05450 0.16560 0.94860 0.09800
C 	C 	0.15360 0.45230 0.91320 0.06100
H 	H 	0.17390 0.50410 0.93860 0.00700
C 	C 	0.16310 0.31480 0.07460 -0.16000
H 	H 	0.18990 0.28110 0.05880 0.08800
C 	C 	0.13180 0.22250 0.91830 0.16500
C 	C 	0.09910 0.94100 0.76840 -0.23000
H 	H 	0.05370 0.94630 0.77040 0.11200
C 	C 	0.08350 0.30460 0.84570 -0.17000
H 	H 	0.05500 0.25510 0.82240 0.09400
C 	C 	0.16690 0.35270 0.14430 0.04000
H 	H 	0.20020 0.34870 0.17680 0.01400
C 	C 	0.12170 0.42140 0.84500 -0.08600
C 	C 	0.11080 0.43630 0.73250 -0.14400
H 	H 	0.10460 0.38490 0.70620 0.08000
C 	C 	0.18890 0.13760 0.84290 0.06100
H 	H 	0.22190 0.13000 0.81560 0.01000
C 	C 	0.15800 0.41120 0.94800 -0.18600
H 	H 	0.18570 0.43470 0.99490 0.09900
C 	C 	0.10740 0.86960 0.72660 0.16100
H 	H 	0.06700 0.82860 0.70320 -0.01000
C 	C 	0.10260 0.09240 0.88670 0.07500
H 	H 	0.07600 0.05200 0.88970 0.00400
N 	N 	0.52250 0.65310 0.55970 -0.27000
N 	N 	0.98560 0.61750 0.57780 -0.25300
N 	N 	0.11640 0.29100 0.94920 -0.18600
O 	O 	0.23780 0.77800 0.66970 -0.49800
O 	O 	0.11910 0.73550 0.62990 -0.52900
O 	O 	0.09110 0.58340 0.48830 -0.49100
O 	O 	0.11490 0.56870 0.63380 -0.46400
O 	O 	0.21050 0.59880 0.51320 -0.50000
O 	O 	0.10670 0.66470 0.73050 -0.31500
Zn	Zn	0.09069 0.62928 0.59013 1.21900
Zn	Zn	0.26215 0.70252 0.58797 1.21200
C 	C 	0.41180 0.79840 0.62360 0.37500
C 	C 	0.44910 0.92320 0.72800 0.15600
H 	H 	0.48310 0.90770 0.74830 -0.01000
C 	C 	0.34580 0.61880 0.63770 0.46000
C 	C 	0.34860 0.57560 0.67600 -0.20300
C 	C 	0.34410 0.96650 0.67530 -0.24000
H 	H 	0.30810 0.98090 0.65620 0.11400
C 	C 	0.35320 0.48800 0.74720 0.15400
C 	C 	0.40170 0.87390 0.66320 -0.22500
C 	C 	0.37250 0.35360 0.96830 0.13100
C 	C 	0.35420 0.44350 0.78420 -0.11200
C 	C 	0.36880 0.24160 0.85680 0.15500
C 	C 	0.34970 0.89550 0.63810 0.17200
H 	H 	0.31680 0.86180 0.59470 -0.04200
C 	C 	0.38960 0.01580 0.73870 0.16600
C 	C 	0.39630 0.56960 0.33810 -0.16000
C 	C 	0.38310 0.09710 0.78260 -0.10100
C 	C 	0.34090 0.32200 0.00460 -0.15600
H 	H 	0.31540 0.27140 0.97990 0.08500
C 	C 	0.34410 0.19870 0.78220 -0.17700
H 	H 	0.32170 0.21900 0.75690 0.09500
C 	C 	0.38410 0.49210 0.30520 0.08900
H 	H 	0.37850 0.46720 0.33220 0.01300
C 	C 	0.34500 0.36170 0.07590 0.03100
H 	H 	0.32300 0.33810 0.09910 0.01500
C 	C 	0.30170 0.52400 0.74790 -0.20200
H 	H 	0.26820 0.52120 0.77350 0.10700
C 	C 	0.40640 0.50170 0.71490 -0.20200
H 	H 	0.44420 0.48140 0.71780 0.10500
C 	C 	0.44580 0.99520 0.76210 -0.22400
H 	H 	0.48220 0.03100 0.80180 0.11000
C 	C 	0.38330 0.43950 0.11470 -0.06600
C 	C 	0.38680 0.48370 0.19090 0.11500
C 	C 	0.39990 0.20580 0.89050 -0.17300
H 	H 	0.41480 0.23050 0.94020 0.09300
C 	C 	0.41550 0.47500 0.07830 0.01600
H 	H 	0.43970 0.52590 0.10260 0.02200
C 	C 	0.40960 0.13540 0.85360 0.05600
H 	H 	0.43410 0.11530 0.87760 0.00800
C 	C 	0.36110 0.35650 0.85480 0.17300
C 	C 	0.35130 0.12920 0.74530 0.06000
H 	H 	0.33520 0.10310 0.69570 0.00700
C 	C 	0.38010 0.45190 0.23400 -0.17600
H 	H 	0.37240 0.40020 0.21420 0.09000
C 	C 	0.29880 0.56540 0.71000 0.12900
H 	H 	0.26130 0.58630 0.70850 0.00500
C 	C 	0.40520 0.60480 0.29510 0.08300
H 	H 	0.41540 0.65670 0.31490 0.01500
C 	C 	0.41020 0.43130 0.00420 -0.13600
H 	H 	0.43120 0.45340 0.97940 0.08200
C 	C 	0.40210 0.61450 0.41290 0.36600
C 	C 	0.41280 0.36880 0.82300 -0.19900
H 	H 	0.45070 0.34860 0.82520 0.10200
C 	C 	0.30520 0.43140 0.81640 0.07200
H 	H 	0.26880 0.45420 0.81700 0.00500
C 	C 	0.40720 0.54230 0.67980 0.12100
H 	H 	0.44390 0.54900 0.65860 -0.00200
C 	C 	0.30490 0.38550 0.85020 -0.19200
H 	H 	0.26710 0.37540 0.86890 0.10200
C 	C 	0.41060 0.41020 0.78790 0.07100
H 	H 	0.44660 0.41690 0.76600 0.00500
C 	C 	0.39850 0.56120 0.22370 -0.16600
H 	H 	0.40200 0.58480 0.19550 0.08600
N 	N 	0.36610 0.31510 0.89230 -0.18600
O 	O 	0.35350 0.74380 0.57330 -0.56100
O 	O 	0.30540 0.66090 0.65040 -0.46800
O 	O 	0.38240 0.58100 0.44750 -0.43500
O 	O 	0.46700 0.78420 0.63210 -0.41500
O 	O 	0.43020 0.68160 0.44570 -0.37400
O 	O 	0.38380 0.61120 0.59580 -0.50400
Zn	Zn	0.42280 0.66659 0.54767 1.22600
