data_crystal

_cell_length_a 17.89800
_cell_length_b 20.27500
_cell_length_c 21.79600
_cell_angle_alpha 63.37500
_cell_angle_beta  76.64400
_cell_angle_gamma 84.87600

_symmetry_space_group_name_	'P 1'
_symmetry_space_group_name_H-M	'P 1'

loop_
_symmetry_equiv_pos_as_xyz
  x,y,z

loop_
_atom_site_label
_atom_site_type_symbol
_atom_site_fract_x
_atom_site_fract_y
_atom_site_fract_z
_atom_site_charge
C 	C 	0.05389 0.04147 0.13588 0.08100
H 	H 	0.01900 0.03190 0.17790 0.00100
C 	C 	0.28900 0.10830 0.09663 -0.13800
H 	H 	0.25260 0.12980 0.11980 0.08100
C 	C 	0.12948 0.04770 0.13302 -0.13300
H 	H 	0.14570 0.04360 0.17220 0.07800
C 	C 	0.36518 0.11572 0.09228 0.07700
H 	H 	0.37980 0.14250 0.11290 0.00700
C 	C 	0.64044 0.51039 0.35980 0.14600
C 	C 	0.63842 0.66392 0.28570 -0.08000
C 	C 	0.18319 0.06023 0.07063 0.05700
C 	C 	0.62591 0.98126 0.13296 0.43700
C 	C 	0.63704 0.74498 0.24576 0.12700
C 	C 	0.56752 0.19048 0.91883 0.31000
C 	C 	0.63843 0.39777 0.46994 0.14100
C 	C 	0.32099 0.03625 0.03429 -0.15000
H 	H 	0.30770 0.00790 0.01460 0.09900
C 	C 	0.07842 0.05959 0.02071 0.08500
H 	H 	0.06050 0.06340 0.98250 -0.00600
C 	C 	0.60050 0.28084 0.23777 0.12300
C 	C 	0.58248 0.21066 0.15701 -0.18200
C 	C 	0.87774 0.91781 0.19482 0.32200
C 	C 	0.67923 0.86694 0.21774 0.10900
H 	H 	0.71020 0.89670 0.22420 0.01100
C 	C 	0.61949 0.29651 0.69283 0.08300
C 	C 	0.88056 0.24966 0.66894 -0.07900
C 	C 	0.57373 0.17334 0.11380 0.39600
C 	C 	0.26569 0.06799 0.06615 0.06900
C 	C 	0.88441 0.79145 0.20063 0.05800
H 	H 	0.88640 0.81240 0.15260 0.02500
C 	C 	0.63099 0.39095 0.36007 0.14200
C 	C 	0.63120 0.89939 0.17118 -0.18000
C 	C 	0.15627 0.06547 0.01370 -0.13600
H 	H 	0.19020 0.07280 0.97170 0.09100
C 	C 	0.61092 0.31856 0.28023 -0.08000
C 	C 	0.82779 0.12840 0.16112 0.43100
C 	C 	0.60036 0.18531 0.80310 0.03800
H 	H 	0.59870 0.13410 0.82710 0.03100
C 	C 	0.84382 0.09979 0.96949 0.41700
C 	C 	0.65974 0.29559 0.57560 0.02900
H 	H 	0.67670 0.24770 0.59790 0.01700
C 	C 	0.68226 0.79131 0.25486 -0.17900
H 	H 	0.71470 0.77090 0.28630 0.09900
C 	C 	0.57703 0.62052 0.29693 0.04000
H 	H 	0.53430 0.64310 0.27880 0.01900
C 	C 	0.59020 0.22786 0.84020 -0.10700
C 	C 	0.57674 0.54413 0.33436 -0.16400
H 	H 	0.53400 0.51620 0.34210 0.09000
C 	C 	0.66495 0.32701 0.50401 -0.15800
H 	H 	0.68620 0.30080 0.47860 0.08700
C 	C 	0.59018 0.77810 0.19739 -0.18200
H 	H 	0.56110 0.74870 0.18880 0.10200
C 	C 	0.87412 0.83624 0.23475 -0.12200
C 	C 	0.39671 0.04658 0.03154 0.09900
H 	H 	0.43380 0.02500 0.00900 -0.00700
C 	C 	0.92404 0.15126 0.84891 0.11300
H 	H 	0.96710 0.13800 0.86870 0.00500
C 	C 	0.89552 0.60288 0.34683 -0.07900
C 	C 	0.58438 0.28770 0.35247 0.03700
H 	H 	0.55980 0.24180 0.37520 0.01500
C 	C 	0.88616 0.68240 0.30905 0.09400
C 	C 	0.83870 0.15548 0.21152 -0.17100
C 	C 	0.60968 0.43732 0.50869 -0.15400
H 	H 	0.59240 0.48510 0.48650 0.08900
C 	C 	0.90041 0.32897 0.52359 0.14700
C 	C 	0.86013 0.21641 0.29853 0.11400
C 	C 	0.64443 0.25873 0.13477 0.10100
H 	H 	0.67980 0.26760 0.09310 -0.01700
C 	C 	0.65891 0.42221 0.28741 -0.16000
H 	H 	0.68450 0.46760 0.26490 0.09100
C 	C 	0.70301 0.55166 0.34950 -0.17000
H 	H 	0.74600 0.52880 0.36690 0.09600
C 	C 	0.61284 0.21976 0.73101 -0.13300
H 	H 	0.61700 0.19120 0.70690 0.07700
C 	C 	0.85264 0.13298 0.89150 -0.18400
C 	C 	0.60701 0.40511 0.58018 0.02900
H 	H 	0.58930 0.43260 0.60500 0.01800
C 	C 	0.59631 0.30411 0.80370 0.04000
H 	H 	0.58900 0.33260 0.82820 0.02900
C 	C 	0.62969 0.33358 0.61580 -0.06100
C 	C 	0.79790 0.18579 0.78985 -0.18300
H 	H 	0.75490 0.19640 0.77000 0.10000
C 	C 	0.58628 0.85353 0.16222 0.11000
H 	H 	0.55280 0.87420 0.13180 0.00800
C 	C 	0.54031 0.23326 0.25841 -0.17800
H 	H 	0.50490 0.22420 0.30010 0.09300
C 	C 	0.59329 0.32313 0.39161 -0.16300
H 	H 	0.57370 0.30120 0.43990 0.08900
C 	C 	0.83807 0.35094 0.37685 -0.16400
H 	H 	0.80650 0.39000 0.37680 0.09200
C 	C 	0.87131 0.72764 0.34416 -0.14600
H 	H 	0.86520 0.70620 0.39270 0.08100
C 	C 	0.78837 0.14922 0.86189 0.10300
H 	H 	0.73950 0.13560 0.89040 0.00800
C 	C 	0.70125 0.62704 0.31330 0.04300
H 	H 	0.74360 0.65460 0.30690 0.01800
C 	C 	0.86955 0.20696 0.74658 0.13000
C 	C 	0.64912 0.38679 0.24867 0.03800
H 	H 	0.66840 0.40880 0.20040 0.01600
C 	C 	0.78600 0.20145 0.29698 -0.16600
H 	H 	0.74360 0.21220 0.32470 0.09100
C 	C 	0.53050 0.19775 0.21859 0.10600
H 	H 	0.48900 0.16560 0.23370 0.00800
C 	C 	0.83957 0.23097 0.63191 0.04100
H 	H 	0.80490 0.19140 0.65590 0.01500
C 	C 	0.89164 0.71713 0.23671 -0.15100
H 	H 	0.90050 0.68870 0.21220 0.08200
C 	C 	0.61311 0.33780 0.73134 -0.13200
H 	H 	0.62040 0.38870 0.70740 0.07500
C 	C 	0.77560 0.17058 0.25398 0.09100
H 	H 	0.72630 0.16000 0.25360 0.01700
C 	C 	0.65306 0.29353 0.17554 -0.17500
H 	H 	0.69450 0.32560 0.16080 0.09100
C 	C 	0.89810 0.33197 0.41164 0.14600
C 	C 	0.93318 0.18925 0.77678 -0.18800
H 	H 	0.98210 0.20300 0.74850 0.10500
C 	C 	0.86564 0.80299 0.30775 0.04900
H 	H 	0.85610 0.83190 0.33180 0.02700
C 	C 	0.94170 0.34884 0.56003 -0.16200
H 	H 	0.97600 0.38870 0.53580 0.09000
C 	C 	0.87175 0.25490 0.33980 -0.07600
C 	C 	0.84974 0.27046 0.55970 -0.16500
H 	H 	0.82200 0.25720 0.53560 0.09200
C 	C 	0.93600 0.56180 0.31333 0.04300
H 	H 	0.95950 0.58620 0.26600 0.01200
C 	C 	0.94210 0.48746 0.34726 -0.17100
H 	H 	0.97070 0.46260 0.32290 0.09300
C 	C 	0.82525 0.31154 0.34208 0.03500
H 	H 	0.78410 0.32390 0.31980 0.02100
C 	C 	0.90688 0.44749 0.41742 0.15400
C 	C 	0.93148 0.30939 0.63184 0.03900
H 	H 	0.95910 0.32290 0.65590 0.02000
C 	C 	0.91197 0.16739 0.21507 0.09700
H 	H 	0.95420 0.15480 0.18870 0.00800
C 	C 	0.92269 0.19820 0.25797 -0.17000
H 	H 	0.97220 0.20670 0.25960 0.08900
C 	C 	0.86270 0.56271 0.41768 0.03900
H 	H 	0.83620 0.58760 0.44280 0.01300
C 	C 	0.86830 0.48689 0.45179 -0.17400
H 	H 	0.84530 0.46200 0.49920 0.09500
C 	C 	0.94420 0.27380 0.41110 -0.16500
H 	H 	0.98400 0.25990 0.43510 0.09200
C 	C 	0.93160 0.23650 0.37537 0.03900
H 	H 	0.96360 0.19800 0.37480 0.01600
N 	N 	0.42019 0.08577 0.05923 -0.25200
N 	N 	0.02708 0.04860 0.08035 -0.25400
N 	N 	0.64114 0.43092 0.39691 -0.17900
N 	N 	0.91093 0.37028 0.44928 -0.18200
O 	O 	0.76140 0.11601 0.16006 -0.50700
O 	O 	0.90553 0.09053 0.99080 -0.50400
O 	O 	0.57558 0.00604 0.09729 -0.49000
O 	O 	0.77831 0.08351 0.00812 -0.52100
O 	O 	0.67226 0.01884 0.14096 -0.47100
O 	O 	0.62870 0.17091 0.06709 -0.55000
O 	O 	0.87902 0.94418 0.12873 -0.45600
O 	O 	0.50999 0.14549 0.12334 -0.44100
O 	O 	0.57841 0.12253 0.95049 -0.43100
O 	O 	0.88740 0.12174 0.12111 -0.52300
O 	O 	0.88394 0.95708 0.22328 -0.32600
O 	O 	0.53913 0.22803 0.95106 -0.33700
Zn	Zn	0.53496 0.10612 0.04959 1.22400
Zn	Zn	0.72771 0.11702 0.08063 1.21400
Zn	Zn	0.91141 0.04580 0.08897 1.21900
C 	C 	0.94611 0.95853 0.86412 0.08000
H 	H 	0.98100 0.96810 0.82210 -0.00000
C 	C 	0.71100 0.89170 0.90337 -0.13900
H 	H 	0.74740 0.87020 0.88020 0.08000
C 	C 	0.87052 0.95230 0.86698 -0.13300
H 	H 	0.85430 0.95640 0.82780 0.07800
C 	C 	0.63482 0.88428 0.90772 0.07700
H 	H 	0.62020 0.85750 0.88710 0.00700
C 	C 	0.35956 0.48961 0.64020 0.14600
C 	C 	0.36158 0.33608 0.71430 -0.08000
C 	C 	0.81681 0.93977 0.92937 0.05700
C 	C 	0.37409 0.01874 0.86704 0.43700
C 	C 	0.36296 0.25502 0.75424 0.12700
C 	C 	0.43248 0.80952 0.08117 0.31000
C 	C 	0.36157 0.60223 0.53006 0.14100
C 	C 	0.67901 0.96375 0.96571 -0.15000
H 	H 	0.69230 0.99210 0.98540 0.09900
C 	C 	0.92158 0.94041 0.97929 0.08500
H 	H 	0.93950 0.93660 0.01750 -0.00600
C 	C 	0.39950 0.71916 0.76223 0.12300
C 	C 	0.41752 0.78934 0.84299 -0.18200
C 	C 	0.12226 0.08219 0.80518 0.32200
C 	C 	0.32077 0.13306 0.78226 0.10900
H 	H 	0.28980 0.10330 0.77580 0.01100
C 	C 	0.38051 0.70349 0.30717 0.08300
C 	C 	0.11944 0.75034 0.33106 -0.07900
C 	C 	0.42627 0.82666 0.88620 0.39600
C 	C 	0.73431 0.93201 0.93385 0.06900
C 	C 	0.11559 0.20855 0.79937 0.05800
H 	H 	0.11360 0.18760 0.84740 0.02500
C 	C 	0.36901 0.60905 0.63993 0.14200
C 	C 	0.36880 0.10061 0.82882 -0.18000
C 	C 	0.84373 0.93453 0.98630 -0.13600
H 	H 	0.80980 0.92720 0.02830 0.09100
C 	C 	0.38908 0.68144 0.71977 -0.08000
C 	C 	0.17221 0.87160 0.83888 0.43100
C 	C 	0.39964 0.81469 0.19690 0.03800
H 	H 	0.40130 0.86590 0.17290 0.03100
C 	C 	0.15618 0.90021 0.03051 0.41700
C 	C 	0.34026 0.70441 0.42440 0.02900
H 	H 	0.32330 0.75230 0.40210 0.01700
C 	C 	0.31774 0.20869 0.74514 -0.17900
H 	H 	0.28530 0.22910 0.71370 0.09900
C 	C 	0.42297 0.37948 0.70307 0.04000
H 	H 	0.46570 0.35690 0.72120 0.01900
C 	C 	0.40980 0.77214 0.15980 -0.10700
C 	C 	0.42326 0.45587 0.66564 -0.16400
H 	H 	0.46600 0.48380 0.65790 0.09000
C 	C 	0.33505 0.67299 0.49599 -0.15800
H 	H 	0.31380 0.69920 0.52140 0.08700
C 	C 	0.40982 0.22190 0.80261 -0.18200
H 	H 	0.43890 0.25130 0.81120 0.10200
C 	C 	0.12588 0.16376 0.76525 -0.12200
C 	C 	0.60329 0.95342 0.96846 0.09900
H 	H 	0.56620 0.97500 0.99100 -0.00700
C 	C 	0.07596 0.84874 0.15109 0.11300
H 	H 	0.03290 0.86200 0.13130 0.00500
C 	C 	0.10448 0.39712 0.65317 -0.07900
C 	C 	0.41562 0.71230 0.64753 0.03700
H 	H 	0.44020 0.75820 0.62480 0.01500
C 	C 	0.11384 0.31760 0.69095 0.09400
C 	C 	0.16130 0.84452 0.78848 -0.17100
C 	C 	0.39032 0.56268 0.49131 -0.15400
H 	H 	0.40760 0.51490 0.51350 0.08900
C 	C 	0.09959 0.67103 0.47641 0.14700
C 	C 	0.13987 0.78359 0.70147 0.11400
C 	C 	0.35557 0.74127 0.86523 0.10100
H 	H 	0.32020 0.73240 0.90690 -0.01700
C 	C 	0.34109 0.57779 0.71259 -0.16000
H 	H 	0.31550 0.53240 0.73510 0.09100
C 	C 	0.29699 0.44834 0.65050 -0.17000
H 	H 	0.25400 0.47120 0.63310 0.09600
C 	C 	0.38716 0.78024 0.26899 -0.13300
H 	H 	0.38300 0.80880 0.29310 0.07700
C 	C 	0.14736 0.86702 0.10850 -0.18400
C 	C 	0.39299 0.59489 0.41982 0.02900
H 	H 	0.41070 0.56740 0.39500 0.01800
C 	C 	0.40369 0.69589 0.19630 0.04000
H 	H 	0.41100 0.66740 0.17180 0.02900
C 	C 	0.37031 0.66642 0.38420 -0.06100
C 	C 	0.20210 0.81421 0.21015 -0.18300
H 	H 	0.24510 0.80360 0.23000 0.10000
C 	C 	0.41372 0.14647 0.83778 0.11000
H 	H 	0.44720 0.12580 0.86820 0.00800
C 	C 	0.45969 0.76674 0.74159 -0.17800
H 	H 	0.49510 0.77580 0.69990 0.09300
C 	C 	0.40671 0.67687 0.60839 -0.16300
H 	H 	0.42630 0.69880 0.56010 0.08900
C 	C 	0.16193 0.64906 0.62315 -0.16400
H 	H 	0.19350 0.61000 0.62320 0.09200
C 	C 	0.12869 0.27236 0.65584 -0.14600
H 	H 	0.13480 0.29380 0.60730 0.08100
C 	C 	0.21163 0.85078 0.13811 0.10300
H 	H 	0.26050 0.86440 0.10960 0.00800
C 	C 	0.29875 0.37296 0.68670 0.04300
H 	H 	0.25640 0.34540 0.69310 0.01800
C 	C 	0.13045 0.79304 0.25342 0.13000
C 	C 	0.35088 0.61321 0.75133 0.03800
H 	H 	0.33160 0.59120 0.79960 0.01600
C 	C 	0.21400 0.79855 0.70302 -0.16600
H 	H 	0.25640 0.78780 0.67530 0.09100
C 	C 	0.46950 0.80225 0.78141 0.10600
H 	H 	0.51100 0.83440 0.76630 0.00800
C 	C 	0.16043 0.76903 0.36809 0.04100
H 	H 	0.19510 0.80860 0.34410 0.01500
C 	C 	0.10836 0.28287 0.76329 -0.15100
H 	H 	0.09950 0.31130 0.78780 0.08200
C 	C 	0.38689 0.66220 0.26866 -0.13200
H 	H 	0.37960 0.61130 0.29260 0.07500
C 	C 	0.22440 0.82942 0.74602 0.09100
H 	H 	0.27370 0.84000 0.74640 0.01700
C 	C 	0.34694 0.70647 0.82446 -0.17500
H 	H 	0.30550 0.67440 0.83920 0.09100
C 	C 	0.10190 0.66803 0.58836 0.14600
C 	C 	0.06682 0.81075 0.22322 -0.18800
H 	H 	0.01790 0.79700 0.25150 0.10500
C 	C 	0.13436 0.19701 0.69225 0.04900
H 	H 	0.14390 0.16810 0.66820 0.02700
C 	C 	0.05830 0.65116 0.43997 -0.16200
H 	H 	0.02400 0.61130 0.46420 0.09000
C 	C 	0.12825 0.74510 0.66020 -0.07600
C 	C 	0.15026 0.72954 0.44030 -0.16500
H 	H 	0.17800 0.74280 0.46440 0.09200
C 	C 	0.06400 0.43820 0.68667 0.04300
H 	H 	0.04050 0.41380 0.73400 0.01200
C 	C 	0.05790 0.51254 0.65274 -0.17100
H 	H 	0.02930 0.53740 0.67710 0.09300
C 	C 	0.17475 0.68846 0.65792 0.03500
H 	H 	0.21590 0.67610 0.68020 0.02100
C 	C 	0.09312 0.55251 0.58258 0.15400
C 	C 	0.06852 0.69061 0.36816 0.03900
H 	H 	0.04090 0.67710 0.34410 0.02000
C 	C 	0.08803 0.83261 0.78493 0.09700
H 	H 	0.04580 0.84520 0.81130 0.00800
C 	C 	0.07731 0.80180 0.74203 -0.17000
H 	H 	0.02780 0.79330 0.74040 0.08900
C 	C 	0.13730 0.43729 0.58232 0.03900
H 	H 	0.16380 0.41240 0.55720 0.01300
C 	C 	0.13170 0.51311 0.54821 -0.17400
H 	H 	0.15470 0.53800 0.50080 0.09500
C 	C 	0.05580 0.72620 0.58890 -0.16500
H 	H 	0.01600 0.74010 0.56490 0.09200
C 	C 	0.06840 0.76350 0.62463 0.03900
H 	H 	0.03640 0.80200 0.62520 0.01600
N 	N 	0.57981 0.91423 0.94077 -0.25200
N 	N 	0.97292 0.95140 0.91965 -0.25400
N 	N 	0.35886 0.56908 0.60309 -0.17900
N 	N 	0.08907 0.62972 0.55072 -0.18200
O 	O 	0.23860 0.88399 0.83994 -0.50700
O 	O 	0.09447 0.90947 0.00920 -0.50400
O 	O 	0.42442 0.99396 0.90271 -0.49000
O 	O 	0.22169 0.91649 0.99188 -0.52100
O 	O 	0.32774 0.98116 0.85904 -0.47100
O 	O 	0.37130 0.82909 0.93291 -0.55000
O 	O 	0.12098 0.05582 0.87127 -0.45600
O 	O 	0.49001 0.85451 0.87666 -0.44100
O 	O 	0.42159 0.87747 0.04951 -0.43100
O 	O 	0.11260 0.87826 0.87889 -0.52300
O 	O 	0.11606 0.04292 0.77672 -0.32600
O 	O 	0.46087 0.77197 0.04894 -0.33700
Zn	Zn	0.46504 0.89388 0.95041 1.22400
Zn	Zn	0.27229 0.88298 0.91937 1.21400
Zn	Zn	0.08859 0.95420 0.91103 1.21900
