data_crystal

_cell_length_a 15.57800
_cell_length_b 19.13100
_cell_length_c 25.03900
_cell_angle_alpha 90.00000
_cell_angle_beta  90.00000
_cell_angle_gamma 90.00000

_symmetry_space_group_name_	'P 1'
_symmetry_space_group_name_H-M	'P 1'

loop_
_symmetry_equiv_pos_as_xyz
  x,y,z

loop_
_atom_site_label
_atom_site_type_symbol
_atom_site_fract_x
_atom_site_fract_y
_atom_site_fract_z
_atom_site_charge
Zn	Zn	0.54678 0.16217 0.72594 1.19300
N 	N 	0.56140 0.12990 0.80187 -0.31800
N 	N 	0.43390 0.21410 0.71910 -0.29900
O 	O 	0.66790 0.10290 0.69030 -0.41800
O 	O 	0.53860 0.09550 0.66700 -0.48400
N 	N 	0.62210 0.16550 0.83217 -0.32300
C 	C 	0.52890 0.08210 0.83310 0.34000
C 	C 	0.35400 0.19490 0.71020 0.28500
C 	C 	0.62200 0.13590 0.87940 0.30600
N 	N 	0.56340 0.08450 0.88260 -0.35300
C 	C 	0.46300 0.03200 0.81650 -0.92100
C 	C 	0.32600 0.12030 0.70790 -0.84100
C 	C 	0.68070 0.15540 0.92360 -0.87100
Zn	Zn	0.52553 0.03584 0.94986 1.21400
H 	H 	0.40730 0.04980 0.82560 0.28500
H 	H 	0.47220 0.98820 0.83440 0.28800
H 	H 	0.46640 0.02510 0.77860 0.25900
H 	H 	0.37290 0.09060 0.71790 0.23800
H 	H 	0.30790 0.10920 0.67230 0.24600
H 	H 	0.27900 0.11330 0.73210 0.24600
H 	H 	0.69520 0.11440 0.94380 0.27300
H 	H 	0.65280 0.18860 0.94650 0.26200
H 	H 	0.73200 0.17570 0.90910 0.23400
O 	O 	0.51400 0.12050 0.99900 -0.44900
O 	O 	0.39570 0.03920 0.93950 -0.45500
O 	O 	0.64040 0.01620 0.98630 -0.46100
O 	O 	0.52160 0.93400 0.92590 -0.46300
C 	C 	0.49370 0.11940 0.04810 0.29500
C 	C 	0.34280 0.01200 0.96950 0.29000
C 	C 	0.48890 0.18700 0.07690 0.16200
C 	C 	0.25080 0.00980 0.95180 0.19100
C 	C 	0.47620 0.18820 0.13010 -0.51800
C 	C 	0.19100 0.97040 0.97930 -0.62500
C 	C 	0.22710 0.04390 0.90580 -0.25600
C 	C 	0.11540 0.08390 0.84080 0.28200
H 	H 	0.47350 0.14600 0.14840 0.20000
C 	C 	0.10800 0.96370 0.95970 0.95800
H 	H 	0.20630 0.94840 0.01100 0.24200
C 	C 	0.14280 0.04230 0.88850 0.16000
H 	H 	0.26800 0.06830 0.88620 0.11800
C 	C 	0.08030 0.99880 0.91460 -0.61300
O 	O 	0.05200 0.91390 0.98380 0.90100
H 	H 	0.02440 0.99450 0.90180 0.23500
H 	H 	0.06450 0.90810 0.01530 -0.21100
H 	H 	0.06980 0.93460 0.97750 -1.04800
H 	H 	0.41550 0.26760 0.22130 -0.04900
Zn	Zn	0.95322 0.83783 0.22594 1.19100
N 	N 	0.93860 0.87010 0.30187 -0.31600
N 	N 	0.06610 0.78590 0.21910 -0.29900
O 	O 	0.83210 0.89710 0.19030 -0.42000
O 	O 	0.96140 0.90450 0.16700 -0.48800
N 	N 	0.87790 0.83450 0.33217 -0.32400
C 	C 	0.97110 0.91790 0.33310 0.32400
C 	C 	0.14600 0.80510 0.21020 0.28600
C 	C 	0.87800 0.86410 0.37940 0.30500
N 	N 	0.93660 0.91550 0.38260 -0.35200
C 	C 	0.03700 0.96800 0.31650 -0.88000
C 	C 	0.17400 0.87970 0.20790 -0.84600
C 	C 	0.81930 0.84460 0.42360 -0.87100
Zn	Zn	0.97447 0.96416 0.44986 1.21300
H 	H 	0.09270 0.95020 0.32560 0.27400
H 	H 	0.02780 0.01180 0.33440 0.27200
H 	H 	0.03360 0.97490 0.27860 0.24900
H 	H 	0.12710 0.90940 0.21790 0.24100
H 	H 	0.19210 0.89080 0.17230 0.24800
H 	H 	0.22100 0.88670 0.23210 0.24800
H 	H 	0.80480 0.88560 0.44380 0.27200
H 	H 	0.84720 0.81140 0.44650 0.26200
H 	H 	0.76800 0.82430 0.40910 0.23400
O 	O 	0.98600 0.87950 0.49900 -0.45200
O 	O 	0.10430 0.96080 0.43950 -0.45300
O 	O 	0.85960 0.98380 0.48630 -0.46500
O 	O 	0.97840 0.06600 0.42590 -0.46200
C 	C 	0.00630 0.88060 0.54810 0.30000
C 	C 	0.15720 0.98800 0.46950 0.29400
C 	C 	0.01110 0.81300 0.57690 0.15900
C 	C 	0.24920 0.99020 0.45180 0.19900
C 	C 	0.02380 0.81180 0.63010 -0.51500
C 	C 	0.30900 0.02960 0.47930 -0.63100
C 	C 	0.27290 0.95610 0.40580 -0.26200
C 	C 	0.38460 0.91610 0.34080 0.27900
H 	H 	0.02650 0.85400 0.64840 0.20000
C 	C 	0.39200 0.03630 0.45970 0.95800
H 	H 	0.29370 0.05160 0.51100 0.24200
C 	C 	0.35720 0.95770 0.38850 0.16900
H 	H 	0.23200 0.93170 0.38620 0.12100
C 	C 	0.41970 0.00120 0.41460 -0.62100
O 	O 	0.44800 0.08610 0.48380 0.89300
H 	H 	0.47560 0.00550 0.40180 0.23700
H 	H 	0.43550 0.09190 0.51530 -0.21000
H 	H 	0.43020 0.06540 0.47750 -1.04100
H 	H 	0.08450 0.73240 0.72130 -0.04900
Zn	Zn	0.45322 0.66217 0.27406 1.19200
N 	N 	0.43860 0.62990 0.19813 -0.31900
N 	N 	0.56610 0.71410 0.28090 -0.30000
O 	O 	0.33210 0.60290 0.30970 -0.41900
O 	O 	0.46140 0.59550 0.33300 -0.48500
N 	N 	0.37790 0.66550 0.16783 -0.32300
C 	C 	0.47110 0.58210 0.16690 0.33800
C 	C 	0.64600 0.69490 0.28980 0.28400
C 	C 	0.37800 0.63590 0.12060 0.30500
N 	N 	0.43660 0.58450 0.11740 -0.35400
C 	C 	0.53700 0.53200 0.18350 -0.92000
C 	C 	0.67400 0.62030 0.29210 -0.84300
C 	C 	0.31930 0.65540 0.07640 -0.87100
Zn	Zn	0.47447 0.53584 0.05014 1.21400
H 	H 	0.59270 0.54980 0.17440 0.28500
H 	H 	0.52780 0.48820 0.16560 0.28700
H 	H 	0.53360 0.52510 0.22140 0.25900
H 	H 	0.62710 0.59060 0.28210 0.23900
H 	H 	0.69210 0.60920 0.32770 0.24700
H 	H 	0.72100 0.61330 0.26790 0.24700
H 	H 	0.30480 0.61440 0.05620 0.27300
H 	H 	0.34720 0.68860 0.05350 0.26200
H 	H 	0.26800 0.67570 0.09090 0.23400
O 	O 	0.48600 0.62050 0.00100 -0.44900
O 	O 	0.60430 0.53920 0.06050 -0.45400
O 	O 	0.35960 0.51620 0.01370 -0.46100
O 	O 	0.47840 0.43400 0.07410 -0.46300
C 	C 	0.50630 0.61940 0.95190 0.29500
C 	C 	0.65720 0.51200 0.03050 0.28900
C 	C 	0.51110 0.68700 0.92310 0.16200
C 	C 	0.74920 0.50980 0.04820 0.19900
C 	C 	0.52380 0.68820 0.86990 -0.51800
C 	C 	0.80900 0.47040 0.02070 -0.63300
C 	C 	0.77290 0.54390 0.09420 -0.26200
C 	C 	0.88460 0.58390 0.15920 0.27900
H 	H 	0.52650 0.64600 0.85160 0.20000
C 	C 	0.89200 0.46370 0.04030 0.96100
H 	H 	0.79370 0.44840 0.98900 0.24400
C 	C 	0.85720 0.54230 0.11150 0.16700
H 	H 	0.73200 0.56830 0.11380 0.12000
C 	C 	0.91970 0.49880 0.08540 -0.62100
O 	O 	0.94800 0.41390 0.01620 0.89600
H 	H 	0.97560 0.49450 0.09820 0.23700
H 	H 	0.93550 0.40810 0.98470 -0.20900
H 	H 	0.93020 0.43460 0.02250 -1.04600
H 	H 	0.58450 0.76760 0.77870 -0.04900
Zn	Zn	0.04678 0.33783 0.77406 1.19100
N 	N 	0.06140 0.37010 0.69813 -0.31900
N 	N 	0.93390 0.28590 0.78090 -0.29900
O 	O 	0.16790 0.39710 0.80970 -0.41900
O 	O 	0.03860 0.40450 0.83300 -0.48600
N 	N 	0.12210 0.33450 0.66783 -0.32400
C 	C 	0.02890 0.41790 0.66690 0.33600
C 	C 	0.85400 0.30510 0.78980 0.28500
C 	C 	0.12200 0.36410 0.62060 0.30500
N 	N 	0.06340 0.41550 0.61740 -0.35300
C 	C 	0.96300 0.46800 0.68350 -0.91600
C 	C 	0.82600 0.37970 0.79210 -0.84400
C 	C 	0.18070 0.34460 0.57640 -0.87000
Zn	Zn	0.02553 0.46416 0.55014 1.21400
H 	H 	0.90730 0.45020 0.67440 0.28400
H 	H 	0.97220 0.51180 0.66560 0.28600
H 	H 	0.96640 0.47490 0.72140 0.25800
H 	H 	0.87290 0.40940 0.78210 0.23900
H 	H 	0.80790 0.39080 0.82770 0.24700
H 	H 	0.77900 0.38670 0.76790 0.24700
H 	H 	0.19520 0.38560 0.55620 0.27300
H 	H 	0.15280 0.31140 0.55350 0.26200
H 	H 	0.23200 0.32430 0.59090 0.23400
O 	O 	0.01400 0.37950 0.50100 -0.45000
O 	O 	0.89570 0.46080 0.56050 -0.45400
O 	O 	0.14040 0.48380 0.51370 -0.46200
O 	O 	0.02160 0.56600 0.57410 -0.46400
C 	C 	0.99370 0.38060 0.45190 0.29800
C 	C 	0.84280 0.48800 0.53050 0.29100
C 	C 	0.98890 0.31300 0.42310 0.15900
C 	C 	0.75080 0.49020 0.54820 0.19600
C 	C 	0.97620 0.31180 0.36990 -0.51500
C 	C 	0.69100 0.52960 0.52070 -0.62700
C 	C 	0.72710 0.45610 0.59420 -0.26000
C 	C 	0.61540 0.41610 0.65920 0.28000
H 	H 	0.97350 0.35400 0.35160 0.20000
C 	C 	0.60800 0.53630 0.54030 0.95700
H 	H 	0.70630 0.55160 0.48900 0.24100
C 	C 	0.64280 0.45770 0.61150 0.16600
H 	H 	0.76800 0.43170 0.61380 0.12000
C 	C 	0.58030 0.50120 0.58540 -0.61800
O 	O 	0.55200 0.58610 0.51620 0.89600
H 	H 	0.52440 0.50550 0.59820 0.23600
H 	H 	0.56450 0.59190 0.48470 -0.21100
H 	H 	0.56980 0.56540 0.52250 -1.04300
H 	H 	0.91550 0.23240 0.27870 -0.04900
Zn	Zn	0.45322 0.83783 0.27406 1.19200
N 	N 	0.43860 0.87010 0.19813 -0.31900
N 	N 	0.56610 0.78590 0.28090 -0.30000
O 	O 	0.33210 0.89710 0.30970 -0.41900
O 	O 	0.46140 0.90450 0.33300 -0.48500
N 	N 	0.37790 0.83450 0.16783 -0.32400
C 	C 	0.47110 0.91790 0.16690 0.33900
C 	C 	0.64600 0.80510 0.28980 0.28400
C 	C 	0.37800 0.86410 0.12060 0.30500
N 	N 	0.43660 0.91550 0.11740 -0.35400
C 	C 	0.53700 0.96800 0.18350 -0.92200
C 	C 	0.67400 0.87970 0.29210 -0.84200
C 	C 	0.31930 0.84460 0.07640 -0.87100
Zn	Zn	0.47447 0.96416 0.05014 1.21400
H 	H 	0.59270 0.95020 0.17440 0.28500
H 	H 	0.52780 0.01180 0.16560 0.28800
H 	H 	0.53360 0.97490 0.22140 0.25900
H 	H 	0.62710 0.90940 0.28210 0.23800
H 	H 	0.69210 0.89080 0.32770 0.24600
H 	H 	0.72100 0.88670 0.26790 0.24600
H 	H 	0.30480 0.88560 0.05620 0.27300
H 	H 	0.34720 0.81140 0.05350 0.26200
H 	H 	0.26800 0.82430 0.09090 0.23400
O 	O 	0.48600 0.87950 0.00100 -0.44900
O 	O 	0.60430 0.96080 0.06050 -0.45500
O 	O 	0.35960 0.98380 0.01370 -0.46100
O 	O 	0.47840 0.06600 0.07410 -0.46300
C 	C 	0.50630 0.88060 0.95190 0.29500
C 	C 	0.65720 0.98800 0.03050 0.29000
C 	C 	0.51110 0.81300 0.92310 0.16200
C 	C 	0.74920 0.99020 0.04820 0.19100
C 	C 	0.52380 0.81180 0.86990 -0.51800
C 	C 	0.80900 0.02960 0.02070 -0.62500
C 	C 	0.77290 0.95610 0.09420 -0.25600
C 	C 	0.88460 0.91610 0.15920 0.28200
H 	H 	0.52650 0.85400 0.85160 0.20000
C 	C 	0.89200 0.03630 0.04030 0.95800
H 	H 	0.79370 0.05160 0.98900 0.24200
C 	C 	0.85720 0.95770 0.11150 0.16000
H 	H 	0.73200 0.93170 0.11380 0.11800
C 	C 	0.91970 0.00120 0.08540 -0.61300
O 	O 	0.94800 0.08610 0.01620 0.90100
H 	H 	0.97560 0.00550 0.09820 0.23500
H 	H 	0.93550 0.09190 0.98470 -0.21100
H 	H 	0.93020 0.06540 0.02250 -1.04800
H 	H 	0.58450 0.73240 0.77870 -0.04900
Zn	Zn	0.04678 0.16217 0.77406 1.19100
N 	N 	0.06140 0.12990 0.69813 -0.31600
N 	N 	0.93390 0.21410 0.78090 -0.29900
O 	O 	0.16790 0.10290 0.80970 -0.42000
O 	O 	0.03860 0.09550 0.83300 -0.48800
N 	N 	0.12210 0.16550 0.66783 -0.32400
C 	C 	0.02890 0.08210 0.66690 0.32400
C 	C 	0.85400 0.19490 0.78980 0.28600
C 	C 	0.12200 0.13590 0.62060 0.30500
N 	N 	0.06340 0.08450 0.61740 -0.35200
C 	C 	0.96300 0.03200 0.68350 -0.88000
C 	C 	0.82600 0.12030 0.79210 -0.84600
C 	C 	0.18070 0.15540 0.57640 -0.87100
Zn	Zn	0.02553 0.03584 0.55014 1.21300
H 	H 	0.90730 0.04980 0.67440 0.27400
H 	H 	0.97220 0.98820 0.66560 0.27200
H 	H 	0.96640 0.02510 0.72140 0.24900
H 	H 	0.87290 0.09060 0.78210 0.24100
H 	H 	0.80790 0.10920 0.82770 0.24800
H 	H 	0.77900 0.11330 0.76790 0.24800
H 	H 	0.19520 0.11440 0.55620 0.27200
H 	H 	0.15280 0.18860 0.55350 0.26200
H 	H 	0.23200 0.17570 0.59090 0.23400
O 	O 	0.01400 0.12050 0.50100 -0.45200
O 	O 	0.89570 0.03920 0.56050 -0.45300
O 	O 	0.14040 0.01620 0.51370 -0.46500
O 	O 	0.02160 0.93400 0.57410 -0.46200
C 	C 	0.99370 0.11940 0.45190 0.30000
C 	C 	0.84280 0.01200 0.53050 0.29400
C 	C 	0.98890 0.18700 0.42310 0.15900
C 	C 	0.75080 0.00980 0.54820 0.19900
C 	C 	0.97620 0.18820 0.36990 -0.51500
C 	C 	0.69100 0.97040 0.52070 -0.63100
C 	C 	0.72710 0.04390 0.59420 -0.26200
C 	C 	0.61540 0.08390 0.65920 0.27900
H 	H 	0.97350 0.14600 0.35160 0.20000
C 	C 	0.60800 0.96370 0.54030 0.95800
H 	H 	0.70630 0.94840 0.48900 0.24200
C 	C 	0.64280 0.04230 0.61150 0.16900
H 	H 	0.76800 0.06830 0.61380 0.12100
C 	C 	0.58030 0.99880 0.58540 -0.62100
O 	O 	0.55200 0.91390 0.51620 0.89300
H 	H 	0.52440 0.99450 0.59820 0.23700
H 	H 	0.56450 0.90810 0.48470 -0.21000
H 	H 	0.56980 0.93460 0.52250 -1.04100
H 	H 	0.91550 0.26760 0.27870 -0.04900
Zn	Zn	0.54678 0.33783 0.72594 1.19200
N 	N 	0.56140 0.37010 0.80187 -0.31900
N 	N 	0.43390 0.28590 0.71910 -0.30000
O 	O 	0.66790 0.39710 0.69030 -0.41900
O 	O 	0.53860 0.40450 0.66700 -0.48500
N 	N 	0.62210 0.33450 0.83217 -0.32300
C 	C 	0.52890 0.41790 0.83310 0.33800
C 	C 	0.35400 0.30510 0.71020 0.28400
C 	C 	0.62200 0.36410 0.87940 0.30500
N 	N 	0.56340 0.41550 0.88260 -0.35400
C 	C 	0.46300 0.46800 0.81650 -0.92000
C 	C 	0.32600 0.37970 0.70790 -0.84300
C 	C 	0.68070 0.34460 0.92360 -0.87100
Zn	Zn	0.52553 0.46416 0.94986 1.21400
H 	H 	0.40730 0.45020 0.82560 0.28500
H 	H 	0.47220 0.51180 0.83440 0.28700
H 	H 	0.46640 0.47490 0.77860 0.25900
H 	H 	0.37290 0.40940 0.71790 0.23900
H 	H 	0.30790 0.39080 0.67230 0.24700
H 	H 	0.27900 0.38670 0.73210 0.24700
H 	H 	0.69520 0.38560 0.94380 0.27300
H 	H 	0.65280 0.31140 0.94650 0.26200
H 	H 	0.73200 0.32430 0.90910 0.23400
O 	O 	0.51400 0.37950 0.99900 -0.44900
O 	O 	0.39570 0.46080 0.93950 -0.45400
O 	O 	0.64040 0.48380 0.98630 -0.46100
O 	O 	0.52160 0.56600 0.92590 -0.46300
C 	C 	0.49370 0.38060 0.04810 0.29500
C 	C 	0.34280 0.48800 0.96950 0.28900
C 	C 	0.48890 0.31300 0.07690 0.16200
C 	C 	0.25080 0.49020 0.95180 0.19900
C 	C 	0.47620 0.31180 0.13010 -0.51800
C 	C 	0.19100 0.52960 0.97930 -0.63300
C 	C 	0.22710 0.45610 0.90580 -0.26200
C 	C 	0.11540 0.41610 0.84080 0.27900
H 	H 	0.47350 0.35400 0.14840 0.20000
C 	C 	0.10800 0.53630 0.95970 0.96100
H 	H 	0.20630 0.55160 0.01100 0.24400
C 	C 	0.14280 0.45770 0.88850 0.16700
H 	H 	0.26800 0.43170 0.88620 0.12000
C 	C 	0.08030 0.50120 0.91460 -0.62100
O 	O 	0.05200 0.58610 0.98380 0.89600
H 	H 	0.02440 0.50550 0.90180 0.23700
H 	H 	0.06450 0.59190 0.01530 -0.20900
H 	H 	0.06980 0.56540 0.97750 -1.04600
H 	H 	0.41550 0.23240 0.22130 -0.04900
Zn	Zn	0.95322 0.66217 0.22594 1.19100
N 	N 	0.93860 0.62990 0.30187 -0.31900
N 	N 	0.06610 0.71410 0.21910 -0.29900
O 	O 	0.83210 0.60290 0.19030 -0.41900
O 	O 	0.96140 0.59550 0.16700 -0.48600
N 	N 	0.87790 0.66550 0.33217 -0.32400
C 	C 	0.97110 0.58210 0.33310 0.33600
C 	C 	0.14600 0.69490 0.21020 0.28500
C 	C 	0.87800 0.63590 0.37940 0.30500
N 	N 	0.93660 0.58450 0.38260 -0.35300
C 	C 	0.03700 0.53200 0.31650 -0.91600
C 	C 	0.17400 0.62030 0.20790 -0.84400
C 	C 	0.81930 0.65540 0.42360 -0.87000
Zn	Zn	0.97447 0.53584 0.44986 1.21400
H 	H 	0.09270 0.54980 0.32560 0.28400
H 	H 	0.02780 0.48820 0.33440 0.28600
H 	H 	0.03360 0.52510 0.27860 0.25800
H 	H 	0.12710 0.59060 0.21790 0.23900
H 	H 	0.19210 0.60920 0.17230 0.24700
H 	H 	0.22100 0.61330 0.23210 0.24700
H 	H 	0.80480 0.61440 0.44380 0.27300
H 	H 	0.84720 0.68860 0.44650 0.26200
H 	H 	0.76800 0.67570 0.40910 0.23400
O 	O 	0.98600 0.62050 0.49900 -0.45000
O 	O 	0.10430 0.53920 0.43950 -0.45400
O 	O 	0.85960 0.51620 0.48630 -0.46200
O 	O 	0.97840 0.43400 0.42590 -0.46400
C 	C 	0.00630 0.61940 0.54810 0.29800
C 	C 	0.15720 0.51200 0.46950 0.29100
C 	C 	0.01110 0.68700 0.57690 0.15900
C 	C 	0.24920 0.50980 0.45180 0.19600
C 	C 	0.02380 0.68820 0.63010 -0.51500
C 	C 	0.30900 0.47040 0.47930 -0.62700
C 	C 	0.27290 0.54390 0.40580 -0.26000
C 	C 	0.38460 0.58390 0.34080 0.28000
H 	H 	0.02650 0.64600 0.64840 0.20000
C 	C 	0.39200 0.46370 0.45970 0.95700
H 	H 	0.29370 0.44840 0.51100 0.24100
C 	C 	0.35720 0.54230 0.38850 0.16600
H 	H 	0.23200 0.56830 0.38620 0.12000
C 	C 	0.41970 0.49880 0.41460 -0.61800
O 	O 	0.44800 0.41390 0.48380 0.89600
H 	H 	0.47560 0.49450 0.40180 0.23600
H 	H 	0.43550 0.40810 0.51530 -0.21100
H 	H 	0.43020 0.43460 0.47750 -1.04300
H 	H 	0.08450 0.76760 0.72130 -0.04900
O 	O 	0.61810 0.25000 0.73090 -0.94600
Zn	Zn	0.67700 0.25000 0.80116 1.17100
H 	H 	0.66250 0.25000 0.71140 0.27300
N 	N 	0.30260 0.25000 0.70480 -0.39700
C 	C 	0.49830 0.25000 0.05020 -0.22400
C 	C 	0.46700 0.25000 0.15850 0.75200
H 	H 	0.51110 0.25000 0.01400 0.11100
O 	O 	0.46120 0.25000 0.21220 0.68400
H 	H 	0.45520 0.25000 0.19490 -0.85800
O 	O 	0.88190 0.75000 0.23090 -0.94700
Zn	Zn	0.82300 0.75000 0.30116 1.17100
H 	H 	0.83750 0.75000 0.21140 0.27200
N 	N 	0.19740 0.75000 0.20480 -0.39800
C 	C 	0.00170 0.75000 0.55020 -0.21600
C 	C 	0.03300 0.75000 0.65850 0.75000
H 	H 	0.98890 0.75000 0.51400 0.10700
O 	O 	0.03880 0.75000 0.71220 0.68500
H 	H 	0.04480 0.75000 0.69490 -0.85800
O 	O 	0.38190 0.75000 0.26910 -0.94600
Zn	Zn	0.32300 0.75000 0.19884 1.17100
H 	H 	0.33750 0.75000 0.28860 0.27300
N 	N 	0.69740 0.75000 0.29520 -0.39700
C 	C 	0.50170 0.75000 0.94980 -0.22400
C 	C 	0.53300 0.75000 0.84150 0.75200
H 	H 	0.48890 0.75000 0.98600 0.11100
O 	O 	0.53880 0.75000 0.78780 0.68400
H 	H 	0.54480 0.75000 0.80510 -0.85800
O 	O 	0.11810 0.25000 0.76910 -0.94700
Zn	Zn	0.17700 0.25000 0.69884 1.17100
H 	H 	0.16250 0.25000 0.78860 0.27200
N 	N 	0.80260 0.25000 0.79520 -0.39800
C 	C 	0.99830 0.25000 0.44980 -0.21600
C 	C 	0.96700 0.25000 0.34150 0.75000
H 	H 	0.01110 0.25000 0.48600 0.10700
O 	O 	0.96120 0.25000 0.28780 0.68500
H 	H 	0.95520 0.25000 0.30510 -0.85800
