data_crystal

_cell_length_a 15.41150
_cell_length_b 19.18500
_cell_length_c 25.47100
_cell_angle_alpha 90.00000
_cell_angle_beta  90.00000
_cell_angle_gamma 90.00000

_symmetry_space_group_name_	'P 1'
_symmetry_space_group_name_H-M	'P 1'

loop_
_symmetry_equiv_pos_as_xyz
  x,y,z

loop_
_atom_site_label
_atom_site_type_symbol
_atom_site_fract_x
_atom_site_fract_y
_atom_site_fract_z
_atom_site_charge
Zn	Zn	0.93733 0.16212 0.23122 1.18800
Zn	Zn	0.97166 0.03581 0.45095 1.21200
N 	N 	0.92450 0.13090 0.30655 -0.31100
N 	N 	0.86500 0.16530 0.33750 -0.32100
N 	N 	0.92820 0.08480 0.38542 -0.35000
N 	N 	0.05050 0.21370 0.21981 -0.30600
H 	H 	0.02770 0.28880 0.72930 -0.09100
N 	N 	0.95530 0.91320 0.02700 0.58200
H 	H 	0.00640 0.91120 0.04050 -0.12700
H 	H 	0.94300 0.88830 0.99990 -0.09400
O 	O 	0.98610 0.12080 0.49941 -0.45500
O 	O 	0.02360 0.06570 0.57236 -0.46800
O 	O 	0.60180 0.03990 0.06167 -0.45300
O 	O 	0.64240 0.98340 0.98978 -0.46300
O 	O 	0.83420 0.11490 0.18610 -0.47000
O 	O 	0.95770 0.07760 0.18040 -0.46800
C 	C 	0.02810 0.03360 0.31850 -0.89100
H 	H 	0.08410 0.05470 0.32290 0.27700
H 	H 	0.01910 0.02290 0.28210 0.26600
H 	H 	0.02520 0.99150 0.33880 0.28300
C 	C 	0.96030 0.08240 0.33648 0.31900
C 	C 	0.86910 0.13580 0.38382 0.30600
C 	C 	0.81230 0.15720 0.42830 -0.87000
H 	H 	0.76250 0.18150 0.41490 0.23300
H 	H 	0.84400 0.18740 0.45140 0.26700
H 	H 	0.79370 0.11660 0.44720 0.27600
C 	C 	0.00690 0.11870 0.54710 0.32400
C 	C 	0.01000 0.18750 0.57600 0.13100
C 	C 	0.01940 0.18800 0.62970 -0.47600
H 	H 	0.02470 0.14610 0.64780 0.20100
C 	C 	0.88330 0.07960 0.16430 0.32400
C 	C 	0.85610 0.03730 0.11710 0.14800
C 	C 	0.91590 0.99510 0.09220 -0.54900
H 	H 	0.97260 0.99230 0.10450 0.23000
C 	C 	0.89100 0.95780 0.04960 0.80400
C 	C 	0.80680 0.96430 0.02980 -0.51300
H 	H 	0.79090 0.93880 0.00030 0.20500
C 	C 	0.74770 0.00710 0.05290 0.15400
C 	C 	0.77340 0.04250 0.09820 -0.21500
H 	H 	0.73340 0.07020 0.11590 0.10800
C 	C 	0.65670 0.01080 0.03290 0.30600
C 	C 	0.15940 0.12110 0.20490 -0.87500
H 	H 	0.11120 0.09050 0.21080 0.26400
H 	H 	0.20300 0.11300 0.23120 0.25300
H 	H 	0.18340 0.11230 0.17080 0.25800
C 	C 	0.12960 0.19460 0.20790 0.29600
H 	H 	0.93010 0.92770 0.03340 -0.75000
Zn	Zn	0.56267 0.83788 0.73122 1.19000
Zn	Zn	0.52834 0.96419 0.95095 1.21400
N 	N 	0.57550 0.86910 0.80655 -0.31300
N 	N 	0.63500 0.83470 0.83750 -0.32100
N 	N 	0.57180 0.91520 0.88542 -0.35200
N 	N 	0.44950 0.78630 0.71981 -0.30700
H 	H 	0.47230 0.71120 0.22930 -0.09000
N 	N 	0.54470 0.08680 0.52700 0.57300
H 	H 	0.49360 0.08880 0.54050 -0.12300
H 	H 	0.55700 0.11170 0.49990 -0.09400
O 	O 	0.51390 0.87920 0.99941 -0.45200
O 	O 	0.47640 0.93430 0.07236 -0.46900
O 	O 	0.89820 0.96010 0.56167 -0.45100
O 	O 	0.85760 0.01660 0.48978 -0.46800
O 	O 	0.66580 0.88510 0.68610 -0.46800
O 	O 	0.54230 0.92240 0.68040 -0.46400
C 	C 	0.47190 0.96640 0.81850 -0.92700
H 	H 	0.41590 0.94530 0.82290 0.28700
H 	H 	0.48090 0.97710 0.78210 0.27500
H 	H 	0.47480 0.00850 0.83880 0.29600
C 	C 	0.53970 0.91760 0.83648 0.33200
C 	C 	0.63090 0.86420 0.88382 0.30700
C 	C 	0.68770 0.84280 0.92830 -0.87200
H 	H 	0.73750 0.81850 0.91490 0.23400
H 	H 	0.65600 0.81260 0.95140 0.26800
H 	H 	0.70630 0.88340 0.94720 0.27700
C 	C 	0.49310 0.88130 0.04710 0.32000
C 	C 	0.49000 0.81250 0.07600 0.13400
C 	C 	0.48060 0.81200 0.12970 -0.47800
H 	H 	0.47530 0.85390 0.14780 0.20000
C 	C 	0.61670 0.92040 0.66430 0.32100
C 	C 	0.64390 0.96270 0.61710 0.15700
C 	C 	0.58410 0.00490 0.59220 -0.55700
H 	H 	0.52740 0.00770 0.60450 0.23200
C 	C 	0.60900 0.04220 0.54960 0.80400
C 	C 	0.69320 0.03570 0.52980 -0.52100
H 	H 	0.70910 0.06120 0.50030 0.20700
C 	C 	0.75230 0.99290 0.55290 0.16200
C 	C 	0.72660 0.95750 0.59820 -0.22100
H 	H 	0.76660 0.92980 0.61590 0.11100
C 	C 	0.84330 0.98920 0.53290 0.31000
C 	C 	0.34060 0.87890 0.70490 -0.87000
H 	H 	0.38880 0.90950 0.71080 0.26100
H 	H 	0.29700 0.88700 0.73120 0.25100
H 	H 	0.31660 0.88770 0.67080 0.25600
C 	C 	0.37040 0.80540 0.70790 0.29400
H 	H 	0.56990 0.07230 0.53340 -0.74200
Zn	Zn	0.06267 0.66212 0.76878 1.18900
Zn	Zn	0.02834 0.53581 0.54905 1.21400
N 	N 	0.07550 0.63090 0.69345 -0.31300
N 	N 	0.13500 0.66530 0.66250 -0.32100
N 	N 	0.07180 0.58480 0.61458 -0.35100
N 	N 	0.94950 0.71370 0.78019 -0.30600
H 	H 	0.97230 0.78880 0.27070 -0.09000
N 	N 	0.04470 0.41320 0.97300 0.57800
H 	H 	0.99360 0.41120 0.95950 -0.12300
H 	H 	0.05700 0.38830 0.00010 -0.09400
O 	O 	0.01390 0.62080 0.50059 -0.45300
O 	O 	0.97640 0.56570 0.42764 -0.46900
O 	O 	0.39820 0.53990 0.93833 -0.45300
O 	O 	0.35760 0.48340 0.01022 -0.46400
O 	O 	0.16580 0.61490 0.81390 -0.46900
O 	O 	0.04230 0.57760 0.81960 -0.46500
C 	C 	0.97190 0.53360 0.68150 -0.92200
H 	H 	0.91590 0.55470 0.67710 0.28600
H 	H 	0.98090 0.52290 0.71790 0.27400
H 	H 	0.97480 0.49150 0.66120 0.29500
C 	C 	0.03970 0.58240 0.66352 0.33000
C 	C 	0.13090 0.63580 0.61618 0.30600
C 	C 	0.18770 0.65720 0.57170 -0.87000
H 	H 	0.23750 0.68150 0.58510 0.23300
H 	H 	0.15600 0.68740 0.54860 0.26700
H 	H 	0.20630 0.61660 0.55280 0.27600
C 	C 	0.99310 0.61870 0.45290 0.32200
C 	C 	0.99000 0.68750 0.42400 0.13100
C 	C 	0.98060 0.68800 0.37030 -0.47600
H 	H 	0.97530 0.64610 0.35220 0.20000
C 	C 	0.11670 0.57960 0.83570 0.32100
C 	C 	0.14390 0.53730 0.88290 0.15700
C 	C 	0.08410 0.49510 0.90780 -0.55900
H 	H 	0.02740 0.49230 0.89550 0.23200
C 	C 	0.10900 0.45780 0.95040 0.81000
C 	C 	0.19320 0.46430 0.97020 -0.52100
H 	H 	0.20910 0.43880 0.99970 0.20700
C 	C 	0.25230 0.50710 0.94710 0.16100
C 	C 	0.22660 0.54250 0.90180 -0.22100
H 	H 	0.26660 0.57020 0.88410 0.11100
C 	C 	0.34330 0.51080 0.96710 0.30500
C 	C 	0.84060 0.62110 0.79510 -0.87200
H 	H 	0.88880 0.59050 0.78920 0.26200
H 	H 	0.79700 0.61300 0.76880 0.25200
H 	H 	0.81660 0.61230 0.82920 0.25700
C 	C 	0.87040 0.69460 0.79210 0.29500
H 	H 	0.06990 0.42770 0.96660 -0.75000
Zn	Zn	0.43733 0.33788 0.26878 1.19000
Zn	Zn	0.47166 0.46419 0.04905 1.21400
N 	N 	0.42450 0.36910 0.19345 -0.31300
N 	N 	0.36500 0.33470 0.16250 -0.32100
N 	N 	0.42820 0.41520 0.11458 -0.35200
N 	N 	0.55050 0.28630 0.28019 -0.30700
H 	H 	0.52770 0.21120 0.77070 -0.09000
N 	N 	0.45530 0.58680 0.47300 0.57600
H 	H 	0.50640 0.58880 0.45950 -0.12400
H 	H 	0.44300 0.61170 0.50010 -0.09500
O 	O 	0.48610 0.37920 0.00059 -0.45200
O 	O 	0.52360 0.43430 0.92764 -0.46900
O 	O 	0.10180 0.46010 0.43833 -0.45200
O 	O 	0.14240 0.51660 0.51022 -0.46500
O 	O 	0.33420 0.38510 0.31390 -0.46900
O 	O 	0.45770 0.42240 0.31960 -0.46500
C 	C 	0.52810 0.46640 0.18150 -0.92600
H 	H 	0.58410 0.44530 0.17710 0.28600
H 	H 	0.51910 0.47710 0.21790 0.27400
H 	H 	0.52520 0.50850 0.16120 0.29600
C 	C 	0.46030 0.41760 0.16352 0.33200
C 	C 	0.36910 0.36420 0.11618 0.30700
C 	C 	0.31230 0.34280 0.07170 -0.87100
H 	H 	0.26250 0.31850 0.08510 0.23400
H 	H 	0.34400 0.31260 0.04860 0.26800
H 	H 	0.29370 0.38340 0.05280 0.27700
C 	C 	0.50690 0.38130 0.95290 0.32000
C 	C 	0.51000 0.31250 0.92400 0.13400
C 	C 	0.51940 0.31200 0.87030 -0.47800
H 	H 	0.52470 0.35390 0.85220 0.20000
C 	C 	0.38330 0.42040 0.33570 0.32200
C 	C 	0.35610 0.46270 0.38290 0.15500
C 	C 	0.41590 0.50490 0.40780 -0.55400
H 	H 	0.47260 0.50770 0.39550 0.23100
C 	C 	0.39100 0.54220 0.45040 0.80400
C 	C 	0.30680 0.53570 0.47020 -0.51700
H 	H 	0.29090 0.56120 0.49970 0.20600
C 	C 	0.24770 0.49290 0.44710 0.15900
C 	C 	0.27340 0.45750 0.40180 -0.21900
H 	H 	0.23340 0.42980 0.38410 0.11000
C 	C 	0.15670 0.48920 0.46710 0.30700
C 	C 	0.65940 0.37890 0.29510 -0.87100
H 	H 	0.61120 0.40950 0.28920 0.26100
H 	H 	0.70300 0.38700 0.26880 0.25100
H 	H 	0.68340 0.38770 0.32920 0.25600
C 	C 	0.62960 0.30540 0.29210 0.29500
H 	H 	0.43010 0.57230 0.46660 -0.74400
Zn	Zn	0.06267 0.83788 0.76878 1.18900
Zn	Zn	0.02834 0.96419 0.54905 1.21300
N 	N 	0.07550 0.86910 0.69345 -0.31100
N 	N 	0.13500 0.83470 0.66250 -0.32100
N 	N 	0.07180 0.91520 0.61458 -0.35000
N 	N 	0.94950 0.78630 0.78019 -0.30600
H 	H 	0.97230 0.71120 0.27070 -0.09100
N 	N 	0.04470 0.08680 0.97300 0.58200
H 	H 	0.99360 0.08880 0.95950 -0.12700
H 	H 	0.05700 0.11170 0.00010 -0.09400
O 	O 	0.01390 0.87920 0.50059 -0.45500
O 	O 	0.97640 0.93430 0.42764 -0.46800
O 	O 	0.39820 0.96010 0.93833 -0.45300
O 	O 	0.35760 0.01660 0.01022 -0.46300
O 	O 	0.16580 0.88510 0.81390 -0.47000
O 	O 	0.04230 0.92240 0.81960 -0.46800
C 	C 	0.97190 0.96640 0.68150 -0.89100
H 	H 	0.91590 0.94530 0.67710 0.27700
H 	H 	0.98090 0.97710 0.71790 0.26600
H 	H 	0.97480 0.00850 0.66120 0.28300
C 	C 	0.03970 0.91760 0.66352 0.31900
C 	C 	0.13090 0.86420 0.61618 0.30600
C 	C 	0.18770 0.84280 0.57170 -0.87000
H 	H 	0.23750 0.81850 0.58510 0.23300
H 	H 	0.15600 0.81260 0.54860 0.26700
H 	H 	0.20630 0.88340 0.55280 0.27600
C 	C 	0.99310 0.88130 0.45290 0.32400
C 	C 	0.99000 0.81250 0.42400 0.13100
C 	C 	0.98060 0.81200 0.37030 -0.47600
H 	H 	0.97530 0.85390 0.35220 0.20100
C 	C 	0.11670 0.92040 0.83570 0.32400
C 	C 	0.14390 0.96270 0.88290 0.14800
C 	C 	0.08410 0.00490 0.90780 -0.54900
H 	H 	0.02740 0.00770 0.89550 0.23000
C 	C 	0.10900 0.04220 0.95040 0.80400
C 	C 	0.19320 0.03570 0.97020 -0.51300
H 	H 	0.20910 0.06120 0.99970 0.20500
C 	C 	0.25230 0.99290 0.94710 0.15400
C 	C 	0.22660 0.95750 0.90180 -0.21500
H 	H 	0.26660 0.92980 0.88410 0.10800
C 	C 	0.34330 0.98920 0.96710 0.30600
C 	C 	0.84060 0.87890 0.79510 -0.87500
H 	H 	0.88880 0.90950 0.78920 0.26400
H 	H 	0.79700 0.88700 0.76880 0.25300
H 	H 	0.81660 0.88770 0.82920 0.25800
C 	C 	0.87040 0.80540 0.79210 0.29600
H 	H 	0.06990 0.07230 0.96660 -0.75000
Zn	Zn	0.43733 0.16212 0.26878 1.19000
Zn	Zn	0.47166 0.03581 0.04905 1.21400
N 	N 	0.42450 0.13090 0.19345 -0.31300
N 	N 	0.36500 0.16530 0.16250 -0.32100
N 	N 	0.42820 0.08480 0.11458 -0.35200
N 	N 	0.55050 0.21370 0.28019 -0.30700
H 	H 	0.52770 0.28880 0.77070 -0.09000
N 	N 	0.45530 0.91320 0.47300 0.57300
H 	H 	0.50640 0.91120 0.45950 -0.12300
H 	H 	0.44300 0.88830 0.50010 -0.09400
O 	O 	0.48610 0.12080 0.00059 -0.45200
O 	O 	0.52360 0.06570 0.92764 -0.46900
O 	O 	0.10180 0.03990 0.43833 -0.45100
O 	O 	0.14240 0.98340 0.51022 -0.46800
O 	O 	0.33420 0.11490 0.31390 -0.46800
O 	O 	0.45770 0.07760 0.31960 -0.46400
C 	C 	0.52810 0.03360 0.18150 -0.92700
H 	H 	0.58410 0.05470 0.17710 0.28700
H 	H 	0.51910 0.02290 0.21790 0.27500
H 	H 	0.52520 0.99150 0.16120 0.29600
C 	C 	0.46030 0.08240 0.16352 0.33200
C 	C 	0.36910 0.13580 0.11618 0.30700
C 	C 	0.31230 0.15720 0.07170 -0.87200
H 	H 	0.26250 0.18150 0.08510 0.23400
H 	H 	0.34400 0.18740 0.04860 0.26800
H 	H 	0.29370 0.11660 0.05280 0.27700
C 	C 	0.50690 0.11870 0.95290 0.32000
C 	C 	0.51000 0.18750 0.92400 0.13400
C 	C 	0.51940 0.18800 0.87030 -0.47800
H 	H 	0.52470 0.14610 0.85220 0.20000
C 	C 	0.38330 0.07960 0.33570 0.32100
C 	C 	0.35610 0.03730 0.38290 0.15700
C 	C 	0.41590 0.99510 0.40780 -0.55700
H 	H 	0.47260 0.99230 0.39550 0.23200
C 	C 	0.39100 0.95780 0.45040 0.80400
C 	C 	0.30680 0.96430 0.47020 -0.52100
H 	H 	0.29090 0.93880 0.49970 0.20700
C 	C 	0.24770 0.00710 0.44710 0.16200
C 	C 	0.27340 0.04250 0.40180 -0.22100
H 	H 	0.23340 0.07020 0.38410 0.11100
C 	C 	0.15670 0.01080 0.46710 0.31000
C 	C 	0.65940 0.12110 0.29510 -0.87000
H 	H 	0.61120 0.09050 0.28920 0.26100
H 	H 	0.70300 0.11300 0.26880 0.25100
H 	H 	0.68340 0.11230 0.32920 0.25600
C 	C 	0.62960 0.19460 0.29210 0.29400
H 	H 	0.43010 0.92770 0.46660 -0.74200
Zn	Zn	0.93733 0.33788 0.23122 1.18900
Zn	Zn	0.97166 0.46419 0.45095 1.21400
N 	N 	0.92450 0.36910 0.30655 -0.31300
N 	N 	0.86500 0.33470 0.33750 -0.32100
N 	N 	0.92820 0.41520 0.38542 -0.35100
N 	N 	0.05050 0.28630 0.21981 -0.30600
H 	H 	0.02770 0.21120 0.72930 -0.09000
N 	N 	0.95530 0.58680 0.02700 0.57800
H 	H 	0.00640 0.58880 0.04050 -0.12300
H 	H 	0.94300 0.61170 0.99990 -0.09400
O 	O 	0.98610 0.37920 0.49941 -0.45300
O 	O 	0.02360 0.43430 0.57236 -0.46900
O 	O 	0.60180 0.46010 0.06167 -0.45300
O 	O 	0.64240 0.51660 0.98978 -0.46400
O 	O 	0.83420 0.38510 0.18610 -0.46900
O 	O 	0.95770 0.42240 0.18040 -0.46500
C 	C 	0.02810 0.46640 0.31850 -0.92200
H 	H 	0.08410 0.44530 0.32290 0.28600
H 	H 	0.01910 0.47710 0.28210 0.27400
H 	H 	0.02520 0.50850 0.33880 0.29500
C 	C 	0.96030 0.41760 0.33648 0.33000
C 	C 	0.86910 0.36420 0.38382 0.30600
C 	C 	0.81230 0.34280 0.42830 -0.87000
H 	H 	0.76250 0.31850 0.41490 0.23300
H 	H 	0.84400 0.31260 0.45140 0.26700
H 	H 	0.79370 0.38340 0.44720 0.27600
C 	C 	0.00690 0.38130 0.54710 0.32200
C 	C 	0.01000 0.31250 0.57600 0.13100
C 	C 	0.01940 0.31200 0.62970 -0.47600
H 	H 	0.02470 0.35390 0.64780 0.20000
C 	C 	0.88330 0.42040 0.16430 0.32100
C 	C 	0.85610 0.46270 0.11710 0.15700
C 	C 	0.91590 0.50490 0.09220 -0.55900
H 	H 	0.97260 0.50770 0.10450 0.23200
C 	C 	0.89100 0.54220 0.04960 0.81000
C 	C 	0.80680 0.53570 0.02980 -0.52100
H 	H 	0.79090 0.56120 0.00030 0.20700
C 	C 	0.74770 0.49290 0.05290 0.16100
C 	C 	0.77340 0.45750 0.09820 -0.22100
H 	H 	0.73340 0.42980 0.11590 0.11100
C 	C 	0.65670 0.48920 0.03290 0.30500
C 	C 	0.15940 0.37890 0.20490 -0.87200
H 	H 	0.11120 0.40950 0.21080 0.26200
H 	H 	0.20300 0.38700 0.23120 0.25200
H 	H 	0.18340 0.38770 0.17080 0.25700
C 	C 	0.12960 0.30540 0.20790 0.29500
H 	H 	0.93010 0.57230 0.03340 -0.75000
Zn	Zn	0.56267 0.66212 0.73122 1.19000
Zn	Zn	0.52834 0.53581 0.95095 1.21400
N 	N 	0.57550 0.63090 0.80655 -0.31300
N 	N 	0.63500 0.66530 0.83750 -0.32100
N 	N 	0.57180 0.58480 0.88542 -0.35200
N 	N 	0.44950 0.71370 0.71981 -0.30700
H 	H 	0.47230 0.78880 0.22930 -0.09000
N 	N 	0.54470 0.41320 0.52700 0.57600
H 	H 	0.49360 0.41120 0.54050 -0.12400
H 	H 	0.55700 0.38830 0.49990 -0.09500
O 	O 	0.51390 0.62080 0.99941 -0.45200
O 	O 	0.47640 0.56570 0.07236 -0.46900
O 	O 	0.89820 0.53990 0.56167 -0.45200
O 	O 	0.85760 0.48340 0.48978 -0.46500
O 	O 	0.66580 0.61490 0.68610 -0.46900
O 	O 	0.54230 0.57760 0.68040 -0.46500
C 	C 	0.47190 0.53360 0.81850 -0.92600
H 	H 	0.41590 0.55470 0.82290 0.28600
H 	H 	0.48090 0.52290 0.78210 0.27400
H 	H 	0.47480 0.49150 0.83880 0.29600
C 	C 	0.53970 0.58240 0.83648 0.33200
C 	C 	0.63090 0.63580 0.88382 0.30700
C 	C 	0.68770 0.65720 0.92830 -0.87100
H 	H 	0.73750 0.68150 0.91490 0.23400
H 	H 	0.65600 0.68740 0.95140 0.26800
H 	H 	0.70630 0.61660 0.94720 0.27700
C 	C 	0.49310 0.61870 0.04710 0.32000
C 	C 	0.49000 0.68750 0.07600 0.13400
C 	C 	0.48060 0.68800 0.12970 -0.47800
H 	H 	0.47530 0.64610 0.14780 0.20000
C 	C 	0.61670 0.57960 0.66430 0.32200
C 	C 	0.64390 0.53730 0.61710 0.15500
C 	C 	0.58410 0.49510 0.59220 -0.55400
H 	H 	0.52740 0.49230 0.60450 0.23100
C 	C 	0.60900 0.45780 0.54960 0.80400
C 	C 	0.69320 0.46430 0.52980 -0.51700
H 	H 	0.70910 0.43880 0.50030 0.20600
C 	C 	0.75230 0.50710 0.55290 0.15900
C 	C 	0.72660 0.54250 0.59820 -0.21900
H 	H 	0.76660 0.57020 0.61590 0.11000
C 	C 	0.84330 0.51080 0.53290 0.30700
C 	C 	0.34060 0.62110 0.70490 -0.87100
H 	H 	0.38880 0.59050 0.71080 0.26100
H 	H 	0.29700 0.61300 0.73120 0.25100
H 	H 	0.31660 0.61230 0.67080 0.25600
C 	C 	0.37040 0.69460 0.70790 0.29500
H 	H 	0.56990 0.42770 0.53340 -0.74400
Zn	Zn	0.80809 0.25000 0.30813 1.17300
N 	N 	0.18210 0.25000 0.19970 -0.39600
N 	N 	0.02600 0.25000 0.71240 0.50900
O 	O 	0.86480 0.25000 0.23850 -0.89800
H 	H 	0.82400 0.25000 0.21370 0.23900
C 	C 	0.02100 0.25000 0.65690 0.71400
C 	C 	0.00200 0.25000 0.54890 -0.18700
H 	H 	0.99130 0.25000 0.51300 0.10000
H 	H 	0.02310 0.25000 0.69340 -0.67000
Zn	Zn	0.69191 0.75000 0.80813 1.17300
N 	N 	0.31790 0.75000 0.69970 -0.39500
N 	N 	0.47400 0.75000 0.21240 0.50800
O 	O 	0.63520 0.75000 0.73850 -0.89700
H 	H 	0.67600 0.75000 0.71370 0.23900
C 	C 	0.47900 0.75000 0.15690 0.71400
C 	C 	0.49800 0.75000 0.04890 -0.19300
H 	H 	0.50870 0.75000 0.01300 0.10300
H 	H 	0.47690 0.75000 0.19340 -0.66900
Zn	Zn	0.19191 0.75000 0.69187 1.17300
N 	N 	0.81790 0.75000 0.80030 -0.39600
N 	N 	0.97400 0.75000 0.28760 0.50900
O 	O 	0.13520 0.75000 0.76150 -0.89800
H 	H 	0.17600 0.75000 0.78630 0.23900
C 	C 	0.97900 0.75000 0.34310 0.71400
C 	C 	0.99800 0.75000 0.45110 -0.18700
H 	H 	0.00870 0.75000 0.48700 0.10000
H 	H 	0.97690 0.75000 0.30660 -0.67000
Zn	Zn	0.30809 0.25000 0.19187 1.17300
N 	N 	0.68210 0.25000 0.30030 -0.39500
N 	N 	0.52600 0.25000 0.78760 0.50800
O 	O 	0.36480 0.25000 0.26150 -0.89700
H 	H 	0.32400 0.25000 0.28630 0.23900
C 	C 	0.52100 0.25000 0.84310 0.71400
C 	C 	0.50200 0.25000 0.95110 -0.19300
H 	H 	0.49130 0.25000 0.98700 0.10300
H 	H 	0.52310 0.25000 0.80660 -0.66900
