data_crystal

_cell_length_a 15.47750
_cell_length_b 19.13130
_cell_length_c 25.54400
_cell_angle_alpha 90.00000
_cell_angle_beta  90.00000
_cell_angle_gamma 90.00000

_symmetry_space_group_name_	'P 1'
_symmetry_space_group_name_H-M	'P 1'

loop_
_symmetry_equiv_pos_as_xyz
  x,y,z

loop_
_atom_site_label
_atom_site_type_symbol
_atom_site_fract_x
_atom_site_fract_y
_atom_site_fract_z
_atom_site_charge
Zn	Zn	0.44326 0.66128 0.51702 1.19200
Zn	Zn	0.43403 0.83707 0.51801 1.18700
Zn	Zn	0.30836 0.74104 0.44199 1.17100
Zn	Zn	0.04100 0.03939 0.79745 1.21400
Zn	Zn	0.98234 0.96935 0.70018 1.21300
O 	O 	0.55540 0.10580 0.92030 -0.48400
O 	O 	0.68900 0.08810 0.94790 -0.37500
O 	O 	0.91190 0.03690 0.81230 -0.47300
O 	O 	0.86990 0.00450 0.73220 -0.47300
O 	O 	0.34990 0.87240 0.57290 -0.47300
O 	O 	0.45920 0.94010 0.55680 -0.43300
O 	O 	0.11320 0.95400 0.69080 -0.46000
O 	O 	0.15150 0.02880 0.75400 -0.47600
O 	O 	0.01650 0.12560 0.75070 -0.46000
O 	O 	0.00580 0.06950 0.67450 -0.47400
O 	O 	0.01980 0.38680 0.74880 -0.47000
O 	O 	0.95490 0.43700 0.67980 -0.46700
N 	N 	0.55290 0.71790 0.52810 -0.29700
N 	N 	0.55040 0.79000 0.52830 -0.30400
N 	N 	0.68220 0.75680 0.54930 -0.39200
N 	N 	0.41690 0.86590 0.44270 -0.31100
N 	N 	0.36100 0.82750 0.41170 -0.31700
N 	N 	0.41770 0.91080 0.36310 -0.34500
N 	N 	0.43150 0.62680 0.44280 -0.31500
N 	N 	0.36650 0.65650 0.41290 -0.32100
N 	N 	0.43580 0.57930 0.36480 -0.34400
C 	C 	0.66340 0.62680 0.54410 -0.81800
H 	H 	0.61490 0.59570 0.54080 0.23000
H 	H 	0.69100 0.61930 0.57720 0.23900
H 	H 	0.70380 0.61790 0.51640 0.22800
C 	C 	0.63290 0.70040 0.54080 0.27500
C 	C 	0.62910 0.81180 0.54080 0.30000
C 	C 	0.65740 0.88570 0.54360 -0.91000
H 	H 	0.68530 0.89850 0.51140 0.28000
H 	H 	0.69710 0.89140 0.57210 0.26000
H 	H 	0.60800 0.91520 0.54910 0.27900
C 	C 	0.51390 0.96780 0.43030 -0.90700
H 	H 	0.52950 0.95790 0.46590 0.26900
H 	H 	0.48910 0.01370 0.42820 0.29200
H 	H 	0.56450 0.96570 0.40870 0.29600
C 	C 	0.44930 0.91490 0.41170 0.32000
C 	C 	0.36330 0.85630 0.36460 0.29100
C 	C 	0.30910 0.83190 0.31960 -0.84800
H 	H 	0.27280 0.79410 0.33090 0.22200
H 	H 	0.34590 0.81610 0.29180 0.27200
H 	H 	0.27380 0.86980 0.30740 0.26900
C 	C 	0.54570 0.53770 0.43040 -0.89700
H 	H 	0.59860 0.56140 0.42200 0.28000
H 	H 	0.54410 0.49350 0.41260 0.28900
H 	H 	0.54250 0.53020 0.46750 0.25400
C 	C 	0.47150 0.58100 0.41340 0.31900
C 	C 	0.37130 0.62610 0.36650 0.30700
C 	C 	0.31110 0.64070 0.32260 -0.87500
H 	H 	0.27350 0.67860 0.33200 0.23100
H 	H 	0.27740 0.59980 0.31530 0.27700
H 	H 	0.34370 0.65330 0.29200 0.28000
C 	C 	0.63450 0.08590 0.91310 0.29900
C 	C 	0.65600 0.06250 0.85820 -0.04700
C 	C 	0.74310 0.05350 0.84490 -0.01200
H 	H 	0.78640 0.06020 0.86960 0.04000
C 	C 	0.76340 0.03420 0.79380 -0.06600
C 	C 	0.85560 0.02490 0.77830 0.37500
C 	C 	0.69820 0.02500 0.75750 -0.09800
H 	H 	0.71250 0.01230 0.72340 0.06100
C 	C 	0.61330 0.03420 0.77030 0.12200
C 	C 	0.59250 0.05310 0.82130 -0.10800
H 	H 	0.53500 0.05950 0.83050 0.07100
C 	C 	0.39100 0.92770 0.58170 0.30600
C 	C 	0.35680 0.97710 0.62130 -0.06000
C 	C 	0.27930 0.96250 0.64750 -0.01000
H 	H 	0.24870 0.92190 0.63990 0.04500
C 	C 	0.24850 0.00910 0.68470 -0.06800
C 	C 	0.16410 0.99560 0.71220 0.37400
C 	C 	0.29440 0.07080 0.69570 -0.09700
H 	H 	0.27320 0.10190 0.72060 0.05700
C 	C 	0.37110 0.08580 0.66970 0.12000
C 	C 	0.40210 0.03860 0.63190 -0.10700
H 	H 	0.45290 0.04830 0.61390 0.06600
C 	C 	0.00900 0.12410 0.70130 0.37700
C 	C 	0.00500 0.19190 0.67330 -0.08400
C 	C 	0.00380 0.25510 0.70090 0.00900
H 	H 	0.01030 0.25530 0.73710 0.03700
C 	C 	0.99290 0.31760 0.67390 -0.07400
C 	C 	0.98880 0.38580 0.70290 0.36900
C 	C 	0.98590 0.31790 0.61950 -0.08000
H 	H 	0.97650 0.35960 0.60180 0.05500
C 	C 	0.99310 0.25530 0.59180 0.10400
C 	C 	0.99940 0.19190 0.61870 -0.07600
H 	H 	0.99990 0.14990 0.60030 0.05800
N 	N 	0.54810 0.02280 0.73290 -0.30900
H 	H 	0.56160 0.01000 0.70170 0.13800
H 	H 	0.49470 0.02860 0.74130 0.14300
N 	N 	0.41480 0.14630 0.68130 -0.30900
H 	H 	0.39470 0.17450 0.70450 0.13300
H 	H 	0.46230 0.15590 0.66540 0.13700
N 	N 	0.98790 0.25630 0.53660 -0.30000
H 	H 	0.98860 0.21770 0.51930 0.13400
H 	H 	0.98400 0.29550 0.52020 0.13400
O 	O 	0.36640 0.74430 0.51107 -0.93700
H 	H 	0.32600 0.75410 0.53250 0.27200
Zn	Zn	0.05674 0.33872 0.01702 1.19100
Zn	Zn	0.06597 0.16293 0.01801 1.18600
Zn	Zn	0.19164 0.25896 0.94199 1.17000
Zn	Zn	0.45900 0.96061 0.29745 1.21400
Zn	Zn	0.51766 0.03065 0.20018 1.21300
O 	O 	0.94460 0.89420 0.42030 -0.48600
O 	O 	0.81100 0.91190 0.44790 -0.37700
O 	O 	0.58810 0.96310 0.31230 -0.47400
O 	O 	0.63010 0.99550 0.23220 -0.47600
O 	O 	0.15010 0.12760 0.07290 -0.47400
O 	O 	0.04080 0.05990 0.05680 -0.43400
O 	O 	0.38680 0.04600 0.19080 -0.46100
O 	O 	0.34850 0.97120 0.25400 -0.47300
O 	O 	0.48350 0.87440 0.25070 -0.45900
O 	O 	0.49420 0.93050 0.17450 -0.47300
O 	O 	0.48020 0.61320 0.24880 -0.47000
O 	O 	0.54510 0.56300 0.17980 -0.46700
N 	N 	0.94710 0.28210 0.02810 -0.29700
N 	N 	0.94960 0.21000 0.02830 -0.30300
N 	N 	0.81780 0.24320 0.04930 -0.39300
N 	N 	0.08310 0.13410 0.94270 -0.31000
N 	N 	0.13900 0.17250 0.91170 -0.31700
N 	N 	0.08230 0.08920 0.86310 -0.34500
N 	N 	0.06850 0.37320 0.94280 -0.31500
N 	N 	0.13350 0.34350 0.91290 -0.32100
N 	N 	0.06420 0.42070 0.86480 -0.34400
C 	C 	0.83660 0.37320 0.04410 -0.81800
H 	H 	0.88510 0.40430 0.04080 0.23000
H 	H 	0.80900 0.38070 0.07720 0.24000
H 	H 	0.79620 0.38210 0.01640 0.22800
C 	C 	0.86710 0.29960 0.04080 0.27500
C 	C 	0.87090 0.18820 0.04080 0.30100
C 	C 	0.84260 0.11430 0.04360 -0.91200
H 	H 	0.81470 0.10150 0.01140 0.28100
H 	H 	0.80290 0.10860 0.07210 0.26100
H 	H 	0.89200 0.08480 0.04910 0.28000
C 	C 	0.98610 0.03220 0.93030 -0.89400
H 	H 	0.97050 0.04210 0.96590 0.26700
H 	H 	0.01090 0.98630 0.92820 0.28800
H 	H 	0.93550 0.03430 0.90870 0.29300
C 	C 	0.05070 0.08510 0.91170 0.31500
C 	C 	0.13670 0.14370 0.86460 0.29100
C 	C 	0.19090 0.16810 0.81960 -0.84800
H 	H 	0.22720 0.20590 0.83090 0.22200
H 	H 	0.15410 0.18390 0.79180 0.27200
H 	H 	0.22620 0.13020 0.80740 0.26900
C 	C 	0.95430 0.46230 0.93040 -0.89600
H 	H 	0.90140 0.43860 0.92200 0.27900
H 	H 	0.95590 0.50650 0.91260 0.28900
H 	H 	0.95750 0.46980 0.96750 0.25400
C 	C 	0.02850 0.41900 0.91340 0.31800
C 	C 	0.12870 0.37390 0.86650 0.30700
C 	C 	0.18890 0.35930 0.82260 -0.87500
H 	H 	0.22650 0.32140 0.83200 0.23100
H 	H 	0.22260 0.40020 0.81530 0.27700
H 	H 	0.15630 0.34670 0.79200 0.28000
C 	C 	0.86550 0.91410 0.41310 0.29900
C 	C 	0.84400 0.93750 0.35820 -0.04800
C 	C 	0.75690 0.94650 0.34490 -0.01200
H 	H 	0.71360 0.93980 0.36960 0.03900
C 	C 	0.73660 0.96580 0.29380 -0.06700
C 	C 	0.64440 0.97510 0.27830 0.37500
C 	C 	0.80180 0.97500 0.25750 -0.09800
H 	H 	0.78750 0.98770 0.22340 0.06000
C 	C 	0.88670 0.96580 0.27030 0.12100
C 	C 	0.90750 0.94690 0.32130 -0.10800
H 	H 	0.96500 0.94050 0.33050 0.07000
C 	C 	0.10900 0.07230 0.08170 0.30700
C 	C 	0.14320 0.02290 0.12130 -0.06100
C 	C 	0.22070 0.03750 0.14750 -0.01600
H 	H 	0.25130 0.07810 0.13990 0.04600
C 	C 	0.25150 0.99090 0.18470 -0.06000
C 	C 	0.33590 0.00440 0.21220 0.36600
C 	C 	0.20560 0.92920 0.19570 -0.10000
H 	H 	0.22680 0.89810 0.22060 0.05900
C 	C 	0.12890 0.91420 0.16970 0.12100
C 	C 	0.09790 0.96140 0.13190 -0.10400
H 	H 	0.04710 0.95170 0.11390 0.06600
C 	C 	0.49100 0.87590 0.20130 0.37600
C 	C 	0.49500 0.80810 0.17330 -0.08200
C 	C 	0.49620 0.74490 0.20090 0.01000
H 	H 	0.48970 0.74470 0.23710 0.03700
C 	C 	0.50710 0.68240 0.17390 -0.07500
C 	C 	0.51120 0.61420 0.20290 0.36900
C 	C 	0.51410 0.68210 0.11950 -0.08000
H 	H 	0.52350 0.64040 0.10180 0.05500
C 	C 	0.50690 0.74470 0.09180 0.10400
C 	C 	0.50060 0.80810 0.11870 -0.07800
H 	H 	0.50010 0.85010 0.10030 0.05800
N 	N 	0.95190 0.97720 0.23290 -0.31200
H 	H 	0.93840 0.99000 0.20170 0.13700
H 	H 	0.00530 0.97140 0.24130 0.14700
N 	N 	0.08520 0.85370 0.18130 -0.30900
H 	H 	0.10530 0.82550 0.20450 0.13300
H 	H 	0.03770 0.84410 0.16540 0.13800
N 	N 	0.51210 0.74370 0.03660 -0.30000
H 	H 	0.51140 0.78230 0.01930 0.13400
H 	H 	0.51600 0.70450 0.02020 0.13400
O 	O 	0.13360 0.25570 0.01107 -0.93700
H 	H 	0.17400 0.24590 0.03250 0.27200
Zn	Zn	0.55674 0.16128 0.98298 1.19200
Zn	Zn	0.56597 0.33707 0.98199 1.18600
Zn	Zn	0.69164 0.24104 0.05801 1.17000
Zn	Zn	0.95900 0.53939 0.70255 1.21400
Zn	Zn	0.01766 0.46935 0.79982 1.21300
O 	O 	0.44460 0.60580 0.57970 -0.48500
O 	O 	0.31100 0.58810 0.55210 -0.37700
O 	O 	0.08810 0.53690 0.68770 -0.47400
O 	O 	0.13010 0.50450 0.76780 -0.47500
O 	O 	0.65010 0.37240 0.92710 -0.47300
O 	O 	0.54080 0.44010 0.94320 -0.43300
O 	O 	0.88680 0.45400 0.80920 -0.46100
O 	O 	0.84850 0.52880 0.74600 -0.47500
O 	O 	0.98350 0.62560 0.74930 -0.45900
O 	O 	0.99420 0.56950 0.82550 -0.47300
O 	O 	0.98020 0.88680 0.75120 -0.47300
O 	O 	0.04510 0.93700 0.82020 -0.46700
N 	N 	0.44710 0.21790 0.97190 -0.29700
N 	N 	0.44960 0.29000 0.97170 -0.30400
N 	N 	0.31780 0.25680 0.95070 -0.39300
N 	N 	0.58310 0.36590 0.05730 -0.31100
N 	N 	0.63900 0.32750 0.08830 -0.31700
N 	N 	0.58230 0.41080 0.13690 -0.34500
N 	N 	0.56850 0.12680 0.05720 -0.31500
N 	N 	0.63350 0.15650 0.08710 -0.32100
N 	N 	0.56420 0.07930 0.13520 -0.34400
C 	C 	0.33660 0.12680 0.95590 -0.81800
H 	H 	0.38510 0.09570 0.95920 0.23000
H 	H 	0.30900 0.11930 0.92280 0.24000
H 	H 	0.29620 0.11790 0.98360 0.22800
C 	C 	0.36710 0.20040 0.95920 0.27500
C 	C 	0.37090 0.31180 0.95920 0.30100
C 	C 	0.34260 0.38570 0.95640 -0.91100
H 	H 	0.31470 0.39850 0.98860 0.28000
H 	H 	0.30290 0.39140 0.92790 0.26100
H 	H 	0.39200 0.41520 0.95090 0.27900
C 	C 	0.48610 0.46780 0.06970 -0.90600
H 	H 	0.47050 0.45790 0.03410 0.26900
H 	H 	0.51090 0.51370 0.07180 0.29100
H 	H 	0.43550 0.46570 0.09130 0.29600
C 	C 	0.55070 0.41490 0.08830 0.32000
C 	C 	0.63670 0.35630 0.13540 0.29100
C 	C 	0.69090 0.33190 0.18040 -0.84800
H 	H 	0.72720 0.29410 0.16910 0.22200
H 	H 	0.65410 0.31610 0.20820 0.27200
H 	H 	0.72620 0.36980 0.19260 0.26900
C 	C 	0.45430 0.03770 0.06960 -0.90000
H 	H 	0.40140 0.06140 0.07800 0.28000
H 	H 	0.45590 0.99350 0.08740 0.29100
H 	H 	0.45750 0.03020 0.03250 0.25500
C 	C 	0.52850 0.08100 0.08660 0.31900
C 	C 	0.62870 0.12610 0.13350 0.30700
C 	C 	0.68890 0.14070 0.17740 -0.87600
H 	H 	0.72650 0.17860 0.16800 0.23200
H 	H 	0.72260 0.09980 0.18470 0.27800
H 	H 	0.65630 0.15330 0.20800 0.28100
C 	C 	0.36550 0.58590 0.58690 0.29900
C 	C 	0.34400 0.56250 0.64180 -0.04800
C 	C 	0.25690 0.55350 0.65510 -0.01200
H 	H 	0.21360 0.56020 0.63040 0.03900
C 	C 	0.23660 0.53420 0.70620 -0.06700
C 	C 	0.14440 0.52490 0.72170 0.37500
C 	C 	0.30180 0.52500 0.74250 -0.09800
H 	H 	0.28750 0.51230 0.77660 0.06000
C 	C 	0.38670 0.53420 0.72970 0.12100
C 	C 	0.40750 0.55310 0.67870 -0.10800
H 	H 	0.46500 0.55950 0.66950 0.07100
C 	C 	0.60900 0.42770 0.91830 0.30600
C 	C 	0.64320 0.47710 0.87870 -0.05900
C 	C 	0.72070 0.46250 0.85250 -0.01300
H 	H 	0.75130 0.42190 0.86010 0.04500
C 	C 	0.75150 0.50910 0.81530 -0.06400
C 	C 	0.83590 0.49560 0.78780 0.37000
C 	C 	0.70560 0.57080 0.80430 -0.09900
H 	H 	0.72680 0.60190 0.77940 0.05800
C 	C 	0.62890 0.58580 0.83030 0.12100
C 	C 	0.59790 0.53860 0.86810 -0.10800
H 	H 	0.54710 0.54830 0.88610 0.06600
C 	C 	0.99100 0.62410 0.79870 0.37700
C 	C 	0.99500 0.69190 0.82670 -0.08300
C 	C 	0.99620 0.75510 0.79910 0.00700
H 	H 	0.98970 0.75530 0.76290 0.03800
C 	C 	0.00710 0.81760 0.82610 -0.07300
C 	C 	0.01120 0.88580 0.79710 0.37100
C 	C 	0.01410 0.81790 0.88050 -0.08000
H 	H 	0.02350 0.85960 0.89820 0.05500
C 	C 	0.00690 0.75530 0.90820 0.10400
C 	C 	0.00060 0.69190 0.88130 -0.07600
H 	H 	0.00010 0.64990 0.89970 0.05800
N 	N 	0.45190 0.52280 0.76710 -0.30800
H 	H 	0.43840 0.51000 0.79830 0.13700
H 	H 	0.50530 0.52860 0.75870 0.14300
N 	N 	0.58520 0.64630 0.81870 -0.30900
H 	H 	0.60530 0.67450 0.79550 0.13300
H 	H 	0.53770 0.65590 0.83460 0.13700
N 	N 	0.01210 0.75630 0.96340 -0.30000
H 	H 	0.01140 0.71770 0.98070 0.13400
H 	H 	0.01600 0.79550 0.97980 0.13400
O 	O 	0.63360 0.24430 0.98893 -0.93600
H 	H 	0.67400 0.25410 0.96750 0.27200
Zn	Zn	0.94326 0.83872 0.48298 1.19100
Zn	Zn	0.93403 0.66293 0.48199 1.18600
Zn	Zn	0.80836 0.75896 0.55801 1.17000
Zn	Zn	0.54100 0.46061 0.20255 1.21400
Zn	Zn	0.48234 0.53065 0.29982 1.21300
O 	O 	0.05540 0.39420 0.07970 -0.48500
O 	O 	0.18900 0.41190 0.05210 -0.37700
O 	O 	0.41190 0.46310 0.18770 -0.47400
O 	O 	0.36990 0.49550 0.26780 -0.47500
O 	O 	0.84990 0.62760 0.42710 -0.47400
O 	O 	0.95920 0.55990 0.44320 -0.43300
O 	O 	0.61320 0.54600 0.30920 -0.46100
O 	O 	0.65150 0.47120 0.24600 -0.47500
O 	O 	0.51650 0.37440 0.24930 -0.45900
O 	O 	0.50580 0.43050 0.32550 -0.47300
O 	O 	0.51980 0.11320 0.25120 -0.47000
O 	O 	0.45490 0.06300 0.32020 -0.46700
N 	N 	0.05290 0.78210 0.47190 -0.29600
N 	N 	0.05040 0.71000 0.47170 -0.30300
N 	N 	0.18220 0.74320 0.45070 -0.39300
N 	N 	0.91690 0.63410 0.55730 -0.31100
N 	N 	0.86100 0.67250 0.58830 -0.31700
N 	N 	0.91770 0.58920 0.63690 -0.34500
N 	N 	0.93150 0.87320 0.55720 -0.31400
N 	N 	0.86650 0.84350 0.58710 -0.32100
N 	N 	0.93580 0.92070 0.63520 -0.34300
C 	C 	0.16340 0.87320 0.45590 -0.82000
H 	H 	0.11490 0.90430 0.45920 0.23200
H 	H 	0.19100 0.88070 0.42280 0.24000
H 	H 	0.20380 0.88210 0.48360 0.22900
C 	C 	0.13290 0.79960 0.45920 0.27600
C 	C 	0.12910 0.68820 0.45920 0.30100
C 	C 	0.15740 0.61430 0.45640 -0.91100
H 	H 	0.18530 0.60150 0.48860 0.28000
H 	H 	0.19710 0.60860 0.42790 0.26100
H 	H 	0.10800 0.58480 0.45090 0.28000
C 	C 	0.01390 0.53220 0.56970 -0.90100
H 	H 	0.02950 0.54210 0.53410 0.26800
H 	H 	0.98910 0.48630 0.57180 0.28900
H 	H 	0.06450 0.53430 0.59130 0.29400
C 	C 	0.94930 0.58510 0.58830 0.31800
C 	C 	0.86330 0.64370 0.63540 0.29100
C 	C 	0.80910 0.66810 0.68040 -0.84800
H 	H 	0.77280 0.70590 0.66910 0.22200
H 	H 	0.84590 0.68390 0.70820 0.27100
H 	H 	0.77380 0.63020 0.69260 0.26900
C 	C 	0.04570 0.96230 0.56960 -0.87300
H 	H 	0.09860 0.93860 0.57800 0.27300
H 	H 	0.04410 0.00650 0.58740 0.28000
H 	H 	0.04250 0.96980 0.53250 0.24900
C 	C 	0.97150 0.91900 0.58660 0.31000
C 	C 	0.87130 0.87390 0.63350 0.30600
C 	C 	0.81110 0.85930 0.67740 -0.87300
H 	H 	0.77350 0.82140 0.66800 0.23100
H 	H 	0.77740 0.90020 0.68470 0.27600
H 	H 	0.84370 0.84670 0.70800 0.27900
C 	C 	0.13450 0.41410 0.08690 0.29900
C 	C 	0.15600 0.43750 0.14180 -0.04800
C 	C 	0.24310 0.44650 0.15510 -0.01200
H 	H 	0.28640 0.43980 0.13040 0.03900
C 	C 	0.26340 0.46580 0.20620 -0.06700
C 	C 	0.35560 0.47510 0.22170 0.37500
C 	C 	0.19820 0.47500 0.24250 -0.09800
H 	H 	0.21250 0.48770 0.27660 0.06000
C 	C 	0.11330 0.46580 0.22970 0.12100
C 	C 	0.09250 0.44690 0.17870 -0.10800
H 	H 	0.03500 0.44050 0.16950 0.07100
C 	C 	0.89100 0.57230 0.41830 0.30600
C 	C 	0.85680 0.52290 0.37870 -0.05900
C 	C 	0.77930 0.53750 0.35250 -0.01300
H 	H 	0.74870 0.57810 0.36010 0.04500
C 	C 	0.74850 0.49090 0.31530 -0.06400
C 	C 	0.66410 0.50440 0.28780 0.37000
C 	C 	0.79440 0.42920 0.30430 -0.09900
H 	H 	0.77320 0.39810 0.27940 0.05800
C 	C 	0.87110 0.41420 0.33030 0.12100
C 	C 	0.90210 0.46140 0.36810 -0.10800
H 	H 	0.95290 0.45170 0.38610 0.06600
C 	C 	0.50900 0.37590 0.29870 0.37600
C 	C 	0.50500 0.30810 0.32670 -0.08200
C 	C 	0.50380 0.24490 0.29910 0.01000
H 	H 	0.51030 0.24470 0.26290 0.03700
C 	C 	0.49290 0.18240 0.32610 -0.07500
C 	C 	0.48880 0.11420 0.29710 0.36900
C 	C 	0.48590 0.18210 0.38050 -0.08000
H 	H 	0.47650 0.14040 0.39820 0.05500
C 	C 	0.49310 0.24470 0.40820 0.10400
C 	C 	0.49940 0.30810 0.38130 -0.07800
H 	H 	0.49990 0.35010 0.39970 0.05800
N 	N 	0.04810 0.47720 0.26710 -0.30800
H 	H 	0.06160 0.49000 0.29830 0.13700
H 	H 	0.99470 0.47140 0.25870 0.14300
N 	N 	0.91480 0.35370 0.31870 -0.30900
H 	H 	0.89470 0.32550 0.29550 0.13300
H 	H 	0.96230 0.34410 0.33460 0.13700
N 	N 	0.48790 0.24370 0.46340 -0.30000
H 	H 	0.48860 0.28230 0.48070 0.13400
H 	H 	0.48400 0.20450 0.47980 0.13400
O 	O 	0.86640 0.75570 0.48893 -0.93700
H 	H 	0.82600 0.74590 0.46750 0.27200
