data_crystal

_cell_length_a 15.17960
_cell_length_b 19.30300
_cell_length_c 25.80600
_cell_angle_alpha 90.00000
_cell_angle_beta  90.00000
_cell_angle_gamma 90.00000

_symmetry_space_group_name_	'P 1'
_symmetry_space_group_name_H-M	'P 1'

loop_
_symmetry_equiv_pos_as_xyz
  x,y,z

loop_
_atom_site_label
_atom_site_type_symbol
_atom_site_fract_x
_atom_site_fract_y
_atom_site_fract_z
_atom_site_charge
Zn	Zn	0.52963 0.96428 0.54850 1.21300
Zn	Zn	0.57345 0.83853 0.76664 1.18700
N 	N 	0.63970 0.83460 0.65980 -0.32000
N 	N 	0.58030 0.86940 0.69184 -0.31500
N 	N 	0.57370 0.91530 0.61318 -0.34300
N 	N 	0.46070 0.78590 0.78400 -0.30300
O 	O 	0.52690 0.06560 0.57110 -0.47700
O 	O 	0.48590 0.12070 0.49900 -0.45200
O 	O 	0.64500 0.98200 0.50910 -0.47900
O 	O 	0.60270 0.03830 0.43840 -0.46400
O 	O 	0.83970 0.12090 0.31770 -0.48700
O 	O 	0.95820 0.06090 0.30980 -0.42900
O 	O 	0.96250 0.91490 0.47200 -0.31200
C 	C 	0.69210 0.84420 0.56900 -0.86200
H 	H 	0.73920 0.81510 0.58090 0.23400
H 	H 	0.71610 0.88510 0.55330 0.28200
H 	H 	0.65750 0.81940 0.54390 0.27100
C 	C 	0.63510 0.86420 0.61390 0.29400
C 	C 	0.54240 0.91680 0.66210 0.32800
C 	C 	0.47370 0.96580 0.68050 -0.92300
H 	H 	0.41740 0.94330 0.68010 0.28500
H 	H 	0.47210 0.00550 0.65800 0.29800
H 	H 	0.48730 0.98040 0.71510 0.28300
C 	C 	0.51060 0.11890 0.54680 0.35600
C 	C 	0.51570 0.18780 0.57410 -0.02400
C 	C 	0.52620 0.18780 0.62670 -0.17900
H 	H 	0.53090 0.14620 0.64470 0.10300
C 	C 	0.88660 0.07300 0.33210 0.32000
C 	C 	0.85910 0.03110 0.37860 -0.06300
C 	C 	0.92210 0.98750 0.40200 -0.13100
H 	H 	0.97660 0.98030 0.38640 0.08900
C 	C 	0.90130 0.95510 0.44910 0.20200
C 	C 	0.81530 0.96230 0.46890 -0.12200
H 	H 	0.80020 0.93960 0.49950 0.07000
C 	C 	0.75240 0.00260 0.44390 -0.06000
C 	C 	0.77470 0.03750 0.39840 -0.02000
H 	H 	0.73320 0.06470 0.38150 0.04300
C 	C 	0.65990 0.00800 0.46630 0.37200
C 	C 	0.35000 0.87840 0.79800 -0.83400
H 	H 	0.39610 0.90860 0.78620 0.25100
H 	H 	0.33440 0.89020 0.83300 0.24900
H 	H 	0.29930 0.88360 0.77610 0.22900
C 	C 	0.38120 0.80510 0.79610 0.28000
C 	C 	0.57000 0.18600 0.73470 0.62600
H 	H 	0.63080 0.17100 0.73280 -0.17300
H 	H 	0.53240 0.14820 0.72250 -0.17400
C 	C 	0.52600 0.21380 0.78700 -1.36200
H 	H 	0.56670 0.21290 0.81510 0.43200
H 	H 	0.48630 0.17510 0.78960 0.36900
H 	H 	0.49250 0.25570 0.78780 0.47800
C 	C 	0.94990 0.88490 0.52070 0.37800
H 	H 	0.90380 0.85010 0.51990 -0.10100
H 	H 	0.93570 0.91950 0.54670 -0.08800
C 	C 	0.04450 0.85110 0.53070 -0.77400
H 	H 	0.03820 0.80260 0.53790 0.23300
H 	H 	0.07340 0.87330 0.55930 0.25900
H 	H 	0.07910 0.85710 0.49990 0.26900
Zn	Zn	0.97037 0.03572 0.04850 1.21300
Zn	Zn	0.92655 0.16147 0.26664 1.18700
N 	N 	0.86030 0.16540 0.15980 -0.31900
N 	N 	0.91970 0.13060 0.19184 -0.31100
N 	N 	0.92630 0.08470 0.11318 -0.34000
N 	N 	0.03930 0.21410 0.28400 -0.30200
O 	O 	0.97310 0.93440 0.07110 -0.47500
O 	O 	0.01410 0.87930 0.99900 -0.45800
O 	O 	0.85500 0.01800 0.00910 -0.48600
O 	O 	0.89730 0.96170 0.93840 -0.46100
O 	O 	0.66030 0.87910 0.81770 -0.48400
O 	O 	0.54180 0.93910 0.80980 -0.42400
O 	O 	0.53750 0.08510 0.97200 -0.31600
C 	C 	0.80790 0.15580 0.06900 -0.86100
H 	H 	0.76080 0.18490 0.08090 0.23300
H 	H 	0.78390 0.11490 0.05330 0.28000
H 	H 	0.84250 0.18060 0.04390 0.27100
C 	C 	0.86490 0.13580 0.11390 0.29300
C 	C 	0.95760 0.08320 0.16210 0.30700
C 	C 	0.02630 0.03420 0.18050 -0.86200
H 	H 	0.08260 0.05670 0.18010 0.26900
H 	H 	0.02790 0.99450 0.15800 0.27400
H 	H 	0.01270 0.01960 0.21510 0.26800
C 	C 	0.98940 0.88110 0.04680 0.36500
C 	C 	0.98430 0.81220 0.07410 -0.03200
C 	C 	0.97380 0.81220 0.12670 -0.16900
H 	H 	0.96910 0.85380 0.14470 0.10100
C 	C 	0.61340 0.92700 0.83210 0.31500
C 	C 	0.64090 0.96890 0.87860 -0.04500
C 	C 	0.57790 0.01250 0.90200 -0.15200
H 	H 	0.52340 0.01970 0.88640 0.09300
C 	C 	0.59870 0.04490 0.94910 0.21300
C 	C 	0.68470 0.03770 0.96890 -0.14300
H 	H 	0.69980 0.06040 0.99950 0.07500
C 	C 	0.74760 0.99740 0.94390 -0.04300
C 	C 	0.72530 0.96250 0.89840 -0.03300
H 	H 	0.76680 0.93530 0.88150 0.04900
C 	C 	0.84010 0.99200 0.96630 0.37600
C 	C 	0.15000 0.12160 0.29800 -0.84000
H 	H 	0.10390 0.09140 0.28620 0.25500
H 	H 	0.16560 0.10980 0.33300 0.25200
H 	H 	0.20070 0.11640 0.27610 0.23200
C 	C 	0.11880 0.19490 0.29610 0.28300
C 	C 	0.93000 0.81400 0.23470 0.57900
H 	H 	0.86920 0.82900 0.23280 -0.15700
H 	H 	0.96760 0.85180 0.22250 -0.15700
C 	C 	0.97400 0.78620 0.28700 -1.26300
H 	H 	0.93330 0.78710 0.31510 0.40400
H 	H 	0.01370 0.82490 0.28960 0.34000
H 	H 	0.00750 0.74430 0.28780 0.44300
C 	C 	0.55010 0.11510 0.02070 0.37200
H 	H 	0.59620 0.14990 0.01990 -0.10000
H 	H 	0.56430 0.08050 0.04670 -0.08700
C 	C 	0.45550 0.14890 0.03070 -0.76100
H 	H 	0.46180 0.19740 0.03790 0.23000
H 	H 	0.42660 0.12670 0.05930 0.25700
H 	H 	0.42090 0.14290 0.99990 0.26600
Zn	Zn	0.47037 0.46428 0.45150 1.21400
Zn	Zn	0.42655 0.33853 0.23336 1.18800
N 	N 	0.36030 0.33460 0.34020 -0.31900
N 	N 	0.41970 0.36940 0.30816 -0.31400
N 	N 	0.42630 0.41530 0.38682 -0.34300
N 	N 	0.53930 0.28590 0.21600 -0.30300
O 	O 	0.47310 0.56560 0.42890 -0.47700
O 	O 	0.51410 0.62070 0.50100 -0.45200
O 	O 	0.35500 0.48200 0.49090 -0.48100
O 	O 	0.39730 0.53830 0.56160 -0.46400
O 	O 	0.16030 0.62090 0.68230 -0.48600
O 	O 	0.04180 0.56090 0.69020 -0.42500
O 	O 	0.03750 0.41490 0.52800 -0.31400
C 	C 	0.30790 0.34420 0.43100 -0.86100
H 	H 	0.26080 0.31510 0.41910 0.23300
H 	H 	0.28390 0.38510 0.44670 0.28100
H 	H 	0.34250 0.31940 0.45610 0.27100
C 	C 	0.36490 0.36420 0.38610 0.29400
C 	C 	0.45760 0.41680 0.33790 0.32700
C 	C 	0.52630 0.46580 0.31950 -0.92200
H 	H 	0.58260 0.44330 0.31990 0.28500
H 	H 	0.52790 0.50550 0.34200 0.29700
H 	H 	0.51270 0.48040 0.28490 0.28300
C 	C 	0.48940 0.61890 0.45320 0.35600
C 	C 	0.48430 0.68780 0.42590 -0.02400
C 	C 	0.47380 0.68780 0.37330 -0.17900
H 	H 	0.46910 0.64620 0.35530 0.10300
C 	C 	0.11340 0.57300 0.66790 0.31600
C 	C 	0.14090 0.53110 0.62140 -0.05100
C 	C 	0.07790 0.48750 0.59800 -0.14500
H 	H 	0.02340 0.48030 0.61360 0.09100
C 	C 	0.09870 0.45510 0.55090 0.20900
C 	C 	0.18470 0.46230 0.53110 -0.13400
H 	H 	0.19980 0.43960 0.50050 0.07300
C 	C 	0.24760 0.50260 0.55610 -0.05000
C 	C 	0.22530 0.53750 0.60160 -0.02800
H 	H 	0.26680 0.56470 0.61850 0.04600
C 	C 	0.34010 0.50800 0.53370 0.37200
C 	C 	0.65000 0.37840 0.20200 -0.83500
H 	H 	0.60390 0.40860 0.21380 0.25100
H 	H 	0.66560 0.39020 0.16700 0.24900
H 	H 	0.70070 0.38360 0.22390 0.23000
C 	C 	0.61880 0.30510 0.20390 0.28000
C 	C 	0.43000 0.68600 0.26530 0.62600
H 	H 	0.36920 0.67100 0.26720 -0.17200
H 	H 	0.46760 0.64820 0.27750 -0.17300
C 	C 	0.47400 0.71380 0.21300 -1.36100
H 	H 	0.43330 0.71290 0.18490 0.43200
H 	H 	0.51370 0.67510 0.21040 0.36900
H 	H 	0.50750 0.75570 0.21220 0.47800
C 	C 	0.05010 0.38490 0.47930 0.37400
H 	H 	0.09620 0.35010 0.48010 -0.10000
H 	H 	0.06430 0.41950 0.45330 -0.08700
C 	C 	0.95550 0.35110 0.46930 -0.76600
H 	H 	0.96180 0.30260 0.46210 0.23100
H 	H 	0.92660 0.37330 0.44070 0.25800
H 	H 	0.92090 0.35710 0.50010 0.26800
Zn	Zn	0.02963 0.53572 0.95150 1.21400
Zn	Zn	0.07345 0.66147 0.73336 1.18700
N 	N 	0.13970 0.66540 0.84020 -0.31900
N 	N 	0.08030 0.63060 0.80816 -0.31400
N 	N 	0.07370 0.58470 0.88682 -0.34300
N 	N 	0.96070 0.71410 0.71600 -0.30200
O 	O 	0.02690 0.43440 0.92890 -0.47800
O 	O 	0.98590 0.37930 0.00100 -0.45500
O 	O 	0.14500 0.51800 0.99090 -0.48100
O 	O 	0.10270 0.46170 0.06160 -0.46300
O 	O 	0.33970 0.37910 0.18230 -0.48500
O 	O 	0.45820 0.43910 0.19020 -0.42500
O 	O 	0.46250 0.58510 0.02800 -0.31500
C 	C 	0.19210 0.65580 0.93100 -0.86100
H 	H 	0.23920 0.68490 0.91910 0.23300
H 	H 	0.21610 0.61490 0.94670 0.28100
H 	H 	0.15750 0.68060 0.95610 0.27100
C 	C 	0.13510 0.63580 0.88610 0.29300
C 	C 	0.04240 0.58320 0.83790 0.32600
C 	C 	0.97370 0.53420 0.81950 -0.91800
H 	H 	0.91740 0.55670 0.81990 0.28400
H 	H 	0.97210 0.49450 0.84200 0.29600
H 	H 	0.98730 0.51960 0.78490 0.28200
C 	C 	0.01060 0.38110 0.95320 0.36100
C 	C 	0.01570 0.31220 0.92590 -0.03200
C 	C 	0.02620 0.31220 0.87330 -0.16900
H 	H 	0.03090 0.35380 0.85530 0.10000
C 	C 	0.38660 0.42700 0.16790 0.31600
C 	C 	0.35910 0.46890 0.12140 -0.05100
C 	C 	0.42210 0.51250 0.09800 -0.14500
H 	H 	0.47660 0.51970 0.11360 0.09100
C 	C 	0.40130 0.54490 0.05090 0.20800
C 	C 	0.31530 0.53770 0.03110 -0.13400
H 	H 	0.30020 0.56040 0.00050 0.07300
C 	C 	0.25240 0.49740 0.05610 -0.05000
C 	C 	0.27470 0.46250 0.10160 -0.02800
H 	H 	0.23320 0.43530 0.11850 0.04600
C 	C 	0.15990 0.49200 0.03370 0.37100
C 	C 	0.85000 0.62160 0.70200 -0.83600
H 	H 	0.89610 0.59140 0.71380 0.25200
H 	H 	0.83440 0.60980 0.66700 0.25000
H 	H 	0.79930 0.61640 0.72390 0.23000
C 	C 	0.88120 0.69490 0.70390 0.28100
C 	C 	0.07000 0.31400 0.76530 0.58300
H 	H 	0.13080 0.32900 0.76720 -0.15900
H 	H 	0.03240 0.35180 0.77750 -0.16000
C 	C 	0.02600 0.28620 0.71300 -1.27200
H 	H 	0.06670 0.28710 0.68490 0.40600
H 	H 	0.98630 0.32490 0.71040 0.34500
H 	H 	0.99250 0.24430 0.71220 0.44700
C 	C 	0.44990 0.61510 0.97930 0.37000
H 	H 	0.40380 0.64990 0.98010 -0.10000
H 	H 	0.43570 0.58050 0.95330 -0.08700
C 	C 	0.54450 0.64890 0.96930 -0.76100
H 	H 	0.53820 0.69740 0.96210 0.23000
H 	H 	0.57340 0.62670 0.94070 0.25600
H 	H 	0.57910 0.64290 0.00010 0.26600
Zn	Zn	0.47037 0.03572 0.45150 1.21400
Zn	Zn	0.42655 0.16147 0.23336 1.18800
N 	N 	0.36030 0.16540 0.34020 -0.31900
N 	N 	0.41970 0.13060 0.30816 -0.31400
N 	N 	0.42630 0.08470 0.38682 -0.34300
N 	N 	0.53930 0.21410 0.21600 -0.30300
O 	O 	0.47310 0.93440 0.42890 -0.47700
O 	O 	0.51410 0.87930 0.50100 -0.45200
O 	O 	0.35500 0.01800 0.49090 -0.47900
O 	O 	0.39730 0.96170 0.56160 -0.46400
O 	O 	0.16030 0.87910 0.68230 -0.48700
O 	O 	0.04180 0.93910 0.69020 -0.42900
O 	O 	0.03750 0.08510 0.52800 -0.31200
C 	C 	0.30790 0.15580 0.43100 -0.86200
H 	H 	0.26080 0.18490 0.41910 0.23400
H 	H 	0.28390 0.11490 0.44670 0.28200
H 	H 	0.34250 0.18060 0.45610 0.27100
C 	C 	0.36490 0.13580 0.38610 0.29400
C 	C 	0.45760 0.08320 0.33790 0.32800
C 	C 	0.52630 0.03420 0.31950 -0.92300
H 	H 	0.58260 0.05670 0.31990 0.28500
H 	H 	0.52790 0.99450 0.34200 0.29800
H 	H 	0.51270 0.01960 0.28490 0.28300
C 	C 	0.48940 0.88110 0.45320 0.35600
C 	C 	0.48430 0.81220 0.42590 -0.02400
C 	C 	0.47380 0.81220 0.37330 -0.17900
H 	H 	0.46910 0.85380 0.35530 0.10300
C 	C 	0.11340 0.92700 0.66790 0.32000
C 	C 	0.14090 0.96890 0.62140 -0.06300
C 	C 	0.07790 0.01250 0.59800 -0.13100
H 	H 	0.02340 0.01970 0.61360 0.08900
C 	C 	0.09870 0.04490 0.55090 0.20200
C 	C 	0.18470 0.03770 0.53110 -0.12200
H 	H 	0.19980 0.06040 0.50050 0.07000
C 	C 	0.24760 0.99740 0.55610 -0.06000
C 	C 	0.22530 0.96250 0.60160 -0.02000
H 	H 	0.26680 0.93530 0.61850 0.04300
C 	C 	0.34010 0.99200 0.53370 0.37200
C 	C 	0.65000 0.12160 0.20200 -0.83400
H 	H 	0.60390 0.09140 0.21380 0.25100
H 	H 	0.66560 0.10980 0.16700 0.24900
H 	H 	0.70070 0.11640 0.22390 0.22900
C 	C 	0.61880 0.19490 0.20390 0.28000
C 	C 	0.43000 0.81400 0.26530 0.62600
H 	H 	0.36920 0.82900 0.26720 -0.17300
H 	H 	0.46760 0.85180 0.27750 -0.17400
C 	C 	0.47400 0.78620 0.21300 -1.36200
H 	H 	0.43330 0.78710 0.18490 0.43200
H 	H 	0.51370 0.82490 0.21040 0.36900
H 	H 	0.50750 0.74430 0.21220 0.47800
C 	C 	0.05010 0.11510 0.47930 0.37800
H 	H 	0.09620 0.14990 0.48010 -0.10100
H 	H 	0.06430 0.08050 0.45330 -0.08800
C 	C 	0.95550 0.14890 0.46930 -0.77400
H 	H 	0.96180 0.19740 0.46210 0.23300
H 	H 	0.92660 0.12670 0.44070 0.25900
H 	H 	0.92090 0.14290 0.50010 0.26900
Zn	Zn	0.02963 0.96428 0.95150 1.21300
Zn	Zn	0.07345 0.83853 0.73336 1.18700
N 	N 	0.13970 0.83460 0.84020 -0.31900
N 	N 	0.08030 0.86940 0.80816 -0.31100
N 	N 	0.07370 0.91530 0.88682 -0.34000
N 	N 	0.96070 0.78590 0.71600 -0.30200
O 	O 	0.02690 0.06560 0.92890 -0.47500
O 	O 	0.98590 0.12070 0.00100 -0.45800
O 	O 	0.14500 0.98200 0.99090 -0.48600
O 	O 	0.10270 0.03830 0.06160 -0.46100
O 	O 	0.33970 0.12090 0.18230 -0.48400
O 	O 	0.45820 0.06090 0.19020 -0.42400
O 	O 	0.46250 0.91490 0.02800 -0.31600
C 	C 	0.19210 0.84420 0.93100 -0.86100
H 	H 	0.23920 0.81510 0.91910 0.23300
H 	H 	0.21610 0.88510 0.94670 0.28000
H 	H 	0.15750 0.81940 0.95610 0.27100
C 	C 	0.13510 0.86420 0.88610 0.29300
C 	C 	0.04240 0.91680 0.83790 0.30700
C 	C 	0.97370 0.96580 0.81950 -0.86200
H 	H 	0.91740 0.94330 0.81990 0.26900
H 	H 	0.97210 0.00550 0.84200 0.27400
H 	H 	0.98730 0.98040 0.78490 0.26800
C 	C 	0.01060 0.11890 0.95320 0.36500
C 	C 	0.01570 0.18780 0.92590 -0.03200
C 	C 	0.02620 0.18780 0.87330 -0.16900
H 	H 	0.03090 0.14620 0.85530 0.10100
C 	C 	0.38660 0.07300 0.16790 0.31500
C 	C 	0.35910 0.03110 0.12140 -0.04500
C 	C 	0.42210 0.98750 0.09800 -0.15200
H 	H 	0.47660 0.98030 0.11360 0.09300
C 	C 	0.40130 0.95510 0.05090 0.21300
C 	C 	0.31530 0.96230 0.03110 -0.14300
H 	H 	0.30020 0.93960 0.00050 0.07500
C 	C 	0.25240 0.00260 0.05610 -0.04300
C 	C 	0.27470 0.03750 0.10160 -0.03300
H 	H 	0.23320 0.06470 0.11850 0.04900
C 	C 	0.15990 0.00800 0.03370 0.37600
C 	C 	0.85000 0.87840 0.70200 -0.84000
H 	H 	0.89610 0.90860 0.71380 0.25500
H 	H 	0.83440 0.89020 0.66700 0.25200
H 	H 	0.79930 0.88360 0.72390 0.23200
C 	C 	0.88120 0.80510 0.70390 0.28300
C 	C 	0.07000 0.18600 0.76530 0.57900
H 	H 	0.13080 0.17100 0.76720 -0.15700
H 	H 	0.03240 0.14820 0.77750 -0.15700
C 	C 	0.02600 0.21380 0.71300 -1.26300
H 	H 	0.06670 0.21290 0.68490 0.40400
H 	H 	0.98630 0.17510 0.71040 0.34000
H 	H 	0.99250 0.25570 0.71220 0.44300
C 	C 	0.44990 0.88490 0.97930 0.37200
H 	H 	0.40380 0.85010 0.98010 -0.10000
H 	H 	0.43570 0.91950 0.95330 -0.08700
C 	C 	0.54450 0.85110 0.96930 -0.76100
H 	H 	0.53820 0.80260 0.96210 0.23000
H 	H 	0.57340 0.87330 0.94070 0.25700
H 	H 	0.57910 0.85710 0.00010 0.26600
Zn	Zn	0.52963 0.53572 0.54850 1.21400
Zn	Zn	0.57345 0.66147 0.76664 1.18800
N 	N 	0.63970 0.66540 0.65980 -0.31900
N 	N 	0.58030 0.63060 0.69184 -0.31400
N 	N 	0.57370 0.58470 0.61318 -0.34300
N 	N 	0.46070 0.71410 0.78400 -0.30300
O 	O 	0.52690 0.43440 0.57110 -0.47700
O 	O 	0.48590 0.37930 0.49900 -0.45200
O 	O 	0.64500 0.51800 0.50910 -0.48100
O 	O 	0.60270 0.46170 0.43840 -0.46400
O 	O 	0.83970 0.37910 0.31770 -0.48600
O 	O 	0.95820 0.43910 0.30980 -0.42500
O 	O 	0.96250 0.58510 0.47200 -0.31400
C 	C 	0.69210 0.65580 0.56900 -0.86100
H 	H 	0.73920 0.68490 0.58090 0.23300
H 	H 	0.71610 0.61490 0.55330 0.28100
H 	H 	0.65750 0.68060 0.54390 0.27100
C 	C 	0.63510 0.63580 0.61390 0.29400
C 	C 	0.54240 0.58320 0.66210 0.32700
C 	C 	0.47370 0.53420 0.68050 -0.92200
H 	H 	0.41740 0.55670 0.68010 0.28500
H 	H 	0.47210 0.49450 0.65800 0.29700
H 	H 	0.48730 0.51960 0.71510 0.28300
C 	C 	0.51060 0.38110 0.54680 0.35600
C 	C 	0.51570 0.31220 0.57410 -0.02400
C 	C 	0.52620 0.31220 0.62670 -0.17900
H 	H 	0.53090 0.35380 0.64470 0.10300
C 	C 	0.88660 0.42700 0.33210 0.31600
C 	C 	0.85910 0.46890 0.37860 -0.05100
C 	C 	0.92210 0.51250 0.40200 -0.14500
H 	H 	0.97660 0.51970 0.38640 0.09100
C 	C 	0.90130 0.54490 0.44910 0.20900
C 	C 	0.81530 0.53770 0.46890 -0.13400
H 	H 	0.80020 0.56040 0.49950 0.07300
C 	C 	0.75240 0.49740 0.44390 -0.05000
C 	C 	0.77470 0.46250 0.39840 -0.02800
H 	H 	0.73320 0.43530 0.38150 0.04600
C 	C 	0.65990 0.49200 0.46630 0.37200
C 	C 	0.35000 0.62160 0.79800 -0.83500
H 	H 	0.39610 0.59140 0.78620 0.25100
H 	H 	0.33440 0.60980 0.83300 0.24900
H 	H 	0.29930 0.61640 0.77610 0.23000
C 	C 	0.38120 0.69490 0.79610 0.28000
C 	C 	0.57000 0.31400 0.73470 0.62600
H 	H 	0.63080 0.32900 0.73280 -0.17200
H 	H 	0.53240 0.35180 0.72250 -0.17300
C 	C 	0.52600 0.28620 0.78700 -1.36100
H 	H 	0.56670 0.28710 0.81510 0.43200
H 	H 	0.48630 0.32490 0.78960 0.36900
H 	H 	0.49250 0.24430 0.78780 0.47800
C 	C 	0.94990 0.61510 0.52070 0.37400
H 	H 	0.90380 0.64990 0.51990 -0.10000
H 	H 	0.93570 0.58050 0.54670 -0.08700
C 	C 	0.04450 0.64890 0.53070 -0.76600
H 	H 	0.03820 0.69740 0.53790 0.23100
H 	H 	0.07340 0.62670 0.55930 0.25800
H 	H 	0.07910 0.64290 0.49990 0.26800
Zn	Zn	0.97037 0.46428 0.04850 1.21400
Zn	Zn	0.92655 0.33853 0.26664 1.18700
N 	N 	0.86030 0.33460 0.15980 -0.31900
N 	N 	0.91970 0.36940 0.19184 -0.31400
N 	N 	0.92630 0.41530 0.11318 -0.34300
N 	N 	0.03930 0.28590 0.28400 -0.30200
O 	O 	0.97310 0.56560 0.07110 -0.47800
O 	O 	0.01410 0.62070 0.99900 -0.45500
O 	O 	0.85500 0.48200 0.00910 -0.48100
O 	O 	0.89730 0.53830 0.93840 -0.46300
O 	O 	0.66030 0.62090 0.81770 -0.48500
O 	O 	0.54180 0.56090 0.80980 -0.42500
O 	O 	0.53750 0.41490 0.97200 -0.31500
C 	C 	0.80790 0.34420 0.06900 -0.86100
H 	H 	0.76080 0.31510 0.08090 0.23300
H 	H 	0.78390 0.38510 0.05330 0.28100
H 	H 	0.84250 0.31940 0.04390 0.27100
C 	C 	0.86490 0.36420 0.11390 0.29300
C 	C 	0.95760 0.41680 0.16210 0.32600
C 	C 	0.02630 0.46580 0.18050 -0.91800
H 	H 	0.08260 0.44330 0.18010 0.28400
H 	H 	0.02790 0.50550 0.15800 0.29600
H 	H 	0.01270 0.48040 0.21510 0.28200
C 	C 	0.98940 0.61890 0.04680 0.36100
C 	C 	0.98430 0.68780 0.07410 -0.03200
C 	C 	0.97380 0.68780 0.12670 -0.16900
H 	H 	0.96910 0.64620 0.14470 0.10000
C 	C 	0.61340 0.57300 0.83210 0.31600
C 	C 	0.64090 0.53110 0.87860 -0.05100
C 	C 	0.57790 0.48750 0.90200 -0.14500
H 	H 	0.52340 0.48030 0.88640 0.09100
C 	C 	0.59870 0.45510 0.94910 0.20800
C 	C 	0.68470 0.46230 0.96890 -0.13400
H 	H 	0.69980 0.43960 0.99950 0.07300
C 	C 	0.74760 0.50260 0.94390 -0.05000
C 	C 	0.72530 0.53750 0.89840 -0.02800
H 	H 	0.76680 0.56470 0.88150 0.04600
C 	C 	0.84010 0.50800 0.96630 0.37100
C 	C 	0.15000 0.37840 0.29800 -0.83600
H 	H 	0.10390 0.40860 0.28620 0.25200
H 	H 	0.16560 0.39020 0.33300 0.25000
H 	H 	0.20070 0.38360 0.27610 0.23000
C 	C 	0.11880 0.30510 0.29610 0.28100
C 	C 	0.93000 0.68600 0.23470 0.58300
H 	H 	0.86920 0.67100 0.23280 -0.15900
H 	H 	0.96760 0.64820 0.22250 -0.16000
C 	C 	0.97400 0.71380 0.28700 -1.27200
H 	H 	0.93330 0.71290 0.31510 0.40600
H 	H 	0.01370 0.67510 0.28960 0.34500
H 	H 	0.00750 0.75570 0.28780 0.44700
C 	C 	0.55010 0.38490 0.02070 0.37000
H 	H 	0.59620 0.35010 0.01990 -0.10000
H 	H 	0.56430 0.41950 0.04670 -0.08700
C 	C 	0.45550 0.35110 0.03070 -0.76100
H 	H 	0.46180 0.30260 0.03790 0.23000
H 	H 	0.42660 0.37330 0.05930 0.25600
H 	H 	0.42090 0.35710 0.99990 0.26600
Zn	Zn	0.69910 0.75000 0.68767 1.17000
N 	N 	0.32920 0.75000 0.80570 -0.38700
O 	O 	0.64660 0.75000 0.75750 -0.93600
H 	H 	0.68860 0.75000 0.77930 0.27900
Zn	Zn	0.80090 0.25000 0.18767 1.17000
N 	N 	0.17080 0.25000 0.30570 -0.38800
O 	O 	0.85340 0.25000 0.25750 -0.93700
H 	H 	0.81140 0.25000 0.27930 0.27900
Zn	Zn	0.30090 0.25000 0.31233 1.17000
N 	N 	0.67080 0.25000 0.19430 -0.38700
O 	O 	0.35340 0.25000 0.24250 -0.93600
H 	H 	0.31140 0.25000 0.22070 0.27900
Zn	Zn	0.19910 0.75000 0.81233 1.17000
N 	N 	0.82920 0.75000 0.69430 -0.38800
O 	O 	0.14660 0.75000 0.74250 -0.93700
H 	H 	0.18860 0.75000 0.72070 0.27900
O 	O 	0.54490 0.25000 0.70610 -0.42400
C 	C 	0.52980 0.25000 0.65280 0.25600
C 	C 	0.50590 0.25000 0.54750 -0.04300
H 	H 	0.49310 0.25000 0.51220 0.05300
O 	O 	0.95510 0.75000 0.20610 -0.40800
C 	C 	0.97020 0.75000 0.15280 0.24600
C 	C 	0.99410 0.75000 0.04750 -0.02800
H 	H 	0.00690 0.75000 0.01220 0.04500
O 	O 	0.45510 0.75000 0.29390 -0.42400
C 	C 	0.47020 0.75000 0.34720 0.25600
C 	C 	0.49410 0.75000 0.45250 -0.04300
H 	H 	0.50690 0.75000 0.48780 0.05300
O 	O 	0.04490 0.25000 0.79390 -0.40800
C 	C 	0.02980 0.25000 0.84720 0.24600
C 	C 	0.00590 0.25000 0.95250 -0.02800
H 	H 	0.99310 0.25000 0.98780 0.04500
