data_crystal

_cell_length_a 14.27800
_cell_length_b 18.03090
_cell_length_c 20.20470
_cell_angle_alpha 91.40600
_cell_angle_beta  90.00000
_cell_angle_gamma 90.00000

_symmetry_space_group_name_	'P 1'
_symmetry_space_group_name_H-M	'P 1'

loop_
_symmetry_equiv_pos_as_xyz
  x,y,z

loop_
_atom_site_label
_atom_site_type_symbol
_atom_site_fract_x
_atom_site_fract_y
_atom_site_fract_z
_atom_site_charge
Co	Co	0.94673 0.75347 0.07512 1.20200
Co	Co	0.79759 0.79850 0.94236 1.16500
Co	Co	0.81951 0.29336 0.90811 1.19700
Co	Co	0.44673 0.74653 0.42488 1.20200
Co	Co	0.29759 0.70150 0.55764 1.16500
Co	Co	0.31951 0.20664 0.59189 1.19700
Co	Co	0.05327 0.24653 0.92488 1.20200
Co	Co	0.20241 0.20150 0.05764 1.16500
Co	Co	0.18049 0.70664 0.09189 1.19700
Co	Co	0.55327 0.25347 0.57512 1.20200
Co	Co	0.70241 0.29850 0.44236 1.16500
Co	Co	0.68049 0.79336 0.40811 1.19700
H 	H 	0.86770 0.52940 0.90690 0.05200
H 	H 	0.01930 0.81070 0.92950 0.03900
H 	H 	0.00730 0.02540 0.87370 0.05100
H 	H 	0.18000 0.96880 0.02120 0.04400
H 	H 	0.42450 0.70860 0.21280 0.05100
H 	H 	0.55840 0.71310 0.03710 0.05100
H 	H 	0.70470 0.74160 0.20680 0.05000
H 	H 	0.13320 0.46290 0.92730 0.05200
H 	H 	0.07170 0.67970 0.95080 0.04200
H 	H 	0.36770 0.97060 0.59310 0.05100
H 	H 	0.51930 0.68930 0.57050 0.03900
H 	H 	0.50730 0.47460 0.62630 0.04900
H 	H 	0.68000 0.53120 0.47880 0.04400
H 	H 	0.92450 0.79140 0.28720 0.05100
H 	H 	0.05840 0.78690 0.46290 0.05200
H 	H 	0.20470 0.75840 0.29320 0.05000
H 	H 	0.63320 0.03710 0.57270 0.05100
H 	H 	0.57170 0.82030 0.54920 0.04100
H 	H 	0.13230 0.47060 0.09310 0.05100
H 	H 	0.98070 0.18930 0.07050 0.03800
H 	H 	0.99270 0.97460 0.12630 0.05000
H 	H 	0.82000 0.03120 0.97880 0.04300
H 	H 	0.57550 0.29140 0.78720 0.05100
H 	H 	0.44160 0.28690 0.96290 0.05100
H 	H 	0.29530 0.25840 0.79320 0.05000
H 	H 	0.86680 0.53710 0.07270 0.05200
H 	H 	0.92830 0.32030 0.04920 0.04200
H 	H 	0.63230 0.02940 0.40690 0.05100
H 	H 	0.48070 0.31070 0.42950 0.03900
H 	H 	0.49270 0.52540 0.37370 0.04900
H 	H 	0.32000 0.46880 0.52120 0.04400
H 	H 	0.07550 0.20860 0.71280 0.05100
H 	H 	0.94160 0.21310 0.53710 0.05200
H 	H 	0.79530 0.24160 0.70680 0.05000
H 	H 	0.36680 0.96290 0.42730 0.05100
H 	H 	0.42830 0.17970 0.45080 0.04100
C 	C 	0.73270 0.74350 0.07690 0.39200
C 	C 	0.88800 0.67680 0.93340 0.34000
C 	C 	0.95910 0.61500 0.92900 -0.09900
C 	C 	0.93090 0.54110 0.91490 0.05000
C 	C 	0.99660 0.48480 0.91440 -0.10900
C 	C 	0.96700 0.40450 0.90890 0.39100
C 	C 	0.14260 0.82360 0.02700 0.33000
C 	C 	0.10720 0.88150 0.98100 -0.09800
C 	C 	0.03870 0.86080 0.93370 0.02900
C 	C 	0.00240 0.91420 0.89370 -0.09600
C 	C 	0.03100 0.98860 0.90160 0.04700
C 	C 	0.09690 0.00860 0.95040 -0.11200
C 	C 	0.13590 0.95540 0.98920 0.05400
C 	C 	0.11910 0.08950 0.96370 0.38900
C 	C 	0.92540 0.89170 0.84470 0.33000
C 	C 	0.56460 0.73700 0.29440 0.39100
C 	C 	0.56370 0.72830 0.22150 -0.11700
C 	C 	0.47920 0.71420 0.18830 0.06000
C 	C 	0.47830 0.70920 0.12050 -0.09500
C 	C 	0.56090 0.71710 0.08350 0.05700
C 	C 	0.64400 0.73150 0.11600 -0.11100
C 	C 	0.64680 0.73520 0.18520 0.06500
C 	C 	0.38870 0.69180 0.08300 0.34700
C 	C 	0.09000 0.50170 0.92640 0.04600
C 	C 	0.11930 0.57410 0.93900 -0.08900
C 	C 	0.05240 0.63060 0.94110 0.03000
C 	C 	0.21910 0.58920 0.95540 0.30200
C 	C 	0.23270 0.75650 0.42310 0.39200
C 	C 	0.38800 0.82320 0.56660 0.34100
C 	C 	0.45910 0.88500 0.57100 -0.10000
C 	C 	0.43090 0.95890 0.58510 0.05000
C 	C 	0.49660 0.01520 0.58560 -0.11100
C 	C 	0.46700 0.09550 0.59110 0.39200
C 	C 	0.64260 0.67640 0.47300 0.33000
C 	C 	0.60720 0.61850 0.51900 -0.09800
C 	C 	0.53870 0.63920 0.56630 0.02900
C 	C 	0.50240 0.58580 0.60630 -0.09500
C 	C 	0.53100 0.51140 0.59840 0.04800
C 	C 	0.59690 0.49140 0.54960 -0.11300
C 	C 	0.63590 0.54460 0.51080 0.05300
C 	C 	0.61910 0.41050 0.53630 0.39000
C 	C 	0.42540 0.60830 0.65530 0.32900
C 	C 	0.06460 0.76300 0.20560 0.39000
C 	C 	0.06370 0.77170 0.27850 -0.11800
C 	C 	0.97920 0.78580 0.31170 0.06100
C 	C 	0.97830 0.79080 0.37950 -0.09400
C 	C 	0.06090 0.78290 0.41650 0.05600
C 	C 	0.14400 0.76850 0.38400 -0.11100
C 	C 	0.14680 0.76480 0.31480 0.06400
C 	C 	0.88870 0.80820 0.41700 0.34600
C 	C 	0.59000 0.99830 0.57360 0.04700
C 	C 	0.61930 0.92590 0.56100 -0.08900
C 	C 	0.55240 0.86940 0.55890 0.03100
C 	C 	0.71910 0.91080 0.54460 0.30200
C 	C 	0.26730 0.25650 0.92310 0.39200
C 	C 	0.11200 0.32320 0.06660 0.34000
C 	C 	0.04090 0.38500 0.07100 -0.09900
C 	C 	0.06910 0.45890 0.08510 0.05000
C 	C 	0.00340 0.51520 0.08560 -0.10900
C 	C 	0.03300 0.59550 0.09110 0.39100
C 	C 	0.85740 0.17640 0.97300 0.33000
C 	C 	0.89280 0.11850 0.01900 -0.09800
C 	C 	0.96130 0.13920 0.06630 0.02900
C 	C 	0.99760 0.08580 0.10630 -0.09600
C 	C 	0.96900 0.01140 0.09840 0.04700
C 	C 	0.90310 0.99140 0.04960 -0.11200
C 	C 	0.86410 0.04460 0.01080 0.05400
C 	C 	0.88090 0.91050 0.03630 0.38900
C 	C 	0.07460 0.10830 0.15530 0.33000
C 	C 	0.43540 0.26300 0.70560 0.39100
C 	C 	0.43630 0.27170 0.77850 -0.11700
C 	C 	0.52080 0.28580 0.81170 0.06000
C 	C 	0.52170 0.29080 0.87950 -0.09500
C 	C 	0.43910 0.28290 0.91650 0.05700
C 	C 	0.35600 0.26850 0.88400 -0.11100
C 	C 	0.35320 0.26480 0.81480 0.06500
C 	C 	0.61130 0.30820 0.91700 0.34700
C 	C 	0.91000 0.49830 0.07360 0.04600
C 	C 	0.88070 0.42590 0.06100 -0.08900
C 	C 	0.94760 0.36940 0.05890 0.03000
C 	C 	0.78090 0.41080 0.04460 0.30200
C 	C 	0.76730 0.24350 0.57690 0.39200
C 	C 	0.61200 0.17680 0.43340 0.34100
C 	C 	0.54090 0.11500 0.42900 -0.10000
C 	C 	0.56910 0.04110 0.41490 0.05000
C 	C 	0.50340 0.98480 0.41440 -0.11100
C 	C 	0.53300 0.90450 0.40890 0.39200
C 	C 	0.35740 0.32360 0.52700 0.33000
C 	C 	0.39280 0.38150 0.48100 -0.09800
C 	C 	0.46130 0.36080 0.43370 0.02900
C 	C 	0.49760 0.41420 0.39370 -0.09500
C 	C 	0.46900 0.48860 0.40160 0.04800
C 	C 	0.40310 0.50860 0.45040 -0.11300
C 	C 	0.36410 0.45540 0.48920 0.05300
C 	C 	0.38090 0.58950 0.46370 0.39000
C 	C 	0.57460 0.39170 0.34470 0.32900
C 	C 	0.93540 0.23700 0.79440 0.39000
C 	C 	0.93630 0.22830 0.72150 -0.11800
C 	C 	0.02080 0.21420 0.68830 0.06100
C 	C 	0.02170 0.20920 0.62050 -0.09400
C 	C 	0.93910 0.21710 0.58350 0.05600
C 	C 	0.85600 0.23150 0.61600 -0.11100
C 	C 	0.85320 0.23520 0.68520 0.06400
C 	C 	0.11130 0.19180 0.58300 0.34600
C 	C 	0.41000 0.00170 0.42640 0.04700
C 	C 	0.38070 0.07410 0.43900 -0.08900
C 	C 	0.44760 0.13060 0.44110 0.03100
C 	C 	0.28090 0.08920 0.45540 0.30200
O 	O 	0.80940 0.73840 0.10630 -0.40100
O 	O 	0.71900 0.75620 0.01650 -0.43600
O 	O 	0.90920 0.73230 0.97210 -0.50000
O 	O 	0.81740 0.67810 0.89800 -0.33600
O 	O 	0.02890 0.35790 0.91210 -0.43300
O 	O 	0.87890 0.39280 0.90170 -0.42600
O 	O 	0.08940 0.76610 0.03650 -0.50300
O 	O 	0.22130 0.82650 0.05250 -0.31900
O 	O 	0.17690 0.10340 0.00850 -0.44100
O 	O 	0.07330 0.13670 0.93040 -0.42600
O 	O 	0.87690 0.83280 0.85890 -0.36600
O 	O 	0.91570 0.92740 0.79520 -0.22700
O 	O 	0.64410 0.75120 0.31950 -0.42300
O 	O 	0.49040 0.72890 0.32630 -0.40000
O 	O 	0.31480 0.69110 0.11660 -0.39000
O 	O 	0.39310 0.68230 0.02130 -0.22100
O 	O 	0.23380 0.65760 0.97980 -0.26300
O 	O 	0.28050 0.54400 0.94440 -0.20600
O 	O 	0.30940 0.76160 0.39370 -0.40100
O 	O 	0.21900 0.74380 0.48350 -0.43600
O 	O 	0.40920 0.76770 0.52790 -0.50000
O 	O 	0.31740 0.82190 0.60200 -0.33600
O 	O 	0.52890 0.14210 0.58790 -0.43300
O 	O 	0.37890 0.10720 0.59830 -0.42600
O 	O 	0.58940 0.73390 0.46350 -0.50300
O 	O 	0.72130 0.67350 0.44750 -0.31800
O 	O 	0.67690 0.39660 0.49150 -0.44200
O 	O 	0.57330 0.36330 0.56960 -0.42600
O 	O 	0.37690 0.66720 0.64110 -0.36600
O 	O 	0.41570 0.57260 0.70480 -0.22700
O 	O 	0.14410 0.74880 0.18050 -0.42300
O 	O 	0.99040 0.77110 0.17370 -0.39900
O 	O 	0.81480 0.80890 0.38340 -0.38900
O 	O 	0.89310 0.81770 0.47870 -0.22100
O 	O 	0.73380 0.84240 0.52020 -0.26300
O 	O 	0.78050 0.95600 0.55560 -0.20600
O 	O 	0.19060 0.26160 0.89370 -0.40100
O 	O 	0.28100 0.24380 0.98350 -0.43600
O 	O 	0.09080 0.26770 0.02790 -0.50000
O 	O 	0.18260 0.32190 0.10200 -0.33600
O 	O 	0.97110 0.64210 0.08790 -0.43300
O 	O 	0.12110 0.60720 0.09830 -0.42600
O 	O 	0.91060 0.23390 0.96350 -0.50300
O 	O 	0.77870 0.17350 0.94750 -0.31900
O 	O 	0.82310 0.89660 0.99150 -0.44100
O 	O 	0.92670 0.86330 0.06960 -0.42600
O 	O 	0.12310 0.16720 0.14110 -0.36600
O 	O 	0.08430 0.07260 0.20480 -0.22700
O 	O 	0.35590 0.24880 0.68050 -0.42300
O 	O 	0.50960 0.27110 0.67370 -0.40000
O 	O 	0.68520 0.30890 0.88340 -0.39000
O 	O 	0.60690 0.31770 0.97870 -0.22100
O 	O 	0.76620 0.34240 0.02020 -0.26300
O 	O 	0.71950 0.45600 0.05560 -0.20600
O 	O 	0.69060 0.23840 0.60630 -0.40100
O 	O 	0.78100 0.25620 0.51650 -0.43600
O 	O 	0.59080 0.23230 0.47210 -0.50000
O 	O 	0.68260 0.17810 0.39800 -0.33600
O 	O 	0.47110 0.85790 0.41210 -0.43300
O 	O 	0.62110 0.89280 0.40170 -0.42600
O 	O 	0.41060 0.26610 0.53650 -0.50300
O 	O 	0.27870 0.32650 0.55250 -0.31800
O 	O 	0.32310 0.60340 0.50850 -0.44200
O 	O 	0.42670 0.63670 0.43040 -0.42600
O 	O 	0.62310 0.33280 0.35890 -0.36600
O 	O 	0.58430 0.42740 0.29520 -0.22700
O 	O 	0.85590 0.25120 0.81950 -0.42300
O 	O 	0.00960 0.22890 0.82630 -0.39900
O 	O 	0.18520 0.19110 0.61660 -0.38900
O 	O 	0.10690 0.18230 0.52130 -0.22100
O 	O 	0.26620 0.15760 0.47980 -0.26300
O 	O 	0.21950 0.04400 0.44440 -0.20600
