data_crystal

_cell_length_a 15.19880
_cell_length_b 19.20390
_cell_length_c 25.75400
_cell_angle_alpha 90.00000
_cell_angle_beta  90.00000
_cell_angle_gamma 90.00000

_symmetry_space_group_name_	'P 1'
_symmetry_space_group_name_H-M	'P 1'

loop_
_symmetry_equiv_pos_as_xyz
  x,y,z

loop_
_atom_site_label
_atom_site_type_symbol
_atom_site_fract_x
_atom_site_fract_y
_atom_site_fract_z
_atom_site_charge
Zn	Zn	0.42725 0.83813 0.23418 1.19100
Zn	Zn	0.46962 0.96392 0.45162 1.21500
N 	N 	0.41790 0.86900 0.30883 -0.31100
N 	N 	0.35820 0.83457 0.34010 -0.32100
N 	N 	0.42440 0.91510 0.38732 -0.34600
N 	N 	0.54000 0.78600 0.21873 -0.30400
O 	O 	0.48700 0.87905 0.49885 -0.44300
O 	O 	0.52760 0.93450 0.57079 -0.45800
O 	O 	0.60120 0.96110 0.43753 -0.45100
O 	O 	0.64380 0.01820 0.50825 -0.46300
O 	O 	0.83690 0.87900 0.31710 -0.47200
O 	O 	0.95430 0.93440 0.31040 -0.44500
O 	O 	0.96300 0.07940 0.47270 0.74400
C 	C 	0.52470 0.96580 0.32000 -0.89800
H 	H 	0.58110 0.94340 0.32200 0.27500
H 	H 	0.52480 0.00660 0.34150 0.28400
H 	H 	0.51290 0.97880 0.28470 0.26800
C 	C 	0.45560 0.91700 0.33828 0.31700
C 	C 	0.36360 0.86400 0.38623 0.29400
C 	C 	0.30830 0.84310 0.43110 -0.84700
H 	H 	0.26430 0.81060 0.41980 0.21900
H 	H 	0.28020 0.88350 0.44550 0.26100
H 	H 	0.34460 0.82170 0.45710 0.26300
C 	C 	0.51030 0.88110 0.54580 0.27400
C 	C 	0.51480 0.81260 0.57400 0.23200
C 	C 	0.52680 0.81180 0.62660 -0.66000
H 	H 	0.53090 0.85360 0.64470 0.25500
C 	C 	0.88370 0.92540 0.33160 0.29300
C 	C 	0.85560 0.96670 0.37770 0.13300
C 	C 	0.91720 0.01120 0.40090 -0.53000
H 	H 	0.97100 0.01980 0.38490 0.20100
C 	C 	0.89720 0.04230 0.44770 0.78700
C 	C 	0.80900 0.03930 0.46560 -0.50200
H 	H 	0.79200 0.06700 0.49350 0.19100
C 	C 	0.74930 0.99710 0.44290 0.14700
C 	C 	0.77350 0.96040 0.39850 -0.21600
H 	H 	0.73290 0.93100 0.38280 0.10800
C 	C 	0.65790 0.99130 0.46500 0.29800
C 	C 	0.65030 0.87860 0.20310 -0.86500
H 	H 	0.60110 0.90940 0.20780 0.25900
H 	H 	0.67670 0.88710 0.16990 0.24900
H 	H 	0.69280 0.88680 0.23000 0.24100
C 	C 	0.61970 0.80550 0.20580 0.29100
C 	C 	0.94360 0.11600 0.52320 -0.33700
H 	H 	0.92890 0.08160 0.54920 0.11500
H 	H 	0.89540 0.14930 0.52110 0.09800
C 	C 	0.03200 0.15200 0.53840 -0.17900
H 	H 	0.06820 0.15800 0.50830 0.05000
H 	H 	0.06270 0.12480 0.56380 0.07000
H 	H 	0.01740 0.19660 0.55280 0.05600
C 	C 	0.54400 0.81630 0.73770 -0.00300
H 	H 	0.49980 0.84970 0.72710 0.00500
H 	H 	0.60190 0.83690 0.73270 0.01200
C 	C 	0.53100 0.79470 0.79530 -0.93500
H 	H 	0.55810 0.82860 0.81750 0.27800
H 	H 	0.46900 0.79240 0.80280 0.28200
H 	H 	0.94050 0.06460 0.46710 -0.92100
Zn	Zn	0.07275 0.16187 0.73418 1.19000
Zn	Zn	0.03038 0.03608 0.95162 1.21300
N 	N 	0.08210 0.13100 0.80883 -0.31000
N 	N 	0.14180 0.16543 0.84010 -0.32200
N 	N 	0.07560 0.08490 0.88732 -0.34400
N 	N 	0.96000 0.21400 0.71873 -0.30400
O 	O 	0.01300 0.12095 0.99885 -0.44800
O 	O 	0.97240 0.06550 0.07079 -0.45700
O 	O 	0.89880 0.03890 0.93753 -0.44800
O 	O 	0.85620 0.98180 0.00825 -0.46800
O 	O 	0.66310 0.12100 0.81710 -0.47000
O 	O 	0.54570 0.06560 0.81040 -0.44100
O 	O 	0.53700 0.92060 0.97270 0.73500
C 	C 	0.97530 0.03420 0.82000 -0.85100
H 	H 	0.91890 0.05660 0.82200 0.26200
H 	H 	0.97520 0.99340 0.84150 0.26500
H 	H 	0.98710 0.02120 0.78470 0.25700
C 	C 	0.04440 0.08300 0.83828 0.30000
C 	C 	0.13640 0.13600 0.88623 0.29400
C 	C 	0.19170 0.15690 0.93110 -0.84500
H 	H 	0.23570 0.18940 0.91980 0.21800
H 	H 	0.21980 0.11650 0.94550 0.26000
H 	H 	0.15540 0.17830 0.95710 0.26200
C 	C 	0.98970 0.11890 0.04580 0.28100
C 	C 	0.98520 0.18740 0.07400 0.22600
C 	C 	0.97320 0.18820 0.12660 -0.65100
H 	H 	0.96910 0.14640 0.14470 0.25400
C 	C 	0.61630 0.07460 0.83160 0.28800
C 	C 	0.64440 0.03330 0.87770 0.14700
C 	C 	0.58280 0.98880 0.90090 -0.54500
H 	H 	0.52900 0.98020 0.88490 0.20500
C 	C 	0.60280 0.95770 0.94770 0.79300
C 	C 	0.69100 0.96070 0.96560 -0.51700
H 	H 	0.70800 0.93300 0.99350 0.19600
C 	C 	0.75070 0.00290 0.94290 0.16100
C 	C 	0.72650 0.03960 0.89850 -0.22600
H 	H 	0.76710 0.06900 0.88280 0.11200
C 	C 	0.84210 0.00870 0.96500 0.30200
C 	C 	0.84970 0.12140 0.70310 -0.86900
H 	H 	0.89890 0.09060 0.70780 0.26200
H 	H 	0.82330 0.11290 0.66990 0.25100
H 	H 	0.80720 0.11320 0.73000 0.24300
C 	C 	0.88030 0.19450 0.70580 0.29300
C 	C 	0.55640 0.88400 0.02320 -0.33800
H 	H 	0.57110 0.91840 0.04920 0.11500
H 	H 	0.60460 0.85070 0.02110 0.09800
C 	C 	0.46800 0.84800 0.03840 -0.17300
H 	H 	0.43180 0.84200 0.00830 0.05000
H 	H 	0.43730 0.87520 0.06380 0.07000
H 	H 	0.48260 0.80340 0.05280 0.05500
C 	C 	0.95600 0.18370 0.23770 -0.01100
H 	H 	0.00020 0.15030 0.22710 0.00500
H 	H 	0.89810 0.16310 0.23270 0.01600
C 	C 	0.96900 0.20530 0.29530 -0.89700
H 	H 	0.94190 0.17140 0.31750 0.26800
H 	H 	0.03100 0.20760 0.30280 0.26900
H 	H 	0.55950 0.93540 0.96710 -0.91500
Zn	Zn	0.57275 0.33813 0.76582 1.19000
Zn	Zn	0.53038 0.46392 0.54838 1.21400
N 	N 	0.58210 0.36900 0.69117 -0.31200
N 	N 	0.64180 0.33457 0.65990 -0.32200
N 	N 	0.57560 0.41510 0.61268 -0.34600
N 	N 	0.46000 0.28600 0.78127 -0.30500
O 	O 	0.51300 0.37905 0.50115 -0.44300
O 	O 	0.47240 0.43450 0.42921 -0.45800
O 	O 	0.39880 0.46110 0.56247 -0.45000
O 	O 	0.35620 0.51820 0.49175 -0.46400
O 	O 	0.16310 0.37900 0.68290 -0.47100
O 	O 	0.04570 0.43440 0.68960 -0.44200
O 	O 	0.03700 0.57940 0.52730 0.73800
C 	C 	0.47530 0.46580 0.68000 -0.89700
H 	H 	0.41890 0.44340 0.67800 0.27500
H 	H 	0.47520 0.50660 0.65850 0.28300
H 	H 	0.48710 0.47880 0.71530 0.26800
C 	C 	0.54440 0.41700 0.66172 0.31600
C 	C 	0.63640 0.36400 0.61377 0.29400
C 	C 	0.69170 0.34310 0.56890 -0.84600
H 	H 	0.73570 0.31060 0.58020 0.21800
H 	H 	0.71980 0.38350 0.55450 0.26100
H 	H 	0.65540 0.32170 0.54290 0.26300
C 	C 	0.48970 0.38110 0.45420 0.27400
C 	C 	0.48520 0.31260 0.42600 0.23200
C 	C 	0.47320 0.31180 0.37340 -0.66000
H 	H 	0.46910 0.35360 0.35530 0.25500
C 	C 	0.11630 0.42540 0.66840 0.29000
C 	C 	0.14440 0.46670 0.62230 0.14300
C 	C 	0.08280 0.51120 0.59910 -0.54000
H 	H 	0.02900 0.51980 0.61510 0.20300
C 	C 	0.10280 0.54230 0.55230 0.79100
C 	C 	0.19100 0.53930 0.53440 -0.51000
H 	H 	0.20800 0.56700 0.50650 0.19400
C 	C 	0.25070 0.49710 0.55710 0.15500
C 	C 	0.22650 0.46040 0.60150 -0.22200
H 	H 	0.26710 0.43100 0.61720 0.11100
C 	C 	0.34210 0.49130 0.53500 0.29800
C 	C 	0.34970 0.37860 0.79690 -0.86500
H 	H 	0.39890 0.40940 0.79220 0.26000
H 	H 	0.32330 0.38710 0.83010 0.24900
H 	H 	0.30720 0.38680 0.77000 0.24200
C 	C 	0.38030 0.30550 0.79420 0.29100
C 	C 	0.05640 0.61600 0.47680 -0.33800
H 	H 	0.07110 0.58160 0.45080 0.11500
H 	H 	0.10460 0.64930 0.47890 0.09800
C 	C 	0.96800 0.65200 0.46160 -0.17400
H 	H 	0.93180 0.65800 0.49170 0.04900
H 	H 	0.93730 0.62480 0.43620 0.07000
H 	H 	0.98260 0.69660 0.44720 0.05400
C 	C 	0.45600 0.31630 0.26230 -0.00300
H 	H 	0.50020 0.34970 0.27290 0.00500
H 	H 	0.39810 0.33690 0.26730 0.01300
C 	C 	0.46900 0.29470 0.20470 -0.93500
H 	H 	0.44190 0.32860 0.18250 0.27800
H 	H 	0.53100 0.29240 0.19720 0.28200
H 	H 	0.05950 0.56460 0.53290 -0.91700
Zn	Zn	0.92725 0.66187 0.26582 1.19000
Zn	Zn	0.96962 0.53608 0.04838 1.21400
N 	N 	0.91790 0.63100 0.19117 -0.31200
N 	N 	0.85820 0.66543 0.15990 -0.32200
N 	N 	0.92440 0.58490 0.11268 -0.34600
N 	N 	0.04000 0.71400 0.28127 -0.30400
O 	O 	0.98700 0.62095 0.00115 -0.44500
O 	O 	0.02760 0.56550 0.92921 -0.45900
O 	O 	0.10120 0.53890 0.06247 -0.45000
O 	O 	0.14380 0.48180 0.99175 -0.46400
O 	O 	0.33690 0.62100 0.18290 -0.47000
O 	O 	0.45430 0.56560 0.18960 -0.44100
O 	O 	0.46300 0.42060 0.02730 0.73900
C 	C 	0.02470 0.53420 0.18000 -0.89300
H 	H 	0.08110 0.55660 0.17800 0.27400
H 	H 	0.02480 0.49340 0.15850 0.28200
H 	H 	0.01290 0.52120 0.21530 0.26700
C 	C 	0.95560 0.58300 0.16172 0.31500
C 	C 	0.86360 0.63600 0.11377 0.29400
C 	C 	0.80830 0.65690 0.06890 -0.84500
H 	H 	0.76430 0.68940 0.08020 0.21800
H 	H 	0.78020 0.61650 0.05450 0.26000
H 	H 	0.84460 0.67830 0.04290 0.26200
C 	C 	0.01030 0.61890 0.95420 0.27800
C 	C 	0.01480 0.68740 0.92600 0.22600
C 	C 	0.02680 0.68820 0.87340 -0.65100
H 	H 	0.03090 0.64640 0.85530 0.25300
C 	C 	0.38370 0.57460 0.16840 0.29000
C 	C 	0.35560 0.53330 0.12230 0.14300
C 	C 	0.41720 0.48880 0.09910 -0.54000
H 	H 	0.47100 0.48020 0.11510 0.20300
C 	C 	0.39720 0.45770 0.05230 0.79100
C 	C 	0.30900 0.46070 0.03440 -0.51100
H 	H 	0.29200 0.43300 0.00650 0.19400
C 	C 	0.24930 0.50290 0.05710 0.15500
C 	C 	0.27350 0.53960 0.10150 -0.22300
H 	H 	0.23290 0.56900 0.11720 0.11100
C 	C 	0.15790 0.50870 0.03500 0.29800
C 	C 	0.15030 0.62140 0.29690 -0.86600
H 	H 	0.10110 0.59060 0.29220 0.26000
H 	H 	0.17670 0.61290 0.33010 0.25000
H 	H 	0.19280 0.61320 0.27000 0.24200
C 	C 	0.11970 0.69450 0.29420 0.29100
C 	C 	0.44360 0.38400 0.97680 -0.34100
H 	H 	0.42890 0.41840 0.95080 0.11500
H 	H 	0.39540 0.35070 0.97890 0.09900
C 	C 	0.53200 0.34800 0.96160 -0.17000
H 	H 	0.56820 0.34200 0.99170 0.04800
H 	H 	0.56270 0.37520 0.93620 0.06900
H 	H 	0.51740 0.30340 0.94720 0.05400
C 	C 	0.04400 0.68370 0.76230 -0.01500
H 	H 	0.99980 0.65030 0.77290 0.00700
H 	H 	0.10190 0.66310 0.76730 0.01600
C 	C 	0.03100 0.70530 0.70470 -0.89700
H 	H 	0.05810 0.67140 0.68250 0.26700
H 	H 	0.96900 0.70760 0.69720 0.27000
H 	H 	0.44050 0.43540 0.03290 -0.91700
Zn	Zn	0.57275 0.16187 0.76582 1.19000
Zn	Zn	0.53038 0.03608 0.54838 1.21400
N 	N 	0.58210 0.13100 0.69117 -0.31200
N 	N 	0.64180 0.16543 0.65990 -0.32200
N 	N 	0.57560 0.08490 0.61268 -0.34700
N 	N 	0.46000 0.21400 0.78127 -0.30500
O 	O 	0.51300 0.12095 0.50115 -0.44300
O 	O 	0.47240 0.06550 0.42921 -0.45800
O 	O 	0.39880 0.03890 0.56247 -0.45100
O 	O 	0.35620 0.98180 0.49175 -0.46300
O 	O 	0.16310 0.12100 0.68290 -0.47200
O 	O 	0.04570 0.06560 0.68960 -0.44500
O 	O 	0.03700 0.92060 0.52730 0.74400
C 	C 	0.47530 0.03420 0.68000 -0.89800
H 	H 	0.41890 0.05660 0.67800 0.27500
H 	H 	0.47520 0.99340 0.65850 0.28400
H 	H 	0.48710 0.02120 0.71530 0.26800
C 	C 	0.54440 0.08300 0.66172 0.31700
C 	C 	0.63640 0.13600 0.61377 0.29400
C 	C 	0.69170 0.15690 0.56890 -0.84700
H 	H 	0.73570 0.18940 0.58020 0.21900
H 	H 	0.71980 0.11650 0.55450 0.26100
H 	H 	0.65540 0.17830 0.54290 0.26300
C 	C 	0.48970 0.11890 0.45420 0.27400
C 	C 	0.48520 0.18740 0.42600 0.23200
C 	C 	0.47320 0.18820 0.37340 -0.66000
H 	H 	0.46910 0.14640 0.35530 0.25500
C 	C 	0.11630 0.07460 0.66840 0.29300
C 	C 	0.14440 0.03330 0.62230 0.13300
C 	C 	0.08280 0.98880 0.59910 -0.53000
H 	H 	0.02900 0.98020 0.61510 0.20100
C 	C 	0.10280 0.95770 0.55230 0.78700
C 	C 	0.19100 0.96070 0.53440 -0.50200
H 	H 	0.20800 0.93300 0.50650 0.19100
C 	C 	0.25070 0.00290 0.55710 0.14700
C 	C 	0.22650 0.03960 0.60150 -0.21600
H 	H 	0.26710 0.06900 0.61720 0.10800
C 	C 	0.34210 0.00870 0.53500 0.29800
C 	C 	0.34970 0.12140 0.79690 -0.86500
H 	H 	0.39890 0.09060 0.79220 0.25900
H 	H 	0.32330 0.11290 0.83010 0.24900
H 	H 	0.30720 0.11320 0.77000 0.24100
C 	C 	0.38030 0.19450 0.79420 0.29100
C 	C 	0.05640 0.88400 0.47680 -0.33700
H 	H 	0.07110 0.91840 0.45080 0.11500
H 	H 	0.10460 0.85070 0.47890 0.09800
C 	C 	0.96800 0.84800 0.46160 -0.17900
H 	H 	0.93180 0.84200 0.49170 0.05000
H 	H 	0.93730 0.87520 0.43620 0.07000
H 	H 	0.98260 0.80340 0.44720 0.05600
C 	C 	0.45600 0.18370 0.26230 -0.00300
H 	H 	0.50020 0.15030 0.27290 0.00500
H 	H 	0.39810 0.16310 0.26730 0.01200
C 	C 	0.46900 0.20530 0.20470 -0.93500
H 	H 	0.44190 0.17140 0.18250 0.27800
H 	H 	0.53100 0.20760 0.19720 0.28200
H 	H 	0.05950 0.93540 0.53290 -0.92100
Zn	Zn	0.92725 0.83813 0.26582 1.19000
Zn	Zn	0.96962 0.96392 0.04838 1.21300
N 	N 	0.91790 0.86900 0.19117 -0.31000
N 	N 	0.85820 0.83457 0.15990 -0.32200
N 	N 	0.92440 0.91510 0.11268 -0.34400
N 	N 	0.04000 0.78600 0.28127 -0.30400
O 	O 	0.98700 0.87905 0.00115 -0.44800
O 	O 	0.02760 0.93450 0.92921 -0.45700
O 	O 	0.10120 0.96110 0.06247 -0.44800
O 	O 	0.14380 0.01820 0.99175 -0.46800
O 	O 	0.33690 0.87900 0.18290 -0.47000
O 	O 	0.45430 0.93440 0.18960 -0.44100
O 	O 	0.46300 0.07940 0.02730 0.73500
C 	C 	0.02470 0.96580 0.18000 -0.85100
H 	H 	0.08110 0.94340 0.17800 0.26200
H 	H 	0.02480 0.00660 0.15850 0.26500
H 	H 	0.01290 0.97880 0.21530 0.25700
C 	C 	0.95560 0.91700 0.16172 0.30000
C 	C 	0.86360 0.86400 0.11377 0.29400
C 	C 	0.80830 0.84310 0.06890 -0.84500
H 	H 	0.76430 0.81060 0.08020 0.21800
H 	H 	0.78020 0.88350 0.05450 0.26000
H 	H 	0.84460 0.82170 0.04290 0.26200
C 	C 	0.01030 0.88110 0.95420 0.28100
C 	C 	0.01480 0.81260 0.92600 0.22600
C 	C 	0.02680 0.81180 0.87340 -0.65100
H 	H 	0.03090 0.85360 0.85530 0.25400
C 	C 	0.38370 0.92540 0.16840 0.28800
C 	C 	0.35560 0.96670 0.12230 0.14700
C 	C 	0.41720 0.01120 0.09910 -0.54500
H 	H 	0.47100 0.01980 0.11510 0.20500
C 	C 	0.39720 0.04230 0.05230 0.79300
C 	C 	0.30900 0.03930 0.03440 -0.51700
H 	H 	0.29200 0.06700 0.00650 0.19600
C 	C 	0.24930 0.99710 0.05710 0.16100
C 	C 	0.27350 0.96040 0.10150 -0.22600
H 	H 	0.23290 0.93100 0.11720 0.11200
C 	C 	0.15790 0.99130 0.03500 0.30200
C 	C 	0.15030 0.87860 0.29690 -0.86900
H 	H 	0.10110 0.90940 0.29220 0.26200
H 	H 	0.17670 0.88710 0.33010 0.25100
H 	H 	0.19280 0.88680 0.27000 0.24300
C 	C 	0.11970 0.80550 0.29420 0.29300
C 	C 	0.44360 0.11600 0.97680 -0.33800
H 	H 	0.42890 0.08160 0.95080 0.11500
H 	H 	0.39540 0.14930 0.97890 0.09800
C 	C 	0.53200 0.15200 0.96160 -0.17300
H 	H 	0.56820 0.15800 0.99170 0.05000
H 	H 	0.56270 0.12480 0.93620 0.07000
H 	H 	0.51740 0.19660 0.94720 0.05500
C 	C 	0.04400 0.81630 0.76230 -0.01100
H 	H 	0.99980 0.84970 0.77290 0.00500
H 	H 	0.10190 0.83690 0.76730 0.01600
C 	C 	0.03100 0.79470 0.70470 -0.89700
H 	H 	0.05810 0.82860 0.68250 0.26800
H 	H 	0.96900 0.79240 0.69720 0.26900
H 	H 	0.44050 0.06460 0.03290 -0.91500
Zn	Zn	0.42725 0.66187 0.23418 1.19000
Zn	Zn	0.46962 0.53608 0.45162 1.21400
N 	N 	0.41790 0.63100 0.30883 -0.31200
N 	N 	0.35820 0.66543 0.34010 -0.32200
N 	N 	0.42440 0.58490 0.38732 -0.34600
N 	N 	0.54000 0.71400 0.21873 -0.30500
O 	O 	0.48700 0.62095 0.49885 -0.44300
O 	O 	0.52760 0.56550 0.57079 -0.45800
O 	O 	0.60120 0.53890 0.43753 -0.45000
O 	O 	0.64380 0.48180 0.50825 -0.46400
O 	O 	0.83690 0.62100 0.31710 -0.47100
O 	O 	0.95430 0.56560 0.31040 -0.44200
O 	O 	0.96300 0.42060 0.47270 0.73800
C 	C 	0.52470 0.53420 0.32000 -0.89700
H 	H 	0.58110 0.55660 0.32200 0.27500
H 	H 	0.52480 0.49340 0.34150 0.28300
H 	H 	0.51290 0.52120 0.28470 0.26800
C 	C 	0.45560 0.58300 0.33828 0.31600
C 	C 	0.36360 0.63600 0.38623 0.29400
C 	C 	0.30830 0.65690 0.43110 -0.84600
H 	H 	0.26430 0.68940 0.41980 0.21800
H 	H 	0.28020 0.61650 0.44550 0.26100
H 	H 	0.34460 0.67830 0.45710 0.26300
C 	C 	0.51030 0.61890 0.54580 0.27400
C 	C 	0.51480 0.68740 0.57400 0.23200
C 	C 	0.52680 0.68820 0.62660 -0.66000
H 	H 	0.53090 0.64640 0.64470 0.25500
C 	C 	0.88370 0.57460 0.33160 0.29000
C 	C 	0.85560 0.53330 0.37770 0.14300
C 	C 	0.91720 0.48880 0.40090 -0.54000
H 	H 	0.97100 0.48020 0.38490 0.20300
C 	C 	0.89720 0.45770 0.44770 0.79100
C 	C 	0.80900 0.46070 0.46560 -0.51000
H 	H 	0.79200 0.43300 0.49350 0.19400
C 	C 	0.74930 0.50290 0.44290 0.15500
C 	C 	0.77350 0.53960 0.39850 -0.22200
H 	H 	0.73290 0.56900 0.38280 0.11100
C 	C 	0.65790 0.50870 0.46500 0.29800
C 	C 	0.65030 0.62140 0.20310 -0.86500
H 	H 	0.60110 0.59060 0.20780 0.26000
H 	H 	0.67670 0.61290 0.16990 0.24900
H 	H 	0.69280 0.61320 0.23000 0.24200
C 	C 	0.61970 0.69450 0.20580 0.29100
C 	C 	0.94360 0.38400 0.52320 -0.33800
H 	H 	0.92890 0.41840 0.54920 0.11500
H 	H 	0.89540 0.35070 0.52110 0.09800
C 	C 	0.03200 0.34800 0.53840 -0.17400
H 	H 	0.06820 0.34200 0.50830 0.04900
H 	H 	0.06270 0.37520 0.56380 0.07000
H 	H 	0.01740 0.30340 0.55280 0.05400
C 	C 	0.54400 0.68370 0.73770 -0.00300
H 	H 	0.49980 0.65030 0.72710 0.00500
H 	H 	0.60190 0.66310 0.73270 0.01300
C 	C 	0.53100 0.70530 0.79530 -0.93500
H 	H 	0.55810 0.67140 0.81750 0.27800
H 	H 	0.46900 0.70760 0.80280 0.28200
H 	H 	0.94050 0.43540 0.46710 -0.91700
Zn	Zn	0.07275 0.33813 0.73418 1.19000
Zn	Zn	0.03038 0.46392 0.95162 1.21400
N 	N 	0.08210 0.36900 0.80883 -0.31200
N 	N 	0.14180 0.33457 0.84010 -0.32200
N 	N 	0.07560 0.41510 0.88732 -0.34600
N 	N 	0.96000 0.28600 0.71873 -0.30400
O 	O 	0.01300 0.37905 0.99885 -0.44500
O 	O 	0.97240 0.43450 0.07079 -0.45900
O 	O 	0.89880 0.46110 0.93753 -0.45000
O 	O 	0.85620 0.51820 0.00825 -0.46400
O 	O 	0.66310 0.37900 0.81710 -0.47000
O 	O 	0.54570 0.43440 0.81040 -0.44100
O 	O 	0.53700 0.57940 0.97270 0.73900
C 	C 	0.97530 0.46580 0.82000 -0.89300
H 	H 	0.91890 0.44340 0.82200 0.27400
H 	H 	0.97520 0.50660 0.84150 0.28200
H 	H 	0.98710 0.47880 0.78470 0.26700
C 	C 	0.04440 0.41700 0.83828 0.31500
C 	C 	0.13640 0.36400 0.88623 0.29400
C 	C 	0.19170 0.34310 0.93110 -0.84500
H 	H 	0.23570 0.31060 0.91980 0.21800
H 	H 	0.21980 0.38350 0.94550 0.26000
H 	H 	0.15540 0.32170 0.95710 0.26200
C 	C 	0.98970 0.38110 0.04580 0.27800
C 	C 	0.98520 0.31260 0.07400 0.22600
C 	C 	0.97320 0.31180 0.12660 -0.65100
H 	H 	0.96910 0.35360 0.14470 0.25300
C 	C 	0.61630 0.42540 0.83160 0.29000
C 	C 	0.64440 0.46670 0.87770 0.14300
C 	C 	0.58280 0.51120 0.90090 -0.54000
H 	H 	0.52900 0.51980 0.88490 0.20300
C 	C 	0.60280 0.54230 0.94770 0.79100
C 	C 	0.69100 0.53930 0.96560 -0.51100
H 	H 	0.70800 0.56700 0.99350 0.19400
C 	C 	0.75070 0.49710 0.94290 0.15500
C 	C 	0.72650 0.46040 0.89850 -0.22300
H 	H 	0.76710 0.43100 0.88280 0.11100
C 	C 	0.84210 0.49130 0.96500 0.29800
C 	C 	0.84970 0.37860 0.70310 -0.86600
H 	H 	0.89890 0.40940 0.70780 0.26000
H 	H 	0.82330 0.38710 0.66990 0.25000
H 	H 	0.80720 0.38680 0.73000 0.24200
C 	C 	0.88030 0.30550 0.70580 0.29100
C 	C 	0.55640 0.61600 0.02320 -0.34100
H 	H 	0.57110 0.58160 0.04920 0.11500
H 	H 	0.60460 0.64930 0.02110 0.09900
C 	C 	0.46800 0.65200 0.03840 -0.17000
H 	H 	0.43180 0.65800 0.00830 0.04800
H 	H 	0.43730 0.62480 0.06380 0.06900
H 	H 	0.48260 0.69660 0.05280 0.05400
C 	C 	0.95600 0.31630 0.23770 -0.01500
H 	H 	0.00020 0.34970 0.22710 0.00700
H 	H 	0.89810 0.33690 0.23270 0.01600
C 	C 	0.96900 0.29470 0.29530 -0.89700
H 	H 	0.94190 0.32860 0.31750 0.26700
H 	H 	0.03100 0.29240 0.30280 0.27000
H 	H 	0.55950 0.56460 0.96710 -0.91700
Zn	Zn	0.29969 0.75000 0.31236 1.17000
N 	N 	0.67170 0.75000 0.19650 -0.39700
O 	O 	0.35470 0.75000 0.24280 -0.89700
H 	H 	0.30580 0.75000 0.22440 0.23800
O 	O 	0.53580 0.75000 0.70670 0.70600
C 	C 	0.53300 0.75000 0.65280 0.95400
C 	C 	0.50690 0.75000 0.54740 -0.29500
H 	H 	0.49630 0.75000 0.51190 0.13600
H 	H 	0.54130 0.75000 0.68850 -0.94300
H 	H 	0.55710 0.75000 0.80110 0.62700
Zn	Zn	0.20031 0.25000 0.81236 1.17000
N 	N 	0.82830 0.25000 0.69650 -0.39700
O 	O 	0.14530 0.25000 0.74280 -0.89800
H 	H 	0.19420 0.25000 0.72440 0.23700
O 	O 	0.96420 0.25000 0.20670 0.70300
C 	C 	0.96700 0.25000 0.15280 0.94500
C 	C 	0.99310 0.25000 0.04740 -0.28400
H 	H 	0.00370 0.25000 0.01190 0.13100
H 	H 	0.95870 0.25000 0.18850 -0.93600
H 	H 	0.94290 0.25000 0.30110 0.60300
Zn	Zn	0.70031 0.25000 0.68764 1.17000
N 	N 	0.32830 0.25000 0.80350 -0.39700
O 	O 	0.64530 0.25000 0.75720 -0.89700
H 	H 	0.69420 0.25000 0.77560 0.23800
O 	O 	0.46420 0.25000 0.29330 0.70600
C 	C 	0.46700 0.25000 0.34720 0.95400
C 	C 	0.49310 0.25000 0.45260 -0.29500
H 	H 	0.50370 0.25000 0.48810 0.13600
H 	H 	0.45870 0.25000 0.31150 -0.94300
H 	H 	0.44290 0.25000 0.19890 0.62700
Zn	Zn	0.79969 0.75000 0.18764 1.17000
N 	N 	0.17170 0.75000 0.30350 -0.39700
O 	O 	0.85470 0.75000 0.25720 -0.89800
H 	H 	0.80580 0.75000 0.27560 0.23700
O 	O 	0.03580 0.75000 0.79330 0.70300
C 	C 	0.03300 0.75000 0.84720 0.94500
C 	C 	0.00690 0.75000 0.95260 -0.28400
H 	H 	0.99630 0.75000 0.98810 0.13100
H 	H 	0.04130 0.75000 0.81150 -0.93600
H 	H 	0.05710 0.75000 0.69890 0.60300
