data_crystal

_cell_length_a 11.38500
_cell_length_b 11.60600
_cell_length_c 19.12500
_cell_angle_alpha 90.00000
_cell_angle_beta  90.00000
_cell_angle_gamma 115.68400

_symmetry_space_group_name_	'P 1'
_symmetry_space_group_name_H-M	'P 1'

loop_
_symmetry_equiv_pos_as_xyz
  x,y,z

loop_
_atom_site_label
_atom_site_type_symbol
_atom_site_fract_x
_atom_site_fract_y
_atom_site_fract_z
_atom_site_charge
Ni	Ni	0.67351 0.82916 0.49506 1.09200
Ni	Ni	0.82649 0.67084 0.99506 1.10000
Ni	Ni	0.32649 0.17084 0.50494 1.07900
Ni	Ni	0.17351 0.32916 0.00494 1.06900
Ni	Ni	0.50000 0.50000 0.50000 1.14400
Ni	Ni	-0.00000 0.00000 -0.00000 1.09800
H 	H 	0.79190 0.51590 0.55190 0.05600
H 	H 	0.87060 0.36700 0.61010 0.04200
H 	H 	0.99040 0.72690 0.38820 0.02100
H 	H 	0.07600 0.60850 0.14620 0.03500
H 	H 	0.15840 0.48530 0.22740 0.05500
H 	H 	0.29300 0.48750 0.31620 0.03600
H 	H 	0.44940 0.86990 0.32580 0.05400
H 	H 	0.37600 0.98990 0.24410 0.06900
H 	H 	0.24760 0.99190 0.15300 0.05200
H 	H 	0.59630 0.04460 0.54050 0.12900
H 	H 	0.70860 0.17340 0.51380 0.15100
H 	H 	0.73830 0.08980 0.56970 0.12800
H 	H 	0.86460 0.04480 0.40900 0.13600
H 	H 	0.86590 0.17430 0.43460 0.15700
H 	H 	0.91040 0.09300 0.48540 0.13800
H 	H 	0.66520 0.01410 0.43750 0.08600
H 	H 	0.70810 0.98410 0.05190 0.04900
H 	H 	0.62940 0.13300 0.11010 0.03400
H 	H 	0.50960 0.77310 0.88820 0.02000
H 	H 	0.42400 0.89150 0.64620 0.05200
H 	H 	0.34160 0.01470 0.72740 0.03500
H 	H 	0.20700 0.01250 0.81620 0.00900
H 	H 	0.05060 0.63010 0.82580 0.04000
H 	H 	0.12400 0.51010 0.74410 0.05500
H 	H 	0.25240 0.50810 0.65300 0.04100
H 	H 	0.90370 0.45540 0.04050 0.15700
H 	H 	0.79140 0.32660 0.01380 0.15900
H 	H 	0.76170 0.41020 0.06970 0.14100
H 	H 	0.63540 0.45520 0.90900 0.14300
H 	H 	0.63410 0.32570 0.93460 0.16100
H 	H 	0.58960 0.40700 0.98540 0.14900
H 	H 	0.83480 0.48590 0.93750 0.09700
H 	H 	0.20810 0.48410 0.44810 0.07100
H 	H 	0.12940 0.63300 0.38990 0.08500
H 	H 	0.00960 0.27310 0.61180 0.05100
H 	H 	0.92400 0.39150 0.85380 0.05700
H 	H 	0.84160 0.51470 0.77260 0.07200
H 	H 	0.70700 0.51250 0.68380 0.04100
H 	H 	0.55060 0.13010 0.67420 0.04400
H 	H 	0.62400 0.01010 0.75590 0.05600
H 	H 	0.75240 0.00810 0.84700 0.03600
H 	H 	0.40370 0.95540 0.45950 0.14800
H 	H 	0.29140 0.82660 0.48620 0.15200
H 	H 	0.26170 0.91020 0.43030 0.13100
H 	H 	0.13540 0.95520 0.59100 0.13300
H 	H 	0.13410 0.82570 0.56540 0.13800
H 	H 	0.08960 0.90700 0.51460 0.11900
H 	H 	0.33480 0.98590 0.56250 0.10000
H 	H 	0.29190 0.01590 0.94810 0.07400
H 	H 	0.37060 0.86700 0.88990 0.09300
H 	H 	0.49040 0.22690 0.11180 0.05100
H 	H 	0.57600 0.10850 0.35380 0.04000
H 	H 	0.65840 0.98530 0.27260 0.09400
H 	H 	0.79300 0.98750 0.18380 0.06700
H 	H 	0.94940 0.36990 0.17420 0.05900
H 	H 	0.87600 0.48990 0.25590 0.07000
H 	H 	0.74760 0.49190 0.34700 0.04300
H 	H 	0.09630 0.54460 0.95950 0.12000
H 	H 	0.20860 0.67340 0.98620 0.14300
H 	H 	0.23830 0.58980 0.93030 0.11500
H 	H 	0.36460 0.54480 0.09100 0.12400
H 	H 	0.36590 0.67430 0.06540 0.13400
H 	H 	0.41040 0.59300 0.01460 0.10700
H 	H 	0.16520 0.51410 0.06250 0.08800
C 	C 	0.47260 0.67960 0.39010 0.36600
C 	C 	0.79100 0.69860 0.47080 0.32200
C 	C 	0.87710 0.62950 0.47080 -0.09700
C 	C 	0.86140 0.54000 0.52060 -0.02400
C 	C 	0.94860 0.48220 0.52440 0.01700
C 	C 	0.93710 0.39060 0.57680 -0.01400
C 	C 	0.98070 0.66600 0.42190 0.07900
C 	C 	0.05840 0.80500 0.08370 0.31900
C 	C 	0.14700 0.79920 0.14160 -0.07800
C 	C 	0.13760 0.68470 0.16610 -0.04500
C 	C 	0.21950 0.68030 0.22120 0.01400
C 	C 	0.21590 0.56300 0.24720 -0.09300
C 	C 	0.29620 0.56410 0.30010 0.00600
C 	C 	0.38420 0.67970 0.33080 -0.08300
C 	C 	0.39000 0.79300 0.30650 -0.04800
C 	C 	0.30930 0.79660 0.25140 0.02400
C 	C 	0.31700 0.91310 0.22470 -0.09300
C 	C 	0.23970 0.91420 0.17110 0.00800
C 	C 	0.68740 0.08750 0.52910 -0.37500
C 	C 	0.85100 0.08850 0.44850 -0.39000
C 	C 	0.02740 0.82040 0.89010 0.33400
C 	C 	0.70900 0.80140 0.97080 0.35700
C 	C 	0.62290 0.87050 0.97080 -0.08800
C 	C 	0.63860 0.96000 0.02060 0.01000
C 	C 	0.55140 0.01780 0.02440 -0.12100
C 	C 	0.56290 0.10940 0.07680 -0.02200
C 	C 	0.51930 0.83400 0.92190 0.06100
C 	C 	0.44160 0.69500 0.58370 0.36600
C 	C 	0.35300 0.70080 0.64160 -0.08500
C 	C 	0.36240 0.81530 0.66610 -0.03300
C 	C 	0.28050 0.81970 0.72120 0.00900
C 	C 	0.28410 0.93700 0.74720 -0.06000
C 	C 	0.20380 0.93590 0.80010 0.03900
C 	C 	0.11580 0.82030 0.83080 -0.08700
C 	C 	0.11000 0.70700 0.80650 -0.04700
C 	C 	0.19070 0.70340 0.75140 0.02200
C 	C 	0.18300 0.58690 0.72470 -0.09600
C 	C 	0.26030 0.58580 0.67110 0.01300
C 	C 	0.81260 0.41250 0.02910 -0.43600
C 	C 	0.64900 0.41150 0.94850 -0.39800
C 	C 	0.52740 0.32040 0.60990 0.37000
C 	C 	0.20900 0.30140 0.52920 0.30100
C 	C 	0.12290 0.37050 0.52920 -0.04600
C 	C 	0.13860 0.46000 0.47940 -0.08100
C 	C 	0.05140 0.51780 0.47560 0.03200
C 	C 	0.06290 0.60940 0.42320 -0.17000
C 	C 	0.01930 0.33400 0.57810 -0.08300
C 	C 	0.94160 0.19500 0.91630 0.40300
C 	C 	0.85300 0.20080 0.85840 -0.08800
C 	C 	0.86240 0.31530 0.83390 -0.03300
C 	C 	0.78050 0.31970 0.77880 0.02200
C 	C 	0.78410 0.43700 0.75280 -0.09500
C 	C 	0.70380 0.43590 0.69990 0.01400
C 	C 	0.61580 0.32030 0.66920 -0.08700
C 	C 	0.61000 0.20700 0.69350 -0.04000
C 	C 	0.69070 0.20340 0.74860 0.02100
C 	C 	0.68300 0.08690 0.77530 -0.09600
C 	C 	0.76030 0.08580 0.82890 0.01900
C 	C 	0.31260 0.91250 0.47090 -0.38300
C 	C 	0.14900 0.91150 0.55150 -0.36400
C 	C 	0.97260 0.17960 0.10990 0.41200
C 	C 	0.29100 0.19860 0.02920 0.25400
C 	C 	0.37710 0.12950 0.02920 -0.06500
C 	C 	0.36140 0.04000 0.97940 -0.09700
C 	C 	0.44860 0.98220 0.97560 0.16500
C 	C 	0.43710 0.89060 0.92320 -0.16400
C 	C 	0.48070 0.16600 0.07810 -0.06100
C 	C 	0.55840 0.30500 0.41630 0.36700
C 	C 	0.64700 0.29920 0.35840 -0.08600
C 	C 	0.63760 0.18470 0.33390 -0.04300
C 	C 	0.71950 0.18030 0.27880 0.02700
C 	C 	0.71590 0.06300 0.25280 -0.13000
C 	C 	0.79620 0.06410 0.19990 -0.01400
C 	C 	0.88420 0.17970 0.16920 -0.08500
C 	C 	0.89000 0.29300 0.19350 -0.03900
C 	C 	0.80930 0.29660 0.24860 0.02400
C 	C 	0.81700 0.41310 0.27530 -0.09500
C 	C 	0.73970 0.41420 0.32890 0.01700
C 	C 	0.18740 0.58750 0.97090 -0.31600
C 	C 	0.35100 0.58850 0.05150 -0.35500
N 	N 	0.71630 0.01680 0.47307 -0.18000
N 	N 	0.78370 0.48320 0.97307 -0.15600
N 	N 	0.28370 0.98320 0.52693 -0.17400
N 	N 	0.21630 0.51680 0.02693 -0.20200
O 	O 	0.44800 0.57070 0.41492 -0.41100
O 	O 	0.55910 0.78530 0.40915 -0.42600
O 	O 	0.68570 0.65490 0.50700 -0.49100
O 	O 	0.82740 0.80380 0.44034 -0.38100
O 	O 	0.97690 0.69920 0.05923 -0.41800
O 	O 	0.07210 0.91460 0.06748 -0.41100
O 	O 	0.05200 0.92930 0.91492 -0.38400
O 	O 	0.94090 0.71470 0.90915 -0.39500
O 	O 	0.81430 0.84510 0.00700 -0.51000
O 	O 	0.67260 0.69620 0.94034 -0.39200
O 	O 	0.52310 0.80080 0.55923 -0.43800
O 	O 	0.42790 0.58540 0.56748 -0.41700
O 	O 	0.55200 0.42930 0.58508 -0.41000
O 	O 	0.44090 0.21470 0.59085 -0.43900
O 	O 	0.31430 0.34510 0.49300 -0.49200
O 	O 	0.17260 0.19620 0.55966 -0.40200
O 	O 	0.02310 0.30080 0.94077 -0.46300
O 	O 	0.92790 0.08540 0.93252 -0.40700
O 	O 	0.94800 0.07070 0.08508 -0.42100
O 	O 	0.05910 0.28530 0.09085 -0.48000
O 	O 	0.18570 0.15490 0.99300 -0.45000
O 	O 	0.32740 0.30380 0.05966 -0.38700
O 	O 	0.47690 0.19920 0.44077 -0.45400
O 	O 	0.57210 0.41460 0.43252 -0.41900
