data_crystal

_cell_length_a 7.14900
_cell_length_b 10.46800
_cell_length_c 11.29500
_cell_angle_alpha 90.00000
_cell_angle_beta  90.00000
_cell_angle_gamma 90.00000

_symmetry_space_group_name_	'P 1'
_symmetry_space_group_name_H-M	'P 1'

loop_
_symmetry_equiv_pos_as_xyz
  x,y,z

loop_
_atom_site_label
_atom_site_type_symbol
_atom_site_fract_x
_atom_site_fract_y
_atom_site_fract_z
_atom_site_charge
Co	Co	0.10683 0.93586 0.54189 1.14200
Co	Co	0.39317 0.06414 0.04189 1.14200
Co	Co	0.89317 0.43586 0.95811 1.13700
Co	Co	0.60683 0.56414 0.45811 1.14100
H 	H 	0.19500 0.13690 0.86280 0.12800
H 	H 	0.32520 0.04130 0.81820 0.10200
H 	H 	0.35250 0.27730 0.77970 0.08800
H 	H 	0.49110 0.12370 0.66010 -0.00800
H 	H 	0.62560 0.23910 0.68400 -0.01100
H 	H 	0.64930 0.00380 0.80450 0.14200
H 	H 	0.78470 0.11880 0.82660 0.15500
H 	H 	0.30500 0.86310 0.36280 0.12500
H 	H 	0.17480 0.95870 0.31820 0.09800
H 	H 	0.14750 0.72270 0.27970 0.09100
H 	H 	0.00890 0.87630 0.16010 -0.01900
H 	H 	0.87440 0.76090 0.18400 -0.01700
H 	H 	0.85070 0.99620 0.30450 0.14800
H 	H 	0.71530 0.88120 0.32660 0.16200
H 	H 	0.80500 0.63690 0.63720 0.12500
H 	H 	0.67480 0.54130 0.68180 0.09900
H 	H 	0.64750 0.77730 0.72030 0.08800
H 	H 	0.50890 0.62370 0.83990 -0.01000
H 	H 	0.37440 0.73910 0.81600 -0.01200
H 	H 	0.35070 0.50380 0.69550 0.14300
H 	H 	0.21530 0.61880 0.67340 0.15900
H 	H 	0.69500 0.36310 0.13720 0.12600
H 	H 	0.82520 0.45870 0.18180 0.10000
H 	H 	0.85250 0.22270 0.22030 0.08700
H 	H 	0.99110 0.37630 0.33990 -0.01100
H 	H 	0.12560 0.26090 0.31600 -0.01100
H 	H 	0.14930 0.49620 0.19550 0.14300
H 	H 	0.28470 0.38120 0.17340 0.15800
C 	C 	0.54210 0.28050 0.91560 0.37000
C 	C 	0.84350 0.02380 0.67320 0.38600
C 	C 	0.43520 0.21360 0.81580 -0.18800
C 	C 	0.56420 0.16650 0.72060 0.11400
C 	C 	0.71160 0.07520 0.76660 -0.40600
C 	C 	0.95790 0.71950 0.41560 0.37600
C 	C 	0.65650 0.97620 0.17320 0.39300
C 	C 	0.06480 0.78640 0.31580 -0.20200
C 	C 	0.93580 0.83350 0.22060 0.13900
C 	C 	0.78840 0.92480 0.26660 -0.42000
C 	C 	0.45790 0.78050 0.58440 0.37200
C 	C 	0.15650 0.52380 0.82680 0.38900
C 	C 	0.56480 0.71360 0.68420 -0.19000
C 	C 	0.43580 0.66650 0.77940 0.11700
C 	C 	0.28840 0.57520 0.73340 -0.40900
C 	C 	0.04210 0.21950 0.08440 0.36500
C 	C 	0.34350 0.47620 0.32680 0.38900
C 	C 	0.93520 0.28640 0.18420 -0.18800
C 	C 	0.06420 0.33350 0.27940 0.11800
C 	C 	0.21160 0.42480 0.23340 -0.40900
N 	N 	0.31520 0.11120 0.86410 -0.31400
N 	N 	0.18480 0.88880 0.36410 -0.31100
N 	N 	0.68480 0.61120 0.63590 -0.31300
N 	N 	0.81520 0.38880 0.13590 -0.31300
O 	O 	0.99080 0.96520 0.71010 -0.42700
O 	O 	0.81480 0.03640 0.56540 -0.40000
O 	O 	0.52920 0.23570 0.01840 -0.44000
O 	O 	0.64210 0.37360 0.88480 -0.43700
O 	O 	0.50920 0.03480 0.21010 -0.42700
O 	O 	0.68520 0.96360 0.06540 -0.39700
O 	O 	0.97080 0.76430 0.51840 -0.44300
O 	O 	0.85790 0.62640 0.38480 -0.43700
O 	O 	0.00920 0.46520 0.78990 -0.42200
O 	O 	0.18520 0.53640 0.93460 -0.39700
O 	O 	0.47080 0.73570 0.48160 -0.44200
O 	O 	0.35790 0.87360 0.61520 -0.43600
O 	O 	0.49080 0.53480 0.28990 -0.42500
O 	O 	0.31480 0.46360 0.43460 -0.39900
O 	O 	0.02920 0.26430 0.98160 -0.43300
O 	O 	0.14210 0.12640 0.11520 -0.43300
