data_crystal

_cell_length_a 9.41930
_cell_length_b 9.41930
_cell_length_c 17.47570
_cell_angle_alpha 90.00000
_cell_angle_beta  90.00000
_cell_angle_gamma 120.00000

_symmetry_space_group_name_	'P 1'
_symmetry_space_group_name_H-M	'P 1'

loop_
_symmetry_equiv_pos_as_xyz
  x,y,z

loop_
_atom_site_label
_atom_site_type_symbol
_atom_site_fract_x
_atom_site_fract_y
_atom_site_fract_z
_atom_site_charge
Ce	Ce	0.33333 0.66666 0.75000 2.13500
Ce	Ce	0.66667 0.33334 0.25000 2.13300
Ce	Ce	-0.00000 0.00000 -0.00000 2.03300
Ce	Ce	-0.00000 0.00000 0.50000 2.05100
H 	H 	0.56877 0.59492 0.92133 0.13100
H 	H 	0.50351 0.67626 0.97771 0.13100
H 	H 	0.02615 0.43123 0.92133 0.04100
H 	H 	0.17275 0.49649 0.97771 0.07800
H 	H 	0.40508 0.97385 0.92133 0.11600
H 	H 	0.32374 0.82725 0.97771 0.08000
H 	H 	0.56877 0.59492 0.57867 0.14400
H 	H 	0.50351 0.67626 0.52229 0.13500
H 	H 	0.02615 0.43123 0.57867 0.05500
H 	H 	0.17275 0.49649 0.52229 0.08400
H 	H 	0.40508 0.97385 0.57867 0.13000
H 	H 	0.32374 0.82725 0.52229 0.08500
H 	H 	0.97385 0.40508 0.07867 0.10700
H 	H 	0.82725 0.32374 0.02229 0.05800
H 	H 	0.59492 0.56877 0.07867 0.12300
H 	H 	0.67626 0.50351 0.02229 0.11400
H 	H 	0.43123 0.02615 0.07867 0.04200
H 	H 	0.49649 0.17275 0.02229 0.06700
H 	H 	0.97385 0.40508 0.42133 0.12700
H 	H 	0.82725 0.32374 0.47771 0.08300
H 	H 	0.59492 0.56877 0.42133 0.14200
H 	H 	0.67626 0.50351 0.47771 0.13700
H 	H 	0.43123 0.02615 0.42133 0.06100
H 	H 	0.49649 0.17275 0.47771 0.09000
C 	C 	0.64890 0.83380 0.89490 0.43900
C 	C 	0.59710 0.69180 0.94850 -0.24500
C 	C 	0.18490 0.35110 0.89490 0.40000
C 	C 	0.09470 0.40290 0.94850 -0.15100
C 	C 	0.16620 0.81510 0.89490 0.40700
C 	C 	0.30820 0.90530 0.94850 -0.04300
C 	C 	0.64890 0.83380 0.60510 0.45800
C 	C 	0.59710 0.69180 0.55150 -0.32700
C 	C 	0.18490 0.35110 0.60510 0.42000
C 	C 	0.09470 0.40290 0.55150 -0.24100
C 	C 	0.16620 0.81510 0.60510 0.42600
C 	C 	0.30820 0.90530 0.55150 -0.12700
C 	C 	0.81510 0.16620 0.10510 0.40500
C 	C 	0.90530 0.30820 0.05150 -0.06500
C 	C 	0.83380 0.64890 0.10510 0.44300
C 	C 	0.69180 0.59710 0.05150 -0.29200
C 	C 	0.35110 0.18490 0.10510 0.41000
C 	C 	0.40290 0.09470 0.05150 -0.21700
C 	C 	0.81510 0.16620 0.39490 0.42000
C 	C 	0.90530 0.30820 0.44850 -0.10300
C 	C 	0.83380 0.64890 0.39490 0.45700
C 	C 	0.69180 0.59710 0.44850 -0.32700
C 	C 	0.35110 0.18490 0.39490 0.42400
C 	C 	0.40290 0.09470 0.44850 -0.25200
O 	O 	0.54950 0.82120 0.84440 -0.48000
O 	O 	0.78920 0.95950 0.90390 -0.29700
O 	O 	0.27170 0.45050 0.84440 -0.52600
O 	O 	0.17030 0.21080 0.90390 -0.49300
O 	O 	0.17880 0.72830 0.84440 -0.52100
O 	O 	0.04050 0.82970 0.90390 -0.44800
O 	O 	0.54950 0.82120 0.65560 -0.48800
O 	O 	0.78920 0.95950 0.59610 -0.32300
O 	O 	0.27170 0.45050 0.65560 -0.53500
O 	O 	0.17030 0.21080 0.59610 -0.52400
O 	O 	0.17880 0.72830 0.65560 -0.53000
O 	O 	0.04050 0.82970 0.59610 -0.47600
O 	O 	0.72830 0.17880 0.15560 -0.52400
O 	O 	0.82970 0.04050 0.09610 -0.46600
O 	O 	0.82120 0.54950 0.15560 -0.48600
O 	O 	0.95950 0.78920 0.09610 -0.32400
O 	O 	0.45050 0.27170 0.15560 -0.53600
O 	O 	0.21080 0.17030 0.09610 -0.53100
O 	O 	0.72830 0.17880 0.34440 -0.52800
O 	O 	0.82970 0.04050 0.40390 -0.46500
O 	O 	0.82120 0.54950 0.34440 -0.48900
O 	O 	0.95950 0.78920 0.40390 -0.32300
O 	O 	0.45050 0.27170 0.34440 -0.53900
O 	O 	0.21080 0.17030 0.40390 -0.52900
O 	O 	0.72800 0.72800 -0.00000 -0.21200
O 	O 	0.00000 0.27200 -0.00000 -0.46100
O 	O 	0.27200 0.00000 -0.00000 -0.44300
O 	O 	0.72800 0.72800 0.50000 -0.15400
O 	O 	0.00000 0.27200 0.50000 -0.39800
O 	O 	0.27200 0.00000 0.50000 -0.38300
