data_crystal

_cell_length_a 7.99110
_cell_length_b 10.19830
_cell_length_c 12.10810
_cell_angle_alpha 65.09380
_cell_angle_beta  70.73190
_cell_angle_gamma 90.00000

_symmetry_space_group_name_	'P 1'
_symmetry_space_group_name_H-M	'P 1'

loop_
_symmetry_equiv_pos_as_xyz
  x,y,z

loop_
_atom_site_label
_atom_site_type_symbol
_atom_site_fract_x
_atom_site_fract_y
_atom_site_fract_z
_atom_site_charge
Cd	Cd	0.25000 0.75000 0.50000 1.19200
Cd	Cd	0.75000 0.25000 0.50000 1.20300
Cd	Cd	-0.00000 0.00000 -0.00000 1.00000
Cd	Cd	0.50000 0.50000 -0.00000 1.07800
H 	H 	0.23550 0.84070 0.19900 -0.06600
H 	H 	0.56550 0.96030 0.19900 -0.02800
H 	H 	0.26450 0.53970 0.80100 -0.02600
H 	H 	0.93450 0.65930 0.80100 0.03200
H 	H 	0.76450 0.15930 0.80100 -0.00900
H 	H 	0.43450 0.03970 0.80100 -0.04700
H 	H 	0.73550 0.46030 0.19900 -0.05300
H 	H 	0.06550 0.34070 0.19900 -0.11700
C 	C 	0.03879 0.99651 0.35042 0.18000
C 	C 	0.16740 0.89954 0.23120 0.08100
C 	C 	0.61079 0.65307 0.35042 0.15500
C 	C 	0.60140 0.86926 0.23120 0.09400
C 	C 	0.46121 0.84693 0.64958 0.17800
C 	C 	0.33260 0.63074 0.76880 0.09700
C 	C 	0.88921 0.50349 0.64958 0.17800
C 	C 	0.89860 0.60046 0.76880 0.11500
C 	C 	0.96121 0.00349 0.64958 0.12500
C 	C 	0.83260 0.10046 0.76880 0.10000
C 	C 	0.38921 0.34693 0.64958 0.14500
C 	C 	0.39860 0.13074 0.76880 0.08600
C 	C 	0.53879 0.15307 0.35042 0.12200
C 	C 	0.66740 0.36926 0.23120 0.08400
C 	C 	0.11079 0.49651 0.35042 0.12200
C 	C 	0.10140 0.39954 0.23120 0.06500
N 	N 	0.08118 0.99625 0.16724 -0.24200
N 	N 	0.99485 0.06088 0.24550 -0.16500
N 	N 	0.14629 0.89522 0.34682 -0.26900
N 	N 	0.97336 0.03571 0.45328 -0.16500
N 	N 	0.75158 0.83651 0.16724 -0.21800
N 	N 	0.75965 0.69362 0.24550 -0.12600
N 	N 	0.50689 0.75796 0.34682 -0.25800
N 	N 	0.57336 0.51101 0.45328 -0.14500
N 	N 	0.41882 0.66349 0.83276 -0.16800
N 	N 	0.50515 0.80638 0.75450 -0.09000
N 	N 	0.35371 0.74204 0.65318 -0.26200
N 	N 	0.52664 0.98899 0.54672 -0.06100
N 	N 	0.74842 0.50375 0.83276 -0.16400
N 	N 	0.74035 0.43912 0.75450 -0.11500
N 	N 	0.99311 0.60478 0.65318 -0.22100
N 	N 	0.92664 0.46429 0.54672 -0.09400
N 	N 	0.91882 0.00375 0.83276 -0.17600
N 	N 	0.00515 0.93912 0.75450 -0.10200
N 	N 	0.85371 0.10478 0.65318 -0.25700
N 	N 	0.02664 0.96429 0.54672 -0.13400
N 	N 	0.24842 0.16349 0.83276 -0.20200
N 	N 	0.24035 0.30638 0.75450 -0.13800
N 	N 	0.49311 0.24204 0.65318 -0.26800
N 	N 	0.42664 0.48899 0.54672 -0.15400
N 	N 	0.58118 0.33651 0.16724 -0.27000
N 	N 	0.49485 0.19362 0.24550 -0.18000
N 	N 	0.64629 0.25796 0.34682 -0.26400
N 	N 	0.47336 0.01101 0.45328 -0.24000
N 	N 	0.25158 0.49625 0.16724 -0.27400
N 	N 	0.25965 0.56088 0.24550 -0.15100
N 	N 	0.00689 0.39522 0.34682 -0.30800
N 	N 	0.07336 0.53571 0.45328 -0.20500
