data_crystal

_cell_length_a 18.43940
_cell_length_b 13.78280
_cell_length_c 8.11600
_cell_angle_alpha 90.00000
_cell_angle_beta  92.31900
_cell_angle_gamma 90.00000

_symmetry_space_group_name_	'P 1'
_symmetry_space_group_name_H-M	'P 1'

loop_
_symmetry_equiv_pos_as_xyz
  x,y,z

loop_
_atom_site_label
_atom_site_type_symbol
_atom_site_fract_x
_atom_site_fract_y
_atom_site_fract_z
_atom_site_charge
C 	C 	0.63000 0.55710 0.48240 0.30200
La	La	0.50125 0.51709 0.25533 1.62600
O 	O 	0.59010 0.48290 0.51370 -0.44600
C 	C 	0.69850 0.57240 0.58630 -0.06100
O 	O 	0.61360 0.61340 0.36710 -0.35700
C 	C 	0.73560 0.49300 0.65020 -0.05300
H 	H 	0.71720 0.43110 0.62980 0.06300
O 	O 	0.94270 0.08950 0.96240 -0.45800
C 	C 	0.80090 0.50380 0.74580 0.03200
O 	O 	0.99240 0.18770 0.14990 -0.34600
C 	C 	0.84120 0.42020 0.80830 -0.02200
O 	O 	0.04190 0.83340 0.20800 -0.39700
C 	C 	0.82100 0.32540 0.76930 -0.04700
H 	H 	0.78100 0.31640 0.69720 0.05200
O 	O 	0.96300 0.89300 0.02060 -0.44300
C 	C 	0.85600 0.24450 0.83020 -0.01900
H 	H 	0.84080 0.18250 0.79980 0.02800
C 	C 	0.91630 0.25890 0.94100 -0.05500
C 	C 	0.95280 0.17370 0.02080 0.32300
C 	C 	0.93880 0.35050 0.98020 -0.07500
H 	H 	0.97850 0.35860 0.05350 0.09700
C 	C 	0.90390 0.43340 0.91310 0.08800
C 	C 	0.93130 0.53150 0.94920 -0.17700
C 	C 	0.99380 0.54820 0.04950 0.38100
H 	H 	0.02060 0.49530 0.08870 -0.14800
C 	C 	0.01650 0.63900 0.09110 -0.42600
H 	H 	0.05810 0.64730 0.15820 0.17500
C 	C 	0.97730 0.72030 0.03330 0.15700
C 	C 	0.99600 0.82040 0.09140 0.31200
C 	C 	0.91770 0.70750 0.92990 -0.18200
H 	H 	0.89300 0.76140 0.88760 0.08800
C 	C 	0.89320 0.61300 0.88650 0.12300
C 	C 	0.82730 0.60160 0.78120 -0.04000
C 	C 	0.78920 0.67890 0.70940 -0.03500
H 	H 	0.80680 0.74150 0.72600 0.03400
C 	C 	0.72540 0.66580 0.61310 -0.02100
H 	H 	0.70100 0.71910 0.56740 0.05000
C 	C 	0.13000 0.05710 0.48240 0.31800
La	La	0.00125 0.01709 0.25533 1.54200
O 	O 	0.09010 0.98290 0.51370 -0.45800
C 	C 	0.19850 0.07240 0.58630 -0.09200
O 	O 	0.11360 0.11340 0.36710 -0.37400
C 	C 	0.23560 0.99300 0.65020 -0.01200
H 	H 	0.21720 0.93110 0.62980 0.04700
O 	O 	0.44270 0.58950 0.96240 -0.50500
C 	C 	0.30090 0.00380 0.74580 -0.02600
O 	O 	0.49240 0.68770 0.14990 -0.38800
C 	C 	0.34120 0.92020 0.80830 0.05200
O 	O 	0.54190 0.33340 0.20800 -0.35800
C 	C 	0.32100 0.82540 0.76930 -0.11100
H 	H 	0.28100 0.81640 0.69720 0.07200
O 	O 	0.46300 0.39300 0.02060 -0.47800
C 	C 	0.35600 0.74450 0.83020 0.04000
H 	H 	0.34080 0.68250 0.79980 0.00300
C 	C 	0.41630 0.75890 0.94100 -0.12300
C 	C 	0.45280 0.67370 0.02080 0.35600
C 	C 	0.43880 0.85050 0.98020 0.00200
H 	H 	0.47850 0.85860 0.05350 0.05100
C 	C 	0.40390 0.93340 0.91310 -0.03900
C 	C 	0.43130 0.03150 0.94920 0.05200
C 	C 	0.49380 0.04820 0.04950 -0.11400
H 	H 	0.52060 0.99530 0.08870 0.07600
C 	C 	0.51650 0.13900 0.09110 0.04000
H 	H 	0.55810 0.14730 0.15820 0.02900
C 	C 	0.47730 0.22030 0.03330 -0.09900
C 	C 	0.49600 0.32040 0.09140 0.32200
C 	C 	0.41770 0.20750 0.92990 0.00600
H 	H 	0.39300 0.26140 0.88760 0.02200
C 	C 	0.39320 0.11300 0.88650 -0.03700
C 	C 	0.32730 0.10160 0.78120 0.04100
C 	C 	0.28920 0.17890 0.70940 -0.09400
H 	H 	0.30680 0.24150 0.72600 0.05500
C 	C 	0.22540 0.16580 0.61310 0.02000
H 	H 	0.20100 0.21910 0.56740 0.03000
C 	C 	0.63000 0.44290 0.98240 0.29300
La	La	0.50125 0.48291 0.75533 1.62300
O 	O 	0.59010 0.51710 0.01370 -0.44000
C 	C 	0.69850 0.42760 0.08630 -0.05300
O 	O 	0.61360 0.38660 0.86710 -0.35600
C 	C 	0.73560 0.50700 0.15020 -0.05700
H 	H 	0.71720 0.56890 0.12980 0.06600
O 	O 	0.94270 0.91050 0.46240 -0.45700
C 	C 	0.80090 0.49620 0.24580 0.03500
O 	O 	0.99240 0.81230 0.64990 -0.34600
C 	C 	0.84120 0.57980 0.30830 -0.02200
O 	O 	0.04190 0.16660 0.70800 -0.40100
C 	C 	0.82100 0.67460 0.26930 -0.04600
H 	H 	0.78100 0.68360 0.19720 0.05200
O 	O 	0.96300 0.10700 0.52060 -0.44600
C 	C 	0.85600 0.75550 0.33020 -0.01800
H 	H 	0.84080 0.81750 0.29980 0.02900
C 	C 	0.91630 0.74110 0.44100 -0.05500
C 	C 	0.95280 0.82630 0.52080 0.32200
C 	C 	0.93880 0.64950 0.48020 -0.07100
H 	H 	0.97850 0.64140 0.55350 0.09500
C 	C 	0.90390 0.56660 0.41310 0.08900
C 	C 	0.93130 0.46850 0.44920 -0.17800
C 	C 	0.99380 0.45180 0.54950 0.39300
H 	H 	0.02060 0.50470 0.58870 -0.15500
C 	C 	0.01650 0.36100 0.59110 -0.43900
H 	H 	0.05810 0.35270 0.65820 0.17800
C 	C 	0.97730 0.27970 0.53330 0.15900
C 	C 	0.99600 0.17960 0.59140 0.31500
C 	C 	0.91770 0.29250 0.42990 -0.17900
H 	H 	0.89300 0.23860 0.38760 0.08900
C 	C 	0.89320 0.38700 0.38650 0.12500
C 	C 	0.82730 0.39840 0.28120 -0.04100
C 	C 	0.78920 0.32110 0.20940 -0.03100
H 	H 	0.80680 0.25850 0.22600 0.03400
C 	C 	0.72540 0.33420 0.11310 -0.02500
H 	H 	0.70100 0.28090 0.06740 0.05300
C 	C 	0.13000 0.94290 0.98240 0.29700
La	La	0.00125 0.98291 0.75533 1.53500
O 	O 	0.09010 0.01710 0.01370 -0.44900
C 	C 	0.19850 0.92760 0.08630 -0.07200
O 	O 	0.11360 0.88660 0.86710 -0.37200
C 	C 	0.23560 0.00700 0.15020 -0.02500
H 	H 	0.21720 0.06890 0.12980 0.05200
O 	O 	0.44270 0.41050 0.46240 -0.49700
C 	C 	0.30090 0.99620 0.24580 -0.01800
O 	O 	0.49240 0.31230 0.64990 -0.38700
C 	C 	0.34120 0.07980 0.30830 0.05000
O 	O 	0.54190 0.66660 0.70800 -0.36000
C 	C 	0.32100 0.17460 0.26930 -0.10800
H 	H 	0.28100 0.18360 0.19720 0.07100
O 	O 	0.46300 0.60700 0.52060 -0.48100
C 	C 	0.35600 0.25550 0.33020 0.03800
H 	H 	0.34080 0.31750 0.29980 0.00600
C 	C 	0.41630 0.24110 0.44100 -0.11700
C 	C 	0.45280 0.32630 0.52080 0.34300
C 	C 	0.43880 0.14950 0.48020 0.01400
H 	H 	0.47850 0.14140 0.55350 0.04200
C 	C 	0.40390 0.06660 0.41310 -0.03900
C 	C 	0.43130 0.96850 0.44920 0.05400
C 	C 	0.49380 0.95180 0.54950 -0.11500
H 	H 	0.52060 0.00470 0.58870 0.07400
C 	C 	0.51650 0.86100 0.59110 0.04300
H 	H 	0.55810 0.85270 0.65820 0.02800
C 	C 	0.47730 0.77970 0.53330 -0.10500
C 	C 	0.49600 0.67960 0.59140 0.32400
C 	C 	0.41770 0.79250 0.42990 0.01300
H 	H 	0.39300 0.73860 0.38760 0.02100
C 	C 	0.39320 0.88700 0.38650 -0.03700
C 	C 	0.32730 0.89840 0.28120 0.03800
C 	C 	0.28920 0.82110 0.20940 -0.08600
H 	H 	0.30680 0.75850 0.22600 0.05400
C 	C 	0.22540 0.83420 0.11310 0.01000
H 	H 	0.20100 0.78090 0.06740 0.03600
