data_crystal

_cell_length_a 12.42090
_cell_length_b 12.44710
_cell_length_c 15.11550
_cell_angle_alpha 90.00000
_cell_angle_beta  90.00000
_cell_angle_gamma 90.00000

_symmetry_space_group_name_	'P 1'
_symmetry_space_group_name_H-M	'P 1'

loop_
_symmetry_equiv_pos_as_xyz
  x,y,z

loop_
_atom_site_label
_atom_site_type_symbol
_atom_site_fract_x
_atom_site_fract_y
_atom_site_fract_z
_atom_site_charge
Mo	Mo	0.91393 0.60284 0.06069 1.04600
Mo	Mo	0.41393 0.39716 0.43931 1.06100
Mo	Mo	0.08607 0.10284 0.93931 1.05800
Mo	Mo	0.58607 0.89716 0.56069 1.03900
Mo	Mo	0.08607 0.39716 0.93931 1.05000
Mo	Mo	0.58607 0.60284 0.56069 1.06000
Mo	Mo	0.91393 0.89716 0.06069 1.02400
Mo	Mo	0.41393 0.10284 0.43931 1.07100
H 	H 	0.95330 0.59130 0.82300 -0.05600
H 	H 	0.29550 0.59160 0.57060 -0.04700
H 	H 	0.13860 0.68700 0.70830 0.11000
H 	H 	0.11710 0.91530 0.56480 0.08900
H 	H 	0.10370 0.85150 0.47440 0.09100
H 	H 	0.93300 0.91510 0.52200 -0.08100
H 	H 	0.96760 0.91560 0.67760 0.07400
H 	H 	0.85900 0.85220 0.65830 0.07500
H 	H 	0.45330 0.40870 0.67700 -0.05400
H 	H 	0.79550 0.40840 0.92940 -0.05900
H 	H 	0.63860 0.31300 0.79170 0.14700
H 	H 	0.61710 0.08470 0.93520 0.16500
H 	H 	0.60370 0.14850 0.02560 0.18100
H 	H 	0.43300 0.08490 0.97800 -0.11100
H 	H 	0.46760 0.08440 0.82240 0.14300
H 	H 	0.35900 0.14780 0.84170 0.12900
H 	H 	0.04670 0.09130 0.17700 -0.03800
H 	H 	0.70450 0.09160 0.42940 -0.04000
H 	H 	0.86140 0.18700 0.29170 0.15700
H 	H 	0.88290 0.41530 0.43520 0.14300
H 	H 	0.89630 0.35150 0.52560 0.14300
H 	H 	0.06700 0.41510 0.47800 -0.10700
H 	H 	0.03240 0.41560 0.32240 0.14200
H 	H 	0.14100 0.35220 0.34170 0.12400
H 	H 	0.54670 0.90870 0.32300 -0.06600
H 	H 	0.20450 0.90840 0.07060 -0.05600
H 	H 	0.36140 0.81300 0.20830 0.11300
H 	H 	0.38290 0.58470 0.06480 0.09500
H 	H 	0.39630 0.64850 0.97440 0.06600
H 	H 	0.56700 0.58490 0.02200 -0.05200
H 	H 	0.53240 0.58440 0.17760 0.09700
H 	H 	0.64100 0.64780 0.15830 0.08500
H 	H 	0.04670 0.40870 0.17700 -0.04900
H 	H 	0.70450 0.40840 0.42940 -0.05300
H 	H 	0.86140 0.31300 0.29170 0.15200
H 	H 	0.88290 0.08470 0.43520 0.15800
H 	H 	0.89630 0.14850 0.52560 0.15200
H 	H 	0.06700 0.08490 0.47800 -0.09400
H 	H 	0.03240 0.08440 0.32240 0.15400
H 	H 	0.14100 0.14780 0.34170 0.13200
H 	H 	0.54670 0.59130 0.32300 -0.05100
H 	H 	0.20450 0.59160 0.07060 -0.04200
H 	H 	0.36140 0.68700 0.20830 0.11800
H 	H 	0.38290 0.91530 0.06480 0.08100
H 	H 	0.39630 0.85150 0.97440 0.05800
H 	H 	0.56700 0.91510 0.02200 -0.06700
H 	H 	0.53240 0.91560 0.17760 0.08400
H 	H 	0.64100 0.85220 0.15830 0.07600
H 	H 	0.95330 0.90870 0.82300 -0.07100
H 	H 	0.29550 0.90840 0.57060 -0.06200
H 	H 	0.13860 0.81300 0.70830 0.10600
H 	H 	0.11710 0.58470 0.56480 0.10300
H 	H 	0.10370 0.64850 0.47440 0.10100
H 	H 	0.93300 0.58490 0.52200 -0.06700
H 	H 	0.96760 0.58440 0.67760 0.08700
H 	H 	0.85900 0.64780 0.65830 0.08300
H 	H 	0.45330 0.09130 0.67700 -0.04300
H 	H 	0.79550 0.09160 0.92940 -0.04700
H 	H 	0.63860 0.18700 0.79170 0.15100
H 	H 	0.61710 0.41530 0.93520 0.15000
H 	H 	0.60370 0.35150 0.02560 0.17100
H 	H 	0.43300 0.41510 0.97800 -0.12400
H 	H 	0.46760 0.41560 0.82240 0.13000
H 	H 	0.35900 0.35220 0.84170 0.12100
H 	H 	0.93030 0.75000 0.44380 0.07600
H 	H 	0.83700 0.75000 0.51560 0.07600
H 	H 	0.43030 0.25000 0.05620 0.17800
H 	H 	0.33700 0.25000 0.98440 0.13900
H 	H 	0.06970 0.25000 0.55620 0.14800
H 	H 	0.16300 0.25000 0.48440 0.12900
H 	H 	0.56970 0.75000 0.94380 0.05700
H 	H 	0.66300 0.75000 0.01560 0.06700
C 	C 	0.94909 0.66323 0.84175 0.07400
C 	C 	0.31864 0.66352 0.57004 0.08300
C 	C 	0.08617 0.85080 0.53762 -0.29200
C 	C 	0.96396 0.85030 0.55015 0.17400
C 	C 	0.93718 0.85130 0.64973 -0.30700
C 	C 	0.44909 0.33677 0.65825 0.08800
C 	C 	0.81864 0.33648 0.92996 0.08200
C 	C 	0.58617 0.14920 0.96238 -0.51600
C 	C 	0.46396 0.14970 0.94985 0.36800
C 	C 	0.43718 0.14870 0.85027 -0.44600
C 	C 	0.05091 0.16323 0.15825 0.09500
C 	C 	0.68136 0.16352 0.42996 0.08900
C 	C 	0.91383 0.35080 0.46238 -0.48400
C 	C 	0.03604 0.35030 0.44985 0.36300
C 	C 	0.06282 0.35130 0.35027 -0.45000
C 	C 	0.55091 0.83677 0.34175 0.08000
C 	C 	0.18136 0.83648 0.07004 0.08600
C 	C 	0.41383 0.64920 0.03762 -0.27000
C 	C 	0.53604 0.64970 0.05015 0.18300
C 	C 	0.56282 0.64870 0.14973 -0.32300
C 	C 	0.05091 0.33677 0.15825 0.09500
C 	C 	0.68136 0.33648 0.42996 0.08800
C 	C 	0.91383 0.14920 0.46238 -0.48900
C 	C 	0.03604 0.14970 0.44985 0.36700
C 	C 	0.06282 0.14870 0.35027 -0.45600
C 	C 	0.55091 0.66323 0.34175 0.08200
C 	C 	0.18136 0.66352 0.07004 0.08800
C 	C 	0.41383 0.85080 0.03762 -0.26500
C 	C 	0.53604 0.85030 0.05015 0.17900
C 	C 	0.56282 0.85130 0.14973 -0.31600
C 	C 	0.94909 0.83677 0.84175 0.07300
C 	C 	0.31864 0.83648 0.57004 0.08100
C 	C 	0.08617 0.64920 0.53762 -0.30100
C 	C 	0.96396 0.64970 0.55015 0.18000
C 	C 	0.93718 0.64870 0.64973 -0.31400
C 	C 	0.44909 0.16323 0.65825 0.08800
C 	C 	0.81864 0.16352 0.92996 0.08300
C 	C 	0.58617 0.35080 0.96238 -0.50700
C 	C 	0.46396 0.35030 0.94985 0.36200
C 	C 	0.43718 0.35130 0.85027 -0.44000
C 	C 	0.98550 0.75000 0.69177 0.21500
C 	C 	0.10790 0.75000 0.68050 -0.32300
C 	C 	0.13350 0.75000 0.58120 0.23500
C 	C 	0.91520 0.75000 0.50740 -0.30900
C 	C 	0.48550 0.25000 0.80823 0.32800
C 	C 	0.60790 0.25000 0.81950 -0.46100
C 	C 	0.63350 0.25000 0.91880 0.35400
C 	C 	0.41520 0.25000 0.99260 -0.52900
C 	C 	0.01450 0.25000 0.30823 0.36100
C 	C 	0.89210 0.25000 0.31950 -0.50300
C 	C 	0.86650 0.25000 0.41880 0.34800
C 	C 	0.08480 0.25000 0.49260 -0.46800
C 	C 	0.51450 0.75000 0.19177 0.24300
C 	C 	0.39210 0.75000 0.18050 -0.35900
C 	C 	0.36650 0.75000 0.08120 0.22600
C 	C 	0.58480 0.75000 0.00740 -0.26200
N 	N 	0.93138 0.69426 0.92356 -0.19400
N 	N 	0.41946 0.69467 0.56748 -0.18400
N 	N 	0.43138 0.30574 0.57644 -0.18300
N 	N 	0.91946 0.30533 0.93252 -0.19500
N 	N 	0.06862 0.19426 0.07644 -0.16900
N 	N 	0.58054 0.19467 0.43252 -0.18000
N 	N 	0.56862 0.80574 0.42356 -0.19000
N 	N 	0.08054 0.80533 0.06748 -0.17600
N 	N 	0.06862 0.30574 0.07644 -0.17100
N 	N 	0.58054 0.30533 0.43252 -0.18300
N 	N 	0.56862 0.69426 0.42356 -0.18300
N 	N 	0.08054 0.69467 0.06748 -0.17000
N 	N 	0.93138 0.80574 0.92356 -0.20000
N 	N 	0.41946 0.80533 0.56748 -0.19000
N 	N 	0.43138 0.19426 0.57644 -0.18100
N 	N 	0.91946 0.19467 0.93252 -0.19200
N 	N 	0.96050 0.75000 0.78835 -0.17900
N 	N 	0.25300 0.75000 0.57170 -0.18000
N 	N 	0.46050 0.25000 0.71165 -0.19100
N 	N 	0.75300 0.25000 0.92830 -0.19800
N 	N 	0.03950 0.25000 0.21165 -0.19300
N 	N 	0.74700 0.25000 0.42830 -0.19400
N 	N 	0.53950 0.75000 0.28835 -0.18100
N 	N 	0.24700 0.75000 0.07170 -0.17500
O 	O 	0.87724 0.75000 0.08802 -0.58700
O 	O 	0.37724 0.25000 0.41198 -0.57200
O 	O 	0.12276 0.25000 0.91198 -0.57700
O 	O 	0.62276 0.75000 0.58802 -0.58000
O 	O 	-0.00000 0.50000 -0.00000 -0.54100
O 	O 	0.50000 0.50000 0.50000 -0.58400
O 	O 	-0.00000 0.00000 -0.00000 -0.50800
O 	O 	0.50000 0.00000 0.50000 -0.54900
