data_crystal

_cell_length_a 15.44400
_cell_length_b 17.89500
_cell_length_c 8.97900
_cell_angle_alpha 90.00000
_cell_angle_beta  90.00000
_cell_angle_gamma 90.00000

_symmetry_space_group_name_	'P 1'
_symmetry_space_group_name_H-M	'P 1'

loop_
_symmetry_equiv_pos_as_xyz
  x,y,z

loop_
_atom_site_label
_atom_site_type_symbol
_atom_site_fract_x
_atom_site_fract_y
_atom_site_fract_z
_atom_site_charge
Zn	Zn	0.08578 0.39508 0.05717 1.22900
P 	P 	0.98674 0.51468 0.23076 0.45800
O 	O 	0.07380 0.48000 0.19540 -0.41900
O 	O 	0.96450 0.58070 0.13510 -0.42800
O 	O 	0.98090 0.53750 0.39340 -0.19400
O 	O 	0.70870 0.39210 0.49700 -0.44000
O 	O 	0.72820 0.35950 0.26270 -0.30300
N 	N 	0.90810 0.37810 0.29010 -0.05900
N 	N 	0.00410 0.31630 0.13680 -0.29500
C 	C 	0.90510 0.44400 0.19320 -0.26300
H 	H 	0.84850 0.46690 0.20240 0.13600
H 	H 	0.91150 0.42760 0.09080 0.09200
C 	C 	0.85210 0.38010 0.41890 -0.29700
H 	H 	0.86350 0.42590 0.47330 0.16700
H 	H 	0.86720 0.33870 0.48360 0.15500
C 	C 	0.75660 0.37600 0.38600 0.39900
C 	C 	0.94370 0.31290 0.24470 0.19200
Zn	Zn	0.41422 0.60492 0.55717 1.22900
P 	P 	0.51326 0.48532 0.73076 0.45500
O 	O 	0.42620 0.52000 0.69540 -0.41700
O 	O 	0.53550 0.41930 0.63510 -0.43000
O 	O 	0.51910 0.46250 0.89340 -0.19300
O 	O 	0.79130 0.60790 0.99700 -0.44200
O 	O 	0.77180 0.64050 0.76270 -0.30400
N 	N 	0.59190 0.62190 0.79010 -0.05900
N 	N 	0.49590 0.68370 0.63680 -0.29300
C 	C 	0.59490 0.55600 0.69320 -0.26300
H 	H 	0.65150 0.53310 0.70240 0.13500
H 	H 	0.58850 0.57240 0.59080 0.09000
C 	C 	0.64790 0.61990 0.91890 -0.29800
H 	H 	0.63650 0.57410 0.97330 0.16700
H 	H 	0.63280 0.66130 0.98360 0.15500
C 	C 	0.74340 0.62400 0.88600 0.39900
C 	C 	0.55630 0.68710 0.74470 0.18900
Zn	Zn	0.91422 0.89508 0.94283 1.22700
P 	P 	0.01326 0.01468 0.76924 0.45900
O 	O 	0.92620 0.98000 0.80460 -0.42000
O 	O 	0.03550 0.08070 0.86490 -0.42800
O 	O 	0.01910 0.03750 0.60660 -0.19400
O 	O 	0.29130 0.89210 0.50300 -0.44000
O 	O 	0.27180 0.85950 0.73730 -0.30300
N 	N 	0.09190 0.87810 0.70990 -0.05900
N 	N 	0.99590 0.81630 0.86320 -0.29500
C 	C 	0.09490 0.94400 0.80680 -0.26400
H 	H 	0.15150 0.96690 0.79760 0.13600
H 	H 	0.08850 0.92760 0.90920 0.09100
C 	C 	0.14790 0.88010 0.58110 -0.29700
H 	H 	0.13650 0.92590 0.52670 0.16700
H 	H 	0.13280 0.83870 0.51640 0.15500
C 	C 	0.24340 0.87600 0.61400 0.39900
C 	C 	0.05630 0.81290 0.75530 0.19100
Zn	Zn	0.58578 0.10492 0.44283 1.22900
P 	P 	0.48674 0.98532 0.26924 0.45700
O 	O 	0.57380 0.02000 0.30460 -0.41800
O 	O 	0.46450 0.91930 0.36490 -0.43000
O 	O 	0.48090 0.96250 0.10660 -0.19200
O 	O 	0.20870 0.10790 0.00300 -0.44200
O 	O 	0.22820 0.14050 0.23730 -0.30400
N 	N 	0.40810 0.12190 0.20990 -0.05900
N 	N 	0.50410 0.18370 0.36320 -0.29300
C 	C 	0.40510 0.05600 0.30680 -0.26400
H 	H 	0.34850 0.03310 0.29760 0.13600
H 	H 	0.41150 0.07240 0.40920 0.09100
C 	C 	0.35210 0.11990 0.08110 -0.29700
H 	H 	0.36350 0.07410 0.02670 0.16600
H 	H 	0.36720 0.16130 0.01640 0.15400
C 	C 	0.25660 0.12400 0.11400 0.39900
C 	C 	0.44370 0.18710 0.25530 0.18900
Zn	Zn	0.91422 0.60492 0.94283 1.22800
P 	P 	0.01326 0.48532 0.76924 0.45700
O 	O 	0.92620 0.52000 0.80460 -0.41900
O 	O 	0.03550 0.41930 0.86490 -0.42800
O 	O 	0.01910 0.46250 0.60660 -0.19400
O 	O 	0.29130 0.60790 0.50300 -0.44000
O 	O 	0.27180 0.64050 0.73730 -0.30300
N 	N 	0.09190 0.62190 0.70990 -0.05900
N 	N 	0.99590 0.68370 0.86320 -0.29500
C 	C 	0.09490 0.55600 0.80680 -0.26300
H 	H 	0.15150 0.53310 0.79760 0.13600
H 	H 	0.08850 0.57240 0.90920 0.09200
C 	C 	0.14790 0.61990 0.58110 -0.29700
H 	H 	0.13650 0.57410 0.52670 0.16700
H 	H 	0.13280 0.66130 0.51640 0.15500
C 	C 	0.24340 0.62400 0.61400 0.39900
C 	C 	0.05630 0.68710 0.75530 0.19200
Zn	Zn	0.58578 0.39508 0.44283 1.22900
P 	P 	0.48674 0.51468 0.26924 0.45500
O 	O 	0.57380 0.48000 0.30460 -0.41700
O 	O 	0.46450 0.58070 0.36490 -0.43000
O 	O 	0.48090 0.53750 0.10660 -0.19300
O 	O 	0.20870 0.39210 0.00300 -0.44200
O 	O 	0.22820 0.35950 0.23730 -0.30400
N 	N 	0.40810 0.37810 0.20990 -0.05900
N 	N 	0.50410 0.31630 0.36320 -0.29300
C 	C 	0.40510 0.44400 0.30680 -0.26300
H 	H 	0.34850 0.46690 0.29760 0.13500
H 	H 	0.41150 0.42760 0.40920 0.09000
C 	C 	0.35210 0.38010 0.08110 -0.29800
H 	H 	0.36350 0.42590 0.02670 0.16700
H 	H 	0.36720 0.33870 0.01640 0.15500
C 	C 	0.25660 0.37600 0.11400 0.39900
C 	C 	0.44370 0.31290 0.25530 0.18900
Zn	Zn	0.08578 0.10492 0.05717 1.22700
P 	P 	0.98674 0.98532 0.23076 0.45900
O 	O 	0.07380 0.02000 0.19540 -0.42000
O 	O 	0.96450 0.91930 0.13510 -0.42800
O 	O 	0.98090 0.96250 0.39340 -0.19400
O 	O 	0.70870 0.10790 0.49700 -0.44000
O 	O 	0.72820 0.14050 0.26270 -0.30300
N 	N 	0.90810 0.12190 0.29010 -0.05900
N 	N 	0.00410 0.18370 0.13680 -0.29500
C 	C 	0.90510 0.05600 0.19320 -0.26400
H 	H 	0.84850 0.03310 0.20240 0.13600
H 	H 	0.91150 0.07240 0.09080 0.09100
C 	C 	0.85210 0.11990 0.41890 -0.29700
H 	H 	0.86350 0.07410 0.47330 0.16700
H 	H 	0.86720 0.16130 0.48360 0.15500
C 	C 	0.75660 0.12400 0.38600 0.39900
C 	C 	0.94370 0.18710 0.24470 0.19100
Zn	Zn	0.41422 0.89508 0.55717 1.22900
P 	P 	0.51326 0.01468 0.73076 0.45700
O 	O 	0.42620 0.98000 0.69540 -0.41800
O 	O 	0.53550 0.08070 0.63510 -0.43000
O 	O 	0.51910 0.03750 0.89340 -0.19200
O 	O 	0.79130 0.89210 0.99700 -0.44200
O 	O 	0.77180 0.85950 0.76270 -0.30400
N 	N 	0.59190 0.87810 0.79010 -0.05900
N 	N 	0.49590 0.81630 0.63680 -0.29300
C 	C 	0.59490 0.94400 0.69320 -0.26400
H 	H 	0.65150 0.96690 0.70240 0.13600
H 	H 	0.58850 0.92760 0.59080 0.09100
C 	C 	0.64790 0.88010 0.91890 -0.29700
H 	H 	0.63650 0.92590 0.97330 0.16600
H 	H 	0.63280 0.83870 0.98360 0.15400
C 	C 	0.74340 0.87600 0.88600 0.39900
C 	C 	0.55630 0.81290 0.74470 0.18900
O 	O 	0.09540 0.25000 0.99510 -0.32700
N 	N 	0.91520 0.25000 0.30500 -0.15600
C 	C 	0.03660 0.25000 0.08710 0.23500
O 	O 	0.40460 0.75000 0.49510 -0.33400
N 	N 	0.58480 0.75000 0.80500 -0.15600
C 	C 	0.46340 0.75000 0.58710 0.24200
O 	O 	0.90460 0.75000 0.00490 -0.32700
N 	N 	0.08480 0.75000 0.69500 -0.15600
C 	C 	0.96340 0.75000 0.91290 0.23500
O 	O 	0.59540 0.25000 0.50490 -0.33400
N 	N 	0.41520 0.25000 0.19500 -0.15600
C 	C 	0.53660 0.25000 0.41290 0.24200
