data_crystal

_cell_length_a 11.79700
_cell_length_b 12.88900
_cell_length_c 14.03700
_cell_angle_alpha 66.06500
_cell_angle_beta  78.73100
_cell_angle_gamma 69.92400

_symmetry_space_group_name_	'P 1'
_symmetry_space_group_name_H-M	'P 1'

loop_
_symmetry_equiv_pos_as_xyz
  x,y,z

loop_
_atom_site_label
_atom_site_type_symbol
_atom_site_fract_x
_atom_site_fract_y
_atom_site_fract_z
_atom_site_charge
Th	Th	0.53975 0.55039 0.60113 0.03900
P 	P 	0.72340 0.65570 0.72150 0.19000
O 	O 	0.53080 0.39080 0.56620 -0.03700
O 	O 	0.66580 0.59810 0.67860 -0.15300
C 	C 	0.66710 0.81410 0.66410 0.00300
C 	C 	0.88300 0.61070 0.69270 0.00400
C 	C 	0.54660 0.87040 0.68770 -0.05900
H 	H 	0.49840 0.82610 0.73580 0.07300
C 	C 	0.68140 0.49830 0.91470 -0.05800
H 	H 	0.69920 0.44570 0.88040 0.07400
C 	C 	0.68970 0.61320 0.85920 -0.00200
C 	C 	0.73780 0.87930 0.58970 -0.05800
H 	H 	0.81740 0.84160 0.57320 0.06200
C 	C 	0.66420 0.69210 0.90990 -0.06400
H 	H 	0.67150 0.76820 0.87350 0.05900
C 	C 	0.96200 0.64620 0.72490 -0.07000
H 	H 	0.93330 0.69180 0.76640 0.05900
C 	C 	0.92800 0.53790 0.63750 -0.07000
H 	H 	0.87690 0.50700 0.62130 0.08700
O 	O 	0.41670 0.24500 0.53170 -0.18000
O 	O 	0.59200 0.24180 0.44250 -0.16900
C 	C 	0.52170 0.18770 0.51030 0.27100
C 	C 	0.50000 0.99080 0.63960 -0.00500
H 	H 	0.42090 0.02900 0.65690 0.05500
C 	C 	0.57120 0.05580 0.56500 -0.04700
C 	C 	0.68950 0.00070 0.53980 -0.00800
H 	H 	0.73640 0.04480 0.48950 0.05800
C 	C 	0.05080 0.50930 0.60490 0.00300
H 	H 	0.08030 0.46120 0.56570 0.05300
C 	C 	0.08400 0.61350 0.69500 0.00000
H 	H 	0.13740 0.63430 0.71970 0.05800
C 	C 	0.12750 0.55130 0.63010 -0.05500
C 	C 	0.25690 0.52690 0.58800 0.29100
O 	O 	0.32630 0.55690 0.62210 -0.16900
O 	O 	0.28250 0.48700 0.51740 -0.18300
O 	O 	0.57050 0.40230 0.23420 -0.19000
O 	O 	0.51530 0.58880 0.21870 -0.18300
C 	C 	0.61600 0.54250 0.06990 -0.05400
C 	C 	0.56690 0.50700 0.18230 0.28100
C 	C 	0.64730 0.46200 0.01960 -0.00600
H 	H 	0.64510 0.38430 0.05680 0.05400
C 	C 	0.62720 0.65610 0.01630 -0.00700
H 	H 	0.61020 0.70820 0.05110 0.05600
Th	Th	0.46025 0.44961 0.39887 0.03800
P 	P 	0.27660 0.34430 0.27850 0.18900
O 	O 	0.46920 0.60920 0.43380 -0.03800
O 	O 	0.33420 0.40190 0.32140 -0.15400
C 	C 	0.33290 0.18590 0.33590 0.00200
C 	C 	0.11700 0.38930 0.30730 0.00300
C 	C 	0.45340 0.12960 0.31230 -0.05900
H 	H 	0.50160 0.17390 0.26420 0.07300
C 	C 	0.31860 0.50170 0.08530 -0.05800
H 	H 	0.30080 0.55430 0.11960 0.07400
C 	C 	0.31030 0.38680 0.14080 -0.00200
C 	C 	0.26220 0.12070 0.41030 -0.05800
H 	H 	0.18260 0.15840 0.42680 0.06200
C 	C 	0.33580 0.30790 0.09010 -0.06400
H 	H 	0.32850 0.23180 0.12650 0.05900
C 	C 	0.03800 0.35380 0.27510 -0.07000
H 	H 	0.06670 0.30820 0.23360 0.05900
C 	C 	0.07200 0.46210 0.36250 -0.07000
H 	H 	0.12310 0.49300 0.37870 0.08700
O 	O 	0.58330 0.75500 0.46830 -0.18000
O 	O 	0.40800 0.75820 0.55750 -0.16900
C 	C 	0.47830 0.81230 0.48970 0.27100
C 	C 	0.50000 0.00920 0.36040 -0.00500
H 	H 	0.57910 0.97100 0.34310 0.05500
C 	C 	0.42880 0.94420 0.43500 -0.04700
C 	C 	0.31050 0.99930 0.46020 -0.00800
H 	H 	0.26360 0.95520 0.51050 0.05800
C 	C 	0.94920 0.49070 0.39510 0.00300
H 	H 	0.91970 0.53880 0.43430 0.05300
C 	C 	0.91600 0.38650 0.30500 0.00000
H 	H 	0.86260 0.36570 0.28030 0.05800
C 	C 	0.87250 0.44870 0.36990 -0.05500
C 	C 	0.74310 0.47310 0.41200 0.29100
O 	O 	0.67370 0.44310 0.37790 -0.16900
O 	O 	0.71750 0.51300 0.48260 -0.18300
O 	O 	0.42950 0.59770 0.76580 -0.19000
O 	O 	0.48470 0.41120 0.78130 -0.18300
C 	C 	0.38400 0.45750 0.93010 -0.05400
C 	C 	0.43310 0.49300 0.81770 0.28100
C 	C 	0.35270 0.53800 0.98040 -0.00600
H 	H 	0.35490 0.61570 0.94320 0.05400
C 	C 	0.37280 0.34390 0.98370 -0.00700
H 	H 	0.38980 0.29180 0.94890 0.05600
