data_crystal

_cell_length_a 18.35200
_cell_length_b 18.35200
_cell_length_c 18.35200
_cell_angle_alpha 90.00000
_cell_angle_beta  90.00000
_cell_angle_gamma 90.00000

_symmetry_space_group_name_	'P 1'
_symmetry_space_group_name_H-M	'P 1'

loop_
_symmetry_equiv_pos_as_xyz
  x,y,z

loop_
_atom_site_label
_atom_site_type_symbol
_atom_site_fract_x
_atom_site_fract_y
_atom_site_fract_z
_atom_site_charge
N 	N 	0.56420 0.50770 0.30620 -0.16100
C 	C 	0.51250 0.45730 0.29660 0.16300
H 	H 	0.49750 0.42980 0.33640 -0.02200
C 	C 	0.48080 0.44480 0.23050 -0.30700
H 	H 	0.44440 0.40980 0.22630 0.14400
O 	O 	0.47200 0.47480 0.10660 -0.40600
C 	C 	0.50280 0.48460 0.16810 0.35200
C 	C 	0.55930 0.53790 0.17940 -0.31800
H 	H 	0.57660 0.56560 0.14070 0.15500
C 	C 	0.58670 0.54710 0.24660 0.16500
H 	H 	0.62290 0.58200 0.25310 -0.02600
C 	C 	0.60050 0.51870 0.37730 -0.08600
H 	H 	0.62110 0.56730 0.37890 0.05900
H 	H 	0.64010 0.48410 0.38210 0.06600
C 	C 	0.54760 0.50910 0.44180 0.00300
N 	N 	0.93580 0.49230 0.80620 -0.17900
C 	C 	0.98750 0.54270 0.79660 0.25000
H 	H 	0.00250 0.57020 0.83640 -0.05900
C 	C 	0.01920 0.55520 0.73050 -0.40300
H 	H 	0.05560 0.59020 0.72630 0.17700
O 	O 	0.02800 0.52520 0.60660 -0.43200
C 	C 	0.99720 0.51540 0.66810 0.42300
C 	C 	0.94070 0.46210 0.67940 -0.35700
H 	H 	0.92340 0.43440 0.64070 0.17200
C 	C 	0.91330 0.45290 0.74660 0.19400
H 	H 	0.87710 0.41800 0.75310 -0.03300
C 	C 	0.89950 0.48130 0.87730 -0.08000
H 	H 	0.87890 0.43270 0.87890 0.06100
H 	H 	0.85990 0.51590 0.88210 0.06500
C 	C 	0.95240 0.49090 0.94180 0.01300
N 	N 	0.43580 0.00770 0.19380 -0.17400
C 	C 	0.48750 0.95730 0.20340 0.19800
H 	H 	0.50250 0.92980 0.16360 -0.02900
C 	C 	0.51920 0.94480 0.26950 -0.33100
H 	H 	0.55560 0.90980 0.27370 0.15500
O 	O 	0.52800 0.97480 0.39340 -0.40500
C 	C 	0.49720 0.98460 0.33190 0.38700
C 	C 	0.44070 0.03790 0.32060 -0.35700
H 	H 	0.42340 0.06560 0.35930 0.16600
C 	C 	0.41330 0.04710 0.25340 0.18000
H 	H 	0.37710 0.08200 0.24690 -0.03300
C 	C 	0.39950 0.01870 0.12270 -0.11600
H 	H 	0.37890 0.06730 0.12110 0.06300
H 	H 	0.35990 0.98410 0.11790 0.08600
C 	C 	0.45240 0.00910 0.05820 -0.01200
N 	N 	0.06420 0.99230 0.69380 -0.12100
C 	C 	0.01250 0.04270 0.70340 0.02000
H 	H 	0.99750 0.07020 0.66360 0.04000
C 	C 	0.98080 0.05520 0.76950 -0.15900
H 	H 	0.94440 0.09020 0.77370 0.09800
O 	O 	0.97200 0.02520 0.89340 -0.35300
C 	C 	0.00280 0.01540 0.83190 0.23100
C 	C 	0.05930 0.96210 0.82060 -0.22400
H 	H 	0.07660 0.93440 0.85930 0.12600
C 	C 	0.08670 0.95290 0.75340 0.11700
H 	H 	0.12290 0.91800 0.74690 -0.00600
C 	C 	0.10050 0.98130 0.62270 -0.06200
H 	H 	0.12110 0.93270 0.62110 0.05600
H 	H 	0.14010 0.01590 0.61790 0.04800
C 	C 	0.04760 0.99090 0.55820 0.00800
N 	N 	0.30620 0.56420 0.50770 -0.16000
C 	C 	0.29660 0.51250 0.45730 0.16400
H 	H 	0.33640 0.49750 0.42980 -0.02100
C 	C 	0.23050 0.48080 0.44480 -0.30600
H 	H 	0.22630 0.44440 0.40980 0.14500
O 	O 	0.10660 0.47200 0.47480 -0.40500
C 	C 	0.16810 0.50280 0.48460 0.35300
C 	C 	0.17940 0.55930 0.53790 -0.31700
H 	H 	0.14070 0.57660 0.56560 0.15600
C 	C 	0.24660 0.58670 0.54710 0.16600
H 	H 	0.25310 0.62290 0.58200 -0.02500
C 	C 	0.37730 0.60050 0.51870 -0.08500
H 	H 	0.37890 0.62110 0.56730 0.06000
H 	H 	0.38210 0.64010 0.48410 0.06600
C 	C 	0.44180 0.54760 0.50910 0.00300
N 	N 	0.80620 0.93580 0.49230 -0.17900
C 	C 	0.79660 0.98750 0.54270 0.25000
H 	H 	0.83640 0.00250 0.57020 -0.05900
C 	C 	0.73050 0.01920 0.55520 -0.40300
H 	H 	0.72630 0.05560 0.59020 0.17700
O 	O 	0.60660 0.02800 0.52520 -0.43200
C 	C 	0.66810 0.99720 0.51540 0.42300
C 	C 	0.67940 0.94070 0.46210 -0.35700
H 	H 	0.64070 0.92340 0.43440 0.17200
C 	C 	0.74660 0.91330 0.45290 0.19400
H 	H 	0.75310 0.87710 0.41800 -0.03300
C 	C 	0.87730 0.89950 0.48130 -0.08000
H 	H 	0.87890 0.87890 0.43270 0.06100
H 	H 	0.88210 0.85990 0.51590 0.06500
C 	C 	0.94180 0.95240 0.49090 0.01300
N 	N 	0.19380 0.43580 0.00770 -0.17400
C 	C 	0.20340 0.48750 0.95730 0.19800
H 	H 	0.16360 0.50250 0.92980 -0.02900
C 	C 	0.26950 0.51920 0.94480 -0.33100
H 	H 	0.27370 0.55560 0.90980 0.15500
O 	O 	0.39340 0.52800 0.97480 -0.40500
C 	C 	0.33190 0.49720 0.98460 0.38700
C 	C 	0.32060 0.44070 0.03790 -0.35700
H 	H 	0.35930 0.42340 0.06560 0.16600
C 	C 	0.25340 0.41330 0.04710 0.18000
H 	H 	0.24690 0.37710 0.08200 -0.03300
C 	C 	0.12270 0.39950 0.01870 -0.11600
H 	H 	0.12110 0.37890 0.06730 0.06300
H 	H 	0.11790 0.35990 0.98410 0.08600
C 	C 	0.05820 0.45240 0.00910 -0.01200
N 	N 	0.69380 0.06420 0.99230 -0.12100
C 	C 	0.70340 0.01250 0.04270 0.02000
H 	H 	0.66360 0.99750 0.07020 0.04000
C 	C 	0.76950 0.98080 0.05520 -0.15900
H 	H 	0.77370 0.94440 0.09020 0.09800
O 	O 	0.89340 0.97200 0.02520 -0.35300
C 	C 	0.83190 0.00280 0.01540 0.23100
C 	C 	0.82060 0.05930 0.96210 -0.22400
H 	H 	0.85930 0.07660 0.93440 0.12600
C 	C 	0.75340 0.08670 0.95290 0.11700
H 	H 	0.74690 0.12290 0.91800 -0.00600
C 	C 	0.62270 0.10050 0.98130 -0.06200
H 	H 	0.62110 0.12110 0.93270 0.05600
H 	H 	0.61790 0.14010 0.01590 0.04800
C 	C 	0.55820 0.04760 0.99090 0.00800
N 	N 	0.50770 0.30620 0.56420 -0.16000
C 	C 	0.45730 0.29660 0.51250 0.16400
H 	H 	0.42980 0.33640 0.49750 -0.02100
C 	C 	0.44480 0.23050 0.48080 -0.30600
H 	H 	0.40980 0.22630 0.44440 0.14500
O 	O 	0.47480 0.10660 0.47200 -0.40500
C 	C 	0.48460 0.16810 0.50280 0.35300
C 	C 	0.53790 0.17940 0.55930 -0.31700
H 	H 	0.56560 0.14070 0.57660 0.15600
C 	C 	0.54710 0.24660 0.58670 0.16600
H 	H 	0.58200 0.25310 0.62290 -0.02500
C 	C 	0.51870 0.37730 0.60050 -0.08500
H 	H 	0.56730 0.37890 0.62110 0.06000
H 	H 	0.48410 0.38210 0.64010 0.06600
C 	C 	0.50910 0.44180 0.54760 0.00300
N 	N 	0.49230 0.80620 0.93580 -0.17900
C 	C 	0.54270 0.79660 0.98750 0.25000
H 	H 	0.57020 0.83640 0.00250 -0.05900
C 	C 	0.55520 0.73050 0.01920 -0.40300
H 	H 	0.59020 0.72630 0.05560 0.17700
O 	O 	0.52520 0.60660 0.02800 -0.43200
C 	C 	0.51540 0.66810 0.99720 0.42300
C 	C 	0.46210 0.67940 0.94070 -0.35700
H 	H 	0.43440 0.64070 0.92340 0.17200
C 	C 	0.45290 0.74660 0.91330 0.19400
H 	H 	0.41800 0.75310 0.87710 -0.03300
C 	C 	0.48130 0.87730 0.89950 -0.08000
H 	H 	0.43270 0.87890 0.87890 0.06100
H 	H 	0.51590 0.88210 0.85990 0.06500
C 	C 	0.49090 0.94180 0.95240 0.01300
N 	N 	0.00770 0.19380 0.43580 -0.17400
C 	C 	0.95730 0.20340 0.48750 0.19800
H 	H 	0.92980 0.16360 0.50250 -0.02900
C 	C 	0.94480 0.26950 0.51920 -0.33100
H 	H 	0.90980 0.27370 0.55560 0.15500
O 	O 	0.97480 0.39340 0.52800 -0.40500
C 	C 	0.98460 0.33190 0.49720 0.38700
C 	C 	0.03790 0.32060 0.44070 -0.35700
H 	H 	0.06560 0.35930 0.42340 0.16600
C 	C 	0.04710 0.25340 0.41330 0.18000
H 	H 	0.08200 0.24690 0.37710 -0.03300
C 	C 	0.01870 0.12270 0.39950 -0.11600
H 	H 	0.06730 0.12110 0.37890 0.06300
H 	H 	0.98410 0.11790 0.35990 0.08600
C 	C 	0.00910 0.05820 0.45240 -0.01200
N 	N 	0.99230 0.69380 0.06420 -0.12100
C 	C 	0.04270 0.70340 0.01250 0.02000
H 	H 	0.07020 0.66360 0.99750 0.04000
C 	C 	0.05520 0.76950 0.98080 -0.15900
H 	H 	0.09020 0.77370 0.94440 0.09800
O 	O 	0.02520 0.89340 0.97200 -0.35300
C 	C 	0.01540 0.83190 0.00280 0.23100
C 	C 	0.96210 0.82060 0.05930 -0.22400
H 	H 	0.93440 0.85930 0.07660 0.12600
C 	C 	0.95290 0.75340 0.08670 0.11700
H 	H 	0.91800 0.74690 0.12290 -0.00600
C 	C 	0.98130 0.62270 0.10050 -0.06200
H 	H 	0.93270 0.62110 0.12110 0.05600
H 	H 	0.01590 0.61790 0.14010 0.04800
C 	C 	0.99090 0.55820 0.04760 0.00800
N 	N 	0.43580 0.49230 0.69380 -0.15900
C 	C 	0.48750 0.54270 0.70340 0.16300
H 	H 	0.50250 0.57020 0.66360 -0.02000
C 	C 	0.51920 0.55520 0.76950 -0.30400
H 	H 	0.55560 0.59020 0.77370 0.14600
O 	O 	0.52800 0.52520 0.89340 -0.39700
C 	C 	0.49720 0.51540 0.83190 0.35000
C 	C 	0.44070 0.46210 0.82060 -0.31400
H 	H 	0.42340 0.43440 0.85930 0.15500
C 	C 	0.41330 0.45290 0.75340 0.16500
H 	H 	0.37710 0.41800 0.74690 -0.02400
C 	C 	0.39950 0.48130 0.62270 -0.08400
H 	H 	0.37890 0.43270 0.62110 0.05900
H 	H 	0.35990 0.51590 0.61790 0.06500
C 	C 	0.45240 0.49090 0.55820 0.00300
N 	N 	0.06420 0.50770 0.19380 -0.13500
C 	C 	0.01250 0.45730 0.20340 0.04700
H 	H 	0.99750 0.42980 0.16360 0.03300
C 	C 	0.98080 0.44480 0.26950 -0.17900
H 	H 	0.94440 0.40980 0.27370 0.10500
O 	O 	0.97200 0.47480 0.39340 -0.36400
C 	C 	0.00280 0.48460 0.33190 0.26200
C 	C 	0.05930 0.53790 0.32060 -0.26400
H 	H 	0.07660 0.56560 0.35930 0.13600
C 	C 	0.08670 0.54710 0.25340 0.13000
H 	H 	0.12290 0.58200 0.24690 -0.01400
C 	C 	0.10050 0.51870 0.12270 -0.08900
H 	H 	0.12110 0.56730 0.12110 0.05800
H 	H 	0.14010 0.48410 0.11790 0.06600
C 	C 	0.04760 0.50910 0.05820 -0.01300
N 	N 	0.56420 0.99230 0.80620 -0.14800
C 	C 	0.51250 0.04270 0.79660 0.13700
H 	H 	0.49750 0.07020 0.83640 -0.01300
C 	C 	0.48080 0.05520 0.73050 -0.28500
H 	H 	0.44440 0.09020 0.72630 0.13800
O 	O 	0.47200 0.02520 0.60660 -0.39800
C 	C 	0.50280 0.01540 0.66810 0.32300
C 	C 	0.55930 0.96210 0.67940 -0.28100
H 	H 	0.57660 0.93440 0.64070 0.14700
C 	C 	0.58670 0.95290 0.74660 0.15300
H 	H 	0.62290 0.91800 0.75310 -0.01800
C 	C 	0.60050 0.98130 0.87730 -0.06400
H 	H 	0.62110 0.93270 0.87890 0.05800
H 	H 	0.64010 0.01590 0.88210 0.05300
C 	C 	0.54760 0.99090 0.94180 0.01200
N 	N 	0.93580 0.00770 0.30620 -0.19000
C 	C 	0.98750 0.95730 0.29660 0.28000
H 	H 	0.00250 0.92980 0.33640 -0.06800
C 	C 	0.01920 0.94480 0.23050 -0.42500
H 	H 	0.05560 0.90980 0.22630 0.18500
O 	O 	0.02800 0.97480 0.10660 -0.43500
C 	C 	0.99720 0.98460 0.16810 0.45300
C 	C 	0.94070 0.03790 0.17940 -0.39100
H 	H 	0.92340 0.06560 0.14070 0.18000
C 	C 	0.91330 0.04710 0.24660 0.20600
H 	H 	0.87710 0.08200 0.25310 -0.04000
C 	C 	0.89950 0.01870 0.37730 -0.10600
H 	H 	0.87890 0.06730 0.37890 0.06500
H 	H 	0.85990 0.98410 0.38210 0.08100
C 	C 	0.95240 0.00910 0.44180 0.01100
N 	N 	0.69380 0.43580 0.49230 -0.15900
C 	C 	0.70340 0.48750 0.54270 0.16300
H 	H 	0.66360 0.50250 0.57020 -0.02000
C 	C 	0.76950 0.51920 0.55520 -0.30400
H 	H 	0.77370 0.55560 0.59020 0.14600
O 	O 	0.89340 0.52800 0.52520 -0.39700
C 	C 	0.83190 0.49720 0.51540 0.35000
C 	C 	0.82060 0.44070 0.46210 -0.31400
H 	H 	0.85930 0.42340 0.43440 0.15500
C 	C 	0.75340 0.41330 0.45290 0.16500
H 	H 	0.74690 0.37710 0.41800 -0.02400
C 	C 	0.62270 0.39950 0.48130 -0.08400
H 	H 	0.62110 0.37890 0.43270 0.05900
H 	H 	0.61790 0.35990 0.51590 0.06500
C 	C 	0.55820 0.45240 0.49090 0.00300
N 	N 	0.19380 0.06420 0.50770 -0.13500
C 	C 	0.20340 0.01250 0.45730 0.04700
H 	H 	0.16360 0.99750 0.42980 0.03300
C 	C 	0.26950 0.98080 0.44480 -0.17900
H 	H 	0.27370 0.94440 0.40980 0.10500
O 	O 	0.39340 0.97200 0.47480 -0.36400
C 	C 	0.33190 0.00280 0.48460 0.26200
C 	C 	0.32060 0.05930 0.53790 -0.26400
H 	H 	0.35930 0.07660 0.56560 0.13600
C 	C 	0.25340 0.08670 0.54710 0.13000
H 	H 	0.24690 0.12290 0.58200 -0.01400
C 	C 	0.12270 0.10050 0.51870 -0.08900
H 	H 	0.12110 0.12110 0.56730 0.05800
H 	H 	0.11790 0.14010 0.48410 0.06600
C 	C 	0.05820 0.04760 0.50910 -0.01300
N 	N 	0.80620 0.56420 0.99230 -0.14800
C 	C 	0.79660 0.51250 0.04270 0.13700
H 	H 	0.83640 0.49750 0.07020 -0.01300
C 	C 	0.73050 0.48080 0.05520 -0.28500
H 	H 	0.72630 0.44440 0.09020 0.13800
O 	O 	0.60660 0.47200 0.02520 -0.39800
C 	C 	0.66810 0.50280 0.01540 0.32300
C 	C 	0.67940 0.55930 0.96210 -0.28100
H 	H 	0.64070 0.57660 0.93440 0.14700
C 	C 	0.74660 0.58670 0.95290 0.15300
H 	H 	0.75310 0.62290 0.91800 -0.01800
C 	C 	0.87730 0.60050 0.98130 -0.06400
H 	H 	0.87890 0.62110 0.93270 0.05800
H 	H 	0.88210 0.64010 0.01590 0.05300
C 	C 	0.94180 0.54760 0.99090 0.01200
N 	N 	0.30620 0.93580 0.00770 -0.19000
C 	C 	0.29660 0.98750 0.95730 0.28000
H 	H 	0.33640 0.00250 0.92980 -0.06800
C 	C 	0.23050 0.01920 0.94480 -0.42500
H 	H 	0.22630 0.05560 0.90980 0.18500
O 	O 	0.10660 0.02800 0.97480 -0.43500
C 	C 	0.16810 0.99720 0.98460 0.45300
C 	C 	0.17940 0.94070 0.03790 -0.39100
H 	H 	0.14070 0.92340 0.06560 0.18000
C 	C 	0.24660 0.91330 0.04710 0.20600
H 	H 	0.25310 0.87710 0.08200 -0.04000
C 	C 	0.37730 0.89950 0.01870 -0.10600
H 	H 	0.37890 0.87890 0.06730 0.06500
H 	H 	0.38210 0.85990 0.98410 0.08100
C 	C 	0.44180 0.95240 0.00910 0.01100
N 	N 	0.49230 0.69380 0.43580 -0.15900
C 	C 	0.54270 0.70340 0.48750 0.16300
H 	H 	0.57020 0.66360 0.50250 -0.02000
C 	C 	0.55520 0.76950 0.51920 -0.30400
H 	H 	0.59020 0.77370 0.55560 0.14600
O 	O 	0.52520 0.89340 0.52800 -0.39700
C 	C 	0.51540 0.83190 0.49720 0.35000
C 	C 	0.46210 0.82060 0.44070 -0.31400
H 	H 	0.43440 0.85930 0.42340 0.15500
C 	C 	0.45290 0.75340 0.41330 0.16500
H 	H 	0.41800 0.74690 0.37710 -0.02400
C 	C 	0.48130 0.62270 0.39950 -0.08400
H 	H 	0.43270 0.62110 0.37890 0.05900
H 	H 	0.51590 0.61790 0.35990 0.06500
C 	C 	0.49090 0.55820 0.45240 0.00300
N 	N 	0.50770 0.19380 0.06420 -0.13500
C 	C 	0.45730 0.20340 0.01250 0.04700
H 	H 	0.42980 0.16360 0.99750 0.03300
C 	C 	0.44480 0.26950 0.98080 -0.17900
H 	H 	0.40980 0.27370 0.94440 0.10500
O 	O 	0.47480 0.39340 0.97200 -0.36400
C 	C 	0.48460 0.33190 0.00280 0.26200
C 	C 	0.53790 0.32060 0.05930 -0.26400
H 	H 	0.56560 0.35930 0.07660 0.13600
C 	C 	0.54710 0.25340 0.08670 0.13000
H 	H 	0.58200 0.24690 0.12290 -0.01400
C 	C 	0.51870 0.12270 0.10050 -0.08900
H 	H 	0.56730 0.12110 0.12110 0.05800
H 	H 	0.48410 0.11790 0.14010 0.06600
C 	C 	0.50910 0.05820 0.04760 -0.01300
N 	N 	0.99230 0.80620 0.56420 -0.14800
C 	C 	0.04270 0.79660 0.51250 0.13700
H 	H 	0.07020 0.83640 0.49750 -0.01300
C 	C 	0.05520 0.73050 0.48080 -0.28500
H 	H 	0.09020 0.72630 0.44440 0.13800
O 	O 	0.02520 0.60660 0.47200 -0.39800
C 	C 	0.01540 0.66810 0.50280 0.32300
C 	C 	0.96210 0.67940 0.55930 -0.28100
H 	H 	0.93440 0.64070 0.57660 0.14700
C 	C 	0.95290 0.74660 0.58670 0.15300
H 	H 	0.91800 0.75310 0.62290 -0.01800
C 	C 	0.98130 0.87730 0.60050 -0.06400
H 	H 	0.93270 0.87890 0.62110 0.05800
H 	H 	0.01590 0.88210 0.64010 0.05300
C 	C 	0.99090 0.94180 0.54760 0.01200
N 	N 	0.00770 0.30620 0.93580 -0.19000
C 	C 	0.95730 0.29660 0.98750 0.28000
H 	H 	0.92980 0.33640 0.00250 -0.06800
C 	C 	0.94480 0.23050 0.01920 -0.42500
H 	H 	0.90980 0.22630 0.05560 0.18500
O 	O 	0.97480 0.10660 0.02800 -0.43500
C 	C 	0.98460 0.16810 0.99720 0.45300
C 	C 	0.03790 0.17940 0.94070 -0.39100
H 	H 	0.06560 0.14070 0.92340 0.18000
C 	C 	0.04710 0.24660 0.91330 0.20600
H 	H 	0.08200 0.25310 0.87710 -0.04000
C 	C 	0.01870 0.37730 0.89950 -0.10600
H 	H 	0.06730 0.37890 0.87890 0.06500
H 	H 	0.98410 0.38210 0.85990 0.08100
C 	C 	0.00910 0.44180 0.95240 0.01100
Co	Co	0.50000 0.50000 -0.00000 1.20400
Co	Co	0.00000 0.50000 0.50000 1.20400
Co	Co	0.50000 0.00000 0.50000 1.20400
Co	Co	-0.00000 0.00000 -0.00000 1.18300
