data_crystal

_cell_length_a 17.61100
_cell_length_b 8.26320
_cell_length_c 9.49390
_cell_angle_alpha 90.00000
_cell_angle_beta  96.12800
_cell_angle_gamma 90.00000

_symmetry_space_group_name_	'P 1'
_symmetry_space_group_name_H-M	'P 1'

loop_
_symmetry_equiv_pos_as_xyz
  x,y,z

loop_
_atom_site_label
_atom_site_type_symbol
_atom_site_fract_x
_atom_site_fract_y
_atom_site_fract_z
_atom_site_charge
C 	C 	0.37470 0.02080 0.67120 0.14100
C 	C 	0.43900 0.00830 0.58200 -0.03300
C 	C 	0.46280 0.14690 0.51410 -0.05800
H 	H 	0.43780 0.24500 0.52260 0.01100
C 	C 	0.52460 0.13610 0.43330 -0.01400
H 	H 	0.54110 0.22830 0.38930 -0.03900
N 	N 	0.36710 0.14420 0.75930 -0.14600
N 	N 	0.30390 0.10630 0.82140 -0.38700
N 	N 	0.27430 0.97150 0.76970 -0.21700
N 	N 	0.31810 0.91160 0.67440 -0.39000
Cd	Cd	0.24880 0.24720 0.80450 1.15300
O 	O 	0.24910 0.25000 0.59600 -0.66700
C 	C 	0.87470 0.52080 0.67120 0.15900
C 	C 	0.93900 0.50830 0.58200 -0.10700
C 	C 	0.96280 0.64690 0.51410 0.04500
H 	H 	0.93780 0.74500 0.52260 -0.02200
C 	C 	0.02460 0.63610 0.43330 -0.12900
H 	H 	0.04110 0.72830 0.38930 -0.00900
N 	N 	0.86710 0.64420 0.75930 -0.14800
N 	N 	0.80390 0.60630 0.82140 -0.39000
N 	N 	0.77430 0.47150 0.76970 -0.21200
N 	N 	0.81810 0.41160 0.67440 -0.38800
Cd	Cd	0.74880 0.74720 0.80450 1.15300
O 	O 	0.74910 0.75000 0.59600 -0.66800
C 	C 	0.62530 0.02080 0.82880 0.21500
C 	C 	0.56100 0.00830 0.91800 -0.24400
C 	C 	0.53720 0.14690 0.98590 0.28300
H 	H 	0.56220 0.24500 0.97740 -0.07800
C 	C 	0.47540 0.13610 0.06670 -0.35800
H 	H 	0.45890 0.22830 0.11070 0.06500
N 	N 	0.63290 0.14420 0.74070 -0.16800
N 	N 	0.69610 0.10630 0.67860 -0.40900
N 	N 	0.72570 0.97150 0.73030 -0.21800
N 	N 	0.68190 0.91160 0.82560 -0.38800
Cd	Cd	0.75120 0.24720 0.69550 1.13800
O 	O 	0.75090 0.25000 0.90400 -0.47400
C 	C 	0.12530 0.52080 0.82880 0.19600
C 	C 	0.06100 0.50830 0.91800 -0.21300
C 	C 	0.03720 0.64690 0.98590 0.22100
H 	H 	0.06220 0.74500 0.97740 -0.06300
C 	C 	0.97540 0.63610 0.06670 -0.30400
H 	H 	0.95890 0.72830 0.11070 0.04900
N 	N 	0.13290 0.64420 0.74070 -0.16900
N 	N 	0.19610 0.60630 0.67860 -0.41300
N 	N 	0.22570 0.47150 0.73030 -0.21400
N 	N 	0.18190 0.41160 0.82560 -0.38200
Cd	Cd	0.25120 0.74720 0.69550 1.13700
O 	O 	0.25090 0.75000 0.90400 -0.47500
C 	C 	0.62530 0.97920 0.32880 0.13000
C 	C 	0.56100 0.99170 0.41800 -0.08700
C 	C 	0.53720 0.85310 0.48590 -0.01200
H 	H 	0.56220 0.75500 0.47740 -0.00700
C 	C 	0.47540 0.86390 0.56670 -0.07800
H 	H 	0.45890 0.77170 0.61070 -0.01000
N 	N 	0.63290 0.85580 0.24070 -0.16800
N 	N 	0.69610 0.89370 0.17860 -0.42900
N 	N 	0.72570 0.02850 0.23030 -0.22200
N 	N 	0.68190 0.08840 0.32560 -0.38700
Cd	Cd	0.75120 0.75280 0.19550 1.13500
O 	O 	0.75090 0.75000 0.40400 -0.67100
C 	C 	0.12530 0.47920 0.32880 0.11200
C 	C 	0.06100 0.49170 0.41800 -0.01300
C 	C 	0.03720 0.35310 0.48590 -0.11600
H 	H 	0.06220 0.25500 0.47740 0.02500
C 	C 	0.97540 0.36390 0.56670 0.03500
H 	H 	0.95890 0.27170 0.61070 -0.04100
N 	N 	0.13290 0.35580 0.24070 -0.16600
N 	N 	0.19610 0.39370 0.17860 -0.42500
N 	N 	0.22570 0.52850 0.23030 -0.22800
N 	N 	0.18190 0.58840 0.32560 -0.38900
Cd	Cd	0.25120 0.25280 0.19550 1.13500
O 	O 	0.25090 0.25000 0.40400 -0.67000
C 	C 	0.37470 0.97920 0.17120 0.05600
C 	C 	0.43900 0.99170 0.08200 0.12300
C 	C 	0.46280 0.85310 0.01410 -0.35700
H 	H 	0.43780 0.75500 0.02260 0.08500
C 	C 	0.52460 0.86390 0.93330 0.27200
H 	H 	0.54110 0.77170 0.88930 -0.11300
N 	N 	0.36710 0.85580 0.25930 -0.14900
N 	N 	0.30390 0.89370 0.32140 -0.41800
N 	N 	0.27430 0.02850 0.26970 -0.21800
N 	N 	0.31810 0.08840 0.17440 -0.38000
Cd	Cd	0.24880 0.75280 0.30450 1.13300
O 	O 	0.24910 0.75000 0.09600 -0.57300
C 	C 	0.87470 0.47920 0.17120 0.07700
C 	C 	0.93900 0.49170 0.08200 0.09500
C 	C 	0.96280 0.35310 0.01410 -0.29100
H 	H 	0.93780 0.25500 0.02260 0.06900
C 	C 	0.02460 0.36390 0.93330 0.21000
H 	H 	0.04110 0.27170 0.88930 -0.09700
N 	N 	0.86710 0.35580 0.25930 -0.14900
N 	N 	0.80390 0.39370 0.32140 -0.41300
N 	N 	0.77430 0.52850 0.26970 -0.22200
N 	N 	0.81810 0.58840 0.17440 -0.38700
Cd	Cd	0.74880 0.25280 0.30450 1.13400
O 	O 	0.74910 0.25000 0.09600 -0.57000
Cd	Cd	0.25000 0.25000 -0.00000 0.90200
Cd	Cd	0.75000 0.25000 0.50000 0.93200
Cd	Cd	0.75000 0.75000 -0.00000 0.90200
Cd	Cd	0.25000 0.75000 0.50000 0.93000
O 	O 	0.25000 0.25000 0.50000 0.52400
O 	O 	0.75000 0.25000 -0.00000 0.27300
O 	O 	0.75000 0.75000 0.50000 0.52500
O 	O 	0.25000 0.75000 -0.00000 0.27000
