data_crystal

_cell_length_a 7.78800
_cell_length_b 14.25900
_cell_length_c 36.54400
_cell_angle_alpha 90.00000
_cell_angle_beta  90.00000
_cell_angle_gamma 90.00000

_symmetry_space_group_name_	'P 1'
_symmetry_space_group_name_H-M	'P 1'

loop_
_symmetry_equiv_pos_as_xyz
  x,y,z

loop_
_atom_site_label
_atom_site_type_symbol
_atom_site_fract_x
_atom_site_fract_y
_atom_site_fract_z
_atom_site_charge
Ag	Ag	0.58710 0.39392 0.55853 0.53400
Ag	Ag	0.92016 0.11557 0.64808 0.53100
Ag	Ag	0.45180 0.68627 0.31906 0.50500
N 	N 	0.95900 0.09070 0.80510 -0.09900
N 	N 	0.89200 0.16530 0.80600 -0.13300
N 	N 	0.77540 0.29530 0.59710 -0.13600
N 	N 	0.72910 0.21110 0.60480 -0.13600
N 	N 	0.57200 0.38180 0.40740 -0.10000
N 	N 	0.60700 0.34150 0.37710 -0.14600
N 	N 	0.09920 0.91580 0.87080 -0.16300
N 	N 	0.03300 0.10600 0.86770 -0.17500
N 	N 	0.85400 0.18080 0.70380 -0.14800
N 	N 	0.74400 0.27110 0.76850 -0.17600
N 	N 	0.07430 0.46480 0.63630 -0.16300
N 	N 	0.03210 0.26650 0.63030 -0.16600
N 	N 	0.42690 0.04650 0.56640 -0.16800
N 	N 	0.47810 0.24710 0.56970 -0.16900
N 	N 	0.66800 0.32740 0.50170 -0.16000
N 	N 	0.79200 0.27980 0.43300 -0.16100
N 	N 	0.42300 0.52910 0.32030 -0.15600
N 	N 	0.47300 0.34160 0.31980 -0.19300
C 	C 	0.00400 0.05620 0.84000 0.11200
C 	C 	0.03800 0.95260 0.84150 -0.03700
H 	H 	0.01420 0.91520 0.82120 0.01700
C 	C 	0.13100 0.97180 0.90150 -0.03400
H 	H 	0.17560 0.94760 0.92320 0.02900
C 	C 	0.09300 0.06540 0.89720 0.03600
H 	H 	0.11080 0.10380 0.91740 0.01100
C 	C 	0.84200 0.19390 0.76890 0.11800
C 	C 	0.90000 0.14990 0.74070 -0.08300
H 	H 	0.97130 0.09820 0.74380 0.05800
C 	C 	0.74400 0.25520 0.70320 -0.01300
H 	H 	0.69740 0.27410 0.68100 0.02200
C 	C 	0.69900 0.30370 0.73490 0.00100
H 	H 	0.63790 0.35940 0.73300 0.01100
C 	C 	0.92640 0.32750 0.61670 0.09400
C 	C 	0.94940 0.42420 0.61700 -0.05000
H 	H 	0.87560 0.46170 0.60340 0.01400
C 	C 	0.19700 0.39990 0.65130 -0.03000
H 	H 	0.29350 0.42220 0.66350 0.01800
C 	C 	0.17300 0.30900 0.64770 0.00300
H 	H 	0.25620 0.26960 0.65750 0.01500
C 	C 	0.58320 0.18250 0.58670 0.09200
C 	C 	0.55300 0.08860 0.58490 -0.04900
H 	H 	0.62680 0.05000 0.59800 0.01700
C 	C 	0.32100 0.10740 0.55110 -0.00600
H 	H 	0.22330 0.08480 0.53940 0.01100
C 	C 	0.34900 0.20620 0.55180 0.00200
H 	H 	0.27310 0.24430 0.53900 0.01600
C 	C 	0.66500 0.34190 0.43610 0.09400
C 	C 	0.60300 0.36670 0.47250 -0.03200
H 	H 	0.51600 0.41110 0.47500 0.02700
C 	C 	0.78800 0.27280 0.49760 0.03100
H 	H 	0.83530 0.24720 0.51870 0.01000
C 	C 	0.86000 0.24530 0.46420 -0.02100
H 	H 	0.95340 0.20450 0.46360 0.02300
C 	C 	0.52800 0.39220 0.34520 0.11800
C 	C 	0.50600 0.48750 0.34930 -0.06000
H 	H 	0.54450 0.52060 0.36970 0.04000
C 	C 	0.38100 0.47860 0.29110 -0.00700
H 	H 	0.33760 0.50850 0.27040 0.01800
C 	C 	0.40200 0.37400 0.29090 0.02500
H 	H 	0.36720 0.33630 0.27150 0.00300
Ag	Ag	0.12140 0.75637 0.86938 0.51600
Ag	Ag	0.41290 0.89392 0.55853 0.53300
Ag	Ag	0.07984 0.61557 0.64808 0.53000
Ag	Ag	0.54820 0.18627 0.31906 0.50400
N 	N 	0.04100 0.59070 0.80510 -0.09900
N 	N 	0.10800 0.66530 0.80600 -0.13300
N 	N 	0.22460 0.79530 0.59710 -0.13600
N 	N 	0.27090 0.71110 0.60480 -0.13600
N 	N 	0.42800 0.88180 0.40740 -0.10000
N 	N 	0.39300 0.84150 0.37710 -0.14600
N 	N 	0.90080 0.41580 0.87080 -0.16300
N 	N 	0.96700 0.60600 0.86770 -0.17400
N 	N 	0.14600 0.68080 0.70380 -0.14800
N 	N 	0.25600 0.77110 0.76850 -0.17600
N 	N 	0.92570 0.96480 0.63630 -0.16200
N 	N 	0.96790 0.76650 0.63030 -0.16600
N 	N 	0.57310 0.54650 0.56640 -0.16800
N 	N 	0.52190 0.74710 0.56970 -0.16900
N 	N 	0.33200 0.82740 0.50170 -0.16000
N 	N 	0.20800 0.77980 0.43300 -0.16100
N 	N 	0.57700 0.02910 0.32030 -0.15600
N 	N 	0.52700 0.84160 0.31980 -0.19300
C 	C 	0.99600 0.55620 0.84000 0.11100
C 	C 	0.96200 0.45260 0.84150 -0.03500
H 	H 	0.98580 0.41520 0.82120 0.01600
C 	C 	0.86900 0.47180 0.90150 -0.03200
H 	H 	0.82440 0.44760 0.92320 0.02900
C 	C 	0.90700 0.56540 0.89720 0.03400
H 	H 	0.88920 0.60380 0.91740 0.01100
C 	C 	0.15800 0.69390 0.76890 0.11800
C 	C 	0.10000 0.64990 0.74070 -0.08300
H 	H 	0.02870 0.59820 0.74380 0.05900
C 	C 	0.25600 0.75520 0.70320 -0.01300
H 	H 	0.30260 0.77410 0.68100 0.02200
C 	C 	0.30100 0.80370 0.73490 0.00100
H 	H 	0.36210 0.85940 0.73300 0.01100
C 	C 	0.07360 0.82750 0.61670 0.09400
C 	C 	0.05060 0.92420 0.61700 -0.05100
H 	H 	0.12440 0.96170 0.60340 0.01400
C 	C 	0.80300 0.89990 0.65130 -0.03000
H 	H 	0.70650 0.92220 0.66350 0.01800
C 	C 	0.82700 0.80900 0.64770 0.00300
H 	H 	0.74380 0.76960 0.65750 0.01500
C 	C 	0.41680 0.68250 0.58670 0.09200
C 	C 	0.44700 0.58860 0.58490 -0.04900
H 	H 	0.37320 0.55000 0.59800 0.01700
C 	C 	0.67900 0.60740 0.55110 -0.00600
H 	H 	0.77670 0.58480 0.53940 0.01100
C 	C 	0.65100 0.70620 0.55180 0.00200
H 	H 	0.72690 0.74430 0.53900 0.01600
C 	C 	0.33500 0.84190 0.43610 0.09400
C 	C 	0.39700 0.86670 0.47250 -0.03200
H 	H 	0.48400 0.91110 0.47500 0.02700
C 	C 	0.21200 0.77280 0.49760 0.03100
H 	H 	0.16470 0.74720 0.51870 0.01000
C 	C 	0.14000 0.74530 0.46420 -0.02100
H 	H 	0.04660 0.70450 0.46360 0.02300
C 	C 	0.47200 0.89220 0.34520 0.11800
C 	C 	0.49400 0.98750 0.34930 -0.06100
H 	H 	0.45550 0.02060 0.36970 0.04000
C 	C 	0.61900 0.97860 0.29110 -0.00600
H 	H 	0.66240 0.00850 0.27040 0.01700
C 	C 	0.59800 0.87400 0.29090 0.02500
H 	H 	0.63280 0.83630 0.27150 0.00300
Ag	Ag	0.87860 0.25637 0.86938 0.51600
Ag	Ag	0.87860 0.24363 0.36938 0.51600
Ag	Ag	0.41290 0.60608 0.05853 0.53300
Ag	Ag	0.07984 0.88443 0.14808 0.53000
Ag	Ag	0.54820 0.31373 0.81906 0.50400
N 	N 	0.04100 0.90930 0.30510 -0.10000
N 	N 	0.10800 0.83470 0.30600 -0.13300
N 	N 	0.22460 0.70470 0.09710 -0.13600
N 	N 	0.27090 0.78890 0.10480 -0.13600
N 	N 	0.42800 0.61820 0.90740 -0.10000
N 	N 	0.39300 0.65850 0.87710 -0.14600
N 	N 	0.90080 0.08420 0.37080 -0.16300
N 	N 	0.96700 0.89400 0.36770 -0.17500
N 	N 	0.14600 0.81920 0.20380 -0.14800
N 	N 	0.25600 0.72890 0.26850 -0.17600
N 	N 	0.92570 0.53520 0.13630 -0.16300
N 	N 	0.96790 0.73350 0.13030 -0.16600
N 	N 	0.57310 0.95350 0.06640 -0.16800
N 	N 	0.52190 0.75290 0.06970 -0.16900
N 	N 	0.33200 0.67260 0.00170 -0.15900
N 	N 	0.20800 0.72020 0.93300 -0.16100
N 	N 	0.57700 0.47090 0.82030 -0.15600
N 	N 	0.52700 0.65840 0.81980 -0.19300
C 	C 	0.99600 0.94380 0.34000 0.11200
C 	C 	0.96200 0.04740 0.34150 -0.03700
H 	H 	0.98580 0.08480 0.32120 0.01700
C 	C 	0.86900 0.02820 0.40150 -0.03400
H 	H 	0.82440 0.05240 0.42320 0.02900
C 	C 	0.90700 0.93460 0.39720 0.03600
H 	H 	0.88920 0.89620 0.41740 0.01100
C 	C 	0.15800 0.80610 0.26890 0.11800
C 	C 	0.10000 0.85010 0.24070 -0.08300
H 	H 	0.02870 0.90180 0.24380 0.05800
C 	C 	0.25600 0.74480 0.20320 -0.01300
H 	H 	0.30260 0.72590 0.18100 0.02200
C 	C 	0.30100 0.69630 0.23490 0.00100
H 	H 	0.36210 0.64060 0.23300 0.01100
C 	C 	0.07360 0.67250 0.11670 0.09400
C 	C 	0.05060 0.57580 0.11700 -0.05000
H 	H 	0.12440 0.53830 0.10340 0.01400
C 	C 	0.80300 0.60010 0.15130 -0.03000
H 	H 	0.70650 0.57780 0.16350 0.01800
C 	C 	0.82700 0.69100 0.14770 0.00300
H 	H 	0.74380 0.73040 0.15750 0.01500
C 	C 	0.41680 0.81750 0.08670 0.09200
C 	C 	0.44700 0.91140 0.08490 -0.04800
H 	H 	0.37320 0.95000 0.09800 0.01700
C 	C 	0.67900 0.89260 0.05110 -0.00600
H 	H 	0.77670 0.91520 0.03940 0.01100
C 	C 	0.65100 0.79380 0.05180 0.00200
H 	H 	0.72690 0.75570 0.03900 0.01600
C 	C 	0.33500 0.65810 0.93610 0.09400
C 	C 	0.39700 0.63330 0.97250 -0.03300
H 	H 	0.48400 0.58890 0.97500 0.02700
C 	C 	0.21200 0.72720 0.99760 0.02800
H 	H 	0.16470 0.75280 0.01870 0.01100
C 	C 	0.14000 0.75470 0.96420 -0.02000
H 	H 	0.04660 0.79550 0.96360 0.02300
C 	C 	0.47200 0.60780 0.84520 0.11800
C 	C 	0.49400 0.51250 0.84930 -0.06000
H 	H 	0.45550 0.47940 0.86970 0.04000
C 	C 	0.61900 0.52140 0.79110 -0.00700
H 	H 	0.66240 0.49150 0.77040 0.01800
C 	C 	0.59800 0.62600 0.79090 0.02500
H 	H 	0.63280 0.66370 0.77150 0.00300
Ag	Ag	0.12140 0.74363 0.36938 0.51600
Ag	Ag	0.58710 0.10608 0.05853 0.53300
Ag	Ag	0.92016 0.38443 0.14808 0.53000
Ag	Ag	0.45180 0.81373 0.81906 0.50400
N 	N 	0.95900 0.40930 0.30510 -0.09900
N 	N 	0.89200 0.33470 0.30600 -0.13300
N 	N 	0.77540 0.20470 0.09710 -0.13600
N 	N 	0.72910 0.28890 0.10480 -0.13600
N 	N 	0.57200 0.11820 0.90740 -0.10000
N 	N 	0.60700 0.15850 0.87710 -0.14600
N 	N 	0.09920 0.58420 0.37080 -0.16300
N 	N 	0.03300 0.39400 0.36770 -0.17400
N 	N 	0.85400 0.31920 0.20380 -0.14800
N 	N 	0.74400 0.22890 0.26850 -0.17600
N 	N 	0.07430 0.03520 0.13630 -0.16200
N 	N 	0.03210 0.23350 0.13030 -0.16600
N 	N 	0.42690 0.45350 0.06640 -0.16800
N 	N 	0.47810 0.25290 0.06970 -0.16900
N 	N 	0.66800 0.17260 0.00170 -0.15900
N 	N 	0.79200 0.22020 0.93300 -0.16100
N 	N 	0.42300 0.97090 0.82030 -0.15600
N 	N 	0.47300 0.15840 0.81980 -0.19300
C 	C 	0.00400 0.44380 0.34000 0.11100
C 	C 	0.03800 0.54740 0.34150 -0.03500
H 	H 	0.01420 0.58480 0.32120 0.01600
C 	C 	0.13100 0.52820 0.40150 -0.03200
H 	H 	0.17560 0.55240 0.42320 0.02900
C 	C 	0.09300 0.43460 0.39720 0.03400
H 	H 	0.11080 0.39620 0.41740 0.01100
C 	C 	0.84200 0.30610 0.26890 0.11800
C 	C 	0.90000 0.35010 0.24070 -0.08300
H 	H 	0.97130 0.40180 0.24380 0.05900
C 	C 	0.74400 0.24480 0.20320 -0.01300
H 	H 	0.69740 0.22590 0.18100 0.02200
C 	C 	0.69900 0.19630 0.23490 0.00100
H 	H 	0.63790 0.14060 0.23300 0.01100
C 	C 	0.92640 0.17250 0.11670 0.09400
C 	C 	0.94940 0.07580 0.11700 -0.05100
H 	H 	0.87560 0.03830 0.10340 0.01400
C 	C 	0.19700 0.10010 0.15130 -0.03000
H 	H 	0.29350 0.07780 0.16350 0.01800
C 	C 	0.17300 0.19100 0.14770 0.00300
H 	H 	0.25620 0.23040 0.15750 0.01500
C 	C 	0.58320 0.31750 0.08670 0.09200
C 	C 	0.55300 0.41140 0.08490 -0.04900
H 	H 	0.62680 0.45000 0.09800 0.01700
C 	C 	0.32100 0.39260 0.05110 -0.00600
H 	H 	0.22330 0.41520 0.03940 0.01100
C 	C 	0.34900 0.29380 0.05180 0.00200
H 	H 	0.27310 0.25570 0.03900 0.01600
C 	C 	0.66500 0.15810 0.93610 0.09400
C 	C 	0.60300 0.13330 0.97250 -0.03300
H 	H 	0.51600 0.08890 0.97500 0.02700
C 	C 	0.78800 0.22720 0.99760 0.02900
H 	H 	0.83530 0.25280 0.01870 0.01100
C 	C 	0.86000 0.25470 0.96420 -0.02000
H 	H 	0.95340 0.29550 0.96360 0.02300
C 	C 	0.52800 0.10780 0.84520 0.11800
C 	C 	0.50600 0.01250 0.84930 -0.06100
H 	H 	0.54450 0.97940 0.86970 0.04000
C 	C 	0.38100 0.02140 0.79110 -0.00600
H 	H 	0.33760 0.99150 0.77040 0.01700
C 	C 	0.40200 0.12600 0.79090 0.02500
H 	H 	0.36720 0.16370 0.77150 0.00300
