data_crystal

_cell_length_a 15.91250
_cell_length_b 20.94860
_cell_length_c 13.90230
_cell_angle_alpha 90.00000
_cell_angle_beta  90.00000
_cell_angle_gamma 90.00000

_symmetry_space_group_name_	'P 1'
_symmetry_space_group_name_H-M	'P 1'

loop_
_symmetry_equiv_pos_as_xyz
  x,y,z

loop_
_atom_site_label
_atom_site_type_symbol
_atom_site_fract_x
_atom_site_fract_y
_atom_site_fract_z
_atom_site_charge
Cd	Cd	0.74862 0.40932 0.40039 1.23000
N 	N 	0.76120 0.41250 0.56840 -0.26400
O 	O 	0.72110 0.51812 0.37970 -0.37600
O 	O 	0.85460 0.50178 0.40970 -0.48700
N 	N 	0.73610 0.40030 0.23390 -0.23400
O 	O 	0.50270 0.88896 0.56600 -0.41500
C 	C 	0.77200 0.36340 0.61890 0.16100
H 	H 	0.78330 0.32520 0.58750 -0.03500
O 	O 	0.39280 0.60862 0.41670 -0.37400
C 	C 	0.56090 0.85040 0.57940 0.38000
C 	C 	0.79490 0.53820 0.39100 0.36100
O 	O 	0.62622 0.86011 0.62770 -0.43000
C 	C 	0.62560 0.74580 0.53140 0.02200
H 	H 	0.67650 0.76070 0.55550 0.03700
C 	C 	0.76120 0.46580 0.61510 0.15000
H 	H 	0.75920 0.50310 0.57890 -0.01200
N 	N 	0.73660 0.64690 0.39470 -0.11400
C 	C 	0.70180 0.64910 0.48130 0.21600
C 	C 	0.76380 0.47250 0.71320 -0.23900
H 	H 	0.76210 0.51270 0.74160 0.12100
C 	C 	0.81140 0.60800 0.37550 -0.11300
H 	H 	0.85630 0.62140 0.41940 0.09100
C 	C 	0.62130 0.68730 0.49160 -0.06000
O 	O 	0.73130 0.62070 0.54960 -0.22200
C 	C 	0.75820 0.34440 0.08720 -0.20200
H 	H 	0.78250 0.30970 0.05600 0.10000
C 	C 	0.76470 0.35060 0.18530 0.11800
H 	H 	0.79070 0.31790 0.21950 -0.00800
C 	C 	0.76790 0.36270 0.71930 -0.24400
H 	H 	0.76460 0.32410 0.75220 0.11200
O 	O 	0.32630 0.69991 0.42970 -0.33800
C 	C 	0.47710 0.76010 0.50160 0.03400
H 	H 	0.42910 0.78540 0.50240 0.04300
C 	C 	0.47310 0.69780 0.46560 -0.08500
C 	C 	0.55370 0.78450 0.53660 -0.11700
C 	C 	0.54820 0.66360 0.45750 0.01000
H 	H 	0.54770 0.62370 0.42810 0.05400
C 	C 	0.39170 0.66790 0.43510 0.30800
C 	C 	0.76890 0.41840 0.76820 0.19300
C 	C 	0.71480 0.39070 0.03490 0.15500
C 	C 	0.83730 0.62360 0.27520 -0.03800
H 	H 	0.82980 0.58640 0.23450 0.04200
H 	H 	0.89630 0.63520 0.27420 0.04700
C 	C 	0.68770 0.44040 0.08110 -0.20300
H 	H 	0.66100 0.47290 0.04730 0.09800
C 	C 	0.77620 0.41830 0.87690 -0.20400
H 	H 	0.82650 0.39490 0.89470 0.09300
H 	H 	0.78340 0.46200 0.89850 0.09100
C 	C 	0.69800 0.44630 0.18200 0.09800
H 	H 	0.67800 0.48270 0.21300 -0.00200
C 	C 	0.70640 0.39120 0.92690 -0.14800
H 	H 	0.69880 0.34760 0.90490 0.06800
H 	H 	0.65620 0.41490 0.90990 0.07200
C 	C 	0.70630 0.67800 0.30150 -0.02900
H 	H 	0.68590 0.72090 0.31330 0.04000
H 	H 	0.66160 0.65300 0.27240 0.04900
C 	C 	0.78430 0.67900 0.23690 -0.12200
H 	H 	0.76930 0.67240 0.17010 0.06100
H 	H 	0.81410 0.71920 0.24280 0.06700
C 	C 	0.05060 0.53880 0.20520 0.01800
H 	H 	0.08460 0.56730 0.23870 0.01400
C 	C 	0.96550 0.54790 0.63600 0.00700
H 	H 	0.94080 0.58190 0.60350 0.03800
C 	C 	0.05340 0.53760 0.11000 -0.03900
C 	C 	0.96500 0.54890 0.73740 0.04800
C 	C 	0.97970 0.52040 0.05980 0.05300
C 	C 	0.98970 0.51490 0.78090 -0.10600
Cd	Cd	0.25138 0.59068 0.40039 1.22900
N 	N 	0.23880 0.58750 0.56840 -0.26400
O 	O 	0.27890 0.48188 0.37970 -0.37700
O 	O 	0.14540 0.49822 0.40970 -0.49600
N 	N 	0.26390 0.59970 0.23390 -0.23500
O 	O 	0.49730 0.11104 0.56600 -0.42200
C 	C 	0.22800 0.63660 0.61890 0.15600
H 	H 	0.21670 0.67480 0.58750 -0.03500
O 	O 	0.60720 0.39138 0.41670 -0.37400
C 	C 	0.43910 0.14960 0.57940 0.38100
C 	C 	0.20510 0.46180 0.39100 0.36200
O 	O 	0.37378 0.13989 0.62770 -0.43500
C 	C 	0.37440 0.25420 0.53140 0.02200
H 	H 	0.32350 0.23930 0.55550 0.03600
C 	C 	0.23880 0.53420 0.61510 0.14500
H 	H 	0.24080 0.49690 0.57890 -0.01100
N 	N 	0.26340 0.35310 0.39470 -0.11400
C 	C 	0.29820 0.35090 0.48130 0.21600
C 	C 	0.23620 0.52750 0.71320 -0.23500
H 	H 	0.23790 0.48730 0.74160 0.11900
C 	C 	0.18860 0.39200 0.37550 -0.11400
H 	H 	0.14370 0.37860 0.41940 0.08300
C 	C 	0.37870 0.31270 0.49160 -0.06000
O 	O 	0.26870 0.37930 0.54960 -0.22300
C 	C 	0.24180 0.65560 0.08720 -0.20500
H 	H 	0.21750 0.69030 0.05600 0.09800
C 	C 	0.23530 0.64940 0.18530 0.11800
H 	H 	0.20930 0.68210 0.21950 -0.01000
C 	C 	0.23210 0.63730 0.71930 -0.24100
H 	H 	0.23540 0.67590 0.75220 0.10900
O 	O 	0.67370 0.30009 0.42970 -0.33700
C 	C 	0.52290 0.23990 0.50160 0.03500
H 	H 	0.57090 0.21460 0.50240 0.04300
C 	C 	0.52690 0.30220 0.46560 -0.08500
C 	C 	0.44630 0.21550 0.53660 -0.11700
C 	C 	0.45180 0.33640 0.45750 0.01000
H 	H 	0.45230 0.37630 0.42810 0.05400
C 	C 	0.60830 0.33210 0.43510 0.30800
C 	C 	0.23110 0.58160 0.76820 0.18400
C 	C 	0.28520 0.60930 0.03490 0.15800
C 	C 	0.16270 0.37640 0.27520 -0.03500
H 	H 	0.17020 0.41360 0.23450 0.03900
H 	H 	0.10370 0.36480 0.27420 0.03500
C 	C 	0.31230 0.55960 0.08110 -0.20500
H 	H 	0.33900 0.52710 0.04730 0.09900
C 	C 	0.22380 0.58170 0.87690 -0.19200
H 	H 	0.17350 0.60510 0.89470 0.08400
H 	H 	0.21660 0.53800 0.89850 0.08600
C 	C 	0.30200 0.55370 0.18200 0.09900
H 	H 	0.32200 0.51730 0.21300 -0.00200
C 	C 	0.29360 0.60880 0.92690 -0.15700
H 	H 	0.30120 0.65240 0.90490 0.07000
H 	H 	0.34380 0.58510 0.90990 0.07400
C 	C 	0.29370 0.32200 0.30150 -0.03000
H 	H 	0.31410 0.27910 0.31330 0.04000
H 	H 	0.33840 0.34700 0.27240 0.04900
C 	C 	0.21570 0.32100 0.23690 -0.12300
H 	H 	0.23070 0.32760 0.17010 0.06000
H 	H 	0.18590 0.28080 0.24280 0.06300
C 	C 	0.94940 0.46120 0.20520 0.03800
H 	H 	0.91540 0.43270 0.23870 0.01300
C 	C 	0.03450 0.45210 0.63600 0.01800
H 	H 	0.05920 0.41810 0.60350 0.02500
C 	C 	0.94660 0.46240 0.11000 -0.01100
C 	C 	0.03500 0.45110 0.73740 -0.05500
C 	C 	0.02030 0.47960 0.05980 -0.05800
C 	C 	0.01030 0.48510 0.78090 0.04200
Cd	Cd	0.75138 0.90932 0.59961 1.23300
N 	N 	0.73880 0.91250 0.43160 -0.26300
O 	O 	0.77890 0.01812 0.62030 -0.38500
O 	O 	0.64540 0.00178 0.59030 -0.50300
N 	N 	0.76390 0.90030 0.76610 -0.23400
O 	O 	0.99730 0.38896 0.43400 -0.40200
C 	C 	0.72800 0.86340 0.38110 0.15400
H 	H 	0.71670 0.82520 0.41250 -0.03300
O 	O 	0.10720 0.10862 0.58330 -0.38700
C 	C 	0.93910 0.35040 0.42060 0.37300
C 	C 	0.70510 0.03820 0.60900 0.36400
O 	O 	0.87378 0.36011 0.37230 -0.42800
C 	C 	0.87440 0.24580 0.46860 0.02000
H 	H 	0.82350 0.26070 0.44450 0.03800
C 	C 	0.73880 0.96580 0.38490 0.16700
H 	H 	0.74080 0.00310 0.42110 -0.02900
N 	N 	0.76340 0.14690 0.60530 -0.11400
C 	C 	0.79820 0.14910 0.51870 0.21900
C 	C 	0.73620 0.97250 0.28680 -0.20200
H 	H 	0.73790 0.01270 0.25840 0.09600
C 	C 	0.68860 0.10800 0.62450 -0.11700
H 	H 	0.64370 0.12140 0.58060 0.08800
C 	C 	0.87870 0.18730 0.50840 -0.06700
O 	O 	0.76870 0.12070 0.45040 -0.22300
C 	C 	0.74180 0.84440 0.91280 -0.20900
H 	H 	0.71750 0.80970 0.94400 0.10200
C 	C 	0.73530 0.85060 0.81470 0.12300
H 	H 	0.70930 0.81790 0.78050 -0.01000
C 	C 	0.73210 0.86270 0.28070 -0.23200
H 	H 	0.73540 0.82410 0.24780 0.10700
O 	O 	0.17370 0.19991 0.57030 -0.34100
C 	C 	0.02290 0.26010 0.49840 0.00800
H 	H 	0.07090 0.28540 0.49760 0.04700
C 	C 	0.02690 0.19780 0.53440 -0.11000
C 	C 	0.94630 0.28450 0.46340 -0.08900
C 	C 	0.95180 0.16360 0.54250 0.04500
H 	H 	0.95230 0.12370 0.57190 0.04700
C 	C 	0.10830 0.16790 0.56490 0.31300
C 	C 	0.73110 0.91840 0.23180 0.17300
C 	C 	0.78520 0.89070 0.96510 0.16900
C 	C 	0.66270 0.12360 0.72480 -0.03300
H 	H 	0.67020 0.08640 0.76550 0.03700
H 	H 	0.60370 0.13520 0.72580 0.04000
C 	C 	0.81230 0.94040 0.91890 -0.21000
H 	H 	0.83900 0.97290 0.95270 0.10800
C 	C 	0.72380 0.91830 0.12310 -0.17900
H 	H 	0.67350 0.89490 0.10530 0.08400
H 	H 	0.71660 0.96200 0.10150 0.08900
C 	C 	0.80200 0.94630 0.81800 0.10500
H 	H 	0.82200 0.98270 0.78700 0.00500
C 	C 	0.79360 0.89120 0.07310 -0.17100
H 	H 	0.80120 0.84760 0.09510 0.07700
H 	H 	0.84380 0.91490 0.09010 0.08400
C 	C 	0.79370 0.17800 0.69850 -0.03000
H 	H 	0.81410 0.22090 0.68670 0.04200
H 	H 	0.83840 0.15300 0.72760 0.05000
C 	C 	0.71570 0.17900 0.76310 -0.12400
H 	H 	0.73070 0.17240 0.82990 0.06100
H 	H 	0.68590 0.21920 0.75720 0.06500
C 	C 	0.44940 0.03880 0.79480 0.01400
H 	H 	0.41540 0.06730 0.76130 0.01500
C 	C 	0.53450 0.04790 0.36400 0.01700
H 	H 	0.55920 0.08190 0.39650 0.02900
C 	C 	0.44660 0.03760 0.89000 -0.03000
C 	C 	0.53500 0.04890 0.26260 -0.04700
C 	C 	0.52030 0.02040 0.94020 -0.04500
C 	C 	0.51030 0.01490 0.21910 0.03700
Cd	Cd	0.24862 0.09068 0.59961 1.22600
N 	N 	0.26120 0.08750 0.43160 -0.26500
O 	O 	0.22110 0.98188 0.62030 -0.36800
O 	O 	0.35460 0.99822 0.59030 -0.48100
N 	N 	0.23610 0.09970 0.76610 -0.23500
O 	O 	0.00270 0.61104 0.43400 -0.43400
C 	C 	0.27200 0.13660 0.38110 0.16300
H 	H 	0.28330 0.17480 0.41250 -0.03700
O 	O 	0.89280 0.89138 0.58330 -0.36200
C 	C 	0.06090 0.64960 0.42060 0.38700
C 	C 	0.29490 0.96180 0.60900 0.35900
O 	O 	0.12622 0.63989 0.37230 -0.43600
C 	C 	0.12560 0.75420 0.46860 0.02500
H 	H 	0.17650 0.73930 0.44450 0.03500
C 	C 	0.26120 0.03420 0.38490 0.12700
H 	H 	0.25920 0.99690 0.42110 0.00700
N 	N 	0.23660 0.85310 0.60530 -0.11400
C 	C 	0.20180 0.85090 0.51870 0.21300
C 	C 	0.26380 0.02750 0.28680 -0.27300
H 	H 	0.26210 0.98730 0.25840 0.14400
C 	C 	0.31140 0.89200 0.62450 -0.11000
H 	H 	0.35630 0.87860 0.58060 0.08600
C 	C 	0.12130 0.81270 0.50840 -0.05400
O 	O 	0.23130 0.87930 0.45040 -0.22200
C 	C 	0.25820 0.15560 0.91280 -0.19700
H 	H 	0.28250 0.19030 0.94400 0.09600
C 	C 	0.26470 0.14940 0.81470 0.11300
H 	H 	0.29070 0.18210 0.78050 -0.00800
C 	C 	0.26790 0.13730 0.28070 -0.25300
H 	H 	0.26460 0.17590 0.24780 0.11400
O 	O 	0.82630 0.80009 0.57030 -0.33500
C 	C 	0.97710 0.73990 0.49840 0.06000
H 	H 	0.92910 0.71460 0.49760 0.03800
C 	C 	0.97310 0.80220 0.53440 -0.06300
C 	C 	0.05370 0.71550 0.46340 -0.14400
C 	C 	0.04820 0.83640 0.54250 -0.02200
H 	H 	0.04770 0.87630 0.57190 0.06100
C 	C 	0.89170 0.83210 0.56490 0.30300
C 	C 	0.26890 0.08160 0.23180 0.20500
C 	C 	0.21480 0.10930 0.96510 0.14400
C 	C 	0.33730 0.87640 0.72480 -0.04000
H 	H 	0.32980 0.91360 0.76550 0.04400
H 	H 	0.39630 0.86480 0.72580 0.04300
C 	C 	0.18770 0.05960 0.91890 -0.19900
H 	H 	0.16100 0.02710 0.95270 0.08900
C 	C 	0.27620 0.08170 0.12310 -0.21700
H 	H 	0.32650 0.10510 0.10530 0.09300
H 	H 	0.28340 0.03800 0.10150 0.08800
C 	C 	0.19800 0.05370 0.81800 0.09100
H 	H 	0.17800 0.01730 0.78700 -0.00900
C 	C 	0.20640 0.10880 0.07310 -0.13400
H 	H 	0.19880 0.15240 0.09510 0.06100
H 	H 	0.15620 0.08510 0.09010 0.06200
C 	C 	0.20630 0.82200 0.69850 -0.02900
H 	H 	0.18590 0.77910 0.68670 0.03800
H 	H 	0.16160 0.84700 0.72760 0.04800
C 	C 	0.28430 0.82100 0.76310 -0.12100
H 	H 	0.26930 0.82760 0.82990 0.06000
H 	H 	0.31410 0.78080 0.75720 0.06400
C 	C 	0.55060 0.96120 0.79480 0.03700
H 	H 	0.58460 0.93270 0.76130 0.01300
C 	C 	0.46550 0.95210 0.36400 0.00700
H 	H 	0.44080 0.91810 0.39650 0.03400
C 	C 	0.55340 0.96240 0.89000 -0.01900
C 	C 	0.46500 0.95110 0.26260 0.03800
C 	C 	0.47970 0.97960 0.94020 0.04100
C 	C 	0.48970 0.98510 0.21910 -0.09300
Cd	Cd	-0.00000 0.50000 0.41958 1.22600
N 	N 	0.00000 0.50000 0.25340 -0.22800
N 	N 	0.00000 0.50000 0.58300 -0.22100
C 	C 	0.00000 0.50000 0.79100 0.04100
Cd	Cd	0.50000 0.00000 0.58042 1.22700
N 	N 	0.50000 0.00000 0.74660 -0.22500
N 	N 	0.50000 0.00000 0.41700 -0.21900
C 	C 	0.50000 0.00000 0.20900 0.03600
