data_crystal

_cell_length_a 22.90970
_cell_length_b 6.89100
_cell_length_c 14.41320
_cell_angle_alpha 90.00000
_cell_angle_beta  106.62000
_cell_angle_gamma 90.00000

_symmetry_space_group_name_	'P 1'
_symmetry_space_group_name_H-M	'P 1'

loop_
_symmetry_equiv_pos_as_xyz
  x,y,z

loop_
_atom_site_label
_atom_site_type_symbol
_atom_site_fract_x
_atom_site_fract_y
_atom_site_fract_z
_atom_site_charge
Cd	Cd	0.41300 0.15570 0.69339 1.20700
C 	C 	0.68010 0.99510 0.65920 0.00800
H 	H 	0.70900 0.96390 0.62760 0.05300
O 	O 	0.56340 0.11380 0.89750 -0.38900
C 	C 	0.61160 0.11850 0.50140 0.29000
C 	C 	0.81070 0.60030 0.89880 -0.09000
H 	H 	0.83000 0.66800 0.95970 0.08800
O 	O 	0.56970 0.23300 0.45820 -0.37200
C 	C 	0.58250 0.14010 0.65670 0.01200
H 	H 	0.54680 0.20380 0.62360 0.04300
O 	O 	0.90844 0.63280 0.87020 -0.45900
N 	N 	0.49300 0.81300 0.94250 -0.18300
O 	O 	0.83020 0.57060 0.74430 -0.39000
C 	C 	0.69170 0.95650 0.75660 -0.04800
N 	N 	0.75190 0.69260 0.84870 -0.11400
C 	C 	0.64940 0.00740 0.80500 -0.01100
H 	H 	0.65710 0.97950 0.87050 0.05300
C 	C 	0.72390 0.42390 0.92180 -0.12400
H 	H 	0.70170 0.30230 0.91160 0.07900
H 	H 	0.72240 0.48000 0.98270 0.09100
C 	C 	0.75200 0.87090 0.80970 0.19700
C 	C 	0.69910 0.56220 0.83890 -0.02200
H 	H 	0.68810 0.49520 0.77710 0.05400
H 	H 	0.66400 0.63250 0.84620 0.04400
C 	C 	0.55180 0.16130 0.81150 0.33600
O 	O 	0.64330 0.02820 0.45640 -0.37800
O 	O 	0.80010 0.96060 0.81780 -0.23400
C 	C 	0.62470 0.08170 0.60710 -0.07900
O 	O 	0.50638 0.26870 0.76790 -0.43500
C 	C 	0.79090 0.39450 0.91940 -0.06200
H 	H 	0.81620 0.34610 0.98100 0.06400
H 	H 	0.79290 0.30470 0.86860 0.07100
C 	C 	0.85280 0.60030 0.83380 0.34700
C 	C 	0.59460 0.10170 0.75470 -0.10300
C 	C 	0.44920 0.56100 0.01780 -0.32900
H 	H 	0.41150 0.48850 0.00560 0.11000
H 	H 	0.46060 0.60640 0.08420 0.14000
C 	C 	0.44260 0.70400 0.95950 0.25100
H 	H 	0.41730 0.79810 0.98030 -0.03600
H 	H 	0.41870 0.65710 0.89680 -0.03400
Cd	Cd	0.91300 0.65570 0.69339 1.21200
C 	C 	0.18010 0.49510 0.65920 0.00800
H 	H 	0.20900 0.46390 0.62760 0.04900
O 	O 	0.06340 0.61380 0.89750 -0.39300
C 	C 	0.11160 0.61850 0.50140 0.29200
C 	C 	0.31070 0.10030 0.89880 -0.09500
H 	H 	0.33000 0.16800 0.95970 0.08900
O 	O 	0.06970 0.73300 0.45820 -0.38500
C 	C 	0.08250 0.64010 0.65670 0.01800
H 	H 	0.04680 0.70380 0.62360 0.03300
O 	O 	0.40844 0.13280 0.87020 -0.47000
N 	N 	0.99300 0.31300 0.94250 -0.16100
O 	O 	0.33020 0.07060 0.74430 -0.39500
C 	C 	0.19170 0.45650 0.75660 -0.06000
N 	N 	0.25190 0.19260 0.84870 -0.11300
C 	C 	0.14940 0.50740 0.80500 0.00900
H 	H 	0.15710 0.47950 0.87050 0.04400
C 	C 	0.22390 0.92390 0.92180 -0.11600
H 	H 	0.20170 0.80230 0.91160 0.07800
H 	H 	0.22240 0.98000 0.98270 0.09000
C 	C 	0.25200 0.37090 0.80970 0.20000
C 	C 	0.19910 0.06220 0.83890 -0.03600
H 	H 	0.18810 0.99520 0.77710 0.06000
H 	H 	0.16400 0.13250 0.84620 0.04600
C 	C 	0.05180 0.66130 0.81150 0.34000
O 	O 	0.14330 0.52820 0.45640 -0.38100
O 	O 	0.30010 0.46060 0.81780 -0.23600
C 	C 	0.12470 0.58170 0.60710 -0.08300
O 	O 	0.00638 0.76870 0.76790 -0.45100
C 	C 	0.29090 0.89450 0.91940 -0.06000
H 	H 	0.31620 0.84610 0.98100 0.06500
H 	H 	0.29290 0.80470 0.86860 0.07200
C 	C 	0.35280 0.10030 0.83380 0.35100
C 	C 	0.09460 0.60170 0.75470 -0.11500
C 	C 	0.94920 0.06100 0.01780 -0.29200
H 	H 	0.91150 0.98850 0.00560 0.10500
H 	H 	0.96060 0.10640 0.08420 0.13800
C 	C 	0.94260 0.20400 0.95950 0.23500
H 	H 	0.91730 0.29810 0.98030 -0.03000
H 	H 	0.91870 0.15710 0.89680 -0.02700
Cd	Cd	0.58700 0.15570 0.30661 1.20500
C 	C 	0.31990 0.99510 0.34080 0.01500
H 	H 	0.29100 0.96390 0.37240 0.04800
O 	O 	0.43660 0.11380 0.10250 -0.42500
C 	C 	0.38840 0.11850 0.49860 0.29200
C 	C 	0.18930 0.60030 0.10120 -0.09000
H 	H 	0.17000 0.66800 0.04030 0.05500
O 	O 	0.43030 0.23300 0.54180 -0.37200
C 	C 	0.41750 0.14010 0.34330 0.02000
H 	H 	0.45320 0.20380 0.37640 0.04000
O 	O 	0.09156 0.63280 0.12980 -0.49700
N 	N 	0.50700 0.81300 0.05750 -0.17900
O 	O 	0.16980 0.57060 0.25570 -0.39600
C 	C 	0.30830 0.95650 0.24340 -0.05700
N 	N 	0.24810 0.69260 0.15130 -0.11900
C 	C 	0.35060 0.00740 0.19500 -0.00100
H 	H 	0.34290 0.97950 0.12950 0.03000
C 	C 	0.27610 0.42390 0.07820 -0.10300
H 	H 	0.29830 0.30230 0.08840 0.05300
H 	H 	0.27760 0.48000 0.01730 0.04700
C 	C 	0.24800 0.87090 0.19030 0.19300
C 	C 	0.30090 0.56220 0.16110 -0.03800
H 	H 	0.31190 0.49520 0.22290 0.05800
H 	H 	0.33600 0.63250 0.15380 0.03800
C 	C 	0.44820 0.16130 0.18850 0.34500
O 	O 	0.35670 0.02820 0.54360 -0.37900
O 	O 	0.19990 0.96060 0.18220 -0.25000
C 	C 	0.37530 0.08170 0.39290 -0.08600
O 	O 	0.49362 0.26870 0.23210 -0.44400
C 	C 	0.20910 0.39450 0.08060 -0.07100
H 	H 	0.18380 0.34610 0.01900 0.03000
H 	H 	0.20710 0.30470 0.13140 0.06500
C 	C 	0.14720 0.60030 0.16620 0.34700
C 	C 	0.40540 0.10170 0.24530 -0.11700
C 	C 	0.55080 0.56100 0.98220 0.10100
H 	H 	0.58850 0.48850 0.99440 0.01400
H 	H 	0.53940 0.60640 0.91580 0.02400
C 	C 	0.55740 0.70400 0.04050 -0.16900
H 	H 	0.58270 0.79810 0.01970 0.05600
H 	H 	0.58130 0.65710 0.10320 0.07600
Cd	Cd	0.08700 0.65570 0.30661 1.19900
C 	C 	0.81990 0.49510 0.34080 0.01000
H 	H 	0.79100 0.46390 0.37240 0.05000
O 	O 	0.93660 0.61380 0.10250 -0.41100
C 	C 	0.88840 0.61850 0.49860 0.29000
C 	C 	0.68930 0.10030 0.10120 -0.09300
H 	H 	0.67000 0.16800 0.04030 0.05500
O 	O 	0.93030 0.73300 0.54180 -0.35900
C 	C 	0.91750 0.64010 0.34330 0.01900
H 	H 	0.95320 0.70380 0.37640 0.04900
O 	O 	0.59156 0.13280 0.12980 -0.49200
N 	N 	0.00700 0.31300 0.05750 -0.20000
O 	O 	0.66980 0.07060 0.25570 -0.39500
C 	C 	0.80830 0.45650 0.24340 -0.06500
N 	N 	0.74810 0.19260 0.15130 -0.11800
C 	C 	0.85060 0.50740 0.19500 0.01700
H 	H 	0.84290 0.47950 0.12950 0.02000
C 	C 	0.77610 0.92390 0.07820 -0.09000
H 	H 	0.79830 0.80230 0.08840 0.05100
H 	H 	0.77760 0.98000 0.01730 0.04600
C 	C 	0.74800 0.37090 0.19030 0.19500
C 	C 	0.80090 0.06220 0.16110 -0.05600
H 	H 	0.81190 0.99520 0.22290 0.06800
H 	H 	0.83600 0.13250 0.15380 0.04300
C 	C 	0.94820 0.66130 0.18850 0.34500
O 	O 	0.85670 0.52820 0.54360 -0.37300
O 	O 	0.69990 0.46060 0.18220 -0.25000
C 	C 	0.87530 0.58170 0.39290 -0.07600
O 	O 	0.99362 0.76870 0.23210 -0.42500
C 	C 	0.70910 0.89450 0.08060 -0.07100
H 	H 	0.68380 0.84610 0.01900 0.03200
H 	H 	0.70710 0.80470 0.13140 0.06800
C 	C 	0.64720 0.10030 0.16620 0.34600
C 	C 	0.90540 0.60170 0.24530 -0.11600
C 	C 	0.05080 0.06100 0.98220 0.09800
H 	H 	0.08850 0.98850 0.99440 0.01700
H 	H 	0.03940 0.10640 0.91580 0.01500
C 	C 	0.05740 0.20400 0.04050 -0.17700
H 	H 	0.08270 0.29810 0.01970 0.05300
H 	H 	0.08130 0.15710 0.10320 0.07200
Cd	Cd	0.50000 0.12810 -0.00000 1.22300
N 	N 	0.50000 0.43200 -0.00000 -0.22500
Cd	Cd	0.00000 0.62810 -0.00000 1.21400
N 	N 	-0.00000 0.93200 -0.00000 -0.24300
