data_crystal

_cell_length_a 14.69300
_cell_length_b 14.69300
_cell_length_c 15.12500
_cell_angle_alpha 90.00000
_cell_angle_beta  90.00000
_cell_angle_gamma 120.00000

_symmetry_space_group_name_	'P 1'
_symmetry_space_group_name_H-M	'P 1'

loop_
_symmetry_equiv_pos_as_xyz
  x,y,z

loop_
_atom_site_label
_atom_site_type_symbol
_atom_site_fract_x
_atom_site_fract_y
_atom_site_fract_z
_atom_site_charge
Tb	Tb	0.33333 0.66666 0.75000 2.02600
Tb	Tb	0.66667 0.33334 0.75000 2.02600
Tb	Tb	0.66667 0.33334 0.25000 2.01200
Tb	Tb	0.33333 0.66666 0.25000 2.01200
Cu	Cu	0.00000 0.50000 0.50000 0.91500
Cu	Cu	0.50000 0.00000 0.50000 0.91500
Cu	Cu	0.50000 0.50000 0.50000 0.95000
Cu	Cu	0.50000 0.50000 -0.00000 0.89100
Cu	Cu	0.50000 0.00000 -0.00000 0.85800
Cu	Cu	-0.00000 0.50000 -0.00000 0.85800
H 	H 	0.16040 0.79470 0.65980 0.10500
H 	H 	0.08720 0.71600 0.73300 0.08300
H 	H 	0.63430 0.83960 0.65980 0.12200
H 	H 	0.62880 0.91280 0.73300 0.13300
H 	H 	0.20530 0.36570 0.65980 0.08400
H 	H 	0.28400 0.37120 0.73300 0.09200
H 	H 	0.83960 0.20530 0.65980 0.10200
H 	H 	0.91280 0.28400 0.73300 0.12200
H 	H 	0.36570 0.16040 0.65980 0.08500
H 	H 	0.37120 0.08720 0.73300 0.07300
H 	H 	0.79470 0.63430 0.65980 0.12400
H 	H 	0.71600 0.62880 0.73300 0.11400
H 	H 	0.36570 0.20530 0.84020 0.10000
H 	H 	0.37120 0.28400 0.76700 0.09000
H 	H 	0.79470 0.16040 0.84020 0.12100
H 	H 	0.71600 0.08720 0.76700 0.08200
H 	H 	0.83960 0.63430 0.84020 0.13700
H 	H 	0.91280 0.62880 0.76700 0.13100
H 	H 	0.63430 0.79470 0.84020 0.13900
H 	H 	0.62880 0.71600 0.76700 0.11200
H 	H 	0.20530 0.83960 0.84020 0.11800
H 	H 	0.28400 0.91280 0.76700 0.12000
H 	H 	0.16040 0.36570 0.84020 0.10100
H 	H 	0.08720 0.37120 0.76700 0.07100
H 	H 	0.83960 0.20530 0.34020 0.09700
H 	H 	0.91280 0.28400 0.26700 0.11200
H 	H 	0.36570 0.16040 0.34020 0.07900
H 	H 	0.37120 0.08720 0.26700 0.06100
H 	H 	0.79470 0.63430 0.34020 0.11900
H 	H 	0.71600 0.62880 0.26700 0.10400
H 	H 	0.16040 0.79470 0.34020 0.10000
H 	H 	0.08720 0.71600 0.26700 0.07300
H 	H 	0.63430 0.83960 0.34020 0.11700
H 	H 	0.62880 0.91280 0.26700 0.12300
H 	H 	0.20530 0.36570 0.34020 0.07800
H 	H 	0.28400 0.37120 0.26700 0.08100
H 	H 	0.63430 0.79470 0.15980 0.10400
H 	H 	0.62880 0.71600 0.23300 0.10400
H 	H 	0.20530 0.83960 0.15980 0.08100
H 	H 	0.28400 0.91280 0.23300 0.11200
H 	H 	0.16040 0.36570 0.15980 0.06400
H 	H 	0.08720 0.37120 0.23300 0.06200
H 	H 	0.36570 0.20530 0.15980 0.06300
H 	H 	0.37120 0.28400 0.23300 0.08100
H 	H 	0.79470 0.16040 0.15980 0.08500
H 	H 	0.71600 0.08720 0.23300 0.07300
H 	H 	0.83960 0.63430 0.15980 0.10100
H 	H 	0.91280 0.62880 0.23300 0.12300
C 	C 	0.13060 0.64460 0.63926 0.43000
C 	C 	0.14860 0.73560 0.69650 -0.20900
C 	C 	0.51400 0.86940 0.63926 0.44100
C 	C 	0.58700 0.85140 0.69650 -0.23300
C 	C 	0.35540 0.48600 0.63926 0.42600
C 	C 	0.26440 0.41300 0.69650 -0.19700
C 	C 	0.86940 0.35540 0.63926 0.43400
C 	C 	0.85140 0.26440 0.69650 -0.21600
C 	C 	0.48600 0.13060 0.63926 0.42200
C 	C 	0.41300 0.14860 0.69650 -0.19200
C 	C 	0.64460 0.51400 0.63926 0.44200
C 	C 	0.73560 0.58700 0.69650 -0.23000
C 	C 	0.48600 0.35540 0.86074 0.42300
C 	C 	0.41300 0.26440 0.80350 -0.19500
C 	C 	0.64460 0.13060 0.86074 0.42700
C 	C 	0.73560 0.14860 0.80350 -0.20600
C 	C 	0.86940 0.51400 0.86074 0.43900
C 	C 	0.85140 0.58700 0.80350 -0.23100
C 	C 	0.51400 0.64460 0.86074 0.43900
C 	C 	0.58700 0.73560 0.80350 -0.22800
C 	C 	0.35540 0.86940 0.86074 0.43100
C 	C 	0.26440 0.85140 0.80350 -0.21400
C 	C 	0.13060 0.48600 0.86074 0.42000
C 	C 	0.14860 0.41300 0.80350 -0.19000
C 	C 	0.86940 0.35540 0.36074 0.43000
C 	C 	0.85140 0.26440 0.30350 -0.20800
C 	C 	0.48600 0.13060 0.36074 0.41800
C 	C 	0.41300 0.14860 0.30350 -0.18300
C 	C 	0.64460 0.51400 0.36074 0.43800
C 	C 	0.73560 0.58700 0.30350 -0.22100
C 	C 	0.13060 0.64460 0.36074 0.42600
C 	C 	0.14860 0.73560 0.30350 -0.20000
C 	C 	0.51400 0.86940 0.36074 0.43800
C 	C 	0.58700 0.85140 0.30350 -0.22400
C 	C 	0.35540 0.48600 0.36074 0.42200
C 	C 	0.26440 0.41300 0.30350 -0.18800
C 	C 	0.51400 0.64460 0.13926 0.43500
C 	C 	0.58700 0.73560 0.19650 -0.22000
C 	C 	0.35540 0.86940 0.13926 0.42700
C 	C 	0.26440 0.85140 0.19650 -0.20600
C 	C 	0.13060 0.48600 0.13926 0.41500
C 	C 	0.14860 0.41300 0.19650 -0.18100
C 	C 	0.48600 0.35540 0.13926 0.41900
C 	C 	0.41300 0.26440 0.19650 -0.18600
C 	C 	0.64460 0.13060 0.13926 0.42300
C 	C 	0.73560 0.14860 0.19650 -0.19800
C 	C 	0.86940 0.51400 0.13926 0.43400
C 	C 	0.85140 0.58700 0.19650 -0.22300
O 	O 	0.19495 0.61268 0.64393 -0.47000
O 	O 	0.05216 0.60970 0.59006 -0.43900
O 	O 	0.41773 0.80505 0.64393 -0.45500
O 	O 	0.55754 0.94784 0.59006 -0.37600
O 	O 	0.38732 0.58227 0.64393 -0.46200
O 	O 	0.39030 0.44246 0.59006 -0.41800
O 	O 	0.80505 0.38732 0.64393 -0.45400
O 	O 	0.94784 0.39030 0.59006 -0.37800
O 	O 	0.58227 0.19495 0.64393 -0.46800
O 	O 	0.44246 0.05216 0.59006 -0.44100
O 	O 	0.61268 0.41773 0.64393 -0.46500
O 	O 	0.60970 0.55754 0.59006 -0.41300
O 	O 	0.58227 0.38732 0.85607 -0.43600
O 	O 	0.44246 0.39030 0.90994 -0.36000
O 	O 	0.61268 0.19495 0.85607 -0.44400
O 	O 	0.60970 0.05216 0.90994 -0.38100
O 	O 	0.80505 0.41773 0.85607 -0.43000
O 	O 	0.94784 0.55754 0.90994 -0.32000
O 	O 	0.41773 0.61268 0.85607 -0.43900
O 	O 	0.55754 0.60970 0.90994 -0.35500
O 	O 	0.38732 0.80505 0.85607 -0.42800
O 	O 	0.39030 0.94784 0.90994 -0.32300
O 	O 	0.19495 0.58227 0.85607 -0.44200
O 	O 	0.05216 0.44246 0.90994 -0.38400
O 	O 	0.80505 0.38732 0.35607 -0.45100
O 	O 	0.94784 0.39030 0.40994 -0.37700
O 	O 	0.58227 0.19495 0.35607 -0.46500
O 	O 	0.44246 0.05216 0.40994 -0.44100
O 	O 	0.61268 0.41773 0.35607 -0.46200
O 	O 	0.60970 0.55754 0.40994 -0.41200
O 	O 	0.19495 0.61268 0.35607 -0.46700
O 	O 	0.05216 0.60970 0.40994 -0.43800
O 	O 	0.41773 0.80505 0.35607 -0.45200
O 	O 	0.55754 0.94784 0.40994 -0.37500
O 	O 	0.38732 0.58227 0.35607 -0.45900
O 	O 	0.39030 0.44246 0.40994 -0.41700
O 	O 	0.41773 0.61268 0.14393 -0.48100
O 	O 	0.55754 0.60970 0.09006 -0.44500
O 	O 	0.38732 0.80505 0.14393 -0.46900
O 	O 	0.39030 0.94784 0.09006 -0.40900
O 	O 	0.19495 0.58227 0.14393 -0.48400
O 	O 	0.05216 0.44246 0.09006 -0.47300
O 	O 	0.58227 0.38732 0.14393 -0.47800
O 	O 	0.44246 0.39030 0.09006 -0.45000
O 	O 	0.61268 0.19495 0.14393 -0.48600
O 	O 	0.60970 0.05216 0.09006 -0.47100
O 	O 	0.80505 0.41773 0.14393 -0.47100
O 	O 	0.94784 0.55754 0.09006 -0.40700
O 	O 	0.23625 0.76375 0.75000 -0.23100
O 	O 	0.52750 0.76375 0.75000 -0.21900
O 	O 	0.23625 0.47250 0.75000 -0.24300
O 	O 	0.76375 0.23625 0.75000 -0.23100
O 	O 	0.47250 0.23625 0.75000 -0.24300
O 	O 	0.76375 0.52750 0.75000 -0.21900
O 	O 	0.76375 0.23625 0.25000 -0.23900
O 	O 	0.47250 0.23625 0.25000 -0.25100
O 	O 	0.76375 0.52750 0.25000 -0.22700
O 	O 	0.23625 0.76375 0.25000 -0.23900
O 	O 	0.52750 0.76375 0.25000 -0.22700
O 	O 	0.23625 0.47250 0.25000 -0.25100
