data_crystal

_cell_length_a 24.77010
_cell_length_b 24.77010
_cell_length_c 24.77010
_cell_angle_alpha 109.47100
_cell_angle_beta  109.47100
_cell_angle_gamma 109.47100

_symmetry_space_group_name_	'P 1'
_symmetry_space_group_name_H-M	'P 1'

loop_
_symmetry_equiv_pos_as_xyz
  x,y,z

loop_
_atom_site_label
_atom_site_type_symbol
_atom_site_fract_x
_atom_site_fract_y
_atom_site_fract_z
_atom_site_charge
Ni	Ni	0.02803 0.27803 0.55606 1.11800
Ni	Ni	0.22197 0.47197 0.94394 1.11600
Ni	Ni	0.27803 0.22197 0.25000 1.12600
Ni	Ni	0.47197 0.02803 0.25000 1.11800
Ni	Ni	0.75000 0.27803 0.72197 1.12600
Ni	Ni	0.75000 0.47197 0.52803 1.12700
Ni	Ni	0.05606 0.02803 0.77803 1.11000
Ni	Ni	0.44394 0.22197 0.97197 1.11900
Ni	Ni	0.47197 0.44394 0.72197 1.12800
Ni	Ni	0.27803 0.05606 0.52803 1.11800
Ni	Ni	0.02803 0.75000 0.97197 1.11000
Ni	Ni	0.22197 0.75000 0.77803 1.12700
H 	H 	0.08770 0.47870 0.61040 0.06200
H 	H 	0.13810 0.29880 0.67870 -0.00000
H 	H 	0.25040 0.37670 0.75530 0.07300
H 	H 	0.30920 0.45730 0.74170 0.03400
H 	H 	0.25240 0.47430 0.65690 0.09100
H 	H 	0.13760 0.39770 0.58450 0.02700
H 	H 	0.91210 0.23700 0.47110 0.29500
H 	H 	0.36830 0.47730 0.88960 0.04300
H 	H 	0.12010 0.45940 0.82130 0.00000
H 	H 	0.12140 0.49510 0.74470 0.06900
H 	H 	0.21560 0.56750 0.75830 0.03400
H 	H 	0.31740 0.59550 0.84310 0.09000
H 	H 	0.31320 0.55310 0.91550 0.02300
H 	H 	0.26590 0.44100 0.02890 0.29700
H 	H 	0.13170 0.02130 0.10900 0.07500
H 	H 	0.37990 0.20120 0.33930 0.00000
H 	H 	0.37860 0.12330 0.37370 0.07300
H 	H 	0.28440 0.04270 0.35190 0.02500
H 	H 	0.18260 0.02570 0.27810 0.08300
H 	H 	0.18680 0.10230 0.23990 0.02400
H 	H 	0.23410 0.26300 0.17510 0.29600
H 	H 	0.41230 0.02270 0.39100 0.03500
H 	H 	0.36190 0.04060 0.16070 0.04500
H 	H 	0.24960 0.00490 0.12630 -0.00900
H 	H 	0.19080 0.93250 0.14810 0.08700
H 	H 	0.24760 0.90450 0.22190 0.06500
H 	H 	0.36240 0.94690 0.26010 0.04900
H 	H 	0.58790 0.05900 0.32490 0.30100
H 	H 	0.60900 0.13170 0.52130 0.04100
H 	H 	0.83930 0.37990 0.70120 0.00200
H 	H 	0.87370 0.37860 0.62330 0.07600
H 	H 	0.85190 0.28440 0.54270 0.03500
H 	H 	0.77810 0.18260 0.52570 0.09100
H 	H 	0.73990 0.18680 0.60230 0.02700
H 	H 	0.67510 0.23410 0.76300 0.29600
H 	H 	0.89100 0.41230 0.52270 0.05700
H 	H 	0.66070 0.36190 0.54060 0.00100
H 	H 	0.62630 0.24960 0.50490 0.07300
H 	H 	0.64810 0.19080 0.43250 0.03400
H 	H 	0.72190 0.24760 0.40450 0.09200
H 	H 	0.76010 0.36240 0.44690 0.02800
H 	H 	0.82490 0.58790 0.55900 0.29700
H 	H 	0.11040 0.08770 0.97870 0.08100
H 	H 	0.17870 0.13810 0.79880 -0.00100
H 	H 	0.25530 0.25040 0.87670 0.07300
H 	H 	0.24170 0.30920 0.95730 0.02400
H 	H 	0.15690 0.25240 0.97430 0.08100
H 	H 	0.08450 0.13760 0.89770 0.01800
H 	H 	0.97110 0.91210 0.73700 0.29500
H 	H 	0.38960 0.36830 0.97730 0.03500
H 	H 	0.32130 0.12010 0.95940 0.04800
H 	H 	0.24470 0.12140 0.99510 -0.02400
H 	H 	0.25830 0.21560 0.06750 0.09100
H 	H 	0.34310 0.31740 0.09550 0.06200
H 	H 	0.41550 0.31320 0.05310 0.05200
H 	H 	0.52890 0.26590 0.94100 0.30100
H 	H 	0.47730 0.38960 0.86830 0.04200
H 	H 	0.45940 0.32130 0.62010 0.00100
H 	H 	0.49510 0.24470 0.62140 0.07300
H 	H 	0.56750 0.25830 0.71560 0.03400
H 	H 	0.59550 0.34310 0.81740 0.09000
H 	H 	0.55310 0.41550 0.81320 0.02700
H 	H 	0.44100 0.52890 0.76590 0.29600
H 	H 	0.47870 0.11040 0.58770 0.04300
H 	H 	0.29880 0.17870 0.63810 0.00100
H 	H 	0.37670 0.25530 0.75040 0.07300
H 	H 	0.45730 0.24170 0.80920 0.03400
H 	H 	0.47430 0.15690 0.75240 0.08900
H 	H 	0.39770 0.08450 0.63760 0.02300
H 	H 	0.23700 0.97110 0.41210 0.29600
H 	H 	0.02270 0.89100 0.91230 0.07200
H 	H 	0.04060 0.66070 0.86190 0.04400
H 	H 	0.00490 0.62630 0.74960 -0.01600
H 	H 	0.93250 0.64810 0.69080 0.08800
H 	H 	0.90450 0.72190 0.74760 0.06400
H 	H 	0.94690 0.76010 0.86240 0.04800
H 	H 	0.05900 0.82490 0.08790 0.29900
H 	H 	0.02130 0.60900 0.63170 0.05900
H 	H 	0.20120 0.83930 0.87990 0.00100
H 	H 	0.12330 0.87370 0.87860 0.07100
H 	H 	0.04270 0.85190 0.78440 0.02600
H 	H 	0.02570 0.77810 0.68260 0.08400
H 	H 	0.10230 0.73990 0.68680 0.02500
H 	H 	0.26300 0.67510 0.73410 0.29600
H 	H 	0.02130 0.41230 0.88960 0.06100
H 	H 	0.20120 0.36190 0.82130 0.00000
H 	H 	0.12330 0.24960 0.74470 0.07300
H 	H 	0.04270 0.19080 0.75830 0.02400
H 	H 	0.02570 0.24760 0.84310 0.08200
H 	H 	0.10230 0.36240 0.91550 0.01900
H 	H 	0.26300 0.58790 0.02890 0.29600
H 	H 	0.02270 0.13170 0.61040 0.03500
H 	H 	0.04060 0.37990 0.67870 0.04600
H 	H 	0.00490 0.37860 0.75530 -0.01700
H 	H 	0.93250 0.28440 0.74170 0.08900
H 	H 	0.90450 0.18260 0.65690 0.06200
H 	H 	0.94690 0.18680 0.58450 0.04900
H 	H 	0.05900 0.23410 0.47110 0.30100
H 	H 	0.47870 0.36830 0.39100 0.04200
H 	H 	0.29880 0.12010 0.16070 0.00200
H 	H 	0.37670 0.12140 0.12630 0.07200
H 	H 	0.45730 0.21560 0.14810 0.03600
H 	H 	0.47430 0.31740 0.22190 0.09200
H 	H 	0.39770 0.31320 0.26010 0.02900
H 	H 	0.23700 0.26590 0.32490 0.29700
H 	H 	0.47730 0.08770 0.10900 0.07700
H 	H 	0.45940 0.13810 0.33930 -0.00100
H 	H 	0.49510 0.25040 0.37370 0.07300
H 	H 	0.56750 0.30920 0.35190 0.03400
H 	H 	0.59550 0.25240 0.27810 0.09200
H 	H 	0.55310 0.13760 0.23990 0.02700
H 	H 	0.44100 0.91210 0.17510 0.29500
H 	H 	0.36830 0.89100 0.97870 0.07500
H 	H 	0.12010 0.66070 0.79880 0.00000
H 	H 	0.12140 0.62630 0.87670 0.06900
H 	H 	0.21560 0.64810 0.95730 0.02400
H 	H 	0.31740 0.72190 0.97430 0.08400
H 	H 	0.31320 0.76010 0.89770 0.02500
H 	H 	0.26590 0.82490 0.73700 0.29700
H 	H 	0.08770 0.60900 0.97730 0.05600
H 	H 	0.13810 0.83930 0.95940 0.04900
H 	H 	0.25040 0.87370 0.99510 -0.02000
H 	H 	0.30920 0.85190 0.06750 0.09300
H 	H 	0.25240 0.77810 0.09550 0.06200
H 	H 	0.13760 0.73990 0.05310 0.05100
H 	H 	0.91210 0.67510 0.94100 0.29900
H 	H 	0.41230 0.38960 0.52130 0.04200
H 	H 	0.36190 0.32130 0.70120 0.00100
H 	H 	0.24960 0.24470 0.62330 0.07300
H 	H 	0.19080 0.25830 0.54270 0.03400
H 	H 	0.24760 0.34310 0.52570 0.09100
H 	H 	0.36240 0.41550 0.60230 0.02800
H 	H 	0.58790 0.52890 0.76300 0.29700
H 	H 	0.13170 0.11040 0.52270 0.04300
H 	H 	0.37990 0.17870 0.54060 0.00100
H 	H 	0.37860 0.25530 0.50490 0.07300
H 	H 	0.28440 0.24170 0.43250 0.03400
H 	H 	0.18260 0.15690 0.40450 0.08900
H 	H 	0.18680 0.08450 0.44690 0.02200
H 	H 	0.23410 0.97110 0.55900 0.29600
H 	H 	0.11040 0.02270 0.63170 0.03700
H 	H 	0.17870 0.04060 0.87990 0.04300
H 	H 	0.25530 0.00490 0.87860 -0.01500
H 	H 	0.24170 0.93250 0.78440 0.08500
H 	H 	0.15690 0.90450 0.68260 0.06300
H 	H 	0.08450 0.94690 0.68680 0.04500
H 	H 	0.97110 0.05900 0.73410 0.30000
H 	H 	0.38960 0.02130 0.91230 0.07900
H 	H 	0.32130 0.20120 0.86190 -0.00100
H 	H 	0.24470 0.12330 0.74960 0.07300
H 	H 	0.25830 0.04270 0.69080 0.02500
H 	H 	0.34310 0.02570 0.74760 0.08400
H 	H 	0.41550 0.10230 0.86240 0.02300
H 	H 	0.52890 0.26300 0.08790 0.29500
H 	H 	0.60900 0.47730 0.58770 0.04200
H 	H 	0.83930 0.45940 0.63810 0.00200
H 	H 	0.87370 0.49510 0.75040 0.07600
H 	H 	0.85190 0.56750 0.80920 0.03500
H 	H 	0.77810 0.59550 0.75240 0.09200
H 	H 	0.73990 0.55310 0.63760 0.02800
H 	H 	0.67510 0.44100 0.41210 0.29600
H 	H 	0.89100 0.47870 0.86830 0.05800
H 	H 	0.66070 0.29880 0.62010 0.00100
H 	H 	0.62630 0.37670 0.62140 0.07300
H 	H 	0.64810 0.45730 0.71560 0.03400
H 	H 	0.72190 0.47430 0.81740 0.09000
H 	H 	0.76010 0.39770 0.81320 0.02700
H 	H 	0.82490 0.23700 0.76590 0.29700
C 	C 	0.97370 0.36478 0.53526 0.38000
C 	C 	0.98747 0.43523 0.56184 -0.05200
C 	C 	0.05204 0.48728 0.60098 -0.01900
C 	C 	0.93200 0.18430 0.41990 0.07500
C 	C 	0.86060 0.13920 0.36380 0.10200
C 	C 	0.16010 0.33470 0.67360 0.07100
C 	C 	0.22850 0.38110 0.71880 -0.11900
C 	C 	0.26280 0.42940 0.71240 0.05200
C 	C 	0.23030 0.43880 0.66250 -0.11300
C 	C 	0.16110 0.39220 0.61950 0.07100
C 	C 	0.32952 0.43844 0.96474 0.31800
C 	C 	0.37339 0.42563 0.93816 -0.10300
C 	C 	0.38630 0.45106 0.89902 0.04700
C 	C 	0.26440 0.51210 0.08010 0.08000
C 	C 	0.27540 0.49680 0.13620 0.09900
C 	C 	0.16110 0.48650 0.82640 0.06900
C 	C 	0.16230 0.50970 0.78120 -0.11700
C 	C 	0.21700 0.55040 0.78760 0.05000
C 	C 	0.27630 0.56780 0.83750 -0.11200
C 	C 	0.27270 0.54160 0.88050 0.07000
C 	C 	0.17048 0.13522 0.10892 0.32300
C 	C 	0.12661 0.06477 0.05224 0.00400
C 	C 	0.11370 0.01272 0.06476 -0.07100
C 	C 	0.23560 0.31570 0.24770 0.07700
C 	C 	0.22460 0.36080 0.22140 0.09600
C 	C 	0.33890 0.16530 0.32540 0.07100
C 	C 	0.33770 0.11890 0.34740 -0.12300
C 	C 	0.28300 0.07060 0.33340 0.05200
C 	C 	0.22370 0.06120 0.29150 -0.11700
C 	C 	0.22730 0.10780 0.26890 0.07000
C 	C 	0.52630 0.06156 0.39108 0.36200
C 	C 	0.51253 0.07437 0.44776 -0.11400
C 	C 	0.44796 0.04894 0.43524 0.04800
C 	C 	0.56800 0.98790 0.25230 0.12600
C 	C 	0.63940 0.00320 0.27860 0.06800
C 	C 	0.33990 0.01350 0.17460 -0.07300
C 	C 	0.27150 0.99030 0.15260 0.08100
C 	C 	0.23720 0.94960 0.16660 -0.08200
C 	C 	0.26970 0.93220 0.20850 -0.02400
C 	C 	0.33890 0.95840 0.23110 0.03000
C 	C 	0.60892 0.17048 0.63522 0.36000
C 	C 	0.55224 0.12661 0.56477 -0.11200
C 	C 	0.56476 0.11370 0.51272 0.05200
C 	C 	0.74770 0.23560 0.81570 0.07700
C 	C 	0.72140 0.22460 0.86080 0.09300
C 	C 	0.82540 0.33890 0.66530 0.07200
C 	C 	0.84740 0.33770 0.61890 -0.11800
C 	C 	0.83340 0.28300 0.57060 0.05300
C 	C 	0.79150 0.22370 0.56120 -0.11200
C 	C 	0.76890 0.22730 0.60780 0.07200
C 	C 	0.89108 0.52630 0.56156 0.34200
C 	C 	0.94776 0.51253 0.57437 -0.04500
C 	C 	0.93524 0.44796 0.54894 0.01000
C 	C 	0.75230 0.56800 0.48790 0.07800
C 	C 	0.77860 0.63940 0.50320 0.10000
C 	C 	0.67460 0.33990 0.51350 0.07100
C 	C 	0.65260 0.27150 0.49030 -0.11900
C 	C 	0.66660 0.23720 0.44960 0.05200
C 	C 	0.70850 0.26970 0.43220 -0.11200
C 	C 	0.73110 0.33890 0.45840 0.07100
C 	C 	0.03526 0.97370 0.86478 0.32100
C 	C 	0.06184 0.98747 0.93523 0.00100
C 	C 	0.10098 0.05204 0.98728 -0.10500
C 	C 	0.91990 0.93200 0.68430 0.07800
C 	C 	0.86380 0.86060 0.63920 0.10800
C 	C 	0.17360 0.16010 0.83470 0.07000
C 	C 	0.21880 0.22850 0.88110 -0.12300
C 	C 	0.21240 0.26280 0.92940 0.05200
C 	C 	0.16250 0.23030 0.93880 -0.11900
C 	C 	0.11950 0.16110 0.89220 0.06900
C 	C 	0.46474 0.32952 0.93844 0.36200
C 	C 	0.43816 0.37339 0.92563 -0.11400
C 	C 	0.39902 0.38630 0.95106 0.04700
C 	C 	0.58010 0.26440 0.01210 0.12900
C 	C 	0.63620 0.27540 0.99680 0.06100
C 	C 	0.32640 0.16110 0.98650 -0.08900
C 	C 	0.28120 0.16230 0.00970 0.10100
C 	C 	0.28760 0.21700 0.05040 -0.09700
C 	C 	0.33750 0.27630 0.06780 -0.01500
C 	C 	0.38050 0.27270 0.04160 0.02500
C 	C 	0.43844 0.46474 0.82952 0.36000
C 	C 	0.42563 0.43816 0.87339 -0.11100
C 	C 	0.45106 0.39902 0.88630 0.05200
C 	C 	0.51210 0.58010 0.76440 0.07700
C 	C 	0.49680 0.63620 0.77540 0.09700
C 	C 	0.48650 0.32640 0.66110 0.07100
C 	C 	0.50970 0.28120 0.66230 -0.11900
C 	C 	0.55040 0.28760 0.71700 0.05200
C 	C 	0.56780 0.33750 0.77630 -0.11200
C 	C 	0.54160 0.38050 0.77270 0.07100
C 	C 	0.36478 0.03526 0.47370 0.32200
C 	C 	0.43523 0.06184 0.48747 -0.10500
C 	C 	0.48728 0.10098 0.55204 0.04800
C 	C 	0.18430 0.91990 0.43200 0.07900
C 	C 	0.13920 0.86380 0.36060 0.09800
C 	C 	0.33470 0.17360 0.66010 0.07100
C 	C 	0.38110 0.21880 0.72850 -0.11900
C 	C 	0.42940 0.21240 0.76280 0.05200
C 	C 	0.43880 0.16250 0.73030 -0.11300
C 	C 	0.39220 0.11950 0.66110 0.07000
C 	C 	0.06156 0.89108 0.02630 0.36400
C 	C 	0.07437 0.94776 0.01253 0.01700
C 	C 	0.04894 0.93524 0.94796 -0.07500
C 	C 	0.98790 0.75230 0.06800 0.11900
C 	C 	0.00320 0.77860 0.13940 0.07600
C 	C 	0.01350 0.67460 0.83990 -0.08000
C 	C 	0.99030 0.65260 0.77150 0.08900
C 	C 	0.94960 0.66660 0.73720 -0.08800
C 	C 	0.93220 0.70850 0.76970 -0.02100
C 	C 	0.95840 0.73110 0.83890 0.02800
C 	C 	0.13522 0.60892 0.67048 0.34400
C 	C 	0.06477 0.55224 0.62661 -0.06800
C 	C 	0.01272 0.56476 0.61370 -0.02200
C 	C 	0.31570 0.74770 0.73560 0.07800
C 	C 	0.36080 0.72140 0.72460 0.09700
C 	C 	0.16530 0.82540 0.83890 0.07000
C 	C 	0.11890 0.84740 0.83770 -0.12100
C 	C 	0.07060 0.83340 0.78300 0.05100
C 	C 	0.06120 0.79150 0.72370 -0.11600
C 	C 	0.10780 0.76890 0.72730 0.07000
C 	C 	0.13522 0.52630 0.96474 0.29900
C 	C 	0.06477 0.51253 0.93816 -0.05700
C 	C 	0.01272 0.44796 0.89902 -0.03400
C 	C 	0.31570 0.56800 0.08010 0.08000
C 	C 	0.36080 0.63940 0.13620 0.10300
C 	C 	0.16530 0.33990 0.82640 0.07100
C 	C 	0.11890 0.27150 0.78120 -0.12300
C 	C 	0.07060 0.23720 0.78760 0.05200
C 	C 	0.06120 0.26970 0.83750 -0.11800
C 	C 	0.10780 0.33890 0.88050 0.06900
C 	C 	0.06156 0.17048 0.53526 0.36000
C 	C 	0.07437 0.12661 0.56184 -0.11300
C 	C 	0.04894 0.11370 0.60098 0.04500
C 	C 	0.98790 0.23560 0.41990 0.12700
C 	C 	0.00320 0.22460 0.36380 0.06300
C 	C 	0.01350 0.33890 0.67360 -0.08200
C 	C 	0.99030 0.33770 0.71880 0.09300
C 	C 	0.94960 0.28300 0.71240 -0.09100
C 	C 	0.93220 0.22370 0.66250 -0.01900
C 	C 	0.95840 0.22730 0.61950 0.02700
C 	C 	0.36478 0.32952 0.39108 0.36100
C 	C 	0.43523 0.37339 0.44776 -0.11300
C 	C 	0.48728 0.38630 0.43524 0.05500
C 	C 	0.18430 0.26440 0.25230 0.07700
C 	C 	0.13920 0.27540 0.27860 0.09300
C 	C 	0.33470 0.16110 0.17460 0.07000
C 	C 	0.38110 0.16230 0.15260 -0.11700
C 	C 	0.42940 0.21700 0.16660 0.05100
C 	C 	0.43880 0.27630 0.20850 -0.11100
C 	C 	0.39220 0.27270 0.23110 0.07100
C 	C 	0.43844 0.97370 0.10892 0.35900
C 	C 	0.42563 0.98747 0.05224 0.01600
C 	C 	0.45106 0.05204 0.06476 -0.06200
C 	C 	0.51210 0.93200 0.24770 0.07600
C 	C 	0.49680 0.86060 0.22140 0.10600
C 	C 	0.48650 0.16010 0.32540 0.07100
C 	C 	0.50970 0.22850 0.34740 -0.11900
C 	C 	0.55040 0.26280 0.33340 0.05200
C 	C 	0.56780 0.23030 0.29150 -0.11300
C 	C 	0.54160 0.16110 0.26890 0.07100
C 	C 	0.32952 0.89108 0.86478 0.32500
C 	C 	0.37339 0.94776 0.93523 -0.00200
C 	C 	0.38630 0.93524 0.98728 -0.06900
C 	C 	0.26440 0.75230 0.68430 0.07700
C 	C 	0.27540 0.77860 0.63920 0.09600
C 	C 	0.16110 0.67460 0.83470 0.06900
C 	C 	0.16230 0.65260 0.88110 -0.12200
C 	C 	0.21700 0.66660 0.92940 0.05100
C 	C 	0.27630 0.70850 0.93880 -0.11700
C 	C 	0.27270 0.73110 0.89220 0.06900
C 	C 	0.97370 0.60892 0.93844 0.38100
C 	C 	0.98747 0.55224 0.92563 -0.05100
C 	C 	0.05204 0.56476 0.95106 -0.02900
C 	C 	0.93200 0.74770 0.01210 0.12500
C 	C 	0.86060 0.72140 0.99680 0.07300
C 	C 	0.16010 0.82540 0.98650 -0.09100
C 	C 	0.22850 0.84740 0.00970 0.10500
C 	C 	0.26280 0.83340 0.05040 -0.09800
C 	C 	0.23030 0.79150 0.06780 -0.01400
C 	C 	0.16110 0.76890 0.04160 0.02500
C 	C 	0.52630 0.46474 0.63522 0.36100
C 	C 	0.51253 0.43816 0.56477 -0.11300
C 	C 	0.44796 0.39902 0.51272 0.05500
C 	C 	0.56800 0.58010 0.81570 0.07700
C 	C 	0.63940 0.63620 0.86080 0.09500
C 	C 	0.33990 0.32640 0.66530 0.07100
C 	C 	0.27150 0.28120 0.61890 -0.11900
C 	C 	0.23720 0.28760 0.57060 0.05200
C 	C 	0.26970 0.33750 0.56120 -0.11200
C 	C 	0.33890 0.38050 0.60780 0.07100
C 	C 	0.17048 0.03526 0.56156 0.32100
C 	C 	0.12661 0.06184 0.57437 -0.10300
C 	C 	0.11370 0.10098 0.54894 0.04500
C 	C 	0.23560 0.91990 0.48790 0.08000
C 	C 	0.22460 0.86380 0.50320 0.09900
C 	C 	0.33890 0.17360 0.51350 0.07100
C 	C 	0.33770 0.21880 0.49030 -0.11900
C 	C 	0.28300 0.21240 0.44960 0.05200
C 	C 	0.22370 0.16250 0.43220 -0.11300
C 	C 	0.22730 0.11950 0.45840 0.07000
C 	C 	0.03526 0.06156 0.67048 0.32000
C 	C 	0.06184 0.07437 0.62661 -0.10500
C 	C 	0.10098 0.04894 0.61370 0.04100
C 	C 	0.91990 0.98790 0.73560 0.12400
C 	C 	0.86380 0.00320 0.72460 0.06700
C 	C 	0.17360 0.01350 0.83890 -0.07500
C 	C 	0.21880 0.99030 0.83770 0.08000
C 	C 	0.21240 0.94960 0.78300 -0.08300
C 	C 	0.16250 0.93220 0.72370 -0.02500
C 	C 	0.11950 0.95840 0.72730 0.02900
C 	C 	0.46474 0.13522 0.02630 0.36400
C 	C 	0.43816 0.06477 0.01253 -0.00700
C 	C 	0.39902 0.01272 0.94796 -0.09400
C 	C 	0.58010 0.31570 0.06800 0.07500
C 	C 	0.63620 0.36080 0.13940 0.10700
C 	C 	0.32640 0.16530 0.83990 0.07100
C 	C 	0.28120 0.11890 0.77150 -0.12300
C 	C 	0.28760 0.07060 0.73720 0.05200
C 	C 	0.33750 0.06120 0.76970 -0.11800
C 	C 	0.38050 0.10780 0.83890 0.07000
C 	C 	0.60892 0.43844 0.47370 0.36100
C 	C 	0.55224 0.42563 0.48747 -0.11300
C 	C 	0.56476 0.45106 0.55204 0.05500
C 	C 	0.74770 0.51210 0.43200 0.07900
C 	C 	0.72140 0.49680 0.36060 0.10100
C 	C 	0.82540 0.48650 0.66010 0.07200
C 	C 	0.84740 0.50970 0.72850 -0.11800
C 	C 	0.83340 0.55040 0.76280 0.05300
C 	C 	0.79150 0.56780 0.73030 -0.11200
C 	C 	0.76890 0.54160 0.66110 0.07100
C 	C 	0.89108 0.36478 0.82952 0.34000
C 	C 	0.94776 0.43523 0.87339 -0.04100
C 	C 	0.93524 0.48728 0.88630 0.00500
C 	C 	0.75230 0.18430 0.76440 0.07700
C 	C 	0.77860 0.13920 0.77540 0.09100
C 	C 	0.67460 0.33470 0.66110 0.07100
C 	C 	0.65260 0.38110 0.66230 -0.11900
C 	C 	0.66660 0.42940 0.71700 0.05200
C 	C 	0.70850 0.43880 0.77630 -0.11200
C 	C 	0.73110 0.39220 0.77270 0.07100
N 	N 	0.12744 0.34185 0.62469 -0.22200
N 	N 	0.21716 0.50275 0.87531 -0.22400
N 	N 	0.28284 0.15815 0.28559 -0.22300
N 	N 	0.37256 0.99725 0.21441 -0.17000
N 	N 	0.78559 0.28284 0.65815 -0.22200
N 	N 	0.71441 0.37256 0.49725 -0.22200
N 	N 	0.12469 0.12744 0.84185 -0.22500
N 	N 	0.37531 0.21716 0.00275 -0.16400
N 	N 	0.50275 0.37531 0.71716 -0.22200
N 	N 	0.34185 0.12469 0.62744 -0.22400
N 	N 	0.99725 0.71441 0.87256 -0.16800
N 	N 	0.15815 0.78559 0.78284 -0.22200
N 	N 	0.15815 0.37256 0.87531 -0.22500
N 	N 	0.99725 0.28284 0.62469 -0.16700
N 	N 	0.34185 0.21716 0.21441 -0.22200
N 	N 	0.50275 0.12744 0.28559 -0.22300
N 	N 	0.21716 0.71441 0.84185 -0.22300
N 	N 	0.12744 0.78559 0.00275 -0.16300
N 	N 	0.37256 0.37531 0.65815 -0.22200
N 	N 	0.28284 0.12469 0.49725 -0.22400
N 	N 	0.12469 0.99725 0.78284 -0.17200
N 	N 	0.37531 0.15815 0.87256 -0.22300
N 	N 	0.78559 0.50275 0.62744 -0.22200
N 	N 	0.71441 0.34185 0.71716 -0.22200
O 	O 	0.02262 0.35839 0.55843 -0.43300
O 	O 	0.91611 0.31909 0.49356 -0.29000
O 	O 	0.92954 0.21579 0.48043 -0.48700
O 	O 	0.83350 0.17940 0.35590 -0.14800
O 	O 	0.29996 0.46419 0.94157 -0.40300
O 	O 	0.32553 0.42255 0.00644 -0.24900
O 	O 	0.23536 0.44911 0.01957 -0.48100
O 	O 	0.32350 0.47760 0.14410 -0.14600
O 	O 	0.20004 0.14161 0.16423 -0.39700
O 	O 	0.17447 0.18091 0.09702 -0.27500
O 	O 	0.26464 0.28421 0.21375 -0.49700
O 	O 	0.17650 0.32060 0.15410 -0.14700
O 	O 	0.47738 0.03581 0.33577 -0.41700
O 	O 	0.58389 0.07745 0.40298 -0.29400
O 	O 	0.57046 0.05089 0.28625 -0.52000
O 	O 	0.66650 0.02240 0.34590 -0.15100
O 	O 	0.66423 0.20004 0.64161 -0.40700
O 	O 	0.59702 0.17447 0.68091 -0.29100
O 	O 	0.71375 0.26464 0.78421 -0.49800
O 	O 	0.65410 0.17650 0.82060 -0.15400
O 	O 	0.83577 0.47738 0.53581 -0.40000
O 	O 	0.90298 0.58389 0.57745 -0.27700
O 	O 	0.78625 0.57046 0.55089 -0.49700
O 	O 	0.84590 0.66650 0.52240 -0.14200
O 	O 	0.05843 0.02262 0.85839 -0.42500
O 	O 	0.99356 0.91611 0.81909 -0.25000
O 	O 	0.98043 0.92954 0.71579 -0.47200
O 	O 	0.85590 0.83350 0.67940 -0.14600
O 	O 	0.44157 0.29996 0.96419 -0.41800
O 	O 	0.50644 0.32553 0.92255 -0.29400
O 	O 	0.51957 0.23536 0.94911 -0.52400
O 	O 	0.64410 0.32350 0.97760 -0.15100
O 	O 	0.46419 0.44157 0.79996 -0.40600
O 	O 	0.42255 0.50644 0.82553 -0.29000
O 	O 	0.44911 0.51957 0.73536 -0.49800
O 	O 	0.47760 0.64410 0.82350 -0.15100
O 	O 	0.35839 0.05843 0.52262 -0.40300
O 	O 	0.31909 0.99356 0.41611 -0.25300
O 	O 	0.21579 0.98043 0.42954 -0.48300
O 	O 	0.17940 0.85590 0.33350 -0.14700
O 	O 	0.03581 0.83577 0.97738 -0.44100
O 	O 	0.07745 0.90298 0.08389 -0.28300
O 	O 	0.05089 0.78625 0.07046 -0.50600
O 	O 	0.02240 0.84590 0.16650 -0.14400
O 	O 	0.14161 0.66423 0.70004 -0.40300
O 	O 	0.18091 0.59702 0.67447 -0.28600
O 	O 	0.28421 0.71375 0.76464 -0.49800
O 	O 	0.32060 0.65410 0.67650 -0.15000
O 	O 	0.14161 0.47738 0.94157 -0.39900
O 	O 	0.18091 0.58389 0.00644 -0.24500
O 	O 	0.28421 0.57046 0.01957 -0.48000
O 	O 	0.32060 0.66650 0.14410 -0.14700
O 	O 	0.03581 0.20004 0.55843 -0.41800
O 	O 	0.07745 0.17447 0.49356 -0.29500
O 	O 	0.05089 0.26464 0.48043 -0.52200
O 	O 	0.02240 0.17650 0.35590 -0.15400
O 	O 	0.35839 0.29996 0.33577 -0.40600
O 	O 	0.31909 0.32553 0.40298 -0.28900
O 	O 	0.21579 0.23536 0.28625 -0.49900
O 	O 	0.17940 0.32350 0.34590 -0.15100
O 	O 	0.46419 0.02262 0.16423 -0.42600
O 	O 	0.42255 0.91611 0.09702 -0.27800
O 	O 	0.44911 0.92954 0.21375 -0.48700
O 	O 	0.47760 0.83350 0.15410 -0.14100
O 	O 	0.29996 0.83577 0.85839 -0.39700
O 	O 	0.32553 0.90298 0.81909 -0.27500
O 	O 	0.23536 0.78625 0.71579 -0.49800
O 	O 	0.32350 0.84590 0.67940 -0.14500
O 	O 	0.02262 0.66423 0.96419 -0.44600
O 	O 	0.91611 0.59702 0.92255 -0.29500
O 	O 	0.92954 0.71375 0.94911 -0.51000
O 	O 	0.83350 0.65410 0.97760 -0.15000
O 	O 	0.47738 0.44157 0.64161 -0.40600
O 	O 	0.58389 0.50644 0.68091 -0.28900
O 	O 	0.57046 0.51957 0.78421 -0.49800
O 	O 	0.66650 0.64410 0.82060 -0.14900
O 	O 	0.20004 0.05843 0.53581 -0.40300
O 	O 	0.17447 0.99356 0.57745 -0.25400
O 	O 	0.26464 0.98043 0.55089 -0.48200
O 	O 	0.17650 0.85590 0.52240 -0.14900
O 	O 	0.05843 0.03581 0.70004 -0.41300
O 	O 	0.99356 0.07745 0.67447 -0.25500
O 	O 	0.98043 0.05089 0.76464 -0.50300
O 	O 	0.85590 0.02240 0.67650 -0.14900
O 	O 	0.44157 0.14161 0.97738 -0.43100
O 	O 	0.50644 0.18091 0.08389 -0.28700
O 	O 	0.51957 0.28421 0.07046 -0.48500
O 	O 	0.64410 0.32060 0.16650 -0.14700
O 	O 	0.66423 0.46419 0.52262 -0.40600
O 	O 	0.59702 0.42255 0.41611 -0.28900
O 	O 	0.71375 0.44911 0.42954 -0.49700
O 	O 	0.65410 0.47760 0.33350 -0.14800
O 	O 	0.83577 0.35839 0.79996 -0.40100
O 	O 	0.90298 0.31909 0.82553 -0.27900
O 	O 	0.78625 0.21579 0.73536 -0.49800
O 	O 	0.84590 0.17940 0.82350 -0.14800
