data_crystal

_cell_length_a 17.98000
_cell_length_b 11.71100
_cell_length_c 19.92100
_cell_angle_alpha 90.00000
_cell_angle_beta  110.97000
_cell_angle_gamma 90.00000

_symmetry_space_group_name_	'P 1'
_symmetry_space_group_name_H-M	'P 1'

loop_
_symmetry_equiv_pos_as_xyz
  x,y,z

loop_
_atom_site_label
_atom_site_type_symbol
_atom_site_fract_x
_atom_site_fract_y
_atom_site_fract_z
_atom_site_charge
C 	C 	0.02740 0.21930 0.24870 -0.00700
C 	C 	0.03230 0.28800 0.19210 -0.01400
H 	H 	0.98900 0.33370 0.16680 0.03100
C 	C 	0.95490 0.38440 0.43660 -0.00600
C 	C 	0.94260 0.29940 0.48010 -0.00600
H 	H 	0.98290 0.24650 0.50060 0.03100
O 	O 	0.48360 0.21920 0.45720 -0.40300
O 	O 	0.50840 0.33330 0.20590 -0.44800
C 	C 	0.49060 0.13030 0.09990 0.51200
H 	H 	0.49330 0.20890 0.09430 -0.12700
C 	C 	0.48360 0.18720 0.40030 0.34700
H 	H 	0.48020 0.10900 0.39140 -0.06000
C 	C 	0.50400 0.42290 0.23060 0.47100
H 	H 	0.47920 0.42610 0.26420 -0.14100
C 	C 	0.32060 0.38880 0.42440 0.10800
H 	H 	0.33160 0.36010 0.47050 -0.00700
C 	C 	0.33540 0.45030 0.32850 0.00700
H 	H 	0.35890 0.47140 0.29560 0.02900
C 	C 	0.25540 0.45600 0.31690 0.00500
H 	H 	0.21520 0.48210 0.27570 0.03700
C 	C 	0.17350 0.40870 0.39370 0.12100
C 	C 	0.16380 0.32340 0.43730 -0.11900
H 	H 	0.20390 0.26990 0.45700 0.07400
C 	C 	0.09280 0.31720 0.45220 -0.01600
H 	H 	0.08750 0.26110 0.48320 0.03300
C 	C 	0.03030 0.39380 0.42100 0.00200
C 	C 	0.04160 0.47670 0.37640 -0.01700
H 	H 	0.00110 0.52920 0.35530 0.04100
C 	C 	0.11280 0.48450 0.36170 -0.11600
H 	H 	0.11840 0.54030 0.33060 0.07900
C 	C 	0.89160 0.46200 0.40830 -0.00900
H 	H 	0.89640 0.52020 0.37840 0.03800
C 	C 	0.66790 0.39520 0.44920 0.11000
H 	H 	0.65430 0.43560 0.40630 -0.00800
C 	C 	0.66050 0.30770 0.54120 0.00200
H 	H 	0.64040 0.27570 0.57390 0.03200
C 	C 	0.73700 0.30220 0.54550 0.00800
H 	H 	0.77890 0.26750 0.58180 0.02900
C 	C 	0.81330 0.36760 0.46710 0.12100
C 	C 	0.87320 0.28980 0.49440 -0.12200
H 	H 	0.86710 0.23010 0.52270 0.07300
C 	C 	0.82210 0.45470 0.42330 -0.11800
H 	H 	0.78170 0.50790 0.40410 0.08100
C 	C 	0.31030 0.18730 0.23330 0.09200
H 	H 	0.32120 0.14650 0.27580 0.00200
C 	C 	0.32430 0.27340 0.14230 0.00100
H 	H 	0.34700 0.30240 0.11070 0.03200
C 	C 	0.24650 0.28470 0.13500 0.00200
H 	H 	0.20720 0.32250 0.09800 0.02500
C 	C 	0.16640 0.22420 0.21090 0.11100
C 	C 	0.09930 0.28980 0.17290 -0.11500
H 	H 	0.09960 0.33480 0.13450 0.06800
C 	C 	0.16310 0.15640 0.26700 -0.11800
H 	H 	0.20690 0.11230 0.29330 0.07500
C 	C 	0.66510 0.20580 0.27050 0.09500
H 	H 	0.65400 0.25040 0.22950 0.00600
C 	C 	0.65270 0.10720 0.35750 0.00000
H 	H 	0.63020 0.07210 0.38750 0.03300
C 	C 	0.73100 0.10780 0.36860 0.00500
H 	H 	0.77120 0.07220 0.40580 0.02700
C 	C 	0.81250 0.18960 0.29890 0.10900
C 	C 	0.81810 0.27450 0.25130 -0.11400
H 	H 	0.77550 0.32340 0.22950 0.07400
C 	C 	0.88820 0.28490 0.23690 -0.02000
H 	H 	0.89140 0.34150 0.20530 0.03400
C 	C 	0.95390 0.21380 0.26810 -0.00500
C 	C 	0.94670 0.13150 0.31630 -0.02000
H 	H 	0.98950 0.08320 0.33860 0.03400
C 	C 	0.87770 0.11930 0.33210 -0.11300
H 	H 	0.87520 0.06410 0.36480 0.06800
C 	C 	0.09490 0.15440 0.28370 -0.01200
H 	H 	0.09410 0.10670 0.32070 0.03300
N 	N 	0.37510 0.40830 0.39630 -0.22500
N 	N 	0.24650 0.41530 0.37870 -0.14000
N 	N 	0.61670 0.36890 0.48020 -0.22700
N 	N 	0.74160 0.35780 0.48570 -0.14100
N 	N 	0.36430 0.21220 0.20390 -0.21000
N 	N 	0.23650 0.22950 0.19290 -0.13900
N 	N 	0.60980 0.16630 0.29480 -0.21100
N 	N 	0.73980 0.17280 0.31300 -0.13700
Ni	Ni	0.48692 0.18400 0.24903 1.11500
Ni	Ni	0.49615 0.39063 0.44726 1.10000
O 	O 	0.49220 0.06890 0.04880 -0.56400
O 	O 	0.48590 0.09620 0.15690 -0.46200
O 	O 	0.53190 0.52080 0.21430 -0.38900
O 	O 	0.48840 0.25700 0.34810 -0.44100
C 	C 	0.97260 0.71930 0.25130 -0.00900
C 	C 	0.96770 0.78800 0.30790 -0.01600
H 	H 	0.01100 0.83370 0.33320 0.03100
C 	C 	0.04510 0.88440 0.06340 -0.00500
C 	C 	0.05740 0.79940 0.01990 -0.00800
H 	H 	0.01710 0.74650 0.99940 0.03000
O 	O 	0.51640 0.71920 0.04280 -0.40500
O 	O 	0.49160 0.83330 0.29410 -0.44800
C 	C 	0.50940 0.63030 0.40010 0.51100
H 	H 	0.50670 0.70890 0.40570 -0.12900
C 	C 	0.51640 0.68720 0.09970 0.34600
H 	H 	0.51980 0.60900 0.10860 -0.06100
C 	C 	0.49600 0.92290 0.26940 0.46900
H 	H 	0.52080 0.92610 0.23580 -0.14200
C 	C 	0.67940 0.88880 0.07560 0.10700
H 	H 	0.66840 0.86010 0.02950 -0.00900
C 	C 	0.66460 0.95030 0.17150 0.00700
H 	H 	0.64110 0.97140 0.20440 0.02900
C 	C 	0.74460 0.95600 0.18310 0.00500
H 	H 	0.78480 0.98210 0.22430 0.03700
C 	C 	0.82650 0.90870 0.10630 0.12200
C 	C 	0.83620 0.82340 0.06270 -0.12000
H 	H 	0.79610 0.76990 0.04300 0.07400
C 	C 	0.90720 0.81720 0.04780 -0.01500
H 	H 	0.91250 0.76110 0.01680 0.03200
C 	C 	0.96970 0.89380 0.07900 -0.00000
C 	C 	0.95840 0.97670 0.12360 -0.01600
H 	H 	0.99890 0.02920 0.14470 0.04100
C 	C 	0.88720 0.98450 0.13830 -0.11800
H 	H 	0.88160 0.04030 0.16940 0.08000
C 	C 	0.10840 0.96200 0.09170 -0.01100
H 	H 	0.10360 0.02020 0.12160 0.04000
C 	C 	0.33210 0.89520 0.05080 0.11000
H 	H 	0.34570 0.93560 0.09370 -0.00800
C 	C 	0.33950 0.80770 0.95880 0.00200
H 	H 	0.35960 0.77570 0.92610 0.03200
C 	C 	0.26300 0.80220 0.95450 0.00800
H 	H 	0.22110 0.76750 0.91820 0.02900
C 	C 	0.18670 0.86760 0.03290 0.12100
C 	C 	0.12680 0.78980 0.00560 -0.12200
H 	H 	0.13290 0.73010 0.97730 0.07300
C 	C 	0.17790 0.95470 0.07670 -0.11900
H 	H 	0.21830 0.00790 0.09590 0.08300
C 	C 	0.68970 0.68730 0.26670 0.09200
H 	H 	0.67880 0.64650 0.22420 0.00200
C 	C 	0.67570 0.77340 0.35770 0.00100
H 	H 	0.65300 0.80240 0.38930 0.03200
C 	C 	0.75350 0.78470 0.36500 0.00200
H 	H 	0.79280 0.82250 0.40200 0.02500
C 	C 	0.83360 0.72420 0.28910 0.11100
C 	C 	0.90070 0.78980 0.32710 -0.11500
H 	H 	0.90040 0.83480 0.36550 0.06700
C 	C 	0.83690 0.65640 0.23300 -0.11800
H 	H 	0.79310 0.61230 0.20670 0.07500
C 	C 	0.33490 0.70580 0.22950 0.09400
H 	H 	0.34600 0.75040 0.27050 0.00600
C 	C 	0.34730 0.60720 0.14250 0.00000
H 	H 	0.36980 0.57210 0.11250 0.03300
C 	C 	0.26900 0.60780 0.13140 0.00500
H 	H 	0.22880 0.57220 0.09420 0.02700
C 	C 	0.18750 0.68960 0.20110 0.10800
C 	C 	0.18190 0.77450 0.24870 -0.11300
H 	H 	0.22450 0.82340 0.27050 0.07400
C 	C 	0.11180 0.78490 0.26310 -0.02000
H 	H 	0.10860 0.84150 0.29470 0.03400
C 	C 	0.04610 0.71380 0.23190 -0.00300
C 	C 	0.05330 0.63150 0.18370 -0.02100
H 	H 	0.01050 0.58320 0.16140 0.03400
C 	C 	0.12230 0.61930 0.16790 -0.11200
H 	H 	0.12480 0.56410 0.13520 0.06800
C 	C 	0.90510 0.65440 0.21630 -0.01200
H 	H 	0.90590 0.60670 0.17930 0.03200
N 	N 	0.62490 0.90830 0.10370 -0.22500
N 	N 	0.75350 0.91530 0.12130 -0.14000
N 	N 	0.38330 0.86890 0.01980 -0.22700
N 	N 	0.25840 0.85780 0.01430 -0.14200
N 	N 	0.63570 0.71220 0.29610 -0.21000
N 	N 	0.76350 0.72950 0.30710 -0.13900
N 	N 	0.39020 0.66630 0.20520 -0.21100
N 	N 	0.26020 0.67280 0.18700 -0.13700
Ni	Ni	0.51308 0.68400 0.25097 1.11500
Ni	Ni	0.50385 0.89063 0.05274 1.10000
O 	O 	0.50780 0.56890 0.45120 -0.56500
O 	O 	0.51410 0.59620 0.34310 -0.46200
O 	O 	0.46810 0.02080 0.28570 -0.38900
O 	O 	0.51160 0.75700 0.15190 -0.44200
C 	C 	0.97260 0.78070 0.75130 -0.00800
C 	C 	0.96770 0.71200 0.80790 -0.01500
H 	H 	0.01100 0.66630 0.83320 0.03000
C 	C 	0.04510 0.61560 0.56340 -0.00700
C 	C 	0.05740 0.70060 0.51990 -0.00700
H 	H 	0.01710 0.75350 0.49940 0.03000
O 	O 	0.51640 0.78080 0.54280 -0.40400
O 	O 	0.49160 0.66670 0.79410 -0.44900
C 	C 	0.50940 0.86970 0.90010 0.51100
H 	H 	0.50670 0.79110 0.90570 -0.12800
C 	C 	0.51640 0.81280 0.59970 0.34600
H 	H 	0.51980 0.89100 0.60860 -0.06100
C 	C 	0.49600 0.57710 0.76940 0.47000
H 	H 	0.52080 0.57390 0.73580 -0.14200
C 	C 	0.67940 0.61120 0.57560 0.10700
H 	H 	0.66840 0.63990 0.52950 -0.00800
C 	C 	0.66460 0.54970 0.67150 0.00700
H 	H 	0.64110 0.52860 0.70440 0.02900
C 	C 	0.74460 0.54400 0.68310 0.00500
H 	H 	0.78480 0.51790 0.72430 0.03700
C 	C 	0.82650 0.59130 0.60630 0.12100
C 	C 	0.83620 0.67660 0.56270 -0.11900
H 	H 	0.79610 0.73010 0.54300 0.07400
C 	C 	0.90720 0.68280 0.54780 -0.01600
H 	H 	0.91250 0.73890 0.51680 0.03300
C 	C 	0.96970 0.60620 0.57900 0.00200
C 	C 	0.95840 0.52330 0.62360 -0.01700
H 	H 	0.99890 0.47080 0.64470 0.04100
C 	C 	0.88720 0.51550 0.63830 -0.11600
H 	H 	0.88160 0.45970 0.66940 0.07900
C 	C 	0.10840 0.53800 0.59170 -0.00900
H 	H 	0.10360 0.47980 0.62160 0.03800
C 	C 	0.33210 0.60480 0.55080 0.11000
H 	H 	0.34570 0.56440 0.59370 -0.00800
C 	C 	0.33950 0.69230 0.45880 0.00200
H 	H 	0.35960 0.72430 0.42610 0.03200
C 	C 	0.26300 0.69780 0.45450 0.00800
H 	H 	0.22110 0.73250 0.41820 0.02900
C 	C 	0.18670 0.63240 0.53290 0.12100
C 	C 	0.12680 0.71020 0.50560 -0.12200
H 	H 	0.13290 0.76990 0.47730 0.07300
C 	C 	0.17790 0.54530 0.57670 -0.11800
H 	H 	0.21830 0.49210 0.59590 0.08100
C 	C 	0.68970 0.81270 0.76670 0.09200
H 	H 	0.67880 0.85350 0.72420 0.00200
C 	C 	0.67570 0.72660 0.85770 0.00100
H 	H 	0.65300 0.69760 0.88930 0.03200
C 	C 	0.75350 0.71530 0.86500 0.00200
H 	H 	0.79280 0.67750 0.90200 0.02500
C 	C 	0.83360 0.77580 0.78910 0.11100
C 	C 	0.90070 0.71020 0.82710 -0.11500
H 	H 	0.90040 0.66520 0.86550 0.06800
C 	C 	0.83690 0.84360 0.73300 -0.11800
H 	H 	0.79310 0.88770 0.70670 0.07500
C 	C 	0.33490 0.79420 0.72950 0.09500
H 	H 	0.34600 0.74960 0.77050 0.00600
C 	C 	0.34730 0.89280 0.64250 0.00000
H 	H 	0.36980 0.92790 0.61250 0.03300
C 	C 	0.26900 0.89220 0.63140 0.00500
H 	H 	0.22880 0.92780 0.59420 0.02700
C 	C 	0.18750 0.81040 0.70110 0.10900
C 	C 	0.18190 0.72550 0.74870 -0.11400
H 	H 	0.22450 0.67660 0.77050 0.07400
C 	C 	0.11180 0.71510 0.76310 -0.02000
H 	H 	0.10860 0.65850 0.79470 0.03400
C 	C 	0.04610 0.78620 0.73190 -0.00500
C 	C 	0.05330 0.86850 0.68370 -0.02000
H 	H 	0.01050 0.91680 0.66140 0.03400
C 	C 	0.12230 0.88070 0.66790 -0.11300
H 	H 	0.12480 0.93590 0.63520 0.06800
C 	C 	0.90510 0.84560 0.71630 -0.01200
H 	H 	0.90590 0.89330 0.67930 0.03300
N 	N 	0.62490 0.59170 0.60370 -0.22500
N 	N 	0.75350 0.58470 0.62130 -0.14000
N 	N 	0.38330 0.63110 0.51980 -0.22700
N 	N 	0.25840 0.64220 0.51430 -0.14100
N 	N 	0.63570 0.78780 0.79610 -0.21000
N 	N 	0.76350 0.77050 0.80710 -0.13900
N 	N 	0.39020 0.83370 0.70520 -0.21100
N 	N 	0.26020 0.82720 0.68700 -0.13700
Ni	Ni	0.51308 0.81600 0.75097 1.11500
Ni	Ni	0.50385 0.60937 0.55274 1.10000
O 	O 	0.50780 0.93110 0.95120 -0.56400
O 	O 	0.51410 0.90380 0.84310 -0.46200
O 	O 	0.46810 0.47920 0.78570 -0.38900
O 	O 	0.51160 0.74300 0.65190 -0.44100
C 	C 	0.02740 0.28070 0.74870 -0.00900
C 	C 	0.03230 0.21200 0.69210 -0.01600
H 	H 	0.98900 0.16630 0.66680 0.03100
C 	C 	0.95490 0.11560 0.93660 -0.00500
C 	C 	0.94260 0.20060 0.98010 -0.00800
H 	H 	0.98290 0.25350 0.00060 0.03000
O 	O 	0.48360 0.28080 0.95720 -0.40500
O 	O 	0.50840 0.16670 0.70590 -0.44800
C 	C 	0.49060 0.36970 0.59990 0.51100
H 	H 	0.49330 0.29110 0.59430 -0.12900
C 	C 	0.48360 0.31280 0.90030 0.34600
H 	H 	0.48020 0.39100 0.89140 -0.06100
C 	C 	0.50400 0.07710 0.73060 0.46900
H 	H 	0.47920 0.07390 0.76420 -0.14200
C 	C 	0.32060 0.11120 0.92440 0.10700
H 	H 	0.33160 0.13990 0.97050 -0.00900
C 	C 	0.33540 0.04970 0.82850 0.00700
H 	H 	0.35890 0.02860 0.79560 0.02900
C 	C 	0.25540 0.04400 0.81690 0.00500
H 	H 	0.21520 0.01790 0.77570 0.03700
C 	C 	0.17350 0.09130 0.89370 0.12200
C 	C 	0.16380 0.17660 0.93730 -0.12000
H 	H 	0.20390 0.23010 0.95700 0.07400
C 	C 	0.09280 0.18280 0.95220 -0.01500
H 	H 	0.08750 0.23890 0.98320 0.03200
C 	C 	0.03030 0.10620 0.92100 -0.00000
C 	C 	0.04160 0.02330 0.87640 -0.01600
H 	H 	0.00110 0.97080 0.85530 0.04100
C 	C 	0.11280 0.01550 0.86170 -0.11800
H 	H 	0.11840 0.95970 0.83060 0.08000
C 	C 	0.89160 0.03800 0.90830 -0.01100
H 	H 	0.89640 0.97980 0.87840 0.04000
C 	C 	0.66790 0.10480 0.94920 0.11000
H 	H 	0.65430 0.06440 0.90630 -0.00800
C 	C 	0.66050 0.19230 0.04120 0.00200
H 	H 	0.64040 0.22430 0.07390 0.03200
C 	C 	0.73700 0.19780 0.04550 0.00800
H 	H 	0.77890 0.23250 0.08180 0.02900
C 	C 	0.81330 0.13240 0.96710 0.12100
C 	C 	0.87320 0.21020 0.99440 -0.12200
H 	H 	0.86710 0.26990 0.02270 0.07300
C 	C 	0.82210 0.04530 0.92330 -0.11900
H 	H 	0.78170 0.99210 0.90410 0.08300
C 	C 	0.31030 0.31270 0.73330 0.09200
H 	H 	0.32120 0.35350 0.77580 0.00200
C 	C 	0.32430 0.22660 0.64230 0.00100
H 	H 	0.34700 0.19760 0.61070 0.03200
C 	C 	0.24650 0.21530 0.63500 0.00200
H 	H 	0.20720 0.17750 0.59800 0.02500
C 	C 	0.16640 0.27580 0.71090 0.11100
C 	C 	0.09930 0.21020 0.67290 -0.11500
H 	H 	0.09960 0.16520 0.63450 0.06700
C 	C 	0.16310 0.34360 0.76700 -0.11800
H 	H 	0.20690 0.38770 0.79330 0.07500
C 	C 	0.66510 0.29420 0.77050 0.09400
H 	H 	0.65400 0.24960 0.72950 0.00600
C 	C 	0.65270 0.39280 0.85750 0.00000
H 	H 	0.63020 0.42790 0.88750 0.03300
C 	C 	0.73100 0.39220 0.86860 0.00500
H 	H 	0.77120 0.42780 0.90580 0.02700
C 	C 	0.81250 0.31040 0.79890 0.10800
C 	C 	0.81810 0.22550 0.75130 -0.11300
H 	H 	0.77550 0.17660 0.72950 0.07400
C 	C 	0.88820 0.21510 0.73690 -0.02000
H 	H 	0.89140 0.15850 0.70530 0.03400
C 	C 	0.95390 0.28620 0.76810 -0.00300
C 	C 	0.94670 0.36850 0.81630 -0.02100
H 	H 	0.98950 0.41680 0.83860 0.03400
C 	C 	0.87770 0.38070 0.83210 -0.11200
H 	H 	0.87520 0.43590 0.86480 0.06800
C 	C 	0.09490 0.34560 0.78370 -0.01200
H 	H 	0.09410 0.39330 0.82070 0.03200
N 	N 	0.37510 0.09170 0.89630 -0.22500
N 	N 	0.24650 0.08470 0.87870 -0.14000
N 	N 	0.61670 0.13110 0.98020 -0.22700
N 	N 	0.74160 0.14220 0.98570 -0.14200
N 	N 	0.36430 0.28780 0.70390 -0.21000
N 	N 	0.23650 0.27050 0.69290 -0.13900
N 	N 	0.60980 0.33370 0.79480 -0.21100
N 	N 	0.73980 0.32720 0.81300 -0.13700
Ni	Ni	0.48692 0.31600 0.74903 1.11500
Ni	Ni	0.49615 0.10937 0.94726 1.10000
O 	O 	0.49220 0.43110 0.54880 -0.56500
O 	O 	0.48590 0.40380 0.65690 -0.46200
O 	O 	0.53190 0.97920 0.71430 -0.38900
O 	O 	0.48840 0.24300 0.84810 -0.44200
