data_crystal

_cell_length_a 8.29690
_cell_length_b 21.75600
_cell_length_c 13.78100
_cell_angle_alpha 90.00000
_cell_angle_beta  103.69000
_cell_angle_gamma 90.00000

_symmetry_space_group_name_	'P 1'
_symmetry_space_group_name_H-M	'P 1'

loop_
_symmetry_equiv_pos_as_xyz
  x,y,z

loop_
_atom_site_label
_atom_site_type_symbol
_atom_site_fract_x
_atom_site_fract_y
_atom_site_fract_z
_atom_site_charge
C 	C 	0.36480 0.10510 0.13710 0.08700
H 	H 	0.43040 0.13480 0.11690 -0.02600
C 	C 	0.24240 0.02060 0.15120 -0.07600
H 	H 	0.20690 0.98000 0.14180 0.05400
C 	C 	0.19730 0.06010 0.21470 0.02700
H 	H 	0.12700 0.05210 0.25670 0.01000
C 	C 	0.26620 0.17030 0.25950 0.08100
C 	C 	0.11880 0.18750 0.28010 -0.08000
H 	H 	0.02380 0.16420 0.25590 0.04900
C 	C 	0.40610 0.20570 0.29300 -0.07900
H 	H 	0.50600 0.19390 0.27910 0.05600
C 	C 	0.26840 0.00630 0.76350 0.03500
H 	H 	0.33120 0.97470 0.74570 0.02400
C 	C 	0.18070 0.07530 0.84760 0.02800
H 	H 	0.17060 0.10080 0.90000 0.00800
C 	C 	0.08080 0.07700 0.75390 -0.06600
H 	H 	0.99190 0.10340 0.73080 0.06900
C 	C 	0.06750 0.01560 0.59860 -0.06300
C 	C 	0.98250 0.05890 0.53310 0.08100
H 	H 	0.97050 0.09870 0.55520 0.01200
C 	C 	0.08550 0.95680 0.56600 0.08200
H 	H 	0.14310 0.92760 0.61020 0.00300
C 	C 	0.11810 0.36650 0.42470 0.09300
H 	H 	0.01700 0.36260 0.37840 -0.02400
C 	C 	0.31220 0.39950 0.54200 -0.00200
H 	H 	0.37160 0.42370 0.59400 0.01700
C 	C 	0.37270 0.34870 0.50670 -0.00400
H 	H 	0.47780 0.33170 0.52870 0.03400
C 	C 	0.25100 0.27450 0.37020 0.08300
C 	C 	0.11080 0.23970 0.33700 -0.08100
H 	H 	0.01160 0.25090 0.35250 0.05100
C 	C 	0.39870 0.25850 0.34720 -0.07900
H 	H 	0.49220 0.28310 0.36810 0.05800
N 	N 	0.34850 0.04857 0.10180 -0.23600
N 	N 	0.27620 0.11490 0.20530 -0.14500
N 	N 	0.29780 0.03078 0.85330 -0.22200
N 	N 	0.13690 0.03217 0.70030 -0.10200
N 	N 	0.15220 0.41078 0.49120 -0.24100
N 	N 	0.24540 0.32770 0.43110 -0.13900
C 	C 	0.13520 0.60510 0.36290 0.09100
H 	H 	0.06960 0.63480 0.38310 -0.02500
C 	C 	0.25760 0.52060 0.34880 -0.00600
H 	H 	0.29310 0.48000 0.35820 0.01800
C 	C 	0.30270 0.56010 0.28530 -0.00400
H 	H 	0.37300 0.55210 0.24330 0.03100
C 	C 	0.23380 0.67030 0.24050 0.11700
C 	C 	0.38120 0.68750 0.21990 -0.10900
H 	H 	0.47620 0.66420 0.24410 0.06800
C 	C 	0.09390 0.70570 0.20700 -0.15900
H 	H 	0.99400 0.69390 0.22090 0.10000
C 	C 	0.23160 0.50630 0.73650 0.08800
H 	H 	0.16880 0.47470 0.75430 -0.01400
C 	C 	0.31930 0.57530 0.65240 0.00100
H 	H 	0.32940 0.60080 0.60000 0.01200
C 	C 	0.41920 0.57700 0.74610 -0.00700
H 	H 	0.50810 0.60340 0.76920 0.03800
C 	C 	0.43250 0.51560 0.90140 -0.00100
C 	C 	0.51750 0.55890 0.96690 0.07200
H 	H 	0.52950 0.59870 0.94480 0.02100
C 	C 	0.41450 0.45680 0.93400 0.07000
H 	H 	0.35690 0.42760 0.88980 0.01200
C 	C 	0.38190 0.86650 0.07530 0.08700
H 	H 	0.48300 0.86260 0.12160 -0.01300
C 	C 	0.18780 0.89950 0.95800 0.02700
H 	H 	0.12840 0.92370 0.90600 0.01200
C 	C 	0.12730 0.84870 0.99330 0.02300
H 	H 	0.02220 0.83170 0.97130 0.02800
C 	C 	0.24900 0.77450 0.12980 0.05400
C 	C 	0.38920 0.73970 0.16300 -0.05200
H 	H 	0.48840 0.75090 0.14750 0.04600
C 	C 	0.10130 0.75850 0.15280 -0.03100
H 	H 	0.00780 0.78310 0.13190 0.02700
N 	N 	0.15150 0.54857 0.39820 -0.23900
N 	N 	0.22380 0.61490 0.29470 -0.14600
N 	N 	0.20220 0.53078 0.64670 -0.23300
N 	N 	0.36310 0.53217 0.79970 -0.12100
N 	N 	0.34780 0.91078 0.00880 -0.25400
N 	N 	0.25460 0.82770 0.06890 -0.15100
C 	C 	0.63520 0.89490 0.86290 0.09800
H 	H 	0.56960 0.86520 0.88310 -0.00800
C 	C 	0.75760 0.97940 0.84880 0.06300
H 	H 	0.79310 0.02000 0.85820 -0.00800
C 	C 	0.80270 0.93990 0.78530 -0.02700
H 	H 	0.87300 0.94790 0.74330 0.06000
C 	C 	0.73380 0.82970 0.74050 0.09200
C 	C 	0.88120 0.81250 0.71990 -0.07600
H 	H 	0.97620 0.83580 0.74410 0.06900
C 	C 	0.59390 0.79430 0.70700 -0.07700
H 	H 	0.49400 0.80610 0.72090 0.05900
C 	C 	0.73160 0.99370 0.23650 0.15800
H 	H 	0.66880 0.02530 0.25430 -0.05500
C 	C 	0.81930 0.92470 0.15240 -0.02700
H 	H 	0.82940 0.89920 0.10000 0.02200
C 	C 	0.91920 0.92300 0.24610 0.06200
H 	H 	0.00810 0.89660 0.26920 -0.00600
C 	C 	0.93250 0.98440 0.40140 0.23800
C 	C 	0.01750 0.94110 0.46690 -0.23400
H 	H 	0.02950 0.90130 0.44480 0.10900
C 	C 	0.91450 0.04320 0.43400 -0.23800
H 	H 	0.85690 0.07240 0.38980 0.11200
C 	C 	0.88190 0.63350 0.57530 0.09800
H 	H 	0.98300 0.63740 0.62160 -0.00700
C 	C 	0.68780 0.60050 0.45800 -0.00100
H 	H 	0.62840 0.57630 0.40600 0.01700
C 	C 	0.62730 0.65130 0.49330 -0.00100
H 	H 	0.52220 0.66830 0.47130 0.03200
C 	C 	0.74900 0.72550 0.62980 0.08700
C 	C 	0.88920 0.76030 0.66300 -0.07200
H 	H 	0.98840 0.74910 0.64750 0.06400
C 	C 	0.60130 0.74150 0.65280 -0.07300
H 	H 	0.50780 0.71690 0.63190 0.05600
N 	N 	0.65150 0.95143 0.89820 -0.22900
N 	N 	0.72380 0.88510 0.79470 -0.13200
N 	N 	0.70220 0.96922 0.14670 -0.23200
N 	N 	0.86310 0.96783 0.29970 -0.17400
N 	N 	0.84780 0.58922 0.50880 -0.23200
N 	N 	0.75460 0.67230 0.56890 -0.13700
C 	C 	0.86480 0.39490 0.63710 0.09600
H 	H 	0.93040 0.36520 0.61690 -0.00800
C 	C 	0.74240 0.47940 0.65120 0.00100
H 	H 	0.70690 0.52000 0.64180 0.02200
C 	C 	0.69730 0.43990 0.71470 -0.00100
H 	H 	0.62700 0.44790 0.75670 0.04000
C 	C 	0.76620 0.32970 0.75950 0.05500
C 	C 	0.61880 0.31250 0.78010 -0.04600
H 	H 	0.52380 0.33580 0.75590 0.04900
C 	C 	0.90610 0.29430 0.79300 0.00600
H 	H 	0.00600 0.30610 0.77910 0.01400
C 	C 	0.76840 0.49370 0.26350 0.09800
H 	H 	0.83120 0.52530 0.24570 -0.01400
C 	C 	0.68070 0.42470 0.34760 -0.00100
H 	H 	0.67060 0.39920 0.40000 0.01700
C 	C 	0.58080 0.42300 0.25390 0.00300
H 	H 	0.49190 0.39660 0.23080 0.02400
C 	C 	0.56750 0.48440 0.09860 0.17400
C 	C 	0.48250 0.44110 0.03310 -0.22400
H 	H 	0.47050 0.40130 0.05520 0.10000
C 	C 	0.58550 0.54320 0.06600 -0.22400
H 	H 	0.64310 0.57240 0.11020 0.10300
C 	C 	0.61810 0.13350 0.92470 0.10500
H 	H 	0.51700 0.13740 0.87840 -0.01700
C 	C 	0.81220 0.10050 0.04200 -0.03400
H 	H 	0.87160 0.07630 0.09400 0.02200
C 	C 	0.87270 0.15130 0.00670 -0.03100
H 	H 	0.97780 0.16830 0.02870 0.03800
C 	C 	0.75100 0.22550 0.87020 0.11800
C 	C 	0.61080 0.26030 0.83700 -0.10200
H 	H 	0.51160 0.24910 0.85250 0.07000
C 	C 	0.89870 0.24150 0.84720 -0.12200
H 	H 	0.99220 0.21690 0.86810 0.08800
N 	N 	0.84850 0.45143 0.60180 -0.22900
N 	N 	0.77620 0.38510 0.70530 -0.13000
N 	N 	0.79780 0.46922 0.35330 -0.22400
N 	N 	0.63690 0.46783 0.20030 -0.15400
N 	N 	0.65220 0.08922 0.99120 -0.21200
N 	N 	0.74540 0.17230 0.93110 -0.12300
Cd	Cd	0.50000 0.00000 -0.00000 1.16700
Cd	Cd	0.00000 0.50000 0.50000 1.18100
