data_crystal

_cell_length_a 17.10800
_cell_length_b 21.64400
_cell_length_c 25.25800
_cell_angle_alpha 90.00000
_cell_angle_beta  90.00000
_cell_angle_gamma 90.00000

_symmetry_space_group_name_	'P 1'
_symmetry_space_group_name_H-M	'P 1'

loop_
_symmetry_equiv_pos_as_xyz
  x,y,z

loop_
_atom_site_label
_atom_site_type_symbol
_atom_site_fract_x
_atom_site_fract_y
_atom_site_fract_z
_atom_site_charge
Na	Na	0.89610 0.25000 0.71060 0.56200
Na	Na	0.60390 0.75000 0.21060 0.56200
Na	Na	0.78480 0.75000 0.26510 0.54000
Na	Na	0.71520 0.25000 0.76510 0.54000
Zn	Zn	0.99284 0.83462 0.38424 1.22700
Zn	Zn	0.50716 0.16538 0.88424 1.22700
Zn	Zn	0.99284 0.66538 0.38424 1.22700
Zn	Zn	0.50716 0.33462 0.88424 1.22700
Zn	Zn	0.88078 0.75000 0.31365 1.17300
Zn	Zn	0.61922 0.25000 0.81365 1.17300
H 	H 	0.85200 0.37890 0.68590 -0.07700
H 	H 	0.81440 0.53080 0.69390 0.14300
H 	H 	0.73660 0.51120 0.66570 0.14000
H 	H 	0.81630 0.48170 0.64830 0.14800
H 	H 	0.71630 0.43220 0.78270 0.13900
H 	H 	0.70200 0.49660 0.75600 0.13900
H 	H 	0.77980 0.48410 0.78710 0.13400
H 	H 	0.64800 0.62110 0.18590 -0.07700
H 	H 	0.68560 0.46920 0.19390 0.14300
H 	H 	0.76340 0.48880 0.16570 0.14000
H 	H 	0.68370 0.51830 0.14830 0.14800
H 	H 	0.78370 0.56780 0.28270 0.13900
H 	H 	0.79800 0.50340 0.25600 0.13900
H 	H 	0.72020 0.51590 0.28710 0.13400
H 	H 	0.88320 0.04000 0.07680 0.06200
H 	H 	0.02400 0.12220 0.97190 0.06400
H 	H 	0.11600 0.03400 0.09590 0.06400
H 	H 	0.89810 0.94050 0.11400 0.07900
H 	H 	0.88720 0.87470 0.18400 0.00700
H 	H 	0.06110 0.96230 0.25820 0.01900
H 	H 	0.07160 0.02880 0.18710 0.06800
H 	H 	0.79890 0.11420 0.05290 0.07100
H 	H 	0.68730 0.13990 0.00770 0.02300
H 	H 	0.80960 0.13800 0.87230 0.00200
H 	H 	0.91960 0.10670 0.91680 0.07700
H 	H 	0.14950 0.17360 0.97950 0.06500
H 	H 	0.27350 0.18440 0.94160 0.02600
H 	H 	0.32940 0.01420 0.98920 0.03600
H 	H 	0.20720 0.00590 0.02940 0.07200
H 	H 	0.61680 0.96000 0.57680 0.06100
H 	H 	0.47600 0.87780 0.47190 0.06400
H 	H 	0.38400 0.96600 0.59590 0.06300
H 	H 	0.60190 0.05950 0.61400 0.08100
H 	H 	0.61280 0.12530 0.68400 0.00600
H 	H 	0.43890 0.03770 0.75820 0.01700
H 	H 	0.42840 0.97120 0.68710 0.07200
H 	H 	0.70110 0.88580 0.55290 0.06900
H 	H 	0.81270 0.86010 0.50770 0.02500
H 	H 	0.69040 0.86200 0.37230 0.00300
H 	H 	0.58040 0.89330 0.41680 0.07500
H 	H 	0.35050 0.82640 0.47950 0.06500
H 	H 	0.22650 0.81560 0.44160 0.02600
H 	H 	0.17060 0.98580 0.48920 0.03700
H 	H 	0.29280 0.99410 0.52940 0.07300
H 	H 	0.88320 0.46000 0.07680 0.06000
H 	H 	0.02400 0.37780 0.97190 0.06300
H 	H 	0.11600 0.46600 0.09590 0.06300
H 	H 	0.89810 0.55950 0.11400 0.08100
H 	H 	0.88720 0.62530 0.18400 0.00500
H 	H 	0.06110 0.53770 0.25820 0.01700
H 	H 	0.07160 0.47120 0.18710 0.07200
H 	H 	0.79890 0.38580 0.05290 0.07000
H 	H 	0.68730 0.36010 0.00770 0.02300
H 	H 	0.80960 0.36200 0.87230 0.00200
H 	H 	0.91960 0.39330 0.91680 0.07600
H 	H 	0.14950 0.32640 0.97950 0.06500
H 	H 	0.27350 0.31560 0.94160 0.02500
H 	H 	0.32940 0.48580 0.98920 0.03600
H 	H 	0.20720 0.49410 0.02940 0.07300
H 	H 	0.61680 0.54000 0.57680 0.06100
H 	H 	0.47600 0.62220 0.47190 0.06400
H 	H 	0.38400 0.53400 0.59590 0.06300
H 	H 	0.60190 0.44050 0.61400 0.08100
H 	H 	0.61280 0.37470 0.68400 0.00600
H 	H 	0.43890 0.46230 0.75820 0.01700
H 	H 	0.42840 0.52880 0.68710 0.07200
H 	H 	0.70110 0.61420 0.55290 0.06900
H 	H 	0.81270 0.63990 0.50770 0.02500
H 	H 	0.69040 0.63800 0.37230 0.00300
H 	H 	0.58040 0.60670 0.41680 0.07500
H 	H 	0.35050 0.67360 0.47950 0.06500
H 	H 	0.22650 0.68440 0.44160 0.02600
H 	H 	0.17060 0.51420 0.48920 0.03600
H 	H 	0.29280 0.50590 0.52940 0.07300
H 	H 	0.85200 0.12110 0.68590 -0.07700
H 	H 	0.81440 0.96920 0.69390 0.14100
H 	H 	0.73660 0.98880 0.66570 0.13800
H 	H 	0.81630 0.01830 0.64830 0.14600
H 	H 	0.71630 0.06780 0.78270 0.13900
H 	H 	0.70200 0.00340 0.75600 0.13900
H 	H 	0.77980 0.01590 0.78710 0.13400
H 	H 	0.64800 0.87890 0.18590 -0.07700
H 	H 	0.68560 0.03080 0.19390 0.14400
H 	H 	0.76340 0.01120 0.16570 0.14000
H 	H 	0.68370 0.98170 0.14830 0.14800
H 	H 	0.78370 0.93220 0.28270 0.13900
H 	H 	0.79800 0.99660 0.25600 0.13900
H 	H 	0.72020 0.98410 0.28710 0.13300
C 	C 	0.80920 0.37990 0.70900 0.28500
C 	C 	0.78700 0.49700 0.67800 -0.37800
C 	C 	0.74070 0.46600 0.76460 -0.35500
C 	C 	0.69080 0.62010 0.20900 0.28500
C 	C 	0.71300 0.50300 0.17800 -0.37800
C 	C 	0.75930 0.53400 0.26460 -0.35500
C 	C 	0.99860 0.02950 0.09450 0.03100
C 	C 	0.93340 0.04990 0.06540 -0.10100
C 	C 	0.94310 0.08440 0.02000 0.03700
C 	C 	0.01780 0.09830 0.00220 -0.10700
C 	C 	0.08280 0.07730 0.02860 0.03900
C 	C 	0.07230 0.04510 0.07620 -0.10400
C 	C 	0.98790 0.98880 0.14130 0.05700
C 	C 	0.93200 0.94470 0.14250 -0.14700
C 	C 	0.92450 0.90600 0.18490 0.06900
C 	C 	0.97140 0.91250 0.22920 -0.15300
C 	C 	0.02800 0.95790 0.22930 0.05800
C 	C 	0.03520 0.99700 0.18630 -0.12900
C 	C 	0.87270 0.10720 0.99080 0.05500
C 	C 	0.80110 0.11820 0.01630 -0.12900
C 	C 	0.73420 0.13470 0.98970 0.06100
C 	C 	0.73810 0.14350 0.93430 -0.15100
C 	C 	0.80730 0.13270 0.90880 0.07100
C 	C 	0.87380 0.11440 0.93550 -0.13700
C 	C 	0.16340 0.08830 0.00660 0.04200
C 	C 	0.18500 0.14120 0.98190 -0.11300
C 	C 	0.26070 0.14830 0.95950 0.03700
C 	C 	0.31390 0.10280 0.96420 -0.11300
C 	C 	0.29420 0.04700 0.98830 0.03000
C 	C 	0.21970 0.04170 0.01090 -0.10900
C 	C 	0.96270 0.86860 0.27540 0.38700
C 	C 	0.66540 0.16170 0.90540 0.41100
C 	C 	0.39540 0.11070 0.93900 0.38400
C 	C 	0.50140 0.97050 0.59450 0.02600
C 	C 	0.56660 0.95010 0.56540 -0.10000
C 	C 	0.55690 0.91560 0.52000 0.03700
C 	C 	0.48220 0.90170 0.50220 -0.10500
C 	C 	0.41720 0.92270 0.52860 0.03800
C 	C 	0.42770 0.95490 0.57620 -0.10100
C 	C 	0.51210 0.01120 0.64130 0.06400
C 	C 	0.56800 0.05530 0.64250 -0.15100
C 	C 	0.57550 0.09400 0.68490 0.07200
C 	C 	0.52860 0.08750 0.72920 -0.15400
C 	C 	0.47200 0.04210 0.72930 0.06100
C 	C 	0.46480 0.00300 0.68630 -0.13700
C 	C 	0.62730 0.89280 0.49080 0.05100
C 	C 	0.69890 0.88180 0.51630 -0.12300
C 	C 	0.76580 0.86530 0.48970 0.05600
C 	C 	0.76190 0.85650 0.43430 -0.14900
C 	C 	0.69270 0.86730 0.40880 0.06800
C 	C 	0.62620 0.88560 0.43550 -0.13500
C 	C 	0.33660 0.91170 0.50660 0.04300
C 	C 	0.31500 0.85880 0.48190 -0.11300
C 	C 	0.23930 0.85170 0.45950 0.03800
C 	C 	0.18610 0.89720 0.46420 -0.11300
C 	C 	0.20580 0.95300 0.48830 0.03000
C 	C 	0.28030 0.95830 0.51090 -0.10900
C 	C 	0.53730 0.13140 0.77540 0.38700
C 	C 	0.83460 0.83830 0.40540 0.41000
C 	C 	0.10460 0.88930 0.43900 0.38400
C 	C 	0.99860 0.47050 0.09450 0.02500
C 	C 	0.93340 0.45010 0.06540 -0.09800
C 	C 	0.94310 0.41560 0.02000 0.03400
C 	C 	0.01780 0.40170 0.00220 -0.10300
C 	C 	0.08280 0.42270 0.02860 0.03600
C 	C 	0.07230 0.45490 0.07620 -0.10000
C 	C 	0.98790 0.51120 0.14130 0.06400
C 	C 	0.93200 0.55530 0.14250 -0.15200
C 	C 	0.92450 0.59400 0.18490 0.07300
C 	C 	0.97140 0.58750 0.22920 -0.15500
C 	C 	0.02800 0.54210 0.22930 0.06200
C 	C 	0.03520 0.50300 0.18630 -0.13800
C 	C 	0.87270 0.39280 0.99080 0.05400
C 	C 	0.80110 0.38180 0.01630 -0.12700
C 	C 	0.73420 0.36530 0.98970 0.05900
C 	C 	0.73810 0.35650 0.93430 -0.15100
C 	C 	0.80730 0.36730 0.90880 0.07000
C 	C 	0.87380 0.38560 0.93550 -0.13700
C 	C 	0.16340 0.41170 0.00660 0.04400
C 	C 	0.18500 0.35880 0.98190 -0.11400
C 	C 	0.26070 0.35170 0.95950 0.03800
C 	C 	0.31390 0.39720 0.96420 -0.11400
C 	C 	0.29420 0.45300 0.98830 0.03000
C 	C 	0.21970 0.45830 0.01090 -0.10900
C 	C 	0.96270 0.63140 0.27540 0.38800
C 	C 	0.66540 0.33830 0.90540 0.41000
C 	C 	0.39540 0.38930 0.93900 0.38400
C 	C 	0.50140 0.52950 0.59450 0.02700
C 	C 	0.56660 0.54990 0.56540 -0.10000
C 	C 	0.55690 0.58440 0.52000 0.03700
C 	C 	0.48220 0.59830 0.50220 -0.10500
C 	C 	0.41720 0.57730 0.52860 0.03800
C 	C 	0.42770 0.54510 0.57620 -0.10100
C 	C 	0.51210 0.48880 0.64130 0.06400
C 	C 	0.56800 0.44470 0.64250 -0.15100
C 	C 	0.57550 0.40600 0.68490 0.07200
C 	C 	0.52860 0.41250 0.72920 -0.15400
C 	C 	0.47200 0.45790 0.72930 0.06100
C 	C 	0.46480 0.49700 0.68630 -0.13700
C 	C 	0.62730 0.60720 0.49080 0.05100
C 	C 	0.69890 0.61820 0.51630 -0.12300
C 	C 	0.76580 0.63470 0.48970 0.05600
C 	C 	0.76190 0.64350 0.43430 -0.14900
C 	C 	0.69270 0.63270 0.40880 0.06800
C 	C 	0.62620 0.61440 0.43550 -0.13400
C 	C 	0.33660 0.58830 0.50660 0.04300
C 	C 	0.31500 0.64120 0.48190 -0.11300
C 	C 	0.23930 0.64830 0.45950 0.03800
C 	C 	0.18610 0.60280 0.46420 -0.11300
C 	C 	0.20580 0.54700 0.48830 0.03000
C 	C 	0.28030 0.54170 0.51090 -0.10900
C 	C 	0.53730 0.36860 0.77540 0.38700
C 	C 	0.83460 0.66170 0.40540 0.41000
C 	C 	0.10460 0.61070 0.43900 0.38400
C 	C 	0.80920 0.12010 0.70900 0.28500
C 	C 	0.78700 0.00300 0.67800 -0.37200
C 	C 	0.74070 0.03400 0.76460 -0.35500
C 	C 	0.69080 0.87990 0.20900 0.28500
C 	C 	0.71300 0.99700 0.17800 -0.37900
C 	C 	0.75930 0.96600 0.26460 -0.35500
N 	N 	0.77540 0.44500 0.71860 -0.05900
N 	N 	0.72460 0.55500 0.21860 -0.05900
N 	N 	0.77540 0.05500 0.71860 -0.05900
N 	N 	0.72460 0.94500 0.21860 -0.05900
O 	O 	0.79100 0.33400 0.72400 -0.42900
O 	O 	0.70900 0.66600 0.22400 -0.42900
O 	O 	0.99460 0.88430 0.31900 -0.48700
O 	O 	0.92630 0.81920 0.26660 -0.52300
O 	O 	0.44120 0.06570 0.94020 -0.31300
O 	O 	0.40780 0.15950 0.91900 -0.50700
O 	O 	0.67540 0.18270 0.85970 -0.52400
O 	O 	0.60090 0.15410 0.92800 -0.48600
O 	O 	0.50540 0.11570 0.81900 -0.48600
O 	O 	0.57370 0.18080 0.76660 -0.52300
O 	O 	0.05880 0.93430 0.44020 -0.31300
O 	O 	0.09220 0.84050 0.41900 -0.50700
O 	O 	0.82460 0.81730 0.35970 -0.52300
O 	O 	0.89910 0.84590 0.42800 -0.48600
O 	O 	0.99460 0.61570 0.31900 -0.48600
O 	O 	0.92630 0.68080 0.26660 -0.52300
O 	O 	0.44120 0.43430 0.94020 -0.31300
O 	O 	0.40780 0.34050 0.91900 -0.50700
O 	O 	0.67540 0.31730 0.85970 -0.52400
O 	O 	0.60090 0.34590 0.92800 -0.48600
O 	O 	0.50540 0.38430 0.81900 -0.48600
O 	O 	0.57370 0.31920 0.76660 -0.52300
O 	O 	0.05880 0.56570 0.44020 -0.31300
O 	O 	0.09220 0.65950 0.41900 -0.50700
O 	O 	0.82460 0.68270 0.35970 -0.52300
O 	O 	0.89910 0.65410 0.42800 -0.48600
O 	O 	0.79100 0.16600 0.72400 -0.42900
O 	O 	0.70900 0.83400 0.22400 -0.42900
O 	O 	0.98530 0.75000 0.35590 -0.73000
O 	O 	0.51470 0.25000 0.85590 -0.73000
Na	Na	0.21520 0.25000 0.73490 0.53900
Na	Na	0.28480 0.75000 0.23490 0.53900
Na	Na	0.10390 0.75000 0.28940 0.56100
Na	Na	0.39610 0.25000 0.78940 0.56100
Zn	Zn	0.00716 0.33462 0.61576 1.22700
Zn	Zn	0.49284 0.66538 0.11576 1.22700
Zn	Zn	0.00716 0.16538 0.61576 1.22700
Zn	Zn	0.49284 0.83462 0.11576 1.22700
Zn	Zn	0.11922 0.25000 0.68635 1.17300
Zn	Zn	0.38078 0.75000 0.18635 1.17300
H 	H 	0.11680 0.54000 0.92320 0.06000
H 	H 	0.97600 0.62220 0.02810 0.06300
H 	H 	0.88400 0.53400 0.90410 0.06300
H 	H 	0.10190 0.44050 0.88600 0.08100
H 	H 	0.11280 0.37470 0.81600 0.00500
H 	H 	0.93890 0.46230 0.74180 0.01700
H 	H 	0.92840 0.52880 0.81290 0.07200
H 	H 	0.20110 0.61420 0.94710 0.07000
H 	H 	0.31270 0.63990 0.99230 0.02300
H 	H 	0.19040 0.63800 0.12770 0.00200
H 	H 	0.08040 0.60670 0.08320 0.07600
H 	H 	0.85050 0.67360 0.02050 0.06500
H 	H 	0.72650 0.68440 0.05840 0.02500
H 	H 	0.67060 0.51420 0.01080 0.03600
H 	H 	0.79280 0.50590 0.97060 0.07300
H 	H 	0.38320 0.46000 0.42320 0.06100
H 	H 	0.52400 0.37780 0.52810 0.06400
H 	H 	0.61600 0.46600 0.40410 0.06300
H 	H 	0.39810 0.55950 0.38600 0.08100
H 	H 	0.38720 0.62530 0.31600 0.00600
H 	H 	0.56110 0.53770 0.24180 0.01700
H 	H 	0.57160 0.47120 0.31290 0.07200
H 	H 	0.29890 0.38580 0.44710 0.06900
H 	H 	0.18730 0.36010 0.49230 0.02500
H 	H 	0.30960 0.36200 0.62770 0.00300
H 	H 	0.41960 0.39330 0.58320 0.07500
H 	H 	0.64950 0.32640 0.52050 0.06500
H 	H 	0.77350 0.31560 0.55840 0.02600
H 	H 	0.82940 0.48580 0.51080 0.03600
H 	H 	0.70720 0.49410 0.47060 0.07300
H 	H 	0.14800 0.87890 0.31410 -0.07700
H 	H 	0.18560 0.03080 0.30610 0.14100
H 	H 	0.26340 0.01120 0.33430 0.13800
H 	H 	0.18370 0.98170 0.35170 0.14600
H 	H 	0.28370 0.93220 0.21730 0.13900
H 	H 	0.29800 0.99660 0.24400 0.13900
H 	H 	0.22020 0.98410 0.21290 0.13400
H 	H 	0.35200 0.12110 0.81410 -0.07700
H 	H 	0.31440 0.96920 0.80610 0.14400
H 	H 	0.23660 0.98880 0.83430 0.14000
H 	H 	0.31630 0.01830 0.85170 0.14800
H 	H 	0.21630 0.06780 0.71730 0.13900
H 	H 	0.20200 0.00340 0.74400 0.13900
H 	H 	0.27980 0.01590 0.71290 0.13300
H 	H 	0.14800 0.62110 0.31410 -0.07700
H 	H 	0.18560 0.46920 0.30610 0.14300
H 	H 	0.26340 0.48880 0.33430 0.14000
H 	H 	0.18370 0.51830 0.35170 0.14800
H 	H 	0.28370 0.56780 0.21730 0.13900
H 	H 	0.29800 0.50340 0.24400 0.13900
H 	H 	0.22020 0.51590 0.21290 0.13400
H 	H 	0.35200 0.37890 0.81410 -0.07700
H 	H 	0.31440 0.53080 0.80610 0.14300
H 	H 	0.23660 0.51120 0.83430 0.14000
H 	H 	0.31630 0.48170 0.85170 0.14800
H 	H 	0.21630 0.43220 0.71730 0.13900
H 	H 	0.20200 0.49660 0.74400 0.13900
H 	H 	0.27980 0.48410 0.71290 0.13400
H 	H 	0.11680 0.96000 0.92320 0.06200
H 	H 	0.97600 0.87780 0.02810 0.06400
H 	H 	0.88400 0.96600 0.90410 0.06400
H 	H 	0.10190 0.05950 0.88600 0.07900
H 	H 	0.11280 0.12530 0.81600 0.00700
H 	H 	0.93890 0.03770 0.74180 0.01900
H 	H 	0.92840 0.97120 0.81290 0.06800
H 	H 	0.20110 0.88580 0.94710 0.07100
H 	H 	0.31270 0.86010 0.99230 0.02300
H 	H 	0.19040 0.86200 0.12770 0.00200
H 	H 	0.08040 0.89330 0.08320 0.07700
H 	H 	0.85050 0.82640 0.02050 0.06500
H 	H 	0.72650 0.81560 0.05840 0.02600
H 	H 	0.67060 0.98580 0.01080 0.03600
H 	H 	0.79280 0.99410 0.97060 0.07200
H 	H 	0.38320 0.04000 0.42320 0.06100
H 	H 	0.52400 0.12220 0.52810 0.06400
H 	H 	0.61600 0.03400 0.40410 0.06300
H 	H 	0.39810 0.94050 0.38600 0.08100
H 	H 	0.38720 0.87470 0.31600 0.00600
H 	H 	0.56110 0.96230 0.24180 0.01700
H 	H 	0.57160 0.02880 0.31290 0.07200
H 	H 	0.29890 0.11420 0.44710 0.06900
H 	H 	0.18730 0.13990 0.49230 0.02500
H 	H 	0.30960 0.13800 0.62770 0.00300
H 	H 	0.41960 0.10670 0.58320 0.07500
H 	H 	0.64950 0.17360 0.52050 0.06500
H 	H 	0.77350 0.18440 0.55840 0.02600
H 	H 	0.82940 0.01420 0.51080 0.03700
H 	H 	0.70720 0.00590 0.47060 0.07300
C 	C 	0.00140 0.52950 0.90550 0.02500
C 	C 	0.06660 0.54990 0.93460 -0.09800
C 	C 	0.05690 0.58440 0.98000 0.03400
C 	C 	0.98220 0.59830 0.99780 -0.10300
C 	C 	0.91720 0.57730 0.97140 0.03600
C 	C 	0.92770 0.54510 0.92380 -0.10000
C 	C 	0.01210 0.48880 0.85870 0.06400
C 	C 	0.06800 0.44470 0.85750 -0.15200
C 	C 	0.07550 0.40600 0.81510 0.07300
C 	C 	0.02860 0.41250 0.77080 -0.15500
C 	C 	0.97200 0.45790 0.77070 0.06200
C 	C 	0.96480 0.49700 0.81370 -0.13800
C 	C 	0.12730 0.60720 0.00920 0.05400
C 	C 	0.19890 0.61820 0.98370 -0.12700
C 	C 	0.26580 0.63470 0.01030 0.05900
C 	C 	0.26190 0.64350 0.06570 -0.15100
C 	C 	0.19270 0.63270 0.09120 0.07000
C 	C 	0.12620 0.61440 0.06450 -0.13700
C 	C 	0.83660 0.58830 0.99340 0.04400
C 	C 	0.81500 0.64120 0.01810 -0.11400
C 	C 	0.73930 0.64830 0.04050 0.03800
C 	C 	0.68610 0.60280 0.03580 -0.11400
C 	C 	0.70580 0.54700 0.01170 0.03000
C 	C 	0.78030 0.54170 0.98910 -0.10900
C 	C 	0.03730 0.36860 0.72460 0.38800
C 	C 	0.33460 0.66170 0.09460 0.41000
C 	C 	0.60460 0.61070 0.06100 0.38400
C 	C 	0.49860 0.47050 0.40550 0.02700
C 	C 	0.43340 0.45010 0.43460 -0.10000
C 	C 	0.44310 0.41560 0.48000 0.03700
C 	C 	0.51780 0.40170 0.49780 -0.10500
C 	C 	0.58280 0.42270 0.47140 0.03800
C 	C 	0.57230 0.45490 0.42380 -0.10100
C 	C 	0.48790 0.51120 0.35870 0.06400
C 	C 	0.43200 0.55530 0.35750 -0.15100
C 	C 	0.42450 0.59400 0.31510 0.07200
C 	C 	0.47140 0.58750 0.27080 -0.15400
C 	C 	0.52800 0.54210 0.27070 0.06100
C 	C 	0.53520 0.50300 0.31370 -0.13700
C 	C 	0.37270 0.39280 0.50920 0.05100
C 	C 	0.30110 0.38180 0.48370 -0.12300
C 	C 	0.23420 0.36530 0.51030 0.05600
C 	C 	0.23810 0.35650 0.56570 -0.14900
C 	C 	0.30730 0.36730 0.59120 0.06800
C 	C 	0.37380 0.38560 0.56450 -0.13400
C 	C 	0.66340 0.41170 0.49340 0.04300
C 	C 	0.68500 0.35880 0.51810 -0.11300
C 	C 	0.76070 0.35170 0.54050 0.03800
C 	C 	0.81390 0.39720 0.53580 -0.11300
C 	C 	0.79420 0.45300 0.51170 0.03000
C 	C 	0.71970 0.45830 0.48910 -0.10900
C 	C 	0.46270 0.63140 0.22460 0.38700
C 	C 	0.16540 0.33830 0.59460 0.41000
C 	C 	0.89540 0.38930 0.56100 0.38400
C 	C 	0.19080 0.87990 0.29100 0.28500
C 	C 	0.21300 0.99700 0.32200 -0.37200
C 	C 	0.25930 0.96600 0.23540 -0.35500
C 	C 	0.30920 0.12010 0.79100 0.28500
C 	C 	0.28700 0.00300 0.82200 -0.37900
C 	C 	0.24070 0.03400 0.73540 -0.35500
C 	C 	0.19080 0.62010 0.29100 0.28500
C 	C 	0.21300 0.50300 0.32200 -0.37800
C 	C 	0.25930 0.53400 0.23540 -0.35500
C 	C 	0.30920 0.37990 0.79100 0.28500
C 	C 	0.28700 0.49700 0.82200 -0.37800
C 	C 	0.24070 0.46600 0.73540 -0.35500
C 	C 	0.00140 0.97050 0.90550 0.03100
C 	C 	0.06660 0.95010 0.93460 -0.10100
C 	C 	0.05690 0.91560 0.98000 0.03700
C 	C 	0.98220 0.90170 0.99780 -0.10700
C 	C 	0.91720 0.92270 0.97140 0.03900
C 	C 	0.92770 0.95490 0.92380 -0.10400
C 	C 	0.01210 0.01120 0.85870 0.05700
C 	C 	0.06800 0.05530 0.85750 -0.14700
C 	C 	0.07550 0.09400 0.81510 0.06900
C 	C 	0.02860 0.08750 0.77080 -0.15300
C 	C 	0.97200 0.04210 0.77070 0.05800
C 	C 	0.96480 0.00300 0.81370 -0.12900
C 	C 	0.12730 0.89280 0.00920 0.05500
C 	C 	0.19890 0.88180 0.98370 -0.12900
C 	C 	0.26580 0.86530 0.01030 0.06100
C 	C 	0.26190 0.85650 0.06570 -0.15100
C 	C 	0.19270 0.86730 0.09120 0.07100
C 	C 	0.12620 0.88560 0.06450 -0.13700
C 	C 	0.83660 0.91170 0.99340 0.04200
C 	C 	0.81500 0.85880 0.01810 -0.11300
C 	C 	0.73930 0.85170 0.04050 0.03700
C 	C 	0.68610 0.89720 0.03580 -0.11300
C 	C 	0.70580 0.95300 0.01170 0.03000
C 	C 	0.78030 0.95830 0.98910 -0.10900
C 	C 	0.03730 0.13140 0.72460 0.38700
C 	C 	0.33460 0.83830 0.09460 0.41100
C 	C 	0.60460 0.88930 0.06100 0.38400
C 	C 	0.49860 0.02950 0.40550 0.02600
C 	C 	0.43340 0.04990 0.43460 -0.10000
C 	C 	0.44310 0.08440 0.48000 0.03700
C 	C 	0.51780 0.09830 0.49780 -0.10500
C 	C 	0.58280 0.07730 0.47140 0.03800
C 	C 	0.57230 0.04510 0.42380 -0.10100
C 	C 	0.48790 0.98880 0.35870 0.06400
C 	C 	0.43200 0.94470 0.35750 -0.15100
C 	C 	0.42450 0.90600 0.31510 0.07200
C 	C 	0.47140 0.91250 0.27080 -0.15400
C 	C 	0.52800 0.95790 0.27070 0.06100
C 	C 	0.53520 0.99700 0.31370 -0.13700
C 	C 	0.37270 0.10720 0.50920 0.05100
C 	C 	0.30110 0.11820 0.48370 -0.12300
C 	C 	0.23420 0.13470 0.51030 0.05600
C 	C 	0.23810 0.14350 0.56570 -0.14900
C 	C 	0.30730 0.13270 0.59120 0.06800
C 	C 	0.37380 0.11440 0.56450 -0.13500
C 	C 	0.66340 0.08830 0.49340 0.04300
C 	C 	0.68500 0.14120 0.51810 -0.11300
C 	C 	0.76070 0.14830 0.54050 0.03800
C 	C 	0.81390 0.10280 0.53580 -0.11300
C 	C 	0.79420 0.04700 0.51170 0.03000
C 	C 	0.71970 0.04170 0.48910 -0.10900
C 	C 	0.46270 0.86860 0.22460 0.38700
C 	C 	0.16540 0.16170 0.59460 0.41000
C 	C 	0.89540 0.11070 0.56100 0.38400
N 	N 	0.22460 0.94500 0.28140 -0.05900
N 	N 	0.27540 0.05500 0.78140 -0.05900
N 	N 	0.22460 0.55500 0.28140 -0.05900
N 	N 	0.27540 0.44500 0.78140 -0.05900
O 	O 	0.00540 0.38430 0.68100 -0.48600
O 	O 	0.07370 0.31920 0.73340 -0.52300
O 	O 	0.55880 0.56570 0.05980 -0.31300
O 	O 	0.59220 0.65950 0.08100 -0.50700
O 	O 	0.32460 0.68270 0.14030 -0.52400
O 	O 	0.39910 0.65410 0.07200 -0.48600
O 	O 	0.49460 0.61570 0.18100 -0.48600
O 	O 	0.42630 0.68080 0.23340 -0.52300
O 	O 	0.94120 0.43430 0.55980 -0.31300
O 	O 	0.90780 0.34050 0.58100 -0.50700
O 	O 	0.17540 0.31730 0.64030 -0.52300
O 	O 	0.10090 0.34590 0.57200 -0.48600
O 	O 	0.20900 0.83400 0.27600 -0.42900
O 	O 	0.29100 0.16600 0.77600 -0.42900
O 	O 	0.20900 0.66600 0.27600 -0.42900
O 	O 	0.29100 0.33400 0.77600 -0.42900
O 	O 	0.00540 0.11570 0.68100 -0.48700
O 	O 	0.07370 0.18080 0.73340 -0.52300
O 	O 	0.55880 0.93430 0.05980 -0.31300
O 	O 	0.59220 0.84050 0.08100 -0.50700
O 	O 	0.32460 0.81730 0.14030 -0.52400
O 	O 	0.39910 0.84590 0.07200 -0.48600
O 	O 	0.49460 0.88430 0.18100 -0.48600
O 	O 	0.42630 0.81920 0.23340 -0.52300
O 	O 	0.94120 0.06570 0.55980 -0.31300
O 	O 	0.90780 0.15950 0.58100 -0.50700
O 	O 	0.17540 0.18270 0.64030 -0.52300
O 	O 	0.10090 0.15410 0.57200 -0.48600
O 	O 	0.01470 0.25000 0.64410 -0.73000
O 	O 	0.48530 0.75000 0.14410 -0.73000
