data_crystal

_cell_length_a 18.07200
_cell_length_b 21.78500
_cell_length_c 12.67320
_cell_angle_alpha 90.00000
_cell_angle_beta  90.00000
_cell_angle_gamma 90.00000

_symmetry_space_group_name_	'P 1'
_symmetry_space_group_name_H-M	'P 1'

loop_
_symmetry_equiv_pos_as_xyz
  x,y,z

loop_
_atom_site_label
_atom_site_type_symbol
_atom_site_fract_x
_atom_site_fract_y
_atom_site_fract_z
_atom_site_charge
Co	Co	0.33838 0.72868 0.03295 1.15800
Co	Co	0.17469 0.72211 0.02650 1.15200
S 	S 	0.24530 0.60635 0.39340 0.26800
S 	S 	0.20862 0.83997 0.67660 0.27100
N 	N 	0.44380 0.75810 0.05290 -0.25100
N 	N 	0.56290 0.79020 0.04180 -0.30600
N 	N 	0.46040 0.79840 0.13570 -0.11900
N 	N 	0.51450 0.72810 0.90450 -0.36000
H 	H 	0.47790 0.70840 0.87730 0.18200
H 	H 	0.55630 0.72930 0.87230 0.18200
N 	N 	0.56530 0.85140 0.19690 -0.34900
H 	H 	0.54170 0.86640 0.24990 0.17800
H 	H 	0.61130 0.86020 0.18780 0.18900
O 	O 	0.21060 0.30930 0.50280 -0.46600
O 	O 	0.17890 0.14090 0.57420 -0.44400
O 	O 	0.34490 0.70410 0.87680 -0.41400
O 	O 	0.31930 0.75200 0.19370 -0.38800
O 	O 	0.22270 0.69500 0.89370 -0.46500
O 	O 	0.19520 0.74670 0.17510 -0.44900
O 	O 	0.33170 0.31050 0.47220 -0.42300
O 	O 	0.30260 0.13210 0.57960 -0.42500
O 	O 	0.17180 0.62120 0.35980 -0.22800
O 	O 	0.30620 0.62630 0.33130 -0.21300
O 	O 	0.13340 0.82650 0.70880 -0.22100
O 	O 	0.26940 0.81990 0.74030 -0.21400
C 	C 	0.28080 0.69260 0.84120 0.39700
C 	C 	0.27340 0.67470 0.72800 -0.10900
C 	C 	0.20390 0.66070 0.68880 0.04300
H 	H 	0.16260 0.66430 0.73200 0.03500
C 	C 	0.19570 0.64130 0.58490 -0.09200
H 	H 	0.14920 0.63220 0.55790 0.07500
C 	C 	0.25640 0.63590 0.52430 0.02200
C 	C 	0.32560 0.64990 0.55810 -0.09000
H 	H 	0.36610 0.64670 0.51310 0.07600
C 	C 	0.33430 0.66970 0.66360 0.04000
H 	H 	0.38110 0.67920 0.68930 0.03500
C 	C 	0.25240 0.52440 0.41040 0.02200
C 	C 	0.19060 0.49360 0.43850 -0.09500
H 	H 	0.14570 0.51410 0.44520 0.07300
C 	C 	0.19530 0.43160 0.45680 0.04200
H 	H 	0.15310 0.40940 0.47450 0.03500
C 	C 	0.26290 0.40210 0.44910 -0.11100
C 	C 	0.32510 0.43580 0.41900 0.04200
H 	H 	0.37040 0.41620 0.41130 0.03800
C 	C 	0.31990 0.49770 0.40060 -0.09300
H 	H 	0.36130 0.52060 0.38200 0.07700
C 	C 	0.26920 0.33590 0.47600 0.39500
C 	C 	0.25340 0.75570 0.22760 0.36200
C 	C 	0.24120 0.77550 0.34190 -0.07600
C 	C 	0.30110 0.79180 0.40340 0.01300
H 	H 	0.34840 0.79140 0.37450 0.04700
C 	C 	0.29180 0.80850 0.50590 -0.06700
H 	H 	0.33250 0.81780 0.54780 0.06600
C 	C 	0.22110 0.81160 0.54700 -0.00000
C 	C 	0.16030 0.79550 0.48520 -0.06600
H 	H 	0.11270 0.79820 0.51270 0.06700
C 	C 	0.17090 0.77540 0.38300 0.01400
H 	H 	0.13110 0.76210 0.34250 0.04800
C 	C 	0.21600 0.92040 0.65660 0.00700
C 	C 	0.28430 0.94810 0.66800 -0.07600
H 	H 	0.32520 0.92530 0.68930 0.07100
C 	C 	0.29090 0.01030 0.64710 0.02500
H 	H 	0.33650 0.02950 0.65510 0.03800
C 	C 	0.23110 0.04370 0.61500 -0.09000
C 	C 	0.16210 0.01610 0.60670 0.01800
H 	H 	0.12050 0.03870 0.58800 0.04300
C 	C 	0.15730 0.95290 0.62750 -0.07400
H 	H 	0.11180 0.93330 0.62070 0.06800
C 	C 	0.23770 0.11180 0.58890 0.38300
C 	C 	0.50610 0.75740 0.99800 0.27300
C 	C 	0.53080 0.81470 0.12900 0.21200
Co	Co	0.66162 0.27132 0.53295 1.16600
Co	Co	0.82531 0.27789 0.52650 1.16500
S 	S 	0.75470 0.39365 0.89340 0.30400
S 	S 	0.79138 0.16003 0.17660 0.29500
N 	N 	0.55620 0.24190 0.55290 -0.22500
N 	N 	0.43710 0.20980 0.54180 -0.28100
N 	N 	0.53960 0.20160 0.63570 -0.11500
N 	N 	0.48550 0.27190 0.40450 -0.34700
H 	H 	0.52210 0.29160 0.37730 0.17300
H 	H 	0.44370 0.27070 0.37230 0.17400
N 	N 	0.43470 0.14860 0.69690 -0.35100
H 	H 	0.45830 0.13360 0.74990 0.18400
H 	H 	0.38870 0.13980 0.68780 0.19100
O 	O 	0.78940 0.69070 0.00280 -0.50800
O 	O 	0.82110 0.85910 0.07420 -0.45300
O 	O 	0.65510 0.29590 0.37680 -0.42800
O 	O 	0.68070 0.24800 0.69370 -0.38200
O 	O 	0.77730 0.30500 0.39370 -0.48200
O 	O 	0.80480 0.25330 0.67510 -0.44100
O 	O 	0.66830 0.68950 0.97220 -0.42000
O 	O 	0.69740 0.86790 0.07960 -0.43100
O 	O 	0.82820 0.37880 0.85980 -0.22800
O 	O 	0.69380 0.37370 0.83130 -0.21300
O 	O 	0.86660 0.17350 0.20880 -0.22800
O 	O 	0.73060 0.18010 0.24030 -0.22100
C 	C 	0.71920 0.30740 0.34120 0.39400
C 	C 	0.72660 0.32530 0.22800 -0.09700
C 	C 	0.79610 0.33930 0.18880 0.01900
H 	H 	0.83740 0.33570 0.23200 0.03900
C 	C 	0.80430 0.35870 0.08490 -0.06300
H 	H 	0.85080 0.36780 0.05790 0.05400
C 	C 	0.74360 0.36410 0.02430 -0.03000
C 	C 	0.67440 0.35010 0.05810 -0.06300
H 	H 	0.63390 0.35330 0.01310 0.05500
C 	C 	0.66570 0.33030 0.16360 0.01600
H 	H 	0.61890 0.32080 0.18930 0.04000
C 	C 	0.74760 0.47560 0.91040 0.02400
C 	C 	0.80940 0.50640 0.93850 -0.09600
H 	H 	0.85430 0.48590 0.94520 0.08100
C 	C 	0.80470 0.56840 0.95680 0.05400
H 	H 	0.84690 0.59060 0.97450 0.04100
C 	C 	0.73710 0.59790 0.94910 -0.12100
C 	C 	0.67490 0.56420 0.91900 0.05300
H 	H 	0.62960 0.58380 0.91130 0.03900
C 	C 	0.68010 0.50230 0.90060 -0.09400
H 	H 	0.63870 0.47940 0.88200 0.08400
C 	C 	0.73080 0.66410 0.97600 0.44000
C 	C 	0.74660 0.24430 0.72760 0.35500
C 	C 	0.75880 0.22450 0.84190 -0.04700
C 	C 	0.69890 0.20820 0.90340 0.03200
H 	H 	0.65160 0.20860 0.87450 0.04900
C 	C 	0.70820 0.19150 0.00590 -0.07500
H 	H 	0.66750 0.18220 0.04780 0.06200
C 	C 	0.77890 0.18840 0.04700 -0.07200
C 	C 	0.83970 0.20450 0.98520 0.08800
H 	H 	0.88730 0.20180 0.01270 -0.00600
C 	C 	0.82910 0.22460 0.88300 -0.05900
H 	H 	0.86890 0.23790 0.84250 0.08100
C 	C 	0.78400 0.07960 0.15660 -0.00500
C 	C 	0.71570 0.05190 0.16800 -0.06900
H 	H 	0.67480 0.07470 0.18930 0.06600
C 	C 	0.70910 0.98970 0.14710 0.01700
H 	H 	0.66350 0.97050 0.15510 0.03700
C 	C 	0.76890 0.95630 0.11500 -0.09000
C 	C 	0.83790 0.98390 0.10670 0.01000
H 	H 	0.87950 0.96130 0.08800 0.04000
C 	C 	0.84270 0.04710 0.12750 -0.06600
H 	H 	0.88820 0.06670 0.12070 0.06200
C 	C 	0.76230 0.88820 0.08890 0.38100
C 	C 	0.49390 0.24260 0.49800 0.21400
C 	C 	0.46920 0.18530 0.62900 0.22000
Co	Co	0.83838 0.77132 0.03295 1.15900
Co	Co	0.67469 0.77789 0.02650 1.15300
S 	S 	0.74530 0.89365 0.39340 0.27000
S 	S 	0.70862 0.66003 0.67660 0.27000
N 	N 	0.94380 0.74190 0.05290 -0.25000
N 	N 	0.06290 0.70980 0.04180 -0.30500
N 	N 	0.96040 0.70160 0.13570 -0.11800
N 	N 	0.01450 0.77190 0.90450 -0.36000
H 	H 	0.97790 0.79160 0.87730 0.18200
H 	H 	0.05630 0.77070 0.87230 0.18200
N 	N 	0.06530 0.64860 0.19690 -0.34900
H 	H 	0.04170 0.63360 0.24990 0.17800
H 	H 	0.11130 0.63980 0.18780 0.18900
O 	O 	0.71060 0.19070 0.50280 -0.46600
O 	O 	0.67890 0.35910 0.57420 -0.44400
O 	O 	0.84490 0.79590 0.87680 -0.41400
O 	O 	0.81930 0.74800 0.19370 -0.38700
O 	O 	0.72270 0.80500 0.89370 -0.46500
O 	O 	0.69520 0.75330 0.17510 -0.44900
O 	O 	0.83170 0.18950 0.47220 -0.42200
O 	O 	0.80260 0.36790 0.57960 -0.42500
O 	O 	0.67180 0.87880 0.35980 -0.22900
O 	O 	0.80620 0.87370 0.33130 -0.21300
O 	O 	0.63340 0.67350 0.70880 -0.22100
O 	O 	0.76940 0.68010 0.74030 -0.21400
C 	C 	0.78080 0.80740 0.84120 0.39700
C 	C 	0.77340 0.82530 0.72800 -0.10800
C 	C 	0.70390 0.83930 0.68880 0.04300
H 	H 	0.66260 0.83570 0.73200 0.03500
C 	C 	0.69570 0.85870 0.58490 -0.09100
H 	H 	0.64920 0.86780 0.55790 0.07500
C 	C 	0.75640 0.86410 0.52430 0.02100
C 	C 	0.82560 0.85010 0.55810 -0.08900
H 	H 	0.86610 0.85330 0.51310 0.07600
C 	C 	0.83430 0.83030 0.66360 0.03900
H 	H 	0.88110 0.82080 0.68930 0.03500
C 	C 	0.75240 0.97560 0.41040 0.01600
C 	C 	0.69060 0.00640 0.43850 -0.08900
H 	H 	0.64570 0.98590 0.44520 0.07000
C 	C 	0.69530 0.06840 0.45680 0.03800
H 	H 	0.65310 0.09060 0.47450 0.03700
C 	C 	0.76290 0.09790 0.44910 -0.10700
C 	C 	0.82510 0.06420 0.41900 0.03700
H 	H 	0.87040 0.08380 0.41130 0.04000
C 	C 	0.81990 0.00230 0.40060 -0.08500
H 	H 	0.86130 0.97940 0.38200 0.07500
C 	C 	0.76920 0.16410 0.47600 0.39400
C 	C 	0.75340 0.74430 0.22760 0.36200
C 	C 	0.74120 0.72450 0.34190 -0.07600
C 	C 	0.80110 0.70820 0.40340 0.01300
H 	H 	0.84840 0.70860 0.37450 0.04700
C 	C 	0.79180 0.69150 0.50590 -0.06700
H 	H 	0.83250 0.68220 0.54780 0.06600
C 	C 	0.72110 0.68840 0.54700 -0.00000
C 	C 	0.66030 0.70450 0.48520 -0.06600
H 	H 	0.61270 0.70180 0.51270 0.06700
C 	C 	0.67090 0.72460 0.38300 0.01400
H 	H 	0.63110 0.73790 0.34250 0.04800
C 	C 	0.71600 0.57960 0.65660 0.00800
C 	C 	0.78430 0.55190 0.66800 -0.07900
H 	H 	0.82520 0.57470 0.68930 0.07200
C 	C 	0.79090 0.48970 0.64710 0.02700
H 	H 	0.83650 0.47050 0.65510 0.03700
C 	C 	0.73110 0.45630 0.61500 -0.09200
C 	C 	0.66210 0.48390 0.60670 0.02000
H 	H 	0.62050 0.46130 0.58800 0.04300
C 	C 	0.65730 0.54710 0.62750 -0.07600
H 	H 	0.61180 0.56670 0.62070 0.06900
C 	C 	0.73770 0.38820 0.58890 0.38400
C 	C 	0.00610 0.74260 0.99800 0.27200
C 	C 	0.03080 0.68530 0.12900 0.21100
Co	Co	0.16162 0.22868 0.53295 1.16600
Co	Co	0.32531 0.22211 0.52650 1.16500
S 	S 	0.25470 0.10635 0.89340 0.30800
S 	S 	0.29138 0.33997 0.17660 0.29400
N 	N 	0.05620 0.25810 0.55290 -0.22600
N 	N 	0.93710 0.29020 0.54180 -0.28100
N 	N 	0.03960 0.29840 0.63570 -0.11600
N 	N 	0.98550 0.22810 0.40450 -0.34600
H 	H 	0.02210 0.20840 0.37730 0.17200
H 	H 	0.94370 0.22930 0.37230 0.17400
N 	N 	0.93470 0.35140 0.69690 -0.35100
H 	H 	0.95830 0.36640 0.74990 0.18500
H 	H 	0.88870 0.36020 0.68780 0.19100
O 	O 	0.28940 0.80930 0.00280 -0.50900
O 	O 	0.32110 0.64090 0.07420 -0.45300
O 	O 	0.15510 0.20410 0.37680 -0.42800
O 	O 	0.18070 0.25200 0.69370 -0.38200
O 	O 	0.27730 0.19500 0.39370 -0.48200
O 	O 	0.30480 0.24670 0.67510 -0.44100
O 	O 	0.16830 0.81050 0.97220 -0.42000
O 	O 	0.19740 0.63210 0.07960 -0.43200
O 	O 	0.32820 0.12120 0.85980 -0.22900
O 	O 	0.19380 0.12630 0.83130 -0.21400
O 	O 	0.36660 0.32650 0.20880 -0.22800
O 	O 	0.23060 0.31990 0.24030 -0.22100
C 	C 	0.21920 0.19260 0.34120 0.39300
C 	C 	0.22660 0.17470 0.22800 -0.09600
C 	C 	0.29610 0.16070 0.18880 0.01800
H 	H 	0.33740 0.16430 0.23200 0.03900
C 	C 	0.30430 0.14130 0.08490 -0.06300
H 	H 	0.35080 0.13220 0.05790 0.05300
C 	C 	0.24360 0.13590 0.02430 -0.03100
C 	C 	0.17440 0.14990 0.05810 -0.06200
H 	H 	0.13390 0.14670 0.01310 0.05500
C 	C 	0.16570 0.16970 0.16360 0.01600
H 	H 	0.11890 0.17920 0.18930 0.04000
C 	C 	0.24760 0.02440 0.91040 0.01400
C 	C 	0.30940 0.99360 0.93850 -0.08400
H 	H 	0.35430 0.01410 0.94520 0.07500
C 	C 	0.30470 0.93160 0.95680 0.04500
H 	H 	0.34690 0.90940 0.97450 0.04500
C 	C 	0.23710 0.90210 0.94910 -0.11500
C 	C 	0.17490 0.93580 0.91900 0.04400
H 	H 	0.12960 0.91620 0.91130 0.04200
C 	C 	0.18010 0.99770 0.90060 -0.08100
H 	H 	0.13870 0.02060 0.88200 0.07800
C 	C 	0.23080 0.83590 0.97600 0.43900
C 	C 	0.24660 0.25570 0.72760 0.35400
C 	C 	0.25880 0.27550 0.84190 -0.04500
C 	C 	0.19890 0.29180 0.90340 0.03200
H 	H 	0.15160 0.29140 0.87450 0.04900
C 	C 	0.20820 0.30850 0.00590 -0.07400
H 	H 	0.16750 0.31780 0.04780 0.06200
C 	C 	0.27890 0.31160 0.04700 -0.07500
C 	C 	0.33970 0.29550 0.98520 0.09400
H 	H 	0.38730 0.29820 0.01270 -0.00900
C 	C 	0.32910 0.27540 0.88300 -0.06200
H 	H 	0.36890 0.26210 0.84250 0.08200
C 	C 	0.28400 0.42040 0.15660 -0.00100
C 	C 	0.21570 0.44810 0.16800 -0.07500
H 	H 	0.17480 0.42530 0.18930 0.06800
C 	C 	0.20910 0.51030 0.14710 0.02300
H 	H 	0.16350 0.52950 0.15510 0.03500
C 	C 	0.26890 0.54370 0.11500 -0.09400
C 	C 	0.33790 0.51610 0.10670 0.01500
H 	H 	0.37950 0.53870 0.08800 0.03800
C 	C 	0.34270 0.45290 0.12750 -0.07300
H 	H 	0.38820 0.43330 0.12070 0.06300
C 	C 	0.26230 0.61180 0.08890 0.38200
C 	C 	0.99390 0.25740 0.49800 0.21500
C 	C 	0.96920 0.31470 0.62900 0.22100
