data_crystal

_cell_length_a 16.61400
_cell_length_b 16.64000
_cell_length_c 22.19400
_cell_angle_alpha 90.00000
_cell_angle_beta  90.00000
_cell_angle_gamma 90.00000

_symmetry_space_group_name_	'P 1'
_symmetry_space_group_name_H-M	'P 1'

loop_
_symmetry_equiv_pos_as_xyz
  x,y,z

loop_
_atom_site_label
_atom_site_type_symbol
_atom_site_fract_x
_atom_site_fract_y
_atom_site_fract_z
_atom_site_charge
O 	O 	0.91790 0.41550 0.54740 -0.47600
C 	C 	0.79990 0.29900 0.55510 0.13600
H 	H 	0.81760 0.32080 0.59240 0.01100
C 	C 	0.74490 0.23760 0.55490 -0.19100
H 	H 	0.72910 0.21270 0.59160 0.11600
N 	N 	0.93510 0.45040 0.92320 -0.22700
C 	C 	0.94340 0.53880 0.69110 0.06500
H 	H 	0.90070 0.56400 0.66970 0.02300
C 	C 	0.93700 0.54780 0.75290 -0.07500
H 	H 	0.89860 0.57930 0.77400 0.05400
C 	C 	0.94430 0.44690 0.86780 0.30600
C 	C 	0.88900 0.38580 0.84450 -0.16100
H 	H 	0.87500 0.37860 0.80340 0.09700
C 	C 	0.86050 0.34040 0.89180 0.03600
H 	H 	0.84160 0.28650 0.89080 0.06900
C 	C 	0.86590 0.39370 0.94415 0.03300
O 	O 	0.08210 0.58450 0.54740 -0.51800
C 	C 	0.20010 0.70100 0.55510 0.14100
H 	H 	0.18240 0.67920 0.59240 0.00200
C 	C 	0.25510 0.76240 0.55490 -0.20000
H 	H 	0.27090 0.78730 0.59160 0.11400
N 	N 	0.06490 0.54960 0.92320 -0.24100
C 	C 	0.05660 0.46120 0.69110 0.02100
H 	H 	0.09930 0.43600 0.66970 0.02700
C 	C 	0.06300 0.45220 0.75290 -0.11600
H 	H 	0.10140 0.42070 0.77400 0.06300
C 	C 	0.05570 0.55310 0.86780 0.24400
C 	C 	0.11100 0.61420 0.84450 -0.14900
H 	H 	0.12500 0.62140 0.80340 0.08000
C 	C 	0.13950 0.65960 0.89180 0.01500
H 	H 	0.15840 0.71350 0.89080 0.06400
C 	C 	0.13410 0.60630 0.94415 0.03600
O 	O 	0.08210 0.41550 0.45260 -0.51800
C 	C 	0.20010 0.29900 0.44490 0.14100
H 	H 	0.18240 0.32080 0.40760 0.00200
C 	C 	0.25510 0.23760 0.44510 -0.19900
H 	H 	0.27090 0.21270 0.40840 0.11500
N 	N 	0.06490 0.45040 0.07680 -0.23800
C 	C 	0.05660 0.53880 0.30890 0.02000
H 	H 	0.09930 0.56400 0.33030 0.02800
C 	C 	0.06300 0.54780 0.24710 -0.11500
H 	H 	0.10140 0.57930 0.22600 0.06400
C 	C 	0.05570 0.44690 0.13220 0.24300
C 	C 	0.11100 0.38580 0.15550 -0.14500
H 	H 	0.12500 0.37860 0.19660 0.08000
C 	C 	0.13950 0.34040 0.10820 0.01100
H 	H 	0.15840 0.28650 0.10920 0.07100
C 	C 	0.13410 0.39370 0.05585 0.05300
O 	O 	0.91790 0.58450 0.45260 -0.47500
C 	C 	0.79990 0.70100 0.44490 0.13700
H 	H 	0.81760 0.67920 0.40760 0.01300
C 	C 	0.74490 0.76240 0.44510 -0.19000
H 	H 	0.72910 0.78730 0.40840 0.11800
N 	N 	0.93510 0.54960 0.07680 -0.22300
C 	C 	0.94340 0.46120 0.30890 0.06600
H 	H 	0.90070 0.43600 0.33030 0.02500
C 	C 	0.93700 0.45220 0.24710 -0.07100
H 	H 	0.89860 0.42070 0.22600 0.05400
C 	C 	0.94430 0.55310 0.13220 0.30700
C 	C 	0.88900 0.61420 0.15550 -0.15700
H 	H 	0.87500 0.62140 0.19660 0.09700
C 	C 	0.86050 0.65960 0.10820 0.03300
H 	H 	0.84160 0.71350 0.10920 0.07600
C 	C 	0.86590 0.60630 0.05585 0.05200
O 	O 	0.08210 0.58450 0.45260 -0.51800
C 	C 	0.20010 0.70100 0.44490 0.14100
H 	H 	0.18240 0.67920 0.40760 0.00200
C 	C 	0.25510 0.76240 0.44510 -0.20000
H 	H 	0.27090 0.78730 0.40840 0.11500
N 	N 	0.06490 0.54960 0.07680 -0.23800
C 	C 	0.05660 0.46120 0.30890 0.02000
H 	H 	0.09930 0.43600 0.33030 0.02800
C 	C 	0.06300 0.45220 0.24710 -0.11500
H 	H 	0.10140 0.42070 0.22600 0.06400
C 	C 	0.05570 0.55310 0.13220 0.24300
C 	C 	0.11100 0.61420 0.15550 -0.14500
H 	H 	0.12500 0.62140 0.19660 0.08000
C 	C 	0.13950 0.65960 0.10820 0.01100
H 	H 	0.15840 0.71350 0.10920 0.07100
C 	C 	0.13410 0.60630 0.05585 0.05300
O 	O 	0.91790 0.41550 0.45260 -0.47500
C 	C 	0.79990 0.29900 0.44490 0.13700
H 	H 	0.81760 0.32080 0.40760 0.01300
C 	C 	0.74490 0.23760 0.44510 -0.19000
H 	H 	0.72910 0.21270 0.40840 0.11800
N 	N 	0.93510 0.45040 0.07680 -0.22300
C 	C 	0.94340 0.53880 0.30890 0.06600
H 	H 	0.90070 0.56400 0.33030 0.02500
C 	C 	0.93700 0.54780 0.24710 -0.07100
H 	H 	0.89860 0.57930 0.22600 0.05400
C 	C 	0.94430 0.44690 0.13220 0.30700
C 	C 	0.88900 0.38580 0.15550 -0.15700
H 	H 	0.87500 0.37860 0.19660 0.09700
C 	C 	0.86050 0.34040 0.10820 0.03300
H 	H 	0.84160 0.28650 0.10920 0.07600
C 	C 	0.86590 0.39370 0.05585 0.05200
O 	O 	0.91790 0.58450 0.54740 -0.47500
C 	C 	0.79990 0.70100 0.55510 0.13700
H 	H 	0.81760 0.67920 0.59240 0.01200
C 	C 	0.74490 0.76240 0.55490 -0.19000
H 	H 	0.72910 0.78730 0.59160 0.11700
N 	N 	0.93510 0.54960 0.92320 -0.22600
C 	C 	0.94340 0.46120 0.69110 0.06600
H 	H 	0.90070 0.43600 0.66970 0.02400
C 	C 	0.93700 0.45220 0.75290 -0.07300
H 	H 	0.89860 0.42070 0.77400 0.05400
C 	C 	0.94430 0.55310 0.86780 0.30600
C 	C 	0.88900 0.61420 0.84450 -0.16100
H 	H 	0.87500 0.62140 0.80340 0.09700
C 	C 	0.86050 0.65960 0.89180 0.03600
H 	H 	0.84160 0.71350 0.89080 0.06800
C 	C 	0.86590 0.60630 0.94415 0.03300
O 	O 	0.08210 0.41550 0.54740 -0.51800
C 	C 	0.20010 0.29900 0.55510 0.14100
H 	H 	0.18240 0.32080 0.59240 0.00200
C 	C 	0.25510 0.23760 0.55490 -0.19900
H 	H 	0.27090 0.21270 0.59160 0.11400
N 	N 	0.06490 0.45040 0.92320 -0.24100
C 	C 	0.05660 0.53880 0.69110 0.02100
H 	H 	0.09930 0.56400 0.66970 0.02700
C 	C 	0.06300 0.54780 0.75290 -0.11600
H 	H 	0.10140 0.57930 0.77400 0.06300
C 	C 	0.05570 0.44690 0.86780 0.24400
C 	C 	0.11100 0.38580 0.84450 -0.14900
H 	H 	0.12500 0.37860 0.80340 0.08000
C 	C 	0.13950 0.34040 0.89180 0.01500
H 	H 	0.15840 0.28650 0.89080 0.06500
C 	C 	0.13410 0.39370 0.94415 0.03600
Zn	Zn	0.00000 0.50000 0.56464 1.21700
N 	N 	0.00000 0.50000 0.65260 -0.29000
C 	C 	-0.00000 0.50000 0.77870 0.15800
C 	C 	-0.00000 0.50000 0.84770 -0.50600
Zn	Zn	-0.00000 0.50000 0.43536 1.21700
N 	N 	0.00000 0.50000 0.34740 -0.29100
C 	C 	-0.00000 0.50000 0.22130 0.15500
C 	C 	-0.00000 0.50000 0.15230 -0.50700
Fe	Fe	0.50000 0.00000 0.50000 1.18800
F 	F 	0.70250 0.40580 -0.00000 -0.32500
F 	F 	0.56690 0.28820 -0.00000 -0.30900
F 	F 	0.75940 0.07230 -0.00000 -0.31200
F 	F 	0.88920 0.18370 -0.00000 -0.31800
C 	C 	0.85700 0.35300 -0.00000 0.06000
C 	C 	0.78500 0.29000 -0.00000 -0.06500
C 	C 	0.70500 0.31470 -0.00000 0.19400
C 	C 	0.64400 0.25800 -0.00000 0.24200
C 	C 	0.66300 0.17600 -0.00000 -0.01200
C 	C 	0.74300 0.15200 -0.00000 0.25900
C 	C 	0.80400 0.20900 -0.00000 0.18900
F 	F 	0.29750 0.59420 -0.00000 -0.32400
F 	F 	0.43310 0.71180 -0.00000 -0.31000
F 	F 	0.24060 0.92770 -0.00000 -0.32400
F 	F 	0.11080 0.81630 -0.00000 -0.34900
C 	C 	0.14300 0.64700 -0.00000 0.03700
C 	C 	0.21500 0.71000 -0.00000 -0.06100
C 	C 	0.29500 0.68530 -0.00000 0.19200
C 	C 	0.35600 0.74200 -0.00000 0.24200
C 	C 	0.33700 0.82400 -0.00000 -0.01600
C 	C 	0.25700 0.84800 -0.00000 0.25500
C 	C 	0.19600 0.79100 -0.00000 0.18000
F 	F 	0.29750 0.40580 -0.00000 -0.32400
F 	F 	0.43310 0.28820 -0.00000 -0.30900
F 	F 	0.24060 0.07230 -0.00000 -0.32200
F 	F 	0.11080 0.18370 -0.00000 -0.34900
C 	C 	0.14300 0.35300 -0.00000 0.03700
C 	C 	0.21500 0.29000 -0.00000 -0.06100
C 	C 	0.29500 0.31470 -0.00000 0.19300
C 	C 	0.35600 0.25800 -0.00000 0.24200
C 	C 	0.33700 0.17600 -0.00000 -0.01400
C 	C 	0.25700 0.15200 -0.00000 0.25500
C 	C 	0.19600 0.20900 -0.00000 0.18100
F 	F 	0.70250 0.59420 -0.00000 -0.32500
F 	F 	0.56690 0.71180 -0.00000 -0.30900
F 	F 	0.75940 0.92770 -0.00000 -0.31300
F 	F 	0.88920 0.81630 -0.00000 -0.31900
C 	C 	0.85700 0.64700 -0.00000 0.06000
C 	C 	0.78500 0.71000 -0.00000 -0.06500
C 	C 	0.70500 0.68530 -0.00000 0.19400
C 	C 	0.64400 0.74200 -0.00000 0.24200
C 	C 	0.66300 0.82400 -0.00000 -0.01300
C 	C 	0.74300 0.84800 -0.00000 0.25900
C 	C 	0.80400 0.79100 -0.00000 0.18900
Cl	Cl	0.50000 0.00000 0.38470 -0.38400
Cl	Cl	0.50000 0.00000 0.61530 -0.38700
N 	N 	0.50000 0.11980 0.50000 -0.25400
N 	N 	0.50000 0.88020 0.50000 -0.25500
N 	N 	0.62240 0.00000 0.50000 -0.24600
N 	N 	0.37760 0.00000 0.50000 -0.24600
C 	C 	0.88970 0.39070 0.50000 0.51600
C 	C 	0.83090 0.33070 0.50000 -0.22300
C 	C 	0.71240 0.21220 0.50000 0.14600
C 	C 	0.64260 0.14530 0.50000 -0.13300
C 	C 	0.67510 0.06270 0.50000 0.13300
C 	C 	0.74900 0.03830 0.50000 -0.07700
H 	H 	0.79540 0.07180 0.50000 0.08100
C 	C 	0.56590 0.16840 0.50000 0.13200
C 	C 	0.54410 0.25540 0.50000 -0.07200
H 	H 	0.57930 0.30040 0.50000 0.07200
C 	C 	0.11030 0.60930 0.50000 0.53000
C 	C 	0.16910 0.66930 0.50000 -0.24400
C 	C 	0.28760 0.78780 0.50000 0.14900
C 	C 	0.35740 0.85470 0.50000 -0.13700
C 	C 	0.32490 0.93730 0.50000 0.13300
C 	C 	0.25100 0.96170 0.50000 -0.09400
H 	H 	0.20460 0.92820 0.50000 0.07100
C 	C 	0.43410 0.83160 0.50000 0.13200
C 	C 	0.45590 0.74460 0.50000 -0.07300
H 	H 	0.42070 0.69960 0.50000 0.07200
C 	C 	0.11030 0.39070 0.50000 0.53000
C 	C 	0.16910 0.33070 0.50000 -0.24400
C 	C 	0.28760 0.21220 0.50000 0.14800
C 	C 	0.35740 0.14530 0.50000 -0.13500
C 	C 	0.32490 0.06270 0.50000 0.13000
C 	C 	0.25100 0.03830 0.50000 -0.08000
H 	H 	0.20460 0.07180 0.50000 0.06700
C 	C 	0.43410 0.16840 0.50000 0.13200
C 	C 	0.45590 0.25540 0.50000 -0.07300
H 	H 	0.42070 0.30040 0.50000 0.07200
C 	C 	0.88970 0.60930 0.50000 0.51600
C 	C 	0.83090 0.66930 0.50000 -0.22300
C 	C 	0.71240 0.78780 0.50000 0.14700
C 	C 	0.64260 0.85470 0.50000 -0.13500
C 	C 	0.67510 0.93730 0.50000 0.13600
C 	C 	0.74900 0.96170 0.50000 -0.09100
H 	H 	0.79540 0.92820 0.50000 0.08400
C 	C 	0.56590 0.83160 0.50000 0.13200
C 	C 	0.54410 0.74460 0.50000 -0.07200
H 	H 	0.57930 0.69960 0.50000 0.07200
Zn	Zn	-0.00000 0.50000 -0.00000 1.19200
