data_crystal

_cell_length_a 6.86360
_cell_length_b 11.97900
_cell_length_c 13.65100
_cell_angle_alpha 90.00000
_cell_angle_beta  99.65000
_cell_angle_gamma 90.00000

_symmetry_space_group_name_	'P 1'
_symmetry_space_group_name_H-M	'P 1'

loop_
_symmetry_equiv_pos_as_xyz
  x,y,z

loop_
_atom_site_label
_atom_site_type_symbol
_atom_site_fract_x
_atom_site_fract_y
_atom_site_fract_z
_atom_site_charge
La	La	0.94072 0.83039 0.24216 1.63600
C 	C 	0.46460 0.87600 0.10560 -0.06500
C 	C 	0.31500 0.90040 0.02710 0.03200
H 	H 	0.19840 0.93390 0.03810 0.03700
C 	C 	0.34340 0.87340 0.93150 -0.11000
C 	C 	0.52000 0.82350 0.91760 0.03000
H 	H 	0.53900 0.80080 0.85480 0.01800
C 	C 	0.66710 0.80850 0.99970 -0.06700
C 	C 	0.87220 0.76310 0.99330 0.36400
C 	C 	0.44800 0.89710 0.21280 0.35300
C 	C 	0.18580 0.89880 0.84260 0.36900
N 	N 	0.64050 0.83430 0.09210 -0.16000
O 	O 	0.60710 0.90190 0.27390 -0.40200
O 	O 	0.27890 0.90920 0.23400 -0.39700
O 	O 	0.98860 0.75240 0.07440 -0.39600
O 	O 	0.91180 0.74160 0.90970 -0.42700
O 	O 	0.17070 0.83110 0.77160 -0.41300
O 	O 	0.08330 0.98480 0.84700 -0.40300
La	La	0.05928 0.33039 0.25784 1.63800
C 	C 	0.53540 0.37600 0.39440 -0.06600
C 	C 	0.68500 0.40040 0.47290 0.03700
H 	H 	0.80160 0.43390 0.46190 0.03600
C 	C 	0.65660 0.37340 0.56850 -0.11500
C 	C 	0.48000 0.32350 0.58240 0.03300
H 	H 	0.46100 0.30080 0.64520 0.01800
C 	C 	0.33290 0.30850 0.50030 -0.06800
C 	C 	0.12780 0.26310 0.50670 0.36600
C 	C 	0.55200 0.39710 0.28720 0.35400
C 	C 	0.81420 0.39880 0.65740 0.37100
N 	N 	0.35950 0.33430 0.40790 -0.15900
O 	O 	0.39290 0.40190 0.22610 -0.40100
O 	O 	0.72110 0.40920 0.26600 -0.39700
O 	O 	0.01140 0.25240 0.42560 -0.39700
O 	O 	0.08820 0.24160 0.59030 -0.42700
O 	O 	0.82930 0.33110 0.72840 -0.41400
O 	O 	0.91670 0.48480 0.65300 -0.40700
La	La	0.05928 0.16961 0.75784 1.63500
C 	C 	0.53540 0.12400 0.89440 -0.06600
C 	C 	0.68500 0.09960 0.97290 0.03200
H 	H 	0.80160 0.06610 0.96190 0.03700
C 	C 	0.65660 0.12660 0.06850 -0.11000
C 	C 	0.48000 0.17650 0.08240 0.03000
H 	H 	0.46100 0.19920 0.14520 0.01800
C 	C 	0.33290 0.19150 0.00030 -0.06700
C 	C 	0.12780 0.23690 0.00670 0.36400
C 	C 	0.55200 0.10290 0.78720 0.35300
C 	C 	0.81420 0.10120 0.15740 0.36900
N 	N 	0.35950 0.16570 0.90790 -0.16000
O 	O 	0.39290 0.09810 0.72610 -0.40200
O 	O 	0.72110 0.09080 0.76600 -0.39700
O 	O 	0.01140 0.24760 0.92560 -0.39600
O 	O 	0.08820 0.25840 0.09030 -0.42700
O 	O 	0.82930 0.16890 0.22840 -0.41300
O 	O 	0.91670 0.01520 0.15300 -0.40300
La	La	0.94072 0.66961 0.74216 1.63800
C 	C 	0.46460 0.62400 0.60560 -0.06600
C 	C 	0.31500 0.59960 0.52710 0.03700
H 	H 	0.19840 0.56610 0.53810 0.03600
C 	C 	0.34340 0.62660 0.43150 -0.11500
C 	C 	0.52000 0.67650 0.41760 0.03300
H 	H 	0.53900 0.69920 0.35480 0.01800
C 	C 	0.66710 0.69150 0.49970 -0.06800
C 	C 	0.87220 0.73690 0.49330 0.36600
C 	C 	0.44800 0.60290 0.71280 0.35400
C 	C 	0.18580 0.60120 0.34260 0.37100
N 	N 	0.64050 0.66570 0.59210 -0.15900
O 	O 	0.60710 0.59810 0.77390 -0.40100
O 	O 	0.27890 0.59080 0.73400 -0.39700
O 	O 	0.98860 0.74760 0.57440 -0.39700
O 	O 	0.91180 0.75840 0.40970 -0.42700
O 	O 	0.17070 0.66890 0.27160 -0.41400
O 	O 	0.08330 0.51520 0.34700 -0.40700
