data_crystal

_cell_length_a 16.59800
_cell_length_b 16.64300
_cell_length_c 22.49400
_cell_angle_alpha 90.00000
_cell_angle_beta  90.00000
_cell_angle_gamma 90.00000

_symmetry_space_group_name_	'P 1'
_symmetry_space_group_name_H-M	'P 1'

loop_
_symmetry_equiv_pos_as_xyz
  x,y,z

loop_
_atom_site_label
_atom_site_type_symbol
_atom_site_fract_x
_atom_site_fract_y
_atom_site_fract_z
_atom_site_charge
O 	O 	0.91750 0.41520 0.54910 -0.46500
C 	C 	0.79740 0.29900 0.55170 0.17200
H 	H 	0.81590 0.32000 0.58860 -0.00000
C 	C 	0.74080 0.24160 0.55100 -0.24900
H 	H 	0.72060 0.22230 0.58780 0.12700
N 	N 	0.94850 0.43800 0.93180 -0.21700
C 	C 	0.05770 0.46300 0.68590 0.06500
H 	H 	0.11060 0.45740 0.67040 0.00800
C 	C 	0.03690 0.43380 0.73960 -0.19100
H 	H 	0.04520 0.38160 0.75550 0.08000
C 	C 	0.96200 0.44800 0.87300 0.19100
C 	C 	0.90300 0.40400 0.84000 -0.09000
H 	H 	0.89510 0.40580 0.79810 0.07600
C 	C 	0.86000 0.36100 0.87960 -0.00700
H 	H 	0.81730 0.32460 0.87040 0.07300
C 	C 	0.88900 0.38000 0.93910 0.07400
O 	O 	0.08250 0.58480 0.54910 -0.50400
C 	C 	0.20260 0.70100 0.55170 0.17800
H 	H 	0.18410 0.68000 0.58860 -0.00900
C 	C 	0.25920 0.75840 0.55100 -0.25900
H 	H 	0.27940 0.77770 0.58780 0.12900
N 	N 	0.05150 0.56200 0.93180 -0.22900
C 	C 	0.94230 0.53700 0.68590 0.05200
H 	H 	0.88940 0.54260 0.67040 0.01600
C 	C 	0.96310 0.56620 0.73960 0.00500
H 	H 	0.95480 0.61840 0.75550 0.05400
C 	C 	0.03800 0.55200 0.87300 0.05300
C 	C 	0.09700 0.59600 0.84000 -0.04000
H 	H 	0.10490 0.59420 0.79810 0.06000
C 	C 	0.14000 0.63900 0.87960 -0.04200
H 	H 	0.18270 0.67540 0.87040 0.08100
C 	C 	0.11100 0.62000 0.93910 0.08200
O 	O 	0.08250 0.41520 0.45090 -0.50500
C 	C 	0.20260 0.29900 0.44830 0.17800
H 	H 	0.18410 0.32000 0.41140 -0.01000
C 	C 	0.25920 0.24160 0.44900 -0.26100
H 	H 	0.27940 0.22230 0.41220 0.12800
N 	N 	0.05150 0.43800 0.06820 -0.22500
C 	C 	0.94230 0.46300 0.31410 0.05000
H 	H 	0.88940 0.45740 0.32960 0.01700
C 	C 	0.96310 0.43380 0.26040 0.00900
H 	H 	0.95480 0.38160 0.24450 0.05300
C 	C 	0.03800 0.44800 0.12700 0.05000
C 	C 	0.09700 0.40400 0.16000 -0.03400
H 	H 	0.10490 0.40580 0.20190 0.05900
C 	C 	0.14000 0.36100 0.12040 -0.04900
H 	H 	0.18270 0.32460 0.12960 0.08800
C 	C 	0.11100 0.38000 0.06090 0.10500
O 	O 	0.91750 0.58480 0.45090 -0.46500
C 	C 	0.79740 0.70100 0.44830 0.17200
H 	H 	0.81590 0.68000 0.41140 0.00200
C 	C 	0.74080 0.75840 0.44900 -0.24800
H 	H 	0.72060 0.77770 0.41220 0.13100
N 	N 	0.94850 0.56200 0.06820 -0.21200
C 	C 	0.05770 0.53700 0.31410 0.06700
H 	H 	0.11060 0.54260 0.32960 0.00900
C 	C 	0.03690 0.56620 0.26040 -0.19300
H 	H 	0.04520 0.61840 0.24450 0.08300
C 	C 	0.96200 0.55200 0.12700 0.19300
C 	C 	0.90300 0.59600 0.16000 -0.08400
H 	H 	0.89510 0.59420 0.20190 0.07600
C 	C 	0.86000 0.63900 0.12040 -0.01300
H 	H 	0.81730 0.67540 0.12960 0.08400
C 	C 	0.88900 0.62000 0.06090 0.10100
O 	O 	0.08250 0.58480 0.45090 -0.50400
C 	C 	0.20260 0.70100 0.44830 0.17900
H 	H 	0.18410 0.68000 0.41140 -0.00900
C 	C 	0.25920 0.75840 0.44900 -0.25900
H 	H 	0.27940 0.77770 0.41220 0.13000
N 	N 	0.05150 0.56200 0.06820 -0.22500
C 	C 	0.94230 0.53700 0.31410 0.05200
H 	H 	0.88940 0.54260 0.32960 0.01700
C 	C 	0.96310 0.56620 0.26040 0.00800
H 	H 	0.95480 0.61840 0.24450 0.05500
C 	C 	0.03800 0.55200 0.12700 0.05000
C 	C 	0.09700 0.59600 0.16000 -0.03300
H 	H 	0.10490 0.59420 0.20190 0.05900
C 	C 	0.14000 0.63900 0.12040 -0.04900
H 	H 	0.18270 0.67540 0.12960 0.09000
C 	C 	0.11100 0.62000 0.06090 0.10600
O 	O 	0.91750 0.41520 0.45090 -0.46500
C 	C 	0.79740 0.29900 0.44830 0.17200
H 	H 	0.81590 0.32000 0.41140 0.00100
C 	C 	0.74080 0.24160 0.44900 -0.24900
H 	H 	0.72060 0.22230 0.41220 0.12900
N 	N 	0.94850 0.43800 0.06820 -0.21200
C 	C 	0.05770 0.46300 0.31410 0.06600
H 	H 	0.11060 0.45740 0.32960 0.00900
C 	C 	0.03690 0.43380 0.26040 -0.19300
H 	H 	0.04520 0.38160 0.24450 0.08100
C 	C 	0.96200 0.44800 0.12700 0.19300
C 	C 	0.90300 0.40400 0.16000 -0.08500
H 	H 	0.89510 0.40580 0.20190 0.07500
C 	C 	0.86000 0.36100 0.12040 -0.01300
H 	H 	0.81730 0.32460 0.12960 0.08200
C 	C 	0.88900 0.38000 0.06090 0.10000
O 	O 	0.91750 0.58480 0.54910 -0.46500
C 	C 	0.79740 0.70100 0.55170 0.17200
H 	H 	0.81590 0.68000 0.58860 0.00100
C 	C 	0.74080 0.75840 0.55100 -0.24800
H 	H 	0.72060 0.77770 0.58780 0.13000
N 	N 	0.94850 0.56200 0.93180 -0.21700
C 	C 	0.05770 0.53700 0.68590 0.06700
H 	H 	0.11060 0.54260 0.67040 0.00800
C 	C 	0.03690 0.56620 0.73960 -0.19200
H 	H 	0.04520 0.61840 0.75550 0.08200
C 	C 	0.96200 0.55200 0.87300 0.19100
C 	C 	0.90300 0.59600 0.84000 -0.08900
H 	H 	0.89510 0.59420 0.79810 0.07600
C 	C 	0.86000 0.63900 0.87960 -0.00700
H 	H 	0.81730 0.67540 0.87040 0.07500
C 	C 	0.88900 0.62000 0.93910 0.07500
O 	O 	0.08250 0.41520 0.54910 -0.50500
C 	C 	0.20260 0.29900 0.55170 0.17800
H 	H 	0.18410 0.32000 0.58860 -0.01100
C 	C 	0.25920 0.24160 0.55100 -0.26100
H 	H 	0.27940 0.22230 0.58780 0.12600
N 	N 	0.05150 0.43800 0.93180 -0.22900
C 	C 	0.94230 0.46300 0.68590 0.05100
H 	H 	0.88940 0.45740 0.67040 0.01600
C 	C 	0.96310 0.43380 0.73960 0.00500
H 	H 	0.95480 0.38160 0.75550 0.05300
C 	C 	0.03800 0.44800 0.87300 0.05300
C 	C 	0.09700 0.40400 0.84000 -0.04100
H 	H 	0.10490 0.40580 0.79810 0.06000
C 	C 	0.14000 0.36100 0.87960 -0.04200
H 	H 	0.18270 0.32460 0.87040 0.07900
C 	C 	0.11100 0.38000 0.93910 0.08100
Zn	Zn	0.00000 0.50000 0.56530 1.20900
N 	N 	-0.00000 0.50000 0.65640 -0.29300
C 	C 	-0.00000 0.50000 0.76540 0.11600
C 	C 	-0.00000 0.50000 0.83250 -0.24200
Zn	Zn	-0.00000 0.50000 0.43470 1.20900
N 	N 	0.00000 0.50000 0.34360 -0.29300
C 	C 	0.00000 0.50000 0.23460 0.11300
C 	C 	-0.00000 0.50000 0.16750 -0.24300
Zn	Zn	0.50000 0.00000 0.50000 1.18100
N 	N 	0.50000 0.11400 0.50000 -0.29900
N 	N 	0.50000 0.88600 0.50000 -0.29200
N 	N 	0.62060 0.00000 0.50000 -0.29900
N 	N 	0.37940 0.00000 0.50000 -0.29900
C 	C 	0.89380 0.39330 0.50000 0.45900
C 	C 	0.82860 0.32740 0.50000 -0.20400
C 	C 	0.71120 0.20980 0.50000 0.21200
C 	C 	0.64730 0.14970 0.50000 -0.17100
C 	C 	0.67100 0.06570 0.50000 0.11900
C 	C 	0.75180 0.04050 0.50000 -0.11200
H 	H 	0.79790 0.07430 0.50000 0.08500
C 	C 	0.56830 0.17310 0.50000 0.10500
C 	C 	0.54130 0.25250 0.50000 -0.07700
H 	H 	0.57470 0.29890 0.50000 0.06900
C 	C 	0.10620 0.60670 0.50000 0.46600
C 	C 	0.17140 0.67260 0.50000 -0.22300
C 	C 	0.28880 0.79020 0.50000 0.21600
C 	C 	0.35270 0.85030 0.50000 -0.17000
C 	C 	0.32900 0.93430 0.50000 0.11500
C 	C 	0.24820 0.95950 0.50000 -0.04700
H 	H 	0.20210 0.92570 0.50000 0.05600
C 	C 	0.43170 0.82690 0.50000 0.10800
C 	C 	0.45870 0.74750 0.50000 -0.07800
H 	H 	0.42530 0.70110 0.50000 0.07000
C 	C 	0.10620 0.39330 0.50000 0.46600
C 	C 	0.17140 0.32740 0.50000 -0.22400
C 	C 	0.28880 0.20980 0.50000 0.21700
C 	C 	0.35270 0.14970 0.50000 -0.17500
C 	C 	0.32900 0.06570 0.50000 0.11700
C 	C 	0.24820 0.04050 0.50000 -0.11600
H 	H 	0.20210 0.07430 0.50000 0.07200
C 	C 	0.43170 0.17310 0.50000 0.10600
C 	C 	0.45870 0.25250 0.50000 -0.07900
H 	H 	0.42530 0.29890 0.50000 0.07000
C 	C 	0.89380 0.60670 0.50000 0.45900
C 	C 	0.82860 0.67260 0.50000 -0.20300
C 	C 	0.71120 0.79020 0.50000 0.21200
C 	C 	0.64730 0.85030 0.50000 -0.16600
C 	C 	0.67100 0.93430 0.50000 0.11700
C 	C 	0.75180 0.95950 0.50000 -0.04200
H 	H 	0.79790 0.92570 0.50000 0.06900
C 	C 	0.56830 0.82690 0.50000 0.10700
C 	C 	0.54130 0.74750 0.50000 -0.07700
H 	H 	0.57470 0.70110 0.50000 0.07000
Zn	Zn	-0.00000 0.50000 -0.00000 1.21600
C 	C 	0.87900 0.36400 -0.00000 0.04800
C 	C 	0.81400 0.30040 -0.00000 -0.13700
C 	C 	0.73640 0.33400 -0.00000 0.30000
C 	C 	0.66810 0.28320 -0.00000 0.16000
C 	C 	0.67730 0.19920 -0.00000 0.24700
C 	C 	0.75500 0.16600 -0.00000 0.16000
C 	C 	0.82300 0.21580 -0.00000 0.30400
F 	F 	0.72670 0.41300 -0.00000 -0.36600
F 	F 	0.59400 0.31590 -0.00000 -0.28200
F 	F 	0.61230 0.15140 -0.00000 -0.29700
F 	F 	0.76390 0.08600 -0.00000 -0.28000
F 	F 	0.89700 0.18400 -0.00000 -0.34200
C 	C 	0.12100 0.63600 -0.00000 0.01900
C 	C 	0.18600 0.69960 -0.00000 -0.13400
C 	C 	0.26360 0.66600 -0.00000 0.30000
C 	C 	0.33190 0.71680 -0.00000 0.16000
C 	C 	0.32270 0.80080 -0.00000 0.24700
C 	C 	0.24500 0.83400 -0.00000 0.15800
C 	C 	0.17700 0.78420 -0.00000 0.29700
F 	F 	0.27330 0.58700 -0.00000 -0.36400
F 	F 	0.40600 0.68410 -0.00000 -0.28100
F 	F 	0.38770 0.84860 -0.00000 -0.29200
F 	F 	0.23610 0.91400 -0.00000 -0.27900
F 	F 	0.10300 0.81600 -0.00000 -0.36800
C 	C 	0.12100 0.36400 -0.00000 0.01900
C 	C 	0.18600 0.30040 -0.00000 -0.13500
C 	C 	0.26360 0.33400 -0.00000 0.30000
C 	C 	0.33190 0.28320 -0.00000 0.15900
C 	C 	0.32270 0.19920 -0.00000 0.24500
C 	C 	0.24500 0.16600 -0.00000 0.15600
C 	C 	0.17700 0.21580 -0.00000 0.29500
F 	F 	0.27330 0.41300 -0.00000 -0.36400
F 	F 	0.40600 0.31590 -0.00000 -0.28200
F 	F 	0.38770 0.15140 -0.00000 -0.29800
F 	F 	0.23610 0.08600 -0.00000 -0.29000
F 	F 	0.10300 0.18400 -0.00000 -0.37300
C 	C 	0.87900 0.63600 -0.00000 0.04800
C 	C 	0.81400 0.69960 -0.00000 -0.13600
C 	C 	0.73640 0.66600 -0.00000 0.30100
C 	C 	0.66810 0.71680 -0.00000 0.16100
C 	C 	0.67730 0.80080 -0.00000 0.24900
C 	C 	0.75500 0.83400 -0.00000 0.16200
C 	C 	0.82300 0.78420 -0.00000 0.30600
F 	F 	0.72670 0.58700 -0.00000 -0.36600
F 	F 	0.59400 0.68410 -0.00000 -0.28100
F 	F 	0.61230 0.84860 -0.00000 -0.29000
F 	F 	0.76390 0.91400 -0.00000 -0.26900
F 	F 	0.89700 0.81600 -0.00000 -0.33700
