data_crystal

_cell_length_a 16.61210
_cell_length_b 16.62020
_cell_length_c 22.16310
_cell_angle_alpha 90.00000
_cell_angle_beta  90.00000
_cell_angle_gamma 90.00000

_symmetry_space_group_name_	'P 1'
_symmetry_space_group_name_H-M	'P 1'

loop_
_symmetry_equiv_pos_as_xyz
  x,y,z

loop_
_atom_site_label
_atom_site_type_symbol
_atom_site_fract_x
_atom_site_fract_y
_atom_site_fract_z
_atom_site_charge
O 	O 	0.91631 0.41562 0.55085 -0.44600
C 	C 	0.79920 0.29890 0.55370 0.07500
H 	H 	0.81980 0.31970 0.59050 0.03400
C 	C 	0.73960 0.24010 0.55550 -0.14900
H 	H 	0.71920 0.22080 0.59280 0.09600
N 	N 	0.94070 0.43870 0.93400 -0.24200
C 	C 	0.04970 0.54460 0.68490 0.04700
H 	H 	0.08720 0.57720 0.66370 0.01300
C 	C 	0.05040 0.54670 0.74550 -0.13200
H 	H 	0.08730 0.58190 0.76480 0.06800
C 	C 	0.94610 0.44530 0.87440 0.25300
C 	C 	0.89030 0.39110 0.84560 -0.13500
H 	H 	0.88220 0.38480 0.80340 0.08900
C 	C 	0.85200 0.35120 0.88970 0.01900
H 	H 	0.82070 0.30360 0.88630 0.06500
C 	C 	0.86930 0.39690 0.94360 0.06400
O 	O 	0.08369 0.58438 0.55085 -0.48500
C 	C 	0.20080 0.70110 0.55370 0.07800
H 	H 	0.18020 0.68030 0.59050 0.02500
C 	C 	0.26040 0.75990 0.55550 -0.15600
H 	H 	0.28080 0.77920 0.59280 0.09600
N 	N 	0.05930 0.56130 0.93400 -0.26600
C 	C 	0.95030 0.45540 0.68490 0.10300
H 	H 	0.91280 0.42280 0.66370 0.01000
C 	C 	0.94960 0.45330 0.74550 -0.07100
H 	H 	0.91270 0.41810 0.76480 0.05600
C 	C 	0.05390 0.55470 0.87440 0.18100
C 	C 	0.10970 0.60890 0.84560 -0.11200
H 	H 	0.11780 0.61520 0.80340 0.06800
C 	C 	0.14800 0.64880 0.88970 -0.01300
H 	H 	0.17930 0.69640 0.88630 0.07000
C 	C 	0.13070 0.60310 0.94360 0.08500
O 	O 	0.08369 0.41562 0.44915 -0.48500
C 	C 	0.20080 0.29890 0.44630 0.07700
H 	H 	0.18020 0.31970 0.40950 0.02400
C 	C 	0.26040 0.24010 0.44450 -0.15700
H 	H 	0.28080 0.22080 0.40720 0.09500
N 	N 	0.05930 0.43870 0.06600 -0.26200
C 	C 	0.95030 0.54460 0.31510 0.10300
H 	H 	0.91280 0.57720 0.33630 0.01200
C 	C 	0.94960 0.54670 0.25450 -0.06800
H 	H 	0.91270 0.58190 0.23520 0.05700
C 	C 	0.05390 0.44530 0.12560 0.17900
C 	C 	0.10970 0.39110 0.15440 -0.10600
H 	H 	0.11780 0.38480 0.19660 0.06600
C 	C 	0.14800 0.35120 0.11030 -0.01900
H 	H 	0.17930 0.30360 0.11370 0.07800
C 	C 	0.13070 0.39690 0.05640 0.10900
O 	O 	0.91631 0.58438 0.44915 -0.44500
C 	C 	0.79920 0.70110 0.44630 0.07600
H 	H 	0.81980 0.68030 0.40950 0.03600
C 	C 	0.73960 0.75990 0.44450 -0.14800
H 	H 	0.71920 0.77920 0.40720 0.10000
N 	N 	0.94070 0.56130 0.06600 -0.23700
C 	C 	0.04970 0.45540 0.31510 0.04600
H 	H 	0.08720 0.42280 0.33630 0.01300
C 	C 	0.05040 0.45330 0.25450 -0.13200
H 	H 	0.08730 0.41810 0.23520 0.06900
C 	C 	0.94610 0.55470 0.12560 0.25300
C 	C 	0.89030 0.60890 0.15440 -0.12800
H 	H 	0.88220 0.61520 0.19660 0.08900
C 	C 	0.85200 0.64880 0.11030 0.01300
H 	H 	0.82070 0.69640 0.11370 0.07700
C 	C 	0.86930 0.60310 0.05640 0.09000
O 	O 	0.08369 0.58438 0.44915 -0.48400
C 	C 	0.20080 0.70110 0.44630 0.07800
H 	H 	0.18020 0.68030 0.40950 0.02500
C 	C 	0.26040 0.75990 0.44450 -0.15600
H 	H 	0.28080 0.77920 0.40720 0.09700
N 	N 	0.05930 0.56130 0.06600 -0.26200
C 	C 	0.95030 0.45540 0.31510 0.10300
H 	H 	0.91280 0.42280 0.33630 0.01100
C 	C 	0.94960 0.45330 0.25450 -0.06900
H 	H 	0.91270 0.41810 0.23520 0.05600
C 	C 	0.05390 0.55470 0.12560 0.17900
C 	C 	0.10970 0.60890 0.15440 -0.10500
H 	H 	0.11780 0.61520 0.19660 0.06700
C 	C 	0.14800 0.64880 0.11030 -0.01900
H 	H 	0.17930 0.69640 0.11370 0.08000
C 	C 	0.13070 0.60310 0.05640 0.10900
O 	O 	0.91631 0.41562 0.44915 -0.44600
C 	C 	0.79920 0.29890 0.44630 0.07500
H 	H 	0.81980 0.31970 0.40950 0.03400
C 	C 	0.73960 0.24010 0.44450 -0.14900
H 	H 	0.71920 0.22080 0.40720 0.09700
N 	N 	0.94070 0.43870 0.06600 -0.23700
C 	C 	0.04970 0.54460 0.31510 0.04700
H 	H 	0.08720 0.57720 0.33630 0.01400
C 	C 	0.05040 0.54670 0.25450 -0.13100
H 	H 	0.08730 0.58190 0.23520 0.06900
C 	C 	0.94610 0.44530 0.12560 0.25300
C 	C 	0.89030 0.39110 0.15440 -0.12900
H 	H 	0.88220 0.38480 0.19660 0.08900
C 	C 	0.85200 0.35120 0.11030 0.01300
H 	H 	0.82070 0.30360 0.11370 0.07500
C 	C 	0.86930 0.39690 0.05640 0.09000
O 	O 	0.91631 0.58438 0.55085 -0.44600
C 	C 	0.79920 0.70110 0.55370 0.07600
H 	H 	0.81980 0.68030 0.59050 0.03500
C 	C 	0.73960 0.75990 0.55550 -0.14800
H 	H 	0.71920 0.77920 0.59280 0.09800
N 	N 	0.94070 0.56130 0.93400 -0.24200
C 	C 	0.04970 0.45540 0.68490 0.04700
H 	H 	0.08720 0.42280 0.66370 0.01200
C 	C 	0.05040 0.45330 0.74550 -0.13300
H 	H 	0.08730 0.41810 0.76480 0.06800
C 	C 	0.94610 0.55470 0.87440 0.25300
C 	C 	0.89030 0.60890 0.84560 -0.13400
H 	H 	0.88220 0.61520 0.80340 0.09000
C 	C 	0.85200 0.64880 0.88970 0.01900
H 	H 	0.82070 0.69640 0.88630 0.06700
C 	C 	0.86930 0.60310 0.94360 0.06400
O 	O 	0.08369 0.41562 0.55085 -0.48500
C 	C 	0.20080 0.29890 0.55370 0.07700
H 	H 	0.18020 0.31970 0.59050 0.02400
C 	C 	0.26040 0.24010 0.55550 -0.15700
H 	H 	0.28080 0.22080 0.59280 0.09300
N 	N 	0.05930 0.43870 0.93400 -0.26600
C 	C 	0.95030 0.54460 0.68490 0.10300
H 	H 	0.91280 0.57720 0.66370 0.01100
C 	C 	0.94960 0.54670 0.74550 -0.07100
H 	H 	0.91270 0.58190 0.76480 0.05700
C 	C 	0.05390 0.44530 0.87440 0.18100
C 	C 	0.10970 0.39110 0.84560 -0.11300
H 	H 	0.11780 0.38480 0.80340 0.06700
C 	C 	0.14800 0.35120 0.88970 -0.01300
H 	H 	0.17930 0.30360 0.88630 0.06800
C 	C 	0.13070 0.39690 0.94360 0.08500
Zn	Zn	0.00000 0.50000 0.56538 1.20600
N 	N 	0.00000 0.50000 0.65350 -0.32700
C 	C 	-0.00000 0.50000 0.78130 0.15700
C 	C 	0.00000 0.50000 0.85030 -0.41800
Zn	Zn	-0.00000 0.50000 0.43462 1.20600
N 	N 	-0.00000 0.50000 0.34650 -0.32700
C 	C 	0.00000 0.50000 0.21870 0.15300
C 	C 	0.00000 0.50000 0.14970 -0.41700
Zn	Zn	0.50000 0.00000 0.50000 1.16700
N 	N 	0.50000 0.12330 0.50000 -0.28700
N 	N 	0.50000 0.87670 0.50000 -0.28100
N 	N 	0.62150 0.00000 0.50000 -0.29800
N 	N 	0.37850 0.00000 0.50000 -0.29800
C 	C 	0.89320 0.39360 0.50000 0.40300
C 	C 	0.82920 0.32780 0.50000 -0.12600
C 	C 	0.71020 0.21010 0.50000 0.12100
C 	C 	0.64580 0.14600 0.50000 -0.14300
C 	C 	0.67290 0.06550 0.50000 0.11000
C 	C 	0.75530 0.04000 0.50000 -0.10700
H 	H 	0.80130 0.07400 0.50000 0.08500
C 	C 	0.56550 0.17200 0.50000 0.10500
C 	C 	0.54040 0.25530 0.50000 -0.07300
H 	H 	0.57450 0.30120 0.50000 0.06800
C 	C 	0.10680 0.60640 0.50000 0.40600
C 	C 	0.17080 0.67220 0.50000 -0.14100
C 	C 	0.28980 0.78990 0.50000 0.12200
C 	C 	0.35420 0.85400 0.50000 -0.13900
C 	C 	0.32710 0.93450 0.50000 0.10500
C 	C 	0.24470 0.96000 0.50000 -0.04000
H 	H 	0.19870 0.92600 0.50000 0.05400
C 	C 	0.43450 0.82800 0.50000 0.10700
C 	C 	0.45960 0.74470 0.50000 -0.07300
H 	H 	0.42550 0.69880 0.50000 0.06900
C 	C 	0.10680 0.39360 0.50000 0.40600
C 	C 	0.17080 0.32780 0.50000 -0.14200
C 	C 	0.28980 0.21010 0.50000 0.12200
C 	C 	0.35420 0.14600 0.50000 -0.14500
C 	C 	0.32710 0.06550 0.50000 0.10700
C 	C 	0.24470 0.04000 0.50000 -0.11200
H 	H 	0.19870 0.07400 0.50000 0.07000
C 	C 	0.43450 0.17200 0.50000 0.10600
C 	C 	0.45960 0.25530 0.50000 -0.07400
H 	H 	0.42550 0.30120 0.50000 0.06900
C 	C 	0.89320 0.60640 0.50000 0.40300
C 	C 	0.82920 0.67220 0.50000 -0.12500
C 	C 	0.71020 0.78990 0.50000 0.12100
C 	C 	0.64580 0.85400 0.50000 -0.13700
C 	C 	0.67290 0.93450 0.50000 0.10800
C 	C 	0.75530 0.96000 0.50000 -0.03600
H 	H 	0.80130 0.92600 0.50000 0.06800
C 	C 	0.56550 0.82800 0.50000 0.10700
C 	C 	0.54040 0.74470 0.50000 -0.07200
H 	H 	0.57450 0.69880 0.50000 0.06900
Mn	Mn	0.00000 0.50000 -0.00000 1.30700
C 	C 	0.87900 0.36100 -0.00000 0.05600
C 	C 	0.81300 0.29820 -0.00000 -0.12900
C 	C 	0.73310 0.33030 -0.00000 0.27700
C 	C 	0.66480 0.27880 -0.00000 0.17200
C 	C 	0.67670 0.19410 -0.00000 0.23200
C 	C 	0.75650 0.16160 -0.00000 0.17300
C 	C 	0.82480 0.21360 -0.00000 0.29100
F 	F 	0.72390 0.41080 -0.00000 -0.36400
F 	F 	0.58990 0.31060 -0.00000 -0.28500
F 	F 	0.61280 0.14300 -0.00000 -0.29300
F 	F 	0.76700 0.08140 -0.00000 -0.28100
F 	F 	0.89990 0.18300 -0.00000 -0.33700
C 	C 	0.12100 0.63900 -0.00000 0.01300
C 	C 	0.18700 0.70180 -0.00000 -0.12300
C 	C 	0.26690 0.66970 -0.00000 0.27500
C 	C 	0.33520 0.72120 -0.00000 0.17200
C 	C 	0.32330 0.80590 -0.00000 0.23200
C 	C 	0.24350 0.83840 -0.00000 0.17200
C 	C 	0.17520 0.78640 -0.00000 0.28200
F 	F 	0.27610 0.58920 -0.00000 -0.36300
F 	F 	0.41010 0.68940 -0.00000 -0.28400
F 	F 	0.38720 0.85700 -0.00000 -0.28700
F 	F 	0.23300 0.91860 -0.00000 -0.28100
F 	F 	0.10010 0.81700 -0.00000 -0.36600
C 	C 	0.12100 0.36100 -0.00000 0.01200
C 	C 	0.18700 0.29820 -0.00000 -0.12400
C 	C 	0.26690 0.33030 -0.00000 0.27500
C 	C 	0.33520 0.27880 -0.00000 0.17100
C 	C 	0.32330 0.19410 -0.00000 0.22900
C 	C 	0.24350 0.16160 -0.00000 0.16900
C 	C 	0.17520 0.21360 -0.00000 0.28000
F 	F 	0.27610 0.41080 -0.00000 -0.36300
F 	F 	0.41010 0.31060 -0.00000 -0.28500
F 	F 	0.38720 0.14300 -0.00000 -0.29400
F 	F 	0.23300 0.08140 -0.00000 -0.29200
F 	F 	0.10010 0.18300 -0.00000 -0.37100
C 	C 	0.87900 0.63900 -0.00000 0.05600
C 	C 	0.81300 0.70180 -0.00000 -0.12900
C 	C 	0.73310 0.66970 -0.00000 0.27800
C 	C 	0.66480 0.72120 -0.00000 0.17300
C 	C 	0.67670 0.80590 -0.00000 0.23400
C 	C 	0.75650 0.83840 -0.00000 0.17600
C 	C 	0.82480 0.78640 -0.00000 0.29300
F 	F 	0.72390 0.58920 -0.00000 -0.36400
F 	F 	0.58990 0.68940 -0.00000 -0.28300
F 	F 	0.61280 0.85700 -0.00000 -0.28600
F 	F 	0.76700 0.91860 -0.00000 -0.27000
F 	F 	0.89990 0.81700 -0.00000 -0.33200
