data_crystal

_cell_length_a 13.34730
_cell_length_b 13.34730
_cell_length_c 14.25990
_cell_angle_alpha 90.00000
_cell_angle_beta  90.00000
_cell_angle_gamma 120.00000

_symmetry_space_group_name_	'P 1'
_symmetry_space_group_name_H-M	'P 1'

loop_
_symmetry_equiv_pos_as_xyz
  x,y,z

loop_
_atom_site_label
_atom_site_type_symbol
_atom_site_fract_x
_atom_site_fract_y
_atom_site_fract_z
_atom_site_charge
Er	Er	0.33333 0.66666 0.33304 1.87800
Er	Er	0.66667 0.33334 0.16696 1.87900
Er	Er	0.66667 0.33334 0.66696 1.88300
Er	Er	0.33333 0.66666 0.83304 1.88200
Cu	Cu	0.50000 0.00000 0.50000 0.89700
Cu	Cu	0.50000 0.50000 0.50000 0.92800
Cu	Cu	0.00000 0.50000 0.50000 0.89900
Cu	Cu	0.50000 0.00000 -0.00000 0.87000
Cu	Cu	-0.00000 0.50000 -0.00000 0.87300
Cu	Cu	0.50000 0.50000 -0.00000 0.90200
H 	H 	0.67290 0.02260 0.57970 0.03600
H 	H 	0.68290 0.86250 0.52020 0.14800
H 	H 	0.70500 0.96010 0.44790 0.16500
H 	H 	0.60100 0.91330 0.69560 0.17600
H 	H 	0.53950 0.80550 0.62930 0.16900
H 	H 	0.34970 0.32710 0.57970 0.09300
H 	H 	0.17960 0.31710 0.52020 0.10900
H 	H 	0.25510 0.29500 0.44790 0.11300
H 	H 	0.31230 0.39900 0.69560 0.14500
H 	H 	0.26600 0.46050 0.62930 0.16000
H 	H 	0.97740 0.65030 0.57970 0.15700
H 	H 	0.13750 0.82040 0.52020 0.12800
H 	H 	0.03990 0.74490 0.44790 0.10500
H 	H 	0.08670 0.68770 0.69560 0.13500
H 	H 	0.19450 0.73400 0.62930 0.16500
H 	H 	0.65030 0.97740 0.92030 0.16100
H 	H 	0.82040 0.13750 0.97980 0.22700
H 	H 	0.74490 0.03990 0.05210 0.15100
H 	H 	0.68770 0.08670 0.80440 0.13600
H 	H 	0.73400 0.19450 0.87070 0.17700
H 	H 	0.02260 0.67290 0.92030 0.04400
H 	H 	0.86250 0.68290 0.97980 0.24500
H 	H 	0.96010 0.70500 0.05210 0.21100
H 	H 	0.91330 0.60100 0.80440 0.17700
H 	H 	0.80550 0.53950 0.87070 0.18100
H 	H 	0.32710 0.34970 0.92030 0.09500
H 	H 	0.31710 0.17960 0.97980 0.21400
H 	H 	0.29500 0.25510 0.05210 0.16400
H 	H 	0.39900 0.31230 0.80440 0.14800
H 	H 	0.46050 0.26600 0.87070 0.17300
H 	H 	0.32710 0.97740 0.42030 0.15700
H 	H 	0.31710 0.13750 0.47980 0.10700
H 	H 	0.29500 0.03990 0.55210 0.09000
H 	H 	0.39900 0.08670 0.30440 0.12500
H 	H 	0.46050 0.19450 0.37070 0.15900
H 	H 	0.65030 0.67290 0.42030 0.10000
H 	H 	0.82040 0.68290 0.47980 0.14700
H 	H 	0.74490 0.70500 0.55210 0.14200
H 	H 	0.68770 0.60100 0.30440 0.15800
H 	H 	0.73400 0.53950 0.37070 0.17000
H 	H 	0.02260 0.34970 0.42030 0.03600
H 	H 	0.86250 0.17960 0.47980 0.12700
H 	H 	0.96010 0.25510 0.55210 0.15000
H 	H 	0.91330 0.31230 0.30440 0.16800
H 	H 	0.80550 0.26600 0.37070 0.16400
H 	H 	0.34970 0.02260 0.07970 0.03100
H 	H 	0.17960 0.86250 0.02020 0.02700
H 	H 	0.25510 0.96010 0.94790 0.10300
H 	H 	0.31230 0.91330 0.19560 0.16500
H 	H 	0.26600 0.80550 0.12930 0.15100
H 	H 	0.97740 0.32710 0.07970 0.15400
H 	H 	0.13750 0.31710 0.02020 0.00100
H 	H 	0.03990 0.29500 0.94790 0.04100
H 	H 	0.08670 0.39900 0.19560 0.12200
H 	H 	0.19450 0.46050 0.12930 0.14500
H 	H 	0.67290 0.65030 0.07970 0.09900
H 	H 	0.68290 0.82040 0.02020 0.04700
H 	H 	0.70500 0.74490 0.94790 0.09300
H 	H 	0.60100 0.68770 0.19560 0.15500
H 	H 	0.53950 0.73400 0.12930 0.15700
C 	C 	0.54670 0.81450 0.43020 0.40800
C 	C 	0.64740 0.90130 0.48860 -0.33200
C 	C 	0.55130 0.88210 0.64110 -0.39200
C 	C 	0.43660 0.87330 0.66170 0.49000
C 	C 	0.26780 0.45330 0.43020 0.38900
C 	C 	0.25390 0.35260 0.48860 -0.29800
C 	C 	0.33080 0.44870 0.64110 -0.37900
C 	C 	0.43670 0.56340 0.66170 0.48000
C 	C 	0.18550 0.73220 0.43020 0.38600
C 	C 	0.09870 0.74610 0.48860 -0.29900
C 	C 	0.11790 0.66920 0.64110 -0.37500
C 	C 	0.12670 0.56330 0.66170 0.47600
C 	C 	0.73220 0.18550 0.06980 0.43400
C 	C 	0.74610 0.09870 0.01140 -0.49800
C 	C 	0.66920 0.11790 0.85890 -0.38000
C 	C 	0.56330 0.12670 0.83830 0.48100
C 	C 	0.81450 0.54670 0.06980 0.45500
C 	C 	0.90130 0.64740 0.01140 -0.52700
C 	C 	0.88210 0.55130 0.85890 -0.39700
C 	C 	0.87330 0.43660 0.83830 0.49500
C 	C 	0.45330 0.26780 0.06980 0.44000
C 	C 	0.35260 0.25390 0.01140 -0.50700
C 	C 	0.44870 0.33080 0.85890 -0.38500
C 	C 	0.56340 0.43670 0.83830 0.48700
C 	C 	0.45330 0.18550 0.56980 0.38000
C 	C 	0.35260 0.09870 0.51140 -0.28600
C 	C 	0.44870 0.11790 0.35890 -0.36900
C 	C 	0.56340 0.12670 0.33830 0.47300
C 	C 	0.73220 0.54670 0.56980 0.40000
C 	C 	0.74610 0.64740 0.51140 -0.32300
C 	C 	0.66920 0.55130 0.35890 -0.38700
C 	C 	0.56330 0.43660 0.33830 0.48400
C 	C 	0.81450 0.26780 0.56980 0.40200
C 	C 	0.90130 0.25390 0.51140 -0.31900
C 	C 	0.88210 0.33080 0.35890 -0.38600
C 	C 	0.87330 0.43670 0.33830 0.48700
C 	C 	0.26780 0.81450 0.93020 0.35400
C 	C 	0.25390 0.90130 0.98860 -0.11700
C 	C 	0.33080 0.88210 0.14110 -0.37700
C 	C 	0.43670 0.87330 0.16170 0.48000
C 	C 	0.18550 0.45330 0.93020 0.32900
C 	C 	0.09870 0.35260 0.98860 -0.07300
C 	C 	0.11790 0.44870 0.14110 -0.35900
C 	C 	0.12670 0.56340 0.16170 0.46500
C 	C 	0.54670 0.73220 0.93020 0.35100
C 	C 	0.64740 0.74610 0.98860 -0.12100
C 	C 	0.55130 0.66920 0.14110 -0.37700
C 	C 	0.43660 0.56330 0.16170 0.47600
N 	N 	0.60960 0.95690 0.55913 -0.09000
N 	N 	0.34730 0.39040 0.55913 -0.15600
N 	N 	0.04310 0.65270 0.55913 -0.20500
N 	N 	0.65270 0.04310 0.94087 -0.15300
N 	N 	0.95690 0.60960 0.94087 -0.04300
N 	N 	0.39040 0.34730 0.94087 -0.10000
N 	N 	0.39040 0.04310 0.44087 -0.21200
N 	N 	0.65270 0.60960 0.44087 -0.15100
N 	N 	0.95690 0.34730 0.44087 -0.09600
N 	N 	0.34730 0.95690 0.05913 -0.14000
N 	N 	0.04310 0.39040 0.05913 -0.26000
N 	N 	0.60960 0.65270 0.05913 -0.20000
O 	O 	0.44990 0.80970 0.44074 -0.48200
O 	O 	0.55990 0.75260 0.37202 -0.37500
O 	O 	0.40200 0.92630 0.60909 -0.39400
O 	O 	0.37940 0.81390 0.73003 -0.48800
O 	O 	0.35980 0.55010 0.44074 -0.48900
O 	O 	0.19270 0.44010 0.37202 -0.38600
O 	O 	0.52430 0.59800 0.60909 -0.42400
O 	O 	0.43450 0.62060 0.73003 -0.49200
O 	O 	0.19030 0.64020 0.44074 -0.49200
O 	O 	0.24740 0.80730 0.37202 -0.37200
O 	O 	0.07370 0.47570 0.60909 -0.44900
O 	O 	0.18610 0.56550 0.73003 -0.50000
O 	O 	0.64020 0.19030 0.05926 -0.52000
O 	O 	0.80730 0.24740 0.12798 -0.39400
O 	O 	0.47570 0.07370 0.89091 -0.43100
O 	O 	0.56550 0.18610 0.76997 -0.50000
O 	O 	0.80970 0.44990 0.05926 -0.51000
O 	O 	0.75260 0.55990 0.12798 -0.39600
O 	O 	0.92630 0.40200 0.89091 -0.37800
O 	O 	0.81390 0.37940 0.76997 -0.48700
O 	O 	0.55010 0.35980 0.05926 -0.51800
O 	O 	0.44010 0.19270 0.12798 -0.40800
O 	O 	0.59800 0.52430 0.89091 -0.40600
O 	O 	0.62060 0.43450 0.76997 -0.49100
O 	O 	0.55010 0.19030 0.55926 -0.49200
O 	O 	0.44010 0.24740 0.62798 -0.38000
O 	O 	0.59800 0.07370 0.39091 -0.44800
O 	O 	0.62060 0.18610 0.26997 -0.49800
O 	O 	0.64020 0.44990 0.55926 -0.49100
O 	O 	0.80730 0.55990 0.62798 -0.36900
O 	O 	0.47570 0.40200 0.39091 -0.42900
O 	O 	0.56550 0.37940 0.26997 -0.49400
O 	O 	0.80970 0.35980 0.55926 -0.48200
O 	O 	0.75260 0.19270 0.62798 -0.38200
O 	O 	0.92630 0.52430 0.39091 -0.39400
O 	O 	0.81390 0.43450 0.26997 -0.48500
O 	O 	0.35980 0.80970 0.94074 -0.44900
O 	O 	0.19270 0.75260 0.87202 -0.35900
O 	O 	0.52430 0.92630 0.10909 -0.40000
O 	O 	0.43450 0.81390 0.23003 -0.48500
O 	O 	0.19030 0.55010 0.94074 -0.45700
O 	O 	0.24740 0.44010 0.87202 -0.35700
O 	O 	0.07370 0.59800 0.10909 -0.45500
O 	O 	0.18610 0.62060 0.23003 -0.49800
O 	O 	0.44990 0.64020 0.94074 -0.45700
O 	O 	0.55990 0.80730 0.87202 -0.34700
O 	O 	0.40200 0.47570 0.10909 -0.43800
O 	O 	0.37940 0.56550 0.23003 -0.49500
