data_crystal

_cell_length_a 13.45670
_cell_length_b 13.45670
_cell_length_c 14.69820
_cell_angle_alpha 90.00000
_cell_angle_beta  90.00000
_cell_angle_gamma 120.00000

_symmetry_space_group_name_	'P 1'
_symmetry_space_group_name_H-M	'P 1'

loop_
_symmetry_equiv_pos_as_xyz
  x,y,z

loop_
_atom_site_label
_atom_site_type_symbol
_atom_site_fract_x
_atom_site_fract_y
_atom_site_fract_z
_atom_site_charge
Nd	Nd	0.33333 0.66666 0.66822 2.41100
Nd	Nd	0.66667 0.33334 0.83178 2.38900
Nd	Nd	0.66667 0.33334 0.33178 2.38100
Nd	Nd	0.33333 0.66666 0.16822 2.40400
Cu	Cu	0.50000 0.50000 0.50000 0.92700
Cu	Cu	1.00000 0.50000 0.50000 0.89300
Cu	Cu	0.50000 0.00000 0.50000 0.89300
Cu	Cu	1.00000 0.50000 -0.00000 0.86700
Cu	Cu	0.50000 0.50000 -0.00000 0.90100
Cu	Cu	0.50000 0.00000 -0.00000 0.86700
H 	H 	0.67280 0.64790 0.42280 0.09300
H 	H 	0.68030 0.81790 0.47820 0.13300
H 	H 	0.70610 0.74580 0.54850 0.12500
H 	H 	0.60250 0.68380 0.30910 0.14200
H 	H 	0.54180 0.73140 0.37210 0.15500
H 	H 	0.97510 0.32720 0.42280 0.02300
H 	H 	0.13760 0.31970 0.47820 0.13200
H 	H 	0.03970 0.29390 0.54850 0.15100
H 	H 	0.08130 0.39750 0.30910 0.16300
H 	H 	0.18960 0.45820 0.37210 0.15400
H 	H 	0.35210 0.02490 0.42280 0.02700
H 	H 	0.18210 0.86240 0.47820 0.15400
H 	H 	0.25420 0.96030 0.54850 0.16700
H 	H 	0.31620 0.91870 0.30910 0.17100
H 	H 	0.26860 0.81040 0.37210 0.16100
H 	H 	0.02490 0.35210 0.07720 0.16200
H 	H 	0.86240 0.18210 0.02180 -0.01100
H 	H 	0.96030 0.25420 0.95150 0.03100
H 	H 	0.91870 0.31620 0.19090 0.10400
H 	H 	0.81040 0.26860 0.12790 0.13000
H 	H 	0.64790 0.67280 0.07720 0.09300
H 	H 	0.81790 0.68030 0.02180 0.01600
H 	H 	0.74580 0.70610 0.95150 0.07400
H 	H 	0.68380 0.60250 0.19090 0.13500
H 	H 	0.73140 0.54180 0.12790 0.13700
H 	H 	0.32720 0.97510 0.07720 0.16600
H 	H 	0.31970 0.13760 0.02180 0.01400
H 	H 	0.29390 0.03970 0.95150 0.04800
H 	H 	0.39750 0.08130 0.19090 0.11300
H 	H 	0.45820 0.18960 0.12790 0.13600
H 	H 	0.32720 0.35210 0.57720 0.09400
H 	H 	0.31970 0.18210 0.52180 0.11500
H 	H 	0.29390 0.25420 0.45150 0.12000
H 	H 	0.39750 0.31620 0.69090 0.13900
H 	H 	0.45820 0.26860 0.62790 0.15000
H 	H 	0.02490 0.67280 0.57720 0.16500
H 	H 	0.86240 0.68030 0.52180 0.11300
H 	H 	0.96030 0.70610 0.45150 0.09400
H 	H 	0.91870 0.60250 0.69090 0.11800
H 	H 	0.81040 0.54180 0.62790 0.14900
H 	H 	0.64790 0.97510 0.57720 0.16100
H 	H 	0.81790 0.13760 0.52180 0.09200
H 	H 	0.74580 0.03970 0.45150 0.07800
H 	H 	0.68380 0.08130 0.69090 0.11000
H 	H 	0.73140 0.18960 0.62790 0.14300
H 	H 	0.97510 0.64790 0.92280 0.03300
H 	H 	0.13760 0.81790 0.97820 0.24100
H 	H 	0.03970 0.74580 0.04850 0.20800
H 	H 	0.08130 0.68380 0.80910 0.17200
H 	H 	0.18960 0.73140 0.87210 0.17100
H 	H 	0.35210 0.32720 0.92280 0.09600
H 	H 	0.18210 0.31970 0.97820 0.22800
H 	H 	0.25420 0.29390 0.04850 0.16900
H 	H 	0.31620 0.39750 0.80910 0.14500
H 	H 	0.26860 0.45820 0.87210 0.16700
H 	H 	0.67280 0.02490 0.92280 0.02900
H 	H 	0.68030 0.86240 0.97820 0.22600
H 	H 	0.70610 0.96030 0.04850 0.19500
H 	H 	0.60250 0.91870 0.80910 0.16500
H 	H 	0.54180 0.81040 0.87210 0.16600
C 	C 	0.54620 0.72830 0.56750 0.39300
C 	C 	0.64740 0.74480 0.50960 -0.30300
C 	C 	0.55290 0.66640 0.36170 -0.38100
C 	C 	0.43830 0.56150 0.34150 0.50200
C 	C 	0.18210 0.45380 0.56750 0.40200
C 	C 	0.09740 0.35260 0.50960 -0.31300
C 	C 	0.11350 0.44710 0.36170 -0.38500
C 	C 	0.12320 0.56170 0.34150 0.50900
C 	C 	0.27170 0.81790 0.56750 0.40800
C 	C 	0.25520 0.90260 0.50960 -0.32600
C 	C 	0.33360 0.88650 0.36170 -0.39000
C 	C 	0.43850 0.87680 0.34150 0.51100
C 	C 	0.81790 0.27170 0.93250 0.32600
C 	C 	0.90260 0.25520 0.99040 -0.06100
C 	C 	0.88650 0.33360 0.13830 -0.35100
C 	C 	0.87680 0.43850 0.15850 0.48200
C 	C 	0.72830 0.54620 0.93250 0.34300
C 	C 	0.74480 0.64740 0.99040 -0.09700
C 	C 	0.66640 0.55290 0.13830 -0.36700
C 	C 	0.56150 0.43830 0.15850 0.49300
C 	C 	0.45380 0.18210 0.93250 0.33300
C 	C 	0.35260 0.09740 0.99040 -0.08200
C 	C 	0.44710 0.11350 0.13830 -0.35600
C 	C 	0.56170 0.12320 0.15850 0.48500
C 	C 	0.45380 0.27170 0.43250 0.38900
C 	C 	0.35260 0.25520 0.49040 -0.29300
C 	C 	0.44710 0.33360 0.63830 -0.37700
C 	C 	0.56170 0.43850 0.65850 0.50100
C 	C 	0.81790 0.54620 0.43250 0.37900
C 	C 	0.90260 0.64740 0.49040 -0.28000
C 	C 	0.88650 0.55290 0.63830 -0.36700
C 	C 	0.87680 0.43830 0.65850 0.49300
C 	C 	0.72830 0.18210 0.43250 0.37400
C 	C 	0.74480 0.09740 0.49040 -0.26600
C 	C 	0.66640 0.11350 0.63830 -0.36200
C 	C 	0.56150 0.12320 0.65850 0.49100
C 	C 	0.18210 0.72830 0.06750 0.44900
C 	C 	0.09740 0.74480 0.00960 -0.50000
C 	C 	0.11350 0.66640 0.86170 -0.39500
C 	C 	0.12320 0.56150 0.84150 0.51600
C 	C 	0.27170 0.45380 0.06750 0.43700
C 	C 	0.25520 0.35260 0.00960 -0.49100
C 	C 	0.33360 0.44710 0.86170 -0.38600
C 	C 	0.43850 0.56170 0.84150 0.50800
C 	C 	0.54620 0.81790 0.06750 0.44600
C 	C 	0.64740 0.90260 0.00960 -0.49700
C 	C 	0.55290 0.88650 0.86170 -0.39100
C 	C 	0.43830 0.87680 0.84150 0.51400
N 	N 	0.61010 0.65100 0.44190 -0.15500
N 	N 	0.04090 0.38990 0.44190 -0.08700
N 	N 	0.34900 0.95910 0.44190 -0.08400
N 	N 	0.95910 0.34900 0.05810 -0.27200
N 	N 	0.65100 0.61010 0.05810 -0.20500
N 	N 	0.38990 0.04090 0.05810 -0.26800
N 	N 	0.38990 0.34900 0.55810 -0.15800
N 	N 	0.95910 0.61010 0.55810 -0.21900
N 	N 	0.65100 0.04090 0.55810 -0.22100
N 	N 	0.04090 0.65100 0.94190 -0.04000
N 	N 	0.34900 0.38990 0.94190 -0.10400
N 	N 	0.61010 0.95910 0.94190 -0.04100
O 	O 	0.45110 0.63660 0.55650 -0.53900
O 	O 	0.55910 0.80180 0.62500 -0.41600
O 	O 	0.40250 0.47560 0.39360 -0.43800
O 	O 	0.38530 0.56490 0.27380 -0.55700
O 	O 	0.18550 0.54890 0.55650 -0.52900
O 	O 	0.24270 0.44090 0.62500 -0.42200
O 	O 	0.07310 0.59750 0.39360 -0.40000
O 	O 	0.17960 0.61470 0.27380 -0.54700
O 	O 	0.36340 0.81450 0.55650 -0.53000
O 	O 	0.19820 0.75730 0.62500 -0.41200
O 	O 	0.52440 0.92690 0.39360 -0.40200
O 	O 	0.43510 0.82040 0.27380 -0.54900
O 	O 	0.81450 0.36340 0.94350 -0.50500
O 	O 	0.75730 0.19820 0.87500 -0.40800
O 	O 	0.92690 0.52440 0.10640 -0.46900
O 	O 	0.82040 0.43510 0.22620 -0.56200
O 	O 	0.63660 0.45110 0.94350 -0.50400
O 	O 	0.80180 0.55910 0.87500 -0.40500
O 	O 	0.47560 0.40250 0.10640 -0.44600
O 	O 	0.56490 0.38530 0.22620 -0.55500
O 	O 	0.54890 0.18550 0.94350 -0.50600
O 	O 	0.44090 0.24270 0.87500 -0.40000
O 	O 	0.59750 0.07310 0.10640 -0.47200
O 	O 	0.61470 0.17960 0.22620 -0.56400
O 	O 	0.54890 0.36340 0.44350 -0.53600
O 	O 	0.44090 0.19820 0.37500 -0.42700
O 	O 	0.59750 0.52440 0.60640 -0.43700
O 	O 	0.61470 0.43510 0.72620 -0.55600
O 	O 	0.81450 0.45110 0.44350 -0.53900
O 	O 	0.75730 0.55910 0.37500 -0.42200
O 	O 	0.92690 0.40250 0.60640 -0.46300
O 	O 	0.82040 0.38530 0.72620 -0.56500
O 	O 	0.63660 0.18550 0.44350 -0.53800
O 	O 	0.80180 0.24270 0.37500 -0.43100
O 	O 	0.47560 0.07310 0.60640 -0.46000
O 	O 	0.56490 0.17960 0.72620 -0.56300
O 	O 	0.18550 0.63660 0.05650 -0.55400
O 	O 	0.24270 0.80180 0.12500 -0.42900
O 	O 	0.07310 0.47560 0.89360 -0.38600
O 	O 	0.17960 0.56490 0.77380 -0.55000
O 	O 	0.36340 0.54890 0.05650 -0.56500
O 	O 	0.19820 0.44090 0.12500 -0.43500
O 	O 	0.52440 0.59750 0.89360 -0.42000
O 	O 	0.43510 0.61470 0.77380 -0.55700
O 	O 	0.45110 0.81450 0.05650 -0.55400
O 	O 	0.55910 0.75730 0.12500 -0.44100
O 	O 	0.40250 0.92690 0.89360 -0.38400
O 	O 	0.38530 0.82040 0.77380 -0.54800
