data_crystal

_cell_length_a 13.49460
_cell_length_b 13.49460
_cell_length_c 14.91200
_cell_angle_alpha 90.00000
_cell_angle_beta  90.00000
_cell_angle_gamma 120.00000

_symmetry_space_group_name_	'P 1'
_symmetry_space_group_name_H-M	'P 1'

loop_
_symmetry_equiv_pos_as_xyz
  x,y,z

loop_
_atom_site_label
_atom_site_type_symbol
_atom_site_fract_x
_atom_site_fract_y
_atom_site_fract_z
_atom_site_charge
La	La	0.33333 0.66666 0.66912 1.72800
La	La	0.66667 0.33334 0.83088 1.72800
La	La	0.66667 0.33334 0.33088 1.72600
La	La	0.33333 0.66666 0.16912 1.72700
Cu	Cu	0.50000 0.00000 0.50000 0.90000
Cu	Cu	0.50000 0.50000 0.50000 0.92900
Cu	Cu	-0.00000 0.50000 0.50000 0.89900
Cu	Cu	0.50000 0.00000 -0.00000 0.87400
Cu	Cu	-0.00000 0.50000 -0.00000 0.87200
Cu	Cu	0.50000 0.50000 -0.00000 0.90200
H 	H 	0.35280 0.02560 0.42330 0.03600
H 	H 	0.18330 0.86380 0.47790 0.12800
H 	H 	0.25530 0.96180 0.54690 0.14900
H 	H 	0.31640 0.91960 0.31150 0.16200
H 	H 	0.26960 0.81170 0.37360 0.15600
H 	H 	0.67280 0.64720 0.42330 0.09900
H 	H 	0.68050 0.81670 0.47790 0.14700
H 	H 	0.70650 0.74470 0.54690 0.14200
H 	H 	0.60320 0.68360 0.31150 0.15200
H 	H 	0.54210 0.73040 0.37360 0.16200
H 	H 	0.97440 0.32720 0.42330 0.15500
H 	H 	0.13620 0.31950 0.47790 0.10900
H 	H 	0.03820 0.29350 0.54690 0.09200
H 	H 	0.08040 0.39680 0.31150 0.11900
H 	H 	0.18830 0.45790 0.37360 0.15000
H 	H 	0.32720 0.97440 0.07670 0.15200
H 	H 	0.31950 0.13620 0.02210 0.00600
H 	H 	0.29350 0.03820 0.95310 0.04400
H 	H 	0.39680 0.08040 0.18850 0.11600
H 	H 	0.45790 0.18830 0.12640 0.13700
H 	H 	0.02560 0.35280 0.07670 0.03200
H 	H 	0.86380 0.18330 0.02210 0.03000
H 	H 	0.96180 0.25530 0.95310 0.10400
H 	H 	0.91960 0.31640 0.18850 0.16000
H 	H 	0.81170 0.26960 0.12640 0.14300
H 	H 	0.64720 0.67280 0.07670 0.09800
H 	H 	0.81670 0.68050 0.02210 0.04900
H 	H 	0.74470 0.70650 0.95310 0.09500
H 	H 	0.68360 0.60320 0.18850 0.14900
H 	H 	0.73040 0.54210 0.12640 0.14900
H 	H 	0.64720 0.97440 0.57670 0.15500
H 	H 	0.81670 0.13620 0.52210 0.12900
H 	H 	0.74470 0.03820 0.45310 0.10600
H 	H 	0.68360 0.08040 0.68850 0.12800
H 	H 	0.73040 0.18830 0.62640 0.15700
H 	H 	0.32720 0.35280 0.57670 0.09200
H 	H 	0.31950 0.18330 0.52210 0.11100
H 	H 	0.29350 0.25530 0.45310 0.11400
H 	H 	0.39680 0.31640 0.68850 0.13900
H 	H 	0.45790 0.26960 0.62640 0.15200
H 	H 	0.02560 0.67280 0.57670 0.03700
H 	H 	0.86380 0.68050 0.52210 0.14700
H 	H 	0.96180 0.70650 0.45310 0.16400
H 	H 	0.91960 0.60320 0.68850 0.17000
H 	H 	0.81170 0.54210 0.62640 0.16200
H 	H 	0.67280 0.02560 0.92330 0.04500
H 	H 	0.68050 0.86380 0.97790 0.24300
H 	H 	0.70650 0.96180 0.04690 0.20800
H 	H 	0.60320 0.91960 0.81150 0.17100
H 	H 	0.54210 0.81170 0.87360 0.17300
H 	H 	0.97440 0.64720 0.92330 0.15800
H 	H 	0.13620 0.81670 0.97790 0.22600
H 	H 	0.03820 0.74470 0.04690 0.15100
H 	H 	0.08040 0.68360 0.81150 0.12900
H 	H 	0.18830 0.73040 0.87360 0.16800
H 	H 	0.35280 0.32720 0.92330 0.09400
H 	H 	0.18330 0.31950 0.97790 0.21400
H 	H 	0.25530 0.29350 0.04690 0.16200
H 	H 	0.31640 0.39680 0.81150 0.14100
H 	H 	0.26960 0.45790 0.87360 0.16400
C 	C 	0.27290 0.81990 0.56590 0.38800
C 	C 	0.25630 0.90410 0.50870 -0.31700
C 	C 	0.33410 0.88770 0.36320 -0.37300
C 	C 	0.43930 0.87840 0.34290 0.45500
C 	C 	0.54700 0.72710 0.56590 0.38500
C 	C 	0.64780 0.74370 0.50870 -0.32100
C 	C 	0.55360 0.66590 0.36320 -0.37400
C 	C 	0.43910 0.56070 0.34290 0.45200
C 	C 	0.18010 0.45300 0.56590 0.36700
C 	C 	0.09590 0.35220 0.50870 -0.28600
C 	C 	0.11230 0.44640 0.36320 -0.35600
C 	C 	0.12160 0.56090 0.34290 0.44100
C 	C 	0.45300 0.18010 0.93410 0.31800
C 	C 	0.35220 0.09590 0.99130 -0.07800
C 	C 	0.44640 0.11230 0.13680 -0.34600
C 	C 	0.56090 0.12160 0.15710 0.43400
C 	C 	0.81990 0.27290 0.93410 0.34200
C 	C 	0.90410 0.25630 0.99130 -0.12000
C 	C 	0.88770 0.33410 0.13680 -0.36400
C 	C 	0.87840 0.43930 0.15710 0.44800
C 	C 	0.72710 0.54700 0.93410 0.33900
C 	C 	0.74370 0.64780 0.99130 -0.12300
C 	C 	0.66590 0.55360 0.13680 -0.36400
C 	C 	0.56070 0.43910 0.15710 0.44500
C 	C 	0.72710 0.18010 0.43410 0.37200
C 	C 	0.74370 0.09590 0.49130 -0.29800
C 	C 	0.66590 0.11230 0.63680 -0.36200
C 	C 	0.56070 0.12160 0.65710 0.44400
C 	C 	0.45300 0.27290 0.43410 0.37500
C 	C 	0.35220 0.25630 0.49130 -0.29800
C 	C 	0.44640 0.33410 0.63680 -0.36600
C 	C 	0.56090 0.43930 0.65710 0.44800
C 	C 	0.81990 0.54700 0.43410 0.39300
C 	C 	0.90410 0.64780 0.49130 -0.32900
C 	C 	0.88770 0.55360 0.63680 -0.37900
C 	C 	0.87840 0.43910 0.65710 0.45700
C 	C 	0.54700 0.81990 0.06590 0.43800
C 	C 	0.64780 0.90410 0.00870 -0.52000
C 	C 	0.55360 0.88770 0.86320 -0.38400
C 	C 	0.43910 0.87840 0.84290 0.46300
C 	C 	0.18010 0.72710 0.06590 0.41800
C 	C 	0.09590 0.74370 0.00870 -0.49300
C 	C 	0.11230 0.66590 0.86320 -0.36700
C 	C 	0.12160 0.56070 0.84290 0.44800
C 	C 	0.27290 0.45300 0.06590 0.42400
C 	C 	0.25630 0.35220 0.00870 -0.50100
C 	C 	0.33410 0.44640 0.86320 -0.37200
C 	C 	0.43930 0.56090 0.84290 0.45400
N 	N 	0.34950 0.95990 0.44220 -0.09600
N 	N 	0.61040 0.65050 0.44220 -0.15000
N 	N 	0.04010 0.38960 0.44220 -0.20900
N 	N 	0.38960 0.04010 0.05780 -0.25700
N 	N 	0.95990 0.34950 0.05780 -0.14000
N 	N 	0.65050 0.61040 0.05780 -0.19800
N 	N 	0.65050 0.04010 0.55780 -0.20300
N 	N 	0.38960 0.34950 0.55780 -0.15500
N 	N 	0.95990 0.61040 0.55780 -0.09100
N 	N 	0.61040 0.95990 0.94220 -0.04400
N 	N 	0.04010 0.65050 0.94220 -0.15200
N 	N 	0.34950 0.38960 0.94220 -0.10000
O 	O 	0.36430 0.81700 0.55600 -0.44600
O 	O 	0.19870 0.75970 0.62250 -0.37700
O 	O 	0.52370 0.92700 0.39521 -0.38800
O 	O 	0.43620 0.82340 0.27590 -0.43600
O 	O 	0.45270 0.63570 0.55600 -0.45500
O 	O 	0.56100 0.80130 0.62250 -0.36400
O 	O 	0.40330 0.47630 0.39521 -0.42200
O 	O 	0.38720 0.56380 0.27590 -0.44600
O 	O 	0.18300 0.54730 0.55600 -0.45700
O 	O 	0.24030 0.43900 0.62250 -0.37700
O 	O 	0.07300 0.59670 0.39521 -0.44000
O 	O 	0.17660 0.61280 0.27590 -0.45100
O 	O 	0.54730 0.18300 0.94400 -0.42200
O 	O 	0.43900 0.24030 0.87750 -0.35400
O 	O 	0.59670 0.07300 0.10479 -0.44700
O 	O 	0.61280 0.17660 0.22410 -0.45100
O 	O 	0.81700 0.36430 0.94400 -0.41200
O 	O 	0.75970 0.19870 0.87750 -0.35600
O 	O 	0.92700 0.52370 0.10479 -0.39400
O 	O 	0.82340 0.43620 0.22410 -0.43600
O 	O 	0.63570 0.45270 0.94400 -0.42200
O 	O 	0.80130 0.56100 0.87750 -0.34300
O 	O 	0.47630 0.40330 0.10479 -0.43100
O 	O 	0.56380 0.38720 0.22410 -0.44700
O 	O 	0.63570 0.18300 0.44400 -0.45700
O 	O 	0.80130 0.24030 0.37750 -0.36800
O 	O 	0.47630 0.07300 0.60479 -0.44100
O 	O 	0.56380 0.17660 0.72410 -0.45300
O 	O 	0.54730 0.36430 0.44400 -0.45400
O 	O 	0.43900 0.19870 0.37750 -0.38200
O 	O 	0.59670 0.52370 0.60479 -0.41700
O 	O 	0.61280 0.43620 0.72410 -0.44400
O 	O 	0.81700 0.45270 0.44400 -0.44600
O 	O 	0.75970 0.56100 0.37750 -0.37000
O 	O 	0.92700 0.40330 0.60479 -0.38800
O 	O 	0.82340 0.38720 0.72410 -0.43800
O 	O 	0.45270 0.81700 0.05600 -0.47300
O 	O 	0.56100 0.75970 0.12250 -0.39000
O 	O 	0.40330 0.92700 0.89521 -0.37200
O 	O 	0.38720 0.82340 0.77590 -0.43800
O 	O 	0.18300 0.63570 0.05600 -0.48500
O 	O 	0.24030 0.80130 0.12250 -0.38900
O 	O 	0.07300 0.47630 0.89521 -0.42200
O 	O 	0.17660 0.56380 0.77590 -0.45200
O 	O 	0.36430 0.54730 0.05600 -0.48200
O 	O 	0.19870 0.43900 0.12250 -0.40300
O 	O 	0.52370 0.59670 0.89521 -0.39800
O 	O 	0.43620 0.61280 0.77590 -0.44300
