data_crystal

_cell_length_a 13.38800
_cell_length_b 13.38800
_cell_length_c 14.30600
_cell_angle_alpha 90.00000
_cell_angle_beta  90.00000
_cell_angle_gamma 120.00000

_symmetry_space_group_name_	'P 1'
_symmetry_space_group_name_H-M	'P 1'

loop_
_symmetry_equiv_pos_as_xyz
  x,y,z

loop_
_atom_site_label
_atom_site_type_symbol
_atom_site_fract_x
_atom_site_fract_y
_atom_site_fract_z
_atom_site_charge
Ho	Ho	0.33333 0.66666 0.66691 1.92800
Ho	Ho	0.66667 0.33334 0.83309 1.92700
Ho	Ho	0.66667 0.33334 0.33309 1.92300
Ho	Ho	0.33333 0.66666 0.16691 1.92400
Cu	Cu	0.50000 0.00000 0.50000 0.89900
Cu	Cu	0.50000 0.50000 0.50000 0.92900
Cu	Cu	-0.00000 0.50000 0.50000 0.89700
Cu	Cu	0.50000 0.00000 -0.00000 0.87100
Cu	Cu	-0.00000 0.50000 -0.00000 0.87000
Cu	Cu	0.50000 0.50000 -0.00000 0.90000
H 	H 	0.67250 0.02230 0.42050 0.03900
H 	H 	0.70390 0.95890 0.55210 0.16500
H 	H 	0.68100 0.86130 0.48010 0.14800
H 	H 	0.53910 0.80590 0.37100 0.16700
H 	H 	0.60030 0.91340 0.30490 0.17400
H 	H 	0.34980 0.32750 0.42050 0.09100
H 	H 	0.25500 0.29610 0.55210 0.11600
H 	H 	0.18030 0.31900 0.48010 0.11000
H 	H 	0.26680 0.46090 0.37100 0.15700
H 	H 	0.31310 0.39970 0.30490 0.14300
H 	H 	0.97770 0.65020 0.42050 0.16000
H 	H 	0.04110 0.74500 0.55210 0.10500
H 	H 	0.13870 0.81970 0.48010 0.12800
H 	H 	0.19410 0.73320 0.37100 0.16200
H 	H 	0.08660 0.68690 0.30490 0.13100
H 	H 	0.65020 0.97770 0.07950 0.15600
H 	H 	0.74500 0.04110 0.94790 0.05900
H 	H 	0.81970 0.13870 0.01990 0.02600
H 	H 	0.73320 0.19410 0.12900 0.14900
H 	H 	0.68690 0.08660 0.19510 0.12900
H 	H 	0.02230 0.67250 0.07950 0.03400
H 	H 	0.95890 0.70390 0.94790 0.11800
H 	H 	0.86130 0.68100 0.01990 0.04900
H 	H 	0.80590 0.53910 0.12900 0.15400
H 	H 	0.91340 0.60030 0.19510 0.17100
H 	H 	0.32750 0.34980 0.07950 0.09000
H 	H 	0.29610 0.25500 0.94790 0.06500
H 	H 	0.31900 0.18030 0.01990 0.00500
H 	H 	0.46090 0.26680 0.12900 0.14400
H 	H 	0.39970 0.31310 0.19510 0.13900
H 	H 	0.32750 0.97770 0.57950 0.15300
H 	H 	0.29610 0.04110 0.44790 0.09200
H 	H 	0.31900 0.13870 0.51990 0.11000
H 	H 	0.46090 0.19410 0.62900 0.15700
H 	H 	0.39970 0.08660 0.69510 0.12700
H 	H 	0.65020 0.67250 0.57950 0.09900
H 	H 	0.74500 0.70390 0.44790 0.14200
H 	H 	0.81970 0.68100 0.51990 0.14900
H 	H 	0.73320 0.53910 0.62900 0.16800
H 	H 	0.68690 0.60030 0.69510 0.15800
H 	H 	0.02230 0.34980 0.57950 0.03200
H 	H 	0.95890 0.25500 0.44790 0.15200
H 	H 	0.86130 0.18030 0.51990 0.13100
H 	H 	0.80590 0.26680 0.62900 0.16200
H 	H 	0.91340 0.31310 0.69510 0.16900
H 	H 	0.34980 0.02230 0.92050 0.04100
H 	H 	0.25500 0.95890 0.05210 0.19800
H 	H 	0.18030 0.86130 0.98010 0.22900
H 	H 	0.26680 0.80590 0.87100 0.17400
H 	H 	0.31310 0.91340 0.80490 0.16900
H 	H 	0.97770 0.32750 0.92050 0.15600
H 	H 	0.04110 0.29610 0.05210 0.14100
H 	H 	0.13870 0.31900 0.98010 0.21500
H 	H 	0.19410 0.46090 0.87100 0.17000
H 	H 	0.08660 0.39970 0.80490 0.12900
H 	H 	0.67250 0.65020 0.92050 0.10100
H 	H 	0.70390 0.74500 0.05210 0.19000
H 	H 	0.68100 0.81970 0.98010 0.24800
H 	H 	0.53910 0.73320 0.87100 0.18000
H 	H 	0.60030 0.68690 0.80490 0.16000
C 	C 	0.54570 0.81480 0.56960 0.41200
C 	C 	0.64620 0.90060 0.51150 -0.33600
C 	C 	0.55090 0.88250 0.35930 -0.39100
C 	C 	0.43730 0.87330 0.33900 0.48200
C 	C 	0.26910 0.45430 0.56960 0.39400
C 	C 	0.25440 0.35380 0.51150 -0.30300
C 	C 	0.33160 0.44910 0.35930 -0.37800
C 	C 	0.43600 0.56270 0.33900 0.47200
C 	C 	0.18520 0.73090 0.56960 0.39100
C 	C 	0.09940 0.74560 0.51150 -0.30300
C 	C 	0.11750 0.66840 0.35930 -0.37300
C 	C 	0.12670 0.56400 0.33900 0.46700
C 	C 	0.73090 0.18520 0.93040 0.34100
C 	C 	0.74560 0.09940 0.98850 -0.09700
C 	C 	0.66840 0.11750 0.14070 -0.36300
C 	C 	0.56400 0.12670 0.16100 0.45900
C 	C 	0.81480 0.54570 0.93040 0.36400
C 	C 	0.90060 0.64620 0.98850 -0.13800
C 	C 	0.88250 0.55090 0.14070 -0.38100
C 	C 	0.87330 0.43730 0.16100 0.47400
C 	C 	0.45430 0.26910 0.93040 0.34200
C 	C 	0.35380 0.25440 0.98850 -0.09100
C 	C 	0.44910 0.33160 0.14070 -0.36700
C 	C 	0.56270 0.43600 0.16100 0.46400
C 	C 	0.45430 0.18520 0.43040 0.38500
C 	C 	0.35380 0.09940 0.48850 -0.29200
C 	C 	0.44910 0.11750 0.64070 -0.37000
C 	C 	0.56270 0.12670 0.66100 0.46600
C 	C 	0.73090 0.54570 0.43040 0.40400
C 	C 	0.74560 0.64620 0.48850 -0.32800
C 	C 	0.66840 0.55090 0.64070 -0.38700
C 	C 	0.56400 0.43730 0.66100 0.47700
C 	C 	0.81480 0.26910 0.43040 0.40800
C 	C 	0.90060 0.25440 0.48850 -0.32500
C 	C 	0.88250 0.33160 0.64070 -0.38700
C 	C 	0.87330 0.43600 0.66100 0.48000
C 	C 	0.26910 0.81480 0.06960 0.45600
C 	C 	0.25440 0.90060 0.01150 -0.52000
C 	C 	0.33160 0.88250 0.85930 -0.39300
C 	C 	0.43600 0.87330 0.83900 0.48600
C 	C 	0.18520 0.45430 0.06960 0.43700
C 	C 	0.09940 0.35380 0.01150 -0.49900
C 	C 	0.11750 0.44910 0.85930 -0.37600
C 	C 	0.12670 0.56270 0.83900 0.47200
C 	C 	0.54570 0.73090 0.06960 0.45300
C 	C 	0.64620 0.74560 0.01150 -0.52500
C 	C 	0.55090 0.66840 0.85930 -0.39300
C 	C 	0.43730 0.56400 0.83900 0.48300
N 	N 	0.60920 0.95690 0.44080 -0.09300
N 	N 	0.34770 0.39080 0.44080 -0.15600
N 	N 	0.04310 0.65230 0.44080 -0.20900
N 	N 	0.65230 0.04310 0.05920 -0.25500
N 	N 	0.95690 0.60920 0.05920 -0.13700
N 	N 	0.39080 0.34770 0.05920 -0.20600
N 	N 	0.39080 0.04310 0.55920 -0.20700
N 	N 	0.65230 0.60920 0.55920 -0.15100
N 	N 	0.95690 0.34770 0.55920 -0.09200
N 	N 	0.34770 0.95690 0.94080 -0.04500
N 	N 	0.04310 0.39080 0.94080 -0.15400
N 	N 	0.60920 0.65230 0.94080 -0.09800
O 	O 	0.44970 0.81000 0.55900 -0.49000
O 	O 	0.55900 0.75300 0.62760 -0.38000
O 	O 	0.40210 0.92650 0.39080 -0.39200
O 	O 	0.37970 0.81410 0.27010 -0.48500
O 	O 	0.36030 0.55030 0.55900 -0.49700
O 	O 	0.19400 0.44100 0.62760 -0.39000
O 	O 	0.52440 0.59790 0.39080 -0.42000
O 	O 	0.43440 0.62030 0.27010 -0.49000
O 	O 	0.19000 0.63970 0.55900 -0.50000
O 	O 	0.24700 0.80600 0.62760 -0.37700
O 	O 	0.07350 0.47560 0.39080 -0.44600
O 	O 	0.18590 0.56560 0.27010 -0.49800
O 	O 	0.63970 0.19000 0.94100 -0.46500
O 	O 	0.80600 0.24700 0.87240 -0.35300
O 	O 	0.47560 0.07350 0.10920 -0.45300
O 	O 	0.56560 0.18590 0.22990 -0.49900
O 	O 	0.81000 0.44970 0.94100 -0.45600
O 	O 	0.75300 0.55900 0.87240 -0.35800
O 	O 	0.92650 0.40210 0.10920 -0.39800
O 	O 	0.81410 0.37970 0.22990 -0.48600
O 	O 	0.55030 0.36030 0.94100 -0.46200
O 	O 	0.44100 0.19400 0.87240 -0.36600
O 	O 	0.59790 0.52440 0.10920 -0.42800
O 	O 	0.62030 0.43440 0.22990 -0.49000
O 	O 	0.55030 0.19000 0.44100 -0.49900
O 	O 	0.44100 0.24700 0.37240 -0.38600
O 	O 	0.59790 0.07350 0.60920 -0.44200
O 	O 	0.62030 0.18590 0.72990 -0.49800
O 	O 	0.63970 0.44970 0.44100 -0.49700
O 	O 	0.80600 0.55900 0.37240 -0.37400
O 	O 	0.47560 0.40210 0.60920 -0.42400
O 	O 	0.56560 0.37970 0.72990 -0.49500
O 	O 	0.81000 0.36030 0.44100 -0.48800
O 	O 	0.75300 0.19400 0.37240 -0.38700
O 	O 	0.92650 0.52440 0.60920 -0.38800
O 	O 	0.81410 0.43440 0.72990 -0.48500
O 	O 	0.36030 0.81000 0.05900 -0.51700
O 	O 	0.19400 0.75300 0.12760 -0.40900
O 	O 	0.52440 0.92650 0.89080 -0.37200
O 	O 	0.43440 0.81410 0.77010 -0.48500
O 	O 	0.19000 0.55030 0.05900 -0.52800
O 	O 	0.24700 0.44100 0.12760 -0.40800
O 	O 	0.07350 0.59790 0.89080 -0.42400
O 	O 	0.18590 0.62030 0.77010 -0.49800
O 	O 	0.44970 0.63970 0.05900 -0.52600
O 	O 	0.55900 0.80600 0.12760 -0.39500
O 	O 	0.40210 0.47560 0.89080 -0.40600
O 	O 	0.37970 0.56560 0.77010 -0.49400
