data_crystal

_cell_length_a 13.41050
_cell_length_b 13.41050
_cell_length_c 14.58080
_cell_angle_alpha 90.00000
_cell_angle_beta  90.00000
_cell_angle_gamma 120.00000

_symmetry_space_group_name_	'P 1'
_symmetry_space_group_name_H-M	'P 1'

loop_
_symmetry_equiv_pos_as_xyz
  x,y,z

loop_
_atom_site_label
_atom_site_type_symbol
_atom_site_fract_x
_atom_site_fract_y
_atom_site_fract_z
_atom_site_charge
Sm	Sm	0.33333 0.66666 0.66786 2.20700
Sm	Sm	0.66667 0.33334 0.83214 2.20800
Sm	Sm	0.66667 0.33334 0.33214 2.20100
Sm	Sm	0.33333 0.66666 0.16786 2.20200
Cu	Cu	0.50000 0.00000 0.50000 0.90000
Cu	Cu	0.50000 0.50000 0.50000 0.92900
Cu	Cu	-0.00000 0.50000 0.50000 0.89800
Cu	Cu	0.50000 0.00000 -0.00000 0.87200
Cu	Cu	-0.00000 0.50000 -0.00000 0.87000
Cu	Cu	0.50000 0.50000 -0.00000 0.90100
H 	H 	0.35120 0.02370 0.42220 0.03500
H 	H 	0.18100 0.86200 0.47910 0.12500
H 	H 	0.25440 0.96010 0.54980 0.14600
H 	H 	0.31480 0.91670 0.30800 0.16200
H 	H 	0.26790 0.80840 0.37190 0.15700
H 	H 	0.67250 0.64880 0.42220 0.09800
H 	H 	0.68100 0.81900 0.47910 0.14400
H 	H 	0.70570 0.74560 0.54980 0.13800
H 	H 	0.60190 0.68520 0.30800 0.15200
H 	H 	0.54050 0.73210 0.37190 0.16400
H 	H 	0.97630 0.32750 0.42220 0.15500
H 	H 	0.13800 0.31900 0.47910 0.10500
H 	H 	0.03990 0.29430 0.54980 0.08800
H 	H 	0.08330 0.39810 0.30800 0.11900
H 	H 	0.19160 0.45950 0.37190 0.15200
H 	H 	0.32750 0.97630 0.07780 0.15100
H 	H 	0.31900 0.13800 0.02090 0.00100
H 	H 	0.29430 0.03990 0.95020 0.04000
H 	H 	0.39810 0.08330 0.19200 0.11600
H 	H 	0.45950 0.19160 0.12810 0.13900
H 	H 	0.02370 0.35120 0.07780 0.03000
H 	H 	0.86200 0.18100 0.02090 0.02600
H 	H 	0.96010 0.25440 0.95020 0.10000
H 	H 	0.91670 0.31480 0.19200 0.16000
H 	H 	0.80840 0.26790 0.12810 0.14500
H 	H 	0.64880 0.67250 0.07780 0.09700
H 	H 	0.81900 0.68100 0.02090 0.04500
H 	H 	0.74560 0.70570 0.95020 0.09100
H 	H 	0.68520 0.60190 0.19200 0.14900
H 	H 	0.73210 0.54050 0.12810 0.15100
H 	H 	0.64880 0.97630 0.57780 0.15500
H 	H 	0.81900 0.13800 0.52090 0.12600
H 	H 	0.74560 0.03990 0.45020 0.10200
H 	H 	0.68520 0.08330 0.69200 0.12800
H 	H 	0.73210 0.19160 0.62810 0.15800
H 	H 	0.32750 0.35120 0.57780 0.09100
H 	H 	0.31900 0.18100 0.52090 0.10700
H 	H 	0.29430 0.25440 0.45020 0.11000
H 	H 	0.39810 0.31480 0.69200 0.13900
H 	H 	0.45950 0.26790 0.62810 0.15400
H 	H 	0.02370 0.67250 0.57780 0.03600
H 	H 	0.86200 0.68100 0.52090 0.14400
H 	H 	0.96010 0.70570 0.45020 0.16000
H 	H 	0.91670 0.60190 0.69200 0.17000
H 	H 	0.80840 0.54050 0.62810 0.16300
H 	H 	0.67250 0.02370 0.92220 0.04300
H 	H 	0.68100 0.86200 0.97910 0.24100
H 	H 	0.70570 0.96010 0.04980 0.20500
H 	H 	0.60190 0.91670 0.80800 0.17100
H 	H 	0.54050 0.80840 0.87190 0.17500
H 	H 	0.97630 0.64880 0.92220 0.15900
H 	H 	0.13800 0.81900 0.97910 0.22400
H 	H 	0.03990 0.74560 0.04980 0.14700
H 	H 	0.08330 0.68520 0.80800 0.12900
H 	H 	0.19160 0.73210 0.87190 0.17000
H 	H 	0.35120 0.32750 0.92220 0.09300
H 	H 	0.18100 0.31900 0.97910 0.21100
H 	H 	0.25440 0.29430 0.04980 0.15900
H 	H 	0.31480 0.39810 0.80800 0.14100
H 	H 	0.26790 0.45950 0.87190 0.16600
C 	C 	0.27090 0.81680 0.56810 0.39900
C 	C 	0.25460 0.90190 0.51030 -0.31000
C 	C 	0.33270 0.88480 0.36110 -0.38800
C 	C 	0.43750 0.87570 0.34080 0.49800
C 	C 	0.54590 0.72910 0.56810 0.39700
C 	C 	0.64730 0.74540 0.51030 -0.31400
C 	C 	0.55210 0.66730 0.36110 -0.38900
C 	C 	0.43820 0.56250 0.34080 0.49500
C 	C 	0.18320 0.45410 0.56810 0.37800
C 	C 	0.09810 0.35270 0.51030 -0.27900
C 	C 	0.11520 0.44790 0.36110 -0.37100
C 	C 	0.12430 0.56180 0.34080 0.48300
C 	C 	0.45410 0.18320 0.93190 0.32800
C 	C 	0.35270 0.09810 0.98970 -0.06900
C 	C 	0.44790 0.11520 0.13890 -0.36100
C 	C 	0.56180 0.12430 0.15920 0.47600
C 	C 	0.81680 0.27090 0.93190 0.35200
C 	C 	0.90190 0.25460 0.98970 -0.11200
C 	C 	0.88480 0.33270 0.13890 -0.37900
C 	C 	0.87570 0.43750 0.15920 0.49100
C 	C 	0.72910 0.54590 0.93190 0.34900
C 	C 	0.74540 0.64730 0.98970 -0.11600
C 	C 	0.66730 0.55210 0.13890 -0.37900
C 	C 	0.56250 0.43820 0.15920 0.48700
C 	C 	0.72910 0.18320 0.43190 0.38300
C 	C 	0.74540 0.09810 0.48970 -0.29200
C 	C 	0.66730 0.11520 0.63890 -0.37700
C 	C 	0.56250 0.12430 0.65920 0.48600
C 	C 	0.45410 0.27090 0.43190 0.38600
C 	C 	0.35270 0.25460 0.48970 -0.29100
C 	C 	0.44790 0.33270 0.63890 -0.38100
C 	C 	0.56180 0.43750 0.65920 0.49100
C 	C 	0.81680 0.54590 0.43190 0.40400
C 	C 	0.90190 0.64730 0.48970 -0.32300
C 	C 	0.88480 0.55210 0.63890 -0.39400
C 	C 	0.87570 0.43820 0.65920 0.50100
C 	C 	0.54590 0.81680 0.06810 0.45000
C 	C 	0.64730 0.90190 0.01030 -0.51500
C 	C 	0.55210 0.88480 0.86110 -0.39900
C 	C 	0.43820 0.87570 0.84080 0.50600
C 	C 	0.18320 0.72910 0.06810 0.43000
C 	C 	0.09810 0.74540 0.01030 -0.48900
C 	C 	0.11520 0.66730 0.86110 -0.38200
C 	C 	0.12430 0.56250 0.84080 0.49200
C 	C 	0.27090 0.45410 0.06810 0.43600
C 	C 	0.25460 0.35270 0.01030 -0.49600
C 	C 	0.33270 0.44790 0.86110 -0.38700
C 	C 	0.43750 0.56180 0.84080 0.49700
N 	N 	0.34850 0.95810 0.44180 -0.09800
N 	N 	0.60960 0.65150 0.44180 -0.15300
N 	N 	0.04190 0.39040 0.44180 -0.21300
N 	N 	0.39040 0.04190 0.05820 -0.26100
N 	N 	0.95810 0.34850 0.05820 -0.14200
N 	N 	0.65150 0.60960 0.05820 -0.20100
N 	N 	0.65150 0.04190 0.55820 -0.20700
N 	N 	0.39040 0.34850 0.55820 -0.15800
N 	N 	0.95810 0.60960 0.55820 -0.09300
N 	N 	0.60960 0.95810 0.94180 -0.04600
N 	N 	0.04190 0.65150 0.94180 -0.15500
N 	N 	0.34850 0.39040 0.94180 -0.10300
O 	O 	0.36230 0.81310 0.55700 -0.51200
O 	O 	0.19650 0.75530 0.62610 -0.41000
O 	O 	0.52440 0.92650 0.39290 -0.39900
O 	O 	0.43540 0.81860 0.27290 -0.52100
O 	O 	0.45080 0.63770 0.55700 -0.52100
O 	O 	0.55880 0.80350 0.62610 -0.39600
O 	O 	0.40210 0.47560 0.39290 -0.43400
O 	O 	0.38320 0.56460 0.27290 -0.53100
O 	O 	0.18690 0.54920 0.55700 -0.52300
O 	O 	0.24470 0.44120 0.62610 -0.40800
O 	O 	0.07350 0.59790 0.39290 -0.45300
O 	O 	0.18140 0.61680 0.27290 -0.53500
O 	O 	0.54920 0.18690 0.94300 -0.48800
O 	O 	0.44120 0.24470 0.87390 -0.38600
O 	O 	0.59790 0.07350 0.10710 -0.46000
O 	O 	0.61680 0.18140 0.22710 -0.53500
O 	O 	0.81310 0.36230 0.94300 -0.47900
O 	O 	0.75530 0.19650 0.87390 -0.38800
O 	O 	0.92650 0.52440 0.10710 -0.40600
O 	O 	0.81860 0.43540 0.22710 -0.52200
O 	O 	0.63770 0.45080 0.94300 -0.48800
O 	O 	0.80350 0.55880 0.87390 -0.37500
O 	O 	0.47560 0.40210 0.10710 -0.44300
O 	O 	0.56460 0.38320 0.22710 -0.53200
O 	O 	0.63770 0.18690 0.44300 -0.52200
O 	O 	0.80350 0.24470 0.37390 -0.39900
O 	O 	0.47560 0.07350 0.60710 -0.45300
O 	O 	0.56460 0.18140 0.72710 -0.53800
O 	O 	0.54920 0.36230 0.44300 -0.51900
O 	O 	0.44120 0.19650 0.37390 -0.41300
O 	O 	0.59790 0.52440 0.60710 -0.42900
O 	O 	0.61680 0.43540 0.72710 -0.52900
O 	O 	0.81310 0.45080 0.44300 -0.51200
O 	O 	0.75530 0.55880 0.37390 -0.40200
O 	O 	0.92650 0.40210 0.60710 -0.40000
O 	O 	0.81860 0.38320 0.72710 -0.52400
O 	O 	0.45080 0.81310 0.05700 -0.53900
O 	O 	0.55880 0.75530 0.12610 -0.42200
O 	O 	0.40210 0.92650 0.89290 -0.38400
O 	O 	0.38320 0.81860 0.77290 -0.52400
O 	O 	0.18690 0.63770 0.05700 -0.55100
O 	O 	0.24470 0.80350 0.12610 -0.42000
O 	O 	0.07350 0.47560 0.89290 -0.43500
O 	O 	0.18140 0.56460 0.77290 -0.53700
O 	O 	0.36230 0.54920 0.05700 -0.54800
O 	O 	0.19650 0.44120 0.12610 -0.43400
O 	O 	0.52440 0.59790 0.89290 -0.41100
O 	O 	0.43540 0.61680 0.77290 -0.52800
