data_crystal

_cell_length_a 13.41470
_cell_length_b 13.41470
_cell_length_c 14.46220
_cell_angle_alpha 90.00000
_cell_angle_beta  90.00000
_cell_angle_gamma 120.00000

_symmetry_space_group_name_	'P 1'
_symmetry_space_group_name_H-M	'P 1'

loop_
_symmetry_equiv_pos_as_xyz
  x,y,z

loop_
_atom_site_label
_atom_site_type_symbol
_atom_site_fract_x
_atom_site_fract_y
_atom_site_fract_z
_atom_site_charge
Gd	Gd	0.33333 0.66666 0.66730 1.70600
Gd	Gd	0.66667 0.33334 0.83270 1.69000
Gd	Gd	0.66667 0.33334 0.33270 1.68900
Gd	Gd	0.33333 0.66666 0.16730 1.70500
Cu	Cu	0.50000 0.00000 0.50000 0.89300
Cu	Cu	0.50000 0.50000 0.50000 0.92800
Cu	Cu	1.00000 0.50000 0.50000 0.89200
Cu	Cu	0.50000 0.00000 -0.00000 0.88500
Cu	Cu	1.00000 0.50000 1.00000 0.90000
Cu	Cu	0.50000 0.50000 -0.00000 0.92000
H 	H 	0.70450 0.95960 0.55100 0.15700
H 	H 	0.68170 0.86230 0.47960 0.13700
H 	H 	0.54000 0.80730 0.37160 0.16200
H 	H 	0.60160 0.91490 0.30660 0.17000
H 	H 	0.67270 0.02310 0.42120 0.02200
H 	H 	0.25510 0.29550 0.55100 0.13000
H 	H 	0.18060 0.31830 0.47960 0.13800
H 	H 	0.26730 0.46000 0.37160 0.16300
H 	H 	0.31330 0.39840 0.30660 0.15000
H 	H 	0.35040 0.32730 0.42120 0.09600
H 	H 	0.04040 0.74490 0.55100 0.17300
H 	H 	0.13770 0.81940 0.47960 0.16000
H 	H 	0.19270 0.73270 0.37160 0.16900
H 	H 	0.08510 0.68670 0.30660 0.17800
H 	H 	0.97690 0.64960 0.42120 0.02700
H 	H 	0.74490 0.04040 0.94900 0.06700
H 	H 	0.81940 0.13770 0.02040 0.06300
H 	H 	0.73270 0.19270 0.12840 0.14700
H 	H 	0.68670 0.08510 0.19340 0.11400
H 	H 	0.64960 0.97690 0.07880 0.16700
H 	H 	0.95960 0.70450 0.94900 0.08400
H 	H 	0.86230 0.68170 0.02040 0.09000
H 	H 	0.80730 0.54000 0.12840 0.15300
H 	H 	0.91490 0.60160 0.19340 0.12300
H 	H 	0.02310 0.67270 0.07880 0.16800
H 	H 	0.29550 0.25510 0.94900 0.10900
H 	H 	0.31830 0.18060 0.02040 0.08500
H 	H 	0.46000 0.26730 0.12840 0.15300
H 	H 	0.39840 0.31330 0.19340 0.14400
H 	H 	0.32730 0.35040 0.07880 0.09600
H 	H 	0.29550 0.04040 0.44900 0.09700
H 	H 	0.31830 0.13770 0.52040 0.11700
H 	H 	0.46000 0.19270 0.62840 0.15700
H 	H 	0.39840 0.08510 0.69340 0.12400
H 	H 	0.32730 0.97690 0.57880 0.17000
H 	H 	0.74490 0.70450 0.44900 0.12500
H 	H 	0.81940 0.68170 0.52040 0.11800
H 	H 	0.73270 0.54000 0.62840 0.15700
H 	H 	0.68670 0.60160 0.69340 0.14500
H 	H 	0.64960 0.67270 0.57880 0.09600
H 	H 	0.95960 0.25510 0.44900 0.08100
H 	H 	0.86230 0.18060 0.52040 0.09500
H 	H 	0.80730 0.26730 0.62840 0.15100
H 	H 	0.91490 0.31330 0.69340 0.11500
H 	H 	0.02310 0.35040 0.57880 0.16700
H 	H 	0.25510 0.95960 0.05100 0.18700
H 	H 	0.18060 0.86230 0.97960 0.18800
H 	H 	0.26730 0.80730 0.87160 0.17200
H 	H 	0.31330 0.91490 0.80660 0.17900
H 	H 	0.35040 0.02310 0.92120 0.03000
H 	H 	0.04040 0.29550 0.05100 0.17300
H 	H 	0.13770 0.31830 0.97960 0.17200
H 	H 	0.19270 0.46000 0.87160 0.16700
H 	H 	0.08510 0.39840 0.80660 0.17200
H 	H 	0.97690 0.32730 0.92120 0.02200
H 	H 	0.70450 0.74490 0.05100 0.14300
H 	H 	0.68170 0.81940 0.97960 0.16500
H 	H 	0.54000 0.73270 0.87160 0.16700
H 	H 	0.60160 0.68670 0.80660 0.15000
H 	H 	0.67270 0.64960 0.92120 0.09600
C 	C 	0.54560 0.81570 0.56800 0.39700
C 	C 	0.64700 0.90150 0.51080 -0.32400
C 	C 	0.55200 0.88380 0.36020 -0.37600
C 	C 	0.43780 0.87530 0.33970 0.46800
C 	C 	0.27010 0.45440 0.56800 0.38800
C 	C 	0.25450 0.35300 0.51080 -0.31400
C 	C 	0.33180 0.44800 0.36020 -0.37100
C 	C 	0.43750 0.56220 0.33970 0.46100
C 	C 	0.18430 0.72990 0.56800 0.40400
C 	C 	0.09850 0.74550 0.51080 -0.33900
C 	C 	0.11620 0.66820 0.36020 -0.38100
C 	C 	0.12470 0.56250 0.33970 0.47000
C 	C 	0.72990 0.18430 0.93200 0.35300
C 	C 	0.74550 0.09850 0.98920 -0.21200
C 	C 	0.66820 0.11620 0.13980 -0.34800
C 	C 	0.56250 0.12470 0.16030 0.44600
C 	C 	0.81570 0.54560 0.93200 0.36100
C 	C 	0.90150 0.64700 0.98920 -0.23600
C 	C 	0.88380 0.55200 0.13980 -0.35500
C 	C 	0.87530 0.43780 0.16030 0.44900
C 	C 	0.45440 0.27010 0.93200 0.36800
C 	C 	0.35300 0.25450 0.98920 -0.23700
C 	C 	0.44800 0.33180 0.13980 -0.36400
C 	C 	0.56220 0.43750 0.16030 0.45700
C 	C 	0.45440 0.18430 0.43200 0.37400
C 	C 	0.35300 0.09850 0.48920 -0.29000
C 	C 	0.44800 0.11620 0.63980 -0.35700
C 	C 	0.56220 0.12470 0.66030 0.45100
C 	C 	0.72990 0.54560 0.43200 0.38400
C 	C 	0.74550 0.64700 0.48920 -0.30400
C 	C 	0.66820 0.55200 0.63980 -0.36700
C 	C 	0.56250 0.43780 0.66030 0.46000
C 	C 	0.81570 0.27010 0.43200 0.36800
C 	C 	0.90150 0.25450 0.48920 -0.27600
C 	C 	0.88380 0.33180 0.63980 -0.35100
C 	C 	0.87530 0.43750 0.66030 0.44900
C 	C 	0.27010 0.81570 0.06800 0.41700
C 	C 	0.25450 0.90150 0.01080 -0.39600
C 	C 	0.33180 0.88380 0.86020 -0.38300
C 	C 	0.43750 0.87530 0.83970 0.47200
C 	C 	0.18430 0.45440 0.06800 0.41300
C 	C 	0.09850 0.35300 0.01080 -0.39200
C 	C 	0.11620 0.44800 0.86020 -0.38000
C 	C 	0.12470 0.56220 0.83970 0.47100
C 	C 	0.54560 0.72990 0.06800 0.40100
C 	C 	0.64700 0.74550 0.01080 -0.36900
C 	C 	0.55200 0.66820 0.86020 -0.37300
C 	C 	0.43780 0.56250 0.83970 0.46300
N 	N 	0.60970 0.95760 0.44110 -0.08300
N 	N 	0.34790 0.39030 0.44110 -0.15400
N 	N 	0.04240 0.65210 0.44110 -0.08000
N 	N 	0.65210 0.04240 0.05890 -0.23800
N 	N 	0.95760 0.60970 0.05890 -0.23300
N 	N 	0.39030 0.34790 0.05890 -0.17200
N 	N 	0.39030 0.04240 0.55890 -0.22000
N 	N 	0.65210 0.60970 0.55890 -0.15600
N 	N 	0.95760 0.34790 0.55890 -0.22300
N 	N 	0.34790 0.95760 0.94110 -0.06700
N 	N 	0.04240 0.39030 0.94110 -0.06600
N 	N 	0.60970 0.65210 0.94110 -0.13900
O 	O 	0.45020 0.81210 0.55740 -0.45300
O 	O 	0.55790 0.75400 0.62650 -0.36700
O 	O 	0.40240 0.92680 0.39200 -0.38000
O 	O 	0.38180 0.81680 0.27170 -0.44500
O 	O 	0.36190 0.54980 0.55740 -0.46300
O 	O 	0.19610 0.44210 0.62650 -0.36000
O 	O 	0.52440 0.59760 0.39200 -0.42000
O 	O 	0.43500 0.61820 0.27170 -0.45500
O 	O 	0.18790 0.63810 0.55740 -0.45300
O 	O 	0.24600 0.80390 0.62650 -0.35700
O 	O 	0.07320 0.47560 0.39200 -0.38200
O 	O 	0.18320 0.56500 0.27170 -0.44700
O 	O 	0.63810 0.18790 0.94260 -0.45100
O 	O 	0.80390 0.24600 0.87350 -0.36900
O 	O 	0.47560 0.07320 0.10800 -0.44600
O 	O 	0.56500 0.18320 0.22830 -0.46000
O 	O 	0.81210 0.45020 0.94260 -0.45500
O 	O 	0.75400 0.55790 0.87350 -0.36100
O 	O 	0.92680 0.40240 0.10800 -0.45000
O 	O 	0.81680 0.38180 0.22830 -0.46200
O 	O 	0.54980 0.36190 0.94260 -0.44900
O 	O 	0.44210 0.19610 0.87350 -0.36500
O 	O 	0.59760 0.52440 0.10800 -0.42100
O 	O 	0.61820 0.43500 0.22830 -0.45300
O 	O 	0.54980 0.18790 0.44260 -0.46300
O 	O 	0.44210 0.24600 0.37350 -0.36700
O 	O 	0.59760 0.07320 0.60800 -0.44500
O 	O 	0.61820 0.18320 0.72830 -0.46200
O 	O 	0.63810 0.45020 0.44260 -0.46000
O 	O 	0.80390 0.55790 0.37350 -0.37200
O 	O 	0.47560 0.40240 0.60800 -0.41900
O 	O 	0.56500 0.38180 0.72830 -0.45300
O 	O 	0.81210 0.36190 0.44260 -0.46200
O 	O 	0.75400 0.19610 0.37350 -0.37600
O 	O 	0.92680 0.52440 0.60800 -0.44300
O 	O 	0.81680 0.43500 0.72830 -0.46000
O 	O 	0.36190 0.81210 0.05740 -0.46100
O 	O 	0.19610 0.75400 0.12650 -0.36300
O 	O 	0.52440 0.92680 0.89200 -0.37800
O 	O 	0.43500 0.81680 0.77170 -0.44700
O 	O 	0.18790 0.54980 0.05740 -0.46300
O 	O 	0.24600 0.44210 0.12650 -0.37400
O 	O 	0.07320 0.59760 0.89200 -0.37700
O 	O 	0.18320 0.61820 0.77170 -0.44500
O 	O 	0.45020 0.63810 0.05740 -0.47100
O 	O 	0.55790 0.80390 0.12650 -0.36600
O 	O 	0.40240 0.47560 0.89200 -0.41400
O 	O 	0.38180 0.56500 0.77170 -0.45500
