data_crystal

_cell_length_a 12.02490
_cell_length_b 12.18730
_cell_length_c 14.86850
_cell_angle_alpha 67.91600
_cell_angle_beta  74.12100
_cell_angle_gamma 63.58100

_symmetry_space_group_name_	'P 1'
_symmetry_space_group_name_H-M	'P 1'

loop_
_symmetry_equiv_pos_as_xyz
  x,y,z

loop_
_atom_site_label
_atom_site_type_symbol
_atom_site_fract_x
_atom_site_fract_y
_atom_site_fract_z
_atom_site_charge
Cd	Cd	0.73841 0.66588 0.99184 1.24400
Mo	Mo	0.26322 0.59550 0.32267 1.08300
Mo	Mo	0.57791 0.79088 0.32646 1.08700
Mo	Mo	0.74712 0.30293 0.33316 1.08400
Mo	Mo	0.28105 0.79804 0.32472 1.08500
Mo	Mo	0.52894 0.31032 0.33042 1.08500
Mo	Mo	0.77606 0.58154 0.32896 1.08600
P 	P 	0.55163 0.60596 0.21542 0.52700
P 	P 	0.39171 0.00809 0.15956 0.53700
P 	P 	0.93785 0.42362 0.16583 0.54500
P 	P 	0.30670 0.40693 0.19429 0.52000
O 	O 	0.57230 0.65140 0.10630 -0.34800
O 	O 	0.35600 0.14760 0.11500 -0.37900
O 	O 	0.91370 0.51620 0.22290 -0.40000
O 	O 	0.31150 0.43020 0.08550 -0.32800
O 	O 	0.88300 0.48540 0.07150 -0.38300
O 	O 	0.08460 0.35910 0.14130 -0.30800
O 	O 	0.89790 0.31230 0.23160 -0.39700
O 	O 	0.46830 0.52690 0.25510 -0.41100
O 	O 	0.25310 0.53700 0.21450 -0.37300
O 	O 	0.22280 0.33200 0.25620 -0.26100
O 	O 	0.61840 0.61620 0.41780 -0.61900
O 	O 	0.67540 0.52050 0.26090 -0.44700
O 	O 	0.28550 0.96660 0.22190 -0.38900
O 	O 	0.44100 0.32960 0.22240 -0.37000
O 	O 	0.49860 0.95560 0.22080 -0.38600
O 	O 	0.24980 0.75770 0.22330 -0.47200
O 	O 	0.81090 0.38540 0.40220 -0.46300
O 	O 	0.39030 0.83210 0.39540 -0.46300
O 	O 	0.34730 0.39790 0.39590 -0.47100
O 	O 	0.48580 0.72120 0.25910 -0.42800
O 	O 	0.58840 0.35300 0.41900 -0.62200
O 	O 	0.33440 0.62310 0.41360 -0.61600
O 	O 	0.67430 0.30210 0.23210 -0.47200
O 	O 	0.71820 0.74260 0.22900 -0.50900
O 	O 	0.44130 0.93960 0.07640 -0.20000
Cd	Cd	0.26159 0.33412 0.00816 1.24300
Mo	Mo	0.73678 0.40450 0.67733 1.08300
Mo	Mo	0.42209 0.20912 0.67354 1.08700
Mo	Mo	0.25288 0.69707 0.66684 1.08400
Mo	Mo	0.71895 0.20196 0.67528 1.08500
Mo	Mo	0.47106 0.68968 0.66958 1.08500
Mo	Mo	0.22394 0.41846 0.67104 1.08600
P 	P 	0.44837 0.39404 0.78458 0.52700
P 	P 	0.60829 0.99191 0.84044 0.53700
P 	P 	0.06215 0.57638 0.83417 0.54500
P 	P 	0.69330 0.59307 0.80571 0.52000
O 	O 	0.42770 0.34860 0.89370 -0.34800
O 	O 	0.64400 0.85240 0.88500 -0.37900
O 	O 	0.08630 0.48380 0.77710 -0.40000
O 	O 	0.68850 0.56980 0.91450 -0.32800
O 	O 	0.11700 0.51460 0.92850 -0.38300
O 	O 	0.91540 0.64090 0.85870 -0.30800
O 	O 	0.10210 0.68770 0.76840 -0.39700
O 	O 	0.53170 0.47310 0.74490 -0.41100
O 	O 	0.74690 0.46300 0.78550 -0.37300
O 	O 	0.77720 0.66800 0.74380 -0.26100
O 	O 	0.38160 0.38380 0.58220 -0.61900
O 	O 	0.32460 0.47950 0.73910 -0.44700
O 	O 	0.71450 0.03340 0.77810 -0.38900
O 	O 	0.55900 0.67040 0.77760 -0.37000
O 	O 	0.50140 0.04440 0.77920 -0.38600
O 	O 	0.75020 0.24230 0.77670 -0.47200
O 	O 	0.18910 0.61460 0.59780 -0.46300
O 	O 	0.60970 0.16790 0.60460 -0.46300
O 	O 	0.65270 0.60210 0.60410 -0.47100
O 	O 	0.51420 0.27880 0.74090 -0.42800
O 	O 	0.41160 0.64700 0.58100 -0.62200
O 	O 	0.66560 0.37690 0.58640 -0.61600
O 	O 	0.32570 0.69790 0.76790 -0.47200
O 	O 	0.28180 0.25740 0.77100 -0.50900
O 	O 	0.55870 0.06040 0.92360 -0.20000
Cd	Cd	0.50000 0.50000 0.50000 1.26500
