data_crystal

_cell_length_a 21.31110
_cell_length_b 20.98580
_cell_length_c 17.93190
_cell_angle_alpha 90.00000
_cell_angle_beta  96.38700
_cell_angle_gamma 90.00000

_symmetry_space_group_name_	'P 1'
_symmetry_space_group_name_H-M	'P 1'

loop_
_symmetry_equiv_pos_as_xyz
  x,y,z

loop_
_atom_site_label
_atom_site_type_symbol
_atom_site_fract_x
_atom_site_fract_y
_atom_site_fract_z
_atom_site_charge
W 	W 	0.71508 0.01981 0.99674 0.25700
Cu	Cu	0.81869 0.08978 0.97362 0.82800
Cu	Cu	0.73681 0.04740 0.14348 0.83000
Cu	Cu	0.78545 0.91166 0.01649 0.83800
S 	S 	0.74013 0.11735 0.04570 -0.48000
S 	S 	0.71353 0.94878 0.09107 -0.48000
S 	S 	0.79084 0.98982 0.92639 -0.45500
Br	Br	0.88303 0.86398 0.07607 -0.41800
C 	C 	0.82990 0.21020 0.88150 0.07000
H 	H 	0.84410 0.22950 0.92820 -0.01000
C 	C 	0.82160 0.24760 0.81850 -0.12400
H 	H 	0.82940 0.29210 0.82230 0.06600
C 	C 	0.80190 0.22090 0.74960 0.05200
C 	C 	0.79150 0.15670 0.74760 -0.11700
H 	H 	0.77870 0.13630 0.70110 0.06400
C 	C 	0.79980 0.12140 0.81320 0.05800
H 	H 	0.79170 0.07680 0.81060 -0.00900
C 	C 	0.78860 0.25960 0.68080 0.05800
C 	C 	0.82520 0.31140 0.66520 -0.13300
H 	H 	0.86270 0.32140 0.69680 0.08100
C 	C 	0.80620 0.34850 0.60280 0.08200
H 	H 	0.83190 0.38380 0.59310 -0.02100
C 	C 	0.72130 0.28670 0.57070 0.06400
H 	H 	0.68460 0.27740 0.53740 0.00700
C 	C 	0.73590 0.24680 0.62990 -0.13200
H 	H 	0.71040 0.21050 0.63650 0.06900
C 	C 	0.18020 0.10330 0.22910 0.06500
H 	H 	0.21310 0.13370 0.22870 -0.00800
C 	C 	0.12680 0.11180 0.17970 -0.12700
H 	H 	0.12330 0.14740 0.14690 0.07000
C 	C 	0.07800 0.06790 0.17820 0.05100
C 	C 	0.08670 0.01760 0.22720 -0.12400
H 	H 	0.05490 0.98590 0.22730 0.07300
C 	C 	0.14040 0.01250 0.27570 0.06500
H 	H 	0.14380 0.97770 0.30980 -0.02200
C 	C 	0.02010 0.07550 0.12500 0.05000
C 	C 	0.99600 0.13350 0.10150 -0.12400
H 	H 	0.01840 0.17120 0.11730 0.07100
C 	C 	0.93990 0.13810 0.05560 0.07900
H 	H 	0.92440 0.17930 0.04160 -0.01400
C 	C 	0.93010 0.03130 0.05040 0.06700
H 	H 	0.90740 0.99450 0.03210 -0.03000
C 	C 	0.98710 0.02260 0.09780 -0.11800
H 	H 	0.00220 0.98100 0.11060 0.07500
C 	C 	0.64360 0.03890 0.25980 0.06200
H 	H 	0.67860 0.02300 0.29170 -0.01200
C 	C 	0.58390 0.03760 0.28480 -0.12400
H 	H 	0.57900 0.02310 0.33400 0.05900
C 	C 	0.53200 0.05750 0.23760 0.04800
C 	C 	0.54190 0.07910 0.16700 -0.12400
H 	H 	0.50740 0.09210 0.13220 0.06800
C 	C 	0.60300 0.08160 0.14790 0.06100
H 	H 	0.60950 0.09830 0.10010 -0.01600
N 	N 	0.81860 0.14720 0.87970 -0.23100
N 	N 	0.75530 0.33830 0.55630 -0.22200
N 	N 	0.18900 0.05400 0.27830 -0.24700
N 	N 	0.90680 0.08780 0.03000 -0.24800
N 	N 	0.65310 0.06180 0.19270 -0.22700
W 	W 	0.21508 0.51981 0.99674 0.26600
Cu	Cu	0.31869 0.58978 0.97362 0.83100
Cu	Cu	0.23681 0.54740 0.14348 0.83100
Cu	Cu	0.28545 0.41166 0.01649 0.84000
S 	S 	0.24013 0.61735 0.04570 -0.48300
S 	S 	0.21353 0.44878 0.09107 -0.47900
S 	S 	0.29084 0.48982 0.92639 -0.45800
Br	Br	0.38303 0.36398 0.07607 -0.41500
C 	C 	0.32990 0.71020 0.88150 0.07000
H 	H 	0.34410 0.72950 0.92820 -0.00900
C 	C 	0.32160 0.74760 0.81850 -0.12400
H 	H 	0.32940 0.79210 0.82230 0.06600
C 	C 	0.30190 0.72090 0.74960 0.05200
C 	C 	0.29150 0.65670 0.74760 -0.11700
H 	H 	0.27870 0.63630 0.70110 0.06400
C 	C 	0.29980 0.62140 0.81320 0.05800
H 	H 	0.29170 0.57680 0.81060 -0.00800
C 	C 	0.28860 0.75960 0.68080 0.05800
C 	C 	0.32520 0.81140 0.66520 -0.13300
H 	H 	0.36270 0.82140 0.69680 0.08100
C 	C 	0.30620 0.84850 0.60280 0.08300
H 	H 	0.33190 0.88380 0.59310 -0.02100
C 	C 	0.22130 0.78670 0.57070 0.06400
H 	H 	0.18460 0.77740 0.53740 0.00700
C 	C 	0.23590 0.74680 0.62990 -0.13200
H 	H 	0.21040 0.71050 0.63650 0.06900
C 	C 	0.68020 0.60330 0.22910 0.06400
H 	H 	0.71310 0.63370 0.22870 -0.00800
C 	C 	0.62680 0.61180 0.17970 -0.12600
H 	H 	0.62330 0.64740 0.14690 0.07000
C 	C 	0.57800 0.56790 0.17820 0.04900
C 	C 	0.58670 0.51760 0.22720 -0.12500
H 	H 	0.55490 0.48590 0.22730 0.07500
C 	C 	0.64040 0.51250 0.27570 0.06400
H 	H 	0.64380 0.47770 0.30980 -0.02100
C 	C 	0.52010 0.57550 0.12500 0.05600
C 	C 	0.49600 0.63350 0.10150 -0.13000
H 	H 	0.51840 0.67120 0.11730 0.07300
C 	C 	0.43990 0.63810 0.05560 0.08100
H 	H 	0.42440 0.67930 0.04160 -0.01600
C 	C 	0.43010 0.53130 0.05040 0.06500
H 	H 	0.40740 0.49450 0.03210 -0.02700
C 	C 	0.48710 0.52260 0.09780 -0.12500
H 	H 	0.50220 0.48100 0.11060 0.08000
C 	C 	0.14360 0.53890 0.25980 0.06200
H 	H 	0.17860 0.52300 0.29170 -0.01200
C 	C 	0.08390 0.53760 0.28480 -0.12300
H 	H 	0.07900 0.52310 0.33400 0.05800
C 	C 	0.03200 0.55750 0.23760 0.04600
C 	C 	0.04190 0.57910 0.16700 -0.12400
H 	H 	0.00740 0.59210 0.13220 0.06700
C 	C 	0.10300 0.58160 0.14790 0.06000
H 	H 	0.10950 0.59830 0.10010 -0.01600
N 	N 	0.31860 0.64720 0.87970 -0.23000
N 	N 	0.25530 0.83830 0.55630 -0.22200
N 	N 	0.68900 0.55400 0.27830 -0.24700
N 	N 	0.40680 0.58780 0.03000 -0.24900
N 	N 	0.15310 0.56180 0.19270 -0.22700
W 	W 	0.28492 0.01981 0.50326 0.26300
Cu	Cu	0.18131 0.08978 0.52638 0.83000
Cu	Cu	0.26319 0.04740 0.35652 0.83100
Cu	Cu	0.21455 0.91166 0.48351 0.84000
S 	S 	0.25987 0.11735 0.45430 -0.48300
S 	S 	0.28647 0.94878 0.40893 -0.47900
S 	S 	0.20916 0.98982 0.57361 -0.45800
Br	Br	0.11697 0.86398 0.42393 -0.41600
C 	C 	0.17010 0.21020 0.61850 0.07000
H 	H 	0.15590 0.22950 0.57180 -0.00900
C 	C 	0.17840 0.24760 0.68150 -0.12400
H 	H 	0.17060 0.29210 0.67770 0.06600
C 	C 	0.19810 0.22090 0.75040 0.05200
C 	C 	0.20850 0.15670 0.75240 -0.11700
H 	H 	0.22130 0.13630 0.79890 0.06300
C 	C 	0.20020 0.12140 0.68680 0.05800
H 	H 	0.20830 0.07680 0.68940 -0.00900
C 	C 	0.21140 0.25960 0.81920 0.05800
C 	C 	0.17480 0.31140 0.83480 -0.13300
H 	H 	0.13730 0.32140 0.80320 0.08100
C 	C 	0.19380 0.34850 0.89720 0.08200
H 	H 	0.16810 0.38380 0.90690 -0.02100
C 	C 	0.27870 0.28670 0.92930 0.06400
H 	H 	0.31540 0.27740 0.96260 0.00700
C 	C 	0.26410 0.24680 0.87010 -0.13200
H 	H 	0.28960 0.21050 0.86350 0.06900
C 	C 	0.81980 0.10330 0.27090 0.06400
H 	H 	0.78690 0.13370 0.27130 -0.00800
C 	C 	0.87320 0.11180 0.32030 -0.12500
H 	H 	0.87670 0.14740 0.35310 0.07000
C 	C 	0.92200 0.06790 0.32180 0.04800
C 	C 	0.91330 0.01760 0.27280 -0.12300
H 	H 	0.94510 0.98590 0.27270 0.07300
C 	C 	0.85960 0.01250 0.22430 0.06600
H 	H 	0.85620 0.97770 0.19020 -0.02300
C 	C 	0.97990 0.07550 0.37500 0.05700
C 	C 	0.00400 0.13350 0.39850 -0.13100
H 	H 	0.98160 0.17120 0.38270 0.07300
C 	C 	0.06010 0.13810 0.44440 0.08200
H 	H 	0.07560 0.17930 0.45840 -0.01600
C 	C 	0.06990 0.03130 0.44960 0.06600
H 	H 	0.09260 0.99450 0.46790 -0.02800
C 	C 	0.01290 0.02260 0.40220 -0.12600
H 	H 	0.99780 0.98100 0.38940 0.07900
C 	C 	0.35640 0.03890 0.24020 0.06200
H 	H 	0.32140 0.02300 0.20830 -0.01200
C 	C 	0.41610 0.03760 0.21520 -0.12400
H 	H 	0.42100 0.02310 0.16600 0.05900
C 	C 	0.46800 0.05750 0.26240 0.04800
C 	C 	0.45810 0.07910 0.33300 -0.12400
H 	H 	0.49260 0.09210 0.36780 0.06800
C 	C 	0.39700 0.08160 0.35210 0.06000
H 	H 	0.39050 0.09830 0.39990 -0.01600
N 	N 	0.18140 0.14720 0.62030 -0.23000
N 	N 	0.24470 0.33830 0.94370 -0.22200
N 	N 	0.81100 0.05400 0.22170 -0.24700
N 	N 	0.09320 0.08780 0.47000 -0.24900
N 	N 	0.34690 0.06180 0.30730 -0.22700
W 	W 	0.78492 0.51981 0.50326 0.26400
Cu	Cu	0.68131 0.58978 0.52638 0.83100
Cu	Cu	0.76319 0.54740 0.35652 0.83100
Cu	Cu	0.71455 0.41166 0.48351 0.84000
S 	S 	0.75987 0.61735 0.45430 -0.48300
S 	S 	0.78647 0.44878 0.40893 -0.47900
S 	S 	0.70916 0.48982 0.57361 -0.45800
Br	Br	0.61697 0.36398 0.42393 -0.41600
C 	C 	0.67010 0.71020 0.61850 0.07000
H 	H 	0.65590 0.72950 0.57180 -0.00900
C 	C 	0.67840 0.74760 0.68150 -0.12400
H 	H 	0.67060 0.79210 0.67770 0.06600
C 	C 	0.69810 0.72090 0.75040 0.05200
C 	C 	0.70850 0.65670 0.75240 -0.11700
H 	H 	0.72130 0.63630 0.79890 0.06400
C 	C 	0.70020 0.62140 0.68680 0.05800
H 	H 	0.70830 0.57680 0.68940 -0.00800
C 	C 	0.71140 0.75960 0.81920 0.05800
C 	C 	0.67480 0.81140 0.83480 -0.13300
H 	H 	0.63730 0.82140 0.80320 0.08100
C 	C 	0.69380 0.84850 0.89720 0.08200
H 	H 	0.66810 0.88380 0.90690 -0.02000
C 	C 	0.77870 0.78670 0.92930 0.06400
H 	H 	0.81540 0.77740 0.96260 0.00800
C 	C 	0.76410 0.74680 0.87010 -0.13200
H 	H 	0.78960 0.71050 0.86350 0.06900
C 	C 	0.31980 0.60330 0.27090 0.06400
H 	H 	0.28690 0.63370 0.27130 -0.00800
C 	C 	0.37320 0.61180 0.32030 -0.12600
H 	H 	0.37670 0.64740 0.35310 0.07000
C 	C 	0.42200 0.56790 0.32180 0.04900
C 	C 	0.41330 0.51760 0.27280 -0.12500
H 	H 	0.44510 0.48590 0.27270 0.07500
C 	C 	0.35960 0.51250 0.22430 0.06400
H 	H 	0.35620 0.47770 0.19020 -0.02100
C 	C 	0.47990 0.57550 0.37500 0.05600
C 	C 	0.50400 0.63350 0.39850 -0.12900
H 	H 	0.48160 0.67120 0.38270 0.07300
C 	C 	0.56010 0.63810 0.44440 0.08100
H 	H 	0.57560 0.67930 0.45840 -0.01600
C 	C 	0.56990 0.53130 0.44960 0.06500
H 	H 	0.59260 0.49450 0.46790 -0.02700
C 	C 	0.51290 0.52260 0.40220 -0.12500
H 	H 	0.49780 0.48100 0.38940 0.08000
C 	C 	0.85640 0.53890 0.24020 0.06200
H 	H 	0.82140 0.52300 0.20830 -0.01200
C 	C 	0.91610 0.53760 0.21520 -0.12400
H 	H 	0.92100 0.52310 0.16600 0.05900
C 	C 	0.96800 0.55750 0.26240 0.04800
C 	C 	0.95810 0.57910 0.33300 -0.12400
H 	H 	0.99260 0.59210 0.36780 0.06800
C 	C 	0.89700 0.58160 0.35210 0.06000
H 	H 	0.89050 0.59830 0.39990 -0.01700
N 	N 	0.68140 0.64720 0.62030 -0.23000
N 	N 	0.74470 0.83830 0.94370 -0.22100
N 	N 	0.31100 0.55400 0.22170 -0.24700
N 	N 	0.59320 0.58780 0.47000 -0.24900
N 	N 	0.84690 0.56180 0.30730 -0.22700
W 	W 	0.28492 0.98019 0.00326 0.25800
Cu	Cu	0.18131 0.91022 0.02638 0.82900
Cu	Cu	0.26319 0.95260 0.85652 0.83100
Cu	Cu	0.21455 0.08834 0.98351 0.83900
S 	S 	0.25987 0.88265 0.95430 -0.47900
S 	S 	0.28647 0.05122 0.90893 -0.47900
S 	S 	0.20916 0.01018 0.07361 -0.45400
Br	Br	0.11697 0.13602 0.92393 -0.41700
C 	C 	0.17010 0.78980 0.11850 0.07000
H 	H 	0.15590 0.77050 0.07180 -0.01000
C 	C 	0.17840 0.75240 0.18150 -0.12400
H 	H 	0.17060 0.70790 0.17770 0.06600
C 	C 	0.19810 0.77910 0.25040 0.05200
C 	C 	0.20850 0.84330 0.25240 -0.11700
H 	H 	0.22130 0.86370 0.29890 0.06400
C 	C 	0.20020 0.87860 0.18680 0.05800
H 	H 	0.20830 0.92320 0.18940 -0.00900
C 	C 	0.21140 0.74040 0.31920 0.05800
C 	C 	0.17480 0.68860 0.33480 -0.13300
H 	H 	0.13730 0.67860 0.30320 0.08100
C 	C 	0.19380 0.65150 0.39720 0.08200
H 	H 	0.16810 0.61620 0.40690 -0.02100
C 	C 	0.27870 0.71330 0.42930 0.06400
H 	H 	0.31540 0.72260 0.46260 0.00700
C 	C 	0.26410 0.75320 0.37010 -0.13200
H 	H 	0.28960 0.78950 0.36350 0.06900
C 	C 	0.81980 0.89670 0.77090 0.06500
H 	H 	0.78690 0.86630 0.77130 -0.00800
C 	C 	0.87320 0.88820 0.82030 -0.12700
H 	H 	0.87670 0.85260 0.85310 0.07000
C 	C 	0.92200 0.93210 0.82180 0.05100
C 	C 	0.91330 0.98240 0.77280 -0.12400
H 	H 	0.94510 0.01410 0.77270 0.07300
C 	C 	0.85960 0.98750 0.72430 0.06500
H 	H 	0.85620 0.02230 0.69020 -0.02200
C 	C 	0.97990 0.92450 0.87500 0.05000
C 	C 	0.00400 0.86650 0.89850 -0.12400
H 	H 	0.98160 0.82880 0.88270 0.07100
C 	C 	0.06010 0.86190 0.94440 0.07900
H 	H 	0.07560 0.82070 0.95840 -0.01400
C 	C 	0.06990 0.96870 0.94960 0.06700
H 	H 	0.09260 0.00550 0.96790 -0.03000
C 	C 	0.01290 0.97740 0.90220 -0.11800
H 	H 	0.99780 0.01900 0.88940 0.07500
C 	C 	0.35640 0.96110 0.74020 0.06200
H 	H 	0.32140 0.97700 0.70830 -0.01200
C 	C 	0.41610 0.96240 0.71520 -0.12400
H 	H 	0.42100 0.97690 0.66600 0.05900
C 	C 	0.46800 0.94250 0.76240 0.04800
C 	C 	0.45810 0.92090 0.83300 -0.12400
H 	H 	0.49260 0.90790 0.86780 0.06800
C 	C 	0.39700 0.91840 0.85210 0.06100
H 	H 	0.39050 0.90170 0.89990 -0.01600
N 	N 	0.18140 0.85280 0.12030 -0.23100
N 	N 	0.24470 0.66170 0.44370 -0.22200
N 	N 	0.81100 0.94600 0.72170 -0.24700
N 	N 	0.09320 0.91220 0.97000 -0.24800
N 	N 	0.34690 0.93820 0.80730 -0.22700
W 	W 	0.78492 0.48019 0.00326 0.26600
Cu	Cu	0.68131 0.41022 0.02638 0.83100
Cu	Cu	0.76319 0.45260 0.85652 0.83100
Cu	Cu	0.71455 0.58834 0.98351 0.84000
S 	S 	0.75987 0.38265 0.95430 -0.48300
S 	S 	0.78647 0.55122 0.90893 -0.47900
S 	S 	0.70916 0.51018 0.07361 -0.45800
Br	Br	0.61697 0.63602 0.92393 -0.41500
C 	C 	0.67010 0.28980 0.11850 0.07000
H 	H 	0.65590 0.27050 0.07180 -0.00900
C 	C 	0.67840 0.25240 0.18150 -0.12400
H 	H 	0.67060 0.20790 0.17770 0.06600
C 	C 	0.69810 0.27910 0.25040 0.05200
C 	C 	0.70850 0.34330 0.25240 -0.11700
H 	H 	0.72130 0.36370 0.29890 0.06400
C 	C 	0.70020 0.37860 0.18680 0.05800
H 	H 	0.70830 0.42320 0.18940 -0.00800
C 	C 	0.71140 0.24040 0.31920 0.05800
C 	C 	0.67480 0.18860 0.33480 -0.13300
H 	H 	0.63730 0.17860 0.30320 0.08100
C 	C 	0.69380 0.15150 0.39720 0.08300
H 	H 	0.66810 0.11620 0.40690 -0.02100
C 	C 	0.77870 0.21330 0.42930 0.06400
H 	H 	0.81540 0.22260 0.46260 0.00700
C 	C 	0.76410 0.25320 0.37010 -0.13200
H 	H 	0.78960 0.28950 0.36350 0.06900
C 	C 	0.31980 0.39670 0.77090 0.06400
H 	H 	0.28690 0.36630 0.77130 -0.00800
C 	C 	0.37320 0.38820 0.82030 -0.12600
H 	H 	0.37670 0.35260 0.85310 0.07000
C 	C 	0.42200 0.43210 0.82180 0.04900
C 	C 	0.41330 0.48240 0.77280 -0.12500
H 	H 	0.44510 0.51410 0.77270 0.07500
C 	C 	0.35960 0.48750 0.72430 0.06400
H 	H 	0.35620 0.52230 0.69020 -0.02100
C 	C 	0.47990 0.42450 0.87500 0.05600
C 	C 	0.50400 0.36650 0.89850 -0.13000
H 	H 	0.48160 0.32880 0.88270 0.07300
C 	C 	0.56010 0.36190 0.94440 0.08100
H 	H 	0.57560 0.32070 0.95840 -0.01600
C 	C 	0.56990 0.46870 0.94960 0.06500
H 	H 	0.59260 0.50550 0.96790 -0.02700
C 	C 	0.51290 0.47740 0.90220 -0.12500
H 	H 	0.49780 0.51900 0.88940 0.08000
C 	C 	0.85640 0.46110 0.74020 0.06200
H 	H 	0.82140 0.47700 0.70830 -0.01200
C 	C 	0.91610 0.46240 0.71520 -0.12300
H 	H 	0.92100 0.47690 0.66600 0.05800
C 	C 	0.96800 0.44250 0.76240 0.04600
C 	C 	0.95810 0.42090 0.83300 -0.12400
H 	H 	0.99260 0.40790 0.86780 0.06700
C 	C 	0.89700 0.41840 0.85210 0.06000
H 	H 	0.89050 0.40170 0.89990 -0.01600
N 	N 	0.68140 0.35280 0.12030 -0.23000
N 	N 	0.74470 0.16170 0.44370 -0.22200
N 	N 	0.31100 0.44600 0.72170 -0.24700
N 	N 	0.59320 0.41220 0.97000 -0.24900
N 	N 	0.84690 0.43820 0.80730 -0.22700
W 	W 	0.71508 0.98019 0.49674 0.26300
Cu	Cu	0.81869 0.91022 0.47362 0.83000
Cu	Cu	0.73681 0.95260 0.64348 0.83100
Cu	Cu	0.78545 0.08834 0.51649 0.84000
S 	S 	0.74013 0.88265 0.54570 -0.48300
S 	S 	0.71353 0.05122 0.59107 -0.47900
S 	S 	0.79084 0.01018 0.42639 -0.45800
Br	Br	0.88303 0.13602 0.57607 -0.41600
C 	C 	0.82990 0.78980 0.38150 0.07000
H 	H 	0.84410 0.77050 0.42820 -0.00900
C 	C 	0.82160 0.75240 0.31850 -0.12400
H 	H 	0.82940 0.70790 0.32230 0.06600
C 	C 	0.80190 0.77910 0.24960 0.05200
C 	C 	0.79150 0.84330 0.24760 -0.11700
H 	H 	0.77870 0.86370 0.20110 0.06300
C 	C 	0.79980 0.87860 0.31320 0.05800
H 	H 	0.79170 0.92320 0.31060 -0.00900
C 	C 	0.78860 0.74040 0.18080 0.05800
C 	C 	0.82520 0.68860 0.16520 -0.13300
H 	H 	0.86270 0.67860 0.19680 0.08100
C 	C 	0.80620 0.65150 0.10280 0.08200
H 	H 	0.83190 0.61620 0.09310 -0.02100
C 	C 	0.72130 0.71330 0.07070 0.06400
H 	H 	0.68460 0.72260 0.03740 0.00700
C 	C 	0.73590 0.75320 0.12990 -0.13200
H 	H 	0.71040 0.78950 0.13650 0.06900
C 	C 	0.18020 0.89670 0.72910 0.06400
H 	H 	0.21310 0.86630 0.72870 -0.00800
C 	C 	0.12680 0.88820 0.67970 -0.12500
H 	H 	0.12330 0.85260 0.64690 0.07000
C 	C 	0.07800 0.93210 0.67820 0.04800
C 	C 	0.08670 0.98240 0.72720 -0.12300
H 	H 	0.05490 0.01410 0.72730 0.07300
C 	C 	0.14040 0.98750 0.77570 0.06600
H 	H 	0.14380 0.02230 0.80980 -0.02300
C 	C 	0.02010 0.92450 0.62500 0.05700
C 	C 	0.99600 0.86650 0.60150 -0.13100
H 	H 	0.01840 0.82880 0.61730 0.07300
C 	C 	0.93990 0.86190 0.55560 0.08200
H 	H 	0.92440 0.82070 0.54160 -0.01600
C 	C 	0.93010 0.96870 0.55040 0.06600
H 	H 	0.90740 0.00550 0.53210 -0.02800
C 	C 	0.98710 0.97740 0.59780 -0.12600
H 	H 	0.00220 0.01900 0.61060 0.07900
C 	C 	0.64360 0.96110 0.75980 0.06200
H 	H 	0.67860 0.97700 0.79170 -0.01200
C 	C 	0.58390 0.96240 0.78480 -0.12400
H 	H 	0.57900 0.97690 0.83400 0.05900
C 	C 	0.53200 0.94250 0.73760 0.04800
C 	C 	0.54190 0.92090 0.66700 -0.12400
H 	H 	0.50740 0.90790 0.63220 0.06800
C 	C 	0.60300 0.91840 0.64790 0.06000
H 	H 	0.60950 0.90170 0.60010 -0.01600
N 	N 	0.81860 0.85280 0.37970 -0.23000
N 	N 	0.75530 0.66170 0.05630 -0.22200
N 	N 	0.18900 0.94600 0.77830 -0.24700
N 	N 	0.90680 0.91220 0.53000 -0.24900
N 	N 	0.65310 0.93820 0.69270 -0.22700
W 	W 	0.21508 0.48019 0.49674 0.26400
Cu	Cu	0.31869 0.41022 0.47362 0.83100
Cu	Cu	0.23681 0.45260 0.64348 0.83100
Cu	Cu	0.28545 0.58834 0.51649 0.84000
S 	S 	0.24013 0.38265 0.54570 -0.48300
S 	S 	0.21353 0.55122 0.59107 -0.47900
S 	S 	0.29084 0.51018 0.42639 -0.45800
Br	Br	0.38303 0.63602 0.57607 -0.41600
C 	C 	0.32990 0.28980 0.38150 0.07000
H 	H 	0.34410 0.27050 0.42820 -0.00900
C 	C 	0.32160 0.25240 0.31850 -0.12400
H 	H 	0.32940 0.20790 0.32230 0.06600
C 	C 	0.30190 0.27910 0.24960 0.05200
C 	C 	0.29150 0.34330 0.24760 -0.11700
H 	H 	0.27870 0.36370 0.20110 0.06400
C 	C 	0.29980 0.37860 0.31320 0.05800
H 	H 	0.29170 0.42320 0.31060 -0.00800
C 	C 	0.28860 0.24040 0.18080 0.05800
C 	C 	0.32520 0.18860 0.16520 -0.13300
H 	H 	0.36270 0.17860 0.19680 0.08100
C 	C 	0.30620 0.15150 0.10280 0.08200
H 	H 	0.33190 0.11620 0.09310 -0.02000
C 	C 	0.22130 0.21330 0.07070 0.06400
H 	H 	0.18460 0.22260 0.03740 0.00800
C 	C 	0.23590 0.25320 0.12990 -0.13200
H 	H 	0.21040 0.28950 0.13650 0.06900
C 	C 	0.68020 0.39670 0.72910 0.06400
H 	H 	0.71310 0.36630 0.72870 -0.00800
C 	C 	0.62680 0.38820 0.67970 -0.12600
H 	H 	0.62330 0.35260 0.64690 0.07000
C 	C 	0.57800 0.43210 0.67820 0.04900
C 	C 	0.58670 0.48240 0.72720 -0.12500
H 	H 	0.55490 0.51410 0.72730 0.07500
C 	C 	0.64040 0.48750 0.77570 0.06400
H 	H 	0.64380 0.52230 0.80980 -0.02100
C 	C 	0.52010 0.42450 0.62500 0.05600
C 	C 	0.49600 0.36650 0.60150 -0.12900
H 	H 	0.51840 0.32880 0.61730 0.07300
C 	C 	0.43990 0.36190 0.55560 0.08100
H 	H 	0.42440 0.32070 0.54160 -0.01600
C 	C 	0.43010 0.46870 0.55040 0.06500
H 	H 	0.40740 0.50550 0.53210 -0.02700
C 	C 	0.48710 0.47740 0.59780 -0.12500
H 	H 	0.50220 0.51900 0.61060 0.08000
C 	C 	0.14360 0.46110 0.75980 0.06200
H 	H 	0.17860 0.47700 0.79170 -0.01200
C 	C 	0.08390 0.46240 0.78480 -0.12400
H 	H 	0.07900 0.47690 0.83400 0.05900
C 	C 	0.03200 0.44250 0.73760 0.04800
C 	C 	0.04190 0.42090 0.66700 -0.12400
H 	H 	0.00740 0.40790 0.63220 0.06800
C 	C 	0.10300 0.41840 0.64790 0.06000
H 	H 	0.10950 0.40170 0.60010 -0.01700
N 	N 	0.31860 0.35280 0.37970 -0.23000
N 	N 	0.25530 0.16170 0.05630 -0.22100
N 	N 	0.68900 0.44600 0.77830 -0.24700
N 	N 	0.40680 0.41220 0.53000 -0.24900
N 	N 	0.15310 0.43820 0.69270 -0.22700
