data_crystal

_cell_length_a 12.10800
_cell_length_b 13.11500
_cell_length_c 14.53000
_cell_angle_alpha 73.38000
_cell_angle_beta  68.48000
_cell_angle_gamma 79.95000

_symmetry_space_group_name_	'P 1'
_symmetry_space_group_name_H-M	'P 1'

loop_
_symmetry_equiv_pos_as_xyz
  x,y,z

loop_
_atom_site_label
_atom_site_type_symbol
_atom_site_fract_x
_atom_site_fract_y
_atom_site_fract_z
_atom_site_charge
Cu	Cu	0.21127 0.27021 0.28957 0.90500
Cu	Cu	0.78873 0.72979 0.71043 0.90700
Cu	Cu	0.50000 0.00000 -0.00000 0.87500
H 	H 	0.48660 0.07370 0.83380 0.28200
H 	H 	0.66670 0.09990 0.06950 -0.01900
H 	H 	0.89280 0.39340 0.26240 0.26500
H 	H 	0.39250 0.11370 0.60210 0.07300
H 	H 	0.13900 0.37860 0.92460 0.03400
H 	H 	0.95030 0.26070 0.29700 -0.01700
H 	H 	0.16540 0.02170 0.37350 0.00900
H 	H 	0.25180 0.51180 0.24640 0.00700
H 	H 	0.49280 0.27480 0.22550 0.01800
H 	H 	0.80820 0.01990 0.33950 0.01100
H 	H 	0.75190 0.10660 0.40270 0.01600
H 	H 	0.95530 0.14780 0.96120 0.01500
H 	H 	0.90680 0.26110 0.91180 0.04000
H 	H 	0.66130 0.49620 0.11400 0.01600
H 	H 	0.64420 0.47040 0.23060 0.01900
H 	H 	0.68970 0.34290 0.95820 0.27800
H 	H 	0.66850 0.44170 0.00480 0.25300
H 	H 	0.79550 0.41190 0.93260 0.28400
H 	H 	0.72220 0.07720 0.79610 0.00700
H 	H 	0.65390 0.36890 0.35170 0.33500
H 	H 	0.58700 0.26440 0.39200 0.33600
H 	H 	0.71180 0.26160 0.40260 0.33100
H 	H 	0.91640 0.99850 0.20840 0.36500
H 	H 	0.90000 0.00850 0.10390 0.31400
H 	H 	0.00570 0.06030 0.10670 0.31500
H 	H 	0.51340 0.92630 0.16620 0.28900
H 	H 	0.33330 0.90010 0.93050 0.04200
H 	H 	0.10720 0.60660 0.73760 0.26900
H 	H 	0.60750 0.88630 0.39790 0.04200
H 	H 	0.86100 0.62140 0.07540 0.06400
H 	H 	0.04970 0.73930 0.70300 -0.01700
H 	H 	0.83460 0.97830 0.62650 0.02600
H 	H 	0.74820 0.48820 0.75360 0.00900
H 	H 	0.50720 0.72520 0.77450 0.01900
H 	H 	0.19180 0.98010 0.66050 0.04100
H 	H 	0.24810 0.89340 0.59730 0.03100
H 	H 	0.04470 0.85220 0.03880 0.02400
H 	H 	0.09320 0.73890 0.08820 0.04700
H 	H 	0.33870 0.50380 0.88600 0.01300
H 	H 	0.35580 0.52960 0.76940 0.01500
H 	H 	0.31030 0.65710 0.04180 0.36300
H 	H 	0.33150 0.55830 0.99520 0.37800
H 	H 	0.20450 0.58810 0.06740 0.37000
H 	H 	0.27780 0.92280 0.20390 0.01600
H 	H 	0.34610 0.63110 0.64830 0.33900
H 	H 	0.41300 0.73560 0.60800 0.33900
H 	H 	0.28820 0.73840 0.59740 0.33500
H 	H 	0.08360 0.00150 0.79160 0.25100
H 	H 	0.10000 0.99150 0.89610 0.27600
H 	H 	0.99430 0.93970 0.89330 0.27400
C 	C 	0.69984 0.10413 0.99986 0.13300
C 	C 	0.48466 0.02436 0.29882 0.28200
C 	C 	0.98210 0.50169 0.10079 -0.05400
C 	C 	0.42103 0.08227 0.46721 -0.02900
C 	C 	0.48768 0.01346 0.40508 -0.08400
C 	C 	0.43562 0.06758 0.56083 -0.08400
C 	C 	0.08273 0.42775 0.95507 0.06200
C 	C 	0.06689 0.42744 0.05592 -0.11200
C 	C 	0.95682 0.51158 0.20881 0.37300
C 	C 	0.98340 0.19231 0.31769 0.11600
C 	C 	0.09905 0.06088 0.35961 0.09400
C 	C 	0.32526 0.47261 0.23592 0.08700
C 	C 	0.45468 0.34283 0.22503 0.08900
C 	C 	0.14261 0.35020 0.11132 0.32300
C 	C 	0.33315 0.16869 0.43702 0.30000
C 	C 	0.81301 0.09229 0.34138 0.05700
C 	C 	0.82798 0.21899 0.06670 -0.29300
C 	C 	0.70681 0.33904 0.17108 -0.27200
C 	C 	0.75479 0.31269 0.07607 0.33000
C 	C 	0.79237 0.17052 0.24772 -0.29400
C 	C 	0.84597 0.14669 0.15256 0.39900
C 	C 	0.88387 0.19533 0.96307 0.07200
C 	C 	0.72296 0.26755 0.25852 0.39400
C 	C 	0.63394 0.44406 0.17847 0.05200
C 	C 	0.72433 0.38386 0.98449 -0.76600
C 	C 	0.73230 0.09283 0.85095 0.09300
C 	C 	0.66361 0.29287 0.36028 -0.97400
C 	C 	0.92418 0.04407 0.14192 -0.98500
C 	C 	0.30016 0.89587 0.00014 0.05300
C 	C 	0.51534 0.97564 0.70118 0.32300
C 	C 	0.01790 0.49831 0.89921 -0.12200
C 	C 	0.57897 0.91773 0.53279 -0.08700
C 	C 	0.51232 0.98654 0.59492 0.01300
C 	C 	0.56438 0.93242 0.43917 0.04300
C 	C 	0.91727 0.57225 0.04493 -0.05400
C 	C 	0.93311 0.57256 0.94408 -0.00900
C 	C 	0.04318 0.48842 0.79119 0.39800
C 	C 	0.01660 0.80769 0.68231 0.11200
C 	C 	0.90095 0.93912 0.64039 0.10400
C 	C 	0.67474 0.52739 0.76408 0.09200
C 	C 	0.54532 0.65717 0.77497 0.09400
C 	C 	0.85739 0.64980 0.88868 0.29500
C 	C 	0.66685 0.83131 0.56298 0.32500
C 	C 	0.18699 0.90771 0.65862 0.03600
C 	C 	0.17202 0.78101 0.93330 -0.26500
C 	C 	0.29319 0.66096 0.82892 -0.30900
C 	C 	0.24521 0.68731 0.92393 0.43300
C 	C 	0.20763 0.82948 0.75228 -0.26500
C 	C 	0.15403 0.85331 0.84744 0.34200
C 	C 	0.11613 0.80467 0.03693 0.02000
C 	C 	0.27704 0.73245 0.74148 0.39900
C 	C 	0.36606 0.55594 0.82153 0.07300
C 	C 	0.27567 0.61614 0.01551 -1.08500
C 	C 	0.26770 0.90717 0.14905 0.09600
C 	C 	0.33639 0.70713 0.63972 -0.98300
C 	C 	0.07582 0.95593 0.85808 -0.76300
N 	N 	0.33865 0.36642 0.24547 -0.22600
N 	N 	0.09075 0.16888 0.32640 -0.23300
N 	N 	0.65277 0.06965 0.94706 -0.22800
N 	N 	0.93098 0.10338 0.34303 -0.11000
N 	N 	0.80133 0.14576 0.93929 -0.11600
N 	N 	0.50806 0.43033 0.20388 -0.10600
N 	N 	0.42556 0.51545 0.21043 -0.09500
N 	N 	0.00509 0.01779 0.37004 -0.10700
N 	N 	0.82416 0.13895 0.84208 -0.09400
N 	N 	0.66135 0.63358 0.75453 -0.22500
N 	N 	0.90925 0.83112 0.67360 -0.22700
N 	N 	0.34723 0.93035 0.05294 -0.21200
N 	N 	0.06902 0.89662 0.65697 -0.10300
N 	N 	0.19867 0.85424 0.06071 -0.09800
N 	N 	0.49194 0.56967 0.79612 -0.10800
N 	N 	0.57444 0.48455 0.78957 -0.09200
N 	N 	0.99491 0.98221 0.62996 -0.08500
N 	N 	0.17584 0.86105 0.15792 -0.09200
O 	O 	0.14170 0.36806 0.19215 -0.40500
O 	O 	0.45206 0.09549 0.88558 -0.48400
O 	O 	0.29660 0.15865 0.36830 -0.37700
O 	O 	0.52998 0.10049 0.22951 -0.27000
O 	O 	0.89478 0.44600 0.28146 -0.48100
O 	O 	0.29986 0.24242 0.48062 -0.26800
O 	O 	0.43968 0.95042 0.28936 -0.24700
O 	O 	0.99467 0.59089 0.21634 -0.25800
O 	O 	0.20029 0.27310 0.07636 -0.29600
O 	O 	0.85830 0.63194 0.80785 -0.39000
O 	O 	0.54794 0.90451 0.11442 -0.48300
O 	O 	0.70340 0.84135 0.63170 -0.37600
O 	O 	0.47002 0.89951 0.77049 -0.26800
O 	O 	0.10522 0.55400 0.71854 -0.49200
O 	O 	0.70014 0.75758 0.51938 -0.27000
O 	O 	0.56032 0.04958 0.71064 -0.29600
O 	O 	0.00533 0.40911 0.78366 -0.26400
O 	O 	0.79971 0.72690 0.92364 -0.26500
