data_crystal

_cell_length_a 26.12200
_cell_length_b 12.74360
_cell_length_c 20.78900
_cell_angle_alpha 90.00000
_cell_angle_beta  122.12500
_cell_angle_gamma 90.00000

_symmetry_space_group_name_	'P 1'
_symmetry_space_group_name_H-M	'P 1'

loop_
_symmetry_equiv_pos_as_xyz
  x,y,z

loop_
_atom_site_label
_atom_site_type_symbol
_atom_site_fract_x
_atom_site_fract_y
_atom_site_fract_z
_atom_site_charge
N 	N 	0.09505 0.01700 0.10510 -0.26200
N 	N 	0.19442 0.02540 0.17630 -0.08700
N 	N 	0.43900 0.79730 0.53910 -0.11100
N 	N 	0.48799 0.65630 0.53990 -0.24200
N 	N 	0.96225 0.07990 0.06410 -0.23200
N 	N 	0.91446 0.19320 0.09320 -0.10900
C 	C 	0.14670 0.98470 0.11410 0.16400
H 	H 	0.14930 0.93900 0.08110 0.00900
C 	C 	0.11190 0.08280 0.16420 0.03700
H 	H 	0.08530 0.11850 0.17340 0.02200
C 	C 	0.17290 0.08900 0.20830 0.00400
H 	H 	0.19550 0.12920 0.25190 0.12700
C 	C 	0.25840 0.00680 0.20300 -0.12400
H 	H 	0.27630 0.07110 0.19870 0.15300
H 	H 	0.26130 0.95390 0.17150 0.14800
C 	C 	0.29266 0.97050 0.28500 0.01600
C 	C 	0.28050 0.87690 0.30540 0.19300
C 	C 	0.31040 0.84240 0.37880 0.27900
C 	C 	0.35640 0.90390 0.43820 -0.13200
C 	C 	0.36860 0.99630 0.41690 0.33100
C 	C 	0.33740 0.03060 0.34270 0.16600
C 	C 	0.38940 0.86930 0.52000 0.01600
H 	H 	0.40530 0.93050 0.55250 0.08500
H 	H 	0.36100 0.83510 0.52980 0.08200
C 	C 	0.49890 0.81670 0.58460 0.03400
H 	H 	0.51670 0.87910 0.60980 0.08800
C 	C 	0.52750 0.72930 0.58640 0.02000
H 	H 	0.56920 0.72000 0.61580 0.08500
C 	C 	0.43540 0.70160 0.51290 0.10500
H 	H 	0.39890 0.66930 0.47840 0.02600
C 	C 	0.95430 0.03770 0.11730 -0.02000
H 	H 	0.96700 0.97090 0.13780 0.05700
C 	C 	0.92470 0.10730 0.13740 0.02500
H 	H 	0.91400 0.09760 0.17310 0.05400
C 	C 	0.93720 0.17400 0.05100 0.10400
H 	H 	0.93570 0.22120 0.01600 0.03500
C 	C 	0.88090 0.28700 0.09000 0.01400
H 	H 	0.89050 0.34410 0.06730 0.08800
H 	H 	0.89320 0.30780 0.14110 0.08000
C 	C 	0.81280 0.26760 0.04370 -0.16800
C 	C 	0.78080 0.25160 0.07700 0.28500
C 	C 	0.78120 0.26640 0.96630 0.29300
F 	F 	0.80861 0.25180 0.15282 -0.41700
F 	F 	0.81041 0.28100 0.92874 -0.37000
F 	F 	0.35063 0.12460 0.32708 -0.36400
F 	F 	0.41146 0.05810 0.47042 -0.42700
F 	F 	0.29673 0.75050 0.39640 -0.41500
F 	F 	0.23807 0.81310 0.25170 -0.35400
N 	N 	0.59505 0.51700 0.10510 -0.24100
N 	N 	0.69442 0.52540 0.17630 -0.08200
N 	N 	0.93900 0.29730 0.53910 -0.13100
N 	N 	0.98799 0.15630 0.53990 -0.20700
N 	N 	0.46225 0.57990 0.06410 -0.24300
N 	N 	0.41446 0.69320 0.09320 -0.10700
C 	C 	0.64670 0.48470 0.11410 0.12400
H 	H 	0.64930 0.43900 0.08110 0.01900
C 	C 	0.61190 0.58280 0.16420 0.03700
H 	H 	0.58530 0.61850 0.17340 0.03000
C 	C 	0.67290 0.58900 0.20830 0.01300
H 	H 	0.69550 0.62920 0.25190 0.12600
C 	C 	0.75840 0.50680 0.20300 -0.02800
H 	H 	0.77630 0.57110 0.19870 0.13000
H 	H 	0.76130 0.45390 0.17150 0.10900
C 	C 	0.79266 0.47050 0.28500 -0.07000
C 	C 	0.78050 0.37690 0.30540 0.22800
C 	C 	0.81040 0.34240 0.37880 0.25400
C 	C 	0.85640 0.40390 0.43820 -0.10400
C 	C 	0.86860 0.49630 0.41690 0.26300
C 	C 	0.83740 0.53060 0.34270 0.24600
C 	C 	0.88940 0.36930 0.52000 0.01200
H 	H 	0.90530 0.43050 0.55250 0.08200
H 	H 	0.86100 0.33510 0.52980 0.08000
C 	C 	0.99890 0.31670 0.58460 0.17700
H 	H 	0.01670 0.37910 0.60980 0.01400
C 	C 	0.02750 0.22930 0.58640 -0.11300
H 	H 	0.06920 0.22000 0.61580 0.12500
C 	C 	0.93540 0.20160 0.51290 0.10800
H 	H 	0.89890 0.16930 0.47840 0.02300
C 	C 	0.45430 0.53770 0.11730 0.01700
H 	H 	0.46700 0.47090 0.13780 0.02400
C 	C 	0.42470 0.60730 0.13740 0.00300
H 	H 	0.41400 0.59760 0.17310 0.06100
C 	C 	0.43720 0.67400 0.05100 0.10000
H 	H 	0.43570 0.72120 0.01600 0.03100
C 	C 	0.38090 0.78700 0.09000 0.01500
H 	H 	0.39050 0.84410 0.06730 0.08800
H 	H 	0.39320 0.80780 0.14110 0.07900
C 	C 	0.31280 0.76760 0.04370 -0.17200
C 	C 	0.28080 0.75160 0.07700 0.28800
C 	C 	0.28120 0.76640 0.96630 0.30000
F 	F 	0.30861 0.75180 0.15282 -0.41800
F 	F 	0.31041 0.78100 0.92874 -0.36900
F 	F 	0.85063 0.62460 0.32708 -0.37300
F 	F 	0.91146 0.55810 0.47042 -0.40000
F 	F 	0.79673 0.25050 0.39640 -0.41400
F 	F 	0.73807 0.31310 0.25170 -0.36200
N 	N 	0.90495 0.01700 0.39490 -0.24600
N 	N 	0.80558 0.02540 0.32370 -0.08400
N 	N 	0.56100 0.79730 0.96090 -0.12600
N 	N 	0.51201 0.65630 0.96010 -0.24400
N 	N 	0.03775 0.07990 0.43590 -0.23600
N 	N 	0.08554 0.19320 0.40680 -0.10500
C 	C 	0.85330 0.98470 0.38590 0.15900
H 	H 	0.85070 0.93900 0.41890 0.01900
C 	C 	0.88810 0.08280 0.33580 0.03900
H 	H 	0.91470 0.11850 0.32660 0.03600
C 	C 	0.82710 0.08900 0.29170 0.00700
H 	H 	0.80450 0.12920 0.24810 0.12700
C 	C 	0.74160 0.00680 0.29700 -0.12000
H 	H 	0.72370 0.07110 0.30130 0.15300
H 	H 	0.73870 0.95390 0.32850 0.14800
C 	C 	0.70734 0.97050 0.21500 0.01500
C 	C 	0.71950 0.87690 0.19460 0.18700
C 	C 	0.68960 0.84240 0.12120 0.29100
C 	C 	0.64360 0.90390 0.06180 -0.18000
C 	C 	0.63140 0.99630 0.08310 0.33900
C 	C 	0.66260 0.03060 0.15730 0.16300
C 	C 	0.61060 0.86930 0.98000 0.07800
H 	H 	0.59470 0.93050 0.94750 0.07400
H 	H 	0.63900 0.83510 0.97020 0.07400
C 	C 	0.50110 0.81670 0.91540 0.04100
H 	H 	0.48330 0.87910 0.89020 0.08800
C 	C 	0.47250 0.72930 0.91360 0.02000
H 	H 	0.43080 0.72000 0.88420 0.08900
C 	C 	0.56460 0.70160 0.98710 0.18200
H 	H 	0.60110 0.66930 0.02160 -0.02500
C 	C 	0.04570 0.03770 0.38270 -0.03400
H 	H 	0.03300 0.97090 0.36220 0.05300
C 	C 	0.07530 0.10730 0.36260 0.02300
H 	H 	0.08600 0.09760 0.32690 0.04700
C 	C 	0.06280 0.17400 0.44900 0.09800
H 	H 	0.06430 0.22120 0.48400 0.04200
C 	C 	0.11910 0.28700 0.41000 -0.01400
H 	H 	0.10950 0.34410 0.43270 0.10000
H 	H 	0.10680 0.30780 0.35890 0.08200
C 	C 	0.18720 0.26760 0.45630 -0.10100
C 	C 	0.21920 0.25160 0.42300 0.24700
C 	C 	0.21880 0.26640 0.53370 0.22700
F 	F 	0.19139 0.25180 0.34718 -0.41200
F 	F 	0.18959 0.28100 0.57126 -0.36800
F 	F 	0.64937 0.12460 0.17292 -0.36500
F 	F 	0.58854 0.05810 0.02958 -0.44300
F 	F 	0.70327 0.75050 0.10360 -0.42400
F 	F 	0.76193 0.81310 0.24830 -0.35200
N 	N 	0.40495 0.51700 0.39490 -0.23700
N 	N 	0.30558 0.52540 0.32370 -0.08100
N 	N 	0.06100 0.29730 0.96090 -0.10500
N 	N 	0.01201 0.15630 0.96010 -0.27900
N 	N 	0.53775 0.57990 0.43590 -0.23700
N 	N 	0.58554 0.69320 0.40680 -0.09900
C 	C 	0.35330 0.48470 0.38590 0.12400
H 	H 	0.35070 0.43900 0.41890 0.02700
C 	C 	0.38810 0.58280 0.33580 0.03800
H 	H 	0.41470 0.61850 0.32660 0.03100
C 	C 	0.32710 0.58900 0.29170 0.01300
H 	H 	0.30450 0.62920 0.24810 0.12600
C 	C 	0.24160 0.50680 0.29700 -0.03100
H 	H 	0.22370 0.57110 0.30130 0.13100
H 	H 	0.23870 0.45390 0.32850 0.11100
C 	C 	0.20734 0.47050 0.21500 -0.06500
C 	C 	0.21950 0.37690 0.19460 0.21900
C 	C 	0.18960 0.34240 0.12120 0.26500
C 	C 	0.14360 0.40390 0.06180 -0.15200
C 	C 	0.13140 0.49630 0.08310 0.27500
C 	C 	0.16260 0.53060 0.15730 0.23600
C 	C 	0.11060 0.36930 0.98000 0.05500
H 	H 	0.09470 0.43050 0.94750 0.07200
H 	H 	0.13900 0.33510 0.97020 0.07600
C 	C 	0.00110 0.31670 0.91540 -0.09700
H 	H 	0.98330 0.37910 0.89020 0.15000
C 	C 	0.97250 0.22930 0.91360 0.14200
H 	H 	0.93080 0.22000 0.88420 0.04700
C 	C 	0.06460 0.20160 0.98710 0.17600
H 	H 	0.10110 0.16930 0.02160 -0.02700
C 	C 	0.54570 0.53770 0.38270 0.02100
H 	H 	0.53300 0.47090 0.36220 0.02400
C 	C 	0.57530 0.60730 0.36260 0.00300
H 	H 	0.58600 0.59760 0.32690 0.06200
C 	C 	0.56280 0.67400 0.44900 0.10300
H 	H 	0.56430 0.72120 0.48400 0.04500
C 	C 	0.61910 0.78700 0.41000 -0.01900
H 	H 	0.60950 0.84410 0.43270 0.10700
H 	H 	0.60680 0.80780 0.35890 0.08900
C 	C 	0.68720 0.76760 0.45630 -0.09700
C 	C 	0.71920 0.75160 0.42300 0.24800
C 	C 	0.71880 0.76640 0.53370 0.22800
F 	F 	0.69139 0.75180 0.34718 -0.41000
F 	F 	0.68959 0.78100 0.57126 -0.36600
F 	F 	0.14937 0.62460 0.17292 -0.37700
F 	F 	0.08854 0.55810 0.02958 -0.42600
F 	F 	0.20327 0.25050 0.10360 -0.42400
F 	F 	0.26193 0.31310 0.24830 -0.36100
N 	N 	0.90495 0.98300 0.89490 -0.20800
N 	N 	0.80558 0.97460 0.82370 -0.07800
N 	N 	0.56100 0.20270 0.46090 -0.10700
N 	N 	0.51201 0.34370 0.46010 -0.24100
N 	N 	0.03775 0.92010 0.93590 -0.23600
N 	N 	0.08554 0.80680 0.90680 -0.08900
C 	C 	0.85330 0.01530 0.88590 0.08800
H 	H 	0.85070 0.06100 0.91890 0.04400
C 	C 	0.88810 0.91720 0.83580 0.04000
H 	H 	0.91470 0.88150 0.82660 0.04000
C 	C 	0.82710 0.91100 0.79170 0.02300
H 	H 	0.80450 0.87080 0.74810 0.12500
C 	C 	0.74160 0.99320 0.79700 0.06500
H 	H 	0.72370 0.92890 0.80130 0.10900
H 	H 	0.73870 0.04610 0.82850 0.07400
C 	C 	0.70734 0.02950 0.71500 -0.15300
C 	C 	0.71950 0.12310 0.69460 0.26300
C 	C 	0.68960 0.15760 0.62120 0.22600
C 	C 	0.64360 0.09610 0.56180 -0.07200
C 	C 	0.63140 0.00370 0.58310 0.19400
C 	C 	0.66260 0.96940 0.65730 0.32400
C 	C 	0.61060 0.13070 0.48000 -0.01500
H 	H 	0.59470 0.06950 0.44750 0.08200
H 	H 	0.63900 0.16490 0.47020 0.08600
C 	C 	0.50110 0.18330 0.41540 0.03000
H 	H 	0.48330 0.12090 0.39020 0.08000
C 	C 	0.47250 0.27070 0.41360 0.01900
H 	H 	0.43080 0.28000 0.38420 0.08300
C 	C 	0.56460 0.29840 0.48710 0.10200
H 	H 	0.60110 0.33070 0.52160 0.02600
C 	C 	0.04570 0.96230 0.88270 0.07800
H 	H 	0.03300 0.02910 0.86220 -0.01500
C 	C 	0.07530 0.89270 0.86260 -0.02400
H 	H 	0.08600 0.90240 0.82690 0.07400
C 	C 	0.06280 0.82600 0.94900 0.10300
H 	H 	0.06430 0.77880 0.98400 0.05800
C 	C 	0.11910 0.71300 0.91000 -0.05100
H 	H 	0.10950 0.65590 0.93270 0.12100
H 	H 	0.10680 0.69220 0.85890 0.09500
C 	C 	0.18720 0.73240 0.95630 -0.02300
C 	C 	0.21920 0.74840 0.92300 0.20800
C 	C 	0.21880 0.73360 0.03370 0.15500
F 	F 	0.19139 0.74820 0.84718 -0.40200
F 	F 	0.18959 0.71900 0.07126 -0.36400
F 	F 	0.64937 0.87540 0.67292 -0.38500
F 	F 	0.58854 0.94190 0.52958 -0.38100
F 	F 	0.70327 0.24950 0.60360 -0.40800
F 	F 	0.76193 0.18690 0.74830 -0.36800
N 	N 	0.40495 0.48300 0.89490 -0.22900
N 	N 	0.30558 0.47460 0.82370 -0.08100
N 	N 	0.06100 0.70270 0.46090 -0.08700
N 	N 	0.01201 0.84370 0.46010 -0.26800
N 	N 	0.53775 0.42010 0.93590 -0.22800
N 	N 	0.58554 0.30680 0.90680 -0.09400
C 	C 	0.35330 0.51530 0.88590 0.12400
H 	H 	0.35070 0.56100 0.91890 0.03500
C 	C 	0.38810 0.41720 0.83580 0.03900
H 	H 	0.41470 0.38150 0.82660 0.03300
C 	C 	0.32710 0.41100 0.79170 0.01400
H 	H 	0.30450 0.37080 0.74810 0.12600
C 	C 	0.24160 0.49320 0.79700 -0.02800
H 	H 	0.22370 0.42890 0.80130 0.13100
H 	H 	0.23870 0.54610 0.82850 0.11200
C 	C 	0.20734 0.52950 0.71500 -0.07200
C 	C 	0.21950 0.62310 0.69460 0.22900
C 	C 	0.18960 0.65760 0.62120 0.25000
C 	C 	0.14360 0.59610 0.56180 -0.09900
C 	C 	0.13140 0.50370 0.58310 0.25900
C 	C 	0.16260 0.46940 0.65730 0.24700
C 	C 	0.11060 0.63070 0.48000 -0.01000
H 	H 	0.09470 0.56950 0.44750 0.08400
H 	H 	0.13900 0.66490 0.47020 0.08700
C 	C 	0.00110 0.68330 0.41540 -0.10500
H 	H 	0.98330 0.62090 0.39020 0.15000
C 	C 	0.97250 0.77070 0.41360 0.14300
H 	H 	0.93080 0.78000 0.38420 0.04600
C 	C 	0.06460 0.79840 0.48710 0.09900
H 	H 	0.10110 0.83070 0.52160 0.03100
C 	C 	0.54570 0.46230 0.88270 0.02500
H 	H 	0.53300 0.52910 0.86220 0.02600
C 	C 	0.57530 0.39270 0.86260 0.00400
H 	H 	0.58600 0.40240 0.82690 0.06400
C 	C 	0.56280 0.32600 0.94900 0.10600
H 	H 	0.56430 0.27880 0.98400 0.05900
C 	C 	0.61910 0.21300 0.91000 -0.04700
H 	H 	0.60950 0.15590 0.93270 0.11800
H 	H 	0.60680 0.19220 0.85890 0.09400
C 	C 	0.68720 0.23240 0.95630 -0.03100
C 	C 	0.71920 0.24840 0.92300 0.21000
C 	C 	0.71880 0.23360 0.03370 0.15900
F 	F 	0.69139 0.24820 0.84718 -0.40300
F 	F 	0.68959 0.21900 0.07126 -0.36600
F 	F 	0.14937 0.37540 0.67292 -0.37700
F 	F 	0.08854 0.44190 0.52958 -0.40800
F 	F 	0.20327 0.74950 0.60360 -0.40900
F 	F 	0.26193 0.68690 0.74830 -0.36000
N 	N 	0.09505 0.98300 0.60510 -0.21900
N 	N 	0.19442 0.97460 0.67630 -0.07800
N 	N 	0.43900 0.20270 0.03910 -0.09000
N 	N 	0.48799 0.34370 0.03990 -0.23500
N 	N 	0.96225 0.92010 0.56410 -0.23400
N 	N 	0.91446 0.80680 0.59320 -0.09600
C 	C 	0.14670 0.01530 0.61410 0.08100
H 	H 	0.14930 0.06100 0.58110 0.03700
C 	C 	0.11190 0.91720 0.66420 0.03800
H 	H 	0.08530 0.88150 0.67340 0.02800
C 	C 	0.17290 0.91100 0.70830 0.02200
H 	H 	0.19550 0.87080 0.75190 0.12500
C 	C 	0.25840 0.99320 0.70300 0.07900
H 	H 	0.27630 0.92890 0.69870 0.10300
H 	H 	0.26130 0.04610 0.67150 0.06700
C 	C 	0.29266 0.02950 0.78500 -0.16900
C 	C 	0.28050 0.12310 0.80540 0.27600
C 	C 	0.31040 0.15760 0.87880 0.20900
C 	C 	0.35640 0.09610 0.93820 -0.01900
C 	C 	0.36860 0.00370 0.91690 0.17300
C 	C 	0.33740 0.96940 0.84270 0.34100
C 	C 	0.38940 0.13070 0.02000 -0.07800
H 	H 	0.40530 0.06950 0.05250 0.09300
H 	H 	0.36100 0.16490 0.02980 0.09400
C 	C 	0.49890 0.18330 0.08460 0.02300
H 	H 	0.51670 0.12090 0.10980 0.08000
C 	C 	0.52750 0.27070 0.08640 0.01900
H 	H 	0.56920 0.28000 0.11580 0.08000
C 	C 	0.43540 0.29840 0.01290 0.02500
H 	H 	0.39890 0.33070 0.97840 0.07800
C 	C 	0.95430 0.96230 0.61730 0.06700
H 	H 	0.96700 0.02910 0.63780 0.00300
C 	C 	0.92470 0.89270 0.63740 -0.01200
H 	H 	0.91400 0.90240 0.67310 0.07500
C 	C 	0.93720 0.82600 0.55100 0.10700
H 	H 	0.93570 0.77880 0.51600 0.04800
C 	C 	0.88090 0.71300 0.59000 -0.02000
H 	H 	0.89050 0.65590 0.56730 0.10700
H 	H 	0.89320 0.69220 0.64110 0.09100
C 	C 	0.81280 0.73240 0.54370 -0.09700
C 	C 	0.78080 0.74840 0.57700 0.24800
C 	C 	0.78120 0.73360 0.46630 0.22700
F 	F 	0.80861 0.74820 0.65282 -0.40800
F 	F 	0.81041 0.71900 0.42874 -0.36700
F 	F 	0.35063 0.87540 0.82708 -0.38700
F 	F 	0.41146 0.94190 0.97042 -0.36000
F 	F 	0.29673 0.24950 0.89640 -0.39900
F 	F 	0.23807 0.18690 0.75170 -0.37200
N 	N 	0.59505 0.48300 0.60510 -0.23700
N 	N 	0.69442 0.47460 0.67630 -0.08200
N 	N 	0.93900 0.70270 0.03910 -0.11400
N 	N 	0.98799 0.84370 0.03990 -0.19600
N 	N 	0.46225 0.42010 0.56410 -0.23700
N 	N 	0.41446 0.30680 0.59320 -0.10100
C 	C 	0.64670 0.51530 0.61410 0.12400
H 	H 	0.64930 0.56100 0.58110 0.02700
C 	C 	0.61190 0.41720 0.66420 0.03900
H 	H 	0.58530 0.38150 0.67340 0.03100
C 	C 	0.67290 0.41100 0.70830 0.01400
H 	H 	0.69550 0.37080 0.75190 0.12600
C 	C 	0.75840 0.49320 0.70300 -0.02500
H 	H 	0.77630 0.42890 0.69870 0.13000
H 	H 	0.76130 0.54610 0.67150 0.11000
C 	C 	0.79266 0.52950 0.78500 -0.07600
C 	C 	0.78050 0.62310 0.80540 0.23700
C 	C 	0.81040 0.65760 0.87880 0.24000
C 	C 	0.85640 0.59610 0.93820 -0.05500
C 	C 	0.86860 0.50370 0.91690 0.24800
C 	C 	0.83740 0.46940 0.84270 0.25600
C 	C 	0.88940 0.63070 0.02000 -0.05000
H 	H 	0.90530 0.56950 0.05250 0.09400
H 	H 	0.86100 0.66490 0.02980 0.09000
C 	C 	0.99890 0.68330 0.08460 0.16700
H 	H 	0.01670 0.62090 0.10980 0.01500
C 	C 	0.02750 0.77070 0.08640 -0.10700
H 	H 	0.06920 0.78000 0.11580 0.12400
C 	C 	0.93540 0.79840 0.01290 0.03400
H 	H 	0.89890 0.83070 0.97840 0.07800
C 	C 	0.45430 0.46230 0.61730 0.02100
H 	H 	0.46700 0.52910 0.63780 0.02600
C 	C 	0.42470 0.39270 0.63740 0.00400
H 	H 	0.41400 0.40240 0.67310 0.06200
C 	C 	0.43720 0.32600 0.55100 0.10300
H 	H 	0.43570 0.27880 0.51600 0.04500
C 	C 	0.38090 0.21300 0.59000 -0.01400
H 	H 	0.39050 0.15590 0.56730 0.10000
H 	H 	0.39320 0.19220 0.64110 0.08400
C 	C 	0.31280 0.23240 0.54370 -0.10100
C 	C 	0.28080 0.24840 0.57700 0.24800
C 	C 	0.28120 0.23360 0.46630 0.22600
F 	F 	0.30861 0.24820 0.65282 -0.41000
F 	F 	0.31041 0.21900 0.42874 -0.36900
F 	F 	0.85063 0.37540 0.82708 -0.37300
F 	F 	0.91146 0.44190 0.97042 -0.38200
F 	F 	0.79673 0.74950 0.89640 -0.40000
F 	F 	0.73807 0.68690 0.75170 -0.36100
Mn	Mn	-0.00000 0.00000 -0.00000 1.21000
Mn	Mn	0.50000 0.50000 -0.00000 1.22700
Mn	Mn	-0.00000 0.00000 0.50000 1.22200
Mn	Mn	0.50000 0.50000 0.50000 1.24100
