data_crystal

_cell_length_a 22.49400
_cell_length_b 22.49400
_cell_length_c 22.49400
_cell_angle_alpha 113.08420
_cell_angle_beta  113.08420
_cell_angle_gamma 102.46440

_symmetry_space_group_name_	'P 1'
_symmetry_space_group_name_H-M	'P 1'

loop_
_symmetry_equiv_pos_as_xyz
  x,y,z

loop_
_atom_site_label
_atom_site_type_symbol
_atom_site_fract_x
_atom_site_fract_y
_atom_site_fract_z
_atom_site_charge
I 	I 	0.18770 0.47188 0.49583 -0.30600
Cu	Cu	0.32417 0.54475 0.60657 0.84200
S 	S 	0.91102 0.72957 0.31347 -0.45900
S 	S 	0.35554 0.48916 0.66810 -0.44500
N 	N 	0.05518 0.74876 0.45937 -0.22100
N 	N 	0.77932 0.74149 0.18389 -0.22000
N 	N 	0.38638 0.54079 0.56510 -0.22600
C 	C 	0.09057 0.75749 0.52930 0.03100
C 	C 	0.16595 0.78892 0.57328 -0.07200
C 	C 	0.20660 0.81083 0.54540 0.02900
C 	C 	0.16900 0.80254 0.47369 -0.06100
C 	C 	0.09318 0.77152 0.43155 0.03000
C 	C 	0.83544 0.79491 0.19855 0.02900
C 	C 	0.82430 0.82903 0.15717 -0.06700
C 	C 	0.75455 0.80742 0.09831 0.02600
C 	C 	0.69775 0.75139 0.08398 -0.06600
C 	C 	0.71118 0.72028 0.12821 0.03100
C 	C 	0.45875 0.57642 0.61254 0.03500
C 	C 	0.50298 0.56177 0.58488 -0.06600
C 	C 	0.47250 0.51275 0.50704 0.02800
C 	C 	0.39780 0.48165 0.45826 -0.07000
C 	C 	0.35547 0.49601 0.48870 0.02700
H 	H 	0.06008 0.73980 0.55116 0.00200
H 	H 	0.19227 0.79664 0.62914 0.05800
H 	H 	0.19804 0.81866 0.44985 0.04200
H 	H 	0.06500 0.76431 0.37592 0.01500
H 	H 	0.88902 0.81144 0.24251 0.01100
H 	H 	0.87020 0.87229 0.17186 0.04200
H 	H 	0.64312 0.73096 0.03853 0.04600
H 	H 	0.66680 0.67862 0.11774 0.01000
I 	I 	0.47645 0.69201 0.00390 -0.30600
Cu	Cu	0.43801 0.71749 0.89298 0.84100
S 	S 	0.91622 0.59750 0.18663 -0.45900
S 	S 	0.32079 0.68688 0.83157 -0.44500
N 	N 	0.78933 0.59553 0.04059 -0.22000
N 	N 	0.05778 0.59546 0.31629 -0.22000
N 	N 	0.47522 0.82116 0.93426 -0.22700
C 	C 	0.72815 0.56081 0.97060 0.03000
C 	C 	0.71552 0.59209 0.92649 -0.07200
C 	C 	0.76519 0.66064 0.95430 0.02700
C 	C 	0.82856 0.69494 0.02609 -0.06000
C 	C 	0.83977 0.66139 0.06835 0.03000
C 	C 	0.09655 0.63693 0.30165 0.02900
C 	C 	0.17205 0.66722 0.34309 -0.06700
C 	C 	0.20930 0.65639 0.40201 0.02500
C 	C 	0.16758 0.61390 0.41631 -0.06600
C 	C 	0.09224 0.58304 0.37202 0.03000
C 	C 	0.46343 0.84603 0.88676 0.03500
C 	C 	0.47633 0.91789 0.91433 -0.06500
C 	C 	0.50504 0.96529 0.99214 0.02700
C 	C 	0.52266 0.93941 0.04097 -0.06900
C 	C 	0.50669 0.86667 0.01062 0.02700
H 	H 	0.68870 0.50843 0.94879 0.00200
H 	H 	0.66740 0.56244 0.87060 0.05800
H 	H 	0.86842 0.74787 0.04986 0.04200
H 	H 	0.88816 0.68897 0.12403 0.01500
H 	H 	0.06912 0.64653 0.25768 0.01000
H 	H 	0.20063 0.69843 0.32841 0.04200
H 	H 	0.19258 0.60475 0.46178 0.04500
H 	H 	0.06105 0.54913 0.38248 0.01000
I 	I 	0.46689 0.47030 0.27939 -0.28700
Cu	Cu	0.55150 0.44759 0.22767 0.83900
S 	S 	0.72895 0.91599 0.81871 -0.46100
S 	S 	0.52360 0.33040 0.18077 -0.46000
N 	N 	0.74869 0.78887 0.69409 -0.22100
N 	N 	0.74056 0.05760 0.96200 -0.22100
N 	N 	0.53841 0.47597 0.15358 -0.23700
C 	C 	0.75638 0.72714 0.66643 0.03100
C 	C 	0.78831 0.71468 0.62295 -0.07000
C 	C 	0.81151 0.76505 0.60513 0.02800
C 	C 	0.80321 0.82856 0.63473 -0.06000
C 	C 	0.77218 0.83970 0.67950 0.03000
C 	C 	0.79418 0.09623 0.95945 0.02900
C 	C 	0.82838 0.17173 0.00464 -0.06800
C 	C 	0.80674 0.20910 0.05267 0.02700
C 	C 	0.75062 0.16757 0.05345 -0.06700
C 	C 	0.71924 0.09220 0.00877 0.03100
C 	C 	0.57470 0.46285 0.11773 0.03300
C 	C 	0.56166 0.47508 0.05864 -0.06900
C 	C 	0.51368 0.50459 0.03914 0.03000
C 	C 	0.48067 0.52226 0.08077 -0.07300
C 	C 	0.49330 0.50674 0.13767 0.03000
H 	H 	0.73763 0.68708 0.67820 0.00300
H 	H 	0.79523 0.66594 0.60396 0.05500
H 	H 	0.81921 0.86882 0.62214 0.04200
H 	H 	0.76540 0.88835 0.70084 0.01500
H 	H 	0.81080 0.06868 0.92256 0.01000
H 	H 	0.87176 0.20022 0.00209 0.04200
H 	H 	0.73038 0.19278 0.08780 0.05200
H 	H 	0.67732 0.06112 0.01127 0.00900
I 	I 	0.69033 0.18729 0.21977 -0.28800
Cu	Cu	0.71938 0.32365 0.27169 0.83900
S 	S 	0.59763 0.91025 0.68153 -0.46100
S 	S 	0.64904 0.34261 0.31851 -0.46000
N 	N 	0.59494 0.05449 0.80591 -0.22100
N 	N 	0.59576 0.77858 0.53815 -0.22000
N 	N 	0.82184 0.38460 0.34590 -0.23700
C 	C 	0.56047 0.08984 0.83278 0.03100
C 	C 	0.59154 0.16525 0.87634 -0.07000
C 	C 	0.66013 0.20626 0.89500 0.02800
C 	C 	0.69441 0.16834 0.86612 -0.06000
C 	C 	0.66076 0.09256 0.82129 0.03000
C 	C 	0.63756 0.83481 0.54126 0.03000
C 	C 	0.66788 0.82378 0.49610 -0.06800
C 	C 	0.65664 0.75403 0.44753 0.02700
C 	C 	0.61374 0.69706 0.44621 -0.06700
C 	C 	0.58304 0.71041 0.49088 0.03100
C 	C 	0.84464 0.45676 0.38186 0.03300
C 	C 	0.91595 0.50273 0.44103 -0.06900
C 	C 	0.96490 0.47418 0.46052 0.03200
C 	C 	0.94088 0.39953 0.41881 -0.07300
C 	C 	0.86846 0.35534 0.36182 0.03000
H 	H 	0.50832 0.05932 0.82035 0.00200
H 	H 	0.56152 0.19117 0.89477 0.05500
H 	H 	0.74754 0.19692 0.87933 0.04200
H 	H 	0.68836 0.06442 0.80055 0.01400
H 	H 	0.64741 0.88841 0.57860 0.01000
H 	H 	0.69941 0.86978 0.49909 0.04200
H 	H 	0.60414 0.64238 0.41144 0.05200
H 	H 	0.54900 0.66596 0.48797 0.01000
I 	I 	1.00038 0.01545 0.21186 -0.30500
Cu	Cu	0.06457 0.95538 0.27967 0.84200
S 	S 	0.58658 0.73222 0.65372 -0.44600
S 	S 	0.18172 1.02013 0.36045 -0.44800
N 	N 	0.72141 0.75706 0.81886 -0.22800
N 	N 	0.44165 0.74870 0.53497 -0.22900
N 	N 	0.04017 0.96289 0.35604 -0.22600
C 	C 	0.78457 0.75167 0.84610 0.03200
C 	C 	0.80034 0.72157 0.89141 -0.07300
C 	C 	0.75059 0.69552 0.90848 0.02700
C 	C 	0.68591 0.70187 0.87978 -0.06200
C 	C 	0.67245 0.73300 0.83531 0.02700
C 	C 	0.40170 0.68606 0.52370 0.02400
C 	C 	0.32636 0.65490 0.48010 -0.06600
C 	C 	0.29042 0.68848 0.44772 0.02400
C 	C 	0.33338 0.75332 0.46035 -0.06300
C 	C 	0.40881 0.78223 0.50372 0.02900
C 	C 	0.01705 0.90890 0.36648 0.03000
C 	C 	0.00364 0.92259 0.42532 -0.06100
C 	C 	0.01441 0.99224 0.47329 0.02700
C 	C 	1.03725 0.04609 0.45991 -0.06600
C 	C 	1.05004 1.03022 0.40117 0.03200
H 	H 	0.82266 0.77012 0.83209 0.00100
H 	H 	0.85014 0.71683 0.91126 0.05300
H 	H 	0.64630 0.68345 0.89224 0.04000
H 	H 	0.62254 0.73760 0.81359 -0.00600
H 	H 	0.42835 0.65982 0.54833 0.00900
H 	H 	0.29682 0.60437 0.47142 0.04000
H 	H 	0.30927 0.78276 0.43872 0.04800
H 	H 	0.44114 0.83237 0.51368 0.00100
I 	I 	0.30376 0.78863 0.28807 -0.30400
Cu	Cu	0.17593 0.78524 0.22056 0.84200
S 	S 	0.57863 0.93279 0.84634 -0.44600
S 	S 	0.15962 0.82153 0.13969 -0.44900
N 	N 	0.43847 0.90238 0.68097 -0.22800
N 	N 	0.71384 0.90677 0.96532 -0.22900
N 	N 	0.10709 0.68451 0.14428 -0.22600
C 	C 	0.40594 0.93748 0.65211 0.03200
C 	C 	0.33055 0.90790 0.60664 -0.07200
C 	C 	0.28732 0.84193 0.59110 0.02700
C 	C 	0.32229 0.80668 0.62123 -0.06200
C 	C 	0.39787 0.83770 0.66584 0.02700
C 	C 	0.66253 0.87825 0.97674 0.02300
C 	C 	0.67500 0.84655 0.02039 -0.06500
C 	C 	0.74093 0.84289 0.05266 0.02400
C 	C 	0.79308 0.87310 0.03991 -0.06300
C 	C 	0.77860 0.90512 -0.00350 0.03000
C 	C 	0.04276 0.65093 0.13399 0.03000
C 	C 	-0.00244 0.57870 0.07510 -0.06000
C 	C 	0.01909 0.54158 0.02692 0.02600
C 	C 	0.08626 0.57782 0.04018 -0.06400
C 	C 	0.12919 0.64931 0.09900 0.02900
H 	H 	0.43851 0.98899 0.66502 0.00100
H 	H 	0.30605 0.93721 0.58544 0.05200
H 	H 	0.29136 0.75515 0.60980 0.04000
H 	H 	0.42412 0.81008 0.68871 -0.00500
H 	H 	0.61168 0.88033 0.95218 0.00900
H 	H 	0.63321 0.82579 0.02919 0.04000
H 	H 	0.84411 0.87053 0.06144 0.04800
H 	H 	0.81872 0.92738 -0.01357 0.00200
I 	I 	0.78790 1.00002 0.48456 -0.30200
Cu	Cu	0.78538 0.06470 0.60951 0.84200
S 	S 	0.93338 0.58644 0.35378 -0.45100
S 	S 	0.82151 0.18160 0.66102 -0.45100
N 	N 	0.90352 0.72124 0.46451 -0.22900
N 	N 	0.90659 0.44143 0.19249 -0.22900
N 	N 	0.68474 0.04027 0.57824 -0.22600
C 	C 	0.92846 0.78988 0.52174 0.03100
C 	C 	0.89892 0.80574 0.56772 -0.06900
C 	C 	0.84316 0.75056 0.55563 0.02800
C 	C 	0.81812 0.68051 0.49544 -0.06500
C 	C 	0.84890 0.66690 0.45077 0.02800
C 	C 	0.87903 0.40164 0.21598 0.02400
C 	C 	0.84722 0.32626 0.17188 -0.06400
C 	C 	0.84232 0.29020 0.10163 0.02500
C 	C 	0.87186 0.33297 0.07918 -0.06300
C 	C 	0.90406 0.40840 0.12560 0.03000
C 	C 	0.65148 0.01671 0.60909 0.02900
C 	C 	0.57905 0.00252 0.58189 -0.06000
C 	C 	0.54134 0.01316 0.52305 0.02400
C 	C 	0.57749 1.03700 0.49245 -0.06200
C 	C 	0.64912 1.05023 0.52097 0.02900
H 	H 	0.97188 0.83231 0.53219 -0.00000
H 	H 	0.92032 0.86053 0.61306 0.04600
H 	H 	0.77436 0.63650 0.48251 0.04600
H 	H 	0.82879 0.61263 0.40479 -0.00700
H 	H 	0.88204 0.42840 0.26945 0.00600
H 	H 	0.82731 0.29673 0.19340 0.04200
H 	H 	0.86875 0.30867 0.02529 0.04700
H 	H 	0.92584 0.44059 0.10733 0.00100
I 	I 	0.01572 0.30457 0.01599 -0.30600
Cu	Cu	0.95557 0.17690 0.89122 0.84300
S 	S 	0.73280 0.57954 0.14638 -0.45200
S 	S 	1.02074 0.16143 0.83944 -0.44800
N 	N 	0.75689 0.43888 0.03573 -0.22900
N 	N 	0.74912 0.71405 0.30767 -0.22900
N 	N 	0.96286 0.10786 0.92293 -0.22500
C 	C 	0.76922 0.40663 0.97926 0.02900
C 	C 	0.73914 0.33112 0.93328 -0.06900
C 	C 	0.69517 0.28740 0.94459 0.02700
C 	C 	0.68446 0.32251 0.00409 -0.06400
C 	C 	0.71548 0.39796 0.04876 0.02800
C 	C 	0.68557 0.66320 0.28391 0.02400
C 	C 	0.65431 0.67550 0.32803 -0.06400
C 	C 	0.68878 0.74062 0.39856 0.02500
C 	C 	0.75429 0.79241 0.42129 -0.06300
C 	C 	0.78327 0.77819 0.37485 0.02900
C 	C 	0.90845 0.04353 0.89169 0.03000
C 	C 	0.92062 -0.00236 0.91818 -0.06000
C 	C 	0.98934 0.01801 0.97731 0.02600
C 	C 	0.04649 0.08858 0.01014 -0.06500
C 	C 	1.03026 0.13056 -0.01940 0.03000
H 	H 	0.80193 0.43964 0.96944 -0.00100
H 	H 	0.74936 0.30721 0.88856 0.04500
H 	H 	0.65276 0.29166 0.01650 0.04600
H 	H 	0.70652 0.42380 0.09420 -0.00700
H 	H 	0.65863 0.61292 0.23021 0.00600
H 	H 	0.60304 0.63424 0.30629 0.04200
H 	H 	0.78410 0.84299 0.47539 0.04700
H 	H 	0.83393 0.81807 0.39332 0.00100
I 	I 	0.80337 0.51988 0.51481 -0.30400
Cu	Cu	0.67506 0.45670 0.39035 0.84300
S 	S 	0.07744 0.23062 0.64624 -0.45200
S 	S 	0.65785 0.51977 0.33641 -0.45200
N 	N 	0.93639 0.25512 0.53611 -0.22900
N 	N 	0.21251 0.24696 0.80758 -0.22900
N 	N 	0.60598 0.46469 0.42174 -0.22600
C 	C 	0.90425 0.27242 0.48412 0.02900
C 	C 	0.82877 0.24249 0.43825 -0.06700
C 	C 	0.78507 0.19380 0.44529 0.02700
C 	C 	0.82011 0.17849 0.50071 -0.06400
C 	C 	0.89548 0.20925 0.54515 0.02800
C 	C 	0.15993 0.18604 0.78646 0.02400
C 	C 	0.17236 0.15443 0.83019 -0.06400
C 	C 	0.23945 0.18592 0.89771 0.02500
C 	C 	0.29306 0.24869 0.91779 -0.06400
C 	C 	0.27857 0.27810 0.87174 0.03000
C 	C 	0.54271 0.41042 0.39316 0.03100
C 	C 	0.49785 0.42460 0.42055 -0.06100
C 	C 	0.51868 0.49509 0.47727 0.02800
C 	C 	0.58449 0.54932 0.50551 -0.06500
C 	C 	0.62708 0.53288 0.47671 0.02900
H 	H 	0.93731 0.30915 0.47787 -0.00100
H 	H 	0.80493 0.25671 0.39704 0.04300
H 	H 	0.78928 0.14340 0.51024 0.04500
H 	H 	0.92126 0.19659 0.58729 -0.00500
H 	H 	0.10809 0.16156 0.73521 0.00300
H 	H 	0.12961 0.10520 0.81057 0.04000
H 	H 	0.34535 0.27606 0.96962 0.04700
H 	H 	0.31987 0.32670 0.88812 0.00100
I 	I 	0.50456 0.28860 0.98456 -0.30600
Cu	Cu	0.56587 0.28463 0.10895 0.84300
S 	S 	0.08444 0.43100 0.85362 -0.45200
S 	S 	0.68289 0.32133 0.16296 -0.45100
N 	N 	0.21921 0.40017 0.96377 -0.23000
N 	N 	0.93941 0.40485 0.69230 -0.22800
N 	N 	0.54239 0.18413 0.07746 -0.22600
C 	C 	0.28854 0.41943 0.01511 0.03000
C 	C 	0.30455 0.38989 0.06104 -0.06800
C 	C 	0.24885 0.33985 0.05476 0.02800
C 	C 	0.17805 0.32002 0.99995 -0.06600
C 	C 	0.16431 0.35085 0.95542 0.02800
C 	C 	0.89957 0.37398 0.71376 0.02400
C 	C 	0.82423 0.34273 0.67001 -0.06400
C 	C 	0.78822 0.34172 0.60211 0.02500
C 	C 	0.83097 0.37470 0.58171 -0.06400
C 	C 	0.90643 0.40623 0.62780 0.03000
C 	C 	0.51677 0.14946 0.10611 0.03100
C 	C 	0.50348 0.07719 0.07867 -0.06100
C 	C 	0.51713 0.04125 0.02187 0.02800
C 	C 	0.54304 0.07877 0.99355 -0.06600
C 	C 	0.55546 0.15019 1.02237 0.02800
H 	H 	0.33149 0.45819 0.02075 -0.00200
H 	H 	0.36001 0.40675 0.10171 0.04300
H 	H 	0.13343 0.28015 0.99095 0.04500
H 	H 	0.10946 0.33492 0.91377 -0.00600
H 	H 	0.92631 0.37384 0.76530 0.00400
H 	H 	0.79462 0.32011 0.68993 0.04000
H 	H 	0.80659 0.37474 0.52964 0.04700
H 	H 	0.93868 0.43073 0.61118 0.00200
I 	I 	0.54042 0.52695 0.73054 -0.29000
Cu	Cu	0.45811 0.56398 0.78031 0.84200
S 	S 	0.23048 0.08399 0.15294 -0.45300
S 	S 	0.48288 0.67845 0.82171 -0.46800
N 	N 	0.25389 0.21819 0.31721 -0.22900
N 	N 	0.24687 0.93910 0.03475 -0.22800
N 	N 	0.47211 0.54276 0.85940 -0.23700
C 	C 	0.26897 0.28723 0.36479 0.03000
C 	C 	0.23804 0.30263 0.40938 -0.06700
C 	C 	0.19060 0.24663 0.40529 0.02600
C 	C 	0.17744 0.17627 0.35680 -0.06400
C 	C 	0.20923 0.16308 0.31316 0.02700
C 	C 	0.18509 0.89937 0.02511 0.02600
C 	C 	0.15363 0.82403 0.98138 -0.06700
C 	C 	0.18610 0.78802 0.94734 0.02600
C 	C 	0.24978 0.83061 0.95786 -0.06600
C 	C 	0.27909 0.90605 1.00154 0.02800
C 	C 	0.41660 0.51621 0.86633 0.02700
C 	C 	0.42876 0.50264 0.92463 -0.06400
C 	C 	0.49873 0.51724 0.97609 0.02800
C 	C 	0.55474 0.54486 0.96731 -0.06800
C 	C 	0.54021 0.55804 0.90886 0.03100
H 	H 	0.30460 0.33040 0.36766 -0.00100
H 	H 	0.25052 0.35787 0.44600 0.04500
H 	H 	0.14342 0.13170 0.35352 0.04400
H 	H 	0.19838 0.10851 0.27625 -0.00700
H 	H 	0.15976 0.92615 0.05113 0.00400
H 	H 	0.10375 0.79439 0.97381 0.04100
H 	H 	0.27776 0.80609 0.93399 0.05100
H 	H 	0.32839 0.93824 1.00995 0.00000
I 	I 	0.29560 0.80933 0.76966 -0.29000
Cu	Cu	0.28318 0.67732 0.71938 0.84200
S 	S 	0.43105 0.07751 0.34696 -0.45300
S 	S 	0.35615 0.66087 0.67777 -0.46800
N 	N 	0.40099 0.93657 0.18276 -0.22900
N 	N 	0.40441 0.21211 0.46511 -0.22900
N 	N 	0.18286 0.61218 0.64032 -0.23700
C 	C 	0.42277 0.90406 0.13553 0.03000
C 	C 	0.39364 0.82856 0.09100 -0.06700
C 	C 	0.34145 0.78518 0.09477 0.02600
C 	C 	0.31928 0.82050 0.14294 -0.06300
C 	C 	0.34970 0.89594 0.18654 0.02800
C 	C 	0.37409 0.15986 0.47449 0.02400
C 	C 	0.34256 0.17211 0.51829 -0.06500
C 	C 	0.34086 0.23871 0.55264 0.02600
C 	C 	0.37315 0.29199 0.54238 -0.06600
C 	C 	0.40484 0.27764 0.49862 0.03000
C 	C 	0.14937 0.54964 0.63320 0.02700
C 	C 	0.07750 0.50356 0.57490 -0.06300
C 	C 	0.04062 0.52222 0.52361 0.02600
C 	C 	0.07703 0.58710 0.53256 -0.06800
C 	C 	0.14866 0.63097 0.59102 0.03100
H 	H 	0.46332 0.93683 0.13292 -0.00100
H 	H 	0.41252 0.80443 0.05466 0.04500
H 	H 	0.27781 0.78976 0.14600 0.04500
H 	H 	0.33183 0.92200 0.22322 -0.00600
H 	H 	0.37462 0.10843 0.44820 0.00300
H 	H 	0.32031 0.12971 0.52565 0.04000
H 	H 	0.37270 0.34392 0.56650 0.05100
H 	H 	0.42878 0.31862 0.49040 0.00000
I 	I 	-0.02298 0.97288 0.78610 -0.29000
Cu	Cu	0.95045 0.05417 0.73066 0.83900
S 	S 	0.41391 0.22767 0.31874 -0.45800
S 	S 	0.83286 0.02456 0.68314 -0.46200
N 	N 	0.28706 0.24642 0.19393 -0.22100
N 	N 	0.55567 0.23974 0.46260 -0.22000
N 	N 	0.97824 0.03945 0.65556 -0.23500
C 	C 	0.22891 0.26070 0.17260 0.03100
C 	C 	0.21648 0.29216 0.12868 -0.07000
C 	C 	0.26350 0.30872 0.10468 0.02900
C 	C 	0.32374 0.29430 0.12850 -0.06000
C 	C 	0.33466 0.26333 0.17324 0.03100
C 	C 	0.59399 0.29705 0.46449 0.03000
C 	C 	0.66952 0.33132 0.50960 -0.06900
C 	C 	0.70717 0.30628 0.55329 0.02700
C 	C 	0.66596 0.24678 0.54995 -0.06700
C 	C 	0.59060 0.21523 0.50538 0.03100
C 	C 	0.96259 0.07284 0.61677 0.03300
C 	C 	0.97313 0.05736 0.55625 -0.06800
C 	C 	1.00325 0.00958 0.53779 0.03000
C 	C 	0.02388 0.98003 0.58265 -0.07100
C 	C 	0.01010 -0.00489 0.64108 0.02600
H 	H 	0.19152 0.24716 0.18938 0.00300
H 	H 	0.17034 0.30376 0.11406 0.05500
H 	H 	0.36144 0.30534 0.11135 0.04300
H 	H 	0.38049 0.25143 0.18989 0.01300
H 	H 	0.56606 0.31670 0.43153 0.00900
H 	H 	0.69787 0.37746 0.51056 0.04300
H 	H 	0.69147 0.22401 0.58091 0.05200
H 	H 	0.55987 0.17061 0.50480 0.01000
I 	I 	0.68667 0.19121 0.71494 -0.28800
Cu	Cu	0.82340 0.22031 0.76997 0.83900
S 	S 	0.40882 0.09501 0.18104 -0.45900
S 	S 	0.84169 0.15046 0.81772 -0.46100
N 	N 	0.55245 0.09299 0.30614 -0.22100
N 	N 	0.27685 0.09280 0.03710 -0.22000
N 	N 	0.88378 0.32321 0.84476 -0.23700
C 	C 	0.58796 0.05655 0.32854 0.03100
C 	C 	0.66334 0.08799 0.37249 -0.07000
C 	C 	0.70399 0.15859 0.39549 0.02900
C 	C 	0.66584 0.19467 0.37073 -0.06000
C 	C 	0.59013 0.16088 0.32592 0.03100
C 	C 	0.33200 0.12808 0.03414 0.03000
C 	C 	0.32121 0.15857 0.98910 -0.07000
C 	C 	0.25278 0.15364 0.94647 0.02700
C 	C 	0.19685 0.11684 0.95077 -0.06700
C 	C 	0.20979 0.08600 0.99529 0.03000
C 	C 	0.95597 0.34631 0.88330 0.03300
C 	C 	1.00110 0.41739 0.94374 -0.06800
C 	C 	0.97186 0.46598 0.96235 0.03100
C 	C 	0.89745 0.44184 0.91764 -0.07300
C 	C 	0.85400 0.36961 0.85930 0.03000
H 	H 	0.55756 0.00272 0.31251 0.00200
H 	H 	0.68946 0.05672 0.38787 0.05400
H 	H 	0.69410 0.24924 0.38717 0.04300
H 	H 	0.56167 0.18979 0.30850 0.01300
H 	H 	0.38433 0.13208 0.06615 0.00900
H 	H 	0.36616 0.18510 0.98729 0.04300
H 	H 	0.14337 0.11226 0.92060 0.05200
H 	H 	0.16590 0.05665 0.99660 0.01000
I 	I 	0.19040 -0.02369 0.50410 -0.29300
Cu	Cu	0.21962 0.94913 0.39651 0.83900
S 	S 	0.09546 0.41419 0.68611 -0.46300
S 	S 	0.14923 0.83179 0.30788 -0.46100
N 	N 	0.09126 0.28548 0.53861 -0.22200
N 	N 	0.09318 0.55572 0.81648 -0.22100
N 	N 	0.32245 0.97622 0.43914 -0.23600
C 	C 	0.05414 0.22653 0.46653 0.03100
C 	C 	0.08489 0.21352 0.42180 -0.07200
C 	C 	0.15535 0.26086 0.45112 0.03200
C 	C 	0.19198 0.32137 0.52533 -0.06900
C 	C 	0.15915 0.33301 0.56814 0.03400
C 	C 	0.12892 0.59418 0.79714 0.03100
C 	C 	0.15907 0.66967 0.83844 -0.06900
C 	C 	0.15378 0.70708 0.90169 0.02800
C 	C 	0.11643 0.66580 0.92026 -0.06700
C 	C 	0.08566 0.59044 0.87626 0.03100
C 	C 	0.34636 0.96302 0.39075 0.03300
C 	C 	0.41743 0.97352 0.41686 -0.06900
C 	C 	0.46530 1.00098 0.49428 0.03300
C 	C 	0.44001 0.01816 0.54384 -0.07500
C 	C 	0.36792 0.00488 0.51485 0.03000
H 	H 	0.00035 0.18901 0.44362 0.00200
H 	H 	0.05340 0.16678 0.36446 0.05500
H 	H 	0.24645 0.35826 0.55062 0.05100
H 	H 	0.18879 0.37929 0.62565 0.00400
H 	H 	0.13332 0.56633 0.74905 0.00700
H 	H 	0.18543 0.69830 0.82014 0.04700
H 	H 	0.11127 0.69129 0.96877 0.05200
H 	H 	0.05570 0.55956 0.89015 0.01000
I 	I 	0.97218 0.68627 0.99624 -0.28900
Cu	Cu	0.05245 0.82310 0.10376 0.83900
S 	S 	0.22811 0.40918 0.81368 -0.46300
S 	S 	0.02396 0.84134 0.19253 -0.46100
N 	N 	0.24694 0.55251 0.96127 -0.22300
N 	N 	0.23937 0.27653 0.68346 -0.22100
N 	N 	0.03653 0.88310 0.06096 -0.23500
C 	C 	0.25960 0.58740 0.03315 0.03300
C 	C 	0.29133 0.66288 0.07795 -0.07300
C 	C 	0.30984 0.70410 0.04889 0.03400
C 	C 	0.29665 0.66658 0.97490 -0.07100
C 	C 	0.26546 0.59093 0.93202 0.03500
C 	C 	0.29745 0.33153 0.70314 0.03100
C 	C 	0.33167 0.32045 0.66185 -0.06900
C 	C 	0.30560 0.25201 0.59832 0.02800
C 	C 	0.24551 0.19614 0.57947 -0.06700
C 	C 	0.21412 0.20932 0.62343 0.03200
C 	C 	0.07219 0.95543 0.10912 0.03200
C 	C 	0.05649 1.00034 0.08295 -0.06700
C 	C 	0.00576 0.97062 0.00577 0.03000
C 	C 	0.97279 0.89576 0.95638 -0.06900
C 	C 	-0.01123 0.85273 0.98539 0.02600
H 	H 	0.24463 0.55647 0.05587 0.00300
H 	H 	0.30159 0.68867 0.13515 0.05600
H 	H 	0.30869 0.69581 0.94982 0.05100
H 	H 	0.25464 0.56312 0.87467 0.00400
H 	H 	0.31790 0.38392 0.75148 0.00700
H 	H 	0.37875 0.36505 0.68035 0.04700
H 	H 	0.22232 0.14257 0.53074 0.05300
H 	H 	0.16913 0.16550 0.60928 0.01100
W 	W 	0.84481 0.59472 0.25008 0.09900
W 	W 	0.59425 0.84411 0.75008 0.11200
W 	W 	0.09305 0.34295 0.74993 0.09700
W 	W 	0.34269 0.09267 0.24992 0.09700
W 	W 	0.34854 0.59846 0.74980 0.07700
W 	W 	0.65786 0.40803 0.24968 0.08000
W 	W 	0.15822 0.90834 0.25010 0.07900
W 	W 	0.90863 0.15897 0.75024 0.08000
Cu	Cu	0.94699 0.69891 0.40003 0.84500
Cu	Cu	0.79896 0.54682 0.10009 0.84400
Cu	Cu	0.69890 0.79878 0.75263 0.84400
Cu	Cu	0.54637 0.94617 0.74741 0.84500
Cu	Cu	0.04413 0.29648 0.59963 0.84400
Cu	Cu	0.19694 0.44435 0.90022 0.84400
Cu	Cu	0.29642 0.19637 0.25188 0.84500
Cu	Cu	0.44445 0.04443 0.24800 0.84400
Cu	Cu	0.79261 0.69320 0.24380 0.84500
Cu	Cu	0.94958 0.54881 0.25634 0.84500
Cu	Cu	0.69250 0.94940 0.90063 0.84500
Cu	Cu	0.54896 0.79191 0.59955 0.84500
Cu	Cu	0.19141 0.29041 0.74365 0.84500
Cu	Cu	0.04681 0.44758 0.75622 0.84400
Cu	Cu	0.29030 0.04643 0.09899 0.84400
Cu	Cu	0.44743 0.19127 0.40080 0.84500
H 	H 	0.48201 0.61360 0.67255 -0.00100
H 	H 	0.56046 0.58698 0.62459 0.05700
H 	H 	0.37242 0.44609 0.39739 0.05000
H 	H 	0.29777 0.46970 0.45136 0.00700
H 	H 	0.44069 0.80926 0.82678 -0.00100
H 	H 	0.46186 0.93560 0.87457 0.05600
H 	H 	0.54787 0.97492 0.10182 0.05000
H 	H 	0.51773 0.84637 0.04801 0.00700
H 	H 	0.61163 0.44004 0.13306 -0.03100
H 	H 	0.58771 0.46011 0.02743 0.05500
H 	H 	0.44555 0.54780 0.06938 0.05000
H 	H 	0.46704 0.51921 0.16898 0.00600
H 	H 	0.80658 0.47843 0.36653 -0.03100
H 	H 	0.93224 0.56000 0.47230 0.05500
H 	H 	0.97774 0.37574 0.43015 0.05100
H 	H 	0.84959 0.29777 0.33043 0.00600
H 	H 	0.01156 0.85632 0.33119 0.01700
H 	H 	-0.01382 0.87975 0.43412 0.03900
H 	H 	1.04693 0.10058 0.49562 0.04700
H 	H 	1.06927 1.07220 0.39208 0.00200
H 	H 	0.02555 0.68071 0.16939 0.01700
H 	H 	-0.05402 0.55240 0.06639 0.03900
H 	H 	0.10493 0.55184 0.00432 0.04600
H 	H 	0.18020 0.67765 0.10799 0.00200
H 	H 	0.68157 0.01117 0.65605 0.01700
H 	H 	0.55300 -0.01561 0.60705 0.03800
H 	H 	0.55137 1.04704 0.44798 0.04600
H 	H 	0.67716 1.06978 0.49816 0.00200
H 	H 	0.85613 0.02676 0.84453 0.01700
H 	H 	0.87700 -0.05368 0.89210 0.03900
H 	H 	0.10090 0.10729 0.05498 0.04500
H 	H 	1.07205 0.18168 0.00311 0.00200
H 	H 	0.52627 0.35702 0.34799 0.01700
H 	H 	0.44739 0.38135 0.39749 0.04000
H 	H 	0.60241 0.60436 0.54846 0.04700
H 	H 	0.67711 0.57501 0.49743 0.00100
H 	H 	0.50859 0.17822 0.15131 0.01700
H 	H 	0.48332 0.04982 0.10177 0.04000
H 	H 	0.55505 0.05371 0.95053 0.04600
H 	H 	0.57678 0.17945 1.00157 0.00100
H 	H 	0.36345 0.50735 0.82780 -0.00700
H 	H 	0.38430 0.48142 0.92978 0.04000
H 	H 	0.60946 0.55760 1.00616 0.04700
H 	H 	0.58332 0.58160 0.90338 -0.00100
H 	H 	0.17907 0.53489 0.67158 -0.00700
H 	H 	0.05112 0.45385 0.56960 0.04000
H 	H 	0.05094 0.60310 0.49384 0.04600
H 	H 	0.17768 0.67966 0.59665 -0.00100
H 	H 	0.93906 0.10930 0.63095 -0.03100
H 	H 	0.95633 0.08142 0.52320 0.05400
H 	H 	0.05069 0.94596 0.57282 0.05000
H 	H 	0.02482 -0.02867 0.67472 0.00700
H 	H 	0.97818 0.30855 0.86904 -0.03100
H 	H 	1.05821 0.43359 0.97667 0.05500
H 	H 	0.87328 0.47853 0.92756 0.05100
H 	H 	0.79655 0.35071 0.82583 0.00700
H 	H 	0.30926 0.94150 0.33108 -0.03000
H 	H 	0.43412 0.95862 0.37624 0.05500
H 	H 	0.47571 0.04217 0.60439 0.04900
H 	H 	0.34842 0.01762 0.55291 0.00500
H 	H 	0.11079 0.97811 0.16869 -0.02900
H 	H 	0.08265 1.05769 0.12340 0.05500
H 	H 	0.93562 0.87080 0.89594 0.04800
H 	H 	-0.03691 0.79514 0.94749 0.00600
