data_crystal

_cell_length_a 13.22420
_cell_length_b 38.36600
_cell_length_c 13.25150
_cell_angle_alpha 90.00000
_cell_angle_beta  99.75200
_cell_angle_gamma 90.00000

_symmetry_space_group_name_	'P 1'
_symmetry_space_group_name_H-M	'P 1'

loop_
_symmetry_equiv_pos_as_xyz
  x,y,z

loop_
_atom_site_label
_atom_site_type_symbol
_atom_site_fract_x
_atom_site_fract_y
_atom_site_fract_z
_atom_site_charge
La	La	0.24087 0.37495 0.72859 1.68500
O 	O 	0.31490 0.43533 0.76770 -0.25800
O 	O 	0.22820 0.31230 0.68190 -0.26300
O 	O 	0.80940 0.59557 0.44090 -0.26100
O 	O 	0.55780 0.13942 0.15650 -0.25100
O 	O 	0.37920 0.36782 0.62290 -0.25800
O 	O 	0.40460 0.36464 0.84020 -0.26700
O 	O 	0.21930 0.34339 0.88630 -0.26200
O 	O 	0.11880 0.41062 0.81080 -0.26100
N 	N 	0.26300 0.46377 0.73100 -0.07600
N 	N 	0.27410 0.28729 0.74390 -0.07400
N 	N 	0.89240 0.57953 0.48880 -0.06800
N 	N 	0.51400 0.16290 0.08880 -0.07100
N 	N 	0.36450 0.36470 0.52170 -0.07100
N 	N 	0.50320 0.37098 0.83750 -0.06500
N 	N 	0.24650 0.34782 0.98710 -0.06800
N 	N 	0.02200 0.40401 0.82330 -0.06700
C 	C 	0.20070 0.47970 0.78480 0.04800
H 	H 	0.19970 0.47260 0.85330 0.03300
C 	C 	0.13800 0.50622 0.74340 -0.10400
H 	H 	0.09450 0.51730 0.78380 0.06500
C 	C 	0.13670 0.51704 0.64400 0.04200
C 	C 	0.20840 0.50184 0.59250 -0.09600
H 	H 	0.21360 0.50970 0.52560 0.06400
C 	C 	0.27250 0.47539 0.63660 0.04300
H 	H 	0.32240 0.46560 0.60120 0.02800
C 	C 	0.21640 0.26774 0.79640 0.05200
H 	H 	0.14440 0.27140 0.78750 0.02900
C 	C 	0.26120 0.24236 0.86280 -0.10200
H 	H 	0.22050 0.22890 0.90090 0.06600
C 	C 	0.36720 0.23653 0.87380 0.04300
C 	C 	0.42230 0.25686 0.81760 -0.10000
H 	H 	0.49410 0.25330 0.82320 0.06400
C 	C 	0.37570 0.28229 0.75340 0.04300
H 	H 	0.41520 0.29630 0.71570 0.02700
C 	C 	0.95780 0.56407 0.43570 0.04800
H 	H 	0.94740 0.56640 0.36330 0.02400
C 	C 	0.03900 0.54507 0.48430 -0.09900
H 	H 	0.08450 0.53460 0.44500 0.06500
C 	C 	0.05660 0.54075 0.58990 0.04100
C 	C 	0.99000 0.55859 0.64310 -0.10300
H 	H 	0.00080 0.55770 0.71580 0.06400
C 	C 	0.90890 0.57736 0.59150 0.04800
H 	H 	0.86370 0.58900 0.62890 0.03000
C 	C 	0.55290 0.16918 0.00370 0.05600
H 	H 	0.61290 0.15720 0.99240 0.01800
C 	C 	0.50690 0.19265 0.93280 -0.10700
H 	H 	0.53500 0.19680 0.87250 0.06600
C 	C 	0.41950 0.21042 0.94840 0.04700
C 	C 	0.38090 0.20290 0.03770 -0.10800
H 	H 	0.32010 0.21400 0.05030 0.06700
C 	C 	0.43040 0.17956 0.10710 0.05700
H 	H 	0.40500 0.17520 0.16880 0.02700
C 	C 	0.32990 0.33443 0.47890 0.03500
H 	H 	0.31890 0.31520 0.52100 0.03100
C 	C 	0.31000 0.33095 0.37330 -0.09700
H 	H 	0.28570 0.30930 0.34370 0.06000
C 	C 	0.32510 0.35858 0.31040 0.04000
C 	C 	0.36330 0.38893 0.35810 -0.10300
H 	H 	0.37670 0.40830 0.31790 0.06500
C 	C 	0.38220 0.39158 0.46340 0.05300
H 	H 	0.40810 0.41280 0.49460 0.02600
C 	C 	0.57390 0.34779 0.88030 0.04800
H 	H 	0.55290 0.32700 0.90990 0.03200
C 	C 	0.67720 0.35402 0.88120 -0.10200
H 	H 	0.72660 0.33750 0.91170 0.06400
C 	C 	0.70910 0.38392 0.83850 0.04200
C 	C 	0.63320 0.40704 0.79390 -0.09700
H 	H 	0.65220 0.42790 0.76320 0.06400
C 	C 	0.53180 0.40017 0.79360 0.04500
H 	H 	0.48110 0.41610 0.76220 0.02900
C 	C 	0.29600 0.37703 0.02740 0.05000
H 	H 	0.31240 0.39490 0.98310 0.01700
C 	C 	0.32240 0.38092 0.13100 -0.10200
H 	H 	0.35680 0.40150 0.15810 0.06600
C 	C 	0.29950 0.35513 0.19730 0.04400
C 	C 	0.24880 0.32575 0.15260 -0.10700
H 	H 	0.23170 0.30750 0.19500 0.06300
C 	C 	0.22320 0.32276 0.04860 0.05500
H 	H 	0.18820 0.30250 0.01980 0.02600
C 	C 	0.99530 0.37266 0.85410 0.03800
H 	H 	0.04590 0.35510 0.87170 0.03200
C 	C 	0.89250 0.36575 0.86030 -0.09300
H 	H 	0.87360 0.34330 0.88120 0.06100
C 	C 	0.81840 0.39117 0.83630 0.04100
C 	C 	0.85240 0.42343 0.80910 -0.10300
H 	H 	0.80440 0.44200 0.79500 0.06300
C 	C 	0.95260 0.42943 0.80200 0.05100
H 	H 	0.97320 0.45180 0.78190 0.02400
La	La	0.25913 0.87495 0.77141 1.68600
O 	O 	0.18510 0.93533 0.73230 -0.25700
O 	O 	0.27180 0.81230 0.81810 -0.26200
O 	O 	0.69060 0.09557 0.05910 -0.26000
O 	O 	0.94220 0.63942 0.34350 -0.25000
O 	O 	0.12080 0.86782 0.87710 -0.25700
O 	O 	0.09540 0.86464 0.65980 -0.26600
O 	O 	0.28070 0.84339 0.61370 -0.26100
O 	O 	0.38120 0.91062 0.68920 -0.26000
N 	N 	0.23700 0.96377 0.76900 -0.07500
N 	N 	0.22590 0.78729 0.75610 -0.07300
N 	N 	0.60760 0.07953 0.01120 -0.06700
N 	N 	0.98600 0.66290 0.41120 -0.07000
N 	N 	0.13550 0.86470 0.97830 -0.06900
N 	N 	0.99680 0.87098 0.66250 -0.06400
N 	N 	0.25350 0.84782 0.51290 -0.06800
N 	N 	0.47800 0.90401 0.67670 -0.06900
C 	C 	0.29930 0.97970 0.71520 0.04900
H 	H 	0.30030 0.97260 0.64670 0.03300
C 	C 	0.36200 0.00622 0.75660 -0.10400
H 	H 	0.40550 0.01730 0.71620 0.06500
C 	C 	0.36330 0.01704 0.85600 0.04200
C 	C 	0.29160 0.00184 0.90750 -0.09700
H 	H 	0.28640 0.00970 0.97440 0.06400
C 	C 	0.22750 0.97539 0.86340 0.04300
H 	H 	0.17760 0.96560 0.89880 0.02800
C 	C 	0.28360 0.76774 0.70360 0.05300
H 	H 	0.35560 0.77140 0.71250 0.02900
C 	C 	0.23880 0.74236 0.63720 -0.10300
H 	H 	0.27950 0.72890 0.59910 0.06600
C 	C 	0.13280 0.73653 0.62620 0.04300
C 	C 	0.07770 0.75686 0.68240 -0.10100
H 	H 	0.00590 0.75330 0.67680 0.06400
C 	C 	0.12430 0.78229 0.74660 0.04300
H 	H 	0.08480 0.79630 0.78430 0.02700
C 	C 	0.54220 0.06407 0.06430 0.04700
H 	H 	0.55260 0.06640 0.13670 0.02400
C 	C 	0.46100 0.04507 0.01570 -0.09800
H 	H 	0.41550 0.03460 0.05500 0.06500
C 	C 	0.44340 0.04075 0.91010 0.04100
C 	C 	0.51000 0.05859 0.85690 -0.10200
H 	H 	0.49920 0.05770 0.78420 0.06400
C 	C 	0.59110 0.07736 0.90850 0.04700
H 	H 	0.63630 0.08900 0.87110 0.03100
C 	C 	0.94710 0.66918 0.49630 0.05400
H 	H 	0.88710 0.65720 0.50760 0.01900
C 	C 	0.99310 0.69265 0.56720 -0.10400
H 	H 	0.96500 0.69680 0.62750 0.06500
C 	C 	0.08050 0.71042 0.55160 0.04500
C 	C 	0.11910 0.70290 0.46230 -0.10700
H 	H 	0.17990 0.71400 0.44970 0.06700
C 	C 	0.06960 0.67956 0.39290 0.05500
H 	H 	0.09500 0.67520 0.33120 0.02800
C 	C 	0.17010 0.83443 0.02110 0.03200
H 	H 	0.18110 0.81520 0.97900 0.03200
C 	C 	0.19000 0.83095 0.12670 -0.09500
H 	H 	0.21430 0.80930 0.15630 0.05900
C 	C 	0.17490 0.85858 0.18960 0.03900
C 	C 	0.13670 0.88893 0.14190 -0.10200
H 	H 	0.12330 0.90830 0.18210 0.06400
C 	C 	0.11780 0.89158 0.03660 0.05100
H 	H 	0.09190 0.91280 0.00540 0.02600
C 	C 	0.92610 0.84779 0.61970 0.04800
H 	H 	0.94710 0.82700 0.59010 0.03200
C 	C 	0.82280 0.85402 0.61880 -0.10100
H 	H 	0.77340 0.83750 0.58830 0.06400
C 	C 	0.79090 0.88392 0.66150 0.04100
C 	C 	0.86680 0.90704 0.70610 -0.09600
H 	H 	0.84780 0.92790 0.73680 0.06300
C 	C 	0.96820 0.90017 0.70640 0.04400
H 	H 	0.01890 0.91610 0.73780 0.02900
C 	C 	0.20400 0.87703 0.47260 0.05100
H 	H 	0.18760 0.89490 0.51690 0.01600
C 	C 	0.17760 0.88092 0.36900 -0.10300
H 	H 	0.14320 0.90150 0.34190 0.06600
C 	C 	0.20050 0.85513 0.30270 0.04500
C 	C 	0.25120 0.82575 0.34740 -0.10700
H 	H 	0.26830 0.80750 0.30500 0.06300
C 	C 	0.27680 0.82276 0.45140 0.05600
H 	H 	0.31180 0.80250 0.48020 0.02600
C 	C 	0.50470 0.87266 0.64590 0.04200
H 	H 	0.45410 0.85510 0.62830 0.03000
C 	C 	0.60750 0.86575 0.63970 -0.09600
H 	H 	0.62640 0.84330 0.61880 0.06200
C 	C 	0.68160 0.89117 0.66370 0.04300
C 	C 	0.64760 0.92343 0.69090 -0.10400
H 	H 	0.69560 0.94200 0.70500 0.06300
C 	C 	0.54740 0.92943 0.69800 0.05300
H 	H 	0.52680 0.95180 0.71810 0.02400
La	La	0.75913 0.62505 0.27141 1.68600
O 	O 	0.68510 0.56467 0.23230 -0.25700
O 	O 	0.77180 0.68770 0.31810 -0.26200
O 	O 	0.19060 0.40443 0.55910 -0.26000
O 	O 	0.44220 0.86058 0.84350 -0.25000
O 	O 	0.62080 0.63218 0.37710 -0.25700
O 	O 	0.59540 0.63536 0.15980 -0.26600
O 	O 	0.78070 0.65661 0.11370 -0.26100
O 	O 	0.88120 0.58938 0.18920 -0.26000
N 	N 	0.73700 0.53623 0.26900 -0.07500
N 	N 	0.72590 0.71271 0.25610 -0.07300
N 	N 	0.10760 0.42047 0.51120 -0.06700
N 	N 	0.48600 0.83710 0.91120 -0.07100
N 	N 	0.63550 0.63530 0.47830 -0.07100
N 	N 	0.49680 0.62902 0.16250 -0.06500
N 	N 	0.75350 0.65218 0.01290 -0.06800
N 	N 	0.97800 0.59599 0.17670 -0.06700
C 	C 	0.79930 0.52030 0.21520 0.04800
H 	H 	0.80030 0.52740 0.14670 0.03300
C 	C 	0.86200 0.49378 0.25660 -0.10400
H 	H 	0.90550 0.48270 0.21620 0.06500
C 	C 	0.86330 0.48296 0.35600 0.04200
C 	C 	0.79160 0.49816 0.40750 -0.09600
H 	H 	0.78640 0.49030 0.47440 0.06400
C 	C 	0.72750 0.52461 0.36340 0.04300
H 	H 	0.67760 0.53440 0.39880 0.02800
C 	C 	0.78360 0.73226 0.20360 0.05200
H 	H 	0.85560 0.72860 0.21250 0.02900
C 	C 	0.73880 0.75764 0.13720 -0.10200
H 	H 	0.77950 0.77110 0.09910 0.06600
C 	C 	0.63280 0.76347 0.12620 0.04300
C 	C 	0.57770 0.74314 0.18240 -0.10000
H 	H 	0.50590 0.74670 0.17680 0.06400
C 	C 	0.62430 0.71771 0.24660 0.04300
H 	H 	0.58480 0.70370 0.28430 0.02700
C 	C 	0.04220 0.43593 0.56430 0.04800
H 	H 	0.05260 0.43360 0.63670 0.02400
C 	C 	0.96100 0.45493 0.51570 -0.09900
H 	H 	0.91550 0.46540 0.55500 0.06500
C 	C 	0.94340 0.45925 0.41010 0.04100
C 	C 	0.01000 0.44141 0.35690 -0.10300
H 	H 	0.99920 0.44230 0.28420 0.06400
C 	C 	0.09110 0.42264 0.40850 0.04800
H 	H 	0.13630 0.41100 0.37110 0.03000
C 	C 	0.44710 0.83082 0.99630 0.05600
H 	H 	0.38710 0.84280 0.00760 0.01800
C 	C 	0.49310 0.80735 0.06720 -0.10700
H 	H 	0.46500 0.80320 0.12750 0.06600
C 	C 	0.58050 0.78958 0.05160 0.04700
C 	C 	0.61910 0.79710 0.96230 -0.10800
H 	H 	0.67990 0.78600 0.94970 0.06700
C 	C 	0.56960 0.82044 0.89290 0.05700
H 	H 	0.59500 0.82480 0.83120 0.02700
C 	C 	0.67010 0.66557 0.52110 0.03500
H 	H 	0.68110 0.68480 0.47900 0.03100
C 	C 	0.69000 0.66905 0.62670 -0.09700
H 	H 	0.71430 0.69070 0.65630 0.06000
C 	C 	0.67490 0.64142 0.68960 0.04000
C 	C 	0.63670 0.61107 0.64190 -0.10300
H 	H 	0.62330 0.59170 0.68210 0.06500
C 	C 	0.61780 0.60842 0.53660 0.05300
H 	H 	0.59190 0.58720 0.50540 0.02600
C 	C 	0.42610 0.65221 0.11970 0.04800
H 	H 	0.44710 0.67300 0.09010 0.03200
C 	C 	0.32280 0.64598 0.11880 -0.10200
H 	H 	0.27340 0.66250 0.08830 0.06400
C 	C 	0.29090 0.61608 0.16150 0.04200
C 	C 	0.36680 0.59296 0.20610 -0.09700
H 	H 	0.34780 0.57210 0.23680 0.06400
C 	C 	0.46820 0.59983 0.20640 0.04500
H 	H 	0.51890 0.58390 0.23780 0.02900
C 	C 	0.70400 0.62297 0.97260 0.05000
H 	H 	0.68760 0.60510 0.01690 0.01700
C 	C 	0.67760 0.61908 0.86900 -0.10200
H 	H 	0.64320 0.59850 0.84190 0.06600
C 	C 	0.70050 0.64487 0.80270 0.04400
C 	C 	0.75120 0.67425 0.84740 -0.10700
H 	H 	0.76830 0.69250 0.80500 0.06300
C 	C 	0.77680 0.67724 0.95140 0.05500
H 	H 	0.81180 0.69750 0.98020 0.02600
C 	C 	0.00470 0.62734 0.14590 0.03800
H 	H 	0.95410 0.64490 0.12830 0.03200
C 	C 	0.10750 0.63425 0.13970 -0.09300
H 	H 	0.12640 0.65670 0.11880 0.06100
C 	C 	0.18160 0.60883 0.16370 0.04100
C 	C 	0.14760 0.57657 0.19090 -0.10300
H 	H 	0.19560 0.55800 0.20500 0.06300
C 	C 	0.04740 0.57057 0.19800 0.05100
H 	H 	0.02680 0.54820 0.21810 0.02400
La	La	0.74087 0.12505 0.22859 1.68600
O 	O 	0.81490 0.06467 0.26770 -0.25700
O 	O 	0.72820 0.18770 0.18190 -0.26200
O 	O 	0.30940 0.90443 0.94090 -0.26000
O 	O 	0.05780 0.36058 0.65650 -0.25000
O 	O 	0.87920 0.13218 0.12290 -0.25700
O 	O 	0.90460 0.13536 0.34020 -0.26600
O 	O 	0.71930 0.15661 0.38630 -0.26100
O 	O 	0.61880 0.08938 0.31080 -0.26000
N 	N 	0.76300 0.03623 0.23100 -0.07500
N 	N 	0.77410 0.21271 0.24390 -0.07300
N 	N 	0.39240 0.92047 0.98880 -0.06700
N 	N 	0.01400 0.33710 0.58880 -0.07000
N 	N 	0.86450 0.13530 0.02170 -0.06900
N 	N 	0.00320 0.12902 0.33750 -0.06400
N 	N 	0.74650 0.15218 0.48710 -0.06800
N 	N 	0.52200 0.09599 0.32330 -0.06900
C 	C 	0.70070 0.02030 0.28480 0.04900
H 	H 	0.69970 0.02740 0.35330 0.03300
C 	C 	0.63800 0.99378 0.24340 -0.10400
H 	H 	0.59450 0.98270 0.28380 0.06500
C 	C 	0.63670 0.98296 0.14400 0.04200
C 	C 	0.70840 0.99816 0.09250 -0.09700
H 	H 	0.71360 0.99030 0.02560 0.06400
C 	C 	0.77250 0.02461 0.13660 0.04300
H 	H 	0.82240 0.03440 0.10120 0.02800
C 	C 	0.71640 0.23226 0.29640 0.05300
H 	H 	0.64440 0.22860 0.28750 0.02900
C 	C 	0.76120 0.25764 0.36280 -0.10300
H 	H 	0.72050 0.27110 0.40090 0.06600
C 	C 	0.86720 0.26347 0.37380 0.04300
C 	C 	0.92230 0.24314 0.31760 -0.10100
H 	H 	0.99410 0.24670 0.32320 0.06400
C 	C 	0.87570 0.21771 0.25340 0.04300
H 	H 	0.91520 0.20370 0.21570 0.02700
C 	C 	0.45780 0.93593 0.93570 0.04700
H 	H 	0.44740 0.93360 0.86330 0.02400
C 	C 	0.53900 0.95493 0.98430 -0.09800
H 	H 	0.58450 0.96540 0.94500 0.06500
C 	C 	0.55660 0.95925 0.08990 0.04100
C 	C 	0.49000 0.94141 0.14310 -0.10200
H 	H 	0.50080 0.94230 0.21580 0.06400
C 	C 	0.40890 0.92264 0.09150 0.04700
H 	H 	0.36370 0.91100 0.12890 0.03100
C 	C 	0.05290 0.33082 0.50370 0.05400
H 	H 	0.11290 0.34280 0.49240 0.01900
C 	C 	0.00690 0.30735 0.43280 -0.10400
H 	H 	0.03500 0.30320 0.37250 0.06500
C 	C 	0.91950 0.28958 0.44840 0.04500
C 	C 	0.88090 0.29710 0.53770 -0.10700
H 	H 	0.82010 0.28600 0.55030 0.06700
C 	C 	0.93040 0.32044 0.60710 0.05500
H 	H 	0.90500 0.32480 0.66880 0.02800
C 	C 	0.82990 0.16557 0.97890 0.03200
H 	H 	0.81890 0.18480 0.02100 0.03200
C 	C 	0.81000 0.16905 0.87330 -0.09500
H 	H 	0.78570 0.19070 0.84370 0.05900
C 	C 	0.82510 0.14142 0.81040 0.03900
C 	C 	0.86330 0.11107 0.85810 -0.10200
H 	H 	0.87670 0.09170 0.81790 0.06400
C 	C 	0.88220 0.10842 0.96340 0.05100
H 	H 	0.90810 0.08720 0.99460 0.02600
C 	C 	0.07390 0.15221 0.38030 0.04800
H 	H 	0.05290 0.17300 0.40990 0.03200
C 	C 	0.17720 0.14598 0.38120 -0.10100
H 	H 	0.22660 0.16250 0.41170 0.06400
C 	C 	0.20910 0.11608 0.33850 0.04100
C 	C 	0.13320 0.09296 0.29390 -0.09600
H 	H 	0.15220 0.07210 0.26320 0.06300
C 	C 	0.03180 0.09983 0.29360 0.04400
H 	H 	0.98110 0.08390 0.26220 0.02900
C 	C 	0.79600 0.12297 0.52740 0.05100
H 	H 	0.81240 0.10510 0.48310 0.01600
C 	C 	0.82240 0.11908 0.63100 -0.10300
H 	H 	0.85680 0.09850 0.65810 0.06600
C 	C 	0.79950 0.14487 0.69730 0.04500
C 	C 	0.74880 0.17425 0.65260 -0.10700
H 	H 	0.73170 0.19250 0.69500 0.06300
C 	C 	0.72320 0.17724 0.54860 0.05600
H 	H 	0.68820 0.19750 0.51980 0.02600
C 	C 	0.49530 0.12734 0.35410 0.04200
H 	H 	0.54590 0.14490 0.37170 0.03000
C 	C 	0.39250 0.13425 0.36030 -0.09600
H 	H 	0.37360 0.15670 0.38120 0.06200
C 	C 	0.31840 0.10883 0.33630 0.04300
C 	C 	0.35240 0.07657 0.30910 -0.10400
H 	H 	0.30440 0.05800 0.29500 0.06300
C 	C 	0.45260 0.07057 0.30200 0.05300
H 	H 	0.47320 0.04820 0.28190 0.02400
